
###############################################################################
#
# This file contains modified crystal structure data generated from the
# MOF subset of the Cambridge Structural Database (CSD) v543 
# hosted by the Cambridge Crystallographic Data Centre (CCDC).
#
# This work is licensed under the Creative Commons
# Attribution-NonCommercial-ShareAlike 4.0 International License.
# To view a copy of this license, visit
# http://creativecommons.org/licenses/by-nc-sa/4.0/
# or send a letter to
# Creative Commons, PO Box 1866, Mountain View, CA 94042, USA.
#
# CIF created using the CSD Python API on 29 September 2022
# The structure has been converted into the P1 space group
# The structure has a 3D framework
# The original CSD entry EMIHIS is in the orthorhombic crystal system
# The framework has been calculated to contain at least 10.0% void space
# The void calculation uses a probe of radius 1.32A, grid spacing 0.4
# The framework is charged, counterions have been retained in the structure
#
###############################################################################

data_EMIHIS
_chemical_formula_moiety         '(C144 H144 Cd32 In128 N32 S248 64-)n'
_symmetry_cell_setting           triclinic
_symmetry_space_group_name_H-M   'P 1'
_symmetry_Int_Tables_number      1
_space_group_name_Hall           'P 1'
loop_
_symmetry_equiv_pos_site_id
_symmetry_equiv_pos_as_xyz
1 x,y,z
_cell_length_a                   25.7722(10)
_cell_length_b                   25.6993(11)
_cell_length_c                   48.340(2)
_cell_angle_alpha                90
_cell_angle_beta                 90
_cell_angle_gamma                90
_cell_volume                     32016.9
loop_
_atom_site_label
_atom_site_type_symbol
_atom_site_fract_x
_atom_site_fract_y
_atom_site_fract_z
Cd3 Cd 0.03875(19) 0.2563(2) 0.15429(10)
Cd4 Cd 0.0103(2) 0.1640(2) 0.08883(13)
S17 S 0.0676(7) 0.0975(7) 0.1084(3)
S18 S 0.0640(6) 0.2195(7) 0.0581(3)
S19 S 0.0551(8) 0.3496(8) 0.0112(4)
S22 S 0.0020(8) 0.1846(8) 0.2411(4)
S25 S 0.0995(8) 0.0687(9) 0.2248(4)
S26 S 0.0969(6) 0.1911(7) 0.1756(3)
S27 S 0.0948(6) 0.3122(7) 0.1256(3)
S28 S 0.0896(7) 0.4390(8) 0.0797(4)
S29 S 0.1934(7) 0.0719(8) 0.1550(4)
S30 S 0.1883(7) 0.1955(8) 0.1077(4)
S31 S 0.1822(8) 0.3164(8) 0.0573(4)
In6 In 0.0122(2) 0.0416(2) 0.13899(11)
In7 In 0.00620(19) 0.2891(2) 0.03969(10)
In11 In 0.04042(19) 0.1340(2) 0.20409(10)
In12 In 0.03614(18) 0.3818(2) 0.10688(10)
In13 In 0.1308(2) 0.0274(2) 0.18340(12)
In14 In 0.13505(19) 0.1396(2) 0.13592(11)
In15 In 0.13053(19) 0.2601(2) 0.08680(10)
In16 In 0.1187(2) 0.3807(2) 0.04422(11)
N2 N 0.172(2) 0.430(3) 0.0157(11)
C1 C 0.207(3) 0.408(3) 0.0037(17)
H1 H 0.2186 0.3743 0.0086
C5 C 0.127(5) 0.549(5) 0.003(3)
C6 C 0.124(4) 0.508(4) 0.013(2)
H3 H 0.0972 0.5001 0.0253
C7 C 0.156(4) 0.477(4) 0.005(2)
C9 C 0.091(4) 0.600(4) 0.006(2)
H9 H 0.0840 0.6071 0.0259
S1 S 0.2276(7) 0.3556(9) 0.9209(5)
S2 S 0.3261(8) 0.4789(9) 0.9359(5)
S3 S 0.3232(9) 0.3484(8) 0.9880(4)
In1 In 0.2814(2) 0.4045(2) 0.95408(13)
N1 N 0.225(2) 0.434(3) 0.9840(13)
C2 C 0.202(3) 0.479(3) 0.9858(15)
C3 C 0.199(3) 0.530(3) 0.9706(14)
H2 H 0.2218 0.5361 0.9554
C4 C 0.163(3) 0.569(3) 0.9789(17)
C8 C 0.170(4) 0.621(3) 0.9645(19)
H4 H 0.2065 0.6294 0.9628
H5 H 0.1523 0.6484 0.9753
H6 H 0.1539 0.6194 0.9460
H7 H 0.0579 0.5947 0.9966
H8 H 0.1086 0.6306 0.9982
In17 In 0.2958(2) 0.3159(2) 0.89255(11)
In18 In 0.3927(2) 0.4352(2) 0.90925(11)
In19 In 0.3904(2) 0.3082(2) 0.95947(11)
S16 S 0.0666(9) 0.9740(8) 0.1600(4)
N3 N 0.183(2) 0.907(3) 0.2391(11)
N4 N 0.172(3) 0.967(3) 0.2053(13)
C10 C 0.159(3) 0.945(3) 0.2249(18)
H10 H 0.1264 0.9559 0.2321
C11 C 0.221(3) 0.909(3) 0.2235(17)
C12 C 0.265(3) 0.873(3) 0.2254(17)
H11 H 0.2679 0.8480 0.2399
C13 C 0.312(3) 0.877(3) 0.2011(18)
C14 C 0.322(6) 0.932(5) 0.187(3)
C15 C 0.261(5) 0.957(4) 0.184(2)
H12 H 0.2548 0.9793 0.1685
C16 C 0.218(4) 0.946(3) 0.2027(18)
C17 C 0.365(4) 0.843(4) 0.200(2)
H13 H 0.3945 0.8666 0.1963
H14 H 0.3626 0.8176 0.1850
H15 H 0.3703 0.8255 0.2176
C18 C 0.365(4) 0.924(4) 0.172(2)
H16 H 0.3785 0.9574 0.1650
H17 H 0.3563 0.9019 0.1557
H18 H 0.3917 0.9065 0.1828
In20 In 0.1488(2) 0.8562(2) 0.26914(12)
Cd1 Cd 0.91493(19) 0.2825(2) 0.10626(11)
Cd2 Cd 0.9181(3) 0.1578(3) 0.15548(16)
S4 S 0.7520(7) 0.2341(8) 0.1435(4)
S5 S 0.8497(7) 0.1153(7) 0.1285(4)
S6 S 0.8463(7) 0.2446(7) 0.0771(3)
S8 S 0.9448(7) 0.1203(7) 0.0604(3)
S9 S 0.9402(7) 0.2507(8) 0.0118(3)
S10 S 0.7748(8) 0.3226(8) 0.2074(4)
S11 S 0.8742(7) 0.2058(8) 0.1923(4)
S12 S 0.8725(6) 0.3354(6) 0.1418(3)
S13 S 0.9710(6) 0.0886(7) 0.1775(3)
S14 S 0.9708(6) 0.2151(6) 0.1265(3)
S15 S 0.9666(6) 0.3438(7) 0.0773(3)
S20 S 0.9055(8) 0.2949(9) 0.2578(4)
S21 S 0.9000(8) 0.4236(8) 0.2067(4)
S23 S 0.9999(6) 0.3073(7) 0.1921(4)
S24 S 0.9972(7) 0.4308(8) 0.1437(4)
In2 In 0.7958(2) 0.1841(2) 0.10745(11)
In3 In 0.8927(2) 0.0648(2) 0.09075(11)
In4 In 0.8904(2) 0.1918(2) 0.04053(11)
In5 In 0.8201(2) 0.2732(2) 0.17117(11)
In8 In 0.8512(2) 0.3562(2) 0.23086(12)
In9 In 0.9448(2) 0.2479(2) 0.22006(10)
In10 In 0.94251(19) 0.3740(2) 0.17059(10)
S32 S 0.7276(7) 0.1444(9) 0.0791(5)
S33 S 0.8261(8) 0.0211(9) 0.0641(5)
S34 S 0.8232(9) 0.1516(8) 0.0120(4)
N5 N 0.817(2) 0.407(3) 0.2609(11)
S7 S 0.5530(8) 0.0028(7) 0.6122(4)
S16_2 S 0.4334(9) 0.0260(8) 0.6600(4)
N3_2 N 0.317(2) 0.093(3) 0.7391(11)
N4_2 N 0.328(3) 0.033(3) 0.7053(13)
C10_2 C 0.341(3) 0.055(3) 0.7249(18)
H10_2 H 0.3736 0.0441 0.7321
C11_2 C 0.279(3) 0.091(3) 0.7235(17)
C12_2 C 0.235(3) 0.127(3) 0.7254(17)
H11_2 H 0.2321 0.1520 0.7399
C13_2 C 0.188(3) 0.123(3) 0.7011(18)
C14_2 C 0.178(6) 0.068(5) 0.687(3)
C15_2 C 0.239(5) 0.043(4) 0.684(2)
H12_2 H 0.2452 0.0207 0.6685
C16_2 C 0.282(4) 0.054(3) 0.7027(18)
C17_2 C 0.135(4) 0.157(4) 0.700(2)
H13_2 H 0.1055 0.1334 0.6963
H14_2 H 0.1374 0.1824 0.6850
H15_2 H 0.1297 0.1745 0.7176
C18_2 C 0.135(4) 0.076(4) 0.672(2)
H16_2 H 0.1215 0.0426 0.6650
H17_2 H 0.1437 0.0981 0.6557
H18_2 H 0.1083 0.0935 0.6828
In20_2 In 0.3512(2) 0.1438(2) 0.76914(12)
Cd1_2 Cd 0.58507(19) 0.7175(2) 0.60626(11)
Cd2_2 Cd 0.5819(3) 0.8422(3) 0.65548(16)
Cd3_2 Cd 0.46125(19) 0.7437(2) 0.65429(10)
Cd4_2 Cd 0.4897(2) 0.8360(2) 0.58883(13)
S1_2 S 0.2724(7) 0.6444(9) 0.4209(5)
S2_2 S 0.1739(8) 0.5211(9) 0.4359(5)
S3_2 S 0.1768(9) 0.6516(8) 0.4880(4)
S4_2 S 0.7480(7) 0.7659(8) 0.6435(4)
S5_2 S 0.6503(7) 0.8847(7) 0.6285(4)
S6_2 S 0.6537(7) 0.7554(7) 0.5771(3)
S8_2 S 0.5552(7) 0.8797(7) 0.5604(3)
S9_2 S 0.5598(7) 0.7493(8) 0.5118(3)
S10_2 S 0.7252(8) 0.6774(8) 0.7074(4)
S11_2 S 0.6258(7) 0.7942(8) 0.6923(4)
S12_2 S 0.6275(6) 0.6646(6) 0.6418(3)
S13_2 S 0.5290(6) 0.9114(7) 0.6775(3)
S14_2 S 0.5292(6) 0.7849(6) 0.6265(3)
S15_2 S 0.5334(6) 0.6562(7) 0.5773(3)
S17_2 S 0.4324(7) 0.9025(7) 0.6084(3)
S18_2 S 0.4360(6) 0.7805(7) 0.5581(3)
S19_2 S 0.4449(8) 0.6504(8) 0.5112(4)
S20_2 S 0.5945(8) 0.7051(9) 0.7578(4)
S21_2 S 0.6000(8) 0.5764(8) 0.7067(4)
S22_2 S 0.4980(8) 0.8154(8) 0.7411(4)
S23_2 S 0.5001(6) 0.6927(7) 0.6921(4)
S24_2 S 0.5028(7) 0.5692(8) 0.6437(4)
S25_2 S 0.4005(8) 0.9313(9) 0.7248(4)
S26_2 S 0.4031(6) 0.8089(7) 0.6756(3)
S27_2 S 0.4052(6) 0.6878(7) 0.6256(3)
S28_2 S 0.4104(7) 0.5610(8) 0.5797(4)
S29_2 S 0.3066(7) 0.9281(8) 0.6550(4)
S30_2 S 0.3117(7) 0.8045(8) 0.6077(4)
S31_2 S 0.3178(8) 0.6836(8) 0.5573(4)
In1_2 In 0.2186(2) 0.5955(2) 0.45408(13)
In2_2 In 0.7042(2) 0.8159(2) 0.60745(11)
In3_2 In 0.6073(2) 0.9352(2) 0.59075(11)
In4_2 In 0.6096(2) 0.8082(2) 0.54053(11)
In5_2 In 0.6799(2) 0.7268(2) 0.67117(11)
In6_2 In 0.4878(2) 0.9584(2) 0.63899(11)
In7_2 In 0.49380(19) 0.7109(2) 0.53969(10)
In8_2 In 0.6488(2) 0.6438(2) 0.73086(12)
In9_2 In 0.5552(2) 0.7521(2) 0.72006(10)
In10_2 In 0.55749(19) 0.6260(2) 0.67059(10)
In11_2 In 0.45958(19) 0.8660(2) 0.70409(10)
In12_2 In 0.46386(18) 0.6182(2) 0.60688(10)
In13_2 In 0.3692(2) 0.9726(2) 0.68340(12)
In14_2 In 0.36495(19) 0.8604(2) 0.63592(11)
In15_2 In 0.36947(19) 0.7399(2) 0.58680(10)
In16_2 In 0.3813(2) 0.6193(2) 0.54422(11)
N1_2 N 0.275(2) 0.566(3) 0.4840(13)
N2_2 N 0.328(2) 0.570(3) 0.5157(11)
C1_2 C 0.293(3) 0.592(3) 0.5037(17)
H1_2 H 0.2814 0.6257 0.5086
C2_2 C 0.298(3) 0.521(3) 0.4858(15)
C3_2 C 0.301(3) 0.470(3) 0.4706(14)
H2_2 H 0.2782 0.4639 0.4554
C4_2 C 0.337(3) 0.431(3) 0.4789(17)
C5_2 C 0.373(5) 0.451(5) 0.503(3)
C6_2 C 0.376(4) 0.492(4) 0.513(2)
H3_2 H 0.4028 0.4999 0.5253
C7_2 C 0.344(4) 0.523(4) 0.505(2)
C8_2 C 0.330(4) 0.379(3) 0.4645(19)
H4_2 H 0.2935 0.3706 0.4628
H5_2 H 0.3477 0.3516 0.4753
H6_2 H 0.3461 0.3806 0.4460
C9_2 C 0.409(4) 0.400(4) 0.506(2)
H7_2 H 0.4421 0.4053 0.4966
H8_2 H 0.3914 0.3694 0.4982
H9_2 H 0.4160 0.3929 0.5259
S32_2 S 0.7724(7) 0.8556(9) 0.5791(5)
S33_2 S 0.6739(8) 0.9789(9) 0.5641(5)
S34_2 S 0.6768(9) 0.8484(8) 0.5120(4)
In17_2 In 0.2042(2) 0.6841(2) 0.39255(11)
In18_2 In 0.1073(2) 0.5648(2) 0.40925(11)
In19_2 In 0.1096(2) 0.6918(2) 0.45947(11)
N5_2 N 0.683(2) 0.593(3) 0.7609(11)
In1_3 In 0.7814(2) 0.0955(2) 0.04592(13)
N1_3 N 0.725(2) 0.066(3) 0.0160(13)
C2_3 C 0.702(3) 0.021(3) 0.0142(15)
Cd1_3 Cd 0.41493(19) 0.2175(2) 0.89374(11)
Cd2_3 Cd 0.4181(3) 0.3422(3) 0.84452(16)
Cd3_3 Cd 0.53875(19) 0.2437(2) 0.84571(10)
Cd4_3 Cd 0.5103(2) 0.3360(2) 0.91117(13)
S4_3 S 0.2520(7) 0.2659(8) 0.8565(4)
S5_3 S 0.3497(7) 0.3847(7) 0.8715(4)
S6_3 S 0.3463(7) 0.2554(7) 0.9229(3)
S7_2 S 0.4470(8) 0.5028(7) 0.8878(4)
S8_3 S 0.4448(7) 0.3797(7) 0.9396(3)
S9_3 S 0.4402(7) 0.2493(8) 0.9882(3)
S10_3 S 0.2748(8) 0.1774(8) 0.7926(4)
S11_3 S 0.3742(7) 0.2942(8) 0.8077(4)
S12_3 S 0.3725(6) 0.1646(6) 0.8582(3)
S13_3 S 0.4710(6) 0.4114(7) 0.8225(3)
S14_3 S 0.4708(6) 0.2849(6) 0.8735(3)
S15_3 S 0.4666(6) 0.1562(7) 0.9227(3)
S16_3 S 0.5666(9) 0.5260(8) 0.8400(4)
S17_3 S 0.5676(7) 0.4025(7) 0.8916(3)
S18_3 S 0.5640(6) 0.2805(7) 0.9419(3)
S19_3 S 0.5551(8) 0.1504(8) 0.9888(4)
S20_3 S 0.4055(8) 0.2051(9) 0.7422(4)
S21_3 S 0.4000(8) 0.0764(8) 0.7933(4)
S22_3 S 0.5020(8) 0.3154(8) 0.7589(4)
S23_3 S 0.4999(6) 0.1927(7) 0.8079(4)
S24_3 S 0.4972(7) 0.0692(8) 0.8563(4)
S25_3 S 0.5995(8) 0.4313(9) 0.7752(4)
S26_3 S 0.5969(6) 0.3089(7) 0.8244(3)
S27_3 S 0.5948(6) 0.1878(7) 0.8744(3)
S28_3 S 0.5896(7) 0.0610(8) 0.9203(4)
S29_3 S 0.6934(7) 0.4281(8) 0.8450(4)
S30_3 S 0.6883(7) 0.3045(8) 0.8923(4)
S31_3 S 0.6822(8) 0.1836(8) 0.9427(4)
In5_3 In 0.3201(2) 0.2268(2) 0.82883(11)
In6_3 In 0.5122(2) 0.4584(2) 0.86101(11)
In7_3 In 0.50620(19) 0.2109(2) 0.96031(10)
In9_3 In 0.4448(2) 0.2521(2) 0.77994(10)
In10_3 In 0.44251(19) 0.1260(2) 0.82941(10)
In11_3 In 0.54042(19) 0.3660(2) 0.79591(10)
In12_3 In 0.53614(18) 0.1182(2) 0.89312(10)
In13_3 In 0.6308(2) 0.4726(2) 0.81660(12)
In14_3 In 0.63505(19) 0.3604(2) 0.86408(11)
In15_3 In 0.63053(19) 0.2399(2) 0.91320(10)
In16_3 In 0.6187(2) 0.1193(2) 0.95578(11)
N2_3 N 0.672(2) 0.070(3) 0.9843(11)
N4_3 N 0.672(3) 0.533(3) 0.7947(13)
C1_3 C 0.707(3) 0.092(3) 0.9963(17)
H1_3 H 0.7186 0.1257 0.9914
C7_3 C 0.656(4) 0.023(4) 0.995(2)
C10_3 C 0.659(3) 0.555(3) 0.7751(18)
H10_3 H 0.6264 0.5441 0.7679
C11_3 C 0.721(3) 0.591(3) 0.7765(17)
C12_3 C 0.765(3) 0.627(3) 0.7746(17)
H11_3 H 0.7679 0.6520 0.7601
C13_3 C 0.812(3) 0.623(3) 0.7989(18)
C14_3 C 0.822(6) 0.568(5) 0.813(3)
C15_3 C 0.761(5) 0.543(4) 0.816(2)
H12_3 H 0.7548 0.5207 0.8315
C16_3 C 0.718(4) 0.554(3) 0.7973(18)
C17_3 C 0.865(4) 0.657(4) 0.800(2)
H13_3 H 0.8945 0.6334 0.8037
H14_3 H 0.8626 0.6824 0.8150
H15_3 H 0.8703 0.6745 0.7824
C18_3 C 0.865(4) 0.576(4) 0.828(2)
H16_3 H 0.8785 0.5426 0.8350
H17_3 H 0.8563 0.5981 0.8443
H18_3 H 0.8917 0.5935 0.8172
Cd1_4 Cd 0.08507(19) 0.7825(2) 0.39374(11)
Cd2_4 Cd 0.0819(3) 0.6578(3) 0.34452(16)
S4_4 S 0.2480(7) 0.7341(8) 0.3565(4)
S5_4 S 0.1503(7) 0.6153(7) 0.3715(4)
S6_4 S 0.1537(7) 0.7446(7) 0.4229(3)
S7_3 S 0.0530(8) 0.4972(7) 0.3878(4)
S8_4 S 0.0552(7) 0.6203(7) 0.4396(3)
S9_4 S 0.0598(7) 0.7507(8) 0.4882(3)
S10_4 S 0.2252(8) 0.8226(8) 0.2926(4)
S11_4 S 0.1258(7) 0.7058(8) 0.3077(4)
S12_4 S 0.1275(6) 0.8354(6) 0.3582(3)
S13_4 S 0.0290(6) 0.5886(7) 0.3225(3)
S14_4 S 0.0292(6) 0.7151(6) 0.3735(3)
S15_4 S 0.0334(6) 0.8438(7) 0.4227(3)
S20_4 S 0.0945(8) 0.7949(9) 0.2422(4)
S21_4 S 0.1000(8) 0.9236(8) 0.2933(4)
S23_4 S 0.0001(6) 0.8073(7) 0.3079(4)
S24_4 S 0.0028(7) 0.9308(8) 0.3563(4)
In5_4 In 0.1799(2) 0.7732(2) 0.32883(11)
In9_4 In 0.0552(2) 0.7479(2) 0.27994(10)
In10_4 In 0.05749(19) 0.8740(2) 0.32941(10)
Cd3_4 Cd 0.96125(19) 0.7563(2) 0.34571(10)
Cd4_4 Cd 0.9897(2) 0.6640(2) 0.41117(13)
S16_4 S 0.9334(9) 0.4740(8) 0.3400(4)
S17_4 S 0.9324(7) 0.5975(7) 0.3916(3)
S18_4 S 0.9360(6) 0.7195(7) 0.4419(3)
S19_4 S 0.9449(8) 0.8496(8) 0.4888(4)
S22_4 S 0.9980(8) 0.6846(8) 0.2589(4)
S25_4 S 0.9005(8) 0.5687(9) 0.2752(4)
S26_4 S 0.9031(6) 0.6911(7) 0.3244(3)
S27_4 S 0.9052(6) 0.8122(7) 0.3744(3)
S28_4 S 0.9104(7) 0.9390(8) 0.4203(4)
S29_4 S 0.8066(7) 0.5719(8) 0.3450(4)
S30_4 S 0.8117(7) 0.6955(8) 0.3923(4)
S31_4 S 0.8178(8) 0.8164(8) 0.4427(4)
In1_4 In 0.7186(2) 0.9045(2) 0.54592(13)
In6_4 In 0.9878(2) 0.5416(2) 0.36101(11)
In7_4 In 0.99380(19) 0.7891(2) 0.46031(10)
In11_4 In 0.95958(19) 0.6340(2) 0.29591(10)
In12_4 In 0.96386(18) 0.8818(2) 0.39312(10)
In13_4 In 0.8692(2) 0.5274(2) 0.31660(12)
In14_4 In 0.86495(19) 0.6396(2) 0.36408(11)
In15_4 In 0.86947(19) 0.7601(2) 0.41320(10)
In16_4 In 0.8813(2) 0.8807(2) 0.45578(11)
N1_4 N 0.775(2) 0.934(3) 0.5160(13)
N2_4 N 0.828(2) 0.930(3) 0.4843(11)
N4_4 N 0.828(3) 0.467(3) 0.2947(13)
C1_4 C 0.793(3) 0.908(3) 0.4963(17)
H1_4 H 0.7814 0.8743 0.4914
C2_4 C 0.798(3) 0.979(3) 0.5142(15)
C7_4 C 0.844(4) 0.977(4) 0.495(2)
C10_4 C 0.841(3) 0.445(3) 0.2751(18)
H10_4 H 0.8736 0.4559 0.2679
C11_4 C 0.779(3) 0.409(3) 0.2765(17)
C12_4 C 0.735(3) 0.373(3) 0.2746(17)
H11_4 H 0.7321 0.3480 0.2601
C13_4 C 0.688(3) 0.377(3) 0.2989(18)
C14_4 C 0.678(6) 0.432(5) 0.313(3)
C15_4 C 0.739(5) 0.457(4) 0.316(2)
H12_4 H 0.7452 0.4793 0.3315
C16_4 C 0.782(4) 0.446(3) 0.2973(18)
C17_4 C 0.635(4) 0.343(4) 0.300(2)
H13_4 H 0.6055 0.3666 0.3037
H14_4 H 0.6374 0.3176 0.3150
H15_4 H 0.6297 0.3255 0.2824
C18_4 C 0.635(4) 0.424(4) 0.328(2)
H16_4 H 0.6215 0.4574 0.3350
H17_4 H 0.6437 0.4019 0.3443
H18_4 H 0.6083 0.4065 0.3172
S7_4 S 0.9470(8) 0.9972(7) 0.1122(4)
C3_3 C 0.699(3) 0.970(3) 0.0294(14)
H2_3 H 0.7218 0.9639 0.0446
C4_3 C 0.663(3) 0.931(3) 0.0211(17)
C8_3 C 0.670(4) 0.879(3) 0.0355(19)
H4_3 H 0.7065 0.8706 0.0372
H5_3 H 0.6523 0.8516 0.0247
H6_3 H 0.6539 0.8806 0.0540
H7_3 H 0.5579 0.9053 0.0034
H8_3 H 0.6086 0.8694 0.0018
C5_3 C 0.627(5) 0.951(5) 0.997(3)
C6_3 C 0.624(4) 0.992(4) 0.987(2)
H3_3 H 0.5972 0.9999 0.9747
C9_3 C 0.591(4) 0.900(4) 0.994(2)
H9_3 H 0.5840 0.8929 0.9741
C3_4 C 0.801(3) 0.030(3) 0.5294(14)
H2_4 H 0.7782 0.0361 0.5446
C4_4 C 0.837(3) 0.069(3) 0.5211(17)
C5_4 C 0.873(5) 0.049(5) 0.497(3)
C6_4 C 0.876(4) 0.008(4) 0.487(2)
H3_4 H 0.9028 0.0001 0.4747
C8_4 C 0.830(4) 0.121(3) 0.5355(19)
H4_4 H 0.7935 0.1294 0.5372
H5_4 H 0.8477 0.1484 0.5247
H6_4 H 0.8461 0.1194 0.5540
C9_4 C 0.909(4) 0.100(4) 0.494(2)
H7_4 H 0.9421 0.0947 0.5034
H8_4 H 0.8914 0.1306 0.5018
H9_4 H 0.9160 0.1071 0.4741
S7_5 S 0.0530(8) 0.0028(7) 0.8878(4)
Cd1_5 Cd 0.08507(19) 0.7175(2) 0.89374(11)
Cd2_5 Cd 0.0819(3) 0.8422(3) 0.84452(16)
S4_5 S 0.2480(7) 0.7659(8) 0.8565(4)
S5_5 S 0.1503(7) 0.8847(7) 0.8715(4)
S6_5 S 0.1537(7) 0.7554(7) 0.9229(3)
S8_5 S 0.0552(7) 0.8797(7) 0.9396(3)
S9_5 S 0.0598(7) 0.7493(8) 0.9882(3)
S10_5 S 0.2252(8) 0.6774(8) 0.7926(4)
S11_5 S 0.1258(7) 0.7942(8) 0.8077(4)
S12_5 S 0.1275(6) 0.6646(6) 0.8582(3)
S13_5 S 0.0290(6) 0.9114(7) 0.8225(3)
S14_5 S 0.0292(6) 0.7849(6) 0.8735(3)
S15_5 S 0.0334(6) 0.6562(7) 0.9227(3)
S20_5 S 0.0945(8) 0.7051(9) 0.7422(4)
S21_5 S 0.1000(8) 0.5764(8) 0.7933(4)
S23_5 S 0.0001(6) 0.6927(7) 0.8079(4)
S24_5 S 0.0028(7) 0.5692(8) 0.8563(4)
In2_3 In 0.2042(2) 0.8159(2) 0.89255(11)
In3_3 In 0.1073(2) 0.9352(2) 0.90925(11)
In4_3 In 0.1096(2) 0.8082(2) 0.95947(11)
In5_5 In 0.1799(2) 0.7268(2) 0.82883(11)
In8_3 In 0.1488(2) 0.6438(2) 0.76914(12)
In9_5 In 0.0552(2) 0.7521(2) 0.77994(10)
In10_5 In 0.05749(19) 0.6260(2) 0.82941(10)
S32_3 S 0.2724(7) 0.8556(9) 0.9209(5)
S33_3 S 0.1739(8) 0.9789(9) 0.9359(5)
S34_3 S 0.1768(9) 0.8484(8) 0.9880(4)
N5_3 N 0.183(2) 0.593(3) 0.7391(11)
S16_5 S 0.9334(9) 0.0260(8) 0.8400(4)
N3_3 N 0.817(2) 0.093(3) 0.7609(11)
N4_5 N 0.828(3) 0.033(3) 0.7947(13)
C10_5 C 0.841(3) 0.055(3) 0.7751(18)
H10_5 H 0.8736 0.0441 0.7679
C11_5 C 0.779(3) 0.091(3) 0.7765(17)
C12_5 C 0.735(3) 0.127(3) 0.7746(17)
H11_5 H 0.7321 0.1520 0.7601
C13_5 C 0.688(3) 0.123(3) 0.7989(18)
C14_5 C 0.678(6) 0.068(5) 0.813(3)
C15_5 C 0.739(5) 0.043(4) 0.816(2)
H12_5 H 0.7452 0.0207 0.8315
C16_5 C 0.782(4) 0.054(3) 0.7973(18)
C17_5 C 0.635(4) 0.157(4) 0.800(2)
H13_5 H 0.6055 0.1334 0.8037
H14_5 H 0.6374 0.1824 0.8150
H15_5 H 0.6297 0.1745 0.7824
C18_5 C 0.635(4) 0.076(4) 0.828(2)
H16_5 H 0.6215 0.0426 0.8350
H17_5 H 0.6437 0.0981 0.8443
H18_5 H 0.6083 0.0935 0.8172
In20_3 In 0.8512(2) 0.1438(2) 0.73086(12)
S1_3 S 0.7724(7) 0.6444(9) 0.0791(5)
S2_3 S 0.6739(8) 0.5211(9) 0.0641(5)
S3_3 S 0.6768(9) 0.6516(8) 0.0120(4)
In1_5 In 0.7186(2) 0.5955(2) 0.04592(13)
N1_5 N 0.775(2) 0.566(3) 0.0160(13)
C2_5 C 0.798(3) 0.521(3) 0.0142(15)
C3_5 C 0.801(3) 0.470(3) 0.0294(14)
H2_5 H 0.7782 0.4639 0.0446
C4_5 C 0.837(3) 0.431(3) 0.0211(17)
C8_5 C 0.830(4) 0.379(3) 0.0355(19)
H4_5 H 0.7935 0.3706 0.0372
H5_5 H 0.8477 0.3516 0.0247
H6_5 H 0.8461 0.3806 0.0540
H7_5 H 0.9421 0.4053 0.0034
H8_5 H 0.8914 0.3694 0.0018
In17_3 In 0.7042(2) 0.6841(2) 0.10745(11)
In18_3 In 0.6073(2) 0.5648(2) 0.09075(11)
In19_3 In 0.6096(2) 0.6918(2) 0.04053(11)
Cd1_6 Cd 0.41493(19) 0.2825(2) 0.39374(11)
Cd2_6 Cd 0.4181(3) 0.1578(3) 0.34452(16)
Cd3_5 Cd 0.53875(19) 0.2563(2) 0.34571(10)
Cd4_5 Cd 0.5103(2) 0.1640(2) 0.41117(13)
S1_4 S 0.7276(7) 0.3556(9) 0.5791(5)
S2_4 S 0.8261(8) 0.4789(9) 0.5641(5)
S3_4 S 0.8232(9) 0.3484(8) 0.5120(4)
S4_6 S 0.2520(7) 0.2341(8) 0.3565(4)
S5_6 S 0.3497(7) 0.1153(7) 0.3715(4)
S6_6 S 0.3463(7) 0.2446(7) 0.4229(3)
S8_6 S 0.4448(7) 0.1203(7) 0.4396(3)
S9_6 S 0.4402(7) 0.2507(8) 0.4882(3)
S10_6 S 0.2748(8) 0.3226(8) 0.2926(4)
S11_6 S 0.3742(7) 0.2058(8) 0.3077(4)
S12_6 S 0.3725(6) 0.3354(6) 0.3582(3)
S13_6 S 0.4710(6) 0.0886(7) 0.3225(3)
S14_6 S 0.4708(6) 0.2151(6) 0.3735(3)
S15_6 S 0.4666(6) 0.3438(7) 0.4227(3)
S17_5 S 0.5676(7) 0.0975(7) 0.3916(3)
S18_5 S 0.5640(6) 0.2195(7) 0.4419(3)
S19_5 S 0.5551(8) 0.3496(8) 0.4888(4)
S20_6 S 0.4055(8) 0.2949(9) 0.2422(4)
S21_6 S 0.4000(8) 0.4236(8) 0.2933(4)
S22_5 S 0.5020(8) 0.1846(8) 0.2589(4)
S23_6 S 0.4999(6) 0.3073(7) 0.3079(4)
S24_6 S 0.4972(7) 0.4308(8) 0.3563(4)
S25_5 S 0.5995(8) 0.0687(9) 0.2752(4)
S26_5 S 0.5969(6) 0.1911(7) 0.3244(3)
S27_5 S 0.5948(6) 0.3122(7) 0.3744(3)
S28_5 S 0.5896(7) 0.4390(8) 0.4203(4)
S29_5 S 0.6934(7) 0.0719(8) 0.3450(4)
S30_5 S 0.6883(7) 0.1955(8) 0.3923(4)
S31_5 S 0.6822(8) 0.3164(8) 0.4427(4)
In1_6 In 0.7814(2) 0.4045(2) 0.54592(13)
In2_4 In 0.2958(2) 0.1841(2) 0.39255(11)
In3_4 In 0.3927(2) 0.0648(2) 0.40925(11)
In4_4 In 0.3904(2) 0.1918(2) 0.45947(11)
In5_6 In 0.3201(2) 0.2732(2) 0.32883(11)
In6_5 In 0.5122(2) 0.0416(2) 0.36101(11)
In7_5 In 0.50620(19) 0.2891(2) 0.46031(10)
In8_4 In 0.3512(2) 0.3562(2) 0.26914(12)
In9_6 In 0.4448(2) 0.2479(2) 0.27994(10)
In10_6 In 0.44251(19) 0.3740(2) 0.32941(10)
In11_5 In 0.54042(19) 0.1340(2) 0.29591(10)
In12_5 In 0.53614(18) 0.3818(2) 0.39312(10)
In13_5 In 0.6308(2) 0.0274(2) 0.31660(12)
In14_5 In 0.63505(19) 0.1396(2) 0.36408(11)
In15_5 In 0.63053(19) 0.2601(2) 0.41320(10)
In16_5 In 0.6187(2) 0.3807(2) 0.45578(11)
N1_6 N 0.725(2) 0.434(3) 0.5160(13)
N2_5 N 0.672(2) 0.430(3) 0.4843(11)
C1_5 C 0.707(3) 0.408(3) 0.4963(17)
H1_5 H 0.7186 0.3743 0.4914
C2_6 C 0.702(3) 0.479(3) 0.5142(15)
C3_6 C 0.699(3) 0.530(3) 0.5294(14)
H2_6 H 0.7218 0.5361 0.5446
C4_6 C 0.663(3) 0.569(3) 0.5211(17)
C5_5 C 0.627(5) 0.549(5) 0.497(3)
C6_5 C 0.624(4) 0.508(4) 0.487(2)
H3_5 H 0.5972 0.5001 0.4747
C7_5 C 0.656(4) 0.477(4) 0.495(2)
C8_6 C 0.670(4) 0.621(3) 0.5355(19)
H4_6 H 0.7065 0.6294 0.5372
H5_6 H 0.6523 0.6484 0.5247
H6_6 H 0.6539 0.6194 0.5540
C9_5 C 0.591(4) 0.600(4) 0.494(2)
H7_6 H 0.5579 0.5947 0.5034
H8_6 H 0.6086 0.6306 0.5018
H9_5 H 0.5840 0.6071 0.4741
S32_4 S 0.2276(7) 0.1444(9) 0.4209(5)
S33_4 S 0.3261(8) 0.0211(9) 0.4359(5)
S34_4 S 0.3232(9) 0.1516(8) 0.4880(4)
In17_4 In 0.7958(2) 0.3159(2) 0.60745(11)
In18_4 In 0.8927(2) 0.4352(2) 0.59075(11)
In19_4 In 0.8904(2) 0.3082(2) 0.54053(11)
N5_4 N 0.317(2) 0.407(3) 0.2391(11)
S7_6 S 0.4470(8) 0.9972(7) 0.3878(4)
S16_6 S 0.5666(9) 0.9740(8) 0.3400(4)
N3_4 N 0.683(2) 0.907(3) 0.2609(11)
N4_6 N 0.672(3) 0.967(3) 0.2947(13)
C10_6 C 0.659(3) 0.945(3) 0.2751(18)
H10_6 H 0.6264 0.9559 0.2679
C11_6 C 0.721(3) 0.909(3) 0.2765(17)
C12_6 C 0.765(3) 0.873(3) 0.2746(17)
H11_6 H 0.7679 0.8480 0.2601
C13_6 C 0.812(3) 0.877(3) 0.2989(18)
C14_6 C 0.822(6) 0.932(5) 0.313(3)
C15_6 C 0.761(5) 0.957(4) 0.316(2)
H12_6 H 0.7548 0.9793 0.3315
C16_6 C 0.718(4) 0.946(3) 0.2973(18)
C17_6 C 0.865(4) 0.843(4) 0.300(2)
H13_6 H 0.8945 0.8666 0.3037
H14_6 H 0.8626 0.8176 0.3150
H15_6 H 0.8703 0.8255 0.2824
C18_6 C 0.865(4) 0.924(4) 0.328(2)
H16_6 H 0.8785 0.9574 0.3350
H17_6 H 0.8563 0.9019 0.3443
H18_6 H 0.8917 0.9065 0.3172
In20_4 In 0.6488(2) 0.8562(2) 0.23086(12)
Cd1_7 Cd 0.58507(19) 0.7825(2) 0.10626(11)
Cd2_7 Cd 0.5819(3) 0.6578(3) 0.15548(16)
Cd3_6 Cd 0.46125(19) 0.7563(2) 0.15429(10)
Cd4_6 Cd 0.4897(2) 0.6640(2) 0.08883(13)
S4_7 S 0.7480(7) 0.7341(8) 0.1435(4)
S5_7 S 0.6503(7) 0.6153(7) 0.1285(4)
S6_7 S 0.6537(7) 0.7446(7) 0.0771(3)
S7_7 S 0.5530(8) 0.4972(7) 0.1122(4)
S8_7 S 0.5552(7) 0.6203(7) 0.0604(3)
S9_7 S 0.5598(7) 0.7507(8) 0.0118(3)
S10_7 S 0.7252(8) 0.8226(8) 0.2074(4)
S11_7 S 0.6258(7) 0.7058(8) 0.1923(4)
S12_7 S 0.6275(6) 0.8354(6) 0.1418(3)
S13_7 S 0.5290(6) 0.5886(7) 0.1775(3)
S14_7 S 0.5292(6) 0.7151(6) 0.1265(3)
S15_7 S 0.5334(6) 0.8438(7) 0.0773(3)
S16_7 S 0.4334(9) 0.4740(8) 0.1600(4)
S17_6 S 0.4324(7) 0.5975(7) 0.1084(3)
S18_6 S 0.4360(6) 0.7195(7) 0.0581(3)
S19_6 S 0.4449(8) 0.8496(8) 0.0112(4)
S20_7 S 0.5945(8) 0.7949(9) 0.2578(4)
S21_7 S 0.6000(8) 0.9236(8) 0.2067(4)
S22_6 S 0.4980(8) 0.6846(8) 0.2411(4)
S23_7 S 0.5001(6) 0.8073(7) 0.1921(4)
S24_7 S 0.5028(7) 0.9308(8) 0.1437(4)
S25_6 S 0.4005(8) 0.5687(9) 0.2248(4)
S26_6 S 0.4031(6) 0.6911(7) 0.1756(3)
S27_6 S 0.4052(6) 0.8122(7) 0.1256(3)
S28_6 S 0.4104(7) 0.9390(8) 0.0797(4)
S29_6 S 0.3066(7) 0.5719(8) 0.1550(4)
S30_6 S 0.3117(7) 0.6955(8) 0.1077(4)
S31_6 S 0.3178(8) 0.8164(8) 0.0573(4)
In5_7 In 0.6799(2) 0.7732(2) 0.17117(11)
In6_6 In 0.4878(2) 0.5416(2) 0.13899(11)
In7_6 In 0.49380(19) 0.7891(2) 0.03969(10)
In9_7 In 0.5552(2) 0.7479(2) 0.22006(10)
In10_7 In 0.55749(19) 0.8740(2) 0.17059(10)
In11_6 In 0.45958(19) 0.6340(2) 0.20409(10)
In12_6 In 0.46386(18) 0.8818(2) 0.10688(10)
In13_6 In 0.3692(2) 0.5274(2) 0.18340(12)
In14_6 In 0.36495(19) 0.6396(2) 0.13592(11)
In15_6 In 0.36947(19) 0.7601(2) 0.08680(10)
In16_6 In 0.3813(2) 0.8807(2) 0.04422(11)
N2_6 N 0.328(2) 0.930(3) 0.0157(11)
N4_7 N 0.328(3) 0.467(3) 0.2053(13)
C1_6 C 0.293(3) 0.908(3) 0.0037(17)
H1_6 H 0.2814 0.8743 0.0086
C7_6 C 0.344(4) 0.977(4) 0.005(2)
C10_7 C 0.341(3) 0.445(3) 0.2249(18)
H10_7 H 0.3736 0.4559 0.2321
C11_7 C 0.279(3) 0.409(3) 0.2235(17)
C12_7 C 0.235(3) 0.373(3) 0.2254(17)
H11_7 H 0.2321 0.3480 0.2399
C13_7 C 0.188(3) 0.377(3) 0.2011(18)
C14_7 C 0.178(6) 0.432(5) 0.187(3)
C15_7 C 0.239(5) 0.457(4) 0.184(2)
H12_7 H 0.2452 0.4793 0.1685
C16_7 C 0.282(4) 0.446(3) 0.2027(18)
C17_7 C 0.135(4) 0.343(4) 0.200(2)
H13_7 H 0.1055 0.3666 0.1963
H14_7 H 0.1374 0.3176 0.1850
H15_7 H 0.1297 0.3255 0.2176
C18_7 C 0.135(4) 0.424(4) 0.172(2)
H16_7 H 0.1215 0.4574 0.1650
H17_7 H 0.1437 0.4019 0.1557
H18_7 H 0.1083 0.4065 0.1828
In1_7 In 0.2186(2) 0.9045(2) 0.95408(13)
N1_7 N 0.275(2) 0.934(3) 0.9840(13)
C2_7 C 0.298(3) 0.979(3) 0.9858(15)
Cd3_7 Cd 0.03875(19) 0.2437(2) 0.65429(10)
Cd4_7 Cd 0.0103(2) 0.3360(2) 0.58883(13)
S16_8 S 0.0666(9) 0.5260(8) 0.6600(4)
S17_7 S 0.0676(7) 0.4025(7) 0.6084(3)
S18_7 S 0.0640(6) 0.2805(7) 0.5581(3)
S19_7 S 0.0551(8) 0.1504(8) 0.5112(4)
S22_7 S 0.0020(8) 0.3154(8) 0.7411(4)
S25_7 S 0.0995(8) 0.4313(9) 0.7248(4)
S26_7 S 0.0969(6) 0.3089(7) 0.6756(3)
S27_7 S 0.0948(6) 0.1878(7) 0.6256(3)
S28_7 S 0.0896(7) 0.0610(8) 0.5797(4)
S29_7 S 0.1934(7) 0.4281(8) 0.6550(4)
S30_7 S 0.1883(7) 0.3045(8) 0.6077(4)
S31_7 S 0.1822(8) 0.1836(8) 0.5573(4)
In1_8 In 0.2814(2) 0.0955(2) 0.45408(13)
In6_7 In 0.0122(2) 0.4584(2) 0.63899(11)
In7_7 In 0.00620(19) 0.2109(2) 0.53969(10)
In11_7 In 0.04042(19) 0.3660(2) 0.70409(10)
In12_7 In 0.03614(18) 0.1182(2) 0.60688(10)
In13_7 In 0.1308(2) 0.4726(2) 0.68340(12)
In14_7 In 0.13505(19) 0.3604(2) 0.63592(11)
In15_7 In 0.13053(19) 0.2399(2) 0.58680(10)
In16_7 In 0.1187(2) 0.1193(2) 0.54422(11)
N1_8 N 0.225(2) 0.066(3) 0.4840(13)
N2_7 N 0.172(2) 0.070(3) 0.5157(11)
N4_8 N 0.172(3) 0.533(3) 0.7053(13)
C1_7 C 0.207(3) 0.092(3) 0.5037(17)
H1_7 H 0.2186 0.1257 0.5086
C2_8 C 0.202(3) 0.021(3) 0.4858(15)
C7_7 C 0.156(4) 0.023(4) 0.505(2)
C10_8 C 0.159(3) 0.555(3) 0.7249(18)
H10_8 H 0.1264 0.5441 0.7321
C11_8 C 0.221(3) 0.591(3) 0.7235(17)
C12_8 C 0.265(3) 0.627(3) 0.7254(17)
H11_8 H 0.2679 0.6520 0.7399
C13_8 C 0.312(3) 0.623(3) 0.7011(18)
C14_8 C 0.322(6) 0.568(5) 0.687(3)
C15_8 C 0.261(5) 0.543(4) 0.684(2)
H12_8 H 0.2548 0.5207 0.6685
C16_8 C 0.218(4) 0.554(3) 0.7027(18)
C17_8 C 0.365(4) 0.657(4) 0.700(2)
H13_8 H 0.3945 0.6334 0.6963
H14_8 H 0.3626 0.6824 0.6850
H15_8 H 0.3703 0.6745 0.7176
C18_8 C 0.365(4) 0.576(4) 0.672(2)
H16_8 H 0.3785 0.5426 0.6650
H17_8 H 0.3563 0.5981 0.6557
H18_8 H 0.3917 0.5935 0.6828
Cd1_8 Cd 0.91493(19) 0.2175(2) 0.60626(11)
Cd2_8 Cd 0.9181(3) 0.3422(3) 0.65548(16)
S4_8 S 0.7520(7) 0.2659(8) 0.6435(4)
S5_8 S 0.8497(7) 0.3847(7) 0.6285(4)
S6_8 S 0.8463(7) 0.2554(7) 0.5771(3)
S7_8 S 0.9470(8) 0.5028(7) 0.6122(4)
S8_8 S 0.9448(7) 0.3797(7) 0.5604(3)
S9_8 S 0.9402(7) 0.2493(8) 0.5118(3)
S10_8 S 0.7748(8) 0.1774(8) 0.7074(4)
S11_8 S 0.8742(7) 0.2942(8) 0.6923(4)
S12_8 S 0.8725(6) 0.1646(6) 0.6418(3)
S13_8 S 0.9710(6) 0.4114(7) 0.6775(3)
S14_8 S 0.9708(6) 0.2849(6) 0.6265(3)
S15_8 S 0.9666(6) 0.1562(7) 0.5773(3)
S20_8 S 0.9055(8) 0.2051(9) 0.7578(4)
S21_8 S 0.9000(8) 0.0764(8) 0.7067(4)
S23_8 S 0.9999(6) 0.1927(7) 0.6921(4)
S24_8 S 0.9972(7) 0.0692(8) 0.6437(4)
In5_8 In 0.8201(2) 0.2268(2) 0.67117(11)
In9_8 In 0.9448(2) 0.2521(2) 0.72006(10)
In10_8 In 0.94251(19) 0.1260(2) 0.67059(10)
Cd3_8 Cd 0.96125(19) 0.7437(2) 0.84571(10)
Cd4_8 Cd 0.9897(2) 0.8360(2) 0.91117(13)
S17_8 S 0.9324(7) 0.9025(7) 0.8916(3)
S18_8 S 0.9360(6) 0.7805(7) 0.9419(3)
S19_8 S 0.9449(8) 0.6504(8) 0.9888(4)
S22_8 S 0.9980(8) 0.8154(8) 0.7589(4)
S25_8 S 0.9005(8) 0.9313(9) 0.7752(4)
S26_8 S 0.9031(6) 0.8089(7) 0.8244(3)
S27_8 S 0.9052(6) 0.6878(7) 0.8744(3)
S28_8 S 0.9104(7) 0.5610(8) 0.9203(4)
S29_8 S 0.8066(7) 0.9281(8) 0.8450(4)
S30_8 S 0.8117(7) 0.8045(8) 0.8923(4)
S31_8 S 0.8178(8) 0.6836(8) 0.9427(4)
In6_8 In 0.9878(2) 0.9584(2) 0.86101(11)
In7_8 In 0.99380(19) 0.7109(2) 0.96031(10)
In11_8 In 0.95958(19) 0.8660(2) 0.79591(10)
In12_8 In 0.96386(18) 0.6182(2) 0.89312(10)
In13_8 In 0.8692(2) 0.9726(2) 0.81660(12)
In14_8 In 0.86495(19) 0.8604(2) 0.86408(11)
In15_8 In 0.86947(19) 0.7399(2) 0.91320(10)
In16_8 In 0.8813(2) 0.6193(2) 0.95578(11)
N2_8 N 0.828(2) 0.570(3) 0.9843(11)
C1_8 C 0.793(3) 0.592(3) 0.9963(17)
H1_8 H 0.7814 0.6257 0.9914
C5_6 C 0.873(5) 0.451(5) 0.997(3)
C6_6 C 0.876(4) 0.492(4) 0.987(2)
H3_6 H 0.9028 0.4999 0.9747
C7_8 C 0.844(4) 0.523(4) 0.995(2)
C9_6 C 0.909(4) 0.400(4) 0.994(2)
H9_6 H 0.9160 0.3929 0.9741
C5_7 C 0.373(5) 0.049(5) 0.003(3)
C6_7 C 0.376(4) 0.008(4) 0.013(2)
H3_7 H 0.4028 0.0001 0.0253
C9_7 C 0.409(4) 0.100(4) 0.006(2)
H9_7 H 0.4160 0.1071 0.0259
C3_7 C 0.301(3) 0.030(3) 0.9706(14)
H2_7 H 0.2782 0.0361 0.9554
C4_7 C 0.337(3) 0.069(3) 0.9789(17)
C8_7 C 0.330(4) 0.121(3) 0.9645(19)
H4_7 H 0.2935 0.1294 0.9628
H5_7 H 0.3477 0.1484 0.9753
H6_7 H 0.3461 0.1194 0.9460
H7_7 H 0.4421 0.0947 0.9966
H8_7 H 0.3914 0.1306 0.9982
C3_8 C 0.199(3) 0.970(3) 0.4706(14)
H2_8 H 0.2218 0.9639 0.4554
C4_8 C 0.163(3) 0.931(3) 0.4789(17)
C5_8 C 0.127(5) 0.951(5) 0.503(3)
C6_8 C 0.124(4) 0.992(4) 0.513(2)
H3_8 H 0.0972 0.9999 0.5253
C8_8 C 0.170(4) 0.879(3) 0.4645(19)
H4_8 H 0.2065 0.8706 0.4628
H5_8 H 0.1523 0.8516 0.4753
H6_8 H 0.1539 0.8806 0.4460
C9_8 C 0.091(4) 0.900(4) 0.506(2)
H7_8 H 0.0579 0.9053 0.4966
H8_8 H 0.1086 0.8694 0.4982
H9_8 H 0.0840 0.8929 0.5259
loop_
_geom_bond_atom_site_label_1
_geom_bond_atom_site_label_2
_geom_bond_site_symmetry_1
_geom_bond_site_symmetry_2
S17 Cd4 1_555 1_555
S18 Cd4 1_555 1_555
S19 In7 1_555 1_555
S25 In11 1_555 1_555
S26 Cd3 1_555 1_555
S27 Cd3 1_555 1_555
S28 In12 1_555 1_555
S29 In13 1_555 1_555
S30 In14 1_555 1_555
S31 In15 1_555 1_555
In14 S17 1_555 1_555
In15 S18 1_555 1_555
In16 S19 1_555 1_555
N2 In16 1_555 1_555
C1 N2 1_555 1_555
H1 C1 1_555 1_555
C6 C5 1_555 1_555
H3 C6 1_555 1_555
C7 N2 1_555 1_555
C9 C5 1_555 1_555
H9 C9 1_555 1_555
S17 In6 1_555 1_555
S18 In7 1_555 1_555
S22 In11 1_555 1_555
S25 In13 1_555 1_555
S26 In11 1_555 1_555
S26 In14 1_555 1_555
S27 In12 1_555 1_555
S27 In15 1_555 1_555
S28 In16 1_555 1_555
S29 In14 1_555 1_555
S30 In15 1_555 1_555
S31 In16 1_555 1_555
C6 C7 1_555 1_555
S1 In1 1_555 1_555
S2 In1 1_555 1_555
S3 In1 1_555 1_555
In1 N1 1_555 1_555
C2 N1 1_555 1_555
C3 C2 1_555 1_555
H2 C3 1_555 1_555
C4 C3 1_555 1_555
C8 C4 1_555 1_555
H4 C8 1_555 1_555
H5 C8 1_555 1_555
H6 C8 1_555 1_555
In17 S1 1_555 1_555
In18 S2 1_555 1_555
In19 S3 1_555 1_555
N3 C10 1_555 1_555
C10 N4 1_555 1_555
H10 C10 1_555 1_555
C11 N3 1_555 1_555
C12 C11 1_555 1_555
H11 C12 1_555 1_555
C13 C12 1_555 1_555
C14 C13 1_555 1_555
C15 C14 1_555 1_555
H12 C15 1_555 1_555
C16 N4 1_555 1_555
C17 C13 1_555 1_555
H13 C17 1_555 1_555
H14 C17 1_555 1_555
H15 C17 1_555 1_555
C18 C14 1_555 1_555
H16 C18 1_555 1_555
H17 C18 1_555 1_555
H18 C18 1_555 1_555
In20 N3 1_555 1_555
C11 C16 1_555 1_555
C15 C16 1_555 1_555
Cd1 S6 1_555 1_555
Cd2 S5 1_555 1_555
S4 In2 1_555 1_555
S5 In2 1_555 1_555
S6 In2 1_555 1_555
S8 In3 1_555 1_555
S9 In4 1_555 1_555
S10 In5 1_555 1_555
S11 Cd2 1_555 1_555
S12 Cd1 1_555 1_555
S13 Cd2 1_555 1_555
S14 Cd1 1_555 1_555
S15 Cd1 1_555 1_555
S20 In8 1_555 1_555
S21 In8 1_555 1_555
S24 In10 1_555 1_555
In2 S32 1_555 1_555
In3 S5 1_555 1_555
In4 S6 1_555 1_555
In5 S4 1_555 1_555
In8 S10 1_555 1_555
In9 S11 1_555 1_555
In10 S12 1_555 1_555
S33 In3 1_555 1_555
S34 In4 1_555 1_555
N5 In8 1_555 1_555
Cd2 S14 1_555 1_555
S8 In4 1_555 1_555
S11 In5 1_555 1_555
S12 In5 1_555 1_555
S20 In9 1_555 1_555
S21 In10 1_555 1_555
S23 In9 1_555 1_555
S23 In10 1_555 1_555
N3_2 C10_2 1_555 1_555
C10_2 N4_2 1_555 1_555
H10_2 C10_2 1_555 1_555
C11_2 N3_2 1_555 1_555
C12_2 C11_2 1_555 1_555
H11_2 C12_2 1_555 1_555
C13_2 C12_2 1_555 1_555
C14_2 C13_2 1_555 1_555
C15_2 C14_2 1_555 1_555
H12_2 C15_2 1_555 1_555
C16_2 N4_2 1_555 1_555
C17_2 C13_2 1_555 1_555
H13_2 C17_2 1_555 1_555
H14_2 C17_2 1_555 1_555
H15_2 C17_2 1_555 1_555
C18_2 C14_2 1_555 1_555
H16_2 C18_2 1_555 1_555
H17_2 C18_2 1_555 1_555
H18_2 C18_2 1_555 1_555
In20_2 N3_2 1_555 1_555
C11_2 C16_2 1_555 1_555
C15_2 C16_2 1_555 1_555
Cd1_2 S6_2 1_555 1_555
Cd2_2 S5_2 1_555 1_555
Cd3_2 S14_2 1_555 1_555
Cd4_2 S8_2 1_555 1_555
S1_2 In1_2 1_555 1_555
S2_2 In1_2 1_555 1_555
S3_2 In1_2 1_555 1_555
S4_2 In2_2 1_555 1_555
S5_2 In2_2 1_555 1_555
S6_2 In2_2 1_555 1_555
S8_2 In3_2 1_555 1_555
S9_2 In4_2 1_555 1_555
S10_2 In5_2 1_555 1_555
S11_2 Cd2_2 1_555 1_555
S12_2 Cd1_2 1_555 1_555
S13_2 Cd2_2 1_555 1_555
S14_2 Cd1_2 1_555 1_555
S15_2 Cd1_2 1_555 1_555
S17_2 Cd4_2 1_555 1_555
S18_2 Cd4_2 1_555 1_555
S19_2 In7_2 1_555 1_555
S20_2 In8_2 1_555 1_555
S21_2 In8_2 1_555 1_555
S22_2 In9_2 1_555 1_555
S23_2 Cd3_2 1_555 1_555
S24_2 In10_2 1_555 1_555
S25_2 In11_2 1_555 1_555
S26_2 Cd3_2 1_555 1_555
S27_2 Cd3_2 1_555 1_555
S28_2 In12_2 1_555 1_555
S29_2 In13_2 1_555 1_555
S30_2 In14_2 1_555 1_555
S31_2 In15_2 1_555 1_555
In1_2 N1_2 1_555 1_555
In2_2 S32_2 1_555 1_555
In3_2 S5_2 1_555 1_555
In4_2 S6_2 1_555 1_555
In5_2 S4_2 1_555 1_555
In7_2 S9_2 1_555 1_555
In8_2 S10_2 1_555 1_555
In9_2 S11_2 1_555 1_555
In10_2 S12_2 1_555 1_555
In11_2 S13_2 1_555 1_555
In12_2 S15_2 1_555 1_555
In14_2 S17_2 1_555 1_555
In15_2 S18_2 1_555 1_555
In16_2 S19_2 1_555 1_555
N1_2 C1_2 1_555 1_555
N2_2 In16_2 1_555 1_555
C1_2 N2_2 1_555 1_555
H1_2 C1_2 1_555 1_555
C2_2 N1_2 1_555 1_555
C3_2 C2_2 1_555 1_555
H2_2 C3_2 1_555 1_555
C4_2 C3_2 1_555 1_555
C5_2 C4_2 1_555 1_555
C6_2 C5_2 1_555 1_555
H3_2 C6_2 1_555 1_555
C7_2 N2_2 1_555 1_555
C8_2 C4_2 1_555 1_555
H4_2 C8_2 1_555 1_555
H5_2 C8_2 1_555 1_555
H6_2 C8_2 1_555 1_555
C9_2 C5_2 1_555 1_555
H7_2 C9_2 1_555 1_555
H8_2 C9_2 1_555 1_555
H9_2 C9_2 1_555 1_555
S33_2 In3_2 1_555 1_555
S34_2 In4_2 1_555 1_555
In17_2 S1_2 1_555 1_555
In18_2 S2_2 1_555 1_555
In19_2 S3_2 1_555 1_555
N5_2 In8_2 1_555 1_555
Cd2_2 S14_2 1_555 1_555
Cd4_2 S14_2 1_555 1_555
S8_2 In4_2 1_555 1_555
S11_2 In5_2 1_555 1_555
S12_2 In5_2 1_555 1_555
S13_2 In6_2 1_555 1_555
S15_2 In7_2 1_555 1_555
S17_2 In6_2 1_555 1_555
S18_2 In7_2 1_555 1_555
S20_2 In9_2 1_555 1_555
S21_2 In10_2 1_555 1_555
S22_2 In11_2 1_555 1_555
S23_2 In9_2 1_555 1_555
S23_2 In10_2 1_555 1_555
S24_2 In12_2 1_555 1_555
S25_2 In13_2 1_555 1_555
S26_2 In11_2 1_555 1_555
S26_2 In14_2 1_555 1_555
S27_2 In12_2 1_555 1_555
S27_2 In15_2 1_555 1_555
S28_2 In16_2 1_555 1_555
S29_2 In14_2 1_555 1_555
S30_2 In15_2 1_555 1_555
S31_2 In16_2 1_555 1_555
C2_2 C7_2 1_555 1_555
C6_2 C7_2 1_555 1_555
S32 In1_3 1_555 1_555
S33 In1_3 1_555 1_555
S34 In1_3 1_555 1_555
In1_3 N1_3 1_555 1_555
C2_3 N1_3 1_555 1_555
Cd1_3 S6_3 1_555 1_555
Cd2_3 S5_3 1_555 1_555
Cd3_3 S14_3 1_555 1_555
Cd4_3 S8_3 1_555 1_555
S4_3 In17 1_555 1_555
S5_3 In17 1_555 1_555
S6_3 In17 1_555 1_555
S7_2 In18 1_555 1_555
S8_3 In18 1_555 1_555
S9_3 In19 1_555 1_555
S10_3 In5_3 1_555 1_555
S11_3 Cd2_3 1_555 1_555
S12_3 Cd1_3 1_555 1_555
S13_3 Cd2_3 1_555 1_555
S14_3 Cd1_3 1_555 1_555
S15_3 Cd1_3 1_555 1_555
S16_3 In6_3 1_555 1_555
S17_3 Cd4_3 1_555 1_555
S18_3 Cd4_3 1_555 1_555
S19_3 In7_3 1_555 1_555
S20_3 In20_2 1_555 1_555
S21_3 In20_2 1_555 1_555
S22_3 In9_3 1_555 1_555
S23_3 Cd3_3 1_555 1_555
S24_3 In10_3 1_555 1_555
S25_3 In11_3 1_555 1_555
S26_3 Cd3_3 1_555 1_555
S27_3 Cd3_3 1_555 1_555
S28_3 In12_3 1_555 1_555
S29_3 In13_3 1_555 1_555
S30_3 In14_3 1_555 1_555
S31_3 In15_3 1_555 1_555
In18 S5_3 1_555 1_555
In19 S6_3 1_555 1_555
In5_3 S4_3 1_555 1_555
In6_3 S7_2 1_555 1_555
In7_3 S9_3 1_555 1_555
In20_2 S10_3 1_555 1_555
In9_3 S11_3 1_555 1_555
In10_3 S12_3 1_555 1_555
In11_3 S13_3 1_555 1_555
In12_3 S15_3 1_555 1_555
In13_3 S16_3 1_555 1_555
In14_3 S17_3 1_555 1_555
In15_3 S18_3 1_555 1_555
In16_3 S19_3 1_555 1_555
N2_3 In16_3 1_555 1_555
N5_2 C10_3 1_555 1_555
N4_3 In13_3 1_555 1_555
C1_3 N2_3 1_555 1_555
H1_3 C1_3 1_555 1_555
C7_3 N2_3 1_555 1_555
C10_3 N4_3 1_555 1_555
H10_3 C10_3 1_555 1_555
C11_3 N5_2 1_555 1_555
C12_3 C11_3 1_555 1_555
H11_3 C12_3 1_555 1_555
C13_3 C12_3 1_555 1_555
C14_3 C13_3 1_555 1_555
C15_3 C14_3 1_555 1_555
H12_3 C15_3 1_555 1_555
C16_3 N4_3 1_555 1_555
C17_3 C13_3 1_555 1_555
H13_3 C17_3 1_555 1_555
H14_3 C17_3 1_555 1_555
H15_3 C17_3 1_555 1_555
C18_3 C14_3 1_555 1_555
H16_3 C18_3 1_555 1_555
H17_3 C18_3 1_555 1_555
H18_3 C18_3 1_555 1_555
Cd2_3 S14_3 1_555 1_555
Cd4_3 S14_3 1_555 1_555
S8_3 In19 1_555 1_555
S11_3 In5_3 1_555 1_555
S12_3 In5_3 1_555 1_555
S13_3 In6_3 1_555 1_555
S15_3 In7_3 1_555 1_555
S17_3 In6_3 1_555 1_555
S18_3 In7_3 1_555 1_555
S20_3 In9_3 1_555 1_555
S21_3 In10_3 1_555 1_555
S22_3 In11_3 1_555 1_555
S23_3 In9_3 1_555 1_555
S23_3 In10_3 1_555 1_555
S24_3 In12_3 1_555 1_555
S25_3 In13_3 1_555 1_555
S26_3 In11_3 1_555 1_555
S26_3 In14_3 1_555 1_555
S27_3 In12_3 1_555 1_555
S27_3 In15_3 1_555 1_555
S28_3 In16_3 1_555 1_555
S29_3 In14_3 1_555 1_555
S30_3 In15_3 1_555 1_555
S31_3 In16_3 1_555 1_555
C11_3 C16_3 1_555 1_555
C15_3 C16_3 1_555 1_555
Cd1_4 S6_4 1_555 1_555
Cd2_4 S5_4 1_555 1_555
S4_4 In17_2 1_555 1_555
S5_4 In17_2 1_555 1_555
S6_4 In17_2 1_555 1_555
S7_3 In18_2 1_555 1_555
S8_4 In18_2 1_555 1_555
S9_4 In19_2 1_555 1_555
S10_4 In5_4 1_555 1_555
S11_4 Cd2_4 1_555 1_555
S12_4 Cd1_4 1_555 1_555
S13_4 Cd2_4 1_555 1_555
S14_4 Cd1_4 1_555 1_555
S15_4 Cd1_4 1_555 1_555
S20_4 In20 1_555 1_555
S21_4 In20 1_555 1_555
S24_4 In10_4 1_555 1_555
In18_2 S5_4 1_555 1_555
In19_2 S6_4 1_555 1_555
In5_4 S4_4 1_555 1_555
In20 S10_4 1_555 1_555
In9_4 S11_4 1_555 1_555
In10_4 S12_4 1_555 1_555
Cd2_4 S14_4 1_555 1_555
S8_4 In19_2 1_555 1_555
S11_4 In5_4 1_555 1_555
S12_4 In5_4 1_555 1_555
S20_4 In9_4 1_555 1_555
S21_4 In10_4 1_555 1_555
S23_4 In9_4 1_555 1_555
S23_4 In10_4 1_555 1_555
S32_2 In1_4 1_555 1_555
S33_2 In1_4 1_555 1_555
S34_2 In1_4 1_555 1_555
S16_4 In6_4 1_555 1_555
S17_4 Cd4_4 1_555 1_555
S18_4 Cd4_4 1_555 1_555
S19_4 In7_4 1_555 1_555
S25_4 In11_4 1_555 1_555
S26_4 Cd3_4 1_555 1_555
S27_4 Cd3_4 1_555 1_555
S28_4 In12_4 1_555 1_555
S29_4 In13_4 1_555 1_555
S30_4 In14_4 1_555 1_555
S31_4 In15_4 1_555 1_555
In1_4 N1_4 1_555 1_555
In13_4 S16_4 1_555 1_555
In14_4 S17_4 1_555 1_555
In15_4 S18_4 1_555 1_555
In16_4 S19_4 1_555 1_555
N1_4 C1_4 1_555 1_555
N2_4 In16_4 1_555 1_555
N5 C10_4 1_555 1_555
N4_4 In13_4 1_555 1_555
C1_4 N2_4 1_555 1_555
H1_4 C1_4 1_555 1_555
C2_4 N1_4 1_555 1_555
C7_4 N2_4 1_555 1_555
C10_4 N4_4 1_555 1_555
H10_4 C10_4 1_555 1_555
C11_4 N5 1_555 1_555
C12_4 C11_4 1_555 1_555
H11_4 C12_4 1_555 1_555
C13_4 C12_4 1_555 1_555
C14_4 C13_4 1_555 1_555
C15_4 C14_4 1_555 1_555
H12_4 C15_4 1_555 1_555
C16_4 N4_4 1_555 1_555
C17_4 C13_4 1_555 1_555
H13_4 C17_4 1_555 1_555
H14_4 C17_4 1_555 1_555
H15_4 C17_4 1_555 1_555
C18_4 C14_4 1_555 1_555
H16_4 C18_4 1_555 1_555
H17_4 C18_4 1_555 1_555
H18_4 C18_4 1_555 1_555
S17_4 In6_4 1_555 1_555
S18_4 In7_4 1_555 1_555
S22_4 In11_4 1_555 1_555
S25_4 In13_4 1_555 1_555
S26_4 In11_4 1_555 1_555
S26_4 In14_4 1_555 1_555
S27_4 In12_4 1_555 1_555
S27_4 In15_4 1_555 1_555
S28_4 In16_4 1_555 1_555
S29_4 In14_4 1_555 1_555
S30_4 In15_4 1_555 1_555
S31_4 In16_4 1_555 1_555
C2_4 C7_4 1_555 1_555
C11_4 C16_4 1_555 1_555
C15_4 C16_4 1_555 1_555
H2_3 C3_3 1_555 1_555
C4_3 C3_3 1_555 1_555
C8_3 C4_3 1_555 1_555
H4_3 C8_3 1_555 1_555
H5_3 C8_3 1_555 1_555
H6_3 C8_3 1_555 1_555
C6_3 C5_3 1_555 1_555
H3_3 C6_3 1_555 1_555
C9_3 C5_3 1_555 1_555
H9_3 C9_3 1_555 1_555
H2_4 C3_4 1_555 1_555
C4_4 C3_4 1_555 1_555
C5_4 C4_4 1_555 1_555
C6_4 C5_4 1_555 1_555
H3_4 C6_4 1_555 1_555
C8_4 C4_4 1_555 1_555
H4_4 C8_4 1_555 1_555
H5_4 C8_4 1_555 1_555
H6_4 C8_4 1_555 1_555
C9_4 C5_4 1_555 1_555
H7_4 C9_4 1_555 1_555
H8_4 C9_4 1_555 1_555
H9_4 C9_4 1_555 1_555
Cd1_5 S6_5 1_555 1_555
Cd2_5 S5_5 1_555 1_555
S4_5 In2_3 1_555 1_555
S5_5 In2_3 1_555 1_555
S6_5 In2_3 1_555 1_555
S8_5 In3_3 1_555 1_555
S9_5 In4_3 1_555 1_555
S10_5 In5_5 1_555 1_555
S11_5 Cd2_5 1_555 1_555
S12_5 Cd1_5 1_555 1_555
S13_5 Cd2_5 1_555 1_555
S14_5 Cd1_5 1_555 1_555
S15_5 Cd1_5 1_555 1_555
S20_5 In8_3 1_555 1_555
S21_5 In8_3 1_555 1_555
S24_5 In10_5 1_555 1_555
In2_3 S32_3 1_555 1_555
In3_3 S5_5 1_555 1_555
In4_3 S6_5 1_555 1_555
In5_5 S4_5 1_555 1_555
In8_3 S10_5 1_555 1_555
In9_5 S11_5 1_555 1_555
In10_5 S12_5 1_555 1_555
S33_3 In3_3 1_555 1_555
S34_3 In4_3 1_555 1_555
N5_3 In8_3 1_555 1_555
Cd2_5 S14_5 1_555 1_555
S8_5 In4_3 1_555 1_555
S11_5 In5_5 1_555 1_555
S12_5 In5_5 1_555 1_555
S20_5 In9_5 1_555 1_555
S21_5 In10_5 1_555 1_555
S23_5 In9_5 1_555 1_555
S23_5 In10_5 1_555 1_555
N3_3 C10_5 1_555 1_555
C10_5 N4_5 1_555 1_555
H10_5 C10_5 1_555 1_555
C11_5 N3_3 1_555 1_555
C12_5 C11_5 1_555 1_555
H11_5 C12_5 1_555 1_555
C13_5 C12_5 1_555 1_555
C14_5 C13_5 1_555 1_555
C15_5 C14_5 1_555 1_555
H12_5 C15_5 1_555 1_555
C16_5 N4_5 1_555 1_555
C17_5 C13_5 1_555 1_555
H13_5 C17_5 1_555 1_555
H14_5 C17_5 1_555 1_555
H15_5 C17_5 1_555 1_555
C18_5 C14_5 1_555 1_555
H16_5 C18_5 1_555 1_555
H17_5 C18_5 1_555 1_555
H18_5 C18_5 1_555 1_555
In20_3 N3_3 1_555 1_555
C11_5 C16_5 1_555 1_555
C15_5 C16_5 1_555 1_555
S1_3 In1_5 1_555 1_555
S2_3 In1_5 1_555 1_555
S3_3 In1_5 1_555 1_555
In1_5 N1_5 1_555 1_555
C2_5 N1_5 1_555 1_555
C3_5 C2_5 1_555 1_555
H2_5 C3_5 1_555 1_555
C4_5 C3_5 1_555 1_555
C8_5 C4_5 1_555 1_555
H4_5 C8_5 1_555 1_555
H5_5 C8_5 1_555 1_555
H6_5 C8_5 1_555 1_555
In17_3 S1_3 1_555 1_555
In18_3 S2_3 1_555 1_555
In19_3 S3_3 1_555 1_555
Cd1_6 S6_6 1_555 1_555
Cd2_6 S5_6 1_555 1_555
Cd3_5 S14_6 1_555 1_555
Cd4_5 S8_6 1_555 1_555
S1_4 In1_6 1_555 1_555
S2_4 In1_6 1_555 1_555
S3_4 In1_6 1_555 1_555
S4_6 In2_4 1_555 1_555
S5_6 In2_4 1_555 1_555
S6_6 In2_4 1_555 1_555
S8_6 In3_4 1_555 1_555
S9_6 In4_4 1_555 1_555
S10_6 In5_6 1_555 1_555
S11_6 Cd2_6 1_555 1_555
S12_6 Cd1_6 1_555 1_555
S13_6 Cd2_6 1_555 1_555
S14_6 Cd1_6 1_555 1_555
S15_6 Cd1_6 1_555 1_555
S17_5 Cd4_5 1_555 1_555
S18_5 Cd4_5 1_555 1_555
S19_5 In7_5 1_555 1_555
S20_6 In8_4 1_555 1_555
S21_6 In8_4 1_555 1_555
S22_5 In9_6 1_555 1_555
S23_6 Cd3_5 1_555 1_555
S24_6 In10_6 1_555 1_555
S25_5 In11_5 1_555 1_555
S26_5 Cd3_5 1_555 1_555
S27_5 Cd3_5 1_555 1_555
S28_5 In12_5 1_555 1_555
S29_5 In13_5 1_555 1_555
S30_5 In14_5 1_555 1_555
S31_5 In15_5 1_555 1_555
In1_6 N1_6 1_555 1_555
In2_4 S32_4 1_555 1_555
In3_4 S5_6 1_555 1_555
In4_4 S6_6 1_555 1_555
In5_6 S4_6 1_555 1_555
In7_5 S9_6 1_555 1_555
In8_4 S10_6 1_555 1_555
In9_6 S11_6 1_555 1_555
In10_6 S12_6 1_555 1_555
In11_5 S13_6 1_555 1_555
In12_5 S15_6 1_555 1_555
In14_5 S17_5 1_555 1_555
In15_5 S18_5 1_555 1_555
In16_5 S19_5 1_555 1_555
N1_6 C1_5 1_555 1_555
N2_5 In16_5 1_555 1_555
C1_5 N2_5 1_555 1_555
H1_5 C1_5 1_555 1_555
C2_6 N1_6 1_555 1_555
C3_6 C2_6 1_555 1_555
H2_6 C3_6 1_555 1_555
C4_6 C3_6 1_555 1_555
C5_5 C4_6 1_555 1_555
C6_5 C5_5 1_555 1_555
H3_5 C6_5 1_555 1_555
C7_5 N2_5 1_555 1_555
C8_6 C4_6 1_555 1_555
H4_6 C8_6 1_555 1_555
H5_6 C8_6 1_555 1_555
H6_6 C8_6 1_555 1_555
C9_5 C5_5 1_555 1_555
H7_6 C9_5 1_555 1_555
H8_6 C9_5 1_555 1_555
H9_5 C9_5 1_555 1_555
S33_4 In3_4 1_555 1_555
S34_4 In4_4 1_555 1_555
In17_4 S1_4 1_555 1_555
In18_4 S2_4 1_555 1_555
In19_4 S3_4 1_555 1_555
N5_4 In8_4 1_555 1_555
Cd2_6 S14_6 1_555 1_555
Cd4_5 S14_6 1_555 1_555
S8_6 In4_4 1_555 1_555
S11_6 In5_6 1_555 1_555
S12_6 In5_6 1_555 1_555
S13_6 In6_5 1_555 1_555
S15_6 In7_5 1_555 1_555
S17_5 In6_5 1_555 1_555
S18_5 In7_5 1_555 1_555
S20_6 In9_6 1_555 1_555
S21_6 In10_6 1_555 1_555
S22_5 In11_5 1_555 1_555
S23_6 In9_6 1_555 1_555
S23_6 In10_6 1_555 1_555
S24_6 In12_5 1_555 1_555
S25_5 In13_5 1_555 1_555
S26_5 In11_5 1_555 1_555
S26_5 In14_5 1_555 1_555
S27_5 In12_5 1_555 1_555
S27_5 In15_5 1_555 1_555
S28_5 In16_5 1_555 1_555
S29_5 In14_5 1_555 1_555
S30_5 In15_5 1_555 1_555
S31_5 In16_5 1_555 1_555
C2_6 C7_5 1_555 1_555
C6_5 C7_5 1_555 1_555
N3_4 C10_6 1_555 1_555
C10_6 N4_6 1_555 1_555
H10_6 C10_6 1_555 1_555
C11_6 N3_4 1_555 1_555
C12_6 C11_6 1_555 1_555
H11_6 C12_6 1_555 1_555
C13_6 C12_6 1_555 1_555
C14_6 C13_6 1_555 1_555
C15_6 C14_6 1_555 1_555
H12_6 C15_6 1_555 1_555
C16_6 N4_6 1_555 1_555
C17_6 C13_6 1_555 1_555
H13_6 C17_6 1_555 1_555
H14_6 C17_6 1_555 1_555
H15_6 C17_6 1_555 1_555
C18_6 C14_6 1_555 1_555
H16_6 C18_6 1_555 1_555
H17_6 C18_6 1_555 1_555
H18_6 C18_6 1_555 1_555
In20_4 N3_4 1_555 1_555
C11_6 C16_6 1_555 1_555
C15_6 C16_6 1_555 1_555
Cd1_7 S6_7 1_555 1_555
Cd2_7 S5_7 1_555 1_555
Cd3_6 S14_7 1_555 1_555
Cd4_6 S8_7 1_555 1_555
S4_7 In17_3 1_555 1_555
S5_7 In17_3 1_555 1_555
S6_7 In17_3 1_555 1_555
S7_7 In18_3 1_555 1_555
S8_7 In18_3 1_555 1_555
S9_7 In19_3 1_555 1_555
S10_7 In5_7 1_555 1_555
S11_7 Cd2_7 1_555 1_555
S12_7 Cd1_7 1_555 1_555
S13_7 Cd2_7 1_555 1_555
S14_7 Cd1_7 1_555 1_555
S15_7 Cd1_7 1_555 1_555
S16_7 In6_6 1_555 1_555
S17_6 Cd4_6 1_555 1_555
S18_6 Cd4_6 1_555 1_555
S19_6 In7_6 1_555 1_555
S20_7 In20_4 1_555 1_555
S21_7 In20_4 1_555 1_555
S22_6 In9_7 1_555 1_555
S23_7 Cd3_6 1_555 1_555
S24_7 In10_7 1_555 1_555
S25_6 In11_6 1_555 1_555
S26_6 Cd3_6 1_555 1_555
S27_6 Cd3_6 1_555 1_555
S28_6 In12_6 1_555 1_555
S29_6 In13_6 1_555 1_555
S30_6 In14_6 1_555 1_555
S31_6 In15_6 1_555 1_555
In18_3 S5_7 1_555 1_555
In19_3 S6_7 1_555 1_555
In5_7 S4_7 1_555 1_555
In6_6 S7_7 1_555 1_555
In7_6 S9_7 1_555 1_555
In20_4 S10_7 1_555 1_555
In9_7 S11_7 1_555 1_555
In10_7 S12_7 1_555 1_555
In11_6 S13_7 1_555 1_555
In12_6 S15_7 1_555 1_555
In13_6 S16_7 1_555 1_555
In14_6 S17_6 1_555 1_555
In15_6 S18_6 1_555 1_555
In16_6 S19_6 1_555 1_555
N2_6 In16_6 1_555 1_555
N5_4 C10_7 1_555 1_555
N4_7 In13_6 1_555 1_555
C1_6 N2_6 1_555 1_555
H1_6 C1_6 1_555 1_555
C7_6 N2_6 1_555 1_555
C10_7 N4_7 1_555 1_555
H10_7 C10_7 1_555 1_555
C11_7 N5_4 1_555 1_555
C12_7 C11_7 1_555 1_555
H11_7 C12_7 1_555 1_555
C13_7 C12_7 1_555 1_555
C14_7 C13_7 1_555 1_555
C15_7 C14_7 1_555 1_555
H12_7 C15_7 1_555 1_555
C16_7 N4_7 1_555 1_555
C17_7 C13_7 1_555 1_555
H13_7 C17_7 1_555 1_555
H14_7 C17_7 1_555 1_555
H15_7 C17_7 1_555 1_555
C18_7 C14_7 1_555 1_555
H16_7 C18_7 1_555 1_555
H17_7 C18_7 1_555 1_555
H18_7 C18_7 1_555 1_555
Cd2_7 S14_7 1_555 1_555
Cd4_6 S14_7 1_555 1_555
S8_7 In19_3 1_555 1_555
S11_7 In5_7 1_555 1_555
S12_7 In5_7 1_555 1_555
S13_7 In6_6 1_555 1_555
S15_7 In7_6 1_555 1_555
S17_6 In6_6 1_555 1_555
S18_6 In7_6 1_555 1_555
S20_7 In9_7 1_555 1_555
S21_7 In10_7 1_555 1_555
S22_6 In11_6 1_555 1_555
S23_7 In9_7 1_555 1_555
S23_7 In10_7 1_555 1_555
S24_7 In12_6 1_555 1_555
S25_6 In13_6 1_555 1_555
S26_6 In11_6 1_555 1_555
S26_6 In14_6 1_555 1_555
S27_6 In12_6 1_555 1_555
S27_6 In15_6 1_555 1_555
S28_6 In16_6 1_555 1_555
S29_6 In14_6 1_555 1_555
S30_6 In15_6 1_555 1_555
S31_6 In16_6 1_555 1_555
C11_7 C16_7 1_555 1_555
C15_7 C16_7 1_555 1_555
S32_3 In1_7 1_555 1_555
S33_3 In1_7 1_555 1_555
S34_3 In1_7 1_555 1_555
In1_7 N1_7 1_555 1_555
C2_7 N1_7 1_555 1_555
S32_4 In1_8 1_555 1_555
S33_4 In1_8 1_555 1_555
S34_4 In1_8 1_555 1_555
S16_8 In6_7 1_555 1_555
S17_7 Cd4_7 1_555 1_555
S18_7 Cd4_7 1_555 1_555
S19_7 In7_7 1_555 1_555
S25_7 In11_7 1_555 1_555
S26_7 Cd3_7 1_555 1_555
S27_7 Cd3_7 1_555 1_555
S28_7 In12_7 1_555 1_555
S29_7 In13_7 1_555 1_555
S30_7 In14_7 1_555 1_555
S31_7 In15_7 1_555 1_555
In1_8 N1_8 1_555 1_555
In13_7 S16_8 1_555 1_555
In14_7 S17_7 1_555 1_555
In15_7 S18_7 1_555 1_555
In16_7 S19_7 1_555 1_555
N1_8 C1_7 1_555 1_555
N2_7 In16_7 1_555 1_555
N5_3 C10_8 1_555 1_555
N4_8 In13_7 1_555 1_555
C1_7 N2_7 1_555 1_555
H1_7 C1_7 1_555 1_555
C2_8 N1_8 1_555 1_555
C7_7 N2_7 1_555 1_555
C10_8 N4_8 1_555 1_555
H10_8 C10_8 1_555 1_555
C11_8 N5_3 1_555 1_555
C12_8 C11_8 1_555 1_555
H11_8 C12_8 1_555 1_555
C13_8 C12_8 1_555 1_555
C14_8 C13_8 1_555 1_555
C15_8 C14_8 1_555 1_555
H12_8 C15_8 1_555 1_555
C16_8 N4_8 1_555 1_555
C17_8 C13_8 1_555 1_555
H13_8 C17_8 1_555 1_555
H14_8 C17_8 1_555 1_555
H15_8 C17_8 1_555 1_555
C18_8 C14_8 1_555 1_555
H16_8 C18_8 1_555 1_555
H17_8 C18_8 1_555 1_555
H18_8 C18_8 1_555 1_555
S17_7 In6_7 1_555 1_555
S18_7 In7_7 1_555 1_555
S22_7 In11_7 1_555 1_555
S25_7 In13_7 1_555 1_555
S26_7 In11_7 1_555 1_555
S26_7 In14_7 1_555 1_555
S27_7 In12_7 1_555 1_555
S27_7 In15_7 1_555 1_555
S28_7 In16_7 1_555 1_555
S29_7 In14_7 1_555 1_555
S30_7 In15_7 1_555 1_555
S31_7 In16_7 1_555 1_555
C2_8 C7_7 1_555 1_555
C11_8 C16_8 1_555 1_555
C15_8 C16_8 1_555 1_555
Cd1_8 S6_8 1_555 1_555
Cd2_8 S5_8 1_555 1_555
S4_8 In17_4 1_555 1_555
S5_8 In17_4 1_555 1_555
S6_8 In17_4 1_555 1_555
S7_8 In18_4 1_555 1_555
S8_8 In18_4 1_555 1_555
S9_8 In19_4 1_555 1_555
S10_8 In5_8 1_555 1_555
S11_8 Cd2_8 1_555 1_555
S12_8 Cd1_8 1_555 1_555
S13_8 Cd2_8 1_555 1_555
S14_8 Cd1_8 1_555 1_555
S15_8 Cd1_8 1_555 1_555
S20_8 In20_3 1_555 1_555
S21_8 In20_3 1_555 1_555
S24_8 In10_8 1_555 1_555
In18_4 S5_8 1_555 1_555
In19_4 S6_8 1_555 1_555
In5_8 S4_8 1_555 1_555
In20_3 S10_8 1_555 1_555
In9_8 S11_8 1_555 1_555
In10_8 S12_8 1_555 1_555
Cd2_8 S14_8 1_555 1_555
S8_8 In19_4 1_555 1_555
S11_8 In5_8 1_555 1_555
S12_8 In5_8 1_555 1_555
S20_8 In9_8 1_555 1_555
S21_8 In10_8 1_555 1_555
S23_8 In9_8 1_555 1_555
S23_8 In10_8 1_555 1_555
S17_8 Cd4_8 1_555 1_555
S18_8 Cd4_8 1_555 1_555
S19_8 In7_8 1_555 1_555
S25_8 In11_8 1_555 1_555
S26_8 Cd3_8 1_555 1_555
S27_8 Cd3_8 1_555 1_555
S28_8 In12_8 1_555 1_555
S29_8 In13_8 1_555 1_555
S30_8 In14_8 1_555 1_555
S31_8 In15_8 1_555 1_555
In14_8 S17_8 1_555 1_555
In15_8 S18_8 1_555 1_555
In16_8 S19_8 1_555 1_555
N2_8 In16_8 1_555 1_555
C1_8 N2_8 1_555 1_555
H1_8 C1_8 1_555 1_555
C6_6 C5_6 1_555 1_555
H3_6 C6_6 1_555 1_555
C7_8 N2_8 1_555 1_555
C9_6 C5_6 1_555 1_555
H9_6 C9_6 1_555 1_555
S17_8 In6_8 1_555 1_555
S18_8 In7_8 1_555 1_555
S22_8 In11_8 1_555 1_555
S25_8 In13_8 1_555 1_555
S26_8 In11_8 1_555 1_555
S26_8 In14_8 1_555 1_555
S27_8 In12_8 1_555 1_555
S27_8 In15_8 1_555 1_555
S28_8 In16_8 1_555 1_555
S29_8 In14_8 1_555 1_555
S30_8 In15_8 1_555 1_555
S31_8 In16_8 1_555 1_555
C6_6 C7_8 1_555 1_555
C6_7 C5_7 1_555 1_555
H3_7 C6_7 1_555 1_555
C9_7 C5_7 1_555 1_555
H9_7 C9_7 1_555 1_555
H2_7 C3_7 1_555 1_555
C4_7 C3_7 1_555 1_555
C8_7 C4_7 1_555 1_555
H4_7 C8_7 1_555 1_555
H5_7 C8_7 1_555 1_555
H6_7 C8_7 1_555 1_555
H2_8 C3_8 1_555 1_555
C4_8 C3_8 1_555 1_555
C5_8 C4_8 1_555 1_555
C6_8 C5_8 1_555 1_555
H3_8 C6_8 1_555 1_555
C8_8 C4_8 1_555 1_555
H4_8 C8_8 1_555 1_555
H5_8 C8_8 1_555 1_555
H6_8 C8_8 1_555 1_555
C9_8 C5_8 1_555 1_555
H7_8 C9_8 1_555 1_555
H8_8 C9_8 1_555 1_555
H9_8 C9_8 1_555 1_555

#END
