
###############################################################################
#
# This file contains modified crystal structure data generated from the
# MOF subset of the Cambridge Structural Database (CSD) v543 
# hosted by the Cambridge Crystallographic Data Centre (CCDC).
#
# This work is licensed under the Creative Commons
# Attribution-NonCommercial-ShareAlike 4.0 International License.
# To view a copy of this license, visit
# http://creativecommons.org/licenses/by-nc-sa/4.0/
# or send a letter to
# Creative Commons, PO Box 1866, Mountain View, CA 94042, USA.
#
# CIF created using the CSD Python API on 29 September 2022
# The structure has been converted into the P1 space group
# The structure has a 3D framework
# The original CSD entry EMIPUO is in the cubic crystal system
# The framework has been calculated to contain at least 10.0% void space
# The void calculation uses a probe of radius 1.32A, grid spacing 0.4
# H atom positions have been added when not included in the experimental data
# Generated hydrogen atom positions removed from atoms on special positions
#
###############################################################################

data_EMIPUO
_chemical_formula_moiety         '(C264 H336 Cu24 N12 O180 Rh24)n'
_symmetry_cell_setting           triclinic
_symmetry_space_group_name_H-M   'P 1'
_symmetry_Int_Tables_number      1
_space_group_name_Hall           'P 1'
loop_
_symmetry_equiv_pos_site_id
_symmetry_equiv_pos_as_xyz
1 x,y,z
_cell_length_a                   27.650(5)
_cell_length_b                   27.650(5)
_cell_length_c                   27.650(5)
_cell_angle_alpha                90
_cell_angle_beta                 90
_cell_angle_gamma                90
_cell_volume                     21139
loop_
_atom_site_label
_atom_site_type_symbol
_atom_site_fract_x
_atom_site_fract_y
_atom_site_fract_z
Cu1 Cu 0.000000 0.45149(18) 0.000000
O4 O 0.000000 0.3739(9) 0.000000
Cu2 Cu 0.000000 0.54851(18) 0.000000
O37 O 0.0485(2) 0.4608(5) 0.0485(2)
Rh1 Rh 0.28983(4) 0.500000 0.71017(4)
Rh2 Rh 0.22850(4) 0.500000 0.77150(4)
Cu1_2 Cu 0.000000 0.45149(18) 1.000000
O1 O 0.1954(3) 0.4479(3) 0.7335(3)
O2 O 0.2523(3) 0.4479(3) 0.6765(3)
O3 O 0.0485(2) 0.4608(5) 0.9515(2)
O4_2 O 0.000000 0.3739(9) 1.000000
N1 N 0.1748(4) 0.500000 0.8252(4)
O5 O 0.3491(6) 0.500000 0.6509(6)
C1 C 0.1023(6) 0.500000 0.8977(6)
C2 C 0.0661(7) 0.500000 0.9339(7)
C3 C 0.2112(7) 0.3695(5) 0.6305(5)
H1 H 0.242322 0.378590 0.621410
C4 C 0.2131(6) 0.4300(6) 0.6920(6)
C5 C 0.1544(4) 0.4603(8) 0.8456(4)
H2 H 0.165356 0.430468 0.834644
C6 C 0.1191(4) 0.4596(7) 0.8809(4)
H3 H 0.107494 0.430289 0.892505
C7 C 0.1881(5) 0.3939(6) 0.6682(6)
O6 O 0.0794(10) 0.3200(11) 0.6800(11)
C8 C 0.1446(7) 0.3777(8) 0.6864(8)
H4 H 0.130293 0.392555 0.712886
C9 C 0.1220(11) 0.3370(14) 0.6630(14)
O7 O 0.1954(3) 0.2665(3) 0.5521(3)
O8 O 0.2523(3) 0.3235(3) 0.5521(3)
C10 C 0.2131(6) 0.3080(6) 0.5700(6)
C11 C 0.1881(5) 0.3318(6) 0.6061(6)
C12 C 0.1446(7) 0.3136(8) 0.6223(8)
H5 H 0.130293 0.287114 0.607445
O9 O 0.0485(2) 0.5392(5) 0.9515(2)
C13 C 0.1544(4) 0.5397(8) 0.8456(4)
H6 H 0.165356 0.569532 0.834644
C14 C 0.1191(4) 0.5404(7) 0.8809(4)
H7 H 0.107495 0.569711 0.892506
O23 O 0.2665(3) 0.5521(3) 0.8046(3)
O24 O 0.3235(3) 0.5521(3) 0.7477(3)
C37 C 0.3695(5) 0.6305(5) 0.7888(7)
H18 H 0.378590 0.621410 0.757678
C38 C 0.3080(6) 0.5700(6) 0.7869(6)
C39 C 0.3318(6) 0.6061(6) 0.8119(5)
O25 O 0.3200(11) 0.6800(11) 0.9206(10)
C40 C 0.3136(8) 0.6223(8) 0.8554(7)
H19 H 0.287114 0.607445 0.869707
C41 C 0.3370(14) 0.6630(14) 0.8780(11)
O26 O 0.4479(3) 0.7335(3) 0.8046(3)
O27 O 0.4479(3) 0.6765(3) 0.7477(3)
C42 C 0.4300(6) 0.6920(6) 0.7869(6)
C43 C 0.3939(6) 0.6682(6) 0.8119(5)
C44 C 0.3777(8) 0.6864(8) 0.8554(7)
H20 H 0.392555 0.712886 0.869707
Rh6 Rh 0.28983(4) 0.28983(4) 0.500000
Rh7 Rh 0.500000 0.71017(4) 0.71017(4)
Rh10 Rh 0.22850(4) 0.22850(4) 0.500000
Rh11 Rh 0.500000 0.77150(4) 0.77150(4)
Cu2_2 Cu 0.000000 0.54851(18) 1.000000
O28 O 0.1954(3) 0.5521(3) 0.7335(3)
O30 O 0.2665(3) 0.4479(3) 0.8046(3)
O32 O 0.2523(3) 0.5521(3) 0.6765(3)
O34 O 0.3235(3) 0.4479(3) 0.7477(3)
H25 H 0.0546467 0.34597 0.678387
H30 H 0.321613 0.65403 0.945353
Cu1_3 Cu 1.000000 0.45149(18) 0.000000
O4_3 O 1.000000 0.3739(9) 0.000000
Cu2_3 Cu 1.000000 0.54851(18) 0.000000
O36 O 0.9515(2) 0.4608(5) 0.0485(2)
Cu1_4 Cu 1.000000 0.45149(18) 1.000000
O4_4 O 1.000000 0.3739(9) 1.000000
Rh3 Rh 0.71017(4) 0.500000 0.71017(4)
Rh4 Rh 0.77150(4) 0.500000 0.77150(4)
O10 O 0.8046(3) 0.5521(3) 0.7335(3)
O11 O 0.7477(3) 0.5521(3) 0.6765(3)
O12 O 0.9515(2) 0.5392(5) 0.9515(2)
N2 N 0.8252(4) 0.500000 0.8252(4)
O13 O 0.6509(6) 0.500000 0.6509(6)
C15 C 0.8977(6) 0.500000 0.8977(6)
C16 C 0.9339(7) 0.500000 0.9339(7)
C17 C 0.7888(7) 0.6305(5) 0.6305(5)
H8 H 0.757678 0.621410 0.621410
C18 C 0.7869(6) 0.5700(6) 0.6920(6)
C19 C 0.8456(4) 0.5397(8) 0.8456(4)
H9 H 0.834644 0.569532 0.834644
C20 C 0.8809(4) 0.5404(7) 0.8809(4)
H10 H 0.892506 0.569711 0.892505
C21 C 0.8119(5) 0.6061(6) 0.6682(6)
O14 O 0.9206(10) 0.6800(11) 0.6800(11)
C22 C 0.8554(7) 0.6223(8) 0.6864(8)
H11 H 0.869707 0.607445 0.712886
C23 C 0.8780(11) 0.6630(14) 0.6630(14)
O15 O 0.8046(3) 0.7335(3) 0.5521(3)
O16 O 0.7477(3) 0.6765(3) 0.5521(3)
C24 C 0.7869(6) 0.6920(6) 0.5700(6)
C25 C 0.8119(5) 0.6682(6) 0.6061(6)
C26 C 0.8554(7) 0.6864(8) 0.6223(8)
H12 H 0.869707 0.712886 0.607445
O17 O 0.9515(2) 0.4608(5) 0.9515(2)
C27 C 0.8456(4) 0.4603(8) 0.8456(4)
H13 H 0.834644 0.430468 0.834644
C28 C 0.8809(4) 0.4596(7) 0.8809(4)
H14 H 0.892505 0.430289 0.892506
O18 O 0.7335(3) 0.4479(3) 0.8046(3)
O19 O 0.6765(3) 0.4479(3) 0.7477(3)
C29 C 0.6305(5) 0.3695(5) 0.7888(7)
H15 H 0.621410 0.378590 0.757678
C30 C 0.6920(6) 0.4300(6) 0.7869(6)
C31 C 0.6682(6) 0.3939(6) 0.8119(5)
O20 O 0.6800(11) 0.3200(11) 0.9206(10)
C32 C 0.6864(8) 0.3777(8) 0.8554(7)
H16 H 0.712886 0.392555 0.869707
C33 C 0.6630(14) 0.3370(14) 0.8780(11)
O21 O 0.5521(3) 0.2665(3) 0.8046(3)
O22 O 0.5521(3) 0.3235(3) 0.7477(3)
C34 C 0.5700(6) 0.3080(6) 0.7869(6)
C35 C 0.6061(6) 0.3318(6) 0.8119(5)
C36 C 0.6223(8) 0.3136(8) 0.8554(7)
H17 H 0.607445 0.287114 0.869707
Rh5 Rh 0.71017(4) 0.71017(4) 0.500000
Rh8 Rh 0.500000 0.28983(4) 0.71017(4)
Rh9 Rh 0.77150(4) 0.77150(4) 0.500000
Rh12 Rh 0.500000 0.22850(4) 0.77150(4)
Cu2_4 Cu 1.000000 0.54851(18) 1.000000
O29 O 0.8046(3) 0.4479(3) 0.7335(3)
O31 O 0.7335(3) 0.5521(3) 0.8046(3)
O33 O 0.7477(3) 0.4479(3) 0.6765(3)
O35 O 0.6765(3) 0.5521(3) 0.7477(3)
H28 H 0.945353 0.65403 0.678387
H29 H 0.678387 0.34597 0.945353
O4_5 O -0.000000 0.6261(9) 0.000000
O36_2 O 0.0485(2) 0.5392(5) 0.0485(2)
O4_6 O 0.000000 0.6261(9) 1.000000
O4_7 O 1.000000 0.6261(9) 0.000000
O37_2 O 0.9515(2) 0.5392(5) 0.0485(2)
O4_8 O 1.000000 0.6261(9) 1.000000
Rh3_2 Rh 0.28983(4) 0.500000 0.28983(4)
Rh4_2 Rh 0.22850(4) 0.500000 0.22850(4)
O10_2 O 0.1954(3) 0.5521(3) 0.2665(3)
O11_2 O 0.2523(3) 0.5521(3) 0.3235(3)
N2_2 N 0.1748(4) 0.500000 0.1748(4)
O13_2 O 0.3491(6) 0.500000 0.3491(6)
C15_2 C 0.1023(6) 0.500000 0.1023(6)
C16_2 C 0.0661(7) 0.500000 0.0661(7)
C17_2 C 0.2112(7) 0.6305(5) 0.3695(5)
H8_2 H 0.242322 0.621410 0.378590
C18_2 C 0.2131(6) 0.5700(6) 0.3080(6)
C19_2 C 0.1544(4) 0.5397(8) 0.1544(4)
H9_2 H 0.165356 0.569532 0.165356
C20_2 C 0.1191(4) 0.5404(7) 0.1191(4)
H10_2 H 0.107494 0.569711 0.107495
C21_2 C 0.1881(5) 0.6061(6) 0.3318(6)
O14_2 O 0.0794(10) 0.6800(11) 0.3200(11)
C22_2 C 0.1446(7) 0.6223(8) 0.3136(8)
H11_2 H 0.130293 0.607445 0.287114
C23_2 C 0.1220(11) 0.6630(14) 0.3370(14)
O15_2 O 0.1954(3) 0.7335(3) 0.4479(3)
O16_2 O 0.2523(3) 0.6765(3) 0.4479(3)
C24_2 C 0.2131(6) 0.6920(6) 0.4300(6)
C25_2 C 0.1881(5) 0.6682(6) 0.3939(6)
C26_2 C 0.1446(7) 0.6864(8) 0.3777(8)
H12_2 H 0.130293 0.712886 0.392555
C27_2 C 0.1544(4) 0.4603(8) 0.1544(4)
H13_2 H 0.165356 0.430468 0.165356
C28_2 C 0.1191(4) 0.4596(7) 0.1191(4)
H14_2 H 0.107495 0.430289 0.107494
O18_2 O 0.2665(3) 0.4479(3) 0.1954(3)
O19_2 O 0.3235(3) 0.4479(3) 0.2523(3)
C29_2 C 0.3695(5) 0.3695(5) 0.2112(7)
H15_2 H 0.378590 0.378590 0.242322
C30_2 C 0.3080(6) 0.4300(6) 0.2131(6)
C31_2 C 0.3318(6) 0.3939(6) 0.1881(5)
O20_2 O 0.3200(11) 0.3200(11) 0.0794(10)
C32_2 C 0.3136(8) 0.3777(8) 0.1446(7)
H16_2 H 0.287114 0.392555 0.130293
C33_2 C 0.3370(14) 0.3370(14) 0.1220(11)
O21_2 O 0.4479(3) 0.2665(3) 0.1954(3)
O22_2 O 0.4479(3) 0.3235(3) 0.2523(3)
C34_2 C 0.4300(6) 0.3080(6) 0.2131(6)
C35_2 C 0.3939(6) 0.3318(6) 0.1881(5)
C36_2 C 0.3777(8) 0.3136(8) 0.1446(7)
H17_2 H 0.392555 0.287114 0.130293
Rh5_2 Rh 0.28983(4) 0.71017(4) 0.500000
Rh8_2 Rh 0.500000 0.28983(4) 0.28983(4)
Rh9_2 Rh 0.22850(4) 0.77150(4) 0.500000
Rh12_2 Rh 0.500000 0.22850(4) 0.22850(4)
O29_2 O 0.1954(3) 0.4479(3) 0.2665(3)
O31_2 O 0.2665(3) 0.5521(3) 0.1954(3)
O33_2 O 0.2523(3) 0.4479(3) 0.3235(3)
O35_2 O 0.3235(3) 0.5521(3) 0.2523(3)
H28_2 H 0.0546467 0.65403 0.321613
H29_2 H 0.321613 0.34597 0.0546467
Rh1_2 Rh 0.71017(4) 0.500000 0.28983(4)
Rh2_2 Rh 0.77150(4) 0.500000 0.22850(4)
O1_2 O 0.8046(3) 0.4479(3) 0.2665(3)
O2_2 O 0.7477(3) 0.4479(3) 0.3235(3)
N1_2 N 0.8252(4) 0.500000 0.1748(4)
O5_2 O 0.6509(6) 0.500000 0.3491(6)
C1_2 C 0.8977(6) 0.500000 0.1023(6)
C2_2 C 0.9339(7) 0.500000 0.0661(7)
C3_2 C 0.7888(7) 0.3695(5) 0.3695(5)
H1_2 H 0.757678 0.378590 0.378590
C4_2 C 0.7869(6) 0.4300(6) 0.3080(6)
C5_2 C 0.8456(4) 0.4603(8) 0.1544(4)
H2_2 H 0.834644 0.430468 0.165356
C6_2 C 0.8809(4) 0.4596(7) 0.1191(4)
H3_2 H 0.892506 0.430289 0.107495
C7_2 C 0.8119(5) 0.3939(6) 0.3318(6)
O6_2 O 0.9206(10) 0.3200(11) 0.3200(11)
C8_2 C 0.8554(7) 0.3777(8) 0.3136(8)
H4_2 H 0.869707 0.392555 0.287114
C9_2 C 0.8780(11) 0.3370(14) 0.3370(14)
O7_2 O 0.8046(3) 0.2665(3) 0.4479(3)
O8_2 O 0.7477(3) 0.3235(3) 0.4479(3)
C10_2 C 0.7869(6) 0.3080(6) 0.4300(6)
C11_2 C 0.8119(5) 0.3318(6) 0.3939(6)
C12_2 C 0.8554(7) 0.3136(8) 0.3777(8)
H5_2 H 0.869707 0.287114 0.392555
C13_2 C 0.8456(4) 0.5397(8) 0.1544(4)
H6_2 H 0.834644 0.569532 0.165356
C14_2 C 0.8809(4) 0.5404(7) 0.1191(4)
H7_2 H 0.892505 0.569711 0.107494
O23_2 O 0.7335(3) 0.5521(3) 0.1954(3)
O24_2 O 0.6765(3) 0.5521(3) 0.2523(3)
C37_2 C 0.6305(5) 0.6305(5) 0.2112(7)
H18_2 H 0.621410 0.621410 0.242322
C38_2 C 0.6920(6) 0.5700(6) 0.2131(6)
C39_2 C 0.6682(6) 0.6061(6) 0.1881(5)
O25_2 O 0.6800(11) 0.6800(11) 0.0794(10)
C40_2 C 0.6864(8) 0.6223(8) 0.1446(7)
H19_2 H 0.712886 0.607445 0.130293
C41_2 C 0.6630(14) 0.6630(14) 0.1220(11)
O26_2 O 0.5521(3) 0.7335(3) 0.1954(3)
O27_2 O 0.5521(3) 0.6765(3) 0.2523(3)
C42_2 C 0.5700(6) 0.6920(6) 0.2131(6)
C43_2 C 0.6061(6) 0.6682(6) 0.1881(5)
C44_2 C 0.6223(8) 0.6864(8) 0.1446(7)
H20_2 H 0.607445 0.712886 0.130293
Rh6_2 Rh 0.71017(4) 0.28983(4) 0.500000
Rh7_2 Rh 0.500000 0.71017(4) 0.28983(4)
Rh10_2 Rh 0.77150(4) 0.22850(4) 0.500000
Rh11_2 Rh 0.500000 0.77150(4) 0.22850(4)
O28_2 O 0.8046(3) 0.5521(3) 0.2665(3)
O30_2 O 0.7335(3) 0.4479(3) 0.1954(3)
O32_2 O 0.7477(3) 0.5521(3) 0.3235(3)
O34_2 O 0.6765(3) 0.4479(3) 0.2523(3)
H25_2 H 0.945353 0.34597 0.321613
H30_2 H 0.678387 0.65403 0.0546467
Cu1_5 Cu 0.000000 0.000000 0.45149(18)
O4_9 O 0.000000 0.000000 0.3739(9)
Cu2_5 Cu 0.000000 0.000000 0.54851(18)
O37_3 O 0.0485(2) 0.0485(2) 0.4608(5)
Cu1_6 Cu 0.000000 1.000000 0.45149(18)
O4_10 O 0.000000 1.000000 0.3739(9)
Cu2_6 Cu 0.000000 1.000000 0.54851(18)
O36_3 O 0.0485(2) 0.9515(2) 0.4608(5)
Cu1_7 Cu 1.000000 0.000000 0.45149(18)
O1_3 O 0.7335(3) 0.1954(3) 0.4479(3)
O2_3 O 0.6765(3) 0.2523(3) 0.4479(3)
O3_2 O 0.9515(2) 0.0485(2) 0.4608(5)
O4_11 O 1.000000 0.000000 0.3739(9)
N1_3 N 0.8252(4) 0.1748(4) 0.500000
O5_3 O 0.6509(6) 0.3491(6) 0.500000
C1_3 C 0.8977(6) 0.1023(6) 0.500000
C2_3 C 0.9339(7) 0.0661(7) 0.500000
C3_3 C 0.6305(5) 0.2112(7) 0.3695(5)
H1_3 H 0.621410 0.242322 0.378590
C4_3 C 0.6920(6) 0.2131(6) 0.4300(6)
C5_3 C 0.8456(4) 0.1544(4) 0.4603(8)
H2_3 H 0.834644 0.165356 0.430468
C6_3 C 0.8809(4) 0.1191(4) 0.4596(7)
H3_3 H 0.892505 0.107494 0.430289
C7_3 C 0.6682(6) 0.1881(5) 0.3939(6)
O6_3 O 0.6800(11) 0.0794(10) 0.3200(11)
C8_3 C 0.6864(8) 0.1446(7) 0.3777(8)
H4_3 H 0.712886 0.130293 0.392555
C9_3 C 0.6630(14) 0.1220(11) 0.3370(14)
O7_3 O 0.5521(3) 0.1954(3) 0.2665(3)
O8_3 O 0.5521(3) 0.2523(3) 0.3235(3)
C10_3 C 0.5700(6) 0.2131(6) 0.3080(6)
C11_3 C 0.6061(6) 0.1881(5) 0.3318(6)
C12_3 C 0.6223(8) 0.1446(7) 0.3136(8)
H5_3 H 0.607445 0.130293 0.287114
O9_2 O 0.9515(2) 0.0485(2) 0.5392(5)
C13_3 C 0.8456(4) 0.1544(4) 0.5397(8)
H6_3 H 0.834644 0.165356 0.569532
C14_3 C 0.8809(4) 0.1191(4) 0.5404(7)
H7_3 H 0.892506 0.107495 0.569711
O23_3 O 0.8046(3) 0.2665(3) 0.5521(3)
O24_3 O 0.7477(3) 0.3235(3) 0.5521(3)
C37_3 C 0.7888(7) 0.3695(5) 0.6305(5)
H18_3 H 0.757678 0.378590 0.621410
C38_3 C 0.7869(6) 0.3080(6) 0.5700(6)
C39_3 C 0.8119(5) 0.3318(6) 0.6061(6)
O25_3 O 0.9206(10) 0.3200(11) 0.6800(11)
C40_3 C 0.8554(7) 0.3136(8) 0.6223(8)
H19_3 H 0.869707 0.287114 0.607445
C41_3 C 0.8780(11) 0.3370(14) 0.6630(14)
C42_3 C 0.7869(6) 0.4300(6) 0.6920(6)
C43_3 C 0.8119(5) 0.3939(6) 0.6682(6)
C44_3 C 0.8554(7) 0.3777(8) 0.6864(8)
H20_3 H 0.869707 0.392555 0.712886
Cu2_7 Cu 1.000000 0.000000 0.54851(18)
O28_3 O 0.7335(3) 0.1954(3) 0.5521(3)
O32_3 O 0.6765(3) 0.2523(3) 0.5521(3)
H25_3 H 0.678387 0.0546467 0.34597
H30_3 H 0.945353 0.321613 0.65403
Cu1_8 Cu 1.000000 1.000000 0.45149(18)
O4_12 O 1.000000 1.000000 0.3739(9)
O10_3 O 0.7335(3) 0.8046(3) 0.5521(3)
O11_3 O 0.6765(3) 0.7477(3) 0.5521(3)
O12_2 O 0.9515(2) 0.9515(2) 0.5392(5)
N2_3 N 0.8252(4) 0.8252(4) 0.500000
O13_3 O 0.6509(6) 0.6509(6) 0.500000
C15_3 C 0.8977(6) 0.8977(6) 0.500000
C16_3 C 0.9339(7) 0.9339(7) 0.500000
C17_3 C 0.6305(5) 0.7888(7) 0.6305(5)
H8_3 H 0.621410 0.757678 0.621410
C18_3 C 0.6920(6) 0.7869(6) 0.5700(6)
C19_3 C 0.8456(4) 0.8456(4) 0.5397(8)
H9_3 H 0.834644 0.834644 0.569532
C20_3 C 0.8809(4) 0.8809(4) 0.5404(7)
H10_3 H 0.892505 0.892506 0.569711
C21_3 C 0.6682(6) 0.8119(5) 0.6061(6)
O14_3 O 0.6800(11) 0.9206(10) 0.6800(11)
C22_3 C 0.6864(8) 0.8554(7) 0.6223(8)
H11_3 H 0.712886 0.869707 0.607445
C23_3 C 0.6630(14) 0.8780(11) 0.6630(14)
O15_3 O 0.5521(3) 0.8046(3) 0.7335(3)
O16_3 O 0.5521(3) 0.7477(3) 0.6765(3)
C24_3 C 0.5700(6) 0.7869(6) 0.6920(6)
C25_3 C 0.6061(6) 0.8119(5) 0.6682(6)
C26_3 C 0.6223(8) 0.8554(7) 0.6864(8)
H12_3 H 0.607445 0.869707 0.712886
O17_2 O 0.9515(2) 0.9515(2) 0.4608(5)
C27_3 C 0.8456(4) 0.8456(4) 0.4603(8)
H13_3 H 0.834644 0.834644 0.430468
C28_3 C 0.8809(4) 0.8809(4) 0.4596(7)
H14_3 H 0.892506 0.892505 0.430289
O18_3 O 0.8046(3) 0.7335(3) 0.4479(3)
O19_3 O 0.7477(3) 0.6765(3) 0.4479(3)
C29_3 C 0.7888(7) 0.6305(5) 0.3695(5)
H15_3 H 0.757678 0.621410 0.378590
C30_3 C 0.7869(6) 0.6920(6) 0.4300(6)
C31_3 C 0.8119(5) 0.6682(6) 0.3939(6)
O20_3 O 0.9206(10) 0.6800(11) 0.3200(11)
C32_3 C 0.8554(7) 0.6864(8) 0.3777(8)
H16_3 H 0.869707 0.712886 0.392555
C33_3 C 0.8780(11) 0.6630(14) 0.3370(14)
C34_3 C 0.7869(6) 0.5700(6) 0.3080(6)
C35_3 C 0.8119(5) 0.6061(6) 0.3318(6)
C36_3 C 0.8554(7) 0.6223(8) 0.3136(8)
H17_3 H 0.869707 0.607445 0.287114
Cu2_8 Cu 1.000000 1.000000 0.54851(18)
O29_3 O 0.7335(3) 0.8046(3) 0.4479(3)
O33_3 O 0.6765(3) 0.7477(3) 0.4479(3)
H28_3 H 0.678387 0.945353 0.65403
H29_3 H 0.945353 0.678387 0.34597
O4_13 O 0.000000 -0.000000 0.6261(9)
O36_4 O 0.0485(2) 0.0485(2) 0.5392(5)
O4_14 O 0.000000 1.000000 0.6261(9)
O37_4 O 0.0485(2) 0.9515(2) 0.5392(5)
O4_15 O 1.000000 -0.000000 0.6261(9)
O4_16 O 1.000000 1.000000 0.6261(9)
O10_4 O 0.2665(3) 0.1954(3) 0.5521(3)
O11_4 O 0.3235(3) 0.2523(3) 0.5521(3)
N2_4 N 0.1748(4) 0.1748(4) 0.500000
O13_4 O 0.3491(6) 0.3491(6) 0.500000
C15_4 C 0.1023(6) 0.1023(6) 0.500000
C16_4 C 0.0661(7) 0.0661(7) 0.500000
C17_4 C 0.3695(5) 0.2112(7) 0.6305(5)
H8_4 H 0.378590 0.242322 0.621410
C18_4 C 0.3080(6) 0.2131(6) 0.5700(6)
C19_4 C 0.1544(4) 0.1544(4) 0.5397(8)
H9_4 H 0.165356 0.165356 0.569532
C20_4 C 0.1191(4) 0.1191(4) 0.5404(7)
H10_4 H 0.107495 0.107494 0.569711
C21_4 C 0.3318(6) 0.1881(5) 0.6061(6)
O14_4 O 0.3200(11) 0.0794(10) 0.6800(11)
C22_4 C 0.3136(8) 0.1446(7) 0.6223(8)
H11_4 H 0.287114 0.130293 0.607445
C23_4 C 0.3370(14) 0.1220(11) 0.6630(14)
O15_4 O 0.4479(3) 0.1954(3) 0.7335(3)
O16_4 O 0.4479(3) 0.2523(3) 0.6765(3)
C24_4 C 0.4300(6) 0.2131(6) 0.6920(6)
C25_4 C 0.3939(6) 0.1881(5) 0.6682(6)
C26_4 C 0.3777(8) 0.1446(7) 0.6864(8)
H12_4 H 0.392555 0.130293 0.712886
C27_4 C 0.1544(4) 0.1544(4) 0.4603(8)
H13_4 H 0.165356 0.165356 0.430468
C28_4 C 0.1191(4) 0.1191(4) 0.4596(7)
H14_4 H 0.107494 0.107495 0.430289
O18_4 O 0.1954(3) 0.2665(3) 0.4479(3)
O19_4 O 0.2523(3) 0.3235(3) 0.4479(3)
C29_4 C 0.2112(7) 0.3695(5) 0.3695(5)
H15_4 H 0.242322 0.378590 0.378590
C30_4 C 0.2131(6) 0.3080(6) 0.4300(6)
C31_4 C 0.1881(5) 0.3318(6) 0.3939(6)
O20_4 O 0.0794(10) 0.3200(11) 0.3200(11)
C32_4 C 0.1446(7) 0.3136(8) 0.3777(8)
H16_4 H 0.130293 0.287114 0.392555
C33_4 C 0.1220(11) 0.3370(14) 0.3370(14)
C34_4 C 0.2131(6) 0.4300(6) 0.3080(6)
C35_4 C 0.1881(5) 0.3939(6) 0.3318(6)
C36_4 C 0.1446(7) 0.3777(8) 0.3136(8)
H17_4 H 0.130293 0.392555 0.287114
O29_4 O 0.2665(3) 0.1954(3) 0.4479(3)
O33_4 O 0.3235(3) 0.2523(3) 0.4479(3)
H28_4 H 0.321613 0.0546467 0.65403
H29_4 H 0.0546467 0.321613 0.34597
O1_4 O 0.2665(3) 0.8046(3) 0.4479(3)
O2_4 O 0.3235(3) 0.7477(3) 0.4479(3)
N1_4 N 0.1748(4) 0.8252(4) 0.500000
O5_4 O 0.3491(6) 0.6509(6) 0.500000
C1_4 C 0.1023(6) 0.8977(6) 0.500000
C2_4 C 0.0661(7) 0.9339(7) 0.500000
C3_4 C 0.3695(5) 0.7888(7) 0.3695(5)
H1_4 H 0.378590 0.757678 0.378590
C4_4 C 0.3080(6) 0.7869(6) 0.4300(6)
C5_4 C 0.1544(4) 0.8456(4) 0.4603(8)
H2_4 H 0.165356 0.834644 0.430468
C6_4 C 0.1191(4) 0.8809(4) 0.4596(7)
H3_4 H 0.107495 0.892506 0.430289
C7_4 C 0.3318(6) 0.8119(5) 0.3939(6)
O6_4 O 0.3200(11) 0.9206(10) 0.3200(11)
C8_4 C 0.3136(8) 0.8554(7) 0.3777(8)
H4_4 H 0.287114 0.869707 0.392555
C9_4 C 0.3370(14) 0.8780(11) 0.3370(14)
O7_4 O 0.4479(3) 0.8046(3) 0.2665(3)
O8_4 O 0.4479(3) 0.7477(3) 0.3235(3)
C10_4 C 0.4300(6) 0.7869(6) 0.3080(6)
C11_4 C 0.3939(6) 0.8119(5) 0.3318(6)
C12_4 C 0.3777(8) 0.8554(7) 0.3136(8)
H5_4 H 0.392555 0.869707 0.287114
C13_4 C 0.1544(4) 0.8456(4) 0.5397(8)
H6_4 H 0.165356 0.834644 0.569532
C14_4 C 0.1191(4) 0.8809(4) 0.5404(7)
H7_4 H 0.107494 0.892505 0.569711
O23_4 O 0.1954(3) 0.7335(3) 0.5521(3)
O24_4 O 0.2523(3) 0.6765(3) 0.5521(3)
C37_4 C 0.2112(7) 0.6305(5) 0.6305(5)
H18_4 H 0.242322 0.621410 0.621410
C38_4 C 0.2131(6) 0.6920(6) 0.5700(6)
C39_4 C 0.1881(5) 0.6682(6) 0.6061(6)
O25_4 O 0.0794(10) 0.6800(11) 0.6800(11)
C40_4 C 0.1446(7) 0.6864(8) 0.6223(8)
H19_4 H 0.130293 0.712886 0.607445
C41_4 C 0.1220(11) 0.6630(14) 0.6630(14)
C42_4 C 0.2131(6) 0.5700(6) 0.6920(6)
C43_4 C 0.1881(5) 0.6061(6) 0.6682(6)
C44_4 C 0.1446(7) 0.6223(8) 0.6864(8)
H20_4 H 0.130293 0.607445 0.712886
O28_4 O 0.2665(3) 0.8046(3) 0.5521(3)
O32_4 O 0.3235(3) 0.7477(3) 0.5521(3)
H25_4 H 0.321613 0.945353 0.34597
H30_4 H 0.0546467 0.678387 0.65403
Cu1_9 Cu 0.45149(18) 0.000000 0.000000
O4_17 O 0.3739(9) 0.000000 0.000000
Cu2_9 Cu 0.54851(18) 0.000000 0.000000
O37_5 O 0.4608(5) 0.0485(2) 0.0485(2)
Cu1_10 Cu 0.45149(18) 0.000000 1.000000
O4_18 O 0.3739(9) 0.000000 1.000000
Cu2_10 Cu 0.54851(18) 0.000000 1.000000
O36_5 O 0.4608(5) 0.0485(2) 0.9515(2)
Cu1_11 Cu 0.45149(18) 1.000000 0.000000
O1_5 O 0.4479(3) 0.7335(3) 0.1954(3)
O2_5 O 0.4479(3) 0.6765(3) 0.2523(3)
O3_3 O 0.4608(5) 0.9515(2) 0.0485(2)
O4_19 O 0.3739(9) 1.000000 0.000000
N1_5 N 0.500000 0.8252(4) 0.1748(4)
O5_5 O 0.500000 0.6509(6) 0.3491(6)
C1_5 C 0.500000 0.8977(6) 0.1023(6)
C2_5 C 0.500000 0.9339(7) 0.0661(7)
C3_5 C 0.3695(5) 0.6305(5) 0.2112(7)
H1_5 H 0.378590 0.621410 0.242322
C4_5 C 0.4300(6) 0.6920(6) 0.2131(6)
C5_5 C 0.4603(8) 0.8456(4) 0.1544(4)
H2_5 H 0.430468 0.834644 0.165356
C6_5 C 0.4596(7) 0.8809(4) 0.1191(4)
H3_5 H 0.430289 0.892505 0.107494
C7_5 C 0.3939(6) 0.6682(6) 0.1881(5)
O6_5 O 0.3200(11) 0.6800(11) 0.0794(10)
C8_5 C 0.3777(8) 0.6864(8) 0.1446(7)
H4_5 H 0.392555 0.712886 0.130293
C9_5 C 0.3370(14) 0.6630(14) 0.1220(11)
C10_5 C 0.3080(6) 0.5700(6) 0.2131(6)
C11_5 C 0.3318(6) 0.6061(6) 0.1881(5)
C12_5 C 0.3136(8) 0.6223(8) 0.1446(7)
H5_5 H 0.287114 0.607445 0.130293
O9_3 O 0.5392(5) 0.9515(2) 0.0485(2)
C13_5 C 0.5397(8) 0.8456(4) 0.1544(4)
H6_5 H 0.569532 0.834644 0.165356
C14_5 C 0.5404(7) 0.8809(4) 0.1191(4)
H7_5 H 0.569711 0.892506 0.107495
O23_5 O 0.5521(3) 0.8046(3) 0.2665(3)
O24_5 O 0.5521(3) 0.7477(3) 0.3235(3)
C37_5 C 0.6305(5) 0.7888(7) 0.3695(5)
H18_5 H 0.621410 0.757678 0.378590
C38_5 C 0.5700(6) 0.7869(6) 0.3080(6)
C39_5 C 0.6061(6) 0.8119(5) 0.3318(6)
O25_5 O 0.6800(11) 0.9206(10) 0.3200(11)
C40_5 C 0.6223(8) 0.8554(7) 0.3136(8)
H19_5 H 0.607445 0.869707 0.287114
C41_5 C 0.6630(14) 0.8780(11) 0.3370(14)
C42_5 C 0.6920(6) 0.7869(6) 0.4300(6)
C43_5 C 0.6682(6) 0.8119(5) 0.3939(6)
C44_5 C 0.6864(8) 0.8554(7) 0.3777(8)
H20_5 H 0.712886 0.869707 0.392555
Cu2_11 Cu 0.54851(18) 1.000000 0.000000
H25_5 H 0.34597 0.678387 0.0546467
H30_5 H 0.65403 0.945353 0.321613
Cu1_12 Cu 0.45149(18) 1.000000 1.000000
O4_20 O 0.3739(9) 1.000000 1.000000
O10_5 O 0.5521(3) 0.7335(3) 0.8046(3)
O11_5 O 0.5521(3) 0.6765(3) 0.7477(3)
O12_3 O 0.5392(5) 0.9515(2) 0.9515(2)
N2_5 N 0.500000 0.8252(4) 0.8252(4)
O13_5 O 0.500000 0.6509(6) 0.6509(6)
C15_5 C 0.500000 0.8977(6) 0.8977(6)
C16_5 C 0.500000 0.9339(7) 0.9339(7)
C17_5 C 0.6305(5) 0.6305(5) 0.7888(7)
H8_5 H 0.621410 0.621410 0.757678
C18_5 C 0.5700(6) 0.6920(6) 0.7869(6)
C19_5 C 0.5397(8) 0.8456(4) 0.8456(4)
H9_5 H 0.569532 0.834644 0.834644
C20_5 C 0.5404(7) 0.8809(4) 0.8809(4)
H10_5 H 0.569711 0.892505 0.892506
C21_5 C 0.6061(6) 0.6682(6) 0.8119(5)
O14_5 O 0.6800(11) 0.6800(11) 0.9206(10)
C22_5 C 0.6223(8) 0.6864(8) 0.8554(7)
H11_5 H 0.607445 0.712886 0.869707
C23_5 C 0.6630(14) 0.6630(14) 0.8780(11)
C24_5 C 0.6920(6) 0.5700(6) 0.7869(6)
C25_5 C 0.6682(6) 0.6061(6) 0.8119(5)
C26_5 C 0.6864(8) 0.6223(8) 0.8554(7)
H12_5 H 0.712886 0.607445 0.869707
O17_3 O 0.4608(5) 0.9515(2) 0.9515(2)
C27_5 C 0.4603(8) 0.8456(4) 0.8456(4)
H13_5 H 0.430468 0.834644 0.834644
C28_5 C 0.4596(7) 0.8809(4) 0.8809(4)
H14_5 H 0.430289 0.892506 0.892505
O18_5 O 0.4479(3) 0.8046(3) 0.7335(3)
O19_5 O 0.4479(3) 0.7477(3) 0.6765(3)
C29_5 C 0.3695(5) 0.7888(7) 0.6305(5)
H15_5 H 0.378590 0.757678 0.621410
C30_5 C 0.4300(6) 0.7869(6) 0.6920(6)
C31_5 C 0.3939(6) 0.8119(5) 0.6682(6)
O20_5 O 0.3200(11) 0.9206(10) 0.6800(11)
C32_5 C 0.3777(8) 0.8554(7) 0.6864(8)
H16_5 H 0.392555 0.869707 0.712886
C33_5 C 0.3370(14) 0.8780(11) 0.6630(14)
C34_5 C 0.3080(6) 0.7869(6) 0.5700(6)
C35_5 C 0.3318(6) 0.8119(5) 0.6061(6)
C36_5 C 0.3136(8) 0.8554(7) 0.6223(8)
H17_5 H 0.287114 0.869707 0.607445
Cu2_12 Cu 0.54851(18) 1.000000 1.000000
H28_5 H 0.65403 0.678387 0.945353
H29_5 H 0.34597 0.945353 0.678387
O4_21 O 0.6261(9) 0.000000 -0.000000
O36_6 O 0.5392(5) 0.0485(2) 0.0485(2)
O4_22 O 0.6261(9) 0.000000 1.000000
O37_6 O 0.5392(5) 0.0485(2) 0.9515(2)
O4_23 O 0.6261(9) 1.000000 -0.000000
O4_24 O 0.6261(9) 1.000000 1.000000
O10_6 O 0.5521(3) 0.2665(3) 0.1954(3)
O11_6 O 0.5521(3) 0.3235(3) 0.2523(3)
N2_6 N 0.500000 0.1748(4) 0.1748(4)
O13_6 O 0.500000 0.3491(6) 0.3491(6)
C15_6 C 0.500000 0.1023(6) 0.1023(6)
C16_6 C 0.500000 0.0661(7) 0.0661(7)
C17_6 C 0.6305(5) 0.3695(5) 0.2112(7)
H8_6 H 0.621410 0.378590 0.242322
C18_6 C 0.5700(6) 0.3080(6) 0.2131(6)
C19_6 C 0.5397(8) 0.1544(4) 0.1544(4)
H9_6 H 0.569532 0.165356 0.165356
C20_6 C 0.5404(7) 0.1191(4) 0.1191(4)
H10_6 H 0.569711 0.107495 0.107494
C21_6 C 0.6061(6) 0.3318(6) 0.1881(5)
O14_6 O 0.6800(11) 0.3200(11) 0.0794(10)
C22_6 C 0.6223(8) 0.3136(8) 0.1446(7)
H11_6 H 0.607445 0.287114 0.130293
C23_6 C 0.6630(14) 0.3370(14) 0.1220(11)
C24_6 C 0.6920(6) 0.4300(6) 0.2131(6)
C25_6 C 0.6682(6) 0.3939(6) 0.1881(5)
C26_6 C 0.6864(8) 0.3777(8) 0.1446(7)
H12_6 H 0.712886 0.392555 0.130293
C27_6 C 0.4603(8) 0.1544(4) 0.1544(4)
H13_6 H 0.430468 0.165356 0.165356
C28_6 C 0.4596(7) 0.1191(4) 0.1191(4)
H14_6 H 0.430289 0.107494 0.107495
O18_6 O 0.4479(3) 0.1954(3) 0.2665(3)
O19_6 O 0.4479(3) 0.2523(3) 0.3235(3)
C29_6 C 0.3695(5) 0.2112(7) 0.3695(5)
H15_6 H 0.378590 0.242322 0.378590
C30_6 C 0.4300(6) 0.2131(6) 0.3080(6)
C31_6 C 0.3939(6) 0.1881(5) 0.3318(6)
O20_6 O 0.3200(11) 0.0794(10) 0.3200(11)
C32_6 C 0.3777(8) 0.1446(7) 0.3136(8)
H16_6 H 0.392555 0.130293 0.287114
C33_6 C 0.3370(14) 0.1220(11) 0.3370(14)
C34_6 C 0.3080(6) 0.2131(6) 0.4300(6)
C35_6 C 0.3318(6) 0.1881(5) 0.3939(6)
C36_6 C 0.3136(8) 0.1446(7) 0.3777(8)
H17_6 H 0.287114 0.130293 0.392555
H28_6 H 0.65403 0.321613 0.0546467
H29_6 H 0.34597 0.0546467 0.321613
O1_6 O 0.4479(3) 0.2665(3) 0.8046(3)
O2_6 O 0.4479(3) 0.3235(3) 0.7477(3)
N1_6 N 0.500000 0.1748(4) 0.8252(4)
O5_6 O 0.500000 0.3491(6) 0.6509(6)
C1_6 C 0.500000 0.1023(6) 0.8977(6)
C2_6 C 0.500000 0.0661(7) 0.9339(7)
C3_6 C 0.3695(5) 0.3695(5) 0.7888(7)
H1_6 H 0.378590 0.378590 0.757678
C4_6 C 0.4300(6) 0.3080(6) 0.7869(6)
C5_6 C 0.4603(8) 0.1544(4) 0.8456(4)
H2_6 H 0.430468 0.165356 0.834644
C6_6 C 0.4596(7) 0.1191(4) 0.8809(4)
H3_6 H 0.430289 0.107495 0.892506
C7_6 C 0.3939(6) 0.3318(6) 0.8119(5)
O6_6 O 0.3200(11) 0.3200(11) 0.9206(10)
C8_6 C 0.3777(8) 0.3136(8) 0.8554(7)
H4_6 H 0.392555 0.287114 0.869707
C9_6 C 0.3370(14) 0.3370(14) 0.8780(11)
C10_6 C 0.3080(6) 0.4300(6) 0.7869(6)
C11_6 C 0.3318(6) 0.3939(6) 0.8119(5)
C12_6 C 0.3136(8) 0.3777(8) 0.8554(7)
H5_6 H 0.287114 0.392555 0.869707
C13_6 C 0.5397(8) 0.1544(4) 0.8456(4)
H6_6 H 0.569532 0.165356 0.834644
C14_6 C 0.5404(7) 0.1191(4) 0.8809(4)
H7_6 H 0.569711 0.107494 0.892505
O23_6 O 0.5521(3) 0.1954(3) 0.7335(3)
O24_6 O 0.5521(3) 0.2523(3) 0.6765(3)
C37_6 C 0.6305(5) 0.2112(7) 0.6305(5)
H18_6 H 0.621410 0.242322 0.621410
C38_6 C 0.5700(6) 0.2131(6) 0.6920(6)
C39_6 C 0.6061(6) 0.1881(5) 0.6682(6)
O25_6 O 0.6800(11) 0.0794(10) 0.6800(11)
C40_6 C 0.6223(8) 0.1446(7) 0.6864(8)
H19_6 H 0.607445 0.130293 0.712886
C41_6 C 0.6630(14) 0.1220(11) 0.6630(14)
C42_6 C 0.6920(6) 0.2131(6) 0.5700(6)
C43_6 C 0.6682(6) 0.1881(5) 0.6061(6)
C44_6 C 0.6864(8) 0.1446(7) 0.6223(8)
H20_6 H 0.712886 0.130293 0.607445
H25_6 H 0.34597 0.321613 0.945353
H30_6 H 0.65403 0.0546467 0.678387
H28_7 H 0.0546467 0.34597 0.321613
H29_7 H 0.321613 0.65403 0.0546467
H25_7 H 0.945353 0.65403 0.321613
H30_7 H 0.678387 0.34597 0.0546467
H25_8 H 0.0546467 0.65403 0.678387
H30_8 H 0.321613 0.34597 0.945353
H28_8 H 0.945353 0.34597 0.678387
H29_8 H 0.678387 0.65403 0.945353
H28_9 H 0.321613 0.0546467 0.34597
H29_9 H 0.0546467 0.321613 0.65403
H25_9 H 0.321613 0.945353 0.65403
H30_9 H 0.0546467 0.678387 0.34597
H25_10 H 0.678387 0.0546467 0.65403
H30_10 H 0.945353 0.321613 0.34597
H28_10 H 0.678387 0.945353 0.34597
H29_10 H 0.945353 0.678387 0.65403
H28_11 H 0.34597 0.321613 0.0546467
H29_11 H 0.65403 0.0546467 0.321613
H25_11 H 0.65403 0.321613 0.945353
H30_11 H 0.34597 0.0546467 0.678387
H25_12 H 0.65403 0.678387 0.0546467
H30_12 H 0.34597 0.945353 0.321613
H28_12 H 0.34597 0.678387 0.945353
H29_12 H 0.65403 0.945353 0.678387
loop_
_geom_bond_atom_site_label_1
_geom_bond_atom_site_label_2
_geom_bond_site_symmetry_1
_geom_bond_site_symmetry_2
O4 Cu1 1_555 1_555
O37 Cu1 1_555 1_555
Rh1 O2 1_555 1_555
Rh2 O1 1_555 1_555
Cu1_2 O3 1_555 1_555
O1 C4 1_555 1_555
O2 C4 1_555 1_555
O3 C2 1_555 1_555
O4_2 Cu1_2 1_555 1_555
N1 Rh2 1_555 1_555
O5 Rh1 1_555 1_555
C1 C2 1_555 1_555
C2 O9 1_555 1_555
C3 H1 1_555 1_555
C4 C7 1_555 1_555
C5 N1 1_555 1_555
H2 C5 1_555 1_555
C6 C1 1_555 1_555
H3 C6 1_555 1_555
C7 C3 1_555 1_555
O6 C9 1_555 1_555
C8 C7 1_555 1_555
H4 C8 1_555 1_555
C9 C8 1_555 1_555
O7 C10 1_555 1_555
O8 C10 1_555 1_555
C10 C11 1_555 1_555
C11 C3 1_555 1_555
C12 C9 1_555 1_555
H5 C12 1_555 1_555
O9 Cu2_2 1_555 1_555
C13 N1 1_555 1_555
H6 C13 1_555 1_555
C14 C1 1_555 1_555
H7 C14 1_555 1_555
O23 Rh2 1_555 1_555
O24 Rh1 1_555 1_555
C37 H18 1_555 1_555
C38 O23 1_555 1_555
C39 C37 1_555 1_555
O25 C41 1_555 1_555
C40 C39 1_555 1_555
H19 C40 1_555 1_555
C41 C40 1_555 1_555
O26 C42 1_555 1_555
O27 C42 1_555 1_555
C42 C43 1_555 1_555
C43 C37 1_555 1_555
C44 C41 1_555 1_555
H20 C44 1_555 1_555
Rh6 O8 1_555 1_555
Rh7 O27 1_555 1_555
Rh10 O7 1_555 1_555
Rh11 O26 1_555 1_555
O28 Rh2 1_555 1_555
O30 Rh2 1_555 1_555
O32 Rh1 1_555 1_555
O34 Rh1 1_555 1_555
C5 C6 1_555 1_555
C11 C12 1_555 1_555
C13 C14 1_555 1_555
O24 C38 1_555 1_555
C38 C39 1_555 1_555
C43 C44 1_555 1_555
O6 H25 1_555 1_555
O25 H30 1_555 1_555
O4_3 Cu1_3 1_555 1_555
O36 Cu1_3 1_555 1_555
O4_4 Cu1_4 1_555 1_555
Rh3 O11 1_555 1_555
Rh4 O10 1_555 1_555
O10 C18 1_555 1_555
O11 C18 1_555 1_555
O12 C16 1_555 1_555
N2 Rh4 1_555 1_555
O13 Rh3 1_555 1_555
C15 C16 1_555 1_555
C16 O17 1_555 1_555
C17 H8 1_555 1_555
C18 C21 1_555 1_555
C19 N2 1_555 1_555
H9 C19 1_555 1_555
C20 C15 1_555 1_555
H10 C20 1_555 1_555
C21 C17 1_555 1_555
O14 C23 1_555 1_555
C22 C21 1_555 1_555
H11 C22 1_555 1_555
C23 C22 1_555 1_555
O15 C24 1_555 1_555
O16 C24 1_555 1_555
C24 C25 1_555 1_555
C25 C17 1_555 1_555
C26 C23 1_555 1_555
H12 C26 1_555 1_555
O17 Cu1_4 1_555 1_555
C27 N2 1_555 1_555
H13 C27 1_555 1_555
C28 C15 1_555 1_555
H14 C28 1_555 1_555
O18 Rh4 1_555 1_555
O19 Rh3 1_555 1_555
C29 H15 1_555 1_555
C30 O18 1_555 1_555
C31 C29 1_555 1_555
O20 C33 1_555 1_555
C32 C31 1_555 1_555
H16 C32 1_555 1_555
C33 C32 1_555 1_555
O21 C34 1_555 1_555
O22 C34 1_555 1_555
C34 C35 1_555 1_555
C35 C29 1_555 1_555
C36 C33 1_555 1_555
H17 C36 1_555 1_555
Rh5 O16 1_555 1_555
Rh8 O22 1_555 1_555
Rh9 O15 1_555 1_555
Rh12 O21 1_555 1_555
Cu2_4 O12 1_555 1_555
O29 Rh4 1_555 1_555
O31 Rh4 1_555 1_555
O33 Rh3 1_555 1_555
O35 Rh3 1_555 1_555
C19 C20 1_555 1_555
C25 C26 1_555 1_555
C27 C28 1_555 1_555
O19 C30 1_555 1_555
C30 C31 1_555 1_555
C35 C36 1_555 1_555
O14 H28 1_555 1_555
O20 H29 1_555 1_555
O4_5 Cu2 1_555 1_555
O36_2 Cu2 1_555 1_555
O4_6 Cu2_2 1_555 1_555
O4_7 Cu2_3 1_555 1_555
O37_2 Cu2_3 1_555 1_555
O4_8 Cu2_4 1_555 1_555
Rh3_2 O11_2 1_555 1_555
Rh4_2 O10_2 1_555 1_555
O10_2 C18_2 1_555 1_555
O11_2 C18_2 1_555 1_555
O36_2 C16_2 1_555 1_555
N2_2 Rh4_2 1_555 1_555
O13_2 Rh3_2 1_555 1_555
C15_2 C16_2 1_555 1_555
C16_2 O37 1_555 1_555
C17_2 H8_2 1_555 1_555
C18_2 C21_2 1_555 1_555
C19_2 N2_2 1_555 1_555
H9_2 C19_2 1_555 1_555
C20_2 C15_2 1_555 1_555
H10_2 C20_2 1_555 1_555
C21_2 C17_2 1_555 1_555
O14_2 C23_2 1_555 1_555
C22_2 C21_2 1_555 1_555
H11_2 C22_2 1_555 1_555
C23_2 C22_2 1_555 1_555
O15_2 C24_2 1_555 1_555
O16_2 C24_2 1_555 1_555
C24_2 C25_2 1_555 1_555
C25_2 C17_2 1_555 1_555
C26_2 C23_2 1_555 1_555
H12_2 C26_2 1_555 1_555
C27_2 N2_2 1_555 1_555
H13_2 C27_2 1_555 1_555
C28_2 C15_2 1_555 1_555
H14_2 C28_2 1_555 1_555
O18_2 Rh4_2 1_555 1_555
O19_2 Rh3_2 1_555 1_555
C29_2 H15_2 1_555 1_555
C30_2 O18_2 1_555 1_555
C31_2 C29_2 1_555 1_555
O20_2 C33_2 1_555 1_555
C32_2 C31_2 1_555 1_555
H16_2 C32_2 1_555 1_555
C33_2 C32_2 1_555 1_555
O21_2 C34_2 1_555 1_555
O22_2 C34_2 1_555 1_555
C34_2 C35_2 1_555 1_555
C35_2 C29_2 1_555 1_555
C36_2 C33_2 1_555 1_555
H17_2 C36_2 1_555 1_555
Rh5_2 O16_2 1_555 1_555
Rh8_2 O22_2 1_555 1_555
Rh9_2 O15_2 1_555 1_555
Rh12_2 O21_2 1_555 1_555
O29_2 Rh4_2 1_555 1_555
O31_2 Rh4_2 1_555 1_555
O33_2 Rh3_2 1_555 1_555
O35_2 Rh3_2 1_555 1_555
C19_2 C20_2 1_555 1_555
C25_2 C26_2 1_555 1_555
C27_2 C28_2 1_555 1_555
O19_2 C30_2 1_555 1_555
C30_2 C31_2 1_555 1_555
C35_2 C36_2 1_555 1_555
O14_2 H28_2 1_555 1_555
O20_2 H29_2 1_555 1_555
Rh1_2 O2_2 1_555 1_555
Rh2_2 O1_2 1_555 1_555
O1_2 C4_2 1_555 1_555
O2_2 C4_2 1_555 1_555
O36 C2_2 1_555 1_555
N1_2 Rh2_2 1_555 1_555
O5_2 Rh1_2 1_555 1_555
C1_2 C2_2 1_555 1_555
C2_2 O37_2 1_555 1_555
C3_2 H1_2 1_555 1_555
C4_2 C7_2 1_555 1_555
C5_2 N1_2 1_555 1_555
H2_2 C5_2 1_555 1_555
C6_2 C1_2 1_555 1_555
H3_2 C6_2 1_555 1_555
C7_2 C3_2 1_555 1_555
O6_2 C9_2 1_555 1_555
C8_2 C7_2 1_555 1_555
H4_2 C8_2 1_555 1_555
C9_2 C8_2 1_555 1_555
O7_2 C10_2 1_555 1_555
O8_2 C10_2 1_555 1_555
C10_2 C11_2 1_555 1_555
C11_2 C3_2 1_555 1_555
C12_2 C9_2 1_555 1_555
H5_2 C12_2 1_555 1_555
C13_2 N1_2 1_555 1_555
H6_2 C13_2 1_555 1_555
C14_2 C1_2 1_555 1_555
H7_2 C14_2 1_555 1_555
O23_2 Rh2_2 1_555 1_555
O24_2 Rh1_2 1_555 1_555
C37_2 H18_2 1_555 1_555
C38_2 O23_2 1_555 1_555
C39_2 C37_2 1_555 1_555
O25_2 C41_2 1_555 1_555
C40_2 C39_2 1_555 1_555
H19_2 C40_2 1_555 1_555
C41_2 C40_2 1_555 1_555
O26_2 C42_2 1_555 1_555
O27_2 C42_2 1_555 1_555
C42_2 C43_2 1_555 1_555
C43_2 C37_2 1_555 1_555
C44_2 C41_2 1_555 1_555
H20_2 C44_2 1_555 1_555
Rh6_2 O8_2 1_555 1_555
Rh7_2 O27_2 1_555 1_555
Rh10_2 O7_2 1_555 1_555
Rh11_2 O26_2 1_555 1_555
O28_2 Rh2_2 1_555 1_555
O30_2 Rh2_2 1_555 1_555
O32_2 Rh1_2 1_555 1_555
O34_2 Rh1_2 1_555 1_555
C5_2 C6_2 1_555 1_555
C11_2 C12_2 1_555 1_555
C13_2 C14_2 1_555 1_555
O24_2 C38_2 1_555 1_555
C38_2 C39_2 1_555 1_555
C43_2 C44_2 1_555 1_555
O6_2 H25_2 1_555 1_555
O25_2 H30_2 1_555 1_555
O4_9 Cu1_5 1_555 1_555
O37_3 Cu1_5 1_555 1_555
O4_10 Cu1_6 1_555 1_555
O36_3 Cu1_6 1_555 1_555
Rh6_2 O2_3 1_555 1_555
Rh10_2 O1_3 1_555 1_555
Cu1_7 O3_2 1_555 1_555
O1_3 C4_3 1_555 1_555
O2_3 C4_3 1_555 1_555
O3_2 C2_3 1_555 1_555
O4_11 Cu1_7 1_555 1_555
N1_3 Rh10_2 1_555 1_555
O5_3 Rh6_2 1_555 1_555
C1_3 C2_3 1_555 1_555
C2_3 O9_2 1_555 1_555
C3_3 H1_3 1_555 1_555
C4_3 C7_3 1_555 1_555
C5_3 N1_3 1_555 1_555
H2_3 C5_3 1_555 1_555
C6_3 C1_3 1_555 1_555
H3_3 C6_3 1_555 1_555
C7_3 C3_3 1_555 1_555
O6_3 C9_3 1_555 1_555
C8_3 C7_3 1_555 1_555
H4_3 C8_3 1_555 1_555
C9_3 C8_3 1_555 1_555
O7_3 C10_3 1_555 1_555
O8_3 C10_3 1_555 1_555
C10_3 C11_3 1_555 1_555
C11_3 C3_3 1_555 1_555
C12_3 C9_3 1_555 1_555
H5_3 C12_3 1_555 1_555
O9_2 Cu2_7 1_555 1_555
C13_3 N1_3 1_555 1_555
H6_3 C13_3 1_555 1_555
C14_3 C1_3 1_555 1_555
H7_3 C14_3 1_555 1_555
O23_3 Rh10_2 1_555 1_555
O24_3 Rh6_2 1_555 1_555
C37_3 H18_3 1_555 1_555
C38_3 O23_3 1_555 1_555
C39_3 C37_3 1_555 1_555
O25_3 C41_3 1_555 1_555
C40_3 C39_3 1_555 1_555
H19_3 C40_3 1_555 1_555
C41_3 C40_3 1_555 1_555
O29 C42_3 1_555 1_555
O33 C42_3 1_555 1_555
C42_3 C43_3 1_555 1_555
C43_3 C37_3 1_555 1_555
C44_3 C41_3 1_555 1_555
H20_3 C44_3 1_555 1_555
Rh8_2 O8_3 1_555 1_555
Rh12_2 O7_3 1_555 1_555
O28_3 Rh10_2 1_555 1_555
O32_3 Rh6_2 1_555 1_555
C5_3 C6_3 1_555 1_555
C11_3 C12_3 1_555 1_555
C13_3 C14_3 1_555 1_555
O24_3 C38_3 1_555 1_555
C38_3 C39_3 1_555 1_555
C43_3 C44_3 1_555 1_555
O6_3 H25_3 1_555 1_555
O25_3 H30_3 1_555 1_555
O4_12 Cu1_8 1_555 1_555
Rh5 O11_3 1_555 1_555
Rh9 O10_3 1_555 1_555
O10_3 C18_3 1_555 1_555
O11_3 C18_3 1_555 1_555
O12_2 C16_3 1_555 1_555
N2_3 Rh9 1_555 1_555
O13_3 Rh5 1_555 1_555
C15_3 C16_3 1_555 1_555
C16_3 O17_2 1_555 1_555
C17_3 H8_3 1_555 1_555
C18_3 C21_3 1_555 1_555
C19_3 N2_3 1_555 1_555
H9_3 C19_3 1_555 1_555
C20_3 C15_3 1_555 1_555
H10_3 C20_3 1_555 1_555
C21_3 C17_3 1_555 1_555
O14_3 C23_3 1_555 1_555
C22_3 C21_3 1_555 1_555
H11_3 C22_3 1_555 1_555
C23_3 C22_3 1_555 1_555
O15_3 C24_3 1_555 1_555
O16_3 C24_3 1_555 1_555
C24_3 C25_3 1_555 1_555
C25_3 C17_3 1_555 1_555
C26_3 C23_3 1_555 1_555
H12_3 C26_3 1_555 1_555
O17_2 Cu1_8 1_555 1_555
C27_3 N2_3 1_555 1_555
H13_3 C27_3 1_555 1_555
C28_3 C15_3 1_555 1_555
H14_3 C28_3 1_555 1_555
O18_3 Rh9 1_555 1_555
O19_3 Rh5 1_555 1_555
C29_3 H15_3 1_555 1_555
C30_3 O18_3 1_555 1_555
C31_3 C29_3 1_555 1_555
O20_3 C33_3 1_555 1_555
C32_3 C31_3 1_555 1_555
H16_3 C32_3 1_555 1_555
C33_3 C32_3 1_555 1_555
O28_2 C34_3 1_555 1_555
O32_2 C34_3 1_555 1_555
C34_3 C35_3 1_555 1_555
C35_3 C29_3 1_555 1_555
C36_3 C33_3 1_555 1_555
H17_3 C36_3 1_555 1_555
Rh7 O16_3 1_555 1_555
Rh11 O15_3 1_555 1_555
Cu2_8 O12_2 1_555 1_555
O29_3 Rh9 1_555 1_555
O33_3 Rh5 1_555 1_555
C19_3 C20_3 1_555 1_555
C25_3 C26_3 1_555 1_555
C27_3 C28_3 1_555 1_555
O19_3 C30_3 1_555 1_555
C30_3 C31_3 1_555 1_555
C35_3 C36_3 1_555 1_555
O14_3 H28_3 1_555 1_555
O20_3 H29_3 1_555 1_555
O4_13 Cu2_5 1_555 1_555
O36_4 Cu2_5 1_555 1_555
O4_14 Cu2_6 1_555 1_555
O37_4 Cu2_6 1_555 1_555
O4_15 Cu2_7 1_555 1_555
O4_16 Cu2_8 1_555 1_555
Rh6 O11_4 1_555 1_555
Rh10 O10_4 1_555 1_555
O10_4 C18_4 1_555 1_555
O11_4 C18_4 1_555 1_555
O36_4 C16_4 1_555 1_555
N2_4 Rh10 1_555 1_555
O13_4 Rh6 1_555 1_555
C15_4 C16_4 1_555 1_555
C16_4 O37_3 1_555 1_555
C17_4 H8_4 1_555 1_555
C18_4 C21_4 1_555 1_555
C19_4 N2_4 1_555 1_555
H9_4 C19_4 1_555 1_555
C20_4 C15_4 1_555 1_555
H10_4 C20_4 1_555 1_555
C21_4 C17_4 1_555 1_555
O14_4 C23_4 1_555 1_555
C22_4 C21_4 1_555 1_555
H11_4 C22_4 1_555 1_555
C23_4 C22_4 1_555 1_555
O15_4 C24_4 1_555 1_555
O16_4 C24_4 1_555 1_555
C24_4 C25_4 1_555 1_555
C25_4 C17_4 1_555 1_555
C26_4 C23_4 1_555 1_555
H12_4 C26_4 1_555 1_555
C27_4 N2_4 1_555 1_555
H13_4 C27_4 1_555 1_555
C28_4 C15_4 1_555 1_555
H14_4 C28_4 1_555 1_555
O18_4 Rh10 1_555 1_555
O19_4 Rh6 1_555 1_555
C29_4 H15_4 1_555 1_555
C30_4 O18_4 1_555 1_555
C31_4 C29_4 1_555 1_555
O20_4 C33_4 1_555 1_555
C32_4 C31_4 1_555 1_555
H16_4 C32_4 1_555 1_555
C33_4 C32_4 1_555 1_555
O29_2 C34_4 1_555 1_555
O33_2 C34_4 1_555 1_555
C34_4 C35_4 1_555 1_555
C35_4 C29_4 1_555 1_555
C36_4 C33_4 1_555 1_555
H17_4 C36_4 1_555 1_555
Rh8 O16_4 1_555 1_555
Rh12 O15_4 1_555 1_555
O29_4 Rh10 1_555 1_555
O33_4 Rh6 1_555 1_555
C19_4 C20_4 1_555 1_555
C25_4 C26_4 1_555 1_555
C27_4 C28_4 1_555 1_555
O19_4 C30_4 1_555 1_555
C30_4 C31_4 1_555 1_555
C35_4 C36_4 1_555 1_555
O14_4 H28_4 1_555 1_555
O20_4 H29_4 1_555 1_555
Rh5_2 O2_4 1_555 1_555
Rh9_2 O1_4 1_555 1_555
O1_4 C4_4 1_555 1_555
O2_4 C4_4 1_555 1_555
O36_3 C2_4 1_555 1_555
N1_4 Rh9_2 1_555 1_555
O5_4 Rh5_2 1_555 1_555
C1_4 C2_4 1_555 1_555
C2_4 O37_4 1_555 1_555
C3_4 H1_4 1_555 1_555
C4_4 C7_4 1_555 1_555
C5_4 N1_4 1_555 1_555
H2_4 C5_4 1_555 1_555
C6_4 C1_4 1_555 1_555
H3_4 C6_4 1_555 1_555
C7_4 C3_4 1_555 1_555
O6_4 C9_4 1_555 1_555
C8_4 C7_4 1_555 1_555
H4_4 C8_4 1_555 1_555
C9_4 C8_4 1_555 1_555
O7_4 C10_4 1_555 1_555
O8_4 C10_4 1_555 1_555
C10_4 C11_4 1_555 1_555
C11_4 C3_4 1_555 1_555
C12_4 C9_4 1_555 1_555
H5_4 C12_4 1_555 1_555
C13_4 N1_4 1_555 1_555
H6_4 C13_4 1_555 1_555
C14_4 C1_4 1_555 1_555
H7_4 C14_4 1_555 1_555
O23_4 Rh9_2 1_555 1_555
O24_4 Rh5_2 1_555 1_555
C37_4 H18_4 1_555 1_555
C38_4 O23_4 1_555 1_555
C39_4 C37_4 1_555 1_555
O25_4 C41_4 1_555 1_555
C40_4 C39_4 1_555 1_555
H19_4 C40_4 1_555 1_555
C41_4 C40_4 1_555 1_555
O28 C42_4 1_555 1_555
O32 C42_4 1_555 1_555
C42_4 C43_4 1_555 1_555
C43_4 C37_4 1_555 1_555
C44_4 C41_4 1_555 1_555
H20_4 C44_4 1_555 1_555
Rh7_2 O8_4 1_555 1_555
Rh11_2 O7_4 1_555 1_555
O28_4 Rh9_2 1_555 1_555
O32_4 Rh5_2 1_555 1_555
C5_4 C6_4 1_555 1_555
C11_4 C12_4 1_555 1_555
C13_4 C14_4 1_555 1_555
O24_4 C38_4 1_555 1_555
C38_4 C39_4 1_555 1_555
C43_4 C44_4 1_555 1_555
O6_4 H25_4 1_555 1_555
O25_4 H30_4 1_555 1_555
O4_17 Cu1_9 1_555 1_555
O37_5 Cu1_9 1_555 1_555
O4_18 Cu1_10 1_555 1_555
O36_5 Cu1_10 1_555 1_555
Rh7_2 O2_5 1_555 1_555
Rh11_2 O1_5 1_555 1_555
Cu1_11 O3_3 1_555 1_555
O1_5 C4_5 1_555 1_555
O2_5 C4_5 1_555 1_555
O3_3 C2_5 1_555 1_555
O4_19 Cu1_11 1_555 1_555
N1_5 Rh11_2 1_555 1_555
O5_5 Rh7_2 1_555 1_555
C1_5 C2_5 1_555 1_555
C2_5 O9_3 1_555 1_555
C3_5 H1_5 1_555 1_555
C4_5 C7_5 1_555 1_555
C5_5 N1_5 1_555 1_555
H2_5 C5_5 1_555 1_555
C6_5 C1_5 1_555 1_555
H3_5 C6_5 1_555 1_555
C7_5 C3_5 1_555 1_555
O6_5 C9_5 1_555 1_555
C8_5 C7_5 1_555 1_555
H4_5 C8_5 1_555 1_555
C9_5 C8_5 1_555 1_555
O31_2 C10_5 1_555 1_555
O35_2 C10_5 1_555 1_555
C10_5 C11_5 1_555 1_555
C11_5 C3_5 1_555 1_555
C12_5 C9_5 1_555 1_555
H5_5 C12_5 1_555 1_555
O9_3 Cu2_11 1_555 1_555
C13_5 N1_5 1_555 1_555
H6_5 C13_5 1_555 1_555
C14_5 C1_5 1_555 1_555
H7_5 C14_5 1_555 1_555
O23_5 Rh11_2 1_555 1_555
O24_5 Rh7_2 1_555 1_555
C37_5 H18_5 1_555 1_555
C38_5 O23_5 1_555 1_555
C39_5 C37_5 1_555 1_555
O25_5 C41_5 1_555 1_555
C40_5 C39_5 1_555 1_555
H19_5 C40_5 1_555 1_555
C41_5 C40_5 1_555 1_555
O29_3 C42_5 1_555 1_555
O33_3 C42_5 1_555 1_555
C42_5 C43_5 1_555 1_555
C43_5 C37_5 1_555 1_555
C44_5 C41_5 1_555 1_555
H20_5 C44_5 1_555 1_555
C5_5 C6_5 1_555 1_555
C11_5 C12_5 1_555 1_555
C13_5 C14_5 1_555 1_555
O24_5 C38_5 1_555 1_555
C38_5 C39_5 1_555 1_555
C43_5 C44_5 1_555 1_555
O6_5 H25_5 1_555 1_555
O25_5 H30_5 1_555 1_555
O4_20 Cu1_12 1_555 1_555
Rh7 O11_5 1_555 1_555
Rh11 O10_5 1_555 1_555
O10_5 C18_5 1_555 1_555
O11_5 C18_5 1_555 1_555
O12_3 C16_5 1_555 1_555
N2_5 Rh11 1_555 1_555
O13_5 Rh7 1_555 1_555
C15_5 C16_5 1_555 1_555
C16_5 O17_3 1_555 1_555
C17_5 H8_5 1_555 1_555
C18_5 C21_5 1_555 1_555
C19_5 N2_5 1_555 1_555
H9_5 C19_5 1_555 1_555
C20_5 C15_5 1_555 1_555
H10_5 C20_5 1_555 1_555
C21_5 C17_5 1_555 1_555
O14_5 C23_5 1_555 1_555
C22_5 C21_5 1_555 1_555
H11_5 C22_5 1_555 1_555
C23_5 C22_5 1_555 1_555
O31 C24_5 1_555 1_555
O35 C24_5 1_555 1_555
C24_5 C25_5 1_555 1_555
C25_5 C17_5 1_555 1_555
C26_5 C23_5 1_555 1_555
H12_5 C26_5 1_555 1_555
O17_3 Cu1_12 1_555 1_555
C27_5 N2_5 1_555 1_555
H13_5 C27_5 1_555 1_555
C28_5 C15_5 1_555 1_555
H14_5 C28_5 1_555 1_555
O18_5 Rh11 1_555 1_555
O19_5 Rh7 1_555 1_555
C29_5 H15_5 1_555 1_555
C30_5 O18_5 1_555 1_555
C31_5 C29_5 1_555 1_555
O20_5 C33_5 1_555 1_555
C32_5 C31_5 1_555 1_555
H16_5 C32_5 1_555 1_555
C33_5 C32_5 1_555 1_555
O28_4 C34_5 1_555 1_555
O32_4 C34_5 1_555 1_555
C34_5 C35_5 1_555 1_555
C35_5 C29_5 1_555 1_555
C36_5 C33_5 1_555 1_555
H17_5 C36_5 1_555 1_555
Cu2_12 O12_3 1_555 1_555
C19_5 C20_5 1_555 1_555
C25_5 C26_5 1_555 1_555
C27_5 C28_5 1_555 1_555
O19_5 C30_5 1_555 1_555
C30_5 C31_5 1_555 1_555
C35_5 C36_5 1_555 1_555
O14_5 H28_5 1_555 1_555
O20_5 H29_5 1_555 1_555
O4_21 Cu2_9 1_555 1_555
O36_6 Cu2_9 1_555 1_555
O4_22 Cu2_10 1_555 1_555
O37_6 Cu2_10 1_555 1_555
O4_23 Cu2_11 1_555 1_555
O4_24 Cu2_12 1_555 1_555
Rh8_2 O11_6 1_555 1_555
Rh12_2 O10_6 1_555 1_555
O10_6 C18_6 1_555 1_555
O11_6 C18_6 1_555 1_555
O36_6 C16_6 1_555 1_555
N2_6 Rh12_2 1_555 1_555
O13_6 Rh8_2 1_555 1_555
C15_6 C16_6 1_555 1_555
C16_6 O37_5 1_555 1_555
C17_6 H8_6 1_555 1_555
C18_6 C21_6 1_555 1_555
C19_6 N2_6 1_555 1_555
H9_6 C19_6 1_555 1_555
C20_6 C15_6 1_555 1_555
H10_6 C20_6 1_555 1_555
C21_6 C17_6 1_555 1_555
O14_6 C23_6 1_555 1_555
C22_6 C21_6 1_555 1_555
H11_6 C22_6 1_555 1_555
C23_6 C22_6 1_555 1_555
O30_2 C24_6 1_555 1_555
O34_2 C24_6 1_555 1_555
C24_6 C25_6 1_555 1_555
C25_6 C17_6 1_555 1_555
C26_6 C23_6 1_555 1_555
H12_6 C26_6 1_555 1_555
C27_6 N2_6 1_555 1_555
H13_6 C27_6 1_555 1_555
C28_6 C15_6 1_555 1_555
H14_6 C28_6 1_555 1_555
O18_6 Rh12_2 1_555 1_555
O19_6 Rh8_2 1_555 1_555
C29_6 H15_6 1_555 1_555
C30_6 O18_6 1_555 1_555
C31_6 C29_6 1_555 1_555
O20_6 C33_6 1_555 1_555
C32_6 C31_6 1_555 1_555
H16_6 C32_6 1_555 1_555
C33_6 C32_6 1_555 1_555
O29_4 C34_6 1_555 1_555
O33_4 C34_6 1_555 1_555
C34_6 C35_6 1_555 1_555
C35_6 C29_6 1_555 1_555
C36_6 C33_6 1_555 1_555
H17_6 C36_6 1_555 1_555
C19_6 C20_6 1_555 1_555
C25_6 C26_6 1_555 1_555
C27_6 C28_6 1_555 1_555
O19_6 C30_6 1_555 1_555
C30_6 C31_6 1_555 1_555
C35_6 C36_6 1_555 1_555
O14_6 H28_6 1_555 1_555
O20_6 H29_6 1_555 1_555
Rh8 O2_6 1_555 1_555
Rh12 O1_6 1_555 1_555
O1_6 C4_6 1_555 1_555
O2_6 C4_6 1_555 1_555
O36_5 C2_6 1_555 1_555
N1_6 Rh12 1_555 1_555
O5_6 Rh8 1_555 1_555
C1_6 C2_6 1_555 1_555
C2_6 O37_6 1_555 1_555
C3_6 H1_6 1_555 1_555
C4_6 C7_6 1_555 1_555
C5_6 N1_6 1_555 1_555
H2_6 C5_6 1_555 1_555
C6_6 C1_6 1_555 1_555
H3_6 C6_6 1_555 1_555
C7_6 C3_6 1_555 1_555
O6_6 C9_6 1_555 1_555
C8_6 C7_6 1_555 1_555
H4_6 C8_6 1_555 1_555
C9_6 C8_6 1_555 1_555
O30 C10_6 1_555 1_555
O34 C10_6 1_555 1_555
C10_6 C11_6 1_555 1_555
C11_6 C3_6 1_555 1_555
C12_6 C9_6 1_555 1_555
H5_6 C12_6 1_555 1_555
C13_6 N1_6 1_555 1_555
H6_6 C13_6 1_555 1_555
C14_6 C1_6 1_555 1_555
H7_6 C14_6 1_555 1_555
O23_6 Rh12 1_555 1_555
O24_6 Rh8 1_555 1_555
C37_6 H18_6 1_555 1_555
C38_6 O23_6 1_555 1_555
C39_6 C37_6 1_555 1_555
O25_6 C41_6 1_555 1_555
C40_6 C39_6 1_555 1_555
H19_6 C40_6 1_555 1_555
C41_6 C40_6 1_555 1_555
O28_3 C42_6 1_555 1_555
O32_3 C42_6 1_555 1_555
C42_6 C43_6 1_555 1_555
C43_6 C37_6 1_555 1_555
C44_6 C41_6 1_555 1_555
H20_6 C44_6 1_555 1_555
C5_6 C6_6 1_555 1_555
C11_6 C12_6 1_555 1_555
C13_6 C14_6 1_555 1_555
O24_6 C38_6 1_555 1_555
C38_6 C39_6 1_555 1_555
C43_6 C44_6 1_555 1_555
O6_6 H25_6 1_555 1_555
O25_6 H30_6 1_555 1_555
O20_4 H28_7 1_555 1_555
O6_5 H29_7 1_555 1_555
O20_3 H25_7 1_555 1_555
O14_6 H30_7 1_555 1_555
O25_4 H25_8 1_555 1_555
O6_6 H30_8 1_555 1_555
O25_3 H28_8 1_555 1_555
O14_5 H29_8 1_555 1_555
O20_6 H28_9 1_555 1_555
O6 H29_9 1_555 1_555
O20_5 H25_9 1_555 1_555
O14_2 H30_9 1_555 1_555
O25_6 H25_10 1_555 1_555
O6_2 H30_10 1_555 1_555
O25_5 H28_10 1_555 1_555
O14 H29_10 1_555 1_555
O20_2 H28_11 1_555 1_555
O6_3 H29_11 1_555 1_555
O20 H25_11 1_555 1_555
O14_4 H30_11 1_555 1_555
O25_2 H25_12 1_555 1_555
O6_4 H30_12 1_555 1_555
O25 H28_12 1_555 1_555
O14_3 H29_12 1_555 1_555

#END
