
###############################################################################
#
# This file contains modified crystal structure data generated from the
# MOF subset of the Cambridge Structural Database (CSD) v543 
# hosted by the Cambridge Crystallographic Data Centre (CCDC).
#
# This work is licensed under the Creative Commons
# Attribution-NonCommercial-ShareAlike 4.0 International License.
# To view a copy of this license, visit
# http://creativecommons.org/licenses/by-nc-sa/4.0/
# or send a letter to
# Creative Commons, PO Box 1866, Mountain View, CA 94042, USA.
#
# CIF created using the CSD Python API on 29 September 2022
# The structure has been converted into the P1 space group
# The structure has a 3D framework
# The original CSD entry EMITUQ is in the monoclinic crystal system
# The framework has been calculated to contain at least 10.0% void space
# The void calculation uses a probe of radius 1.32A, grid spacing 0.4
#
###############################################################################

data_EMITUQ
_chemical_formula_moiety         '(C152 H80 N8 O48 S8 Zn8)n'
_symmetry_cell_setting           triclinic
_symmetry_space_group_name_H-M   'P 1'
_symmetry_Int_Tables_number      1
_space_group_name_Hall           'P 1'
loop_
_symmetry_equiv_pos_site_id
_symmetry_equiv_pos_as_xyz
1 x,y,z
_cell_length_a                   13.9610(7)
_cell_length_b                   22.649(2)
_cell_length_c                   19.601(3)
_cell_angle_alpha                90
_cell_angle_beta                 101.374(9)
_cell_angle_gamma                90
_cell_volume                     6076.17
loop_
_atom_site_label
_atom_site_type_symbol
_atom_site_fract_x
_atom_site_fract_y
_atom_site_fract_z
Zn1 Zn 0.33675(6) 0.00971(5) 0.66495(5)
S1 S 0.35659(16) 0.23120(10) 0.40362(14)
O3 O 0.2882(3) 0.0562(2) 0.5768(3)
O5 O 0.1242(3) 0.0469(2) 0.5586(2)
O7 O 0.3230(3) 0.4175(2) 0.2206(3)
C1 C 0.2003(6) 0.0691(3) 0.5450(4)
C3 C 0.1714(6) 0.2072(3) 0.3916(4)
C4 C 0.2634(5) 0.1870(3) 0.4282(4)
C5 C 0.1755(5) 0.2558(3) 0.3476(4)
O8 O 0.1613(4) 0.4374(2) 0.2006(3)
C10 C 0.2730(6) 0.2747(3) 0.3477(4)
C11 C 0.2934(6) 0.3237(4) 0.3068(4)
H2 H 0.3575 0.3351 0.3071
C12 C 0.2168(5) 0.3534(3) 0.2672(4)
C13 C 0.0877(5) 0.1797(3) 0.4073(4)
H3 H 0.0255 0.1922 0.3860
C19 C 0.1000(5) 0.1319(3) 0.4567(4)
H6 H 0.0452 0.1125 0.4659
C23 C 0.1922(5) 0.1144(3) 0.4907(4)
C26 C 0.1193(5) 0.3339(4) 0.2649(4)
H9 H 0.0682 0.3539 0.2366
C30 C 0.0985(6) 0.2872(4) 0.3027(5)
H13 H 0.0339 0.2754 0.2996
C33 C 0.2359(6) 0.4057(3) 0.2261(4)
C34 C 0.2740(5) 0.1422(3) 0.4758(4)
H16 H 0.3361 0.1303 0.4981
O10 O 0.4156(4) 0.1975(2) 0.3672(3)
O11 O 0.4021(4) 0.2660(2) 0.4637(3)
Zn5 Zn 0.33675(6) 0.49029(5) 0.16495(5)
Zn7 Zn 0.12227(6) 0.50913(5) 0.13691(5)
O15 O 0.3230(3) 0.0825(2) 0.7206(3)
O16 O 0.1613(4) 0.0626(2) 0.7006(3)
N3 N 0.4820(4) 0.0073(3) 0.6619(3)
Zn2 Zn 0.12227(6) 0.99087(5) 0.63691(5)
S2 S 0.10620(19) 0.73719(14) 0.39363(17)
O1 O 0.3297(3) 0.5407(2) 0.2489(3)
O2 O 0.1419(3) 0.9221(2) 0.5744(3)
O4 O 0.1689(4) 0.5607(2) 0.2192(3)
O6 O 0.3058(3) 0.9342(2) 0.6074(3)
C7 C 0.2651(6) 0.6153(3) 0.3135(4)
C9 C 0.2886(6) 0.7070(4) 0.4091(5)
O9 O 0.0421(5) 0.7020(3) 0.4314(4)
C14 C 0.2531(6) 0.5692(3) 0.2578(5)
C15 C 0.1970(6) 0.6898(4) 0.3721(5)
C17 C 0.1909(5) 0.7782(4) 0.4532(5)
C20 C 0.2327(5) 0.9069(3) 0.5758(4)
C21 C 0.3576(6) 0.6291(4) 0.3526(4)
H7 H 0.4117 0.6072 0.3467
C22 C 0.3686(6) 0.6742(4) 0.3990(4)
H8 H 0.4304 0.6832 0.4243
C24 C 0.2491(5) 0.8552(3) 0.5322(4)
C25 C 0.2880(6) 0.7581(4) 0.4565(5)
C27 C 0.3431(5) 0.8350(4) 0.5349(4)
H10 H 0.3949 0.8550 0.5624
C28 C 0.1723(5) 0.8252(3) 0.4934(4)
H11 H 0.1084 0.8363 0.4940
C31 C 0.1853(6) 0.6474(4) 0.3232(4)
H14 H 0.1239 0.6399 0.2963
C32 C 0.3622(6) 0.7864(4) 0.4979(4)
H15 H 0.4261 0.7731 0.5014
O12 O 0.0640(5) 0.7732(3) 0.3336(4)
O13 O 0.3297(3) 0.9593(2) 0.7489(3)
O14 O 0.1689(4) 0.9393(2) 0.7192(3)
C35 C 0.9143(5) 0.0235(3) 0.5942(4)
H17 H 0.9374 0.0443 0.5598
C36 C 0.6278(6) 0.0498(4) 0.6351(5)
H18 H 0.6587 0.0827 0.6211
C37 C 0.5293(7) 0.0524(4) 0.6401(5)
H19 H 0.4952 0.0873 0.6275
C38 C 0.8157(5) 0.0273(3) 0.5961(4)
H20 H 0.7737 0.0506 0.5645
O2_2 O 0.1419(3) 0.5779(2) 0.0744(3)
O3_2 O 0.2882(3) 0.4438(2) 0.0768(3)
O5_2 O 0.1242(3) 0.4531(2) 0.0586(2)
O6_2 O 0.3058(3) 0.5658(2) 0.1074(3)
C1_2 C 0.2003(6) 0.4309(3) 0.0450(4)
C20_2 C 0.2327(5) 0.5931(3) 0.0758(4)
C24_2 C 0.2491(5) 0.6448(3) 0.0322(4)
C27_2 C 0.3431(5) 0.6650(4) 0.0349(4)
H10_2 H 0.3949 0.6450 0.0624
H15_2 H 0.4261 0.7269 0.0014
N3_2 N 0.4820(4) 0.4927(3) 0.1619(3)
S1_2 S 0.35659(16) 0.26880(10) 0.90362(14)
S2_2 S 0.10620(19) 0.76281(14) 0.89363(17)
C3_2 C 0.1714(6) 0.2928(3) 0.8916(4)
C4_2 C 0.2634(5) 0.3130(3) 0.9282(4)
C5_2 C 0.1755(5) 0.2442(3) 0.8476(4)
C7_2 C 0.2651(6) 0.8847(3) 0.8135(4)
C9_2 C 0.2886(6) 0.7930(4) 0.9091(5)
C10_2 C 0.2730(6) 0.2253(3) 0.8477(4)
C11_2 C 0.2934(6) 0.1763(4) 0.8068(4)
H2_2 H 0.3575 0.1649 0.8071
O9_2 O 0.0421(5) 0.7980(3) 0.9314(4)
C12_2 C 0.2168(5) 0.1466(3) 0.7672(4)
C13_2 C 0.0877(5) 0.3203(3) 0.9073(4)
H3_2 H 0.0255 0.3078 0.8860
C14_2 C 0.2531(6) 0.9308(3) 0.7578(5)
C15_2 C 0.1970(6) 0.8102(4) 0.8721(5)
C17_2 C 0.1909(5) 0.7218(4) 0.9532(5)
C19_2 C 0.1000(5) 0.3681(3) 0.9567(4)
H6_2 H 0.0452 0.3875 0.9659
C21_2 C 0.3576(6) 0.8709(4) 0.8526(4)
H7_2 H 0.4117 0.8928 0.8467
C22_2 C 0.3686(6) 0.8258(4) 0.8990(4)
H8_2 H 0.4304 0.8168 0.9243
C23_2 C 0.1922(5) 0.3856(3) 0.9907(4)
C25_2 C 0.2880(6) 0.7419(4) 0.9565(5)
C26_2 C 0.1193(5) 0.1661(4) 0.7649(4)
H9_2 H 0.0682 0.1461 0.7366
C28_2 C 0.1723(5) 0.6748(3) 0.9934(4)
H11_2 H 0.1084 0.6637 0.9940
C30_2 C 0.0985(6) 0.2128(4) 0.8027(5)
H13_2 H 0.0339 0.2246 0.7996
C31_2 C 0.1853(6) 0.8526(4) 0.8232(4)
H14_2 H 0.1239 0.8601 0.7963
C32_2 C 0.3622(6) 0.7136(4) 0.9979(4)
C33_2 C 0.2359(6) 0.0943(3) 0.7261(4)
C34_2 C 0.2740(5) 0.3578(3) 0.9758(4)
H16_2 H 0.3361 0.3697 0.9981
O10_2 O 0.4156(4) 0.3025(2) 0.8672(3)
O11_2 O 0.4021(4) 0.2340(2) 0.9637(3)
O12_2 O 0.0640(5) 0.7268(3) 0.8336(4)
N1 N 0.9777(4) 0.5083(3) 0.1393(3)
C2 C 0.6786(5) 0.5023(4) 0.1512(4)
C6 C 0.7829(4) 0.5039(3) 0.1449(4)
C8 C 0.9440(5) 0.5406(3) 0.1867(4)
H1 H 0.9869 0.5651 0.2163
C16 C 0.5347(6) 0.5410(4) 0.1791(4)
H4 H 0.5043 0.5737 0.1943
C18 C 0.8457(5) 0.5385(3) 0.1928(4)
H5 H 0.8233 0.5593 0.2274
C29 C 0.6337(5) 0.5456(4) 0.1755(5)
H12 H 0.6678 0.5800 0.1907
C35_2 C 0.9143(5) 0.4765(3) 0.0942(4)
H17_2 H 0.9374 0.4557 0.0598
C36_2 C 0.6278(6) 0.4502(4) 0.1351(5)
H18_2 H 0.6587 0.4173 0.1211
C37_2 C 0.5293(7) 0.4476(4) 0.1401(5)
H19_2 H 0.4952 0.4127 0.1275
C38_2 C 0.8157(5) 0.4727(3) 0.0961(4)
H20_2 H 0.7737 0.4494 0.0645
N1_2 N 0.9777(4) 0.9917(3) 0.6393(3)
C2_2 C 0.6786(5) 0.9977(4) 0.6512(4)
C6_2 C 0.7829(4) 0.9961(3) 0.6449(4)
C8_2 C 0.9440(5) 0.9594(3) 0.6867(4)
H1_2 H 0.9869 0.9349 0.7163
C16_2 C 0.5347(6) 0.9590(4) 0.6791(4)
H4_2 H 0.5043 0.9263 0.6943
C18_2 C 0.8457(5) 0.9615(3) 0.6928(4)
H5_2 H 0.8233 0.9407 0.7274
C29_2 C 0.6337(5) 0.9544(4) 0.6755(5)
H12_2 H 0.6678 0.9200 0.6907
N1_3 N 0.0223(4) 0.4917(3) 0.8607(3)
C2_3 C 0.3214(5) 0.4977(4) 0.8488(4)
C6_3 C 0.2171(4) 0.4961(3) 0.8551(4)
C8_3 C 0.0560(5) 0.4594(3) 0.8133(4)
H1_3 H 0.0131 0.4349 0.7837
C16_3 C 0.4653(6) 0.4590(4) 0.8209(4)
H4_3 H 0.4957 0.4263 0.8057
C18_3 C 0.1543(5) 0.4615(3) 0.8072(4)
H5_3 H 0.1767 0.4407 0.7726
C29_3 C 0.3663(5) 0.4544(4) 0.8245(5)
H12_3 H 0.3322 0.4200 0.8093
N2 N 0.5180(4) 0.5073(3) 0.8381(3)
C35_3 C 0.0857(5) 0.5235(3) 0.9058(4)
H17_3 H 0.0626 0.5443 0.9402
C36_3 C 0.3722(6) 0.5498(4) 0.8649(5)
H18_3 H 0.3413 0.5827 0.8789
C37_3 C 0.4707(7) 0.5524(4) 0.8599(5)
H19_3 H 0.5048 0.5873 0.8725
C38_3 C 0.1843(5) 0.5273(3) 0.9039(4)
H20_3 H 0.2263 0.5506 0.9355
Zn3 Zn 0.66325(6) 0.50971(5) 0.83505(5)
Zn7_2 Zn 0.87773(6) 0.00913(5) 0.36309(5)
S1_3 S 0.64341(16) 0.73120(10) 0.09638(14)
S2_3 S 0.89380(19) 0.23719(14) 0.10637(17)
O1_2 O 0.6703(3) 0.0407(2) 0.2511(3)
O4_2 O 0.8311(4) 0.0607(2) 0.2808(3)
O7_2 O 0.6770(3) 0.9175(2) 0.2794(3)
C3_3 C 0.8286(6) 0.7072(3) 0.1084(4)
C4_3 C 0.7366(5) 0.6870(3) 0.0718(4)
C5_3 C 0.8245(5) 0.7558(3) 0.1524(4)
C7_3 C 0.7349(6) 0.1153(3) 0.1865(4)
O8_2 O 0.8387(4) 0.9374(2) 0.2994(3)
C9_3 C 0.7114(6) 0.2070(4) 0.0909(5)
C10_3 C 0.7270(6) 0.7747(3) 0.1523(4)
C11_3 C 0.7066(6) 0.8237(4) 0.1932(4)
H2_3 H 0.6425 0.8351 0.1929
O9_3 O 0.9579(5) 0.2020(3) 0.0686(4)
C12_3 C 0.7832(5) 0.8534(3) 0.2328(4)
C13_3 C 0.9123(5) 0.6797(3) 0.0927(4)
H3_3 H 0.9745 0.6922 0.1140
C14_3 C 0.7469(6) 0.0692(3) 0.2422(5)
C15_3 C 0.8030(6) 0.1898(4) 0.1279(5)
C17_3 C 0.8091(5) 0.2782(4) 0.0468(5)
C19_3 C 0.9000(5) 0.6319(3) 0.0433(4)
H6_3 H 0.9548 0.6125 0.0341
C21_3 C 0.6424(6) 0.1291(4) 0.1474(4)
H7_3 H 0.5883 0.1072 0.1533
C22_3 C 0.6314(6) 0.1742(4) 0.1010(4)
H8_3 H 0.5696 0.1832 0.0757
C23_3 C 0.8078(5) 0.6144(3) 0.0093(4)
C25_3 C 0.7120(6) 0.2581(4) 0.0435(5)
C26_3 C 0.8807(5) 0.8339(4) 0.2351(4)
H9_3 H 0.9318 0.8539 0.2634
C28_3 C 0.8277(5) 0.3252(3) 0.0066(4)
H11_3 H 0.8916 0.3363 0.0060
C30_3 C 0.9015(6) 0.7872(4) 0.1973(5)
H13_3 H 0.9661 0.7754 0.2004
C31_3 C 0.8147(6) 0.1474(4) 0.1768(4)
H14_3 H 0.8761 0.1399 0.2037
C32_3 C 0.6378(6) 0.2864(4) 0.0021(4)
C33_3 C 0.7641(6) 0.9057(3) 0.2739(4)
C34_3 C 0.7260(5) 0.6422(3) 0.0242(4)
H16_3 H 0.6639 0.6303 0.0019
O10_3 O 0.5844(4) 0.6975(2) 0.1328(3)
O11_3 O 0.5979(4) 0.7660(2) 0.0363(3)
O12_3 O 0.9360(5) 0.2732(3) 0.1664(4)
Zn5_2 Zn 0.66325(6) 0.99029(5) 0.33505(5)
Zn2_2 Zn 0.87773(6) 0.49087(5) 0.86309(5)
O2_3 O 0.8581(3) 0.4221(2) 0.9256(3)
O3_3 O 0.7118(3) 0.5562(2) 0.9232(3)
O5_3 O 0.8758(3) 0.5469(2) 0.9414(2)
O6_3 O 0.6942(3) 0.4342(2) 0.8926(3)
C1_3 C 0.7997(6) 0.5691(3) 0.9550(4)
C20_3 C 0.7673(5) 0.4069(3) 0.9242(4)
C24_3 C 0.7509(5) 0.3552(3) 0.9678(4)
C27_3 C 0.6569(5) 0.3350(4) 0.9651(4)
H10_3 H 0.6051 0.3550 0.9376
H15_3 H 0.5739 0.2731 0.9986
O13_2 O 0.6703(3) 0.4593(2) 0.7511(3)
O14_2 O 0.8311(4) 0.4393(2) 0.7808(3)
O15_2 O 0.6770(3) 0.5825(2) 0.7794(3)
O16_2 O 0.8387(4) 0.5626(2) 0.7994(3)
N2_2 N 0.5180(4) 0.9927(3) 0.3381(3)
C35_4 C 0.0857(5) 0.9765(3) 0.4058(4)
H17_4 H 0.0626 0.9557 0.4402
C36_4 C 0.3722(6) 0.9502(4) 0.3649(5)
H18_4 H 0.3413 0.9173 0.3789
C37_4 C 0.4707(7) 0.9476(4) 0.3599(5)
H19_4 H 0.5048 0.9127 0.3725
C38_4 C 0.1843(5) 0.9727(3) 0.4039(4)
H20_4 H 0.2263 0.9494 0.4355
S2_4 S 0.89380(19) 0.26281(14) 0.60637(17)
O2_4 O 0.8581(3) 0.0779(2) 0.4256(3)
O6_4 O 0.6942(3) 0.0658(2) 0.3926(3)
C7_4 C 0.7349(6) 0.3847(3) 0.6865(4)
C9_4 C 0.7114(6) 0.2930(4) 0.5909(5)
O9_4 O 0.9579(5) 0.2980(3) 0.5686(4)
C14_4 C 0.7469(6) 0.4308(3) 0.7422(5)
C15_4 C 0.8030(6) 0.3102(4) 0.6279(5)
C17_4 C 0.8091(5) 0.2218(4) 0.5468(5)
C20_4 C 0.7673(5) 0.0931(3) 0.4242(4)
C21_4 C 0.6424(6) 0.3709(4) 0.6474(4)
H7_4 H 0.5883 0.3928 0.6533
C22_4 C 0.6314(6) 0.3258(4) 0.6010(4)
H8_4 H 0.5696 0.3168 0.5757
C24_4 C 0.7509(5) 0.1448(3) 0.4678(4)
C25_4 C 0.7120(6) 0.2419(4) 0.5435(5)
C27_4 C 0.6569(5) 0.1650(4) 0.4651(4)
H10_4 H 0.6051 0.1450 0.4376
C28_4 C 0.8277(5) 0.1748(3) 0.5066(4)
H11_4 H 0.8916 0.1637 0.5060
C31_4 C 0.8147(6) 0.3526(4) 0.6768(4)
H14_4 H 0.8761 0.3601 0.7037
C32_4 C 0.6378(6) 0.2136(4) 0.5021(4)
H15_4 H 0.5739 0.2269 0.4986
O12_4 O 0.9360(5) 0.2268(3) 0.6664(4)
S1_4 S 0.64341(16) 0.76880(10) 0.59638(14)
O3_4 O 0.7118(3) 0.9438(2) 0.4232(3)
O5_4 O 0.8758(3) 0.9531(2) 0.4414(2)
C1_4 C 0.7997(6) 0.9309(3) 0.4550(4)
C3_4 C 0.8286(6) 0.7928(3) 0.6084(4)
C4_4 C 0.7366(5) 0.8130(3) 0.5718(4)
C5_4 C 0.8245(5) 0.7442(3) 0.6524(4)
C10_4 C 0.7270(6) 0.7253(3) 0.6523(4)
C11_4 C 0.7066(6) 0.6763(4) 0.6932(4)
H2_4 H 0.6425 0.6649 0.6929
C12_4 C 0.7832(5) 0.6466(3) 0.7328(4)
C13_4 C 0.9123(5) 0.8203(3) 0.5927(4)
H3_4 H 0.9745 0.8078 0.6140
C19_4 C 0.9000(5) 0.8681(3) 0.5433(4)
H6_4 H 0.9548 0.8875 0.5341
C23_4 C 0.8078(5) 0.8856(3) 0.5093(4)
C26_4 C 0.8807(5) 0.6661(4) 0.7351(4)
H9_4 H 0.9318 0.6461 0.7634
C30_4 C 0.9015(6) 0.7128(4) 0.6973(5)
H13_4 H 0.9661 0.7246 0.7004
C33_4 C 0.7641(6) 0.5943(3) 0.7739(4)
C34_4 C 0.7260(5) 0.8578(3) 0.5242(4)
H16_4 H 0.6639 0.8697 0.5019
O10_4 O 0.5844(4) 0.8025(2) 0.6328(3)
O11_4 O 0.5979(4) 0.7340(2) 0.5363(3)
N1_4 N 0.0223(4) 0.0083(3) 0.3607(3)
C2_4 C 0.3214(5) 0.0023(4) 0.3488(4)
C6_4 C 0.2171(4) 0.0039(3) 0.3551(4)
C8_4 C 0.0560(5) 0.0406(3) 0.3133(4)
H1_4 H 0.0131 0.0651 0.2837
C16_4 C 0.4653(6) 0.0410(4) 0.3209(4)
H4_4 H 0.4957 0.0737 0.3057
C18_4 C 0.1543(5) 0.0385(3) 0.3072(4)
H5_4 H 0.1767 0.0593 0.2726
C29_4 C 0.3663(5) 0.0456(4) 0.3245(5)
H12_4 H 0.3322 0.0800 0.3093
loop_
_geom_bond_atom_site_label_1
_geom_bond_atom_site_label_2
_geom_bond_site_symmetry_1
_geom_bond_site_symmetry_2
Zn1 O3 1_555 1_555
S1 C4 1_555 1_555
O3 C1 1_555 1_555
O7 C33 1_555 1_555
C1 O5 1_555 1_555
C3 C4 1_555 1_555
C4 C34 1_555 1_555
C5 C3 1_555 1_555
O8 C33 1_555 1_555
C10 S1 1_555 1_555
C11 C10 1_555 1_555
H2 C11 1_555 1_555
C12 C11 1_555 1_555
C13 C3 1_555 1_555
H3 C13 1_555 1_555
C19 C13 1_555 1_555
H6 C19 1_555 1_555
C23 C1 1_555 1_555
C26 C12 1_555 1_555
H9 C26 1_555 1_555
C30 C5 1_555 1_555
H13 C30 1_555 1_555
C33 C12 1_555 1_555
C34 C23 1_555 1_555
H16 C34 1_555 1_555
O10 S1 1_555 1_555
O11 S1 1_555 1_555
Zn5 O7 1_555 1_555
Zn7 O8 1_555 1_555
O15 Zn1 1_555 1_555
N3 Zn1 1_555 1_555
C5 C10 1_555 1_555
C19 C23 1_555 1_555
C26 C30 1_555 1_555
Zn2 O2 1_555 1_555
S2 O9 1_555 1_555
O1 C14 1_555 1_555
O2 C20 1_555 1_555
O4 C14 1_555 1_555
C7 C14 1_555 1_555
C9 C15 1_555 1_555
C15 S2 1_555 1_555
C17 S2 1_555 1_555
C20 O6 1_555 1_555
C21 C7 1_555 1_555
H7 C21 1_555 1_555
C22 C9 1_555 1_555
H8 C22 1_555 1_555
C24 C20 1_555 1_555
C25 C9 1_555 1_555
C27 C24 1_555 1_555
H10 C27 1_555 1_555
C28 C17 1_555 1_555
H11 C28 1_555 1_555
C31 C7 1_555 1_555
H14 C31 1_555 1_555
C32 C25 1_555 1_555
H15 C32 1_555 1_555
O12 S2 1_555 1_555
Zn5 O1 1_555 1_555
Zn7 O4 1_555 1_555
O14 Zn2 1_555 1_555
C15 C31 1_555 1_555
C17 C25 1_555 1_555
C21 C22 1_555 1_555
C24 C28 1_555 1_555
C27 C32 1_555 1_555
H17 C35 1_555 1_555
H18 C36 1_555 1_555
C37 N3 1_555 1_555
H19 C37 1_555 1_555
H20 C38 1_555 1_555
C35 C38 1_555 1_555
C36 C37 1_555 1_555
Zn5 O3_2 1_555 1_555
Zn7 O2_2 1_555 1_555
O2_2 C20_2 1_555 1_555
O3_2 C1_2 1_555 1_555
O5_2 Zn7 1_555 1_555
O6_2 Zn5 1_555 1_555
C1_2 O5_2 1_555 1_555
C20_2 O6_2 1_555 1_555
C24_2 C20_2 1_555 1_555
C27_2 C24_2 1_555 1_555
H10_2 C27_2 1_555 1_555
N3_2 Zn5 1_555 1_555
S1_2 C4_2 1_555 1_555
S2_2 O9_2 1_555 1_555
O13 C14_2 1_555 1_555
O14 C14_2 1_555 1_555
O15 C33_2 1_555 1_555
C3_2 C4_2 1_555 1_555
C4_2 C34_2 1_555 1_555
C5_2 C3_2 1_555 1_555
C7_2 C14_2 1_555 1_555
O16 C33_2 1_555 1_555
C9_2 C15_2 1_555 1_555
C10_2 S1_2 1_555 1_555
C11_2 C10_2 1_555 1_555
H2_2 C11_2 1_555 1_555
C12_2 C11_2 1_555 1_555
C13_2 C3_2 1_555 1_555
H3_2 C13_2 1_555 1_555
C15_2 S2_2 1_555 1_555
C17_2 S2_2 1_555 1_555
C19_2 C13_2 1_555 1_555
H6_2 C19_2 1_555 1_555
C21_2 C7_2 1_555 1_555
H7_2 C21_2 1_555 1_555
C22_2 C9_2 1_555 1_555
H8_2 C22_2 1_555 1_555
C25_2 C9_2 1_555 1_555
C26_2 C12_2 1_555 1_555
H9_2 C26_2 1_555 1_555
C28_2 C17_2 1_555 1_555
H11_2 C28_2 1_555 1_555
C30_2 C5_2 1_555 1_555
H13_2 C30_2 1_555 1_555
C31_2 C7_2 1_555 1_555
H14_2 C31_2 1_555 1_555
C32_2 C25_2 1_555 1_555
C33_2 C12_2 1_555 1_555
C34_2 C23_2 1_555 1_555
H16_2 C34_2 1_555 1_555
O10_2 S1_2 1_555 1_555
O11_2 S1_2 1_555 1_555
O12_2 S2_2 1_555 1_555
C5_2 C10_2 1_555 1_555
C15_2 C31_2 1_555 1_555
C17_2 C25_2 1_555 1_555
C19_2 C23_2 1_555 1_555
C21_2 C22_2 1_555 1_555
C26_2 C30_2 1_555 1_555
C2 C6 1_555 1_555
C6 C18 1_555 1_555
C8 N1 1_555 1_555
H1 C8 1_555 1_555
C16 H4 1_555 1_555
C18 C8 1_555 1_555
H5 C18 1_555 1_555
C29 C2 1_555 1_555
H12 C29 1_555 1_555
N3_2 C16 1_555 1_555
C35_2 N1 1_555 1_555
H17_2 C35_2 1_555 1_555
C36_2 C2 1_555 1_555
H18_2 C36_2 1_555 1_555
C37_2 N3_2 1_555 1_555
H19_2 C37_2 1_555 1_555
C38_2 C6 1_555 1_555
H20_2 C38_2 1_555 1_555
C16 C29 1_555 1_555
C35_2 C38_2 1_555 1_555
C36_2 C37_2 1_555 1_555
C2_2 C6_2 1_555 1_555
C6_2 C18_2 1_555 1_555
C8_2 N1_2 1_555 1_555
H1_2 C8_2 1_555 1_555
C16_2 H4_2 1_555 1_555
C18_2 C8_2 1_555 1_555
H5_2 C18_2 1_555 1_555
C29_2 C2_2 1_555 1_555
H12_2 C29_2 1_555 1_555
C16_2 C29_2 1_555 1_555
C2_3 C6_3 1_555 1_555
C6_3 C18_3 1_555 1_555
C8_3 N1_3 1_555 1_555
H1_3 C8_3 1_555 1_555
C16_3 H4_3 1_555 1_555
C18_3 C8_3 1_555 1_555
H5_3 C18_3 1_555 1_555
C29_3 C2_3 1_555 1_555
H12_3 C29_3 1_555 1_555
N2 C16_3 1_555 1_555
C35_3 N1_3 1_555 1_555
H17_3 C35_3 1_555 1_555
C36_3 C2_3 1_555 1_555
H18_3 C36_3 1_555 1_555
C37_3 N2 1_555 1_555
H19_3 C37_3 1_555 1_555
C38_3 C6_3 1_555 1_555
H20_3 C38_3 1_555 1_555
Zn3 N2 1_555 1_555
C16_3 C29_3 1_555 1_555
C35_3 C38_3 1_555 1_555
C36_3 C37_3 1_555 1_555
S1_3 C4_3 1_555 1_555
S2_3 O9_3 1_555 1_555
O1_2 C14_3 1_555 1_555
O4_2 C14_3 1_555 1_555
O7_2 C33_3 1_555 1_555
C3_3 C4_3 1_555 1_555
C4_3 C34_3 1_555 1_555
C5_3 C3_3 1_555 1_555
C7_3 C14_3 1_555 1_555
O8_2 C33_3 1_555 1_555
C9_3 C15_3 1_555 1_555
C10_3 S1_3 1_555 1_555
C11_3 C10_3 1_555 1_555
H2_3 C11_3 1_555 1_555
C12_3 C11_3 1_555 1_555
C13_3 C3_3 1_555 1_555
H3_3 C13_3 1_555 1_555
C15_3 S2_3 1_555 1_555
C17_3 S2_3 1_555 1_555
C19_3 C13_3 1_555 1_555
H6_3 C19_3 1_555 1_555
C21_3 C7_3 1_555 1_555
H7_3 C21_3 1_555 1_555
C22_3 C9_3 1_555 1_555
H8_3 C22_3 1_555 1_555
C25_3 C9_3 1_555 1_555
C26_3 C12_3 1_555 1_555
H9_3 C26_3 1_555 1_555
C28_3 C17_3 1_555 1_555
H11_3 C28_3 1_555 1_555
C30_3 C5_3 1_555 1_555
H13_3 C30_3 1_555 1_555
C31_3 C7_3 1_555 1_555
H14_3 C31_3 1_555 1_555
C32_3 C25_3 1_555 1_555
C33_3 C12_3 1_555 1_555
C34_3 C23_3 1_555 1_555
H16_3 C34_3 1_555 1_555
O10_3 S1_3 1_555 1_555
O11_3 S1_3 1_555 1_555
O12_3 S2_3 1_555 1_555
Zn5_2 O7_2 1_555 1_555
Zn7_2 O4_2 1_555 1_555
C5_3 C10_3 1_555 1_555
C15_3 C31_3 1_555 1_555
C17_3 C25_3 1_555 1_555
C19_3 C23_3 1_555 1_555
C21_3 C22_3 1_555 1_555
C26_3 C30_3 1_555 1_555
Zn3 O3_3 1_555 1_555
Zn2_2 O2_3 1_555 1_555
O2_3 C20_3 1_555 1_555
O3_3 C1_3 1_555 1_555
O5_3 Zn2_2 1_555 1_555
O6_3 Zn3 1_555 1_555
C1_3 O5_3 1_555 1_555
C20_3 O6_3 1_555 1_555
C24_3 C20_3 1_555 1_555
C27_3 C24_3 1_555 1_555
H10_3 C27_3 1_555 1_555
O13_2 Zn3 1_555 1_555
O14_2 Zn2_2 1_555 1_555
O15_2 Zn3 1_555 1_555
O16_2 Zn2_2 1_555 1_555
H17_4 C35_4 1_555 1_555
H18_4 C36_4 1_555 1_555
C37_4 N2_2 1_555 1_555
H19_4 C37_4 1_555 1_555
H20_4 C38_4 1_555 1_555
Zn5_2 N2_2 1_555 1_555
C35_4 C38_4 1_555 1_555
C36_4 C37_4 1_555 1_555
Zn7_2 O2_4 1_555 1_555
S2_4 O9_4 1_555 1_555
O13_2 C14_4 1_555 1_555
O2_4 C20_4 1_555 1_555
O14_2 C14_4 1_555 1_555
C7_4 C14_4 1_555 1_555
C9_4 C15_4 1_555 1_555
C15_4 S2_4 1_555 1_555
C17_4 S2_4 1_555 1_555
C20_4 O6_4 1_555 1_555
C21_4 C7_4 1_555 1_555
H7_4 C21_4 1_555 1_555
C22_4 C9_4 1_555 1_555
H8_4 C22_4 1_555 1_555
C24_4 C20_4 1_555 1_555
C25_4 C9_4 1_555 1_555
C27_4 C24_4 1_555 1_555
H10_4 C27_4 1_555 1_555
C28_4 C17_4 1_555 1_555
H11_4 C28_4 1_555 1_555
C31_4 C7_4 1_555 1_555
H14_4 C31_4 1_555 1_555
C32_4 C25_4 1_555 1_555
H15_4 C32_4 1_555 1_555
O12_4 S2_4 1_555 1_555
C15_4 C31_4 1_555 1_555
C17_4 C25_4 1_555 1_555
C21_4 C22_4 1_555 1_555
C24_4 C28_4 1_555 1_555
C27_4 C32_4 1_555 1_555
Zn5_2 O3_4 1_555 1_555
S1_4 C4_4 1_555 1_555
O3_4 C1_4 1_555 1_555
O15_2 C33_4 1_555 1_555
C1_4 O5_4 1_555 1_555
C3_4 C4_4 1_555 1_555
C4_4 C34_4 1_555 1_555
C5_4 C3_4 1_555 1_555
O16_2 C33_4 1_555 1_555
C10_4 S1_4 1_555 1_555
C11_4 C10_4 1_555 1_555
H2_4 C11_4 1_555 1_555
C12_4 C11_4 1_555 1_555
C13_4 C3_4 1_555 1_555
H3_4 C13_4 1_555 1_555
C19_4 C13_4 1_555 1_555
H6_4 C19_4 1_555 1_555
C23_4 C1_4 1_555 1_555
C26_4 C12_4 1_555 1_555
H9_4 C26_4 1_555 1_555
C30_4 C5_4 1_555 1_555
H13_4 C30_4 1_555 1_555
C33_4 C12_4 1_555 1_555
C34_4 C23_4 1_555 1_555
H16_4 C34_4 1_555 1_555
O10_4 S1_4 1_555 1_555
O11_4 S1_4 1_555 1_555
C5_4 C10_4 1_555 1_555
C19_4 C23_4 1_555 1_555
C26_4 C30_4 1_555 1_555
C2_4 C6_4 1_555 1_555
C6_4 C18_4 1_555 1_555
C8_4 N1_4 1_555 1_555
H1_4 C8_4 1_555 1_555
C16_4 H4_4 1_555 1_555
C18_4 C8_4 1_555 1_555
H5_4 C18_4 1_555 1_555
C29_4 C2_4 1_555 1_555
H12_4 C29_4 1_555 1_555
C16_4 C29_4 1_555 1_555

#END
