
###############################################################################
#
# This file contains modified crystal structure data generated from the
# MOF subset of the Cambridge Structural Database (CSD) v543 
# hosted by the Cambridge Crystallographic Data Centre (CCDC).
#
# This work is licensed under the Creative Commons
# Attribution-NonCommercial-ShareAlike 4.0 International License.
# To view a copy of this license, visit
# http://creativecommons.org/licenses/by-nc-sa/4.0/
# or send a letter to
# Creative Commons, PO Box 1866, Mountain View, CA 94042, USA.
#
# CIF created using the CSD Python API on 29 September 2022
# The structure has been converted into the P1 space group
# The structure has a 3D framework
# The original CSD entry EMIVAY is in the orthorhombic crystal system
# The framework has been calculated to contain at least 10.0% void space
# The void calculation uses a probe of radius 1.32A, grid spacing 0.4
# The framework is charged, counterions have been retained in the structure
#
###############################################################################

data_EMIVAY
_chemical_formula_moiety         '(C96 H80 N16 O24 S4 Zn4)n'
_symmetry_cell_setting           triclinic
_symmetry_space_group_name_H-M   'P 1'
_symmetry_Int_Tables_number      1
_space_group_name_Hall           'P 1'
loop_
_symmetry_equiv_pos_site_id
_symmetry_equiv_pos_as_xyz
1 x,y,z
_cell_length_a                   10.1389(7)
_cell_length_b                   22.0518(12)
_cell_length_c                   14.1837(9)
_cell_angle_alpha                90
_cell_angle_beta                 90
_cell_angle_gamma                90
_cell_volume                     3171.21
loop_
_atom_site_label
_atom_site_type_symbol
_atom_site_fract_x
_atom_site_fract_y
_atom_site_fract_z
Zn3 Zn 0.50617(6) 0.02546(3) 0.2500
H11 H 0.9764 0.0286 0.0866
N3 N 0.6124(3) 0.02747(15) 0.1335(3)
C23 C 0.6113(6) 0.0723(3) 0.0666(4)
H19 H 0.5654 0.1087 0.0702
S1 S 0.07291(15) 0.34080(6) 0.2500
O2 O 0.1132(3) 0.36919(13) 0.3357(2)
O3 O 0.3627(4) 0.08325(17) 0.2500
O5 O 0.4724(4) 0.1698(2) 0.2500
N1 N 0.6124(3) 0.02747(15) 0.3665(3)
C5 C 0.2385(5) 0.1724(2) 0.2500
C11 C 0.1217(6) 0.1388(3) 0.2500
H6 H 0.1271 0.0967 0.2500
C13 C 0.2312(6) 0.2360(2) 0.2500
H9 H 0.3072 0.2596 0.2500
H10 H 0.9534 0.0343 0.5761
C15 C 0.3702(6) 0.1406(2) 0.2500
C17 C 0.1090(6) 0.2621(2) 0.2500
C18 C 0.6113(6) 0.0723(3) 0.4334(4)
H12 H 0.5654 0.1087 0.4298
C19 C 0.6881(6) 0.0542(3) 0.5053(4)
H13 H 0.7034 0.0759 0.5604
O6 O 0.1132(3) 0.36919(13) 0.1643(2)
H18 H 0.9764 0.0286 0.4134
O1 O 0.5515(5) 0.8870(2) 0.2500
O4 O 0.3898(4) 0.95593(17) 0.2500
C1 C 0.1277(6) 0.7670(2) 0.2500
C2 C 0.3566(6) 0.7933(3) 0.2500
H1 H 0.4446 0.7815 0.2500
C3 C 0.4348(7) 0.9018(3) 0.2500
C4 C 0.0979(5) 0.8291(2) 0.2500
C6 C 0.1945(6) 0.8727(2) 0.2500
H2 H 0.1729 0.9137 0.2500
C7 C 0.0017(6) 0.6656(3) 0.2500
H3 H 0.0779 0.6422 0.2500
C8 C 0.0086(6) 0.7287(2) 0.2500
C9 C 0.2586(6) 0.7491(3) 0.2500
H4 H 0.2807 0.7082 0.2500
C16 C 0.3261(6) 0.8540(2) 0.2500
N5 N 0.7402(4) 0.99863(19) 0.0160(3)
C20 C 0.6904(4) 0.98507(18) 0.1011(3)
H14 H 0.7092 0.9494 0.1335
N2 N 0.7402(4) 0.99863(19) 0.4840(3)
C10 C 0.6904(4) 0.98507(18) 0.3989(3)
H5 H 0.7092 0.9494 0.3665
C12 C 0.8342(5) 0.9636(3) 0.5385(4)
H7 H 0.8465 0.9243 0.5088
H8 H 0.7991 0.9568 0.6012
C14 C 0.9664(4) 0.9952(2) 0.5462(3)
Zn1 Zn 0.49383(6) 0.52546(3) 0.2500
S1_2 S 0.92709(15) 0.84080(6) 0.2500
O2_2 O 0.8868(3) 0.86919(13) 0.1643(2)
O3_2 O 0.6373(4) 0.58325(17) 0.2500
O5_2 O 0.5276(4) 0.6698(2) 0.2500
N1_2 N 0.3876(3) 0.52747(15) 0.1335(3)
N2_2 N 0.2598(4) 0.49863(19) 0.0160(3)
C5_2 C 0.7615(5) 0.6724(2) 0.2500
C10_2 C 0.3096(4) 0.48507(18) 0.1011(3)
H5_2 H 0.2908 0.4494 0.1335
C11_2 C 0.8783(6) 0.6388(3) 0.2500
H6_2 H 0.8729 0.5967 0.2500
C13_2 C 0.7688(6) 0.7360(2) 0.2500
H9_2 H 0.6928 0.7596 0.2500
C15_2 C 0.6298(6) 0.6406(2) 0.2500
C17_2 C 0.8910(6) 0.7621(2) 0.2500
C18_2 C 0.3887(6) 0.5723(3) 0.0666(4)
H12_2 H 0.4346 0.6087 0.0702
O6_2 O 0.8868(3) 0.86919(13) 0.3357(2)
O7 O 0.6102(4) 0.45593(17) 0.2500
N4 N 0.3876(3) 0.52747(15) 0.3665(3)
H18_2 H 0.0236 0.5286 0.0866
H11_2 H 0.0236 0.5286 0.4134
N5_2 N 0.2598(4) 0.49863(19) 0.4840(3)
C20_2 C 0.3096(4) 0.48507(18) 0.3989(3)
H14_2 H 0.2908 0.4494 0.3665
C21 C 0.1658(5) 0.4636(3) 0.5385(4)
H15 H 0.1535 0.4243 0.5088
H16 H 0.2009 0.4568 0.6012
C22 C 0.0336(4) 0.4952(2) 0.5462(3)
H17 H 0.0466 0.5343 0.5761
C23_2 C 0.3887(6) 0.5723(3) 0.4334(4)
H19_2 H 0.4346 0.6087 0.4298
C24 C 0.3119(6) 0.5542(3) 0.5053(4)
H20 H 0.2966 0.5759 0.5604
O1_2 O 0.4485(5) 0.3870(2) 0.2500
C1_2 C 0.8723(6) 0.2670(2) 0.2500
C2_2 C 0.6434(6) 0.2933(3) 0.2500
H1_2 H 0.5554 0.2815 0.2500
C3_2 C 0.5652(7) 0.4018(3) 0.2500
C4_2 C 0.9021(5) 0.3291(2) 0.2500
C6_2 C 0.8055(6) 0.3727(2) 0.2500
H2_2 H 0.8271 0.4137 0.2500
C7_2 C 0.9983(6) 0.1656(3) 0.2500
H3_2 H 0.9221 0.1422 0.2500
C8_2 C 0.9914(6) 0.2287(2) 0.2500
C9_2 C 0.7414(6) 0.2491(3) 0.2500
H4_2 H 0.7193 0.2082 0.2500
C16_2 C 0.6739(6) 0.3540(2) 0.2500
C12_2 C 0.1658(5) 0.4636(3) 0.9615(4)
H7_2 H 0.1535 0.4243 0.9912
H8_2 H 0.2009 0.4568 0.8988
C14_2 C 0.0336(4) 0.4952(2) 0.9538(3)
H10_2 H 0.0466 0.5343 0.9239
C19_2 C 0.3119(6) 0.5542(3) 0.9947(4)
H13_2 H 0.2966 0.5759 0.9396
C21_2 C 0.8342(5) 0.5364(3) 0.0385(4)
H15_2 H 0.8465 0.5757 0.0088
H16_2 H 0.7991 0.5432 0.1012
C22_2 C 0.9664(4) 0.5048(2) 0.0462(3)
H17_2 H 0.9534 0.4657 0.0761
C24_2 C 0.6881(6) 0.4458(3) 0.0053(4)
H20_2 H 0.7034 0.4241 0.0604
H11_3 H 0.9764 0.4714 0.9134
Zn2 Zn 0.50617(6) 0.47454(3) 0.7500
N3_2 N 0.6124(3) 0.47253(15) 0.8665(3)
N5_3 N 0.7402(4) 0.50137(19) 0.9840(3)
C20_3 C 0.6904(4) 0.51493(18) 0.8989(3)
H14_3 H 0.7092 0.5506 0.8665
C23_3 C 0.6113(6) 0.4277(3) 0.9334(4)
H19_3 H 0.5654 0.3913 0.9298
S1_3 S 0.07291(15) 0.15920(6) 0.7500
O2_3 O 0.1132(3) 0.13081(13) 0.6643(2)
O3_3 O 0.3627(4) 0.41675(17) 0.7500
O5_3 O 0.4724(4) 0.3302(2) 0.7500
N1_3 N 0.6124(3) 0.47253(15) 0.6335(3)
N2_3 N 0.7402(4) 0.50137(19) 0.5160(3)
C5_3 C 0.2385(5) 0.3276(2) 0.7500
C10_3 C 0.6904(4) 0.51493(18) 0.6011(3)
H5_3 H 0.7092 0.5506 0.6335
C11_3 C 0.1217(6) 0.3612(3) 0.7500
H6_3 H 0.1271 0.4033 0.7500
C12_3 C 0.8342(5) 0.5364(3) 0.4615(4)
H7_3 H 0.8465 0.5757 0.4912
H8_3 H 0.7991 0.5432 0.3988
C13_3 C 0.2312(6) 0.2640(2) 0.7500
H9_3 H 0.3072 0.2404 0.7500
C14_3 C 0.9664(4) 0.5048(2) 0.4538(3)
H10_3 H 0.9534 0.4657 0.4239
C15_3 C 0.3702(6) 0.3594(2) 0.7500
C17_3 C 0.1090(6) 0.2379(2) 0.7500
C18_3 C 0.6113(6) 0.4277(3) 0.5666(4)
H12_3 H 0.5654 0.3913 0.5702
C19_3 C 0.6881(6) 0.4458(3) 0.4947(4)
H13_3 H 0.7034 0.4241 0.4396
O6_3 O 0.1132(3) 0.13081(13) 0.8357(2)
O7_2 O 0.3898(4) 0.54407(17) 0.7500
H18_3 H 0.9764 0.4714 0.5866
O1_3 O 0.5515(5) 0.6130(2) 0.7500
C1_3 C 0.1277(6) 0.7330(2) 0.7500
C2_3 C 0.3566(6) 0.7067(3) 0.7500
H1_3 H 0.4446 0.7185 0.7500
C3_3 C 0.4348(7) 0.5982(3) 0.7500
C4_3 C 0.0979(5) 0.6709(2) 0.7500
C6_3 C 0.1945(6) 0.6273(2) 0.7500
H2_3 H 0.1729 0.5863 0.7500
C7_3 C 0.0017(6) 0.8344(3) 0.7500
H3_3 H 0.0779 0.8578 0.7500
C8_3 C 0.0086(6) 0.7713(2) 0.7500
C9_3 C 0.2586(6) 0.7509(3) 0.7500
H4_3 H 0.2807 0.7918 0.7500
C16_3 C 0.3261(6) 0.6460(2) 0.7500
O1_4 O 0.4485(5) 0.1130(2) 0.7500
O4_2 O 0.6102(4) 0.04407(17) 0.7500
C1_4 C 0.8723(6) 0.2330(2) 0.7500
C2_4 C 0.6434(6) 0.2067(3) 0.7500
H1_4 H 0.5554 0.2185 0.7500
C3_4 C 0.5652(7) 0.0982(3) 0.7500
C4_4 C 0.9021(5) 0.1709(2) 0.7500
C6_4 C 0.8055(6) 0.1273(2) 0.7500
H2_4 H 0.8271 0.0863 0.7500
C7_4 C 0.9983(6) 0.3344(3) 0.7500
H3_4 H 0.9221 0.3578 0.7500
C8_4 C 0.9914(6) 0.2713(2) 0.7500
C9_4 C 0.7414(6) 0.2509(3) 0.7500
H4_4 H 0.7193 0.2918 0.7500
C16_4 C 0.6739(6) 0.1460(2) 0.7500
N2_4 N 0.2598(4) 0.00137(19) 0.9840(3)
C10_4 C 0.3096(4) 0.01493(18) 0.8989(3)
H5_4 H 0.2908 0.0506 0.8665
N5_4 N 0.2598(4) 0.00137(19) 0.5160(3)
C20_4 C 0.3096(4) 0.01493(18) 0.6011(3)
H14_4 H 0.2908 0.0506 0.6335
C21_3 C 0.1658(5) 0.0364(3) 0.4615(4)
H15_3 H 0.1535 0.0757 0.4912
H16_3 H 0.2009 0.0432 0.3988
C22_3 C 0.0336(4) 0.0048(2) 0.4538(3)
Zn3_2 Zn 0.49383(6) 0.97454(3) 0.7500
S1_4 S 0.92709(15) 0.65920(6) 0.7500
O2_4 O 0.8868(3) 0.63081(13) 0.8357(2)
O3_4 O 0.6373(4) 0.91675(17) 0.7500
O5_4 O 0.5276(4) 0.8302(2) 0.7500
N1_4 N 0.3876(3) 0.97253(15) 0.8665(3)
C5_4 C 0.7615(5) 0.8276(2) 0.7500
C11_4 C 0.8783(6) 0.8612(3) 0.7500
H6_4 H 0.8729 0.9033 0.7500
C13_4 C 0.7688(6) 0.7640(2) 0.7500
H9_4 H 0.6928 0.7404 0.7500
C15_4 C 0.6298(6) 0.8594(2) 0.7500
C17_4 C 0.8910(6) 0.7379(2) 0.7500
C18_4 C 0.3887(6) 0.9277(3) 0.9334(4)
H12_4 H 0.4346 0.8913 0.9298
O6_4 O 0.8868(3) 0.63081(13) 0.6643(2)
N4_2 N 0.3876(3) 0.97253(15) 0.6335(3)
H18_4 H 0.0236 0.9714 0.9134
H11_4 H 0.0236 0.9714 0.5866
H17_3 H 0.0466 0.9657 0.4239
C23_4 C 0.3887(6) 0.9277(3) 0.5666(4)
H19_4 H 0.4346 0.8913 0.5702
C24_3 C 0.3119(6) 0.9458(3) 0.4947(4)
H20_3 H 0.2966 0.9241 0.4396
C12_4 C 0.1658(5) 0.0364(3) 0.0385(4)
H7_4 H 0.1535 0.0757 0.0088
H8_4 H 0.2009 0.0432 0.1012
C14_4 C 0.0336(4) 0.0048(2) 0.0462(3)
H10_4 H 0.0466 0.9657 0.0761
C19_4 C 0.3119(6) 0.9458(3) 0.0053(4)
H13_4 H 0.2966 0.9241 0.0604
H17_4 H 0.9534 0.0343 0.9239
C24_4 C 0.6881(6) 0.0542(3) 0.9947(4)
H20_4 H 0.7034 0.0759 0.9396
C21_4 C 0.8342(5) 0.9636(3) 0.9615(4)
H15_4 H 0.8465 0.9243 0.9912
H16_4 H 0.7991 0.9568 0.8988
C22_4 C 0.9664(4) 0.9952(2) 0.9538(3)
loop_
_geom_bond_atom_site_label_1
_geom_bond_atom_site_label_2
_geom_bond_site_symmetry_1
_geom_bond_site_symmetry_2
Zn3 N3 1_555 1_555
C23 N3 1_555 1_555
H19 C23 1_555 1_555
Zn3 O3 1_555 1_555
S1 O2 1_555 1_555
O3 C15 1_555 1_555
O5 C15 1_555 1_555
N1 Zn3 1_555 1_555
C5 C11 1_555 1_555
H6 C11 1_555 1_555
C13 C5 1_555 1_555
H9 C13 1_555 1_555
C15 C5 1_555 1_555
C17 S1 1_555 1_555
C18 N1 1_555 1_555
H12 C18 1_555 1_555
H13 C19 1_555 1_555
O6 S1 1_555 1_555
C13 C17 1_555 1_555
C18 C19 1_555 1_555
O1 C3 1_555 1_555
O4 C3 1_555 1_555
C1 C4 1_555 1_555
C2 H1 1_555 1_555
C3 C16 1_555 1_555
C6 C4 1_555 1_555
H2 C6 1_555 1_555
C7 H3 1_555 1_555
C8 C1 1_555 1_555
C9 C1 1_555 1_555
H4 C9 1_555 1_555
C16 C2 1_555 1_555
C2 C9 1_555 1_555
C6 C16 1_555 1_555
C7 C8 1_555 1_555
N5 C20 1_555 1_555
C20 H14 1_555 1_555
N2 C10 1_555 1_555
H5 C10 1_555 1_555
C12 N2 1_555 1_555
H7 C12 1_555 1_555
H8 C12 1_555 1_555
C14 C12 1_555 1_555
Zn1 O3_2 1_555 1_555
S1_2 O2_2 1_555 1_555
O3_2 C15_2 1_555 1_555
O5_2 C15_2 1_555 1_555
N1_2 Zn1 1_555 1_555
N2_2 C10_2 1_555 1_555
C5_2 C11_2 1_555 1_555
C10_2 N1_2 1_555 1_555
H5_2 C10_2 1_555 1_555
H6_2 C11_2 1_555 1_555
C13_2 C5_2 1_555 1_555
H9_2 C13_2 1_555 1_555
C15_2 C5_2 1_555 1_555
C17_2 S1_2 1_555 1_555
C18_2 N1_2 1_555 1_555
H12_2 C18_2 1_555 1_555
O6_2 S1_2 1_555 1_555
O7 Zn1 1_555 1_555
N4 Zn1 1_555 1_555
C13_2 C17_2 1_555 1_555
N4 C20_2 1_555 1_555
N5_2 C20_2 1_555 1_555
C20_2 H14_2 1_555 1_555
C21 N5_2 1_555 1_555
H15 C21 1_555 1_555
H16 C21 1_555 1_555
H17 C22 1_555 1_555
C23_2 N4 1_555 1_555
H19_2 C23_2 1_555 1_555
C24 N5_2 1_555 1_555
H20 C24 1_555 1_555
C21 C22 1_555 1_555
C23_2 C24 1_555 1_555
O1_2 C3_2 1_555 1_555
O7 C3_2 1_555 1_555
C1_2 C4_2 1_555 1_555
C2_2 H1_2 1_555 1_555
C3_2 C16_2 1_555 1_555
C6_2 C4_2 1_555 1_555
H2_2 C6_2 1_555 1_555
C7_2 H3_2 1_555 1_555
C8_2 C1_2 1_555 1_555
C9_2 C1_2 1_555 1_555
H4_2 C9_2 1_555 1_555
C16_2 C2_2 1_555 1_555
C2_2 C9_2 1_555 1_555
C6_2 C16_2 1_555 1_555
C7_2 C8_2 1_555 1_555
H7_2 C12_2 1_555 1_555
H8_2 C12_2 1_555 1_555
C14_2 C12_2 1_555 1_555
H10_2 C14_2 1_555 1_555
H13_2 C19_2 1_555 1_555
H15_2 C21_2 1_555 1_555
H16_2 C21_2 1_555 1_555
H17_2 C22_2 1_555 1_555
H20_2 C24_2 1_555 1_555
C21_2 C22_2 1_555 1_555
Zn2 N3_2 1_555 1_555
N3_2 C20_3 1_555 1_555
N5_3 C20_3 1_555 1_555
C20_3 H14_3 1_555 1_555
C23_3 N3_2 1_555 1_555
H19_3 C23_3 1_555 1_555
Zn2 O3_3 1_555 1_555
S1_3 O2_3 1_555 1_555
O3_3 C15_3 1_555 1_555
O5_3 C15_3 1_555 1_555
N1_3 Zn2 1_555 1_555
N2_3 C10_3 1_555 1_555
C5_3 C11_3 1_555 1_555
C10_3 N1_3 1_555 1_555
H5_3 C10_3 1_555 1_555
H6_3 C11_3 1_555 1_555
C12_3 N2_3 1_555 1_555
H7_3 C12_3 1_555 1_555
H8_3 C12_3 1_555 1_555
C13_3 C5_3 1_555 1_555
H9_3 C13_3 1_555 1_555
C14_3 C12_3 1_555 1_555
H10_3 C14_3 1_555 1_555
C15_3 C5_3 1_555 1_555
C17_3 S1_3 1_555 1_555
C18_3 N1_3 1_555 1_555
H12_3 C18_3 1_555 1_555
C19_3 N2_3 1_555 1_555
H13_3 C19_3 1_555 1_555
O6_3 S1_3 1_555 1_555
O7_2 Zn2 1_555 1_555
C13_3 C17_3 1_555 1_555
C18_3 C19_3 1_555 1_555
O1_3 C3_3 1_555 1_555
O7_2 C3_3 1_555 1_555
C1_3 C4_3 1_555 1_555
C2_3 H1_3 1_555 1_555
C3_3 C16_3 1_555 1_555
C6_3 C4_3 1_555 1_555
H2_3 C6_3 1_555 1_555
C7_3 H3_3 1_555 1_555
C8_3 C1_3 1_555 1_555
C9_3 C1_3 1_555 1_555
H4_3 C9_3 1_555 1_555
C16_3 C2_3 1_555 1_555
C2_3 C9_3 1_555 1_555
C6_3 C16_3 1_555 1_555
C7_3 C8_3 1_555 1_555
O1_4 C3_4 1_555 1_555
O4_2 C3_4 1_555 1_555
C1_4 C4_4 1_555 1_555
C2_4 H1_4 1_555 1_555
C3_4 C16_4 1_555 1_555
C6_4 C4_4 1_555 1_555
H2_4 C6_4 1_555 1_555
C7_4 H3_4 1_555 1_555
C8_4 C1_4 1_555 1_555
C9_4 C1_4 1_555 1_555
H4_4 C9_4 1_555 1_555
C16_4 C2_4 1_555 1_555
C2_4 C9_4 1_555 1_555
C6_4 C16_4 1_555 1_555
C7_4 C8_4 1_555 1_555
N2_4 C10_4 1_555 1_555
H5_4 C10_4 1_555 1_555
N5_4 C20_4 1_555 1_555
C20_4 H14_4 1_555 1_555
C21_3 N5_4 1_555 1_555
H15_3 C21_3 1_555 1_555
H16_3 C21_3 1_555 1_555
C21_3 C22_3 1_555 1_555
Zn3_2 O3_4 1_555 1_555
S1_4 O2_4 1_555 1_555
O3_4 C15_4 1_555 1_555
O5_4 C15_4 1_555 1_555
N1_4 Zn3_2 1_555 1_555
C5_4 C11_4 1_555 1_555
H6_4 C11_4 1_555 1_555
C13_4 C5_4 1_555 1_555
H9_4 C13_4 1_555 1_555
C15_4 C5_4 1_555 1_555
C17_4 S1_4 1_555 1_555
C18_4 N1_4 1_555 1_555
H12_4 C18_4 1_555 1_555
O6_4 S1_4 1_555 1_555
N4_2 Zn3_2 1_555 1_555
C13_4 C17_4 1_555 1_555
C23_4 N4_2 1_555 1_555
H19_4 C23_4 1_555 1_555
H20_3 C24_3 1_555 1_555
C23_4 C24_3 1_555 1_555
H7_4 C12_4 1_555 1_555
H8_4 C12_4 1_555 1_555
C14_4 C12_4 1_555 1_555
H13_4 C19_4 1_555 1_555
H20_4 C24_4 1_555 1_555
H15_4 C21_4 1_555 1_555
H16_4 C21_4 1_555 1_555
C21_4 C22_4 1_555 1_555

#END
