
###############################################################################
#
# This file contains modified crystal structure data generated from the
# MOF subset of the Cambridge Structural Database (CSD) v543 
# hosted by the Cambridge Crystallographic Data Centre (CCDC).
#
# This work is licensed under the Creative Commons
# Attribution-NonCommercial-ShareAlike 4.0 International License.
# To view a copy of this license, visit
# http://creativecommons.org/licenses/by-nc-sa/4.0/
# or send a letter to
# Creative Commons, PO Box 1866, Mountain View, CA 94042, USA.
#
# CIF created using the CSD Python API on 29 September 2022
# The structure has been converted into the P1 space group
# The structure has a 3D framework
# The original CSD entry EMIYAD is in the monoclinic crystal system
# The framework has been calculated to contain at least 10.0% void space
# The void calculation uses a probe of radius 1.32A, grid spacing 0.4
# The framework is charged, counterions have been retained in the structure
#
###############################################################################

data_EMIYAD
_chemical_formula_moiety         '(C96 H96 Cu13 Mo32 N48 O120 10+)n'
_symmetry_cell_setting           triclinic
_symmetry_space_group_name_H-M   'P 1'
_symmetry_Int_Tables_number      1
_space_group_name_Hall           'P 1'
loop_
_symmetry_equiv_pos_site_id
_symmetry_equiv_pos_as_xyz
1 x,y,z
_cell_length_a                   16.8962(13)
_cell_length_b                   15.3037(13)
_cell_length_c                   19.8840(15)
_cell_angle_alpha                90
_cell_angle_beta                 100.126(2)
_cell_angle_gamma                90
_cell_volume                     5061.41
loop_
_atom_site_label
_atom_site_type_symbol
_atom_site_fract_x
_atom_site_fract_y
_atom_site_fract_z
Mo1 Mo 0.17321(3) 0.28544(3) 0.54800(2)
Mo2 Mo 0.11469(3) 0.21749(3) 0.39535(2)
Mo3 Mo 0.27989(3) 0.43205(3) 0.49150(2)
Mo4 Mo 0.22454(3) 0.36499(3) 0.33402(2)
O1 O 0.2616(2) 0.3658(2) 0.57331(16)
O2 O 0.1285(2) 0.1856(2) 0.49405(16)
O3 O 0.2990(2) 0.4289(2) 0.40047(17)
O4 O 0.1650(2) 0.2592(2) 0.32345(17)
O5 O 0.1766(2) 0.2374(2) 0.62794(17)
O6 O 0.2116(2) 0.3095(2) 0.45122(16)
O7 O 0.0746(2) 0.1233(2) 0.35863(17)
O8 O 0.0926(2) 0.3519(2) 0.53861(18)
O9 O 0.3599(2) 0.4946(2) 0.52890(18)
O10 O 0.2630(3) 0.3745(3) 0.26125(19)
O11 O 0.0348(2) 0.2850(2) 0.3919(2)
O12 O 0.1985(2) 0.4989(3) 0.4830(2)
O13 O 0.1480(3) 0.4376(2) 0.3248(2)
Mo5 Mo 0.32679(3) 0.21456(3) 0.45200(2)
Mo6 Mo 0.38531(3) 0.28251(3) 0.60465(2)
Mo7 Mo 0.22011(3) 0.06795(3) 0.50850(2)
Mo8 Mo 0.27546(3) 0.13501(3) 0.66598(2)
O14 O 0.2384(2) 0.1342(2) 0.42669(16)
O15 O 0.3715(2) 0.3144(2) 0.50595(16)
O16 O 0.2010(2) 0.0711(2) 0.59953(17)
O17 O 0.3350(2) 0.2408(2) 0.67655(17)
O18 O 0.3234(2) 0.2626(2) 0.37206(17)
O19 O 0.2884(2) 0.1905(2) 0.54878(16)
O20 O 0.4254(2) 0.3767(2) 0.64137(17)
O21 O 0.4074(2) 0.1481(2) 0.46139(18)
O22 O 0.1401(2) 0.0054(2) 0.47110(18)
O23 O 0.2370(3) 0.1255(3) 0.73875(19)
O24 O 0.4652(2) 0.2150(2) 0.6081(2)
O25 O 0.3015(2) 0.0011(3) 0.5170(2)
O26 O 0.3520(3) 0.0624(2) 0.6752(2)
Mo2_2 Mo 0.88531(3) 0.21749(3) 0.10465(2)
Mo3_2 Mo 0.72011(3) 0.43205(3) 0.00850(2)
Mo4_2 Mo 0.77546(3) 0.36499(3) 0.16598(2)
O2_2 O 0.8715(2) 0.1856(2) 0.00595(16)
O3_2 O 0.7010(2) 0.4289(2) 0.09953(17)
O4_2 O 0.8350(2) 0.2592(2) 0.17655(17)
O6_2 O 0.7884(2) 0.3095(2) 0.04878(16)
O7_2 O 0.9254(2) 0.1233(2) 0.14137(17)
O10_2 O 0.7370(3) 0.3745(3) 0.23875(19)
O11_2 O 0.9652(2) 0.2850(2) 0.1081(2)
O12_2 O 0.8015(2) 0.4989(3) 0.0170(2)
O13_2 O 0.8520(3) 0.4376(2) 0.1752(2)
Mo5_2 Mo 0.67321(3) 0.21456(3) 0.04800(2)
O14_2 O 0.7616(2) 0.1342(2) 0.07331(16)
O18_2 O 0.6766(2) 0.2626(2) 0.12794(17)
O21_2 O 0.5926(2) 0.1481(2) 0.03861(18)
O22_2 O 0.8599(2) 0.0054(2) 0.02890(18)
Mo1_2 Mo 0.82679(3) 0.28544(3) 0.95200(2)
O1_2 O 0.7384(2) 0.3658(2) 0.92669(16)
O5_2 O 0.8234(2) 0.2374(2) 0.87206(17)
O8_2 O 0.9074(2) 0.3519(2) 0.96139(18)
O9_2 O 0.6401(2) 0.4946(2) 0.97110(18)
Mo6_2 Mo 0.61469(3) 0.28251(3) 0.89535(2)
Mo7_2 Mo 0.77989(3) 0.06795(3) 0.99150(2)
Mo8_2 Mo 0.72454(3) 0.13501(3) 0.83402(2)
O15_2 O 0.6285(2) 0.3144(2) 0.99405(16)
O16_2 O 0.7990(2) 0.0711(2) 0.90047(17)
O17_2 O 0.6650(2) 0.2408(2) 0.82345(17)
O19_2 O 0.7116(2) 0.1905(2) 0.95122(16)
O20_2 O 0.5746(2) 0.3767(2) 0.85863(17)
O23_2 O 0.7630(3) 0.1255(3) 0.76125(19)
O24_2 O 0.5348(2) 0.2150(2) 0.8919(2)
O25_2 O 0.6985(2) 0.0011(3) 0.9830(2)
O26_2 O 0.6480(3) 0.0624(2) 0.8248(2)
Mo1_3 Mo 0.67321(3) 0.78544(3) 0.54800(2)
Mo2_3 Mo 0.61469(3) 0.71749(3) 0.39535(2)
Mo3_3 Mo 0.77989(3) 0.93205(3) 0.49150(2)
Mo4_3 Mo 0.72454(3) 0.86499(3) 0.33402(2)
O1_3 O 0.7616(2) 0.8658(2) 0.57331(16)
O2_3 O 0.6285(2) 0.6856(2) 0.49405(16)
O3_3 O 0.7990(2) 0.9289(2) 0.40047(17)
O4_3 O 0.6650(2) 0.7592(2) 0.32345(17)
O5_3 O 0.6766(2) 0.7374(2) 0.62794(17)
O6_3 O 0.7116(2) 0.8095(2) 0.45122(16)
O7_3 O 0.5746(2) 0.6233(2) 0.35863(17)
O8_3 O 0.5926(2) 0.8519(2) 0.53861(18)
O9_3 O 0.8599(2) 0.9946(2) 0.52890(18)
O10_3 O 0.7630(3) 0.8745(3) 0.26125(19)
O11_3 O 0.5348(2) 0.7850(2) 0.3919(2)
O12_3 O 0.6985(2) 0.9989(3) 0.4830(2)
O13_3 O 0.6480(3) 0.9376(2) 0.3248(2)
Mo5_3 Mo 0.82679(3) 0.71456(3) 0.45200(2)
Mo6_3 Mo 0.88531(3) 0.78251(3) 0.60465(2)
Mo7_3 Mo 0.72011(3) 0.56795(3) 0.50850(2)
Mo8_3 Mo 0.77546(3) 0.63501(3) 0.66598(2)
O14_3 O 0.7384(2) 0.6342(2) 0.42669(16)
O15_3 O 0.8715(2) 0.8144(2) 0.50595(16)
O16_3 O 0.7010(2) 0.5711(2) 0.59953(17)
O17_3 O 0.8350(2) 0.7408(2) 0.67655(17)
O18_3 O 0.8234(2) 0.7626(2) 0.37206(17)
O19_3 O 0.7884(2) 0.6905(2) 0.54878(16)
O20_3 O 0.9254(2) 0.8767(2) 0.64137(17)
O21_3 O 0.9074(2) 0.6481(2) 0.46139(18)
O22_3 O 0.6401(2) 0.5054(2) 0.47110(18)
O23_3 O 0.7370(3) 0.6255(3) 0.73875(19)
O24_3 O 0.9652(2) 0.7150(2) 0.6081(2)
O25_3 O 0.8015(2) 0.5011(3) 0.5170(2)
O26_3 O 0.8520(3) 0.5624(2) 0.6752(2)
Mo2_4 Mo 0.38531(3) 0.71749(3) 0.10465(2)
Mo3_4 Mo 0.22011(3) 0.93205(3) 0.00850(2)
Mo4_4 Mo 0.27546(3) 0.86499(3) 0.16598(2)
O2_4 O 0.3715(2) 0.6856(2) 0.00595(16)
O3_4 O 0.2010(2) 0.9289(2) 0.09953(17)
O4_4 O 0.3350(2) 0.7592(2) 0.17655(17)
O6_4 O 0.2884(2) 0.8095(2) 0.04878(16)
O7_4 O 0.4254(2) 0.6233(2) 0.14137(17)
O10_4 O 0.2370(3) 0.8745(3) 0.23875(19)
O11_4 O 0.4652(2) 0.7850(2) 0.1081(2)
O12_4 O 0.3015(2) 0.9989(3) 0.0170(2)
O13_4 O 0.3520(3) 0.9376(2) 0.1752(2)
Mo5_4 Mo 0.17321(3) 0.71456(3) 0.04800(2)
O14_4 O 0.2616(2) 0.6342(2) 0.07331(16)
O18_4 O 0.1766(2) 0.7626(2) 0.12794(17)
O21_4 O 0.0926(2) 0.6481(2) 0.03861(18)
O22_4 O 0.3599(2) 0.5054(2) 0.02890(18)
Mo1_4 Mo 0.32679(3) 0.78544(3) 0.95200(2)
O1_4 O 0.2384(2) 0.8658(2) 0.92669(16)
O5_4 O 0.3234(2) 0.7374(2) 0.87206(17)
O8_4 O 0.4074(2) 0.8519(2) 0.96139(18)
O9_4 O 0.1401(2) 0.9946(2) 0.97110(18)
Mo6_4 Mo 0.11469(3) 0.78251(3) 0.89535(2)
Mo7_4 Mo 0.27989(3) 0.56795(3) 0.99150(2)
Mo8_4 Mo 0.22454(3) 0.63501(3) 0.83402(2)
O15_4 O 0.1285(2) 0.8144(2) 0.99405(16)
O16_4 O 0.2990(2) 0.5711(2) 0.90047(17)
O17_4 O 0.1650(2) 0.7408(2) 0.82345(17)
O19_4 O 0.2116(2) 0.6905(2) 0.95122(16)
O20_4 O 0.0746(2) 0.8767(2) 0.85863(17)
O23_4 O 0.2630(3) 0.6255(3) 0.76125(19)
O24_4 O 0.0348(2) 0.7150(2) 0.8919(2)
O25_4 O 0.1985(2) 0.5011(3) 0.9830(2)
O26_4 O 0.1480(3) 0.5624(2) 0.8248(2)
Cu1 Cu 0.500000 0.500000 0.500000
Cu2 Cu 0.000000 0.68742(6) 0.250000
O27 O 0.4427(2) 0.5585(2) 0.42059(17)
O28 O 0.1281(3) 0.6745(3) 0.2816(2)
N1 N 0.4977(3) 0.4005(3) 0.4348(2)
N2 N 0.4953(3) 0.2838(3) 0.3285(2)
N3 N 0.4004(3) 0.5453(3) 0.3073(2)
H1 H 0.391658 0.511816 0.272052
N4 N 0.0291(3) 0.5907(3) 0.1845(3)
C1 C 0.4581(3) 0.3609(3) 0.3188(3)
H2 H 0.429091 0.374642 0.275940
C2 C 0.4319(3) 0.5133(3) 0.3662(3)
C3 C 0.4618(3) 0.4205(3) 0.3713(2)
C4 C 0.5325(3) 0.3238(3) 0.4456(3)
H3 H 0.557594 0.308541 0.489423
N5 N 0.2374(3) 0.6094(3) 0.2544(3)
H4 H 0.256475 0.573513 0.228054
C5 C 0.5323(3) 0.2653(3) 0.3920(3)
H5 H 0.558509 0.211935 0.400646
C6 C 0.1595(4) 0.6216(4) 0.2461(3)
C7 C 0.1076(3) 0.5693(4) 0.1929(3)
N6 N 0.0820(4) 0.4578(4) 0.1090(3)
C8 C 0.1324(4) 0.5017(4) 0.1548(3)
H6 H 0.186626 0.486904 0.161996
C9 C 0.3793(4) 0.6384(4) 0.3001(3)
H7 H 0.387448 0.658669 0.255540
H8 H 0.414892 0.671545 0.334447
C10 C 0.2925(4) 0.6555(4) 0.3076(3)
H9 H 0.284158 0.635842 0.352235
H10 H 0.281672 0.717708 0.304268
C12 C 0.0045(5) 0.4811(5) 0.1003(4)
C23 C 0.0220(4) 0.5479(4) 0.3611(3)
H23 H 0.076379 0.562133 0.367846
H24 H 0.032583 0.452199 0.432289
Cu5 Cu 0.500000 0.18742(6) 0.250000
O31 O 0.5573(2) 0.4415(2) 0.57941(17)
N13 N 0.5023(3) 0.5995(3) 0.5652(2)
N15 N 0.0047(3) 0.7838(3) 0.1715(2)
Cu2_2 Cu 1.000000 0.68742(6) 0.250000
C11 C 0.9780(4) 0.5479(4) 0.1389(3)
H11 H 0.923621 0.562133 0.132154
H12 H 0.967417 0.452199 0.067711
O29 O 0.5573(2) 0.5585(2) 0.07941(17)
O30 O 0.8719(3) 0.6745(3) 0.2184(2)
N7 N 0.5023(3) 0.4005(3) 0.0652(2)
N8 N 0.5047(3) 0.2838(3) 0.1715(2)
N9 N 0.5996(3) 0.5453(3) 0.1927(2)
H13 H 0.608342 0.511816 0.227948
N10 N 0.9709(3) 0.5907(3) 0.3155(3)
C13 C 0.5419(3) 0.3609(3) 0.1812(3)
H14 H 0.570909 0.374642 0.224060
C14 C 0.5681(3) 0.5133(3) 0.1338(3)
C15 C 0.5382(3) 0.4205(3) 0.1287(2)
C16 C 0.4675(3) 0.3238(3) 0.0544(3)
H15 H 0.442406 0.308541 0.010577
N11 N 0.7626(3) 0.6094(3) 0.2456(3)
H16 H 0.743525 0.573513 0.271946
C17 C 0.4677(3) 0.2653(3) 0.1080(3)
H17 H 0.441491 0.211935 0.099354
C18 C 0.8405(4) 0.6216(4) 0.2539(3)
C19 C 0.8924(3) 0.5693(4) 0.3071(3)
N12 N 0.9180(4) 0.4578(4) 0.3910(3)
C20 C 0.8676(4) 0.5017(4) 0.3452(3)
H18 H 0.813374 0.486904 0.338004
C21 C 0.6207(4) 0.6384(4) 0.1999(3)
H19 H 0.612552 0.658669 0.244460
H20 H 0.585108 0.671545 0.165553
C22 C 0.7075(4) 0.6555(4) 0.1924(3)
H21 H 0.715842 0.635842 0.147765
H22 H 0.718328 0.717708 0.195732
C24 C 0.9955(5) 0.4811(5) 0.3997(4)
Cu3 Cu 0.500000 0.500000 0.000000
N14 N 0.9953(3) 0.7838(3) 0.3285(2)
Cu3_2 Cu 0.500000 0.500000 1.000000
O31_2 O 0.4427(2) 0.4415(2) 0.92059(17)
N13_2 N 0.4977(3) 0.5995(3) 0.9348(2)
Cu1_2 Cu -0.000000 0.000000 0.500000
N13_3 N 0.0023(3) 0.0995(3) 0.5652(2)
Cu1_3 Cu -0.000000 1.000000 0.500000
C4_2 C 0.0325(3) 0.8238(3) 0.4456(3)
H3_2 H 0.057594 0.808541 0.489423
C5_2 C 0.0323(3) 0.7653(3) 0.3920(3)
H5_2 H 0.058509 0.711935 0.400646
O31_3 O 0.0573(2) 0.9415(2) 0.57941(17)
Cu1_4 Cu 1.000000 0.000000 0.500000
O27_2 O 0.9427(2) 0.0585(2) 0.42059(17)
O28_2 O 0.6281(3) 0.1745(3) 0.2816(2)
N3_2 N 0.9004(3) 0.0453(3) 0.3073(2)
H1_2 H 0.891658 0.011816 0.272052
N4_2 N 0.5291(3) 0.0907(3) 0.1845(3)
C2_2 C 0.9319(3) 0.0133(3) 0.3662(3)
N5_2 N 0.7374(3) 0.1094(3) 0.2544(3)
H4_2 H 0.756475 0.073513 0.228054
C6_2 C 0.6595(4) 0.1216(4) 0.2461(3)
C7_2 C 0.6076(3) 0.0693(4) 0.1929(3)
C8_2 C 0.6324(4) 0.0017(4) 0.1548(3)
C9_2 C 0.8793(4) 0.1384(4) 0.3001(3)
H7_2 H 0.887448 0.158669 0.255540
H8_2 H 0.914892 0.171545 0.334447
C10_2 C 0.7925(4) 0.1555(4) 0.3076(3)
H9_2 H 0.784158 0.135842 0.352235
H10_2 H 0.781672 0.217708 0.304268
C11_2 C 0.4780(4) 0.0479(4) 0.1389(3)
H11_2 H 0.423621 0.062133 0.132154
O29_2 O 0.0573(2) 0.0585(2) 0.07941(17)
O30_2 O 0.3719(3) 0.1745(3) 0.2184(2)
N9_2 N 0.0996(3) 0.0453(3) 0.1927(2)
H13_2 H 0.108342 0.011816 0.227948
N10_2 N 0.4709(3) 0.0907(3) 0.3155(3)
C14_2 C 0.0681(3) 0.0133(3) 0.1338(3)
N11_2 N 0.2626(3) 0.1094(3) 0.2456(3)
H16_2 H 0.243525 0.073513 0.271946
C18_2 C 0.3405(4) 0.1216(4) 0.2539(3)
C19_2 C 0.3924(3) 0.0693(4) 0.3071(3)
C20_2 C 0.3676(4) 0.0017(4) 0.3452(3)
C21_2 C 0.1207(4) 0.1384(4) 0.1999(3)
H19_2 H 0.112552 0.158669 0.244460
H20_2 H 0.085108 0.171545 0.165553
C22_2 C 0.2075(4) 0.1555(4) 0.1924(3)
H21_2 H 0.215842 0.135842 0.147765
H22_2 H 0.218328 0.217708 0.195732
C23_2 C 0.5220(4) 0.0479(4) 0.3611(3)
H23_2 H 0.576379 0.062133 0.367846
Cu3_3 Cu 0.000000 0.000000 0.000000
Cu3_4 Cu -0.000000 -0.000000 1.000000
Cu1_5 Cu 1.000000 1.000000 0.500000
N1_2 N 0.9977(3) 0.9005(3) 0.4348(2)
C1_2 C 0.9581(3) 0.8609(3) 0.3188(3)
H2_2 H 0.929091 0.874642 0.275940
C3_2 C 0.9618(3) 0.9205(3) 0.3713(2)
N6_2 N 0.5820(4) 0.9578(4) 0.1090(3)
H6_2 H 0.686626 0.986904 0.161996
C12_2 C 0.5045(5) 0.9811(5) 0.1003(4)
H12_2 H 0.467417 0.952199 0.067711
N7_2 N 0.0023(3) 0.9005(3) 0.0652(2)
C13_2 C 0.0419(3) 0.8609(3) 0.1812(3)
H14_2 H 0.070909 0.874642 0.224060
C15_2 C 0.0382(3) 0.9205(3) 0.1287(2)
N12_2 N 0.4180(4) 0.9578(4) 0.3910(3)
H18_2 H 0.313374 0.986904 0.338004
C24_2 C 0.4955(5) 0.9811(5) 0.3997(4)
H24_2 H 0.532583 0.952199 0.432289
Cu3_5 Cu 0.000000 1.000000 0.000000
Cu3_6 Cu 1.000000 -0.000000 1.000000
C16_2 C 0.9675(3) 0.8238(3) 0.0544(3)
H15_2 H 0.942406 0.808541 0.010577
C17_2 C 0.9677(3) 0.7653(3) 0.1080(3)
H17_2 H 0.941491 0.711935 0.099354
Cu3_7 Cu 1.000000 1.000000 0.000000
Cu3_8 Cu 1.000000 1.000000 1.000000
N13_4 N 0.9977(3) 0.0995(3) 0.9348(2)
O31_4 O 0.9427(2) 0.9415(2) 0.92059(17)
Cu2_3 Cu 0.000000 0.31258(6) 0.750000
C11_3 C 0.0220(4) 0.4521(4) 0.8611(3)
H11_3 H 0.076379 0.437867 0.867846
H12_3 H 0.032583 0.547801 0.932289
O30_3 O 0.1281(3) 0.3255(3) 0.7816(2)
N8_2 N 0.4953(3) 0.7162(3) 0.8285(2)
N9_3 N 0.4004(3) 0.4547(3) 0.8073(2)
H13_3 H 0.391658 0.488184 0.772052
N10_3 N 0.0291(3) 0.4093(3) 0.6845(3)
C13_3 C 0.4581(3) 0.6391(3) 0.8188(3)
H14_3 H 0.429091 0.625358 0.775940
C14_3 C 0.4319(3) 0.4867(3) 0.8662(3)
C15_3 C 0.4618(3) 0.5795(3) 0.8713(2)
C16_3 C 0.5325(3) 0.6762(3) 0.9456(3)
H15_3 H 0.557594 0.691459 0.989423
N11_3 N 0.2374(3) 0.3906(3) 0.7544(3)
H16_3 H 0.256475 0.426487 0.728054
C17_3 C 0.5323(3) 0.7347(3) 0.8920(3)
H17_3 H 0.558509 0.788065 0.900646
C18_3 C 0.1595(4) 0.3784(4) 0.7461(3)
C19_3 C 0.1076(3) 0.4307(4) 0.6929(3)
N12_3 N 0.0820(4) 0.5422(4) 0.6090(3)
C20_3 C 0.1324(4) 0.4983(4) 0.6548(3)
H18_3 H 0.186626 0.513096 0.661996
C21_3 C 0.3793(4) 0.3616(4) 0.8001(3)
H19_3 H 0.387448 0.341331 0.755540
H20_3 H 0.414892 0.328455 0.834447
C22_3 C 0.2925(4) 0.3445(4) 0.8076(3)
H21_3 H 0.284158 0.364158 0.852235
H22_3 H 0.281672 0.282292 0.804268
C24_3 C 0.0045(5) 0.5189(5) 0.6003(4)
Cu4 Cu 0.500000 0.81258(6) 0.750000
N14_2 N 0.0047(3) 0.2162(3) 0.6715(2)
Cu2_4 Cu 1.000000 0.31258(6) 0.750000
O28_3 O 0.8719(3) 0.3255(3) 0.7184(2)
N2_2 N 0.5047(3) 0.7162(3) 0.6715(2)
N3_3 N 0.5996(3) 0.4547(3) 0.6927(2)
H1_3 H 0.608342 0.488184 0.727948
N4_3 N 0.9709(3) 0.4093(3) 0.8155(3)
C1_3 C 0.5419(3) 0.6391(3) 0.6812(3)
H2_3 H 0.570909 0.625358 0.724060
C2_3 C 0.5681(3) 0.4867(3) 0.6338(3)
C3_3 C 0.5382(3) 0.5795(3) 0.6287(2)
C4_3 C 0.4675(3) 0.6762(3) 0.5544(3)
H3_3 H 0.442406 0.691459 0.510577
N5_3 N 0.7626(3) 0.3906(3) 0.7456(3)
H4_3 H 0.743525 0.426487 0.771946
C5_3 C 0.4677(3) 0.7347(3) 0.6080(3)
H5_3 H 0.441491 0.788065 0.599354
C6_3 C 0.8405(4) 0.3784(4) 0.7539(3)
C7_3 C 0.8924(3) 0.4307(4) 0.8071(3)
N6_3 N 0.9180(4) 0.5422(4) 0.8910(3)
C8_3 C 0.8676(4) 0.4983(4) 0.8452(3)
H6_3 H 0.813374 0.513096 0.838004
C9_3 C 0.6207(4) 0.3616(4) 0.6999(3)
H7_3 H 0.612552 0.341331 0.744460
H8_3 H 0.585108 0.328455 0.665553
C10_3 C 0.7075(4) 0.3445(4) 0.6924(3)
H9_3 H 0.715842 0.364158 0.647765
H10_3 H 0.718328 0.282292 0.695732
C12_3 C 0.9955(5) 0.5189(5) 0.8997(4)
C23_3 C 0.9780(4) 0.4521(4) 0.6389(3)
H23_3 H 0.923621 0.437867 0.632154
H24_3 H 0.967417 0.547801 0.567711
N15_2 N 0.9953(3) 0.2162(3) 0.8285(2)
C16_4 C 0.0325(3) 0.1762(3) 0.9456(3)
H15_4 H 0.057594 0.191459 0.989423
C17_4 C 0.0323(3) 0.2347(3) 0.8920(3)
H17_4 H 0.058509 0.288065 0.900646
C1_4 C 0.0419(3) 0.1391(3) 0.6812(3)
H2_4 H 0.070909 0.125358 0.724060
C3_4 C 0.0382(3) 0.0795(3) 0.6287(2)
N6_4 N 0.4180(4) 0.0422(4) 0.8910(3)
H6_4 H 0.313374 0.013096 0.838004
C12_4 C 0.4955(5) 0.0189(5) 0.8997(4)
H12_4 H 0.532583 0.047801 0.932289
C13_4 C 0.9581(3) 0.1391(3) 0.8188(3)
H14_4 H 0.929091 0.125358 0.775940
C15_4 C 0.9618(3) 0.0795(3) 0.8713(2)
N12_4 N 0.5820(4) 0.0422(4) 0.6090(3)
H18_4 H 0.686626 0.013096 0.661996
C24_4 C 0.5045(5) 0.0189(5) 0.6003(4)
H24_4 H 0.467417 0.047801 0.567711
O28_4 O 0.3719(3) 0.8255(3) 0.7184(2)
N3_4 N 0.0996(3) 0.9547(3) 0.6927(2)
H1_4 H 0.108342 0.988184 0.727948
N4_4 N 0.4709(3) 0.9093(3) 0.8155(3)
C2_4 C 0.0681(3) 0.9867(3) 0.6338(3)
N5_4 N 0.2626(3) 0.8906(3) 0.7456(3)
H4_4 H 0.243525 0.926487 0.771946
C6_4 C 0.3405(4) 0.8784(4) 0.7539(3)
C7_4 C 0.3924(3) 0.9307(4) 0.8071(3)
C8_4 C 0.3676(4) 0.9983(4) 0.8452(3)
C9_4 C 0.1207(4) 0.8616(4) 0.6999(3)
H7_4 H 0.112552 0.841331 0.744460
H8_4 H 0.085108 0.828455 0.665553
C10_4 C 0.2075(4) 0.8445(4) 0.6924(3)
H9_4 H 0.215842 0.864158 0.647765
H10_4 H 0.218328 0.782292 0.695732
C11_4 C 0.5220(4) 0.9521(4) 0.8611(3)
H11_4 H 0.576379 0.937867 0.867846
O30_4 O 0.6281(3) 0.8255(3) 0.7816(2)
N9_4 N 0.9004(3) 0.9547(3) 0.8073(2)
H13_4 H 0.891658 0.988184 0.772052
N10_4 N 0.5291(3) 0.9093(3) 0.6845(3)
C14_4 C 0.9319(3) 0.9867(3) 0.8662(3)
N11_4 N 0.7374(3) 0.8906(3) 0.7544(3)
H16_4 H 0.756475 0.926487 0.728054
C18_4 C 0.6595(4) 0.8784(4) 0.7461(3)
C19_4 C 0.6076(3) 0.9307(4) 0.6929(3)
C20_4 C 0.6324(4) 0.9983(4) 0.6548(3)
C21_4 C 0.8793(4) 0.8616(4) 0.8001(3)
H19_4 H 0.887448 0.841331 0.755540
H20_4 H 0.914892 0.828455 0.834447
C22_4 C 0.7925(4) 0.8445(4) 0.8076(3)
H21_4 H 0.784158 0.864158 0.852235
H22_4 H 0.781672 0.782292 0.804268
C23_4 C 0.4780(4) 0.9521(4) 0.6389(3)
H23_4 H 0.423621 0.937867 0.632154
C4_4 C 0.9675(3) 0.1762(3) 0.5544(3)
H3_4 H 0.942406 0.191459 0.510577
C5_4 C 0.9677(3) 0.2347(3) 0.6080(3)
H5_4 H 0.941491 0.288065 0.599354
Cu3_9 Cu -0.000000 1.000000 1.000000
Cu3_10 Cu 1.000000 0.000000 0.000000
loop_
_geom_bond_atom_site_label_1
_geom_bond_atom_site_label_2
_geom_bond_site_symmetry_1
_geom_bond_site_symmetry_2
Mo1 O1 1_555 1_555
Mo2 O2 1_555 1_555
Mo3 O1 1_555 1_555
Mo4 O3 1_555 1_555
O1 Mo6 1_555 1_555
O2 Mo1 1_555 1_555
O3 Mo3 1_555 1_555
O4 Mo2 1_555 1_555
O5 Mo1 1_555 1_555
O6 Mo1 1_555 1_555
O7 Mo2 1_555 1_555
O8 Mo1 1_555 1_555
O9 Mo3 1_555 1_555
O10 Mo4 1_555 1_555
O11 Mo2 1_555 1_555
O12 Mo3 1_555 1_555
O13 Mo4 1_555 1_555
Mo5 O6 1_555 1_555
Mo6 O15 1_555 1_555
Mo7 O2 1_555 1_555
Mo8 O5 1_555 1_555
O14 Mo2 1_555 1_555
O15 Mo3 1_555 1_555
O16 Mo7 1_555 1_555
O17 Mo6 1_555 1_555
O18 Mo4 1_555 1_555
O19 Mo1 1_555 1_555
O20 Mo6 1_555 1_555
O21 Mo5 1_555 1_555
O22 Mo7 1_555 1_555
O23 Mo8 1_555 1_555
O24 Mo6 1_555 1_555
O25 Mo7 1_555 1_555
O26 Mo8 1_555 1_555
Mo2 O6 1_555 1_555
Mo3 O6 1_555 1_555
Mo4 O4 1_555 1_555
Mo4 O6 1_555 1_555
Mo5 O14 1_555 1_555
Mo5 O15 1_555 1_555
Mo5 O18 1_555 1_555
Mo5 O19 1_555 1_555
Mo6 O19 1_555 1_555
Mo7 O14 1_555 1_555
Mo7 O19 1_555 1_555
Mo8 O16 1_555 1_555
Mo8 O17 1_555 1_555
Mo8 O19 1_555 1_555
Mo2_2 O2_2 1_555 1_555
Mo4_2 O3_2 1_555 1_555
O3_2 Mo3_2 1_555 1_555
O4_2 Mo2_2 1_555 1_555
O7_2 Mo2_2 1_555 1_555
O10_2 Mo4_2 1_555 1_555
O11_2 Mo2_2 1_555 1_555
O12_2 Mo3_2 1_555 1_555
O13_2 Mo4_2 1_555 1_555
Mo5_2 O6_2 1_555 1_555
O14_2 Mo2_2 1_555 1_555
O18_2 Mo4_2 1_555 1_555
O21_2 Mo5_2 1_555 1_555
Mo2_2 O6_2 1_555 1_555
Mo3_2 O6_2 1_555 1_555
Mo4_2 O4_2 1_555 1_555
Mo4_2 O6_2 1_555 1_555
Mo5_2 O14_2 1_555 1_555
Mo5_2 O18_2 1_555 1_555
Mo1_2 O1_2 1_555 1_555
O1_2 Mo6_2 1_555 1_555
O5_2 Mo1_2 1_555 1_555
O8_2 Mo1_2 1_555 1_555
Mo6_2 O15_2 1_555 1_555
Mo8_2 O5_2 1_555 1_555
O16_2 Mo7_2 1_555 1_555
O17_2 Mo6_2 1_555 1_555
O19_2 Mo1_2 1_555 1_555
O20_2 Mo6_2 1_555 1_555
O23_2 Mo8_2 1_555 1_555
O24_2 Mo6_2 1_555 1_555
O25_2 Mo7_2 1_555 1_555
O26_2 Mo8_2 1_555 1_555
Mo6_2 O19_2 1_555 1_555
Mo7_2 O19_2 1_555 1_555
Mo8_2 O16_2 1_555 1_555
Mo8_2 O17_2 1_555 1_555
Mo8_2 O19_2 1_555 1_555
Mo1_3 O1_3 1_555 1_555
Mo2_3 O2_3 1_555 1_555
Mo3_3 O1_3 1_555 1_555
Mo4_3 O3_3 1_555 1_555
O1_3 Mo6_3 1_555 1_555
O2_3 Mo1_3 1_555 1_555
O3_3 Mo3_3 1_555 1_555
O4_3 Mo2_3 1_555 1_555
O5_3 Mo1_3 1_555 1_555
O6_3 Mo1_3 1_555 1_555
O7_3 Mo2_3 1_555 1_555
O8_3 Mo1_3 1_555 1_555
O9_3 Mo3_3 1_555 1_555
O10_3 Mo4_3 1_555 1_555
O11_3 Mo2_3 1_555 1_555
O12_3 Mo3_3 1_555 1_555
O13_3 Mo4_3 1_555 1_555
Mo5_3 O6_3 1_555 1_555
Mo6_3 O15_3 1_555 1_555
Mo7_3 O2_3 1_555 1_555
Mo8_3 O5_3 1_555 1_555
O14_3 Mo2_3 1_555 1_555
O15_3 Mo3_3 1_555 1_555
O16_3 Mo7_3 1_555 1_555
O17_3 Mo6_3 1_555 1_555
O18_3 Mo4_3 1_555 1_555
O19_3 Mo1_3 1_555 1_555
O20_3 Mo6_3 1_555 1_555
O21_3 Mo5_3 1_555 1_555
O22_3 Mo7_3 1_555 1_555
O23_3 Mo8_3 1_555 1_555
O24_3 Mo6_3 1_555 1_555
O25_3 Mo7_3 1_555 1_555
O26_3 Mo8_3 1_555 1_555
Mo2_3 O6_3 1_555 1_555
Mo3_3 O6_3 1_555 1_555
Mo4_3 O4_3 1_555 1_555
Mo4_3 O6_3 1_555 1_555
Mo5_3 O14_3 1_555 1_555
Mo5_3 O15_3 1_555 1_555
Mo5_3 O18_3 1_555 1_555
Mo5_3 O19_3 1_555 1_555
Mo6_3 O19_3 1_555 1_555
Mo7_3 O14_3 1_555 1_555
Mo7_3 O19_3 1_555 1_555
Mo8_3 O16_3 1_555 1_555
Mo8_3 O17_3 1_555 1_555
Mo8_3 O19_3 1_555 1_555
Mo2_4 O2_4 1_555 1_555
Mo4_4 O3_4 1_555 1_555
O3_4 Mo3_4 1_555 1_555
O4_4 Mo2_4 1_555 1_555
O7_4 Mo2_4 1_555 1_555
O10_4 Mo4_4 1_555 1_555
O11_4 Mo2_4 1_555 1_555
O12_4 Mo3_4 1_555 1_555
O13_4 Mo4_4 1_555 1_555
Mo5_4 O6_4 1_555 1_555
O14_4 Mo2_4 1_555 1_555
O18_4 Mo4_4 1_555 1_555
O21_4 Mo5_4 1_555 1_555
Mo2_4 O6_4 1_555 1_555
Mo3_4 O6_4 1_555 1_555
Mo4_4 O4_4 1_555 1_555
Mo4_4 O6_4 1_555 1_555
Mo5_4 O14_4 1_555 1_555
Mo5_4 O18_4 1_555 1_555
Mo1_4 O1_4 1_555 1_555
O1_4 Mo6_4 1_555 1_555
O5_4 Mo1_4 1_555 1_555
O8_4 Mo1_4 1_555 1_555
Mo6_4 O15_4 1_555 1_555
Mo8_4 O5_4 1_555 1_555
O16_4 Mo7_4 1_555 1_555
O17_4 Mo6_4 1_555 1_555
O19_4 Mo1_4 1_555 1_555
O20_4 Mo6_4 1_555 1_555
O23_4 Mo8_4 1_555 1_555
O24_4 Mo6_4 1_555 1_555
O25_4 Mo7_4 1_555 1_555
O26_4 Mo8_4 1_555 1_555
Mo6_4 O19_4 1_555 1_555
Mo7_4 O19_4 1_555 1_555
Mo8_4 O16_4 1_555 1_555
Mo8_4 O17_4 1_555 1_555
Mo8_4 O19_4 1_555 1_555
Cu1 O27 1_555 1_555
Cu2 O28 1_555 1_555
O27 C2 1_555 1_555
O28 C6 1_555 1_555
N1 Cu1 1_555 1_555
N2 C1 1_555 1_555
N3 H1 1_555 1_555
N4 Cu2 1_555 1_555
C1 H2 1_555 1_555
C2 N3 1_555 1_555
C3 N1 1_555 1_555
C4 N1 1_555 1_555
H3 C4 1_555 1_555
N5 H4 1_555 1_555
C5 N2 1_555 1_555
H5 C5 1_555 1_555
C6 N5 1_555 1_555
C7 N4 1_555 1_555
N6 C8 1_555 1_555
C8 C7 1_555 1_555
H6 C8 1_555 1_555
C9 N3 1_555 1_555
H7 C9 1_555 1_555
H8 C9 1_555 1_555
C10 N5 1_555 1_555
H9 C10 1_555 1_555
H10 C10 1_555 1_555
C12 N6 1_555 1_555
H23 C23 1_555 1_555
Cu5 N2 1_555 1_555
O31 Cu1 1_555 1_555
N13 Cu1 1_555 1_555
N15 Cu2 1_555 1_555
C1 C3 1_555 1_555
C2 C3 1_555 1_555
C4 C5 1_555 1_555
C6 C7 1_555 1_555
C9 C10 1_555 1_555
H11 C11 1_555 1_555
O29 C14 1_555 1_555
O30 Cu2_2 1_555 1_555
N7 C15 1_555 1_555
N8 C13 1_555 1_555
N9 H13 1_555 1_555
N10 Cu2_2 1_555 1_555
C13 H14 1_555 1_555
C14 N9 1_555 1_555
C15 C13 1_555 1_555
C16 N7 1_555 1_555
H15 C16 1_555 1_555
N11 H16 1_555 1_555
C17 N8 1_555 1_555
H17 C17 1_555 1_555
C18 O30 1_555 1_555
C19 N10 1_555 1_555
N12 C20 1_555 1_555
C20 C19 1_555 1_555
H18 C20 1_555 1_555
C21 N9 1_555 1_555
H19 C21 1_555 1_555
H20 C21 1_555 1_555
C22 N11 1_555 1_555
H21 C22 1_555 1_555
H22 C22 1_555 1_555
C24 N12 1_555 1_555
Cu3 O29 1_555 1_555
Cu5 N8 1_555 1_555
N14 Cu2_2 1_555 1_555
N7 Cu3 1_555 1_555
C14 C15 1_555 1_555
C16 C17 1_555 1_555
N11 C18 1_555 1_555
C18 C19 1_555 1_555
C21 C22 1_555 1_555
O31_2 Cu3_2 1_555 1_555
N13_2 Cu3_2 1_555 1_555
N13_3 Cu1_2 1_555 1_555
H3_2 C4_2 1_555 1_555
H5_2 C5_2 1_555 1_555
O31_3 Cu1_3 1_555 1_555
C4_2 C5_2 1_555 1_555
Cu1_4 O27_2 1_555 1_555
Cu5 O28_2 1_555 1_555
O27_2 C2_2 1_555 1_555
O28_2 C6_2 1_555 1_555
N3_2 H1_2 1_555 1_555
N4_2 Cu5 1_555 1_555
C2_2 N3_2 1_555 1_555
N5_2 H4_2 1_555 1_555
C6_2 N5_2 1_555 1_555
C7_2 N4_2 1_555 1_555
C8_2 C7_2 1_555 1_555
C9_2 N3_2 1_555 1_555
H7_2 C9_2 1_555 1_555
H8_2 C9_2 1_555 1_555
C10_2 N5_2 1_555 1_555
H9_2 C10_2 1_555 1_555
H10_2 C10_2 1_555 1_555
C11_2 N4_2 1_555 1_555
H11_2 C11_2 1_555 1_555
O29_2 C14_2 1_555 1_555
O30_2 Cu5 1_555 1_555
N9_2 H13_2 1_555 1_555
N10_2 Cu5 1_555 1_555
C14_2 N9_2 1_555 1_555
N11_2 H16_2 1_555 1_555
C18_2 O30_2 1_555 1_555
C19_2 N10_2 1_555 1_555
C20_2 C19_2 1_555 1_555
C21_2 N9_2 1_555 1_555
H19_2 C21_2 1_555 1_555
H20_2 C21_2 1_555 1_555
C22_2 N11_2 1_555 1_555
H21_2 C22_2 1_555 1_555
H22_2 C22_2 1_555 1_555
C23_2 N10_2 1_555 1_555
H23_2 C23_2 1_555 1_555
Cu3_3 O29_2 1_555 1_555
C6_2 C7_2 1_555 1_555
C9_2 C10_2 1_555 1_555
N11_2 C18_2 1_555 1_555
C18_2 C19_2 1_555 1_555
C21_2 C22_2 1_555 1_555
N1_2 Cu1_5 1_555 1_555
N14 C1_2 1_555 1_555
C1_2 H2_2 1_555 1_555
C3_2 N1_2 1_555 1_555
C12_2 N6_2 1_555 1_555
H12_2 C12_2 1_555 1_555
N7_2 C15_2 1_555 1_555
N15 C13_2 1_555 1_555
C13_2 H14_2 1_555 1_555
C15_2 C13_2 1_555 1_555
C24_2 N12_2 1_555 1_555
H24_2 C24_2 1_555 1_555
C1_2 C3_2 1_555 1_555
N7_2 Cu3_5 1_555 1_555
H15_2 C16_2 1_555 1_555
H17_2 C17_2 1_555 1_555
C16_2 C17_2 1_555 1_555
N13_4 Cu3_6 1_555 1_555
O31_4 Cu3_8 1_555 1_555
H11_3 C11_3 1_555 1_555
O31_2 C14_3 1_555 1_555
O30_3 Cu2_3 1_555 1_555
N13_2 C15_3 1_555 1_555
N8_2 C13_3 1_555 1_555
N9_3 H13_3 1_555 1_555
N10_3 Cu2_3 1_555 1_555
C13_3 H14_3 1_555 1_555
C14_3 N9_3 1_555 1_555
C15_3 C13_3 1_555 1_555
C16_3 N13_2 1_555 1_555
H15_3 C16_3 1_555 1_555
N11_3 H16_3 1_555 1_555
C17_3 N8_2 1_555 1_555
H17_3 C17_3 1_555 1_555
C18_3 O30_3 1_555 1_555
C19_3 N10_3 1_555 1_555
N12_3 C20_3 1_555 1_555
C20_3 C19_3 1_555 1_555
H18_3 C20_3 1_555 1_555
C21_3 N9_3 1_555 1_555
H19_3 C21_3 1_555 1_555
H20_3 C21_3 1_555 1_555
C22_3 N11_3 1_555 1_555
H21_3 C22_3 1_555 1_555
H22_3 C22_3 1_555 1_555
C24_3 N12_3 1_555 1_555
Cu4 N8_2 1_555 1_555
N14_2 Cu2_3 1_555 1_555
C14_3 C15_3 1_555 1_555
C16_3 C17_3 1_555 1_555
N11_3 C18_3 1_555 1_555
C18_3 C19_3 1_555 1_555
C21_3 C22_3 1_555 1_555
Cu2_4 O28_3 1_555 1_555
O31 C2_3 1_555 1_555
O28_3 C6_3 1_555 1_555
N2_2 C1_3 1_555 1_555
N3_3 H1_3 1_555 1_555
N4_3 Cu2_4 1_555 1_555
C1_3 H2_3 1_555 1_555
C2_3 N3_3 1_555 1_555
C3_3 N13 1_555 1_555
C4_3 N13 1_555 1_555
H3_3 C4_3 1_555 1_555
N5_3 H4_3 1_555 1_555
C5_3 N2_2 1_555 1_555
H5_3 C5_3 1_555 1_555
C6_3 N5_3 1_555 1_555
C7_3 N4_3 1_555 1_555
N6_3 C8_3 1_555 1_555
C8_3 C7_3 1_555 1_555
H6_3 C8_3 1_555 1_555
C9_3 N3_3 1_555 1_555
H7_3 C9_3 1_555 1_555
H8_3 C9_3 1_555 1_555
C10_3 N5_3 1_555 1_555
H9_3 C10_3 1_555 1_555
H10_3 C10_3 1_555 1_555
C12_3 N6_3 1_555 1_555
H23_3 C23_3 1_555 1_555
Cu4 N2_2 1_555 1_555
N15_2 Cu2_4 1_555 1_555
C1_3 C3_3 1_555 1_555
C2_3 C3_3 1_555 1_555
C4_3 C5_3 1_555 1_555
C6_3 C7_3 1_555 1_555
C9_3 C10_3 1_555 1_555
H15_4 C16_4 1_555 1_555
H17_4 C17_4 1_555 1_555
C16_4 C17_4 1_555 1_555
N14_2 C1_4 1_555 1_555
C1_4 H2_4 1_555 1_555
C3_4 N13_3 1_555 1_555
C12_4 N6_4 1_555 1_555
H12_4 C12_4 1_555 1_555
N13_4 C15_4 1_555 1_555
N15_2 C13_4 1_555 1_555
C13_4 H14_4 1_555 1_555
C15_4 C13_4 1_555 1_555
C24_4 N12_4 1_555 1_555
H24_4 C24_4 1_555 1_555
C1_4 C3_4 1_555 1_555
Cu4 O28_4 1_555 1_555
O31_3 C2_4 1_555 1_555
O28_4 C6_4 1_555 1_555
N3_4 H1_4 1_555 1_555
N4_4 Cu4 1_555 1_555
C2_4 N3_4 1_555 1_555
N5_4 H4_4 1_555 1_555
C6_4 N5_4 1_555 1_555
C7_4 N4_4 1_555 1_555
C8_4 C7_4 1_555 1_555
C9_4 N3_4 1_555 1_555
H7_4 C9_4 1_555 1_555
H8_4 C9_4 1_555 1_555
C10_4 N5_4 1_555 1_555
H9_4 C10_4 1_555 1_555
H10_4 C10_4 1_555 1_555
C11_4 N4_4 1_555 1_555
H11_4 C11_4 1_555 1_555
O31_4 C14_4 1_555 1_555
O30_4 Cu4 1_555 1_555
N9_4 H13_4 1_555 1_555
N10_4 Cu4 1_555 1_555
C14_4 N9_4 1_555 1_555
N11_4 H16_4 1_555 1_555
C18_4 O30_4 1_555 1_555
C19_4 N10_4 1_555 1_555
C20_4 C19_4 1_555 1_555
C21_4 N9_4 1_555 1_555
H19_4 C21_4 1_555 1_555
H20_4 C21_4 1_555 1_555
C22_4 N11_4 1_555 1_555
H21_4 C22_4 1_555 1_555
H22_4 C22_4 1_555 1_555
C23_4 N10_4 1_555 1_555
H23_4 C23_4 1_555 1_555
C6_4 C7_4 1_555 1_555
C9_4 C10_4 1_555 1_555
N11_4 C18_4 1_555 1_555
C18_4 C19_4 1_555 1_555
C21_4 C22_4 1_555 1_555
H3_4 C4_4 1_555 1_555
H5_4 C5_4 1_555 1_555
C4_4 C5_4 1_555 1_555

#END
