
###############################################################################
#
# This file contains modified crystal structure data generated from the
# MOF subset of the Cambridge Structural Database (CSD) v543 
# hosted by the Cambridge Crystallographic Data Centre (CCDC).
#
# This work is licensed under the Creative Commons
# Attribution-NonCommercial-ShareAlike 4.0 International License.
# To view a copy of this license, visit
# http://creativecommons.org/licenses/by-nc-sa/4.0/
# or send a letter to
# Creative Commons, PO Box 1866, Mountain View, CA 94042, USA.
#
# CIF created using the CSD Python API on 29 September 2022
# The structure has been converted into the P1 space group
# The structure has a 3D framework
# The original CSD entry EMOFIX is in the monoclinic crystal system
# The framework has been calculated to contain at least 10.0% void space
# The void calculation uses a probe of radius 1.32A, grid spacing 0.4
#
###############################################################################

data_EMOFIX
_chemical_formula_moiety         '(C80 H84 N16 O20 Zn4)n'
_symmetry_cell_setting           triclinic
_symmetry_space_group_name_H-M   'P 1'
_symmetry_Int_Tables_number      1
_space_group_name_Hall           'P 1'
loop_
_symmetry_equiv_pos_site_id
_symmetry_equiv_pos_as_xyz
1 x,y,z
_cell_length_a                   8.045(4)
_cell_length_b                   17.549(8)
_cell_length_c                   18.014(7)
_cell_angle_alpha                90
_cell_angle_beta                 108.093(18)
_cell_angle_gamma                90
_cell_volume                     2417.49
loop_
_atom_site_label
_atom_site_type_symbol
_atom_site_fract_x
_atom_site_fract_y
_atom_site_fract_z
N7 N 0.0578(6) 0.4120(3) 0.2615(3)
C37 C 0.1233(8) 0.4799(4) 0.2457(5)
H38 H 0.2128 0.4854 0.2236
C40 C 0.0388(11) 0.5372(4) 0.2671(6)
H42 H 0.0565 0.5890 0.2617
Zn6 Zn 0.11899(7) 0.30869(3) 0.23341(3)
Zn1 Zn 0.11899(7) 0.19131(3) 0.73341(3)
O1 O 0.2067(5) 0.1830(2) 0.6445(2)
O2 O 0.4456(6) 0.1179(3) 0.7059(2)
O3 O 0.7314(6) 0.0823(3) 0.4903(3)
O4 O 0.0914(5) 0.2677(3) 0.3725(2)
O5 O 0.2867(5) 0.2475(2) 0.3138(2)
C1 C 0.2310(7) 0.2396(3) 0.3717(3)
C2 C 0.3411(6) 0.1954(3) 0.4411(3)
C3 C 0.2955(6) 0.1927(3) 0.5093(3)
H1 H 0.1967 0.2185 0.5123
C4 C 0.3970(6) 0.1519(3) 0.5729(3)
C5 C 0.5880(6) 0.1168(3) 0.5005(3)
C6 C 0.4887(7) 0.1574(3) 0.4371(3)
H2 H 0.5204 0.1594 0.3917
C7 C 0.5435(6) 0.1134(3) 0.5689(3)
H3 H 0.6114 0.0855 0.6115
C8 C 0.3493(6) 0.1494(3) 0.6478(3)
C19 C 0.8412(11) 0.0374(6) 0.5530(4)
H19 H 0.8635 0.0640 0.6024
O12 O 0.2867(5) 0.2525(2) 0.8138(2)
N9 N 0.0578(6) 0.0880(3) 0.7615(3)
C15 C 0.1233(8) 0.0201(4) 0.7457(5)
H13 H 0.2128 0.0146 0.7236
O6 O 0.2067(5) 0.3170(2) 0.1445(2)
O7 O 0.4456(6) 0.3821(3) 0.2059(2)
C23 C 0.2955(6) 0.3073(3) 0.0093(3)
H22 H 0.1967 0.2815 0.0123
C24 C 0.3970(6) 0.3481(3) 0.0729(3)
C25 C 0.5880(6) 0.3832(3) 0.0005(3)
C27 C 0.5435(6) 0.3866(3) 0.0689(3)
H24 H 0.6114 0.4145 0.1115
C28 C 0.3493(6) 0.3506(3) 0.1478(3)
C29 C 0.8412(11) 0.4626(6) 0.0530(4)
H25 H 0.7860 0.5111 0.0565
H26 H 0.8635 0.4360 0.1024
C20 C 0.9835(11) 0.5247(5) 0.9667(5)
H20 H 0.9388 0.5732 0.9780
H21 H 0.8965 0.5020 0.9223
O8 O 0.7314(6) 0.4177(3) 0.9903(3)
O9 O 0.0914(5) 0.2323(3) 0.8725(2)
C21 C 0.2310(7) 0.2604(3) 0.8717(3)
C22 C 0.3411(6) 0.3046(3) 0.9411(3)
C26 C 0.4887(7) 0.3426(3) 0.9371(3)
H23 H 0.5204 0.3406 0.8917
N5 N 0.1025(6) 0.7510(2) 0.3174(3)
N6 N 0.3579(7) 0.6983(3) 0.3374(3)
N8 N 0.9220(8) 0.5051(3) 0.2982(4)
C31 C 0.3142(9) 0.6867(4) 0.4030(4)
H29 H 0.3794 0.6608 0.4475
C32 C 0.1544(8) 0.7209(4) 0.3908(4)
H30 H 0.0922 0.7231 0.4265
C33 C 0.2295(7) 0.7364(3) 0.2875(4)
H31 H 0.2286 0.7509 0.2377
C34 C 0.5153(8) 0.6703(4) 0.3208(5)
H32 H 0.6118 0.6676 0.3690
H33 H 0.5472 0.7056 0.2860
C35 C 0.4834(9) 0.5938(4) 0.2841(5)
H34 H 0.4596 0.5583 0.3208
H35 H 0.3798 0.5962 0.2387
C36 C 0.6352(9) 0.5629(4) 0.2587(4)
H36 H 0.6674 0.6005 0.2261
H37 H 0.5973 0.5173 0.2277
C38 C 0.9348(10) 0.4300(4) 0.2915(5)
H39 H 0.8649 0.3947 0.3063
C39 C 0.7905(11) 0.5447(5) 0.3262(4)
H40 H 0.8400 0.5912 0.3531
H41 H 0.7565 0.5123 0.3627
C20_2 C 0.0165(11) 0.0247(5) 0.5333(5)
H20_2 H 0.0612 0.0732 0.5220
H21_2 H 0.1035 0.0020 0.5777
H25_2 H 0.2140 0.0111 0.4435
O6_2 O 0.7933(5) 0.8170(2) 0.3555(2)
O7_2 O 0.5544(6) 0.8821(3) 0.2941(2)
O8_2 O 0.2686(6) 0.9177(3) 0.5097(3)
O9_2 O 0.9086(5) 0.7323(3) 0.6275(2)
O10 O 0.7133(5) 0.7525(2) 0.6862(2)
C21_2 C 0.7690(7) 0.7604(3) 0.6283(3)
C22_2 C 0.6589(6) 0.8046(3) 0.5589(3)
C23_2 C 0.7045(6) 0.8073(3) 0.4907(3)
H22_2 H 0.8033 0.7815 0.4877
C24_2 C 0.6030(6) 0.8481(3) 0.4271(3)
C25_2 C 0.4120(6) 0.8832(3) 0.4995(3)
C26_2 C 0.5113(7) 0.8426(3) 0.5629(3)
H23_2 H 0.4796 0.8406 0.6083
C27_2 C 0.4565(6) 0.8866(3) 0.4311(3)
H24_2 H 0.3886 0.9145 0.3885
C28_2 C 0.6507(6) 0.8506(3) 0.3522(3)
C29_2 C 0.1588(11) 0.9626(6) 0.4470(4)
H26_2 H 0.1365 0.9360 0.3976
Zn2 Zn 0.88101(7) 0.80869(3) 0.26659(3)
Zn4 Zn 0.88101(7) 0.69131(3) 0.76659(3)
O11 O 0.7133(5) 0.7475(2) 0.1862(2)
N10 N 0.9422(6) 0.9120(3) 0.2385(3)
N3 N 0.9422(6) 0.5880(3) 0.7385(3)
C15_2 C 0.8767(8) 0.5201(4) 0.7543(5)
H13_2 H 0.7872 0.5146 0.7764
C18 C 0.9612(11) 0.4628(4) 0.7329(6)
H17 H 0.9435 0.4110 0.7383
O3_2 O 0.2686(6) 0.5823(3) 0.0097(3)
O4_2 O 0.9086(5) 0.7677(3) 0.1275(2)
C1_2 C 0.7690(7) 0.7396(3) 0.1283(3)
C2_2 C 0.6589(6) 0.6954(3) 0.0589(3)
C6_2 C 0.5113(7) 0.6574(3) 0.0629(3)
H2_2 H 0.4796 0.6594 0.1083
C30 C 0.0165(11) 0.4753(5) 0.0333(5)
H27 H 0.0612 0.4268 0.0220
H28 H 0.1035 0.4980 0.0777
O1_2 O 0.7933(5) 0.6830(2) 0.8555(2)
O2_2 O 0.5544(6) 0.6179(3) 0.7941(2)
C3_2 C 0.7045(6) 0.6927(3) 0.9907(3)
H1_2 H 0.8033 0.7185 0.9877
C4_2 C 0.6030(6) 0.6519(3) 0.9271(3)
C5_2 C 0.4120(6) 0.6168(3) 0.9995(3)
C7_2 C 0.4565(6) 0.6134(3) 0.9311(3)
H3_2 H 0.3886 0.5855 0.8885
C8_2 C 0.6507(6) 0.6494(3) 0.8522(3)
C19_2 C 0.1588(11) 0.5374(6) 0.9470(4)
H18 H 0.2140 0.4889 0.9435
H19_2 H 0.1365 0.5640 0.8976
C37_2 C 0.8767(8) 0.9799(4) 0.2543(5)
H38_2 H 0.7872 0.9854 0.2764
H18_2 H 0.7860 0.9889 0.5565
C30_2 C 0.9835(11) 0.9753(5) 0.4667(5)
H27_2 H 0.9388 0.9268 0.4780
H28_2 H 0.8965 0.9980 0.4223
N1 N 0.8975(6) 0.2490(2) 0.6826(3)
N2 N 0.6421(7) 0.3017(3) 0.6626(3)
N4 N 0.0780(8) 0.4949(3) 0.7018(4)
C9 C 0.6858(9) 0.3133(4) 0.5970(4)
H4 H 0.6206 0.3392 0.5525
C10 C 0.8456(8) 0.2791(4) 0.6092(4)
H5 H 0.9078 0.2769 0.5735
C11 C 0.7705(7) 0.2636(3) 0.7125(4)
H6 H 0.7714 0.2491 0.7623
C12 C 0.4847(8) 0.3297(4) 0.6792(5)
H7 H 0.3882 0.3324 0.6310
H8 H 0.4528 0.2944 0.7140
C13 C 0.5166(9) 0.4062(4) 0.7159(5)
H9 H 0.5404 0.4417 0.6792
H10 H 0.6202 0.4038 0.7613
C14 C 0.3648(9) 0.4371(4) 0.7413(4)
H11 H 0.3326 0.3995 0.7739
H12 H 0.4027 0.4827 0.7723
C16 C 0.0652(10) 0.5700(4) 0.7085(5)
H14 H 0.1351 0.6053 0.6937
C17 C 0.2095(11) 0.4553(5) 0.6738(4)
H15 H 0.1600 0.4088 0.6469
H16 H 0.2435 0.4877 0.6373
C18_2 C 0.0388(11) 0.9628(4) 0.7671(6)
H17_2 H 0.0565 0.9110 0.7617
C16_2 C 0.9348(10) 0.0700(4) 0.7915(5)
H14_2 H 0.8649 0.1053 0.8063
N1_2 N 0.1025(6) 0.7490(2) 0.8174(3)
N2_2 N 0.3579(7) 0.8017(3) 0.8374(3)
N4_2 N 0.9220(8) 0.9949(3) 0.7982(4)
C9_2 C 0.3142(9) 0.8133(4) 0.9030(4)
H4_2 H 0.3794 0.8392 0.9475
C10_2 C 0.1544(8) 0.7791(4) 0.8908(4)
H5_2 H 0.0922 0.7769 0.9265
C11_2 C 0.2295(7) 0.7636(3) 0.7875(4)
H6_2 H 0.2286 0.7491 0.7377
C12_2 C 0.5153(8) 0.8297(4) 0.8208(5)
H7_2 H 0.6118 0.8324 0.8690
H8_2 H 0.5472 0.7944 0.7860
C13_2 C 0.4834(9) 0.9062(4) 0.7841(5)
H9_2 H 0.4596 0.9417 0.8208
H10_2 H 0.3798 0.9038 0.7387
C14_2 C 0.6352(9) 0.9371(4) 0.7587(4)
H11_2 H 0.6674 0.8995 0.7261
H12_2 H 0.5973 0.9827 0.7277
C17_2 C 0.7905(11) 0.9553(5) 0.8262(4)
H15_2 H 0.8400 0.9088 0.8531
H16_2 H 0.7565 0.9877 0.8627
N5_2 N 0.8975(6) 0.2510(2) 0.1826(3)
N6_2 N 0.6421(7) 0.1983(3) 0.1626(3)
N8_2 N 0.0780(8) 0.0051(3) 0.2018(4)
C31_2 C 0.6858(9) 0.1867(4) 0.0970(4)
H29_2 H 0.6206 0.1608 0.0525
C32_2 C 0.8456(8) 0.2209(4) 0.1092(4)
H30_2 H 0.9078 0.2231 0.0735
C33_2 C 0.7705(7) 0.2364(3) 0.2125(4)
H31_2 H 0.7714 0.2509 0.2623
C34_2 C 0.4847(8) 0.1703(4) 0.1792(5)
H32_2 H 0.3882 0.1676 0.1310
H33_2 H 0.4528 0.2056 0.2140
C35_2 C 0.5166(9) 0.0938(4) 0.2159(5)
H34_2 H 0.5404 0.0583 0.1792
H35_2 H 0.6202 0.0962 0.2613
C36_2 C 0.3648(9) 0.0629(4) 0.2413(4)
H36_2 H 0.3326 0.1005 0.2739
H37_2 H 0.4027 0.0173 0.2723
C39_2 C 0.2095(11) 0.0447(5) 0.1738(4)
H40_2 H 0.1600 0.0912 0.1469
H41_2 H 0.2435 0.0123 0.1373
C38_2 C 0.0652(10) 0.9300(4) 0.2085(5)
H39_2 H 0.1351 0.8947 0.1937
C40_2 C 0.9612(11) 0.0372(4) 0.2329(6)
H42_2 H 0.9435 0.0890 0.2383
loop_
_geom_bond_atom_site_label_1
_geom_bond_atom_site_label_2
_geom_bond_site_symmetry_1
_geom_bond_site_symmetry_2
N7 C37 1_555 1_555
C37 H38 1_555 1_555
H42 C40 1_555 1_555
Zn6 N7 1_555 1_555
C37 C40 1_555 1_555
Zn1 O1 1_555 1_555
O1 C8 1_555 1_555
O2 C8 1_555 1_555
O3 C5 1_555 1_555
O4 C1 1_555 1_555
O5 C1 1_555 1_555
C1 C2 1_555 1_555
C2 C3 1_555 1_555
C3 H1 1_555 1_555
C4 C3 1_555 1_555
C5 C6 1_555 1_555
C6 C2 1_555 1_555
H2 C6 1_555 1_555
C7 C4 1_555 1_555
H3 C7 1_555 1_555
C8 C4 1_555 1_555
C19 O3 1_555 1_555
H19 C19 1_555 1_555
Zn6 O5 1_555 1_555
O12 Zn1 1_555 1_555
N9 Zn1 1_555 1_555
C5 C7 1_555 1_555
N9 C15 1_555 1_555
C15 H13 1_555 1_555
O6 C28 1_555 1_555
O7 C28 1_555 1_555
C23 H22 1_555 1_555
C24 C23 1_555 1_555
C27 C24 1_555 1_555
H24 C27 1_555 1_555
C28 C24 1_555 1_555
H25 C29 1_555 1_555
H26 C29 1_555 1_555
Zn6 O6 1_555 1_555
C25 C27 1_555 1_555
H20 C20 1_555 1_555
H21 C20 1_555 1_555
O9 C21 1_555 1_555
O12 C21 1_555 1_555
C21 C22 1_555 1_555
C26 C22 1_555 1_555
H23 C26 1_555 1_555
N6 C31 1_555 1_555
N8 C38 1_555 1_555
C31 H29 1_555 1_555
C32 N5 1_555 1_555
H30 C32 1_555 1_555
C33 N5 1_555 1_555
H31 C33 1_555 1_555
C34 N6 1_555 1_555
H32 C34 1_555 1_555
H33 C34 1_555 1_555
C35 C34 1_555 1_555
H34 C35 1_555 1_555
H35 C35 1_555 1_555
C36 C35 1_555 1_555
H36 C36 1_555 1_555
H37 C36 1_555 1_555
H39 C38 1_555 1_555
C39 N8 1_555 1_555
H40 C39 1_555 1_555
H41 C39 1_555 1_555
N6 C33 1_555 1_555
C31 C32 1_555 1_555
C36 C39 1_555 1_555
H20_2 C20_2 1_555 1_555
H21_2 C20_2 1_555 1_555
O6_2 C28_2 1_555 1_555
O7_2 C28_2 1_555 1_555
O8_2 C25_2 1_555 1_555
O9_2 C21_2 1_555 1_555
O10 C21_2 1_555 1_555
C21_2 C22_2 1_555 1_555
C22_2 C23_2 1_555 1_555
C23_2 H22_2 1_555 1_555
C24_2 C23_2 1_555 1_555
C25_2 C26_2 1_555 1_555
C26_2 C22_2 1_555 1_555
H23_2 C26_2 1_555 1_555
C27_2 C24_2 1_555 1_555
H24_2 C27_2 1_555 1_555
C28_2 C24_2 1_555 1_555
C29_2 O8_2 1_555 1_555
H26_2 C29_2 1_555 1_555
Zn2 O6_2 1_555 1_555
Zn4 O10 1_555 1_555
O11 Zn2 1_555 1_555
N10 Zn2 1_555 1_555
C25_2 C27_2 1_555 1_555
N3 C15_2 1_555 1_555
C15_2 H13_2 1_555 1_555
H17 C18 1_555 1_555
Zn4 N3 1_555 1_555
C15_2 C18 1_555 1_555
O4_2 C1_2 1_555 1_555
O11 C1_2 1_555 1_555
C1_2 C2_2 1_555 1_555
C6_2 C2_2 1_555 1_555
H2_2 C6_2 1_555 1_555
H27 C30 1_555 1_555
H28 C30 1_555 1_555
Zn4 O1_2 1_555 1_555
O1_2 C8_2 1_555 1_555
O2_2 C8_2 1_555 1_555
C3_2 H1_2 1_555 1_555
C4_2 C3_2 1_555 1_555
C7_2 C4_2 1_555 1_555
H3_2 C7_2 1_555 1_555
C8_2 C4_2 1_555 1_555
H18 C19_2 1_555 1_555
H19_2 C19_2 1_555 1_555
C5_2 C7_2 1_555 1_555
N10 C37_2 1_555 1_555
C37_2 H38_2 1_555 1_555
H27_2 C30_2 1_555 1_555
H28_2 C30_2 1_555 1_555
N2 C9 1_555 1_555
N4 C16 1_555 1_555
C9 H4 1_555 1_555
C10 N1 1_555 1_555
H5 C10 1_555 1_555
C11 N1 1_555 1_555
H6 C11 1_555 1_555
C12 N2 1_555 1_555
H7 C12 1_555 1_555
H8 C12 1_555 1_555
C13 C12 1_555 1_555
H9 C13 1_555 1_555
H10 C13 1_555 1_555
C14 C13 1_555 1_555
H11 C14 1_555 1_555
H12 C14 1_555 1_555
H14 C16 1_555 1_555
C17 N4 1_555 1_555
H15 C17 1_555 1_555
H16 C17 1_555 1_555
N2 C11 1_555 1_555
C9 C10 1_555 1_555
C14 C17 1_555 1_555
H17_2 C18_2 1_555 1_555
H14_2 C16_2 1_555 1_555
N2_2 C9_2 1_555 1_555
C9_2 H4_2 1_555 1_555
C10_2 N1_2 1_555 1_555
H5_2 C10_2 1_555 1_555
C11_2 N1_2 1_555 1_555
H6_2 C11_2 1_555 1_555
C12_2 N2_2 1_555 1_555
H7_2 C12_2 1_555 1_555
H8_2 C12_2 1_555 1_555
C13_2 C12_2 1_555 1_555
H9_2 C13_2 1_555 1_555
H10_2 C13_2 1_555 1_555
C14_2 C13_2 1_555 1_555
H11_2 C14_2 1_555 1_555
H12_2 C14_2 1_555 1_555
C17_2 N4_2 1_555 1_555
H15_2 C17_2 1_555 1_555
H16_2 C17_2 1_555 1_555
N2_2 C11_2 1_555 1_555
C9_2 C10_2 1_555 1_555
C14_2 C17_2 1_555 1_555
N6_2 C31_2 1_555 1_555
C31_2 H29_2 1_555 1_555
C32_2 N5_2 1_555 1_555
H30_2 C32_2 1_555 1_555
C33_2 N5_2 1_555 1_555
H31_2 C33_2 1_555 1_555
C34_2 N6_2 1_555 1_555
H32_2 C34_2 1_555 1_555
H33_2 C34_2 1_555 1_555
C35_2 C34_2 1_555 1_555
H34_2 C35_2 1_555 1_555
H35_2 C35_2 1_555 1_555
C36_2 C35_2 1_555 1_555
H36_2 C36_2 1_555 1_555
H37_2 C36_2 1_555 1_555
C39_2 N8_2 1_555 1_555
H40_2 C39_2 1_555 1_555
H41_2 C39_2 1_555 1_555
N6_2 C33_2 1_555 1_555
C31_2 C32_2 1_555 1_555
C36_2 C39_2 1_555 1_555
H39_2 C38_2 1_555 1_555
H42_2 C40_2 1_555 1_555

#END
