
###############################################################################
#
# This file contains modified crystal structure data generated from the
# MOF subset of the Cambridge Structural Database (CSD) v543 
# hosted by the Cambridge Crystallographic Data Centre (CCDC).
#
# This work is licensed under the Creative Commons
# Attribution-NonCommercial-ShareAlike 4.0 International License.
# To view a copy of this license, visit
# http://creativecommons.org/licenses/by-nc-sa/4.0/
# or send a letter to
# Creative Commons, PO Box 1866, Mountain View, CA 94042, USA.
#
# CIF created using the CSD Python API on 29 September 2022
# The structure has been converted into the P1 space group
# The structure has a 3D framework
# The original CSD entry EMUBIZ is in the tetragonal crystal system
# The framework has been calculated to contain at least 10.0% void space
# The void calculation uses a probe of radius 1.32A, grid spacing 0.4
# H atom positions have been added when not included in the experimental data
# Generated hydrogen atom positions removed from atoms on special positions
#
###############################################################################

data_EMUBIZ
_chemical_formula_moiety         '(C56 H56 Cu16 N8 O36)n'
_symmetry_cell_setting           triclinic
_symmetry_space_group_name_H-M   'P 1'
_symmetry_Int_Tables_number      1
_space_group_name_Hall           'P 1'
loop_
_symmetry_equiv_pos_site_id
_symmetry_equiv_pos_as_xyz
1 x,y,z
_cell_length_a                   19.210(5)
_cell_length_b                   19.210(5)
_cell_length_c                   10.994(3)
_cell_angle_alpha                90
_cell_angle_beta                 90
_cell_angle_gamma                90
_cell_volume                     4057.05
loop_
_atom_site_label
_atom_site_type_symbol
_atom_site_fract_x
_atom_site_fract_y
_atom_site_fract_z
Cu1 Cu 0.68147(5) 0.2500 0.08659(9)
Cu2 Cu 0.46954(2) 0.46954(2) 0.59500(7)
O1 O 0.42899(19) 0.42899(19) 0.7633(5)
O2 O 0.48383(16) 0.38168(14) 0.5082(3)
O3 O 0.53560(16) 0.43335(14) 0.3506(3)
N1 N 0.6038(3) 0.2500 0.2125(6)
C1 C 0.5797(3) 0.3096(2) 0.2599(4)
H1 H 0.5943 0.3514 0.2259
C2 C 0.5342(2) 0.3116(2) 0.3568(4)
C3 C 0.5115(3) 0.2500 0.4069(6)
H2 H 0.4814 0.2500 0.4732
C4 C 0.5149(2) 0.3814(2) 0.4095(5)
O4 O 0.48383(16) 0.11832(14) 0.5082(3)
O5 O 0.53560(16) 0.06665(14) 0.3506(3)
C5 C 0.5797(3) 0.1904(2) 0.2599(4)
H3 H 0.5943 0.1486 0.2259
C6 C 0.5342(2) 0.1884(2) 0.3568(4)
C7 C 0.5149(2) 0.1186(2) 0.4095(5)
I2 I 0.7500 0.12904(2) 0.13589(5)
I3 I 0.7500 0.37096(2) 0.13589(5)
Cu5 Cu 0.46954(2) 0.03046(2) 0.59500(7)
Cu7 Cu 0.53046(2) 0.53046(2) 0.40500(7)
O6 O 0.38168(14) 0.48383(16) 0.5082(3)
O7 O 0.56665(14) 0.46440(16) 0.6494(3)
O8 O 0.46440(16) 0.56665(14) 0.6494(3)
I1 I 0.62904(2) 0.2500 0.86411(5)
Cu3 Cu 0.7500 0.18147(5) 0.91341(9)
Cu4 Cu 0.7500 0.31853(5) 0.91341(9)
Cu6 Cu 0.53046(2) 0.96954(2) 0.40500(7)
Cu2_2 Cu 0.03046(2) 0.03046(2) 0.59500(7)
O1_2 O 0.07101(19) 0.07101(19) 0.7633(5)
O2_2 O 0.01617(16) 0.11832(14) 0.5082(3)
H2_2 H 0.0186 0.2500 0.4732
O4_2 O 0.01617(16) 0.38168(14) 0.5082(3)
Cu5_2 Cu 0.03046(2) 0.46954(2) 0.59500(7)
O6_2 O 0.11832(14) 0.01617(16) 0.5082(3)
O8_2 O 0.03560(16) 0.93335(14) 0.6494(3)
Cu1_2 Cu 0.81853(5) 0.2500 0.08659(9)
O3_2 O 0.96440(16) 0.06665(14) 0.3506(3)
N1_2 N 0.8962(3) 0.2500 0.2125(6)
C1_2 C 0.9203(3) 0.1904(2) 0.2599(4)
H1_2 H 0.9057 0.1486 0.2259
C2_2 C 0.9658(2) 0.1884(2) 0.3568(4)
C3_2 C 0.9885(3) 0.2500 0.4069(6)
C4_2 C 0.9851(2) 0.1186(2) 0.4095(5)
O5_2 O 0.96440(16) 0.43335(14) 0.3506(3)
C5_2 C 0.9203(3) 0.3096(2) 0.2599(4)
H3_2 H 0.9057 0.3514 0.2259
C6_2 C 0.9658(2) 0.3116(2) 0.3568(4)
C7_2 C 0.9851(2) 0.3814(2) 0.4095(5)
Cu6_2 Cu 0.96954(2) 0.53046(2) 0.40500(7)
O7_2 O 0.93335(14) 0.03560(16) 0.6494(3)
I1_2 I 0.87096(2) 0.2500 0.86411(5)
Cu7_2 Cu 0.96954(2) 0.96954(2) 0.40500(7)
Cu1_3 Cu 0.2500 0.68147(5) 0.08659(9)
O1_3 O 0.07101(19) 0.42899(19) 0.7633(5)
O2_3 O 0.11832(14) 0.48383(16) 0.5082(3)
O3_3 O 0.06665(14) 0.53560(16) 0.3506(3)
N1_3 N 0.2500 0.6038(3) 0.2125(6)
C1_3 C 0.1904(2) 0.5797(3) 0.2599(4)
H1_3 H 0.1486 0.5943 0.2259
C2_3 C 0.1884(2) 0.5342(2) 0.3568(4)
C3_3 C 0.2500 0.5115(3) 0.4069(6)
H2_3 H 0.2500 0.4814 0.4732
C4_3 C 0.1186(2) 0.5149(2) 0.4095(5)
O5_3 O 0.43335(14) 0.53560(16) 0.3506(3)
C5_3 C 0.3096(2) 0.5797(3) 0.2599(4)
H3_3 H 0.3514 0.5943 0.2259
C6_3 C 0.3116(2) 0.5342(2) 0.3568(4)
C7_3 C 0.3814(2) 0.5149(2) 0.4095(5)
I2_2 I 0.37096(2) 0.7500 0.13589(5)
I3_2 I 0.12904(2) 0.7500 0.13589(5)
O7_3 O 0.03560(16) 0.56665(14) 0.6494(3)
I1_3 I 0.2500 0.62904(2) 0.86411(5)
Cu3_2 Cu 0.31853(5) 0.7500 0.91341(9)
Cu4_2 Cu 0.18147(5) 0.7500 0.91341(9)
O8_3 O 0.93335(14) 0.46440(16) 0.6494(3)
O1_4 O 0.42899(19) 0.07101(19) 0.7633(5)
O2_4 O 0.38168(14) 0.01617(16) 0.5082(3)
H2_4 H 0.2500 0.0186 0.4732
O8_4 O 0.56665(14) 0.03560(16) 0.6494(3)
Cu1_4 Cu 0.2500 0.81853(5) 0.08659(9)
O3_4 O 0.43335(14) 0.96440(16) 0.3506(3)
N1_4 N 0.2500 0.8962(3) 0.2125(6)
C1_4 C 0.3096(2) 0.9203(3) 0.2599(4)
H1_4 H 0.3514 0.9057 0.2259
C2_4 C 0.3116(2) 0.9658(2) 0.3568(4)
C3_4 C 0.2500 0.9885(3) 0.4069(6)
C4_4 C 0.3814(2) 0.9851(2) 0.4095(5)
O5_4 O 0.06665(14) 0.96440(16) 0.3506(3)
C5_4 C 0.1904(2) 0.9203(3) 0.2599(4)
H3_4 H 0.1486 0.9057 0.2259
C6_4 C 0.1884(2) 0.9658(2) 0.3568(4)
C7_4 C 0.1186(2) 0.9851(2) 0.4095(5)
O7_4 O 0.46440(16) 0.93335(14) 0.6494(3)
I1_4 I 0.2500 0.87096(2) 0.86411(5)
O1_5 O 0.57101(19) 0.92899(19) 0.2367(5)
O2_5 O 0.51617(16) 0.88168(14) 0.4918(3)
N1_5 N 0.3962(3) 0.7500 0.7875(6)
C1_5 C 0.4203(3) 0.8096(2) 0.7401(4)
H1_5 H 0.4057 0.8514 0.7741
C2_5 C 0.4658(2) 0.8116(2) 0.6432(4)
C3_5 C 0.4885(3) 0.7500 0.5931(6)
H2_5 H 0.5186 0.7500 0.5268
C4_5 C 0.4851(2) 0.8814(2) 0.5905(5)
O4_3 O 0.51617(16) 0.61832(14) 0.4918(3)
C5_5 C 0.4203(3) 0.6904(2) 0.7401(4)
H3_5 H 0.4057 0.6486 0.7741
C6_5 C 0.4658(2) 0.6884(2) 0.6432(4)
C7_5 C 0.4851(2) 0.6186(2) 0.5905(5)
O6_3 O 0.61832(14) 0.98383(16) 0.4918(3)
N1_6 N 0.1038(3) 0.7500 0.7875(6)
C1_6 C 0.0797(3) 0.6904(2) 0.7401(4)
H1_6 H 0.0943 0.6486 0.7741
C2_6 C 0.0342(2) 0.6884(2) 0.6432(4)
C3_6 C 0.0115(3) 0.7500 0.5931(6)
C4_6 C 0.0149(2) 0.6186(2) 0.5905(5)
C5_6 C 0.0797(3) 0.8096(2) 0.7401(4)
H3_6 H 0.0943 0.8514 0.7741
C6_6 C 0.0342(2) 0.8116(2) 0.6432(4)
C7_6 C 0.0149(2) 0.8814(2) 0.5905(5)
O1_6 O 0.92899(19) 0.57101(19) 0.2367(5)
O2_6 O 0.98383(16) 0.61832(14) 0.4918(3)
H2_6 H 0.9814 0.7500 0.5268
O4_4 O 0.98383(16) 0.88168(14) 0.4918(3)
O6_4 O 0.88168(14) 0.51617(16) 0.4918(3)
N1_7 N 0.7500 0.1038(3) 0.7875(6)
C1_7 C 0.8096(2) 0.0797(3) 0.7401(4)
H1_7 H 0.8514 0.0943 0.7741
C2_7 C 0.8116(2) 0.0342(2) 0.6432(4)
C3_7 C 0.7500 0.0115(3) 0.5931(6)
C4_7 C 0.8814(2) 0.0149(2) 0.5905(5)
C5_7 C 0.6904(2) 0.0797(3) 0.7401(4)
H3_7 H 0.6486 0.0943 0.7741
C6_7 C 0.6884(2) 0.0342(2) 0.6432(4)
C7_7 C 0.6186(2) 0.0149(2) 0.5905(5)
O1_7 O 0.92899(19) 0.92899(19) 0.2367(5)
O2_7 O 0.88168(14) 0.98383(16) 0.4918(3)
H2_7 H 0.7500 0.9814 0.5268
O1_8 O 0.57101(19) 0.57101(19) 0.2367(5)
O2_8 O 0.61832(14) 0.51617(16) 0.4918(3)
N1_8 N 0.7500 0.3962(3) 0.7875(6)
C1_8 C 0.6904(2) 0.4203(3) 0.7401(4)
H1_8 H 0.6486 0.4057 0.7741
C2_8 C 0.6884(2) 0.4658(2) 0.6432(4)
C3_8 C 0.7500 0.4885(3) 0.5931(6)
H2_8 H 0.7500 0.5186 0.5268
C4_8 C 0.6186(2) 0.4851(2) 0.5905(5)
C5_8 C 0.8096(2) 0.4203(3) 0.7401(4)
H3_8 H 0.8514 0.4057 0.7741
C6_8 C 0.8116(2) 0.4658(2) 0.6432(4)
C7_8 C 0.8814(2) 0.4851(2) 0.5905(5)
loop_
_geom_bond_atom_site_label_1
_geom_bond_atom_site_label_2
_geom_bond_site_symmetry_1
_geom_bond_site_symmetry_2
Cu1 N1 1_555 1_555
Cu2 O1 1_555 1_555
O2 Cu2 1_555 1_555
O3 C4 1_555 1_555
N1 C1 1_555 1_555
C1 H1 1_555 1_555
C2 C1 1_555 1_555
C3 C2 1_555 1_555
H2 C3 1_555 1_555
C4 O2 1_555 1_555
O4 C7 1_555 1_555
O5 C7 1_555 1_555
C5 N1 1_555 1_555
H3 C5 1_555 1_555
C6 C3 1_555 1_555
C7 C6 1_555 1_555
I2 Cu1 1_555 1_555
I3 Cu1 1_555 1_555
Cu5 O4 1_555 1_555
Cu7 O3 1_555 1_555
O6 Cu2 1_555 1_555
O7 Cu2 1_555 1_555
O8 Cu2 1_555 1_555
C2 C4 1_555 1_555
C5 C6 1_555 1_555
Cu3 I1 1_555 1_555
Cu4 I1 1_555 1_555
Cu2_2 O1_2 1_555 1_555
O2_2 Cu2_2 1_555 1_555
Cu5_2 O4_2 1_555 1_555
O6_2 Cu2_2 1_555 1_555
Cu1_2 N1_2 1_555 1_555
O3_2 C4_2 1_555 1_555
N1_2 C1_2 1_555 1_555
C1_2 H1_2 1_555 1_555
C2_2 C1_2 1_555 1_555
C3_2 C2_2 1_555 1_555
O5_2 C7_2 1_555 1_555
C5_2 N1_2 1_555 1_555
H3_2 C5_2 1_555 1_555
C6_2 C3_2 1_555 1_555
C7_2 C6_2 1_555 1_555
I3 Cu1_2 1_555 1_555
I2 Cu1_2 1_555 1_555
Cu6_2 O5_2 1_555 1_555
C2_2 C4_2 1_555 1_555
C5_2 C6_2 1_555 1_555
Cu4 I1_2 1_555 1_555
Cu3 I1_2 1_555 1_555
Cu1_3 N1_3 1_555 1_555
Cu5_2 O1_3 1_555 1_555
O2_3 Cu5_2 1_555 1_555
O3_3 C4_3 1_555 1_555
N1_3 C1_3 1_555 1_555
C1_3 H1_3 1_555 1_555
C2_3 C1_3 1_555 1_555
C3_3 C2_3 1_555 1_555
H2_3 C3_3 1_555 1_555
C4_3 O2_3 1_555 1_555
O6 C7_3 1_555 1_555
O5_3 C7_3 1_555 1_555
C5_3 N1_3 1_555 1_555
H3_3 C5_3 1_555 1_555
C6_3 C3_3 1_555 1_555
C7_3 C6_3 1_555 1_555
I2_2 Cu1_3 1_555 1_555
I3_2 Cu1_3 1_555 1_555
Cu7 O5_3 1_555 1_555
O7_3 Cu5_2 1_555 1_555
C2_3 C4_3 1_555 1_555
C5_3 C6_3 1_555 1_555
Cu3_2 I1_3 1_555 1_555
Cu4_2 I1_3 1_555 1_555
Cu5 O1_4 1_555 1_555
O2_4 Cu5 1_555 1_555
O8_4 Cu5 1_555 1_555
Cu1_4 N1_4 1_555 1_555
O3_4 C4_4 1_555 1_555
N1_4 C1_4 1_555 1_555
C1_4 H1_4 1_555 1_555
C2_4 C1_4 1_555 1_555
C3_4 C2_4 1_555 1_555
O5_4 C7_4 1_555 1_555
C5_4 N1_4 1_555 1_555
H3_4 C5_4 1_555 1_555
C6_4 C3_4 1_555 1_555
C7_4 C6_4 1_555 1_555
I3_2 Cu1_4 1_555 1_555
I2_2 Cu1_4 1_555 1_555
Cu6 O3_4 1_555 1_555
C2_4 C4_4 1_555 1_555
C5_4 C6_4 1_555 1_555
Cu4_2 I1_4 1_555 1_555
Cu3_2 I1_4 1_555 1_555
Cu3_2 N1_5 1_555 1_555
Cu6 O1_5 1_555 1_555
O2_5 Cu6 1_555 1_555
O7_4 C4_5 1_555 1_555
N1_5 C1_5 1_555 1_555
C1_5 H1_5 1_555 1_555
C2_5 C1_5 1_555 1_555
C3_5 C2_5 1_555 1_555
H2_5 C3_5 1_555 1_555
C4_5 O2_5 1_555 1_555
O4_3 C7_5 1_555 1_555
O8 C7_5 1_555 1_555
C5_5 N1_5 1_555 1_555
H3_5 C5_5 1_555 1_555
C6_5 C3_5 1_555 1_555
C7_5 C6_5 1_555 1_555
Cu7 O4_3 1_555 1_555
O6_3 Cu6 1_555 1_555
C2_5 C4_5 1_555 1_555
C5_5 C6_5 1_555 1_555
Cu4_2 N1_6 1_555 1_555
O7_3 C4_6 1_555 1_555
N1_6 C1_6 1_555 1_555
C1_6 H1_6 1_555 1_555
C2_6 C1_6 1_555 1_555
C3_6 C2_6 1_555 1_555
O8_2 C7_6 1_555 1_555
C5_6 N1_6 1_555 1_555
H3_6 C5_6 1_555 1_555
C6_6 C3_6 1_555 1_555
C7_6 C6_6 1_555 1_555
C2_6 C4_6 1_555 1_555
C5_6 C6_6 1_555 1_555
Cu6_2 O1_6 1_555 1_555
O2_6 Cu6_2 1_555 1_555
Cu7_2 O4_4 1_555 1_555
O6_4 Cu6_2 1_555 1_555
Cu3 N1_7 1_555 1_555
O7_2 C4_7 1_555 1_555
N1_7 C1_7 1_555 1_555
C1_7 H1_7 1_555 1_555
C2_7 C1_7 1_555 1_555
C3_7 C2_7 1_555 1_555
O8_4 C7_7 1_555 1_555
C5_7 N1_7 1_555 1_555
H3_7 C5_7 1_555 1_555
C6_7 C3_7 1_555 1_555
C7_7 C6_7 1_555 1_555
C2_7 C4_7 1_555 1_555
C5_7 C6_7 1_555 1_555
Cu7_2 O1_7 1_555 1_555
O2_7 Cu7_2 1_555 1_555
Cu4 N1_8 1_555 1_555
Cu7 O1_8 1_555 1_555
O2_8 Cu7 1_555 1_555
O7 C4_8 1_555 1_555
N1_8 C1_8 1_555 1_555
C1_8 H1_8 1_555 1_555
C2_8 C1_8 1_555 1_555
C3_8 C2_8 1_555 1_555
H2_8 C3_8 1_555 1_555
C4_8 O2_8 1_555 1_555
O6_4 C7_8 1_555 1_555
O8_3 C7_8 1_555 1_555
C5_8 N1_8 1_555 1_555
H3_8 C5_8 1_555 1_555
C6_8 C3_8 1_555 1_555
C7_8 C6_8 1_555 1_555
C2_8 C4_8 1_555 1_555
C5_8 C6_8 1_555 1_555

#END
