
###############################################################################
#
# This file contains modified crystal structure data generated from the
# MOF subset of the Cambridge Structural Database (CSD) v543 
# hosted by the Cambridge Crystallographic Data Centre (CCDC).
#
# This work is licensed under the Creative Commons
# Attribution-NonCommercial-ShareAlike 4.0 International License.
# To view a copy of this license, visit
# http://creativecommons.org/licenses/by-nc-sa/4.0/
# or send a letter to
# Creative Commons, PO Box 1866, Mountain View, CA 94042, USA.
#
# CIF created using the CSD Python API on 29 September 2022
# The structure has been converted into the P1 space group
# The structure has a 3D framework
# The original CSD entry ENAFAB is in the cubic crystal system
# The framework has been calculated to contain at least 10.0% void space
# The void calculation uses a probe of radius 1.32A, grid spacing 0.4
# H atom positions have been added when not included in the experimental data
# Generated hydrogen atom positions removed from atoms on special positions
#
###############################################################################

data_ENAFAB
_chemical_formula_moiety         '(C384 H600 N72 Ni32 O544 P16 W144)n'
_symmetry_cell_setting           triclinic
_symmetry_space_group_name_H-M   'P 1'
_symmetry_Int_Tables_number      1
_space_group_name_Hall           'P 1'
loop_
_symmetry_equiv_pos_site_id
_symmetry_equiv_pos_as_xyz
1 x,y,z
_cell_length_a                   29.557(3)
_cell_length_b                   29.557(3)
_cell_length_c                   29.557(3)
_cell_angle_alpha                90
_cell_angle_beta                 90
_cell_angle_gamma                90
_cell_volume                     25821.5
loop_
_atom_site_label
_atom_site_type_symbol
_atom_site_fract_x
_atom_site_fract_y
_atom_site_fract_z
W1 W 0.26416(3) 0.11919(3) 0.25981(3)
O1 O 0.2745(5) 0.0674(5) 0.2846(5)
Ni1 Ni 0.2759 0.00000(13) 0.28957(13)
O2 O 0.2167 0.0000(10) 0.2496(10)
O3 O 0.3140 0.0000(13) 0.2297(11)
N1 N 0.3348 0.0000(8) 0.3299(9)
N2 N 0.2349 -0.0000(10) 0.3432(9)
C1 C 0.3548(10) 0.0383(9) 0.3404(10)
C2 C 0.2198(8) 0.0391(11) 0.3646(10)
H1 H 0.3424 0.0658 0.3292
C3 C 0.3928(9) 0.0403(10) 0.3670(11)
H2 H 0.2314 0.0672 0.3542
C4 C 0.1888(9) 0.0400(13) 0.4003(12)
H3 H 0.4050 0.0687 0.3759
C5 C 0.4131 0.0000(12) 0.3808(13)
H4 H 0.1784 0.0683 0.4114
C6 C 0.1728 0.0000(14) 0.4199(13)
C7 C 0.4565 0.0000(12) 0.4104(13)
C8 C 0.1386 0.0000(12) 0.4578(11)
H5 H 0.4565 0.0271 0.4301
C9 C 0.5000 0.0000 0.3810(19)
C10 C 0.1680 -0.000(2) 0.5000
H7 H 0.5000 0.0271 0.3613
H14 H 0.1192 0.0273 0.4566
C15 C 0.5435 0.0000(12) 0.4104(13)
C16 C 0.1386 0.0000(12) 0.5422(11)
H16 H 0.1872 0.0271 0.5000
C17 C 0.5869 0.0000(12) 0.3808(13)
H18 H 0.5435 0.0271 0.4301
C18 C 0.1728 0.0000(14) 0.5801(13)
H19 H 0.1192 0.0273 0.5434
Ni5 Ni 0.7241 0.00000(13) 0.28957(13)
C20 C 0.6072(9) 0.0403(10) 0.3670(11)
C22 C 0.1888(9) 0.0400(13) 0.5997(12)
N8 N 0.6652 0.0000(8) 0.3299(9)
C24 C 0.6452(10) 0.0383(9) 0.3404(10)
H22 H 0.5950 0.0687 0.3759
C26 C 0.2198(8) 0.0391(11) 0.6354(10)
H24 H 0.1784 0.0683 0.5886
H26 H 0.6576 0.0658 0.3292
N9 N 0.2349 0.0000(10) 0.6568(9)
H28 H 0.2314 0.0672 0.6458
Ni6 Ni 0.2759 0.00000(13) 0.71043(13)
Ni1_2 Ni 0.2759 1.00000(13) 0.28957(13)
O2_2 O 0.2167 1.0000(10) 0.2496(10)
O3_2 O 0.3140 1.0000(13) 0.2297(11)
N1_2 N 0.3348 1.0000(8) 0.3299(9)
N2_2 N 0.2349 1.0000(10) 0.3432(9)
O4 O 0.2545(4) 0.8156(4) 0.2209(4)
O5 O 0.2199(5) 0.8583(5) 0.2997(5)
O6 O 0.3088(5) 0.8489(5) 0.2905(6)
O7 O 0.2142(5) 0.9013(5) 0.2225(6)
O8 O 0.3034(5) 0.8860(5) 0.2082(5)
C5_2 C 0.4131 1.0000(12) 0.3808(13)
C6_2 C 0.1728 1.0000(14) 0.4199(13)
P1 P 0.21076(17) 0.78924(17) 0.21076(17)
W2 W 0.30973(3) 0.83891(3) 0.16581(3)
W3 W 0.15499(4) 0.89271(4) 0.19980(4)
C7_2 C 0.4565 1.0000(12) 0.4104(13)
C8_2 C 0.1386 1.0000(12) 0.4578(11)
O9 O 0.1800(5) 0.8200(5) 0.1800(5)
O10 O 0.2564(5) 0.8572(5) 0.1345(5)
O11 O 0.3502(6) 0.8594(6) 0.1311(5)
O12 O 0.1331(5) 0.9439(6) 0.2052(6)
O13 O 0.1030(5) 0.8610(6) 0.1779(5)
C9_2 C 0.5000 1.0000 0.3810(19)
H6 H 0.1192 0.9727 0.4566
C10_2 C 0.1680 1.000(2) 0.5000
H8 H 0.1872 0.9729 0.5000
O14 O 0.2745(5) 0.9326(5) 0.2846(5)
C11 C 0.3548(10) 0.9617(9) 0.3404(10)
C12 C 0.2198(8) 0.9609(11) 0.3646(10)
W4 W 0.26416(3) 0.88081(3) 0.25981(3)
C13 C 0.3928(9) 0.9597(10) 0.3670(11)
H9 H 0.3424 0.9342 0.3292
C14 C 0.1888(9) 0.9600(13) 0.4003(12)
H10 H 0.2314 0.9328 0.3542
H11 H 0.4050 0.9313 0.3759
H12 H 0.1784 0.9317 0.4114
W5 W 0.16109(3) 0.83419(3) 0.30973(3)
W6 W 0.33891(3) 0.80973(3) 0.33419(3)
O15 O 0.1844(4) 0.7791(4) 0.2545(4)
O16 O 0.2209(4) 0.7455(4) 0.1844(4)
O17 O 0.2997(5) 0.7801(5) 0.1417(5)
O18 O 0.3489(5) 0.8088(5) 0.2095(6)
O19 O 0.1428(5) 0.8655(5) 0.2564(5)
O20 O 0.1140(5) 0.7918(5) 0.3034(5)
O21 O 0.1406(6) 0.8689(5) 0.3502(6)
O22 O 0.1912(5) 0.7905(6) 0.3489(5)
O23 O 0.3156(4) 0.7545(4) 0.2791(4)
O24 O 0.3572(5) 0.7564(5) 0.3655(5)
O25 O 0.3860(5) 0.8034(5) 0.2918(5)
O26 O 0.3594(6) 0.8502(6) 0.3689(5)
O27 O 0.2801(5) 0.7997(5) 0.3583(5)
O28 O 0.1779(5) 0.8970(5) 0.1390(6)
H13 H 0.4565 0.9729 0.4301
W7 W 0.19980(4) 0.84501(4) 0.10729(4)
W8 W 0.10729(4) 0.80020(4) 0.15499(4)
W9 W 0.11919(3) 0.74019(3) 0.26416(3)
W10 W 0.16581(3) 0.69027(3) 0.16109(3)
W11 W 0.25981(3) 0.73584(3) 0.11919(3)
W12 W 0.38081(3) 0.76416(3) 0.24019(3)
W13 W 0.23584(3) 0.75981(3) 0.38081(3)
P2 P 0.28924(17) 0.71076(17) 0.28924(17)
W14 W 0.34501(4) 0.69980(4) 0.39271(4)
C15_2 C 0.5435 1.0000(12) 0.4104(13)
H15 H 0.5000 0.9729 0.3613
C16_2 C 0.1386 1.0000(12) 0.5422(11)
O29 O 0.2225(6) 0.7858(5) 0.0987(5)
O30 O 0.2052(6) 0.8669(5) 0.0561(6)
O31 O 0.1390(6) 0.8221(5) 0.1030(5)
O32 O 0.1345(5) 0.7436(5) 0.1428(5)
O33 O 0.0987(5) 0.7775(6) 0.2142(5)
O34 O 0.0561(6) 0.7948(6) 0.1331(5)
O35 O 0.1417(5) 0.7003(5) 0.2199(5)
O36 O 0.1511(5) 0.7095(6) 0.3088(5)
O37 O 0.0674(5) 0.7154(5) 0.2745(5)
O38 O 0.2082(5) 0.6966(5) 0.1140(5)
O39 O 0.1311(5) 0.6498(6) 0.1406(6)
O40 O 0.2095(6) 0.6511(5) 0.1912(5)
O41 O 0.2905(6) 0.6912(5) 0.1511(5)
O42 O 0.2846(5) 0.7255(5) 0.0674(5)
O43 O 0.3583(5) 0.7199(5) 0.2003(5)
O44 O 0.4326(5) 0.7745(5) 0.2154(5)
O45 O 0.4013(5) 0.7142(5) 0.2775(6)
O46 O 0.2455(4) 0.7209(4) 0.3156(4)
O47 O 0.1966(5) 0.7082(5) 0.3860(5)
O48 O 0.2255(5) 0.7846(5) 0.4326(5)
O49 O 0.2858(5) 0.7225(6) 0.4013(5)
O50 O 0.3200(5) 0.6800(5) 0.3200(5)
O51 O 0.2791(4) 0.6844(4) 0.2455(4)
O52 O 0.3970(5) 0.6779(5) 0.3610(6)
O53 O 0.3669(5) 0.7052(6) 0.4439(6)
O54 O 0.3221(5) 0.6390(6) 0.3970(5)
C17_2 C 0.5869 1.0000(12) 0.3808(13)
H17 H 0.5435 0.9729 0.4301
C18_2 C 0.1728 1.0000(14) 0.5801(13)
H20 H 0.1192 0.9727 0.5434
W15 W 0.19027(3) 0.66581(3) 0.33891(3)
Ni2 Ni 0.00000(13) 0.71043(13) 0.2759
W16 W 0.24019(3) 0.61919(3) 0.23584(3)
W17 W 0.33419(3) 0.66109(3) 0.19027(3)
Ni3 Ni 0.50000(13) 0.7759 0.21043(13)
W18 W 0.39271(4) 0.65499(4) 0.30020(4)
Ni4 Ni 0.2241 0.78957(13) 0.50000(13)
W19 W 0.30020(4) 0.60729(4) 0.34501(4)
Ni5_2 Ni 0.7241 1.00000(13) 0.28957(13)
C19 C 0.6072(9) 0.9597(10) 0.3670(11)
C21 C 0.1888(9) 0.9600(13) 0.5997(12)
O55 O 0.2436(5) 0.6345(5) 0.3572(5)
O56 O 0.1498(6) 0.6311(5) 0.3594(6)
O57 O 0.2003(5) 0.6417(5) 0.2801(5)
O58 O -0.0000(10) 0.7504(10) 0.2167
O59 O -0.0000(13) 0.7703(11) 0.3140
N3 N 0.0000(8) 0.6701(9) 0.3348
O61 O 0.2918(5) 0.6140(5) 0.1966(5)
O62 O 0.2154(5) 0.5674(5) 0.2255(5)
O63 O 0.2775(6) 0.5987(5) 0.2858(5)
O64 O 0.3655(5) 0.6428(5) 0.2436(5)
O65 O 0.3689(5) 0.6406(6) 0.1498(6)
O66 O 0.5000(10) 0.7167 0.2504(10)
O67 O 0.5000(13) 0.8140 0.2703(11)
N4 N 0.5000(8) 0.8348 0.1701(9)
N5 N 0.5000(10) 0.7349 0.1568(9)
O68 O 0.5674(5) 0.7745(5) 0.2154(5)
O69 O 0.4439(6) 0.6331(5) 0.2948(6)
O70 O 0.3610(6) 0.6030(5) 0.3221(5)
N6 N 0.2651 0.8432(9) 0.5000(10)
N7 N 0.1652 0.8299(9) 0.5000(8)
O71 O 0.2833 0.7496(10) 0.5000(10)
O72 O 0.2255(5) 0.7846(5) 0.5674(5)
O73 O 0.1860 0.7297(11) 0.5000(13)
O74 O 0.2948(6) 0.5561(6) 0.3669(5)
N8_2 N 0.6652 1.0000(8) 0.3299(9)
C23 C 0.6452(10) 0.9617(9) 0.3404(10)
H21 H 0.5950 0.9313 0.3759
C25 C 0.2198(8) 0.9609(11) 0.6354(10)
H23 H 0.1784 0.9317 0.5886
C27 C 0.0383(9) 0.6596(10) 0.3548(10)
W20 W 0.61919(3) 0.76416(3) 0.24019(3)
H25 H 0.6576 0.9342 0.3292
N9_2 N 0.2349 1.0000(10) 0.6568(9)
H27 H 0.2314 0.9328 0.6458
H29 H 0.0658 0.6708 0.3424
C29 C 0.0403(10) 0.6330(11) 0.3928(9)
Ni6_2 Ni 0.2759 1.00000(13) 0.71043(13)
H31 H 0.0687 0.6241 0.4050
C31 C 0.0000(12) 0.6192(13) 0.4131
C32 C -0.0000(12) 0.5896(13) 0.4565
H33 H 0.0271 0.5699 0.4565
C33 C 0.0000 0.6190(19) 0.5000
H35 H 0.0271 0.6387 0.5000
C34 C -0.0000(12) 0.5896(13) 0.5435
C35 C 0.0000(12) 0.6192(13) 0.5869
H38 H 0.0271 0.5699 0.5435
Ni7 Ni -0.00000(13) 0.71043(13) 0.7241
C37 C 0.0403(10) 0.6330(11) 0.6072(9)
N10 N 0.0000(8) 0.6701(9) 0.6652
C39 C 0.0383(9) 0.6596(10) 0.6452(10)
H40 H 0.0687 0.6241 0.5950
H42 H 0.0658 0.6708 0.6576
Ni2_2 Ni 1.00000(13) 0.71043(13) 0.2759
O58_2 O 1.0000(10) 0.7504(10) 0.2167
O59_2 O 1.0000(13) 0.7703(11) 0.3140
N3_2 N 1.0000(8) 0.6701(9) 0.3348
O60 O 0.9326(5) 0.7154(5) 0.2745(5)
C28 C 0.9617(9) 0.6596(10) 0.3548(10)
C30 C 0.9597(10) 0.6330(11) 0.3928(9)
H30 H 0.9342 0.6708 0.3424
C31_2 C 1.0000(12) 0.6192(13) 0.4131
H32 H 0.9313 0.6241 0.4050
C32_2 C 1.0000(12) 0.5896(13) 0.4565
C33_2 C 1.0000 0.6190(19) 0.5000
H34 H 0.9729 0.5699 0.4565
C34_2 C 1.0000(12) 0.5896(13) 0.5435
H36 H 0.9729 0.6387 0.5000
C35_2 C 1.0000(12) 0.6192(13) 0.5869
H37 H 0.9729 0.5699 0.5435
Ni7_2 Ni 1.00000(13) 0.71043(13) 0.7241
C36 C 0.9597(10) 0.6330(11) 0.6072(9)
N10_2 N 1.0000(8) 0.6701(9) 0.6652
C38 C 0.9617(9) 0.6596(10) 0.6452(10)
H39 H 0.9313 0.6241 0.5950
H41 H 0.9342 0.6708 0.6576
Ni2_3 Ni 0.00000(13) 0.28957(13) 0.2759
O58_3 O -0.0000(10) 0.2496(10) 0.2167
O59_3 O 0.0000(13) 0.2297(11) 0.3140
N3_3 N 0.0000(8) 0.3299(9) 0.3348
O60_2 O 0.0674(5) 0.2846(5) 0.2745(5)
C28_2 C 0.0383(9) 0.3404(10) 0.3548(10)
C30_2 C 0.0403(10) 0.3670(11) 0.3928(9)
H30_2 H 0.0658 0.3292 0.3424
C31_3 C -0.0000(12) 0.3808(13) 0.4131
H32_2 H 0.0687 0.3759 0.4050
C32_3 C 0.0000(12) 0.4104(13) 0.4565
C33_3 C 0.0000 0.3810(19) 0.5000
H34_2 H 0.0271 0.4301 0.4565
C34_3 C 0.0000(12) 0.4104(13) 0.5435
H36_2 H 0.0271 0.3613 0.5000
C35_3 C 0.0000(12) 0.3808(13) 0.5869
H37_2 H 0.0271 0.4301 0.5435
Ni7_3 Ni 0.00000(13) 0.28957(13) 0.7241
C36_2 C 0.0403(10) 0.3670(11) 0.6072(9)
N10_3 N 0.0000(8) 0.3299(9) 0.6652
C38_2 C 0.0383(9) 0.3404(10) 0.6452(10)
H39_2 H 0.0687 0.3759 0.5950
H41_2 H 0.0658 0.3292 0.6576
O2_3 O 0.7833 0.0000(10) 0.2496(10)
O3_3 O 0.6860 0.0000(13) 0.2297(11)
N2_3 N 0.7651 0.0000(10) 0.3432(9)
O4_2 O 0.7455(4) 0.1844(4) 0.2209(4)
O5_2 O 0.7801(5) 0.1417(5) 0.2997(5)
O6_2 O 0.6912(5) 0.1511(5) 0.2905(6)
O7_2 O 0.7858(5) 0.0987(5) 0.2225(6)
O8_2 O 0.6966(5) 0.1140(5) 0.2082(5)
C6_3 C 0.8272 0.0000(14) 0.4199(13)
P1_2 P 0.78924(17) 0.21076(17) 0.21076(17)
W2_2 W 0.69027(3) 0.16109(3) 0.16581(3)
W3_2 W 0.84501(4) 0.10729(4) 0.19980(4)
C8_3 C 0.8614 0.0000(12) 0.4578(11)
O9_2 O 0.8200(5) 0.1800(5) 0.1800(5)
O10_2 O 0.7436(5) 0.1428(5) 0.1345(5)
O11_2 O 0.6498(6) 0.1406(6) 0.1311(5)
O12_2 O 0.8669(5) 0.0561(6) 0.2052(6)
O13_2 O 0.8970(5) 0.1390(6) 0.1779(5)
H6_2 H 0.8808 0.0273 0.4566
C10_3 C 0.8320 -0.000(2) 0.5000
H8_2 H 0.8128 0.0271 0.5000
O14_2 O 0.7255(5) 0.0674(5) 0.2846(5)
C12_2 C 0.7802(8) 0.0391(11) 0.3646(10)
W4_2 W 0.73584(3) 0.11919(3) 0.25981(3)
C14_2 C 0.8112(9) 0.0400(13) 0.4003(12)
H10_2 H 0.7686 0.0672 0.3542
H12_2 H 0.8216 0.0683 0.4114
W5_2 W 0.83891(3) 0.16581(3) 0.30973(3)
W6_2 W 0.66109(3) 0.19027(3) 0.33419(3)
O15_2 O 0.8156(4) 0.2209(4) 0.2545(4)
O16_2 O 0.7791(4) 0.2545(4) 0.1844(4)
O17_2 O 0.7003(5) 0.2199(5) 0.1417(5)
O18_2 O 0.6511(5) 0.1912(5) 0.2095(6)
O19_2 O 0.8572(5) 0.1345(5) 0.2564(5)
O20_2 O 0.8860(5) 0.2082(5) 0.3034(5)
O21_2 O 0.8594(6) 0.1311(5) 0.3502(6)
O22_2 O 0.8088(5) 0.2095(6) 0.3489(5)
O23_2 O 0.6844(4) 0.2455(4) 0.2791(4)
O24_2 O 0.6428(5) 0.2436(5) 0.3655(5)
O25_2 O 0.6140(5) 0.1966(5) 0.2918(5)
O26_2 O 0.6406(6) 0.1498(6) 0.3689(5)
O27_2 O 0.7199(5) 0.2003(5) 0.3583(5)
O28_2 O 0.8221(5) 0.1030(5) 0.1390(6)
W7_2 W 0.80020(4) 0.15499(4) 0.10729(4)
W8_2 W 0.89271(4) 0.19980(4) 0.15499(4)
W9_2 W 0.88081(3) 0.25981(3) 0.26416(3)
W10_2 W 0.83419(3) 0.30973(3) 0.16109(3)
W11_2 W 0.74019(3) 0.26416(3) 0.11919(3)
W12_2 W 0.61919(3) 0.23584(3) 0.24019(3)
W13_2 W 0.76416(3) 0.24019(3) 0.38081(3)
P2_2 P 0.71076(17) 0.28924(17) 0.28924(17)
W14_2 W 0.65499(4) 0.30020(4) 0.39271(4)
C16_3 C 0.8614 0.0000(12) 0.5422(11)
O29_2 O 0.7775(6) 0.2142(5) 0.0987(5)
O30_2 O 0.7948(6) 0.1331(5) 0.0561(6)
O31_2 O 0.8610(6) 0.1779(5) 0.1030(5)
O32_2 O 0.8655(5) 0.2564(5) 0.1428(5)
O33_2 O 0.9013(5) 0.2225(6) 0.2142(5)
O34_2 O 0.9439(6) 0.2052(6) 0.1331(5)
O35_2 O 0.8583(5) 0.2997(5) 0.2199(5)
O36_2 O 0.8489(5) 0.2905(6) 0.3088(5)
O37_2 O 0.9326(5) 0.2846(5) 0.2745(5)
O38_2 O 0.7918(5) 0.3034(5) 0.1140(5)
O39_2 O 0.8689(5) 0.3502(6) 0.1406(6)
O40_2 O 0.7905(6) 0.3489(5) 0.1912(5)
O41_2 O 0.7095(6) 0.3088(5) 0.1511(5)
O42_2 O 0.7154(5) 0.2745(5) 0.0674(5)
O43_2 O 0.6417(5) 0.2801(5) 0.2003(5)
O44_2 O 0.5674(5) 0.2255(5) 0.2154(5)
O45_2 O 0.5987(5) 0.2858(5) 0.2775(6)
O46_2 O 0.7545(4) 0.2791(4) 0.3156(4)
O47_2 O 0.8034(5) 0.2918(5) 0.3860(5)
O48_2 O 0.7745(5) 0.2154(5) 0.4326(5)
O49_2 O 0.7142(5) 0.2775(6) 0.4013(5)
O50_2 O 0.6800(5) 0.3200(5) 0.3200(5)
O51_2 O 0.7209(4) 0.3156(4) 0.2455(4)
O52_2 O 0.6030(5) 0.3221(5) 0.3610(6)
O53_2 O 0.6331(5) 0.2948(6) 0.4439(6)
O54_2 O 0.6779(5) 0.3610(6) 0.3970(5)
C18_3 C 0.8272 0.0000(14) 0.5801(13)
H20_2 H 0.8808 0.0273 0.5434
W15_2 W 0.80973(3) 0.33419(3) 0.33891(3)
Ni2_4 Ni 1.00000(13) 0.28957(13) 0.2759
W16_2 W 0.75981(3) 0.38081(3) 0.23584(3)
W17_2 W 0.66581(3) 0.33891(3) 0.19027(3)
Ni3_2 Ni 0.50000(13) 0.2241 0.21043(13)
W18_2 W 0.60729(4) 0.34501(4) 0.30020(4)
Ni4_2 Ni 0.7759 0.21043(13) 0.50000(13)
W19_2 W 0.69980(4) 0.39271(4) 0.34501(4)
C21_2 C 0.8112(9) 0.0400(13) 0.5997(12)
O55_2 O 0.7564(5) 0.3655(5) 0.3572(5)
O56_2 O 0.8502(6) 0.3689(5) 0.3594(6)
O57_2 O 0.7997(5) 0.3583(5) 0.2801(5)
O58_4 O 1.0000(10) 0.2496(10) 0.2167
O59_4 O 1.0000(13) 0.2297(11) 0.3140
N3_4 N 1.0000(8) 0.3299(9) 0.3348
O61_2 O 0.7082(5) 0.3860(5) 0.1966(5)
O62_2 O 0.7846(5) 0.4326(5) 0.2255(5)
O63_2 O 0.7225(6) 0.4013(5) 0.2858(5)
O64_2 O 0.6345(5) 0.3572(5) 0.2436(5)
O65_2 O 0.6311(5) 0.3594(6) 0.1498(6)
O66_2 O 0.5000(10) 0.2833 0.2504(10)
O67_2 O 0.5000(13) 0.1860 0.2703(11)
N4_2 N 0.5000(8) 0.1652 0.1701(9)
N5_2 N 0.5000(10) 0.2651 0.1568(9)
O68_2 O 0.4326(5) 0.2255(5) 0.2154(5)
O69_2 O 0.5561(6) 0.3669(5) 0.2948(6)
O70_2 O 0.6390(6) 0.3970(5) 0.3221(5)
N6_2 N 0.7349 0.1568(9) 0.5000(10)
N7_2 N 0.8348 0.1701(9) 0.5000(8)
O71_2 O 0.7167 0.2504(10) 0.5000(10)
O72_2 O 0.7745(5) 0.2154(5) 0.5674(5)
O73_2 O 0.8140 0.2703(11) 0.5000(13)
O74_2 O 0.7052(6) 0.4439(6) 0.3669(5)
C25_2 C 0.7802(8) 0.0391(11) 0.6354(10)
H23_2 H 0.8216 0.0683 0.5886
C27_2 C 0.9617(9) 0.3404(10) 0.3548(10)
W20_2 W 0.38081(3) 0.23584(3) 0.24019(3)
N9_3 N 0.7651 0.0000(10) 0.6568(9)
H27_2 H 0.7686 0.0672 0.6458
H29_2 H 0.9342 0.3292 0.3424
C29_2 C 0.9597(10) 0.3670(11) 0.3928(9)
Ni6_3 Ni 0.7241 0.00000(13) 0.71043(13)
H31_2 H 0.9313 0.3759 0.4050
C31_4 C 1.0000(12) 0.3808(13) 0.4131
C32_4 C 1.0000(12) 0.4104(13) 0.4565
H33_2 H 0.9729 0.4301 0.4565
C33_4 C 1.0000 0.3810(19) 0.5000
H35_2 H 0.9729 0.3613 0.5000
C34_4 C 1.0000(12) 0.4104(13) 0.5435
C35_4 C 1.0000(12) 0.3808(13) 0.5869
H38_2 H 0.9729 0.4301 0.5435
Ni7_4 Ni 1.00000(13) 0.28957(13) 0.7241
C37_2 C 0.9597(10) 0.3670(11) 0.6072(9)
N10_4 N 1.0000(8) 0.3299(9) 0.6652
C39_2 C 0.9617(9) 0.3404(10) 0.6452(10)
H40_2 H 0.9313 0.3759 0.5950
H42_2 H 0.9342 0.3292 0.6576
W1_2 W 0.73584(3) 0.88081(3) 0.25981(3)
O1_2 O 0.7255(5) 0.9326(5) 0.2846(5)
O2_4 O 0.7833 1.0000(10) 0.2496(10)
O3_4 O 0.6860 1.0000(13) 0.2297(11)
N2_4 N 0.7651 1.0000(10) 0.3432(9)
C2_2 C 0.7802(8) 0.9609(11) 0.3646(10)
H2_2 H 0.7686 0.9328 0.3542
C4_2 C 0.8112(9) 0.9600(13) 0.4003(12)
H4_2 H 0.8216 0.9317 0.4114
C6_4 C 0.8272 1.0000(14) 0.4199(13)
C8_4 C 0.8614 1.0000(12) 0.4578(11)
C10_4 C 0.8320 1.000(2) 0.5000
H14_2 H 0.8808 0.9727 0.4566
C16_4 C 0.8614 1.0000(12) 0.5422(11)
H16_2 H 0.8128 0.9729 0.5000
C18_4 C 0.8272 1.0000(14) 0.5801(13)
H19_2 H 0.8808 0.9727 0.5434
C22_2 C 0.8112(9) 0.9600(13) 0.5997(12)
C26_2 C 0.7802(8) 0.9609(11) 0.6354(10)
H24_2 H 0.8216 0.9317 0.5886
N9_4 N 0.7651 1.0000(10) 0.6568(9)
H28_2 H 0.7686 0.9328 0.6458
Ni6_4 Ni 0.7241 1.00000(13) 0.71043(13)
O58_5 O 0.0000(10) 0.7504(10) 0.7833
O59_5 O 0.0000(13) 0.7703(11) 0.6860
O60_3 O 0.0674(5) 0.7154(5) 0.7255(5)
W1_3 W 0.73584(3) 0.11919(3) 0.74019(3)
O1_3 O 0.7255(5) 0.0674(5) 0.7154(5)
O2_5 O 0.7833 0.0000(10) 0.7504(10)
O3_5 O 0.6860 0.0000(13) 0.7703(11)
N1_3 N 0.6652 0.0000(8) 0.6701(9)
C1_2 C 0.6452(10) 0.0383(9) 0.6596(10)
H1_2 H 0.6576 0.0658 0.6708
C3_2 C 0.6072(9) 0.0403(10) 0.6330(11)
H3_2 H 0.5950 0.0687 0.6241
C5_3 C 0.5869 0.0000(12) 0.6192(13)
C7_3 C 0.5435 0.0000(12) 0.5896(13)
H5_2 H 0.5435 0.0271 0.5699
C9_3 C 0.5000 0.0000 0.6190(19)
H7_2 H 0.5000 0.0271 0.6387
C15_3 C 0.4565 0.0000(12) 0.5896(13)
C17_3 C 0.4131 0.0000(12) 0.6192(13)
H18_2 H 0.4565 0.0271 0.5699
C20_2 C 0.3928(9) 0.0403(10) 0.6330(11)
N8_3 N 0.3348 0.0000(8) 0.6701(9)
C24_2 C 0.3548(10) 0.0383(9) 0.6596(10)
H22_2 H 0.4050 0.0687 0.6241
H26_2 H 0.3424 0.0658 0.6708
O2_6 O 0.7833 1.0000(10) 0.7504(10)
O3_6 O 0.6860 1.0000(13) 0.7703(11)
N1_4 N 0.6652 1.0000(8) 0.6701(9)
O4_3 O 0.7455(4) 0.8156(4) 0.7791(4)
O5_3 O 0.7801(5) 0.8583(5) 0.7003(5)
O6_3 O 0.6912(5) 0.8489(5) 0.7095(6)
O7_3 O 0.7858(5) 0.9013(5) 0.7775(6)
O8_3 O 0.6966(5) 0.8860(5) 0.7918(5)
C5_4 C 0.5869 1.0000(12) 0.6192(13)
P1_3 P 0.78924(17) 0.78924(17) 0.78924(17)
W2_3 W 0.69027(3) 0.83891(3) 0.83419(3)
W3_3 W 0.84501(4) 0.89271(4) 0.80020(4)
C7_4 C 0.5435 1.0000(12) 0.5896(13)
O9_3 O 0.8200(5) 0.8200(5) 0.8200(5)
O10_3 O 0.7436(5) 0.8572(5) 0.8655(5)
O11_3 O 0.6498(6) 0.8594(6) 0.8689(5)
O12_3 O 0.8669(5) 0.9439(6) 0.7948(6)
O13_3 O 0.8970(5) 0.8610(6) 0.8221(5)
C9_4 C 0.5000 1.0000 0.6190(19)
O14_3 O 0.7255(5) 0.9326(5) 0.7154(5)
C11_2 C 0.6452(10) 0.9617(9) 0.6596(10)
W4_3 W 0.73584(3) 0.88081(3) 0.74019(3)
C13_2 C 0.6072(9) 0.9597(10) 0.6330(11)
H9_2 H 0.6576 0.9342 0.6708
H11_2 H 0.5950 0.9313 0.6241
W5_3 W 0.83891(3) 0.83419(3) 0.69027(3)
W6_3 W 0.66109(3) 0.80973(3) 0.66581(3)
O15_3 O 0.8156(4) 0.7791(4) 0.7455(4)
O16_3 O 0.7791(4) 0.7455(4) 0.8156(4)
O17_3 O 0.7003(5) 0.7801(5) 0.8583(5)
O18_3 O 0.6511(5) 0.8088(5) 0.7905(6)
O19_3 O 0.8572(5) 0.8655(5) 0.7436(5)
O20_3 O 0.8860(5) 0.7918(5) 0.6966(5)
O21_3 O 0.8594(6) 0.8689(5) 0.6498(6)
O22_3 O 0.8088(5) 0.7905(6) 0.6511(5)
O23_3 O 0.6844(4) 0.7545(4) 0.7209(4)
O24_3 O 0.6428(5) 0.7564(5) 0.6345(5)
O25_3 O 0.6140(5) 0.8034(5) 0.7082(5)
O26_3 O 0.6406(6) 0.8502(6) 0.6311(5)
O27_3 O 0.7199(5) 0.7997(5) 0.6417(5)
O28_3 O 0.8221(5) 0.8970(5) 0.8610(6)
H13_2 H 0.5435 0.9729 0.5699
W7_3 W 0.80020(4) 0.84501(4) 0.89271(4)
W8_3 W 0.89271(4) 0.80020(4) 0.84501(4)
W9_3 W 0.88081(3) 0.74019(3) 0.73584(3)
W10_3 W 0.83419(3) 0.69027(3) 0.83891(3)
W11_3 W 0.74019(3) 0.73584(3) 0.88081(3)
W12_3 W 0.61919(3) 0.76416(3) 0.75981(3)
W13_3 W 0.76416(3) 0.75981(3) 0.61919(3)
P2_3 P 0.71076(17) 0.71076(17) 0.71076(17)
W14_3 W 0.65499(4) 0.69980(4) 0.60729(4)
C15_4 C 0.4565 1.0000(12) 0.5896(13)
H15_2 H 0.5000 0.9729 0.6387
O29_3 O 0.7775(6) 0.7858(5) 0.9013(5)
O30_3 O 0.7948(6) 0.8669(5) 0.9439(6)
O31_3 O 0.8610(6) 0.8221(5) 0.8970(5)
O32_3 O 0.8655(5) 0.7436(5) 0.8572(5)
O33_3 O 0.9013(5) 0.7775(6) 0.7858(5)
O34_3 O 0.9439(6) 0.7948(6) 0.8669(5)
O35_3 O 0.8583(5) 0.7003(5) 0.7801(5)
O36_3 O 0.8489(5) 0.7095(6) 0.6912(5)
O37_3 O 0.9326(5) 0.7154(5) 0.7255(5)
O38_3 O 0.7918(5) 0.6966(5) 0.8860(5)
O39_3 O 0.8689(5) 0.6498(6) 0.8594(6)
O40_3 O 0.7905(6) 0.6511(5) 0.8088(5)
O41_3 O 0.7095(6) 0.6912(5) 0.8489(5)
O42_3 O 0.7154(5) 0.7255(5) 0.9326(5)
O43_3 O 0.6417(5) 0.7199(5) 0.7997(5)
O44_3 O 0.5674(5) 0.7745(5) 0.7846(5)
O45_3 O 0.5987(5) 0.7142(5) 0.7225(6)
O46_3 O 0.7545(4) 0.7209(4) 0.6844(4)
O47_3 O 0.8034(5) 0.7082(5) 0.6140(5)
O48_3 O 0.7745(5) 0.7846(5) 0.5674(5)
O49_3 O 0.7142(5) 0.7225(6) 0.5987(5)
O50_3 O 0.6800(5) 0.6800(5) 0.6800(5)
O51_3 O 0.7209(4) 0.6844(4) 0.7545(4)
O52_3 O 0.6030(5) 0.6779(5) 0.6390(6)
O53_3 O 0.6331(5) 0.7052(6) 0.5561(6)
O54_3 O 0.6779(5) 0.6390(6) 0.6030(5)
C17_4 C 0.4131 1.0000(12) 0.6192(13)
H17_2 H 0.4565 0.9729 0.5699
W15_3 W 0.80973(3) 0.66581(3) 0.66109(3)
W16_3 W 0.75981(3) 0.61919(3) 0.76416(3)
W17_3 W 0.66581(3) 0.66109(3) 0.80973(3)
Ni3_3 Ni 0.50000(13) 0.7759 0.78957(13)
W18_3 W 0.60729(4) 0.65499(4) 0.69980(4)
Ni4_3 Ni 0.7759 0.78957(13) 0.50000(13)
W19_3 W 0.69980(4) 0.60729(4) 0.65499(4)
C19_2 C 0.3928(9) 0.9597(10) 0.6330(11)
O55_3 O 0.7564(5) 0.6345(5) 0.6428(5)
O56_3 O 0.8502(6) 0.6311(5) 0.6406(6)
O57_3 O 0.7997(5) 0.6417(5) 0.7199(5)
O58_6 O 1.0000(10) 0.7504(10) 0.7833
O59_6 O 1.0000(13) 0.7703(11) 0.6860
O61_3 O 0.7082(5) 0.6140(5) 0.8034(5)
O62_3 O 0.7846(5) 0.5674(5) 0.7745(5)
O63_3 O 0.7225(6) 0.5987(5) 0.7142(5)
O64_3 O 0.6345(5) 0.6428(5) 0.7564(5)
O65_3 O 0.6311(5) 0.6406(6) 0.8502(6)
O66_3 O 0.5000(10) 0.7167 0.7496(10)
O67_3 O 0.5000(13) 0.8140 0.7297(11)
N4_3 N 0.5000(8) 0.8348 0.8299(9)
N5_3 N 0.5000(10) 0.7349 0.8432(9)
O68_3 O 0.4326(5) 0.7745(5) 0.7846(5)
O69_3 O 0.5561(6) 0.6331(5) 0.7052(6)
O70_3 O 0.6390(6) 0.6030(5) 0.6779(5)
N6_3 N 0.7349 0.8432(9) 0.5000(10)
N7_3 N 0.8348 0.8299(9) 0.5000(8)
O71_3 O 0.7167 0.7496(10) 0.5000(10)
O72_3 O 0.7745(5) 0.7846(5) 0.4326(5)
O73_3 O 0.8140 0.7297(11) 0.5000(13)
O74_3 O 0.7052(6) 0.5561(6) 0.6331(5)
N8_4 N 0.3348 1.0000(8) 0.6701(9)
C23_2 C 0.3548(10) 0.9617(9) 0.6596(10)
H21_2 H 0.4050 0.9313 0.6241
W20_3 W 0.38081(3) 0.76416(3) 0.75981(3)
H25_2 H 0.3424 0.9342 0.6708
O2_7 O 0.2167 0.0000(10) 0.7504(10)
O3_7 O 0.3140 0.0000(13) 0.7703(11)
O4_4 O 0.2545(4) 0.1844(4) 0.7791(4)
O5_4 O 0.2199(5) 0.1417(5) 0.7003(5)
O6_4 O 0.3088(5) 0.1511(5) 0.7095(6)
O7_4 O 0.2142(5) 0.0987(5) 0.7775(6)
O8_4 O 0.3034(5) 0.1140(5) 0.7918(5)
P1_4 P 0.21076(17) 0.21076(17) 0.78924(17)
W2_4 W 0.30973(3) 0.16109(3) 0.83419(3)
W3_4 W 0.15499(4) 0.10729(4) 0.80020(4)
O9_4 O 0.1800(5) 0.1800(5) 0.8200(5)
O10_4 O 0.2564(5) 0.1428(5) 0.8655(5)
O11_4 O 0.3502(6) 0.1406(6) 0.8689(5)
O12_4 O 0.1331(5) 0.0561(6) 0.7948(6)
O13_4 O 0.1030(5) 0.1390(6) 0.8221(5)
O14_4 O 0.2745(5) 0.0674(5) 0.7154(5)
W4_4 W 0.26416(3) 0.11919(3) 0.74019(3)
W5_4 W 0.16109(3) 0.16581(3) 0.69027(3)
W6_4 W 0.33891(3) 0.19027(3) 0.66581(3)
O15_4 O 0.1844(4) 0.2209(4) 0.7455(4)
O16_4 O 0.2209(4) 0.2545(4) 0.8156(4)
O17_4 O 0.2997(5) 0.2199(5) 0.8583(5)
O18_4 O 0.3489(5) 0.1912(5) 0.7905(6)
O19_4 O 0.1428(5) 0.1345(5) 0.7436(5)
O20_4 O 0.1140(5) 0.2082(5) 0.6966(5)
O21_4 O 0.1406(6) 0.1311(5) 0.6498(6)
O22_4 O 0.1912(5) 0.2095(6) 0.6511(5)
O23_4 O 0.3156(4) 0.2455(4) 0.7209(4)
O24_4 O 0.3572(5) 0.2436(5) 0.6345(5)
O25_4 O 0.3860(5) 0.1966(5) 0.7082(5)
O26_4 O 0.3594(6) 0.1498(6) 0.6311(5)
O27_4 O 0.2801(5) 0.2003(5) 0.6417(5)
O28_4 O 0.1779(5) 0.1030(5) 0.8610(6)
W7_4 W 0.19980(4) 0.15499(4) 0.89271(4)
W8_4 W 0.10729(4) 0.19980(4) 0.84501(4)
W9_4 W 0.11919(3) 0.25981(3) 0.73584(3)
W10_4 W 0.16581(3) 0.30973(3) 0.83891(3)
W11_4 W 0.25981(3) 0.26416(3) 0.88081(3)
W12_4 W 0.38081(3) 0.23584(3) 0.75981(3)
W13_4 W 0.23584(3) 0.24019(3) 0.61919(3)
P2_4 P 0.28924(17) 0.28924(17) 0.71076(17)
W14_4 W 0.34501(4) 0.30020(4) 0.60729(4)
O29_4 O 0.2225(6) 0.2142(5) 0.9013(5)
O30_4 O 0.2052(6) 0.1331(5) 0.9439(6)
O31_4 O 0.1390(6) 0.1779(5) 0.8970(5)
O32_4 O 0.1345(5) 0.2564(5) 0.8572(5)
O33_4 O 0.0987(5) 0.2225(6) 0.7858(5)
O34_4 O 0.0561(6) 0.2052(6) 0.8669(5)
O35_4 O 0.1417(5) 0.2997(5) 0.7801(5)
O36_4 O 0.1511(5) 0.2905(6) 0.6912(5)
O37_4 O 0.0674(5) 0.2846(5) 0.7255(5)
O38_4 O 0.2082(5) 0.3034(5) 0.8860(5)
O39_4 O 0.1311(5) 0.3502(6) 0.8594(6)
O40_4 O 0.2095(6) 0.3489(5) 0.8088(5)
O41_4 O 0.2905(6) 0.3088(5) 0.8489(5)
O42_4 O 0.2846(5) 0.2745(5) 0.9326(5)
O43_4 O 0.3583(5) 0.2801(5) 0.7997(5)
O44_4 O 0.4326(5) 0.2255(5) 0.7846(5)
O45_4 O 0.4013(5) 0.2858(5) 0.7225(6)
O46_4 O 0.2455(4) 0.2791(4) 0.6844(4)
O47_4 O 0.1966(5) 0.2918(5) 0.6140(5)
O48_4 O 0.2255(5) 0.2154(5) 0.5674(5)
O49_4 O 0.2858(5) 0.2775(6) 0.5987(5)
O50_4 O 0.3200(5) 0.3200(5) 0.6800(5)
O51_4 O 0.2791(4) 0.3156(4) 0.7545(4)
O52_4 O 0.3970(5) 0.3221(5) 0.6390(6)
O53_4 O 0.3669(5) 0.2948(6) 0.5561(6)
O54_4 O 0.3221(5) 0.3610(6) 0.6030(5)
W15_4 W 0.19027(3) 0.33419(3) 0.66109(3)
W16_4 W 0.24019(3) 0.38081(3) 0.76416(3)
W17_4 W 0.33419(3) 0.33891(3) 0.80973(3)
Ni3_4 Ni 0.50000(13) 0.2241 0.78957(13)
W18_4 W 0.39271(4) 0.34501(4) 0.69980(4)
Ni4_4 Ni 0.2241 0.21043(13) 0.50000(13)
W19_4 W 0.30020(4) 0.39271(4) 0.65499(4)
O55_4 O 0.2436(5) 0.3655(5) 0.6428(5)
O56_4 O 0.1498(6) 0.3689(5) 0.6406(6)
O57_4 O 0.2003(5) 0.3583(5) 0.7199(5)
O58_7 O 0.0000(10) 0.2496(10) 0.7833
O59_7 O 0.0000(13) 0.2297(11) 0.6860
O61_4 O 0.2918(5) 0.3860(5) 0.8034(5)
O62_4 O 0.2154(5) 0.4326(5) 0.7745(5)
O63_4 O 0.2775(6) 0.4013(5) 0.7142(5)
O64_4 O 0.3655(5) 0.3572(5) 0.7564(5)
O65_4 O 0.3689(5) 0.3594(6) 0.8502(6)
O66_4 O 0.5000(10) 0.2833 0.7496(10)
O67_4 O 0.5000(13) 0.1860 0.7297(11)
N4_4 N 0.5000(8) 0.1652 0.8299(9)
N5_4 N 0.5000(10) 0.2651 0.8432(9)
O68_4 O 0.5674(5) 0.2255(5) 0.7846(5)
O69_4 O 0.4439(6) 0.3669(5) 0.7052(6)
O70_4 O 0.3610(6) 0.3970(5) 0.6779(5)
N6_4 N 0.2651 0.1568(9) 0.5000(10)
N7_4 N 0.1652 0.1701(9) 0.5000(8)
O71_4 O 0.2833 0.2504(10) 0.5000(10)
O72_4 O 0.2255(5) 0.2154(5) 0.4326(5)
O73_4 O 0.1860 0.2703(11) 0.5000(13)
O74_4 O 0.2948(6) 0.4439(6) 0.6331(5)
W20_4 W 0.61919(3) 0.23584(3) 0.75981(3)
W1_4 W 0.26416(3) 0.88081(3) 0.74019(3)
O1_4 O 0.2745(5) 0.9326(5) 0.7154(5)
O2_8 O 0.2167 1.0000(10) 0.7504(10)
O3_8 O 0.3140 1.0000(13) 0.7703(11)
O58_8 O 1.0000(10) 0.2496(10) 0.7833
O59_8 O 1.0000(13) 0.2297(11) 0.6860
O60_4 O 0.9326(5) 0.2846(5) 0.7255(5)
W1_5 W 0.25981(3) 0.26416(3) 0.11919(3)
O1_5 O 0.2846(5) 0.2745(5) 0.0674(5)
Ni1_3 Ni 0.28957(13) 0.2759 0.00000(13)
O2_9 O 0.2496(10) 0.2167 0.0000(10)
O3_9 O 0.2297(11) 0.3140 0.0000(13)
N1_5 N 0.3299(9) 0.3348 0.0000(8)
N2_5 N 0.3432(9) 0.2349 -0.0000(10)
C1_3 C 0.3404(10) 0.3548(10) 0.0383(9)
C2_3 C 0.3646(10) 0.2198(8) 0.0391(11)
H1_3 H 0.3292 0.3424 0.0658
C3_3 C 0.3670(11) 0.3928(9) 0.0403(10)
H2_3 H 0.3542 0.2314 0.0672
C4_3 C 0.4003(12) 0.1888(9) 0.0400(13)
H3_3 H 0.3759 0.4050 0.0687
C5_5 C 0.3808(13) 0.4131 0.0000(12)
H4_3 H 0.4114 0.1784 0.0683
C6_5 C 0.4199(13) 0.1728 0.0000(14)
C7_5 C 0.4104(13) 0.4565 0.0000(12)
C8_5 C 0.4578(11) 0.1386 0.0000(12)
H5_3 H 0.4301 0.4565 0.0271
C9_5 C 0.3810(19) 0.5000 0.0000
C10_5 C 0.5000 0.1680 0.000(2)
H7_3 H 0.3613 0.5000 0.0271
H14_3 H 0.4566 0.1192 0.0273
C15_5 C 0.4104(13) 0.5435 0.0000(12)
C16_5 C 0.5422(11) 0.1386 0.0000(12)
H16_3 H 0.5000 0.1872 0.0271
C17_5 C 0.3808(13) 0.5869 0.0000(12)
H18_3 H 0.4301 0.5435 0.0271
C18_5 C 0.5801(13) 0.1728 0.0000(14)
H19_3 H 0.5434 0.1192 0.0273
Ni5_3 Ni 0.28957(13) 0.7241 0.00000(13)
C20_3 C 0.3670(11) 0.6072(9) 0.0403(10)
C22_3 C 0.5997(12) 0.1888(9) 0.0400(13)
N8_5 N 0.3299(9) 0.6652 0.0000(8)
C24_3 C 0.3404(10) 0.6452(10) 0.0383(9)
H22_3 H 0.3759 0.5950 0.0687
C26_3 C 0.6354(10) 0.2198(8) 0.0391(11)
H24_3 H 0.5886 0.1784 0.0683
H26_3 H 0.3292 0.6576 0.0658
N9_5 N 0.6568(9) 0.2349 0.0000(10)
H28_3 H 0.6458 0.2314 0.0672
Ni6_5 Ni 0.71043(13) 0.2759 0.00000(13)
Ni1_4 Ni 0.28957(13) 0.2759 1.00000(13)
O2_10 O 0.2496(10) 0.2167 1.0000(10)
O3_10 O 0.2297(11) 0.3140 1.0000(13)
N1_6 N 0.3299(9) 0.3348 1.0000(8)
N2_6 N 0.3432(9) 0.2349 1.0000(10)
C5_6 C 0.3808(13) 0.4131 1.0000(12)
C6_6 C 0.4199(13) 0.1728 1.0000(14)
C7_6 C 0.4104(13) 0.4565 1.0000(12)
C8_6 C 0.4578(11) 0.1386 1.0000(12)
C9_6 C 0.3810(19) 0.5000 1.0000
H6_3 H 0.4566 0.1192 0.9727
C10_6 C 0.5000 0.1680 1.000(2)
H8_3 H 0.5000 0.1872 0.9729
C11_3 C 0.3404(10) 0.3548(10) 0.9617(9)
C12_3 C 0.3646(10) 0.2198(8) 0.9609(11)
C13_3 C 0.3670(11) 0.3928(9) 0.9597(10)
H9_3 H 0.3292 0.3424 0.9342
C14_3 C 0.4003(12) 0.1888(9) 0.9600(13)
H10_3 H 0.3542 0.2314 0.9328
H11_3 H 0.3759 0.4050 0.9313
H12_3 H 0.4114 0.1784 0.9317
H13_3 H 0.4301 0.4565 0.9729
C15_6 C 0.4104(13) 0.5435 1.0000(12)
H15_3 H 0.3613 0.5000 0.9729
C16_6 C 0.5422(11) 0.1386 1.0000(12)
C17_6 C 0.3808(13) 0.5869 1.0000(12)
H17_3 H 0.4301 0.5435 0.9729
C18_6 C 0.5801(13) 0.1728 1.0000(14)
H20_3 H 0.5434 0.1192 0.9727
Ni3_5 Ni 0.21043(13) 0.50000(13) 0.7759
Ni5_4 Ni 0.28957(13) 0.7241 1.00000(13)
C19_3 C 0.3670(11) 0.6072(9) 0.9597(10)
C21_3 C 0.5997(12) 0.1888(9) 0.9600(13)
O66_5 O 0.2504(10) 0.5000(10) 0.7167
O67_5 O 0.2703(11) 0.5000(13) 0.8140
N4_5 N 0.1701(9) 0.5000(8) 0.8348
N5_5 N 0.1568(9) 0.5000(10) 0.7349
O68_5 O 0.2154(5) 0.5674(5) 0.7745(5)
N8_6 N 0.3299(9) 0.6652 1.0000(8)
C23_3 C 0.3404(10) 0.6452(10) 0.9617(9)
H21_3 H 0.3759 0.5950 0.9313
C25_3 C 0.6354(10) 0.2198(8) 0.9609(11)
H23_3 H 0.5886 0.1784 0.9317
W20_5 W 0.24019(3) 0.61919(3) 0.76416(3)
H25_3 H 0.3292 0.6576 0.9342
N9_6 N 0.6568(9) 0.2349 1.0000(10)
H27_3 H 0.6458 0.2314 0.9328
Ni6_6 Ni 0.71043(13) 0.2759 1.00000(13)
O2_11 O 0.2496(10) 0.7833 0.0000(10)
O3_11 O 0.2297(11) 0.6860 0.0000(13)
N2_7 N 0.3432(9) 0.7651 0.0000(10)
C6_7 C 0.4199(13) 0.8272 0.0000(14)
C8_7 C 0.4578(11) 0.8614 0.0000(12)
H6_4 H 0.4566 0.8808 0.0273
C10_7 C 0.5000 0.8320 0.000(2)
H8_4 H 0.5000 0.8128 0.0271
C12_4 C 0.3646(10) 0.7802(8) 0.0391(11)
C14_4 C 0.4003(12) 0.8112(9) 0.0400(13)
H10_4 H 0.3542 0.7686 0.0672
H12_4 H 0.4114 0.8216 0.0683
C16_7 C 0.5422(11) 0.8614 0.0000(12)
C18_7 C 0.5801(13) 0.8272 0.0000(14)
H20_4 H 0.5434 0.8808 0.0273
Ni3_6 Ni 0.21043(13) 0.50000(13) 0.2241
C21_4 C 0.5997(12) 0.8112(9) 0.0400(13)
O66_6 O 0.2504(10) 0.5000(10) 0.2833
O67_6 O 0.2703(11) 0.5000(13) 0.1860
N4_6 N 0.1701(9) 0.5000(8) 0.1652
N5_6 N 0.1568(9) 0.5000(10) 0.2651
O68_6 O 0.2154(5) 0.4326(5) 0.2255(5)
C25_4 C 0.6354(10) 0.7802(8) 0.0391(11)
H23_4 H 0.5886 0.8216 0.0683
W20_6 W 0.24019(3) 0.38081(3) 0.23584(3)
N9_7 N 0.6568(9) 0.7651 0.0000(10)
H27_4 H 0.6458 0.7686 0.0672
Ni6_7 Ni 0.71043(13) 0.7241 0.00000(13)
W1_6 W 0.25981(3) 0.73584(3) 0.88081(3)
O1_6 O 0.2846(5) 0.7255(5) 0.9326(5)
O2_12 O 0.2496(10) 0.7833 1.0000(10)
O3_12 O 0.2297(11) 0.6860 1.0000(13)
N2_8 N 0.3432(9) 0.7651 1.0000(10)
C2_4 C 0.3646(10) 0.7802(8) 0.9609(11)
H2_4 H 0.3542 0.7686 0.9328
C4_4 C 0.4003(12) 0.8112(9) 0.9600(13)
H4_4 H 0.4114 0.8216 0.9317
C6_8 C 0.4199(13) 0.8272 1.0000(14)
C8_8 C 0.4578(11) 0.8614 1.0000(12)
C10_8 C 0.5000 0.8320 1.000(2)
H14_4 H 0.4566 0.8808 0.9727
C16_8 C 0.5422(11) 0.8614 1.0000(12)
H16_4 H 0.5000 0.8128 0.9729
C18_8 C 0.5801(13) 0.8272 1.0000(14)
H19_4 H 0.5434 0.8808 0.9727
C22_4 C 0.5997(12) 0.8112(9) 0.9600(13)
C26_4 C 0.6354(10) 0.7802(8) 0.9609(11)
H24_4 H 0.5886 0.8216 0.9317
N9_8 N 0.6568(9) 0.7651 1.0000(10)
H28_4 H 0.6458 0.7686 0.9328
Ni6_8 Ni 0.71043(13) 0.7241 1.00000(13)
W1_7 W 0.74019(3) 0.73584(3) 0.11919(3)
O1_7 O 0.7154(5) 0.7255(5) 0.0674(5)
O2_13 O 0.7504(10) 0.7833 0.0000(10)
O3_13 O 0.7703(11) 0.6860 0.0000(13)
N1_7 N 0.6701(9) 0.6652 0.0000(8)
C1_4 C 0.6596(10) 0.6452(10) 0.0383(9)
H1_4 H 0.6708 0.6576 0.0658
C3_4 C 0.6330(11) 0.6072(9) 0.0403(10)
H3_4 H 0.6241 0.5950 0.0687
C5_7 C 0.6192(13) 0.5869 0.0000(12)
C7_7 C 0.5896(13) 0.5435 0.0000(12)
H5_4 H 0.5699 0.5435 0.0271
C9_7 C 0.6190(19) 0.5000 0.0000
H7_4 H 0.6387 0.5000 0.0271
C15_7 C 0.5896(13) 0.4565 0.0000(12)
C17_7 C 0.6192(13) 0.4131 0.0000(12)
H18_4 H 0.5699 0.4565 0.0271
C20_4 C 0.6330(11) 0.3928(9) 0.0403(10)
N8_7 N 0.6701(9) 0.3348 0.0000(8)
C24_4 C 0.6596(10) 0.3548(10) 0.0383(9)
H22_4 H 0.6241 0.4050 0.0687
H26_4 H 0.6708 0.3424 0.0658
O2_14 O 0.7504(10) 0.7833 1.0000(10)
O3_14 O 0.7703(11) 0.6860 1.0000(13)
N1_8 N 0.6701(9) 0.6652 1.0000(8)
C5_8 C 0.6192(13) 0.5869 1.0000(12)
C7_8 C 0.5896(13) 0.5435 1.0000(12)
C9_8 C 0.6190(19) 0.5000 1.0000
C11_4 C 0.6596(10) 0.6452(10) 0.9617(9)
C13_4 C 0.6330(11) 0.6072(9) 0.9597(10)
H9_4 H 0.6708 0.6576 0.9342
H11_4 H 0.6241 0.5950 0.9313
H13_4 H 0.5699 0.5435 0.9729
C15_8 C 0.5896(13) 0.4565 1.0000(12)
H15_4 H 0.6387 0.5000 0.9729
C17_8 C 0.6192(13) 0.4131 1.0000(12)
H17_4 H 0.5699 0.4565 0.9729
Ni3_7 Ni 0.78957(13) 0.50000(13) 0.7759
C19_4 C 0.6330(11) 0.3928(9) 0.9597(10)
O66_7 O 0.7496(10) 0.5000(10) 0.7167
O67_7 O 0.7297(11) 0.5000(13) 0.8140
N4_7 N 0.8299(9) 0.5000(8) 0.8348
N5_7 N 0.8432(9) 0.5000(10) 0.7349
O68_7 O 0.7846(5) 0.4326(5) 0.7745(5)
N8_8 N 0.6701(9) 0.3348 1.0000(8)
C23_4 C 0.6596(10) 0.3548(10) 0.9617(9)
H21_4 H 0.6241 0.4050 0.9313
W20_7 W 0.75981(3) 0.38081(3) 0.76416(3)
H25_4 H 0.6708 0.3424 0.9342
O2_15 O 0.7504(10) 0.2167 0.0000(10)
O3_15 O 0.7703(11) 0.3140 0.0000(13)
Ni3_8 Ni 0.78957(13) 0.50000(13) 0.2241
O66_8 O 0.7496(10) 0.5000(10) 0.2833
O67_8 O 0.7297(11) 0.5000(13) 0.1860
N4_8 N 0.8299(9) 0.5000(8) 0.1652
N5_8 N 0.8432(9) 0.5000(10) 0.2651
O68_8 O 0.7846(5) 0.5674(5) 0.2255(5)
W20_8 W 0.75981(3) 0.61919(3) 0.23584(3)
W1_8 W 0.74019(3) 0.26416(3) 0.88081(3)
O1_8 O 0.7154(5) 0.2745(5) 0.9326(5)
O2_16 O 0.7504(10) 0.2167 1.0000(10)
O3_16 O 0.7703(11) 0.3140 1.0000(13)
W1_9 W 0.11919(3) 0.25981(3) 0.26416(3)
N2_9 N -0.0000(10) 0.3432(9) 0.2349
C2_5 C 0.0391(11) 0.3646(10) 0.2198(8)
H2_5 H 0.0672 0.3542 0.2314
C4_5 C 0.0400(13) 0.4003(12) 0.1888(9)
H4_5 H 0.0683 0.4114 0.1784
C6_9 C 0.0000(14) 0.4199(13) 0.1728
C8_9 C 0.0000(12) 0.4578(11) 0.1386
C10_9 C -0.000(2) 0.5000 0.1680
H14_5 H 0.0273 0.4566 0.1192
C16_9 C 0.0000(12) 0.5422(11) 0.1386
H16_5 H 0.0271 0.5000 0.1872
C18_9 C 0.0000(14) 0.5801(13) 0.1728
H19_5 H 0.0273 0.5434 0.1192
C22_5 C 0.0400(13) 0.5997(12) 0.1888(9)
C26_5 C 0.0391(11) 0.6354(10) 0.2198(8)
H24_5 H 0.0683 0.5886 0.1784
N9_9 N -0.0000(10) 0.6568(9) 0.2349
H28_5 H 0.0672 0.6458 0.2314
N2_10 N 1.0000(10) 0.3432(9) 0.2349
C6_10 C 1.0000(14) 0.4199(13) 0.1728
C8_10 C 1.0000(12) 0.4578(11) 0.1386
H6_5 H 0.9727 0.4566 0.1192
C10_10 C 1.000(2) 0.5000 0.1680
H8_5 H 0.9729 0.5000 0.1872
C12_5 C 0.9609(11) 0.3646(10) 0.2198(8)
C14_5 C 0.9600(13) 0.4003(12) 0.1888(9)
H10_5 H 0.9328 0.3542 0.2314
H12_5 H 0.9317 0.4114 0.1784
C16_10 C 1.0000(12) 0.5422(11) 0.1386
C18_10 C 1.0000(14) 0.5801(13) 0.1728
H20_5 H 0.9727 0.5434 0.1192
C21_5 C 0.9600(13) 0.5997(12) 0.1888(9)
C25_5 C 0.9609(11) 0.6354(10) 0.2198(8)
H23_5 H 0.9317 0.5886 0.1784
W20_9 W 0.76416(3) 0.24019(3) 0.61919(3)
N9_10 N 1.0000(10) 0.6568(9) 0.2349
H27_5 H 0.9328 0.6458 0.2314
N2_11 N -0.0000(10) 0.3432(9) 0.7651
C6_11 C -0.0000(14) 0.4199(13) 0.8272
C8_11 C 0.0000(12) 0.4578(11) 0.8614
H6_6 H 0.0273 0.4566 0.8808
C10_11 C 0.000(2) 0.5000 0.8320
H8_6 H 0.0271 0.5000 0.8128
C12_6 C 0.0391(11) 0.3646(10) 0.7802(8)
C14_6 C 0.0400(13) 0.4003(12) 0.8112(9)
H10_6 H 0.0672 0.3542 0.7686
H12_6 H 0.0683 0.4114 0.8216
C16_11 C -0.0000(12) 0.5422(11) 0.8614
C18_11 C -0.0000(14) 0.5801(13) 0.8272
H20_6 H 0.0273 0.5434 0.8808
C21_6 C 0.0400(13) 0.5997(12) 0.8112(9)
C25_6 C 0.0391(11) 0.6354(10) 0.7802(8)
H23_6 H 0.0683 0.5886 0.8216
W20_10 W 0.23584(3) 0.24019(3) 0.38081(3)
N9_11 N -0.0000(10) 0.6568(9) 0.7651
H27_6 H 0.0672 0.6458 0.7686
W1_10 W 0.88081(3) 0.25981(3) 0.73584(3)
N2_12 N 1.0000(10) 0.3432(9) 0.7651
C2_6 C 0.9609(11) 0.3646(10) 0.7802(8)
H2_6 H 0.9328 0.3542 0.7686
C4_6 C 0.9600(13) 0.4003(12) 0.8112(9)
H4_6 H 0.9317 0.4114 0.8216
C6_12 C 1.0000(14) 0.4199(13) 0.8272
C8_12 C 1.0000(12) 0.4578(11) 0.8614
C10_12 C 1.000(2) 0.5000 0.8320
H14_6 H 0.9727 0.4566 0.8808
C16_12 C 1.0000(12) 0.5422(11) 0.8614
H16_6 H 0.9729 0.5000 0.8128
C18_12 C 1.0000(14) 0.5801(13) 0.8272
H19_6 H 0.9727 0.5434 0.8808
C22_6 C 0.9600(13) 0.5997(12) 0.8112(9)
C26_6 C 0.9609(11) 0.6354(10) 0.7802(8)
H24_6 H 0.9317 0.5886 0.8216
N9_12 N 1.0000(10) 0.6568(9) 0.7651
H28_6 H 0.9328 0.6458 0.7686
W1_11 W 0.11919(3) 0.74019(3) 0.73584(3)
W20_11 W 0.76416(3) 0.75981(3) 0.38081(3)
W20_12 W 0.23584(3) 0.75981(3) 0.61919(3)
W1_12 W 0.88081(3) 0.74019(3) 0.26416(3)
C9_9 C 0.5000 -0.0000 0.1190(19)
H7_5 H 0.5271 -0.0000 0.1387
C15_9 C 0.5000(12) 0.0435 0.0896(13)
H15_5 H 0.4729 -0.0000 0.1387
C17_9 C 0.5000(12) 0.0869 0.1192(13)
H17_5 H 0.4729 0.0435 0.0699
H18_5 H 0.5271 0.0435 0.0699
C19_5 C 0.4597(10) 0.1072(9) 0.1330(11)
C20_5 C 0.5403(10) 0.1072(9) 0.1330(11)
C23_5 C 0.4617(9) 0.1452(10) 0.1596(10)
H21_5 H 0.4313 0.0950 0.1241
C24_5 C 0.5383(9) 0.1452(10) 0.1596(10)
H22_5 H 0.5687 0.0950 0.1241
H25_5 H 0.4342 0.1576 0.1708
H26_5 H 0.5658 0.1576 0.1708
C1_5 C 0.5383(9) 0.8548(10) 0.1596(10)
C2_7 C 0.5391(11) 0.7198(8) 0.1354(10)
H1_5 H 0.5658 0.8424 0.1708
C3_5 C 0.5403(10) 0.8928(9) 0.1330(11)
H2_7 H 0.5672 0.7314 0.1458
C4_7 C 0.5400(13) 0.6888(9) 0.0997(12)
H3_5 H 0.5687 0.9050 0.1241
C5_9 C 0.5000(12) 0.9131 0.1192(13)
H4_7 H 0.5683 0.6784 0.0886
C6_13 C 0.5000(14) 0.6728 0.0801(13)
C7_9 C 0.5000(12) 0.9565 0.0896(13)
C8_13 C 0.5000(12) 0.6386 0.0422(11)
H5_5 H 0.5271 0.9565 0.0699
C9_10 C 0.5000 1.0000 0.1190(19)
H6_7 H 0.4727 0.6192 0.0434
C10_13 C 0.500(2) 0.6680 0.0000
H7_6 H 0.5271 1.0000 0.1387
H8_7 H 0.4729 0.6872 0.0000
C11_5 C 0.4617(9) 0.8548(10) 0.1596(10)
C12_7 C 0.4609(11) 0.7198(8) 0.1354(10)
C13_5 C 0.4597(10) 0.8928(9) 0.1330(11)
H9_5 H 0.4342 0.8424 0.1708
C14_7 C 0.4600(13) 0.6888(9) 0.0997(12)
H10_7 H 0.4328 0.7314 0.1458
H11_5 H 0.4313 0.9050 0.1241
H12_7 H 0.4317 0.6784 0.0886
H13_5 H 0.4729 0.9565 0.0699
H14_7 H 0.5273 0.6192 0.0434
H15_6 H 0.4729 1.0000 0.1387
H16_7 H 0.5271 0.6872 0.0000
C27_3 C 0.1596(10) 0.5383(9) 0.1452(10)
C28_3 C 0.1596(10) 0.4617(9) 0.1452(10)
H29_3 H 0.1708 0.5658 0.1576
C29_3 C 0.1330(11) 0.5403(10) 0.1072(9)
C30_3 C 0.1330(11) 0.4597(10) 0.1072(9)
H30_3 H 0.1708 0.4342 0.1576
H31_3 H 0.1241 0.5687 0.0950
C31_5 C 0.1192(13) 0.5000(12) 0.0869
H32_3 H 0.1241 0.4313 0.0950
C32_5 C 0.0896(13) 0.5000(12) 0.0435
H33_3 H 0.0699 0.5271 0.0435
C33_5 C 0.1190(19) 0.5000 0.0000
H34_3 H 0.0699 0.4729 0.0435
H35_3 H 0.1387 0.5271 0.0000
H36_3 H 0.1387 0.4729 0.0000
C10_14 C 0.500(2) 0.6680 1.0000
H8_8 H 0.4729 0.6872 1.0000
C16_13 C 0.5000(12) 0.6386 0.9578(11)
H16_8 H 0.5271 0.6872 1.0000
C18_13 C 0.5000(14) 0.6728 0.9199(13)
H19_7 H 0.5273 0.6192 0.9566
H20_7 H 0.4727 0.6192 0.9566
C21_7 C 0.4600(13) 0.6888(9) 0.9003(12)
C22_7 C 0.5400(13) 0.6888(9) 0.9003(12)
C25_7 C 0.4609(11) 0.7198(8) 0.8646(10)
H23_7 H 0.4317 0.6784 0.9114
C26_7 C 0.5391(11) 0.7198(8) 0.8646(10)
H24_7 H 0.5683 0.6784 0.9114
H27_7 H 0.4328 0.7314 0.8542
H28_7 H 0.5672 0.7314 0.8542
C33_6 C 0.1190(19) 0.5000 1.0000
H35_4 H 0.1387 0.5271 1.0000
C34_5 C 0.0896(13) 0.5000(12) 0.9565
H36_4 H 0.1387 0.4729 1.0000
C35_5 C 0.1192(13) 0.5000(12) 0.9131
H37_3 H 0.0699 0.4729 0.9565
H38_3 H 0.0699 0.5271 0.9565
C36_3 C 0.1330(11) 0.4597(10) 0.8928(9)
C37_3 C 0.1330(11) 0.5403(10) 0.8928(9)
C38_3 C 0.1596(10) 0.4617(9) 0.8548(10)
H39_3 H 0.1241 0.4313 0.9050
C39_3 C 0.1596(10) 0.5383(9) 0.8548(10)
H40_3 H 0.1241 0.5687 0.9050
H41_3 H 0.1708 0.4342 0.8424
H42_3 H 0.1708 0.5658 0.8424
C2_8 C 0.4609(11) 0.2802(8) 0.1354(10)
H2_8 H 0.4328 0.2686 0.1458
C4_8 C 0.4600(13) 0.3112(9) 0.0997(12)
H4_8 H 0.4317 0.3216 0.0886
C6_14 C 0.5000(14) 0.3272 0.0801(13)
C8_14 C 0.5000(12) 0.3614 0.0422(11)
H6_8 H 0.5273 0.3808 0.0434
C10_15 C 0.500(2) 0.3320 0.0000
H8_9 H 0.5271 0.3128 0.0000
C12_8 C 0.5391(11) 0.2802(8) 0.1354(10)
C14_8 C 0.5400(13) 0.3112(9) 0.0997(12)
H10_8 H 0.5672 0.2686 0.1458
H12_8 H 0.5683 0.3216 0.0886
H14_8 H 0.4727 0.3808 0.0434
H16_9 H 0.4729 0.3128 0.0000
C27_4 C 0.8404(10) 0.4617(9) 0.1452(10)
C28_4 C 0.8404(10) 0.5383(9) 0.1452(10)
H29_4 H 0.8292 0.4342 0.1576
C29_4 C 0.8670(11) 0.4597(10) 0.1072(9)
C30_4 C 0.8670(11) 0.5403(10) 0.1072(9)
H30_4 H 0.8292 0.5658 0.1576
H31_4 H 0.8759 0.4313 0.0950
C31_6 C 0.8808(13) 0.5000(12) 0.0869
H32_4 H 0.8759 0.5687 0.0950
C32_6 C 0.9104(13) 0.5000(12) 0.0435
H33_4 H 0.9301 0.4729 0.0435
C33_7 C 0.8810(19) 0.5000 0.0000
H34_4 H 0.9301 0.5271 0.0435
H35_5 H 0.8613 0.4729 0.0000
H36_5 H 0.8613 0.5271 0.0000
C10_16 C 0.500(2) 0.3320 1.0000
H8_10 H 0.5271 0.3128 1.0000
C16_14 C 0.5000(12) 0.3614 0.9578(11)
H16_10 H 0.4729 0.3128 1.0000
C18_14 C 0.5000(14) 0.3272 0.9199(13)
H19_8 H 0.4727 0.3808 0.9566
H20_8 H 0.5273 0.3808 0.9566
C21_8 C 0.5400(13) 0.3112(9) 0.9003(12)
C22_8 C 0.4600(13) 0.3112(9) 0.9003(12)
C25_8 C 0.5391(11) 0.2802(8) 0.8646(10)
H23_8 H 0.5683 0.3216 0.9114
C26_8 C 0.4609(11) 0.2802(8) 0.8646(10)
H24_8 H 0.4317 0.3216 0.9114
H27_8 H 0.5672 0.2686 0.8542
H28_8 H 0.4328 0.2686 0.8542
C33_8 C 0.8810(19) 0.5000 1.0000
H35_6 H 0.8613 0.4729 1.0000
C34_6 C 0.9104(13) 0.5000(12) 0.9565
H36_6 H 0.8613 0.5271 1.0000
C35_6 C 0.8808(13) 0.5000(12) 0.9131
H37_4 H 0.9301 0.5271 0.9565
H38_4 H 0.9301 0.4729 0.9565
C36_4 C 0.8670(11) 0.5403(10) 0.8928(9)
C37_4 C 0.8670(11) 0.4597(10) 0.8928(9)
C38_4 C 0.8404(10) 0.5383(9) 0.8548(10)
H39_4 H 0.8759 0.5687 0.9050
C39_4 C 0.8404(10) 0.4617(9) 0.8548(10)
H40_4 H 0.8759 0.4313 0.9050
H41_4 H 0.8292 0.5658 0.8424
H42_4 H 0.8292 0.4342 0.8424
C1_6 C 0.5383(9) 0.1452(10) 0.8404(10)
H1_6 H 0.5658 0.1576 0.8292
C3_6 C 0.5403(10) 0.1072(9) 0.8670(11)
H3_6 H 0.5687 0.0950 0.8759
C5_10 C 0.5000(12) 0.0869 0.8808(13)
C7_10 C 0.5000(12) 0.0435 0.9104(13)
H5_6 H 0.5271 0.0435 0.9301
C9_11 C 0.5000 0.0000 0.8810(19)
H7_7 H 0.5271 0.0000 0.8613
C11_6 C 0.4617(9) 0.1452(10) 0.8404(10)
C13_6 C 0.4597(10) 0.1072(9) 0.8670(11)
H9_6 H 0.4342 0.1576 0.8292
H11_6 H 0.4313 0.0950 0.8759
H13_6 H 0.4729 0.0435 0.9301
H15_7 H 0.4729 0.0000 0.8613
C9_12 C 0.5000 1.0000 0.8810(19)
H7_8 H 0.5271 1.0000 0.8613
C15_10 C 0.5000(12) 0.9565 0.9104(13)
H15_8 H 0.4729 1.0000 0.8613
C17_10 C 0.5000(12) 0.9131 0.8808(13)
H17_6 H 0.4729 0.9565 0.9301
H18_6 H 0.5271 0.9565 0.9301
C19_6 C 0.4597(10) 0.8928(9) 0.8670(11)
C20_6 C 0.5403(10) 0.8928(9) 0.8670(11)
C23_6 C 0.4617(9) 0.8548(10) 0.8404(10)
H21_6 H 0.4313 0.9050 0.8759
C24_6 C 0.5383(9) 0.8548(10) 0.8404(10)
H22_6 H 0.5687 0.9050 0.8759
H25_6 H 0.4342 0.8424 0.8292
H26_6 H 0.5658 0.8424 0.8292
C9_13 C -0.0000 0.8810(19) 0.5000
H7_9 H -0.0000 0.8613 0.4729
C15_11 C 0.0435 0.9104(13) 0.5000(12)
H15_9 H -0.0000 0.8613 0.5271
C17_11 C 0.0869 0.8808(13) 0.5000(12)
H17_7 H 0.0435 0.9301 0.5271
H18_7 H 0.0435 0.9301 0.4729
C19_7 C 0.1072(9) 0.8670(11) 0.5403(10)
C20_7 C 0.1072(9) 0.8670(11) 0.4597(10)
C23_7 C 0.1452(10) 0.8404(10) 0.5383(9)
H21_7 H 0.0950 0.8759 0.5687
C24_7 C 0.1452(10) 0.8404(10) 0.4617(9)
H22_7 H 0.0950 0.8759 0.4313
H25_7 H 0.1576 0.8292 0.5658
H26_7 H 0.1576 0.8292 0.4342
C10_17 C 0.6680 -0.0000 0.500(2)
H8_11 H 0.6872 -0.0000 0.5271
C16_15 C 0.6386 0.0422(11) 0.5000(12)
H16_11 H 0.6872 -0.0000 0.4729
C18_15 C 0.6728 0.0801(13) 0.5000(14)
H19_9 H 0.6192 0.0434 0.4727
H20_9 H 0.6192 0.0434 0.5273
C21_9 C 0.6888(9) 0.0997(12) 0.5400(13)
C22_9 C 0.6888(9) 0.0997(12) 0.4600(13)
C25_9 C 0.7198(8) 0.1354(10) 0.5391(11)
H23_9 H 0.6784 0.0886 0.5683
C26_9 C 0.7198(8) 0.1354(10) 0.4609(11)
H24_9 H 0.6784 0.0886 0.4317
H27_9 H 0.7314 0.1458 0.5672
H28_9 H 0.7314 0.1458 0.4328
C1_7 C 0.8548(10) 0.8404(10) 0.4617(9)
C2_9 C 0.7198(8) 0.8646(10) 0.4609(11)
H1_7 H 0.8424 0.8292 0.4342
C3_7 C 0.8928(9) 0.8670(11) 0.4597(10)
H2_9 H 0.7314 0.8542 0.4328
C4_9 C 0.6888(9) 0.9003(12) 0.4600(13)
H3_7 H 0.9050 0.8759 0.4313
C5_11 C 0.9131 0.8808(13) 0.5000(12)
H4_9 H 0.6784 0.9114 0.4317
C6_15 C 0.6728 0.9199(13) 0.5000(14)
C7_11 C 0.9565 0.9104(13) 0.5000(12)
C8_15 C 0.6386 0.9578(11) 0.5000(12)
H5_7 H 0.9565 0.9301 0.4729
C9_14 C 1.0000 0.8810(19) 0.5000
H6_9 H 0.6192 0.9566 0.5273
C10_18 C 0.6680 1.0000 0.500(2)
H7_10 H 1.0000 0.8613 0.4729
H8_12 H 0.6872 1.0000 0.5271
C11_7 C 0.8548(10) 0.8404(10) 0.5383(9)
C12_9 C 0.7198(8) 0.8646(10) 0.5391(11)
C13_7 C 0.8928(9) 0.8670(11) 0.5403(10)
H9_7 H 0.8424 0.8292 0.5658
C14_9 C 0.6888(9) 0.9003(12) 0.5400(13)
H10_9 H 0.7314 0.8542 0.5672
H11_7 H 0.9050 0.8759 0.5687
H12_9 H 0.6784 0.9114 0.5683
H13_7 H 0.9565 0.9301 0.5271
H14_9 H 0.6192 0.9566 0.4727
H15_10 H 1.0000 0.8613 0.5271
H16_12 H 0.6872 1.0000 0.4729
C10_19 C 0.3320 -0.0000 0.500(2)
H8_13 H 0.3128 -0.0000 0.4729
C16_16 C 0.3614 0.0422(11) 0.5000(12)
H16_13 H 0.3128 -0.0000 0.5271
C18_16 C 0.3272 0.0801(13) 0.5000(14)
H19_10 H 0.3808 0.0434 0.5273
H20_10 H 0.3808 0.0434 0.4727
C21_10 C 0.3112(9) 0.0997(12) 0.4600(13)
C22_10 C 0.3112(9) 0.0997(12) 0.5400(13)
C25_10 C 0.2802(8) 0.1354(10) 0.4609(11)
H23_10 H 0.3216 0.0886 0.4317
C26_10 C 0.2802(8) 0.1354(10) 0.5391(11)
H24_10 H 0.3216 0.0886 0.5683
H27_10 H 0.2686 0.1458 0.4328
H28_10 H 0.2686 0.1458 0.5672
C2_10 C 0.2802(8) 0.8646(10) 0.5391(11)
H2_10 H 0.2686 0.8542 0.5672
C4_10 C 0.3112(9) 0.9003(12) 0.5400(13)
H4_10 H 0.3216 0.9114 0.5683
C6_16 C 0.3272 0.9199(13) 0.5000(14)
C8_16 C 0.3614 0.9578(11) 0.5000(12)
H6_10 H 0.3808 0.9566 0.4727
C10_20 C 0.3320 1.0000 0.500(2)
H8_14 H 0.3128 1.0000 0.4729
C12_10 C 0.2802(8) 0.8646(10) 0.4609(11)
C14_10 C 0.3112(9) 0.9003(12) 0.4600(13)
H10_10 H 0.2686 0.8542 0.4328
H12_10 H 0.3216 0.9114 0.4317
H14_10 H 0.3808 0.9566 0.5273
H16_14 H 0.3128 1.0000 0.5271
C1_8 C 0.1452(10) 0.1596(10) 0.4617(9)
H1_8 H 0.1576 0.1708 0.4342
C3_8 C 0.1072(9) 0.1330(11) 0.4597(10)
H3_8 H 0.0950 0.1241 0.4313
C5_12 C 0.0869 0.1192(13) 0.5000(12)
C7_12 C 0.0435 0.0896(13) 0.5000(12)
H5_8 H 0.0435 0.0699 0.4729
C9_15 C 0.0000 0.1190(19) 0.5000
H7_11 H 0.0000 0.1387 0.4729
C11_8 C 0.1452(10) 0.1596(10) 0.5383(9)
C13_8 C 0.1072(9) 0.1330(11) 0.5403(10)
H9_8 H 0.1576 0.1708 0.5658
H11_8 H 0.0950 0.1241 0.5687
H13_8 H 0.0435 0.0699 0.5271
H15_11 H 0.0000 0.1387 0.5271
C9_16 C 1.0000 0.1190(19) 0.5000
H7_12 H 1.0000 0.1387 0.4729
C15_12 C 0.9565 0.0896(13) 0.5000(12)
H15_12 H 1.0000 0.1387 0.5271
C17_12 C 0.9131 0.1192(13) 0.5000(12)
H17_8 H 0.9565 0.0699 0.5271
H18_8 H 0.9565 0.0699 0.4729
C19_8 C 0.8928(9) 0.1330(11) 0.5403(10)
C20_8 C 0.8928(9) 0.1330(11) 0.4597(10)
C23_8 C 0.8548(10) 0.1596(10) 0.5383(9)
H21_8 H 0.9050 0.1241 0.5687
C24_8 C 0.8548(10) 0.1596(10) 0.4617(9)
H22_8 H 0.9050 0.1241 0.4313
H25_8 H 0.8424 0.1708 0.5658
H26_8 H 0.8424 0.1708 0.4342
C10_21 C -0.0000 0.500(2) 0.3320
H8_15 H -0.0000 0.4729 0.3128
C16_17 C 0.0422(11) 0.5000(12) 0.3614
H16_15 H -0.0000 0.5271 0.3128
C18_17 C 0.0801(13) 0.5000(14) 0.3272
H19_11 H 0.0434 0.5273 0.3808
H20_11 H 0.0434 0.4727 0.3808
C21_11 C 0.0997(12) 0.4600(13) 0.3112(9)
C22_11 C 0.0997(12) 0.5400(13) 0.3112(9)
C25_11 C 0.1354(10) 0.4609(11) 0.2802(8)
H23_11 H 0.0886 0.4317 0.3216
C26_11 C 0.1354(10) 0.5391(11) 0.2802(8)
H24_11 H 0.0886 0.5683 0.3216
H27_11 H 0.1458 0.4328 0.2686
H28_11 H 0.1458 0.5672 0.2686
C2_11 C 0.8646(10) 0.5391(11) 0.2802(8)
H2_11 H 0.8542 0.5672 0.2686
C4_11 C 0.9003(12) 0.5400(13) 0.3112(9)
H4_11 H 0.9114 0.5683 0.3216
C6_17 C 0.9199(13) 0.5000(14) 0.3272
C8_17 C 0.9578(11) 0.5000(12) 0.3614
H6_11 H 0.9566 0.4727 0.3808
C10_22 C 1.0000 0.500(2) 0.3320
H8_16 H 1.0000 0.4729 0.3128
C12_11 C 0.8646(10) 0.4609(11) 0.2802(8)
C14_11 C 0.9003(12) 0.4600(13) 0.3112(9)
H10_11 H 0.8542 0.4328 0.2686
H12_11 H 0.9114 0.4317 0.3216
H14_11 H 0.9566 0.5273 0.3808
H16_16 H 1.0000 0.5271 0.3128
C10_23 C -0.0000 0.500(2) 0.6680
H8_17 H -0.0000 0.5271 0.6872
C16_18 C 0.0422(11) 0.5000(12) 0.6386
H16_17 H -0.0000 0.4729 0.6872
C18_18 C 0.0801(13) 0.5000(14) 0.6728
H19_12 H 0.0434 0.4727 0.6192
H20_12 H 0.0434 0.5273 0.6192
C21_12 C 0.0997(12) 0.5400(13) 0.6888(9)
C22_12 C 0.0997(12) 0.4600(13) 0.6888(9)
C25_12 C 0.1354(10) 0.5391(11) 0.7198(8)
H23_12 H 0.0886 0.5683 0.6784
C26_12 C 0.1354(10) 0.4609(11) 0.7198(8)
H24_12 H 0.0886 0.4317 0.6784
H27_12 H 0.1458 0.5672 0.7314
H28_12 H 0.1458 0.4328 0.7314
C2_12 C 0.8646(10) 0.4609(11) 0.7198(8)
H2_12 H 0.8542 0.4328 0.7314
C4_12 C 0.9003(12) 0.4600(13) 0.6888(9)
H4_12 H 0.9114 0.4317 0.6784
C6_18 C 0.9199(13) 0.5000(14) 0.6728
C8_18 C 0.9578(11) 0.5000(12) 0.6386
H6_12 H 0.9566 0.5273 0.6192
C10_24 C 1.0000 0.500(2) 0.6680
H8_18 H 1.0000 0.5271 0.6872
C12_12 C 0.8646(10) 0.5391(11) 0.7198(8)
C14_12 C 0.9003(12) 0.5400(13) 0.6888(9)
H10_12 H 0.8542 0.5672 0.7314
H12_12 H 0.9114 0.5683 0.6784
H14_12 H 0.9566 0.4727 0.6192
H16_18 H 1.0000 0.4729 0.6872
O4_5 O 0.7455(4) 0.1844(4) 0.7791(4)
O5_5 O 0.7801(5) 0.1417(5) 0.7003(5)
O6_5 O 0.6912(5) 0.1511(5) 0.7095(6)
O7_5 O 0.7858(5) 0.0987(5) 0.7775(6)
O8_5 O 0.6966(5) 0.1140(5) 0.7918(5)
P1_5 P 0.78924(17) 0.21076(17) 0.78924(17)
W2_5 W 0.69027(3) 0.16109(3) 0.83419(3)
W3_5 W 0.84501(4) 0.10729(4) 0.80020(4)
O9_5 O 0.8200(5) 0.1800(5) 0.8200(5)
O10_5 O 0.7436(5) 0.1428(5) 0.8655(5)
O11_5 O 0.6498(6) 0.1406(6) 0.8689(5)
O12_5 O 0.8669(5) 0.0561(6) 0.7948(6)
O13_5 O 0.8970(5) 0.1390(6) 0.8221(5)
W5_5 W 0.83891(3) 0.16581(3) 0.69027(3)
W6_5 W 0.66109(3) 0.19027(3) 0.66581(3)
O15_5 O 0.8156(4) 0.2209(4) 0.7455(4)
O16_5 O 0.7791(4) 0.2545(4) 0.8156(4)
O17_5 O 0.7003(5) 0.2199(5) 0.8583(5)
O18_5 O 0.6511(5) 0.1912(5) 0.7905(6)
O19_5 O 0.8572(5) 0.1345(5) 0.7436(5)
O20_5 O 0.8860(5) 0.2082(5) 0.6966(5)
O21_5 O 0.8594(6) 0.1311(5) 0.6498(6)
O22_5 O 0.8088(5) 0.2095(6) 0.6511(5)
O23_5 O 0.6844(4) 0.2455(4) 0.7209(4)
O24_5 O 0.6428(5) 0.2436(5) 0.6345(5)
O25_5 O 0.6140(5) 0.1966(5) 0.7082(5)
O26_5 O 0.6406(6) 0.1498(6) 0.6311(5)
O27_5 O 0.7199(5) 0.2003(5) 0.6417(5)
O28_5 O 0.8221(5) 0.1030(5) 0.8610(6)
W7_5 W 0.80020(4) 0.15499(4) 0.89271(4)
W8_5 W 0.89271(4) 0.19980(4) 0.84501(4)
W10_5 W 0.83419(3) 0.30973(3) 0.83891(3)
P2_5 P 0.71076(17) 0.28924(17) 0.71076(17)
W14_5 W 0.65499(4) 0.30020(4) 0.60729(4)
O29_5 O 0.7775(6) 0.2142(5) 0.9013(5)
O30_5 O 0.7948(6) 0.1331(5) 0.9439(6)
O31_5 O 0.8610(6) 0.1779(5) 0.8970(5)
O32_5 O 0.8655(5) 0.2564(5) 0.8572(5)
O33_5 O 0.9013(5) 0.2225(6) 0.7858(5)
O34_5 O 0.9439(6) 0.2052(6) 0.8669(5)
O35_5 O 0.8583(5) 0.2997(5) 0.7801(5)
O36_5 O 0.8489(5) 0.2905(6) 0.6912(5)
O38_5 O 0.7918(5) 0.3034(5) 0.8860(5)
O39_5 O 0.8689(5) 0.3502(6) 0.8594(6)
O40_5 O 0.7905(6) 0.3489(5) 0.8088(5)
O41_5 O 0.7095(6) 0.3088(5) 0.8489(5)
O43_5 O 0.6417(5) 0.2801(5) 0.7997(5)
O45_5 O 0.5987(5) 0.2858(5) 0.7225(6)
O46_5 O 0.7545(4) 0.2791(4) 0.6844(4)
O47_5 O 0.8034(5) 0.2918(5) 0.6140(5)
O49_5 O 0.7142(5) 0.2775(6) 0.5987(5)
O50_5 O 0.6800(5) 0.3200(5) 0.6800(5)
O51_5 O 0.7209(4) 0.3156(4) 0.7545(4)
O52_5 O 0.6030(5) 0.3221(5) 0.6390(6)
O53_5 O 0.6331(5) 0.2948(6) 0.5561(6)
O54_5 O 0.6779(5) 0.3610(6) 0.6030(5)
W15_5 W 0.80973(3) 0.33419(3) 0.66109(3)
W17_5 W 0.66581(3) 0.33891(3) 0.80973(3)
W18_5 W 0.60729(4) 0.34501(4) 0.69980(4)
W19_5 W 0.69980(4) 0.39271(4) 0.65499(4)
O55_5 O 0.7564(5) 0.3655(5) 0.6428(5)
O56_5 O 0.8502(6) 0.3689(5) 0.6406(6)
O57_5 O 0.7997(5) 0.3583(5) 0.7199(5)
O61_5 O 0.7082(5) 0.3860(5) 0.8034(5)
O63_5 O 0.7225(6) 0.4013(5) 0.7142(5)
O64_5 O 0.6345(5) 0.3572(5) 0.7564(5)
O65_5 O 0.6311(5) 0.3594(6) 0.8502(6)
O69_5 O 0.5561(6) 0.3669(5) 0.7052(6)
O70_5 O 0.6390(6) 0.3970(5) 0.6779(5)
O74_5 O 0.7052(6) 0.4439(6) 0.6331(5)
O4_6 O 0.2545(4) 0.8156(4) 0.7791(4)
O5_6 O 0.2199(5) 0.8583(5) 0.7003(5)
O6_6 O 0.3088(5) 0.8489(5) 0.7095(6)
O7_6 O 0.2142(5) 0.9013(5) 0.7775(6)
O8_6 O 0.3034(5) 0.8860(5) 0.7918(5)
P1_6 P 0.21076(17) 0.78924(17) 0.78924(17)
W2_6 W 0.30973(3) 0.83891(3) 0.83419(3)
W3_6 W 0.15499(4) 0.89271(4) 0.80020(4)
O9_6 O 0.1800(5) 0.8200(5) 0.8200(5)
O10_6 O 0.2564(5) 0.8572(5) 0.8655(5)
O11_6 O 0.3502(6) 0.8594(6) 0.8689(5)
O12_6 O 0.1331(5) 0.9439(6) 0.7948(6)
O13_6 O 0.1030(5) 0.8610(6) 0.8221(5)
W5_6 W 0.16109(3) 0.83419(3) 0.69027(3)
W6_6 W 0.33891(3) 0.80973(3) 0.66581(3)
O15_6 O 0.1844(4) 0.7791(4) 0.7455(4)
O16_6 O 0.2209(4) 0.7455(4) 0.8156(4)
O17_6 O 0.2997(5) 0.7801(5) 0.8583(5)
O18_6 O 0.3489(5) 0.8088(5) 0.7905(6)
O19_6 O 0.1428(5) 0.8655(5) 0.7436(5)
O20_6 O 0.1140(5) 0.7918(5) 0.6966(5)
O21_6 O 0.1406(6) 0.8689(5) 0.6498(6)
O22_6 O 0.1912(5) 0.7905(6) 0.6511(5)
O23_6 O 0.3156(4) 0.7545(4) 0.7209(4)
O24_6 O 0.3572(5) 0.7564(5) 0.6345(5)
O25_6 O 0.3860(5) 0.8034(5) 0.7082(5)
O26_6 O 0.3594(6) 0.8502(6) 0.6311(5)
O27_6 O 0.2801(5) 0.7997(5) 0.6417(5)
O28_6 O 0.1779(5) 0.8970(5) 0.8610(6)
W7_6 W 0.19980(4) 0.84501(4) 0.89271(4)
W8_6 W 0.10729(4) 0.80020(4) 0.84501(4)
W10_6 W 0.16581(3) 0.69027(3) 0.83891(3)
P2_6 P 0.28924(17) 0.71076(17) 0.71076(17)
W14_6 W 0.34501(4) 0.69980(4) 0.60729(4)
O29_6 O 0.2225(6) 0.7858(5) 0.9013(5)
O30_6 O 0.2052(6) 0.8669(5) 0.9439(6)
O31_6 O 0.1390(6) 0.8221(5) 0.8970(5)
O32_6 O 0.1345(5) 0.7436(5) 0.8572(5)
O33_6 O 0.0987(5) 0.7775(6) 0.7858(5)
O34_6 O 0.0561(6) 0.7948(6) 0.8669(5)
O35_6 O 0.1417(5) 0.7003(5) 0.7801(5)
O36_6 O 0.1511(5) 0.7095(6) 0.6912(5)
O38_6 O 0.2082(5) 0.6966(5) 0.8860(5)
O39_6 O 0.1311(5) 0.6498(6) 0.8594(6)
O40_6 O 0.2095(6) 0.6511(5) 0.8088(5)
O41_6 O 0.2905(6) 0.6912(5) 0.8489(5)
O43_6 O 0.3583(5) 0.7199(5) 0.7997(5)
O45_6 O 0.4013(5) 0.7142(5) 0.7225(6)
O46_6 O 0.2455(4) 0.7209(4) 0.6844(4)
O47_6 O 0.1966(5) 0.7082(5) 0.6140(5)
O49_6 O 0.2858(5) 0.7225(6) 0.5987(5)
O50_6 O 0.3200(5) 0.6800(5) 0.6800(5)
O51_6 O 0.2791(4) 0.6844(4) 0.7545(4)
O52_6 O 0.3970(5) 0.6779(5) 0.6390(6)
O53_6 O 0.3669(5) 0.7052(6) 0.5561(6)
O54_6 O 0.3221(5) 0.6390(6) 0.6030(5)
W15_6 W 0.19027(3) 0.66581(3) 0.66109(3)
W17_6 W 0.33419(3) 0.66109(3) 0.80973(3)
W18_6 W 0.39271(4) 0.65499(4) 0.69980(4)
W19_6 W 0.30020(4) 0.60729(4) 0.65499(4)
O55_6 O 0.2436(5) 0.6345(5) 0.6428(5)
O56_6 O 0.1498(6) 0.6311(5) 0.6406(6)
O57_6 O 0.2003(5) 0.6417(5) 0.7199(5)
O61_6 O 0.2918(5) 0.6140(5) 0.8034(5)
O63_6 O 0.2775(6) 0.5987(5) 0.7142(5)
O64_6 O 0.3655(5) 0.6428(5) 0.7564(5)
O65_6 O 0.3689(5) 0.6406(6) 0.8502(6)
O69_6 O 0.4439(6) 0.6331(5) 0.7052(6)
O70_6 O 0.3610(6) 0.6030(5) 0.6779(5)
O74_6 O 0.2948(6) 0.5561(6) 0.6331(5)
O4_7 O 0.2545(4) 0.1844(4) 0.2209(4)
O5_7 O 0.2199(5) 0.1417(5) 0.2997(5)
O6_7 O 0.3088(5) 0.1511(5) 0.2905(6)
O7_7 O 0.2142(5) 0.0987(5) 0.2225(6)
O8_7 O 0.3034(5) 0.1140(5) 0.2082(5)
P1_7 P 0.21076(17) 0.21076(17) 0.21076(17)
W2_7 W 0.30973(3) 0.16109(3) 0.16581(3)
W3_7 W 0.15499(4) 0.10729(4) 0.19980(4)
O9_7 O 0.1800(5) 0.1800(5) 0.1800(5)
O10_7 O 0.2564(5) 0.1428(5) 0.1345(5)
O11_7 O 0.3502(6) 0.1406(6) 0.1311(5)
O12_7 O 0.1331(5) 0.0561(6) 0.2052(6)
O13_7 O 0.1030(5) 0.1390(6) 0.1779(5)
W5_7 W 0.16109(3) 0.16581(3) 0.30973(3)
W6_7 W 0.33891(3) 0.19027(3) 0.33419(3)
O15_7 O 0.1844(4) 0.2209(4) 0.2545(4)
O16_7 O 0.2209(4) 0.2545(4) 0.1844(4)
O17_7 O 0.2997(5) 0.2199(5) 0.1417(5)
O18_7 O 0.3489(5) 0.1912(5) 0.2095(6)
O19_7 O 0.1428(5) 0.1345(5) 0.2564(5)
O20_7 O 0.1140(5) 0.2082(5) 0.3034(5)
O21_7 O 0.1406(6) 0.1311(5) 0.3502(6)
O22_7 O 0.1912(5) 0.2095(6) 0.3489(5)
O23_7 O 0.3156(4) 0.2455(4) 0.2791(4)
O24_7 O 0.3572(5) 0.2436(5) 0.3655(5)
O25_7 O 0.3860(5) 0.1966(5) 0.2918(5)
O26_7 O 0.3594(6) 0.1498(6) 0.3689(5)
O27_7 O 0.2801(5) 0.2003(5) 0.3583(5)
O28_7 O 0.1779(5) 0.1030(5) 0.1390(6)
W7_7 W 0.19980(4) 0.15499(4) 0.10729(4)
W8_7 W 0.10729(4) 0.19980(4) 0.15499(4)
W10_7 W 0.16581(3) 0.30973(3) 0.16109(3)
P2_7 P 0.28924(17) 0.28924(17) 0.28924(17)
W14_7 W 0.34501(4) 0.30020(4) 0.39271(4)
O29_7 O 0.2225(6) 0.2142(5) 0.0987(5)
O30_7 O 0.2052(6) 0.1331(5) 0.0561(6)
O31_7 O 0.1390(6) 0.1779(5) 0.1030(5)
O32_7 O 0.1345(5) 0.2564(5) 0.1428(5)
O33_7 O 0.0987(5) 0.2225(6) 0.2142(5)
O34_7 O 0.0561(6) 0.2052(6) 0.1331(5)
O35_7 O 0.1417(5) 0.2997(5) 0.2199(5)
O36_7 O 0.1511(5) 0.2905(6) 0.3088(5)
O38_7 O 0.2082(5) 0.3034(5) 0.1140(5)
O39_7 O 0.1311(5) 0.3502(6) 0.1406(6)
O40_7 O 0.2095(6) 0.3489(5) 0.1912(5)
O41_7 O 0.2905(6) 0.3088(5) 0.1511(5)
O43_7 O 0.3583(5) 0.2801(5) 0.2003(5)
O45_7 O 0.4013(5) 0.2858(5) 0.2775(6)
O46_7 O 0.2455(4) 0.2791(4) 0.3156(4)
O47_7 O 0.1966(5) 0.2918(5) 0.3860(5)
O49_7 O 0.2858(5) 0.2775(6) 0.4013(5)
O50_7 O 0.3200(5) 0.3200(5) 0.3200(5)
O51_7 O 0.2791(4) 0.3156(4) 0.2455(4)
O52_7 O 0.3970(5) 0.3221(5) 0.3610(6)
O53_7 O 0.3669(5) 0.2948(6) 0.4439(6)
O54_7 O 0.3221(5) 0.3610(6) 0.3970(5)
W15_7 W 0.19027(3) 0.33419(3) 0.33891(3)
W17_7 W 0.33419(3) 0.33891(3) 0.19027(3)
W18_7 W 0.39271(4) 0.34501(4) 0.30020(4)
W19_7 W 0.30020(4) 0.39271(4) 0.34501(4)
O55_7 O 0.2436(5) 0.3655(5) 0.3572(5)
O56_7 O 0.1498(6) 0.3689(5) 0.3594(6)
O57_7 O 0.2003(5) 0.3583(5) 0.2801(5)
O61_7 O 0.2918(5) 0.3860(5) 0.1966(5)
O63_7 O 0.2775(6) 0.4013(5) 0.2858(5)
O64_7 O 0.3655(5) 0.3572(5) 0.2436(5)
O65_7 O 0.3689(5) 0.3594(6) 0.1498(6)
O69_7 O 0.4439(6) 0.3669(5) 0.2948(6)
O70_7 O 0.3610(6) 0.3970(5) 0.3221(5)
O74_7 O 0.2948(6) 0.4439(6) 0.3669(5)
O4_8 O 0.7455(4) 0.8156(4) 0.2209(4)
O5_8 O 0.7801(5) 0.8583(5) 0.2997(5)
O6_8 O 0.6912(5) 0.8489(5) 0.2905(6)
O7_8 O 0.7858(5) 0.9013(5) 0.2225(6)
O8_8 O 0.6966(5) 0.8860(5) 0.2082(5)
P1_8 P 0.78924(17) 0.78924(17) 0.21076(17)
W2_8 W 0.69027(3) 0.83891(3) 0.16581(3)
W3_8 W 0.84501(4) 0.89271(4) 0.19980(4)
O9_8 O 0.8200(5) 0.8200(5) 0.1800(5)
O10_8 O 0.7436(5) 0.8572(5) 0.1345(5)
O11_8 O 0.6498(6) 0.8594(6) 0.1311(5)
O12_8 O 0.8669(5) 0.9439(6) 0.2052(6)
O13_8 O 0.8970(5) 0.8610(6) 0.1779(5)
W5_8 W 0.83891(3) 0.83419(3) 0.30973(3)
W6_8 W 0.66109(3) 0.80973(3) 0.33419(3)
O15_8 O 0.8156(4) 0.7791(4) 0.2545(4)
O16_8 O 0.7791(4) 0.7455(4) 0.1844(4)
O17_8 O 0.7003(5) 0.7801(5) 0.1417(5)
O18_8 O 0.6511(5) 0.8088(5) 0.2095(6)
O19_8 O 0.8572(5) 0.8655(5) 0.2564(5)
O20_8 O 0.8860(5) 0.7918(5) 0.3034(5)
O21_8 O 0.8594(6) 0.8689(5) 0.3502(6)
O22_8 O 0.8088(5) 0.7905(6) 0.3489(5)
O23_8 O 0.6844(4) 0.7545(4) 0.2791(4)
O24_8 O 0.6428(5) 0.7564(5) 0.3655(5)
O25_8 O 0.6140(5) 0.8034(5) 0.2918(5)
O26_8 O 0.6406(6) 0.8502(6) 0.3689(5)
O27_8 O 0.7199(5) 0.7997(5) 0.3583(5)
O28_8 O 0.8221(5) 0.8970(5) 0.1390(6)
W7_8 W 0.80020(4) 0.84501(4) 0.10729(4)
W8_8 W 0.89271(4) 0.80020(4) 0.15499(4)
W10_8 W 0.83419(3) 0.69027(3) 0.16109(3)
P2_8 P 0.71076(17) 0.71076(17) 0.28924(17)
W14_8 W 0.65499(4) 0.69980(4) 0.39271(4)
O29_8 O 0.7775(6) 0.7858(5) 0.0987(5)
O30_8 O 0.7948(6) 0.8669(5) 0.0561(6)
O31_8 O 0.8610(6) 0.8221(5) 0.1030(5)
O32_8 O 0.8655(5) 0.7436(5) 0.1428(5)
O33_8 O 0.9013(5) 0.7775(6) 0.2142(5)
O34_8 O 0.9439(6) 0.7948(6) 0.1331(5)
O35_8 O 0.8583(5) 0.7003(5) 0.2199(5)
O36_8 O 0.8489(5) 0.7095(6) 0.3088(5)
O38_8 O 0.7918(5) 0.6966(5) 0.1140(5)
O39_8 O 0.8689(5) 0.6498(6) 0.1406(6)
O40_8 O 0.7905(6) 0.6511(5) 0.1912(5)
O41_8 O 0.7095(6) 0.6912(5) 0.1511(5)
O43_8 O 0.6417(5) 0.7199(5) 0.2003(5)
O45_8 O 0.5987(5) 0.7142(5) 0.2775(6)
O46_8 O 0.7545(4) 0.7209(4) 0.3156(4)
O47_8 O 0.8034(5) 0.7082(5) 0.3860(5)
O49_8 O 0.7142(5) 0.7225(6) 0.4013(5)
O50_8 O 0.6800(5) 0.6800(5) 0.3200(5)
O51_8 O 0.7209(4) 0.6844(4) 0.2455(4)
O52_8 O 0.6030(5) 0.6779(5) 0.3610(6)
O53_8 O 0.6331(5) 0.7052(6) 0.4439(6)
O54_8 O 0.6779(5) 0.6390(6) 0.3970(5)
W15_8 W 0.80973(3) 0.66581(3) 0.33891(3)
W17_8 W 0.66581(3) 0.66109(3) 0.19027(3)
W18_8 W 0.60729(4) 0.65499(4) 0.30020(4)
W19_8 W 0.69980(4) 0.60729(4) 0.34501(4)
O55_8 O 0.7564(5) 0.6345(5) 0.3572(5)
O56_8 O 0.8502(6) 0.6311(5) 0.3594(6)
O57_8 O 0.7997(5) 0.6417(5) 0.2801(5)
O61_8 O 0.7082(5) 0.6140(5) 0.1966(5)
O63_8 O 0.7225(6) 0.5987(5) 0.2858(5)
O64_8 O 0.6345(5) 0.6428(5) 0.2436(5)
O65_8 O 0.6311(5) 0.6406(6) 0.1498(6)
O69_8 O 0.5561(6) 0.6331(5) 0.2948(6)
O70_8 O 0.6390(6) 0.6030(5) 0.3221(5)
O74_8 O 0.7052(6) 0.5561(6) 0.3669(5)
loop_
_geom_bond_atom_site_label_1
_geom_bond_atom_site_label_2
_geom_bond_site_symmetry_1
_geom_bond_site_symmetry_2
W1 O1 1_555 1_555
O1 Ni1 1_555 1_555
Ni1 O2 1_555 1_555
O3 Ni1 1_555 1_555
N1 Ni1 1_555 1_555
N2 Ni1 1_555 1_555
C1 N1 1_555 1_555
C2 N2 1_555 1_555
H1 C1 1_555 1_555
C3 C1 1_555 1_555
H2 C2 1_555 1_555
C4 C2 1_555 1_555
H3 C3 1_555 1_555
C5 C3 1_555 1_555
H4 C4 1_555 1_555
C6 C4 1_555 1_555
C7 C5 1_555 1_555
C8 C6 1_555 1_555
H5 C7 1_555 1_555
C9 C7 1_555 1_555
C10 C8 1_555 1_555
H7 C9 1_555 1_555
H14 C8 1_555 1_555
C15 C9 1_555 1_555
C16 C10 1_555 1_555
H16 C10 1_555 1_555
C17 C15 1_555 1_555
H18 C15 1_555 1_555
C18 C16 1_555 1_555
H19 C16 1_555 1_555
Ni5 N8 1_555 1_555
C20 C17 1_555 1_555
C22 C18 1_555 1_555
C24 C20 1_555 1_555
H22 C20 1_555 1_555
C26 C22 1_555 1_555
H24 C22 1_555 1_555
H26 C24 1_555 1_555
H28 C26 1_555 1_555
Ni6 N9 1_555 1_555
N8 C24 1_555 1_555
C26 N9 1_555 1_555
Ni1_2 O2_2 1_555 1_555
O3_2 Ni1_2 1_555 1_555
N1_2 Ni1_2 1_555 1_555
N2_2 Ni1_2 1_555 1_555
O4 P1 1_555 1_555
O5 W4 1_555 1_555
O6 W4 1_555 1_555
O7 W3 1_555 1_555
O8 W2 1_555 1_555
P1 O9 1_555 1_555
W2 O4 1_555 1_555
W3 O9 1_555 1_555
C7_2 C5_2 1_555 1_555
C8_2 C6_2 1_555 1_555
O9 W7 1_555 1_555
O10 W2 1_555 1_555
O11 W2 1_555 1_555
O12 W3 1_555 1_555
O13 W3 1_555 1_555
C9_2 C7_2 1_555 1_555
H6 C8_2 1_555 1_555
C10_2 C8_2 1_555 1_555
H8 C10_2 1_555 1_555
O14 Ni1_2 1_555 1_555
C11 N1_2 1_555 1_555
C12 N2_2 1_555 1_555
W4 O4 1_555 1_555
C13 C5_2 1_555 1_555
H9 C11 1_555 1_555
C14 C6_2 1_555 1_555
H10 C12 1_555 1_555
H11 C13 1_555 1_555
H12 C14 1_555 1_555
W5 O5 1_555 1_555
W6 O6 1_555 1_555
O15 P1 1_555 1_555
O16 P1 1_555 1_555
O17 W2 1_555 1_555
O18 W2 1_555 1_555
O19 W3 1_555 1_555
O20 W5 1_555 1_555
O21 W5 1_555 1_555
O22 W5 1_555 1_555
O23 W6 1_555 1_555
O24 W6 1_555 1_555
O25 W6 1_555 1_555
O26 W6 1_555 1_555
O27 W6 1_555 1_555
O28 W3 1_555 1_555
H13 C7_2 1_555 1_555
W7 O10 1_555 1_555
W8 O9 1_555 1_555
W9 O15 1_555 1_555
W10 O16 1_555 1_555
W11 O16 1_555 1_555
W12 O18 1_555 1_555
W13 O22 1_555 1_555
P2 O23 1_555 1_555
W14 O24 1_555 1_555
C15_2 C9_2 1_555 1_555
H15 C9_2 1_555 1_555
C16_2 C10_2 1_555 1_555
O29 W7 1_555 1_555
O30 W7 1_555 1_555
O31 W7 1_555 1_555
O32 W8 1_555 1_555
O33 W8 1_555 1_555
O34 W8 1_555 1_555
O35 W9 1_555 1_555
O36 W9 1_555 1_555
O37 W9 1_555 1_555
O38 W10 1_555 1_555
O39 W10 1_555 1_555
O40 W10 1_555 1_555
O41 W11 1_555 1_555
O42 W11 1_555 1_555
O43 W12 1_555 1_555
O44 W12 1_555 1_555
O45 W12 1_555 1_555
O46 W13 1_555 1_555
O47 W13 1_555 1_555
O48 W13 1_555 1_555
O49 W13 1_555 1_555
O50 P2 1_555 1_555
O51 P2 1_555 1_555
O52 W14 1_555 1_555
O53 W14 1_555 1_555
O54 W14 1_555 1_555
C17_2 C15_2 1_555 1_555
H17 C15_2 1_555 1_555
C18_2 C16_2 1_555 1_555
H20 C16_2 1_555 1_555
W15 O36 1_555 1_555
Ni2 O37 1_555 1_555
W16 O40 1_555 1_555
W17 O41 1_555 1_555
Ni3 O44 1_555 1_555
W18 O45 1_555 1_555
Ni4 O48 1_555 1_555
W19 O50 1_555 1_555
Ni5_2 N8_2 1_555 1_555
C19 C17_2 1_555 1_555
C21 C18_2 1_555 1_555
O55 W15 1_555 1_555
O56 W15 1_555 1_555
O57 W15 1_555 1_555
O58 Ni2 1_555 1_555
O59 Ni2 1_555 1_555
N3 Ni2 1_555 1_555
O61 W16 1_555 1_555
O62 W16 1_555 1_555
O63 W16 1_555 1_555
O64 W17 1_555 1_555
O65 W17 1_555 1_555
O66 Ni3 1_555 1_555
O67 Ni3 1_555 1_555
N4 Ni3 1_555 1_555
N5 Ni3 1_555 1_555
O68 Ni3 1_555 1_555
O69 W18 1_555 1_555
O70 W18 1_555 1_555
N6 Ni4 1_555 1_555
N7 Ni4 1_555 1_555
O71 Ni4 1_555 1_555
O72 Ni4 1_555 1_555
O73 Ni4 1_555 1_555
O74 W19 1_555 1_555
N8_2 C23 1_555 1_555
C23 C19 1_555 1_555
H21 C19 1_555 1_555
C25 C21 1_555 1_555
H23 C21 1_555 1_555
C27 N3 1_555 1_555
W20 O68 1_555 1_555
H25 C23 1_555 1_555
N9_2 C25 1_555 1_555
H27 C25 1_555 1_555
H29 C27 1_555 1_555
C29 C27 1_555 1_555
Ni6_2 N9_2 1_555 1_555
H31 C29 1_555 1_555
C31 C29 1_555 1_555
C32 C31 1_555 1_555
H33 C32 1_555 1_555
C33 C32 1_555 1_555
H35 C33 1_555 1_555
C34 C33 1_555 1_555
C35 C34 1_555 1_555
H38 C34 1_555 1_555
Ni7 N10 1_555 1_555
C37 C35 1_555 1_555
C39 C37 1_555 1_555
H40 C37 1_555 1_555
H42 C39 1_555 1_555
O7 W4 1_555 1_555
O8 W4 1_555 1_555
O13 W8 1_555 1_555
O14 W4 1_555 1_555
C11 C13 1_555 1_555
C12 C14 1_555 1_555
W5 O15 1_555 1_555
W5 O19 1_555 1_555
O17 W11 1_555 1_555
O20 W9 1_555 1_555
O23 W12 1_555 1_555
O25 W12 1_555 1_555
O27 W13 1_555 1_555
O28 W7 1_555 1_555
W8 O31 1_555 1_555
W9 O33 1_555 1_555
W10 O32 1_555 1_555
W10 O35 1_555 1_555
W11 O29 1_555 1_555
W11 O38 1_555 1_555
P2 O46 1_555 1_555
W14 O49 1_555 1_555
W14 O50 1_555 1_555
O43 W17 1_555 1_555
O46 W15 1_555 1_555
O47 W15 1_555 1_555
O50 W18 1_555 1_555
O51 W16 1_555 1_555
O51 W17 1_555 1_555
O52 W18 1_555 1_555
O54 W19 1_555 1_555
W16 O57 1_555 1_555
W17 O61 1_555 1_555
W18 O64 1_555 1_555
W19 O55 1_555 1_555
W19 O63 1_555 1_555
W19 O70 1_555 1_555
N10 C39 1_555 1_555
O58_2 Ni2_2 1_555 1_555
O59_2 Ni2_2 1_555 1_555
N3_2 Ni2_2 1_555 1_555
O60 Ni2_2 1_555 1_555
C28 N3_2 1_555 1_555
C30 C28 1_555 1_555
H30 C28 1_555 1_555
H32 C30 1_555 1_555
C32_2 C31_2 1_555 1_555
C33_2 C32_2 1_555 1_555
H34 C32_2 1_555 1_555
C34_2 C33_2 1_555 1_555
H36 C33_2 1_555 1_555
C35_2 C34_2 1_555 1_555
H37 C34_2 1_555 1_555
Ni7_2 N10_2 1_555 1_555
C36 C35_2 1_555 1_555
N10_2 C38 1_555 1_555
C38 C36 1_555 1_555
H39 C36 1_555 1_555
H41 C38 1_555 1_555
C30 C31_2 1_555 1_555
O58_3 Ni2_3 1_555 1_555
O59_3 Ni2_3 1_555 1_555
N3_3 Ni2_3 1_555 1_555
O60_2 Ni2_3 1_555 1_555
C28_2 N3_3 1_555 1_555
C30_2 C28_2 1_555 1_555
H30_2 C28_2 1_555 1_555
H32_2 C30_2 1_555 1_555
C32_3 C31_3 1_555 1_555
C33_3 C32_3 1_555 1_555
H34_2 C32_3 1_555 1_555
C34_3 C33_3 1_555 1_555
H36_2 C33_3 1_555 1_555
C35_3 C34_3 1_555 1_555
H37_2 C34_3 1_555 1_555
Ni7_3 N10_3 1_555 1_555
C36_2 C35_3 1_555 1_555
N10_3 C38_2 1_555 1_555
C38_2 C36_2 1_555 1_555
H39_2 C36_2 1_555 1_555
H41_2 C38_2 1_555 1_555
C30_2 C31_3 1_555 1_555
Ni5 O2_3 1_555 1_555
O3_3 Ni5 1_555 1_555
N2_3 Ni5 1_555 1_555
O4_2 P1_2 1_555 1_555
O5_2 W4_2 1_555 1_555
O6_2 W4_2 1_555 1_555
O7_2 W3_2 1_555 1_555
O8_2 W2_2 1_555 1_555
P1_2 O9_2 1_555 1_555
W2_2 O4_2 1_555 1_555
W3_2 O9_2 1_555 1_555
C8_3 C6_3 1_555 1_555
O9_2 W7_2 1_555 1_555
O10_2 W2_2 1_555 1_555
O11_2 W2_2 1_555 1_555
O12_2 W3_2 1_555 1_555
O13_2 W3_2 1_555 1_555
H6_2 C8_3 1_555 1_555
C10_3 C8_3 1_555 1_555
H8_2 C10_3 1_555 1_555
O14_2 Ni5 1_555 1_555
C12_2 N2_3 1_555 1_555
W4_2 O4_2 1_555 1_555
C14_2 C6_3 1_555 1_555
H10_2 C12_2 1_555 1_555
H12_2 C14_2 1_555 1_555
W5_2 O5_2 1_555 1_555
W6_2 O6_2 1_555 1_555
O15_2 P1_2 1_555 1_555
O16_2 P1_2 1_555 1_555
O17_2 W2_2 1_555 1_555
O18_2 W2_2 1_555 1_555
O19_2 W3_2 1_555 1_555
O20_2 W5_2 1_555 1_555
O21_2 W5_2 1_555 1_555
O22_2 W5_2 1_555 1_555
O23_2 W6_2 1_555 1_555
O24_2 W6_2 1_555 1_555
O25_2 W6_2 1_555 1_555
O26_2 W6_2 1_555 1_555
O27_2 W6_2 1_555 1_555
O28_2 W3_2 1_555 1_555
W7_2 O10_2 1_555 1_555
W8_2 O9_2 1_555 1_555
W9_2 O15_2 1_555 1_555
W10_2 O16_2 1_555 1_555
W11_2 O16_2 1_555 1_555
W12_2 O18_2 1_555 1_555
W13_2 O22_2 1_555 1_555
P2_2 O23_2 1_555 1_555
W14_2 O24_2 1_555 1_555
C16_3 C10_3 1_555 1_555
O29_2 W7_2 1_555 1_555
O30_2 W7_2 1_555 1_555
O31_2 W7_2 1_555 1_555
O32_2 W8_2 1_555 1_555
O33_2 W8_2 1_555 1_555
O34_2 W8_2 1_555 1_555
O35_2 W9_2 1_555 1_555
O36_2 W9_2 1_555 1_555
O37_2 W9_2 1_555 1_555
O38_2 W10_2 1_555 1_555
O39_2 W10_2 1_555 1_555
O40_2 W10_2 1_555 1_555
O41_2 W11_2 1_555 1_555
O42_2 W11_2 1_555 1_555
O43_2 W12_2 1_555 1_555
O44_2 W12_2 1_555 1_555
O45_2 W12_2 1_555 1_555
O46_2 W13_2 1_555 1_555
O47_2 W13_2 1_555 1_555
O48_2 W13_2 1_555 1_555
O49_2 W13_2 1_555 1_555
O50_2 P2_2 1_555 1_555
O51_2 P2_2 1_555 1_555
O52_2 W14_2 1_555 1_555
O53_2 W14_2 1_555 1_555
O54_2 W14_2 1_555 1_555
C18_3 C16_3 1_555 1_555
H20_2 C16_3 1_555 1_555
W15_2 O36_2 1_555 1_555
Ni2_4 O37_2 1_555 1_555
W16_2 O40_2 1_555 1_555
W17_2 O41_2 1_555 1_555
Ni3_2 O44_2 1_555 1_555
W18_2 O45_2 1_555 1_555
Ni4_2 O48_2 1_555 1_555
W19_2 O50_2 1_555 1_555
C21_2 C18_3 1_555 1_555
O55_2 W15_2 1_555 1_555
O56_2 W15_2 1_555 1_555
O57_2 W15_2 1_555 1_555
O58_4 Ni2_4 1_555 1_555
O59_4 Ni2_4 1_555 1_555
N3_4 Ni2_4 1_555 1_555
O61_2 W16_2 1_555 1_555
O62_2 W16_2 1_555 1_555
O63_2 W16_2 1_555 1_555
O64_2 W17_2 1_555 1_555
O65_2 W17_2 1_555 1_555
O66_2 Ni3_2 1_555 1_555
O67_2 Ni3_2 1_555 1_555
N4_2 Ni3_2 1_555 1_555
N5_2 Ni3_2 1_555 1_555
O68_2 Ni3_2 1_555 1_555
O69_2 W18_2 1_555 1_555
O70_2 W18_2 1_555 1_555
N6_2 Ni4_2 1_555 1_555
N7_2 Ni4_2 1_555 1_555
O71_2 Ni4_2 1_555 1_555
O72_2 Ni4_2 1_555 1_555
O73_2 Ni4_2 1_555 1_555
O74_2 W19_2 1_555 1_555
C25_2 C21_2 1_555 1_555
H23_2 C21_2 1_555 1_555
C27_2 N3_4 1_555 1_555
W20_2 O68_2 1_555 1_555
N9_3 C25_2 1_555 1_555
H27_2 C25_2 1_555 1_555
H29_2 C27_2 1_555 1_555
C29_2 C27_2 1_555 1_555
Ni6_3 N9_3 1_555 1_555
H31_2 C29_2 1_555 1_555
C31_4 C29_2 1_555 1_555
C32_4 C31_4 1_555 1_555
H33_2 C32_4 1_555 1_555
C33_4 C32_4 1_555 1_555
H35_2 C33_4 1_555 1_555
C34_4 C33_4 1_555 1_555
C35_4 C34_4 1_555 1_555
H38_2 C34_4 1_555 1_555
Ni7_4 N10_4 1_555 1_555
C37_2 C35_4 1_555 1_555
C39_2 C37_2 1_555 1_555
H40_2 C37_2 1_555 1_555
H42_2 C39_2 1_555 1_555
O7_2 W4_2 1_555 1_555
O8_2 W4_2 1_555 1_555
O13_2 W8_2 1_555 1_555
O14_2 W4_2 1_555 1_555
C12_2 C14_2 1_555 1_555
W5_2 O15_2 1_555 1_555
W5_2 O19_2 1_555 1_555
O17_2 W11_2 1_555 1_555
O20_2 W9_2 1_555 1_555
O23_2 W12_2 1_555 1_555
O25_2 W12_2 1_555 1_555
O27_2 W13_2 1_555 1_555
O28_2 W7_2 1_555 1_555
W8_2 O31_2 1_555 1_555
W9_2 O33_2 1_555 1_555
W10_2 O32_2 1_555 1_555
W10_2 O35_2 1_555 1_555
W11_2 O29_2 1_555 1_555
W11_2 O38_2 1_555 1_555
P2_2 O46_2 1_555 1_555
W14_2 O49_2 1_555 1_555
W14_2 O50_2 1_555 1_555
O43_2 W17_2 1_555 1_555
O46_2 W15_2 1_555 1_555
O47_2 W15_2 1_555 1_555
O50_2 W18_2 1_555 1_555
O51_2 W16_2 1_555 1_555
O51_2 W17_2 1_555 1_555
O52_2 W18_2 1_555 1_555
O54_2 W19_2 1_555 1_555
W16_2 O57_2 1_555 1_555
W17_2 O61_2 1_555 1_555
W18_2 O64_2 1_555 1_555
W19_2 O55_2 1_555 1_555
W19_2 O63_2 1_555 1_555
W19_2 O70_2 1_555 1_555
N10_4 C39_2 1_555 1_555
W1_2 O1_2 1_555 1_555
O1_2 Ni5_2 1_555 1_555
Ni5_2 O2_4 1_555 1_555
O3_4 Ni5_2 1_555 1_555
N2_4 Ni5_2 1_555 1_555
C2_2 N2_4 1_555 1_555
H2_2 C2_2 1_555 1_555
C4_2 C2_2 1_555 1_555
H4_2 C4_2 1_555 1_555
C6_4 C4_2 1_555 1_555
C8_4 C6_4 1_555 1_555
C10_4 C8_4 1_555 1_555
H14_2 C8_4 1_555 1_555
C16_4 C10_4 1_555 1_555
H16_2 C10_4 1_555 1_555
C18_4 C16_4 1_555 1_555
H19_2 C16_4 1_555 1_555
C22_2 C18_4 1_555 1_555
C26_2 C22_2 1_555 1_555
H24_2 C22_2 1_555 1_555
H28_2 C26_2 1_555 1_555
Ni6_4 N9_4 1_555 1_555
C26_2 N9_4 1_555 1_555
O58_5 Ni7 1_555 1_555
O59_5 Ni7 1_555 1_555
O60_3 Ni7 1_555 1_555
W1_3 O1_3 1_555 1_555
O1_3 Ni6_3 1_555 1_555
Ni6_3 O2_5 1_555 1_555
O3_5 Ni6_3 1_555 1_555
N1_3 Ni6_3 1_555 1_555
C1_2 N1_3 1_555 1_555
H1_2 C1_2 1_555 1_555
C3_2 C1_2 1_555 1_555
H3_2 C3_2 1_555 1_555
C5_3 C3_2 1_555 1_555
C7_3 C5_3 1_555 1_555
H5_2 C7_3 1_555 1_555
C9_3 C7_3 1_555 1_555
H7_2 C9_3 1_555 1_555
C15_3 C9_3 1_555 1_555
C17_3 C15_3 1_555 1_555
H18_2 C15_3 1_555 1_555
Ni6 N8_3 1_555 1_555
C20_2 C17_3 1_555 1_555
C24_2 C20_2 1_555 1_555
H22_2 C20_2 1_555 1_555
H26_2 C24_2 1_555 1_555
N8_3 C24_2 1_555 1_555
Ni6_4 O2_6 1_555 1_555
O3_6 Ni6_4 1_555 1_555
N1_4 Ni6_4 1_555 1_555
O4_3 P1_3 1_555 1_555
O5_3 W4_3 1_555 1_555
O6_3 W4_3 1_555 1_555
O7_3 W3_3 1_555 1_555
O8_3 W2_3 1_555 1_555
P1_3 O9_3 1_555 1_555
W2_3 O4_3 1_555 1_555
W3_3 O9_3 1_555 1_555
C7_4 C5_4 1_555 1_555
O9_3 W7_3 1_555 1_555
O10_3 W2_3 1_555 1_555
O11_3 W2_3 1_555 1_555
O12_3 W3_3 1_555 1_555
O13_3 W3_3 1_555 1_555
C9_4 C7_4 1_555 1_555
O14_3 Ni6_4 1_555 1_555
C11_2 N1_4 1_555 1_555
W4_3 O4_3 1_555 1_555
C13_2 C5_4 1_555 1_555
H9_2 C11_2 1_555 1_555
H11_2 C13_2 1_555 1_555
W5_3 O5_3 1_555 1_555
W6_3 O6_3 1_555 1_555
O15_3 P1_3 1_555 1_555
O16_3 P1_3 1_555 1_555
O17_3 W2_3 1_555 1_555
O18_3 W2_3 1_555 1_555
O19_3 W3_3 1_555 1_555
O20_3 W5_3 1_555 1_555
O21_3 W5_3 1_555 1_555
O22_3 W5_3 1_555 1_555
O23_3 W6_3 1_555 1_555
O24_3 W6_3 1_555 1_555
O25_3 W6_3 1_555 1_555
O26_3 W6_3 1_555 1_555
O27_3 W6_3 1_555 1_555
O28_3 W3_3 1_555 1_555
H13_2 C7_4 1_555 1_555
W7_3 O10_3 1_555 1_555
W8_3 O9_3 1_555 1_555
W9_3 O15_3 1_555 1_555
W10_3 O16_3 1_555 1_555
W11_3 O16_3 1_555 1_555
W12_3 O18_3 1_555 1_555
W13_3 O22_3 1_555 1_555
P2_3 O23_3 1_555 1_555
W14_3 O24_3 1_555 1_555
C15_4 C9_4 1_555 1_555
H15_2 C9_4 1_555 1_555
O29_3 W7_3 1_555 1_555
O30_3 W7_3 1_555 1_555
O31_3 W7_3 1_555 1_555
O32_3 W8_3 1_555 1_555
O33_3 W8_3 1_555 1_555
O34_3 W8_3 1_555 1_555
O35_3 W9_3 1_555 1_555
O36_3 W9_3 1_555 1_555
O37_3 W9_3 1_555 1_555
O38_3 W10_3 1_555 1_555
O39_3 W10_3 1_555 1_555
O40_3 W10_3 1_555 1_555
O41_3 W11_3 1_555 1_555
O42_3 W11_3 1_555 1_555
O43_3 W12_3 1_555 1_555
O44_3 W12_3 1_555 1_555
O45_3 W12_3 1_555 1_555
O46_3 W13_3 1_555 1_555
O47_3 W13_3 1_555 1_555
O48_3 W13_3 1_555 1_555
O49_3 W13_3 1_555 1_555
O50_3 P2_3 1_555 1_555
O51_3 P2_3 1_555 1_555
O52_3 W14_3 1_555 1_555
O53_3 W14_3 1_555 1_555
O54_3 W14_3 1_555 1_555
C17_4 C15_4 1_555 1_555
H17_2 C15_4 1_555 1_555
W15_3 O36_3 1_555 1_555
Ni7_2 O37_3 1_555 1_555
W16_3 O40_3 1_555 1_555
W17_3 O41_3 1_555 1_555
Ni3_3 O44_3 1_555 1_555
W18_3 O45_3 1_555 1_555
Ni4_3 O48_3 1_555 1_555
W19_3 O50_3 1_555 1_555
Ni6_2 N8_4 1_555 1_555
C19_2 C17_4 1_555 1_555
O55_3 W15_3 1_555 1_555
O56_3 W15_3 1_555 1_555
O57_3 W15_3 1_555 1_555
O58_6 Ni7_2 1_555 1_555
O59_6 Ni7_2 1_555 1_555
O61_3 W16_3 1_555 1_555
O62_3 W16_3 1_555 1_555
O63_3 W16_3 1_555 1_555
O64_3 W17_3 1_555 1_555
O65_3 W17_3 1_555 1_555
O66_3 Ni3_3 1_555 1_555
O67_3 Ni3_3 1_555 1_555
N4_3 Ni3_3 1_555 1_555
N5_3 Ni3_3 1_555 1_555
O68_3 Ni3_3 1_555 1_555
O69_3 W18_3 1_555 1_555
O70_3 W18_3 1_555 1_555
N6_3 Ni4_3 1_555 1_555
N7_3 Ni4_3 1_555 1_555
O71_3 Ni4_3 1_555 1_555
O72_3 Ni4_3 1_555 1_555
O73_3 Ni4_3 1_555 1_555
O74_3 W19_3 1_555 1_555
N8_4 C23_2 1_555 1_555
C23_2 C19_2 1_555 1_555
H21_2 C19_2 1_555 1_555
W20_3 O68_3 1_555 1_555
H25_2 C23_2 1_555 1_555
O7_3 W4_3 1_555 1_555
O8_3 W4_3 1_555 1_555
O13_3 W8_3 1_555 1_555
O14_3 W4_3 1_555 1_555
C11_2 C13_2 1_555 1_555
W5_3 O15_3 1_555 1_555
W5_3 O19_3 1_555 1_555
O17_3 W11_3 1_555 1_555
O20_3 W9_3 1_555 1_555
O23_3 W12_3 1_555 1_555
O25_3 W12_3 1_555 1_555
O27_3 W13_3 1_555 1_555
O28_3 W7_3 1_555 1_555
W8_3 O31_3 1_555 1_555
W9_3 O33_3 1_555 1_555
W10_3 O32_3 1_555 1_555
W10_3 O35_3 1_555 1_555
W11_3 O29_3 1_555 1_555
W11_3 O38_3 1_555 1_555
P2_3 O46_3 1_555 1_555
W14_3 O49_3 1_555 1_555
W14_3 O50_3 1_555 1_555
O43_3 W17_3 1_555 1_555
O46_3 W15_3 1_555 1_555
O47_3 W15_3 1_555 1_555
O50_3 W18_3 1_555 1_555
O51_3 W16_3 1_555 1_555
O51_3 W17_3 1_555 1_555
O52_3 W18_3 1_555 1_555
O54_3 W19_3 1_555 1_555
W16_3 O57_3 1_555 1_555
W17_3 O61_3 1_555 1_555
W18_3 O64_3 1_555 1_555
W19_3 O55_3 1_555 1_555
W19_3 O63_3 1_555 1_555
W19_3 O70_3 1_555 1_555
Ni6 O2_7 1_555 1_555
O3_7 Ni6 1_555 1_555
O4_4 P1_4 1_555 1_555
O5_4 W4_4 1_555 1_555
O6_4 W4_4 1_555 1_555
O7_4 W3_4 1_555 1_555
O8_4 W2_4 1_555 1_555
P1_4 O9_4 1_555 1_555
W2_4 O4_4 1_555 1_555
W3_4 O9_4 1_555 1_555
O9_4 W7_4 1_555 1_555
O10_4 W2_4 1_555 1_555
O11_4 W2_4 1_555 1_555
O12_4 W3_4 1_555 1_555
O13_4 W3_4 1_555 1_555
O14_4 Ni6 1_555 1_555
W4_4 O4_4 1_555 1_555
W5_4 O5_4 1_555 1_555
W6_4 O6_4 1_555 1_555
O15_4 P1_4 1_555 1_555
O16_4 P1_4 1_555 1_555
O17_4 W2_4 1_555 1_555
O18_4 W2_4 1_555 1_555
O19_4 W3_4 1_555 1_555
O20_4 W5_4 1_555 1_555
O21_4 W5_4 1_555 1_555
O22_4 W5_4 1_555 1_555
O23_4 W6_4 1_555 1_555
O24_4 W6_4 1_555 1_555
O25_4 W6_4 1_555 1_555
O26_4 W6_4 1_555 1_555
O27_4 W6_4 1_555 1_555
O28_4 W3_4 1_555 1_555
W7_4 O10_4 1_555 1_555
W8_4 O9_4 1_555 1_555
W9_4 O15_4 1_555 1_555
W10_4 O16_4 1_555 1_555
W11_4 O16_4 1_555 1_555
W12_4 O18_4 1_555 1_555
W13_4 O22_4 1_555 1_555
P2_4 O23_4 1_555 1_555
W14_4 O24_4 1_555 1_555
O29_4 W7_4 1_555 1_555
O30_4 W7_4 1_555 1_555
O31_4 W7_4 1_555 1_555
O32_4 W8_4 1_555 1_555
O33_4 W8_4 1_555 1_555
O34_4 W8_4 1_555 1_555
O35_4 W9_4 1_555 1_555
O36_4 W9_4 1_555 1_555
O37_4 W9_4 1_555 1_555
O38_4 W10_4 1_555 1_555
O39_4 W10_4 1_555 1_555
O40_4 W10_4 1_555 1_555
O41_4 W11_4 1_555 1_555
O42_4 W11_4 1_555 1_555
O43_4 W12_4 1_555 1_555
O44_4 W12_4 1_555 1_555
O45_4 W12_4 1_555 1_555
O46_4 W13_4 1_555 1_555
O47_4 W13_4 1_555 1_555
O48_4 W13_4 1_555 1_555
O49_4 W13_4 1_555 1_555
O50_4 P2_4 1_555 1_555
O51_4 P2_4 1_555 1_555
O52_4 W14_4 1_555 1_555
O53_4 W14_4 1_555 1_555
O54_4 W14_4 1_555 1_555
W15_4 O36_4 1_555 1_555
Ni7_3 O37_4 1_555 1_555
W16_4 O40_4 1_555 1_555
W17_4 O41_4 1_555 1_555
Ni3_4 O44_4 1_555 1_555
W18_4 O45_4 1_555 1_555
Ni4_4 O48_4 1_555 1_555
W19_4 O50_4 1_555 1_555
O55_4 W15_4 1_555 1_555
O56_4 W15_4 1_555 1_555
O57_4 W15_4 1_555 1_555
O58_7 Ni7_3 1_555 1_555
O59_7 Ni7_3 1_555 1_555
O61_4 W16_4 1_555 1_555
O62_4 W16_4 1_555 1_555
O63_4 W16_4 1_555 1_555
O64_4 W17_4 1_555 1_555
O65_4 W17_4 1_555 1_555
O66_4 Ni3_4 1_555 1_555
O67_4 Ni3_4 1_555 1_555
N4_4 Ni3_4 1_555 1_555
N5_4 Ni3_4 1_555 1_555
O68_4 Ni3_4 1_555 1_555
O69_4 W18_4 1_555 1_555
O70_4 W18_4 1_555 1_555
N6_4 Ni4_4 1_555 1_555
N7_4 Ni4_4 1_555 1_555
O71_4 Ni4_4 1_555 1_555
O72_4 Ni4_4 1_555 1_555
O73_4 Ni4_4 1_555 1_555
O74_4 W19_4 1_555 1_555
W20_4 O68_4 1_555 1_555
O7_4 W4_4 1_555 1_555
O8_4 W4_4 1_555 1_555
O13_4 W8_4 1_555 1_555
O14_4 W4_4 1_555 1_555
W5_4 O15_4 1_555 1_555
W5_4 O19_4 1_555 1_555
O17_4 W11_4 1_555 1_555
O20_4 W9_4 1_555 1_555
O23_4 W12_4 1_555 1_555
O25_4 W12_4 1_555 1_555
O27_4 W13_4 1_555 1_555
O28_4 W7_4 1_555 1_555
W8_4 O31_4 1_555 1_555
W9_4 O33_4 1_555 1_555
W10_4 O32_4 1_555 1_555
W10_4 O35_4 1_555 1_555
W11_4 O29_4 1_555 1_555
W11_4 O38_4 1_555 1_555
P2_4 O46_4 1_555 1_555
W14_4 O49_4 1_555 1_555
W14_4 O50_4 1_555 1_555
O43_4 W17_4 1_555 1_555
O46_4 W15_4 1_555 1_555
O47_4 W15_4 1_555 1_555
O50_4 W18_4 1_555 1_555
O51_4 W16_4 1_555 1_555
O51_4 W17_4 1_555 1_555
O52_4 W18_4 1_555 1_555
O54_4 W19_4 1_555 1_555
W16_4 O57_4 1_555 1_555
W17_4 O61_4 1_555 1_555
W18_4 O64_4 1_555 1_555
W19_4 O55_4 1_555 1_555
W19_4 O63_4 1_555 1_555
W19_4 O70_4 1_555 1_555
W1_4 O1_4 1_555 1_555
O1_4 Ni6_2 1_555 1_555
Ni6_2 O2_8 1_555 1_555
O3_8 Ni6_2 1_555 1_555
O58_8 Ni7_4 1_555 1_555
O59_8 Ni7_4 1_555 1_555
O60_4 Ni7_4 1_555 1_555
W1_5 O1_5 1_555 1_555
O1_5 Ni1_3 1_555 1_555
Ni1_3 O2_9 1_555 1_555
O3_9 Ni1_3 1_555 1_555
N1_5 Ni1_3 1_555 1_555
N2_5 Ni1_3 1_555 1_555
C1_3 N1_5 1_555 1_555
C2_3 N2_5 1_555 1_555
H1_3 C1_3 1_555 1_555
C3_3 C1_3 1_555 1_555
H2_3 C2_3 1_555 1_555
C4_3 C2_3 1_555 1_555
H3_3 C3_3 1_555 1_555
C5_5 C3_3 1_555 1_555
H4_3 C4_3 1_555 1_555
C6_5 C4_3 1_555 1_555
C7_5 C5_5 1_555 1_555
C8_5 C6_5 1_555 1_555
H5_3 C7_5 1_555 1_555
C9_5 C7_5 1_555 1_555
C10_5 C8_5 1_555 1_555
H7_3 C9_5 1_555 1_555
H14_3 C8_5 1_555 1_555
C15_5 C9_5 1_555 1_555
C16_5 C10_5 1_555 1_555
H16_3 C10_5 1_555 1_555
C17_5 C15_5 1_555 1_555
H18_3 C15_5 1_555 1_555
C18_5 C16_5 1_555 1_555
H19_3 C16_5 1_555 1_555
Ni5_3 N8_5 1_555 1_555
C20_3 C17_5 1_555 1_555
C22_3 C18_5 1_555 1_555
C24_3 C20_3 1_555 1_555
H22_3 C20_3 1_555 1_555
C26_3 C22_3 1_555 1_555
H24_3 C22_3 1_555 1_555
H26_3 C24_3 1_555 1_555
H28_3 C26_3 1_555 1_555
Ni6_5 N9_5 1_555 1_555
N8_5 C24_3 1_555 1_555
C26_3 N9_5 1_555 1_555
Ni1_4 O2_10 1_555 1_555
O3_10 Ni1_4 1_555 1_555
N1_6 Ni1_4 1_555 1_555
N2_6 Ni1_4 1_555 1_555
C7_6 C5_6 1_555 1_555
C8_6 C6_6 1_555 1_555
C9_6 C7_6 1_555 1_555
H6_3 C8_6 1_555 1_555
C10_6 C8_6 1_555 1_555
H8_3 C10_6 1_555 1_555
O42_4 Ni1_4 1_555 1_555
C11_3 N1_6 1_555 1_555
C12_3 N2_6 1_555 1_555
C13_3 C5_6 1_555 1_555
H9_3 C11_3 1_555 1_555
C14_3 C6_6 1_555 1_555
H10_3 C12_3 1_555 1_555
H11_3 C13_3 1_555 1_555
H12_3 C14_3 1_555 1_555
H13_3 C7_6 1_555 1_555
C15_6 C9_6 1_555 1_555
H15_3 C9_6 1_555 1_555
C16_6 C10_6 1_555 1_555
C17_6 C15_6 1_555 1_555
H17_3 C15_6 1_555 1_555
C18_6 C16_6 1_555 1_555
H20_3 C16_6 1_555 1_555
Ni3_5 O62_4 1_555 1_555
Ni5_4 N8_6 1_555 1_555
C19_3 C17_6 1_555 1_555
C21_3 C18_6 1_555 1_555
O66_5 Ni3_5 1_555 1_555
O67_5 Ni3_5 1_555 1_555
N4_5 Ni3_5 1_555 1_555
N5_5 Ni3_5 1_555 1_555
O68_5 Ni3_5 1_555 1_555
N8_6 C23_3 1_555 1_555
C23_3 C19_3 1_555 1_555
H21_3 C19_3 1_555 1_555
C25_3 C21_3 1_555 1_555
H23_3 C21_3 1_555 1_555
W20_5 O68_5 1_555 1_555
H25_3 C23_3 1_555 1_555
N9_6 C25_3 1_555 1_555
H27_3 C25_3 1_555 1_555
Ni6_6 N9_6 1_555 1_555
C11_3 C13_3 1_555 1_555
C12_3 C14_3 1_555 1_555
Ni5_3 O2_11 1_555 1_555
O3_11 Ni5_3 1_555 1_555
N2_7 Ni5_3 1_555 1_555
C8_7 C6_7 1_555 1_555
H6_4 C8_7 1_555 1_555
C10_7 C8_7 1_555 1_555
H8_4 C10_7 1_555 1_555
O42 Ni5_3 1_555 1_555
C12_4 N2_7 1_555 1_555
C14_4 C6_7 1_555 1_555
H10_4 C12_4 1_555 1_555
H12_4 C14_4 1_555 1_555
C16_7 C10_7 1_555 1_555
C18_7 C16_7 1_555 1_555
H20_4 C16_7 1_555 1_555
Ni3_6 O62 1_555 1_555
C21_4 C18_7 1_555 1_555
O66_6 Ni3_6 1_555 1_555
O67_6 Ni3_6 1_555 1_555
N4_6 Ni3_6 1_555 1_555
N5_6 Ni3_6 1_555 1_555
O68_6 Ni3_6 1_555 1_555
C25_4 C21_4 1_555 1_555
H23_4 C21_4 1_555 1_555
W20_6 O68_6 1_555 1_555
N9_7 C25_4 1_555 1_555
H27_4 C25_4 1_555 1_555
Ni6_7 N9_7 1_555 1_555
C12_4 C14_4 1_555 1_555
W1_6 O1_6 1_555 1_555
O1_6 Ni5_4 1_555 1_555
Ni5_4 O2_12 1_555 1_555
O3_12 Ni5_4 1_555 1_555
N2_8 Ni5_4 1_555 1_555
C2_4 N2_8 1_555 1_555
H2_4 C2_4 1_555 1_555
C4_4 C2_4 1_555 1_555
H4_4 C4_4 1_555 1_555
C6_8 C4_4 1_555 1_555
C8_8 C6_8 1_555 1_555
C10_8 C8_8 1_555 1_555
H14_4 C8_8 1_555 1_555
C16_8 C10_8 1_555 1_555
H16_4 C10_8 1_555 1_555
C18_8 C16_8 1_555 1_555
H19_4 C16_8 1_555 1_555
C22_4 C18_8 1_555 1_555
C26_4 C22_4 1_555 1_555
H24_4 C22_4 1_555 1_555
H28_4 C26_4 1_555 1_555
Ni6_8 N9_8 1_555 1_555
C26_4 N9_8 1_555 1_555
W1_7 O1_7 1_555 1_555
O1_7 Ni6_7 1_555 1_555
Ni6_7 O2_13 1_555 1_555
O3_13 Ni6_7 1_555 1_555
N1_7 Ni6_7 1_555 1_555
C1_4 N1_7 1_555 1_555
H1_4 C1_4 1_555 1_555
C3_4 C1_4 1_555 1_555
H3_4 C3_4 1_555 1_555
C5_7 C3_4 1_555 1_555
C7_7 C5_7 1_555 1_555
H5_4 C7_7 1_555 1_555
C9_7 C7_7 1_555 1_555
H7_4 C9_7 1_555 1_555
C15_7 C9_7 1_555 1_555
C17_7 C15_7 1_555 1_555
H18_4 C15_7 1_555 1_555
Ni6_5 N8_7 1_555 1_555
C20_4 C17_7 1_555 1_555
C24_4 C20_4 1_555 1_555
H22_4 C20_4 1_555 1_555
H26_4 C24_4 1_555 1_555
N8_7 C24_4 1_555 1_555
Ni6_8 O2_14 1_555 1_555
O3_14 Ni6_8 1_555 1_555
N1_8 Ni6_8 1_555 1_555
C7_8 C5_8 1_555 1_555
C9_8 C7_8 1_555 1_555
O42_3 Ni6_8 1_555 1_555
C11_4 N1_8 1_555 1_555
C13_4 C5_8 1_555 1_555
H9_4 C11_4 1_555 1_555
H11_4 C13_4 1_555 1_555
H13_4 C7_8 1_555 1_555
C15_8 C9_8 1_555 1_555
H15_4 C9_8 1_555 1_555
C17_8 C15_8 1_555 1_555
H17_4 C15_8 1_555 1_555
Ni3_7 O62_3 1_555 1_555
Ni6_6 N8_8 1_555 1_555
C19_4 C17_8 1_555 1_555
O66_7 Ni3_7 1_555 1_555
O67_7 Ni3_7 1_555 1_555
N4_7 Ni3_7 1_555 1_555
N5_7 Ni3_7 1_555 1_555
O68_7 Ni3_7 1_555 1_555
N8_8 C23_4 1_555 1_555
C23_4 C19_4 1_555 1_555
H21_4 C19_4 1_555 1_555
W20_7 O68_7 1_555 1_555
H25_4 C23_4 1_555 1_555
C11_4 C13_4 1_555 1_555
Ni6_5 O2_15 1_555 1_555
O3_15 Ni6_5 1_555 1_555
O42_2 Ni6_5 1_555 1_555
Ni3_8 O62_2 1_555 1_555
O66_8 Ni3_8 1_555 1_555
O67_8 Ni3_8 1_555 1_555
N4_8 Ni3_8 1_555 1_555
N5_8 Ni3_8 1_555 1_555
O68_8 Ni3_8 1_555 1_555
W20_8 O68_8 1_555 1_555
W1_8 O1_8 1_555 1_555
O1_8 Ni6_6 1_555 1_555
Ni6_6 O2_16 1_555 1_555
O3_16 Ni6_6 1_555 1_555
W1_9 O60_2 1_555 1_555
N2_9 Ni2_3 1_555 1_555
C2_5 N2_9 1_555 1_555
H2_5 C2_5 1_555 1_555
C4_5 C2_5 1_555 1_555
H4_5 C4_5 1_555 1_555
C6_9 C4_5 1_555 1_555
C8_9 C6_9 1_555 1_555
C10_9 C8_9 1_555 1_555
H14_5 C8_9 1_555 1_555
C16_9 C10_9 1_555 1_555
H16_5 C10_9 1_555 1_555
C18_9 C16_9 1_555 1_555
H19_5 C16_9 1_555 1_555
C22_5 C18_9 1_555 1_555
C26_5 C22_5 1_555 1_555
H24_5 C22_5 1_555 1_555
H28_5 C26_5 1_555 1_555
Ni2 N9_9 1_555 1_555
C26_5 N9_9 1_555 1_555
N2_10 Ni2_4 1_555 1_555
C8_10 C6_10 1_555 1_555
H6_5 C8_10 1_555 1_555
C10_10 C8_10 1_555 1_555
H8_5 C10_10 1_555 1_555
C12_5 N2_10 1_555 1_555
C14_5 C6_10 1_555 1_555
H10_5 C12_5 1_555 1_555
H12_5 C14_5 1_555 1_555
C16_10 C10_10 1_555 1_555
C18_10 C16_10 1_555 1_555
H20_5 C16_10 1_555 1_555
C21_5 C18_10 1_555 1_555
C25_5 C21_5 1_555 1_555
H23_5 C21_5 1_555 1_555
W20_9 O72_2 1_555 1_555
N9_10 C25_5 1_555 1_555
H27_5 C25_5 1_555 1_555
Ni2_2 N9_10 1_555 1_555
C12_5 C14_5 1_555 1_555
N2_11 Ni7_3 1_555 1_555
C8_11 C6_11 1_555 1_555
H6_6 C8_11 1_555 1_555
C10_11 C8_11 1_555 1_555
H8_6 C10_11 1_555 1_555
C12_6 N2_11 1_555 1_555
C14_6 C6_11 1_555 1_555
H10_6 C12_6 1_555 1_555
H12_6 C14_6 1_555 1_555
C16_11 C10_11 1_555 1_555
C18_11 C16_11 1_555 1_555
H20_6 C16_11 1_555 1_555
C21_6 C18_11 1_555 1_555
C25_6 C21_6 1_555 1_555
H23_6 C21_6 1_555 1_555
W20_10 O72_4 1_555 1_555
N9_11 C25_6 1_555 1_555
H27_6 C25_6 1_555 1_555
Ni7 N9_11 1_555 1_555
C12_6 C14_6 1_555 1_555
W1_10 O60_4 1_555 1_555
N2_12 Ni7_4 1_555 1_555
C2_6 N2_12 1_555 1_555
H2_6 C2_6 1_555 1_555
C4_6 C2_6 1_555 1_555
H4_6 C4_6 1_555 1_555
C6_12 C4_6 1_555 1_555
C8_12 C6_12 1_555 1_555
C10_12 C8_12 1_555 1_555
H14_6 C8_12 1_555 1_555
C16_12 C10_12 1_555 1_555
H16_6 C10_12 1_555 1_555
C18_12 C16_12 1_555 1_555
H19_6 C16_12 1_555 1_555
C22_6 C18_12 1_555 1_555
C26_6 C22_6 1_555 1_555
H24_6 C22_6 1_555 1_555
H28_6 C26_6 1_555 1_555
Ni7_2 N9_12 1_555 1_555
C26_6 N9_12 1_555 1_555
W1_11 O60_3 1_555 1_555
W20_11 O72_3 1_555 1_555
W20_12 O72 1_555 1_555
W1_12 O60 1_555 1_555
H7_5 C9_9 1_555 1_555
C15_9 C9_9 1_555 1_555
H15_5 C9_9 1_555 1_555
C17_9 C15_9 1_555 1_555
H17_5 C15_9 1_555 1_555
H18_5 C15_9 1_555 1_555
C19_5 C17_9 1_555 1_555
C20_5 C17_9 1_555 1_555
N4_2 C23_5 1_555 1_555
C23_5 C19_5 1_555 1_555
H21_5 C19_5 1_555 1_555
C24_5 C20_5 1_555 1_555
H22_5 C20_5 1_555 1_555
H25_5 C23_5 1_555 1_555
H26_5 C24_5 1_555 1_555
N4_2 C24_5 1_555 1_555
C1_5 N4 1_555 1_555
C2_7 N5 1_555 1_555
H1_5 C1_5 1_555 1_555
C3_5 C1_5 1_555 1_555
H2_7 C2_7 1_555 1_555
C4_7 C2_7 1_555 1_555
H3_5 C3_5 1_555 1_555
C5_9 C3_5 1_555 1_555
H4_7 C4_7 1_555 1_555
C6_13 C4_7 1_555 1_555
C7_9 C5_9 1_555 1_555
C8_13 C6_13 1_555 1_555
H5_5 C7_9 1_555 1_555
C9_10 C7_9 1_555 1_555
H6_7 C8_13 1_555 1_555
C10_13 C8_13 1_555 1_555
H7_6 C9_10 1_555 1_555
H8_7 C10_13 1_555 1_555
C11_5 N4 1_555 1_555
C12_7 N5 1_555 1_555
C13_5 C5_9 1_555 1_555
H9_5 C11_5 1_555 1_555
C14_7 C6_13 1_555 1_555
H10_7 C12_7 1_555 1_555
H11_5 C13_5 1_555 1_555
H12_7 C14_7 1_555 1_555
H13_5 C7_9 1_555 1_555
H14_7 C8_13 1_555 1_555
H15_6 C9_10 1_555 1_555
H16_7 C10_13 1_555 1_555
C27_3 N4_6 1_555 1_555
C28_3 N4_6 1_555 1_555
H29_3 C27_3 1_555 1_555
C29_3 C27_3 1_555 1_555
C30_3 C28_3 1_555 1_555
H30_3 C28_3 1_555 1_555
H31_3 C29_3 1_555 1_555
C31_5 C29_3 1_555 1_555
H32_3 C30_3 1_555 1_555
C32_5 C31_5 1_555 1_555
H33_3 C32_5 1_555 1_555
C33_5 C32_5 1_555 1_555
H34_3 C32_5 1_555 1_555
H35_3 C33_5 1_555 1_555
H36_3 C33_5 1_555 1_555
C11_5 C13_5 1_555 1_555
C12_7 C14_7 1_555 1_555
C30_3 C31_5 1_555 1_555
H8_8 C10_14 1_555 1_555
C16_13 C10_14 1_555 1_555
H16_8 C10_14 1_555 1_555
C18_13 C16_13 1_555 1_555
H19_7 C16_13 1_555 1_555
H20_7 C16_13 1_555 1_555
C21_7 C18_13 1_555 1_555
C22_7 C18_13 1_555 1_555
C25_7 C21_7 1_555 1_555
H23_7 C21_7 1_555 1_555
C26_7 C22_7 1_555 1_555
H24_7 C22_7 1_555 1_555
N5_3 C25_7 1_555 1_555
H27_7 C25_7 1_555 1_555
H28_7 C26_7 1_555 1_555
H35_4 C33_6 1_555 1_555
C34_5 C33_6 1_555 1_555
H36_4 C33_6 1_555 1_555
C35_5 C34_5 1_555 1_555
H37_3 C34_5 1_555 1_555
H38_3 C34_5 1_555 1_555
C36_3 C35_5 1_555 1_555
C37_3 C35_5 1_555 1_555
N4_5 C38_3 1_555 1_555
C38_3 C36_3 1_555 1_555
H39_3 C36_3 1_555 1_555
C39_3 C37_3 1_555 1_555
H40_3 C37_3 1_555 1_555
H41_3 C38_3 1_555 1_555
H42_3 C39_3 1_555 1_555
C26_7 N5_3 1_555 1_555
N4_5 C39_3 1_555 1_555
C2_8 N5_2 1_555 1_555
H2_8 C2_8 1_555 1_555
C4_8 C2_8 1_555 1_555
H4_8 C4_8 1_555 1_555
C6_14 C4_8 1_555 1_555
C8_14 C6_14 1_555 1_555
H6_8 C8_14 1_555 1_555
C10_15 C8_14 1_555 1_555
H8_9 C10_15 1_555 1_555
C12_8 N5_2 1_555 1_555
C14_8 C6_14 1_555 1_555
H10_8 C12_8 1_555 1_555
H12_8 C14_8 1_555 1_555
H14_8 C8_14 1_555 1_555
H16_9 C10_15 1_555 1_555
C27_4 N4_8 1_555 1_555
C28_4 N4_8 1_555 1_555
H29_4 C27_4 1_555 1_555
C29_4 C27_4 1_555 1_555
C30_4 C28_4 1_555 1_555
H30_4 C28_4 1_555 1_555
H31_4 C29_4 1_555 1_555
C31_6 C29_4 1_555 1_555
H32_4 C30_4 1_555 1_555
C32_6 C31_6 1_555 1_555
H33_4 C32_6 1_555 1_555
C33_7 C32_6 1_555 1_555
H34_4 C32_6 1_555 1_555
H35_5 C33_7 1_555 1_555
H36_5 C33_7 1_555 1_555
C12_8 C14_8 1_555 1_555
C30_4 C31_6 1_555 1_555
H8_10 C10_16 1_555 1_555
C16_14 C10_16 1_555 1_555
H16_10 C10_16 1_555 1_555
C18_14 C16_14 1_555 1_555
H19_8 C16_14 1_555 1_555
H20_8 C16_14 1_555 1_555
C21_8 C18_14 1_555 1_555
C22_8 C18_14 1_555 1_555
C25_8 C21_8 1_555 1_555
H23_8 C21_8 1_555 1_555
C26_8 C22_8 1_555 1_555
H24_8 C22_8 1_555 1_555
N5_4 C25_8 1_555 1_555
H27_8 C25_8 1_555 1_555
H28_8 C26_8 1_555 1_555
H35_6 C33_8 1_555 1_555
C34_6 C33_8 1_555 1_555
H36_6 C33_8 1_555 1_555
C35_6 C34_6 1_555 1_555
H37_4 C34_6 1_555 1_555
H38_4 C34_6 1_555 1_555
C36_4 C35_6 1_555 1_555
C37_4 C35_6 1_555 1_555
N4_7 C38_4 1_555 1_555
C38_4 C36_4 1_555 1_555
H39_4 C36_4 1_555 1_555
C39_4 C37_4 1_555 1_555
H40_4 C37_4 1_555 1_555
H41_4 C38_4 1_555 1_555
H42_4 C39_4 1_555 1_555
C26_8 N5_4 1_555 1_555
N4_7 C39_4 1_555 1_555
C1_6 N4_4 1_555 1_555
H1_6 C1_6 1_555 1_555
C3_6 C1_6 1_555 1_555
H3_6 C3_6 1_555 1_555
C5_10 C3_6 1_555 1_555
C7_10 C5_10 1_555 1_555
H5_6 C7_10 1_555 1_555
C9_11 C7_10 1_555 1_555
H7_7 C9_11 1_555 1_555
C11_6 N4_4 1_555 1_555
C13_6 C5_10 1_555 1_555
H9_6 C11_6 1_555 1_555
H11_6 C13_6 1_555 1_555
H13_6 C7_10 1_555 1_555
H15_7 C9_11 1_555 1_555
C11_6 C13_6 1_555 1_555
H7_8 C9_12 1_555 1_555
C15_10 C9_12 1_555 1_555
H15_8 C9_12 1_555 1_555
C17_10 C15_10 1_555 1_555
H17_6 C15_10 1_555 1_555
H18_6 C15_10 1_555 1_555
C19_6 C17_10 1_555 1_555
C20_6 C17_10 1_555 1_555
N4_3 C23_6 1_555 1_555
C23_6 C19_6 1_555 1_555
H21_6 C19_6 1_555 1_555
C24_6 C20_6 1_555 1_555
H22_6 C20_6 1_555 1_555
H25_6 C23_6 1_555 1_555
H26_6 C24_6 1_555 1_555
N4_3 C24_6 1_555 1_555
H7_9 C9_13 1_555 1_555
C15_11 C9_13 1_555 1_555
H15_9 C9_13 1_555 1_555
C17_11 C15_11 1_555 1_555
H17_7 C15_11 1_555 1_555
H18_7 C15_11 1_555 1_555
C19_7 C17_11 1_555 1_555
C20_7 C17_11 1_555 1_555
N7 C23_7 1_555 1_555
C23_7 C19_7 1_555 1_555
H21_7 C19_7 1_555 1_555
C24_7 C20_7 1_555 1_555
H22_7 C20_7 1_555 1_555
H25_7 C23_7 1_555 1_555
H26_7 C24_7 1_555 1_555
N7 C24_7 1_555 1_555
H8_11 C10_17 1_555 1_555
C16_15 C10_17 1_555 1_555
H16_11 C10_17 1_555 1_555
C18_15 C16_15 1_555 1_555
H19_9 C16_15 1_555 1_555
H20_9 C16_15 1_555 1_555
C21_9 C18_15 1_555 1_555
C22_9 C18_15 1_555 1_555
C25_9 C21_9 1_555 1_555
H23_9 C21_9 1_555 1_555
C26_9 C22_9 1_555 1_555
H24_9 C22_9 1_555 1_555
N6_2 C25_9 1_555 1_555
H27_9 C25_9 1_555 1_555
H28_9 C26_9 1_555 1_555
C26_9 N6_2 1_555 1_555
C1_7 N7_3 1_555 1_555
C2_9 N6_3 1_555 1_555
H1_7 C1_7 1_555 1_555
C3_7 C1_7 1_555 1_555
H2_9 C2_9 1_555 1_555
C4_9 C2_9 1_555 1_555
H3_7 C3_7 1_555 1_555
C5_11 C3_7 1_555 1_555
H4_9 C4_9 1_555 1_555
C6_15 C4_9 1_555 1_555
C7_11 C5_11 1_555 1_555
C8_15 C6_15 1_555 1_555
H5_7 C7_11 1_555 1_555
C9_14 C7_11 1_555 1_555
H6_9 C8_15 1_555 1_555
C10_18 C8_15 1_555 1_555
H7_10 C9_14 1_555 1_555
H8_12 C10_18 1_555 1_555
C11_7 N7_3 1_555 1_555
C12_9 N6_3 1_555 1_555
C13_7 C5_11 1_555 1_555
H9_7 C11_7 1_555 1_555
C14_9 C6_15 1_555 1_555
H10_9 C12_9 1_555 1_555
H11_7 C13_7 1_555 1_555
H12_9 C14_9 1_555 1_555
H13_7 C7_11 1_555 1_555
H14_9 C8_15 1_555 1_555
H15_10 C9_14 1_555 1_555
H16_12 C10_18 1_555 1_555
C11_7 C13_7 1_555 1_555
C12_9 C14_9 1_555 1_555
H8_13 C10_19 1_555 1_555
C16_16 C10_19 1_555 1_555
H16_13 C10_19 1_555 1_555
C18_16 C16_16 1_555 1_555
H19_10 C16_16 1_555 1_555
H20_10 C16_16 1_555 1_555
C21_10 C18_16 1_555 1_555
C22_10 C18_16 1_555 1_555
C25_10 C21_10 1_555 1_555
H23_10 C21_10 1_555 1_555
C26_10 C22_10 1_555 1_555
H24_10 C22_10 1_555 1_555
N6_4 C25_10 1_555 1_555
H27_10 C25_10 1_555 1_555
H28_10 C26_10 1_555 1_555
C26_10 N6_4 1_555 1_555
C2_10 N6 1_555 1_555
H2_10 C2_10 1_555 1_555
C4_10 C2_10 1_555 1_555
H4_10 C4_10 1_555 1_555
C6_16 C4_10 1_555 1_555
C8_16 C6_16 1_555 1_555
H6_10 C8_16 1_555 1_555
C10_20 C8_16 1_555 1_555
H8_14 C10_20 1_555 1_555
C12_10 N6 1_555 1_555
C14_10 C6_16 1_555 1_555
H10_10 C12_10 1_555 1_555
H12_10 C14_10 1_555 1_555
H14_10 C8_16 1_555 1_555
H16_14 C10_20 1_555 1_555
C12_10 C14_10 1_555 1_555
C1_8 N7_4 1_555 1_555
H1_8 C1_8 1_555 1_555
C3_8 C1_8 1_555 1_555
H3_8 C3_8 1_555 1_555
C5_12 C3_8 1_555 1_555
C7_12 C5_12 1_555 1_555
H5_8 C7_12 1_555 1_555
C9_15 C7_12 1_555 1_555
H7_11 C9_15 1_555 1_555
C11_8 N7_4 1_555 1_555
C13_8 C5_12 1_555 1_555
H9_8 C11_8 1_555 1_555
H11_8 C13_8 1_555 1_555
H13_8 C7_12 1_555 1_555
H15_11 C9_15 1_555 1_555
C11_8 C13_8 1_555 1_555
H7_12 C9_16 1_555 1_555
C15_12 C9_16 1_555 1_555
H15_12 C9_16 1_555 1_555
C17_12 C15_12 1_555 1_555
H17_8 C15_12 1_555 1_555
H18_8 C15_12 1_555 1_555
C19_8 C17_12 1_555 1_555
C20_8 C17_12 1_555 1_555
N7_2 C23_8 1_555 1_555
C23_8 C19_8 1_555 1_555
H21_8 C19_8 1_555 1_555
C24_8 C20_8 1_555 1_555
H22_8 C20_8 1_555 1_555
H25_8 C23_8 1_555 1_555
H26_8 C24_8 1_555 1_555
N7_2 C24_8 1_555 1_555
H8_15 C10_21 1_555 1_555
C16_17 C10_21 1_555 1_555
H16_15 C10_21 1_555 1_555
C18_17 C16_17 1_555 1_555
H19_11 C16_17 1_555 1_555
H20_11 C16_17 1_555 1_555
C21_11 C18_17 1_555 1_555
C22_11 C18_17 1_555 1_555
C25_11 C21_11 1_555 1_555
H23_11 C21_11 1_555 1_555
C26_11 C22_11 1_555 1_555
H24_11 C22_11 1_555 1_555
N5_6 C25_11 1_555 1_555
H27_11 C25_11 1_555 1_555
H28_11 C26_11 1_555 1_555
C26_11 N5_6 1_555 1_555
C2_11 N5_8 1_555 1_555
H2_11 C2_11 1_555 1_555
C4_11 C2_11 1_555 1_555
H4_11 C4_11 1_555 1_555
C6_17 C4_11 1_555 1_555
C8_17 C6_17 1_555 1_555
H6_11 C8_17 1_555 1_555
C10_22 C8_17 1_555 1_555
H8_16 C10_22 1_555 1_555
C12_11 N5_8 1_555 1_555
C14_11 C6_17 1_555 1_555
H10_11 C12_11 1_555 1_555
H12_11 C14_11 1_555 1_555
H14_11 C8_17 1_555 1_555
H16_16 C10_22 1_555 1_555
C12_11 C14_11 1_555 1_555
H8_17 C10_23 1_555 1_555
C16_18 C10_23 1_555 1_555
H16_17 C10_23 1_555 1_555
C18_18 C16_18 1_555 1_555
H19_12 C16_18 1_555 1_555
H20_12 C16_18 1_555 1_555
C21_12 C18_18 1_555 1_555
C22_12 C18_18 1_555 1_555
C25_12 C21_12 1_555 1_555
H23_12 C21_12 1_555 1_555
C26_12 C22_12 1_555 1_555
H24_12 C22_12 1_555 1_555
N5_5 C25_12 1_555 1_555
H27_12 C25_12 1_555 1_555
H28_12 C26_12 1_555 1_555
C26_12 N5_5 1_555 1_555
C2_12 N5_7 1_555 1_555
H2_12 C2_12 1_555 1_555
C4_12 C2_12 1_555 1_555
H4_12 C4_12 1_555 1_555
C6_18 C4_12 1_555 1_555
C8_18 C6_18 1_555 1_555
H6_12 C8_18 1_555 1_555
C10_24 C8_18 1_555 1_555
H8_18 C10_24 1_555 1_555
C12_12 N5_7 1_555 1_555
C14_12 C6_18 1_555 1_555
H10_12 C12_12 1_555 1_555
H12_12 C14_12 1_555 1_555
H14_12 C8_18 1_555 1_555
H16_18 C10_24 1_555 1_555
C12_12 C14_12 1_555 1_555
O4_5 P1_5 1_555 1_555
O5_5 W1_3 1_555 1_555
O6_5 W1_3 1_555 1_555
O7_5 W3_5 1_555 1_555
O8_5 W2_5 1_555 1_555
P1_5 O9_5 1_555 1_555
W2_5 O4_5 1_555 1_555
W3_5 O9_5 1_555 1_555
O9_5 W7_5 1_555 1_555
O10_5 W2_5 1_555 1_555
O11_5 W2_5 1_555 1_555
O12_5 W3_5 1_555 1_555
O13_5 W3_5 1_555 1_555
W1_3 O4_5 1_555 1_555
W5_5 O5_5 1_555 1_555
W6_5 O6_5 1_555 1_555
O15_5 P1_5 1_555 1_555
O16_5 P1_5 1_555 1_555
O17_5 W2_5 1_555 1_555
O18_5 W2_5 1_555 1_555
O19_5 W3_5 1_555 1_555
O20_5 W5_5 1_555 1_555
O21_5 W5_5 1_555 1_555
O22_5 W5_5 1_555 1_555
O23_5 W6_5 1_555 1_555
O24_5 W6_5 1_555 1_555
O25_5 W6_5 1_555 1_555
O26_5 W6_5 1_555 1_555
O27_5 W6_5 1_555 1_555
O28_5 W3_5 1_555 1_555
W7_5 O10_5 1_555 1_555
W8_5 O9_5 1_555 1_555
W1_10 O15_5 1_555 1_555
W10_5 O16_5 1_555 1_555
W1_8 O16_5 1_555 1_555
W20_4 O18_5 1_555 1_555
W20_9 O22_5 1_555 1_555
P2_5 O23_5 1_555 1_555
W14_5 O24_5 1_555 1_555
O29_5 W7_5 1_555 1_555
O30_5 W7_5 1_555 1_555
O31_5 W7_5 1_555 1_555
O32_5 W8_5 1_555 1_555
O33_5 W8_5 1_555 1_555
O34_5 W8_5 1_555 1_555
O35_5 W1_10 1_555 1_555
O36_5 W1_10 1_555 1_555
O38_5 W10_5 1_555 1_555
O39_5 W10_5 1_555 1_555
O40_5 W10_5 1_555 1_555
O41_5 W1_8 1_555 1_555
O43_5 W20_4 1_555 1_555
O45_5 W20_4 1_555 1_555
O46_5 W20_9 1_555 1_555
O47_5 W20_9 1_555 1_555
O49_5 W20_9 1_555 1_555
O50_5 P2_5 1_555 1_555
O51_5 P2_5 1_555 1_555
O52_5 W14_5 1_555 1_555
O53_5 W14_5 1_555 1_555
O54_5 W14_5 1_555 1_555
W15_5 O36_5 1_555 1_555
W20_7 O40_5 1_555 1_555
W17_5 O41_5 1_555 1_555
W18_5 O45_5 1_555 1_555
W19_5 O50_5 1_555 1_555
O55_5 W15_5 1_555 1_555
O56_5 W15_5 1_555 1_555
O57_5 W15_5 1_555 1_555
O61_5 W20_7 1_555 1_555
O63_5 W20_7 1_555 1_555
O64_5 W17_5 1_555 1_555
O65_5 W17_5 1_555 1_555
O69_5 W18_5 1_555 1_555
O70_5 W18_5 1_555 1_555
O74_5 W19_5 1_555 1_555
O7_5 W1_3 1_555 1_555
O8_5 W1_3 1_555 1_555
O13_5 W8_5 1_555 1_555
W5_5 O15_5 1_555 1_555
W5_5 O19_5 1_555 1_555
O17_5 W1_8 1_555 1_555
O20_5 W1_10 1_555 1_555
O23_5 W20_4 1_555 1_555
O25_5 W20_4 1_555 1_555
O27_5 W20_9 1_555 1_555
O28_5 W7_5 1_555 1_555
W8_5 O31_5 1_555 1_555
W1_10 O33_5 1_555 1_555
W10_5 O32_5 1_555 1_555
W10_5 O35_5 1_555 1_555
W1_8 O29_5 1_555 1_555
W1_8 O38_5 1_555 1_555
P2_5 O46_5 1_555 1_555
W14_5 O49_5 1_555 1_555
W14_5 O50_5 1_555 1_555
O43_5 W17_5 1_555 1_555
O46_5 W15_5 1_555 1_555
O47_5 W15_5 1_555 1_555
O50_5 W18_5 1_555 1_555
O51_5 W20_7 1_555 1_555
O51_5 W17_5 1_555 1_555
O52_5 W18_5 1_555 1_555
O54_5 W19_5 1_555 1_555
W20_7 O57_5 1_555 1_555
W17_5 O61_5 1_555 1_555
W18_5 O64_5 1_555 1_555
W19_5 O55_5 1_555 1_555
W19_5 O63_5 1_555 1_555
W19_5 O70_5 1_555 1_555
O4_6 P1_6 1_555 1_555
O5_6 W1_4 1_555 1_555
O6_6 W1_4 1_555 1_555
O7_6 W3_6 1_555 1_555
O8_6 W2_6 1_555 1_555
P1_6 O9_6 1_555 1_555
W2_6 O4_6 1_555 1_555
W3_6 O9_6 1_555 1_555
O9_6 W7_6 1_555 1_555
O10_6 W2_6 1_555 1_555
O11_6 W2_6 1_555 1_555
O12_6 W3_6 1_555 1_555
O13_6 W3_6 1_555 1_555
W1_4 O4_6 1_555 1_555
W5_6 O5_6 1_555 1_555
W6_6 O6_6 1_555 1_555
O15_6 P1_6 1_555 1_555
O16_6 P1_6 1_555 1_555
O17_6 W2_6 1_555 1_555
O18_6 W2_6 1_555 1_555
O19_6 W3_6 1_555 1_555
O20_6 W5_6 1_555 1_555
O21_6 W5_6 1_555 1_555
O22_6 W5_6 1_555 1_555
O23_6 W6_6 1_555 1_555
O24_6 W6_6 1_555 1_555
O25_6 W6_6 1_555 1_555
O26_6 W6_6 1_555 1_555
O27_6 W6_6 1_555 1_555
O28_6 W3_6 1_555 1_555
W7_6 O10_6 1_555 1_555
W8_6 O9_6 1_555 1_555
W1_11 O15_6 1_555 1_555
W10_6 O16_6 1_555 1_555
W1_6 O16_6 1_555 1_555
W20_3 O18_6 1_555 1_555
W20_12 O22_6 1_555 1_555
P2_6 O23_6 1_555 1_555
W14_6 O24_6 1_555 1_555
O29_6 W7_6 1_555 1_555
O30_6 W7_6 1_555 1_555
O31_6 W7_6 1_555 1_555
O32_6 W8_6 1_555 1_555
O33_6 W8_6 1_555 1_555
O34_6 W8_6 1_555 1_555
O35_6 W1_11 1_555 1_555
O36_6 W1_11 1_555 1_555
O38_6 W10_6 1_555 1_555
O39_6 W10_6 1_555 1_555
O40_6 W10_6 1_555 1_555
O41_6 W1_6 1_555 1_555
O43_6 W20_3 1_555 1_555
O45_6 W20_3 1_555 1_555
O46_6 W20_12 1_555 1_555
O47_6 W20_12 1_555 1_555
O49_6 W20_12 1_555 1_555
O50_6 P2_6 1_555 1_555
O51_6 P2_6 1_555 1_555
O52_6 W14_6 1_555 1_555
O53_6 W14_6 1_555 1_555
O54_6 W14_6 1_555 1_555
W15_6 O36_6 1_555 1_555
W20_5 O40_6 1_555 1_555
W17_6 O41_6 1_555 1_555
W18_6 O45_6 1_555 1_555
W19_6 O50_6 1_555 1_555
O55_6 W15_6 1_555 1_555
O56_6 W15_6 1_555 1_555
O57_6 W15_6 1_555 1_555
O61_6 W20_5 1_555 1_555
O63_6 W20_5 1_555 1_555
O64_6 W17_6 1_555 1_555
O65_6 W17_6 1_555 1_555
O69_6 W18_6 1_555 1_555
O70_6 W18_6 1_555 1_555
O74_6 W19_6 1_555 1_555
O7_6 W1_4 1_555 1_555
O8_6 W1_4 1_555 1_555
O13_6 W8_6 1_555 1_555
W5_6 O15_6 1_555 1_555
W5_6 O19_6 1_555 1_555
O17_6 W1_6 1_555 1_555
O20_6 W1_11 1_555 1_555
O23_6 W20_3 1_555 1_555
O25_6 W20_3 1_555 1_555
O27_6 W20_12 1_555 1_555
O28_6 W7_6 1_555 1_555
W8_6 O31_6 1_555 1_555
W1_11 O33_6 1_555 1_555
W10_6 O32_6 1_555 1_555
W10_6 O35_6 1_555 1_555
W1_6 O29_6 1_555 1_555
W1_6 O38_6 1_555 1_555
P2_6 O46_6 1_555 1_555
W14_6 O49_6 1_555 1_555
W14_6 O50_6 1_555 1_555
O43_6 W17_6 1_555 1_555
O46_6 W15_6 1_555 1_555
O47_6 W15_6 1_555 1_555
O50_6 W18_6 1_555 1_555
O51_6 W20_5 1_555 1_555
O51_6 W17_6 1_555 1_555
O52_6 W18_6 1_555 1_555
O54_6 W19_6 1_555 1_555
W20_5 O57_6 1_555 1_555
W17_6 O61_6 1_555 1_555
W18_6 O64_6 1_555 1_555
W19_6 O55_6 1_555 1_555
W19_6 O63_6 1_555 1_555
W19_6 O70_6 1_555 1_555
O4_7 P1_7 1_555 1_555
O5_7 W1 1_555 1_555
O6_7 W1 1_555 1_555
O7_7 W3_7 1_555 1_555
O8_7 W2_7 1_555 1_555
P1_7 O9_7 1_555 1_555
W2_7 O4_7 1_555 1_555
W3_7 O9_7 1_555 1_555
O9_7 W7_7 1_555 1_555
O10_7 W2_7 1_555 1_555
O11_7 W2_7 1_555 1_555
O12_7 W3_7 1_555 1_555
O13_7 W3_7 1_555 1_555
W1 O4_7 1_555 1_555
W5_7 O5_7 1_555 1_555
W6_7 O6_7 1_555 1_555
O15_7 P1_7 1_555 1_555
O16_7 P1_7 1_555 1_555
O17_7 W2_7 1_555 1_555
O18_7 W2_7 1_555 1_555
O19_7 W3_7 1_555 1_555
O20_7 W5_7 1_555 1_555
O21_7 W5_7 1_555 1_555
O22_7 W5_7 1_555 1_555
O23_7 W6_7 1_555 1_555
O24_7 W6_7 1_555 1_555
O25_7 W6_7 1_555 1_555
O26_7 W6_7 1_555 1_555
O27_7 W6_7 1_555 1_555
O28_7 W3_7 1_555 1_555
W7_7 O10_7 1_555 1_555
W8_7 O9_7 1_555 1_555
W1_9 O15_7 1_555 1_555
W10_7 O16_7 1_555 1_555
W1_5 O16_7 1_555 1_555
W20_2 O18_7 1_555 1_555
W20_10 O22_7 1_555 1_555
P2_7 O23_7 1_555 1_555
W14_7 O24_7 1_555 1_555
O29_7 W7_7 1_555 1_555
O30_7 W7_7 1_555 1_555
O31_7 W7_7 1_555 1_555
O32_7 W8_7 1_555 1_555
O33_7 W8_7 1_555 1_555
O34_7 W8_7 1_555 1_555
O35_7 W1_9 1_555 1_555
O36_7 W1_9 1_555 1_555
O38_7 W10_7 1_555 1_555
O39_7 W10_7 1_555 1_555
O40_7 W10_7 1_555 1_555
O41_7 W1_5 1_555 1_555
O43_7 W20_2 1_555 1_555
O45_7 W20_2 1_555 1_555
O46_7 W20_10 1_555 1_555
O47_7 W20_10 1_555 1_555
O49_7 W20_10 1_555 1_555
O50_7 P2_7 1_555 1_555
O51_7 P2_7 1_555 1_555
O52_7 W14_7 1_555 1_555
O53_7 W14_7 1_555 1_555
O54_7 W14_7 1_555 1_555
W15_7 O36_7 1_555 1_555
W20_6 O40_7 1_555 1_555
W17_7 O41_7 1_555 1_555
W18_7 O45_7 1_555 1_555
W19_7 O50_7 1_555 1_555
O55_7 W15_7 1_555 1_555
O56_7 W15_7 1_555 1_555
O57_7 W15_7 1_555 1_555
O61_7 W20_6 1_555 1_555
O63_7 W20_6 1_555 1_555
O64_7 W17_7 1_555 1_555
O65_7 W17_7 1_555 1_555
O69_7 W18_7 1_555 1_555
O70_7 W18_7 1_555 1_555
O74_7 W19_7 1_555 1_555
O7_7 W1 1_555 1_555
O8_7 W1 1_555 1_555
O13_7 W8_7 1_555 1_555
W5_7 O15_7 1_555 1_555
W5_7 O19_7 1_555 1_555
O17_7 W1_5 1_555 1_555
O20_7 W1_9 1_555 1_555
O23_7 W20_2 1_555 1_555
O25_7 W20_2 1_555 1_555
O27_7 W20_10 1_555 1_555
O28_7 W7_7 1_555 1_555
W8_7 O31_7 1_555 1_555
W1_9 O33_7 1_555 1_555
W10_7 O32_7 1_555 1_555
W10_7 O35_7 1_555 1_555
W1_5 O29_7 1_555 1_555
W1_5 O38_7 1_555 1_555
P2_7 O46_7 1_555 1_555
W14_7 O49_7 1_555 1_555
W14_7 O50_7 1_555 1_555
O43_7 W17_7 1_555 1_555
O46_7 W15_7 1_555 1_555
O47_7 W15_7 1_555 1_555
O50_7 W18_7 1_555 1_555
O51_7 W20_6 1_555 1_555
O51_7 W17_7 1_555 1_555
O52_7 W18_7 1_555 1_555
O54_7 W19_7 1_555 1_555
W20_6 O57_7 1_555 1_555
W17_7 O61_7 1_555 1_555
W18_7 O64_7 1_555 1_555
W19_7 O55_7 1_555 1_555
W19_7 O63_7 1_555 1_555
W19_7 O70_7 1_555 1_555
O4_8 P1_8 1_555 1_555
O5_8 W1_2 1_555 1_555
O6_8 W1_2 1_555 1_555
O7_8 W3_8 1_555 1_555
O8_8 W2_8 1_555 1_555
P1_8 O9_8 1_555 1_555
W2_8 O4_8 1_555 1_555
W3_8 O9_8 1_555 1_555
O9_8 W7_8 1_555 1_555
O10_8 W2_8 1_555 1_555
O11_8 W2_8 1_555 1_555
O12_8 W3_8 1_555 1_555
O13_8 W3_8 1_555 1_555
W1_2 O4_8 1_555 1_555
W5_8 O5_8 1_555 1_555
W6_8 O6_8 1_555 1_555
O15_8 P1_8 1_555 1_555
O16_8 P1_8 1_555 1_555
O17_8 W2_8 1_555 1_555
O18_8 W2_8 1_555 1_555
O19_8 W3_8 1_555 1_555
O20_8 W5_8 1_555 1_555
O21_8 W5_8 1_555 1_555
O22_8 W5_8 1_555 1_555
O23_8 W6_8 1_555 1_555
O24_8 W6_8 1_555 1_555
O25_8 W6_8 1_555 1_555
O26_8 W6_8 1_555 1_555
O27_8 W6_8 1_555 1_555
O28_8 W3_8 1_555 1_555
W7_8 O10_8 1_555 1_555
W8_8 O9_8 1_555 1_555
W1_12 O15_8 1_555 1_555
W10_8 O16_8 1_555 1_555
W1_7 O16_8 1_555 1_555
W20 O18_8 1_555 1_555
W20_11 O22_8 1_555 1_555
P2_8 O23_8 1_555 1_555
W14_8 O24_8 1_555 1_555
O29_8 W7_8 1_555 1_555
O30_8 W7_8 1_555 1_555
O31_8 W7_8 1_555 1_555
O32_8 W8_8 1_555 1_555
O33_8 W8_8 1_555 1_555
O34_8 W8_8 1_555 1_555
O35_8 W1_12 1_555 1_555
O36_8 W1_12 1_555 1_555
O38_8 W10_8 1_555 1_555
O39_8 W10_8 1_555 1_555
O40_8 W10_8 1_555 1_555
O41_8 W1_7 1_555 1_555
O43_8 W20 1_555 1_555
O45_8 W20 1_555 1_555
O46_8 W20_11 1_555 1_555
O47_8 W20_11 1_555 1_555
O49_8 W20_11 1_555 1_555
O50_8 P2_8 1_555 1_555
O51_8 P2_8 1_555 1_555
O52_8 W14_8 1_555 1_555
O53_8 W14_8 1_555 1_555
O54_8 W14_8 1_555 1_555
W15_8 O36_8 1_555 1_555
W20_8 O40_8 1_555 1_555
W17_8 O41_8 1_555 1_555
W18_8 O45_8 1_555 1_555
W19_8 O50_8 1_555 1_555
O55_8 W15_8 1_555 1_555
O56_8 W15_8 1_555 1_555
O57_8 W15_8 1_555 1_555
O61_8 W20_8 1_555 1_555
O63_8 W20_8 1_555 1_555
O64_8 W17_8 1_555 1_555
O65_8 W17_8 1_555 1_555
O69_8 W18_8 1_555 1_555
O70_8 W18_8 1_555 1_555
O74_8 W19_8 1_555 1_555
O7_8 W1_2 1_555 1_555
O8_8 W1_2 1_555 1_555
O13_8 W8_8 1_555 1_555
W5_8 O15_8 1_555 1_555
W5_8 O19_8 1_555 1_555
O17_8 W1_7 1_555 1_555
O20_8 W1_12 1_555 1_555
O23_8 W20 1_555 1_555
O25_8 W20 1_555 1_555
O27_8 W20_11 1_555 1_555
O28_8 W7_8 1_555 1_555
W8_8 O31_8 1_555 1_555
W1_12 O33_8 1_555 1_555
W10_8 O32_8 1_555 1_555
W10_8 O35_8 1_555 1_555
W1_7 O29_8 1_555 1_555
W1_7 O38_8 1_555 1_555
P2_8 O46_8 1_555 1_555
W14_8 O49_8 1_555 1_555
W14_8 O50_8 1_555 1_555
O43_8 W17_8 1_555 1_555
O46_8 W15_8 1_555 1_555
O47_8 W15_8 1_555 1_555
O50_8 W18_8 1_555 1_555
O51_8 W20_8 1_555 1_555
O51_8 W17_8 1_555 1_555
O52_8 W18_8 1_555 1_555
O54_8 W19_8 1_555 1_555
W20_8 O57_8 1_555 1_555
W17_8 O61_8 1_555 1_555
W18_8 O64_8 1_555 1_555
W19_8 O55_8 1_555 1_555
W19_8 O63_8 1_555 1_555
W19_8 O70_8 1_555 1_555

#END
