
###############################################################################
#
# This file contains modified crystal structure data generated from the
# MOF subset of the Cambridge Structural Database (CSD) v543 
# hosted by the Cambridge Crystallographic Data Centre (CCDC).
#
# This work is licensed under the Creative Commons
# Attribution-NonCommercial-ShareAlike 4.0 International License.
# To view a copy of this license, visit
# http://creativecommons.org/licenses/by-nc-sa/4.0/
# or send a letter to
# Creative Commons, PO Box 1866, Mountain View, CA 94042, USA.
#
# CIF created using the CSD Python API on 29 September 2022
# The structure has been converted into the P1 space group
# The structure has a 3D framework
# The original CSD entry ENANIS is in the orthorhombic crystal system
# The framework has been calculated to contain at least 10.0% void space
# The void calculation uses a probe of radius 1.32A, grid spacing 0.4
#
###############################################################################

data_ENANIS
_chemical_formula_moiety         '(C72 H48 Cu6 N24 O16)n'
_symmetry_cell_setting           triclinic
_symmetry_space_group_name_H-M   'P 1'
_symmetry_Int_Tables_number      1
_space_group_name_Hall           'P 1'
loop_
_symmetry_equiv_pos_site_id
_symmetry_equiv_pos_as_xyz
1 x,y,z
_cell_length_a                   12.3348(9)
_cell_length_b                   9.9360(7)
_cell_length_c                   17.8259(14)
_cell_angle_alpha                90
_cell_angle_beta                 90
_cell_angle_gamma                90
_cell_volume                     2184.72
loop_
_atom_site_label
_atom_site_type_symbol
_atom_site_fract_x
_atom_site_fract_y
_atom_site_fract_z
N5 N 0.0280(4) 0.0448(7) 0.2086(4)
H9 H 0.1243 0.0302 0.0792
N1 N 0.5288(3) 0.0489(5) 0.1687(2)
C3 C 0.4755(4) 0.3064(5) 0.0248(3)
H1 H 0.5009 0.3912 0.0113
C4 C 0.5207(4) 0.2406(5) 0.0855(3)
H2 H 0.5765 0.2803 0.1127
C5 C 0.4821(4) 0.1149(5) 0.1051(3)
C6 C 0.4011(6) 0.0546(6) 0.0658(4)
C7 C 0.3575(5) 0.1231(6) 0.0053(4)
C9 C 0.6241(3) 0.0696(5) 0.2009(3)
H6 H 0.6771 0.1279 0.1830
C12 C 0.0245(4) 0.6936(5) 0.0248(3)
C14 C 0.0179(4) 0.8851(5) 0.1051(3)
C15 C 0.0989(6) 0.9454(6) 0.0658(4)
C16 C 0.1425(5) 0.8769(6) 0.0053(4)
Cu3 Cu 0.7500 0.0000 0.33816(4)
N6 N 0.8670(3) 0.0048(4) 0.2623(2)
C17 C 0.9629(4) 0.0724(7) 0.2640(4)
H11 H 0.9806 0.1333 0.3017
O1 O 0.8545(2) 0.0514(3) 0.41722(18)
O2 O 0.7796(3) 0.2400(3) 0.37700(19)
N2 N 0.9720(4) 0.5448(7) 0.7086(4)
C1 C 0.8385(3) 0.1782(4) 0.4220(2)
C2 C 0.8936(4) 0.2519(4) 0.4846(3)
C3_2 C 0.9755(4) 0.1936(5) 0.5248(3)
C5_2 C 0.9821(4) 0.3851(5) 0.6051(3)
C6_2 C 0.9011(6) 0.4454(6) 0.5658(4)
H3 H 0.8757 0.5302 0.5792
C7_2 C 0.8575(5) 0.3769(6) 0.5053(4)
H4 H 0.8020 0.4169 0.4779
Cu1 Cu 0.2500 0.5000 0.83816(4)
O1_2 O 0.3545(2) 0.4486(3) 0.91722(18)
O2_2 O 0.2796(3) 0.2600(3) 0.87700(19)
C1_2 C 0.3385(3) 0.3218(4) 0.9220(2)
C2_2 C 0.3936(4) 0.2481(4) 0.9846(3)
H4_2 H 0.3020 0.0831 0.9779
O3 O 0.1455(2) 0.5514(3) 0.91722(18)
O4 O 0.2204(3) 0.7400(3) 0.87700(19)
C10 C 0.1615(3) 0.6782(4) 0.9220(2)
C11 C 0.1064(4) 0.7519(4) 0.9846(3)
H10 H 0.1980 0.9169 0.9779
N7 N 0.1330(3) 0.5048(4) 0.7623(2)
N8 N 0.3670(3) 0.4952(4) 0.7623(2)
N2_2 N 0.4720(4) 0.9552(7) 0.2086(4)
N3 N 0.6330(3) 0.9952(4) 0.2623(2)
H3_2 H 0.3757 0.9698 0.0792
C8 C 0.5371(4) 0.9276(7) 0.2640(4)
H5 H 0.5194 0.8667 0.3017
Cu3_2 Cu 0.7500 1.0000 0.33816(4)
N4 N 0.9712(3) 0.9511(5) 0.1687(2)
H7 H 0.9991 0.6088 0.0113
C13 C 0.9793(4) 0.7594(5) 0.0855(3)
H8 H 0.9235 0.7197 0.1127
C18 C 0.8759(3) 0.9304(5) 0.2009(3)
H12 H 0.8229 0.8721 0.1830
N1_2 N 0.0288(3) 0.4511(5) 0.6687(2)
H1_2 H 0.0009 0.1088 0.5113
C4_2 C 0.0207(4) 0.2594(5) 0.5855(3)
H2_2 H 0.0765 0.2197 0.6127
C8_2 C 0.0371(4) 0.5724(7) 0.7640(4)
H5_2 H 0.0194 0.6333 0.8017
C9_2 C 0.1241(3) 0.4304(5) 0.7009(3)
H6_2 H 0.1771 0.3721 0.6830
O3_2 O 0.6455(2) 0.9486(3) 0.41722(18)
O4_2 O 0.7204(3) 0.7600(3) 0.37700(19)
N4_2 N 0.4712(3) 0.5489(5) 0.6687(2)
N5_2 N 0.5280(4) 0.4552(7) 0.7086(4)
C10_2 C 0.6615(3) 0.8218(4) 0.4220(2)
C11_2 C 0.6064(4) 0.7481(4) 0.4846(3)
C12_2 C 0.5245(4) 0.8064(5) 0.5248(3)
H7_2 H 0.4991 0.8912 0.5113
C13_2 C 0.4793(4) 0.7406(5) 0.5855(3)
H8_2 H 0.4235 0.7803 0.6127
C14_2 C 0.5179(4) 0.6149(5) 0.6051(3)
C15_2 C 0.5989(6) 0.5546(6) 0.5658(4)
H9_2 H 0.6243 0.4698 0.5792
C16_2 C 0.6425(5) 0.6231(6) 0.5053(4)
H10_2 H 0.6980 0.5831 0.4779
C17_2 C 0.4629(4) 0.4276(7) 0.7640(4)
H11_2 H 0.4806 0.3667 0.8017
C18_2 C 0.3759(3) 0.5696(5) 0.7009(3)
H12_2 H 0.3229 0.6279 0.6830
Cu1_2 Cu 0.2500 0.0000 0.66184(4)
O3_3 O 0.3545(2) 0.0514(3) 0.58278(18)
O4_3 O 0.2796(3) 0.2400(3) 0.62300(19)
N4_3 N 0.5288(3) 0.4511(5) 0.3313(2)
N5_3 N 0.4720(4) 0.5448(7) 0.2914(4)
N6_2 N 0.6330(3) 0.5048(4) 0.2377(2)
C10_3 C 0.3385(3) 0.1782(4) 0.5780(2)
C11_3 C 0.3936(4) 0.2519(4) 0.5154(3)
C12_3 C 0.4755(4) 0.1936(5) 0.4752(3)
H7_3 H 0.5009 0.1088 0.4887
C13_3 C 0.5207(4) 0.2594(5) 0.4145(3)
H8_3 H 0.5765 0.2197 0.3873
C14_3 C 0.4821(4) 0.3851(5) 0.3949(3)
C15_3 C 0.4011(6) 0.4454(6) 0.4342(4)
H9_3 H 0.3757 0.5302 0.4208
C16_3 C 0.3575(5) 0.3769(6) 0.4947(4)
H10_3 H 0.3020 0.4169 0.5221
C17_3 C 0.5371(4) 0.5724(7) 0.2360(4)
H11_3 H 0.5194 0.6333 0.1983
C18_3 C 0.6241(3) 0.4304(5) 0.2991(3)
H12_3 H 0.6771 0.3721 0.3170
Cu2 Cu 0.7500 0.5000 0.16184(4)
N7_2 N 0.3670(3) 0.0048(4) 0.7377(2)
N1_3 N 0.9712(3) 0.5489(5) 0.3313(2)
N3_2 N 0.8670(3) 0.4952(4) 0.2377(2)
H1_3 H 0.9991 0.8912 0.4887
C4_3 C 0.9793(4) 0.7406(5) 0.4145(3)
H2_3 H 0.9235 0.7803 0.3873
C8_3 C 0.9629(4) 0.4276(7) 0.2360(4)
H5_3 H 0.9806 0.3667 0.1983
C9_3 C 0.8759(3) 0.5696(5) 0.2991(3)
H6_3 H 0.8229 0.6279 0.3170
N4_4 N 0.0288(3) 0.0489(5) 0.8313(2)
H7_4 H 0.0009 0.3912 0.9887
C13_4 C 0.0207(4) 0.2406(5) 0.9145(3)
H8_4 H 0.0765 0.2803 0.8873
C18_4 C 0.1241(3) 0.0696(5) 0.7991(3)
H12_4 H 0.1771 0.1279 0.8170
N2_3 N 0.5280(4) 0.0448(7) 0.7914(4)
H3_3 H 0.6243 0.0302 0.9208
C8_4 C 0.4629(4) 0.0724(7) 0.7360(4)
H5_4 H 0.4806 0.1333 0.6983
O1_3 O 0.6455(2) 0.5514(3) 0.08278(18)
O2_3 O 0.7204(3) 0.7400(3) 0.12300(19)
C1_3 C 0.6615(3) 0.6782(4) 0.0780(2)
C2_3 C 0.6064(4) 0.7519(4) 0.0154(3)
H4_3 H 0.6980 0.9169 0.0221
O3_4 O 0.8545(2) 0.4486(3) 0.08278(18)
O4_4 O 0.7796(3) 0.2600(3) 0.12300(19)
C10_4 C 0.8385(3) 0.3218(4) 0.0780(2)
C11_4 C 0.8936(4) 0.2481(4) 0.0154(3)
H10_4 H 0.8020 0.0831 0.0221
Cu1_3 Cu 0.2500 1.0000 0.66184(4)
O1_4 O 0.1455(2) 0.9486(3) 0.58278(18)
O2_4 O 0.2204(3) 0.7600(3) 0.62300(19)
N2_4 N 0.0280(4) 0.4552(7) 0.2914(4)
C1_4 C 0.1615(3) 0.8218(4) 0.5780(2)
C2_4 C 0.1064(4) 0.7481(4) 0.5154(3)
C3_3 C 0.0245(4) 0.8064(5) 0.4752(3)
C5_3 C 0.0179(4) 0.6149(5) 0.3949(3)
C6_3 C 0.0989(6) 0.5546(6) 0.4342(4)
H3_4 H 0.1243 0.4698 0.4208
C7_3 C 0.1425(5) 0.6231(6) 0.4947(4)
H4_4 H 0.1980 0.5831 0.5221
N8_2 N 0.1330(3) 0.9952(4) 0.7377(2)
C17_4 C 0.0371(4) 0.9276(7) 0.7360(4)
H11_4 H 0.0194 0.8667 0.6983
N1_4 N 0.4712(3) 0.9511(5) 0.8313(2)
C3_4 C 0.5245(4) 0.6936(5) 0.9752(3)
H1_4 H 0.4991 0.6088 0.9887
C4_4 C 0.4793(4) 0.7594(5) 0.9145(3)
H2_4 H 0.4235 0.7197 0.8873
C5_4 C 0.5179(4) 0.8851(5) 0.8949(3)
C6_4 C 0.5989(6) 0.9454(6) 0.9342(4)
C7_4 C 0.6425(5) 0.8769(6) 0.9947(4)
C9_4 C 0.3759(3) 0.9304(5) 0.7991(3)
H6_4 H 0.3229 0.8721 0.8170
C12_4 C 0.9755(4) 0.3064(5) 0.9752(3)
C14_4 C 0.9821(4) 0.1149(5) 0.8949(3)
C15_4 C 0.9011(6) 0.0546(6) 0.9342(4)
C16_4 C 0.8575(5) 0.1231(6) 0.9947(4)
N5_4 N 0.9720(4) 0.9552(7) 0.7914(4)
H9_4 H 0.8757 0.9698 0.9208
loop_
_geom_bond_atom_site_label_1
_geom_bond_atom_site_label_2
_geom_bond_site_symmetry_1
_geom_bond_site_symmetry_2
H1 C3 1_555 1_555
C4 C3 1_555 1_555
H2 C4 1_555 1_555
C5 N1 1_555 1_555
C6 C5 1_555 1_555
C9 N1 1_555 1_555
H6 C9 1_555 1_555
C15 C14 1_555 1_555
C4 C5 1_555 1_555
C6 C7 1_555 1_555
C15 C16 1_555 1_555
N6 C17 1_555 1_555
C17 H11 1_555 1_555
Cu3 N6 1_555 1_555
Cu3 O1 1_555 1_555
O1 C1 1_555 1_555
O2 Cu3 1_555 1_555
C1 O2 1_555 1_555
C2 C1 1_555 1_555
C3_2 C2 1_555 1_555
C6_2 C5_2 1_555 1_555
H3 C6_2 1_555 1_555
C7_2 C2 1_555 1_555
H4 C7_2 1_555 1_555
C6_2 C7_2 1_555 1_555
Cu1 O1_2 1_555 1_555
O1_2 C1_2 1_555 1_555
O2_2 Cu1 1_555 1_555
C1_2 O2_2 1_555 1_555
C2_2 C1_2 1_555 1_555
O3 Cu1 1_555 1_555
O4 Cu1 1_555 1_555
C10 O3 1_555 1_555
C11 C10 1_555 1_555
N7 Cu1 1_555 1_555
N8 Cu1 1_555 1_555
O4 C10 1_555 1_555
N2_2 C8 1_555 1_555
N3 C8 1_555 1_555
C8 H5 1_555 1_555
Cu3_2 N3 1_555 1_555
H8 C13 1_555 1_555
C18 N4 1_555 1_555
H12 C18 1_555 1_555
N7 C8_2 1_555 1_555
H2_2 C4_2 1_555 1_555
C8_2 H5_2 1_555 1_555
C9_2 N1_2 1_555 1_555
H6_2 C9_2 1_555 1_555
N7 C9_2 1_555 1_555
O3_2 Cu3_2 1_555 1_555
O4_2 Cu3_2 1_555 1_555
N4_2 N5_2 1_555 1_555
N5_2 C17_2 1_555 1_555
N8 C17_2 1_555 1_555
C10_2 O3_2 1_555 1_555
C11_2 C10_2 1_555 1_555
C12_2 C11_2 1_555 1_555
H7_2 C12_2 1_555 1_555
C13_2 C12_2 1_555 1_555
H8_2 C13_2 1_555 1_555
C14_2 N4_2 1_555 1_555
C15_2 C14_2 1_555 1_555
H9_2 C15_2 1_555 1_555
C16_2 C11_2 1_555 1_555
H10_2 C16_2 1_555 1_555
C17_2 H11_2 1_555 1_555
C18_2 N4_2 1_555 1_555
H12_2 C18_2 1_555 1_555
O4_2 C10_2 1_555 1_555
N8 C18_2 1_555 1_555
C13_2 C14_2 1_555 1_555
C15_2 C16_2 1_555 1_555
O3_3 Cu1_2 1_555 1_555
O4_3 Cu1_2 1_555 1_555
N4_3 N5_3 1_555 1_555
N5_3 C17_3 1_555 1_555
N6_2 C17_3 1_555 1_555
C10_3 O3_3 1_555 1_555
C11_3 C10_3 1_555 1_555
C12_3 C11_3 1_555 1_555
H7_3 C12_3 1_555 1_555
C13_3 C12_3 1_555 1_555
H8_3 C13_3 1_555 1_555
C14_3 N4_3 1_555 1_555
C15_3 C14_3 1_555 1_555
H9_3 C15_3 1_555 1_555
C16_3 C11_3 1_555 1_555
H10_3 C16_3 1_555 1_555
C17_3 H11_3 1_555 1_555
C18_3 N4_3 1_555 1_555
H12_3 C18_3 1_555 1_555
Cu2 N6_2 1_555 1_555
N7_2 Cu1_2 1_555 1_555
O4_3 C10_3 1_555 1_555
N6_2 C18_3 1_555 1_555
C13_3 C14_3 1_555 1_555
C15_3 C16_3 1_555 1_555
N3_2 C8_3 1_555 1_555
H2_3 C4_3 1_555 1_555
C8_3 H5_3 1_555 1_555
C9_3 N1_3 1_555 1_555
H6_3 C9_3 1_555 1_555
Cu2 N3_2 1_555 1_555
N3_2 C9_3 1_555 1_555
H8_4 C13_4 1_555 1_555
C18_4 N4_4 1_555 1_555
H12_4 C18_4 1_555 1_555
N2_3 C8_4 1_555 1_555
N7_2 C8_4 1_555 1_555
C8_4 H5_4 1_555 1_555
Cu2 O1_3 1_555 1_555
O1_3 C1_3 1_555 1_555
O2_3 Cu2 1_555 1_555
C1_3 O2_3 1_555 1_555
C2_3 C1_3 1_555 1_555
O3_4 Cu2 1_555 1_555
O4_4 Cu2 1_555 1_555
C10_4 O3_4 1_555 1_555
C11_4 C10_4 1_555 1_555
O4_4 C10_4 1_555 1_555
Cu1_3 O1_4 1_555 1_555
O1_4 C1_4 1_555 1_555
O2_4 Cu1_3 1_555 1_555
C1_4 O2_4 1_555 1_555
C2_4 C1_4 1_555 1_555
C3_3 C2_4 1_555 1_555
C6_3 C5_3 1_555 1_555
H3_4 C6_3 1_555 1_555
C7_3 C2_4 1_555 1_555
H4_4 C7_3 1_555 1_555
N8_2 Cu1_3 1_555 1_555
C6_3 C7_3 1_555 1_555
N8_2 C17_4 1_555 1_555
C17_4 H11_4 1_555 1_555
H1_4 C3_4 1_555 1_555
C4_4 C3_4 1_555 1_555
H2_4 C4_4 1_555 1_555
C5_4 N1_4 1_555 1_555
C6_4 C5_4 1_555 1_555
C9_4 N1_4 1_555 1_555
H6_4 C9_4 1_555 1_555
C15_4 C14_4 1_555 1_555
C4_4 C5_4 1_555 1_555
C6_4 C7_4 1_555 1_555
C15_4 C16_4 1_555 1_555

#END
