
###############################################################################
#
# This file contains modified crystal structure data generated from the
# MOF subset of the Cambridge Structural Database (CSD) v543 
# hosted by the Cambridge Crystallographic Data Centre (CCDC).
#
# This work is licensed under the Creative Commons
# Attribution-NonCommercial-ShareAlike 4.0 International License.
# To view a copy of this license, visit
# http://creativecommons.org/licenses/by-nc-sa/4.0/
# or send a letter to
# Creative Commons, PO Box 1866, Mountain View, CA 94042, USA.
#
# CIF created using the CSD Python API on 29 September 2022
# The structure has been converted into the P1 space group
# The structure has a 3D framework
# The original CSD entry ENATUJ is in the cubic crystal system
# The framework has been calculated to contain at least 10.0% void space
# The void calculation uses a probe of radius 1.32A, grid spacing 0.4
# The framework is charged, counterions have been retained in the structure
#
###############################################################################

data_ENATUJ
_chemical_formula_moiety         '(C144 H48 Ga14 O88 7-)n'
_symmetry_cell_setting           triclinic
_symmetry_space_group_name_H-M   'P 1'
_symmetry_Int_Tables_number      1
_space_group_name_Hall           'P 1'
loop_
_symmetry_equiv_pos_site_id
_symmetry_equiv_pos_as_xyz
1 x,y,z
_cell_length_a                   19.9611(9)
_cell_length_b                   19.9611(9)
_cell_length_c                   19.9611(9)
_cell_angle_alpha                90
_cell_angle_beta                 90
_cell_angle_gamma                90
_cell_volume                     7953.41
loop_
_atom_site_label
_atom_site_type_symbol
_atom_site_fract_x
_atom_site_fract_y
_atom_site_fract_z
Ga4 Ga 0.1250 0.5000 0.2500
O6 O 0.07988(6) 0.47045(6) 0.17576(7)
O23 O 0.01444(8) 0.55906(8) 0.18472(8)
C7 C 0.02962(10) 0.50805(11) 0.15661(10)
C23 C 0.01754(9) 0.09615(9) 0.00650(11)
C24 C 0.00650(11) 0.01754(9) 0.09615(9)
C25 C 0.09615(9) 0.00650(11) 0.01754(9)
C28 C 0.01677(9) 0.42593(9) 0.06161(9)
H4 H 0.0559 0.4032 0.0763
Ga1 Ga 0.0000 0.2500 0.8750
Ga6 Ga 0.2500 0.1250 0.5000
Ga7 Ga 0.3750 0.5000 0.7500
O8 O 0.07424(7) 0.27955(6) 0.82988(6)
O9 O 0.22045(6) 0.17012(6) 0.57424(7)
O10 O 0.32988(6) 0.42576(7) 0.72045(6)
O11 O 0.02955(6) 0.17576(7) 0.92012(6)
O22 O 0.05906(8) 0.31528(8) 0.98556(8)
O25 O 0.06528(8) 0.19094(8) 0.76444(8)
O26 O 0.30906(8) 0.23556(8) 0.56528(8)
O27 O 0.26444(8) 0.43472(8) 0.80906(8)
C6 C 0.00805(11) 0.34339(10) 0.97038(10)
C9 C 0.09339(10) 0.24195(11) 0.77962(10)
C10 C 0.25805(11) 0.22038(10) 0.59339(10)
C11 C 0.27962(10) 0.40661(10) 0.75805(11)
C20 C 0.15385(9) 0.26754(9) 0.74350(11)
C21 C 0.23246(9) 0.25650(11) 0.65385(9)
C22 C 0.24350(11) 0.34615(9) 0.73246(9)
C31 C 0.17593(9) 0.23323(9) 0.68839(9)
C32 C 0.26677(9) 0.31161(9) 0.67593(9)
C33 C 0.18839(9) 0.32407(9) 0.76677(9)
C36 C 0.07407(9) 0.06161(9) 0.98323(9)
H7 H 0.1532 0.1941 0.6737
H8 H 0.1737 0.3468 0.8059
H9 H 0.3059 0.3263 0.6532
H11 H 0.0968 0.0763 0.9441
Ga9 Ga 0.2500 0.8750 0.0000
O13 O 0.17576(7) 0.92012(6) 0.02955(6)
C35 C 0.06161(9) 0.98323(9) 0.07407(9)
H12 H 0.0763 0.9441 0.0968
Ga9_2 Ga 0.2500 0.8750 1.0000
O30 O 0.18472(8) 0.98556(8) 0.94094(8)
C14 C 0.15661(10) 0.97038(10) 0.99195(11)
Ga5 Ga 0.7500 0.6250 0.0000
Ga8 Ga 0.8750 0.0000 0.2500
O7 O 0.82424(7) 0.57988(6) 0.02955(6)
O12 O 0.92012(6) 0.02955(6) 0.17576(7)
C17 C 0.98246(9) 0.40385(9) 0.00650(11)
C18 C 0.99350(11) 0.48246(9) 0.09615(9)
C19 C 0.90385(9) 0.49350(11) 0.01754(9)
C29 C 0.93839(9) 0.51677(9) 0.07407(9)
C34 C 0.98323(9) 0.07407(9) 0.06161(9)
H6 H 0.9237 0.5559 0.0968
H10 H 0.9441 0.0968 0.0763
Ga1_2 Ga 1.0000 0.2500 0.8750
O1 O 0.92576(7) 0.22045(6) 0.82988(6)
O2 O 0.93472(8) 0.30906(8) 0.76444(8)
C1 C 0.90661(10) 0.25805(11) 0.77962(10)
C2 C 0.84615(9) 0.23246(9) 0.74350(11)
C3 C 0.82407(9) 0.26677(9) 0.68839(9)
H1 H 0.8468 0.3059 0.6737
Ga2 Ga 0.7500 0.3750 0.5000
Ga3 Ga 0.6250 0.0000 0.7500
Ga5_2 Ga 0.7500 0.6250 1.0000
O3 O 0.77955(6) 0.32988(6) 0.57424(7)
O4 O 0.67012(6) 0.07424(7) 0.72045(6)
O5 O 0.97045(6) 0.32424(7) 0.92012(6)
O14 O 0.67576(7) 0.42012(6) 0.52955(6)
O15 O 0.72045(6) 0.32988(6) 0.42576(7)
O16 O 0.82424(7) 0.42012(6) 0.47045(6)
O17 O 0.57988(6) 0.02955(6) 0.82424(7)
O20 O 0.69094(8) 0.26444(8) 0.56528(8)
O21 O 0.73556(8) 0.06528(8) 0.80906(8)
O24 O 0.81528(8) 0.51444(8) 0.94094(8)
O28 O 0.94094(8) 0.18472(8) 0.98556(8)
C4 C 0.74195(11) 0.27962(10) 0.59339(10)
C5 C 0.72038(10) 0.09339(10) 0.75805(11)
C8 C 0.84339(10) 0.52962(10) 0.99195(11)
C12 C 0.99195(11) 0.15661(10) 0.97038(10)
C15 C 0.76754(9) 0.24350(11) 0.65385(9)
C16 C 0.75650(11) 0.15385(9) 0.73246(9)
C26 C 0.73323(9) 0.18839(9) 0.67593(9)
C27 C 0.81161(9) 0.17593(9) 0.76677(9)
C30 C 0.92593(9) 0.43839(9) 0.98323(9)
H2 H 0.8263 0.1532 0.8059
H3 H 0.6941 0.1737 0.6532
H5 H 0.9032 0.4237 0.9441
Ga8_2 Ga 0.8750 1.0000 0.2500
O29 O 0.98556(8) 0.94094(8) 0.18472(8)
C13 C 0.97038(10) 0.99195(11) 0.15661(10)
Ga3_2 Ga 0.6250 1.0000 0.7500
O18 O 0.67012(6) 0.92576(7) 0.77955(6)
O19 O 0.57988(6) 0.97045(6) 0.67576(7)
O13_2 O 0.32424(7) 0.07988(6) 0.52955(6)
O18_2 O 0.82988(6) 0.07424(7) 0.27955(6)
O29_2 O 0.51444(8) 0.05906(8) 0.68472(8)
O30_2 O 0.31528(8) 0.01444(8) 0.44094(8)
C13_2 C 0.52962(10) 0.00805(11) 0.65661(10)
C14_2 C 0.34339(10) 0.02962(10) 0.49195(11)
C35_2 C 0.43839(9) 0.01677(9) 0.57407(9)
H12_2 H 0.4237 0.0559 0.5968
Ga1_3 Ga 0.5000 0.7500 0.3750
O1_2 O 0.57424(7) 0.77955(6) 0.32988(6)
O2_2 O 0.56528(8) 0.69094(8) 0.26444(8)
C1_2 C 0.59339(10) 0.74195(11) 0.27962(10)
C2_2 C 0.65385(9) 0.76754(9) 0.24350(11)
C3_2 C 0.67593(9) 0.73323(9) 0.18839(9)
H1_2 H 0.6532 0.6941 0.1737
O3_2 O 0.72045(6) 0.67012(6) 0.07424(7)
O4_2 O 0.82988(6) 0.92576(7) 0.22045(6)
O5_2 O 0.52955(6) 0.67576(7) 0.42012(6)
O6_2 O 0.42012(6) 0.52955(6) 0.67576(7)
O8_2 O 0.42576(7) 0.72045(6) 0.32988(6)
O9_2 O 0.27955(6) 0.82988(6) 0.07424(7)
O10_2 O 0.17012(6) 0.57424(7) 0.22045(6)
O11_2 O 0.47045(6) 0.82424(7) 0.42012(6)
O17_2 O 0.92012(6) 0.97045(6) 0.32424(7)
O20_2 O 0.80906(8) 0.73556(8) 0.06528(8)
O21_2 O 0.76444(8) 0.93472(8) 0.30906(8)
O22_2 O 0.44094(8) 0.68472(8) 0.48556(8)
O23_2 O 0.48556(8) 0.44094(8) 0.68472(8)
O24_2 O 0.68472(8) 0.48556(8) 0.44094(8)
O25_2 O 0.43472(8) 0.80906(8) 0.26444(8)
O26_2 O 0.19094(8) 0.76444(8) 0.06528(8)
O27_2 O 0.23556(8) 0.56528(8) 0.30906(8)
O28_2 O 0.55906(8) 0.81528(8) 0.48556(8)
C4_2 C 0.75805(11) 0.72038(10) 0.09339(10)
C5_2 C 0.77962(10) 0.90661(10) 0.25805(11)
C6_2 C 0.49195(11) 0.65661(10) 0.47038(10)
C7_2 C 0.47038(10) 0.49195(11) 0.65661(10)
C8_2 C 0.65661(10) 0.47038(10) 0.49195(11)
C9_2 C 0.40661(10) 0.75805(11) 0.27962(10)
C10_2 C 0.24195(11) 0.77962(10) 0.09339(10)
C11_2 C 0.22038(10) 0.59339(10) 0.25805(11)
C12_2 C 0.50805(11) 0.84339(10) 0.47038(10)
C15_2 C 0.73246(9) 0.75650(11) 0.15385(9)
C16_2 C 0.74350(11) 0.84615(9) 0.23246(9)
C17_2 C 0.51754(9) 0.59615(9) 0.50650(11)
C18_2 C 0.50650(11) 0.51754(9) 0.59615(9)
C19_2 C 0.59615(9) 0.50650(11) 0.51754(9)
C20_2 C 0.34615(9) 0.73246(9) 0.24350(11)
C21_2 C 0.26754(9) 0.74350(11) 0.15385(9)
C22_2 C 0.25650(11) 0.65385(9) 0.23246(9)
C23_2 C 0.48246(9) 0.90385(9) 0.50650(11)
C24_2 C 0.49350(11) 0.98246(9) 0.59615(9)
C25_2 C 0.40385(9) 0.99350(11) 0.51754(9)
C26_2 C 0.76677(9) 0.81161(9) 0.17593(9)
C27_2 C 0.68839(9) 0.82407(9) 0.26677(9)
C28_2 C 0.48323(9) 0.57407(9) 0.56161(9)
C29_2 C 0.56161(9) 0.48323(9) 0.57407(9)
C30_2 C 0.57407(9) 0.56161(9) 0.48323(9)
C31_2 C 0.32407(9) 0.76677(9) 0.18839(9)
C32_2 C 0.23323(9) 0.68839(9) 0.17593(9)
C33_2 C 0.31161(9) 0.67593(9) 0.26677(9)
C34_2 C 0.51677(9) 0.92593(9) 0.56161(9)
C36_2 C 0.42593(9) 0.93839(9) 0.48323(9)
H2_2 H 0.6737 0.8468 0.3059
H3_2 H 0.8059 0.8263 0.1532
H4_2 H 0.4441 0.5968 0.5763
H5_2 H 0.5968 0.5763 0.4441
H6_2 H 0.5763 0.4441 0.5968
H7_2 H 0.3468 0.8059 0.1737
H8_2 H 0.3263 0.6532 0.3059
H9_2 H 0.1941 0.6737 0.1532
H10_2 H 0.5559 0.9032 0.5763
H11_2 H 0.4032 0.9237 0.4441
O15_2 O 0.77955(6) 0.67012(6) 0.92576(7)
O16_2 O 0.67576(7) 0.57988(6) 0.97045(6)
O7_2 O 0.17576(7) 0.07988(6) 0.47045(6)
O24_3 O 0.18472(8) 0.01444(8) 0.55906(8)
C8_3 C 0.15661(10) 0.02962(10) 0.50805(11)
C29_3 C 0.06161(9) 0.01677(9) 0.42593(9)
H6_3 H 0.0763 0.0559 0.4032
Ga1_4 Ga 0.0000 0.7500 0.6250
O1_3 O 0.07424(7) 0.72045(6) 0.67012(6)
O2_3 O 0.06528(8) 0.80906(8) 0.73556(8)
C1_3 C 0.09339(10) 0.75805(11) 0.72038(10)
C2_3 C 0.15385(9) 0.73246(9) 0.75650(11)
C3_3 C 0.17593(9) 0.76677(9) 0.81161(9)
H1_3 H 0.1532 0.8059 0.8263
O3_3 O 0.22045(6) 0.82988(6) 0.92576(7)
O4_3 O 0.32988(6) 0.57424(7) 0.77955(6)
O5_3 O 0.02955(6) 0.82424(7) 0.57988(6)
O12_2 O 0.07988(6) 0.52955(6) 0.32424(7)
O14_2 O 0.32424(7) 0.92012(6) 0.97045(6)
O19_2 O 0.42012(6) 0.47045(6) 0.82424(7)
O20_3 O 0.30906(8) 0.76444(8) 0.93472(8)
O21_3 O 0.26444(8) 0.56528(8) 0.69094(8)
O28_3 O 0.05906(8) 0.68472(8) 0.51444(8)
O29_3 O 0.01444(8) 0.44094(8) 0.31528(8)
C4_3 C 0.25805(11) 0.77962(10) 0.90661(10)
C5_3 C 0.27962(10) 0.59339(10) 0.74195(11)
C12_3 C 0.00805(11) 0.65661(10) 0.52962(10)
C13_3 C 0.02962(10) 0.49195(11) 0.34339(10)
C15_3 C 0.23246(9) 0.74350(11) 0.84615(9)
C16_3 C 0.24350(11) 0.65385(9) 0.76754(9)
C17_3 C 0.01754(9) 0.90385(9) 0.49350(11)
C18_3 C 0.00650(11) 0.98246(9) 0.40385(9)
C19_3 C 0.09615(9) 0.99350(11) 0.48246(9)
C26_3 C 0.26677(9) 0.68839(9) 0.82407(9)
C27_3 C 0.18839(9) 0.67593(9) 0.73323(9)
C30_3 C 0.07407(9) 0.93839(9) 0.51677(9)
C34_3 C 0.01677(9) 0.57407(9) 0.43839(9)
H2_3 H 0.1737 0.6532 0.6941
H3_3 H 0.3059 0.6737 0.8468
H5_3 H 0.0968 0.9237 0.5559
H10_3 H 0.0559 0.5968 0.4237
O23_3 O 0.98556(8) 0.05906(8) 0.31528(8)
C7_3 C 0.97038(10) 0.00805(11) 0.34339(10)
Ga1_5 Ga 1.0000 0.7500 0.6250
O8_3 O 0.92576(7) 0.77955(6) 0.67012(6)
O11_3 O 0.97045(6) 0.67576(7) 0.57988(6)
O22_3 O 0.94094(8) 0.81528(8) 0.51444(8)
O25_3 O 0.93472(8) 0.69094(8) 0.73556(8)
O26_3 O 0.69094(8) 0.73556(8) 0.93472(8)
O27_3 O 0.73556(8) 0.93472(8) 0.69094(8)
O30_3 O 0.81528(8) 0.48556(8) 0.55906(8)
C6_3 C 0.99195(11) 0.84339(10) 0.52962(10)
C9_3 C 0.90661(10) 0.74195(11) 0.72038(10)
C10_3 C 0.74195(11) 0.72038(10) 0.90661(10)
C11_3 C 0.72038(10) 0.90661(10) 0.74195(11)
C14_3 C 0.84339(10) 0.47038(10) 0.50805(11)
C20_3 C 0.84615(9) 0.76754(9) 0.75650(11)
C21_3 C 0.76754(9) 0.75650(11) 0.84615(9)
C22_3 C 0.75650(11) 0.84615(9) 0.76754(9)
C23_3 C 0.98246(9) 0.59615(9) 0.49350(11)
C24_3 C 0.99350(11) 0.51754(9) 0.40385(9)
C25_3 C 0.90385(9) 0.50650(11) 0.48246(9)
C28_3 C 0.98323(9) 0.92593(9) 0.43839(9)
C31_3 C 0.82407(9) 0.73323(9) 0.81161(9)
C32_3 C 0.73323(9) 0.81161(9) 0.82407(9)
C33_3 C 0.81161(9) 0.82407(9) 0.73323(9)
C35_3 C 0.93839(9) 0.48323(9) 0.42593(9)
C36_3 C 0.92593(9) 0.56161(9) 0.51677(9)
H4_3 H 0.9441 0.9032 0.4237
H7_3 H 0.8468 0.6941 0.8263
H8_3 H 0.8263 0.8468 0.6941
H9_3 H 0.6941 0.8263 0.8468
H11_3 H 0.9032 0.5763 0.5559
H12_3 H 0.9237 0.4441 0.4032
Ga1_6 Ga 0.5000 0.2500 0.1250
O1_4 O 0.42576(7) 0.27955(6) 0.17012(6)
O2_4 O 0.43472(8) 0.19094(8) 0.23556(8)
C1_4 C 0.40661(10) 0.24195(11) 0.22038(10)
C2_4 C 0.34615(9) 0.26754(9) 0.25650(11)
C3_4 C 0.32407(9) 0.23323(9) 0.31161(9)
H1_4 H 0.3468 0.1941 0.3263
O3_4 O 0.27955(6) 0.17012(6) 0.42576(7)
O4_4 O 0.17012(6) 0.42576(7) 0.27955(6)
O5_4 O 0.47045(6) 0.17576(7) 0.07988(6)
O8_4 O 0.57424(7) 0.22045(6) 0.17012(6)
O11_4 O 0.52955(6) 0.32424(7) 0.07988(6)
O20_4 O 0.19094(8) 0.23556(8) 0.43472(8)
O21_4 O 0.23556(8) 0.43472(8) 0.19094(8)
O22_4 O 0.55906(8) 0.18472(8) 0.01444(8)
O25_4 O 0.56528(8) 0.30906(8) 0.23556(8)
O26_4 O 0.80906(8) 0.26444(8) 0.43472(8)
O27_4 O 0.76444(8) 0.06528(8) 0.19094(8)
O28_4 O 0.44094(8) 0.31528(8) 0.01444(8)
O30_4 O 0.68472(8) 0.51444(8) 0.05906(8)
C4_4 C 0.24195(11) 0.22038(10) 0.40661(10)
C5_4 C 0.22038(10) 0.40661(10) 0.24195(11)
C6_4 C 0.50805(11) 0.15661(10) 0.02962(10)
C9_4 C 0.59339(10) 0.25805(11) 0.22038(10)
C10_4 C 0.75805(11) 0.27962(10) 0.40661(10)
C11_4 C 0.77962(10) 0.09339(10) 0.24195(11)
C12_4 C 0.49195(11) 0.34339(10) 0.02962(10)
C14_4 C 0.65661(10) 0.52962(10) 0.00805(11)
C15_4 C 0.26754(9) 0.25650(11) 0.34615(9)
C16_4 C 0.25650(11) 0.34615(9) 0.26754(9)
C20_4 C 0.65385(9) 0.23246(9) 0.25650(11)
C21_4 C 0.73246(9) 0.24350(11) 0.34615(9)
C22_4 C 0.74350(11) 0.15385(9) 0.26754(9)
C26_4 C 0.23323(9) 0.31161(9) 0.32407(9)
C27_4 C 0.31161(9) 0.32407(9) 0.23323(9)
C30_4 C 0.42593(9) 0.06161(9) 0.01677(9)
C31_4 C 0.67593(9) 0.26677(9) 0.31161(9)
C32_4 C 0.76677(9) 0.18839(9) 0.32407(9)
C33_4 C 0.68839(9) 0.17593(9) 0.23323(9)
C36_4 C 0.57407(9) 0.43839(9) 0.01677(9)
H2_4 H 0.3263 0.3468 0.1941
H3_4 H 0.1941 0.3263 0.3468
H5_4 H 0.4032 0.0763 0.0559
H7_4 H 0.6532 0.3059 0.3263
H8_4 H 0.6737 0.1532 0.1941
H9_4 H 0.8059 0.1737 0.3468
H11_4 H 0.5968 0.4237 0.0559
O29_4 O 0.48556(8) 0.55906(8) 0.81528(8)
C13_4 C 0.47038(10) 0.50805(11) 0.84339(10)
C17_4 C 0.48246(9) 0.09615(9) 0.99350(11)
C18_4 C 0.49350(11) 0.01754(9) 0.90385(9)
C19_4 C 0.40385(9) 0.00650(11) 0.98246(9)
C23_4 C 0.51754(9) 0.40385(9) 0.99350(11)
C24_4 C 0.50650(11) 0.48246(9) 0.90385(9)
C25_4 C 0.59615(9) 0.49350(11) 0.98246(9)
C28_4 C 0.51677(9) 0.07407(9) 0.93839(9)
C34_4 C 0.48323(9) 0.42593(9) 0.93839(9)
C35_4 C 0.56161(9) 0.51677(9) 0.92593(9)
H4_4 H 0.5559 0.0968 0.9237
H10_4 H 0.4441 0.4032 0.9237
H12_4 H 0.5763 0.5559 0.9032
O24_4 O 0.31528(8) 0.98556(8) 0.05906(8)
C8_4 C 0.34339(10) 0.97038(10) 0.00805(11)
O23_4 O 0.51444(8) 0.94094(8) 0.81528(8)
C7_4 C 0.52962(10) 0.99195(11) 0.84339(10)
C29_4 C 0.43839(9) 0.98323(9) 0.92593(9)
H6_4 H 0.4237 0.9441 0.9032
loop_
_geom_bond_atom_site_label_1
_geom_bond_atom_site_label_2
_geom_bond_site_symmetry_1
_geom_bond_site_symmetry_2
Ga4 O6 1_555 1_555
O6 C7 1_555 1_555
O23 C7 1_555 1_555
H4 C28 1_555 1_555
Ga6 O9 1_555 1_555
Ga7 O10 1_555 1_555
O8 Ga1 1_555 1_555
O9 C10 1_555 1_555
O10 C11 1_555 1_555
O11 Ga1 1_555 1_555
O22 C6 1_555 1_555
O25 C9 1_555 1_555
O26 C10 1_555 1_555
O27 C11 1_555 1_555
C9 O8 1_555 1_555
C10 C21 1_555 1_555
C11 C22 1_555 1_555
C20 C9 1_555 1_555
C21 C31 1_555 1_555
C22 C32 1_555 1_555
C31 C20 1_555 1_555
C32 C21 1_555 1_555
C33 C20 1_555 1_555
H7 C31 1_555 1_555
H8 C33 1_555 1_555
H9 C32 1_555 1_555
H11 C36 1_555 1_555
C22 C33 1_555 1_555
Ga9 O13 1_555 1_555
H12 C35 1_555 1_555
O30 C14 1_555 1_555
Ga5 O7 1_555 1_555
Ga8 O12 1_555 1_555
C19 C29 1_555 1_555
C29 C18 1_555 1_555
H6 C29 1_555 1_555
H10 C34 1_555 1_555
Ga1_2 O1 1_555 1_555
O1 C1 1_555 1_555
O2 C1 1_555 1_555
C1 C2 1_555 1_555
C2 C3 1_555 1_555
C3 H1 1_555 1_555
Ga2 O3 1_555 1_555
Ga3 O4 1_555 1_555
O3 C4 1_555 1_555
O4 C5 1_555 1_555
O5 Ga1_2 1_555 1_555
O14 Ga2 1_555 1_555
O15 Ga2 1_555 1_555
O16 Ga2 1_555 1_555
O17 Ga3 1_555 1_555
O20 C4 1_555 1_555
O21 C5 1_555 1_555
O24 C8 1_555 1_555
O28 C12 1_555 1_555
C4 C15 1_555 1_555
C5 C16 1_555 1_555
C15 C3 1_555 1_555
C16 C26 1_555 1_555
C26 C15 1_555 1_555
C27 C2 1_555 1_555
H2 C27 1_555 1_555
H3 C26 1_555 1_555
H5 C30 1_555 1_555
C16 C27 1_555 1_555
O29 C13 1_555 1_555
O18 Ga3_2 1_555 1_555
O19 Ga3_2 1_555 1_555
Ga6 O13_2 1_555 1_555
O13_2 C14_2 1_555 1_555
O18_2 Ga8 1_555 1_555
O29_2 C13_2 1_555 1_555
O30_2 C14_2 1_555 1_555
H12_2 C35_2 1_555 1_555
Ga1_3 O1_2 1_555 1_555
O1_2 C1_2 1_555 1_555
O2_2 C1_2 1_555 1_555
C1_2 C2_2 1_555 1_555
C2_2 C3_2 1_555 1_555
C3_2 H1_2 1_555 1_555
Ga5 O3_2 1_555 1_555
Ga8_2 O4_2 1_555 1_555
Ga7 O6_2 1_555 1_555
Ga9 O9_2 1_555 1_555
Ga4 O10_2 1_555 1_555
O3_2 C4_2 1_555 1_555
O4_2 C5_2 1_555 1_555
O5_2 Ga1_3 1_555 1_555
O6_2 C7_2 1_555 1_555
O14 C8_2 1_555 1_555
O8_2 Ga1_3 1_555 1_555
O9_2 C10_2 1_555 1_555
O10_2 C11_2 1_555 1_555
O11_2 Ga1_3 1_555 1_555
O17_2 Ga8_2 1_555 1_555
O20_2 C4_2 1_555 1_555
O21_2 C5_2 1_555 1_555
O22_2 C6_2 1_555 1_555
O23_2 C7_2 1_555 1_555
O24_2 C8_2 1_555 1_555
O25_2 C9_2 1_555 1_555
O26_2 C10_2 1_555 1_555
O27_2 C11_2 1_555 1_555
O28_2 C12_2 1_555 1_555
C4_2 C15_2 1_555 1_555
C5_2 C16_2 1_555 1_555
C6_2 O5_2 1_555 1_555
C7_2 C18_2 1_555 1_555
C8_2 C19_2 1_555 1_555
C9_2 O8_2 1_555 1_555
C10_2 C21_2 1_555 1_555
C11_2 C22_2 1_555 1_555
C12_2 O11_2 1_555 1_555
C15_2 C3_2 1_555 1_555
C16_2 C26_2 1_555 1_555
C17_2 C6_2 1_555 1_555
C18_2 C28_2 1_555 1_555
C19_2 C29_2 1_555 1_555
C20_2 C9_2 1_555 1_555
C21_2 C31_2 1_555 1_555
C22_2 C32_2 1_555 1_555
C23_2 C12_2 1_555 1_555
C24_2 C34_2 1_555 1_555
C26_2 C15_2 1_555 1_555
C27_2 C2_2 1_555 1_555
C28_2 C17_2 1_555 1_555
C29_2 C18_2 1_555 1_555
C30_2 C17_2 1_555 1_555
C31_2 C20_2 1_555 1_555
C32_2 C21_2 1_555 1_555
C33_2 C20_2 1_555 1_555
C34_2 C23_2 1_555 1_555
C36_2 C23_2 1_555 1_555
H2_2 C27_2 1_555 1_555
H3_2 C26_2 1_555 1_555
H4_2 C28_2 1_555 1_555
H5_2 C30_2 1_555 1_555
H6_2 C29_2 1_555 1_555
H7_2 C31_2 1_555 1_555
H8_2 C33_2 1_555 1_555
H9_2 C32_2 1_555 1_555
H10_2 C34_2 1_555 1_555
H11_2 C36_2 1_555 1_555
C16_2 C27_2 1_555 1_555
C19_2 C30_2 1_555 1_555
C22_2 C33_2 1_555 1_555
C25_2 C36_2 1_555 1_555
O15_2 Ga5_2 1_555 1_555
O16_2 Ga5_2 1_555 1_555
Ga6 O7_2 1_555 1_555
O7_2 C8_3 1_555 1_555
O24_3 C8_3 1_555 1_555
H6_3 C29_3 1_555 1_555
Ga1_4 O1_3 1_555 1_555
O1_3 C1_3 1_555 1_555
O2_3 C1_3 1_555 1_555
C1_3 C2_3 1_555 1_555
C2_3 C3_3 1_555 1_555
C3_3 H1_3 1_555 1_555
Ga9_2 O3_3 1_555 1_555
Ga7 O4_3 1_555 1_555
Ga4 O12_2 1_555 1_555
O3_3 C4_3 1_555 1_555
O4_3 C5_3 1_555 1_555
O5_3 Ga1_4 1_555 1_555
O12_2 C13_3 1_555 1_555
O14_2 Ga9_2 1_555 1_555
O19_2 Ga7 1_555 1_555
O20_3 C4_3 1_555 1_555
O21_3 C5_3 1_555 1_555
O28_3 C12_3 1_555 1_555
O29_3 C13_3 1_555 1_555
C4_3 C15_3 1_555 1_555
C5_3 C16_3 1_555 1_555
C15_3 C3_3 1_555 1_555
C16_3 C26_3 1_555 1_555
C26_3 C15_3 1_555 1_555
C27_3 C2_3 1_555 1_555
C30_3 C17_3 1_555 1_555
H2_3 C27_3 1_555 1_555
H3_3 C26_3 1_555 1_555
H5_3 C30_3 1_555 1_555
H10_3 C34_3 1_555 1_555
C16_3 C27_3 1_555 1_555
C19_3 C30_3 1_555 1_555
O23_3 C7_3 1_555 1_555
O8_3 Ga1_5 1_555 1_555
O15_2 C10_3 1_555 1_555
O18 C11_3 1_555 1_555
O11_3 Ga1_5 1_555 1_555
O16 C14_3 1_555 1_555
O22_3 C6_3 1_555 1_555
O25_3 C9_3 1_555 1_555
O26_3 C10_3 1_555 1_555
O27_3 C11_3 1_555 1_555
O30_3 C14_3 1_555 1_555
C9_3 O8_3 1_555 1_555
C10_3 C21_3 1_555 1_555
C11_3 C22_3 1_555 1_555
C14_3 C25_3 1_555 1_555
C20_3 C9_3 1_555 1_555
C21_3 C31_3 1_555 1_555
C22_3 C32_3 1_555 1_555
C25_3 C35_3 1_555 1_555
C31_3 C20_3 1_555 1_555
C32_3 C21_3 1_555 1_555
C33_3 C20_3 1_555 1_555
C35_3 C24_3 1_555 1_555
C36_3 C23_3 1_555 1_555
H4_3 C28_3 1_555 1_555
H7_3 C31_3 1_555 1_555
H8_3 C33_3 1_555 1_555
H9_3 C32_3 1_555 1_555
H11_3 C36_3 1_555 1_555
H12_3 C35_3 1_555 1_555
C22_3 C33_3 1_555 1_555
C25_3 C36_3 1_555 1_555
Ga1_6 O1_4 1_555 1_555
O1_4 C1_4 1_555 1_555
O2_4 C1_4 1_555 1_555
C1_4 C2_4 1_555 1_555
C2_4 C3_4 1_555 1_555
C3_4 H1_4 1_555 1_555
Ga6 O3_4 1_555 1_555
Ga4 O4_4 1_555 1_555
O3_4 C4_4 1_555 1_555
O4_4 C5_4 1_555 1_555
O5_4 Ga1_6 1_555 1_555
O8_4 Ga1_6 1_555 1_555
O15 C10_4 1_555 1_555
O18_2 C11_4 1_555 1_555
O11_4 Ga1_6 1_555 1_555
O20_4 C4_4 1_555 1_555
O21_4 C5_4 1_555 1_555
O22_4 C6_4 1_555 1_555
O25_4 C9_4 1_555 1_555
O26_4 C10_4 1_555 1_555
O27_4 C11_4 1_555 1_555
O28_4 C12_4 1_555 1_555
O30_4 C14_4 1_555 1_555
C4_4 C15_4 1_555 1_555
C5_4 C16_4 1_555 1_555
C6_4 O5_4 1_555 1_555
C9_4 O8_4 1_555 1_555
C10_4 C21_4 1_555 1_555
C11_4 C22_4 1_555 1_555
C12_4 O11_4 1_555 1_555
C15_4 C3_4 1_555 1_555
C16_4 C26_4 1_555 1_555
C20_4 C9_4 1_555 1_555
C21_4 C31_4 1_555 1_555
C22_4 C32_4 1_555 1_555
C26_4 C15_4 1_555 1_555
C27_4 C2_4 1_555 1_555
C31_4 C20_4 1_555 1_555
C32_4 C21_4 1_555 1_555
C33_4 C20_4 1_555 1_555
H2_4 C27_4 1_555 1_555
H3_4 C26_4 1_555 1_555
H5_4 C30_4 1_555 1_555
H7_4 C31_4 1_555 1_555
H8_4 C33_4 1_555 1_555
H9_4 C32_4 1_555 1_555
H11_4 C36_4 1_555 1_555
C16_4 C27_4 1_555 1_555
C22_4 C33_4 1_555 1_555
O19_2 C13_4 1_555 1_555
O29_4 C13_4 1_555 1_555
C13_4 C24_4 1_555 1_555
C18_4 C28_4 1_555 1_555
C24_4 C34_4 1_555 1_555
C25_4 C35_4 1_555 1_555
C28_4 C17_4 1_555 1_555
C34_4 C23_4 1_555 1_555
C35_4 C24_4 1_555 1_555
H4_4 C28_4 1_555 1_555
H10_4 C34_4 1_555 1_555
H12_4 C35_4 1_555 1_555
O24_4 C8_4 1_555 1_555
O23_4 C7_4 1_555 1_555
H6_4 C29_4 1_555 1_555

#END
