
###############################################################################
#
# This file contains modified crystal structure data generated from the
# MOF subset of the Cambridge Structural Database (CSD) v543 
# hosted by the Cambridge Crystallographic Data Centre (CCDC).
#
# This work is licensed under the Creative Commons
# Attribution-NonCommercial-ShareAlike 4.0 International License.
# To view a copy of this license, visit
# http://creativecommons.org/licenses/by-nc-sa/4.0/
# or send a letter to
# Creative Commons, PO Box 1866, Mountain View, CA 94042, USA.
#
# CIF created using the CSD Python API on 29 September 2022
# The structure has been converted into the P1 space group
# The structure has a 3D framework
# The original CSD entry ENECIM is in the monoclinic crystal system
# The framework has been calculated to contain at least 10.0% void space
# The void calculation uses a probe of radius 1.32A, grid spacing 0.4
# The framework is charged, counterions have been retained in the structure
#
###############################################################################

data_ENECIM
_chemical_formula_moiety         '(C136 H100 N4 O32 Zn4)n'
_symmetry_cell_setting           triclinic
_symmetry_space_group_name_H-M   'P 1'
_symmetry_Int_Tables_number      1
_space_group_name_Hall           'P 1'
loop_
_symmetry_equiv_pos_site_id
_symmetry_equiv_pos_as_xyz
1 x,y,z
_cell_length_a                   9.4860(17)
_cell_length_b                   22.0840(7)
_cell_length_c                   16.3990(7)
_cell_angle_alpha                90
_cell_angle_beta                 91.716(5)
_cell_angle_gamma                90
_cell_volume                     3433.87
loop_
_atom_site_label
_atom_site_type_symbol
_atom_site_fract_x
_atom_site_fract_y
_atom_site_fract_z
C3 C 0.0888(3) 0.44890(12) 0.01405(18)
C4 C 0.1759(3) 0.39711(13) 0.0309(2)
C5 C 0.1783(4) 0.37029(14) 0.1055(2)
H2 H 0.238052 0.336466 0.115801
C6 C 0.0919(4) 0.39253(14) 0.1683(2)
H3 H 0.093388 0.372903 0.219848
C7 C 0.0071(3) 0.44152(14) 0.15549(19)
C8 C 0.0023(3) 0.47154(12) 0.07761(18)
O14 O 0.0070(3) 0.70580(14) 0.27612(18)
O15 O 0.1739(2) 0.82404(10) 0.67106(14)
C51 C 0.0193(3) 0.69044(12) 0.48537(19)
C52 C 0.0401(4) 0.62615(13) 0.4783(2)
H27 H 0.020892 0.606582 0.427600
C53 C 0.0872(4) 0.59313(13) 0.5437(2)
H28 H 0.102372 0.550839 0.538036
C54 C 0.1136(4) 0.62149(15) 0.6205(2)
H29 H 0.146318 0.597841 0.665573
C55 C 0.0929(3) 0.68216(14) 0.63031(19)
H30 H 0.109782 0.700191 0.682281
C56 C 0.0458(3) 0.71878(12) 0.56288(19)
C57 C 0.0252(3) 0.78153(12) 0.57058(19)
C64 C 0.0482(3) 0.81242(12) 0.65195(19)
Zn3 Zn 0.24958(3) 0.88534(2) 0.74894(2)
O1 O 0.4016(2) 0.91870(10) 0.68177(13)
O2 O 0.2027(3) 0.96070(10) 0.63404(15)
C1 C 0.3312(3) 0.95170(13) 0.63056(19)
C2 C 0.4162(3) 0.97766(12) 0.56258(18)
C3_2 C 0.4112(3) 0.94890(12) 0.48595(18)
C4_2 C 0.3241(3) 0.89711(13) 0.4691(2)
H1 H 0.267125 0.881281 0.510782
C5_2 C 0.3217(4) 0.87029(14) 0.3945(2)
H2_2 H 0.261948 0.836466 0.384199
C6_2 C 0.4081(4) 0.89253(14) 0.3317(2)
H3_2 H 0.406612 0.872903 0.280152
C7_2 C 0.4929(3) 0.94152(14) 0.34451(19)
H4 H 0.549378 0.955975 0.301755
C8_2 C 0.4977(3) 0.97154(12) 0.42239(18)
O3 O 0.1070(2) 0.92603(9) 0.81544(13)
O4 O 0.3006(3) 0.97263(11) 0.86310(16)
C9 C 0.1749(3) 0.96026(13) 0.86751(18)
C10 C 0.0874(3) 0.98193(12) 0.93658(18)
H5 H 0.242502 0.885747 0.981421
O5 O 0.3289(2) 0.83556(10) 0.83860(13)
O6 O 0.5070(3) 0.79420(14) 0.77612(18)
H9 H 0.488(6) 0.792(2) 0.7242(9)
C17 C 0.4387(3) 0.80411(13) 0.83716(19)
C18 C 0.4760(3) 0.77412(12) 0.91778(18)
C19 C 0.5193(3) 0.80956(12) 0.98537(19)
C20 C 0.5401(4) 0.87385(13) 0.9783(2)
H10 H 0.520892 0.893418 0.927600
C28 C 0.4111(4) 0.58559(14) 0.9458(2)
H15 H 0.395044 0.543396 0.951964
C29 C 0.3835(4) 0.61378(15) 0.8693(2)
H16 H 0.347834 0.590254 0.824770
C30 C 0.4074(3) 0.67396(14) 0.8585(2)
H17 H 0.390432 0.691655 0.806335
C31 C 0.4582(3) 0.71119(12) 0.92537(18)
H8 H 0.948393 0.945980 0.192619
Zn1 Zn 0.25042(3) 0.38534(2) 0.75106(2)
O1_2 O 0.0984(2) 0.41870(10) 0.81823(13)
O2_2 O 0.2973(3) 0.46070(10) 0.86596(15)
C1_2 C 0.1688(3) 0.45170(13) 0.86944(19)
C2_2 C 0.0838(3) 0.47766(12) 0.93742(18)
H1_2 H 0.232875 0.381281 0.989218
O3_2 O 0.3930(2) 0.42603(9) 0.68456(13)
O4_2 O 0.1994(3) 0.47263(11) 0.63690(16)
C9_2 C 0.3251(3) 0.46026(13) 0.63249(18)
C10_2 C 0.4126(3) 0.48193(12) 0.56342(18)
C11 C 0.4083(3) 0.44964(12) 0.48944(19)
C12 C 0.3167(4) 0.39869(14) 0.4762(2)
H5_2 H 0.257498 0.385747 0.518579
C13 C 0.3136(4) 0.36862(14) 0.4036(2)
H6 H 0.251364 0.335311 0.395666
C14 C 0.4026(4) 0.38652(14) 0.3394(2)
H7 H 0.399850 0.365070 0.289198
C15 C 0.4919(4) 0.43456(14) 0.3503(2)
H8_2 H 0.551607 0.445980 0.307381
C16 C 0.4971(3) 0.46808(13) 0.42520(18)
O5_2 O 0.1711(2) 0.33556(10) 0.66140(13)
H9_2 H 0.012(6) 0.292(2) 0.7758(9)
O8 O 0.0582(3) 0.17364(12) 0.30930(17)
C17_2 C 0.0613(3) 0.30411(13) 0.66284(19)
C18_2 C 0.0240(3) 0.27412(12) 0.58222(18)
C26 C 0.0171(3) 0.18294(12) 0.49696(19)
C27 C 0.0396(4) 0.11886(13) 0.4896(2)
H14 H 0.019707 0.099417 0.438884
C28_2 C 0.0889(4) 0.08559(14) 0.5542(2)
H15_2 H 0.104956 0.043396 0.548036
C29_2 C 0.1165(4) 0.11378(15) 0.6307(2)
H16_2 H 0.152166 0.090254 0.675230
C30_2 C 0.0926(3) 0.17396(14) 0.6415(2)
H17_2 H 0.109568 0.191655 0.693665
C31_2 C 0.0418(3) 0.21119(12) 0.57463(18)
H21 H 0.049378 0.544025 0.801755
O11 O 0.6070(2) 0.57397(9) 0.31544(13)
O12 O 0.8006(3) 0.52737(11) 0.36310(16)
C41 C 0.6749(3) 0.53974(13) 0.36751(18)
C42 C 0.5874(3) 0.51807(12) 0.43658(18)
C43 C 0.5917(3) 0.55036(12) 0.51056(19)
C44 C 0.6833(4) 0.60131(14) 0.5238(2)
H22 H 0.742502 0.614253 0.481421
C45 C 0.6864(4) 0.63138(14) 0.5964(2)
H23 H 0.748636 0.664689 0.604334
C46 C 0.5974(4) 0.61348(14) 0.6606(2)
H24 H 0.600150 0.634930 0.710802
C47 C 0.5081(4) 0.56544(14) 0.6497(2)
H25 H 0.448393 0.554020 0.692619
C48 C 0.5029(3) 0.53192(13) 0.57480(18)
Zn4 Zn 0.74958(3) 0.61466(2) 0.24894(2)
O19 O 0.3261(2) 0.32404(10) 0.82894(14)
H4_2 H 0.950622 0.455975 0.198245
O9 O 0.9016(2) 0.58130(10) 0.18177(13)
O10 O 0.7027(3) 0.53930(10) 0.13404(15)
C33 C 0.8312(3) 0.54830(13) 0.13056(19)
C34 C 0.9162(3) 0.52234(12) 0.06258(18)
H18 H 0.767125 0.618719 0.010782
O13 O 0.8289(2) 0.66444(10) 0.33860(13)
H26 H 0.988(6) 0.708(2) 0.2242(9)
O16 O 0.9418(3) 0.82636(12) 0.69070(17)
C49 C 0.9387(3) 0.69589(13) 0.33716(19)
C50 C 0.9760(3) 0.72588(12) 0.41778(18)
C58 C 0.9829(3) 0.81706(12) 0.50304(19)
C59 C 0.9604(4) 0.88114(13) 0.5104(2)
H31 H 0.980293 0.900583 0.561116
C60 C 0.9111(4) 0.91441(14) 0.4458(2)
H32 H 0.895044 0.956604 0.451964
C61 C 0.8835(4) 0.88622(15) 0.3693(2)
H33 H 0.847834 0.909746 0.324770
C62 C 0.9074(3) 0.82604(14) 0.3585(2)
H34 H 0.890432 0.808345 0.306335
C63 C 0.9582(3) 0.78881(12) 0.42537(18)
O18 O 0.6739(2) 0.67596(10) 0.17106(14)
O16_2 O 0.5582(3) 0.32636(12) 0.80930(17)
C53_2 C 0.4128(4) 0.09313(13) 0.9563(2)
H28_2 H 0.397628 0.050839 0.961964
C54_2 C 0.3864(4) 0.12149(15) 0.8795(2)
H29_2 H 0.353682 0.097841 0.834427
C55_2 C 0.4071(3) 0.18216(14) 0.86969(19)
H30_2 H 0.390218 0.200191 0.817719
C56_2 C 0.4542(3) 0.21878(12) 0.93712(19)
C57_2 C 0.4748(3) 0.28153(12) 0.92942(19)
C58_2 C 0.5171(3) 0.31706(12) 0.99696(19)
C59_2 C 0.5396(4) 0.38114(13) 0.9896(2)
H31_2 H 0.519707 0.400583 0.938884
C64_2 C 0.4518(3) 0.31242(12) 0.84805(19)
C11_2 C 0.0917(3) 0.94964(12) 0.01056(19)
C12_2 C 0.1833(4) 0.89869(14) 0.0238(2)
C13_2 C 0.1864(4) 0.86862(14) 0.0964(2)
H6_2 H 0.248636 0.835311 0.104334
C14_2 C 0.0974(4) 0.88652(14) 0.1606(2)
H7_2 H 0.100150 0.865070 0.210802
C15_2 C 0.0081(4) 0.93456(14) 0.1497(2)
C16_2 C 0.0029(3) 0.96808(13) 0.07480(18)
O8_2 O 0.4418(3) 0.67364(12) 0.19070(17)
C21 C 0.5872(4) 0.90687(13) 0.0437(2)
H11 H 0.602372 0.949161 0.038036
C22 C 0.6136(4) 0.87851(15) 0.1205(2)
H12 H 0.646318 0.902159 0.165573
C23 C 0.5929(3) 0.81784(14) 0.13031(19)
H13 H 0.609782 0.799809 0.182281
C24 C 0.5458(3) 0.78122(12) 0.06288(19)
C25 C 0.5252(3) 0.71847(12) 0.07058(19)
C26_2 C 0.4829(3) 0.68294(12) 0.00304(19)
C27_2 C 0.4604(4) 0.61886(13) 0.0104(2)
H14_2 H 0.480293 0.599417 0.061116
C32 C 0.5482(3) 0.68758(12) 0.15195(19)
C43_2 C 0.9083(3) 0.05036(12) 0.98944(19)
C44_2 C 0.8167(4) 0.10131(14) 0.9762(2)
C45_2 C 0.8136(4) 0.13138(14) 0.9036(2)
H23_2 H 0.751364 0.164689 0.895666
C46_2 C 0.9026(4) 0.11348(14) 0.8394(2)
H24_2 H 0.899850 0.134930 0.789198
C47_2 C 0.9919(4) 0.06544(14) 0.8503(2)
C48_2 C 0.9971(3) 0.03192(13) 0.92520(18)
O6_2 O 0.9930(3) 0.29420(14) 0.72388(18)
O7 O 0.8261(2) 0.17596(10) 0.32894(14)
C19_2 C 0.9807(3) 0.30956(12) 0.51463(19)
C20_2 C 0.9599(4) 0.37385(13) 0.5217(2)
H10_2 H 0.979108 0.393418 0.572400
C21_2 C 0.9128(4) 0.40687(13) 0.4563(2)
H11_2 H 0.897628 0.449161 0.461964
C22_2 C 0.8864(4) 0.37851(15) 0.3795(2)
H12_2 H 0.853682 0.402159 0.334427
C23_2 C 0.9071(3) 0.31784(14) 0.36969(19)
H13_2 H 0.890218 0.299809 0.317719
C24_2 C 0.9542(3) 0.28122(12) 0.43712(19)
C25_2 C 0.9748(3) 0.21847(12) 0.42942(19)
C32_2 C 0.9518(3) 0.18758(12) 0.34805(19)
C35 C 0.9112(3) 0.55110(12) 0.98595(18)
C36 C 0.8241(3) 0.60289(13) 0.9691(2)
C37 C 0.8217(4) 0.62971(14) 0.8945(2)
H19 H 0.761948 0.663534 0.884199
C38 C 0.9081(4) 0.60747(14) 0.8317(2)
H20 H 0.906612 0.627097 0.780152
C39 C 0.9929(3) 0.55848(14) 0.84451(19)
C40 C 0.9977(3) 0.52846(12) 0.92239(18)
Zn5 Zn 0.75042(3) 0.11466(2) 0.25106(2)
O9_2 O 0.5984(2) 0.08130(10) 0.31823(13)
O10_2 O 0.7973(3) 0.03930(10) 0.36596(15)
C33_2 C 0.6688(3) 0.04830(13) 0.36944(19)
C34_2 C 0.5838(3) 0.02234(12) 0.43742(18)
C35_2 C 0.5888(3) 0.05110(12) 0.51405(18)
C36_2 C 0.6759(3) 0.10289(13) 0.5309(2)
H18_2 H 0.732875 0.118719 0.489218
C37_2 C 0.6783(4) 0.12971(14) 0.6055(2)
H19_2 H 0.738052 0.163534 0.615801
C38_2 C 0.5919(4) 0.10747(14) 0.6683(2)
H20_2 H 0.593388 0.127097 0.719848
C39_2 C 0.5071(3) 0.05848(14) 0.65549(19)
H21_2 H 0.450622 0.044025 0.698245
C40_2 C 0.5023(3) 0.02846(12) 0.57761(18)
H25_2 H 0.051607 0.054020 0.807381
O13_2 O 0.6711(2) 0.16444(10) 0.16140(13)
O14_2 O 0.4930(3) 0.20580(14) 0.22388(18)
H26_2 H 0.512(6) 0.208(2) 0.2758(9)
C49_2 C 0.5613(3) 0.19589(13) 0.16284(19)
C50_2 C 0.5240(3) 0.22588(12) 0.08222(18)
C51_2 C 0.4807(3) 0.19044(12) 0.01463(19)
C52_2 C 0.4599(4) 0.12615(13) 0.0217(2)
H27_2 H 0.479108 0.106582 0.072400
C60_2 C 0.5889(4) 0.41441(14) 0.0542(2)
H32_2 H 0.604956 0.456604 0.048036
C61_2 C 0.6165(4) 0.38622(15) 0.1307(2)
H33_2 H 0.652166 0.409746 0.175230
C62_2 C 0.5926(3) 0.32604(14) 0.1415(2)
H34_2 H 0.609568 0.308345 0.193665
C63_2 C 0.5418(3) 0.28881(12) 0.07463(18)
O17 O 0.8930(2) 0.07397(9) 0.18456(13)
O12_2 O 0.6994(3) 0.02737(11) 0.13690(16)
C41_2 C 0.8251(3) 0.03974(13) 0.13249(18)
C42_2 C 0.9126(3) 0.01807(12) 0.06342(18)
H22_2 H 0.757498 0.114253 0.018579
N1 N 0.6547(4) 0.43899(14) 0.7574(2)
H35 H 0.578839 0.444667 0.722934
H36 H 0.646998 0.401430 0.779605
C65 C 0.6501(5) 0.48376(18) 0.8224(3)
H37 H 0.560807 0.480048 0.850561
H38 H 0.657534 0.524471 0.799165
H39 H 0.728874 0.476898 0.861371
C66 C 0.7831(5) 0.4411(2) 0.7099(3)
H40 H 0.781787 0.407915 0.670288
H41 H 0.865882 0.437059 0.746703
H42 H 0.787512 0.479909 0.681000
H38_2 H 0.842466 0.024471 0.700835
N1_2 N 0.8453(4) 0.93899(14) 0.7426(2)
H35_2 H 0.921161 0.944667 0.777066
H36_2 H 0.853002 0.901430 0.720395
C65_2 C 0.8499(5) 0.98376(18) 0.6776(3)
H37_2 H 0.939193 0.980048 0.649439
H39_2 H 0.771126 0.976898 0.638629
C66_2 C 0.7169(5) 0.9411(2) 0.7901(3)
H40_2 H 0.718213 0.907915 0.829712
H41_2 H 0.634118 0.937059 0.753297
H42_2 H 0.712488 0.979909 0.819000
N1_3 N 0.3453(4) 0.56101(14) 0.2426(2)
H35_3 H 0.421161 0.555333 0.277066
H36_3 H 0.353002 0.598570 0.220395
C65_3 C 0.3499(5) 0.51624(18) 0.1776(3)
H37_3 H 0.439193 0.519952 0.149439
H38_3 H 0.342466 0.475529 0.200835
H39_3 H 0.271126 0.523102 0.138629
C66_3 C 0.2169(5) 0.5589(2) 0.2901(3)
H40_3 H 0.218213 0.592085 0.329712
H41_3 H 0.134118 0.562941 0.253297
H42_3 H 0.212488 0.520091 0.319000
N1_4 N 0.1547(4) 0.06101(14) 0.2574(2)
H35_4 H 0.078839 0.055333 0.222934
H36_4 H 0.146998 0.098570 0.279605
C65_4 C 0.1501(5) 0.01624(18) 0.3224(3)
H37_4 H 0.060807 0.019952 0.350561
H39_4 H 0.228874 0.023102 0.361371
C66_4 C 0.2831(5) 0.0589(2) 0.2099(3)
H40_4 H 0.281787 0.092085 0.170288
H41_4 H 0.365882 0.062941 0.246703
H42_4 H 0.287512 0.020091 0.181000
H38_4 H 0.157534 0.975529 0.299165
loop_
_geom_bond_atom_site_label_1
_geom_bond_atom_site_label_2
_geom_bond_site_symmetry_1
_geom_bond_site_symmetry_2
C4 C3 1_555 1_555
C5 C4 1_555 1_555
H2 C5 1_555 1_555
C6 C5 1_555 1_555
H3 C6 1_555 1_555
C7 C6 1_555 1_555
C8 C3 1_555 1_555
O15 C64 1_555 1_555
C52 C51 1_555 1_555
H27 C52 1_555 1_555
C53 C52 1_555 1_555
H28 C53 1_555 1_555
C54 C53 1_555 1_555
H29 C54 1_555 1_555
C55 C54 1_555 1_555
H30 C55 1_555 1_555
C56 C51 1_555 1_555
C57 C56 1_555 1_555
C64 C57 1_555 1_555
Zn3 O15 1_555 1_555
C7 C8 1_555 1_555
C55 C56 1_555 1_555
Zn3 O1 1_555 1_555
O1 C1 1_555 1_555
O2 Zn3 1_555 1_555
C1 O2 1_555 1_555
C2 C1 1_555 1_555
C3_2 C2 1_555 1_555
C4_2 C3_2 1_555 1_555
H1 C4_2 1_555 1_555
C5_2 C4_2 1_555 1_555
H2_2 C5_2 1_555 1_555
C6_2 C5_2 1_555 1_555
H3_2 C6_2 1_555 1_555
C7_2 C6_2 1_555 1_555
H4 C7_2 1_555 1_555
C8_2 C3_2 1_555 1_555
O3 Zn3 1_555 1_555
O4 C9 1_555 1_555
C9 O3 1_555 1_555
C10 C9 1_555 1_555
O5 Zn3 1_555 1_555
O6 H9 1_555 1_555
C17 O5 1_555 1_555
C18 C17 1_555 1_555
C19 C18 1_555 1_555
C20 C19 1_555 1_555
H10 C20 1_555 1_555
H15 C28 1_555 1_555
C29 C28 1_555 1_555
H16 C29 1_555 1_555
C30 C29 1_555 1_555
H17 C30 1_555 1_555
C31 C18 1_555 1_555
C7_2 C8_2 1_555 1_555
O6 C17 1_555 1_555
C30 C31 1_555 1_555
Zn1 O1_2 1_555 1_555
O1_2 C1_2 1_555 1_555
O2_2 Zn1 1_555 1_555
C1_2 O2_2 1_555 1_555
C2_2 C1_2 1_555 1_555
O3_2 Zn1 1_555 1_555
O4_2 C9_2 1_555 1_555
C9_2 O3_2 1_555 1_555
C10_2 C9_2 1_555 1_555
C11 C10_2 1_555 1_555
C12 C11 1_555 1_555
H5_2 C12 1_555 1_555
C13 C12 1_555 1_555
H6 C13 1_555 1_555
C14 C13 1_555 1_555
H7 C14 1_555 1_555
C15 C14 1_555 1_555
H8_2 C15 1_555 1_555
C16 C11 1_555 1_555
O5_2 Zn1 1_555 1_555
C17_2 O5_2 1_555 1_555
C18_2 C17_2 1_555 1_555
C27 C26 1_555 1_555
H14 C27 1_555 1_555
C28_2 C27 1_555 1_555
H15_2 C28_2 1_555 1_555
C29_2 C28_2 1_555 1_555
H16_2 C29_2 1_555 1_555
C30_2 C29_2 1_555 1_555
H17_2 C30_2 1_555 1_555
C31_2 C18_2 1_555 1_555
O11 C41 1_555 1_555
O12 C41 1_555 1_555
C41 C42 1_555 1_555
C42 C16 1_555 1_555
C43 C42 1_555 1_555
C44 C43 1_555 1_555
H22 C44 1_555 1_555
C45 C44 1_555 1_555
H23 C45 1_555 1_555
C46 C45 1_555 1_555
H24 C46 1_555 1_555
C47 C46 1_555 1_555
H25 C47 1_555 1_555
C48 C10_2 1_555 1_555
Zn4 O11 1_555 1_555
O19 Zn1 1_555 1_555
C15 C16 1_555 1_555
C26 C31_2 1_555 1_555
C30_2 C31_2 1_555 1_555
C43 C48 1_555 1_555
C47 C48 1_555 1_555
O9 C33 1_555 1_555
O10 C33 1_555 1_555
C33 C34 1_555 1_555
Zn4 O9 1_555 1_555
O13 Zn4 1_555 1_555
C49 O13 1_555 1_555
C50 C49 1_555 1_555
C59 C58 1_555 1_555
H31 C59 1_555 1_555
C60 C59 1_555 1_555
H32 C60 1_555 1_555
C61 C60 1_555 1_555
H33 C61 1_555 1_555
C62 C61 1_555 1_555
H34 C62 1_555 1_555
C63 C50 1_555 1_555
O18 Zn4 1_555 1_555
O10 Zn4 1_555 1_555
C58 C63 1_555 1_555
C62 C63 1_555 1_555
O19 C64_2 1_555 1_555
O16_2 C64_2 1_555 1_555
H28_2 C53_2 1_555 1_555
C54_2 C53_2 1_555 1_555
H29_2 C54_2 1_555 1_555
C55_2 C54_2 1_555 1_555
H30_2 C55_2 1_555 1_555
C57_2 C56_2 1_555 1_555
C58_2 C57_2 1_555 1_555
C59_2 C58_2 1_555 1_555
H31_2 C59_2 1_555 1_555
C64_2 C57_2 1_555 1_555
C55_2 C56_2 1_555 1_555
C12_2 C11_2 1_555 1_555
C13_2 C12_2 1_555 1_555
H6_2 C13_2 1_555 1_555
C14_2 C13_2 1_555 1_555
H7_2 C14_2 1_555 1_555
C15_2 C14_2 1_555 1_555
C16_2 C11_2 1_555 1_555
O18 C32 1_555 1_555
O8_2 C32 1_555 1_555
H11 C21 1_555 1_555
C22 C21 1_555 1_555
H12 C22 1_555 1_555
C23 C22 1_555 1_555
H13 C23 1_555 1_555
C25 C24 1_555 1_555
C26_2 C25 1_555 1_555
C27_2 C26_2 1_555 1_555
H14_2 C27_2 1_555 1_555
C32 C25 1_555 1_555
C15_2 C16_2 1_555 1_555
C23 C24 1_555 1_555
C44_2 C43_2 1_555 1_555
C45_2 C44_2 1_555 1_555
H23_2 C45_2 1_555 1_555
C46_2 C45_2 1_555 1_555
H24_2 C46_2 1_555 1_555
C47_2 C46_2 1_555 1_555
C43_2 C48_2 1_555 1_555
C47_2 C48_2 1_555 1_555
O7 C32_2 1_555 1_555
C20_2 C19_2 1_555 1_555
H10_2 C20_2 1_555 1_555
C21_2 C20_2 1_555 1_555
H11_2 C21_2 1_555 1_555
C22_2 C21_2 1_555 1_555
H12_2 C22_2 1_555 1_555
C23_2 C22_2 1_555 1_555
H13_2 C23_2 1_555 1_555
C24_2 C19_2 1_555 1_555
C25_2 C24_2 1_555 1_555
C32_2 C25_2 1_555 1_555
C36 C35 1_555 1_555
C37 C36 1_555 1_555
H19 C37 1_555 1_555
C38 C37 1_555 1_555
H20 C38 1_555 1_555
C39 C38 1_555 1_555
Zn5 O7 1_555 1_555
C23_2 C24_2 1_555 1_555
C35 C40 1_555 1_555
C39 C40 1_555 1_555
O9_2 C33_2 1_555 1_555
O10_2 C33_2 1_555 1_555
C33_2 C34_2 1_555 1_555
C35_2 C34_2 1_555 1_555
C36_2 C35_2 1_555 1_555
H18_2 C36_2 1_555 1_555
C37_2 C36_2 1_555 1_555
H19_2 C37_2 1_555 1_555
C38_2 C37_2 1_555 1_555
H20_2 C38_2 1_555 1_555
C39_2 C38_2 1_555 1_555
H21_2 C39_2 1_555 1_555
Zn5 O9_2 1_555 1_555
O13_2 Zn5 1_555 1_555
O14_2 H26_2 1_555 1_555
C49_2 O13_2 1_555 1_555
C50_2 C49_2 1_555 1_555
C51_2 C50_2 1_555 1_555
C52_2 C51_2 1_555 1_555
H27_2 C52_2 1_555 1_555
H32_2 C60_2 1_555 1_555
C61_2 C60_2 1_555 1_555
H33_2 C61_2 1_555 1_555
C62_2 C61_2 1_555 1_555
H34_2 C62_2 1_555 1_555
C63_2 C50_2 1_555 1_555
O17 Zn5 1_555 1_555
O10_2 Zn5 1_555 1_555
C35_2 C40_2 1_555 1_555
C39_2 C40_2 1_555 1_555
O14_2 C49_2 1_555 1_555
C62_2 C63_2 1_555 1_555
O17 C41_2 1_555 1_555
O12_2 C41_2 1_555 1_555
C41_2 C42_2 1_555 1_555
N1 H35 1_555 1_555
H36 N1 1_555 1_555
C65 N1 1_555 1_555
H37 C65 1_555 1_555
H38 C65 1_555 1_555
H39 C65 1_555 1_555
C66 N1 1_555 1_555
H40 C66 1_555 1_555
H41 C66 1_555 1_555
H42 C66 1_555 1_555
N1_2 H35_2 1_555 1_555
H36_2 N1_2 1_555 1_555
C65_2 N1_2 1_555 1_555
H37_2 C65_2 1_555 1_555
H39_2 C65_2 1_555 1_555
C66_2 N1_2 1_555 1_555
H40_2 C66_2 1_555 1_555
H41_2 C66_2 1_555 1_555
H42_2 C66_2 1_555 1_555
N1_3 H35_3 1_555 1_555
H36_3 N1_3 1_555 1_555
C65_3 N1_3 1_555 1_555
H37_3 C65_3 1_555 1_555
H38_3 C65_3 1_555 1_555
H39_3 C65_3 1_555 1_555
C66_3 N1_3 1_555 1_555
H40_3 C66_3 1_555 1_555
H41_3 C66_3 1_555 1_555
H42_3 C66_3 1_555 1_555
N1_4 H35_4 1_555 1_555
H36_4 N1_4 1_555 1_555
C65_4 N1_4 1_555 1_555
H37_4 C65_4 1_555 1_555
H39_4 C65_4 1_555 1_555
C66_4 N1_4 1_555 1_555
H40_4 C66_4 1_555 1_555
H41_4 C66_4 1_555 1_555
H42_4 C66_4 1_555 1_555

#END
