
###############################################################################
#
# This file contains modified crystal structure data generated from the
# MOF subset of the Cambridge Structural Database (CSD) v543 
# hosted by the Cambridge Crystallographic Data Centre (CCDC).
#
# This work is licensed under the Creative Commons
# Attribution-NonCommercial-ShareAlike 4.0 International License.
# To view a copy of this license, visit
# http://creativecommons.org/licenses/by-nc-sa/4.0/
# or send a letter to
# Creative Commons, PO Box 1866, Mountain View, CA 94042, USA.
#
# CIF created using the CSD Python API on 29 September 2022
# The structure has been converted into the P1 space group
# The structure has a 3D framework
# The original CSD entry ENEQAS is in the monoclinic crystal system
# The framework has been calculated to contain at least 10.0% void space
# The void calculation uses a probe of radius 1.32A, grid spacing 0.4
#
###############################################################################

data_ENEQAS
_chemical_formula_moiety         '(C192 H120 N32 O40 Zn8)n'
_symmetry_cell_setting           triclinic
_symmetry_space_group_name_H-M   'P 1'
_symmetry_Int_Tables_number      1
_space_group_name_Hall           'P 1'
loop_
_symmetry_equiv_pos_site_id
_symmetry_equiv_pos_as_xyz
1 x,y,z
_cell_length_a                   15.9864(4)
_cell_length_b                   18.4636(8)
_cell_length_c                   18.8756(4)
_cell_angle_alpha                90
_cell_angle_beta                 93.991(2)
_cell_angle_gamma                90
_cell_volume                     5557.93
loop_
_atom_site_label
_atom_site_type_symbol
_atom_site_fract_x
_atom_site_fract_y
_atom_site_fract_z
C14 C 0.02482(19) 0.5909(2) 0.41329(19)
H9 H 0.0751 0.5900 0.3913
C15 C 0.0106(2) 0.6440(2) 0.4611(2)
H10 H 0.0514 0.6792 0.4712
C17 C 0.01107(19) 0.4262(2) 0.25196(16)
H12 H 0.0339 0.4151 0.2093
C18 C 0.0234(2) 0.4882(2) 0.28769(17)
H13 H 0.0564 0.5270 0.2751
C1 C 0.6213(2) 0.6441(2) 0.7630(2)
H1 H 0.6558 0.6059 0.7788
C2 C 0.57119(18) 0.7368(2) 0.70621(18)
H2 H 0.5654 0.7753 0.6745
C3 C 0.70982(18) 0.6974(2) 0.67135(17)
C4 C 0.76473(19) 0.6402(2) 0.67110(17)
H3 H 0.7569 0.5996 0.6991
C5 C 0.83224(18) 0.6438(2) 0.62848(17)
H4 H 0.8685 0.6045 0.6268
C6 C 0.84613(19) 0.7043(2) 0.58890(18)
C7 C 0.7923(2) 0.7622(2) 0.5916(2)
H5 H 0.8015 0.8038 0.5655
C8 C 0.7237(2) 0.7584(2) 0.6335(2)
H6 H 0.6876 0.7977 0.6356
C9 C 0.9177(2) 0.7097(2) 0.5416(2)
C10 C 0.93579(17) 0.6465(2) 0.49511(16)
C11 C 0.87755(19) 0.5933(2) 0.47903(18)
H7 H 0.8278 0.5934 0.5018
C12 C 0.89047(18) 0.5401(2) 0.43049(18)
H8 H 0.8496 0.5052 0.4198
C13 C 0.96539(17) 0.5388(2) 0.39737(15)
C16 C 0.94134(17) 0.4187(2) 0.34408(15)
H11 H 0.9069 0.4018 0.3782
C19 C 0.30061(16) 0.80385(18) 0.56354(14)
C20 C 0.21300(17) 0.80240(19) 0.56517(14)
C21 C 0.33582(17) 0.80450(19) 0.49873(14)
H14 H 0.3939 0.8064 0.4978
C22 C 0.35776(18) 0.8032(2) 0.62983(15)
C23 C 0.16773(18) 0.7968(2) 0.63287(15)
C24 C 0.5465(2) 0.6609(2) 0.78680(19)
H15 H 0.5206 0.6363 0.8223
N1 N 0.51491(15) 0.71905(16) 0.75118(14)
N2 N 0.63761(15) 0.69245(17) 0.71191(14)
N3 N 0.97792(14) 0.48356(16) 0.34661(13)
N4 N 0.95955(14) 0.38099(16) 0.28765(12)
O1 O 0.32862(13) 0.77739(15) 0.68551(10)
O2 O 0.43071(12) 0.82558(17) 0.62768(11)
O3 O 0.14444(13) 0.73300(16) 0.64760(11)
O4 O 0.15093(16) 0.85082(17) 0.66608(12)
O5 O 0.95812(19) 0.76436(19) 0.5401(2)
Zn1 Zn 0.413749(18) 0.78048(2) 0.765125(15)
C25 C 0.19939(16) 0.80385(18) 0.43646(14)
C26 C 0.28700(17) 0.80240(19) 0.43483(14)
C27 C 0.16418(17) 0.80450(19) 0.50127(14)
H16 H 0.1061 0.8064 0.5022
C28 C 0.14224(18) 0.8032(2) 0.37017(15)
C29 C 0.33227(18) 0.7968(2) 0.36713(15)
O6 O 0.17138(13) 0.77739(15) 0.31449(10)
O7 O 0.06929(12) 0.82558(17) 0.37232(11)
O8 O 0.35556(13) 0.73300(16) 0.35240(11)
O9 O 0.34907(16) 0.85082(17) 0.33392(12)
Zn2 Zn 0.086251(18) 0.78048(2) 0.234875(15)
N9 N 0.45955(14) 0.88099(16) 0.78765(12)
N10 N 0.04045(14) 0.88099(16) 0.21235(12)
O11 O 0.35556(13) 0.76700(16) 0.85240(11)
O12 O 0.14444(13) 0.76700(16) 0.14760(11)
Zn3 Zn 0.913749(18) 0.28048(2) 0.265125(15)
Zn5 Zn 0.086251(18) 0.71952(2) 0.734875(15)
Zn6 Zn 0.413749(18) 0.71952(2) 0.265125(15)
C30 C 0.8787(2) 0.6441(2) 0.2370(2)
H17 H 0.8442 0.6059 0.2212
C31 C 0.92881(18) 0.7368(2) 0.29379(18)
H18 H 0.9346 0.7753 0.3255
C32 C 0.79018(18) 0.6974(2) 0.32865(17)
C33 C 0.73527(19) 0.6402(2) 0.32890(17)
H19 H 0.7431 0.5996 0.3009
C34 C 0.66776(18) 0.6438(2) 0.37152(17)
H20 H 0.6315 0.6045 0.3732
C35 C 0.65387(19) 0.7043(2) 0.41110(18)
C36 C 0.7077(2) 0.7622(2) 0.4084(2)
H21 H 0.6985 0.8038 0.4345
C37 C 0.7763(2) 0.7584(2) 0.3665(2)
H22 H 0.8124 0.7977 0.3644
C38 C 0.5823(2) 0.7097(2) 0.4584(2)
C39 C 0.56421(17) 0.6465(2) 0.50489(16)
C40 C 0.62245(19) 0.5933(2) 0.52097(18)
H23 H 0.6722 0.5934 0.4982
C41 C 0.60953(18) 0.5401(2) 0.56951(18)
H24 H 0.6504 0.5052 0.5802
C42 C 0.53461(17) 0.5388(2) 0.60263(15)
C43 C 0.47518(19) 0.5909(2) 0.58671(19)
H25 H 0.4249 0.5900 0.6087
C44 C 0.4894(2) 0.6440(2) 0.5389(2)
H26 H 0.4486 0.6792 0.5288
C45 C 0.55866(17) 0.4187(2) 0.65592(15)
H27 H 0.5931 0.4018 0.6218
C46 C 0.48893(19) 0.4262(2) 0.74804(16)
H28 H 0.4661 0.4151 0.7907
C47 C 0.4766(2) 0.4882(2) 0.71231(17)
H29 H 0.4436 0.5270 0.7249
C48 C 0.9535(2) 0.6609(2) 0.21320(19)
H30 H 0.9794 0.6363 0.1777
N5 N 0.98509(15) 0.71905(16) 0.24882(14)
N6 N 0.86239(15) 0.69245(17) 0.28809(14)
N7 N 0.52208(14) 0.48356(16) 0.65339(13)
N8 N 0.54045(14) 0.38099(16) 0.71235(12)
O10 O 0.54188(19) 0.76436(19) 0.4599(2)
Zn4 Zn 0.586251(18) 0.28048(2) 0.734875(15)
C16_2 C 0.44134(17) 0.9187(2) 0.84408(15)
H11_2 H 0.4069 0.9018 0.8782
C17_2 C 0.51107(19) 0.9262(2) 0.75196(16)
H12_2 H 0.5339 0.9151 0.7093
C18_2 C 0.5234(2) 0.9882(2) 0.78769(17)
N3_2 N 0.47792(14) 0.98356(16) 0.84661(13)
C19_2 C 0.80061(16) 0.30385(18) 0.06354(14)
C20_2 C 0.71300(17) 0.30240(19) 0.06517(14)
C22_2 C 0.85776(18) 0.3032(2) 0.12983(15)
C23_2 C 0.66773(18) 0.2968(2) 0.13287(15)
O1_2 O 0.82862(13) 0.27739(15) 0.18551(10)
O2_2 O 0.93071(12) 0.32558(17) 0.12768(11)
O3_2 O 0.64444(13) 0.23300(16) 0.14760(11)
O4_2 O 0.65093(16) 0.35082(17) 0.16608(12)
C27_2 C 0.66418(17) 0.30450(19) 0.00127(14)
H16_2 H 0.6061 0.3064 0.0022
C39_2 C 0.06421(17) 0.1465(2) 0.00489(16)
C40_2 C 0.12245(19) 0.0933(2) 0.02097(18)
C41_2 C 0.10953(18) 0.0401(2) 0.06951(18)
H24_2 H 0.1504 0.0052 0.0802
C42_2 C 0.03461(17) 0.0388(2) 0.10263(15)
O11_2 O 0.85556(13) 0.26700(16) 0.35240(11)
Zn5_2 Zn 0.586251(18) 0.21952(2) 0.234875(15)
C21_2 C 0.83582(17) 0.30450(19) 0.99873(14)
H14_2 H 0.8939 0.3064 0.9978
C25_2 C 0.69939(16) 0.30385(18) 0.93646(14)
C26_2 C 0.78700(17) 0.30240(19) 0.93483(14)
C28_2 C 0.64224(18) 0.3032(2) 0.87017(15)
C29_2 C 0.83227(18) 0.2968(2) 0.86713(15)
O6_2 O 0.67138(13) 0.27739(15) 0.81449(10)
O7_2 O 0.56929(12) 0.32558(17) 0.87232(11)
O8_2 O 0.85556(13) 0.23300(16) 0.85240(11)
O9_2 O 0.84907(16) 0.35082(17) 0.83392(12)
C30_2 C 0.3787(2) 0.1441(2) 0.7370(2)
H17_2 H 0.3442 0.1059 0.7212
C31_2 C 0.42881(18) 0.2368(2) 0.79379(18)
H18_2 H 0.4346 0.2753 0.8255
C32_2 C 0.29018(18) 0.1974(2) 0.82865(17)
C33_2 C 0.23527(19) 0.1402(2) 0.82890(17)
H19_2 H 0.2431 0.0996 0.8009
C34_2 C 0.16776(18) 0.1438(2) 0.87152(17)
H20_2 H 0.1315 0.1045 0.8732
C35_2 C 0.15387(19) 0.2043(2) 0.91110(18)
C36_2 C 0.2077(2) 0.2622(2) 0.9084(2)
H21_2 H 0.1985 0.3038 0.9345
C37_2 C 0.2763(2) 0.2584(2) 0.8665(2)
H22_2 H 0.3124 0.2977 0.8644
C38_2 C 0.0823(2) 0.2097(2) 0.9584(2)
H23_2 H 0.1722 0.0934 0.9982
C48_2 C 0.4535(2) 0.1609(2) 0.71320(19)
H30_2 H 0.4794 0.1363 0.6777
N5_2 N 0.48509(15) 0.21905(16) 0.74882(14)
N6_2 N 0.36239(15) 0.19245(17) 0.78809(14)
O10_2 O 0.04188(19) 0.26436(19) 0.9599(2)
O12_2 O 0.64444(13) 0.26700(16) 0.64760(11)
Zn6_2 Zn 0.913749(18) 0.21952(2) 0.765125(15)
C45_2 C 0.05866(17) 0.9187(2) 0.15592(15)
H27_2 H 0.0931 0.9018 0.1218
N7_2 N 0.02208(14) 0.98356(16) 0.15339(13)
C30_3 C 0.1213(2) 0.3559(2) 0.7630(2)
H17_3 H 0.1558 0.3941 0.7788
C31_3 C 0.07119(18) 0.2632(2) 0.70621(18)
H18_3 H 0.0654 0.2247 0.6745
C32_3 C 0.20982(18) 0.3026(2) 0.67135(17)
C33_3 C 0.26473(19) 0.3598(2) 0.67110(17)
H19_3 H 0.2569 0.4004 0.6991
C34_3 C 0.33224(18) 0.3562(2) 0.62848(17)
H20_3 H 0.3685 0.3955 0.6268
C35_3 C 0.34613(19) 0.2957(2) 0.58890(18)
C36_3 C 0.2923(2) 0.2378(2) 0.5916(2)
H21_3 H 0.3015 0.1962 0.5655
C37_3 C 0.2237(2) 0.2416(2) 0.6335(2)
H22_3 H 0.1876 0.2023 0.6356
C38_3 C 0.4177(2) 0.2903(2) 0.5416(2)
C39_3 C 0.43579(17) 0.3535(2) 0.49511(16)
C40_3 C 0.37755(19) 0.4067(2) 0.47903(18)
H23_3 H 0.3278 0.4066 0.5018
C41_3 C 0.39047(18) 0.4599(2) 0.43049(18)
H24_3 H 0.3496 0.4948 0.4198
C42_3 C 0.46539(17) 0.4612(2) 0.39737(15)
C43_2 C 0.52482(19) 0.4091(2) 0.41329(19)
H25_2 H 0.5751 0.4100 0.3913
C44_2 C 0.5106(2) 0.3560(2) 0.4611(2)
H26_2 H 0.5514 0.3208 0.4712
C45_3 C 0.44134(17) 0.5813(2) 0.34408(15)
H27_3 H 0.4069 0.5982 0.3782
C46_2 C 0.51107(19) 0.5738(2) 0.25196(16)
H28_2 H 0.5339 0.5849 0.2093
C47_2 C 0.5234(2) 0.5118(2) 0.28769(17)
H29_2 H 0.5564 0.4730 0.2751
C48_3 C 0.0465(2) 0.3391(2) 0.78680(19)
H30_3 H 0.0206 0.3637 0.8223
N5_3 N 0.01491(15) 0.28095(16) 0.75118(14)
N6_3 N 0.13761(15) 0.30755(17) 0.71191(14)
N7_3 N 0.47792(14) 0.51644(16) 0.34661(13)
N8_2 N 0.45955(14) 0.61901(16) 0.28765(12)
O10_3 O 0.45812(19) 0.23564(19) 0.5401(2)
C1_2 C 0.3787(2) 0.3559(2) 0.2370(2)
H1_2 H 0.3442 0.3941 0.2212
C2_2 C 0.42881(18) 0.2632(2) 0.29379(18)
H2_2 H 0.4346 0.2247 0.3255
C3_2 C 0.29018(18) 0.3026(2) 0.32865(17)
C4_2 C 0.23527(19) 0.3598(2) 0.32890(17)
H3_2 H 0.2431 0.4004 0.3009
C5_2 C 0.16776(18) 0.3562(2) 0.37152(17)
H4_2 H 0.1315 0.3955 0.3732
C6_2 C 0.15387(19) 0.2957(2) 0.41110(18)
C7_2 C 0.2077(2) 0.2378(2) 0.4084(2)
H5_2 H 0.1985 0.1962 0.4345
C8_2 C 0.2763(2) 0.2416(2) 0.3665(2)
H6_2 H 0.3124 0.2023 0.3644
C9_2 C 0.0823(2) 0.2903(2) 0.4584(2)
C10_2 C 0.06421(17) 0.3535(2) 0.50489(16)
C11_2 C 0.12245(19) 0.4067(2) 0.52097(18)
H7_2 H 0.1722 0.4066 0.4982
C12_2 C 0.10953(18) 0.4599(2) 0.56951(18)
H8_2 H 0.1504 0.4948 0.5802
C13_2 C 0.03461(17) 0.4612(2) 0.60263(15)
C16_3 C 0.05866(17) 0.5813(2) 0.65592(15)
H11_3 H 0.0931 0.5982 0.6218
C19_3 C 0.69939(16) 0.19615(18) 0.43646(14)
C20_3 C 0.78700(17) 0.19760(19) 0.43483(14)
C21_3 C 0.66418(17) 0.19550(19) 0.50127(14)
H14_3 H 0.6061 0.1936 0.5022
C22_3 C 0.64224(18) 0.1968(2) 0.37017(15)
C23_3 C 0.83227(18) 0.2032(2) 0.36713(15)
C24_2 C 0.4535(2) 0.3391(2) 0.21320(19)
H15_2 H 0.4794 0.3637 0.1777
N1_2 N 0.48509(15) 0.28095(16) 0.24882(14)
N2_2 N 0.36239(15) 0.30755(17) 0.28809(14)
N3_3 N 0.02208(14) 0.51644(16) 0.65339(13)
N4_2 N 0.04045(14) 0.61901(16) 0.71235(12)
O1_3 O 0.67138(13) 0.22261(15) 0.31449(10)
O2_3 O 0.56929(12) 0.17442(17) 0.37232(11)
O4_3 O 0.84907(16) 0.14918(17) 0.33392(12)
O5_2 O 0.04188(19) 0.23564(19) 0.4599(2)
C25_3 C 0.80061(16) 0.19615(18) 0.56354(14)
C26_3 C 0.71300(17) 0.19760(19) 0.56517(14)
C27_3 C 0.83582(17) 0.19550(19) 0.49873(14)
H16_3 H 0.8939 0.1936 0.4978
C28_3 C 0.85776(18) 0.1968(2) 0.62983(15)
C29_3 C 0.66773(18) 0.2032(2) 0.63287(15)
O6_3 O 0.82862(13) 0.22261(15) 0.68551(10)
O7_3 O 0.93071(12) 0.17442(17) 0.62768(11)
O9_3 O 0.65093(16) 0.14918(17) 0.66608(12)
N9_2 N 0.54045(14) 0.11901(16) 0.21235(12)
N10_2 N 0.95955(14) 0.11901(16) 0.78765(12)
C45_4 C 0.94134(17) 0.0813(2) 0.84408(15)
H27_4 H 0.9069 0.0982 0.8782
N7_4 N 0.97792(14) 0.01644(16) 0.84661(13)
C21_4 C 0.16418(17) 0.69550(19) 0.00127(14)
H14_4 H 0.1061 0.6936 0.0022
C25_4 C 0.30061(16) 0.69615(18) 0.06354(14)
C26_4 C 0.21300(17) 0.69760(19) 0.06517(14)
C28_4 C 0.35776(18) 0.6968(2) 0.12983(15)
C29_4 C 0.16773(18) 0.7032(2) 0.13287(15)
O6_4 O 0.32862(13) 0.72261(15) 0.18551(10)
O7_4 O 0.43071(12) 0.67442(17) 0.12768(11)
O9_4 O 0.15093(16) 0.64918(17) 0.16608(12)
C30_4 C 0.6213(2) 0.8559(2) 0.2630(2)
H17_4 H 0.6558 0.8941 0.2788
C31_4 C 0.57119(18) 0.7632(2) 0.20621(18)
H18_4 H 0.5654 0.7247 0.1745
C32_4 C 0.70982(18) 0.8026(2) 0.17135(17)
C33_4 C 0.76473(19) 0.8598(2) 0.17110(17)
H19_4 H 0.7569 0.9004 0.1991
C34_4 C 0.83224(18) 0.8562(2) 0.12848(17)
H20_4 H 0.8685 0.8955 0.1268
C35_4 C 0.84613(19) 0.7957(2) 0.08890(18)
C36_4 C 0.7923(2) 0.7378(2) 0.0916(2)
H21_4 H 0.8015 0.6962 0.0655
C37_4 C 0.7237(2) 0.7416(2) 0.1335(2)
H22_4 H 0.6876 0.7023 0.1356
C38_4 C 0.9177(2) 0.7903(2) 0.0416(2)
H23_4 H 0.8278 0.9066 0.0018
C48_4 C 0.5465(2) 0.8391(2) 0.28680(19)
H30_4 H 0.5206 0.8637 0.3223
N5_4 N 0.51491(15) 0.78095(16) 0.25118(14)
N6_4 N 0.63761(15) 0.80755(17) 0.21191(14)
O10_4 O 0.95812(19) 0.73564(19) 0.0401(2)
C19_4 C 0.19939(16) 0.69615(18) 0.93646(14)
C20_4 C 0.28700(17) 0.69760(19) 0.93483(14)
C22_4 C 0.14224(18) 0.6968(2) 0.87017(15)
C23_4 C 0.33227(18) 0.7032(2) 0.86713(15)
O1_4 O 0.17138(13) 0.72261(15) 0.81449(10)
O2_4 O 0.06929(12) 0.67442(17) 0.87232(11)
O4_4 O 0.34907(16) 0.64918(17) 0.83392(12)
C27_4 C 0.33582(17) 0.69550(19) 0.99873(14)
H16_4 H 0.3939 0.6936 0.9978
C39_4 C 0.93579(17) 0.8535(2) 0.99511(16)
C40_4 C 0.87755(19) 0.9067(2) 0.97903(18)
C41_4 C 0.89047(18) 0.9599(2) 0.93049(18)
H24_4 H 0.8496 0.9948 0.9198
C42_4 C 0.96539(17) 0.9612(2) 0.89737(15)
C16_4 C 0.55866(17) 0.0813(2) 0.15592(15)
H11_4 H 0.5931 0.0982 0.1218
C17_3 C 0.48893(19) 0.0738(2) 0.24804(16)
H12_3 H 0.4661 0.0849 0.2907
C18_3 C 0.4766(2) 0.0118(2) 0.21231(17)
N3_4 N 0.52208(14) 0.01644(16) 0.15339(13)
C1_3 C 0.1213(2) 0.1441(2) 0.2630(2)
H1_3 H 0.1558 0.1059 0.2788
C2_3 C 0.07119(18) 0.2368(2) 0.20621(18)
H2_3 H 0.0654 0.2753 0.1745
C3_3 C 0.20982(18) 0.1974(2) 0.17135(17)
C4_3 C 0.26473(19) 0.1402(2) 0.17110(17)
H3_3 H 0.2569 0.0996 0.1991
C5_3 C 0.33224(18) 0.1438(2) 0.12848(17)
H4_3 H 0.3685 0.1045 0.1268
C6_3 C 0.34613(19) 0.2043(2) 0.08890(18)
C7_3 C 0.2923(2) 0.2622(2) 0.0916(2)
H5_3 H 0.3015 0.3038 0.0655
C8_3 C 0.2237(2) 0.2584(2) 0.1335(2)
H6_3 H 0.1876 0.2977 0.1356
C9_3 C 0.4177(2) 0.2097(2) 0.0416(2)
H7_3 H 0.3278 0.0934 0.0018
C24_3 C 0.0465(2) 0.1609(2) 0.28680(19)
H15_3 H 0.0206 0.1363 0.3223
N1_3 N 0.01491(15) 0.21905(16) 0.25118(14)
N2_3 N 0.13761(15) 0.19245(17) 0.21191(14)
O5_3 O 0.45812(19) 0.26436(19) 0.0401(2)
C10_3 C 0.43579(17) 0.1465(2) 0.99511(16)
C11_3 C 0.37755(19) 0.0933(2) 0.97903(18)
C12_3 C 0.39047(18) 0.0401(2) 0.93049(18)
H8_3 H 0.3496 0.0052 0.9198
C13_3 C 0.46539(17) 0.0388(2) 0.89737(15)
C14_2 C 0.52482(19) 0.0909(2) 0.91329(19)
H9_2 H 0.5751 0.0900 0.8913
C15_2 C 0.5106(2) 0.1440(2) 0.9611(2)
H10_2 H 0.5514 0.1792 0.9712
H13_2 H 0.5564 0.0270 0.7751
C43_3 C 0.97518(19) 0.0909(2) 0.08671(19)
H25_3 H 0.9249 0.0900 0.1087
C44_3 C 0.9894(2) 0.1440(2) 0.0389(2)
H26_3 H 0.9486 0.1792 0.0288
H29_3 H 0.9436 0.0270 0.2249
C46_3 C 0.98893(19) 0.9262(2) 0.24804(16)
H28_3 H 0.9661 0.9151 0.2907
C47_3 C 0.9766(2) 0.9882(2) 0.21231(17)
C14_3 C 0.97518(19) 0.4091(2) 0.58671(19)
H9_3 H 0.9249 0.4100 0.6087
C15_3 C 0.9894(2) 0.3560(2) 0.5389(2)
H10_3 H 0.9486 0.3208 0.5288
C17_4 C 0.98893(19) 0.5738(2) 0.74804(16)
H12_4 H 0.9661 0.5849 0.7907
C18_4 C 0.9766(2) 0.5118(2) 0.71231(17)
H13_3 H 0.9436 0.4730 0.7249
C46_4 C 0.01107(19) 0.0738(2) 0.75196(16)
H28_4 H 0.0339 0.0849 0.7093
C47_4 C 0.0234(2) 0.0118(2) 0.78769(17)
C43_4 C 0.02482(19) 0.9091(2) 0.91329(19)
H25_4 H 0.0751 0.9100 0.8913
C44_4 C 0.0106(2) 0.8560(2) 0.9611(2)
H26_4 H 0.0514 0.8208 0.9712
H29_4 H 0.0564 0.9730 0.7751
C10_4 C 0.56421(17) 0.8535(2) 0.00489(16)
C11_4 C 0.62245(19) 0.9067(2) 0.02097(18)
C12_4 C 0.60953(18) 0.9599(2) 0.06951(18)
H8_4 H 0.6504 0.9948 0.0802
C13_4 C 0.53461(17) 0.9612(2) 0.10263(15)
C14_4 C 0.47518(19) 0.9091(2) 0.08671(19)
H9_4 H 0.4249 0.9100 0.1087
C15_4 C 0.4894(2) 0.8560(2) 0.0389(2)
H10_4 H 0.4486 0.8208 0.0288
H13_4 H 0.4436 0.9730 0.2249
C1_4 C 0.8787(2) 0.8559(2) 0.7370(2)
H1_4 H 0.8442 0.8941 0.7212
C2_4 C 0.92881(18) 0.7632(2) 0.79379(18)
H2_4 H 0.9346 0.7247 0.8255
C3_4 C 0.79018(18) 0.8026(2) 0.82865(17)
C4_4 C 0.73527(19) 0.8598(2) 0.82890(17)
H3_4 H 0.7431 0.9004 0.8009
C5_4 C 0.66776(18) 0.8562(2) 0.87152(17)
H4_4 H 0.6315 0.8955 0.8732
C6_4 C 0.65387(19) 0.7957(2) 0.91110(18)
C7_4 C 0.7077(2) 0.7378(2) 0.9084(2)
H5_4 H 0.6985 0.6962 0.9345
C8_4 C 0.7763(2) 0.7416(2) 0.8665(2)
H6_4 H 0.8124 0.7023 0.8644
C9_4 C 0.5823(2) 0.7903(2) 0.9584(2)
H7_4 H 0.6722 0.9066 0.9982
C24_4 C 0.9535(2) 0.8391(2) 0.71320(19)
H15_4 H 0.9794 0.8637 0.6777
N1_4 N 0.98509(15) 0.78095(16) 0.74882(14)
N2_4 N 0.86239(15) 0.80755(17) 0.78809(14)
O5_4 O 0.54188(19) 0.73564(19) 0.9599(2)
loop_
_geom_bond_atom_site_label_1
_geom_bond_atom_site_label_2
_geom_bond_site_symmetry_1
_geom_bond_site_symmetry_2
H9 C14 1_555 1_555
H10 C15 1_555 1_555
C17 H12 1_555 1_555
C18 C17 1_555 1_555
H13 C18 1_555 1_555
C14 C15 1_555 1_555
C1 H1 1_555 1_555
C2 H2 1_555 1_555
C3 C4 1_555 1_555
C4 H3 1_555 1_555
C5 C4 1_555 1_555
H4 C5 1_555 1_555
C6 C5 1_555 1_555
C7 C6 1_555 1_555
H5 C7 1_555 1_555
C8 C3 1_555 1_555
H6 C8 1_555 1_555
C9 C6 1_555 1_555
C10 C9 1_555 1_555
C11 C10 1_555 1_555
H7 C11 1_555 1_555
C12 C11 1_555 1_555
H8 C12 1_555 1_555
C13 C12 1_555 1_555
C16 H11 1_555 1_555
C19 C20 1_555 1_555
C20 C23 1_555 1_555
C21 C19 1_555 1_555
H14 C21 1_555 1_555
C22 C19 1_555 1_555
C23 O3 1_555 1_555
C24 C1 1_555 1_555
H15 C24 1_555 1_555
N1 C2 1_555 1_555
N2 C1 1_555 1_555
N3 C13 1_555 1_555
N4 C16 1_555 1_555
O1 C22 1_555 1_555
O2 C22 1_555 1_555
O3 Zn5 1_555 1_555
O4 C23 1_555 1_555
O5 C9 1_555 1_555
Zn1 N1 1_555 1_555
C25 C26 1_555 1_555
C26 C21 1_555 1_555
C27 C20 1_555 1_555
H16 C27 1_555 1_555
C28 C25 1_555 1_555
C29 C26 1_555 1_555
O6 C28 1_555 1_555
O7 C28 1_555 1_555
O8 C29 1_555 1_555
O9 C29 1_555 1_555
Zn2 O6 1_555 1_555
N9 Zn1 1_555 1_555
N10 Zn2 1_555 1_555
O11 Zn1 1_555 1_555
O12 Zn2 1_555 1_555
Zn3 N4 1_555 1_555
Zn6 O8 1_555 1_555
C2 N2 1_555 1_555
C3 N2 1_555 1_555
C7 C8 1_555 1_555
C16 N3 1_555 1_555
C24 N1 1_555 1_555
O1 Zn1 1_555 1_555
C25 C27 1_555 1_555
C30 H17 1_555 1_555
C31 H18 1_555 1_555
C32 C33 1_555 1_555
C33 H19 1_555 1_555
C34 C33 1_555 1_555
H20 C34 1_555 1_555
C35 C34 1_555 1_555
C36 C35 1_555 1_555
H21 C36 1_555 1_555
C37 C32 1_555 1_555
H22 C37 1_555 1_555
C38 C35 1_555 1_555
C39 C38 1_555 1_555
C40 C39 1_555 1_555
H23 C40 1_555 1_555
C41 C40 1_555 1_555
H24 C41 1_555 1_555
C42 C41 1_555 1_555
C43 C42 1_555 1_555
H25 C43 1_555 1_555
C44 C39 1_555 1_555
H26 C44 1_555 1_555
C45 H27 1_555 1_555
C46 H28 1_555 1_555
C47 C46 1_555 1_555
H29 C47 1_555 1_555
C48 C30 1_555 1_555
H30 C48 1_555 1_555
N5 C31 1_555 1_555
N6 C30 1_555 1_555
N7 C42 1_555 1_555
N8 C45 1_555 1_555
O10 C38 1_555 1_555
Zn4 N8 1_555 1_555
C31 N6 1_555 1_555
C32 N6 1_555 1_555
C36 C37 1_555 1_555
C43 C44 1_555 1_555
C45 N7 1_555 1_555
C46 N8 1_555 1_555
C47 N7 1_555 1_555
C48 N5 1_555 1_555
C16_2 H11_2 1_555 1_555
C17_2 H12_2 1_555 1_555
C18_2 C17_2 1_555 1_555
N9 C16_2 1_555 1_555
C16_2 N3_2 1_555 1_555
C17_2 N9 1_555 1_555
C18_2 N3_2 1_555 1_555
C19_2 C20_2 1_555 1_555
C20_2 C23_2 1_555 1_555
C22_2 C19_2 1_555 1_555
C23_2 O3_2 1_555 1_555
O1_2 C22_2 1_555 1_555
O2_2 C22_2 1_555 1_555
O3_2 Zn5_2 1_555 1_555
O4_2 C23_2 1_555 1_555
C27_2 C20_2 1_555 1_555
H16_2 C27_2 1_555 1_555
C40_2 C39_2 1_555 1_555
C41_2 C40_2 1_555 1_555
H24_2 C41_2 1_555 1_555
C42_2 C41_2 1_555 1_555
O11_2 Zn3 1_555 1_555
O1_2 Zn3 1_555 1_555
H14_2 C21_2 1_555 1_555
C25_2 C26_2 1_555 1_555
C26_2 C21_2 1_555 1_555
C28_2 C25_2 1_555 1_555
C29_2 C26_2 1_555 1_555
O6_2 C28_2 1_555 1_555
O7_2 C28_2 1_555 1_555
O8_2 C29_2 1_555 1_555
O9_2 C29_2 1_555 1_555
C30_2 H17_2 1_555 1_555
C31_2 H18_2 1_555 1_555
C32_2 C33_2 1_555 1_555
C33_2 H19_2 1_555 1_555
C34_2 C33_2 1_555 1_555
H20_2 C34_2 1_555 1_555
C35_2 C34_2 1_555 1_555
C36_2 C35_2 1_555 1_555
H21_2 C36_2 1_555 1_555
C37_2 C32_2 1_555 1_555
H22_2 C37_2 1_555 1_555
C38_2 C35_2 1_555 1_555
C48_2 C30_2 1_555 1_555
H30_2 C48_2 1_555 1_555
N5_2 C31_2 1_555 1_555
N6_2 C30_2 1_555 1_555
O10_2 C38_2 1_555 1_555
Zn4 O6_2 1_555 1_555
O12_2 Zn4 1_555 1_555
Zn6_2 O8_2 1_555 1_555
C31_2 N6_2 1_555 1_555
C32_2 N6_2 1_555 1_555
C36_2 C37_2 1_555 1_555
C48_2 N5_2 1_555 1_555
N5_2 Zn4 1_555 1_555
C45_2 H27_2 1_555 1_555
N10 C45_2 1_555 1_555
C45_2 N7_2 1_555 1_555
C30_3 H17_3 1_555 1_555
C31_3 H18_3 1_555 1_555
C32_3 C33_3 1_555 1_555
C33_3 H19_3 1_555 1_555
C34_3 C33_3 1_555 1_555
H20_3 C34_3 1_555 1_555
C35_3 C34_3 1_555 1_555
C36_3 C35_3 1_555 1_555
H21_3 C36_3 1_555 1_555
C37_3 C32_3 1_555 1_555
H22_3 C37_3 1_555 1_555
C38_3 C35_3 1_555 1_555
C39_3 C38_3 1_555 1_555
C40_3 C39_3 1_555 1_555
H23_3 C40_3 1_555 1_555
C41_3 C40_3 1_555 1_555
H24_3 C41_3 1_555 1_555
C42_3 C41_3 1_555 1_555
C43_2 C42_3 1_555 1_555
H25_2 C43_2 1_555 1_555
C44_2 C39_3 1_555 1_555
H26_2 C44_2 1_555 1_555
C45_3 H27_3 1_555 1_555
C46_2 H28_2 1_555 1_555
C47_2 C46_2 1_555 1_555
H29_2 C47_2 1_555 1_555
C48_3 C30_3 1_555 1_555
H30_3 C48_3 1_555 1_555
N5_3 C31_3 1_555 1_555
N6_3 C30_3 1_555 1_555
N7_3 C42_3 1_555 1_555
N8_2 C45_3 1_555 1_555
O10_3 C38_3 1_555 1_555
Zn6 N8_2 1_555 1_555
C31_3 N6_3 1_555 1_555
C32_3 N6_3 1_555 1_555
C36_3 C37_3 1_555 1_555
C43_2 C44_2 1_555 1_555
C45_3 N7_3 1_555 1_555
C46_2 N8_2 1_555 1_555
C47_2 N7_3 1_555 1_555
C48_3 N5_3 1_555 1_555
C1_2 H1_2 1_555 1_555
C2_2 H2_2 1_555 1_555
C3_2 C4_2 1_555 1_555
C4_2 H3_2 1_555 1_555
C5_2 C4_2 1_555 1_555
H4_2 C5_2 1_555 1_555
C6_2 C5_2 1_555 1_555
C7_2 C6_2 1_555 1_555
H5_2 C7_2 1_555 1_555
C8_2 C3_2 1_555 1_555
H6_2 C8_2 1_555 1_555
C9_2 C6_2 1_555 1_555
C10_2 C9_2 1_555 1_555
C11_2 C10_2 1_555 1_555
H7_2 C11_2 1_555 1_555
C12_2 C11_2 1_555 1_555
H8_2 C12_2 1_555 1_555
C13_2 C12_2 1_555 1_555
C16_3 H11_3 1_555 1_555
C19_3 C20_3 1_555 1_555
C20_3 C23_3 1_555 1_555
C21_3 C19_3 1_555 1_555
H14_3 C21_3 1_555 1_555
C22_3 C19_3 1_555 1_555
C23_3 O11_2 1_555 1_555
C24_2 C1_2 1_555 1_555
H15_2 C24_2 1_555 1_555
N1_2 C2_2 1_555 1_555
N2_2 C1_2 1_555 1_555
N3_3 C13_2 1_555 1_555
N4_2 C16_3 1_555 1_555
O1_3 C22_3 1_555 1_555
O2_3 C22_3 1_555 1_555
O4_3 C23_3 1_555 1_555
O5_2 C9_2 1_555 1_555
Zn5_2 N1_2 1_555 1_555
C25_3 C26_3 1_555 1_555
C26_3 C21_3 1_555 1_555
C27_3 C20_3 1_555 1_555
H16_3 C27_3 1_555 1_555
C28_3 C25_3 1_555 1_555
C29_3 C26_3 1_555 1_555
O6_3 C28_3 1_555 1_555
O7_3 C28_3 1_555 1_555
O12_2 C29_3 1_555 1_555
O9_3 C29_3 1_555 1_555
Zn6_2 O6_3 1_555 1_555
N9_2 Zn5_2 1_555 1_555
N10_2 Zn6_2 1_555 1_555
Zn5 N4_2 1_555 1_555
C2_2 N2_2 1_555 1_555
C3_2 N2_2 1_555 1_555
C7_2 C8_2 1_555 1_555
C16_3 N3_3 1_555 1_555
C24_2 N1_2 1_555 1_555
O1_3 Zn5_2 1_555 1_555
C25_3 C27_3 1_555 1_555
C45_4 H27_4 1_555 1_555
N10_2 C45_4 1_555 1_555
C45_4 N7_4 1_555 1_555
H14_4 C21_4 1_555 1_555
C25_4 C26_4 1_555 1_555
C26_4 C21_4 1_555 1_555
C28_4 C25_4 1_555 1_555
C29_4 C26_4 1_555 1_555
O6_4 C28_4 1_555 1_555
O7_4 C28_4 1_555 1_555
O12 C29_4 1_555 1_555
O9_4 C29_4 1_555 1_555
C30_4 H17_4 1_555 1_555
C31_4 H18_4 1_555 1_555
C32_4 C33_4 1_555 1_555
C33_4 H19_4 1_555 1_555
C34_4 C33_4 1_555 1_555
H20_4 C34_4 1_555 1_555
C35_4 C34_4 1_555 1_555
C36_4 C35_4 1_555 1_555
H21_4 C36_4 1_555 1_555
C37_4 C32_4 1_555 1_555
H22_4 C37_4 1_555 1_555
C38_4 C35_4 1_555 1_555
C48_4 C30_4 1_555 1_555
H30_4 C48_4 1_555 1_555
N5_4 C31_4 1_555 1_555
N6_4 C30_4 1_555 1_555
O10_4 C38_4 1_555 1_555
Zn6 O6_4 1_555 1_555
C31_4 N6_4 1_555 1_555
C32_4 N6_4 1_555 1_555
C36_4 C37_4 1_555 1_555
C48_4 N5_4 1_555 1_555
N5_4 Zn6 1_555 1_555
C19_4 C20_4 1_555 1_555
C20_4 C23_4 1_555 1_555
C22_4 C19_4 1_555 1_555
C23_4 O11 1_555 1_555
O1_4 C22_4 1_555 1_555
O2_4 C22_4 1_555 1_555
O4_4 C23_4 1_555 1_555
C27_4 C20_4 1_555 1_555
H16_4 C27_4 1_555 1_555
C40_4 C39_4 1_555 1_555
C41_4 C40_4 1_555 1_555
H24_4 C41_4 1_555 1_555
C42_4 C41_4 1_555 1_555
O1_4 Zn5 1_555 1_555
C16_4 H11_4 1_555 1_555
C17_3 H12_3 1_555 1_555
C18_3 C17_3 1_555 1_555
N9_2 C16_4 1_555 1_555
C16_4 N3_4 1_555 1_555
C17_3 N9_2 1_555 1_555
C18_3 N3_4 1_555 1_555
C1_3 H1_3 1_555 1_555
C2_3 H2_3 1_555 1_555
C3_3 C4_3 1_555 1_555
C4_3 H3_3 1_555 1_555
C5_3 C4_3 1_555 1_555
H4_3 C5_3 1_555 1_555
C6_3 C5_3 1_555 1_555
C7_3 C6_3 1_555 1_555
H5_3 C7_3 1_555 1_555
C8_3 C3_3 1_555 1_555
H6_3 C8_3 1_555 1_555
C9_3 C6_3 1_555 1_555
C24_3 C1_3 1_555 1_555
H15_3 C24_3 1_555 1_555
N1_3 C2_3 1_555 1_555
N2_3 C1_3 1_555 1_555
O5_3 C9_3 1_555 1_555
C2_3 N2_3 1_555 1_555
C3_3 N2_3 1_555 1_555
C7_3 C8_3 1_555 1_555
C24_3 N1_3 1_555 1_555
C11_3 C10_3 1_555 1_555
C12_3 C11_3 1_555 1_555
H8_3 C12_3 1_555 1_555
C13_3 C12_3 1_555 1_555
C14_2 C13_3 1_555 1_555
H9_2 C14_2 1_555 1_555
C15_2 C10_3 1_555 1_555
H10_2 C15_2 1_555 1_555
C14_2 C15_2 1_555 1_555
H25_3 C43_3 1_555 1_555
H26_3 C44_3 1_555 1_555
C43_3 C44_3 1_555 1_555
C46_3 H28_3 1_555 1_555
C47_3 C46_3 1_555 1_555
H9_3 C14_3 1_555 1_555
H10_3 C15_3 1_555 1_555
C17_4 H12_4 1_555 1_555
C18_4 C17_4 1_555 1_555
H13_3 C18_4 1_555 1_555
C14_3 C15_3 1_555 1_555
C46_4 H28_4 1_555 1_555
C47_4 C46_4 1_555 1_555
H25_4 C43_4 1_555 1_555
H26_4 C44_4 1_555 1_555
C43_4 C44_4 1_555 1_555
C11_4 C10_4 1_555 1_555
C12_4 C11_4 1_555 1_555
H8_4 C12_4 1_555 1_555
C13_4 C12_4 1_555 1_555
C14_4 C13_4 1_555 1_555
H9_4 C14_4 1_555 1_555
C15_4 C10_4 1_555 1_555
H10_4 C15_4 1_555 1_555
C14_4 C15_4 1_555 1_555
C1_4 H1_4 1_555 1_555
C2_4 H2_4 1_555 1_555
C3_4 C4_4 1_555 1_555
C4_4 H3_4 1_555 1_555
C5_4 C4_4 1_555 1_555
H4_4 C5_4 1_555 1_555
C6_4 C5_4 1_555 1_555
C7_4 C6_4 1_555 1_555
H5_4 C7_4 1_555 1_555
C8_4 C3_4 1_555 1_555
H6_4 C8_4 1_555 1_555
C9_4 C6_4 1_555 1_555
C24_4 C1_4 1_555 1_555
H15_4 C24_4 1_555 1_555
N1_4 C2_4 1_555 1_555
N2_4 C1_4 1_555 1_555
O5_4 C9_4 1_555 1_555
C2_4 N2_4 1_555 1_555
C3_4 N2_4 1_555 1_555
C7_4 C8_4 1_555 1_555
C24_4 N1_4 1_555 1_555

#END
