
###############################################################################
#
# This file contains modified crystal structure data generated from the
# MOF subset of the Cambridge Structural Database (CSD) v543 
# hosted by the Cambridge Crystallographic Data Centre (CCDC).
#
# This work is licensed under the Creative Commons
# Attribution-NonCommercial-ShareAlike 4.0 International License.
# To view a copy of this license, visit
# http://creativecommons.org/licenses/by-nc-sa/4.0/
# or send a letter to
# Creative Commons, PO Box 1866, Mountain View, CA 94042, USA.
#
# CIF created using the CSD Python API on 29 September 2022
# The structure has been converted into the P1 space group
# The structure has a 3D framework
# The original CSD entry ENEQUL is in the triclinic crystal system
# The framework has been calculated to contain at least 10.0% void space
# The void calculation uses a probe of radius 1.32A, grid spacing 0.4
# The framework is charged, counterions have been retained in the structure
#
###############################################################################

data_ENEQUL
_chemical_formula_moiety         '(C90 H80 Cu4 N18 O86 W20)n'
_symmetry_cell_setting           triclinic
_symmetry_space_group_name_H-M   'P 1'
_symmetry_Int_Tables_number      1
_space_group_name_Hall           'P 1'
loop_
_symmetry_equiv_pos_site_id
_symmetry_equiv_pos_as_xyz
1 x,y,z
_cell_length_a                   13.0242(7)
_cell_length_b                   13.7795(8)
_cell_length_c                   23.9552(14)
_cell_angle_alpha                81.259(3)
_cell_angle_beta                 86.490(3)
_cell_angle_gamma                70.046(2)
_cell_volume                     3993.94
loop_
_atom_site_label
_atom_site_type_symbol
_atom_site_fract_x
_atom_site_fract_y
_atom_site_fract_z
W1 W 0.16869(4) 0.05781(4) 0.43196(2)
O2 O 0.2314(7) 0.0347(7) 0.5047(4)
O3 O 0.0510(7) 0.1162(7) 0.3794(4)
O4 O 0.1663(7) 0.2038(7) 0.4282(4)
O5 O 0.2819(7) 0.0274(8) 0.3885(4)
O6 O 0.0220(6) 0.1327(6) 0.4872(3)
W3 W 0.13279(4) 0.08166(4) 0.56571(2)
W5 W 0.05318(5) 0.29059(4) 0.46994(3)
O12 O 0.2137(7) 0.0620(7) 0.6202(4)
O13 O 0.1320(7) 0.2227(7) 0.5383(4)
O16 O 0.0711(8) 0.4057(8) 0.4582(4)
O1 O 0.1438(6) 0.9336(6) 0.4457(3)
W2 W 0.12662(4) 0.79546(4) 0.45663(2)
O7 O 0.1902(7) 0.7781(6) 0.5292(4)
O8 O 0.0795(7) 0.6819(7) 0.4793(4)
O9 O 0.2345(8) 0.7378(7) 0.4167(4)
O10 O 0.0097(7) 0.8554(7) 0.4028(4)
O11 O 0.1079(6) 0.9525(7) 0.5747(3)
W9 W 0.09101(4) 0.81953(4) 0.59048(2)
O30 O 0.0499(7) 0.6986(7) 0.5886(4)
O31 O 0.1690(8) 0.7671(8) 0.6485(5)
W4 W 0.90899(4) 0.18047(4) 0.40952(2)
O14 O 0.9501(7) 0.3014(7) 0.4114(4)
O15 O 0.8310(8) 0.2329(8) 0.3515(5)
O17 O 0.8562(6) 0.0664(6) 0.5543(3)
W7 W 0.87338(4) 0.20454(4) 0.54337(2)
O23 O 0.8098(7) 0.2219(6) 0.4708(4)
O24 O 0.9205(7) 0.3181(7) 0.5207(4)
O25 O 0.7655(8) 0.2622(7) 0.5833(4)
O26 O 0.9903(7) 0.1446(7) 0.5972(4)
O27 O 0.8921(6) 0.0475(7) 0.4253(3)
W6 W 0.83131(4) 0.94219(4) 0.56804(2)
O18 O 0.7686(7) 0.9653(7) 0.4953(4)
O19 O 0.9490(7) 0.8838(7) 0.6206(4)
O20 O 0.8337(7) 0.7962(7) 0.5718(4)
O21 O 0.7181(7) 0.9726(8) 0.6115(4)
O22 O 0.9780(6) 0.8673(6) 0.5128(3)
W8 W 0.86721(4) 0.91834(4) 0.43429(2)
W10 W 0.94682(5) 0.70941(4) 0.53006(3)
O28 O 0.7863(7) 0.9380(7) 0.3798(4)
O29 O 0.8680(7) 0.7773(7) 0.4617(4)
O32 O 0.9289(8) 0.5943(8) 0.5418(4)
O35 O 0.1729(7) 0.2656(7) 0.0273(4)
O43 O 0.1718(8) 0.7003(7) 0.0232(4)
W17 W 0.16073(5) 0.56938(4) 0.05520(2)
W20 W 0.08415(5) 0.32541(4) 0.09077(3)
O49 O 0.1164(7) 0.4460(7) 0.0702(4)
O52 O 0.0231(7) 0.6436(7) 0.0898(4)
O55 O 0.1725(9) 0.2696(8) 0.1470(5)
O57 O 0.2531(8) 0.5398(7) 0.1062(4)
O62 O 0.0266(8) 0.2109(7) 0.0952(4)
W11 W 0.17454(5) 0.53542(4) 0.92256(2)
W13 W 0.09772(5) 0.29049(4) 0.95831(3)
W14 W 0.08392(5) 0.77309(4) 0.95687(3)
O34 O 0.1307(7) 0.4203(7) 0.9408(4)
O37 O 0.2470(7) 0.5087(7) 0.9929(4)
O38 O 0.2763(8) 0.4924(7) 0.8758(4)
O40 O 0.1875(7) 0.6749(7) 0.9161(4)
O42 O 0.0496(7) 0.5993(6) 0.8750(4)
O44 O 0.0361(7) 0.6268(6) 0.9809(4)
O45 O 0.1926(8) 0.2199(8) 0.9141(5)
O47 O 0.0366(8) 0.1899(7) 0.9863(5)
O48 O 0.1186(8) 0.8776(8) 0.9405(4)
W16 W 0.82546(5) 0.46458(4) 0.07744(2)
W18 W 0.90228(5) 0.70951(4) 0.04169(3)
W19 W 0.91608(5) 0.22691(4) 0.04313(3)
O50 O 0.8693(7) 0.5797(7) 0.0592(4)
O53 O 0.7530(7) 0.4913(7) 0.0071(4)
O54 O 0.7237(8) 0.5076(7) 0.1242(4)
O56 O 0.8125(7) 0.3251(7) 0.0839(4)
O58 O 0.9504(7) 0.4007(6) 0.1250(4)
O60 O 0.9639(7) 0.3732(6) 0.0191(4)
O61 O 0.8074(8) 0.7801(8) 0.0859(5)
O63 O 0.9634(8) 0.8101(7) 0.0137(5)
O64 O 0.8814(8) 0.1224(8) 0.0595(4)
W12 W 0.83927(5) 0.43062(4) 0.94480(2)
W15 W 0.91585(5) 0.67459(4) 0.90923(3)
O33 O 0.8836(7) 0.5540(7) 0.9298(4)
O36 O 0.9769(7) 0.3564(7) 0.9102(4)
O39 O 0.8275(9) 0.7304(8) 0.8530(5)
O41 O 0.7469(8) 0.4602(7) 0.8938(4)
O46 O 0.9734(8) 0.7891(7) 0.9048(4)
O51 O 0.8271(7) 0.7344(7) 0.9727(4)
O59 O 0.8282(8) 0.2997(7) 0.9768(4)
C6 C 0.2475(15) 0.3856(14) 0.2324(7)
H5 H 0.3018 0.4072 0.2111
C7 C 0.1408(14) 0.4482(13) 0.2261(7)
H6 H 0.1221 0.5090 0.1989
C8 C 0.0596(14) 0.4240(11) 0.2591(6)
C9 C 0.0902(16) 0.3331(12) 0.2956(8)
H7 H 0.0373 0.3107 0.3178
C10 C 0.2028(17) 0.2731(13) 0.2996(7)
H8 H 0.2248 0.2131 0.3274
N2 N 0.2784(13) 0.2964(13) 0.2667(7)
O72 O 0.3749(13) 0.2293(12) 0.2667(7)
Cu9 Cu 0.52201(14) 0.22384(14) 0.23570(7)
O76 O 0.5221(8) 0.1125(11) 0.1804(5)
N10 N 0.4770(5) 0.0800(9) 0.1345(3)
C46 C 0.3908(6) 0.0700(11) 0.1098(4)
H41 H 0.3241 0.0836 0.1306
C47 C 0.3924(5) 0.0422(12) 0.0581(4)
H42 H 0.3295 0.0382 0.0417
C48 C 0.4906(5) 0.0205(12) 0.0312(4)
C49 C 0.5807(6) 0.0300(13) 0.0514(3)
H43 H 0.6444 0.0262 0.0290
C50 C 0.5730(6) 0.0453(15) 0.1062(4)
H44 H 0.6387 0.0308 0.1261
O67 O 0.6710(12) 0.2331(13) 0.2105(7)
C16 C 0.8110(14) 0.0843(18) 0.2553(9)
H13 H 0.7605 0.0504 0.2694
C17 C 0.9201(16) 0.0352(16) 0.2637(11)
C18 C 0.9931(12) 0.0828(12) 0.2490(7)
C19 C 0.9527(13) 0.1862(14) 0.2242(6)
C20 C 0.8436(19) 0.2330(15) 0.2130(8)
H16 H 0.8174 0.3033 0.1952
N4 N 0.7752(13) 0.1826(14) 0.2263(7)
Cu3 Cu 0.47330(15) 0.23236(16) 0.73448(8)
O77 O 0.3799(10) 0.3450(9) 0.7719(4)
O78 O 0.5642(8) 0.1147(7) 0.7006(4)
O80 O 0.4718(8) 0.3472(7) 0.1778(4)
O82 O 0.5815(8) 0.1016(8) 0.2924(4)
O83 O 0.3871(9) 0.2838(8) 0.6667(4)
C51 C 0.2008(15) 0.3737(13) 0.7969(7)
H45 H 0.2244 0.3166 0.8263
C52 C 0.0915(12) 0.4305(13) 0.7926(7)
H46 H 0.0410 0.4157 0.8199
C53 C 0.0550(15) 0.5120(11) 0.7464(7)
C54 C 0.1296(15) 0.5285(14) 0.7080(8)
H47 H 0.1076 0.5777 0.6749
C55 C 0.2426(16) 0.4702(14) 0.7183(7)
H48 H 0.2965 0.4855 0.6935
C64 C 0.8499(13) 0.0661(11) 0.7016(6)
H55 H 0.8992 0.0992 0.6843
C65 C 0.7421(12) 0.1095(11) 0.6914(6)
H56 H 0.7176 0.1711 0.6649
C71 C 0.5656(11) 0.3468(11) 0.0929(6)
H61 H 0.6211 0.3632 0.1094
C72 C 0.5703(12) 0.3361(12) 0.0378(6)
H62 H 0.6300 0.3465 0.0160
C73 C 0.4918(11) 0.3104(12) 0.0103(5)
C74 C 0.4044(11) 0.3012(11) 0.0447(6)
H63 H 0.3465 0.2866 0.0294
C75 C 0.4016(12) 0.3135(11) 0.1023(6)
H64 H 0.3421 0.3070 0.1257
C81 C 0.4861(12) 0.0833(12) 0.3763(6)
H69 H 0.4502 0.0457 0.3595
C82 C 0.4619(12) 0.1032(11) 0.4309(6)
H70 H 0.4058 0.0821 0.4506
C83 C 0.5158(12) 0.1525(12) 0.4584(7)
C84 C 0.6008(12) 0.1734(14) 0.4261(7)
H71 H 0.6476 0.1999 0.4433
C85 C 0.6191(11) 0.1575(12) 0.3713(6)
H72 H 0.6756 0.1759 0.3502
C86 C 0.5157(13) 0.2543(12) 0.5936(6)
H73 H 0.5577 0.2835 0.6125
C87 C 0.5484(11) 0.2244(11) 0.5423(6)
H74 H 0.6123 0.2342 0.5248
C88 C 0.4873(11) 0.1784(10) 0.5147(6)
C89 C 0.3915(11) 0.1723(12) 0.5418(7)
H75 H 0.3446 0.1467 0.5241
C90 C 0.3647(12) 0.2033(11) 0.5942(7)
H76 H 0.3014 0.1955 0.6134
N11 N 0.2736(11) 0.3953(9) 0.7620(5)
N13 N 0.6697(10) 0.0713(8) 0.7160(5)
N15 N 0.4828(9) 0.3341(9) 0.1235(5)
N17 N 0.5593(9) 0.1169(9) 0.3476(5)
N18 N 0.4255(9) 0.2432(9) 0.6175(5)
O85 O 0.506(2) 0.3460(19) 0.2931(8)
H77 H 0.4679 0.3347 0.3219
H78 H 0.5682 0.3434 0.3036
O86 O 0.3762(17) 0.1195(15) 0.7682(10)
H79 H 0.3337 0.1441 0.7948
H80 H 0.3375 0.1155 0.7419
O88 O 0.5686(12) 0.1838(11) 0.8009(5)
C76 C 0.4637(14) 0.2026(12) 0.8801(6)
H65 H 0.4229 0.1647 0.8676
C77 C 0.4465(13) 0.2317(12) 0.9323(7)
H66 H 0.3948 0.2118 0.9568
C78 C 0.5025(12) 0.2900(12) 0.9507(7)
C79 C 0.5768(14) 0.3186(13) 0.9130(7)
H67 H 0.6194 0.3559 0.9244
C80 C 0.5874(17) 0.2936(15) 0.8620(7)
H68 H 0.6299 0.3215 0.8348
N16 N 0.5384(13) 0.2278(12) 0.8469(6)
C11 C 0.3033(11) 0.0171(11) 0.2504(7)
H9 H 0.3582 0.0441 0.2342
C12 C 0.1893(15) 0.0743(13) 0.2376(7)
H10 H 0.1687 0.1397 0.2140
C13 C 0.1098(13) 0.0317(11) 0.2607(6)
H15 H 0.0011 0.2247 0.2149
H58 H 0.0550 0.0356 0.7194
O69 O 0.4314(12) 0.8162(11) 0.1991(5)
C26 C 0.5363(14) 0.7974(12) 0.1199(6)
H21 H 0.5771 0.8353 0.1324
C27 C 0.5535(13) 0.7683(12) 0.0677(7)
H22 H 0.6052 0.7882 0.0432
C28 C 0.4975(12) 0.7100(12) 0.0493(7)
C29 C 0.4232(14) 0.6814(13) 0.0870(7)
H23 H 0.3806 0.6441 0.0756
C30 C 0.4126(17) 0.7064(15) 0.1380(7)
H24 H 0.3701 0.6785 0.1652
N6 N 0.4616(13) 0.7722(12) 0.1531(6)
Cu5 Cu 0.52670(15) 0.76764(16) 0.26552(8)
Cu2 Cu 0.47799(14) 0.77616(14) 0.76430(7)
O65 O 0.6201(10) 0.6550(9) 0.2281(4)
O66 O 0.4358(8) 0.8853(7) 0.2994(4)
O68 O 0.5282(8) 0.6528(7) 0.8222(4)
O70 O 0.4185(8) 0.8984(8) 0.7076(4)
O71 O 0.6129(9) 0.7162(8) 0.3333(4)
C1 C 0.7992(15) 0.6263(13) 0.2031(7)
H1 H 0.7756 0.6834 0.1737
C2 C 0.9085(12) 0.5695(13) 0.2074(7)
H2 H 0.9590 0.5843 0.1801
C3 C 0.9450(15) 0.4880(11) 0.2536(7)
C4 C 0.8704(15) 0.4715(14) 0.2920(8)
H3 H 0.8924 0.4223 0.3251
C5 C 0.7574(16) 0.5298(14) 0.2817(7)
H4 H 0.7035 0.5145 0.3065
C14 C 0.1501(13) 0.9339(11) 0.2984(6)
H11 H 0.1008 0.9008 0.3157
C15 C 0.2579(12) 0.8905(11) 0.3086(6)
H12 H 0.2824 0.8289 0.3351
C21 C 0.4344(11) 0.6532(11) 0.9071(6)
H17 H 0.3789 0.6368 0.8906
C22 C 0.4297(12) 0.6639(12) 0.9622(6)
H18 H 0.3700 0.6535 0.9840
C23 C 0.5082(11) 0.6896(12) 0.9897(5)
C24 C 0.5956(11) 0.6988(11) 0.9553(6)
H19 H 0.6535 0.7134 0.9706
C25 C 0.5984(12) 0.6865(11) 0.8977(6)
H20 H 0.6579 0.6930 0.8743
C31 C 0.5139(12) 0.9167(12) 0.6237(6)
H25 H 0.5498 0.9543 0.6405
C32 C 0.5381(12) 0.8968(11) 0.5691(6)
H26 H 0.5942 0.9179 0.5494
C33 C 0.4842(12) 0.8475(12) 0.5416(7)
C34 C 0.3992(12) 0.8266(14) 0.5739(7)
H27 H 0.3524 0.8001 0.5567
C35 C 0.3809(11) 0.8425(12) 0.6287(6)
H28 H 0.3244 0.8241 0.6498
C36 C 0.4843(13) 0.7457(12) 0.4064(6)
H29 H 0.4423 0.7165 0.3875
C37 C 0.4516(11) 0.7756(11) 0.4577(6)
H30 H 0.3877 0.7658 0.4752
C38 C 0.5127(11) 0.8216(10) 0.4853(6)
C39 C 0.6085(11) 0.8277(12) 0.4582(7)
H31 H 0.6554 0.8533 0.4759
C40 C 0.6353(12) 0.7967(11) 0.4058(7)
H32 H 0.6986 0.8045 0.3866
N1 N 0.7264(11) 0.6047(9) 0.2380(5)
N3 N 0.3303(10) 0.9287(8) 0.2840(5)
N5 N 0.5172(9) 0.6659(9) 0.8765(5)
N7 N 0.4407(9) 0.8831(9) 0.6524(5)
N8 N 0.5745(9) 0.7568(9) 0.3825(5)
O73 O 0.494(2) 0.6540(19) 0.7069(8)
H33 H 0.5321 0.6653 0.6781
H34 H 0.4318 0.6566 0.6964
O74 O 0.4779(8) 0.8875(11) 0.8196(5)
O75 O 0.6238(17) 0.8805(15) 0.2318(10)
H35 H 0.6663 0.8559 0.2052
H36 H 0.6625 0.8845 0.2581
N9 N 0.5230(5) 0.9200(9) 0.8655(3)
C41 C 0.6092(6) 0.9300(11) 0.8902(4)
H37 H 0.6759 0.9164 0.8694
C42 C 0.6076(5) 0.9578(12) 0.9419(4)
H38 H 0.6705 0.9618 0.9583
C43 C 0.5094(5) 0.9795(12) 0.9688(4)
C44 C 0.4193(6) 0.9700(13) 0.9486(3)
H39 H 0.3556 0.9738 0.9710
C45 C 0.4270(6) 0.9547(15) 0.8938(4)
H40 H 0.3613 0.9692 0.8739
O79 O 0.3290(12) 0.7669(13) 0.7895(7)
C66 C 0.1890(14) 0.9157(18) 0.7447(9)
H57 H 0.2395 0.9496 0.7306
C67 C 0.0799(16) 0.9648(16) 0.7363(11)
C68 C 0.0069(12) 0.9172(12) 0.7510(7)
C69 C 0.0473(13) 0.8138(14) 0.7758(6)
C70 C 0.1564(19) 0.7670(15) 0.7870(8)
H60 H 0.1826 0.6967 0.8048
N14 N 0.2248(13) 0.8174(14) 0.7737(7)
O90 O 0.6251(13) 0.7707(12) 0.7333(7)
C56 C 0.7525(15) 0.6144(14) 0.7676(7)
H49 H 0.6982 0.5928 0.7889
C57 C 0.8592(14) 0.5518(13) 0.7739(7)
H50 H 0.8779 0.4910 0.8011
C58 C 0.9404(14) 0.5760(11) 0.7409(6)
C59 C 0.9098(16) 0.6669(12) 0.7044(8)
H51 H 0.9627 0.6893 0.6822
C60 C 0.7972(17) 0.7269(13) 0.7004(7)
H52 H 0.7752 0.7869 0.6726
N12 N 0.7216(13) 0.7036(13) 0.7333(7)
H14 H 0.9450 0.9644 0.2806
C61 C 0.6967(11) 0.9829(11) 0.7496(7)
H53 H 0.6418 0.9559 0.7658
C62 C 0.8107(15) 0.9257(13) 0.7624(7)
H54 H 0.8313 0.8603 0.7860
C63 C 0.8902(13) 0.9683(11) 0.7393(6)
H59 H 0.9989 0.7753 0.7851
loop_
_geom_bond_atom_site_label_1
_geom_bond_atom_site_label_2
_geom_bond_site_symmetry_1
_geom_bond_site_symmetry_2
O2 W1 1_555 1_555
O3 W1 1_555 1_555
O4 W1 1_555 1_555
O5 W1 1_555 1_555
O6 W1 1_555 1_555
W3 O2 1_555 1_555
W5 O4 1_555 1_555
O12 W3 1_555 1_555
O13 W3 1_555 1_555
O16 W5 1_555 1_555
O6 W3 1_555 1_555
O6 W5 1_555 1_555
W5 O13 1_555 1_555
O1 W2 1_555 1_555
W2 O7 1_555 1_555
O7 W9 1_555 1_555
O8 W2 1_555 1_555
O9 W2 1_555 1_555
O10 W2 1_555 1_555
W9 O11 1_555 1_555
O30 W9 1_555 1_555
O31 W9 1_555 1_555
O14 W4 1_555 1_555
O15 W4 1_555 1_555
O17 W7 1_555 1_555
O23 W4 1_555 1_555
O25 W7 1_555 1_555
O27 W4 1_555 1_555
W7 O23 1_555 1_555
W7 O24 1_555 1_555
W7 O26 1_555 1_555
O18 W6 1_555 1_555
O19 W6 1_555 1_555
O20 W6 1_555 1_555
O21 W6 1_555 1_555
O28 W8 1_555 1_555
O29 W8 1_555 1_555
O32 W10 1_555 1_555
W6 O22 1_555 1_555
O18 W8 1_555 1_555
O20 W10 1_555 1_555
O22 W8 1_555 1_555
O22 W10 1_555 1_555
W10 O29 1_555 1_555
W20 O35 1_555 1_555
O49 W17 1_555 1_555
O52 W17 1_555 1_555
O55 W20 1_555 1_555
O57 W17 1_555 1_555
O43 W17 1_555 1_555
W20 O49 1_555 1_555
W20 O62 1_555 1_555
W11 O34 1_555 1_555
W13 O34 1_555 1_555
W14 O40 1_555 1_555
O37 W11 1_555 1_555
O38 W11 1_555 1_555
O40 W11 1_555 1_555
O42 W11 1_555 1_555
O44 W11 1_555 1_555
O45 W13 1_555 1_555
O47 W13 1_555 1_555
O48 W14 1_555 1_555
W14 O44 1_555 1_555
W16 O50 1_555 1_555
O50 W18 1_555 1_555
O54 W16 1_555 1_555
O56 W16 1_555 1_555
O58 W16 1_555 1_555
O61 W18 1_555 1_555
O64 W19 1_555 1_555
W16 O53 1_555 1_555
W16 O60 1_555 1_555
W18 O63 1_555 1_555
W19 O56 1_555 1_555
W19 O60 1_555 1_555
W12 O33 1_555 1_555
W15 O33 1_555 1_555
O36 W12 1_555 1_555
O39 W15 1_555 1_555
O41 W12 1_555 1_555
O51 W15 1_555 1_555
O59 W12 1_555 1_555
W15 O46 1_555 1_555
C6 H5 1_555 1_555
C7 C6 1_555 1_555
H6 C7 1_555 1_555
C9 C8 1_555 1_555
H7 C9 1_555 1_555
C10 C9 1_555 1_555
H8 C10 1_555 1_555
N2 C6 1_555 1_555
O72 N2 1_555 1_555
Cu9 O72 1_555 1_555
C7 C8 1_555 1_555
C10 N2 1_555 1_555
O76 N10 1_555 1_555
N10 C46 1_555 1_555
C46 H41 1_555 1_555
C47 C46 1_555 1_555
H42 C47 1_555 1_555
C49 C48 1_555 1_555
H43 C49 1_555 1_555
C50 N10 1_555 1_555
H44 C50 1_555 1_555
Cu9 O76 1_555 1_555
C47 C48 1_555 1_555
C49 C50 1_555 1_555
O67 N4 1_555 1_555
C16 H13 1_555 1_555
C17 C16 1_555 1_555
C19 C18 1_555 1_555
C20 C19 1_555 1_555
H16 C20 1_555 1_555
N4 C16 1_555 1_555
Cu3 O77 1_555 1_555
Cu9 O67 1_555 1_555
O77 N11 1_555 1_555
O78 Cu3 1_555 1_555
O80 Cu9 1_555 1_555
O82 Cu9 1_555 1_555
O83 Cu3 1_555 1_555
C51 H45 1_555 1_555
C52 C51 1_555 1_555
H46 C52 1_555 1_555
C53 C52 1_555 1_555
C54 C53 1_555 1_555
H47 C54 1_555 1_555
C55 C54 1_555 1_555
H48 C55 1_555 1_555
H55 C64 1_555 1_555
C65 C64 1_555 1_555
H56 C65 1_555 1_555
C71 H61 1_555 1_555
C72 C71 1_555 1_555
H62 C72 1_555 1_555
C73 C72 1_555 1_555
C74 C73 1_555 1_555
H63 C74 1_555 1_555
C75 C74 1_555 1_555
H64 C75 1_555 1_555
C81 H69 1_555 1_555
C82 C81 1_555 1_555
H70 C82 1_555 1_555
C83 C82 1_555 1_555
C84 C83 1_555 1_555
H71 C84 1_555 1_555
C85 C84 1_555 1_555
H72 C85 1_555 1_555
C86 H73 1_555 1_555
C87 C86 1_555 1_555
H74 C87 1_555 1_555
C88 C83 1_555 1_555
C89 C88 1_555 1_555
H75 C89 1_555 1_555
C90 C89 1_555 1_555
H76 C90 1_555 1_555
N11 C51 1_555 1_555
N13 O78 1_555 1_555
N15 O80 1_555 1_555
N17 O82 1_555 1_555
N18 O83 1_555 1_555
O85 Cu9 1_555 1_555
H77 O85 1_555 1_555
H78 O85 1_555 1_555
O86 Cu3 1_555 1_555
H79 O86 1_555 1_555
H80 O86 1_555 1_555
O88 Cu3 1_555 1_555
C17 C18 1_555 1_555
C20 N4 1_555 1_555
C55 N11 1_555 1_555
C65 N13 1_555 1_555
C71 N15 1_555 1_555
C75 N15 1_555 1_555
C81 N17 1_555 1_555
C85 N17 1_555 1_555
C86 N18 1_555 1_555
C87 C88 1_555 1_555
C90 N18 1_555 1_555
O88 N16 1_555 1_555
C76 H65 1_555 1_555
C77 C76 1_555 1_555
H66 C77 1_555 1_555
C79 C78 1_555 1_555
H67 C79 1_555 1_555
C80 C79 1_555 1_555
H68 C80 1_555 1_555
N16 C76 1_555 1_555
C77 C78 1_555 1_555
C80 N16 1_555 1_555
C11 H9 1_555 1_555
C12 C11 1_555 1_555
H10 C12 1_555 1_555
C13 C12 1_555 1_555
O69 N6 1_555 1_555
C26 H21 1_555 1_555
C27 C26 1_555 1_555
H22 C27 1_555 1_555
C29 C28 1_555 1_555
H23 C29 1_555 1_555
C30 C29 1_555 1_555
H24 C30 1_555 1_555
N6 C26 1_555 1_555
Cu5 O69 1_555 1_555
C27 C28 1_555 1_555
C30 N6 1_555 1_555
Cu5 O65 1_555 1_555
Cu2 O68 1_555 1_555
O65 N1 1_555 1_555
O66 Cu5 1_555 1_555
O68 N5 1_555 1_555
O70 Cu2 1_555 1_555
O71 Cu5 1_555 1_555
C1 H1 1_555 1_555
C2 C1 1_555 1_555
H2 C2 1_555 1_555
C3 C2 1_555 1_555
C4 C3 1_555 1_555
H3 C4 1_555 1_555
C5 C4 1_555 1_555
H4 C5 1_555 1_555
H11 C14 1_555 1_555
C15 C14 1_555 1_555
H12 C15 1_555 1_555
C21 H17 1_555 1_555
C22 C21 1_555 1_555
H18 C22 1_555 1_555
C23 C22 1_555 1_555
C24 C23 1_555 1_555
H19 C24 1_555 1_555
C25 C24 1_555 1_555
H20 C25 1_555 1_555
C31 H25 1_555 1_555
C32 C31 1_555 1_555
H26 C32 1_555 1_555
C33 C32 1_555 1_555
C34 C33 1_555 1_555
H27 C34 1_555 1_555
C35 C34 1_555 1_555
H28 C35 1_555 1_555
C36 H29 1_555 1_555
C37 C36 1_555 1_555
H30 C37 1_555 1_555
C38 C33 1_555 1_555
C39 C38 1_555 1_555
H31 C39 1_555 1_555
C40 C39 1_555 1_555
H32 C40 1_555 1_555
N1 C1 1_555 1_555
N3 O66 1_555 1_555
N5 C21 1_555 1_555
N7 O70 1_555 1_555
N8 O71 1_555 1_555
O73 Cu2 1_555 1_555
H33 O73 1_555 1_555
H34 O73 1_555 1_555
O74 Cu2 1_555 1_555
O75 Cu5 1_555 1_555
H35 O75 1_555 1_555
H36 O75 1_555 1_555
N9 O74 1_555 1_555
C41 N9 1_555 1_555
H37 C41 1_555 1_555
C42 C41 1_555 1_555
H38 C42 1_555 1_555
C43 C42 1_555 1_555
C44 C43 1_555 1_555
H39 C44 1_555 1_555
C45 N9 1_555 1_555
H40 C45 1_555 1_555
O79 Cu2 1_555 1_555
C66 H57 1_555 1_555
C67 C66 1_555 1_555
C69 C68 1_555 1_555
C70 C69 1_555 1_555
H60 C70 1_555 1_555
N14 O79 1_555 1_555
O90 Cu2 1_555 1_555
C5 N1 1_555 1_555
C15 N3 1_555 1_555
C25 N5 1_555 1_555
C31 N7 1_555 1_555
C35 N7 1_555 1_555
C36 N8 1_555 1_555
C37 C38 1_555 1_555
C40 N8 1_555 1_555
C44 C45 1_555 1_555
C66 N14 1_555 1_555
C67 C68 1_555 1_555
C70 N14 1_555 1_555
C56 H49 1_555 1_555
C57 C56 1_555 1_555
H50 C57 1_555 1_555
C59 C58 1_555 1_555
H51 C59 1_555 1_555
C60 C59 1_555 1_555
H52 C60 1_555 1_555
N12 C56 1_555 1_555
O90 N12 1_555 1_555
C57 C58 1_555 1_555
C60 N12 1_555 1_555
C61 H53 1_555 1_555
C62 C61 1_555 1_555
H54 C62 1_555 1_555
C63 C62 1_555 1_555

#END
