
###############################################################################
#
# This file contains modified crystal structure data generated from the
# MOF subset of the Cambridge Structural Database (CSD) v543 
# hosted by the Cambridge Crystallographic Data Centre (CCDC).
#
# This work is licensed under the Creative Commons
# Attribution-NonCommercial-ShareAlike 4.0 International License.
# To view a copy of this license, visit
# http://creativecommons.org/licenses/by-nc-sa/4.0/
# or send a letter to
# Creative Commons, PO Box 1866, Mountain View, CA 94042, USA.
#
# CIF created using the CSD Python API on 29 September 2022
# The structure has been converted into the P1 space group
# The structure has a 3D framework
# The original CSD entry ENEQOF is in the triclinic crystal system
# The framework has been calculated to contain at least 10.0% void space
# The void calculation uses a probe of radius 1.32A, grid spacing 0.4
# The framework is charged, counterions have been retained in the structure
#
###############################################################################

data_ENEQOF
_chemical_formula_moiety         '(C90 H80 Cu4 N18 O86 W20)n'
_symmetry_cell_setting           triclinic
_symmetry_space_group_name_H-M   'P 1'
_symmetry_Int_Tables_number      1
_space_group_name_Hall           'P 1'
loop_
_symmetry_equiv_pos_site_id
_symmetry_equiv_pos_as_xyz
1 x,y,z
_cell_length_a                   12.8423(8)
_cell_length_b                   12.9467(8)
_cell_length_c                   23.9678(14)
_cell_angle_alpha                81.4810(10)
_cell_angle_beta                 86.3570(10)
_cell_angle_gamma                70.6300(10)
_cell_volume                     3717.53
loop_
_atom_site_label
_atom_site_type_symbol
_atom_site_fract_x
_atom_site_fract_y
_atom_site_fract_z
_atom_site_U_iso_or_equiv
_atom_site_thermal_displace_type
W1 W 0.17943(5) 0.05207(5) 0.43281(3) 0.0141 Uani
W2 W 0.14177(5) 0.07806(5) 0.56660(3) 0.0131 Uani
O3 O 0.2260(9) 0.0512(9) 0.6223(4) 0.0195 Uani
O8 O 0.2432(9) 0.0240(9) 0.5063(4) 0.0168 Uani
O10 O 0.0608(9) 0.1180(8) 0.3794(4) 0.0149 Uani
O11 O 0.1495(9) 0.2238(8) 0.5393(4) 0.0151 Uani
O13 O 0.1844(9) 0.2049(9) 0.4307(4) 0.0150 Uani
O14 O 0.2934(9) 0.0155(10) 0.3907(5) 0.0228 Uani
W10 W 0.07374(5) 0.29901(5) 0.47139(3) 0.0154 Uani
O21 O 0.0306(8) 0.1389(8) 0.4875(4) 0.0111 Uani
O31 O 0.1040(10) 0.4194(9) 0.4609(5) 0.0281 Uani
W3 W 0.08007(5) 0.80956(5) 0.58977(3) 0.0149 Uani
W4 W 0.11785(5) 0.78230(5) 0.45633(3) 0.0135 Uani
O1 O 0.1064(8) 0.9453(8) 0.5747(4) 0.0119 Uani
O2 O 0.1446(8) 0.9222(8) 0.4462(4) 0.0119 Uani
O4 O 0.1816(8) 0.7576(8) 0.5291(4) 0.0115 Uani
O6 O 0.0282(9) 0.6864(8) 0.5867(4) 0.0166 Uani
O7 O 0.0585(9) 0.6677(9) 0.4793(5) 0.0186 Uani
O9 O 0.2244(9) 0.7130(9) 0.4158(4) 0.0179 Uani
O16 O 0.1587(10) 0.7511(9) 0.6486(5) 0.0241 Uani
O28 O 0.0023(8) 0.8490(8) 0.4033(4) 0.0124 Uani
O12 O 0.9977(8) 0.1510(8) 0.5967(4) 0.0124 Uani
W8 W 0.91993(5) 0.19044(5) 0.41023(3) 0.0149 Uani
W9 W 0.88215(5) 0.21770(5) 0.54367(3) 0.0135 Uani
O17 O 0.8936(8) 0.0547(8) 0.4253(4) 0.0119 Uani
O18 O 0.8554(8) 0.0778(8) 0.5538(4) 0.0119 Uani
O20 O 0.8184(8) 0.2424(8) 0.4709(4) 0.0115 Uani
O22 O 0.9718(9) 0.3136(8) 0.4133(4) 0.0166 Uani
O23 O 0.9415(9) 0.3323(9) 0.5207(5) 0.0186 Uani
O25 O 0.7756(9) 0.2870(9) 0.5842(4) 0.0179 Uani
O32 O 0.8413(10) 0.2489(9) 0.3514(5) 0.0241 Uani
W5 W 0.92626(5) 0.70099(5) 0.52861(3) 0.0154 Uani
O5 O 0.9694(8) 0.8611(8) 0.5125(4) 0.0111 Uani
O15 O 0.8960(10) 0.5806(9) 0.5391(5) 0.0281 Uani
W6 W 0.82057(5) 0.94793(5) 0.56719(3) 0.0141 Uani
W7 W 0.85823(5) 0.92194(5) 0.43340(3) 0.0131 Uani
O19 O 0.7740(9) 0.9488(9) 0.3777(4) 0.0195 Uani
O24 O 0.7568(9) 0.9760(9) 0.4937(4) 0.0168 Uani
O26 O 0.9392(9) 0.8820(8) 0.6206(4) 0.0149 Uani
O27 O 0.8505(9) 0.7762(8) 0.4607(4) 0.0151 Uani
O29 O 0.8156(9) 0.7951(9) 0.5693(4) 0.0150 Uani
O30 O 0.7066(9) 0.9845(10) 0.6093(5) 0.0228 Uani
W12 W 0.15355(6) 0.58086(6) 0.05362(3) 0.0208 Uani
W15 W 0.08582(6) 0.31653(6) 0.09318(3) 0.0219 Uani
O33 O 0.1152(10) 0.4506(10) 0.0690(5) 0.0261 Uani
O36 O 0.0174(9) 0.6612(9) 0.0871(5) 0.0199 Uani
O39 O 0.1735(10) 0.2674(10) 0.1486(5) 0.0286 Uani
O41 O 0.2452(10) 0.5565(11) 0.1056(5) 0.0304 Uani
O46 O 0.0293(9) 0.1937(9) 0.0983(5) 0.0244 Uani
O51 O 0.1777(9) 0.2567(10) 0.0312(4) 0.0200 Uani
O59 O 0.1649(10) 0.7236(10) 0.0197(5) 0.0264 Uani
W16 W 0.17372(5) 0.53766(6) 0.92192(3) 0.0185 Uani
W18 W 0.10524(6) 0.27186(6) 0.96187(3) 0.0214 Uani
W19 W 0.08260(6) 0.79222(6) 0.95363(3) 0.0256 Uani
O50 O 0.1376(9) 0.4119(9) 0.9425(5) 0.0202 Uani
O53 O 0.2451(9) 0.5202(9) 0.9918(5) 0.0202 Uani
O54 O 0.2811(10) 0.4939(10) 0.8757(5) 0.0259 Uani
O56 O 0.1829(10) 0.6913(10) 0.9126(5) 0.0272 Uani
O58 O 0.0489(9) 0.6024(10) 0.8733(5) 0.0210 Uani
O60 O 0.0347(9) 0.6362(9) 0.9791(5) 0.0207 Uani
O61 O 0.2067(10) 0.1968(10) 0.9201(5) 0.0274 Uani
O63 O 0.0418(10) 0.1651(9) 0.9932(5) 0.0259 Uani
O64 O 0.1181(12) 0.9095(11) 0.9357(6) 0.0412 Uani
W11 W 0.82628(5) 0.46234(6) 0.07808(3) 0.0185 Uani
W13 W 0.89476(6) 0.72814(6) 0.03813(3) 0.0214 Uani
W14 W 0.91740(6) 0.20778(6) 0.04637(3) 0.0256 Uani
O34 O 0.8624(9) 0.5881(9) 0.0575(5) 0.0202 Uani
O37 O 0.7549(9) 0.4798(9) 0.0082(5) 0.0202 Uani
O38 O 0.7189(10) 0.5061(10) 0.1243(5) 0.0259 Uani
O40 O 0.8171(10) 0.3087(10) 0.0874(5) 0.0272 Uani
O42 O 0.9511(9) 0.3976(10) 0.1267(5) 0.0210 Uani
O44 O 0.9653(9) 0.3638(9) 0.0209(5) 0.0207 Uani
O45 O 0.7933(10) 0.8032(10) 0.0799(5) 0.0274 Uani
O47 O 0.9582(10) 0.8349(9) 0.0068(5) 0.0259 Uani
O48 O 0.8819(12) 0.0905(11) 0.0643(6) 0.0412 Uani
O35 O 0.8223(9) 0.7433(10) 0.9688(4) 0.0200 Uani
O43 O 0.8351(10) 0.2764(10) 0.9803(5) 0.0264 Uani
W17 W 0.84645(6) 0.41914(6) 0.94638(3) 0.0208 Uani
W20 W 0.91418(6) 0.68347(6) 0.90682(3) 0.0219 Uani
O49 O 0.8848(10) 0.5494(10) 0.9310(5) 0.0261 Uani
O52 O 0.9826(9) 0.3388(9) 0.9129(5) 0.0199 Uani
O55 O 0.8265(10) 0.7326(10) 0.8514(5) 0.0286 Uani
O57 O 0.7548(10) 0.4435(11) 0.8944(5) 0.0304 Uani
O62 O 0.9707(9) 0.8063(9) 0.9017(5) 0.0244 Uani
H14 H 0.0584 0.0736 0.7487 0.0590 Uiso
O67 O 0.3342(10) 0.7998(12) 0.8161(5) 0.0352 Uani
C16 C 0.1916(16) 0.951(2) 0.7780(11) 0.0600 Uani
H13 H 0.2351 0.9967 0.7804 0.0720 Uiso
C17 C 0.0869(15) 0.9960(18) 0.7597(11) 0.0490 Uani
C18 C 0.0203(14) 0.9335(15) 0.7566(7) 0.0255 Uani
C19 C 0.0684(14) 0.8208(15) 0.7706(7) 0.0274 Uani
H15 H 0.0263 0.7736 0.7682 0.0330 Uiso
C20 C 0.1761(14) 0.7756(17) 0.7881(8) 0.0312 Uani
H16 H 0.2087 0.6978 0.7967 0.0380 Uiso
N4 N 0.2339(11) 0.8420(13) 0.7927(6) 0.0298 Uani
Cu9 Cu 0.47161(16) 0.76603(19) 0.77120(8) 0.0236 Uani
O76 O 0.5327(13) 0.8872(12) 0.8144(5) 0.0458 Uani
C46 C 0.427(2) 0.9345(17) 0.8930(9) 0.0489 Uani
H41 H 0.3662 0.9241 0.8763 0.0590 Uiso
C47 C 0.4155(19) 0.9649(16) 0.9447(8) 0.0443 Uani
H42 H 0.3465 0.9769 0.9640 0.0530 Uiso
C48 C 0.5058(19) 0.9801(17) 0.9718(7) 0.0370 Uani
C49 C 0.604(2) 0.9649(18) 0.9395(8) 0.0456 Uani
H43 H 0.6659 0.9741 0.9553 0.0550 Uiso
C50 C 0.612(2) 0.9380(18) 0.8878(9) 0.0445 Uani
H44 H 0.6786 0.9321 0.8664 0.0540 Uiso
N10 N 0.5255(16) 0.9184(15) 0.8643(7) 0.0438 Uani
O81 O 0.4295(10) 0.8156(12) 0.2041(5) 0.0389 Uani
C76 C 0.5401(15) 0.7887(15) 0.1245(8) 0.0283 Uani
H65 H 0.5839 0.8264 0.1376 0.0340 Uiso
C77 C 0.5627(15) 0.7532(16) 0.0727(6) 0.0266 Uani
H66 H 0.6248 0.7625 0.0515 0.0320 Uiso
C78 C 0.4981(13) 0.7047(16) 0.0507(8) 0.0292 Uani
C79 C 0.4192(16) 0.678(2) 0.0881(8) 0.0408 Uani
H67 H 0.3771 0.6365 0.0767 0.0490 Uiso
C80 C 0.4030(18) 0.709(2) 0.1396(8) 0.0473 Uani
H68 H 0.3515 0.6874 0.1647 0.0570 Uiso
N16 N 0.4585(12) 0.7713(14) 0.1565(6) 0.0334 Uani
Cu6 Cu 0.52478(16) 0.76445(18) 0.26893(8) 0.0214 Uani
C6 C 0.7389(16) 0.5735(17) 0.7636(7) 0.0331 Uani
H5 H 0.6877 0.5415 0.7829 0.0400 Uiso
C7 C 0.8496(14) 0.5211(15) 0.7704(7) 0.0263 Uani
H6 H 0.8740 0.4534 0.7950 0.0320 Uiso
C8 C 0.9271(14) 0.5630(15) 0.7427(6) 0.0215 Uani
C9 C 0.8857(15) 0.6658(15) 0.7083(7) 0.0252 Uani
H7 H 0.9353 0.7014 0.6905 0.0300 Uiso
C10 C 0.7749(13) 0.7142(14) 0.7005(7) 0.0222 Uani
H8 H 0.7488 0.7794 0.6743 0.0270 Uiso
N2 N 0.7018(12) 0.6714(13) 0.7293(6) 0.0266 Uani
O75 O 0.5978(9) 0.7188(10) 0.7188(5) 0.0294 Uani
O77 O 0.6195(9) 0.6434(10) 0.2311(5) 0.0257 Uani
O78 O 0.4200(10) 0.8825(10) 0.3056(5) 0.0286 Uani
O80 O 0.5323(9) 0.6361(10) 0.8261(4) 0.0223 Uani
O82 O 0.4059(9) 0.8911(10) 0.7141(4) 0.0228 Uani
O83 O 0.6031(9) 0.6981(10) 0.3392(5) 0.0246 Uani
C51 C 0.7974(15) 0.6298(16) 0.2027(7) 0.0282 Uani
H45 H 0.7696 0.6893 0.1734 0.0340 Uiso
C52 C 0.9102(13) 0.5755(14) 0.2068(7) 0.0218 Uani
H46 H 0.9588 0.5953 0.1790 0.0260 Uiso
C53 C 0.9526(13) 0.4925(15) 0.2511(7) 0.0215 Uani
C54 C 0.8774(14) 0.4650(14) 0.2888(7) 0.0222 Uani
H47 H 0.9033 0.4071 0.3191 0.0270 Uiso
C55 C 0.7658(13) 0.5193(14) 0.2837(7) 0.0217 Uani
H48 H 0.7155 0.5010 0.3110 0.0260 Uiso
C64 C 0.1363(14) 0.9160(16) 0.2941(8) 0.0327 Uani
H55 H 0.0866 0.8780 0.3089 0.0390 Uiso
C65 C 0.2454(14) 0.8713(17) 0.3061(8) 0.0310 Uani
H56 H 0.2709 0.8007 0.3282 0.0370 Uiso
C71 C 0.4406(15) 0.6350(14) 0.9127(7) 0.0233 Uani
H61 H 0.3859 0.6143 0.8966 0.0280 Uiso
C72 C 0.4329(13) 0.6490(15) 0.9682(7) 0.0230 Uani
H62 H 0.3732 0.6372 0.9907 0.0270 Uiso
C73 C 0.5094(14) 0.6796(13) 0.9917(6) 0.0183 Uani
C74 C 0.5997(13) 0.6882(14) 0.9586(6) 0.0193 Uani
H63 H 0.6580 0.7033 0.9747 0.0230 Uiso
C75 C 0.6047(14) 0.6750(14) 0.9034(7) 0.0215 Uani
H64 H 0.6655 0.6833 0.8807 0.0250 Uiso
C81 C 0.4958(14) 0.9181(15) 0.6297(7) 0.0265 Uani
H69 H 0.5265 0.9642 0.6457 0.0320 Uiso
C82 C 0.5193(12) 0.8980(14) 0.5739(7) 0.0194 Uani
H70 H 0.5681 0.9293 0.5518 0.0230 Uiso
C83 C 0.4715(13) 0.8322(13) 0.5503(7) 0.0180 Uani
C84 C 0.4020(14) 0.7876(15) 0.5844(7) 0.0254 Uani
H71 H 0.3678 0.7429 0.5696 0.0310 Uiso
C85 C 0.3816(13) 0.8073(14) 0.6396(7) 0.0193 Uani
H72 H 0.3342 0.7759 0.6629 0.0230 Uiso
C86 C 0.4726(12) 0.7249(13) 0.4134(6) 0.0154 Uani
H73 H 0.4296 0.6928 0.3952 0.0190 Uiso
C87 C 0.4409(14) 0.7577(13) 0.4659(6) 0.0182 Uani
H74 H 0.3755 0.7485 0.4834 0.0210 Uiso
C88 C 0.5015(12) 0.8029(13) 0.4927(6) 0.0139 Uani
C89 C 0.5959(13) 0.8176(14) 0.4652(7) 0.0201 Uani
H75 H 0.6396 0.8498 0.4827 0.0240 Uiso
C90 C 0.6249(13) 0.7851(14) 0.4130(7) 0.0212 Uani
H76 H 0.6887 0.7960 0.3942 0.0250 Uiso
N11 N 0.7284(10) 0.5989(11) 0.2397(5) 0.0152 Uani
N13 N 0.3168(11) 0.9223(12) 0.2882(5) 0.0201 Uani
N15 N 0.5256(11) 0.6505(11) 0.8805(5) 0.0184 Uani
N17 N 0.4289(10) 0.8704(11) 0.6601(5) 0.0171 Uani
N18 N 0.5651(11) 0.7385(11) 0.3878(5) 0.0185 Uani
O84 O 0.6342(12) 0.8801(12) 0.2407(7) 0.0489 Uani
H77 H 0.7010 0.8452 0.2495 0.0590 Uiso
H78 H 0.6102 0.9375 0.2572 0.0740 Uiso
O85 O 0.4081(14) 0.6064(19) 0.7392(8) 0.0874 Uani
H79 H 0.3540 0.5990 0.7598 0.1340 Uiso
H80 H 0.4616 0.5459 0.7429 0.1340 Uiso
Cu1 Cu 0.47522(16) 0.23555(18) 0.73107(8) 0.0214 Uani
Cu2 Cu 0.52839(16) 0.23397(19) 0.22880(8) 0.0236 Uani
O65 O 0.3805(9) 0.3566(10) 0.7689(5) 0.0257 Uani
O66 O 0.5800(10) 0.1175(10) 0.6944(5) 0.0286 Uani
O68 O 0.4677(9) 0.3639(10) 0.1739(4) 0.0223 Uani
O70 O 0.5941(9) 0.1089(10) 0.2859(4) 0.0228 Uani
O71 O 0.3969(9) 0.3019(10) 0.6608(5) 0.0246 Uani
O72 O 0.4673(13) 0.1128(12) 0.1856(5) 0.0458 Uani
C1 C 0.2026(15) 0.3702(16) 0.7973(7) 0.0282 Uani
H1 H 0.2304 0.3107 0.8266 0.0340 Uiso
C2 C 0.0898(13) 0.4245(14) 0.7932(7) 0.0218 Uani
H2 H 0.0412 0.4047 0.8210 0.0260 Uiso
C3 C 0.0474(13) 0.5075(15) 0.7489(7) 0.0215 Uani
C4 C 0.1226(14) 0.5350(14) 0.7112(7) 0.0222 Uani
H3 H 0.0967 0.5929 0.6809 0.0270 Uiso
C5 C 0.2342(13) 0.4807(14) 0.7163(7) 0.0217 Uani
H4 H 0.2845 0.4990 0.6890 0.0260 Uiso
C14 C 0.8637(14) 0.0840(16) 0.7059(8) 0.0327 Uani
H11 H 0.9134 0.1220 0.6911 0.0390 Uiso
C15 C 0.7546(14) 0.1287(17) 0.6939(8) 0.0310 Uani
H12 H 0.7291 0.1993 0.6718 0.0370 Uiso
C21 C 0.5594(15) 0.3650(14) 0.0873(7) 0.0233 Uani
H17 H 0.6141 0.3857 0.1034 0.0280 Uiso
C22 C 0.5671(13) 0.3510(15) 0.0318(7) 0.0230 Uani
H18 H 0.6268 0.3628 0.0093 0.0270 Uiso
C23 C 0.4906(14) 0.3204(13) 0.0083(6) 0.0183 Uani
C24 C 0.4003(13) 0.3118(14) 0.0414(6) 0.0193 Uani
H19 H 0.3420 0.2967 0.0253 0.0230 Uiso
C25 C 0.3953(14) 0.3250(14) 0.0966(7) 0.0215 Uani
H20 H 0.3345 0.3167 0.1193 0.0250 Uiso
C31 C 0.5042(14) 0.0819(15) 0.3703(7) 0.0265 Uani
H25 H 0.4735 0.0358 0.3543 0.0320 Uiso
C32 C 0.4807(12) 0.1020(14) 0.4261(7) 0.0194 Uani
H26 H 0.4319 0.0707 0.4482 0.0230 Uiso
C33 C 0.5285(13) 0.1678(13) 0.4497(7) 0.0180 Uani
C34 C 0.5980(14) 0.2124(15) 0.4156(7) 0.0254 Uani
H27 H 0.6322 0.2571 0.4304 0.0310 Uiso
C35 C 0.6184(13) 0.1927(14) 0.3604(7) 0.0193 Uani
H28 H 0.6658 0.2241 0.3371 0.0230 Uiso
C36 C 0.5274(12) 0.2751(13) 0.5866(6) 0.0154 Uani
H29 H 0.5704 0.3072 0.6048 0.0190 Uiso
C37 C 0.5591(14) 0.2423(13) 0.5341(6) 0.0182 Uani
H30 H 0.6245 0.2515 0.5166 0.0210 Uiso
C38 C 0.4985(12) 0.1971(13) 0.5073(6) 0.0139 Uani
C39 C 0.4041(13) 0.1824(14) 0.5348(7) 0.0201 Uani
H31 H 0.3604 0.1502 0.5173 0.0240 Uiso
C40 C 0.3751(13) 0.2149(14) 0.5870(7) 0.0212 Uani
H32 H 0.3113 0.2040 0.6058 0.0250 Uiso
C41 C 0.573(2) 0.0655(17) 0.1070(9) 0.0489 Uani
H33 H 0.6338 0.0759 0.1237 0.0590 Uiso
C42 C 0.5845(19) 0.0351(16) 0.0553(8) 0.0443 Uani
H34 H 0.6535 0.0231 0.0360 0.0530 Uiso
C43 C 0.4942(19) 0.0199(17) 0.0282(7) 0.0370 Uani
C44 C 0.396(2) 0.0351(18) 0.0605(8) 0.0456 Uani
H35 H 0.3341 0.0259 0.0447 0.0550 Uiso
C45 C 0.388(2) 0.0620(18) 0.1122(9) 0.0445 Uani
H36 H 0.3214 0.0679 0.1336 0.0540 Uiso
N1 N 0.2716(10) 0.4011(11) 0.7603(5) 0.0152 Uani
N3 N 0.6832(11) 0.0777(12) 0.7118(5) 0.0201 Uani
N5 N 0.4744(11) 0.3495(11) 0.1195(5) 0.0184 Uani
N7 N 0.5711(10) 0.1296(11) 0.3399(5) 0.0171 Uani
N8 N 0.4349(11) 0.2615(11) 0.6122(5) 0.0185 Uani
N9 N 0.4745(16) 0.0816(15) 0.1357(7) 0.0438 Uani
O73 O 0.3658(12) 0.1199(12) 0.7593(7) 0.0489 Uani
H37 H 0.2990 0.1548 0.7505 0.0590 Uiso
H38 H 0.3898 0.0625 0.7428 0.0740 Uiso
O74 O 0.5919(14) 0.3936(19) 0.2608(8) 0.0874 Uani
H39 H 0.6460 0.4010 0.2402 0.1340 Uiso
H40 H 0.5384 0.4541 0.2571 0.1340 Uiso
C56 C 0.2611(16) 0.4265(17) 0.2364(7) 0.0331 Uani
H49 H 0.3123 0.4585 0.2171 0.0400 Uiso
C57 C 0.1504(14) 0.4789(15) 0.2296(7) 0.0263 Uani
H50 H 0.1260 0.5466 0.2050 0.0320 Uiso
C58 C 0.0729(14) 0.4370(15) 0.2573(6) 0.0215 Uani
C59 C 0.1143(15) 0.3342(15) 0.2917(7) 0.0252 Uani
H51 H 0.0647 0.2986 0.3095 0.0300 Uiso
C60 C 0.2251(13) 0.2858(14) 0.2995(7) 0.0222 Uani
H52 H 0.2512 0.2206 0.3257 0.0270 Uiso
N12 N 0.2982(12) 0.3286(13) 0.2707(6) 0.0266 Uani
O86 O 0.4022(9) 0.2812(10) 0.2812(5) 0.0294 Uani
O88 O 0.6658(10) 0.2002(12) 0.1839(5) 0.0352 Uani
O89 O 0.5705(10) 0.1844(12) 0.7959(5) 0.0389 Uani
C26 C 0.4599(15) 0.2113(15) 0.8755(8) 0.0283 Uani
H21 H 0.4161 0.1736 0.8624 0.0340 Uiso
C27 C 0.4373(15) 0.2468(16) 0.9273(6) 0.0266 Uani
H22 H 0.3752 0.2375 0.9485 0.0320 Uiso
C28 C 0.5019(13) 0.2953(16) 0.9493(8) 0.0292 Uani
C29 C 0.5808(16) 0.322(2) 0.9119(8) 0.0408 Uani
H23 H 0.6229 0.3635 0.9233 0.0490 Uiso
C30 C 0.5970(18) 0.291(2) 0.8604(8) 0.0473 Uani
H24 H 0.6485 0.3126 0.8353 0.0570 Uiso
N6 N 0.5415(12) 0.2287(14) 0.8435(6) 0.0334 Uani
C66 C 0.8084(16) 0.049(2) 0.2220(11) 0.0600 Uani
H57 H 0.7649 0.0033 0.2196 0.0720 Uiso
C67 C 0.9131(15) 0.0040(18) 0.2403(11) 0.0490 Uani
C68 C 0.9797(14) 0.0665(15) 0.2434(7) 0.0255 Uani
C69 C 0.9316(14) 0.1792(15) 0.2294(7) 0.0274 Uani
H59 H 0.9737 0.2264 0.2318 0.0330 Uiso
C70 C 0.8239(14) 0.2244(17) 0.2119(8) 0.0312 Uani
H60 H 0.7913 0.3022 0.2033 0.0380 Uiso
N14 N 0.7661(11) 0.1580(13) 0.2073(6) 0.0298 Uani
C11 C 0.7145(15) 0.9797(15) 0.7430(7) 0.0248 Uani
H9 H 0.6624 0.9427 0.7545 0.0300 Uiso
C12 C 0.8256(15) 0.9308(17) 0.7591(7) 0.0293 Uani
H10 H 0.8483 0.8623 0.7832 0.0350 Uiso
C13 C 0.9021(13) 0.9839(14) 0.7392(6) 0.0176 Uani
C61 C 0.2855(15) 0.0203(15) 0.2570(7) 0.0248 Uani
H53 H 0.3376 0.0573 0.2455 0.0300 Uiso
C62 C 0.1744(15) 0.0692(17) 0.2409(7) 0.0293 Uani
H54 H 0.1517 0.1377 0.2168 0.0350 Uiso
C63 C 0.0979(13) 0.0161(14) 0.2608(6) 0.0176 Uani
H58 H 0.9416 0.9264 0.2513 0.0590 Uiso
loop_
_atom_site_aniso_label
_atom_site_aniso_U_11
_atom_site_aniso_U_22
_atom_site_aniso_U_33
_atom_site_aniso_U_23
_atom_site_aniso_U_13
_atom_site_aniso_U_12
W1 0.0114 0.0161 0.0171 -0.0048 0.0037 -0.007
W2 0.0099 0.0134 0.0157 -0.0025 -0.0014 -0.0029
O3 0.027 0.012 0.02 0.004 -0.005 -0.009
O8 0.017 0.014 0.019 -0.008 0 -0.002
O10 0.017 0.011 0.012 -0.002 0.005 0.001
O11 0.02 0.011 0.018 -0.008 -0.002 -0.007
O13 0.018 0.016 0.014 0.003 0.001 -0.012
O14 0.019 0.029 0.023 -0.006 0.009 -0.012
W10 0.0154 0.0112 0.0213 -0.0011 -0.0012 -0.0068
O21 0.01 0.007 0.014 -0.001 0.005 -0.001
O31 0.038 0.013 0.036 -0.007 0.003 -0.011
W3 0.0148 0.0163 0.0145 0.0002 -0.0016 -0.007
W4 0.0097 0.0129 0.0175 -0.0037 0.0003 -0.0024
O1 0.014 0.004 0.016 0.005 -0.003 -0.003
O2 0.015 0.013 0.013 0 -0.002 -0.012
O4 0.005 0.014 0.011 0.001 -0.002 0.002
O6 0.021 0.003 0.026 0.005 -0.012 -0.005
O7 0.017 0.012 0.028 -0.004 0 -0.006
O9 0.025 0.016 0.019 -0.003 0 -0.015
O16 0.035 0.021 0.021 0.004 -0.007 -0.017
O28 0.009 0.015 0.017 -0.006 -0.003 -0.007
O12 0.009 0.015 0.017 -0.006 -0.003 -0.007
W8 0.0148 0.0163 0.0145 0.0002 -0.0016 -0.007
W9 0.0097 0.0129 0.0175 -0.0037 0.0003 -0.0024
O17 0.014 0.004 0.016 0.005 -0.003 -0.003
O18 0.015 0.013 0.013 0 -0.002 -0.012
O20 0.005 0.014 0.011 0.001 -0.002 0.002
O22 0.021 0.003 0.026 0.005 -0.012 -0.005
O23 0.017 0.012 0.028 -0.004 0 -0.006
O25 0.025 0.016 0.019 -0.003 0 -0.015
O32 0.035 0.021 0.021 0.004 -0.007 -0.017
W5 0.0154 0.0112 0.0213 -0.0011 -0.0012 -0.0068
O5 0.01 0.007 0.014 -0.001 0.005 -0.001
O15 0.038 0.013 0.036 -0.007 0.003 -0.011
W6 0.0114 0.0161 0.0171 -0.0048 0.0037 -0.007
W7 0.0099 0.0134 0.0157 -0.0025 -0.0014 -0.0029
O19 0.027 0.012 0.02 0.004 -0.005 -0.009
O24 0.017 0.014 0.019 -0.008 0 -0.002
O26 0.017 0.011 0.012 -0.002 0.005 0.001
O27 0.02 0.011 0.018 -0.008 -0.002 -0.007
O29 0.018 0.016 0.014 0.003 0.001 -0.012
O30 0.019 0.029 0.023 -0.006 0.009 -0.012
W12 0.0162 0.027 0.0199 -0.0022 0.0023 -0.0088
W15 0.0174 0.0229 0.021 0.0043 0.0003 -0.004
O33 0.025 0.025 0.029 -0.005 0.008 -0.01
O36 0.011 0.019 0.028 -0.008 0.002 -0.001
O39 0.021 0.029 0.034 0.008 -0.001 -0.011
O41 0.028 0.043 0.026 -0.008 0.006 -0.019
O46 0.018 0.013 0.035 0.003 0.01 0
O51 0.016 0.028 0.015 0.001 0.007 -0.009
O59 0.034 0.026 0.028 -0.006 0.007 -0.022
W16 0.0143 0.0213 0.0199 -0.0017 0.0043 -0.0071
W18 0.0177 0.0197 0.0251 -0.0033 0.0061 -0.005
W19 0.0277 0.0197 0.0307 -0.0019 0.01 -0.0119
O50 0.025 0.016 0.021 -0.002 0.006 -0.01
O53 0.014 0.018 0.025 -0.002 0.007 -0.002
O54 0.021 0.028 0.026 -0.007 0.011 -0.005
O56 0.028 0.026 0.029 -0.001 0.007 -0.013
O58 0.013 0.028 0.021 -0.002 0.001 -0.006
O60 0.016 0.022 0.023 -0.004 0.008 -0.006
O61 0.021 0.032 0.029 -0.006 0.012 -0.01
O63 0.027 0.007 0.039 -0.001 0.015 -0.003
O64 0.052 0.03 0.052 -0.011 0.022 -0.029
W11 0.0143 0.0213 0.0199 -0.0017 0.0043 -0.0071
W13 0.0177 0.0197 0.0251 -0.0033 0.0061 -0.005
W14 0.0277 0.0197 0.0307 -0.0019 0.01 -0.0119
O34 0.025 0.016 0.021 -0.002 0.006 -0.01
O37 0.014 0.018 0.025 -0.002 0.007 -0.002
O38 0.021 0.028 0.026 -0.007 0.011 -0.005
O40 0.028 0.026 0.029 -0.001 0.007 -0.013
O42 0.013 0.028 0.021 -0.002 0.001 -0.006
O44 0.016 0.022 0.023 -0.004 0.008 -0.006
O45 0.021 0.032 0.029 -0.006 0.012 -0.01
O47 0.027 0.007 0.039 -0.001 0.015 -0.003
O48 0.052 0.03 0.052 -0.011 0.022 -0.029
O35 0.016 0.028 0.015 0.001 0.007 -0.009
O43 0.034 0.026 0.028 -0.006 0.007 -0.022
W17 0.0162 0.027 0.0199 -0.0022 0.0023 -0.0088
W20 0.0174 0.0229 0.021 0.0043 0.0003 -0.004
O49 0.025 0.025 0.029 -0.005 0.008 -0.01
O52 0.011 0.019 0.028 -0.008 0.002 -0.001
O55 0.021 0.029 0.034 0.008 -0.001 -0.011
O57 0.028 0.043 0.026 -0.008 0.006 -0.019
O62 0.018 0.013 0.035 0.003 0.01 0
O67 0.013 0.052 0.027 0.005 0 0.003
C16 0.012 0.046 0.1 0.034 -0.005 0.002
C17 0.012 0.033 0.099 0.011 -0.005 -0.011
C18 0.011 0.031 0.025 -0.004 0.005 0.005
C19 0.017 0.031 0.034 -0.016 0.012 -0.005
C20 0.011 0.039 0.037 -0.013 -0.006 0.005
N4 0.008 0.039 0.031 0.001 -0.001 0.005
Cu9 0.0096 0.0363 0.0143 0.001 0.0002 0.0046
O76 0.068 0.053 0.026 -0.02 0.009 -0.028
C46 0.069 0.033 0.037 -0.006 0.016 -0.009
C47 0.053 0.028 0.032 0.011 0.016 0.004
C48 0.052 0.041 0.014 -0.006 0.001 -0.009
C49 0.065 0.04 0.025 -0.006 0.002 -0.008
C50 0.053 0.043 0.034 -0.009 0.002 -0.01
N10 0.051 0.038 0.038 -0.01 0.007 -0.008
O81 0.015 0.065 0.02 -0.02 -0.011 0.017
C76 0.019 0.024 0.039 0.006 -0.014 -0.005
C77 0.021 0.049 0.008 -0.011 0 -0.006
C78 0.006 0.041 0.029 -0.004 0.002 0.007
C79 0.022 0.083 0.03 -0.016 0.008 -0.032
C80 0.041 0.094 0.02 -0.017 0.02 -0.039
N16 0.011 0.048 0.028 -0.012 -0.012 0.013
Cu6 0.013 0.0307 0.0135 -0.0062 -0.0006 0.0037
C6 0.029 0.047 0.019 -0.003 0.009 -0.009
C7 0.012 0.023 0.032 0.011 -0.001 0.004
C8 0.021 0.028 0.01 -0.007 0.006 0
C9 0.027 0.038 0.011 0.001 -0.001 -0.013
C10 0.014 0.019 0.023 0.013 -0.006 0.003
N2 0.016 0.032 0.017 0.002 0.003 0.009
O75 0.01 0.036 0.027 0 0 0.011
O77 0.011 0.04 0.023 -0.014 -0.005 0.001
O78 0.022 0.032 0.02 -0.002 0 0.006
O80 0.013 0.038 0.013 -0.008 -0.003 -0.002
O82 0.024 0.029 0.013 -0.004 -0.005 -0.004
O83 0.013 0.034 0.02 -0.014 -0.002 0.006
C51 0.027 0.035 0.011 -0.007 -0.001 0.007
C52 0.012 0.022 0.024 0.001 0.009 0.001
C53 0.01 0.038 0.015 -0.014 0.004 -0.002
C54 0.027 0.018 0.017 0.001 -0.004 -0.002
C55 0.006 0.026 0.025 -0.002 -0.001 0.005
C64 0.014 0.037 0.042 0.02 0.003 -0.013
C65 0.014 0.039 0.031 0 0.002 0.001
C71 0.027 0.018 0.018 -0.001 0.001 0.001
C72 0.008 0.041 0.021 -0.003 0 -0.01
C73 0.026 0.015 0.012 -0.003 0.002 -0.004
C74 0.014 0.036 0.008 0 0.003 -0.01
C75 0.017 0.026 0.027 0.001 -0.001 -0.016
C81 0.019 0.027 0.024 -0.001 -0.012 0.006
C82 0.004 0.026 0.024 0.001 -0.006 0
C83 0.008 0.019 0.022 -0.004 -0.002 0.003
C84 0.022 0.031 0.022 -0.005 0.002 -0.007
C85 0.01 0.023 0.023 -0.004 0.003 -0.003
C86 0.006 0.016 0.022 -0.002 -0.01 0.001
C87 0.029 0.019 0.012 -0.004 0.005 -0.015
C88 0.008 0.018 0.015 -0.002 -0.008 -0.002
C89 0.01 0.029 0.028 -0.018 -0.002 -0.009
C90 0.007 0.026 0.029 -0.008 0.003 -0.002
N11 0.006 0.019 0.014 -0.003 -0.005 0.006
N13 0.012 0.025 0.014 -0.002 0.001 0.006
N15 0.018 0.016 0.013 -0.001 -0.006 0.006
N17 0.009 0.018 0.016 -0.002 -0.002 0.007
N18 0.019 0.019 0.011 0.001 -0.011 0.003
O84 0.033 0.038 0.074 -0.005 0.013 -0.013
O85 0.037 0.15 0.093 -0.065 0.007 -0.035
Cu1 0.013 0.0307 0.0135 -0.0062 -0.0006 0.0037
Cu2 0.0096 0.0363 0.0143 0.001 0.0002 0.0046
O65 0.011 0.04 0.023 -0.014 -0.005 0.001
O66 0.022 0.032 0.02 -0.002 0 0.006
O68 0.013 0.038 0.013 -0.008 -0.003 -0.002
O70 0.024 0.029 0.013 -0.004 -0.005 -0.004
O71 0.013 0.034 0.02 -0.014 -0.002 0.006
O72 0.068 0.053 0.026 -0.02 0.009 -0.028
C1 0.027 0.035 0.011 -0.007 -0.001 0.007
C2 0.012 0.022 0.024 0.001 0.009 0.001
C3 0.01 0.038 0.015 -0.014 0.004 -0.002
C4 0.027 0.018 0.017 0.001 -0.004 -0.002
C5 0.006 0.026 0.025 -0.002 -0.001 0.005
C14 0.014 0.037 0.042 0.02 0.003 -0.013
C15 0.014 0.039 0.031 0 0.002 0.001
C21 0.027 0.018 0.018 -0.001 0.001 0.001
C22 0.008 0.041 0.021 -0.003 0 -0.01
C23 0.026 0.015 0.012 -0.003 0.002 -0.004
C24 0.014 0.036 0.008 0 0.003 -0.01
C25 0.017 0.026 0.027 0.001 -0.001 -0.016
C31 0.019 0.027 0.024 -0.001 -0.012 0.006
C32 0.004 0.026 0.024 0.001 -0.006 0
C33 0.008 0.019 0.022 -0.004 -0.002 0.003
C34 0.022 0.031 0.022 -0.005 0.002 -0.007
C35 0.01 0.023 0.023 -0.004 0.003 -0.003
C36 0.006 0.016 0.022 -0.002 -0.01 0.001
C37 0.029 0.019 0.012 -0.004 0.005 -0.015
C38 0.008 0.018 0.015 -0.002 -0.008 -0.002
C39 0.01 0.029 0.028 -0.018 -0.002 -0.009
C40 0.007 0.026 0.029 -0.008 0.003 -0.002
C41 0.069 0.033 0.037 -0.006 0.016 -0.009
C42 0.053 0.028 0.032 0.011 0.016 0.004
C43 0.052 0.041 0.014 -0.006 0.001 -0.009
C44 0.065 0.04 0.025 -0.006 0.002 -0.008
C45 0.053 0.043 0.034 -0.009 0.002 -0.01
N1 0.006 0.019 0.014 -0.003 -0.005 0.006
N3 0.012 0.025 0.014 -0.002 0.001 0.006
N5 0.018 0.016 0.013 -0.001 -0.006 0.006
N7 0.009 0.018 0.016 -0.002 -0.002 0.007
N8 0.019 0.019 0.011 0.001 -0.011 0.003
N9 0.051 0.038 0.038 -0.01 0.007 -0.008
O73 0.033 0.038 0.074 -0.005 0.013 -0.013
O74 0.037 0.15 0.093 -0.065 0.007 -0.035
C56 0.029 0.047 0.019 -0.003 0.009 -0.009
C57 0.012 0.023 0.032 0.011 -0.001 0.004
C58 0.021 0.028 0.01 -0.007 0.006 0
C59 0.027 0.038 0.011 0.001 -0.001 -0.013
C60 0.014 0.019 0.023 0.013 -0.006 0.003
N12 0.016 0.032 0.017 0.002 0.003 0.009
O86 0.01 0.036 0.027 0 0 0.011
O88 0.013 0.052 0.027 0.005 0 0.003
O89 0.015 0.065 0.02 -0.02 -0.011 0.017
C26 0.019 0.024 0.039 0.006 -0.014 -0.005
C27 0.021 0.049 0.008 -0.011 0 -0.006
C28 0.006 0.041 0.029 -0.004 0.002 0.007
C29 0.022 0.083 0.03 -0.016 0.008 -0.032
C30 0.041 0.094 0.02 -0.017 0.02 -0.039
N6 0.011 0.048 0.028 -0.012 -0.012 0.013
C66 0.012 0.046 0.1 0.034 -0.005 0.002
C67 0.012 0.033 0.099 0.011 -0.005 -0.011
C68 0.011 0.031 0.025 -0.004 0.005 0.005
C69 0.017 0.031 0.034 -0.016 0.012 -0.005
C70 0.011 0.039 0.037 -0.013 -0.006 0.005
N14 0.008 0.039 0.031 0.001 -0.001 0.005
C11 0.024 0.027 0.02 0 -0.006 -0.004
C12 0.024 0.038 0.021 -0.002 0.008 -0.006
C13 0.014 0.02 0.011 0 0.004 0.003
C61 0.024 0.027 0.02 0 -0.006 -0.004
C62 0.024 0.038 0.021 -0.002 0.008 -0.006
C63 0.014 0.02 0.011 0 0.004 0.003
loop_
_geom_bond_atom_site_label_1
_geom_bond_atom_site_label_2
_geom_bond_site_symmetry_1
_geom_bond_site_symmetry_2
O3 W2 1_555 1_555
O8 W1 1_555 1_555
O10 W1 1_555 1_555
O11 W2 1_555 1_555
O13 W1 1_555 1_555
O14 W1 1_555 1_555
W10 O11 1_555 1_555
O21 W1 1_555 1_555
O31 W10 1_555 1_555
W2 O8 1_555 1_555
W2 O21 1_555 1_555
O13 W10 1_555 1_555
W10 O21 1_555 1_555
W3 O1 1_555 1_555
W4 O2 1_555 1_555
O4 W3 1_555 1_555
O6 W3 1_555 1_555
O7 W4 1_555 1_555
O9 W4 1_555 1_555
O16 W3 1_555 1_555
O28 W4 1_555 1_555
W4 O4 1_555 1_555
W9 O12 1_555 1_555
O20 W8 1_555 1_555
O22 W8 1_555 1_555
O23 W9 1_555 1_555
O25 W9 1_555 1_555
O32 W8 1_555 1_555
W8 O17 1_555 1_555
W9 O18 1_555 1_555
W9 O20 1_555 1_555
W5 O5 1_555 1_555
O15 W5 1_555 1_555
W6 O5 1_555 1_555
W7 O5 1_555 1_555
O19 W7 1_555 1_555
O24 W6 1_555 1_555
O27 W5 1_555 1_555
O29 W5 1_555 1_555
O30 W6 1_555 1_555
W6 O26 1_555 1_555
W6 O29 1_555 1_555
W7 O24 1_555 1_555
W7 O27 1_555 1_555
W12 O33 1_555 1_555
W15 O33 1_555 1_555
O36 W12 1_555 1_555
O39 W15 1_555 1_555
O41 W12 1_555 1_555
O51 W15 1_555 1_555
O59 W12 1_555 1_555
W15 O46 1_555 1_555
W16 O50 1_555 1_555
O50 W18 1_555 1_555
O54 W16 1_555 1_555
O56 W16 1_555 1_555
O58 W16 1_555 1_555
O61 W18 1_555 1_555
O64 W19 1_555 1_555
W16 O53 1_555 1_555
W16 O60 1_555 1_555
W18 O63 1_555 1_555
W19 O56 1_555 1_555
W19 O60 1_555 1_555
W11 O34 1_555 1_555
W13 O34 1_555 1_555
W14 O40 1_555 1_555
O37 W11 1_555 1_555
O38 W11 1_555 1_555
O40 W11 1_555 1_555
O42 W11 1_555 1_555
O44 W11 1_555 1_555
O45 W13 1_555 1_555
O47 W13 1_555 1_555
O48 W14 1_555 1_555
W14 O44 1_555 1_555
W20 O35 1_555 1_555
O49 W17 1_555 1_555
O52 W17 1_555 1_555
O55 W20 1_555 1_555
O57 W17 1_555 1_555
O43 W17 1_555 1_555
W20 O49 1_555 1_555
W20 O62 1_555 1_555
O67 N4 1_555 1_555
C16 H13 1_555 1_555
C17 C16 1_555 1_555
C19 C18 1_555 1_555
H15 C19 1_555 1_555
C20 C19 1_555 1_555
H16 C20 1_555 1_555
N4 C16 1_555 1_555
Cu9 O67 1_555 1_555
C17 C18 1_555 1_555
C20 N4 1_555 1_555
O76 N10 1_555 1_555
C46 H41 1_555 1_555
C47 C46 1_555 1_555
H42 C47 1_555 1_555
C49 C48 1_555 1_555
H43 C49 1_555 1_555
C50 C49 1_555 1_555
H44 C50 1_555 1_555
N10 C46 1_555 1_555
Cu9 O76 1_555 1_555
C47 C48 1_555 1_555
C50 N10 1_555 1_555
O81 N16 1_555 1_555
C76 H65 1_555 1_555
C77 C76 1_555 1_555
H66 C77 1_555 1_555
C79 C78 1_555 1_555
H67 C79 1_555 1_555
C80 C79 1_555 1_555
H68 C80 1_555 1_555
N16 C76 1_555 1_555
Cu6 O81 1_555 1_555
C77 C78 1_555 1_555
C80 N16 1_555 1_555
C6 H5 1_555 1_555
C7 C6 1_555 1_555
H6 C7 1_555 1_555
C9 C8 1_555 1_555
H7 C9 1_555 1_555
C10 C9 1_555 1_555
H8 C10 1_555 1_555
N2 C6 1_555 1_555
O75 N2 1_555 1_555
Cu6 O77 1_555 1_555
Cu9 O75 1_555 1_555
O77 N11 1_555 1_555
O78 Cu6 1_555 1_555
O80 Cu9 1_555 1_555
O82 Cu9 1_555 1_555
O83 Cu6 1_555 1_555
C51 H45 1_555 1_555
C52 C51 1_555 1_555
H46 C52 1_555 1_555
C53 C52 1_555 1_555
C54 C53 1_555 1_555
H47 C54 1_555 1_555
C55 C54 1_555 1_555
H48 C55 1_555 1_555
H55 C64 1_555 1_555
C65 C64 1_555 1_555
H56 C65 1_555 1_555
C71 H61 1_555 1_555
C72 C71 1_555 1_555
H62 C72 1_555 1_555
C73 C72 1_555 1_555
C74 C73 1_555 1_555
H63 C74 1_555 1_555
C75 C74 1_555 1_555
H64 C75 1_555 1_555
C81 H69 1_555 1_555
C82 C81 1_555 1_555
H70 C82 1_555 1_555
C83 C82 1_555 1_555
C84 C83 1_555 1_555
H71 C84 1_555 1_555
C85 C84 1_555 1_555
H72 C85 1_555 1_555
C86 H73 1_555 1_555
C87 C86 1_555 1_555
H74 C87 1_555 1_555
C88 C83 1_555 1_555
C89 C88 1_555 1_555
H75 C89 1_555 1_555
C90 C89 1_555 1_555
H76 C90 1_555 1_555
N11 C51 1_555 1_555
N13 O78 1_555 1_555
N15 O80 1_555 1_555
N17 O82 1_555 1_555
N18 O83 1_555 1_555
O84 Cu6 1_555 1_555
H77 O84 1_555 1_555
H78 O84 1_555 1_555
O85 Cu9 1_555 1_555
H79 O85 1_555 1_555
H80 O85 1_555 1_555
C7 C8 1_555 1_555
C10 N2 1_555 1_555
C55 N11 1_555 1_555
C65 N13 1_555 1_555
C71 N15 1_555 1_555
C75 N15 1_555 1_555
C81 N17 1_555 1_555
C85 N17 1_555 1_555
C86 N18 1_555 1_555
C87 C88 1_555 1_555
C90 N18 1_555 1_555
Cu1 O65 1_555 1_555
Cu2 O68 1_555 1_555
O65 N1 1_555 1_555
O66 Cu1 1_555 1_555
O68 N5 1_555 1_555
O70 Cu2 1_555 1_555
O71 Cu1 1_555 1_555
O72 Cu2 1_555 1_555
C1 H1 1_555 1_555
C2 C1 1_555 1_555
H2 C2 1_555 1_555
C3 C2 1_555 1_555
C4 C3 1_555 1_555
H3 C4 1_555 1_555
C5 C4 1_555 1_555
H4 C5 1_555 1_555
H11 C14 1_555 1_555
C15 C14 1_555 1_555
H12 C15 1_555 1_555
C21 H17 1_555 1_555
C22 C21 1_555 1_555
H18 C22 1_555 1_555
C23 C22 1_555 1_555
C24 C23 1_555 1_555
H19 C24 1_555 1_555
C25 C24 1_555 1_555
H20 C25 1_555 1_555
C31 H25 1_555 1_555
C32 C31 1_555 1_555
H26 C32 1_555 1_555
C33 C32 1_555 1_555
C34 C33 1_555 1_555
H27 C34 1_555 1_555
C35 C34 1_555 1_555
H28 C35 1_555 1_555
C36 H29 1_555 1_555
C37 C36 1_555 1_555
H30 C37 1_555 1_555
C38 C33 1_555 1_555
C39 C38 1_555 1_555
H31 C39 1_555 1_555
C40 C39 1_555 1_555
H32 C40 1_555 1_555
C41 H33 1_555 1_555
C42 C41 1_555 1_555
H34 C42 1_555 1_555
C43 C42 1_555 1_555
C44 C43 1_555 1_555
H35 C44 1_555 1_555
C45 C44 1_555 1_555
H36 C45 1_555 1_555
N1 C1 1_555 1_555
N3 O66 1_555 1_555
N5 C21 1_555 1_555
N7 O70 1_555 1_555
N8 O71 1_555 1_555
N9 O72 1_555 1_555
O73 Cu1 1_555 1_555
H37 O73 1_555 1_555
H38 O73 1_555 1_555
O74 Cu2 1_555 1_555
H39 O74 1_555 1_555
H40 O74 1_555 1_555
C56 H49 1_555 1_555
C57 C56 1_555 1_555
H50 C57 1_555 1_555
C59 C58 1_555 1_555
H51 C59 1_555 1_555
C60 C59 1_555 1_555
H52 C60 1_555 1_555
N12 C56 1_555 1_555
O86 Cu2 1_555 1_555
O88 Cu2 1_555 1_555
O89 Cu1 1_555 1_555
C5 N1 1_555 1_555
C15 N3 1_555 1_555
C25 N5 1_555 1_555
C31 N7 1_555 1_555
C35 N7 1_555 1_555
C36 N8 1_555 1_555
C37 C38 1_555 1_555
C40 N8 1_555 1_555
C41 N9 1_555 1_555
C45 N9 1_555 1_555
C57 C58 1_555 1_555
C60 N12 1_555 1_555
N12 O86 1_555 1_555
O89 N6 1_555 1_555
C26 H21 1_555 1_555
C27 C26 1_555 1_555
H22 C27 1_555 1_555
C29 C28 1_555 1_555
H23 C29 1_555 1_555
C30 C29 1_555 1_555
H24 C30 1_555 1_555
N6 C26 1_555 1_555
C27 C28 1_555 1_555
C30 N6 1_555 1_555
O88 N14 1_555 1_555
C66 H57 1_555 1_555
C67 C66 1_555 1_555
C69 C68 1_555 1_555
H59 C69 1_555 1_555
C70 C69 1_555 1_555
H60 C70 1_555 1_555
N14 C66 1_555 1_555
C67 C68 1_555 1_555
C70 N14 1_555 1_555
C11 H9 1_555 1_555
C12 C11 1_555 1_555
H10 C12 1_555 1_555
C13 C12 1_555 1_555
C61 H53 1_555 1_555
C62 C61 1_555 1_555
H54 C62 1_555 1_555
C63 C62 1_555 1_555

#END
