
###############################################################################
#
# This file contains modified crystal structure data generated from the
# MOF subset of the Cambridge Structural Database (CSD) v543 
# hosted by the Cambridge Crystallographic Data Centre (CCDC).
#
# This work is licensed under the Creative Commons
# Attribution-NonCommercial-ShareAlike 4.0 International License.
# To view a copy of this license, visit
# http://creativecommons.org/licenses/by-nc-sa/4.0/
# or send a letter to
# Creative Commons, PO Box 1866, Mountain View, CA 94042, USA.
#
# CIF created using the CSD Python API on 29 September 2022
# The structure has been converted into the P1 space group
# The structure has a 3D framework
# The original CSD entry ENESOH is in the orthorhombic crystal system
# The framework has been calculated to contain at least 10.0% void space
# The void calculation uses a probe of radius 1.32A, grid spacing 0.4
# The framework is charged, counterions have been retained in the structure
# H atom positions have been added when not included in the experimental data
# Generated hydrogen atom positions removed from atoms on special positions
#
###############################################################################

data_ENESOH
_chemical_formula_moiety         '(C256 H288 Cu20 Mo144 N192 O500 8+)n'
_symmetry_cell_setting           triclinic
_symmetry_space_group_name_H-M   'P 1'
_symmetry_Int_Tables_number      1
_space_group_name_Hall           'P 1'
loop_
_symmetry_equiv_pos_site_id
_symmetry_equiv_pos_as_xyz
1 x,y,z
_cell_length_a                   26.9829(10)
_cell_length_b                   37.6059(15)
_cell_length_c                   19.3314(7)
_cell_angle_alpha                90
_cell_angle_beta                 90
_cell_angle_gamma                90
_cell_volume                     19615.9
loop_
_atom_site_label
_atom_site_type_symbol
_atom_site_fract_x
_atom_site_fract_y
_atom_site_fract_z
N9 N 0.6524(2) 0.66588(15) 0.0201(3)
N11 N 0.7054(2) 0.70855(15) 0.0243(3)
N12 N 0.6952(2) 0.69639(18) 0.0903(3)
C13 C 0.6152(3) 0.6401(2) 0.0008(4)
H15 H 0.6093 0.6241 0.0393
C14 C 0.6637(2) 0.67121(17) 0.0873(3)
H16 H 0.6508 0.6587 0.1247
N21 N 0.3476(2) 0.66588(15) 0.0201(3)
N23 N 0.2946(2) 0.70855(15) 0.0243(3)
N24 N 0.3048(2) 0.69639(18) 0.0903(3)
C29 C 0.3848(3) 0.6401(2) 0.0008(4)
H31 H 0.3907 0.6241 0.0393
C30 C 0.3363(2) 0.67121(17) 0.0873(3)
H32 H 0.3492 0.6587 0.1247
Cu3 Cu 0.2500 0.7500 -0.0000
Cu5 Cu 0.7500 0.7500 -0.0000
Cu1 Cu 0.5000 0.48616(3) 0.80491(7)
C1 C 0.3114(3) 0.29916(18) 0.5829(4)
H1 H 0.2830 0.2998 0.6102
N1 N 0.3124(2) 0.27791(15) 0.5273(3)
O1 O 0.6664(2) 0.62715(15) 0.9011(3)
O2 O 0.5000 0.48494(19) 0.9260(4)
Cu2 Cu 0.2500 0.2500 0.5000
C2 C 0.3527(3) 0.27782(19) 0.4886(4)
H2 H 0.3535 0.2631 0.4500
N2 N 0.5552(2) 0.52302(16) 0.8067(3)
O3 O 0.4071(2) 0.38188(16) 0.6489(3)
C3 C 0.3938(3) 0.2987(2) 0.5031(4)
H3 H 0.4215 0.2980 0.4744
N3 N 0.4479(2) 0.44699(15) 0.8030(3)
C4 C 0.3932(3) 0.3207(2) 0.5606(4)
H4 H 0.4200 0.3352 0.5713
N4 N 0.3454(2) 0.34075(17) 0.6620(3)
H5 H 0.3218 0.3344 0.6892
N5 N 0.3925(3) 0.40752(17) 0.7811(4)
C5 C 0.3517(3) 0.32038(19) 0.6009(4)
C6 C 0.3730(3) 0.36943(18) 0.6821(4)
N6 N 0.4101(2) 0.40051(17) 0.8449(3)
N7 N 0.4438(2) 0.42391(17) 0.8576(3)
C7 C 0.3535(3) 0.3854(2) 0.7493(5)
H6 H 0.3244 0.3998 0.7399
H7 H 0.3440 0.3665 0.7809
N8 N 0.6016(2) 0.59027(17) 0.9257(4)
H8 H 0.5806 0.5853 0.9577
C8 C 0.4160(3) 0.43647(19) 0.7563(4)
H9 H 0.4104 0.4471 0.7136
C9 C 0.5630(3) 0.54420(19) 0.8620(4)
H10 H 0.5410 0.5424 0.8989
N10 N 0.6769(3) 0.68938(17) 0.9823(4)
C10 C 0.5892(4) 0.5249(2) 0.7555(5)
H11 H 0.5847 0.5107 0.7165
C11 C 0.6300(4) 0.5467(3) 0.7585(5)
H12 H 0.6533 0.5465 0.7230
C12 C 0.6363(4) 0.5691(2) 0.8145(5)
H13 H 0.6634 0.5844 0.8168
H14 H 0.5843 0.6523 0.9906
C15 C 0.6316(3) 0.61856(19) 0.9370(4)
C16 C 0.6015(3) 0.56836(19) 0.8674(4)
C17 C 0.6886(3) 0.29916(18) 0.5829(4)
H17 H 0.7170 0.2998 0.6102
N13 N 0.6876(2) 0.27791(15) 0.5273(3)
O4 O 0.3336(2) 0.62715(15) 0.9011(3)
C18 C 0.6473(3) 0.27782(19) 0.4886(4)
H18 H 0.6465 0.2631 0.4500
N14 N 0.4448(2) 0.52302(16) 0.8067(3)
O5 O 0.5929(2) 0.38188(16) 0.6489(3)
C19 C 0.6062(3) 0.2987(2) 0.5031(4)
H19 H 0.5785 0.2980 0.4744
N15 N 0.5521(2) 0.44699(15) 0.8030(3)
C20 C 0.6068(3) 0.3207(2) 0.5606(4)
H20 H 0.5800 0.3352 0.5713
N16 N 0.6546(2) 0.34075(17) 0.6620(3)
H21 H 0.6782 0.3344 0.6892
N17 N 0.6075(3) 0.40752(17) 0.7811(4)
C21 C 0.6483(3) 0.32038(19) 0.6009(4)
C22 C 0.6270(3) 0.36943(18) 0.6821(4)
N18 N 0.5899(2) 0.40051(17) 0.8449(3)
N19 N 0.5562(2) 0.42391(17) 0.8576(3)
C23 C 0.6465(3) 0.3854(2) 0.7493(5)
H22 H 0.6756 0.3998 0.7399
H23 H 0.6560 0.3665 0.7809
N20 N 0.3984(2) 0.59027(17) 0.9257(4)
H24 H 0.4194 0.5853 0.9577
C24 C 0.5840(3) 0.43647(19) 0.7563(4)
H25 H 0.5896 0.4471 0.7136
C25 C 0.4370(3) 0.54420(19) 0.8620(4)
H26 H 0.4590 0.5424 0.8989
N22 N 0.3231(3) 0.68938(17) 0.9823(4)
C26 C 0.4108(4) 0.5249(2) 0.7555(5)
H27 H 0.4153 0.5107 0.7165
C27 C 0.3700(4) 0.5467(3) 0.7585(5)
H28 H 0.3467 0.5465 0.7230
C28 C 0.3637(4) 0.5691(2) 0.8145(5)
H29 H 0.3366 0.5844 0.8168
H30 H 0.4157 0.6523 0.9906
C31 C 0.3684(3) 0.61856(19) 0.9370(4)
C32 C 0.3985(3) 0.56836(19) 0.8674(4)
N25 N 0.1876(2) 0.22209(15) 0.4727(3)
Cu3_2 Cu 0.2500 0.7500 1.0000
Cu4 Cu 0.7500 0.2500 0.5000
Cu5_2 Cu 0.7500 0.7500 1.0000
N26 N 0.2946(2) 0.20855(15) 0.4757(3)
N27 N 0.2054(2) 0.29145(15) 0.5243(3)
Cu1_2 Cu -0.0000 0.51384(3) 0.30491(7)
C1_2 C 0.1886(3) 0.70084(18) 0.0829(4)
H1_2 H 0.2170 0.7002 0.1102
N1_2 N 0.1876(2) 0.72209(15) 0.0273(3)
O2_2 O -0.0000 0.51506(19) 0.4260(4)
O3_2 O 0.0929(2) 0.61812(16) 0.1489(3)
C3_2 C 0.1062(3) 0.7013(2) 0.0031(4)
N3_2 N 0.0521(2) 0.55301(15) 0.3030(3)
C4_2 C 0.1068(3) 0.6793(2) 0.0606(4)
H4_2 H 0.0800 0.6648 0.0713
N4_2 N 0.1546(2) 0.65925(17) 0.1620(3)
H5_2 H 0.1782 0.6656 0.1892
N5_2 N 0.1075(3) 0.59248(17) 0.2811(4)
C5_2 C 0.1483(3) 0.67962(19) 0.1009(4)
C6_2 C 0.1270(3) 0.63057(18) 0.1821(4)
N6_2 N 0.0899(2) 0.59949(17) 0.3449(3)
N7_2 N 0.0562(2) 0.57609(17) 0.3576(3)
C7_2 C 0.1465(3) 0.6146(2) 0.2493(5)
H6_2 H 0.1756 0.6002 0.2399
H7_2 H 0.1560 0.6335 0.2809
C8_2 C 0.0840(3) 0.56353(19) 0.2563(4)
H9_2 H 0.0896 0.5529 0.2136
O4_2 O 0.1664(2) 0.37285(15) 0.4011(3)
N14_2 N 0.0552(2) 0.47698(16) 0.3067(3)
N20_2 N 0.1016(2) 0.40973(17) 0.4257(4)
H24_2 H 0.0806 0.4147 0.4577
N21_2 N 0.1524(2) 0.33412(15) 0.5201(3)
C25_2 C 0.0630(3) 0.45580(19) 0.3620(4)
H26_2 H 0.0410 0.4576 0.3989
N22_2 N 0.1769(3) 0.31062(17) 0.4823(4)
C26_2 C 0.0892(4) 0.4751(2) 0.2555(5)
H27_2 H 0.0847 0.4893 0.2165
C27_2 C 0.1300(4) 0.4533(3) 0.2585(5)
H28_2 H 0.1533 0.4535 0.2230
N24_2 N 0.1952(2) 0.30361(18) 0.5903(3)
C28_2 C 0.1363(4) 0.4309(2) 0.3145(5)
H29_2 H 0.1634 0.4156 0.3168
C29_2 C 0.1152(3) 0.3599(2) 0.5008(4)
H30_2 H 0.0843 0.3477 0.4906
H31_2 H 0.1093 0.3759 0.5393
C30_2 C 0.1637(2) 0.32879(17) 0.5873(3)
H32_2 H 0.1508 0.3413 0.6247
C31_2 C 0.1316(3) 0.38144(19) 0.4370(4)
C32_2 C 0.1015(3) 0.43164(19) 0.3674(4)
H33 H 0.00777613 0.490975 0.444044
H34 H 0.0253955 0.532192 0.442472
C2_2 C 0.1473(3) 0.72218(19) 0.9886(4)
H2_2 H 0.1465 0.7369 0.9500
H3_2 H 0.0785 0.7020 0.9744
N25_2 N 0.3124(2) 0.77791(15) 0.9727(3)
N26_2 N 0.2054(2) 0.79145(15) 0.9757(3)
Cu1_3 Cu 1.0000 0.51384(3) 0.30491(7)
O1_2 O 0.8336(2) 0.37285(15) 0.4011(3)
O2_3 O 1.0000 0.51506(19) 0.4260(4)
N2_2 N 0.9448(2) 0.47698(16) 0.3067(3)
N8_2 N 0.8984(2) 0.40973(17) 0.4257(4)
H8_2 H 0.9194 0.4147 0.4577
N9_2 N 0.8476(2) 0.33412(15) 0.5201(3)
C9_2 C 0.9370(3) 0.45580(19) 0.3620(4)
H10_2 H 0.9590 0.4576 0.3989
N10_2 N 0.8231(3) 0.31062(17) 0.4823(4)
C10_2 C 0.9108(4) 0.4751(2) 0.2555(5)
H11_2 H 0.9153 0.4893 0.2165
N11_2 N 0.7946(2) 0.29145(15) 0.5243(3)
C11_2 C 0.8700(4) 0.4533(3) 0.2585(5)
H12_2 H 0.8467 0.4535 0.2230
N12_2 N 0.8048(2) 0.30361(18) 0.5903(3)
C12_2 C 0.8637(4) 0.4309(2) 0.3145(5)
H13_2 H 0.8366 0.4156 0.3168
C13_2 C 0.8848(3) 0.3599(2) 0.5008(4)
H14_2 H 0.9157 0.3477 0.4906
H15_2 H 0.8907 0.3759 0.5393
C14_2 C 0.8363(2) 0.32879(17) 0.5873(3)
H16_2 H 0.8492 0.3413 0.6247
C15_2 C 0.8684(3) 0.38144(19) 0.4370(4)
C16_2 C 0.8985(3) 0.43164(19) 0.3674(4)
C17_2 C 0.8114(3) 0.70084(18) 0.0829(4)
H17_2 H 0.7830 0.7002 0.1102
N13_2 N 0.8124(2) 0.72209(15) 0.0273(3)
O5_2 O 0.9071(2) 0.61812(16) 0.1489(3)
C19_2 C 0.8938(3) 0.7013(2) 0.0031(4)
N15_2 N 0.9479(2) 0.55301(15) 0.3030(3)
C20_2 C 0.8932(3) 0.6793(2) 0.0606(4)
H20_2 H 0.9200 0.6648 0.0713
N16_2 N 0.8454(2) 0.65925(17) 0.1620(3)
H21_2 H 0.8218 0.6656 0.1892
N17_2 N 0.8925(3) 0.59248(17) 0.2811(4)
C21_2 C 0.8517(3) 0.67962(19) 0.1009(4)
C22_2 C 0.8730(3) 0.63057(18) 0.1821(4)
N18_2 N 0.9101(2) 0.59949(17) 0.3449(3)
N19_2 N 0.9438(2) 0.57609(17) 0.3576(3)
C23_2 C 0.8535(3) 0.6146(2) 0.2493(5)
H22_2 H 0.8244 0.6002 0.2399
H23_2 H 0.8440 0.6335 0.2809
C24_2 C 0.9160(3) 0.56353(19) 0.2563(4)
H25_2 H 0.9104 0.5529 0.2136
C18_2 C 0.8527(3) 0.72218(19) 0.9886(4)
H18_2 H 0.8535 0.7369 0.9500
H19_2 H 0.9215 0.7020 0.9744
Cu1_4 Cu 0.0000 0.01384(3) 0.19509(7)
O2_4 O 0.0000 0.01506(19) 0.0740(4)
C17_3 C 0.1886(3) 0.20084(18) 0.4171(4)
H17_3 H 0.2170 0.2002 0.3898
C18_3 C 0.1473(3) 0.22218(19) 0.5114(4)
H18_3 H 0.1465 0.2369 0.5500
O5_3 O 0.0929(2) 0.11812(16) 0.3511(3)
C19_3 C 0.1062(3) 0.2013(2) 0.4969(4)
H19_3 H 0.0785 0.2020 0.5256
N15_3 N 0.0521(2) 0.05301(15) 0.1970(3)
C20_3 C 0.1068(3) 0.1793(2) 0.4394(4)
H20_3 H 0.0800 0.1648 0.4287
N16_3 N 0.1546(2) 0.15925(17) 0.3380(3)
H21_3 H 0.1782 0.1656 0.3108
N17_3 N 0.1075(3) 0.09248(17) 0.2189(4)
C21_3 C 0.1483(3) 0.17962(19) 0.3991(4)
C22_3 C 0.1270(3) 0.13057(18) 0.3179(4)
N18_3 N 0.0899(2) 0.09949(17) 0.1551(3)
N19_3 N 0.0562(2) 0.07609(17) 0.1424(3)
C23_3 C 0.1465(3) 0.1146(2) 0.2507(5)
H22_3 H 0.1756 0.1002 0.2601
H23_3 H 0.1560 0.1335 0.2191
C24_3 C 0.0840(3) 0.06353(19) 0.2437(4)
H25_3 H 0.0896 0.0529 0.2864
O1_3 O 0.1664(2) 0.87285(15) 0.0989(3)
N2_3 N 0.0552(2) 0.97698(16) 0.1933(3)
N8_3 N 0.1016(2) 0.90973(17) 0.0743(4)
H8_3 H 0.0806 0.9147 0.0423
C9_3 C 0.0630(3) 0.95580(19) 0.1380(4)
H10_3 H 0.0410 0.9576 0.1011
N10_3 N 0.1769(3) 0.81062(17) 0.0177(4)
C10_3 C 0.0892(4) 0.9751(2) 0.2445(5)
H11_3 H 0.0847 0.9893 0.2835
C11_3 C 0.1300(4) 0.9533(3) 0.2415(5)
H12_3 H 0.1533 0.9535 0.2770
C12_3 C 0.1363(4) 0.9309(2) 0.1855(5)
H13_3 H 0.1634 0.9156 0.1832
H14_3 H 0.0843 0.8477 0.0094
C15_3 C 0.1316(3) 0.88144(19) 0.0630(4)
C16_3 C 0.1015(3) 0.93164(19) 0.1326(4)
N9_3 N 0.1524(2) 0.83412(15) 0.9799(3)
N12_3 N 0.1952(2) 0.80361(18) 0.9097(3)
C13_3 C 0.1152(3) 0.8599(2) 0.9992(4)
H15_3 H 0.1093 0.8759 0.9607
C14_3 C 0.1637(2) 0.82879(17) 0.9127(3)
H16_3 H 0.1508 0.8413 0.8753
Cu1_5 Cu 1.0000 0.01384(3) 0.19509(7)
C1_3 C 0.8114(3) 0.20084(18) 0.4171(4)
H1_3 H 0.7830 0.2002 0.3898
N1_3 N 0.8124(2) 0.22209(15) 0.4727(3)
O2_5 O 1.0000 0.01506(19) 0.0740(4)
C2_3 C 0.8527(3) 0.22218(19) 0.5114(4)
H2_3 H 0.8535 0.2369 0.5500
O3_3 O 0.9071(2) 0.11812(16) 0.3511(3)
C3_3 C 0.8938(3) 0.2013(2) 0.4969(4)
H3_3 H 0.9215 0.2020 0.5256
N3_3 N 0.9479(2) 0.05301(15) 0.1970(3)
C4_3 C 0.8932(3) 0.1793(2) 0.4394(4)
H4_3 H 0.9200 0.1648 0.4287
N4_3 N 0.8454(2) 0.15925(17) 0.3380(3)
H5_3 H 0.8218 0.1656 0.3108
N5_3 N 0.8925(3) 0.09248(17) 0.2189(4)
C5_3 C 0.8517(3) 0.17962(19) 0.3991(4)
C6_3 C 0.8730(3) 0.13057(18) 0.3179(4)
N6_3 N 0.9101(2) 0.09949(17) 0.1551(3)
N7_3 N 0.9438(2) 0.07609(17) 0.1424(3)
C7_3 C 0.8535(3) 0.1146(2) 0.2507(5)
H6_3 H 0.8244 0.1002 0.2601
H7_3 H 0.8440 0.1335 0.2191
C8_3 C 0.9160(3) 0.06353(19) 0.2437(4)
H9_3 H 0.9104 0.0529 0.2864
N27_2 N 0.7054(2) 0.20855(15) 0.4757(3)
H34_2 H 0.974604 0.0321922 0.0575275
O4_3 O 0.8336(2) 0.87285(15) 0.0989(3)
N14_3 N 0.9448(2) 0.97698(16) 0.1933(3)
N20_3 N 0.8984(2) 0.90973(17) 0.0743(4)
H24_3 H 0.9194 0.9147 0.0423
C25_3 C 0.9370(3) 0.95580(19) 0.1380(4)
H26_3 H 0.9590 0.9576 0.1011
N22_3 N 0.8231(3) 0.81062(17) 0.0177(4)
C26_3 C 0.9108(4) 0.9751(2) 0.2445(5)
H27_3 H 0.9153 0.9893 0.2835
C27_3 C 0.8700(4) 0.9533(3) 0.2415(5)
H28_3 H 0.8467 0.9535 0.2770
C28_3 C 0.8637(4) 0.9309(2) 0.1855(5)
H29_3 H 0.8366 0.9156 0.1832
H30_3 H 0.9157 0.8477 0.0094
C31_3 C 0.8684(3) 0.88144(19) 0.0630(4)
C32_3 C 0.8985(3) 0.93164(19) 0.1326(4)
H33_2 H 0.992224 0.990975 0.055956
N21_3 N 0.8476(2) 0.83412(15) 0.9799(3)
N23_2 N 0.7946(2) 0.79145(15) 0.9757(3)
N24_3 N 0.8048(2) 0.80361(18) 0.9097(3)
C29_3 C 0.8848(3) 0.8599(2) 0.9992(4)
H31_3 H 0.8907 0.8759 0.9607
C30_3 C 0.8363(2) 0.82879(17) 0.9127(3)
H32_3 H 0.8492 0.8413 0.8753
O1_4 O 0.3336(2) 0.12715(15) 0.5989(3)
N2_4 N 0.4448(2) 0.02302(16) 0.6933(3)
N8_4 N 0.3984(2) 0.09027(17) 0.5743(4)
H8_4 H 0.4194 0.0853 0.5423
N9_4 N 0.3476(2) 0.16588(15) 0.4799(3)
C9_4 C 0.4370(3) 0.04420(19) 0.6380(4)
H10_4 H 0.4590 0.0424 0.6011
N10_4 N 0.3231(3) 0.18938(17) 0.5177(4)
C10_4 C 0.4108(4) 0.0249(2) 0.7445(5)
H11_4 H 0.4153 0.0107 0.7835
C11_4 C 0.3700(4) 0.0467(3) 0.7415(5)
H12_4 H 0.3467 0.0465 0.7770
N12_4 N 0.3048(2) 0.19639(18) 0.4097(3)
C12_4 C 0.3637(4) 0.0691(2) 0.6855(5)
H13_4 H 0.3366 0.0844 0.6832
C13_4 C 0.3848(3) 0.1401(2) 0.4992(4)
H14_4 H 0.4157 0.1523 0.5094
H15_4 H 0.3907 0.1241 0.4607
C14_4 C 0.3363(2) 0.17121(17) 0.4127(3)
H16_4 H 0.3492 0.1587 0.3753
C15_4 C 0.3684(3) 0.11856(19) 0.5630(4)
C16_4 C 0.3985(3) 0.06836(19) 0.6326(4)
O4_4 O 0.6664(2) 0.12715(15) 0.5989(3)
N14_4 N 0.5552(2) 0.02302(16) 0.6933(3)
N20_4 N 0.6016(2) 0.09027(17) 0.5743(4)
H24_4 H 0.5806 0.0853 0.5423
N21_4 N 0.6524(2) 0.16588(15) 0.4799(3)
C25_4 C 0.5630(3) 0.04420(19) 0.6380(4)
H26_4 H 0.5410 0.0424 0.6011
N22_4 N 0.6769(3) 0.18938(17) 0.5177(4)
C26_4 C 0.5892(4) 0.0249(2) 0.7445(5)
H27_4 H 0.5847 0.0107 0.7835
C27_4 C 0.6300(4) 0.0467(3) 0.7415(5)
H28_4 H 0.6533 0.0465 0.7770
N24_4 N 0.6952(2) 0.19639(18) 0.4097(3)
C28_4 C 0.6363(4) 0.0691(2) 0.6855(5)
H29_4 H 0.6634 0.0844 0.6832
C29_4 C 0.6152(3) 0.1401(2) 0.4992(4)
H30_4 H 0.5843 0.1523 0.5094
H31_4 H 0.6093 0.1241 0.4607
C30_4 C 0.6637(2) 0.17121(17) 0.4127(3)
H32_4 H 0.6508 0.1587 0.3753
C31_4 C 0.6316(3) 0.11856(19) 0.5630(4)
C32_4 C 0.6015(3) 0.06836(19) 0.6326(4)
H33_3 H 0.507776 0.00902485 0.555956
C2_4 C 0.6473(3) 0.77782(19) 0.0114(4)
H2_4 H 0.6465 0.7631 0.0500
H3_4 H 0.5785 0.7980 0.0256
C18_4 C 0.3527(3) 0.77782(19) 0.0114(4)
H18_4 H 0.3535 0.7631 0.0500
H19_4 H 0.4215 0.7980 0.0256
Cu1_6 Cu 0.5000 0.98616(3) 0.69509(7)
C1_4 C 0.6886(3) 0.79916(18) 0.9171(4)
H1_4 H 0.7170 0.7998 0.8898
N1_4 N 0.6876(2) 0.77791(15) 0.9727(3)
O2_6 O 0.5000 0.98494(19) 0.5740(4)
O3_4 O 0.5929(2) 0.88188(16) 0.8511(3)
C3_4 C 0.6062(3) 0.7987(2) 0.9969(4)
N3_4 N 0.5521(2) 0.94699(15) 0.6970(3)
C4_4 C 0.6068(3) 0.8207(2) 0.9394(4)
H4_4 H 0.5800 0.8352 0.9287
N4_4 N 0.6546(2) 0.84075(17) 0.8380(3)
H5_4 H 0.6782 0.8344 0.8108
N5_4 N 0.6075(3) 0.90752(17) 0.7189(4)
C5_4 C 0.6483(3) 0.82038(19) 0.8991(4)
C6_4 C 0.6270(3) 0.86943(18) 0.8179(4)
N6_4 N 0.5899(2) 0.90051(17) 0.6551(3)
N7_4 N 0.5562(2) 0.92391(17) 0.6424(3)
C7_4 C 0.6465(3) 0.8854(2) 0.7507(5)
H6_4 H 0.6756 0.8998 0.7601
H7_4 H 0.6560 0.8665 0.7191
C8_4 C 0.5840(3) 0.93647(19) 0.7437(4)
H9_4 H 0.5896 0.9471 0.7864
C17_4 C 0.3114(3) 0.79916(18) 0.9171(4)
H17_4 H 0.2830 0.7998 0.8898
O5_4 O 0.4071(2) 0.88188(16) 0.8511(3)
C19_4 C 0.3938(3) 0.7987(2) 0.9969(4)
N15_4 N 0.4479(2) 0.94699(15) 0.6970(3)
C20_4 C 0.3932(3) 0.8207(2) 0.9394(4)
H20_4 H 0.4200 0.8352 0.9287
N16_4 N 0.3454(2) 0.84075(17) 0.8380(3)
H21_4 H 0.3218 0.8344 0.8108
N17_4 N 0.3925(3) 0.90752(17) 0.7189(4)
C21_4 C 0.3517(3) 0.82038(19) 0.8991(4)
C22_4 C 0.3730(3) 0.86943(18) 0.8179(4)
N18_4 N 0.4101(2) 0.90051(17) 0.6551(3)
N19_4 N 0.4438(2) 0.92391(17) 0.6424(3)
C23_4 C 0.3535(3) 0.8854(2) 0.7507(5)
H22_4 H 0.3244 0.8998 0.7601
H23_4 H 0.3440 0.8665 0.7191
C24_4 C 0.4160(3) 0.93647(19) 0.7437(4)
H25_4 H 0.4104 0.9471 0.7864
H34_3 H 0.525396 0.967808 0.557528
H33_4 H 0.492224 0.00902485 0.555956
H34_4 H 0.474604 0.967808 0.557528
H33_5 H 0.992224 0.490975 0.444044
H34_5 H 0.974604 0.532192 0.442472
H34_6 H 0.0253955 0.0321922 0.0575275
H33_6 H 0.00777613 0.990975 0.055956
Cu1_7 Cu 0.5000 0.01384(3) 0.30491(7)
C1_5 C 0.6886(3) 0.20084(18) 0.0829(4)
H1_5 H 0.7170 0.2002 0.1102
N1_5 N 0.6876(2) 0.22209(15) 0.0273(3)
O2_7 O 0.5000 0.01506(19) 0.4260(4)
Cu2_2 Cu 0.7500 0.2500 -0.0000
O3_5 O 0.5929(2) 0.11812(16) 0.1489(3)
C3_5 C 0.6062(3) 0.2013(2) 0.0031(4)
N3_5 N 0.5521(2) 0.05301(15) 0.3030(3)
C4_5 C 0.6068(3) 0.1793(2) 0.0606(4)
H4_5 H 0.5800 0.1648 0.0713
N4_5 N 0.6546(2) 0.15925(17) 0.1620(3)
H5_5 H 0.6782 0.1656 0.1892
N5_5 N 0.6075(3) 0.09248(17) 0.2811(4)
C5_5 C 0.6483(3) 0.17962(19) 0.1009(4)
C6_5 C 0.6270(3) 0.13057(18) 0.1821(4)
N6_5 N 0.5899(2) 0.09949(17) 0.3449(3)
N7_5 N 0.5562(2) 0.07609(17) 0.3576(3)
C7_5 C 0.6465(3) 0.1146(2) 0.2493(5)
H6_5 H 0.6756 0.1002 0.2399
H7_5 H 0.6560 0.1335 0.2809
C8_5 C 0.5840(3) 0.06353(19) 0.2563(4)
H9_5 H 0.5896 0.0529 0.2136
C17_5 C 0.3114(3) 0.20084(18) 0.0829(4)
H17_5 H 0.2830 0.2002 0.1102
N13_3 N 0.3124(2) 0.22209(15) 0.0273(3)
O5_5 O 0.4071(2) 0.11812(16) 0.1489(3)
C19_5 C 0.3938(3) 0.2013(2) 0.0031(4)
N15_5 N 0.4479(2) 0.05301(15) 0.3030(3)
C20_5 C 0.3932(3) 0.1793(2) 0.0606(4)
H20_5 H 0.4200 0.1648 0.0713
N16_5 N 0.3454(2) 0.15925(17) 0.1620(3)
H21_5 H 0.3218 0.1656 0.1892
N17_5 N 0.3925(3) 0.09248(17) 0.2811(4)
C21_5 C 0.3517(3) 0.17962(19) 0.1009(4)
C22_5 C 0.3730(3) 0.13057(18) 0.1821(4)
N18_5 N 0.4101(2) 0.09949(17) 0.3449(3)
N19_5 N 0.4438(2) 0.07609(17) 0.3576(3)
C23_5 C 0.3535(3) 0.1146(2) 0.2493(5)
H22_5 H 0.3244 0.1002 0.2399
H23_5 H 0.3440 0.1335 0.2809
C24_5 C 0.4160(3) 0.06353(19) 0.2563(4)
H25_5 H 0.4104 0.0529 0.2136
Cu4_2 Cu 0.2500 0.2500 -0.0000
N27_3 N 0.7946(2) 0.20855(15) 0.0243(3)
H34_7 H 0.525396 0.0321922 0.442472
Cu2_3 Cu 0.7500 0.2500 1.0000
C2_5 C 0.6473(3) 0.22218(19) 0.9886(4)
H2_5 H 0.6465 0.2369 0.9500
H3_5 H 0.5785 0.2020 0.9744
C18_5 C 0.3527(3) 0.22218(19) 0.9886(4)
H18_5 H 0.3535 0.2369 0.9500
H19_5 H 0.4215 0.2020 0.9744
N25_3 N 0.8124(2) 0.27791(15) 0.9727(3)
Cu4_3 Cu 0.2500 0.2500 1.0000
N26_3 N 0.7054(2) 0.29145(15) 0.9757(3)
O1_5 O 0.3336(2) 0.87285(15) 0.4011(3)
N2_5 N 0.4448(2) 0.97698(16) 0.3067(3)
N8_5 N 0.3984(2) 0.90973(17) 0.4257(4)
H8_5 H 0.4194 0.9147 0.4577
N9_5 N 0.3476(2) 0.83412(15) 0.5201(3)
C9_5 C 0.4370(3) 0.95580(19) 0.3620(4)
H10_5 H 0.4590 0.9576 0.3989
N10_5 N 0.3231(3) 0.81062(17) 0.4823(4)
C10_5 C 0.4108(4) 0.9751(2) 0.2555(5)
H11_5 H 0.4153 0.9893 0.2165
N11_3 N 0.2946(2) 0.79145(15) 0.5243(3)
C11_5 C 0.3700(4) 0.9533(3) 0.2585(5)
H12_5 H 0.3467 0.9535 0.2230
N12_5 N 0.3048(2) 0.80361(18) 0.5903(3)
C12_5 C 0.3637(4) 0.9309(2) 0.3145(5)
H13_5 H 0.3366 0.9156 0.3168
C13_5 C 0.3848(3) 0.8599(2) 0.5008(4)
H14_5 H 0.4157 0.8477 0.4906
H15_5 H 0.3907 0.8759 0.5393
C14_5 C 0.3363(2) 0.82879(17) 0.5873(3)
H16_5 H 0.3492 0.8413 0.6247
C15_5 C 0.3684(3) 0.88144(19) 0.4370(4)
C16_5 C 0.3985(3) 0.93164(19) 0.3674(4)
O4_5 O 0.6664(2) 0.87285(15) 0.4011(3)
N14_5 N 0.5552(2) 0.97698(16) 0.3067(3)
N20_5 N 0.6016(2) 0.90973(17) 0.4257(4)
H24_5 H 0.5806 0.9147 0.4577
N21_5 N 0.6524(2) 0.83412(15) 0.5201(3)
C25_5 C 0.5630(3) 0.95580(19) 0.3620(4)
H26_5 H 0.5410 0.9576 0.3989
N22_5 N 0.6769(3) 0.81062(17) 0.4823(4)
C26_5 C 0.5892(4) 0.9751(2) 0.2555(5)
H27_5 H 0.5847 0.9893 0.2165
N23_3 N 0.7054(2) 0.79145(15) 0.5243(3)
C27_5 C 0.6300(4) 0.9533(3) 0.2585(5)
H28_5 H 0.6533 0.9535 0.2230
N24_5 N 0.6952(2) 0.80361(18) 0.5903(3)
C28_5 C 0.6363(4) 0.9309(2) 0.3145(5)
H29_5 H 0.6634 0.9156 0.3168
C29_5 C 0.6152(3) 0.8599(2) 0.5008(4)
H30_5 H 0.5843 0.8477 0.4906
H31_5 H 0.6093 0.8759 0.5393
C30_5 C 0.6637(2) 0.82879(17) 0.5873(3)
H32_5 H 0.6508 0.8413 0.6247
C31_5 C 0.6316(3) 0.88144(19) 0.4370(4)
C32_5 C 0.6015(3) 0.93164(19) 0.3674(4)
Cu3_3 Cu 0.7500 0.7500 0.5000
Cu5_3 Cu 0.2500 0.7500 0.5000
H33_7 H 0.507776 0.990975 0.444044
Cu1_8 Cu 0.5000 0.51384(3) 0.19509(7)
C1_6 C 0.3114(3) 0.70084(18) 0.4171(4)
H1_6 H 0.2830 0.7002 0.3898
N1_6 N 0.3124(2) 0.72209(15) 0.4727(3)
O1_6 O 0.6664(2) 0.37285(15) 0.0989(3)
O2_8 O 0.5000 0.51506(19) 0.0740(4)
C2_6 C 0.3527(3) 0.72218(19) 0.5114(4)
H2_6 H 0.3535 0.7369 0.5500
N2_6 N 0.5552(2) 0.47698(16) 0.1933(3)
O3_6 O 0.4071(2) 0.61812(16) 0.3511(3)
C3_6 C 0.3938(3) 0.7013(2) 0.4969(4)
H3_6 H 0.4215 0.7020 0.5256
N3_6 N 0.4479(2) 0.55301(15) 0.1970(3)
C4_6 C 0.3932(3) 0.6793(2) 0.4394(4)
H4_6 H 0.4200 0.6648 0.4287
N4_6 N 0.3454(2) 0.65925(17) 0.3380(3)
H5_6 H 0.3218 0.6656 0.3108
N5_6 N 0.3925(3) 0.59248(17) 0.2189(4)
C5_6 C 0.3517(3) 0.67962(19) 0.3991(4)
C6_6 C 0.3730(3) 0.63057(18) 0.3179(4)
N6_6 N 0.4101(2) 0.59949(17) 0.1551(3)
N7_6 N 0.4438(2) 0.57609(17) 0.1424(3)
C7_6 C 0.3535(3) 0.6146(2) 0.2507(5)
H6_6 H 0.3244 0.6002 0.2601
H7_6 H 0.3440 0.6335 0.2191
N8_6 N 0.6016(2) 0.40973(17) 0.0743(4)
H8_6 H 0.5806 0.4147 0.0423
C8_6 C 0.4160(3) 0.56353(19) 0.2437(4)
H9_6 H 0.4104 0.5529 0.2864
C9_6 C 0.5630(3) 0.45580(19) 0.1380(4)
H10_6 H 0.5410 0.4576 0.1011
N10_6 N 0.6769(3) 0.31062(17) 0.0177(4)
C10_6 C 0.5892(4) 0.4751(2) 0.2445(5)
H11_6 H 0.5847 0.4893 0.2835
C11_6 C 0.6300(4) 0.4533(3) 0.2415(5)
H12_6 H 0.6533 0.4535 0.2770
C12_6 C 0.6363(4) 0.4309(2) 0.1855(5)
H13_6 H 0.6634 0.4156 0.1832
H14_6 H 0.5843 0.3477 0.0094
C15_6 C 0.6316(3) 0.38144(19) 0.0630(4)
C16_6 C 0.6015(3) 0.43164(19) 0.1326(4)
C17_6 C 0.6886(3) 0.70084(18) 0.4171(4)
H17_6 H 0.7170 0.7002 0.3898
N13_4 N 0.6876(2) 0.72209(15) 0.4727(3)
O4_6 O 0.3336(2) 0.37285(15) 0.0989(3)
C18_6 C 0.6473(3) 0.72218(19) 0.5114(4)
H18_6 H 0.6465 0.7369 0.5500
N14_6 N 0.4448(2) 0.47698(16) 0.1933(3)
O5_6 O 0.5929(2) 0.61812(16) 0.3511(3)
C19_6 C 0.6062(3) 0.7013(2) 0.4969(4)
H19_6 H 0.5785 0.7020 0.5256
N15_6 N 0.5521(2) 0.55301(15) 0.1970(3)
C20_6 C 0.6068(3) 0.6793(2) 0.4394(4)
H20_6 H 0.5800 0.6648 0.4287
N16_6 N 0.6546(2) 0.65925(17) 0.3380(3)
H21_6 H 0.6782 0.6656 0.3108
N17_6 N 0.6075(3) 0.59248(17) 0.2189(4)
C21_6 C 0.6483(3) 0.67962(19) 0.3991(4)
C22_6 C 0.6270(3) 0.63057(18) 0.3179(4)
N18_6 N 0.5899(2) 0.59949(17) 0.1551(3)
N19_6 N 0.5562(2) 0.57609(17) 0.1424(3)
C23_6 C 0.6465(3) 0.6146(2) 0.2507(5)
H22_6 H 0.6756 0.6002 0.2601
H23_6 H 0.6560 0.6335 0.2191
N20_6 N 0.3984(2) 0.40973(17) 0.0743(4)
H24_6 H 0.4194 0.4147 0.0423
C24_6 C 0.5840(3) 0.56353(19) 0.2437(4)
H25_6 H 0.5896 0.5529 0.2864
C25_6 C 0.4370(3) 0.45580(19) 0.1380(4)
H26_6 H 0.4590 0.4576 0.1011
N22_6 N 0.3231(3) 0.31062(17) 0.0177(4)
C26_6 C 0.4108(4) 0.4751(2) 0.2445(5)
H27_6 H 0.4153 0.4893 0.2835
C27_6 C 0.3700(4) 0.4533(3) 0.2415(5)
H28_6 H 0.3467 0.4535 0.2770
C28_6 C 0.3637(4) 0.4309(2) 0.1855(5)
H29_6 H 0.3366 0.4156 0.1832
H30_6 H 0.4157 0.3477 0.0094
C31_6 C 0.3684(3) 0.38144(19) 0.0630(4)
C32_6 C 0.3985(3) 0.43164(19) 0.1326(4)
N25_4 N 0.1876(2) 0.77791(15) 0.5273(3)
N27_4 N 0.2054(2) 0.70855(15) 0.4757(3)
N9_6 N 0.6524(2) 0.33412(15) 0.9799(3)
N12_6 N 0.6952(2) 0.30361(18) 0.9097(3)
C13_6 C 0.6152(3) 0.3599(2) 0.9992(4)
H15_6 H 0.6093 0.3759 0.9607
C14_6 C 0.6637(2) 0.32879(17) 0.9127(3)
H16_6 H 0.6508 0.3413 0.8753
N21_6 N 0.3476(2) 0.33412(15) 0.9799(3)
N23_4 N 0.2946(2) 0.29145(15) 0.9757(3)
N24_6 N 0.3048(2) 0.30361(18) 0.9097(3)
C29_6 C 0.3848(3) 0.3599(2) 0.9992(4)
H31_6 H 0.3907 0.3759 0.9607
C30_6 C 0.3363(2) 0.32879(17) 0.9127(3)
H32_6 H 0.3492 0.3413 0.8753
C2_7 C 0.1473(3) 0.27782(19) 0.0114(4)
H2_7 H 0.1465 0.2631 0.0500
H3_7 H 0.0785 0.2980 0.0256
N26_4 N 0.2054(2) 0.20855(15) 0.0243(3)
Cu1_9 Cu -0.0000 0.48616(3) 0.69509(7)
C1_7 C 0.1886(3) 0.29916(18) 0.9171(4)
H1_7 H 0.2170 0.2998 0.8898
N1_7 N 0.1876(2) 0.27791(15) 0.9727(3)
O2_9 O -0.0000 0.48494(19) 0.5740(4)
O3_7 O 0.0929(2) 0.38188(16) 0.8511(3)
C3_7 C 0.1062(3) 0.2987(2) 0.9969(4)
N3_7 N 0.0521(2) 0.44699(15) 0.6970(3)
C4_7 C 0.1068(3) 0.3207(2) 0.9394(4)
H4_7 H 0.0800 0.3352 0.9287
N4_7 N 0.1546(2) 0.34075(17) 0.8380(3)
H5_7 H 0.1782 0.3344 0.8108
N5_7 N 0.1075(3) 0.40752(17) 0.7189(4)
C5_7 C 0.1483(3) 0.32038(19) 0.8991(4)
C6_7 C 0.1270(3) 0.36943(18) 0.8179(4)
N6_7 N 0.0899(2) 0.40051(17) 0.6551(3)
N7_7 N 0.0562(2) 0.42391(17) 0.6424(3)
C7_7 C 0.1465(3) 0.3854(2) 0.7507(5)
H6_7 H 0.1756 0.3998 0.7601
H7_7 H 0.1560 0.3665 0.7191
C8_7 C 0.0840(3) 0.43647(19) 0.7437(4)
H9_7 H 0.0896 0.4471 0.7864
O4_7 O 0.1664(2) 0.62715(15) 0.5989(3)
N14_7 N 0.0552(2) 0.52302(16) 0.6933(3)
N20_7 N 0.1016(2) 0.59027(17) 0.5743(4)
H24_7 H 0.0806 0.5853 0.5423
N21_7 N 0.1524(2) 0.66588(15) 0.4799(3)
C25_7 C 0.0630(3) 0.54420(19) 0.6380(4)
H26_7 H 0.0410 0.5424 0.6011
N22_7 N 0.1769(3) 0.68938(17) 0.5177(4)
C26_7 C 0.0892(4) 0.5249(2) 0.7445(5)
H27_7 H 0.0847 0.5107 0.7835
C27_7 C 0.1300(4) 0.5467(3) 0.7415(5)
H28_7 H 0.1533 0.5465 0.7770
N24_7 N 0.1952(2) 0.69639(18) 0.4097(3)
C28_7 C 0.1363(4) 0.5691(2) 0.6855(5)
H29_7 H 0.1634 0.5844 0.6832
C29_7 C 0.1152(3) 0.6401(2) 0.4992(4)
H30_7 H 0.0843 0.6523 0.5094
H31_7 H 0.1093 0.6241 0.4607
C30_7 C 0.1637(2) 0.67121(17) 0.4127(3)
H32_7 H 0.1508 0.6587 0.3753
C31_7 C 0.1316(3) 0.61856(19) 0.5630(4)
C32_7 C 0.1015(3) 0.56836(19) 0.6326(4)
H33_8 H 0.00777613 0.509025 0.555956
H34_8 H 0.0253955 0.467808 0.557528
C18_7 C 0.8527(3) 0.27782(19) 0.0114(4)
H18_7 H 0.8535 0.2631 0.0500
H19_7 H 0.9215 0.2980 0.0256
Cu1_10 Cu 1.0000 0.48616(3) 0.69509(7)
O1_7 O 0.8336(2) 0.62715(15) 0.5989(3)
O2_10 O 1.0000 0.48494(19) 0.5740(4)
N2_7 N 0.9448(2) 0.52302(16) 0.6933(3)
N8_7 N 0.8984(2) 0.59027(17) 0.5743(4)
H8_7 H 0.9194 0.5853 0.5423
N9_7 N 0.8476(2) 0.66588(15) 0.4799(3)
C9_7 C 0.9370(3) 0.54420(19) 0.6380(4)
H10_7 H 0.9590 0.5424 0.6011
N10_7 N 0.8231(3) 0.68938(17) 0.5177(4)
C10_7 C 0.9108(4) 0.5249(2) 0.7445(5)
H11_7 H 0.9153 0.5107 0.7835
N11_4 N 0.7946(2) 0.70855(15) 0.4757(3)
C11_7 C 0.8700(4) 0.5467(3) 0.7415(5)
H12_7 H 0.8467 0.5465 0.7770
N12_7 N 0.8048(2) 0.69639(18) 0.4097(3)
C12_7 C 0.8637(4) 0.5691(2) 0.6855(5)
H13_7 H 0.8366 0.5844 0.6832
C13_7 C 0.8848(3) 0.6401(2) 0.4992(4)
H14_7 H 0.9157 0.6523 0.5094
H15_7 H 0.8907 0.6241 0.4607
C14_7 C 0.8363(2) 0.67121(17) 0.4127(3)
H16_7 H 0.8492 0.6587 0.3753
C15_7 C 0.8684(3) 0.61856(19) 0.5630(4)
C16_7 C 0.8985(3) 0.56836(19) 0.6326(4)
C17_7 C 0.8114(3) 0.29916(18) 0.9171(4)
H17_7 H 0.7830 0.2998 0.8898
O5_7 O 0.9071(2) 0.38188(16) 0.8511(3)
C19_7 C 0.8938(3) 0.2987(2) 0.9969(4)
N15_7 N 0.9479(2) 0.44699(15) 0.6970(3)
C20_7 C 0.8932(3) 0.3207(2) 0.9394(4)
H20_7 H 0.9200 0.3352 0.9287
N16_7 N 0.8454(2) 0.34075(17) 0.8380(3)
H21_7 H 0.8218 0.3344 0.8108
N17_7 N 0.8925(3) 0.40752(17) 0.7189(4)
C21_7 C 0.8517(3) 0.32038(19) 0.8991(4)
C22_7 C 0.8730(3) 0.36943(18) 0.8179(4)
N18_7 N 0.9101(2) 0.40051(17) 0.6551(3)
N19_7 N 0.9438(2) 0.42391(17) 0.6424(3)
C23_7 C 0.8535(3) 0.3854(2) 0.7507(5)
H22_7 H 0.8244 0.3998 0.7601
H23_7 H 0.8440 0.3665 0.7191
C24_7 C 0.9160(3) 0.43647(19) 0.7437(4)
H25_7 H 0.9104 0.4471 0.7864
N9_8 N 0.1524(2) 0.16588(15) 0.0201(3)
N12_8 N 0.1952(2) 0.19639(18) 0.0903(3)
C13_8 C 0.1152(3) 0.1401(2) 0.0008(4)
H15_8 H 0.1093 0.1241 0.0393
C14_8 C 0.1637(2) 0.17121(17) 0.0873(3)
H16_8 H 0.1508 0.1587 0.1247
O1_8 O 0.1664(2) 0.12715(15) 0.9011(3)
N2_8 N 0.0552(2) 0.02302(16) 0.8067(3)
N8_8 N 0.1016(2) 0.09027(17) 0.9257(4)
H8_8 H 0.0806 0.0853 0.9577
C9_8 C 0.0630(3) 0.04420(19) 0.8620(4)
H10_8 H 0.0410 0.0424 0.8989
N10_8 N 0.1769(3) 0.18938(17) 0.9823(4)
C10_8 C 0.0892(4) 0.0249(2) 0.7555(5)
H11_8 H 0.0847 0.0107 0.7165
C11_8 C 0.1300(4) 0.0467(3) 0.7585(5)
H12_8 H 0.1533 0.0465 0.7230
C12_8 C 0.1363(4) 0.0691(2) 0.8145(5)
H13_8 H 0.1634 0.0844 0.8168
H14_8 H 0.0843 0.1523 0.9906
C15_8 C 0.1316(3) 0.11856(19) 0.9370(4)
C16_8 C 0.1015(3) 0.06836(19) 0.8674(4)
Cu1_11 Cu 0.0000 0.98616(3) 0.80491(7)
O2_11 O 0.0000 0.98494(19) 0.9260(4)
C17_8 C 0.1886(3) 0.79916(18) 0.5829(4)
H17_8 H 0.2170 0.7998 0.6102
C18_8 C 0.1473(3) 0.77782(19) 0.4886(4)
H18_8 H 0.1465 0.7631 0.4500
O5_8 O 0.0929(2) 0.88188(16) 0.6489(3)
C19_8 C 0.1062(3) 0.7987(2) 0.5031(4)
H19_8 H 0.0785 0.7980 0.4744
N15_8 N 0.0521(2) 0.94699(15) 0.8030(3)
C20_8 C 0.1068(3) 0.8207(2) 0.5606(4)
H20_8 H 0.0800 0.8352 0.5713
N16_8 N 0.1546(2) 0.84075(17) 0.6620(3)
H21_8 H 0.1782 0.8344 0.6892
N17_8 N 0.1075(3) 0.90752(17) 0.7811(4)
C21_8 C 0.1483(3) 0.82038(19) 0.6009(4)
C22_8 C 0.1270(3) 0.86943(18) 0.6821(4)
N18_8 N 0.0899(2) 0.90051(17) 0.8449(3)
N19_8 N 0.0562(2) 0.92391(17) 0.8576(3)
C23_8 C 0.1465(3) 0.8854(2) 0.7493(5)
H22_8 H 0.1756 0.8998 0.7399
H23_8 H 0.1560 0.8665 0.7809
C24_8 C 0.0840(3) 0.93647(19) 0.7563(4)
H25_8 H 0.0896 0.9471 0.7136
N21_8 N 0.8476(2) 0.16588(15) 0.0201(3)
N24_8 N 0.8048(2) 0.19639(18) 0.0903(3)
C29_8 C 0.8848(3) 0.1401(2) 0.0008(4)
H31_8 H 0.8907 0.1241 0.0393
C30_8 C 0.8363(2) 0.17121(17) 0.0873(3)
H32_8 H 0.8492 0.1587 0.1247
O4_8 O 0.8336(2) 0.12715(15) 0.9011(3)
N14_8 N 0.9448(2) 0.02302(16) 0.8067(3)
N20_8 N 0.8984(2) 0.09027(17) 0.9257(4)
H24_8 H 0.9194 0.0853 0.9577
C25_8 C 0.9370(3) 0.04420(19) 0.8620(4)
H26_8 H 0.9590 0.0424 0.8989
N22_8 N 0.8231(3) 0.18938(17) 0.9823(4)
C26_8 C 0.9108(4) 0.0249(2) 0.7555(5)
H27_8 H 0.9153 0.0107 0.7165
C27_8 C 0.8700(4) 0.0467(3) 0.7585(5)
H28_8 H 0.8467 0.0465 0.7230
C28_8 C 0.8637(4) 0.0691(2) 0.8145(5)
H29_8 H 0.8366 0.0844 0.8168
H30_8 H 0.9157 0.1523 0.9906
C31_8 C 0.8684(3) 0.11856(19) 0.9370(4)
C32_8 C 0.8985(3) 0.06836(19) 0.8674(4)
H33_9 H 0.992224 0.00902485 0.944044
Cu1_12 Cu 1.0000 0.98616(3) 0.80491(7)
C1_8 C 0.8114(3) 0.79916(18) 0.5829(4)
H1_8 H 0.7830 0.7998 0.6102
N1_8 N 0.8124(2) 0.77791(15) 0.5273(3)
O2_12 O 1.0000 0.98494(19) 0.9260(4)
C2_8 C 0.8527(3) 0.77782(19) 0.4886(4)
H2_8 H 0.8535 0.7631 0.4500
O3_8 O 0.9071(2) 0.88188(16) 0.6489(3)
C3_8 C 0.8938(3) 0.7987(2) 0.5031(4)
H3_8 H 0.9215 0.7980 0.4744
N3_8 N 0.9479(2) 0.94699(15) 0.8030(3)
C4_8 C 0.8932(3) 0.8207(2) 0.5606(4)
H4_8 H 0.9200 0.8352 0.5713
N4_8 N 0.8454(2) 0.84075(17) 0.6620(3)
H5_8 H 0.8218 0.8344 0.6892
N5_8 N 0.8925(3) 0.90752(17) 0.7811(4)
C5_8 C 0.8517(3) 0.82038(19) 0.6009(4)
C6_8 C 0.8730(3) 0.86943(18) 0.6821(4)
N6_8 N 0.9101(2) 0.90051(17) 0.8449(3)
N7_8 N 0.9438(2) 0.92391(17) 0.8576(3)
C7_8 C 0.8535(3) 0.8854(2) 0.7493(5)
H6_8 H 0.8244 0.8998 0.7399
H7_8 H 0.8440 0.8665 0.7809
C8_8 C 0.9160(3) 0.93647(19) 0.7563(4)
H9_8 H 0.9104 0.9471 0.7136
H34_9 H 0.974604 0.967808 0.942472
H33_10 H 0.992224 0.509025 0.555956
H34_10 H 0.974604 0.467808 0.557528
H33_11 H 0.00777613 0.00902485 0.944044
H34_11 H 0.0253955 0.967808 0.942472
H34_12 H 0.474604 0.0321922 0.442472
H33_12 H 0.492224 0.990975 0.444044
O6 O 0.24610(19) 0.42459(12) 0.0494(3)
Mo5 Mo 0.24739(2) 0.590184(16) 0.06575(3)
O20 O 0.2463(2) 0.47005(14) 0.1580(3)
O21 O 0.39495(19) 0.52982(14) 0.0459(3)
O22 O 0.31623(17) 0.47802(12) 0.0503(2)
Mo6 Mo 0.24706(2) 0.469534(15) 0.07075(3)
O23 O 0.17673(18) 0.47823(13) 0.0508(3)
Mo7 Mo 0.33348(2) 0.529295(15) 0.06637(3)
O24 O 0.0995(2) 0.52964(17) 0.0497(4)
O25 O 0.1637(2) 0.52829(16) 0.1563(3)
Mo8 Mo 0.16110(2) 0.528928(17) 0.06834(4)
O26 O 0.2447(2) 0.63359(13) 0.0427(3)
O27 O 0.24605(17) 0.52592(13) 0.0532(3)
O28 O 0.17879(19) 0.57690(13) 0.0499(3)
O29 O 0.2471(2) 0.58985(16) 0.1542(3)
O30 O 0.31498(19) 0.57736(13) 0.0495(3)
O31 O 0.3311(2) 0.52834(14) 0.1544(3)
Mo1 Mo 0.24739(2) 0.409816(16) 0.93425(3)
O7 O 0.2463(2) 0.52995(14) 0.8420(3)
O8 O 0.39495(19) 0.47018(14) 0.9541(3)
O9 O 0.31623(17) 0.52198(12) 0.9497(2)
Mo2 Mo 0.24706(2) 0.530466(15) 0.92925(3)
O10 O 0.17673(18) 0.52177(13) 0.9492(3)
Mo3 Mo 0.33348(2) 0.470705(15) 0.93363(3)
O11 O 0.0995(2) 0.47036(17) 0.9503(4)
O12 O 0.1637(2) 0.47171(16) 0.8437(3)
Mo4 Mo 0.16110(2) 0.471072(17) 0.93166(4)
O13 O 0.2447(2) 0.36641(13) 0.9573(3)
O14 O 0.24605(17) 0.47408(13) 0.9468(3)
O15 O 0.17879(19) 0.42310(13) 0.9501(3)
O16 O 0.2471(2) 0.41015(16) 0.8458(3)
O17 O 0.31498(19) 0.42264(13) 0.9505(3)
O18 O 0.3311(2) 0.47166(14) 0.8456(3)
O19 O 0.24610(19) 0.57541(12) 0.9506(3)
O6_2 O 0.75390(19) 0.07541(12) 0.5494(3)
Mo1_2 Mo 0.75261(2) 0.090184(16) 0.43425(3)
O8_2 O 0.60505(19) 0.02982(14) 0.4541(3)
Mo3_2 Mo 0.66652(2) 0.029295(15) 0.43363(3)
O11_2 O 0.9005(2) 0.02964(17) 0.4503(4)
O12_2 O 0.8363(2) 0.02829(16) 0.3437(3)
Mo4_2 Mo 0.83890(2) 0.028928(17) 0.43166(4)
O13_2 O 0.7553(2) 0.13359(13) 0.4573(3)
O14_2 O 0.75395(17) 0.02592(13) 0.4468(3)
O15_2 O 0.82121(19) 0.07690(13) 0.4501(3)
O16_2 O 0.7529(2) 0.08985(16) 0.3458(3)
O17_2 O 0.68502(19) 0.07736(13) 0.4505(3)
O18_2 O 0.6689(2) 0.02834(14) 0.3456(3)
O20_2 O 0.7537(2) 0.02995(14) 0.6580(3)
O22_2 O 0.68377(17) 0.02198(12) 0.5503(2)
Mo6_2 Mo 0.75294(2) 0.030466(15) 0.57075(3)
O23_2 O 0.82327(18) 0.02177(13) 0.5508(3)
O7_2 O 0.7537(2) 0.97005(14) 0.3420(3)
O9_2 O 0.68377(17) 0.97802(12) 0.4497(2)
Mo2_2 Mo 0.75294(2) 0.969534(15) 0.42925(3)
O10_2 O 0.82327(18) 0.97823(13) 0.4492(3)
O19_2 O 0.75390(19) 0.92459(12) 0.4506(3)
Mo5_2 Mo 0.75261(2) 0.909816(16) 0.56575(3)
O21_2 O 0.60505(19) 0.97018(14) 0.5459(3)
Mo7_2 Mo 0.66652(2) 0.970705(15) 0.56637(3)
O24_2 O 0.9005(2) 0.97036(17) 0.5497(4)
O25_2 O 0.8363(2) 0.97171(16) 0.6563(3)
Mo8_2 Mo 0.83890(2) 0.971072(17) 0.56834(4)
O26_2 O 0.7553(2) 0.86641(13) 0.5427(3)
O27_2 O 0.75395(17) 0.97408(13) 0.5532(3)
O28_2 O 0.82121(19) 0.92310(13) 0.5499(3)
O29_2 O 0.7529(2) 0.91015(16) 0.6542(3)
O30_2 O 0.68502(19) 0.92264(13) 0.5495(3)
O31_2 O 0.6689(2) 0.97166(14) 0.6544(3)
O6_3 O 0.25390(19) 0.42459(12) 0.4506(3)
Mo1_3 Mo 0.25261(2) 0.409816(16) 0.56575(3)
O7_3 O 0.2537(2) 0.52995(14) 0.6580(3)
O8_3 O 0.10505(19) 0.47018(14) 0.5459(3)
O9_3 O 0.18377(17) 0.52198(12) 0.5503(2)
Mo2_3 Mo 0.25294(2) 0.530466(15) 0.57075(3)
O10_3 O 0.32327(18) 0.52177(13) 0.5508(3)
Mo3_3 Mo 0.16652(2) 0.470705(15) 0.56637(3)
O11_3 O 0.4005(2) 0.47036(17) 0.5497(4)
O12_3 O 0.3363(2) 0.47171(16) 0.6563(3)
Mo4_3 Mo 0.33890(2) 0.471072(17) 0.56834(4)
O13_3 O 0.2553(2) 0.36641(13) 0.5427(3)
O14_3 O 0.25395(17) 0.47408(13) 0.5532(3)
O15_3 O 0.32121(19) 0.42310(13) 0.5499(3)
O16_3 O 0.2529(2) 0.41015(16) 0.6542(3)
O17_3 O 0.18502(19) 0.42264(13) 0.5495(3)
O18_3 O 0.1689(2) 0.47166(14) 0.6544(3)
O19_3 O 0.25390(19) 0.57541(12) 0.5494(3)
Mo5_3 Mo 0.25261(2) 0.590184(16) 0.43425(3)
O20_3 O 0.2537(2) 0.47005(14) 0.3420(3)
O21_3 O 0.10505(19) 0.52982(14) 0.4541(3)
O22_3 O 0.18377(17) 0.47802(12) 0.4497(2)
Mo6_3 Mo 0.25294(2) 0.469534(15) 0.42925(3)
O23_3 O 0.32327(18) 0.47823(13) 0.4492(3)
Mo7_3 Mo 0.16652(2) 0.529295(15) 0.43363(3)
O24_3 O 0.4005(2) 0.52964(17) 0.4503(4)
O25_3 O 0.3363(2) 0.52829(16) 0.3437(3)
Mo8_3 Mo 0.33890(2) 0.528928(17) 0.43166(4)
O26_3 O 0.2553(2) 0.63359(13) 0.4573(3)
O27_3 O 0.25395(17) 0.52592(13) 0.4468(3)
O28_3 O 0.32121(19) 0.57690(13) 0.4501(3)
O29_3 O 0.2529(2) 0.58985(16) 0.3458(3)
O30_3 O 0.18502(19) 0.57736(13) 0.4505(3)
O31_3 O 0.1689(2) 0.52834(14) 0.3456(3)
Mo5_4 Mo 0.74739(2) 0.090184(16) 0.06575(3)
O21_4 O 0.89495(19) 0.02982(14) 0.0459(3)
Mo7_4 Mo 0.83348(2) 0.029295(15) 0.06637(3)
O24_4 O 0.5995(2) 0.02964(17) 0.0497(4)
O25_4 O 0.6637(2) 0.02829(16) 0.1563(3)
Mo8_4 Mo 0.66110(2) 0.028928(17) 0.06834(4)
O26_4 O 0.7447(2) 0.13359(13) 0.0427(3)
O27_4 O 0.74605(17) 0.02592(13) 0.0532(3)
O28_4 O 0.67879(19) 0.07690(13) 0.0499(3)
O29_4 O 0.7471(2) 0.08985(16) 0.1542(3)
O30_4 O 0.81498(19) 0.07736(13) 0.0495(3)
O31_4 O 0.8311(2) 0.02834(14) 0.1544(3)
O7_4 O 0.7463(2) 0.02995(14) 0.8420(3)
O9_4 O 0.81623(17) 0.02198(12) 0.9497(2)
Mo2_4 Mo 0.74706(2) 0.030466(15) 0.92925(3)
O10_4 O 0.67673(18) 0.02177(13) 0.9492(3)
O19_4 O 0.74610(19) 0.07541(12) 0.9506(3)
O6_4 O 0.74610(19) 0.92459(12) 0.0494(3)
O20_4 O 0.7463(2) 0.97005(14) 0.1580(3)
O22_4 O 0.81623(17) 0.97802(12) 0.0503(2)
Mo6_4 Mo 0.74706(2) 0.969534(15) 0.07075(3)
O23_4 O 0.67673(18) 0.97823(13) 0.0508(3)
Mo1_4 Mo 0.74739(2) 0.909816(16) 0.93425(3)
O8_4 O 0.89495(19) 0.97018(14) 0.9541(3)
Mo3_4 Mo 0.83348(2) 0.970705(15) 0.93363(3)
O11_4 O 0.5995(2) 0.97036(17) 0.9503(4)
O12_4 O 0.6637(2) 0.97171(16) 0.8437(3)
Mo4_4 Mo 0.66110(2) 0.971072(17) 0.93166(4)
O13_4 O 0.7447(2) 0.86641(13) 0.9573(3)
O14_4 O 0.74605(17) 0.97408(13) 0.9468(3)
O15_4 O 0.67879(19) 0.92310(13) 0.9501(3)
O16_4 O 0.7471(2) 0.91015(16) 0.8458(3)
O17_4 O 0.81498(19) 0.92264(13) 0.9505(3)
O18_4 O 0.8311(2) 0.97166(14) 0.8456(3)
Mo1_5 Mo 0.75261(2) 0.590184(16) 0.06575(3)
O7_5 O 0.7537(2) 0.47005(14) 0.1580(3)
O8_5 O 0.60505(19) 0.52982(14) 0.0459(3)
O9_5 O 0.68377(17) 0.47802(12) 0.0503(2)
Mo2_5 Mo 0.75294(2) 0.469534(15) 0.07075(3)
O10_5 O 0.82327(18) 0.47823(13) 0.0508(3)
Mo3_5 Mo 0.66652(2) 0.529295(15) 0.06637(3)
O11_5 O 0.9005(2) 0.52964(17) 0.0497(4)
O12_5 O 0.8363(2) 0.52829(16) 0.1563(3)
Mo4_5 Mo 0.83890(2) 0.528928(17) 0.06834(4)
O13_5 O 0.7553(2) 0.63359(13) 0.0427(3)
O14_5 O 0.75395(17) 0.52592(13) 0.0532(3)
O15_5 O 0.82121(19) 0.57690(13) 0.0499(3)
O16_5 O 0.7529(2) 0.58985(16) 0.1542(3)
O17_5 O 0.68502(19) 0.57736(13) 0.0495(3)
O18_5 O 0.6689(2) 0.52834(14) 0.1544(3)
O19_5 O 0.75390(19) 0.42459(12) 0.0494(3)
O6_5 O 0.75390(19) 0.57541(12) 0.9506(3)
Mo5_5 Mo 0.75261(2) 0.409816(16) 0.93425(3)
O20_5 O 0.7537(2) 0.52995(14) 0.8420(3)
O21_5 O 0.60505(19) 0.47018(14) 0.9541(3)
O22_5 O 0.68377(17) 0.52198(12) 0.9497(2)
Mo6_5 Mo 0.75294(2) 0.530466(15) 0.92925(3)
O23_5 O 0.82327(18) 0.52177(13) 0.9492(3)
Mo7_5 Mo 0.66652(2) 0.470705(15) 0.93363(3)
O24_5 O 0.9005(2) 0.47036(17) 0.9503(4)
O25_5 O 0.8363(2) 0.47171(16) 0.8437(3)
Mo8_5 Mo 0.83890(2) 0.471072(17) 0.93166(4)
O26_5 O 0.7553(2) 0.36641(13) 0.9573(3)
O27_5 O 0.75395(17) 0.47408(13) 0.9468(3)
O28_5 O 0.82121(19) 0.42310(13) 0.9501(3)
O29_5 O 0.7529(2) 0.41015(16) 0.8458(3)
O30_5 O 0.68502(19) 0.42264(13) 0.9505(3)
O31_5 O 0.6689(2) 0.47166(14) 0.8456(3)
O7_6 O 0.2463(2) 0.02995(14) 0.6580(3)
O9_6 O 0.31623(17) 0.02198(12) 0.5503(2)
Mo2_6 Mo 0.24706(2) 0.030466(15) 0.57075(3)
O10_6 O 0.17673(18) 0.02177(13) 0.5508(3)
O19_6 O 0.24610(19) 0.07541(12) 0.5494(3)
Mo5_6 Mo 0.24739(2) 0.090184(16) 0.43425(3)
O21_6 O 0.39495(19) 0.02982(14) 0.4541(3)
Mo7_6 Mo 0.33348(2) 0.029295(15) 0.43363(3)
O24_6 O 0.0995(2) 0.02964(17) 0.4503(4)
O25_6 O 0.1637(2) 0.02829(16) 0.3437(3)
Mo8_6 Mo 0.16110(2) 0.028928(17) 0.43166(4)
O26_6 O 0.2447(2) 0.13359(13) 0.4573(3)
O27_6 O 0.24605(17) 0.02592(13) 0.4468(3)
O28_6 O 0.17879(19) 0.07690(13) 0.4501(3)
O29_6 O 0.2471(2) 0.08985(16) 0.3458(3)
O30_6 O 0.31498(19) 0.07736(13) 0.4505(3)
O31_6 O 0.3311(2) 0.02834(14) 0.3456(3)
O6_6 O 0.24610(19) 0.92459(12) 0.4506(3)
Mo1_6 Mo 0.24739(2) 0.909816(16) 0.56575(3)
O8_6 O 0.39495(19) 0.97018(14) 0.5459(3)
Mo3_6 Mo 0.33348(2) 0.970705(15) 0.56637(3)
O11_6 O 0.0995(2) 0.97036(17) 0.5497(4)
O12_6 O 0.1637(2) 0.97171(16) 0.6563(3)
Mo4_6 Mo 0.16110(2) 0.971072(17) 0.56834(4)
O13_6 O 0.2447(2) 0.86641(13) 0.5427(3)
O14_6 O 0.24605(17) 0.97408(13) 0.5532(3)
O15_6 O 0.17879(19) 0.92310(13) 0.5499(3)
O16_6 O 0.2471(2) 0.91015(16) 0.6542(3)
O17_6 O 0.31498(19) 0.92264(13) 0.5495(3)
O18_6 O 0.3311(2) 0.97166(14) 0.6544(3)
O20_6 O 0.2463(2) 0.97005(14) 0.3420(3)
O22_6 O 0.31623(17) 0.97802(12) 0.4497(2)
Mo6_6 Mo 0.24706(2) 0.969534(15) 0.42925(3)
O23_6 O 0.17673(18) 0.97823(13) 0.4492(3)
O6_7 O 0.74610(19) 0.57541(12) 0.5494(3)
Mo1_7 Mo 0.74739(2) 0.590184(16) 0.43425(3)
O7_7 O 0.7463(2) 0.47005(14) 0.3420(3)
O8_7 O 0.89495(19) 0.52982(14) 0.4541(3)
O9_7 O 0.81623(17) 0.47802(12) 0.4497(2)
Mo2_7 Mo 0.74706(2) 0.469534(15) 0.42925(3)
O10_7 O 0.67673(18) 0.47823(13) 0.4492(3)
Mo3_7 Mo 0.83348(2) 0.529295(15) 0.43363(3)
O11_7 O 0.5995(2) 0.52964(17) 0.4503(4)
O12_7 O 0.6637(2) 0.52829(16) 0.3437(3)
Mo4_7 Mo 0.66110(2) 0.528928(17) 0.43166(4)
O13_7 O 0.7447(2) 0.63359(13) 0.4573(3)
O14_7 O 0.74605(17) 0.52592(13) 0.4468(3)
O15_7 O 0.67879(19) 0.57690(13) 0.4501(3)
O16_7 O 0.7471(2) 0.58985(16) 0.3458(3)
O17_7 O 0.81498(19) 0.57736(13) 0.4505(3)
O18_7 O 0.8311(2) 0.52834(14) 0.3456(3)
O19_7 O 0.74610(19) 0.42459(12) 0.4506(3)
Mo5_7 Mo 0.74739(2) 0.409816(16) 0.56575(3)
O20_7 O 0.7463(2) 0.52995(14) 0.6580(3)
O21_7 O 0.89495(19) 0.47018(14) 0.5459(3)
O22_7 O 0.81623(17) 0.52198(12) 0.5503(2)
Mo6_7 Mo 0.74706(2) 0.530466(15) 0.57075(3)
O23_7 O 0.67673(18) 0.52177(13) 0.5508(3)
Mo7_7 Mo 0.83348(2) 0.470705(15) 0.56637(3)
O24_7 O 0.5995(2) 0.47036(17) 0.5497(4)
O25_7 O 0.6637(2) 0.47171(16) 0.6563(3)
Mo8_7 Mo 0.66110(2) 0.471072(17) 0.56834(4)
O26_7 O 0.7447(2) 0.36641(13) 0.5427(3)
O27_7 O 0.74605(17) 0.47408(13) 0.5532(3)
O28_7 O 0.67879(19) 0.42310(13) 0.5499(3)
O29_7 O 0.7471(2) 0.41015(16) 0.6542(3)
O30_7 O 0.81498(19) 0.42264(13) 0.5495(3)
O31_7 O 0.8311(2) 0.47166(14) 0.6544(3)
Mo1_8 Mo 0.25261(2) 0.090184(16) 0.06575(3)
O8_8 O 0.10505(19) 0.02982(14) 0.0459(3)
Mo3_8 Mo 0.16652(2) 0.029295(15) 0.06637(3)
O11_8 O 0.4005(2) 0.02964(17) 0.0497(4)
O12_8 O 0.3363(2) 0.02829(16) 0.1563(3)
Mo4_8 Mo 0.33890(2) 0.028928(17) 0.06834(4)
O13_8 O 0.2553(2) 0.13359(13) 0.0427(3)
O14_8 O 0.25395(17) 0.02592(13) 0.0532(3)
O15_8 O 0.32121(19) 0.07690(13) 0.0499(3)
O16_8 O 0.2529(2) 0.08985(16) 0.1542(3)
O17_8 O 0.18502(19) 0.07736(13) 0.0495(3)
O18_8 O 0.1689(2) 0.02834(14) 0.1544(3)
O6_8 O 0.25390(19) 0.07541(12) 0.9506(3)
O20_8 O 0.2537(2) 0.02995(14) 0.8420(3)
O22_8 O 0.18377(17) 0.02198(12) 0.9497(2)
Mo6_8 Mo 0.25294(2) 0.030466(15) 0.92925(3)
O23_8 O 0.32327(18) 0.02177(13) 0.9492(3)
O7_8 O 0.2537(2) 0.97005(14) 0.1580(3)
O9_8 O 0.18377(17) 0.97802(12) 0.0503(2)
Mo2_8 Mo 0.25294(2) 0.969534(15) 0.07075(3)
O10_8 O 0.32327(18) 0.97823(13) 0.0508(3)
O19_8 O 0.25390(19) 0.92459(12) 0.0494(3)
Mo5_8 Mo 0.25261(2) 0.909816(16) 0.93425(3)
O21_8 O 0.10505(19) 0.97018(14) 0.9541(3)
Mo7_8 Mo 0.16652(2) 0.970705(15) 0.93363(3)
O24_8 O 0.4005(2) 0.97036(17) 0.9503(4)
O25_8 O 0.3363(2) 0.97171(16) 0.8437(3)
Mo8_8 Mo 0.33890(2) 0.971072(17) 0.93166(4)
O26_8 O 0.2553(2) 0.86641(13) 0.9573(3)
O27_8 O 0.25395(17) 0.97408(13) 0.9468(3)
O28_8 O 0.32121(19) 0.92310(13) 0.9501(3)
O29_8 O 0.2529(2) 0.91015(16) 0.8458(3)
O30_8 O 0.18502(19) 0.92264(13) 0.9505(3)
O31_8 O 0.1689(2) 0.97166(14) 0.8456(3)
Mo9 Mo 0.5000 0.27520(2) 0.65190(4)
Mo10 Mo 0.41413(2) 0.274622(15) 0.78955(3)
Mo11 Mo 0.5000 0.21471(2) 0.79409(4)
Mo12 Mo 0.5000 0.33646(2) 0.78524(4)
Mo13 Mo 0.41484(2) 0.215503(16) 0.65602(3)
Mo14 Mo 0.5000 0.15408(2) 0.65866(4)
O32 O 0.5000 0.26977(17) 0.7747(4)
O33 O 0.5000 0.32059(18) 0.6714(3)
O34 O 0.35292(19) 0.27502(15) 0.7703(3)
O35 O 0.5000 0.16932(17) 0.7724(3)
O36 O 0.41790(18) 0.21525(14) 0.5676(3)
O37 O 0.41706(19) 0.27264(14) 0.8768(3)
O38 O 0.5000 0.2744(2) 0.5631(4)
O39 O 0.5000 0.33811(19) 0.8732(4)
O40 O 0.5000 0.15457(19) 0.5689(4)
O41 O 0.5000 0.1098(2) 0.6799(4)
O42 O 0.56776(19) 0.16732(13) 0.6736(3)
O43 O 0.43026(18) 0.22302(12) 0.7737(2)
O44 O 0.35293(18) 0.21323(14) 0.6746(3)
O45 O 0.5000 0.37962(16) 0.7586(4)
O46 O 0.5000 0.21856(17) 0.6707(3)
O47 O 0.5000 0.2151(2) 0.8819(4)
O48 O 0.43192(19) 0.32194(12) 0.7713(3)
O49 O 0.42988(18) 0.26655(12) 0.6721(2)
Mo15 Mo 0.58587(2) 0.274622(15) 0.78955(3)
Mo16 Mo 0.58516(2) 0.215503(16) 0.65602(3)
O50 O 0.64708(19) 0.27502(15) 0.7703(3)
O51 O 0.58210(18) 0.21525(14) 0.5676(3)
O52 O 0.58294(19) 0.27264(14) 0.8768(3)
O53 O 0.43224(19) 0.16732(13) 0.6736(3)
O54 O 0.56974(18) 0.22302(12) 0.7737(2)
O55 O 0.64707(18) 0.21323(14) 0.6746(3)
O56 O 0.56808(19) 0.32194(12) 0.7713(3)
O57 O 0.57012(18) 0.26655(12) 0.6721(2)
Mo9_2 Mo 0.5000 0.22480(2) 0.15190(4)
Mo10_2 Mo 0.58587(2) 0.225378(15) 0.28955(3)
Mo11_2 Mo 0.5000 0.28529(2) 0.29409(4)
Mo12_2 Mo 0.5000 0.16354(2) 0.28524(4)
Mo13_2 Mo 0.58516(2) 0.284497(16) 0.15602(3)
Mo14_2 Mo 0.5000 0.34592(2) 0.15866(4)
O32_2 O 0.5000 0.23023(17) 0.2747(4)
O33_2 O 0.5000 0.17941(18) 0.1714(3)
O34_2 O 0.64708(19) 0.22498(15) 0.2703(3)
O35_2 O 0.5000 0.33068(17) 0.2724(3)
O36_2 O 0.58210(18) 0.28475(14) 0.0676(3)
O37_2 O 0.58294(19) 0.22736(14) 0.3768(3)
O38_2 O 0.5000 0.2256(2) 0.0631(4)
O39_2 O 0.5000 0.16189(19) 0.3732(4)
O40_2 O 0.5000 0.34543(19) 0.0689(4)
O41_2 O 0.5000 0.3902(2) 0.1799(4)
O42_2 O 0.43224(19) 0.33268(13) 0.1736(3)
O43_2 O 0.56974(18) 0.27698(12) 0.2737(2)
O44_2 O 0.64707(18) 0.28677(14) 0.1746(3)
O45_2 O 0.5000 0.12038(16) 0.2586(4)
O46_2 O 0.5000 0.28144(17) 0.1707(3)
O47_2 O 0.5000 0.2849(2) 0.3819(4)
O48_2 O 0.56808(19) 0.17806(12) 0.2713(3)
O49_2 O 0.57012(18) 0.23345(12) 0.1721(2)
Mo15_2 Mo 0.41413(2) 0.225378(15) 0.28955(3)
Mo16_2 Mo 0.41484(2) 0.284497(16) 0.15602(3)
O50_2 O 0.35292(19) 0.22498(15) 0.2703(3)
O51_2 O 0.41790(18) 0.28475(14) 0.0676(3)
O52_2 O 0.41706(19) 0.22736(14) 0.3768(3)
O53_2 O 0.56776(19) 0.33268(13) 0.1736(3)
O54_2 O 0.43026(18) 0.27698(12) 0.2737(2)
O55_2 O 0.35293(18) 0.28677(14) 0.1746(3)
O56_2 O 0.43192(19) 0.17806(12) 0.2713(3)
O57_2 O 0.42988(18) 0.23345(12) 0.1721(2)
Mo9_3 Mo 0.5000 0.72480(2) 0.34810(4)
Mo10_3 Mo 0.41413(2) 0.725378(15) 0.21045(3)
Mo11_3 Mo 0.5000 0.78529(2) 0.20591(4)
Mo12_3 Mo 0.5000 0.66354(2) 0.21476(4)
Mo13_3 Mo 0.41484(2) 0.784497(16) 0.34398(3)
Mo14_3 Mo 0.5000 0.84592(2) 0.34134(4)
O32_3 O 0.5000 0.73023(17) 0.2253(4)
O33_3 O 0.5000 0.67941(18) 0.3286(3)
O34_3 O 0.35292(19) 0.72498(15) 0.2297(3)
O35_3 O 0.5000 0.83068(17) 0.2276(3)
O36_3 O 0.41790(18) 0.78475(14) 0.4324(3)
O37_3 O 0.41706(19) 0.72736(14) 0.1232(3)
O38_3 O 0.5000 0.7256(2) 0.4369(4)
O39_3 O 0.5000 0.66189(19) 0.1268(4)
O40_3 O 0.5000 0.84543(19) 0.4311(4)
O41_3 O 0.5000 0.8902(2) 0.3201(4)
O42_3 O 0.56776(19) 0.83268(13) 0.3264(3)
O43_3 O 0.43026(18) 0.77698(12) 0.2263(2)
O44_3 O 0.35293(18) 0.78677(14) 0.3254(3)
O45_3 O 0.5000 0.62038(16) 0.2414(4)
O46_3 O 0.5000 0.78144(17) 0.3293(3)
O47_3 O 0.5000 0.7849(2) 0.1181(4)
O48_3 O 0.43192(19) 0.67806(12) 0.2287(3)
O49_3 O 0.42988(18) 0.73345(12) 0.3279(2)
Mo15_3 Mo 0.58587(2) 0.725378(15) 0.21045(3)
Mo16_3 Mo 0.58516(2) 0.784497(16) 0.34398(3)
O50_3 O 0.64708(19) 0.72498(15) 0.2297(3)
O51_3 O 0.58210(18) 0.78475(14) 0.4324(3)
O52_3 O 0.58294(19) 0.72736(14) 0.1232(3)
O53_3 O 0.43224(19) 0.83268(13) 0.3264(3)
O54_3 O 0.56974(18) 0.77698(12) 0.2263(2)
O55_3 O 0.64707(18) 0.78677(14) 0.3254(3)
O56_3 O 0.56808(19) 0.67806(12) 0.2287(3)
O57_3 O 0.57012(18) 0.73345(12) 0.3279(2)
Mo9_4 Mo 0.0000 0.27520(2) 0.84810(4)
Mo10_4 Mo 0.08587(2) 0.274622(15) 0.71045(3)
Mo11_4 Mo -0.0000 0.21471(2) 0.70591(4)
Mo12_4 Mo -0.0000 0.33646(2) 0.71476(4)
Mo13_4 Mo 0.08516(2) 0.215503(16) 0.84398(3)
Mo14_4 Mo 0.0000 0.15408(2) 0.84134(4)
O32_4 O -0.0000 0.26977(17) 0.7253(4)
O33_4 O 0.0000 0.32059(18) 0.8286(3)
O34_4 O 0.14708(19) 0.27502(15) 0.7297(3)
O35_4 O -0.0000 0.16932(17) 0.7276(3)
O36_4 O 0.08210(18) 0.21525(14) 0.9324(3)
O37_4 O 0.08294(19) 0.27264(14) 0.6232(3)
O38_4 O 0.0000 0.2744(2) 0.9369(4)
O39_4 O -0.0000 0.33811(19) 0.6268(4)
O40_4 O -0.0000 0.15457(19) 0.9311(4)
O41_4 O 0.0000 0.1098(2) 0.8201(4)
O43_4 O 0.06974(18) 0.22302(12) 0.7263(2)
O44_4 O 0.14707(18) 0.21323(14) 0.8254(3)
O45_4 O -0.0000 0.37962(16) 0.7414(4)
O46_4 O 0.0000 0.21856(17) 0.8293(3)
O47_4 O -0.0000 0.2151(2) 0.6181(4)
O48_4 O 0.06808(19) 0.32194(12) 0.7287(3)
O49_4 O 0.07012(18) 0.26655(12) 0.8279(2)
O53_4 O 0.06776(19) 0.16732(13) 0.8264(3)
Mo9_5 Mo 1.0000 0.27520(2) 0.84810(4)
Mo11_5 Mo 1.0000 0.21471(2) 0.70591(4)
Mo12_5 Mo 1.0000 0.33646(2) 0.71476(4)
Mo14_5 Mo 1.0000 0.15408(2) 0.84134(4)
O32_5 O 1.0000 0.26977(17) 0.7253(4)
O33_5 O 1.0000 0.32059(18) 0.8286(3)
O35_5 O 1.0000 0.16932(17) 0.7276(3)
O38_5 O 1.0000 0.2744(2) 0.9369(4)
O39_5 O 1.0000 0.33811(19) 0.6268(4)
O40_5 O 1.0000 0.15457(19) 0.9311(4)
O41_5 O 1.0000 0.1098(2) 0.8201(4)
O42_4 O 0.93224(19) 0.16732(13) 0.8264(3)
O45_5 O 1.0000 0.37962(16) 0.7414(4)
O46_5 O 1.0000 0.21856(17) 0.8293(3)
O47_5 O 1.0000 0.2151(2) 0.6181(4)
Mo15_4 Mo 0.91413(2) 0.274622(15) 0.71045(3)
Mo16_4 Mo 0.91484(2) 0.215503(16) 0.84398(3)
O50_4 O 0.85292(19) 0.27502(15) 0.7297(3)
O51_4 O 0.91790(18) 0.21525(14) 0.9324(3)
O52_4 O 0.91706(19) 0.27264(14) 0.6232(3)
O54_4 O 0.93026(18) 0.22302(12) 0.7263(2)
O55_4 O 0.85293(18) 0.21323(14) 0.8254(3)
O56_4 O 0.93192(19) 0.32194(12) 0.7287(3)
O57_4 O 0.92988(18) 0.26655(12) 0.8279(2)
Mo9_6 Mo -0.0000 0.77520(2) 0.65190(4)
Mo11_6 Mo 0.0000 0.71471(2) 0.79409(4)
Mo12_6 Mo 0.0000 0.83646(2) 0.78524(4)
Mo14_6 Mo -0.0000 0.65408(2) 0.65866(4)
O32_6 O 0.0000 0.76977(17) 0.7747(4)
O33_6 O -0.0000 0.82059(18) 0.6714(3)
O35_6 O 0.0000 0.66932(17) 0.7724(3)
O38_6 O 0.0000 0.7744(2) 0.5631(4)
O39_6 O 0.0000 0.83811(19) 0.8732(4)
O40_6 O -0.0000 0.65457(19) 0.5689(4)
O41_6 O -0.0000 0.6098(2) 0.6799(4)
O42_5 O 0.06776(19) 0.66732(13) 0.6736(3)
O45_6 O 0.0000 0.87962(16) 0.7586(4)
O46_6 O -0.0000 0.71856(17) 0.6707(3)
O47_6 O 0.0000 0.7151(2) 0.8819(4)
Mo15_5 Mo 0.08587(2) 0.774622(15) 0.78955(3)
Mo16_5 Mo 0.08516(2) 0.715503(16) 0.65602(3)
O50_5 O 0.14708(19) 0.77502(15) 0.7703(3)
O51_5 O 0.08210(18) 0.71525(14) 0.5676(3)
O52_5 O 0.08294(19) 0.77264(14) 0.8768(3)
O54_5 O 0.06974(18) 0.72302(12) 0.7737(2)
O55_5 O 0.14707(18) 0.71323(14) 0.6746(3)
O56_5 O 0.06808(19) 0.82194(12) 0.7713(3)
O57_5 O 0.07012(18) 0.76655(12) 0.6721(2)
Mo9_7 Mo 1.0000 0.77520(2) 0.65190(4)
Mo10_5 Mo 0.91413(2) 0.774622(15) 0.78955(3)
Mo11_7 Mo 1.0000 0.71471(2) 0.79409(4)
Mo12_7 Mo 1.0000 0.83646(2) 0.78524(4)
Mo13_5 Mo 0.91484(2) 0.715503(16) 0.65602(3)
Mo14_7 Mo 1.0000 0.65408(2) 0.65866(4)
O32_7 O 1.0000 0.76977(17) 0.7747(4)
O33_7 O 1.0000 0.82059(18) 0.6714(3)
O34_5 O 0.85292(19) 0.77502(15) 0.7703(3)
O35_7 O 1.0000 0.66932(17) 0.7724(3)
O36_5 O 0.91790(18) 0.71525(14) 0.5676(3)
O37_5 O 0.91706(19) 0.77264(14) 0.8768(3)
O38_7 O 1.0000 0.7744(2) 0.5631(4)
O39_7 O 1.0000 0.83811(19) 0.8732(4)
O40_7 O 1.0000 0.65457(19) 0.5689(4)
O41_7 O 1.0000 0.6098(2) 0.6799(4)
O43_5 O 0.93026(18) 0.72302(12) 0.7737(2)
O44_5 O 0.85293(18) 0.71323(14) 0.6746(3)
O45_7 O 1.0000 0.87962(16) 0.7586(4)
O46_7 O 1.0000 0.71856(17) 0.6707(3)
O47_7 O 1.0000 0.7151(2) 0.8819(4)
O48_5 O 0.93192(19) 0.82194(12) 0.7713(3)
O49_5 O 0.92988(18) 0.76655(12) 0.6721(2)
O53_5 O 0.93224(19) 0.66732(13) 0.6736(3)
Mo9_8 Mo 0.0000 0.72480(2) 0.15190(4)
Mo10_6 Mo 0.08587(2) 0.725378(15) 0.28955(3)
Mo11_8 Mo -0.0000 0.78529(2) 0.29409(4)
Mo12_8 Mo -0.0000 0.66354(2) 0.28524(4)
Mo13_6 Mo 0.08516(2) 0.784497(16) 0.15602(3)
Mo14_8 Mo 0.0000 0.84592(2) 0.15866(4)
O32_8 O -0.0000 0.73023(17) 0.2747(4)
O33_8 O 0.0000 0.67941(18) 0.1714(3)
O34_6 O 0.14708(19) 0.72498(15) 0.2703(3)
O35_8 O -0.0000 0.83068(17) 0.2724(3)
O36_6 O 0.08210(18) 0.78475(14) 0.0676(3)
O37_6 O 0.08294(19) 0.72736(14) 0.3768(3)
O38_8 O 0.0000 0.7256(2) 0.0631(4)
O39_8 O -0.0000 0.66189(19) 0.3732(4)
O40_8 O -0.0000 0.84543(19) 0.0689(4)
O41_8 O 0.0000 0.8902(2) 0.1799(4)
O43_6 O 0.06974(18) 0.77698(12) 0.2737(2)
O44_6 O 0.14707(18) 0.78677(14) 0.1746(3)
O45_8 O -0.0000 0.62038(16) 0.2586(4)
O46_8 O 0.0000 0.78144(17) 0.1707(3)
O47_8 O -0.0000 0.7849(2) 0.3819(4)
O48_6 O 0.06808(19) 0.67806(12) 0.2713(3)
O49_6 O 0.07012(18) 0.73345(12) 0.1721(2)
O53_6 O 0.06776(19) 0.83268(13) 0.1736(3)
Mo9_9 Mo 1.0000 0.72480(2) 0.15190(4)
Mo11_9 Mo 1.0000 0.78529(2) 0.29409(4)
Mo12_9 Mo 1.0000 0.66354(2) 0.28524(4)
Mo14_9 Mo 1.0000 0.84592(2) 0.15866(4)
O32_9 O 1.0000 0.73023(17) 0.2747(4)
O33_9 O 1.0000 0.67941(18) 0.1714(3)
O35_9 O 1.0000 0.83068(17) 0.2724(3)
O38_9 O 1.0000 0.7256(2) 0.0631(4)
O39_9 O 1.0000 0.66189(19) 0.3732(4)
O40_9 O 1.0000 0.84543(19) 0.0689(4)
O41_9 O 1.0000 0.8902(2) 0.1799(4)
O42_6 O 0.93224(19) 0.83268(13) 0.1736(3)
O45_9 O 1.0000 0.62038(16) 0.2586(4)
O46_9 O 1.0000 0.78144(17) 0.1707(3)
O47_9 O 1.0000 0.7849(2) 0.3819(4)
Mo15_6 Mo 0.91413(2) 0.725378(15) 0.28955(3)
Mo16_6 Mo 0.91484(2) 0.784497(16) 0.15602(3)
O50_6 O 0.85292(19) 0.72498(15) 0.2703(3)
O51_6 O 0.91790(18) 0.78475(14) 0.0676(3)
O52_6 O 0.91706(19) 0.72736(14) 0.3768(3)
O54_6 O 0.93026(18) 0.77698(12) 0.2737(2)
O55_6 O 0.85293(18) 0.78677(14) 0.1746(3)
O56_6 O 0.93192(19) 0.67806(12) 0.2713(3)
O57_6 O 0.92988(18) 0.73345(12) 0.1721(2)
Mo9_10 Mo -0.0000 0.22480(2) 0.34810(4)
Mo11_10 Mo 0.0000 0.28529(2) 0.20591(4)
Mo12_10 Mo 0.0000 0.16354(2) 0.21476(4)
Mo14_10 Mo -0.0000 0.34592(2) 0.34134(4)
O32_10 O 0.0000 0.23023(17) 0.2253(4)
O33_10 O -0.0000 0.17941(18) 0.3286(3)
O35_10 O 0.0000 0.33068(17) 0.2276(3)
O38_10 O 0.0000 0.2256(2) 0.4369(4)
O39_10 O 0.0000 0.16189(19) 0.1268(4)
O40_10 O 0.0000 0.34543(19) 0.4311(4)
O41_10 O -0.0000 0.3902(2) 0.3201(4)
O42_7 O 0.06776(19) 0.33268(13) 0.3264(3)
O45_10 O 0.0000 0.12038(16) 0.2414(4)
O46_10 O -0.0000 0.28144(17) 0.3293(3)
O47_10 O 0.0000 0.2849(2) 0.1181(4)
Mo15_7 Mo 0.08587(2) 0.225378(15) 0.21045(3)
Mo16_7 Mo 0.08516(2) 0.284497(16) 0.34398(3)
O50_7 O 0.14708(19) 0.22498(15) 0.2297(3)
O51_7 O 0.08210(18) 0.28475(14) 0.4324(3)
O52_7 O 0.08294(19) 0.22736(14) 0.1232(3)
O54_7 O 0.06974(18) 0.27698(12) 0.2263(2)
O55_7 O 0.14707(18) 0.28677(14) 0.3254(3)
O56_7 O 0.06808(19) 0.17806(12) 0.2287(3)
O57_7 O 0.07012(18) 0.23345(12) 0.3279(2)
Mo9_11 Mo 1.0000 0.22480(2) 0.34810(4)
Mo10_7 Mo 0.91413(2) 0.225378(15) 0.21045(3)
Mo11_11 Mo 1.0000 0.28529(2) 0.20591(4)
Mo12_11 Mo 1.0000 0.16354(2) 0.21476(4)
Mo13_7 Mo 0.91484(2) 0.284497(16) 0.34398(3)
Mo14_11 Mo 1.0000 0.34592(2) 0.34134(4)
O32_11 O 1.0000 0.23023(17) 0.2253(4)
O33_11 O 1.0000 0.17941(18) 0.3286(3)
O34_7 O 0.85292(19) 0.22498(15) 0.2297(3)
O35_11 O 1.0000 0.33068(17) 0.2276(3)
O36_7 O 0.91790(18) 0.28475(14) 0.4324(3)
O37_7 O 0.91706(19) 0.22736(14) 0.1232(3)
O38_11 O 1.0000 0.2256(2) 0.4369(4)
O39_11 O 1.0000 0.16189(19) 0.1268(4)
O40_11 O 1.0000 0.34543(19) 0.4311(4)
O41_11 O 1.0000 0.3902(2) 0.3201(4)
O43_7 O 0.93026(18) 0.27698(12) 0.2263(2)
O44_7 O 0.85293(18) 0.28677(14) 0.3254(3)
O45_11 O 1.0000 0.12038(16) 0.2414(4)
O46_11 O 1.0000 0.28144(17) 0.3293(3)
O47_11 O 1.0000 0.2849(2) 0.1181(4)
O48_7 O 0.93192(19) 0.17806(12) 0.2287(3)
O49_7 O 0.92988(18) 0.23345(12) 0.3279(2)
O53_7 O 0.93224(19) 0.33268(13) 0.3264(3)
Mo9_12 Mo 0.5000 0.77520(2) 0.84810(4)
Mo10_8 Mo 0.58587(2) 0.774622(15) 0.71045(3)
Mo11_12 Mo 0.5000 0.71471(2) 0.70591(4)
Mo12_12 Mo 0.5000 0.83646(2) 0.71476(4)
Mo13_8 Mo 0.58516(2) 0.715503(16) 0.84398(3)
Mo14_12 Mo 0.5000 0.65408(2) 0.84134(4)
O32_12 O 0.5000 0.76977(17) 0.7253(4)
O33_12 O 0.5000 0.82059(18) 0.8286(3)
O34_8 O 0.64708(19) 0.77502(15) 0.7297(3)
O35_12 O 0.5000 0.66932(17) 0.7276(3)
O36_8 O 0.58210(18) 0.71525(14) 0.9324(3)
O37_8 O 0.58294(19) 0.77264(14) 0.6232(3)
O38_12 O 0.5000 0.7744(2) 0.9369(4)
O39_12 O 0.5000 0.83811(19) 0.6268(4)
O40_12 O 0.5000 0.65457(19) 0.9311(4)
O41_12 O 0.5000 0.6098(2) 0.8201(4)
O42_8 O 0.43224(19) 0.66732(13) 0.8264(3)
O43_8 O 0.56974(18) 0.72302(12) 0.7263(2)
O44_8 O 0.64707(18) 0.71323(14) 0.8254(3)
O45_12 O 0.5000 0.87962(16) 0.7414(4)
O46_12 O 0.5000 0.71856(17) 0.8293(3)
O47_12 O 0.5000 0.7151(2) 0.6181(4)
O48_8 O 0.56808(19) 0.82194(12) 0.7287(3)
O49_8 O 0.57012(18) 0.76655(12) 0.8279(2)
Mo15_8 Mo 0.41413(2) 0.774622(15) 0.71045(3)
Mo16_8 Mo 0.41484(2) 0.715503(16) 0.84398(3)
O50_8 O 0.35292(19) 0.77502(15) 0.7297(3)
O51_8 O 0.41790(18) 0.71525(14) 0.9324(3)
O52_8 O 0.41706(19) 0.77264(14) 0.6232(3)
O53_8 O 0.56776(19) 0.66732(13) 0.8264(3)
O54_8 O 0.43026(18) 0.72302(12) 0.7263(2)
O55_8 O 0.35293(18) 0.71323(14) 0.8254(3)
O56_8 O 0.43192(19) 0.82194(12) 0.7287(3)
O57_8 O 0.42988(18) 0.76655(12) 0.8279(2)
loop_
_geom_bond_atom_site_label_1
_geom_bond_atom_site_label_2
_geom_bond_site_symmetry_1
_geom_bond_site_symmetry_2
N11 N12 1_555 1_555
N12 C14 1_555 1_555
C13 N9 1_555 1_555
H15 C13 1_555 1_555
C14 N9 1_555 1_555
H16 C14 1_555 1_555
N23 N24 1_555 1_555
N24 C30 1_555 1_555
C29 N21 1_555 1_555
H31 C29 1_555 1_555
C30 N21 1_555 1_555
H32 C30 1_555 1_555
Cu3 N23 1_555 1_555
Cu5 N11 1_555 1_555
Cu1 O2 1_555 1_555
C1 H1 1_555 1_555
N1 C1 1_555 1_555
O1 C15 1_555 1_555
Cu2 N1 1_555 1_555
C2 N1 1_555 1_555
H2 C2 1_555 1_555
N2 Cu1 1_555 1_555
O3 C6 1_555 1_555
C3 C2 1_555 1_555
H3 C3 1_555 1_555
N3 Cu1 1_555 1_555
C4 C3 1_555 1_555
H4 C4 1_555 1_555
N4 H5 1_555 1_555
N5 N6 1_555 1_555
C5 C1 1_555 1_555
C6 N4 1_555 1_555
N6 N7 1_555 1_555
N7 N3 1_555 1_555
C7 N5 1_555 1_555
H6 C7 1_555 1_555
H7 C7 1_555 1_555
N8 H8 1_555 1_555
C8 N3 1_555 1_555
H9 C8 1_555 1_555
C9 N2 1_555 1_555
H10 C9 1_555 1_555
C10 N2 1_555 1_555
H11 C10 1_555 1_555
C11 C10 1_555 1_555
H12 C11 1_555 1_555
C12 C11 1_555 1_555
H13 C12 1_555 1_555
C15 N8 1_555 1_555
C16 N8 1_555 1_555
C17 H17 1_555 1_555
N13 C17 1_555 1_555
O4 C31 1_555 1_555
C18 N13 1_555 1_555
H18 C18 1_555 1_555
N14 Cu1 1_555 1_555
O5 C22 1_555 1_555
C19 C18 1_555 1_555
H19 C19 1_555 1_555
N15 Cu1 1_555 1_555
C20 C19 1_555 1_555
H20 C20 1_555 1_555
N16 H21 1_555 1_555
N17 N18 1_555 1_555
C21 C17 1_555 1_555
C22 N16 1_555 1_555
N18 N19 1_555 1_555
N19 N15 1_555 1_555
C23 N17 1_555 1_555
H22 C23 1_555 1_555
H23 C23 1_555 1_555
N20 H24 1_555 1_555
C24 N15 1_555 1_555
H25 C24 1_555 1_555
C25 N14 1_555 1_555
H26 C25 1_555 1_555
C26 N14 1_555 1_555
H27 C26 1_555 1_555
C27 C26 1_555 1_555
H28 C27 1_555 1_555
C28 C27 1_555 1_555
H29 C28 1_555 1_555
C31 N20 1_555 1_555
C32 N20 1_555 1_555
N25 Cu2 1_555 1_555
Cu4 N13 1_555 1_555
N26 Cu2 1_555 1_555
N27 Cu2 1_555 1_555
C4 C5 1_555 1_555
N4 C5 1_555 1_555
N5 C8 1_555 1_555
C6 C7 1_555 1_555
C9 C16 1_555 1_555
C12 C16 1_555 1_555
C20 C21 1_555 1_555
N16 C21 1_555 1_555
N17 C24 1_555 1_555
C22 C23 1_555 1_555
C25 C32 1_555 1_555
C28 C32 1_555 1_555
Cu1_2 O2_2 1_555 1_555
C1_2 H1_2 1_555 1_555
N1_2 C1_2 1_555 1_555
Cu3 N1_2 1_555 1_555
O3_2 C6_2 1_555 1_555
N3_2 Cu1_2 1_555 1_555
C4_2 C3_2 1_555 1_555
H4_2 C4_2 1_555 1_555
N4_2 H5_2 1_555 1_555
N5_2 N6_2 1_555 1_555
C5_2 C1_2 1_555 1_555
C6_2 N4_2 1_555 1_555
N6_2 N7_2 1_555 1_555
N7_2 N3_2 1_555 1_555
C7_2 N5_2 1_555 1_555
H6_2 C7_2 1_555 1_555
H7_2 C7_2 1_555 1_555
C8_2 N3_2 1_555 1_555
H9_2 C8_2 1_555 1_555
O4_2 C31_2 1_555 1_555
N14_2 Cu1_2 1_555 1_555
N20_2 H24_2 1_555 1_555
N21_2 N22_2 1_555 1_555
C25_2 N14_2 1_555 1_555
H26_2 C25_2 1_555 1_555
N22_2 N27 1_555 1_555
C26_2 N14_2 1_555 1_555
H27_2 C26_2 1_555 1_555
N27 N24_2 1_555 1_555
C27_2 C26_2 1_555 1_555
H28_2 C27_2 1_555 1_555
N24_2 C30_2 1_555 1_555
C28_2 C27_2 1_555 1_555
H29_2 C28_2 1_555 1_555
C29_2 N21_2 1_555 1_555
H30_2 C29_2 1_555 1_555
H31_2 C29_2 1_555 1_555
C30_2 N21_2 1_555 1_555
H32_2 C30_2 1_555 1_555
C31_2 N20_2 1_555 1_555
C32_2 N20_2 1_555 1_555
C4_2 C5_2 1_555 1_555
N4_2 C5_2 1_555 1_555
N5_2 C8_2 1_555 1_555
C6_2 C7_2 1_555 1_555
C25_2 C32_2 1_555 1_555
C28_2 C32_2 1_555 1_555
C29_2 C31_2 1_555 1_555
O2_2 H33 1_555 1_555
O2_2 H34 1_555 1_555
H2_2 C2_2 1_555 1_555
N25_2 Cu3_2 1_555 1_555
N26_2 Cu3_2 1_555 1_555
Cu1_3 O2_3 1_555 1_555
O1_2 C15_2 1_555 1_555
N2_2 Cu1_3 1_555 1_555
N8_2 H8_2 1_555 1_555
N9_2 N10_2 1_555 1_555
C9_2 N2_2 1_555 1_555
H10_2 C9_2 1_555 1_555
N10_2 N11_2 1_555 1_555
C10_2 N2_2 1_555 1_555
H11_2 C10_2 1_555 1_555
N11_2 N12_2 1_555 1_555
C11_2 C10_2 1_555 1_555
H12_2 C11_2 1_555 1_555
N12_2 C14_2 1_555 1_555
C12_2 C11_2 1_555 1_555
H13_2 C12_2 1_555 1_555
C13_2 N9_2 1_555 1_555
H14_2 C13_2 1_555 1_555
H15_2 C13_2 1_555 1_555
C14_2 N9_2 1_555 1_555
H16_2 C14_2 1_555 1_555
C15_2 N8_2 1_555 1_555
C16_2 N8_2 1_555 1_555
C17_2 H17_2 1_555 1_555
N13_2 C17_2 1_555 1_555
O5_2 C22_2 1_555 1_555
N15_2 Cu1_3 1_555 1_555
C20_2 C19_2 1_555 1_555
H20_2 C20_2 1_555 1_555
N16_2 H21_2 1_555 1_555
N17_2 N18_2 1_555 1_555
C21_2 C17_2 1_555 1_555
C22_2 N16_2 1_555 1_555
N18_2 N19_2 1_555 1_555
N19_2 N15_2 1_555 1_555
C23_2 N17_2 1_555 1_555
H22_2 C23_2 1_555 1_555
H23_2 C23_2 1_555 1_555
C24_2 N15_2 1_555 1_555
H25_2 C24_2 1_555 1_555
Cu5 N13_2 1_555 1_555
Cu4 N11_2 1_555 1_555
C9_2 C16_2 1_555 1_555
C12_2 C16_2 1_555 1_555
C13_2 C15_2 1_555 1_555
C20_2 C21_2 1_555 1_555
N16_2 C21_2 1_555 1_555
N17_2 C24_2 1_555 1_555
C22_2 C23_2 1_555 1_555
H18_2 C18_2 1_555 1_555
Cu1_4 O2_4 1_555 1_555
C17_3 H17_3 1_555 1_555
N25 C17_3 1_555 1_555
C18_3 N25 1_555 1_555
H18_3 C18_3 1_555 1_555
O5_3 C22_3 1_555 1_555
C19_3 C18_3 1_555 1_555
H19_3 C19_3 1_555 1_555
N15_3 Cu1_4 1_555 1_555
C20_3 C19_3 1_555 1_555
H20_3 C20_3 1_555 1_555
N16_3 H21_3 1_555 1_555
N17_3 N18_3 1_555 1_555
C21_3 C17_3 1_555 1_555
C22_3 N16_3 1_555 1_555
N18_3 N19_3 1_555 1_555
N19_3 N15_3 1_555 1_555
C23_3 N17_3 1_555 1_555
H22_3 C23_3 1_555 1_555
H23_3 C23_3 1_555 1_555
C24_3 N15_3 1_555 1_555
H25_3 C24_3 1_555 1_555
C20_3 C21_3 1_555 1_555
N16_3 C21_3 1_555 1_555
N17_3 C24_3 1_555 1_555
C22_3 C23_3 1_555 1_555
O1_3 C15_3 1_555 1_555
N8_3 H8_3 1_555 1_555
C9_3 N2_3 1_555 1_555
H10_3 C9_3 1_555 1_555
C10_3 N2_3 1_555 1_555
H11_3 C10_3 1_555 1_555
C11_3 C10_3 1_555 1_555
H12_3 C11_3 1_555 1_555
C12_3 C11_3 1_555 1_555
H13_3 C12_3 1_555 1_555
C15_3 N8_3 1_555 1_555
C16_3 N8_3 1_555 1_555
C9_3 C16_3 1_555 1_555
C12_3 C16_3 1_555 1_555
N26_2 N12_3 1_555 1_555
N12_3 C14_3 1_555 1_555
C13_3 N9_3 1_555 1_555
H15_3 C13_3 1_555 1_555
C14_3 N9_3 1_555 1_555
H16_3 C14_3 1_555 1_555
Cu1_5 O2_5 1_555 1_555
C1_3 H1_3 1_555 1_555
N1_3 C1_3 1_555 1_555
Cu4 N1_3 1_555 1_555
C2_3 N1_3 1_555 1_555
H2_3 C2_3 1_555 1_555
O3_3 C6_3 1_555 1_555
C3_3 C2_3 1_555 1_555
H3_3 C3_3 1_555 1_555
N3_3 Cu1_5 1_555 1_555
C4_3 C3_3 1_555 1_555
H4_3 C4_3 1_555 1_555
N4_3 H5_3 1_555 1_555
N5_3 N6_3 1_555 1_555
C5_3 C1_3 1_555 1_555
C6_3 N4_3 1_555 1_555
N6_3 N7_3 1_555 1_555
N7_3 N3_3 1_555 1_555
C7_3 N5_3 1_555 1_555
H6_3 C7_3 1_555 1_555
H7_3 C7_3 1_555 1_555
C8_3 N3_3 1_555 1_555
H9_3 C8_3 1_555 1_555
N27_2 Cu4 1_555 1_555
C4_3 C5_3 1_555 1_555
N4_3 C5_3 1_555 1_555
N5_3 C8_3 1_555 1_555
C6_3 C7_3 1_555 1_555
O2_5 H34_2 1_555 1_555
O4_3 C31_3 1_555 1_555
N20_3 H24_3 1_555 1_555
C25_3 N14_3 1_555 1_555
H26_3 C25_3 1_555 1_555
C26_3 N14_3 1_555 1_555
H27_3 C26_3 1_555 1_555
C27_3 C26_3 1_555 1_555
H28_3 C27_3 1_555 1_555
C28_3 C27_3 1_555 1_555
H29_3 C28_3 1_555 1_555
C31_3 N20_3 1_555 1_555
C32_3 N20_3 1_555 1_555
C25_3 C32_3 1_555 1_555
C28_3 C32_3 1_555 1_555
N23_2 N24_3 1_555 1_555
N24_3 C30_3 1_555 1_555
C29_3 N21_3 1_555 1_555
H31_3 C29_3 1_555 1_555
C30_3 N21_3 1_555 1_555
H32_3 C30_3 1_555 1_555
Cu5_2 N23_2 1_555 1_555
O1_4 C15_4 1_555 1_555
N8_4 H8_4 1_555 1_555
N9_4 N10_4 1_555 1_555
C9_4 N2_4 1_555 1_555
H10_4 C9_4 1_555 1_555
N10_4 N26 1_555 1_555
C10_4 N2_4 1_555 1_555
H11_4 C10_4 1_555 1_555
N26 N12_4 1_555 1_555
C11_4 C10_4 1_555 1_555
H12_4 C11_4 1_555 1_555
N12_4 C14_4 1_555 1_555
C12_4 C11_4 1_555 1_555
H13_4 C12_4 1_555 1_555
C13_4 N9_4 1_555 1_555
H14_4 C13_4 1_555 1_555
H15_4 C13_4 1_555 1_555
C14_4 N9_4 1_555 1_555
H16_4 C14_4 1_555 1_555
C15_4 N8_4 1_555 1_555
C16_4 N8_4 1_555 1_555
O4_4 C31_4 1_555 1_555
N20_4 H24_4 1_555 1_555
N21_4 N22_4 1_555 1_555
C25_4 N14_4 1_555 1_555
H26_4 C25_4 1_555 1_555
N22_4 N27_2 1_555 1_555
C26_4 N14_4 1_555 1_555
H27_4 C26_4 1_555 1_555
N27_2 N24_4 1_555 1_555
C27_4 C26_4 1_555 1_555
H28_4 C27_4 1_555 1_555
N24_4 C30_4 1_555 1_555
C28_4 C27_4 1_555 1_555
H29_4 C28_4 1_555 1_555
C29_4 N21_4 1_555 1_555
H30_4 C29_4 1_555 1_555
H31_4 C29_4 1_555 1_555
C30_4 N21_4 1_555 1_555
H32_4 C30_4 1_555 1_555
C31_4 N20_4 1_555 1_555
C32_4 N20_4 1_555 1_555
C9_4 C16_4 1_555 1_555
C12_4 C16_4 1_555 1_555
C13_4 C15_4 1_555 1_555
C25_4 C32_4 1_555 1_555
C28_4 C32_4 1_555 1_555
C29_4 C31_4 1_555 1_555
H2_4 C2_4 1_555 1_555
H18_4 C18_4 1_555 1_555
Cu1_6 O2_6 1_555 1_555
C1_4 H1_4 1_555 1_555
N1_4 C1_4 1_555 1_555
Cu5_2 N1_4 1_555 1_555
O3_4 C6_4 1_555 1_555
N3_4 Cu1_6 1_555 1_555
C4_4 C3_4 1_555 1_555
H4_4 C4_4 1_555 1_555
N4_4 H5_4 1_555 1_555
N5_4 N6_4 1_555 1_555
C5_4 C1_4 1_555 1_555
C6_4 N4_4 1_555 1_555
N6_4 N7_4 1_555 1_555
N7_4 N3_4 1_555 1_555
C7_4 N5_4 1_555 1_555
H6_4 C7_4 1_555 1_555
H7_4 C7_4 1_555 1_555
C8_4 N3_4 1_555 1_555
H9_4 C8_4 1_555 1_555
C17_4 H17_4 1_555 1_555
N25_2 C17_4 1_555 1_555
O5_4 C22_4 1_555 1_555
N15_4 Cu1_6 1_555 1_555
C20_4 C19_4 1_555 1_555
H20_4 C20_4 1_555 1_555
N16_4 H21_4 1_555 1_555
N17_4 N18_4 1_555 1_555
C21_4 C17_4 1_555 1_555
C22_4 N16_4 1_555 1_555
N18_4 N19_4 1_555 1_555
N19_4 N15_4 1_555 1_555
C23_4 N17_4 1_555 1_555
H22_4 C23_4 1_555 1_555
H23_4 C23_4 1_555 1_555
C24_4 N15_4 1_555 1_555
H25_4 C24_4 1_555 1_555
C4_4 C5_4 1_555 1_555
N4_4 C5_4 1_555 1_555
N5_4 C8_4 1_555 1_555
C6_4 C7_4 1_555 1_555
C20_4 C21_4 1_555 1_555
N16_4 C21_4 1_555 1_555
N17_4 C24_4 1_555 1_555
C22_4 C23_4 1_555 1_555
O2_6 H34_3 1_555 1_555
O2_6 H34_4 1_555 1_555
O2_3 H33_5 1_555 1_555
O2_3 H34_5 1_555 1_555
O2_4 H34_6 1_555 1_555
Cu1_7 O2_7 1_555 1_555
C1_5 H1_5 1_555 1_555
N1_5 C1_5 1_555 1_555
Cu2_2 N1_5 1_555 1_555
O3_5 C6_5 1_555 1_555
N3_5 Cu1_7 1_555 1_555
C4_5 C3_5 1_555 1_555
H4_5 C4_5 1_555 1_555
N4_5 H5_5 1_555 1_555
N5_5 N6_5 1_555 1_555
C5_5 C1_5 1_555 1_555
C6_5 N4_5 1_555 1_555
N6_5 N7_5 1_555 1_555
N7_5 N3_5 1_555 1_555
C7_5 N5_5 1_555 1_555
H6_5 C7_5 1_555 1_555
H7_5 C7_5 1_555 1_555
C8_5 N3_5 1_555 1_555
H9_5 C8_5 1_555 1_555
C17_5 H17_5 1_555 1_555
N13_3 C17_5 1_555 1_555
O5_5 C22_5 1_555 1_555
N15_5 Cu1_7 1_555 1_555
C20_5 C19_5 1_555 1_555
H20_5 C20_5 1_555 1_555
N16_5 H21_5 1_555 1_555
N17_5 N18_5 1_555 1_555
C21_5 C17_5 1_555 1_555
C22_5 N16_5 1_555 1_555
N18_5 N19_5 1_555 1_555
N19_5 N15_5 1_555 1_555
C23_5 N17_5 1_555 1_555
H22_5 C23_5 1_555 1_555
H23_5 C23_5 1_555 1_555
C24_5 N15_5 1_555 1_555
H25_5 C24_5 1_555 1_555
Cu4_2 N13_3 1_555 1_555
N27_3 Cu2_2 1_555 1_555
C4_5 C5_5 1_555 1_555
N4_5 C5_5 1_555 1_555
N5_5 C8_5 1_555 1_555
C6_5 C7_5 1_555 1_555
C20_5 C21_5 1_555 1_555
N16_5 C21_5 1_555 1_555
N17_5 C24_5 1_555 1_555
C22_5 C23_5 1_555 1_555
O2_7 H34_7 1_555 1_555
H2_5 C2_5 1_555 1_555
H18_5 C18_5 1_555 1_555
N25_3 Cu2_3 1_555 1_555
N26_3 Cu2_3 1_555 1_555
O1_5 C15_5 1_555 1_555
N8_5 H8_5 1_555 1_555
N9_5 N10_5 1_555 1_555
C9_5 N2_5 1_555 1_555
H10_5 C9_5 1_555 1_555
N10_5 N11_3 1_555 1_555
C10_5 N2_5 1_555 1_555
H11_5 C10_5 1_555 1_555
N11_3 N12_5 1_555 1_555
C11_5 C10_5 1_555 1_555
H12_5 C11_5 1_555 1_555
N12_5 C14_5 1_555 1_555
C12_5 C11_5 1_555 1_555
H13_5 C12_5 1_555 1_555
C13_5 N9_5 1_555 1_555
H14_5 C13_5 1_555 1_555
H15_5 C13_5 1_555 1_555
C14_5 N9_5 1_555 1_555
H16_5 C14_5 1_555 1_555
C15_5 N8_5 1_555 1_555
C16_5 N8_5 1_555 1_555
O4_5 C31_5 1_555 1_555
N20_5 H24_5 1_555 1_555
N21_5 N22_5 1_555 1_555
C25_5 N14_5 1_555 1_555
H26_5 C25_5 1_555 1_555
N22_5 N23_3 1_555 1_555
C26_5 N14_5 1_555 1_555
H27_5 C26_5 1_555 1_555
N23_3 N24_5 1_555 1_555
C27_5 C26_5 1_555 1_555
H28_5 C27_5 1_555 1_555
N24_5 C30_5 1_555 1_555
C28_5 C27_5 1_555 1_555
H29_5 C28_5 1_555 1_555
C29_5 N21_5 1_555 1_555
H30_5 C29_5 1_555 1_555
H31_5 C29_5 1_555 1_555
C30_5 N21_5 1_555 1_555
H32_5 C30_5 1_555 1_555
C31_5 N20_5 1_555 1_555
C32_5 N20_5 1_555 1_555
Cu3_3 N23_3 1_555 1_555
Cu5_3 N11_3 1_555 1_555
C9_5 C16_5 1_555 1_555
C12_5 C16_5 1_555 1_555
C13_5 C15_5 1_555 1_555
C25_5 C32_5 1_555 1_555
C28_5 C32_5 1_555 1_555
C29_5 C31_5 1_555 1_555
Cu1_8 O2_8 1_555 1_555
C1_6 H1_6 1_555 1_555
N1_6 C1_6 1_555 1_555
O1_6 C15_6 1_555 1_555
Cu5_3 N1_6 1_555 1_555
C2_6 N1_6 1_555 1_555
H2_6 C2_6 1_555 1_555
N2_6 Cu1_8 1_555 1_555
O3_6 C6_6 1_555 1_555
C3_6 C2_6 1_555 1_555
H3_6 C3_6 1_555 1_555
N3_6 Cu1_8 1_555 1_555
C4_6 C3_6 1_555 1_555
H4_6 C4_6 1_555 1_555
N4_6 H5_6 1_555 1_555
N5_6 N6_6 1_555 1_555
C5_6 C1_6 1_555 1_555
C6_6 N4_6 1_555 1_555
N6_6 N7_6 1_555 1_555
N7_6 N3_6 1_555 1_555
C7_6 N5_6 1_555 1_555
H6_6 C7_6 1_555 1_555
H7_6 C7_6 1_555 1_555
N8_6 H8_6 1_555 1_555
C8_6 N3_6 1_555 1_555
H9_6 C8_6 1_555 1_555
C9_6 N2_6 1_555 1_555
H10_6 C9_6 1_555 1_555
C10_6 N2_6 1_555 1_555
H11_6 C10_6 1_555 1_555
C11_6 C10_6 1_555 1_555
H12_6 C11_6 1_555 1_555
C12_6 C11_6 1_555 1_555
H13_6 C12_6 1_555 1_555
C15_6 N8_6 1_555 1_555
C16_6 N8_6 1_555 1_555
C17_6 H17_6 1_555 1_555
N13_4 C17_6 1_555 1_555
O4_6 C31_6 1_555 1_555
C18_6 N13_4 1_555 1_555
H18_6 C18_6 1_555 1_555
N14_6 Cu1_8 1_555 1_555
O5_6 C22_6 1_555 1_555
C19_6 C18_6 1_555 1_555
H19_6 C19_6 1_555 1_555
N15_6 Cu1_8 1_555 1_555
C20_6 C19_6 1_555 1_555
H20_6 C20_6 1_555 1_555
N16_6 H21_6 1_555 1_555
N17_6 N18_6 1_555 1_555
C21_6 C17_6 1_555 1_555
C22_6 N16_6 1_555 1_555
N18_6 N19_6 1_555 1_555
N19_6 N15_6 1_555 1_555
C23_6 N17_6 1_555 1_555
H22_6 C23_6 1_555 1_555
H23_6 C23_6 1_555 1_555
N20_6 H24_6 1_555 1_555
C24_6 N15_6 1_555 1_555
H25_6 C24_6 1_555 1_555
C25_6 N14_6 1_555 1_555
H26_6 C25_6 1_555 1_555
C26_6 N14_6 1_555 1_555
H27_6 C26_6 1_555 1_555
C27_6 C26_6 1_555 1_555
H28_6 C27_6 1_555 1_555
C28_6 C27_6 1_555 1_555
H29_6 C28_6 1_555 1_555
C31_6 N20_6 1_555 1_555
C32_6 N20_6 1_555 1_555
N25_4 Cu5_3 1_555 1_555
Cu3_3 N13_4 1_555 1_555
N27_4 Cu5_3 1_555 1_555
C4_6 C5_6 1_555 1_555
N4_6 C5_6 1_555 1_555
N5_6 C8_6 1_555 1_555
C6_6 C7_6 1_555 1_555
C9_6 C16_6 1_555 1_555
C12_6 C16_6 1_555 1_555
C20_6 C21_6 1_555 1_555
N16_6 C21_6 1_555 1_555
N17_6 C24_6 1_555 1_555
C22_6 C23_6 1_555 1_555
C25_6 C32_6 1_555 1_555
C28_6 C32_6 1_555 1_555
N26_3 N12_6 1_555 1_555
N12_6 C14_6 1_555 1_555
C13_6 N9_6 1_555 1_555
H15_6 C13_6 1_555 1_555
C14_6 N9_6 1_555 1_555
H16_6 C14_6 1_555 1_555
N23_4 N24_6 1_555 1_555
N24_6 C30_6 1_555 1_555
C29_6 N21_6 1_555 1_555
H31_6 C29_6 1_555 1_555
C30_6 N21_6 1_555 1_555
H32_6 C30_6 1_555 1_555
Cu4_3 N23_4 1_555 1_555
H2_7 C2_7 1_555 1_555
N26_4 Cu4_2 1_555 1_555
Cu1_9 O2_9 1_555 1_555
C1_7 H1_7 1_555 1_555
N1_7 C1_7 1_555 1_555
Cu4_3 N1_7 1_555 1_555
O3_7 C6_7 1_555 1_555
N3_7 Cu1_9 1_555 1_555
C4_7 C3_7 1_555 1_555
H4_7 C4_7 1_555 1_555
N4_7 H5_7 1_555 1_555
N5_7 N6_7 1_555 1_555
C5_7 C1_7 1_555 1_555
C6_7 N4_7 1_555 1_555
N6_7 N7_7 1_555 1_555
N7_7 N3_7 1_555 1_555
C7_7 N5_7 1_555 1_555
H6_7 C7_7 1_555 1_555
H7_7 C7_7 1_555 1_555
C8_7 N3_7 1_555 1_555
H9_7 C8_7 1_555 1_555
O4_7 C31_7 1_555 1_555
N14_7 Cu1_9 1_555 1_555
N20_7 H24_7 1_555 1_555
N21_7 N22_7 1_555 1_555
C25_7 N14_7 1_555 1_555
H26_7 C25_7 1_555 1_555
N22_7 N27_4 1_555 1_555
C26_7 N14_7 1_555 1_555
H27_7 C26_7 1_555 1_555
N27_4 N24_7 1_555 1_555
C27_7 C26_7 1_555 1_555
H28_7 C27_7 1_555 1_555
N24_7 C30_7 1_555 1_555
C28_7 C27_7 1_555 1_555
H29_7 C28_7 1_555 1_555
C29_7 N21_7 1_555 1_555
H30_7 C29_7 1_555 1_555
H31_7 C29_7 1_555 1_555
C30_7 N21_7 1_555 1_555
H32_7 C30_7 1_555 1_555
C31_7 N20_7 1_555 1_555
C32_7 N20_7 1_555 1_555
C4_7 C5_7 1_555 1_555
N4_7 C5_7 1_555 1_555
N5_7 C8_7 1_555 1_555
C6_7 C7_7 1_555 1_555
C25_7 C32_7 1_555 1_555
C28_7 C32_7 1_555 1_555
C29_7 C31_7 1_555 1_555
O2_9 H33_8 1_555 1_555
O2_9 H34_8 1_555 1_555
H18_7 C18_7 1_555 1_555
Cu1_10 O2_10 1_555 1_555
O1_7 C15_7 1_555 1_555
N2_7 Cu1_10 1_555 1_555
N8_7 H8_7 1_555 1_555
N9_7 N10_7 1_555 1_555
C9_7 N2_7 1_555 1_555
H10_7 C9_7 1_555 1_555
N10_7 N11_4 1_555 1_555
C10_7 N2_7 1_555 1_555
H11_7 C10_7 1_555 1_555
N11_4 N12_7 1_555 1_555
C11_7 C10_7 1_555 1_555
H12_7 C11_7 1_555 1_555
N12_7 C14_7 1_555 1_555
C12_7 C11_7 1_555 1_555
H13_7 C12_7 1_555 1_555
C13_7 N9_7 1_555 1_555
H14_7 C13_7 1_555 1_555
H15_7 C13_7 1_555 1_555
C14_7 N9_7 1_555 1_555
H16_7 C14_7 1_555 1_555
C15_7 N8_7 1_555 1_555
C16_7 N8_7 1_555 1_555
C17_7 H17_7 1_555 1_555
N25_3 C17_7 1_555 1_555
O5_7 C22_7 1_555 1_555
N15_7 Cu1_10 1_555 1_555
C20_7 C19_7 1_555 1_555
H20_7 C20_7 1_555 1_555
N16_7 H21_7 1_555 1_555
N17_7 N18_7 1_555 1_555
C21_7 C17_7 1_555 1_555
C22_7 N16_7 1_555 1_555
N18_7 N19_7 1_555 1_555
N19_7 N15_7 1_555 1_555
C23_7 N17_7 1_555 1_555
H22_7 C23_7 1_555 1_555
H23_7 C23_7 1_555 1_555
C24_7 N15_7 1_555 1_555
H25_7 C24_7 1_555 1_555
Cu3_3 N11_4 1_555 1_555
C9_7 C16_7 1_555 1_555
C12_7 C16_7 1_555 1_555
C13_7 C15_7 1_555 1_555
C20_7 C21_7 1_555 1_555
N16_7 C21_7 1_555 1_555
N17_7 C24_7 1_555 1_555
C22_7 C23_7 1_555 1_555
N26_4 N12_8 1_555 1_555
N12_8 C14_8 1_555 1_555
C13_8 N9_8 1_555 1_555
H15_8 C13_8 1_555 1_555
C14_8 N9_8 1_555 1_555
H16_8 C14_8 1_555 1_555
O1_8 C15_8 1_555 1_555
N8_8 H8_8 1_555 1_555
C9_8 N2_8 1_555 1_555
H10_8 C9_8 1_555 1_555
C10_8 N2_8 1_555 1_555
H11_8 C10_8 1_555 1_555
C11_8 C10_8 1_555 1_555
H12_8 C11_8 1_555 1_555
C12_8 C11_8 1_555 1_555
H13_8 C12_8 1_555 1_555
C15_8 N8_8 1_555 1_555
C16_8 N8_8 1_555 1_555
C9_8 C16_8 1_555 1_555
C12_8 C16_8 1_555 1_555
Cu1_11 O2_11 1_555 1_555
C17_8 H17_8 1_555 1_555
N25_4 C17_8 1_555 1_555
C18_8 N25_4 1_555 1_555
H18_8 C18_8 1_555 1_555
O5_8 C22_8 1_555 1_555
C19_8 C18_8 1_555 1_555
H19_8 C19_8 1_555 1_555
N15_8 Cu1_11 1_555 1_555
C20_8 C19_8 1_555 1_555
H20_8 C20_8 1_555 1_555
N16_8 H21_8 1_555 1_555
N17_8 N18_8 1_555 1_555
C21_8 C17_8 1_555 1_555
C22_8 N16_8 1_555 1_555
N18_8 N19_8 1_555 1_555
N19_8 N15_8 1_555 1_555
C23_8 N17_8 1_555 1_555
H22_8 C23_8 1_555 1_555
H23_8 C23_8 1_555 1_555
C24_8 N15_8 1_555 1_555
H25_8 C24_8 1_555 1_555
C20_8 C21_8 1_555 1_555
N16_8 C21_8 1_555 1_555
N17_8 C24_8 1_555 1_555
C22_8 C23_8 1_555 1_555
N27_3 N24_8 1_555 1_555
N24_8 C30_8 1_555 1_555
C29_8 N21_8 1_555 1_555
H31_8 C29_8 1_555 1_555
C30_8 N21_8 1_555 1_555
H32_8 C30_8 1_555 1_555
O4_8 C31_8 1_555 1_555
N20_8 H24_8 1_555 1_555
C25_8 N14_8 1_555 1_555
H26_8 C25_8 1_555 1_555
C26_8 N14_8 1_555 1_555
H27_8 C26_8 1_555 1_555
C27_8 C26_8 1_555 1_555
H28_8 C27_8 1_555 1_555
C28_8 C27_8 1_555 1_555
H29_8 C28_8 1_555 1_555
C31_8 N20_8 1_555 1_555
C32_8 N20_8 1_555 1_555
C25_8 C32_8 1_555 1_555
C28_8 C32_8 1_555 1_555
Cu1_12 O2_12 1_555 1_555
C1_8 H1_8 1_555 1_555
N1_8 C1_8 1_555 1_555
Cu3_3 N1_8 1_555 1_555
C2_8 N1_8 1_555 1_555
H2_8 C2_8 1_555 1_555
O3_8 C6_8 1_555 1_555
C3_8 C2_8 1_555 1_555
H3_8 C3_8 1_555 1_555
N3_8 Cu1_12 1_555 1_555
C4_8 C3_8 1_555 1_555
H4_8 C4_8 1_555 1_555
N4_8 H5_8 1_555 1_555
N5_8 N6_8 1_555 1_555
C5_8 C1_8 1_555 1_555
C6_8 N4_8 1_555 1_555
N6_8 N7_8 1_555 1_555
N7_8 N3_8 1_555 1_555
C7_8 N5_8 1_555 1_555
H6_8 C7_8 1_555 1_555
H7_8 C7_8 1_555 1_555
C8_8 N3_8 1_555 1_555
H9_8 C8_8 1_555 1_555
C4_8 C5_8 1_555 1_555
N4_8 C5_8 1_555 1_555
N5_8 C8_8 1_555 1_555
C6_8 C7_8 1_555 1_555
O2_12 H34_9 1_555 1_555
O2_10 H33_10 1_555 1_555
O2_10 H34_10 1_555 1_555
O2_11 H34_11 1_555 1_555
O2_7 H34_12 1_555 1_555
O20 Mo6 1_555 1_555
O21 Mo7 1_555 1_555
Mo6 O6 1_555 1_555
O24 Mo8 1_555 1_555
O25 Mo8 1_555 1_555
O26 Mo5 1_555 1_555
O28 Mo5 1_555 1_555
O29 Mo5 1_555 1_555
O30 Mo5 1_555 1_555
O31 Mo7 1_555 1_555
Mo5 O27 1_555 1_555
O22 Mo6 1_555 1_555
O22 Mo7 1_555 1_555
Mo6 O23 1_555 1_555
Mo6 O27 1_555 1_555
O23 Mo8 1_555 1_555
Mo7 O27 1_555 1_555
Mo7 O30 1_555 1_555
Mo8 O27 1_555 1_555
Mo8 O28 1_555 1_555
Mo1 O13 1_555 1_555
O7 Mo2 1_555 1_555
O8 Mo3 1_555 1_555
O9 Mo2 1_555 1_555
Mo2 O10 1_555 1_555
O10 Mo4 1_555 1_555
Mo3 O9 1_555 1_555
O11 Mo4 1_555 1_555
O12 Mo4 1_555 1_555
Mo4 O14 1_555 1_555
O14 Mo1 1_555 1_555
O15 Mo1 1_555 1_555
O16 Mo1 1_555 1_555
O17 Mo1 1_555 1_555
O18 Mo3 1_555 1_555
O19 Mo2 1_555 1_555
Mo2 O14 1_555 1_555
Mo3 O14 1_555 1_555
Mo3 O17 1_555 1_555
Mo4 O15 1_555 1_555
O6_2 Mo1_2 1_555 1_555
Mo1_2 O13_2 1_555 1_555
O8_2 Mo3_2 1_555 1_555
O11_2 Mo4_2 1_555 1_555
O12_2 Mo4_2 1_555 1_555
Mo4_2 O14_2 1_555 1_555
O14_2 Mo1_2 1_555 1_555
O15_2 Mo1_2 1_555 1_555
O16_2 Mo1_2 1_555 1_555
O17_2 Mo1_2 1_555 1_555
O18_2 Mo3_2 1_555 1_555
O20_2 Mo6_2 1_555 1_555
O22_2 Mo3_2 1_555 1_555
Mo6_2 O6_2 1_555 1_555
O23_2 Mo4_2 1_555 1_555
Mo3_2 O14_2 1_555 1_555
Mo3_2 O17_2 1_555 1_555
Mo4_2 O15_2 1_555 1_555
O14_2 Mo6_2 1_555 1_555
O22_2 Mo6_2 1_555 1_555
Mo6_2 O23_2 1_555 1_555
O7_2 Mo2_2 1_555 1_555
O9_2 Mo2_2 1_555 1_555
Mo2_2 O10_2 1_555 1_555
O19_2 Mo2_2 1_555 1_555
Mo5_2 O19_2 1_555 1_555
O21_2 Mo7_2 1_555 1_555
Mo7_2 O9_2 1_555 1_555
O24_2 Mo8_2 1_555 1_555
O25_2 Mo8_2 1_555 1_555
Mo8_2 O10_2 1_555 1_555
O26_2 Mo5_2 1_555 1_555
O27_2 Mo2_2 1_555 1_555
O28_2 Mo5_2 1_555 1_555
O29_2 Mo5_2 1_555 1_555
O30_2 Mo5_2 1_555 1_555
O31_2 Mo7_2 1_555 1_555
Mo5_2 O27_2 1_555 1_555
Mo7_2 O27_2 1_555 1_555
Mo7_2 O30_2 1_555 1_555
Mo8_2 O27_2 1_555 1_555
Mo8_2 O28_2 1_555 1_555
O6_3 Mo1_3 1_555 1_555
Mo1_3 O13_3 1_555 1_555
O7_3 Mo2_3 1_555 1_555
O8_3 Mo3_3 1_555 1_555
O9_3 Mo2_3 1_555 1_555
Mo2_3 O10_3 1_555 1_555
O10_3 Mo4_3 1_555 1_555
Mo3_3 O9_3 1_555 1_555
O11_3 Mo4_3 1_555 1_555
O12_3 Mo4_3 1_555 1_555
Mo4_3 O14_3 1_555 1_555
O14_3 Mo1_3 1_555 1_555
O15_3 Mo1_3 1_555 1_555
O16_3 Mo1_3 1_555 1_555
O17_3 Mo1_3 1_555 1_555
O18_3 Mo3_3 1_555 1_555
O19_3 Mo2_3 1_555 1_555
Mo5_3 O19_3 1_555 1_555
O20_3 Mo6_3 1_555 1_555
O21_3 Mo7_3 1_555 1_555
O22_3 Mo3_3 1_555 1_555
Mo6_3 O6_3 1_555 1_555
O23_3 Mo4_3 1_555 1_555
Mo7_3 O9_3 1_555 1_555
O24_3 Mo8_3 1_555 1_555
O25_3 Mo8_3 1_555 1_555
Mo8_3 O10_3 1_555 1_555
O26_3 Mo5_3 1_555 1_555
O27_3 Mo2_3 1_555 1_555
O28_3 Mo5_3 1_555 1_555
O29_3 Mo5_3 1_555 1_555
O30_3 Mo5_3 1_555 1_555
O31_3 Mo7_3 1_555 1_555
Mo2_3 O14_3 1_555 1_555
Mo3_3 O14_3 1_555 1_555
Mo3_3 O17_3 1_555 1_555
Mo4_3 O15_3 1_555 1_555
O14_3 Mo6_3 1_555 1_555
Mo5_3 O27_3 1_555 1_555
O22_3 Mo6_3 1_555 1_555
O22_3 Mo7_3 1_555 1_555
Mo6_3 O23_3 1_555 1_555
Mo6_3 O27_3 1_555 1_555
O23_3 Mo8_3 1_555 1_555
Mo7_3 O27_3 1_555 1_555
Mo7_3 O30_3 1_555 1_555
Mo8_3 O27_3 1_555 1_555
Mo8_3 O28_3 1_555 1_555
O21_4 Mo7_4 1_555 1_555
O24_4 Mo8_4 1_555 1_555
O25_4 Mo8_4 1_555 1_555
O26_4 Mo5_4 1_555 1_555
O28_4 Mo5_4 1_555 1_555
O29_4 Mo5_4 1_555 1_555
O30_4 Mo5_4 1_555 1_555
O31_4 Mo7_4 1_555 1_555
Mo5_4 O27_4 1_555 1_555
Mo7_4 O27_4 1_555 1_555
Mo7_4 O30_4 1_555 1_555
Mo8_4 O27_4 1_555 1_555
Mo8_4 O28_4 1_555 1_555
O7_4 Mo2_4 1_555 1_555
O9_4 Mo2_4 1_555 1_555
Mo2_4 O10_4 1_555 1_555
O19_4 Mo2_4 1_555 1_555
O20_4 Mo6_4 1_555 1_555
Mo6_4 O6_4 1_555 1_555
O22_4 Mo6_4 1_555 1_555
Mo6_4 O23_4 1_555 1_555
Mo1_4 O13_4 1_555 1_555
O8_4 Mo3_4 1_555 1_555
O11_4 Mo4_4 1_555 1_555
O12_4 Mo4_4 1_555 1_555
Mo4_4 O14_4 1_555 1_555
O14_4 Mo1_4 1_555 1_555
O15_4 Mo1_4 1_555 1_555
O16_4 Mo1_4 1_555 1_555
O17_4 Mo1_4 1_555 1_555
O18_4 Mo3_4 1_555 1_555
Mo3_4 O14_4 1_555 1_555
Mo3_4 O17_4 1_555 1_555
Mo4_4 O15_4 1_555 1_555
Mo1_5 O13_5 1_555 1_555
O7_5 Mo2_5 1_555 1_555
O8_5 Mo3_5 1_555 1_555
O9_5 Mo2_5 1_555 1_555
Mo2_5 O10_5 1_555 1_555
O10_5 Mo4_5 1_555 1_555
Mo3_5 O9_5 1_555 1_555
O11_5 Mo4_5 1_555 1_555
O12_5 Mo4_5 1_555 1_555
Mo4_5 O14_5 1_555 1_555
O14_5 Mo1_5 1_555 1_555
O15_5 Mo1_5 1_555 1_555
O16_5 Mo1_5 1_555 1_555
O17_5 Mo1_5 1_555 1_555
O18_5 Mo3_5 1_555 1_555
O19_5 Mo2_5 1_555 1_555
Mo2_5 O14_5 1_555 1_555
Mo3_5 O14_5 1_555 1_555
Mo3_5 O17_5 1_555 1_555
Mo4_5 O15_5 1_555 1_555
O20_5 Mo6_5 1_555 1_555
O21_5 Mo7_5 1_555 1_555
Mo6_5 O6_5 1_555 1_555
O24_5 Mo8_5 1_555 1_555
O25_5 Mo8_5 1_555 1_555
O26_5 Mo5_5 1_555 1_555
O28_5 Mo5_5 1_555 1_555
O29_5 Mo5_5 1_555 1_555
O30_5 Mo5_5 1_555 1_555
O31_5 Mo7_5 1_555 1_555
Mo5_5 O27_5 1_555 1_555
O22_5 Mo6_5 1_555 1_555
O22_5 Mo7_5 1_555 1_555
Mo6_5 O23_5 1_555 1_555
Mo6_5 O27_5 1_555 1_555
O23_5 Mo8_5 1_555 1_555
Mo7_5 O27_5 1_555 1_555
Mo7_5 O30_5 1_555 1_555
Mo8_5 O27_5 1_555 1_555
Mo8_5 O28_5 1_555 1_555
O7_6 Mo2_6 1_555 1_555
O9_6 Mo2_6 1_555 1_555
Mo2_6 O10_6 1_555 1_555
O19_6 Mo2_6 1_555 1_555
Mo5_6 O19_6 1_555 1_555
O21_6 Mo7_6 1_555 1_555
Mo7_6 O9_6 1_555 1_555
O24_6 Mo8_6 1_555 1_555
O25_6 Mo8_6 1_555 1_555
Mo8_6 O10_6 1_555 1_555
O26_6 Mo5_6 1_555 1_555
O27_6 Mo2_6 1_555 1_555
O28_6 Mo5_6 1_555 1_555
O29_6 Mo5_6 1_555 1_555
O30_6 Mo5_6 1_555 1_555
O31_6 Mo7_6 1_555 1_555
Mo5_6 O27_6 1_555 1_555
Mo7_6 O27_6 1_555 1_555
Mo7_6 O30_6 1_555 1_555
Mo8_6 O27_6 1_555 1_555
Mo8_6 O28_6 1_555 1_555
O6_6 Mo1_6 1_555 1_555
Mo1_6 O13_6 1_555 1_555
O8_6 Mo3_6 1_555 1_555
O11_6 Mo4_6 1_555 1_555
O12_6 Mo4_6 1_555 1_555
Mo4_6 O14_6 1_555 1_555
O14_6 Mo1_6 1_555 1_555
O15_6 Mo1_6 1_555 1_555
O16_6 Mo1_6 1_555 1_555
O17_6 Mo1_6 1_555 1_555
O18_6 Mo3_6 1_555 1_555
O20_6 Mo6_6 1_555 1_555
O22_6 Mo3_6 1_555 1_555
Mo6_6 O6_6 1_555 1_555
O23_6 Mo4_6 1_555 1_555
Mo3_6 O14_6 1_555 1_555
Mo3_6 O17_6 1_555 1_555
Mo4_6 O15_6 1_555 1_555
O14_6 Mo6_6 1_555 1_555
O22_6 Mo6_6 1_555 1_555
Mo6_6 O23_6 1_555 1_555
O6_7 Mo1_7 1_555 1_555
Mo1_7 O13_7 1_555 1_555
O7_7 Mo2_7 1_555 1_555
O8_7 Mo3_7 1_555 1_555
O9_7 Mo2_7 1_555 1_555
Mo2_7 O10_7 1_555 1_555
O10_7 Mo4_7 1_555 1_555
Mo3_7 O9_7 1_555 1_555
O11_7 Mo4_7 1_555 1_555
O12_7 Mo4_7 1_555 1_555
Mo4_7 O14_7 1_555 1_555
O14_7 Mo1_7 1_555 1_555
O15_7 Mo1_7 1_555 1_555
O16_7 Mo1_7 1_555 1_555
O17_7 Mo1_7 1_555 1_555
O18_7 Mo3_7 1_555 1_555
O19_7 Mo2_7 1_555 1_555
Mo5_7 O19_7 1_555 1_555
O20_7 Mo6_7 1_555 1_555
O21_7 Mo7_7 1_555 1_555
O22_7 Mo3_7 1_555 1_555
Mo6_7 O6_7 1_555 1_555
O23_7 Mo4_7 1_555 1_555
Mo7_7 O9_7 1_555 1_555
O24_7 Mo8_7 1_555 1_555
O25_7 Mo8_7 1_555 1_555
Mo8_7 O10_7 1_555 1_555
O26_7 Mo5_7 1_555 1_555
O27_7 Mo2_7 1_555 1_555
O28_7 Mo5_7 1_555 1_555
O29_7 Mo5_7 1_555 1_555
O30_7 Mo5_7 1_555 1_555
O31_7 Mo7_7 1_555 1_555
Mo2_7 O14_7 1_555 1_555
Mo3_7 O14_7 1_555 1_555
Mo3_7 O17_7 1_555 1_555
Mo4_7 O15_7 1_555 1_555
O14_7 Mo6_7 1_555 1_555
Mo5_7 O27_7 1_555 1_555
O22_7 Mo6_7 1_555 1_555
O22_7 Mo7_7 1_555 1_555
Mo6_7 O23_7 1_555 1_555
Mo6_7 O27_7 1_555 1_555
O23_7 Mo8_7 1_555 1_555
Mo7_7 O27_7 1_555 1_555
Mo7_7 O30_7 1_555 1_555
Mo8_7 O27_7 1_555 1_555
Mo8_7 O28_7 1_555 1_555
Mo1_8 O13_8 1_555 1_555
O8_8 Mo3_8 1_555 1_555
O11_8 Mo4_8 1_555 1_555
O12_8 Mo4_8 1_555 1_555
Mo4_8 O14_8 1_555 1_555
O14_8 Mo1_8 1_555 1_555
O15_8 Mo1_8 1_555 1_555
O16_8 Mo1_8 1_555 1_555
O17_8 Mo1_8 1_555 1_555
O18_8 Mo3_8 1_555 1_555
Mo3_8 O14_8 1_555 1_555
Mo3_8 O17_8 1_555 1_555
Mo4_8 O15_8 1_555 1_555
O20_8 Mo6_8 1_555 1_555
Mo6_8 O6_8 1_555 1_555
O22_8 Mo6_8 1_555 1_555
Mo6_8 O23_8 1_555 1_555
O7_8 Mo2_8 1_555 1_555
O9_8 Mo2_8 1_555 1_555
Mo2_8 O10_8 1_555 1_555
O19_8 Mo2_8 1_555 1_555
O21_8 Mo7_8 1_555 1_555
O24_8 Mo8_8 1_555 1_555
O25_8 Mo8_8 1_555 1_555
O26_8 Mo5_8 1_555 1_555
O28_8 Mo5_8 1_555 1_555
O29_8 Mo5_8 1_555 1_555
O30_8 Mo5_8 1_555 1_555
O31_8 Mo7_8 1_555 1_555
Mo5_8 O27_8 1_555 1_555
Mo7_8 O27_8 1_555 1_555
Mo7_8 O30_8 1_555 1_555
Mo8_8 O27_8 1_555 1_555
Mo8_8 O28_8 1_555 1_555
Mo9 O32 1_555 1_555
Mo10 O32 1_555 1_555
Mo11 O32 1_555 1_555
Mo12 O32 1_555 1_555
Mo13 O36 1_555 1_555
Mo14 O35 1_555 1_555
O32 Mo15 1_555 1_555
O33 Mo9 1_555 1_555
O34 Mo10 1_555 1_555
O35 Mo11 1_555 1_555
O37 Mo10 1_555 1_555
O38 Mo9 1_555 1_555
O39 Mo12 1_555 1_555
O40 Mo14 1_555 1_555
O41 Mo14 1_555 1_555
O42 Mo14 1_555 1_555
O43 Mo10 1_555 1_555
O44 Mo13 1_555 1_555
O45 Mo12 1_555 1_555
O46 Mo9 1_555 1_555
O47 Mo11 1_555 1_555
O48 Mo10 1_555 1_555
O49 Mo9 1_555 1_555
Mo15 O50 1_555 1_555
Mo16 O42 1_555 1_555
O51 Mo16 1_555 1_555
O52 Mo15 1_555 1_555
O53 Mo13 1_555 1_555
O54 Mo11 1_555 1_555
O55 Mo16 1_555 1_555
O56 Mo12 1_555 1_555
O57 Mo9 1_555 1_555
Mo10 O49 1_555 1_555
Mo11 O43 1_555 1_555
Mo11 O46 1_555 1_555
Mo12 O33 1_555 1_555
Mo12 O48 1_555 1_555
Mo13 O43 1_555 1_555
Mo13 O46 1_555 1_555
Mo13 O49 1_555 1_555
Mo14 O46 1_555 1_555
Mo14 O53 1_555 1_555
O46 Mo16 1_555 1_555
Mo15 O54 1_555 1_555
Mo15 O56 1_555 1_555
Mo15 O57 1_555 1_555
Mo16 O54 1_555 1_555
Mo16 O57 1_555 1_555
Mo9_2 O32_2 1_555 1_555
Mo10_2 O32_2 1_555 1_555
Mo11_2 O32_2 1_555 1_555
Mo12_2 O32_2 1_555 1_555
Mo13_2 O36_2 1_555 1_555
Mo14_2 O35_2 1_555 1_555
O32_2 Mo15_2 1_555 1_555
O33_2 Mo9_2 1_555 1_555
O34_2 Mo10_2 1_555 1_555
O35_2 Mo11_2 1_555 1_555
O37_2 Mo10_2 1_555 1_555
O38_2 Mo9_2 1_555 1_555
O39_2 Mo12_2 1_555 1_555
O40_2 Mo14_2 1_555 1_555
O41_2 Mo14_2 1_555 1_555
O42_2 Mo14_2 1_555 1_555
O43_2 Mo10_2 1_555 1_555
O44_2 Mo13_2 1_555 1_555
O45_2 Mo12_2 1_555 1_555
O46_2 Mo9_2 1_555 1_555
O47_2 Mo11_2 1_555 1_555
O48_2 Mo10_2 1_555 1_555
O49_2 Mo9_2 1_555 1_555
Mo15_2 O50_2 1_555 1_555
Mo16_2 O42_2 1_555 1_555
O51_2 Mo16_2 1_555 1_555
O52_2 Mo15_2 1_555 1_555
O53_2 Mo13_2 1_555 1_555
O54_2 Mo11_2 1_555 1_555
O55_2 Mo16_2 1_555 1_555
O56_2 Mo12_2 1_555 1_555
O57_2 Mo9_2 1_555 1_555
Mo10_2 O49_2 1_555 1_555
Mo11_2 O43_2 1_555 1_555
Mo11_2 O46_2 1_555 1_555
Mo12_2 O33_2 1_555 1_555
Mo12_2 O48_2 1_555 1_555
Mo13_2 O43_2 1_555 1_555
Mo13_2 O46_2 1_555 1_555
Mo13_2 O49_2 1_555 1_555
Mo14_2 O46_2 1_555 1_555
Mo14_2 O53_2 1_555 1_555
O46_2 Mo16_2 1_555 1_555
Mo15_2 O54_2 1_555 1_555
Mo15_2 O56_2 1_555 1_555
Mo15_2 O57_2 1_555 1_555
Mo16_2 O54_2 1_555 1_555
Mo16_2 O57_2 1_555 1_555
Mo9_3 O32_3 1_555 1_555
Mo10_3 O32_3 1_555 1_555
Mo11_3 O32_3 1_555 1_555
Mo12_3 O32_3 1_555 1_555
Mo13_3 O36_3 1_555 1_555
Mo14_3 O35_3 1_555 1_555
O32_3 Mo15_3 1_555 1_555
O33_3 Mo9_3 1_555 1_555
O34_3 Mo10_3 1_555 1_555
O35_3 Mo11_3 1_555 1_555
O37_3 Mo10_3 1_555 1_555
O38_3 Mo9_3 1_555 1_555
O39_3 Mo12_3 1_555 1_555
O40_3 Mo14_3 1_555 1_555
O41_3 Mo14_3 1_555 1_555
O42_3 Mo14_3 1_555 1_555
O43_3 Mo10_3 1_555 1_555
O44_3 Mo13_3 1_555 1_555
O45_3 Mo12_3 1_555 1_555
O46_3 Mo9_3 1_555 1_555
O47_3 Mo11_3 1_555 1_555
O48_3 Mo10_3 1_555 1_555
O49_3 Mo9_3 1_555 1_555
Mo15_3 O50_3 1_555 1_555
Mo16_3 O42_3 1_555 1_555
O51_3 Mo16_3 1_555 1_555
O52_3 Mo15_3 1_555 1_555
O53_3 Mo13_3 1_555 1_555
O54_3 Mo11_3 1_555 1_555
O55_3 Mo16_3 1_555 1_555
O56_3 Mo12_3 1_555 1_555
O57_3 Mo9_3 1_555 1_555
Mo10_3 O49_3 1_555 1_555
Mo11_3 O43_3 1_555 1_555
Mo11_3 O46_3 1_555 1_555
Mo12_3 O33_3 1_555 1_555
Mo12_3 O48_3 1_555 1_555
Mo13_3 O43_3 1_555 1_555
Mo13_3 O46_3 1_555 1_555
Mo13_3 O49_3 1_555 1_555
Mo14_3 O46_3 1_555 1_555
Mo14_3 O53_3 1_555 1_555
O46_3 Mo16_3 1_555 1_555
Mo15_3 O54_3 1_555 1_555
Mo15_3 O56_3 1_555 1_555
Mo15_3 O57_3 1_555 1_555
Mo16_3 O54_3 1_555 1_555
Mo16_3 O57_3 1_555 1_555
Mo9_4 O32_4 1_555 1_555
Mo10_4 O32_4 1_555 1_555
Mo11_4 O32_4 1_555 1_555
Mo12_4 O32_4 1_555 1_555
Mo13_4 O36_4 1_555 1_555
Mo14_4 O35_4 1_555 1_555
O33_4 Mo9_4 1_555 1_555
O34_4 Mo10_4 1_555 1_555
O35_4 Mo11_4 1_555 1_555
O37_4 Mo10_4 1_555 1_555
O38_4 Mo9_4 1_555 1_555
O39_4 Mo12_4 1_555 1_555
O40_4 Mo14_4 1_555 1_555
O41_4 Mo14_4 1_555 1_555
O43_4 Mo10_4 1_555 1_555
O44_4 Mo13_4 1_555 1_555
O45_4 Mo12_4 1_555 1_555
O46_4 Mo9_4 1_555 1_555
O47_4 Mo11_4 1_555 1_555
O48_4 Mo10_4 1_555 1_555
O49_4 Mo9_4 1_555 1_555
O53_4 Mo13_4 1_555 1_555
Mo10_4 O49_4 1_555 1_555
Mo11_4 O43_4 1_555 1_555
Mo11_4 O46_4 1_555 1_555
Mo12_4 O33_4 1_555 1_555
Mo12_4 O48_4 1_555 1_555
Mo13_4 O43_4 1_555 1_555
Mo13_4 O46_4 1_555 1_555
Mo13_4 O49_4 1_555 1_555
Mo14_4 O46_4 1_555 1_555
Mo14_4 O53_4 1_555 1_555
Mo9_5 O32_5 1_555 1_555
Mo11_5 O32_5 1_555 1_555
Mo12_5 O32_5 1_555 1_555
Mo14_5 O35_5 1_555 1_555
O32_5 Mo15_4 1_555 1_555
O33_5 Mo9_5 1_555 1_555
O35_5 Mo11_5 1_555 1_555
O38_5 Mo9_5 1_555 1_555
O39_5 Mo12_5 1_555 1_555
O40_5 Mo14_5 1_555 1_555
O41_5 Mo14_5 1_555 1_555
O42_4 Mo14_5 1_555 1_555
O45_5 Mo12_5 1_555 1_555
O46_5 Mo9_5 1_555 1_555
O47_5 Mo11_5 1_555 1_555
Mo15_4 O50_4 1_555 1_555
Mo16_4 O42_4 1_555 1_555
O51_4 Mo16_4 1_555 1_555
O52_4 Mo15_4 1_555 1_555
O54_4 Mo11_5 1_555 1_555
O55_4 Mo16_4 1_555 1_555
O56_4 Mo12_5 1_555 1_555
O57_4 Mo9_5 1_555 1_555
Mo11_5 O46_5 1_555 1_555
Mo12_5 O33_5 1_555 1_555
Mo14_5 O46_5 1_555 1_555
O46_5 Mo16_4 1_555 1_555
Mo15_4 O54_4 1_555 1_555
Mo15_4 O56_4 1_555 1_555
Mo15_4 O57_4 1_555 1_555
Mo16_4 O54_4 1_555 1_555
Mo16_4 O57_4 1_555 1_555
Mo9_6 O32_6 1_555 1_555
Mo11_6 O32_6 1_555 1_555
Mo12_6 O32_6 1_555 1_555
Mo14_6 O35_6 1_555 1_555
O32_6 Mo15_5 1_555 1_555
O33_6 Mo9_6 1_555 1_555
O35_6 Mo11_6 1_555 1_555
O38_6 Mo9_6 1_555 1_555
O39_6 Mo12_6 1_555 1_555
O40_6 Mo14_6 1_555 1_555
O41_6 Mo14_6 1_555 1_555
O42_5 Mo14_6 1_555 1_555
O45_6 Mo12_6 1_555 1_555
O46_6 Mo9_6 1_555 1_555
O47_6 Mo11_6 1_555 1_555
Mo15_5 O50_5 1_555 1_555
Mo16_5 O42_5 1_555 1_555
O51_5 Mo16_5 1_555 1_555
O52_5 Mo15_5 1_555 1_555
O54_5 Mo11_6 1_555 1_555
O55_5 Mo16_5 1_555 1_555
O56_5 Mo12_6 1_555 1_555
O57_5 Mo9_6 1_555 1_555
Mo11_6 O46_6 1_555 1_555
Mo12_6 O33_6 1_555 1_555
Mo14_6 O46_6 1_555 1_555
O46_6 Mo16_5 1_555 1_555
Mo15_5 O54_5 1_555 1_555
Mo15_5 O56_5 1_555 1_555
Mo15_5 O57_5 1_555 1_555
Mo16_5 O54_5 1_555 1_555
Mo16_5 O57_5 1_555 1_555
Mo9_7 O32_7 1_555 1_555
Mo10_5 O32_7 1_555 1_555
Mo11_7 O32_7 1_555 1_555
Mo12_7 O32_7 1_555 1_555
Mo13_5 O36_5 1_555 1_555
Mo14_7 O35_7 1_555 1_555
O33_7 Mo9_7 1_555 1_555
O34_5 Mo10_5 1_555 1_555
O35_7 Mo11_7 1_555 1_555
O37_5 Mo10_5 1_555 1_555
O38_7 Mo9_7 1_555 1_555
O39_7 Mo12_7 1_555 1_555
O40_7 Mo14_7 1_555 1_555
O41_7 Mo14_7 1_555 1_555
O43_5 Mo10_5 1_555 1_555
O44_5 Mo13_5 1_555 1_555
O45_7 Mo12_7 1_555 1_555
O46_7 Mo9_7 1_555 1_555
O47_7 Mo11_7 1_555 1_555
O48_5 Mo10_5 1_555 1_555
O49_5 Mo9_7 1_555 1_555
O53_5 Mo13_5 1_555 1_555
Mo10_5 O49_5 1_555 1_555
Mo11_7 O43_5 1_555 1_555
Mo11_7 O46_7 1_555 1_555
Mo12_7 O33_7 1_555 1_555
Mo12_7 O48_5 1_555 1_555
Mo13_5 O43_5 1_555 1_555
Mo13_5 O46_7 1_555 1_555
Mo13_5 O49_5 1_555 1_555
Mo14_7 O46_7 1_555 1_555
Mo14_7 O53_5 1_555 1_555
Mo9_8 O32_8 1_555 1_555
Mo10_6 O32_8 1_555 1_555
Mo11_8 O32_8 1_555 1_555
Mo12_8 O32_8 1_555 1_555
Mo13_6 O36_6 1_555 1_555
Mo14_8 O35_8 1_555 1_555
O33_8 Mo9_8 1_555 1_555
O34_6 Mo10_6 1_555 1_555
O35_8 Mo11_8 1_555 1_555
O37_6 Mo10_6 1_555 1_555
O38_8 Mo9_8 1_555 1_555
O39_8 Mo12_8 1_555 1_555
O40_8 Mo14_8 1_555 1_555
O41_8 Mo14_8 1_555 1_555
O43_6 Mo10_6 1_555 1_555
O44_6 Mo13_6 1_555 1_555
O45_8 Mo12_8 1_555 1_555
O46_8 Mo9_8 1_555 1_555
O47_8 Mo11_8 1_555 1_555
O48_6 Mo10_6 1_555 1_555
O49_6 Mo9_8 1_555 1_555
O53_6 Mo13_6 1_555 1_555
Mo10_6 O49_6 1_555 1_555
Mo11_8 O43_6 1_555 1_555
Mo11_8 O46_8 1_555 1_555
Mo12_8 O33_8 1_555 1_555
Mo12_8 O48_6 1_555 1_555
Mo13_6 O43_6 1_555 1_555
Mo13_6 O46_8 1_555 1_555
Mo13_6 O49_6 1_555 1_555
Mo14_8 O46_8 1_555 1_555
Mo14_8 O53_6 1_555 1_555
Mo9_9 O32_9 1_555 1_555
Mo11_9 O32_9 1_555 1_555
Mo12_9 O32_9 1_555 1_555
Mo14_9 O35_9 1_555 1_555
O32_9 Mo15_6 1_555 1_555
O33_9 Mo9_9 1_555 1_555
O35_9 Mo11_9 1_555 1_555
O38_9 Mo9_9 1_555 1_555
O39_9 Mo12_9 1_555 1_555
O40_9 Mo14_9 1_555 1_555
O41_9 Mo14_9 1_555 1_555
O42_6 Mo14_9 1_555 1_555
O45_9 Mo12_9 1_555 1_555
O46_9 Mo9_9 1_555 1_555
O47_9 Mo11_9 1_555 1_555
Mo15_6 O50_6 1_555 1_555
Mo16_6 O42_6 1_555 1_555
O51_6 Mo16_6 1_555 1_555
O52_6 Mo15_6 1_555 1_555
O54_6 Mo11_9 1_555 1_555
O55_6 Mo16_6 1_555 1_555
O56_6 Mo12_9 1_555 1_555
O57_6 Mo9_9 1_555 1_555
Mo11_9 O46_9 1_555 1_555
Mo12_9 O33_9 1_555 1_555
Mo14_9 O46_9 1_555 1_555
O46_9 Mo16_6 1_555 1_555
Mo15_6 O54_6 1_555 1_555
Mo15_6 O56_6 1_555 1_555
Mo15_6 O57_6 1_555 1_555
Mo16_6 O54_6 1_555 1_555
Mo16_6 O57_6 1_555 1_555
Mo9_10 O32_10 1_555 1_555
Mo11_10 O32_10 1_555 1_555
Mo12_10 O32_10 1_555 1_555
Mo14_10 O35_10 1_555 1_555
O32_10 Mo15_7 1_555 1_555
O33_10 Mo9_10 1_555 1_555
O35_10 Mo11_10 1_555 1_555
O38_10 Mo9_10 1_555 1_555
O39_10 Mo12_10 1_555 1_555
O40_10 Mo14_10 1_555 1_555
O41_10 Mo14_10 1_555 1_555
O42_7 Mo14_10 1_555 1_555
O45_10 Mo12_10 1_555 1_555
O46_10 Mo9_10 1_555 1_555
O47_10 Mo11_10 1_555 1_555
Mo15_7 O50_7 1_555 1_555
Mo16_7 O42_7 1_555 1_555
O51_7 Mo16_7 1_555 1_555
O52_7 Mo15_7 1_555 1_555
O54_7 Mo11_10 1_555 1_555
O55_7 Mo16_7 1_555 1_555
O56_7 Mo12_10 1_555 1_555
O57_7 Mo9_10 1_555 1_555
Mo11_10 O46_10 1_555 1_555
Mo12_10 O33_10 1_555 1_555
Mo14_10 O46_10 1_555 1_555
O46_10 Mo16_7 1_555 1_555
Mo15_7 O54_7 1_555 1_555
Mo15_7 O56_7 1_555 1_555
Mo15_7 O57_7 1_555 1_555
Mo16_7 O54_7 1_555 1_555
Mo16_7 O57_7 1_555 1_555
Mo9_11 O32_11 1_555 1_555
Mo10_7 O32_11 1_555 1_555
Mo11_11 O32_11 1_555 1_555
Mo12_11 O32_11 1_555 1_555
Mo13_7 O36_7 1_555 1_555
Mo14_11 O35_11 1_555 1_555
O33_11 Mo9_11 1_555 1_555
O34_7 Mo10_7 1_555 1_555
O35_11 Mo11_11 1_555 1_555
O37_7 Mo10_7 1_555 1_555
O38_11 Mo9_11 1_555 1_555
O39_11 Mo12_11 1_555 1_555
O40_11 Mo14_11 1_555 1_555
O41_11 Mo14_11 1_555 1_555
O43_7 Mo10_7 1_555 1_555
O44_7 Mo13_7 1_555 1_555
O45_11 Mo12_11 1_555 1_555
O46_11 Mo9_11 1_555 1_555
O47_11 Mo11_11 1_555 1_555
O48_7 Mo10_7 1_555 1_555
O49_7 Mo9_11 1_555 1_555
O53_7 Mo13_7 1_555 1_555
Mo10_7 O49_7 1_555 1_555
Mo11_11 O43_7 1_555 1_555
Mo11_11 O46_11 1_555 1_555
Mo12_11 O33_11 1_555 1_555
Mo12_11 O48_7 1_555 1_555
Mo13_7 O43_7 1_555 1_555
Mo13_7 O46_11 1_555 1_555
Mo13_7 O49_7 1_555 1_555
Mo14_11 O46_11 1_555 1_555
Mo14_11 O53_7 1_555 1_555
Mo9_12 O32_12 1_555 1_555
Mo10_8 O32_12 1_555 1_555
Mo11_12 O32_12 1_555 1_555
Mo12_12 O32_12 1_555 1_555
Mo13_8 O36_8 1_555 1_555
Mo14_12 O35_12 1_555 1_555
O32_12 Mo15_8 1_555 1_555
O33_12 Mo9_12 1_555 1_555
O34_8 Mo10_8 1_555 1_555
O35_12 Mo11_12 1_555 1_555
O37_8 Mo10_8 1_555 1_555
O38_12 Mo9_12 1_555 1_555
O39_12 Mo12_12 1_555 1_555
O40_12 Mo14_12 1_555 1_555
O41_12 Mo14_12 1_555 1_555
O42_8 Mo14_12 1_555 1_555
O43_8 Mo10_8 1_555 1_555
O44_8 Mo13_8 1_555 1_555
O45_12 Mo12_12 1_555 1_555
O46_12 Mo9_12 1_555 1_555
O47_12 Mo11_12 1_555 1_555
O48_8 Mo10_8 1_555 1_555
O49_8 Mo9_12 1_555 1_555
Mo15_8 O50_8 1_555 1_555
Mo16_8 O42_8 1_555 1_555
O51_8 Mo16_8 1_555 1_555
O52_8 Mo15_8 1_555 1_555
O53_8 Mo13_8 1_555 1_555
O54_8 Mo11_12 1_555 1_555
O55_8 Mo16_8 1_555 1_555
O56_8 Mo12_12 1_555 1_555
O57_8 Mo9_12 1_555 1_555
Mo10_8 O49_8 1_555 1_555
Mo11_12 O43_8 1_555 1_555
Mo11_12 O46_12 1_555 1_555
Mo12_12 O33_12 1_555 1_555
Mo12_12 O48_8 1_555 1_555
Mo13_8 O43_8 1_555 1_555
Mo13_8 O46_12 1_555 1_555
Mo13_8 O49_8 1_555 1_555
Mo14_12 O46_12 1_555 1_555
Mo14_12 O53_8 1_555 1_555
O46_12 Mo16_8 1_555 1_555
Mo15_8 O54_8 1_555 1_555
Mo15_8 O56_8 1_555 1_555
Mo15_8 O57_8 1_555 1_555
Mo16_8 O54_8 1_555 1_555
Mo16_8 O57_8 1_555 1_555

#END
