
###############################################################################
#
# This file contains modified crystal structure data generated from the
# MOF subset of the Cambridge Structural Database (CSD) v543 
# hosted by the Cambridge Crystallographic Data Centre (CCDC).
#
# This work is licensed under the Creative Commons
# Attribution-NonCommercial-ShareAlike 4.0 International License.
# To view a copy of this license, visit
# http://creativecommons.org/licenses/by-nc-sa/4.0/
# or send a letter to
# Creative Commons, PO Box 1866, Mountain View, CA 94042, USA.
#
# CIF created using the CSD Python API on 29 September 2022
# The structure has been converted into the P1 space group
# The structure has a 3D framework
# The original CSD entry ENESUN is in the orthorhombic crystal system
# The framework has been calculated to contain at least 10.0% void space
# The void calculation uses a probe of radius 1.32A, grid spacing 0.4
# The framework is charged, counterions have been retained in the structure
# H atom positions have been added when not included in the experimental data
# Generated hydrogen atom positions removed from atoms on special positions
#
###############################################################################

data_ENESUN
_chemical_formula_moiety         '(C256 H380 Co24 Mo144 N192 O528 16+)n'
_symmetry_cell_setting           triclinic
_symmetry_space_group_name_H-M   'P 1'
_symmetry_Int_Tables_number      1
_space_group_name_Hall           'P 1'
loop_
_symmetry_equiv_pos_site_id
_symmetry_equiv_pos_as_xyz
1 x,y,z
_cell_length_a                   27.0900(13)
_cell_length_b                   38.2760(13)
_cell_length_c                   19.1070(8)
_cell_angle_alpha                90
_cell_angle_beta                 90
_cell_angle_gamma                90
_cell_volume                     19812
loop_
_atom_site_label
_atom_site_type_symbol
_atom_site_fract_x
_atom_site_fract_y
_atom_site_fract_z
Co1 Co 0.5000 0.48789(3) 0.30238(6)
O1 O 0.5000 0.4852(2) 0.1908(4)
O2 O 0.4078(2) 0.38308(13) 0.1472(3)
N1 N 0.44646(19) 0.44708(13) 0.3021(3)
C1 C 0.3143(3) 0.30066(17) 0.0801(3)
H1 H 0.2860 0.3012 0.1078
Co2 Co 0.7500 0.7500 0.5000
O3 O 0.5000 0.48636(16) 0.4155(3)
O4 O 0.66551(19) 0.62922(13) 0.4041(3)
C2 C 0.3530(2) 0.32250(17) 0.0987(4)
N2 N 0.4440(2) 0.42373(14) 0.3563(3)
N3 N 0.4112(2) 0.40021(15) 0.3430(3)
O5 O 0.7432(3) 0.7740(2) 0.6048(3)
N4 N 0.3917(2) 0.40796(14) 0.2807(3)
C4 C 0.3965(3) 0.29964(19) 0.0012(4)
N5 N 0.3461(2) 0.34317(15) 0.1590(3)
H4 H 0.3218 0.3375 0.1857
N6 N 0.3145(2) 0.27911(13) 0.0262(3)
N7 N 0.5589(2) 0.52519(13) 0.3062(3)
N8 N 0.6008(2) 0.59258(14) 0.4264(3)
H5 H 0.5783 0.5881 0.4570
N9 N 0.65068(19) 0.66594(12) 0.5244(3)
C5 C 0.3950(3) 0.32200(19) 0.0572(4)
H6 H 0.4216 0.3365 0.0672
N10 N 0.6642(2) 0.66921(13) 0.5925(3)
C6 C 0.3731(2) 0.37058(16) 0.1791(4)
N11 N 0.69647(19) 0.69456(14) 0.5949(3)
C7 C 0.3540(3) 0.38557(18) 0.2480(4)
H7 H 0.3244 0.3991 0.2393
H8 H 0.3455 0.3666 0.2795
N12 N 0.70351(19) 0.70790(13) 0.5301(3)
C8 C 0.4138(2) 0.43663(16) 0.2559(3)
H9 H 0.4072 0.4473 0.2132
C9 C 0.5937(3) 0.52672(18) 0.2570(4)
H10 H 0.5904 0.5126 0.2177
C10 C 0.6345(3) 0.5481(2) 0.2616(4)
H11 H 0.6588 0.5472 0.2273
C11 C 0.6392(3) 0.5708(2) 0.3168(4)
H12 H 0.6659 0.5860 0.3197
C12 C 0.5643(2) 0.54687(16) 0.3611(3)
H13 H 0.5408 0.5461 0.3965
C13 C 0.6034(2) 0.57051(16) 0.3678(3)
C14 C 0.6304(2) 0.62007(15) 0.4386(3)
C15 C 0.6139(2) 0.64068(15) 0.5042(3)
H14 H 0.5830 0.6526 0.4945
H15 H 0.6082 0.6245 0.5426
C16 C 0.6747(2) 0.68991(15) 0.4873(3)
H16 H 0.6717 0.6934 0.4394
O6 O 0.5922(2) 0.38308(13) 0.1472(3)
N13 N 0.55354(19) 0.44708(13) 0.3021(3)
C17 C 0.6857(3) 0.30066(17) 0.0801(3)
H17 H 0.7140 0.3012 0.1078
O7 O 0.33449(19) 0.62922(13) 0.4041(3)
C18 C 0.6470(2) 0.32250(17) 0.0987(4)
N14 N 0.5560(2) 0.42373(14) 0.3563(3)
N15 N 0.5888(2) 0.40021(15) 0.3430(3)
N16 N 0.6083(2) 0.40796(14) 0.2807(3)
C20 C 0.6035(3) 0.29964(19) 0.0012(4)
N17 N 0.6539(2) 0.34317(15) 0.1590(3)
H20 H 0.6782 0.3375 0.1857
N18 N 0.6855(2) 0.27911(13) 0.0262(3)
N19 N 0.4411(2) 0.52519(13) 0.3062(3)
N20 N 0.3992(2) 0.59258(14) 0.4264(3)
H21 H 0.4217 0.5881 0.4570
N21 N 0.34932(19) 0.66594(12) 0.5244(3)
C21 C 0.6050(3) 0.32200(19) 0.0572(4)
H22 H 0.5784 0.3365 0.0672
N22 N 0.3358(2) 0.66921(13) 0.5925(3)
C22 C 0.6269(2) 0.37058(16) 0.1791(4)
N23 N 0.30353(19) 0.69456(14) 0.5949(3)
C23 C 0.6460(3) 0.38557(18) 0.2480(4)
H23 H 0.6756 0.3991 0.2393
H24 H 0.6545 0.3666 0.2795
N24 N 0.29649(19) 0.70790(13) 0.5301(3)
C24 C 0.5862(2) 0.43663(16) 0.2559(3)
H25 H 0.5928 0.4473 0.2132
C25 C 0.4063(3) 0.52672(18) 0.2570(4)
H26 H 0.4096 0.5126 0.2177
C26 C 0.3655(3) 0.5481(2) 0.2616(4)
H27 H 0.3412 0.5472 0.2273
C27 C 0.3608(3) 0.5708(2) 0.3168(4)
H28 H 0.3341 0.5860 0.3197
C28 C 0.4357(2) 0.54687(16) 0.3611(3)
H29 H 0.4592 0.5461 0.3965
C29 C 0.3966(2) 0.57051(16) 0.3678(3)
C30 C 0.3696(2) 0.62007(15) 0.4386(3)
C31 C 0.3861(2) 0.64068(15) 0.5042(3)
H30 H 0.4170 0.6526 0.4945
H31 H 0.3918 0.6245 0.5426
C32 C 0.3253(2) 0.68991(15) 0.4873(3)
H32 H 0.3283 0.6934 0.4394
O8 O 0.7568(3) 0.7260(2) 0.3952(3)
Co3 Co 0.7500 0.2500 0.0000
Co4 Co 0.2500 0.7500 0.5000
Co5 Co 0.2500 0.2500 0.0000
N25 N 0.6855(2) 0.77911(13) 0.4738(3)
N26 N 0.8145(2) 0.72089(13) 0.5262(3)
N27 N 0.79649(19) 0.79210(13) 0.4699(3)
C3 C 0.3561(3) 0.27858(18) 0.9869(4)
H2 H 0.3577 0.2635 0.9489
H3 H 0.4244 0.2986 0.9730
C19 C 0.6439(3) 0.27858(18) 0.9869(4)
H18 H 0.6423 0.2635 0.9489
H19 H 0.5756 0.2986 0.9730
Co3_2 Co 0.7500 0.2500 1.0000
Co5_2 Co 0.2500 0.2500 1.0000
N21_2 N 0.15068(19) 0.33406(12) 0.0244(3)
N22_2 N 0.1642(2) 0.33079(13) 0.0925(3)
N23_2 N 0.19647(19) 0.30544(14) 0.0949(3)
N24_2 N 0.20351(19) 0.29210(13) 0.0301(3)
C31_2 C 0.1139(2) 0.35932(15) 0.0042(3)
H31_2 H 0.1082 0.3755 0.0426
Co1_2 Co -0.0000 0.51211(3) 0.80238(6)
O1_2 O -0.0000 0.5148(2) 0.6908(4)
O2_2 O 0.0922(2) 0.61692(13) 0.6472(3)
N1_2 N 0.05354(19) 0.55292(13) 0.8021(3)
C1_2 C 0.1857(3) 0.69934(17) 0.5801(3)
H1_2 H 0.2140 0.6988 0.6078
O3_2 O -0.0000 0.51364(16) 0.9155(3)
C2_2 C 0.1470(2) 0.67750(17) 0.5987(4)
N2_2 N 0.0560(2) 0.57627(14) 0.8563(3)
N3_2 N 0.0888(2) 0.59979(15) 0.8430(3)
C3_2 C 0.1439(3) 0.72142(18) 0.4869(4)
H2_2 H 0.1423 0.7365 0.4489
N4_2 N 0.1083(2) 0.59204(14) 0.7807(3)
C4_2 C 0.1035(3) 0.70036(19) 0.5012(4)
H3_2 H 0.0756 0.7014 0.4730
N5_2 N 0.1539(2) 0.65683(15) 0.6590(3)
H4_2 H 0.1782 0.6625 0.6857
N6_2 N 0.1855(2) 0.72089(13) 0.5262(3)
C5_2 C 0.1050(3) 0.67800(19) 0.5572(4)
H6_2 H 0.0784 0.6635 0.5672
C6_2 C 0.1269(2) 0.62942(16) 0.6791(4)
C7_2 C 0.1460(3) 0.61443(18) 0.7480(4)
H7_2 H 0.1756 0.6009 0.7393
H8_2 H 0.1545 0.6334 0.7795
C8_2 C 0.0862(2) 0.56337(16) 0.7559(3)
H9_2 H 0.0928 0.5527 0.7132
O7_2 O 0.16551(19) 0.37078(13) 0.9041(3)
N19_2 N 0.0589(2) 0.47481(13) 0.8062(3)
N20_2 N 0.1008(2) 0.40742(14) 0.9264(3)
H21_2 H 0.0783 0.4119 0.9570
C25_2 C 0.0937(3) 0.47328(18) 0.7570(4)
H26_2 H 0.0904 0.4874 0.7177
C26_2 C 0.1345(3) 0.4519(2) 0.7616(4)
H27_2 H 0.1588 0.4528 0.7273
C27_2 C 0.1392(3) 0.4292(2) 0.8168(4)
H28_2 H 0.1659 0.4140 0.8197
C28_2 C 0.0643(2) 0.45313(16) 0.8611(3)
H29_2 H 0.0408 0.4539 0.8965
C29_2 C 0.1034(2) 0.42949(16) 0.8678(3)
C30_2 C 0.1304(2) 0.37993(15) 0.9386(3)
H30_2 H 0.0830 0.3474 0.9945
C32_2 C 0.1747(2) 0.31009(15) 0.9873(3)
H32_2 H 0.1717 0.3066 0.9394
H34 H -1.11022e-16 0.489424 0.934144
H35 H 0.0336849 0.509756 0.672968
O5_2 O 0.7568(3) 0.2260(2) 0.1048(3)
N9_2 N 0.84932(19) 0.33406(12) 0.0244(3)
N10_2 N 0.8358(2) 0.33079(13) 0.0925(3)
N11_2 N 0.80353(19) 0.30544(14) 0.0949(3)
N12_2 N 0.79649(19) 0.29210(13) 0.0301(3)
C15_2 C 0.8861(2) 0.35932(15) 0.0042(3)
H15_2 H 0.8918 0.3755 0.0426
Co1_3 Co 1.0000 0.51211(3) 0.80238(6)
O1_3 O 1.0000 0.5148(2) 0.6908(4)
O3_3 O 1.0000 0.51364(16) 0.9155(3)
O4_2 O 0.83449(19) 0.37078(13) 0.9041(3)
N7_2 N 0.9411(2) 0.47481(13) 0.8062(3)
N8_2 N 0.8992(2) 0.40742(14) 0.9264(3)
H5_2 H 0.9217 0.4119 0.9570
C9_2 C 0.9063(3) 0.47328(18) 0.7570(4)
H10_2 H 0.9096 0.4874 0.7177
C10_2 C 0.8655(3) 0.4519(2) 0.7616(4)
H11_2 H 0.8412 0.4528 0.7273
C11_2 C 0.8608(3) 0.4292(2) 0.8168(4)
H12_2 H 0.8341 0.4140 0.8197
C12_2 C 0.9357(2) 0.45313(16) 0.8611(3)
H13_2 H 0.9592 0.4539 0.8965
C13_2 C 0.8966(2) 0.42949(16) 0.8678(3)
C14_2 C 0.8696(2) 0.37993(15) 0.9386(3)
H14_2 H 0.9170 0.3474 0.9945
C16_2 C 0.8253(2) 0.31009(15) 0.9873(3)
H16_2 H 0.8283 0.3066 0.9394
O6_2 O 0.9078(2) 0.61692(13) 0.6472(3)
N13_2 N 0.94646(19) 0.55292(13) 0.8021(3)
C17_2 C 0.8143(3) 0.69934(17) 0.5801(3)
H17_2 H 0.7860 0.6988 0.6078
C18_2 C 0.8530(2) 0.67750(17) 0.5987(4)
N14_2 N 0.9440(2) 0.57627(14) 0.8563(3)
N15_2 N 0.9112(2) 0.59979(15) 0.8430(3)
C19_2 C 0.8561(3) 0.72142(18) 0.4869(4)
H18_2 H 0.8577 0.7365 0.4489
N16_2 N 0.8917(2) 0.59204(14) 0.7807(3)
C20_2 C 0.8965(3) 0.70036(19) 0.5012(4)
H19_2 H 0.9244 0.7014 0.4730
N17_2 N 0.8461(2) 0.65683(15) 0.6590(3)
H20_2 H 0.8218 0.6625 0.6857
C21_2 C 0.8950(3) 0.67800(19) 0.5572(4)
H22_2 H 0.9216 0.6635 0.5672
C22_2 C 0.8731(2) 0.62942(16) 0.6791(4)
C23_2 C 0.8540(3) 0.61443(18) 0.7480(4)
H23_2 H 0.8244 0.6009 0.7393
H24_2 H 0.8455 0.6334 0.7795
C24_2 C 0.9138(2) 0.56337(16) 0.7559(3)
H25_2 H 0.9072 0.5527 0.7132
O8_2 O 0.7432(3) 0.2740(2) 0.8952(3)
N25_2 N 0.8145(2) 0.22089(13) 0.9738(3)
N27_2 N 0.70351(19) 0.20790(13) 0.9699(3)
H33 H 0.970071 0.526099 0.932154
H34_2 H 1 0.489424 0.934144
H36 H 0.976468 0.497325 0.671766
C19_3 C 0.1439(3) 0.22142(18) 0.0131(4)
H18_3 H 0.1423 0.2365 0.0511
H19_3 H 0.0756 0.2014 0.0270
Co1_4 Co 0.0000 0.01211(3) 0.69762(6)
O1_4 O 0.0000 0.0148(2) 0.8092(4)
O3_4 O 0.0000 0.01364(16) 0.5845(3)
O6_3 O 0.0922(2) 0.11692(13) 0.8528(3)
N13_3 N 0.05354(19) 0.05292(13) 0.6979(3)
C17_3 C 0.1857(3) 0.19934(17) 0.9199(3)
H17_3 H 0.2140 0.1988 0.8922
C18_3 C 0.1470(2) 0.17750(17) 0.9013(4)
N14_3 N 0.0560(2) 0.07627(14) 0.6437(3)
N15_3 N 0.0888(2) 0.09979(15) 0.6570(3)
N16_3 N 0.1083(2) 0.09204(14) 0.7193(3)
C20_3 C 0.1035(3) 0.20036(19) 0.9988(4)
N17_3 N 0.1539(2) 0.15683(15) 0.8410(3)
H20_3 H 0.1782 0.1625 0.8143
N18_2 N 0.1855(2) 0.22089(13) 0.9738(3)
C21_3 C 0.1050(3) 0.17800(19) 0.9428(4)
H22_3 H 0.0784 0.1635 0.9328
C22_3 C 0.1269(2) 0.12942(16) 0.8209(4)
C23_3 C 0.1460(3) 0.11443(18) 0.7520(4)
H23_3 H 0.1756 0.1009 0.7607
H24_3 H 0.1545 0.1334 0.7205
C24_3 C 0.0862(2) 0.06337(16) 0.7441(3)
H25_3 H 0.0928 0.0527 0.7868
H33_2 H 0.0299292 0.0260995 0.567846
O4_3 O 0.16551(19) 0.87078(13) 0.5959(3)
O5_3 O 0.2432(3) 0.7260(2) 0.3952(3)
N7_3 N 0.0589(2) 0.97481(13) 0.6938(3)
N8_3 N 0.1008(2) 0.90742(14) 0.5736(3)
H5_3 H 0.0783 0.9119 0.5430
N9_3 N 0.15068(19) 0.83406(12) 0.4756(3)
N10_3 N 0.1642(2) 0.83079(13) 0.4075(3)
N11_3 N 0.19647(19) 0.80544(14) 0.4051(3)
N12_3 N 0.20351(19) 0.79210(13) 0.4699(3)
C9_3 C 0.0937(3) 0.97328(18) 0.7430(4)
H10_3 H 0.0904 0.9874 0.7823
C10_3 C 0.1345(3) 0.9519(2) 0.7384(4)
H11_3 H 0.1588 0.9528 0.7727
C11_3 C 0.1392(3) 0.9292(2) 0.6832(4)
H12_3 H 0.1659 0.9140 0.6803
C12_3 C 0.0643(2) 0.95313(16) 0.6389(3)
H13_3 H 0.0408 0.9539 0.6035
C13_3 C 0.1034(2) 0.92949(16) 0.6322(3)
C14_3 C 0.1304(2) 0.87993(15) 0.5614(3)
C15_3 C 0.1139(2) 0.85932(15) 0.4958(3)
H14_3 H 0.0830 0.8474 0.5055
H15_3 H 0.1082 0.8755 0.4574
C16_3 C 0.1747(2) 0.81009(15) 0.5127(3)
H16_3 H 0.1717 0.8066 0.5606
O8_3 O 0.2568(3) 0.7740(2) 0.6048(3)
N26_2 N 0.3145(2) 0.77911(13) 0.4738(3)
H34_3 H 1.11022e-16 0.989424 0.565856
H36_2 H 0.023532 0.997325 0.828234
C3_3 C 0.8561(3) 0.22142(18) 0.0131(4)
H2_3 H 0.8577 0.2365 0.0511
H3_3 H 0.9244 0.2014 0.0270
Co1_5 Co 1.0000 0.01211(3) 0.69762(6)
O1_5 O 1.0000 0.0148(2) 0.8092(4)
O2_3 O 0.9078(2) 0.11692(13) 0.8528(3)
N1_3 N 0.94646(19) 0.05292(13) 0.6979(3)
C1_3 C 0.8143(3) 0.19934(17) 0.9199(3)
H1_3 H 0.7860 0.1988 0.8922
O3_5 O 1.0000 0.01364(16) 0.5845(3)
C2_3 C 0.8530(2) 0.17750(17) 0.9013(4)
N2_3 N 0.9440(2) 0.07627(14) 0.6437(3)
N3_3 N 0.9112(2) 0.09979(15) 0.6570(3)
N4_3 N 0.8917(2) 0.09204(14) 0.7193(3)
C4_3 C 0.8965(3) 0.20036(19) 0.9988(4)
N5_3 N 0.8461(2) 0.15683(15) 0.8410(3)
H4_3 H 0.8218 0.1625 0.8143
C5_3 C 0.8950(3) 0.17800(19) 0.9428(4)
H6_3 H 0.9216 0.1635 0.9328
C6_3 C 0.8731(2) 0.12942(16) 0.8209(4)
C7_3 C 0.8540(3) 0.11443(18) 0.7520(4)
H7_3 H 0.8244 0.1009 0.7607
H8_3 H 0.8455 0.1334 0.7205
C8_3 C 0.9138(2) 0.06337(16) 0.7441(3)
H9_3 H 0.9072 0.0527 0.7868
H35_2 H 0.966315 0.00975649 0.827032
O7_3 O 0.83449(19) 0.87078(13) 0.5959(3)
N19_3 N 0.9411(2) 0.97481(13) 0.6938(3)
N20_3 N 0.8992(2) 0.90742(14) 0.5736(3)
H21_3 H 0.9217 0.9119 0.5430
N21_3 N 0.84932(19) 0.83406(12) 0.4756(3)
N22_3 N 0.8358(2) 0.83079(13) 0.4075(3)
N23_3 N 0.80353(19) 0.80544(14) 0.4051(3)
C25_3 C 0.9063(3) 0.97328(18) 0.7430(4)
H26_3 H 0.9096 0.9874 0.7823
C26_3 C 0.8655(3) 0.9519(2) 0.7384(4)
H27_3 H 0.8412 0.9528 0.7727
C27_3 C 0.8608(3) 0.9292(2) 0.6832(4)
H28_3 H 0.8341 0.9140 0.6803
C28_3 C 0.9357(2) 0.95313(16) 0.6389(3)
H29_3 H 0.9592 0.9539 0.6035
C29_3 C 0.8966(2) 0.92949(16) 0.6322(3)
C30_3 C 0.8696(2) 0.87993(15) 0.5614(3)
C31_3 C 0.8861(2) 0.85932(15) 0.4958(3)
H30_3 H 0.9170 0.8474 0.5055
H31_3 H 0.8918 0.8755 0.4574
C32_3 C 0.8253(2) 0.81009(15) 0.5127(3)
H32_3 H 0.8283 0.8066 0.5606
H34_4 H 1 0.989424 0.565856
O4_4 O 0.33449(19) 0.12922(13) 0.0959(3)
N7_4 N 0.4411(2) 0.02519(13) 0.1938(3)
N8_4 N 0.3992(2) 0.09258(14) 0.0736(3)
H5_4 H 0.4217 0.0881 0.0430
C9_4 C 0.4063(3) 0.02672(18) 0.2430(4)
H10_4 H 0.4096 0.0126 0.2823
C10_4 C 0.3655(3) 0.0481(2) 0.2384(4)
H11_4 H 0.3412 0.0472 0.2727
C11_4 C 0.3608(3) 0.0708(2) 0.1832(4)
H12_4 H 0.3341 0.0860 0.1803
C12_4 C 0.4357(2) 0.04687(16) 0.1389(3)
H13_4 H 0.4592 0.0461 0.1035
C13_4 C 0.3966(2) 0.07051(16) 0.1322(3)
C14_4 C 0.3696(2) 0.12007(15) 0.0614(3)
H14_4 H 0.4170 0.1526 0.0055
C16_4 C 0.3253(2) 0.18991(15) 0.0127(3)
H16_4 H 0.3283 0.1934 0.0606
O7_4 O 0.66551(19) 0.12922(13) 0.0959(3)
N19_4 N 0.5589(2) 0.02519(13) 0.1938(3)
N20_4 N 0.6008(2) 0.09258(14) 0.0736(3)
H21_4 H 0.5783 0.0881 0.0430
C25_4 C 0.5937(3) 0.02672(18) 0.2430(4)
H26_4 H 0.5904 0.0126 0.2823
C26_4 C 0.6345(3) 0.0481(2) 0.2384(4)
H27_4 H 0.6588 0.0472 0.2727
C27_4 C 0.6392(3) 0.0708(2) 0.1832(4)
H28_4 H 0.6659 0.0860 0.1803
C28_4 C 0.5643(2) 0.04687(16) 0.1389(3)
H29_4 H 0.5408 0.0461 0.1035
C29_4 C 0.6034(2) 0.07051(16) 0.1322(3)
C30_4 C 0.6304(2) 0.12007(15) 0.0614(3)
H30_4 H 0.5830 0.1526 0.0055
C32_4 C 0.6747(2) 0.18991(15) 0.0127(3)
H32_4 H 0.6717 0.1934 0.0606
O8_4 O 0.2432(3) 0.2260(2) 0.1048(3)
H34_5 H 0.5 0.0105762 0.0658558
H36_3 H 0.476468 0.00267507 0.328234
O5_4 O 0.2568(3) 0.2740(2) 0.8952(3)
N9_4 N 0.34932(19) 0.16594(12) 0.9756(3)
N10_4 N 0.3358(2) 0.16921(13) 0.9075(3)
N11_4 N 0.30353(19) 0.19456(14) 0.9051(3)
N12_4 N 0.29649(19) 0.20790(13) 0.9699(3)
C15_4 C 0.3861(2) 0.14068(15) 0.9958(3)
H15_4 H 0.3918 0.1245 0.9574
N21_4 N 0.65068(19) 0.16594(12) 0.9756(3)
N22_4 N 0.6642(2) 0.16921(13) 0.9075(3)
N23_4 N 0.69647(19) 0.19456(14) 0.9051(3)
C31_4 C 0.6139(2) 0.14068(15) 0.9958(3)
H31_4 H 0.6082 0.1245 0.9574
Co1_6 Co 0.5000 0.98789(3) 0.19762(6)
O1_6 O 0.5000 0.9852(2) 0.3092(4)
O2_4 O 0.5922(2) 0.88308(13) 0.3528(3)
N1_4 N 0.55354(19) 0.94708(13) 0.1979(3)
C1_4 C 0.6857(3) 0.80066(17) 0.4199(3)
H1_4 H 0.7140 0.8012 0.3922
O3_6 O 0.5000 0.98636(16) 0.0845(3)
C2_4 C 0.6470(2) 0.82250(17) 0.4013(4)
N2_4 N 0.5560(2) 0.92373(14) 0.1437(3)
N3_4 N 0.5888(2) 0.90021(15) 0.1570(3)
C3_4 C 0.6439(3) 0.77858(18) 0.5131(4)
H2_4 H 0.6423 0.7635 0.5511
N4_4 N 0.6083(2) 0.90796(14) 0.2193(3)
C4_4 C 0.6035(3) 0.79964(19) 0.4988(4)
H3_4 H 0.5756 0.7986 0.5270
N5_4 N 0.6539(2) 0.84317(15) 0.3410(3)
H4_4 H 0.6782 0.8375 0.3143
C5_4 C 0.6050(3) 0.82200(19) 0.4428(4)
H6_4 H 0.5784 0.8365 0.4328
C6_4 C 0.6269(2) 0.87058(16) 0.3209(4)
C7_4 C 0.6460(3) 0.88557(18) 0.2520(4)
H7_4 H 0.6756 0.8991 0.2607
H8_4 H 0.6545 0.8666 0.2205
C8_4 C 0.5862(2) 0.93663(16) 0.2441(3)
H9_4 H 0.5928 0.9473 0.2868
O6_4 O 0.4078(2) 0.88308(13) 0.3528(3)
N13_4 N 0.44646(19) 0.94708(13) 0.1979(3)
C17_4 C 0.3143(3) 0.80066(17) 0.4199(3)
H17_4 H 0.2860 0.8012 0.3922
C18_4 C 0.3530(2) 0.82250(17) 0.4013(4)
N14_4 N 0.4440(2) 0.92373(14) 0.1437(3)
N15_4 N 0.4112(2) 0.90021(15) 0.1570(3)
C19_4 C 0.3561(3) 0.77858(18) 0.5131(4)
H18_4 H 0.3577 0.7635 0.5511
N16_4 N 0.3917(2) 0.90796(14) 0.2193(3)
C20_4 C 0.3965(3) 0.79964(19) 0.4988(4)
H19_4 H 0.4244 0.7986 0.5270
N17_4 N 0.3461(2) 0.84317(15) 0.3410(3)
H20_4 H 0.3218 0.8375 0.3143
C21_4 C 0.3950(3) 0.82200(19) 0.4428(4)
H22_4 H 0.4216 0.8365 0.4328
C22_4 C 0.3731(2) 0.87058(16) 0.3209(4)
C23_4 C 0.3540(3) 0.88557(18) 0.2520(4)
H23_4 H 0.3244 0.8991 0.2607
H24_4 H 0.3455 0.8666 0.2205
C24_4 C 0.4138(2) 0.93663(16) 0.2441(3)
H25_4 H 0.4072 0.9473 0.2868
H33_3 H 0.470071 0.973901 0.0678464
H35_3 H 0.533685 0.990244 0.327032
H36_4 H 0.523532 0.00267507 0.328234
H33_4 H 0.529929 0.973901 0.0678464
H35_4 H 0.466315 0.990244 0.327032
H33_5 H 0.0299292 0.526099 0.932154
H36_5 H 0.023532 0.497325 0.671766
H35_5 H 0.966315 0.509756 0.672968
H35_6 H 0.0336849 0.00975649 0.827032
H33_6 H 0.970071 0.0260995 0.567846
H36_6 H 0.976468 0.997325 0.828234
Co1_7 Co 0.5000 0.01211(3) 0.80238(6)
O1_7 O 0.5000 0.0148(2) 0.6908(4)
O2_5 O 0.5922(2) 0.11692(13) 0.6472(3)
N1_5 N 0.55354(19) 0.05292(13) 0.8021(3)
C1_5 C 0.6857(3) 0.19934(17) 0.5801(3)
H1_5 H 0.7140 0.1988 0.6078
O3_7 O 0.5000 0.01364(16) 0.9155(3)
C2_5 C 0.6470(2) 0.17750(17) 0.5987(4)
N2_5 N 0.5560(2) 0.07627(14) 0.8563(3)
N3_5 N 0.5888(2) 0.09979(15) 0.8430(3)
C3_5 C 0.6439(3) 0.22142(18) 0.4869(4)
H2_5 H 0.6423 0.2365 0.4489
N4_5 N 0.6083(2) 0.09204(14) 0.7807(3)
C4_5 C 0.6035(3) 0.20036(19) 0.5012(4)
H3_5 H 0.5756 0.2014 0.4730
N5_5 N 0.6539(2) 0.15683(15) 0.6590(3)
H4_5 H 0.6782 0.1625 0.6857
N6_3 N 0.6855(2) 0.22089(13) 0.5262(3)
C5_5 C 0.6050(3) 0.17800(19) 0.5572(4)
H6_5 H 0.5784 0.1635 0.5672
C6_5 C 0.6269(2) 0.12942(16) 0.6791(4)
C7_5 C 0.6460(3) 0.11443(18) 0.7480(4)
H7_5 H 0.6756 0.1009 0.7393
H8_5 H 0.6545 0.1334 0.7795
C8_5 C 0.5862(2) 0.06337(16) 0.7559(3)
H9_5 H 0.5928 0.0527 0.7132
O6_5 O 0.4078(2) 0.11692(13) 0.6472(3)
N13_5 N 0.44646(19) 0.05292(13) 0.8021(3)
C17_5 C 0.3143(3) 0.19934(17) 0.5801(3)
H17_5 H 0.2860 0.1988 0.6078
C18_5 C 0.3530(2) 0.17750(17) 0.5987(4)
N14_5 N 0.4440(2) 0.07627(14) 0.8563(3)
N15_5 N 0.4112(2) 0.09979(15) 0.8430(3)
C19_5 C 0.3561(3) 0.22142(18) 0.4869(4)
H18_5 H 0.3577 0.2365 0.4489
N16_5 N 0.3917(2) 0.09204(14) 0.7807(3)
C20_5 C 0.3965(3) 0.20036(19) 0.5012(4)
H19_5 H 0.4244 0.2014 0.4730
N17_5 N 0.3461(2) 0.15683(15) 0.6590(3)
H20_5 H 0.3218 0.1625 0.6857
N18_3 N 0.3145(2) 0.22089(13) 0.5262(3)
C21_5 C 0.3950(3) 0.17800(19) 0.5572(4)
H22_5 H 0.4216 0.1635 0.5672
C22_5 C 0.3731(2) 0.12942(16) 0.6791(4)
C23_5 C 0.3540(3) 0.11443(18) 0.7480(4)
H23_5 H 0.3244 0.1009 0.7393
H24_5 H 0.3455 0.1334 0.7795
C24_5 C 0.4138(2) 0.06337(16) 0.7559(3)
H25_5 H 0.4072 0.0527 0.7132
Co3_3 Co 0.2500 0.2500 0.5000
Co5_3 Co 0.7500 0.2500 0.5000
H33_7 H 0.470071 0.0260995 0.932154
H35_7 H 0.533685 0.00975649 0.672968
Co2_2 Co 0.2500 0.7500 0.0000
O5_5 O 0.2568(3) 0.7260(2) 0.1048(3)
N9_5 N 0.34932(19) 0.83406(12) 0.0244(3)
N10_5 N 0.3358(2) 0.83079(13) 0.0925(3)
N11_5 N 0.30353(19) 0.80544(14) 0.0949(3)
N12_5 N 0.29649(19) 0.79210(13) 0.0301(3)
C15_5 C 0.3861(2) 0.85932(15) 0.0042(3)
H15_5 H 0.3918 0.8755 0.0426
N21_5 N 0.65068(19) 0.83406(12) 0.0244(3)
N22_5 N 0.6642(2) 0.83079(13) 0.0925(3)
N23_5 N 0.69647(19) 0.80544(14) 0.0949(3)
N24_3 N 0.70351(19) 0.79210(13) 0.0301(3)
C31_5 C 0.6139(2) 0.85932(15) 0.0042(3)
H31_5 H 0.6082 0.8755 0.0426
Co4_2 Co 0.7500 0.7500 0.0000
N26_3 N 0.1855(2) 0.77911(13) 0.0262(3)
Co2_3 Co 0.2500 0.7500 1.0000
O4_5 O 0.33449(19) 0.87078(13) 0.9041(3)
N7_5 N 0.4411(2) 0.97481(13) 0.8062(3)
N8_5 N 0.3992(2) 0.90742(14) 0.9264(3)
H5_5 H 0.4217 0.9119 0.9570
C9_5 C 0.4063(3) 0.97328(18) 0.7570(4)
H10_5 H 0.4096 0.9874 0.7177
C10_5 C 0.3655(3) 0.9519(2) 0.7616(4)
H11_5 H 0.3412 0.9528 0.7273
C11_5 C 0.3608(3) 0.9292(2) 0.8168(4)
H12_5 H 0.3341 0.9140 0.8197
C12_5 C 0.4357(2) 0.95313(16) 0.8611(3)
H13_5 H 0.4592 0.9539 0.8965
C13_5 C 0.3966(2) 0.92949(16) 0.8678(3)
C14_5 C 0.3696(2) 0.87993(15) 0.9386(3)
H14_5 H 0.4170 0.8474 0.9945
C16_5 C 0.3253(2) 0.81009(15) 0.9873(3)
H16_5 H 0.3283 0.8066 0.9394
O7_5 O 0.66551(19) 0.87078(13) 0.9041(3)
N19_5 N 0.5589(2) 0.97481(13) 0.8062(3)
N20_5 N 0.6008(2) 0.90742(14) 0.9264(3)
H21_5 H 0.5783 0.9119 0.9570
C25_5 C 0.5937(3) 0.97328(18) 0.7570(4)
H26_5 H 0.5904 0.9874 0.7177
C26_5 C 0.6345(3) 0.9519(2) 0.7616(4)
H27_5 H 0.6588 0.9528 0.7273
C27_5 C 0.6392(3) 0.9292(2) 0.8168(4)
H28_5 H 0.6659 0.9140 0.8197
C28_5 C 0.5643(2) 0.95313(16) 0.8611(3)
H29_5 H 0.5408 0.9539 0.8965
C29_5 C 0.6034(2) 0.92949(16) 0.8678(3)
C30_5 C 0.6304(2) 0.87993(15) 0.9386(3)
H30_5 H 0.5830 0.8474 0.9945
C32_5 C 0.6747(2) 0.81009(15) 0.9873(3)
H32_5 H 0.6717 0.8066 0.9394
O8_5 O 0.2432(3) 0.7740(2) 0.8952(3)
Co4_3 Co 0.7500 0.7500 1.0000
N25_3 N 0.3145(2) 0.72089(13) 0.9738(3)
N27_3 N 0.20351(19) 0.70790(13) 0.9699(3)
H34_6 H 0.5 0.989424 0.934144
H36_7 H 0.476468 0.997325 0.671766
C3_6 C 0.3561(3) 0.72142(18) 0.0131(4)
H2_6 H 0.3577 0.7365 0.0511
H3_6 H 0.4244 0.7014 0.0270
C19_6 C 0.6439(3) 0.72142(18) 0.0131(4)
H18_6 H 0.6423 0.7365 0.0511
H19_6 H 0.5756 0.7014 0.0270
Co1_8 Co 0.5000 0.51211(3) 0.69762(6)
O1_8 O 0.5000 0.5148(2) 0.8092(4)
O2_6 O 0.4078(2) 0.61692(13) 0.8528(3)
N1_6 N 0.44646(19) 0.55292(13) 0.6979(3)
C1_6 C 0.3143(3) 0.69934(17) 0.9199(3)
H1_6 H 0.2860 0.6988 0.8922
O3_8 O 0.5000 0.51364(16) 0.5845(3)
O4_6 O 0.66551(19) 0.37078(13) 0.5959(3)
C2_6 C 0.3530(2) 0.67750(17) 0.9013(4)
N2_6 N 0.4440(2) 0.57627(14) 0.6437(3)
N3_6 N 0.4112(2) 0.59979(15) 0.6570(3)
O5_6 O 0.7432(3) 0.2260(2) 0.3952(3)
N4_6 N 0.3917(2) 0.59204(14) 0.7193(3)
C4_6 C 0.3965(3) 0.70036(19) 0.9988(4)
N5_6 N 0.3461(2) 0.65683(15) 0.8410(3)
H4_6 H 0.3218 0.6625 0.8143
N7_6 N 0.5589(2) 0.47481(13) 0.6938(3)
N8_6 N 0.6008(2) 0.40742(14) 0.5736(3)
H5_6 H 0.5783 0.4119 0.5430
N9_6 N 0.65068(19) 0.33406(12) 0.4756(3)
C5_6 C 0.3950(3) 0.67800(19) 0.9428(4)
H6_6 H 0.4216 0.6635 0.9328
N10_6 N 0.6642(2) 0.33079(13) 0.4075(3)
C6_6 C 0.3731(2) 0.62942(16) 0.8209(4)
N11_6 N 0.69647(19) 0.30544(14) 0.4051(3)
C7_6 C 0.3540(3) 0.61443(18) 0.7520(4)
H7_6 H 0.3244 0.6009 0.7607
H8_6 H 0.3455 0.6334 0.7205
N12_6 N 0.70351(19) 0.29210(13) 0.4699(3)
C8_6 C 0.4138(2) 0.56337(16) 0.7441(3)
H9_6 H 0.4072 0.5527 0.7868
C9_6 C 0.5937(3) 0.47328(18) 0.7430(4)
H10_6 H 0.5904 0.4874 0.7823
C10_6 C 0.6345(3) 0.4519(2) 0.7384(4)
H11_6 H 0.6588 0.4528 0.7727
C11_6 C 0.6392(3) 0.4292(2) 0.6832(4)
H12_6 H 0.6659 0.4140 0.6803
C12_6 C 0.5643(2) 0.45313(16) 0.6389(3)
H13_6 H 0.5408 0.4539 0.6035
C13_6 C 0.6034(2) 0.42949(16) 0.6322(3)
C14_6 C 0.6304(2) 0.37993(15) 0.5614(3)
C15_6 C 0.6139(2) 0.35932(15) 0.4958(3)
H14_6 H 0.5830 0.3474 0.5055
H15_6 H 0.6082 0.3755 0.4574
C16_6 C 0.6747(2) 0.31009(15) 0.5127(3)
H16_6 H 0.6717 0.3066 0.5606
O6_6 O 0.5922(2) 0.61692(13) 0.8528(3)
N13_6 N 0.55354(19) 0.55292(13) 0.6979(3)
C17_6 C 0.6857(3) 0.69934(17) 0.9199(3)
H17_6 H 0.7140 0.6988 0.8922
O7_6 O 0.33449(19) 0.37078(13) 0.5959(3)
C18_6 C 0.6470(2) 0.67750(17) 0.9013(4)
N14_6 N 0.5560(2) 0.57627(14) 0.6437(3)
N15_6 N 0.5888(2) 0.59979(15) 0.6570(3)
N16_6 N 0.6083(2) 0.59204(14) 0.7193(3)
C20_6 C 0.6035(3) 0.70036(19) 0.9988(4)
N17_6 N 0.6539(2) 0.65683(15) 0.8410(3)
H20_6 H 0.6782 0.6625 0.8143
N18_4 N 0.6855(2) 0.72089(13) 0.9738(3)
N19_6 N 0.4411(2) 0.47481(13) 0.6938(3)
N20_6 N 0.3992(2) 0.40742(14) 0.5736(3)
H21_6 H 0.4217 0.4119 0.5430
N21_6 N 0.34932(19) 0.33406(12) 0.4756(3)
C21_6 C 0.6050(3) 0.67800(19) 0.9428(4)
H22_6 H 0.5784 0.6635 0.9328
N22_6 N 0.3358(2) 0.33079(13) 0.4075(3)
C22_6 C 0.6269(2) 0.62942(16) 0.8209(4)
N23_6 N 0.30353(19) 0.30544(14) 0.4051(3)
C23_6 C 0.6460(3) 0.61443(18) 0.7520(4)
H23_6 H 0.6756 0.6009 0.7607
H24_6 H 0.6545 0.6334 0.7205
N24_4 N 0.29649(19) 0.29210(13) 0.4699(3)
C24_6 C 0.5862(2) 0.56337(16) 0.7441(3)
H25_6 H 0.5928 0.5527 0.7868
C25_6 C 0.4063(3) 0.47328(18) 0.7430(4)
H26_6 H 0.4096 0.4874 0.7823
C26_6 C 0.3655(3) 0.4519(2) 0.7384(4)
H27_6 H 0.3412 0.4528 0.7727
C27_6 C 0.3608(3) 0.4292(2) 0.6832(4)
H28_6 H 0.3341 0.4140 0.6803
C28_6 C 0.4357(2) 0.45313(16) 0.6389(3)
H29_6 H 0.4592 0.4539 0.6035
C29_6 C 0.3966(2) 0.42949(16) 0.6322(3)
C30_6 C 0.3696(2) 0.37993(15) 0.5614(3)
C31_6 C 0.3861(2) 0.35932(15) 0.4958(3)
H30_6 H 0.4170 0.3474 0.5055
H31_6 H 0.3918 0.3755 0.4574
C32_6 C 0.3253(2) 0.31009(15) 0.5127(3)
H32_6 H 0.3283 0.3066 0.5606
O8_6 O 0.7568(3) 0.2740(2) 0.6048(3)
N26_4 N 0.8145(2) 0.27911(13) 0.4738(3)
N27_4 N 0.79649(19) 0.20790(13) 0.5301(3)
Co1_9 Co -0.0000 0.48789(3) 0.19762(6)
O1_9 O -0.0000 0.4852(2) 0.3092(4)
O2_7 O 0.0922(2) 0.38308(13) 0.3528(3)
N1_7 N 0.05354(19) 0.44708(13) 0.1979(3)
C1_7 C 0.1857(3) 0.30066(17) 0.4199(3)
H1_7 H 0.2140 0.3012 0.3922
O3_9 O -0.0000 0.48636(16) 0.0845(3)
C2_7 C 0.1470(2) 0.32250(17) 0.4013(4)
N2_7 N 0.0560(2) 0.42373(14) 0.1437(3)
N3_7 N 0.0888(2) 0.40021(15) 0.1570(3)
C3_7 C 0.1439(3) 0.27858(18) 0.5131(4)
H2_7 H 0.1423 0.2635 0.5511
N4_7 N 0.1083(2) 0.40796(14) 0.2193(3)
C4_7 C 0.1035(3) 0.29964(19) 0.4988(4)
H3_7 H 0.0756 0.2986 0.5270
N5_7 N 0.1539(2) 0.34317(15) 0.3410(3)
H4_7 H 0.1782 0.3375 0.3143
N6_4 N 0.1855(2) 0.27911(13) 0.4738(3)
C5_7 C 0.1050(3) 0.32200(19) 0.4428(4)
H6_7 H 0.0784 0.3365 0.4328
C6_7 C 0.1269(2) 0.37058(16) 0.3209(4)
C7_7 C 0.1460(3) 0.38557(18) 0.2520(4)
H7_7 H 0.1756 0.3991 0.2607
H8_7 H 0.1545 0.3666 0.2205
C8_7 C 0.0862(2) 0.43663(16) 0.2441(3)
H9_7 H 0.0928 0.4473 0.2868
O7_7 O 0.16551(19) 0.62922(13) 0.0959(3)
N19_7 N 0.0589(2) 0.52519(13) 0.1938(3)
N20_7 N 0.1008(2) 0.59258(14) 0.0736(3)
H21_7 H 0.0783 0.5881 0.0430
C25_7 C 0.0937(3) 0.52672(18) 0.2430(4)
H26_7 H 0.0904 0.5126 0.2823
C26_7 C 0.1345(3) 0.5481(2) 0.2384(4)
H27_7 H 0.1588 0.5472 0.2727
C27_7 C 0.1392(3) 0.5708(2) 0.1832(4)
H28_7 H 0.1659 0.5860 0.1803
C28_7 C 0.0643(2) 0.54687(16) 0.1389(3)
H29_7 H 0.0408 0.5461 0.1035
C29_7 C 0.1034(2) 0.57051(16) 0.1322(3)
C30_7 C 0.1304(2) 0.62007(15) 0.0614(3)
H30_7 H 0.0830 0.6526 0.0055
C32_7 C 0.1747(2) 0.68991(15) 0.0127(3)
H32_7 H 0.1717 0.6934 0.0606
H34_7 H -1.11022e-16 0.510576 0.0658558
H35_8 H 0.0336849 0.490244 0.327032
N21_7 N 0.15068(19) 0.66594(12) 0.9756(3)
N22_7 N 0.1642(2) 0.66921(13) 0.9075(3)
N23_7 N 0.19647(19) 0.69456(14) 0.9051(3)
C31_7 C 0.1139(2) 0.64068(15) 0.9958(3)
H31_7 H 0.1082 0.6245 0.9574
Co1_10 Co 1.0000 0.48789(3) 0.19762(6)
O1_10 O 1.0000 0.4852(2) 0.3092(4)
O3_10 O 1.0000 0.48636(16) 0.0845(3)
O4_7 O 0.83449(19) 0.62922(13) 0.0959(3)
N7_7 N 0.9411(2) 0.52519(13) 0.1938(3)
N8_7 N 0.8992(2) 0.59258(14) 0.0736(3)
H5_7 H 0.9217 0.5881 0.0430
C9_7 C 0.9063(3) 0.52672(18) 0.2430(4)
H10_7 H 0.9096 0.5126 0.2823
C10_7 C 0.8655(3) 0.5481(2) 0.2384(4)
H11_7 H 0.8412 0.5472 0.2727
C11_7 C 0.8608(3) 0.5708(2) 0.1832(4)
H12_7 H 0.8341 0.5860 0.1803
C12_7 C 0.9357(2) 0.54687(16) 0.1389(3)
H13_7 H 0.9592 0.5461 0.1035
C13_7 C 0.8966(2) 0.57051(16) 0.1322(3)
C14_7 C 0.8696(2) 0.62007(15) 0.0614(3)
H14_7 H 0.9170 0.6526 0.0055
C16_7 C 0.8253(2) 0.68991(15) 0.0127(3)
H16_7 H 0.8283 0.6934 0.0606
O6_7 O 0.9078(2) 0.38308(13) 0.3528(3)
N13_7 N 0.94646(19) 0.44708(13) 0.1979(3)
C17_7 C 0.8143(3) 0.30066(17) 0.4199(3)
H17_7 H 0.7860 0.3012 0.3922
C18_7 C 0.8530(2) 0.32250(17) 0.4013(4)
N14_7 N 0.9440(2) 0.42373(14) 0.1437(3)
N15_7 N 0.9112(2) 0.40021(15) 0.1570(3)
C19_7 C 0.8561(3) 0.27858(18) 0.5131(4)
H18_7 H 0.8577 0.2635 0.5511
N16_7 N 0.8917(2) 0.40796(14) 0.2193(3)
C20_7 C 0.8965(3) 0.29964(19) 0.4988(4)
H19_7 H 0.9244 0.2986 0.5270
N17_7 N 0.8461(2) 0.34317(15) 0.3410(3)
H20_7 H 0.8218 0.3375 0.3143
C21_7 C 0.8950(3) 0.32200(19) 0.4428(4)
H22_7 H 0.9216 0.3365 0.4328
C22_7 C 0.8731(2) 0.37058(16) 0.3209(4)
C23_7 C 0.8540(3) 0.38557(18) 0.2520(4)
H23_7 H 0.8244 0.3991 0.2607
H24_7 H 0.8455 0.3666 0.2205
C24_7 C 0.9138(2) 0.43663(16) 0.2441(3)
H25_7 H 0.9072 0.4473 0.2868
O8_7 O 0.7432(3) 0.7260(2) 0.1048(3)
N25_4 N 0.8145(2) 0.77911(13) 0.0262(3)
H33_8 H 0.970071 0.473901 0.0678464
H34_8 H 1 0.510576 0.0658558
H36_8 H 0.976468 0.502675 0.328234
O5_7 O 0.7568(3) 0.7740(2) 0.8952(3)
N9_7 N 0.84932(19) 0.66594(12) 0.9756(3)
N10_7 N 0.8358(2) 0.66921(13) 0.9075(3)
N11_7 N 0.80353(19) 0.69456(14) 0.9051(3)
N12_7 N 0.79649(19) 0.70790(13) 0.9699(3)
C15_7 C 0.8861(2) 0.64068(15) 0.9958(3)
H15_7 H 0.8918 0.6245 0.9574
O4_8 O 0.16551(19) 0.12922(13) 0.4041(3)
O5_8 O 0.2432(3) 0.2740(2) 0.6048(3)
N7_8 N 0.0589(2) 0.02519(13) 0.3062(3)
N8_8 N 0.1008(2) 0.09258(14) 0.4264(3)
H5_8 H 0.0783 0.0881 0.4570
N9_8 N 0.15068(19) 0.16594(12) 0.5244(3)
N10_8 N 0.1642(2) 0.16921(13) 0.5925(3)
N11_8 N 0.19647(19) 0.19456(14) 0.5949(3)
N12_8 N 0.20351(19) 0.20790(13) 0.5301(3)
C9_8 C 0.0937(3) 0.02672(18) 0.2570(4)
H10_8 H 0.0904 0.0126 0.2177
C10_8 C 0.1345(3) 0.0481(2) 0.2616(4)
H11_8 H 0.1588 0.0472 0.2273
C11_8 C 0.1392(3) 0.0708(2) 0.3168(4)
H12_8 H 0.1659 0.0860 0.3197
C12_8 C 0.0643(2) 0.04687(16) 0.3611(3)
H13_8 H 0.0408 0.0461 0.3965
C13_8 C 0.1034(2) 0.07051(16) 0.3678(3)
C14_8 C 0.1304(2) 0.12007(15) 0.4386(3)
C15_8 C 0.1139(2) 0.14068(15) 0.5042(3)
H14_8 H 0.0830 0.1526 0.4945
H15_8 H 0.1082 0.1245 0.5426
C16_8 C 0.1747(2) 0.18991(15) 0.4873(3)
H16_8 H 0.1717 0.1934 0.4394
O8_8 O 0.2568(3) 0.2260(2) 0.3952(3)
H34_9 H 1.11022e-16 0.0105762 0.434144
H36_9 H 0.023532 0.00267507 0.171766
Co1_11 Co 0.0000 0.98789(3) 0.30238(6)
O1_11 O 0.0000 0.9852(2) 0.1908(4)
O3_11 O 0.0000 0.98636(16) 0.4155(3)
O6_8 O 0.0922(2) 0.88308(13) 0.1472(3)
N13_8 N 0.05354(19) 0.94708(13) 0.3021(3)
C17_8 C 0.1857(3) 0.80066(17) 0.0801(3)
H17_8 H 0.2140 0.8012 0.1078
C18_8 C 0.1470(2) 0.82250(17) 0.0987(4)
N14_8 N 0.0560(2) 0.92373(14) 0.3563(3)
N15_8 N 0.0888(2) 0.90021(15) 0.3430(3)
N16_8 N 0.1083(2) 0.90796(14) 0.2807(3)
C20_8 C 0.1035(3) 0.79964(19) 0.0012(4)
N17_8 N 0.1539(2) 0.84317(15) 0.1590(3)
H20_8 H 0.1782 0.8375 0.1857
C21_8 C 0.1050(3) 0.82200(19) 0.0572(4)
H22_8 H 0.0784 0.8365 0.0672
C22_8 C 0.1269(2) 0.87058(16) 0.1791(4)
C23_8 C 0.1460(3) 0.88557(18) 0.2480(4)
H23_8 H 0.1756 0.8991 0.2393
H24_8 H 0.1545 0.8666 0.2795
C24_8 C 0.0862(2) 0.93663(16) 0.2559(3)
H25_8 H 0.0928 0.9473 0.2132
H33_9 H 0.0299292 0.973901 0.432154
C19_8 C 0.1439(3) 0.77858(18) 0.9869(4)
H18_8 H 0.1423 0.7635 0.9489
H19_8 H 0.0756 0.7986 0.9730
O7_8 O 0.83449(19) 0.12922(13) 0.4041(3)
N19_8 N 0.9411(2) 0.02519(13) 0.3062(3)
N20_8 N 0.8992(2) 0.09258(14) 0.4264(3)
H21_8 H 0.9217 0.0881 0.4570
N21_8 N 0.84932(19) 0.16594(12) 0.5244(3)
N22_8 N 0.8358(2) 0.16921(13) 0.5925(3)
N23_8 N 0.80353(19) 0.19456(14) 0.5949(3)
C25_8 C 0.9063(3) 0.02672(18) 0.2570(4)
H26_8 H 0.9096 0.0126 0.2177
C26_8 C 0.8655(3) 0.0481(2) 0.2616(4)
H27_8 H 0.8412 0.0472 0.2273
C27_8 C 0.8608(3) 0.0708(2) 0.3168(4)
H28_8 H 0.8341 0.0860 0.3197
C28_8 C 0.9357(2) 0.04687(16) 0.3611(3)
H29_8 H 0.9592 0.0461 0.3965
C29_8 C 0.8966(2) 0.07051(16) 0.3678(3)
C30_8 C 0.8696(2) 0.12007(15) 0.4386(3)
C31_8 C 0.8861(2) 0.14068(15) 0.5042(3)
H30_8 H 0.9170 0.1526 0.4945
H31_8 H 0.8918 0.1245 0.5426
C32_8 C 0.8253(2) 0.18991(15) 0.4873(3)
H32_8 H 0.8283 0.1934 0.4394
H34_10 H 1 0.0105762 0.434144
Co1_12 Co 1.0000 0.98789(3) 0.30238(6)
O1_12 O 1.0000 0.9852(2) 0.1908(4)
O2_8 O 0.9078(2) 0.88308(13) 0.1472(3)
N1_8 N 0.94646(19) 0.94708(13) 0.3021(3)
C1_8 C 0.8143(3) 0.80066(17) 0.0801(3)
H1_8 H 0.7860 0.8012 0.1078
O3_12 O 1.0000 0.98636(16) 0.4155(3)
C2_8 C 0.8530(2) 0.82250(17) 0.0987(4)
N2_8 N 0.9440(2) 0.92373(14) 0.3563(3)
N3_8 N 0.9112(2) 0.90021(15) 0.3430(3)
N4_8 N 0.8917(2) 0.90796(14) 0.2807(3)
C4_8 C 0.8965(3) 0.79964(19) 0.0012(4)
N5_8 N 0.8461(2) 0.84317(15) 0.1590(3)
H4_8 H 0.8218 0.8375 0.1857
C5_8 C 0.8950(3) 0.82200(19) 0.0572(4)
H6_8 H 0.9216 0.8365 0.0672
C6_8 C 0.8731(2) 0.87058(16) 0.1791(4)
C7_8 C 0.8540(3) 0.88557(18) 0.2480(4)
H7_8 H 0.8244 0.8991 0.2393
H8_8 H 0.8455 0.8666 0.2795
C8_8 C 0.9138(2) 0.93663(16) 0.2559(3)
H9_8 H 0.9072 0.9473 0.2132
H35_9 H 0.966315 0.990244 0.172968
C3_8 C 0.8561(3) 0.77858(18) 0.9869(4)
H2_8 H 0.8577 0.7635 0.9489
H3_8 H 0.9244 0.7986 0.9730
H33_10 H 0.0299292 0.473901 0.0678464
H36_10 H 0.023532 0.502675 0.328234
H35_10 H 0.966315 0.490244 0.327032
H35_11 H 0.0336849 0.990244 0.172968
H36_11 H 0.976468 0.00267507 0.171766
H33_11 H 0.970071 0.973901 0.432154
H33_12 H 0.529929 0.0260995 0.932154
H35_12 H 0.466315 0.00975649 0.672968
H36_12 H 0.523532 0.997325 0.671766
O9 O 0.68185(15) 0.52109(10) 0.4492(2)
O10 O 0.60328(16) 0.47073(11) 0.4541(2)
O11 O 0.68278(16) 0.42388(10) 0.4514(2)
Mo1 Mo 0.66461(2) 0.470886(13) 0.43369(3)
O12 O 0.75042(19) 0.41045(12) 0.3459(2)
Mo2 Mo 0.75032(2) 0.410782(14) 0.43540(3)
O13 O 0.75308(19) 0.36827(11) 0.4599(2)
Mo3 Mo 0.750758(19) 0.470359(13) 0.57202(3)
O14 O 0.81809(17) 0.42407(11) 0.4505(3)
Mo4 Mo 0.83618(2) 0.471109(15) 0.43200(3)
O15 O 0.8336(2) 0.47138(13) 0.3430(3)
O16 O 0.89762(19) 0.47045(15) 0.4518(3)
O17 O 0.82050(16) 0.52133(11) 0.4483(2)
O18 O 0.75140(16) 0.42619(11) 0.5509(2)
O19 O 0.75111(19) 0.47091(12) 0.6606(2)
O20 O 0.66737(18) 0.47178(12) 0.3449(2)
O21 O 0.75142(15) 0.47418(11) 0.4472(2)
O22 O 0.68185(15) 0.47891(10) 0.5508(2)
O23 O 0.60328(16) 0.52927(11) 0.5459(2)
O24 O 0.68278(16) 0.57612(10) 0.5486(2)
Mo5 Mo 0.66461(2) 0.529114(13) 0.56631(3)
O25 O 0.75042(19) 0.58955(12) 0.6541(2)
Mo6 Mo 0.75032(2) 0.589218(14) 0.56460(3)
O26 O 0.75308(19) 0.63173(11) 0.5401(2)
Mo7 Mo 0.750758(19) 0.529641(13) 0.42798(3)
O27 O 0.81809(17) 0.57593(11) 0.5495(3)
Mo8 Mo 0.83618(2) 0.528891(15) 0.56800(3)
O28 O 0.8336(2) 0.52862(13) 0.6570(3)
O29 O 0.89762(19) 0.52955(15) 0.5482(3)
O30 O 0.82050(16) 0.47867(11) 0.5517(2)
O31 O 0.75140(16) 0.57381(11) 0.4491(2)
O32 O 0.75111(19) 0.52909(12) 0.3394(2)
O33 O 0.66737(18) 0.52822(12) 0.6551(2)
O34 O 0.75142(15) 0.52582(11) 0.5528(2)
Mo3_2 Mo 0.249242(19) 0.029641(13) 0.07202(3)
O18_2 O 0.24860(16) 0.07381(11) 0.0509(2)
O19_2 O 0.24889(19) 0.02909(12) 0.1606(2)
O22_2 O 0.31815(15) 0.02109(10) 0.0508(2)
O30_2 O 0.17950(16) 0.02133(11) 0.0517(2)
O10_2 O 0.39672(16) 0.02927(11) 0.9541(2)
O11_2 O 0.31722(16) 0.07612(10) 0.9514(2)
Mo1_2 Mo 0.33539(2) 0.029114(13) 0.93369(3)
O12_2 O 0.24958(19) 0.08955(12) 0.8459(2)
Mo2_2 Mo 0.24968(2) 0.089218(14) 0.93540(3)
O13_2 O 0.24692(19) 0.13173(11) 0.9599(2)
O14_2 O 0.18191(17) 0.07593(11) 0.9505(3)
Mo4_2 Mo 0.16382(2) 0.028891(15) 0.93200(3)
O15_2 O 0.1664(2) 0.02862(13) 0.8430(3)
O16_2 O 0.10238(19) 0.02955(15) 0.9518(3)
O20_2 O 0.33263(18) 0.02822(12) 0.8449(2)
O21_2 O 0.24858(15) 0.02582(11) 0.9472(2)
O23_2 O 0.39672(16) 0.97073(11) 0.0459(2)
O24_2 O 0.31722(16) 0.92388(10) 0.0486(2)
Mo5_2 Mo 0.33539(2) 0.970886(13) 0.06631(3)
O25_2 O 0.24958(19) 0.91045(12) 0.1541(2)
Mo6_2 Mo 0.24968(2) 0.910782(14) 0.06460(3)
O26_2 O 0.24692(19) 0.86827(11) 0.0401(2)
O27_2 O 0.18191(17) 0.92407(11) 0.0495(3)
Mo8_2 Mo 0.16382(2) 0.971109(15) 0.06800(3)
O28_2 O 0.1664(2) 0.97138(13) 0.1570(3)
O29_2 O 0.10238(19) 0.97045(15) 0.0482(3)
O33_2 O 0.33263(18) 0.97178(12) 0.1551(2)
O34_2 O 0.24858(15) 0.97418(11) 0.0528(2)
O9_2 O 0.31815(15) 0.97891(10) 0.9492(2)
O17_2 O 0.17950(16) 0.97867(11) 0.9483(2)
Mo7_2 Mo 0.249242(19) 0.970359(13) 0.92798(3)
O31_2 O 0.24860(16) 0.92619(11) 0.9491(2)
O32_2 O 0.24889(19) 0.97091(12) 0.8394(2)
O9_3 O 0.81815(15) 0.52109(10) 0.0508(2)
O10_3 O 0.89672(16) 0.47073(11) 0.0459(2)
O11_3 O 0.81722(16) 0.42388(10) 0.0486(2)
Mo1_3 Mo 0.83539(2) 0.470886(13) 0.06631(3)
O12_3 O 0.74958(19) 0.41045(12) 0.1541(2)
Mo2_3 Mo 0.74968(2) 0.410782(14) 0.06460(3)
O13_3 O 0.74692(19) 0.36827(11) 0.0401(2)
O14_3 O 0.68191(17) 0.42407(11) 0.0495(3)
Mo4_3 Mo 0.66382(2) 0.471109(15) 0.06800(3)
O15_3 O 0.6664(2) 0.47138(13) 0.1570(3)
O16_3 O 0.60238(19) 0.47045(15) 0.0482(3)
O17_3 O 0.67950(16) 0.52133(11) 0.0517(2)
O20_3 O 0.83263(18) 0.47178(12) 0.1551(2)
O21_3 O 0.74858(15) 0.47418(11) 0.0528(2)
Mo7_3 Mo 0.749242(19) 0.529641(13) 0.07202(3)
O31_3 O 0.74860(16) 0.57381(11) 0.0509(2)
O32_3 O 0.74889(19) 0.52909(12) 0.1606(2)
Mo3_3 Mo 0.749242(19) 0.470359(13) 0.92798(3)
O18_3 O 0.74860(16) 0.42619(11) 0.9491(2)
O19_3 O 0.74889(19) 0.47091(12) 0.8394(2)
O22_3 O 0.81815(15) 0.47891(10) 0.9492(2)
O23_3 O 0.89672(16) 0.52927(11) 0.9541(2)
O24_3 O 0.81722(16) 0.57612(10) 0.9514(2)
Mo5_3 Mo 0.83539(2) 0.529114(13) 0.93369(3)
O25_3 O 0.74958(19) 0.58955(12) 0.8459(2)
Mo6_3 Mo 0.74968(2) 0.589218(14) 0.93540(3)
O26_3 O 0.74692(19) 0.63173(11) 0.9599(2)
O27_3 O 0.68191(17) 0.57593(11) 0.9505(3)
Mo8_3 Mo 0.66382(2) 0.528891(15) 0.93200(3)
O28_3 O 0.6664(2) 0.52862(13) 0.8430(3)
O29_3 O 0.60238(19) 0.52955(15) 0.9518(3)
O30_3 O 0.67950(16) 0.47867(11) 0.9483(2)
O33_3 O 0.83263(18) 0.52822(12) 0.8449(2)
O34_3 O 0.74858(15) 0.52582(11) 0.9472(2)
O9_4 O 0.18185(15) 0.02109(10) 0.4492(2)
O17_4 O 0.32050(16) 0.02133(11) 0.4483(2)
O23_4 O 0.10328(16) 0.02927(11) 0.5459(2)
O24_4 O 0.18278(16) 0.07612(10) 0.5486(2)
Mo5_4 Mo 0.16461(2) 0.029114(13) 0.56631(3)
O25_4 O 0.25042(19) 0.08955(12) 0.6541(2)
Mo6_4 Mo 0.25032(2) 0.089218(14) 0.56460(3)
O26_4 O 0.25308(19) 0.13173(11) 0.5401(2)
Mo7_4 Mo 0.250758(19) 0.029641(13) 0.42798(3)
O27_4 O 0.31809(17) 0.07593(11) 0.5495(3)
Mo8_4 Mo 0.33618(2) 0.028891(15) 0.56800(3)
O28_4 O 0.3336(2) 0.02862(13) 0.6570(3)
O29_4 O 0.39762(19) 0.02955(15) 0.5482(3)
O31_4 O 0.25140(16) 0.07381(11) 0.4491(2)
O32_4 O 0.25111(19) 0.02909(12) 0.3394(2)
O33_4 O 0.16737(18) 0.02822(12) 0.6551(2)
O34_4 O 0.25142(15) 0.02582(11) 0.5528(2)
O10_4 O 0.10328(16) 0.97073(11) 0.4541(2)
O11_4 O 0.18278(16) 0.92388(10) 0.4514(2)
Mo1_4 Mo 0.16461(2) 0.970886(13) 0.43369(3)
O12_4 O 0.25042(19) 0.91045(12) 0.3459(2)
Mo2_4 Mo 0.25032(2) 0.910782(14) 0.43540(3)
O13_4 O 0.25308(19) 0.86827(11) 0.4599(2)
Mo3_4 Mo 0.250758(19) 0.970359(13) 0.57202(3)
O14_4 O 0.31809(17) 0.92407(11) 0.4505(3)
Mo4_4 Mo 0.33618(2) 0.971109(15) 0.43200(3)
O15_4 O 0.3336(2) 0.97138(13) 0.3430(3)
O16_4 O 0.39762(19) 0.97045(15) 0.4518(3)
O18_4 O 0.25140(16) 0.92619(11) 0.5509(2)
O19_4 O 0.25111(19) 0.97091(12) 0.6606(2)
O20_4 O 0.16737(18) 0.97178(12) 0.3449(2)
O21_4 O 0.25142(15) 0.97418(11) 0.4472(2)
O22_4 O 0.18185(15) 0.97891(10) 0.5508(2)
O30_4 O 0.32050(16) 0.97867(11) 0.5517(2)
O9_5 O 0.31815(15) 0.47891(10) 0.5508(2)
O10_5 O 0.39672(16) 0.52927(11) 0.5459(2)
O11_5 O 0.31722(16) 0.57612(10) 0.5486(2)
Mo1_5 Mo 0.33539(2) 0.529114(13) 0.56631(3)
O12_5 O 0.24958(19) 0.58955(12) 0.6541(2)
Mo2_5 Mo 0.24968(2) 0.589218(14) 0.56460(3)
O13_5 O 0.24692(19) 0.63173(11) 0.5401(2)
Mo3_5 Mo 0.249242(19) 0.529641(13) 0.42798(3)
O14_5 O 0.18191(17) 0.57593(11) 0.5495(3)
Mo4_5 Mo 0.16382(2) 0.528891(15) 0.56800(3)
O15_5 O 0.1664(2) 0.52862(13) 0.6570(3)
O16_5 O 0.10238(19) 0.52955(15) 0.5482(3)
O17_5 O 0.17950(16) 0.47867(11) 0.5517(2)
O18_5 O 0.24860(16) 0.57381(11) 0.4491(2)
O19_5 O 0.24889(19) 0.52909(12) 0.3394(2)
O20_5 O 0.33263(18) 0.52822(12) 0.6551(2)
O21_5 O 0.24858(15) 0.52582(11) 0.5528(2)
O22_5 O 0.31815(15) 0.52109(10) 0.4492(2)
O23_5 O 0.39672(16) 0.47073(11) 0.4541(2)
O24_5 O 0.31722(16) 0.42388(10) 0.4514(2)
Mo5_5 Mo 0.33539(2) 0.470886(13) 0.43369(3)
O25_5 O 0.24958(19) 0.41045(12) 0.3459(2)
Mo6_5 Mo 0.24968(2) 0.410782(14) 0.43540(3)
O26_5 O 0.24692(19) 0.36827(11) 0.4599(2)
Mo7_5 Mo 0.249242(19) 0.470359(13) 0.57202(3)
O27_5 O 0.18191(17) 0.42407(11) 0.4505(3)
Mo8_5 Mo 0.16382(2) 0.471109(15) 0.43200(3)
O28_5 O 0.1664(2) 0.47138(13) 0.3430(3)
O29_5 O 0.10238(19) 0.47045(15) 0.4518(3)
O30_5 O 0.17950(16) 0.52133(11) 0.4483(2)
O31_5 O 0.24860(16) 0.42619(11) 0.5509(2)
O32_5 O 0.24889(19) 0.47091(12) 0.6606(2)
O33_5 O 0.33263(18) 0.47178(12) 0.3449(2)
O34_5 O 0.24858(15) 0.47418(11) 0.4472(2)
O9_6 O 0.68185(15) 0.02109(10) 0.0508(2)
O17_6 O 0.82050(16) 0.02133(11) 0.0517(2)
Mo7_6 Mo 0.750758(19) 0.029641(13) 0.07202(3)
O31_6 O 0.75140(16) 0.07381(11) 0.0509(2)
O32_6 O 0.75111(19) 0.02909(12) 0.1606(2)
O23_6 O 0.60328(16) 0.02927(11) 0.9541(2)
O24_6 O 0.68278(16) 0.07612(10) 0.9514(2)
Mo5_6 Mo 0.66461(2) 0.029114(13) 0.93369(3)
O25_6 O 0.75042(19) 0.08955(12) 0.8459(2)
Mo6_6 Mo 0.75032(2) 0.089218(14) 0.93540(3)
O26_6 O 0.75308(19) 0.13173(11) 0.9599(2)
O27_6 O 0.81809(17) 0.07593(11) 0.9505(3)
Mo8_6 Mo 0.83618(2) 0.028891(15) 0.93200(3)
O28_6 O 0.8336(2) 0.02862(13) 0.8430(3)
O29_6 O 0.89762(19) 0.02955(15) 0.9518(3)
O33_6 O 0.66737(18) 0.02822(12) 0.8449(2)
O34_6 O 0.75142(15) 0.02582(11) 0.9472(2)
O10_6 O 0.60328(16) 0.97073(11) 0.0459(2)
O11_6 O 0.68278(16) 0.92388(10) 0.0486(2)
Mo1_6 Mo 0.66461(2) 0.970886(13) 0.06631(3)
O12_6 O 0.75042(19) 0.91045(12) 0.1541(2)
Mo2_6 Mo 0.75032(2) 0.910782(14) 0.06460(3)
O13_6 O 0.75308(19) 0.86827(11) 0.0401(2)
O14_6 O 0.81809(17) 0.92407(11) 0.0495(3)
Mo4_6 Mo 0.83618(2) 0.971109(15) 0.06800(3)
O15_6 O 0.8336(2) 0.97138(13) 0.1570(3)
O16_6 O 0.89762(19) 0.97045(15) 0.0482(3)
O20_6 O 0.66737(18) 0.97178(12) 0.1551(2)
O21_6 O 0.75142(15) 0.97418(11) 0.0528(2)
Mo3_6 Mo 0.750758(19) 0.970359(13) 0.92798(3)
O18_6 O 0.75140(16) 0.92619(11) 0.9491(2)
O19_6 O 0.75111(19) 0.97091(12) 0.8394(2)
O22_6 O 0.68185(15) 0.97891(10) 0.9492(2)
O30_6 O 0.82050(16) 0.97867(11) 0.9483(2)
Mo3_7 Mo 0.250758(19) 0.529641(13) 0.07202(3)
O18_7 O 0.25140(16) 0.57381(11) 0.0509(2)
O19_7 O 0.25111(19) 0.52909(12) 0.1606(2)
O22_7 O 0.18185(15) 0.52109(10) 0.0508(2)
O23_7 O 0.10328(16) 0.47073(11) 0.0459(2)
O24_7 O 0.18278(16) 0.42388(10) 0.0486(2)
Mo5_7 Mo 0.16461(2) 0.470886(13) 0.06631(3)
O25_7 O 0.25042(19) 0.41045(12) 0.1541(2)
Mo6_7 Mo 0.25032(2) 0.410782(14) 0.06460(3)
O26_7 O 0.25308(19) 0.36827(11) 0.0401(2)
O27_7 O 0.31809(17) 0.42407(11) 0.0495(3)
Mo8_7 Mo 0.33618(2) 0.471109(15) 0.06800(3)
O28_7 O 0.3336(2) 0.47138(13) 0.1570(3)
O29_7 O 0.39762(19) 0.47045(15) 0.0482(3)
O30_7 O 0.32050(16) 0.52133(11) 0.0517(2)
O33_7 O 0.16737(18) 0.47178(12) 0.1551(2)
O34_7 O 0.25142(15) 0.47418(11) 0.0528(2)
O9_7 O 0.18185(15) 0.47891(10) 0.9492(2)
O10_7 O 0.10328(16) 0.52927(11) 0.9541(2)
O11_7 O 0.18278(16) 0.57612(10) 0.9514(2)
Mo1_7 Mo 0.16461(2) 0.529114(13) 0.93369(3)
O12_7 O 0.25042(19) 0.58955(12) 0.8459(2)
Mo2_7 Mo 0.25032(2) 0.589218(14) 0.93540(3)
O13_7 O 0.25308(19) 0.63173(11) 0.9599(2)
O14_7 O 0.31809(17) 0.57593(11) 0.9505(3)
Mo4_7 Mo 0.33618(2) 0.528891(15) 0.93200(3)
O15_7 O 0.3336(2) 0.52862(13) 0.8430(3)
O16_7 O 0.39762(19) 0.52955(15) 0.9518(3)
O17_7 O 0.32050(16) 0.47867(11) 0.9483(2)
O20_7 O 0.16737(18) 0.52822(12) 0.8449(2)
O21_7 O 0.25142(15) 0.52582(11) 0.9472(2)
Mo7_7 Mo 0.250758(19) 0.470359(13) 0.92798(3)
O31_7 O 0.25140(16) 0.42619(11) 0.9491(2)
O32_7 O 0.25111(19) 0.47091(12) 0.8394(2)
O10_8 O 0.89672(16) 0.02927(11) 0.5459(2)
O11_8 O 0.81722(16) 0.07612(10) 0.5486(2)
Mo1_8 Mo 0.83539(2) 0.029114(13) 0.56631(3)
O12_8 O 0.74958(19) 0.08955(12) 0.6541(2)
Mo2_8 Mo 0.74968(2) 0.089218(14) 0.56460(3)
O13_8 O 0.74692(19) 0.13173(11) 0.5401(2)
Mo3_8 Mo 0.749242(19) 0.029641(13) 0.42798(3)
O14_8 O 0.68191(17) 0.07593(11) 0.5495(3)
Mo4_8 Mo 0.66382(2) 0.028891(15) 0.56800(3)
O15_8 O 0.6664(2) 0.02862(13) 0.6570(3)
O16_8 O 0.60238(19) 0.02955(15) 0.5482(3)
O18_8 O 0.74860(16) 0.07381(11) 0.4491(2)
O19_8 O 0.74889(19) 0.02909(12) 0.3394(2)
O20_8 O 0.83263(18) 0.02822(12) 0.6551(2)
O21_8 O 0.74858(15) 0.02582(11) 0.5528(2)
O22_8 O 0.81815(15) 0.02109(10) 0.4492(2)
O30_8 O 0.67950(16) 0.02133(11) 0.4483(2)
O9_8 O 0.81815(15) 0.97891(10) 0.5508(2)
O17_8 O 0.67950(16) 0.97867(11) 0.5517(2)
O23_8 O 0.89672(16) 0.97073(11) 0.4541(2)
O24_8 O 0.81722(16) 0.92388(10) 0.4514(2)
Mo5_8 Mo 0.83539(2) 0.970886(13) 0.43369(3)
O25_8 O 0.74958(19) 0.91045(12) 0.3459(2)
Mo6_8 Mo 0.74968(2) 0.910782(14) 0.43540(3)
O26_8 O 0.74692(19) 0.86827(11) 0.4599(2)
Mo7_8 Mo 0.749242(19) 0.970359(13) 0.57202(3)
O27_8 O 0.68191(17) 0.92407(11) 0.4505(3)
Mo8_8 Mo 0.66382(2) 0.971109(15) 0.43200(3)
O28_8 O 0.6664(2) 0.97138(13) 0.3430(3)
O29_8 O 0.60238(19) 0.97045(15) 0.4518(3)
O31_8 O 0.74860(16) 0.92619(11) 0.5509(2)
O32_8 O 0.74889(19) 0.97091(12) 0.6606(2)
O33_8 O 0.83263(18) 0.97178(12) 0.3449(2)
O34_8 O 0.74858(15) 0.97418(11) 0.4472(2)
Mo9 Mo 0.5000 0.775117(18) 0.35048(3)
Mo10 Mo 0.585605(19) 0.775901(13) 0.21198(3)
Mo11 Mo 0.5000 0.716949(18) 0.20480(3)
Mo12 Mo 0.584675(19) 0.716365(13) 0.34415(3)
Mo13 Mo 0.5000 0.655824(19) 0.33908(4)
Mo14 Mo 0.5000 0.836847(18) 0.21791(4)
O35 O 0.5000 0.77335(16) 0.4392(3)
O36 O 0.5000 0.81984(14) 0.3319(3)
O37 O 0.58070(17) 0.71524(12) 0.4335(2)
O38 O 0.5000 0.87860(14) 0.2449(3)
O39 O 0.64688(16) 0.77601(12) 0.2318(2)
O40 O 0.64637(16) 0.71441(11) 0.3260(2)
O41 O 0.43268(16) 0.82231(10) 0.2317(2)
O42 O 0.58274(17) 0.77493(12) 0.1233(2)
O43 O 0.5000 0.65558(17) 0.4300(3)
O44 O 0.5000 0.67229(15) 0.2244(3)
O45 O 0.5000 0.71852(16) 0.1161(3)
O46 O 0.5000 0.61344(16) 0.3154(4)
O47 O 0.5000 0.71980(14) 0.3294(3)
O48 O 0.56743(16) 0.66895(10) 0.3236(2)
O49 O 0.56959(15) 0.72480(10) 0.2253(2)
O50 O 0.56954(15) 0.76626(10) 0.3302(2)
O51 O 0.5000 0.77106(14) 0.2261(3)
O52 O 0.5000 0.83879(16) 0.1290(3)
Mo15 Mo 0.414395(19) 0.775901(13) 0.21198(3)
Mo16 Mo 0.415325(19) 0.716365(13) 0.34415(3)
O53 O 0.41930(17) 0.71524(12) 0.4335(2)
O54 O 0.35312(16) 0.77601(12) 0.2318(2)
O55 O 0.35363(16) 0.71441(11) 0.3260(2)
O56 O 0.56732(16) 0.82231(10) 0.2317(2)
O57 O 0.41726(17) 0.77493(12) 0.1233(2)
O58 O 0.43257(16) 0.66895(10) 0.3236(2)
O59 O 0.43041(15) 0.72480(10) 0.2253(2)
O60 O 0.43046(15) 0.76626(10) 0.3302(2)
Mo9_2 Mo 0.5000 0.724883(18) 0.85048(3)
Mo10_2 Mo 0.414395(19) 0.724099(13) 0.71198(3)
Mo11_2 Mo 0.5000 0.783051(18) 0.70480(3)
Mo12_2 Mo 0.415325(19) 0.783635(13) 0.84415(3)
Mo13_2 Mo 0.5000 0.844176(19) 0.83908(4)
Mo14_2 Mo 0.5000 0.663153(18) 0.71791(4)
O35_2 O 0.5000 0.72665(16) 0.9392(3)
O36_2 O 0.5000 0.68016(14) 0.8319(3)
O37_2 O 0.41930(17) 0.78476(12) 0.9335(2)
O38_2 O 0.5000 0.62140(14) 0.7449(3)
O39_2 O 0.35312(16) 0.72399(12) 0.7318(2)
O40_2 O 0.35363(16) 0.78559(11) 0.8260(2)
O41_2 O 0.56732(16) 0.67769(10) 0.7317(2)
O42_2 O 0.41726(17) 0.72507(12) 0.6233(2)
O43_2 O 0.5000 0.84442(17) 0.9300(3)
O44_2 O 0.5000 0.82771(15) 0.7244(3)
O45_2 O 0.5000 0.78148(16) 0.6161(3)
O46_2 O 0.5000 0.88656(16) 0.8154(4)
O47_2 O 0.5000 0.78020(14) 0.8294(3)
O48_2 O 0.43257(16) 0.83105(10) 0.8236(2)
O49_2 O 0.43041(15) 0.77520(10) 0.7253(2)
O50_2 O 0.43046(15) 0.73374(10) 0.8302(2)
O51_2 O 0.5000 0.72894(14) 0.7261(3)
O52_2 O 0.5000 0.66121(16) 0.6290(3)
Mo15_2 Mo 0.585605(19) 0.724099(13) 0.71198(3)
Mo16_2 Mo 0.584675(19) 0.783635(13) 0.84415(3)
O53_2 O 0.58070(17) 0.78476(12) 0.9335(2)
O54_2 O 0.64688(16) 0.72399(12) 0.7318(2)
O55_2 O 0.64637(16) 0.78559(11) 0.8260(2)
O56_2 O 0.43268(16) 0.67769(10) 0.7317(2)
O57_2 O 0.58274(17) 0.72507(12) 0.6233(2)
O58_2 O 0.56743(16) 0.83105(10) 0.8236(2)
O59_2 O 0.56959(15) 0.77520(10) 0.7253(2)
O60_2 O 0.56954(15) 0.73374(10) 0.8302(2)
Mo9_3 Mo 0.5000 0.224883(18) 0.64952(3)
Mo10_3 Mo 0.585605(19) 0.224099(13) 0.78802(3)
Mo11_3 Mo 0.5000 0.283051(18) 0.79520(3)
Mo12_3 Mo 0.584675(19) 0.283635(13) 0.65585(3)
Mo13_3 Mo 0.5000 0.344176(19) 0.66092(4)
Mo14_3 Mo 0.5000 0.163153(18) 0.78209(4)
O35_3 O 0.5000 0.22665(16) 0.5608(3)
O36_3 O 0.5000 0.18016(14) 0.6681(3)
O37_3 O 0.58070(17) 0.28476(12) 0.5665(2)
O38_3 O 0.5000 0.12140(14) 0.7551(3)
O39_3 O 0.64688(16) 0.22399(12) 0.7682(2)
O40_3 O 0.64637(16) 0.28559(11) 0.6740(2)
O41_3 O 0.43268(16) 0.17769(10) 0.7683(2)
O42_3 O 0.58274(17) 0.22507(12) 0.8767(2)
O43_3 O 0.5000 0.34442(17) 0.5700(3)
O44_3 O 0.5000 0.32771(15) 0.7756(3)
O45_3 O 0.5000 0.28148(16) 0.8839(3)
O46_3 O 0.5000 0.38656(16) 0.6846(4)
O47_3 O 0.5000 0.28020(14) 0.6706(3)
O48_3 O 0.56743(16) 0.33105(10) 0.6764(2)
O49_3 O 0.56959(15) 0.27520(10) 0.7747(2)
O50_3 O 0.56954(15) 0.23374(10) 0.6698(2)
O51_3 O 0.5000 0.22894(14) 0.7739(3)
O52_3 O 0.5000 0.16121(16) 0.8710(3)
Mo15_3 Mo 0.414395(19) 0.224099(13) 0.78802(3)
Mo16_3 Mo 0.415325(19) 0.283635(13) 0.65585(3)
O53_3 O 0.41930(17) 0.28476(12) 0.5665(2)
O54_3 O 0.35312(16) 0.22399(12) 0.7682(2)
O55_3 O 0.35363(16) 0.28559(11) 0.6740(2)
O56_3 O 0.56732(16) 0.17769(10) 0.7683(2)
O57_3 O 0.41726(17) 0.22507(12) 0.8767(2)
O58_3 O 0.43257(16) 0.33105(10) 0.6764(2)
O59_3 O 0.43041(15) 0.27520(10) 0.7747(2)
O60_3 O 0.43046(15) 0.23374(10) 0.6698(2)
Mo9_4 Mo 0.0000 0.775117(18) 0.14952(3)
Mo11_4 Mo 0.0000 0.716949(18) 0.29520(3)
Mo13_4 Mo 0.0000 0.655824(19) 0.16092(4)
Mo14_4 Mo 0.0000 0.836847(18) 0.28209(4)
O35_4 O 0.0000 0.77335(16) 0.0608(3)
O36_4 O 0.0000 0.81984(14) 0.1681(3)
O38_4 O 0.0000 0.87860(14) 0.2551(3)
O41_4 O 0.06732(16) 0.82231(10) 0.2683(2)
O43_4 O 0.0000 0.65558(17) 0.0700(3)
O44_4 O 0.0000 0.67229(15) 0.2756(3)
O45_4 O 0.0000 0.71852(16) 0.3839(3)
O46_4 O -0.0000 0.61344(16) 0.1846(4)
O47_4 O 0.0000 0.71980(14) 0.1706(3)
O51_4 O 0.0000 0.77106(14) 0.2739(3)
O52_4 O 0.0000 0.83879(16) 0.3710(3)
Mo15_4 Mo 0.085605(19) 0.775901(13) 0.28802(3)
Mo16_4 Mo 0.084675(19) 0.716365(13) 0.15585(3)
O53_4 O 0.08070(17) 0.71524(12) 0.0665(2)
O54_4 O 0.14688(16) 0.77601(12) 0.2682(2)
O55_4 O 0.14637(16) 0.71441(11) 0.1740(2)
O57_4 O 0.08274(17) 0.77493(12) 0.3767(2)
O58_4 O 0.06743(16) 0.66895(10) 0.1764(2)
O59_4 O 0.06959(15) 0.72480(10) 0.2747(2)
O60_4 O 0.06954(15) 0.76626(10) 0.1698(2)
Mo9_5 Mo 1.0000 0.775117(18) 0.14952(3)
Mo10_4 Mo 0.914395(19) 0.775901(13) 0.28802(3)
Mo11_5 Mo 1.0000 0.716949(18) 0.29520(3)
Mo12_4 Mo 0.915325(19) 0.716365(13) 0.15585(3)
Mo13_5 Mo 1.0000 0.655824(19) 0.16092(4)
Mo14_5 Mo 1.0000 0.836847(18) 0.28209(4)
O35_5 O 1.0000 0.77335(16) 0.0608(3)
O36_5 O 1.0000 0.81984(14) 0.1681(3)
O37_4 O 0.91930(17) 0.71524(12) 0.0665(2)
O38_5 O 1.0000 0.87860(14) 0.2551(3)
O39_4 O 0.85312(16) 0.77601(12) 0.2682(2)
O40_4 O 0.85363(16) 0.71441(11) 0.1740(2)
O42_4 O 0.91726(17) 0.77493(12) 0.3767(2)
O43_5 O 1.0000 0.65558(17) 0.0700(3)
O44_5 O 1.0000 0.67229(15) 0.2756(3)
O45_5 O 1.0000 0.71852(16) 0.3839(3)
O46_5 O 1.0000 0.61344(16) 0.1846(4)
O47_5 O 1.0000 0.71980(14) 0.1706(3)
O48_4 O 0.93257(16) 0.66895(10) 0.1764(2)
O49_4 O 0.93041(15) 0.72480(10) 0.2747(2)
O50_4 O 0.93046(15) 0.76626(10) 0.1698(2)
O51_5 O 1.0000 0.77106(14) 0.2739(3)
O52_5 O 1.0000 0.83879(16) 0.3710(3)
O56_4 O 0.93268(16) 0.82231(10) 0.2683(2)
Mo9_6 Mo 0.0000 0.275117(18) 0.35048(3)
Mo10_5 Mo 0.085605(19) 0.275901(13) 0.21198(3)
Mo11_6 Mo 0.0000 0.216949(18) 0.20480(3)
Mo12_5 Mo 0.084675(19) 0.216365(13) 0.34415(3)
Mo13_6 Mo 0.0000 0.155824(19) 0.33908(4)
Mo14_6 Mo 0.0000 0.336847(18) 0.21791(4)
O35_6 O 0.0000 0.27335(16) 0.4392(3)
O36_6 O 0.0000 0.31984(14) 0.3319(3)
O37_5 O 0.08070(17) 0.21524(12) 0.4335(2)
O38_6 O 0.0000 0.37860(14) 0.2449(3)
O39_5 O 0.14688(16) 0.27601(12) 0.2318(2)
O40_5 O 0.14637(16) 0.21441(11) 0.3260(2)
O42_5 O 0.08274(17) 0.27493(12) 0.1233(2)
O43_6 O 0.0000 0.15558(17) 0.4300(3)
O44_6 O 0.0000 0.17229(15) 0.2244(3)
O45_6 O 0.0000 0.21852(16) 0.1161(3)
O46_6 O 0.0000 0.11344(16) 0.3154(4)
O47_6 O 0.0000 0.21980(14) 0.3294(3)
O48_5 O 0.06743(16) 0.16895(10) 0.3236(2)
O49_5 O 0.06959(15) 0.22480(10) 0.2253(2)
O50_5 O 0.06954(15) 0.26626(10) 0.3302(2)
O51_6 O 0.0000 0.27106(14) 0.2261(3)
O52_6 O 0.0000 0.33879(16) 0.1290(3)
O56_5 O 0.06732(16) 0.32231(10) 0.2317(2)
Mo9_7 Mo 1.0000 0.275117(18) 0.35048(3)
Mo11_7 Mo 1.0000 0.216949(18) 0.20480(3)
Mo13_7 Mo 1.0000 0.155824(19) 0.33908(4)
Mo14_7 Mo 1.0000 0.336847(18) 0.21791(4)
O35_7 O 1.0000 0.27335(16) 0.4392(3)
O36_7 O 1.0000 0.31984(14) 0.3319(3)
O38_7 O 1.0000 0.37860(14) 0.2449(3)
O41_5 O 0.93268(16) 0.32231(10) 0.2317(2)
O43_7 O 1.0000 0.15558(17) 0.4300(3)
O44_7 O 1.0000 0.17229(15) 0.2244(3)
O45_7 O 1.0000 0.21852(16) 0.1161(3)
O46_7 O 1.0000 0.11344(16) 0.3154(4)
O47_7 O 1.0000 0.21980(14) 0.3294(3)
O51_7 O 1.0000 0.27106(14) 0.2261(3)
O52_7 O 1.0000 0.33879(16) 0.1290(3)
Mo15_5 Mo 0.914395(19) 0.275901(13) 0.21198(3)
Mo16_5 Mo 0.915325(19) 0.216365(13) 0.34415(3)
O53_5 O 0.91930(17) 0.21524(12) 0.4335(2)
O54_5 O 0.85312(16) 0.27601(12) 0.2318(2)
O55_5 O 0.85363(16) 0.21441(11) 0.3260(2)
O57_5 O 0.91726(17) 0.27493(12) 0.1233(2)
O58_5 O 0.93257(16) 0.16895(10) 0.3236(2)
O59_5 O 0.93041(15) 0.22480(10) 0.2253(2)
O60_5 O 0.93046(15) 0.26626(10) 0.3302(2)
Mo9_8 Mo -0.0000 0.224883(18) 0.85048(3)
Mo11_8 Mo 0.0000 0.283051(18) 0.70480(3)
Mo13_8 Mo 0.0000 0.344176(19) 0.83908(4)
Mo14_8 Mo 0.0000 0.163153(18) 0.71791(4)
O35_8 O 0.0000 0.22665(16) 0.9392(3)
O36_8 O 0.0000 0.18016(14) 0.8319(3)
O38_8 O 0.0000 0.12140(14) 0.7449(3)
O41_6 O 0.06732(16) 0.17769(10) 0.7317(2)
O43_8 O 0.0000 0.34442(17) 0.9300(3)
O44_8 O 0.0000 0.32771(15) 0.7244(3)
O45_8 O 0.0000 0.28148(16) 0.6161(3)
O46_8 O -0.0000 0.38656(16) 0.8154(4)
O47_8 O 0.0000 0.28020(14) 0.8294(3)
O51_8 O 0.0000 0.22894(14) 0.7261(3)
O52_8 O 0.0000 0.16121(16) 0.6290(3)
Mo15_6 Mo 0.085605(19) 0.224099(13) 0.71198(3)
Mo16_6 Mo 0.084675(19) 0.283635(13) 0.84415(3)
O53_6 O 0.08070(17) 0.28476(12) 0.9335(2)
O54_6 O 0.14688(16) 0.22399(12) 0.7318(2)
O55_6 O 0.14637(16) 0.28559(11) 0.8260(2)
O57_6 O 0.08274(17) 0.22507(12) 0.6233(2)
O58_6 O 0.06743(16) 0.33105(10) 0.8236(2)
O59_6 O 0.06959(15) 0.27520(10) 0.7253(2)
O60_6 O 0.06954(15) 0.23374(10) 0.8302(2)
Mo9_9 Mo 1.0000 0.224883(18) 0.85048(3)
Mo10_6 Mo 0.914395(19) 0.224099(13) 0.71198(3)
Mo11_9 Mo 1.0000 0.283051(18) 0.70480(3)
Mo12_6 Mo 0.915325(19) 0.283635(13) 0.84415(3)
Mo13_9 Mo 1.0000 0.344176(19) 0.83908(4)
Mo14_9 Mo 1.0000 0.163153(18) 0.71791(4)
O35_9 O 1.0000 0.22665(16) 0.9392(3)
O36_9 O 1.0000 0.18016(14) 0.8319(3)
O37_6 O 0.91930(17) 0.28476(12) 0.9335(2)
O38_9 O 1.0000 0.12140(14) 0.7449(3)
O39_6 O 0.85312(16) 0.22399(12) 0.7318(2)
O40_6 O 0.85363(16) 0.28559(11) 0.8260(2)
O42_6 O 0.91726(17) 0.22507(12) 0.6233(2)
O43_9 O 1.0000 0.34442(17) 0.9300(3)
O44_9 O 1.0000 0.32771(15) 0.7244(3)
O45_9 O 1.0000 0.28148(16) 0.6161(3)
O46_9 O 1.0000 0.38656(16) 0.8154(4)
O47_9 O 1.0000 0.28020(14) 0.8294(3)
O48_6 O 0.93257(16) 0.33105(10) 0.8236(2)
O49_6 O 0.93041(15) 0.27520(10) 0.7253(2)
O50_6 O 0.93046(15) 0.23374(10) 0.8302(2)
O51_9 O 1.0000 0.22894(14) 0.7261(3)
O52_9 O 1.0000 0.16121(16) 0.6290(3)
O56_6 O 0.93268(16) 0.17769(10) 0.7317(2)
Mo9_10 Mo 0.0000 0.724883(18) 0.64952(3)
Mo10_7 Mo 0.085605(19) 0.724099(13) 0.78802(3)
Mo11_10 Mo 0.0000 0.783051(18) 0.79520(3)
Mo12_7 Mo 0.084675(19) 0.783635(13) 0.65585(3)
Mo13_10 Mo 0.0000 0.844176(19) 0.66092(4)
Mo14_10 Mo 0.0000 0.663153(18) 0.78209(4)
O35_10 O 0.0000 0.72665(16) 0.5608(3)
O36_10 O 0.0000 0.68016(14) 0.6681(3)
O37_7 O 0.08070(17) 0.78476(12) 0.5665(2)
O38_10 O 0.0000 0.62140(14) 0.7551(3)
O39_7 O 0.14688(16) 0.72399(12) 0.7682(2)
O40_7 O 0.14637(16) 0.78559(11) 0.6740(2)
O42_7 O 0.08274(17) 0.72507(12) 0.8767(2)
O43_10 O 0.0000 0.84442(17) 0.5700(3)
O44_10 O 0.0000 0.82771(15) 0.7756(3)
O45_10 O 0.0000 0.78148(16) 0.8839(3)
O46_10 O 0.0000 0.88656(16) 0.6846(4)
O47_10 O 0.0000 0.78020(14) 0.6706(3)
O48_7 O 0.06743(16) 0.83105(10) 0.6764(2)
O49_7 O 0.06959(15) 0.77520(10) 0.7747(2)
O50_7 O 0.06954(15) 0.73374(10) 0.6698(2)
O51_10 O 0.0000 0.72894(14) 0.7739(3)
O52_10 O 0.0000 0.66121(16) 0.8710(3)
O56_7 O 0.06732(16) 0.67769(10) 0.7683(2)
Mo9_11 Mo 1.0000 0.724883(18) 0.64952(3)
Mo11_11 Mo 1.0000 0.783051(18) 0.79520(3)
Mo13_11 Mo 1.0000 0.844176(19) 0.66092(4)
Mo14_11 Mo 1.0000 0.663153(18) 0.78209(4)
O35_11 O 1.0000 0.72665(16) 0.5608(3)
O36_11 O 1.0000 0.68016(14) 0.6681(3)
O38_11 O 1.0000 0.62140(14) 0.7551(3)
O41_7 O 0.93268(16) 0.67769(10) 0.7683(2)
O43_11 O 1.0000 0.84442(17) 0.5700(3)
O44_11 O 1.0000 0.82771(15) 0.7756(3)
O45_11 O 1.0000 0.78148(16) 0.8839(3)
O46_11 O 1.0000 0.88656(16) 0.6846(4)
O47_11 O 1.0000 0.78020(14) 0.6706(3)
O51_11 O 1.0000 0.72894(14) 0.7739(3)
O52_11 O 1.0000 0.66121(16) 0.8710(3)
Mo15_7 Mo 0.914395(19) 0.724099(13) 0.78802(3)
Mo16_7 Mo 0.915325(19) 0.783635(13) 0.65585(3)
O53_7 O 0.91930(17) 0.78476(12) 0.5665(2)
O54_7 O 0.85312(16) 0.72399(12) 0.7682(2)
O55_7 O 0.85363(16) 0.78559(11) 0.6740(2)
O57_7 O 0.91726(17) 0.72507(12) 0.8767(2)
O58_7 O 0.93257(16) 0.83105(10) 0.6764(2)
O59_7 O 0.93041(15) 0.77520(10) 0.7747(2)
O60_7 O 0.93046(15) 0.73374(10) 0.6698(2)
Mo9_12 Mo 0.5000 0.275117(18) 0.14952(3)
Mo10_8 Mo 0.414395(19) 0.275901(13) 0.28802(3)
Mo11_12 Mo 0.5000 0.216949(18) 0.29520(3)
Mo12_8 Mo 0.415325(19) 0.216365(13) 0.15585(3)
Mo13_12 Mo 0.5000 0.155824(19) 0.16092(4)
Mo14_12 Mo 0.5000 0.336847(18) 0.28209(4)
O35_12 O 0.5000 0.27335(16) 0.0608(3)
O36_12 O 0.5000 0.31984(14) 0.1681(3)
O37_8 O 0.41930(17) 0.21524(12) 0.0665(2)
O38_12 O 0.5000 0.37860(14) 0.2551(3)
O39_8 O 0.35312(16) 0.27601(12) 0.2682(2)
O40_8 O 0.35363(16) 0.21441(11) 0.1740(2)
O41_8 O 0.56732(16) 0.32231(10) 0.2683(2)
O42_8 O 0.41726(17) 0.27493(12) 0.3767(2)
O43_12 O 0.5000 0.15558(17) 0.0700(3)
O44_12 O 0.5000 0.17229(15) 0.2756(3)
O45_12 O 0.5000 0.21852(16) 0.3839(3)
O46_12 O 0.5000 0.11344(16) 0.1846(4)
O47_12 O 0.5000 0.21980(14) 0.1706(3)
O48_8 O 0.43257(16) 0.16895(10) 0.1764(2)
O49_8 O 0.43041(15) 0.22480(10) 0.2747(2)
O50_8 O 0.43046(15) 0.26626(10) 0.1698(2)
O51_12 O 0.5000 0.27106(14) 0.2739(3)
O52_12 O 0.5000 0.33879(16) 0.3710(3)
Mo15_8 Mo 0.585605(19) 0.275901(13) 0.28802(3)
Mo16_8 Mo 0.584675(19) 0.216365(13) 0.15585(3)
O53_8 O 0.58070(17) 0.21524(12) 0.0665(2)
O54_8 O 0.64688(16) 0.27601(12) 0.2682(2)
O55_8 O 0.64637(16) 0.21441(11) 0.1740(2)
O56_8 O 0.43268(16) 0.32231(10) 0.2683(2)
O57_8 O 0.58274(17) 0.27493(12) 0.3767(2)
O58_8 O 0.56743(16) 0.16895(10) 0.1764(2)
O59_8 O 0.56959(15) 0.22480(10) 0.2747(2)
O60_8 O 0.56954(15) 0.26626(10) 0.1698(2)
loop_
_geom_bond_atom_site_label_1
_geom_bond_atom_site_label_2
_geom_bond_site_symmetry_1
_geom_bond_site_symmetry_2
Co1 O1 1_555 1_555
O2 C6 1_555 1_555
N1 Co1 1_555 1_555
C1 H1 1_555 1_555
Co2 O5 1_555 1_555
O3 Co1 1_555 1_555
O4 C14 1_555 1_555
C2 C1 1_555 1_555
N2 N1 1_555 1_555
N3 N2 1_555 1_555
N4 N3 1_555 1_555
N5 C2 1_555 1_555
H4 N5 1_555 1_555
N6 C1 1_555 1_555
N7 Co1 1_555 1_555
N8 H5 1_555 1_555
N9 N10 1_555 1_555
C5 C2 1_555 1_555
H6 C5 1_555 1_555
N10 N11 1_555 1_555
C6 N5 1_555 1_555
N11 N12 1_555 1_555
C7 N4 1_555 1_555
H7 C7 1_555 1_555
H8 C7 1_555 1_555
N12 Co2 1_555 1_555
C8 N1 1_555 1_555
H9 C8 1_555 1_555
C9 N7 1_555 1_555
H10 C9 1_555 1_555
C10 C9 1_555 1_555
H11 C10 1_555 1_555
C11 C10 1_555 1_555
H12 C11 1_555 1_555
C12 N7 1_555 1_555
H13 C12 1_555 1_555
C13 N8 1_555 1_555
C14 N8 1_555 1_555
C15 N9 1_555 1_555
H14 C15 1_555 1_555
H15 C15 1_555 1_555
C16 N9 1_555 1_555
H16 C16 1_555 1_555
O6 C22 1_555 1_555
N13 Co1 1_555 1_555
C17 H17 1_555 1_555
O7 C30 1_555 1_555
C18 C17 1_555 1_555
N14 N13 1_555 1_555
N15 N14 1_555 1_555
N16 N15 1_555 1_555
N17 C18 1_555 1_555
H20 N17 1_555 1_555
N18 C17 1_555 1_555
N19 Co1 1_555 1_555
N20 H21 1_555 1_555
N21 N22 1_555 1_555
C21 C18 1_555 1_555
H22 C21 1_555 1_555
N22 N23 1_555 1_555
C22 N17 1_555 1_555
N23 N24 1_555 1_555
C23 N16 1_555 1_555
H23 C23 1_555 1_555
H24 C23 1_555 1_555
N24 C32 1_555 1_555
C24 N13 1_555 1_555
H25 C24 1_555 1_555
C25 N19 1_555 1_555
H26 C25 1_555 1_555
C26 C25 1_555 1_555
H27 C26 1_555 1_555
C27 C26 1_555 1_555
H28 C27 1_555 1_555
C28 N19 1_555 1_555
H29 C28 1_555 1_555
C29 N20 1_555 1_555
C30 N20 1_555 1_555
C31 N21 1_555 1_555
H30 C31 1_555 1_555
H31 C31 1_555 1_555
C32 N21 1_555 1_555
H32 C32 1_555 1_555
O8 Co2 1_555 1_555
Co3 N18 1_555 1_555
Co4 N24 1_555 1_555
Co5 N6 1_555 1_555
N25 Co2 1_555 1_555
N26 Co2 1_555 1_555
N27 Co2 1_555 1_555
N4 C8 1_555 1_555
C4 C5 1_555 1_555
C6 C7 1_555 1_555
N12 C16 1_555 1_555
C11 C13 1_555 1_555
C12 C13 1_555 1_555
C14 C15 1_555 1_555
N16 C24 1_555 1_555
C20 C21 1_555 1_555
C22 C23 1_555 1_555
C27 C29 1_555 1_555
C28 C29 1_555 1_555
C30 C31 1_555 1_555
C3 H2 1_555 1_555
C19 H18 1_555 1_555
N21_2 N22_2 1_555 1_555
N22_2 N23_2 1_555 1_555
N23_2 N24_2 1_555 1_555
C31_2 N21_2 1_555 1_555
H31_2 C31_2 1_555 1_555
Co5 N24_2 1_555 1_555
Co1_2 O1_2 1_555 1_555
O2_2 C6_2 1_555 1_555
N1_2 Co1_2 1_555 1_555
C1_2 H1_2 1_555 1_555
O3_2 Co1_2 1_555 1_555
C2_2 C1_2 1_555 1_555
N2_2 N1_2 1_555 1_555
N3_2 N2_2 1_555 1_555
C3_2 H2_2 1_555 1_555
N4_2 N3_2 1_555 1_555
C4_2 C3_2 1_555 1_555
H3_2 C4_2 1_555 1_555
N5_2 C2_2 1_555 1_555
H4_2 N5_2 1_555 1_555
N6_2 C1_2 1_555 1_555
C5_2 C2_2 1_555 1_555
H6_2 C5_2 1_555 1_555
C6_2 N5_2 1_555 1_555
C7_2 N4_2 1_555 1_555
H7_2 C7_2 1_555 1_555
H8_2 C7_2 1_555 1_555
C8_2 N1_2 1_555 1_555
H9_2 C8_2 1_555 1_555
O7_2 C30_2 1_555 1_555
N19_2 Co1_2 1_555 1_555
N20_2 H21_2 1_555 1_555
C25_2 N19_2 1_555 1_555
H26_2 C25_2 1_555 1_555
C26_2 C25_2 1_555 1_555
H27_2 C26_2 1_555 1_555
C27_2 C26_2 1_555 1_555
H28_2 C27_2 1_555 1_555
C28_2 N19_2 1_555 1_555
H29_2 C28_2 1_555 1_555
C29_2 N20_2 1_555 1_555
C30_2 N20_2 1_555 1_555
H32_2 C32_2 1_555 1_555
Co4 N6_2 1_555 1_555
C3_2 N6_2 1_555 1_555
N4_2 C8_2 1_555 1_555
C4_2 C5_2 1_555 1_555
C6_2 C7_2 1_555 1_555
C27_2 C29_2 1_555 1_555
C28_2 C29_2 1_555 1_555
O3_2 H34 1_555 1_555
O1_2 H35 1_555 1_555
Co3 O5_2 1_555 1_555
N9_2 N10_2 1_555 1_555
N10_2 N11_2 1_555 1_555
N11_2 N12_2 1_555 1_555
N12_2 Co3 1_555 1_555
C15_2 N9_2 1_555 1_555
H15_2 C15_2 1_555 1_555
Co1_3 O1_3 1_555 1_555
O3_3 Co1_3 1_555 1_555
O4_2 C14_2 1_555 1_555
N7_2 Co1_3 1_555 1_555
N8_2 H5_2 1_555 1_555
C9_2 N7_2 1_555 1_555
H10_2 C9_2 1_555 1_555
C10_2 C9_2 1_555 1_555
H11_2 C10_2 1_555 1_555
C11_2 C10_2 1_555 1_555
H12_2 C11_2 1_555 1_555
C12_2 N7_2 1_555 1_555
H13_2 C12_2 1_555 1_555
C13_2 N8_2 1_555 1_555
C14_2 N8_2 1_555 1_555
H16_2 C16_2 1_555 1_555
O6_2 C22_2 1_555 1_555
N13_2 Co1_3 1_555 1_555
C17_2 H17_2 1_555 1_555
C18_2 C17_2 1_555 1_555
N14_2 N13_2 1_555 1_555
N15_2 N14_2 1_555 1_555
C19_2 H18_2 1_555 1_555
N16_2 N15_2 1_555 1_555
C20_2 C19_2 1_555 1_555
H19_2 C20_2 1_555 1_555
N17_2 C18_2 1_555 1_555
H20_2 N17_2 1_555 1_555
N26 C17_2 1_555 1_555
C21_2 C18_2 1_555 1_555
H22_2 C21_2 1_555 1_555
C22_2 N17_2 1_555 1_555
C23_2 N16_2 1_555 1_555
H23_2 C23_2 1_555 1_555
H24_2 C23_2 1_555 1_555
C24_2 N13_2 1_555 1_555
H25_2 C24_2 1_555 1_555
O8_2 Co3_2 1_555 1_555
N25_2 Co3_2 1_555 1_555
N27_2 Co3_2 1_555 1_555
C11_2 C13_2 1_555 1_555
C12_2 C13_2 1_555 1_555
C19_2 N26 1_555 1_555
N16_2 C24_2 1_555 1_555
C20_2 C21_2 1_555 1_555
C22_2 C23_2 1_555 1_555
O3_3 H33 1_555 1_555
O3_3 H34_2 1_555 1_555
O1_3 H36 1_555 1_555
C19_3 H18_3 1_555 1_555
Co1_4 O1_4 1_555 1_555
O3_4 Co1_4 1_555 1_555
O6_3 C22_3 1_555 1_555
N13_3 Co1_4 1_555 1_555
C17_3 H17_3 1_555 1_555
C18_3 C17_3 1_555 1_555
N14_3 N13_3 1_555 1_555
N15_3 N14_3 1_555 1_555
N16_3 N15_3 1_555 1_555
N17_3 C18_3 1_555 1_555
H20_3 N17_3 1_555 1_555
N18_2 C17_3 1_555 1_555
C21_3 C18_3 1_555 1_555
H22_3 C21_3 1_555 1_555
C22_3 N17_3 1_555 1_555
C23_3 N16_3 1_555 1_555
H23_3 C23_3 1_555 1_555
H24_3 C23_3 1_555 1_555
C24_3 N13_3 1_555 1_555
H25_3 C24_3 1_555 1_555
Co5_2 N18_2 1_555 1_555
N16_3 C24_3 1_555 1_555
C20_3 C21_3 1_555 1_555
C22_3 C23_3 1_555 1_555
O3_4 H33_2 1_555 1_555
Co4 O5_3 1_555 1_555
O4_3 C14_3 1_555 1_555
N8_3 H5_3 1_555 1_555
N9_3 N10_3 1_555 1_555
N10_3 N11_3 1_555 1_555
N11_3 N12_3 1_555 1_555
N12_3 Co4 1_555 1_555
C9_3 N7_3 1_555 1_555
H10_3 C9_3 1_555 1_555
C10_3 C9_3 1_555 1_555
H11_3 C10_3 1_555 1_555
C11_3 C10_3 1_555 1_555
H12_3 C11_3 1_555 1_555
C12_3 N7_3 1_555 1_555
H13_3 C12_3 1_555 1_555
C13_3 N8_3 1_555 1_555
C14_3 N8_3 1_555 1_555
C15_3 N9_3 1_555 1_555
H14_3 C15_3 1_555 1_555
H15_3 C15_3 1_555 1_555
C16_3 N9_3 1_555 1_555
H16_3 C16_3 1_555 1_555
O8_3 Co4 1_555 1_555
N26_2 Co4 1_555 1_555
N12_3 C16_3 1_555 1_555
C11_3 C13_3 1_555 1_555
C12_3 C13_3 1_555 1_555
C14_3 C15_3 1_555 1_555
C3_3 H2_3 1_555 1_555
Co1_5 O1_5 1_555 1_555
O2_3 C6_3 1_555 1_555
N1_3 Co1_5 1_555 1_555
C1_3 H1_3 1_555 1_555
O3_5 Co1_5 1_555 1_555
C2_3 C1_3 1_555 1_555
N2_3 N1_3 1_555 1_555
N3_3 N2_3 1_555 1_555
N4_3 N3_3 1_555 1_555
N5_3 C2_3 1_555 1_555
H4_3 N5_3 1_555 1_555
N25_2 C1_3 1_555 1_555
C5_3 C2_3 1_555 1_555
H6_3 C5_3 1_555 1_555
C6_3 N5_3 1_555 1_555
C7_3 N4_3 1_555 1_555
H7_3 C7_3 1_555 1_555
H8_3 C7_3 1_555 1_555
C8_3 N1_3 1_555 1_555
H9_3 C8_3 1_555 1_555
N4_3 C8_3 1_555 1_555
C4_3 C5_3 1_555 1_555
C6_3 C7_3 1_555 1_555
O1_5 H35_2 1_555 1_555
O7_3 C30_3 1_555 1_555
N20_3 H21_3 1_555 1_555
N21_3 N22_3 1_555 1_555
N22_3 N23_3 1_555 1_555
N23_3 N27 1_555 1_555
N27 C32_3 1_555 1_555
C25_3 N19_3 1_555 1_555
H26_3 C25_3 1_555 1_555
C26_3 C25_3 1_555 1_555
H27_3 C26_3 1_555 1_555
C27_3 C26_3 1_555 1_555
H28_3 C27_3 1_555 1_555
C28_3 N19_3 1_555 1_555
H29_3 C28_3 1_555 1_555
C29_3 N20_3 1_555 1_555
C30_3 N20_3 1_555 1_555
C31_3 N21_3 1_555 1_555
H30_3 C31_3 1_555 1_555
H31_3 C31_3 1_555 1_555
C32_3 N21_3 1_555 1_555
H32_3 C32_3 1_555 1_555
C27_3 C29_3 1_555 1_555
C28_3 C29_3 1_555 1_555
C30_3 C31_3 1_555 1_555
O4_4 C14_4 1_555 1_555
N8_4 H5_4 1_555 1_555
C9_4 N7_4 1_555 1_555
H10_4 C9_4 1_555 1_555
C10_4 C9_4 1_555 1_555
H11_4 C10_4 1_555 1_555
C11_4 C10_4 1_555 1_555
H12_4 C11_4 1_555 1_555
C12_4 N7_4 1_555 1_555
H13_4 C12_4 1_555 1_555
C13_4 N8_4 1_555 1_555
C14_4 N8_4 1_555 1_555
H16_4 C16_4 1_555 1_555
O7_4 C30_4 1_555 1_555
N20_4 H21_4 1_555 1_555
C25_4 N19_4 1_555 1_555
H26_4 C25_4 1_555 1_555
C26_4 C25_4 1_555 1_555
H27_4 C26_4 1_555 1_555
C27_4 C26_4 1_555 1_555
H28_4 C27_4 1_555 1_555
C28_4 N19_4 1_555 1_555
H29_4 C28_4 1_555 1_555
C29_4 N20_4 1_555 1_555
C30_4 N20_4 1_555 1_555
H32_4 C32_4 1_555 1_555
O8_4 Co5 1_555 1_555
C11_4 C13_4 1_555 1_555
C12_4 C13_4 1_555 1_555
C27_4 C29_4 1_555 1_555
C28_4 C29_4 1_555 1_555
Co5_2 O5_4 1_555 1_555
N9_4 N10_4 1_555 1_555
N10_4 N11_4 1_555 1_555
N11_4 N12_4 1_555 1_555
N12_4 Co5_2 1_555 1_555
C15_4 N9_4 1_555 1_555
H15_4 C15_4 1_555 1_555
N21_4 N22_4 1_555 1_555
N22_4 N23_4 1_555 1_555
N23_4 N27_2 1_555 1_555
C31_4 N21_4 1_555 1_555
H31_4 C31_4 1_555 1_555
Co1_6 O1_6 1_555 1_555
O2_4 C6_4 1_555 1_555
N1_4 Co1_6 1_555 1_555
C1_4 H1_4 1_555 1_555
O3_6 Co1_6 1_555 1_555
C2_4 C1_4 1_555 1_555
N2_4 N1_4 1_555 1_555
N3_4 N2_4 1_555 1_555
C3_4 H2_4 1_555 1_555
N4_4 N3_4 1_555 1_555
C4_4 C3_4 1_555 1_555
H3_4 C4_4 1_555 1_555
N5_4 C2_4 1_555 1_555
H4_4 N5_4 1_555 1_555
N25 C1_4 1_555 1_555
C5_4 C2_4 1_555 1_555
H6_4 C5_4 1_555 1_555
C6_4 N5_4 1_555 1_555
C7_4 N4_4 1_555 1_555
H7_4 C7_4 1_555 1_555
H8_4 C7_4 1_555 1_555
C8_4 N1_4 1_555 1_555
H9_4 C8_4 1_555 1_555
O6_4 C22_4 1_555 1_555
N13_4 Co1_6 1_555 1_555
C17_4 H17_4 1_555 1_555
C18_4 C17_4 1_555 1_555
N14_4 N13_4 1_555 1_555
N15_4 N14_4 1_555 1_555
C19_4 H18_4 1_555 1_555
N16_4 N15_4 1_555 1_555
C20_4 C19_4 1_555 1_555
H19_4 C20_4 1_555 1_555
N17_4 C18_4 1_555 1_555
H20_4 N17_4 1_555 1_555
N26_2 C17_4 1_555 1_555
C21_4 C18_4 1_555 1_555
H22_4 C21_4 1_555 1_555
C22_4 N17_4 1_555 1_555
C23_4 N16_4 1_555 1_555
H23_4 C23_4 1_555 1_555
H24_4 C23_4 1_555 1_555
C24_4 N13_4 1_555 1_555
H25_4 C24_4 1_555 1_555
C3_4 N25 1_555 1_555
N4_4 C8_4 1_555 1_555
C4_4 C5_4 1_555 1_555
C6_4 C7_4 1_555 1_555
C19_4 N26_2 1_555 1_555
N16_4 C24_4 1_555 1_555
C20_4 C21_4 1_555 1_555
C22_4 C23_4 1_555 1_555
O3_6 H33_3 1_555 1_555
O1_6 H35_3 1_555 1_555
O3_6 H33_4 1_555 1_555
O1_6 H35_4 1_555 1_555
O3_2 H33_5 1_555 1_555
O1_2 H36_5 1_555 1_555
O1_3 H35_5 1_555 1_555
O1_4 H35_6 1_555 1_555
O3_5 H33_6 1_555 1_555
Co1_7 O1_7 1_555 1_555
O2_5 C6_5 1_555 1_555
N1_5 Co1_7 1_555 1_555
C1_5 H1_5 1_555 1_555
O3_7 Co1_7 1_555 1_555
C2_5 C1_5 1_555 1_555
N2_5 N1_5 1_555 1_555
N3_5 N2_5 1_555 1_555
C3_5 H2_5 1_555 1_555
N4_5 N3_5 1_555 1_555
C4_5 C3_5 1_555 1_555
H3_5 C4_5 1_555 1_555
N5_5 C2_5 1_555 1_555
H4_5 N5_5 1_555 1_555
N6_3 C1_5 1_555 1_555
C5_5 C2_5 1_555 1_555
H6_5 C5_5 1_555 1_555
C6_5 N5_5 1_555 1_555
C7_5 N4_5 1_555 1_555
H7_5 C7_5 1_555 1_555
H8_5 C7_5 1_555 1_555
C8_5 N1_5 1_555 1_555
H9_5 C8_5 1_555 1_555
O6_5 C22_5 1_555 1_555
N13_5 Co1_7 1_555 1_555
C17_5 H17_5 1_555 1_555
C18_5 C17_5 1_555 1_555
N14_5 N13_5 1_555 1_555
N15_5 N14_5 1_555 1_555
C19_5 H18_5 1_555 1_555
N16_5 N15_5 1_555 1_555
C20_5 C19_5 1_555 1_555
H19_5 C20_5 1_555 1_555
N17_5 C18_5 1_555 1_555
H20_5 N17_5 1_555 1_555
N18_3 C17_5 1_555 1_555
C21_5 C18_5 1_555 1_555
H22_5 C21_5 1_555 1_555
C22_5 N17_5 1_555 1_555
C23_5 N16_5 1_555 1_555
H23_5 C23_5 1_555 1_555
H24_5 C23_5 1_555 1_555
C24_5 N13_5 1_555 1_555
H25_5 C24_5 1_555 1_555
Co3_3 N18_3 1_555 1_555
Co5_3 N6_3 1_555 1_555
C3_5 N6_3 1_555 1_555
N4_5 C8_5 1_555 1_555
C4_5 C5_5 1_555 1_555
C6_5 C7_5 1_555 1_555
C19_5 N18_3 1_555 1_555
N16_5 C24_5 1_555 1_555
C20_5 C21_5 1_555 1_555
C22_5 C23_5 1_555 1_555
O3_7 H33_7 1_555 1_555
O1_7 H35_7 1_555 1_555
Co2_2 O5_5 1_555 1_555
N9_5 N10_5 1_555 1_555
N10_5 N11_5 1_555 1_555
N11_5 N12_5 1_555 1_555
N12_5 Co2_2 1_555 1_555
C15_5 N9_5 1_555 1_555
H15_5 C15_5 1_555 1_555
N21_5 N22_5 1_555 1_555
N22_5 N23_5 1_555 1_555
N23_5 N24_3 1_555 1_555
C31_5 N21_5 1_555 1_555
H31_5 C31_5 1_555 1_555
Co4_2 N24_3 1_555 1_555
N26_3 Co2_2 1_555 1_555
O4_5 C14_5 1_555 1_555
N8_5 H5_5 1_555 1_555
C9_5 N7_5 1_555 1_555
H10_5 C9_5 1_555 1_555
C10_5 C9_5 1_555 1_555
H11_5 C10_5 1_555 1_555
C11_5 C10_5 1_555 1_555
H12_5 C11_5 1_555 1_555
C12_5 N7_5 1_555 1_555
H13_5 C12_5 1_555 1_555
C13_5 N8_5 1_555 1_555
C14_5 N8_5 1_555 1_555
H16_5 C16_5 1_555 1_555
O7_5 C30_5 1_555 1_555
N20_5 H21_5 1_555 1_555
C25_5 N19_5 1_555 1_555
H26_5 C25_5 1_555 1_555
C26_5 C25_5 1_555 1_555
H27_5 C26_5 1_555 1_555
C27_5 C26_5 1_555 1_555
H28_5 C27_5 1_555 1_555
C28_5 N19_5 1_555 1_555
H29_5 C28_5 1_555 1_555
C29_5 N20_5 1_555 1_555
C30_5 N20_5 1_555 1_555
H32_5 C32_5 1_555 1_555
O8_5 Co2_3 1_555 1_555
N25_3 Co2_3 1_555 1_555
N27_3 Co2_3 1_555 1_555
C11_5 C13_5 1_555 1_555
C12_5 C13_5 1_555 1_555
C27_5 C29_5 1_555 1_555
C28_5 C29_5 1_555 1_555
C3_6 H2_6 1_555 1_555
C19_6 H18_6 1_555 1_555
Co1_8 O1_8 1_555 1_555
O2_6 C6_6 1_555 1_555
N1_6 Co1_8 1_555 1_555
C1_6 H1_6 1_555 1_555
Co5_3 O5_6 1_555 1_555
O3_8 Co1_8 1_555 1_555
O4_6 C14_6 1_555 1_555
C2_6 C1_6 1_555 1_555
N2_6 N1_6 1_555 1_555
N3_6 N2_6 1_555 1_555
N4_6 N3_6 1_555 1_555
N5_6 C2_6 1_555 1_555
H4_6 N5_6 1_555 1_555
N25_3 C1_6 1_555 1_555
N7_6 Co1_8 1_555 1_555
N8_6 H5_6 1_555 1_555
N9_6 N10_6 1_555 1_555
C5_6 C2_6 1_555 1_555
H6_6 C5_6 1_555 1_555
N10_6 N11_6 1_555 1_555
C6_6 N5_6 1_555 1_555
N11_6 N12_6 1_555 1_555
C7_6 N4_6 1_555 1_555
H7_6 C7_6 1_555 1_555
H8_6 C7_6 1_555 1_555
N12_6 Co5_3 1_555 1_555
C8_6 N1_6 1_555 1_555
H9_6 C8_6 1_555 1_555
C9_6 N7_6 1_555 1_555
H10_6 C9_6 1_555 1_555
C10_6 C9_6 1_555 1_555
H11_6 C10_6 1_555 1_555
C11_6 C10_6 1_555 1_555
H12_6 C11_6 1_555 1_555
C12_6 N7_6 1_555 1_555
H13_6 C12_6 1_555 1_555
C13_6 N8_6 1_555 1_555
C14_6 N8_6 1_555 1_555
C15_6 N9_6 1_555 1_555
H14_6 C15_6 1_555 1_555
H15_6 C15_6 1_555 1_555
C16_6 N9_6 1_555 1_555
H16_6 C16_6 1_555 1_555
O6_6 C22_6 1_555 1_555
N13_6 Co1_8 1_555 1_555
C17_6 H17_6 1_555 1_555
O7_6 C30_6 1_555 1_555
C18_6 C17_6 1_555 1_555
N14_6 N13_6 1_555 1_555
N15_6 N14_6 1_555 1_555
N16_6 N15_6 1_555 1_555
N17_6 C18_6 1_555 1_555
H20_6 N17_6 1_555 1_555
N18_4 C17_6 1_555 1_555
N19_6 Co1_8 1_555 1_555
N20_6 H21_6 1_555 1_555
N21_6 N22_6 1_555 1_555
C21_6 C18_6 1_555 1_555
H22_6 C21_6 1_555 1_555
N22_6 N23_6 1_555 1_555
C22_6 N17_6 1_555 1_555
N23_6 N24_4 1_555 1_555
C23_6 N16_6 1_555 1_555
H23_6 C23_6 1_555 1_555
H24_6 C23_6 1_555 1_555
N24_4 C32_6 1_555 1_555
C24_6 N13_6 1_555 1_555
H25_6 C24_6 1_555 1_555
C25_6 N19_6 1_555 1_555
H26_6 C25_6 1_555 1_555
C26_6 C25_6 1_555 1_555
H27_6 C26_6 1_555 1_555
C27_6 C26_6 1_555 1_555
H28_6 C27_6 1_555 1_555
C28_6 N19_6 1_555 1_555
H29_6 C28_6 1_555 1_555
C29_6 N20_6 1_555 1_555
C30_6 N20_6 1_555 1_555
C31_6 N21_6 1_555 1_555
H30_6 C31_6 1_555 1_555
H31_6 C31_6 1_555 1_555
C32_6 N21_6 1_555 1_555
H32_6 C32_6 1_555 1_555
O8_6 Co5_3 1_555 1_555
Co4_3 N18_4 1_555 1_555
Co3_3 N24_4 1_555 1_555
N26_4 Co5_3 1_555 1_555
N27_4 Co5_3 1_555 1_555
N4_6 C8_6 1_555 1_555
C4_6 C5_6 1_555 1_555
C6_6 C7_6 1_555 1_555
N12_6 C16_6 1_555 1_555
C11_6 C13_6 1_555 1_555
C12_6 C13_6 1_555 1_555
C14_6 C15_6 1_555 1_555
N16_6 C24_6 1_555 1_555
C20_6 C21_6 1_555 1_555
C22_6 C23_6 1_555 1_555
C27_6 C29_6 1_555 1_555
C28_6 C29_6 1_555 1_555
C30_6 C31_6 1_555 1_555
Co1_9 O1_9 1_555 1_555
O2_7 C6_7 1_555 1_555
N1_7 Co1_9 1_555 1_555
C1_7 H1_7 1_555 1_555
O3_9 Co1_9 1_555 1_555
C2_7 C1_7 1_555 1_555
N2_7 N1_7 1_555 1_555
N3_7 N2_7 1_555 1_555
C3_7 H2_7 1_555 1_555
N4_7 N3_7 1_555 1_555
C4_7 C3_7 1_555 1_555
H3_7 C4_7 1_555 1_555
N5_7 C2_7 1_555 1_555
H4_7 N5_7 1_555 1_555
N6_4 C1_7 1_555 1_555
C5_7 C2_7 1_555 1_555
H6_7 C5_7 1_555 1_555
C6_7 N5_7 1_555 1_555
C7_7 N4_7 1_555 1_555
H7_7 C7_7 1_555 1_555
H8_7 C7_7 1_555 1_555
C8_7 N1_7 1_555 1_555
H9_7 C8_7 1_555 1_555
O7_7 C30_7 1_555 1_555
N19_7 Co1_9 1_555 1_555
N20_7 H21_7 1_555 1_555
C25_7 N19_7 1_555 1_555
H26_7 C25_7 1_555 1_555
C26_7 C25_7 1_555 1_555
H27_7 C26_7 1_555 1_555
C27_7 C26_7 1_555 1_555
H28_7 C27_7 1_555 1_555
C28_7 N19_7 1_555 1_555
H29_7 C28_7 1_555 1_555
C29_7 N20_7 1_555 1_555
C30_7 N20_7 1_555 1_555
H32_7 C32_7 1_555 1_555
Co3_3 N6_4 1_555 1_555
C3_7 N6_4 1_555 1_555
N4_7 C8_7 1_555 1_555
C4_7 C5_7 1_555 1_555
C6_7 C7_7 1_555 1_555
C27_7 C29_7 1_555 1_555
C28_7 C29_7 1_555 1_555
O3_9 H34_7 1_555 1_555
O1_9 H35_8 1_555 1_555
N21_7 N22_7 1_555 1_555
N22_7 N23_7 1_555 1_555
N23_7 N27_3 1_555 1_555
C31_7 N21_7 1_555 1_555
H31_7 C31_7 1_555 1_555
Co1_10 O1_10 1_555 1_555
O3_10 Co1_10 1_555 1_555
O4_7 C14_7 1_555 1_555
N7_7 Co1_10 1_555 1_555
N8_7 H5_7 1_555 1_555
C9_7 N7_7 1_555 1_555
H10_7 C9_7 1_555 1_555
C10_7 C9_7 1_555 1_555
H11_7 C10_7 1_555 1_555
C11_7 C10_7 1_555 1_555
H12_7 C11_7 1_555 1_555
C12_7 N7_7 1_555 1_555
H13_7 C12_7 1_555 1_555
C13_7 N8_7 1_555 1_555
C14_7 N8_7 1_555 1_555
H16_7 C16_7 1_555 1_555
O6_7 C22_7 1_555 1_555
N13_7 Co1_10 1_555 1_555
C17_7 H17_7 1_555 1_555
C18_7 C17_7 1_555 1_555
N14_7 N13_7 1_555 1_555
N15_7 N14_7 1_555 1_555
C19_7 H18_7 1_555 1_555
N16_7 N15_7 1_555 1_555
C20_7 C19_7 1_555 1_555
H19_7 C20_7 1_555 1_555
N17_7 C18_7 1_555 1_555
H20_7 N17_7 1_555 1_555
N26_4 C17_7 1_555 1_555
C21_7 C18_7 1_555 1_555
H22_7 C21_7 1_555 1_555
C22_7 N17_7 1_555 1_555
C23_7 N16_7 1_555 1_555
H23_7 C23_7 1_555 1_555
H24_7 C23_7 1_555 1_555
C24_7 N13_7 1_555 1_555
H25_7 C24_7 1_555 1_555
O8_7 Co4_2 1_555 1_555
N25_4 Co4_2 1_555 1_555
C11_7 C13_7 1_555 1_555
C12_7 C13_7 1_555 1_555
C19_7 N26_4 1_555 1_555
N16_7 C24_7 1_555 1_555
C20_7 C21_7 1_555 1_555
C22_7 C23_7 1_555 1_555
O3_10 H33_8 1_555 1_555
O3_10 H34_8 1_555 1_555
O1_10 H36_8 1_555 1_555
Co4_3 O5_7 1_555 1_555
N9_7 N10_7 1_555 1_555
N10_7 N11_7 1_555 1_555
N11_7 N12_7 1_555 1_555
N12_7 Co4_3 1_555 1_555
C15_7 N9_7 1_555 1_555
H15_7 C15_7 1_555 1_555
Co3_3 O5_8 1_555 1_555
O4_8 C14_8 1_555 1_555
N8_8 H5_8 1_555 1_555
N9_8 N10_8 1_555 1_555
N10_8 N11_8 1_555 1_555
N11_8 N12_8 1_555 1_555
N12_8 Co3_3 1_555 1_555
C9_8 N7_8 1_555 1_555
H10_8 C9_8 1_555 1_555
C10_8 C9_8 1_555 1_555
H11_8 C10_8 1_555 1_555
C11_8 C10_8 1_555 1_555
H12_8 C11_8 1_555 1_555
C12_8 N7_8 1_555 1_555
H13_8 C12_8 1_555 1_555
C13_8 N8_8 1_555 1_555
C14_8 N8_8 1_555 1_555
C15_8 N9_8 1_555 1_555
H14_8 C15_8 1_555 1_555
H15_8 C15_8 1_555 1_555
C16_8 N9_8 1_555 1_555
H16_8 C16_8 1_555 1_555
O8_8 Co3_3 1_555 1_555
N12_8 C16_8 1_555 1_555
C11_8 C13_8 1_555 1_555
C12_8 C13_8 1_555 1_555
C14_8 C15_8 1_555 1_555
Co1_11 O1_11 1_555 1_555
O3_11 Co1_11 1_555 1_555
O6_8 C22_8 1_555 1_555
N13_8 Co1_11 1_555 1_555
C17_8 H17_8 1_555 1_555
C18_8 C17_8 1_555 1_555
N14_8 N13_8 1_555 1_555
N15_8 N14_8 1_555 1_555
N16_8 N15_8 1_555 1_555
N17_8 C18_8 1_555 1_555
H20_8 N17_8 1_555 1_555
N26_3 C17_8 1_555 1_555
C21_8 C18_8 1_555 1_555
H22_8 C21_8 1_555 1_555
C22_8 N17_8 1_555 1_555
C23_8 N16_8 1_555 1_555
H23_8 C23_8 1_555 1_555
H24_8 C23_8 1_555 1_555
C24_8 N13_8 1_555 1_555
H25_8 C24_8 1_555 1_555
N16_8 C24_8 1_555 1_555
C20_8 C21_8 1_555 1_555
C22_8 C23_8 1_555 1_555
O3_11 H33_9 1_555 1_555
C19_8 H18_8 1_555 1_555
O7_8 C30_8 1_555 1_555
N20_8 H21_8 1_555 1_555
N21_8 N22_8 1_555 1_555
N22_8 N23_8 1_555 1_555
N23_8 N27_4 1_555 1_555
N27_4 C32_8 1_555 1_555
C25_8 N19_8 1_555 1_555
H26_8 C25_8 1_555 1_555
C26_8 C25_8 1_555 1_555
H27_8 C26_8 1_555 1_555
C27_8 C26_8 1_555 1_555
H28_8 C27_8 1_555 1_555
C28_8 N19_8 1_555 1_555
H29_8 C28_8 1_555 1_555
C29_8 N20_8 1_555 1_555
C30_8 N20_8 1_555 1_555
C31_8 N21_8 1_555 1_555
H30_8 C31_8 1_555 1_555
H31_8 C31_8 1_555 1_555
C32_8 N21_8 1_555 1_555
H32_8 C32_8 1_555 1_555
C27_8 C29_8 1_555 1_555
C28_8 C29_8 1_555 1_555
C30_8 C31_8 1_555 1_555
Co1_12 O1_12 1_555 1_555
O2_8 C6_8 1_555 1_555
N1_8 Co1_12 1_555 1_555
C1_8 H1_8 1_555 1_555
O3_12 Co1_12 1_555 1_555
C2_8 C1_8 1_555 1_555
N2_8 N1_8 1_555 1_555
N3_8 N2_8 1_555 1_555
N4_8 N3_8 1_555 1_555
N5_8 C2_8 1_555 1_555
H4_8 N5_8 1_555 1_555
N25_4 C1_8 1_555 1_555
C5_8 C2_8 1_555 1_555
H6_8 C5_8 1_555 1_555
C6_8 N5_8 1_555 1_555
C7_8 N4_8 1_555 1_555
H7_8 C7_8 1_555 1_555
H8_8 C7_8 1_555 1_555
C8_8 N1_8 1_555 1_555
H9_8 C8_8 1_555 1_555
N4_8 C8_8 1_555 1_555
C4_8 C5_8 1_555 1_555
C6_8 C7_8 1_555 1_555
O1_12 H35_9 1_555 1_555
C3_8 H2_8 1_555 1_555
O3_9 H33_10 1_555 1_555
O1_9 H36_10 1_555 1_555
O1_10 H35_10 1_555 1_555
O1_11 H35_11 1_555 1_555
O3_12 H33_11 1_555 1_555
O3_7 H33_12 1_555 1_555
O1_7 H35_12 1_555 1_555
O9 Mo1 1_555 1_555
O10 Mo1 1_555 1_555
O11 Mo1 1_555 1_555
Mo1 O20 1_555 1_555
O12 Mo2 1_555 1_555
Mo2 O11 1_555 1_555
O13 Mo2 1_555 1_555
Mo3 O18 1_555 1_555
O14 Mo2 1_555 1_555
Mo4 O14 1_555 1_555
O15 Mo4 1_555 1_555
O16 Mo4 1_555 1_555
O17 Mo4 1_555 1_555
O18 Mo2 1_555 1_555
O19 Mo3 1_555 1_555
O21 Mo1 1_555 1_555
O22 Mo1 1_555 1_555
O23 Mo5 1_555 1_555
O24 Mo5 1_555 1_555
Mo5 O9 1_555 1_555
O25 Mo6 1_555 1_555
Mo6 O24 1_555 1_555
O26 Mo6 1_555 1_555
Mo7 O9 1_555 1_555
O27 Mo6 1_555 1_555
Mo8 O17 1_555 1_555
O28 Mo8 1_555 1_555
O29 Mo8 1_555 1_555
O30 Mo3 1_555 1_555
O31 Mo6 1_555 1_555
O32 Mo7 1_555 1_555
O33 Mo5 1_555 1_555
O34 Mo3 1_555 1_555
Mo2 O21 1_555 1_555
Mo3 O21 1_555 1_555
Mo3 O22 1_555 1_555
Mo4 O21 1_555 1_555
Mo4 O30 1_555 1_555
O17 Mo7 1_555 1_555
O21 Mo7 1_555 1_555
O22 Mo5 1_555 1_555
Mo5 O34 1_555 1_555
Mo6 O34 1_555 1_555
Mo7 O31 1_555 1_555
Mo7 O34 1_555 1_555
O27 Mo8 1_555 1_555
Mo8 O30 1_555 1_555
Mo8 O34 1_555 1_555
Mo3_2 O18_2 1_555 1_555
O19_2 Mo3_2 1_555 1_555
O30_2 Mo3_2 1_555 1_555
Mo3_2 O22_2 1_555 1_555
O10_2 Mo1_2 1_555 1_555
O11_2 Mo1_2 1_555 1_555
Mo1_2 O20_2 1_555 1_555
O12_2 Mo2_2 1_555 1_555
Mo2_2 O11_2 1_555 1_555
O13_2 Mo2_2 1_555 1_555
O14_2 Mo2_2 1_555 1_555
Mo4_2 O14_2 1_555 1_555
O15_2 Mo4_2 1_555 1_555
O16_2 Mo4_2 1_555 1_555
O21_2 Mo1_2 1_555 1_555
Mo2_2 O21_2 1_555 1_555
Mo4_2 O21_2 1_555 1_555
O23_2 Mo5_2 1_555 1_555
O24_2 Mo5_2 1_555 1_555
O25_2 Mo6_2 1_555 1_555
Mo6_2 O24_2 1_555 1_555
O26_2 Mo6_2 1_555 1_555
O27_2 Mo6_2 1_555 1_555
O28_2 Mo8_2 1_555 1_555
O29_2 Mo8_2 1_555 1_555
O33_2 Mo5_2 1_555 1_555
Mo5_2 O34_2 1_555 1_555
Mo6_2 O34_2 1_555 1_555
O27_2 Mo8_2 1_555 1_555
Mo8_2 O34_2 1_555 1_555
Mo7_2 O9_2 1_555 1_555
O32_2 Mo7_2 1_555 1_555
O17_2 Mo7_2 1_555 1_555
Mo7_2 O31_2 1_555 1_555
O9_3 Mo1_3 1_555 1_555
O10_3 Mo1_3 1_555 1_555
O11_3 Mo1_3 1_555 1_555
Mo1_3 O20_3 1_555 1_555
O12_3 Mo2_3 1_555 1_555
Mo2_3 O11_3 1_555 1_555
O13_3 Mo2_3 1_555 1_555
O14_3 Mo2_3 1_555 1_555
Mo4_3 O14_3 1_555 1_555
O15_3 Mo4_3 1_555 1_555
O16_3 Mo4_3 1_555 1_555
O17_3 Mo4_3 1_555 1_555
O21_3 Mo1_3 1_555 1_555
Mo7_3 O9_3 1_555 1_555
O32_3 Mo7_3 1_555 1_555
Mo2_3 O21_3 1_555 1_555
Mo4_3 O21_3 1_555 1_555
O17_3 Mo7_3 1_555 1_555
O21_3 Mo7_3 1_555 1_555
Mo7_3 O31_3 1_555 1_555
Mo3_3 O18_3 1_555 1_555
O19_3 Mo3_3 1_555 1_555
O23_3 Mo5_3 1_555 1_555
O24_3 Mo5_3 1_555 1_555
O25_3 Mo6_3 1_555 1_555
Mo6_3 O24_3 1_555 1_555
O26_3 Mo6_3 1_555 1_555
O27_3 Mo6_3 1_555 1_555
O28_3 Mo8_3 1_555 1_555
O29_3 Mo8_3 1_555 1_555
O30_3 Mo3_3 1_555 1_555
O33_3 Mo5_3 1_555 1_555
O34_3 Mo3_3 1_555 1_555
Mo3_3 O22_3 1_555 1_555
O22_3 Mo5_3 1_555 1_555
Mo5_3 O34_3 1_555 1_555
Mo6_3 O34_3 1_555 1_555
O27_3 Mo8_3 1_555 1_555
Mo8_3 O30_3 1_555 1_555
Mo8_3 O34_3 1_555 1_555
O23_4 Mo5_4 1_555 1_555
O24_4 Mo5_4 1_555 1_555
Mo5_4 O9_4 1_555 1_555
O25_4 Mo6_4 1_555 1_555
Mo6_4 O24_4 1_555 1_555
O26_4 Mo6_4 1_555 1_555
Mo7_4 O9_4 1_555 1_555
O27_4 Mo6_4 1_555 1_555
Mo8_4 O17_4 1_555 1_555
O28_4 Mo8_4 1_555 1_555
O29_4 Mo8_4 1_555 1_555
O31_4 Mo6_4 1_555 1_555
O32_4 Mo7_4 1_555 1_555
O33_4 Mo5_4 1_555 1_555
O17_4 Mo7_4 1_555 1_555
Mo5_4 O34_4 1_555 1_555
Mo6_4 O34_4 1_555 1_555
Mo7_4 O31_4 1_555 1_555
Mo7_4 O34_4 1_555 1_555
O27_4 Mo8_4 1_555 1_555
Mo8_4 O34_4 1_555 1_555
O10_4 Mo1_4 1_555 1_555
O11_4 Mo1_4 1_555 1_555
Mo1_4 O20_4 1_555 1_555
O12_4 Mo2_4 1_555 1_555
Mo2_4 O11_4 1_555 1_555
O13_4 Mo2_4 1_555 1_555
Mo3_4 O18_4 1_555 1_555
O14_4 Mo2_4 1_555 1_555
Mo4_4 O14_4 1_555 1_555
O15_4 Mo4_4 1_555 1_555
O16_4 Mo4_4 1_555 1_555
O18_4 Mo2_4 1_555 1_555
O19_4 Mo3_4 1_555 1_555
O21_4 Mo1_4 1_555 1_555
O22_4 Mo1_4 1_555 1_555
O30_4 Mo3_4 1_555 1_555
Mo2_4 O21_4 1_555 1_555
Mo3_4 O21_4 1_555 1_555
Mo3_4 O22_4 1_555 1_555
Mo4_4 O21_4 1_555 1_555
Mo4_4 O30_4 1_555 1_555
O9_5 Mo1_5 1_555 1_555
O10_5 Mo1_5 1_555 1_555
O11_5 Mo1_5 1_555 1_555
Mo1_5 O20_5 1_555 1_555
O12_5 Mo2_5 1_555 1_555
Mo2_5 O11_5 1_555 1_555
O13_5 Mo2_5 1_555 1_555
Mo3_5 O18_5 1_555 1_555
O14_5 Mo2_5 1_555 1_555
Mo4_5 O14_5 1_555 1_555
O15_5 Mo4_5 1_555 1_555
O16_5 Mo4_5 1_555 1_555
O17_5 Mo4_5 1_555 1_555
O18_5 Mo2_5 1_555 1_555
O19_5 Mo3_5 1_555 1_555
O21_5 Mo1_5 1_555 1_555
O22_5 Mo1_5 1_555 1_555
O23_5 Mo5_5 1_555 1_555
O24_5 Mo5_5 1_555 1_555
Mo5_5 O9_5 1_555 1_555
O25_5 Mo6_5 1_555 1_555
Mo6_5 O24_5 1_555 1_555
O26_5 Mo6_5 1_555 1_555
Mo7_5 O9_5 1_555 1_555
O27_5 Mo6_5 1_555 1_555
Mo8_5 O17_5 1_555 1_555
O28_5 Mo8_5 1_555 1_555
O29_5 Mo8_5 1_555 1_555
O30_5 Mo3_5 1_555 1_555
O31_5 Mo6_5 1_555 1_555
O32_5 Mo7_5 1_555 1_555
O33_5 Mo5_5 1_555 1_555
O34_5 Mo3_5 1_555 1_555
Mo2_5 O21_5 1_555 1_555
Mo3_5 O21_5 1_555 1_555
Mo3_5 O22_5 1_555 1_555
Mo4_5 O21_5 1_555 1_555
Mo4_5 O30_5 1_555 1_555
O17_5 Mo7_5 1_555 1_555
O21_5 Mo7_5 1_555 1_555
O22_5 Mo5_5 1_555 1_555
Mo5_5 O34_5 1_555 1_555
Mo6_5 O34_5 1_555 1_555
Mo7_5 O31_5 1_555 1_555
Mo7_5 O34_5 1_555 1_555
O27_5 Mo8_5 1_555 1_555
Mo8_5 O30_5 1_555 1_555
Mo8_5 O34_5 1_555 1_555
Mo7_6 O9_6 1_555 1_555
O32_6 Mo7_6 1_555 1_555
O17_6 Mo7_6 1_555 1_555
Mo7_6 O31_6 1_555 1_555
O23_6 Mo5_6 1_555 1_555
O24_6 Mo5_6 1_555 1_555
O25_6 Mo6_6 1_555 1_555
Mo6_6 O24_6 1_555 1_555
O26_6 Mo6_6 1_555 1_555
O27_6 Mo6_6 1_555 1_555
O28_6 Mo8_6 1_555 1_555
O29_6 Mo8_6 1_555 1_555
O33_6 Mo5_6 1_555 1_555
Mo5_6 O34_6 1_555 1_555
Mo6_6 O34_6 1_555 1_555
O27_6 Mo8_6 1_555 1_555
Mo8_6 O34_6 1_555 1_555
O10_6 Mo1_6 1_555 1_555
O11_6 Mo1_6 1_555 1_555
Mo1_6 O20_6 1_555 1_555
O12_6 Mo2_6 1_555 1_555
Mo2_6 O11_6 1_555 1_555
O13_6 Mo2_6 1_555 1_555
O14_6 Mo2_6 1_555 1_555
Mo4_6 O14_6 1_555 1_555
O15_6 Mo4_6 1_555 1_555
O16_6 Mo4_6 1_555 1_555
O21_6 Mo1_6 1_555 1_555
Mo2_6 O21_6 1_555 1_555
Mo4_6 O21_6 1_555 1_555
Mo3_6 O18_6 1_555 1_555
O19_6 Mo3_6 1_555 1_555
O30_6 Mo3_6 1_555 1_555
Mo3_6 O22_6 1_555 1_555
Mo3_7 O18_7 1_555 1_555
O19_7 Mo3_7 1_555 1_555
O23_7 Mo5_7 1_555 1_555
O24_7 Mo5_7 1_555 1_555
O25_7 Mo6_7 1_555 1_555
Mo6_7 O24_7 1_555 1_555
O26_7 Mo6_7 1_555 1_555
O27_7 Mo6_7 1_555 1_555
O28_7 Mo8_7 1_555 1_555
O29_7 Mo8_7 1_555 1_555
O30_7 Mo3_7 1_555 1_555
O33_7 Mo5_7 1_555 1_555
O34_7 Mo3_7 1_555 1_555
Mo3_7 O22_7 1_555 1_555
O22_7 Mo5_7 1_555 1_555
Mo5_7 O34_7 1_555 1_555
Mo6_7 O34_7 1_555 1_555
O27_7 Mo8_7 1_555 1_555
Mo8_7 O30_7 1_555 1_555
Mo8_7 O34_7 1_555 1_555
O9_7 Mo1_7 1_555 1_555
O10_7 Mo1_7 1_555 1_555
O11_7 Mo1_7 1_555 1_555
Mo1_7 O20_7 1_555 1_555
O12_7 Mo2_7 1_555 1_555
Mo2_7 O11_7 1_555 1_555
O13_7 Mo2_7 1_555 1_555
O14_7 Mo2_7 1_555 1_555
Mo4_7 O14_7 1_555 1_555
O15_7 Mo4_7 1_555 1_555
O16_7 Mo4_7 1_555 1_555
O17_7 Mo4_7 1_555 1_555
O21_7 Mo1_7 1_555 1_555
Mo7_7 O9_7 1_555 1_555
O32_7 Mo7_7 1_555 1_555
Mo2_7 O21_7 1_555 1_555
Mo4_7 O21_7 1_555 1_555
O17_7 Mo7_7 1_555 1_555
O21_7 Mo7_7 1_555 1_555
Mo7_7 O31_7 1_555 1_555
O10_8 Mo1_8 1_555 1_555
O11_8 Mo1_8 1_555 1_555
Mo1_8 O20_8 1_555 1_555
O12_8 Mo2_8 1_555 1_555
Mo2_8 O11_8 1_555 1_555
O13_8 Mo2_8 1_555 1_555
Mo3_8 O18_8 1_555 1_555
O14_8 Mo2_8 1_555 1_555
Mo4_8 O14_8 1_555 1_555
O15_8 Mo4_8 1_555 1_555
O16_8 Mo4_8 1_555 1_555
O18_8 Mo2_8 1_555 1_555
O19_8 Mo3_8 1_555 1_555
O21_8 Mo1_8 1_555 1_555
O22_8 Mo1_8 1_555 1_555
O30_8 Mo3_8 1_555 1_555
Mo2_8 O21_8 1_555 1_555
Mo3_8 O21_8 1_555 1_555
Mo3_8 O22_8 1_555 1_555
Mo4_8 O21_8 1_555 1_555
Mo4_8 O30_8 1_555 1_555
O23_8 Mo5_8 1_555 1_555
O24_8 Mo5_8 1_555 1_555
Mo5_8 O9_8 1_555 1_555
O25_8 Mo6_8 1_555 1_555
Mo6_8 O24_8 1_555 1_555
O26_8 Mo6_8 1_555 1_555
Mo7_8 O9_8 1_555 1_555
O27_8 Mo6_8 1_555 1_555
Mo8_8 O17_8 1_555 1_555
O28_8 Mo8_8 1_555 1_555
O29_8 Mo8_8 1_555 1_555
O31_8 Mo6_8 1_555 1_555
O32_8 Mo7_8 1_555 1_555
O33_8 Mo5_8 1_555 1_555
O17_8 Mo7_8 1_555 1_555
Mo5_8 O34_8 1_555 1_555
Mo6_8 O34_8 1_555 1_555
Mo7_8 O31_8 1_555 1_555
Mo7_8 O34_8 1_555 1_555
O27_8 Mo8_8 1_555 1_555
Mo8_8 O34_8 1_555 1_555
Mo9 O35 1_555 1_555
Mo10 O39 1_555 1_555
Mo11 O44 1_555 1_555
Mo12 O37 1_555 1_555
Mo13 O43 1_555 1_555
Mo14 O36 1_555 1_555
O36 Mo9 1_555 1_555
O38 Mo14 1_555 1_555
O40 Mo12 1_555 1_555
O41 Mo14 1_555 1_555
O42 Mo10 1_555 1_555
O44 Mo13 1_555 1_555
O45 Mo11 1_555 1_555
O46 Mo13 1_555 1_555
O47 Mo9 1_555 1_555
O48 Mo12 1_555 1_555
O49 Mo10 1_555 1_555
O50 Mo9 1_555 1_555
O51 Mo9 1_555 1_555
O52 Mo14 1_555 1_555
Mo15 O41 1_555 1_555
Mo16 O47 1_555 1_555
O53 Mo16 1_555 1_555
O54 Mo15 1_555 1_555
O55 Mo16 1_555 1_555
O56 Mo10 1_555 1_555
O57 Mo15 1_555 1_555
O58 Mo13 1_555 1_555
O59 Mo11 1_555 1_555
O60 Mo9 1_555 1_555
Mo10 O50 1_555 1_555
Mo10 O51 1_555 1_555
Mo11 O47 1_555 1_555
Mo11 O49 1_555 1_555
Mo11 O51 1_555 1_555
Mo12 O47 1_555 1_555
Mo12 O49 1_555 1_555
Mo12 O50 1_555 1_555
Mo13 O47 1_555 1_555
Mo13 O48 1_555 1_555
Mo14 O51 1_555 1_555
Mo14 O56 1_555 1_555
O51 Mo15 1_555 1_555
Mo15 O59 1_555 1_555
Mo15 O60 1_555 1_555
Mo16 O58 1_555 1_555
Mo16 O59 1_555 1_555
Mo16 O60 1_555 1_555
Mo9_2 O35_2 1_555 1_555
Mo10_2 O39_2 1_555 1_555
Mo11_2 O44_2 1_555 1_555
Mo12_2 O37_2 1_555 1_555
Mo13_2 O43_2 1_555 1_555
Mo14_2 O36_2 1_555 1_555
O36_2 Mo9_2 1_555 1_555
O38_2 Mo14_2 1_555 1_555
O40_2 Mo12_2 1_555 1_555
O41_2 Mo14_2 1_555 1_555
O42_2 Mo10_2 1_555 1_555
O44_2 Mo13_2 1_555 1_555
O45_2 Mo11_2 1_555 1_555
O46_2 Mo13_2 1_555 1_555
O47_2 Mo9_2 1_555 1_555
O48_2 Mo12_2 1_555 1_555
O49_2 Mo10_2 1_555 1_555
O50_2 Mo9_2 1_555 1_555
O51_2 Mo9_2 1_555 1_555
O52_2 Mo14_2 1_555 1_555
Mo15_2 O41_2 1_555 1_555
Mo16_2 O47_2 1_555 1_555
O53_2 Mo16_2 1_555 1_555
O54_2 Mo15_2 1_555 1_555
O55_2 Mo16_2 1_555 1_555
O56_2 Mo10_2 1_555 1_555
O57_2 Mo15_2 1_555 1_555
O58_2 Mo13_2 1_555 1_555
O59_2 Mo11_2 1_555 1_555
O60_2 Mo9_2 1_555 1_555
Mo10_2 O50_2 1_555 1_555
Mo10_2 O51_2 1_555 1_555
Mo11_2 O47_2 1_555 1_555
Mo11_2 O49_2 1_555 1_555
Mo11_2 O51_2 1_555 1_555
Mo12_2 O47_2 1_555 1_555
Mo12_2 O49_2 1_555 1_555
Mo12_2 O50_2 1_555 1_555
Mo13_2 O47_2 1_555 1_555
Mo13_2 O48_2 1_555 1_555
Mo14_2 O51_2 1_555 1_555
Mo14_2 O56_2 1_555 1_555
O51_2 Mo15_2 1_555 1_555
Mo15_2 O59_2 1_555 1_555
Mo15_2 O60_2 1_555 1_555
Mo16_2 O58_2 1_555 1_555
Mo16_2 O59_2 1_555 1_555
Mo16_2 O60_2 1_555 1_555
Mo9_3 O35_3 1_555 1_555
Mo10_3 O39_3 1_555 1_555
Mo11_3 O44_3 1_555 1_555
Mo12_3 O37_3 1_555 1_555
Mo13_3 O43_3 1_555 1_555
Mo14_3 O36_3 1_555 1_555
O36_3 Mo9_3 1_555 1_555
O38_3 Mo14_3 1_555 1_555
O40_3 Mo12_3 1_555 1_555
O41_3 Mo14_3 1_555 1_555
O42_3 Mo10_3 1_555 1_555
O44_3 Mo13_3 1_555 1_555
O45_3 Mo11_3 1_555 1_555
O46_3 Mo13_3 1_555 1_555
O47_3 Mo9_3 1_555 1_555
O48_3 Mo12_3 1_555 1_555
O49_3 Mo10_3 1_555 1_555
O50_3 Mo9_3 1_555 1_555
O51_3 Mo9_3 1_555 1_555
O52_3 Mo14_3 1_555 1_555
Mo15_3 O41_3 1_555 1_555
Mo16_3 O47_3 1_555 1_555
O53_3 Mo16_3 1_555 1_555
O54_3 Mo15_3 1_555 1_555
O55_3 Mo16_3 1_555 1_555
O56_3 Mo10_3 1_555 1_555
O57_3 Mo15_3 1_555 1_555
O58_3 Mo13_3 1_555 1_555
O59_3 Mo11_3 1_555 1_555
O60_3 Mo9_3 1_555 1_555
Mo10_3 O50_3 1_555 1_555
Mo10_3 O51_3 1_555 1_555
Mo11_3 O47_3 1_555 1_555
Mo11_3 O49_3 1_555 1_555
Mo11_3 O51_3 1_555 1_555
Mo12_3 O47_3 1_555 1_555
Mo12_3 O49_3 1_555 1_555
Mo12_3 O50_3 1_555 1_555
Mo13_3 O47_3 1_555 1_555
Mo13_3 O48_3 1_555 1_555
Mo14_3 O51_3 1_555 1_555
Mo14_3 O56_3 1_555 1_555
O51_3 Mo15_3 1_555 1_555
Mo15_3 O59_3 1_555 1_555
Mo15_3 O60_3 1_555 1_555
Mo16_3 O58_3 1_555 1_555
Mo16_3 O59_3 1_555 1_555
Mo16_3 O60_3 1_555 1_555
Mo9_4 O35_4 1_555 1_555
Mo11_4 O44_4 1_555 1_555
Mo13_4 O43_4 1_555 1_555
Mo14_4 O36_4 1_555 1_555
O36_4 Mo9_4 1_555 1_555
O38_4 Mo14_4 1_555 1_555
O41_4 Mo14_4 1_555 1_555
O44_4 Mo13_4 1_555 1_555
O45_4 Mo11_4 1_555 1_555
O46_4 Mo13_4 1_555 1_555
O47_4 Mo9_4 1_555 1_555
O51_4 Mo9_4 1_555 1_555
O52_4 Mo14_4 1_555 1_555
Mo15_4 O41_4 1_555 1_555
Mo16_4 O47_4 1_555 1_555
O53_4 Mo16_4 1_555 1_555
O54_4 Mo15_4 1_555 1_555
O55_4 Mo16_4 1_555 1_555
O57_4 Mo15_4 1_555 1_555
O58_4 Mo13_4 1_555 1_555
O59_4 Mo11_4 1_555 1_555
O60_4 Mo9_4 1_555 1_555
Mo11_4 O47_4 1_555 1_555
Mo11_4 O51_4 1_555 1_555
Mo13_4 O47_4 1_555 1_555
Mo14_4 O51_4 1_555 1_555
O51_4 Mo15_4 1_555 1_555
Mo15_4 O59_4 1_555 1_555
Mo15_4 O60_4 1_555 1_555
Mo16_4 O58_4 1_555 1_555
Mo16_4 O59_4 1_555 1_555
Mo16_4 O60_4 1_555 1_555
Mo9_5 O35_5 1_555 1_555
Mo10_4 O39_4 1_555 1_555
Mo11_5 O44_5 1_555 1_555
Mo12_4 O37_4 1_555 1_555
Mo13_5 O43_5 1_555 1_555
Mo14_5 O36_5 1_555 1_555
O36_5 Mo9_5 1_555 1_555
O38_5 Mo14_5 1_555 1_555
O40_4 Mo12_4 1_555 1_555
O42_4 Mo10_4 1_555 1_555
O44_5 Mo13_5 1_555 1_555
O45_5 Mo11_5 1_555 1_555
O46_5 Mo13_5 1_555 1_555
O47_5 Mo9_5 1_555 1_555
O48_4 Mo12_4 1_555 1_555
O49_4 Mo10_4 1_555 1_555
O50_4 Mo9_5 1_555 1_555
O51_5 Mo9_5 1_555 1_555
O52_5 Mo14_5 1_555 1_555
O56_4 Mo10_4 1_555 1_555
Mo10_4 O50_4 1_555 1_555
Mo10_4 O51_5 1_555 1_555
Mo11_5 O47_5 1_555 1_555
Mo11_5 O49_4 1_555 1_555
Mo11_5 O51_5 1_555 1_555
Mo12_4 O47_5 1_555 1_555
Mo12_4 O49_4 1_555 1_555
Mo12_4 O50_4 1_555 1_555
Mo13_5 O47_5 1_555 1_555
Mo13_5 O48_4 1_555 1_555
Mo14_5 O51_5 1_555 1_555
Mo14_5 O56_4 1_555 1_555
Mo9_6 O35_6 1_555 1_555
Mo10_5 O39_5 1_555 1_555
Mo11_6 O44_6 1_555 1_555
Mo12_5 O37_5 1_555 1_555
Mo13_6 O43_6 1_555 1_555
Mo14_6 O36_6 1_555 1_555
O36_6 Mo9_6 1_555 1_555
O38_6 Mo14_6 1_555 1_555
O40_5 Mo12_5 1_555 1_555
O42_5 Mo10_5 1_555 1_555
O44_6 Mo13_6 1_555 1_555
O45_6 Mo11_6 1_555 1_555
O46_6 Mo13_6 1_555 1_555
O47_6 Mo9_6 1_555 1_555
O48_5 Mo12_5 1_555 1_555
O49_5 Mo10_5 1_555 1_555
O50_5 Mo9_6 1_555 1_555
O51_6 Mo9_6 1_555 1_555
O52_6 Mo14_6 1_555 1_555
O56_5 Mo10_5 1_555 1_555
Mo10_5 O50_5 1_555 1_555
Mo10_5 O51_6 1_555 1_555
Mo11_6 O47_6 1_555 1_555
Mo11_6 O49_5 1_555 1_555
Mo11_6 O51_6 1_555 1_555
Mo12_5 O47_6 1_555 1_555
Mo12_5 O49_5 1_555 1_555
Mo12_5 O50_5 1_555 1_555
Mo13_6 O47_6 1_555 1_555
Mo13_6 O48_5 1_555 1_555
Mo14_6 O51_6 1_555 1_555
Mo14_6 O56_5 1_555 1_555
Mo9_7 O35_7 1_555 1_555
Mo11_7 O44_7 1_555 1_555
Mo13_7 O43_7 1_555 1_555
Mo14_7 O36_7 1_555 1_555
O36_7 Mo9_7 1_555 1_555
O38_7 Mo14_7 1_555 1_555
O41_5 Mo14_7 1_555 1_555
O44_7 Mo13_7 1_555 1_555
O45_7 Mo11_7 1_555 1_555
O46_7 Mo13_7 1_555 1_555
O47_7 Mo9_7 1_555 1_555
O51_7 Mo9_7 1_555 1_555
O52_7 Mo14_7 1_555 1_555
Mo15_5 O41_5 1_555 1_555
Mo16_5 O47_7 1_555 1_555
O53_5 Mo16_5 1_555 1_555
O54_5 Mo15_5 1_555 1_555
O55_5 Mo16_5 1_555 1_555
O57_5 Mo15_5 1_555 1_555
O58_5 Mo13_7 1_555 1_555
O59_5 Mo11_7 1_555 1_555
O60_5 Mo9_7 1_555 1_555
Mo11_7 O47_7 1_555 1_555
Mo11_7 O51_7 1_555 1_555
Mo13_7 O47_7 1_555 1_555
Mo14_7 O51_7 1_555 1_555
O51_7 Mo15_5 1_555 1_555
Mo15_5 O59_5 1_555 1_555
Mo15_5 O60_5 1_555 1_555
Mo16_5 O58_5 1_555 1_555
Mo16_5 O59_5 1_555 1_555
Mo16_5 O60_5 1_555 1_555
Mo9_8 O35_8 1_555 1_555
Mo11_8 O44_8 1_555 1_555
Mo13_8 O43_8 1_555 1_555
Mo14_8 O36_8 1_555 1_555
O36_8 Mo9_8 1_555 1_555
O38_8 Mo14_8 1_555 1_555
O41_6 Mo14_8 1_555 1_555
O44_8 Mo13_8 1_555 1_555
O45_8 Mo11_8 1_555 1_555
O46_8 Mo13_8 1_555 1_555
O47_8 Mo9_8 1_555 1_555
O51_8 Mo9_8 1_555 1_555
O52_8 Mo14_8 1_555 1_555
Mo15_6 O41_6 1_555 1_555
Mo16_6 O47_8 1_555 1_555
O53_6 Mo16_6 1_555 1_555
O54_6 Mo15_6 1_555 1_555
O55_6 Mo16_6 1_555 1_555
O57_6 Mo15_6 1_555 1_555
O58_6 Mo13_8 1_555 1_555
O59_6 Mo11_8 1_555 1_555
O60_6 Mo9_8 1_555 1_555
Mo11_8 O47_8 1_555 1_555
Mo11_8 O51_8 1_555 1_555
Mo13_8 O47_8 1_555 1_555
Mo14_8 O51_8 1_555 1_555
O51_8 Mo15_6 1_555 1_555
Mo15_6 O59_6 1_555 1_555
Mo15_6 O60_6 1_555 1_555
Mo16_6 O58_6 1_555 1_555
Mo16_6 O59_6 1_555 1_555
Mo16_6 O60_6 1_555 1_555
Mo9_9 O35_9 1_555 1_555
Mo10_6 O39_6 1_555 1_555
Mo11_9 O44_9 1_555 1_555
Mo12_6 O37_6 1_555 1_555
Mo13_9 O43_9 1_555 1_555
Mo14_9 O36_9 1_555 1_555
O36_9 Mo9_9 1_555 1_555
O38_9 Mo14_9 1_555 1_555
O40_6 Mo12_6 1_555 1_555
O42_6 Mo10_6 1_555 1_555
O44_9 Mo13_9 1_555 1_555
O45_9 Mo11_9 1_555 1_555
O46_9 Mo13_9 1_555 1_555
O47_9 Mo9_9 1_555 1_555
O48_6 Mo12_6 1_555 1_555
O49_6 Mo10_6 1_555 1_555
O50_6 Mo9_9 1_555 1_555
O51_9 Mo9_9 1_555 1_555
O52_9 Mo14_9 1_555 1_555
O56_6 Mo10_6 1_555 1_555
Mo10_6 O50_6 1_555 1_555
Mo10_6 O51_9 1_555 1_555
Mo11_9 O47_9 1_555 1_555
Mo11_9 O49_6 1_555 1_555
Mo11_9 O51_9 1_555 1_555
Mo12_6 O47_9 1_555 1_555
Mo12_6 O49_6 1_555 1_555
Mo12_6 O50_6 1_555 1_555
Mo13_9 O47_9 1_555 1_555
Mo13_9 O48_6 1_555 1_555
Mo14_9 O51_9 1_555 1_555
Mo14_9 O56_6 1_555 1_555
Mo9_10 O35_10 1_555 1_555
Mo10_7 O39_7 1_555 1_555
Mo11_10 O44_10 1_555 1_555
Mo12_7 O37_7 1_555 1_555
Mo13_10 O43_10 1_555 1_555
Mo14_10 O36_10 1_555 1_555
O36_10 Mo9_10 1_555 1_555
O38_10 Mo14_10 1_555 1_555
O40_7 Mo12_7 1_555 1_555
O42_7 Mo10_7 1_555 1_555
O44_10 Mo13_10 1_555 1_555
O45_10 Mo11_10 1_555 1_555
O46_10 Mo13_10 1_555 1_555
O47_10 Mo9_10 1_555 1_555
O48_7 Mo12_7 1_555 1_555
O49_7 Mo10_7 1_555 1_555
O50_7 Mo9_10 1_555 1_555
O51_10 Mo9_10 1_555 1_555
O52_10 Mo14_10 1_555 1_555
O56_7 Mo10_7 1_555 1_555
Mo10_7 O50_7 1_555 1_555
Mo10_7 O51_10 1_555 1_555
Mo11_10 O47_10 1_555 1_555
Mo11_10 O49_7 1_555 1_555
Mo11_10 O51_10 1_555 1_555
Mo12_7 O47_10 1_555 1_555
Mo12_7 O49_7 1_555 1_555
Mo12_7 O50_7 1_555 1_555
Mo13_10 O47_10 1_555 1_555
Mo13_10 O48_7 1_555 1_555
Mo14_10 O51_10 1_555 1_555
Mo14_10 O56_7 1_555 1_555
Mo9_11 O35_11 1_555 1_555
Mo11_11 O44_11 1_555 1_555
Mo13_11 O43_11 1_555 1_555
Mo14_11 O36_11 1_555 1_555
O36_11 Mo9_11 1_555 1_555
O38_11 Mo14_11 1_555 1_555
O41_7 Mo14_11 1_555 1_555
O44_11 Mo13_11 1_555 1_555
O45_11 Mo11_11 1_555 1_555
O46_11 Mo13_11 1_555 1_555
O47_11 Mo9_11 1_555 1_555
O51_11 Mo9_11 1_555 1_555
O52_11 Mo14_11 1_555 1_555
Mo15_7 O41_7 1_555 1_555
Mo16_7 O47_11 1_555 1_555
O53_7 Mo16_7 1_555 1_555
O54_7 Mo15_7 1_555 1_555
O55_7 Mo16_7 1_555 1_555
O57_7 Mo15_7 1_555 1_555
O58_7 Mo13_11 1_555 1_555
O59_7 Mo11_11 1_555 1_555
O60_7 Mo9_11 1_555 1_555
Mo11_11 O47_11 1_555 1_555
Mo11_11 O51_11 1_555 1_555
Mo13_11 O47_11 1_555 1_555
Mo14_11 O51_11 1_555 1_555
O51_11 Mo15_7 1_555 1_555
Mo15_7 O59_7 1_555 1_555
Mo15_7 O60_7 1_555 1_555
Mo16_7 O58_7 1_555 1_555
Mo16_7 O59_7 1_555 1_555
Mo16_7 O60_7 1_555 1_555
Mo9_12 O35_12 1_555 1_555
Mo10_8 O39_8 1_555 1_555
Mo11_12 O44_12 1_555 1_555
Mo12_8 O37_8 1_555 1_555
Mo13_12 O43_12 1_555 1_555
Mo14_12 O36_12 1_555 1_555
O36_12 Mo9_12 1_555 1_555
O38_12 Mo14_12 1_555 1_555
O40_8 Mo12_8 1_555 1_555
O41_8 Mo14_12 1_555 1_555
O42_8 Mo10_8 1_555 1_555
O44_12 Mo13_12 1_555 1_555
O45_12 Mo11_12 1_555 1_555
O46_12 Mo13_12 1_555 1_555
O47_12 Mo9_12 1_555 1_555
O48_8 Mo12_8 1_555 1_555
O49_8 Mo10_8 1_555 1_555
O50_8 Mo9_12 1_555 1_555
O51_12 Mo9_12 1_555 1_555
O52_12 Mo14_12 1_555 1_555
Mo15_8 O41_8 1_555 1_555
Mo16_8 O47_12 1_555 1_555
O53_8 Mo16_8 1_555 1_555
O54_8 Mo15_8 1_555 1_555
O55_8 Mo16_8 1_555 1_555
O56_8 Mo10_8 1_555 1_555
O57_8 Mo15_8 1_555 1_555
O58_8 Mo13_12 1_555 1_555
O59_8 Mo11_12 1_555 1_555
O60_8 Mo9_12 1_555 1_555
Mo10_8 O50_8 1_555 1_555
Mo10_8 O51_12 1_555 1_555
Mo11_12 O47_12 1_555 1_555
Mo11_12 O49_8 1_555 1_555
Mo11_12 O51_12 1_555 1_555
Mo12_8 O47_12 1_555 1_555
Mo12_8 O49_8 1_555 1_555
Mo12_8 O50_8 1_555 1_555
Mo13_12 O47_12 1_555 1_555
Mo13_12 O48_8 1_555 1_555
Mo14_12 O51_12 1_555 1_555
Mo14_12 O56_8 1_555 1_555
O51_12 Mo15_8 1_555 1_555
Mo15_8 O59_8 1_555 1_555
Mo15_8 O60_8 1_555 1_555
Mo16_8 O58_8 1_555 1_555
Mo16_8 O59_8 1_555 1_555
Mo16_8 O60_8 1_555 1_555

#END
