
###############################################################################
#
# This file contains modified crystal structure data generated from the
# MOF subset of the Cambridge Structural Database (CSD) v543 
# hosted by the Cambridge Crystallographic Data Centre (CCDC).
#
# This work is licensed under the Creative Commons
# Attribution-NonCommercial-ShareAlike 4.0 International License.
# To view a copy of this license, visit
# http://creativecommons.org/licenses/by-nc-sa/4.0/
# or send a letter to
# Creative Commons, PO Box 1866, Mountain View, CA 94042, USA.
#
# CIF created using the CSD Python API on 29 September 2022
# The structure has been converted into the P1 space group
# The structure has a 3D framework
# The original CSD entry ENEXIH is in the orthorhombic crystal system
# The framework has been calculated to contain at least 10.0% void space
# The void calculation uses a probe of radius 1.32A, grid spacing 0.4
# H atom positions have been added when not included in the experimental data
# Generated hydrogen atom positions removed from atoms on special positions
#
###############################################################################

data_ENEXIH
_chemical_formula_moiety         '(C288 H352 O200 Pr32)n'
_symmetry_cell_setting           triclinic
_symmetry_space_group_name_H-M   'P 1'
_symmetry_Int_Tables_number      1
_space_group_name_Hall           'P 1'
loop_
_symmetry_equiv_pos_site_id
_symmetry_equiv_pos_as_xyz
1 x,y,z
_cell_length_a                   16.266(3)
_cell_length_b                   24.546(4)
_cell_length_c                   30.733(5)
_cell_angle_alpha                90
_cell_angle_beta                 90
_cell_angle_gamma                90
_cell_volume                     12270.6
loop_
_atom_site_label
_atom_site_type_symbol
_atom_site_fract_x
_atom_site_fract_y
_atom_site_fract_z
Pr1 Pr 0.49321(7) 0.41517(4) 0.51266(4)
Pr2 Pr 0.07955(8) 0.13512(4) 0.64380(3)
Pr3 Pr 0.42130(8) 0.36360(5) 0.37677(3)
Pr4 Pr 0.250000 0.250000 0.69523(5)
Pr5 Pr 0.250000 0.250000 0.32661(5)
O1 O 0.3585(8) 0.4427(5) 0.4914(4)
O2 O 0.3188(9) 0.4132(5) 0.4196(4)
O3 O 0.0038(8) 0.2009(5) 0.6018(5)
O4 O 0.0250(8) 0.1502(5) 0.4513(4)
O5 O 0.1864(9) 0.3276(5) 0.6622(4)
O6 O 0.5139(8) 0.4876(5) 0.4562(4)
O7 O 0.3923(9) 0.3999(5) 0.5700(4)
O8 O 0.2810(9) 0.3939(5) 0.6334(4)
O9 O 0.4942(10) 0.4459(6) 0.3938(4)
O10 O 0.2844(9) 0.3252(6) 0.3745(4)
O11 O 0.1392(9) 0.2258(5) 0.6470(4)
C1 C 0.2394(14) 0.4007(7) 0.4180(6)
O13 O 0.0330(9) 0.2270(5) 0.3890(5)
C2 C 0.3150(13) 0.4176(6) 0.5621(6)
O14 O 0.1309(10) 0.2919(6) 0.3616(4)
C3 C 0.0741(14) 0.3630(8) 0.6150(6)
C4 C 0.2569(15) 0.4156(7) 0.5946(6)
C5 C 0.2985(13) 0.4381(6) 0.5201(6)
C6 C 0.1760(15) 0.4299(6) 0.5870(7)
C7 C 0.0773(14) 0.3633(8) 0.4075(6)
C8 C 0.1740(15) 0.4276(8) 0.4371(7)
C10 C 0.0238(13) 0.2555(8) 0.6041(7)
C12 C 0.2171(13) 0.4549(6) 0.5128(7)
C13 C 0.1387(16) 0.3387(8) 0.3862(7)
C15 C 0.0017(15) 0.2426(9) 0.4279(8)
C17 C 0.1072(16) 0.4220(8) 0.6197(8)
H1 H 0.133566 0.423904 0.649067
C18 C 0.0951(14) 0.2657(7) 0.6307(6)
C19 C 0.2234(15) 0.3533(8) 0.3920(6)
C21 C 0.5208(15) 0.4823(8) 0.4163(7)
H3 H 0.550467 0.510127 0.401651
C22 C 0.1582(15) 0.4490(7) 0.5449(7)
H4 H 0.102928 0.458342 0.538173
C23 C 0.0084(15) 0.3493(8) 0.5906(8)
C25 C 0.0981(15) 0.4085(8) 0.4317(7)
H7 H 0.054699 0.427552 0.445636
C27 C 0.1919(16) 0.4747(8) 0.4682(7)
H8 H 0.243173 0.491483 0.456240
O15 O 0.1697(12) 0.1568(6) 0.7121(5)
O16 O 0.1110(11) 0.1976(7) 0.3094(5)
O17 O 0.5493(13) 0.3653(9) 0.3320(7)
O18 O 0.5427(13) 0.4089(8) 0.5957(7)
O19 O 0.3679(15) 0.4274(8) 0.3197(5)
O20 O 0.6329(12) 0.4372(10) 0.5090(10)
O21 O 0.2142(18) 0.1803(10) 0.7720(6)
C29 C 0.1183(14) 0.3226(7) 0.6361(6)
C30 C 0.1307(17) 0.5206(9) 0.4676(9)
H10 H 0.113611 0.527740 0.437546
H11 H 0.156078 0.553476 0.479782
H12 H 0.082624 0.510602 0.485036
C31 C 0.1730(19) 0.1481(11) 0.7491(8)
H13 H 0.145611 0.117730 0.761579
C32 C 0.0406(18) 0.4630(11) 0.6201(11)
H14 H 0.012723 0.463124 0.591860
H15 H 0.064034 0.499166 0.625703
H16 H 0.001063 0.454027 0.643052
C33 C 0.6037(17) 0.4095(15) 0.6162(9)
H17 H 0.602813 0.402425 0.646640
O22 O 0.0746(17) 0.0466(8) 0.6823(6)
O24 O 0.136(2) 0.2263(8) 0.2456(7)
C34 C 0.0937(19) 0.2002(10) 0.2710(7)
H18 H 0.046386 0.181720 0.260503
O25 O 0.6684(15) 0.4194(17) 0.5974(13)
Pr6 Pr 0.00679(7) 0.08483(4) 0.51266(4)
Pr7 Pr 0.42045(8) 0.36488(4) 0.64380(3)
Pr8 Pr 0.07870(8) 0.13640(5) 0.37677(3)
O26 O 0.1415(8) 0.0573(5) 0.4914(4)
O27 O 0.1812(9) 0.0868(5) 0.4196(4)
O28 O 0.4962(8) 0.2991(5) 0.6018(5)
O29 O 0.4750(8) 0.3498(5) 0.4513(4)
O30 O 0.3136(9) 0.1724(5) 0.6622(4)
O32 O 0.1077(9) 0.1001(5) 0.5700(4)
O33 O 0.2190(9) 0.1061(5) 0.6334(4)
O34 O 0.0058(10) 0.0541(6) 0.3938(4)
O35 O 0.2156(9) 0.1748(6) 0.3745(4)
O36 O 0.3608(9) 0.2742(5) 0.6470(4)
O37 O 0.5376(8) 0.3261(5) 0.5309(4)
C37 C 0.2606(14) 0.0993(7) 0.4180(6)
O38 O 0.4670(9) 0.2730(5) 0.3890(5)
C38 C 0.1850(13) 0.0824(6) 0.5621(6)
O39 O 0.3691(10) 0.2081(6) 0.3616(4)
C39 C 0.4259(14) 0.1370(8) 0.6150(6)
C40 C 0.2431(15) 0.0844(7) 0.5946(6)
C41 C 0.2015(13) 0.0619(6) 0.5201(6)
C42 C 0.3240(15) 0.0701(6) 0.5870(7)
C43 C 0.4227(14) 0.1367(8) 0.4075(6)
C44 C 0.3260(15) 0.0724(8) 0.4371(7)
C45 C 0.5612(12) 0.2321(9) 0.5113(8)
C46 C 0.4762(13) 0.2445(8) 0.6041(7)
C47 C 0.5198(16) 0.2032(9) 0.5856(8)
C48 C 0.2829(13) 0.0451(6) 0.5128(7)
C49 C 0.3613(16) 0.1613(8) 0.3862(7)
C50 C 0.5029(13) 0.2978(8) 0.4596(7)
C51 C 0.4983(15) 0.2574(9) 0.4279(8)
C52 C 0.5226(12) 0.2038(9) 0.4371(8)
C53 C 0.3928(16) 0.0780(8) 0.6197(8)
H25 H 0.366434 0.076096 0.649067
C54 C 0.4049(14) 0.2343(7) 0.6307(6)
C55 C 0.2766(15) 0.1467(8) 0.3920(6)
C56 C 0.5522(11) 0.1941(9) 0.4780(8)
H26 H 0.568197 0.157740 0.484428
C58 C 0.3418(15) 0.0510(7) 0.5449(7)
H28 H 0.397072 0.041658 0.538173
C59 C 0.4916(15) 0.1507(8) 0.5906(8)
H29 H 0.520241 0.122350 0.575945
C60 C 0.5119(15) 0.1589(10) 0.4032(10)
H30 H 0.515083 0.177096 0.374187
C61 C 0.4019(15) 0.0915(8) 0.4317(7)
H31 H 0.445301 0.072448 0.445636
C62 C 0.5335(12) 0.2852(8) 0.5015(7)
C63 C 0.3081(16) 0.0253(8) 0.4682(7)
H32 H 0.256827 0.008517 0.456240
C64 C 0.5935(15) 0.2182(10) 0.5568(9)
H33 H 0.616002 0.252936 0.568975
O40 O 0.3303(12) 0.3432(6) 0.7121(5)
O41 O 0.3890(11) 0.3024(7) 0.3094(5)
O44 O 0.1321(15) 0.0726(8) 0.3197(5)
O46 O 0.2858(18) 0.3197(10) 0.7720(6)
C65 C 0.3817(14) 0.1774(7) 0.6361(6)
C67 C 0.3270(19) 0.3519(11) 0.7491(8)
H37 H 0.354389 0.382270 0.761579
C68 C 0.4594(18) 0.0370(11) 0.6201(11)
H38 H 0.487277 0.036876 0.591860
H39 H 0.435966 0.000834 0.625703
H40 H 0.498937 0.045973 0.643052
O47 O 0.4254(17) 0.4534(8) 0.6823(6)
O48 O 0.5192(15) 0.3285(12) 0.7003(7)
O49 O 0.364(2) 0.2737(8) 0.2456(7)
C70 C 0.4063(19) 0.2998(10) 0.2710(7)
H42 H 0.453614 0.318280 0.260503
C71 C 0.5796(19) 0.1186(14) 0.4043(15)
H43 H 0.564882 0.088618 0.423871
H44 H 0.629875 0.136230 0.414801
H45 H 0.588844 0.104281 0.374941
C72 C 0.664(2) 0.1780(13) 0.5574(14)
H46 H 0.662619 0.156027 0.530789
H47 H 0.658581 0.154072 0.582794
H48 H 0.716127 0.197785 0.559024
Pr9 Pr 0.50679(7) 0.58483(4) 0.48734(4)
Pr11 Pr 0.250000 0.250000 0.19523(5)
Pr12 Pr 0.250000 0.250000 0.82661(5)
O51 O 0.4861(8) 0.5124(5) 0.5438(4)
O53 O 0.2142(18) 0.3197(10) 0.2720(6)
O54 O 0.2858(18) 0.1803(10) 0.2720(6)
O55 O 0.136(2) 0.2737(8) 0.7456(7)
O56 O 0.364(2) 0.2263(8) 0.7456(7)
H27 H 0.949533 0.989873 0.401651
Pr10 Pr 0.99321(7) 0.91517(4) 0.48734(4)
H68 H 0.0111738 0.179402 0.727608
C14 C 0.0029(13) 0.7022(8) 0.0404(7)
C16 C 0.0226(12) 0.7962(9) 0.0629(8)
C20 C 0.0522(11) 0.8059(9) 0.0220(8)
H2 H 0.068197 0.842260 0.015572
C24 C 0.0119(15) 0.8411(10) 0.0968(10)
H6 H 0.015083 0.822904 0.125813
C35 C 0.0796(19) 0.8814(14) 0.0957(15)
H19 H 0.064882 0.911382 0.076129
H20 H 0.129875 0.863770 0.085199
H21 H 0.088844 0.895719 0.125059
O31 O 0.0139(8) 0.5124(5) 0.0438(4)
C57 C 0.0208(15) 0.5177(8) 0.0837(7)
H27_2 H 0.050467 0.489873 0.098349
O42 O 0.0493(13) 0.6347(9) 0.1680(7)
Pr10_2 Pr 0.00679(7) 0.41517(4) 0.01266(4)
H63 H 0.14517 0.546131 0.019715
H3_2 H 0.449533 0.010127 0.098349
C30_2 C 0.8693(17) 0.0206(9) 0.0324(9)
H10_2 H 0.886389 0.027740 0.062454
H11_2 H 0.843922 0.053476 0.020218
H12_2 H 0.917376 0.010602 0.014964
Pr9_2 Pr 0.49321(7) 0.08483(4) 0.01266(4)
O51_2 O 0.5139(8) 0.0124(5) 0.9562(4)
Pr3_2 Pr 0.57870(8) 0.86360(5) 0.12323(3)
Pr5_2 Pr 0.750000 0.750000 0.17339(5)
O1_2 O 0.6415(8) 0.9427(5) 0.0086(4)
O2_2 O 0.6812(9) 0.9132(5) 0.0804(4)
O4_2 O 0.9750(8) 0.6502(5) 0.0487(4)
O6_2 O 0.4861(8) 0.9876(5) 0.0438(4)
O9_2 O 0.5058(10) 0.9459(6) 0.1062(4)
O10_2 O 0.7156(9) 0.8252(6) 0.1255(4)
C1_2 C 0.7606(14) 0.9007(7) 0.0820(6)
O13_2 O 0.9670(9) 0.7270(5) 0.1110(5)
O14_2 O 0.8691(10) 0.7919(6) 0.1384(4)
C7_2 C 0.9227(14) 0.8633(8) 0.0925(6)
C8_2 C 0.8260(15) 0.9276(8) 0.0629(7)
C13_2 C 0.8613(16) 0.8387(8) 0.1138(7)
C15_2 C 0.9983(15) 0.7426(9) 0.0721(8)
C19_2 C 0.7766(15) 0.8533(8) 0.1080(6)
C21_2 C 0.4792(15) 0.9823(8) 0.0837(7)
C25_2 C 0.9019(15) 0.9085(8) 0.0683(7)
H7_2 H 0.945301 0.927552 0.054364
C27_2 C 0.8081(16) 0.9747(8) 0.0318(7)
H8_2 H 0.756827 0.991483 0.043760
O16_2 O 0.8890(11) 0.6976(7) 0.1906(5)
O17_2 O 0.4507(13) 0.8653(9) 0.1680(7)
O19_2 O 0.6321(15) 0.9274(8) 0.1803(5)
O24_2 O 0.864(2) 0.7263(8) 0.2544(7)
C34_2 C 0.9063(19) 0.7002(10) 0.2290(7)
H18_2 H 0.953614 0.681720 0.239497
Pr8_2 Pr 0.92130(8) 0.63640(5) 0.12323(3)
O26_2 O 0.8585(8) 0.5573(5) 0.0086(4)
O27_2 O 0.8188(9) 0.5868(5) 0.0804(4)
O29_2 O 0.5250(8) 0.8498(5) 0.0487(4)
O34_2 O 0.9942(10) 0.5541(6) 0.1062(4)
O35_2 O 0.7844(9) 0.6748(6) 0.1255(4)
C37_2 C 0.7394(14) 0.5993(7) 0.0820(6)
O38_2 O 0.5330(9) 0.7730(5) 0.1110(5)
O39_2 O 0.6309(10) 0.7081(6) 0.1384(4)
C43_2 C 0.5773(14) 0.6367(8) 0.0925(6)
C44_2 C 0.6740(15) 0.5724(8) 0.0629(7)
C49_2 C 0.6387(16) 0.6613(8) 0.1138(7)
C50_2 C 0.4971(13) 0.7978(8) 0.0404(7)
C51_2 C 0.5017(15) 0.7574(9) 0.0721(8)
C52_2 C 0.4774(12) 0.7038(9) 0.0629(8)
C55_2 C 0.7234(15) 0.6467(8) 0.1080(6)
C56_2 C 0.4478(11) 0.6941(9) 0.0220(8)
H26_2 H 0.431803 0.657740 0.015572
C60_2 C 0.4881(15) 0.6589(10) 0.0968(10)
H30_2 H 0.484917 0.677096 0.125813
C61_2 C 0.5981(15) 0.5915(8) 0.0683(7)
H31_2 H 0.554699 0.572448 0.054364
C63_2 C 0.6919(16) 0.5253(8) 0.0318(7)
H32_2 H 0.743173 0.508517 0.043760
O41_2 O 0.6110(11) 0.8024(7) 0.1906(5)
O44_2 O 0.8679(15) 0.5726(8) 0.1803(5)
C66 C 0.6307(17) 0.4794(9) 0.0324(9)
H34 H 0.613611 0.472260 0.062454
H35 H 0.656078 0.446524 0.020218
H36 H 0.582624 0.489398 0.014964
O49_2 O 0.636(2) 0.7737(8) 0.2544(7)
C70_2 C 0.5937(19) 0.7998(10) 0.2290(7)
H42_2 H 0.546386 0.818280 0.239497
C71_2 C 0.4204(19) 0.6186(14) 0.0957(15)
H43_2 H 0.435118 0.588618 0.076129
H44_2 H 0.370125 0.636230 0.085199
H45_2 H 0.411156 0.604281 0.125059
Pr11_2 Pr 0.750000 0.750000 0.30477(5)
O53_2 O 0.7858(18) 0.8197(10) 0.2280(6)
O54_2 O 0.7142(18) 0.6803(10) 0.2280(6)
Pr1_2 Pr 0.50679(7) 0.91517(4) 0.98734(4)
Pr2_2 Pr 0.92045(8) 0.63512(4) 0.85620(3)
Pr4_2 Pr 0.750000 0.750000 0.80477(5)
O3_2 O 0.9962(8) 0.7009(5) 0.8982(5)
O5_2 O 0.8136(9) 0.8276(5) 0.8378(4)
O7_2 O 0.6077(9) 0.8999(5) 0.9300(4)
O8_2 O 0.7190(9) 0.8939(5) 0.8666(4)
O11_2 O 0.8608(9) 0.7258(5) 0.8530(4)
C2_2 C 0.6850(13) 0.9176(6) 0.9379(6)
C3_2 C 0.9259(14) 0.8630(8) 0.8850(6)
C4_2 C 0.7431(15) 0.9156(7) 0.9054(6)
C5_2 C 0.7015(13) 0.9381(6) 0.9799(6)
C6_2 C 0.8240(15) 0.9299(6) 0.9130(7)
C10_2 C 0.9762(13) 0.7555(8) 0.8959(7)
C12_2 C 0.7829(13) 0.9549(6) 0.9872(7)
C17_2 C 0.8928(16) 0.9220(8) 0.8803(8)
H1_2 H 0.866434 0.923904 0.850933
C18_2 C 0.9049(14) 0.7657(7) 0.8693(6)
C22_2 C 0.8418(15) 0.9490(7) 0.9551(7)
H4_2 H 0.897072 0.958342 0.961827
C23_2 C 0.9916(15) 0.8493(8) 0.9094(8)
O15_2 O 0.8303(12) 0.6568(6) 0.7879(5)
O18_2 O 0.4573(13) 0.9089(8) 0.9043(7)
O20_2 O 0.3671(12) 0.9372(10) 0.9910(10)
O21_2 O 0.7858(18) 0.6803(10) 0.7280(6)
C29_2 C 0.8817(14) 0.8226(7) 0.8639(6)
C31_2 C 0.8270(19) 0.6481(11) 0.7509(8)
H13_2 H 0.854389 0.617730 0.738421
C32_2 C 0.9594(18) 0.9630(11) 0.8799(11)
H14_2 H 0.987277 0.963124 0.908140
H15_2 H 0.935966 0.999166 0.874297
H16_2 H 0.998937 0.954027 0.856948
C33_2 C 0.3963(17) 0.9095(15) 0.8838(9)
H17_2 H 0.397187 0.902425 0.853360
O22_2 O 0.9254(17) 0.5466(8) 0.8177(6)
O25_2 O 0.3316(15) 0.9194(17) 0.9026(13)
Pr6_2 Pr 0.99321(7) 0.58483(4) 0.98734(4)
Pr7_2 Pr 0.57955(8) 0.86488(4) 0.85620(3)
O28_2 O 0.5038(8) 0.7991(5) 0.8982(5)
O30_2 O 0.6864(9) 0.6724(5) 0.8378(4)
O32_2 O 0.8923(9) 0.6001(5) 0.9300(4)
O33_2 O 0.7810(9) 0.6061(5) 0.8666(4)
O36_2 O 0.6392(9) 0.7742(5) 0.8530(4)
O37_2 O 0.4624(8) 0.8261(5) 0.9691(4)
C38_2 C 0.8150(13) 0.5824(6) 0.9379(6)
C39_2 C 0.5741(14) 0.6370(8) 0.8850(6)
C40_2 C 0.7569(15) 0.5844(7) 0.9054(6)
C41_2 C 0.7985(13) 0.5619(6) 0.9799(6)
C42_2 C 0.6760(15) 0.5701(6) 0.9130(7)
C45_2 C 0.4388(12) 0.7321(9) 0.9887(8)
C46_2 C 0.5238(13) 0.7445(8) 0.8959(7)
C47_2 C 0.4802(16) 0.7032(9) 0.9144(8)
C48_2 C 0.7171(13) 0.5451(6) 0.9872(7)
C53_2 C 0.6072(16) 0.5780(8) 0.8803(8)
H25_2 H 0.633566 0.576096 0.850933
C54_2 C 0.5951(14) 0.7343(7) 0.8693(6)
C58_2 C 0.6582(15) 0.5510(7) 0.9551(7)
H28_2 H 0.602928 0.541658 0.961827
C59_2 C 0.5084(15) 0.6507(8) 0.9094(8)
H29_2 H 0.479759 0.622350 0.924055
C62_2 C 0.4665(12) 0.7852(8) 0.9985(7)
C64_2 C 0.4065(15) 0.7182(10) 0.9432(9)
H33_2 H 0.383998 0.752936 0.931025
O40_2 O 0.6697(12) 0.8432(6) 0.7879(5)
O46_2 O 0.7142(18) 0.8197(10) 0.7280(6)
C65_2 C 0.6183(14) 0.6774(7) 0.8639(6)
C67_2 C 0.6730(19) 0.8519(11) 0.7509(8)
H37_2 H 0.645611 0.882270 0.738421
C68_2 C 0.5406(18) 0.5370(11) 0.8799(11)
H38_2 H 0.512723 0.536876 0.908140
H39_2 H 0.564034 0.500834 0.874297
H40_2 H 0.501063 0.545973 0.856948
O47_2 O 0.5746(17) 0.9534(8) 0.8177(6)
O48_2 O 0.4808(15) 0.8285(12) 0.7997(7)
C72_2 C 0.336(2) 0.6780(13) 0.9426(14)
H46_2 H 0.337381 0.656027 0.969211
H47_2 H 0.341419 0.654072 0.917206
H48_2 H 0.283873 0.697785 0.940976
Pr12_2 Pr 0.750000 0.750000 0.67339(5)
O52 O 0.9861(8) 0.4876(5) 0.9562(4)
O55_2 O 0.864(2) 0.7737(8) 0.7544(7)
O56_2 O 0.636(2) 0.7263(8) 0.7544(7)
H63_2 H 0.35483 0.953869 0.019715
H68_2 H 0.988826 0.679402 0.772392
H27_3 H 0.050467 0.010127 0.598349
Pr2_3 Pr 0.92045(8) 0.86488(4) 0.35620(3)
Pr3_3 Pr 0.57870(8) 0.63640(5) 0.62323(3)
O1_3 O 0.6415(8) 0.5573(5) 0.5086(4)
O2_3 O 0.6812(9) 0.5868(5) 0.5804(4)
O3_3 O 0.9962(8) 0.7991(5) 0.3982(5)
O4_3 O 0.9750(8) 0.8498(5) 0.5487(4)
O5_3 O 0.8136(9) 0.6724(5) 0.3378(4)
O7_3 O 0.6077(9) 0.6001(5) 0.4300(4)
O8_3 O 0.7190(9) 0.6061(5) 0.3666(4)
O9_3 O 0.5058(10) 0.5541(6) 0.6062(4)
O10_3 O 0.7156(9) 0.6748(6) 0.6255(4)
O11_3 O 0.8608(9) 0.7742(5) 0.3530(4)
C1_3 C 0.7606(14) 0.5993(7) 0.5820(6)
O13_3 O 0.9670(9) 0.7730(5) 0.6110(5)
C2_3 C 0.6850(13) 0.5824(6) 0.4379(6)
O14_3 O 0.8691(10) 0.7081(6) 0.6384(4)
C3_3 C 0.9259(14) 0.6370(8) 0.3850(6)
C4_3 C 0.7431(15) 0.5844(7) 0.4054(6)
C5_3 C 0.7015(13) 0.5619(6) 0.4799(6)
C6_3 C 0.8240(15) 0.5701(6) 0.4130(7)
C7_3 C 0.9227(14) 0.6367(8) 0.5925(6)
C8_3 C 0.8260(15) 0.5724(8) 0.5629(7)
C10_3 C 0.9762(13) 0.7445(8) 0.3959(7)
C12_3 C 0.7829(13) 0.5451(6) 0.4872(7)
C13_3 C 0.8613(16) 0.6613(8) 0.6138(7)
C15_3 C 0.9983(15) 0.7574(9) 0.5721(8)
C17_3 C 0.8928(16) 0.5780(8) 0.3803(8)
H1_3 H 0.866434 0.576096 0.350933
C18_3 C 0.9049(14) 0.7343(7) 0.3693(6)
C19_3 C 0.7766(15) 0.6467(8) 0.6080(6)
C21_3 C 0.4792(15) 0.5177(8) 0.5837(7)
H3_3 H 0.449533 0.489873 0.598349
C22_3 C 0.8418(15) 0.5510(7) 0.4551(7)
H4_3 H 0.897072 0.541658 0.461827
C23_3 C 0.9916(15) 0.6507(8) 0.4094(8)
C25_3 C 0.9019(15) 0.5915(8) 0.5683(7)
H7_3 H 0.945301 0.572448 0.554364
C27_3 C 0.8081(16) 0.5253(8) 0.5318(7)
H8_3 H 0.756827 0.508517 0.543760
O15_3 O 0.8303(12) 0.8432(6) 0.2879(5)
O16_3 O 0.8890(11) 0.8024(7) 0.6906(5)
O17_3 O 0.4507(13) 0.6347(9) 0.6680(7)
O18_3 O 0.4573(13) 0.5911(8) 0.4043(7)
O19_3 O 0.6321(15) 0.5726(8) 0.6803(5)
O20_3 O 0.3671(12) 0.5628(10) 0.4910(10)
C29_3 C 0.8817(14) 0.6774(7) 0.3639(6)
C30_3 C 0.8693(17) 0.4794(9) 0.5324(9)
H10_3 H 0.886389 0.472260 0.562454
H11_3 H 0.843922 0.446524 0.520218
H12_3 H 0.917376 0.489398 0.514964
C31_3 C 0.8270(19) 0.8519(11) 0.2509(8)
H13_3 H 0.854389 0.882270 0.238421
C32_3 C 0.9594(18) 0.5370(11) 0.3799(11)
H14_3 H 0.987277 0.536876 0.408140
H15_3 H 0.935966 0.500834 0.374297
H16_3 H 0.998937 0.545973 0.356948
C33_3 C 0.3963(17) 0.5905(15) 0.3838(9)
H17_3 H 0.397187 0.597575 0.353360
O22_3 O 0.9254(17) 0.9534(8) 0.3177(6)
C34_3 C 0.9063(19) 0.7998(10) 0.7290(7)
H18_3 H 0.953614 0.818280 0.739497
O25_3 O 0.3316(15) 0.5806(17) 0.4026(13)
Pr7_3 Pr 0.57955(8) 0.63512(4) 0.35620(3)
Pr8_3 Pr 0.92130(8) 0.86360(5) 0.62323(3)
O26_3 O 0.8585(8) 0.9427(5) 0.5086(4)
O27_3 O 0.8188(9) 0.9132(5) 0.5804(4)
O28_3 O 0.5038(8) 0.7009(5) 0.3982(5)
O29_3 O 0.5250(8) 0.6502(5) 0.5487(4)
O30_3 O 0.6864(9) 0.8276(5) 0.3378(4)
O32_3 O 0.8923(9) 0.8999(5) 0.4300(4)
O33_3 O 0.7810(9) 0.8939(5) 0.3666(4)
O34_3 O 0.9942(10) 0.9459(6) 0.6062(4)
O35_3 O 0.7844(9) 0.8252(6) 0.6255(4)
O36_3 O 0.6392(9) 0.7258(5) 0.3530(4)
O37_3 O 0.4624(8) 0.6739(5) 0.4691(4)
C37_3 C 0.7394(14) 0.9007(7) 0.5820(6)
O38_3 O 0.5330(9) 0.7270(5) 0.6110(5)
C38_3 C 0.8150(13) 0.9176(6) 0.4379(6)
O39_3 O 0.6309(10) 0.7919(6) 0.6384(4)
C39_3 C 0.5741(14) 0.8630(8) 0.3850(6)
C40_3 C 0.7569(15) 0.9156(7) 0.4054(6)
C41_3 C 0.7985(13) 0.9381(6) 0.4799(6)
C42_3 C 0.6760(15) 0.9299(6) 0.4130(7)
C43_3 C 0.5773(14) 0.8633(8) 0.5925(6)
C44_3 C 0.6740(15) 0.9276(8) 0.5629(7)
C45_3 C 0.4388(12) 0.7679(9) 0.4887(8)
C46_3 C 0.5238(13) 0.7555(8) 0.3959(7)
C47_3 C 0.4802(16) 0.7968(9) 0.4144(8)
C48_3 C 0.7171(13) 0.9549(6) 0.4872(7)
C49_3 C 0.6387(16) 0.8387(8) 0.6138(7)
C50_3 C 0.4971(13) 0.7022(8) 0.5404(7)
C51_3 C 0.5017(15) 0.7426(9) 0.5721(8)
C52_3 C 0.4774(12) 0.7962(9) 0.5629(8)
C53_3 C 0.6072(16) 0.9220(8) 0.3803(8)
H25_3 H 0.633566 0.923904 0.350933
C54_3 C 0.5951(14) 0.7657(7) 0.3693(6)
C55_3 C 0.7234(15) 0.8533(8) 0.6080(6)
C56_3 C 0.4478(11) 0.8059(9) 0.5220(8)
H26_3 H 0.431803 0.842260 0.515572
C58_3 C 0.6582(15) 0.9490(7) 0.4551(7)
H28_3 H 0.602928 0.958342 0.461827
C59_3 C 0.5084(15) 0.8493(8) 0.4094(8)
H29_3 H 0.479759 0.877650 0.424055
C60_3 C 0.4881(15) 0.8411(10) 0.5968(10)
H30_3 H 0.484917 0.822904 0.625813
C61_3 C 0.5981(15) 0.9085(8) 0.5683(7)
H31_3 H 0.554699 0.927552 0.554364
C62_3 C 0.4665(12) 0.7148(8) 0.4985(7)
C63_3 C 0.6919(16) 0.9747(8) 0.5318(7)
H32_3 H 0.743173 0.991483 0.543760
C64_3 C 0.4065(15) 0.7818(10) 0.4432(9)
H33_3 H 0.383998 0.747064 0.431025
O40_3 O 0.6697(12) 0.6568(6) 0.2879(5)
O41_3 O 0.6110(11) 0.6976(7) 0.6906(5)
O44_3 O 0.8679(15) 0.9274(8) 0.6803(5)
C65_3 C 0.6183(14) 0.8226(7) 0.3639(6)
C67_3 C 0.6730(19) 0.6481(11) 0.2509(8)
H37_3 H 0.645611 0.617730 0.238421
C68_3 C 0.5406(18) 0.9630(11) 0.3799(11)
H38_3 H 0.512723 0.963124 0.408140
H39_3 H 0.564034 0.999166 0.374297
H40_3 H 0.501063 0.954027 0.356948
O47_3 O 0.5746(17) 0.5466(8) 0.3177(6)
O48_3 O 0.4808(15) 0.6715(12) 0.2997(7)
C70_3 C 0.5937(19) 0.7002(10) 0.7290(7)
H42_3 H 0.546386 0.681720 0.739497
C71_3 C 0.4204(19) 0.8814(14) 0.5957(15)
H43_3 H 0.435118 0.911382 0.576129
H44_3 H 0.370125 0.863770 0.585199
H45_3 H 0.411156 0.895719 0.625059
C72_3 C 0.336(2) 0.8220(13) 0.4426(14)
H46_3 H 0.337381 0.843973 0.469211
H47_3 H 0.341419 0.845928 0.417206
H48_3 H 0.283873 0.802215 0.440976
H68_3 H 0.988826 0.820598 0.272392
Pr2_4 Pr 0.07955(8) 0.36488(4) 0.14380(3)
O3_4 O 0.0038(8) 0.2991(5) 0.1018(5)
O5_4 O 0.1864(9) 0.1724(5) 0.1622(4)
O7_4 O 0.3923(9) 0.1001(5) 0.0700(4)
O8_4 O 0.2810(9) 0.1061(5) 0.1334(4)
O11_4 O 0.1392(9) 0.2742(5) 0.1470(4)
C2_4 C 0.3150(13) 0.0824(6) 0.0621(6)
C3_4 C 0.0741(14) 0.1370(8) 0.1150(6)
C4_4 C 0.2569(15) 0.0844(7) 0.0946(6)
C5_4 C 0.2985(13) 0.0619(6) 0.0201(6)
C6_4 C 0.1760(15) 0.0701(6) 0.0870(7)
C10_4 C 0.0238(13) 0.2445(8) 0.1041(7)
C12_4 C 0.2171(13) 0.0451(6) 0.0128(7)
C17_4 C 0.1072(16) 0.0780(8) 0.1197(8)
H1_4 H 0.133566 0.076096 0.149067
C18_4 C 0.0951(14) 0.2343(7) 0.1307(6)
C22_4 C 0.1582(15) 0.0510(7) 0.0449(7)
H4_4 H 0.102928 0.041658 0.038173
C23_4 C 0.0084(15) 0.1507(8) 0.0906(8)
O15_4 O 0.1697(12) 0.3432(6) 0.2121(5)
O18_4 O 0.5427(13) 0.0911(8) 0.0957(7)
O20_4 O 0.6329(12) 0.0628(10) 0.0090(10)
C29_4 C 0.1183(14) 0.1774(7) 0.1361(6)
C31_4 C 0.1730(19) 0.3519(11) 0.2491(8)
H13_4 H 0.145611 0.382270 0.261579
C32_4 C 0.0406(18) 0.0370(11) 0.1201(11)
H14_4 H 0.012723 0.036876 0.091860
H15_4 H 0.064034 0.000834 0.125703
H16_4 H 0.001063 0.045973 0.143052
C33_4 C 0.6037(17) 0.0905(15) 0.1162(9)
H17_4 H 0.602813 0.097575 0.146640
O22_4 O 0.0746(17) 0.4534(8) 0.1823(6)
O25_4 O 0.6684(15) 0.0806(17) 0.0974(13)
Pr7_4 Pr 0.42045(8) 0.13512(4) 0.14380(3)
O28_4 O 0.4962(8) 0.2009(5) 0.1018(5)
O30_4 O 0.3136(9) 0.3276(5) 0.1622(4)
O32_4 O 0.1077(9) 0.3999(5) 0.0700(4)
O33_4 O 0.2190(9) 0.3939(5) 0.1334(4)
O36_4 O 0.3608(9) 0.2258(5) 0.1470(4)
O37_4 O 0.5376(8) 0.1739(5) 0.0309(4)
C38_4 C 0.1850(13) 0.4176(6) 0.0621(6)
C39_4 C 0.4259(14) 0.3630(8) 0.1150(6)
C40_4 C 0.2431(15) 0.4156(7) 0.0946(6)
C41_4 C 0.2015(13) 0.4381(6) 0.0201(6)
C42_4 C 0.3240(15) 0.4299(6) 0.0870(7)
C45_4 C 0.5612(12) 0.2679(9) 0.0113(8)
C46_4 C 0.4762(13) 0.2555(8) 0.1041(7)
C47_4 C 0.5198(16) 0.2968(9) 0.0856(8)
C48_4 C 0.2829(13) 0.4549(6) 0.0128(7)
C53_4 C 0.3928(16) 0.4220(8) 0.1197(8)
H25_4 H 0.366434 0.423904 0.149067
C54_4 C 0.4049(14) 0.2657(7) 0.1307(6)
C58_4 C 0.3418(15) 0.4490(7) 0.0449(7)
H28_4 H 0.397072 0.458342 0.038173
C59_4 C 0.4916(15) 0.3493(8) 0.0906(8)
H29_4 H 0.520241 0.377650 0.075945
C62_4 C 0.5335(12) 0.2148(8) 0.0015(7)
C64_4 C 0.5935(15) 0.2818(10) 0.0568(9)
H33_4 H 0.616002 0.247064 0.068975
O40_4 O 0.3303(12) 0.1568(6) 0.2121(5)
C65_4 C 0.3817(14) 0.3226(7) 0.1361(6)
C67_4 C 0.3270(19) 0.1481(11) 0.2491(8)
H37_4 H 0.354389 0.117730 0.261579
C68_4 C 0.4594(18) 0.4630(11) 0.1201(11)
H38_4 H 0.487277 0.463124 0.091860
H39_4 H 0.435966 0.499166 0.125703
H40_4 H 0.498937 0.454027 0.143052
O47_4 O 0.4254(17) 0.0466(8) 0.1823(6)
O48_4 O 0.5192(15) 0.1715(12) 0.2003(7)
C72_4 C 0.664(2) 0.3220(13) 0.0574(14)
H46_4 H 0.662619 0.343973 0.030789
H47_4 H 0.658581 0.345928 0.082794
H48_4 H 0.716127 0.302215 0.059024
Pr3_4 Pr 0.42130(8) 0.13640(5) 0.87677(3)
O1_4 O 0.3585(8) 0.0573(5) 0.9914(4)
O2_4 O 0.3188(9) 0.0868(5) 0.9196(4)
O4_4 O 0.0250(8) 0.3498(5) 0.9513(4)
O9_4 O 0.4942(10) 0.0541(6) 0.8938(4)
O10_4 O 0.2844(9) 0.1748(6) 0.8745(4)
C1_4 C 0.2394(14) 0.0993(7) 0.9180(6)
O13_4 O 0.0330(9) 0.2730(5) 0.8890(5)
O14_4 O 0.1309(10) 0.2081(6) 0.8616(4)
C7_4 C 0.0773(14) 0.1367(8) 0.9075(6)
C8_4 C 0.1740(15) 0.0724(8) 0.9371(7)
C13_4 C 0.1387(16) 0.1613(8) 0.8862(7)
C15_4 C 0.0017(15) 0.2574(9) 0.9279(8)
C19_4 C 0.2234(15) 0.1467(8) 0.8920(6)
C21_4 C 0.5208(15) 0.0177(8) 0.9163(7)
C25_4 C 0.0981(15) 0.0915(8) 0.9317(7)
H7_4 H 0.054699 0.072448 0.945636
C27_4 C 0.1919(16) 0.0253(8) 0.9682(7)
H8_4 H 0.243173 0.008517 0.956240
O16_4 O 0.1110(11) 0.3024(7) 0.8094(5)
O17_4 O 0.5493(13) 0.1347(9) 0.8320(7)
O19_4 O 0.3679(15) 0.0726(8) 0.8197(5)
C34_4 C 0.0937(19) 0.2998(10) 0.7710(7)
H18_4 H 0.046386 0.318280 0.760503
Pr8_4 Pr 0.07870(8) 0.36360(5) 0.87677(3)
O26_4 O 0.1415(8) 0.4427(5) 0.9914(4)
O27_4 O 0.1812(9) 0.4132(5) 0.9196(4)
O29_4 O 0.4750(8) 0.1502(5) 0.9513(4)
O34_4 O 0.0058(10) 0.4459(6) 0.8938(4)
O35_4 O 0.2156(9) 0.3252(6) 0.8745(4)
C37_4 C 0.2606(14) 0.4007(7) 0.9180(6)
O38_4 O 0.4670(9) 0.2270(5) 0.8890(5)
O39_4 O 0.3691(10) 0.2919(6) 0.8616(4)
C43_4 C 0.4227(14) 0.3633(8) 0.9075(6)
C44_4 C 0.3260(15) 0.4276(8) 0.9371(7)
C49_4 C 0.3613(16) 0.3387(8) 0.8862(7)
C50_4 C 0.5029(13) 0.2022(8) 0.9596(7)
C51_4 C 0.4983(15) 0.2426(9) 0.9279(8)
C52_4 C 0.5226(12) 0.2962(9) 0.9371(8)
C55_4 C 0.2766(15) 0.3533(8) 0.8920(6)
C56_4 C 0.5522(11) 0.3059(9) 0.9780(8)
H26_4 H 0.568197 0.342260 0.984428
C60_4 C 0.5119(15) 0.3411(10) 0.9032(10)
H30_4 H 0.515083 0.322904 0.874187
C61_4 C 0.4019(15) 0.4085(8) 0.9317(7)
H31_4 H 0.445301 0.427552 0.945636
C63_4 C 0.3081(16) 0.4747(8) 0.9682(7)
H32_4 H 0.256827 0.491483 0.956240
O41_4 O 0.3890(11) 0.1976(7) 0.8094(5)
O44_4 O 0.1321(15) 0.4274(8) 0.8197(5)
C66_2 C 0.3693(17) 0.5206(9) 0.9676(9)
H34_2 H 0.386389 0.527740 0.937546
H35_2 H 0.343922 0.553476 0.979782
H36_2 H 0.417376 0.510602 0.985036
C70_4 C 0.4063(19) 0.2002(10) 0.7710(7)
H42_4 H 0.453614 0.181720 0.760503
C71_4 C 0.5796(19) 0.3814(14) 0.9043(15)
H43_4 H 0.564882 0.411382 0.923871
H44_4 H 0.629875 0.363770 0.914801
H45_4 H 0.588844 0.395719 0.874941
H3_4 H 0.550467 0.989873 0.901651
C30_4 C 0.1307(17) 0.9794(9) 0.9676(9)
H10_4 H 0.113611 0.972260 0.937546
H11_4 H 0.156078 0.946524 0.979782
H12_4 H 0.082624 0.989398 0.985036
C14_2 C 0.9971(13) 0.2978(8) 0.9596(7)
C16_2 C 0.9774(12) 0.2038(9) 0.9371(8)
C20_2 C 0.9478(11) 0.1941(9) 0.9780(8)
H2_2 H 0.931803 0.157740 0.984428
C24_2 C 0.9881(15) 0.1589(10) 0.9032(10)
H6_2 H 0.984917 0.177096 0.874187
C35_2 C 0.9204(19) 0.1186(14) 0.9043(15)
H19_2 H 0.935118 0.088618 0.923871
H20_2 H 0.870125 0.136230 0.914801
H21_2 H 0.911156 0.104281 0.874941
C57_2 C 0.9792(15) 0.4823(8) 0.9163(7)
H27_4 H 0.949533 0.510127 0.901651
O42_2 O 0.9507(13) 0.3653(9) 0.8320(7)
H63_3 H 0.85483 0.453869 0.980285
H68_4 H 0.0111738 0.320598 0.227608
H63_4 H 0.64517 0.0461307 0.980285
C66_3 C 0.3693(17) 0.9794(9) 0.4676(9)
H34_3 H 0.386389 0.972260 0.437546
H35_3 H 0.343922 0.946524 0.479782
H36_3 H 0.417376 0.989398 0.485036
O52_2 O 0.0139(8) 0.9876(5) 0.5438(4)
O12 O 0.0376(8) 0.8261(5) 0.4691(4)
C9 C 0.0612(12) 0.7321(9) 0.4887(8)
C11 C 0.0198(16) 0.7032(9) 0.4144(8)
C14_3 C 0.0029(13) 0.7978(8) 0.5404(7)
C16_3 C 0.0226(12) 0.7038(9) 0.5629(8)
C20_3 C 0.0522(11) 0.6941(9) 0.5220(8)
H2_3 H 0.068197 0.657740 0.515572
H5 H 0.020241 0.622350 0.424055
C24_3 C 0.0119(15) 0.6589(10) 0.5968(10)
H6_3 H 0.015083 0.677096 0.625813
C26 C 0.0335(12) 0.7852(8) 0.4985(7)
C28 C 0.0935(15) 0.7182(10) 0.4432(9)
H9 H 0.116002 0.752936 0.431025
O23 O 0.0192(15) 0.8285(12) 0.2997(7)
C35_3 C 0.0796(19) 0.6186(14) 0.5957(15)
H19_3 H 0.064882 0.588618 0.576129
H20_3 H 0.129875 0.636230 0.585199
H21_3 H 0.088844 0.604281 0.625059
C36 C 0.164(2) 0.6780(13) 0.4426(14)
H22 H 0.162619 0.656027 0.469211
H23 H 0.158581 0.654072 0.417206
H24 H 0.216127 0.697785 0.440976
C57_3 C 0.0208(15) 0.9823(8) 0.5837(7)
O42_3 O 0.0493(13) 0.8653(9) 0.6680(7)
O43 O 0.0427(13) 0.9089(8) 0.4043(7)
O45 O 0.1329(12) 0.9372(10) 0.4910(10)
C69 C 0.1037(17) 0.9095(15) 0.3838(9)
H41 H 0.102813 0.902425 0.353360
O50 O 0.1684(15) 0.9194(17) 0.4026(13)
O12_2 O 0.9624(8) 0.1739(5) 0.5309(4)
C9_2 C 0.9388(12) 0.2679(9) 0.5113(8)
C11_2 C 0.9802(16) 0.2968(9) 0.5856(8)
C14_4 C 0.9971(13) 0.2022(8) 0.4596(7)
C16_4 C 0.9774(12) 0.2962(9) 0.4371(8)
C20_4 C 0.9478(11) 0.3059(9) 0.4780(8)
H2_4 H 0.931803 0.342260 0.484428
H5_2 H 0.979759 0.377650 0.575945
C24_4 C 0.9881(15) 0.3411(10) 0.4032(10)
H6_4 H 0.984917 0.322904 0.374187
C26_2 C 0.9665(12) 0.2148(8) 0.5015(7)
C28_2 C 0.9065(15) 0.2818(10) 0.5568(9)
H9_2 H 0.883998 0.247064 0.568975
O23_2 O 0.9808(15) 0.1715(12) 0.7003(7)
C35_4 C 0.9204(19) 0.3814(14) 0.4043(15)
H19_4 H 0.935118 0.411382 0.423871
H20_4 H 0.870125 0.363770 0.414801
H21_4 H 0.911156 0.395719 0.374941
C36_2 C 0.836(2) 0.3220(13) 0.5574(14)
H22_2 H 0.837381 0.343973 0.530789
H23_2 H 0.841419 0.345928 0.582794
H24_2 H 0.783873 0.302215 0.559024
O31_2 O 0.9861(8) 0.0124(5) 0.4562(4)
C57_4 C 0.9792(15) 0.0177(8) 0.4163(7)
O42_4 O 0.9507(13) 0.1347(9) 0.3320(7)
O43_2 O 0.9573(13) 0.0911(8) 0.5957(7)
O45_2 O 0.8671(12) 0.0628(10) 0.5090(10)
C69_2 C 0.8963(17) 0.0905(15) 0.6162(9)
H41_2 H 0.897187 0.097575 0.646640
O50_2 O 0.8316(15) 0.0806(17) 0.5974(13)
C66_4 C 0.6307(17) 0.0206(9) 0.5324(9)
H34_4 H 0.613611 0.027740 0.562454
H35_4 H 0.656078 0.053476 0.520218
H36_4 H 0.582624 0.010602 0.514964
O12_3 O 0.0376(8) 0.6739(5) 0.9691(4)
C9_3 C 0.0612(12) 0.7679(9) 0.9887(8)
C11_3 C 0.0198(16) 0.7968(9) 0.9144(8)
H5_3 H 0.020241 0.877650 0.924055
C26_3 C 0.0335(12) 0.7148(8) 0.9985(7)
C28_3 C 0.0935(15) 0.7818(10) 0.9432(9)
H9_3 H 0.116002 0.747064 0.931025
O23_3 O 0.0192(15) 0.6715(12) 0.7997(7)
C36_3 C 0.164(2) 0.8220(13) 0.9426(14)
H22_3 H 0.162619 0.843973 0.969211
H23_3 H 0.158581 0.845928 0.917206
H24_3 H 0.216127 0.802215 0.940976
O43_3 O 0.0427(13) 0.5911(8) 0.9043(7)
O45_3 O 0.1329(12) 0.5628(10) 0.9910(10)
C69_3 C 0.1037(17) 0.5905(15) 0.8838(9)
H41_3 H 0.102813 0.597575 0.853360
O50_3 O 0.1684(15) 0.5806(17) 0.9026(13)
O12_4 O 0.9624(8) 0.3261(5) 0.0309(4)
C9_4 C 0.9388(12) 0.2321(9) 0.0113(8)
C11_4 C 0.9802(16) 0.2032(9) 0.0856(8)
H5_4 H 0.979759 0.122350 0.075945
C26_4 C 0.9665(12) 0.2852(8) 0.0015(7)
C28_4 C 0.9065(15) 0.2182(10) 0.0568(9)
H9_4 H 0.883998 0.252936 0.068975
O23_4 O 0.9808(15) 0.3285(12) 0.2003(7)
C36_4 C 0.836(2) 0.1780(13) 0.0574(14)
H22_4 H 0.837381 0.156027 0.030789
H23_4 H 0.841419 0.154072 0.082794
H24_4 H 0.783873 0.197785 0.059024
O43_4 O 0.9573(13) 0.4089(8) 0.0957(7)
O45_4 O 0.8671(12) 0.4372(10) 0.0090(10)
C69_4 C 0.8963(17) 0.4095(15) 0.1162(9)
H41_4 H 0.897187 0.402425 0.146640
O50_4 O 0.8316(15) 0.4194(17) 0.0974(13)
loop_
_geom_bond_atom_site_label_1
_geom_bond_atom_site_label_2
_geom_bond_site_symmetry_1
_geom_bond_site_symmetry_2
Pr1 O1 1_555 1_555
Pr2 O3 1_555 1_555
Pr3 O2 1_555 1_555
Pr4 O5 1_555 1_555
Pr5 O10 1_555 1_555
O1 C5 1_555 1_555
O2 C1 1_555 1_555
O3 C10 1_555 1_555
O5 C29 1_555 1_555
O6 Pr1 1_555 1_555
O7 Pr1 1_555 1_555
O8 C4 1_555 1_555
O9 Pr3 1_555 1_555
O10 Pr3 1_555 1_555
O11 Pr2 1_555 1_555
C1 C8 1_555 1_555
O13 C15 1_555 1_555
C2 O7 1_555 1_555
O14 Pr5 1_555 1_555
C3 C17 1_555 1_555
C4 C2 1_555 1_555
C5 C2 1_555 1_555
C6 C4 1_555 1_555
C7 C13 1_555 1_555
C8 C25 1_555 1_555
C12 C5 1_555 1_555
C13 O14 1_555 1_555
C17 C6 1_555 1_555
H1 C17 1_555 1_555
C18 O11 1_555 1_555
C19 O10 1_555 1_555
C21 O6 1_555 1_555
H3 C21 1_555 1_555
C22 C6 1_555 1_555
H4 C22 1_555 1_555
C23 C3 1_555 1_555
C25 C7 1_555 1_555
H7 C25 1_555 1_555
C27 C8 1_555 1_555
H8 C27 1_555 1_555
O15 Pr2 1_555 1_555
O16 Pr5 1_555 1_555
O17 Pr3 1_555 1_555
O18 Pr1 1_555 1_555
O19 Pr3 1_555 1_555
O20 Pr1 1_555 1_555
O21 C31 1_555 1_555
C29 C3 1_555 1_555
C30 C27 1_555 1_555
H10 C30 1_555 1_555
H11 C30 1_555 1_555
H12 C30 1_555 1_555
C31 O15 1_555 1_555
H13 C31 1_555 1_555
C32 C17 1_555 1_555
H14 C32 1_555 1_555
H15 C32 1_555 1_555
H16 C32 1_555 1_555
C33 O18 1_555 1_555
H17 C33 1_555 1_555
O22 Pr2 1_555 1_555
O24 C34 1_555 1_555
C34 O16 1_555 1_555
H18 C34 1_555 1_555
O25 C33 1_555 1_555
Pr6 O4 1_555 1_555
Pr7 O7 1_555 1_555
Pr8 O4 1_555 1_555
O26 Pr6 1_555 1_555
O27 Pr8 1_555 1_555
O28 Pr7 1_555 1_555
O29 Pr1 1_555 1_555
O30 Pr4 1_555 1_555
O32 Pr2 1_555 1_555
O33 Pr2 1_555 1_555
O34 Pr8 1_555 1_555
O35 Pr5 1_555 1_555
O36 Pr4 1_555 1_555
O37 Pr1 1_555 1_555
C37 O27 1_555 1_555
O38 Pr3 1_555 1_555
C38 O32 1_555 1_555
O39 Pr5 1_555 1_555
C39 C53 1_555 1_555
C40 O33 1_555 1_555
C41 O26 1_555 1_555
C42 C40 1_555 1_555
C43 C49 1_555 1_555
C44 C37 1_555 1_555
C45 C56 1_555 1_555
C46 O28 1_555 1_555
C47 C46 1_555 1_555
C48 C41 1_555 1_555
C49 O39 1_555 1_555
C50 O29 1_555 1_555
C51 O38 1_555 1_555
C52 C51 1_555 1_555
C53 C42 1_555 1_555
H25 C53 1_555 1_555
C54 O36 1_555 1_555
C55 O35 1_555 1_555
C56 C52 1_555 1_555
H26 C56 1_555 1_555
C58 C42 1_555 1_555
H28 C58 1_555 1_555
C59 C39 1_555 1_555
H29 C59 1_555 1_555
C60 C43 1_555 1_555
H30 C60 1_555 1_555
C61 C43 1_555 1_555
H31 C61 1_555 1_555
C62 O37 1_555 1_555
C63 C44 1_555 1_555
H32 C63 1_555 1_555
C64 C45 1_555 1_555
H33 C64 1_555 1_555
O40 Pr4 1_555 1_555
O41 Pr3 1_555 1_555
O44 Pr8 1_555 1_555
O46 C67 1_555 1_555
C65 O30 1_555 1_555
C67 O40 1_555 1_555
H37 C67 1_555 1_555
C68 C53 1_555 1_555
H38 C68 1_555 1_555
H39 C68 1_555 1_555
H40 C68 1_555 1_555
O47 Pr7 1_555 1_555
O48 Pr7 1_555 1_555
O49 C70 1_555 1_555
C70 O41 1_555 1_555
H42 C70 1_555 1_555
C71 C60 1_555 1_555
H43 C71 1_555 1_555
H44 C71 1_555 1_555
H45 C71 1_555 1_555
C72 C64 1_555 1_555
H46 C72 1_555 1_555
H47 C72 1_555 1_555
H48 C72 1_555 1_555
Pr9 O6 1_555 1_555
Pr11 O24 1_555 1_555
Pr12 O21 1_555 1_555
O51 Pr1 1_555 1_555
O53 Pr5 1_555 1_555
O54 Pr5 1_555 1_555
O55 Pr4 1_555 1_555
O56 Pr4 1_555 1_555
Pr3 O29 1_555 1_555
Pr4 O11 1_555 1_555
Pr4 O15 1_555 1_555
Pr5 O41 1_555 1_555
O8 Pr7 1_555 1_555
O9 C21 1_555 1_555
C1 C19 1_555 1_555
O13 Pr8 1_555 1_555
C10 C18 1_555 1_555
C12 C22 1_555 1_555
C12 C27 1_555 1_555
C13 C19 1_555 1_555
C18 C29 1_555 1_555
O16 Pr8 1_555 1_555
O18 Pr7 1_555 1_555
Pr6 O32 1_555 1_555
Pr7 O36 1_555 1_555
Pr7 O40 1_555 1_555
Pr8 O35 1_555 1_555
C37 C55 1_555 1_555
C38 C40 1_555 1_555
C38 C41 1_555 1_555
C39 C65 1_555 1_555
C44 C61 1_555 1_555
C45 C62 1_555 1_555
C46 C54 1_555 1_555
C47 C59 1_555 1_555
C47 C64 1_555 1_555
C48 C58 1_555 1_555
C48 C63 1_555 1_555
C49 C55 1_555 1_555
C50 C51 1_555 1_555
C50 C62 1_555 1_555
C52 C60 1_555 1_555
C54 C65 1_555 1_555
O46 Pr12 1_555 1_555
O49 Pr11 1_555 1_555
Pr9 O51 1_555 1_555
C16 C20 1_555 1_555
C20 H2 1_555 1_555
H6 C24 1_555 1_555
C35 C24 1_555 1_555
H19 C35 1_555 1_555
H20 C35 1_555 1_555
H21 C35 1_555 1_555
C57 O31 1_555 1_555
H27_2 C57 1_555 1_555
Pr10_2 O31 1_555 1_555
C16 C24 1_555 1_555
H10_2 C30_2 1_555 1_555
H11_2 C30_2 1_555 1_555
H12_2 C30_2 1_555 1_555
Pr3_2 O2_2 1_555 1_555
Pr5_2 O10_2 1_555 1_555
O2_2 C1_2 1_555 1_555
O9_2 Pr3_2 1_555 1_555
O10_2 Pr3_2 1_555 1_555
C1_2 C8_2 1_555 1_555
O13_2 C15_2 1_555 1_555
O14_2 Pr5_2 1_555 1_555
C7_2 C13_2 1_555 1_555
C8_2 C25_2 1_555 1_555
C13_2 O14_2 1_555 1_555
C19_2 O10_2 1_555 1_555
C21_2 O6_2 1_555 1_555
C25_2 C7_2 1_555 1_555
H7_2 C25_2 1_555 1_555
C27_2 C8_2 1_555 1_555
H8_2 C27_2 1_555 1_555
O16_2 Pr5_2 1_555 1_555
O17_2 Pr3_2 1_555 1_555
O19_2 Pr3_2 1_555 1_555
O24_2 C34_2 1_555 1_555
C34_2 O16_2 1_555 1_555
H18_2 C34_2 1_555 1_555
Pr8_2 O4_2 1_555 1_555
O27_2 Pr8_2 1_555 1_555
O34_2 Pr8_2 1_555 1_555
O35_2 Pr5_2 1_555 1_555
C37_2 O27_2 1_555 1_555
O38_2 Pr3_2 1_555 1_555
O39_2 Pr5_2 1_555 1_555
C43_2 C49_2 1_555 1_555
C44_2 C37_2 1_555 1_555
C49_2 O39_2 1_555 1_555
C50_2 O29_2 1_555 1_555
C51_2 O38_2 1_555 1_555
C52_2 C51_2 1_555 1_555
C55_2 O35_2 1_555 1_555
C56_2 C52_2 1_555 1_555
H26_2 C56_2 1_555 1_555
C60_2 C43_2 1_555 1_555
H30_2 C60_2 1_555 1_555
C61_2 C43_2 1_555 1_555
H31_2 C61_2 1_555 1_555
C63_2 C44_2 1_555 1_555
H32_2 C63_2 1_555 1_555
O41_2 Pr3_2 1_555 1_555
O44_2 Pr8_2 1_555 1_555
C66 C63_2 1_555 1_555
H34 C66 1_555 1_555
H35 C66 1_555 1_555
H36 C66 1_555 1_555
O49_2 C70_2 1_555 1_555
C70_2 O41_2 1_555 1_555
H42_2 C70_2 1_555 1_555
C71_2 C60_2 1_555 1_555
H43_2 C71_2 1_555 1_555
H44_2 C71_2 1_555 1_555
H45_2 C71_2 1_555 1_555
Pr11_2 O24_2 1_555 1_555
O53_2 Pr5_2 1_555 1_555
O54_2 Pr5_2 1_555 1_555
Pr3_2 O29_2 1_555 1_555
Pr5_2 O41_2 1_555 1_555
O9_2 C21_2 1_555 1_555
C1_2 C19_2 1_555 1_555
O13_2 Pr8_2 1_555 1_555
C13_2 C19_2 1_555 1_555
O16_2 Pr8_2 1_555 1_555
Pr8_2 O35_2 1_555 1_555
C37_2 C55_2 1_555 1_555
C44_2 C61_2 1_555 1_555
C49_2 C55_2 1_555 1_555
C50_2 C51_2 1_555 1_555
C52_2 C60_2 1_555 1_555
O49_2 Pr11_2 1_555 1_555
Pr2_2 O3_2 1_555 1_555
Pr4_2 O5_2 1_555 1_555
O3_2 C10_2 1_555 1_555
O5_2 C29_2 1_555 1_555
O7_2 Pr1_2 1_555 1_555
O8_2 C4_2 1_555 1_555
O11_2 Pr2_2 1_555 1_555
C2_2 O7_2 1_555 1_555
C3_2 C17_2 1_555 1_555
C4_2 C2_2 1_555 1_555
C5_2 C2_2 1_555 1_555
C6_2 C4_2 1_555 1_555
C12_2 C5_2 1_555 1_555
C17_2 C6_2 1_555 1_555
H1_2 C17_2 1_555 1_555
C18_2 O11_2 1_555 1_555
C22_2 C6_2 1_555 1_555
H4_2 C22_2 1_555 1_555
C23_2 C3_2 1_555 1_555
O15_2 Pr2_2 1_555 1_555
O18_2 Pr1_2 1_555 1_555
O20_2 Pr1_2 1_555 1_555
O21_2 C31_2 1_555 1_555
C29_2 C3_2 1_555 1_555
C31_2 O15_2 1_555 1_555
H13_2 C31_2 1_555 1_555
C32_2 C17_2 1_555 1_555
H14_2 C32_2 1_555 1_555
H15_2 C32_2 1_555 1_555
H16_2 C32_2 1_555 1_555
C33_2 O18_2 1_555 1_555
H17_2 C33_2 1_555 1_555
O22_2 Pr2_2 1_555 1_555
O25_2 C33_2 1_555 1_555
Pr7_2 O7_2 1_555 1_555
O28_2 Pr7_2 1_555 1_555
O30_2 Pr4_2 1_555 1_555
O32_2 Pr2_2 1_555 1_555
O33_2 Pr2_2 1_555 1_555
O36_2 Pr4_2 1_555 1_555
O37_2 Pr1_2 1_555 1_555
C38_2 O32_2 1_555 1_555
C39_2 C53_2 1_555 1_555
C40_2 O33_2 1_555 1_555
C42_2 C40_2 1_555 1_555
C46_2 O28_2 1_555 1_555
C47_2 C46_2 1_555 1_555
C48_2 C41_2 1_555 1_555
C53_2 C42_2 1_555 1_555
H25_2 C53_2 1_555 1_555
C54_2 O36_2 1_555 1_555
C58_2 C42_2 1_555 1_555
H28_2 C58_2 1_555 1_555
C59_2 C39_2 1_555 1_555
H29_2 C59_2 1_555 1_555
C62_2 O37_2 1_555 1_555
C64_2 C45_2 1_555 1_555
H33_2 C64_2 1_555 1_555
O40_2 Pr4_2 1_555 1_555
O46_2 C67_2 1_555 1_555
C65_2 O30_2 1_555 1_555
C67_2 O40_2 1_555 1_555
H37_2 C67_2 1_555 1_555
C68_2 C53_2 1_555 1_555
H38_2 C68_2 1_555 1_555
H39_2 C68_2 1_555 1_555
H40_2 C68_2 1_555 1_555
O47_2 Pr7_2 1_555 1_555
O48_2 Pr7_2 1_555 1_555
C72_2 C64_2 1_555 1_555
H46_2 C72_2 1_555 1_555
H47_2 C72_2 1_555 1_555
H48_2 C72_2 1_555 1_555
Pr12_2 O21_2 1_555 1_555
O52 Pr6_2 1_555 1_555
O55_2 Pr4_2 1_555 1_555
O56_2 Pr4_2 1_555 1_555
Pr4_2 O11_2 1_555 1_555
Pr4_2 O15_2 1_555 1_555
O8_2 Pr7_2 1_555 1_555
C10_2 C18_2 1_555 1_555
C12_2 C22_2 1_555 1_555
C18_2 C29_2 1_555 1_555
O18_2 Pr7_2 1_555 1_555
Pr6_2 O32_2 1_555 1_555
Pr7_2 O36_2 1_555 1_555
Pr7_2 O40_2 1_555 1_555
C38_2 C40_2 1_555 1_555
C38_2 C41_2 1_555 1_555
C39_2 C65_2 1_555 1_555
C45_2 C62_2 1_555 1_555
C46_2 C54_2 1_555 1_555
C47_2 C59_2 1_555 1_555
C47_2 C64_2 1_555 1_555
C48_2 C58_2 1_555 1_555
C54_2 C65_2 1_555 1_555
O46_2 Pr12_2 1_555 1_555
Pr9 O1_3 1_555 1_555
Pr2_3 O3_3 1_555 1_555
Pr3_3 O2_3 1_555 1_555
Pr11_2 O5_3 1_555 1_555
Pr12_2 O10_3 1_555 1_555
O1_3 C5_3 1_555 1_555
O2_3 C1_3 1_555 1_555
O3_3 C10_3 1_555 1_555
O5_3 C29_3 1_555 1_555
O7_3 Pr9 1_555 1_555
O8_3 C4_3 1_555 1_555
O9_3 Pr3_3 1_555 1_555
O10_3 Pr3_3 1_555 1_555
O11_3 Pr2_3 1_555 1_555
C1_3 C8_3 1_555 1_555
O13_3 C15_3 1_555 1_555
C2_3 O7_3 1_555 1_555
O14_3 Pr12_2 1_555 1_555
C3_3 C17_3 1_555 1_555
C4_3 C2_3 1_555 1_555
C5_3 C2_3 1_555 1_555
C6_3 C4_3 1_555 1_555
C7_3 C13_3 1_555 1_555
C8_3 C25_3 1_555 1_555
C12_3 C5_3 1_555 1_555
C13_3 O14_3 1_555 1_555
C17_3 C6_3 1_555 1_555
H1_3 C17_3 1_555 1_555
C18_3 O11_3 1_555 1_555
C19_3 O10_3 1_555 1_555
C21_3 O51 1_555 1_555
H3_3 C21_3 1_555 1_555
C22_3 C6_3 1_555 1_555
H4_3 C22_3 1_555 1_555
C23_3 C3_3 1_555 1_555
C25_3 C7_3 1_555 1_555
H7_3 C25_3 1_555 1_555
C27_3 C8_3 1_555 1_555
H8_3 C27_3 1_555 1_555
O15_3 Pr2_3 1_555 1_555
O16_3 Pr12_2 1_555 1_555
O17_3 Pr3_3 1_555 1_555
O18_3 Pr9 1_555 1_555
O19_3 Pr3_3 1_555 1_555
O20_3 Pr9 1_555 1_555
O53_2 C31_3 1_555 1_555
C29_3 C3_3 1_555 1_555
C30_3 C27_3 1_555 1_555
H10_3 C30_3 1_555 1_555
H11_3 C30_3 1_555 1_555
H12_3 C30_3 1_555 1_555
C31_3 O15_3 1_555 1_555
H13_3 C31_3 1_555 1_555
C32_3 C17_3 1_555 1_555
H14_3 C32_3 1_555 1_555
H15_3 C32_3 1_555 1_555
H16_3 C32_3 1_555 1_555
C33_3 O18_3 1_555 1_555
H17_3 C33_3 1_555 1_555
O22_3 Pr2_3 1_555 1_555
O55_2 C34_3 1_555 1_555
C34_3 O16_3 1_555 1_555
H18_3 C34_3 1_555 1_555
O25_3 C33_3 1_555 1_555
Pr10 O4_3 1_555 1_555
Pr7_3 O7_3 1_555 1_555
Pr8_3 O4_3 1_555 1_555
O26_3 Pr10 1_555 1_555
O27_3 Pr8_3 1_555 1_555
O28_3 Pr7_3 1_555 1_555
O29_3 Pr9 1_555 1_555
O30_3 Pr11_2 1_555 1_555
O32_3 Pr2_3 1_555 1_555
O33_3 Pr2_3 1_555 1_555
O34_3 Pr8_3 1_555 1_555
O35_3 Pr12_2 1_555 1_555
O36_3 Pr11_2 1_555 1_555
O37_3 Pr9 1_555 1_555
C37_3 O27_3 1_555 1_555
O38_3 Pr3_3 1_555 1_555
C38_3 O32_3 1_555 1_555
O39_3 Pr12_2 1_555 1_555
C39_3 C53_3 1_555 1_555
C40_3 O33_3 1_555 1_555
C41_3 O26_3 1_555 1_555
C42_3 C40_3 1_555 1_555
C43_3 C49_3 1_555 1_555
C44_3 C37_3 1_555 1_555
C45_3 C56_3 1_555 1_555
C46_3 O28_3 1_555 1_555
C47_3 C46_3 1_555 1_555
C48_3 C41_3 1_555 1_555
C49_3 O39_3 1_555 1_555
C50_3 O29_3 1_555 1_555
C51_3 O38_3 1_555 1_555
C52_3 C51_3 1_555 1_555
C53_3 C42_3 1_555 1_555
H25_3 C53_3 1_555 1_555
C54_3 O36_3 1_555 1_555
C55_3 O35_3 1_555 1_555
C56_3 C52_3 1_555 1_555
H26_3 C56_3 1_555 1_555
C58_3 C42_3 1_555 1_555
H28_3 C58_3 1_555 1_555
C59_3 C39_3 1_555 1_555
H29_3 C59_3 1_555 1_555
C60_3 C43_3 1_555 1_555
H30_3 C60_3 1_555 1_555
C61_3 C43_3 1_555 1_555
H31_3 C61_3 1_555 1_555
C62_3 O37_3 1_555 1_555
C63_3 C44_3 1_555 1_555
H32_3 C63_3 1_555 1_555
C64_3 C45_3 1_555 1_555
H33_3 C64_3 1_555 1_555
O40_3 Pr11_2 1_555 1_555
O41_3 Pr3_3 1_555 1_555
O44_3 Pr8_3 1_555 1_555
O54_2 C67_3 1_555 1_555
C65_3 O30_3 1_555 1_555
C67_3 O40_3 1_555 1_555
H37_3 C67_3 1_555 1_555
C68_3 C53_3 1_555 1_555
H38_3 C68_3 1_555 1_555
H39_3 C68_3 1_555 1_555
H40_3 C68_3 1_555 1_555
O47_3 Pr7_3 1_555 1_555
O48_3 Pr7_3 1_555 1_555
O56_2 C70_3 1_555 1_555
C70_3 O41_3 1_555 1_555
H42_3 C70_3 1_555 1_555
C71_3 C60_3 1_555 1_555
H43_3 C71_3 1_555 1_555
H44_3 C71_3 1_555 1_555
H45_3 C71_3 1_555 1_555
C72_3 C64_3 1_555 1_555
H46_3 C72_3 1_555 1_555
H47_3 C72_3 1_555 1_555
H48_3 C72_3 1_555 1_555
Pr3_3 O29_3 1_555 1_555
Pr11_2 O11_3 1_555 1_555
Pr11_2 O15_3 1_555 1_555
Pr12_2 O41_3 1_555 1_555
O8_3 Pr7_3 1_555 1_555
O9_3 C21_3 1_555 1_555
C1_3 C19_3 1_555 1_555
O13_3 Pr8_3 1_555 1_555
C10_3 C18_3 1_555 1_555
C12_3 C22_3 1_555 1_555
C12_3 C27_3 1_555 1_555
C13_3 C19_3 1_555 1_555
C18_3 C29_3 1_555 1_555
O16_3 Pr8_3 1_555 1_555
O18_3 Pr7_3 1_555 1_555
Pr10 O32_3 1_555 1_555
Pr7_3 O36_3 1_555 1_555
Pr7_3 O40_3 1_555 1_555
Pr8_3 O35_3 1_555 1_555
C37_3 C55_3 1_555 1_555
C38_3 C40_3 1_555 1_555
C38_3 C41_3 1_555 1_555
C39_3 C65_3 1_555 1_555
C44_3 C61_3 1_555 1_555
C45_3 C62_3 1_555 1_555
C46_3 C54_3 1_555 1_555
C47_3 C59_3 1_555 1_555
C47_3 C64_3 1_555 1_555
C48_3 C58_3 1_555 1_555
C48_3 C63_3 1_555 1_555
C49_3 C55_3 1_555 1_555
C50_3 C51_3 1_555 1_555
C50_3 C62_3 1_555 1_555
C52_3 C60_3 1_555 1_555
C54_3 C65_3 1_555 1_555
Pr2_4 O3_4 1_555 1_555
Pr11 O5_4 1_555 1_555
O3_4 C10_4 1_555 1_555
O5_4 C29_4 1_555 1_555
O7_4 Pr9_2 1_555 1_555
O8_4 C4_4 1_555 1_555
O11_4 Pr2_4 1_555 1_555
C2_4 O7_4 1_555 1_555
C3_4 C17_4 1_555 1_555
C4_4 C2_4 1_555 1_555
C5_4 C2_4 1_555 1_555
C6_4 C4_4 1_555 1_555
C12_4 C5_4 1_555 1_555
C17_4 C6_4 1_555 1_555
H1_4 C17_4 1_555 1_555
C18_4 O11_4 1_555 1_555
C22_4 C6_4 1_555 1_555
H4_4 C22_4 1_555 1_555
C23_4 C3_4 1_555 1_555
O15_4 Pr2_4 1_555 1_555
O18_4 Pr9_2 1_555 1_555
O20_4 Pr9_2 1_555 1_555
O53 C31_4 1_555 1_555
C29_4 C3_4 1_555 1_555
C31_4 O15_4 1_555 1_555
H13_4 C31_4 1_555 1_555
C32_4 C17_4 1_555 1_555
H14_4 C32_4 1_555 1_555
H15_4 C32_4 1_555 1_555
H16_4 C32_4 1_555 1_555
C33_4 O18_4 1_555 1_555
H17_4 C33_4 1_555 1_555
O22_4 Pr2_4 1_555 1_555
O25_4 C33_4 1_555 1_555
Pr7_4 O7_4 1_555 1_555
O28_4 Pr7_4 1_555 1_555
O30_4 Pr11 1_555 1_555
O32_4 Pr2_4 1_555 1_555
O33_4 Pr2_4 1_555 1_555
O36_4 Pr11 1_555 1_555
O37_4 Pr9_2 1_555 1_555
C38_4 O32_4 1_555 1_555
C39_4 C53_4 1_555 1_555
C40_4 O33_4 1_555 1_555
C42_4 C40_4 1_555 1_555
C46_4 O28_4 1_555 1_555
C47_4 C46_4 1_555 1_555
C48_4 C41_4 1_555 1_555
C53_4 C42_4 1_555 1_555
H25_4 C53_4 1_555 1_555
C54_4 O36_4 1_555 1_555
C58_4 C42_4 1_555 1_555
H28_4 C58_4 1_555 1_555
C59_4 C39_4 1_555 1_555
H29_4 C59_4 1_555 1_555
C62_4 O37_4 1_555 1_555
C64_4 C45_4 1_555 1_555
H33_4 C64_4 1_555 1_555
O40_4 Pr11 1_555 1_555
O54 C67_4 1_555 1_555
C65_4 O30_4 1_555 1_555
C67_4 O40_4 1_555 1_555
H37_4 C67_4 1_555 1_555
C68_4 C53_4 1_555 1_555
H38_4 C68_4 1_555 1_555
H39_4 C68_4 1_555 1_555
H40_4 C68_4 1_555 1_555
O47_4 Pr7_4 1_555 1_555
O48_4 Pr7_4 1_555 1_555
C72_4 C64_4 1_555 1_555
H46_4 C72_4 1_555 1_555
H47_4 C72_4 1_555 1_555
H48_4 C72_4 1_555 1_555
Pr11 O11_4 1_555 1_555
Pr11 O15_4 1_555 1_555
O8_4 Pr7_4 1_555 1_555
C10_4 C18_4 1_555 1_555
C12_4 C22_4 1_555 1_555
C18_4 C29_4 1_555 1_555
O18_4 Pr7_4 1_555 1_555
Pr10_2 O32_4 1_555 1_555
Pr7_4 O36_4 1_555 1_555
Pr7_4 O40_4 1_555 1_555
C38_4 C40_4 1_555 1_555
C38_4 C41_4 1_555 1_555
C39_4 C65_4 1_555 1_555
C45_4 C62_4 1_555 1_555
C46_4 C54_4 1_555 1_555
C47_4 C59_4 1_555 1_555
C47_4 C64_4 1_555 1_555
C48_4 C58_4 1_555 1_555
C54_4 C65_4 1_555 1_555
Pr3_4 O2_4 1_555 1_555
Pr12 O10_4 1_555 1_555
O2_4 C1_4 1_555 1_555
O9_4 Pr3_4 1_555 1_555
O10_4 Pr3_4 1_555 1_555
C1_4 C8_4 1_555 1_555
O13_4 C15_4 1_555 1_555
O14_4 Pr12 1_555 1_555
C7_4 C13_4 1_555 1_555
C8_4 C25_4 1_555 1_555
C13_4 O14_4 1_555 1_555
C19_4 O10_4 1_555 1_555
C21_4 O51_2 1_555 1_555
C25_4 C7_4 1_555 1_555
H7_4 C25_4 1_555 1_555
C27_4 C8_4 1_555 1_555
H8_4 C27_4 1_555 1_555
O16_4 Pr12 1_555 1_555
O17_4 Pr3_4 1_555 1_555
O19_4 Pr3_4 1_555 1_555
O55 C34_4 1_555 1_555
C34_4 O16_4 1_555 1_555
H18_4 C34_4 1_555 1_555
Pr8_4 O4_4 1_555 1_555
O27_4 Pr8_4 1_555 1_555
O34_4 Pr8_4 1_555 1_555
O35_4 Pr12 1_555 1_555
C37_4 O27_4 1_555 1_555
O38_4 Pr3_4 1_555 1_555
O39_4 Pr12 1_555 1_555
C43_4 C49_4 1_555 1_555
C44_4 C37_4 1_555 1_555
C49_4 O39_4 1_555 1_555
C50_4 O29_4 1_555 1_555
C51_4 O38_4 1_555 1_555
C52_4 C51_4 1_555 1_555
C55_4 O35_4 1_555 1_555
C56_4 C52_4 1_555 1_555
H26_4 C56_4 1_555 1_555
C60_4 C43_4 1_555 1_555
H30_4 C60_4 1_555 1_555
C61_4 C43_4 1_555 1_555
H31_4 C61_4 1_555 1_555
C63_4 C44_4 1_555 1_555
H32_4 C63_4 1_555 1_555
O41_4 Pr3_4 1_555 1_555
O44_4 Pr8_4 1_555 1_555
C66_2 C63_4 1_555 1_555
H34_2 C66_2 1_555 1_555
H35_2 C66_2 1_555 1_555
H36_2 C66_2 1_555 1_555
O56 C70_4 1_555 1_555
C70_4 O41_4 1_555 1_555
H42_4 C70_4 1_555 1_555
C71_4 C60_4 1_555 1_555
H43_4 C71_4 1_555 1_555
H44_4 C71_4 1_555 1_555
H45_4 C71_4 1_555 1_555
Pr3_4 O29_4 1_555 1_555
Pr12 O41_4 1_555 1_555
O9_4 C21_4 1_555 1_555
C1_4 C19_4 1_555 1_555
O13_4 Pr8_4 1_555 1_555
C13_4 C19_4 1_555 1_555
O16_4 Pr8_4 1_555 1_555
Pr8_4 O35_4 1_555 1_555
C37_4 C55_4 1_555 1_555
C44_4 C61_4 1_555 1_555
C49_4 C55_4 1_555 1_555
C50_4 C51_4 1_555 1_555
C52_4 C60_4 1_555 1_555
H10_4 C30_4 1_555 1_555
H11_4 C30_4 1_555 1_555
H12_4 C30_4 1_555 1_555
C16_2 C20_2 1_555 1_555
C20_2 H2_2 1_555 1_555
H6_2 C24_2 1_555 1_555
C35_2 C24_2 1_555 1_555
H19_2 C35_2 1_555 1_555
H20_2 C35_2 1_555 1_555
H21_2 C35_2 1_555 1_555
C57_2 O52 1_555 1_555
H27_4 C57_2 1_555 1_555
C16_2 C24_2 1_555 1_555
H34_3 C66_3 1_555 1_555
H35_3 C66_3 1_555 1_555
H36_3 C66_3 1_555 1_555
O12 C26 1_555 1_555
C9 C20_3 1_555 1_555
C16_3 C20_3 1_555 1_555
C20_3 H2_3 1_555 1_555
H6_3 C24_3 1_555 1_555
C26 C9 1_555 1_555
C28 C9 1_555 1_555
H9 C28 1_555 1_555
C35_3 C24_3 1_555 1_555
H19_3 C35_3 1_555 1_555
H20_3 C35_3 1_555 1_555
H21_3 C35_3 1_555 1_555
C36 C28 1_555 1_555
H22 C36 1_555 1_555
H23 C36 1_555 1_555
H24 C36 1_555 1_555
C57_3 O52_2 1_555 1_555
C69 O43 1_555 1_555
H41 C69 1_555 1_555
O50 C69 1_555 1_555
C11 C28 1_555 1_555
C14_3 C26 1_555 1_555
C16_3 C24_3 1_555 1_555
O12_2 C26_2 1_555 1_555
C9_2 C20_4 1_555 1_555
C16_4 C20_4 1_555 1_555
C20_4 H2_4 1_555 1_555
H6_4 C24_4 1_555 1_555
C26_2 C9_2 1_555 1_555
C28_2 C9_2 1_555 1_555
H9_2 C28_2 1_555 1_555
C35_4 C24_4 1_555 1_555
H19_4 C35_4 1_555 1_555
H20_4 C35_4 1_555 1_555
H21_4 C35_4 1_555 1_555
C36_2 C28_2 1_555 1_555
H22_2 C36_2 1_555 1_555
H23_2 C36_2 1_555 1_555
H24_2 C36_2 1_555 1_555
C57_4 O31_2 1_555 1_555
C69_2 O43_2 1_555 1_555
H41_2 C69_2 1_555 1_555
O50_2 C69_2 1_555 1_555
C11_2 C28_2 1_555 1_555
C14_4 C26_2 1_555 1_555
C16_4 C24_4 1_555 1_555
H34_4 C66_4 1_555 1_555
H35_4 C66_4 1_555 1_555
H36_4 C66_4 1_555 1_555
O12_3 C26_3 1_555 1_555
C26_3 C9_3 1_555 1_555
C28_3 C9_3 1_555 1_555
H9_3 C28_3 1_555 1_555
C36_3 C28_3 1_555 1_555
H22_3 C36_3 1_555 1_555
H23_3 C36_3 1_555 1_555
H24_3 C36_3 1_555 1_555
C69_3 O43_3 1_555 1_555
H41_3 C69_3 1_555 1_555
O50_3 C69_3 1_555 1_555
C11_3 C28_3 1_555 1_555
O12_4 C26_4 1_555 1_555
C26_4 C9_4 1_555 1_555
C28_4 C9_4 1_555 1_555
H9_4 C28_4 1_555 1_555
C36_4 C28_4 1_555 1_555
H22_4 C36_4 1_555 1_555
H23_4 C36_4 1_555 1_555
H24_4 C36_4 1_555 1_555
C69_4 O43_4 1_555 1_555
H41_4 C69_4 1_555 1_555
O50_4 C69_4 1_555 1_555
C11_4 C28_4 1_555 1_555

#END
