
###############################################################################
#
# This file contains modified crystal structure data generated from the
# MOF subset of the Cambridge Structural Database (CSD) v543 
# hosted by the Cambridge Crystallographic Data Centre (CCDC).
#
# This work is licensed under the Creative Commons
# Attribution-NonCommercial-ShareAlike 4.0 International License.
# To view a copy of this license, visit
# http://creativecommons.org/licenses/by-nc-sa/4.0/
# or send a letter to
# Creative Commons, PO Box 1866, Mountain View, CA 94042, USA.
#
# CIF created using the CSD Python API on 29 September 2022
# The structure has been converted into the P1 space group
# The structure has a 3D framework
# The original CSD entry ENIHUG01 is in the rhombohedral crystal system
# The framework has been calculated to contain at least 10.0% void space
# The void calculation uses a probe of radius 1.32A, grid spacing 0.4
# H atom positions have been added when not included in the experimental data
# Generated hydrogen atom positions removed from atoms on special positions
#
###############################################################################

data_ENIHUG01
_chemical_formula_moiety         '(C243 H189 Cu18 N9 O90)n'
_symmetry_cell_setting           triclinic
_symmetry_space_group_name_H-M   'P 1'
_symmetry_Int_Tables_number      1
_space_group_name_Hall           'P 1'
loop_
_symmetry_equiv_pos_site_id
_symmetry_equiv_pos_as_xyz
1 x,y,z
_cell_length_a                   26.221(7)
_cell_length_b                   26.221(7)
_cell_length_c                   26.020(11)
_cell_angle_alpha                90
_cell_angle_beta                 90
_cell_angle_gamma                120
_cell_volume                     15493
loop_
_atom_site_label
_atom_site_type_symbol
_atom_site_fract_x
_atom_site_fract_y
_atom_site_fract_z
N1 N 0.3074(3) 0.15371(14) 0.1226(2)
C4 C 0.3026(3) 0.0154(2) 0.0966(2)
H2 H 0.3150 0.0226 0.0617
C5 C 0.3039(2) 0.0606(2) 0.1244(2)
C6 C 0.2828(2) 0.0483(2) 0.1715(2)
H3 H 0.2809 0.0776 0.1915
C8 C 0.3266(3) 0.1183(2) 0.1026(2)
C9 C 0.3728(2) 0.13906(19) 0.0647(2)
H5 H 0.3879 0.1145 0.0540
C10 C 0.3965(3) 0.19824(15) 0.0428(3)
C11 C 0.4357(3) 0.21784(15) 0.0033(3)
O7 O 0.25103(13) 0.39651(18) 0.15741(13)
O8 O 0.22509(15) 0.34669(19) 0.23063(15)
C16 C 0.2476(2) 0.3572(3) 0.1878(2)
C17 C 0.26564(19) 0.31524(28) 0.1636(3)
C18 C 0.2848(3) 0.3222(4) 0.1158(2)
H8 H 0.2859 0.3526 0.0951
C19 C 0.3026(3) 0.2872(4) 0.0966(2)
H9 H 0.3150 0.2924 0.0617
C20 C 0.3039(2) 0.2433(3) 0.1244(2)
C21 C 0.2828(2) 0.2345(3) 0.1715(2)
H10 H 0.2809 0.2033 0.1915
C22 C 0.2631(2) 0.2710(3) 0.1922(2)
H11 H 0.2481 0.2647 0.2263
C23 C 0.3266(3) 0.2083(4) 0.1026(2)
C24 C 0.3728(2) 0.23374(28) 0.0647(2)
H12 H 0.3879 0.2734 0.0540
Cu3 Cu 0.227504(14) 0.455008(20) 0.17367(3)
Cu6 Cu 0.197874(13) 0.395748(18) 0.26203(3)
O3 O 0.50697(13) 0.11796(13) 0.94590(14)
O4 O 0.53444(15) 0.17116(13) 0.87116(14)
C12 C 0.4556(2) 0.1828(2) 0.9816(2)
H6 H 0.4439 0.1453 0.9961
C13 C 0.4933(2) 0.20206(19) 0.9381(2)
C14 C 0.5126(2) 0.1617(2) 0.9166(3)
C15 C 0.5106(2) 0.25530(12) 0.9134(3)
H7 H 0.5325 0.2662 0.8823
O9 O 0.50697(13) 0.38901(18) 0.94590(14)
O10 O 0.53444(15) 0.36328(20) 0.87116(14)
C25 C 0.4556(2) 0.2728(3) 0.9816(2)
H13 H 0.4439 0.2986 0.9961
C26 C 0.4933(2) 0.29124(28) 0.9381(2)
C27 C 0.5126(2) 0.3509(3) 0.9166(3)
Cu4 Cu 0.560837(14) 0.439163(14) 0.84034(3)
Cu5 Cu 0.560837(14) 0.121675(20) 0.84034(3)
Cu7 Cu 0.531207(13) 0.468793(13) 0.92870(3)
Cu8 Cu 0.531207(13) 0.062415(18) 0.92870(3)
Cu1 Cu 0.227504(14) 0.772496(14) 0.17367(3)
Cu2 Cu 0.197874(13) 0.802126(13) 0.26203(3)
O1 O 0.25103(13) 0.85452(13) 0.15741(13)
O2 O 0.22509(15) 0.87840(12) 0.23063(15)
O5 O 0.24630(10) 0.75370(10) 0.09927(18)
O6 O 0.17693(10) 0.82307(10) 0.33466(19)
C1 C 0.2476(2) 0.8904(2) 0.1878(2)
C2 C 0.26564(19) 0.9504(2) 0.1636(3)
C3 C 0.2848(3) 0.9626(2) 0.1158(2)
H1 H 0.2859 0.9333 0.0951
C7 C 0.2631(2) 0.9921(2) 0.1922(2)
H4 H 0.2481 0.9834 0.2263
O11 O 0.14548(13) 0.74897(13) 0.15741(13)
O12 O 0.12160(12) 0.77491(15) 0.23063(15)
O13 O 0.27766(18) 0.82636(13) 0.27923(14)
O14 O 0.17364(13) 0.72234(18) 0.27923(14)
O15 O 0.30339(20) 0.79889(15) 0.20449(14)
O16 O 0.20111(15) 0.69661(20) 0.20449(14)
O1_2 O 0.14548(13) 0.39651(18) 0.15741(13)
O2_2 O 0.12160(12) 0.34669(19) 0.23063(15)
O5_2 O 0.24630(10) 0.49260(14) 0.09927(18)
O6_2 O 0.17693(10) 0.35386(14) 0.33466(19)
C1_2 C 0.1096(2) 0.3572(3) 0.1878(2)
C2_2 C 0.0496(2) 0.31524(28) 0.1636(3)
C3_2 C 0.0374(2) 0.3222(4) 0.1158(2)
H1_2 H 0.0667 0.3526 0.0951
C7_2 C 0.0079(2) 0.2710(3) 0.1922(2)
H4_2 H 0.0166 0.2647 0.2263
O13_2 O 0.17364(13) 0.45129(22) 0.27923(14)
O14_2 O 0.27766(18) 0.45129(22) 0.27923(14)
O15_2 O 0.20111(15) 0.50449(25) 0.20449(14)
O16_2 O 0.30339(20) 0.50449(25) 0.20449(14)
O3_2 O 0.88204(13) 0.38901(18) 0.94590(14)
O4_2 O 0.82884(13) 0.36328(20) 0.87116(14)
C12_2 C 0.8172(2) 0.2728(3) 0.9816(2)
H6_2 H 0.8547 0.2986 0.9961
C13_2 C 0.79794(19) 0.29124(28) 0.9381(2)
C14_2 C 0.8383(2) 0.3509(3) 0.9166(3)
C15_2 C 0.74470(12) 0.25530(23) 0.9134(3)
H7_2 H 0.7338 0.2663 0.8823
O9_2 O 0.61099(18) 0.11796(22) 0.94590(14)
O10_2 O 0.63672(20) 0.17116(25) 0.87116(14)
C25_2 C 0.7272(3) 0.1828(4) 0.9816(2)
H13_2 H 0.7014 0.1453 0.9961
C26_2 C 0.70876(28) 0.20206(34) 0.9381(2)
C27_2 C 0.6491(3) 0.1617(4) 0.9166(3)
Cu5_2 Cu 0.878325(20) 0.439163(24) 0.84034(3)
Cu8_2 Cu 0.937585(18) 0.468793(22) 0.92870(3)
O7_2 O 0.60349(18) 0.85452(22) 0.15741(13)
O8_2 O 0.65331(19) 0.87840(24) 0.23063(15)
C16_2 C 0.6428(3) 0.8904(4) 0.1878(2)
C17_2 C 0.68476(28) 0.95040(34) 0.1636(3)
C18_2 C 0.6778(4) 0.9626(5) 0.1158(2)
H8_2 H 0.6474 0.9333 0.0951
C22_2 C 0.7290(3) 0.9921(4) 0.1922(2)
H11_2 H 0.7353 0.9834 0.2263
Cu3_2 Cu 0.544992(20) 0.772496(24) 0.17367(3)
Cu6_2 Cu 0.604252(18) 0.802126(22) 0.26203(3)
C16_3 C 0.1096(4) 0.7524(2) 0.1878(2)
C17_3 C 0.04960(34) 0.73436(19) 0.1636(3)
C18_3 C 0.0374(5) 0.7152(3) 0.1158(2)
H8_3 H 0.0667 0.7141 0.0951
C22_3 C 0.0079(4) 0.7369(2) 0.1922(2)
H11_3 H 0.0166 0.7519 0.2263
O1_3 O 0.60349(18) 0.74897(13) 0.15741(13)
O2_3 O 0.65331(19) 0.77491(15) 0.23063(15)
O5_3 O 0.50740(14) 0.75370(10) 0.09927(18)
O6_3 O 0.64614(14) 0.82307(10) 0.33466(19)
N1_2 N 0.84631(33) 0.6926(3) 0.1226(2)
C1_3 C 0.6428(3) 0.7524(2) 0.1878(2)
C2_3 C 0.68476(28) 0.73436(19) 0.1636(3)
C3_3 C 0.6778(4) 0.7152(3) 0.1158(2)
H1_3 H 0.6474 0.7141 0.0951
C4_2 C 0.7128(4) 0.6974(3) 0.0966(2)
H2_2 H 0.7076 0.6850 0.0617
C5_2 C 0.7567(3) 0.6961(2) 0.1244(2)
C6_2 C 0.7655(3) 0.7172(2) 0.1715(2)
H3_2 H 0.7967 0.7191 0.1915
C7_3 C 0.7290(3) 0.7369(2) 0.1922(2)
H4_3 H 0.7353 0.7519 0.2263
C8_2 C 0.7917(4) 0.6734(3) 0.1026(2)
C9_2 C 0.76626(28) 0.6272(2) 0.0647(2)
H5_2 H 0.7266 0.6121 0.0540
C10_2 C 0.80174(34) 0.6035(3) 0.0428(3)
C11_2 C 0.78214(34) 0.5643(3) 0.0033(3)
C19_2 C 0.9846(5) 0.6974(3) 0.0966(2)
H9_2 H 0.9774 0.6850 0.0617
C20_2 C 0.9394(4) 0.6961(2) 0.1244(2)
C21_2 C 0.9517(4) 0.7172(2) 0.1715(2)
H10_2 H 0.9224 0.7191 0.1915
C23_2 C 0.8817(5) 0.6734(3) 0.1026(2)
C24_2 C 0.86094(34) 0.6272(2) 0.0647(2)
H12_2 H 0.8855 0.6121 0.0540
O13_3 O 0.54871(22) 0.72234(18) 0.27923(14)
O14_3 O 0.54871(22) 0.82636(13) 0.27923(14)
O15_3 O 0.49551(25) 0.69661(20) 0.20449(14)
O16_3 O 0.49551(25) 0.79889(15) 0.20449(14)
O3_3 O 0.61099(18) 0.49303(13) 0.94590(14)
O4_3 O 0.63672(20) 0.46556(15) 0.87116(14)
C12_3 C 0.7272(3) 0.5444(2) 0.9816(2)
H6_3 H 0.7014 0.5561 0.9961
C13_3 C 0.70876(28) 0.5067(2) 0.9381(2)
C14_3 C 0.6491(3) 0.4874(2) 0.9166(3)
C15_3 C 0.74470(23) 0.4894(2) 0.9134(3)
H7_3 H 0.7337 0.4675 0.8823
O9_3 O 0.88204(22) 0.49303(13) 0.94590(14)
O10_3 O 0.82884(25) 0.46556(15) 0.87116(14)
C25_3 C 0.8172(4) 0.5444(2) 0.9816(2)
H13_3 H 0.8547 0.5561 0.9961
C26_3 C 0.79794(34) 0.5067(2) 0.9381(2)
C27_3 C 0.8383(4) 0.4874(2) 0.9166(3)
C9_3 C 0.0395(2) 0.47239(19) 0.3980(2)
H5_3 H 0.0546 0.4478 0.3873
C10_3 C 0.0632(3) 0.53157(15) 0.3761(3)
C11_3 C 0.1024(3) 0.55117(15) 0.3366(3)
C12_4 C 0.1223(2) 0.5161(2) 0.3149(2)
H6_4 H 0.1106 0.4786 0.3294
C13_4 C 0.1600(2) 0.53539(19) 0.2714(2)
C14_4 C 0.1793(2) 0.4950(2) 0.2499(3)
C15_4 C 0.1773(2) 0.58863(12) 0.2467(3)
H7_4 H 0.1992 0.5995 0.2156
C24_3 C 0.0395(2) 0.56707(28) 0.3980(2)
H12_3 H 0.0546 0.6067 0.3873
C25_4 C 0.1223(2) 0.6061(3) 0.3149(2)
H13_4 H 0.1106 0.6319 0.3294
C26_4 C 0.1600(2) 0.62457(28) 0.2714(2)
C27_4 C 0.1793(2) 0.6842(3) 0.2499(3)
Cu1_2 Cu 0.894171(14) 0.105829(14) 0.50700(3)
Cu2_2 Cu 0.864541(13) 0.135459(13) 0.59536(3)
O1_4 O 0.91770(13) 0.18785(13) 0.49074(13)
O2_4 O 0.89176(15) 0.21173(12) 0.56396(15)
O5_4 O 0.91297(10) 0.08703(10) 0.43260(18)
O6_4 O 0.84360(10) 0.15640(10) 0.66799(19)
N1_3 N 0.9741(3) 0.48704(14) 0.4559(2)
C1_4 C 0.9143(2) 0.2237(2) 0.5211(2)
C2_4 C 0.93231(19) 0.2837(2) 0.4969(3)
C3_4 C 0.9515(3) 0.2959(2) 0.4491(2)
H1_4 H 0.9526 0.2666 0.4284
C4_3 C 0.9693(3) 0.3487(2) 0.4299(2)
H2_3 H 0.9817 0.3559 0.3950
C5_3 C 0.9706(2) 0.3939(2) 0.4577(2)
C6_3 C 0.9495(2) 0.3816(2) 0.5048(2)
H3_3 H 0.9476 0.4109 0.5248
C7_4 C 0.9298(2) 0.3254(2) 0.5255(2)
H4_4 H 0.9148 0.3167 0.5596
C8_3 C 0.9933(3) 0.4516(2) 0.4359(2)
O7_3 O 0.91770(13) 0.72984(18) 0.49074(13)
O8_3 O 0.89176(15) 0.68002(19) 0.56396(15)
C16_4 C 0.9143(2) 0.6905(3) 0.5211(2)
C17_4 C 0.93231(19) 0.64857(28) 0.4969(3)
C18_4 C 0.9515(3) 0.6555(4) 0.4491(2)
H8_4 H 0.9526 0.6859 0.4284
C19_3 C 0.9693(3) 0.6205(4) 0.4299(2)
H9_3 H 0.9817 0.6257 0.3950
C20_3 C 0.9706(2) 0.5766(3) 0.4577(2)
C21_3 C 0.9495(2) 0.5678(3) 0.5048(2)
H10_3 H 0.9476 0.5366 0.5248
C22_4 C 0.9298(2) 0.6043(3) 0.5255(2)
H11_4 H 0.9148 0.5980 0.5596
C23_3 C 0.9933(3) 0.5416(4) 0.4359(2)
Cu3_3 Cu 0.894171(14) 0.788341(20) 0.50700(3)
Cu6_3 Cu 0.864541(13) 0.729081(18) 0.59536(3)
O11_2 O 0.81215(13) 0.08230(13) 0.49074(13)
O12_2 O 0.78827(12) 0.10824(15) 0.56396(15)
O13_4 O 0.94432(18) 0.15970(13) 0.61257(14)
O14_4 O 0.84030(13) 0.05568(18) 0.61257(14)
O15_4 O 0.97005(20) 0.13223(15) 0.53783(14)
O16_4 O 0.86777(15) 0.02995(20) 0.53783(14)
O1_5 O 0.81215(13) 0.72984(18) 0.49074(13)
O2_5 O 0.78827(12) 0.68002(19) 0.56396(15)
O5_5 O 0.91297(10) 0.82593(14) 0.43260(18)
O6_5 O 0.84360(10) 0.68719(14) 0.66799(19)
N1_4 N 0.51296(14) 0.48702(33) 0.4559(2)
C1_5 C 0.7763(2) 0.6905(3) 0.5211(2)
C2_5 C 0.7163(2) 0.64857(28) 0.4969(3)
C3_5 C 0.7041(2) 0.6555(4) 0.4491(2)
H1_5 H 0.7334 0.6859 0.4284
C4_4 C 0.6513(2) 0.6205(4) 0.4299(2)
H2_4 H 0.6441 0.6257 0.3950
C5_4 C 0.6061(2) 0.5766(3) 0.4577(2)
C6_4 C 0.6184(2) 0.5678(3) 0.5048(2)
H3_4 H 0.5891 0.5366 0.5248
C7_5 C 0.6746(2) 0.6043(3) 0.5255(2)
H4_5 H 0.6833 0.5980 0.5596
C8_4 C 0.5484(2) 0.5416(4) 0.4359(2)
C9_4 C 0.52761(19) 0.56707(28) 0.3980(2)
H5_4 H 0.5522 0.6067 0.3873
C10_4 C 0.46843(15) 0.53159(34) 0.3761(3)
C11_4 C 0.44883(15) 0.55119(34) 0.3366(3)
C12_5 C 0.4839(2) 0.6061(3) 0.3149(2)
H6_5 H 0.5214 0.6319 0.3294
C13_5 C 0.46461(19) 0.62457(28) 0.2714(2)
C14_5 C 0.5050(2) 0.6842(3) 0.2499(3)
C15_5 C 0.41137(12) 0.58863(23) 0.2467(3)
H7_5 H 0.4005 0.5996 0.2156
O7_4 O 0.27016(18) 0.18785(22) 0.49074(13)
O8_4 O 0.31998(19) 0.21173(24) 0.56396(15)
C16_5 C 0.3095(3) 0.2237(4) 0.5211(2)
C17_5 C 0.35143(28) 0.28373(34) 0.4969(3)
C18_5 C 0.3445(4) 0.2959(5) 0.4491(2)
H8_5 H 0.3141 0.2666 0.4284
C19_4 C 0.3795(4) 0.3487(5) 0.4299(2)
H9_4 H 0.3743 0.3559 0.3950
C20_4 C 0.4234(3) 0.3939(4) 0.4577(2)
C21_4 C 0.4322(3) 0.3816(4) 0.5048(2)
H10_4 H 0.4634 0.4109 0.5248
C22_5 C 0.3957(3) 0.3254(4) 0.5255(2)
H11_5 H 0.4020 0.3167 0.5596
C23_4 C 0.4584(4) 0.4516(5) 0.4359(2)
C24_4 C 0.43293(28) 0.47239(34) 0.3980(2)
H12_4 H 0.3933 0.4478 0.3873
C25_5 C 0.3939(3) 0.5161(4) 0.3149(2)
H13_5 H 0.3681 0.4786 0.3294
C26_5 C 0.37543(28) 0.53539(34) 0.2714(2)
C27_5 C 0.3158(3) 0.4950(4) 0.2499(3)
Cu3_4 Cu 0.211659(20) 0.105829(24) 0.50700(3)
Cu6_4 Cu 0.270919(18) 0.135459(22) 0.59536(3)
O13_5 O 0.84030(13) 0.78463(22) 0.61257(14)
O14_5 O 0.94432(18) 0.78463(22) 0.61257(14)
O15_5 O 0.86777(15) 0.83783(25) 0.53783(14)
O16_5 O 0.97005(20) 0.83783(25) 0.53783(14)
O1_6 O 0.27016(18) 0.08230(13) 0.49074(13)
O2_6 O 0.31998(19) 0.10824(15) 0.56396(15)
O5_6 O 0.17407(14) 0.08703(10) 0.43260(18)
O6_6 O 0.31281(14) 0.15640(10) 0.66799(19)
N1_5 N 0.51298(33) 0.0259(3) 0.4559(2)
C1_6 C 0.3095(3) 0.0857(2) 0.5211(2)
C2_6 C 0.35143(28) 0.06769(19) 0.4969(3)
C3_6 C 0.3445(4) 0.0485(3) 0.4491(2)
H1_6 H 0.3141 0.0474 0.4284
C4_5 C 0.3795(4) 0.0307(3) 0.4299(2)
H2_5 H 0.3743 0.0183 0.3950
C5_5 C 0.4234(3) 0.0294(2) 0.4577(2)
C6_5 C 0.4322(3) 0.0505(2) 0.5048(2)
H3_5 H 0.4634 0.0524 0.5248
C7_6 C 0.3957(3) 0.0702(2) 0.5255(2)
H4_6 H 0.4020 0.0852 0.5596
C8_5 C 0.4584(4) 0.0067(3) 0.4359(2)
C16_6 C 0.7763(4) 0.0857(2) 0.5211(2)
C17_6 C 0.71627(34) 0.06769(19) 0.4969(3)
C18_6 C 0.7041(5) 0.0485(3) 0.4491(2)
H8_6 H 0.7334 0.0474 0.4284
C19_5 C 0.6513(5) 0.0307(3) 0.4299(2)
H9_5 H 0.6441 0.0183 0.3950
C20_5 C 0.6061(4) 0.0294(2) 0.4577(2)
C21_5 C 0.6184(4) 0.0505(2) 0.5048(2)
H10_5 H 0.5891 0.0524 0.5248
C22_6 C 0.6746(4) 0.0702(2) 0.5255(2)
H11_6 H 0.6833 0.0852 0.5596
C23_5 C 0.5484(5) 0.0067(3) 0.4359(2)
O13_6 O 0.21537(22) 0.05568(18) 0.61257(14)
O14_6 O 0.21537(22) 0.15970(13) 0.61257(14)
O15_6 O 0.16217(25) 0.02995(20) 0.53783(14)
O16_6 O 0.16217(25) 0.13223(15) 0.53783(14)
C9_5 C 0.43293(28) 0.9605(2) 0.3980(2)
H5_5 H 0.3933 0.9454 0.3873
C10_5 C 0.46841(34) 0.9368(3) 0.3761(3)
C11_5 C 0.44881(34) 0.8976(3) 0.3366(3)
C12_6 C 0.3939(3) 0.8777(2) 0.3149(2)
H6_6 H 0.3681 0.8894 0.3294
C13_6 C 0.37543(28) 0.8400(2) 0.2714(2)
C14_6 C 0.3158(3) 0.8207(2) 0.2499(3)
C15_6 C 0.41137(23) 0.8227(2) 0.2467(3)
H7_6 H 0.4004 0.8008 0.2156
C24_5 C 0.52761(34) 0.9605(2) 0.3980(2)
H12_5 H 0.5522 0.9454 0.3873
C25_6 C 0.4839(4) 0.8777(2) 0.3149(2)
H13_6 H 0.5214 0.8894 0.3294
C26_6 C 0.46461(34) 0.8400(2) 0.2714(2)
C27_6 C 0.5050(4) 0.8207(2) 0.2499(3)
O7_5 O 0.58436(13) 0.06318(18) 0.82408(13)
O8_5 O 0.55842(15) 0.01336(19) 0.89730(15)
C16_7 C 0.5809(2) 0.0239(3) 0.8545(2)
H8_7 H 0.6192 0.0193 0.7618
C27_7 C 0.8459(2) 0.0176(3) 0.5833(3)
O1_7 O 0.58436(13) 0.52119(13) 0.82408(13)
O2_7 O 0.55842(15) 0.54507(12) 0.89730(15)
O5_7 O 0.57963(10) 0.42037(10) 0.76594(18)
N1_6 N 0.6407(3) 0.82038(14) 0.7893(2)
C1_7 C 0.5809(2) 0.5571(2) 0.8545(2)
C2_7 C 0.59897(19) 0.6171(2) 0.8303(3)
C3_7 C 0.6181(3) 0.6293(2) 0.7825(2)
H1_7 H 0.6192 0.6000 0.7618
C4_6 C 0.6359(3) 0.6821(2) 0.7633(2)
H2_6 H 0.6483 0.6893 0.7284
C5_6 C 0.6372(2) 0.7273(2) 0.7911(2)
C6_6 C 0.6161(2) 0.7150(2) 0.8382(2)
H3_6 H 0.6142 0.7443 0.8582
C7_7 C 0.5964(2) 0.6588(2) 0.8589(2)
H4_7 H 0.5814 0.6501 0.8930
C8_6 C 0.6599(3) 0.7850(2) 0.7693(2)
C9_6 C 0.7061(2) 0.80573(19) 0.7314(2)
H5_6 H 0.7212 0.7812 0.7207
C10_6 C 0.7298(3) 0.86491(15) 0.7095(3)
C11_6 C 0.7690(3) 0.88451(15) 0.6700(3)
C12_7 C 0.7889(2) 0.8495(2) 0.6483(2)
H6_7 H 0.7772 0.8120 0.6628
C13_7 C 0.8266(2) 0.86873(19) 0.6048(2)
C14_7 C 0.8459(2) 0.8284(2) 0.5833(3)
C15_7 C 0.8439(2) 0.92197(12) 0.5801(3)
H7_7 H 0.8658 0.9329 0.5490
C17_7 C 0.59897(19) 0.98191(28) 0.8303(3)
C18_7 C 0.6181(3) 0.9889(4) 0.7825(2)
C19_6 C 0.6359(3) 0.9539(4) 0.7633(2)
H9_6 H 0.6483 0.9591 0.7284
C20_6 C 0.6372(2) 0.9100(3) 0.7911(2)
C21_6 C 0.6161(2) 0.9012(3) 0.8382(2)
H10_6 H 0.6142 0.8700 0.8582
C22_7 C 0.5964(2) 0.9377(3) 0.8589(2)
H11_7 H 0.5814 0.9314 0.8930
C23_6 C 0.6599(3) 0.8750(4) 0.7693(2)
C24_6 C 0.7061(2) 0.90041(28) 0.7314(2)
H12_6 H 0.7212 0.9401 0.7207
C25_7 C 0.7889(2) 0.9395(3) 0.6483(2)
H13_7 H 0.7772 0.9653 0.6628
C26_7 C 0.8266(2) 0.95791(28) 0.6048(2)
O11_3 O 0.47881(13) 0.41564(13) 0.82408(13)
O12_3 O 0.45493(12) 0.44158(15) 0.89730(15)
H14 H 0.479899 0.501477 0.997073
O1_8 O 0.47881(13) 0.06318(18) 0.82408(13)
O2_8 O 0.45493(12) 0.01336(19) 0.89730(15)
O5_8 O 0.57963(10) 0.15927(14) 0.76594(18)
C1_8 C 0.4429(2) 0.0239(3) 0.8545(2)
H1_8 H 0.4000 0.0193 0.7618
C14_8 C 0.1716(2) 0.0176(3) 0.5833(3)
O7_6 O 0.93682(18) 0.52119(22) 0.82408(13)
O8_6 O 0.98664(19) 0.54507(24) 0.89730(15)
C16_8 C 0.9761(3) 0.5571(4) 0.8545(2)
H8_8 H 0.9807 0.6000 0.7618
C27_8 C 0.9824(3) 0.8284(4) 0.5833(3)
N1_7 N 0.17964(33) 0.3593(3) 0.7893(2)
C2_8 C 0.01809(28) 0.40103(19) 0.8303(3)
C3_8 C 0.0111(4) 0.3819(3) 0.7825(2)
C4_7 C 0.0461(4) 0.3641(3) 0.7633(2)
H2_7 H 0.0409 0.3517 0.7284
C5_7 C 0.0900(3) 0.3628(2) 0.7911(2)
C6_7 C 0.0988(3) 0.3839(2) 0.8382(2)
H3_7 H 0.1300 0.3858 0.8582
C7_8 C 0.0623(3) 0.4036(2) 0.8589(2)
H4_8 H 0.0686 0.4186 0.8930
C8_7 C 0.1250(4) 0.3401(3) 0.7693(2)
C9_7 C 0.09959(28) 0.2939(2) 0.7314(2)
H5_7 H 0.0599 0.2788 0.7207
C10_7 C 0.13507(34) 0.2702(3) 0.7095(3)
C11_7 C 0.11547(34) 0.2310(3) 0.6700(3)
C12_8 C 0.0605(3) 0.2111(2) 0.6483(2)
H6_8 H 0.0347 0.2228 0.6628
C13_8 C 0.04209(28) 0.1734(2) 0.6048(2)
C15_8 C 0.07803(23) 0.1561(2) 0.5801(3)
H7_8 H 0.0670 0.1342 0.5490
C16_9 C 0.4429(4) 0.4191(2) 0.8545(2)
C17_8 C 0.38293(34) 0.40103(19) 0.8303(3)
C18_8 C 0.3707(5) 0.3819(3) 0.7825(2)
H8_9 H 0.4000 0.3808 0.7618
C19_7 C 0.3179(5) 0.3641(3) 0.7633(2)
H9_7 H 0.3107 0.3517 0.7284
C20_7 C 0.2727(4) 0.3628(2) 0.7911(2)
C21_7 C 0.2850(4) 0.3839(2) 0.8382(2)
H10_7 H 0.2557 0.3858 0.8582
C22_8 C 0.3412(4) 0.4036(2) 0.8589(2)
H11_8 H 0.3499 0.4186 0.8930
C23_7 C 0.2150(5) 0.3401(3) 0.7693(2)
C24_7 C 0.19427(34) 0.2939(2) 0.7314(2)
H12_7 H 0.2188 0.2788 0.7207
C25_8 C 0.1505(4) 0.2111(2) 0.6483(2)
H13_8 H 0.1880 0.2228 0.6628
C26_8 C 0.13127(34) 0.1734(2) 0.6048(2)
C27_9 C 0.1716(4) 0.1541(2) 0.5833(3)
H14_2 H 0.0215786 0.520101 0.997073
O1_9 O 0.93682(18) 0.41564(13) 0.82408(13)
O2_9 O 0.98664(19) 0.44158(15) 0.89730(15)
O5_9 O 0.84073(14) 0.42037(10) 0.76594(18)
C1_9 C 0.9761(3) 0.4191(2) 0.8545(2)
H1_9 H 0.9807 0.3808 0.7618
C14_9 C 0.9824(3) 0.1541(2) 0.5833(3)
H14_3 H 0.479899 0.978421 0.997073
H14_4 H 0.498523 0.520101 0.997073
N1_8 N 0.84629(14) 0.15369(33) 0.1226(2)
C4_8 C 0.9846(2) 0.2872(4) 0.0966(2)
H2_8 H 0.9774 0.2924 0.0617
C5_8 C 0.9394(2) 0.2433(3) 0.1244(2)
C6_8 C 0.9517(2) 0.2345(3) 0.1715(2)
H3_8 H 0.9224 0.2033 0.1915
C8_8 C 0.8817(2) 0.2083(4) 0.1026(2)
C9_8 C 0.86094(19) 0.23374(28) 0.0647(2)
H5_8 H 0.8855 0.2734 0.0540
C10_8 C 0.80176(15) 0.19826(34) 0.0428(3)
C11_8 C 0.78216(15) 0.21786(34) 0.0033(3)
C19_8 C 0.7128(4) 0.0154(5) 0.0966(2)
H9_8 H 0.7076 0.0226 0.0617
C20_8 C 0.7567(3) 0.0606(4) 0.1244(2)
C21_8 C 0.7655(3) 0.0483(4) 0.1715(2)
H10_8 H 0.7967 0.0776 0.1915
C23_8 C 0.7917(4) 0.1183(5) 0.1026(2)
C24_8 C 0.76626(28) 0.13906(34) 0.0647(2)
H12_8 H 0.7266 0.1145 0.0540
O6_7 O 0.51026(10) 0.48974(10) 0.00133(19)
H15 H 0.494839 0.454772 0.0241514
H15_2 H 0.545228 0.505161 0.0241514
O6_8 O 0.51026(10) 0.02053(14) 0.00133(19)
H15_3 H 0.545228 0.0400671 0.0241514
H15_4 H 0.494839 0.0400671 0.0241514
N1_9 N 0.17962(14) 0.82036(33) 0.7893(2)
C2_9 C 0.3829(2) 0.98191(28) 0.8303(3)
C3_9 C 0.3707(2) 0.9889(4) 0.7825(2)
C4_9 C 0.3179(2) 0.9539(4) 0.7633(2)
H2_9 H 0.3107 0.9591 0.7284
C5_9 C 0.2727(2) 0.9100(3) 0.7911(2)
C6_9 C 0.2850(2) 0.9012(3) 0.8382(2)
H3_9 H 0.2557 0.8700 0.8582
C7_9 C 0.3412(2) 0.9377(3) 0.8589(2)
H4_9 H 0.3499 0.9314 0.8930
C8_9 C 0.2150(2) 0.8750(4) 0.7693(2)
C9_9 C 0.19427(19) 0.90041(28) 0.7314(2)
H5_9 H 0.2188 0.9401 0.7207
C10_9 C 0.13509(15) 0.86493(34) 0.7095(3)
C11_9 C 0.11549(15) 0.88453(34) 0.6700(3)
C12_9 C 0.1505(2) 0.9395(3) 0.6483(2)
H6_9 H 0.1880 0.9653 0.6628
C13_9 C 0.13127(19) 0.95791(28) 0.6048(2)
C15_9 C 0.07803(12) 0.92197(23) 0.5801(3)
H7_9 H 0.0671 0.9330 0.5490
C17_9 C 0.01809(28) 0.61707(34) 0.8303(3)
C18_9 C 0.0111(4) 0.6293(5) 0.7825(2)
C19_9 C 0.0461(4) 0.6821(5) 0.7633(2)
H9_9 H 0.0409 0.6893 0.7284
C20_9 C 0.0900(3) 0.7273(4) 0.7911(2)
C21_9 C 0.0988(3) 0.7150(4) 0.8382(2)
H10_9 H 0.1300 0.7443 0.8582
C22_9 C 0.0623(3) 0.6588(4) 0.8589(2)
H11_9 H 0.0686 0.6501 0.8930
C23_9 C 0.1250(4) 0.7850(5) 0.7693(2)
C24_9 C 0.09959(28) 0.80573(34) 0.7314(2)
H12_9 H 0.0599 0.7812 0.7207
C25_9 C 0.0605(3) 0.8495(4) 0.6483(2)
H13_9 H 0.0347 0.8120 0.6628
C26_9 C 0.04209(28) 0.86873(34) 0.6048(2)
H14_5 H 0.498523 0.978421 0.997073
H14_6 H 0.0215786 0.501477 0.997073
O6_9 O 0.97947(14) 0.48974(10) 0.00133(19)
H15_5 H 0.959933 0.505161 0.0241514
H15_6 H 0.959933 0.454772 0.0241514
loop_
_geom_bond_atom_site_label_1
_geom_bond_atom_site_label_2
_geom_bond_site_symmetry_1
_geom_bond_site_symmetry_2
N1 C8 1_555 1_555
H2 C4 1_555 1_555
C5 C4 1_555 1_555
C6 C5 1_555 1_555
H3 C6 1_555 1_555
C8 C5 1_555 1_555
C9 C8 1_555 1_555
H5 C9 1_555 1_555
C10 C9 1_555 1_555
C11 C10 1_555 1_555
O7 C16 1_555 1_555
O8 C16 1_555 1_555
C16 C17 1_555 1_555
C17 C18 1_555 1_555
C18 H8 1_555 1_555
C19 C18 1_555 1_555
H9 C19 1_555 1_555
C20 C19 1_555 1_555
C21 C20 1_555 1_555
H10 C21 1_555 1_555
C22 C17 1_555 1_555
H11 C22 1_555 1_555
C23 N1 1_555 1_555
C24 C10 1_555 1_555
H12 C24 1_555 1_555
Cu3 O7 1_555 1_555
Cu6 O8 1_555 1_555
C20 C23 1_555 1_555
C21 C22 1_555 1_555
C23 C24 1_555 1_555
O3 C14 1_555 1_555
O4 C14 1_555 1_555
H6 C12 1_555 1_555
C13 C12 1_555 1_555
C14 C13 1_555 1_555
C15 C13 1_555 1_555
H7 C15 1_555 1_555
O9 C27 1_555 1_555
O10 C27 1_555 1_555
H13 C25 1_555 1_555
C26 C15 1_555 1_555
C27 C26 1_555 1_555
Cu4 O10 1_555 1_555
Cu5 O4 1_555 1_555
Cu7 O9 1_555 1_555
Cu8 O3 1_555 1_555
C25 C26 1_555 1_555
Cu1 O1 1_555 1_555
Cu2 O2 1_555 1_555
O1 C1 1_555 1_555
O2 C1 1_555 1_555
O5 Cu1 1_555 1_555
O6 Cu2 1_555 1_555
C1 C2 1_555 1_555
C2 C3 1_555 1_555
C3 H1 1_555 1_555
C7 C2 1_555 1_555
H4 C7 1_555 1_555
O11 Cu1 1_555 1_555
O12 Cu2 1_555 1_555
O13 Cu2 1_555 1_555
O14 Cu2 1_555 1_555
O15 Cu1 1_555 1_555
O16 Cu1 1_555 1_555
Cu3 O1_2 1_555 1_555
Cu6 O2_2 1_555 1_555
O1_2 C1_2 1_555 1_555
O2_2 C1_2 1_555 1_555
O5_2 Cu3 1_555 1_555
O6_2 Cu6 1_555 1_555
C1_2 C2_2 1_555 1_555
C2_2 C3_2 1_555 1_555
C3_2 H1_2 1_555 1_555
C7_2 C2_2 1_555 1_555
H4_2 C7_2 1_555 1_555
O13_2 Cu6 1_555 1_555
O14_2 Cu6 1_555 1_555
O15_2 Cu3 1_555 1_555
O16_2 Cu3 1_555 1_555
O3_2 C14_2 1_555 1_555
O4_2 C14_2 1_555 1_555
H6_2 C12_2 1_555 1_555
C13_2 C12_2 1_555 1_555
C14_2 C13_2 1_555 1_555
C15_2 C13_2 1_555 1_555
H7_2 C15_2 1_555 1_555
O9_2 C27_2 1_555 1_555
O10_2 C27_2 1_555 1_555
H13_2 C25_2 1_555 1_555
C26_2 C15_2 1_555 1_555
C27_2 C26_2 1_555 1_555
Cu5 O10_2 1_555 1_555
Cu5_2 O4_2 1_555 1_555
Cu8 O9_2 1_555 1_555
Cu8_2 O3_2 1_555 1_555
C25_2 C26_2 1_555 1_555
O7_2 C16_2 1_555 1_555
O8_2 C16_2 1_555 1_555
C16_2 C17_2 1_555 1_555
C17_2 C18_2 1_555 1_555
C18_2 H8_2 1_555 1_555
C22_2 C17_2 1_555 1_555
H11_2 C22_2 1_555 1_555
Cu3_2 O7_2 1_555 1_555
Cu6_2 O8_2 1_555 1_555
O11 C16_3 1_555 1_555
O12 C16_3 1_555 1_555
C16_3 C17_3 1_555 1_555
C17_3 C18_3 1_555 1_555
C18_3 H8_3 1_555 1_555
C22_3 C17_3 1_555 1_555
H11_3 C22_3 1_555 1_555
Cu3_2 O1_3 1_555 1_555
Cu6_2 O2_3 1_555 1_555
O1_3 C1_3 1_555 1_555
O2_3 C1_3 1_555 1_555
O5_3 Cu3_2 1_555 1_555
O6_3 Cu6_2 1_555 1_555
N1_2 C8_2 1_555 1_555
C1_3 C2_3 1_555 1_555
C2_3 C3_3 1_555 1_555
C3_3 H1_3 1_555 1_555
C4_2 C3_3 1_555 1_555
H2_2 C4_2 1_555 1_555
C5_2 C4_2 1_555 1_555
C6_2 C5_2 1_555 1_555
H3_2 C6_2 1_555 1_555
C7_3 C2_3 1_555 1_555
H4_3 C7_3 1_555 1_555
C8_2 C5_2 1_555 1_555
C9_2 C8_2 1_555 1_555
H5_2 C9_2 1_555 1_555
C10_2 C9_2 1_555 1_555
C11_2 C10_2 1_555 1_555
H9_2 C19_2 1_555 1_555
C20_2 C19_2 1_555 1_555
C21_2 C20_2 1_555 1_555
H10_2 C21_2 1_555 1_555
C23_2 N1_2 1_555 1_555
C24_2 C10_2 1_555 1_555
H12_2 C24_2 1_555 1_555
O13_3 Cu6_2 1_555 1_555
O14_3 Cu6_2 1_555 1_555
O15_3 Cu3_2 1_555 1_555
O16_3 Cu3_2 1_555 1_555
C6_2 C7_3 1_555 1_555
C20_2 C23_2 1_555 1_555
C23_2 C24_2 1_555 1_555
O3_3 C14_3 1_555 1_555
O4_3 C14_3 1_555 1_555
H6_3 C12_3 1_555 1_555
C13_3 C12_3 1_555 1_555
C14_3 C13_3 1_555 1_555
C15_3 C13_3 1_555 1_555
H7_3 C15_3 1_555 1_555
O9_3 C27_3 1_555 1_555
O10_3 C27_3 1_555 1_555
H13_3 C25_3 1_555 1_555
C26_3 C15_3 1_555 1_555
C27_3 C26_3 1_555 1_555
Cu5_2 O10_3 1_555 1_555
Cu4 O4_3 1_555 1_555
Cu8_2 O9_3 1_555 1_555
Cu7 O3_3 1_555 1_555
C25_3 C26_3 1_555 1_555
O13_2 C14_4 1_555 1_555
O15_2 C14_4 1_555 1_555
H5_3 C9_3 1_555 1_555
C10_3 C9_3 1_555 1_555
C11_3 C10_3 1_555 1_555
C12_4 C11_3 1_555 1_555
H6_4 C12_4 1_555 1_555
C13_4 C12_4 1_555 1_555
C14_4 C13_4 1_555 1_555
C15_4 C13_4 1_555 1_555
H7_4 C15_4 1_555 1_555
O14 C27_4 1_555 1_555
O16 C27_4 1_555 1_555
C24_3 C10_3 1_555 1_555
H12_3 C24_3 1_555 1_555
C25_4 C11_3 1_555 1_555
H13_4 C25_4 1_555 1_555
C26_4 C15_4 1_555 1_555
C27_4 C26_4 1_555 1_555
C25_4 C26_4 1_555 1_555
Cu1_2 O1_4 1_555 1_555
Cu2_2 O2_4 1_555 1_555
O1_4 C1_4 1_555 1_555
O2_4 C1_4 1_555 1_555
O5_4 Cu1_2 1_555 1_555
O6_4 Cu2_2 1_555 1_555
N1_3 C8_3 1_555 1_555
C1_4 C2_4 1_555 1_555
C2_4 C3_4 1_555 1_555
C3_4 H1_4 1_555 1_555
C4_3 C3_4 1_555 1_555
H2_3 C4_3 1_555 1_555
C5_3 C4_3 1_555 1_555
C6_3 C5_3 1_555 1_555
H3_3 C6_3 1_555 1_555
C7_4 C2_4 1_555 1_555
H4_4 C7_4 1_555 1_555
C8_3 C5_3 1_555 1_555
O7_3 C16_4 1_555 1_555
O8_3 C16_4 1_555 1_555
C16_4 C17_4 1_555 1_555
C17_4 C18_4 1_555 1_555
C18_4 H8_4 1_555 1_555
C19_3 C18_4 1_555 1_555
H9_3 C19_3 1_555 1_555
C20_3 C19_3 1_555 1_555
C21_3 C20_3 1_555 1_555
H10_3 C21_3 1_555 1_555
C22_4 C17_4 1_555 1_555
H11_4 C22_4 1_555 1_555
C23_3 N1_3 1_555 1_555
Cu3_3 O7_3 1_555 1_555
Cu6_3 O8_3 1_555 1_555
O11_2 Cu1_2 1_555 1_555
O12_2 Cu2_2 1_555 1_555
O13_4 Cu2_2 1_555 1_555
O14_4 Cu2_2 1_555 1_555
O15_4 Cu1_2 1_555 1_555
O16_4 Cu1_2 1_555 1_555
C6_3 C7_4 1_555 1_555
C20_3 C23_3 1_555 1_555
C21_3 C22_4 1_555 1_555
Cu3_3 O1_5 1_555 1_555
Cu6_3 O2_5 1_555 1_555
O1_5 C1_5 1_555 1_555
O2_5 C1_5 1_555 1_555
O13_3 C14_5 1_555 1_555
O15_3 C14_5 1_555 1_555
O5_5 Cu3_3 1_555 1_555
O6_5 Cu6_3 1_555 1_555
N1_4 C8_4 1_555 1_555
C1_5 C2_5 1_555 1_555
C2_5 C3_5 1_555 1_555
C3_5 H1_5 1_555 1_555
C4_4 C3_5 1_555 1_555
H2_4 C4_4 1_555 1_555
C5_4 C4_4 1_555 1_555
C6_4 C5_4 1_555 1_555
H3_4 C6_4 1_555 1_555
C7_5 C2_5 1_555 1_555
H4_5 C7_5 1_555 1_555
C8_4 C5_4 1_555 1_555
C9_4 C8_4 1_555 1_555
H5_4 C9_4 1_555 1_555
C10_4 C9_4 1_555 1_555
C11_4 C10_4 1_555 1_555
C12_5 C11_4 1_555 1_555
H6_5 C12_5 1_555 1_555
C13_5 C12_5 1_555 1_555
C14_5 C13_5 1_555 1_555
C15_5 C13_5 1_555 1_555
H7_5 C15_5 1_555 1_555
O7_4 C16_5 1_555 1_555
O8_4 C16_5 1_555 1_555
O14_2 C27_5 1_555 1_555
O16_2 C27_5 1_555 1_555
C16_5 C17_5 1_555 1_555
C17_5 C18_5 1_555 1_555
C18_5 H8_5 1_555 1_555
C19_4 C18_5 1_555 1_555
H9_4 C19_4 1_555 1_555
C20_4 C19_4 1_555 1_555
C21_4 C20_4 1_555 1_555
H10_4 C21_4 1_555 1_555
C22_5 C17_5 1_555 1_555
H11_5 C22_5 1_555 1_555
C23_4 N1_4 1_555 1_555
C24_4 C10_4 1_555 1_555
H12_4 C24_4 1_555 1_555
C25_5 C11_4 1_555 1_555
H13_5 C25_5 1_555 1_555
C26_5 C15_5 1_555 1_555
C27_5 C26_5 1_555 1_555
Cu3_4 O7_4 1_555 1_555
Cu6_4 O8_4 1_555 1_555
O13_5 Cu6_3 1_555 1_555
O14_5 Cu6_3 1_555 1_555
O15_5 Cu3_3 1_555 1_555
O16_5 Cu3_3 1_555 1_555
C6_4 C7_5 1_555 1_555
C20_4 C23_4 1_555 1_555
C21_4 C22_5 1_555 1_555
C23_4 C24_4 1_555 1_555
C25_5 C26_5 1_555 1_555
Cu3_4 O1_6 1_555 1_555
Cu6_4 O2_6 1_555 1_555
O1_6 C1_6 1_555 1_555
O2_6 C1_6 1_555 1_555
O5_6 Cu3_4 1_555 1_555
O6_6 Cu6_4 1_555 1_555
N1_5 C8_5 1_555 1_555
C1_6 C2_6 1_555 1_555
C2_6 C3_6 1_555 1_555
C3_6 H1_6 1_555 1_555
C4_5 C3_6 1_555 1_555
H2_5 C4_5 1_555 1_555
C5_5 C4_5 1_555 1_555
C6_5 C5_5 1_555 1_555
H3_5 C6_5 1_555 1_555
C7_6 C2_6 1_555 1_555
H4_6 C7_6 1_555 1_555
C8_5 C5_5 1_555 1_555
O11_2 C16_6 1_555 1_555
O12_2 C16_6 1_555 1_555
C16_6 C17_6 1_555 1_555
C17_6 C18_6 1_555 1_555
C18_6 H8_6 1_555 1_555
C19_5 C18_6 1_555 1_555
H9_5 C19_5 1_555 1_555
C20_5 C19_5 1_555 1_555
C21_5 C20_5 1_555 1_555
H10_5 C21_5 1_555 1_555
C22_6 C17_6 1_555 1_555
H11_6 C22_6 1_555 1_555
C23_5 N1_5 1_555 1_555
O13_6 Cu6_4 1_555 1_555
O14_6 Cu6_4 1_555 1_555
O15_6 Cu3_4 1_555 1_555
O16_6 Cu3_4 1_555 1_555
C6_5 C7_6 1_555 1_555
C20_5 C23_5 1_555 1_555
C21_5 C22_6 1_555 1_555
O13 C14_6 1_555 1_555
O15 C14_6 1_555 1_555
H5_5 C9_5 1_555 1_555
C10_5 C9_5 1_555 1_555
C11_5 C10_5 1_555 1_555
C12_6 C11_5 1_555 1_555
H6_6 C12_6 1_555 1_555
C13_6 C12_6 1_555 1_555
C14_6 C13_6 1_555 1_555
C15_6 C13_6 1_555 1_555
H7_6 C15_6 1_555 1_555
O14_3 C27_6 1_555 1_555
O16_3 C27_6 1_555 1_555
C24_5 C10_5 1_555 1_555
H12_5 C24_5 1_555 1_555
C25_6 C11_5 1_555 1_555
H13_6 C25_6 1_555 1_555
C26_6 C15_6 1_555 1_555
C27_6 C26_6 1_555 1_555
C25_6 C26_6 1_555 1_555
O7_5 C16_7 1_555 1_555
O8_5 C16_7 1_555 1_555
O14_4 C27_7 1_555 1_555
O16_4 C27_7 1_555 1_555
Cu5 O7_5 1_555 1_555
Cu8 O8_5 1_555 1_555
Cu4 O1_7 1_555 1_555
Cu7 O2_7 1_555 1_555
O1_7 C1_7 1_555 1_555
O2_7 C1_7 1_555 1_555
O13_5 C14_7 1_555 1_555
O15_5 C14_7 1_555 1_555
O5_7 Cu4 1_555 1_555
N1_6 C8_6 1_555 1_555
C1_7 C2_7 1_555 1_555
C2_7 C3_7 1_555 1_555
C3_7 H1_7 1_555 1_555
C4_6 C3_7 1_555 1_555
H2_6 C4_6 1_555 1_555
C5_6 C4_6 1_555 1_555
C6_6 C5_6 1_555 1_555
H3_6 C6_6 1_555 1_555
C7_7 C2_7 1_555 1_555
H4_7 C7_7 1_555 1_555
C8_6 C5_6 1_555 1_555
C9_6 C8_6 1_555 1_555
H5_6 C9_6 1_555 1_555
C10_6 C9_6 1_555 1_555
C11_6 C10_6 1_555 1_555
C12_7 C11_6 1_555 1_555
H6_7 C12_7 1_555 1_555
C13_7 C12_7 1_555 1_555
C14_7 C13_7 1_555 1_555
C15_7 C13_7 1_555 1_555
H7_7 C15_7 1_555 1_555
C17_7 C18_7 1_555 1_555
C19_6 C18_7 1_555 1_555
H9_6 C19_6 1_555 1_555
C20_6 C19_6 1_555 1_555
C21_6 C20_6 1_555 1_555
H10_6 C21_6 1_555 1_555
C22_7 C17_7 1_555 1_555
H11_7 C22_7 1_555 1_555
C23_6 N1_6 1_555 1_555
C24_6 C10_6 1_555 1_555
H12_6 C24_6 1_555 1_555
C25_7 C11_6 1_555 1_555
H13_7 C25_7 1_555 1_555
C26_7 C15_7 1_555 1_555
O11_3 Cu4 1_555 1_555
O12_3 Cu7 1_555 1_555
C6_6 C7_7 1_555 1_555
C20_6 C23_6 1_555 1_555
C21_6 C22_7 1_555 1_555
C23_6 C24_6 1_555 1_555
C25_7 C26_7 1_555 1_555
Cu5 O1_8 1_555 1_555
Cu8 O2_8 1_555 1_555
O1_8 C1_8 1_555 1_555
O2_8 C1_8 1_555 1_555
O13_6 C14_8 1_555 1_555
O15_6 C14_8 1_555 1_555
O5_8 Cu5 1_555 1_555
O7_6 C16_8 1_555 1_555
O8_6 C16_8 1_555 1_555
O14_5 C27_8 1_555 1_555
O16_5 C27_8 1_555 1_555
Cu5_2 O7_6 1_555 1_555
Cu8_2 O8_6 1_555 1_555
N1_7 C8_7 1_555 1_555
C2_8 C3_8 1_555 1_555
C4_7 C3_8 1_555 1_555
H2_7 C4_7 1_555 1_555
C5_7 C4_7 1_555 1_555
C6_7 C5_7 1_555 1_555
H3_7 C6_7 1_555 1_555
C7_8 C2_8 1_555 1_555
H4_8 C7_8 1_555 1_555
C8_7 C5_7 1_555 1_555
C9_7 C8_7 1_555 1_555
H5_7 C9_7 1_555 1_555
C10_7 C9_7 1_555 1_555
C11_7 C10_7 1_555 1_555
C12_8 C11_7 1_555 1_555
H6_8 C12_8 1_555 1_555
C13_8 C12_8 1_555 1_555
C15_8 C13_8 1_555 1_555
H7_8 C15_8 1_555 1_555
O11_3 C16_9 1_555 1_555
O12_3 C16_9 1_555 1_555
O14_6 C27_9 1_555 1_555
O16_6 C27_9 1_555 1_555
C16_9 C17_8 1_555 1_555
C17_8 C18_8 1_555 1_555
C18_8 H8_9 1_555 1_555
C19_7 C18_8 1_555 1_555
H9_7 C19_7 1_555 1_555
C20_7 C19_7 1_555 1_555
C21_7 C20_7 1_555 1_555
H10_7 C21_7 1_555 1_555
C22_8 C17_8 1_555 1_555
H11_8 C22_8 1_555 1_555
C23_7 N1_7 1_555 1_555
C24_7 C10_7 1_555 1_555
H12_7 C24_7 1_555 1_555
C25_8 C11_7 1_555 1_555
H13_8 C25_8 1_555 1_555
C26_8 C15_8 1_555 1_555
C27_9 C26_8 1_555 1_555
C6_7 C7_8 1_555 1_555
C20_7 C23_7 1_555 1_555
C21_7 C22_8 1_555 1_555
C23_7 C24_7 1_555 1_555
C25_8 C26_8 1_555 1_555
Cu5_2 O1_9 1_555 1_555
Cu8_2 O2_9 1_555 1_555
O1_9 C1_9 1_555 1_555
O2_9 C1_9 1_555 1_555
O13_4 C14_9 1_555 1_555
O15_4 C14_9 1_555 1_555
O5_9 Cu5_2 1_555 1_555
N1_8 C8_8 1_555 1_555
H2_8 C4_8 1_555 1_555
C5_8 C4_8 1_555 1_555
C6_8 C5_8 1_555 1_555
H3_8 C6_8 1_555 1_555
C8_8 C5_8 1_555 1_555
C9_8 C8_8 1_555 1_555
H5_8 C9_8 1_555 1_555
C10_8 C9_8 1_555 1_555
C11_8 C10_8 1_555 1_555
H9_8 C19_8 1_555 1_555
C20_8 C19_8 1_555 1_555
C21_8 C20_8 1_555 1_555
H10_8 C21_8 1_555 1_555
C23_8 N1_8 1_555 1_555
C24_8 C10_8 1_555 1_555
H12_8 C24_8 1_555 1_555
C20_8 C23_8 1_555 1_555
C23_8 C24_8 1_555 1_555
O6_7 H15 1_555 1_555
O6_7 H15_2 1_555 1_555
O6_8 H15_3 1_555 1_555
O6_8 H15_4 1_555 1_555
N1_9 C8_9 1_555 1_555
C2_9 C3_9 1_555 1_555
C4_9 C3_9 1_555 1_555
H2_9 C4_9 1_555 1_555
C5_9 C4_9 1_555 1_555
C6_9 C5_9 1_555 1_555
H3_9 C6_9 1_555 1_555
C7_9 C2_9 1_555 1_555
H4_9 C7_9 1_555 1_555
C8_9 C5_9 1_555 1_555
C9_9 C8_9 1_555 1_555
H5_9 C9_9 1_555 1_555
C10_9 C9_9 1_555 1_555
C11_9 C10_9 1_555 1_555
C12_9 C11_9 1_555 1_555
H6_9 C12_9 1_555 1_555
C13_9 C12_9 1_555 1_555
C15_9 C13_9 1_555 1_555
H7_9 C15_9 1_555 1_555
C17_9 C18_9 1_555 1_555
C19_9 C18_9 1_555 1_555
H9_9 C19_9 1_555 1_555
C20_9 C19_9 1_555 1_555
C21_9 C20_9 1_555 1_555
H10_9 C21_9 1_555 1_555
C22_9 C17_9 1_555 1_555
H11_9 C22_9 1_555 1_555
C23_9 N1_9 1_555 1_555
C24_9 C10_9 1_555 1_555
H12_9 C24_9 1_555 1_555
C25_9 C11_9 1_555 1_555
H13_9 C25_9 1_555 1_555
C26_9 C15_9 1_555 1_555
C6_9 C7_9 1_555 1_555
C20_9 C23_9 1_555 1_555
C21_9 C22_9 1_555 1_555
C23_9 C24_9 1_555 1_555
C25_9 C26_9 1_555 1_555
O6_9 H15_5 1_555 1_555
O6_9 H15_6 1_555 1_555

#END
