
###############################################################################
#
# This file contains modified crystal structure data generated from the
# MOF subset of the Cambridge Structural Database (CSD) v543 
# hosted by the Cambridge Crystallographic Data Centre (CCDC).
#
# This work is licensed under the Creative Commons
# Attribution-NonCommercial-ShareAlike 4.0 International License.
# To view a copy of this license, visit
# http://creativecommons.org/licenses/by-nc-sa/4.0/
# or send a letter to
# Creative Commons, PO Box 1866, Mountain View, CA 94042, USA.
#
# CIF created using the CSD Python API on 29 September 2022
# The structure has been converted into the P1 space group
# The structure has a 3D framework
# The original CSD entry ENISOK is in the monoclinic crystal system
# The framework has been calculated to contain at least 10.0% void space
# The void calculation uses a probe of radius 1.32A, grid spacing 0.4
# H atom positions have been added when not included in the experimental data
# Generated hydrogen atom positions removed from atoms on special positions
#
###############################################################################

data_ENISOK
_chemical_formula_moiety         '(C112 H96 Cd8 O30 Si6)n'
_symmetry_cell_setting           triclinic
_symmetry_space_group_name_H-M   'P 1'
_symmetry_Int_Tables_number      1
_space_group_name_Hall           'P 1'
loop_
_symmetry_equiv_pos_site_id
_symmetry_equiv_pos_as_xyz
1 x,y,z
_cell_length_a                   12.9161(2)
_cell_length_b                   23.2940(4)
_cell_length_c                   14.1869(2)
_cell_angle_alpha                90
_cell_angle_beta                 94.2482(14)
_cell_angle_gamma                90
_cell_volume                     4256.65
loop_
_atom_site_label
_atom_site_type_symbol
_atom_site_fract_x
_atom_site_fract_y
_atom_site_fract_z
Cd3 Cd 0.2500 0.185943(10) 0.5000
Cd6 Cd 0.2500 0.2500 0.7500
C18 C 0.0301(2) 0.32935(10) 0.53317(17)
C19 C 0.0318(2) 0.37874(13) 0.5864(2)
H11 H 0.0889 0.3863 0.6307
C21 C 0.1166(2) 0.28617(11) 0.54777(17)
O7 O 0.11454(15) 0.24415(8) 0.48902(14)
O9 O 0.18343(15) 0.29291(9) 0.61416(13)
Cd5 Cd 0.7500 0.685943(10) -0.0000
Cd2 Cd 0.2500 0.2500 0.2500
O1 O 0.0914(2) 0.25303(15) 0.29969(19)
Si1 Si 0.7500 0.45678(4) 0.5000
C1 C 0.63398(19) 0.40869(10) 0.48885(18)
C2 C 0.6320(3) 0.35928(14) 0.5440(2)
H1 H 0.6876 0.3523 0.5901
C3 C 0.5518(2) 0.32012(13) 0.5337(2)
H2 H 0.5528 0.2869 0.5724
C4 C 0.4699(2) 0.32935(10) 0.46683(17)
C5 C 0.4682(2) 0.37874(13) 0.4136(2)
H3 H 0.4111 0.3863 0.3693
C6 C 0.5494(2) 0.41750(12) 0.4245(2)
H4 H 0.5471 0.4512 0.3866
C7 C 0.3834(2) 0.28617(11) 0.45223(17)
O2 O 0.38546(15) 0.24415(8) 0.51098(14)
O3 O 0.31657(15) 0.29291(9) 0.38584(13)
C8 C 0.74589(19) 0.50402(10) 0.60613(18)
C9 C 0.8102(2) 0.55272(11) 0.6148(2)
H5 H 0.8572 0.5604 0.5679
C10 C 0.8058(2) 0.58985(11) 0.69135(19)
H6 H 0.8492 0.6228 0.6961
C11 C 0.7383(2) 0.57882(11) 0.76045(17)
C12 C 0.6748(2) 0.53121(11) 0.75357(19)
H7 H 0.6281 0.5239 0.8009
C13 C 0.6790(2) 0.49405(11) 0.67790(18)
H8 H 0.6356 0.4611 0.6745
C14 C 0.7310(2) 0.62051(11) 0.84089(19)
O4 O 0.78081(18) 0.66724(8) 0.84006(14)
O5 O 0.6791(2) 0.60767(10) 0.90881(16)
Cd5_2 Cd 0.7500 0.685943(10) 1.0000
Cd7 Cd 0.7500 0.7500 0.7500
Cd8 Cd 0.7500 0.7500 0.2500
O6 O 0.4086(2) 0.24697(15) 0.20031(19)
C15 C 0.86602(19) 0.40869(10) 0.51115(18)
C16 C 0.8680(3) 0.35928(14) 0.4560(2)
H9 H 0.8124 0.3523 0.4099
C17 C 0.9482(2) 0.32012(13) 0.4663(2)
H10 H 0.9472 0.2869 0.4276
C20 C 0.9506(2) 0.41750(12) 0.5755(2)
H12 H 0.9529 0.4512 0.6134
O10 O 0.18343(15) 0.20709(9) 0.11416(13)
C22 C 0.75411(19) 0.50402(10) 0.39387(18)
C23 C 0.6898(2) 0.55272(11) 0.3852(2)
H13 H 0.6428 0.5604 0.4321
C24 C 0.6942(2) 0.58985(11) 0.30865(19)
H14 H 0.6508 0.6228 0.3039
C25 C 0.7617(2) 0.57882(11) 0.23955(17)
C26 C 0.8252(2) 0.53121(11) 0.24643(19)
H15 H 0.8719 0.5239 0.1991
C27 C 0.8210(2) 0.49405(11) 0.32210(18)
H16 H 0.8644 0.4611 0.3255
C28 C 0.7690(2) 0.62051(11) 0.15911(19)
C29 C 0.2310(2) 0.12051(11) 0.34089(19)
C30 C 0.2690(2) 0.12051(11) 0.65911(19)
O11 O 0.71919(18) 0.66724(8) 0.15994(14)
O12 O 0.28081(18) 0.16724(8) 0.34006(14)
O13 O 0.21919(18) 0.16724(8) 0.65994(14)
O14 O 0.21919(18) 0.33276(8) 0.15994(14)
O15 O 0.8209(2) 0.60767(10) 0.09119(16)
O16 O 0.1791(2) 0.10767(10) 0.40881(16)
O17 O 0.3209(2) 0.10767(10) 0.59119(16)
O1_2 O 0.4086(2) 0.25303(15) 0.70031(19)
O6_2 O 0.0914(2) 0.24697(15) 0.79969(19)
O10_2 O 0.31657(15) 0.20709(9) 0.88584(13)
O14_2 O 0.28081(18) 0.33276(8) 0.84006(14)
C8_2 C 0.24589(19) 0.00402(10) 0.10613(18)
C9_2 C 0.3102(2) 0.05272(11) 0.1148(2)
H5_2 H 0.3572 0.0604 0.0679
C10_2 C 0.3058(2) 0.08985(11) 0.19135(19)
H6_2 H 0.3492 0.1228 0.1961
C11_2 C 0.2383(2) 0.07882(11) 0.26045(17)
C12_2 C 0.1748(2) 0.03121(11) 0.25357(19)
H7_2 H 0.1281 0.0239 0.3009
C22_2 C 0.25411(19) 0.00402(10) 0.89387(18)
C23_2 C 0.1898(2) 0.05272(11) 0.8852(2)
H13_2 H 0.1428 0.0604 0.9321
C24_2 C 0.1942(2) 0.08985(11) 0.80865(19)
H14_2 H 0.1508 0.1228 0.8039
C25_2 C 0.2617(2) 0.07882(11) 0.73955(17)
C26_2 C 0.3252(2) 0.03121(11) 0.74643(19)
H15_2 H 0.3719 0.0239 0.6991
Si1_2 Si 0.2500 0.95678(4) -0.0000
C2_2 C 0.1320(3) 0.85928(14) 0.0440(2)
H1_2 H 0.1876 0.8523 0.0901
C3_2 C 0.0518(2) 0.82012(13) 0.0337(2)
H2_2 H 0.0528 0.7869 0.0724
C13_2 C 0.1790(2) 0.99405(11) 0.17790(18)
H8_2 H 0.1356 0.9611 0.1745
C15_2 C 0.36602(19) 0.90869(10) 0.01115(18)
C18_2 C 0.5301(2) 0.82935(10) 0.03317(17)
C19_2 C 0.5318(2) 0.87874(13) 0.0864(2)
H11_2 H 0.5889 0.8863 0.1307
C20_2 C 0.4506(2) 0.91750(12) 0.0755(2)
H12_2 H 0.4529 0.9512 0.1134
C21_2 C 0.6166(2) 0.78617(11) 0.04777(17)
O9_2 O 0.68343(15) 0.79291(9) 0.11416(13)
Si1_3 Si 0.2500 0.95678(4) 1.0000
C1_2 C 0.13398(19) 0.90869(10) 0.98885(18)
C6_2 C 0.0494(2) 0.91750(12) 0.9245(2)
H4_2 H 0.0471 0.9512 0.8866
C16_2 C 0.3680(3) 0.85928(14) 0.9560(2)
H9_2 H 0.3124 0.8523 0.9099
C17_2 C 0.4482(2) 0.82012(13) 0.9663(2)
H10_2 H 0.4472 0.7869 0.9276
O7_2 O 0.61454(15) 0.74415(8) 0.98902(14)
C27_2 C 0.3210(2) 0.99405(11) 0.82210(18)
H16_2 H 0.3644 0.9611 0.8255
O2_2 O 0.88546(15) 0.74415(8) 0.01098(14)
O1_3 O 0.5914(2) 0.75303(15) 0.79969(19)
C4_2 C 0.9699(2) 0.82935(10) 0.96683(17)
C5_2 C 0.9682(2) 0.87874(13) 0.9136(2)
H3_2 H 0.9111 0.8863 0.8693
C7_2 C 0.8834(2) 0.78617(11) 0.95223(17)
O3_2 O 0.81657(15) 0.79291(9) 0.88584(13)
O6_3 O 0.9086(2) 0.74697(15) 0.70031(19)
O10_3 O 0.68343(15) 0.70709(9) 0.61416(13)
O14_3 O 0.71919(18) 0.83276(8) 0.65994(14)
O1_4 O 0.9086(2) 0.75303(15) 0.20031(19)
O6_4 O 0.5914(2) 0.74697(15) 0.29969(19)
O10_4 O 0.81657(15) 0.70709(9) 0.38584(13)
O14_4 O 0.78081(18) 0.83276(8) 0.34006(14)
Cd4 Cd 0.2500 0.314057(10) 0.0000
Cd1 Cd 0.7500 0.814057(10) 0.5000
Si1_4 Si 0.2500 0.54322(4) 0.5000
C1_3 C 0.36602(19) 0.59131(10) 0.51115(18)
C2_3 C 0.3680(3) 0.64072(14) 0.4560(2)
H1_3 H 0.3124 0.6477 0.4099
C3_3 C 0.4482(2) 0.67988(13) 0.4663(2)
H2_3 H 0.4472 0.7131 0.4276
C4_3 C 0.5301(2) 0.67065(10) 0.53317(17)
C5_3 C 0.5318(2) 0.62126(13) 0.5864(2)
H3_3 H 0.5889 0.6137 0.6307
C6_3 C 0.4506(2) 0.58250(12) 0.5755(2)
H4_3 H 0.4529 0.5488 0.6134
C7_3 C 0.6166(2) 0.71383(11) 0.54777(17)
O2_3 O 0.61454(15) 0.75585(8) 0.48902(14)
C8_3 C 0.25411(19) 0.49598(10) 0.39387(18)
C9_3 C 0.1898(2) 0.44728(11) 0.3852(2)
H5_3 H 0.1428 0.4396 0.4321
C10_3 C 0.1942(2) 0.41015(11) 0.30865(19)
H6_3 H 0.1508 0.3772 0.3039
C11_3 C 0.2617(2) 0.42118(11) 0.23955(17)
C12_3 C 0.3252(2) 0.46879(11) 0.24643(19)
H7_3 H 0.3719 0.4761 0.1991
C13_3 C 0.3210(2) 0.50595(11) 0.32210(18)
H8_3 H 0.3644 0.5389 0.3255
C14_2 C 0.2690(2) 0.37949(11) 0.15911(19)
O5_2 O 0.3209(2) 0.39233(10) 0.09119(16)
Cd4_2 Cd 0.2500 0.314057(10) 1.0000
C15_3 C 0.13398(19) 0.59131(10) 0.48885(18)
C16_3 C 0.1320(3) 0.64072(14) 0.5440(2)
H9_3 H 0.1876 0.6477 0.5901
C17_3 C 0.0518(2) 0.67988(13) 0.5337(2)
H10_3 H 0.0528 0.7131 0.5724
C20_3 C 0.0494(2) 0.58250(12) 0.4245(2)
H12_3 H 0.0471 0.5488 0.3866
O8 O 0.88546(15) 0.75585(8) 0.51098(14)
C22_3 C 0.24589(19) 0.49598(10) 0.60613(18)
C23_3 C 0.3102(2) 0.44728(11) 0.6148(2)
H13_3 H 0.3572 0.4396 0.5679
C24_3 C 0.3058(2) 0.41015(11) 0.69135(19)
H14_3 H 0.3492 0.3772 0.6961
C25_3 C 0.2383(2) 0.42118(11) 0.76045(17)
C26_3 C 0.1748(2) 0.46879(11) 0.75357(19)
H15_3 H 0.1281 0.4761 0.8009
C27_3 C 0.1790(2) 0.50595(11) 0.67790(18)
H16_3 H 0.1356 0.5389 0.6745
C28_2 C 0.2310(2) 0.37949(11) 0.84089(19)
C29_2 C 0.7690(2) 0.87949(11) 0.65911(19)
C30_2 C 0.7310(2) 0.87949(11) 0.34089(19)
O15_2 O 0.1791(2) 0.39233(10) 0.90881(16)
O16_2 O 0.8209(2) 0.89233(10) 0.59119(16)
O17_2 O 0.6791(2) 0.89233(10) 0.40881(16)
C18_3 C 0.9699(2) 0.67065(10) 0.46683(17)
C19_3 C 0.9682(2) 0.62126(13) 0.4136(2)
H11_3 H 0.9111 0.6137 0.3693
C21_3 C 0.8834(2) 0.71383(11) 0.45223(17)
C4_4 C 0.0301(2) 0.17065(10) 0.03317(17)
C5_4 C 0.0318(2) 0.12126(13) 0.0864(2)
H3_4 H 0.0889 0.1137 0.1307
C7_4 C 0.1166(2) 0.21383(11) 0.04777(17)
O8_2 O 0.38546(15) 0.25585(8) 0.01098(14)
O2_4 O 0.11454(15) 0.25585(8) 0.98902(14)
Si1_5 Si 0.7500 0.04322(4) 0.0000
C1_4 C 0.86602(19) 0.09131(10) 0.01115(18)
C6_4 C 0.9506(2) 0.08250(12) 0.0755(2)
H4_4 H 0.9529 0.0488 0.1134
C16_4 C 0.6320(3) 0.14072(14) 0.0440(2)
H9_4 H 0.6876 0.1477 0.0901
C17_4 C 0.5518(2) 0.17988(13) 0.0337(2)
H10_4 H 0.5528 0.2131 0.0724
C27_4 C 0.6790(2) 0.00595(11) 0.17790(18)
H16_4 H 0.6356 0.0389 0.1745
Si1_6 Si 0.7500 0.04322(4) 1.0000
C2_4 C 0.8680(3) 0.14072(14) 0.9560(2)
H1_4 H 0.8124 0.1477 0.9099
C3_4 C 0.9482(2) 0.17988(13) 0.9663(2)
H2_4 H 0.9472 0.2131 0.9276
C13_4 C 0.8210(2) 0.00595(11) 0.82210(18)
H8_4 H 0.8644 0.0389 0.8255
C15_4 C 0.63398(19) 0.09131(10) 0.98885(18)
C18_4 C 0.4699(2) 0.17065(10) 0.96683(17)
C19_4 C 0.4682(2) 0.12126(13) 0.9136(2)
H11_4 H 0.4111 0.1137 0.8693
C20_4 C 0.5494(2) 0.08250(12) 0.9245(2)
H12_4 H 0.5471 0.0488 0.8866
C21_4 C 0.3834(2) 0.21383(11) 0.95223(17)
C22_4 C 0.74589(19) 0.99598(10) 0.10613(18)
C23_4 C 0.8102(2) 0.94728(11) 0.1148(2)
H13_4 H 0.8572 0.9396 0.0679
C24_4 C 0.8058(2) 0.91015(11) 0.19135(19)
H14_4 H 0.8492 0.8772 0.1961
C25_4 C 0.7383(2) 0.92118(11) 0.26045(17)
C26_4 C 0.6748(2) 0.96879(11) 0.25357(19)
H15_4 H 0.6281 0.9761 0.3009
C8_4 C 0.75411(19) 0.99598(10) 0.89387(18)
C9_4 C 0.6898(2) 0.94728(11) 0.8852(2)
H5_4 H 0.6428 0.9396 0.9321
C10_4 C 0.6942(2) 0.91015(11) 0.80865(19)
H6_4 H 0.6508 0.8772 0.8039
C11_4 C 0.7617(2) 0.92118(11) 0.73955(17)
C12_4 C 0.8252(2) 0.96879(11) 0.74643(19)
H7_4 H 0.8719 0.9761 0.6991
loop_
_geom_bond_atom_site_label_1
_geom_bond_atom_site_label_2
_geom_bond_site_symmetry_1
_geom_bond_site_symmetry_2
Cd3 O7 1_555 1_555
Cd6 O9 1_555 1_555
C19 C18 1_555 1_555
H11 C19 1_555 1_555
C21 C18 1_555 1_555
O7 C21 1_555 1_555
O9 C21 1_555 1_555
Cd3 O2 1_555 1_555
Cd2 O1 1_555 1_555
Si1 C1 1_555 1_555
C1 C2 1_555 1_555
C2 H1 1_555 1_555
C3 C2 1_555 1_555
H2 C3 1_555 1_555
C4 C3 1_555 1_555
C5 C4 1_555 1_555
H3 C5 1_555 1_555
C6 C1 1_555 1_555
H4 C6 1_555 1_555
C7 C4 1_555 1_555
O2 C7 1_555 1_555
O3 Cd2 1_555 1_555
C8 Si1 1_555 1_555
C9 C8 1_555 1_555
H5 C9 1_555 1_555
C10 C9 1_555 1_555
H6 C10 1_555 1_555
C11 C10 1_555 1_555
C12 C11 1_555 1_555
H7 C12 1_555 1_555
C13 C8 1_555 1_555
H8 C13 1_555 1_555
C14 C11 1_555 1_555
O4 C14 1_555 1_555
O5 C14 1_555 1_555
Cd5 O11 1_555 1_555
Cd5_2 O4 1_555 1_555
Cd7 O4 1_555 1_555
Cd8 O11 1_555 1_555
O6 Cd2 1_555 1_555
C15 Si1 1_555 1_555
C16 C15 1_555 1_555
H9 C16 1_555 1_555
C17 C16 1_555 1_555
H10 C17 1_555 1_555
C20 C15 1_555 1_555
H12 C20 1_555 1_555
O10 Cd2 1_555 1_555
C22 Si1 1_555 1_555
C23 C22 1_555 1_555
H13 C23 1_555 1_555
C24 C23 1_555 1_555
H14 C24 1_555 1_555
C25 C24 1_555 1_555
C26 C25 1_555 1_555
H15 C26 1_555 1_555
C27 C22 1_555 1_555
H16 C27 1_555 1_555
C28 C25 1_555 1_555
C29 O12 1_555 1_555
C30 O13 1_555 1_555
O11 C28 1_555 1_555
O12 Cd3 1_555 1_555
O13 Cd3 1_555 1_555
O14 Cd2 1_555 1_555
O15 Cd5 1_555 1_555
O16 Cd3 1_555 1_555
O17 Cd3 1_555 1_555
Cd2 O12 1_555 1_555
C5 C6 1_555 1_555
C7 O3 1_555 1_555
C12 C13 1_555 1_555
O5 Cd5_2 1_555 1_555
C26 C27 1_555 1_555
C28 O15 1_555 1_555
C29 O16 1_555 1_555
C30 O17 1_555 1_555
Cd6 O1_2 1_555 1_555
O6_2 Cd6 1_555 1_555
O10_2 Cd6 1_555 1_555
O14_2 Cd6 1_555 1_555
Cd6 O13 1_555 1_555
C9_2 C8_2 1_555 1_555
H5_2 C9_2 1_555 1_555
C10_2 C9_2 1_555 1_555
H6_2 C10_2 1_555 1_555
C11_2 C10_2 1_555 1_555
C12_2 C11_2 1_555 1_555
H7_2 C12_2 1_555 1_555
C29 C11_2 1_555 1_555
C23_2 C22_2 1_555 1_555
H13_2 C23_2 1_555 1_555
C24_2 C23_2 1_555 1_555
H14_2 C24_2 1_555 1_555
C25_2 C24_2 1_555 1_555
C26_2 C25_2 1_555 1_555
H15_2 C26_2 1_555 1_555
C30 C25_2 1_555 1_555
C2_2 H1_2 1_555 1_555
C3_2 C2_2 1_555 1_555
H2_2 C3_2 1_555 1_555
H8_2 C13_2 1_555 1_555
Cd8 O9_2 1_555 1_555
C15_2 Si1_2 1_555 1_555
C19_2 C18_2 1_555 1_555
H11_2 C19_2 1_555 1_555
C20_2 C15_2 1_555 1_555
H12_2 C20_2 1_555 1_555
C21_2 C18_2 1_555 1_555
O9_2 C21_2 1_555 1_555
C19_2 C20_2 1_555 1_555
Si1_3 C1_2 1_555 1_555
C6_2 C1_2 1_555 1_555
H4_2 C6_2 1_555 1_555
Cd5_2 O7_2 1_555 1_555
H9_2 C16_2 1_555 1_555
C17_2 C16_2 1_555 1_555
H10_2 C17_2 1_555 1_555
H16_2 C27_2 1_555 1_555
Cd5 O2_2 1_555 1_555
Cd7 O1_3 1_555 1_555
C5_2 C4_2 1_555 1_555
H3_2 C5_2 1_555 1_555
C7_2 C4_2 1_555 1_555
O3_2 Cd7 1_555 1_555
O6_3 Cd7 1_555 1_555
O10_3 Cd7 1_555 1_555
O14_3 Cd7 1_555 1_555
C7_2 O3_2 1_555 1_555
Cd8 O1_4 1_555 1_555
O6_4 Cd8 1_555 1_555
O10_4 Cd8 1_555 1_555
O14_4 Cd8 1_555 1_555
Cd1 O2_3 1_555 1_555
Si1_4 C1_3 1_555 1_555
C1_3 C2_3 1_555 1_555
C2_3 H1_3 1_555 1_555
C3_3 C2_3 1_555 1_555
H2_3 C3_3 1_555 1_555
C4_3 C3_3 1_555 1_555
C5_3 C4_3 1_555 1_555
H3_3 C5_3 1_555 1_555
C6_3 C1_3 1_555 1_555
H4_3 C6_3 1_555 1_555
C7_3 C4_3 1_555 1_555
O2_3 C7_3 1_555 1_555
C8_3 Si1_4 1_555 1_555
C9_3 C8_3 1_555 1_555
H5_3 C9_3 1_555 1_555
C10_3 C9_3 1_555 1_555
H6_3 C10_3 1_555 1_555
C11_3 C10_3 1_555 1_555
C12_3 C11_3 1_555 1_555
H7_3 C12_3 1_555 1_555
C13_3 C8_3 1_555 1_555
H8_3 C13_3 1_555 1_555
C14_2 C11_3 1_555 1_555
O14 C14_2 1_555 1_555
O5_2 C14_2 1_555 1_555
Cd4_2 O14_2 1_555 1_555
Cd4 O14 1_555 1_555
C15_3 Si1_4 1_555 1_555
C16_3 C15_3 1_555 1_555
H9_3 C16_3 1_555 1_555
C17_3 C16_3 1_555 1_555
H10_3 C17_3 1_555 1_555
C20_3 C15_3 1_555 1_555
H12_3 C20_3 1_555 1_555
O8 Cd1 1_555 1_555
C22_3 Si1_4 1_555 1_555
C23_3 C22_3 1_555 1_555
H13_3 C23_3 1_555 1_555
C24_3 C23_3 1_555 1_555
H14_3 C24_3 1_555 1_555
C25_3 C24_3 1_555 1_555
C26_3 C25_3 1_555 1_555
H15_3 C26_3 1_555 1_555
C27_3 C22_3 1_555 1_555
H16_3 C27_3 1_555 1_555
C28_2 C25_3 1_555 1_555
C29_2 O14_3 1_555 1_555
C30_2 O14_4 1_555 1_555
O14_2 C28_2 1_555 1_555
O14_3 Cd1 1_555 1_555
O14_4 Cd1 1_555 1_555
O15_2 Cd4_2 1_555 1_555
O16_2 Cd1 1_555 1_555
O17_2 Cd1 1_555 1_555
C5_3 C6_3 1_555 1_555
C7_3 O10_3 1_555 1_555
C12_3 C13_3 1_555 1_555
O5_2 Cd4 1_555 1_555
C26_3 C27_3 1_555 1_555
C28_2 O15_2 1_555 1_555
C29_2 O16_2 1_555 1_555
C30_2 O17_2 1_555 1_555
C19_3 C18_3 1_555 1_555
H11_3 C19_3 1_555 1_555
C21_3 C18_3 1_555 1_555
O8 C21_3 1_555 1_555
O10_4 C21_3 1_555 1_555
C5_4 C4_4 1_555 1_555
H3_4 C5_4 1_555 1_555
C7_4 C4_4 1_555 1_555
O8_2 Cd4 1_555 1_555
C7_4 O10 1_555 1_555
Cd4_2 O2_4 1_555 1_555
Si1_5 C1_4 1_555 1_555
C6_4 C1_4 1_555 1_555
H4_4 C6_4 1_555 1_555
H9_4 C16_4 1_555 1_555
C17_4 C16_4 1_555 1_555
H10_4 C17_4 1_555 1_555
H16_4 C27_4 1_555 1_555
C2_4 H1_4 1_555 1_555
C3_4 C2_4 1_555 1_555
H2_4 C3_4 1_555 1_555
H8_4 C13_4 1_555 1_555
C15_4 Si1_6 1_555 1_555
C19_4 C18_4 1_555 1_555
H11_4 C19_4 1_555 1_555
C20_4 C15_4 1_555 1_555
H12_4 C20_4 1_555 1_555
C21_4 C18_4 1_555 1_555
O10_2 C21_4 1_555 1_555
C19_4 C20_4 1_555 1_555
C23_4 C22_4 1_555 1_555
H13_4 C23_4 1_555 1_555
C24_4 C23_4 1_555 1_555
H14_4 C24_4 1_555 1_555
C25_4 C24_4 1_555 1_555
C26_4 C25_4 1_555 1_555
H15_4 C26_4 1_555 1_555
C30_2 C25_4 1_555 1_555
C9_4 C8_4 1_555 1_555
H5_4 C9_4 1_555 1_555
C10_4 C9_4 1_555 1_555
H6_4 C10_4 1_555 1_555
C11_4 C10_4 1_555 1_555
C12_4 C11_4 1_555 1_555
H7_4 C12_4 1_555 1_555
C29_2 C11_4 1_555 1_555

#END
