
###############################################################################
#
# This file contains modified crystal structure data generated from the
# MOF subset of the Cambridge Structural Database (CSD) v543 
# hosted by the Cambridge Crystallographic Data Centre (CCDC).
#
# This work is licensed under the Creative Commons
# Attribution-NonCommercial-ShareAlike 4.0 International License.
# To view a copy of this license, visit
# http://creativecommons.org/licenses/by-nc-sa/4.0/
# or send a letter to
# Creative Commons, PO Box 1866, Mountain View, CA 94042, USA.
#
# CIF created using the CSD Python API on 29 September 2022
# The structure has been converted into the P1 space group
# The structure has a 3D framework
# The original CSD entry ENISUQ is in the monoclinic crystal system
# The framework has been calculated to contain at least 10.0% void space
# The void calculation uses a probe of radius 1.32A, grid spacing 0.4
#
###############################################################################

data_ENISUQ
_chemical_formula_moiety         '(C112 H80 Mn8 O38 Si6)n'
_symmetry_cell_setting           triclinic
_symmetry_space_group_name_H-M   'P 1'
_symmetry_Int_Tables_number      1
_space_group_name_Hall           'P 1'
loop_
_symmetry_equiv_pos_site_id
_symmetry_equiv_pos_as_xyz
1 x,y,z
_cell_length_a                   13.0355(18)
_cell_length_b                   22.908(4)
_cell_length_c                   13.882(4)
_cell_angle_alpha                90
_cell_angle_beta                 93.070(19)
_cell_angle_gamma                90
_cell_volume                     4139.46
loop_
_atom_site_label
_atom_site_type_symbol
_atom_site_fract_x
_atom_site_fract_y
_atom_site_fract_z
Mn3 Mn 0.2500 0.185198(15) 0.5000
Mn6 Mn 0.2500 0.2500 0.7500
C18 C 0.03190(13) 0.32675(7) 0.53782(12)
C19 C 0.03083(15) 0.37857(8) 0.58887(15)
H15 H 0.0866 0.3880 0.6330
C21 C 0.11929(13) 0.28483(7) 0.55472(12)
O7 O 0.12479(10) 0.24285(5) 0.49561(9)
O9 O 0.18175(10) 0.29333(5) 0.62501(9)
Mn5 Mn 0.7500 0.685198(15) 0.0000
Mn2 Mn 0.2500 0.2500 0.2500
O1 O 0.09908(12) 0.26003(7) 0.30096(11)
H1 H 0.0951(19) 0.2556(10) 0.3651(3)
H2 H 0.0382(16) 0.2549(17) 0.268(3)
Si1 Si 0.7500 0.45308(2) 0.5000
C1 C 0.63450(13) 0.40472(7) 0.48724(11)
C2 C 0.63126(15) 0.35266(8) 0.53941(13)
H3 H 0.6863 0.3434 0.5844
C3 C 0.54961(15) 0.31423(8) 0.52696(13)
H4 H 0.5495 0.2790 0.5631
C4 C 0.46810(13) 0.32675(7) 0.46218(12)
C5 C 0.46917(15) 0.37857(8) 0.41113(15)
H5 H 0.4134 0.3880 0.3670
C6 C 0.55098(15) 0.41674(8) 0.42395(14)
H6 H 0.5500 0.4522 0.3884
C7 C 0.38071(13) 0.28483(7) 0.44528(12)
O2 O 0.37521(10) 0.24285(5) 0.50439(9)
O3 O 0.31825(10) 0.29333(5) 0.37499(9)
C8 C 0.74331(13) 0.50167(7) 0.60834(12)
C9 C 0.80636(14) 0.55107(7) 0.61633(13)
H7 H 0.8537 0.5585 0.5681
C10 C 0.80106(14) 0.58925(7) 0.69298(13)
H8 H 0.8444 0.6226 0.6970
C11 C 0.73225(14) 0.57888(7) 0.76418(12)
C12 C 0.67015(15) 0.52946(8) 0.75895(13)
H9 H 0.6242 0.5217 0.8082
C13 C 0.67573(15) 0.49137(7) 0.68109(13)
H10 H 0.6328 0.4578 0.6775
C14 C 0.72365(15) 0.62126(7) 0.84515(13)
O4 O 0.77151(11) 0.67004(5) 0.84172(9)
O5 O 0.67406(12) 0.60899(6) 0.91693(9)
Mn5_2 Mn 0.7500 0.685198(15) 1.0000
Mn7 Mn 0.7500 0.7500 0.7500
Mn8 Mn 0.7500 0.7500 0.2500
O6 O 0.40092(12) 0.23997(7) 0.19904(11)
H11 H 0.4049(19) 0.2444(10) 0.1349(3)
H12 H 0.4618(16) 0.2451(17) 0.232(3)
C15 C 0.86550(13) 0.40472(7) 0.51276(11)
C16 C 0.86874(15) 0.35266(8) 0.46059(13)
H13 H 0.8137 0.3434 0.4156
C17 C 0.95039(15) 0.31423(8) 0.47304(13)
H14 H 0.9505 0.2790 0.4369
C20 C 0.94902(15) 0.41674(8) 0.57605(14)
H16 H 0.9500 0.4522 0.6116
O10 O 0.18175(10) 0.20667(5) 0.12501(9)
C22 C 0.75669(13) 0.50167(7) 0.39166(12)
C23 C 0.69364(14) 0.55107(7) 0.38367(13)
H17 H 0.6463 0.5585 0.4319
C24 C 0.69894(14) 0.58925(7) 0.30702(13)
H18 H 0.6556 0.6226 0.3030
C25 C 0.76775(14) 0.57888(7) 0.23582(12)
C26 C 0.82985(15) 0.52946(8) 0.24105(13)
H19 H 0.8758 0.5217 0.1918
C27 C 0.82427(15) 0.49137(7) 0.31891(13)
H20 H 0.8672 0.4578 0.3225
C28 C 0.77635(15) 0.62126(7) 0.15485(13)
O11 O 0.72849(11) 0.67004(5) 0.15828(9)
O12 O 0.27151(11) 0.17004(5) 0.34172(9)
O13 O 0.22849(11) 0.17004(5) 0.65828(9)
O14 O 0.22849(11) 0.32996(5) 0.15828(9)
O15 O 0.82594(12) 0.60899(6) 0.08307(9)
O16 O 0.17406(12) 0.10899(6) 0.41693(9)
O17 O 0.32594(12) 0.10899(6) 0.58307(9)
O1_2 O 0.40092(12) 0.26003(7) 0.69904(11)
H1_2 H 0.4049(19) 0.2556(10) 0.6349(3)
H2_2 H 0.4618(16) 0.2549(17) 0.732(3)
O6_2 O 0.09908(12) 0.23997(7) 0.80096(11)
H11_2 H 0.0951(19) 0.2444(10) 0.8651(3)
H12_2 H 0.0382(16) 0.2451(17) 0.768(3)
O10_2 O 0.31825(10) 0.20667(5) 0.87499(9)
O14_2 O 0.27151(11) 0.32996(5) 0.84172(9)
C8_2 C 0.24331(13) 0.00167(7) 0.10834(12)
C9_2 C 0.30636(14) 0.05107(7) 0.11633(13)
H7_2 H 0.3537 0.0585 0.0681
C10_2 C 0.30106(14) 0.08925(7) 0.19298(13)
H8_2 H 0.3444 0.1226 0.1970
C11_2 C 0.23225(14) 0.07888(7) 0.26418(12)
C12_2 C 0.17015(15) 0.02946(8) 0.25895(13)
H9_2 H 0.1242 0.0217 0.3082
C14_2 C 0.22365(15) 0.12126(7) 0.34515(13)
C22_2 C 0.25669(13) 0.00167(7) 0.89166(12)
C23_2 C 0.19364(14) 0.05107(7) 0.88367(13)
H17_2 H 0.1463 0.0585 0.9319
C24_2 C 0.19894(14) 0.08925(7) 0.80702(13)
H18_2 H 0.1556 0.1226 0.8030
C25_2 C 0.26775(14) 0.07888(7) 0.73582(12)
C26_2 C 0.32985(15) 0.02946(8) 0.74105(13)
H19_2 H 0.3758 0.0217 0.6918
C28_2 C 0.27635(15) 0.12126(7) 0.65485(13)
Si1_2 Si 0.2500 0.95308(2) 0.0000
C2_2 C 0.13126(15) 0.85266(8) 0.03941(13)
H3_2 H 0.1863 0.8434 0.0844
C3_2 C 0.04961(15) 0.81423(8) 0.02696(13)
H4_2 H 0.0495 0.7790 0.0631
C13_2 C 0.17573(15) 0.99137(7) 0.18109(13)
H10_2 H 0.1328 0.9578 0.1775
C15_2 C 0.36550(13) 0.90472(7) 0.01276(11)
C18_2 C 0.53190(13) 0.82675(7) 0.03782(12)
C19_2 C 0.53083(15) 0.87857(8) 0.08887(15)
H15_2 H 0.5866 0.8880 0.1330
C20_2 C 0.44902(15) 0.91674(8) 0.07605(14)
H16_2 H 0.4500 0.9522 0.1116
C21_2 C 0.61929(13) 0.78483(7) 0.05472(12)
O9_2 O 0.68175(10) 0.79333(5) 0.12501(9)
Si1_3 Si 0.2500 0.95308(2) 1.0000
C1_2 C 0.13450(13) 0.90472(7) 0.98724(11)
C6_2 C 0.05098(15) 0.91674(8) 0.92395(14)
H6_2 H 0.0500 0.9522 0.8884
C16_2 C 0.36874(15) 0.85266(8) 0.96059(13)
H13_2 H 0.3137 0.8434 0.9156
C17_2 C 0.45039(15) 0.81423(8) 0.97304(13)
H14_2 H 0.4505 0.7790 0.9369
O7_2 O 0.62479(10) 0.74285(5) 0.99561(9)
C27_2 C 0.32427(15) 0.99137(7) 0.81891(13)
H20_2 H 0.3672 0.9578 0.8225
O2_2 O 0.87521(10) 0.74285(5) 0.00439(9)
O1_3 O 0.59908(12) 0.76003(7) 0.80096(11)
H1_3 H 0.5951(19) 0.7556(10) 0.8651(3)
H2_3 H 0.5382(16) 0.7549(17) 0.768(3)
C4_2 C 0.96810(13) 0.82675(7) 0.96218(12)
C5_2 C 0.96917(15) 0.87857(8) 0.91113(15)
H5_2 H 0.9134 0.8880 0.8670
C7_2 C 0.88071(13) 0.78483(7) 0.94528(12)
O3_2 O 0.81825(10) 0.79333(5) 0.87499(9)
O6_3 O 0.90092(12) 0.73997(7) 0.69904(11)
H11_3 H 0.9049(19) 0.7444(10) 0.6349(3)
H12_3 H 0.9618(16) 0.7451(17) 0.732(3)
O10_3 O 0.68175(10) 0.70667(5) 0.62501(9)
O14_3 O 0.72849(11) 0.82996(5) 0.65828(9)
O1_4 O 0.90092(12) 0.76003(7) 0.19904(11)
H1_4 H 0.9049(19) 0.7556(10) 0.1349(3)
H2_4 H 0.9618(16) 0.7549(17) 0.232(3)
O6_4 O 0.59908(12) 0.73997(7) 0.30096(11)
H11_4 H 0.5951(19) 0.7444(10) 0.3651(3)
H12_4 H 0.5382(16) 0.7451(17) 0.268(3)
O10_4 O 0.81825(10) 0.70667(5) 0.37499(9)
O14_4 O 0.77151(11) 0.82996(5) 0.34172(9)
Mn4 Mn 0.2500 0.314802(15) 0.0000
Mn1 Mn 0.7500 0.814802(15) 0.5000
Si1_4 Si 0.2500 0.54692(2) 0.5000
C1_3 C 0.36550(13) 0.59528(7) 0.51276(11)
C2_3 C 0.36874(15) 0.64734(8) 0.46059(13)
H3_3 H 0.3137 0.6566 0.4156
C3_3 C 0.45039(15) 0.68577(8) 0.47304(13)
H4_3 H 0.4505 0.7210 0.4369
C4_3 C 0.53190(13) 0.67325(7) 0.53782(12)
C5_3 C 0.53083(15) 0.62143(8) 0.58887(15)
H5_3 H 0.5866 0.6120 0.6330
C6_3 C 0.44902(15) 0.58326(8) 0.57605(14)
H6_3 H 0.4500 0.5478 0.6116
C7_3 C 0.61929(13) 0.71517(7) 0.55472(12)
O2_3 O 0.62479(10) 0.75715(5) 0.49561(9)
C8_3 C 0.25669(13) 0.49833(7) 0.39166(12)
C9_3 C 0.19364(14) 0.44893(7) 0.38367(13)
H7_3 H 0.1463 0.4415 0.4319
C10_3 C 0.19894(14) 0.41075(7) 0.30702(13)
H8_3 H 0.1556 0.3774 0.3030
C11_3 C 0.26775(14) 0.42112(7) 0.23582(12)
C12_3 C 0.32985(15) 0.47054(8) 0.24105(13)
H9_3 H 0.3758 0.4783 0.1918
C13_3 C 0.32427(15) 0.50863(7) 0.31891(13)
H10_3 H 0.3672 0.5422 0.3225
C14_3 C 0.27635(15) 0.37874(7) 0.15485(13)
O5_2 O 0.32594(12) 0.39101(6) 0.08307(9)
Mn4_2 Mn 0.2500 0.314802(15) 1.0000
C15_3 C 0.13450(13) 0.59528(7) 0.48724(11)
C16_3 C 0.13126(15) 0.64734(8) 0.53941(13)
H13_3 H 0.1863 0.6566 0.5844
C17_3 C 0.04961(15) 0.68577(8) 0.52696(13)
H14_3 H 0.0495 0.7210 0.5631
C20_3 C 0.05098(15) 0.58326(8) 0.42395(14)
H16_3 H 0.0500 0.5478 0.3884
O8 O 0.87521(10) 0.75715(5) 0.50439(9)
C22_3 C 0.24331(13) 0.49833(7) 0.60834(12)
C23_3 C 0.30636(14) 0.44893(7) 0.61633(13)
H17_3 H 0.3537 0.4415 0.5681
C24_3 C 0.30106(14) 0.41075(7) 0.69298(13)
H18_3 H 0.3444 0.3774 0.6970
C25_3 C 0.23225(14) 0.42112(7) 0.76418(12)
C26_3 C 0.17015(15) 0.47054(8) 0.75895(13)
H19_3 H 0.1242 0.4783 0.8082
C27_3 C 0.17573(15) 0.50863(7) 0.68109(13)
H20_3 H 0.1328 0.5422 0.6775
C28_3 C 0.22365(15) 0.37874(7) 0.84515(13)
O15_2 O 0.17406(12) 0.39101(6) 0.91693(9)
O16_2 O 0.82594(12) 0.89101(6) 0.58307(9)
O17_2 O 0.67406(12) 0.89101(6) 0.41693(9)
C18_3 C 0.96810(13) 0.67325(7) 0.46218(12)
C19_3 C 0.96917(15) 0.62143(8) 0.41113(15)
H15_3 H 0.9134 0.6120 0.3670
C21_3 C 0.88071(13) 0.71517(7) 0.44528(12)
C4_4 C 0.03190(13) 0.17325(7) 0.03782(12)
C5_4 C 0.03083(15) 0.12143(8) 0.08887(15)
H5_4 H 0.0866 0.1120 0.1330
C7_4 C 0.11929(13) 0.21517(7) 0.05472(12)
O8_2 O 0.37521(10) 0.25715(5) 0.00439(9)
O2_4 O 0.12479(10) 0.25715(5) 0.99561(9)
Si1_5 Si 0.7500 0.04692(2) -0.0000
C1_4 C 0.86550(13) 0.09528(7) 0.01276(11)
C6_4 C 0.94902(15) 0.08326(8) 0.07605(14)
H6_4 H 0.9500 0.0478 0.1116
C16_4 C 0.63126(15) 0.14734(8) 0.03941(13)
H13_4 H 0.6863 0.1566 0.0844
C17_4 C 0.54961(15) 0.18577(8) 0.02696(13)
H14_4 H 0.5495 0.2210 0.0631
C27_4 C 0.67573(15) 0.00863(7) 0.18109(13)
H20_4 H 0.6328 0.0422 0.1775
Si1_6 Si 0.7500 0.04692(2) 1.0000
C2_4 C 0.86874(15) 0.14734(8) 0.96059(13)
H3_4 H 0.8137 0.1566 0.9156
C3_4 C 0.95039(15) 0.18577(8) 0.97304(13)
H4_4 H 0.9505 0.2210 0.9369
C13_4 C 0.82427(15) 0.00863(7) 0.81891(13)
H10_4 H 0.8672 0.0422 0.8225
C15_4 C 0.63450(13) 0.09528(7) 0.98724(11)
C18_4 C 0.46810(13) 0.17325(7) 0.96218(12)
C19_4 C 0.46917(15) 0.12143(8) 0.91113(15)
H15_4 H 0.4134 0.1120 0.8670
C20_4 C 0.55098(15) 0.08326(8) 0.92395(14)
H16_4 H 0.5500 0.0478 0.8884
C21_4 C 0.38071(13) 0.21517(7) 0.94528(12)
C22_4 C 0.74331(13) 0.99833(7) 0.10834(12)
C23_4 C 0.80636(14) 0.94893(7) 0.11633(13)
H17_4 H 0.8537 0.9415 0.0681
C24_4 C 0.80106(14) 0.91075(7) 0.19298(13)
H18_4 H 0.8444 0.8774 0.1970
C25_4 C 0.73225(14) 0.92112(7) 0.26418(12)
C26_4 C 0.67015(15) 0.97054(8) 0.25895(13)
H19_4 H 0.6242 0.9783 0.3082
C28_4 C 0.72365(15) 0.87874(7) 0.34515(13)
C8_4 C 0.75669(13) 0.99833(7) 0.89166(12)
C9_4 C 0.69364(14) 0.94893(7) 0.88367(13)
H7_4 H 0.6463 0.9415 0.9319
C10_4 C 0.69894(14) 0.91075(7) 0.80702(13)
H8_4 H 0.6556 0.8774 0.8030
C11_4 C 0.76775(14) 0.92112(7) 0.73582(12)
C12_4 C 0.82985(15) 0.97054(8) 0.74105(13)
H9_4 H 0.8758 0.9783 0.6918
C14_4 C 0.77635(15) 0.87874(7) 0.65485(13)
loop_
_geom_bond_atom_site_label_1
_geom_bond_atom_site_label_2
_geom_bond_site_symmetry_1
_geom_bond_site_symmetry_2
Mn3 O7 1_555 1_555
Mn6 O9 1_555 1_555
C19 C18 1_555 1_555
H15 C19 1_555 1_555
C21 C18 1_555 1_555
O7 C21 1_555 1_555
O9 C21 1_555 1_555
Mn3 O2 1_555 1_555
Mn2 O1 1_555 1_555
O1 H1 1_555 1_555
H2 O1 1_555 1_555
Si1 C1 1_555 1_555
C1 C2 1_555 1_555
C2 H3 1_555 1_555
C3 C2 1_555 1_555
H4 C3 1_555 1_555
C4 C3 1_555 1_555
C5 C4 1_555 1_555
H5 C5 1_555 1_555
C6 C1 1_555 1_555
H6 C6 1_555 1_555
C7 C4 1_555 1_555
O2 C7 1_555 1_555
O3 Mn2 1_555 1_555
C8 Si1 1_555 1_555
C9 C8 1_555 1_555
H7 C9 1_555 1_555
C10 C9 1_555 1_555
H8 C10 1_555 1_555
C11 C10 1_555 1_555
C12 C11 1_555 1_555
H9 C12 1_555 1_555
C13 C8 1_555 1_555
H10 C13 1_555 1_555
C14 C11 1_555 1_555
O4 C14 1_555 1_555
O5 C14 1_555 1_555
Mn5 O11 1_555 1_555
Mn5_2 O4 1_555 1_555
Mn7 O4 1_555 1_555
Mn8 O11 1_555 1_555
O6 Mn2 1_555 1_555
H11 O6 1_555 1_555
H12 O6 1_555 1_555
C15 Si1 1_555 1_555
C16 C15 1_555 1_555
H13 C16 1_555 1_555
C17 C16 1_555 1_555
H14 C17 1_555 1_555
C20 C15 1_555 1_555
H16 C20 1_555 1_555
O10 Mn2 1_555 1_555
C22 Si1 1_555 1_555
C23 C22 1_555 1_555
H17 C23 1_555 1_555
C24 C23 1_555 1_555
H18 C24 1_555 1_555
C25 C24 1_555 1_555
C26 C25 1_555 1_555
H19 C26 1_555 1_555
C27 C22 1_555 1_555
H20 C27 1_555 1_555
C28 C25 1_555 1_555
O11 C28 1_555 1_555
O12 Mn3 1_555 1_555
O13 Mn3 1_555 1_555
O14 Mn2 1_555 1_555
O15 Mn5 1_555 1_555
O16 Mn3 1_555 1_555
O17 Mn3 1_555 1_555
Mn2 O12 1_555 1_555
C5 C6 1_555 1_555
C7 O3 1_555 1_555
C12 C13 1_555 1_555
O5 Mn5_2 1_555 1_555
C26 C27 1_555 1_555
C28 O15 1_555 1_555
Mn6 O1_2 1_555 1_555
O1_2 H1_2 1_555 1_555
H2_2 O1_2 1_555 1_555
O6_2 Mn6 1_555 1_555
H11_2 O6_2 1_555 1_555
H12_2 O6_2 1_555 1_555
O10_2 Mn6 1_555 1_555
O14_2 Mn6 1_555 1_555
Mn6 O13 1_555 1_555
C9_2 C8_2 1_555 1_555
H7_2 C9_2 1_555 1_555
C10_2 C9_2 1_555 1_555
H8_2 C10_2 1_555 1_555
C11_2 C10_2 1_555 1_555
C12_2 C11_2 1_555 1_555
H9_2 C12_2 1_555 1_555
C14_2 C11_2 1_555 1_555
O12 C14_2 1_555 1_555
O16 C14_2 1_555 1_555
C23_2 C22_2 1_555 1_555
H17_2 C23_2 1_555 1_555
C24_2 C23_2 1_555 1_555
H18_2 C24_2 1_555 1_555
C25_2 C24_2 1_555 1_555
C26_2 C25_2 1_555 1_555
H19_2 C26_2 1_555 1_555
C28_2 C25_2 1_555 1_555
O13 C28_2 1_555 1_555
C28_2 O17 1_555 1_555
C2_2 H3_2 1_555 1_555
C3_2 C2_2 1_555 1_555
H4_2 C3_2 1_555 1_555
H10_2 C13_2 1_555 1_555
Mn8 O9_2 1_555 1_555
C15_2 Si1_2 1_555 1_555
C19_2 C18_2 1_555 1_555
H15_2 C19_2 1_555 1_555
C20_2 C15_2 1_555 1_555
H16_2 C20_2 1_555 1_555
C21_2 C18_2 1_555 1_555
O9_2 C21_2 1_555 1_555
C19_2 C20_2 1_555 1_555
Si1_3 C1_2 1_555 1_555
C6_2 C1_2 1_555 1_555
H6_2 C6_2 1_555 1_555
Mn5_2 O7_2 1_555 1_555
H13_2 C16_2 1_555 1_555
C17_2 C16_2 1_555 1_555
H14_2 C17_2 1_555 1_555
H20_2 C27_2 1_555 1_555
Mn5 O2_2 1_555 1_555
Mn7 O1_3 1_555 1_555
O1_3 H1_3 1_555 1_555
H2_3 O1_3 1_555 1_555
C5_2 C4_2 1_555 1_555
H5_2 C5_2 1_555 1_555
C7_2 C4_2 1_555 1_555
O3_2 Mn7 1_555 1_555
O6_3 Mn7 1_555 1_555
H11_3 O6_3 1_555 1_555
H12_3 O6_3 1_555 1_555
O10_3 Mn7 1_555 1_555
O14_3 Mn7 1_555 1_555
C7_2 O3_2 1_555 1_555
Mn8 O1_4 1_555 1_555
O1_4 H1_4 1_555 1_555
H2_4 O1_4 1_555 1_555
O6_4 Mn8 1_555 1_555
H11_4 O6_4 1_555 1_555
H12_4 O6_4 1_555 1_555
O10_4 Mn8 1_555 1_555
O14_4 Mn8 1_555 1_555
Mn1 O2_3 1_555 1_555
Si1_4 C1_3 1_555 1_555
C1_3 C2_3 1_555 1_555
C2_3 H3_3 1_555 1_555
C3_3 C2_3 1_555 1_555
H4_3 C3_3 1_555 1_555
C4_3 C3_3 1_555 1_555
C5_3 C4_3 1_555 1_555
H5_3 C5_3 1_555 1_555
C6_3 C1_3 1_555 1_555
H6_3 C6_3 1_555 1_555
C7_3 C4_3 1_555 1_555
O2_3 C7_3 1_555 1_555
C8_3 Si1_4 1_555 1_555
C9_3 C8_3 1_555 1_555
H7_3 C9_3 1_555 1_555
C10_3 C9_3 1_555 1_555
H8_3 C10_3 1_555 1_555
C11_3 C10_3 1_555 1_555
C12_3 C11_3 1_555 1_555
H9_3 C12_3 1_555 1_555
C13_3 C8_3 1_555 1_555
H10_3 C13_3 1_555 1_555
C14_3 C11_3 1_555 1_555
O14 C14_3 1_555 1_555
O5_2 C14_3 1_555 1_555
Mn4_2 O14_2 1_555 1_555
Mn4 O14 1_555 1_555
C15_3 Si1_4 1_555 1_555
C16_3 C15_3 1_555 1_555
H13_3 C16_3 1_555 1_555
C17_3 C16_3 1_555 1_555
H14_3 C17_3 1_555 1_555
C20_3 C15_3 1_555 1_555
H16_3 C20_3 1_555 1_555
O8 Mn1 1_555 1_555
C22_3 Si1_4 1_555 1_555
C23_3 C22_3 1_555 1_555
H17_3 C23_3 1_555 1_555
C24_3 C23_3 1_555 1_555
H18_3 C24_3 1_555 1_555
C25_3 C24_3 1_555 1_555
C26_3 C25_3 1_555 1_555
H19_3 C26_3 1_555 1_555
C27_3 C22_3 1_555 1_555
H20_3 C27_3 1_555 1_555
C28_3 C25_3 1_555 1_555
O14_2 C28_3 1_555 1_555
O14_3 Mn1 1_555 1_555
O14_4 Mn1 1_555 1_555
O15_2 Mn4_2 1_555 1_555
O16_2 Mn1 1_555 1_555
O17_2 Mn1 1_555 1_555
C5_3 C6_3 1_555 1_555
C7_3 O10_3 1_555 1_555
C12_3 C13_3 1_555 1_555
O5_2 Mn4 1_555 1_555
C26_3 C27_3 1_555 1_555
C28_3 O15_2 1_555 1_555
C19_3 C18_3 1_555 1_555
H15_3 C19_3 1_555 1_555
C21_3 C18_3 1_555 1_555
O8 C21_3 1_555 1_555
O10_4 C21_3 1_555 1_555
C5_4 C4_4 1_555 1_555
H5_4 C5_4 1_555 1_555
C7_4 C4_4 1_555 1_555
O8_2 Mn4 1_555 1_555
C7_4 O10 1_555 1_555
Mn4_2 O2_4 1_555 1_555
Si1_5 C1_4 1_555 1_555
C6_4 C1_4 1_555 1_555
H6_4 C6_4 1_555 1_555
H13_4 C16_4 1_555 1_555
C17_4 C16_4 1_555 1_555
H14_4 C17_4 1_555 1_555
H20_4 C27_4 1_555 1_555
C2_4 H3_4 1_555 1_555
C3_4 C2_4 1_555 1_555
H4_4 C3_4 1_555 1_555
H10_4 C13_4 1_555 1_555
C15_4 Si1_6 1_555 1_555
C19_4 C18_4 1_555 1_555
H15_4 C19_4 1_555 1_555
C20_4 C15_4 1_555 1_555
H16_4 C20_4 1_555 1_555
C21_4 C18_4 1_555 1_555
O10_2 C21_4 1_555 1_555
C19_4 C20_4 1_555 1_555
C23_4 C22_4 1_555 1_555
H17_4 C23_4 1_555 1_555
C24_4 C23_4 1_555 1_555
H18_4 C24_4 1_555 1_555
C25_4 C24_4 1_555 1_555
C26_4 C25_4 1_555 1_555
H19_4 C26_4 1_555 1_555
C28_4 C25_4 1_555 1_555
O14_4 C28_4 1_555 1_555
C28_4 O17_2 1_555 1_555
C9_4 C8_4 1_555 1_555
H7_4 C9_4 1_555 1_555
C10_4 C9_4 1_555 1_555
H8_4 C10_4 1_555 1_555
C11_4 C10_4 1_555 1_555
C12_4 C11_4 1_555 1_555
H9_4 C12_4 1_555 1_555
C14_4 C11_4 1_555 1_555
O14_3 C14_4 1_555 1_555
O16_2 C14_4 1_555 1_555

#END
