
###############################################################################
#
# This file contains modified crystal structure data generated from the
# MOF subset of the Cambridge Structural Database (CSD) v543 
# hosted by the Cambridge Crystallographic Data Centre (CCDC).
#
# This work is licensed under the Creative Commons
# Attribution-NonCommercial-ShareAlike 4.0 International License.
# To view a copy of this license, visit
# http://creativecommons.org/licenses/by-nc-sa/4.0/
# or send a letter to
# Creative Commons, PO Box 1866, Mountain View, CA 94042, USA.
#
# CIF created using the CSD Python API on 29 September 2022
# The structure has been converted into the P1 space group
# The structure has a 3D framework
# The original CSD entry ENITAX is in the tetragonal crystal system
# The framework has been calculated to contain at least 10.0% void space
# The void calculation uses a probe of radius 1.32A, grid spacing 0.4
# H atom positions have been added when not included in the experimental data
# Generated hydrogen atom positions removed from atoms on special positions
#
###############################################################################

data_ENITAX
_chemical_formula_moiety         '(C80 H80 Cu6 O22 Si8)n'
_symmetry_cell_setting           triclinic
_symmetry_space_group_name_H-M   'P 1'
_symmetry_Int_Tables_number      1
_space_group_name_Hall           'P 1'
loop_
_symmetry_equiv_pos_site_id
_symmetry_equiv_pos_as_xyz
1 x,y,z
_cell_length_a                   12.3710(12)
_cell_length_b                   12.3710(12)
_cell_length_c                   24.0689(10)
_cell_angle_alpha                90
_cell_angle_beta                 90
_cell_angle_gamma                90
_cell_volume                     3683.54
loop_
_atom_site_label
_atom_site_type_symbol
_atom_site_fract_x
_atom_site_fract_y
_atom_site_fract_z
Cu1 Cu 0.1074(2) 0.5000 0.0000
Si1 Si 0.0000 0.0000 0.2500
C1 C 0.0000 0.1174(7) 0.2023(3)
C2 C 0.0956(9) 0.1568(8) 0.1817(3)
H1 H 0.1626 0.1300 0.1951
C3 C 0.0932(8) 0.2371(8) 0.1405(3)
H2 H 0.1594 0.2665 0.1273
C4 C 0.0000 0.2732(8) 0.1194(3)
C5 C 0.0000 0.3581(7) 0.0732(3)
O1 O 0.0908(4) 0.3878(5) 0.05683(18)
O2 O 0.2954(12) 0.5000 0.0000
Cu5 Cu 0.5000 0.1074(2) 0.5000
C7 C 0.1174(7) 0.0000 0.2977(3)
C12 C 0.1568(8) 0.0956(9) 0.3183(3)
H6 H 0.1300 0.1626 0.3049
C19 C 0.2371(8) 0.0932(8) 0.3595(3)
H13 H 0.2665 0.1594 0.3727
C24 C 0.2732(8) 0.0000 0.3806(3)
C27 C 0.3581(7) 0.0000 0.4268(3)
O6 O 0.3878(5) 0.0908(4) 0.44317(18)
O12 O 0.0908(4) 0.6122(5) 0.05683(18)
Cu1_2 Cu 0.1074(2) 0.5000 1.0000
O2_2 O 0.2954(12) 0.5000 1.0000
O10 O 0.0908(4) 0.6122(5) 0.94317(18)
O11 O 0.0908(4) 0.3878(5) 0.94317(18)
Si1_2 Si 0.0000 1.0000 0.2500
Cu6 Cu 0.5000 0.8926(2) 0.5000
C6 C 0.0000 0.8826(7) 0.2023(3)
C7_2 C 0.1174(7) 1.0000 0.2977(3)
C11 C 0.0956(9) 0.8432(8) 0.1817(3)
C13 C 0.1568(8) 0.9044(9) 0.3183(3)
H5 H 0.1626 0.8700 0.1951
H7 H 0.1300 0.8374 0.3049
C18 C 0.0932(8) 0.7629(8) 0.1405(3)
C20 C 0.2371(8) 0.9068(8) 0.3595(3)
H12 H 0.1594 0.7335 0.1273
H14 H 0.2665 0.8406 0.3727
C23 C 0.0000 0.7268(8) 0.1194(3)
C24_2 C 0.2732(8) 1.0000 0.3806(3)
C26 C 0.0000 0.6419(7) 0.0732(3)
C27_2 C 0.3581(7) 1.0000 0.4268(3)
O7 O 0.3878(5) 0.9092(4) 0.44317(18)
Si1_3 Si 1.0000 0.0000 0.2500
C1_2 C 1.0000 0.1174(7) 0.2023(3)
C4_2 C 1.0000 0.2732(8) 0.1194(3)
C5_2 C 1.0000 0.3581(7) 0.0732(3)
Cu2 Cu 0.8926(2) 0.5000 0.0000
C8 C 0.8826(7) 0.0000 0.2977(3)
C9 C 0.9044(9) 0.1568(8) 0.1817(3)
C15 C 0.8432(8) 0.0956(9) 0.3183(3)
H3 H 0.8374 0.1300 0.1951
H9 H 0.8700 0.1626 0.3049
C16 C 0.9068(8) 0.2371(8) 0.1405(3)
C22 C 0.7629(8) 0.0932(8) 0.3595(3)
H10 H 0.8406 0.2665 0.1273
H16 H 0.7335 0.1594 0.3727
C25 C 0.7268(8) 0.0000 0.3806(3)
C28 C 0.6419(7) 0.0000 0.4268(3)
O3 O 0.9092(4) 0.3878(5) 0.05683(18)
O9 O 0.6122(5) 0.0908(4) 0.44317(18)
O15 O 0.9092(4) 0.6122(5) 0.05683(18)
O16 O 0.7046(12) 0.5000 0.0000
Cu2_2 Cu 0.8926(2) 0.5000 1.0000
O13 O 0.9092(4) 0.6122(5) 0.94317(18)
O14 O 0.9092(4) 0.3878(5) 0.94317(18)
O16_2 O 0.7046(12) 0.5000 1.0000
Si1_4 Si 1.0000 1.0000 0.2500
C6_2 C 1.0000 0.8826(7) 0.2023(3)
C8_2 C 0.8826(7) 1.0000 0.2977(3)
C10 C 0.9044(9) 0.8432(8) 0.1817(3)
C14 C 0.8432(8) 0.9044(9) 0.3183(3)
H4 H 0.8374 0.8700 0.1951
H8 H 0.8700 0.8374 0.3049
C17 C 0.9068(8) 0.7629(8) 0.1405(3)
C21 C 0.7629(8) 0.9068(8) 0.3595(3)
H11 H 0.8406 0.7335 0.1273
H15 H 0.7335 0.8406 0.3727
C23_2 C 1.0000 0.7268(8) 0.1194(3)
C25_2 C 0.7268(8) 1.0000 0.3806(3)
C26_2 C 1.0000 0.6419(7) 0.0732(3)
C28_2 C 0.6419(7) 1.0000 0.4268(3)
O8 O 0.6122(5) 0.9092(4) 0.44317(18)
Si1_5 Si 0.0000 0.0000 0.7500
C6_3 C 0.1174(7) 0.0000 0.7023(3)
C7_3 C 0.0000 0.1174(7) 0.7977(3)
C11_2 C 0.1568(8) 0.0956(9) 0.6817(3)
C13_2 C 0.0956(9) 0.1568(8) 0.8183(3)
H5_2 H 0.1300 0.1626 0.6951
H7_2 H 0.1626 0.1300 0.8049
C18_2 C 0.2371(8) 0.0932(8) 0.6405(3)
C20_2 C 0.0932(8) 0.2371(8) 0.8595(3)
H12_2 H 0.2665 0.1594 0.6273
H14_2 H 0.1594 0.2665 0.8727
C23_3 C 0.2732(8) 0.0000 0.6194(3)
C24_3 C 0.0000 0.2732(8) 0.8806(3)
C26_3 C 0.3581(7) 0.0000 0.5732(3)
C27_3 C 0.0000 0.3581(7) 0.9268(3)
O5 O 0.3878(5) 0.0908(4) 0.55683(18)
Si1_6 Si 0.0000 1.0000 0.7500
C6_4 C 0.1174(7) 1.0000 0.7023(3)
C8_3 C 0.0000 0.8826(7) 0.7977(3)
C10_2 C 0.1568(8) 0.9044(9) 0.6817(3)
C14_2 C 0.0956(9) 0.8432(8) 0.8183(3)
H4_2 H 0.1300 0.8374 0.6951
H8_2 H 0.1626 0.8700 0.8049
C17_2 C 0.2371(8) 0.9068(8) 0.6405(3)
C21_2 C 0.0932(8) 0.7629(8) 0.8595(3)
H11_2 H 0.2665 0.8406 0.6273
H15_2 H 0.1594 0.7335 0.8727
C23_4 C 0.2732(8) 1.0000 0.6194(3)
C25_3 C 0.0000 0.7268(8) 0.8806(3)
C26_4 C 0.3581(7) 1.0000 0.5732(3)
C28_3 C -0.0000 0.6419(7) 0.9268(3)
O4 O 0.3878(5) 0.9092(4) 0.55683(18)
Si1_7 Si 1.0000 0.0000 0.7500
C1_3 C 0.8826(7) 0.0000 0.7023(3)
C2_2 C 0.8432(8) 0.0956(9) 0.6817(3)
H1_2 H 0.8700 0.1626 0.6951
C3_2 C 0.7629(8) 0.0932(8) 0.6405(3)
H2_2 H 0.7335 0.1594 0.6273
C4_3 C 0.7268(8) 0.0000 0.6194(3)
C5_3 C 0.6419(7) 0.0000 0.5732(3)
O1_2 O 0.6122(5) 0.0908(4) 0.55683(18)
O2_3 O 0.5000 0.2954(12) 0.5000
C7_4 C 1.0000 0.1174(7) 0.7977(3)
C12_2 C 0.9044(9) 0.1568(8) 0.8183(3)
H6_2 H 0.8374 0.1300 0.8049
C19_2 C 0.9068(8) 0.2371(8) 0.8595(3)
H13_2 H 0.8406 0.2665 0.8727
C24_4 C 1.0000 0.2732(8) 0.8806(3)
C27_4 C 1.0000 0.3581(7) 0.9268(3)
Si1_8 Si 1.0000 1.0000 0.7500
C1_4 C 0.8826(7) 1.0000 0.7023(3)
C4_4 C 0.7268(8) 1.0000 0.6194(3)
C5_4 C 0.6419(7) 1.0000 0.5732(3)
C8_4 C 1.0000 0.8826(7) 0.7977(3)
C9_2 C 0.8432(8) 0.9044(9) 0.6817(3)
C15_2 C 0.9044(9) 0.8432(8) 0.8183(3)
H3_2 H 0.8700 0.8374 0.6951
H9_2 H 0.8374 0.8700 0.8049
C16_2 C 0.7629(8) 0.9068(8) 0.6405(3)
C22_2 C 0.9068(8) 0.7629(8) 0.8595(3)
H10_2 H 0.7335 0.8406 0.6273
H16_2 H 0.8406 0.7335 0.8727
C25_4 C 1.0000 0.7268(8) 0.8806(3)
C28_4 C 1.0000 0.6419(7) 0.9268(3)
O3_2 O 0.6122(5) 0.9092(4) 0.55683(18)
O16_3 O 0.5000 0.7046(12) 0.5000
loop_
_geom_bond_atom_site_label_1
_geom_bond_atom_site_label_2
_geom_bond_site_symmetry_1
_geom_bond_site_symmetry_2
Cu1 O1 1_555 1_555
Si1 C1 1_555 1_555
C1 C2 1_555 1_555
C2 H1 1_555 1_555
C3 C2 1_555 1_555
H2 C3 1_555 1_555
C4 C3 1_555 1_555
C5 C4 1_555 1_555
O1 C5 1_555 1_555
O2 Cu1 1_555 1_555
Cu5 O6 1_555 1_555
C7 Si1 1_555 1_555
C12 C7 1_555 1_555
H6 C12 1_555 1_555
C19 C12 1_555 1_555
H13 C19 1_555 1_555
C24 C19 1_555 1_555
C27 C24 1_555 1_555
O6 C27 1_555 1_555
O12 Cu1 1_555 1_555
O2_2 Cu1_2 1_555 1_555
O10 Cu1_2 1_555 1_555
O11 Cu1_2 1_555 1_555
Cu6 O7 1_555 1_555
C6 Si1_2 1_555 1_555
C7_2 Si1_2 1_555 1_555
C11 C6 1_555 1_555
C13 C7_2 1_555 1_555
H5 C11 1_555 1_555
H7 C13 1_555 1_555
C18 C11 1_555 1_555
C20 C13 1_555 1_555
H12 C18 1_555 1_555
H14 C20 1_555 1_555
C26 C23 1_555 1_555
C27_2 C24_2 1_555 1_555
O12 C26 1_555 1_555
O7 C27_2 1_555 1_555
C18 C23 1_555 1_555
C20 C24_2 1_555 1_555
Si1_3 C1_2 1_555 1_555
C5_2 C4_2 1_555 1_555
Cu2 O3 1_555 1_555
Cu5 O9 1_555 1_555
C8 Si1_3 1_555 1_555
C9 C1_2 1_555 1_555
C15 C8 1_555 1_555
H3 C9 1_555 1_555
H9 C15 1_555 1_555
C16 C4_2 1_555 1_555
C22 C15 1_555 1_555
H10 C16 1_555 1_555
H16 C22 1_555 1_555
C28 C25 1_555 1_555
O3 C5_2 1_555 1_555
O9 C28 1_555 1_555
O15 Cu2 1_555 1_555
O16 Cu2 1_555 1_555
C9 C16 1_555 1_555
C22 C25 1_555 1_555
O13 Cu2_2 1_555 1_555
O14 Cu2_2 1_555 1_555
O16_2 Cu2_2 1_555 1_555
Cu6 O8 1_555 1_555
C6_2 Si1_4 1_555 1_555
C8_2 Si1_4 1_555 1_555
C10 C6_2 1_555 1_555
C14 C8_2 1_555 1_555
H4 C10 1_555 1_555
H8 C14 1_555 1_555
C17 C10 1_555 1_555
C21 C14 1_555 1_555
H11 C17 1_555 1_555
H15 C21 1_555 1_555
C23_2 C17 1_555 1_555
C25_2 C21 1_555 1_555
C26_2 C23_2 1_555 1_555
C28_2 C25_2 1_555 1_555
O15 C26_2 1_555 1_555
O8 C28_2 1_555 1_555
Cu5 O5 1_555 1_555
C6_3 Si1_5 1_555 1_555
C7_3 Si1_5 1_555 1_555
C11_2 C6_3 1_555 1_555
C13_2 C7_3 1_555 1_555
H5_2 C11_2 1_555 1_555
H7_2 C13_2 1_555 1_555
C18_2 C11_2 1_555 1_555
C20_2 C13_2 1_555 1_555
H12_2 C18_2 1_555 1_555
H14_2 C20_2 1_555 1_555
C26_3 C23_3 1_555 1_555
C27_3 C24_3 1_555 1_555
O5 C26_3 1_555 1_555
O11 C27_3 1_555 1_555
C18_2 C23_3 1_555 1_555
C20_2 C24_3 1_555 1_555
Cu6 O4 1_555 1_555
C6_4 Si1_6 1_555 1_555
C8_3 Si1_6 1_555 1_555
C10_2 C6_4 1_555 1_555
C14_2 C8_3 1_555 1_555
H4_2 C10_2 1_555 1_555
H8_2 C14_2 1_555 1_555
C17_2 C10_2 1_555 1_555
C21_2 C14_2 1_555 1_555
H11_2 C17_2 1_555 1_555
H15_2 C21_2 1_555 1_555
C23_4 C17_2 1_555 1_555
C25_3 C21_2 1_555 1_555
C26_4 C23_4 1_555 1_555
C28_3 C25_3 1_555 1_555
O4 C26_4 1_555 1_555
O10 C28_3 1_555 1_555
Cu5 O1_2 1_555 1_555
Si1_7 C1_3 1_555 1_555
C1_3 C2_2 1_555 1_555
C2_2 H1_2 1_555 1_555
C3_2 C2_2 1_555 1_555
H2_2 C3_2 1_555 1_555
C4_3 C3_2 1_555 1_555
C5_3 C4_3 1_555 1_555
O1_2 C5_3 1_555 1_555
O2_3 Cu5 1_555 1_555
C7_4 Si1_7 1_555 1_555
C12_2 C7_4 1_555 1_555
H6_2 C12_2 1_555 1_555
C19_2 C12_2 1_555 1_555
H13_2 C19_2 1_555 1_555
C24_4 C19_2 1_555 1_555
C27_4 C24_4 1_555 1_555
O14 C27_4 1_555 1_555
Si1_8 C1_4 1_555 1_555
C5_4 C4_4 1_555 1_555
Cu6 O3_2 1_555 1_555
C8_4 Si1_8 1_555 1_555
C9_2 C1_4 1_555 1_555
C15_2 C8_4 1_555 1_555
H3_2 C9_2 1_555 1_555
H9_2 C15_2 1_555 1_555
C16_2 C4_4 1_555 1_555
C22_2 C15_2 1_555 1_555
H10_2 C16_2 1_555 1_555
H16_2 C22_2 1_555 1_555
C28_4 C25_4 1_555 1_555
O3_2 C5_4 1_555 1_555
O13 C28_4 1_555 1_555
O16_3 Cu6 1_555 1_555
C9_2 C16_2 1_555 1_555
C22_2 C25_4 1_555 1_555

#END
