
###############################################################################
#
# This file contains modified crystal structure data generated from the
# MOF subset of the Cambridge Structural Database (CSD) v543 
# hosted by the Cambridge Crystallographic Data Centre (CCDC).
#
# This work is licensed under the Creative Commons
# Attribution-NonCommercial-ShareAlike 4.0 International License.
# To view a copy of this license, visit
# http://creativecommons.org/licenses/by-nc-sa/4.0/
# or send a letter to
# Creative Commons, PO Box 1866, Mountain View, CA 94042, USA.
#
# CIF created using the CSD Python API on 29 September 2022
# The structure has been converted into the P1 space group
# The structure has a 3D framework
# The original CSD entry ENIXUV is in the monoclinic crystal system
# The framework has been calculated to contain at least 10.0% void space
# The void calculation uses a probe of radius 1.32A, grid spacing 0.4
#
###############################################################################

data_ENIXUV
_chemical_formula_moiety         '(C480 H288 Cl40 Mn46 N96)n'
_symmetry_cell_setting           triclinic
_symmetry_space_group_name_H-M   'P 1'
_symmetry_Int_Tables_number      1
_space_group_name_Hall           'P 1'
loop_
_symmetry_equiv_pos_site_id
_symmetry_equiv_pos_as_xyz
1 x,y,z
_cell_length_a                   22.7200(3)
_cell_length_b                   26.4710(4)
_cell_length_c                   26.6820(6)
_cell_angle_alpha                90
_cell_angle_beta                 90.0500(16)
_cell_angle_gamma                90
_cell_volume                     16047.1
loop_
_atom_site_label
_atom_site_type_symbol
_atom_site_fract_x
_atom_site_fract_y
_atom_site_fract_z
Mn1 Mn 0.5000 0.0000 0.5000
C1 C 0.46138(18) 0.07112(14) 0.58466(15)
C2 C 0.48424(19) 0.11062(15) 0.61594(17)
H1 H 0.4628 0.1293 0.6402
C3 C 0.54143(19) 0.11651(15) 0.60474(16)
H2 H 0.5681 0.1394 0.6201
C9 C 0.38479(17) 0.01028(14) 0.55974(16)
C10 C 0.40451(18) 0.05190(14) 0.58814(14)
C11 C 0.36054(17) 0.07711(15) 0.62108(15)
C12 C 0.33452(18) 0.05171(16) 0.66113(16)
H5 H 0.3473 0.0183 0.6684
N3 N 0.29244(15) 0.07190(13) 0.68992(13)
C13 C 0.2751(2) 0.11948(16) 0.67956(17)
H6 H 0.2451 0.1342 0.6995
C14 C 0.2990(2) 0.14754(16) 0.64151(16)
H7 H 0.2862 0.1812 0.6359
C15 C 0.34179(19) 0.12641(15) 0.61147(16)
H8 H 0.3583 0.1452 0.5846
Mn2 Mn 0.0000 0.0000 0.5000
C21 C 0.05270(18) 0.06737(14) 0.41805(16)
C22 C 0.0384(2) 0.10986(16) 0.38739(17)
H13 H 0.0636 0.1257 0.3638
C30 C 0.10561(18) 0.04047(15) 0.41568(16)
N5 N 0.00550(14) 0.05593(11) 0.44852(12)
C36 C 0.15278(17) 0.05814(15) 0.38153(16)
C37 C 0.17016(19) 0.02589(16) 0.34175(16)
N8 N 0.21526(16) 0.03672(13) 0.31164(14)
C38 C 0.2439(2) 0.08048(18) 0.31979(19)
H22 H 0.2769 0.0880 0.2993
C39 C 0.2283(2) 0.11498(17) 0.35601(18)
H23 H 0.2489 0.1461 0.3591
C40 C 0.18217(19) 0.10354(16) 0.38774(17)
H24 H 0.1708 0.1264 0.4134
Mn3 Mn 0.2500 0.2500 0.5000
Cl1 Cl 0.18758(5) 0.23682(4) 0.42100(5)
C41 C 0.35128(18) 0.29615(15) 0.44013(15)
C42 C 0.40297(19) 0.28225(15) 0.41173(17)
H25 H 0.4296 0.3046 0.3956
C43 C 0.40619(19) 0.23127(15) 0.41255(17)
H26 H 0.4358 0.2112 0.3972
C44 C 0.35675(17) 0.21282(14) 0.44069(15)
C45 C 0.34539(17) 0.16179(14) 0.45079(14)
C46 C 0.29848(17) 0.14436(14) 0.47944(15)
C47 C 0.28448(18) 0.09127(15) 0.48751(15)
H27 H 0.3061 0.0632 0.4752
C48 C 0.23525(18) 0.08937(14) 0.51559(16)
H28 H 0.2160 0.0597 0.5271
C49 C 0.21707(18) 0.14107(14) 0.52489(15)
C50 C 0.16655(18) 0.15466(14) 0.55202(15)
N9 N 0.32313(14) 0.25306(11) 0.45758(12)
N10 N 0.25652(13) 0.17363(11) 0.50274(11)
C51 C 0.38691(17) 0.12373(14) 0.42870(16)
C52 C 0.42199(17) 0.09384(14) 0.45983(15)
H29 H 0.4206 0.0997 0.4949
N11 N 0.45785(14) 0.05701(12) 0.44266(13)
C53 C 0.45998(18) 0.05042(15) 0.39362(16)
H30 H 0.4852 0.0248 0.3810
C54 C 0.42796(19) 0.07836(17) 0.35974(17)
H31 H 0.4316 0.0723 0.3248
C55 C 0.39039(19) 0.11537(15) 0.37737(16)
H32 H 0.3673 0.1348 0.3548
C56 C 0.12994(17) 0.11257(14) 0.57304(16)
C57 C 0.08766(18) 0.08897(15) 0.54305(16)
H33 H 0.0828 0.1005 0.5096
N12 N 0.05337(14) 0.05061(12) 0.55908(13)
C58 C 0.0595(2) 0.03595(16) 0.60614(17)
H34 H 0.0354 0.0092 0.6180
C59 C 0.0993(2) 0.05757(19) 0.6389(2)
H35 H 0.1022 0.0461 0.6726
C60 C 0.1350(2) 0.09615(18) 0.62176(18)
H36 H 0.1629 0.1113 0.6436
Mn4 Mn 0.25040(3) 0.01880(3) 0.75047(3)
Cl2 Cl 0.34301(5) 0.00877(4) 0.79195(5)
Cl3 Cl 0.17799(5) 0.08210(4) 0.76927(4)
Mn6 Mn 0.0000 0.5000 0.5000
C64 C 0.55457(17) 0.08186(14) 0.56533(15)
C65 C 0.60992(18) 0.07840(15) 0.54090(15)
C66 C 0.62102(17) 0.04818(14) 0.49927(16)
C67 C 0.67674(18) 0.04577(16) 0.47410(17)
H39 H 0.7103 0.0659 0.4814
C68 C 0.67322(18) 0.01041(15) 0.43877(16)
H40 H 0.7038 0.0007 0.4165
N13 N 0.50535(14) 0.05423(12) 0.55316(12)
N14 N 0.58249(14) 0.01447(12) 0.47726(12)
C76 C 0.65891(18) 0.10927(14) 0.56070(15)
C77 C 0.67849(17) 0.15154(15) 0.53464(16)
H45 H 0.6589 0.1604 0.5044
N17 N 0.72342(15) 0.18046(12) 0.54982(13)
C78 C 0.75030(19) 0.16797(15) 0.59244(17)
H46 H 0.7823 0.1882 0.6035
C79 C 0.7339(2) 0.12732(17) 0.62119(16)
H47 H 0.7542 0.1197 0.6514
C80 C 0.68700(18) 0.09742(15) 0.60526(16)
H48 H 0.6745 0.0693 0.6247
Mn7 Mn 0.5000 0.5000 0.5000
Cl6 Cl 0.31242(5) 0.26318(4) 0.57900(5)
C101 C 0.14872(18) 0.20385(15) 0.55987(15)
C102 C 0.09703(19) 0.21775(15) 0.58827(17)
H61 H 0.0704 0.1954 0.6044
C103 C 0.09381(19) 0.26873(15) 0.58745(17)
H62 H 0.0642 0.2888 0.6028
C104 C 0.14325(17) 0.28718(14) 0.55931(15)
C105 C 0.15461(17) 0.33821(14) 0.54921(14)
C106 C 0.20152(17) 0.35564(14) 0.52056(15)
C107 C 0.21552(18) 0.40873(15) 0.51249(15)
H63 H 0.1939 0.4368 0.5248
C108 C 0.26475(18) 0.41063(14) 0.48441(16)
H64 H 0.2840 0.4403 0.4729
C109 C 0.28293(18) 0.35893(14) 0.47511(15)
C110 C 0.33345(18) 0.34534(14) 0.44798(15)
N26 N 0.17687(14) 0.24694(11) 0.54242(12)
N27 N 0.24348(13) 0.32637(11) 0.49726(11)
C111 C 0.11309(17) 0.37627(14) 0.57130(16)
C112 C 0.07801(17) 0.40616(14) 0.54017(15)
H65 H 0.0794 0.4003 0.5051
N28 N 0.04215(14) 0.44299(12) 0.55734(13)
C113 C 0.04002(18) 0.44958(15) 0.60638(16)
H66 H 0.0148 0.4752 0.6190
C114 C 0.07204(19) 0.42164(17) 0.64026(17)
H67 H 0.0684 0.4277 0.6752
C115 C 0.10961(19) 0.38463(15) 0.62263(16)
H68 H 0.1327 0.3652 0.6452
C116 C 0.37006(17) 0.38743(14) 0.42696(16)
C117 C 0.41234(18) 0.41103(15) 0.45695(16)
H69 H 0.4172 0.3995 0.4904
N30 N 0.44663(14) 0.44939(12) 0.44092(13)
C118 C 0.4405(2) 0.46405(16) 0.39386(17)
H70 H 0.4646 0.4908 0.3820
C119 C 0.4007(2) 0.44243(19) 0.3611(2)
H71 H 0.3978 0.4539 0.3274
C120 C 0.3650(2) 0.40385(18) 0.37824(18)
H72 H 0.3371 0.3887 0.3564
Mn11 Mn 0.7500 0.2500 0.5000
Mn1_2 Mn 0.5000 1.0000 0.5000
C4 C 0.44543(17) 0.91814(14) 0.43467(15)
C5 C 0.39008(18) 0.92160(15) 0.45910(15)
C6 C 0.37898(17) 0.95182(14) 0.50073(16)
C7 C 0.32326(18) 0.95423(16) 0.52590(17)
H3 H 0.2897 0.9341 0.5186
C8 C 0.32678(18) 0.98959(15) 0.56123(16)
H4 H 0.2962 0.9993 0.5835
N1 N 0.49465(14) 0.94577(12) 0.44684(12)
N2 N 0.41751(14) 0.98553(12) 0.52274(12)
C16 C 0.34109(18) 0.89073(14) 0.43930(15)
C17 C 0.32151(17) 0.84846(15) 0.46536(16)
H9 H 0.3411 0.8396 0.4956
N4 N 0.27658(15) 0.81954(12) 0.45018(13)
C18 C 0.24970(19) 0.83203(15) 0.40756(17)
H10 H 0.2177 0.8118 0.3965
C19 C 0.2661(2) 0.87268(17) 0.37881(16)
H11 H 0.2458 0.8803 0.3486
C20 C 0.31300(18) 0.90258(15) 0.39474(16)
H12 H 0.3255 0.9307 0.3753
Mn2_2 Mn 0.0000 1.0000 0.5000
C27 C 0.17098(18) 0.93683(16) 0.48169(16)
H15 H 0.2016 0.9142 0.4908
C28 C 0.17383(19) 0.97305(16) 0.44629(17)
H16 H 0.2069 0.9805 0.4258
C29 C 0.11838(18) 0.99815(15) 0.44499(16)
H21 H 0.1489 0.9955 0.3364
Cl4 Cl 0.23213(7) 0.96003(5) 0.68525(5)
C61 C 0.53862(18) 0.92888(14) 0.41534(15)
C62 C 0.51576(19) 0.88938(15) 0.38406(17)
H37 H 0.5372 0.8707 0.3598
C63 C 0.45857(19) 0.88349(15) 0.39526(16)
H38 H 0.4319 0.8606 0.3799
C69 C 0.61521(17) 0.98972(14) 0.44026(16)
C70 C 0.59549(18) 0.94810(14) 0.41186(14)
C71 C 0.63946(17) 0.92289(15) 0.37892(15)
C72 C 0.66548(18) 0.94829(16) 0.33887(16)
H41 H 0.6527 0.9817 0.3316
N15 N 0.70756(15) 0.92810(13) 0.31008(13)
C73 C 0.7249(2) 0.88052(16) 0.32044(17)
H42 H 0.7549 0.8658 0.3005
C74 C 0.7010(2) 0.85246(16) 0.35849(16)
H43 H 0.7138 0.8188 0.3641
C75 C 0.65821(19) 0.87359(15) 0.38853(16)
H44 H 0.6417 0.8548 0.4154
C83 C 0.01732(19) 0.87663(16) 0.60205(16)
H50 H 0.0387 0.8497 0.6170
C84 C 0.03845(18) 0.91031(14) 0.56414(16)
C85 C 0.09463(18) 0.90837(14) 0.54291(16)
C86 C 0.11268(18) 0.93894(15) 0.50317(16)
N21 N 0.08039(14) 0.97589(12) 0.47978(12)
C91 C 0.13814(17) 0.87321(15) 0.56444(16)
C92 C 0.16329(18) 0.83483(15) 0.53605(17)
H53 H 0.1491 0.8298 0.5029
N22 N 0.20618(15) 0.80458(12) 0.55244(14)
C93 C 0.2255(2) 0.81191(17) 0.59949(18)
H54 H 0.2563 0.7910 0.6117
C94 C 0.2031(2) 0.84790(17) 0.63063(19)
H55 H 0.2180 0.8517 0.6637
C95 C 0.1579(2) 0.87919(17) 0.61335(18)
H56 H 0.1411 0.9041 0.6346
N25 N 0.21526(16) 0.96328(13) 0.81164(14)
N29 N 0.54215(14) 0.94299(12) 0.55734(13)
Mn9 Mn 0.74960(3) 0.98120(3) 0.24953(3)
Mn10 Mn 0.25040(3) 0.98120(3) 0.25047(3)
Mn12 Mn 0.2500 0.7500 0.5000
Mn2_3 Mn 1.0000 0.0000 0.5000
C23 C 0.98268(19) 0.12337(16) 0.39795(16)
H14 H 0.9613 0.1503 0.3830
C24 C 0.96155(18) 0.08969(14) 0.43586(16)
C25 C 0.90537(18) 0.09163(14) 0.45709(16)
C26 C 0.88732(18) 0.06106(15) 0.49683(16)
N6 N 0.91961(14) 0.02411(12) 0.52022(12)
C31 C 0.86186(17) 0.12679(15) 0.43556(16)
C32 C 0.83671(18) 0.16517(15) 0.46395(17)
H17 H 0.8509 0.1702 0.4971
N7 N 0.79382(15) 0.19542(12) 0.44756(14)
C33 C 0.7745(2) 0.18809(17) 0.40051(18)
H18 H 0.7437 0.2090 0.3883
C34 C 0.7969(2) 0.15210(17) 0.36937(19)
H19 H 0.7820 0.1483 0.3363
C35 C 0.8421(2) 0.12081(17) 0.38665(18)
H20 H 0.8589 0.0959 0.3654
Cl5 Cl 0.65562(5) 0.24263(4) 0.45119(4)
Mn6_2 Mn 1.0000 0.5000 0.5000
N16 N 0.70756(15) 0.07190(13) 0.81008(13)
N18 N 0.77658(15) 0.31954(12) 0.45018(13)
C87 C 0.82902(18) 0.06317(16) 0.51831(16)
H51 H 0.7984 0.0858 0.5092
C88 C 0.82617(19) 0.02695(16) 0.55371(17)
H52 H 0.7931 0.0195 0.5742
C89 C 0.88162(18) 0.00185(15) 0.55501(16)
N23 N 0.70618(15) 0.30458(12) 0.55244(14)
H57 H 0.8511 0.0045 0.6636
Mn8 Mn 0.74960(3) 0.01880(3) 0.74953(3)
Cl7 Cl 0.65699(5) 0.00877(4) 0.70805(5)
Cl8 Cl 0.82201(5) 0.08210(4) 0.73073(4)
Cl10 Cl 0.84438(5) 0.25737(4) 0.54881(4)
Mn2_4 Mn 1.0000 1.0000 0.5000
C81 C 0.94730(18) 0.93263(14) 0.58195(16)
C82 C 0.9616(2) 0.89014(16) 0.61261(17)
H49 H 0.9364 0.8743 0.6362
C90 C 0.89439(18) 0.95953(15) 0.58432(16)
N20 N 0.99450(14) 0.94407(11) 0.55148(12)
C96 C 0.84722(17) 0.94186(15) 0.61847(16)
C97 C 0.82984(19) 0.97411(16) 0.65825(16)
N24 N 0.78474(16) 0.96328(13) 0.68836(14)
C98 C 0.7561(2) 0.91952(18) 0.68021(19)
H58 H 0.7231 0.9120 0.7007
C99 C 0.7717(2) 0.88502(17) 0.64399(18)
H59 H 0.7511 0.8539 0.6409
C100 C 0.81783(19) 0.89646(16) 0.61226(17)
H60 H 0.8292 0.8736 0.5866
N31 N 0.94663(14) 0.94939(12) 0.44092(13)
Cl9 Cl 0.76787(7) 0.96003(5) 0.81475(5)
Mn2_5 Mn 0.0000 0.0000 0.0000
C23_2 C 0.01732(19) 0.12337(16) 0.10205(16)
H14_2 H 0.0387 0.1503 0.1170
C24_2 C 0.03845(18) 0.08969(14) 0.06414(16)
C25_2 C 0.09463(18) 0.09163(14) 0.04291(16)
C26_2 C 0.11268(18) 0.06106(15) 0.00317(16)
C31_2 C 0.13814(17) 0.12679(15) 0.06444(16)
C32_2 C 0.16329(18) 0.16517(15) 0.03605(17)
H17_2 H 0.1491 0.1702 0.0029
N7_2 N 0.20618(15) 0.19542(12) 0.05244(14)
C33_2 C 0.2255(2) 0.18809(17) 0.09949(18)
H18_2 H 0.2563 0.2090 0.1117
C34_2 C 0.2031(2) 0.15210(17) 0.13063(19)
H19_2 H 0.2180 0.1483 0.1637
C35_2 C 0.1579(2) 0.12081(17) 0.11335(18)
H20_2 H 0.1411 0.0959 0.1346
Mn5 Mn 0.2500 0.2500 0.0000
Cl5_2 Cl 0.34438(5) 0.24263(4) 0.04881(4)
Mn6_3 Mn 0.0000 0.5000 0.0000
N18_2 N 0.22342(15) 0.31954(12) 0.04982(13)
Mn2_6 Mn 0.0000 0.0000 1.0000
N6_2 N 0.08039(14) 0.02411(12) 0.97978(12)
Mn5_2 Mn 0.2500 0.2500 1.0000
Mn6_4 Mn 0.0000 0.5000 1.0000
N19 N 0.27658(15) 0.18046(12) 0.95018(13)
C87_2 C 0.17098(18) 0.06317(16) 0.98169(16)
H51_2 H 0.2016 0.0858 0.9908
C88_2 C 0.17383(19) 0.02695(16) 0.94629(17)
H52_2 H 0.2069 0.0195 0.9258
C89_2 C 0.11838(18) 0.00185(15) 0.94499(16)
N23_2 N 0.29382(15) 0.30458(12) 0.94756(14)
H57_2 H 0.1489 0.0045 0.8364
Cl10_2 Cl 0.15562(5) 0.25737(4) 0.95119(4)
Mn2_7 Mn 0.0000 1.0000 0.0000
N31_2 N 0.05337(14) 0.94939(12) 0.05908(13)
Mn2_8 Mn 0.0000 1.0000 1.0000
C81_2 C 0.05270(18) 0.93263(14) 0.91805(16)
C82_2 C 0.0384(2) 0.89014(16) 0.88739(17)
H49_2 H 0.0636 0.8743 0.8638
C90_2 C 0.10561(18) 0.95953(15) 0.91568(16)
N20_2 N 0.00550(14) 0.94407(11) 0.94852(12)
C96_2 C 0.15278(17) 0.94186(15) 0.88153(16)
C97_2 C 0.17016(19) 0.97411(16) 0.84175(16)
C98_2 C 0.2439(2) 0.91952(18) 0.81979(19)
H58_2 H 0.2769 0.9120 0.7993
C99_2 C 0.2283(2) 0.88502(17) 0.85601(18)
H59_2 H 0.2489 0.8539 0.8591
C100_2 C 0.18217(19) 0.89646(16) 0.88774(17)
H60_2 H 0.1708 0.8736 0.9134
Mn1_3 Mn 0.5000 0.0000 0.0000
Mn2_9 Mn 1.0000 0.0000 0.0000
C21_2 C 0.94730(18) 0.06737(14) 0.08195(16)
C22_2 C 0.9616(2) 0.10986(16) 0.11261(17)
H13_2 H 0.9364 0.1257 0.1362
C30_2 C 0.89439(18) 0.04047(15) 0.08432(16)
N5_2 N 0.99450(14) 0.05593(11) 0.05148(12)
C36_2 C 0.84722(17) 0.05814(15) 0.11847(16)
C37_2 C 0.82984(19) 0.02589(16) 0.15825(16)
N8_2 N 0.78474(16) 0.03672(13) 0.18836(14)
C38_2 C 0.7561(2) 0.08048(18) 0.18021(19)
H22_2 H 0.7231 0.0880 0.2007
C39_2 C 0.7717(2) 0.11498(17) 0.14399(18)
H23_2 H 0.7511 0.1461 0.1409
C40_2 C 0.81783(19) 0.10354(16) 0.11226(17)
H24_2 H 0.8292 0.1264 0.0866
Mn3_2 Mn 0.7500 0.2500 0.0000
Cl1_2 Cl 0.81242(5) 0.23682(4) 0.07900(5)
C41_2 C 0.64872(18) 0.29615(15) 0.05987(15)
C42_2 C 0.59703(19) 0.28225(15) 0.08827(17)
H25_2 H 0.5704 0.3046 0.1044
C43_2 C 0.59381(19) 0.23127(15) 0.08745(17)
H26_2 H 0.5642 0.2112 0.1028
C44_2 C 0.64325(17) 0.21282(14) 0.05931(15)
C45_2 C 0.65461(17) 0.16179(14) 0.04921(14)
C46_2 C 0.70152(17) 0.14436(14) 0.02056(15)
C47_2 C 0.71552(18) 0.09127(15) 0.01249(15)
H27_2 H 0.6939 0.0632 0.0248
N9_2 N 0.67687(14) 0.25306(11) 0.04242(12)
C51_2 C 0.61309(17) 0.12373(14) 0.07130(16)
C52_2 C 0.57801(17) 0.09384(14) 0.04017(15)
H29_2 H 0.5794 0.0997 0.0051
N11_2 N 0.54215(14) 0.05701(12) 0.05734(13)
C53_2 C 0.54002(18) 0.05042(15) 0.10638(16)
H30_2 H 0.5148 0.0248 0.1190
C54_2 C 0.57204(19) 0.07836(17) 0.14026(17)
H31_2 H 0.5684 0.0723 0.1752
C55_2 C 0.60961(19) 0.11537(15) 0.12263(16)
H32_2 H 0.6327 0.1348 0.1452
Mn6_5 Mn 1.0000 0.5000 0.0000
C66_2 C 0.37898(17) 0.04818(14) 0.00073(16)
C67_2 C 0.32326(18) 0.04577(16) 0.02590(17)
H39_2 H 0.2897 0.0659 0.0186
C68_2 C 0.32678(18) 0.01041(15) 0.06123(16)
H40_2 H 0.2962 0.0007 0.0835
N14_2 N 0.41751(14) 0.01447(12) 0.02274(12)
Mn7_2 Mn 0.5000 0.5000 0.0000
C108_2 C 0.73525(18) 0.41063(14) 0.01559(16)
H64_2 H 0.7160 0.4403 0.0271
C109_2 C 0.71707(18) 0.35893(14) 0.02489(15)
C110_2 C 0.66655(18) 0.34534(14) 0.05202(15)
N27_2 N 0.75652(13) 0.32637(11) 0.00274(11)
C116_2 C 0.62994(17) 0.38743(14) 0.07304(16)
C117_2 C 0.58766(18) 0.41103(15) 0.04305(16)
H69_2 H 0.5828 0.3995 0.0096
N30_2 N 0.55337(14) 0.44939(12) 0.05908(13)
C118_2 C 0.5595(2) 0.46405(16) 0.10614(17)
H70_2 H 0.5354 0.4908 0.1180
C119_2 C 0.5993(2) 0.44243(19) 0.1389(2)
H71_2 H 0.6022 0.4539 0.1726
C120_2 C 0.6350(2) 0.40385(18) 0.12176(18)
H72_2 H 0.6629 0.3887 0.1436
Mn1_4 Mn 0.5000 0.0000 1.0000
C1_2 C 0.53862(18) 0.07112(14) 0.91534(15)
C2_2 C 0.51576(19) 0.11062(15) 0.88406(17)
H1_2 H 0.5372 0.1293 0.8598
C3_2 C 0.45857(19) 0.11651(15) 0.89526(16)
H2_2 H 0.4319 0.1394 0.8799
C9_2 C 0.61521(17) 0.01028(14) 0.94026(16)
C10_2 C 0.59549(18) 0.05190(14) 0.91186(14)
C11_2 C 0.63946(17) 0.07711(15) 0.87892(15)
C12_2 C 0.66548(18) 0.05171(16) 0.83887(16)
H5_2 H 0.6527 0.0183 0.8316
C13_2 C 0.7249(2) 0.11948(16) 0.82044(17)
H6_2 H 0.7549 0.1342 0.8005
C14_2 C 0.7010(2) 0.14754(16) 0.85849(16)
H7_2 H 0.7138 0.1812 0.8641
C15_2 C 0.65821(19) 0.12641(15) 0.88853(16)
H8_2 H 0.6417 0.1452 0.9154
Mn2_10 Mn 1.0000 0.0000 1.0000
Mn3_3 Mn 0.7500 0.2500 1.0000
C48_2 C 0.76475(18) 0.08937(14) 0.98441(16)
H28_2 H 0.7840 0.0597 0.9729
C49_2 C 0.78293(18) 0.14107(14) 0.97511(15)
C50_2 C 0.83345(18) 0.15466(14) 0.94798(15)
N10_2 N 0.74348(13) 0.17363(11) 0.99726(11)
C56_2 C 0.87006(17) 0.11257(14) 0.92696(16)
C57_2 C 0.91234(18) 0.08897(15) 0.95695(16)
H33_2 H 0.9172 0.1005 0.9904
N12_2 N 0.94663(14) 0.05061(12) 0.94092(13)
C58_2 C 0.9405(2) 0.03595(16) 0.89386(17)
H34_2 H 0.9646 0.0092 0.8820
C59_2 C 0.9007(2) 0.05757(19) 0.8611(2)
H35_2 H 0.8978 0.0461 0.8274
C60_2 C 0.8650(2) 0.09615(18) 0.87824(18)
H36_2 H 0.8371 0.1113 0.8564
Mn6_6 Mn 1.0000 0.5000 1.0000
C64_2 C 0.44543(17) 0.08186(14) 0.93467(15)
C65_2 C 0.39008(18) 0.07840(15) 0.95910(15)
N13_2 N 0.49465(14) 0.05423(12) 0.94684(12)
C76_2 C 0.34109(18) 0.10927(14) 0.93930(15)
C77_2 C 0.32151(17) 0.15154(15) 0.96536(16)
H45_2 H 0.3411 0.1604 0.9956
C78_2 C 0.24970(19) 0.16797(15) 0.90756(17)
H46_2 H 0.2177 0.1882 0.8965
C79_2 C 0.2661(2) 0.12732(17) 0.87881(16)
H47_2 H 0.2458 0.1197 0.8486
C80_2 C 0.31300(18) 0.09742(15) 0.89474(16)
H48_2 H 0.3255 0.0693 0.8753
Mn7_3 Mn 0.5000 0.5000 1.0000
Cl6_2 Cl 0.68758(5) 0.26318(4) 0.92100(5)
C101_2 C 0.85128(18) 0.20385(15) 0.94013(15)
C102_2 C 0.90297(19) 0.21775(15) 0.91173(17)
H61_2 H 0.9296 0.1954 0.8956
C103_2 C 0.90619(19) 0.26873(15) 0.91255(17)
H62_2 H 0.9358 0.2888 0.8972
C104_2 C 0.85675(17) 0.28718(14) 0.94069(15)
C105_2 C 0.84539(17) 0.33821(14) 0.95079(14)
C106_2 C 0.79848(17) 0.35564(14) 0.97944(15)
C107_2 C 0.78448(18) 0.40873(15) 0.98751(15)
H63_2 H 0.8061 0.4368 0.9752
N26_2 N 0.82313(14) 0.24694(11) 0.95758(12)
C111_2 C 0.88691(17) 0.37627(14) 0.92870(16)
C112_2 C 0.92199(17) 0.40616(14) 0.95983(15)
H65_2 H 0.9206 0.4003 0.9949
N28_2 N 0.95785(14) 0.44299(12) 0.94266(13)
C113_2 C 0.95998(18) 0.44958(15) 0.89362(16)
H66_2 H 0.9852 0.4752 0.8810
C114_2 C 0.92796(19) 0.42164(17) 0.85974(17)
H67_2 H 0.9316 0.4277 0.8248
C115_2 C 0.89039(19) 0.38463(15) 0.87737(16)
H68_2 H 0.8673 0.3652 0.8548
Mn1_5 Mn 0.5000 1.0000 0.0000
C4_2 C 0.55457(17) 0.91814(14) 0.06533(15)
C5_2 C 0.60992(18) 0.92160(15) 0.04090(15)
N1_2 N 0.50535(14) 0.94577(12) 0.05316(12)
C16_2 C 0.65891(18) 0.89073(14) 0.06070(15)
C17_2 C 0.67849(17) 0.84846(15) 0.03464(16)
H9_2 H 0.6589 0.8396 0.0044
N4_2 N 0.72342(15) 0.81954(12) 0.04982(13)
C18_2 C 0.75030(19) 0.83203(15) 0.09244(17)
H10_2 H 0.7823 0.8118 0.1035
C19_2 C 0.7339(2) 0.87268(17) 0.12119(16)
H11_2 H 0.7542 0.8803 0.1514
C20_2 C 0.68700(18) 0.90258(15) 0.10526(16)
H12_2 H 0.6745 0.9307 0.1247
Mn2_11 Mn 1.0000 1.0000 0.0000
C27_2 C 0.82902(18) 0.93683(16) 0.01831(16)
H15_2 H 0.7984 0.9142 0.0092
C28_2 C 0.82617(19) 0.97305(16) 0.05371(17)
H16_2 H 0.7931 0.9805 0.0742
C29_2 C 0.88162(18) 0.99815(15) 0.05501(16)
H21_2 H 0.8511 0.9955 0.1636
C61_2 C 0.46138(18) 0.92888(14) 0.08466(15)
C62_2 C 0.48424(19) 0.88938(15) 0.11594(17)
H37_2 H 0.4628 0.8707 0.1402
C63_2 C 0.54143(19) 0.88349(15) 0.10474(16)
H38_2 H 0.5681 0.8606 0.1201
C69_2 C 0.38479(17) 0.98972(14) 0.05974(16)
C70_2 C 0.40451(18) 0.94810(14) 0.08814(14)
C71_2 C 0.36054(17) 0.92289(15) 0.12108(15)
C72_2 C 0.33452(18) 0.94829(16) 0.16113(16)
H41_2 H 0.3473 0.9817 0.1684
N15_2 N 0.29244(15) 0.92810(13) 0.18992(13)
C73_2 C 0.2751(2) 0.88052(16) 0.17956(17)
H42_2 H 0.2451 0.8658 0.1995
C74_2 C 0.2990(2) 0.85246(16) 0.14151(16)
H43_2 H 0.2862 0.8188 0.1359
C75_2 C 0.34179(19) 0.87359(15) 0.11147(16)
H44_2 H 0.3583 0.8548 0.0846
N21_2 N 0.91961(14) 0.97589(12) 0.02022(12)
Mn12_2 Mn 0.7500 0.7500 0.0000
Mn1_6 Mn 0.5000 1.0000 1.0000
C6_2 C 0.62102(17) 0.95182(14) 0.99927(16)
C7_2 C 0.67674(18) 0.95423(16) 0.97410(17)
H3_2 H 0.7103 0.9341 0.9814
C8_2 C 0.67322(18) 0.98959(15) 0.93877(16)
H4_2 H 0.7038 0.9993 0.9165
N2_2 N 0.58249(14) 0.98553(12) 0.97726(12)
Mn2_12 Mn 1.0000 1.0000 1.0000
C83_2 C 0.98268(19) 0.87663(16) 0.89795(16)
H50_2 H 0.9613 0.8497 0.8830
C84_2 C 0.96155(18) 0.91031(14) 0.93586(16)
C85_2 C 0.90537(18) 0.90837(14) 0.95709(16)
C86_2 C 0.88732(18) 0.93894(15) 0.99683(16)
C91_2 C 0.86186(17) 0.87321(15) 0.93556(16)
C92_2 C 0.83671(18) 0.83483(15) 0.96395(17)
H53_2 H 0.8509 0.8298 0.9971
N22_2 N 0.79382(15) 0.80458(12) 0.94756(14)
C93_2 C 0.7745(2) 0.81191(17) 0.90051(18)
H54_2 H 0.7437 0.7910 0.8883
C94_2 C 0.7969(2) 0.84790(17) 0.86937(19)
H55_2 H 0.7820 0.8517 0.8363
C95_2 C 0.8421(2) 0.87919(17) 0.88665(18)
H56_2 H 0.8589 0.9041 0.8654
N29_2 N 0.45785(14) 0.94299(12) 0.94266(13)
Mn12_3 Mn 0.7500 0.7500 1.0000
C3_3 C 0.04143(19) 0.61651(15) 0.60474(16)
H2_3 H 0.0681 0.6394 0.6201
C61_3 C 0.03862(18) 0.42888(14) 0.41534(15)
C62_3 C 0.01576(19) 0.38938(15) 0.38406(17)
H37_3 H 0.0372 0.3707 0.3598
C64_3 C 0.05457(17) 0.58186(14) 0.56533(15)
C65_3 C 0.10992(18) 0.57840(15) 0.54090(15)
C66_3 C 0.12102(17) 0.54818(14) 0.49927(16)
C67_3 C 0.17674(18) 0.54577(16) 0.47410(17)
H39_3 H 0.2103 0.5659 0.4814
C68_3 C 0.17322(18) 0.51041(15) 0.43877(16)
H40_3 H 0.2038 0.5007 0.4165
C69_3 C 0.11521(17) 0.48972(14) 0.44026(16)
C70_3 C 0.09549(18) 0.44810(14) 0.41186(14)
N13_3 N 0.00535(14) 0.55423(12) 0.55316(12)
N14_3 N 0.08249(14) 0.51447(12) 0.47726(12)
C71_3 C 0.13946(17) 0.42289(15) 0.37892(15)
C72_3 C 0.16548(18) 0.44829(16) 0.33887(16)
H41_3 H 0.1527 0.4817 0.3316
N15_3 N 0.20756(15) 0.42810(13) 0.31008(13)
C73_3 C 0.2249(2) 0.38052(16) 0.32044(17)
H42_3 H 0.2549 0.3658 0.3005
C74_3 C 0.2010(2) 0.35246(16) 0.35849(16)
H43_3 H 0.2138 0.3188 0.3641
C75_3 C 0.15821(19) 0.37359(15) 0.38853(16)
H44_3 H 0.1417 0.3548 0.4154
C76_3 C 0.15891(18) 0.60927(14) 0.56070(15)
C77_3 C 0.17849(17) 0.65154(15) 0.53464(16)
H45_3 H 0.1589 0.6604 0.5044
N17_2 N 0.22342(15) 0.68046(12) 0.54982(13)
C78_3 C 0.25030(19) 0.66797(15) 0.59244(17)
H46_3 H 0.2823 0.6882 0.6035
C79_3 C 0.2339(2) 0.62732(17) 0.62119(16)
H47_3 H 0.2542 0.6197 0.6514
C80_3 C 0.18700(18) 0.59742(15) 0.60526(16)
H48_3 H 0.1745 0.5693 0.6247
Mn9_2 Mn 0.24960(3) 0.48120(3) 0.24953(3)
C1_3 C 0.96138(18) 0.57112(14) 0.58466(15)
C2_3 C 0.98424(19) 0.61062(15) 0.61594(17)
H1_3 H 0.9628 0.6293 0.6402
C4_3 C 0.94543(17) 0.41814(14) 0.43467(15)
C5_3 C 0.89008(18) 0.42160(15) 0.45910(15)
C6_3 C 0.87898(17) 0.45182(14) 0.50073(16)
C7_3 C 0.82326(18) 0.45423(16) 0.52590(17)
H3_3 H 0.7897 0.4341 0.5186
C8_3 C 0.82678(18) 0.48959(15) 0.56123(16)
H4_3 H 0.7962 0.4993 0.5835
C9_3 C 0.88479(17) 0.51028(14) 0.55974(16)
C10_3 C 0.90451(18) 0.55190(14) 0.58814(14)
N1_3 N 0.99465(14) 0.44577(12) 0.44684(12)
N2_3 N 0.91751(14) 0.48553(12) 0.52274(12)
C11_3 C 0.86054(17) 0.57711(15) 0.62108(15)
C12_3 C 0.83452(18) 0.55171(16) 0.66113(16)
H5_3 H 0.8473 0.5183 0.6684
N3_2 N 0.79244(15) 0.57190(13) 0.68992(13)
C13_3 C 0.7751(2) 0.61948(16) 0.67956(17)
H6_3 H 0.7451 0.6342 0.6995
C14_3 C 0.7990(2) 0.64754(16) 0.64151(16)
H7_3 H 0.7862 0.6812 0.6359
C15_3 C 0.84179(19) 0.62641(15) 0.61147(16)
H8_3 H 0.8583 0.6452 0.5846
C16_3 C 0.84109(18) 0.39073(14) 0.43930(15)
C17_3 C 0.82151(17) 0.34846(15) 0.46536(16)
H9_3 H 0.8411 0.3396 0.4956
C18_3 C 0.74970(19) 0.33203(15) 0.40756(17)
H10_3 H 0.7177 0.3118 0.3965
C19_3 C 0.7661(2) 0.37268(17) 0.37881(16)
H11_3 H 0.7458 0.3803 0.3486
C20_3 C 0.81300(18) 0.40258(15) 0.39474(16)
H12_3 H 0.8255 0.4307 0.3753
C21_3 C 0.55270(18) 0.56737(14) 0.41805(16)
C22_3 C 0.5384(2) 0.60986(16) 0.38739(17)
H13_3 H 0.5636 0.6257 0.3638
C23_3 C 0.48268(19) 0.62337(16) 0.39795(16)
H14_3 H 0.4613 0.6503 0.3830
C24_3 C 0.46155(18) 0.58969(14) 0.43586(16)
C25_3 C 0.40537(18) 0.59163(14) 0.45709(16)
C26_3 C 0.38732(18) 0.56106(15) 0.49683(16)
C27_3 C 0.67098(18) 0.43683(16) 0.48169(16)
H15_3 H 0.7016 0.4142 0.4908
C28_3 C 0.67383(19) 0.47305(16) 0.44629(17)
H16_3 H 0.7069 0.4805 0.4258
C29_3 C 0.61838(18) 0.49815(15) 0.44499(16)
C30_3 C 0.60561(18) 0.54047(15) 0.41568(16)
N5_3 N 0.50550(14) 0.55593(11) 0.44852(12)
N6_3 N 0.41961(14) 0.52411(12) 0.52022(12)
C31_3 C 0.36186(17) 0.62679(15) 0.43556(16)
C32_3 C 0.33671(18) 0.66517(15) 0.46395(17)
H17_3 H 0.3509 0.6702 0.4971
N7_3 N 0.29382(15) 0.69542(12) 0.44756(14)
C33_3 C 0.2745(2) 0.68809(17) 0.40051(18)
H18_3 H 0.2437 0.7090 0.3883
C34_3 C 0.2969(2) 0.65210(17) 0.36937(19)
H19_3 H 0.2820 0.6483 0.3363
C35_3 C 0.3421(2) 0.62081(17) 0.38665(18)
H20_3 H 0.3589 0.5959 0.3654
C36_3 C 0.65278(17) 0.55814(15) 0.38153(16)
C37_3 C 0.67016(19) 0.52589(16) 0.34175(16)
H21_3 H 0.6489 0.4955 0.3364
N8_3 N 0.71526(16) 0.53672(13) 0.31164(14)
C38_3 C 0.7439(2) 0.58048(18) 0.31979(19)
H22_3 H 0.7769 0.5880 0.2993
C39_3 C 0.7283(2) 0.61498(17) 0.35601(18)
H23_3 H 0.7489 0.6461 0.3591
C40_3 C 0.68217(19) 0.60354(16) 0.38774(17)
H24_3 H 0.6708 0.6264 0.4134
Mn3_4 Mn 0.7500 0.7500 0.5000
Cl1_3 Cl 0.68758(5) 0.73682(4) 0.42100(5)
C41_3 C 0.85128(18) 0.79615(15) 0.44013(15)
C42_3 C 0.90297(19) 0.78225(15) 0.41173(17)
H25_3 H 0.9296 0.8046 0.3956
C43_3 C 0.90619(19) 0.73127(15) 0.41255(17)
H26_3 H 0.9358 0.7112 0.3972
C44_3 C 0.85675(17) 0.71282(14) 0.44069(15)
C45_3 C 0.84539(17) 0.66179(14) 0.45079(14)
C46_3 C 0.79848(17) 0.64436(14) 0.47944(15)
C47_3 C 0.78448(18) 0.59127(15) 0.48751(15)
H27_3 H 0.8061 0.5632 0.4752
C48_3 C 0.73525(18) 0.58937(14) 0.51559(16)
H28_3 H 0.7160 0.5597 0.5271
C49_3 C 0.71707(18) 0.64107(14) 0.52489(15)
C50_3 C 0.66655(18) 0.65466(14) 0.55202(15)
N9_3 N 0.82313(14) 0.75306(11) 0.45758(12)
N10_3 N 0.75652(13) 0.67363(11) 0.50274(11)
C51_3 C 0.88691(17) 0.62373(14) 0.42870(16)
C52_3 C 0.92199(17) 0.59384(14) 0.45983(15)
H29_3 H 0.9206 0.5997 0.4949
N11_3 N 0.95785(14) 0.55701(12) 0.44266(13)
C53_3 C 0.95998(18) 0.55042(15) 0.39362(16)
H30_3 H 0.9852 0.5248 0.3810
C54_3 C 0.92796(19) 0.57836(17) 0.35974(17)
H31_3 H 0.9316 0.5723 0.3248
C55_3 C 0.89039(19) 0.61537(15) 0.37737(16)
H32_3 H 0.8673 0.6348 0.3548
C56_3 C 0.62994(17) 0.61257(14) 0.57304(16)
C57_3 C 0.58766(18) 0.58897(15) 0.54305(16)
H33_3 H 0.5828 0.6005 0.5096
N12_3 N 0.55337(14) 0.55061(12) 0.55908(13)
C58_3 C 0.5595(2) 0.53595(16) 0.60614(17)
H34_3 H 0.5354 0.5092 0.6180
C59_3 C 0.5993(2) 0.55757(19) 0.6389(2)
H35_3 H 0.6022 0.5461 0.6726
C60_3 C 0.6350(2) 0.59615(18) 0.62176(18)
H36_3 H 0.6629 0.6113 0.6436
Mn4_2 Mn 0.75040(3) 0.51880(3) 0.75047(3)
Cl2_2 Cl 0.84301(5) 0.50877(4) 0.79195(5)
Cl3_2 Cl 0.67799(5) 0.58210(4) 0.76927(4)
Cl4_2 Cl 0.73213(7) 0.46003(5) 0.68525(5)
Cl5_3 Cl 0.15562(5) 0.74263(4) 0.45119(4)
C63_3 C 0.95857(19) 0.38349(15) 0.39526(16)
H38_3 H 0.9319 0.3606 0.3799
N16_2 N 0.20756(15) 0.57190(13) 0.81008(13)
C81_3 C 0.44730(18) 0.43263(14) 0.58195(16)
C82_3 C 0.4616(2) 0.39014(16) 0.61261(17)
H49_3 H 0.4364 0.3743 0.6362
C83_3 C 0.51732(19) 0.37663(16) 0.60205(16)
H50_3 H 0.5387 0.3497 0.6170
C84_3 C 0.53845(18) 0.41031(14) 0.56414(16)
C85_3 C 0.59463(18) 0.40837(14) 0.54291(16)
C86_3 C 0.61268(18) 0.43894(15) 0.50317(16)
C87_3 C 0.32902(18) 0.56317(16) 0.51831(16)
H51_3 H 0.2984 0.5858 0.5092
C88_3 C 0.32617(19) 0.52695(16) 0.55371(17)
H52_3 H 0.2931 0.5195 0.5742
C89_3 C 0.38162(18) 0.50185(15) 0.55501(16)
C90_3 C 0.39439(18) 0.45953(15) 0.58432(16)
N20_3 N 0.49450(14) 0.44407(11) 0.55148(12)
N21_3 N 0.58039(14) 0.47589(12) 0.47978(12)
C91_3 C 0.63814(17) 0.37321(15) 0.56444(16)
C92_3 C 0.66329(18) 0.33483(15) 0.53605(17)
H53_3 H 0.6491 0.3298 0.5029
C93_3 C 0.7255(2) 0.31191(17) 0.59949(18)
H54_3 H 0.7563 0.2910 0.6117
C94_3 C 0.7031(2) 0.34790(17) 0.63063(19)
H55_3 H 0.7180 0.3517 0.6637
C95_3 C 0.6579(2) 0.37919(17) 0.61335(18)
H56_3 H 0.6411 0.4041 0.6346
C96_3 C 0.34722(17) 0.44186(15) 0.61847(16)
C97_3 C 0.32984(19) 0.47411(16) 0.65825(16)
H57_3 H 0.3511 0.5045 0.6636
N24_2 N 0.28474(16) 0.46328(13) 0.68836(14)
N25_2 N 0.71526(16) 0.46328(13) 0.81164(14)
C98_3 C 0.2561(2) 0.41952(18) 0.68021(19)
H58_3 H 0.2231 0.4120 0.7007
C99_3 C 0.2717(2) 0.38502(17) 0.64399(18)
H59_3 H 0.2511 0.3539 0.6409
C100_3 C 0.31783(19) 0.39646(16) 0.61226(17)
H60_3 H 0.3292 0.3736 0.5866
Cl6_3 Cl 0.81242(5) 0.76318(4) 0.57900(5)
C101_3 C 0.64872(18) 0.70385(15) 0.55987(15)
C102_3 C 0.59703(19) 0.71775(15) 0.58827(17)
H61_3 H 0.5704 0.6954 0.6044
C103_3 C 0.59381(19) 0.76873(15) 0.58745(17)
H62_3 H 0.5642 0.7888 0.6028
C104_3 C 0.64325(17) 0.78718(14) 0.55931(15)
C105_3 C 0.65461(17) 0.83821(14) 0.54921(14)
C106_3 C 0.70152(17) 0.85564(14) 0.52056(15)
C107_3 C 0.71552(18) 0.90873(15) 0.51249(15)
H63_3 H 0.6939 0.9368 0.5248
C108_3 C 0.76475(18) 0.91063(14) 0.48441(16)
H64_3 H 0.7840 0.9403 0.4729
C109_3 C 0.78293(18) 0.85893(14) 0.47511(15)
C110_3 C 0.83345(18) 0.84534(14) 0.44798(15)
N26_3 N 0.67687(14) 0.74694(11) 0.54242(12)
N27_3 N 0.74348(13) 0.82637(11) 0.49726(11)
C111_3 C 0.61309(17) 0.87627(14) 0.57130(16)
C112_3 C 0.57801(17) 0.90616(14) 0.54017(15)
H65_3 H 0.5794 0.9003 0.5051
C113_3 C 0.54002(18) 0.94958(15) 0.60638(16)
H66_3 H 0.5148 0.9752 0.6190
C114_3 C 0.57204(19) 0.92164(17) 0.64026(17)
H67_3 H 0.5684 0.9277 0.6752
C115_3 C 0.60961(19) 0.88463(15) 0.62263(16)
H68_3 H 0.6327 0.8652 0.6452
C116_3 C 0.87006(17) 0.88743(14) 0.42696(16)
C117_3 C 0.91234(18) 0.91103(15) 0.45695(16)
H69_3 H 0.9172 0.8995 0.4904
C118_3 C 0.9405(2) 0.96405(16) 0.39386(17)
H70_3 H 0.9646 0.9908 0.3820
C119_3 C 0.9007(2) 0.94243(19) 0.3611(2)
H71_3 H 0.8978 0.9539 0.3274
C120_3 C 0.8650(2) 0.90385(18) 0.37824(18)
H72_3 H 0.8371 0.8887 0.3564
Mn8_2 Mn 0.24960(3) 0.51880(3) 0.74953(3)
Mn10_2 Mn 0.75040(3) 0.48120(3) 0.25047(3)
Cl7_2 Cl 0.15699(5) 0.50877(4) 0.70805(5)
Cl8_2 Cl 0.32201(5) 0.58210(4) 0.73073(4)
Cl9_2 Cl 0.26787(7) 0.46003(5) 0.81475(5)
Cl10_3 Cl 0.34438(5) 0.75737(4) 0.54881(4)
C4_4 C 0.05457(17) 0.41814(14) 0.06533(15)
C5_4 C 0.10992(18) 0.42160(15) 0.04090(15)
N1_4 N 0.00535(14) 0.44577(12) 0.05316(12)
C16_4 C 0.15891(18) 0.39073(14) 0.06070(15)
C17_4 C 0.17849(17) 0.34846(15) 0.03464(16)
H9_4 H 0.1589 0.3396 0.0044
C18_4 C 0.25030(19) 0.33203(15) 0.09244(17)
H10_4 H 0.2823 0.3118 0.1035
C19_4 C 0.2339(2) 0.37268(17) 0.12119(16)
H11_4 H 0.2542 0.3803 0.1514
C20_4 C 0.18700(18) 0.40258(15) 0.10526(16)
H12_4 H 0.1745 0.4307 0.1247
C21_4 C 0.44730(18) 0.56737(14) 0.08195(16)
C22_4 C 0.4616(2) 0.60986(16) 0.11261(17)
H13_4 H 0.4364 0.6257 0.1362
C23_4 C 0.51732(19) 0.62337(16) 0.10205(16)
H14_4 H 0.5387 0.6503 0.1170
C24_4 C 0.53845(18) 0.58969(14) 0.06414(16)
C25_4 C 0.59463(18) 0.59163(14) 0.04291(16)
C26_4 C 0.61268(18) 0.56106(15) 0.00317(16)
C27_4 C 0.32902(18) 0.43683(16) 0.01831(16)
H15_4 H 0.2984 0.4142 0.0092
C28_4 C 0.32617(19) 0.47305(16) 0.05371(17)
H16_4 H 0.2931 0.4805 0.0742
C29_4 C 0.38162(18) 0.49815(15) 0.05501(16)
C30_4 C 0.39439(18) 0.54047(15) 0.08432(16)
N5_4 N 0.49450(14) 0.55593(11) 0.05148(12)
C31_4 C 0.63814(17) 0.62679(15) 0.06444(16)
C32_4 C 0.66329(18) 0.66517(15) 0.03605(17)
H17_4 H 0.6491 0.6702 0.0029
N7_4 N 0.70618(15) 0.69542(12) 0.05244(14)
C33_4 C 0.7255(2) 0.68809(17) 0.09949(18)
H18_4 H 0.7563 0.7090 0.1117
C34_4 C 0.7031(2) 0.65210(17) 0.13063(19)
H19_4 H 0.7180 0.6483 0.1637
C35_4 C 0.6579(2) 0.62081(17) 0.11335(18)
H20_4 H 0.6411 0.5959 0.1346
C36_4 C 0.34722(17) 0.55814(15) 0.11847(16)
C37_4 C 0.32984(19) 0.52589(16) 0.15825(16)
H21_4 H 0.3511 0.4955 0.1636
N8_4 N 0.28474(16) 0.53672(13) 0.18836(14)
C38_4 C 0.2561(2) 0.58048(18) 0.18021(19)
H22_4 H 0.2231 0.5880 0.2007
C39_4 C 0.2717(2) 0.61498(17) 0.14399(18)
H23_4 H 0.2511 0.6461 0.1409
C40_4 C 0.31783(19) 0.60354(16) 0.11226(17)
H24_4 H 0.3292 0.6264 0.0866
Mn3_5 Mn 0.2500 0.7500 0.0000
Cl1_4 Cl 0.31242(5) 0.73682(4) 0.07900(5)
C41_4 C 0.14872(18) 0.79615(15) 0.05987(15)
C42_4 C 0.09703(19) 0.78225(15) 0.08827(17)
H25_4 H 0.0704 0.8046 0.1044
C43_4 C 0.09381(19) 0.73127(15) 0.08745(17)
H26_4 H 0.0642 0.7112 0.1028
C44_4 C 0.14325(17) 0.71282(14) 0.05931(15)
C45_4 C 0.15461(17) 0.66179(14) 0.04921(14)
C46_4 C 0.20152(17) 0.64436(14) 0.02056(15)
C47_4 C 0.21552(18) 0.59127(15) 0.01249(15)
H27_4 H 0.1939 0.5632 0.0248
N9_4 N 0.17687(14) 0.75306(11) 0.04242(12)
C51_4 C 0.11309(17) 0.62373(14) 0.07130(16)
C52_4 C 0.07801(17) 0.59384(14) 0.04017(15)
H29_4 H 0.0794 0.5997 0.0051
N11_4 N 0.04215(14) 0.55701(12) 0.05734(13)
C53_4 C 0.04002(18) 0.55042(15) 0.10638(16)
H30_4 H 0.0148 0.5248 0.1190
C54_4 C 0.07204(19) 0.57836(17) 0.14026(17)
H31_4 H 0.0684 0.5723 0.1752
C55_4 C 0.10961(19) 0.61537(15) 0.12263(16)
H32_4 H 0.1327 0.6348 0.1452
Cl5_4 Cl 0.84438(5) 0.74263(4) 0.04881(4)
C63_4 C 0.04143(19) 0.38349(15) 0.10474(16)
H38_4 H 0.0681 0.3606 0.1201
N21_4 N 0.41961(14) 0.47589(12) 0.02022(12)
C108_4 C 0.23525(18) 0.91063(14) 0.01559(16)
H64_4 H 0.2160 0.9403 0.0271
C109_4 C 0.21707(18) 0.85893(14) 0.02489(15)
C110_4 C 0.16655(18) 0.84534(14) 0.05202(15)
N27_4 N 0.25652(13) 0.82637(11) 0.00274(11)
C116_4 C 0.12994(17) 0.88743(14) 0.07304(16)
C117_4 C 0.08766(18) 0.91103(15) 0.04305(16)
H69_4 H 0.0828 0.8995 0.0096
C118_4 C 0.0595(2) 0.96405(16) 0.10614(17)
H70_4 H 0.0354 0.9908 0.1180
C119_4 C 0.0993(2) 0.94243(19) 0.1389(2)
H71_4 H 0.1022 0.9539 0.1726
C120_4 C 0.1350(2) 0.90385(18) 0.12176(18)
H72_4 H 0.1629 0.8887 0.1436
C1_4 C 0.03862(18) 0.57112(14) 0.91534(15)
C2_4 C 0.01576(19) 0.61062(15) 0.88406(17)
H1_4 H 0.0372 0.6293 0.8598
C6_4 C 0.12102(17) 0.45182(14) 0.99927(16)
C7_4 C 0.17674(18) 0.45423(16) 0.97410(17)
H3_4 H 0.2103 0.4341 0.9814
C8_4 C 0.17322(18) 0.48959(15) 0.93877(16)
H4_4 H 0.2038 0.4993 0.9165
C9_4 C 0.11521(17) 0.51028(14) 0.94026(16)
C10_4 C 0.09549(18) 0.55190(14) 0.91186(14)
N2_4 N 0.08249(14) 0.48553(12) 0.97726(12)
C11_4 C 0.13946(17) 0.57711(15) 0.87892(15)
C12_4 C 0.16548(18) 0.55171(16) 0.83887(16)
H5_4 H 0.1527 0.5183 0.8316
C13_4 C 0.2249(2) 0.61948(16) 0.82044(17)
H6_4 H 0.2549 0.6342 0.8005
C14_4 C 0.2010(2) 0.64754(16) 0.85849(16)
H7_4 H 0.2138 0.6812 0.8641
C15_4 C 0.15821(19) 0.62641(15) 0.88853(16)
H8_4 H 0.1417 0.6452 0.9154
N6_4 N 0.58039(14) 0.52411(12) 0.97978(12)
Mn3_6 Mn 0.2500 0.7500 1.0000
C48_4 C 0.26475(18) 0.58937(14) 0.98441(16)
H28_4 H 0.2840 0.5597 0.9729
C49_4 C 0.28293(18) 0.64107(14) 0.97511(15)
C50_4 C 0.33345(18) 0.65466(14) 0.94798(15)
N10_4 N 0.24348(13) 0.67363(11) 0.99726(11)
C56_4 C 0.37006(17) 0.61257(14) 0.92696(16)
C57_4 C 0.41234(18) 0.58897(15) 0.95695(16)
H33_4 H 0.4172 0.6005 0.9904
N12_4 N 0.44663(14) 0.55061(12) 0.94092(13)
C58_4 C 0.4405(2) 0.53595(16) 0.89386(17)
H34_4 H 0.4646 0.5092 0.8820
C59_4 C 0.4007(2) 0.55757(19) 0.8611(2)
H35_4 H 0.3978 0.5461 0.8274
C60_4 C 0.3650(2) 0.59615(18) 0.87824(18)
H36_4 H 0.3371 0.6113 0.8564
N19_2 N 0.77658(15) 0.68046(12) 0.95018(13)
C81_4 C 0.55270(18) 0.43263(14) 0.91805(16)
C82_4 C 0.5384(2) 0.39014(16) 0.88739(17)
H49_4 H 0.5636 0.3743 0.8638
C83_4 C 0.48268(19) 0.37663(16) 0.89795(16)
H50_4 H 0.4613 0.3497 0.8830
C84_4 C 0.46155(18) 0.41031(14) 0.93586(16)
C85_4 C 0.40537(18) 0.40837(14) 0.95709(16)
C86_4 C 0.38732(18) 0.43894(15) 0.99683(16)
C87_4 C 0.67098(18) 0.56317(16) 0.98169(16)
H51_4 H 0.7016 0.5858 0.9908
C88_4 C 0.67383(19) 0.52695(16) 0.94629(17)
H52_4 H 0.7069 0.5195 0.9258
C89_4 C 0.61838(18) 0.50185(15) 0.94499(16)
C90_4 C 0.60561(18) 0.45953(15) 0.91568(16)
N20_4 N 0.50550(14) 0.44407(11) 0.94852(12)
C91_4 C 0.36186(17) 0.37321(15) 0.93556(16)
C92_4 C 0.33671(18) 0.33483(15) 0.96395(17)
H53_4 H 0.3509 0.3298 0.9971
C93_4 C 0.2745(2) 0.31191(17) 0.90051(18)
H54_4 H 0.2437 0.2910 0.8883
C94_4 C 0.2969(2) 0.34790(17) 0.86937(19)
H55_4 H 0.2820 0.3517 0.8363
C95_4 C 0.3421(2) 0.37919(17) 0.88665(18)
H56_4 H 0.3589 0.4041 0.8654
C96_4 C 0.65278(17) 0.44186(15) 0.88153(16)
C97_4 C 0.67016(19) 0.47411(16) 0.84175(16)
H57_4 H 0.6489 0.5045 0.8364
C98_4 C 0.7439(2) 0.41952(18) 0.81979(19)
H58_4 H 0.7769 0.4120 0.7993
C99_4 C 0.7283(2) 0.38502(17) 0.85601(18)
H59_4 H 0.7489 0.3539 0.8591
C100_4 C 0.68217(19) 0.39646(16) 0.88774(17)
H60_4 H 0.6708 0.3736 0.9134
Cl6_4 Cl 0.18758(5) 0.76318(4) 0.92100(5)
C101_4 C 0.35128(18) 0.70385(15) 0.94013(15)
C102_4 C 0.40297(19) 0.71775(15) 0.91173(17)
H61_4 H 0.4296 0.6954 0.8956
C103_4 C 0.40619(19) 0.76873(15) 0.91255(17)
H62_4 H 0.4358 0.7888 0.8972
C104_4 C 0.35675(17) 0.78718(14) 0.94069(15)
C105_4 C 0.34539(17) 0.83821(14) 0.95079(14)
C106_4 C 0.29848(17) 0.85564(14) 0.97944(15)
C107_4 C 0.28448(18) 0.90873(15) 0.98751(15)
H63_4 H 0.3061 0.9368 0.9752
N26_4 N 0.32313(14) 0.74694(11) 0.95758(12)
C111_4 C 0.38691(17) 0.87627(14) 0.92870(16)
C112_4 C 0.42199(17) 0.90616(14) 0.95983(15)
H65_4 H 0.4206 0.9003 0.9949
C113_4 C 0.45998(18) 0.94958(15) 0.89362(16)
H66_4 H 0.4852 0.9752 0.8810
C114_4 C 0.42796(19) 0.92164(17) 0.85974(17)
H67_4 H 0.4316 0.9277 0.8248
C115_4 C 0.39039(19) 0.88463(15) 0.87737(16)
H68_4 H 0.3673 0.8652 0.8548
Cl10_4 Cl 0.65562(5) 0.75737(4) 0.95119(4)
C61_4 C 0.96138(18) 0.42888(14) 0.08466(15)
C62_4 C 0.98424(19) 0.38938(15) 0.11594(17)
H37_4 H 0.9628 0.3707 0.1402
C66_4 C 0.87898(17) 0.54818(14) 0.00073(16)
C67_4 C 0.82326(18) 0.54577(16) 0.02590(17)
H39_4 H 0.7897 0.5659 0.0186
C68_4 C 0.82678(18) 0.51041(15) 0.06123(16)
H40_4 H 0.7962 0.5007 0.0835
C69_4 C 0.88479(17) 0.48972(14) 0.05974(16)
C70_4 C 0.90451(18) 0.44810(14) 0.08814(14)
N14_4 N 0.91751(14) 0.51447(12) 0.02274(12)
C71_4 C 0.86054(17) 0.42289(15) 0.12108(15)
C72_4 C 0.83452(18) 0.44829(16) 0.16113(16)
H41_4 H 0.8473 0.4817 0.1684
N15_4 N 0.79244(15) 0.42810(13) 0.18992(13)
C73_4 C 0.7751(2) 0.38052(16) 0.17956(17)
H42_4 H 0.7451 0.3658 0.1995
C74_4 C 0.7990(2) 0.35246(16) 0.14151(16)
H43_4 H 0.7862 0.3188 0.1359
C75_4 C 0.84179(19) 0.37359(15) 0.11147(16)
H44_4 H 0.8583 0.3548 0.0846
C3_4 C 0.95857(19) 0.61651(15) 0.89526(16)
H2_4 H 0.9319 0.6394 0.8799
C64_4 C 0.94543(17) 0.58186(14) 0.93467(15)
C65_4 C 0.89008(18) 0.57840(15) 0.95910(15)
N13_4 N 0.99465(14) 0.55423(12) 0.94684(12)
C76_4 C 0.84109(18) 0.60927(14) 0.93930(15)
C77_4 C 0.82151(17) 0.65154(15) 0.96536(16)
H45_4 H 0.8411 0.6604 0.9956
C78_4 C 0.74970(19) 0.66797(15) 0.90756(17)
H46_4 H 0.7177 0.6882 0.8965
C79_4 C 0.7661(2) 0.62732(17) 0.87881(16)
H47_4 H 0.7458 0.6197 0.8486
C80_4 C 0.81300(18) 0.59742(15) 0.89474(16)
H48_4 H 0.8255 0.5693 0.8753
Cl9_3 Cl 0.23213(7) 0.03997(5) 0.18525(5)
Cl7_3 Cl 0.34301(5) 0.99123(4) 0.29195(5)
Cl8_3 Cl 0.17799(5) 0.91790(4) 0.26927(4)
Cl4_3 Cl 0.76787(7) 0.03997(5) 0.31475(5)
Cl2_3 Cl 0.65699(5) 0.99123(4) 0.20805(5)
Cl3_3 Cl 0.82201(5) 0.91790(4) 0.23073(4)
Cl2_4 Cl 0.15699(5) 0.49123(4) 0.20805(5)
Cl3_4 Cl 0.32201(5) 0.41790(4) 0.23073(4)
Cl4_4 Cl 0.26787(7) 0.53997(5) 0.31475(5)
Cl7_4 Cl 0.84301(5) 0.49123(4) 0.29195(5)
Cl8_4 Cl 0.67799(5) 0.41790(4) 0.26927(4)
Cl9_4 Cl 0.73213(7) 0.53997(5) 0.18525(5)
loop_
_geom_bond_atom_site_label_1
_geom_bond_atom_site_label_2
_geom_bond_site_symmetry_1
_geom_bond_site_symmetry_2
C1 C2 1_555 1_555
C2 H1 1_555 1_555
C3 C2 1_555 1_555
H2 C3 1_555 1_555
C10 C1 1_555 1_555
C11 C10 1_555 1_555
C12 C11 1_555 1_555
H5 C12 1_555 1_555
N3 C12 1_555 1_555
C13 N3 1_555 1_555
H6 C13 1_555 1_555
C14 C13 1_555 1_555
H7 C14 1_555 1_555
C15 C11 1_555 1_555
H8 C15 1_555 1_555
Mn2 N5 1_555 1_555
C21 C22 1_555 1_555
C22 H13 1_555 1_555
C30 C21 1_555 1_555
N5 C21 1_555 1_555
C36 C30 1_555 1_555
C37 C36 1_555 1_555
N8 C37 1_555 1_555
C38 N8 1_555 1_555
H22 C38 1_555 1_555
C39 C38 1_555 1_555
H23 C39 1_555 1_555
C40 C36 1_555 1_555
H24 C40 1_555 1_555
Mn3 Cl1 1_555 1_555
C41 C42 1_555 1_555
C42 H25 1_555 1_555
C43 C42 1_555 1_555
H26 C43 1_555 1_555
C44 C43 1_555 1_555
C45 C44 1_555 1_555
C46 C45 1_555 1_555
C47 C46 1_555 1_555
H27 C47 1_555 1_555
C48 C47 1_555 1_555
H28 C48 1_555 1_555
C49 C48 1_555 1_555
C50 C49 1_555 1_555
N9 Mn3 1_555 1_555
N10 Mn3 1_555 1_555
C51 C45 1_555 1_555
C52 C51 1_555 1_555
H29 C52 1_555 1_555
N11 Mn1 1_555 1_555
C53 N11 1_555 1_555
H30 C53 1_555 1_555
C54 C53 1_555 1_555
H31 C54 1_555 1_555
C55 C51 1_555 1_555
H32 C55 1_555 1_555
C56 C50 1_555 1_555
C57 C56 1_555 1_555
H33 C57 1_555 1_555
N12 Mn2 1_555 1_555
C58 N12 1_555 1_555
H34 C58 1_555 1_555
C59 C58 1_555 1_555
H35 C59 1_555 1_555
C60 C56 1_555 1_555
H36 C60 1_555 1_555
Mn4 N3 1_555 1_555
Cl2 Mn4 1_555 1_555
Cl3 Mn4 1_555 1_555
Mn6 N28 1_555 1_555
C64 C3 1_555 1_555
C65 C64 1_555 1_555
C66 C65 1_555 1_555
C67 C66 1_555 1_555
H39 C67 1_555 1_555
C68 C67 1_555 1_555
H40 C68 1_555 1_555
N13 Mn1 1_555 1_555
N14 Mn1 1_555 1_555
C76 C65 1_555 1_555
C77 C76 1_555 1_555
H45 C77 1_555 1_555
N17 C77 1_555 1_555
C78 N17 1_555 1_555
H46 C78 1_555 1_555
C79 C78 1_555 1_555
H47 C79 1_555 1_555
C80 C76 1_555 1_555
H48 C80 1_555 1_555
Mn7 N30 1_555 1_555
Cl6 Mn3 1_555 1_555
C101 C50 1_555 1_555
C102 C101 1_555 1_555
H61 C102 1_555 1_555
C103 C102 1_555 1_555
H62 C103 1_555 1_555
C104 C103 1_555 1_555
C105 C104 1_555 1_555
C106 C105 1_555 1_555
C107 C106 1_555 1_555
H63 C107 1_555 1_555
C108 C107 1_555 1_555
H64 C108 1_555 1_555
C109 C108 1_555 1_555
C110 C41 1_555 1_555
N26 Mn3 1_555 1_555
N27 Mn3 1_555 1_555
C111 C105 1_555 1_555
C112 C111 1_555 1_555
H65 C112 1_555 1_555
N28 C112 1_555 1_555
C113 N28 1_555 1_555
H66 C113 1_555 1_555
C114 C113 1_555 1_555
H67 C114 1_555 1_555
C115 C111 1_555 1_555
H68 C115 1_555 1_555
C116 C110 1_555 1_555
C117 C116 1_555 1_555
H69 C117 1_555 1_555
N30 C117 1_555 1_555
C118 N30 1_555 1_555
H70 C118 1_555 1_555
C119 C118 1_555 1_555
H71 C119 1_555 1_555
C120 C116 1_555 1_555
H72 C120 1_555 1_555
Mn11 N17 1_555 1_555
C1 N13 1_555 1_555
C9 C10 1_555 1_555
C14 C15 1_555 1_555
C39 C40 1_555 1_555
C41 N9 1_555 1_555
C44 N9 1_555 1_555
C46 N10 1_555 1_555
C49 N10 1_555 1_555
C52 N11 1_555 1_555
C54 C55 1_555 1_555
C57 N12 1_555 1_555
C59 C60 1_555 1_555
C64 N13 1_555 1_555
C66 N14 1_555 1_555
C79 C80 1_555 1_555
C101 N26 1_555 1_555
C104 N26 1_555 1_555
C106 N27 1_555 1_555
C109 C110 1_555 1_555
C109 N27 1_555 1_555
C114 C115 1_555 1_555
C119 C120 1_555 1_555
Mn1_2 N1 1_555 1_555
C4 C5 1_555 1_555
C5 C6 1_555 1_555
C6 C7 1_555 1_555
C7 H3 1_555 1_555
C8 C7 1_555 1_555
H4 C8 1_555 1_555
N1 C4 1_555 1_555
N2 Mn1_2 1_555 1_555
C16 C5 1_555 1_555
C17 C16 1_555 1_555
H9 C17 1_555 1_555
N4 C17 1_555 1_555
C18 N4 1_555 1_555
H10 C18 1_555 1_555
C19 C18 1_555 1_555
H11 C19 1_555 1_555
C20 C16 1_555 1_555
H12 C20 1_555 1_555
C27 H15 1_555 1_555
C28 C27 1_555 1_555
H16 C28 1_555 1_555
C29 C28 1_555 1_555
C61 N1 1_555 1_555
C62 C61 1_555 1_555
H37 C62 1_555 1_555
C63 C4 1_555 1_555
H38 C63 1_555 1_555
C70 C61 1_555 1_555
C71 C70 1_555 1_555
C72 C71 1_555 1_555
H41 C72 1_555 1_555
N15 C72 1_555 1_555
C73 N15 1_555 1_555
H42 C73 1_555 1_555
C74 C73 1_555 1_555
H43 C74 1_555 1_555
C75 C71 1_555 1_555
H44 C75 1_555 1_555
H50 C83 1_555 1_555
C84 C83 1_555 1_555
C85 C84 1_555 1_555
C86 C27 1_555 1_555
N21 Mn2_2 1_555 1_555
C91 C85 1_555 1_555
C92 C91 1_555 1_555
H53 C92 1_555 1_555
N22 C92 1_555 1_555
C93 N22 1_555 1_555
H54 C93 1_555 1_555
C94 C93 1_555 1_555
H55 C94 1_555 1_555
C95 C91 1_555 1_555
H56 C95 1_555 1_555
N29 Mn1_2 1_555 1_555
Mn9 N15 1_555 1_555
Mn12 N4 1_555 1_555
C6 N2 1_555 1_555
C19 C20 1_555 1_555
C29 N21 1_555 1_555
C62 C63 1_555 1_555
C69 C70 1_555 1_555
C74 C75 1_555 1_555
C85 C86 1_555 1_555
C86 N21 1_555 1_555
N22 Mn12 1_555 1_555
C94 C95 1_555 1_555
H14 C23 1_555 1_555
C24 C23 1_555 1_555
C25 C24 1_555 1_555
C26 C25 1_555 1_555
N6 Mn2_3 1_555 1_555
C31 C25 1_555 1_555
C32 C31 1_555 1_555
H17 C32 1_555 1_555
N7 C32 1_555 1_555
C33 N7 1_555 1_555
H18 C33 1_555 1_555
C34 C33 1_555 1_555
H19 C34 1_555 1_555
C35 C31 1_555 1_555
H20 C35 1_555 1_555
Mn11 N7 1_555 1_555
Cl5 Mn11 1_555 1_555
N16 Mn8 1_555 1_555
N18 Mn11 1_555 1_555
C87 C26 1_555 1_555
H51 C87 1_555 1_555
C88 C87 1_555 1_555
H52 C88 1_555 1_555
C89 N6 1_555 1_555
N23 Mn11 1_555 1_555
Cl7 Mn8 1_555 1_555
Cl8 Mn8 1_555 1_555
Cl10 Mn11 1_555 1_555
C26 N6 1_555 1_555
C34 C35 1_555 1_555
C88 C89 1_555 1_555
C81 C82 1_555 1_555
C82 H49 1_555 1_555
C90 C81 1_555 1_555
N20 Mn2_4 1_555 1_555
C96 C90 1_555 1_555
C97 C96 1_555 1_555
N24 C97 1_555 1_555
C98 N24 1_555 1_555
H58 C98 1_555 1_555
C99 C98 1_555 1_555
H59 C99 1_555 1_555
C100 C96 1_555 1_555
H60 C100 1_555 1_555
N31 Mn2_4 1_555 1_555
C81 N20 1_555 1_555
C99 C100 1_555 1_555
H14_2 C23_2 1_555 1_555
C24_2 C23_2 1_555 1_555
C25_2 C24_2 1_555 1_555
C26_2 C25_2 1_555 1_555
C31_2 C25_2 1_555 1_555
C32_2 C31_2 1_555 1_555
H17_2 C32_2 1_555 1_555
N7_2 C32_2 1_555 1_555
C33_2 N7_2 1_555 1_555
H18_2 C33_2 1_555 1_555
C34_2 C33_2 1_555 1_555
H19_2 C34_2 1_555 1_555
C35_2 C31_2 1_555 1_555
H20_2 C35_2 1_555 1_555
Mn5 N7_2 1_555 1_555
Cl5_2 Mn5 1_555 1_555
N18_2 Mn5 1_555 1_555
C34_2 C35_2 1_555 1_555
N6_2 Mn2_6 1_555 1_555
N19 Mn5_2 1_555 1_555
H51_2 C87_2 1_555 1_555
C88_2 C87_2 1_555 1_555
H52_2 C88_2 1_555 1_555
C89_2 N6_2 1_555 1_555
N23_2 Mn5_2 1_555 1_555
Cl10_2 Mn5_2 1_555 1_555
C88_2 C89_2 1_555 1_555
N31_2 Mn2_7 1_555 1_555
C81_2 C82_2 1_555 1_555
C82_2 H49_2 1_555 1_555
C90_2 C81_2 1_555 1_555
N20_2 Mn2_8 1_555 1_555
C96_2 C90_2 1_555 1_555
C97_2 C96_2 1_555 1_555
N25 C97_2 1_555 1_555
C98_2 N25 1_555 1_555
H58_2 C98_2 1_555 1_555
C99_2 C98_2 1_555 1_555
H59_2 C99_2 1_555 1_555
C100_2 C96_2 1_555 1_555
H60_2 C100_2 1_555 1_555
C81_2 N20_2 1_555 1_555
C99_2 C100_2 1_555 1_555
Mn2_9 N5_2 1_555 1_555
C21_2 C22_2 1_555 1_555
C22_2 H13_2 1_555 1_555
C30_2 C21_2 1_555 1_555
N5_2 C21_2 1_555 1_555
C36_2 C30_2 1_555 1_555
C37_2 C36_2 1_555 1_555
N8_2 C37_2 1_555 1_555
C38_2 N8_2 1_555 1_555
H22_2 C38_2 1_555 1_555
C39_2 C38_2 1_555 1_555
H23_2 C39_2 1_555 1_555
C40_2 C36_2 1_555 1_555
H24_2 C40_2 1_555 1_555
Mn3_2 Cl1_2 1_555 1_555
C41_2 C42_2 1_555 1_555
C42_2 H25_2 1_555 1_555
C43_2 C42_2 1_555 1_555
H26_2 C43_2 1_555 1_555
C44_2 C43_2 1_555 1_555
C45_2 C44_2 1_555 1_555
C46_2 C45_2 1_555 1_555
C47_2 C46_2 1_555 1_555
H27_2 C47_2 1_555 1_555
N9_2 Mn3_2 1_555 1_555
C51_2 C45_2 1_555 1_555
C52_2 C51_2 1_555 1_555
H29_2 C52_2 1_555 1_555
N11_2 Mn1_3 1_555 1_555
C53_2 N11_2 1_555 1_555
H30_2 C53_2 1_555 1_555
C54_2 C53_2 1_555 1_555
H31_2 C54_2 1_555 1_555
C55_2 C51_2 1_555 1_555
H32_2 C55_2 1_555 1_555
C67_2 C66_2 1_555 1_555
H39_2 C67_2 1_555 1_555
C68_2 C67_2 1_555 1_555
H40_2 C68_2 1_555 1_555
N14_2 Mn1_3 1_555 1_555
Mn7_2 N30_2 1_555 1_555
H64_2 C108_2 1_555 1_555
C109_2 C108_2 1_555 1_555
C110_2 C41_2 1_555 1_555
N27_2 Mn3_2 1_555 1_555
C116_2 C110_2 1_555 1_555
C117_2 C116_2 1_555 1_555
H69_2 C117_2 1_555 1_555
N30_2 C117_2 1_555 1_555
C118_2 N30_2 1_555 1_555
H70_2 C118_2 1_555 1_555
C119_2 C118_2 1_555 1_555
H71_2 C119_2 1_555 1_555
C120_2 C116_2 1_555 1_555
H72_2 C120_2 1_555 1_555
C39_2 C40_2 1_555 1_555
C41_2 N9_2 1_555 1_555
C44_2 N9_2 1_555 1_555
C52_2 N11_2 1_555 1_555
C54_2 C55_2 1_555 1_555
C66_2 N14_2 1_555 1_555
C109_2 C110_2 1_555 1_555
C109_2 N27_2 1_555 1_555
C119_2 C120_2 1_555 1_555
C1_2 C2_2 1_555 1_555
C2_2 H1_2 1_555 1_555
C3_2 C2_2 1_555 1_555
H2_2 C3_2 1_555 1_555
C10_2 C1_2 1_555 1_555
C11_2 C10_2 1_555 1_555
C12_2 C11_2 1_555 1_555
H5_2 C12_2 1_555 1_555
N16 C12_2 1_555 1_555
C13_2 N16 1_555 1_555
H6_2 C13_2 1_555 1_555
C14_2 C13_2 1_555 1_555
H7_2 C14_2 1_555 1_555
C15_2 C11_2 1_555 1_555
H8_2 C15_2 1_555 1_555
H28_2 C48_2 1_555 1_555
C49_2 C48_2 1_555 1_555
C50_2 C49_2 1_555 1_555
N10_2 Mn3_3 1_555 1_555
C56_2 C50_2 1_555 1_555
C57_2 C56_2 1_555 1_555
H33_2 C57_2 1_555 1_555
N12_2 Mn2_10 1_555 1_555
C58_2 N12_2 1_555 1_555
H34_2 C58_2 1_555 1_555
C59_2 C58_2 1_555 1_555
H35_2 C59_2 1_555 1_555
C60_2 C56_2 1_555 1_555
H36_2 C60_2 1_555 1_555
Mn6_6 N28_2 1_555 1_555
C64_2 C3_2 1_555 1_555
C65_2 C64_2 1_555 1_555
N13_2 Mn1_4 1_555 1_555
C76_2 C65_2 1_555 1_555
C77_2 C76_2 1_555 1_555
H45_2 C77_2 1_555 1_555
N19 C77_2 1_555 1_555
C78_2 N19 1_555 1_555
H46_2 C78_2 1_555 1_555
C79_2 C78_2 1_555 1_555
H47_2 C79_2 1_555 1_555
C80_2 C76_2 1_555 1_555
H48_2 C80_2 1_555 1_555
Cl6_2 Mn3_3 1_555 1_555
C101_2 C50_2 1_555 1_555
C102_2 C101_2 1_555 1_555
H61_2 C102_2 1_555 1_555
C103_2 C102_2 1_555 1_555
H62_2 C103_2 1_555 1_555
C104_2 C103_2 1_555 1_555
C105_2 C104_2 1_555 1_555
C106_2 C105_2 1_555 1_555
C107_2 C106_2 1_555 1_555
H63_2 C107_2 1_555 1_555
N26_2 Mn3_3 1_555 1_555
C111_2 C105_2 1_555 1_555
C112_2 C111_2 1_555 1_555
H65_2 C112_2 1_555 1_555
N28_2 C112_2 1_555 1_555
C113_2 N28_2 1_555 1_555
H66_2 C113_2 1_555 1_555
C114_2 C113_2 1_555 1_555
H67_2 C114_2 1_555 1_555
C115_2 C111_2 1_555 1_555
H68_2 C115_2 1_555 1_555
C1_2 N13_2 1_555 1_555
C9_2 C10_2 1_555 1_555
C14_2 C15_2 1_555 1_555
C49_2 N10_2 1_555 1_555
C57_2 N12_2 1_555 1_555
C59_2 C60_2 1_555 1_555
C64_2 N13_2 1_555 1_555
C79_2 C80_2 1_555 1_555
C101_2 N26_2 1_555 1_555
C104_2 N26_2 1_555 1_555
C114_2 C115_2 1_555 1_555
Mn1_5 N1_2 1_555 1_555
C4_2 C5_2 1_555 1_555
N1_2 C4_2 1_555 1_555
C16_2 C5_2 1_555 1_555
C17_2 C16_2 1_555 1_555
H9_2 C17_2 1_555 1_555
N4_2 C17_2 1_555 1_555
C18_2 N4_2 1_555 1_555
H10_2 C18_2 1_555 1_555
C19_2 C18_2 1_555 1_555
H11_2 C19_2 1_555 1_555
C20_2 C16_2 1_555 1_555
H12_2 C20_2 1_555 1_555
C27_2 H15_2 1_555 1_555
C28_2 C27_2 1_555 1_555
H16_2 C28_2 1_555 1_555
C29_2 C28_2 1_555 1_555
C61_2 N1_2 1_555 1_555
C62_2 C61_2 1_555 1_555
H37_2 C62_2 1_555 1_555
C63_2 C4_2 1_555 1_555
H38_2 C63_2 1_555 1_555
C70_2 C61_2 1_555 1_555
C71_2 C70_2 1_555 1_555
C72_2 C71_2 1_555 1_555
H41_2 C72_2 1_555 1_555
N15_2 C72_2 1_555 1_555
C73_2 N15_2 1_555 1_555
H42_2 C73_2 1_555 1_555
C74_2 C73_2 1_555 1_555
H43_2 C74_2 1_555 1_555
C75_2 C71_2 1_555 1_555
H44_2 C75_2 1_555 1_555
N21_2 Mn2_11 1_555 1_555
Mn10 N15_2 1_555 1_555
Mn12_2 N4_2 1_555 1_555
C19_2 C20_2 1_555 1_555
C29_2 N21_2 1_555 1_555
C62_2 C63_2 1_555 1_555
C69_2 C70_2 1_555 1_555
C74_2 C75_2 1_555 1_555
C6_2 C7_2 1_555 1_555
C7_2 H3_2 1_555 1_555
C8_2 C7_2 1_555 1_555
H4_2 C8_2 1_555 1_555
N2_2 Mn1_6 1_555 1_555
H50_2 C83_2 1_555 1_555
C84_2 C83_2 1_555 1_555
C85_2 C84_2 1_555 1_555
C91_2 C85_2 1_555 1_555
C92_2 C91_2 1_555 1_555
H53_2 C92_2 1_555 1_555
N22_2 C92_2 1_555 1_555
C93_2 N22_2 1_555 1_555
H54_2 C93_2 1_555 1_555
C94_2 C93_2 1_555 1_555
H55_2 C94_2 1_555 1_555
C95_2 C91_2 1_555 1_555
H56_2 C95_2 1_555 1_555
N29_2 Mn1_6 1_555 1_555
C6_2 N2_2 1_555 1_555
C85_2 C86_2 1_555 1_555
N22_2 Mn12_3 1_555 1_555
C94_2 C95_2 1_555 1_555
H2_3 C3_3 1_555 1_555
C62_3 C61_3 1_555 1_555
H37_3 C62_3 1_555 1_555
C64_3 C3_3 1_555 1_555
C65_3 C64_3 1_555 1_555
C66_3 C65_3 1_555 1_555
C67_3 C66_3 1_555 1_555
H39_3 C67_3 1_555 1_555
C68_3 C67_3 1_555 1_555
H40_3 C68_3 1_555 1_555
C69_3 C68_3 1_555 1_555
C70_3 C61_3 1_555 1_555
N13_3 Mn6 1_555 1_555
N14_3 Mn6 1_555 1_555
C71_3 C70_3 1_555 1_555
C72_3 C71_3 1_555 1_555
H41_3 C72_3 1_555 1_555
N15_3 C72_3 1_555 1_555
C73_3 N15_3 1_555 1_555
H42_3 C73_3 1_555 1_555
C74_3 C73_3 1_555 1_555
H43_3 C74_3 1_555 1_555
C75_3 C71_3 1_555 1_555
H44_3 C75_3 1_555 1_555
C76_3 C65_3 1_555 1_555
C77_3 C76_3 1_555 1_555
H45_3 C77_3 1_555 1_555
N17_2 C77_3 1_555 1_555
C78_3 N17_2 1_555 1_555
H46_3 C78_3 1_555 1_555
C79_3 C78_3 1_555 1_555
H47_3 C79_3 1_555 1_555
C80_3 C76_3 1_555 1_555
H48_3 C80_3 1_555 1_555
Mn9_2 N15_3 1_555 1_555
Mn12 N17_2 1_555 1_555
C64_3 N13_3 1_555 1_555
C66_3 N14_3 1_555 1_555
C69_3 C70_3 1_555 1_555
C69_3 N14_3 1_555 1_555
C74_3 C75_3 1_555 1_555
C79_3 C80_3 1_555 1_555
Mn6_2 N1_3 1_555 1_555
C1_3 C2_3 1_555 1_555
C2_3 H1_3 1_555 1_555
C4_3 C5_3 1_555 1_555
C5_3 C6_3 1_555 1_555
C6_3 C7_3 1_555 1_555
C7_3 H3_3 1_555 1_555
C8_3 C7_3 1_555 1_555
H4_3 C8_3 1_555 1_555
C9_3 C8_3 1_555 1_555
C10_3 C1_3 1_555 1_555
N1_3 C4_3 1_555 1_555
N2_3 Mn6_2 1_555 1_555
C11_3 C10_3 1_555 1_555
C12_3 C11_3 1_555 1_555
H5_3 C12_3 1_555 1_555
N3_2 C12_3 1_555 1_555
C13_3 N3_2 1_555 1_555
H6_3 C13_3 1_555 1_555
C14_3 C13_3 1_555 1_555
H7_3 C14_3 1_555 1_555
C15_3 C11_3 1_555 1_555
H8_3 C15_3 1_555 1_555
C16_3 C5_3 1_555 1_555
C17_3 C16_3 1_555 1_555
H9_3 C17_3 1_555 1_555
N18 C17_3 1_555 1_555
C18_3 N18 1_555 1_555
H10_3 C18_3 1_555 1_555
C19_3 C18_3 1_555 1_555
H11_3 C19_3 1_555 1_555
C20_3 C16_3 1_555 1_555
H12_3 C20_3 1_555 1_555
Mn7 N5_3 1_555 1_555
C21_3 C22_3 1_555 1_555
C22_3 H13_3 1_555 1_555
C23_3 C22_3 1_555 1_555
H14_3 C23_3 1_555 1_555
C24_3 C23_3 1_555 1_555
C25_3 C24_3 1_555 1_555
C26_3 C25_3 1_555 1_555
C27_3 H15_3 1_555 1_555
C28_3 C27_3 1_555 1_555
H16_3 C28_3 1_555 1_555
C29_3 C28_3 1_555 1_555
C30_3 C21_3 1_555 1_555
N5_3 C21_3 1_555 1_555
N6_3 Mn7 1_555 1_555
C31_3 C25_3 1_555 1_555
C32_3 C31_3 1_555 1_555
H17_3 C32_3 1_555 1_555
N7_3 C32_3 1_555 1_555
C33_3 N7_3 1_555 1_555
H18_3 C33_3 1_555 1_555
C34_3 C33_3 1_555 1_555
H19_3 C34_3 1_555 1_555
C35_3 C31_3 1_555 1_555
H20_3 C35_3 1_555 1_555
C36_3 C30_3 1_555 1_555
C37_3 C36_3 1_555 1_555
H21_3 C37_3 1_555 1_555
N8_3 C37_3 1_555 1_555
C38_3 N8_3 1_555 1_555
H22_3 C38_3 1_555 1_555
C39_3 C38_3 1_555 1_555
H23_3 C39_3 1_555 1_555
C40_3 C36_3 1_555 1_555
H24_3 C40_3 1_555 1_555
Mn3_4 Cl1_3 1_555 1_555
C41_3 C42_3 1_555 1_555
C42_3 H25_3 1_555 1_555
C43_3 C42_3 1_555 1_555
H26_3 C43_3 1_555 1_555
C44_3 C43_3 1_555 1_555
C45_3 C44_3 1_555 1_555
C46_3 C45_3 1_555 1_555
C47_3 C46_3 1_555 1_555
H27_3 C47_3 1_555 1_555
C48_3 C47_3 1_555 1_555
H28_3 C48_3 1_555 1_555
C49_3 C48_3 1_555 1_555
C50_3 C49_3 1_555 1_555
N9_3 Mn3_4 1_555 1_555
N10_3 Mn3_4 1_555 1_555
C51_3 C45_3 1_555 1_555
C52_3 C51_3 1_555 1_555
H29_3 C52_3 1_555 1_555
N11_3 Mn6_2 1_555 1_555
C53_3 N11_3 1_555 1_555
H30_3 C53_3 1_555 1_555
C54_3 C53_3 1_555 1_555
H31_3 C54_3 1_555 1_555
C55_3 C51_3 1_555 1_555
H32_3 C55_3 1_555 1_555
C56_3 C50_3 1_555 1_555
C57_3 C56_3 1_555 1_555
H33_3 C57_3 1_555 1_555
N12_3 Mn7 1_555 1_555
C58_3 N12_3 1_555 1_555
H34_3 C58_3 1_555 1_555
C59_3 C58_3 1_555 1_555
H35_3 C59_3 1_555 1_555
C60_3 C56_3 1_555 1_555
H36_3 C60_3 1_555 1_555
Mn4_2 N3_2 1_555 1_555
Cl2_2 Mn4_2 1_555 1_555
Cl3_2 Mn4_2 1_555 1_555
Cl4_2 Mn4_2 1_555 1_555
Mn12 N7_3 1_555 1_555
Cl5_3 Mn12 1_555 1_555
C63_3 C4_3 1_555 1_555
H38_3 C63_3 1_555 1_555
N16_2 Mn8_2 1_555 1_555
C81_3 C82_3 1_555 1_555
C82_3 H49_3 1_555 1_555
C83_3 C82_3 1_555 1_555
H50_3 C83_3 1_555 1_555
C84_3 C83_3 1_555 1_555
C85_3 C84_3 1_555 1_555
C86_3 C27_3 1_555 1_555
C87_3 C26_3 1_555 1_555
H51_3 C87_3 1_555 1_555
C88_3 C87_3 1_555 1_555
H52_3 C88_3 1_555 1_555
C89_3 N6_3 1_555 1_555
C90_3 C81_3 1_555 1_555
N20_3 Mn7 1_555 1_555
N21_3 Mn7 1_555 1_555
C91_3 C85_3 1_555 1_555
C92_3 C91_3 1_555 1_555
H53_3 C92_3 1_555 1_555
N23 C92_3 1_555 1_555
C93_3 N23 1_555 1_555
H54_3 C93_3 1_555 1_555
C94_3 C93_3 1_555 1_555
H55_3 C94_3 1_555 1_555
C95_3 C91_3 1_555 1_555
H56_3 C95_3 1_555 1_555
C96_3 C90_3 1_555 1_555
C97_3 C96_3 1_555 1_555
H57_3 C97_3 1_555 1_555
N24_2 C97_3 1_555 1_555
N25_2 Mn4_2 1_555 1_555
C98_3 N24_2 1_555 1_555
H58_3 C98_3 1_555 1_555
C99_3 C98_3 1_555 1_555
H59_3 C99_3 1_555 1_555
C100_3 C96_3 1_555 1_555
H60_3 C100_3 1_555 1_555
Cl6_3 Mn3_4 1_555 1_555
C101_3 C50_3 1_555 1_555
C102_3 C101_3 1_555 1_555
H61_3 C102_3 1_555 1_555
C103_3 C102_3 1_555 1_555
H62_3 C103_3 1_555 1_555
C104_3 C103_3 1_555 1_555
C105_3 C104_3 1_555 1_555
C106_3 C105_3 1_555 1_555
C107_3 C106_3 1_555 1_555
H63_3 C107_3 1_555 1_555
C108_3 C107_3 1_555 1_555
H64_3 C108_3 1_555 1_555
C109_3 C108_3 1_555 1_555
C110_3 C41_3 1_555 1_555
N26_3 Mn3_4 1_555 1_555
N27_3 Mn3_4 1_555 1_555
C111_3 C105_3 1_555 1_555
C112_3 C111_3 1_555 1_555
H65_3 C112_3 1_555 1_555
N29 C112_3 1_555 1_555
C113_3 N29 1_555 1_555
H66_3 C113_3 1_555 1_555
C114_3 C113_3 1_555 1_555
H67_3 C114_3 1_555 1_555
C115_3 C111_3 1_555 1_555
H68_3 C115_3 1_555 1_555
C116_3 C110_3 1_555 1_555
C117_3 C116_3 1_555 1_555
H69_3 C117_3 1_555 1_555
N31 C117_3 1_555 1_555
C118_3 N31 1_555 1_555
H70_3 C118_3 1_555 1_555
C119_3 C118_3 1_555 1_555
H71_3 C119_3 1_555 1_555
C120_3 C116_3 1_555 1_555
H72_3 C120_3 1_555 1_555
Mn8_2 N24_2 1_555 1_555
Mn10_2 N8_3 1_555 1_555
Cl7_2 Mn8_2 1_555 1_555
Cl8_2 Mn8_2 1_555 1_555
Cl9_2 Mn8_2 1_555 1_555
Cl10_3 Mn12 1_555 1_555
C6_3 N2_3 1_555 1_555
C9_3 C10_3 1_555 1_555
C9_3 N2_3 1_555 1_555
C14_3 C15_3 1_555 1_555
C19_3 C20_3 1_555 1_555
C24_3 N5_3 1_555 1_555
C26_3 N6_3 1_555 1_555
C29_3 C30_3 1_555 1_555
C29_3 N21_3 1_555 1_555
C34_3 C35_3 1_555 1_555
C39_3 C40_3 1_555 1_555
C41_3 N9_3 1_555 1_555
C44_3 N9_3 1_555 1_555
C46_3 N10_3 1_555 1_555
C49_3 N10_3 1_555 1_555
C52_3 N11_3 1_555 1_555
C54_3 C55_3 1_555 1_555
C57_3 N12_3 1_555 1_555
C59_3 C60_3 1_555 1_555
C81_3 N20_3 1_555 1_555
C84_3 N20_3 1_555 1_555
C85_3 C86_3 1_555 1_555
C86_3 N21_3 1_555 1_555
C88_3 C89_3 1_555 1_555
C89_3 C90_3 1_555 1_555
C94_3 C95_3 1_555 1_555
C99_3 C100_3 1_555 1_555
C101_3 N26_3 1_555 1_555
C104_3 N26_3 1_555 1_555
C106_3 N27_3 1_555 1_555
C109_3 C110_3 1_555 1_555
C109_3 N27_3 1_555 1_555
C114_3 C115_3 1_555 1_555
C119_3 C120_3 1_555 1_555
Mn6_3 N1_4 1_555 1_555
C4_4 C5_4 1_555 1_555
N1_4 C4_4 1_555 1_555
C16_4 C5_4 1_555 1_555
C17_4 C16_4 1_555 1_555
H9_4 C17_4 1_555 1_555
N18_2 C17_4 1_555 1_555
C18_4 N18_2 1_555 1_555
H10_4 C18_4 1_555 1_555
C19_4 C18_4 1_555 1_555
H11_4 C19_4 1_555 1_555
C20_4 C16_4 1_555 1_555
H12_4 C20_4 1_555 1_555
Mn7_2 N5_4 1_555 1_555
C21_4 C22_4 1_555 1_555
C22_4 H13_4 1_555 1_555
C23_4 C22_4 1_555 1_555
H14_4 C23_4 1_555 1_555
C24_4 C23_4 1_555 1_555
C25_4 C24_4 1_555 1_555
C26_4 C25_4 1_555 1_555
C27_4 H15_4 1_555 1_555
C28_4 C27_4 1_555 1_555
H16_4 C28_4 1_555 1_555
C29_4 C28_4 1_555 1_555
C30_4 C21_4 1_555 1_555
N5_4 C21_4 1_555 1_555
C31_4 C25_4 1_555 1_555
C32_4 C31_4 1_555 1_555
H17_4 C32_4 1_555 1_555
N7_4 C32_4 1_555 1_555
C33_4 N7_4 1_555 1_555
H18_4 C33_4 1_555 1_555
C34_4 C33_4 1_555 1_555
H19_4 C34_4 1_555 1_555
C35_4 C31_4 1_555 1_555
H20_4 C35_4 1_555 1_555
C36_4 C30_4 1_555 1_555
C37_4 C36_4 1_555 1_555
H21_4 C37_4 1_555 1_555
N8_4 C37_4 1_555 1_555
C38_4 N8_4 1_555 1_555
H22_4 C38_4 1_555 1_555
C39_4 C38_4 1_555 1_555
H23_4 C39_4 1_555 1_555
C40_4 C36_4 1_555 1_555
H24_4 C40_4 1_555 1_555
Mn3_5 Cl1_4 1_555 1_555
C41_4 C42_4 1_555 1_555
C42_4 H25_4 1_555 1_555
C43_4 C42_4 1_555 1_555
H26_4 C43_4 1_555 1_555
C44_4 C43_4 1_555 1_555
C45_4 C44_4 1_555 1_555
C46_4 C45_4 1_555 1_555
C47_4 C46_4 1_555 1_555
H27_4 C47_4 1_555 1_555
N9_4 Mn3_5 1_555 1_555
C51_4 C45_4 1_555 1_555
C52_4 C51_4 1_555 1_555
H29_4 C52_4 1_555 1_555
N11_4 Mn6_3 1_555 1_555
C53_4 N11_4 1_555 1_555
H30_4 C53_4 1_555 1_555
C54_4 C53_4 1_555 1_555
H31_4 C54_4 1_555 1_555
C55_4 C51_4 1_555 1_555
H32_4 C55_4 1_555 1_555
Mn12_2 N7_4 1_555 1_555
Cl5_4 Mn12_2 1_555 1_555
C63_4 C4_4 1_555 1_555
H38_4 C63_4 1_555 1_555
N21_4 Mn7_2 1_555 1_555
H64_4 C108_4 1_555 1_555
C109_4 C108_4 1_555 1_555
C110_4 C41_4 1_555 1_555
N27_4 Mn3_5 1_555 1_555
C116_4 C110_4 1_555 1_555
C117_4 C116_4 1_555 1_555
H69_4 C117_4 1_555 1_555
N31_2 C117_4 1_555 1_555
C118_4 N31_2 1_555 1_555
H70_4 C118_4 1_555 1_555
C119_4 C118_4 1_555 1_555
H71_4 C119_4 1_555 1_555
C120_4 C116_4 1_555 1_555
H72_4 C120_4 1_555 1_555
Mn9_2 N8_4 1_555 1_555
C19_4 C20_4 1_555 1_555
C24_4 N5_4 1_555 1_555
C29_4 C30_4 1_555 1_555
C29_4 N21_4 1_555 1_555
C34_4 C35_4 1_555 1_555
C39_4 C40_4 1_555 1_555
C41_4 N9_4 1_555 1_555
C44_4 N9_4 1_555 1_555
C52_4 N11_4 1_555 1_555
C54_4 C55_4 1_555 1_555
C109_4 C110_4 1_555 1_555
C109_4 N27_4 1_555 1_555
C119_4 C120_4 1_555 1_555
C1_4 C2_4 1_555 1_555
C2_4 H1_4 1_555 1_555
C6_4 C7_4 1_555 1_555
C7_4 H3_4 1_555 1_555
C8_4 C7_4 1_555 1_555
H4_4 C8_4 1_555 1_555
C9_4 C8_4 1_555 1_555
C10_4 C1_4 1_555 1_555
N2_4 Mn6_4 1_555 1_555
C11_4 C10_4 1_555 1_555
C12_4 C11_4 1_555 1_555
H5_4 C12_4 1_555 1_555
N16_2 C12_4 1_555 1_555
C13_4 N16_2 1_555 1_555
H6_4 C13_4 1_555 1_555
C14_4 C13_4 1_555 1_555
H7_4 C14_4 1_555 1_555
C15_4 C11_4 1_555 1_555
H8_4 C15_4 1_555 1_555
N6_4 Mn7_3 1_555 1_555
H28_4 C48_4 1_555 1_555
C49_4 C48_4 1_555 1_555
C50_4 C49_4 1_555 1_555
N10_4 Mn3_6 1_555 1_555
C56_4 C50_4 1_555 1_555
C57_4 C56_4 1_555 1_555
H33_4 C57_4 1_555 1_555
N12_4 Mn7_3 1_555 1_555
C58_4 N12_4 1_555 1_555
H34_4 C58_4 1_555 1_555
C59_4 C58_4 1_555 1_555
H35_4 C59_4 1_555 1_555
C60_4 C56_4 1_555 1_555
H36_4 C60_4 1_555 1_555
N19_2 Mn12_3 1_555 1_555
C81_4 C82_4 1_555 1_555
C82_4 H49_4 1_555 1_555
C83_4 C82_4 1_555 1_555
H50_4 C83_4 1_555 1_555
C84_4 C83_4 1_555 1_555
C85_4 C84_4 1_555 1_555
H51_4 C87_4 1_555 1_555
C88_4 C87_4 1_555 1_555
H52_4 C88_4 1_555 1_555
C89_4 N6_4 1_555 1_555
C90_4 C81_4 1_555 1_555
N20_4 Mn7_3 1_555 1_555
C91_4 C85_4 1_555 1_555
C92_4 C91_4 1_555 1_555
H53_4 C92_4 1_555 1_555
N23_2 C92_4 1_555 1_555
C93_4 N23_2 1_555 1_555
H54_4 C93_4 1_555 1_555
C94_4 C93_4 1_555 1_555
H55_4 C94_4 1_555 1_555
C95_4 C91_4 1_555 1_555
H56_4 C95_4 1_555 1_555
C96_4 C90_4 1_555 1_555
C97_4 C96_4 1_555 1_555
H57_4 C97_4 1_555 1_555
N25_2 C97_4 1_555 1_555
C98_4 N25_2 1_555 1_555
H58_4 C98_4 1_555 1_555
C99_4 C98_4 1_555 1_555
H59_4 C99_4 1_555 1_555
C100_4 C96_4 1_555 1_555
H60_4 C100_4 1_555 1_555
Cl6_4 Mn3_6 1_555 1_555
C101_4 C50_4 1_555 1_555
C102_4 C101_4 1_555 1_555
H61_4 C102_4 1_555 1_555
C103_4 C102_4 1_555 1_555
H62_4 C103_4 1_555 1_555
C104_4 C103_4 1_555 1_555
C105_4 C104_4 1_555 1_555
C106_4 C105_4 1_555 1_555
C107_4 C106_4 1_555 1_555
H63_4 C107_4 1_555 1_555
N26_4 Mn3_6 1_555 1_555
C111_4 C105_4 1_555 1_555
C112_4 C111_4 1_555 1_555
H65_4 C112_4 1_555 1_555
N29_2 C112_4 1_555 1_555
C113_4 N29_2 1_555 1_555
H66_4 C113_4 1_555 1_555
C114_4 C113_4 1_555 1_555
H67_4 C114_4 1_555 1_555
C115_4 C111_4 1_555 1_555
H68_4 C115_4 1_555 1_555
Cl10_4 Mn12_3 1_555 1_555
C6_4 N2_4 1_555 1_555
C9_4 C10_4 1_555 1_555
C9_4 N2_4 1_555 1_555
C14_4 C15_4 1_555 1_555
C49_4 N10_4 1_555 1_555
C57_4 N12_4 1_555 1_555
C59_4 C60_4 1_555 1_555
C81_4 N20_4 1_555 1_555
C84_4 N20_4 1_555 1_555
C85_4 C86_4 1_555 1_555
C88_4 C89_4 1_555 1_555
C89_4 C90_4 1_555 1_555
C94_4 C95_4 1_555 1_555
C99_4 C100_4 1_555 1_555
C101_4 N26_4 1_555 1_555
C104_4 N26_4 1_555 1_555
C114_4 C115_4 1_555 1_555
C62_4 C61_4 1_555 1_555
H37_4 C62_4 1_555 1_555
C67_4 C66_4 1_555 1_555
H39_4 C67_4 1_555 1_555
C68_4 C67_4 1_555 1_555
H40_4 C68_4 1_555 1_555
C69_4 C68_4 1_555 1_555
C70_4 C61_4 1_555 1_555
N14_4 Mn6_5 1_555 1_555
C71_4 C70_4 1_555 1_555
C72_4 C71_4 1_555 1_555
H41_4 C72_4 1_555 1_555
N15_4 C72_4 1_555 1_555
C73_4 N15_4 1_555 1_555
H42_4 C73_4 1_555 1_555
C74_4 C73_4 1_555 1_555
H43_4 C74_4 1_555 1_555
C75_4 C71_4 1_555 1_555
H44_4 C75_4 1_555 1_555
Mn10_2 N15_4 1_555 1_555
C66_4 N14_4 1_555 1_555
C69_4 C70_4 1_555 1_555
C69_4 N14_4 1_555 1_555
C74_4 C75_4 1_555 1_555
H2_4 C3_4 1_555 1_555
C64_4 C3_4 1_555 1_555
C65_4 C64_4 1_555 1_555
N13_4 Mn6_6 1_555 1_555
C76_4 C65_4 1_555 1_555
C77_4 C76_4 1_555 1_555
H45_4 C77_4 1_555 1_555
N19_2 C77_4 1_555 1_555
C78_4 N19_2 1_555 1_555
H46_4 C78_4 1_555 1_555
C79_4 C78_4 1_555 1_555
H47_4 C79_4 1_555 1_555
C80_4 C76_4 1_555 1_555
H48_4 C80_4 1_555 1_555
C64_4 N13_4 1_555 1_555
C79_4 C80_4 1_555 1_555
Cl7_3 Mn10 1_555 1_555
Cl8_3 Mn10 1_555 1_555
Cl2_3 Mn9 1_555 1_555
Cl3_3 Mn9 1_555 1_555
Cl2_4 Mn9_2 1_555 1_555
Cl3_4 Mn9_2 1_555 1_555
Cl4_4 Mn9_2 1_555 1_555
Cl7_4 Mn10_2 1_555 1_555
Cl8_4 Mn10_2 1_555 1_555
Cl9_4 Mn10_2 1_555 1_555

#END
