
###############################################################################
#
# This file contains modified crystal structure data generated from the
# MOF subset of the Cambridge Structural Database (CSD) v543 
# hosted by the Cambridge Crystallographic Data Centre (CCDC).
#
# This work is licensed under the Creative Commons
# Attribution-NonCommercial-ShareAlike 4.0 International License.
# To view a copy of this license, visit
# http://creativecommons.org/licenses/by-nc-sa/4.0/
# or send a letter to
# Creative Commons, PO Box 1866, Mountain View, CA 94042, USA.
#
# CIF created using the CSD Python API on 29 September 2022
# The structure has been converted into the P1 space group
# The structure has a 3D framework
# The original CSD entry ENOQOQ is in the triclinic crystal system
# The framework has been calculated to contain at least 10.0% void space
# The void calculation uses a probe of radius 1.32A, grid spacing 0.4
#
###############################################################################

data_ENOQOQ
_chemical_formula_moiety         '(C272 H232 Mn14 N32 O83)n'
_symmetry_cell_setting           triclinic
_symmetry_space_group_name_H-M   'P 1'
_symmetry_Int_Tables_number      1
_space_group_name_Hall           'P 1'
loop_
_symmetry_equiv_pos_site_id
_symmetry_equiv_pos_as_xyz
1 x,y,z
_cell_length_a                   18.591(6)
_cell_length_b                   20.664(7)
_cell_length_c                   23.418(7)
_cell_angle_alpha                89.887(13)
_cell_angle_beta                 72.480(7)
_cell_angle_gamma                88.020(14)
_cell_volume                     8573.58
loop_
_atom_site_label
_atom_site_type_symbol
_atom_site_fract_x
_atom_site_fract_y
_atom_site_fract_z
O57 O 0.0231(3) 0.0655(2) 0.9951(2)
O3 O 0.2219(3) 0.6222(2) 0.6564(2)
O4 O 0.3293(3) 0.6711(2) 0.6500(2)
O28 O 0.1196(3) 0.5309(3) 0.6304(3)
H1 H 0.1074 0.4944 0.6196
H2 H 0.1028 0.5344 0.6686
O36 O 0.0472(3) 0.7612(2) 0.5768(2)
N1 N 0.0284(3) 0.8078(3) 0.6687(3)
C15 C 0.0038(4) 0.7871(3) 0.6230(3)
C107 C 0.1446(4) 0.7418(3) 0.6603(3)
H73 H 0.1235 0.7060 0.6485
C109 C 0.1044(4) 0.8006(3) 0.6713(3)
C112 C 0.2591(4) 0.6717(3) 0.6566(3)
C115 C 0.2163(4) 0.7364(3) 0.6668(3)
C118 C 0.2481(4) 0.7895(4) 0.6849(3)
H80 H 0.2962 0.7859 0.6892
C120 C 0.1347(4) 0.8540(3) 0.6900(4)
H82 H 0.1073 0.8932 0.6982
C122 C 0.2069(4) 0.8482(4) 0.6964(4)
H86 H 0.2278 0.8840 0.7085
Mn2 Mn 0.24480(6) 0.53651(5) 0.60104(5)
O49 O 0.2486(3) 0.6106(2) 0.5293(2)
O54 O 0.2373(3) 0.4552(2) 0.5446(2)
O60 O 0.2467(3) 0.4775(2) 0.6837(2)
O63 O 0.3656(2) 0.5252(2) 0.57778(19)
Mn12 Mn 0.39986(5) 0.58705(4) 0.63492(4)
O26 O 0.8669(2) 0.0228(2) 0.07616(19)
O27 O 0.6244(3) 0.0204(3) 0.1485(3)
C121 C 0.8899(7) 0.2561(6) 0.0091(5)
H83 H 0.9241 0.2199 0.0084
H84 H 0.8763 0.2768 0.0477
H92 H 0.7427 0.3031 0.0347
C126 C 0.5571(8) 0.0797(6) 0.0932(7)
H93 H 0.5880 0.1137 0.0994
H94 H 0.5049 0.0925 0.1100
H95 H 0.5679 0.0715 0.0511
H97 H 0.7239 0.1186 0.0037
C128 C 0.5738(7) 0.0188(6) 0.1235(6)
Mn4 Mn 0.74634(6) 0.02578(5) 0.11096(5)
O55 O 0.7398(3) 0.1255(3) 0.1234(3)
Mn21 Mn 0.90534(5) 0.08115(5) 0.13341(4)
O25 O 0.8742(3) 0.1328(3) 0.9808(3)
N13 N 0.8195(7) 0.2324(5) 0.9969(4)
H85 H 0.9140 0.2865 0.9789
C124 C 0.7599(7) 0.2815(6) 0.9965(5)
H90 H 0.7184 0.2607 0.9887
H91 H 0.7798 0.3126 0.9657
C125 C 0.8225(6) 0.1741(5) 0.9857(4)
C127 C 0.7456(6) 0.1514(6) 0.9753(5)
H96 H 0.7107 0.1878 0.9804
H98 H 0.7563 0.1342 0.9354
Mn5 Mn 0.91834(6) 0.03529(5) 0.98221(4)
O51 O 0.9847(3) 0.0249(3) 0.8899(2)
O1 O 0.7309(3) 0.9861(3) 0.0343(2)
N14 N 0.5353(7) 0.9683(5) 0.1191(5)
H21 H 0.6317 0.9231 0.0136
C117 C 0.4737(10) 0.9588(11) 0.0957(10)
H77 H 0.4601 0.9990 0.0804
H78 H 0.4313 0.9439 0.1270
H79 H 0.4884 0.9271 0.0641
C123 C 0.5554(13) 0.9062(6) 0.1439(7)
H87 H 0.5959 0.9128 0.1605
H88 H 0.5710 0.8742 0.1125
H89 H 0.5122 0.8916 0.1747
O53 O 0.7468(3) 0.9769(3) 0.1896(2)
O58 O 0.9769(3) 0.9345(2) 0.0049(2)
Mn1 Mn 0.42021(5) 0.52493(5) 0.48353(4)
O2 O 0.8380(3) 0.9812(3) 0.9560(2)
O5 O 0.5230(2) 0.5680(2) 0.49326(19)
O6 O 0.4824(3) 0.6405(2) 0.5686(2)
O7 O 0.3719(3) 0.6166(2) 0.4754(2)
O9 O 0.0067(3) 0.9389(3) 0.8285(2)
O14 O 0.3370(3) 0.4679(2) 0.4626(2)
O16 O 0.8358(3) 0.1648(2) 0.1495(2)
O19 O 0.4851(3) 0.5102(2) 0.3887(2)
O20 O 0.5104(3) 0.4268(2) 0.3247(2)
O35 O 0.6684(3) 0.8501(5) 0.7539(3)
O37 O 0.8443(3) 0.7678(2) 0.4824(2)
O38 O 0.0229(3) 0.9812(2) 0.6339(2)
O40 O 0.1129(3) 0.8524(3) 0.3820(2)
O41 O 0.1927(3) 0.3773(3) 0.2460(3)
O42 O 0.5600(3) 0.2589(4) 0.0722(3)
O44 O 0.5162(3) 0.4803(3) 0.1368(2)
H9 H 0.9957 0.8268 0.6985
N2 N 0.7634(3) 0.8689(3) 0.7921(3)
H10 H 0.8117 0.8709 0.7825
N3 N 0.7213(3) 0.7660(3) 0.5411(2)
H11 H 0.6907 0.7793 0.5747
N4 N 0.1353(3) 0.8193(3) 0.4686(3)
H12 H 0.1171 0.8207 0.5070
N7 N 0.2781(3) 0.3508(3) 0.2949(3)
H15 H 0.3233 0.3358 0.2901
N8 N 0.5447(4) 0.3101(3) 0.1600(4)
H16 H 0.5131 0.3323 0.1881
N9 N 0.2341(3) 0.2515(3) 0.0439(3)
H17 H 0.2037 0.2608 0.0788
N10 N 0.3885(3) 0.4885(3) 0.1654(2)
H18 H 0.3485 0.4851 0.1544
C1 C 0.7691(4) 0.9685(3) 0.9812(3)
C2 C 0.7283(4) 0.9330(3) 0.9457(3)
C3 C 0.6551(4) 0.9136(4) 0.9734(3)
C4 C 0.6169(4) 0.8799(4) 0.9407(3)
H22 H 0.5684 0.8662 0.9596
C5 C 0.6502(4) 0.8666(4) 0.8807(3)
H23 H 0.6235 0.8454 0.8590
C6 C 0.7239(4) 0.8850(4) 0.8523(3)
C7 C 0.7631(4) 0.9187(4) 0.8847(3)
H24 H 0.8119 0.9315 0.8659
C8 C 0.7358(4) 0.8508(4) 0.7476(3)
C9 C 0.7939(4) 0.8294(3) 0.6888(3)
C10 C 0.8691(4) 0.8192(3) 0.6846(3)
H25 H 0.8854 0.8255 0.7179
C11 C 0.9211(4) 0.7993(3) 0.6297(3)
C12 C 0.8954(4) 0.7877(3) 0.5803(3)
H26 H 0.9295 0.7743 0.5441
C13 C 0.8187(4) 0.7963(3) 0.5853(3)
C14 C 0.7676(4) 0.8177(3) 0.6400(3)
H27 H 0.7166 0.8239 0.6437
C16 C 0.7955(4) 0.7772(3) 0.5316(3)
C17 C 0.6890(4) 0.7348(3) 0.5015(3)
C18 C 0.6259(4) 0.6982(3) 0.5272(3)
H28 H 0.6044 0.6984 0.5685
C19 C 0.5949(3) 0.6614(3) 0.4914(3)
C20 C 0.6265(4) 0.6612(3) 0.4288(3)
H29 H 0.6082 0.6346 0.4048
C21 C 0.6856(4) 0.7015(4) 0.4037(3)
H30 H 0.7042 0.7042 0.3622
C22 C 0.7181(4) 0.7385(3) 0.4390(3)
H31 H 0.7581 0.7649 0.4213
C23 C 0.5271(4) 0.6211(3) 0.5208(3)
C24 C 0.3031(4) 0.6361(3) 0.4900(3)
C25 C 0.2874(4) 0.6949(3) 0.4566(3)
C26 C 0.2189(4) 0.7301(3) 0.4775(3)
H32 H 0.1830 0.7185 0.5128
C27 C 0.2049(4) 0.7830(4) 0.4447(3)
C28 C 0.2580(5) 0.8003(4) 0.3911(4)
H33 H 0.2479 0.8349 0.3688
C29 C 0.3257(5) 0.7650(4) 0.3716(4)
H34 H 0.3616 0.7764 0.3362
C30 C 0.3407(4) 0.7131(4) 0.4043(3)
H35 H 0.3867 0.6903 0.3910
C31 C 0.0951(4) 0.8516(3) 0.4374(3)
C32 C 0.0267(4) 0.8884(3) 0.4752(3)
C33 C 0.0233(4) 0.9161(3) 0.5310(3)
H36 H 0.0654 0.9130 0.5446
C47 C 0.2727(4) 0.4480(3) 0.4886(3)
C48 C 0.2328(4) 0.4131(3) 0.4505(3)
C49 C 0.1570(4) 0.3996(3) 0.4735(3)
H43 H 0.1310 0.4090 0.5133
C50 C 0.1198(4) 0.3717(3) 0.4364(3)
H44 H 0.0690 0.3627 0.4520
C51 C 0.1573(4) 0.3571(3) 0.3768(3)
H45 H 0.1317 0.3394 0.3524
C52 C 0.2351(4) 0.3695(3) 0.3537(3)
C53 C 0.2710(4) 0.3977(3) 0.3914(3)
H46 H 0.3220 0.4063 0.3764
C54 C 0.2548(4) 0.3544(3) 0.2454(3)
C55 C 0.3090(4) 0.3289(3) 0.1880(3)
C56 C 0.3862(4) 0.3204(3) 0.1800(3)
H47 H 0.4050 0.3298 0.2115
C57 C 0.4361(4) 0.2980(3) 0.1254(3)
C58 C 0.4076(4) 0.2836(3) 0.0790(3)
H48 H 0.4406 0.2694 0.0425
C59 C 0.3312(4) 0.2897(3) 0.0854(3)
C60 C 0.2809(4) 0.3145(3) 0.1403(3)
H49 H 0.2299 0.3212 0.1444
C61 C 0.3065(4) 0.2685(4) 0.0330(3)
C62 C 0.2034(4) 0.2197(3) 0.0033(3)
C63 C 0.1365(4) 0.1882(3) 0.0283(3)
H50 H 0.1132 0.1906 0.0694
C68 C 0.0344(4) 0.1177(3) 0.0212(3)
C69 C 0.5192(4) 0.2867(4) 0.1165(3)
C70 C 0.6201(4) 0.3014(4) 0.1634(4)
C71 C 0.6500(4) 0.3517(4) 0.1886(4)
H54 H 0.6224 0.3904 0.1997
C72 C 0.7201(4) 0.3436(4) 0.1967(4)
H55 H 0.7398 0.3770 0.2133
C73 C 0.7610(4) 0.2861(3) 0.1802(3)
H56 H 0.8087 0.2812 0.1851
C74 C 0.7313(4) 0.2348(3) 0.1559(3)
C75 C 0.6610(4) 0.2438(3) 0.1469(3)
H57 H 0.6414 0.2108 0.1297
C76 C 0.7727(4) 0.1703(3) 0.1419(3)
C77 C 0.4741(4) 0.4796(3) 0.3458(3)
C78 C 0.4203(4) 0.5064(3) 0.3141(3)
C79 C 0.3669(5) 0.5549(4) 0.3409(4)
H58 H 0.3635 0.5709 0.3787
C80 C 0.3180(6) 0.5792(5) 0.3094(4)
H59 H 0.2812 0.6108 0.3269
C81 C 0.3247(5) 0.5562(4) 0.2523(3)
H60 H 0.2921 0.5720 0.2320
C82 C 0.3802(4) 0.5094(3) 0.2255(3)
C83 C 0.4262(4) 0.4834(3) 0.2569(3)
H61 H 0.4614 0.4504 0.2397
C84 C 0.4563(4) 0.4737(3) 0.1251(3)
C85 C 0.4585(4) 0.4465(3) 0.0654(3)
C86 C 0.3954(4) 0.4450(3) 0.0435(3)
H62 H 0.3481 0.4598 0.0674
C90 C 0.5278(4) 0.4223(3) 0.0294(3)
H64 H 0.5696 0.4241 0.0433
Mn8 Mn 0.57979(5) 0.47507(5) 0.51647(4)
O48 O 0.4770(2) 0.4320(2) 0.50674(19)
O50 O 0.9933(3) 0.0611(3) 0.1715(2)
O52 O 0.8407(3) 0.0279(2) 0.2108(2)
O56 O 0.9899(3) 0.1386(2) 0.0705(2)
O59 O 0.4896(3) 0.5732(2) 0.6753(2)
O61 O 0.3353(3) 0.5308(2) 0.7106(2)
Mn13 Mn 0.60014(5) 0.41295(4) 0.36508(4)
Mn22 Mn 0.09466(5) 0.91885(5) 0.86659(4)
O23 O 0.9367(3) 0.3202(2) 0.7233(2)
O24 O 0.8766(3) 0.4066(3) 0.7763(3)
H8 H 0.9750 0.4395 0.7688
O43 O 0.3534(3) 0.2641(3) 0.9832(2)
O45 O 0.6713(3) 0.4004(3) 0.9415(2)
O46 O 0.2746(3) 0.4052(3) 0.9961(2)
N11 N 0.6183(3) 0.3243(3) 0.8965(3)
H19 H 0.5771 0.3044 0.9010
N12 N 0.3524(3) 0.4325(3) 0.9031(3)
H20 H 0.3961 0.4472 0.8852
N16 N 0.9315(9) 0.3953(7) 0.5849(7)
C64 C 0.1037(4) 0.1530(3) 0.9922(3)
C65 C 0.1382(5) 0.1486(4) 0.9316(3)
H51 H 0.1168 0.1248 0.9076
C66 C 0.2058(5) 0.1802(4) 0.9059(4)
H52 H 0.2286 0.1774 0.8647
C67 C 0.2393(5) 0.2153(4) 0.9405(4)
H53 H 0.2845 0.2356 0.9231
C87 C 0.4046(4) 0.4214(3) 0.9859(3)
C88 C 0.4744(4) 0.3950(3) 0.9514(3)
H63 H 0.4796 0.3771 0.9139
C89 C 0.5368(4) 0.3956(3) 0.9735(3)
C91 C 0.6149(4) 0.3728(4) 0.9358(3)
C92 C 0.6820(4) 0.3021(3) 0.8483(3)
C93 C 0.6699(4) 0.2489(4) 0.8156(3)
H65 H 0.6252 0.2267 0.8287
C94 C 0.7253(4) 0.2298(4) 0.7636(4)
H66 H 0.7170 0.1950 0.7415
C95 C 0.7935(4) 0.2615(4) 0.7437(3)
H67 H 0.8297 0.2490 0.7081
C96 C 0.8058(4) 0.3121(3) 0.7779(3)
C97 C 0.7496(4) 0.3333(3) 0.8304(3)
H68 H 0.7579 0.3678 0.8527
C98 C 0.8779(4) 0.3494(4) 0.7578(3)
C99 C 0.3372(4) 0.4197(3) 0.9627(3)
C100 C 0.3027(4) 0.4238(4) 0.8670(3)
C101 C 0.2471(6) 0.3790(5) 0.8816(4)
H69 H 0.2402 0.3541 0.9158
C102 C 0.2021(7) 0.3712(6) 0.8454(5)
H70 H 0.1631 0.3423 0.8562
C103 C 0.2142(6) 0.4060(5) 0.7929(4)
H71 H 0.1841 0.3993 0.7683
C104 C 0.2702(4) 0.4504(4) 0.7769(3)
C105 C 0.3147(4) 0.4592(3) 0.8154(3)
H72 H 0.3526 0.4891 0.8057
C106 C 0.2856(4) 0.4893(3) 0.7194(3)
C129 C 0.9271(9) 0.4958(7) 0.6375(7)
H99 H 0.9557 0.5164 0.6598
H100 H 0.8762 0.4912 0.6626
H101 H 0.9270 0.5217 0.6035
C130 C 0.8607(10) 0.4236(9) 0.5769(8)
H102 H 0.8546 0.4681 0.5896
H103 H 0.8185 0.4000 0.6006
H104 H 0.8631 0.4209 0.5355
C131 C 0.9620(9) 0.4304(8) 0.6167(6)
C132 C 0.9545(6) 0.3269(5) 0.5686(5)
H106 H 0.9603 0.3202 0.5268
H107 H 0.9165 0.2992 0.5921
C134 C 0.9789(6) 0.2428(6) 0.8351(5)
H108 H 0.9503 0.2831 0.8430
H109 H 0.9858 0.2266 0.8716
H110 H 0.9522 0.2119 0.8193
Mn18 Mn 0.08166(6) 0.96471(5) 0.01779(4)
C39 C 0.8880(4) 0.0229(3) 0.7219(3)
C40 C 0.8351(4) 0.0721(4) 0.7463(3)
H39 H 0.8048 0.0890 0.7243
C41 C 0.8268(5) 0.0960(4) 0.8027(3)
H40 H 0.7895 0.1277 0.8190
C42 C 0.8732(4) 0.0737(4) 0.8358(3)
H41 H 0.8696 0.0918 0.8729
C43 C 0.9256(4) 0.0229(4) 0.8117(3)
O39 O 0.7647(3) 0.9201(2) 0.5074(2)
N5 N 0.8953(3) 0.9970(3) 0.6639(2)
H13 H 0.8548 0.9938 0.6537
N6 N 0.8391(3) 0.9420(3) 0.4122(2)
H14 H 0.8843 0.9517 0.3922
C34 C 0.9577(4) 0.9479(3) 0.5658(3)
C35 C 0.8938(4) 0.9514(3) 0.5460(3)
H37 H 0.8491 0.9709 0.5700
C36 C 0.8974(4) 0.9256(3) 0.4905(3)
C37 C 0.9638(4) 0.8949(3) 0.4549(3)
H38 H 0.9660 0.8787 0.4174
C38 C 0.9605(4) 0.9773(3) 0.6244(3)
C44 C 0.9337(4) 0.9976(3) 0.7551(3)
H42 H 0.9690 0.9642 0.7394
C45 C 0.9748(4) 0.9928(4) 0.8463(3)
C46 C 0.7853(4) 0.9923(3) 0.2241(3)
C108 C 0.7597(4) 0.9649(3) 0.2872(3)
C110 C 0.8270(4) 0.9294(3) 0.4717(3)
C111 C 0.8072(4) 0.9675(3) 0.3221(3)
H74 H 0.8535 0.9869 0.3074
C113 C 0.7864(4) 0.9409(3) 0.3801(3)
C114 C 0.6890(5) 0.9372(4) 0.3086(4)
H75 H 0.6573 0.9352 0.2847
C116 C 0.7145(4) 0.9142(4) 0.4024(3)
H76 H 0.6990 0.8977 0.4410
C119 C 0.6672(5) 0.9125(4) 0.3667(4)
H81 H 0.6201 0.8946 0.3817
O12 O 0.2532(3) 0.0231(3) 0.8104(2)
O17 O 0.0101(3) 0.8614(2) 0.9295(2)
O39_2 O 0.2353(3) 0.0799(2) 0.4926(2)
N5_2 N 0.1047(3) 0.0030(3) 0.3361(2)
H13_2 H 0.1452 0.0062 0.3463
N6_2 N 0.1609(3) 0.0580(3) 0.5878(2)
H14_2 H 0.1157 0.0483 0.6078
C34_2 C 0.0423(4) 0.0521(3) 0.4342(3)
C35_2 C 0.1062(4) 0.0486(3) 0.4540(3)
H37_2 H 0.1509 0.0291 0.4300
C36_2 C 0.1026(4) 0.0744(3) 0.5095(3)
C37_2 C 0.0362(4) 0.1051(3) 0.5451(3)
H38_2 H 0.0340 0.1213 0.5826
C38_2 C 0.0395(4) 0.0227(3) 0.3756(3)
C44_2 C 0.0663(4) 0.0024(3) 0.2449(3)
H42_2 H 0.0310 0.0358 0.2606
C45_2 C 0.0252(4) 0.0072(4) 0.1537(3)
C46_2 C 0.2147(4) 0.0077(3) 0.7759(3)
C108_2 C 0.2403(4) 0.0351(3) 0.7128(3)
C110_2 C 0.1730(4) 0.0706(3) 0.5283(3)
C111_2 C 0.1928(4) 0.0325(3) 0.6779(3)
H74_2 H 0.1465 0.0131 0.6926
C113_2 C 0.2136(4) 0.0591(3) 0.6199(3)
C114_2 C 0.3110(5) 0.0628(4) 0.6914(4)
H75_2 H 0.3427 0.0648 0.7153
C116_2 C 0.2855(4) 0.0858(4) 0.5976(3)
H76_2 H 0.3010 0.1023 0.5590
C119_2 C 0.3328(5) 0.0875(4) 0.6333(4)
H81_2 H 0.3799 0.1054 0.6183
O10 O 0.0153(3) 0.9751(3) 0.1101(2)
O11 O 0.1593(3) 0.9721(2) 0.7892(2)
C39_2 C 0.1120(4) 0.9771(3) 0.2781(3)
C40_2 C 0.1649(4) 0.9279(4) 0.2537(3)
H39_2 H 0.1952 0.9110 0.2757
C41_2 C 0.1732(5) 0.9040(4) 0.1973(3)
H40_2 H 0.2105 0.8723 0.1810
C42_2 C 0.1268(4) 0.9263(4) 0.1642(3)
H41_2 H 0.1304 0.9082 0.1271
C43_2 C 0.0744(4) 0.9771(4) 0.1883(3)
Mn14 Mn 0.25366(6) 0.97422(5) 0.88904(5)
O21 O 0.7533(3) 0.5225(2) 0.3163(2)
O22 O 0.6647(3) 0.4692(2) 0.2894(2)
O23_2 O 0.0633(3) 0.6798(2) 0.2767(2)
O24_2 O 0.1234(3) 0.5934(3) 0.2237(3)
H8_2 H 0.0250 0.5605 0.2312
O43_2 O 0.6466(3) 0.7359(3) 0.0168(2)
O45_2 O 0.3287(3) 0.5996(3) 0.0585(2)
O46_2 O 0.7254(3) 0.5948(3) 0.0039(2)
N11_2 N 0.3817(3) 0.6757(3) 0.1035(3)
H19_2 H 0.4229 0.6956 0.0990
N12_2 N 0.6476(3) 0.5675(3) 0.0969(3)
H20_2 H 0.6039 0.5528 0.1148
N16_2 N 0.0685(9) 0.6047(7) 0.4151(7)
C64_2 C 0.8963(4) 0.8470(3) 0.0078(3)
C65_2 C 0.8618(5) 0.8514(4) 0.0684(3)
H51_2 H 0.8832 0.8752 0.0924
C66_2 C 0.7942(5) 0.8198(4) 0.0941(4)
H52_2 H 0.7714 0.8226 0.1353
C67_2 C 0.7607(5) 0.7847(4) 0.0595(4)
H53_2 H 0.7155 0.7644 0.0769
C87_2 C 0.5954(4) 0.5786(3) 0.0141(3)
C88_2 C 0.5256(4) 0.6050(3) 0.0486(3)
H63_2 H 0.5204 0.6229 0.0861
C89_2 C 0.4632(4) 0.6044(3) 0.0265(3)
C91_2 C 0.3851(4) 0.6272(4) 0.0642(3)
C92_2 C 0.3180(4) 0.6979(3) 0.1517(3)
C93_2 C 0.3301(4) 0.7511(4) 0.1844(3)
H65_2 H 0.3748 0.7733 0.1713
C94_2 C 0.2747(4) 0.7702(4) 0.2364(4)
H66_2 H 0.2830 0.8050 0.2585
C95_2 C 0.2065(4) 0.7385(4) 0.2563(3)
H67_2 H 0.1703 0.7510 0.2919
C96_2 C 0.1942(4) 0.6879(3) 0.2221(3)
C97_2 C 0.2504(4) 0.6667(3) 0.1696(3)
H68_2 H 0.2421 0.6322 0.1473
C98_2 C 0.1221(4) 0.6506(4) 0.2422(3)
C99_2 C 0.6628(4) 0.5803(3) 0.0373(3)
C100_2 C 0.6973(4) 0.5762(4) 0.1330(3)
C101_2 C 0.7529(6) 0.6210(5) 0.1184(4)
H69_2 H 0.7598 0.6459 0.0842
C102_2 C 0.7979(7) 0.6288(6) 0.1546(5)
H70_2 H 0.8369 0.6577 0.1438
C103_2 C 0.7858(6) 0.5940(5) 0.2071(4)
H71_2 H 0.8159 0.6007 0.2317
C104_2 C 0.7298(4) 0.5496(4) 0.2231(3)
C105_2 C 0.6853(4) 0.5408(3) 0.1846(3)
H72_2 H 0.6474 0.5109 0.1943
C106_2 C 0.7144(4) 0.5107(3) 0.2806(3)
C129_2 C 0.0729(9) 0.5042(7) 0.3625(7)
H99_2 H 0.0443 0.4836 0.3402
H100_2 H 0.1238 0.5088 0.3374
H101_2 H 0.0730 0.4783 0.3965
C130_2 C 0.1393(10) 0.5764(9) 0.4231(8)
H102_2 H 0.1454 0.5319 0.4104
H103_2 H 0.1815 0.6000 0.3994
H104_2 H 0.1369 0.5791 0.4645
C131_2 C 0.0380(9) 0.5696(8) 0.3833(6)
C132_2 C 0.0455(6) 0.6731(5) 0.4314(5)
H106_2 H 0.0397 0.6798 0.4732
H107_2 H 0.0835 0.7008 0.4079
C134_2 C 0.0211(6) 0.7572(6) 0.1649(5)
H108_2 H 0.0497 0.7169 0.1570
H109_2 H 0.0142 0.7734 0.1284
H110_2 H 0.0478 0.7881 0.1807
Mn9 Mn 0.75520(6) 0.46349(5) 0.39896(5)
O2_2 O 0.1620(3) 0.0188(3) 0.0440(2)
O6_2 O 0.5176(3) 0.3595(2) 0.4314(2)
O7_2 O 0.6281(3) 0.3834(2) 0.5246(2)
O8 O 0.7514(3) 0.3894(2) 0.4707(2)
O13 O 0.7627(3) 0.5448(2) 0.4554(2)
O14_2 O 0.6630(3) 0.5321(2) 0.5374(2)
O15 O 0.2602(3) 0.8745(3) 0.8766(3)
O16_2 O 0.1642(3) 0.8352(2) 0.8505(2)
O19_2 O 0.5149(3) 0.4898(2) 0.6113(2)
O29 O 0.6344(2) 0.4748(2) 0.42222(19)
O35_2 O 0.3316(3) 0.1499(5) 0.2461(3)
O37_2 O 0.1557(3) 0.2322(2) 0.5176(2)
O38_2 O 0.9771(3) 0.0188(2) 0.3661(2)
O40_2 O 0.8871(3) 0.1476(3) 0.6180(2)
O41_2 O 0.8073(3) 0.6227(3) 0.7540(3)
O42_2 O 0.4400(3) 0.7411(4) 0.9278(3)
O44_2 O 0.4838(3) 0.5197(3) 0.8632(2)
H9_2 H 0.0043 0.1732 0.3015
N2_2 N 0.2366(3) 0.1311(3) 0.2079(3)
H10_2 H 0.1883 0.1291 0.2175
N3_2 N 0.2787(3) 0.2340(3) 0.4589(2)
H11_2 H 0.3093 0.2207 0.4253
N4_2 N 0.8647(3) 0.1807(3) 0.5314(3)
H12_2 H 0.8829 0.1793 0.4930
N7_2 N 0.7219(3) 0.6492(3) 0.7051(3)
H15_2 H 0.6767 0.6642 0.7099
N8_2 N 0.4553(4) 0.6899(3) 0.8400(4)
H16_2 H 0.4869 0.6677 0.8119
N9_2 N 0.7659(3) 0.7485(3) 0.9561(3)
H17_2 H 0.7963 0.7392 0.9212
N10_2 N 0.6115(3) 0.5115(3) 0.8346(2)
H18_2 H 0.6515 0.5149 0.8456
C1_2 C 0.2309(4) 0.0315(3) 0.0188(3)
C2_2 C 0.2717(4) 0.0670(3) 0.0543(3)
C3_2 C 0.3449(4) 0.0864(4) 0.0266(3)
C4_2 C 0.3831(4) 0.1201(4) 0.0593(3)
H22_2 H 0.4316 0.1338 0.0404
C5_2 C 0.3498(4) 0.1334(4) 0.1193(3)
H23_2 H 0.3765 0.1546 0.1410
C6_2 C 0.2761(4) 0.1150(4) 0.1477(3)
C7_2 C 0.2369(4) 0.0813(4) 0.1153(3)
H24_2 H 0.1881 0.0685 0.1341
C8_2 C 0.2642(4) 0.1492(4) 0.2524(3)
C9_2 C 0.2061(4) 0.1706(3) 0.3112(3)
C10_2 C 0.1309(4) 0.1808(3) 0.3154(3)
H25_2 H 0.1146 0.1745 0.2821
C11_2 C 0.0789(4) 0.2007(3) 0.3703(3)
C12_2 C 0.1046(4) 0.2123(3) 0.4197(3)
H26_2 H 0.0705 0.2257 0.4559
C13_2 C 0.1813(4) 0.2037(3) 0.4147(3)
C14_2 C 0.2324(4) 0.1823(3) 0.3600(3)
H27_2 H 0.2834 0.1761 0.3563
C16_2 C 0.2045(4) 0.2228(3) 0.4684(3)
C17_2 C 0.3110(4) 0.2652(3) 0.4985(3)
C18_2 C 0.3741(4) 0.3018(3) 0.4728(3)
H28_2 H 0.3956 0.3016 0.4315
C19_2 C 0.4051(3) 0.3386(3) 0.5086(3)
C20_2 C 0.3735(4) 0.3388(3) 0.5712(3)
H29_2 H 0.3918 0.3654 0.5952
C21_2 C 0.3144(4) 0.2985(4) 0.5963(3)
H30_2 H 0.2958 0.2958 0.6378
C22_2 C 0.2819(4) 0.2615(3) 0.5610(3)
H31_2 H 0.2419 0.2351 0.5787
C23_2 C 0.4729(4) 0.3789(3) 0.4792(3)
C24_2 C 0.6969(4) 0.3639(3) 0.5100(3)
C25_2 C 0.7126(4) 0.3051(3) 0.5434(3)
C26_2 C 0.7811(4) 0.2699(3) 0.5225(3)
H32_2 H 0.8170 0.2815 0.4872
C27_2 C 0.7951(4) 0.2170(4) 0.5553(3)
C28_2 C 0.7420(5) 0.1997(4) 0.6089(4)
H33_2 H 0.7521 0.1651 0.6312
C29_2 C 0.6743(5) 0.2350(4) 0.6284(4)
H34_2 H 0.6384 0.2236 0.6638
C30_2 C 0.6593(4) 0.2869(4) 0.5957(3)
H35_2 H 0.6133 0.3097 0.6090
C31_2 C 0.9049(4) 0.1484(3) 0.5626(3)
C32_2 C 0.9733(4) 0.1116(3) 0.5248(3)
C33_2 C 0.9767(4) 0.0839(3) 0.4690(3)
H36_2 H 0.9346 0.0870 0.4554
C47_2 C 0.7273(4) 0.5520(3) 0.5114(3)
C48_2 C 0.7672(4) 0.5869(3) 0.5495(3)
C49_2 C 0.8430(4) 0.6004(3) 0.5265(3)
H43_2 H 0.8690 0.5910 0.4867
C50_2 C 0.8802(4) 0.6283(3) 0.5636(3)
H44_2 H 0.9310 0.6373 0.5480
C51_2 C 0.8427(4) 0.6429(3) 0.6232(3)
H45_2 H 0.8683 0.6606 0.6476
C52_2 C 0.7649(4) 0.6305(3) 0.6463(3)
C53_2 C 0.7290(4) 0.6023(3) 0.6086(3)
H46_2 H 0.6780 0.5937 0.6236
C54_2 C 0.7452(4) 0.6456(3) 0.7546(3)
C55_2 C 0.6910(4) 0.6711(3) 0.8120(3)
C56_2 C 0.6138(4) 0.6796(3) 0.8200(3)
H47_2 H 0.5950 0.6702 0.7885
C57_2 C 0.5639(4) 0.7020(3) 0.8746(3)
C58_2 C 0.5924(4) 0.7164(3) 0.9210(3)
H48_2 H 0.5594 0.7306 0.9575
C59_2 C 0.6688(4) 0.7103(3) 0.9146(3)
C60_2 C 0.7191(4) 0.6855(3) 0.8597(3)
H49_2 H 0.7701 0.6788 0.8556
C61_2 C 0.6935(4) 0.7315(4) 0.9670(3)
C62_2 C 0.7966(4) 0.7803(3) 0.9967(3)
C63_2 C 0.8635(4) 0.8118(3) 0.9717(3)
H50_2 H 0.8868 0.8094 0.9306
C68_2 C 0.9656(4) 0.8823(3) 0.9788(3)
C69_2 C 0.4808(4) 0.7133(4) 0.8835(3)
C70_2 C 0.3799(4) 0.6986(4) 0.8366(4)
C71_2 C 0.3500(4) 0.6483(4) 0.8114(4)
H54_2 H 0.3776 0.6096 0.8003
C72_2 C 0.2799(4) 0.6564(4) 0.8033(4)
H55_2 H 0.2602 0.6230 0.7867
C73_2 C 0.2390(4) 0.7139(3) 0.8198(3)
H56_2 H 0.1913 0.7188 0.8149
C74_2 C 0.2687(4) 0.7652(3) 0.8441(3)
C75_2 C 0.3390(4) 0.7562(3) 0.8531(3)
H57_2 H 0.3586 0.7892 0.8703
C76_2 C 0.2273(4) 0.8297(3) 0.8581(3)
C77_2 C 0.5259(4) 0.5204(3) 0.6542(3)
C78_2 C 0.5797(4) 0.4936(3) 0.6859(3)
C79_2 C 0.6331(5) 0.4451(4) 0.6591(4)
H58_2 H 0.6365 0.4291 0.6213
C80_2 C 0.6820(6) 0.4208(5) 0.6906(4)
H59_2 H 0.7188 0.3892 0.6731
C81_2 C 0.6753(5) 0.4438(4) 0.7477(3)
H60_2 H 0.7079 0.4280 0.7680
C82_2 C 0.6198(4) 0.4906(3) 0.7745(3)
C83_2 C 0.5738(4) 0.5166(3) 0.7431(3)
H61_2 H 0.5386 0.5496 0.7603
C84_2 C 0.5437(4) 0.5263(3) 0.8749(3)
C85_2 C 0.5415(4) 0.5535(3) 0.9346(3)
C86_2 C 0.6046(4) 0.5550(3) 0.9565(3)
H62_2 H 0.6519 0.5402 0.9326
C90_2 C 0.4722(4) 0.5777(3) 0.9706(3)
H64_2 H 0.4304 0.5759 0.9567
O47 O 0.6707(3) 0.3289(2) 0.3500(2)
O62 O 0.1331(2) 0.9772(2) 0.92384(19)
O1_2 O 0.2691(3) 0.0139(3) 0.9657(2)
N14_2 N 0.4647(7) 0.0317(5) 0.8809(5)
H21_2 H 0.3683 0.0769 0.9864
C117_2 C 0.5263(10) 0.0412(11) 0.9043(10)
H77_2 H 0.5399 0.0010 0.9196
H78_2 H 0.5687 0.0561 0.8730
H79_2 H 0.5116 0.0729 0.9359
C123_2 C 0.4446(13) 0.0938(6) 0.8561(7)
H87_2 H 0.4041 0.0872 0.8395
H88_2 H 0.4290 0.1258 0.8875
H89_2 H 0.4878 0.1084 0.8253
O25_2 O 0.1258(3) 0.8672(3) 0.0192(3)
N13_2 N 0.1805(7) 0.7676(5) 0.0031(4)
H85_2 H 0.0860 0.7135 0.0211
C124_2 C 0.2401(7) 0.7185(6) 0.0035(5)
H90_2 H 0.2816 0.7393 0.0113
H91_2 H 0.2202 0.6874 0.0343
C125_2 C 0.1775(6) 0.8259(5) 0.0143(4)
C127_2 C 0.2544(6) 0.8486(6) 0.0247(5)
H96_2 H 0.2893 0.8122 0.0196
H98_2 H 0.2437 0.8658 0.0646
O27_2 O 0.3756(3) 0.9796(3) 0.8515(3)
C121_2 C 0.1101(7) 0.7439(6) 0.9909(5)
H83_2 H 0.0759 0.7801 0.9916
H84_2 H 0.1237 0.7232 0.9523
H92_2 H 0.2573 0.6969 0.9653
C126_2 C 0.4429(8) 0.9203(6) 0.9068(7)
H93_2 H 0.4120 0.8863 0.9006
H94_2 H 0.4951 0.9075 0.8900
H95_2 H 0.4321 0.9285 0.9489
H97_2 H 0.2761 0.8814 0.9963
C128_2 C 0.4262(7) 0.9812(6) 0.8765(6)
O3_2 O 0.7781(3) 0.3778(2) 0.3436(2)
O28_2 O 0.8804(3) 0.4691(3) 0.3696(3)
H1_2 H 0.8926 0.5056 0.3804
H2_2 H 0.8972 0.4656 0.3314
O36_2 O 0.9528(3) 0.2388(2) 0.4232(2)
N1_2 N 0.9716(3) 0.1922(3) 0.3313(3)
C15_2 C 0.9962(4) 0.2129(3) 0.3770(3)
C107_2 C 0.8554(4) 0.2582(3) 0.3397(3)
H73_2 H 0.8765 0.2940 0.3515
C109_2 C 0.8956(4) 0.1994(3) 0.3287(3)
C112_2 C 0.7409(4) 0.3283(3) 0.3434(3)
C115_2 C 0.7837(4) 0.2636(3) 0.3332(3)
C118_2 C 0.7519(4) 0.2105(4) 0.3151(3)
H80_2 H 0.7038 0.2141 0.3108
C120_2 C 0.8653(4) 0.1460(3) 0.3100(4)
H82_2 H 0.8927 0.1068 0.3018
C122_2 C 0.7931(4) 0.1518(4) 0.3036(4)
H86_2 H 0.7722 0.1160 0.2915
O30 O 0.0882(3) 0.2629(3) 0.6378(2)
H3 H 0.0520 0.2364 0.6465
H4 H 0.0999 0.2715 0.6003
O31 O 0.1661(3) 0.3874(2) 0.6507(2)
H5 H 0.1975 0.3551 0.6441
H6 H 0.1687 0.4061 0.6177
O32 O 0.0778(3) 0.3071(2) 0.7655(2)
O33 O 0.0193(4) 0.4429(3) 0.7448(4)
H7 H 0.0201 0.4748 0.7217
O34 O 0.0232(4) 0.4023(4) 0.6183(3)
N15 N 0.0971(6) 0.2018(5) 0.7769(5)
H105 H 0.0015 0.3169 0.5762
C133 C 0.0567(6) 0.2534(5) 0.7890(5)
C135 C 0.1743(5) 0.2095(5) 0.7328(4)
H111 H 0.1821 0.2546 0.7238
H112 H 0.1778 0.1860 0.6967
H113 H 0.2121 0.1929 0.7498
C136 C 0.0715(5) 0.1366(4) 0.7969(4)
H114 H 0.0214 0.1398 0.8244
H115 H 0.1051 0.1166 0.8165
H116 H 0.0714 0.1107 0.7629
Mn7 Mn 0.05242(6) 0.35380(5) 0.69066(5)
O30_2 O 0.9118(3) 0.7371(3) 0.3622(2)
H3_2 H 0.9480 0.7636 0.3535
H4_2 H 0.9001 0.7285 0.3997
O31_2 O 0.8339(3) 0.6126(2) 0.3493(2)
H5_2 H 0.8025 0.6449 0.3559
H6_2 H 0.8313 0.5939 0.3823
O32_2 O 0.9222(3) 0.6929(2) 0.2345(2)
O33_2 O 0.9807(4) 0.5571(3) 0.2552(4)
H7_2 H 0.9799 0.5252 0.2783
O34_2 O 0.9768(4) 0.5977(4) 0.3817(3)
N15_2 N 0.9029(6) 0.7982(5) 0.2231(5)
H105_2 H 0.9985 0.6831 0.4238
C133_2 C 0.9433(6) 0.7466(5) 0.2110(5)
C135_2 C 0.8257(5) 0.7905(5) 0.2672(4)
H111_2 H 0.8179 0.7454 0.2762
H112_2 H 0.8222 0.8140 0.3033
H113_2 H 0.7879 0.8071 0.2502
C136_2 C 0.9285(5) 0.8634(4) 0.2031(4)
H114_2 H 0.9786 0.8602 0.1756
H115_2 H 0.8949 0.8834 0.1835
H116_2 H 0.9286 0.8893 0.2371
Mn7_2 Mn 0.94758(6) 0.64620(5) 0.30934(5)
loop_
_geom_bond_atom_site_label_1
_geom_bond_atom_site_label_2
_geom_bond_site_symmetry_1
_geom_bond_site_symmetry_2
O3 C112 1_555 1_555
O4 C112 1_555 1_555
O28 H1 1_555 1_555
H2 O28 1_555 1_555
O36 C15 1_555 1_555
C15 N1 1_555 1_555
C107 H73 1_555 1_555
C109 N1 1_555 1_555
C112 C115 1_555 1_555
C115 C107 1_555 1_555
C118 C115 1_555 1_555
H80 C118 1_555 1_555
C120 C109 1_555 1_555
H82 C120 1_555 1_555
C122 C118 1_555 1_555
H86 C122 1_555 1_555
Mn2 O3 1_555 1_555
O49 Mn2 1_555 1_555
O54 Mn2 1_555 1_555
O60 Mn2 1_555 1_555
O63 Mn2 1_555 1_555
Mn12 O4 1_555 1_555
O28 Mn2 1_555 1_555
C107 C109 1_555 1_555
C120 C122 1_555 1_555
O63 Mn12 1_555 1_555
O26 Mn4 1_555 1_555
O27 C128 1_555 1_555
C121 H83 1_555 1_555
H84 C121 1_555 1_555
C126 H93 1_555 1_555
H94 C126 1_555 1_555
H95 C126 1_555 1_555
O55 Mn4 1_555 1_555
Mn21 O26 1_555 1_555
O27 Mn4 1_555 1_555
C126 C128 1_555 1_555
O25 C125 1_555 1_555
C124 N13 1_555 1_555
H90 C124 1_555 1_555
H91 C124 1_555 1_555
C125 N13 1_555 1_555
C127 C125 1_555 1_555
H96 C127 1_555 1_555
H98 C127 1_555 1_555
O51 Mn5 1_555 1_555
O25 Mn5 1_555 1_555
N14 C117 1_555 1_555
C117 H77 1_555 1_555
H78 C117 1_555 1_555
H79 C117 1_555 1_555
C123 N14 1_555 1_555
H87 C123 1_555 1_555
H88 C123 1_555 1_555
H89 C123 1_555 1_555
Mn1 O5 1_555 1_555
O2 C1 1_555 1_555
O5 C23 1_555 1_555
O6 C23 1_555 1_555
O7 Mn1 1_555 1_555
O49 C24 1_555 1_555
O54 C47 1_555 1_555
O14 Mn1 1_555 1_555
O55 C76 1_555 1_555
O16 C76 1_555 1_555
O19 Mn1 1_555 1_555
O20 C77 1_555 1_555
O63 Mn1 1_555 1_555
O35 C8 1_555 1_555
O37 C16 1_555 1_555
O40 C31 1_555 1_555
O41 C54 1_555 1_555
O42 C69 1_555 1_555
O44 C84 1_555 1_555
N2 H10 1_555 1_555
N3 H11 1_555 1_555
N4 H12 1_555 1_555
N7 H15 1_555 1_555
N8 H16 1_555 1_555
N9 H17 1_555 1_555
N10 H18 1_555 1_555
C1 C2 1_555 1_555
C2 C3 1_555 1_555
C4 C3 1_555 1_555
H22 C4 1_555 1_555
C5 C4 1_555 1_555
H23 C5 1_555 1_555
C6 N2 1_555 1_555
C7 C2 1_555 1_555
H24 C7 1_555 1_555
C8 N2 1_555 1_555
C9 C8 1_555 1_555
C10 C9 1_555 1_555
H25 C10 1_555 1_555
C11 C10 1_555 1_555
C12 C11 1_555 1_555
H26 C12 1_555 1_555
C13 C12 1_555 1_555
C14 C9 1_555 1_555
H27 C14 1_555 1_555
C16 N3 1_555 1_555
C17 N3 1_555 1_555
C18 C17 1_555 1_555
H28 C18 1_555 1_555
C19 C18 1_555 1_555
C20 C19 1_555 1_555
H29 C20 1_555 1_555
C21 C20 1_555 1_555
H30 C21 1_555 1_555
C22 C17 1_555 1_555
H31 C22 1_555 1_555
C23 C19 1_555 1_555
C24 O7 1_555 1_555
C25 C24 1_555 1_555
C26 C25 1_555 1_555
H32 C26 1_555 1_555
C27 N4 1_555 1_555
C28 C27 1_555 1_555
H33 C28 1_555 1_555
C29 C28 1_555 1_555
H34 C29 1_555 1_555
C30 C25 1_555 1_555
H35 C30 1_555 1_555
C31 N4 1_555 1_555
C32 C31 1_555 1_555
C33 C32 1_555 1_555
H36 C33 1_555 1_555
C47 O14 1_555 1_555
C48 C47 1_555 1_555
C49 C48 1_555 1_555
H43 C49 1_555 1_555
C50 C49 1_555 1_555
H44 C50 1_555 1_555
C51 C50 1_555 1_555
H45 C51 1_555 1_555
C52 N7 1_555 1_555
C53 C48 1_555 1_555
H46 C53 1_555 1_555
C54 N7 1_555 1_555
C55 C54 1_555 1_555
C56 C55 1_555 1_555
H47 C56 1_555 1_555
C57 C56 1_555 1_555
C58 C57 1_555 1_555
H48 C58 1_555 1_555
C59 C58 1_555 1_555
C60 C55 1_555 1_555
H49 C60 1_555 1_555
C61 N9 1_555 1_555
C62 N9 1_555 1_555
C63 C62 1_555 1_555
H50 C63 1_555 1_555
C69 N8 1_555 1_555
C70 N8 1_555 1_555
C71 C70 1_555 1_555
H54 C71 1_555 1_555
C72 C71 1_555 1_555
H55 C72 1_555 1_555
C73 C72 1_555 1_555
H56 C73 1_555 1_555
C74 C73 1_555 1_555
C75 C70 1_555 1_555
H57 C75 1_555 1_555
C76 C74 1_555 1_555
C77 O19 1_555 1_555
C78 C77 1_555 1_555
C79 C78 1_555 1_555
H58 C79 1_555 1_555
C80 C79 1_555 1_555
H59 C80 1_555 1_555
C81 C80 1_555 1_555
H60 C81 1_555 1_555
C82 N10 1_555 1_555
C83 C78 1_555 1_555
H61 C83 1_555 1_555
C84 N10 1_555 1_555
C85 C84 1_555 1_555
C86 C85 1_555 1_555
H62 C86 1_555 1_555
C90 C85 1_555 1_555
H64 C90 1_555 1_555
Mn12 O6 1_555 1_555
Mn21 O16 1_555 1_555
Mn8 O5 1_555 1_555
O48 Mn1 1_555 1_555
O50 Mn21 1_555 1_555
O52 Mn21 1_555 1_555
O56 Mn21 1_555 1_555
O59 Mn12 1_555 1_555
O61 Mn12 1_555 1_555
Mn13 O20 1_555 1_555
Mn22 O9 1_555 1_555
C5 C6 1_555 1_555
C6 C7 1_555 1_555
C13 C14 1_555 1_555
C13 C16 1_555 1_555
C21 C22 1_555 1_555
C26 C27 1_555 1_555
C29 C30 1_555 1_555
C51 C52 1_555 1_555
C52 C53 1_555 1_555
C57 C69 1_555 1_555
C59 C60 1_555 1_555
C59 C61 1_555 1_555
C74 C75 1_555 1_555
C81 C82 1_555 1_555
C82 C83 1_555 1_555
Mn8 O48 1_555 1_555
O60 C106 1_555 1_555
O61 C106 1_555 1_555
O23 C98 1_555 1_555
O24 C98 1_555 1_555
O45 C91 1_555 1_555
O46 C99 1_555 1_555
N11 H19 1_555 1_555
N12 H20 1_555 1_555
N16 C130 1_555 1_555
C65 C64 1_555 1_555
H51 C65 1_555 1_555
C66 C65 1_555 1_555
H52 C66 1_555 1_555
H53 C67 1_555 1_555
C88 C87 1_555 1_555
H63 C88 1_555 1_555
C89 C88 1_555 1_555
C91 N11 1_555 1_555
C92 N11 1_555 1_555
C93 C92 1_555 1_555
H65 C93 1_555 1_555
C94 C93 1_555 1_555
H66 C94 1_555 1_555
C95 C94 1_555 1_555
H67 C95 1_555 1_555
C96 C95 1_555 1_555
C97 C92 1_555 1_555
H68 C97 1_555 1_555
C98 C96 1_555 1_555
C99 N12 1_555 1_555
C100 N12 1_555 1_555
C101 C100 1_555 1_555
H69 C101 1_555 1_555
C102 C101 1_555 1_555
H70 C102 1_555 1_555
C103 C102 1_555 1_555
H71 C103 1_555 1_555
C104 C103 1_555 1_555
C105 C100 1_555 1_555
H72 C105 1_555 1_555
C106 C104 1_555 1_555
C129 H99 1_555 1_555
H100 C129 1_555 1_555
H101 C129 1_555 1_555
C130 H102 1_555 1_555
H103 C130 1_555 1_555
H104 C130 1_555 1_555
C131 N16 1_555 1_555
C132 N16 1_555 1_555
H106 C132 1_555 1_555
H107 C132 1_555 1_555
C134 H108 1_555 1_555
H109 C134 1_555 1_555
H110 C134 1_555 1_555
C66 C67 1_555 1_555
C87 C99 1_555 1_555
C89 C91 1_555 1_555
C96 C97 1_555 1_555
C104 C105 1_555 1_555
C129 C131 1_555 1_555
C40 C39 1_555 1_555
H39 C40 1_555 1_555
C41 C40 1_555 1_555
H40 C41 1_555 1_555
C42 C41 1_555 1_555
H41 C42 1_555 1_555
C43 C42 1_555 1_555
O53 C46 1_555 1_555
O39 C110 1_555 1_555
N5 H13 1_555 1_555
N6 H14 1_555 1_555
C35 C34 1_555 1_555
H37 C35 1_555 1_555
C36 C35 1_555 1_555
H38 C37 1_555 1_555
C38 N5 1_555 1_555
H42 C44 1_555 1_555
C46 C108 1_555 1_555
C108 C111 1_555 1_555
C110 N6 1_555 1_555
C111 H74 1_555 1_555
C113 N6 1_555 1_555
C114 C108 1_555 1_555
H75 C114 1_555 1_555
C116 C113 1_555 1_555
H76 C116 1_555 1_555
C119 C114 1_555 1_555
H81 C119 1_555 1_555
C34 C38 1_555 1_555
C36 C37 1_555 1_555
C36 C110 1_555 1_555
C111 C113 1_555 1_555
C116 C119 1_555 1_555
O12 C46_2 1_555 1_555
O39_2 C110_2 1_555 1_555
N5_2 H13_2 1_555 1_555
N6_2 H14_2 1_555 1_555
C35_2 C34_2 1_555 1_555
H37_2 C35_2 1_555 1_555
C36_2 C35_2 1_555 1_555
H38_2 C37_2 1_555 1_555
C38_2 N5_2 1_555 1_555
H42_2 C44_2 1_555 1_555
C46_2 C108_2 1_555 1_555
C108_2 C111_2 1_555 1_555
C110_2 N6_2 1_555 1_555
C111_2 H74_2 1_555 1_555
C113_2 N6_2 1_555 1_555
C114_2 C108_2 1_555 1_555
H75_2 C114_2 1_555 1_555
C116_2 C113_2 1_555 1_555
H76_2 C116_2 1_555 1_555
C119_2 C114_2 1_555 1_555
H81_2 C119_2 1_555 1_555
Mn22 O17 1_555 1_555
C34_2 C38_2 1_555 1_555
C36_2 C37_2 1_555 1_555
C36_2 C110_2 1_555 1_555
C111_2 C113_2 1_555 1_555
C116_2 C119_2 1_555 1_555
C40_2 C39_2 1_555 1_555
H39_2 C40_2 1_555 1_555
C41_2 C40_2 1_555 1_555
H40_2 C41_2 1_555 1_555
C42_2 C41_2 1_555 1_555
H41_2 C42_2 1_555 1_555
C43_2 C42_2 1_555 1_555
Mn18 O10 1_555 1_555
Mn22 O11 1_555 1_555
O21 C106_2 1_555 1_555
O22 C106_2 1_555 1_555
O23_2 C98_2 1_555 1_555
O24_2 C98_2 1_555 1_555
O45_2 C91_2 1_555 1_555
O46_2 C99_2 1_555 1_555
N11_2 H19_2 1_555 1_555
N12_2 H20_2 1_555 1_555
N16_2 C130_2 1_555 1_555
C65_2 C64_2 1_555 1_555
H51_2 C65_2 1_555 1_555
C66_2 C65_2 1_555 1_555
H52_2 C66_2 1_555 1_555
H53_2 C67_2 1_555 1_555
C88_2 C87_2 1_555 1_555
H63_2 C88_2 1_555 1_555
C89_2 C88_2 1_555 1_555
C91_2 N11_2 1_555 1_555
C92_2 N11_2 1_555 1_555
C93_2 C92_2 1_555 1_555
H65_2 C93_2 1_555 1_555
C94_2 C93_2 1_555 1_555
H66_2 C94_2 1_555 1_555
C95_2 C94_2 1_555 1_555
H67_2 C95_2 1_555 1_555
C96_2 C95_2 1_555 1_555
C97_2 C92_2 1_555 1_555
H68_2 C97_2 1_555 1_555
C98_2 C96_2 1_555 1_555
C99_2 N12_2 1_555 1_555
C100_2 N12_2 1_555 1_555
C101_2 C100_2 1_555 1_555
H69_2 C101_2 1_555 1_555
C102_2 C101_2 1_555 1_555
H70_2 C102_2 1_555 1_555
C103_2 C102_2 1_555 1_555
H71_2 C103_2 1_555 1_555
C104_2 C103_2 1_555 1_555
C105_2 C100_2 1_555 1_555
H72_2 C105_2 1_555 1_555
C106_2 C104_2 1_555 1_555
C129_2 H99_2 1_555 1_555
H100_2 C129_2 1_555 1_555
H101_2 C129_2 1_555 1_555
C130_2 H102_2 1_555 1_555
H103_2 C130_2 1_555 1_555
H104_2 C130_2 1_555 1_555
C131_2 N16_2 1_555 1_555
C132_2 N16_2 1_555 1_555
H106_2 C132_2 1_555 1_555
H107_2 C132_2 1_555 1_555
C134_2 H108_2 1_555 1_555
H109_2 C134_2 1_555 1_555
H110_2 C134_2 1_555 1_555
Mn9 O21 1_555 1_555
Mn13 O22 1_555 1_555
C66_2 C67_2 1_555 1_555
C87_2 C99_2 1_555 1_555
C89_2 C91_2 1_555 1_555
C96_2 C97_2 1_555 1_555
C104_2 C105_2 1_555 1_555
C129_2 C131_2 1_555 1_555
O2_2 C1_2 1_555 1_555
O48 C23_2 1_555 1_555
O6_2 C23_2 1_555 1_555
O7_2 Mn8 1_555 1_555
O8 C24_2 1_555 1_555
O13 C47_2 1_555 1_555
O14_2 Mn8 1_555 1_555
O15 C76_2 1_555 1_555
O16_2 C76_2 1_555 1_555
O19_2 Mn8 1_555 1_555
O59 C77_2 1_555 1_555
O29 Mn8 1_555 1_555
O35_2 C8_2 1_555 1_555
O37_2 C16_2 1_555 1_555
O40_2 C31_2 1_555 1_555
O41_2 C54_2 1_555 1_555
O42_2 C69_2 1_555 1_555
O44_2 C84_2 1_555 1_555
N2_2 H10_2 1_555 1_555
N3_2 H11_2 1_555 1_555
N4_2 H12_2 1_555 1_555
N7_2 H15_2 1_555 1_555
N8_2 H16_2 1_555 1_555
N9_2 H17_2 1_555 1_555
N10_2 H18_2 1_555 1_555
C1_2 C2_2 1_555 1_555
C2_2 C3_2 1_555 1_555
C4_2 C3_2 1_555 1_555
H22_2 C4_2 1_555 1_555
C5_2 C4_2 1_555 1_555
H23_2 C5_2 1_555 1_555
C6_2 N2_2 1_555 1_555
C7_2 C2_2 1_555 1_555
H24_2 C7_2 1_555 1_555
C8_2 N2_2 1_555 1_555
C9_2 C8_2 1_555 1_555
C10_2 C9_2 1_555 1_555
H25_2 C10_2 1_555 1_555
C11_2 C10_2 1_555 1_555
C12_2 C11_2 1_555 1_555
H26_2 C12_2 1_555 1_555
C13_2 C12_2 1_555 1_555
C14_2 C9_2 1_555 1_555
H27_2 C14_2 1_555 1_555
C16_2 N3_2 1_555 1_555
C17_2 N3_2 1_555 1_555
C18_2 C17_2 1_555 1_555
H28_2 C18_2 1_555 1_555
C19_2 C18_2 1_555 1_555
C20_2 C19_2 1_555 1_555
H29_2 C20_2 1_555 1_555
C21_2 C20_2 1_555 1_555
H30_2 C21_2 1_555 1_555
C22_2 C17_2 1_555 1_555
H31_2 C22_2 1_555 1_555
C23_2 C19_2 1_555 1_555
C24_2 O7_2 1_555 1_555
C25_2 C24_2 1_555 1_555
C26_2 C25_2 1_555 1_555
H32_2 C26_2 1_555 1_555
C27_2 N4_2 1_555 1_555
C28_2 C27_2 1_555 1_555
H33_2 C28_2 1_555 1_555
C29_2 C28_2 1_555 1_555
H34_2 C29_2 1_555 1_555
C30_2 C25_2 1_555 1_555
H35_2 C30_2 1_555 1_555
C31_2 N4_2 1_555 1_555
C32_2 C31_2 1_555 1_555
C33_2 C32_2 1_555 1_555
H36_2 C33_2 1_555 1_555
C47_2 O14_2 1_555 1_555
C48_2 C47_2 1_555 1_555
C49_2 C48_2 1_555 1_555
H43_2 C49_2 1_555 1_555
C50_2 C49_2 1_555 1_555
H44_2 C50_2 1_555 1_555
C51_2 C50_2 1_555 1_555
H45_2 C51_2 1_555 1_555
C52_2 N7_2 1_555 1_555
C53_2 C48_2 1_555 1_555
H46_2 C53_2 1_555 1_555
C54_2 N7_2 1_555 1_555
C55_2 C54_2 1_555 1_555
C56_2 C55_2 1_555 1_555
H47_2 C56_2 1_555 1_555
C57_2 C56_2 1_555 1_555
C58_2 C57_2 1_555 1_555
H48_2 C58_2 1_555 1_555
C59_2 C58_2 1_555 1_555
C60_2 C55_2 1_555 1_555
H49_2 C60_2 1_555 1_555
C61_2 N9_2 1_555 1_555
C62_2 N9_2 1_555 1_555
C63_2 C62_2 1_555 1_555
H50_2 C63_2 1_555 1_555
C69_2 N8_2 1_555 1_555
C70_2 N8_2 1_555 1_555
C71_2 C70_2 1_555 1_555
H54_2 C71_2 1_555 1_555
C72_2 C71_2 1_555 1_555
H55_2 C72_2 1_555 1_555
C73_2 C72_2 1_555 1_555
H56_2 C73_2 1_555 1_555
C74_2 C73_2 1_555 1_555
C75_2 C70_2 1_555 1_555
H57_2 C75_2 1_555 1_555
C76_2 C74_2 1_555 1_555
C77_2 O19_2 1_555 1_555
C78_2 C77_2 1_555 1_555
C79_2 C78_2 1_555 1_555
H58_2 C79_2 1_555 1_555
C80_2 C79_2 1_555 1_555
H59_2 C80_2 1_555 1_555
C81_2 C80_2 1_555 1_555
H60_2 C81_2 1_555 1_555
C82_2 N10_2 1_555 1_555
C83_2 C78_2 1_555 1_555
H61_2 C83_2 1_555 1_555
C84_2 N10_2 1_555 1_555
C85_2 C84_2 1_555 1_555
C86_2 C85_2 1_555 1_555
H62_2 C86_2 1_555 1_555
C90_2 C85_2 1_555 1_555
H64_2 C90_2 1_555 1_555
Mn13 O6_2 1_555 1_555
Mn22 O16_2 1_555 1_555
O47 Mn13 1_555 1_555
O62 Mn22 1_555 1_555
Mn9 O8 1_555 1_555
Mn14 O15 1_555 1_555
O13 Mn9 1_555 1_555
O29 Mn13 1_555 1_555
O29 Mn9 1_555 1_555
C5_2 C6_2 1_555 1_555
C6_2 C7_2 1_555 1_555
C13_2 C14_2 1_555 1_555
C13_2 C16_2 1_555 1_555
C21_2 C22_2 1_555 1_555
C26_2 C27_2 1_555 1_555
C29_2 C30_2 1_555 1_555
C51_2 C52_2 1_555 1_555
C52_2 C53_2 1_555 1_555
C57_2 C69_2 1_555 1_555
C59_2 C60_2 1_555 1_555
C59_2 C61_2 1_555 1_555
C74_2 C75_2 1_555 1_555
C81_2 C82_2 1_555 1_555
C82_2 C83_2 1_555 1_555
O62 Mn14 1_555 1_555
N14_2 C117_2 1_555 1_555
C117_2 H77_2 1_555 1_555
H78_2 C117_2 1_555 1_555
H79_2 C117_2 1_555 1_555
C123_2 N14_2 1_555 1_555
H87_2 C123_2 1_555 1_555
H88_2 C123_2 1_555 1_555
H89_2 C123_2 1_555 1_555
O25_2 C125_2 1_555 1_555
C124_2 N13_2 1_555 1_555
H90_2 C124_2 1_555 1_555
H91_2 C124_2 1_555 1_555
C125_2 N13_2 1_555 1_555
C127_2 C125_2 1_555 1_555
H96_2 C127_2 1_555 1_555
H98_2 C127_2 1_555 1_555
O25_2 Mn18 1_555 1_555
O27_2 C128_2 1_555 1_555
C121_2 H83_2 1_555 1_555
H84_2 C121_2 1_555 1_555
C126_2 H93_2 1_555 1_555
H94_2 C126_2 1_555 1_555
H95_2 C126_2 1_555 1_555
O27_2 Mn14 1_555 1_555
C126_2 C128_2 1_555 1_555
O3_2 C112_2 1_555 1_555
O47 C112_2 1_555 1_555
O28_2 H1_2 1_555 1_555
H2_2 O28_2 1_555 1_555
O36_2 C15_2 1_555 1_555
C15_2 N1_2 1_555 1_555
C107_2 H73_2 1_555 1_555
C109_2 N1_2 1_555 1_555
C112_2 C115_2 1_555 1_555
C115_2 C107_2 1_555 1_555
C118_2 C115_2 1_555 1_555
H80_2 C118_2 1_555 1_555
C120_2 C109_2 1_555 1_555
H82_2 C120_2 1_555 1_555
C122_2 C118_2 1_555 1_555
H86_2 C122_2 1_555 1_555
Mn9 O3_2 1_555 1_555
O28_2 Mn9 1_555 1_555
C107_2 C109_2 1_555 1_555
C120_2 C122_2 1_555 1_555
O30 H3 1_555 1_555
H4 O30 1_555 1_555
O31 H5 1_555 1_555
H6 O31 1_555 1_555
O32 C133 1_555 1_555
O33 H7 1_555 1_555
N15 C133 1_555 1_555
C135 N15 1_555 1_555
H111 C135 1_555 1_555
H112 C135 1_555 1_555
H113 C135 1_555 1_555
C136 N15 1_555 1_555
H114 C136 1_555 1_555
H115 C136 1_555 1_555
H116 C136 1_555 1_555
O30 Mn7 1_555 1_555
O31 Mn7 1_555 1_555
O32 Mn7 1_555 1_555
O33 Mn7 1_555 1_555
O34 Mn7 1_555 1_555
O30_2 H3_2 1_555 1_555
H4_2 O30_2 1_555 1_555
O31_2 H5_2 1_555 1_555
H6_2 O31_2 1_555 1_555
O32_2 C133_2 1_555 1_555
O33_2 H7_2 1_555 1_555
N15_2 C133_2 1_555 1_555
C135_2 N15_2 1_555 1_555
H111_2 C135_2 1_555 1_555
H112_2 C135_2 1_555 1_555
H113_2 C135_2 1_555 1_555
C136_2 N15_2 1_555 1_555
H114_2 C136_2 1_555 1_555
H115_2 C136_2 1_555 1_555
H116_2 C136_2 1_555 1_555
O30_2 Mn7_2 1_555 1_555
O31_2 Mn7_2 1_555 1_555
O32_2 Mn7_2 1_555 1_555
O33_2 Mn7_2 1_555 1_555
O34_2 Mn7_2 1_555 1_555

#END
