
###############################################################################
#
# This file contains modified crystal structure data generated from the
# MOF subset of the Cambridge Structural Database (CSD) v543 
# hosted by the Cambridge Crystallographic Data Centre (CCDC).
#
# This work is licensed under the Creative Commons
# Attribution-NonCommercial-ShareAlike 4.0 International License.
# To view a copy of this license, visit
# http://creativecommons.org/licenses/by-nc-sa/4.0/
# or send a letter to
# Creative Commons, PO Box 1866, Mountain View, CA 94042, USA.
#
# CIF created using the CSD Python API on 29 September 2022
# The structure has been converted into the P1 space group
# The structure has a 3D framework
# The original CSD entry EPAVAU is in the monoclinic crystal system
# The framework has been calculated to contain at least 10.0% void space
# The void calculation uses a probe of radius 1.32A, grid spacing 0.4
# The framework is charged, counterions have been retained in the structure
#
###############################################################################

data_EPAVAU
_chemical_formula_moiety         '(C344 H272 Cl8 N48 O224 Tb32)n'
_symmetry_cell_setting           triclinic
_symmetry_space_group_name_H-M   'P 1'
_symmetry_Int_Tables_number      1
_space_group_name_Hall           'P 1'
loop_
_symmetry_equiv_pos_site_id
_symmetry_equiv_pos_as_xyz
1 x,y,z
_cell_length_a                   34.5079(8)
_cell_length_b                   19.1590(4)
_cell_length_c                   23.9838(5)
_cell_angle_alpha                90
_cell_angle_beta                 128.0190(10)
_cell_angle_gamma                90
_cell_volume                     12491.9
loop_
_atom_site_label
_atom_site_type_symbol
_atom_site_fract_x
_atom_site_fract_y
_atom_site_fract_z
C4 C 0.0430(3) 0.3411(4) 0.2197(4)
H2 H 0.0492 0.2946 0.2336
C5 C 0.0781(3) 0.3909(4) 0.2598(4)
H3 H 0.1087 0.3765 0.3000
C6 C 0.0275(2) 0.4785(3) 0.1854(3)
C7 C 0.0201(2) 0.5560(3) 0.1751(3)
C9 C 0.0067(2) 0.6958(4) 0.1740(4)
H5 H 0.0019 0.7433 0.1752
C10 C 0.0466(2) 0.6719(3) 0.1798(3)
H6 H 0.0687 0.7033 0.1839
C11 C 0.0535(2) 0.6005(3) 0.1796(3)
C12 C 0.0921(2) 0.5746(3) 0.1744(3)
N1 N 0.07106(18) 0.4588(3) 0.2449(3)
O3 O 0.08081(15) 0.5199(2) 0.1378(2)
O4 O 0.13147(14) 0.6073(2) 0.2039(2)
Tb10 Tb 0.103674(9) 0.454269(14) 0.083884(13)
Tb13 Tb 0.206244(9) 0.582556(14) 0.216134(12)
C13 C 0.8460(2) 0.6840(3) 0.8126(3)
C14 C 0.8494(2) 0.7392(3) 0.7722(3)
C15 C 0.8897(3) 0.7819(4) 0.8061(4)
H7 H 0.9164 0.7732 0.8530
C16 C 0.8905(3) 0.8367(5) 0.7715(5)
H8 H 0.9172 0.8670 0.7945
C17 C 0.8520(4) 0.8467(5) 0.7032(6)
H9 H 0.8527 0.8853 0.6803
C18 C 0.8114(3) 0.7509(3) 0.7015(3)
C19 C 0.7685(2) 0.7026(3) 0.6561(3)
C20 C 0.7423(4) 0.5934(4) 0.6146(4)
H10 H 0.7495 0.5463 0.6162
C21 C 0.6937(3) 0.6135(4) 0.5654(4)
H11 H 0.6693 0.5813 0.5349
C22 C 0.6832(3) 0.6822(4) 0.5637(3)
H12 H 0.6511 0.6983 0.5316
C23 C 0.7211(2) 0.7278(3) 0.6104(3)
C24 C 0.7092(2) 0.8029(3) 0.6148(3)
C25 C 0.7772(2) 0.3636(3) 0.6612(3)
C26 C 0.7892(2) 0.3316(3) 0.6166(3)
C27 C 0.8304(3) 0.2901(3) 0.6515(3)
H13 H 0.8464 0.2781 0.6986
C28 C 0.8479(3) 0.2667(4) 0.6168(4)
H14 H 0.8759 0.2390 0.6398
C29 C 0.8232(3) 0.2849(4) 0.5484(4)
H15 H 0.8360 0.2703 0.5256
C30 C 0.7642(2) 0.3456(3) 0.5443(3)
C31 C 0.7159(2) 0.3813(3) 0.5007(3)
C32 C 0.6440(3) 0.3990(5) 0.4850(5)
H16 H 0.6252 0.3932 0.5004
C33 C 0.6249(3) 0.4349(6) 0.4247(5)
H17 H 0.5933 0.4533 0.3992
C34 C 0.6515(3) 0.4442(5) 0.4011(4)
H18 H 0.6379 0.4678 0.3589
C35 C 0.6986(2) 0.4186(3) 0.4400(3)
C36 C 0.7291(2) 0.4370(3) 0.4174(3)
C37 C 0.6844(2) 0.4887(4) 0.6805(3)
C38 C 0.6298(2) 0.4909(4) 0.6251(3)
C39 C 0.6021(2) 0.4318(4) 0.5986(4)
H19 H 0.6174 0.3885 0.6142
C40 C 0.5517(3) 0.4352(4) 0.5493(4)
H20 H 0.5338 0.3940 0.5312
C41 C 0.5276(3) 0.4972(4) 0.5262(4)
C42 C 0.5561(3) 0.5565(5) 0.5484(5)
H21 H 0.5411 0.5995 0.5295
C43 C 0.6071(3) 0.5530(5) 0.5989(5)
H22 H 0.6257 0.5938 0.6145
N3 N 0.8124(3) 0.8046(4) 0.6657(4)
N4 N 0.7794(2) 0.6353(3) 0.6595(3)
N5 N 0.6891(2) 0.3718(3) 0.5230(3)
N6 N 0.7820(2) 0.3222(3) 0.5112(3)
O5 O 0.88367(16) 0.6484(2) 0.8554(2)
O6 O 0.80546(17) 0.6777(2) 0.8017(2)
O7 O 0.71628(17) 0.8193(2) 0.6704(2)
O8 O 0.69344(16) 0.8412(2) 0.5625(2)
O9 O 0.77213(16) 0.3244(2) 0.6986(2)
O10 O 0.77833(14) 0.4287(2) 0.66766(18)
O11 O 0.76616(15) 0.4748(2) 0.4594(2)
O12 O 0.71504(17) 0.4160(2) 0.3580(2)
O13 O 0.76472(13) 0.4715(2) 0.84216(18)
O14 O 0.85901(13) 0.43745(19) 0.90551(17)
O15 O 0.81595(13) 0.53382(19) 0.79909(18)
O16 O 0.83585(13) 0.56850(19) 0.92858(18)
O17 O 0.77663(19) 0.6961(2) 0.8875(2)
H23 H 0.8042 0.6923 0.9299
H24 H 0.7531 0.6997 0.8909
O18 O 0.70206(18) 0.6857(2) 0.7400(2)
H25 H 0.6730 0.6690 0.7176
H26 H 0.7063 0.6996 0.7102
H32 H 0.9178 0.6866 0.9900
O22 O 0.97997(15) 0.5710(2) 0.9661(2)
H33 H 0.9844 0.6151 0.9697
H34 H 0.9862 0.5546 0.9392
O23 O 0.70494(15) 0.5464(2) 0.7084(2)
O24 O 0.70654(15) 0.4316(2) 0.6971(2)
Tb1 Tb 0.896326(9) 0.545731(14) 0.916116(13)
Tb2 Tb 0.793756(9) 0.417444(14) 0.783866(12)
Tb3 Tb 0.825307(9) 0.459372(14) 0.965765(12)
Tb4 Tb 0.762443(10) 0.594920(14) 0.816328(13)
C44 C 0.3156(2) 0.5113(4) 0.3195(3)
C45 C 0.3702(2) 0.5091(4) 0.3749(3)
C46 C 0.3979(2) 0.5682(4) 0.4014(4)
H35 H 0.3826 0.6115 0.3858
C47 C 0.4483(3) 0.5648(4) 0.4507(4)
H36 H 0.4662 0.6060 0.4688
C48 C 0.4724(3) 0.5028(4) 0.4738(4)
C49 C 0.4439(3) 0.4435(5) 0.4516(5)
H37 H 0.4589 0.4005 0.4705
C50 C 0.3929(3) 0.4470(5) 0.4011(5)
H38 H 0.3743 0.4062 0.3855
O25 O 0.29506(15) 0.4536(2) 0.2916(2)
O26 O 0.29346(15) 0.5684(2) 0.3029(2)
C63 C 0.1540(2) 0.3160(3) 0.1874(3)
C64 C 0.1506(2) 0.2608(3) 0.2278(3)
C65 C 0.1103(3) 0.2181(4) 0.1939(4)
H45 H 0.0836 0.2268 0.1470
C66 C 0.1095(3) 0.1633(5) 0.2285(5)
H46 H 0.0828 0.1330 0.2055
C67 C 0.1480(4) 0.1533(5) 0.2968(6)
H47 H 0.1473 0.1147 0.3197
C68 C 0.1886(3) 0.2491(3) 0.2985(3)
C69 C 0.2315(2) 0.2974(3) 0.3439(3)
C70 C 0.2577(4) 0.4066(4) 0.3854(4)
H48 H 0.2505 0.4537 0.3838
C71 C 0.3063(3) 0.3865(4) 0.4346(4)
H49 H 0.3307 0.4187 0.4651
C72 C 0.3168(3) 0.3178(4) 0.4363(3)
H50 H 0.3489 0.3017 0.4684
C73 C 0.2789(2) 0.2722(3) 0.3896(3)
C74 C 0.2908(2) 0.1971(3) 0.3852(3)
C75 C 0.2228(2) 0.6364(3) 0.3388(3)
C76 C 0.2108(2) 0.6684(3) 0.3834(3)
C77 C 0.1696(3) 0.7099(3) 0.3485(3)
H51 H 0.1536 0.7219 0.3014
C78 C 0.1521(3) 0.7333(4) 0.3832(4)
H52 H 0.1241 0.7610 0.3602
C79 C 0.1768(3) 0.7151(4) 0.4516(4)
H53 H 0.1640 0.7297 0.4744
C80 C 0.2358(2) 0.6544(3) 0.4557(3)
C81 C 0.2841(2) 0.6187(3) 0.4993(3)
C82 C 0.3560(3) 0.6010(5) 0.5150(5)
H54 H 0.3748 0.6068 0.4996
C83 C 0.3751(3) 0.5651(6) 0.5753(5)
H55 H 0.4067 0.5467 0.6008
C84 C 0.3485(3) 0.5558(5) 0.5989(4)
H56 H 0.3621 0.5322 0.6411
C85 C 0.3014(2) 0.5814(3) 0.5600(3)
C86 C 0.2709(2) 0.5630(3) 0.5826(3)
N9 N 0.1876(3) 0.1954(4) 0.3343(4)
N10 N 0.2206(2) 0.3647(3) 0.3405(3)
N11 N 0.3109(2) 0.6282(3) 0.4770(3)
N12 N 0.2180(2) 0.6778(3) 0.4888(3)
O31 O 0.11633(16) 0.3516(2) 0.1446(2)
O32 O 0.19454(17) 0.3223(2) 0.1983(2)
O33 O 0.28372(17) 0.1807(2) 0.3296(2)
O34 O 0.30656(16) 0.1588(2) 0.4375(2)
O35 O 0.22787(16) 0.6756(2) 0.3014(2)
O36 O 0.22167(14) 0.5713(2) 0.33234(18)
O37 O 0.23384(15) 0.5252(2) 0.5406(2)
O38 O 0.28496(17) 0.5840(2) 0.6420(2)
O39 O 0.23528(13) 0.5285(2) 0.15784(18)
O40 O 0.14099(13) 0.56255(19) 0.09449(17)
O41 O 0.18405(13) 0.46618(19) 0.20091(18)
O42 O 0.16415(13) 0.43150(19) 0.07142(18)
O43 O 0.22337(19) 0.3039(2) 0.1125(2)
H57 H 0.1958 0.3077 0.0701
H58 H 0.2469 0.3003 0.1091
O44 O 0.29794(18) 0.3143(2) 0.2600(2)
H59 H 0.3270 0.3310 0.2824
H60 H 0.2937 0.3004 0.2898
H66 H 0.0822 0.3134 0.0100
O48 O 0.02003(15) 0.4290(2) 0.0339(2)
H67 H 0.0156 0.3849 0.0303
H68 H 0.0138 0.4454 0.0608
Tb7 Tb 0.174693(9) 0.540628(14) 0.034235(12)
Tb8 Tb 0.237557(10) 0.405080(14) 0.183672(13)
O50 O 0.91919(15) 0.4801(2) 0.8622(2)
O52 O 0.86853(14) 0.3927(2) 0.7961(2)
O53 O 0.78372(17) 0.3193(2) 0.8296(2)
O54 O 0.21628(17) 0.6807(2) 0.1704(2)
O55 O 0.80656(16) 0.3412(2) 0.9375(2)
O56 O 0.19344(16) 0.6588(2) 0.0625(2)
O57 O 0.23384(15) 0.4748(2) 0.0406(2)
O58 O 0.76616(15) 0.5252(2) 0.9594(2)
O59 O 0.28496(17) 0.4160(2) 0.1420(2)
O60 O 0.71504(17) 0.5840(2) 0.8580(2)
Tb12 Tb 0.706244(9) 0.917444(14) 0.716134(12)
Tb14 Tb 0.293756(9) 0.082556(14) 0.283866(12)
Tb15 Tb 0.174693(9) 0.459372(14) 0.534235(12)
Tb16 Tb 0.674693(9) 0.959372(14) 0.534235(12)
Tb17 Tb 0.825307(9) 0.540628(14) 0.465765(12)
Tb18 Tb 0.325307(9) 0.040628(14) 0.465765(12)
Tb19 Tb 0.237557(10) 0.594920(14) 0.683672(13)
Tb20 Tb 0.762443(10) 0.405080(14) 0.316328(13)
C54 C 0.9570(3) 0.6589(4) 0.7803(4)
H40 H 0.9508 0.7054 0.7664
C55 C 0.9219(3) 0.6091(4) 0.7402(4)
H41 H 0.8913 0.6235 0.7000
C56 C 0.9725(2) 0.5215(3) 0.8146(3)
C57 C 0.9799(2) 0.4440(3) 0.8249(3)
C59 C 0.9933(2) 0.3042(4) 0.8260(4)
H43 H 0.9981 0.2567 0.8248
C60 C 0.9534(2) 0.3281(3) 0.8202(3)
H44 H 0.9313 0.2967 0.8161
C61 C 0.9465(2) 0.3995(3) 0.8204(3)
C62 C 0.9079(2) 0.4254(3) 0.8256(3)
N7 N 0.92894(18) 0.5412(3) 0.7551(3)
C54_2 C 0.0430(3) 0.6589(4) 0.7197(4)
H40_2 H 0.0492 0.7054 0.7336
C55_2 C 0.0781(3) 0.6091(4) 0.7598(4)
H41_2 H 0.1087 0.6235 0.8000
C56_2 C 0.0275(2) 0.5215(3) 0.6854(3)
C57_2 C 0.0201(2) 0.4440(3) 0.6751(3)
C59_2 C 0.0067(2) 0.3042(4) 0.6740(4)
H43_2 H 0.0019 0.2567 0.6752
C60_2 C 0.0466(2) 0.3281(3) 0.6798(3)
H44_2 H 0.0687 0.2967 0.6839
C61_2 C 0.0535(2) 0.3995(3) 0.6796(3)
C62_2 C 0.0921(2) 0.4254(3) 0.6744(3)
N7_2 N 0.07106(18) 0.5412(3) 0.7449(3)
O29 O 0.08081(15) 0.4801(2) 0.6378(2)
O30 O 0.13147(14) 0.3927(2) 0.7039(2)
Tb9 Tb 0.103674(9) 0.545731(14) 0.583884(13)
Tb11 Tb 0.206244(9) 0.417444(14) 0.716134(12)
C32_2 C 0.3560(3) 0.3990(5) 0.0150(5)
C33_2 C 0.3751(3) 0.4349(6) 0.0753(5)
H17_2 H 0.4067 0.4533 0.1008
C34_2 C 0.3485(3) 0.4442(5) 0.0989(4)
H18_2 H 0.3621 0.4678 0.1411
C35_2 C 0.3014(2) 0.4186(3) 0.0600(3)
C36_2 C 0.2709(2) 0.4370(3) 0.0826(3)
C44_2 C 0.6844(2) 0.5113(4) 0.1805(3)
C45_2 C 0.6298(2) 0.5091(4) 0.1251(3)
C46_2 C 0.6021(2) 0.5682(4) 0.0986(4)
H35_2 H 0.6174 0.6115 0.1142
C47_2 C 0.5517(3) 0.5648(4) 0.0493(4)
H36_2 H 0.5338 0.6060 0.0312
C48_2 C 0.5276(3) 0.5028(4) 0.0262(4)
C49_2 C 0.5561(3) 0.4435(5) 0.0484(5)
H37_2 H 0.5411 0.4005 0.0295
C50_2 C 0.6071(3) 0.4470(5) 0.0989(5)
H38_2 H 0.6257 0.4062 0.1145
O25_2 O 0.70494(15) 0.4536(2) 0.2084(2)
O26_2 O 0.70654(15) 0.5684(2) 0.1971(2)
C51 C 0.9435(2) 0.5485(3) 0.5713(3)
C52 C 0.9908(2) 0.5693(3) 0.6402(3)
C53 C 0.9989(2) 0.6390(4) 0.6591(3)
H39 H 0.9745 0.6719 0.6307
C58 C 0.9745(3) 0.3514(4) 0.6663(3)
H42 H 0.9469 0.3347 0.6603
C63_2 C 0.8460(2) 0.3160(3) 0.3126(3)
C64_2 C 0.8494(2) 0.2608(3) 0.2722(3)
C65_2 C 0.8897(3) 0.2181(4) 0.3061(4)
H45_2 H 0.9164 0.2268 0.3530
C66_2 C 0.8905(3) 0.1633(5) 0.2715(5)
H46_2 H 0.9172 0.1330 0.2945
C67_2 C 0.8520(4) 0.1533(5) 0.2032(6)
H47_2 H 0.8527 0.1147 0.1803
C68_2 C 0.8114(3) 0.2491(3) 0.2015(3)
C69_2 C 0.7685(2) 0.2974(3) 0.1561(3)
C70_2 C 0.7423(4) 0.4066(4) 0.1146(4)
H48_2 H 0.7495 0.4537 0.1162
C71_2 C 0.6937(3) 0.3865(4) 0.0654(4)
H49_2 H 0.6693 0.4187 0.0349
C72_2 C 0.6832(3) 0.3178(4) 0.0637(3)
H50_2 H 0.6511 0.3017 0.0316
C73_2 C 0.7211(2) 0.2722(3) 0.1104(3)
C74_2 C 0.7092(2) 0.1971(3) 0.1148(3)
C75_2 C 0.7772(2) 0.6364(3) 0.1612(3)
C76_2 C 0.7892(2) 0.6684(3) 0.1166(3)
C77_2 C 0.8304(3) 0.7099(3) 0.1515(3)
H51_2 H 0.8464 0.7219 0.1986
C78_2 C 0.8479(3) 0.7333(4) 0.1168(4)
H52_2 H 0.8759 0.7610 0.1398
C79_2 C 0.8232(3) 0.7151(4) 0.0484(4)
H53_2 H 0.8360 0.7297 0.0256
C80_2 C 0.7642(2) 0.6544(3) 0.0443(3)
C81_2 C 0.7159(2) 0.6187(3) 0.0007(3)
H54_2 H 0.6252 0.6068 0.0004
N8 N 0.97997(18) 0.4211(3) 0.6668(3)
N9_2 N 0.8124(3) 0.1954(4) 0.1657(4)
N10_2 N 0.7794(2) 0.3647(3) 0.1595(3)
N11_2 N 0.6891(2) 0.6282(3) 0.0230(3)
N12_2 N 0.7820(2) 0.6778(3) 0.0112(3)
O27 O 0.90538(14) 0.5794(2) 0.5538(2)
O28 O 0.94508(14) 0.5032(2) 0.53451(19)
O31_2 O 0.88367(16) 0.3516(2) 0.3554(2)
O32_2 O 0.80546(17) 0.3223(2) 0.3017(2)
O33_2 O 0.71628(17) 0.1807(2) 0.1704(2)
O34_2 O 0.69344(16) 0.1588(2) 0.0625(2)
O35_2 O 0.77213(16) 0.6756(2) 0.1986(2)
O36_2 O 0.77833(14) 0.5713(2) 0.16766(18)
O39_2 O 0.76472(13) 0.5285(2) 0.34216(18)
O40_2 O 0.85901(13) 0.56255(19) 0.40551(17)
O41_2 O 0.81595(13) 0.46618(19) 0.29909(18)
O42_2 O 0.83585(13) 0.43150(19) 0.42858(18)
O43_2 O 0.77663(19) 0.3039(2) 0.3875(2)
H57_2 H 0.8042 0.3077 0.4299
H58_2 H 0.7531 0.3003 0.3909
O44_2 O 0.70206(18) 0.3143(2) 0.2400(2)
H59_2 H 0.6730 0.3310 0.2176
H60_2 H 0.7063 0.3004 0.2102
O45 O 0.81500(16) 0.5929(2) 0.5473(2)
H61 H 0.7868 0.6145 0.5244
H62 H 0.8158 0.5610 0.5738
O46 O 0.86859(16) 0.4526(2) 0.5672(2)
H63 H 0.9015 0.4587 0.5965
H64 H 0.8583 0.4566 0.5937
O47 O 0.92667(19) 0.3558(3) 0.5012(2)
H65 H 0.9474 0.3592 0.5460
H66_2 H 0.9178 0.3134 0.4900
O48_2 O 0.97997(15) 0.4290(2) 0.4661(2)
H67_2 H 0.9844 0.3849 0.4697
H68_2 H 0.9862 0.4454 0.4392
Tb5 Tb 0.896326(9) 0.454269(14) 0.416116(13)
Tb6 Tb 0.793756(9) 0.582556(14) 0.283866(12)
O49 O 0.91919(15) 0.5199(2) 0.3622(2)
O51 O 0.86853(14) 0.6073(2) 0.2961(2)
O54_2 O 0.78372(17) 0.6807(2) 0.3296(2)
O56_2 O 0.80656(16) 0.6588(2) 0.4375(2)
Tb14_2 Tb 0.706244(9) 0.082556(14) 0.216134(12)
Tb18_2 Tb 0.674693(9) 0.040628(14) 0.034235(12)
C1 C 0.0565(2) 0.4515(3) 0.4287(3)
C2 C 0.0092(2) 0.4307(3) 0.3598(3)
C3 C 0.0011(2) 0.3610(4) 0.3409(3)
H1 H 0.0255 0.3281 0.3693
C8 C 0.0255(3) 0.6486(4) 0.3337(3)
H4 H 0.0531 0.6653 0.3397
C13_2 C 0.1540(2) 0.6840(3) 0.6874(3)
C14_2 C 0.1506(2) 0.7392(3) 0.7278(3)
C15_2 C 0.1103(3) 0.7819(4) 0.6939(4)
H7_2 H 0.0836 0.7732 0.6470
C16_2 C 0.1095(3) 0.8367(5) 0.7285(5)
H8_2 H 0.0828 0.8670 0.7055
C17_2 C 0.1480(4) 0.8467(5) 0.7968(6)
H9_2 H 0.1473 0.8853 0.8197
C18_2 C 0.1886(3) 0.7509(3) 0.7985(3)
C19_2 C 0.2315(2) 0.7026(3) 0.8439(3)
C20_2 C 0.2577(4) 0.5934(4) 0.8854(4)
H10_2 H 0.2505 0.5463 0.8838
C21_2 C 0.3063(3) 0.6135(4) 0.9346(4)
H11_2 H 0.3307 0.5813 0.9651
C22_2 C 0.3168(3) 0.6822(4) 0.9363(3)
H12_2 H 0.3489 0.6983 0.9684
C23_2 C 0.2789(2) 0.7278(3) 0.8896(3)
C24_2 C 0.2908(2) 0.8029(3) 0.8852(3)
C25_2 C 0.2228(2) 0.3636(3) 0.8388(3)
C26_2 C 0.2108(2) 0.3316(3) 0.8834(3)
C27_2 C 0.1696(3) 0.2901(3) 0.8485(3)
H13_2 H 0.1536 0.2781 0.8014
C28_2 C 0.1521(3) 0.2667(4) 0.8832(4)
H14_2 H 0.1241 0.2390 0.8602
C29_2 C 0.1768(3) 0.2849(4) 0.9516(4)
H15_2 H 0.1640 0.2703 0.9744
C30_2 C 0.2358(2) 0.3456(3) 0.9557(3)
C31_2 C 0.2841(2) 0.3813(3) 0.9993(3)
H16_2 H 0.3748 0.3932 0.9996
C37_2 C 0.3156(2) 0.4887(4) 0.8195(3)
C38_2 C 0.3702(2) 0.4909(4) 0.8749(3)
C39_2 C 0.3979(2) 0.4318(4) 0.9014(4)
H19_2 H 0.3826 0.3885 0.8858
C40_2 C 0.4483(3) 0.4352(4) 0.9507(4)
H20_2 H 0.4662 0.3940 0.9688
C41_2 C 0.4724(3) 0.4972(4) 0.9738(4)
C42_2 C 0.4439(3) 0.5565(5) 0.9516(5)
H21_2 H 0.4589 0.5995 0.9705
C43_2 C 0.3929(3) 0.5530(5) 0.9011(5)
H22_2 H 0.3743 0.5938 0.8855
N2 N 0.02003(18) 0.5789(3) 0.3332(3)
N3_2 N 0.1876(3) 0.8046(4) 0.8343(4)
N4_2 N 0.2206(2) 0.6353(3) 0.8405(3)
N5_2 N 0.3109(2) 0.3718(3) 0.9770(3)
N6_2 N 0.2180(2) 0.3222(3) 0.9888(3)
O1 O 0.09462(14) 0.4206(2) 0.4462(2)
O2 O 0.05492(14) 0.4968(2) 0.46549(19)
O5_2 O 0.11633(16) 0.6484(2) 0.6446(2)
O6_2 O 0.19454(17) 0.6777(2) 0.6983(2)
O7_2 O 0.28372(17) 0.8193(2) 0.8296(2)
O8_2 O 0.30656(16) 0.8412(2) 0.9375(2)
O9_2 O 0.22787(16) 0.3244(2) 0.8014(2)
O10_2 O 0.22167(14) 0.4287(2) 0.83234(18)
O13_2 O 0.23528(13) 0.4715(2) 0.65784(18)
O14_2 O 0.14099(13) 0.43745(19) 0.59449(17)
O15_2 O 0.18405(13) 0.53382(19) 0.70091(18)
O16_2 O 0.16415(13) 0.56850(19) 0.57142(18)
O17_2 O 0.22337(19) 0.6961(2) 0.6125(2)
H23_2 H 0.1958 0.6923 0.5701
H24_2 H 0.2469 0.6997 0.6091
O18_2 O 0.29794(18) 0.6857(2) 0.7600(2)
H25_2 H 0.3270 0.6690 0.7824
H26_2 H 0.2937 0.6996 0.7898
O19 O 0.18500(16) 0.4071(2) 0.4527(2)
H27 H 0.2132 0.3855 0.4756
H28 H 0.1842 0.4390 0.4262
O20 O 0.13141(16) 0.5474(2) 0.4328(2)
H29 H 0.0985 0.5413 0.4035
H30 H 0.1417 0.5434 0.4063
O21 O 0.07333(19) 0.6442(3) 0.4988(2)
H31 H 0.0526 0.6408 0.4540
H32_2 H 0.0822 0.6866 0.5100
O22_2 O 0.02003(15) 0.5710(2) 0.5339(2)
H33_2 H 0.0156 0.6151 0.5303
H34_2 H 0.0138 0.5546 0.5608
O23_2 O 0.29506(15) 0.5464(2) 0.7916(2)
O24_2 O 0.29346(15) 0.4316(2) 0.8029(2)
C82_2 C 0.6440(3) 0.6010(5) 0.9850(5)
C83_2 C 0.6249(3) 0.5651(6) 0.9247(5)
H55_2 H 0.5933 0.5467 0.8992
C84_2 C 0.6515(3) 0.5558(5) 0.9011(4)
H56_2 H 0.6379 0.5322 0.8589
C85_2 C 0.6986(2) 0.5814(3) 0.9400(3)
C86_2 C 0.7291(2) 0.5630(3) 0.9174(3)
O53_2 O 0.21628(17) 0.3193(2) 0.6704(2)
O55_2 O 0.19344(16) 0.3412(2) 0.5625(2)
Tb12_2 Tb 0.293756(9) 0.917444(14) 0.783866(12)
Tb16_2 Tb 0.325307(9) 0.959372(14) 0.965765(12)
C4_2 C 0.9570(3) 0.3411(4) 0.2803(4)
H2_2 H 0.9508 0.2946 0.2664
C5_2 C 0.9219(3) 0.3909(4) 0.2402(4)
H3_2 H 0.8913 0.3765 0.2000
C6_2 C 0.9725(2) 0.4785(3) 0.3146(3)
C7_2 C 0.9799(2) 0.5560(3) 0.3249(3)
C9_2 C 0.9933(2) 0.6958(4) 0.3260(4)
H5_2 H 0.9981 0.7433 0.3248
C10_2 C 0.9534(2) 0.6719(3) 0.3202(3)
H6_2 H 0.9313 0.7033 0.3161
C11_2 C 0.9465(2) 0.6005(3) 0.3204(3)
C12_2 C 0.9079(2) 0.5746(3) 0.3256(3)
N1_2 N 0.92894(18) 0.4588(3) 0.2551(3)
C7_3 C 0.5201(2) 0.0560(3) 0.1751(3)
C8_2 C 0.4745(3) 0.1486(4) 0.1663(3)
H4_2 H 0.4469 0.1653 0.1603
C9_3 C 0.5067(2) 0.1958(4) 0.1740(4)
H5_3 H 0.5019 0.2433 0.1752
C10_3 C 0.5466(2) 0.1719(3) 0.1798(3)
H6_3 H 0.5687 0.2033 0.1839
C11_3 C 0.5535(2) 0.1005(3) 0.1796(3)
C12_3 C 0.5921(2) 0.0746(3) 0.1744(3)
N2_2 N 0.47997(18) 0.0789(3) 0.1668(3)
O3_2 O 0.58081(15) 0.0199(2) 0.1378(2)
O4_2 O 0.63147(14) 0.1073(2) 0.2039(2)
O20_2 O 0.36859(16) 0.0474(2) 0.0672(2)
H29_2 H 0.4015 0.0413 0.0965
H30_2 H 0.3583 0.0434 0.0937
O21_2 O 0.42667(19) 0.1442(3) 0.0012(2)
H31_2 H 0.4474 0.1408 0.0460
C13_3 C 0.3460(2) 0.1840(3) 0.8126(3)
C14_3 C 0.3494(2) 0.2392(3) 0.7722(3)
C15_3 C 0.3897(3) 0.2819(4) 0.8061(4)
H7_3 H 0.4164 0.2732 0.8530
C16_3 C 0.3905(3) 0.3367(5) 0.7715(5)
H8_3 H 0.4172 0.3670 0.7945
C17_3 C 0.3520(4) 0.3467(5) 0.7032(6)
H9_3 H 0.3527 0.3853 0.6803
C18_3 C 0.3114(3) 0.2509(3) 0.7015(3)
C19_3 C 0.2685(2) 0.2026(3) 0.6561(3)
C20_3 C 0.2423(4) 0.0934(4) 0.6146(4)
H10_3 H 0.2495 0.0463 0.6162
C21_3 C 0.1937(3) 0.1135(4) 0.5654(4)
H11_3 H 0.1693 0.0813 0.5349
C22_3 C 0.1832(3) 0.1822(4) 0.5637(3)
H12_3 H 0.1511 0.1983 0.5316
C23_3 C 0.2211(2) 0.2278(3) 0.6104(3)
C24_3 C 0.2092(2) 0.3029(3) 0.6148(3)
C42_3 C 0.0561(3) 0.0565(5) 0.5484(5)
H21_3 H 0.0411 0.0995 0.5295
C43_3 C 0.1071(3) 0.0530(5) 0.5989(5)
H22_3 H 0.1257 0.0938 0.6145
N3_3 N 0.3124(3) 0.3046(4) 0.6657(4)
N4_3 N 0.2794(2) 0.1353(3) 0.6595(3)
O5_3 O 0.38367(16) 0.1484(2) 0.8554(2)
O6_3 O 0.30546(17) 0.1777(2) 0.8017(2)
O15_3 O 0.31595(13) 0.03382(19) 0.79909(18)
O16_3 O 0.33585(13) 0.06850(19) 0.92858(18)
O17_3 O 0.27663(19) 0.1961(2) 0.8875(2)
H23_3 H 0.3042 0.1923 0.9299
H24_3 H 0.2531 0.1997 0.8909
O18_3 O 0.20206(18) 0.1857(2) 0.7400(2)
H25_3 H 0.1730 0.1690 0.7176
H26_3 H 0.2063 0.1996 0.7102
H32_3 H 0.4178 0.1866 0.9900
O22_3 O 0.47997(15) 0.0710(2) 0.9661(2)
H33_3 H 0.4844 0.1151 0.9697
H34_3 H 0.4862 0.0546 0.9392
O23_3 O 0.20494(15) 0.0464(2) 0.7084(2)
Tb1_2 Tb 0.396326(9) 0.045731(14) 0.916116(13)
Tb4_2 Tb 0.262443(10) 0.094920(14) 0.816328(13)
O58_2 O 0.26616(15) 0.0252(2) 0.9594(2)
O60_2 O 0.21504(17) 0.0840(2) 0.8580(2)
C1_2 C 0.4435(2) 0.9515(3) 0.0713(3)
C2_2 C 0.4908(2) 0.9307(3) 0.1402(3)
C3_2 C 0.4989(2) 0.8610(4) 0.1591(3)
H1_2 H 0.4745 0.8281 0.1307
C4_3 C 0.5430(3) 0.8411(4) 0.2197(4)
H2_3 H 0.5492 0.7946 0.2336
C5_3 C 0.5781(3) 0.8909(4) 0.2598(4)
H3_3 H 0.6087 0.8765 0.3000
C6_3 C 0.5275(2) 0.9785(3) 0.1854(3)
N1_3 N 0.57106(18) 0.9588(3) 0.2449(3)
O1_2 O 0.40538(14) 0.9206(2) 0.0538(2)
O2_2 O 0.44508(14) 0.9968(2) 0.03451(19)
O19_2 O 0.31500(16) 0.9071(2) 0.0473(2)
H27_2 H 0.2868 0.8855 0.0244
H28_2 H 0.3158 0.9390 0.0738
Tb10_2 Tb 0.603674(9) 0.954269(14) 0.083884(13)
C25_3 C 0.2772(2) 0.8636(3) 0.6612(3)
C26_3 C 0.2892(2) 0.8316(3) 0.6166(3)
C27_3 C 0.3304(3) 0.7901(3) 0.6515(3)
H13_3 H 0.3464 0.7781 0.6986
C28_3 C 0.3479(3) 0.7667(4) 0.6168(4)
H14_3 H 0.3759 0.7390 0.6398
C29_3 C 0.3232(3) 0.7849(4) 0.5484(4)
H15_3 H 0.3360 0.7703 0.5256
C30_3 C 0.2642(2) 0.8456(3) 0.5443(3)
C31_3 C 0.2159(2) 0.8813(3) 0.5007(3)
C32_3 C 0.1440(3) 0.8990(5) 0.4850(5)
H16_3 H 0.1252 0.8932 0.5004
C33_3 C 0.1249(3) 0.9349(6) 0.4247(5)
H17_3 H 0.0933 0.9533 0.3992
C34_3 C 0.1515(3) 0.9442(5) 0.4011(4)
H18_3 H 0.1379 0.9678 0.3589
C35_3 C 0.1986(2) 0.9186(3) 0.4400(3)
C36_3 C 0.2291(2) 0.9370(3) 0.4174(3)
C37_3 C 0.1844(2) 0.9887(4) 0.6805(3)
C38_3 C 0.1298(2) 0.9909(4) 0.6251(3)
C39_3 C 0.1021(2) 0.9318(4) 0.5986(4)
H19_3 H 0.1174 0.8885 0.6142
C40_3 C 0.0517(3) 0.9352(4) 0.5493(4)
H20_3 H 0.0338 0.8940 0.5312
C41_3 C 0.0276(3) 0.9972(4) 0.5262(4)
N5_3 N 0.1891(2) 0.8718(3) 0.5230(3)
N6_3 N 0.2820(2) 0.8222(3) 0.5112(3)
O9_3 O 0.27213(16) 0.8244(2) 0.6986(2)
O10_3 O 0.27833(14) 0.9287(2) 0.66766(18)
O11_2 O 0.26616(15) 0.9748(2) 0.4594(2)
O12_2 O 0.21504(17) 0.9160(2) 0.3580(2)
O13_3 O 0.26472(13) 0.9715(2) 0.84216(18)
O14_3 O 0.35901(13) 0.93745(19) 0.90551(17)
O24_3 O 0.20654(15) 0.9316(2) 0.6971(2)
O50_2 O 0.41919(15) 0.9801(2) 0.8622(2)
O52_2 O 0.36853(14) 0.8927(2) 0.7961(2)
Tb20_2 Tb 0.262443(10) 0.905080(14) 0.316328(13)
C44_3 C 0.8156(2) 0.0113(4) 0.3195(3)
C45_3 C 0.8702(2) 0.0091(4) 0.3749(3)
C46_3 C 0.8979(2) 0.0682(4) 0.4014(4)
H35_3 H 0.8826 0.1115 0.3858
C47_3 C 0.9483(3) 0.0648(4) 0.4507(4)
H36_3 H 0.9662 0.1060 0.4688
C48_3 C 0.9724(3) 0.0028(4) 0.4738(4)
O26_3 O 0.79346(15) 0.0684(2) 0.3029(2)
C75_3 C 0.7228(2) 0.1364(3) 0.3388(3)
C76_3 C 0.7108(2) 0.1684(3) 0.3834(3)
C77_3 C 0.6696(3) 0.2099(3) 0.3485(3)
H51_3 H 0.6536 0.2219 0.3014
C78_3 C 0.6521(3) 0.2333(4) 0.3832(4)
H52_3 H 0.6241 0.2610 0.3602
C79_3 C 0.6768(3) 0.2151(4) 0.4516(4)
H53_3 H 0.6640 0.2297 0.4744
C80_3 C 0.7358(2) 0.1544(3) 0.4557(3)
C81_3 C 0.7841(2) 0.1187(3) 0.4993(3)
C82_3 C 0.8560(3) 0.1010(5) 0.5150(5)
H54_3 H 0.8748 0.1068 0.4996
C83_3 C 0.8751(3) 0.0651(6) 0.5753(5)
H55_3 H 0.9067 0.0467 0.6008
C84_3 C 0.8485(3) 0.0558(5) 0.5989(4)
H56_3 H 0.8621 0.0322 0.6411
C85_3 C 0.8014(2) 0.0814(3) 0.5600(3)
C86_3 C 0.7709(2) 0.0630(3) 0.5826(3)
N11_3 N 0.8109(2) 0.1282(3) 0.4770(3)
N12_3 N 0.7180(2) 0.1778(3) 0.4888(3)
O35_3 O 0.72787(16) 0.1756(2) 0.3014(2)
O36_3 O 0.72167(14) 0.0713(2) 0.33234(18)
O37_2 O 0.73384(15) 0.0252(2) 0.5406(2)
O38_2 O 0.78496(17) 0.0840(2) 0.6420(2)
O39_3 O 0.73528(13) 0.0285(2) 0.15784(18)
O40_3 O 0.64099(13) 0.06255(19) 0.09449(17)
Tb19_2 Tb 0.737557(10) 0.094920(14) 0.683672(13)
C51_2 C 0.5565(2) 0.0485(3) 0.9287(3)
C52_2 C 0.5092(2) 0.0693(3) 0.8598(3)
C53_2 C 0.5011(2) 0.1390(4) 0.8409(3)
H39_2 H 0.5255 0.1719 0.8693
C54_3 C 0.4570(3) 0.1589(4) 0.7803(4)
H40_3 H 0.4508 0.2054 0.7664
C55_3 C 0.4219(3) 0.1091(4) 0.7402(4)
H41_3 H 0.3913 0.1235 0.7000
C56_3 C 0.4725(2) 0.0215(3) 0.8146(3)
N7_3 N 0.42894(18) 0.0412(3) 0.7551(3)
O27_2 O 0.59462(14) 0.0794(2) 0.9462(2)
O28_2 O 0.55492(14) 0.0032(2) 0.96549(19)
O45_2 O 0.68500(16) 0.0929(2) 0.9527(2)
H61_2 H 0.7132 0.1145 0.9756
H62_2 H 0.6842 0.0610 0.9262
C49_3 C 0.9439(3) 0.9435(5) 0.4516(5)
H37_3 H 0.9589 0.9005 0.4705
C50_3 C 0.8929(3) 0.9470(5) 0.4011(5)
H38_3 H 0.8743 0.9062 0.3855
O25_3 O 0.79506(15) 0.9536(2) 0.2916(2)
C63_3 C 0.6540(2) 0.8160(3) 0.1874(3)
C64_3 C 0.6506(2) 0.7608(3) 0.2278(3)
C65_3 C 0.6103(3) 0.7181(4) 0.1939(4)
H45_3 H 0.5836 0.7268 0.1470
C66_3 C 0.6095(3) 0.6633(5) 0.2285(5)
H46_3 H 0.5828 0.6330 0.2055
C67_3 C 0.6480(4) 0.6533(5) 0.2968(6)
H47_3 H 0.6473 0.6147 0.3197
C68_3 C 0.6886(3) 0.7491(3) 0.2985(3)
C69_3 C 0.7315(2) 0.7974(3) 0.3439(3)
C70_3 C 0.7577(4) 0.9066(4) 0.3854(4)
H48_3 H 0.7505 0.9537 0.3838
C71_3 C 0.8063(3) 0.8865(4) 0.4346(4)
H49_3 H 0.8307 0.9187 0.4651
C72_3 C 0.8168(3) 0.8178(4) 0.4363(3)
H50_3 H 0.8489 0.8017 0.4684
C73_3 C 0.7789(2) 0.7722(3) 0.3896(3)
C74_3 C 0.7908(2) 0.6971(3) 0.3852(3)
N9_3 N 0.6876(3) 0.6954(4) 0.3343(4)
N10_3 N 0.7206(2) 0.8647(3) 0.3405(3)
O31_3 O 0.61633(16) 0.8516(2) 0.1446(2)
O32_3 O 0.69454(17) 0.8223(2) 0.1983(2)
O41_3 O 0.68405(13) 0.96618(19) 0.20091(18)
O42_3 O 0.66415(13) 0.93150(19) 0.07142(18)
O43_3 O 0.72337(19) 0.8039(2) 0.1125(2)
H57_3 H 0.6958 0.8077 0.0701
H58_3 H 0.7469 0.8003 0.1091
O44_3 O 0.79794(18) 0.8143(2) 0.2600(2)
H59_3 H 0.8270 0.8310 0.2824
H60_3 H 0.7937 0.8004 0.2898
H66_3 H 0.5822 0.8134 0.0100
O48_3 O 0.52003(15) 0.9290(2) 0.0339(2)
H67_3 H 0.5156 0.8849 0.0303
H68_3 H 0.5138 0.9454 0.0608
Tb8_2 Tb 0.737557(10) 0.905080(14) 0.183672(13)
O57_2 O 0.73384(15) 0.9748(2) 0.0406(2)
O59_2 O 0.78496(17) 0.9160(2) 0.1420(2)
C57_3 C 0.4799(2) 0.9440(3) 0.8249(3)
C58_2 C 0.5255(3) 0.8514(4) 0.8337(3)
H42_2 H 0.5531 0.8347 0.8397
C59_3 C 0.4933(2) 0.8042(4) 0.8260(4)
H43_3 H 0.4981 0.7567 0.8248
C60_3 C 0.4534(2) 0.8281(3) 0.8202(3)
H44_3 H 0.4313 0.7967 0.8161
C61_3 C 0.4465(2) 0.8995(3) 0.8204(3)
C62_3 C 0.4079(2) 0.9254(3) 0.8256(3)
N8_2 N 0.52003(18) 0.9211(3) 0.8332(3)
O46_2 O 0.63141(16) 0.9526(2) 0.9328(2)
H63_2 H 0.5985 0.9587 0.9035
H64_2 H 0.6417 0.9566 0.9063
O47_2 O 0.57333(19) 0.8558(3) 0.9988(2)
H65_2 H 0.5526 0.8592 0.9540
C44_4 C 0.1844(2) 0.0113(4) 0.1805(3)
C45_4 C 0.1298(2) 0.0091(4) 0.1251(3)
C46_4 C 0.1021(2) 0.0682(4) 0.0986(4)
H35_4 H 0.1174 0.1115 0.1142
C47_4 C 0.0517(3) 0.0648(4) 0.0493(4)
H36_4 H 0.0338 0.1060 0.0312
C48_4 C 0.0276(3) 0.0028(4) 0.0262(4)
O26_4 O 0.20654(15) 0.0684(2) 0.1971(2)
C51_3 C 0.4435(2) 0.0485(3) 0.5713(3)
C52_3 C 0.4908(2) 0.0693(3) 0.6402(3)
C53_3 C 0.4989(2) 0.1390(4) 0.6591(3)
H39_3 H 0.4745 0.1719 0.6307
C54_4 C 0.5430(3) 0.1589(4) 0.7197(4)
H40_4 H 0.5492 0.2054 0.7336
C55_4 C 0.5781(3) 0.1091(4) 0.7598(4)
H41_4 H 0.6087 0.1235 0.8000
C56_4 C 0.5275(2) 0.0215(3) 0.6854(3)
C75_4 C 0.2772(2) 0.1364(3) 0.1612(3)
C76_4 C 0.2892(2) 0.1684(3) 0.1166(3)
C77_4 C 0.3304(3) 0.2099(3) 0.1515(3)
H51_4 H 0.3464 0.2219 0.1986
C78_4 C 0.3479(3) 0.2333(4) 0.1168(4)
H52_4 H 0.3759 0.2610 0.1398
C79_4 C 0.3232(3) 0.2151(4) 0.0484(4)
H53_4 H 0.3360 0.2297 0.0256
C80_4 C 0.2642(2) 0.1544(3) 0.0443(3)
C81_4 C 0.2159(2) 0.1187(3) 0.0007(3)
H54_4 H 0.1252 0.1068 0.0004
N7_4 N 0.57106(18) 0.0412(3) 0.7449(3)
N11_4 N 0.1891(2) 0.1282(3) 0.0230(3)
N12_4 N 0.2820(2) 0.1778(3) 0.0112(3)
O27_3 O 0.40538(14) 0.0794(2) 0.5538(2)
O28_3 O 0.44508(14) 0.0032(2) 0.53451(19)
O35_4 O 0.27213(16) 0.1756(2) 0.1986(2)
O36_4 O 0.27833(14) 0.0713(2) 0.16766(18)
O39_4 O 0.26472(13) 0.0285(2) 0.34216(18)
O40_4 O 0.35901(13) 0.06255(19) 0.40551(17)
O45_3 O 0.31500(16) 0.0929(2) 0.5473(2)
H61_3 H 0.2868 0.1145 0.5244
H62_3 H 0.3158 0.0610 0.5738
O49_2 O 0.41919(15) 0.0199(2) 0.3622(2)
O51_2 O 0.36853(14) 0.1073(2) 0.2961(2)
Tb9_2 Tb 0.603674(9) 0.045731(14) 0.583884(13)
C82_4 C 0.1440(3) 0.1010(5) 0.9850(5)
C83_4 C 0.1249(3) 0.0651(6) 0.9247(5)
H55_4 H 0.0933 0.0467 0.8992
C84_4 C 0.1515(3) 0.0558(5) 0.9011(4)
H56_4 H 0.1379 0.0322 0.8589
C85_4 C 0.1986(2) 0.0814(3) 0.9400(3)
C86_4 C 0.2291(2) 0.0630(3) 0.9174(3)
C49_4 C 0.0561(3) 0.9435(5) 0.0484(5)
H37_4 H 0.0411 0.9005 0.0295
C50_4 C 0.1071(3) 0.9470(5) 0.0989(5)
H38_4 H 0.1257 0.9062 0.1145
O25_4 O 0.20494(15) 0.9536(2) 0.2084(2)
C57_4 C 0.5201(2) 0.9440(3) 0.6751(3)
C58_3 C 0.4745(3) 0.8514(4) 0.6663(3)
H42_3 H 0.4469 0.8347 0.6603
C59_4 C 0.5067(2) 0.8042(4) 0.6740(4)
H43_4 H 0.5019 0.7567 0.6752
C60_4 C 0.5466(2) 0.8281(3) 0.6798(3)
H44_4 H 0.5687 0.7967 0.6839
C61_4 C 0.5535(2) 0.8995(3) 0.6796(3)
C62_4 C 0.5921(2) 0.9254(3) 0.6744(3)
C63_4 C 0.3460(2) 0.8160(3) 0.3126(3)
C64_4 C 0.3494(2) 0.7608(3) 0.2722(3)
C65_4 C 0.3897(3) 0.7181(4) 0.3061(4)
H45_4 H 0.4164 0.7268 0.3530
C66_4 C 0.3905(3) 0.6633(5) 0.2715(5)
H46_4 H 0.4172 0.6330 0.2945
C67_4 C 0.3520(4) 0.6533(5) 0.2032(6)
H47_4 H 0.3527 0.6147 0.1803
C68_4 C 0.3114(3) 0.7491(3) 0.2015(3)
C69_4 C 0.2685(2) 0.7974(3) 0.1561(3)
C70_4 C 0.2423(4) 0.9066(4) 0.1146(4)
H48_4 H 0.2495 0.9537 0.1162
C71_4 C 0.1937(3) 0.8865(4) 0.0654(4)
H49_4 H 0.1693 0.9187 0.0349
C72_4 C 0.1832(3) 0.8178(4) 0.0637(3)
H50_4 H 0.1511 0.8017 0.0316
C73_4 C 0.2211(2) 0.7722(3) 0.1104(3)
C74_4 C 0.2092(2) 0.6971(3) 0.1148(3)
N8_3 N 0.47997(18) 0.9211(3) 0.6668(3)
N9_4 N 0.3124(3) 0.6954(4) 0.1657(4)
N10_4 N 0.2794(2) 0.8647(3) 0.1595(3)
O29_2 O 0.58081(15) 0.9801(2) 0.6378(2)
O30_2 O 0.63147(14) 0.8927(2) 0.7039(2)
O31_4 O 0.38367(16) 0.8516(2) 0.3554(2)
O32_4 O 0.30546(17) 0.8223(2) 0.3017(2)
O41_4 O 0.31595(13) 0.96618(19) 0.29909(18)
O42_4 O 0.33585(13) 0.93150(19) 0.42858(18)
O43_4 O 0.27663(19) 0.8039(2) 0.3875(2)
H57_4 H 0.3042 0.8077 0.4299
H58_4 H 0.2531 0.8003 0.3909
O44_4 O 0.20206(18) 0.8143(2) 0.2400(2)
H59_4 H 0.1730 0.8310 0.2176
H60_4 H 0.2063 0.8004 0.2102
O46_3 O 0.36859(16) 0.9526(2) 0.5672(2)
H63_3 H 0.4015 0.9587 0.5965
H64_3 H 0.3583 0.9566 0.5937
O47_3 O 0.42667(19) 0.8558(3) 0.5012(2)
H65_3 H 0.4474 0.8592 0.5460
H66_4 H 0.4178 0.8134 0.4900
O48_4 O 0.47997(15) 0.9290(2) 0.4661(2)
H67_4 H 0.4844 0.8849 0.4697
H68_4 H 0.4862 0.9454 0.4392
Tb5_2 Tb 0.396326(9) 0.954269(14) 0.416116(13)
C7_4 C 0.4799(2) 0.0560(3) 0.3249(3)
C8_3 C 0.5255(3) 0.1486(4) 0.3337(3)
H4_3 H 0.5531 0.1653 0.3397
C9_4 C 0.4933(2) 0.1958(4) 0.3260(4)
H5_4 H 0.4981 0.2433 0.3248
C10_4 C 0.4534(2) 0.1719(3) 0.3202(3)
H6_4 H 0.4313 0.2033 0.3161
C11_4 C 0.4465(2) 0.1005(3) 0.3204(3)
C12_4 C 0.4079(2) 0.0746(3) 0.3256(3)
C13_4 C 0.6540(2) 0.1840(3) 0.6874(3)
C14_4 C 0.6506(2) 0.2392(3) 0.7278(3)
C15_4 C 0.6103(3) 0.2819(4) 0.6939(4)
H7_4 H 0.5836 0.2732 0.6470
C16_4 C 0.6095(3) 0.3367(5) 0.7285(5)
H8_4 H 0.5828 0.3670 0.7055
C17_4 C 0.6480(4) 0.3467(5) 0.7968(6)
H9_4 H 0.6473 0.3853 0.8197
C18_4 C 0.6886(3) 0.2509(3) 0.7985(3)
C19_4 C 0.7315(2) 0.2026(3) 0.8439(3)
C20_4 C 0.7577(4) 0.0934(4) 0.8854(4)
H10_4 H 0.7505 0.0463 0.8838
C21_4 C 0.8063(3) 0.1135(4) 0.9346(4)
H11_4 H 0.8307 0.0813 0.9651
C22_4 C 0.8168(3) 0.1822(4) 0.9363(3)
H12_4 H 0.8489 0.1983 0.9684
C23_4 C 0.7789(2) 0.2278(3) 0.8896(3)
C24_4 C 0.7908(2) 0.3029(3) 0.8852(3)
C42_4 C 0.9439(3) 0.0565(5) 0.9516(5)
H21_4 H 0.9589 0.0995 0.9705
C43_4 C 0.8929(3) 0.0530(5) 0.9011(5)
H22_4 H 0.8743 0.0938 0.8855
N2_3 N 0.52003(18) 0.0789(3) 0.3332(3)
N3_4 N 0.6876(3) 0.3046(4) 0.8343(4)
N4_4 N 0.7206(2) 0.1353(3) 0.8405(3)
O5_4 O 0.61633(16) 0.1484(2) 0.6446(2)
O6_4 O 0.69454(17) 0.1777(2) 0.6983(2)
O15_4 O 0.68405(13) 0.03382(19) 0.70091(18)
O16_4 O 0.66415(13) 0.06850(19) 0.57142(18)
O17_4 O 0.72337(19) 0.1961(2) 0.6125(2)
H23_4 H 0.6958 0.1923 0.5701
H24_4 H 0.7469 0.1997 0.6091
O18_4 O 0.79794(18) 0.1857(2) 0.7600(2)
H25_4 H 0.8270 0.1690 0.7824
H26_4 H 0.7937 0.1996 0.7898
O20_3 O 0.63141(16) 0.0474(2) 0.4328(2)
H29_3 H 0.5985 0.0413 0.4035
H30_3 H 0.6417 0.0434 0.4063
O21_3 O 0.57333(19) 0.1442(3) 0.4988(2)
H31_3 H 0.5526 0.1408 0.4540
H32_4 H 0.5822 0.1866 0.5100
O22_4 O 0.52003(15) 0.0710(2) 0.5339(2)
H33_4 H 0.5156 0.1151 0.5303
H34_4 H 0.5138 0.0546 0.5608
O23_4 O 0.79506(15) 0.0464(2) 0.7916(2)
C32_4 C 0.8560(3) 0.8990(5) 0.0150(5)
C33_4 C 0.8751(3) 0.9349(6) 0.0753(5)
H17_4 H 0.9067 0.9533 0.1008
C34_4 C 0.8485(3) 0.9442(5) 0.0989(4)
H18_4 H 0.8621 0.9678 0.1411
C35_4 C 0.8014(2) 0.9186(3) 0.0600(3)
C36_4 C 0.7709(2) 0.9370(3) 0.0826(3)
C1_3 C 0.5565(2) 0.9515(3) 0.4287(3)
C2_3 C 0.5092(2) 0.9307(3) 0.3598(3)
C3_3 C 0.5011(2) 0.8610(4) 0.3409(3)
H1_3 H 0.5255 0.8281 0.3693
C4_4 C 0.4570(3) 0.8411(4) 0.2803(4)
H2_4 H 0.4508 0.7946 0.2664
C5_4 C 0.4219(3) 0.8909(4) 0.2402(4)
H3_4 H 0.3913 0.8765 0.2000
C6_4 C 0.4725(2) 0.9785(3) 0.3146(3)
C25_4 C 0.7228(2) 0.8636(3) 0.8388(3)
C26_4 C 0.7108(2) 0.8316(3) 0.8834(3)
C27_4 C 0.6696(3) 0.7901(3) 0.8485(3)
H13_4 H 0.6536 0.7781 0.8014
C28_4 C 0.6521(3) 0.7667(4) 0.8832(4)
H14_4 H 0.6241 0.7390 0.8602
C29_4 C 0.6768(3) 0.7849(4) 0.9516(4)
H15_4 H 0.6640 0.7703 0.9744
C30_4 C 0.7358(2) 0.8456(3) 0.9557(3)
C31_4 C 0.7841(2) 0.8813(3) 0.9993(3)
H16_4 H 0.8748 0.8932 0.9996
C37_4 C 0.8156(2) 0.9887(4) 0.8195(3)
C38_4 C 0.8702(2) 0.9909(4) 0.8749(3)
C39_4 C 0.8979(2) 0.9318(4) 0.9014(4)
H19_4 H 0.8826 0.8885 0.8858
C40_4 C 0.9483(3) 0.9352(4) 0.9507(4)
H20_4 H 0.9662 0.8940 0.9688
C41_4 C 0.9724(3) 0.9972(4) 0.9738(4)
N1_4 N 0.42894(18) 0.9588(3) 0.2551(3)
N5_4 N 0.8109(2) 0.8718(3) 0.9770(3)
N6_4 N 0.7180(2) 0.8222(3) 0.9888(3)
O1_3 O 0.59462(14) 0.9206(2) 0.4462(2)
O2_3 O 0.55492(14) 0.9968(2) 0.46549(19)
O9_4 O 0.72787(16) 0.8244(2) 0.8014(2)
O10_4 O 0.72167(14) 0.9287(2) 0.83234(18)
O13_4 O 0.73528(13) 0.9715(2) 0.65784(18)
O14_4 O 0.64099(13) 0.93745(19) 0.59449(17)
O19_3 O 0.68500(16) 0.9071(2) 0.4527(2)
H27_3 H 0.7132 0.8855 0.4756
H28_3 H 0.6842 0.9390 0.4262
O24_4 O 0.79346(15) 0.9316(2) 0.8029(2)
C1_4 C 0.9435(2) 0.4515(3) 0.0713(3)
C2_4 C 0.9908(2) 0.4307(3) 0.1402(3)
C3_4 C 0.9989(2) 0.3610(4) 0.1591(3)
H1_4 H 0.9745 0.3281 0.1307
C8_4 C 0.9745(3) 0.6486(4) 0.1663(3)
H4_4 H 0.9469 0.6653 0.1603
N2_4 N 0.97997(18) 0.5789(3) 0.1668(3)
O1_4 O 0.90538(14) 0.4206(2) 0.0538(2)
O2_4 O 0.94508(14) 0.4968(2) 0.03451(19)
O19_4 O 0.81500(16) 0.4071(2) 0.0473(2)
H27_4 H 0.7868 0.3855 0.0244
H28_4 H 0.8158 0.4390 0.0738
O20_4 O 0.86859(16) 0.5474(2) 0.0672(2)
H29_4 H 0.9015 0.5413 0.0965
H30_4 H 0.8583 0.5434 0.0937
O21_4 O 0.92667(19) 0.6442(3) 0.0012(2)
H31_4 H 0.9474 0.6408 0.0460
C51_4 C 0.0565(2) 0.5485(3) 0.9287(3)
C52_4 C 0.0092(2) 0.5693(3) 0.8598(3)
C53_4 C 0.0011(2) 0.6390(4) 0.8409(3)
H39_4 H 0.0255 0.6719 0.8693
C58_4 C 0.0255(3) 0.3514(4) 0.8337(3)
H42_4 H 0.0531 0.3347 0.8397
N8_4 N 0.02003(18) 0.4211(3) 0.8332(3)
O27_4 O 0.09462(14) 0.5794(2) 0.9462(2)
O28_4 O 0.05492(14) 0.5032(2) 0.96549(19)
O45_4 O 0.18500(16) 0.5929(2) 0.9527(2)
H61_4 H 0.2132 0.6145 0.9756
H62_4 H 0.1842 0.5610 0.9262
O46_4 O 0.13141(16) 0.4526(2) 0.9328(2)
H63_4 H 0.0985 0.4587 0.9035
H64_4 H 0.1417 0.4566 0.9063
O47_4 O 0.07333(19) 0.3558(3) 0.9988(2)
H65_4 H 0.0526 0.3592 0.9540
O61 O 0.0578(3) 0.6665(4) 0.0350(4)
O62 O 0.0911(3) 0.7698(5) 0.0968(4)
O64 O 0.0098(5) 0.7527(7) 0.0188(7)
Cl1 Cl 0.05408(10) 0.73927(11) 0.03226(12)
O63 O 0.0497(5) 0.7690(7) 0.9814(6)
O61_2 O 0.9422(3) 0.6665(4) 0.4650(4)
O62_2 O 0.9089(3) 0.7698(5) 0.4032(4)
O63_2 O 0.9503(5) 0.7690(7) 0.5186(6)
O64_2 O 0.9902(5) 0.7527(7) 0.4812(7)
Cl1_2 Cl 0.94592(10) 0.73927(11) 0.46774(12)
O61_3 O 0.5578(3) 0.1665(4) 0.0350(4)
O62_3 O 0.5911(3) 0.2698(5) 0.0968(4)
O64_3 O 0.5098(5) 0.2527(7) 0.0188(7)
Cl1_3 Cl 0.55408(10) 0.23927(11) 0.03226(12)
O63_3 O 0.5497(5) 0.2690(7) 0.9814(6)
O61_4 O 0.4422(3) 0.1665(4) 0.4650(4)
O62_4 O 0.4089(3) 0.2698(5) 0.4032(4)
O63_4 O 0.4503(5) 0.2690(7) 0.5186(6)
O64_4 O 0.4902(5) 0.2527(7) 0.4812(7)
Cl1_4 Cl 0.44592(10) 0.23927(11) 0.46774(12)
O63_5 O 0.9503(5) 0.2310(7) 0.0186(6)
O61_5 O 0.9422(3) 0.3335(4) 0.9650(4)
O62_5 O 0.9089(3) 0.2302(5) 0.9032(4)
O64_5 O 0.9902(5) 0.2473(7) 0.9812(7)
Cl1_5 Cl 0.94592(10) 0.26073(11) 0.96774(12)
O61_6 O 0.0578(3) 0.3335(4) 0.5350(4)
O62_6 O 0.0911(3) 0.2302(5) 0.5968(4)
O63_6 O 0.0497(5) 0.2310(7) 0.4814(6)
O64_6 O 0.0098(5) 0.2473(7) 0.5188(7)
Cl1_6 Cl 0.05408(10) 0.26073(11) 0.53226(12)
O63_7 O 0.4503(5) 0.7310(7) 0.0186(6)
O61_7 O 0.4422(3) 0.8335(4) 0.9650(4)
O62_7 O 0.4089(3) 0.7302(5) 0.9032(4)
O64_7 O 0.4902(5) 0.7473(7) 0.9812(7)
Cl1_7 Cl 0.44592(10) 0.76073(11) 0.96774(12)
O61_8 O 0.5578(3) 0.8335(4) 0.5350(4)
O62_8 O 0.5911(3) 0.7302(5) 0.5968(4)
O63_8 O 0.5497(5) 0.7310(7) 0.4814(6)
O64_8 O 0.5098(5) 0.7473(7) 0.5188(7)
Cl1_8 Cl 0.55408(10) 0.76073(11) 0.53226(12)
loop_
_geom_bond_atom_site_label_1
_geom_bond_atom_site_label_2
_geom_bond_site_symmetry_1
_geom_bond_site_symmetry_2
H2 C4 1_555 1_555
C5 C4 1_555 1_555
H3 C5 1_555 1_555
C7 C6 1_555 1_555
H5 C9 1_555 1_555
C10 C9 1_555 1_555
H6 C10 1_555 1_555
C11 C7 1_555 1_555
C12 C11 1_555 1_555
N1 C5 1_555 1_555
O3 C12 1_555 1_555
O4 C12 1_555 1_555
Tb10 O3 1_555 1_555
Tb13 O4 1_555 1_555
C6 N1 1_555 1_555
C10 C11 1_555 1_555
C13 C14 1_555 1_555
C14 C15 1_555 1_555
C15 H7 1_555 1_555
C16 C15 1_555 1_555
H8 C16 1_555 1_555
C17 C16 1_555 1_555
H9 C17 1_555 1_555
C18 C14 1_555 1_555
C19 C18 1_555 1_555
C20 H10 1_555 1_555
C21 C20 1_555 1_555
H11 C21 1_555 1_555
C22 C21 1_555 1_555
H12 C22 1_555 1_555
C23 C19 1_555 1_555
C24 C23 1_555 1_555
C25 C26 1_555 1_555
C26 C27 1_555 1_555
C27 H13 1_555 1_555
C28 C27 1_555 1_555
H14 C28 1_555 1_555
C29 C28 1_555 1_555
H15 C29 1_555 1_555
C30 C26 1_555 1_555
C31 C30 1_555 1_555
C32 H16 1_555 1_555
C33 C32 1_555 1_555
H17 C33 1_555 1_555
C34 C33 1_555 1_555
H18 C34 1_555 1_555
C35 C31 1_555 1_555
C36 C35 1_555 1_555
C37 C38 1_555 1_555
C38 C39 1_555 1_555
C39 H19 1_555 1_555
C40 C39 1_555 1_555
H20 C40 1_555 1_555
C41 C40 1_555 1_555
C42 C41 1_555 1_555
H21 C42 1_555 1_555
C43 C38 1_555 1_555
H22 C43 1_555 1_555
N3 C17 1_555 1_555
N4 C19 1_555 1_555
N5 C31 1_555 1_555
N6 C29 1_555 1_555
O5 C13 1_555 1_555
O6 C13 1_555 1_555
O7 C24 1_555 1_555
O8 C24 1_555 1_555
O9 C25 1_555 1_555
O10 C25 1_555 1_555
O11 C36 1_555 1_555
O12 C36 1_555 1_555
O13 Tb2 1_555 1_555
O14 Tb1 1_555 1_555
O15 Tb1 1_555 1_555
O16 Tb1 1_555 1_555
O17 H23 1_555 1_555
H24 O17 1_555 1_555
O18 H25 1_555 1_555
H26 O18 1_555 1_555
O22 H33 1_555 1_555
H34 O22 1_555 1_555
O23 C37 1_555 1_555
O24 C37 1_555 1_555
Tb2 O9 1_555 1_555
Tb4 O6 1_555 1_555
C44 C45 1_555 1_555
C45 C46 1_555 1_555
C46 H35 1_555 1_555
C47 C46 1_555 1_555
H36 C47 1_555 1_555
C48 C41 1_555 1_555
C49 C48 1_555 1_555
H37 C49 1_555 1_555
C50 C45 1_555 1_555
H38 C50 1_555 1_555
O25 C44 1_555 1_555
O26 C44 1_555 1_555
C63 C64 1_555 1_555
C64 C65 1_555 1_555
C65 H45 1_555 1_555
C66 C65 1_555 1_555
H46 C66 1_555 1_555
C67 C66 1_555 1_555
H47 C67 1_555 1_555
C68 C64 1_555 1_555
C69 C68 1_555 1_555
C70 H48 1_555 1_555
C71 C70 1_555 1_555
H49 C71 1_555 1_555
C72 C71 1_555 1_555
H50 C72 1_555 1_555
C73 C69 1_555 1_555
C74 C73 1_555 1_555
C75 C76 1_555 1_555
C76 C77 1_555 1_555
C77 H51 1_555 1_555
C78 C77 1_555 1_555
H52 C78 1_555 1_555
C79 C78 1_555 1_555
H53 C79 1_555 1_555
C80 C76 1_555 1_555
C81 C80 1_555 1_555
C82 H54 1_555 1_555
C83 C82 1_555 1_555
H55 C83 1_555 1_555
C84 C83 1_555 1_555
H56 C84 1_555 1_555
C85 C81 1_555 1_555
C86 C85 1_555 1_555
N9 C67 1_555 1_555
N10 C69 1_555 1_555
N11 C81 1_555 1_555
N12 C79 1_555 1_555
O31 C63 1_555 1_555
O32 C63 1_555 1_555
O33 C74 1_555 1_555
O34 C74 1_555 1_555
O35 C75 1_555 1_555
O36 C75 1_555 1_555
O37 C86 1_555 1_555
O38 C86 1_555 1_555
O39 Tb13 1_555 1_555
O40 Tb10 1_555 1_555
O41 Tb10 1_555 1_555
O42 Tb10 1_555 1_555
O43 H57 1_555 1_555
H58 O43 1_555 1_555
O44 H59 1_555 1_555
H60 O44 1_555 1_555
O48 H67 1_555 1_555
H68 O48 1_555 1_555
Tb13 O26 1_555 1_555
Tb8 O25 1_555 1_555
O50 Tb1 1_555 1_555
O52 Tb2 1_555 1_555
O53 Tb2 1_555 1_555
O54 Tb13 1_555 1_555
O55 Tb3 1_555 1_555
O56 Tb7 1_555 1_555
O57 Tb7 1_555 1_555
O58 Tb3 1_555 1_555
O59 Tb8 1_555 1_555
O60 Tb4 1_555 1_555
Tb12 O7 1_555 1_555
Tb14 O33 1_555 1_555
Tb15 O37 1_555 1_555
Tb16 O8 1_555 1_555
Tb17 O11 1_555 1_555
Tb18 O34 1_555 1_555
Tb19 O38 1_555 1_555
Tb20 O12 1_555 1_555
C18 N3 1_555 1_555
C20 N4 1_555 1_555
C22 C23 1_555 1_555
C30 N6 1_555 1_555
C32 N5 1_555 1_555
C34 C35 1_555 1_555
C42 C43 1_555 1_555
O5 Tb1 1_555 1_555
O10 Tb2 1_555 1_555
O13 Tb3 1_555 1_555
O13 Tb4 1_555 1_555
O14 Tb2 1_555 1_555
O14 Tb3 1_555 1_555
O15 Tb2 1_555 1_555
O15 Tb4 1_555 1_555
O16 Tb3 1_555 1_555
O16 Tb4 1_555 1_555
O17 Tb4 1_555 1_555
O18 Tb4 1_555 1_555
O22 Tb1 1_555 1_555
O23 Tb4 1_555 1_555
O24 Tb2 1_555 1_555
C47 C48 1_555 1_555
C49 C50 1_555 1_555
C68 N9 1_555 1_555
C70 N10 1_555 1_555
C72 C73 1_555 1_555
C80 N12 1_555 1_555
C82 N11 1_555 1_555
C84 C85 1_555 1_555
O31 Tb10 1_555 1_555
O32 Tb8 1_555 1_555
O35 Tb13 1_555 1_555
O36 Tb13 1_555 1_555
O39 Tb7 1_555 1_555
O39 Tb8 1_555 1_555
O40 Tb13 1_555 1_555
O40 Tb7 1_555 1_555
O41 Tb13 1_555 1_555
O41 Tb8 1_555 1_555
O42 Tb7 1_555 1_555
O42 Tb8 1_555 1_555
O43 Tb8 1_555 1_555
O44 Tb8 1_555 1_555
O48 Tb10 1_555 1_555
H40 C54 1_555 1_555
C55 C54 1_555 1_555
H41 C55 1_555 1_555
C57 C56 1_555 1_555
H43 C59 1_555 1_555
C60 C59 1_555 1_555
H44 C60 1_555 1_555
C61 C57 1_555 1_555
C62 C61 1_555 1_555
N7 C55 1_555 1_555
O50 C62 1_555 1_555
O52 C62 1_555 1_555
C56 N7 1_555 1_555
C60 C61 1_555 1_555
H40_2 C54_2 1_555 1_555
C55_2 C54_2 1_555 1_555
H41_2 C55_2 1_555 1_555
C57_2 C56_2 1_555 1_555
H43_2 C59_2 1_555 1_555
C60_2 C59_2 1_555 1_555
H44_2 C60_2 1_555 1_555
C61_2 C57_2 1_555 1_555
C62_2 C61_2 1_555 1_555
N7_2 C55_2 1_555 1_555
O29 C62_2 1_555 1_555
O30 C62_2 1_555 1_555
Tb9 O29 1_555 1_555
Tb11 O30 1_555 1_555
C56_2 N7_2 1_555 1_555
C60_2 C61_2 1_555 1_555
C33_2 C32_2 1_555 1_555
H17_2 C33_2 1_555 1_555
C34_2 C33_2 1_555 1_555
H18_2 C34_2 1_555 1_555
C36_2 C35_2 1_555 1_555
O57 C36_2 1_555 1_555
O59 C36_2 1_555 1_555
C44_2 C45_2 1_555 1_555
C45_2 C46_2 1_555 1_555
C46_2 H35_2 1_555 1_555
C47_2 C46_2 1_555 1_555
H36_2 C47_2 1_555 1_555
C49_2 C48_2 1_555 1_555
H37_2 C49_2 1_555 1_555
C50_2 C45_2 1_555 1_555
H38_2 C50_2 1_555 1_555
O25_2 C44_2 1_555 1_555
O26_2 C44_2 1_555 1_555
C51 C52 1_555 1_555
C52 C53 1_555 1_555
C53 H39 1_555 1_555
C58 H42 1_555 1_555
C63_2 C64_2 1_555 1_555
C64_2 C65_2 1_555 1_555
C65_2 H45_2 1_555 1_555
C66_2 C65_2 1_555 1_555
H46_2 C66_2 1_555 1_555
C67_2 C66_2 1_555 1_555
H47_2 C67_2 1_555 1_555
C68_2 C64_2 1_555 1_555
C69_2 C68_2 1_555 1_555
C70_2 H48_2 1_555 1_555
C71_2 C70_2 1_555 1_555
H49_2 C71_2 1_555 1_555
C72_2 C71_2 1_555 1_555
H50_2 C72_2 1_555 1_555
C73_2 C69_2 1_555 1_555
C74_2 C73_2 1_555 1_555
C75_2 C76_2 1_555 1_555
C76_2 C77_2 1_555 1_555
C77_2 H51_2 1_555 1_555
C78_2 C77_2 1_555 1_555
H52_2 C78_2 1_555 1_555
C79_2 C78_2 1_555 1_555
H53_2 C79_2 1_555 1_555
C80_2 C76_2 1_555 1_555
C81_2 C80_2 1_555 1_555
N9_2 C67_2 1_555 1_555
N10_2 C69_2 1_555 1_555
N11_2 C81_2 1_555 1_555
N12_2 C79_2 1_555 1_555
O27 C51 1_555 1_555
O28 C51 1_555 1_555
O31_2 C63_2 1_555 1_555
O32_2 C63_2 1_555 1_555
O33_2 C74_2 1_555 1_555
O34_2 C74_2 1_555 1_555
O35_2 C75_2 1_555 1_555
O36_2 C75_2 1_555 1_555
O39_2 Tb6 1_555 1_555
O40_2 Tb5 1_555 1_555
O41_2 Tb5 1_555 1_555
O42_2 Tb5 1_555 1_555
O43_2 H57_2 1_555 1_555
H58_2 O43_2 1_555 1_555
O44_2 H59_2 1_555 1_555
H60_2 O44_2 1_555 1_555
O45 H61 1_555 1_555
H62 O45 1_555 1_555
O46 H63 1_555 1_555
H64 O46 1_555 1_555
O47 H65 1_555 1_555
H66_2 O47 1_555 1_555
O48_2 H67_2 1_555 1_555
H68_2 O48_2 1_555 1_555
Tb5 O28 1_555 1_555
Tb6 O26_2 1_555 1_555
Tb17 O27 1_555 1_555
Tb20 O25_2 1_555 1_555
O49 Tb5 1_555 1_555
O51 Tb6 1_555 1_555
O54_2 Tb6 1_555 1_555
O56_2 Tb17 1_555 1_555
Tb14_2 O33_2 1_555 1_555
Tb18_2 O34_2 1_555 1_555
C34_2 C35_2 1_555 1_555
C47_2 C48_2 1_555 1_555
C49_2 C50_2 1_555 1_555
C58 N8 1_555 1_555
C68_2 N9_2 1_555 1_555
C70_2 N10_2 1_555 1_555
C72_2 C73_2 1_555 1_555
C80_2 N12_2 1_555 1_555
O31_2 Tb5 1_555 1_555
O32_2 Tb20 1_555 1_555
O35_2 Tb6 1_555 1_555
O36_2 Tb6 1_555 1_555
O39_2 Tb17 1_555 1_555
O39_2 Tb20 1_555 1_555
O40_2 Tb6 1_555 1_555
O40_2 Tb17 1_555 1_555
O41_2 Tb6 1_555 1_555
O41_2 Tb20 1_555 1_555
O42_2 Tb17 1_555 1_555
O42_2 Tb20 1_555 1_555
O43_2 Tb20 1_555 1_555
O44_2 Tb20 1_555 1_555
O45 Tb17 1_555 1_555
O46 Tb17 1_555 1_555
O47 Tb5 1_555 1_555
O48_2 Tb5 1_555 1_555
C1 C2 1_555 1_555
C2 C3 1_555 1_555
C3 H1 1_555 1_555
C8 H4 1_555 1_555
C13_2 C14_2 1_555 1_555
C14_2 C15_2 1_555 1_555
C15_2 H7_2 1_555 1_555
C16_2 C15_2 1_555 1_555
H8_2 C16_2 1_555 1_555
C17_2 C16_2 1_555 1_555
H9_2 C17_2 1_555 1_555
C18_2 C14_2 1_555 1_555
C19_2 C18_2 1_555 1_555
C20_2 H10_2 1_555 1_555
C21_2 C20_2 1_555 1_555
H11_2 C21_2 1_555 1_555
C22_2 C21_2 1_555 1_555
H12_2 C22_2 1_555 1_555
C23_2 C19_2 1_555 1_555
C24_2 C23_2 1_555 1_555
C25_2 C26_2 1_555 1_555
C26_2 C27_2 1_555 1_555
C27_2 H13_2 1_555 1_555
C28_2 C27_2 1_555 1_555
H14_2 C28_2 1_555 1_555
C29_2 C28_2 1_555 1_555
H15_2 C29_2 1_555 1_555
C30_2 C26_2 1_555 1_555
C31_2 C30_2 1_555 1_555
C37_2 C38_2 1_555 1_555
C38_2 C39_2 1_555 1_555
C39_2 H19_2 1_555 1_555
C40_2 C39_2 1_555 1_555
H20_2 C40_2 1_555 1_555
C41_2 C40_2 1_555 1_555
C42_2 C41_2 1_555 1_555
H21_2 C42_2 1_555 1_555
C43_2 C38_2 1_555 1_555
H22_2 C43_2 1_555 1_555
N3_2 C17_2 1_555 1_555
N4_2 C19_2 1_555 1_555
N5_2 C31_2 1_555 1_555
N6_2 C29_2 1_555 1_555
O1 C1 1_555 1_555
O2 C1 1_555 1_555
O5_2 C13_2 1_555 1_555
O6_2 C13_2 1_555 1_555
O7_2 C24_2 1_555 1_555
O8_2 C24_2 1_555 1_555
O9_2 C25_2 1_555 1_555
O10_2 C25_2 1_555 1_555
O13_2 Tb11 1_555 1_555
O14_2 Tb9 1_555 1_555
O15_2 Tb9 1_555 1_555
O16_2 Tb9 1_555 1_555
O17_2 H23_2 1_555 1_555
H24_2 O17_2 1_555 1_555
O18_2 H25_2 1_555 1_555
H26_2 O18_2 1_555 1_555
O19 H27 1_555 1_555
H28 O19 1_555 1_555
O20 H29 1_555 1_555
H30 O20 1_555 1_555
O21 H31 1_555 1_555
H32_2 O21 1_555 1_555
O22_2 H33_2 1_555 1_555
H34_2 O22_2 1_555 1_555
O23_2 C37_2 1_555 1_555
O24_2 C37_2 1_555 1_555
Tb9 O2 1_555 1_555
Tb11 O9_2 1_555 1_555
Tb15 O1 1_555 1_555
Tb19 O6_2 1_555 1_555
C83_2 C82_2 1_555 1_555
H55_2 C83_2 1_555 1_555
C84_2 C83_2 1_555 1_555
H56_2 C84_2 1_555 1_555
C86_2 C85_2 1_555 1_555
O58 C86_2 1_555 1_555
O60 C86_2 1_555 1_555
O53_2 Tb11 1_555 1_555
O55_2 Tb15 1_555 1_555
Tb12_2 O7_2 1_555 1_555
Tb16_2 O8_2 1_555 1_555
C8 N2 1_555 1_555
C18_2 N3_2 1_555 1_555
C20_2 N4_2 1_555 1_555
C22_2 C23_2 1_555 1_555
C30_2 N6_2 1_555 1_555
C42_2 C43_2 1_555 1_555
O5_2 Tb9 1_555 1_555
O10_2 Tb11 1_555 1_555
O13_2 Tb15 1_555 1_555
O13_2 Tb19 1_555 1_555
O14_2 Tb11 1_555 1_555
O14_2 Tb15 1_555 1_555
O15_2 Tb11 1_555 1_555
O15_2 Tb19 1_555 1_555
O16_2 Tb15 1_555 1_555
O16_2 Tb19 1_555 1_555
O17_2 Tb19 1_555 1_555
O18_2 Tb19 1_555 1_555
O19 Tb15 1_555 1_555
O20 Tb15 1_555 1_555
O21 Tb9 1_555 1_555
O22_2 Tb9 1_555 1_555
O23_2 Tb19 1_555 1_555
O24_2 Tb11 1_555 1_555
C84_2 C85_2 1_555 1_555
H2_2 C4_2 1_555 1_555
C5_2 C4_2 1_555 1_555
H3_2 C5_2 1_555 1_555
C7_2 C6_2 1_555 1_555
H5_2 C9_2 1_555 1_555
C10_2 C9_2 1_555 1_555
H6_2 C10_2 1_555 1_555
C11_2 C7_2 1_555 1_555
C12_2 C11_2 1_555 1_555
N1_2 C5_2 1_555 1_555
O49 C12_2 1_555 1_555
O51 C12_2 1_555 1_555
C6_2 N1_2 1_555 1_555
C10_2 C11_2 1_555 1_555
C8_2 H4_2 1_555 1_555
C9_3 C8_2 1_555 1_555
H5_3 C9_3 1_555 1_555
C10_3 C9_3 1_555 1_555
H6_3 C10_3 1_555 1_555
C11_3 C7_3 1_555 1_555
C12_3 C11_3 1_555 1_555
N2_2 C7_3 1_555 1_555
O3_2 C12_3 1_555 1_555
O4_2 C12_3 1_555 1_555
O20_2 H29_2 1_555 1_555
H30_2 O20_2 1_555 1_555
O21_2 H31_2 1_555 1_555
Tb14_2 O4_2 1_555 1_555
C8_2 N2_2 1_555 1_555
C10_3 C11_3 1_555 1_555
C13_3 C14_3 1_555 1_555
C14_3 C15_3 1_555 1_555
C15_3 H7_3 1_555 1_555
C16_3 C15_3 1_555 1_555
H8_3 C16_3 1_555 1_555
C17_3 C16_3 1_555 1_555
H9_3 C17_3 1_555 1_555
C18_3 C14_3 1_555 1_555
C19_3 C18_3 1_555 1_555
C20_3 H10_3 1_555 1_555
C21_3 C20_3 1_555 1_555
H11_3 C21_3 1_555 1_555
C22_3 C21_3 1_555 1_555
H12_3 C22_3 1_555 1_555
C23_3 C19_3 1_555 1_555
C24_3 C23_3 1_555 1_555
H21_3 C42_3 1_555 1_555
H22_3 C43_3 1_555 1_555
N3_3 C17_3 1_555 1_555
N4_3 C19_3 1_555 1_555
O5_3 C13_3 1_555 1_555
O6_3 C13_3 1_555 1_555
O53_2 C24_3 1_555 1_555
O55_2 C24_3 1_555 1_555
O15_3 Tb1_2 1_555 1_555
O16_3 Tb1_2 1_555 1_555
O17_3 H23_3 1_555 1_555
H24_3 O17_3 1_555 1_555
O18_3 H25_3 1_555 1_555
H26_3 O18_3 1_555 1_555
O22_3 H33_3 1_555 1_555
H34_3 O22_3 1_555 1_555
Tb4_2 O6_3 1_555 1_555
O60_2 Tb4_2 1_555 1_555
C18_3 N3_3 1_555 1_555
C20_3 N4_3 1_555 1_555
C22_3 C23_3 1_555 1_555
C42_3 C43_3 1_555 1_555
O5_3 Tb1_2 1_555 1_555
O15_3 Tb4_2 1_555 1_555
O16_3 Tb4_2 1_555 1_555
O17_3 Tb4_2 1_555 1_555
O18_3 Tb4_2 1_555 1_555
O22_3 Tb1_2 1_555 1_555
O23_3 Tb4_2 1_555 1_555
C1_2 C2_2 1_555 1_555
C2_2 C3_2 1_555 1_555
C3_2 H1_2 1_555 1_555
C4_3 C3_2 1_555 1_555
H2_3 C4_3 1_555 1_555
C5_3 C4_3 1_555 1_555
H3_3 C5_3 1_555 1_555
C6_3 C2_2 1_555 1_555
N1_3 C5_3 1_555 1_555
O1_2 C1_2 1_555 1_555
O2_2 C1_2 1_555 1_555
O19_2 H27_2 1_555 1_555
H28_2 O19_2 1_555 1_555
C6_3 N1_3 1_555 1_555
C25_3 C26_3 1_555 1_555
C26_3 C27_3 1_555 1_555
C27_3 H13_3 1_555 1_555
C28_3 C27_3 1_555 1_555
H14_3 C28_3 1_555 1_555
C29_3 C28_3 1_555 1_555
H15_3 C29_3 1_555 1_555
C30_3 C26_3 1_555 1_555
C31_3 C30_3 1_555 1_555
C32_3 H16_3 1_555 1_555
C33_3 C32_3 1_555 1_555
H17_3 C33_3 1_555 1_555
C34_3 C33_3 1_555 1_555
H18_3 C34_3 1_555 1_555
C35_3 C31_3 1_555 1_555
C36_3 C35_3 1_555 1_555
C37_3 C38_3 1_555 1_555
C38_3 C39_3 1_555 1_555
C39_3 H19_3 1_555 1_555
C40_3 C39_3 1_555 1_555
H20_3 C40_3 1_555 1_555
C41_3 C40_3 1_555 1_555
N5_3 C31_3 1_555 1_555
N6_3 C29_3 1_555 1_555
O9_3 C25_3 1_555 1_555
O10_3 C25_3 1_555 1_555
O11_2 C36_3 1_555 1_555
O12_2 C36_3 1_555 1_555
O13_3 Tb12_2 1_555 1_555
O24_3 C37_3 1_555 1_555
Tb12_2 O9_3 1_555 1_555
O52_2 Tb12_2 1_555 1_555
Tb20_2 O12_2 1_555 1_555
C30_3 N6_3 1_555 1_555
C32_3 N5_3 1_555 1_555
C34_3 C35_3 1_555 1_555
O10_3 Tb12_2 1_555 1_555
O13_3 Tb16_2 1_555 1_555
O14_3 Tb12_2 1_555 1_555
O14_3 Tb16_2 1_555 1_555
O24_3 Tb12_2 1_555 1_555
C44_3 C45_3 1_555 1_555
C45_3 C46_3 1_555 1_555
C46_3 H35_3 1_555 1_555
C47_3 C46_3 1_555 1_555
H36_3 C47_3 1_555 1_555
O26_3 C44_3 1_555 1_555
C75_3 C76_3 1_555 1_555
C76_3 C77_3 1_555 1_555
C77_3 H51_3 1_555 1_555
C78_3 C77_3 1_555 1_555
H52_3 C78_3 1_555 1_555
C79_3 C78_3 1_555 1_555
H53_3 C79_3 1_555 1_555
C80_3 C76_3 1_555 1_555
C81_3 C80_3 1_555 1_555
C82_3 H54_3 1_555 1_555
C83_3 C82_3 1_555 1_555
H55_3 C83_3 1_555 1_555
C84_3 C83_3 1_555 1_555
H56_3 C84_3 1_555 1_555
C85_3 C81_3 1_555 1_555
C86_3 C85_3 1_555 1_555
N11_3 C81_3 1_555 1_555
N12_3 C79_3 1_555 1_555
O35_3 C75_3 1_555 1_555
O36_3 C75_3 1_555 1_555
O37_2 C86_3 1_555 1_555
O38_2 C86_3 1_555 1_555
O39_3 Tb14_2 1_555 1_555
Tb14_2 O26_3 1_555 1_555
Tb19_2 O38_2 1_555 1_555
C47_3 C48_3 1_555 1_555
C80_3 N12_3 1_555 1_555
C82_3 N11_3 1_555 1_555
C84_3 C85_3 1_555 1_555
O35_3 Tb14_2 1_555 1_555
O36_3 Tb14_2 1_555 1_555
O39_3 Tb18_2 1_555 1_555
O40_3 Tb14_2 1_555 1_555
O40_3 Tb18_2 1_555 1_555
C51_2 C52_2 1_555 1_555
C52_2 C53_2 1_555 1_555
C53_2 H39_2 1_555 1_555
C54_3 C53_2 1_555 1_555
H40_3 C54_3 1_555 1_555
C55_3 C54_3 1_555 1_555
H41_3 C55_3 1_555 1_555
C56_3 C52_2 1_555 1_555
N7_3 C55_3 1_555 1_555
O27_2 C51_2 1_555 1_555
O28_2 C51_2 1_555 1_555
O45_2 H61_2 1_555 1_555
H62_2 O45_2 1_555 1_555
C56_3 N7_3 1_555 1_555
H37_3 C49_3 1_555 1_555
H38_3 C50_3 1_555 1_555
C63_3 C64_3 1_555 1_555
C64_3 C65_3 1_555 1_555
C65_3 H45_3 1_555 1_555
C66_3 C65_3 1_555 1_555
H46_3 C66_3 1_555 1_555
C67_3 C66_3 1_555 1_555
H47_3 C67_3 1_555 1_555
C68_3 C64_3 1_555 1_555
C69_3 C68_3 1_555 1_555
C70_3 H48_3 1_555 1_555
C71_3 C70_3 1_555 1_555
H49_3 C71_3 1_555 1_555
C72_3 C71_3 1_555 1_555
H50_3 C72_3 1_555 1_555
C73_3 C69_3 1_555 1_555
C74_3 C73_3 1_555 1_555
N9_3 C67_3 1_555 1_555
N10_3 C69_3 1_555 1_555
O31_3 C63_3 1_555 1_555
O32_3 C63_3 1_555 1_555
O54_2 C74_3 1_555 1_555
O56_2 C74_3 1_555 1_555
O41_3 Tb10_2 1_555 1_555
O42_3 Tb10_2 1_555 1_555
O43_3 H57_3 1_555 1_555
H58_3 O43_3 1_555 1_555
O44_3 H59_3 1_555 1_555
H60_3 O44_3 1_555 1_555
O48_3 H67_3 1_555 1_555
H68_3 O48_3 1_555 1_555
Tb8_2 O25_3 1_555 1_555
O59_2 Tb8_2 1_555 1_555
C49_3 C50_3 1_555 1_555
C68_3 N9_3 1_555 1_555
C70_3 N10_3 1_555 1_555
C72_3 C73_3 1_555 1_555
O31_3 Tb10_2 1_555 1_555
O32_3 Tb8_2 1_555 1_555
O41_3 Tb8_2 1_555 1_555
O42_3 Tb8_2 1_555 1_555
O43_3 Tb8_2 1_555 1_555
O44_3 Tb8_2 1_555 1_555
O48_3 Tb10_2 1_555 1_555
C58_2 H42_2 1_555 1_555
C59_3 C58_2 1_555 1_555
H43_3 C59_3 1_555 1_555
C60_3 C59_3 1_555 1_555
H44_3 C60_3 1_555 1_555
C61_3 C57_3 1_555 1_555
C62_3 C61_3 1_555 1_555
N8_2 C57_3 1_555 1_555
O50_2 C62_3 1_555 1_555
O52_2 C62_3 1_555 1_555
O46_2 H63_2 1_555 1_555
H64_2 O46_2 1_555 1_555
O47_2 H65_2 1_555 1_555
C58_2 N8_2 1_555 1_555
C60_3 C61_3 1_555 1_555
C44_4 C45_4 1_555 1_555
C45_4 C46_4 1_555 1_555
C46_4 H35_4 1_555 1_555
C47_4 C46_4 1_555 1_555
H36_4 C47_4 1_555 1_555
O26_4 C44_4 1_555 1_555
C51_3 C52_3 1_555 1_555
C52_3 C53_3 1_555 1_555
C53_3 H39_3 1_555 1_555
C54_4 C53_3 1_555 1_555
H40_4 C54_4 1_555 1_555
C55_4 C54_4 1_555 1_555
H41_4 C55_4 1_555 1_555
C56_4 C52_3 1_555 1_555
C75_4 C76_4 1_555 1_555
C76_4 C77_4 1_555 1_555
C77_4 H51_4 1_555 1_555
C78_4 C77_4 1_555 1_555
H52_4 C78_4 1_555 1_555
C79_4 C78_4 1_555 1_555
H53_4 C79_4 1_555 1_555
C80_4 C76_4 1_555 1_555
C81_4 C80_4 1_555 1_555
N7_4 C55_4 1_555 1_555
N11_4 C81_4 1_555 1_555
N12_4 C79_4 1_555 1_555
O27_3 C51_3 1_555 1_555
O28_3 C51_3 1_555 1_555
O35_4 C75_4 1_555 1_555
O36_4 C75_4 1_555 1_555
O39_4 Tb14 1_555 1_555
O45_3 H61_3 1_555 1_555
H62_3 O45_3 1_555 1_555
Tb14 O26_4 1_555 1_555
Tb18 O27_3 1_555 1_555
O51_2 Tb14 1_555 1_555
C47_4 C48_4 1_555 1_555
C56_4 N7_4 1_555 1_555
C80_4 N12_4 1_555 1_555
O35_4 Tb14 1_555 1_555
O36_4 Tb14 1_555 1_555
O39_4 Tb18 1_555 1_555
O40_4 Tb14 1_555 1_555
O40_4 Tb18 1_555 1_555
O45_3 Tb18 1_555 1_555
C83_4 C82_4 1_555 1_555
H55_4 C83_4 1_555 1_555
C84_4 C83_4 1_555 1_555
H56_4 C84_4 1_555 1_555
C86_4 C85_4 1_555 1_555
O58_2 C86_4 1_555 1_555
O60_2 C86_4 1_555 1_555
C84_4 C85_4 1_555 1_555
H37_4 C49_4 1_555 1_555
H38_4 C50_4 1_555 1_555
C58_3 H42_3 1_555 1_555
C59_4 C58_3 1_555 1_555
H43_4 C59_4 1_555 1_555
C60_4 C59_4 1_555 1_555
H44_4 C60_4 1_555 1_555
C61_4 C57_4 1_555 1_555
C62_4 C61_4 1_555 1_555
C63_4 C64_4 1_555 1_555
C64_4 C65_4 1_555 1_555
C65_4 H45_4 1_555 1_555
C66_4 C65_4 1_555 1_555
H46_4 C66_4 1_555 1_555
C67_4 C66_4 1_555 1_555
H47_4 C67_4 1_555 1_555
C68_4 C64_4 1_555 1_555
C69_4 C68_4 1_555 1_555
C70_4 H48_4 1_555 1_555
C71_4 C70_4 1_555 1_555
H49_4 C71_4 1_555 1_555
C72_4 C71_4 1_555 1_555
H50_4 C72_4 1_555 1_555
C73_4 C69_4 1_555 1_555
C74_4 C73_4 1_555 1_555
N8_3 C57_4 1_555 1_555
N9_4 C67_4 1_555 1_555
N10_4 C69_4 1_555 1_555
O29_2 C62_4 1_555 1_555
O30_2 C62_4 1_555 1_555
O31_4 C63_4 1_555 1_555
O32_4 C63_4 1_555 1_555
O54 C74_4 1_555 1_555
O56 C74_4 1_555 1_555
O41_4 Tb5_2 1_555 1_555
O42_4 Tb5_2 1_555 1_555
O43_4 H57_4 1_555 1_555
H58_4 O43_4 1_555 1_555
O44_4 H59_4 1_555 1_555
H60_4 O44_4 1_555 1_555
O46_3 H63_3 1_555 1_555
H64_3 O46_3 1_555 1_555
O47_3 H65_3 1_555 1_555
H66_4 O47_3 1_555 1_555
O48_4 H67_4 1_555 1_555
H68_4 O48_4 1_555 1_555
Tb20_2 O25_4 1_555 1_555
Tb12 O30_2 1_555 1_555
C49_4 C50_4 1_555 1_555
C58_3 N8_3 1_555 1_555
C60_4 C61_4 1_555 1_555
C68_4 N9_4 1_555 1_555
C70_4 N10_4 1_555 1_555
C72_4 C73_4 1_555 1_555
O31_4 Tb5_2 1_555 1_555
O32_4 Tb20_2 1_555 1_555
O41_4 Tb20_2 1_555 1_555
O42_4 Tb20_2 1_555 1_555
O43_4 Tb20_2 1_555 1_555
O44_4 Tb20_2 1_555 1_555
O47_3 Tb5_2 1_555 1_555
O48_4 Tb5_2 1_555 1_555
C8_3 H4_3 1_555 1_555
C9_4 C8_3 1_555 1_555
H5_4 C9_4 1_555 1_555
C10_4 C9_4 1_555 1_555
H6_4 C10_4 1_555 1_555
C11_4 C7_4 1_555 1_555
C12_4 C11_4 1_555 1_555
C13_4 C14_4 1_555 1_555
C14_4 C15_4 1_555 1_555
C15_4 H7_4 1_555 1_555
C16_4 C15_4 1_555 1_555
H8_4 C16_4 1_555 1_555
C17_4 C16_4 1_555 1_555
H9_4 C17_4 1_555 1_555
C18_4 C14_4 1_555 1_555
C19_4 C18_4 1_555 1_555
C20_4 H10_4 1_555 1_555
C21_4 C20_4 1_555 1_555
H11_4 C21_4 1_555 1_555
C22_4 C21_4 1_555 1_555
H12_4 C22_4 1_555 1_555
C23_4 C19_4 1_555 1_555
C24_4 C23_4 1_555 1_555
H21_4 C42_4 1_555 1_555
H22_4 C43_4 1_555 1_555
N2_3 C7_4 1_555 1_555
N3_4 C17_4 1_555 1_555
N4_4 C19_4 1_555 1_555
O49_2 C12_4 1_555 1_555
O51_2 C12_4 1_555 1_555
O5_4 C13_4 1_555 1_555
O6_4 C13_4 1_555 1_555
O53 C24_4 1_555 1_555
O55 C24_4 1_555 1_555
O15_4 Tb9_2 1_555 1_555
O16_4 Tb9_2 1_555 1_555
O17_4 H23_4 1_555 1_555
H24_4 O17_4 1_555 1_555
O18_4 H25_4 1_555 1_555
H26_4 O18_4 1_555 1_555
O20_3 H29_3 1_555 1_555
H30_3 O20_3 1_555 1_555
O21_3 H31_3 1_555 1_555
H32_4 O21_3 1_555 1_555
O22_4 H33_4 1_555 1_555
H34_4 O22_4 1_555 1_555
Tb19_2 O6_4 1_555 1_555
C8_3 N2_3 1_555 1_555
C10_4 C11_4 1_555 1_555
C18_4 N3_4 1_555 1_555
C20_4 N4_4 1_555 1_555
C22_4 C23_4 1_555 1_555
C42_4 C43_4 1_555 1_555
O5_4 Tb9_2 1_555 1_555
O15_4 Tb19_2 1_555 1_555
O16_4 Tb19_2 1_555 1_555
O17_4 Tb19_2 1_555 1_555
O18_4 Tb19_2 1_555 1_555
O21_3 Tb9_2 1_555 1_555
O22_4 Tb9_2 1_555 1_555
O23_4 Tb19_2 1_555 1_555
C33_4 C32_4 1_555 1_555
H17_4 C33_4 1_555 1_555
C34_4 C33_4 1_555 1_555
H18_4 C34_4 1_555 1_555
C36_4 C35_4 1_555 1_555
O57_2 C36_4 1_555 1_555
O59_2 C36_4 1_555 1_555
C34_4 C35_4 1_555 1_555
C1_3 C2_3 1_555 1_555
C2_3 C3_3 1_555 1_555
C3_3 H1_3 1_555 1_555
C4_4 C3_3 1_555 1_555
H2_4 C4_4 1_555 1_555
C5_4 C4_4 1_555 1_555
H3_4 C5_4 1_555 1_555
C6_4 C2_3 1_555 1_555
C25_4 C26_4 1_555 1_555
C26_4 C27_4 1_555 1_555
C27_4 H13_4 1_555 1_555
C28_4 C27_4 1_555 1_555
H14_4 C28_4 1_555 1_555
C29_4 C28_4 1_555 1_555
H15_4 C29_4 1_555 1_555
C30_4 C26_4 1_555 1_555
C31_4 C30_4 1_555 1_555
C37_4 C38_4 1_555 1_555
C38_4 C39_4 1_555 1_555
C39_4 H19_4 1_555 1_555
C40_4 C39_4 1_555 1_555
H20_4 C40_4 1_555 1_555
C41_4 C40_4 1_555 1_555
N1_4 C5_4 1_555 1_555
N5_4 C31_4 1_555 1_555
N6_4 C29_4 1_555 1_555
O1_3 C1_3 1_555 1_555
O2_3 C1_3 1_555 1_555
O9_4 C25_4 1_555 1_555
O10_4 C25_4 1_555 1_555
O13_4 Tb12 1_555 1_555
O19_3 H27_3 1_555 1_555
H28_3 O19_3 1_555 1_555
O24_4 C37_4 1_555 1_555
Tb12 O9_4 1_555 1_555
Tb16 O1_3 1_555 1_555
C6_4 N1_4 1_555 1_555
C30_4 N6_4 1_555 1_555
O10_4 Tb12 1_555 1_555
O13_4 Tb16 1_555 1_555
O14_4 Tb12 1_555 1_555
O14_4 Tb16 1_555 1_555
O19_3 Tb16 1_555 1_555
O24_4 Tb12 1_555 1_555
C1_4 C2_4 1_555 1_555
C2_4 C3_4 1_555 1_555
C3_4 H1_4 1_555 1_555
C8_4 H4_4 1_555 1_555
O1_4 C1_4 1_555 1_555
O2_4 C1_4 1_555 1_555
O19_4 H27_4 1_555 1_555
H28_4 O19_4 1_555 1_555
O20_4 H29_4 1_555 1_555
H30_4 O20_4 1_555 1_555
O21_4 H31_4 1_555 1_555
C8_4 N2_4 1_555 1_555
C51_4 C52_4 1_555 1_555
C52_4 C53_4 1_555 1_555
C53_4 H39_4 1_555 1_555
C58_4 H42_4 1_555 1_555
O27_4 C51_4 1_555 1_555
O28_4 C51_4 1_555 1_555
O45_4 H61_4 1_555 1_555
H62_4 O45_4 1_555 1_555
O46_4 H63_4 1_555 1_555
H64_4 O46_4 1_555 1_555
O47_4 H65_4 1_555 1_555
C58_4 N8_4 1_555 1_555
O61 Cl1 1_555 1_555
O62 Cl1 1_555 1_555
O64 Cl1 1_555 1_555
O61_2 Cl1_2 1_555 1_555
O62_2 Cl1_2 1_555 1_555
O63_2 Cl1_2 1_555 1_555
O64_2 Cl1_2 1_555 1_555
O61_3 Cl1_3 1_555 1_555
O62_3 Cl1_3 1_555 1_555
O64_3 Cl1_3 1_555 1_555
O61_4 Cl1_4 1_555 1_555
O62_4 Cl1_4 1_555 1_555
O63_4 Cl1_4 1_555 1_555
O64_4 Cl1_4 1_555 1_555
O61_5 Cl1_5 1_555 1_555
O62_5 Cl1_5 1_555 1_555
O64_5 Cl1_5 1_555 1_555
O61_6 Cl1_6 1_555 1_555
O62_6 Cl1_6 1_555 1_555
O63_6 Cl1_6 1_555 1_555
O64_6 Cl1_6 1_555 1_555
O61_7 Cl1_7 1_555 1_555
O62_7 Cl1_7 1_555 1_555
O64_7 Cl1_7 1_555 1_555
O61_8 Cl1_8 1_555 1_555
O62_8 Cl1_8 1_555 1_555
O63_8 Cl1_8 1_555 1_555
O64_8 Cl1_8 1_555 1_555

#END
