
###############################################################################
#
# This file contains modified crystal structure data generated from the
# MOF subset of the Cambridge Structural Database (CSD) v543 
# hosted by the Cambridge Crystallographic Data Centre (CCDC).
#
# This work is licensed under the Creative Commons
# Attribution-NonCommercial-ShareAlike 4.0 International License.
# To view a copy of this license, visit
# http://creativecommons.org/licenses/by-nc-sa/4.0/
# or send a letter to
# Creative Commons, PO Box 1866, Mountain View, CA 94042, USA.
#
# CIF created using the CSD Python API on 29 September 2022
# The structure has been converted into the P1 space group
# The structure has a 3D framework
# The original CSD entry EPEBOT is in the orthorhombic crystal system
# The framework has been calculated to contain at least 10.0% void space
# The void calculation uses a probe of radius 1.32A, grid spacing 0.4
#
###############################################################################

data_EPEBOT
_chemical_formula_moiety         '(C512 H288 Cd16 N32 O96)n'
_symmetry_cell_setting           triclinic
_symmetry_space_group_name_H-M   'P 1'
_symmetry_Int_Tables_number      1
_space_group_name_Hall           'P 1'
loop_
_symmetry_equiv_pos_site_id
_symmetry_equiv_pos_as_xyz
1 x,y,z
_cell_length_a                   15.409(4)
_cell_length_b                   20.472(6)
_cell_length_c                   40.364(12)
_cell_angle_alpha                90
_cell_angle_beta                 90
_cell_angle_gamma                90
_cell_volume                     12732.9
loop_
_atom_site_label
_atom_site_type_symbol
_atom_site_fract_x
_atom_site_fract_y
_atom_site_fract_z
Cd1 Cd 0.40595(2) 0.18542(2) 0.05176(2)
O1 O 0.33050(16) 0.17629(15) 0.33559(7)
O2 O 0.63097(16) 0.14245(18) 0.26970(7)
O3 O 0.31748(15) 0.27378(11) 0.04756(7)
O4 O 0.22268(18) 0.62285(12) 0.05603(9)
O5 O 0.10037(15) 0.56987(13) 0.04969(7)
O6 O 0.44386(15) 0.32032(11) 0.05566(6)
N1 N 0.41219(18) 0.19176(15) 0.10892(8)
N2 N 0.57452(18) 0.18406(13) 0.49518(8)
C1 C 0.4063(2) 0.17870(19) 0.21465(10)
C2 C 0.4822(2) 0.16697(19) 0.23259(10)
C3 C 0.4806(2) 0.16370(19) 0.26670(9)
C4 C 0.5631(2) 0.1524(2) 0.28477(10)
C5 C 0.5612(2) 0.1545(2) 0.32129(10)
C6 C 0.6389(2) 0.1482(2) 0.33899(10)
C7 C 0.6395(2) 0.1541(2) 0.37270(10)
C8 C 0.5622(2) 0.16508(19) 0.39047(9)
C9 C 0.4844(2) 0.16825(19) 0.37273(10)
C10 C 0.4831(2) 0.16425(19) 0.33871(9)
C11 C 0.3993(2) 0.1704(2) 0.32046(10)
C12 C 0.4023(2) 0.1712(2) 0.28389(10)
C13 C 0.3257(2) 0.1804(2) 0.26594(10)
C14 C 0.3281(2) 0.1842(2) 0.23203(10)
C15 C 0.4088(2) 0.18352(18) 0.17815(10)
C16 C 0.4673(3) 0.1475(2) 0.15933(11)
C17 C 0.4673(3) 0.1535(2) 0.12543(10)
C18 C 0.3564(2) 0.22697(19) 0.12679(10)
C19 C 0.3522(2) 0.2246(2) 0.16068(10)
C20 C 0.5650(2) 0.17280(17) 0.42665(9)
C21 C 0.5058(2) 0.14155(19) 0.44705(9)
C22 C 0.5129(2) 0.14749(18) 0.48075(10)
C23 C 0.6305(2) 0.21476(17) 0.47565(9)
C24 C 0.6286(2) 0.21081(19) 0.44168(10)
C25 C 0.3643(2) 0.32363(15) 0.05096(7)
C26 C 0.3195(2) 0.38882(16) 0.04923(8)
C27 C 0.2307(2) 0.39189(17) 0.04253(9)
C28 C 0.1882(2) 0.45077(18) 0.04235(10)
C29 C 0.2315(2) 0.50827(16) 0.04910(9)
C30 C 0.3209(2) 0.50574(17) 0.05372(11)
C31 C 0.3651(2) 0.44650(17) 0.05348(10)
C32 C 0.1820(2) 0.57151(17) 0.05155(10)
H1 H 0.53551 0.16117 0.22116
H2 H 0.69151 0.13976 0.32750
H3 H 0.69288 0.15085 0.38434
H4 H 0.43133 0.17328 0.38441
H5 H 0.27189 0.18396 0.27725
H6 H 0.27566 0.19065 0.22011
H7 H 0.50711 0.11884 0.16988
H8 H 0.50872 0.12921 0.11312
H9 H 0.31751 0.25516 0.11542
H10 H 0.31124 0.25068 0.17227
H11 H 0.46047 0.11609 0.43770
H12 H 0.47264 0.12489 0.49441
H13 H 0.67419 0.24084 0.48569
H14 H 0.67007 0.23367 0.42868
H15 H 0.19949 0.35287 0.03804
H16 H 0.12784 0.45199 0.03751
H17 H 0.35233 0.54512 0.05710
H18 H 0.42631 0.44560 0.05623
Cd2 Cd 0.59405(2) 0.31458(2) 0.05176(2)
Cd3 Cd 0.59405(2) 0.18542(2) 0.55176(2)
Cd4 Cd 0.09405(2) 0.68542(2) 0.05176(2)
O7 O 0.27732(18) 0.12285(12) 0.05603(9)
O8 O 0.39963(15) 0.06987(13) 0.04969(7)
O9 O 0.55614(15) 0.17968(11) 0.05566(6)
N3 N 0.42548(18) 0.18406(13) 0.99518(8)
O1_2 O 0.66950(16) 0.32371(15) 0.33559(7)
O2_2 O 0.36903(16) 0.35755(18) 0.26970(7)
O3_2 O 0.68252(15) 0.22622(11) 0.04756(7)
N1_2 N 0.58781(18) 0.30824(15) 0.10892(8)
N2_2 N 0.42548(18) 0.31594(13) 0.49518(8)
C1_2 C 0.5937(2) 0.32130(19) 0.21465(10)
C2_2 C 0.5178(2) 0.33303(19) 0.23259(10)
C3_2 C 0.5194(2) 0.33630(19) 0.26670(9)
C4_2 C 0.4369(2) 0.3476(2) 0.28477(10)
C5_2 C 0.4388(2) 0.3455(2) 0.32129(10)
C6_2 C 0.3611(2) 0.3518(2) 0.33899(10)
C7_2 C 0.3605(2) 0.3459(2) 0.37270(10)
C8_2 C 0.4378(2) 0.33492(19) 0.39047(9)
C9_2 C 0.5156(2) 0.33175(19) 0.37273(10)
C10_2 C 0.5169(2) 0.33575(19) 0.33871(9)
C11_2 C 0.6007(2) 0.3296(2) 0.32046(10)
C12_2 C 0.5977(2) 0.3288(2) 0.28389(10)
C13_2 C 0.6743(2) 0.3196(2) 0.26594(10)
C14_2 C 0.6719(2) 0.3158(2) 0.23203(10)
C15_2 C 0.5912(2) 0.31648(18) 0.17815(10)
C16_2 C 0.5327(3) 0.3525(2) 0.15933(11)
C17_2 C 0.5327(3) 0.3465(2) 0.12543(10)
C18_2 C 0.6436(2) 0.27303(19) 0.12679(10)
C19_2 C 0.6478(2) 0.2754(2) 0.16068(10)
C20_2 C 0.4350(2) 0.32720(17) 0.42665(9)
C21_2 C 0.4942(2) 0.35845(19) 0.44705(9)
C22_2 C 0.4871(2) 0.35251(18) 0.48075(10)
C23_2 C 0.3695(2) 0.28524(17) 0.47565(9)
C24_2 C 0.3714(2) 0.28919(19) 0.44168(10)
C25_2 C 0.6357(2) 0.17637(15) 0.05096(7)
C26_2 C 0.6805(2) 0.11118(16) 0.04923(8)
C27_2 C 0.7693(2) 0.10811(17) 0.04253(9)
C28_2 C 0.8118(2) 0.04923(18) 0.04235(10)
C31_2 C 0.6349(2) 0.05350(17) 0.05348(10)
H1_2 H 0.46449 0.33883 0.22116
H2_2 H 0.30849 0.36024 0.32750
H3_2 H 0.30712 0.34915 0.38434
H4_2 H 0.56867 0.32672 0.38441
H5_2 H 0.72811 0.31604 0.27725
H6_2 H 0.72434 0.30935 0.22011
H7_2 H 0.49289 0.38116 0.16988
H8_2 H 0.49128 0.37079 0.11312
H9_2 H 0.68249 0.24484 0.11542
H10_2 H 0.68876 0.24932 0.17227
H11_2 H 0.53953 0.38391 0.43770
H12_2 H 0.52736 0.37511 0.49441
H13_2 H 0.32581 0.25916 0.48569
H14_2 H 0.32993 0.26633 0.42868
H15_2 H 0.80051 0.14713 0.03804
H16_2 H 0.87216 0.04801 0.03751
H18_2 H 0.57369 0.05440 0.05623
Cd3_2 Cd 0.40595(2) 0.31458(2) 0.55176(2)
O7_2 O 0.72268(18) 0.37715(12) 0.05603(9)
O8_2 O 0.60037(15) 0.43013(13) 0.04969(7)
N3_2 N 0.57452(18) 0.31594(13) 0.99518(8)
O4_2 O 0.77732(18) 0.87715(12) 0.05603(9)
O5_2 O 0.89963(15) 0.93013(13) 0.04969(7)
C29_2 C 0.7685(2) 0.99173(16) 0.04910(9)
C30_2 C 0.6791(2) 0.99426(17) 0.05372(11)
C32_2 C 0.8180(2) 0.92849(17) 0.05155(10)
H17_2 H 0.64767 0.95488 0.05710
Cd4_2 Cd 0.90595(2) 0.81458(2) 0.05176(2)
O2_3 O 0.13097(16) 0.64245(18) 0.76970(7)
N2_3 N 0.07452(18) 0.68406(13) 0.99518(8)
C4_3 C 0.0631(2) 0.6524(2) 0.78477(10)
C5_3 C 0.0612(2) 0.6545(2) 0.82129(10)
C6_3 C 0.1389(2) 0.6482(2) 0.83899(10)
C7_3 C 0.1395(2) 0.6541(2) 0.87270(10)
C8_3 C 0.0622(2) 0.66508(19) 0.89047(9)
C20_3 C 0.0650(2) 0.67280(17) 0.92665(9)
C21_3 C 0.0058(2) 0.64155(19) 0.94705(9)
C22_3 C 0.0129(2) 0.64749(18) 0.98075(10)
C23_3 C 0.1305(2) 0.71476(17) 0.97565(9)
C24_3 C 0.1286(2) 0.71081(19) 0.94168(10)
H1_3 H 0.03551 0.66117 0.72116
H2_3 H 0.19151 0.63976 0.82750
H3_3 H 0.19288 0.65085 0.88434
H7_3 H 0.00711 0.61884 0.66988
H8_3 H 0.00872 0.62921 0.61312
H13_3 H 0.17419 0.74084 0.98569
H14_3 H 0.17007 0.73367 0.92868
Cd2_2 Cd 0.09405(2) 0.81458(2) 0.55176(2)
O9_2 O 0.05614(15) 0.67968(11) 0.55566(6)
O4_3 O 0.72268(18) 0.12285(12) 0.55603(9)
O5_3 O 0.60037(15) 0.06987(13) 0.54969(7)
C29_3 C 0.7315(2) 0.00827(16) 0.54910(9)
C30_3 C 0.8209(2) 0.00574(17) 0.55372(11)
C32_3 C 0.6820(2) 0.07151(17) 0.55155(10)
H17_3 H 0.85233 0.04512 0.55710
Cd1_2 Cd 0.90595(2) 0.68542(2) 0.55176(2)
O1_3 O 0.83050(16) 0.67629(15) 0.83559(7)
O3_3 O 0.81748(15) 0.77378(11) 0.54756(7)
O6_2 O 0.94386(15) 0.82032(11) 0.55566(6)
N1_3 N 0.91219(18) 0.69176(15) 0.60892(8)
C1_3 C 0.9063(2) 0.67870(19) 0.71465(10)
C2_3 C 0.9822(2) 0.66697(19) 0.73259(10)
C3_3 C 0.9806(2) 0.66370(19) 0.76670(9)
C9_3 C 0.9844(2) 0.66825(19) 0.87273(10)
C10_3 C 0.9831(2) 0.66425(19) 0.83871(9)
C11_3 C 0.8993(2) 0.6704(2) 0.82046(10)
C12_3 C 0.9023(2) 0.6712(2) 0.78389(10)
C13_3 C 0.8257(2) 0.6804(2) 0.76594(10)
C14_3 C 0.8281(2) 0.6842(2) 0.73203(10)
C15_3 C 0.9088(2) 0.68352(18) 0.67815(10)
C16_3 C 0.9673(3) 0.6475(2) 0.65933(11)
C17_3 C 0.9673(3) 0.6535(2) 0.62543(10)
C18_3 C 0.8564(2) 0.72697(19) 0.62679(10)
C19_3 C 0.8522(2) 0.7246(2) 0.66068(10)
C25_3 C 0.8643(2) 0.82363(15) 0.55096(7)
C26_3 C 0.8195(2) 0.88882(16) 0.54923(8)
C27_3 C 0.7307(2) 0.89189(17) 0.54253(9)
C28_3 C 0.6882(2) 0.95077(18) 0.54235(10)
C31_3 C 0.8651(2) 0.94650(17) 0.55348(10)
H4_3 H 0.93133 0.67328 0.88441
H5_3 H 0.77189 0.68396 0.77725
H6_3 H 0.77566 0.69065 0.72011
H9_3 H 0.81751 0.75516 0.61542
H10_3 H 0.81124 0.75068 0.67227
H11_3 H 0.96047 0.61609 0.93770
H12_3 H 0.97264 0.62489 0.99441
H15_3 H 0.69949 0.85287 0.53804
H16_3 H 0.62784 0.95199 0.53751
H18_3 H 0.92631 0.94560 0.55623
O7_3 O 0.77732(18) 0.62285(12) 0.55603(9)
O8_3 O 0.89963(15) 0.56987(13) 0.54969(7)
N3_3 N 0.92548(18) 0.68406(13) 0.49518(8)
O1_4 O 0.16950(16) 0.82371(15) 0.83559(7)
O3_4 O 0.18252(15) 0.72622(11) 0.54756(7)
O4_4 O 0.27732(18) 0.37715(12) 0.55603(9)
O5_4 O 0.39963(15) 0.43013(13) 0.54969(7)
N1_4 N 0.08781(18) 0.80824(15) 0.60892(8)
C1_4 C 0.0937(2) 0.82130(19) 0.71465(10)
C2_4 C 0.0178(2) 0.83303(19) 0.73259(10)
C3_4 C 0.0194(2) 0.83630(19) 0.76670(9)
C9_4 C 0.0156(2) 0.83175(19) 0.87273(10)
C10_4 C 0.0169(2) 0.83575(19) 0.83871(9)
C11_4 C 0.1007(2) 0.8296(2) 0.82046(10)
C12_4 C 0.0977(2) 0.8288(2) 0.78389(10)
C13_4 C 0.1743(2) 0.8196(2) 0.76594(10)
C14_4 C 0.1719(2) 0.8158(2) 0.73203(10)
C15_4 C 0.0912(2) 0.81648(18) 0.67815(10)
C16_4 C 0.0327(3) 0.8525(2) 0.65933(11)
C17_4 C 0.0327(3) 0.8465(2) 0.62543(10)
C18_4 C 0.1436(2) 0.77303(19) 0.62679(10)
C19_4 C 0.1478(2) 0.7754(2) 0.66068(10)
C25_4 C 0.1357(2) 0.67637(15) 0.55096(7)
C26_4 C 0.1805(2) 0.61118(16) 0.54923(8)
C27_4 C 0.2693(2) 0.60811(17) 0.54253(9)
C28_4 C 0.3118(2) 0.54923(18) 0.54235(10)
C29_4 C 0.2685(2) 0.49173(16) 0.54910(9)
C30_4 C 0.1791(2) 0.49426(17) 0.55372(11)
C31_4 C 0.1349(2) 0.55350(17) 0.55348(10)
C32_4 C 0.3180(2) 0.42849(17) 0.55155(10)
H4_4 H 0.06867 0.82672 0.88441
H5_4 H 0.22811 0.81604 0.77725
H6_4 H 0.22434 0.80935 0.72011
H9_4 H 0.18249 0.74484 0.61542
H10_4 H 0.18876 0.74932 0.67227
H11_4 H 0.03953 0.88391 0.93770
H12_4 H 0.02736 0.87511 0.99441
H15_4 H 0.30051 0.64713 0.53804
H16_4 H 0.37216 0.54801 0.53751
H17_4 H 0.14767 0.45488 0.55710
H18_4 H 0.07369 0.55440 0.55623
O7_4 O 0.22268(18) 0.87715(12) 0.55603(9)
O8_4 O 0.10037(15) 0.93013(13) 0.54969(7)
N3_4 N 0.07452(18) 0.81594(13) 0.49518(8)
O2_4 O 0.86903(16) 0.85755(18) 0.76970(7)
N2_4 N 0.92548(18) 0.81594(13) 0.99518(8)
C4_4 C 0.9369(2) 0.8476(2) 0.78477(10)
C5_4 C 0.9388(2) 0.8455(2) 0.82129(10)
C6_4 C 0.8611(2) 0.8518(2) 0.83899(10)
C7_4 C 0.8605(2) 0.8459(2) 0.87270(10)
C8_4 C 0.9378(2) 0.83492(19) 0.89047(9)
C20_4 C 0.9350(2) 0.82720(17) 0.92665(9)
C21_4 C 0.9942(2) 0.85845(19) 0.94705(9)
C22_4 C 0.9871(2) 0.85251(18) 0.98075(10)
C23_4 C 0.8695(2) 0.78524(17) 0.97565(9)
C24_4 C 0.8714(2) 0.78919(19) 0.94168(10)
H1_4 H 0.96449 0.83883 0.72116
H2_4 H 0.80849 0.86024 0.82750
H3_4 H 0.80712 0.84915 0.88434
H7_4 H 0.99289 0.88116 0.66988
H8_4 H 0.99128 0.87079 0.61312
H13_4 H 0.82581 0.75916 0.98569
H14_4 H 0.82993 0.76633 0.92868
O1_5 O 0.66950(16) 0.17629(15) 0.83559(7)
O2_5 O 0.36903(16) 0.14245(18) 0.76970(7)
O3_5 O 0.68252(15) 0.27378(11) 0.54756(7)
O6_3 O 0.55614(15) 0.32032(11) 0.55566(6)
N1_5 N 0.58781(18) 0.19176(15) 0.60892(8)
C1_5 C 0.5937(2) 0.17870(19) 0.71465(10)
C2_5 C 0.5178(2) 0.16697(19) 0.73259(10)
C3_5 C 0.5194(2) 0.16370(19) 0.76670(9)
C4_5 C 0.4369(2) 0.1524(2) 0.78477(10)
C5_5 C 0.4388(2) 0.1545(2) 0.82129(10)
C6_5 C 0.3611(2) 0.1482(2) 0.83899(10)
C7_5 C 0.3605(2) 0.1541(2) 0.87270(10)
C8_5 C 0.4378(2) 0.16508(19) 0.89047(9)
C9_5 C 0.5156(2) 0.16825(19) 0.87273(10)
C10_5 C 0.5169(2) 0.16425(19) 0.83871(9)
C11_5 C 0.6007(2) 0.1704(2) 0.82046(10)
C12_5 C 0.5977(2) 0.1712(2) 0.78389(10)
C13_5 C 0.6743(2) 0.1804(2) 0.76594(10)
C14_5 C 0.6719(2) 0.1842(2) 0.73203(10)
C15_5 C 0.5912(2) 0.18352(18) 0.67815(10)
C16_5 C 0.5327(3) 0.1475(2) 0.65933(11)
C17_5 C 0.5327(3) 0.1535(2) 0.62543(10)
C18_5 C 0.6436(2) 0.22697(19) 0.62679(10)
C19_5 C 0.6478(2) 0.2246(2) 0.66068(10)
C20_5 C 0.4350(2) 0.17280(17) 0.92665(9)
C21_5 C 0.4942(2) 0.14155(19) 0.94705(9)
C22_5 C 0.4871(2) 0.14749(18) 0.98075(10)
C23_5 C 0.3695(2) 0.21476(17) 0.97565(9)
C24_5 C 0.3714(2) 0.21081(19) 0.94168(10)
C25_5 C 0.6357(2) 0.32363(15) 0.55096(7)
C26_5 C 0.6805(2) 0.38882(16) 0.54923(8)
C27_5 C 0.7693(2) 0.39189(17) 0.54253(9)
C28_5 C 0.8118(2) 0.45077(18) 0.54235(10)
C29_5 C 0.7685(2) 0.50827(16) 0.54910(9)
C30_5 C 0.6791(2) 0.50574(17) 0.55372(11)
C31_5 C 0.6349(2) 0.44650(17) 0.55348(10)
C32_5 C 0.8180(2) 0.57151(17) 0.55155(10)
H1_5 H 0.46449 0.16117 0.72116
H2_5 H 0.30849 0.13976 0.82750
H3_5 H 0.30712 0.15085 0.88434
H4_5 H 0.56867 0.17328 0.88441
H5_5 H 0.72811 0.18396 0.77725
H6_5 H 0.72434 0.19065 0.72011
H7_5 H 0.49289 0.11884 0.66988
H8_5 H 0.49128 0.12921 0.61312
H9_5 H 0.68249 0.25516 0.61542
H10_5 H 0.68876 0.25068 0.67227
H11_5 H 0.53953 0.11609 0.93770
H12_5 H 0.52736 0.12489 0.99441
H13_5 H 0.32581 0.24084 0.98569
H14_5 H 0.32993 0.23367 0.92868
H15_5 H 0.80051 0.35287 0.53804
H16_5 H 0.87216 0.45199 0.53751
H17_5 H 0.64767 0.54512 0.55710
H18_5 H 0.57369 0.44560 0.55623
O9_3 O 0.44386(15) 0.17968(11) 0.55566(6)
O1_6 O 0.33050(16) 0.32371(15) 0.83559(7)
O2_6 O 0.63097(16) 0.35755(18) 0.76970(7)
O3_6 O 0.31748(15) 0.22622(11) 0.54756(7)
N1_6 N 0.41219(18) 0.30824(15) 0.60892(8)
C1_6 C 0.4063(2) 0.32130(19) 0.71465(10)
C2_6 C 0.4822(2) 0.33303(19) 0.73259(10)
C3_6 C 0.4806(2) 0.33630(19) 0.76670(9)
C4_6 C 0.5631(2) 0.3476(2) 0.78477(10)
C5_6 C 0.5612(2) 0.3455(2) 0.82129(10)
C6_6 C 0.6389(2) 0.3518(2) 0.83899(10)
C7_6 C 0.6395(2) 0.3459(2) 0.87270(10)
C8_6 C 0.5622(2) 0.33492(19) 0.89047(9)
C9_6 C 0.4844(2) 0.33175(19) 0.87273(10)
C10_6 C 0.4831(2) 0.33575(19) 0.83871(9)
C11_6 C 0.3993(2) 0.3296(2) 0.82046(10)
C12_6 C 0.4023(2) 0.3288(2) 0.78389(10)
C13_6 C 0.3257(2) 0.3196(2) 0.76594(10)
C14_6 C 0.3281(2) 0.3158(2) 0.73203(10)
C15_6 C 0.4088(2) 0.31648(18) 0.67815(10)
C16_6 C 0.4673(3) 0.3525(2) 0.65933(11)
C17_6 C 0.4673(3) 0.3465(2) 0.62543(10)
C18_6 C 0.3564(2) 0.27303(19) 0.62679(10)
C19_6 C 0.3522(2) 0.2754(2) 0.66068(10)
C20_6 C 0.5650(2) 0.32720(17) 0.92665(9)
C21_6 C 0.5058(2) 0.35845(19) 0.94705(9)
C22_6 C 0.5129(2) 0.35251(18) 0.98075(10)
C23_6 C 0.6305(2) 0.28524(17) 0.97565(9)
C24_6 C 0.6286(2) 0.28919(19) 0.94168(10)
C25_6 C 0.3643(2) 0.17637(15) 0.55096(7)
C26_6 C 0.3195(2) 0.11118(16) 0.54923(8)
C27_6 C 0.2307(2) 0.10811(17) 0.54253(9)
C28_6 C 0.1882(2) 0.04923(18) 0.54235(10)
C31_6 C 0.3651(2) 0.05350(17) 0.55348(10)
H1_6 H 0.53551 0.33883 0.72116
H2_6 H 0.69151 0.36024 0.82750
H3_6 H 0.69288 0.34915 0.88434
H4_6 H 0.43133 0.32672 0.88441
H5_6 H 0.27189 0.31604 0.77725
H6_6 H 0.27566 0.30935 0.72011
H7_6 H 0.50711 0.38116 0.66988
H8_6 H 0.50872 0.37079 0.61312
H9_6 H 0.31751 0.24484 0.61542
H10_6 H 0.31124 0.24932 0.67227
H11_6 H 0.46047 0.38391 0.93770
H12_6 H 0.47264 0.37511 0.99441
H13_6 H 0.67419 0.25916 0.98569
H14_6 H 0.67007 0.26633 0.92868
H15_6 H 0.19949 0.14713 0.53804
H16_6 H 0.12784 0.04801 0.53751
H18_6 H 0.42631 0.05440 0.55623
C29_6 C 0.2315(2) 0.99173(16) 0.54910(9)
C30_6 C 0.3209(2) 0.99426(17) 0.55372(11)
C32_6 C 0.1820(2) 0.92849(17) 0.55155(10)
H17_6 H 0.35233 0.95488 0.55710
C29_7 C 0.2685(2) 0.00827(16) 0.04910(9)
C30_7 C 0.1791(2) 0.00574(17) 0.05372(11)
C32_7 C 0.3180(2) 0.07151(17) 0.05155(10)
H17_7 H 0.14767 0.04512 0.05710
O1_7 O 0.16950(16) 0.67629(15) 0.33559(7)
O3_7 O 0.18252(15) 0.77378(11) 0.04756(7)
O6_4 O 0.05614(15) 0.82032(11) 0.05566(6)
N1_7 N 0.08781(18) 0.69176(15) 0.10892(8)
C1_7 C 0.0937(2) 0.67870(19) 0.21465(10)
C2_7 C 0.0178(2) 0.66697(19) 0.23259(10)
C3_7 C 0.0194(2) 0.66370(19) 0.26670(9)
C9_7 C 0.0156(2) 0.66825(19) 0.37273(10)
C10_7 C 0.0169(2) 0.66425(19) 0.33871(9)
C11_7 C 0.1007(2) 0.6704(2) 0.32046(10)
C12_7 C 0.0977(2) 0.6712(2) 0.28389(10)
C13_7 C 0.1743(2) 0.6804(2) 0.26594(10)
C14_7 C 0.1719(2) 0.6842(2) 0.23203(10)
C15_7 C 0.0912(2) 0.68352(18) 0.17815(10)
C16_7 C 0.0327(3) 0.6475(2) 0.15933(11)
C17_7 C 0.0327(3) 0.6535(2) 0.12543(10)
C18_7 C 0.1436(2) 0.72697(19) 0.12679(10)
C19_7 C 0.1478(2) 0.7246(2) 0.16068(10)
C25_7 C 0.1357(2) 0.82363(15) 0.05096(7)
C26_7 C 0.1805(2) 0.88882(16) 0.04923(8)
C27_7 C 0.2693(2) 0.89189(17) 0.04253(9)
C28_7 C 0.3118(2) 0.95077(18) 0.04235(10)
C31_7 C 0.1349(2) 0.94650(17) 0.05348(10)
H4_7 H 0.06867 0.67328 0.38441
H5_7 H 0.22811 0.68396 0.27725
H6_7 H 0.22434 0.69065 0.22011
H9_7 H 0.18249 0.75516 0.11542
H10_7 H 0.18876 0.75068 0.17227
H11_7 H 0.03953 0.61609 0.43770
H12_7 H 0.02736 0.62489 0.49441
H15_7 H 0.30051 0.85287 0.03804
H16_7 H 0.37216 0.95199 0.03751
H18_7 H 0.07369 0.94560 0.05623
O2_7 O 0.86903(16) 0.64245(18) 0.26970(7)
C4_7 C 0.9369(2) 0.6524(2) 0.28477(10)
C5_7 C 0.9388(2) 0.6545(2) 0.32129(10)
C6_7 C 0.8611(2) 0.6482(2) 0.33899(10)
C7_7 C 0.8605(2) 0.6541(2) 0.37270(10)
C8_7 C 0.9378(2) 0.66508(19) 0.39047(9)
C20_7 C 0.9350(2) 0.67280(17) 0.42665(9)
C21_7 C 0.9942(2) 0.64155(19) 0.44705(9)
C22_7 C 0.9871(2) 0.64749(18) 0.48075(10)
C23_7 C 0.8695(2) 0.71476(17) 0.47565(9)
C24_7 C 0.8714(2) 0.71081(19) 0.44168(10)
H1_7 H 0.96449 0.66117 0.22116
H2_7 H 0.80849 0.63976 0.32750
H3_7 H 0.80712 0.65085 0.38434
H7_7 H 0.99289 0.61884 0.16988
H8_7 H 0.99128 0.62921 0.11312
H13_7 H 0.82581 0.74084 0.48569
H14_7 H 0.82993 0.73367 0.42868
O9_4 O 0.94386(15) 0.67968(11) 0.05566(6)
O2_8 O 0.13097(16) 0.85755(18) 0.26970(7)
C4_8 C 0.0631(2) 0.8476(2) 0.28477(10)
C5_8 C 0.0612(2) 0.8455(2) 0.32129(10)
C6_8 C 0.1389(2) 0.8518(2) 0.33899(10)
C7_8 C 0.1395(2) 0.8459(2) 0.37270(10)
C8_8 C 0.0622(2) 0.83492(19) 0.39047(9)
C20_8 C 0.0650(2) 0.82720(17) 0.42665(9)
C21_8 C 0.0058(2) 0.85845(19) 0.44705(9)
C22_8 C 0.0129(2) 0.85251(18) 0.48075(10)
C23_8 C 0.1305(2) 0.78524(17) 0.47565(9)
C24_8 C 0.1286(2) 0.78919(19) 0.44168(10)
H1_8 H 0.03551 0.83883 0.22116
H2_8 H 0.19151 0.86024 0.32750
H3_8 H 0.19288 0.84915 0.38434
H7_8 H 0.00711 0.88116 0.16988
H8_8 H 0.00872 0.87079 0.11312
H13_8 H 0.17419 0.75916 0.48569
H14_8 H 0.17007 0.76633 0.42868
O1_8 O 0.83050(16) 0.82371(15) 0.33559(7)
O3_8 O 0.81748(15) 0.72622(11) 0.04756(7)
N1_8 N 0.91219(18) 0.80824(15) 0.10892(8)
C1_8 C 0.9063(2) 0.82130(19) 0.21465(10)
C2_8 C 0.9822(2) 0.83303(19) 0.23259(10)
C3_8 C 0.9806(2) 0.83630(19) 0.26670(9)
C9_8 C 0.9844(2) 0.83175(19) 0.37273(10)
C10_8 C 0.9831(2) 0.83575(19) 0.33871(9)
C11_8 C 0.8993(2) 0.8296(2) 0.32046(10)
C12_8 C 0.9023(2) 0.8288(2) 0.28389(10)
C13_8 C 0.8257(2) 0.8196(2) 0.26594(10)
C14_8 C 0.8281(2) 0.8158(2) 0.23203(10)
C15_8 C 0.9088(2) 0.81648(18) 0.17815(10)
C16_8 C 0.9673(3) 0.8525(2) 0.15933(11)
C17_8 C 0.9673(3) 0.8465(2) 0.12543(10)
C18_8 C 0.8564(2) 0.77303(19) 0.12679(10)
C19_8 C 0.8522(2) 0.7754(2) 0.16068(10)
C25_8 C 0.8643(2) 0.67637(15) 0.05096(7)
C26_8 C 0.8195(2) 0.61118(16) 0.04923(8)
C27_8 C 0.7307(2) 0.60811(17) 0.04253(9)
C28_8 C 0.6882(2) 0.54923(18) 0.04235(10)
C29_8 C 0.7315(2) 0.49173(16) 0.04910(9)
C30_8 C 0.8209(2) 0.49426(17) 0.05372(11)
C31_8 C 0.8651(2) 0.55350(17) 0.05348(10)
C32_8 C 0.6820(2) 0.42849(17) 0.05155(10)
H4_8 H 0.93133 0.82672 0.38441
H5_8 H 0.77189 0.81604 0.27725
H6_8 H 0.77566 0.80935 0.22011
H9_8 H 0.81751 0.74484 0.11542
H10_8 H 0.81124 0.74932 0.17227
H11_8 H 0.96047 0.88391 0.43770
H12_8 H 0.97264 0.87511 0.49441
H15_8 H 0.69949 0.64713 0.03804
H16_8 H 0.62784 0.54801 0.03751
H17_8 H 0.85233 0.45488 0.05710
H18_8 H 0.92631 0.55440 0.05623
Cd1_3 Cd 0.40595(2) 0.81458(2) 0.44824(2)
O1_9 O 0.33050(16) 0.82371(15) 0.16441(7)
O2_9 O 0.63097(16) 0.85755(18) 0.23030(7)
O3_9 O 0.31748(15) 0.72622(11) 0.45244(7)
O4_5 O 0.22268(18) 0.37715(12) 0.44397(9)
O5_5 O 0.10037(15) 0.43013(13) 0.45031(7)
O6_5 O 0.44386(15) 0.67968(11) 0.44434(6)
N1_9 N 0.41219(18) 0.80824(15) 0.39108(8)
N2_5 N 0.57452(18) 0.81594(13) 0.00482(8)
C1_9 C 0.4063(2) 0.82130(19) 0.28535(10)
C2_9 C 0.4822(2) 0.83303(19) 0.26741(10)
C3_9 C 0.4806(2) 0.83630(19) 0.23330(9)
C4_9 C 0.5631(2) 0.8476(2) 0.21523(10)
C5_9 C 0.5612(2) 0.8455(2) 0.17871(10)
C6_9 C 0.6389(2) 0.8518(2) 0.16101(10)
C7_9 C 0.6395(2) 0.8459(2) 0.12730(10)
C8_9 C 0.5622(2) 0.83492(19) 0.10953(9)
C9_9 C 0.4844(2) 0.83175(19) 0.12727(10)
C10_9 C 0.4831(2) 0.83575(19) 0.16129(9)
C11_9 C 0.3993(2) 0.8296(2) 0.17954(10)
C12_9 C 0.4023(2) 0.8288(2) 0.21611(10)
C13_9 C 0.3257(2) 0.8196(2) 0.23406(10)
C14_9 C 0.3281(2) 0.8158(2) 0.26797(10)
C15_9 C 0.4088(2) 0.81648(18) 0.32185(10)
C16_9 C 0.4673(3) 0.8525(2) 0.34067(11)
C17_9 C 0.4673(3) 0.8465(2) 0.37457(10)
C18_9 C 0.3564(2) 0.77303(19) 0.37321(10)
C19_9 C 0.3522(2) 0.7754(2) 0.33932(10)
C20_9 C 0.5650(2) 0.82720(17) 0.07335(9)
C21_9 C 0.5058(2) 0.85845(19) 0.05295(9)
C22_9 C 0.5129(2) 0.85251(18) 0.01925(10)
C23_9 C 0.6305(2) 0.78524(17) 0.02435(9)
C24_9 C 0.6286(2) 0.78919(19) 0.05832(10)
C25_9 C 0.3643(2) 0.67637(15) 0.44904(7)
C26_9 C 0.3195(2) 0.61118(16) 0.45077(8)
C27_9 C 0.2307(2) 0.60811(17) 0.45747(9)
C28_9 C 0.1882(2) 0.54923(18) 0.45765(10)
C29_9 C 0.2315(2) 0.49173(16) 0.45090(9)
C30_9 C 0.3209(2) 0.49426(17) 0.44628(11)
C31_9 C 0.3651(2) 0.55350(17) 0.44652(10)
C32_9 C 0.1820(2) 0.42849(17) 0.44845(10)
H1_9 H 0.53551 0.83883 0.27884
H2_9 H 0.69151 0.86024 0.17250
H3_9 H 0.69288 0.84915 0.11566
H4_9 H 0.43133 0.82672 0.11559
H5_9 H 0.27189 0.81604 0.22275
H6_9 H 0.27566 0.80935 0.27989
H7_9 H 0.50711 0.88116 0.33012
H8_9 H 0.50872 0.87079 0.38688
H9_9 H 0.31751 0.74484 0.38458
H10_9 H 0.31124 0.74932 0.32773
H11_9 H 0.46047 0.88391 0.06230
H12_9 H 0.47264 0.87511 0.00559
H13_9 H 0.67419 0.75916 0.01431
H14_9 H 0.67007 0.76633 0.07132
H15_9 H 0.19949 0.64713 0.46196
H16_9 H 0.12784 0.54801 0.46249
H17_9 H 0.35233 0.45488 0.44290
H18_9 H 0.42631 0.55440 0.44377
Cd2_3 Cd 0.59405(2) 0.68542(2) 0.44824(2)
Cd4_3 Cd 0.09405(2) 0.31458(2) 0.44824(2)
O7_5 O 0.27732(18) 0.87715(12) 0.44397(9)
O8_5 O 0.39963(15) 0.93013(13) 0.45031(7)
O9_5 O 0.55614(15) 0.82032(11) 0.44434(6)
N3_5 N 0.42548(18) 0.81594(13) 0.50482(8)
Cd3_3 Cd 0.59405(2) 0.81458(2) 0.94824(2)
O4_6 O 0.77732(18) 0.12285(12) 0.44397(9)
O5_6 O 0.89963(15) 0.06987(13) 0.45031(7)
C29_10 C 0.7685(2) 0.00827(16) 0.45090(9)
C30_10 C 0.6791(2) 0.00574(17) 0.44628(11)
C32_10 C 0.8180(2) 0.07151(17) 0.44845(10)
H17_10 H 0.64767 0.04512 0.44290
Cd4_4 Cd 0.90595(2) 0.18542(2) 0.44824(2)
O1_10 O 0.66950(16) 0.67629(15) 0.16441(7)
O2_10 O 0.36903(16) 0.64245(18) 0.23030(7)
O3_10 O 0.68252(15) 0.77378(11) 0.45244(7)
N1_10 N 0.58781(18) 0.69176(15) 0.39108(8)
N2_6 N 0.42548(18) 0.68406(13) 0.00482(8)
C1_10 C 0.5937(2) 0.67870(19) 0.28535(10)
C2_10 C 0.5178(2) 0.66697(19) 0.26741(10)
C3_10 C 0.5194(2) 0.66370(19) 0.23330(9)
C4_10 C 0.4369(2) 0.6524(2) 0.21523(10)
C5_10 C 0.4388(2) 0.6545(2) 0.17871(10)
C6_10 C 0.3611(2) 0.6482(2) 0.16101(10)
C7_10 C 0.3605(2) 0.6541(2) 0.12730(10)
C8_10 C 0.4378(2) 0.66508(19) 0.10953(9)
C9_10 C 0.5156(2) 0.66825(19) 0.12727(10)
C10_10 C 0.5169(2) 0.66425(19) 0.16129(9)
C11_10 C 0.6007(2) 0.6704(2) 0.17954(10)
C12_10 C 0.5977(2) 0.6712(2) 0.21611(10)
C13_10 C 0.6743(2) 0.6804(2) 0.23406(10)
C14_10 C 0.6719(2) 0.6842(2) 0.26797(10)
C15_10 C 0.5912(2) 0.68352(18) 0.32185(10)
C16_10 C 0.5327(3) 0.6475(2) 0.34067(11)
C17_10 C 0.5327(3) 0.6535(2) 0.37457(10)
C18_10 C 0.6436(2) 0.72697(19) 0.37321(10)
C19_10 C 0.6478(2) 0.7246(2) 0.33932(10)
C20_10 C 0.4350(2) 0.67280(17) 0.07335(9)
C21_10 C 0.4942(2) 0.64155(19) 0.05295(9)
C22_10 C 0.4871(2) 0.64749(18) 0.01925(10)
C23_10 C 0.3695(2) 0.71476(17) 0.02435(9)
C24_10 C 0.3714(2) 0.71081(19) 0.05832(10)
C25_10 C 0.6357(2) 0.82363(15) 0.44904(7)
C26_10 C 0.6805(2) 0.88882(16) 0.45077(8)
C27_10 C 0.7693(2) 0.89189(17) 0.45747(9)
C28_10 C 0.8118(2) 0.95077(18) 0.45765(10)
C31_10 C 0.6349(2) 0.94650(17) 0.44652(10)
H1_10 H 0.46449 0.66117 0.27884
H2_10 H 0.30849 0.63976 0.17250
H3_10 H 0.30712 0.65085 0.11566
H4_10 H 0.56867 0.67328 0.11559
H5_10 H 0.72811 0.68396 0.22275
H6_10 H 0.72434 0.69065 0.27989
H7_10 H 0.49289 0.61884 0.33012
H8_10 H 0.49128 0.62921 0.38688
H9_10 H 0.68249 0.75516 0.38458
H10_10 H 0.68876 0.75068 0.32773
H11_10 H 0.53953 0.61609 0.06230
H12_10 H 0.52736 0.62489 0.00559
H13_10 H 0.32581 0.74084 0.01431
H14_10 H 0.32993 0.73367 0.07132
H15_10 H 0.80051 0.85287 0.46196
H16_10 H 0.87216 0.95199 0.46249
H18_10 H 0.57369 0.94560 0.44377
O7_6 O 0.72268(18) 0.62285(12) 0.44397(9)
O8_6 O 0.60037(15) 0.56987(13) 0.45031(7)
N3_6 N 0.57452(18) 0.68406(13) 0.50482(8)
Cd3_4 Cd 0.40595(2) 0.68542(2) 0.94824(2)
O2_11 O 0.13097(16) 0.35755(18) 0.73030(7)
N2_7 N 0.07452(18) 0.31594(13) 0.50482(8)
C4_11 C 0.0631(2) 0.3476(2) 0.71523(10)
C5_11 C 0.0612(2) 0.3455(2) 0.67871(10)
C6_11 C 0.1389(2) 0.3518(2) 0.66101(10)
C7_11 C 0.1395(2) 0.3459(2) 0.62730(10)
C8_11 C 0.0622(2) 0.33492(19) 0.60953(9)
C20_11 C 0.0650(2) 0.32720(17) 0.57335(9)
C21_11 C 0.0058(2) 0.35845(19) 0.55295(9)
C22_11 C 0.0129(2) 0.35251(18) 0.51925(10)
C23_11 C 0.1305(2) 0.28524(17) 0.52435(9)
C24_11 C 0.1286(2) 0.28919(19) 0.55832(10)
H1_11 H 0.03551 0.33883 0.77884
H2_11 H 0.19151 0.36024 0.67250
H3_11 H 0.19288 0.34915 0.61566
H7_11 H 0.00711 0.38116 0.83012
H8_11 H 0.00872 0.37079 0.88688
H13_11 H 0.17419 0.25916 0.51431
H14_11 H 0.17007 0.26633 0.57132
Cd2_4 Cd 0.09405(2) 0.18542(2) 0.94824(2)
O9_6 O 0.05614(15) 0.32032(11) 0.94434(6)
N3_7 N 0.92548(18) 0.31594(13) 0.00482(8)
Cd1_4 Cd 0.90595(2) 0.31458(2) 0.94824(2)
O1_11 O 0.83050(16) 0.32371(15) 0.66441(7)
O3_11 O 0.81748(15) 0.22622(11) 0.95244(7)
O6_6 O 0.94386(15) 0.17968(11) 0.94434(6)
N1_11 N 0.91219(18) 0.30824(15) 0.89108(8)
C1_11 C 0.9063(2) 0.32130(19) 0.78535(10)
C2_11 C 0.9822(2) 0.33303(19) 0.76741(10)
C3_11 C 0.9806(2) 0.33630(19) 0.73330(9)
C9_11 C 0.9844(2) 0.33175(19) 0.62727(10)
C10_11 C 0.9831(2) 0.33575(19) 0.66129(9)
C11_11 C 0.8993(2) 0.3296(2) 0.67954(10)
C12_11 C 0.9023(2) 0.3288(2) 0.71611(10)
C13_11 C 0.8257(2) 0.3196(2) 0.73406(10)
C14_11 C 0.8281(2) 0.3158(2) 0.76797(10)
C15_11 C 0.9088(2) 0.31648(18) 0.82185(10)
C16_11 C 0.9673(3) 0.3525(2) 0.84067(11)
C17_11 C 0.9673(3) 0.3465(2) 0.87457(10)
C18_11 C 0.8564(2) 0.27303(19) 0.87321(10)
C19_11 C 0.8522(2) 0.2754(2) 0.83932(10)
C25_11 C 0.8643(2) 0.17637(15) 0.94904(7)
C26_11 C 0.8195(2) 0.11118(16) 0.95077(8)
C27_11 C 0.7307(2) 0.10811(17) 0.95747(9)
C28_11 C 0.6882(2) 0.04923(18) 0.95765(10)
C31_11 C 0.8651(2) 0.05350(17) 0.94652(10)
H4_11 H 0.93133 0.32672 0.61559
H5_11 H 0.77189 0.31604 0.72275
H6_11 H 0.77566 0.30935 0.77989
H9_11 H 0.81751 0.24484 0.88458
H10_11 H 0.81124 0.24932 0.82773
H11_11 H 0.96047 0.38391 0.56230
H12_11 H 0.97264 0.37511 0.50559
H15_11 H 0.69949 0.14713 0.96196
H16_11 H 0.62784 0.04801 0.96249
H18_11 H 0.92631 0.05440 0.94377
O7_7 O 0.77732(18) 0.37715(12) 0.94397(9)
O8_7 O 0.89963(15) 0.43013(13) 0.95031(7)
O4_7 O 0.72268(18) 0.87715(12) 0.94397(9)
O5_7 O 0.60037(15) 0.93013(13) 0.95031(7)
C29_11 C 0.7315(2) 0.99173(16) 0.95090(9)
C30_11 C 0.8209(2) 0.99426(17) 0.94628(11)
C32_11 C 0.6820(2) 0.92849(17) 0.94845(10)
H17_11 H 0.85233 0.95488 0.94290
N3_8 N 0.07452(18) 0.18406(13) 0.00482(8)
O1_12 O 0.16950(16) 0.17629(15) 0.66441(7)
O3_12 O 0.18252(15) 0.27378(11) 0.95244(7)
O4_8 O 0.27732(18) 0.62285(12) 0.94397(9)
O5_8 O 0.39963(15) 0.56987(13) 0.95031(7)
N1_12 N 0.08781(18) 0.19176(15) 0.89108(8)
C1_12 C 0.0937(2) 0.17870(19) 0.78535(10)
C2_12 C 0.0178(2) 0.16697(19) 0.76741(10)
C3_12 C 0.0194(2) 0.16370(19) 0.73330(9)
C9_12 C 0.0156(2) 0.16825(19) 0.62727(10)
C10_12 C 0.0169(2) 0.16425(19) 0.66129(9)
C11_12 C 0.1007(2) 0.1704(2) 0.67954(10)
C12_12 C 0.0977(2) 0.1712(2) 0.71611(10)
C13_12 C 0.1743(2) 0.1804(2) 0.73406(10)
C14_12 C 0.1719(2) 0.1842(2) 0.76797(10)
C15_12 C 0.0912(2) 0.18352(18) 0.82185(10)
C16_12 C 0.0327(3) 0.1475(2) 0.84067(11)
C17_12 C 0.0327(3) 0.1535(2) 0.87457(10)
C18_12 C 0.1436(2) 0.22697(19) 0.87321(10)
C19_12 C 0.1478(2) 0.2246(2) 0.83932(10)
C25_12 C 0.1357(2) 0.32363(15) 0.94904(7)
C26_12 C 0.1805(2) 0.38882(16) 0.95077(8)
C27_12 C 0.2693(2) 0.39189(17) 0.95747(9)
C28_12 C 0.3118(2) 0.45077(18) 0.95765(10)
C29_12 C 0.2685(2) 0.50827(16) 0.95090(9)
C30_12 C 0.1791(2) 0.50574(17) 0.94628(11)
C31_12 C 0.1349(2) 0.44650(17) 0.94652(10)
C32_12 C 0.3180(2) 0.57151(17) 0.94845(10)
H4_12 H 0.06867 0.17328 0.61559
H5_12 H 0.22811 0.18396 0.72275
H6_12 H 0.22434 0.19065 0.77989
H9_12 H 0.18249 0.25516 0.88458
H10_12 H 0.18876 0.25068 0.82773
H11_12 H 0.03953 0.11609 0.56230
H12_12 H 0.02736 0.12489 0.50559
H15_12 H 0.30051 0.35287 0.96196
H16_12 H 0.37216 0.45199 0.96249
H17_12 H 0.14767 0.54512 0.94290
H18_12 H 0.07369 0.44560 0.94377
O7_8 O 0.22268(18) 0.12285(12) 0.94397(9)
O8_8 O 0.10037(15) 0.06987(13) 0.95031(7)
O2_12 O 0.86903(16) 0.14245(18) 0.73030(7)
N2_8 N 0.92548(18) 0.18406(13) 0.50482(8)
C4_12 C 0.9369(2) 0.1524(2) 0.71523(10)
C5_12 C 0.9388(2) 0.1545(2) 0.67871(10)
C6_12 C 0.8611(2) 0.1482(2) 0.66101(10)
C7_12 C 0.8605(2) 0.1541(2) 0.62730(10)
C8_12 C 0.9378(2) 0.16508(19) 0.60953(9)
C20_12 C 0.9350(2) 0.17280(17) 0.57335(9)
C21_12 C 0.9942(2) 0.14155(19) 0.55295(9)
C22_12 C 0.9871(2) 0.14749(18) 0.51925(10)
C23_12 C 0.8695(2) 0.21476(17) 0.52435(9)
C24_12 C 0.8714(2) 0.21081(19) 0.55832(10)
H1_12 H 0.96449 0.16117 0.77884
H2_12 H 0.80849 0.13976 0.67250
H3_12 H 0.80712 0.15085 0.61566
H7_12 H 0.99289 0.11884 0.83012
H8_12 H 0.99128 0.12921 0.88688
H13_12 H 0.82581 0.24084 0.51431
H14_12 H 0.82993 0.23367 0.57132
O1_13 O 0.66950(16) 0.82371(15) 0.66441(7)
O2_13 O 0.36903(16) 0.85755(18) 0.73030(7)
O3_13 O 0.68252(15) 0.72622(11) 0.95244(7)
O6_7 O 0.55614(15) 0.67968(11) 0.94434(6)
N1_13 N 0.58781(18) 0.80824(15) 0.89108(8)
C1_13 C 0.5937(2) 0.82130(19) 0.78535(10)
C2_13 C 0.5178(2) 0.83303(19) 0.76741(10)
C3_13 C 0.5194(2) 0.83630(19) 0.73330(9)
C4_13 C 0.4369(2) 0.8476(2) 0.71523(10)
C5_13 C 0.4388(2) 0.8455(2) 0.67871(10)
C6_13 C 0.3611(2) 0.8518(2) 0.66101(10)
C7_13 C 0.3605(2) 0.8459(2) 0.62730(10)
C8_13 C 0.4378(2) 0.83492(19) 0.60953(9)
C9_13 C 0.5156(2) 0.83175(19) 0.62727(10)
C10_13 C 0.5169(2) 0.83575(19) 0.66129(9)
C11_13 C 0.6007(2) 0.8296(2) 0.67954(10)
C12_13 C 0.5977(2) 0.8288(2) 0.71611(10)
C13_13 C 0.6743(2) 0.8196(2) 0.73406(10)
C14_13 C 0.6719(2) 0.8158(2) 0.76797(10)
C15_13 C 0.5912(2) 0.81648(18) 0.82185(10)
C16_13 C 0.5327(3) 0.8525(2) 0.84067(11)
C17_13 C 0.5327(3) 0.8465(2) 0.87457(10)
C18_13 C 0.6436(2) 0.77303(19) 0.87321(10)
C19_13 C 0.6478(2) 0.7754(2) 0.83932(10)
C20_13 C 0.4350(2) 0.82720(17) 0.57335(9)
C21_13 C 0.4942(2) 0.85845(19) 0.55295(9)
C22_13 C 0.4871(2) 0.85251(18) 0.51925(10)
C23_13 C 0.3695(2) 0.78524(17) 0.52435(9)
C24_13 C 0.3714(2) 0.78919(19) 0.55832(10)
C25_13 C 0.6357(2) 0.67637(15) 0.94904(7)
C26_13 C 0.6805(2) 0.61118(16) 0.95077(8)
C27_13 C 0.7693(2) 0.60811(17) 0.95747(9)
C28_13 C 0.8118(2) 0.54923(18) 0.95765(10)
C29_13 C 0.7685(2) 0.49173(16) 0.95090(9)
C30_13 C 0.6791(2) 0.49426(17) 0.94628(11)
C31_13 C 0.6349(2) 0.55350(17) 0.94652(10)
C32_13 C 0.8180(2) 0.42849(17) 0.94845(10)
H1_13 H 0.46449 0.83883 0.77884
H2_13 H 0.30849 0.86024 0.67250
H3_13 H 0.30712 0.84915 0.61566
H4_13 H 0.56867 0.82672 0.61559
H5_13 H 0.72811 0.81604 0.72275
H6_13 H 0.72434 0.80935 0.77989
H7_13 H 0.49289 0.88116 0.83012
H8_13 H 0.49128 0.87079 0.88688
H9_13 H 0.68249 0.74484 0.88458
H10_13 H 0.68876 0.74932 0.82773
H11_13 H 0.53953 0.88391 0.56230
H12_13 H 0.52736 0.87511 0.50559
H13_13 H 0.32581 0.75916 0.51431
H14_13 H 0.32993 0.76633 0.57132
H15_13 H 0.80051 0.64713 0.96196
H16_13 H 0.87216 0.54801 0.96249
H17_13 H 0.64767 0.45488 0.94290
H18_13 H 0.57369 0.55440 0.94377
O9_7 O 0.44386(15) 0.82032(11) 0.94434(6)
C29_14 C 0.2315(2) 0.00827(16) 0.95090(9)
C30_14 C 0.3209(2) 0.00574(17) 0.94628(11)
C32_14 C 0.1820(2) 0.07151(17) 0.94845(10)
H17_14 H 0.35233 0.04512 0.94290
O1_14 O 0.33050(16) 0.67629(15) 0.66441(7)
O2_14 O 0.63097(16) 0.64245(18) 0.73030(7)
O3_14 O 0.31748(15) 0.77378(11) 0.95244(7)
N1_14 N 0.41219(18) 0.69176(15) 0.89108(8)
C1_14 C 0.4063(2) 0.67870(19) 0.78535(10)
C2_14 C 0.4822(2) 0.66697(19) 0.76741(10)
C3_14 C 0.4806(2) 0.66370(19) 0.73330(9)
C4_14 C 0.5631(2) 0.6524(2) 0.71523(10)
C5_14 C 0.5612(2) 0.6545(2) 0.67871(10)
C6_14 C 0.6389(2) 0.6482(2) 0.66101(10)
C7_14 C 0.6395(2) 0.6541(2) 0.62730(10)
C8_14 C 0.5622(2) 0.66508(19) 0.60953(9)
C9_14 C 0.4844(2) 0.66825(19) 0.62727(10)
C10_14 C 0.4831(2) 0.66425(19) 0.66129(9)
C11_14 C 0.3993(2) 0.6704(2) 0.67954(10)
C12_14 C 0.4023(2) 0.6712(2) 0.71611(10)
C13_14 C 0.3257(2) 0.6804(2) 0.73406(10)
C14_14 C 0.3281(2) 0.6842(2) 0.76797(10)
C15_14 C 0.4088(2) 0.68352(18) 0.82185(10)
C16_14 C 0.4673(3) 0.6475(2) 0.84067(11)
C17_14 C 0.4673(3) 0.6535(2) 0.87457(10)
C18_14 C 0.3564(2) 0.72697(19) 0.87321(10)
C19_14 C 0.3522(2) 0.7246(2) 0.83932(10)
C20_14 C 0.5650(2) 0.67280(17) 0.57335(9)
C21_14 C 0.5058(2) 0.64155(19) 0.55295(9)
C22_14 C 0.5129(2) 0.64749(18) 0.51925(10)
C23_14 C 0.6305(2) 0.71476(17) 0.52435(9)
C24_14 C 0.6286(2) 0.71081(19) 0.55832(10)
C25_14 C 0.3643(2) 0.82363(15) 0.94904(7)
C26_14 C 0.3195(2) 0.88882(16) 0.95077(8)
C27_14 C 0.2307(2) 0.89189(17) 0.95747(9)
C28_14 C 0.1882(2) 0.95077(18) 0.95765(10)
C31_14 C 0.3651(2) 0.94650(17) 0.94652(10)
H1_14 H 0.53551 0.66117 0.77884
H2_14 H 0.69151 0.63976 0.67250
H3_14 H 0.69288 0.65085 0.61566
H4_14 H 0.43133 0.67328 0.61559
H5_14 H 0.27189 0.68396 0.72275
H6_14 H 0.27566 0.69065 0.77989
H7_14 H 0.50711 0.61884 0.83012
H8_14 H 0.50872 0.62921 0.88688
H9_14 H 0.31751 0.75516 0.88458
H10_14 H 0.31124 0.75068 0.82773
H11_14 H 0.46047 0.61609 0.56230
H12_14 H 0.47264 0.62489 0.50559
H13_14 H 0.67419 0.74084 0.51431
H14_14 H 0.67007 0.73367 0.57132
H15_14 H 0.19949 0.85287 0.96196
H16_14 H 0.12784 0.95199 0.96249
H18_14 H 0.42631 0.94560 0.94377
O1_15 O 0.16950(16) 0.32371(15) 0.16441(7)
O3_15 O 0.18252(15) 0.22622(11) 0.45244(7)
O6_8 O 0.05614(15) 0.17968(11) 0.44434(6)
N1_15 N 0.08781(18) 0.30824(15) 0.39108(8)
C1_15 C 0.0937(2) 0.32130(19) 0.28535(10)
C2_15 C 0.0178(2) 0.33303(19) 0.26741(10)
C3_15 C 0.0194(2) 0.33630(19) 0.23330(9)
C9_15 C 0.0156(2) 0.33175(19) 0.12727(10)
C10_15 C 0.0169(2) 0.33575(19) 0.16129(9)
C11_15 C 0.1007(2) 0.3296(2) 0.17954(10)
C12_15 C 0.0977(2) 0.3288(2) 0.21611(10)
C13_15 C 0.1743(2) 0.3196(2) 0.23406(10)
C14_15 C 0.1719(2) 0.3158(2) 0.26797(10)
C15_15 C 0.0912(2) 0.31648(18) 0.32185(10)
C16_15 C 0.0327(3) 0.3525(2) 0.34067(11)
C17_15 C 0.0327(3) 0.3465(2) 0.37457(10)
C18_15 C 0.1436(2) 0.27303(19) 0.37321(10)
C19_15 C 0.1478(2) 0.2754(2) 0.33932(10)
C25_15 C 0.1357(2) 0.17637(15) 0.44904(7)
C26_15 C 0.1805(2) 0.11118(16) 0.45077(8)
C27_15 C 0.2693(2) 0.10811(17) 0.45747(9)
C28_15 C 0.3118(2) 0.04923(18) 0.45765(10)
C31_15 C 0.1349(2) 0.05350(17) 0.44652(10)
H4_15 H 0.06867 0.32672 0.11559
H5_15 H 0.22811 0.31604 0.22275
H6_15 H 0.22434 0.30935 0.27989
H9_15 H 0.18249 0.24484 0.38458
H10_15 H 0.18876 0.24932 0.32773
H11_15 H 0.03953 0.38391 0.06230
H12_15 H 0.02736 0.37511 0.00559
H15_15 H 0.30051 0.14713 0.46196
H16_15 H 0.37216 0.04801 0.46249
H18_15 H 0.07369 0.05440 0.44377
C29_15 C 0.2685(2) 0.99173(16) 0.45090(9)
C30_15 C 0.1791(2) 0.99426(17) 0.44628(11)
C32_15 C 0.3180(2) 0.92849(17) 0.44845(10)
H17_15 H 0.14767 0.95488 0.44290
O2_15 O 0.86903(16) 0.35755(18) 0.23030(7)
C4_15 C 0.9369(2) 0.3476(2) 0.21523(10)
C5_15 C 0.9388(2) 0.3455(2) 0.17871(10)
C6_15 C 0.8611(2) 0.3518(2) 0.16101(10)
C7_15 C 0.8605(2) 0.3459(2) 0.12730(10)
C8_15 C 0.9378(2) 0.33492(19) 0.10953(9)
C20_15 C 0.9350(2) 0.32720(17) 0.07335(9)
C21_15 C 0.9942(2) 0.35845(19) 0.05295(9)
C22_15 C 0.9871(2) 0.35251(18) 0.01925(10)
C23_15 C 0.8695(2) 0.28524(17) 0.02435(9)
C24_15 C 0.8714(2) 0.28919(19) 0.05832(10)
H1_15 H 0.96449 0.33883 0.27884
H2_15 H 0.80849 0.36024 0.17250
H3_15 H 0.80712 0.34915 0.11566
H7_15 H 0.99289 0.38116 0.33012
H8_15 H 0.99128 0.37079 0.38688
H13_15 H 0.82581 0.25916 0.01431
H14_15 H 0.82993 0.26633 0.07132
O9_8 O 0.94386(15) 0.32032(11) 0.44434(6)
O2_16 O 0.13097(16) 0.14245(18) 0.23030(7)
C4_16 C 0.0631(2) 0.1524(2) 0.21523(10)
C5_16 C 0.0612(2) 0.1545(2) 0.17871(10)
C6_16 C 0.1389(2) 0.1482(2) 0.16101(10)
C7_16 C 0.1395(2) 0.1541(2) 0.12730(10)
C8_16 C 0.0622(2) 0.16508(19) 0.10953(9)
C20_16 C 0.0650(2) 0.17280(17) 0.07335(9)
C21_16 C 0.0058(2) 0.14155(19) 0.05295(9)
C22_16 C 0.0129(2) 0.14749(18) 0.01925(10)
C23_16 C 0.1305(2) 0.21476(17) 0.02435(9)
C24_16 C 0.1286(2) 0.21081(19) 0.05832(10)
H1_16 H 0.03551 0.16117 0.27884
H2_16 H 0.19151 0.13976 0.17250
H3_16 H 0.19288 0.15085 0.11566
H7_16 H 0.00711 0.11884 0.33012
H8_16 H 0.00872 0.12921 0.38688
H13_16 H 0.17419 0.24084 0.01431
H14_16 H 0.17007 0.23367 0.07132
O1_16 O 0.83050(16) 0.17629(15) 0.16441(7)
O3_16 O 0.81748(15) 0.27378(11) 0.45244(7)
N1_16 N 0.91219(18) 0.19176(15) 0.39108(8)
C1_16 C 0.9063(2) 0.17870(19) 0.28535(10)
C2_16 C 0.9822(2) 0.16697(19) 0.26741(10)
C3_16 C 0.9806(2) 0.16370(19) 0.23330(9)
C9_16 C 0.9844(2) 0.16825(19) 0.12727(10)
C10_16 C 0.9831(2) 0.16425(19) 0.16129(9)
C11_16 C 0.8993(2) 0.1704(2) 0.17954(10)
C12_16 C 0.9023(2) 0.1712(2) 0.21611(10)
C13_16 C 0.8257(2) 0.1804(2) 0.23406(10)
C14_16 C 0.8281(2) 0.1842(2) 0.26797(10)
C15_16 C 0.9088(2) 0.18352(18) 0.32185(10)
C16_16 C 0.9673(3) 0.1475(2) 0.34067(11)
C17_16 C 0.9673(3) 0.1535(2) 0.37457(10)
C18_16 C 0.8564(2) 0.22697(19) 0.37321(10)
C19_16 C 0.8522(2) 0.2246(2) 0.33932(10)
C25_16 C 0.8643(2) 0.32363(15) 0.44904(7)
C26_16 C 0.8195(2) 0.38882(16) 0.45077(8)
C27_16 C 0.7307(2) 0.39189(17) 0.45747(9)
C28_16 C 0.6882(2) 0.45077(18) 0.45765(10)
C29_16 C 0.7315(2) 0.50827(16) 0.45090(9)
C30_16 C 0.8209(2) 0.50574(17) 0.44628(11)
C31_16 C 0.8651(2) 0.44650(17) 0.44652(10)
C32_16 C 0.6820(2) 0.57151(17) 0.44845(10)
H4_16 H 0.93133 0.17328 0.11559
H5_16 H 0.77189 0.18396 0.22275
H6_16 H 0.77566 0.19065 0.27989
H9_16 H 0.81751 0.25516 0.38458
H10_16 H 0.81124 0.25068 0.32773
H11_16 H 0.96047 0.11609 0.06230
H12_16 H 0.97264 0.12489 0.00559
H15_16 H 0.69949 0.35287 0.46196
H16_16 H 0.62784 0.45199 0.46249
H17_16 H 0.85233 0.54512 0.44290
H18_16 H 0.92631 0.44560 0.44377
loop_
_geom_bond_atom_site_label_1
_geom_bond_atom_site_label_2
_geom_bond_site_symmetry_1
_geom_bond_site_symmetry_2
Cd1 O3 1_555 1_555
O1 C11 1_555 1_555
O2 C4 1_555 1_555
O3 C25 1_555 1_555
O4 C32 1_555 1_555
O5 C32 1_555 1_555
O6 C25 1_555 1_555
N1 Cd1 1_555 1_555
N2 C22 1_555 1_555
C1 C2 1_555 1_555
C2 C3 1_555 1_555
C3 C4 1_555 1_555
C4 C5 1_555 1_555
C5 C6 1_555 1_555
C6 C7 1_555 1_555
C7 C8 1_555 1_555
C8 C9 1_555 1_555
C9 C10 1_555 1_555
C10 C5 1_555 1_555
C11 C10 1_555 1_555
C12 C3 1_555 1_555
C13 C12 1_555 1_555
C14 C1 1_555 1_555
C15 C1 1_555 1_555
C16 C15 1_555 1_555
C17 N1 1_555 1_555
C18 N1 1_555 1_555
C19 C15 1_555 1_555
C20 C8 1_555 1_555
C21 C20 1_555 1_555
C22 C21 1_555 1_555
C23 N2 1_555 1_555
C24 C20 1_555 1_555
C25 C26 1_555 1_555
C26 C27 1_555 1_555
C27 C28 1_555 1_555
C28 C29 1_555 1_555
C29 C30 1_555 1_555
C30 C31 1_555 1_555
C31 C26 1_555 1_555
C32 C29 1_555 1_555
H1 C2 1_555 1_555
H2 C6 1_555 1_555
H3 C7 1_555 1_555
H4 C9 1_555 1_555
H5 C13 1_555 1_555
H6 C14 1_555 1_555
H7 C16 1_555 1_555
H8 C17 1_555 1_555
H9 C18 1_555 1_555
H10 C19 1_555 1_555
H11 C21 1_555 1_555
H12 C22 1_555 1_555
H13 C23 1_555 1_555
H14 C24 1_555 1_555
H15 C27 1_555 1_555
H16 C28 1_555 1_555
H17 C30 1_555 1_555
H18 C31 1_555 1_555
Cd2 O6 1_555 1_555
Cd3 N2 1_555 1_555
Cd4 O4 1_555 1_555
O7 Cd1 1_555 1_555
O8 Cd1 1_555 1_555
O9 Cd1 1_555 1_555
O5 Cd4 1_555 1_555
C11 C12 1_555 1_555
C13 C14 1_555 1_555
C16 C17 1_555 1_555
C18 C19 1_555 1_555
C23 C24 1_555 1_555
Cd2 O3_2 1_555 1_555
O1_2 C11_2 1_555 1_555
O2_2 C4_2 1_555 1_555
O3_2 C25_2 1_555 1_555
O9 C25_2 1_555 1_555
N1_2 Cd2 1_555 1_555
N2_2 C22_2 1_555 1_555
C1_2 C2_2 1_555 1_555
C2_2 C3_2 1_555 1_555
C3_2 C4_2 1_555 1_555
C4_2 C5_2 1_555 1_555
C5_2 C6_2 1_555 1_555
C6_2 C7_2 1_555 1_555
C7_2 C8_2 1_555 1_555
C8_2 C9_2 1_555 1_555
C9_2 C10_2 1_555 1_555
C10_2 C5_2 1_555 1_555
C11_2 C10_2 1_555 1_555
C12_2 C3_2 1_555 1_555
C13_2 C12_2 1_555 1_555
C14_2 C1_2 1_555 1_555
C15_2 C1_2 1_555 1_555
C16_2 C15_2 1_555 1_555
C17_2 N1_2 1_555 1_555
C18_2 N1_2 1_555 1_555
C19_2 C15_2 1_555 1_555
C20_2 C8_2 1_555 1_555
C21_2 C20_2 1_555 1_555
C22_2 C21_2 1_555 1_555
C23_2 N2_2 1_555 1_555
C24_2 C20_2 1_555 1_555
C25_2 C26_2 1_555 1_555
C26_2 C27_2 1_555 1_555
C27_2 C28_2 1_555 1_555
C31_2 C26_2 1_555 1_555
H1_2 C2_2 1_555 1_555
H2_2 C6_2 1_555 1_555
H3_2 C7_2 1_555 1_555
H4_2 C9_2 1_555 1_555
H5_2 C13_2 1_555 1_555
H6_2 C14_2 1_555 1_555
H7_2 C16_2 1_555 1_555
H8_2 C17_2 1_555 1_555
H9_2 C18_2 1_555 1_555
H10_2 C19_2 1_555 1_555
H11_2 C21_2 1_555 1_555
H12_2 C22_2 1_555 1_555
H13_2 C23_2 1_555 1_555
H14_2 C24_2 1_555 1_555
H15_2 C27_2 1_555 1_555
H16_2 C28_2 1_555 1_555
H18_2 C31_2 1_555 1_555
Cd3_2 N2_2 1_555 1_555
O7_2 Cd2 1_555 1_555
O8_2 Cd2 1_555 1_555
C11_2 C12_2 1_555 1_555
C13_2 C14_2 1_555 1_555
C16_2 C17_2 1_555 1_555
C18_2 C19_2 1_555 1_555
C23_2 C24_2 1_555 1_555
O4_2 C32_2 1_555 1_555
O5_2 C32_2 1_555 1_555
C29_2 C30_2 1_555 1_555
C32_2 C29_2 1_555 1_555
H17_2 C30_2 1_555 1_555
Cd4_2 O4_2 1_555 1_555
O5_2 Cd4_2 1_555 1_555
O2_3 C4_3 1_555 1_555
N2_3 C22_3 1_555 1_555
C4_3 C5_3 1_555 1_555
C5_3 C6_3 1_555 1_555
C6_3 C7_3 1_555 1_555
C7_3 C8_3 1_555 1_555
C20_3 C8_3 1_555 1_555
C21_3 C20_3 1_555 1_555
C22_3 C21_3 1_555 1_555
C23_3 N2_3 1_555 1_555
C24_3 C20_3 1_555 1_555
H2_3 C6_3 1_555 1_555
H3_3 C7_3 1_555 1_555
H13_3 C23_3 1_555 1_555
H14_3 C24_3 1_555 1_555
C23_3 C24_3 1_555 1_555
O4_3 C32_3 1_555 1_555
O5_3 C32_3 1_555 1_555
C29_3 C30_3 1_555 1_555
C32_3 C29_3 1_555 1_555
H17_3 C30_3 1_555 1_555
Cd3 O4_3 1_555 1_555
O5_3 Cd3 1_555 1_555
Cd1_2 O3_3 1_555 1_555
O1_3 C11_3 1_555 1_555
O3_3 C25_3 1_555 1_555
O6_2 C25_3 1_555 1_555
N1_3 Cd1_2 1_555 1_555
C1_3 C2_3 1_555 1_555
C2_3 C3_3 1_555 1_555
C9_3 C10_3 1_555 1_555
C11_3 C10_3 1_555 1_555
C12_3 C3_3 1_555 1_555
C13_3 C12_3 1_555 1_555
C14_3 C1_3 1_555 1_555
C15_3 C1_3 1_555 1_555
C16_3 C15_3 1_555 1_555
C17_3 N1_3 1_555 1_555
C18_3 N1_3 1_555 1_555
C19_3 C15_3 1_555 1_555
C25_3 C26_3 1_555 1_555
C26_3 C27_3 1_555 1_555
C27_3 C28_3 1_555 1_555
C31_3 C26_3 1_555 1_555
H4_3 C9_3 1_555 1_555
H5_3 C13_3 1_555 1_555
H6_3 C14_3 1_555 1_555
H9_3 C18_3 1_555 1_555
H10_3 C19_3 1_555 1_555
H15_3 C27_3 1_555 1_555
H16_3 C28_3 1_555 1_555
H18_3 C31_3 1_555 1_555
O7_3 Cd1_2 1_555 1_555
O8_3 Cd1_2 1_555 1_555
N3_3 Cd1_2 1_555 1_555
C11_3 C12_3 1_555 1_555
C13_3 C14_3 1_555 1_555
C16_3 C17_3 1_555 1_555
C18_3 C19_3 1_555 1_555
Cd2_2 O3_4 1_555 1_555
O1_4 C11_4 1_555 1_555
O3_4 C25_4 1_555 1_555
O4_4 C32_4 1_555 1_555
O5_4 C32_4 1_555 1_555
O9_2 C25_4 1_555 1_555
N1_4 Cd2_2 1_555 1_555
C1_4 C2_4 1_555 1_555
C2_4 C3_4 1_555 1_555
C9_4 C10_4 1_555 1_555
C11_4 C10_4 1_555 1_555
C12_4 C3_4 1_555 1_555
C13_4 C12_4 1_555 1_555
C14_4 C1_4 1_555 1_555
C15_4 C1_4 1_555 1_555
C16_4 C15_4 1_555 1_555
C17_4 N1_4 1_555 1_555
C18_4 N1_4 1_555 1_555
C19_4 C15_4 1_555 1_555
C25_4 C26_4 1_555 1_555
C26_4 C27_4 1_555 1_555
C27_4 C28_4 1_555 1_555
C28_4 C29_4 1_555 1_555
C29_4 C30_4 1_555 1_555
C30_4 C31_4 1_555 1_555
C31_4 C26_4 1_555 1_555
C32_4 C29_4 1_555 1_555
H4_4 C9_4 1_555 1_555
H5_4 C13_4 1_555 1_555
H6_4 C14_4 1_555 1_555
H9_4 C18_4 1_555 1_555
H10_4 C19_4 1_555 1_555
H15_4 C27_4 1_555 1_555
H16_4 C28_4 1_555 1_555
H17_4 C30_4 1_555 1_555
H18_4 C31_4 1_555 1_555
Cd3_2 O4_4 1_555 1_555
O7_4 Cd2_2 1_555 1_555
O8_4 Cd2_2 1_555 1_555
N3_4 Cd2_2 1_555 1_555
O5_4 Cd3_2 1_555 1_555
C11_4 C12_4 1_555 1_555
C13_4 C14_4 1_555 1_555
C16_4 C17_4 1_555 1_555
C18_4 C19_4 1_555 1_555
O2_4 C4_4 1_555 1_555
N2_4 C22_4 1_555 1_555
C4_4 C5_4 1_555 1_555
C5_4 C6_4 1_555 1_555
C6_4 C7_4 1_555 1_555
C7_4 C8_4 1_555 1_555
C20_4 C8_4 1_555 1_555
C21_4 C20_4 1_555 1_555
C22_4 C21_4 1_555 1_555
C23_4 N2_4 1_555 1_555
C24_4 C20_4 1_555 1_555
H2_4 C6_4 1_555 1_555
H3_4 C7_4 1_555 1_555
H13_4 C23_4 1_555 1_555
H14_4 C24_4 1_555 1_555
C23_4 C24_4 1_555 1_555
Cd3 O3_5 1_555 1_555
O1_5 C11_5 1_555 1_555
O2_5 C4_5 1_555 1_555
O3_5 C25_5 1_555 1_555
O7_3 C32_5 1_555 1_555
O8_3 C32_5 1_555 1_555
O6_3 C25_5 1_555 1_555
N1_5 Cd3 1_555 1_555
N3 C22_5 1_555 1_555
C1_5 C2_5 1_555 1_555
C2_5 C3_5 1_555 1_555
C3_5 C4_5 1_555 1_555
C4_5 C5_5 1_555 1_555
C5_5 C6_5 1_555 1_555
C6_5 C7_5 1_555 1_555
C7_5 C8_5 1_555 1_555
C8_5 C9_5 1_555 1_555
C9_5 C10_5 1_555 1_555
C10_5 C5_5 1_555 1_555
C11_5 C10_5 1_555 1_555
C12_5 C3_5 1_555 1_555
C13_5 C12_5 1_555 1_555
C14_5 C1_5 1_555 1_555
C15_5 C1_5 1_555 1_555
C16_5 C15_5 1_555 1_555
C17_5 N1_5 1_555 1_555
C18_5 N1_5 1_555 1_555
C19_5 C15_5 1_555 1_555
C20_5 C8_5 1_555 1_555
C21_5 C20_5 1_555 1_555
C22_5 C21_5 1_555 1_555
C23_5 N3 1_555 1_555
C24_5 C20_5 1_555 1_555
C25_5 C26_5 1_555 1_555
C26_5 C27_5 1_555 1_555
C27_5 C28_5 1_555 1_555
C28_5 C29_5 1_555 1_555
C29_5 C30_5 1_555 1_555
C30_5 C31_5 1_555 1_555
C31_5 C26_5 1_555 1_555
C32_5 C29_5 1_555 1_555
H1_5 C2_5 1_555 1_555
H2_5 C6_5 1_555 1_555
H3_5 C7_5 1_555 1_555
H4_5 C9_5 1_555 1_555
H5_5 C13_5 1_555 1_555
H6_5 C14_5 1_555 1_555
H7_5 C16_5 1_555 1_555
H8_5 C17_5 1_555 1_555
H9_5 C18_5 1_555 1_555
H10_5 C19_5 1_555 1_555
H11_5 C21_5 1_555 1_555
H12_5 C22_5 1_555 1_555
H13_5 C23_5 1_555 1_555
H14_5 C24_5 1_555 1_555
H15_5 C27_5 1_555 1_555
H16_5 C28_5 1_555 1_555
H17_5 C30_5 1_555 1_555
H18_5 C31_5 1_555 1_555
Cd3_2 O6_3 1_555 1_555
O9_3 Cd3 1_555 1_555
C11_5 C12_5 1_555 1_555
C13_5 C14_5 1_555 1_555
C16_5 C17_5 1_555 1_555
C18_5 C19_5 1_555 1_555
C23_5 C24_5 1_555 1_555
Cd3_2 O3_6 1_555 1_555
O1_6 C11_6 1_555 1_555
O2_6 C4_6 1_555 1_555
O3_6 C25_6 1_555 1_555
O9_3 C25_6 1_555 1_555
N1_6 Cd3_2 1_555 1_555
N3_2 C22_6 1_555 1_555
C1_6 C2_6 1_555 1_555
C2_6 C3_6 1_555 1_555
C3_6 C4_6 1_555 1_555
C4_6 C5_6 1_555 1_555
C5_6 C6_6 1_555 1_555
C6_6 C7_6 1_555 1_555
C7_6 C8_6 1_555 1_555
C8_6 C9_6 1_555 1_555
C9_6 C10_6 1_555 1_555
C10_6 C5_6 1_555 1_555
C11_6 C10_6 1_555 1_555
C12_6 C3_6 1_555 1_555
C13_6 C12_6 1_555 1_555
C14_6 C1_6 1_555 1_555
C15_6 C1_6 1_555 1_555
C16_6 C15_6 1_555 1_555
C17_6 N1_6 1_555 1_555
C18_6 N1_6 1_555 1_555
C19_6 C15_6 1_555 1_555
C20_6 C8_6 1_555 1_555
C21_6 C20_6 1_555 1_555
C22_6 C21_6 1_555 1_555
C23_6 N3_2 1_555 1_555
C24_6 C20_6 1_555 1_555
C25_6 C26_6 1_555 1_555
C26_6 C27_6 1_555 1_555
C27_6 C28_6 1_555 1_555
C31_6 C26_6 1_555 1_555
H1_6 C2_6 1_555 1_555
H2_6 C6_6 1_555 1_555
H3_6 C7_6 1_555 1_555
H4_6 C9_6 1_555 1_555
H5_6 C13_6 1_555 1_555
H6_6 C14_6 1_555 1_555
H7_6 C16_6 1_555 1_555
H8_6 C17_6 1_555 1_555
H9_6 C18_6 1_555 1_555
H10_6 C19_6 1_555 1_555
H11_6 C21_6 1_555 1_555
H12_6 C22_6 1_555 1_555
H13_6 C23_6 1_555 1_555
H14_6 C24_6 1_555 1_555
H15_6 C27_6 1_555 1_555
H16_6 C28_6 1_555 1_555
H18_6 C31_6 1_555 1_555
C11_6 C12_6 1_555 1_555
C13_6 C14_6 1_555 1_555
C16_6 C17_6 1_555 1_555
C18_6 C19_6 1_555 1_555
C23_6 C24_6 1_555 1_555
O7_4 C32_6 1_555 1_555
O8_4 C32_6 1_555 1_555
C29_6 C30_6 1_555 1_555
C32_6 C29_6 1_555 1_555
H17_6 C30_6 1_555 1_555
O7 C32_7 1_555 1_555
O8 C32_7 1_555 1_555
C29_7 C30_7 1_555 1_555
C32_7 C29_7 1_555 1_555
H17_7 C30_7 1_555 1_555
Cd4 O3_7 1_555 1_555
O1_7 C11_7 1_555 1_555
O3_7 C25_7 1_555 1_555
O6_4 C25_7 1_555 1_555
N1_7 Cd4 1_555 1_555
C1_7 C2_7 1_555 1_555
C2_7 C3_7 1_555 1_555
C9_7 C10_7 1_555 1_555
C11_7 C10_7 1_555 1_555
C12_7 C3_7 1_555 1_555
C13_7 C12_7 1_555 1_555
C14_7 C1_7 1_555 1_555
C15_7 C1_7 1_555 1_555
C16_7 C15_7 1_555 1_555
C17_7 N1_7 1_555 1_555
C18_7 N1_7 1_555 1_555
C19_7 C15_7 1_555 1_555
C25_7 C26_7 1_555 1_555
C26_7 C27_7 1_555 1_555
C27_7 C28_7 1_555 1_555
C31_7 C26_7 1_555 1_555
H4_7 C9_7 1_555 1_555
H5_7 C13_7 1_555 1_555
H6_7 C14_7 1_555 1_555
H9_7 C18_7 1_555 1_555
H10_7 C19_7 1_555 1_555
H15_7 C27_7 1_555 1_555
H16_7 C28_7 1_555 1_555
H18_7 C31_7 1_555 1_555
C11_7 C12_7 1_555 1_555
C13_7 C14_7 1_555 1_555
C16_7 C17_7 1_555 1_555
C18_7 C19_7 1_555 1_555
O2_7 C4_7 1_555 1_555
N3_3 C22_7 1_555 1_555
C4_7 C5_7 1_555 1_555
C5_7 C6_7 1_555 1_555
C6_7 C7_7 1_555 1_555
C7_7 C8_7 1_555 1_555
C20_7 C8_7 1_555 1_555
C21_7 C20_7 1_555 1_555
C22_7 C21_7 1_555 1_555
C23_7 N3_3 1_555 1_555
C24_7 C20_7 1_555 1_555
H2_7 C6_7 1_555 1_555
H3_7 C7_7 1_555 1_555
H13_7 C23_7 1_555 1_555
H14_7 C24_7 1_555 1_555
C23_7 C24_7 1_555 1_555
O2_8 C4_8 1_555 1_555
N3_4 C22_8 1_555 1_555
C4_8 C5_8 1_555 1_555
C5_8 C6_8 1_555 1_555
C6_8 C7_8 1_555 1_555
C7_8 C8_8 1_555 1_555
C20_8 C8_8 1_555 1_555
C21_8 C20_8 1_555 1_555
C22_8 C21_8 1_555 1_555
C23_8 N3_4 1_555 1_555
C24_8 C20_8 1_555 1_555
H2_8 C6_8 1_555 1_555
H3_8 C7_8 1_555 1_555
H13_8 C23_8 1_555 1_555
H14_8 C24_8 1_555 1_555
C23_8 C24_8 1_555 1_555
Cd4_2 O3_8 1_555 1_555
O1_8 C11_8 1_555 1_555
O3_8 C25_8 1_555 1_555
O7_2 C32_8 1_555 1_555
O8_2 C32_8 1_555 1_555
O9_4 C25_8 1_555 1_555
N1_8 Cd4_2 1_555 1_555
C1_8 C2_8 1_555 1_555
C2_8 C3_8 1_555 1_555
C9_8 C10_8 1_555 1_555
C11_8 C10_8 1_555 1_555
C12_8 C3_8 1_555 1_555
C13_8 C12_8 1_555 1_555
C14_8 C1_8 1_555 1_555
C15_8 C1_8 1_555 1_555
C16_8 C15_8 1_555 1_555
C17_8 N1_8 1_555 1_555
C18_8 N1_8 1_555 1_555
C19_8 C15_8 1_555 1_555
C25_8 C26_8 1_555 1_555
C26_8 C27_8 1_555 1_555
C27_8 C28_8 1_555 1_555
C28_8 C29_8 1_555 1_555
C29_8 C30_8 1_555 1_555
C30_8 C31_8 1_555 1_555
C31_8 C26_8 1_555 1_555
C32_8 C29_8 1_555 1_555
H4_8 C9_8 1_555 1_555
H5_8 C13_8 1_555 1_555
H6_8 C14_8 1_555 1_555
H9_8 C18_8 1_555 1_555
H10_8 C19_8 1_555 1_555
H15_8 C27_8 1_555 1_555
H16_8 C28_8 1_555 1_555
H17_8 C30_8 1_555 1_555
H18_8 C31_8 1_555 1_555
C11_8 C12_8 1_555 1_555
C13_8 C14_8 1_555 1_555
C16_8 C17_8 1_555 1_555
C18_8 C19_8 1_555 1_555
Cd1_3 O3_9 1_555 1_555
O1_9 C11_9 1_555 1_555
O2_9 C4_9 1_555 1_555
O3_9 C25_9 1_555 1_555
O4_5 C32_9 1_555 1_555
O5_5 C32_9 1_555 1_555
O6_5 C25_9 1_555 1_555
N1_9 Cd1_3 1_555 1_555
N2_5 C22_9 1_555 1_555
C1_9 C2_9 1_555 1_555
C2_9 C3_9 1_555 1_555
C3_9 C4_9 1_555 1_555
C4_9 C5_9 1_555 1_555
C5_9 C6_9 1_555 1_555
C6_9 C7_9 1_555 1_555
C7_9 C8_9 1_555 1_555
C8_9 C9_9 1_555 1_555
C9_9 C10_9 1_555 1_555
C10_9 C5_9 1_555 1_555
C11_9 C10_9 1_555 1_555
C12_9 C3_9 1_555 1_555
C13_9 C12_9 1_555 1_555
C14_9 C1_9 1_555 1_555
C15_9 C1_9 1_555 1_555
C16_9 C15_9 1_555 1_555
C17_9 N1_9 1_555 1_555
C18_9 N1_9 1_555 1_555
C19_9 C15_9 1_555 1_555
C20_9 C8_9 1_555 1_555
C21_9 C20_9 1_555 1_555
C22_9 C21_9 1_555 1_555
C23_9 N2_5 1_555 1_555
C24_9 C20_9 1_555 1_555
C25_9 C26_9 1_555 1_555
C26_9 C27_9 1_555 1_555
C27_9 C28_9 1_555 1_555
C28_9 C29_9 1_555 1_555
C29_9 C30_9 1_555 1_555
C30_9 C31_9 1_555 1_555
C31_9 C26_9 1_555 1_555
C32_9 C29_9 1_555 1_555
H1_9 C2_9 1_555 1_555
H2_9 C6_9 1_555 1_555
H3_9 C7_9 1_555 1_555
H4_9 C9_9 1_555 1_555
H5_9 C13_9 1_555 1_555
H6_9 C14_9 1_555 1_555
H7_9 C16_9 1_555 1_555
H8_9 C17_9 1_555 1_555
H9_9 C18_9 1_555 1_555
H10_9 C19_9 1_555 1_555
H11_9 C21_9 1_555 1_555
H12_9 C22_9 1_555 1_555
H13_9 C23_9 1_555 1_555
H14_9 C24_9 1_555 1_555
H15_9 C27_9 1_555 1_555
H16_9 C28_9 1_555 1_555
H17_9 C30_9 1_555 1_555
H18_9 C31_9 1_555 1_555
Cd2_3 O6_5 1_555 1_555
Cd4_3 O4_5 1_555 1_555
O7_5 Cd1_3 1_555 1_555
O8_5 Cd1_3 1_555 1_555
O9_5 Cd1_3 1_555 1_555
N3_5 Cd1_3 1_555 1_555
O5_5 Cd4_3 1_555 1_555
C11_9 C12_9 1_555 1_555
C13_9 C14_9 1_555 1_555
C16_9 C17_9 1_555 1_555
C18_9 C19_9 1_555 1_555
C23_9 C24_9 1_555 1_555
O4_6 C32_10 1_555 1_555
O5_6 C32_10 1_555 1_555
C29_10 C30_10 1_555 1_555
C32_10 C29_10 1_555 1_555
H17_10 C30_10 1_555 1_555
Cd4_4 O4_6 1_555 1_555
O5_6 Cd4_4 1_555 1_555
Cd2_3 O3_10 1_555 1_555
O1_10 C11_10 1_555 1_555
O2_10 C4_10 1_555 1_555
O3_10 C25_10 1_555 1_555
O9_5 C25_10 1_555 1_555
N1_10 Cd2_3 1_555 1_555
N2_6 C22_10 1_555 1_555
C1_10 C2_10 1_555 1_555
C2_10 C3_10 1_555 1_555
C3_10 C4_10 1_555 1_555
C4_10 C5_10 1_555 1_555
C5_10 C6_10 1_555 1_555
C6_10 C7_10 1_555 1_555
C7_10 C8_10 1_555 1_555
C8_10 C9_10 1_555 1_555
C9_10 C10_10 1_555 1_555
C10_10 C5_10 1_555 1_555
C11_10 C10_10 1_555 1_555
C12_10 C3_10 1_555 1_555
C13_10 C12_10 1_555 1_555
C14_10 C1_10 1_555 1_555
C15_10 C1_10 1_555 1_555
C16_10 C15_10 1_555 1_555
C17_10 N1_10 1_555 1_555
C18_10 N1_10 1_555 1_555
C19_10 C15_10 1_555 1_555
C20_10 C8_10 1_555 1_555
C21_10 C20_10 1_555 1_555
C22_10 C21_10 1_555 1_555
C23_10 N2_6 1_555 1_555
C24_10 C20_10 1_555 1_555
C25_10 C26_10 1_555 1_555
C26_10 C27_10 1_555 1_555
C27_10 C28_10 1_555 1_555
C31_10 C26_10 1_555 1_555
H1_10 C2_10 1_555 1_555
H2_10 C6_10 1_555 1_555
H3_10 C7_10 1_555 1_555
H4_10 C9_10 1_555 1_555
H5_10 C13_10 1_555 1_555
H6_10 C14_10 1_555 1_555
H7_10 C16_10 1_555 1_555
H8_10 C17_10 1_555 1_555
H9_10 C18_10 1_555 1_555
H10_10 C19_10 1_555 1_555
H11_10 C21_10 1_555 1_555
H12_10 C22_10 1_555 1_555
H13_10 C23_10 1_555 1_555
H14_10 C24_10 1_555 1_555
H15_10 C27_10 1_555 1_555
H16_10 C28_10 1_555 1_555
H18_10 C31_10 1_555 1_555
O7_6 Cd2_3 1_555 1_555
O8_6 Cd2_3 1_555 1_555
N3_6 Cd2_3 1_555 1_555
C11_10 C12_10 1_555 1_555
C13_10 C14_10 1_555 1_555
C16_10 C17_10 1_555 1_555
C18_10 C19_10 1_555 1_555
C23_10 C24_10 1_555 1_555
O2_11 C4_11 1_555 1_555
N2_7 C22_11 1_555 1_555
C4_11 C5_11 1_555 1_555
C5_11 C6_11 1_555 1_555
C6_11 C7_11 1_555 1_555
C7_11 C8_11 1_555 1_555
C20_11 C8_11 1_555 1_555
C21_11 C20_11 1_555 1_555
C22_11 C21_11 1_555 1_555
C23_11 N2_7 1_555 1_555
C24_11 C20_11 1_555 1_555
H2_11 C6_11 1_555 1_555
H3_11 C7_11 1_555 1_555
H13_11 C23_11 1_555 1_555
H14_11 C24_11 1_555 1_555
Cd4_3 N2_7 1_555 1_555
C23_11 C24_11 1_555 1_555
Cd1_4 O3_11 1_555 1_555
O1_11 C11_11 1_555 1_555
O3_11 C25_11 1_555 1_555
O6_6 C25_11 1_555 1_555
N1_11 Cd1_4 1_555 1_555
C1_11 C2_11 1_555 1_555
C2_11 C3_11 1_555 1_555
C9_11 C10_11 1_555 1_555
C11_11 C10_11 1_555 1_555
C12_11 C3_11 1_555 1_555
C13_11 C12_11 1_555 1_555
C14_11 C1_11 1_555 1_555
C15_11 C1_11 1_555 1_555
C16_11 C15_11 1_555 1_555
C17_11 N1_11 1_555 1_555
C18_11 N1_11 1_555 1_555
C19_11 C15_11 1_555 1_555
C25_11 C26_11 1_555 1_555
C26_11 C27_11 1_555 1_555
C27_11 C28_11 1_555 1_555
C31_11 C26_11 1_555 1_555
H4_11 C9_11 1_555 1_555
H5_11 C13_11 1_555 1_555
H6_11 C14_11 1_555 1_555
H9_11 C18_11 1_555 1_555
H10_11 C19_11 1_555 1_555
H15_11 C27_11 1_555 1_555
H16_11 C28_11 1_555 1_555
H18_11 C31_11 1_555 1_555
O7_7 Cd1_4 1_555 1_555
O8_7 Cd1_4 1_555 1_555
C11_11 C12_11 1_555 1_555
C13_11 C14_11 1_555 1_555
C16_11 C17_11 1_555 1_555
C18_11 C19_11 1_555 1_555
O4_7 C32_11 1_555 1_555
O5_7 C32_11 1_555 1_555
C29_11 C30_11 1_555 1_555
C32_11 C29_11 1_555 1_555
H17_11 C30_11 1_555 1_555
Cd3_3 O4_7 1_555 1_555
O5_7 Cd3_3 1_555 1_555
Cd2_4 O3_12 1_555 1_555
O1_12 C11_12 1_555 1_555
O3_12 C25_12 1_555 1_555
O4_8 C32_12 1_555 1_555
O5_8 C32_12 1_555 1_555
O9_6 C25_12 1_555 1_555
N1_12 Cd2_4 1_555 1_555
C1_12 C2_12 1_555 1_555
C2_12 C3_12 1_555 1_555
C9_12 C10_12 1_555 1_555
C11_12 C10_12 1_555 1_555
C12_12 C3_12 1_555 1_555
C13_12 C12_12 1_555 1_555
C14_12 C1_12 1_555 1_555
C15_12 C1_12 1_555 1_555
C16_12 C15_12 1_555 1_555
C17_12 N1_12 1_555 1_555
C18_12 N1_12 1_555 1_555
C19_12 C15_12 1_555 1_555
C25_12 C26_12 1_555 1_555
C26_12 C27_12 1_555 1_555
C27_12 C28_12 1_555 1_555
C28_12 C29_12 1_555 1_555
C29_12 C30_12 1_555 1_555
C30_12 C31_12 1_555 1_555
C31_12 C26_12 1_555 1_555
C32_12 C29_12 1_555 1_555
H4_12 C9_12 1_555 1_555
H5_12 C13_12 1_555 1_555
H6_12 C14_12 1_555 1_555
H9_12 C18_12 1_555 1_555
H10_12 C19_12 1_555 1_555
H15_12 C27_12 1_555 1_555
H16_12 C28_12 1_555 1_555
H17_12 C30_12 1_555 1_555
H18_12 C31_12 1_555 1_555
Cd3_4 O4_8 1_555 1_555
O7_8 Cd2_4 1_555 1_555
O8_8 Cd2_4 1_555 1_555
O5_8 Cd3_4 1_555 1_555
C11_12 C12_12 1_555 1_555
C13_12 C14_12 1_555 1_555
C16_12 C17_12 1_555 1_555
C18_12 C19_12 1_555 1_555
O2_12 C4_12 1_555 1_555
N2_8 C22_12 1_555 1_555
C4_12 C5_12 1_555 1_555
C5_12 C6_12 1_555 1_555
C6_12 C7_12 1_555 1_555
C7_12 C8_12 1_555 1_555
C20_12 C8_12 1_555 1_555
C21_12 C20_12 1_555 1_555
C22_12 C21_12 1_555 1_555
C23_12 N2_8 1_555 1_555
C24_12 C20_12 1_555 1_555
H2_12 C6_12 1_555 1_555
H3_12 C7_12 1_555 1_555
H13_12 C23_12 1_555 1_555
H14_12 C24_12 1_555 1_555
Cd4_4 N2_8 1_555 1_555
C23_12 C24_12 1_555 1_555
Cd3_3 O3_13 1_555 1_555
O1_13 C11_13 1_555 1_555
O2_13 C4_13 1_555 1_555
O3_13 C25_13 1_555 1_555
O7_7 C32_13 1_555 1_555
O8_7 C32_13 1_555 1_555
O6_7 C25_13 1_555 1_555
N1_13 Cd3_3 1_555 1_555
N3_5 C22_13 1_555 1_555
C1_13 C2_13 1_555 1_555
C2_13 C3_13 1_555 1_555
C3_13 C4_13 1_555 1_555
C4_13 C5_13 1_555 1_555
C5_13 C6_13 1_555 1_555
C6_13 C7_13 1_555 1_555
C7_13 C8_13 1_555 1_555
C8_13 C9_13 1_555 1_555
C9_13 C10_13 1_555 1_555
C10_13 C5_13 1_555 1_555
C11_13 C10_13 1_555 1_555
C12_13 C3_13 1_555 1_555
C13_13 C12_13 1_555 1_555
C14_13 C1_13 1_555 1_555
C15_13 C1_13 1_555 1_555
C16_13 C15_13 1_555 1_555
C17_13 N1_13 1_555 1_555
C18_13 N1_13 1_555 1_555
C19_13 C15_13 1_555 1_555
C20_13 C8_13 1_555 1_555
C21_13 C20_13 1_555 1_555
C22_13 C21_13 1_555 1_555
C23_13 N3_5 1_555 1_555
C24_13 C20_13 1_555 1_555
C25_13 C26_13 1_555 1_555
C26_13 C27_13 1_555 1_555
C27_13 C28_13 1_555 1_555
C28_13 C29_13 1_555 1_555
C29_13 C30_13 1_555 1_555
C30_13 C31_13 1_555 1_555
C31_13 C26_13 1_555 1_555
C32_13 C29_13 1_555 1_555
H1_13 C2_13 1_555 1_555
H2_13 C6_13 1_555 1_555
H3_13 C7_13 1_555 1_555
H4_13 C9_13 1_555 1_555
H5_13 C13_13 1_555 1_555
H6_13 C14_13 1_555 1_555
H7_13 C16_13 1_555 1_555
H8_13 C17_13 1_555 1_555
H9_13 C18_13 1_555 1_555
H10_13 C19_13 1_555 1_555
H11_13 C21_13 1_555 1_555
H12_13 C22_13 1_555 1_555
H13_13 C23_13 1_555 1_555
H14_13 C24_13 1_555 1_555
H15_13 C27_13 1_555 1_555
H16_13 C28_13 1_555 1_555
H17_13 C30_13 1_555 1_555
H18_13 C31_13 1_555 1_555
Cd3_4 O6_7 1_555 1_555
O9_7 Cd3_3 1_555 1_555
C11_13 C12_13 1_555 1_555
C13_13 C14_13 1_555 1_555
C16_13 C17_13 1_555 1_555
C18_13 C19_13 1_555 1_555
C23_13 C24_13 1_555 1_555
O7_8 C32_14 1_555 1_555
O8_8 C32_14 1_555 1_555
C29_14 C30_14 1_555 1_555
C32_14 C29_14 1_555 1_555
H17_14 C30_14 1_555 1_555
Cd3_4 O3_14 1_555 1_555
O1_14 C11_14 1_555 1_555
O2_14 C4_14 1_555 1_555
O3_14 C25_14 1_555 1_555
O9_7 C25_14 1_555 1_555
N1_14 Cd3_4 1_555 1_555
N3_6 C22_14 1_555 1_555
C1_14 C2_14 1_555 1_555
C2_14 C3_14 1_555 1_555
C3_14 C4_14 1_555 1_555
C4_14 C5_14 1_555 1_555
C5_14 C6_14 1_555 1_555
C6_14 C7_14 1_555 1_555
C7_14 C8_14 1_555 1_555
C8_14 C9_14 1_555 1_555
C9_14 C10_14 1_555 1_555
C10_14 C5_14 1_555 1_555
C11_14 C10_14 1_555 1_555
C12_14 C3_14 1_555 1_555
C13_14 C12_14 1_555 1_555
C14_14 C1_14 1_555 1_555
C15_14 C1_14 1_555 1_555
C16_14 C15_14 1_555 1_555
C17_14 N1_14 1_555 1_555
C18_14 N1_14 1_555 1_555
C19_14 C15_14 1_555 1_555
C20_14 C8_14 1_555 1_555
C21_14 C20_14 1_555 1_555
C22_14 C21_14 1_555 1_555
C23_14 N3_6 1_555 1_555
C24_14 C20_14 1_555 1_555
C25_14 C26_14 1_555 1_555
C26_14 C27_14 1_555 1_555
C27_14 C28_14 1_555 1_555
C31_14 C26_14 1_555 1_555
H1_14 C2_14 1_555 1_555
H2_14 C6_14 1_555 1_555
H3_14 C7_14 1_555 1_555
H4_14 C9_14 1_555 1_555
H5_14 C13_14 1_555 1_555
H6_14 C14_14 1_555 1_555
H7_14 C16_14 1_555 1_555
H8_14 C17_14 1_555 1_555
H9_14 C18_14 1_555 1_555
H10_14 C19_14 1_555 1_555
H11_14 C21_14 1_555 1_555
H12_14 C22_14 1_555 1_555
H13_14 C23_14 1_555 1_555
H14_14 C24_14 1_555 1_555
H15_14 C27_14 1_555 1_555
H16_14 C28_14 1_555 1_555
H18_14 C31_14 1_555 1_555
C11_14 C12_14 1_555 1_555
C13_14 C14_14 1_555 1_555
C16_14 C17_14 1_555 1_555
C18_14 C19_14 1_555 1_555
C23_14 C24_14 1_555 1_555
Cd4_3 O3_15 1_555 1_555
O1_15 C11_15 1_555 1_555
O3_15 C25_15 1_555 1_555
O6_8 C25_15 1_555 1_555
N1_15 Cd4_3 1_555 1_555
C1_15 C2_15 1_555 1_555
C2_15 C3_15 1_555 1_555
C9_15 C10_15 1_555 1_555
C11_15 C10_15 1_555 1_555
C12_15 C3_15 1_555 1_555
C13_15 C12_15 1_555 1_555
C14_15 C1_15 1_555 1_555
C15_15 C1_15 1_555 1_555
C16_15 C15_15 1_555 1_555
C17_15 N1_15 1_555 1_555
C18_15 N1_15 1_555 1_555
C19_15 C15_15 1_555 1_555
C25_15 C26_15 1_555 1_555
C26_15 C27_15 1_555 1_555
C27_15 C28_15 1_555 1_555
C31_15 C26_15 1_555 1_555
H4_15 C9_15 1_555 1_555
H5_15 C13_15 1_555 1_555
H6_15 C14_15 1_555 1_555
H9_15 C18_15 1_555 1_555
H10_15 C19_15 1_555 1_555
H15_15 C27_15 1_555 1_555
H16_15 C28_15 1_555 1_555
H18_15 C31_15 1_555 1_555
C11_15 C12_15 1_555 1_555
C13_15 C14_15 1_555 1_555
C16_15 C17_15 1_555 1_555
C18_15 C19_15 1_555 1_555
O7_5 C32_15 1_555 1_555
O8_5 C32_15 1_555 1_555
C29_15 C30_15 1_555 1_555
C32_15 C29_15 1_555 1_555
H17_15 C30_15 1_555 1_555
O2_15 C4_15 1_555 1_555
N3_7 C22_15 1_555 1_555
C4_15 C5_15 1_555 1_555
C5_15 C6_15 1_555 1_555
C6_15 C7_15 1_555 1_555
C7_15 C8_15 1_555 1_555
C20_15 C8_15 1_555 1_555
C21_15 C20_15 1_555 1_555
C22_15 C21_15 1_555 1_555
C23_15 N3_7 1_555 1_555
C24_15 C20_15 1_555 1_555
H2_15 C6_15 1_555 1_555
H3_15 C7_15 1_555 1_555
H13_15 C23_15 1_555 1_555
H14_15 C24_15 1_555 1_555
C23_15 C24_15 1_555 1_555
O2_16 C4_16 1_555 1_555
N3_8 C22_16 1_555 1_555
C4_16 C5_16 1_555 1_555
C5_16 C6_16 1_555 1_555
C6_16 C7_16 1_555 1_555
C7_16 C8_16 1_555 1_555
C20_16 C8_16 1_555 1_555
C21_16 C20_16 1_555 1_555
C22_16 C21_16 1_555 1_555
C23_16 N3_8 1_555 1_555
C24_16 C20_16 1_555 1_555
H2_16 C6_16 1_555 1_555
H3_16 C7_16 1_555 1_555
H13_16 C23_16 1_555 1_555
H14_16 C24_16 1_555 1_555
C23_16 C24_16 1_555 1_555
Cd4_4 O3_16 1_555 1_555
O1_16 C11_16 1_555 1_555
O3_16 C25_16 1_555 1_555
O7_6 C32_16 1_555 1_555
O8_6 C32_16 1_555 1_555
O9_8 C25_16 1_555 1_555
N1_16 Cd4_4 1_555 1_555
C1_16 C2_16 1_555 1_555
C2_16 C3_16 1_555 1_555
C9_16 C10_16 1_555 1_555
C11_16 C10_16 1_555 1_555
C12_16 C3_16 1_555 1_555
C13_16 C12_16 1_555 1_555
C14_16 C1_16 1_555 1_555
C15_16 C1_16 1_555 1_555
C16_16 C15_16 1_555 1_555
C17_16 N1_16 1_555 1_555
C18_16 N1_16 1_555 1_555
C19_16 C15_16 1_555 1_555
C25_16 C26_16 1_555 1_555
C26_16 C27_16 1_555 1_555
C27_16 C28_16 1_555 1_555
C28_16 C29_16 1_555 1_555
C29_16 C30_16 1_555 1_555
C30_16 C31_16 1_555 1_555
C31_16 C26_16 1_555 1_555
C32_16 C29_16 1_555 1_555
H4_16 C9_16 1_555 1_555
H5_16 C13_16 1_555 1_555
H6_16 C14_16 1_555 1_555
H9_16 C18_16 1_555 1_555
H10_16 C19_16 1_555 1_555
H15_16 C27_16 1_555 1_555
H16_16 C28_16 1_555 1_555
H17_16 C30_16 1_555 1_555
H18_16 C31_16 1_555 1_555
C11_16 C12_16 1_555 1_555
C13_16 C14_16 1_555 1_555
C16_16 C17_16 1_555 1_555
C18_16 C19_16 1_555 1_555

#END
