
###############################################################################
#
# This file contains modified crystal structure data generated from the
# MOF subset of the Cambridge Structural Database (CSD) v543 
# hosted by the Cambridge Crystallographic Data Centre (CCDC).
#
# This work is licensed under the Creative Commons
# Attribution-NonCommercial-ShareAlike 4.0 International License.
# To view a copy of this license, visit
# http://creativecommons.org/licenses/by-nc-sa/4.0/
# or send a letter to
# Creative Commons, PO Box 1866, Mountain View, CA 94042, USA.
#
# CIF created using the CSD Python API on 29 September 2022
# The structure has been converted into the P1 space group
# The structure has a 3D framework
# The original CSD entry EPECAG is in the orthorhombic crystal system
# The framework has been calculated to contain at least 10.0% void space
# The void calculation uses a probe of radius 1.32A, grid spacing 0.4
#
###############################################################################

data_EPECAG
_chemical_formula_moiety         '(C256 H160 N16 O48 Zn6)n'
_symmetry_cell_setting           triclinic
_symmetry_space_group_name_H-M   'P 1'
_symmetry_Int_Tables_number      1
_space_group_name_Hall           'P 1'
loop_
_symmetry_equiv_pos_site_id
_symmetry_equiv_pos_as_xyz
1 x,y,z
_cell_length_a                   16.395(3)
_cell_length_b                   20.218(3)
_cell_length_c                   19.111(3)
_cell_angle_alpha                90
_cell_angle_beta                 90
_cell_angle_gamma                90
_cell_volume                     6334.8
loop_
_atom_site_label
_atom_site_type_symbol
_atom_site_fract_x
_atom_site_fract_y
_atom_site_fract_z
N2 N 0.5946(3) 0.2449(3) 0.3747(3)
C28 C 0.6362(4) 0.0086(3) 0.4697(3)
C29 C 0.6021(4) 0.0345(3) 0.4071(3)
C36 C 0.5988(4) 0.1067(3) 0.3950(3)
C37 C 0.5373(4) 0.1373(3) 0.3566(4)
C38 C 0.5380(4) 0.2043(3) 0.3465(3)
C39 C 0.6546(4) 0.2166(3) 0.4107(3)
C40 C 0.6590(4) 0.1493(3) 0.4222(3)
H19 H 0.65615 0.03807 0.50440
H20 H 0.54590 0.00987 0.31755
H23 H 0.49441 0.11150 0.33735
H24 H 0.49650 0.22330 0.31822
H25 H 0.69635 0.24400 0.42937
H26 H 0.70293 0.13162 0.44871
Zn5 Zn 0.59312(4) 0.35249(3) 0.36388(3)
Zn1 Zn 0.40587(4) 0.33266(4) 0.49454(3)
O1 O 0.5217(3) 0.3341(2) 0.5306(2)
O2 O 0.6291(3) 0.3598(2) 0.4643(2)
O3 O 0.7794(3) 0.3492(3) 0.8217(3)
O4 O 0.8843(3) 0.3480(3) 0.7516(3)
O5 O 0.3370(3) 0.3349(2) 0.5802(2)
O6 O 0.2219(3) 0.3105(2) 0.5229(2)
O7 O 0.1469(3) 0.3251(2) 0.9001(2)
O8 O 0.0295(3) 0.3505(2) 0.8520(3)
O11 O 0.5204(3) 0.9065(2) 0.2539(2)
O12 O 0.6489(3) 0.8067(2) 0.5015(2)
N1 N 0.5877(3) 0.4590(2) 0.3599(3)
N3 N 0.4141(3) 0.2259(3) 0.5025(3)
C1 C 0.5953(4) 0.3457(3) 0.5217(4)
C2 C 0.6506(4) 0.3437(3) 0.5844(4)
C3 C 0.6176(4) 0.3327(3) 0.6509(4)
C4 C 0.6679(5) 0.3333(3) 0.7083(4)
C5 C 0.7515(5) 0.3428(4) 0.7004(4)
C6 C 0.7836(5) 0.3507(5) 0.6344(5)
C7 C 0.7332(5) 0.3521(5) 0.5769(5)
C8 C 0.8094(5) 0.3468(4) 0.7629(4)
C9 C 0.2618(4) 0.3223(3) 0.5772(3)
C10 C 0.2175(4) 0.3245(4) 0.6479(3)
C11 C 0.1345(4) 0.3264(3) 0.6516(4)
C12 C 0.0957(4) 0.3312(4) 0.7156(4)
C13 C 0.1411(4) 0.3304(3) 0.7768(3)
C14 C 0.2259(5) 0.3266(5) 0.7735(4)
C15 C 0.2635(5) 0.3238(5) 0.7078(5)
C16 C 0.1026(3) 0.3358(3) 0.8487(3)
C17 C 0.6311(4) 0.4987(3) 0.4020(3)
C18 C 0.6276(4) 0.5672(3) 0.3985(3)
C19 C 0.5769(3) 0.5974(3) 0.3488(3)
C20 C 0.5323(4) 0.5564(3) 0.3058(4)
C21 C 0.5394(4) 0.4879(3) 0.3116(3)
C22 C 0.5720(4) 0.6710(3) 0.3415(3)
C23 C 0.5954(3) 0.7138(3) 0.3936(3)
C24 C 0.5906(4) 0.7836(3) 0.3864(3)
C25 C 0.6176(4) 0.8265(3) 0.4390(3)
C26 C 0.6126(4) 0.8958(3) 0.4293(3)
C27 C 0.6406(4) 0.9423(3) 0.4806(3)
C30 C 0.5715(4) 0.9925(3) 0.3582(4)
C31 C 0.5773(4) 0.9219(3) 0.3674(3)
C32 C 0.5499(4) 0.8789(3) 0.3141(3)
C33 C 0.5570(4) 0.8100(3) 0.3231(3)
C34 C 0.5345(4) 0.7644(3) 0.2695(3)
C35 C 0.5415(4) 0.6984(3) 0.2777(3)
C41 C 0.4695(5) 0.1973(4) 0.5457(4)
C42 C 0.4738(5) 0.1305(4) 0.5596(4)
C43 C 0.4198(5) 0.0882(4) 0.5266(4)
C44 C 0.3617(4) 0.1164(4) 0.4828(4)
C45 C 0.3609(5) 0.1853(3) 0.4728(4)
C46 C 0.4238(5) 0.0154(4) 0.5387(4)
H1 H 0.56085 0.32482 0.65627
H2 H 0.64546 0.32732 0.75373
H3 H 0.84089 0.35534 0.62857
H4 H 0.75575 0.35880 0.53170
H7 H 0.10314 0.32445 0.60986
H8 H 0.48016 0.88450 0.23970
H9 H 0.03801 0.33494 0.71764
H10 H 0.66702 0.76795 0.49779
H11 H 0.25758 0.32577 0.81514
H12 H 0.32129 0.32145 0.70475
H13 H 0.66587 0.47892 0.43580
H14 H 0.65936 0.59335 0.42948
H15 H 0.49655 0.57496 0.27193
H16 H 0.50929 0.46059 0.28044
H17 H 0.61571 0.69597 0.43621
H18 H 0.66289 0.92639 0.52324
H21 H 0.51392 0.78118 0.22650
H22 H 0.52589 0.66978 0.24057
H27 H 0.50807 0.22530 0.56789
H28 H 0.51329 0.11378 0.59140
H29 H 0.32269 0.08931 0.45979
H30 H 0.32024 0.20373 0.44324
H31 H 0.46523 0.01987 0.64034
Zn4 Zn 0.09413(4) 0.33266(4) 0.99454(3)
Zn7 Zn 0.90688(4) 0.35249(3) 0.86388(3)
O13 O 0.7206(3) 0.3492(3) 0.3217(3)
O14 O 0.6157(3) 0.3480(3) 0.2516(3)
O15 O 0.3531(3) 0.3251(2) 0.4001(2)
O16 O 0.4705(3) 0.3505(2) 0.3520(3)
N6 N 0.4084(3) 0.4399(2) 0.4917(3)
O9 O 0.3595(4) 0.8818(3) 0.3785(3)
O10 O 0.4813(4) 0.7807(3) 0.6274(3)
C47 C 0.4527(5) 0.9903(4) 0.6032(4)
C48 C 0.4628(5) 0.9226(4) 0.6125(4)
C49 C 0.4440(4) 0.8760(4) 0.5588(4)
C50 C 0.4531(4) 0.8077(4) 0.5671(4)
C51 C 0.4287(4) 0.7656(3) 0.5139(3)
C52 C 0.4347(4) 0.6953(4) 0.5214(4)
C53 C 0.4088(4) 0.6528(4) 0.4708(4)
C54 C 0.3775(4) 0.6793(4) 0.4073(4)
C55 C 0.3714(4) 0.7470(4) 0.3972(4)
C56 C 0.3960(4) 0.7914(3) 0.4494(4)
C57 C 0.3892(4) 0.8610(4) 0.4405(3)
C58 C 0.4122(4) 0.9035(3) 0.4958(4)
C59 C 0.4040(4) 0.9734(3) 0.4885(5)
C60 C 0.4102(4) 0.5778(4) 0.4814(4)
C61 C 0.4595(4) 0.5456(3) 0.5282(4)
C62 C 0.4573(4) 0.4757(3) 0.5325(4)
C63 C 0.3587(4) 0.4727(3) 0.4473(4)
C64 C 0.3574(4) 0.5407(3) 0.4417(4)
H5 H 0.35305 0.92296 0.37957
H6 H 0.51191 0.80789 0.64775
H32 H 0.48288 0.90684 0.65609
H33 H 0.45767 0.67766 0.56304
H34 H 0.36058 0.65003 0.37122
H35 H 0.35035 0.76347 0.35426
H36 H 0.38340 0.99047 0.44570
H37 H 0.49505 0.57013 0.55770
H38 H 0.49157 0.45383 0.56520
H39 H 0.32288 0.44774 0.41852
H40 H 0.32036 0.56173 0.41061
O5_2 O 0.1630(3) 0.3349(2) 0.0802(2)
O6_2 O 0.2781(3) 0.3105(2) 0.0229(2)
N3_2 N 0.0859(3) 0.2259(3) 0.0025(3)
C9_2 C 0.2382(4) 0.3223(3) 0.0772(3)
C10_2 C 0.2825(4) 0.3245(4) 0.1479(3)
C11_2 C 0.3655(4) 0.3264(3) 0.1516(4)
C12_2 C 0.4043(4) 0.3312(4) 0.2156(4)
C13_2 C 0.3589(4) 0.3304(3) 0.2768(3)
C14_2 C 0.2741(5) 0.3266(5) 0.2735(4)
C15_2 C 0.2365(5) 0.3238(5) 0.2078(5)
C16_2 C 0.3974(3) 0.3358(3) 0.3487(3)
C41_2 C 0.0305(5) 0.1973(4) 0.0457(4)
C42_2 C 0.0262(5) 0.1305(4) 0.0596(4)
C43_2 C 0.0802(5) 0.0882(4) 0.0266(4)
C46_2 C 0.0762(5) 0.0154(4) 0.0387(4)
H7_2 H 0.39686 0.32445 0.10986
H9_2 H 0.46199 0.33494 0.21764
H11_2 H 0.24242 0.32577 0.31514
H12_2 H 0.17871 0.32145 0.20475
H31_2 H 0.03477 0.01987 0.14034
C44_2 C 0.1383(4) 0.1164(4) 0.9828(4)
C45_2 C 0.1391(5) 0.1853(3) 0.9728(4)
H8_2 H 0.01984 0.88450 0.73970
H15_2 H 0.00345 0.57496 0.77193
H29_2 H 0.17731 0.08931 0.95979
H30_2 H 0.17976 0.20373 0.94324
N6_2 N 0.0916(3) 0.4399(2) 0.9917(3)
O9_2 O 0.1405(4) 0.8818(3) 0.8785(3)
C53_2 C 0.0912(4) 0.6528(4) 0.9708(4)
C54_2 C 0.1225(4) 0.6793(4) 0.9073(4)
C55_2 C 0.1286(4) 0.7470(4) 0.8972(4)
C56_2 C 0.1040(4) 0.7914(3) 0.9494(4)
C57_2 C 0.1108(4) 0.8610(4) 0.9405(3)
C58_2 C 0.0878(4) 0.9035(3) 0.9958(4)
C59_2 C 0.0960(4) 0.9734(3) 0.9885(5)
C60_2 C 0.0898(4) 0.5778(4) 0.9814(4)
C63_2 C 0.1413(4) 0.4727(3) 0.9473(4)
C64_2 C 0.1426(4) 0.5407(3) 0.9417(4)
H5_2 H 0.14695 0.92296 0.87957
H34_2 H 0.13942 0.65003 0.87122
H35_2 H 0.14965 0.76347 0.85426
H36_2 H 0.11660 0.99047 0.94570
H39_2 H 0.17712 0.44774 0.91852
H40_2 H 0.17964 0.56173 0.91061
N2_2 N 0.9054(3) 0.2449(3) 0.8747(3)
C28_2 C 0.8638(4) 0.0086(3) 0.9697(3)
C29_2 C 0.8979(4) 0.0345(3) 0.9071(3)
C36_2 C 0.9012(4) 0.1067(3) 0.8950(3)
C37_2 C 0.9627(4) 0.1373(3) 0.8566(4)
C38_2 C 0.9620(4) 0.2043(3) 0.8465(3)
C39_2 C 0.8454(4) 0.2166(3) 0.9107(3)
C40_2 C 0.8410(4) 0.1493(3) 0.9222(3)
H20_2 H 0.95410 0.00987 0.81755
H25_2 H 0.80365 0.24400 0.92937
H26_2 H 0.79707 0.13162 0.94871
O1_2 O 0.9783(3) 0.3341(2) 0.0306(2)
O12_2 O 0.8511(3) 0.8067(2) 0.0015(2)
C1_2 C 0.9047(4) 0.3457(3) 0.0217(4)
C2_2 C 0.8494(4) 0.3437(3) 0.0844(4)
C3_2 C 0.8824(4) 0.3327(3) 0.1509(4)
C4_2 C 0.8321(5) 0.3333(3) 0.2083(4)
C5_2 C 0.7485(5) 0.3428(4) 0.2004(4)
C6_2 C 0.7164(5) 0.3507(5) 0.1344(5)
C7_2 C 0.7668(5) 0.3521(5) 0.0769(5)
C8_2 C 0.6906(5) 0.3468(4) 0.2629(4)
H1_2 H 0.93915 0.32482 0.15627
H2_2 H 0.85454 0.32732 0.25373
H3_2 H 0.65911 0.35534 0.12857
H4_2 H 0.74425 0.35880 0.03170
H18_2 H 0.83711 0.92639 0.02324
H27_2 H 0.99193 0.22530 0.06789
H28_2 H 0.98671 0.11378 0.09140
O2_2 O 0.8709(3) 0.3598(2) 0.9643(2)
O11_2 O 0.9796(3) 0.9065(2) 0.7539(2)
N1_2 N 0.9123(3) 0.4590(2) 0.8599(3)
C17_2 C 0.8689(4) 0.4987(3) 0.9020(3)
C18_2 C 0.8724(4) 0.5672(3) 0.8985(3)
C19_2 C 0.9231(3) 0.5974(3) 0.8488(3)
C20_2 C 0.9677(4) 0.5564(3) 0.8058(4)
C21_2 C 0.9606(4) 0.4879(3) 0.8116(3)
C22_2 C 0.9280(4) 0.6710(3) 0.8415(3)
C23_2 C 0.9046(3) 0.7138(3) 0.8936(3)
C24_2 C 0.9094(4) 0.7836(3) 0.8864(3)
C25_2 C 0.8824(4) 0.8265(3) 0.9390(3)
C26_2 C 0.8874(4) 0.8958(3) 0.9293(3)
C27_2 C 0.8594(4) 0.9423(3) 0.9806(3)
C30_2 C 0.9285(4) 0.9925(3) 0.8582(4)
C31_2 C 0.9227(4) 0.9219(3) 0.8674(3)
C32_2 C 0.9501(4) 0.8789(3) 0.8141(3)
C33_2 C 0.9430(4) 0.8100(3) 0.8231(3)
C34_2 C 0.9655(4) 0.7644(3) 0.7695(3)
C35_2 C 0.9585(4) 0.6984(3) 0.7777(3)
H10_2 H 0.83298 0.76795 0.99779
H13_2 H 0.83413 0.47892 0.93580
H14_2 H 0.84064 0.59335 0.92948
H16_2 H 0.99071 0.46059 0.78044
H17_2 H 0.88429 0.69597 0.93621
H21_2 H 0.98608 0.78118 0.72650
H22_2 H 0.97411 0.66978 0.74057
Zn6 Zn 0.09312(4) 0.64751(3) 0.36388(3)
O9_3 O 0.6405(4) 0.1182(3) 0.8785(3)
N4 N 0.5916(3) 0.5601(2) 0.9917(3)
C53_3 C 0.5912(4) 0.3472(4) 0.9708(4)
C54_3 C 0.6225(4) 0.3207(4) 0.9073(4)
C55_3 C 0.6286(4) 0.2530(4) 0.8972(4)
C56_3 C 0.6040(4) 0.2086(3) 0.9494(4)
C57_3 C 0.6108(4) 0.1390(4) 0.9405(3)
C58_3 C 0.5878(4) 0.0965(3) 0.9958(4)
C59_3 C 0.5960(4) 0.0266(3) 0.9885(5)
C60_3 C 0.5898(4) 0.4222(4) 0.9814(4)
C63_3 C 0.6413(4) 0.5273(3) 0.9473(4)
C64_3 C 0.6426(4) 0.4593(3) 0.9417(4)
H5_3 H 0.64695 0.07704 0.87957
H34_3 H 0.63942 0.34997 0.87122
H35_3 H 0.64965 0.23653 0.85426
H36_3 H 0.61660 0.00953 0.94570
H39_3 H 0.67712 0.55226 0.91852
H40_3 H 0.67964 0.43827 0.91061
Zn3 Zn 0.59413(4) 0.66734(4) 0.99454(3)
O1_3 O 0.4783(3) 0.6659(2) 0.0306(2)
O3_2 O 0.2206(3) 0.6508(3) 0.3217(3)
O4_2 O 0.1157(3) 0.6520(3) 0.2516(3)
O5_3 O 0.6630(3) 0.6651(2) 0.0802(2)
O6_3 O 0.7781(3) 0.6895(2) 0.0229(2)
O7_2 O 0.8531(3) 0.6749(2) 0.4001(2)
O8_2 O 0.9705(3) 0.6495(2) 0.3520(3)
O12_3 O 0.3511(3) 0.1933(2) 0.0015(2)
N3_3 N 0.5859(3) 0.7741(3) 0.0025(3)
C1_3 C 0.4047(4) 0.6543(3) 0.0217(4)
C2_3 C 0.3494(4) 0.6563(3) 0.0844(4)
C3_3 C 0.3824(4) 0.6673(3) 0.1509(4)
C4_3 C 0.3321(5) 0.6667(3) 0.2083(4)
C5_3 C 0.2485(5) 0.6572(4) 0.2004(4)
C6_3 C 0.2164(5) 0.6493(5) 0.1344(5)
C7_3 C 0.2668(5) 0.6479(5) 0.0769(5)
C8_3 C 0.1906(5) 0.6532(4) 0.2629(4)
C9_3 C 0.7382(4) 0.6777(3) 0.0772(3)
C10_3 C 0.7825(4) 0.6755(4) 0.1479(3)
C11_3 C 0.8655(4) 0.6736(3) 0.1516(4)
C12_3 C 0.9043(4) 0.6688(4) 0.2156(4)
C13_3 C 0.8589(4) 0.6696(3) 0.2768(3)
C14_3 C 0.7741(5) 0.6734(5) 0.2735(4)
C15_3 C 0.7365(5) 0.6762(5) 0.2078(5)
C16_3 C 0.8974(3) 0.6642(3) 0.3487(3)
C41_3 C 0.5305(5) 0.8027(4) 0.0457(4)
C42_3 C 0.5262(5) 0.8695(4) 0.0596(4)
C43_3 C 0.5802(5) 0.9118(4) 0.0266(4)
C46_3 C 0.5762(5) 0.9846(4) 0.0387(4)
H1_3 H 0.43915 0.67518 0.15627
H2_3 H 0.35454 0.67268 0.25373
H3_3 H 0.15911 0.64466 0.12857
H4_3 H 0.24425 0.64120 0.03170
H7_3 H 0.89686 0.67555 0.10986
H9_3 H 0.96199 0.66506 0.21764
H11_3 H 0.74242 0.67423 0.31514
H12_3 H 0.67871 0.67855 0.20475
H18_3 H 0.33711 0.07361 0.02324
H27_3 H 0.49193 0.77470 0.06789
H28_3 H 0.48671 0.88622 0.09140
H31_3 H 0.53477 0.98013 0.14034
Zn4_2 Zn 0.90587(4) 0.66734(4) 0.49454(3)
Zn2 Zn 0.40688(4) 0.64751(3) 0.86388(3)
O2_3 O 0.3709(3) 0.6402(2) 0.9643(2)
O11_3 O 0.4796(3) 0.0935(2) 0.7539(2)
N1_3 N 0.4123(3) 0.5410(2) 0.8599(3)
C17_3 C 0.3689(4) 0.5013(3) 0.9020(3)
C18_3 C 0.3724(4) 0.4328(3) 0.8985(3)
C19_3 C 0.4231(3) 0.4026(3) 0.8488(3)
C20_3 C 0.4677(4) 0.4436(3) 0.8058(4)
C21_3 C 0.4606(4) 0.5121(3) 0.8116(3)
C22_3 C 0.4280(4) 0.3290(3) 0.8415(3)
C23_3 C 0.4046(3) 0.2862(3) 0.8936(3)
C24_3 C 0.4094(4) 0.2164(3) 0.8864(3)
C25_3 C 0.3824(4) 0.1735(3) 0.9390(3)
C26_3 C 0.3874(4) 0.1042(3) 0.9293(3)
C27_3 C 0.3594(4) 0.0577(3) 0.9806(3)
C30_3 C 0.4285(4) 0.0075(3) 0.8582(4)
C31_3 C 0.4227(4) 0.0781(3) 0.8674(3)
C32_3 C 0.4501(4) 0.1211(3) 0.8141(3)
C33_3 C 0.4430(4) 0.1900(3) 0.8231(3)
C34_3 C 0.4655(4) 0.2356(3) 0.7695(3)
C35_3 C 0.4585(4) 0.3016(3) 0.7777(3)
C44_3 C 0.6383(4) 0.8836(4) 0.9828(4)
C45_3 C 0.6391(5) 0.8147(3) 0.9728(4)
H8_3 H 0.51984 0.11550 0.73970
H10_3 H 0.33298 0.23205 0.99779
H13_3 H 0.33413 0.52108 0.93580
H14_3 H 0.34064 0.40665 0.92948
H15_3 H 0.50345 0.42504 0.77193
H16_3 H 0.49071 0.53941 0.78044
H17_3 H 0.38429 0.30403 0.93621
H21_3 H 0.48608 0.21882 0.72650
H22_3 H 0.47411 0.33022 0.74057
H29_3 H 0.67731 0.91069 0.95979
H30_3 H 0.67976 0.79627 0.94324
O13_2 O 0.2794(3) 0.6508(3) 0.8217(3)
O14_2 O 0.3843(3) 0.6520(3) 0.7516(3)
O15_2 O 0.6469(3) 0.6749(2) 0.9001(2)
O16_2 O 0.5295(3) 0.6495(2) 0.8520(3)
N5 N 0.4054(3) 0.7551(3) 0.8747(3)
C28_3 C 0.3638(4) 0.9914(3) 0.9697(3)
C29_3 C 0.3979(4) 0.9655(3) 0.9071(3)
C36_3 C 0.4012(4) 0.8933(3) 0.8950(3)
C37_3 C 0.4627(4) 0.8627(3) 0.8566(4)
C38_3 C 0.4620(4) 0.7957(3) 0.8465(3)
C39_3 C 0.3454(4) 0.7834(3) 0.9107(3)
C40_3 C 0.3410(4) 0.8507(3) 0.9222(3)
H20_3 H 0.45410 0.99013 0.81755
H23_2 H 0.50559 0.88850 0.83735
H24_2 H 0.50350 0.77670 0.81822
H25_3 H 0.30365 0.75600 0.92937
H26_3 H 0.29707 0.86838 0.94871
O1_4 O 0.0217(3) 0.6659(2) 0.5306(2)
O2_4 O 0.1291(3) 0.6402(2) 0.4643(2)
O11_4 O 0.0204(3) 0.0935(2) 0.2539(2)
O12_4 O 0.1489(3) 0.1933(2) 0.5015(2)
N1_4 N 0.0877(3) 0.5410(2) 0.3599(3)
C1_4 C 0.0953(4) 0.6543(3) 0.5217(4)
C2_4 C 0.1506(4) 0.6563(3) 0.5844(4)
C3_4 C 0.1176(4) 0.6673(3) 0.6509(4)
C4_4 C 0.1679(5) 0.6667(3) 0.7083(4)
C5_4 C 0.2515(5) 0.6572(4) 0.7004(4)
C6_4 C 0.2836(5) 0.6493(5) 0.6344(5)
C7_4 C 0.2332(5) 0.6479(5) 0.5769(5)
C8_4 C 0.3094(5) 0.6532(4) 0.7629(4)
C17_4 C 0.1311(4) 0.5013(3) 0.4020(3)
C18_4 C 0.1276(4) 0.4328(3) 0.3985(3)
C19_4 C 0.0769(3) 0.4026(3) 0.3488(3)
C20_4 C 0.0323(4) 0.4436(3) 0.3058(4)
C21_4 C 0.0394(4) 0.5121(3) 0.3116(3)
C22_4 C 0.0720(4) 0.3290(3) 0.3415(3)
C23_4 C 0.0954(3) 0.2862(3) 0.3936(3)
C24_4 C 0.0906(4) 0.2164(3) 0.3864(3)
C25_4 C 0.1176(4) 0.1735(3) 0.4390(3)
C26_4 C 0.1126(4) 0.1042(3) 0.4293(3)
C27_4 C 0.1406(4) 0.0577(3) 0.4806(3)
C30_4 C 0.0715(4) 0.0075(3) 0.3582(4)
C31_4 C 0.0773(4) 0.0781(3) 0.3674(3)
C32_4 C 0.0499(4) 0.1211(3) 0.3141(3)
C33_4 C 0.0570(4) 0.1900(3) 0.3231(3)
C34_4 C 0.0345(4) 0.2356(3) 0.2695(3)
C35_4 C 0.0415(4) 0.3016(3) 0.2777(3)
H1_4 H 0.06085 0.67518 0.65627
H2_4 H 0.14546 0.67268 0.75373
H3_4 H 0.34089 0.64466 0.62857
H4_4 H 0.25575 0.64120 0.53170
H10_4 H 0.16702 0.23205 0.49779
H13_4 H 0.16587 0.52108 0.43580
H14_4 H 0.15936 0.40665 0.42948
H16_4 H 0.00929 0.53941 0.28044
H17_4 H 0.11571 0.30403 0.43621
H18_4 H 0.16289 0.07361 0.52324
H21_4 H 0.01392 0.21882 0.22650
H22_4 H 0.02589 0.33022 0.24057
H27_4 H 0.00807 0.77470 0.56789
H28_4 H 0.01329 0.88622 0.59140
N5_2 N 0.0946(3) 0.7551(3) 0.3747(3)
C28_4 C 0.1362(4) 0.9914(3) 0.4697(3)
C29_4 C 0.1021(4) 0.9655(3) 0.4071(3)
C36_4 C 0.0988(4) 0.8933(3) 0.3950(3)
C37_4 C 0.0373(4) 0.8627(3) 0.3566(4)
C38_4 C 0.0380(4) 0.7957(3) 0.3465(3)
C39_4 C 0.1546(4) 0.7834(3) 0.4107(3)
C40_4 C 0.1590(4) 0.8507(3) 0.4222(3)
H19_2 H 0.15615 0.96193 0.50440
H20_4 H 0.04590 0.99013 0.31755
H25_4 H 0.19635 0.75600 0.42937
H26_4 H 0.20293 0.86838 0.44871
O9_4 O 0.8595(4) 0.1182(3) 0.3785(3)
O10_2 O 0.9813(4) 0.2193(3) 0.6274(3)
N4_2 N 0.9084(3) 0.5601(2) 0.4917(3)
C47_2 C 0.9527(5) 0.0097(4) 0.6032(4)
C48_2 C 0.9628(5) 0.0774(4) 0.6125(4)
C49_2 C 0.9440(4) 0.1240(4) 0.5588(4)
C50_2 C 0.9531(4) 0.1923(4) 0.5671(4)
C51_2 C 0.9287(4) 0.2344(3) 0.5139(3)
C52_2 C 0.9347(4) 0.3047(4) 0.5214(4)
C53_4 C 0.9088(4) 0.3472(4) 0.4708(4)
C54_4 C 0.8775(4) 0.3207(4) 0.4073(4)
C55_4 C 0.8714(4) 0.2530(4) 0.3972(4)
C56_4 C 0.8960(4) 0.2086(3) 0.4494(4)
C57_4 C 0.8892(4) 0.1390(4) 0.4405(3)
C58_4 C 0.9122(4) 0.0965(3) 0.4958(4)
C59_4 C 0.9040(4) 0.0266(3) 0.4885(5)
C60_4 C 0.9102(4) 0.4222(4) 0.4814(4)
C61_2 C 0.9595(4) 0.4544(3) 0.5282(4)
C62_2 C 0.9573(4) 0.5243(3) 0.5325(4)
C63_4 C 0.8587(4) 0.5273(3) 0.4473(4)
C64_4 C 0.8574(4) 0.4593(3) 0.4417(4)
H5_4 H 0.85305 0.07704 0.37957
H32_2 H 0.98288 0.09316 0.65609
H33_2 H 0.95767 0.32234 0.56304
H34_4 H 0.86058 0.34997 0.37122
H35_4 H 0.85035 0.23653 0.35426
H36_4 H 0.88340 0.00953 0.44570
H37_2 H 0.99505 0.42987 0.55770
H38_2 H 0.99157 0.54617 0.56520
H39_4 H 0.82288 0.55226 0.41852
H40_4 H 0.82036 0.43827 0.41061
O5_4 O 0.8370(3) 0.6651(2) 0.5802(2)
O6_4 O 0.7219(3) 0.6895(2) 0.5229(2)
N3_4 N 0.9141(3) 0.7741(3) 0.5025(3)
C9_4 C 0.7618(4) 0.6777(3) 0.5772(3)
C10_4 C 0.7175(4) 0.6755(4) 0.6479(3)
C11_4 C 0.6345(4) 0.6736(3) 0.6516(4)
C12_4 C 0.5957(4) 0.6688(4) 0.7156(4)
C13_4 C 0.6411(4) 0.6696(3) 0.7768(3)
C14_4 C 0.7259(5) 0.6734(5) 0.7735(4)
C15_4 C 0.7635(5) 0.6762(5) 0.7078(5)
C16_4 C 0.6026(3) 0.6642(3) 0.8487(3)
C41_4 C 0.9695(5) 0.8027(4) 0.5457(4)
C42_4 C 0.9738(5) 0.8695(4) 0.5596(4)
C43_4 C 0.9198(5) 0.9118(4) 0.5266(4)
C44_4 C 0.8617(4) 0.8836(4) 0.4828(4)
C45_4 C 0.8609(5) 0.8147(3) 0.4728(4)
C46_4 C 0.9238(5) 0.9846(4) 0.5387(4)
H7_4 H 0.60314 0.67555 0.60986
H8_4 H 0.98016 0.11550 0.23970
H9_4 H 0.53801 0.66506 0.71764
H11_4 H 0.75758 0.67423 0.81514
H12_4 H 0.82129 0.67855 0.70475
H15_4 H 0.99655 0.42504 0.27193
H29_4 H 0.82269 0.91069 0.45979
H30_4 H 0.82024 0.79627 0.44324
H31_4 H 0.96523 0.98013 0.64034
O10_3 O 0.5187(4) 0.2193(3) 0.1274(3)
C47_3 C 0.5473(5) 0.0097(4) 0.1032(4)
C48_3 C 0.5372(5) 0.0774(4) 0.1125(4)
C49_3 C 0.5560(4) 0.1240(4) 0.0588(4)
C50_3 C 0.5469(4) 0.1923(4) 0.0671(4)
C51_3 C 0.5713(4) 0.2344(3) 0.0139(3)
C52_3 C 0.5653(4) 0.3047(4) 0.0214(4)
C61_3 C 0.5405(4) 0.4544(3) 0.0282(4)
C62_3 C 0.5427(4) 0.5243(3) 0.0325(4)
H6_2 H 0.48809 0.19211 0.14775
H32_3 H 0.51712 0.09316 0.15609
H33_3 H 0.54233 0.32234 0.06304
H37_3 H 0.50495 0.42987 0.05770
H38_3 H 0.50843 0.54617 0.06520
H19_3 H 0.34385 0.96193 0.00440
H23_3 H 0.00559 0.11150 0.83735
H24_3 H 0.00350 0.22330 0.81822
O10_4 O 0.0187(4) 0.7807(3) 0.1274(3)
C47_4 C 0.0473(5) 0.9903(4) 0.1032(4)
C48_4 C 0.0372(5) 0.9226(4) 0.1125(4)
C49_4 C 0.0560(4) 0.8760(4) 0.0588(4)
C50_4 C 0.0469(4) 0.8077(4) 0.0671(4)
C51_4 C 0.0713(4) 0.7656(3) 0.0139(3)
C52_4 C 0.0653(4) 0.6953(4) 0.0214(4)
C61_4 C 0.0405(4) 0.5456(3) 0.0282(4)
C62_4 C 0.0427(4) 0.4757(3) 0.0325(4)
H32_4 H 0.01712 0.90684 0.15609
H33_4 H 0.04233 0.67766 0.06304
H37_4 H 0.00495 0.57013 0.05770
H38_4 H 0.00843 0.45383 0.06520
H19_4 H 0.84385 0.03807 0.00440
H6_3 H 0.98809 0.80789 0.14775
H6_4 H 0.01191 0.19211 0.64775
H23_4 H 0.99441 0.88850 0.33735
H24_4 H 0.99650 0.77670 0.31822
loop_
_geom_bond_atom_site_label_1
_geom_bond_atom_site_label_2
_geom_bond_site_symmetry_1
_geom_bond_site_symmetry_2
N2 C38 1_555 1_555
C29 C28 1_555 1_555
C36 C29 1_555 1_555
C37 C36 1_555 1_555
C38 C37 1_555 1_555
C39 N2 1_555 1_555
C40 C36 1_555 1_555
H19 C28 1_555 1_555
H23 C37 1_555 1_555
H24 C38 1_555 1_555
H25 C39 1_555 1_555
H26 C40 1_555 1_555
Zn5 N2 1_555 1_555
C39 C40 1_555 1_555
Zn1 O1 1_555 1_555
Zn5 O2 1_555 1_555
O1 C1 1_555 1_555
O2 C1 1_555 1_555
O3 C8 1_555 1_555
O4 C8 1_555 1_555
O5 Zn1 1_555 1_555
O6 C9 1_555 1_555
O7 C16 1_555 1_555
O8 C16 1_555 1_555
O11 C32 1_555 1_555
O12 C25 1_555 1_555
N1 Zn5 1_555 1_555
N3 Zn1 1_555 1_555
C1 C2 1_555 1_555
C2 C3 1_555 1_555
C3 C4 1_555 1_555
C4 C5 1_555 1_555
C5 C6 1_555 1_555
C6 C7 1_555 1_555
C7 C2 1_555 1_555
C8 C5 1_555 1_555
C9 O5 1_555 1_555
C10 C9 1_555 1_555
C11 C10 1_555 1_555
C12 C11 1_555 1_555
C13 C12 1_555 1_555
C14 C13 1_555 1_555
C15 C10 1_555 1_555
C16 C13 1_555 1_555
C17 N1 1_555 1_555
C18 C17 1_555 1_555
C19 C18 1_555 1_555
C20 C19 1_555 1_555
C21 N1 1_555 1_555
C22 C19 1_555 1_555
C23 C22 1_555 1_555
C24 C23 1_555 1_555
C25 C24 1_555 1_555
C26 C25 1_555 1_555
C27 C26 1_555 1_555
C31 C26 1_555 1_555
C32 C31 1_555 1_555
C33 C24 1_555 1_555
C34 C33 1_555 1_555
C35 C22 1_555 1_555
C41 N3 1_555 1_555
C42 C41 1_555 1_555
C43 C42 1_555 1_555
C44 C43 1_555 1_555
C45 N3 1_555 1_555
C46 C43 1_555 1_555
H1 C3 1_555 1_555
H2 C4 1_555 1_555
H3 C6 1_555 1_555
H4 C7 1_555 1_555
H7 C11 1_555 1_555
H8 O11 1_555 1_555
H9 C12 1_555 1_555
H10 O12 1_555 1_555
H11 C14 1_555 1_555
H12 C15 1_555 1_555
H13 C17 1_555 1_555
H14 C18 1_555 1_555
H15 C20 1_555 1_555
H16 C21 1_555 1_555
H17 C23 1_555 1_555
H18 C27 1_555 1_555
H21 C34 1_555 1_555
H22 C35 1_555 1_555
H27 C41 1_555 1_555
H28 C42 1_555 1_555
H29 C44 1_555 1_555
H30 C45 1_555 1_555
Zn4 O7 1_555 1_555
Zn7 O3 1_555 1_555
O13 Zn5 1_555 1_555
O14 Zn5 1_555 1_555
O15 Zn1 1_555 1_555
O16 Zn5 1_555 1_555
N6 Zn1 1_555 1_555
O4 Zn7 1_555 1_555
C14 C15 1_555 1_555
C20 C21 1_555 1_555
C30 C31 1_555 1_555
C32 C33 1_555 1_555
C34 C35 1_555 1_555
C44 C45 1_555 1_555
O9 C57 1_555 1_555
O10 C50 1_555 1_555
N6 C62 1_555 1_555
C48 C47 1_555 1_555
C49 C48 1_555 1_555
C50 C49 1_555 1_555
C51 C50 1_555 1_555
C52 C51 1_555 1_555
C53 C52 1_555 1_555
C54 C53 1_555 1_555
C55 C54 1_555 1_555
C56 C51 1_555 1_555
C57 C56 1_555 1_555
C58 C49 1_555 1_555
C60 C53 1_555 1_555
C61 C60 1_555 1_555
C62 C61 1_555 1_555
C63 N6 1_555 1_555
C64 C60 1_555 1_555
H5 O9 1_555 1_555
H6 O10 1_555 1_555
H32 C48 1_555 1_555
H33 C52 1_555 1_555
H34 C54 1_555 1_555
H35 C55 1_555 1_555
H36 C59 1_555 1_555
H37 C61 1_555 1_555
H38 C62 1_555 1_555
H39 C63 1_555 1_555
H40 C64 1_555 1_555
C55 C56 1_555 1_555
C57 C58 1_555 1_555
C58 C59 1_555 1_555
C63 C64 1_555 1_555
O6_2 C9_2 1_555 1_555
O15 C16_2 1_555 1_555
O16 C16_2 1_555 1_555
C9_2 O5_2 1_555 1_555
C10_2 C9_2 1_555 1_555
C11_2 C10_2 1_555 1_555
C12_2 C11_2 1_555 1_555
C13_2 C12_2 1_555 1_555
C14_2 C13_2 1_555 1_555
C15_2 C10_2 1_555 1_555
C16_2 C13_2 1_555 1_555
C41_2 N3_2 1_555 1_555
C42_2 C41_2 1_555 1_555
C43_2 C42_2 1_555 1_555
C46_2 C43_2 1_555 1_555
H7_2 C11_2 1_555 1_555
H9_2 C12_2 1_555 1_555
H11_2 C14_2 1_555 1_555
H12_2 C15_2 1_555 1_555
C14_2 C15_2 1_555 1_555
H29_2 C44_2 1_555 1_555
H30_2 C45_2 1_555 1_555
N6_2 Zn4 1_555 1_555
C44_2 C45_2 1_555 1_555
O9_2 C57_2 1_555 1_555
C54_2 C53_2 1_555 1_555
C55_2 C54_2 1_555 1_555
C57_2 C56_2 1_555 1_555
C60_2 C53_2 1_555 1_555
C63_2 N6_2 1_555 1_555
C64_2 C60_2 1_555 1_555
H5_2 O9_2 1_555 1_555
H34_2 C54_2 1_555 1_555
H35_2 C55_2 1_555 1_555
H36_2 C59_2 1_555 1_555
H39_2 C63_2 1_555 1_555
H40_2 C64_2 1_555 1_555
C55_2 C56_2 1_555 1_555
C57_2 C58_2 1_555 1_555
C58_2 C59_2 1_555 1_555
C63_2 C64_2 1_555 1_555
N2_2 C38_2 1_555 1_555
C29_2 C28_2 1_555 1_555
C36_2 C29_2 1_555 1_555
C37_2 C36_2 1_555 1_555
C38_2 C37_2 1_555 1_555
C39_2 N2_2 1_555 1_555
C40_2 C36_2 1_555 1_555
H25_2 C39_2 1_555 1_555
H26_2 C40_2 1_555 1_555
Zn7 N2_2 1_555 1_555
C39_2 C40_2 1_555 1_555
O1_2 C1_2 1_555 1_555
O13 C8_2 1_555 1_555
O14 C8_2 1_555 1_555
C1_2 C2_2 1_555 1_555
C2_2 C3_2 1_555 1_555
C3_2 C4_2 1_555 1_555
C4_2 C5_2 1_555 1_555
C5_2 C6_2 1_555 1_555
C6_2 C7_2 1_555 1_555
C7_2 C2_2 1_555 1_555
C8_2 C5_2 1_555 1_555
H1_2 C3_2 1_555 1_555
H2_2 C4_2 1_555 1_555
H3_2 C6_2 1_555 1_555
H4_2 C7_2 1_555 1_555
Zn7 O2_2 1_555 1_555
O11_2 C32_2 1_555 1_555
N1_2 Zn7 1_555 1_555
C17_2 N1_2 1_555 1_555
C18_2 C17_2 1_555 1_555
C19_2 C18_2 1_555 1_555
C20_2 C19_2 1_555 1_555
C21_2 N1_2 1_555 1_555
C22_2 C19_2 1_555 1_555
C23_2 C22_2 1_555 1_555
C24_2 C23_2 1_555 1_555
C25_2 C24_2 1_555 1_555
C26_2 C25_2 1_555 1_555
C27_2 C26_2 1_555 1_555
C31_2 C26_2 1_555 1_555
C32_2 C31_2 1_555 1_555
C33_2 C24_2 1_555 1_555
C34_2 C33_2 1_555 1_555
C35_2 C22_2 1_555 1_555
H13_2 C17_2 1_555 1_555
H14_2 C18_2 1_555 1_555
H16_2 C21_2 1_555 1_555
H17_2 C23_2 1_555 1_555
H21_2 C34_2 1_555 1_555
H22_2 C35_2 1_555 1_555
C20_2 C21_2 1_555 1_555
C30_2 C31_2 1_555 1_555
C32_2 C33_2 1_555 1_555
C34_2 C35_2 1_555 1_555
O9_3 C57_3 1_555 1_555
C54_3 C53_3 1_555 1_555
C55_3 C54_3 1_555 1_555
C57_3 C56_3 1_555 1_555
C60_3 C53_3 1_555 1_555
C63_3 N4 1_555 1_555
C64_3 C60_3 1_555 1_555
H5_3 O9_3 1_555 1_555
H34_3 C54_3 1_555 1_555
H35_3 C55_3 1_555 1_555
H36_3 C59_3 1_555 1_555
H39_3 C63_3 1_555 1_555
H40_3 C64_3 1_555 1_555
Zn3 N4 1_555 1_555
C55_3 C56_3 1_555 1_555
C57_3 C58_3 1_555 1_555
C58_3 C59_3 1_555 1_555
C63_3 C64_3 1_555 1_555
O1_3 C1_3 1_555 1_555
O3_2 C8_3 1_555 1_555
O4_2 C8_3 1_555 1_555
O6_3 C9_3 1_555 1_555
O7_2 C16_3 1_555 1_555
O8_2 C16_3 1_555 1_555
C1_3 C2_3 1_555 1_555
C2_3 C3_3 1_555 1_555
C3_3 C4_3 1_555 1_555
C4_3 C5_3 1_555 1_555
C5_3 C6_3 1_555 1_555
C6_3 C7_3 1_555 1_555
C7_3 C2_3 1_555 1_555
C8_3 C5_3 1_555 1_555
C9_3 O5_3 1_555 1_555
C10_3 C9_3 1_555 1_555
C11_3 C10_3 1_555 1_555
C12_3 C11_3 1_555 1_555
C13_3 C12_3 1_555 1_555
C14_3 C13_3 1_555 1_555
C15_3 C10_3 1_555 1_555
C16_3 C13_3 1_555 1_555
C41_3 N3_3 1_555 1_555
C42_3 C41_3 1_555 1_555
C43_3 C42_3 1_555 1_555
C46_3 C43_3 1_555 1_555
H1_3 C3_3 1_555 1_555
H2_3 C4_3 1_555 1_555
H3_3 C6_3 1_555 1_555
H4_3 C7_3 1_555 1_555
H7_3 C11_3 1_555 1_555
H9_3 C12_3 1_555 1_555
H11_3 C14_3 1_555 1_555
H12_3 C15_3 1_555 1_555
H27_3 C41_3 1_555 1_555
H28_3 C42_3 1_555 1_555
Zn4_2 O7_2 1_555 1_555
Zn6 O3_2 1_555 1_555
O4_2 Zn6 1_555 1_555
C14_3 C15_3 1_555 1_555
Zn2 O2_3 1_555 1_555
O11_3 C32_3 1_555 1_555
N1_3 Zn2 1_555 1_555
C17_3 N1_3 1_555 1_555
C18_3 C17_3 1_555 1_555
C19_3 C18_3 1_555 1_555
C20_3 C19_3 1_555 1_555
C21_3 N1_3 1_555 1_555
C22_3 C19_3 1_555 1_555
C23_3 C22_3 1_555 1_555
C24_3 C23_3 1_555 1_555
C25_3 C24_3 1_555 1_555
C26_3 C25_3 1_555 1_555
C27_3 C26_3 1_555 1_555
C31_3 C26_3 1_555 1_555
C32_3 C31_3 1_555 1_555
C33_3 C24_3 1_555 1_555
C34_3 C33_3 1_555 1_555
C35_3 C22_3 1_555 1_555
H8_3 O11_3 1_555 1_555
H13_3 C17_3 1_555 1_555
H14_3 C18_3 1_555 1_555
H15_3 C20_3 1_555 1_555
H16_3 C21_3 1_555 1_555
H17_3 C23_3 1_555 1_555
H21_3 C34_3 1_555 1_555
H22_3 C35_3 1_555 1_555
H29_3 C44_3 1_555 1_555
H30_3 C45_3 1_555 1_555
O13_2 Zn2 1_555 1_555
O14_2 Zn2 1_555 1_555
O15_2 Zn3 1_555 1_555
O16_2 Zn2 1_555 1_555
N5 Zn2 1_555 1_555
C20_3 C21_3 1_555 1_555
C30_3 C31_3 1_555 1_555
C32_3 C33_3 1_555 1_555
C34_3 C35_3 1_555 1_555
C44_3 C45_3 1_555 1_555
N5 C38_3 1_555 1_555
C29_3 C28_3 1_555 1_555
C36_3 C29_3 1_555 1_555
C37_3 C36_3 1_555 1_555
C38_3 C37_3 1_555 1_555
C39_3 N5 1_555 1_555
C40_3 C36_3 1_555 1_555
H23_2 C37_3 1_555 1_555
H24_2 C38_3 1_555 1_555
H25_3 C39_3 1_555 1_555
H26_3 C40_3 1_555 1_555
C39_3 C40_3 1_555 1_555
Zn6 O2_4 1_555 1_555
O1_4 C1_4 1_555 1_555
O2_4 C1_4 1_555 1_555
O13_2 C8_4 1_555 1_555
O14_2 C8_4 1_555 1_555
O11_4 C32_4 1_555 1_555
O12_4 C25_4 1_555 1_555
N1_4 Zn6 1_555 1_555
C1_4 C2_4 1_555 1_555
C2_4 C3_4 1_555 1_555
C3_4 C4_4 1_555 1_555
C4_4 C5_4 1_555 1_555
C5_4 C6_4 1_555 1_555
C6_4 C7_4 1_555 1_555
C7_4 C2_4 1_555 1_555
C8_4 C5_4 1_555 1_555
C17_4 N1_4 1_555 1_555
C18_4 C17_4 1_555 1_555
C19_4 C18_4 1_555 1_555
C20_4 C19_4 1_555 1_555
C21_4 N1_4 1_555 1_555
C22_4 C19_4 1_555 1_555
C23_4 C22_4 1_555 1_555
C24_4 C23_4 1_555 1_555
C25_4 C24_4 1_555 1_555
C26_4 C25_4 1_555 1_555
C27_4 C26_4 1_555 1_555
C31_4 C26_4 1_555 1_555
C32_4 C31_4 1_555 1_555
C33_4 C24_4 1_555 1_555
C34_4 C33_4 1_555 1_555
C35_4 C22_4 1_555 1_555
H1_4 C3_4 1_555 1_555
H2_4 C4_4 1_555 1_555
H3_4 C6_4 1_555 1_555
H4_4 C7_4 1_555 1_555
H10_4 O12_4 1_555 1_555
H13_4 C17_4 1_555 1_555
H14_4 C18_4 1_555 1_555
H16_4 C21_4 1_555 1_555
H17_4 C23_4 1_555 1_555
H18_4 C27_4 1_555 1_555
H21_4 C34_4 1_555 1_555
H22_4 C35_4 1_555 1_555
N5_2 Zn6 1_555 1_555
C20_4 C21_4 1_555 1_555
C30_4 C31_4 1_555 1_555
C32_4 C33_4 1_555 1_555
C34_4 C35_4 1_555 1_555
N5_2 C38_4 1_555 1_555
C29_4 C28_4 1_555 1_555
C36_4 C29_4 1_555 1_555
C37_4 C36_4 1_555 1_555
C38_4 C37_4 1_555 1_555
C39_4 N5_2 1_555 1_555
C40_4 C36_4 1_555 1_555
H19_2 C28_4 1_555 1_555
H25_4 C39_4 1_555 1_555
H26_4 C40_4 1_555 1_555
C39_4 C40_4 1_555 1_555
O9_4 C57_4 1_555 1_555
O10_2 C50_2 1_555 1_555
N4_2 C62_2 1_555 1_555
C48_2 C47_2 1_555 1_555
C49_2 C48_2 1_555 1_555
C50_2 C49_2 1_555 1_555
C51_2 C50_2 1_555 1_555
C52_2 C51_2 1_555 1_555
C53_4 C52_2 1_555 1_555
C54_4 C53_4 1_555 1_555
C55_4 C54_4 1_555 1_555
C56_4 C51_2 1_555 1_555
C57_4 C56_4 1_555 1_555
C58_4 C49_2 1_555 1_555
C60_4 C53_4 1_555 1_555
C61_2 C60_4 1_555 1_555
C62_2 C61_2 1_555 1_555
C63_4 N4_2 1_555 1_555
C64_4 C60_4 1_555 1_555
H5_4 O9_4 1_555 1_555
H32_2 C48_2 1_555 1_555
H33_2 C52_2 1_555 1_555
H34_4 C54_4 1_555 1_555
H35_4 C55_4 1_555 1_555
H36_4 C59_4 1_555 1_555
H37_2 C61_2 1_555 1_555
H38_2 C62_2 1_555 1_555
H39_4 C63_4 1_555 1_555
H40_4 C64_4 1_555 1_555
Zn4_2 N4_2 1_555 1_555
C55_4 C56_4 1_555 1_555
C57_4 C58_4 1_555 1_555
C58_4 C59_4 1_555 1_555
C63_4 C64_4 1_555 1_555
O5_4 Zn4_2 1_555 1_555
O6_4 C9_4 1_555 1_555
O15_2 C16_4 1_555 1_555
O16_2 C16_4 1_555 1_555
N3_4 Zn4_2 1_555 1_555
C9_4 O5_4 1_555 1_555
C10_4 C9_4 1_555 1_555
C11_4 C10_4 1_555 1_555
C12_4 C11_4 1_555 1_555
C13_4 C12_4 1_555 1_555
C14_4 C13_4 1_555 1_555
C15_4 C10_4 1_555 1_555
C16_4 C13_4 1_555 1_555
C41_4 N3_4 1_555 1_555
C42_4 C41_4 1_555 1_555
C43_4 C42_4 1_555 1_555
C44_4 C43_4 1_555 1_555
C45_4 N3_4 1_555 1_555
C46_4 C43_4 1_555 1_555
H7_4 C11_4 1_555 1_555
H9_4 C12_4 1_555 1_555
H11_4 C14_4 1_555 1_555
H12_4 C15_4 1_555 1_555
H29_4 C44_4 1_555 1_555
H30_4 C45_4 1_555 1_555
C14_4 C15_4 1_555 1_555
C44_4 C45_4 1_555 1_555
O10_3 C50_3 1_555 1_555
C48_3 C47_3 1_555 1_555
C49_3 C48_3 1_555 1_555
C50_3 C49_3 1_555 1_555
C51_3 C50_3 1_555 1_555
C52_3 C51_3 1_555 1_555
C62_3 C61_3 1_555 1_555
H6_2 O10_3 1_555 1_555
H32_3 C48_3 1_555 1_555
H33_3 C52_3 1_555 1_555
H37_3 C61_3 1_555 1_555
H38_3 C62_3 1_555 1_555
O10_4 C50_4 1_555 1_555
C48_4 C47_4 1_555 1_555
C49_4 C48_4 1_555 1_555
C50_4 C49_4 1_555 1_555
C51_4 C50_4 1_555 1_555
C52_4 C51_4 1_555 1_555
C62_4 C61_4 1_555 1_555
H32_4 C48_4 1_555 1_555
H33_4 C52_4 1_555 1_555
H37_4 C61_4 1_555 1_555
H38_4 C62_4 1_555 1_555

#END
