
###############################################################################
#
# This file contains modified crystal structure data generated from the
# MOF subset of the Cambridge Structural Database (CSD) v543 
# hosted by the Cambridge Crystallographic Data Centre (CCDC).
#
# This work is licensed under the Creative Commons
# Attribution-NonCommercial-ShareAlike 4.0 International License.
# To view a copy of this license, visit
# http://creativecommons.org/licenses/by-nc-sa/4.0/
# or send a letter to
# Creative Commons, PO Box 1866, Mountain View, CA 94042, USA.
#
# CIF created using the CSD Python API on 29 September 2022
# The structure has been converted into the P1 space group
# The structure has a 3D framework
# The original CSD entry EPECIN is in the monoclinic crystal system
# The framework has been calculated to contain at least 10.0% void space
# The void calculation uses a probe of radius 1.32A, grid spacing 0.4
#
###############################################################################

data_EPECIN
_chemical_formula_moiety         '(C288 H200 N8 O60 Zn16)n'
_symmetry_cell_setting           triclinic
_symmetry_space_group_name_H-M   'P 1'
_symmetry_Int_Tables_number      1
_space_group_name_Hall           'P 1'
loop_
_symmetry_equiv_pos_site_id
_symmetry_equiv_pos_as_xyz
1 x,y,z
_cell_length_a                   19.556(5)
_cell_length_b                   16.330(5)
_cell_length_c                   25.573(5)
_cell_angle_alpha                90
_cell_angle_beta                 91.097(5)
_cell_angle_gamma                90
_cell_volume                     8165.23
loop_
_atom_site_label
_atom_site_type_symbol
_atom_site_fract_x
_atom_site_fract_y
_atom_site_fract_z
C1 C 0.3700(9) 0.3891(12) 0.2191(6)
C3 C 0.4584(9) 0.5996(12) 0.0259(7)
C4 C 0.1238(8) 0.0647(11) 0.2334(7)
C5 C 0.2758(8) 0.2374(13) 0.3544(7)
C6 C 0.6111(9) 0.5850(12) 0.2631(7)
C7 C 0.4759(8) 0.4611(10) 0.1860(6)
C8 C 0.4277(8) 0.4500(10) 0.2238(6)
C10 C 0.5350(9) 0.3780(12) 0.1244(7)
C12 C 0.0685(8) 0.0062(11) 0.2465(6)
C14 C 0.5831(9) 0.5100(11) 0.1506(6)
H2 H 0.6266 0.5404 0.1580
C16 C 0.3157(8) 0.3105(11) 0.4376(6)
C17 C 0.2846(8) 0.2568(10) 0.5221(6)
C18 C 0.5371(9) 0.5071(11) 0.1982(7)
C19 C 0.2497(9) 0.1940(12) 0.4964(7)
H3 H 0.2252 0.1551 0.5163
C22 C 0.5487(9) 0.3814(12) 0.4966(7)
H5 H 0.5905 0.3826 0.5162
C24 C 0.3192(8) 0.4657(11) 0.4850(7)
C25 C 0.4370(9) 0.4884(11) 0.2731(7)
H7 H 0.4031 0.4835 0.2990
C26 C 0.5960(8) 0.4192(11) 0.1370(7)
H8 H 0.1997 0.0143 0.3901
C28 C 0.2819(7) 0.2466(10) 0.4125(6)
C29 C 0.3165(8) 0.3150(11) 0.4920(7)
C30 C 0.4861(9) 0.3861(11) 0.5229(8)
H9 H 0.4851 0.3898 0.5599
C31 C 0.1373(9) 0.0033(11) 0.4532(7)
H10 H 0.1639 0.0364 0.4764
C32 C 0.3553(8) 0.3812(11) 0.4128(7)
H11 H 0.3569 0.3774 0.3738
C33 C 0.4820(8) 0.5043(11) 0.0947(6)
C34 C 0.2499(8) 0.1870(11) 0.4428(6)
H12 H 0.2282 0.1415 0.4262
C35 C 0.4890(8) 0.3788(11) 0.4140(7)
H13 H 0.4897 0.3807 0.3769
C36 C 0.3534(8) 0.3922(11) 0.5128(7)
H14 H 0.3522 0.3968 0.5518
C37 C 0.2898(8) 0.5294(10) 0.5094(6)
H15 H 0.2888 0.5321 0.5464
C39 C 0.6591(9) 0.3827(11) 0.1335(6)
H16 H 0.7001 0.4126 0.1400
C40 C 0.5150(9) 0.6399(13) 0.0377(7)
H17 H 0.5258 0.6878 0.0184
C41 C 0.5367(9) 0.2954(12) 0.1109(7)
H18 H 0.4960 0.2659 0.1027
C43 C 0.0060(9) 0.0160(12) 0.2198(7)
H20 H 0.0021 0.0547 0.1922
C44 C 0.5457(9) 0.5393(11) 0.2468(7)
C46 C 0.2841(9) 0.2574(11) 0.5803(6)
C48 C 0.2652(9) 0.5877(12) 0.4256(7)
H23 H 0.2475 0.6310 0.4046
C50 C 0.4945(8) 0.5320(11) 0.2831(6)
H25 H 0.5000 0.5585 0.3160
C52 C 0.5605(10) 0.6135(12) 0.0786(7)
H27 H 0.6026 0.6407 0.0858
C53 C 0.4399(9) 0.5292(12) 0.0535(7)
H28 H 0.3997 0.4994 0.0442
C54 C 0.2611(9) 0.5913(12) 0.4785(7)
H29 H 0.2386 0.6361 0.4945
C55 C 0.4712(8) 0.4311(10) 0.1292(6)
H30 H 0.4278 0.4010 0.1209
C56 C 0.5999(9) 0.2582(13) 0.1100(7)
H31 H 0.6023 0.2014 0.1021
C58 C 0.5502(9) 0.3751(11) 0.4431(7)
H33 H 0.5925 0.3683 0.4260
C59 C 0.2953(9) 0.5204(11) 0.4025(7)
H34 H 0.2971 0.5179 0.3654
C60 C 0.4277(9) 0.3797(12) 0.4398(7)
C62 C 0.3224(8) 0.4577(11) 0.4313(7)
C63 C 0.4254(9) 0.3851(11) 0.4927(7)
C64 C 0.5410(9) 0.5493(11) 0.1058(7)
C66 C 0.6605(10) 0.3006(12) 0.1201(7)
H36 H 0.7031 0.2730 0.1179
O1 O 0.3854(5) 0.3273(8) 0.1941(4)
O2 O 0.3150(5) 0.4043(8) 0.2408(4)
O3 O 0.6648(6) 0.5685(7) 0.2421(4)
O4 O 0.2699(6) 0.1675(8) 0.3357(4)
O5 O 0.2734(6) 0.3034(8) 0.3292(5)
O7 O 0.3393(5) 0.2816(8) 0.6028(4)
O8 O 0.2487(5) 0.2229(7) 0.2141(4)
O9 O 0.1124(6) 0.1221(7) 0.2022(4)
O10 O 0.1806(5) 0.0549(7) 0.2583(4)
O11 O 0.2343(6) 0.2287(8) 0.6038(5)
O12 O 0.6017(5) 0.6396(7) 0.2962(4)
Zn1 Zn 0.33330(9) 0.22427(13) 0.17748(7)
Zn2 Zn 0.25114(9) 0.13561(14) 0.26296(7)
Zn3 Zn 0.17105(9) 0.20892(15) 0.16223(7)
Zn4 Zn 0.24348(9) 0.32172(14) 0.25520(7)
O14 O 0.2251(6) 0.0980(8) 0.1358(4)
C67 C 0.1918(9) 0.0355(12) 0.1253(7)
H37 H 0.1493 0.0431 0.1073
O15 O 0.0993(6) 0.1928(7) 0.1029(4)
C70 C 0.0963(8) 0.2360(11) 0.0638(6)
H44 H 0.1288 0.2788 0.0605
N2 N 0.0492(7) 0.2257(10) 0.0252(6)
H47 H 0.0161 0.1107 0.0328
O16 O 0.3352(6) 0.0685(7) 0.2579(4)
O17 O 0.1626(5) 0.3908(7) 0.2443(4)
O18 O 0.3393(5) 0.2184(8) 0.1028(4)
O19 O 0.2343(6) 0.2713(8) 0.1038(5)
O20 O 0.3983(5) 0.1396(7) 0.2038(4)
O21 O 0.1119(5) 0.3070(7) 0.1865(4)
Zn5 Zn 0.66670(9) 0.72427(13) 0.32252(7)
Zn6 Zn 0.33330(9) 0.27573(13) 0.67748(7)
Zn7 Zn 0.74886(9) 0.63561(14) 0.23704(7)
Zn9 Zn 0.17105(9) 0.29108(15) 0.66223(7)
C15 C 0.9527(8) 0.9110(10) 0.2723(6)
H4 H 0.9842 0.8196 0.3616
C45 C 0.9494(9) 0.9693(11) 0.2336(7)
H21 H 0.9070 0.9781 0.2156
H24 H 0.9990 0.8936 0.4491
C61 C 0.8878(8) 0.8653(11) 0.2819(7)
O6 O 0.8374(5) 0.8908(7) 0.2557(4)
O13 O 0.8881(5) 0.8070(7) 0.3135(4)
Zn8 Zn 0.82895(9) 0.70892(15) 0.33777(7)
Zn10 Zn 0.75652(9) 0.82172(14) 0.24480(7)
C15_2 C 0.0473(8) 0.4110(10) 0.2277(6)
H4_2 H 0.0158 0.3196 0.1384
C45_2 C 0.0506(9) 0.4693(11) 0.2664(7)
H21_2 H 0.0930 0.4781 0.2844
H24_2 H 0.0010 0.3936 0.0509
C61_2 C 0.1122(8) 0.3653(11) 0.2181(7)
C71 C 0.0043(10) 0.6653(13) 0.4710(8)
H45 H 0.0332 0.6669 0.5027
H46 H 0.0322 0.6771 0.4405
C3_2 C 0.5416(9) 0.0996(12) 0.4741(7)
H1 H 0.5704 0.1187 0.5018
C6_2 C 0.3889(9) 0.0850(12) 0.2369(7)
C14_2 C 0.4169(9) 0.0100(11) 0.3494(6)
H2_2 H 0.3734 0.0404 0.3420
C18_2 C 0.4629(9) 0.0071(11) 0.3018(7)
C33_2 C 0.5180(8) 0.0043(11) 0.4053(6)
C40_2 C 0.4850(9) 0.1399(13) 0.4623(7)
H17_2 H 0.4742 0.1878 0.4816
C44_2 C 0.4543(9) 0.0393(11) 0.2532(7)
C48_2 C 0.7348(9) 0.0877(12) 0.0744(7)
H23_2 H 0.7525 0.1310 0.0954
C50_2 C 0.5055(8) 0.0320(11) 0.2169(6)
H25_2 H 0.5000 0.0585 0.1840
C52_2 C 0.4395(10) 0.1135(12) 0.4214(7)
H27_2 H 0.3974 0.1407 0.4142
C53_2 C 0.5601(9) 0.0292(12) 0.4465(7)
C54_2 C 0.7389(9) 0.0913(12) 0.0215(7)
H29_2 H 0.7614 0.1361 0.0055
C59_2 C 0.7047(9) 0.0204(11) 0.0975(7)
H34_2 H 0.7029 0.0179 0.1346
C64_2 C 0.4590(9) 0.0493(11) 0.3942(7)
C1_2 C 0.6300(9) 0.8891(12) 0.2809(6)
C2 C 0.8768(8) 0.4366(11) 0.1294(7)
C4_2 C 0.8762(8) 0.5647(11) 0.2666(7)
C5_2 C 0.7242(8) 0.7374(13) 0.1456(7)
C7_2 C 0.5241(8) 0.9611(10) 0.3140(6)
C8_2 C 0.5723(8) 0.9500(10) 0.2762(6)
C9 C 0.8606(8) 0.3229(11) 0.1878(6)
C10_2 C 0.4650(9) 0.8780(12) 0.3756(7)
C11 C 0.9860(8) 0.4002(11) 0.2014(6)
C12_2 C 0.9315(8) 0.5062(11) 0.2535(6)
C13 C 0.9266(8) 0.4415(10) 0.2165(6)
C16_2 C 0.6843(8) 0.8105(11) 0.0624(6)
C19_2 C 0.7503(9) 0.6940(12) 0.0036(7)
C20 C 0.9394(9) 0.4040(11) 0.1131(6)
C21 C 0.9734(9) 0.3460(11) 0.1518(6)
C22_2 C 0.4513(9) 0.8814(12) 0.0034(7)
C23 C 0.8629(8) 0.4151(10) 0.1860(6)
H6 H 0.8203 0.4412 0.1992
C24_2 C 0.6808(8) 0.9657(11) 0.0150(7)
C25_2 C 0.5630(9) 0.9884(11) 0.2269(7)
H7_2 H 0.5969 0.9835 0.2010
C26_2 C 0.4040(8) 0.9192(11) 0.3630(7)
C27 C 0.8404(8) 0.4885(11) 0.0976(6)
H8_2 H 0.8003 0.5143 0.1099
C28_2 C 0.7181(7) 0.7466(10) 0.0875(6)
C29_2 C 0.6835(8) 0.8150(11) 0.0080(7)
C31_2 C 0.8627(9) 0.5033(11) 0.0468(7)
H10_2 H 0.8361 0.5364 0.0236
C32_2 C 0.6447(8) 0.8812(11) 0.0872(7)
H11_2 H 0.6431 0.8774 0.1262
C34_2 C 0.7501(8) 0.6870(11) 0.0572(6)
H12_2 H 0.7718 0.6415 0.0738
C35_2 C 0.5110(8) 0.8788(11) 0.0860(7)
H13_2 H 0.5103 0.8807 0.1231
C38 C 0.9191(9) 0.2850(11) 0.1686(7)
C39_2 C 0.3409(9) 0.8827(11) 0.3665(6)
H16_2 H 0.2999 0.9126 0.3600
C41_2 C 0.4633(9) 0.7954(12) 0.3891(7)
H18_2 H 0.5040 0.7659 0.3973
C42 C 0.8087(9) 0.1937(12) 0.2012(7)
H19 H 0.7711 0.1619 0.2127
C43_2 C 0.9940(9) 0.5160(12) 0.2802(7)
H20_2 H 0.9979 0.5547 0.3078
C47 C 0.8065(9) 0.2747(12) 0.2049(7)
H22 H 0.7675 0.3003 0.2193
C49 C 0.9606(9) 0.4184(12) 0.0636(7)
C51 C 0.9204(9) 0.4716(12) 0.0312(7)
H28_2 H 0.6003 0.9994 0.4558
C55_2 C 0.5288(8) 0.9311(10) 0.3708(6)
H30_2 H 0.5722 0.9010 0.3791
C56_2 C 0.4001(9) 0.7582(13) 0.3900(7)
H31_2 H 0.3977 0.7014 0.3979
C57 C 0.9217(9) 0.2024(11) 0.1640(6)
H32 H 0.9607 0.1769 0.1496
C58_2 C 0.4498(9) 0.8751(11) 0.0569(7)
H33_2 H 0.4075 0.8683 0.0740
C60_2 C 0.5723(9) 0.8797(12) 0.0602(7)
C62_2 C 0.6776(8) 0.9577(11) 0.0687(7)
C63_2 C 0.5746(9) 0.8851(11) 0.0073(7)
C65 C 0.8666(9) 0.1545(13) 0.1804(7)
H35 H 0.8681 0.0965 0.1776
C66_2 C 0.3395(10) 0.8006(12) 0.3799(7)
H36_2 H 0.2969 0.7730 0.3821
O1_2 O 0.6146(5) 0.8273(8) 0.3059(4)
O2_2 O 0.6850(5) 0.9043(8) 0.2592(4)
O4_2 O 0.7301(6) 0.6675(8) 0.1643(4)
O5_2 O 0.7266(6) 0.8034(8) 0.1708(5)
O8_2 O 0.7513(5) 0.7229(7) 0.2859(4)
O9_2 O 0.8876(6) 0.6221(7) 0.2978(4)
O10_2 O 0.8194(5) 0.5549(7) 0.2417(4)
O14_2 O 0.7749(6) 0.5980(8) 0.3642(4)
C67_2 C 0.8082(9) 0.5355(12) 0.3747(7)
H37_2 H 0.8507 0.5431 0.3927
N1 N 0.7909(8) 0.4603(10) 0.3637(6)
C68 C 0.7252(11) 0.4455(14) 0.3366(9)
H38 H 0.7199 0.3868 0.3297
H39 H 0.7239 0.4755 0.3033
H40 H 0.6878 0.4644 0.3585
C69 C 0.8325(13) 0.3917(15) 0.3762(10)
H41 H 0.8105 0.3418 0.3629
H42 H 0.8384 0.3878 0.4143
H43 H 0.8772 0.3982 0.3601
O15_2 O 0.9007(6) 0.6928(7) 0.3971(4)
C70_2 C 0.9037(8) 0.7360(11) 0.4362(6)
H44_2 H 0.8712 0.7788 0.4395
N2_2 N 0.9508(7) 0.7257(10) 0.4748(6)
H47_2 H 0.9839 0.6107 0.4672
C72 C 0.9519(10) 0.7839(13) 0.5203(7)
H48 H 0.9883 0.7680 0.5451
H49 H 0.9077 0.7821 0.5378
H50 H 0.9603 0.8397 0.5078
O18_2 O 0.6607(5) 0.7184(8) 0.3972(4)
O19_2 O 0.7657(6) 0.7713(8) 0.3962(5)
C17_2 C 0.7154(8) 0.7568(10) 0.9779(6)
H3_2 H 0.7748 0.6551 0.9837
H5_2 H 0.4095 0.8826 0.9838
C30_2 C 0.5139(9) 0.8861(11) 0.9771(8)
H9_2 H 0.5149 0.8898 0.9401
C36_2 C 0.6466(8) 0.8922(11) 0.9872(7)
H14_2 H 0.6478 0.8968 0.9482
C46_2 C 0.7159(9) 0.7574(11) 0.9197(6)
H26 H 0.9360 0.4844 0.9972
O7_2 O 0.6607(5) 0.7816(8) 0.8972(4)
O11_2 O 0.7657(6) 0.7287(8) 0.8962(5)
Zn6_2 Zn 0.66670(9) 0.77573(13) 0.82252(7)
Zn9_2 Zn 0.82895(9) 0.79108(15) 0.83777(7)
C15_3 C 0.0473(8) 0.0890(10) 0.7277(6)
H4_3 H 0.0158 0.1804 0.6384
C45_3 C 0.0506(9) 0.0307(11) 0.7664(7)
H21_3 H 0.0930 0.0219 0.7844
H24_3 H 0.0010 0.1064 0.5509
C61_3 C 0.1122(8) 0.1347(11) 0.7181(7)
O6_2 O 0.1626(5) 0.1092(7) 0.7443(4)
O13_2 O 0.1119(5) 0.1930(7) 0.6865(4)
Zn10_2 Zn 0.24348(9) 0.17828(14) 0.75520(7)
C1_3 C 0.6300(9) 0.6109(12) 0.7809(6)
C3_3 C 0.5416(9) 0.4004(12) 0.9741(7)
C4_3 C 0.8762(8) 0.9353(11) 0.7666(7)
C5_3 C 0.7242(8) 0.7626(13) 0.6456(7)
C6_3 C 0.3889(9) 0.4150(12) 0.7369(7)
C7_3 C 0.5241(8) 0.5389(10) 0.8140(6)
C8_3 C 0.5723(8) 0.5500(10) 0.7762(6)
C10_3 C 0.4650(9) 0.6220(12) 0.8756(7)
C12_3 C 0.9315(8) 0.9938(11) 0.7535(6)
C14_3 C 0.4169(9) 0.4900(11) 0.8494(6)
H2_3 H 0.3734 0.4596 0.8420
C16_3 C 0.6843(8) 0.6895(11) 0.5624(6)
C17_3 C 0.7154(8) 0.7432(10) 0.4779(6)
C18_3 C 0.4629(9) 0.4929(11) 0.8018(7)
C19_3 C 0.7503(9) 0.8060(12) 0.5036(7)
H3_3 H 0.7748 0.8449 0.4837
C22_3 C 0.4513(9) 0.6186(12) 0.5034(7)
H5_3 H 0.4095 0.6174 0.4838
C24_3 C 0.6808(8) 0.5343(11) 0.5150(7)
C25_3 C 0.5630(9) 0.5116(11) 0.7269(7)
H7_3 H 0.5969 0.5165 0.7010
C26_3 C 0.4040(8) 0.5808(11) 0.8630(7)
H8_3 H 0.8003 0.9857 0.6099
C28_3 C 0.7181(7) 0.7534(10) 0.5875(6)
C29_3 C 0.6835(8) 0.6850(11) 0.5080(7)
C30_3 C 0.5139(9) 0.6139(11) 0.4771(8)
H9_3 H 0.5149 0.6102 0.4401
C31_3 C 0.8627(9) 0.9967(11) 0.5468(7)
H10_3 H 0.8361 0.9636 0.5236
C32_3 C 0.6447(8) 0.6188(11) 0.5872(7)
H11_3 H 0.6431 0.6226 0.6262
C33_3 C 0.5180(8) 0.4957(11) 0.9053(6)
C34_3 C 0.7501(8) 0.8130(11) 0.5572(6)
H12_3 H 0.7718 0.8585 0.5738
C35_3 C 0.5110(8) 0.6212(11) 0.5860(7)
H13_3 H 0.5103 0.6193 0.6231
C36_3 C 0.6466(8) 0.6078(11) 0.4872(7)
H14_3 H 0.6478 0.6032 0.4482
C37_2 C 0.7102(8) 0.4706(10) 0.4906(6)
H15_2 H 0.7112 0.4679 0.4536
C39_3 C 0.3409(9) 0.6173(11) 0.8665(6)
H16_3 H 0.2999 0.5874 0.8600
C40_3 C 0.4850(9) 0.3601(13) 0.9623(7)
H17_3 H 0.4742 0.3122 0.9816
C41_3 C 0.4633(9) 0.7046(12) 0.8891(7)
H18_3 H 0.5040 0.7341 0.8973
C43_3 C 0.9940(9) 0.9840(12) 0.7802(7)
H20_3 H 0.9979 0.9453 0.8078
C44_3 C 0.4543(9) 0.4607(11) 0.7532(7)
C46_3 C 0.7159(9) 0.7426(11) 0.4197(6)
C48_3 C 0.7348(9) 0.4123(12) 0.5744(7)
H23_3 H 0.7525 0.3690 0.5954
C50_3 C 0.5055(8) 0.4680(11) 0.7169(6)
H25_3 H 0.5000 0.4415 0.6840
C52_3 C 0.4395(10) 0.3865(12) 0.9214(7)
H27_3 H 0.3974 0.3593 0.9142
C53_3 C 0.5601(9) 0.4708(12) 0.9465(7)
H28_3 H 0.6003 0.5006 0.9558
C54_3 C 0.7389(9) 0.4087(12) 0.5215(7)
H29_3 H 0.7614 0.3639 0.5055
C55_3 C 0.5288(8) 0.5689(10) 0.8708(6)
H30_3 H 0.5722 0.5990 0.8791
C56_3 C 0.4001(9) 0.7418(13) 0.8900(7)
H31_3 H 0.3977 0.7986 0.8979
C58_3 C 0.4498(9) 0.6249(11) 0.5569(7)
H33_3 H 0.4075 0.6317 0.5740
C59_3 C 0.7047(9) 0.4796(11) 0.5975(7)
H34_3 H 0.7029 0.4821 0.6346
C60_3 C 0.5723(9) 0.6203(12) 0.5602(7)
C62_3 C 0.6776(8) 0.5423(11) 0.5687(7)
C63_3 C 0.5746(9) 0.6149(11) 0.5073(7)
C64_3 C 0.4590(9) 0.4507(11) 0.8942(7)
C66_3 C 0.3395(10) 0.6994(12) 0.8799(7)
H36_3 H 0.2969 0.7270 0.8821
O1_3 O 0.6146(5) 0.6727(8) 0.8059(4)
O2_3 O 0.6850(5) 0.5957(8) 0.7592(4)
O3_2 O 0.3352(6) 0.4315(7) 0.7579(4)
O4_3 O 0.7301(6) 0.8325(8) 0.6643(4)
O5_3 O 0.7266(6) 0.6966(8) 0.6708(5)
O8_3 O 0.7513(5) 0.7771(7) 0.7859(4)
O9_3 O 0.8876(6) 0.8779(7) 0.7978(4)
O10_3 O 0.8194(5) 0.9451(7) 0.7417(4)
O12_2 O 0.3983(5) 0.3604(7) 0.7038(4)
Zn2_2 Zn 0.74886(9) 0.86439(14) 0.73704(7)
Zn4_2 Zn 0.75652(9) 0.67828(14) 0.74480(7)
O14_3 O 0.7749(6) 0.9020(8) 0.8642(4)
C67_3 C 0.8082(9) 0.9645(12) 0.8747(7)
H37_3 H 0.8507 0.9569 0.8927
O15_3 O 0.9007(6) 0.8072(7) 0.8971(4)
C70_3 C 0.9037(8) 0.7640(11) 0.9362(6)
H44_3 H 0.8712 0.7212 0.9395
N2_3 N 0.9508(7) 0.7743(10) 0.9748(6)
H47_3 H 0.9839 0.8893 0.9672
O16_2 O 0.6648(6) 0.9315(7) 0.7421(4)
O17_2 O 0.8374(5) 0.6092(7) 0.7557(4)
O20_2 O 0.6017(5) 0.8604(7) 0.7962(4)
O21_2 O 0.8881(5) 0.6930(7) 0.8135(4)
Zn7_2 Zn 0.25114(9) 0.36439(14) 0.76296(7)
C17_4 C 0.2846(8) 0.2432(10) 0.0221(6)
H3_4 H 0.2252 0.3449 0.0163
H5_4 H 0.5905 0.1174 0.0162
C30_4 C 0.4861(9) 0.1139(11) 0.0229(8)
H9_4 H 0.4851 0.1102 0.0599
C36_4 C 0.3534(8) 0.1078(11) 0.0128(7)
H14_4 H 0.3522 0.1032 0.0518
C46_4 C 0.2841(9) 0.2426(11) 0.0803(6)
H26_2 H 0.0640 0.5156 0.0028
C1_4 C 0.3700(9) 0.1109(12) 0.7191(6)
C2_2 C 0.1232(8) 0.5634(11) 0.8706(7)
C4_4 C 0.1238(8) 0.4353(11) 0.7334(7)
C5_4 C 0.2758(8) 0.2626(13) 0.8544(7)
C7_4 C 0.4759(8) 0.0389(10) 0.6860(6)
C8_4 C 0.4277(8) 0.0500(10) 0.7238(6)
C9_2 C 0.1394(8) 0.6771(11) 0.8122(6)
C10_4 C 0.5350(9) 0.1220(12) 0.6244(7)
C11_2 C 0.0140(8) 0.5998(11) 0.7986(6)
C12_4 C 0.0685(8) 0.4938(11) 0.7465(6)
C13_2 C 0.0734(8) 0.5585(10) 0.7835(6)
C16_4 C 0.3157(8) 0.1895(11) 0.9376(6)
C19_4 C 0.2497(9) 0.3060(12) 0.9964(7)
C20_2 C 0.0606(9) 0.5960(11) 0.8869(6)
C21_2 C 0.0266(9) 0.6540(11) 0.8482(6)
C22_4 C 0.5487(9) 0.1186(12) 0.9966(7)
C23_2 C 0.1371(8) 0.5849(10) 0.8140(6)
H6_2 H 0.1797 0.5588 0.8008
C24_4 C 0.3192(8) 0.0343(11) 0.9850(7)
C25_4 C 0.4370(9) 0.0116(11) 0.7731(7)
H7_4 H 0.4031 0.0165 0.7990
C26_4 C 0.5960(8) 0.0808(11) 0.6370(7)
C27_2 C 0.1596(8) 0.5115(11) 0.9024(6)
H8_4 H 0.1997 0.4857 0.8901
C28_4 C 0.2819(7) 0.2534(10) 0.9125(6)
C29_4 C 0.3165(8) 0.1850(11) 0.9920(7)
C31_4 C 0.1373(9) 0.4967(11) 0.9532(7)
H10_4 H 0.1639 0.4636 0.9764
C32_4 C 0.3553(8) 0.1188(11) 0.9128(7)
H11_4 H 0.3569 0.1226 0.8738
C34_4 C 0.2499(8) 0.3130(11) 0.9428(6)
H12_4 H 0.2282 0.3585 0.9262
C35_4 C 0.4890(8) 0.1212(11) 0.9140(7)
H13_4 H 0.4897 0.1193 0.8769
C38_2 C 0.0809(9) 0.7150(11) 0.8314(7)
C39_4 C 0.6591(9) 0.1173(11) 0.6335(6)
H16_4 H 0.7001 0.0874 0.6400
C41_4 C 0.5367(9) 0.2046(12) 0.6109(7)
H18_4 H 0.4960 0.2341 0.6027
C42_2 C 0.1913(9) 0.8063(12) 0.7988(7)
H19_2 H 0.2289 0.8381 0.7873
C43_4 C 0.0060(9) 0.4840(12) 0.7198(7)
H20_4 H 0.0021 0.4453 0.6922
C47_2 C 0.1935(9) 0.7253(12) 0.7951(7)
H22_2 H 0.2325 0.6997 0.7807
C49_2 C 0.0394(9) 0.5816(12) 0.9364(7)
C51_2 C 0.0796(9) 0.5284(12) 0.9688(7)
H28_4 H 0.3997 0.0006 0.5442
C55_4 C 0.4712(8) 0.0689(10) 0.6292(6)
H30_4 H 0.4278 0.0990 0.6209
C56_4 C 0.5999(9) 0.2418(13) 0.6100(7)
H31_4 H 0.6023 0.2986 0.6021
C57_2 C 0.0783(9) 0.7976(11) 0.8360(6)
H32_2 H 0.0393 0.8231 0.8504
C58_4 C 0.5502(9) 0.1249(11) 0.9431(7)
H33_4 H 0.5925 0.1317 0.9260
C60_4 C 0.4277(9) 0.1203(12) 0.9398(7)
C62_4 C 0.3224(8) 0.0423(11) 0.9313(7)
C63_4 C 0.4254(9) 0.1149(11) 0.9927(7)
C65_2 C 0.1334(9) 0.8455(13) 0.8196(7)
H35_2 H 0.1319 0.9035 0.8224
C66_4 C 0.6605(10) 0.1994(12) 0.6201(7)
H36_4 H 0.7031 0.2270 0.6179
O1_4 O 0.3854(5) 0.1727(8) 0.6941(4)
O2_4 O 0.3150(5) 0.0957(8) 0.7408(4)
O4_4 O 0.2699(6) 0.3325(8) 0.8357(4)
O5_4 O 0.2734(6) 0.1966(8) 0.8292(5)
O8_4 O 0.2487(5) 0.2771(7) 0.7141(4)
O9_4 O 0.1124(6) 0.3779(7) 0.7022(4)
O10_4 O 0.1806(5) 0.4451(7) 0.7583(4)
O14_4 O 0.2251(6) 0.4020(8) 0.6358(4)
C67_4 C 0.1918(9) 0.4645(12) 0.6253(7)
H37_4 H 0.1493 0.4569 0.6073
N1_2 N 0.2091(8) 0.5397(10) 0.6363(6)
C68_2 C 0.2748(11) 0.5545(14) 0.6634(9)
H38_2 H 0.2801 0.6132 0.6703
H39_2 H 0.2761 0.5245 0.6967
H40_2 H 0.3122 0.5356 0.6415
C69_2 C 0.1675(13) 0.6083(15) 0.6238(10)
H41_2 H 0.1895 0.6582 0.6371
H42_2 H 0.1616 0.6122 0.5857
H43_2 H 0.1228 0.6018 0.6399
O15_4 O 0.0993(6) 0.3072(7) 0.6029(4)
C70_4 C 0.0963(8) 0.2640(11) 0.5638(6)
H44_4 H 0.1288 0.2212 0.5605
N2_4 N 0.0492(7) 0.2743(10) 0.5252(6)
H47_4 H 0.0161 0.3893 0.5328
C72_2 C 0.0481(10) 0.2161(13) 0.4797(7)
H48_2 H 0.0117 0.2320 0.4549
H49_2 H 0.0923 0.2179 0.4622
H50_2 H 0.0397 0.1603 0.4922
C3_4 C 0.4584(9) 0.9004(12) 0.5259(7)
H1_2 H 0.4296 0.8813 0.4982
C6_4 C 0.6111(9) 0.9150(12) 0.7631(7)
C14_4 C 0.5831(9) 0.9900(11) 0.6506(6)
H2_4 H 0.6266 0.9596 0.6580
C18_4 C 0.5371(9) 0.9929(11) 0.6982(7)
C33_4 C 0.4820(8) 0.9957(11) 0.5947(6)
C40_4 C 0.5150(9) 0.8601(13) 0.5377(7)
H17_4 H 0.5258 0.8122 0.5184
C44_4 C 0.5457(9) 0.9607(11) 0.7468(7)
C48_4 C 0.2652(9) 0.9123(12) 0.9256(7)
H23_4 H 0.2475 0.8690 0.9046
C50_4 C 0.4945(8) 0.9680(11) 0.7831(6)
H25_4 H 0.5000 0.9415 0.8160
C52_4 C 0.5605(10) 0.8865(12) 0.5786(7)
H27_4 H 0.6026 0.8593 0.5858
C53_4 C 0.4399(9) 0.9708(12) 0.5535(7)
C54_4 C 0.2611(9) 0.9087(12) 0.9785(7)
H29_4 H 0.2386 0.8639 0.9945
C59_4 C 0.2953(9) 0.9796(11) 0.9025(7)
H34_4 H 0.2971 0.9821 0.8654
C64_4 C 0.5410(9) 0.9507(11) 0.6058(7)
C15_4 C 0.9527(8) 0.5890(10) 0.7723(6)
H4_4 H 0.9842 0.6804 0.8616
C45_4 C 0.9494(9) 0.5307(11) 0.7336(7)
H21_4 H 0.9070 0.5219 0.7156
H24_4 H 0.9990 0.6064 0.9491
C61_4 C 0.8878(8) 0.6347(11) 0.7819(7)
C71_2 C 0.9957(10) 0.3347(13) 0.5290(8)
H45_2 H 0.9668 0.3331 0.4973
H46_2 H 0.9678 0.3229 0.5595
H1_3 H 0.4296 0.6187 0.9982
C72_3 C 0.0481(10) 0.2839(13) 0.9797(7)
H48_3 H 0.0117 0.2680 0.9549
H49_3 H 0.0923 0.2821 0.9622
H50_3 H 0.0397 0.3397 0.9922
C2_3 C 0.1232(8) 0.9366(11) 0.3706(7)
C9_3 C 0.1394(8) 0.8229(11) 0.3122(6)
C11_3 C 0.0140(8) 0.9002(11) 0.2986(6)
C13_3 C 0.0734(8) 0.9415(10) 0.2835(6)
C20_3 C 0.0606(9) 0.9040(11) 0.3869(6)
C21_3 C 0.0266(9) 0.8460(11) 0.3482(6)
C23_3 C 0.1371(8) 0.9151(10) 0.3140(6)
H6_3 H 0.1797 0.9412 0.3008
C27_3 C 0.1596(8) 0.9885(11) 0.4024(6)
C38_3 C 0.0809(9) 0.7850(11) 0.3314(7)
C42_3 C 0.1913(9) 0.6937(12) 0.2988(7)
H19_3 H 0.2289 0.6619 0.2873
C47_3 C 0.1935(9) 0.7747(12) 0.2951(7)
H22_3 H 0.2325 0.8003 0.2807
C49_3 C 0.0394(9) 0.9184(12) 0.4364(7)
C51_3 C 0.0796(9) 0.9716(12) 0.4688(7)
H26_3 H 0.0640 0.9844 0.5028
C57_3 C 0.0783(9) 0.7024(11) 0.3360(6)
H32_3 H 0.0393 0.6769 0.3504
C65_3 C 0.1334(9) 0.6545(13) 0.3196(7)
H35_3 H 0.1319 0.5965 0.3224
N1_3 N 0.2091(8) 0.9603(10) 0.1363(6)
C68_3 C 0.2748(11) 0.9455(14) 0.1634(9)
H38_3 H 0.2801 0.8868 0.1703
H39_3 H 0.2761 0.9755 0.1967
H40_3 H 0.3122 0.9644 0.1415
C69_3 C 0.1675(13) 0.8917(15) 0.1238(10)
H41_3 H 0.1895 0.8418 0.1371
H42_3 H 0.1616 0.8878 0.0857
H43_3 H 0.1228 0.8982 0.1399
C71_3 C 0.9957(10) 0.1653(13) 0.0290(8)
H46_3 H 0.9678 0.1771 0.0595
H45_3 H 0.9668 0.1669 0.9973
C37_3 C 0.7102(8) 0.0294(10) 0.9906(6)
H15_3 H 0.7112 0.0321 0.9536
H45_4 H 0.0332 0.8331 0.0027
C71_4 C 0.0043(10) 0.8347(13) 0.9710(8)
H46_4 H 0.0322 0.8229 0.9405
C2_4 C 0.8768(8) 0.0634(11) 0.6294(7)
C9_4 C 0.8606(8) 0.1771(11) 0.6878(6)
C11_4 C 0.9860(8) 0.0998(11) 0.7014(6)
C13_4 C 0.9266(8) 0.0585(10) 0.7165(6)
C20_4 C 0.9394(9) 0.0960(11) 0.6131(6)
C21_4 C 0.9734(9) 0.1540(11) 0.6518(6)
C23_4 C 0.8629(8) 0.0849(10) 0.6860(6)
H6_4 H 0.8203 0.0588 0.6992
C27_4 C 0.8404(8) 0.0115(11) 0.5976(6)
C38_4 C 0.9191(9) 0.2150(11) 0.6686(7)
C42_4 C 0.8087(9) 0.3063(12) 0.7012(7)
H19_4 H 0.7711 0.3381 0.7127
C47_4 C 0.8065(9) 0.2253(12) 0.7049(7)
H22_4 H 0.7675 0.1997 0.7193
C49_4 C 0.9606(9) 0.0816(12) 0.5636(7)
C51_4 C 0.9204(9) 0.0284(12) 0.5312(7)
H26_4 H 0.9360 0.0156 0.4972
C57_4 C 0.9217(9) 0.2976(11) 0.6640(6)
H32_4 H 0.9607 0.3231 0.6496
C65_4 C 0.8666(9) 0.3455(13) 0.6804(7)
H35_4 H 0.8681 0.4035 0.6776
N1_4 N 0.7909(8) 0.0397(10) 0.8637(6)
C68_4 C 0.7252(11) 0.0545(14) 0.8366(9)
H38_4 H 0.7199 0.1132 0.8297
H39_4 H 0.7239 0.0245 0.8033
H40_4 H 0.6878 0.0356 0.8585
C69_4 C 0.8325(13) 0.1083(15) 0.8762(10)
H41_4 H 0.8105 0.1582 0.8629
H42_4 H 0.8384 0.1122 0.9143
H43_4 H 0.8772 0.1018 0.8601
H1_4 H 0.5704 0.3813 0.0018
C72_4 C 0.9519(10) 0.7161(13) 0.0203(7)
H48_4 H 0.9883 0.7320 0.0451
H49_4 H 0.9077 0.7179 0.0378
H50_4 H 0.9603 0.6603 0.0078
C37_4 C 0.2898(8) 0.9706(10) 0.0094(6)
H15_4 H 0.2888 0.9679 0.0464
loop_
_geom_bond_atom_site_label_1
_geom_bond_atom_site_label_2
_geom_bond_site_symmetry_1
_geom_bond_site_symmetry_2
C1 C8 1_555 1_555
C4 C12 1_555 1_555
C5 C28 1_555 1_555
C6 C44 1_555 1_555
C7 C8 1_555 1_555
C8 C25 1_555 1_555
C10 C26 1_555 1_555
C14 H2 1_555 1_555
C16 C28 1_555 1_555
C17 C19 1_555 1_555
C18 C7 1_555 1_555
C19 H3 1_555 1_555
C22 H5 1_555 1_555
C24 C36 1_555 1_555
C25 H7 1_555 1_555
C26 C14 1_555 1_555
C28 C34 1_555 1_555
C29 C16 1_555 1_555
C30 C22 1_555 1_555
H9 C30 1_555 1_555
H10 C31 1_555 1_555
C32 C16 1_555 1_555
H11 C32 1_555 1_555
C33 C53 1_555 1_555
C34 C19 1_555 1_555
H12 C34 1_555 1_555
C35 H13 1_555 1_555
C36 C29 1_555 1_555
H14 C36 1_555 1_555
C37 C24 1_555 1_555
H15 C37 1_555 1_555
C39 C26 1_555 1_555
H16 C39 1_555 1_555
C40 C3 1_555 1_555
H17 C40 1_555 1_555
C41 C10 1_555 1_555
H18 C41 1_555 1_555
C43 C12 1_555 1_555
H20 C43 1_555 1_555
C44 C18 1_555 1_555
C46 C17 1_555 1_555
C48 H23 1_555 1_555
C50 C25 1_555 1_555
H25 C50 1_555 1_555
C52 C40 1_555 1_555
H27 C52 1_555 1_555
C53 C3 1_555 1_555
H28 C53 1_555 1_555
C54 C37 1_555 1_555
H29 C54 1_555 1_555
C55 C7 1_555 1_555
H30 C55 1_555 1_555
C56 C41 1_555 1_555
H31 C56 1_555 1_555
C58 C22 1_555 1_555
H33 C58 1_555 1_555
C59 C48 1_555 1_555
H34 C59 1_555 1_555
C60 C32 1_555 1_555
C62 C24 1_555 1_555
C63 C30 1_555 1_555
C64 C14 1_555 1_555
C66 C39 1_555 1_555
H36 C66 1_555 1_555
O1 C1 1_555 1_555
O2 C1 1_555 1_555
O3 C6 1_555 1_555
O4 C5 1_555 1_555
O5 C5 1_555 1_555
O7 C46 1_555 1_555
O8 Zn1 1_555 1_555
O9 C4 1_555 1_555
O10 C4 1_555 1_555
O11 C46 1_555 1_555
O12 C6 1_555 1_555
Zn1 O1 1_555 1_555
Zn2 O4 1_555 1_555
Zn3 O8 1_555 1_555
Zn4 O2 1_555 1_555
O14 Zn3 1_555 1_555
C67 O14 1_555 1_555
H37 C67 1_555 1_555
O15 Zn3 1_555 1_555
C70 O15 1_555 1_555
H44 C70 1_555 1_555
N2 C70 1_555 1_555
O16 Zn2 1_555 1_555
O17 Zn4 1_555 1_555
O18 Zn1 1_555 1_555
O19 Zn3 1_555 1_555
O20 Zn1 1_555 1_555
O21 Zn3 1_555 1_555
Zn5 O12 1_555 1_555
Zn6 O7 1_555 1_555
Zn7 O3 1_555 1_555
Zn9 O11 1_555 1_555
C10 C55 1_555 1_555
C14 C18 1_555 1_555
C17 C29 1_555 1_555
C32 C62 1_555 1_555
C33 C55 1_555 1_555
C33 C64 1_555 1_555
C35 C58 1_555 1_555
C35 C60 1_555 1_555
C36 C63 1_555 1_555
C44 C50 1_555 1_555
C48 C54 1_555 1_555
C52 C64 1_555 1_555
C56 C66 1_555 1_555
C59 C62 1_555 1_555
C60 C63 1_555 1_555
O5 Zn4 1_555 1_555
O8 Zn2 1_555 1_555
O8 Zn4 1_555 1_555
O9 Zn3 1_555 1_555
O10 Zn2 1_555 1_555
C45 C15 1_555 1_555
H21 C45 1_555 1_555
C61 C15 1_555 1_555
O6 C61 1_555 1_555
O13 C61 1_555 1_555
Zn8 O13 1_555 1_555
Zn10 O6 1_555 1_555
C45_2 C15_2 1_555 1_555
H21_2 C45_2 1_555 1_555
C61_2 C15_2 1_555 1_555
O17 C61_2 1_555 1_555
O21 C61_2 1_555 1_555
H45 C71 1_555 1_555
H46 C71 1_555 1_555
C3_2 H1 1_555 1_555
C6_2 C44_2 1_555 1_555
C14_2 H2_2 1_555 1_555
C33_2 C53_2 1_555 1_555
C40_2 C3_2 1_555 1_555
H17_2 C40_2 1_555 1_555
C44_2 C18_2 1_555 1_555
C48_2 H23_2 1_555 1_555
H25_2 C50_2 1_555 1_555
C52_2 C40_2 1_555 1_555
H27_2 C52_2 1_555 1_555
C53_2 C3_2 1_555 1_555
H29_2 C54_2 1_555 1_555
C59_2 C48_2 1_555 1_555
H34_2 C59_2 1_555 1_555
C64_2 C14_2 1_555 1_555
O16 C6_2 1_555 1_555
O20 C6_2 1_555 1_555
C14_2 C18_2 1_555 1_555
C33_2 C64_2 1_555 1_555
C44_2 C50_2 1_555 1_555
C48_2 C54_2 1_555 1_555
C52_2 C64_2 1_555 1_555
C1_2 C8_2 1_555 1_555
C2 C20 1_555 1_555
C4_2 C12_2 1_555 1_555
C5_2 C28_2 1_555 1_555
C7_2 C8_2 1_555 1_555
C8_2 C25_2 1_555 1_555
C9 C23 1_555 1_555
C10_2 C26_2 1_555 1_555
C11 C13 1_555 1_555
C12_2 C13 1_555 1_555
C13 C23 1_555 1_555
C16_2 C28_2 1_555 1_555
C20 C21 1_555 1_555
C21 C11 1_555 1_555
C23 C2 1_555 1_555
H6 C23 1_555 1_555
C25_2 H7_2 1_555 1_555
C27 C2 1_555 1_555
H8_2 C27 1_555 1_555
C28_2 C34_2 1_555 1_555
C29_2 C16_2 1_555 1_555
C31_2 C27 1_555 1_555
H10_2 C31_2 1_555 1_555
C32_2 C16_2 1_555 1_555
H11_2 C32_2 1_555 1_555
C34_2 C19_2 1_555 1_555
H12_2 C34_2 1_555 1_555
C35_2 H13_2 1_555 1_555
C38 C9 1_555 1_555
C39_2 C26_2 1_555 1_555
H16_2 C39_2 1_555 1_555
C41_2 C10_2 1_555 1_555
H18_2 C41_2 1_555 1_555
C42 H19 1_555 1_555
C43_2 C12_2 1_555 1_555
H20_2 C43_2 1_555 1_555
C47 C9 1_555 1_555
H22 C47 1_555 1_555
C49 C20 1_555 1_555
C51 C31_2 1_555 1_555
C55_2 C7_2 1_555 1_555
H30_2 C55_2 1_555 1_555
C56_2 C41_2 1_555 1_555
H31_2 C56_2 1_555 1_555
C57 C38 1_555 1_555
H32 C57 1_555 1_555
C58_2 C22_2 1_555 1_555
H33_2 C58_2 1_555 1_555
C60_2 C32_2 1_555 1_555
C62_2 C24_2 1_555 1_555
C65 C42 1_555 1_555
H35 C65 1_555 1_555
C66_2 C39_2 1_555 1_555
H36_2 C66_2 1_555 1_555
O1_2 C1_2 1_555 1_555
O2_2 C1_2 1_555 1_555
O4_2 C5_2 1_555 1_555
O5_2 C5_2 1_555 1_555
O8_2 Zn5 1_555 1_555
O9_2 C4_2 1_555 1_555
O10_2 C4_2 1_555 1_555
Zn5 O1_2 1_555 1_555
Zn7 O4_2 1_555 1_555
Zn8 O8_2 1_555 1_555
Zn10 O2_2 1_555 1_555
O14_2 Zn8 1_555 1_555
C67_2 O14_2 1_555 1_555
H37_2 C67_2 1_555 1_555
N1 C67_2 1_555 1_555
C68 N1 1_555 1_555
H38 C68 1_555 1_555
H39 C68 1_555 1_555
H40 C68 1_555 1_555
C69 N1 1_555 1_555
H41 C69 1_555 1_555
H42 C69 1_555 1_555
H43 C69 1_555 1_555
O15_2 Zn8 1_555 1_555
C70_2 O15_2 1_555 1_555
H44_2 C70_2 1_555 1_555
N2_2 C70_2 1_555 1_555
C72 N2_2 1_555 1_555
H48 C72 1_555 1_555
H49 C72 1_555 1_555
H50 C72 1_555 1_555
O18_2 Zn5 1_555 1_555
O19_2 Zn8 1_555 1_555
C10_2 C55_2 1_555 1_555
C21 C38 1_555 1_555
C32_2 C62_2 1_555 1_555
C35_2 C58_2 1_555 1_555
C35_2 C60_2 1_555 1_555
C42 C47 1_555 1_555
C49 C51 1_555 1_555
C56_2 C66_2 1_555 1_555
C57 C65 1_555 1_555
C60_2 C63_2 1_555 1_555
O5_2 Zn10 1_555 1_555
O8_2 Zn7 1_555 1_555
O8_2 Zn10 1_555 1_555
O9_2 Zn8 1_555 1_555
O10_2 Zn7 1_555 1_555
H9_2 C30_2 1_555 1_555
H14_2 C36_2 1_555 1_555
C46_2 C17_2 1_555 1_555
O7_2 C46_2 1_555 1_555
O11_2 C46_2 1_555 1_555
Zn6_2 O7_2 1_555 1_555
Zn9_2 O11_2 1_555 1_555
C45_3 C15_3 1_555 1_555
H21_3 C45_3 1_555 1_555
C61_3 C15_3 1_555 1_555
O6_2 C61_3 1_555 1_555
O13_2 C61_3 1_555 1_555
Zn9 O13_2 1_555 1_555
Zn10_2 O6_2 1_555 1_555
C1_3 C8_3 1_555 1_555
C4_3 C12_3 1_555 1_555
C5_3 C28_3 1_555 1_555
C6_3 C44_3 1_555 1_555
C7_3 C8_3 1_555 1_555
C8_3 C25_3 1_555 1_555
C10_3 C26_3 1_555 1_555
C14_3 H2_3 1_555 1_555
C16_3 C28_3 1_555 1_555
C17_3 C19_3 1_555 1_555
C18_3 C7_3 1_555 1_555
C19_3 H3_3 1_555 1_555
C22_3 H5_3 1_555 1_555
C24_3 C36_3 1_555 1_555
C25_3 H7_3 1_555 1_555
C26_3 C14_3 1_555 1_555
C28_3 C34_3 1_555 1_555
C29_3 C16_3 1_555 1_555
C30_3 C22_3 1_555 1_555
H9_3 C30_3 1_555 1_555
H10_3 C31_3 1_555 1_555
C32_3 C16_3 1_555 1_555
H11_3 C32_3 1_555 1_555
C33_3 C53_3 1_555 1_555
C34_3 C19_3 1_555 1_555
H12_3 C34_3 1_555 1_555
C35_3 H13_3 1_555 1_555
C36_3 C29_3 1_555 1_555
H14_3 C36_3 1_555 1_555
C37_2 C24_3 1_555 1_555
H15_2 C37_2 1_555 1_555
C39_3 C26_3 1_555 1_555
H16_3 C39_3 1_555 1_555
C40_3 C3_3 1_555 1_555
H17_3 C40_3 1_555 1_555
C41_3 C10_3 1_555 1_555
H18_3 C41_3 1_555 1_555
C43_3 C12_3 1_555 1_555
H20_3 C43_3 1_555 1_555
C44_3 C18_3 1_555 1_555
C46_3 C17_3 1_555 1_555
C48_3 H23_3 1_555 1_555
C50_3 C25_3 1_555 1_555
H25_3 C50_3 1_555 1_555
C52_3 C40_3 1_555 1_555
H27_3 C52_3 1_555 1_555
C53_3 C3_3 1_555 1_555
H28_3 C53_3 1_555 1_555
C54_3 C37_2 1_555 1_555
H29_3 C54_3 1_555 1_555
C55_3 C7_3 1_555 1_555
H30_3 C55_3 1_555 1_555
C56_3 C41_3 1_555 1_555
H31_3 C56_3 1_555 1_555
C58_3 C22_3 1_555 1_555
H33_3 C58_3 1_555 1_555
C59_3 C48_3 1_555 1_555
H34_3 C59_3 1_555 1_555
C60_3 C32_3 1_555 1_555
C62_3 C24_3 1_555 1_555
C63_3 C30_3 1_555 1_555
C64_3 C14_3 1_555 1_555
C66_3 C39_3 1_555 1_555
H36_3 C66_3 1_555 1_555
O1_3 C1_3 1_555 1_555
O2_3 C1_3 1_555 1_555
O3_2 C6_3 1_555 1_555
O4_3 C5_3 1_555 1_555
O5_3 C5_3 1_555 1_555
O18_2 C46_3 1_555 1_555
O8_3 Zn6_2 1_555 1_555
O9_3 C4_3 1_555 1_555
O10_3 C4_3 1_555 1_555
O19_2 C46_3 1_555 1_555
O12_2 C6_3 1_555 1_555
Zn6_2 O1_3 1_555 1_555
Zn2_2 O4_3 1_555 1_555
Zn9_2 O8_3 1_555 1_555
Zn4_2 O2_3 1_555 1_555
O14_3 Zn9_2 1_555 1_555
C67_3 O14_3 1_555 1_555
H37_3 C67_3 1_555 1_555
O15_3 Zn9_2 1_555 1_555
C70_3 O15_3 1_555 1_555
H44_3 C70_3 1_555 1_555
N2_3 C70_3 1_555 1_555
O16_2 Zn2_2 1_555 1_555
O17_2 Zn4_2 1_555 1_555
O20_2 Zn6_2 1_555 1_555
O21_2 Zn9_2 1_555 1_555
Zn6 O12_2 1_555 1_555
Zn7_2 O3_2 1_555 1_555
C10_3 C55_3 1_555 1_555
C14_3 C18_3 1_555 1_555
C17_3 C29_3 1_555 1_555
C32_3 C62_3 1_555 1_555
C33_3 C55_3 1_555 1_555
C33_3 C64_3 1_555 1_555
C35_3 C58_3 1_555 1_555
C35_3 C60_3 1_555 1_555
C36_3 C63_3 1_555 1_555
C44_3 C50_3 1_555 1_555
C48_3 C54_3 1_555 1_555
C52_3 C64_3 1_555 1_555
C56_3 C66_3 1_555 1_555
C59_3 C62_3 1_555 1_555
C60_3 C63_3 1_555 1_555
O5_3 Zn4_2 1_555 1_555
O8_3 Zn2_2 1_555 1_555
O8_3 Zn4_2 1_555 1_555
O9_3 Zn9_2 1_555 1_555
O10_3 Zn2_2 1_555 1_555
H9_4 C30_4 1_555 1_555
H14_4 C36_4 1_555 1_555
C46_4 C17_4 1_555 1_555
O18 C46_4 1_555 1_555
O19 C46_4 1_555 1_555
C1_4 C8_4 1_555 1_555
C2_2 C20_2 1_555 1_555
C4_4 C12_4 1_555 1_555
C5_4 C28_4 1_555 1_555
C7_4 C8_4 1_555 1_555
C8_4 C25_4 1_555 1_555
C9_2 C23_2 1_555 1_555
C10_4 C26_4 1_555 1_555
C11_2 C13_2 1_555 1_555
C12_4 C13_2 1_555 1_555
C13_2 C23_2 1_555 1_555
C16_4 C28_4 1_555 1_555
C20_2 C21_2 1_555 1_555
C21_2 C11_2 1_555 1_555
C23_2 C2_2 1_555 1_555
H6_2 C23_2 1_555 1_555
C25_4 H7_4 1_555 1_555
C27_2 C2_2 1_555 1_555
H8_4 C27_2 1_555 1_555
C28_4 C34_4 1_555 1_555
C29_4 C16_4 1_555 1_555
C31_4 C27_2 1_555 1_555
H10_4 C31_4 1_555 1_555
C32_4 C16_4 1_555 1_555
H11_4 C32_4 1_555 1_555
C34_4 C19_4 1_555 1_555
H12_4 C34_4 1_555 1_555
C35_4 H13_4 1_555 1_555
C38_2 C9_2 1_555 1_555
C39_4 C26_4 1_555 1_555
H16_4 C39_4 1_555 1_555
C41_4 C10_4 1_555 1_555
H18_4 C41_4 1_555 1_555
C42_2 H19_2 1_555 1_555
C43_4 C12_4 1_555 1_555
H20_4 C43_4 1_555 1_555
C47_2 C9_2 1_555 1_555
H22_2 C47_2 1_555 1_555
C49_2 C20_2 1_555 1_555
C51_2 C31_4 1_555 1_555
C55_4 C7_4 1_555 1_555
H30_4 C55_4 1_555 1_555
C56_4 C41_4 1_555 1_555
H31_4 C56_4 1_555 1_555
C57_2 C38_2 1_555 1_555
H32_2 C57_2 1_555 1_555
C58_4 C22_4 1_555 1_555
H33_4 C58_4 1_555 1_555
C60_4 C32_4 1_555 1_555
C62_4 C24_4 1_555 1_555
C65_2 C42_2 1_555 1_555
H35_2 C65_2 1_555 1_555
C66_4 C39_4 1_555 1_555
H36_4 C66_4 1_555 1_555
O1_4 C1_4 1_555 1_555
O2_4 C1_4 1_555 1_555
O4_4 C5_4 1_555 1_555
O5_4 C5_4 1_555 1_555
O8_4 Zn6 1_555 1_555
O9_4 C4_4 1_555 1_555
O10_4 C4_4 1_555 1_555
Zn6 O1_4 1_555 1_555
Zn7_2 O4_4 1_555 1_555
Zn9 O8_4 1_555 1_555
Zn10_2 O2_4 1_555 1_555
O14_4 Zn9 1_555 1_555
C67_4 O14_4 1_555 1_555
H37_4 C67_4 1_555 1_555
N1_2 C67_4 1_555 1_555
C68_2 N1_2 1_555 1_555
H38_2 C68_2 1_555 1_555
H39_2 C68_2 1_555 1_555
H40_2 C68_2 1_555 1_555
C69_2 N1_2 1_555 1_555
H41_2 C69_2 1_555 1_555
H42_2 C69_2 1_555 1_555
H43_2 C69_2 1_555 1_555
O15_4 Zn9 1_555 1_555
C70_4 O15_4 1_555 1_555
H44_4 C70_4 1_555 1_555
N2_4 C70_4 1_555 1_555
C72_2 N2_4 1_555 1_555
H48_2 C72_2 1_555 1_555
H49_2 C72_2 1_555 1_555
H50_2 C72_2 1_555 1_555
C10_4 C55_4 1_555 1_555
C21_2 C38_2 1_555 1_555
C32_4 C62_4 1_555 1_555
C35_4 C58_4 1_555 1_555
C35_4 C60_4 1_555 1_555
C42_2 C47_2 1_555 1_555
C49_2 C51_2 1_555 1_555
C56_4 C66_4 1_555 1_555
C57_2 C65_2 1_555 1_555
C60_4 C63_4 1_555 1_555
O5_4 Zn10_2 1_555 1_555
O8_4 Zn7_2 1_555 1_555
O8_4 Zn10_2 1_555 1_555
O9_4 Zn9 1_555 1_555
O10_4 Zn7_2 1_555 1_555
C3_4 H1_2 1_555 1_555
C6_4 C44_4 1_555 1_555
C14_4 H2_4 1_555 1_555
C33_4 C53_4 1_555 1_555
C40_4 C3_4 1_555 1_555
H17_4 C40_4 1_555 1_555
C44_4 C18_4 1_555 1_555
C48_4 H23_4 1_555 1_555
H25_4 C50_4 1_555 1_555
C52_4 C40_4 1_555 1_555
H27_4 C52_4 1_555 1_555
C53_4 C3_4 1_555 1_555
H29_4 C54_4 1_555 1_555
C59_4 C48_4 1_555 1_555
H34_4 C59_4 1_555 1_555
C64_4 C14_4 1_555 1_555
O16_2 C6_4 1_555 1_555
O20_2 C6_4 1_555 1_555
C14_4 C18_4 1_555 1_555
C33_4 C64_4 1_555 1_555
C44_4 C50_4 1_555 1_555
C48_4 C54_4 1_555 1_555
C52_4 C64_4 1_555 1_555
C45_4 C15_4 1_555 1_555
H21_4 C45_4 1_555 1_555
C61_4 C15_4 1_555 1_555
O17_2 C61_4 1_555 1_555
O21_2 C61_4 1_555 1_555
H45_2 C71_2 1_555 1_555
H46_2 C71_2 1_555 1_555
H48_3 C72_3 1_555 1_555
H49_3 C72_3 1_555 1_555
H50_3 C72_3 1_555 1_555
C2_3 C20_3 1_555 1_555
C9_3 C23_3 1_555 1_555
C11_3 C13_3 1_555 1_555
C13_3 C23_3 1_555 1_555
C20_3 C21_3 1_555 1_555
C21_3 C11_3 1_555 1_555
C23_3 C2_3 1_555 1_555
H6_3 C23_3 1_555 1_555
C27_3 C2_3 1_555 1_555
C38_3 C9_3 1_555 1_555
C42_3 H19_3 1_555 1_555
C47_3 C9_3 1_555 1_555
H22_3 C47_3 1_555 1_555
C49_3 C20_3 1_555 1_555
H26_3 C51_3 1_555 1_555
C57_3 C38_3 1_555 1_555
H32_3 C57_3 1_555 1_555
C65_3 C42_3 1_555 1_555
H35_3 C65_3 1_555 1_555
C68_3 N1_3 1_555 1_555
H38_3 C68_3 1_555 1_555
H39_3 C68_3 1_555 1_555
H40_3 C68_3 1_555 1_555
C69_3 N1_3 1_555 1_555
H41_3 C69_3 1_555 1_555
H42_3 C69_3 1_555 1_555
H43_3 C69_3 1_555 1_555
C21_3 C38_3 1_555 1_555
C42_3 C47_3 1_555 1_555
C49_3 C51_3 1_555 1_555
C57_3 C65_3 1_555 1_555
H46_3 C71_3 1_555 1_555
H15_3 C37_3 1_555 1_555
H46_4 C71_4 1_555 1_555
C2_4 C20_4 1_555 1_555
C9_4 C23_4 1_555 1_555
C11_4 C13_4 1_555 1_555
C13_4 C23_4 1_555 1_555
C20_4 C21_4 1_555 1_555
C21_4 C11_4 1_555 1_555
C23_4 C2_4 1_555 1_555
H6_4 C23_4 1_555 1_555
C27_4 C2_4 1_555 1_555
C38_4 C9_4 1_555 1_555
C42_4 H19_4 1_555 1_555
C47_4 C9_4 1_555 1_555
H22_4 C47_4 1_555 1_555
C49_4 C20_4 1_555 1_555
H26_4 C51_4 1_555 1_555
C57_4 C38_4 1_555 1_555
H32_4 C57_4 1_555 1_555
C65_4 C42_4 1_555 1_555
H35_4 C65_4 1_555 1_555
C68_4 N1_4 1_555 1_555
H38_4 C68_4 1_555 1_555
H39_4 C68_4 1_555 1_555
H40_4 C68_4 1_555 1_555
C69_4 N1_4 1_555 1_555
H41_4 C69_4 1_555 1_555
H42_4 C69_4 1_555 1_555
H43_4 C69_4 1_555 1_555
C21_4 C38_4 1_555 1_555
C42_4 C47_4 1_555 1_555
C49_4 C51_4 1_555 1_555
C57_4 C65_4 1_555 1_555
H48_4 C72_4 1_555 1_555
H49_4 C72_4 1_555 1_555
H50_4 C72_4 1_555 1_555
H15_4 C37_4 1_555 1_555

#END
