
###############################################################################
#
# This file contains modified crystal structure data generated from the
# MOF subset of the Cambridge Structural Database (CSD) v543 
# hosted by the Cambridge Crystallographic Data Centre (CCDC).
#
# This work is licensed under the Creative Commons
# Attribution-NonCommercial-ShareAlike 4.0 International License.
# To view a copy of this license, visit
# http://creativecommons.org/licenses/by-nc-sa/4.0/
# or send a letter to
# Creative Commons, PO Box 1866, Mountain View, CA 94042, USA.
#
# CIF created using the CSD Python API on 29 September 2022
# The structure has been converted into the P1 space group
# The structure has a 3D framework
# The original CSD entry EPEWEC is in the tetragonal crystal system
# The original CSD entry EPEWEC is in a Sohncke space group
# The framework has been calculated to contain at least 10.0% void space
# The void calculation uses a probe of radius 1.32A, grid spacing 0.4
#
###############################################################################

data_EPEWEC
_chemical_formula_moiety         '(C88 H80 Co9 N16 O40)n'
_symmetry_cell_setting           triclinic
_symmetry_space_group_name_H-M   'P 1'
_symmetry_Int_Tables_number      1
_space_group_name_Hall           'P 1'
loop_
_symmetry_equiv_pos_site_id
_symmetry_equiv_pos_as_xyz
1 x,y,z
_cell_length_a                   11.3108(2)
_cell_length_b                   11.3108(2)
_cell_length_c                   25.2380(12)
_cell_angle_alpha                90
_cell_angle_beta                 90
_cell_angle_gamma                90
_cell_volume                     3228.8
loop_
_atom_site_label
_atom_site_type_symbol
_atom_site_fract_x
_atom_site_fract_y
_atom_site_fract_z
_atom_site_U_iso_or_equiv
_atom_site_thermal_displace_type
O7 O 0.2240(6) 0.5954(6) 0.8753(3) 0.0232 Uiso
C12 C 0.0203(9) 0.6155(9) 0.8556(4) 0.0180 Uiso
O8 O 0.1671(6) 0.5875(6) 0.7903(2) 0.0247 Uiso
H11 H 0.0521 0.6701 0.9308 0.0300 Uiso
C19 C 0.1471(9) 0.5977(9) 0.8395(4) 0.0200 Uiso
Co6 Co 0.40371(12) 0.59629(12) 0.8750 0.0138 Uiso
Co7 Co 0.29678(16) 0.5000 0.7500 0.0135 Uiso
O1 O 0.5901(5) 0.4147(5) 0.1251(2) 0.0237 Uiso
C3 C 0.6383(8) 0.2148(8) 0.1365(4) 0.0130 Uiso
O5 O 0.7004(6) 0.3639(6) 0.1952(3) 0.0228 Uiso
C4 C 0.6539(10) 0.0079(9) 0.1566(4) 0.0250 Uiso
C5 C 0.5999(10) 0.1848(9) 0.0858(4) 0.0280 Uiso
H3 H 0.5802 0.2439 0.0617 0.0340 Uiso
C6 C 0.6449(9) 0.3403(9) 0.1537(4) 0.0220 Uiso
C7 C 0.5912(9) 0.0695(9) 0.0714(4) 0.0260 Uiso
H4 H 0.5679 0.0513 0.0371 0.0310 Uiso
C8 C 0.6675(9) 0.1227(9) 0.1710(4) 0.0240 Uiso
H5 H 0.6969 0.1404 0.2045 0.0290 Uiso
Co3 Co 0.59629(12) 0.59629(12) 0.1250 0.0138 Uiso
Co4 Co 0.70322(16) 0.5000 0.2500 0.0135 Uiso
Co1 Co 0.5000 0.70322(16) 0.0000 0.0135 Uiso
O2 O 0.5954(6) 0.7760(6) 0.1253(3) 0.0232 Uiso
C1 C 0.6627(8) 0.4912(9) 0.0155(4) 0.0190 Uiso
C2 C 0.6155(9) 0.9797(9) 0.1056(4) 0.0180 Uiso
O3 O 0.5875(6) 0.8329(6) 0.0403(2) 0.0247 Uiso
O4 O 0.5981(5) 0.5658(5) 0.0391(2) 0.0186 Uiso
H2 H 0.6701 0.9479 0.1808 0.0300 Uiso
H6 H 0.8218 0.2943 0.0173 0.0620 Uiso
C10 C 0.5977(9) 0.8529(9) 0.0895(4) 0.0200 Uiso
N2 N 0.7725(8) 0.4641(8) 0.0291(3) 0.0300 Uiso
H8 H 0.8115 0.4992 0.0538 0.0360 Uiso
N3 N 0.3705(8) 0.4266(8) 0.0259(3) 0.0300 Uiso
H15 H 0.4410 0.4242 0.0387 0.0360 Uiso
C21 C 0.1813(11) 0.3674(11) 0.0028(5) 0.0520 Uiso
H17 H 0.1030 0.3854 0.0163 0.0620 Uiso
C22 C 0.2698(10) 0.3602(11) 0.0465(5) 0.0400 Uiso
H19 H 0.2394 0.3959 0.0787 0.0480 Uiso
H20 H 0.2913 0.2787 0.0538 0.0480 Uiso
O12 O 0.3639(6) 0.7004(6) 0.0548(3) 0.0228 Uiso
O14 O 0.4147(5) 0.5901(5) 0.1249(2) 0.0237 Uiso
O15 O 0.7760(6) 0.5954(6) 0.1247(3) 0.0232 Uiso
O16 O 0.5658(5) 0.5981(5) 0.2109(2) 0.0186 Uiso
Co1_2 Co 0.5000 0.70322(16) 1.0000 0.0135 Uiso
N1 N 0.6295(8) 0.4266(8) 0.9741(3) 0.0300 Uiso
H1 H 0.5590 0.4242 0.9613 0.0360 Uiso
C9 C 0.8187(11) 0.3674(11) 0.9972(5) 0.0520 Uiso
H7 H 0.8970 0.3854 0.9837 0.0620 Uiso
C11 C 0.7302(10) 0.3602(11) 0.9535(5) 0.0400 Uiso
H9 H 0.7606 0.3959 0.9213 0.0480 Uiso
H10 H 0.7087 0.2787 0.9462 0.0480 Uiso
O6 O 0.5853(5) 0.5901(5) 0.8751(2) 0.0237 Uiso
C13 C 0.7852(8) 0.6383(8) 0.8865(4) 0.0130 Uiso
O9 O 0.6361(6) 0.7004(6) 0.9452(3) 0.0228 Uiso
C14 C 0.9921(9) 0.6539(10) 0.9066(4) 0.0250 Uiso
C15 C 0.8152(9) 0.5999(10) 0.8358(4) 0.0280 Uiso
H12 H 0.7561 0.5802 0.8117 0.0340 Uiso
C16 C 0.6597(9) 0.6449(9) 0.9037(4) 0.0220 Uiso
C17 C 0.9305(9) 0.5912(9) 0.8214(4) 0.0260 Uiso
H13 H 0.9487 0.5679 0.7871 0.0310 Uiso
C18 C 0.8773(9) 0.6675(9) 0.9210(4) 0.0240 Uiso
H14 H 0.8596 0.6969 0.9545 0.0290 Uiso
C20 C 0.3373(8) 0.4912(9) 0.9845(4) 0.0190 Uiso
O10 O 0.4019(5) 0.5658(5) 0.9609(2) 0.0186 Uiso
H16 H 0.1782 0.2943 0.9827 0.0620 Uiso
N4 N 0.2275(8) 0.4641(8) 0.9709(3) 0.0300 Uiso
H18 H 0.1885 0.4992 0.9462 0.0360 Uiso
O11 O 0.4125(6) 0.8329(6) 0.9597(2) 0.0247 Uiso
Co1_3 Co 0.5000 0.29678(16) 0.5000 0.0135 Uiso
Co2 Co 0.40371(12) 0.40371(12) 0.6250 0.0138 Uiso
O2_2 O 0.4046(6) 0.2240(6) 0.6253(3) 0.0232 Uiso
C1_2 C 0.3373(8) 0.5088(9) 0.5155(4) 0.0190 Uiso
C2_2 C 0.3845(9) 0.0203(9) 0.6056(4) 0.0180 Uiso
O3_2 O 0.4125(6) 0.1671(6) 0.5403(2) 0.0247 Uiso
O4_2 O 0.4019(5) 0.4342(5) 0.5391(2) 0.0186 Uiso
N1_2 N 0.3705(8) 0.5734(8) 0.4741(3) 0.0300 Uiso
H1_2 H 0.4410 0.5758 0.4613 0.0360 Uiso
H2_2 H 0.3299 0.0521 0.6808 0.0300 Uiso
C9_2 C 0.1813(11) 0.6326(11) 0.4972(5) 0.0520 Uiso
H6_2 H 0.1782 0.7057 0.5173 0.0620 Uiso
H7_2 H 0.1030 0.6146 0.4837 0.0620 Uiso
C10_2 C 0.4023(9) 0.1471(9) 0.5895(4) 0.0200 Uiso
N2_2 N 0.2275(8) 0.5359(8) 0.5291(3) 0.0300 Uiso
H8_2 H 0.1885 0.5008 0.5538 0.0360 Uiso
C11_2 C 0.2698(10) 0.6398(11) 0.4535(5) 0.0400 Uiso
H9_2 H 0.2394 0.6041 0.4213 0.0480 Uiso
H10_2 H 0.2913 0.7213 0.4462 0.0480 Uiso
O6_2 O 0.4147(5) 0.4099(5) 0.3751(2) 0.0237 Uiso
C13_2 C 0.2148(8) 0.3617(8) 0.3865(4) 0.0130 Uiso
O9_2 O 0.3639(6) 0.2996(6) 0.4452(3) 0.0228 Uiso
C14_2 C 0.0079(9) 0.3461(10) 0.4066(4) 0.0250 Uiso
C15_2 C 0.1848(9) 0.4001(10) 0.3358(4) 0.0280 Uiso
H12_2 H 0.2439 0.4198 0.3117 0.0340 Uiso
C16_2 C 0.3403(9) 0.3551(9) 0.4037(4) 0.0220 Uiso
C17_2 C 0.0695(9) 0.4088(9) 0.3214(4) 0.0260 Uiso
H13_2 H 0.0513 0.4321 0.2871 0.0310 Uiso
C18_2 C 0.1227(9) 0.3325(9) 0.4210(4) 0.0240 Uiso
H14_2 H 0.1404 0.3031 0.4545 0.0290 Uiso
C20_2 C 0.6627(8) 0.5088(9) 0.4845(4) 0.0190 Uiso
O10_2 O 0.5981(5) 0.4342(5) 0.4609(2) 0.0186 Uiso
N3_2 N 0.6295(8) 0.5734(8) 0.5259(3) 0.0300 Uiso
H15_2 H 0.5590 0.5758 0.5387 0.0360 Uiso
C21_2 C 0.8187(11) 0.6326(11) 0.5028(5) 0.0520 Uiso
H16_2 H 0.8218 0.7057 0.4827 0.0620 Uiso
H17_2 H 0.8970 0.6146 0.5163 0.0620 Uiso
N4_2 N 0.7725(8) 0.5359(8) 0.4709(3) 0.0300 Uiso
H18_2 H 0.8115 0.5008 0.4462 0.0360 Uiso
C22_2 C 0.7302(10) 0.6398(11) 0.5465(5) 0.0400 Uiso
H19_2 H 0.7606 0.6041 0.5787 0.0480 Uiso
H20_2 H 0.7087 0.7213 0.5538 0.0480 Uiso
O11_2 O 0.5875(6) 0.1671(6) 0.4597(2) 0.0247 Uiso
O12_2 O 0.6361(6) 0.2996(6) 0.5548(3) 0.0228 Uiso
O13 O 0.4099(5) 0.5853(5) 0.6251(2) 0.0237 Uiso
O14_2 O 0.5853(5) 0.4099(5) 0.6249(2) 0.0237 Uiso
O15_2 O 0.2240(6) 0.4046(6) 0.6247(3) 0.0232 Uiso
O16_2 O 0.4342(5) 0.4019(5) 0.7109(2) 0.0186 Uiso
Co5 Co 0.59629(12) 0.40371(12) 0.3750 0.0138 Uiso
C3_2 C 0.3617(8) 0.7852(8) 0.6365(4) 0.0130 Uiso
O5_2 O 0.2996(6) 0.6361(6) 0.6952(3) 0.0228 Uiso
C4_2 C 0.3461(10) 0.9921(9) 0.6566(4) 0.0250 Uiso
C5_2 C 0.4001(10) 0.8152(9) 0.5858(4) 0.0280 Uiso
H3_2 H 0.4198 0.7561 0.5617 0.0340 Uiso
C6_2 C 0.3551(9) 0.6597(9) 0.6537(4) 0.0220 Uiso
C7_2 C 0.4088(9) 0.9305(9) 0.5714(4) 0.0260 Uiso
H4_2 H 0.4321 0.9487 0.5371 0.0310 Uiso
C8_2 C 0.3325(9) 0.8773(9) 0.6710(4) 0.0240 Uiso
H5_2 H 0.3031 0.8596 0.7045 0.0290 Uiso
O7_2 O 0.7760(6) 0.4046(6) 0.3753(3) 0.0232 Uiso
C12_2 C 0.9797(9) 0.3845(9) 0.3556(4) 0.0180 Uiso
O8_2 O 0.8329(6) 0.4125(6) 0.2903(2) 0.0247 Uiso
H11_2 H 0.9479 0.3299 0.4308 0.0300 Uiso
C19_2 C 0.8529(9) 0.4023(9) 0.3395(4) 0.0200 Uiso
C1_3 C 0.5088(9) 0.6627(8) 0.7655(4) 0.0190 Uiso
O4_3 O 0.4342(5) 0.5981(5) 0.7891(2) 0.0186 Uiso
N1_3 N 0.5734(8) 0.6295(8) 0.7241(3) 0.0300 Uiso
H1_3 H 0.5758 0.5590 0.7113 0.0360 Uiso
C9_3 C 0.6326(11) 0.8187(11) 0.7472(5) 0.0520 Uiso
H6_3 H 0.7057 0.8218 0.7673 0.0620 Uiso
H7_3 H 0.6146 0.8970 0.7337 0.0620 Uiso
N2_3 N 0.5359(8) 0.7725(8) 0.7791(3) 0.0300 Uiso
H8_3 H 0.5008 0.8115 0.8038 0.0360 Uiso
C11_3 C 0.6398(11) 0.7302(10) 0.7035(5) 0.0400 Uiso
H9_3 H 0.6041 0.7606 0.6713 0.0480 Uiso
H10_3 H 0.7213 0.7087 0.6962 0.0480 Uiso
C20_3 C 0.5088(9) 0.3373(8) 0.7345(4) 0.0190 Uiso
N3_3 N 0.5734(8) 0.3705(8) 0.7759(3) 0.0300 Uiso
H15_3 H 0.5758 0.4410 0.7887 0.0360 Uiso
C21_3 C 0.6326(11) 0.1813(11) 0.7528(5) 0.0520 Uiso
H16_3 H 0.7057 0.1782 0.7327 0.0620 Uiso
H17_3 H 0.6146 0.1030 0.7663 0.0620 Uiso
N4_3 N 0.5359(8) 0.2275(8) 0.7209(3) 0.0300 Uiso
H18_3 H 0.5008 0.1885 0.6962 0.0360 Uiso
C22_3 C 0.6398(11) 0.2698(10) 0.7965(5) 0.0400 Uiso
H19_3 H 0.6041 0.2394 0.8287 0.0480 Uiso
H20_3 H 0.7213 0.2913 0.8038 0.0480 Uiso
O11_3 O 0.1671(6) 0.4125(6) 0.7097(2) 0.0247 Uiso
O12_3 O 0.2996(6) 0.3639(6) 0.8048(3) 0.0228 Uiso
O14_3 O 0.4099(5) 0.4147(5) 0.8749(2) 0.0237 Uiso
O15_3 O 0.4046(6) 0.7760(6) 0.8747(3) 0.0232 Uiso
C1_4 C 0.4912(9) 0.3373(8) 0.2655(4) 0.0190 Uiso
O4_4 O 0.5658(5) 0.4019(5) 0.2891(2) 0.0186 Uiso
N1_4 N 0.4266(8) 0.3705(8) 0.2241(3) 0.0300 Uiso
H1_4 H 0.4242 0.4410 0.2113 0.0360 Uiso
C9_4 C 0.3674(11) 0.1813(11) 0.2472(5) 0.0520 Uiso
H6_4 H 0.2943 0.1782 0.2673 0.0620 Uiso
H7_4 H 0.3854 0.1030 0.2337 0.0620 Uiso
N2_4 N 0.4641(8) 0.2275(8) 0.2791(3) 0.0300 Uiso
H8_4 H 0.4992 0.1885 0.3038 0.0360 Uiso
C11_4 C 0.3602(11) 0.2698(10) 0.2035(5) 0.0400 Uiso
H9_4 H 0.3959 0.2394 0.1713 0.0480 Uiso
H10_4 H 0.2787 0.2913 0.1962 0.0480 Uiso
C20_4 C 0.4912(9) 0.6627(8) 0.2345(4) 0.0190 Uiso
N3_4 N 0.4266(8) 0.6295(8) 0.2759(3) 0.0300 Uiso
H15_4 H 0.4242 0.5590 0.2887 0.0360 Uiso
C21_4 C 0.3674(11) 0.8187(11) 0.2528(5) 0.0520 Uiso
H16_4 H 0.2943 0.8218 0.2327 0.0620 Uiso
H17_4 H 0.3854 0.8970 0.2663 0.0620 Uiso
N4_4 N 0.4641(8) 0.7725(8) 0.2209(3) 0.0300 Uiso
H18_4 H 0.4992 0.8115 0.1962 0.0360 Uiso
C22_4 C 0.3602(11) 0.7302(10) 0.2965(5) 0.0400 Uiso
H19_4 H 0.3959 0.7606 0.3287 0.0480 Uiso
H20_4 H 0.2787 0.7087 0.3038 0.0480 Uiso
O11_4 O 0.8329(6) 0.5875(6) 0.2097(2) 0.0247 Uiso
O12_4 O 0.7004(6) 0.6361(6) 0.3048(3) 0.0228 Uiso
O14_4 O 0.5901(5) 0.5853(5) 0.3749(2) 0.0237 Uiso
O15_4 O 0.5954(6) 0.2240(6) 0.3747(3) 0.0232 Uiso
C3_3 C 0.3617(8) 0.2148(8) 0.8635(4) 0.0130 Uiso
C4_3 C 0.3461(10) 0.0079(9) 0.8434(4) 0.0250 Uiso
C5_3 C 0.4001(10) 0.1848(9) 0.9142(4) 0.0280 Uiso
H3_3 H 0.4198 0.2439 0.9383 0.0340 Uiso
C6_3 C 0.3551(9) 0.3403(9) 0.8463(4) 0.0220 Uiso
C7_3 C 0.4088(9) 0.0695(9) 0.9286(4) 0.0260 Uiso
H4_3 H 0.4321 0.0513 0.9629 0.0310 Uiso
C8_3 C 0.3325(9) 0.1227(9) 0.8290(4) 0.0240 Uiso
H5_3 H 0.3031 0.1404 0.7955 0.0290 Uiso
C13_3 C 0.2148(8) 0.6383(8) 0.1135(4) 0.0130 Uiso
C14_3 C 0.0079(9) 0.6539(10) 0.0934(4) 0.0250 Uiso
C15_3 C 0.1848(9) 0.5999(10) 0.1642(4) 0.0280 Uiso
H12_3 H 0.2439 0.5802 0.1883 0.0340 Uiso
C16_3 C 0.3403(9) 0.6449(9) 0.0963(4) 0.0220 Uiso
C17_3 C 0.0695(9) 0.5912(9) 0.1786(4) 0.0260 Uiso
H13_3 H 0.0513 0.5679 0.2129 0.0310 Uiso
C18_3 C 0.1227(9) 0.6675(9) 0.0790(4) 0.0240 Uiso
H14_3 H 0.1404 0.6969 0.0455 0.0290 Uiso
C2_3 C 0.3845(9) 0.9797(9) 0.8944(4) 0.0180 Uiso
H2_3 H 0.3299 0.9479 0.8192 0.0300 Uiso
C10_3 C 0.4023(9) 0.8529(9) 0.9105(4) 0.0200 Uiso
C12_3 C 0.9797(9) 0.6155(9) 0.1444(4) 0.0180 Uiso
H11_3 H 0.9479 0.6701 0.0692 0.0300 Uiso
C19_3 C 0.8529(9) 0.5977(9) 0.1605(4) 0.0200 Uiso
C12_4 C 0.0203(9) 0.3845(9) 0.6444(4) 0.0180 Uiso
H11_4 H 0.0521 0.3299 0.5692 0.0300 Uiso
C19_4 C 0.1471(9) 0.4023(9) 0.6605(4) 0.0200 Uiso
C2_4 C 0.6155(9) 0.0203(9) 0.3944(4) 0.0180 Uiso
H2_4 H 0.6701 0.0521 0.3192 0.0300 Uiso
C10_4 C 0.5977(9) 0.1471(9) 0.4105(4) 0.0200 Uiso
C13_4 C 0.7852(8) 0.3617(8) 0.6135(4) 0.0130 Uiso
C14_4 C 0.9921(9) 0.3461(10) 0.5934(4) 0.0250 Uiso
C15_4 C 0.8152(9) 0.4001(10) 0.6642(4) 0.0280 Uiso
H12_4 H 0.7561 0.4198 0.6883 0.0340 Uiso
C16_4 C 0.6597(9) 0.3551(9) 0.5963(4) 0.0220 Uiso
C17_4 C 0.9305(9) 0.4088(9) 0.6786(4) 0.0260 Uiso
H13_4 H 0.9487 0.4321 0.7129 0.0310 Uiso
C18_4 C 0.8773(9) 0.3325(9) 0.5790(4) 0.0240 Uiso
H14_4 H 0.8596 0.3031 0.5455 0.0290 Uiso
C3_4 C 0.6383(8) 0.7852(8) 0.3635(4) 0.0130 Uiso
C4_4 C 0.6539(10) 0.9921(9) 0.3434(4) 0.0250 Uiso
C5_4 C 0.5999(10) 0.8152(9) 0.4142(4) 0.0280 Uiso
H3_4 H 0.5802 0.7561 0.4383 0.0340 Uiso
C6_4 C 0.6449(9) 0.6597(9) 0.3463(4) 0.0220 Uiso
C7_4 C 0.5912(9) 0.9305(9) 0.4286(4) 0.0260 Uiso
H4_4 H 0.5679 0.9487 0.4629 0.0310 Uiso
C8_4 C 0.6675(9) 0.8773(9) 0.3290(4) 0.0240 Uiso
H5_4 H 0.6969 0.8596 0.2955 0.0290 Uiso
loop_
_geom_bond_atom_site_label_1
_geom_bond_atom_site_label_2
_geom_bond_site_symmetry_1
_geom_bond_site_symmetry_2
O7 C19 1_555 1_555
O8 C19 1_555 1_555
C19 C12 1_555 1_555
Co6 O7 1_555 1_555
Co7 O8 1_555 1_555
O1 C6 1_555 1_555
C3 C5 1_555 1_555
O5 C6 1_555 1_555
C5 H3 1_555 1_555
C6 C3 1_555 1_555
H4 C7 1_555 1_555
C8 C3 1_555 1_555
H5 C8 1_555 1_555
Co3 O1 1_555 1_555
Co4 O5 1_555 1_555
C4 C8 1_555 1_555
C5 C7 1_555 1_555
Co1 O3 1_555 1_555
Co3 O2 1_555 1_555
O2 C10 1_555 1_555
C1 O4 1_555 1_555
O3 C10 1_555 1_555
O4 Co1 1_555 1_555
C10 C2 1_555 1_555
N2 C1 1_555 1_555
H8 N2 1_555 1_555
H15 N3 1_555 1_555
H17 C21 1_555 1_555
C22 N3 1_555 1_555
H19 C22 1_555 1_555
H20 C22 1_555 1_555
O12 Co1 1_555 1_555
O14 Co3 1_555 1_555
O15 Co3 1_555 1_555
O16 Co3 1_555 1_555
Co3 O4 1_555 1_555
C21 C22 1_555 1_555
H1 N1 1_555 1_555
H7 C9 1_555 1_555
C11 N1 1_555 1_555
H9 C11 1_555 1_555
H10 C11 1_555 1_555
O6 C16 1_555 1_555
C13 C15 1_555 1_555
O9 Co1_2 1_555 1_555
C15 H12 1_555 1_555
C16 C13 1_555 1_555
H13 C17 1_555 1_555
C18 C13 1_555 1_555
H14 C18 1_555 1_555
C20 O10 1_555 1_555
O10 Co1_2 1_555 1_555
N4 C20 1_555 1_555
H18 N4 1_555 1_555
O11 Co1_2 1_555 1_555
Co6 O6 1_555 1_555
C9 C11 1_555 1_555
O9 C16 1_555 1_555
C14 C18 1_555 1_555
C15 C17 1_555 1_555
O10 Co6 1_555 1_555
Co1_3 O3_2 1_555 1_555
Co2 O2_2 1_555 1_555
O2_2 C10_2 1_555 1_555
C1_2 O4_2 1_555 1_555
O3_2 C10_2 1_555 1_555
O4_2 Co1_3 1_555 1_555
N1_2 C1_2 1_555 1_555
H1_2 N1_2 1_555 1_555
C9_2 H6_2 1_555 1_555
H7_2 C9_2 1_555 1_555
C10_2 C2_2 1_555 1_555
N2_2 C1_2 1_555 1_555
H8_2 N2_2 1_555 1_555
C11_2 N1_2 1_555 1_555
H9_2 C11_2 1_555 1_555
H10_2 C11_2 1_555 1_555
O6_2 C16_2 1_555 1_555
C13_2 C15_2 1_555 1_555
O9_2 Co1_3 1_555 1_555
C15_2 H12_2 1_555 1_555
C16_2 C13_2 1_555 1_555
H13_2 C17_2 1_555 1_555
C18_2 C13_2 1_555 1_555
H14_2 C18_2 1_555 1_555
C20_2 O10_2 1_555 1_555
O10_2 Co1_3 1_555 1_555
N3_2 C20_2 1_555 1_555
H15_2 N3_2 1_555 1_555
C21_2 H16_2 1_555 1_555
H17_2 C21_2 1_555 1_555
N4_2 C20_2 1_555 1_555
H18_2 N4_2 1_555 1_555
C22_2 N3_2 1_555 1_555
H19_2 C22_2 1_555 1_555
H20_2 C22_2 1_555 1_555
O11_2 Co1_3 1_555 1_555
O12_2 Co1_3 1_555 1_555
O13 Co2 1_555 1_555
O14_2 Co2 1_555 1_555
O15_2 Co2 1_555 1_555
O16_2 Co2 1_555 1_555
Co5 O6_2 1_555 1_555
Co2 O4_2 1_555 1_555
C9_2 C11_2 1_555 1_555
C9_2 N2_2 1_555 1_555
O9_2 C16_2 1_555 1_555
C14_2 C18_2 1_555 1_555
C15_2 C17_2 1_555 1_555
O10_2 Co5 1_555 1_555
C21_2 C22_2 1_555 1_555
C21_2 N4_2 1_555 1_555
O13 C6_2 1_555 1_555
C3_2 C5_2 1_555 1_555
O5_2 C6_2 1_555 1_555
C5_2 H3_2 1_555 1_555
C6_2 C3_2 1_555 1_555
H4_2 C7_2 1_555 1_555
C8_2 C3_2 1_555 1_555
H5_2 C8_2 1_555 1_555
Co7 O5_2 1_555 1_555
C4_2 C8_2 1_555 1_555
C5_2 C7_2 1_555 1_555
O7_2 C19_2 1_555 1_555
O8_2 C19_2 1_555 1_555
C19_2 C12_2 1_555 1_555
Co5 O7_2 1_555 1_555
Co4 O8_2 1_555 1_555
C1_3 O4_3 1_555 1_555
O4_3 Co7 1_555 1_555
N1_3 C1_3 1_555 1_555
H1_3 N1_3 1_555 1_555
C9_3 H6_3 1_555 1_555
H7_3 C9_3 1_555 1_555
N2_3 C1_3 1_555 1_555
H8_3 N2_3 1_555 1_555
C11_3 N1_3 1_555 1_555
H9_3 C11_3 1_555 1_555
H10_3 C11_3 1_555 1_555
C20_3 O16_2 1_555 1_555
O16_2 Co7 1_555 1_555
N3_3 C20_3 1_555 1_555
H15_3 N3_3 1_555 1_555
C21_3 H16_3 1_555 1_555
H17_3 C21_3 1_555 1_555
N4_3 C20_3 1_555 1_555
H18_3 N4_3 1_555 1_555
C22_3 N3_3 1_555 1_555
H19_3 C22_3 1_555 1_555
H20_3 C22_3 1_555 1_555
O11_3 Co7 1_555 1_555
O12_3 Co7 1_555 1_555
O14_3 Co6 1_555 1_555
O15_3 Co6 1_555 1_555
Co6 O4_3 1_555 1_555
C9_3 C11_3 1_555 1_555
C9_3 N2_3 1_555 1_555
C21_3 C22_3 1_555 1_555
C21_3 N4_3 1_555 1_555
C1_4 O4_4 1_555 1_555
O4_4 Co4 1_555 1_555
N1_4 C1_4 1_555 1_555
H1_4 N1_4 1_555 1_555
C9_4 H6_4 1_555 1_555
H7_4 C9_4 1_555 1_555
N2_4 C1_4 1_555 1_555
H8_4 N2_4 1_555 1_555
C11_4 N1_4 1_555 1_555
H9_4 C11_4 1_555 1_555
H10_4 C11_4 1_555 1_555
C20_4 O16 1_555 1_555
O16 Co4 1_555 1_555
N3_4 C20_4 1_555 1_555
H15_4 N3_4 1_555 1_555
C21_4 H16_4 1_555 1_555
H17_4 C21_4 1_555 1_555
N4_4 C20_4 1_555 1_555
H18_4 N4_4 1_555 1_555
C22_4 N3_4 1_555 1_555
H19_4 C22_4 1_555 1_555
H20_4 C22_4 1_555 1_555
O11_4 Co4 1_555 1_555
O12_4 Co4 1_555 1_555
O14_4 Co5 1_555 1_555
O15_4 Co5 1_555 1_555
Co5 O4_4 1_555 1_555
C9_4 C11_4 1_555 1_555
C9_4 N2_4 1_555 1_555
C21_4 C22_4 1_555 1_555
C21_4 N4_4 1_555 1_555
O14_3 C6_3 1_555 1_555
C3_3 C5_3 1_555 1_555
O12_3 C6_3 1_555 1_555
C5_3 H3_3 1_555 1_555
C6_3 C3_3 1_555 1_555
H4_3 C7_3 1_555 1_555
C8_3 C3_3 1_555 1_555
H5_3 C8_3 1_555 1_555
C4_3 C8_3 1_555 1_555
C5_3 C7_3 1_555 1_555
O14 C16_3 1_555 1_555
C13_3 C15_3 1_555 1_555
C15_3 H12_3 1_555 1_555
C16_3 C13_3 1_555 1_555
H13_3 C17_3 1_555 1_555
C18_3 C13_3 1_555 1_555
H14_3 C18_3 1_555 1_555
O12 C16_3 1_555 1_555
C14_3 C18_3 1_555 1_555
C15_3 C17_3 1_555 1_555
O15_3 C10_3 1_555 1_555
O11 C10_3 1_555 1_555
C10_3 C2_3 1_555 1_555
O15 C19_3 1_555 1_555
O11_4 C19_3 1_555 1_555
C19_3 C12_3 1_555 1_555
O15_2 C19_4 1_555 1_555
O11_3 C19_4 1_555 1_555
C19_4 C12_4 1_555 1_555
O15_4 C10_4 1_555 1_555
O11_2 C10_4 1_555 1_555
C10_4 C2_4 1_555 1_555
O14_2 C16_4 1_555 1_555
C13_4 C15_4 1_555 1_555
C15_4 H12_4 1_555 1_555
C16_4 C13_4 1_555 1_555
H13_4 C17_4 1_555 1_555
C18_4 C13_4 1_555 1_555
H14_4 C18_4 1_555 1_555
O12_2 C16_4 1_555 1_555
C14_4 C18_4 1_555 1_555
C15_4 C17_4 1_555 1_555
O14_4 C6_4 1_555 1_555
C3_4 C5_4 1_555 1_555
O12_4 C6_4 1_555 1_555
C5_4 H3_4 1_555 1_555
C6_4 C3_4 1_555 1_555
H4_4 C7_4 1_555 1_555
C8_4 C3_4 1_555 1_555
H5_4 C8_4 1_555 1_555
C4_4 C8_4 1_555 1_555
C5_4 C7_4 1_555 1_555

#END
