
###############################################################################
#
# This file contains modified crystal structure data generated from the
# MOF subset of the Cambridge Structural Database (CSD) v543 
# hosted by the Cambridge Crystallographic Data Centre (CCDC).
#
# This work is licensed under the Creative Commons
# Attribution-NonCommercial-ShareAlike 4.0 International License.
# To view a copy of this license, visit
# http://creativecommons.org/licenses/by-nc-sa/4.0/
# or send a letter to
# Creative Commons, PO Box 1866, Mountain View, CA 94042, USA.
#
# CIF created using the CSD Python API on 29 September 2022
# The structure has been converted into the P1 space group
# The structure has a 3D framework
# The original CSD entry EPEWAY is in the tetragonal crystal system
# The original CSD entry EPEWAY is in a Sohncke space group
# The framework has been calculated to contain at least 10.0% void space
# The void calculation uses a probe of radius 1.32A, grid spacing 0.4
#
###############################################################################

data_EPEWAY
_chemical_formula_moiety         '(C88 H80 Co10 N16 O40)n'
_symmetry_cell_setting           triclinic
_symmetry_space_group_name_H-M   'P 1'
_symmetry_Int_Tables_number      1
_space_group_name_Hall           'P 1'
loop_
_symmetry_equiv_pos_site_id
_symmetry_equiv_pos_as_xyz
1 x,y,z
_cell_length_a                   11.3140(2)
_cell_length_b                   11.3140(2)
_cell_length_c                   25.2429(10)
_cell_angle_alpha                90
_cell_angle_beta                 90
_cell_angle_gamma                90
_cell_volume                     3231.26
loop_
_atom_site_label
_atom_site_type_symbol
_atom_site_fract_x
_atom_site_fract_y
_atom_site_fract_z
Co2 Co -0.0000 0.20330(14) 0.0000
O1 O 0.0855(5) 0.0893(5) 0.1250(2)
O2 O 0.7242(5) 0.0951(6) 0.1247(2)
O3 O 0.6663(5) 0.0886(6) 0.2097(2)
O4 O 0.1357(5) 0.2015(6) 0.0550(2)
C2 C 0.5208(7) 0.1166(8) 0.1445(3)
C3 C 0.1574(8) 0.1441(8) 0.0965(3)
C4 C 0.6477(8) 0.0971(8) 0.1604(3)
C5 C 0.3151(8) 0.1003(9) 0.1649(3)
H2 H 0.2558 0.0810 0.1889
C6 C 0.2860(8) 0.1394(8) 0.1136(3)
C7 C 0.4310(8) 0.0909(9) 0.1791(4)
H3 H 0.4497 0.0663 0.2132
C8 C 0.4926(8) 0.1549(9) 0.0933(3)
H4 H 0.5522 0.1711 0.0690
C9 C 0.3763(8) 0.1682(9) 0.0795(4)
H6 H 0.3578 0.1974 0.0460
C20 C 0.0081(8) 0.1634(8) 0.2344(3)
N3 N 0.0742(7) 0.1300(7) 0.2763(3)
H15 H 0.0760 0.0597 0.2892
N4 N 0.0353(8) 0.2732(7) 0.2207(3)
C21 C 0.1323(11) 0.3208(10) 0.2524(4)
H17 H 0.1133 0.3983 0.2664
H18 H 0.2048 0.3255 0.2320
C22 C 0.1413(10) 0.2288(10) 0.2963(4)
H19 H 0.2230 0.2067 0.3026
H20 H 0.1075 0.2584 0.3291
Co3 Co 0.90371(11) 0.09629(11) 0.1250
Co4 Co 0.79670(14) -0.0000 0.2500
Co2_2 Co -0.0000 0.20330(14) 1.0000
O13 O 0.0886(6) 0.3337(5) 0.9597(2)
O16 O 0.0972(5) 0.0661(5) 0.9613(2)
Co4_2 Co 0.79670(14) 1.0000 0.2500
Co2_3 Co 1.0000 0.20330(14) 0.0000
O5 O 0.9028(5) 0.0661(5) 0.0387(2)
H5 H 0.6881 0.0001 0.0539
O10 O 0.9339(5) 0.0972(5) 0.2113(2)
H16 H 0.9999 0.3119 0.1961
O12 O 0.9049(6) 0.2758(5) 0.1253(2)
O14 O 0.9114(6) 0.3337(5) 0.0403(2)
Co2_4 Co 1.0000 0.20330(14) 1.0000
O15 O 0.8643(5) 0.2015(6) 0.9450(2)
C1 C 0.8366(8) 0.9919(8) 0.0156(3)
N2 N 0.7268(7) 0.9647(8) 0.0293(3)
H8 H 0.6745 0.7952 0.0180
O11 O 0.9107(5) 0.9145(5) 0.1250(2)
N1 N 0.8700(7) 0.9258(7) 0.9737(3)
H1 H 0.9403 0.9240 0.9608
C10 C 0.6792(10) 0.8677(11) 0.9976(4)
H7 H 0.6017 0.8867 0.9836
C11 C 0.7712(10) 0.8587(10) 0.9537(4)
H9 H 0.7933 0.7770 0.9474
H10 H 0.7416 0.8925 0.9209
Co5 Co 0.09629(11) 0.90371(11) 0.6250
Co7 Co -0.0000 0.79670(14) 0.5000
C1_2 C 0.1634(8) 0.0081(8) 0.5156(3)
N1_2 N 0.1300(7) 0.0742(7) 0.4737(3)
H1_2 H 0.0597 0.0760 0.4608
N2_2 N 0.2732(7) 0.0353(8) 0.5293(3)
C10_2 C 0.3208(10) 0.1323(11) 0.4976(4)
H7_2 H 0.3983 0.1133 0.4836
H8_2 H 0.3255 0.2048 0.5180
C11_2 C 0.2288(10) 0.1413(10) 0.4537(4)
H9_2 H 0.2067 0.2230 0.4474
H10_2 H 0.2584 0.1075 0.4209
O11_2 O 0.0893(5) 0.0855(5) 0.6250(2)
Co6 Co 0.20330(14) -0.0000 0.7500
O5_2 O 0.0972(5) 0.9339(5) 0.5387(2)
H5_2 H 0.3119 0.9999 0.5539
O6 O 0.9145(5) 0.9107(5) 0.6250(2)
O7 O 0.2758(5) 0.9049(6) 0.6247(2)
O8 O 0.3337(5) 0.9114(6) 0.7097(2)
O9 O 0.8643(5) 0.7985(6) 0.5550(2)
C12 C 0.4792(7) 0.8834(8) 0.6445(3)
C13 C 0.8426(8) 0.8559(8) 0.5965(3)
C14 C 0.3523(8) 0.9029(8) 0.6604(3)
C15 C 0.6849(8) 0.8997(9) 0.6649(3)
H11 H 0.7442 0.9190 0.6889
C16 C 0.7140(8) 0.8606(8) 0.6136(3)
C17 C 0.5690(8) 0.9091(9) 0.6791(4)
H12 H 0.5503 0.9337 0.7132
C18 C 0.5074(8) 0.8451(9) 0.5933(3)
H13 H 0.4478 0.8289 0.5690
C19 C 0.6237(8) 0.8318(9) 0.5795(4)
H14 H 0.6422 0.8026 0.5460
O10_2 O 0.0661(5) 0.9028(5) 0.7113(2)
H16_2 H 0.0001 0.6881 0.6961
O12_2 O 0.0951(6) 0.7242(5) 0.6253(2)
O14_2 O 0.0886(6) 0.6663(5) 0.5403(2)
O15_2 O 0.1357(5) 0.7985(6) 0.4450(2)
Co6_2 Co 0.20330(14) 1.0000 0.7500
Co7_2 Co 1.0000 0.79670(14) 0.5000
C20_2 C 0.9919(8) 0.8366(8) 0.7344(3)
N3_2 N 0.9258(7) 0.8700(7) 0.7763(3)
H15_2 H 0.9240 0.9403 0.7892
N4_2 N 0.9647(8) 0.7268(7) 0.7207(3)
C21_2 C 0.8677(11) 0.6792(10) 0.7524(4)
H17_2 H 0.8867 0.6017 0.7664
H18_2 H 0.7952 0.6745 0.7320
C22_2 C 0.8587(10) 0.7712(10) 0.7963(4)
H19_2 H 0.7770 0.7933 0.8026
H20_2 H 0.8925 0.7416 0.8291
O13_2 O 0.9114(6) 0.6663(5) 0.4597(2)
O16_2 O 0.9028(5) 0.9339(5) 0.4613(2)
C1_3 C 0.0081(8) 0.8366(8) 0.2656(3)
N1_3 N 0.0742(7) 0.8700(7) 0.2237(3)
H1_3 H 0.0760 0.9403 0.2108
N2_3 N 0.0353(8) 0.7268(7) 0.2793(3)
C10_3 C 0.1323(11) 0.6792(10) 0.2476(4)
H7_3 H 0.1133 0.6017 0.2336
H8_3 H 0.2048 0.6745 0.2680
C11_3 C 0.1413(10) 0.7712(10) 0.2037(4)
H9_3 H 0.2230 0.7933 0.1974
H10_3 H 0.1075 0.7416 0.1709
O11_3 O 0.0855(5) 0.9107(5) 0.3750(2)
O1_2 O 0.9107(5) 0.0855(5) 0.3750(2)
O2_2 O 0.9049(6) 0.7242(5) 0.3747(2)
O4_2 O 0.7985(6) 0.1357(5) 0.3050(2)
C2_2 C 0.8834(8) 0.5208(7) 0.3945(3)
C3_2 C 0.8559(8) 0.1574(8) 0.3465(3)
C4_2 C 0.9029(8) 0.6477(8) 0.4104(3)
C5_2 C 0.8997(9) 0.3151(8) 0.4149(3)
H2_2 H 0.9190 0.2558 0.4389
C6_2 C 0.8606(8) 0.2860(8) 0.3636(3)
C7_2 C 0.9091(9) 0.4310(8) 0.4291(4)
H3_2 H 0.9337 0.4497 0.4632
C8_2 C 0.8451(9) 0.4926(8) 0.3433(3)
H4_2 H 0.8289 0.5522 0.3190
C9_2 C 0.8318(9) 0.3763(8) 0.3295(4)
H6_2 H 0.8026 0.3578 0.2960
C20_3 C 0.8366(8) 0.0081(8) 0.4844(3)
N3_3 N 0.8700(7) 0.0742(7) 0.5263(3)
H15_3 H 0.9403 0.0760 0.5392
N4_3 N 0.7268(7) 0.0353(8) 0.4707(3)
C21_3 C 0.6792(10) 0.1323(11) 0.5024(4)
H17_3 H 0.6017 0.1133 0.5164
H18_3 H 0.6745 0.2048 0.4820
C22_3 C 0.7712(10) 0.1413(10) 0.5463(4)
H19_3 H 0.7933 0.2230 0.5526
H20_3 H 0.7416 0.1075 0.5791
Co3_2 Co 0.90371(11) 0.90371(11) 0.3750
O5_3 O 0.9339(5) 0.9028(5) 0.2887(2)
H5_3 H 0.9999 0.6881 0.3039
H16_3 H 0.6881 0.9999 0.4461
O12_3 O 0.7242(5) 0.9049(6) 0.3753(2)
O14_3 O 0.6663(5) 0.9114(6) 0.2903(2)
O15_3 O 0.7985(6) 0.8643(5) 0.1950(2)
Co5_2 Co 0.09629(11) 0.09629(11) 0.8750
O5_4 O 0.0661(5) 0.0972(5) 0.7887(2)
H5_4 H 0.0001 0.3119 0.8039
O6_2 O 0.0893(5) 0.9145(5) 0.8750(2)
O7_2 O 0.0951(6) 0.2758(5) 0.8747(2)
O9_2 O 0.2015(6) 0.8643(5) 0.8050(2)
C12_2 C 0.1166(8) 0.4792(7) 0.8945(3)
C13_2 C 0.1441(8) 0.8426(8) 0.8465(3)
C14_2 C 0.0971(8) 0.3523(8) 0.9104(3)
C15_2 C 0.1003(9) 0.6849(8) 0.9149(3)
H11_2 H 0.0810 0.7442 0.9389
C16_2 C 0.1394(8) 0.7140(8) 0.8636(3)
C17_2 C 0.0909(9) 0.5690(8) 0.9291(4)
H12_2 H 0.0663 0.5503 0.9632
C18_2 C 0.1549(9) 0.5074(8) 0.8433(3)
H13_2 H 0.1711 0.4478 0.8190
C19_2 C 0.1682(9) 0.6237(8) 0.8295(4)
H14_2 H 0.1974 0.6422 0.7960
H16_4 H 0.3119 0.0001 0.9461
O12_4 O 0.2758(5) 0.0951(6) 0.8753(2)
O14_4 O 0.3337(5) 0.0886(6) 0.7903(2)
O15_4 O 0.2015(6) 0.1357(5) 0.6950(2)
N3_4 N 0.1300(7) 0.9258(7) 0.0263(3)
H15_4 H 0.0597 0.9240 0.0392
C21_4 C 0.3208(10) 0.8677(11) 0.0024(4)
H17_4 H 0.3983 0.8867 0.0164
C22_4 C 0.2288(10) 0.8587(10) 0.0463(4)
H19_4 H 0.2067 0.7770 0.0526
H20_4 H 0.2584 0.8925 0.0791
C20_4 C 0.1634(8) 0.9919(8) 0.9844(3)
N4_4 N 0.2732(7) 0.9647(8) 0.9707(3)
H18_4 H 0.3255 0.7952 0.9820
C1_4 C 0.9919(8) 0.1634(8) 0.7656(3)
N1_4 N 0.9258(7) 0.1300(7) 0.7237(3)
H1_4 H 0.9240 0.0597 0.7108
N2_4 N 0.9647(8) 0.2732(7) 0.7793(3)
C10_4 C 0.8677(11) 0.3208(10) 0.7476(4)
H7_4 H 0.8867 0.3983 0.7336
H8_4 H 0.7952 0.3255 0.7680
C11_4 C 0.8587(10) 0.2288(10) 0.7037(4)
H9_4 H 0.7770 0.2067 0.6974
H10_4 H 0.8925 0.2584 0.6709
O11_4 O 0.9145(5) 0.0893(5) 0.8750(2)
C12_3 C 0.4792(7) 0.1166(8) 0.8555(3)
C13_3 C 0.8426(8) 0.1441(8) 0.9035(3)
C14_3 C 0.3523(8) 0.0971(8) 0.8396(3)
C15_3 C 0.6849(8) 0.1003(9) 0.8351(3)
H11_3 H 0.7442 0.0810 0.8111
C16_3 C 0.7140(8) 0.1394(8) 0.8864(3)
C17_3 C 0.5690(8) 0.0909(9) 0.8209(4)
H12_3 H 0.5503 0.0663 0.7868
C18_3 C 0.5074(8) 0.1549(9) 0.9067(3)
H13_3 H 0.4478 0.1711 0.9310
C19_3 C 0.6237(8) 0.1682(9) 0.9205(4)
H14_3 H 0.6422 0.1974 0.9540
C2_3 C 0.5208(7) 0.8834(8) 0.3555(3)
C3_3 C 0.1574(8) 0.8559(8) 0.4035(3)
C4_3 C 0.6477(8) 0.9029(8) 0.3396(3)
C5_3 C 0.3151(8) 0.8997(9) 0.3351(3)
H2_3 H 0.2558 0.9190 0.3111
C6_3 C 0.2860(8) 0.8606(8) 0.3864(3)
C7_3 C 0.4310(8) 0.9091(9) 0.3209(4)
H3_3 H 0.4497 0.9337 0.2868
C8_3 C 0.4926(8) 0.8451(9) 0.4067(3)
H4_3 H 0.5522 0.8289 0.4310
C9_3 C 0.3763(8) 0.8318(9) 0.4205(4)
H6_3 H 0.3578 0.8026 0.4540
C2_4 C 0.1166(8) 0.5208(7) 0.6055(3)
C3_4 C 0.1441(8) 0.1574(8) 0.6535(3)
C4_4 C 0.0971(8) 0.6477(8) 0.5896(3)
C5_4 C 0.1003(9) 0.3151(8) 0.5851(3)
H2_4 H 0.0810 0.2558 0.5611
C6_4 C 0.1394(8) 0.2860(8) 0.6364(3)
C7_4 C 0.0909(9) 0.4310(8) 0.5709(4)
H3_4 H 0.0663 0.4497 0.5368
C8_4 C 0.1549(9) 0.4926(8) 0.6567(3)
H4_4 H 0.1711 0.5522 0.6810
C9_4 C 0.1682(9) 0.3763(8) 0.6705(4)
H6_4 H 0.1974 0.3578 0.7040
C12_4 C 0.8834(8) 0.4792(7) 0.1055(3)
C13_4 C 0.8559(8) 0.8426(8) 0.1535(3)
C14_4 C 0.9029(8) 0.3523(8) 0.0896(3)
C15_4 C 0.8997(9) 0.6849(8) 0.0851(3)
H11_4 H 0.9190 0.7442 0.0611
C16_4 C 0.8606(8) 0.7140(8) 0.1364(3)
C17_4 C 0.9091(9) 0.5690(8) 0.0709(4)
H12_4 H 0.9337 0.5503 0.0368
C18_4 C 0.8451(9) 0.5074(8) 0.1567(3)
H13_4 H 0.8289 0.4478 0.1810
C19_4 C 0.8318(9) 0.6237(8) 0.1705(4)
H14_4 H 0.8026 0.6422 0.2040
loop_
_geom_bond_atom_site_label_1
_geom_bond_atom_site_label_2
_geom_bond_site_symmetry_1
_geom_bond_site_symmetry_2
Co2 O4 1_555 1_555
O1 C3 1_555 1_555
O2 C4 1_555 1_555
O3 C4 1_555 1_555
O4 C3 1_555 1_555
C2 C4 1_555 1_555
C3 C6 1_555 1_555
C5 H2 1_555 1_555
C6 C5 1_555 1_555
C7 C2 1_555 1_555
H3 C7 1_555 1_555
C8 C2 1_555 1_555
H4 C8 1_555 1_555
C9 C6 1_555 1_555
H6 C9 1_555 1_555
N3 C20 1_555 1_555
H15 N3 1_555 1_555
N4 C20 1_555 1_555
C21 N4 1_555 1_555
H17 C21 1_555 1_555
H18 C21 1_555 1_555
C22 N3 1_555 1_555
H19 C22 1_555 1_555
H20 C22 1_555 1_555
Co3 O2 1_555 1_555
Co4 O3 1_555 1_555
C5 C7 1_555 1_555
C8 C9 1_555 1_555
C21 C22 1_555 1_555
O13 Co2_2 1_555 1_555
O16 Co2_2 1_555 1_555
O5 Co3 1_555 1_555
O10 Co3 1_555 1_555
O12 Co3 1_555 1_555
O14 Co2_3 1_555 1_555
Co2_3 O5 1_555 1_555
O10 Co4 1_555 1_555
O15 Co2_4 1_555 1_555
N2 C1 1_555 1_555
H1 N1 1_555 1_555
H7 C10 1_555 1_555
C11 N1 1_555 1_555
H9 C11 1_555 1_555
H10 C11 1_555 1_555
C10 C11 1_555 1_555
N1_2 C1_2 1_555 1_555
H1_2 N1_2 1_555 1_555
N2_2 C1_2 1_555 1_555
C10_2 N2_2 1_555 1_555
H7_2 C10_2 1_555 1_555
H8_2 C10_2 1_555 1_555
C11_2 N1_2 1_555 1_555
H9_2 C11_2 1_555 1_555
H10_2 C11_2 1_555 1_555
C10_2 C11_2 1_555 1_555
O5_2 Co5 1_555 1_555
O6 C13 1_555 1_555
O7 Co5 1_555 1_555
O8 C14 1_555 1_555
O9 C13 1_555 1_555
C12 C14 1_555 1_555
C13 C16 1_555 1_555
C14 O7 1_555 1_555
C15 H11 1_555 1_555
C16 C15 1_555 1_555
C17 C12 1_555 1_555
H12 C17 1_555 1_555
C18 C12 1_555 1_555
H13 C18 1_555 1_555
C19 C16 1_555 1_555
H14 C19 1_555 1_555
O10_2 Co5 1_555 1_555
O12_2 Co5 1_555 1_555
O14_2 Co7 1_555 1_555
O15_2 Co7 1_555 1_555
Co6_2 O8 1_555 1_555
Co7_2 O9 1_555 1_555
Co7 O5_2 1_555 1_555
C15 C17 1_555 1_555
C18 C19 1_555 1_555
O10_2 Co6_2 1_555 1_555
N3_2 C20_2 1_555 1_555
H15_2 N3_2 1_555 1_555
N4_2 C20_2 1_555 1_555
C21_2 N4_2 1_555 1_555
H17_2 C21_2 1_555 1_555
H18_2 C21_2 1_555 1_555
C22_2 N3_2 1_555 1_555
H19_2 C22_2 1_555 1_555
H20_2 C22_2 1_555 1_555
O13_2 Co7_2 1_555 1_555
O16_2 Co7_2 1_555 1_555
C21_2 C22_2 1_555 1_555
N1_3 C1_3 1_555 1_555
H1_3 N1_3 1_555 1_555
N2_3 C1_3 1_555 1_555
C10_3 N2_3 1_555 1_555
H7_3 C10_3 1_555 1_555
H8_3 C10_3 1_555 1_555
C11_3 N1_3 1_555 1_555
H9_3 C11_3 1_555 1_555
H10_3 C11_3 1_555 1_555
C10_3 C11_3 1_555 1_555
Co4 O4_2 1_555 1_555
O1_2 C3_2 1_555 1_555
O2_2 C4_2 1_555 1_555
O13_2 C4_2 1_555 1_555
O4_2 C3_2 1_555 1_555
C2_2 C4_2 1_555 1_555
C3_2 C6_2 1_555 1_555
C5_2 H2_2 1_555 1_555
C6_2 C5_2 1_555 1_555
C7_2 C2_2 1_555 1_555
H3_2 C7_2 1_555 1_555
C8_2 C2_2 1_555 1_555
H4_2 C8_2 1_555 1_555
C9_2 C6_2 1_555 1_555
H6_2 C9_2 1_555 1_555
N3_3 C20_3 1_555 1_555
H15_3 N3_3 1_555 1_555
N4_3 C20_3 1_555 1_555
C21_3 N4_3 1_555 1_555
H17_3 C21_3 1_555 1_555
H18_3 C21_3 1_555 1_555
C22_3 N3_3 1_555 1_555
H19_3 C22_3 1_555 1_555
H20_3 C22_3 1_555 1_555
Co3_2 O2_2 1_555 1_555
C5_2 C7_2 1_555 1_555
C8_2 C9_2 1_555 1_555
C21_3 C22_3 1_555 1_555
O5_3 Co3_2 1_555 1_555
O16_2 Co3_2 1_555 1_555
O12_3 Co3_2 1_555 1_555
O14_3 Co4_2 1_555 1_555
O15_3 Co4_2 1_555 1_555
Co4_2 O5_3 1_555 1_555
O5_4 Co5_2 1_555 1_555
O6_2 C13_2 1_555 1_555
O7_2 Co5_2 1_555 1_555
O13 C14_2 1_555 1_555
O9_2 C13_2 1_555 1_555
C12_2 C14_2 1_555 1_555
C13_2 C16_2 1_555 1_555
C14_2 O7_2 1_555 1_555
C15_2 H11_2 1_555 1_555
C16_2 C15_2 1_555 1_555
C17_2 C12_2 1_555 1_555
H12_2 C17_2 1_555 1_555
C18_2 C12_2 1_555 1_555
H13_2 C18_2 1_555 1_555
C19_2 C16_2 1_555 1_555
H14_2 C19_2 1_555 1_555
O16 Co5_2 1_555 1_555
O12_4 Co5_2 1_555 1_555
O14_4 Co6 1_555 1_555
O15_4 Co6 1_555 1_555
Co6_2 O9_2 1_555 1_555
Co6 O5_4 1_555 1_555
C15_2 C17_2 1_555 1_555
C18_2 C19_2 1_555 1_555
H15_4 N3_4 1_555 1_555
H17_4 C21_4 1_555 1_555
C22_4 N3_4 1_555 1_555
H19_4 C22_4 1_555 1_555
H20_4 C22_4 1_555 1_555
C21_4 C22_4 1_555 1_555
N4_4 C20_4 1_555 1_555
N1_4 C1_4 1_555 1_555
H1_4 N1_4 1_555 1_555
N2_4 C1_4 1_555 1_555
C10_4 N2_4 1_555 1_555
H7_4 C10_4 1_555 1_555
H8_4 C10_4 1_555 1_555
C11_4 N1_4 1_555 1_555
H9_4 C11_4 1_555 1_555
H10_4 C11_4 1_555 1_555
C10_4 C11_4 1_555 1_555
O11_4 C13_3 1_555 1_555
O14_4 C14_3 1_555 1_555
O15 C13_3 1_555 1_555
C12_3 C14_3 1_555 1_555
C13_3 C16_3 1_555 1_555
C14_3 O12_4 1_555 1_555
C15_3 H11_3 1_555 1_555
C16_3 C15_3 1_555 1_555
C17_3 C12_3 1_555 1_555
H12_3 C17_3 1_555 1_555
C18_3 C12_3 1_555 1_555
H13_3 C18_3 1_555 1_555
C19_3 C16_3 1_555 1_555
H14_3 C19_3 1_555 1_555
C15_3 C17_3 1_555 1_555
C18_3 C19_3 1_555 1_555
O11_3 C3_3 1_555 1_555
O12_3 C4_3 1_555 1_555
O14_3 C4_3 1_555 1_555
O15_2 C3_3 1_555 1_555
C2_3 C4_3 1_555 1_555
C3_3 C6_3 1_555 1_555
C5_3 H2_3 1_555 1_555
C6_3 C5_3 1_555 1_555
C7_3 C2_3 1_555 1_555
H3_3 C7_3 1_555 1_555
C8_3 C2_3 1_555 1_555
H4_3 C8_3 1_555 1_555
C9_3 C6_3 1_555 1_555
H6_3 C9_3 1_555 1_555
C5_3 C7_3 1_555 1_555
C8_3 C9_3 1_555 1_555
O11_2 C3_4 1_555 1_555
O12_2 C4_4 1_555 1_555
O14_2 C4_4 1_555 1_555
O15_4 C3_4 1_555 1_555
C2_4 C4_4 1_555 1_555
C3_4 C6_4 1_555 1_555
C5_4 H2_4 1_555 1_555
C6_4 C5_4 1_555 1_555
C7_4 C2_4 1_555 1_555
H3_4 C7_4 1_555 1_555
C8_4 C2_4 1_555 1_555
H4_4 C8_4 1_555 1_555
C9_4 C6_4 1_555 1_555
H6_4 C9_4 1_555 1_555
C5_4 C7_4 1_555 1_555
C8_4 C9_4 1_555 1_555
O11 C13_4 1_555 1_555
O14 C14_4 1_555 1_555
O15_3 C13_4 1_555 1_555
C12_4 C14_4 1_555 1_555
C13_4 C16_4 1_555 1_555
C14_4 O12 1_555 1_555
C15_4 H11_4 1_555 1_555
C16_4 C15_4 1_555 1_555
C17_4 C12_4 1_555 1_555
H12_4 C17_4 1_555 1_555
C18_4 C12_4 1_555 1_555
H13_4 C18_4 1_555 1_555
C19_4 C16_4 1_555 1_555
H14_4 C19_4 1_555 1_555
C15_4 C17_4 1_555 1_555
C18_4 C19_4 1_555 1_555

#END
