
###############################################################################
#
# This file contains modified crystal structure data generated from the
# MOF subset of the Cambridge Structural Database (CSD) v543 
# hosted by the Cambridge Crystallographic Data Centre (CCDC).
#
# This work is licensed under the Creative Commons
# Attribution-NonCommercial-ShareAlike 4.0 International License.
# To view a copy of this license, visit
# http://creativecommons.org/licenses/by-nc-sa/4.0/
# or send a letter to
# Creative Commons, PO Box 1866, Mountain View, CA 94042, USA.
#
# CIF created using the CSD Python API on 29 September 2022
# The structure has been converted into the P1 space group
# The structure has a 3D framework
# The original CSD entry EPEXUU is in the rhombohedral crystal system
# The framework has been calculated to contain at least 10.0% void space
# The void calculation uses a probe of radius 1.32A, grid spacing 0.4
#
###############################################################################

data_EPEXUU
_chemical_formula_moiety         '(C342 H294 Cu18 N36 O104)n'
_symmetry_cell_setting           triclinic
_symmetry_space_group_name_H-M   'P 1'
_symmetry_Int_Tables_number      1
_space_group_name_Hall           'P 1'
loop_
_symmetry_equiv_pos_site_id
_symmetry_equiv_pos_as_xyz
1 x,y,z
_cell_length_a                   21.8599(6)
_cell_length_b                   21.8599(6)
_cell_length_c                   21.3525(9)
_cell_angle_alpha                90
_cell_angle_beta                 90
_cell_angle_gamma                120
_cell_volume                     8836.41
loop_
_atom_site_label
_atom_site_type_symbol
_atom_site_fract_x
_atom_site_fract_y
_atom_site_fract_z
Cu1 Cu 0.53753(3) 0.06785(3) 0.48923(3)
O1 O 0.4571(2) 0.0541(2) 0.43613(19)
O3 O 0.3758(2) 0.1339(2) 0.25007(18)
O4 O 0.2600(2) 0.0816(2) 0.23111(18)
C2 C 0.3128(3) 0.0892(3) 0.2605(2)
C3 C 0.3552(3) 0.0430(3) 0.3488(3)
H1 H 0.4010 0.0799 0.3422
C8 C 0.2993(3) 0.0385(3) 0.3140(2)
O6 O 0.6091(3) 0.1776(3) 0.4716(3)
C17 C 0.6621(4) 0.1948(4) 0.4438(5)
H10 H 0.6552 0.1720 0.4055
N2 N 0.7278(4) 0.2387(4) 0.4560(4)
C18 C 0.7937(6) 0.2593(6) 0.4200(6)
H11 H 0.7821 0.2330 0.3817
H12 H 0.8245 0.2494 0.4445
H13 H 0.8169 0.3089 0.4108
C19 C 0.7419(8) 0.2776(7) 0.5191(5)
H14 H 0.6979 0.2627 0.5402
H15 H 0.7652 0.3276 0.5119
H16 H 0.7714 0.2668 0.5446
Cu2 Cu 0.26548(3) 0.13635(4) 0.15590(3)
Cu4 Cu 0.40118(3) 0.19699(4) 0.17744(3)
O7 O 0.6089(2) 0.0607(2) 0.54192(19)
O8 O 0.5752(3) 0.0425(2) 0.41660(18)
O9 O 0.4883(3) 0.0733(2) 0.56444(18)
O2 O 0.3911(2) 0.9393(2) 0.45808(19)
O5 O 0.1579(2) 0.8072(3) 0.4519(2)
N1 N 0.1458(3) 0.8816(3) 0.3814(3)
C1 C 0.4014(3) 0.9946(3) 0.4322(2)
C4 C 0.3415(3) 0.9916(3) 0.3936(3)
C5 C 0.2729(3) 0.9372(3) 0.4041(3)
H2 H 0.2643 0.9022 0.4332
C6 C 0.2170(3) 0.9350(3) 0.3711(3)
C7 C 0.2307(3) 0.9859(3) 0.3256(3)
H3 H 0.1937 0.9845 0.3030
C9 C 0.1219(3) 0.8239(3) 0.4208(3)
C10 C 0.0874(3) 0.8820(4) 0.3467(3)
H4 H 0.0910 0.8761 0.3021
H5 H 0.0865 0.9254 0.3540
C11 C 0.0234(3) 0.8195(4) 0.3742(3)
C12 C 0.0440(3) 0.7868(4) 0.4168(3)
H6 H 0.0104 0.7034 0.4754
Cu3 Cu 0.46247(3) 0.93215(3) 0.51077(3)
O2_2 O 0.0607(2) 0.4518(3) 0.45808(19)
O5_2 O 0.1928(3) 0.3507(4) 0.4519(2)
N1_2 N 0.1184(3) 0.2642(4) 0.3814(3)
C1_2 C 0.0054(3) 0.4068(4) 0.4322(2)
C4_2 C 0.0084(3) 0.3499(4) 0.3936(3)
C5_2 C 0.0628(3) 0.3357(4) 0.4041(3)
H2_2 H 0.0978 0.3621 0.4332
C6_2 C 0.0650(3) 0.2820(4) 0.3711(3)
C7_2 C 0.0141(3) 0.2448(4) 0.3256(3)
H3_2 H 0.0155 0.2092 0.3030
C9_2 C 0.1761(3) 0.2980(4) 0.4208(3)
C10_2 C 0.1180(4) 0.2054(5) 0.3467(3)
H4_2 H 0.1239 0.2149 0.3021
H5_2 H 0.0746 0.1611 0.3540
C11_2 C 0.1805(4) 0.2039(5) 0.3742(3)
C12_2 C 0.2132(4) 0.2572(5) 0.4168(3)
C13 C 0.2741(4) 0.2697(6) 0.4473(3)
H6_2 H 0.2966 0.3070 0.4754
C14 C 0.3003(5) 0.2260(6) 0.4354(4)
H7 H 0.3407 0.2326 0.4559
C15 C 0.2665(5) 0.1714(6) 0.3923(4)
H8 H 0.2854 0.1424 0.3842
C16 C 0.2068(5) 0.1591(6) 0.3616(4)
H9 H 0.1845 0.1220 0.3333
Cu3_2 Cu 0.06785(3) 0.53032(4) 0.51077(3)
Cu1_2 Cu 0.93215(3) 0.46968(4) 0.48923(3)
O1_2 O 0.9459(2) 0.4030(3) 0.43613(19)
O3_2 O 0.8661(2) 0.2419(3) 0.25007(18)
O4_2 O 0.9184(2) 0.1784(3) 0.23111(18)
C2_2 C 0.9108(3) 0.2236(4) 0.2605(2)
C3_2 C 0.9570(3) 0.3122(4) 0.3488(3)
H1_2 H 0.9201 0.3211 0.3422
C8_2 C 0.9615(3) 0.2608(4) 0.3140(2)
O6_2 O 0.8224(3) 0.4315(4) 0.4716(3)
C17_2 C 0.8052(4) 0.4673(6) 0.4438(5)
H10_2 H 0.8280 0.4832 0.4055
N2_2 N 0.7613(4) 0.4891(6) 0.4560(4)
C18_2 C 0.7407(6) 0.5344(8) 0.4200(6)
H11_2 H 0.7670 0.5491 0.3817
H12_2 H 0.7506 0.5751 0.4445
H13_2 H 0.6911 0.5080 0.4108
C19_2 C 0.7224(7) 0.4643(11) 0.5191(5)
H14_2 H 0.7373 0.4352 0.5402
H15_2 H 0.6724 0.4376 0.5119
H16_2 H 0.7332 0.5046 0.5446
Cu2_2 Cu 0.86365(4) 0.12914(5) 0.15590(3)
Cu4_2 Cu 0.80301(4) 0.20420(5) 0.17744(3)
O7_2 O 0.9393(2) 0.5482(3) 0.54192(19)
O8_2 O 0.9575(2) 0.5328(4) 0.41660(18)
O9_2 O 0.9267(2) 0.4149(4) 0.56444(18)
Cu1_3 Cu 0.53032(4) 0.46247(3) 0.48923(3)
O1_3 O 0.5970(3) 0.5429(2) 0.43613(19)
O2_3 O 0.5482(3) 0.6089(2) 0.45808(19)
O3_3 O 0.7581(3) 0.6242(2) 0.25007(18)
O4_3 O 0.8216(3) 0.7400(2) 0.23111(18)
O5_3 O 0.6493(4) 0.8421(2) 0.4519(2)
N1_3 N 0.7358(4) 0.8542(3) 0.3814(3)
C1_3 C 0.5932(4) 0.5986(3) 0.4322(2)
C2_3 C 0.7764(4) 0.6872(3) 0.2605(2)
C3_3 C 0.6878(4) 0.6448(3) 0.3488(3)
H1_3 H 0.6789 0.5990 0.3422
C4_3 C 0.6501(4) 0.6585(3) 0.3936(3)
C5_3 C 0.6643(4) 0.7271(3) 0.4041(3)
H2_3 H 0.6379 0.7357 0.4332
C6_3 C 0.7180(4) 0.7830(3) 0.3711(3)
C7_3 C 0.7552(4) 0.7693(3) 0.3256(3)
H3_3 H 0.7908 0.8063 0.3030
C8_3 C 0.7392(4) 0.7007(3) 0.3140(2)
C9_3 C 0.7020(4) 0.8781(3) 0.4208(3)
C10_3 C 0.7946(5) 0.9126(3) 0.3467(3)
H4_3 H 0.7851 0.9090 0.3021
H5_3 H 0.8389 0.9135 0.3540
C11_3 C 0.7961(5) 0.9766(3) 0.3742(3)
C12_3 C 0.7428(5) 0.9560(3) 0.4168(3)
H6_3 H 0.6930 0.9896 0.4754
O6_3 O 0.5685(4) 0.3909(3) 0.4716(3)
C17_3 C 0.5327(6) 0.3379(4) 0.4438(5)
H10_3 H 0.5168 0.3448 0.4055
N2_3 N 0.5109(6) 0.2722(4) 0.4560(4)
C18_3 C 0.4656(8) 0.2063(6) 0.4200(6)
H11_3 H 0.4509 0.2179 0.3817
H12_3 H 0.4249 0.1755 0.4445
H13_3 H 0.4920 0.1831 0.4108
C19_3 C 0.5357(11) 0.2581(8) 0.5191(5)
H14_3 H 0.5648 0.3021 0.5402
H15_3 H 0.5624 0.2348 0.5119
H16_3 H 0.4954 0.2286 0.5446
Cu2_3 Cu 0.87086(5) 0.73452(3) 0.15590(3)
Cu3_3 Cu 0.46968(4) 0.53753(3) 0.51077(3)
Cu4_3 Cu 0.79580(5) 0.59882(3) 0.17744(3)
O7_3 O 0.4518(3) 0.3911(2) 0.54192(19)
O8_3 O 0.4672(4) 0.4248(3) 0.41660(18)
O9_3 O 0.5851(4) 0.5117(3) 0.56444(18)
Cu1_4 Cu 0.20420(3) 0.40118(3) 0.82256(3)
O1_4 O 0.1238(2) 0.3874(2) 0.76946(19)
O2_4 O 0.0578(2) 0.2726(2) 0.79141(19)
O3_4 O 0.0425(2) 0.4672(2) 0.58340(18)
C1_4 C 0.0681(3) 0.3279(3) 0.7655(2)
C3_4 C 0.0219(3) 0.3763(3) 0.6821(3)
H1_4 H 0.0677 0.4132 0.6755
C4_4 C 0.0082(3) 0.3249(3) 0.7269(3)
O6_4 O 0.2758(3) 0.5109(3) 0.8049(3)
C17_4 C 0.3288(4) 0.5281(4) 0.7771(5)
H10_4 H 0.3219 0.5053 0.7388
N2_4 N 0.3945(4) 0.5720(4) 0.7893(4)
C18_4 C 0.4604(6) 0.5926(6) 0.7533(6)
H11_4 H 0.4488 0.5663 0.7150
H12_4 H 0.4912 0.5827 0.7778
H13_4 H 0.4836 0.6422 0.7441
C19_4 C 0.4086(8) 0.6109(7) 0.8524(5)
H14_4 H 0.3646 0.5960 0.8735
H15_4 H 0.4319 0.6609 0.8452
H16_4 H 0.4381 0.6001 0.8779
Cu3_4 Cu 0.12914(3) 0.26548(3) 0.84410(3)
O7_4 O 0.2756(2) 0.3940(2) 0.87525(19)
O8_4 O 0.2419(3) 0.3758(2) 0.74993(18)
O9_4 O 0.1549(3) 0.4067(2) 0.89778(18)
O5_4 O 0.8246(2) 0.1405(3) 0.7852(2)
N1_4 N 0.8125(3) 0.2149(3) 0.7147(3)
C2_4 C 0.9795(3) 0.4225(3) 0.5938(2)
C5_4 C 0.9396(3) 0.2705(3) 0.7374(3)
H2_4 H 0.9310 0.2355 0.7665
C6_4 C 0.8837(3) 0.2683(3) 0.7044(3)
C7_4 C 0.8974(3) 0.3192(3) 0.6589(3)
H3_4 H 0.8604 0.3178 0.6363
C8_4 C 0.9660(3) 0.3718(3) 0.6473(2)
C9_4 C 0.7886(3) 0.1572(3) 0.7541(3)
C10_4 C 0.7541(3) 0.2153(4) 0.6800(3)
H4_4 H 0.7577 0.2094 0.6354
H5_4 H 0.7532 0.2587 0.6873
C11_4 C 0.6901(3) 0.1528(4) 0.7075(3)
C12_4 C 0.7107(3) 0.1201(4) 0.7501(3)
C13_2 C 0.6623(4) 0.0592(4) 0.7806(3)
H6_4 H 0.6771 0.0367 0.8087
C14_2 C 0.5924(4) 0.0330(5) 0.7687(4)
C15_2 C 0.5716(4) 0.0668(5) 0.7256(4)
H8_2 H 0.5237 0.0479 0.7175
C16_2 C 0.6190(4) 0.1265(5) 0.6949(4)
H9_2 H 0.6042 0.1488 0.6666
Cu1_5 Cu 0.59882(3) 0.80301(4) 0.82256(3)
O1_5 O 0.6126(2) 0.7363(3) 0.76946(19)
O2_5 O 0.7274(2) 0.7851(3) 0.79141(19)
O3_5 O 0.5328(2) 0.5752(3) 0.58340(18)
O5_5 O 0.8595(3) 0.6840(4) 0.7852(2)
N1_5 N 0.7851(3) 0.5975(4) 0.7147(3)
C1_5 C 0.6721(3) 0.7401(4) 0.7655(2)
C2_5 C 0.5775(3) 0.5569(4) 0.5938(2)
C3_5 C 0.6237(3) 0.6455(4) 0.6821(3)
H1_5 H 0.5868 0.6544 0.6755
C4_5 C 0.6751(3) 0.6832(4) 0.7269(3)
C5_5 C 0.7295(3) 0.6690(4) 0.7374(3)
H2_5 H 0.7645 0.6954 0.7665
C6_5 C 0.7317(3) 0.6153(4) 0.7044(3)
C7_5 C 0.6808(3) 0.5781(4) 0.6589(3)
H3_5 H 0.6822 0.5425 0.6363
C8_5 C 0.6282(3) 0.5941(4) 0.6473(2)
C9_5 C 0.8428(3) 0.6313(4) 0.7541(3)
C10_5 C 0.7847(4) 0.5387(5) 0.6800(3)
H4_5 H 0.7906 0.5482 0.6354
H5_5 H 0.7413 0.4944 0.6873
C11_5 C 0.8472(4) 0.5372(5) 0.7075(3)
C12_5 C 0.8799(4) 0.5905(5) 0.7501(3)
C13_3 C 0.9408(4) 0.6030(6) 0.7806(3)
H6_5 H 0.9633 0.6403 0.8087
C14_3 C 0.9670(5) 0.5593(6) 0.7687(4)
C15_3 C 0.9332(5) 0.5047(6) 0.7256(4)
H8_3 H 0.9521 0.4757 0.7175
C16_3 C 0.8735(5) 0.4924(6) 0.6949(4)
H9_3 H 0.8512 0.4553 0.6666
O6_5 O 0.4891(3) 0.7648(4) 0.8049(3)
C17_5 C 0.4719(4) 0.8006(6) 0.7771(5)
H10_5 H 0.4947 0.8165 0.7388
N2_5 N 0.4280(4) 0.8224(6) 0.7893(4)
C18_5 C 0.4074(6) 0.8677(8) 0.7533(6)
H11_5 H 0.4337 0.8824 0.7150
H12_5 H 0.4173 0.9084 0.7778
H13_5 H 0.3578 0.8413 0.7441
C19_5 C 0.3891(7) 0.7976(11) 0.8524(5)
H14_5 H 0.4040 0.7685 0.8735
H15_5 H 0.3391 0.7709 0.8452
H16_5 H 0.3999 0.8379 0.8779
Cu3_5 Cu 0.73452(3) 0.86365(4) 0.84410(3)
O7_5 O 0.6060(2) 0.8815(3) 0.87525(19)
O8_5 O 0.6242(2) 0.8661(4) 0.74993(18)
O9_5 O 0.5933(2) 0.7483(4) 0.89778(18)
O5_6 O 0.3160(4) 0.1754(2) 0.7852(2)
N1_6 N 0.4025(4) 0.1875(3) 0.7147(3)
C2_6 C 0.4431(4) 0.0205(3) 0.5938(2)
C5_6 C 0.3310(4) 0.0604(3) 0.7374(3)
H2_6 H 0.3046 0.0690 0.7665
C6_6 C 0.3847(4) 0.1163(3) 0.7044(3)
C7_6 C 0.4219(4) 0.1026(3) 0.6589(3)
H3_6 H 0.4575 0.1396 0.6363
C8_6 C 0.4059(4) 0.0340(3) 0.6473(2)
C9_6 C 0.3687(4) 0.2114(3) 0.7541(3)
C10_6 C 0.4613(5) 0.2459(3) 0.6800(3)
H4_6 H 0.4518 0.2423 0.6354
H5_6 H 0.5056 0.2468 0.6873
C11_6 C 0.4628(5) 0.3099(3) 0.7075(3)
C12_6 C 0.4095(5) 0.2893(3) 0.7501(3)
C13_4 C 0.3970(6) 0.3377(4) 0.7806(3)
H6_6 H 0.3597 0.3229 0.8087
C14_4 C 0.4407(6) 0.4076(4) 0.7687(4)
H7_2 H 0.4341 0.4414 0.7892
C15_4 C 0.4953(6) 0.4284(4) 0.7256(4)
H8_4 H 0.5243 0.4763 0.7175
C16_4 C 0.5076(6) 0.3810(4) 0.6949(4)
H9_4 H 0.5447 0.3958 0.6666
Cu1_6 Cu 0.19699(4) 0.79580(3) 0.82256(3)
O1_6 O 0.2637(3) 0.8762(2) 0.76946(19)
O2_6 O 0.2149(3) 0.9422(2) 0.79141(19)
O3_6 O 0.4248(3) 0.9575(2) 0.58340(18)
C1_6 C 0.2599(4) 0.9319(3) 0.7655(2)
C3_6 C 0.3545(4) 0.9781(3) 0.6821(3)
H1_6 H 0.3456 0.9323 0.6755
C4_6 C 0.3168(4) 0.9918(3) 0.7269(3)
O6_6 O 0.2352(4) 0.7242(3) 0.8049(3)
C17_6 C 0.1994(6) 0.6712(4) 0.7771(5)
H10_6 H 0.1835 0.6781 0.7388
N2_6 N 0.1776(6) 0.6055(4) 0.7893(4)
C18_6 C 0.1323(8) 0.5396(6) 0.7533(6)
H11_6 H 0.1176 0.5512 0.7150
H12_6 H 0.0916 0.5088 0.7778
H13_6 H 0.1587 0.5164 0.7441
C19_6 C 0.2024(11) 0.5914(8) 0.8524(5)
H14_6 H 0.2315 0.6354 0.8735
H15_6 H 0.2291 0.5681 0.8452
H16_6 H 0.1621 0.5619 0.8779
Cu3_6 Cu 0.13635(4) 0.87086(3) 0.84410(3)
O7_6 O 0.1185(3) 0.7244(2) 0.87525(19)
O8_6 O 0.1339(4) 0.7581(3) 0.74993(18)
O9_6 O 0.2517(4) 0.8451(3) 0.89778(18)
O1_7 O 0.7904(2) 0.7208(2) 0.10280(19)
O2_7 O 0.7244(2) 0.6060(2) 0.12475(19)
O5_7 O 0.4912(2) 0.4739(3) 0.1186(2)
N1_7 N 0.4791(3) 0.5483(3) 0.0481(3)
C1_7 C 0.7347(3) 0.6613(3) 0.0989(2)
C3_7 C 0.6885(3) 0.7097(3) 0.0155(3)
H1_7 H 0.7343 0.7466 0.0089
C4_7 C 0.6748(3) 0.6583(3) 0.0603(3)
C5_7 C 0.6062(3) 0.6039(3) 0.0708(3)
H2_7 H 0.5976 0.5689 0.0999
C6_7 C 0.5503(3) 0.6017(3) 0.0378(3)
C9_7 C 0.4552(3) 0.4906(3) 0.0875(3)
C10_7 C 0.4207(3) 0.5487(4) 0.0134(3)
H5_7 H 0.4198 0.5921 0.0207
C11_7 C 0.3567(3) 0.4862(4) 0.0409(3)
C12_7 C 0.3773(3) 0.4535(4) 0.0835(3)
C13_5 C 0.3289(4) 0.3926(4) 0.1140(3)
H6_7 H 0.3437 0.3701 0.1421
C14_5 C 0.2590(4) 0.3664(5) 0.1021(4)
H7_3 H 0.2252 0.3260 0.1226
C15_5 C 0.2382(4) 0.4002(5) 0.0590(4)
H8_5 H 0.1903 0.3813 0.0509
C16_5 C 0.2856(4) 0.4599(5) 0.0283(4)
H9_5 H 0.2708 0.4822 -0.0000
O6_7 O 0.9424(3) 0.8443(3) 0.1383(3)
C17_7 C 0.9954(4) 0.8615(4) 0.1105(5)
H10_7 H 0.9885 0.8387 0.0722
O7_7 O 0.9422(2) 0.7274(2) 0.20859(19)
O8_7 O 0.9086(3) 0.7091(2) 0.08326(18)
O3_7 O 0.7091(2) 0.8006(2) 0.91674(18)
C2_7 C 0.6461(3) 0.7559(3) 0.9272(2)
C7_7 C 0.5640(3) 0.6526(3) 0.9923(3)
H3_7 H 0.5270 0.6512 0.9697
C8_7 C 0.6326(3) 0.7052(3) 0.9807(2)
H4_7 H 0.4243 0.5428 0.9688
H9_6 H 0.2708 0.4822 1.0000
O1_8 O 0.2792(2) 0.0697(3) 0.10280(19)
O2_8 O 0.3940(2) 0.1185(3) 0.12475(19)
O5_8 O 0.5261(3) 0.0174(4) 0.1186(2)
C1_8 C 0.3387(3) 0.0735(4) 0.0989(2)
C4_8 C 0.3417(3) 0.0166(4) 0.0603(3)
C5_8 C 0.3961(3) 0.0024(4) 0.0708(3)
H2_8 H 0.4311 0.0288 0.0999
O6_8 O 0.1557(3) 0.0982(4) 0.1383(3)
C17_8 C 0.1385(4) 0.1340(6) 0.1105(5)
H10_8 H 0.1613 0.1499 0.0722
N2_7 N 0.0946(4) 0.1558(6) 0.1227(4)
C18_7 C 0.0740(6) 0.2011(8) 0.0867(6)
H11_7 H 0.1003 0.2158 0.0484
H12_7 H 0.0839 0.2418 0.1112
H13_7 H 0.0244 0.1747 0.0775
C19_7 C 0.0557(7) 0.1310(11) 0.1858(5)
H14_7 H 0.0706 0.1019 0.2069
H15_7 H 0.0057 0.1043 0.1786
H16_7 H 0.0665 0.1713 0.2113
O7_8 O 0.2726(2) 0.2149(3) 0.20859(19)
O8_8 O 0.2909(2) 0.1994(4) 0.08326(18)
O3_8 O 0.1994(2) 0.9086(3) 0.91674(18)
C2_8 C 0.2441(3) 0.8903(4) 0.9272(2)
C7_8 C 0.3474(3) 0.9115(4) 0.9923(3)
H3_8 H 0.3488 0.8759 0.9697
C8_8 C 0.2948(3) 0.9275(4) 0.9807(2)
H4_8 H 0.4572 0.8816 0.9688
H9_7 H 0.5178 0.7887 1.0000
O3_9 O 0.0914(3) 0.2909(2) 0.91674(18)
C2_9 C 0.1097(4) 0.3539(3) 0.9272(2)
C7_9 C 0.0885(4) 0.4360(3) 0.9923(3)
H3_9 H 0.1241 0.4730 0.9697
C8_9 C 0.0725(4) 0.3674(3) 0.9807(2)
H4_9 H 0.1184 0.5757 0.9688
H9_8 H 0.2113 0.7292 1.0000
O1_9 O 0.9303(3) 0.2096(2) 0.10280(19)
O2_9 O 0.8815(3) 0.2756(2) 0.12475(19)
O5_9 O 0.9826(4) 0.5088(2) 0.1186(2)
C1_9 C 0.9265(4) 0.2653(3) 0.0989(2)
C4_9 C 0.9834(4) 0.3252(3) 0.0603(3)
C5_9 C 0.9976(4) 0.3938(3) 0.0708(3)
H2_9 H 0.9712 0.4024 0.0999
O6_9 O 0.9018(4) 0.0576(3) 0.1383(3)
C17_9 C 0.8660(6) 0.0046(4) 0.1105(5)
H10_9 H 0.8501 0.0115 0.0722
O7_9 O 0.7851(3) 0.0578(2) 0.20859(19)
O8_9 O 0.8006(4) 0.0914(3) 0.08326(18)
O5_10 O 0.8421(2) 0.1928(3) 0.5481(2)
N1_8 N 0.8542(3) 0.1184(3) 0.6186(3)
C1_10 C 0.5986(3) 0.0054(3) 0.5678(2)
C4_10 C 0.6585(3) 0.0084(3) 0.6064(3)
C5_10 C 0.7271(3) 0.0628(3) 0.5959(3)
H2_10 H 0.7357 0.0978 0.5668
C6_8 C 0.7830(3) 0.0650(3) 0.6289(3)
C7_10 C 0.7693(3) 0.0141(3) 0.6744(3)
H3_10 H 0.8063 0.0155 0.6970
C9_8 C 0.8781(3) 0.1761(3) 0.5792(3)
C10_8 C 0.9126(3) 0.1180(4) 0.6533(3)
H4_10 H 0.9090 0.1239 0.6979
H5_8 H 0.9135 0.0746 0.6460
C11_8 C 0.9766(3) 0.1805(4) 0.6258(3)
C12_8 C 0.9560(3) 0.2132(4) 0.5832(3)
H6_8 H 0.9896 0.2966 0.5246
O1_10 O 0.5429(2) 0.9459(2) 0.56387(19)
O4_4 O 0.7400(2) 0.9184(2) 0.76889(18)
C2_10 C 0.6872(3) 0.9108(3) 0.7395(2)
C3_8 C 0.6448(3) 0.9570(3) 0.6512(3)
H1_8 H 0.5990 0.9201 0.6578
C8_10 C 0.7007(3) 0.9615(3) 0.6860(2)
O6_10 O 0.3909(3) 0.8224(3) 0.5284(3)
C17_10 C 0.3379(4) 0.8052(4) 0.5562(5)
H10_10 H 0.3448 0.8280 0.5945
N2_8 N 0.2722(4) 0.7613(4) 0.5440(4)
C18_8 C 0.2063(6) 0.7407(6) 0.5800(6)
H11_8 H 0.2179 0.7670 0.6183
H12_8 H 0.1755 0.7506 0.5555
H13_8 H 0.1831 0.6911 0.5892
C19_8 C 0.2581(8) 0.7224(7) 0.4809(5)
H14_8 H 0.3021 0.7373 0.4598
H15_8 H 0.2348 0.6724 0.4881
H16_8 H 0.2286 0.7332 0.4554
O9_7 O 0.5117(3) 0.9267(2) 0.43556(18)
O1_11 O 0.0541(2) 0.5970(3) 0.56387(19)
O4_5 O 0.0816(2) 0.8216(3) 0.76889(18)
C2_11 C 0.0892(3) 0.7764(4) 0.7395(2)
C3_9 C 0.0430(3) 0.6878(4) 0.6512(3)
H1_9 H 0.0799 0.6789 0.6578
C8_11 C 0.0385(3) 0.7392(4) 0.6860(2)
O6_11 O 0.1776(3) 0.5685(4) 0.5284(3)
C17_11 C 0.1948(4) 0.5327(6) 0.5562(5)
H10_11 H 0.1720 0.5168 0.5945
N2_9 N 0.2387(4) 0.5109(6) 0.5440(4)
C18_9 C 0.2593(6) 0.4656(8) 0.5800(6)
H11_9 H 0.2330 0.4509 0.6183
H12_9 H 0.2494 0.4249 0.5555
H13_9 H 0.3089 0.4920 0.5892
C19_9 C 0.2776(7) 0.5357(11) 0.4809(5)
H14_9 H 0.2627 0.5648 0.4598
H15_9 H 0.3276 0.5624 0.4881
H16_9 H 0.2668 0.4954 0.4554
O9_8 O 0.0733(2) 0.5851(4) 0.43556(18)
O5_11 O 0.8072(3) 0.6493(4) 0.5481(2)
N1_9 N 0.8816(3) 0.7358(4) 0.6186(3)
C1_11 C 0.9946(3) 0.5932(4) 0.5678(2)
C4_11 C 0.9916(3) 0.6501(4) 0.6064(3)
C5_11 C 0.9372(3) 0.6643(4) 0.5959(3)
H2_11 H 0.9022 0.6379 0.5668
C6_9 C 0.9350(3) 0.7180(4) 0.6289(3)
C7_11 C 0.9859(3) 0.7552(4) 0.6744(3)
H3_11 H 0.9845 0.7908 0.6970
C9_9 C 0.8239(3) 0.7020(4) 0.5792(3)
C10_9 C 0.8820(4) 0.7946(5) 0.6533(3)
H4_11 H 0.8761 0.7851 0.6979
H5_9 H 0.9254 0.8389 0.6460
C11_9 C 0.8195(4) 0.7961(5) 0.6258(3)
C12_9 C 0.7868(4) 0.7428(5) 0.5832(3)
C13_6 C 0.7259(4) 0.7303(6) 0.5527(3)
H6_9 H 0.7034 0.6930 0.5246
C14_6 C 0.6997(5) 0.7740(6) 0.5646(4)
H7_4 H 0.6593 0.7674 0.5441
C15_6 C 0.7335(5) 0.8286(6) 0.6077(4)
H8_6 H 0.7146 0.8576 0.6158
C16_6 C 0.7932(5) 0.8409(6) 0.6384(4)
H9_9 H 0.8155 0.8780 0.6667
O1_12 O 0.4030(3) 0.4571(2) 0.56387(19)
O4_6 O 0.1784(3) 0.2600(2) 0.76889(18)
O5_12 O 0.3507(4) 0.1579(2) 0.5481(2)
N1_10 N 0.2642(4) 0.1458(3) 0.6186(3)
C1_12 C 0.4068(4) 0.4014(3) 0.5678(2)
C2_12 C 0.2236(4) 0.3128(3) 0.7395(2)
C3_10 C 0.3122(4) 0.3552(3) 0.6512(3)
H1_10 H 0.3211 0.4010 0.6578
C4_12 C 0.3499(4) 0.3415(3) 0.6064(3)
C5_12 C 0.3357(4) 0.2729(3) 0.5959(3)
H2_12 H 0.3621 0.2643 0.5668
C6_10 C 0.2820(4) 0.2170(3) 0.6289(3)
C7_12 C 0.2448(4) 0.2307(3) 0.6744(3)
H3_12 H 0.2092 0.1937 0.6970
C8_12 C 0.2608(4) 0.2993(3) 0.6860(2)
C9_10 C 0.2980(4) 0.1219(3) 0.5792(3)
C10_10 C 0.2054(5) 0.0874(3) 0.6533(3)
H4_12 H 0.2149 0.0910 0.6979
H5_10 H 0.1611 0.0865 0.6460
C11_10 C 0.2039(5) 0.0234(3) 0.6258(3)
C12_10 C 0.2572(5) 0.0440(3) 0.5832(3)
H6_10 H 0.3070 0.0104 0.5246
O6_12 O 0.4315(4) 0.6091(3) 0.5284(3)
C17_12 C 0.4673(6) 0.6621(4) 0.5562(5)
H10_12 H 0.4832 0.6552 0.5945
N2_10 N 0.4891(6) 0.7278(4) 0.5440(4)
C18_10 C 0.5344(8) 0.7937(6) 0.5800(6)
H11_10 H 0.5491 0.7821 0.6183
H12_10 H 0.5751 0.8245 0.5555
H13_10 H 0.5080 0.8169 0.5892
C19_10 C 0.4643(11) 0.7419(8) 0.4809(5)
H14_10 H 0.4352 0.6979 0.4598
H15_10 H 0.4376 0.7652 0.4881
H16_10 H 0.5046 0.7714 0.4554
O9_9 O 0.4149(4) 0.4883(3) 0.43556(18)
O5_13 O 0.1754(2) 0.8595(3) 0.2148(2)
N1_11 N 0.1875(3) 0.7851(3) 0.2853(3)
C2_13 C 0.0205(3) 0.5775(3) 0.4062(2)
C5_13 C 0.0604(3) 0.7295(3) 0.2626(3)
H2_13 H 0.0690 0.7645 0.2335
C6_11 C 0.1163(3) 0.7317(3) 0.2956(3)
C7_13 C 0.1026(3) 0.6808(3) 0.3411(3)
H3_13 H 0.1396 0.6822 0.3637
C8_13 C 0.0340(3) 0.6282(3) 0.3527(2)
C9_11 C 0.2114(3) 0.8428(3) 0.2459(3)
C10_11 C 0.2459(3) 0.7847(4) 0.3200(3)
H4_13 H 0.2423 0.7906 0.3646
H5_11 H 0.2468 0.7413 0.3127
C11_11 C 0.3099(3) 0.8472(4) 0.2925(3)
C12_11 C 0.2893(3) 0.8799(4) 0.2499(3)
C13_7 C 0.3377(4) 0.9408(4) 0.2194(3)
H6_11 H 0.3229 0.9633 0.1913
C14_7 C 0.4076(4) 0.9670(5) 0.2313(4)
C15_7 C 0.4284(4) 0.9332(5) 0.2744(4)
H8_7 H 0.4763 0.9521 0.2825
C16_7 C 0.3810(4) 0.8735(5) 0.3051(4)
H9_10 H 0.3958 0.8512 0.3334
O1_13 O 0.8762(2) 0.6126(2) 0.23054(19)
C1_13 C 0.9319(3) 0.6721(3) 0.2345(2)
C3_11 C 0.9781(3) 0.6237(3) 0.3179(3)
H1_11 H 0.9323 0.5868 0.3245
C4_13 C 0.9918(3) 0.6751(3) 0.2731(3)
O6_13 O 0.7242(3) 0.4891(3) 0.1951(3)
C17_13 C 0.6712(4) 0.4719(4) 0.2229(5)
H10_13 H 0.6781 0.4947 0.2612
N2_11 N 0.6055(4) 0.4280(4) 0.2107(4)
C18_11 C 0.5396(6) 0.4074(6) 0.2467(6)
H11_11 H 0.5512 0.4337 0.2850
H12_11 H 0.5088 0.4173 0.2222
H13_11 H 0.5164 0.3578 0.2559
C19_11 C 0.5914(8) 0.3891(7) 0.1476(5)
H14_11 H 0.6354 0.4040 0.1265
H15_11 H 0.5681 0.3391 0.1548
H16_11 H 0.5619 0.3999 0.1221
O9_10 O 0.8451(3) 0.5933(2) 0.10222(18)
O1_14 O 0.3874(2) 0.2637(3) 0.23054(19)
O5_14 O 0.1405(3) 0.3160(4) 0.2148(2)
N1_12 N 0.2149(3) 0.4025(4) 0.2853(3)
C1_14 C 0.3279(3) 0.2599(4) 0.2345(2)
C2_14 C 0.4225(3) 0.4431(4) 0.4062(2)
C3_12 C 0.3763(3) 0.3545(4) 0.3179(3)
H1_12 H 0.4132 0.3456 0.3245
C4_14 C 0.3249(3) 0.3168(4) 0.2731(3)
C5_14 C 0.2705(3) 0.3310(4) 0.2626(3)
H2_14 H 0.2355 0.3046 0.2335
C6_12 C 0.2683(3) 0.3847(4) 0.2956(3)
C7_14 C 0.3192(3) 0.4219(4) 0.3411(3)
H3_14 H 0.3178 0.4575 0.3637
C8_14 C 0.3718(3) 0.4059(4) 0.3527(2)
C9_12 C 0.1572(3) 0.3687(4) 0.2459(3)
C10_12 C 0.2153(4) 0.4613(5) 0.3200(3)
H4_14 H 0.2094 0.4518 0.3646
H5_12 H 0.2587 0.5056 0.3127
C11_12 C 0.1528(4) 0.4628(5) 0.2925(3)
C12_12 C 0.1201(4) 0.4095(5) 0.2499(3)
C13_8 C 0.0592(4) 0.3970(6) 0.2194(3)
H6_12 H 0.0367 0.3597 0.1913
C14_8 C 0.0330(5) 0.4407(6) 0.2313(4)
C15_8 C 0.0668(5) 0.4953(6) 0.2744(4)
H8_8 H 0.0479 0.5243 0.2825
C16_8 C 0.1265(5) 0.5076(6) 0.3051(4)
H9_11 H 0.1488 0.5447 0.3334
O6_14 O 0.5109(3) 0.2352(4) 0.1951(3)
C17_14 C 0.5281(4) 0.1994(6) 0.2229(5)
H10_14 H 0.5053 0.1835 0.2612
N2_12 N 0.5720(4) 0.1776(6) 0.2107(4)
C18_12 C 0.5926(6) 0.1323(8) 0.2467(6)
H11_12 H 0.5663 0.1176 0.2850
H12_12 H 0.5827 0.0916 0.2222
H13_12 H 0.6422 0.1587 0.2559
C19_12 C 0.6109(7) 0.2024(11) 0.1476(5)
H14_12 H 0.5960 0.2315 0.1265
H15_12 H 0.6609 0.2291 0.1548
H16_12 H 0.6001 0.1621 0.1221
O9_11 O 0.4067(2) 0.2517(4) 0.10222(18)
O1_15 O 0.7363(3) 0.1238(2) 0.23054(19)
C1_15 C 0.7401(4) 0.0681(3) 0.2345(2)
C3_13 C 0.6455(4) 0.0219(3) 0.3179(3)
H1_13 H 0.6544 0.0677 0.3245
C4_15 C 0.6832(4) 0.0082(3) 0.2731(3)
O6_15 O 0.7648(4) 0.2758(3) 0.1951(3)
C17_15 C 0.8006(6) 0.3288(4) 0.2229(5)
H10_15 H 0.8165 0.3219 0.2612
N2_13 N 0.8224(6) 0.3945(4) 0.2107(4)
C18_13 C 0.8677(8) 0.4604(6) 0.2467(6)
H11_13 H 0.8824 0.4488 0.2850
H12_13 H 0.9084 0.4912 0.2222
H13_13 H 0.8413 0.4836 0.2559
C19_13 C 0.7976(11) 0.4086(8) 0.1476(5)
H14_13 H 0.7685 0.3646 0.1265
H15_13 H 0.7709 0.4319 0.1548
H16_13 H 0.8379 0.4381 0.1221
O9_12 O 0.7483(4) 0.1549(3) 0.10222(18)
O5_15 O 0.6840(4) 0.8246(2) 0.2148(2)
N1_13 N 0.5975(4) 0.8125(3) 0.2853(3)
C2_15 C 0.5569(4) 0.9795(3) 0.4062(2)
C5_15 C 0.6690(4) 0.9396(3) 0.2626(3)
H2_15 H 0.6954 0.9310 0.2335
C6_13 C 0.6153(4) 0.8837(3) 0.2956(3)
C7_15 C 0.5781(4) 0.8974(3) 0.3411(3)
H3_15 H 0.5425 0.8604 0.3637
C8_15 C 0.5941(4) 0.9660(3) 0.3527(2)
C9_13 C 0.6313(4) 0.7886(3) 0.2459(3)
C10_13 C 0.5387(5) 0.7541(3) 0.3200(3)
H4_15 H 0.5482 0.7577 0.3646
H5_13 H 0.4944 0.7532 0.3127
C11_13 C 0.5372(5) 0.6901(3) 0.2925(3)
C12_13 C 0.5905(5) 0.7107(3) 0.2499(3)
C13_9 C 0.6030(6) 0.6623(4) 0.2194(3)
H6_13 H 0.6403 0.6771 0.1913
C14_9 C 0.5593(6) 0.5924(4) 0.2313(4)
H7_5 H 0.5659 0.5586 0.2108
C15_9 C 0.5047(6) 0.5716(4) 0.2744(4)
H8_9 H 0.4757 0.5237 0.2825
C16_9 C 0.4924(6) 0.6190(4) 0.3051(4)
H9_12 H 0.4553 0.6042 0.3334
C2_16 C 0.3539(3) 0.2441(3) 0.0728(2)
C7_16 C 0.4360(3) 0.3474(3) 0.0077(3)
H3_16 H 0.4730 0.3488 0.0303
C8_16 C 0.3674(3) 0.2948(3) 0.0193(2)
H4_16 H 0.5757 0.4572 0.0312
H9_13 H 0.7292 0.5178 0.0000
O1_16 O 0.2096(2) 0.2792(2) 0.89720(19)
O5_16 O 0.5088(2) 0.5261(3) 0.8814(2)
N1_14 N 0.5209(3) 0.4517(3) 0.9519(3)
C1_16 C 0.2653(3) 0.3387(3) 0.9011(2)
C3_14 C 0.3115(3) 0.2903(3) 0.9845(3)
H1_14 H 0.2657 0.2534 0.9911
C4_16 C 0.3252(3) 0.3417(3) 0.9397(3)
C5_16 C 0.3938(3) 0.3961(3) 0.9292(3)
H2_16 H 0.4024 0.4311 0.9001
C6_14 C 0.4497(3) 0.3983(3) 0.9622(3)
C9_14 C 0.5448(3) 0.5094(3) 0.9125(3)
C10_14 C 0.5793(3) 0.4513(4) 0.9866(3)
H5_14 H 0.5802 0.4079 0.9793
C11_14 C 0.6433(3) 0.5138(4) 0.9591(3)
C12_14 C 0.6227(3) 0.5465(4) 0.9165(3)
C13_10 C 0.6711(4) 0.6074(4) 0.8860(3)
H6_14 H 0.6563 0.6299 0.8579
C14_10 C 0.7410(4) 0.6336(5) 0.8979(4)
H7_6 H 0.7748 0.6740 0.8774
C15_10 C 0.7618(4) 0.5998(5) 0.9410(4)
H8_10 H 0.8097 0.6187 0.9491
C16_10 C 0.7144(4) 0.5401(5) 0.9717(4)
H9_14 H 0.7292 0.5178 1.0000
O6_16 O 0.0576(3) 0.1557(3) 0.8617(3)
C17_16 C 0.0046(4) 0.1385(4) 0.8895(5)
H10_16 H 0.0115 0.1613 0.9278
C2_17 C 0.7559(3) 0.1097(4) 0.0728(2)
C7_17 C 0.6526(3) 0.0885(4) 0.0077(3)
H3_17 H 0.6512 0.1241 0.0303
C8_17 C 0.7052(3) 0.0725(4) 0.0193(2)
H4_17 H 0.5428 0.1184 0.0312
H9_15 H 0.4822 0.2113 0.0000
O1_17 O 0.7208(2) 0.9303(3) 0.89720(19)
O5_17 O 0.4739(3) 0.9826(4) 0.8814(2)
C1_17 C 0.6613(3) 0.9265(4) 0.9011(2)
C4_17 C 0.6583(3) 0.9834(4) 0.9397(3)
C5_17 C 0.6039(3) 0.9976(4) 0.9292(3)
H2_17 H 0.5689 0.9712 0.9001
O6_17 O 0.8443(3) 0.9018(4) 0.8617(3)
C17_17 C 0.8615(4) 0.8660(6) 0.8895(5)
H10_17 H 0.8387 0.8501 0.9278
N2_14 N 0.9054(4) 0.8442(6) 0.8773(4)
C18_14 C 0.9260(6) 0.7989(8) 0.9133(6)
H11_14 H 0.8997 0.7842 0.9516
H12_14 H 0.9161 0.7582 0.8888
H13_14 H 0.9756 0.8253 0.9225
C19_14 C 0.9443(7) 0.8690(11) 0.8142(5)
H14_14 H 0.9294 0.8981 0.7931
H15_14 H 0.9943 0.8957 0.8214
H16_14 H 0.9335 0.8287 0.7887
O1_18 O 0.0697(3) 0.7904(2) 0.89720(19)
O5_18 O 0.0174(4) 0.4912(2) 0.8814(2)
C1_18 C 0.0735(4) 0.7347(3) 0.9011(2)
C4_18 C 0.0166(4) 0.6748(3) 0.9397(3)
C5_18 C 0.0024(4) 0.6062(3) 0.9292(3)
H2_18 H 0.0288 0.5976 0.9001
O6_18 O 0.0982(4) 0.9424(3) 0.8617(3)
C17_18 C 0.1340(6) 0.9954(4) 0.8895(5)
H10_18 H 0.1499 0.9885 0.9278
C2_18 C 0.8903(4) 0.6461(3) 0.0728(2)
C7_18 C 0.9115(4) 0.5640(3) 0.0077(3)
H3_18 H 0.8759 0.5270 0.0303
C8_18 C 0.9275(4) 0.6326(3) 0.0193(2)
H4_18 H 0.8816 0.4243 0.0312
H9_16 H 0.7887 0.2708 0.0000
C13_11 C 0.9956(4) 0.7259(4) 0.4473(3)
C14_11 C 0.9257(4) 0.6997(5) 0.4354(4)
H7_7 H 0.8919 0.6593 0.4559
C15_11 C 0.9049(4) 0.7335(5) 0.3923(4)
H8_11 H 0.8570 0.7146 0.3842
C16_11 C 0.9523(4) 0.7932(5) 0.3616(4)
H9_17 H 0.9375 0.8155 0.3333
C13_12 C 0.7303(6) 0.0044(4) 0.4473(3)
C14_12 C 0.7740(6) 0.0743(4) 0.4354(4)
H7_8 H 0.7674 0.1081 0.4559
C15_12 C 0.8286(6) 0.0951(4) 0.3923(4)
H8_12 H 0.8576 0.1430 0.3842
C16_12 C 0.8409(6) 0.0477(4) 0.3616(4)
H9_18 H 0.8780 0.0625 0.3333
H7_9 H 0.5586 0.9926 0.7892
H7_10 H 0.0074 0.5659 0.7892
N2_15 N 0.0611(4) 0.9054(4) 0.1227(4)
C18_15 C 0.1270(6) 0.9260(6) 0.0867(6)
H11_15 H 0.1154 0.8997 0.0484
H12_15 H 0.1578 0.9161 0.1112
H13_15 H 0.1502 0.9756 0.0775
C19_15 C 0.0752(8) 0.9443(7) 0.1858(5)
H14_15 H 0.0312 0.9294 0.2069
H15_15 H 0.0985 0.9943 0.1786
H16_15 H 0.1047 0.9335 0.2113
N1_15 N 0.4517(3) 0.9309(4) 0.0481(3)
C3_15 C 0.2903(3) 0.9789(4) 0.0155(3)
H1_15 H 0.2534 0.9878 0.0089
C6_15 C 0.3983(3) 0.9487(4) 0.0378(3)
C9_15 C 0.5094(3) 0.9647(4) 0.0875(3)
C10_15 C 0.4513(4) 0.8721(5) 0.0134(3)
H5_15 H 0.4079 0.8278 0.0207
C11_15 C 0.5138(4) 0.8706(5) 0.0409(3)
C12_15 C 0.5465(4) 0.9239(5) 0.0835(3)
C13_13 C 0.6074(4) 0.9364(6) 0.1140(3)
H6_15 H 0.6299 0.9737 0.1421
C14_13 C 0.6336(5) 0.8927(6) 0.1021(4)
H7_11 H 0.6740 0.8993 0.1226
C15_13 C 0.5998(5) 0.8381(6) 0.0590(4)
H8_13 H 0.6187 0.8091 0.0509
C16_13 C 0.5401(5) 0.8258(6) 0.0283(4)
H9_19 H 0.5178 0.7887 -0.0000
N1_16 N 0.0691(4) 0.5209(3) 0.0481(3)
C3_16 C 0.0211(4) 0.3115(3) 0.0155(3)
H1_16 H 0.0122 0.2657 0.0089
C6_16 C 0.0513(4) 0.4497(3) 0.0378(3)
C9_16 C 0.0353(4) 0.5448(3) 0.0875(3)
C10_16 C 0.1279(5) 0.5793(3) 0.0134(3)
H5_16 H 0.1722 0.5802 0.0207
C11_16 C 0.1294(5) 0.6433(3) 0.0409(3)
C12_16 C 0.0761(5) 0.6227(3) 0.0835(3)
C13_14 C 0.0636(6) 0.6711(4) 0.1140(3)
H6_16 H 0.0263 0.6563 0.1421
C14_14 C 0.1073(6) 0.7410(4) 0.1021(4)
H7_12 H 0.1007 0.7748 0.1226
C15_14 C 0.1619(6) 0.7618(4) 0.0590(4)
H8_14 H 0.1909 0.8097 0.0509
C16_14 C 0.1742(6) 0.7144(4) 0.0283(4)
H9_20 H 0.2113 0.7292 -0.0000
N2_16 N 0.8442(6) 0.9389(4) 0.1227(4)
C18_16 C 0.7989(8) 0.8730(6) 0.0867(6)
H11_16 H 0.7842 0.8846 0.0484
H12_16 H 0.7582 0.8422 0.1112
H13_16 H 0.8253 0.8498 0.0775
C19_16 C 0.8690(11) 0.9248(8) 0.1858(5)
H14_16 H 0.8981 0.9688 0.2069
H15_16 H 0.8957 0.9015 0.1786
H16_16 H 0.8287 0.8953 0.2113
C13_15 C 0.0044(4) 0.2741(4) 0.5527(3)
C14_15 C 0.0743(4) 0.3003(5) 0.5646(4)
H7_13 H 0.1081 0.3407 0.5441
C15_15 C 0.0951(4) 0.2665(5) 0.6077(4)
H8_15 H 0.1430 0.2854 0.6158
C16_15 C 0.0477(4) 0.2068(5) 0.6384(4)
H9_21 H 0.0625 0.1845 0.6667
C13_16 C 0.2697(6) 0.9956(4) 0.5527(3)
C14_16 C 0.2260(6) 0.9257(4) 0.5646(4)
H7_14 H 0.2326 0.8919 0.5441
C15_16 C 0.1714(6) 0.9049(4) 0.6077(4)
H8_16 H 0.1424 0.8570 0.6158
C16_16 C 0.1591(6) 0.9523(4) 0.6384(4)
H9_22 H 0.1220 0.9375 0.6667
H7_15 H 0.4414 0.0074 0.2108
H7_16 H 0.9926 0.4341 0.2108
N2_17 N 0.9389(4) 0.0946(4) 0.8773(4)
C18_17 C 0.8730(6) 0.0740(6) 0.9133(6)
H11_17 H 0.8846 0.1003 0.9516
H12_17 H 0.8422 0.0839 0.8888
H13_17 H 0.8498 0.0244 0.9225
C19_17 C 0.9248(8) 0.0557(7) 0.8142(5)
H14_17 H 0.9688 0.0706 0.7931
H15_17 H 0.9015 0.0057 0.8214
H16_17 H 0.8953 0.0665 0.7887
N1_17 N 0.5483(3) 0.0691(4) 0.9519(3)
C3_17 C 0.7097(3) 0.0211(4) 0.9845(3)
H1_17 H 0.7466 0.0122 0.9911
C6_17 C 0.6017(3) 0.0513(4) 0.9622(3)
C9_17 C 0.4906(3) 0.0353(4) 0.9125(3)
C10_17 C 0.5487(4) 0.1279(5) 0.9866(3)
H5_17 H 0.5921 0.1722 0.9793
C11_17 C 0.4862(4) 0.1294(5) 0.9591(3)
C12_17 C 0.4535(4) 0.0761(5) 0.9165(3)
C13_17 C 0.3926(4) 0.0636(6) 0.8860(3)
H6_17 H 0.3701 0.0263 0.8579
C14_17 C 0.3664(5) 0.1073(6) 0.8979(4)
H7_17 H 0.3260 0.1007 0.8774
C15_17 C 0.4002(5) 0.1619(6) 0.9410(4)
H8_17 H 0.3813 0.1909 0.9491
C16_17 C 0.4599(5) 0.1742(6) 0.9717(4)
H9_23 H 0.4822 0.2113 1.0000
N2_18 N 0.1558(6) 0.0611(4) 0.8773(4)
C18_18 C 0.2011(8) 0.1270(6) 0.9133(6)
H11_18 H 0.2158 0.1154 0.9516
H12_18 H 0.2418 0.1578 0.8888
H13_18 H 0.1747 0.1502 0.9225
C19_18 C 0.1310(11) 0.0752(8) 0.8142(5)
H14_18 H 0.1019 0.0312 0.7931
H15_18 H 0.1043 0.0985 0.8214
H16_18 H 0.1713 0.1047 0.7887
N1_18 N 0.9309(4) 0.4791(3) 0.9519(3)
C3_18 C 0.9789(4) 0.6885(3) 0.9845(3)
H1_18 H 0.9878 0.7343 0.9911
C6_18 C 0.9487(4) 0.5503(3) 0.9622(3)
C9_18 C 0.9647(4) 0.4552(3) 0.9125(3)
C10_18 C 0.8721(5) 0.4207(3) 0.9866(3)
H5_18 H 0.8278 0.4198 0.9793
C11_18 C 0.8706(5) 0.3567(3) 0.9591(3)
C12_18 C 0.9239(5) 0.3773(3) 0.9165(3)
C13_18 C 0.9364(6) 0.3289(4) 0.8860(3)
H6_18 H 0.9737 0.3437 0.8579
C14_18 C 0.8927(6) 0.2590(4) 0.8979(4)
H7_18 H 0.8993 0.2252 0.8774
C15_18 C 0.8381(6) 0.2382(4) 0.9410(4)
H8_18 H 0.8091 0.1903 0.9491
C16_18 C 0.8258(6) 0.2856(4) 0.9717(4)
H9_24 H 0.7887 0.2708 1.0000
loop_
_geom_bond_atom_site_label_1
_geom_bond_atom_site_label_2
_geom_bond_site_symmetry_1
_geom_bond_site_symmetry_2
Cu1 O1 1_555 1_555
O3 C2 1_555 1_555
O4 C2 1_555 1_555
C2 C8 1_555 1_555
C3 H1 1_555 1_555
C8 C3 1_555 1_555
O6 Cu1 1_555 1_555
C17 O6 1_555 1_555
H10 C17 1_555 1_555
N2 C17 1_555 1_555
C18 N2 1_555 1_555
H11 C18 1_555 1_555
H12 C18 1_555 1_555
H13 C18 1_555 1_555
C19 N2 1_555 1_555
H14 C19 1_555 1_555
H15 C19 1_555 1_555
H16 C19 1_555 1_555
Cu2 O4 1_555 1_555
Cu4 O3 1_555 1_555
O7 Cu1 1_555 1_555
O8 Cu1 1_555 1_555
O9 Cu1 1_555 1_555
Cu2 Cu4 1_555 1_555
O2 C1 1_555 1_555
O5 C9 1_555 1_555
N1 C6 1_555 1_555
C1 C4 1_555 1_555
C5 C4 1_555 1_555
H2 C5 1_555 1_555
C6 C5 1_555 1_555
C7 C6 1_555 1_555
H3 C7 1_555 1_555
C9 N1 1_555 1_555
C10 N1 1_555 1_555
H4 C10 1_555 1_555
H5 C10 1_555 1_555
C11 C10 1_555 1_555
C12 C9 1_555 1_555
O2 Cu3 1_555 1_555
C11 C12 1_555 1_555
O2_2 C1_2 1_555 1_555
O5_2 C9_2 1_555 1_555
N1_2 C6_2 1_555 1_555
C1_2 C4_2 1_555 1_555
C5_2 C4_2 1_555 1_555
H2_2 C5_2 1_555 1_555
C6_2 C5_2 1_555 1_555
C7_2 C6_2 1_555 1_555
H3_2 C7_2 1_555 1_555
C9_2 N1_2 1_555 1_555
C10_2 N1_2 1_555 1_555
H4_2 C10_2 1_555 1_555
H5_2 C10_2 1_555 1_555
C11_2 C10_2 1_555 1_555
C12_2 C9_2 1_555 1_555
C13 C12_2 1_555 1_555
H6_2 C13 1_555 1_555
C14 C13 1_555 1_555
H7 C14 1_555 1_555
C15 C14 1_555 1_555
H8 C15 1_555 1_555
C16 C11_2 1_555 1_555
H9 C16 1_555 1_555
O2_2 Cu3_2 1_555 1_555
C11_2 C12_2 1_555 1_555
C15 C16 1_555 1_555
Cu1_2 O1_2 1_555 1_555
O3_2 C2_2 1_555 1_555
O4_2 C2_2 1_555 1_555
C2_2 C8_2 1_555 1_555
C3_2 H1_2 1_555 1_555
C8_2 C3_2 1_555 1_555
O6_2 Cu1_2 1_555 1_555
C17_2 O6_2 1_555 1_555
H10_2 C17_2 1_555 1_555
N2_2 C17_2 1_555 1_555
C18_2 N2_2 1_555 1_555
H11_2 C18_2 1_555 1_555
H12_2 C18_2 1_555 1_555
H13_2 C18_2 1_555 1_555
C19_2 N2_2 1_555 1_555
H14_2 C19_2 1_555 1_555
H15_2 C19_2 1_555 1_555
H16_2 C19_2 1_555 1_555
Cu2_2 O4_2 1_555 1_555
Cu4_2 O3_2 1_555 1_555
O7_2 Cu1_2 1_555 1_555
O8_2 Cu1_2 1_555 1_555
O9_2 Cu1_2 1_555 1_555
Cu2_2 Cu4_2 1_555 1_555
Cu1_3 O1_3 1_555 1_555
O1_3 C1_3 1_555 1_555
O2_3 C1_3 1_555 1_555
O3_3 C2_3 1_555 1_555
O4_3 C2_3 1_555 1_555
O5_3 C9_3 1_555 1_555
N1_3 C6_3 1_555 1_555
C1_3 C4_3 1_555 1_555
C2_3 C8_3 1_555 1_555
C3_3 H1_3 1_555 1_555
C4_3 C3_3 1_555 1_555
C5_3 C4_3 1_555 1_555
H2_3 C5_3 1_555 1_555
C6_3 C5_3 1_555 1_555
C7_3 C6_3 1_555 1_555
H3_3 C7_3 1_555 1_555
C8_3 C3_3 1_555 1_555
C9_3 N1_3 1_555 1_555
C10_3 N1_3 1_555 1_555
H4_3 C10_3 1_555 1_555
H5_3 C10_3 1_555 1_555
C11_3 C10_3 1_555 1_555
C12_3 C9_3 1_555 1_555
O6_3 Cu1_3 1_555 1_555
C17_3 O6_3 1_555 1_555
H10_3 C17_3 1_555 1_555
N2_3 C17_3 1_555 1_555
C18_3 N2_3 1_555 1_555
H11_3 C18_3 1_555 1_555
H12_3 C18_3 1_555 1_555
H13_3 C18_3 1_555 1_555
C19_3 N2_3 1_555 1_555
H14_3 C19_3 1_555 1_555
H15_3 C19_3 1_555 1_555
H16_3 C19_3 1_555 1_555
Cu2_3 O4_3 1_555 1_555
Cu3_3 Cu1_3 1_555 1_555
Cu4_3 O3_3 1_555 1_555
O7_3 Cu1_3 1_555 1_555
O8_3 Cu1_3 1_555 1_555
O9_3 Cu1_3 1_555 1_555
O2_3 Cu3_3 1_555 1_555
C7_3 C8_3 1_555 1_555
C11_3 C12_3 1_555 1_555
Cu2_3 Cu4_3 1_555 1_555
Cu1_4 O1_4 1_555 1_555
O1_4 C1_4 1_555 1_555
O2_4 C1_4 1_555 1_555
C1_4 C4_4 1_555 1_555
C3_4 H1_4 1_555 1_555
C4_4 C3_4 1_555 1_555
O6_4 Cu1_4 1_555 1_555
C17_4 O6_4 1_555 1_555
H10_4 C17_4 1_555 1_555
N2_4 C17_4 1_555 1_555
C18_4 N2_4 1_555 1_555
H11_4 C18_4 1_555 1_555
H12_4 C18_4 1_555 1_555
H13_4 C18_4 1_555 1_555
C19_4 N2_4 1_555 1_555
H14_4 C19_4 1_555 1_555
H15_4 C19_4 1_555 1_555
H16_4 C19_4 1_555 1_555
Cu3_4 Cu1_4 1_555 1_555
Cu3_2 O3_4 1_555 1_555
O7_4 Cu1_4 1_555 1_555
O8_4 Cu1_4 1_555 1_555
O9_4 Cu1_4 1_555 1_555
O2_4 Cu3_4 1_555 1_555
O9_2 C2_4 1_555 1_555
O5_4 C9_4 1_555 1_555
N1_4 C6_4 1_555 1_555
C2_4 C8_4 1_555 1_555
H2_4 C5_4 1_555 1_555
C6_4 C5_4 1_555 1_555
C7_4 C6_4 1_555 1_555
H3_4 C7_4 1_555 1_555
C9_4 N1_4 1_555 1_555
C10_4 N1_4 1_555 1_555
H4_4 C10_4 1_555 1_555
H5_4 C10_4 1_555 1_555
C11_4 C10_4 1_555 1_555
C12_4 C9_4 1_555 1_555
C13_2 C12_4 1_555 1_555
H6_4 C13_2 1_555 1_555
C14_2 C13_2 1_555 1_555
C15_2 C14_2 1_555 1_555
H8_2 C15_2 1_555 1_555
C16_2 C11_4 1_555 1_555
H9_2 C16_2 1_555 1_555
C7_4 C8_4 1_555 1_555
C11_4 C12_4 1_555 1_555
C15_2 C16_2 1_555 1_555
Cu1_5 O1_5 1_555 1_555
O1_5 C1_5 1_555 1_555
O2_5 C1_5 1_555 1_555
O3_5 C2_5 1_555 1_555
O9_3 C2_5 1_555 1_555
O5_5 C9_5 1_555 1_555
N1_5 C6_5 1_555 1_555
C1_5 C4_5 1_555 1_555
C2_5 C8_5 1_555 1_555
C3_5 H1_5 1_555 1_555
C4_5 C3_5 1_555 1_555
C5_5 C4_5 1_555 1_555
H2_5 C5_5 1_555 1_555
C6_5 C5_5 1_555 1_555
C7_5 C6_5 1_555 1_555
H3_5 C7_5 1_555 1_555
C8_5 C3_5 1_555 1_555
C9_5 N1_5 1_555 1_555
C10_5 N1_5 1_555 1_555
H4_5 C10_5 1_555 1_555
H5_5 C10_5 1_555 1_555
C11_5 C10_5 1_555 1_555
C12_5 C9_5 1_555 1_555
C13_3 C12_5 1_555 1_555
H6_5 C13_3 1_555 1_555
C14_3 C13_3 1_555 1_555
C15_3 C14_3 1_555 1_555
H8_3 C15_3 1_555 1_555
C16_3 C11_5 1_555 1_555
H9_3 C16_3 1_555 1_555
O6_5 Cu1_5 1_555 1_555
C17_5 O6_5 1_555 1_555
H10_5 C17_5 1_555 1_555
N2_5 C17_5 1_555 1_555
C18_5 N2_5 1_555 1_555
H11_5 C18_5 1_555 1_555
H12_5 C18_5 1_555 1_555
H13_5 C18_5 1_555 1_555
C19_5 N2_5 1_555 1_555
H14_5 C19_5 1_555 1_555
H15_5 C19_5 1_555 1_555
H16_5 C19_5 1_555 1_555
Cu3_5 Cu1_5 1_555 1_555
Cu3_3 O3_5 1_555 1_555
O7_5 Cu1_5 1_555 1_555
O8_5 Cu1_5 1_555 1_555
O9_5 Cu1_5 1_555 1_555
O2_5 Cu3_5 1_555 1_555
C7_5 C8_5 1_555 1_555
C11_5 C12_5 1_555 1_555
C15_3 C16_3 1_555 1_555
O9 C2_6 1_555 1_555
O5_6 C9_6 1_555 1_555
N1_6 C6_6 1_555 1_555
C2_6 C8_6 1_555 1_555
H2_6 C5_6 1_555 1_555
C6_6 C5_6 1_555 1_555
C7_6 C6_6 1_555 1_555
H3_6 C7_6 1_555 1_555
C9_6 N1_6 1_555 1_555
C10_6 N1_6 1_555 1_555
H4_6 C10_6 1_555 1_555
H5_6 C10_6 1_555 1_555
C11_6 C10_6 1_555 1_555
C12_6 C9_6 1_555 1_555
C13_4 C12_6 1_555 1_555
H6_6 C13_4 1_555 1_555
C14_4 C13_4 1_555 1_555
H7_2 C14_4 1_555 1_555
C15_4 C14_4 1_555 1_555
H8_4 C15_4 1_555 1_555
C16_4 C11_6 1_555 1_555
H9_4 C16_4 1_555 1_555
C7_6 C8_6 1_555 1_555
C11_6 C12_6 1_555 1_555
C15_4 C16_4 1_555 1_555
Cu1_6 O1_6 1_555 1_555
O1_6 C1_6 1_555 1_555
O2_6 C1_6 1_555 1_555
C1_6 C4_6 1_555 1_555
C3_6 H1_6 1_555 1_555
C4_6 C3_6 1_555 1_555
O6_6 Cu1_6 1_555 1_555
C17_6 O6_6 1_555 1_555
H10_6 C17_6 1_555 1_555
N2_6 C17_6 1_555 1_555
C18_6 N2_6 1_555 1_555
H11_6 C18_6 1_555 1_555
H12_6 C18_6 1_555 1_555
H13_6 C18_6 1_555 1_555
C19_6 N2_6 1_555 1_555
H14_6 C19_6 1_555 1_555
H15_6 C19_6 1_555 1_555
H16_6 C19_6 1_555 1_555
Cu3_6 Cu1_6 1_555 1_555
Cu3 O3_6 1_555 1_555
O7_6 Cu1_6 1_555 1_555
O8_6 Cu1_6 1_555 1_555
O9_6 Cu1_6 1_555 1_555
O2_6 Cu3_6 1_555 1_555
Cu2_3 O1_7 1_555 1_555
O1_7 C1_7 1_555 1_555
O2_7 C1_7 1_555 1_555
O5_7 C9_7 1_555 1_555
N1_7 C6_7 1_555 1_555
C1_7 C4_7 1_555 1_555
C3_7 H1_7 1_555 1_555
C4_7 C3_7 1_555 1_555
C5_7 C4_7 1_555 1_555
H2_7 C5_7 1_555 1_555
C6_7 C5_7 1_555 1_555
C9_7 N1_7 1_555 1_555
C10_7 N1_7 1_555 1_555
H5_7 C10_7 1_555 1_555
C11_7 C10_7 1_555 1_555
C12_7 C9_7 1_555 1_555
C13_5 C12_7 1_555 1_555
H6_7 C13_5 1_555 1_555
C14_5 C13_5 1_555 1_555
H7_3 C14_5 1_555 1_555
C15_5 C14_5 1_555 1_555
H8_5 C15_5 1_555 1_555
C16_5 C11_7 1_555 1_555
H9_5 C16_5 1_555 1_555
O6_7 Cu2_3 1_555 1_555
C17_7 O6_7 1_555 1_555
H10_7 C17_7 1_555 1_555
O7_7 Cu2_3 1_555 1_555
O8_7 Cu2_3 1_555 1_555
O2_7 Cu4_3 1_555 1_555
C11_7 C12_7 1_555 1_555
C15_5 C16_5 1_555 1_555
O3_7 C2_7 1_555 1_555
O9_5 C2_7 1_555 1_555
C2_7 C8_7 1_555 1_555
H3_7 C7_7 1_555 1_555
Cu3_5 O3_7 1_555 1_555
C7_7 C8_7 1_555 1_555
Cu2 O1_8 1_555 1_555
O1_8 C1_8 1_555 1_555
O2_8 C1_8 1_555 1_555
C1_8 C4_8 1_555 1_555
C5_8 C4_8 1_555 1_555
H2_8 C5_8 1_555 1_555
O6_8 Cu2 1_555 1_555
C17_8 O6_8 1_555 1_555
H10_8 C17_8 1_555 1_555
N2_7 C17_8 1_555 1_555
C18_7 N2_7 1_555 1_555
H11_7 C18_7 1_555 1_555
H12_7 C18_7 1_555 1_555
H13_7 C18_7 1_555 1_555
C19_7 N2_7 1_555 1_555
H14_7 C19_7 1_555 1_555
H15_7 C19_7 1_555 1_555
H16_7 C19_7 1_555 1_555
O7_8 Cu2 1_555 1_555
O8_8 Cu2 1_555 1_555
O2_8 Cu4 1_555 1_555
O3_8 C2_8 1_555 1_555
O9_6 C2_8 1_555 1_555
C2_8 C8_8 1_555 1_555
H3_8 C7_8 1_555 1_555
Cu3_6 O3_8 1_555 1_555
C7_8 C8_8 1_555 1_555
O3_9 C2_9 1_555 1_555
O9_4 C2_9 1_555 1_555
C2_9 C8_9 1_555 1_555
H3_9 C7_9 1_555 1_555
Cu3_4 O3_9 1_555 1_555
C7_9 C8_9 1_555 1_555
Cu2_2 O1_9 1_555 1_555
O1_9 C1_9 1_555 1_555
O2_9 C1_9 1_555 1_555
C1_9 C4_9 1_555 1_555
C5_9 C4_9 1_555 1_555
H2_9 C5_9 1_555 1_555
O6_9 Cu2_2 1_555 1_555
C17_9 O6_9 1_555 1_555
H10_9 C17_9 1_555 1_555
O7_9 Cu2_2 1_555 1_555
O8_9 Cu2_2 1_555 1_555
O2_9 Cu4_2 1_555 1_555
O7 C1_10 1_555 1_555
O5_10 C9_8 1_555 1_555
N1_8 C6_8 1_555 1_555
C1_10 C4_10 1_555 1_555
C5_10 C4_10 1_555 1_555
H2_10 C5_10 1_555 1_555
C6_8 C5_10 1_555 1_555
C7_10 C6_8 1_555 1_555
H3_10 C7_10 1_555 1_555
C9_8 N1_8 1_555 1_555
C10_8 N1_8 1_555 1_555
H4_10 C10_8 1_555 1_555
H5_8 C10_8 1_555 1_555
C11_8 C10_8 1_555 1_555
C12_8 C9_8 1_555 1_555
C11_8 C12_8 1_555 1_555
Cu3 O1_10 1_555 1_555
O8_5 C2_10 1_555 1_555
O4_4 C2_10 1_555 1_555
C2_10 C8_10 1_555 1_555
C3_8 H1_8 1_555 1_555
C8_10 C3_8 1_555 1_555
O6_10 Cu3 1_555 1_555
C17_10 O6_10 1_555 1_555
H10_10 C17_10 1_555 1_555
N2_8 C17_10 1_555 1_555
C18_8 N2_8 1_555 1_555
H11_8 C18_8 1_555 1_555
H12_8 C18_8 1_555 1_555
H13_8 C18_8 1_555 1_555
C19_8 N2_8 1_555 1_555
H14_8 C19_8 1_555 1_555
H15_8 C19_8 1_555 1_555
H16_8 C19_8 1_555 1_555
Cu3_5 O4_4 1_555 1_555
O9_7 Cu3 1_555 1_555
Cu3_2 O1_11 1_555 1_555
O8_6 C2_11 1_555 1_555
O4_5 C2_11 1_555 1_555
C2_11 C8_11 1_555 1_555
C3_9 H1_9 1_555 1_555
C8_11 C3_9 1_555 1_555
O6_11 Cu3_2 1_555 1_555
C17_11 O6_11 1_555 1_555
H10_11 C17_11 1_555 1_555
N2_9 C17_11 1_555 1_555
C18_9 N2_9 1_555 1_555
H11_9 C18_9 1_555 1_555
H12_9 C18_9 1_555 1_555
H13_9 C18_9 1_555 1_555
C19_9 N2_9 1_555 1_555
H14_9 C19_9 1_555 1_555
H15_9 C19_9 1_555 1_555
H16_9 C19_9 1_555 1_555
Cu3_6 O4_5 1_555 1_555
O9_8 Cu3_2 1_555 1_555
O7_2 C1_11 1_555 1_555
O5_11 C9_9 1_555 1_555
N1_9 C6_9 1_555 1_555
C1_11 C4_11 1_555 1_555
C5_11 C4_11 1_555 1_555
H2_11 C5_11 1_555 1_555
C6_9 C5_11 1_555 1_555
C7_11 C6_9 1_555 1_555
H3_11 C7_11 1_555 1_555
C9_9 N1_9 1_555 1_555
C10_9 N1_9 1_555 1_555
H4_11 C10_9 1_555 1_555
H5_9 C10_9 1_555 1_555
C11_9 C10_9 1_555 1_555
C12_9 C9_9 1_555 1_555
C13_6 C12_9 1_555 1_555
H6_9 C13_6 1_555 1_555
C14_6 C13_6 1_555 1_555
H7_4 C14_6 1_555 1_555
C15_6 C14_6 1_555 1_555
H8_6 C15_6 1_555 1_555
C16_6 C11_9 1_555 1_555
H9_9 C16_6 1_555 1_555
C11_9 C12_9 1_555 1_555
C15_6 C16_6 1_555 1_555
Cu3_3 O1_12 1_555 1_555
O1_12 C1_12 1_555 1_555
O7_3 C1_12 1_555 1_555
O8_4 C2_12 1_555 1_555
O4_6 C2_12 1_555 1_555
O5_12 C9_10 1_555 1_555
N1_10 C6_10 1_555 1_555
C1_12 C4_12 1_555 1_555
C2_12 C8_12 1_555 1_555
C3_10 H1_10 1_555 1_555
C4_12 C3_10 1_555 1_555
C5_12 C4_12 1_555 1_555
H2_12 C5_12 1_555 1_555
C6_10 C5_12 1_555 1_555
C7_12 C6_10 1_555 1_555
H3_12 C7_12 1_555 1_555
C8_12 C3_10 1_555 1_555
C9_10 N1_10 1_555 1_555
C10_10 N1_10 1_555 1_555
H4_12 C10_10 1_555 1_555
H5_10 C10_10 1_555 1_555
C11_10 C10_10 1_555 1_555
C12_10 C9_10 1_555 1_555
O6_12 Cu3_3 1_555 1_555
C17_12 O6_12 1_555 1_555
H10_12 C17_12 1_555 1_555
N2_10 C17_12 1_555 1_555
C18_10 N2_10 1_555 1_555
H11_10 C18_10 1_555 1_555
H12_10 C18_10 1_555 1_555
H13_10 C18_10 1_555 1_555
C19_10 N2_10 1_555 1_555
H14_10 C19_10 1_555 1_555
H15_10 C19_10 1_555 1_555
H16_10 C19_10 1_555 1_555
Cu3_4 O4_6 1_555 1_555
O9_9 Cu3_3 1_555 1_555
C7_12 C8_12 1_555 1_555
C11_10 C12_10 1_555 1_555
O9_8 C2_13 1_555 1_555
O5_13 C9_11 1_555 1_555
N1_11 C6_11 1_555 1_555
C2_13 C8_13 1_555 1_555
H2_13 C5_13 1_555 1_555
C6_11 C5_13 1_555 1_555
C7_13 C6_11 1_555 1_555
H3_13 C7_13 1_555 1_555
C9_11 N1_11 1_555 1_555
C10_11 N1_11 1_555 1_555
H4_13 C10_11 1_555 1_555
H5_11 C10_11 1_555 1_555
C11_11 C10_11 1_555 1_555
C12_11 C9_11 1_555 1_555
C13_7 C12_11 1_555 1_555
H6_11 C13_7 1_555 1_555
C14_7 C13_7 1_555 1_555
C15_7 C14_7 1_555 1_555
H8_7 C15_7 1_555 1_555
C16_7 C11_11 1_555 1_555
H9_10 C16_7 1_555 1_555
C7_13 C8_13 1_555 1_555
C11_11 C12_11 1_555 1_555
C15_7 C16_7 1_555 1_555
Cu4_3 O1_13 1_555 1_555
O1_13 C1_13 1_555 1_555
O7_7 C1_13 1_555 1_555
C1_13 C4_13 1_555 1_555
C3_11 H1_11 1_555 1_555
C4_13 C3_11 1_555 1_555
O6_13 Cu4_3 1_555 1_555
C17_13 O6_13 1_555 1_555
H10_13 C17_13 1_555 1_555
N2_11 C17_13 1_555 1_555
C18_11 N2_11 1_555 1_555
H11_11 C18_11 1_555 1_555
H12_11 C18_11 1_555 1_555
H13_11 C18_11 1_555 1_555
C19_11 N2_11 1_555 1_555
H14_11 C19_11 1_555 1_555
H15_11 C19_11 1_555 1_555
H16_11 C19_11 1_555 1_555
O9_10 Cu4_3 1_555 1_555
Cu4 O1_14 1_555 1_555
O1_14 C1_14 1_555 1_555
O7_8 C1_14 1_555 1_555
O8_3 C2_14 1_555 1_555
O9_9 C2_14 1_555 1_555
O5_14 C9_12 1_555 1_555
N1_12 C6_12 1_555 1_555
C1_14 C4_14 1_555 1_555
C2_14 C8_14 1_555 1_555
C3_12 H1_12 1_555 1_555
C4_14 C3_12 1_555 1_555
C5_14 C4_14 1_555 1_555
H2_14 C5_14 1_555 1_555
C6_12 C5_14 1_555 1_555
C7_14 C6_12 1_555 1_555
H3_14 C7_14 1_555 1_555
C8_14 C3_12 1_555 1_555
C9_12 N1_12 1_555 1_555
C10_12 N1_12 1_555 1_555
H4_14 C10_12 1_555 1_555
H5_12 C10_12 1_555 1_555
C11_12 C10_12 1_555 1_555
C12_12 C9_12 1_555 1_555
C13_8 C12_12 1_555 1_555
H6_12 C13_8 1_555 1_555
C14_8 C13_8 1_555 1_555
C15_8 C14_8 1_555 1_555
H8_8 C15_8 1_555 1_555
C16_8 C11_12 1_555 1_555
H9_11 C16_8 1_555 1_555
O6_14 Cu4 1_555 1_555
C17_14 O6_14 1_555 1_555
H10_14 C17_14 1_555 1_555
N2_12 C17_14 1_555 1_555
C18_12 N2_12 1_555 1_555
H11_12 C18_12 1_555 1_555
H12_12 C18_12 1_555 1_555
H13_12 C18_12 1_555 1_555
C19_12 N2_12 1_555 1_555
H14_12 C19_12 1_555 1_555
H15_12 C19_12 1_555 1_555
H16_12 C19_12 1_555 1_555
O9_11 Cu4 1_555 1_555
C7_14 C8_14 1_555 1_555
C11_12 C12_12 1_555 1_555
C15_8 C16_8 1_555 1_555
Cu4_2 O1_15 1_555 1_555
O1_15 C1_15 1_555 1_555
O7_9 C1_15 1_555 1_555
C1_15 C4_15 1_555 1_555
C3_13 H1_13 1_555 1_555
C4_15 C3_13 1_555 1_555
O6_15 Cu4_2 1_555 1_555
C17_15 O6_15 1_555 1_555
H10_15 C17_15 1_555 1_555
N2_13 C17_15 1_555 1_555
C18_13 N2_13 1_555 1_555
H11_13 C18_13 1_555 1_555
H12_13 C18_13 1_555 1_555
H13_13 C18_13 1_555 1_555
C19_13 N2_13 1_555 1_555
H14_13 C19_13 1_555 1_555
H15_13 C19_13 1_555 1_555
H16_13 C19_13 1_555 1_555
O9_12 Cu4_2 1_555 1_555
O9_7 C2_15 1_555 1_555
O5_15 C9_13 1_555 1_555
N1_13 C6_13 1_555 1_555
C2_15 C8_15 1_555 1_555
H2_15 C5_15 1_555 1_555
C6_13 C5_15 1_555 1_555
C7_15 C6_13 1_555 1_555
H3_15 C7_15 1_555 1_555
C9_13 N1_13 1_555 1_555
C10_13 N1_13 1_555 1_555
H4_15 C10_13 1_555 1_555
H5_13 C10_13 1_555 1_555
C11_13 C10_13 1_555 1_555
C12_13 C9_13 1_555 1_555
C13_9 C12_13 1_555 1_555
H6_13 C13_9 1_555 1_555
C14_9 C13_9 1_555 1_555
H7_5 C14_9 1_555 1_555
C15_9 C14_9 1_555 1_555
H8_9 C15_9 1_555 1_555
C16_9 C11_13 1_555 1_555
H9_12 C16_9 1_555 1_555
C7_15 C8_15 1_555 1_555
C11_13 C12_13 1_555 1_555
C15_9 C16_9 1_555 1_555
O8_8 C2_16 1_555 1_555
O9_11 C2_16 1_555 1_555
C2_16 C8_16 1_555 1_555
H3_16 C7_16 1_555 1_555
C7_16 C8_16 1_555 1_555
Cu3_4 O1_16 1_555 1_555
O1_16 C1_16 1_555 1_555
O7_4 C1_16 1_555 1_555
O5_16 C9_14 1_555 1_555
N1_14 C6_14 1_555 1_555
C1_16 C4_16 1_555 1_555
C3_14 H1_14 1_555 1_555
C4_16 C3_14 1_555 1_555
C5_16 C4_16 1_555 1_555
H2_16 C5_16 1_555 1_555
C6_14 C5_16 1_555 1_555
C9_14 N1_14 1_555 1_555
C10_14 N1_14 1_555 1_555
H5_14 C10_14 1_555 1_555
C11_14 C10_14 1_555 1_555
C12_14 C9_14 1_555 1_555
C13_10 C12_14 1_555 1_555
H6_14 C13_10 1_555 1_555
C14_10 C13_10 1_555 1_555
H7_6 C14_10 1_555 1_555
C15_10 C14_10 1_555 1_555
H8_10 C15_10 1_555 1_555
C16_10 C11_14 1_555 1_555
H9_14 C16_10 1_555 1_555
O6_16 Cu3_4 1_555 1_555
C17_16 O6_16 1_555 1_555
H10_16 C17_16 1_555 1_555
C11_14 C12_14 1_555 1_555
C15_10 C16_10 1_555 1_555
O8_9 C2_17 1_555 1_555
O9_12 C2_17 1_555 1_555
C2_17 C8_17 1_555 1_555
H3_17 C7_17 1_555 1_555
C7_17 C8_17 1_555 1_555
Cu3_5 O1_17 1_555 1_555
O1_17 C1_17 1_555 1_555
O7_5 C1_17 1_555 1_555
C1_17 C4_17 1_555 1_555
C5_17 C4_17 1_555 1_555
H2_17 C5_17 1_555 1_555
O6_17 Cu3_5 1_555 1_555
C17_17 O6_17 1_555 1_555
H10_17 C17_17 1_555 1_555
N2_14 C17_17 1_555 1_555
C18_14 N2_14 1_555 1_555
H11_14 C18_14 1_555 1_555
H12_14 C18_14 1_555 1_555
H13_14 C18_14 1_555 1_555
C19_14 N2_14 1_555 1_555
H14_14 C19_14 1_555 1_555
H15_14 C19_14 1_555 1_555
H16_14 C19_14 1_555 1_555
Cu3_6 O1_18 1_555 1_555
O1_18 C1_18 1_555 1_555
O7_6 C1_18 1_555 1_555
C1_18 C4_18 1_555 1_555
C5_18 C4_18 1_555 1_555
H2_18 C5_18 1_555 1_555
O6_18 Cu3_6 1_555 1_555
C17_18 O6_18 1_555 1_555
H10_18 C17_18 1_555 1_555
O8_7 C2_18 1_555 1_555
O9_10 C2_18 1_555 1_555
C2_18 C8_18 1_555 1_555
H3_18 C7_18 1_555 1_555
C7_18 C8_18 1_555 1_555
C14_11 C13_11 1_555 1_555
H7_7 C14_11 1_555 1_555
C15_11 C14_11 1_555 1_555
H8_11 C15_11 1_555 1_555
H9_17 C16_11 1_555 1_555
C15_11 C16_11 1_555 1_555
C14_12 C13_12 1_555 1_555
H7_8 C14_12 1_555 1_555
C15_12 C14_12 1_555 1_555
H8_12 C15_12 1_555 1_555
H9_18 C16_12 1_555 1_555
C15_12 C16_12 1_555 1_555
C18_15 N2_15 1_555 1_555
H11_15 C18_15 1_555 1_555
H12_15 C18_15 1_555 1_555
H13_15 C18_15 1_555 1_555
C19_15 N2_15 1_555 1_555
H14_15 C19_15 1_555 1_555
H15_15 C19_15 1_555 1_555
H16_15 C19_15 1_555 1_555
N1_15 C6_15 1_555 1_555
C3_15 H1_15 1_555 1_555
C9_15 N1_15 1_555 1_555
C10_15 N1_15 1_555 1_555
H5_15 C10_15 1_555 1_555
C11_15 C10_15 1_555 1_555
C12_15 C9_15 1_555 1_555
C13_13 C12_15 1_555 1_555
H6_15 C13_13 1_555 1_555
C14_13 C13_13 1_555 1_555
H7_11 C14_13 1_555 1_555
C15_13 C14_13 1_555 1_555
H8_13 C15_13 1_555 1_555
C16_13 C11_15 1_555 1_555
H9_19 C16_13 1_555 1_555
C11_15 C12_15 1_555 1_555
C15_13 C16_13 1_555 1_555
N1_16 C6_16 1_555 1_555
C3_16 H1_16 1_555 1_555
C9_16 N1_16 1_555 1_555
C10_16 N1_16 1_555 1_555
H5_16 C10_16 1_555 1_555
C11_16 C10_16 1_555 1_555
C12_16 C9_16 1_555 1_555
C13_14 C12_16 1_555 1_555
H6_16 C13_14 1_555 1_555
C14_14 C13_14 1_555 1_555
H7_12 C14_14 1_555 1_555
C15_14 C14_14 1_555 1_555
H8_14 C15_14 1_555 1_555
C16_14 C11_16 1_555 1_555
H9_20 C16_14 1_555 1_555
C11_16 C12_16 1_555 1_555
C15_14 C16_14 1_555 1_555
C18_16 N2_16 1_555 1_555
H11_16 C18_16 1_555 1_555
H12_16 C18_16 1_555 1_555
H13_16 C18_16 1_555 1_555
C19_16 N2_16 1_555 1_555
H14_16 C19_16 1_555 1_555
H15_16 C19_16 1_555 1_555
H16_16 C19_16 1_555 1_555
C14_15 C13_15 1_555 1_555
H7_13 C14_15 1_555 1_555
C15_15 C14_15 1_555 1_555
H8_15 C15_15 1_555 1_555
H9_21 C16_15 1_555 1_555
C15_15 C16_15 1_555 1_555
C14_16 C13_16 1_555 1_555
H7_14 C14_16 1_555 1_555
C15_16 C14_16 1_555 1_555
H8_16 C15_16 1_555 1_555
H9_22 C16_16 1_555 1_555
C15_16 C16_16 1_555 1_555
C18_17 N2_17 1_555 1_555
H11_17 C18_17 1_555 1_555
H12_17 C18_17 1_555 1_555
H13_17 C18_17 1_555 1_555
C19_17 N2_17 1_555 1_555
H14_17 C19_17 1_555 1_555
H15_17 C19_17 1_555 1_555
H16_17 C19_17 1_555 1_555
N1_17 C6_17 1_555 1_555
C3_17 H1_17 1_555 1_555
C9_17 N1_17 1_555 1_555
C10_17 N1_17 1_555 1_555
H5_17 C10_17 1_555 1_555
C11_17 C10_17 1_555 1_555
C12_17 C9_17 1_555 1_555
C13_17 C12_17 1_555 1_555
H6_17 C13_17 1_555 1_555
C14_17 C13_17 1_555 1_555
H7_17 C14_17 1_555 1_555
C15_17 C14_17 1_555 1_555
H8_17 C15_17 1_555 1_555
C16_17 C11_17 1_555 1_555
H9_23 C16_17 1_555 1_555
C11_17 C12_17 1_555 1_555
C15_17 C16_17 1_555 1_555
C18_18 N2_18 1_555 1_555
H11_18 C18_18 1_555 1_555
H12_18 C18_18 1_555 1_555
H13_18 C18_18 1_555 1_555
C19_18 N2_18 1_555 1_555
H14_18 C19_18 1_555 1_555
H15_18 C19_18 1_555 1_555
H16_18 C19_18 1_555 1_555
N1_18 C6_18 1_555 1_555
C3_18 H1_18 1_555 1_555
C9_18 N1_18 1_555 1_555
C10_18 N1_18 1_555 1_555
H5_18 C10_18 1_555 1_555
C11_18 C10_18 1_555 1_555
C12_18 C9_18 1_555 1_555
C13_18 C12_18 1_555 1_555
H6_18 C13_18 1_555 1_555
C14_18 C13_18 1_555 1_555
H7_18 C14_18 1_555 1_555
C15_18 C14_18 1_555 1_555
H8_18 C15_18 1_555 1_555
C16_18 C11_18 1_555 1_555
H9_24 C16_18 1_555 1_555
C11_18 C12_18 1_555 1_555
C15_18 C16_18 1_555 1_555

#END
