
###############################################################################
#
# This file contains modified crystal structure data generated from the
# MOF subset of the Cambridge Structural Database (CSD) v543 
# hosted by the Cambridge Crystallographic Data Centre (CCDC).
#
# This work is licensed under the Creative Commons
# Attribution-NonCommercial-ShareAlike 4.0 International License.
# To view a copy of this license, visit
# http://creativecommons.org/licenses/by-nc-sa/4.0/
# or send a letter to
# Creative Commons, PO Box 1866, Mountain View, CA 94042, USA.
#
# CIF created using the CSD Python API on 29 September 2022
# The structure has been converted into the P1 space group
# The structure has a 3D framework
# The original CSD entry EPEYAB is in the rhombohedral crystal system
# The framework has been calculated to contain at least 10.0% void space
# The void calculation uses a probe of radius 1.32A, grid spacing 0.4
#
###############################################################################

data_EPEYAB
_chemical_formula_moiety         '(C288 H198 Cu18 N18 O104)n'
_symmetry_cell_setting           triclinic
_symmetry_space_group_name_H-M   'P 1'
_symmetry_Int_Tables_number      1
_space_group_name_Hall           'P 1'
loop_
_symmetry_equiv_pos_site_id
_symmetry_equiv_pos_as_xyz
1 x,y,z
_cell_length_a                   21.2498(2)
_cell_length_b                   21.2498(2)
_cell_length_c                   22.0147(3)
_cell_angle_alpha                90
_cell_angle_beta                 90
_cell_angle_gamma                120
_cell_volume                     8609.01
loop_
_atom_site_label
_atom_site_type_symbol
_atom_site_fract_x
_atom_site_fract_y
_atom_site_fract_z
C13 C 0.0101(3) 0.7280(4) 0.0520(3)
C14 C 0.0828(3) 0.7700(4) 0.0660(3)
H9 H 0.1167 0.7624 0.0454
C15 C 0.1059(4) 0.8230(5) 0.1099(3)
H10 H 0.1552 0.8502 0.1187
C16 C 0.0582(3) 0.8371(4) 0.1414(3)
H11 H 0.0744 0.8730 0.1711
Cu1 Cu 0.46007(3) 0.53039(3) 0.00980(3)
O1 O 0.54193(19) 0.59921(19) 0.06200(15)
O2 O 0.3958(4) 0.5814(4) 0.0215(3)
H1 H 0.4138 0.6353 0.0300
H2 H 0.3401 0.5568 0.0204
O3 O 0.61133(19) 0.5507(2) 0.04179(15)
O4 O 0.7393(2) 0.82089(19) 0.27028(15)
O5 O 0.62026(19) 0.75359(19) 0.25260(15)
O6 O 0.8457(3) 0.6527(3) 0.0485(2)
N1 N 0.8596(2) 0.7391(2) 0.1204(2)
C1 C 0.5992(2) 0.5960(2) 0.06683(19)
C2 C 0.6848(3) 0.7738(2) 0.24077(19)
C3 C 0.7000(3) 0.7391(2) 0.1879(2)
C4 C 0.6433(3) 0.6876(2) 0.1520(2)
H3 H 0.5958 0.6768 0.1590
C5 C 0.6586(3) 0.6532(3) 0.1061(2)
C6 C 0.7299(3) 0.6683(3) 0.0962(2)
H4 H 0.7394 0.6431 0.0664
C7 C 0.7867(3) 0.7209(3) 0.1309(2)
C8 C 0.7712(3) 0.7568(3) 0.1767(2)
H5 H 0.8087 0.7926 0.1997
C9 C 0.8815(3) 0.7047(3) 0.0784(2)
C10 C 0.9203(3) 0.7956(3) 0.1539(3)
H6 H 0.9162 0.7843 0.1969
H7 H 0.9233 0.8423 0.1483
C11 C 0.9842(3) 0.7953(3) 0.1268(3)
C12 C 0.9621(3) 0.7430(3) 0.0831(2)
H8 H 0.9938 0.6913 0.0230
Cu2 Cu 0.73699(4) 0.87326(3) 0.34313(3)
Cu4 Cu 0.59635(4) 0.79340(3) 0.32353(3)
O9 O 0.42026(19) 0.46666(27) 0.08073(15)
Cu3 Cu 0.53993(3) 0.46961(3) 0.99020(3)
O7 O 0.38867(19) 0.4493(2) 0.95821(15)
O8 O 0.51244(19) 0.58508(28) 0.93695(15)
Cu3_2 Cu 0.53039(3) 0.07032(4) 0.99020(3)
Cu1_2 Cu 0.46961(3) 0.92968(4) 0.00980(3)
O1_2 O 0.40079(19) 0.94272(27) 0.06200(15)
O2_2 O 0.4186(4) 0.8144(6) 0.0215(3)
H1_2 H 0.3647 0.7785 0.0300
H2_2 H 0.4432 0.7833 0.0204
O4_2 O 0.17911(19) 0.91841(28) 0.27028(15)
O5_2 O 0.24641(19) 0.86667(27) 0.25260(15)
C2_2 C 0.2262(2) 0.9110(4) 0.24077(19)
C3_2 C 0.2609(2) 0.9609(4) 0.1879(2)
C4_2 C 0.3124(2) 0.9557(4) 0.1520(2)
H3_2 H 0.3232 0.9190 0.1590
Cu2_2 Cu 0.12674(3) 0.86372(5) 0.34313(3)
Cu4_2 Cu 0.20660(3) 0.80294(5) 0.32353(3)
O9_2 O 0.53334(27) 0.95359(33) 0.08073(15)
Cu1_3 Cu 0.07032(4) 0.53993(3) 0.00980(3)
O1_3 O 0.05728(27) 0.45807(19) 0.06200(15)
O2_3 O 0.1856(6) 0.6042(4) 0.0215(3)
H1_3 H 0.2215 0.5862 0.0300
H2_3 H 0.2167 0.6599 0.0204
O4_3 O 0.08159(28) 0.2607(2) 0.27028(15)
O5_3 O 0.13333(27) 0.37974(19) 0.25260(15)
C2_3 C 0.0890(4) 0.3152(3) 0.24077(19)
C3_3 C 0.0391(4) 0.3000(3) 0.1879(2)
C4_3 C 0.0443(4) 0.3567(3) 0.1520(2)
H3_3 H 0.0810 0.4042 0.1590
Cu2_3 Cu 0.13628(5) 0.26301(4) 0.34313(3)
Cu4_3 Cu 0.19706(5) 0.40365(4) 0.32353(3)
O9_3 O 0.04641(33) 0.57974(19) 0.08073(15)
Cu3_3 Cu 0.92968(4) 0.46007(3) 0.99020(3)
O4_4 O 0.4060(2) 0.15422(19) 0.60361(15)
O5_4 O 0.28693(19) 0.08692(19) 0.58593(15)
N1_2 N 0.5263(2) 0.0724(2) 0.4537(2)
C2_4 C 0.3515(3) 0.1071(2) 0.57410(19)
C3_4 C 0.3667(3) 0.0724(2) 0.5212(2)
C4_4 C 0.3100(3) 0.0209(2) 0.4853(2)
H3_4 H 0.2625 0.0101 0.4923
C6_2 C 0.3966(3) 0.0016(3) 0.4295(2)
C7_2 C 0.4534(3) 0.0542(3) 0.4642(2)
C8_2 C 0.4379(3) 0.0901(3) 0.5100(2)
H5_2 H 0.4754 0.1259 0.5330
C9_2 C 0.5482(3) 0.0380(3) 0.4117(2)
C10_2 C 0.5870(3) 0.1289(3) 0.4872(3)
H6_2 H 0.5829 0.1176 0.5302
H7_2 H 0.5900 0.1756 0.4816
C11_2 C 0.6509(3) 0.1286(3) 0.4601(3)
C12_2 C 0.6288(3) 0.0763(3) 0.4164(2)
C13_2 C 0.6768(3) 0.0613(4) 0.3853(3)
H8_2 H 0.6605 0.0246 0.3563
C14_2 C 0.7495(3) 0.1033(4) 0.3993(3)
H9_2 H 0.7834 0.0957 0.3787
C15_2 C 0.7726(4) 0.1563(5) 0.4432(3)
H10_2 H 0.8219 0.1835 0.4520
C16_2 C 0.7249(3) 0.1704(4) 0.4747(3)
H11_2 H 0.7411 0.2063 0.5044
Cu2_4 Cu 0.40365(4) 0.20660(3) 0.67647(3)
Cu4_4 Cu 0.26301(4) 0.12674(3) 0.65687(3)
O1_4 O 0.20860(19) 0.93254(19) 0.39533(15)
O2_4 O 0.0625(4) 0.9147(4) 0.3548(3)
H1_4 H 0.0805 0.9686 0.3633
H2_4 H 0.0068 0.8901 0.3537
O3_2 O 0.27800(19) 0.8840(2) 0.37512(15)
O6_2 O 0.5124(3) 0.9860(3) 0.3818(2)
C1_2 C 0.2659(2) 0.9293(2) 0.40016(19)
C5_2 C 0.3253(3) 0.9865(3) 0.4394(2)
H4_2 H 0.4061 0.9764 0.3997
O7_2 O 0.05534(19) 0.7826(2) 0.29154(15)
O9_4 O 0.08692(19) 0.80000(27) 0.41407(15)
O1_5 O 0.06746(19) 0.27605(27) 0.39533(15)
O2_5 O 0.0853(4) 0.1477(6) 0.3548(3)
H1_5 H 0.0314 0.1118 0.3633
H2_5 H 0.1099 0.1166 0.3537
O3_3 O 0.1160(2) 0.39396(28) 0.37512(15)
O6_3 O 0.0140(3) 0.5263(4) 0.3818(2)
C1_3 C 0.0707(2) 0.3365(3) 0.40016(19)
C5_3 C 0.0135(3) 0.3387(4) 0.4394(2)
H4_3 H 0.0236 0.4296 0.3997
O7_3 O 0.2174(2) 0.27270(28) 0.29154(15)
O9_5 O 0.20000(27) 0.28693(33) 0.41407(15)
O4_5 O 0.84578(19) 0.25174(28) 0.60361(15)
O5_5 O 0.91308(19) 0.20000(27) 0.58593(15)
N1_3 N 0.9276(2) 0.4538(3) 0.4537(2)
C2_5 C 0.8929(2) 0.2443(4) 0.57410(19)
C3_5 C 0.9276(2) 0.2942(4) 0.5212(2)
C4_5 C 0.9791(2) 0.2890(4) 0.4853(2)
H3_5 H 0.9899 0.2523 0.4923
C6_3 C 0.9984(3) 0.3949(4) 0.4295(2)
C7_3 C 0.9458(3) 0.3991(4) 0.4642(2)
C8_3 C 0.9099(3) 0.3477(4) 0.5100(2)
H5_3 H 0.8741 0.3494 0.5330
C9_3 C 0.9620(3) 0.5101(4) 0.4117(2)
C10_3 C 0.8711(3) 0.4580(4) 0.4872(3)
H6_3 H 0.8824 0.4652 0.5302
H7_3 H 0.8244 0.4143 0.4816
C11_3 C 0.8714(3) 0.5222(4) 0.4601(3)
C12_3 C 0.9237(3) 0.5524(4) 0.4164(2)
C13_3 C 0.9387(4) 0.6154(5) 0.3853(3)
H8_3 H 0.9754 0.6358 0.3563
C14_3 C 0.8967(4) 0.6461(5) 0.3993(3)
H9_3 H 0.9043 0.6876 0.3787
C15_3 C 0.8437(5) 0.6162(6) 0.4432(3)
H10_3 H 0.8165 0.6383 0.4520
C16_3 C 0.8296(4) 0.5544(5) 0.4747(3)
H11_3 H 0.7937 0.5347 0.5044
Cu2_5 Cu 0.79340(3) 0.19706(5) 0.67647(3)
Cu4_5 Cu 0.87326(3) 0.13628(5) 0.65687(3)
O1_6 O 0.72395(27) 0.79140(19) 0.39533(15)
O2_6 O 0.8523(6) 0.9375(4) 0.3548(3)
H1_6 H 0.8882 0.9195 0.3633
H2_6 H 0.8834 0.9932 0.3537
O3_4 O 0.60604(28) 0.72200(19) 0.37512(15)
O4_6 O 0.74826(28) 0.5940(2) 0.60361(15)
O5_6 O 0.80000(27) 0.71307(19) 0.58593(15)
O6_4 O 0.4737(4) 0.4876(3) 0.3818(2)
N1_4 N 0.5462(3) 0.4737(2) 0.4537(2)
C1_4 C 0.6635(3) 0.7341(2) 0.40016(19)
C2_6 C 0.7557(4) 0.6485(3) 0.57410(19)
C3_6 C 0.7058(4) 0.6333(3) 0.5212(2)
C4_6 C 0.7110(4) 0.6900(3) 0.4853(2)
H3_6 H 0.7477 0.7375 0.4923
C5_4 C 0.6613(4) 0.6747(3) 0.4394(2)
C6_4 C 0.6051(4) 0.6034(3) 0.4295(2)
H4_4 H 0.5704 0.5939 0.3997
C7_4 C 0.6009(4) 0.5466(3) 0.4642(2)
C8_4 C 0.6523(4) 0.5621(3) 0.5100(2)
H5_4 H 0.6506 0.5246 0.5330
C9_4 C 0.4899(4) 0.4518(3) 0.4117(2)
C10_4 C 0.5420(4) 0.4130(3) 0.4872(3)
H6_4 H 0.5348 0.4171 0.5302
H7_4 H 0.5857 0.4100 0.4816
C11_4 C 0.4778(4) 0.3491(3) 0.4601(3)
C12_4 C 0.4476(4) 0.3712(3) 0.4164(2)
C13_4 C 0.3846(5) 0.3232(3) 0.3853(3)
H8_4 H 0.3642 0.3395 0.3563
C14_4 C 0.3539(5) 0.2505(3) 0.3993(3)
H9_4 H 0.3124 0.2166 0.3787
C15_4 C 0.3838(6) 0.2274(4) 0.4432(3)
H10_4 H 0.3617 0.1781 0.4520
C16_4 C 0.4456(5) 0.2751(3) 0.4747(3)
H11_4 H 0.4653 0.2589 0.5044
Cu2_6 Cu 0.80294(5) 0.59635(4) 0.67647(3)
Cu4_6 Cu 0.86372(5) 0.73699(4) 0.65687(3)
O7_4 O 0.72730(28) 0.94466(19) 0.29154(15)
O9_6 O 0.71307(33) 0.91308(19) 0.41407(15)
O1_7 O 0.87526(19) 0.26588(19) 0.72867(15)
O2_7 O 0.7291(4) 0.2481(4) 0.6882(3)
H1_7 H 0.7471 0.3020 0.6967
H2_7 H 0.6734 0.2235 0.6871
O3_5 O 0.94466(19) 0.2174(2) 0.70846(15)
O5_7 O 0.95359(19) 0.42026(19) 0.91927(15)
C1_5 C 0.9325(2) 0.2627(2) 0.73350(19)
C4_7 C 0.9766(3) 0.3543(2) 0.8187(2)
H3_7 H 0.9291 0.3435 0.8257
C5_5 C 0.9919(3) 0.3199(3) 0.7728(2)
O7_5 O 0.72200(19) 0.1160(2) 0.62488(15)
O9_7 O 0.75359(19) 0.13333(27) 0.74740(15)
O1_8 O 0.73412(19) 0.60939(27) 0.72867(15)
O2_8 O 0.7519(4) 0.4811(6) 0.6882(3)
H1_8 H 0.6980 0.4452 0.6967
H2_8 H 0.7765 0.4500 0.6871
O3_6 O 0.7826(2) 0.72730(28) 0.70846(15)
O5_8 O 0.57974(19) 0.53334(27) 0.91927(15)
O6_5 O 0.6806(3) 0.8597(4) 0.7152(2)
N1_5 N 0.5942(2) 0.7872(3) 0.7871(2)
C1_6 C 0.7373(2) 0.6699(3) 0.73350(19)
C2_7 C 0.5595(2) 0.5777(4) 0.90744(19)
C3_7 C 0.5942(2) 0.6276(4) 0.8546(2)
C4_8 C 0.6457(2) 0.6224(4) 0.8187(2)
H3_8 H 0.6565 0.5857 0.8257
C5_6 C 0.6801(3) 0.6721(4) 0.7728(2)
C6_5 C 0.6650(3) 0.7283(4) 0.7629(2)
H4_5 H 0.6902 0.7630 0.7331
C7_5 C 0.6124(3) 0.7325(4) 0.7976(2)
C8_5 C 0.5765(3) 0.6811(4) 0.8434(2)
H5_5 H 0.5407 0.6828 0.8664
C9_5 C 0.6286(3) 0.8435(4) 0.7451(2)
C10_5 C 0.5377(3) 0.7914(4) 0.8206(3)
H6_5 H 0.5490 0.7986 0.8636
H7_5 H 0.4910 0.7477 0.8150
C11_5 C 0.5380(3) 0.8556(4) 0.7935(3)
C12_5 C 0.5903(3) 0.8858(4) 0.7498(2)
C13_5 C 0.6053(4) 0.9488(5) 0.7187(3)
H8_5 H 0.6420 0.9692 0.6897
C14_5 C 0.5633(4) 0.9795(5) 0.7327(3)
C15_5 C 0.5103(5) 0.9496(6) 0.7766(3)
H10_5 H 0.4831 0.9717 0.7854
C16_5 C 0.4962(4) 0.8878(5) 0.8081(3)
H11_5 H 0.4603 0.8681 0.8378
O7_6 O 0.8840(2) 0.60604(28) 0.62488(15)
O9_8 O 0.86667(27) 0.62026(33) 0.74740(15)
O1_9 O 0.39061(27) 0.12474(19) 0.72867(15)
O2_9 O 0.5189(6) 0.2709(4) 0.6882(3)
H1_9 H 0.5548 0.2529 0.6967
H2_9 H 0.5500 0.3266 0.6871
O3_7 O 0.27270(28) 0.05534(19) 0.70846(15)
O5_9 O 0.46666(27) 0.04641(19) 0.91927(15)
C1_7 C 0.3301(3) 0.0675(2) 0.73350(19)
C4_9 C 0.3776(4) 0.0234(3) 0.8187(2)
H3_9 H 0.4143 0.0709 0.8257
C5_7 C 0.3279(4) 0.0081(3) 0.7728(2)
O7_7 O 0.39396(28) 0.27800(19) 0.62488(15)
O9_9 O 0.37974(33) 0.24641(19) 0.74740(15)
O8_2 O 0.48756(19) 0.41492(28) 0.06305(15)
O1_10 O 0.45807(19) 0.40079(19) 0.93800(15)
O2_10 O 0.6042(4) 0.4186(4) 0.9785(3)
H1_10 H 0.5862 0.3647 0.9700
H2_10 H 0.6599 0.4432 0.9796
O4_7 O 0.2607(2) 0.17911(19) 0.72972(15)
O6_6 O 0.1543(3) 0.3473(3) 0.9515(2)
N1_6 N 0.1404(2) 0.2609(2) 0.8796(2)
C1_8 C 0.4008(2) 0.4040(2) 0.93317(19)
C2_8 C 0.3152(3) 0.2262(2) 0.75923(19)
C3_8 C 0.3000(3) 0.2609(2) 0.8121(2)
C4_10 C 0.3567(3) 0.3124(2) 0.8480(2)
H3_10 H 0.4042 0.3232 0.8410
C5_8 C 0.3414(3) 0.3468(3) 0.8939(2)
C6_6 C 0.2701(3) 0.3317(3) 0.9038(2)
H4_6 H 0.2606 0.3569 0.9336
C7_6 C 0.2133(3) 0.2791(3) 0.8691(2)
C8_6 C 0.2288(3) 0.2432(3) 0.8233(2)
H5_6 H 0.1913 0.2074 0.8003
C9_6 C 0.1185(3) 0.2953(3) 0.9216(2)
C10_6 C 0.0797(3) 0.2044(3) 0.8461(3)
H6_6 H 0.0838 0.2157 0.8031
H7_6 H 0.0767 0.1577 0.8517
C11_6 C 0.0158(3) 0.2047(3) 0.8732(3)
C12_6 C 0.0379(3) 0.2570(3) 0.9169(2)
H8_6 H 0.0062 0.3087 0.9770
O1_11 O 0.59921(19) 0.05728(27) 0.93800(15)
O2_11 O 0.5814(4) 0.1856(6) 0.9785(3)
H1_11 H 0.6353 0.2215 0.9700
H2_11 H 0.5568 0.2167 0.9796
O4_8 O 0.82089(19) 0.08159(28) 0.72972(15)
C2_9 C 0.7738(2) 0.0890(4) 0.75923(19)
C3_9 C 0.7391(2) 0.0391(4) 0.8121(2)
C4_11 C 0.6876(2) 0.0443(4) 0.8480(2)
H3_11 H 0.6768 0.0810 0.8410
O1_12 O 0.94272(27) 0.54193(19) 0.93800(15)
O2_12 O 0.8144(6) 0.3958(4) 0.9785(3)
H1_12 H 0.7785 0.4138 0.9700
H2_12 H 0.7833 0.3401 0.9796
O4_9 O 0.91841(28) 0.7393(2) 0.72972(15)
C2_10 C 0.9110(4) 0.6848(3) 0.75923(19)
C3_10 C 0.9609(4) 0.7000(3) 0.8121(2)
C4_12 C 0.9557(4) 0.6433(3) 0.8480(2)
H3_12 H 0.9190 0.5958 0.8410
O1_13 O 0.79140(19) 0.06746(19) 0.60467(15)
O2_13 O 0.9375(4) 0.0853(4) 0.6452(3)
H1_13 H 0.9195 0.0314 0.6367
H2_13 H 0.9932 0.1099 0.6463
O6_7 O 0.4876(3) 0.0140(3) 0.6182(2)
C1_9 C 0.7341(2) 0.0707(2) 0.59984(19)
C5_9 C 0.6747(3) 0.0135(3) 0.5606(2)
H4_7 H 0.5939 0.0236 0.6003
O4_10 O 0.5940(2) 0.84578(19) 0.39639(15)
N1_7 N 0.4737(2) 0.9276(2) 0.5463(2)
C2_11 C 0.6485(3) 0.8929(2) 0.42590(19)
C3_11 C 0.6333(3) 0.9276(2) 0.4788(2)
C4_13 C 0.6900(3) 0.9791(2) 0.5147(2)
H3_13 H 0.7375 0.9899 0.5077
C6_7 C 0.6034(3) 0.9984(3) 0.5705(2)
C7_7 C 0.5466(3) 0.9458(3) 0.5358(2)
C8_7 C 0.5621(3) 0.9099(3) 0.4900(2)
H5_7 H 0.5246 0.8741 0.4670
C9_7 C 0.4518(3) 0.9620(3) 0.5883(2)
C10_7 C 0.4130(3) 0.8711(3) 0.5128(3)
H6_7 H 0.4171 0.8824 0.4698
H7_7 H 0.4100 0.8244 0.5184
C11_7 C 0.3491(3) 0.8714(3) 0.5399(3)
C12_7 C 0.3712(3) 0.9237(3) 0.5836(2)
C13_6 C 0.3232(3) 0.9387(4) 0.6147(3)
H8_7 H 0.3395 0.9754 0.6437
C14_6 C 0.2505(3) 0.8967(4) 0.6007(3)
H9_5 H 0.2166 0.9043 0.6213
C15_6 C 0.2274(4) 0.8437(5) 0.5568(3)
H10_6 H 0.1781 0.8165 0.5480
C16_6 C 0.2751(3) 0.8296(4) 0.5253(3)
H11_6 H 0.2589 0.7937 0.4956
O4_11 O 0.15422(19) 0.74826(28) 0.39639(15)
N1_8 N 0.0724(2) 0.5462(3) 0.5463(2)
C2_12 C 0.1071(2) 0.7557(4) 0.42590(19)
C3_12 C 0.0724(2) 0.7058(4) 0.4788(2)
C4_14 C 0.0209(2) 0.7110(4) 0.5147(2)
H3_14 H 0.0101 0.7477 0.5077
C6_8 C 0.0016(3) 0.6051(4) 0.5705(2)
C7_8 C 0.0542(3) 0.6009(4) 0.5358(2)
C8_8 C 0.0901(3) 0.6523(4) 0.4900(2)
H5_8 H 0.1259 0.6506 0.4670
C9_8 C 0.0380(3) 0.4899(4) 0.5883(2)
C10_8 C 0.1289(3) 0.5420(4) 0.5128(3)
H6_8 H 0.1176 0.5348 0.4698
H7_8 H 0.1756 0.5857 0.5184
C11_8 C 0.1286(3) 0.4778(4) 0.5399(3)
C12_8 C 0.0763(3) 0.4476(4) 0.5836(2)
C13_7 C 0.0613(4) 0.3846(5) 0.6147(3)
H8_8 H 0.0246 0.3642 0.6437
C14_7 C 0.1033(4) 0.3539(5) 0.6007(3)
H9_6 H 0.0957 0.3124 0.6213
C15_7 C 0.1563(5) 0.3838(6) 0.5568(3)
H10_7 H 0.1835 0.3617 0.5480
C16_7 C 0.1704(4) 0.4456(5) 0.5253(3)
H11_7 H 0.2063 0.4653 0.4956
O1_14 O 0.93254(19) 0.72395(27) 0.60467(15)
O2_14 O 0.9147(4) 0.8523(6) 0.6452(3)
H1_14 H 0.9686 0.8882 0.6367
H2_14 H 0.8901 0.8834 0.6463
O6_8 O 0.9860(3) 0.4737(4) 0.6182(2)
C1_10 C 0.9293(2) 0.6635(3) 0.59984(19)
C5_10 C 0.9865(3) 0.6613(4) 0.5606(2)
H4_8 H 0.9764 0.5704 0.6003
O1_15 O 0.27605(27) 0.20860(19) 0.60467(15)
O2_15 O 0.1477(6) 0.0625(4) 0.6452(3)
H1_15 H 0.1118 0.0805 0.6367
H2_15 H 0.1166 0.0068 0.6463
O4_12 O 0.25174(28) 0.4060(2) 0.39639(15)
O6_9 O 0.5263(4) 0.5124(3) 0.6182(2)
N1_9 N 0.4538(3) 0.5263(2) 0.5463(2)
C1_11 C 0.3365(3) 0.2659(2) 0.59984(19)
C2_13 C 0.2443(4) 0.3515(3) 0.42590(19)
C3_13 C 0.2942(4) 0.3667(3) 0.4788(2)
C4_15 C 0.2890(4) 0.3100(3) 0.5147(2)
H3_15 H 0.2523 0.2625 0.5077
C5_11 C 0.3387(4) 0.3253(3) 0.5606(2)
C6_9 C 0.3949(4) 0.3966(3) 0.5705(2)
H4_9 H 0.4296 0.4061 0.6003
C7_9 C 0.3991(4) 0.4534(3) 0.5358(2)
C8_9 C 0.3477(4) 0.4379(3) 0.4900(2)
H5_9 H 0.3494 0.4754 0.4670
C9_9 C 0.5101(4) 0.5482(3) 0.5883(2)
C10_9 C 0.4580(4) 0.5870(3) 0.5128(3)
H6_9 H 0.4652 0.5829 0.4698
H7_9 H 0.4143 0.5900 0.5184
C11_9 C 0.5222(4) 0.6509(3) 0.5399(3)
C12_9 C 0.5524(4) 0.6288(3) 0.5836(2)
C13_8 C 0.6154(5) 0.6768(3) 0.6147(3)
H8_9 H 0.6358 0.6605 0.6437
C14_8 C 0.6461(5) 0.7495(3) 0.6007(3)
H9_7 H 0.6876 0.7834 0.6213
C15_8 C 0.6162(6) 0.7726(4) 0.5568(3)
H10_8 H 0.6383 0.8219 0.5480
C16_8 C 0.5544(5) 0.7249(3) 0.5253(3)
H11_8 H 0.5347 0.7411 0.4956
O1_16 O 0.12474(19) 0.73412(19) 0.27133(15)
O2_16 O 0.2709(4) 0.7519(4) 0.3118(3)
H1_16 H 0.2529 0.6980 0.3033
H2_16 H 0.3266 0.7765 0.3129
C1_12 C 0.0675(2) 0.7373(2) 0.26650(19)
C4_16 C 0.0234(3) 0.6457(2) 0.1813(2)
H3_16 H 0.0709 0.6565 0.1743
C5_12 C 0.0081(3) 0.6801(3) 0.2272(2)
O1_17 O 0.26588(19) 0.39061(27) 0.27133(15)
O2_17 O 0.2481(4) 0.5189(6) 0.3118(3)
H1_17 H 0.3020 0.5548 0.3033
H2_17 H 0.2235 0.5500 0.3129
O6_10 O 0.3194(3) 0.1403(4) 0.2848(2)
N1_10 N 0.4058(2) 0.2128(3) 0.2129(2)
C1_13 C 0.2627(2) 0.3301(3) 0.26650(19)
C2_14 C 0.4405(2) 0.4223(4) 0.09256(19)
C3_14 C 0.4058(2) 0.3724(4) 0.1454(2)
C4_17 C 0.3543(2) 0.3776(4) 0.1813(2)
H3_17 H 0.3435 0.4143 0.1743
C5_13 C 0.3199(3) 0.3279(4) 0.2272(2)
C6_10 C 0.3350(3) 0.2717(4) 0.2371(2)
H4_10 H 0.3098 0.2370 0.2669
C7_10 C 0.3876(3) 0.2675(4) 0.2024(2)
C8_10 C 0.4235(3) 0.3189(4) 0.1566(2)
H5_10 H 0.4593 0.3172 0.1336
C9_10 C 0.3714(3) 0.1565(4) 0.2549(2)
C10_10 C 0.4623(3) 0.2086(4) 0.1794(3)
H6_10 H 0.4510 0.2014 0.1364
H7_10 H 0.5090 0.2523 0.1850
C11_10 C 0.4620(3) 0.1444(4) 0.2065(3)
C12_10 C 0.4097(3) 0.1142(4) 0.2502(2)
C13_9 C 0.3947(4) 0.0512(5) 0.2813(3)
H8_10 H 0.3580 0.0308 0.3103
C14_9 C 0.4367(4) 0.0205(5) 0.2673(3)
C15_9 C 0.4897(5) 0.0504(6) 0.2234(3)
H10_9 H 0.5169 0.0283 0.2146
C16_9 C 0.5038(4) 0.1122(5) 0.1919(3)
H11_9 H 0.5397 0.1319 0.1622
O1_18 O 0.60939(27) 0.87526(19) 0.27133(15)
O2_18 O 0.4811(6) 0.7291(4) 0.3118(3)
H1_18 H 0.4452 0.7471 0.3033
H2_18 H 0.4500 0.6734 0.3129
C1_14 C 0.6699(3) 0.9325(2) 0.26650(19)
C4_18 C 0.6224(4) 0.9766(3) 0.1813(2)
H3_18 H 0.5857 0.9291 0.1743
C5_14 C 0.6721(4) 0.9919(3) 0.2272(2)
O3_8 O 0.4493(2) 0.06063(28) 0.04179(15)
O6_11 O 0.3473(3) 0.1930(4) 0.0485(2)
N1_11 N 0.2609(2) 0.1205(3) 0.1204(2)
C1_15 C 0.4040(2) 0.0032(3) 0.06683(19)
C5_15 C 0.3468(3) 0.0054(4) 0.1061(2)
C6_11 C 0.3317(3) 0.0616(4) 0.0962(2)
H4_11 H 0.3569 0.0963 0.0664
C7_11 C 0.2791(3) 0.0658(4) 0.1309(2)
C8_11 C 0.2432(3) 0.0144(4) 0.1767(2)
H5_11 H 0.2074 0.0161 0.1997
C9_11 C 0.2953(3) 0.1768(4) 0.0784(2)
C10_11 C 0.2044(3) 0.1247(4) 0.1539(3)
H6_11 H 0.2157 0.1319 0.1969
H7_11 H 0.1577 0.0810 0.1483
C11_11 C 0.2047(3) 0.1889(4) 0.1268(3)
C12_11 C 0.2570(3) 0.2191(4) 0.0831(2)
C13_10 C 0.2720(4) 0.2821(5) 0.0520(3)
H8_11 H 0.3087 0.3025 0.0230
C14_10 C 0.2300(4) 0.3128(5) 0.0660(3)
H9_8 H 0.2376 0.3543 0.0454
C15_10 C 0.1770(5) 0.2829(6) 0.1099(3)
H10_10 H 0.1498 0.3050 0.1187
C16_10 C 0.1629(4) 0.2211(5) 0.1414(3)
H11_10 H 0.1270 0.2014 0.1711
O8_3 O 0.58508(28) 0.07263(34) 0.06305(15)
O6_12 O 0.8597(4) 0.1790(3) 0.2848(2)
N1_12 N 0.7872(3) 0.1929(2) 0.2129(2)
C2_15 C 0.5777(4) 0.0181(3) 0.09256(19)
C3_15 C 0.6276(4) 0.0333(3) 0.1454(2)
C6_12 C 0.7283(4) 0.0632(3) 0.2371(2)
H4_12 H 0.7630 0.0727 0.2669
C7_12 C 0.7325(4) 0.1200(3) 0.2024(2)
C8_12 C 0.6811(4) 0.1045(3) 0.1566(2)
H5_12 H 0.6828 0.1420 0.1336
C9_12 C 0.8435(4) 0.2148(3) 0.2549(2)
C10_12 C 0.7914(4) 0.2536(3) 0.1794(3)
H6_12 H 0.7986 0.2495 0.1364
H7_12 H 0.7477 0.2566 0.1850
C11_12 C 0.8556(4) 0.3175(3) 0.2065(3)
C12_12 C 0.8858(4) 0.2954(3) 0.2502(2)
C13_11 C 0.9488(5) 0.3434(3) 0.2813(3)
H8_12 H 0.9692 0.3271 0.3103
C14_11 C 0.9795(5) 0.4161(3) 0.2673(3)
C15_11 C 0.9496(6) 0.4392(4) 0.2234(3)
H10_11 H 0.9717 0.4885 0.2146
C16_11 C 0.8878(5) 0.3915(3) 0.1919(3)
H11_11 H 0.8681 0.4077 0.1622
O7_8 O 0.5507(2) 0.93937(28) 0.95821(15)
O8_4 O 0.41492(28) 0.92737(34) 0.93695(15)
O6_13 O 0.1403(4) 0.8210(3) 0.7152(2)
N1_13 N 0.2128(3) 0.8071(2) 0.7871(2)
C2_16 C 0.4223(4) 0.9819(3) 0.90744(19)
C3_16 C 0.3724(4) 0.9667(3) 0.8546(2)
C6_13 C 0.2717(4) 0.9368(3) 0.7629(2)
H4_13 H 0.2370 0.9273 0.7331
C7_13 C 0.2675(4) 0.8800(3) 0.7976(2)
C8_13 C 0.3189(4) 0.8955(3) 0.8434(2)
H5_13 H 0.3172 0.8580 0.8664
C9_13 C 0.1565(4) 0.7852(3) 0.7451(2)
C10_13 C 0.2086(4) 0.7464(3) 0.8206(3)
H6_13 H 0.2014 0.7505 0.8636
H7_13 H 0.2523 0.7434 0.8150
C11_13 C 0.1444(4) 0.6825(3) 0.7935(3)
C12_13 C 0.1142(4) 0.7046(3) 0.7498(2)
C13_12 C 0.0512(5) 0.6566(3) 0.7187(3)
H8_13 H 0.0308 0.6729 0.6897
C14_12 C 0.0205(5) 0.5839(3) 0.7327(3)
C15_12 C 0.0504(6) 0.5608(4) 0.7766(3)
H10_12 H 0.0283 0.5115 0.7854
C16_12 C 0.1122(5) 0.6085(3) 0.8081(3)
H11_12 H 0.1319 0.5923 0.8378
O6_14 O 0.6527(3) 0.8070(4) 0.9515(2)
N1_14 N 0.7391(2) 0.8795(3) 0.8796(2)
C1_16 C 0.5960(2) 0.9968(3) 0.93317(19)
C5_16 C 0.6532(3) 0.9946(4) 0.8939(2)
C6_14 C 0.6683(3) 0.9384(4) 0.9038(2)
H4_14 H 0.6431 0.9037 0.9336
C7_14 C 0.7209(3) 0.9342(4) 0.8691(2)
C8_14 C 0.7568(3) 0.9856(4) 0.8233(2)
H5_14 H 0.7926 0.9839 0.8003
C9_14 C 0.7047(3) 0.8232(4) 0.9216(2)
C10_14 C 0.7956(3) 0.8753(4) 0.8461(3)
H6_14 H 0.7843 0.8681 0.8031
H7_14 H 0.8423 0.9190 0.8517
C11_14 C 0.7953(3) 0.8111(4) 0.8732(3)
C12_14 C 0.7430(3) 0.7809(4) 0.9169(2)
C13_13 C 0.7280(4) 0.7179(5) 0.9480(3)
H8_14 H 0.6913 0.6975 0.9770
C14_13 C 0.7700(4) 0.6872(5) 0.9340(3)
H9_9 H 0.7624 0.6457 0.9546
C15_13 C 0.8230(5) 0.7171(6) 0.8901(3)
H10_13 H 0.8502 0.6950 0.8813
C16_13 C 0.8371(4) 0.7789(5) 0.8586(3)
H11_13 H 0.8730 0.7986 0.8289
O7_9 O 0.06063(28) 0.61133(19) 0.95821(15)
O8_5 O 0.07263(34) 0.48756(19) 0.93695(15)
O6_15 O 0.1790(3) 0.3194(3) 0.7152(2)
N1_15 N 0.1929(2) 0.4058(2) 0.7871(2)
C2_17 C 0.0181(3) 0.4405(2) 0.90744(19)
C3_17 C 0.0333(3) 0.4058(2) 0.8546(2)
C6_15 C 0.0632(3) 0.3350(3) 0.7629(2)
H4_15 H 0.0727 0.3098 0.7331
C7_15 C 0.1200(3) 0.3876(3) 0.7976(2)
C8_15 C 0.1045(3) 0.4235(3) 0.8434(2)
H5_15 H 0.1420 0.4593 0.8664
C9_15 C 0.2148(3) 0.3714(3) 0.7451(2)
C10_15 C 0.2536(3) 0.4623(3) 0.8206(3)
H6_15 H 0.2495 0.4510 0.8636
H7_15 H 0.2566 0.5090 0.8150
C11_15 C 0.3175(3) 0.4620(3) 0.7935(3)
C12_15 C 0.2954(3) 0.4097(3) 0.7498(2)
C13_14 C 0.3434(3) 0.3947(4) 0.7187(3)
H8_15 H 0.3271 0.3580 0.6897
C14_14 C 0.4161(3) 0.4367(4) 0.7327(3)
H9_10 H 0.4500 0.4291 0.7121
C15_14 C 0.4392(4) 0.4897(5) 0.7766(3)
H10_14 H 0.4885 0.5169 0.7854
C16_14 C 0.3915(3) 0.5038(4) 0.8081(3)
H11_14 H 0.4077 0.5397 0.8378
O6_16 O 0.1930(4) 0.8457(3) 0.9515(2)
N1_16 N 0.1205(3) 0.8596(2) 0.8796(2)
C1_17 C 0.0032(3) 0.5992(2) 0.93317(19)
C5_17 C 0.0054(4) 0.6586(3) 0.8939(2)
C6_16 C 0.0616(4) 0.7299(3) 0.9038(2)
H4_16 H 0.0963 0.7394 0.9336
C7_16 C 0.0658(4) 0.7867(3) 0.8691(2)
C8_16 C 0.0144(4) 0.7712(3) 0.8233(2)
H5_16 H 0.0161 0.8087 0.8003
C9_16 C 0.1768(4) 0.8815(3) 0.9216(2)
C10_16 C 0.1247(4) 0.9203(3) 0.8461(3)
H6_16 H 0.1319 0.9162 0.8031
H7_16 H 0.0810 0.9233 0.8517
C11_16 C 0.1889(4) 0.9842(3) 0.8732(3)
C12_16 C 0.2191(4) 0.9621(3) 0.9169(2)
H8_16 H 0.3025 0.9938 0.9770
O3_9 O 0.93937(28) 0.38867(19) 0.04179(15)
O6_17 O 0.8070(4) 0.1543(3) 0.0485(2)
N1_17 N 0.8795(3) 0.1404(2) 0.1204(2)
C1_18 C 0.9968(3) 0.4008(2) 0.06683(19)
C5_18 C 0.9946(4) 0.3414(3) 0.1061(2)
C6_17 C 0.9384(4) 0.2701(3) 0.0962(2)
H4_17 H 0.9037 0.2606 0.0664
C7_17 C 0.9342(4) 0.2133(3) 0.1309(2)
C8_17 C 0.9856(4) 0.2288(3) 0.1767(2)
H5_17 H 0.9839 0.1913 0.1997
C9_17 C 0.8232(4) 0.1185(3) 0.0784(2)
C10_17 C 0.8753(4) 0.0797(3) 0.1539(3)
H6_17 H 0.8681 0.0838 0.1969
H7_17 H 0.9190 0.0767 0.1483
C11_17 C 0.8111(4) 0.0158(3) 0.1268(3)
C12_17 C 0.7809(4) 0.0379(3) 0.0831(2)
H8_17 H 0.6975 0.0062 0.0230
O8_6 O 0.92737(34) 0.51244(19) 0.06305(15)
O6_18 O 0.8210(3) 0.6806(3) 0.2848(2)
N1_18 N 0.8071(2) 0.5942(2) 0.2129(2)
C2_18 C 0.9819(3) 0.5595(2) 0.09256(19)
C3_18 C 0.9667(3) 0.5942(2) 0.1454(2)
C6_18 C 0.9368(3) 0.6650(3) 0.2371(2)
H4_18 H 0.9273 0.6902 0.2669
C7_18 C 0.8800(3) 0.6124(3) 0.2024(2)
C8_18 C 0.8955(3) 0.5765(3) 0.1566(2)
H5_18 H 0.8580 0.5407 0.1336
C9_18 C 0.7852(3) 0.6286(3) 0.2549(2)
C10_18 C 0.7464(3) 0.5377(3) 0.1794(3)
H6_18 H 0.7505 0.5490 0.1364
H7_18 H 0.7434 0.4910 0.1850
C11_18 C 0.6825(3) 0.5380(3) 0.2065(3)
C12_18 C 0.7046(3) 0.5903(3) 0.2502(2)
C13_15 C 0.6566(3) 0.6053(4) 0.2813(3)
H8_18 H 0.6729 0.6420 0.3103
C14_15 C 0.5839(3) 0.5633(4) 0.2673(3)
H9_11 H 0.5500 0.5709 0.2879
C15_15 C 0.5608(4) 0.5103(5) 0.2234(3)
H10_15 H 0.5115 0.4831 0.2146
C16_15 C 0.6085(3) 0.4962(4) 0.1919(3)
H11_15 H 0.5923 0.4603 0.1622
C13_16 C 0.7179(5) 0.9899(3) 0.0520(3)
C14_16 C 0.6872(5) 0.9172(3) 0.0660(3)
H9_12 H 0.6457 0.8833 0.0454
C15_16 C 0.7171(6) 0.8941(4) 0.1099(3)
H10_16 H 0.6950 0.8448 0.1187
C16_16 C 0.7789(5) 0.9418(3) 0.1414(3)
H11_16 H 0.7986 0.9256 0.1711
H9_13 H 0.5709 0.0210 0.7121
H9_14 H 0.9790 0.5500 0.7121
C13_17 C 0.9899(3) 0.2720(4) 0.9480(3)
C14_17 C 0.9172(3) 0.2300(4) 0.9340(3)
H9_15 H 0.8833 0.2376 0.9546
C15_17 C 0.8941(4) 0.1770(5) 0.8901(3)
H10_17 H 0.8448 0.1498 0.8813
C16_17 C 0.9418(3) 0.1629(4) 0.8586(3)
H11_17 H 0.9256 0.1270 0.8289
C13_18 C 0.2821(5) 0.0101(3) 0.9480(3)
C14_18 C 0.3128(5) 0.0828(3) 0.9340(3)
H9_16 H 0.3543 0.1167 0.9546
C15_18 C 0.2829(6) 0.1059(4) 0.8901(3)
H10_18 H 0.3050 0.1552 0.8813
C16_18 C 0.2211(5) 0.0582(3) 0.8586(3)
H11_18 H 0.2014 0.0744 0.8289
H9_17 H 0.4291 0.9790 0.2879
H9_18 H 0.0210 0.4500 0.2879
loop_
_geom_bond_atom_site_label_1
_geom_bond_atom_site_label_2
_geom_bond_site_symmetry_1
_geom_bond_site_symmetry_2
C14 C13 1_555 1_555
H9 C14 1_555 1_555
C15 C14 1_555 1_555
H10 C15 1_555 1_555
H11 C16 1_555 1_555
C15 C16 1_555 1_555
Cu1 O1 1_555 1_555
O1 C1 1_555 1_555
O2 Cu1 1_555 1_555
H1 O2 1_555 1_555
H2 O2 1_555 1_555
O3 C1 1_555 1_555
O4 C2 1_555 1_555
O5 C2 1_555 1_555
O6 C9 1_555 1_555
N1 C7 1_555 1_555
C1 C5 1_555 1_555
C2 C3 1_555 1_555
C3 C4 1_555 1_555
C4 H3 1_555 1_555
C5 C4 1_555 1_555
C6 C5 1_555 1_555
H4 C6 1_555 1_555
C7 C6 1_555 1_555
C8 C3 1_555 1_555
H5 C8 1_555 1_555
C9 N1 1_555 1_555
C10 N1 1_555 1_555
H6 C10 1_555 1_555
H7 C10 1_555 1_555
C11 C10 1_555 1_555
C12 C9 1_555 1_555
Cu2 O4 1_555 1_555
Cu4 O5 1_555 1_555
O9 Cu1 1_555 1_555
C7 C8 1_555 1_555
C11 C12 1_555 1_555
Cu2 Cu4 1_555 1_555
Cu1_2 O1_2 1_555 1_555
O2_2 Cu1_2 1_555 1_555
H1_2 O2_2 1_555 1_555
H2_2 O2_2 1_555 1_555
O4_2 C2_2 1_555 1_555
O5_2 C2_2 1_555 1_555
C2_2 C3_2 1_555 1_555
C3_2 C4_2 1_555 1_555
C4_2 H3_2 1_555 1_555
Cu2_2 O4_2 1_555 1_555
Cu4_2 O5_2 1_555 1_555
O9_2 Cu1_2 1_555 1_555
Cu2_2 Cu4_2 1_555 1_555
Cu1_3 O1_3 1_555 1_555
O2_3 Cu1_3 1_555 1_555
H1_3 O2_3 1_555 1_555
H2_3 O2_3 1_555 1_555
O4_3 C2_3 1_555 1_555
O5_3 C2_3 1_555 1_555
C2_3 C3_3 1_555 1_555
C3_3 C4_3 1_555 1_555
C4_3 H3_3 1_555 1_555
Cu2_3 O4_3 1_555 1_555
Cu4_3 O5_3 1_555 1_555
O9_3 Cu1_3 1_555 1_555
Cu2_3 Cu4_3 1_555 1_555
O4_4 C2_4 1_555 1_555
O5_4 C2_4 1_555 1_555
N1_2 C7_2 1_555 1_555
C2_4 C3_4 1_555 1_555
C3_4 C4_4 1_555 1_555
C4_4 H3_4 1_555 1_555
C7_2 C6_2 1_555 1_555
C8_2 C3_4 1_555 1_555
H5_2 C8_2 1_555 1_555
C9_2 N1_2 1_555 1_555
C10_2 N1_2 1_555 1_555
H6_2 C10_2 1_555 1_555
H7_2 C10_2 1_555 1_555
C11_2 C10_2 1_555 1_555
C12_2 C9_2 1_555 1_555
C13_2 C12_2 1_555 1_555
H8_2 C13_2 1_555 1_555
C14_2 C13_2 1_555 1_555
H9_2 C14_2 1_555 1_555
C15_2 C14_2 1_555 1_555
H10_2 C15_2 1_555 1_555
C16_2 C11_2 1_555 1_555
H11_2 C16_2 1_555 1_555
Cu2_4 O4_4 1_555 1_555
Cu4_4 O5_4 1_555 1_555
C7_2 C8_2 1_555 1_555
C11_2 C12_2 1_555 1_555
C15_2 C16_2 1_555 1_555
Cu2_4 Cu4_4 1_555 1_555
Cu2_2 O1_4 1_555 1_555
O1_4 C1_2 1_555 1_555
O2_4 Cu2_2 1_555 1_555
H1_4 O2_4 1_555 1_555
H2_4 O2_4 1_555 1_555
O3_2 C1_2 1_555 1_555
C1_2 C5_2 1_555 1_555
O7_2 Cu2_2 1_555 1_555
O9_4 Cu2_2 1_555 1_555
O3_2 Cu4_2 1_555 1_555
Cu2_3 O1_5 1_555 1_555
O1_5 C1_3 1_555 1_555
O2_5 Cu2_3 1_555 1_555
H1_5 O2_5 1_555 1_555
H2_5 O2_5 1_555 1_555
O3_3 C1_3 1_555 1_555
C1_3 C5_3 1_555 1_555
O7_3 Cu2_3 1_555 1_555
O9_5 Cu2_3 1_555 1_555
O3_3 Cu4_3 1_555 1_555
O4_5 C2_5 1_555 1_555
O5_5 C2_5 1_555 1_555
N1_3 C7_3 1_555 1_555
C2_5 C3_5 1_555 1_555
C3_5 C4_5 1_555 1_555
C4_5 H3_5 1_555 1_555
C7_3 C6_3 1_555 1_555
C8_3 C3_5 1_555 1_555
H5_3 C8_3 1_555 1_555
C9_3 N1_3 1_555 1_555
C10_3 N1_3 1_555 1_555
H6_3 C10_3 1_555 1_555
H7_3 C10_3 1_555 1_555
C11_3 C10_3 1_555 1_555
C12_3 C9_3 1_555 1_555
C13_3 C12_3 1_555 1_555
H8_3 C13_3 1_555 1_555
C14_3 C13_3 1_555 1_555
H9_3 C14_3 1_555 1_555
C15_3 C14_3 1_555 1_555
H10_3 C15_3 1_555 1_555
C16_3 C11_3 1_555 1_555
H11_3 C16_3 1_555 1_555
Cu2_5 O4_5 1_555 1_555
Cu4_5 O5_5 1_555 1_555
C7_3 C8_3 1_555 1_555
C11_3 C12_3 1_555 1_555
C15_3 C16_3 1_555 1_555
Cu2_5 Cu4_5 1_555 1_555
Cu2 O1_6 1_555 1_555
O1_6 C1_4 1_555 1_555
O2_6 Cu2 1_555 1_555
H1_6 O2_6 1_555 1_555
H2_6 O2_6 1_555 1_555
O3_4 C1_4 1_555 1_555
O4_6 C2_6 1_555 1_555
O5_6 C2_6 1_555 1_555
O6_4 C9_4 1_555 1_555
N1_4 C7_4 1_555 1_555
C1_4 C5_4 1_555 1_555
C2_6 C3_6 1_555 1_555
C3_6 C4_6 1_555 1_555
C4_6 H3_6 1_555 1_555
C5_4 C4_6 1_555 1_555
C6_4 C5_4 1_555 1_555
H4_4 C6_4 1_555 1_555
C7_4 C6_4 1_555 1_555
C8_4 C3_6 1_555 1_555
H5_4 C8_4 1_555 1_555
C9_4 N1_4 1_555 1_555
C10_4 N1_4 1_555 1_555
H6_4 C10_4 1_555 1_555
H7_4 C10_4 1_555 1_555
C11_4 C10_4 1_555 1_555
C12_4 C9_4 1_555 1_555
C13_4 C12_4 1_555 1_555
H8_4 C13_4 1_555 1_555
C14_4 C13_4 1_555 1_555
H9_4 C14_4 1_555 1_555
C15_4 C14_4 1_555 1_555
H10_4 C15_4 1_555 1_555
C16_4 C11_4 1_555 1_555
H11_4 C16_4 1_555 1_555
Cu2_6 O4_6 1_555 1_555
Cu4_6 O5_6 1_555 1_555
O7_4 Cu2 1_555 1_555
O9_6 Cu2 1_555 1_555
O3_4 Cu4 1_555 1_555
C7_4 C8_4 1_555 1_555
C11_4 C12_4 1_555 1_555
C15_4 C16_4 1_555 1_555
Cu2_6 Cu4_6 1_555 1_555
Cu2_5 O1_7 1_555 1_555
O1_7 C1_5 1_555 1_555
O2_7 Cu2_5 1_555 1_555
H1_7 O2_7 1_555 1_555
H2_7 O2_7 1_555 1_555
O3_5 C1_5 1_555 1_555
C1_5 C5_5 1_555 1_555
C4_7 H3_7 1_555 1_555
C5_5 C4_7 1_555 1_555
Cu3_3 O5_7 1_555 1_555
O7_5 Cu2_5 1_555 1_555
O9_7 Cu2_5 1_555 1_555
O3_5 Cu4_5 1_555 1_555
Cu2_6 O1_8 1_555 1_555
O1_8 C1_6 1_555 1_555
O2_8 Cu2_6 1_555 1_555
H1_8 O2_8 1_555 1_555
H2_8 O2_8 1_555 1_555
O3_6 C1_6 1_555 1_555
O8 C2_7 1_555 1_555
O5_8 C2_7 1_555 1_555
O6_5 C9_5 1_555 1_555
N1_5 C7_5 1_555 1_555
C1_6 C5_6 1_555 1_555
C2_7 C3_7 1_555 1_555
C3_7 C4_8 1_555 1_555
C4_8 H3_8 1_555 1_555
C5_6 C4_8 1_555 1_555
C6_5 C5_6 1_555 1_555
H4_5 C6_5 1_555 1_555
C7_5 C6_5 1_555 1_555
C8_5 C3_7 1_555 1_555
H5_5 C8_5 1_555 1_555
C9_5 N1_5 1_555 1_555
C10_5 N1_5 1_555 1_555
H6_5 C10_5 1_555 1_555
H7_5 C10_5 1_555 1_555
C11_5 C10_5 1_555 1_555
C12_5 C9_5 1_555 1_555
C13_5 C12_5 1_555 1_555
H8_5 C13_5 1_555 1_555
C14_5 C13_5 1_555 1_555
C15_5 C14_5 1_555 1_555
H10_5 C15_5 1_555 1_555
C16_5 C11_5 1_555 1_555
H11_5 C16_5 1_555 1_555
Cu3 O5_8 1_555 1_555
O7_6 Cu2_6 1_555 1_555
O9_8 Cu2_6 1_555 1_555
O3_6 Cu4_6 1_555 1_555
C7_5 C8_5 1_555 1_555
C11_5 C12_5 1_555 1_555
C15_5 C16_5 1_555 1_555
Cu2_4 O1_9 1_555 1_555
O1_9 C1_7 1_555 1_555
O2_9 Cu2_4 1_555 1_555
H1_9 O2_9 1_555 1_555
H2_9 O2_9 1_555 1_555
O3_7 C1_7 1_555 1_555
C1_7 C5_7 1_555 1_555
C4_9 H3_9 1_555 1_555
C5_7 C4_9 1_555 1_555
Cu3_2 O5_9 1_555 1_555
O7_7 Cu2_4 1_555 1_555
O9_9 Cu2_4 1_555 1_555
O3_7 Cu4_4 1_555 1_555
Cu3 O1_10 1_555 1_555
O1_10 C1_8 1_555 1_555
O2_10 Cu3 1_555 1_555
H1_10 O2_10 1_555 1_555
H2_10 O2_10 1_555 1_555
O7 C1_8 1_555 1_555
O4_7 C2_8 1_555 1_555
O9_9 C2_8 1_555 1_555
O6_6 C9_6 1_555 1_555
N1_6 C7_6 1_555 1_555
C1_8 C5_8 1_555 1_555
C2_8 C3_8 1_555 1_555
C3_8 C4_10 1_555 1_555
C4_10 H3_10 1_555 1_555
C5_8 C4_10 1_555 1_555
C6_6 C5_8 1_555 1_555
H4_6 C6_6 1_555 1_555
C7_6 C6_6 1_555 1_555
C8_6 C3_8 1_555 1_555
H5_6 C8_6 1_555 1_555
C9_6 N1_6 1_555 1_555
C10_6 N1_6 1_555 1_555
H6_6 C10_6 1_555 1_555
H7_6 C10_6 1_555 1_555
C11_6 C10_6 1_555 1_555
C12_6 C9_6 1_555 1_555
Cu4_4 O4_7 1_555 1_555
C7_6 C8_6 1_555 1_555
C11_6 C12_6 1_555 1_555
Cu3_2 O1_11 1_555 1_555
O2_11 Cu3_2 1_555 1_555
H1_11 O2_11 1_555 1_555
H2_11 O2_11 1_555 1_555
O4_8 C2_9 1_555 1_555
O9_7 C2_9 1_555 1_555
C2_9 C3_9 1_555 1_555
C3_9 C4_11 1_555 1_555
C4_11 H3_11 1_555 1_555
Cu4_5 O4_8 1_555 1_555
Cu3_3 O1_12 1_555 1_555
O2_12 Cu3_3 1_555 1_555
H1_12 O2_12 1_555 1_555
H2_12 O2_12 1_555 1_555
O4_9 C2_10 1_555 1_555
O9_8 C2_10 1_555 1_555
C2_10 C3_10 1_555 1_555
C3_10 C4_12 1_555 1_555
C4_12 H3_12 1_555 1_555
Cu4_6 O4_9 1_555 1_555
Cu4_5 O1_13 1_555 1_555
O1_13 C1_9 1_555 1_555
O2_13 Cu4_5 1_555 1_555
H1_13 O2_13 1_555 1_555
H2_13 O2_13 1_555 1_555
O7_5 C1_9 1_555 1_555
C1_9 C5_9 1_555 1_555
O4_10 C2_11 1_555 1_555
O9_6 C2_11 1_555 1_555
N1_7 C7_7 1_555 1_555
C2_11 C3_11 1_555 1_555
C3_11 C4_13 1_555 1_555
C4_13 H3_13 1_555 1_555
C7_7 C6_7 1_555 1_555
C8_7 C3_11 1_555 1_555
H5_7 C8_7 1_555 1_555
C9_7 N1_7 1_555 1_555
C10_7 N1_7 1_555 1_555
H6_7 C10_7 1_555 1_555
H7_7 C10_7 1_555 1_555
C11_7 C10_7 1_555 1_555
C12_7 C9_7 1_555 1_555
C13_6 C12_7 1_555 1_555
H8_7 C13_6 1_555 1_555
C14_6 C13_6 1_555 1_555
H9_5 C14_6 1_555 1_555
C15_6 C14_6 1_555 1_555
H10_6 C15_6 1_555 1_555
C16_6 C11_7 1_555 1_555
H11_6 C16_6 1_555 1_555
Cu4 O4_10 1_555 1_555
C7_7 C8_7 1_555 1_555
C11_7 C12_7 1_555 1_555
C15_6 C16_6 1_555 1_555
O4_11 C2_12 1_555 1_555
O9_4 C2_12 1_555 1_555
N1_8 C7_8 1_555 1_555
C2_12 C3_12 1_555 1_555
C3_12 C4_14 1_555 1_555
C4_14 H3_14 1_555 1_555
C7_8 C6_8 1_555 1_555
C8_8 C3_12 1_555 1_555
H5_8 C8_8 1_555 1_555
C9_8 N1_8 1_555 1_555
C10_8 N1_8 1_555 1_555
H6_8 C10_8 1_555 1_555
H7_8 C10_8 1_555 1_555
C11_8 C10_8 1_555 1_555
C12_8 C9_8 1_555 1_555
C13_7 C12_8 1_555 1_555
H8_8 C13_7 1_555 1_555
C14_7 C13_7 1_555 1_555
H9_6 C14_7 1_555 1_555
C15_7 C14_7 1_555 1_555
H10_7 C15_7 1_555 1_555
C16_7 C11_8 1_555 1_555
H11_7 C16_7 1_555 1_555
Cu4_2 O4_11 1_555 1_555
C7_8 C8_8 1_555 1_555
C11_8 C12_8 1_555 1_555
C15_7 C16_7 1_555 1_555
Cu4_6 O1_14 1_555 1_555
O1_14 C1_10 1_555 1_555
O2_14 Cu4_6 1_555 1_555
H1_14 O2_14 1_555 1_555
H2_14 O2_14 1_555 1_555
O7_6 C1_10 1_555 1_555
C1_10 C5_10 1_555 1_555
Cu4_4 O1_15 1_555 1_555
O1_15 C1_11 1_555 1_555
O2_15 Cu4_4 1_555 1_555
H1_15 O2_15 1_555 1_555
H2_15 O2_15 1_555 1_555
O7_7 C1_11 1_555 1_555
O4_12 C2_13 1_555 1_555
O9_5 C2_13 1_555 1_555
O6_9 C9_9 1_555 1_555
N1_9 C7_9 1_555 1_555
C1_11 C5_11 1_555 1_555
C2_13 C3_13 1_555 1_555
C3_13 C4_15 1_555 1_555
C4_15 H3_15 1_555 1_555
C5_11 C4_15 1_555 1_555
C6_9 C5_11 1_555 1_555
H4_9 C6_9 1_555 1_555
C7_9 C6_9 1_555 1_555
C8_9 C3_13 1_555 1_555
H5_9 C8_9 1_555 1_555
C9_9 N1_9 1_555 1_555
C10_9 N1_9 1_555 1_555
H6_9 C10_9 1_555 1_555
H7_9 C10_9 1_555 1_555
C11_9 C10_9 1_555 1_555
C12_9 C9_9 1_555 1_555
C13_8 C12_9 1_555 1_555
H8_9 C13_8 1_555 1_555
C14_8 C13_8 1_555 1_555
H9_7 C14_8 1_555 1_555
C15_8 C14_8 1_555 1_555
H10_8 C15_8 1_555 1_555
C16_8 C11_9 1_555 1_555
H11_8 C16_8 1_555 1_555
Cu4_3 O4_12 1_555 1_555
C7_9 C8_9 1_555 1_555
C11_9 C12_9 1_555 1_555
C15_8 C16_8 1_555 1_555
Cu4_2 O1_16 1_555 1_555
O1_16 C1_12 1_555 1_555
O2_16 Cu4_2 1_555 1_555
H1_16 O2_16 1_555 1_555
H2_16 O2_16 1_555 1_555
O7_2 C1_12 1_555 1_555
C1_12 C5_12 1_555 1_555
C4_16 H3_16 1_555 1_555
C5_12 C4_16 1_555 1_555
Cu4_3 O1_17 1_555 1_555
O1_17 C1_13 1_555 1_555
O2_17 Cu4_3 1_555 1_555
H1_17 O2_17 1_555 1_555
H2_17 O2_17 1_555 1_555
O7_3 C1_13 1_555 1_555
O8_2 C2_14 1_555 1_555
O9 C2_14 1_555 1_555
O6_10 C9_10 1_555 1_555
N1_10 C7_10 1_555 1_555
C1_13 C5_13 1_555 1_555
C2_14 C3_14 1_555 1_555
C3_14 C4_17 1_555 1_555
C4_17 H3_17 1_555 1_555
C5_13 C4_17 1_555 1_555
C6_10 C5_13 1_555 1_555
H4_10 C6_10 1_555 1_555
C7_10 C6_10 1_555 1_555
C8_10 C3_14 1_555 1_555
H5_10 C8_10 1_555 1_555
C9_10 N1_10 1_555 1_555
C10_10 N1_10 1_555 1_555
H6_10 C10_10 1_555 1_555
H7_10 C10_10 1_555 1_555
C11_10 C10_10 1_555 1_555
C12_10 C9_10 1_555 1_555
C13_9 C12_10 1_555 1_555
H8_10 C13_9 1_555 1_555
C14_9 C13_9 1_555 1_555
C15_9 C14_9 1_555 1_555
H10_9 C15_9 1_555 1_555
C16_9 C11_10 1_555 1_555
H11_9 C16_9 1_555 1_555
C7_10 C8_10 1_555 1_555
C11_10 C12_10 1_555 1_555
C15_9 C16_9 1_555 1_555
Cu4 O1_18 1_555 1_555
O1_18 C1_14 1_555 1_555
O2_18 Cu4 1_555 1_555
H1_18 O2_18 1_555 1_555
H2_18 O2_18 1_555 1_555
O7_4 C1_14 1_555 1_555
C1_14 C5_14 1_555 1_555
C4_18 H3_18 1_555 1_555
C5_14 C4_18 1_555 1_555
O3_8 C1_15 1_555 1_555
O6_11 C9_11 1_555 1_555
N1_11 C7_11 1_555 1_555
C1_15 C5_15 1_555 1_555
C6_11 C5_15 1_555 1_555
H4_11 C6_11 1_555 1_555
C7_11 C6_11 1_555 1_555
H5_11 C8_11 1_555 1_555
C9_11 N1_11 1_555 1_555
C10_11 N1_11 1_555 1_555
H6_11 C10_11 1_555 1_555
H7_11 C10_11 1_555 1_555
C11_11 C10_11 1_555 1_555
C12_11 C9_11 1_555 1_555
C13_10 C12_11 1_555 1_555
H8_11 C13_10 1_555 1_555
C14_10 C13_10 1_555 1_555
H9_8 C14_10 1_555 1_555
C15_10 C14_10 1_555 1_555
H10_10 C15_10 1_555 1_555
C16_10 C11_11 1_555 1_555
H11_10 C16_10 1_555 1_555
C7_11 C8_11 1_555 1_555
C11_11 C12_11 1_555 1_555
C15_10 C16_10 1_555 1_555
O8_3 C2_15 1_555 1_555
O6_12 C9_12 1_555 1_555
N1_12 C7_12 1_555 1_555
C2_15 C3_15 1_555 1_555
H4_12 C6_12 1_555 1_555
C7_12 C6_12 1_555 1_555
C8_12 C3_15 1_555 1_555
H5_12 C8_12 1_555 1_555
C9_12 N1_12 1_555 1_555
C10_12 N1_12 1_555 1_555
H6_12 C10_12 1_555 1_555
H7_12 C10_12 1_555 1_555
C11_12 C10_12 1_555 1_555
C12_12 C9_12 1_555 1_555
C13_11 C12_12 1_555 1_555
H8_12 C13_11 1_555 1_555
C14_11 C13_11 1_555 1_555
C15_11 C14_11 1_555 1_555
H10_11 C15_11 1_555 1_555
C16_11 C11_12 1_555 1_555
H11_11 C16_11 1_555 1_555
C7_12 C8_12 1_555 1_555
C11_12 C12_12 1_555 1_555
C15_11 C16_11 1_555 1_555
O8_4 C2_16 1_555 1_555
O6_13 C9_13 1_555 1_555
N1_13 C7_13 1_555 1_555
C2_16 C3_16 1_555 1_555
H4_13 C6_13 1_555 1_555
C7_13 C6_13 1_555 1_555
C8_13 C3_16 1_555 1_555
H5_13 C8_13 1_555 1_555
C9_13 N1_13 1_555 1_555
C10_13 N1_13 1_555 1_555
H6_13 C10_13 1_555 1_555
H7_13 C10_13 1_555 1_555
C11_13 C10_13 1_555 1_555
C12_13 C9_13 1_555 1_555
C13_12 C12_13 1_555 1_555
H8_13 C13_12 1_555 1_555
C14_12 C13_12 1_555 1_555
C15_12 C14_12 1_555 1_555
H10_12 C15_12 1_555 1_555
C16_12 C11_13 1_555 1_555
H11_12 C16_12 1_555 1_555
C7_13 C8_13 1_555 1_555
C11_13 C12_13 1_555 1_555
C15_12 C16_12 1_555 1_555
O7_8 C1_16 1_555 1_555
O6_14 C9_14 1_555 1_555
N1_14 C7_14 1_555 1_555
C1_16 C5_16 1_555 1_555
C6_14 C5_16 1_555 1_555
H4_14 C6_14 1_555 1_555
C7_14 C6_14 1_555 1_555
H5_14 C8_14 1_555 1_555
C9_14 N1_14 1_555 1_555
C10_14 N1_14 1_555 1_555
H6_14 C10_14 1_555 1_555
H7_14 C10_14 1_555 1_555
C11_14 C10_14 1_555 1_555
C12_14 C9_14 1_555 1_555
C13_13 C12_14 1_555 1_555
H8_14 C13_13 1_555 1_555
C14_13 C13_13 1_555 1_555
H9_9 C14_13 1_555 1_555
C15_13 C14_13 1_555 1_555
H10_13 C15_13 1_555 1_555
C16_13 C11_14 1_555 1_555
H11_13 C16_13 1_555 1_555
C7_14 C8_14 1_555 1_555
C11_14 C12_14 1_555 1_555
C15_13 C16_13 1_555 1_555
O8_5 C2_17 1_555 1_555
O6_15 C9_15 1_555 1_555
N1_15 C7_15 1_555 1_555
C2_17 C3_17 1_555 1_555
H4_15 C6_15 1_555 1_555
C7_15 C6_15 1_555 1_555
C8_15 C3_17 1_555 1_555
H5_15 C8_15 1_555 1_555
C9_15 N1_15 1_555 1_555
C10_15 N1_15 1_555 1_555
H6_15 C10_15 1_555 1_555
H7_15 C10_15 1_555 1_555
C11_15 C10_15 1_555 1_555
C12_15 C9_15 1_555 1_555
C13_14 C12_15 1_555 1_555
H8_15 C13_14 1_555 1_555
C14_14 C13_14 1_555 1_555
H9_10 C14_14 1_555 1_555
C15_14 C14_14 1_555 1_555
H10_14 C15_14 1_555 1_555
C16_14 C11_15 1_555 1_555
H11_14 C16_14 1_555 1_555
C7_15 C8_15 1_555 1_555
C11_15 C12_15 1_555 1_555
C15_14 C16_14 1_555 1_555
O7_9 C1_17 1_555 1_555
O6_16 C9_16 1_555 1_555
N1_16 C7_16 1_555 1_555
C1_17 C5_17 1_555 1_555
C6_16 C5_17 1_555 1_555
H4_16 C6_16 1_555 1_555
C7_16 C6_16 1_555 1_555
H5_16 C8_16 1_555 1_555
C9_16 N1_16 1_555 1_555
C10_16 N1_16 1_555 1_555
H6_16 C10_16 1_555 1_555
H7_16 C10_16 1_555 1_555
C11_16 C10_16 1_555 1_555
C12_16 C9_16 1_555 1_555
C7_16 C8_16 1_555 1_555
C11_16 C12_16 1_555 1_555
O3_9 C1_18 1_555 1_555
O6_17 C9_17 1_555 1_555
N1_17 C7_17 1_555 1_555
C1_18 C5_18 1_555 1_555
C6_17 C5_18 1_555 1_555
H4_17 C6_17 1_555 1_555
C7_17 C6_17 1_555 1_555
H5_17 C8_17 1_555 1_555
C9_17 N1_17 1_555 1_555
C10_17 N1_17 1_555 1_555
H6_17 C10_17 1_555 1_555
H7_17 C10_17 1_555 1_555
C11_17 C10_17 1_555 1_555
C12_17 C9_17 1_555 1_555
C7_17 C8_17 1_555 1_555
C11_17 C12_17 1_555 1_555
O8_6 C2_18 1_555 1_555
O6_18 C9_18 1_555 1_555
N1_18 C7_18 1_555 1_555
C2_18 C3_18 1_555 1_555
H4_18 C6_18 1_555 1_555
C7_18 C6_18 1_555 1_555
C8_18 C3_18 1_555 1_555
H5_18 C8_18 1_555 1_555
C9_18 N1_18 1_555 1_555
C10_18 N1_18 1_555 1_555
H6_18 C10_18 1_555 1_555
H7_18 C10_18 1_555 1_555
C11_18 C10_18 1_555 1_555
C12_18 C9_18 1_555 1_555
C13_15 C12_18 1_555 1_555
H8_18 C13_15 1_555 1_555
C14_15 C13_15 1_555 1_555
H9_11 C14_15 1_555 1_555
C15_15 C14_15 1_555 1_555
H10_15 C15_15 1_555 1_555
C16_15 C11_18 1_555 1_555
H11_15 C16_15 1_555 1_555
C7_18 C8_18 1_555 1_555
C11_18 C12_18 1_555 1_555
C15_15 C16_15 1_555 1_555
C14_16 C13_16 1_555 1_555
H9_12 C14_16 1_555 1_555
C15_16 C14_16 1_555 1_555
H10_16 C15_16 1_555 1_555
H11_16 C16_16 1_555 1_555
C15_16 C16_16 1_555 1_555
C14_17 C13_17 1_555 1_555
H9_15 C14_17 1_555 1_555
C15_17 C14_17 1_555 1_555
H10_17 C15_17 1_555 1_555
H11_17 C16_17 1_555 1_555
C15_17 C16_17 1_555 1_555
C14_18 C13_18 1_555 1_555
H9_16 C14_18 1_555 1_555
C15_18 C14_18 1_555 1_555
H10_18 C15_18 1_555 1_555
H11_18 C16_18 1_555 1_555
C15_18 C16_18 1_555 1_555

#END
