
###############################################################################
#
# This file contains modified crystal structure data generated from the
# MOF subset of the Cambridge Structural Database (CSD) v543 
# hosted by the Cambridge Crystallographic Data Centre (CCDC).
#
# This work is licensed under the Creative Commons
# Attribution-NonCommercial-ShareAlike 4.0 International License.
# To view a copy of this license, visit
# http://creativecommons.org/licenses/by-nc-sa/4.0/
# or send a letter to
# Creative Commons, PO Box 1866, Mountain View, CA 94042, USA.
#
# CIF created using the CSD Python API on 29 September 2022
# The structure has been converted into the P1 space group
# The structure has a 3D framework
# The original CSD entry EPISOM is in the tetragonal crystal system
# The framework has been calculated to contain at least 10.0% void space
# The void calculation uses a probe of radius 1.32A, grid spacing 0.4
# H atom positions have been added when not included in the experimental data
# Generated hydrogen atom positions removed from atoms on special positions
#
###############################################################################

data_EPISOM
_chemical_formula_moiety         '(C230 H208 Cu16 O66)n'
_symmetry_cell_setting           triclinic
_symmetry_space_group_name_H-M   'P 1'
_symmetry_Int_Tables_number      1
_space_group_name_Hall           'P 1'
loop_
_symmetry_equiv_pos_site_id
_symmetry_equiv_pos_as_xyz
1 x,y,z
_cell_length_a                   18.900(3)
_cell_length_b                   18.900(3)
_cell_length_c                   33.561(7)
_cell_angle_alpha                90
_cell_angle_beta                 90
_cell_angle_gamma                90
_cell_volume                     11988.3
loop_
_atom_site_label
_atom_site_type_symbol
_atom_site_fract_x
_atom_site_fract_y
_atom_site_fract_z
Cu2 Cu 0.45012(3) 0.01492(2) 0.219622(15)
Cu7 Cu 0.01492(2) 0.04988(3) 0.219622(15)
O29 O 0.52024(16) 0.04262(14) 0.30439(8)
Cu14 Cu 0.48508(2) 0.04988(3) 0.719622(15)
Cu16 Cu 0.04988(3) 0.01492(2) 0.719622(15)
O14 O 0.13711(15) 0.00547(14) 0.74841(9)
O19 O 0.39934(15) 0.02585(14) 0.75124(9)
H25 H 0.2689 0.0096 0.7612
Cu1 Cu 0.04988(3) 0.48508(2) 0.219622(15)
C1 C 0.2500 0.7500 0.0000
O1 O 0.05577(16) 0.58454(15) 0.20193(8)
C2 C 0.1886(3) 0.7616(3) 0.02890(14)
C3 C 0.1863(2) 0.8233(2) 0.05244(14)
H1 H 0.2146 0.8618 0.0456
C4 C 0.1430(3) 0.8279(2) 0.08543(14)
H2 H 0.1414 0.8700 0.0997
O4 O 0.02024(16) 0.95738(14) 0.19561(8)
O5 O 0.09571(15) 0.43230(15) 0.16920(9)
C5 C 0.1013(3) 0.7706(3) 0.09799(14)
C6 C 0.0994(2) 0.7109(3) 0.07296(14)
H3 H 0.0689 0.6737 0.0790
C7 C 0.1421(3) 0.7065(3) 0.03951(15)
H4 H 0.1399 0.6662 0.0237
C8 C 0.0660(3) 0.7714(2) 0.13707(14)
C9 C 0.0458(2) 0.8327(2) 0.15591(15)
H5 H 0.0505 0.8754 0.1425
C10 C 0.0183(2) 0.8331(2) 0.19437(14)
C11 C 0.0104(3) 0.7692(2) 0.21349(14)
C12 C 0.0307(2) 0.7051(2) 0.19661(14)
C13 C 0.0586(2) 0.7072(2) 0.15777(15)
H7 H 0.0723 0.6652 0.1455
C14 C 0.0019(2) 0.9007(2) 0.21502(18)
C15 C 0.0267(2) 0.6372(2) 0.21828(17)
Cu8 Cu 0.54988(3) 0.51492(2) 0.280378(15)
Cu9 Cu 0.48508(2) 0.45012(3) 0.219622(15)
Cu10 Cu 0.51492(2) 0.95012(3) 0.280378(15)
O6 O 0.44423(16) 0.91546(15) 0.20193(8)
O9 O 0.08454(15) 0.55577(16) 0.29807(8)
O11 O 0.41546(15) 0.94423(16) 0.29807(8)
O12 O 0.50547(14) 0.86289(15) 0.25159(9)
O15 O 0.13711(15) 0.49453(14) 0.24841(9)
C16 C 0.3114(3) 0.7384(3) 0.02890(14)
C19 C 0.3137(2) 0.6767(2) 0.05244(14)
H8 H 0.2854 0.6382 0.0456
O17 O 0.52585(14) 0.60066(15) 0.24876(9)
O20 O 0.02585(14) 0.39934(15) 0.25124(9)
O22 O 0.60066(15) 0.97415(14) 0.24876(9)
C22 C 0.3570(3) 0.6721(2) 0.08543(14)
H11 H 0.3586 0.6300 0.0997
O23 O 0.47976(16) 0.54262(14) 0.19561(8)
O28 O 0.04262(14) 0.97976(16) 0.30439(8)
O32 O 0.56770(15) 0.90429(15) 0.33080(9)
C25 C 0.3987(3) 0.7294(3) 0.09799(14)
C28 C 0.4006(2) 0.7891(3) 0.07296(14)
H14 H 0.4311 0.8263 0.0790
C31 C 0.3579(3) 0.7935(3) 0.03951(15)
H17 H 0.3601 0.8338 0.0237
C34 C 0.4340(3) 0.7286(2) 0.13707(14)
C37 C 0.4542(2) 0.6673(2) 0.15591(15)
H20 H 0.4495 0.6246 0.1425
C40 C 0.4817(2) 0.6669(2) 0.19437(14)
C43 C 0.4896(3) 0.7308(2) 0.21349(14)
H23 H 0.5096 0.7311 0.2388
C46 C 0.4693(2) 0.7949(2) 0.19661(14)
C49 C 0.4414(2) 0.7928(2) 0.15777(15)
H26 H 0.4277 0.8348 0.1455
C52 C 0.4981(2) 0.5993(2) 0.21502(18)
C55 C 0.4733(2) 0.8628(2) 0.21828(17)
C1_2 C 0.2500 0.7500 1.0000
Cu3 Cu 0.51492(2) 0.54988(3) 0.780378(15)
Cu11 Cu 0.01492(2) 0.45012(3) 0.719622(15)
Cu13 Cu 0.45012(3) 0.48508(2) 0.719622(15)
Cu15 Cu 0.54988(3) 0.98508(2) 0.780378(15)
O7 O 0.41546(15) 0.55577(16) 0.79807(8)
O8 O 0.08454(15) 0.94423(16) 0.79807(8)
O13 O 0.36289(15) 0.49453(14) 0.74841(9)
C17 C 0.2384(3) 0.6886(3) 0.97110(14)
C18 C 0.2616(3) 0.8114(3) 0.97110(14)
C20 C 0.1767(2) 0.6863(2) 0.94756(14)
C21 C 0.3233(2) 0.8137(2) 0.94756(14)
H9 H 0.1382 0.7146 0.9544
H10 H 0.3618 0.7854 0.9544
O18 O 0.10066(15) 0.47415(14) 0.75124(9)
C23 C 0.1721(2) 0.6430(3) 0.91457(14)
C24 C 0.3279(2) 0.8570(3) 0.91457(14)
H12 H 0.1300 0.6414 0.9003
H13 H 0.3700 0.8586 0.9003
O24 O 0.04262(14) 0.52024(16) 0.80439(8)
O25 O 0.45738(14) 0.97976(16) 0.80439(8)
C26 C 0.2294(3) 0.6013(3) 0.90201(14)
C27 C 0.2706(3) 0.8987(3) 0.90201(14)
C29 C 0.2891(3) 0.5994(2) 0.92704(14)
C30 C 0.2109(3) 0.9006(2) 0.92704(14)
H15 H 0.3263 0.5689 0.9210
H16 H 0.1737 0.9311 0.9210
C32 C 0.2935(3) 0.6421(3) 0.96049(15)
C33 C 0.2065(3) 0.8579(3) 0.96049(15)
H18 H 0.3338 0.6399 0.9763
H19 H 0.1662 0.8601 0.9763
C35 C 0.2286(2) 0.5660(3) 0.86293(14)
C36 C 0.2714(2) 0.9340(3) 0.86293(14)
C38 C 0.1673(2) 0.5458(2) 0.84409(15)
C39 C 0.3327(2) 0.9542(2) 0.84409(15)
H21 H 0.1246 0.5505 0.8575
H22 H 0.3754 0.9495 0.8575
C41 C 0.1669(2) 0.5183(2) 0.80563(14)
C42 C 0.3331(2) 0.9817(2) 0.80563(14)
C44 C 0.2308(2) 0.5104(3) 0.78651(14)
C45 C 0.2692(2) 0.9896(3) 0.78651(14)
H24 H 0.2311 0.4904 0.7612
C47 C 0.2949(2) 0.5307(2) 0.80339(14)
C48 C 0.2051(2) 0.9693(2) 0.80339(14)
C50 C 0.2928(2) 0.5586(2) 0.84223(15)
C51 C 0.2072(2) 0.9414(2) 0.84223(15)
H27 H 0.3348 0.5723 0.8545
H28 H 0.1652 0.9277 0.8545
C53 C 0.0993(2) 0.5019(2) 0.78498(18)
C54 C 0.4007(2) 0.9981(2) 0.78498(18)
C56 C 0.3628(2) 0.5267(2) 0.78172(17)
C57 C 0.1372(2) 0.9733(2) 0.78172(17)
O10 O 0.94423(16) 0.08454(15) 0.29807(8)
O2 O 0.99453(14) 0.63711(15) 0.25159(9)
O3 O 0.97415(14) 0.89934(15) 0.24876(9)
H6 H 0.9904 0.7689 0.2388
Cu5 Cu 0.98508(2) 0.54988(3) 0.280378(15)
Cu6 Cu 0.95012(3) 0.98508(2) 0.280378(15)
O16 O 0.86289(15) 0.99453(14) 0.25159(9)
O21 O 0.89934(15) 0.52585(14) 0.24876(9)
O26 O 0.95738(14) 0.47976(16) 0.19561(8)
O27 O 0.97976(16) 0.45738(14) 0.30439(8)
O30 O 0.93230(15) 0.59571(15) 0.33080(9)
O31 O 0.90429(15) 0.93230(15) 0.33080(9)
Cu4 Cu 0.98508(2) 0.95012(3) 0.780378(15)
Cu12 Cu 0.95012(3) 0.51492(2) 0.780378(15)
O5_2 O 0.40429(15) 0.06770(15) 0.16920(9)
O15_2 O 0.36289(15) 0.00547(14) 0.24841(9)
O20_2 O 0.47415(14) 0.10066(15) 0.25124(9)
O26_2 O 0.54262(14) 0.02024(16) 0.19561(8)
O10_2 O 0.55577(16) 0.41546(15) 0.29807(8)
O16_2 O 0.63711(15) 0.50547(14) 0.25159(9)
O28_2 O 0.45738(14) 0.52024(16) 0.30439(8)
O31_2 O 0.59571(15) 0.56770(15) 0.33080(9)
O5_3 O 0.06770(15) 0.09571(15) 0.16920(9)
O15_3 O 0.00547(14) 0.13711(15) 0.24841(9)
O20_3 O 0.10066(15) 0.02585(14) 0.25124(9)
O13_2 O 0.00547(14) 0.36289(15) 0.74841(9)
O18_2 O 0.02585(14) 0.10066(15) 0.75124(9)
H24_2 H 0.0096 0.2311 0.7612
C1_3 C 0.7500 0.2500 0.0000
O1_2 O 0.91546(15) 0.05577(16) 0.20193(8)
C2_2 C 0.7384(3) 0.1886(3) 0.02890(14)
C3_2 C 0.6767(2) 0.1863(2) 0.05244(14)
H1_2 H 0.6382 0.2146 0.0456
C4_2 C 0.6721(2) 0.1430(3) 0.08543(14)
H2_2 H 0.6300 0.1414 0.0997
C5_2 C 0.7294(3) 0.1013(3) 0.09799(14)
C6_2 C 0.7891(3) 0.0994(2) 0.07296(14)
H3_2 H 0.8263 0.0689 0.0790
C7_2 C 0.7935(3) 0.1421(3) 0.03951(15)
H4_2 H 0.8338 0.1399 0.0237
C8_2 C 0.7286(2) 0.0660(3) 0.13707(14)
C9_2 C 0.6673(2) 0.0458(2) 0.15591(15)
H5_2 H 0.6246 0.0505 0.1425
C10_2 C 0.6669(2) 0.0183(2) 0.19437(14)
C11_2 C 0.7308(2) 0.0104(3) 0.21349(14)
C12_2 C 0.7949(2) 0.0307(2) 0.19661(14)
C13_2 C 0.7928(2) 0.0586(2) 0.15777(15)
H7_2 H 0.8348 0.0723 0.1455
C14_2 C 0.5993(2) 0.0019(2) 0.21502(18)
C15_2 C 0.8628(2) 0.0267(2) 0.21828(17)
O6_2 O 0.58454(15) 0.44423(16) 0.20193(8)
C16_2 C 0.7616(3) 0.3114(3) 0.02890(14)
C19_2 C 0.8233(2) 0.3137(2) 0.05244(14)
H8_2 H 0.8618 0.2854 0.0456
C22_2 C 0.8279(2) 0.3570(3) 0.08543(14)
H11_2 H 0.8700 0.3586 0.0997
C25_2 C 0.7706(3) 0.3987(3) 0.09799(14)
C28_2 C 0.7109(3) 0.4006(2) 0.07296(14)
H14_2 H 0.6737 0.4311 0.0790
C31_2 C 0.7065(3) 0.3579(3) 0.03951(15)
H17_2 H 0.6662 0.3601 0.0237
C34_2 C 0.7714(2) 0.4340(3) 0.13707(14)
C37_2 C 0.8327(2) 0.4542(2) 0.15591(15)
H20_2 H 0.8754 0.4495 0.1425
C40_2 C 0.8331(2) 0.4817(2) 0.19437(14)
C43_2 C 0.7692(2) 0.4896(3) 0.21349(14)
H23_2 H 0.7689 0.5096 0.2388
C46_2 C 0.7051(2) 0.4693(2) 0.19661(14)
C49_2 C 0.7072(2) 0.4414(2) 0.15777(15)
H26_2 H 0.6652 0.4277 0.1455
C52_2 C 0.9007(2) 0.4981(2) 0.21502(18)
C55_2 C 0.6372(2) 0.4733(2) 0.21828(17)
C1_4 C 0.7500 0.2500 1.0000
O7_2 O 0.94423(16) 0.41546(15) 0.79807(8)
O8_2 O 0.55577(16) 0.08454(15) 0.79807(8)
O14_2 O 0.49453(14) 0.13711(15) 0.74841(9)
C17_2 C 0.8114(3) 0.2384(3) 0.97110(14)
C18_2 C 0.6886(3) 0.2616(3) 0.97110(14)
C20_2 C 0.8137(2) 0.1767(2) 0.94756(14)
C21_2 C 0.6863(2) 0.3233(2) 0.94756(14)
H9_2 H 0.7854 0.1382 0.9544
H10_2 H 0.7146 0.3618 0.9544
O19_2 O 0.47415(14) 0.39934(15) 0.75124(9)
C23_2 C 0.8570(3) 0.1721(2) 0.91457(14)
C24_2 C 0.6430(3) 0.3279(2) 0.91457(14)
H12_2 H 0.8586 0.1300 0.9003
H13_2 H 0.6414 0.3700 0.9003
O24_2 O 0.97976(16) 0.04262(14) 0.80439(8)
O25_2 O 0.52024(16) 0.45738(14) 0.80439(8)
C26_2 C 0.8987(3) 0.2294(3) 0.90201(14)
C27_2 C 0.6013(3) 0.2706(3) 0.90201(14)
C29_2 C 0.9006(2) 0.2891(3) 0.92704(14)
C30_2 C 0.5994(2) 0.2109(3) 0.92704(14)
H15_2 H 0.9311 0.3263 0.9210
H16_2 H 0.5689 0.1737 0.9210
C32_2 C 0.8579(3) 0.2935(3) 0.96049(15)
C33_2 C 0.6421(3) 0.2065(3) 0.96049(15)
H18_2 H 0.8601 0.3338 0.9763
H19_2 H 0.6399 0.1662 0.9763
C35_2 C 0.9340(3) 0.2286(2) 0.86293(14)
C36_2 C 0.5660(3) 0.2714(2) 0.86293(14)
C38_2 C 0.9542(2) 0.1673(2) 0.84409(15)
C39_2 C 0.5458(2) 0.3327(2) 0.84409(15)
H21_2 H 0.9495 0.1246 0.8575
H22_2 H 0.5505 0.3754 0.8575
C41_2 C 0.9817(2) 0.1669(2) 0.80563(14)
C42_2 C 0.5183(2) 0.3331(2) 0.80563(14)
C44_2 C 0.9896(3) 0.2308(2) 0.78651(14)
C45_2 C 0.5104(3) 0.2692(2) 0.78651(14)
H25_2 H 0.4904 0.2689 0.7612
C47_2 C 0.9693(2) 0.2949(2) 0.80339(14)
C48_2 C 0.5307(2) 0.2051(2) 0.80339(14)
C50_2 C 0.9414(2) 0.2928(2) 0.84223(15)
C51_2 C 0.5586(2) 0.2072(2) 0.84223(15)
H27_2 H 0.9277 0.3348 0.8545
H28_2 H 0.5723 0.1652 0.8545
C53_2 C 0.9981(2) 0.0993(2) 0.78498(18)
C54_2 C 0.5019(2) 0.4007(2) 0.78498(18)
C56_2 C 0.9733(2) 0.3628(2) 0.78172(17)
C57_2 C 0.5267(2) 0.1372(2) 0.78172(17)
H6_2 H 0.7311 0.9904 0.2388
O5_4 O 0.43230(15) 0.40429(15) 0.16920(9)
O15_4 O 0.49453(14) 0.36289(15) 0.24841(9)
O20_4 O 0.39934(15) 0.47415(14) 0.25124(9)
H6_3 H 0.0096 0.2689 0.2612
C1_5 C 0.7500 0.2500 0.5000
C2_3 C 0.8114(3) 0.2616(3) 0.47110(14)
C3_3 C 0.8137(2) 0.3233(2) 0.44756(14)
H1_3 H 0.7854 0.3618 0.4544
C4_3 C 0.8570(3) 0.3279(2) 0.41457(14)
H2_3 H 0.8586 0.3700 0.4003
C5_3 C 0.8987(3) 0.2706(3) 0.40201(14)
C6_3 C 0.9006(2) 0.2109(3) 0.42704(14)
H3_3 H 0.9311 0.1737 0.4210
C7_3 C 0.8579(3) 0.2065(3) 0.46049(15)
H4_3 H 0.8601 0.1662 0.4763
C8_3 C 0.9340(3) 0.2714(2) 0.36293(14)
C9_3 C 0.9542(2) 0.3327(2) 0.34409(15)
H5_3 H 0.9495 0.3754 0.3575
C10_3 C 0.9817(2) 0.3331(2) 0.30563(14)
C11_3 C 0.9896(3) 0.2692(2) 0.28651(14)
C12_3 C 0.9693(2) 0.2051(2) 0.30339(14)
C13_3 C 0.9414(2) 0.2072(2) 0.34223(15)
H7_3 H 0.9277 0.1652 0.3545
C14_3 C 0.9981(2) 0.4007(2) 0.28498(18)
C15_3 C 0.9733(2) 0.1372(2) 0.28172(17)
O7_3 O 0.58454(15) 0.05577(16) 0.70193(8)
O8_3 O 0.91546(15) 0.44423(16) 0.70193(8)
O14_3 O 0.86289(15) 0.50547(14) 0.75159(9)
C16_3 C 0.6886(3) 0.2384(3) 0.47110(14)
C17_3 C 0.7616(3) 0.1886(3) 0.52890(14)
C18_3 C 0.7384(3) 0.3114(3) 0.52890(14)
C19_3 C 0.6863(2) 0.1767(2) 0.44756(14)
C20_3 C 0.8233(2) 0.1863(2) 0.55244(14)
C21_3 C 0.6767(2) 0.3137(2) 0.55244(14)
H8_3 H 0.7146 0.1382 0.4544
H9_3 H 0.8618 0.2146 0.5456
H10_3 H 0.6382 0.2854 0.5456
O19_3 O 0.60066(15) 0.52585(14) 0.74876(9)
C22_3 C 0.6430(3) 0.1721(2) 0.41457(14)
C23_3 C 0.8279(2) 0.1430(3) 0.58543(14)
C24_3 C 0.6721(2) 0.3570(3) 0.58543(14)
H11_3 H 0.6414 0.1300 0.4003
H12_3 H 0.8700 0.1414 0.5997
H13_3 H 0.6300 0.3586 0.5997
O24_3 O 0.95738(14) 0.02024(16) 0.69561(8)
O25_3 O 0.54262(14) 0.47976(16) 0.69561(8)
C25_3 C 0.6013(3) 0.2294(3) 0.40201(14)
C26_3 C 0.7706(3) 0.1013(3) 0.59799(14)
C27_3 C 0.7294(3) 0.3987(3) 0.59799(14)
C28_3 C 0.5994(2) 0.2891(3) 0.42704(14)
C29_3 C 0.7109(3) 0.0994(2) 0.57296(14)
C30_3 C 0.7891(3) 0.4006(2) 0.57296(14)
H14_3 H 0.5689 0.3263 0.4210
H15_3 H 0.6737 0.0689 0.5790
H16_3 H 0.8263 0.4311 0.5790
C31_3 C 0.6421(3) 0.2935(3) 0.46049(15)
C32_3 C 0.7065(3) 0.1421(3) 0.53951(15)
C33_3 C 0.7935(3) 0.3579(3) 0.53951(15)
H17_3 H 0.6399 0.3338 0.4763
H18_3 H 0.6662 0.1399 0.5237
H19_3 H 0.8338 0.3601 0.5237
C34_3 C 0.5660(3) 0.2286(2) 0.36293(14)
C35_3 C 0.7714(2) 0.0660(3) 0.63707(14)
C36_3 C 0.7286(2) 0.4340(3) 0.63707(14)
C37_3 C 0.5458(2) 0.1673(2) 0.34409(15)
C38_3 C 0.8327(2) 0.0458(2) 0.65591(15)
C39_3 C 0.6673(2) 0.4542(2) 0.65591(15)
H20_3 H 0.5505 0.1246 0.3575
H21_3 H 0.8754 0.0505 0.6425
H22_3 H 0.6246 0.4495 0.6425
C40_3 C 0.5183(2) 0.1669(2) 0.30563(14)
C41_3 C 0.8331(2) 0.0183(2) 0.69437(14)
C42_3 C 0.6669(2) 0.4817(2) 0.69437(14)
C43_3 C 0.5104(3) 0.2308(2) 0.28651(14)
C44_3 C 0.7692(2) 0.0104(3) 0.71349(14)
C45_3 C 0.7308(2) 0.4896(3) 0.71349(14)
H23_3 H 0.4904 0.2311 0.2612
H25_3 H 0.7311 0.5096 0.7388
C46_3 C 0.5307(2) 0.2949(2) 0.30339(14)
C47_3 C 0.7051(2) 0.0307(2) 0.69661(14)
C48_3 C 0.7949(2) 0.4693(2) 0.69661(14)
C49_3 C 0.5586(2) 0.2928(2) 0.34223(15)
C50_3 C 0.7072(2) 0.0586(2) 0.65777(15)
C51_3 C 0.7928(2) 0.4414(2) 0.65777(15)
H26_3 H 0.5723 0.3348 0.3545
H27_3 H 0.6652 0.0723 0.6455
H28_3 H 0.8348 0.4277 0.6455
C52_3 C 0.5019(2) 0.0993(2) 0.28498(18)
C53_3 C 0.9007(2) 0.0019(2) 0.71502(18)
C54_3 C 0.5993(2) 0.4981(2) 0.71502(18)
C55_3 C 0.5267(2) 0.3628(2) 0.28172(17)
C56_3 C 0.6372(2) 0.0267(2) 0.71828(17)
C57_3 C 0.8628(2) 0.4733(2) 0.71828(17)
O13_3 O 0.63711(15) 0.99453(14) 0.75159(9)
O18_3 O 0.89934(15) 0.97415(14) 0.74876(9)
H24_3 H 0.7689 0.9904 0.7388
H23_4 H 0.2311 0.0096 0.2612
C1_6 C 0.2500 0.7500 0.5000
C2_4 C 0.2616(3) 0.6886(3) 0.47110(14)
C3_4 C 0.3233(2) 0.6863(2) 0.44756(14)
H1_4 H 0.3618 0.7146 0.4544
C4_4 C 0.3279(2) 0.6430(3) 0.41457(14)
H2_4 H 0.3700 0.6414 0.4003
C5_4 C 0.2706(3) 0.6013(3) 0.40201(14)
C6_4 C 0.2109(3) 0.5994(2) 0.42704(14)
H3_4 H 0.1737 0.5689 0.4210
C7_4 C 0.2065(3) 0.6421(3) 0.46049(15)
H4_4 H 0.1662 0.6399 0.4763
C8_4 C 0.2714(2) 0.5660(3) 0.36293(14)
C9_4 C 0.3327(2) 0.5458(2) 0.34409(15)
H5_4 H 0.3754 0.5505 0.3575
C10_4 C 0.3331(2) 0.5183(2) 0.30563(14)
C11_4 C 0.2692(2) 0.5104(3) 0.28651(14)
H6_4 H 0.2689 0.4904 0.2612
C12_4 C 0.2051(2) 0.5307(2) 0.30339(14)
C13_4 C 0.2072(2) 0.5586(2) 0.34223(15)
H7_4 H 0.1652 0.5723 0.3545
C14_4 C 0.4007(2) 0.5019(2) 0.28498(18)
C15_4 C 0.1372(2) 0.5267(2) 0.28172(17)
O7_4 O 0.05577(16) 0.91546(15) 0.70193(8)
O8_4 O 0.44423(16) 0.58454(15) 0.70193(8)
O14_4 O 0.50547(14) 0.63711(15) 0.75159(9)
C16_4 C 0.2384(3) 0.8114(3) 0.47110(14)
C17_4 C 0.1886(3) 0.7384(3) 0.52890(14)
C18_4 C 0.3114(3) 0.7616(3) 0.52890(14)
C19_4 C 0.1767(2) 0.8137(2) 0.44756(14)
C20_4 C 0.1863(2) 0.6767(2) 0.55244(14)
C21_4 C 0.3137(2) 0.8233(2) 0.55244(14)
H8_4 H 0.1382 0.7854 0.4544
H9_4 H 0.2146 0.6382 0.5456
H10_4 H 0.2854 0.8618 0.5456
O19_4 O 0.52585(14) 0.89934(15) 0.74876(9)
C22_4 C 0.1721(2) 0.8570(3) 0.41457(14)
C23_4 C 0.1430(3) 0.6721(2) 0.58543(14)
C24_4 C 0.3570(3) 0.8279(2) 0.58543(14)
H11_4 H 0.1300 0.8586 0.4003
H12_4 H 0.1414 0.6300 0.5997
H13_4 H 0.3586 0.8700 0.5997
O24_4 O 0.02024(16) 0.54262(14) 0.69561(8)
O25_4 O 0.47976(16) 0.95738(14) 0.69561(8)
C25_4 C 0.2294(3) 0.8987(3) 0.40201(14)
C26_4 C 0.1013(3) 0.7294(3) 0.59799(14)
C27_4 C 0.3987(3) 0.7706(3) 0.59799(14)
C28_4 C 0.2891(3) 0.9006(2) 0.42704(14)
C29_4 C 0.0994(2) 0.7891(3) 0.57296(14)
C30_4 C 0.4006(2) 0.7109(3) 0.57296(14)
H14_4 H 0.3263 0.9311 0.4210
H15_4 H 0.0689 0.8263 0.5790
H16_4 H 0.4311 0.6737 0.5790
C31_4 C 0.2935(3) 0.8579(3) 0.46049(15)
C32_4 C 0.1421(3) 0.7935(3) 0.53951(15)
C33_4 C 0.3579(3) 0.7065(3) 0.53951(15)
H17_4 H 0.3338 0.8601 0.4763
H18_4 H 0.1399 0.8338 0.5237
H19_4 H 0.3601 0.6662 0.5237
C34_4 C 0.2286(2) 0.9340(3) 0.36293(14)
C35_4 C 0.0660(3) 0.7286(2) 0.63707(14)
C36_4 C 0.4340(3) 0.7714(2) 0.63707(14)
C37_4 C 0.1673(2) 0.9542(2) 0.34409(15)
C38_4 C 0.0458(2) 0.6673(2) 0.65591(15)
C39_4 C 0.4542(2) 0.8327(2) 0.65591(15)
H20_4 H 0.1246 0.9495 0.3575
H21_4 H 0.0505 0.6246 0.6425
H22_4 H 0.4495 0.8754 0.6425
C40_4 C 0.1669(2) 0.9817(2) 0.30563(14)
C41_4 C 0.0183(2) 0.6669(2) 0.69437(14)
C42_4 C 0.4817(2) 0.8331(2) 0.69437(14)
C43_4 C 0.2308(2) 0.9896(3) 0.28651(14)
C44_4 C 0.0104(3) 0.7308(2) 0.71349(14)
C45_4 C 0.4896(3) 0.7692(2) 0.71349(14)
H25_4 H 0.5096 0.7689 0.7388
C46_4 C 0.2949(2) 0.9693(2) 0.30339(14)
C47_4 C 0.0307(2) 0.7949(2) 0.69661(14)
C48_4 C 0.4693(2) 0.7051(2) 0.69661(14)
C49_4 C 0.2928(2) 0.9414(2) 0.34223(15)
C50_4 C 0.0586(2) 0.7928(2) 0.65777(15)
C51_4 C 0.4414(2) 0.7072(2) 0.65777(15)
H26_4 H 0.3348 0.9277 0.3545
H27_4 H 0.0723 0.8348 0.6455
H28_4 H 0.4277 0.6652 0.6455
C52_4 C 0.0993(2) 0.9981(2) 0.28498(18)
C53_4 C 0.0019(2) 0.5993(2) 0.71502(18)
C54_4 C 0.4981(2) 0.9007(2) 0.71502(18)
C55_4 C 0.3628(2) 0.9733(2) 0.28172(17)
C56_4 C 0.0267(2) 0.8628(2) 0.71828(17)
C57_4 C 0.4733(2) 0.6372(2) 0.71828(17)
O13_4 O 0.99453(14) 0.86289(15) 0.75159(9)
O18_4 O 0.97415(14) 0.60066(15) 0.74876(9)
H24_4 H 0.9904 0.7311 0.7388
O30_2 O 0.06770(15) 0.40429(15) 0.66920(9)
O31_3 O 0.09571(15) 0.06770(15) 0.66920(9)
O5_5 O 0.90429(15) 0.56770(15) 0.83080(9)
O32_2 O 0.43230(15) 0.09571(15) 0.66920(9)
O31_4 O 0.40429(15) 0.43230(15) 0.66920(9)
O5_6 O 0.59571(15) 0.93230(15) 0.83080(9)
O5_7 O 0.93230(15) 0.90429(15) 0.83080(9)
O5_8 O 0.56770(15) 0.59571(15) 0.83080(9)
loop_
_geom_bond_atom_site_label_1
_geom_bond_atom_site_label_2
_geom_bond_site_symmetry_1
_geom_bond_site_symmetry_2
Cu16 O14 1_555 1_555
O19 Cu14 1_555 1_555
Cu1 O1 1_555 1_555
C1 C2 1_555 1_555
O1 C15 1_555 1_555
C2 C3 1_555 1_555
C3 H1 1_555 1_555
C4 C3 1_555 1_555
H2 C4 1_555 1_555
O4 C14 1_555 1_555
O5 Cu1 1_555 1_555
C5 C4 1_555 1_555
C6 C5 1_555 1_555
H3 C6 1_555 1_555
C7 C2 1_555 1_555
H4 C7 1_555 1_555
C8 C5 1_555 1_555
C9 C8 1_555 1_555
H5 C9 1_555 1_555
C10 C9 1_555 1_555
C11 C10 1_555 1_555
C12 C11 1_555 1_555
C13 C8 1_555 1_555
H7 C13 1_555 1_555
C14 C10 1_555 1_555
C15 C12 1_555 1_555
Cu8 Cu9 1_555 1_555
Cu9 O23 1_555 1_555
Cu10 O11 1_555 1_555
O12 Cu10 1_555 1_555
O15 Cu1 1_555 1_555
C16 C1 1_555 1_555
C19 C16 1_555 1_555
H8 C19 1_555 1_555
O17 Cu8 1_555 1_555
O20 Cu1 1_555 1_555
O22 Cu10 1_555 1_555
C22 C19 1_555 1_555
H11 C22 1_555 1_555
O23 C52 1_555 1_555
O32 Cu10 1_555 1_555
C25 C22 1_555 1_555
C28 C25 1_555 1_555
H14 C28 1_555 1_555
C31 C16 1_555 1_555
H17 C31 1_555 1_555
C34 C25 1_555 1_555
C37 C34 1_555 1_555
H20 C37 1_555 1_555
C40 C37 1_555 1_555
C43 C40 1_555 1_555
H23 C43 1_555 1_555
C46 C43 1_555 1_555
C49 C34 1_555 1_555
H26 C49 1_555 1_555
C52 O17 1_555 1_555
C55 O6 1_555 1_555
C6 C7 1_555 1_555
C12 C13 1_555 1_555
O12 C55 1_555 1_555
C28 C31 1_555 1_555
C40 C52 1_555 1_555
C46 C49 1_555 1_555
C46 C55 1_555 1_555
Cu3 Cu13 1_555 1_555
Cu13 O13 1_555 1_555
Cu15 O25 1_555 1_555
O7 Cu3 1_555 1_555
O13 C56 1_555 1_555
C17 C1_2 1_555 1_555
C18 C1_2 1_555 1_555
C20 C17 1_555 1_555
C21 C18 1_555 1_555
H9 C20 1_555 1_555
H10 C21 1_555 1_555
O18 Cu11 1_555 1_555
C23 C20 1_555 1_555
C24 C21 1_555 1_555
H12 C23 1_555 1_555
H13 C24 1_555 1_555
O24 C53 1_555 1_555
O25 C54 1_555 1_555
C26 C23 1_555 1_555
C27 C24 1_555 1_555
C29 C26 1_555 1_555
C30 C27 1_555 1_555
H15 C29 1_555 1_555
H16 C30 1_555 1_555
C32 C17 1_555 1_555
C33 C18 1_555 1_555
H18 C32 1_555 1_555
H19 C33 1_555 1_555
C35 C26 1_555 1_555
C36 C27 1_555 1_555
C38 C35 1_555 1_555
C39 C36 1_555 1_555
H21 C38 1_555 1_555
H22 C39 1_555 1_555
C41 C38 1_555 1_555
C42 C39 1_555 1_555
C44 C41 1_555 1_555
C45 C42 1_555 1_555
H24 C44 1_555 1_555
C47 C44 1_555 1_555
C48 C45 1_555 1_555
C50 C35 1_555 1_555
C51 C36 1_555 1_555
H27 C50 1_555 1_555
H28 C51 1_555 1_555
C53 O18 1_555 1_555
C56 O7 1_555 1_555
C57 O8 1_555 1_555
C29 C32 1_555 1_555
C30 C33 1_555 1_555
C41 C53 1_555 1_555
C42 C54 1_555 1_555
C47 C50 1_555 1_555
C47 C56 1_555 1_555
C48 C51 1_555 1_555
C48 C57 1_555 1_555
Cu6 O3 1_555 1_555
O16 Cu6 1_555 1_555
O21 Cu5 1_555 1_555
O27 Cu5 1_555 1_555
O30 Cu5 1_555 1_555
O31 Cu6 1_555 1_555
O2 Cu5 1_555 1_555
O5_2 Cu2 1_555 1_555
O15_2 Cu2 1_555 1_555
O20_2 Cu2 1_555 1_555
O26_2 Cu2 1_555 1_555
O10_2 Cu8 1_555 1_555
O16_2 Cu8 1_555 1_555
O28_2 Cu8 1_555 1_555
O31_2 Cu8 1_555 1_555
O5_3 Cu7 1_555 1_555
O15_3 Cu7 1_555 1_555
O20_3 Cu7 1_555 1_555
Cu11 O13_2 1_555 1_555
O18_2 Cu16 1_555 1_555
C1_3 C2_2 1_555 1_555
O1_2 C15_2 1_555 1_555
C2_2 C3_2 1_555 1_555
C3_2 H1_2 1_555 1_555
C4_2 C3_2 1_555 1_555
H2_2 C4_2 1_555 1_555
O26_2 C14_2 1_555 1_555
C5_2 C4_2 1_555 1_555
C6_2 C5_2 1_555 1_555
H3_2 C6_2 1_555 1_555
C7_2 C2_2 1_555 1_555
H4_2 C7_2 1_555 1_555
C8_2 C5_2 1_555 1_555
C9_2 C8_2 1_555 1_555
H5_2 C9_2 1_555 1_555
C10_2 C9_2 1_555 1_555
C11_2 C10_2 1_555 1_555
C12_2 C11_2 1_555 1_555
C13_2 C8_2 1_555 1_555
H7_2 C13_2 1_555 1_555
C14_2 C10_2 1_555 1_555
C15_2 C12_2 1_555 1_555
O6_2 Cu9 1_555 1_555
C16_2 C1_3 1_555 1_555
C19_2 C16_2 1_555 1_555
H8_2 C19_2 1_555 1_555
C22_2 C19_2 1_555 1_555
H11_2 C22_2 1_555 1_555
O26 C52_2 1_555 1_555
C25_2 C22_2 1_555 1_555
C28_2 C25_2 1_555 1_555
H14_2 C28_2 1_555 1_555
C31_2 C16_2 1_555 1_555
H17_2 C31_2 1_555 1_555
C34_2 C25_2 1_555 1_555
C37_2 C34_2 1_555 1_555
H20_2 C37_2 1_555 1_555
C40_2 C37_2 1_555 1_555
C43_2 C40_2 1_555 1_555
H23_2 C43_2 1_555 1_555
C46_2 C43_2 1_555 1_555
C49_2 C34_2 1_555 1_555
H26_2 C49_2 1_555 1_555
C52_2 O21 1_555 1_555
C55_2 O6_2 1_555 1_555
C6_2 C7_2 1_555 1_555
C12_2 C13_2 1_555 1_555
O16_2 C55_2 1_555 1_555
C28_2 C31_2 1_555 1_555
C40_2 C52_2 1_555 1_555
C46_2 C49_2 1_555 1_555
C46_2 C55_2 1_555 1_555
Cu3 O25_2 1_555 1_555
Cu14 O14_2 1_555 1_555
O7_2 Cu12 1_555 1_555
O14_2 C57_2 1_555 1_555
C17_2 C1_4 1_555 1_555
C18_2 C1_4 1_555 1_555
C20_2 C17_2 1_555 1_555
C21_2 C18_2 1_555 1_555
H9_2 C20_2 1_555 1_555
H10_2 C21_2 1_555 1_555
O19_2 Cu13 1_555 1_555
C23_2 C20_2 1_555 1_555
C24_2 C21_2 1_555 1_555
H12_2 C23_2 1_555 1_555
H13_2 C24_2 1_555 1_555
O24_2 C53_2 1_555 1_555
O25_2 C54_2 1_555 1_555
C26_2 C23_2 1_555 1_555
C27_2 C24_2 1_555 1_555
C29_2 C26_2 1_555 1_555
C30_2 C27_2 1_555 1_555
H15_2 C29_2 1_555 1_555
H16_2 C30_2 1_555 1_555
C32_2 C17_2 1_555 1_555
C33_2 C18_2 1_555 1_555
H18_2 C32_2 1_555 1_555
H19_2 C33_2 1_555 1_555
C35_2 C26_2 1_555 1_555
C36_2 C27_2 1_555 1_555
C38_2 C35_2 1_555 1_555
C39_2 C36_2 1_555 1_555
H21_2 C38_2 1_555 1_555
H22_2 C39_2 1_555 1_555
C41_2 C38_2 1_555 1_555
C42_2 C39_2 1_555 1_555
C44_2 C41_2 1_555 1_555
C45_2 C42_2 1_555 1_555
H25_2 C45_2 1_555 1_555
C47_2 C44_2 1_555 1_555
C48_2 C45_2 1_555 1_555
C50_2 C35_2 1_555 1_555
C51_2 C36_2 1_555 1_555
H27_2 C50_2 1_555 1_555
H28_2 C51_2 1_555 1_555
C54_2 O19_2 1_555 1_555
C56_2 O7_2 1_555 1_555
C57_2 O8_2 1_555 1_555
C29_2 C32_2 1_555 1_555
C30_2 C33_2 1_555 1_555
C41_2 C53_2 1_555 1_555
C42_2 C54_2 1_555 1_555
C47_2 C50_2 1_555 1_555
C47_2 C56_2 1_555 1_555
C48_2 C51_2 1_555 1_555
C48_2 C57_2 1_555 1_555
O5_4 Cu9 1_555 1_555
O15_4 Cu9 1_555 1_555
O20_4 Cu9 1_555 1_555
C1_5 C2_3 1_555 1_555
O10 C15_3 1_555 1_555
C2_3 C3_3 1_555 1_555
C3_3 H1_3 1_555 1_555
C4_3 C3_3 1_555 1_555
H2_3 C4_3 1_555 1_555
O27 C14_3 1_555 1_555
C5_3 C4_3 1_555 1_555
C6_3 C5_3 1_555 1_555
H3_3 C6_3 1_555 1_555
C7_3 C2_3 1_555 1_555
H4_3 C7_3 1_555 1_555
C8_3 C5_3 1_555 1_555
C9_3 C8_3 1_555 1_555
H5_3 C9_3 1_555 1_555
C10_3 C9_3 1_555 1_555
C11_3 C10_3 1_555 1_555
C12_3 C11_3 1_555 1_555
C13_3 C8_3 1_555 1_555
H7_3 C13_3 1_555 1_555
C14_3 C10_3 1_555 1_555
C15_3 C12_3 1_555 1_555
Cu13 O25_3 1_555 1_555
Cu12 O14_3 1_555 1_555
O7_3 Cu14 1_555 1_555
O14_3 C57_3 1_555 1_555
C16_3 C1_5 1_555 1_555
C17_3 C1_5 1_555 1_555
C18_3 C1_5 1_555 1_555
C19_3 C16_3 1_555 1_555
C20_3 C17_3 1_555 1_555
C21_3 C18_3 1_555 1_555
H8_3 C19_3 1_555 1_555
H9_3 C20_3 1_555 1_555
H10_3 C21_3 1_555 1_555
O19_3 Cu3 1_555 1_555
C22_3 C19_3 1_555 1_555
C23_3 C20_3 1_555 1_555
C24_3 C21_3 1_555 1_555
H11_3 C22_3 1_555 1_555
H12_3 C23_3 1_555 1_555
H13_3 C24_3 1_555 1_555
O29 C52_3 1_555 1_555
O24_3 C53_3 1_555 1_555
O25_3 C54_3 1_555 1_555
C25_3 C22_3 1_555 1_555
C26_3 C23_3 1_555 1_555
C27_3 C24_3 1_555 1_555
C28_3 C25_3 1_555 1_555
C29_3 C26_3 1_555 1_555
C30_3 C27_3 1_555 1_555
H14_3 C28_3 1_555 1_555
H15_3 C29_3 1_555 1_555
H16_3 C30_3 1_555 1_555
C31_3 C16_3 1_555 1_555
C32_3 C17_3 1_555 1_555
C33_3 C18_3 1_555 1_555
H17_3 C31_3 1_555 1_555
H18_3 C32_3 1_555 1_555
H19_3 C33_3 1_555 1_555
C34_3 C25_3 1_555 1_555
C35_3 C26_3 1_555 1_555
C36_3 C27_3 1_555 1_555
C37_3 C34_3 1_555 1_555
C38_3 C35_3 1_555 1_555
C39_3 C36_3 1_555 1_555
H20_3 C37_3 1_555 1_555
H21_3 C38_3 1_555 1_555
H22_3 C39_3 1_555 1_555
C40_3 C37_3 1_555 1_555
C41_3 C38_3 1_555 1_555
C42_3 C39_3 1_555 1_555
C43_3 C40_3 1_555 1_555
C44_3 C41_3 1_555 1_555
C45_3 C42_3 1_555 1_555
H23_3 C43_3 1_555 1_555
H25_3 C45_3 1_555 1_555
C46_3 C43_3 1_555 1_555
C47_3 C44_3 1_555 1_555
C48_3 C45_3 1_555 1_555
C49_3 C34_3 1_555 1_555
C50_3 C35_3 1_555 1_555
C51_3 C36_3 1_555 1_555
H26_3 C49_3 1_555 1_555
H27_3 C50_3 1_555 1_555
H28_3 C51_3 1_555 1_555
C52_3 O20_2 1_555 1_555
C54_3 O19_3 1_555 1_555
C55_3 O10_2 1_555 1_555
C56_3 O7_3 1_555 1_555
C57_3 O8_3 1_555 1_555
C6_3 C7_3 1_555 1_555
C12_3 C13_3 1_555 1_555
O15_4 C55_3 1_555 1_555
C28_3 C31_3 1_555 1_555
C29_3 C32_3 1_555 1_555
C30_3 C33_3 1_555 1_555
C40_3 C52_3 1_555 1_555
C41_3 C53_3 1_555 1_555
C42_3 C54_3 1_555 1_555
C46_3 C49_3 1_555 1_555
C46_3 C55_3 1_555 1_555
C47_3 C50_3 1_555 1_555
C47_3 C56_3 1_555 1_555
C48_3 C51_3 1_555 1_555
C48_3 C57_3 1_555 1_555
Cu15 O13_3 1_555 1_555
O18_3 Cu4 1_555 1_555
C1_6 C2_4 1_555 1_555
O9 C15_4 1_555 1_555
O15 C15_4 1_555 1_555
C2_4 C3_4 1_555 1_555
C3_4 H1_4 1_555 1_555
O20_4 C14_4 1_555 1_555
C4_4 C3_4 1_555 1_555
H2_4 C4_4 1_555 1_555
O28_2 C14_4 1_555 1_555
C5_4 C4_4 1_555 1_555
C6_4 C5_4 1_555 1_555
H3_4 C6_4 1_555 1_555
C7_4 C2_4 1_555 1_555
H4_4 C7_4 1_555 1_555
C8_4 C5_4 1_555 1_555
C9_4 C8_4 1_555 1_555
H5_4 C9_4 1_555 1_555
C10_4 C9_4 1_555 1_555
C11_4 C10_4 1_555 1_555
H6_4 C11_4 1_555 1_555
C12_4 C11_4 1_555 1_555
C13_4 C8_4 1_555 1_555
H7_4 C13_4 1_555 1_555
C14_4 C10_4 1_555 1_555
C15_4 C12_4 1_555 1_555
Cu11 O24_4 1_555 1_555
Cu3 O14_4 1_555 1_555
O8_4 Cu13 1_555 1_555
O14_4 C57_4 1_555 1_555
C16_4 C1_6 1_555 1_555
C17_4 C1_6 1_555 1_555
C18_4 C1_6 1_555 1_555
C19_4 C16_4 1_555 1_555
C20_4 C17_4 1_555 1_555
C21_4 C18_4 1_555 1_555
H8_4 C19_4 1_555 1_555
H9_4 C20_4 1_555 1_555
H10_4 C21_4 1_555 1_555
O19_4 Cu15 1_555 1_555
C22_4 C19_4 1_555 1_555
C23_4 C20_4 1_555 1_555
C24_4 C21_4 1_555 1_555
H11_4 C22_4 1_555 1_555
H12_4 C23_4 1_555 1_555
H13_4 C24_4 1_555 1_555
O28 C52_4 1_555 1_555
O24_4 C53_4 1_555 1_555
O25_4 C54_4 1_555 1_555
C25_4 C22_4 1_555 1_555
C26_4 C23_4 1_555 1_555
C27_4 C24_4 1_555 1_555
C28_4 C25_4 1_555 1_555
C29_4 C26_4 1_555 1_555
C30_4 C27_4 1_555 1_555
H14_4 C28_4 1_555 1_555
H15_4 C29_4 1_555 1_555
H16_4 C30_4 1_555 1_555
C31_4 C16_4 1_555 1_555
C32_4 C17_4 1_555 1_555
C33_4 C18_4 1_555 1_555
H17_4 C31_4 1_555 1_555
H18_4 C32_4 1_555 1_555
H19_4 C33_4 1_555 1_555
C34_4 C25_4 1_555 1_555
C35_4 C26_4 1_555 1_555
C36_4 C27_4 1_555 1_555
C37_4 C34_4 1_555 1_555
C38_4 C35_4 1_555 1_555
C39_4 C36_4 1_555 1_555
H20_4 C37_4 1_555 1_555
H21_4 C38_4 1_555 1_555
H22_4 C39_4 1_555 1_555
C40_4 C37_4 1_555 1_555
C41_4 C38_4 1_555 1_555
C42_4 C39_4 1_555 1_555
C43_4 C40_4 1_555 1_555
C44_4 C41_4 1_555 1_555
C45_4 C42_4 1_555 1_555
H25_4 C45_4 1_555 1_555
C46_4 C43_4 1_555 1_555
C47_4 C44_4 1_555 1_555
C48_4 C45_4 1_555 1_555
C49_4 C34_4 1_555 1_555
C50_4 C35_4 1_555 1_555
C51_4 C36_4 1_555 1_555
H26_4 C49_4 1_555 1_555
H27_4 C50_4 1_555 1_555
H28_4 C51_4 1_555 1_555
C54_4 O19_4 1_555 1_555
C55_4 O11 1_555 1_555
C56_4 O7_4 1_555 1_555
C57_4 O8_4 1_555 1_555
C6_4 C7_4 1_555 1_555
C12_4 C13_4 1_555 1_555
C28_4 C31_4 1_555 1_555
C29_4 C32_4 1_555 1_555
C30_4 C33_4 1_555 1_555
C40_4 C52_4 1_555 1_555
C41_4 C53_4 1_555 1_555
C42_4 C54_4 1_555 1_555
C46_4 C49_4 1_555 1_555
C46_4 C55_4 1_555 1_555
C47_4 C50_4 1_555 1_555
C47_4 C56_4 1_555 1_555
C48_4 C51_4 1_555 1_555
C48_4 C57_4 1_555 1_555
Cu4 O13_4 1_555 1_555
O18_4 Cu12 1_555 1_555
O30_2 Cu11 1_555 1_555
O31_3 Cu16 1_555 1_555
O5_5 Cu12 1_555 1_555
O32_2 Cu14 1_555 1_555
O31_4 Cu13 1_555 1_555
O5_6 Cu15 1_555 1_555
O5_7 Cu4 1_555 1_555
O5_8 Cu3 1_555 1_555

#END
