
###############################################################################
#
# This file contains modified crystal structure data generated from the
# MOF subset of the Cambridge Structural Database (CSD) v543 
# hosted by the Cambridge Crystallographic Data Centre (CCDC).
#
# This work is licensed under the Creative Commons
# Attribution-NonCommercial-ShareAlike 4.0 International License.
# To view a copy of this license, visit
# http://creativecommons.org/licenses/by-nc-sa/4.0/
# or send a letter to
# Creative Commons, PO Box 1866, Mountain View, CA 94042, USA.
#
# CIF created using the CSD Python API on 29 September 2022
# The structure has been converted into the P1 space group
# The structure has a 3D framework
# The original CSD entry EPOTAF is in the monoclinic crystal system
# The framework has been calculated to contain at least 10.0% void space
# The void calculation uses a probe of radius 1.32A, grid spacing 0.4
# H atom positions have been added when not included in the experimental data
# Generated hydrogen atom positions removed from atoms on special positions
#
###############################################################################

data_EPOTAF
_chemical_formula_moiety         '(C134 H128 Cu8 O54)n'
_symmetry_cell_setting           triclinic
_symmetry_space_group_name_H-M   'P 1'
_symmetry_Int_Tables_number      1
_space_group_name_Hall           'P 1'
loop_
_symmetry_equiv_pos_site_id
_symmetry_equiv_pos_as_xyz
1 x,y,z
_cell_length_a                   10.7765(9)
_cell_length_b                   28.1439(13)
_cell_length_c                   28.487(2)
_cell_angle_alpha                90
_cell_angle_beta                 98.706(2)
_cell_angle_gamma                90
_cell_volume                     8540.35
loop_
_atom_site_label
_atom_site_type_symbol
_atom_site_fract_x
_atom_site_fract_y
_atom_site_fract_z
Cu8 Cu 0.39678(6) 0.018942(17) 0.51088(2)
C1 C -0.00000 0.7722(2) 0.25000
C7 C 0.0438(5) 0.74110(16) 0.21088(19)
H4 H 0.0641 0.7608 0.1851
H5 H 0.1175 0.7228 0.2237
C8 C 0.0648(6) 0.64021(18) 0.1032(2)
H6 H 0.1318 0.639 0.0861
O4 O 0.0723(4) 0.56759(12) 0.03640(14)
C16 C 0.0638(7) 0.67612(18) 0.1367(2)
H12 H 0.1293 0.6978 0.1432
C18 C 0.3548(6) 0.8898(2) 0.3697(2)
H13 H 0.4416 0.8876 0.3718
C19 C 0.3063(6) 0.91949(19) 0.3983(2)
C20 C 0.1785(9) 0.9229(2) 0.3938(2)
H14 H 0.1441 0.9444 0.413
C21 C 0.0902(7) 0.8934(3) 0.3589(3)
H15 H 0.0032 0.8962 0.3552
C22 C 0.3812(7) 0.95041(19) 0.43439(19)
O8 O 0.3202(4) 0.97782(12) 0.45754(14)
O10 O 0.1798(4) 0.52218(12) 0.54246(14)
O11 O 0.4959(4) 0.94600(11) 0.43878(12)
O12 O 0.0041(4) 0.44600(11) 0.06122(12)
O14 O 0.1034(4) 0.53499(13) 0.44513(13)
O17 O 0.0723(4) 0.43241(12) 0.53640(14)
O18 O 0.2916(4) 0.45045(13) 0.48383(18)
C25 C 0.1146(5) 0.80224(19) 0.27241(19)
H19 H 0.178 0.7822 0.2904
H20 H 0.1516 0.8187 0.248
C26 C 0.1524(7) 0.86158(19) 0.3328(2)
C27 C 0.2760(7) 0.86056(19) 0.3351(2)
H21 H 0.3124 0.8411 0.3145
C28 C 0.0392(7) 0.67775(18) 0.3403(2)
C29 C 0.1364(7) 0.6442(2) 0.3465(2)
H22 H 0.2031 0.6455 0.3293
C30 C 0.1266(7) 0.6074(2) 0.3813(2)
H23 H 0.1888 0.5842 0.3864
C31 C 0.0303(6) 0.60567(17) 0.4064(2)
C33 C 0.0168(6) 0.56647(19) 0.4405(2)
Cu2 Cu 0.10322(6) 0.481058(17) 0.48912(2)
Cu4 Cu 0.60322(6) 0.981058(17) 0.48912(2)
O19 O 0.0658(4) 0.83557(13) 0.30302(15)
O20 O 0.0592(4) 0.71014(12) 0.30562(13)
Cu5 Cu 0.10322(6) 0.518942(17) 0.98912(2)
Cu7 Cu 0.60322(6) 0.018942(17) 0.98912(2)
C1_2 C 1.00000 0.7722(2) 0.25000
C2 C 0.6452(6) 0.8898(2) 0.1303(2)
H1 H 0.5584 0.8876 0.1282
C3 C 0.6937(6) 0.91949(19) 0.1017(2)
C4 C 0.8215(9) 0.9229(2) 0.1062(2)
H2 H 0.8559 0.9444 0.087
C5 C 0.9098(7) 0.8934(3) 0.1411(3)
H3 H 0.9968 0.8962 0.1448
C6 C 0.6188(7) 0.95041(19) 0.06561(19)
O1 O 0.6798(4) 0.97782(12) 0.04246(14)
O2 O 0.5041(4) 0.94600(11) 0.06122(12)
O3 O 0.8966(4) 0.53499(13) 0.05487(13)
O5 O 0.7084(4) 0.45045(13) 0.01617(18)
C9 C 0.8854(5) 0.80224(19) 0.22759(19)
H7 H 0.822 0.7822 0.2096
H8 H 0.8484 0.8187 0.252
C10 C 0.8476(7) 0.86158(19) 0.1672(2)
C11 C 0.7240(7) 0.86056(19) 0.1649(2)
H9 H 0.6876 0.8411 0.1855
C12 C 0.9608(7) 0.67775(18) 0.1597(2)
C13 C 0.8636(7) 0.6442(2) 0.1535(2)
H10 H 0.7969 0.6455 0.1707
C14 C 0.8734(7) 0.6074(2) 0.1187(2)
H11 H 0.8112 0.5842 0.1136
C15 C 0.9697(6) 0.60567(17) 0.0936(2)
C17 C 0.9832(6) 0.56647(19) 0.0595(2)
Cu1 Cu 0.89678(6) 0.481058(17) 0.01088(2)
O6 O 0.9342(4) 0.83557(13) 0.19698(15)
O7 O 0.9408(4) 0.71014(12) 0.19438(13)
C23 C 0.9562(5) 0.74110(16) 0.28912(19)
H16 H 0.9359 0.7608 0.3149
H17 H 0.8825 0.7228 0.2763
C24 C 0.9352(6) 0.64021(18) 0.3968(2)
H18 H 0.8682 0.639 0.4139
O13 O 0.9959(4) 0.44600(11) 0.43878(12)
O15 O 0.9277(4) 0.56759(12) 0.46360(14)
C32 C 0.9362(7) 0.67612(18) 0.3633(2)
H24 H 0.8707 0.6978 0.3568
Cu3 Cu 0.39678(6) 0.981058(17) 0.01088(2)
Cu6 Cu 0.89678(6) 0.518942(17) 0.51088(2)
H25 H 0.642564 0.474557 0.00593803
O9 O 0.8202(4) 0.52218(12) 0.95754(14)
O16 O 0.9277(4) 0.43241(12) 0.96360(14)
H26 H 0.693857 0.422062 0.995365
H28 H 0.716506 0.426534 0.0420825
H27 H 0.673951 0.43499 0.985635
C1_3 C 0.50000 0.2722(2) 0.25000
C2_2 C 0.1452(6) 0.3898(2) 0.1303(2)
H1_2 H 0.0584 0.3876 0.1282
C3_2 C 0.1937(6) 0.41949(19) 0.1017(2)
C4_2 C 0.3215(9) 0.4229(2) 0.1062(2)
H2_2 H 0.3559 0.4444 0.087
C5_2 C 0.4098(7) 0.3934(3) 0.1411(3)
H3_2 H 0.4968 0.3962 0.1448
C6_2 C 0.1188(7) 0.45041(19) 0.06561(19)
C7_2 C 0.5438(5) 0.24110(16) 0.21088(19)
H4_2 H 0.5641 0.2608 0.1851
H5_2 H 0.6175 0.2228 0.2237
C8_2 C 0.5648(6) 0.14021(18) 0.1032(2)
H6_2 H 0.6318 0.139 0.0861
O1_2 O 0.1798(4) 0.47782(12) 0.04246(14)
O3_2 O 0.3966(4) 0.03499(13) 0.05487(13)
O4_2 O 0.5723(4) 0.06759(12) 0.03640(14)
C9_2 C 0.3854(5) 0.30224(19) 0.22759(19)
H7_2 H 0.322 0.2822 0.2096
H8_2 H 0.3484 0.3187 0.252
C10_2 C 0.3476(7) 0.36158(19) 0.1672(2)
C11_2 C 0.2240(7) 0.36056(19) 0.1649(2)
H9_2 H 0.1876 0.3411 0.1855
C12_2 C 0.4608(7) 0.17775(18) 0.1597(2)
C13_2 C 0.3636(7) 0.1442(2) 0.1535(2)
H10_2 H 0.2969 0.1455 0.1707
C14_2 C 0.3734(7) 0.1074(2) 0.1187(2)
H11_2 H 0.3112 0.0842 0.1136
C15_2 C 0.4697(6) 0.10567(17) 0.0936(2)
C16_2 C 0.5638(7) 0.17612(18) 0.1367(2)
H12_2 H 0.6293 0.1978 0.1432
C17_2 C 0.4832(6) 0.06647(19) 0.0595(2)
O6_2 O 0.4342(4) 0.33557(13) 0.19698(15)
O7_2 O 0.4408(4) 0.21014(12) 0.19438(13)
C18_2 C 0.8548(6) 0.3898(2) 0.3697(2)
H13_2 H 0.9416 0.3876 0.3718
C19_2 C 0.8063(6) 0.41949(19) 0.3983(2)
C20_2 C 0.6785(9) 0.4229(2) 0.3938(2)
H14_2 H 0.6441 0.4444 0.413
C21_2 C 0.5902(7) 0.3934(3) 0.3589(3)
H15_2 H 0.5032 0.3962 0.3552
C22_2 C 0.8812(7) 0.45041(19) 0.43439(19)
C23_2 C 0.4562(5) 0.24110(16) 0.28912(19)
H16_2 H 0.4359 0.2608 0.3149
H17_2 H 0.3825 0.2228 0.2763
C24_2 C 0.4352(6) 0.14021(18) 0.3968(2)
H18_2 H 0.3682 0.139 0.4139
O8_2 O 0.8202(4) 0.47782(12) 0.45754(14)
O10_2 O 0.6798(4) 0.02218(12) 0.54246(14)
O14_2 O 0.6034(4) 0.03499(13) 0.44513(13)
O15_2 O 0.4277(4) 0.06759(12) 0.46360(14)
C25_2 C 0.6146(5) 0.30224(19) 0.27241(19)
H19_2 H 0.678 0.2822 0.2904
H20_2 H 0.6516 0.3187 0.248
C26_2 C 0.6524(7) 0.36158(19) 0.3328(2)
C27_2 C 0.7760(7) 0.36056(19) 0.3351(2)
H21_2 H 0.8124 0.3411 0.3145
C28_2 C 0.5392(7) 0.17775(18) 0.3403(2)
C29_2 C 0.6364(7) 0.1442(2) 0.3465(2)
H22_2 H 0.7031 0.1455 0.3293
C30_2 C 0.6266(7) 0.1074(2) 0.3813(2)
H23_2 H 0.6888 0.0842 0.3864
C31_2 C 0.5303(6) 0.10567(17) 0.4064(2)
C32_2 C 0.4362(7) 0.17612(18) 0.3633(2)
H24_2 H 0.3707 0.1978 0.3568
C33_2 C 0.5168(6) 0.06647(19) 0.4405(2)
O19_2 O 0.5658(4) 0.33557(13) 0.30302(15)
O20_2 O 0.5592(4) 0.21014(12) 0.30562(13)
O9_2 O 0.3202(4) 0.02218(12) 0.95754(14)
O5_2 O 0.2084(4) 0.95045(13) 0.01617(18)
O17_2 O 0.5723(4) 0.93241(12) 0.53640(14)
O18_2 O 0.7916(4) 0.95045(13) 0.48383(18)
H25_2 H 0.142564 0.974557 0.00593803
O16_2 O 0.4277(4) 0.93241(12) 0.96360(14)
H26_2 H 0.193857 0.922062 0.995365
H28_2 H 0.216506 0.926534 0.0420825
H27_2 H 0.173951 0.93499 0.985635
H26_3 H 0.306143 0.577938 0.00463536
C1_4 C -0.00000 0.2278(2) 0.75000
C2_3 C 0.3548(6) 0.1102(2) 0.8697(2)
H1_3 H 0.4416 0.1124 0.8718
C3_3 C 0.3063(6) 0.08051(19) 0.8983(2)
C4_3 C 0.1785(9) 0.0771(2) 0.8938(2)
H2_3 H 0.1441 0.0556 0.913
C5_3 C 0.0902(7) 0.1066(3) 0.8589(3)
H3_3 H 0.0032 0.1038 0.8552
C6_3 C 0.3812(7) 0.04959(19) 0.93439(19)
O2_2 O 0.4959(4) 0.05400(11) 0.93878(12)
O3_3 O 0.1034(4) 0.46501(13) 0.94513(13)
O5_3 O 0.2916(4) 0.54955(13) 0.98383(18)
C9_3 C 0.1146(5) 0.19776(19) 0.77241(19)
H7_3 H 0.178 0.2178 0.7904
H8_3 H 0.1516 0.1813 0.748
C10_3 C 0.1524(7) 0.13842(19) 0.8328(2)
C11_3 C 0.2760(7) 0.13944(19) 0.8351(2)
H9_3 H 0.3124 0.1589 0.8145
C12_3 C 0.0392(7) 0.32225(18) 0.8403(2)
C13_3 C 0.1364(7) 0.3558(2) 0.8465(2)
H10_3 H 0.2031 0.3545 0.8293
C14_3 C 0.1266(7) 0.3926(2) 0.8813(2)
H11_3 H 0.1888 0.4158 0.8864
C15_3 C 0.0303(6) 0.39433(17) 0.9064(2)
C17_3 C 0.0168(6) 0.43353(19) 0.9405(2)
O6_3 O 0.0658(4) 0.16443(13) 0.80302(15)
O7_3 O 0.0592(4) 0.28986(12) 0.80562(13)
C23_3 C 0.0438(5) 0.25890(16) 0.71088(19)
H16_3 H 0.0641 0.2392 0.6851
H17_3 H 0.1175 0.2772 0.7237
C24_3 C 0.0648(6) 0.35979(18) 0.6032(2)
H18_3 H 0.1318 0.361 0.5861
O13_2 O 0.0041(4) 0.55400(11) 0.56122(12)
C32_3 C 0.0638(7) 0.32388(18) 0.6367(2)
H24_3 H 0.1293 0.3022 0.6432
H25_3 H 0.357436 0.525443 0.994062
C1_5 C 1.00000 0.2278(2) 0.75000
C7_3 C 0.9562(5) 0.25890(16) 0.78912(19)
H4_3 H 0.9359 0.2392 0.8149
H5_3 H 0.8825 0.2772 0.7763
C8_3 C 0.9352(6) 0.35979(18) 0.8968(2)
H6_3 H 0.8682 0.361 0.9139
C16_3 C 0.9362(7) 0.32388(18) 0.8633(2)
H12_3 H 0.8707 0.3022 0.8568
C18_3 C 0.6452(6) 0.1102(2) 0.6303(2)
H13_3 H 0.5584 0.1124 0.6282
C19_3 C 0.6937(6) 0.08051(19) 0.6017(2)
C20_3 C 0.8215(9) 0.0771(2) 0.6062(2)
H14_3 H 0.8559 0.0556 0.587
C21_3 C 0.9098(7) 0.1066(3) 0.6411(3)
H15_3 H 0.9968 0.1038 0.6448
C22_3 C 0.6188(7) 0.04959(19) 0.56561(19)
O11_2 O 0.5041(4) 0.05400(11) 0.56122(12)
O12_2 O 0.9959(4) 0.55400(11) 0.93878(12)
O14_3 O 0.8966(4) 0.46501(13) 0.55487(13)
O18_3 O 0.7084(4) 0.54955(13) 0.51617(18)
C25_3 C 0.8854(5) 0.19776(19) 0.72759(19)
H19_3 H 0.822 0.2178 0.7096
H20_3 H 0.8484 0.1813 0.752
C26_3 C 0.8476(7) 0.13842(19) 0.6672(2)
C27_3 C 0.7240(7) 0.13944(19) 0.6649(2)
H21_3 H 0.6876 0.1589 0.6855
C28_3 C 0.9608(7) 0.32225(18) 0.6597(2)
C29_3 C 0.8636(7) 0.3558(2) 0.6535(2)
H22_3 H 0.7969 0.3545 0.6707
C30_3 C 0.8734(7) 0.3926(2) 0.6187(2)
H23_3 H 0.8112 0.4158 0.6136
C31_3 C 0.9697(6) 0.39433(17) 0.5936(2)
C33_3 C 0.9832(6) 0.43353(19) 0.5595(2)
O19_3 O 0.9342(4) 0.16443(13) 0.69698(15)
O20_3 O 0.9408(4) 0.28986(12) 0.69438(13)
H27_3 H 0.326049 0.56501 0.0143655
H28_3 H 0.283494 0.573466 0.957918
H26_4 H 0.806143 0.0779383 0.00463536
O5_4 O 0.7916(4) 0.04955(13) 0.98383(18)
O18_4 O 0.2084(4) 0.04955(13) 0.51617(18)
H25_4 H 0.857436 0.0254428 0.994062
C1_6 C 0.50000 0.7278(2) 0.75000
C2_4 C 0.8548(6) 0.6102(2) 0.8697(2)
H1_4 H 0.9416 0.6124 0.8718
C3_4 C 0.8063(6) 0.58051(19) 0.8983(2)
C4_4 C 0.6785(9) 0.5771(2) 0.8938(2)
H2_4 H 0.6441 0.5556 0.913
C5_4 C 0.5902(7) 0.6066(3) 0.8589(3)
H3_4 H 0.5032 0.6038 0.8552
C6_4 C 0.8812(7) 0.54959(19) 0.93439(19)
C7_4 C 0.4562(5) 0.75890(16) 0.78912(19)
H4_4 H 0.4359 0.7392 0.8149
H5_4 H 0.3825 0.7772 0.7763
C8_4 C 0.4352(6) 0.85979(18) 0.8968(2)
H6_4 H 0.3682 0.861 0.9139
O3_4 O 0.6034(4) 0.96501(13) 0.94513(13)
C9_4 C 0.6146(5) 0.69776(19) 0.77241(19)
H7_4 H 0.678 0.7178 0.7904
H8_4 H 0.6516 0.6813 0.748
C10_4 C 0.6524(7) 0.63842(19) 0.8328(2)
C11_4 C 0.7760(7) 0.63944(19) 0.8351(2)
H9_4 H 0.8124 0.6589 0.8145
C12_4 C 0.5392(7) 0.82225(18) 0.8403(2)
C13_4 C 0.6364(7) 0.8558(2) 0.8465(2)
H10_4 H 0.7031 0.8545 0.8293
C14_4 C 0.6266(7) 0.8926(2) 0.8813(2)
H11_4 H 0.6888 0.9158 0.8864
C15_4 C 0.5303(6) 0.89433(17) 0.9064(2)
C16_4 C 0.4362(7) 0.82388(18) 0.8633(2)
H12_4 H 0.3707 0.8022 0.8568
C17_4 C 0.5168(6) 0.93353(19) 0.9405(2)
O6_4 O 0.5658(4) 0.66443(13) 0.80302(15)
O7_4 O 0.5592(4) 0.78986(12) 0.80562(13)
C18_4 C 0.1452(6) 0.6102(2) 0.6303(2)
H13_4 H 0.0584 0.6124 0.6282
C19_4 C 0.1937(6) 0.58051(19) 0.6017(2)
C20_4 C 0.3215(9) 0.5771(2) 0.6062(2)
H14_4 H 0.3559 0.5556 0.587
C21_4 C 0.4098(7) 0.6066(3) 0.6411(3)
H15_4 H 0.4968 0.6038 0.6448
C22_4 C 0.1188(7) 0.54959(19) 0.56561(19)
C23_4 C 0.5438(5) 0.75890(16) 0.71088(19)
H16_4 H 0.5641 0.7392 0.6851
H17_4 H 0.6175 0.7772 0.7237
C24_4 C 0.5648(6) 0.85979(18) 0.6032(2)
H18_4 H 0.6318 0.861 0.5861
O14_4 O 0.3966(4) 0.96501(13) 0.55487(13)
C25_4 C 0.3854(5) 0.69776(19) 0.72759(19)
H19_4 H 0.322 0.7178 0.7096
H20_4 H 0.3484 0.6813 0.752
C26_4 C 0.3476(7) 0.63842(19) 0.6672(2)
C27_4 C 0.2240(7) 0.63944(19) 0.6649(2)
H21_4 H 0.1876 0.6589 0.6855
C28_4 C 0.4608(7) 0.82225(18) 0.6597(2)
C29_4 C 0.3636(7) 0.8558(2) 0.6535(2)
H22_4 H 0.2969 0.8545 0.6707
C30_4 C 0.3734(7) 0.8926(2) 0.6187(2)
H23_4 H 0.3112 0.9158 0.6136
C31_4 C 0.4697(6) 0.89433(17) 0.5936(2)
C32_4 C 0.5638(7) 0.82388(18) 0.6367(2)
H24_4 H 0.6293 0.8022 0.6432
C33_4 C 0.4832(6) 0.93353(19) 0.5595(2)
O19_4 O 0.4342(4) 0.66443(13) 0.69698(15)
O20_4 O 0.4408(4) 0.78986(12) 0.69438(13)
H27_4 H 0.826049 0.0650105 0.0143655
H28_4 H 0.783494 0.0734659 0.957918
loop_
_geom_bond_atom_site_label_1
_geom_bond_atom_site_label_2
_geom_bond_site_symmetry_1
_geom_bond_site_symmetry_2
C1 C7 1_555 1_555
C7 H4 1_555 1_555
H5 C7 1_555 1_555
C8 H6 1_555 1_555
C16 C8 1_555 1_555
H12 C16 1_555 1_555
C18 H13 1_555 1_555
C19 C18 1_555 1_555
C20 C19 1_555 1_555
H14 C20 1_555 1_555
C21 C20 1_555 1_555
H15 C21 1_555 1_555
C22 C19 1_555 1_555
O8 C22 1_555 1_555
O10 Cu2 1_555 1_555
O11 C22 1_555 1_555
O14 C33 1_555 1_555
O17 Cu2 1_555 1_555
O18 Cu2 1_555 1_555
C25 C1 1_555 1_555
H19 C25 1_555 1_555
H20 C25 1_555 1_555
C26 C21 1_555 1_555
C27 C18 1_555 1_555
H21 C27 1_555 1_555
C28 C29 1_555 1_555
C29 H22 1_555 1_555
C30 C29 1_555 1_555
H23 C30 1_555 1_555
C33 C31 1_555 1_555
Cu2 O14 1_555 1_555
Cu4 O11 1_555 1_555
O19 C25 1_555 1_555
C26 C27 1_555 1_555
C26 O19 1_555 1_555
C28 O20 1_555 1_555
C30 C31 1_555 1_555
C2 H1 1_555 1_555
C3 C2 1_555 1_555
C4 C3 1_555 1_555
H2 C4 1_555 1_555
C5 C4 1_555 1_555
H3 C5 1_555 1_555
C6 C3 1_555 1_555
O1 C6 1_555 1_555
O2 C6 1_555 1_555
O3 C17 1_555 1_555
O5 Cu1 1_555 1_555
C9 C1_2 1_555 1_555
H7 C9 1_555 1_555
H8 C9 1_555 1_555
C10 C5 1_555 1_555
C11 C2 1_555 1_555
H9 C11 1_555 1_555
C12 C13 1_555 1_555
C13 H10 1_555 1_555
C14 C13 1_555 1_555
H11 C14 1_555 1_555
C17 C15 1_555 1_555
Cu1 O3 1_555 1_555
O6 C9 1_555 1_555
C23 C1_2 1_555 1_555
H16 C23 1_555 1_555
H17 C23 1_555 1_555
C24 H18 1_555 1_555
C32 C24 1_555 1_555
H24 C32 1_555 1_555
Cu3 O2 1_555 1_555
Cu6 O15 1_555 1_555
C10 C11 1_555 1_555
C10 O6 1_555 1_555
C12 O7 1_555 1_555
C14 C15 1_555 1_555
O5 H25 1_555 1_555
O5 H28 1_555 1_555
C1_3 C7_2 1_555 1_555
C2_2 H1_2 1_555 1_555
C3_2 C2_2 1_555 1_555
C4_2 C3_2 1_555 1_555
H2_2 C4_2 1_555 1_555
C5_2 C4_2 1_555 1_555
H3_2 C5_2 1_555 1_555
C6_2 C3_2 1_555 1_555
C7_2 H4_2 1_555 1_555
H5_2 C7_2 1_555 1_555
C8_2 H6_2 1_555 1_555
O1_2 C6_2 1_555 1_555
O12 C6_2 1_555 1_555
O3_2 C17_2 1_555 1_555
O4_2 C17_2 1_555 1_555
C9_2 C1_3 1_555 1_555
H7_2 C9_2 1_555 1_555
H8_2 C9_2 1_555 1_555
C10_2 C5_2 1_555 1_555
C11_2 C2_2 1_555 1_555
H9_2 C11_2 1_555 1_555
C12_2 C13_2 1_555 1_555
C13_2 H10_2 1_555 1_555
C14_2 C13_2 1_555 1_555
H11_2 C14_2 1_555 1_555
C15_2 C8_2 1_555 1_555
C16_2 C8_2 1_555 1_555
H12_2 C16_2 1_555 1_555
C17_2 C15_2 1_555 1_555
O6_2 C9_2 1_555 1_555
O7_2 C7_2 1_555 1_555
C18_2 H13_2 1_555 1_555
C19_2 C18_2 1_555 1_555
C20_2 C19_2 1_555 1_555
H14_2 C20_2 1_555 1_555
C21_2 C20_2 1_555 1_555
H15_2 C21_2 1_555 1_555
C22_2 C19_2 1_555 1_555
C23_2 C1_3 1_555 1_555
H16_2 C23_2 1_555 1_555
H17_2 C23_2 1_555 1_555
C24_2 H18_2 1_555 1_555
O8_2 C22_2 1_555 1_555
O13 C22_2 1_555 1_555
O14_2 C33_2 1_555 1_555
O15_2 C33_2 1_555 1_555
C25_2 C1_3 1_555 1_555
H19_2 C25_2 1_555 1_555
H20_2 C25_2 1_555 1_555
C26_2 C21_2 1_555 1_555
C27_2 C18_2 1_555 1_555
H21_2 C27_2 1_555 1_555
C28_2 C29_2 1_555 1_555
C29_2 H22_2 1_555 1_555
C30_2 C29_2 1_555 1_555
H23_2 C30_2 1_555 1_555
C31_2 C24_2 1_555 1_555
C32_2 C24_2 1_555 1_555
H24_2 C32_2 1_555 1_555
C33_2 C31_2 1_555 1_555
Cu8 O15_2 1_555 1_555
Cu6 O8_2 1_555 1_555
O19_2 C25_2 1_555 1_555
O20_2 C23_2 1_555 1_555
C10_2 C11_2 1_555 1_555
C10_2 O6_2 1_555 1_555
C12_2 C16_2 1_555 1_555
C12_2 O7_2 1_555 1_555
C14_2 C15_2 1_555 1_555
C26_2 C27_2 1_555 1_555
C26_2 O19_2 1_555 1_555
C28_2 C32_2 1_555 1_555
C28_2 O20_2 1_555 1_555
C30_2 C31_2 1_555 1_555
O5_2 Cu3 1_555 1_555
O17_2 Cu4 1_555 1_555
O18_2 Cu4 1_555 1_555
O5_2 H25_2 1_555 1_555
O5_2 H28_2 1_555 1_555
C2_3 H1_3 1_555 1_555
C3_3 C2_3 1_555 1_555
C4_3 C3_3 1_555 1_555
H2_3 C4_3 1_555 1_555
C5_3 C4_3 1_555 1_555
H3_3 C5_3 1_555 1_555
C6_3 C3_3 1_555 1_555
O9_2 C6_3 1_555 1_555
O2_2 C6_3 1_555 1_555
O3_3 C17_3 1_555 1_555
O5_3 Cu5 1_555 1_555
C9_3 C1_4 1_555 1_555
H7_3 C9_3 1_555 1_555
H8_3 C9_3 1_555 1_555
C10_3 C5_3 1_555 1_555
C11_3 C2_3 1_555 1_555
H9_3 C11_3 1_555 1_555
C12_3 C13_3 1_555 1_555
C13_3 H10_3 1_555 1_555
C14_3 C13_3 1_555 1_555
H11_3 C14_3 1_555 1_555
C17_3 C15_3 1_555 1_555
Cu5 O3_3 1_555 1_555
O6_3 C9_3 1_555 1_555
C23_3 C1_4 1_555 1_555
H16_3 C23_3 1_555 1_555
H17_3 C23_3 1_555 1_555
C24_3 H18_3 1_555 1_555
C32_3 C24_3 1_555 1_555
H24_3 C32_3 1_555 1_555
Cu7 O2_2 1_555 1_555
C10_3 C11_3 1_555 1_555
C10_3 O6_3 1_555 1_555
C12_3 O7_3 1_555 1_555
C14_3 C15_3 1_555 1_555
O5_3 H25_3 1_555 1_555
C1_5 C7_3 1_555 1_555
C7_3 H4_3 1_555 1_555
H5_3 C7_3 1_555 1_555
C8_3 H6_3 1_555 1_555
C16_3 C8_3 1_555 1_555
H12_3 C16_3 1_555 1_555
C18_3 H13_3 1_555 1_555
C19_3 C18_3 1_555 1_555
C20_3 C19_3 1_555 1_555
H14_3 C20_3 1_555 1_555
C21_3 C20_3 1_555 1_555
H15_3 C21_3 1_555 1_555
C22_3 C19_3 1_555 1_555
O10_2 C22_3 1_555 1_555
O11_2 C22_3 1_555 1_555
O14_3 C33_3 1_555 1_555
O18_3 Cu6 1_555 1_555
C25_3 C1_5 1_555 1_555
H19_3 C25_3 1_555 1_555
H20_3 C25_3 1_555 1_555
C26_3 C21_3 1_555 1_555
C27_3 C18_3 1_555 1_555
H21_3 C27_3 1_555 1_555
C28_3 C29_3 1_555 1_555
C29_3 H22_3 1_555 1_555
C30_3 C29_3 1_555 1_555
H23_3 C30_3 1_555 1_555
C33_3 C31_3 1_555 1_555
Cu6 O14_3 1_555 1_555
Cu8 O11_2 1_555 1_555
O19_3 C25_3 1_555 1_555
C26_3 C27_3 1_555 1_555
C26_3 O19_3 1_555 1_555
C28_3 O20_3 1_555 1_555
C30_3 C31_3 1_555 1_555
O5_3 H28_3 1_555 1_555
O5_4 Cu7 1_555 1_555
O18_4 Cu8 1_555 1_555
O5_4 H25_4 1_555 1_555
C1_6 C7_4 1_555 1_555
C2_4 H1_4 1_555 1_555
C3_4 C2_4 1_555 1_555
C4_4 C3_4 1_555 1_555
H2_4 C4_4 1_555 1_555
C5_4 C4_4 1_555 1_555
H3_4 C5_4 1_555 1_555
C6_4 C3_4 1_555 1_555
C7_4 H4_4 1_555 1_555
H5_4 C7_4 1_555 1_555
C8_4 H6_4 1_555 1_555
O9 C6_4 1_555 1_555
O12_2 C6_4 1_555 1_555
O3_4 C17_4 1_555 1_555
O16_2 C17_4 1_555 1_555
C9_4 C1_6 1_555 1_555
H7_4 C9_4 1_555 1_555
H8_4 C9_4 1_555 1_555
C10_4 C5_4 1_555 1_555
C11_4 C2_4 1_555 1_555
H9_4 C11_4 1_555 1_555
C12_4 C13_4 1_555 1_555
C13_4 H10_4 1_555 1_555
C14_4 C13_4 1_555 1_555
H11_4 C14_4 1_555 1_555
C15_4 C8_4 1_555 1_555
C16_4 C8_4 1_555 1_555
H12_4 C16_4 1_555 1_555
C17_4 C15_4 1_555 1_555
O6_4 C9_4 1_555 1_555
O7_4 C7_4 1_555 1_555
C18_4 H13_4 1_555 1_555
C19_4 C18_4 1_555 1_555
C20_4 C19_4 1_555 1_555
H14_4 C20_4 1_555 1_555
C21_4 C20_4 1_555 1_555
H15_4 C21_4 1_555 1_555
C22_4 C19_4 1_555 1_555
C23_4 C1_6 1_555 1_555
H16_4 C23_4 1_555 1_555
H17_4 C23_4 1_555 1_555
C24_4 H18_4 1_555 1_555
O10 C22_4 1_555 1_555
O13_2 C22_4 1_555 1_555
O14_4 C33_4 1_555 1_555
O17_2 C33_4 1_555 1_555
C25_4 C1_6 1_555 1_555
H19_4 C25_4 1_555 1_555
H20_4 C25_4 1_555 1_555
C26_4 C21_4 1_555 1_555
C27_4 C18_4 1_555 1_555
H21_4 C27_4 1_555 1_555
C28_4 C29_4 1_555 1_555
C29_4 H22_4 1_555 1_555
C30_4 C29_4 1_555 1_555
H23_4 C30_4 1_555 1_555
C31_4 C24_4 1_555 1_555
C32_4 C24_4 1_555 1_555
H24_4 C32_4 1_555 1_555
C33_4 C31_4 1_555 1_555
O19_4 C25_4 1_555 1_555
O20_4 C23_4 1_555 1_555
C10_4 C11_4 1_555 1_555
C10_4 O6_4 1_555 1_555
C12_4 C16_4 1_555 1_555
C12_4 O7_4 1_555 1_555
C14_4 C15_4 1_555 1_555
C26_4 C27_4 1_555 1_555
C26_4 O19_4 1_555 1_555
C28_4 C32_4 1_555 1_555
C28_4 O20_4 1_555 1_555
C30_4 C31_4 1_555 1_555
O5_4 H28_4 1_555 1_555

#END
