
###############################################################################
#
# This file contains modified crystal structure data generated from the
# MOF subset of the Cambridge Structural Database (CSD) v543 
# hosted by the Cambridge Crystallographic Data Centre (CCDC).
#
# This work is licensed under the Creative Commons
# Attribution-NonCommercial-ShareAlike 4.0 International License.
# To view a copy of this license, visit
# http://creativecommons.org/licenses/by-nc-sa/4.0/
# or send a letter to
# Creative Commons, PO Box 1866, Mountain View, CA 94042, USA.
#
# CIF created using the CSD Python API on 29 September 2022
# The structure has been converted into the P1 space group
# The structure has a 3D framework
# The original CSD entry EPOXOZ is in the orthorhombic crystal system
# The framework has been calculated to contain at least 10.0% void space
# The void calculation uses a probe of radius 1.32A, grid spacing 0.4
# The framework is charged, counterions have been retained in the structure
#
###############################################################################

data_EPOXOZ
_chemical_formula_moiety         '(C192 H192 Ag10 F48 N96 O32 S22 6-)n'
_symmetry_cell_setting           triclinic
_symmetry_space_group_name_H-M   'P 1'
_symmetry_Int_Tables_number      1
_space_group_name_Hall           'P 1'
loop_
_symmetry_equiv_pos_site_id
_symmetry_equiv_pos_as_xyz
1 x,y,z
_cell_length_a                   8.305(3)
_cell_length_b                   29.890(11)
_cell_length_c                   40.834(14)
_cell_angle_alpha                90
_cell_angle_beta                 90
_cell_angle_gamma                90
_cell_volume                     10136.5
loop_
_atom_site_label
_atom_site_type_symbol
_atom_site_fract_x
_atom_site_fract_y
_atom_site_fract_z
Ag1 Ag 0.03582(5) 0.020935(12) 0.203928(8)
S1 S 0.31511(13) 0.01782(3) 0.17413(2)
S2 S 0.07473(12) 0.06076(3) 0.25691(2)
N2 N 0.1931(5) 0.01935(11) 0.11516(8)
H2 H 0.1698 0.0467 0.1196
N5 N 0.1540(5) 0.00082(12) 0.08504(9)
C6 C 0.0428(7) 0.01276(16) 0.03180(12)
C7 C 0.0852(7) 0.02768(16) 0.06485(12)
H9 H 0.0622 0.0568 0.0713
N6 N 0.3030(5) 0.95162(11) 0.12987(9)
H7 H 0.2775 0.9410 0.1110
H8 H 0.3512 0.9350 0.1440
C5 C 0.2683(5) 0.99340(13) 0.13717(10)
C9 C 0.0629(10) 0.97032(18) 0.02137(14)
H11 H 0.1030 0.9489 0.0358
Ag5 Ag 0.03582(5) 0.979065(12) 0.296072(8)
Ag7 Ag 0.53582(5) 0.979065(12) 0.203928(8)
S9 S 0.07473(12) 0.93924(3) 0.24309(2)
C15 C 0.0252(9) 0.9581(2) 0.98973(14)
H18 H 0.0470 0.9290 0.9829
N1 N 0.8995(4) 0.12769(10) 0.23372(8)
H1 H 0.9401 0.1216 0.2149
N3 N 0.7855(4) 0.16172(9) 0.23719(8)
N4 N 0.8889(4) 0.11811(10) 0.28893(8)
H3 H 0.8259 0.1409 0.2902
H4 H 0.9161 0.1039 0.3064
C1 C 0.9438(4) 0.10500(11) 0.26011(9)
C2 C 0.5565(5) 0.23322(14) 0.18204(11)
H5 H 0.5945 0.2221 0.1622
C3 C 0.5563(4) 0.23307(12) 0.24106(10)
H6 H 0.5939 0.2217 0.2608
C4 C 0.6149(5) 0.21568(12) 0.21140(10)
C8 C 0.7336(5) 0.17912(12) 0.21072(10)
H10 H 0.7713 0.1686 0.1907
C10 C 0.9748(9) 0.0419(2) 0.01027(14)
H12 H 0.9530 0.0710 0.0171
N10 N 0.1005(4) 0.37231(10) 0.23372(8)
H19 H 0.0599 0.3784 0.2149
N11 N 0.2145(4) 0.33828(9) 0.23719(8)
N12 N 0.1111(4) 0.38189(10) 0.28893(8)
H20 H 0.1741 0.3591 0.2902
H21 H 0.0839 0.3961 0.3064
C16 C 0.0562(4) 0.39500(11) 0.26011(9)
C17 C 0.4435(5) 0.26678(14) 0.18204(11)
H22 H 0.4055 0.2779 0.1622
C18 C 0.4437(4) 0.26693(12) 0.24106(10)
H23 H 0.4061 0.2783 0.2608
C19 C 0.3851(5) 0.28432(12) 0.21140(10)
C20 C 0.2664(5) 0.32088(12) 0.21072(10)
H24 H 0.2287 0.3314 0.1907
S6 S 0.18489(13) 0.51782(3) 0.17413(2)
N9 N 0.6970(5) 0.04838(11) 0.87013(9)
H14 H 0.7225 0.0590 0.8890
H15 H 0.6488 0.0650 0.8560
C11 C 0.7317(5) 0.00660(13) 0.86283(10)
C14 C 0.9371(10) 0.02968(18) 0.97863(14)
H17 H 0.8970 0.0511 0.9642
Ag4 Ag 0.46418(5) 0.020935(12) 0.796072(8)
S7 S 0.81511(13) 0.98218(3) 0.17413(2)
S3 S 0.68489(13) 0.98218(3) 0.82587(2)
N7 N 0.8069(5) 0.98065(11) 0.88484(8)
H13 H 0.8302 0.9533 0.8804
N8 N 0.8460(5) 0.99918(12) 0.91496(9)
C12 C 0.9572(7) 0.98724(16) 0.96820(12)
C13 C 0.9148(7) 0.97232(16) 0.93515(12)
H16 H 0.9378 0.9432 0.9287
Ag6 Ag 0.96418(5) 0.979065(12) 0.796072(8)
S4 S 0.92527(12) 0.43924(3) 0.25691(2)
Ag2 Ag 0.96418(5) 0.479065(12) 0.203928(8)
Ag3 Ag 0.96418(5) 0.520935(12) 0.296072(8)
S5 S 0.68489(13) 0.48218(3) 0.17413(2)
S8 S 0.92527(12) 0.56076(3) 0.24309(2)
S4_2 S 0.57473(12) 0.56076(3) 0.75691(2)
N10_2 N 0.3995(4) 0.62769(10) 0.73372(8)
H19_2 H 0.4401 0.6216 0.7149
N11_2 N 0.2855(4) 0.66172(9) 0.73719(8)
N12_2 N 0.3889(4) 0.61811(10) 0.78893(8)
H20_2 H 0.3259 0.6409 0.7902
H21_2 H 0.4161 0.6039 0.8064
C16_2 C 0.4438(4) 0.60500(11) 0.76011(9)
C17_2 C 0.0565(5) 0.73322(14) 0.68204(11)
H22_2 H 0.0945 0.7221 0.6622
C18_2 C 0.0563(4) 0.73307(12) 0.74106(10)
H23_2 H 0.0939 0.7217 0.7608
C19_2 C 0.1149(5) 0.71568(12) 0.71140(10)
C20_2 C 0.2336(5) 0.67912(12) 0.71072(10)
H24_2 H 0.2713 0.6686 0.6907
Ag2_2 Ag 0.53582(5) 0.520935(12) 0.703928(8)
Ag3_2 Ag 0.53582(5) 0.479065(12) 0.796072(8)
S5_2 S 0.81511(13) 0.51782(3) 0.67413(2)
S6_2 S 0.31511(13) 0.48218(3) 0.67413(2)
S8_2 S 0.57473(12) 0.43924(3) 0.74309(2)
N6_2 N 0.1970(5) 0.04838(11) 0.62987(9)
H7_2 H 0.2225 0.0590 0.6110
H8_2 H 0.1488 0.0650 0.6440
C5_2 C 0.2317(5) 0.00660(13) 0.63717(10)
C9_2 C 0.4371(10) 0.02968(18) 0.52137(14)
H11_2 H 0.3970 0.0511 0.5358
S3_2 S 0.81511(13) 0.01782(3) 0.32587(2)
N7_2 N 0.6931(5) 0.01935(11) 0.38484(8)
H13_2 H 0.6698 0.0467 0.3804
N8_2 N 0.6540(5) 0.00082(12) 0.41496(9)
C12_2 C 0.5428(7) 0.01276(16) 0.46820(12)
C13_2 C 0.5852(7) 0.02768(16) 0.43515(12)
H16_2 H 0.5622 0.0568 0.4287
C15_2 C 0.4748(9) 0.0419(2) 0.48973(14)
H18_2 H 0.4530 0.0710 0.4829
Ag6_2 Ag 0.53582(5) 0.020935(12) 0.296072(8)
S7_2 S 0.68489(13) 0.01782(3) 0.67413(2)
S9_2 S 0.42527(12) 0.06076(3) 0.74309(2)
Ag1_2 Ag 0.46418(5) 0.979065(12) 0.703928(8)
S1_2 S 0.18489(13) 0.98218(3) 0.67413(2)
S2_2 S 0.42527(12) 0.93924(3) 0.75691(2)
N1_2 N 0.6005(4) 0.87231(10) 0.73372(8)
H1_2 H 0.5599 0.8784 0.7149
N2_2 N 0.3069(5) 0.98065(11) 0.61516(8)
H2_2 H 0.3302 0.9533 0.6196
N3_2 N 0.7145(4) 0.83828(9) 0.73719(8)
N4_2 N 0.6111(4) 0.88189(10) 0.78893(8)
H3_2 H 0.6741 0.8591 0.7902
H4_2 H 0.5839 0.8961 0.8064
C1_2 C 0.5562(4) 0.89500(11) 0.76011(9)
N5_2 N 0.3460(5) 0.99918(12) 0.58504(9)
C2_2 C 0.9435(5) 0.76678(14) 0.68204(11)
H5_2 H 0.9055 0.7779 0.6622
C3_2 C 0.9437(4) 0.76693(12) 0.74106(10)
H6_2 H 0.9061 0.7783 0.7608
C4_2 C 0.8851(5) 0.78432(12) 0.71140(10)
C6_2 C 0.4572(7) 0.98724(16) 0.53180(12)
C7_2 C 0.4148(7) 0.97232(16) 0.56485(12)
H9_2 H 0.4378 0.9432 0.5713
C8_2 C 0.7664(5) 0.82088(12) 0.71072(10)
H10_2 H 0.7287 0.8314 0.6907
C10_2 C 0.5252(9) 0.9581(2) 0.51027(14)
H12_2 H 0.5470 0.9290 0.5171
N9_2 N 0.8030(5) 0.95162(11) 0.37013(9)
H14_2 H 0.7775 0.9410 0.3890
H15_2 H 0.8512 0.9350 0.3560
C11_2 C 0.7683(5) 0.99340(13) 0.36283(10)
C14_2 C 0.5629(10) 0.97032(18) 0.47863(14)
H17_2 H 0.6030 0.9489 0.4642
Ag7_2 Ag 0.96418(5) 0.020935(12) 0.703928(8)
S5_3 S 0.31511(13) 0.98218(3) 0.32587(2)
N1_3 N 0.1005(4) 0.62769(10) 0.26628(8)
H1_3 H 0.0599 0.6216 0.2851
N3_3 N 0.2145(4) 0.66172(9) 0.26281(8)
N4_3 N 0.1111(4) 0.61811(10) 0.21107(8)
H3_3 H 0.1741 0.6409 0.2098
H4_3 H 0.0839 0.6039 0.1936
C1_3 C 0.0562(4) 0.60500(11) 0.23989(9)
C2_3 C 0.4435(5) 0.73322(14) 0.31796(11)
H5_3 H 0.4055 0.7221 0.3378
C3_3 C 0.4437(4) 0.73307(12) 0.25894(10)
H6_3 H 0.4061 0.7217 0.2392
C4_3 C 0.3851(5) 0.71568(12) 0.28860(10)
C8_3 C 0.2664(5) 0.67912(12) 0.28928(10)
H10_3 H 0.2287 0.6686 0.3093
C10_3 C 0.0252(9) 0.5419(2) 0.48973(14)
H12_3 H 0.0470 0.5710 0.4829
N7_3 N 0.1931(5) 0.48065(11) 0.61516(8)
H13_3 H 0.1698 0.4533 0.6196
N8_3 N 0.1540(5) 0.49918(12) 0.58504(9)
N9_3 N 0.3030(5) 0.54838(11) 0.62987(9)
H14_3 H 0.2775 0.5590 0.6110
H15_3 H 0.3512 0.5650 0.6440
C11_3 C 0.2683(5) 0.50660(13) 0.63717(10)
C12_3 C 0.0428(7) 0.48724(16) 0.53180(12)
C13_3 C 0.0852(7) 0.47232(16) 0.56485(12)
H16_3 H 0.0622 0.4432 0.5713
C14_3 C 0.0629(10) 0.52968(18) 0.52137(14)
H17_3 H 0.1030 0.5511 0.5358
N10_3 N 0.8995(4) 0.87231(10) 0.26628(8)
H19_3 H 0.9401 0.8784 0.2851
N11_3 N 0.7855(4) 0.83828(9) 0.26281(8)
N12_3 N 0.8889(4) 0.88189(10) 0.21107(8)
H20_3 H 0.8259 0.8591 0.2098
H21_3 H 0.9161 0.8961 0.1936
C16_3 C 0.9438(4) 0.89500(11) 0.23989(9)
C17_3 C 0.5565(5) 0.76678(14) 0.31796(11)
H22_3 H 0.5945 0.7779 0.3378
C18_3 C 0.5563(4) 0.76693(12) 0.25894(10)
H23_3 H 0.5939 0.7783 0.2392
C19_3 C 0.6149(5) 0.78432(12) 0.28860(10)
C20_3 C 0.7336(5) 0.82088(12) 0.28928(10)
H24_3 H 0.7713 0.8314 0.3093
Ag6_3 Ag 0.03582(5) 0.479065(12) 0.703928(8)
S7_3 S 0.18489(13) 0.48218(3) 0.32587(2)
S1_3 S 0.68489(13) 0.51782(3) 0.32587(2)
N2_3 N 0.8069(5) 0.51935(11) 0.38484(8)
H2_3 H 0.8302 0.5467 0.3804
N5_3 N 0.8460(5) 0.50082(12) 0.41496(9)
N6_3 N 0.6970(5) 0.45162(11) 0.37013(9)
H7_3 H 0.7225 0.4410 0.3890
H8_3 H 0.6488 0.4350 0.3560
C5_3 C 0.7317(5) 0.49340(13) 0.36283(10)
C6_3 C 0.9572(7) 0.51276(16) 0.46820(12)
C7_3 C 0.9148(7) 0.52768(16) 0.43515(12)
H9_3 H 0.9378 0.5568 0.4287
C9_3 C 0.9371(10) 0.47032(18) 0.47863(14)
H11_3 H 0.8970 0.4489 0.4642
C15_3 C 0.9748(9) 0.4581(2) 0.51027(14)
H18_3 H 0.9530 0.4290 0.5171
Ag7_3 Ag 0.46418(5) 0.479065(12) 0.296072(8)
Ag7_4 Ag 0.03582(5) 0.520935(12) 0.796072(8)
N7_4 N 0.3069(5) 0.51935(11) 0.11516(8)
H13_4 H 0.3302 0.5467 0.1196
N8_4 N 0.3460(5) 0.50082(12) 0.08504(9)
N9_4 N 0.1970(5) 0.45162(11) 0.12987(9)
H14_4 H 0.2225 0.4410 0.1110
H15_4 H 0.1488 0.4350 0.1440
C11_4 C 0.2317(5) 0.49340(13) 0.13717(10)
C12_4 C 0.4572(7) 0.51276(16) 0.03180(12)
C13_4 C 0.4148(7) 0.52768(16) 0.06485(12)
H16_4 H 0.4378 0.5568 0.0713
C14_4 C 0.4371(10) 0.47032(18) 0.02137(14)
H17_4 H 0.3970 0.4489 0.0358
C15_4 C 0.5252(9) 0.5419(2) 0.01027(14)
H18_4 H 0.5470 0.5710 0.0171
Ag6_4 Ag 0.46418(5) 0.520935(12) 0.203928(8)
S1_4 S 0.81511(13) 0.48218(3) 0.82587(2)
N1_4 N 0.3995(4) 0.37231(10) 0.76628(8)
H1_4 H 0.4401 0.3784 0.7851
N2_4 N 0.6931(5) 0.48065(11) 0.88484(8)
H2_4 H 0.6698 0.4533 0.8804
N3_4 N 0.2855(4) 0.33828(9) 0.76281(8)
N4_4 N 0.3889(4) 0.38189(10) 0.71107(8)
H3_4 H 0.3259 0.3591 0.7098
H4_4 H 0.4161 0.3961 0.6936
C1_4 C 0.4438(4) 0.39500(11) 0.73989(9)
N5_4 N 0.6540(5) 0.49918(12) 0.91496(9)
C2_4 C 0.0565(5) 0.26678(14) 0.81796(11)
H5_4 H 0.0945 0.2779 0.8378
C3_4 C 0.0563(4) 0.26693(12) 0.75894(10)
H6_4 H 0.0939 0.2783 0.7392
C4_4 C 0.1149(5) 0.28432(12) 0.78860(10)
N6_4 N 0.8030(5) 0.54838(11) 0.87013(9)
H7_4 H 0.7775 0.5590 0.8890
H8_4 H 0.8512 0.5650 0.8560
C5_4 C 0.7683(5) 0.50660(13) 0.86283(10)
C6_4 C 0.5428(7) 0.48724(16) 0.96820(12)
C7_4 C 0.5852(7) 0.47232(16) 0.93515(12)
H9_4 H 0.5622 0.4432 0.9287
C8_4 C 0.2336(5) 0.32088(12) 0.78928(10)
H10_4 H 0.2713 0.3314 0.8093
C9_4 C 0.5629(10) 0.52968(18) 0.97863(14)
H11_4 H 0.6030 0.5511 0.9642
C10_4 C 0.4748(9) 0.4581(2) 0.98973(14)
H12_4 H 0.4530 0.4290 0.9829
S7_4 S 0.31511(13) 0.51782(3) 0.82587(2)
N10_4 N 0.6005(4) 0.12769(10) 0.76628(8)
H19_4 H 0.5599 0.1216 0.7851
N11_4 N 0.7145(4) 0.16172(9) 0.76281(8)
N12_4 N 0.6111(4) 0.11811(10) 0.71107(8)
H20_4 H 0.6741 0.1409 0.7098
H21_4 H 0.5839 0.1039 0.6936
C16_4 C 0.5562(4) 0.10500(11) 0.73989(9)
C17_4 C 0.9435(5) 0.23322(14) 0.81796(11)
H22_4 H 0.9055 0.2221 0.8378
C18_4 C 0.9437(4) 0.23307(12) 0.75894(10)
H23_4 H 0.9061 0.2217 0.7392
C19_4 C 0.8851(5) 0.21568(12) 0.78860(10)
C20_4 C 0.7664(5) 0.17912(12) 0.78928(10)
H24_4 H 0.7287 0.1686 0.8093
S5_4 S 0.18489(13) 0.01782(3) 0.82587(2)
N2_5 N 0.6931(5) 0.51935(11) 0.61516(8)
H2_5 H 0.6698 0.5467 0.6196
N5_5 N 0.6540(5) 0.50082(12) 0.58504(9)
N6_5 N 0.8030(5) 0.45162(11) 0.62987(9)
H7_5 H 0.7775 0.4410 0.6110
H8_5 H 0.8512 0.4350 0.6440
C5_5 C 0.7683(5) 0.49340(13) 0.63717(10)
C6_5 C 0.5428(7) 0.51276(16) 0.53180(12)
C7_5 C 0.5852(7) 0.52768(16) 0.56485(12)
H9_5 H 0.5622 0.5568 0.5713
C9_5 C 0.5629(10) 0.47032(18) 0.52137(14)
H11_5 H 0.6030 0.4489 0.5358
C10_5 C 0.4748(9) 0.5419(2) 0.51027(14)
H12_5 H 0.4530 0.5710 0.5171
N7_5 N 0.3069(5) 0.48065(11) 0.38484(8)
H13_5 H 0.3302 0.4533 0.3804
N8_5 N 0.3460(5) 0.49918(12) 0.41496(9)
N9_5 N 0.1970(5) 0.54838(11) 0.37013(9)
H14_5 H 0.2225 0.5590 0.3890
H15_5 H 0.1488 0.5650 0.3560
C11_5 C 0.2317(5) 0.50660(13) 0.36283(10)
C12_5 C 0.4572(7) 0.48724(16) 0.46820(12)
C13_5 C 0.4148(7) 0.47232(16) 0.43515(12)
H16_5 H 0.4378 0.4432 0.4287
C14_5 C 0.4371(10) 0.52968(18) 0.47863(14)
H17_5 H 0.3970 0.5511 0.4642
C15_5 C 0.5252(9) 0.4581(2) 0.48973(14)
H18_5 H 0.5470 0.4290 0.4829
C10_6 C 0.0252(9) 0.4581(2) 0.01027(14)
H12_6 H 0.0470 0.4290 0.0171
N7_6 N 0.1931(5) 0.51935(11) 0.88484(8)
H13_6 H 0.1698 0.5467 0.8804
N8_6 N 0.1540(5) 0.50082(12) 0.91496(9)
N9_6 N 0.3030(5) 0.45162(11) 0.87013(9)
H14_6 H 0.2775 0.4410 0.8890
H15_6 H 0.3512 0.4350 0.8560
C11_6 C 0.2683(5) 0.49340(13) 0.86283(10)
C12_6 C 0.0428(7) 0.51276(16) 0.96820(12)
C13_6 C 0.0852(7) 0.52768(16) 0.93515(12)
H16_6 H 0.0622 0.5568 0.9287
C14_6 C 0.0629(10) 0.47032(18) 0.97863(14)
H17_6 H 0.1030 0.4489 0.9642
N2_6 N 0.8069(5) 0.48065(11) 0.11516(8)
H2_6 H 0.8302 0.4533 0.1196
N5_6 N 0.8460(5) 0.49918(12) 0.08504(9)
N6_6 N 0.6970(5) 0.54838(11) 0.12987(9)
H7_6 H 0.7225 0.5590 0.1110
H8_6 H 0.6488 0.5650 0.1440
C5_6 C 0.7317(5) 0.50660(13) 0.13717(10)
C6_6 C 0.9572(7) 0.48724(16) 0.03180(12)
C7_6 C 0.9148(7) 0.47232(16) 0.06485(12)
H9_6 H 0.9378 0.4432 0.0713
C9_6 C 0.9371(10) 0.52968(18) 0.02137(14)
H11_6 H 0.8970 0.5511 0.0358
C15_6 C 0.9748(9) 0.5419(2) 0.98973(14)
H18_6 H 0.9530 0.5710 0.9829
N9_7 N 0.8030(5) 0.04838(11) 0.12987(9)
H14_7 H 0.7775 0.0590 0.1110
H15_7 H 0.8512 0.0650 0.1440
C11_7 C 0.7683(5) 0.00660(13) 0.13717(10)
C14_7 C 0.5629(10) 0.02968(18) 0.02137(14)
H17_7 H 0.6030 0.0511 0.0358
N2_7 N 0.3069(5) 0.01935(11) 0.88484(8)
H2_7 H 0.3302 0.0467 0.8804
N5_7 N 0.3460(5) 0.00082(12) 0.91496(9)
C6_7 C 0.4572(7) 0.01276(16) 0.96820(12)
C7_7 C 0.4148(7) 0.02768(16) 0.93515(12)
H9_7 H 0.4378 0.0568 0.9287
C10_7 C 0.5252(9) 0.0419(2) 0.98973(14)
H12_7 H 0.5470 0.0710 0.9829
N7_7 N 0.6931(5) 0.98065(11) 0.11516(8)
H13_7 H 0.6698 0.9533 0.1196
N8_7 N 0.6540(5) 0.99918(12) 0.08504(9)
C12_7 C 0.5428(7) 0.98724(16) 0.03180(12)
C13_7 C 0.5852(7) 0.97232(16) 0.06485(12)
H16_7 H 0.5622 0.9432 0.0713
C15_7 C 0.4748(9) 0.9581(2) 0.01027(14)
H18_7 H 0.4530 0.9290 0.0171
N6_7 N 0.1970(5) 0.95162(11) 0.87013(9)
H7_7 H 0.2225 0.9410 0.8890
H8_7 H 0.1488 0.9350 0.8560
C5_7 C 0.2317(5) 0.99340(13) 0.86283(10)
C9_7 C 0.4371(10) 0.97032(18) 0.97863(14)
H11_7 H 0.3970 0.9489 0.9642
N6_8 N 0.3030(5) 0.04838(11) 0.37013(9)
H7_8 H 0.2775 0.0590 0.3890
H8_8 H 0.3512 0.0650 0.3560
C5_8 C 0.2683(5) 0.00660(13) 0.36283(10)
C9_8 C 0.0629(10) 0.02968(18) 0.47863(14)
H11_8 H 0.1030 0.0511 0.4642
C15_8 C 0.0252(9) 0.0419(2) 0.51027(14)
H18_8 H 0.0470 0.0710 0.5171
N2_8 N 0.1931(5) 0.98065(11) 0.38484(8)
H2_8 H 0.1698 0.9533 0.3804
N5_8 N 0.1540(5) 0.99918(12) 0.41496(9)
C6_8 C 0.0428(7) 0.98724(16) 0.46820(12)
C7_8 C 0.0852(7) 0.97232(16) 0.43515(12)
H9_8 H 0.0622 0.9432 0.4287
N7_8 N 0.8069(5) 0.01935(11) 0.61516(8)
H13_8 H 0.8302 0.0467 0.6196
N8_8 N 0.8460(5) 0.00082(12) 0.58504(9)
C12_8 C 0.9572(7) 0.01276(16) 0.53180(12)
C13_8 C 0.9148(7) 0.02768(16) 0.56485(12)
H16_8 H 0.9378 0.0568 0.5713
C10_8 C 0.9748(9) 0.9581(2) 0.48973(14)
H12_8 H 0.9530 0.9290 0.4829
N9_8 N 0.6970(5) 0.95162(11) 0.62987(9)
H14_8 H 0.7225 0.9410 0.6110
H15_8 H 0.6488 0.9350 0.6440
C11_8 C 0.7317(5) 0.99340(13) 0.63717(10)
C14_8 C 0.9371(10) 0.97032(18) 0.52137(14)
H17_8 H 0.8970 0.9489 0.5358
S4_3 S 0.07473(12) 0.56076(3) 0.74309(2)
S8_3 S 0.07473(12) 0.43924(3) 0.75691(2)
N1_5 N 0.1005(4) 0.87231(10) 0.76628(8)
H1_5 H 0.0599 0.8784 0.7851
N3_5 N 0.2145(4) 0.83828(9) 0.76281(8)
N4_5 N 0.1111(4) 0.88189(10) 0.71107(8)
H3_5 H 0.1741 0.8591 0.7098
H4_5 H 0.0839 0.8961 0.6936
C1_5 C 0.0562(4) 0.89500(11) 0.73989(9)
C2_5 C 0.4435(5) 0.76678(14) 0.81796(11)
H5_5 H 0.4055 0.7779 0.8378
C3_5 C 0.4437(4) 0.76693(12) 0.75894(10)
H6_5 H 0.4061 0.7783 0.7392
C4_5 C 0.3851(5) 0.78432(12) 0.78860(10)
C8_5 C 0.2664(5) 0.82088(12) 0.78928(10)
H10_5 H 0.2287 0.8314 0.8093
N10_5 N 0.8995(4) 0.62769(10) 0.76628(8)
H19_5 H 0.9401 0.6216 0.7851
N11_5 N 0.7855(4) 0.66172(9) 0.76281(8)
N12_5 N 0.8889(4) 0.61811(10) 0.71107(8)
H20_5 H 0.8259 0.6409 0.7098
H21_5 H 0.9161 0.6039 0.6936
C16_5 C 0.9438(4) 0.60500(11) 0.73989(9)
C17_5 C 0.5565(5) 0.73322(14) 0.81796(11)
H22_5 H 0.5945 0.7221 0.8378
C18_5 C 0.5563(4) 0.73307(12) 0.75894(10)
H23_5 H 0.5939 0.7217 0.7392
C19_5 C 0.6149(5) 0.71568(12) 0.78860(10)
C20_5 C 0.7336(5) 0.67912(12) 0.78928(10)
H24_5 H 0.7713 0.6686 0.8093
S9_3 S 0.92527(12) 0.06076(3) 0.75691(2)
S2_3 S 0.92527(12) 0.93924(3) 0.74309(2)
S2_4 S 0.57473(12) 0.06076(3) 0.24309(2)
N1_6 N 0.3995(4) 0.12769(10) 0.26628(8)
H1_6 H 0.4401 0.1216 0.2851
N3_6 N 0.2855(4) 0.16172(9) 0.26281(8)
N4_6 N 0.3889(4) 0.11811(10) 0.21107(8)
H3_6 H 0.3259 0.1409 0.2098
H4_6 H 0.4161 0.1039 0.1936
C1_6 C 0.4438(4) 0.10500(11) 0.23989(9)
C2_6 C 0.0565(5) 0.23322(14) 0.31796(11)
H5_6 H 0.0945 0.2221 0.3378
C3_6 C 0.0563(4) 0.23307(12) 0.25894(10)
H6_6 H 0.0939 0.2217 0.2392
C4_6 C 0.1149(5) 0.21568(12) 0.28860(10)
C8_6 C 0.2336(5) 0.17912(12) 0.28928(10)
H10_6 H 0.2713 0.1686 0.3093
S9_4 S 0.57473(12) 0.93924(3) 0.25691(2)
S4_4 S 0.42527(12) 0.43924(3) 0.24309(2)
N10_6 N 0.6005(4) 0.37231(10) 0.26628(8)
H19_6 H 0.5599 0.3784 0.2851
N11_6 N 0.7145(4) 0.33828(9) 0.26281(8)
N12_6 N 0.6111(4) 0.38189(10) 0.21107(8)
H20_6 H 0.6741 0.3591 0.2098
H21_6 H 0.5839 0.3961 0.1936
C16_6 C 0.5562(4) 0.39500(11) 0.23989(9)
C17_6 C 0.9435(5) 0.26678(14) 0.31796(11)
H22_6 H 0.9055 0.2779 0.3378
C18_6 C 0.9437(4) 0.26693(12) 0.25894(10)
H23_6 H 0.9061 0.2783 0.2392
C19_6 C 0.8851(5) 0.28432(12) 0.28860(10)
C20_6 C 0.7664(5) 0.32088(12) 0.28928(10)
H24_6 H 0.7287 0.3314 0.3093
S8_4 S 0.42527(12) 0.56076(3) 0.25691(2)
N1_7 N 0.8995(4) 0.37231(10) 0.73372(8)
H1_7 H 0.9401 0.3784 0.7149
N3_7 N 0.7855(4) 0.33828(9) 0.73719(8)
N4_7 N 0.8889(4) 0.38189(10) 0.78893(8)
H3_7 H 0.8259 0.3591 0.7902
H4_7 H 0.9161 0.3961 0.8064
C1_7 C 0.9438(4) 0.39500(11) 0.76011(9)
C2_7 C 0.5565(5) 0.26678(14) 0.68204(11)
H5_7 H 0.5945 0.2779 0.6622
C3_7 C 0.5563(4) 0.26693(12) 0.74106(10)
H6_7 H 0.5939 0.2783 0.7608
C4_7 C 0.6149(5) 0.28432(12) 0.71140(10)
C8_7 C 0.7336(5) 0.32088(12) 0.71072(10)
H10_7 H 0.7713 0.3314 0.6907
N10_7 N 0.1005(4) 0.12769(10) 0.73372(8)
H19_7 H 0.0599 0.1216 0.7149
N11_7 N 0.2145(4) 0.16172(9) 0.73719(8)
N12_7 N 0.1111(4) 0.11811(10) 0.78893(8)
H20_7 H 0.1741 0.1409 0.7902
H21_7 H 0.0839 0.1039 0.8064
C16_7 C 0.0562(4) 0.10500(11) 0.76011(9)
C17_7 C 0.4435(5) 0.23322(14) 0.68204(11)
H22_7 H 0.4055 0.2221 0.6622
C18_7 C 0.4437(4) 0.23307(12) 0.74106(10)
H23_7 H 0.4061 0.2217 0.7608
C19_7 C 0.3851(5) 0.21568(12) 0.71140(10)
C20_7 C 0.2664(5) 0.17912(12) 0.71072(10)
H24_7 H 0.2287 0.1686 0.6907
N10_8 N 0.3995(4) 0.87231(10) 0.23372(8)
H19_8 H 0.4401 0.8784 0.2149
N11_8 N 0.2855(4) 0.83828(9) 0.23719(8)
N12_8 N 0.3889(4) 0.88189(10) 0.28893(8)
H20_8 H 0.3259 0.8591 0.2902
H21_8 H 0.4161 0.8961 0.3064
C16_8 C 0.4438(4) 0.89500(11) 0.26011(9)
C17_8 C 0.0565(5) 0.76678(14) 0.18204(11)
H22_8 H 0.0945 0.7779 0.1622
C18_8 C 0.0563(4) 0.76693(12) 0.24106(10)
H23_8 H 0.0939 0.7783 0.2608
C19_8 C 0.1149(5) 0.78432(12) 0.21140(10)
C20_8 C 0.2336(5) 0.82088(12) 0.21072(10)
H24_8 H 0.2713 0.8314 0.1907
N1_8 N 0.6005(4) 0.62769(10) 0.23372(8)
H1_8 H 0.5599 0.6216 0.2149
N3_8 N 0.7145(4) 0.66172(9) 0.23719(8)
N4_8 N 0.6111(4) 0.61811(10) 0.28893(8)
H3_8 H 0.6741 0.6409 0.2902
H4_8 H 0.5839 0.6039 0.3064
C1_8 C 0.5562(4) 0.60500(11) 0.26011(9)
C2_8 C 0.9435(5) 0.73322(14) 0.18204(11)
H5_8 H 0.9055 0.7221 0.1622
C3_8 C 0.9437(4) 0.73307(12) 0.24106(10)
H6_8 H 0.9061 0.7217 0.2608
C4_8 C 0.8851(5) 0.71568(12) 0.21140(10)
C8_8 C 0.7664(5) 0.67912(12) 0.21072(10)
H10_8 H 0.7287 0.6686 0.1907
F1 F 0.1235(4) 0.19425(10) 0.17751(8)
C21 C 0.0757(5) 0.12940(12) 0.14502(11)
O2 O 0.1482(5) 0.11164(10) 0.12192(8)
F3 F 0.2039(5) 0.19839(10) 0.12789(9)
C22 C 0.0951(7) 0.18063(15) 0.14687(13)
O1 O 0.9851(4) 0.11324(8) 0.16615(7)
F2 F 0.9557(4) 0.20106(10) 0.13900(10)
O1_2 O 0.5149(4) 0.88676(8) 0.66615(7)
F1_2 F 0.3765(4) 0.80575(10) 0.67751(8)
C21_2 C 0.4243(5) 0.87060(12) 0.64502(11)
O2_2 O 0.3518(5) 0.88836(10) 0.62192(8)
F2_2 F 0.5443(4) 0.79894(10) 0.63900(10)
F3_2 F 0.2961(5) 0.80161(10) 0.62789(9)
C22_2 C 0.4049(7) 0.81937(15) 0.64687(13)
O1_3 O 0.0149(4) 0.61324(8) 0.33385(7)
F2_3 F 0.0443(4) 0.70106(10) 0.36100(10)
F1_3 F 0.8765(4) 0.69425(10) 0.32249(8)
C21_3 C 0.9243(5) 0.62940(12) 0.35498(11)
O2_3 O 0.8518(5) 0.61164(10) 0.37808(8)
F3_3 F 0.7961(5) 0.69839(10) 0.37211(9)
C22_3 C 0.9049(7) 0.68063(15) 0.35313(13)
O1_4 O 0.4851(4) 0.38676(8) 0.83385(7)
F1_4 F 0.6235(4) 0.30575(10) 0.82249(8)
C21_4 C 0.5757(5) 0.37060(12) 0.85498(11)
O2_4 O 0.6482(5) 0.38836(10) 0.87808(8)
F2_4 F 0.4557(4) 0.29894(10) 0.86100(10)
F3_4 F 0.7039(5) 0.30161(10) 0.87211(9)
C22_4 C 0.5951(7) 0.31937(15) 0.85313(13)
O1_5 O 0.4851(4) 0.61324(8) 0.66615(7)
F1_5 F 0.6235(4) 0.69425(10) 0.67751(8)
C21_5 C 0.5757(5) 0.62940(12) 0.64502(11)
O2_5 O 0.6482(5) 0.61164(10) 0.62192(8)
F2_5 F 0.4557(4) 0.70106(10) 0.63900(10)
F3_5 F 0.7039(5) 0.69839(10) 0.62789(9)
C22_5 C 0.5951(7) 0.68063(15) 0.64687(13)
O1_6 O 0.0149(4) 0.38676(8) 0.16615(7)
F2_6 F 0.0443(4) 0.29894(10) 0.13900(10)
F1_6 F 0.8765(4) 0.30575(10) 0.17751(8)
C21_6 C 0.9243(5) 0.37060(12) 0.14502(11)
O2_6 O 0.8518(5) 0.38836(10) 0.12192(8)
F3_6 F 0.7961(5) 0.30161(10) 0.12789(9)
C22_6 C 0.9049(7) 0.31937(15) 0.14687(13)
O1_7 O 0.5149(4) 0.11324(8) 0.83385(7)
F1_7 F 0.3765(4) 0.19425(10) 0.82249(8)
C21_7 C 0.4243(5) 0.12940(12) 0.85498(11)
O2_7 O 0.3518(5) 0.11164(10) 0.87808(8)
F2_7 F 0.5443(4) 0.20106(10) 0.86100(10)
F3_7 F 0.2961(5) 0.19839(10) 0.87211(9)
C22_7 C 0.4049(7) 0.18063(15) 0.85313(13)
F1_8 F 0.1235(4) 0.80575(10) 0.32249(8)
C21_8 C 0.0757(5) 0.87060(12) 0.35498(11)
O2_8 O 0.1482(5) 0.88836(10) 0.37808(8)
F3_8 F 0.2039(5) 0.80161(10) 0.37211(9)
C22_8 C 0.0951(7) 0.81937(15) 0.35313(13)
O1_8 O 0.9851(4) 0.88676(8) 0.33385(7)
F2_8 F 0.9557(4) 0.79894(10) 0.36100(10)
O1_9 O 0.0149(4) 0.88676(8) 0.83385(7)
F2_9 F 0.0443(4) 0.79894(10) 0.86100(10)
F1_9 F 0.8765(4) 0.80575(10) 0.82249(8)
C21_9 C 0.9243(5) 0.87060(12) 0.85498(11)
O2_9 O 0.8518(5) 0.88836(10) 0.87808(8)
F3_9 F 0.7961(5) 0.80161(10) 0.87211(9)
C22_9 C 0.9049(7) 0.81937(15) 0.85313(13)
O1_10 O 0.4851(4) 0.11324(8) 0.33385(7)
F1_10 F 0.6235(4) 0.19425(10) 0.32249(8)
C21_10 C 0.5757(5) 0.12940(12) 0.35498(11)
O2_10 O 0.6482(5) 0.11164(10) 0.37808(8)
F2_10 F 0.4557(4) 0.20106(10) 0.36100(10)
F3_10 F 0.7039(5) 0.19839(10) 0.37211(9)
C22_10 C 0.5951(7) 0.18063(15) 0.35313(13)
F1_11 F 0.1235(4) 0.30575(10) 0.67751(8)
C21_11 C 0.0757(5) 0.37060(12) 0.64502(11)
O2_11 O 0.1482(5) 0.38836(10) 0.62192(8)
F3_11 F 0.2039(5) 0.30161(10) 0.62789(9)
C22_11 C 0.0951(7) 0.31937(15) 0.64687(13)
O1_11 O 0.9851(4) 0.38676(8) 0.66615(7)
F2_11 F 0.9557(4) 0.29894(10) 0.63900(10)
O1_12 O 0.5149(4) 0.61324(8) 0.16615(7)
F1_12 F 0.3765(4) 0.69425(10) 0.17751(8)
C21_12 C 0.4243(5) 0.62940(12) 0.14502(11)
O2_12 O 0.3518(5) 0.61164(10) 0.12192(8)
F2_12 F 0.5443(4) 0.70106(10) 0.13900(10)
F3_12 F 0.2961(5) 0.69839(10) 0.12789(9)
C22_12 C 0.4049(7) 0.68063(15) 0.14687(13)
O1_13 O 0.5149(4) 0.38676(8) 0.33385(7)
F1_13 F 0.3765(4) 0.30575(10) 0.32249(8)
C21_13 C 0.4243(5) 0.37060(12) 0.35498(11)
O2_13 O 0.3518(5) 0.38836(10) 0.37808(8)
F2_13 F 0.5443(4) 0.29894(10) 0.36100(10)
F3_13 F 0.2961(5) 0.30161(10) 0.37211(9)
C22_13 C 0.4049(7) 0.31937(15) 0.35313(13)
F1_14 F 0.1235(4) 0.69425(10) 0.82249(8)
C21_14 C 0.0757(5) 0.62940(12) 0.85498(11)
O2_14 O 0.1482(5) 0.61164(10) 0.87808(8)
F3_14 F 0.2039(5) 0.69839(10) 0.87211(9)
C22_14 C 0.0951(7) 0.68063(15) 0.85313(13)
O1_14 O 0.9851(4) 0.61324(8) 0.83385(7)
F2_14 F 0.9557(4) 0.70106(10) 0.86100(10)
O1_15 O 0.4851(4) 0.88676(8) 0.16615(7)
F1_15 F 0.6235(4) 0.80575(10) 0.17751(8)
C21_15 C 0.5757(5) 0.87060(12) 0.14502(11)
O2_15 O 0.6482(5) 0.88836(10) 0.12192(8)
F2_15 F 0.4557(4) 0.79894(10) 0.13900(10)
F3_15 F 0.7039(5) 0.80161(10) 0.12789(9)
C22_15 C 0.5951(7) 0.81937(15) 0.14687(13)
O1_16 O 0.0149(4) 0.11324(8) 0.66615(7)
F2_16 F 0.0443(4) 0.20106(10) 0.63900(10)
F1_16 F 0.8765(4) 0.19425(10) 0.67751(8)
C21_16 C 0.9243(5) 0.12940(12) 0.64502(11)
O2_16 O 0.8518(5) 0.11164(10) 0.62192(8)
F3_16 F 0.7961(5) 0.19839(10) 0.62789(9)
C22_16 C 0.9049(7) 0.18063(15) 0.64687(13)
loop_
_geom_bond_atom_site_label_1
_geom_bond_atom_site_label_2
_geom_bond_site_symmetry_1
_geom_bond_site_symmetry_2
Ag1 S1 1_555 1_555
S2 Ag1 1_555 1_555
N2 H2 1_555 1_555
N5 N2 1_555 1_555
C6 C7 1_555 1_555
C7 N5 1_555 1_555
H9 C7 1_555 1_555
N6 H7 1_555 1_555
H8 N6 1_555 1_555
H11 C9 1_555 1_555
N6 C5 1_555 1_555
Ag5 S9 1_555 1_555
H18 C15 1_555 1_555
N1 H1 1_555 1_555
N3 N1 1_555 1_555
N4 H3 1_555 1_555
H4 N4 1_555 1_555
C2 H5 1_555 1_555
C3 H6 1_555 1_555
C4 C2 1_555 1_555
C8 N3 1_555 1_555
H10 C8 1_555 1_555
H12 C10 1_555 1_555
N10 H19 1_555 1_555
N11 N10 1_555 1_555
N12 H20 1_555 1_555
H21 N12 1_555 1_555
C16 N10 1_555 1_555
C17 C2 1_555 1_555
H22 C17 1_555 1_555
C18 C3 1_555 1_555
H23 C18 1_555 1_555
C19 C17 1_555 1_555
C20 N11 1_555 1_555
H24 C20 1_555 1_555
N1 C1 1_555 1_555
N4 C1 1_555 1_555
C3 C4 1_555 1_555
C4 C8 1_555 1_555
N12 C16 1_555 1_555
C18 C19 1_555 1_555
C19 C20 1_555 1_555
N9 H14 1_555 1_555
H15 N9 1_555 1_555
H17 C14 1_555 1_555
N9 C11 1_555 1_555
N7 H13 1_555 1_555
N8 N7 1_555 1_555
C12 C13 1_555 1_555
C13 N8 1_555 1_555
H16 C13 1_555 1_555
Ag6 S3 1_555 1_555
Ag2 S4 1_555 1_555
Ag3 S4 1_555 1_555
S5 Ag2 1_555 1_555
S8 Ag2 1_555 1_555
Ag3 S8 1_555 1_555
S4_2 C16_2 1_555 1_555
N10_2 H19_2 1_555 1_555
N11_2 N10_2 1_555 1_555
N12_2 H20_2 1_555 1_555
H21_2 N12_2 1_555 1_555
C16_2 N10_2 1_555 1_555
H22_2 C17_2 1_555 1_555
H23_2 C18_2 1_555 1_555
C19_2 C17_2 1_555 1_555
C20_2 N11_2 1_555 1_555
H24_2 C20_2 1_555 1_555
Ag2_2 S4_2 1_555 1_555
Ag3_2 S4_2 1_555 1_555
S5_2 Ag2_2 1_555 1_555
S6_2 Ag2_2 1_555 1_555
S8_2 Ag2_2 1_555 1_555
N12_2 C16_2 1_555 1_555
C18_2 C19_2 1_555 1_555
C19_2 C20_2 1_555 1_555
Ag3_2 S8_2 1_555 1_555
N6_2 H7_2 1_555 1_555
H8_2 N6_2 1_555 1_555
H11_2 C9_2 1_555 1_555
N7_2 H13_2 1_555 1_555
N8_2 N7_2 1_555 1_555
C12_2 C13_2 1_555 1_555
C13_2 N8_2 1_555 1_555
H16_2 C13_2 1_555 1_555
C15_2 C9_2 1_555 1_555
H18_2 C15_2 1_555 1_555
Ag6_2 S3_2 1_555 1_555
N6_2 C5_2 1_555 1_555
C12_2 C15_2 1_555 1_555
Ag4 S9_2 1_555 1_555
Ag1_2 S1_2 1_555 1_555
S2_2 Ag1_2 1_555 1_555
N1_2 H1_2 1_555 1_555
N2_2 H2_2 1_555 1_555
N3_2 N1_2 1_555 1_555
N4_2 H3_2 1_555 1_555
H4_2 N4_2 1_555 1_555
C1_2 S2_2 1_555 1_555
N5_2 N2_2 1_555 1_555
C2_2 H5_2 1_555 1_555
C3_2 H6_2 1_555 1_555
C4_2 C2_2 1_555 1_555
C6_2 C7_2 1_555 1_555
C7_2 N5_2 1_555 1_555
H9_2 C7_2 1_555 1_555
C8_2 N3_2 1_555 1_555
H10_2 C8_2 1_555 1_555
C10_2 C6_2 1_555 1_555
H12_2 C10_2 1_555 1_555
N9_2 H14_2 1_555 1_555
H15_2 N9_2 1_555 1_555
C14_2 C10_2 1_555 1_555
H17_2 C14_2 1_555 1_555
N1_2 C1_2 1_555 1_555
N4_2 C1_2 1_555 1_555
C3_2 C4_2 1_555 1_555
C4_2 C8_2 1_555 1_555
N9_2 C11_2 1_555 1_555
S5_3 Ag5 1_555 1_555
N1_3 H1_3 1_555 1_555
N3_3 N1_3 1_555 1_555
N4_3 H3_3 1_555 1_555
H4_3 N4_3 1_555 1_555
C2_3 H5_3 1_555 1_555
C3_3 H6_3 1_555 1_555
C4_3 C2_3 1_555 1_555
C8_3 N3_3 1_555 1_555
H10_3 C8_3 1_555 1_555
H12_3 C10_3 1_555 1_555
S6_2 C11_3 1_555 1_555
N7_3 H13_3 1_555 1_555
N8_3 N7_3 1_555 1_555
N9_3 H14_3 1_555 1_555
H15_3 N9_3 1_555 1_555
C11_3 N7_3 1_555 1_555
C12_3 C13_3 1_555 1_555
C13_3 N8_3 1_555 1_555
H16_3 C13_3 1_555 1_555
C14_3 C10_3 1_555 1_555
H17_3 C14_3 1_555 1_555
N10_3 H19_3 1_555 1_555
N11_3 N10_3 1_555 1_555
N12_3 H20_3 1_555 1_555
H21_3 N12_3 1_555 1_555
C16_3 N10_3 1_555 1_555
C17_3 C2_3 1_555 1_555
H22_3 C17_3 1_555 1_555
C18_3 C3_3 1_555 1_555
H23_3 C18_3 1_555 1_555
C19_3 C17_3 1_555 1_555
C20_3 N11_3 1_555 1_555
H24_3 C20_3 1_555 1_555
Ag6_3 S6_2 1_555 1_555
N1_3 C1_3 1_555 1_555
N4_3 C1_3 1_555 1_555
C3_3 C4_3 1_555 1_555
C4_3 C8_3 1_555 1_555
N9_3 C11_3 1_555 1_555
C12_3 C14_3 1_555 1_555
N12_3 C16_3 1_555 1_555
C18_3 C19_3 1_555 1_555
C19_3 C20_3 1_555 1_555
Ag3 S1_3 1_555 1_555
S1_3 C5_3 1_555 1_555
N2_3 H2_3 1_555 1_555
N5_3 N2_3 1_555 1_555
N6_3 H7_3 1_555 1_555
H8_3 N6_3 1_555 1_555
C5_3 N2_3 1_555 1_555
C6_3 C7_3 1_555 1_555
C7_3 N5_3 1_555 1_555
H9_3 C7_3 1_555 1_555
C9_3 C6_3 1_555 1_555
H11_3 C9_3 1_555 1_555
C15_3 C9_3 1_555 1_555
H18_3 C15_3 1_555 1_555
Ag7_3 S1_3 1_555 1_555
N6_3 C5_3 1_555 1_555
S6 C11_4 1_555 1_555
N7_4 H13_4 1_555 1_555
N8_4 N7_4 1_555 1_555
N9_4 H14_4 1_555 1_555
H15_4 N9_4 1_555 1_555
C11_4 N7_4 1_555 1_555
C12_4 C13_4 1_555 1_555
C13_4 N8_4 1_555 1_555
H16_4 C13_4 1_555 1_555
H17_4 C14_4 1_555 1_555
H18_4 C15_4 1_555 1_555
Ag6_4 S6 1_555 1_555
N9_4 C11_4 1_555 1_555
C12_4 C14_4 1_555 1_555
C12_4 C15_4 1_555 1_555
Ag3_2 S1_4 1_555 1_555
S1_4 C5_4 1_555 1_555
N1_4 H1_4 1_555 1_555
N2_4 H2_4 1_555 1_555
N3_4 N1_4 1_555 1_555
N4_4 H3_4 1_555 1_555
H4_4 N4_4 1_555 1_555
C1_4 S8_2 1_555 1_555
N5_4 N2_4 1_555 1_555
C2_4 H5_4 1_555 1_555
C3_4 H6_4 1_555 1_555
C4_4 C2_4 1_555 1_555
N6_4 H7_4 1_555 1_555
H8_4 N6_4 1_555 1_555
C5_4 N2_4 1_555 1_555
C6_4 C7_4 1_555 1_555
C7_4 N5_4 1_555 1_555
H9_4 C7_4 1_555 1_555
C8_4 N3_4 1_555 1_555
H10_4 C8_4 1_555 1_555
C9_4 C6_4 1_555 1_555
H11_4 C9_4 1_555 1_555
C10_4 C6_4 1_555 1_555
H12_4 C10_4 1_555 1_555
S7_4 Ag3_2 1_555 1_555
N1_4 C1_4 1_555 1_555
N4_4 C1_4 1_555 1_555
C3_4 C4_4 1_555 1_555
C4_4 C8_4 1_555 1_555
N6_4 C5_4 1_555 1_555
S9_2 C16_4 1_555 1_555
N10_4 H19_4 1_555 1_555
N11_4 N10_4 1_555 1_555
N12_4 H20_4 1_555 1_555
H21_4 N12_4 1_555 1_555
C16_4 N10_4 1_555 1_555
H22_4 C17_4 1_555 1_555
H23_4 C18_4 1_555 1_555
C19_4 C17_4 1_555 1_555
C20_4 N11_4 1_555 1_555
H24_4 C20_4 1_555 1_555
S5_4 Ag4 1_555 1_555
N12_4 C16_4 1_555 1_555
C18_4 C19_4 1_555 1_555
C19_4 C20_4 1_555 1_555
S5_2 C5_5 1_555 1_555
N2_5 H2_5 1_555 1_555
N5_5 N2_5 1_555 1_555
N6_5 H7_5 1_555 1_555
H8_5 N6_5 1_555 1_555
C5_5 N2_5 1_555 1_555
C6_5 C7_5 1_555 1_555
C7_5 N5_5 1_555 1_555
H9_5 C7_5 1_555 1_555
C9_5 C6_5 1_555 1_555
H11_5 C9_5 1_555 1_555
C10_5 C6_5 1_555 1_555
H12_5 C10_5 1_555 1_555
S7_3 C11_5 1_555 1_555
N7_5 H13_5 1_555 1_555
N8_5 N7_5 1_555 1_555
N9_5 H14_5 1_555 1_555
H15_5 N9_5 1_555 1_555
C11_5 N7_5 1_555 1_555
C12_5 C13_5 1_555 1_555
C13_5 N8_5 1_555 1_555
H16_5 C13_5 1_555 1_555
C14_5 C10_5 1_555 1_555
H17_5 C14_5 1_555 1_555
C15_5 C9_5 1_555 1_555
H18_5 C15_5 1_555 1_555
Ag7_3 S7_3 1_555 1_555
N6_5 C5_5 1_555 1_555
N9_5 C11_5 1_555 1_555
C12_5 C14_5 1_555 1_555
C12_5 C15_5 1_555 1_555
H12_6 C10_6 1_555 1_555
S7_4 C11_6 1_555 1_555
N7_6 H13_6 1_555 1_555
N8_6 N7_6 1_555 1_555
N9_6 H14_6 1_555 1_555
H15_6 N9_6 1_555 1_555
C11_6 N7_6 1_555 1_555
C12_6 C13_6 1_555 1_555
C13_6 N8_6 1_555 1_555
H16_6 C13_6 1_555 1_555
H17_6 C14_6 1_555 1_555
Ag7_4 S7_4 1_555 1_555
N9_6 C11_6 1_555 1_555
C12_6 C14_6 1_555 1_555
S5 C5_6 1_555 1_555
N2_6 H2_6 1_555 1_555
N5_6 N2_6 1_555 1_555
N6_6 H7_6 1_555 1_555
H8_6 N6_6 1_555 1_555
C5_6 N2_6 1_555 1_555
C6_6 C7_6 1_555 1_555
C7_6 N5_6 1_555 1_555
H9_6 C7_6 1_555 1_555
C9_6 C6_6 1_555 1_555
H11_6 C9_6 1_555 1_555
Ag6_4 S5 1_555 1_555
N6_6 C5_6 1_555 1_555
H18_6 C15_6 1_555 1_555
N9_7 H14_7 1_555 1_555
H15_7 N9_7 1_555 1_555
H17_7 C14_7 1_555 1_555
N9_7 C11_7 1_555 1_555
N2_7 H2_7 1_555 1_555
N5_7 N2_7 1_555 1_555
C6_7 C7_7 1_555 1_555
C7_7 N5_7 1_555 1_555
H9_7 C7_7 1_555 1_555
C10_7 C6_7 1_555 1_555
H12_7 C10_7 1_555 1_555
N7_7 H13_7 1_555 1_555
N8_7 N7_7 1_555 1_555
C12_7 C13_7 1_555 1_555
C13_7 N8_7 1_555 1_555
H16_7 C13_7 1_555 1_555
H18_7 C15_7 1_555 1_555
Ag7 S7 1_555 1_555
C12_7 C15_7 1_555 1_555
N6_7 H7_7 1_555 1_555
H8_7 N6_7 1_555 1_555
H11_7 C9_7 1_555 1_555
N6_7 C5_7 1_555 1_555
N6_8 H7_8 1_555 1_555
H8_8 N6_8 1_555 1_555
H11_8 C9_8 1_555 1_555
C15_8 C9_8 1_555 1_555
H18_8 C15_8 1_555 1_555
N6_8 C5_8 1_555 1_555
N2_8 H2_8 1_555 1_555
N5_8 N2_8 1_555 1_555
C6_8 C7_8 1_555 1_555
C7_8 N5_8 1_555 1_555
H9_8 C7_8 1_555 1_555
N7_8 H13_8 1_555 1_555
N8_8 N7_8 1_555 1_555
C12_8 C13_8 1_555 1_555
C13_8 N8_8 1_555 1_555
H16_8 C13_8 1_555 1_555
Ag7_2 S7_2 1_555 1_555
H12_8 C10_8 1_555 1_555
N9_8 H14_8 1_555 1_555
H15_8 N9_8 1_555 1_555
C14_8 C10_8 1_555 1_555
H17_8 C14_8 1_555 1_555
N9_8 C11_8 1_555 1_555
Ag7_4 S4_3 1_555 1_555
Ag6_3 S4_3 1_555 1_555
S8_3 Ag7_4 1_555 1_555
Ag6_3 S8_3 1_555 1_555
N1_5 H1_5 1_555 1_555
N3_5 N1_5 1_555 1_555
N4_5 H3_5 1_555 1_555
H4_5 N4_5 1_555 1_555
C2_5 H5_5 1_555 1_555
C3_5 H6_5 1_555 1_555
C4_5 C2_5 1_555 1_555
C8_5 N3_5 1_555 1_555
H10_5 C8_5 1_555 1_555
N10_5 H19_5 1_555 1_555
N11_5 N10_5 1_555 1_555
N12_5 H20_5 1_555 1_555
H21_5 N12_5 1_555 1_555
C16_5 N10_5 1_555 1_555
C17_5 C2_5 1_555 1_555
H22_5 C17_5 1_555 1_555
C18_5 C3_5 1_555 1_555
H23_5 C18_5 1_555 1_555
C19_5 C17_5 1_555 1_555
C20_5 N11_5 1_555 1_555
H24_5 C20_5 1_555 1_555
N1_5 C1_5 1_555 1_555
N4_5 C1_5 1_555 1_555
C3_5 C4_5 1_555 1_555
C4_5 C8_5 1_555 1_555
N12_5 C16_5 1_555 1_555
C18_5 C19_5 1_555 1_555
C19_5 C20_5 1_555 1_555
Ag7_2 S9_3 1_555 1_555
S2_3 Ag6 1_555 1_555
S2_4 Ag6_2 1_555 1_555
N1_6 H1_6 1_555 1_555
N3_6 N1_6 1_555 1_555
N4_6 H3_6 1_555 1_555
H4_6 N4_6 1_555 1_555
C1_6 S2_4 1_555 1_555
C2_6 H5_6 1_555 1_555
C3_6 H6_6 1_555 1_555
C4_6 C2_6 1_555 1_555
C8_6 N3_6 1_555 1_555
H10_6 C8_6 1_555 1_555
N1_6 C1_6 1_555 1_555
N4_6 C1_6 1_555 1_555
C3_6 C4_6 1_555 1_555
C4_6 C8_6 1_555 1_555
Ag7 S9_4 1_555 1_555
S4_4 C16_6 1_555 1_555
N10_6 H19_6 1_555 1_555
N11_6 N10_6 1_555 1_555
N12_6 H20_6 1_555 1_555
H21_6 N12_6 1_555 1_555
C16_6 N10_6 1_555 1_555
H22_6 C17_6 1_555 1_555
H23_6 C18_6 1_555 1_555
C19_6 C17_6 1_555 1_555
C20_6 N11_6 1_555 1_555
H24_6 C20_6 1_555 1_555
Ag7_3 S4_4 1_555 1_555
Ag6_4 S4_4 1_555 1_555
S8_4 Ag7_3 1_555 1_555
N12_6 C16_6 1_555 1_555
C18_6 C19_6 1_555 1_555
C19_6 C20_6 1_555 1_555
Ag6_4 S8_4 1_555 1_555
N1_7 H1_7 1_555 1_555
N3_7 N1_7 1_555 1_555
N4_7 H3_7 1_555 1_555
H4_7 N4_7 1_555 1_555
C2_7 H5_7 1_555 1_555
C3_7 H6_7 1_555 1_555
C4_7 C2_7 1_555 1_555
C8_7 N3_7 1_555 1_555
H10_7 C8_7 1_555 1_555
N10_7 H19_7 1_555 1_555
N11_7 N10_7 1_555 1_555
N12_7 H20_7 1_555 1_555
H21_7 N12_7 1_555 1_555
C16_7 N10_7 1_555 1_555
C17_7 C2_7 1_555 1_555
H22_7 C17_7 1_555 1_555
C18_7 C3_7 1_555 1_555
H23_7 C18_7 1_555 1_555
C19_7 C17_7 1_555 1_555
C20_7 N11_7 1_555 1_555
H24_7 C20_7 1_555 1_555
N1_7 C1_7 1_555 1_555
N4_7 C1_7 1_555 1_555
C3_7 C4_7 1_555 1_555
C4_7 C8_7 1_555 1_555
N12_7 C16_7 1_555 1_555
C18_7 C19_7 1_555 1_555
C19_7 C20_7 1_555 1_555
S9_4 C16_8 1_555 1_555
N10_8 H19_8 1_555 1_555
N11_8 N10_8 1_555 1_555
N12_8 H20_8 1_555 1_555
H21_8 N12_8 1_555 1_555
C16_8 N10_8 1_555 1_555
H22_8 C17_8 1_555 1_555
H23_8 C18_8 1_555 1_555
C19_8 C17_8 1_555 1_555
C20_8 N11_8 1_555 1_555
H24_8 C20_8 1_555 1_555
N12_8 C16_8 1_555 1_555
C18_8 C19_8 1_555 1_555
C19_8 C20_8 1_555 1_555
N1_8 H1_8 1_555 1_555
N3_8 N1_8 1_555 1_555
N4_8 H3_8 1_555 1_555
H4_8 N4_8 1_555 1_555
C1_8 S8_4 1_555 1_555
C2_8 H5_8 1_555 1_555
C3_8 H6_8 1_555 1_555
C4_8 C2_8 1_555 1_555
C8_8 N3_8 1_555 1_555
H10_8 C8_8 1_555 1_555
N1_8 C1_8 1_555 1_555
N4_8 C1_8 1_555 1_555
C3_8 C4_8 1_555 1_555
C4_8 C8_8 1_555 1_555
F1 C22 1_555 1_555
C21 O2 1_555 1_555
F3 C22 1_555 1_555
C22 C21 1_555 1_555
O1_2 C21_2 1_555 1_555
F1_2 C22_2 1_555 1_555
C21_2 O2_2 1_555 1_555
F2_2 C22_2 1_555 1_555
F3_2 C22_2 1_555 1_555
C22_2 C21_2 1_555 1_555
F1_3 C22_3 1_555 1_555
C21_3 O2_3 1_555 1_555
F3_3 C22_3 1_555 1_555
C22_3 C21_3 1_555 1_555
O1_4 C21_4 1_555 1_555
F1_4 C22_4 1_555 1_555
C21_4 O2_4 1_555 1_555
F2_4 C22_4 1_555 1_555
F3_4 C22_4 1_555 1_555
C22_4 C21_4 1_555 1_555
O1_5 C21_5 1_555 1_555
F1_5 C22_5 1_555 1_555
C21_5 O2_5 1_555 1_555
F2_5 C22_5 1_555 1_555
F3_5 C22_5 1_555 1_555
C22_5 C21_5 1_555 1_555
F1_6 C22_6 1_555 1_555
C21_6 O2_6 1_555 1_555
F3_6 C22_6 1_555 1_555
C22_6 C21_6 1_555 1_555
O1_7 C21_7 1_555 1_555
F1_7 C22_7 1_555 1_555
C21_7 O2_7 1_555 1_555
F2_7 C22_7 1_555 1_555
F3_7 C22_7 1_555 1_555
C22_7 C21_7 1_555 1_555
F1_8 C22_8 1_555 1_555
C21_8 O2_8 1_555 1_555
F3_8 C22_8 1_555 1_555
C22_8 C21_8 1_555 1_555
F1_9 C22_9 1_555 1_555
C21_9 O2_9 1_555 1_555
F3_9 C22_9 1_555 1_555
C22_9 C21_9 1_555 1_555
O1_10 C21_10 1_555 1_555
F1_10 C22_10 1_555 1_555
C21_10 O2_10 1_555 1_555
F2_10 C22_10 1_555 1_555
F3_10 C22_10 1_555 1_555
C22_10 C21_10 1_555 1_555
F1_11 C22_11 1_555 1_555
C21_11 O2_11 1_555 1_555
F3_11 C22_11 1_555 1_555
C22_11 C21_11 1_555 1_555
O1_12 C21_12 1_555 1_555
F1_12 C22_12 1_555 1_555
C21_12 O2_12 1_555 1_555
F2_12 C22_12 1_555 1_555
F3_12 C22_12 1_555 1_555
C22_12 C21_12 1_555 1_555
O1_13 C21_13 1_555 1_555
F1_13 C22_13 1_555 1_555
C21_13 O2_13 1_555 1_555
F2_13 C22_13 1_555 1_555
F3_13 C22_13 1_555 1_555
C22_13 C21_13 1_555 1_555
F1_14 C22_14 1_555 1_555
C21_14 O2_14 1_555 1_555
F3_14 C22_14 1_555 1_555
C22_14 C21_14 1_555 1_555
O1_15 C21_15 1_555 1_555
F1_15 C22_15 1_555 1_555
C21_15 O2_15 1_555 1_555
F2_15 C22_15 1_555 1_555
F3_15 C22_15 1_555 1_555
C22_15 C21_15 1_555 1_555
F1_16 C22_16 1_555 1_555
C21_16 O2_16 1_555 1_555
F3_16 C22_16 1_555 1_555
C22_16 C21_16 1_555 1_555

#END
