
###############################################################################
#
# This file contains modified crystal structure data generated from the
# MOF subset of the Cambridge Structural Database (CSD) v543 
# hosted by the Cambridge Crystallographic Data Centre (CCDC).
#
# This work is licensed under the Creative Commons
# Attribution-NonCommercial-ShareAlike 4.0 International License.
# To view a copy of this license, visit
# http://creativecommons.org/licenses/by-nc-sa/4.0/
# or send a letter to
# Creative Commons, PO Box 1866, Mountain View, CA 94042, USA.
#
# CIF created using the CSD Python API on 29 September 2022
# The structure has been converted into the P1 space group
# The structure has a 3D framework
# The original CSD entry EPOXUF is in the orthorhombic crystal system
# The framework has been calculated to contain at least 10.0% void space
# The void calculation uses a probe of radius 1.32A, grid spacing 0.4
# The framework is charged, counterions have been retained in the structure
# H atom positions have been added when not included in the experimental data
#
###############################################################################

data_EPOXUF
_chemical_formula_moiety         '(C192 H192 Ag10 F48 N96 O32 S22 6-)n'
_symmetry_cell_setting           triclinic
_symmetry_space_group_name_H-M   'P 1'
_symmetry_Int_Tables_number      1
_space_group_name_Hall           'P 1'
loop_
_symmetry_equiv_pos_site_id
_symmetry_equiv_pos_as_xyz
1 x,y,z
_cell_length_a                   8.0663(5)
_cell_length_b                   29.9873(18)
_cell_length_c                   40.915(3)
_cell_angle_alpha                90
_cell_angle_beta                 90
_cell_angle_gamma                90
_cell_volume                     9896.79
loop_
_atom_site_label
_atom_site_type_symbol
_atom_site_fract_x
_atom_site_fract_y
_atom_site_fract_z
S4 S 0.5743(2) 0.05934(6) 0.25652(4)
N10 N 0.2873(8) 0.16137(19) 0.23689(16)
N11 N 0.4009(8) 0.12719(19) 0.23322(15)
H15 H 0.443145 0.120893 0.213937
C16 C 0.4442(9) 0.1043(2) 0.25939(18)
C17 C 0.0567(11) 0.2330(3) 0.1820(2)
H16 H 0.096112 0.221392 0.161882
C18 C 0.0573(10) 0.2331(2) 0.24081(18)
H17 H 0.098085 0.221748 0.260948
C19 C 0.1145(10) 0.2152(2) 0.21130(19)
N12 N 0.3915(9) 0.1178(2) 0.28809(15)
H18 H 0.328714 0.141715 0.289577
H19 H 0.419049 0.102973 0.305836
C20 C 0.2341(10) 0.1789(2) 0.21042(17)
H20 H 0.272833 0.168061 0.189977
Ag2 Ag 0.53857(11) 0.02140(2) 0.20333(2)
S5 S 0.8232(3) 0.01995(6) 0.17289(4)
Ag4 Ag 0.03857(11) 0.47860(2) 0.79667(2)
Ag3 Ag 0.53857(11) 0.97860(2) 0.29667(2)
S6 S 0.3232(3) 0.98005(6) 0.17289(4)
S8 S 0.5743(2) 0.94066(6) 0.24348(4)
Ag1 Ag 0.46143(11) 0.47860(2) 0.20333(2)
S1 S 0.1768(3) 0.48005(6) 0.17289(4)
S2 S 0.4257(2) 0.44066(6) 0.25652(4)
N1 N 0.3017(10) 0.4791(2) 0.11427(15)
H1 H 0.321727 0.450777 0.118383
N2 N 0.7127(8) 0.33863(19) 0.23689(16)
N3 N 0.5991(8) 0.37281(19) 0.23322(15)
H2 H 0.556855 0.379107 0.213937
C1 C 0.5558(9) 0.3957(2) 0.25939(18)
N4 N 0.3456(10) 0.4979(2) 0.08423(15)
C2 C 0.9433(11) 0.2670(3) 0.1820(2)
H3 H 0.903888 0.278608 0.161882
C3 C 0.2287(10) 0.5049(2) 0.13656(15)
N5 N 0.2018(10) 0.5464(2) 0.12950(17)
C4 C 0.9427(10) 0.2669(2) 0.24081(18)
H4 H 0.901915 0.278252 0.260948
C5 C 0.8855(10) 0.2848(2) 0.21130(19)
N6 N 0.6085(9) 0.3822(2) 0.28809(15)
H5 H 0.671286 0.358285 0.289577
H6 H 0.580951 0.397027 0.305836
C6 C 0.4039(13) 0.4711(3) 0.06377(18)
H7 H 0.416166 0.440543 0.069489
C7 C 0.4541(13) 0.4863(3) 0.0307(2)
C8 C 0.7659(10) 0.3211(2) 0.21042(17)
H8 H 0.727167 0.331939 0.189977
C9 C 0.4533(18) 0.5305(4) 0.0230(2)
H9 H 0.420833 0.551837 0.038943
C10 C 0.501(2) 0.4555(4) 0.0079(3)
H10 H 0.501144 0.424642 0.013161
Ag5 Ag 0.46143(11) 0.52140(2) 0.29667(2)
S7 S 0.6768(3) 0.51995(6) 0.17289(4)
S9 S 0.4257(2) 0.55934(6) 0.24348(4)
H21 H 0.236289 0.558639 0.107393
H22 H 0.146241 0.566667 0.146077
S3 S 0.8232(3) 0.51995(6) 0.82711(4)
N7 N 0.6983(10) 0.5209(2) 0.88573(15)
H11 H 0.678273 0.549223 0.881617
N8 N 0.6544(10) 0.5021(2) 0.91577(15)
C11 C 0.7713(10) 0.4951(2) 0.86344(15)
N9 N 0.7982(10) 0.4536(2) 0.87050(17)
C12 C 0.5961(13) 0.5289(3) 0.93623(18)
H12 H 0.583834 0.559457 0.930511
C13 C 0.5459(13) 0.5137(3) 0.9693(2)
C14 C 0.5467(18) 0.4695(4) 0.9770(2)
H13 H 0.579167 0.448163 0.961057
C15 C 0.499(2) 0.5445(4) 0.9921(3)
H14 H 0.498856 0.575358 0.986839
Ag6 Ag 0.53857(11) 0.52140(2) 0.79667(2)
H23 H 0.763711 0.441361 0.892607
H24 H 0.853759 0.433333 0.853923
Ag7 Ag 0.96143(11) 0.52140(2) 0.20333(2)
Ag1_2 Ag 0.03857(11) 0.52140(2) 0.70333(2)
S1_2 S 0.3232(3) 0.51995(6) 0.67289(4)
S2_2 S 0.0743(2) 0.55934(6) 0.75652(4)
N1_2 N 0.1983(10) 0.5209(2) 0.61427(15)
H1_2 H 0.178273 0.549223 0.618383
N4_2 N 0.1544(10) 0.5021(2) 0.58423(15)
C3_2 C 0.2713(10) 0.4951(2) 0.63656(15)
N5_2 N 0.2982(10) 0.4536(2) 0.62950(17)
C6_2 C 0.0961(13) 0.5289(3) 0.56377(18)
H7_2 H 0.083834 0.559457 0.569489
C7_2 C 0.0459(13) 0.5137(3) 0.5307(2)
C9_2 C 0.0467(18) 0.4695(4) 0.5230(2)
H9_2 H 0.079167 0.448163 0.538943
C15_2 C 0.001(2) 0.4555(4) 0.4921(3)
H14_2 H 0.001144 0.424642 0.486839
Ag7_2 Ag 0.53857(11) 0.47860(2) 0.70333(2)
S9_2 S 0.0743(2) 0.44066(6) 0.74348(4)
H21_2 H 0.263711 0.441361 0.607393
H22_2 H 0.353759 0.433333 0.646077
S6_2 S 0.1768(3) 0.01995(6) 0.67289(4)
N2_2 N 0.7873(8) 0.66137(19) 0.73689(16)
N3_2 N 0.9009(8) 0.62719(19) 0.73322(15)
H2_2 H 0.943145 0.620893 0.713937
C1_2 C 0.9442(9) 0.6043(2) 0.75939(18)
C2_2 C 0.5567(11) 0.7330(3) 0.6820(2)
H3_2 H 0.596112 0.721392 0.661882
C4_2 C 0.5573(10) 0.7331(2) 0.74081(18)
H4_2 H 0.598085 0.721748 0.760948
C5_2 C 0.6145(10) 0.7152(2) 0.71130(19)
N6_2 N 0.8915(9) 0.6178(2) 0.78809(15)
H5_2 H 0.828714 0.641715 0.789577
H6_2 H 0.919049 0.602973 0.805836
C8_2 C 0.7341(10) 0.6789(2) 0.71042(17)
H8_2 H 0.772833 0.668061 0.689977
C10_2 C 0.999(2) 0.5445(4) 0.5079(3)
H10_2 H 0.998856 0.575358 0.513161
S3_2 S 0.6768(3) 0.48005(6) 0.32711(4)
N7_2 N 0.8017(10) 0.4791(2) 0.38573(15)
H11_2 H 0.821727 0.450777 0.381617
N8_2 N 0.8456(10) 0.4979(2) 0.41577(15)
C11_2 C 0.7287(10) 0.5049(2) 0.36344(15)
N9_2 N 0.7018(10) 0.5464(2) 0.37050(17)
C12_2 C 0.9039(13) 0.4711(3) 0.43623(18)
H12_2 H 0.916166 0.440543 0.430511
C13_2 C 0.9541(13) 0.4863(3) 0.4693(2)
C14_2 C 0.9533(18) 0.5305(4) 0.4770(2)
H13_2 H 0.920833 0.551837 0.461057
N10_2 N 0.2127(8) 0.83863(19) 0.73689(16)
N11_2 N 0.0991(8) 0.87281(19) 0.73322(15)
H15_2 H 0.056855 0.879107 0.713937
C16_2 C 0.0558(9) 0.8957(2) 0.75939(18)
C17_2 C 0.4433(11) 0.7670(3) 0.6820(2)
H16_2 H 0.403888 0.778608 0.661882
C18_2 C 0.4427(10) 0.7669(2) 0.74081(18)
H17_2 H 0.401915 0.778252 0.760948
C19_2 C 0.3855(10) 0.7848(2) 0.71130(19)
N12_2 N 0.1085(9) 0.8822(2) 0.78809(15)
H18_2 H 0.171286 0.858285 0.789577
H19_2 H 0.080951 0.897027 0.805836
C20_2 C 0.2659(10) 0.8211(2) 0.71042(17)
H20_2 H 0.227167 0.831939 0.689977
Ag6_2 Ag 0.96143(11) 0.47860(2) 0.29667(2)
S7_2 S 0.8232(3) 0.48005(6) 0.67289(4)
H23_2 H 0.736289 0.558639 0.392607
H24_2 H 0.646241 0.566667 0.353923
Ag3_2 Ag 0.96143(11) 0.02140(2) 0.79667(2)
S8_2 S 0.9257(2) 0.05934(6) 0.74348(4)
S4_2 S 0.9257(2) 0.94066(6) 0.75652(4)
Ag2_2 Ag 0.96143(11) 0.97860(2) 0.70333(2)
S5_2 S 0.6768(3) 0.98005(6) 0.67289(4)
Ag7_3 Ag 0.03857(11) 0.02140(2) 0.29667(2)
C3_3 C 0.7713(10) 0.0049(2) 0.36344(15)
N5_3 N 0.7982(10) 0.0464(2) 0.37050(17)
C9_3 C 0.5467(18) 0.0305(4) 0.4770(2)
H9_3 H 0.579167 0.051837 0.461057
N7_3 N 0.3017(10) 0.0209(2) 0.61427(15)
H11_3 H 0.321727 0.049223 0.618383
N8_3 N 0.3456(10) 0.0021(2) 0.58423(15)
C12_3 C 0.4039(13) 0.0289(3) 0.56377(18)
H12_3 H 0.416166 0.059457 0.569489
C13_3 C 0.4541(13) 0.0137(3) 0.5307(2)
C15_3 C 0.501(2) 0.0445(4) 0.5079(3)
H14_3 H 0.501144 0.075358 0.513161
Ag6_3 Ag 0.46143(11) 0.02140(2) 0.70333(2)
S7_3 S 0.3232(3) 0.01995(6) 0.32711(4)
H21_3 H 0.763711 0.0586388 0.392607
H22_3 H 0.853759 0.0666668 0.353923
S1_3 S 0.8232(3) 0.98005(6) 0.32711(4)
N1_3 N 0.6983(10) 0.9791(2) 0.38573(15)
H1_3 H 0.678273 0.950777 0.381617
N2_3 N 0.2873(8) 0.83863(19) 0.26311(16)
N3_3 N 0.4009(8) 0.87281(19) 0.26678(15)
H2_3 H 0.443145 0.879107 0.286063
C1_3 C 0.4442(9) 0.8957(2) 0.24061(18)
N4_3 N 0.6544(10) 0.9979(2) 0.41577(15)
C2_3 C 0.0567(11) 0.7670(3) 0.3180(2)
H3_3 H 0.096112 0.778608 0.338118
C4_3 C 0.0573(10) 0.7669(2) 0.25919(18)
H4_3 H 0.098085 0.778252 0.239052
C5_3 C 0.1145(10) 0.7848(2) 0.28870(19)
N6_3 N 0.3915(9) 0.8822(2) 0.21191(15)
H5_3 H 0.328714 0.858285 0.210423
H6_3 H 0.419049 0.897027 0.194164
C6_3 C 0.5961(13) 0.9711(3) 0.43623(18)
H7_3 H 0.583834 0.940543 0.430511
C7_3 C 0.5459(13) 0.9863(3) 0.4693(2)
C8_3 C 0.2341(10) 0.8211(2) 0.28958(17)
H8_3 H 0.272833 0.831939 0.310023
C10_3 C 0.499(2) 0.9555(4) 0.4921(3)
H10_3 H 0.498856 0.924642 0.486839
C11_3 C 0.2287(10) 0.9951(2) 0.63656(15)
N9_3 N 0.2018(10) 0.9536(2) 0.62950(17)
C14_3 C 0.4533(18) 0.9695(4) 0.5230(2)
H13_3 H 0.420833 0.948163 0.538943
H23_3 H 0.236289 0.941361 0.607393
H24_3 H 0.146241 0.933333 0.646077
N10_3 N 0.7127(8) 0.66137(19) 0.26311(16)
N11_3 N 0.5991(8) 0.62719(19) 0.26678(15)
H15_3 H 0.556855 0.620893 0.286063
C16_3 C 0.5558(9) 0.6043(2) 0.24061(18)
C17_3 C 0.9433(11) 0.7330(3) 0.3180(2)
H16_3 H 0.903888 0.721392 0.338118
C18_3 C 0.9427(10) 0.7331(2) 0.25919(18)
H17_3 H 0.901915 0.721748 0.239052
C19_3 C 0.8855(10) 0.7152(2) 0.28870(19)
N12_3 N 0.6085(9) 0.6178(2) 0.21191(15)
H18_3 H 0.671286 0.641715 0.210423
H19_3 H 0.580951 0.602973 0.194164
C20_3 C 0.7659(10) 0.6789(2) 0.28958(17)
H20_3 H 0.727167 0.668061 0.310023
S5_3 S 0.1768(3) 0.51995(6) 0.32711(4)
S5_4 S 0.3232(3) 0.48005(6) 0.82711(4)
C11_4 C 0.2713(10) 0.0049(2) 0.13656(15)
N9_4 N 0.2982(10) 0.0464(2) 0.12950(17)
C14_4 C 0.0467(18) 0.0305(4) 0.0230(2)
H13_4 H 0.079167 0.051837 0.038943
H23_4 H 0.263711 0.0586388 0.107393
H24_4 H 0.353759 0.0666668 0.146077
N2_4 N 0.2127(8) 0.16137(19) 0.76311(16)
N3_4 N 0.0991(8) 0.12719(19) 0.76678(15)
H2_4 H 0.056855 0.120893 0.786063
C1_4 C 0.0558(9) 0.1043(2) 0.74061(18)
C2_4 C 0.4433(11) 0.2330(3) 0.8180(2)
H3_4 H 0.403888 0.221392 0.838118
C4_4 C 0.4427(10) 0.2331(2) 0.75919(18)
H4_4 H 0.401915 0.221748 0.739052
C5_4 C 0.3855(10) 0.2152(2) 0.78870(19)
N6_4 N 0.1085(9) 0.1178(2) 0.71191(15)
H5_4 H 0.171286 0.141715 0.710423
H6_4 H 0.080951 0.102973 0.694164
C8_4 C 0.2659(10) 0.1789(2) 0.78958(17)
H8_4 H 0.227167 0.168061 0.810023
C10_4 C 0.001(2) 0.0445(4) 0.9921(3)
H10_4 H 0.001144 0.075358 0.986839
N10_4 N 0.7873(8) 0.33863(19) 0.76311(16)
N11_4 N 0.9009(8) 0.37281(19) 0.76678(15)
H15_4 H 0.943145 0.379107 0.786063
C16_4 C 0.9442(9) 0.3957(2) 0.74061(18)
C17_4 C 0.5567(11) 0.2670(3) 0.8180(2)
H16_4 H 0.596112 0.278608 0.838118
C18_4 C 0.5573(10) 0.2669(2) 0.75919(18)
H17_4 H 0.598085 0.278252 0.739052
C19_4 C 0.6145(10) 0.2848(2) 0.78870(19)
N12_4 N 0.8915(9) 0.3822(2) 0.71191(15)
H18_4 H 0.828714 0.358285 0.710423
H19_4 H 0.919049 0.397027 0.694164
C20_4 C 0.7341(10) 0.3211(2) 0.78958(17)
H20_4 H 0.772833 0.331939 0.810023
N7_4 N 0.1983(10) 0.9791(2) 0.11427(15)
H11_4 H 0.178273 0.950777 0.118383
N8_4 N 0.1544(10) 0.9979(2) 0.08423(15)
C12_4 C 0.0961(13) 0.9711(3) 0.06377(18)
H12_4 H 0.083834 0.940543 0.069489
C13_4 C 0.0459(13) 0.9863(3) 0.0307(2)
Ag6_4 Ag 0.03857(11) 0.97860(2) 0.20333(2)
S7_4 S 0.1768(3) 0.98005(6) 0.82711(4)
S1_4 S 0.6768(3) 0.01995(6) 0.82711(4)
N1_4 N 0.8017(10) 0.0209(2) 0.88573(15)
H1_4 H 0.821727 0.049223 0.881617
N4_4 N 0.8456(10) 0.0021(2) 0.91577(15)
C6_4 C 0.9039(13) 0.0289(3) 0.93623(18)
H7_4 H 0.916166 0.059457 0.930511
C7_4 C 0.9541(13) 0.0137(3) 0.9693(2)
C15_4 C 0.999(2) 0.9555(4) 0.0079(3)
H14_4 H 0.998856 0.924642 0.013161
C3_4 C 0.7287(10) 0.9951(2) 0.86344(15)
N5_4 N 0.7018(10) 0.9536(2) 0.87050(17)
C9_4 C 0.9533(18) 0.9695(4) 0.9770(2)
H9_4 H 0.920833 0.948163 0.961057
Ag7_4 Ag 0.46143(11) 0.97860(2) 0.79667(2)
H21_4 H 0.736289 0.941361 0.892607
H22_4 H 0.646241 0.933333 0.853923
N7_5 N 0.1983(10) 0.0209(2) 0.38573(15)
H11_5 H 0.178273 0.049223 0.381617
N8_5 N 0.1544(10) 0.0021(2) 0.41577(15)
C12_5 C 0.0961(13) 0.0289(3) 0.43623(18)
H12_5 H 0.083834 0.059457 0.430511
C13_5 C 0.0459(13) 0.0137(3) 0.4693(2)
C10_5 C 0.001(2) 0.9555(4) 0.5079(3)
H10_5 H 0.001144 0.924642 0.513161
C11_5 C 0.2713(10) 0.9951(2) 0.36344(15)
N9_5 N 0.2982(10) 0.9536(2) 0.37050(17)
C14_5 C 0.0467(18) 0.9695(4) 0.4770(2)
H13_5 H 0.079167 0.948163 0.461057
H23_5 H 0.263711 0.941361 0.392607
H24_5 H 0.353759 0.933333 0.353923
C3_5 C 0.7287(10) 0.0049(2) 0.63656(15)
N5_5 N 0.7018(10) 0.0464(2) 0.62950(17)
C9_5 C 0.9533(18) 0.0305(4) 0.5230(2)
H9_5 H 0.920833 0.051837 0.538943
C15_5 C 0.999(2) 0.0445(4) 0.4921(3)
H14_5 H 0.998856 0.075358 0.486839
H21_5 H 0.736289 0.0586388 0.607393
H22_5 H 0.646241 0.0666668 0.646077
N1_5 N 0.8017(10) 0.9791(2) 0.61427(15)
H1_5 H 0.821727 0.950777 0.618383
N4_5 N 0.8456(10) 0.9979(2) 0.58423(15)
C6_5 C 0.9039(13) 0.9711(3) 0.56377(18)
H7_5 H 0.916166 0.940543 0.569489
C7_5 C 0.9541(13) 0.9863(3) 0.5307(2)
N1_6 N 0.6983(10) 0.0209(2) 0.11427(15)
H1_6 H 0.678273 0.049223 0.118383
N4_6 N 0.6544(10) 0.0021(2) 0.08423(15)
C6_6 C 0.5961(13) 0.0289(3) 0.06377(18)
H7_6 H 0.583834 0.059457 0.069489
C7_6 C 0.5459(13) 0.0137(3) 0.0307(2)
C10_6 C 0.499(2) 0.0445(4) 0.0079(3)
H10_6 H 0.498856 0.075358 0.013161
C11_6 C 0.2287(10) 0.0049(2) 0.86344(15)
N9_6 N 0.2018(10) 0.0464(2) 0.87050(17)
C14_6 C 0.4533(18) 0.0305(4) 0.9770(2)
H13_6 H 0.420833 0.051837 0.961057
H23_6 H 0.236289 0.0586388 0.892607
H24_6 H 0.146241 0.0666668 0.853923
C3_6 C 0.7713(10) 0.9951(2) 0.13656(15)
N5_6 N 0.7982(10) 0.9536(2) 0.12950(17)
C9_6 C 0.5467(18) 0.9695(4) 0.0230(2)
H9_6 H 0.579167 0.948163 0.038943
H21_6 H 0.763711 0.941361 0.107393
H22_6 H 0.853759 0.933333 0.146077
N7_6 N 0.3017(10) 0.9791(2) 0.88573(15)
H11_6 H 0.321727 0.950777 0.881617
N8_6 N 0.3456(10) 0.9979(2) 0.91577(15)
C12_6 C 0.4039(13) 0.9711(3) 0.93623(18)
H12_6 H 0.416166 0.940543 0.930511
C13_6 C 0.4541(13) 0.9863(3) 0.9693(2)
C15_6 C 0.501(2) 0.9555(4) 0.9921(3)
H14_6 H 0.501144 0.924642 0.986839
C15_7 C 0.001(2) 0.5445(4) 0.0079(3)
H14_7 H 0.001144 0.575358 0.013161
N1_7 N 0.1983(10) 0.4791(2) 0.88573(15)
H1_7 H 0.178273 0.450777 0.881617
N4_7 N 0.1544(10) 0.4979(2) 0.91577(15)
C3_7 C 0.2713(10) 0.5049(2) 0.86344(15)
N5_7 N 0.2982(10) 0.5464(2) 0.87050(17)
C6_7 C 0.0961(13) 0.4711(3) 0.93623(18)
H7_7 H 0.083834 0.440543 0.930511
C7_7 C 0.0459(13) 0.4863(3) 0.9693(2)
C9_7 C 0.0467(18) 0.5305(4) 0.9770(2)
H9_7 H 0.079167 0.551837 0.961057
H21_7 H 0.263711 0.558639 0.892607
H22_7 H 0.353759 0.566667 0.853923
N7_7 N 0.8017(10) 0.5209(2) 0.11427(15)
H11_7 H 0.821727 0.549223 0.118383
N8_7 N 0.8456(10) 0.5021(2) 0.08423(15)
C11_7 C 0.7287(10) 0.4951(2) 0.13656(15)
N9_7 N 0.7018(10) 0.4536(2) 0.12950(17)
C12_7 C 0.9039(13) 0.5289(3) 0.06377(18)
H12_7 H 0.916166 0.559457 0.069489
C13_7 C 0.9541(13) 0.5137(3) 0.0307(2)
C14_7 C 0.9533(18) 0.4695(4) 0.0230(2)
H13_7 H 0.920833 0.448163 0.038943
H23_7 H 0.736289 0.441361 0.107393
H24_7 H 0.646241 0.433333 0.146077
C10_7 C 0.999(2) 0.4555(4) 0.9921(3)
H10_7 H 0.998856 0.424642 0.986839
N1_8 N 0.3017(10) 0.5209(2) 0.38573(15)
H1_8 H 0.321727 0.549223 0.381617
N4_8 N 0.3456(10) 0.5021(2) 0.41577(15)
C3_8 C 0.2287(10) 0.4951(2) 0.36344(15)
N5_8 N 0.2018(10) 0.4536(2) 0.37050(17)
C6_8 C 0.4039(13) 0.5289(3) 0.43623(18)
H7_8 H 0.416166 0.559457 0.430511
C7_8 C 0.4541(13) 0.5137(3) 0.4693(2)
C9_8 C 0.4533(18) 0.4695(4) 0.4770(2)
H9_8 H 0.420833 0.448163 0.461057
C10_8 C 0.501(2) 0.5445(4) 0.4921(3)
H10_8 H 0.501144 0.575358 0.486839
N7_8 N 0.6983(10) 0.4791(2) 0.61427(15)
H11_8 H 0.678273 0.450777 0.618383
N8_8 N 0.6544(10) 0.4979(2) 0.58423(15)
C11_8 C 0.7713(10) 0.5049(2) 0.63656(15)
N9_8 N 0.7982(10) 0.5464(2) 0.62950(17)
C12_8 C 0.5961(13) 0.4711(3) 0.56377(18)
H12_8 H 0.583834 0.440543 0.569489
C13_8 C 0.5459(13) 0.4863(3) 0.5307(2)
C14_8 C 0.5467(18) 0.5305(4) 0.5230(2)
H13_8 H 0.579167 0.551837 0.538943
C15_8 C 0.499(2) 0.4555(4) 0.5079(3)
H14_8 H 0.498856 0.424642 0.513161
H21_8 H 0.236289 0.441361 0.392607
H22_8 H 0.146241 0.433333 0.353923
H23_8 H 0.763711 0.558639 0.607393
H24_8 H 0.853759 0.566667 0.646077
S2_3 S 0.5743(2) 0.55934(6) 0.74348(4)
N2_5 N 0.2873(8) 0.66137(19) 0.76311(16)
N3_5 N 0.4009(8) 0.62719(19) 0.76678(15)
H2_5 H 0.443145 0.620893 0.786063
C1_5 C 0.4442(9) 0.6043(2) 0.74061(18)
C2_5 C 0.0567(11) 0.7330(3) 0.8180(2)
H3_5 H 0.096112 0.721392 0.838118
C4_5 C 0.0573(10) 0.7331(2) 0.75919(18)
H4_5 H 0.098085 0.721748 0.739052
C5_5 C 0.1145(10) 0.7152(2) 0.78870(19)
N6_5 N 0.3915(9) 0.6178(2) 0.71191(15)
H5_5 H 0.328714 0.641715 0.710423
H6_5 H 0.419049 0.602973 0.694164
C8_5 C 0.2341(10) 0.6789(2) 0.78958(17)
H8_5 H 0.272833 0.668061 0.810023
S9_3 S 0.5743(2) 0.44066(6) 0.75652(4)
S8_3 S 0.4257(2) 0.05934(6) 0.75652(4)
S4_3 S 0.4257(2) 0.94066(6) 0.74348(4)
N10_5 N 0.7127(8) 0.83863(19) 0.76311(16)
N11_5 N 0.5991(8) 0.87281(19) 0.76678(15)
H15_5 H 0.556855 0.879107 0.786063
C16_5 C 0.5558(9) 0.8957(2) 0.74061(18)
C17_5 C 0.9433(11) 0.7670(3) 0.8180(2)
H16_5 H 0.903888 0.778608 0.838118
C18_5 C 0.9427(10) 0.7669(2) 0.75919(18)
H17_5 H 0.901915 0.778252 0.739052
C19_5 C 0.8855(10) 0.7848(2) 0.78870(19)
N12_5 N 0.6085(9) 0.8822(2) 0.71191(15)
H18_5 H 0.671286 0.858285 0.710423
H19_5 H 0.580951 0.897027 0.694164
C20_5 C 0.7659(10) 0.8211(2) 0.78958(17)
H20_5 H 0.727167 0.831939 0.810023
S4_4 S 0.0743(2) 0.05934(6) 0.24348(4)
S8_4 S 0.0743(2) 0.94066(6) 0.25652(4)
N2_6 N 0.2127(8) 0.33863(19) 0.26311(16)
N3_6 N 0.0991(8) 0.37281(19) 0.26678(15)
H2_6 H 0.056855 0.379107 0.286063
C1_6 C 0.0558(9) 0.3957(2) 0.24061(18)
C2_6 C 0.4433(11) 0.2670(3) 0.3180(2)
H3_6 H 0.403888 0.278608 0.338118
C4_6 C 0.4427(10) 0.2669(2) 0.25919(18)
H4_6 H 0.401915 0.278252 0.239052
C5_6 C 0.3855(10) 0.2848(2) 0.28870(19)
N6_6 N 0.1085(9) 0.3822(2) 0.21191(15)
H5_6 H 0.171286 0.358285 0.210423
H6_6 H 0.080951 0.397027 0.194164
C8_6 C 0.2659(10) 0.3211(2) 0.28958(17)
H8_6 H 0.227167 0.331939 0.310023
N10_6 N 0.7873(8) 0.16137(19) 0.26311(16)
N11_6 N 0.9009(8) 0.12719(19) 0.26678(15)
H15_6 H 0.943145 0.120893 0.286063
C16_6 C 0.9442(9) 0.1043(2) 0.24061(18)
C17_6 C 0.5567(11) 0.2330(3) 0.3180(2)
H16_6 H 0.596112 0.221392 0.338118
C18_6 C 0.5573(10) 0.2331(2) 0.25919(18)
H17_6 H 0.598085 0.221748 0.239052
C19_6 C 0.6145(10) 0.2152(2) 0.28870(19)
N12_6 N 0.8915(9) 0.1178(2) 0.21191(15)
H18_6 H 0.828714 0.141715 0.210423
H19_6 H 0.919049 0.102973 0.194164
C20_6 C 0.7341(10) 0.1789(2) 0.28958(17)
H20_6 H 0.772833 0.168061 0.310023
S2_4 S 0.9257(2) 0.44066(6) 0.24348(4)
S9_4 S 0.9257(2) 0.55934(6) 0.25652(4)
N10_7 N 0.2873(8) 0.33863(19) 0.73689(16)
N11_7 N 0.4009(8) 0.37281(19) 0.73322(15)
H15_7 H 0.443145 0.379107 0.713937
C16_7 C 0.4442(9) 0.3957(2) 0.75939(18)
C17_7 C 0.0567(11) 0.2670(3) 0.6820(2)
H16_7 H 0.096112 0.278608 0.661882
C18_7 C 0.0573(10) 0.2669(2) 0.74081(18)
H17_7 H 0.098085 0.278252 0.760948
C19_7 C 0.1145(10) 0.2848(2) 0.71130(19)
N12_7 N 0.3915(9) 0.3822(2) 0.78809(15)
H18_7 H 0.328714 0.358285 0.789577
H19_7 H 0.419049 0.397027 0.805836
C20_7 C 0.2341(10) 0.3211(2) 0.71042(17)
H20_7 H 0.272833 0.331939 0.689977
N2_7 N 0.7127(8) 0.16137(19) 0.73689(16)
N3_7 N 0.5991(8) 0.12719(19) 0.73322(15)
H2_7 H 0.556855 0.120893 0.713937
C1_7 C 0.5558(9) 0.1043(2) 0.75939(18)
C2_7 C 0.9433(11) 0.2330(3) 0.6820(2)
H3_7 H 0.903888 0.221392 0.661882
C4_7 C 0.9427(10) 0.2331(2) 0.74081(18)
H4_7 H 0.901915 0.221748 0.760948
C5_7 C 0.8855(10) 0.2152(2) 0.71130(19)
N6_7 N 0.6085(9) 0.1178(2) 0.78809(15)
H5_7 H 0.671286 0.141715 0.789577
H6_7 H 0.580951 0.102973 0.805836
C8_7 C 0.7659(10) 0.1789(2) 0.71042(17)
H8_7 H 0.727167 0.168061 0.689977
N2_8 N 0.7873(8) 0.83863(19) 0.23689(16)
N3_8 N 0.9009(8) 0.87281(19) 0.23322(15)
H2_8 H 0.943145 0.879107 0.213937
C1_8 C 0.9442(9) 0.8957(2) 0.25939(18)
C2_8 C 0.5567(11) 0.7670(3) 0.1820(2)
H3_8 H 0.596112 0.778608 0.161882
C4_8 C 0.5573(10) 0.7669(2) 0.24081(18)
H4_8 H 0.598085 0.778252 0.260948
C5_8 C 0.6145(10) 0.7848(2) 0.21130(19)
N6_8 N 0.8915(9) 0.8822(2) 0.28809(15)
H5_8 H 0.828714 0.858285 0.289577
H6_8 H 0.919049 0.897027 0.305836
C8_8 C 0.7341(10) 0.8211(2) 0.21042(17)
H8_8 H 0.772833 0.831939 0.189977
N10_8 N 0.2127(8) 0.66137(19) 0.23689(16)
N11_8 N 0.0991(8) 0.62719(19) 0.23322(15)
H15_8 H 0.056855 0.620893 0.213937
C16_8 C 0.0558(9) 0.6043(2) 0.25939(18)
C17_8 C 0.4433(11) 0.7330(3) 0.1820(2)
H16_8 H 0.403888 0.721392 0.161882
C18_8 C 0.4427(10) 0.7331(2) 0.24081(18)
H17_8 H 0.401915 0.721748 0.260948
C19_8 C 0.3855(10) 0.7152(2) 0.21130(19)
N12_8 N 0.1085(9) 0.6178(2) 0.28809(15)
H18_8 H 0.171286 0.641715 0.289577
H19_8 H 0.080951 0.602973 0.305836
C20_8 C 0.2659(10) 0.6789(2) 0.21042(17)
H20_8 H 0.227167 0.668061 0.189977
O1 O 0.5168(8) 0.38783(17) 0.16595(13)
F1 F 0.3755(10) 0.3092(2) 0.17980(16)
O2 O 0.3595(10) 0.38759(19) 0.12066(15)
F2 F 0.5396(11) 0.2990(2) 0.1406(2)
C21 C 0.4263(11) 0.3710(2) 0.14446(18)
F3 F 0.2852(13) 0.3036(2) 0.1311(2)
C22 C 0.3987(15) 0.3205(3) 0.1485(2)
F1_2 F 0.1245(10) 0.6908(2) 0.67980(16)
O2_2 O 0.1405(10) 0.61241(19) 0.62066(15)
C21_2 C 0.0737(11) 0.6290(2) 0.64446(18)
F3_2 F 0.2148(13) 0.6964(2) 0.6311(2)
C22_2 C 0.1013(15) 0.6795(3) 0.6485(2)
O1_2 O 0.9832(8) 0.61217(17) 0.66595(13)
F2_2 F 0.9604(11) 0.7010(2) 0.6406(2)
O1_3 O 0.4832(8) 0.88783(17) 0.33405(13)
F1_3 F 0.6245(10) 0.8092(2) 0.32020(16)
O2_3 O 0.6405(10) 0.88759(19) 0.37934(15)
F2_3 F 0.4604(11) 0.7990(2) 0.3594(2)
C21_3 C 0.5737(11) 0.8710(2) 0.35554(18)
F3_3 F 0.7148(13) 0.8036(2) 0.3689(2)
C22_3 C 0.6013(15) 0.8205(3) 0.3515(2)
O1_4 O 0.0168(8) 0.11217(17) 0.83405(13)
F2_4 F 0.0396(11) 0.2010(2) 0.8594(2)
F1_4 F 0.8755(10) 0.1908(2) 0.82020(16)
O2_4 O 0.8595(10) 0.11241(19) 0.87934(15)
C21_4 C 0.9263(11) 0.1290(2) 0.85554(18)
F3_4 F 0.7852(13) 0.1964(2) 0.8689(2)
C22_4 C 0.8987(15) 0.1795(3) 0.8515(2)
O1_5 O 0.0168(8) 0.88783(17) 0.66595(13)
F2_5 F 0.0396(11) 0.7990(2) 0.6406(2)
F1_5 F 0.8755(10) 0.8092(2) 0.67980(16)
O2_5 O 0.8595(10) 0.88759(19) 0.62066(15)
C21_5 C 0.9263(11) 0.8710(2) 0.64446(18)
F3_5 F 0.7852(13) 0.8036(2) 0.6311(2)
C22_5 C 0.8987(15) 0.8205(3) 0.6485(2)
O1_6 O 0.4832(8) 0.11217(17) 0.16595(13)
F1_6 F 0.6245(10) 0.1908(2) 0.17980(16)
O2_6 O 0.6405(10) 0.11241(19) 0.12066(15)
F2_6 F 0.4604(11) 0.2010(2) 0.1406(2)
C21_6 C 0.5737(11) 0.1290(2) 0.14446(18)
F3_6 F 0.7148(13) 0.1964(2) 0.1311(2)
C22_6 C 0.6013(15) 0.1795(3) 0.1485(2)
F1_7 F 0.1245(10) 0.3092(2) 0.82020(16)
O2_7 O 0.1405(10) 0.38759(19) 0.87934(15)
C21_7 C 0.0737(11) 0.3710(2) 0.85554(18)
F3_7 F 0.2148(13) 0.3036(2) 0.8689(2)
C22_7 C 0.1013(15) 0.3205(3) 0.8515(2)
O1_7 O 0.9832(8) 0.38783(17) 0.83405(13)
F2_7 F 0.9604(11) 0.2990(2) 0.8594(2)
O1_8 O 0.5168(8) 0.61217(17) 0.33405(13)
F1_8 F 0.3755(10) 0.6908(2) 0.32020(16)
O2_8 O 0.3595(10) 0.61241(19) 0.37934(15)
F2_8 F 0.5396(11) 0.7010(2) 0.3594(2)
C21_8 C 0.4263(11) 0.6290(2) 0.35554(18)
F3_8 F 0.2852(13) 0.6964(2) 0.3689(2)
C22_8 C 0.3987(15) 0.6795(3) 0.3515(2)
O1_9 O 0.4832(8) 0.61217(17) 0.83405(13)
F1_9 F 0.6245(10) 0.6908(2) 0.82020(16)
O2_9 O 0.6405(10) 0.61241(19) 0.87934(15)
F2_9 F 0.4604(11) 0.7010(2) 0.8594(2)
C21_9 C 0.5737(11) 0.6290(2) 0.85554(18)
F3_9 F 0.7148(13) 0.6964(2) 0.8689(2)
C22_9 C 0.6013(15) 0.6795(3) 0.8515(2)
O1_10 O 0.0168(8) 0.38783(17) 0.33405(13)
F2_10 F 0.0396(11) 0.2990(2) 0.3594(2)
F1_10 F 0.8755(10) 0.3092(2) 0.32020(16)
O2_10 O 0.8595(10) 0.38759(19) 0.37934(15)
C21_10 C 0.9263(11) 0.3710(2) 0.35554(18)
F3_10 F 0.7852(13) 0.3036(2) 0.3689(2)
C22_10 C 0.8987(15) 0.3205(3) 0.3515(2)
O1_11 O 0.5168(8) 0.11217(17) 0.66595(13)
F1_11 F 0.3755(10) 0.1908(2) 0.67980(16)
O2_11 O 0.3595(10) 0.11241(19) 0.62066(15)
F2_11 F 0.5396(11) 0.2010(2) 0.6406(2)
C21_11 C 0.4263(11) 0.1290(2) 0.64446(18)
F3_11 F 0.2852(13) 0.1964(2) 0.6311(2)
C22_11 C 0.3987(15) 0.1795(3) 0.6485(2)
F1_12 F 0.1245(10) 0.8092(2) 0.17980(16)
O2_12 O 0.1405(10) 0.88759(19) 0.12066(15)
C21_12 C 0.0737(11) 0.8710(2) 0.14446(18)
F3_12 F 0.2148(13) 0.8036(2) 0.1311(2)
C22_12 C 0.1013(15) 0.8205(3) 0.1485(2)
O1_12 O 0.9832(8) 0.88783(17) 0.16595(13)
F2_12 F 0.9604(11) 0.7990(2) 0.1406(2)
F1_13 F 0.1245(10) 0.1908(2) 0.32020(16)
O2_13 O 0.1405(10) 0.11241(19) 0.37934(15)
C21_13 C 0.0737(11) 0.1290(2) 0.35554(18)
F3_13 F 0.2148(13) 0.1964(2) 0.3689(2)
C22_13 C 0.1013(15) 0.1795(3) 0.3515(2)
O1_13 O 0.9832(8) 0.11217(17) 0.33405(13)
F2_13 F 0.9604(11) 0.2010(2) 0.3594(2)
O1_14 O 0.5168(8) 0.88783(17) 0.83405(13)
F1_14 F 0.3755(10) 0.8092(2) 0.82020(16)
O2_14 O 0.3595(10) 0.88759(19) 0.87934(15)
F2_14 F 0.5396(11) 0.7990(2) 0.8594(2)
C21_14 C 0.4263(11) 0.8710(2) 0.85554(18)
F3_14 F 0.2852(13) 0.8036(2) 0.8689(2)
C22_14 C 0.3987(15) 0.8205(3) 0.8515(2)
O1_15 O 0.0168(8) 0.61217(17) 0.16595(13)
F2_15 F 0.0396(11) 0.7010(2) 0.1406(2)
F1_15 F 0.8755(10) 0.6908(2) 0.17980(16)
O2_15 O 0.8595(10) 0.61241(19) 0.12066(15)
C21_15 C 0.9263(11) 0.6290(2) 0.14446(18)
F3_15 F 0.7852(13) 0.6964(2) 0.1311(2)
C22_15 C 0.8987(15) 0.6795(3) 0.1485(2)
O1_16 O 0.4832(8) 0.38783(17) 0.66595(13)
F1_16 F 0.6245(10) 0.3092(2) 0.67980(16)
O2_16 O 0.6405(10) 0.38759(19) 0.62066(15)
F2_16 F 0.4604(11) 0.2990(2) 0.6406(2)
C21_16 C 0.5737(11) 0.3710(2) 0.64446(18)
F3_16 F 0.7148(13) 0.3036(2) 0.6311(2)
C22_16 C 0.6013(15) 0.3205(3) 0.6485(2)
loop_
_geom_bond_atom_site_label_1
_geom_bond_atom_site_label_2
_geom_bond_site_symmetry_1
_geom_bond_site_symmetry_2
S4 C16 1_555 1_555
N10 N11 1_555 1_555
N11 H15 1_555 1_555
C16 N11 1_555 1_555
H16 C17 1_555 1_555
H17 C18 1_555 1_555
C19 C17 1_555 1_555
N12 C16 1_555 1_555
H18 N12 1_555 1_555
H19 N12 1_555 1_555
C20 N10 1_555 1_555
H20 C20 1_555 1_555
Ag2 S4 1_555 1_555
S5 Ag2 1_555 1_555
C18 C19 1_555 1_555
C19 C20 1_555 1_555
Ag3 S8 1_555 1_555
Ag1 S1 1_555 1_555
S1 C3 1_555 1_555
S2 Ag1 1_555 1_555
N1 H1 1_555 1_555
N2 N3 1_555 1_555
N3 H2 1_555 1_555
C1 S2 1_555 1_555
N4 N1 1_555 1_555
C2 H3 1_555 1_555
C3 N1 1_555 1_555
N5 C3 1_555 1_555
C4 H4 1_555 1_555
C5 C2 1_555 1_555
N6 C1 1_555 1_555
H5 N6 1_555 1_555
H6 N6 1_555 1_555
C6 N4 1_555 1_555
H7 C6 1_555 1_555
C7 C6 1_555 1_555
C8 N2 1_555 1_555
H8 C8 1_555 1_555
C9 C7 1_555 1_555
H9 C9 1_555 1_555
C10 C7 1_555 1_555
H10 C10 1_555 1_555
Ag5 S2 1_555 1_555
S7 Ag1 1_555 1_555
S9 Ag1 1_555 1_555
N3 C1 1_555 1_555
C4 C5 1_555 1_555
C5 C8 1_555 1_555
Ag5 S9 1_555 1_555
N5 H21 1_555 1_555
N5 H22 1_555 1_555
S3 C11 1_555 1_555
N7 H11 1_555 1_555
N8 N7 1_555 1_555
C11 N7 1_555 1_555
N9 C11 1_555 1_555
C12 N8 1_555 1_555
H12 C12 1_555 1_555
C13 C12 1_555 1_555
H13 C14 1_555 1_555
H14 C15 1_555 1_555
Ag6 S3 1_555 1_555
C13 C14 1_555 1_555
C13 C15 1_555 1_555
N9 H23 1_555 1_555
N9 H24 1_555 1_555
Ag1_2 S1_2 1_555 1_555
S1_2 C3_2 1_555 1_555
S2_2 Ag1_2 1_555 1_555
N1_2 H1_2 1_555 1_555
N4_2 N1_2 1_555 1_555
C3_2 N1_2 1_555 1_555
N5_2 C3_2 1_555 1_555
C6_2 N4_2 1_555 1_555
H7_2 C6_2 1_555 1_555
C7_2 C6_2 1_555 1_555
C9_2 C7_2 1_555 1_555
H9_2 C9_2 1_555 1_555
C15_2 C9_2 1_555 1_555
H14_2 C15_2 1_555 1_555
Ag4 S2_2 1_555 1_555
Ag7_2 S1_2 1_555 1_555
S9_2 Ag1_2 1_555 1_555
Ag4 S9_2 1_555 1_555
N5_2 H21_2 1_555 1_555
N5_2 H22_2 1_555 1_555
N2_2 N3_2 1_555 1_555
N3_2 H2_2 1_555 1_555
C2_2 H3_2 1_555 1_555
C4_2 H4_2 1_555 1_555
C5_2 C2_2 1_555 1_555
N6_2 C1_2 1_555 1_555
H5_2 N6_2 1_555 1_555
H6_2 N6_2 1_555 1_555
C8_2 N2_2 1_555 1_555
H8_2 C8_2 1_555 1_555
H10_2 C10_2 1_555 1_555
S3_2 C11_2 1_555 1_555
N7_2 H11_2 1_555 1_555
N8_2 N7_2 1_555 1_555
C11_2 N7_2 1_555 1_555
N9_2 C11_2 1_555 1_555
C12_2 N8_2 1_555 1_555
H12_2 C12_2 1_555 1_555
C13_2 C12_2 1_555 1_555
C14_2 C10_2 1_555 1_555
H13_2 C14_2 1_555 1_555
N10_2 N11_2 1_555 1_555
N11_2 H15_2 1_555 1_555
C16_2 N11_2 1_555 1_555
C17_2 C2_2 1_555 1_555
H16_2 C17_2 1_555 1_555
C18_2 C4_2 1_555 1_555
H17_2 C18_2 1_555 1_555
C19_2 C17_2 1_555 1_555
N12_2 C16_2 1_555 1_555
H18_2 N12_2 1_555 1_555
H19_2 N12_2 1_555 1_555
C20_2 N10_2 1_555 1_555
H20_2 C20_2 1_555 1_555
Ag5 S3_2 1_555 1_555
Ag6_2 S3_2 1_555 1_555
N3_2 C1_2 1_555 1_555
C4_2 C5_2 1_555 1_555
C5_2 C8_2 1_555 1_555
C13_2 C14_2 1_555 1_555
C18_2 C19_2 1_555 1_555
C19_2 C20_2 1_555 1_555
N9_2 H23_2 1_555 1_555
N9_2 H24_2 1_555 1_555
Ag3_2 S8_2 1_555 1_555
Ag2_2 S4_2 1_555 1_555
S5_2 Ag2_2 1_555 1_555
N5_3 C3_3 1_555 1_555
H9_3 C9_3 1_555 1_555
N7_3 H11_3 1_555 1_555
N8_3 N7_3 1_555 1_555
C12_3 N8_3 1_555 1_555
H12_3 C12_3 1_555 1_555
C13_3 C12_3 1_555 1_555
C15_3 C9_3 1_555 1_555
H14_3 C15_3 1_555 1_555
Ag6_3 S6_2 1_555 1_555
C13_3 C15_3 1_555 1_555
N5_3 H21_3 1_555 1_555
N5_3 H22_3 1_555 1_555
Ag3 S1_3 1_555 1_555
N1_3 H1_3 1_555 1_555
N2_3 N3_3 1_555 1_555
N3_3 H2_3 1_555 1_555
C1_3 S8 1_555 1_555
N4_3 N1_3 1_555 1_555
C2_3 H3_3 1_555 1_555
C4_3 H4_3 1_555 1_555
C5_3 C2_3 1_555 1_555
N6_3 C1_3 1_555 1_555
H5_3 N6_3 1_555 1_555
H6_3 N6_3 1_555 1_555
C6_3 N4_3 1_555 1_555
H7_3 C6_3 1_555 1_555
C7_3 C6_3 1_555 1_555
C8_3 N2_3 1_555 1_555
H8_3 C8_3 1_555 1_555
C10_3 C7_3 1_555 1_555
H10_3 C10_3 1_555 1_555
N9_3 C11_3 1_555 1_555
C14_3 C10_3 1_555 1_555
H13_3 C14_3 1_555 1_555
N3_3 C1_3 1_555 1_555
C4_3 C5_3 1_555 1_555
C5_3 C8_3 1_555 1_555
N9_3 H23_3 1_555 1_555
N9_3 H24_3 1_555 1_555
S9 C16_3 1_555 1_555
N10_3 N11_3 1_555 1_555
N11_3 H15_3 1_555 1_555
C16_3 N11_3 1_555 1_555
H16_3 C17_3 1_555 1_555
H17_3 C18_3 1_555 1_555
C19_3 C17_3 1_555 1_555
N12_3 C16_3 1_555 1_555
H18_3 N12_3 1_555 1_555
H19_3 N12_3 1_555 1_555
C20_3 N10_3 1_555 1_555
H20_3 C20_3 1_555 1_555
S5_3 Ag5 1_555 1_555
C18_3 C19_3 1_555 1_555
C19_3 C20_3 1_555 1_555
S5_4 Ag4 1_555 1_555
N9_4 C11_4 1_555 1_555
H13_4 C14_4 1_555 1_555
N9_4 H23_4 1_555 1_555
N9_4 H24_4 1_555 1_555
N2_4 N3_4 1_555 1_555
N3_4 H2_4 1_555 1_555
C2_4 H3_4 1_555 1_555
C4_4 H4_4 1_555 1_555
C5_4 C2_4 1_555 1_555
N6_4 C1_4 1_555 1_555
H5_4 N6_4 1_555 1_555
H6_4 N6_4 1_555 1_555
C8_4 N2_4 1_555 1_555
H8_4 C8_4 1_555 1_555
H10_4 C10_4 1_555 1_555
N10_4 N11_4 1_555 1_555
N11_4 H15_4 1_555 1_555
C16_4 N11_4 1_555 1_555
C17_4 C2_4 1_555 1_555
H16_4 C17_4 1_555 1_555
C18_4 C4_4 1_555 1_555
H17_4 C18_4 1_555 1_555
C19_4 C17_4 1_555 1_555
N12_4 C16_4 1_555 1_555
H18_4 N12_4 1_555 1_555
H19_4 N12_4 1_555 1_555
C20_4 N10_4 1_555 1_555
H20_4 C20_4 1_555 1_555
N3_4 C1_4 1_555 1_555
C4_4 C5_4 1_555 1_555
C5_4 C8_4 1_555 1_555
C18_4 C19_4 1_555 1_555
C19_4 C20_4 1_555 1_555
N7_4 H11_4 1_555 1_555
N8_4 N7_4 1_555 1_555
C12_4 N8_4 1_555 1_555
H12_4 C12_4 1_555 1_555
C13_4 C12_4 1_555 1_555
Ag6_4 S6 1_555 1_555
Ag3_2 S1_4 1_555 1_555
N1_4 H1_4 1_555 1_555
N4_4 N1_4 1_555 1_555
C6_4 N4_4 1_555 1_555
H7_4 C6_4 1_555 1_555
C7_4 C6_4 1_555 1_555
H14_4 C15_4 1_555 1_555
N5_4 C3_4 1_555 1_555
H9_4 C9_4 1_555 1_555
N5_4 H21_4 1_555 1_555
N5_4 H22_4 1_555 1_555
N7_5 H11_5 1_555 1_555
N8_5 N7_5 1_555 1_555
C12_5 N8_5 1_555 1_555
H12_5 C12_5 1_555 1_555
C13_5 C12_5 1_555 1_555
Ag7_3 S7_3 1_555 1_555
H10_5 C10_5 1_555 1_555
N9_5 C11_5 1_555 1_555
C14_5 C10_5 1_555 1_555
H13_5 C14_5 1_555 1_555
N9_5 H23_5 1_555 1_555
N9_5 H24_5 1_555 1_555
N5_5 C3_5 1_555 1_555
H9_5 C9_5 1_555 1_555
C15_5 C9_5 1_555 1_555
H14_5 C15_5 1_555 1_555
N5_5 H21_5 1_555 1_555
N5_5 H22_5 1_555 1_555
N1_5 H1_5 1_555 1_555
N4_5 N1_5 1_555 1_555
C6_5 N4_5 1_555 1_555
H7_5 C6_5 1_555 1_555
C7_5 C6_5 1_555 1_555
N1_6 H1_6 1_555 1_555
N4_6 N1_6 1_555 1_555
C6_6 N4_6 1_555 1_555
H7_6 C6_6 1_555 1_555
C7_6 C6_6 1_555 1_555
C10_6 C7_6 1_555 1_555
H10_6 C10_6 1_555 1_555
N9_6 C11_6 1_555 1_555
H13_6 C14_6 1_555 1_555
N9_6 H23_6 1_555 1_555
N9_6 H24_6 1_555 1_555
N5_6 C3_6 1_555 1_555
H9_6 C9_6 1_555 1_555
N5_6 H21_6 1_555 1_555
N5_6 H22_6 1_555 1_555
N7_6 H11_6 1_555 1_555
N8_6 N7_6 1_555 1_555
C12_6 N8_6 1_555 1_555
H12_6 C12_6 1_555 1_555
C13_6 C12_6 1_555 1_555
H14_6 C15_6 1_555 1_555
Ag7_4 S7_4 1_555 1_555
C13_6 C15_6 1_555 1_555
H14_7 C15_7 1_555 1_555
S5_4 C3_7 1_555 1_555
N1_7 H1_7 1_555 1_555
N4_7 N1_7 1_555 1_555
C3_7 N1_7 1_555 1_555
N5_7 C3_7 1_555 1_555
C6_7 N4_7 1_555 1_555
H7_7 C6_7 1_555 1_555
C7_7 C6_7 1_555 1_555
C9_7 C7_7 1_555 1_555
H9_7 C9_7 1_555 1_555
Ag6 S5_4 1_555 1_555
N5_7 H21_7 1_555 1_555
N5_7 H22_7 1_555 1_555
S7 C11_7 1_555 1_555
N7_7 H11_7 1_555 1_555
N8_7 N7_7 1_555 1_555
C11_7 N7_7 1_555 1_555
N9_7 C11_7 1_555 1_555
C12_7 N8_7 1_555 1_555
H12_7 C12_7 1_555 1_555
C13_7 C12_7 1_555 1_555
H13_7 C14_7 1_555 1_555
Ag7 S7 1_555 1_555
C13_7 C14_7 1_555 1_555
N9_7 H23_7 1_555 1_555
N9_7 H24_7 1_555 1_555
H10_7 C10_7 1_555 1_555
S5_3 C3_8 1_555 1_555
N1_8 H1_8 1_555 1_555
N4_8 N1_8 1_555 1_555
C3_8 N1_8 1_555 1_555
N5_8 C3_8 1_555 1_555
C6_8 N4_8 1_555 1_555
H7_8 C6_8 1_555 1_555
C7_8 C6_8 1_555 1_555
C9_8 C7_8 1_555 1_555
H9_8 C9_8 1_555 1_555
C10_8 C7_8 1_555 1_555
H10_8 C10_8 1_555 1_555
S7_2 C11_8 1_555 1_555
N7_8 H11_8 1_555 1_555
N8_8 N7_8 1_555 1_555
C11_8 N7_8 1_555 1_555
N9_8 C11_8 1_555 1_555
C12_8 N8_8 1_555 1_555
H12_8 C12_8 1_555 1_555
C13_8 C12_8 1_555 1_555
C14_8 C10_8 1_555 1_555
H13_8 C14_8 1_555 1_555
C15_8 C9_8 1_555 1_555
H14_8 C15_8 1_555 1_555
Ag7_2 S7_2 1_555 1_555
C13_8 C14_8 1_555 1_555
C13_8 C15_8 1_555 1_555
N5_8 H21_8 1_555 1_555
N5_8 H22_8 1_555 1_555
N9_8 H23_8 1_555 1_555
N9_8 H24_8 1_555 1_555
S2_3 Ag6 1_555 1_555
N2_5 N3_5 1_555 1_555
N3_5 H2_5 1_555 1_555
C1_5 S2_3 1_555 1_555
C2_5 H3_5 1_555 1_555
C4_5 H4_5 1_555 1_555
C5_5 C2_5 1_555 1_555
N6_5 C1_5 1_555 1_555
H5_5 N6_5 1_555 1_555
H6_5 N6_5 1_555 1_555
C8_5 N2_5 1_555 1_555
H8_5 C8_5 1_555 1_555
Ag7_2 S2_3 1_555 1_555
S9_3 Ag6 1_555 1_555
N3_5 C1_5 1_555 1_555
C4_5 C5_5 1_555 1_555
C5_5 C8_5 1_555 1_555
Ag7_2 S9_3 1_555 1_555
Ag6_3 S8_3 1_555 1_555
S4_3 C16_5 1_555 1_555
N10_5 N11_5 1_555 1_555
N11_5 H15_5 1_555 1_555
C16_5 N11_5 1_555 1_555
H16_5 C17_5 1_555 1_555
H17_5 C18_5 1_555 1_555
C19_5 C17_5 1_555 1_555
N12_5 C16_5 1_555 1_555
H18_5 N12_5 1_555 1_555
H19_5 N12_5 1_555 1_555
C20_5 N10_5 1_555 1_555
H20_5 C20_5 1_555 1_555
Ag7_4 S4_3 1_555 1_555
C18_5 C19_5 1_555 1_555
C19_5 C20_5 1_555 1_555
Ag7_3 S4_4 1_555 1_555
Ag6_4 S8_4 1_555 1_555
N2_6 N3_6 1_555 1_555
N3_6 H2_6 1_555 1_555
C2_6 H3_6 1_555 1_555
C4_6 H4_6 1_555 1_555
C5_6 C2_6 1_555 1_555
N6_6 C1_6 1_555 1_555
H5_6 N6_6 1_555 1_555
H6_6 N6_6 1_555 1_555
C8_6 N2_6 1_555 1_555
H8_6 C8_6 1_555 1_555
N10_6 N11_6 1_555 1_555
N11_6 H15_6 1_555 1_555
C16_6 N11_6 1_555 1_555
C17_6 C2_6 1_555 1_555
H16_6 C17_6 1_555 1_555
C18_6 C4_6 1_555 1_555
H17_6 C18_6 1_555 1_555
C19_6 C17_6 1_555 1_555
N12_6 C16_6 1_555 1_555
H18_6 N12_6 1_555 1_555
H19_6 N12_6 1_555 1_555
C20_6 N10_6 1_555 1_555
H20_6 C20_6 1_555 1_555
N3_6 C1_6 1_555 1_555
C4_6 C5_6 1_555 1_555
C5_6 C8_6 1_555 1_555
C18_6 C19_6 1_555 1_555
C19_6 C20_6 1_555 1_555
S2_4 Ag6_2 1_555 1_555
Ag7 S2_4 1_555 1_555
S9_4 Ag6_2 1_555 1_555
Ag7 S9_4 1_555 1_555
S9_3 C16_7 1_555 1_555
N10_7 N11_7 1_555 1_555
N11_7 H15_7 1_555 1_555
C16_7 N11_7 1_555 1_555
H16_7 C17_7 1_555 1_555
H17_7 C18_7 1_555 1_555
C19_7 C17_7 1_555 1_555
N12_7 C16_7 1_555 1_555
H18_7 N12_7 1_555 1_555
H19_7 N12_7 1_555 1_555
C20_7 N10_7 1_555 1_555
H20_7 C20_7 1_555 1_555
C18_7 C19_7 1_555 1_555
C19_7 C20_7 1_555 1_555
N2_7 N3_7 1_555 1_555
N3_7 H2_7 1_555 1_555
C1_7 S8_3 1_555 1_555
C2_7 H3_7 1_555 1_555
C4_7 H4_7 1_555 1_555
C5_7 C2_7 1_555 1_555
N6_7 C1_7 1_555 1_555
H5_7 N6_7 1_555 1_555
H6_7 N6_7 1_555 1_555
C8_7 N2_7 1_555 1_555
H8_7 C8_7 1_555 1_555
N3_7 C1_7 1_555 1_555
C4_7 C5_7 1_555 1_555
C5_7 C8_7 1_555 1_555
N2_8 N3_8 1_555 1_555
N3_8 H2_8 1_555 1_555
C2_8 H3_8 1_555 1_555
C4_8 H4_8 1_555 1_555
C5_8 C2_8 1_555 1_555
N6_8 C1_8 1_555 1_555
H5_8 N6_8 1_555 1_555
H6_8 N6_8 1_555 1_555
C8_8 N2_8 1_555 1_555
H8_8 C8_8 1_555 1_555
N10_8 N11_8 1_555 1_555
N11_8 H15_8 1_555 1_555
C16_8 N11_8 1_555 1_555
C17_8 C2_8 1_555 1_555
H16_8 C17_8 1_555 1_555
C18_8 C4_8 1_555 1_555
H17_8 C18_8 1_555 1_555
C19_8 C17_8 1_555 1_555
N12_8 C16_8 1_555 1_555
H18_8 N12_8 1_555 1_555
H19_8 N12_8 1_555 1_555
C20_8 N10_8 1_555 1_555
H20_8 C20_8 1_555 1_555
N3_8 C1_8 1_555 1_555
C4_8 C5_8 1_555 1_555
C5_8 C8_8 1_555 1_555
C18_8 C19_8 1_555 1_555
C19_8 C20_8 1_555 1_555
O1 C21 1_555 1_555
F1 C22 1_555 1_555
O2 C21 1_555 1_555
F2 C22 1_555 1_555
C21 C22 1_555 1_555
F3 C22 1_555 1_555
F1_2 C22_2 1_555 1_555
O2_2 C21_2 1_555 1_555
C21_2 C22_2 1_555 1_555
F3_2 C22_2 1_555 1_555
O1_3 C21_3 1_555 1_555
F1_3 C22_3 1_555 1_555
O2_3 C21_3 1_555 1_555
F2_3 C22_3 1_555 1_555
C21_3 C22_3 1_555 1_555
F3_3 C22_3 1_555 1_555
F1_4 C22_4 1_555 1_555
O2_4 C21_4 1_555 1_555
C21_4 C22_4 1_555 1_555
F3_4 C22_4 1_555 1_555
F1_5 C22_5 1_555 1_555
O2_5 C21_5 1_555 1_555
C21_5 C22_5 1_555 1_555
F3_5 C22_5 1_555 1_555
O1_6 C21_6 1_555 1_555
F1_6 C22_6 1_555 1_555
O2_6 C21_6 1_555 1_555
F2_6 C22_6 1_555 1_555
C21_6 C22_6 1_555 1_555
F3_6 C22_6 1_555 1_555
F1_7 C22_7 1_555 1_555
O2_7 C21_7 1_555 1_555
C21_7 C22_7 1_555 1_555
F3_7 C22_7 1_555 1_555
O1_8 C21_8 1_555 1_555
F1_8 C22_8 1_555 1_555
O2_8 C21_8 1_555 1_555
F2_8 C22_8 1_555 1_555
C21_8 C22_8 1_555 1_555
F3_8 C22_8 1_555 1_555
O1_9 C21_9 1_555 1_555
F1_9 C22_9 1_555 1_555
O2_9 C21_9 1_555 1_555
F2_9 C22_9 1_555 1_555
C21_9 C22_9 1_555 1_555
F3_9 C22_9 1_555 1_555
F1_10 C22_10 1_555 1_555
O2_10 C21_10 1_555 1_555
C21_10 C22_10 1_555 1_555
F3_10 C22_10 1_555 1_555
O1_11 C21_11 1_555 1_555
F1_11 C22_11 1_555 1_555
O2_11 C21_11 1_555 1_555
F2_11 C22_11 1_555 1_555
C21_11 C22_11 1_555 1_555
F3_11 C22_11 1_555 1_555
F1_12 C22_12 1_555 1_555
O2_12 C21_12 1_555 1_555
C21_12 C22_12 1_555 1_555
F3_12 C22_12 1_555 1_555
F1_13 C22_13 1_555 1_555
O2_13 C21_13 1_555 1_555
C21_13 C22_13 1_555 1_555
F3_13 C22_13 1_555 1_555
O1_14 C21_14 1_555 1_555
F1_14 C22_14 1_555 1_555
O2_14 C21_14 1_555 1_555
F2_14 C22_14 1_555 1_555
C21_14 C22_14 1_555 1_555
F3_14 C22_14 1_555 1_555
F1_15 C22_15 1_555 1_555
O2_15 C21_15 1_555 1_555
C21_15 C22_15 1_555 1_555
F3_15 C22_15 1_555 1_555
O1_16 C21_16 1_555 1_555
F1_16 C22_16 1_555 1_555
O2_16 C21_16 1_555 1_555
F2_16 C22_16 1_555 1_555
C21_16 C22_16 1_555 1_555
F3_16 C22_16 1_555 1_555

#END
