
###############################################################################
#
# This file contains modified crystal structure data generated from the
# MOF subset of the Cambridge Structural Database (CSD) v543 
# hosted by the Cambridge Crystallographic Data Centre (CCDC).
#
# This work is licensed under the Creative Commons
# Attribution-NonCommercial-ShareAlike 4.0 International License.
# To view a copy of this license, visit
# http://creativecommons.org/licenses/by-nc-sa/4.0/
# or send a letter to
# Creative Commons, PO Box 1866, Mountain View, CA 94042, USA.
#
# CIF created using the CSD Python API on 29 September 2022
# The structure has been converted into the P1 space group
# The structure has a 3D framework
# The original CSD entry EPUVUH is in the monoclinic crystal system
# The framework has been calculated to contain at least 10.0% void space
# The void calculation uses a probe of radius 1.32A, grid spacing 0.4
#
###############################################################################

data_EPUVUH
_chemical_formula_moiety         '(C172 H232 O56 Zn14)n'
_symmetry_cell_setting           triclinic
_symmetry_space_group_name_H-M   'P 1'
_symmetry_Int_Tables_number      1
_space_group_name_Hall           'P 1'
loop_
_symmetry_equiv_pos_site_id
_symmetry_equiv_pos_as_xyz
1 x,y,z
_cell_length_a                   20.844(5)
_cell_length_b                   20.201(5)
_cell_length_c                   11.540(3)
_cell_angle_alpha                90
_cell_angle_beta                 114.492(5)
_cell_angle_gamma                90
_cell_volume                     4421.91
loop_
_atom_site_label
_atom_site_type_symbol
_atom_site_fract_x
_atom_site_fract_y
_atom_site_fract_z
Zn7 Zn 0.79669(3) 0.30698(3) 0.00975(6)
O15 O 0.66787(19) 0.25661(17) 0.0885(4)
O19 O 0.78451(18) 0.16846(18) 0.1564(3)
C24 C 0.6602(3) 0.0312(2) 0.0753(5)
H30 H 0.6342 0.0208 0.1261
H31 H 0.6993 0.0594 0.1264
H38 H 0.7647 0.0131 0.0002
Zn1 Zn 0.29669(3) 0.19302(3) 0.50975(6)
Zn2 Zn 0.5000 0.10477(4) 0.7500
O1 O 0.37224(18) 0.12753(16) 0.5570(3)
O2 O 0.44393(19) 0.04387(18) 0.6139(4)
O5 O 0.35615(17) 0.24682(17) 0.6723(3)
O6 O 0.28451(18) 0.33154(18) 0.6564(3)
O7 O 0.45547(19) 0.16260(19) 0.8306(4)
C1 C 0.3866(3) 0.0689(2) 0.5374(5)
C2 C 0.3398(3) 0.0312(2) 0.4247(5)
H1 H 0.3658 0.0208 0.3739
H2 H 0.3007 0.0594 0.3736
H9 H 0.2353 0.0131 0.4998
C15 C 0.3419(3) 0.3014(3) 0.7078(5)
C16 C 0.3996(3) 0.3367(3) 0.8211(5)
H19 H 0.3775 0.3655 0.8611
H20 H 0.4268 0.3038 0.8834
C17 C 0.4489(3) 0.3771(2) 0.7834(5)
C18 C 0.4072(3) 0.4225(3) 0.6697(6)
H21 H 0.3783 0.3958 0.5968
H22 H 0.3762 0.4510 0.6911
C19 C 0.4574(3) 0.4644(3) 0.6363(6)
H23 H 0.4299 0.4922 0.5628
C20 C 0.5000 0.5093(4) 0.7500
H24 H 0.4685 0.5373 0.7708
C21 C 0.4932(3) 0.4222(3) 0.8964(6)
H25 H 0.4621 0.4503 0.9181
H26 H 0.5201 0.3951 0.9700
C22 C 0.5000 0.3346(3) 0.7500
H27 H 0.5268 0.3063 0.8218
H28 H 0.4843 0.1735 0.9013
H29 H 0.4330 0.1950 0.7872
Zn3 Zn 0.70331(3) 0.19302(3) 0.99025(6)
Zn6 Zn 0.20331(3) 0.30698(3) 0.49025(6)
O8 O 0.62776(18) 0.12753(16) 0.9430(3)
O9 O 0.55607(19) 0.04387(18) 0.8861(4)
O11 O 0.24067(19) 0.15936(17) 0.6058(3)
O12 O 0.75933(19) 0.15936(17) 0.8942(3)
O14 O 0.33213(19) 0.25661(17) 0.4115(4)
O16 O 0.64385(17) 0.24682(17) 0.8277(3)
O17 O 0.71549(18) 0.33154(18) 0.8436(3)
O18 O 0.21549(18) 0.16846(18) 0.3436(3)
O20 O 0.54453(19) 0.16260(19) 0.6694(4)
C23 C 0.6134(3) 0.0689(2) 0.9626(5)
C37 C 0.6581(3) 0.3014(3) 0.7922(5)
C38 C 0.6004(3) 0.3367(3) 0.6789(5)
H48 H 0.6225 0.3655 0.6389
H49 H 0.5732 0.3038 0.6166
C39 C 0.5511(3) 0.3771(2) 0.7166(5)
C40 C 0.5928(3) 0.4225(3) 0.8303(6)
H50 H 0.6217 0.3958 0.9032
H51 H 0.6238 0.4510 0.8089
C41 C 0.5426(3) 0.4644(3) 0.8637(6)
H52 H 0.5701 0.4922 0.9372
H53 H 0.5315 0.5373 0.7292
C42 C 0.5068(3) 0.4222(3) 0.6036(6)
H54 H 0.5379 0.4503 0.5819
H55 H 0.4799 0.3951 0.5300
H56 H 0.4732 0.3063 0.6782
H57 H 0.5157 0.1735 0.5987
H58 H 0.5670 0.1950 0.7128
Zn8 Zn 0.70331(3) 0.80698(3) 0.49025(6)
Zn9 Zn 0.79669(3) 0.69302(3) 0.50975(6)
O10 O 0.75933(19) 0.84064(17) 0.3942(3)
O13 O 0.83213(19) 0.75661(17) 0.4115(4)
C25 C 0.6902(2) 0.9663(2) 0.0483(5)
C26 C 0.7436(3) 0.9386(2) 0.1747(5)
H32 H 0.7202 0.9306 0.2306
H33 H 0.7803 0.9713 0.2152
C27 C 0.7774(3) 0.8741(2) 0.1574(5)
C28 C 0.8136(4) 0.8886(3) 0.0694(6)
H34 H 0.8337 0.8480 0.0539
H35 H 0.8517 0.9197 0.1104
H43 H 0.6090 0.9054 0.0385
C34 C 0.7197(3) 0.8249(3) 0.0928(5)
H44 H 0.6954 0.8158 0.1467
H45 H 0.7400 0.7838 0.0802
C35 C 0.8333(3) 0.8485(3) 0.2842(6)
H46 H 0.8641 0.8183 0.2662
H47 H 0.8617 0.8857 0.3308
C36 C 0.8050(3) 0.8136(3) 0.3692(5)
O3 O 0.24067(19) 0.84064(17) 0.1058(3)
O4 O 0.16787(19) 0.75661(17) 0.0885(4)
C3 C 0.3098(2) 0.9663(2) 0.4517(5)
C4 C 0.2564(3) 0.9386(2) 0.3253(5)
H3 H 0.2798 0.9306 0.2694
H4 H 0.2197 0.9713 0.2848
C5 C 0.2226(3) 0.8741(2) 0.3426(5)
C6 C 0.1864(4) 0.8886(3) 0.4306(6)
H5 H 0.1663 0.8480 0.4461
H6 H 0.1483 0.9197 0.3896
C7 C 0.2385(4) 0.9175(4) 0.5582(7)
H7 H 0.2139 0.9265 0.6127
C8 C 0.2714(3) 0.9797(3) 0.5385(6)
H8 H 0.3048 0.9965 0.6200
C9 C 0.2960(5) 0.8651(3) 0.6213(6)
H10 H 0.3299 0.8812 0.7030
H11 H 0.2750 0.8248 0.6356
C10 C 0.3327(4) 0.8509(3) 0.5352(6)
H12 H 0.3696 0.8177 0.5754
C11 C 0.3663(3) 0.9145(3) 0.5148(5)
H13 H 0.4002 0.9310 0.5961
H14 H 0.3910 0.9054 0.4615
C12 C 0.2803(3) 0.8249(3) 0.4072(5)
H15 H 0.3046 0.8158 0.3533
H16 H 0.2600 0.7838 0.4198
C13 C 0.1667(3) 0.8485(3) 0.2158(6)
H17 H 0.1359 0.8183 0.2338
H18 H 0.1383 0.8857 0.1692
C14 C 0.1950(3) 0.8136(3) 0.1308(5)
Zn4 Zn 0.29669(3) 0.80698(3) 0.00975(6)
C29 C 0.7615(4) 0.9175(4) 0.9418(7)
H36 H 0.7861 0.9265 0.8873
C30 C 0.7286(3) 0.9797(3) 0.9615(6)
H37 H 0.6952 0.9965 0.8800
C31 C 0.7040(5) 0.8651(3) 0.8787(6)
H39 H 0.6701 0.8812 0.7970
H40 H 0.7250 0.8248 0.8644
C32 C 0.6673(4) 0.8509(3) 0.9648(6)
H41 H 0.6304 0.8177 0.9246
C33 C 0.6337(3) 0.9145(3) 0.9852(5)
H42 H 0.5998 0.9310 0.9039
Zn5 Zn 0.20331(3) 0.69302(3) 0.99025(6)
O10_2 O 0.25933(19) 0.34064(17) 0.3942(3)
O19_2 O 0.28451(18) 0.66846(18) 0.1564(3)
C24_2 C 0.1602(3) 0.5312(2) 0.0753(5)
H30_2 H 0.1342 0.5208 0.1261
H31_2 H 0.1993 0.5594 0.1264
C25_2 C 0.1902(2) 0.4663(2) 0.0483(5)
C26_2 C 0.2436(3) 0.4386(2) 0.1747(5)
H32_2 H 0.2202 0.4306 0.2306
H33_2 H 0.2803 0.4713 0.2152
C27_2 C 0.2774(3) 0.3741(2) 0.1574(5)
C28_2 C 0.3136(4) 0.3886(3) 0.0694(6)
H34_2 H 0.3337 0.3480 0.0539
H35_2 H 0.3517 0.4197 0.1104
H38_2 H 0.2647 0.5131 0.0002
H43_2 H 0.1090 0.4054 0.0385
C34_2 C 0.2197(3) 0.3249(3) 0.0928(5)
H44_2 H 0.1954 0.3158 0.1467
H45_2 H 0.2400 0.2838 0.0802
C35_2 C 0.3333(3) 0.3485(3) 0.2842(6)
H46_2 H 0.3641 0.3183 0.2662
H47_2 H 0.3617 0.3857 0.3308
C36_2 C 0.3050(3) 0.3136(3) 0.3692(5)
Zn2_2 Zn 0.0000 0.60477(4) 0.7500
H26_2 H 0.0201 0.8951 0.9700
C22_2 C -0.0000 0.8346(3) 0.7500
H27_2 H 0.0268 0.8063 0.8218
O8_2 O 0.12776(18) 0.62753(16) 0.9430(3)
O9_2 O 0.05607(19) 0.54387(18) 0.8861(4)
O12_2 O 0.25933(19) 0.65936(17) 0.8942(3)
O16_2 O 0.14385(17) 0.74682(17) 0.8277(3)
O17_2 O 0.21549(18) 0.83154(18) 0.8436(3)
O20_2 O 0.04453(19) 0.66260(19) 0.6694(4)
C23_2 C 0.1134(3) 0.5689(2) 0.9626(5)
C29_2 C 0.2615(4) 0.4175(4) 0.9418(7)
H36_2 H 0.2861 0.4265 0.8873
C30_2 C 0.2286(3) 0.4797(3) 0.9615(6)
H37_2 H 0.1952 0.4965 0.8800
C31_2 C 0.2040(5) 0.3651(3) 0.8787(6)
H39_2 H 0.1701 0.3812 0.7970
H40_2 H 0.2250 0.3248 0.8644
C32_2 C 0.1673(4) 0.3509(3) 0.9648(6)
H41_2 H 0.1304 0.3177 0.9246
C33_2 C 0.1337(3) 0.4145(3) 0.9852(5)
H42_2 H 0.0998 0.4310 0.9039
C37_2 C 0.1581(3) 0.8014(3) 0.7922(5)
C38_2 C 0.1004(3) 0.8367(3) 0.6789(5)
H48_2 H 0.1225 0.8655 0.6389
H49_2 H 0.0732 0.8038 0.6166
C39_2 C 0.0511(3) 0.8771(2) 0.7166(5)
C40_2 C 0.0928(3) 0.9225(3) 0.8303(6)
H50_2 H 0.1217 0.8958 0.9032
H51_2 H 0.1238 0.9510 0.8089
C41_2 C 0.0426(3) 0.9644(3) 0.8637(6)
H52_2 H 0.0701 0.9922 0.9372
C42_2 C 0.0068(3) 0.9222(3) 0.6036(6)
H54_2 H 0.0379 0.9503 0.5819
H57_2 H 0.0157 0.6735 0.5987
H58_2 H 0.0670 0.6950 0.7128
Zn2_3 Zn 1.0000 0.60477(4) 0.7500
O1_2 O 0.87224(18) 0.62753(16) 0.5570(3)
O2_2 O 0.94393(19) 0.54387(18) 0.6139(4)
O3_2 O 0.74067(19) 0.34064(17) 0.1058(3)
O5_2 O 0.85615(17) 0.74682(17) 0.6723(3)
O6_2 O 0.78451(18) 0.83154(18) 0.6564(3)
O7_2 O 0.95547(19) 0.66260(19) 0.8306(4)
C1_2 C 0.8866(3) 0.5689(2) 0.5374(5)
C2_2 C 0.8398(3) 0.5312(2) 0.4247(5)
H1_2 H 0.8658 0.5208 0.3739
H2_2 H 0.8007 0.5594 0.3736
C3_2 C 0.8098(2) 0.4663(2) 0.4517(5)
C4_2 C 0.7564(3) 0.4386(2) 0.3253(5)
H3_2 H 0.7798 0.4306 0.2694
H4_2 H 0.7197 0.4713 0.2848
C5_2 C 0.7226(3) 0.3741(2) 0.3426(5)
C6_2 C 0.6864(4) 0.3886(3) 0.4306(6)
H5_2 H 0.6663 0.3480 0.4461
H6_2 H 0.6483 0.4197 0.3896
C7_2 C 0.7385(4) 0.4175(4) 0.5582(7)
H7_2 H 0.7139 0.4265 0.6127
C8_2 C 0.7714(3) 0.4797(3) 0.5385(6)
H8_2 H 0.8048 0.4965 0.6200
H9_2 H 0.7353 0.5131 0.4998
C9_2 C 0.7960(5) 0.3651(3) 0.6213(6)
H10_2 H 0.8299 0.3812 0.7030
H11_2 H 0.7750 0.3248 0.6356
C10_2 C 0.8327(4) 0.3509(3) 0.5352(6)
H12_2 H 0.8696 0.3177 0.5754
C11_2 C 0.8663(3) 0.4145(3) 0.5148(5)
H13_2 H 0.9002 0.4310 0.5961
H14_2 H 0.8910 0.4054 0.4615
C12_2 C 0.7803(3) 0.3249(3) 0.4072(5)
H15_2 H 0.8046 0.3158 0.3533
H16_2 H 0.7600 0.2838 0.4198
C13_2 C 0.6667(3) 0.3485(3) 0.2158(6)
H17_2 H 0.6359 0.3183 0.2338
H18_2 H 0.6383 0.3857 0.1692
C14_2 C 0.6950(3) 0.3136(3) 0.1308(5)
C15_2 C 0.8419(3) 0.8014(3) 0.7078(5)
C16_2 C 0.8996(3) 0.8367(3) 0.8211(5)
H19_2 H 0.8775 0.8655 0.8611
H20_2 H 0.9268 0.8038 0.8834
C17_2 C 0.9489(3) 0.8771(2) 0.7834(5)
C18_2 C 0.9072(3) 0.9225(3) 0.6697(6)
H21_2 H 0.8783 0.8958 0.5968
H22_2 H 0.8762 0.9510 0.6911
C19_2 C 0.9574(3) 0.9644(3) 0.6363(6)
H23_2 H 0.9299 0.9922 0.5628
C21_2 C 0.9932(3) 0.9222(3) 0.8964(6)
H25_2 H 0.9621 0.9503 0.9181
C22_3 C 1.0000 0.8346(3) 0.7500
H28_2 H 0.9843 0.6735 0.9013
H29_2 H 0.9330 0.6950 0.7872
O11_2 O 0.74067(19) 0.65936(17) 0.6058(3)
O18_2 O 0.71549(18) 0.66846(18) 0.3436(3)
H55_2 H 0.9799 0.8951 0.5300
H56_2 H 0.9732 0.8063 0.6782
O4_2 O 0.83213(19) 0.24339(17) 0.9115(4)
C3_3 C 0.6902(2) 0.0337(2) 0.5483(5)
C4_3 C 0.7436(3) 0.0614(2) 0.6747(5)
H3_3 H 0.7202 0.0694 0.7306
H4_3 H 0.7803 0.0287 0.7152
C5_3 C 0.7774(3) 0.1259(2) 0.6574(5)
C6_3 C 0.8136(4) 0.1114(3) 0.5694(6)
H5_3 H 0.8337 0.1520 0.5539
H6_3 H 0.8517 0.0803 0.6104
C7_3 C 0.7615(4) 0.0825(4) 0.4418(7)
H7_3 H 0.7861 0.0735 0.3873
C8_3 C 0.7286(3) 0.0203(3) 0.4615(6)
H8_3 H 0.6952 0.0035 0.3800
C9_3 C 0.7040(5) 0.1349(3) 0.3787(6)
H10_3 H 0.6701 0.1188 0.2970
H11_3 H 0.7250 0.1752 0.3644
C10_3 C 0.6673(4) 0.1491(3) 0.4648(6)
H12_3 H 0.6304 0.1823 0.4246
C11_3 C 0.6337(3) 0.0855(3) 0.4852(5)
H13_3 H 0.5998 0.0690 0.4039
H14_3 H 0.6090 0.0946 0.5385
C12_3 C 0.7197(3) 0.1751(3) 0.5928(5)
H15_3 H 0.6954 0.1842 0.6467
H16_3 H 0.7400 0.2162 0.5802
C13_3 C 0.8333(3) 0.1515(3) 0.7842(6)
H17_3 H 0.8641 0.1817 0.7662
H18_3 H 0.8617 0.1143 0.8308
C14_3 C 0.8050(3) 0.1864(3) 0.8692(5)
C29_3 C 0.2385(4) 0.0825(4) 0.0582(7)
H36_3 H 0.2139 0.0735 0.1127
C30_3 C 0.2714(3) 0.0203(3) 0.0385(6)
H37_3 H 0.3048 0.0035 0.1200
C31_3 C 0.2960(5) 0.1349(3) 0.1213(6)
H39_3 H 0.3299 0.1188 0.2030
H40_3 H 0.2750 0.1752 0.1356
C32_3 C 0.3327(4) 0.1491(3) 0.0352(6)
H41_3 H 0.3696 0.1823 0.0754
C33_3 C 0.3663(3) 0.0855(3) 0.0148(5)
H42_3 H 0.4002 0.0690 0.0961
O13_2 O 0.16787(19) 0.24339(17) 0.5885(4)
C25_3 C 0.3098(2) 0.0337(2) 0.9517(5)
C26_3 C 0.2564(3) 0.0614(2) 0.8253(5)
H32_3 H 0.2798 0.0694 0.7694
H33_3 H 0.2197 0.0287 0.7848
C27_3 C 0.2226(3) 0.1259(2) 0.8426(5)
C28_3 C 0.1864(4) 0.1114(3) 0.9306(6)
H34_3 H 0.1663 0.1520 0.9461
H35_3 H 0.1483 0.0803 0.8896
H43_3 H 0.3910 0.0946 0.9615
C34_3 C 0.2803(3) 0.1751(3) 0.9072(5)
H44_3 H 0.3046 0.1842 0.8533
H45_3 H 0.2600 0.2162 0.9198
C35_3 C 0.1667(3) 0.1515(3) 0.7158(6)
H46_3 H 0.1359 0.1817 0.7338
H47_3 H 0.1383 0.1143 0.6692
C36_3 C 0.1950(3) 0.1864(3) 0.6308(5)
Zn2_4 Zn 0.5000 0.89523(4) 0.2500
O1_3 O 0.62776(18) 0.87247(16) 0.4430(3)
O2_3 O 0.55607(19) 0.95613(18) 0.3861(4)
O5_3 O 0.64385(17) 0.75318(17) 0.3277(3)
O7_3 O 0.54453(19) 0.83740(19) 0.1694(4)
C1_3 C 0.6134(3) 0.9311(2) 0.4626(5)
C2_3 C 0.6602(3) 0.9688(2) 0.5753(5)
H1_3 H 0.6342 0.9792 0.6261
H2_3 H 0.6993 0.9406 0.6264
H9_3 H 0.7647 0.9869 0.5002
C15_3 C 0.6581(3) 0.6986(3) 0.2922(5)
C16_3 C 0.6004(3) 0.6633(3) 0.1789(5)
H19_3 H 0.6225 0.6345 0.1389
H20_3 H 0.5732 0.6962 0.1166
C17_3 C 0.5511(3) 0.6229(2) 0.2166(5)
C18_3 C 0.5928(3) 0.5775(3) 0.3303(6)
H21_3 H 0.6217 0.6042 0.4032
H22_3 H 0.6238 0.5490 0.3089
C19_3 C 0.5426(3) 0.5356(3) 0.3637(6)
H23_3 H 0.5701 0.5078 0.4372
C20_2 C 0.5000 0.4907(4) 0.2500
H24_2 H 0.5315 0.4627 0.2292
C21_3 C 0.5068(3) 0.5778(3) 0.1036(6)
H25_3 H 0.5379 0.5497 0.0819
H26_3 H 0.4799 0.6049 0.0300
C22_4 C 0.5000 0.6654(3) 0.2500
H27_3 H 0.4732 0.6937 0.1782
H28_3 H 0.5157 0.8265 0.0987
H29_3 H 0.5670 0.8050 0.2128
O8_3 O 0.37224(18) 0.87247(16) 0.0570(3)
O9_3 O 0.44393(19) 0.95613(18) 0.1139(4)
O14_2 O 0.66787(19) 0.74339(17) 0.5885(4)
O16_3 O 0.35615(17) 0.75318(17) 0.1723(3)
O20_3 O 0.45547(19) 0.83740(19) 0.3306(4)
C23_3 C 0.3866(3) 0.9311(2) 0.0374(5)
C37_3 C 0.3419(3) 0.6986(3) 0.2078(5)
C38_3 C 0.3996(3) 0.6633(3) 0.3211(5)
H48_3 H 0.3775 0.6345 0.3611
H49_3 H 0.4268 0.6962 0.3834
C39_3 C 0.4489(3) 0.6229(2) 0.2834(5)
C40_3 C 0.4072(3) 0.5775(3) 0.1697(6)
H50_3 H 0.3783 0.6042 0.0968
H51_3 H 0.3762 0.5490 0.1911
C41_3 C 0.4574(3) 0.5356(3) 0.1363(6)
H52_3 H 0.4299 0.5078 0.0628
H53_2 H 0.4685 0.4627 0.2708
C42_3 C 0.4932(3) 0.5778(3) 0.3964(6)
H54_3 H 0.4621 0.5497 0.4181
H55_3 H 0.5201 0.6049 0.4700
H56_3 H 0.5268 0.6937 0.3218
H57_3 H 0.4843 0.8265 0.4013
H58_3 H 0.4330 0.8050 0.2872
O15_2 O 0.33213(19) 0.74339(17) 0.9115(4)
C24_3 C 0.3398(3) 0.9688(2) 0.9247(5)
H30_3 H 0.3658 0.9792 0.8739
H31_3 H 0.3007 0.9406 0.8736
H38_3 H 0.2353 0.9869 0.9998
Zn2_5 Zn 0.0000 0.39523(4) 0.2500
O1_4 O 0.12776(18) 0.37247(16) 0.4430(3)
O2_4 O 0.05607(19) 0.45613(18) 0.3861(4)
O5_4 O 0.14385(17) 0.25318(17) 0.3277(3)
O7_4 O 0.04453(19) 0.33740(19) 0.1694(4)
C1_4 C 0.1134(3) 0.4311(2) 0.4626(5)
C2_4 C 0.1602(3) 0.4688(2) 0.5753(5)
H1_4 H 0.1342 0.4792 0.6261
H2_4 H 0.1993 0.4406 0.6264
C3_4 C 0.1902(2) 0.5337(2) 0.5483(5)
C4_4 C 0.2436(3) 0.5614(2) 0.6747(5)
H3_4 H 0.2202 0.5694 0.7306
H4_4 H 0.2803 0.5287 0.7152
C5_4 C 0.2774(3) 0.6259(2) 0.6574(5)
C6_4 C 0.3136(4) 0.6114(3) 0.5694(6)
H5_4 H 0.3337 0.6520 0.5539
H6_4 H 0.3517 0.5803 0.6104
C7_4 C 0.2615(4) 0.5825(4) 0.4418(7)
H7_4 H 0.2861 0.5735 0.3873
C8_4 C 0.2286(3) 0.5203(3) 0.4615(6)
H8_4 H 0.1952 0.5035 0.3800
H9_4 H 0.2647 0.4869 0.5002
C9_4 C 0.2040(5) 0.6349(3) 0.3787(6)
H10_4 H 0.1701 0.6188 0.2970
H11_4 H 0.2250 0.6752 0.3644
C10_4 C 0.1673(4) 0.6491(3) 0.4648(6)
H12_4 H 0.1304 0.6823 0.4246
C11_4 C 0.1337(3) 0.5855(3) 0.4852(5)
H13_4 H 0.0998 0.5690 0.4039
H14_4 H 0.1090 0.5946 0.5385
C12_4 C 0.2197(3) 0.6751(3) 0.5928(5)
H15_4 H 0.1954 0.6842 0.6467
H16_4 H 0.2400 0.7162 0.5802
C13_4 C 0.3333(3) 0.6515(3) 0.7842(6)
H17_4 H 0.3641 0.6817 0.7662
H18_4 H 0.3617 0.6143 0.8308
C14_4 C 0.3050(3) 0.6864(3) 0.8692(5)
C15_4 C 0.1581(3) 0.1986(3) 0.2922(5)
C16_4 C 0.1004(3) 0.1633(3) 0.1789(5)
H19_4 H 0.1225 0.1345 0.1389
H20_4 H 0.0732 0.1962 0.1166
C17_4 C 0.0511(3) 0.1229(2) 0.2166(5)
C18_4 C 0.0928(3) 0.0775(3) 0.3303(6)
H21_4 H 0.1217 0.1042 0.4032
H22_4 H 0.1238 0.0490 0.3089
C19_4 C 0.0426(3) 0.0356(3) 0.3637(6)
H23_4 H 0.0701 0.0078 0.4372
C21_4 C 0.0068(3) 0.0778(3) 0.1036(6)
H25_4 H 0.0379 0.0497 0.0819
C22_5 C 0.0000 0.1654(3) 0.2500
H28_4 H 0.0157 0.3265 0.0987
H29_4 H 0.0670 0.3050 0.2128
H55_4 H 0.0201 0.1049 0.4700
H56_4 H 0.0268 0.1937 0.3218
Zn2_6 Zn 1.0000 0.39523(4) 0.2500
H26_4 H 0.9799 0.1049 0.0300
C22_6 C 1.0000 0.1654(3) 0.2500
H27_4 H 0.9732 0.1937 0.1782
O8_4 O 0.87224(18) 0.37247(16) 0.0570(3)
O9_4 O 0.94393(19) 0.45613(18) 0.1139(4)
O16_4 O 0.85615(17) 0.25318(17) 0.1723(3)
O20_4 O 0.95547(19) 0.33740(19) 0.3306(4)
C23_4 C 0.8866(3) 0.4311(2) 0.0374(5)
C29_4 C 0.7385(4) 0.5825(4) 0.0582(7)
H36_4 H 0.7139 0.5735 0.1127
C30_4 C 0.7714(3) 0.5203(3) 0.0385(6)
H37_4 H 0.8048 0.5035 0.1200
C31_4 C 0.7960(5) 0.6349(3) 0.1213(6)
H39_4 H 0.8299 0.6188 0.2030
H40_4 H 0.7750 0.6752 0.1356
C32_4 C 0.8327(4) 0.6491(3) 0.0352(6)
H41_4 H 0.8696 0.6823 0.0754
C33_4 C 0.8663(3) 0.5855(3) 0.0148(5)
H42_4 H 0.9002 0.5690 0.0961
C37_4 C 0.8419(3) 0.1986(3) 0.2078(5)
C38_4 C 0.8996(3) 0.1633(3) 0.3211(5)
H48_4 H 0.8775 0.1345 0.3611
H49_4 H 0.9268 0.1962 0.3834
C39_4 C 0.9489(3) 0.1229(2) 0.2834(5)
C40_4 C 0.9072(3) 0.0775(3) 0.1697(6)
H50_4 H 0.8783 0.1042 0.0968
H51_4 H 0.8762 0.0490 0.1911
C41_4 C 0.9574(3) 0.0356(3) 0.1363(6)
H52_4 H 0.9299 0.0078 0.0628
C42_4 C 0.9932(3) 0.0778(3) 0.3964(6)
H54_4 H 0.9621 0.0497 0.4181
H57_4 H 0.9843 0.3265 0.4013
H58_4 H 0.9330 0.3050 0.2872
C24_4 C 0.8398(3) 0.4688(2) 0.9247(5)
H30_4 H 0.8658 0.4792 0.8739
H31_4 H 0.8007 0.4406 0.8736
C25_4 C 0.8098(2) 0.5337(2) 0.9517(5)
C26_4 C 0.7564(3) 0.5614(2) 0.8253(5)
H32_4 H 0.7798 0.5694 0.7694
H33_4 H 0.7197 0.5287 0.7848
C27_4 C 0.7226(3) 0.6259(2) 0.8426(5)
C28_4 C 0.6864(4) 0.6114(3) 0.9306(6)
H34_4 H 0.6663 0.6520 0.9461
H35_4 H 0.6483 0.5803 0.8896
H38_4 H 0.7353 0.4869 0.9998
H43_4 H 0.8910 0.5946 0.9615
C34_4 C 0.7803(3) 0.6751(3) 0.9072(5)
H44_4 H 0.8046 0.6842 0.8533
H45_4 H 0.7600 0.7162 0.9198
C35_4 C 0.6667(3) 0.6515(3) 0.7158(6)
H46_4 H 0.6359 0.6817 0.7338
H47_4 H 0.6383 0.6143 0.6692
C36_4 C 0.6950(3) 0.6864(3) 0.6308(5)
C20_3 C -0.0000 0.0093(4) 0.7500
H53_3 H 0.0315 0.0373 0.7292
C20_4 C 1.0000 0.0093(4) 0.7500
H24_3 H 0.9685 0.0373 0.7708
C20_5 C 0.0000 0.9907(4) 0.2500
H24_4 H 0.0315 0.9627 0.2292
C20_6 C 1.0000 0.9907(4) 0.2500
H53_4 H 0.9685 0.9627 0.2708
loop_
_geom_bond_atom_site_label_1
_geom_bond_atom_site_label_2
_geom_bond_site_symmetry_1
_geom_bond_site_symmetry_2
H30 C24 1_555 1_555
H31 C24 1_555 1_555
Zn1 O1 1_555 1_555
Zn2 O2 1_555 1_555
O1 C1 1_555 1_555
O2 C1 1_555 1_555
O5 Zn1 1_555 1_555
O6 C15 1_555 1_555
O7 Zn2 1_555 1_555
C1 C2 1_555 1_555
C2 H1 1_555 1_555
H2 C2 1_555 1_555
C15 O5 1_555 1_555
C16 C15 1_555 1_555
H19 C16 1_555 1_555
H20 C16 1_555 1_555
C17 C16 1_555 1_555
C18 C17 1_555 1_555
H21 C18 1_555 1_555
H22 C18 1_555 1_555
C19 C18 1_555 1_555
H23 C19 1_555 1_555
C20 C19 1_555 1_555
H24 C20 1_555 1_555
C21 C17 1_555 1_555
H25 C21 1_555 1_555
H26 C21 1_555 1_555
C22 C17 1_555 1_555
H27 C22 1_555 1_555
H28 O7 1_555 1_555
H29 O7 1_555 1_555
Zn3 O8 1_555 1_555
Zn6 O6 1_555 1_555
O8 C23 1_555 1_555
O9 Zn2 1_555 1_555
O11 Zn1 1_555 1_555
O12 Zn3 1_555 1_555
O14 Zn1 1_555 1_555
O16 Zn3 1_555 1_555
O17 C37 1_555 1_555
O18 Zn1 1_555 1_555
O20 Zn2 1_555 1_555
C23 O9 1_555 1_555
C37 O16 1_555 1_555
C38 C37 1_555 1_555
H48 C38 1_555 1_555
H49 C38 1_555 1_555
C39 C22 1_555 1_555
C40 C39 1_555 1_555
H50 C40 1_555 1_555
H51 C40 1_555 1_555
C41 C20 1_555 1_555
H52 C41 1_555 1_555
H53 C20 1_555 1_555
C42 C19 1_555 1_555
H54 C42 1_555 1_555
H55 C42 1_555 1_555
H56 C22 1_555 1_555
H57 O20 1_555 1_555
H58 O20 1_555 1_555
C21 C41 1_555 1_555
C38 C39 1_555 1_555
C39 C42 1_555 1_555
C40 C41 1_555 1_555
Zn8 O10 1_555 1_555
Zn9 O13 1_555 1_555
O10 C36 1_555 1_555
O13 C36 1_555 1_555
C26 C25 1_555 1_555
H32 C26 1_555 1_555
H33 C26 1_555 1_555
C27 C26 1_555 1_555
C28 C27 1_555 1_555
H34 C28 1_555 1_555
H35 C28 1_555 1_555
C34 C27 1_555 1_555
H44 C34 1_555 1_555
H45 C34 1_555 1_555
C35 C27 1_555 1_555
H46 C35 1_555 1_555
H47 C35 1_555 1_555
C36 C35 1_555 1_555
O3 C14 1_555 1_555
O4 C14 1_555 1_555
C4 C3 1_555 1_555
H3 C4 1_555 1_555
H4 C4 1_555 1_555
C5 C4 1_555 1_555
C6 C5 1_555 1_555
H5 C6 1_555 1_555
H6 C6 1_555 1_555
C7 C6 1_555 1_555
H7 C7 1_555 1_555
C8 C3 1_555 1_555
H8 C8 1_555 1_555
C9 C7 1_555 1_555
H10 C9 1_555 1_555
H11 C9 1_555 1_555
C10 C9 1_555 1_555
H12 C10 1_555 1_555
C11 C3 1_555 1_555
H13 C11 1_555 1_555
H14 C11 1_555 1_555
C12 C5 1_555 1_555
H15 C12 1_555 1_555
H16 C12 1_555 1_555
C13 C5 1_555 1_555
H17 C13 1_555 1_555
H18 C13 1_555 1_555
C14 C13 1_555 1_555
Zn4 O3 1_555 1_555
H36 C29 1_555 1_555
H37 C30 1_555 1_555
C31 C29 1_555 1_555
H39 C31 1_555 1_555
H40 C31 1_555 1_555
C32 C31 1_555 1_555
H41 C32 1_555 1_555
H42 C33 1_555 1_555
C7 C8 1_555 1_555
C10 C11 1_555 1_555
C10 C12 1_555 1_555
C29 C30 1_555 1_555
C32 C33 1_555 1_555
Zn6 O10_2 1_555 1_555
O10_2 C36_2 1_555 1_555
O14 C36_2 1_555 1_555
H30_2 C24_2 1_555 1_555
H31_2 C24_2 1_555 1_555
C25_2 C24_2 1_555 1_555
C26_2 C25_2 1_555 1_555
H32_2 C26_2 1_555 1_555
H33_2 C26_2 1_555 1_555
C27_2 C26_2 1_555 1_555
C28_2 C27_2 1_555 1_555
H34_2 C28_2 1_555 1_555
H35_2 C28_2 1_555 1_555
C34_2 C27_2 1_555 1_555
H44_2 C34_2 1_555 1_555
H45_2 C34_2 1_555 1_555
C35_2 C27_2 1_555 1_555
H46_2 C35_2 1_555 1_555
H47_2 C35_2 1_555 1_555
C36_2 C35_2 1_555 1_555
H27_2 C22_2 1_555 1_555
Zn5 O8_2 1_555 1_555
O8_2 C23_2 1_555 1_555
O9_2 Zn2_2 1_555 1_555
O12_2 Zn5 1_555 1_555
O16_2 Zn5 1_555 1_555
O17_2 C37_2 1_555 1_555
O20_2 Zn2_2 1_555 1_555
C23_2 O9_2 1_555 1_555
H36_2 C29_2 1_555 1_555
H37_2 C30_2 1_555 1_555
C31_2 C29_2 1_555 1_555
H39_2 C31_2 1_555 1_555
H40_2 C31_2 1_555 1_555
C32_2 C31_2 1_555 1_555
H41_2 C32_2 1_555 1_555
H42_2 C33_2 1_555 1_555
C37_2 O16_2 1_555 1_555
C38_2 C37_2 1_555 1_555
H48_2 C38_2 1_555 1_555
H49_2 C38_2 1_555 1_555
C39_2 C22_2 1_555 1_555
C40_2 C39_2 1_555 1_555
H50_2 C40_2 1_555 1_555
H51_2 C40_2 1_555 1_555
H52_2 C41_2 1_555 1_555
H54_2 C42_2 1_555 1_555
H57_2 O20_2 1_555 1_555
H58_2 O20_2 1_555 1_555
C29_2 C30_2 1_555 1_555
C32_2 C33_2 1_555 1_555
C38_2 C39_2 1_555 1_555
C39_2 C42_2 1_555 1_555
C40_2 C41_2 1_555 1_555
Zn9 O1_2 1_555 1_555
Zn2_3 O2_2 1_555 1_555
O1_2 C1_2 1_555 1_555
O2_2 C1_2 1_555 1_555
O3_2 C14_2 1_555 1_555
O15 C14_2 1_555 1_555
O5_2 Zn9 1_555 1_555
O6_2 C15_2 1_555 1_555
O7_2 Zn2_3 1_555 1_555
C1_2 C2_2 1_555 1_555
C2_2 H1_2 1_555 1_555
H2_2 C2_2 1_555 1_555
C3_2 C2_2 1_555 1_555
C4_2 C3_2 1_555 1_555
H3_2 C4_2 1_555 1_555
H4_2 C4_2 1_555 1_555
C5_2 C4_2 1_555 1_555
C6_2 C5_2 1_555 1_555
H5_2 C6_2 1_555 1_555
H6_2 C6_2 1_555 1_555
C7_2 C6_2 1_555 1_555
H7_2 C7_2 1_555 1_555
C8_2 C3_2 1_555 1_555
H8_2 C8_2 1_555 1_555
H9_2 C8_2 1_555 1_555
C9_2 C7_2 1_555 1_555
H10_2 C9_2 1_555 1_555
H11_2 C9_2 1_555 1_555
C10_2 C9_2 1_555 1_555
H12_2 C10_2 1_555 1_555
C11_2 C3_2 1_555 1_555
H13_2 C11_2 1_555 1_555
H14_2 C11_2 1_555 1_555
C12_2 C5_2 1_555 1_555
H15_2 C12_2 1_555 1_555
H16_2 C12_2 1_555 1_555
C13_2 C5_2 1_555 1_555
H17_2 C13_2 1_555 1_555
H18_2 C13_2 1_555 1_555
C14_2 C13_2 1_555 1_555
C15_2 O5_2 1_555 1_555
C16_2 C15_2 1_555 1_555
H19_2 C16_2 1_555 1_555
H20_2 C16_2 1_555 1_555
C17_2 C16_2 1_555 1_555
C18_2 C17_2 1_555 1_555
H21_2 C18_2 1_555 1_555
H22_2 C18_2 1_555 1_555
C19_2 C18_2 1_555 1_555
H23_2 C19_2 1_555 1_555
C21_2 C17_2 1_555 1_555
H25_2 C21_2 1_555 1_555
C22_3 C17_2 1_555 1_555
H28_2 O7_2 1_555 1_555
H29_2 O7_2 1_555 1_555
Zn7 O3_2 1_555 1_555
Zn8 O6_2 1_555 1_555
O11_2 Zn9 1_555 1_555
O18_2 Zn9 1_555 1_555
H56_2 C22_3 1_555 1_555
C7_2 C8_2 1_555 1_555
C10_2 C11_2 1_555 1_555
C10_2 C12_2 1_555 1_555
O12 C14_3 1_555 1_555
O4_2 C14_3 1_555 1_555
C4_3 C3_3 1_555 1_555
H3_3 C4_3 1_555 1_555
H4_3 C4_3 1_555 1_555
C5_3 C4_3 1_555 1_555
C6_3 C5_3 1_555 1_555
H5_3 C6_3 1_555 1_555
H6_3 C6_3 1_555 1_555
C7_3 C6_3 1_555 1_555
H7_3 C7_3 1_555 1_555
C8_3 C3_3 1_555 1_555
H8_3 C8_3 1_555 1_555
C9_3 C7_3 1_555 1_555
H10_3 C9_3 1_555 1_555
H11_3 C9_3 1_555 1_555
C10_3 C9_3 1_555 1_555
H12_3 C10_3 1_555 1_555
C11_3 C3_3 1_555 1_555
H13_3 C11_3 1_555 1_555
H14_3 C11_3 1_555 1_555
C12_3 C5_3 1_555 1_555
H15_3 C12_3 1_555 1_555
H16_3 C12_3 1_555 1_555
C13_3 C5_3 1_555 1_555
H17_3 C13_3 1_555 1_555
H18_3 C13_3 1_555 1_555
C14_3 C13_3 1_555 1_555
H36_3 C29_3 1_555 1_555
H37_3 C30_3 1_555 1_555
C31_3 C29_3 1_555 1_555
H39_3 C31_3 1_555 1_555
H40_3 C31_3 1_555 1_555
C32_3 C31_3 1_555 1_555
H41_3 C32_3 1_555 1_555
H42_3 C33_3 1_555 1_555
C7_3 C8_3 1_555 1_555
C10_3 C11_3 1_555 1_555
C10_3 C12_3 1_555 1_555
C29_3 C30_3 1_555 1_555
C32_3 C33_3 1_555 1_555
Zn6 O13_2 1_555 1_555
O11 C36_3 1_555 1_555
O13_2 C36_3 1_555 1_555
C26_3 C25_3 1_555 1_555
H32_3 C26_3 1_555 1_555
H33_3 C26_3 1_555 1_555
C27_3 C26_3 1_555 1_555
C28_3 C27_3 1_555 1_555
H34_3 C28_3 1_555 1_555
H35_3 C28_3 1_555 1_555
C34_3 C27_3 1_555 1_555
H44_3 C34_3 1_555 1_555
H45_3 C34_3 1_555 1_555
C35_3 C27_3 1_555 1_555
H46_3 C35_3 1_555 1_555
H47_3 C35_3 1_555 1_555
C36_3 C35_3 1_555 1_555
Zn8 O1_3 1_555 1_555
Zn2_4 O2_3 1_555 1_555
O1_3 C1_3 1_555 1_555
O2_3 C1_3 1_555 1_555
O5_3 Zn8 1_555 1_555
O18_2 C15_3 1_555 1_555
O7_3 Zn2_4 1_555 1_555
C1_3 C2_3 1_555 1_555
C2_3 H1_3 1_555 1_555
H2_3 C2_3 1_555 1_555
C15_3 O5_3 1_555 1_555
C16_3 C15_3 1_555 1_555
H19_3 C16_3 1_555 1_555
H20_3 C16_3 1_555 1_555
C17_3 C16_3 1_555 1_555
C18_3 C17_3 1_555 1_555
H21_3 C18_3 1_555 1_555
H22_3 C18_3 1_555 1_555
C19_3 C18_3 1_555 1_555
H23_3 C19_3 1_555 1_555
C20_2 C19_3 1_555 1_555
H24_2 C20_2 1_555 1_555
C21_3 C17_3 1_555 1_555
H25_3 C21_3 1_555 1_555
H26_3 C21_3 1_555 1_555
C22_4 C17_3 1_555 1_555
H27_3 C22_4 1_555 1_555
H28_3 O7_3 1_555 1_555
H29_3 O7_3 1_555 1_555
Zn4 O8_3 1_555 1_555
O8_3 C23_3 1_555 1_555
O9_3 Zn2_4 1_555 1_555
O14_2 Zn8 1_555 1_555
O16_3 Zn4 1_555 1_555
O19_2 C37_3 1_555 1_555
O20_3 Zn2_4 1_555 1_555
C23_3 O9_3 1_555 1_555
C37_3 O16_3 1_555 1_555
C38_3 C37_3 1_555 1_555
H48_3 C38_3 1_555 1_555
H49_3 C38_3 1_555 1_555
C39_3 C22_4 1_555 1_555
C40_3 C39_3 1_555 1_555
H50_3 C40_3 1_555 1_555
H51_3 C40_3 1_555 1_555
C41_3 C20_2 1_555 1_555
H52_3 C41_3 1_555 1_555
H53_2 C20_2 1_555 1_555
C42_3 C19_3 1_555 1_555
H54_3 C42_3 1_555 1_555
H55_3 C42_3 1_555 1_555
H56_3 C22_4 1_555 1_555
H57_3 O20_3 1_555 1_555
H58_3 O20_3 1_555 1_555
C21_3 C41_3 1_555 1_555
C38_3 C39_3 1_555 1_555
C39_3 C42_3 1_555 1_555
C40_3 C41_3 1_555 1_555
H30_3 C24_3 1_555 1_555
H31_3 C24_3 1_555 1_555
Zn6 O1_4 1_555 1_555
Zn2_5 O2_4 1_555 1_555
O1_4 C1_4 1_555 1_555
O2_4 C1_4 1_555 1_555
O12_2 C14_4 1_555 1_555
O15_2 C14_4 1_555 1_555
O5_4 Zn6 1_555 1_555
O18 C15_4 1_555 1_555
O7_4 Zn2_5 1_555 1_555
C1_4 C2_4 1_555 1_555
C2_4 H1_4 1_555 1_555
H2_4 C2_4 1_555 1_555
C3_4 C2_4 1_555 1_555
C4_4 C3_4 1_555 1_555
H3_4 C4_4 1_555 1_555
H4_4 C4_4 1_555 1_555
C5_4 C4_4 1_555 1_555
C6_4 C5_4 1_555 1_555
H5_4 C6_4 1_555 1_555
H6_4 C6_4 1_555 1_555
C7_4 C6_4 1_555 1_555
H7_4 C7_4 1_555 1_555
C8_4 C3_4 1_555 1_555
H8_4 C8_4 1_555 1_555
H9_4 C8_4 1_555 1_555
C9_4 C7_4 1_555 1_555
H10_4 C9_4 1_555 1_555
H11_4 C9_4 1_555 1_555
C10_4 C9_4 1_555 1_555
H12_4 C10_4 1_555 1_555
C11_4 C3_4 1_555 1_555
H13_4 C11_4 1_555 1_555
H14_4 C11_4 1_555 1_555
C12_4 C5_4 1_555 1_555
H15_4 C12_4 1_555 1_555
H16_4 C12_4 1_555 1_555
C13_4 C5_4 1_555 1_555
H17_4 C13_4 1_555 1_555
H18_4 C13_4 1_555 1_555
C14_4 C13_4 1_555 1_555
C15_4 O5_4 1_555 1_555
C16_4 C15_4 1_555 1_555
H19_4 C16_4 1_555 1_555
H20_4 C16_4 1_555 1_555
C17_4 C16_4 1_555 1_555
C18_4 C17_4 1_555 1_555
H21_4 C18_4 1_555 1_555
H22_4 C18_4 1_555 1_555
C19_4 C18_4 1_555 1_555
H23_4 C19_4 1_555 1_555
C21_4 C17_4 1_555 1_555
H25_4 C21_4 1_555 1_555
C22_5 C17_4 1_555 1_555
H28_4 O7_4 1_555 1_555
H29_4 O7_4 1_555 1_555
H56_4 C22_5 1_555 1_555
C7_4 C8_4 1_555 1_555
C10_4 C11_4 1_555 1_555
C10_4 C12_4 1_555 1_555
H27_4 C22_6 1_555 1_555
Zn7 O8_4 1_555 1_555
O8_4 C23_4 1_555 1_555
O9_4 Zn2_6 1_555 1_555
O16_4 Zn7 1_555 1_555
O19 C37_4 1_555 1_555
O20_4 Zn2_6 1_555 1_555
C23_4 O9_4 1_555 1_555
H36_4 C29_4 1_555 1_555
H37_4 C30_4 1_555 1_555
C31_4 C29_4 1_555 1_555
H39_4 C31_4 1_555 1_555
H40_4 C31_4 1_555 1_555
C32_4 C31_4 1_555 1_555
H41_4 C32_4 1_555 1_555
H42_4 C33_4 1_555 1_555
C37_4 O16_4 1_555 1_555
C38_4 C37_4 1_555 1_555
H48_4 C38_4 1_555 1_555
H49_4 C38_4 1_555 1_555
C39_4 C22_6 1_555 1_555
C40_4 C39_4 1_555 1_555
H50_4 C40_4 1_555 1_555
H51_4 C40_4 1_555 1_555
H52_4 C41_4 1_555 1_555
H54_4 C42_4 1_555 1_555
H57_4 O20_4 1_555 1_555
H58_4 O20_4 1_555 1_555
C29_4 C30_4 1_555 1_555
C32_4 C33_4 1_555 1_555
C38_4 C39_4 1_555 1_555
C39_4 C42_4 1_555 1_555
C40_4 C41_4 1_555 1_555
O11_2 C36_4 1_555 1_555
O14_2 C36_4 1_555 1_555
H30_4 C24_4 1_555 1_555
H31_4 C24_4 1_555 1_555
C25_4 C24_4 1_555 1_555
C26_4 C25_4 1_555 1_555
H32_4 C26_4 1_555 1_555
H33_4 C26_4 1_555 1_555
C27_4 C26_4 1_555 1_555
C28_4 C27_4 1_555 1_555
H34_4 C28_4 1_555 1_555
H35_4 C28_4 1_555 1_555
C34_4 C27_4 1_555 1_555
H44_4 C34_4 1_555 1_555
H45_4 C34_4 1_555 1_555
C35_4 C27_4 1_555 1_555
H46_4 C35_4 1_555 1_555
H47_4 C35_4 1_555 1_555
C36_4 C35_4 1_555 1_555
H53_3 C20_3 1_555 1_555
H24_3 C20_4 1_555 1_555
H24_4 C20_5 1_555 1_555
H53_4 C20_6 1_555 1_555

#END
