
###############################################################################
#
# This file contains modified crystal structure data generated from the
# MOF subset of the Cambridge Structural Database (CSD) v543 
# hosted by the Cambridge Crystallographic Data Centre (CCDC).
#
# This work is licensed under the Creative Commons
# Attribution-NonCommercial-ShareAlike 4.0 International License.
# To view a copy of this license, visit
# http://creativecommons.org/licenses/by-nc-sa/4.0/
# or send a letter to
# Creative Commons, PO Box 1866, Mountain View, CA 94042, USA.
#
# CIF created using the CSD Python API on 29 September 2022
# The structure has been converted into the P1 space group
# The structure has a 3D framework
# The original CSD entry EPUXET is in the orthorhombic crystal system
# The original CSD entry EPUXET is in a Sohncke space group
# The framework has been calculated to contain at least 10.0% void space
# The void calculation uses a probe of radius 1.32A, grid spacing 0.4
#
###############################################################################

data_EPUXET
_chemical_formula_moiety         '(C216 H256 Cd8 N16 O28)n'
_symmetry_cell_setting           triclinic
_symmetry_space_group_name_H-M   'P 1'
_symmetry_Int_Tables_number      1
_space_group_name_Hall           'P 1'
loop_
_symmetry_equiv_pos_site_id
_symmetry_equiv_pos_as_xyz
1 x,y,z
_cell_length_a                   13.1885(11)
_cell_length_b                   18.1129(15)
_cell_length_c                   24.841(2)
_cell_angle_alpha                90
_cell_angle_beta                 90
_cell_angle_gamma                90
_cell_volume                     5934.07
loop_
_atom_site_label
_atom_site_type_symbol
_atom_site_fract_x
_atom_site_fract_y
_atom_site_fract_z
N3 N 0.0647(8) 0.0268(5) 0.0782(3)
C41 C 0.1366(11) 0.0124(7) 0.0402(5)
H49 H 0.2007 0.0331 0.0440
Cd2 Cd 0.08670(6) 0.10217(4) 0.15164(3)
N5 N 0.0846(7) 0.1732(5) 0.2297(3)
O10 O 0.2577(6) 0.1225(8) 0.1369(4)
O12 O 0.0007(6) 0.0038(4) 0.2035(3)
O14 O 0.0557(6) 0.2038(5) 0.0965(3)
Cd1 Cd 0.16726(5) 0.02061(4) 0.67544(3)
N2 N 0.1759(7) 0.0960(5) 0.5994(3)
O1 O 0.1588(6) 0.1335(4) 0.7245(3)
O2 O 0.0133(5) 0.0900(4) 0.6954(3)
O5 O 0.3352(5) 0.0021(4) 0.6950(3)
O7 O 0.4225(7) 0.3464(4) 0.8677(3)
O8 O 0.5557(6) 0.2962(5) 0.9035(3)
C1 C 0.0650(9) 0.1361(6) 0.7221(4)
C2 C 0.0103(9) 0.1971(6) 0.7498(4)
H2 H 0.0547 0.2397 0.7508
H4 H 0.0010 0.2849 0.8360
H5 H 0.0425 0.2293 0.9227
C7 C 0.0091(14) 0.1223(10) 0.9017(7)
H7 H 0.0579 0.0963 0.9246
C8 C 0.0540(12) 0.1429(9) 0.8429(6)
H8 H 0.1123 0.1750 0.8469
H9 H 0.0760 0.0982 0.8248
C15 C 0.4151(8) 0.0300(5) 0.7122(3)
C16 C 0.4120(8) 0.1003(5) 0.7446(4)
H19 H 0.3480 0.1250 0.7377
H20 H 0.4658 0.1326 0.7321
C17 C 0.5268(9) 0.0583(7) 0.8219(4)
H21 H 0.5359 0.0097 0.8062
H22 H 0.5806 0.0901 0.8088
C18 C 0.4235(7) 0.0896(5) 0.8053(4)
C19 C 0.4077(8) 0.1658(5) 0.8319(4)
H23 H 0.3416 0.1848 0.8219
H24 H 0.4586 0.1999 0.8187
C20 C 0.4150(8) 0.1610(6) 0.8941(4)
C21 C 0.5220(10) 0.1291(7) 0.9086(5)
H25 H 0.5747 0.1614 0.8951
H26 H 0.5292 0.1254 0.9474
C22 C 0.5317(12) 0.0532(8) 0.8832(5)
H27 H 0.5986 0.0336 0.8928
C23 C 0.4563(15) 0.0018(7) 0.9030(6)
C24 C 0.3329(10) 0.1072(7) 0.9121(5)
H30 H 0.2671 0.1255 0.9008
H31 H 0.3328 0.1041 0.9511
C25 C 0.3498(11) 0.0301(7) 0.8885(5)
C26 C 0.3431(8) 0.0361(6) 0.8279(4)
H33 H 0.2761 0.0533 0.8179
C27 C 0.3948(9) 0.2352(6) 0.9196(4)
H35 H 0.4045 0.2315 0.9582
H36 H 0.3249 0.2492 0.9131
C28 C 0.4665(11) 0.2958(6) 0.8966(4)
C35 C 0.1610(15) 0.2372(11) 0.4597(7)
H43 H 0.1856 0.2857 0.4699
H44 H 0.2117 0.2157 0.4362
C36 C 0.1583(12) 0.1911(8) 0.5099(6)
C37 C 0.2334(11) 0.1999(8) 0.5493(6)
H45 H 0.2807 0.2378 0.5468
C38 C 0.2359(10) 0.1509(8) 0.5922(5)
H46 H 0.2856 0.1585 0.6181
C39 C 0.0991(11) 0.0884(8) 0.5605(5)
H47 H 0.0524 0.0502 0.5637
C40 C 0.0922(13) 0.1360(9) 0.5185(6)
H48 H 0.0389 0.1301 0.4943
C48 C 0.0695(15) 0.2482(11) 0.4276(7)
H57 H 0.0420 0.2001 0.4187
H58 H 0.0198 0.2733 0.4499
C49 C 0.0815(17) 0.2897(10) 0.3782(6)
H59 H 0.1438 0.3179 0.3813
H60 H 0.0264 0.3251 0.3765
C50 C 0.0845(9) 0.2507(5) 0.3261(4)
C51 C 0.1494(9) 0.2671(6) 0.2880(5)
H61 H 0.1962 0.3048 0.2934
C52 C 0.1489(8) 0.2281(7) 0.2388(5)
H62 H 0.1950 0.2411 0.2121
C53 C 0.0164(9) 0.1606(6) 0.2690(5)
C54 C 0.0137(10) 0.1991(7) 0.3181(5)
Cd7 Cd 0.58670(6) 0.39783(4) 0.84836(3)
O11 O 0.1648(5) 0.9979(4) 0.1950(3)
N1 N 0.1088(6) 0.9441(5) 0.7445(4)
O6 O 0.4993(6) 0.9962(4) 0.7035(3)
H28 H 0.4623 0.9970 0.9418
H29 H 0.4671 0.9536 0.8871
H32 H 0.2981 0.9959 0.9020
H34 H 0.3528 0.9876 0.8121
C29 C 0.0132(9) 0.9373(6) 0.7547(5)
C31 C 0.0445(13) 0.8491(6) 0.8249(4)
C32 C 0.1441(9) 0.8567(6) 0.8133(5)
H39 H 0.1921 0.8299 0.8326
C33 C 0.1743(8) 0.9030(6) 0.7736(4)
H40 H 0.2432 0.9067 0.7661
C34 C 0.0040(14) 0.8012(8) 0.8716(4)
H42 H 0.0274 0.7509 0.8670
C42 C 0.1175(15) 0.9691(8) 0.9972(5)
H50 H 0.1705 0.9580 0.9739
C43 C 0.0205(18) 0.9397(7) 0.9861(5)
C47 C 0.0381(14) 0.8292(8) 0.9251(5)
H55 H 0.0227 0.7931 0.9527
H56 H 0.1109 0.8370 0.9246
O9 O 0.1001(8) 0.9287(5) 0.6176(3)
Cd6 Cd 0.41330(6) 0.89783(4) 0.65164(3)
H52 H 0.9212 0.0046 0.0930
O13 O 0.9225(7) 0.1536(4) 0.1323(3)
O3 O 0.8999(8) 0.4287(5) 0.8824(3)
O4 O 0.7577(6) 0.3775(8) 0.8631(4)
H1 H 0.9520 0.2103 0.7280
C3 C 0.9725(9) 0.1819(7) 0.8085(5)
C4 C 0.9424(8) 0.2526(6) 0.8339(4)
H3 H 0.8917 0.2767 0.8117
C5 C 0.8991(9) 0.2405(7) 0.8913(4)
C6 C 0.9816(14) 0.1992(10) 0.9227(7)
H6 H 0.9595 0.1945 0.9598
C9 C 0.8817(13) 0.1311(8) 0.8055(6)
H10 H 0.9028 0.0839 0.7908
H11 H 0.8318 0.1522 0.7812
C10 C 0.9231(17) 0.0842(10) 0.8937(7)
H12 H 0.8962 0.0716 0.9288
H13 H 0.9415 0.0382 0.8763
C11 C 0.8336(15) 0.1190(9) 0.8601(7)
H14 H 0.7739 0.0869 0.8585
C12 C 0.8127(14) 0.1919(8) 0.8892(6)
H15 H 0.7574 0.2171 0.8711
H16 H 0.7908 0.1812 0.9256
C13 C 0.8703(11) 0.3147(7) 0.9169(5)
H17 H 0.8191 0.3040 0.9438
H18 H 0.9298 0.3316 0.9363
C14 C 0.8327(11) 0.3790(7) 0.8857(4)
H63 H 0.9681 0.1240 0.2634
H64 H 0.9646 0.1891 0.3439
Cd3 Cd 0.83274(5) 0.52061(4) 0.82456(3)
N1_2 N 0.3912(6) 0.0559(5) 0.2445(4)
H28_2 H 0.0377 0.0030 0.4418
H29_2 H 0.0329 0.0464 0.3871
H32_2 H 0.2019 0.0041 0.4020
H34_2 H 0.1472 0.0124 0.3121
C29_2 C 0.4868(9) 0.0627(6) 0.2547(5)
H37 H 0.5332 0.0357 0.2346
C30 C 0.5230(10) 0.1106(7) 0.2960(5)
H38 H 0.5921 0.1141 0.3031
C31_2 C 0.4555(13) 0.1509(6) 0.3249(4)
C32_2 C 0.3559(9) 0.1433(6) 0.3133(5)
H39_2 H 0.3079 0.1701 0.3326
C33_2 C 0.3257(8) 0.0970(6) 0.2736(4)
H40_2 H 0.2568 0.0933 0.2661
C34_2 C 0.4960(14) 0.1988(8) 0.3716(4)
H41 H 0.5695 0.1992 0.3705
H42_2 H 0.4726 0.2491 0.3670
C42_2 C 0.3825(15) 0.0309(8) 0.4972(5)
H50_2 H 0.3295 0.0420 0.4739
C43_2 C 0.4795(18) 0.0603(7) 0.4861(5)
C44 C 0.5478(12) 0.0449(7) 0.5248(5)
H51 H 0.6130 0.0639 0.5212
C45 C 0.5271(11) 0.0036(7) 0.5682(5)
C46 C 0.5139(15) 0.1013(8) 0.4369(5)
H53 H 0.5857 0.1116 0.4406
H54 H 0.5059 0.0689 0.4060
C47_2 C 0.4619(14) 0.1708(8) 0.4251(5)
H55_2 H 0.4773 0.2069 0.4527
H56_2 H 0.3891 0.1630 0.4246
O9_2 O 0.3999(8) 0.0713(5) 0.1176(3)
Cd1_2 Cd 0.33274(5) 0.97939(4) 0.17544(3)
N2_2 N 0.3241(7) 0.9040(5) 0.0994(3)
N3_2 N 0.4353(8) 0.9732(5) 0.5782(3)
O1_2 O 0.3412(6) 0.8665(4) 0.2245(3)
O2_2 O 0.4867(5) 0.9100(4) 0.1954(3)
O3_2 O 0.6001(8) 0.5713(5) 0.3824(3)
O4_2 O 0.7423(6) 0.6225(8) 0.3631(4)
O7_2 O 0.0775(7) 0.6536(4) 0.3677(3)
C1_2 C 0.4350(9) 0.8639(6) 0.2221(4)
C2_2 C 0.4897(9) 0.8029(6) 0.2498(4)
H1_2 H 0.5480 0.7897 0.2280
H2_2 H 0.4453 0.7603 0.2508
C3_2 C 0.5275(9) 0.8181(7) 0.3085(5)
C4_2 C 0.5576(8) 0.7474(6) 0.3339(4)
H3_2 H 0.6083 0.7233 0.3117
H4_2 H 0.4990 0.7151 0.3360
C5_2 C 0.6009(9) 0.7595(7) 0.3913(4)
C6_2 C 0.5184(14) 0.8008(10) 0.4227(7)
H5_2 H 0.4575 0.7707 0.4227
H6_2 H 0.5405 0.8055 0.4598
C7_2 C 0.4909(14) 0.8777(10) 0.4017(7)
H7_2 H 0.4421 0.9037 0.4246
C8_2 C 0.4460(12) 0.8571(9) 0.3429(6)
H8_2 H 0.3877 0.8250 0.3469
H9_2 H 0.4240 0.9018 0.3248
C9_2 C 0.6183(13) 0.8689(8) 0.3055(6)
H10_2 H 0.5972 0.9161 0.2908
H11_2 H 0.6682 0.8478 0.2812
C10_2 C 0.5769(17) 0.9158(10) 0.3937(7)
H12_2 H 0.6038 0.9284 0.4288
H13_2 H 0.5585 0.9618 0.3763
C11_2 C 0.6664(15) 0.8810(9) 0.3601(7)
H14_2 H 0.7261 0.9131 0.3585
C12_2 C 0.6873(14) 0.8081(8) 0.3892(6)
H15_2 H 0.7426 0.7829 0.3711
H16_2 H 0.7092 0.8188 0.4256
C13_2 C 0.6297(11) 0.6853(7) 0.4169(5)
H17_2 H 0.6809 0.6960 0.4438
H18_2 H 0.5702 0.6684 0.4363
C14_2 C 0.6673(11) 0.6210(7) 0.3857(4)
C15_2 C 0.0849(8) 0.9700(5) 0.2122(3)
C16_2 C 0.0880(8) 0.8997(5) 0.2446(4)
H19_2 H 0.1520 0.8750 0.2377
H20_2 H 0.0342 0.8674 0.2321
C18_2 C 0.0765(7) 0.9104(5) 0.3053(4)
C19_2 C 0.0923(8) 0.8342(5) 0.3319(4)
H23_2 H 0.1584 0.8152 0.3219
H24_2 H 0.0414 0.8001 0.3187
C20_2 C 0.0850(8) 0.8390(6) 0.3941(4)
C23_2 C 0.0437(15) 0.9982(7) 0.4030(6)
C24_2 C 0.1671(10) 0.8928(7) 0.4121(5)
H30_2 H 0.2329 0.8745 0.4008
H31_2 H 0.1672 0.8959 0.4511
C25_2 C 0.1502(11) 0.9699(7) 0.3885(5)
C26_2 C 0.1569(8) 0.9639(6) 0.3279(4)
H33_2 H 0.2239 0.9467 0.3179
C27_2 C 0.1052(9) 0.7648(6) 0.4196(4)
H35_2 H 0.0955 0.7685 0.4582
H36_2 H 0.1751 0.7508 0.4131
C28_2 C 0.0335(11) 0.7042(6) 0.3966(4)
C36_2 C 0.3417(12) 0.8089(8) 0.0099(6)
C37_2 C 0.2666(11) 0.8001(8) 0.0493(6)
H45_2 H 0.2193 0.7622 0.0468
C38_2 C 0.2641(10) 0.8491(8) 0.0922(5)
H46_2 H 0.2144 0.8415 0.1181
C39_2 C 0.4009(11) 0.9116(8) 0.0605(5)
H47_2 H 0.4476 0.9498 0.0637
C40_2 C 0.4078(13) 0.8640(9) 0.0185(6)
C41_2 C 0.3634(11) 0.9876(7) 0.5402(5)
H49_2 H 0.2993 0.9669 0.5440
H52_2 H 0.5788 0.9954 0.5930
Cd3_2 Cd 0.66726(5) 0.47939(4) 0.32456(3)
N5_2 N 0.4154(7) 0.8268(5) 0.7297(3)
O10_2 O 0.2423(6) 0.8775(8) 0.6369(4)
O13_2 O 0.5775(7) 0.8464(4) 0.6323(3)
O14_2 O 0.4443(6) 0.7962(5) 0.5965(3)
Cd5 Cd 0.91330(6) 0.60217(4) 0.34836(3)
C35_2 C 0.3390(15) 0.7628(11) 0.9597(7)
H43_2 H 0.3144 0.7143 0.9699
H44_2 H 0.2883 0.7843 0.9362
H48_2 H 0.4611 0.8699 0.9943
C48_2 C 0.4305(15) 0.7518(11) 0.9276(7)
H57_2 H 0.4580 0.7999 0.9187
H58_2 H 0.4802 0.7267 0.9499
C49_2 C 0.4185(17) 0.7103(10) 0.8782(6)
H59_2 H 0.3562 0.6821 0.8813
H60_2 H 0.4736 0.6749 0.8765
C50_2 C 0.4155(9) 0.7493(5) 0.8261(4)
C51_2 C 0.3506(9) 0.7329(6) 0.7880(5)
H61_2 H 0.3038 0.6952 0.7934
C52_2 C 0.3511(8) 0.7719(7) 0.7388(5)
H62_2 H 0.3050 0.7589 0.7121
C53_2 C 0.4836(9) 0.8394(6) 0.7690(5)
H63_2 H 0.5319 0.8760 0.7634
C54_2 C 0.4863(10) 0.8009(7) 0.8181(5)
H64_2 H 0.5354 0.8109 0.8439
O8_2 O 0.9443(6) 0.7038(5) 0.4035(3)
C17_2 C 0.9732(9) 0.9417(7) 0.3219(4)
H21_2 H 0.9641 0.9903 0.3062
H22_2 H 0.9194 0.9099 0.3088
C21_2 C 0.9780(10) 0.8709(7) 0.4086(5)
H25_2 H 0.9253 0.8386 0.3951
H26_2 H 0.9708 0.8746 0.4474
C22_2 C 0.9683(12) 0.9468(8) 0.3832(5)
H27_2 H 0.9014 0.9664 0.3928
H1_3 H 0.0480 0.7103 0.7720
C3_3 C 0.0275(9) 0.6819(7) 0.6915(5)
C4_3 C 0.0576(8) 0.7526(6) 0.6661(4)
H3_3 H 0.1083 0.7767 0.6883
C5_3 C 0.1009(9) 0.7405(7) 0.6087(4)
C6_3 C 0.0184(14) 0.6992(10) 0.5773(7)
H6_3 H 0.0405 0.6945 0.5402
C9_3 C 0.1183(13) 0.6311(8) 0.6945(6)
H10_3 H 0.0972 0.5839 0.7092
H11_3 H 0.1682 0.6522 0.7188
C10_3 C 0.0769(17) 0.5842(10) 0.6063(7)
H12_3 H 0.1038 0.5716 0.5712
H13_3 H 0.0585 0.5382 0.6237
C11_3 C 0.1664(15) 0.6190(9) 0.6399(7)
H14_3 H 0.2261 0.5869 0.6415
C12_3 C 0.1873(14) 0.6919(8) 0.6108(6)
H15_3 H 0.2426 0.7171 0.6289
H16_3 H 0.2092 0.6812 0.5744
C13_3 C 0.1297(11) 0.8147(7) 0.5831(5)
H17_3 H 0.1809 0.8040 0.5562
H18_3 H 0.0702 0.8316 0.5637
C14_3 C 0.1673(11) 0.8790(7) 0.6143(4)
H37_2 H 0.0332 0.4643 0.7654
C30_2 C 0.0230(10) 0.3894(7) 0.7040(5)
H38_2 H 0.0921 0.3859 0.6969
H41_2 H 0.0695 0.3008 0.6295
C44_2 C 0.0478(12) 0.4551(7) 0.4752(5)
H51_2 H 0.1130 0.4361 0.4788
C45_2 C 0.0271(11) 0.4964(7) 0.4318(5)
H52_3 H 0.0788 0.5046 0.4070
C46_2 C 0.0139(15) 0.3987(8) 0.5631(5)
H53_2 H 0.0857 0.3884 0.5594
H54_2 H 0.0059 0.4311 0.5940
N4 N 0.9154(7) 0.6732(5) 0.2703(3)
C35_3 C 0.8390(15) 0.7372(11) 0.0403(7)
H43_3 H 0.8144 0.7857 0.0301
H44_3 H 0.7883 0.7157 0.0638
H48_3 H 0.9611 0.6301 0.0057
C48_3 C 0.9305(15) 0.7482(11) 0.0724(7)
H57_3 H 0.9580 0.7001 0.0813
H58_3 H 0.9802 0.7733 0.0501
C49_3 C 0.9185(17) 0.7897(10) 0.1218(6)
H59_3 H 0.8562 0.8179 0.1187
H60_3 H 0.9736 0.8251 0.1235
C50_3 C 0.9155(9) 0.7507(5) 0.1739(4)
C51_3 C 0.8506(9) 0.7671(6) 0.2120(5)
H61_3 H 0.8038 0.8048 0.2066
C52_3 C 0.8511(8) 0.7281(7) 0.2612(5)
H62_3 H 0.8050 0.7411 0.2879
C53_3 C 0.9836(9) 0.6606(6) 0.2310(5)
C54_3 C 0.9863(10) 0.6991(7) 0.1819(5)
N1_3 N 0.8912(6) 0.4441(5) 0.7555(4)
N2_3 N 0.8241(7) 0.5960(5) 0.9006(3)
N3_3 N 0.9353(8) 0.5268(5) 0.4218(3)
O1_3 O 0.8412(6) 0.6335(4) 0.7755(3)
O2_3 O 0.9867(5) 0.5900(4) 0.8046(3)
O5_2 O 0.6648(5) 0.5021(4) 0.8050(3)
O6_2 O 0.5007(6) 0.4962(4) 0.7965(3)
C1_3 C 0.9350(9) 0.6361(6) 0.7779(4)
C2_3 C 0.9897(9) 0.6971(6) 0.7502(4)
H2_3 H 0.9453 0.7397 0.7492
H4_3 H 0.9990 0.7849 0.6640
H5_3 H 0.9575 0.7293 0.5773
C7_3 C 0.9909(14) 0.6223(10) 0.5983(7)
H7_3 H 0.9421 0.5963 0.5754
C8_3 C 0.9460(12) 0.6429(9) 0.6571(6)
H8_3 H 0.8877 0.6750 0.6531
H9_3 H 0.9240 0.5982 0.6752
C15_3 C 0.5849(8) 0.5300(5) 0.7878(3)
C16_3 C 0.5880(8) 0.6003(5) 0.7554(4)
H19_3 H 0.6520 0.6250 0.7623
H20_3 H 0.5342 0.6326 0.7679
C17_3 C 0.4732(9) 0.5583(7) 0.6781(4)
H21_3 H 0.4641 0.5097 0.6938
H22_3 H 0.4194 0.5901 0.6912
C18_3 C 0.5765(7) 0.5896(5) 0.6947(4)
C19_3 C 0.5923(8) 0.6658(5) 0.6681(4)
H23_3 H 0.6584 0.6848 0.6781
H24_3 H 0.5414 0.6999 0.6813
C20_3 C 0.5850(8) 0.6610(6) 0.6059(4)
C21_3 C 0.4780(10) 0.6291(7) 0.5914(5)
H25_3 H 0.4253 0.6614 0.6049
H26_3 H 0.4708 0.6254 0.5526
C22_3 C 0.4683(12) 0.5532(8) 0.6168(5)
H27_3 H 0.4014 0.5336 0.6072
C23_3 C 0.5437(15) 0.5018(7) 0.5970(6)
H28_3 H 0.5377 0.4970 0.5582
H29_3 H 0.5329 0.4536 0.6129
C24_3 C 0.6671(10) 0.6072(7) 0.5879(5)
H30_3 H 0.7329 0.6255 0.5992
H31_3 H 0.6672 0.6041 0.5489
C25_3 C 0.6502(11) 0.5301(7) 0.6115(5)
H32_3 H 0.7019 0.4959 0.5980
C26_3 C 0.6569(8) 0.5361(6) 0.6721(4)
H33_3 H 0.7239 0.5533 0.6821
H34_3 H 0.6472 0.4876 0.6879
C27_3 C 0.6052(9) 0.7352(6) 0.5804(4)
H35_3 H 0.5955 0.7315 0.5418
H36_3 H 0.6751 0.7492 0.5869
C28_3 C 0.5335(11) 0.7958(6) 0.6034(4)
C29_3 C 0.9868(9) 0.4373(6) 0.7453(5)
C31_3 C 0.9555(13) 0.3491(6) 0.6751(4)
C32_3 C 0.8559(9) 0.3567(6) 0.6867(5)
H39_3 H 0.8079 0.3299 0.6674
C33_3 C 0.8257(8) 0.4030(6) 0.7264(4)
H40_3 H 0.7568 0.4067 0.7339
C34_3 C 0.9960(14) 0.3012(8) 0.6284(4)
H42_3 H 0.9726 0.2509 0.6330
C36_3 C 0.8417(12) 0.6911(8) 0.9901(6)
C37_3 C 0.7666(11) 0.6999(8) 0.9507(6)
H45_3 H 0.7193 0.7378 0.9532
C38_3 C 0.7641(10) 0.6509(8) 0.9078(5)
H46_3 H 0.7144 0.6585 0.8819
C39_3 C 0.9009(11) 0.5884(8) 0.9395(5)
H47_3 H 0.9476 0.5502 0.9363
C40_3 C 0.9078(13) 0.6360(9) 0.9815(6)
C41_3 C 0.8634(11) 0.5124(7) 0.4598(5)
H49_3 H 0.7993 0.5331 0.4560
C42_3 C 0.8825(15) 0.4691(8) 0.5028(5)
H50_3 H 0.8295 0.4580 0.5261
C43_3 C 0.9795(18) 0.4397(7) 0.5139(5)
C47_3 C 0.9619(14) 0.3292(8) 0.5749(5)
H55_3 H 0.9773 0.2931 0.5473
H56_3 H 0.8891 0.3370 0.5754
O11_2 O 0.8352(5) 0.4979(4) 0.3050(3)
O12_2 O 0.9993(6) 0.5038(4) 0.2965(3)
C17_4 C 0.0268(9) 0.4417(7) 0.1781(4)
H21_4 H 0.0359 0.4903 0.1938
H22_4 H 0.0806 0.4099 0.1912
C21_4 C 0.0220(10) 0.3709(7) 0.0914(5)
H25_4 H 0.0747 0.3386 0.1049
H26_4 H 0.0292 0.3746 0.0526
C22_4 C 0.0317(12) 0.4468(8) 0.1168(5)
H27_4 H 0.0986 0.4664 0.1072
N1_4 N 0.6088(6) 0.5559(5) 0.2555(4)
N2_4 N 0.6759(7) 0.4040(5) 0.4006(3)
N4_2 N 0.5846(7) 0.3268(5) 0.7703(3)
O1_4 O 0.6588(6) 0.3665(4) 0.2755(3)
O2_4 O 0.5133(5) 0.4100(4) 0.3046(3)
C1_4 C 0.5650(9) 0.3639(6) 0.2779(4)
C2_4 C 0.5103(9) 0.3029(6) 0.2502(4)
H1_4 H 0.4520 0.2897 0.2720
H2_4 H 0.5547 0.2603 0.2492
C3_4 C 0.4725(9) 0.3181(7) 0.1915(5)
C4_4 C 0.4424(8) 0.2474(6) 0.1661(4)
H3_4 H 0.3917 0.2233 0.1883
H4_4 H 0.5010 0.2151 0.1640
C5_4 C 0.3991(9) 0.2595(7) 0.1087(4)
C6_4 C 0.4816(14) 0.3008(10) 0.0773(7)
H5_4 H 0.5425 0.2707 0.0773
H6_4 H 0.4595 0.3055 0.0402
C7_4 C 0.5091(14) 0.3777(10) 0.0983(7)
H7_4 H 0.5579 0.4037 0.0754
C8_4 C 0.5540(12) 0.3571(9) 0.1571(6)
H8_4 H 0.6123 0.3250 0.1531
H9_4 H 0.5760 0.4018 0.1752
C9_4 C 0.3817(13) 0.3689(8) 0.1945(6)
H10_4 H 0.4028 0.4161 0.2092
H11_4 H 0.3318 0.3478 0.2188
C10_4 C 0.4231(17) 0.4158(10) 0.1063(7)
H12_4 H 0.3962 0.4284 0.0712
H13_4 H 0.4415 0.4618 0.1237
C11_4 C 0.3336(15) 0.3810(9) 0.1399(7)
H14_4 H 0.2739 0.4131 0.1415
C12_4 C 0.3127(14) 0.3081(8) 0.1108(6)
H15_4 H 0.2574 0.2829 0.1289
H16_4 H 0.2908 0.3188 0.0744
C13_4 C 0.3703(11) 0.1853(7) 0.0831(5)
H17_4 H 0.3191 0.1960 0.0562
H18_4 H 0.4298 0.1684 0.0637
C14_4 C 0.3327(11) 0.1210(7) 0.1143(4)
C15_4 C 0.9151(8) 0.4700(5) 0.2878(3)
C16_4 C 0.9120(8) 0.3997(5) 0.2554(4)
H19_4 H 0.8480 0.3750 0.2623
H20_4 H 0.9658 0.3674 0.2679
C18_4 C 0.9235(7) 0.4104(5) 0.1947(4)
C19_4 C 0.9077(8) 0.3342(5) 0.1681(4)
H23_4 H 0.8416 0.3152 0.1781
H24_4 H 0.9586 0.3001 0.1813
C20_4 C 0.9150(8) 0.3390(6) 0.1059(4)
C23_4 C 0.9563(15) 0.4982(7) 0.0970(6)
H28_4 H 0.9623 0.5030 0.0582
H29_4 H 0.9671 0.5464 0.1129
C24_4 C 0.8329(10) 0.3928(7) 0.0879(5)
H30_4 H 0.7671 0.3745 0.0992
H31_4 H 0.8328 0.3959 0.0489
C25_4 C 0.8498(11) 0.4699(7) 0.1115(5)
H32_4 H 0.7981 0.5041 0.0980
C26_4 C 0.8431(8) 0.4639(6) 0.1721(4)
H33_4 H 0.7761 0.4467 0.1821
H34_4 H 0.8528 0.5124 0.1879
C27_4 C 0.8948(9) 0.2648(6) 0.0804(4)
H35_4 H 0.9045 0.2685 0.0418
H36_4 H 0.8249 0.2508 0.0869
C28_4 C 0.9665(11) 0.2042(6) 0.1034(4)
C29_4 C 0.5132(9) 0.5627(6) 0.2453(5)
H37_3 H 0.4668 0.5357 0.2654
C30_3 C 0.4770(10) 0.6106(7) 0.2040(5)
H38_3 H 0.4079 0.6141 0.1969
C31_4 C 0.5445(13) 0.6509(6) 0.1751(4)
C32_4 C 0.6441(9) 0.6433(6) 0.1867(5)
H39_4 H 0.6921 0.6701 0.1674
C33_4 C 0.6743(8) 0.5970(6) 0.2264(4)
H40_4 H 0.7432 0.5933 0.2339
C34_4 C 0.5040(14) 0.6988(8) 0.1284(4)
H41_3 H 0.4305 0.6992 0.1295
H42_4 H 0.5274 0.7491 0.1330
C35_4 C 0.6610(15) 0.2628(11) 0.5403(7)
H43_4 H 0.6856 0.2143 0.5301
H44_4 H 0.7117 0.2843 0.5638
C36_4 C 0.6583(12) 0.3089(8) 0.4901(6)
C37_4 C 0.7334(11) 0.3001(8) 0.4507(6)
H45_4 H 0.7807 0.2622 0.4532
C38_4 C 0.7359(10) 0.3491(8) 0.4078(5)
H46_4 H 0.7856 0.3415 0.3819
C39_4 C 0.5991(11) 0.4116(8) 0.4395(5)
H47_4 H 0.5524 0.4498 0.4363
C40_4 C 0.5922(13) 0.3640(9) 0.4815(6)
H48_4 H 0.5389 0.3699 0.5057
C42_4 C 0.6175(15) 0.5309(8) 0.0028(5)
H50_4 H 0.6705 0.5420 0.0261
C43_4 C 0.5205(18) 0.5603(7) 0.0139(5)
C46_3 C 0.4861(15) 0.6013(8) 0.0631(5)
H53_3 H 0.4143 0.6116 0.0594
H54_3 H 0.4941 0.5689 0.0940
C47_4 C 0.5381(14) 0.6708(8) 0.0749(5)
H55_4 H 0.5227 0.7069 0.0473
H56_4 H 0.6109 0.6630 0.0754
C48_4 C 0.5695(15) 0.2518(11) 0.5724(7)
H57_4 H 0.5420 0.2999 0.5813
H58_4 H 0.5198 0.2267 0.5501
C49_4 C 0.5815(17) 0.2103(10) 0.6218(6)
H59_4 H 0.6438 0.1821 0.6187
H60_4 H 0.5264 0.1749 0.6235
C50_4 C 0.5845(9) 0.2493(5) 0.6739(4)
C51_4 C 0.6494(9) 0.2329(6) 0.7120(5)
H61_4 H 0.6962 0.1952 0.7066
C52_4 C 0.6489(8) 0.2719(7) 0.7612(5)
H62_4 H 0.6950 0.2589 0.7879
C53_4 C 0.5164(9) 0.3394(6) 0.7310(5)
H63_3 H 0.4681 0.3760 0.7366
C54_4 C 0.5137(10) 0.3009(7) 0.6819(5)
H64_3 H 0.4646 0.3109 0.6561
N3_4 N 0.5647(8) 0.4732(5) 0.9218(3)
C41_4 C 0.6366(11) 0.4876(7) 0.9598(5)
H49_4 H 0.7007 0.4669 0.9560
C44_3 C 0.4522(12) 0.5449(7) 0.9752(5)
H51_3 H 0.3870 0.5639 0.9788
C45_3 C 0.4729(11) 0.5036(7) 0.9318(5)
H52_4 H 0.4212 0.4954 0.9070
C44_4 C 0.9522(12) 0.9551(7) 0.0248(5)
H51_4 H 0.8870 0.9361 0.0212
C45_4 C 0.9729(11) 0.9964(7) 0.0682(5)
H37_4 H 0.9668 0.9643 0.7346
C30_4 C 0.9770(10) 0.8894(7) 0.7960(5)
H38_4 H 0.9079 0.8859 0.8031
H41_4 H 0.9305 0.8008 0.8705
C46_4 C 0.9861(15) 0.8987(8) 0.9369(5)
H53_4 H 0.9143 0.8884 0.9406
H54_4 H 0.9941 0.9311 0.9060
H63_4 H 0.0319 0.6240 0.2366
H64_4 H 0.0354 0.6891 0.1561
loop_
_geom_bond_atom_site_label_1
_geom_bond_atom_site_label_2
_geom_bond_site_symmetry_1
_geom_bond_site_symmetry_2
N3 C41 1_555 1_555
C41 H49 1_555 1_555
Cd2 N3 1_555 1_555
N5 Cd2 1_555 1_555
O10 Cd2 1_555 1_555
O12 Cd2 1_555 1_555
O14 Cd2 1_555 1_555
N2 Cd1 1_555 1_555
N5 C52 1_555 1_555
O1 Cd1 1_555 1_555
O2 Cd1 1_555 1_555
O5 Cd1 1_555 1_555
O7 C28 1_555 1_555
O8 C28 1_555 1_555
C1 O1 1_555 1_555
C2 C1 1_555 1_555
H2 C2 1_555 1_555
H7 C7 1_555 1_555
H8 C8 1_555 1_555
H9 C8 1_555 1_555
C15 O5 1_555 1_555
C16 C15 1_555 1_555
H19 C16 1_555 1_555
H20 C16 1_555 1_555
C17 H21 1_555 1_555
H22 C17 1_555 1_555
C18 C16 1_555 1_555
C19 C18 1_555 1_555
H23 C19 1_555 1_555
H24 C19 1_555 1_555
C20 C19 1_555 1_555
C21 C20 1_555 1_555
H25 C21 1_555 1_555
H26 C21 1_555 1_555
C22 C17 1_555 1_555
H27 C22 1_555 1_555
C23 C22 1_555 1_555
C24 C20 1_555 1_555
H30 C24 1_555 1_555
H31 C24 1_555 1_555
C25 C23 1_555 1_555
C26 C18 1_555 1_555
H33 C26 1_555 1_555
C27 C20 1_555 1_555
H35 C27 1_555 1_555
H36 C27 1_555 1_555
C28 C27 1_555 1_555
C35 H43 1_555 1_555
H44 C35 1_555 1_555
C36 C35 1_555 1_555
C37 C36 1_555 1_555
H45 C37 1_555 1_555
C38 N2 1_555 1_555
H46 C38 1_555 1_555
C39 N2 1_555 1_555
H47 C39 1_555 1_555
C40 C36 1_555 1_555
H48 C40 1_555 1_555
C48 C35 1_555 1_555
H57 C48 1_555 1_555
H58 C48 1_555 1_555
C49 C48 1_555 1_555
H59 C49 1_555 1_555
H60 C49 1_555 1_555
C50 C49 1_555 1_555
C51 C50 1_555 1_555
H61 C51 1_555 1_555
C52 C51 1_555 1_555
H62 C52 1_555 1_555
C53 N5 1_555 1_555
C54 C50 1_555 1_555
Cd7 O7 1_555 1_555
O2 C1 1_555 1_555
O8 Cd7 1_555 1_555
C7 C8 1_555 1_555
C17 C18 1_555 1_555
C21 C22 1_555 1_555
C24 C25 1_555 1_555
C25 C26 1_555 1_555
C37 C38 1_555 1_555
C39 C40 1_555 1_555
C53 C54 1_555 1_555
N1 C29 1_555 1_555
C32 C31 1_555 1_555
H39 C32 1_555 1_555
C33 N1 1_555 1_555
H40 C33 1_555 1_555
C34 C31 1_555 1_555
H42 C34 1_555 1_555
H50 C42 1_555 1_555
C43 C42 1_555 1_555
C47 C34 1_555 1_555
H55 C47 1_555 1_555
H56 C47 1_555 1_555
O6 Cd6 1_555 1_555
C32 C33 1_555 1_555
O3 C14 1_555 1_555
O4 C14 1_555 1_555
C4 C3 1_555 1_555
H3 C4 1_555 1_555
C5 C4 1_555 1_555
C6 C5 1_555 1_555
H6 C6 1_555 1_555
C9 C3 1_555 1_555
H10 C9 1_555 1_555
H11 C9 1_555 1_555
H12 C10 1_555 1_555
H13 C10 1_555 1_555
C11 C9 1_555 1_555
H14 C11 1_555 1_555
C12 C5 1_555 1_555
H15 C12 1_555 1_555
H16 C12 1_555 1_555
C13 C5 1_555 1_555
H17 C13 1_555 1_555
H18 C13 1_555 1_555
C14 C13 1_555 1_555
Cd3 O3 1_555 1_555
Cd7 O4 1_555 1_555
C10 C11 1_555 1_555
C11 C12 1_555 1_555
N1_2 C29_2 1_555 1_555
C29_2 H37 1_555 1_555
C30 C29_2 1_555 1_555
H38 C30 1_555 1_555
C31_2 C30 1_555 1_555
C32_2 C31_2 1_555 1_555
H39_2 C32_2 1_555 1_555
C33_2 N1_2 1_555 1_555
H40_2 C33_2 1_555 1_555
C34_2 C31_2 1_555 1_555
H41 C34_2 1_555 1_555
H42_2 C34_2 1_555 1_555
H50_2 C42_2 1_555 1_555
C43_2 C42_2 1_555 1_555
C44 C43_2 1_555 1_555
H51 C44 1_555 1_555
C46 C43_2 1_555 1_555
H53 C46 1_555 1_555
H54 C46 1_555 1_555
C47_2 C34_2 1_555 1_555
H55_2 C47_2 1_555 1_555
H56_2 C47_2 1_555 1_555
C32_2 C33_2 1_555 1_555
C44 C45 1_555 1_555
C46 C47_2 1_555 1_555
N2_2 Cd1_2 1_555 1_555
N3_2 C41_2 1_555 1_555
O1_2 Cd1_2 1_555 1_555
O2_2 Cd1_2 1_555 1_555
O3_2 C14_2 1_555 1_555
O4_2 C14_2 1_555 1_555
O11 Cd1_2 1_555 1_555
O7_2 C28_2 1_555 1_555
C1_2 O1_2 1_555 1_555
C2_2 C1_2 1_555 1_555
H1_2 C2_2 1_555 1_555
H2_2 C2_2 1_555 1_555
C3_2 C2_2 1_555 1_555
C4_2 C3_2 1_555 1_555
H3_2 C4_2 1_555 1_555
H4_2 C4_2 1_555 1_555
C5_2 C4_2 1_555 1_555
C6_2 C5_2 1_555 1_555
H5_2 C6_2 1_555 1_555
H6_2 C6_2 1_555 1_555
C7_2 C6_2 1_555 1_555
H7_2 C7_2 1_555 1_555
C8_2 C3_2 1_555 1_555
H8_2 C8_2 1_555 1_555
H9_2 C8_2 1_555 1_555
C9_2 C3_2 1_555 1_555
H10_2 C9_2 1_555 1_555
H11_2 C9_2 1_555 1_555
C10_2 C7_2 1_555 1_555
H12_2 C10_2 1_555 1_555
H13_2 C10_2 1_555 1_555
C11_2 C9_2 1_555 1_555
H14_2 C11_2 1_555 1_555
C12_2 C5_2 1_555 1_555
H15_2 C12_2 1_555 1_555
H16_2 C12_2 1_555 1_555
C13_2 C5_2 1_555 1_555
H17_2 C13_2 1_555 1_555
H18_2 C13_2 1_555 1_555
C14_2 C13_2 1_555 1_555
C15_2 O11 1_555 1_555
C16_2 C15_2 1_555 1_555
H19_2 C16_2 1_555 1_555
H20_2 C16_2 1_555 1_555
C18_2 C16_2 1_555 1_555
C19_2 C18_2 1_555 1_555
H23_2 C19_2 1_555 1_555
H24_2 C19_2 1_555 1_555
C20_2 C19_2 1_555 1_555
C24_2 C20_2 1_555 1_555
H30_2 C24_2 1_555 1_555
H31_2 C24_2 1_555 1_555
C25_2 C23_2 1_555 1_555
C26_2 C18_2 1_555 1_555
H33_2 C26_2 1_555 1_555
C27_2 C20_2 1_555 1_555
H35_2 C27_2 1_555 1_555
H36_2 C27_2 1_555 1_555
C28_2 C27_2 1_555 1_555
C37_2 C36_2 1_555 1_555
H45_2 C37_2 1_555 1_555
C38_2 N2_2 1_555 1_555
H46_2 C38_2 1_555 1_555
C39_2 N2_2 1_555 1_555
H47_2 C39_2 1_555 1_555
C40_2 C36_2 1_555 1_555
C41_2 H49_2 1_555 1_555
Cd6 N3_2 1_555 1_555
Cd3_2 O3_2 1_555 1_555
N5_2 Cd6 1_555 1_555
O10_2 Cd6 1_555 1_555
O13_2 Cd6 1_555 1_555
O14_2 Cd6 1_555 1_555
Cd5 O4_2 1_555 1_555
O2_2 C1_2 1_555 1_555
C7_2 C8_2 1_555 1_555
C10_2 C11_2 1_555 1_555
C11_2 C12_2 1_555 1_555
C24_2 C25_2 1_555 1_555
C25_2 C26_2 1_555 1_555
C37_2 C38_2 1_555 1_555
C39_2 C40_2 1_555 1_555
N5_2 C52_2 1_555 1_555
C35_2 H43_2 1_555 1_555
H44_2 C35_2 1_555 1_555
C48_2 C35_2 1_555 1_555
H57_2 C48_2 1_555 1_555
H58_2 C48_2 1_555 1_555
C49_2 C48_2 1_555 1_555
H59_2 C49_2 1_555 1_555
H60_2 C49_2 1_555 1_555
C50_2 C49_2 1_555 1_555
C51_2 C50_2 1_555 1_555
H61_2 C51_2 1_555 1_555
C52_2 C51_2 1_555 1_555
H62_2 C52_2 1_555 1_555
C53_2 N5_2 1_555 1_555
H63_2 C53_2 1_555 1_555
C54_2 C50_2 1_555 1_555
H64_2 C54_2 1_555 1_555
C53_2 C54_2 1_555 1_555
C17_2 H21_2 1_555 1_555
H22_2 C17_2 1_555 1_555
H25_2 C21_2 1_555 1_555
H26_2 C21_2 1_555 1_555
C22_2 C17_2 1_555 1_555
H27_2 C22_2 1_555 1_555
O8_2 Cd5 1_555 1_555
C21_2 C22_2 1_555 1_555
O9 C14_3 1_555 1_555
O10_2 C14_3 1_555 1_555
C4_3 C3_3 1_555 1_555
H3_3 C4_3 1_555 1_555
C5_3 C4_3 1_555 1_555
C6_3 C5_3 1_555 1_555
H6_3 C6_3 1_555 1_555
C9_3 C3_3 1_555 1_555
H10_3 C9_3 1_555 1_555
H11_3 C9_3 1_555 1_555
H12_3 C10_3 1_555 1_555
H13_3 C10_3 1_555 1_555
C11_3 C9_3 1_555 1_555
H14_3 C11_3 1_555 1_555
C12_3 C5_3 1_555 1_555
H15_3 C12_3 1_555 1_555
H16_3 C12_3 1_555 1_555
C13_3 C5_3 1_555 1_555
H17_3 C13_3 1_555 1_555
H18_3 C13_3 1_555 1_555
C14_3 C13_3 1_555 1_555
H38_2 C30_2 1_555 1_555
H51_2 C44_2 1_555 1_555
H52_3 C45_2 1_555 1_555
H53_2 C46_2 1_555 1_555
H54_2 C46_2 1_555 1_555
C10_3 C11_3 1_555 1_555
C11_3 C12_3 1_555 1_555
C44_2 C45_2 1_555 1_555
N4 C52_3 1_555 1_555
C35_3 H43_3 1_555 1_555
H44_3 C35_3 1_555 1_555
C48_3 C35_3 1_555 1_555
H57_3 C48_3 1_555 1_555
H58_3 C48_3 1_555 1_555
C49_3 C48_3 1_555 1_555
H59_3 C49_3 1_555 1_555
H60_3 C49_3 1_555 1_555
C50_3 C49_3 1_555 1_555
C51_3 C50_3 1_555 1_555
H61_3 C51_3 1_555 1_555
C52_3 C51_3 1_555 1_555
H62_3 C52_3 1_555 1_555
C53_3 N4 1_555 1_555
C54_3 C50_3 1_555 1_555
Cd5 N4 1_555 1_555
C53_3 C54_3 1_555 1_555
Cd3 N1_3 1_555 1_555
N1_3 C29_3 1_555 1_555
N2_3 Cd3 1_555 1_555
N3_3 C41_3 1_555 1_555
O1_3 Cd3 1_555 1_555
O2_3 Cd3 1_555 1_555
O5_2 Cd3 1_555 1_555
O6_2 C15_3 1_555 1_555
O13_2 C28_3 1_555 1_555
O14_2 C28_3 1_555 1_555
C1_3 O1_3 1_555 1_555
C2_3 C1_3 1_555 1_555
H2_3 C2_3 1_555 1_555
H7_3 C7_3 1_555 1_555
H8_3 C8_3 1_555 1_555
H9_3 C8_3 1_555 1_555
C15_3 O5_2 1_555 1_555
C16_3 C15_3 1_555 1_555
H19_3 C16_3 1_555 1_555
H20_3 C16_3 1_555 1_555
C17_3 H21_3 1_555 1_555
H22_3 C17_3 1_555 1_555
C18_3 C16_3 1_555 1_555
C19_3 C18_3 1_555 1_555
H23_3 C19_3 1_555 1_555
H24_3 C19_3 1_555 1_555
C20_3 C19_3 1_555 1_555
C21_3 C20_3 1_555 1_555
H25_3 C21_3 1_555 1_555
H26_3 C21_3 1_555 1_555
C22_3 C17_3 1_555 1_555
H27_3 C22_3 1_555 1_555
C23_3 C22_3 1_555 1_555
H28_3 C23_3 1_555 1_555
H29_3 C23_3 1_555 1_555
C24_3 C20_3 1_555 1_555
H30_3 C24_3 1_555 1_555
H31_3 C24_3 1_555 1_555
C25_3 C23_3 1_555 1_555
H32_3 C25_3 1_555 1_555
C26_3 C18_3 1_555 1_555
H33_3 C26_3 1_555 1_555
H34_3 C26_3 1_555 1_555
C27_3 C20_3 1_555 1_555
H35_3 C27_3 1_555 1_555
H36_3 C27_3 1_555 1_555
C28_3 C27_3 1_555 1_555
C32_3 C31_3 1_555 1_555
H39_3 C32_3 1_555 1_555
C33_3 N1_3 1_555 1_555
H40_3 C33_3 1_555 1_555
C34_3 C31_3 1_555 1_555
H42_3 C34_3 1_555 1_555
C37_3 C36_3 1_555 1_555
H45_3 C37_3 1_555 1_555
C38_3 N2_3 1_555 1_555
H46_3 C38_3 1_555 1_555
C39_3 N2_3 1_555 1_555
H47_3 C39_3 1_555 1_555
C40_3 C36_3 1_555 1_555
C41_3 H49_3 1_555 1_555
C42_3 C41_3 1_555 1_555
H50_3 C42_3 1_555 1_555
C43_3 C42_3 1_555 1_555
C47_3 C34_3 1_555 1_555
H55_3 C47_3 1_555 1_555
H56_3 C47_3 1_555 1_555
Cd5 N3_3 1_555 1_555
O11_2 Cd5 1_555 1_555
O12_2 Cd5 1_555 1_555
Cd7 O5_2 1_555 1_555
O2_3 C1_3 1_555 1_555
O6_2 Cd7 1_555 1_555
C7_3 C8_3 1_555 1_555
C17_3 C18_3 1_555 1_555
C21_3 C22_3 1_555 1_555
C24_3 C25_3 1_555 1_555
C25_3 C26_3 1_555 1_555
C32_3 C33_3 1_555 1_555
C37_3 C38_3 1_555 1_555
C39_3 C40_3 1_555 1_555
C17_4 H21_4 1_555 1_555
H22_4 C17_4 1_555 1_555
H25_4 C21_4 1_555 1_555
H26_4 C21_4 1_555 1_555
C22_4 C17_4 1_555 1_555
H27_4 C22_4 1_555 1_555
C21_4 C22_4 1_555 1_555
Cd3_2 N1_4 1_555 1_555
N1_4 C29_4 1_555 1_555
N2_4 Cd3_2 1_555 1_555
N4_2 C52_4 1_555 1_555
O1_4 Cd3_2 1_555 1_555
O2_4 Cd3_2 1_555 1_555
O9_2 C14_4 1_555 1_555
O10 C14_4 1_555 1_555
O11_2 Cd3_2 1_555 1_555
O12_2 C15_4 1_555 1_555
O13 C28_4 1_555 1_555
C1_4 O1_4 1_555 1_555
C2_4 C1_4 1_555 1_555
H1_4 C2_4 1_555 1_555
H2_4 C2_4 1_555 1_555
C3_4 C2_4 1_555 1_555
C4_4 C3_4 1_555 1_555
H3_4 C4_4 1_555 1_555
H4_4 C4_4 1_555 1_555
C5_4 C4_4 1_555 1_555
C6_4 C5_4 1_555 1_555
H5_4 C6_4 1_555 1_555
H6_4 C6_4 1_555 1_555
C7_4 C6_4 1_555 1_555
H7_4 C7_4 1_555 1_555
C8_4 C3_4 1_555 1_555
H8_4 C8_4 1_555 1_555
H9_4 C8_4 1_555 1_555
C9_4 C3_4 1_555 1_555
H10_4 C9_4 1_555 1_555
H11_4 C9_4 1_555 1_555
C10_4 C7_4 1_555 1_555
H12_4 C10_4 1_555 1_555
H13_4 C10_4 1_555 1_555
C11_4 C9_4 1_555 1_555
H14_4 C11_4 1_555 1_555
C12_4 C5_4 1_555 1_555
H15_4 C12_4 1_555 1_555
H16_4 C12_4 1_555 1_555
C13_4 C5_4 1_555 1_555
H17_4 C13_4 1_555 1_555
H18_4 C13_4 1_555 1_555
C14_4 C13_4 1_555 1_555
C15_4 O11_2 1_555 1_555
C16_4 C15_4 1_555 1_555
H19_4 C16_4 1_555 1_555
H20_4 C16_4 1_555 1_555
C18_4 C16_4 1_555 1_555
C19_4 C18_4 1_555 1_555
H23_4 C19_4 1_555 1_555
H24_4 C19_4 1_555 1_555
C20_4 C19_4 1_555 1_555
H28_4 C23_4 1_555 1_555
H29_4 C23_4 1_555 1_555
C24_4 C20_4 1_555 1_555
H30_4 C24_4 1_555 1_555
H31_4 C24_4 1_555 1_555
C25_4 C23_4 1_555 1_555
H32_4 C25_4 1_555 1_555
C26_4 C18_4 1_555 1_555
H33_4 C26_4 1_555 1_555
H34_4 C26_4 1_555 1_555
C27_4 C20_4 1_555 1_555
H35_4 C27_4 1_555 1_555
H36_4 C27_4 1_555 1_555
C28_4 C27_4 1_555 1_555
C29_4 H37_3 1_555 1_555
C30_3 C29_4 1_555 1_555
H38_3 C30_3 1_555 1_555
C31_4 C30_3 1_555 1_555
C32_4 C31_4 1_555 1_555
H39_4 C32_4 1_555 1_555
C33_4 N1_4 1_555 1_555
H40_4 C33_4 1_555 1_555
C34_4 C31_4 1_555 1_555
H41_3 C34_4 1_555 1_555
H42_4 C34_4 1_555 1_555
C35_4 H43_4 1_555 1_555
H44_4 C35_4 1_555 1_555
C36_4 C35_4 1_555 1_555
C37_4 C36_4 1_555 1_555
H45_4 C37_4 1_555 1_555
C38_4 N2_4 1_555 1_555
H46_4 C38_4 1_555 1_555
C39_4 N2_4 1_555 1_555
H47_4 C39_4 1_555 1_555
C40_4 C36_4 1_555 1_555
H48_4 C40_4 1_555 1_555
H50_4 C42_4 1_555 1_555
C43_4 C42_4 1_555 1_555
C46_3 C43_4 1_555 1_555
H53_3 C46_3 1_555 1_555
H54_3 C46_3 1_555 1_555
C47_4 C34_4 1_555 1_555
H55_4 C47_4 1_555 1_555
H56_4 C47_4 1_555 1_555
C48_4 C35_4 1_555 1_555
H57_4 C48_4 1_555 1_555
H58_4 C48_4 1_555 1_555
C49_4 C48_4 1_555 1_555
H59_4 C49_4 1_555 1_555
H60_4 C49_4 1_555 1_555
C50_4 C49_4 1_555 1_555
C51_4 C50_4 1_555 1_555
H61_4 C51_4 1_555 1_555
C52_4 C51_4 1_555 1_555
H62_4 C52_4 1_555 1_555
C53_4 N4_2 1_555 1_555
H63_3 C53_4 1_555 1_555
C54_4 C50_4 1_555 1_555
H64_3 C54_4 1_555 1_555
Cd7 N4_2 1_555 1_555
O2_4 C1_4 1_555 1_555
C7_4 C8_4 1_555 1_555
C10_4 C11_4 1_555 1_555
C11_4 C12_4 1_555 1_555
C24_4 C25_4 1_555 1_555
C25_4 C26_4 1_555 1_555
C32_4 C33_4 1_555 1_555
C37_4 C38_4 1_555 1_555
C39_4 C40_4 1_555 1_555
C46_3 C47_4 1_555 1_555
C53_4 C54_4 1_555 1_555
N3_4 C41_4 1_555 1_555
C41_4 H49_4 1_555 1_555
H51_3 C44_3 1_555 1_555
C45_3 N3_4 1_555 1_555
H52_4 C45_3 1_555 1_555
Cd7 N3_4 1_555 1_555
C44_3 C45_3 1_555 1_555
H51_4 C44_4 1_555 1_555
C44_4 C45_4 1_555 1_555
H38_4 C30_4 1_555 1_555
H53_4 C46_4 1_555 1_555
H54_4 C46_4 1_555 1_555

#END
