
###############################################################################
#
# This file contains modified crystal structure data generated from the
# MOF subset of the Cambridge Structural Database (CSD) v543 
# hosted by the Cambridge Crystallographic Data Centre (CCDC).
#
# This work is licensed under the Creative Commons
# Attribution-NonCommercial-ShareAlike 4.0 International License.
# To view a copy of this license, visit
# http://creativecommons.org/licenses/by-nc-sa/4.0/
# or send a letter to
# Creative Commons, PO Box 1866, Mountain View, CA 94042, USA.
#
# CIF created using the CSD Python API on 29 September 2022
# The structure has been converted into the P1 space group
# The structure has a 3D framework
# The original CSD entry EQEROJ is in the monoclinic crystal system
# The framework has been calculated to contain at least 10.0% void space
# The void calculation uses a probe of radius 1.32A, grid spacing 0.4
#
###############################################################################

data_EQEROJ
_chemical_formula_moiety         '(C80 H72 N8 O36 Zn6)n'
_symmetry_cell_setting           triclinic
_symmetry_space_group_name_H-M   'P 1'
_symmetry_Int_Tables_number      1
_space_group_name_Hall           'P 1'
loop_
_symmetry_equiv_pos_site_id
_symmetry_equiv_pos_as_xyz
1 x,y,z
_cell_length_a                   15.023(2)
_cell_length_b                   10.1643(13)
_cell_length_c                   18.196(3)
_cell_angle_alpha                90
_cell_angle_beta                 114.233(2)
_cell_angle_gamma                90
_cell_volume                     2533.67
loop_
_atom_site_label
_atom_site_type_symbol
_atom_site_fract_x
_atom_site_fract_y
_atom_site_fract_z
Zn1 Zn 0.11150(2) 0.27736(3) 0.23655(2)
C1 C 0.17467(19) 0.6650(3) 0.20190(15)
H1 H 0.2385 0.7064 0.2163
C2 C 0.10889(18) 0.7402(3) 0.23557(14)
H2 H 0.1308 0.8318 0.2465
C3 C 0.02346(18) 0.7310(2) 0.15121(14)
C4 C 0.09852(19) 0.7023(2) 0.11489(15)
H4 H 0.0800 0.6272 0.0778
C5 C 0.1812(2) 0.5185(3) 0.21858(16)
C6 C 0.09737(19) 0.6846(2) 0.30745(15)
C8 C 0.13045(19) 0.8207(3) 0.08132(15)
O1 O 0.09923(16) 0.45599(18) 0.19243(12)
O2 O 0.26031(17) 0.4651(2) 0.25612(14)
O3 O 0.01465(14) 0.67915(19) 0.30960(11)
O4 O 0.17405(13) 0.64528(18) 0.36495(10)
O7 O 0.11794(17) 0.80895(19) 0.00752(12)
O8 O 0.16755(17) 0.9178(2) 0.12343(13)
N1 N 0.22348(16) 0.1531(2) 0.29592(14)
C9 C 0.3050(2) 0.1506(4) 0.2833(2)
H5 H 0.3112 0.2099 0.2467
C10 C 0.3802(3) 0.0640(4) 0.3221(3)
H6 H 0.4356 0.0656 0.3114
C13 C 0.2168(3) 0.0667(3) 0.3477(2)
H8 H 0.1605 0.0664 0.3571
O9 O 0.1157(2) 0.1960(3) 0.11665(15)
H17 H 0.066(3) 0.208(7) 0.075(2)
H18 H 0.140(4) 0.122(3) 0.118(4)
Zn4 Zn 0.15583(2) 0.55025(3) 0.45334(2)
O12 O 0.10395(14) 0.35693(19) 0.33976(11)
Zn5 Zn 0.15583(2) 0.94975(3) 0.95334(2)
N3 N 0.70864(17) 0.9691(2) 0.99390(14)
H3 H 0.0121 0.1493 0.3508
C7 C 0.04941(19) 0.3407(2) 0.37586(15)
O5 O 0.05619(14) 0.41217(19) 0.43472(11)
O13 O 0.11794(17) 0.69105(19) 0.50752(12)
N3_2 N 0.29136(17) 0.4691(2) 0.50610(14)
H3_2 H 0.0121 0.3507 0.8508
C7_2 C 0.04941(19) 0.1593(2) 0.87586(15)
O5_2 O 0.05619(14) 0.08783(19) 0.93472(11)
O6 O 0.10395(14) 0.14307(19) 0.83976(11)
Zn3 Zn 0.11150(2) 0.22264(3) 0.73655(2)
O10 O 0.01465(14) 0.82085(19) 0.80960(11)
O11 O 0.17405(13) 0.85472(18) 0.86495(10)
C11 C 0.6265(2) 0.0253(3) 0.6230(2)
C12 C 0.7109(3) 0.0233(4) 0.6115(3)
H7 H 0.7197 0.0826 0.5762
C14 C 0.3351(2) 0.4293(3) 0.45922(19)
H9 H 0.3049 0.4462 0.4042
C15 C 0.4233(2) 0.3642(3) 0.4892(2)
H10 H 0.4516 0.3384 0.4546
C16 C 0.4700(2) 0.3371(3) 0.5709(2)
C17 C 0.4254(3) 0.3801(4) 0.6183(2)
H11 H 0.4549 0.3660 0.6737
C18 C 0.3371(3) 0.4442(4) 0.5849(2)
H12 H 0.3080 0.4713 0.6187
C19 C 0.5437(3) 0.1199(4) 0.5787(3)
H13 H 0.4859 0.0903 0.5850
H14 H 0.5296 0.1169 0.5217
C20 C 0.5637(3) 0.2574(4) 0.6064(3)
H15 H 0.5898 0.2603 0.6648
H16 H 0.6118 0.2947 0.5897
O1_2 O 0.09923(16) 0.04401(18) 0.69243(12)
O2_2 O 0.26031(17) 0.0349(2) 0.75612(14)
N1_2 N 0.22348(16) 0.3469(2) 0.79592(14)
C9_2 C 0.3050(2) 0.3494(4) 0.7833(2)
H5_2 H 0.3112 0.2901 0.7467
C10_2 C 0.3802(3) 0.4360(4) 0.8221(3)
H6_2 H 0.4356 0.4344 0.8114
C11_2 C 0.3735(2) 0.5253(3) 0.8770(2)
C12_2 C 0.2891(3) 0.5233(4) 0.8885(3)
H7_2 H 0.2803 0.5826 0.9238
C13_2 C 0.2168(3) 0.4333(3) 0.8477(2)
H8_2 H 0.1605 0.4336 0.8571
C16_2 C 0.5300(2) 0.8371(3) 0.9291(2)
C17_2 C 0.5746(3) 0.8801(4) 0.8817(2)
H11_2 H 0.5451 0.8660 0.8263
C18_2 C 0.6629(3) 0.9442(4) 0.9151(2)
H12_2 H 0.6920 0.9713 0.8813
C19_2 C 0.4563(3) 0.6199(4) 0.9213(3)
H13_2 H 0.5141 0.5903 0.9150
H14_2 H 0.4704 0.6169 0.9783
C20_2 C 0.4363(3) 0.7574(4) 0.8936(3)
H15_2 H 0.4102 0.7603 0.8352
H16_2 H 0.3882 0.7947 0.9103
O9_2 O 0.1157(2) 0.3040(3) 0.61665(15)
H17_2 H 0.066(3) 0.292(7) 0.575(2)
H18_2 H 0.140(4) 0.378(3) 0.618(4)
C1_2 C 0.17467(19) 0.8350(3) 0.70190(15)
H1_2 H 0.2385 0.7936 0.7163
C2_2 C 0.10889(18) 0.7598(3) 0.73557(14)
H2_2 H 0.1308 0.6682 0.7465
C3_2 C 0.02346(18) 0.7690(2) 0.65121(14)
C4_2 C 0.09852(19) 0.7977(2) 0.61489(15)
H4_2 H 0.0800 0.8728 0.5778
C5_2 C 0.1812(2) 0.9815(3) 0.71858(16)
C6_2 C 0.09737(19) 0.8154(2) 0.80745(15)
C8_2 C 0.13045(19) 0.6793(3) 0.58132(15)
O8_2 O 0.16755(17) 0.5822(2) 0.62343(13)
C11_3 C 0.3735(2) 0.9747(3) 0.3770(2)
C12_3 C 0.2891(3) 0.9767(4) 0.3885(3)
H7_3 H 0.2803 0.9174 0.4238
N2 N 0.70864(17) 0.5309(2) 0.49390(14)
C14_2 C 0.6649(2) 0.5707(3) 0.54078(19)
H9_2 H 0.6951 0.5538 0.5958
C15_2 C 0.5767(2) 0.6358(3) 0.5108(2)
H10_2 H 0.5484 0.6616 0.5454
C16_3 C 0.5300(2) 0.6629(3) 0.4291(2)
C17_3 C 0.5746(3) 0.6199(4) 0.3817(2)
H11_3 H 0.5451 0.6340 0.3263
C18_3 C 0.6629(3) 0.5558(4) 0.4151(2)
H12_3 H 0.6920 0.5287 0.3813
C19_3 C 0.4563(3) 0.8801(4) 0.4213(3)
H13_3 H 0.5141 0.9097 0.4150
H14_3 H 0.4704 0.8831 0.4783
C20_3 C 0.4363(3) 0.7426(4) 0.3936(3)
H15_3 H 0.4102 0.7397 0.3352
H16_3 H 0.3882 0.7053 0.4103
Zn6 Zn 0.84417(2) 0.44975(3) 0.54666(2)
Zn2 Zn 0.84417(2) 0.05025(3) 0.04666(2)
O11_2 O 0.82595(13) 0.14528(18) 0.13505(10)
O13_2 O 0.88206(17) 0.19105(19) 0.99248(12)
H3_3 H 0.9879 0.6493 0.1492
C7_3 C 0.95059(19) 0.8407(2) 0.12414(15)
O5_3 O 0.94381(14) 0.91217(19) 0.06528(11)
O6_2 O 0.89605(14) 0.85693(19) 0.16024(11)
Zn3_2 Zn 0.88850(2) 0.77736(3) 0.26345(2)
O10_2 O 0.98535(14) 0.17915(19) 0.19040(11)
C1_3 C 0.82533(19) 0.1650(3) 0.29810(15)
H1_3 H 0.7615 0.2064 0.2837
C2_3 C 0.89111(18) 0.2402(3) 0.26443(14)
H2_3 H 0.8692 0.3318 0.2535
C3_3 C 0.97654(18) 0.2310(2) 0.34879(14)
C4_3 C 0.90148(19) 0.2023(2) 0.38511(15)
H4_3 H 0.9200 0.1272 0.4222
C5_3 C 0.8188(2) 0.0185(3) 0.28142(16)
C6_3 C 0.90263(19) 0.1846(2) 0.19255(15)
C8_3 C 0.86955(19) 0.3207(3) 0.41868(15)
O7_2 O 0.88206(17) 0.30895(19) 0.49248(12)
O8_3 O 0.83245(17) 0.4178(2) 0.37657(13)
O1_3 O 0.90077(16) 0.95599(18) 0.30757(12)
O2_3 O 0.73969(17) 0.9651(2) 0.24388(14)
N1_3 N 0.77652(16) 0.6531(2) 0.20408(14)
C9_3 C 0.6950(2) 0.6506(4) 0.2167(2)
H5_3 H 0.6888 0.7099 0.2533
C10_3 C 0.6198(3) 0.5640(4) 0.1779(3)
H6_3 H 0.5644 0.5656 0.1886
C11_4 C 0.6265(2) 0.4747(3) 0.1230(2)
C12_4 C 0.7109(3) 0.4767(4) 0.1115(3)
H7_4 H 0.7197 0.4174 0.0762
C13_3 C 0.7832(3) 0.5667(3) 0.1523(2)
H8_3 H 0.8395 0.5664 0.1429
N2_2 N 0.29136(17) 0.0309(2) 0.00610(14)
C16_4 C 0.4700(2) 0.1629(3) 0.0709(2)
C17_4 C 0.4254(3) 0.1199(4) 0.1183(2)
H11_4 H 0.4549 0.1340 0.1737
C18_4 C 0.3371(3) 0.0558(4) 0.0849(2)
H12_4 H 0.3080 0.0287 0.1187
C19_4 C 0.5437(3) 0.3801(4) 0.0787(3)
H13_4 H 0.4859 0.4097 0.0850
H14_4 H 0.5296 0.3831 0.0217
C20_4 C 0.5637(3) 0.2426(4) 0.1064(3)
H15_4 H 0.5898 0.2397 0.1648
H16_4 H 0.6118 0.2053 0.0897
O9_3 O 0.8843(2) 0.6960(3) 0.38335(15)
H17_3 H 0.934(3) 0.708(7) 0.425(2)
H18_3 H 0.860(4) 0.622(3) 0.382(4)
Zn1_2 Zn 0.88850(2) 0.72264(3) 0.76345(2)
C1_4 C 0.82533(19) 0.3350(3) 0.79810(15)
H1_4 H 0.7615 0.2936 0.7837
C2_4 C 0.89111(18) 0.2598(3) 0.76443(14)
H2_4 H 0.8692 0.1682 0.7535
C3_4 C 0.97654(18) 0.2690(2) 0.84879(14)
C4_4 C 0.90148(19) 0.2977(2) 0.88511(15)
H4_4 H 0.9200 0.3728 0.9222
C5_4 C 0.8188(2) 0.4815(3) 0.78142(16)
C6_4 C 0.90263(19) 0.3154(2) 0.69255(15)
C8_4 C 0.86955(19) 0.1793(3) 0.91868(15)
O1_4 O 0.90077(16) 0.54401(18) 0.80757(12)
O2_4 O 0.73969(17) 0.5349(2) 0.74388(14)
O3_2 O 0.98535(14) 0.32085(19) 0.69040(11)
O4_2 O 0.82595(13) 0.35472(18) 0.63505(10)
O8_4 O 0.83245(17) 0.0822(2) 0.87657(13)
N1_4 N 0.77652(16) 0.8469(2) 0.70408(14)
C9_4 C 0.6950(2) 0.8494(4) 0.7167(2)
H5_4 H 0.6888 0.7901 0.7533
C10_4 C 0.6198(3) 0.9360(4) 0.6779(3)
H6_4 H 0.5644 0.9344 0.6886
C13_4 C 0.7832(3) 0.9333(3) 0.6523(2)
H8_4 H 0.8395 0.9336 0.6429
O9_4 O 0.8843(2) 0.8040(3) 0.88335(15)
H17_4 H 0.934(3) 0.792(7) 0.925(2)
H18_4 H 0.860(4) 0.878(3) 0.882(4)
O12_2 O 0.89605(14) 0.64307(19) 0.66024(11)
H3_4 H 0.9879 0.8507 0.6492
C7_4 C 0.95059(19) 0.6593(2) 0.62414(15)
O5_4 O 0.94381(14) 0.58783(19) 0.56528(11)
C14_3 C 0.3351(2) 0.0707(3) 0.95922(19)
H9_3 H 0.3049 0.0538 0.9042
C15_3 C 0.4233(2) 0.1358(3) 0.9892(2)
H10_3 H 0.4516 0.1616 0.9546
C14_4 C 0.6649(2) 0.9293(3) 0.04078(19)
H9_4 H 0.6951 0.9462 0.0958
C15_4 C 0.5767(2) 0.8642(3) 0.0108(2)
H10_4 H 0.5484 0.8384 0.0454
loop_
_geom_bond_atom_site_label_1
_geom_bond_atom_site_label_2
_geom_bond_site_symmetry_1
_geom_bond_site_symmetry_2
Zn1 O1 1_555 1_555
C1 H1 1_555 1_555
C2 C1 1_555 1_555
H2 C2 1_555 1_555
C3 C2 1_555 1_555
C4 C1 1_555 1_555
H4 C4 1_555 1_555
C5 C1 1_555 1_555
C6 C2 1_555 1_555
C8 C4 1_555 1_555
O1 C5 1_555 1_555
O2 C5 1_555 1_555
O3 C6 1_555 1_555
O4 C6 1_555 1_555
O7 C8 1_555 1_555
O8 C8 1_555 1_555
N1 Zn1 1_555 1_555
C9 N1 1_555 1_555
H5 C9 1_555 1_555
C10 C9 1_555 1_555
H6 C10 1_555 1_555
C13 N1 1_555 1_555
H8 C13 1_555 1_555
O9 Zn1 1_555 1_555
H17 O9 1_555 1_555
H18 O9 1_555 1_555
Zn4 O4 1_555 1_555
O12 Zn1 1_555 1_555
C3 C4 1_555 1_555
Zn4 O5 1_555 1_555
O5 C7 1_555 1_555
O12 C7 1_555 1_555
O13 Zn4 1_555 1_555
N3_2 Zn4 1_555 1_555
O5_2 C7_2 1_555 1_555
O6 C7_2 1_555 1_555
O6 Zn3 1_555 1_555
O11 Zn5 1_555 1_555
C12 C11 1_555 1_555
H7 C12 1_555 1_555
N3_2 C14 1_555 1_555
C14 H9 1_555 1_555
C15 C14 1_555 1_555
H10 C15 1_555 1_555
C16 C15 1_555 1_555
C17 C16 1_555 1_555
H11 C17 1_555 1_555
C18 N3_2 1_555 1_555
H12 C18 1_555 1_555
C19 C11 1_555 1_555
H13 C19 1_555 1_555
H14 C19 1_555 1_555
C20 C16 1_555 1_555
H15 C20 1_555 1_555
H16 C20 1_555 1_555
C17 C18 1_555 1_555
C19 C20 1_555 1_555
Zn3 O1_2 1_555 1_555
N1_2 Zn3 1_555 1_555
C9_2 N1_2 1_555 1_555
H5_2 C9_2 1_555 1_555
C10_2 C9_2 1_555 1_555
H6_2 C10_2 1_555 1_555
C11_2 C10_2 1_555 1_555
C12_2 C11_2 1_555 1_555
H7_2 C12_2 1_555 1_555
C13_2 N1_2 1_555 1_555
H8_2 C13_2 1_555 1_555
C17_2 C16_2 1_555 1_555
H11_2 C17_2 1_555 1_555
C18_2 N3 1_555 1_555
H12_2 C18_2 1_555 1_555
C19_2 C11_2 1_555 1_555
H13_2 C19_2 1_555 1_555
H14_2 C19_2 1_555 1_555
C20_2 C16_2 1_555 1_555
H15_2 C20_2 1_555 1_555
H16_2 C20_2 1_555 1_555
O9_2 Zn3 1_555 1_555
H17_2 O9_2 1_555 1_555
H18_2 O9_2 1_555 1_555
C12_2 C13_2 1_555 1_555
C17_2 C18_2 1_555 1_555
C19_2 C20_2 1_555 1_555
C1_2 H1_2 1_555 1_555
C2_2 C1_2 1_555 1_555
H2_2 C2_2 1_555 1_555
C3_2 C2_2 1_555 1_555
C4_2 C1_2 1_555 1_555
H4_2 C4_2 1_555 1_555
C5_2 C1_2 1_555 1_555
C6_2 C2_2 1_555 1_555
C8_2 C4_2 1_555 1_555
O10 C6_2 1_555 1_555
O11 C6_2 1_555 1_555
O13 C8_2 1_555 1_555
O8_2 C8_2 1_555 1_555
C3_2 C4_2 1_555 1_555
C12_3 C11_3 1_555 1_555
H7_3 C12_3 1_555 1_555
N2 C14_2 1_555 1_555
C14_2 H9_2 1_555 1_555
C15_2 C14_2 1_555 1_555
H10_2 C15_2 1_555 1_555
C16_3 C15_2 1_555 1_555
C17_3 C16_3 1_555 1_555
H11_3 C17_3 1_555 1_555
C18_3 N2 1_555 1_555
H12_3 C18_3 1_555 1_555
C19_3 C11_3 1_555 1_555
H13_3 C19_3 1_555 1_555
H14_3 C19_3 1_555 1_555
C20_3 C16_3 1_555 1_555
H15_3 C20_3 1_555 1_555
H16_3 C20_3 1_555 1_555
Zn6 N2 1_555 1_555
C17_3 C18_3 1_555 1_555
C19_3 C20_3 1_555 1_555
O11_2 Zn2 1_555 1_555
O5_3 C7_3 1_555 1_555
O6_2 C7_3 1_555 1_555
O6_2 Zn3_2 1_555 1_555
C1_3 H1_3 1_555 1_555
C2_3 C1_3 1_555 1_555
H2_3 C2_3 1_555 1_555
C3_3 C2_3 1_555 1_555
C4_3 C1_3 1_555 1_555
H4_3 C4_3 1_555 1_555
C5_3 C1_3 1_555 1_555
C6_3 C2_3 1_555 1_555
C8_3 C4_3 1_555 1_555
O10_2 C6_3 1_555 1_555
O11_2 C6_3 1_555 1_555
O7_2 C8_3 1_555 1_555
O8_3 C8_3 1_555 1_555
Zn6 O7_2 1_555 1_555
C3_3 C4_3 1_555 1_555
Zn3_2 O1_3 1_555 1_555
N1_3 Zn3_2 1_555 1_555
C9_3 N1_3 1_555 1_555
H5_3 C9_3 1_555 1_555
C10_3 C9_3 1_555 1_555
H6_3 C10_3 1_555 1_555
C11_4 C10_3 1_555 1_555
C12_4 C11_4 1_555 1_555
H7_4 C12_4 1_555 1_555
C13_3 N1_3 1_555 1_555
H8_3 C13_3 1_555 1_555
C17_4 C16_4 1_555 1_555
H11_4 C17_4 1_555 1_555
C18_4 N2_2 1_555 1_555
H12_4 C18_4 1_555 1_555
C19_4 C11_4 1_555 1_555
H13_4 C19_4 1_555 1_555
H14_4 C19_4 1_555 1_555
C20_4 C16_4 1_555 1_555
H15_4 C20_4 1_555 1_555
H16_4 C20_4 1_555 1_555
O9_3 Zn3_2 1_555 1_555
H17_3 O9_3 1_555 1_555
H18_3 O9_3 1_555 1_555
C12_4 C13_3 1_555 1_555
C17_4 C18_4 1_555 1_555
C19_4 C20_4 1_555 1_555
Zn1_2 O1_4 1_555 1_555
C1_4 H1_4 1_555 1_555
C2_4 C1_4 1_555 1_555
H2_4 C2_4 1_555 1_555
C3_4 C2_4 1_555 1_555
C4_4 C1_4 1_555 1_555
H4_4 C4_4 1_555 1_555
C5_4 C1_4 1_555 1_555
C6_4 C2_4 1_555 1_555
C8_4 C4_4 1_555 1_555
O1_4 C5_4 1_555 1_555
O2_4 C5_4 1_555 1_555
O3_2 C6_4 1_555 1_555
O4_2 C6_4 1_555 1_555
O13_2 C8_4 1_555 1_555
O8_4 C8_4 1_555 1_555
N1_4 Zn1_2 1_555 1_555
C9_4 N1_4 1_555 1_555
H5_4 C9_4 1_555 1_555
C10_4 C9_4 1_555 1_555
H6_4 C10_4 1_555 1_555
C13_4 N1_4 1_555 1_555
H8_4 C13_4 1_555 1_555
O9_4 Zn1_2 1_555 1_555
H17_4 O9_4 1_555 1_555
H18_4 O9_4 1_555 1_555
Zn6 O4_2 1_555 1_555
O12_2 Zn1_2 1_555 1_555
C3_4 C4_4 1_555 1_555
Zn6 O5_4 1_555 1_555
O5_4 C7_4 1_555 1_555
O12_2 C7_4 1_555 1_555
C14_3 H9_3 1_555 1_555
C15_3 C14_3 1_555 1_555
H10_3 C15_3 1_555 1_555
C14_4 H9_4 1_555 1_555
C15_4 C14_4 1_555 1_555
H10_4 C15_4 1_555 1_555

#END
