
###############################################################################
#
# This file contains modified crystal structure data generated from the
# MOF subset of the Cambridge Structural Database (CSD) v543 
# hosted by the Cambridge Crystallographic Data Centre (CCDC).
#
# This work is licensed under the Creative Commons
# Attribution-NonCommercial-ShareAlike 4.0 International License.
# To view a copy of this license, visit
# http://creativecommons.org/licenses/by-nc-sa/4.0/
# or send a letter to
# Creative Commons, PO Box 1866, Mountain View, CA 94042, USA.
#
# CIF created using the CSD Python API on 29 September 2022
# The structure has been converted into the P1 space group
# The structure has a 3D framework
# The original CSD entry EQEREY is in the tetragonal crystal system
# The framework has been calculated to contain at least 10.0% void space
# The void calculation uses a probe of radius 1.32A, grid spacing 0.4
# H atom positions have been added when not included in the experimental data
#
###############################################################################

data_EQEREY
_chemical_formula_moiety         '(C240 H160 Co16 N96)n'
_symmetry_cell_setting           triclinic
_symmetry_space_group_name_H-M   'P 1'
_symmetry_Int_Tables_number      1
_space_group_name_Hall           'P 1'
loop_
_symmetry_equiv_pos_site_id
_symmetry_equiv_pos_as_xyz
1 x,y,z
_cell_length_a                   23.3452(10)
_cell_length_b                   23.3452(10)
_cell_length_c                   14.9359(13)
_cell_angle_alpha                90
_cell_angle_beta                 90
_cell_angle_gamma                90
_cell_volume                     8140.04
loop_
_atom_site_label
_atom_site_type_symbol
_atom_site_fract_x
_atom_site_fract_y
_atom_site_fract_z
Co1 Co 0.20437(2) 0.626403(19) 0.08903(3)
C1 C 0.16068(15) 0.58439(15) 0.4503(2)
C2 C 0.10899(16) 0.57874(15) 0.4951(2)
H1 H 0.0757 0.5718 0.4626
C3 C 0.10617(15) 0.58334(15) 0.5880(2)
C4 C 0.15579(15) 0.59409(15) 0.6357(2)
H2 H 0.1540 0.5987 0.6974
C5 C 0.20842(15) 0.59801(14) 0.5922(2)
C6 C 0.20977(16) 0.59450(15) 0.4995(2)
H3 H 0.2445 0.5991 0.4698
C7 C 0.16408(16) 0.58041(15) 0.3524(2)
C8 C 0.18705(16) 0.61789(17) 0.2923(3)
H4 H 0.2048 0.6523 0.3071
C9 C 0.15320(17) 0.54770(17) 0.2190(2)
H5 H 0.1429 0.5241 0.1715
C10 C 0.05109(16) 0.57651(15) 0.6339(2)
C13 C 0.26178(15) 0.60161(15) 0.6444(2)
C14 C 0.27493(17) 0.57670(15) 0.7239(2)
H8 H 0.2497 0.5554 0.7589
C15 C 0.35038(16) 0.61963(16) 0.6769(2)
H9 H 0.3874 0.6341 0.6735
N1 N 0.18016(13) 0.59756(13) 0.20749(19)
N2 N 0.14226(13) 0.53436(14) 0.3039(2)
N4 N 0.04692(15) 0.57056(13) 0.7257(2)
N5 N 0.33151(13) 0.58782(12) 0.7451(2)
N6 N 0.31056(13) 0.62862(13) 0.6142(2)
Co2 Co 0.123597(19) 0.45437(2) 0.33903(3)
Co4 Co 0.376403(19) 0.54563(2) 0.83903(3)
N7 N 0.28436(14) 0.60774(13) 0.0539(2)
N8 N 0.18629(13) 0.70902(15) 0.0798(2)
H10 H 0.315281 0.650798 0.556217
N9 N 0.16218(12) 0.58151(13) 0.9951(2)
C11 C 0.99736(19) 0.57230(16) 0.6010(3)
H6 H 0.9876 0.5748 0.5407
C12 C 0.9914(2) 0.56370(16) 0.7423(3)
H7 H 0.9767 0.5594 0.7998
N3 N 0.95902(15) 0.56371(13) 0.6702(2)
Co3 Co 0.876403(19) 0.54563(2) 0.66097(3)
C3_2 C 0.39383(15) 0.41666(15) 0.0880(2)
C4_2 C 0.34421(15) 0.40591(15) 0.1357(2)
H2_2 H 0.3460 0.4013 0.1974
C5_2 C 0.29158(15) 0.40199(14) 0.0922(2)
C10_2 C 0.44891(16) 0.42349(15) 0.1339(2)
C11_2 C 0.50264(19) 0.42770(16) 0.1010(3)
H6_2 H 0.5124 0.4252 0.0407
C12_2 C 0.5086(2) 0.43630(16) 0.2423(3)
H7_2 H 0.5233 0.4406 0.2998
C13_2 C 0.23822(15) 0.39839(15) 0.1444(2)
C14_2 C 0.22507(17) 0.42330(15) 0.2239(2)
H8_2 H 0.2503 0.4446 0.2589
C15_2 C 0.14962(16) 0.38037(16) 0.1769(2)
H9_2 H 0.1126 0.3659 0.1735
N3_2 N 0.54098(15) 0.43629(13) 0.1702(2)
N4_2 N 0.45308(15) 0.42944(13) 0.2257(2)
N5_2 N 0.16849(13) 0.41218(12) 0.2451(2)
N6_2 N 0.18944(13) 0.37138(13) 0.1142(2)
Co3_2 Co 0.623597(19) 0.45437(2) 0.16097(3)
H10_2 H 0.184719 0.349202 0.0562171
Co1_2 Co 0.29563(2) 0.373597(19) 0.58903(3)
C1_2 C 0.33932(15) 0.41561(15) 0.9503(2)
C2_2 C 0.39101(16) 0.42126(15) 0.9951(2)
H1_2 H 0.4243 0.4282 0.9626
C6_2 C 0.29023(16) 0.40550(15) 0.9995(2)
H3_2 H 0.2555 0.4009 0.9698
C7_2 C 0.33592(16) 0.41959(15) 0.8524(2)
C8_2 C 0.31295(16) 0.38211(17) 0.7923(3)
H4_2 H 0.2952 0.3477 0.8071
C9_2 C 0.34680(17) 0.45230(17) 0.7190(2)
H5_2 H 0.3571 0.4759 0.6715
N1_2 N 0.31984(13) 0.40244(13) 0.70749(19)
N2_2 N 0.35774(13) 0.46564(14) 0.8039(2)
N7_2 N 0.21564(14) 0.39226(13) 0.5539(2)
N8_2 N 0.31371(13) 0.29098(15) 0.5798(2)
N9_2 N 0.33782(12) 0.41849(13) 0.4951(2)
H7_3 H 0.1906 0.2267 0.0498
H8_3 H 0.1946 0.4997 0.0089
C1_3 C 0.16561(15) 0.41068(15) 0.7003(2)
C2_3 C 0.17126(15) 0.35899(16) 0.7451(2)
H1_3 H 0.1782 0.3257 0.7126
C3_3 C 0.16666(15) 0.35617(15) 0.8380(2)
C4_3 C 0.15591(15) 0.40579(15) 0.8857(2)
H2_3 H 0.1513 0.4040 0.9474
C5_3 C 0.15199(14) 0.45842(15) 0.8422(2)
C6_3 C 0.15550(15) 0.45977(16) 0.7495(2)
H3_3 H 0.1509 0.4945 0.7198
C7_3 C 0.16959(15) 0.41408(16) 0.6024(2)
C8_3 C 0.13211(17) 0.43705(16) 0.5423(3)
H4_3 H 0.0977 0.4548 0.5571
C9_3 C 0.20230(17) 0.40320(17) 0.4690(2)
H5_3 H 0.2259 0.3929 0.4215
C10_3 C 0.17349(15) 0.30109(16) 0.8839(2)
C11_3 C 0.17770(16) 0.24736(19) 0.8510(3)
H6_3 H 0.1752 0.2376 0.7907
C12_3 C 0.18630(16) 0.2414(2) 0.9923(3)
C13_3 C 0.14839(15) 0.51178(15) 0.8944(2)
C14_3 C 0.17330(15) 0.52493(17) 0.9739(2)
C15_3 C 0.13037(16) 0.60038(16) 0.9269(2)
H9_3 H 0.1159 0.6374 0.9235
N1_3 N 0.15244(13) 0.43016(13) 0.45749(19)
N3_3 N 0.18629(13) 0.20902(15) 0.9202(2)
N4_3 N 0.17944(13) 0.29692(15) 0.9757(2)
N6_3 N 0.12138(13) 0.56056(13) 0.8642(2)
Co3_3 Co 0.20437(2) 0.126403(19) 0.91097(3)
N8_3 N 0.04098(15) 0.43629(13) 0.3298(2)
H10_3 H 0.0992016 0.565281 0.806217
C1_4 C 0.33439(15) 0.58932(15) 0.2003(2)
C2_4 C 0.32874(15) 0.64101(16) 0.2451(2)
H1_4 H 0.3218 0.6743 0.2126
C3_4 C 0.33334(15) 0.64383(15) 0.3380(2)
C4_4 C 0.34409(15) 0.59421(15) 0.3857(2)
H2_4 H 0.3487 0.5960 0.4474
C5_4 C 0.34801(14) 0.54158(15) 0.3422(2)
C6_4 C 0.34450(15) 0.54023(16) 0.2495(2)
H3_4 H 0.3491 0.5055 0.2198
C7_4 C 0.33041(15) 0.58592(16) 0.1024(2)
C8_4 C 0.36789(17) 0.56295(16) 0.0423(3)
H4_4 H 0.4023 0.5452 0.0571
C10_4 C 0.32651(15) 0.69891(16) 0.3839(2)
C11_4 C 0.32230(16) 0.75264(19) 0.3510(3)
H6_4 H 0.3248 0.7624 0.2907
C12_4 C 0.31370(16) 0.7586(2) 0.4923(3)
H7_4 H 0.3094 0.7733 0.5498
C13_4 C 0.35161(15) 0.48822(15) 0.3944(2)
C14_4 C 0.32670(15) 0.47507(17) 0.4739(2)
H8_4 H 0.3054 0.5003 0.5089
C15_4 C 0.36963(16) 0.39962(16) 0.4269(2)
H9_4 H 0.3841 0.3626 0.4235
N3_4 N 0.31371(13) 0.79098(15) 0.4202(2)
N4_4 N 0.32056(13) 0.70308(15) 0.4757(2)
N6_4 N 0.37862(13) 0.43944(13) 0.3642(2)
Co3_4 Co 0.29563(2) 0.873597(19) 0.41097(3)
H10_4 H 0.400798 0.434719 0.306217
C9_4 C 0.29770(17) 0.59680(17) 0.9690(2)
H5_4 H 0.2741 0.6071 0.9215
N1_4 N 0.34756(13) 0.56984(13) 0.95749(19)
N8_4 N 0.45902(15) 0.56371(13) 0.8298(2)
C3_5 C 0.60617(15) 0.08334(15) 0.0880(2)
C4_5 C 0.65579(15) 0.09409(15) 0.1357(2)
H2_5 H 0.6540 0.0987 0.1974
C5_5 C 0.70842(15) 0.09801(14) 0.0922(2)
C10_5 C 0.55109(16) 0.07651(15) 0.1339(2)
C11_5 C 0.49736(19) 0.07230(16) 0.1010(3)
H6_5 H 0.4876 0.0748 0.0407
C12_5 C 0.4914(2) 0.06370(16) 0.2423(3)
H7_5 H 0.4767 0.0594 0.2998
C13_5 C 0.76178(15) 0.10161(15) 0.1444(2)
C14_5 C 0.77493(17) 0.07670(15) 0.2239(2)
H8_5 H 0.7497 0.0554 0.2589
C15_5 C 0.85038(16) 0.11963(16) 0.1769(2)
H9_5 H 0.8874 0.1341 0.1735
N3_5 N 0.45902(15) 0.06371(13) 0.1702(2)
N4_5 N 0.54692(15) 0.07056(13) 0.2257(2)
N5_3 N 0.83151(13) 0.08782(12) 0.2451(2)
N6_5 N 0.81056(13) 0.12862(13) 0.1142(2)
Co3_5 Co 0.376403(19) 0.04563(2) 0.16097(3)
Co4_2 Co 0.876403(19) 0.04563(2) 0.33903(3)
H10_5 H 0.815281 0.150798 0.0562171
Co1_3 Co 0.70437(2) 0.126403(19) 0.58903(3)
C1_5 C 0.66068(15) 0.08439(15) 0.9503(2)
C2_5 C 0.60899(16) 0.07874(15) 0.9951(2)
H1_5 H 0.5757 0.0718 0.9626
C6_5 C 0.70977(16) 0.09450(15) 0.9995(2)
H3_5 H 0.7445 0.0991 0.9698
C7_5 C 0.66408(16) 0.08041(15) 0.8524(2)
C8_5 C 0.68705(16) 0.11789(17) 0.7923(3)
H4_5 H 0.7048 0.1523 0.8071
C9_5 C 0.65320(17) 0.04770(17) 0.7190(2)
H5_5 H 0.6429 0.0241 0.6715
N1_5 N 0.68016(13) 0.09756(13) 0.70749(19)
N2_3 N 0.64226(13) 0.03436(14) 0.8039(2)
N7_3 N 0.78436(14) 0.10774(13) 0.5539(2)
N8_5 N 0.68629(13) 0.20902(15) 0.5798(2)
N9_3 N 0.66218(12) 0.08151(13) 0.4951(2)
Co2_2 Co 0.623597(19) 0.95437(2) 0.83903(3)
C11_6 C 0.00264(19) 0.92770(16) 0.6010(3)
H6_6 H 0.0124 0.9252 0.5407
C12_6 C 0.0086(2) 0.93630(16) 0.7423(3)
H7_6 H 0.0233 0.9406 0.7998
N3_6 N 0.04098(15) 0.93629(13) 0.6702(2)
Co3_6 Co 0.123597(19) 0.95437(2) 0.66097(3)
Co1_4 Co 0.79563(2) 0.873597(19) 0.08903(3)
C1_6 C 0.83932(15) 0.91561(15) 0.4503(2)
C2_6 C 0.89101(16) 0.92126(15) 0.4951(2)
H1_6 H 0.9243 0.9282 0.4626
C3_6 C 0.89383(15) 0.91666(15) 0.5880(2)
C4_6 C 0.84421(15) 0.90591(15) 0.6357(2)
H2_6 H 0.8460 0.9013 0.6974
C5_6 C 0.79158(15) 0.90199(14) 0.5922(2)
C6_6 C 0.79023(16) 0.90550(15) 0.4995(2)
H3_6 H 0.7555 0.9009 0.4698
C7_6 C 0.83592(16) 0.91959(15) 0.3524(2)
C8_6 C 0.81295(16) 0.88211(17) 0.2923(3)
H4_6 H 0.7952 0.8477 0.3071
C9_6 C 0.84680(17) 0.95230(17) 0.2190(2)
H5_6 H 0.8571 0.9759 0.1715
C10_6 C 0.94891(16) 0.92349(15) 0.6339(2)
C13_6 C 0.73822(15) 0.89839(15) 0.6444(2)
C14_6 C 0.72507(17) 0.92330(15) 0.7239(2)
H8_6 H 0.7503 0.9446 0.7589
C15_6 C 0.64962(16) 0.88037(16) 0.6769(2)
H9_6 H 0.6126 0.8659 0.6735
N1_6 N 0.81984(13) 0.90244(13) 0.20749(19)
N2_4 N 0.85774(13) 0.96564(14) 0.3039(2)
N4_6 N 0.95308(15) 0.92944(13) 0.7257(2)
N5_4 N 0.66849(13) 0.91218(12) 0.7451(2)
N6_6 N 0.68944(13) 0.87138(13) 0.6142(2)
N7_4 N 0.71564(14) 0.89226(13) 0.0539(2)
N8_6 N 0.81371(13) 0.79098(15) 0.0798(2)
H10_6 H 0.684719 0.849202 0.556217
N9_4 N 0.83782(12) 0.91849(13) 0.9951(2)
C13_7 C 0.64839(15) 0.01178(15) 0.3944(2)
C14_7 C 0.67330(15) 0.02493(17) 0.4739(2)
C15_7 C 0.63037(16) 0.10038(16) 0.4269(2)
H9_7 H 0.6159 0.1374 0.4235
N6_7 N 0.62138(13) 0.06056(13) 0.3642(2)
H10_7 H 0.599202 0.0652811 0.306217
C1_7 C 0.66561(15) 0.91068(15) 0.2003(2)
C2_7 C 0.67126(15) 0.85899(16) 0.2451(2)
H1_7 H 0.6782 0.8257 0.2126
C3_7 C 0.66666(15) 0.85617(15) 0.3380(2)
C4_7 C 0.65591(15) 0.90579(15) 0.3857(2)
H2_7 H 0.6513 0.9040 0.4474
C5_7 C 0.65199(14) 0.95842(15) 0.3422(2)
C6_7 C 0.65550(15) 0.95977(16) 0.2495(2)
H3_7 H 0.6509 0.9945 0.2198
C7_7 C 0.66959(15) 0.91408(16) 0.1024(2)
C8_7 C 0.63211(17) 0.93705(16) 0.0423(3)
H4_7 H 0.5977 0.9548 0.0571
C10_7 C 0.67349(15) 0.80109(16) 0.3839(2)
C11_7 C 0.67770(16) 0.74736(19) 0.3510(3)
H6_7 H 0.6752 0.7376 0.2907
C12_7 C 0.68630(16) 0.7414(2) 0.4923(3)
H7_7 H 0.6906 0.7267 0.5498
H8_7 H 0.6946 0.9997 0.5089
N3_7 N 0.68629(13) 0.70902(15) 0.4202(2)
N4_7 N 0.67944(13) 0.79692(15) 0.4757(2)
Co3_7 Co 0.70437(2) 0.626403(19) 0.41097(3)
C9_7 C 0.70230(17) 0.90320(17) 0.9690(2)
H5_7 H 0.7259 0.8929 0.9215
N1_7 N 0.65244(13) 0.93016(13) 0.95749(19)
N8_7 N 0.54098(15) 0.93629(13) 0.8298(2)
C1_8 C 0.83439(15) 0.08932(15) 0.7003(2)
C2_8 C 0.82874(15) 0.14101(16) 0.7451(2)
H1_8 H 0.8218 0.1743 0.7126
C3_8 C 0.83334(15) 0.14383(15) 0.8380(2)
C4_8 C 0.84409(15) 0.09421(15) 0.8857(2)
H2_8 H 0.8487 0.0960 0.9474
C5_8 C 0.84801(14) 0.04158(15) 0.8422(2)
C6_8 C 0.84450(15) 0.04023(16) 0.7495(2)
H3_8 H 0.8491 0.0055 0.7198
C7_8 C 0.83041(15) 0.08592(16) 0.6024(2)
C8_8 C 0.86789(17) 0.06295(16) 0.5423(3)
H4_8 H 0.9023 0.0452 0.5571
C9_8 C 0.79770(17) 0.09680(17) 0.4690(2)
H5_8 H 0.7741 0.1071 0.4215
C10_8 C 0.82651(15) 0.19891(16) 0.8839(2)
C11_8 C 0.82230(16) 0.25264(19) 0.8510(3)
H6_8 H 0.8248 0.2624 0.7907
C12_8 C 0.81370(16) 0.2586(2) 0.9923(3)
N1_8 N 0.84756(13) 0.06984(13) 0.45749(19)
N3_8 N 0.81371(13) 0.29098(15) 0.9202(2)
N4_8 N 0.82056(13) 0.20308(15) 0.9757(2)
Co3_8 Co 0.79563(2) 0.373597(19) 0.91097(3)
N8_8 N 0.95902(15) 0.06371(13) 0.3298(2)
C13_8 C 0.85161(15) 0.98822(15) 0.8944(2)
C14_8 C 0.82670(15) 0.97507(17) 0.9739(2)
C15_8 C 0.86963(16) 0.89962(16) 0.9269(2)
H9_8 H 0.8841 0.8626 0.9235
N6_8 N 0.87862(13) 0.93944(13) 0.8642(2)
H10_8 H 0.900798 0.934719 0.806217
C11_9 C 0.00264(19) 0.42770(16) 0.3990(3)
H6_9 H 0.0124 0.4252 0.4593
C12_9 C 0.0086(2) 0.43630(16) 0.2577(3)
H7_8 H 0.0233 0.4406 0.2002
N9_5 N 0.83782(12) 0.41849(13) 0.0049(2)
C1_9 C 0.83932(15) 0.41561(15) 0.5497(2)
C2_9 C 0.89101(16) 0.42126(15) 0.5049(2)
H1_9 H 0.9243 0.4282 0.5374
C3_9 C 0.89383(15) 0.41666(15) 0.4120(2)
C4_9 C 0.84421(15) 0.40591(15) 0.3643(2)
H2_9 H 0.8460 0.4013 0.3026
C5_9 C 0.79158(15) 0.40199(14) 0.4078(2)
C6_9 C 0.79023(16) 0.40550(15) 0.5005(2)
H3_9 H 0.7555 0.4009 0.5302
C7_9 C 0.83592(16) 0.41959(15) 0.6476(2)
C8_9 C 0.81295(16) 0.38211(17) 0.7077(3)
H4_9 H 0.7952 0.3477 0.6929
C9_9 C 0.84680(17) 0.45230(17) 0.7810(2)
H5_9 H 0.8571 0.4759 0.8285
C10_9 C 0.94891(16) 0.42349(15) 0.3661(2)
C13_9 C 0.73822(15) 0.39839(15) 0.3556(2)
C14_9 C 0.72507(17) 0.42330(15) 0.2761(2)
H8_8 H 0.7503 0.4446 0.2411
C15_9 C 0.64962(16) 0.38037(16) 0.3231(2)
H9_9 H 0.6126 0.3659 0.3265
N1_9 N 0.81984(13) 0.40244(13) 0.79251(19)
N2_5 N 0.85774(13) 0.46564(14) 0.6961(2)
N4_9 N 0.95308(15) 0.42944(13) 0.2743(2)
N5_5 N 0.66849(13) 0.41218(12) 0.2549(2)
N6_9 N 0.68944(13) 0.37138(13) 0.3858(2)
N7_5 N 0.71564(14) 0.39226(13) 0.9461(2)
H10_9 H 0.684719 0.349202 0.443783
C1_10 C 0.66068(15) 0.58439(15) 0.0497(2)
C2_10 C 0.60899(16) 0.57874(15) 0.0049(2)
H1_10 H 0.5757 0.5718 0.0374
C6_10 C 0.70977(16) 0.59450(15) 0.0005(2)
H3_10 H 0.7445 0.5991 0.0302
C7_10 C 0.66408(16) 0.58041(15) 0.1476(2)
C8_10 C 0.68705(16) 0.61789(17) 0.2077(3)
H4_10 H 0.7048 0.6523 0.1929
C9_10 C 0.65320(17) 0.54770(17) 0.2810(2)
H5_10 H 0.6429 0.5241 0.3285
N1_10 N 0.68016(13) 0.59756(13) 0.29251(19)
N2_6 N 0.64226(13) 0.53436(14) 0.1961(2)
N7_6 N 0.78436(14) 0.60774(13) 0.4461(2)
N9_6 N 0.66218(12) 0.58151(13) 0.5049(2)
C3_10 C 0.60617(15) 0.58334(15) 0.9120(2)
C4_10 C 0.65579(15) 0.59409(15) 0.8643(2)
H2_10 H 0.6540 0.5987 0.8026
C5_10 C 0.70842(15) 0.59801(14) 0.9078(2)
C10_10 C 0.55109(16) 0.57651(15) 0.8661(2)
C11_10 C 0.49736(19) 0.57230(16) 0.8990(3)
H6_10 H 0.4876 0.5748 0.9593
C12_10 C 0.4914(2) 0.56370(16) 0.7577(3)
H7_9 H 0.4767 0.5594 0.7002
C13_10 C 0.76178(15) 0.60161(15) 0.8556(2)
C14_10 C 0.77493(17) 0.57670(15) 0.7761(2)
H8_9 H 0.7497 0.5554 0.7411
C15_10 C 0.85038(16) 0.61963(16) 0.8231(2)
H9_10 H 0.8874 0.6341 0.8265
N4_10 N 0.54692(15) 0.57056(13) 0.7743(2)
N5_6 N 0.83151(13) 0.58782(12) 0.7549(2)
N6_10 N 0.81056(13) 0.62862(13) 0.8858(2)
H10_10 H 0.815281 0.650798 0.943783
C1_11 C 0.83439(15) 0.58932(15) 0.2997(2)
C2_11 C 0.82874(15) 0.64101(16) 0.2549(2)
H1_11 H 0.8218 0.6743 0.2874
C3_11 C 0.83334(15) 0.64383(15) 0.1620(2)
C4_11 C 0.84409(15) 0.59421(15) 0.1143(2)
H2_11 H 0.8487 0.5960 0.0526
C5_11 C 0.84801(14) 0.54158(15) 0.1578(2)
C6_11 C 0.84450(15) 0.54023(16) 0.2505(2)
H3_11 H 0.8491 0.5055 0.2802
C7_11 C 0.83041(15) 0.58592(16) 0.3976(2)
C8_11 C 0.86789(17) 0.56295(16) 0.4577(3)
H4_11 H 0.9023 0.5452 0.4429
C9_11 C 0.79770(17) 0.59680(17) 0.5310(2)
H5_11 H 0.7741 0.6071 0.5785
C10_11 C 0.82651(15) 0.69891(16) 0.1161(2)
C11_11 C 0.82230(16) 0.75264(19) 0.1490(3)
H6_11 H 0.8248 0.7624 0.2093
C12_11 C 0.81370(16) 0.7586(2) 0.0077(3)
C13_11 C 0.85161(15) 0.48822(15) 0.1056(2)
C14_11 C 0.82670(15) 0.47507(17) 0.0261(2)
C15_11 C 0.86963(16) 0.39962(16) 0.0731(2)
H9_11 H 0.8841 0.3626 0.0765
N1_11 N 0.84756(13) 0.56984(13) 0.54251(19)
N4_11 N 0.82056(13) 0.70308(15) 0.0243(2)
N6_11 N 0.87862(13) 0.43944(13) 0.1358(2)
H10_11 H 0.900798 0.434719 0.193783
H7_10 H 0.8094 0.7733 0.9502
H8_10 H 0.8054 0.5003 0.9911
C9_12 C 0.70230(17) 0.40320(17) 0.0310(2)
H5_12 H 0.7259 0.3929 0.0785
N1_12 N 0.65244(13) 0.43016(13) 0.04251(19)
C1_12 C 0.66561(15) 0.41068(15) 0.7997(2)
C2_12 C 0.67126(15) 0.35899(16) 0.7549(2)
H1_12 H 0.6782 0.3257 0.7874
C3_12 C 0.66666(15) 0.35617(15) 0.6620(2)
C4_12 C 0.65591(15) 0.40579(15) 0.6143(2)
H2_12 H 0.6513 0.4040 0.5526
C5_12 C 0.65199(14) 0.45842(15) 0.6578(2)
C6_12 C 0.65550(15) 0.45977(16) 0.7505(2)
H3_12 H 0.6509 0.4945 0.7802
C7_12 C 0.66959(15) 0.41408(16) 0.8976(2)
C8_12 C 0.63211(17) 0.43705(16) 0.9577(3)
H4_12 H 0.5977 0.4548 0.9429
C10_12 C 0.67349(15) 0.30109(16) 0.6161(2)
C11_12 C 0.67770(16) 0.24736(19) 0.6490(3)
H6_12 H 0.6752 0.2376 0.7093
C12_12 C 0.68630(16) 0.2414(2) 0.5077(3)
H7_11 H 0.6906 0.2267 0.4502
C13_12 C 0.64839(15) 0.51178(15) 0.6056(2)
C14_12 C 0.67330(15) 0.52493(17) 0.5261(2)
H8_11 H 0.6946 0.4997 0.4911
C15_12 C 0.63037(16) 0.60038(16) 0.5731(2)
H9_12 H 0.6159 0.6374 0.5765
N4_12 N 0.67944(13) 0.29692(15) 0.5243(2)
N6_12 N 0.62138(13) 0.56056(13) 0.6358(2)
H10_12 H 0.599202 0.565281 0.693783
C1_13 C 0.33932(15) 0.91561(15) 0.0497(2)
C2_13 C 0.39101(16) 0.92126(15) 0.0049(2)
H1_13 H 0.4243 0.9282 0.0374
C6_13 C 0.29023(16) 0.90550(15) 0.0005(2)
H3_13 H 0.2555 0.9009 0.0302
C7_13 C 0.33592(16) 0.91959(15) 0.1476(2)
C8_13 C 0.31295(16) 0.88211(17) 0.2077(3)
H4_13 H 0.2952 0.8477 0.1929
C9_13 C 0.34680(17) 0.95230(17) 0.2810(2)
H5_13 H 0.3571 0.9759 0.3285
N1_13 N 0.31984(13) 0.90244(13) 0.29251(19)
N2_7 N 0.35774(13) 0.96564(14) 0.1961(2)
N7_7 N 0.21564(14) 0.89226(13) 0.4461(2)
N9_7 N 0.33782(12) 0.91849(13) 0.5049(2)
C3_13 C 0.39383(15) 0.91666(15) 0.9120(2)
C4_13 C 0.34421(15) 0.90591(15) 0.8643(2)
H2_13 H 0.3460 0.9013 0.8026
C5_13 C 0.29158(15) 0.90199(14) 0.9078(2)
C10_13 C 0.44891(16) 0.92349(15) 0.8661(2)
C11_13 C 0.50264(19) 0.92770(16) 0.8990(3)
H6_13 H 0.5124 0.9252 0.9593
C12_13 C 0.5086(2) 0.93630(16) 0.7577(3)
H7_12 H 0.5233 0.9406 0.7002
C13_13 C 0.23822(15) 0.89839(15) 0.8556(2)
C14_13 C 0.22507(17) 0.92330(15) 0.7761(2)
H8_12 H 0.2503 0.9446 0.7411
C15_13 C 0.14962(16) 0.88037(16) 0.8231(2)
H9_13 H 0.1126 0.8659 0.8265
N4_13 N 0.45308(15) 0.92944(13) 0.7743(2)
N5_7 N 0.16849(13) 0.91218(12) 0.7549(2)
N6_13 N 0.18944(13) 0.87138(13) 0.8858(2)
H10_13 H 0.184719 0.849202 0.943783
N9_8 N 0.16218(12) 0.08151(13) 0.0049(2)
C1_14 C 0.16068(15) 0.08439(15) 0.5497(2)
C2_14 C 0.10899(16) 0.07874(15) 0.5049(2)
H1_14 H 0.0757 0.0718 0.5374
C3_14 C 0.10617(15) 0.08334(15) 0.4120(2)
C4_14 C 0.15579(15) 0.09409(15) 0.3643(2)
H2_14 H 0.1540 0.0987 0.3026
C5_14 C 0.20842(15) 0.09801(14) 0.4078(2)
C6_14 C 0.20977(16) 0.09450(15) 0.5005(2)
H3_14 H 0.2445 0.0991 0.5302
C7_14 C 0.16408(16) 0.08041(15) 0.6476(2)
C8_14 C 0.18705(16) 0.11789(17) 0.7077(3)
H4_14 H 0.2048 0.1523 0.6929
C9_14 C 0.15320(17) 0.04770(17) 0.7810(2)
H5_14 H 0.1429 0.0241 0.8285
C10_14 C 0.05109(16) 0.07651(15) 0.3661(2)
C13_14 C 0.26178(15) 0.10161(15) 0.3556(2)
C14_14 C 0.27493(17) 0.07670(15) 0.2761(2)
H8_13 H 0.2497 0.0554 0.2411
C15_14 C 0.35038(16) 0.11963(16) 0.3231(2)
H9_14 H 0.3874 0.1341 0.3265
N1_14 N 0.18016(13) 0.09756(13) 0.79251(19)
N2_8 N 0.14226(13) 0.03436(14) 0.6961(2)
N4_14 N 0.04692(15) 0.07056(13) 0.2743(2)
N5_8 N 0.33151(13) 0.08782(12) 0.2549(2)
N6_14 N 0.31056(13) 0.12862(13) 0.3858(2)
N7_8 N 0.28436(14) 0.10774(13) 0.9461(2)
H10_14 H 0.315281 0.150798 0.443783
C11_14 C 0.99736(19) 0.07230(16) 0.3990(3)
H6_14 H 0.9876 0.0748 0.4593
C12_14 C 0.9914(2) 0.06370(16) 0.2577(3)
H7_13 H 0.9767 0.0594 0.2002
C9_15 C 0.29770(17) 0.09680(17) 0.0310(2)
H5_15 H 0.2741 0.1071 0.0785
N1_15 N 0.34756(13) 0.06984(13) 0.04251(19)
C1_15 C 0.33439(15) 0.08932(15) 0.7997(2)
C2_15 C 0.32874(15) 0.14101(16) 0.7549(2)
H1_15 H 0.3218 0.1743 0.7874
C3_15 C 0.33334(15) 0.14383(15) 0.6620(2)
C4_15 C 0.34409(15) 0.09421(15) 0.6143(2)
H2_15 H 0.3487 0.0960 0.5526
C5_15 C 0.34801(14) 0.04158(15) 0.6578(2)
C6_15 C 0.34450(15) 0.04023(16) 0.7505(2)
H3_15 H 0.3491 0.0055 0.7802
C7_15 C 0.33041(15) 0.08592(16) 0.8976(2)
C8_15 C 0.36789(17) 0.06295(16) 0.9577(3)
H4_15 H 0.4023 0.0452 0.9429
C10_15 C 0.32651(15) 0.19891(16) 0.6161(2)
C11_15 C 0.32230(16) 0.25264(19) 0.6490(3)
H6_15 H 0.3248 0.2624 0.7093
C12_15 C 0.31370(16) 0.2586(2) 0.5077(3)
H7_14 H 0.3094 0.2733 0.4502
H8_14 H 0.3054 0.0003 0.4911
N4_15 N 0.32056(13) 0.20308(15) 0.5243(2)
C13_15 C 0.35161(15) 0.98822(15) 0.6056(2)
C14_15 C 0.32670(15) 0.97507(17) 0.5261(2)
C15_15 C 0.36963(16) 0.89962(16) 0.5731(2)
H9_15 H 0.3841 0.8626 0.5765
N6_15 N 0.37862(13) 0.93944(13) 0.6358(2)
H10_15 H 0.400798 0.934719 0.693783
C13_16 C 0.14839(15) 0.01178(15) 0.1056(2)
C14_16 C 0.17330(15) 0.02493(17) 0.0261(2)
C15_16 C 0.13037(16) 0.10038(16) 0.0731(2)
H9_16 H 0.1159 0.1374 0.0765
N6_16 N 0.12138(13) 0.06056(13) 0.1358(2)
H10_16 H 0.0992016 0.0652811 0.193783
C1_16 C 0.16561(15) 0.91068(15) 0.2997(2)
C2_16 C 0.17126(15) 0.85899(16) 0.2549(2)
H1_16 H 0.1782 0.8257 0.2874
C3_16 C 0.16666(15) 0.85617(15) 0.1620(2)
C4_16 C 0.15591(15) 0.90579(15) 0.1143(2)
H2_16 H 0.1513 0.9040 0.0526
C5_16 C 0.15199(14) 0.95842(15) 0.1578(2)
C6_16 C 0.15550(15) 0.95977(16) 0.2505(2)
H3_16 H 0.1509 0.9945 0.2802
C7_16 C 0.16959(15) 0.91408(16) 0.3976(2)
C8_16 C 0.13211(17) 0.93705(16) 0.4577(3)
H4_16 H 0.0977 0.9548 0.4429
C9_16 C 0.20230(17) 0.90320(17) 0.5310(2)
H5_16 H 0.2259 0.8929 0.5785
C10_16 C 0.17349(15) 0.80109(16) 0.1161(2)
C11_16 C 0.17770(16) 0.74736(19) 0.1490(3)
H6_16 H 0.1752 0.7376 0.2093
C12_16 C 0.18630(16) 0.7414(2) 0.0077(3)
N1_16 N 0.15244(13) 0.93016(13) 0.54251(19)
N4_16 N 0.17944(13) 0.79692(15) 0.0243(2)
H7_15 H 0.8094 0.2733 0.0498
H8_15 H 0.8054 0.0003 0.0089
H7_16 H 0.1906 0.7267 0.9502
H8_16 H 0.1946 0.9997 0.9911
loop_
_geom_bond_atom_site_label_1
_geom_bond_atom_site_label_2
_geom_bond_site_symmetry_1
_geom_bond_site_symmetry_2
Co1 N1 1_555 1_555
C1 C2 1_555 1_555
C2 H1 1_555 1_555
C3 C2 1_555 1_555
C4 C3 1_555 1_555
H2 C4 1_555 1_555
C5 C4 1_555 1_555
C6 C1 1_555 1_555
H3 C6 1_555 1_555
C7 C1 1_555 1_555
C8 C7 1_555 1_555
H4 C8 1_555 1_555
C9 H5 1_555 1_555
C10 C3 1_555 1_555
C13 C5 1_555 1_555
C14 C13 1_555 1_555
H8 C14 1_555 1_555
C15 H9 1_555 1_555
N1 C8 1_555 1_555
N2 C7 1_555 1_555
N4 C10 1_555 1_555
N5 C14 1_555 1_555
N6 C13 1_555 1_555
Co2 N2 1_555 1_555
Co4 N5 1_555 1_555
N7 Co1 1_555 1_555
N8 Co1 1_555 1_555
C5 C6 1_555 1_555
C9 N1 1_555 1_555
C9 N2 1_555 1_555
C15 N5 1_555 1_555
C15 N6 1_555 1_555
N6 H10 1_555 1_555
H6 C11 1_555 1_555
C12 H7 1_555 1_555
N3 C11 1_555 1_555
Co3 N3 1_555 1_555
C12 N3 1_555 1_555
C4_2 C3_2 1_555 1_555
H2_2 C4_2 1_555 1_555
C5_2 C4_2 1_555 1_555
C10_2 C3_2 1_555 1_555
C11_2 C10_2 1_555 1_555
H6_2 C11_2 1_555 1_555
C12_2 H7_2 1_555 1_555
C13_2 C5_2 1_555 1_555
C14_2 C13_2 1_555 1_555
H8_2 C14_2 1_555 1_555
C15_2 H9_2 1_555 1_555
N3_2 C11_2 1_555 1_555
N4_2 C10_2 1_555 1_555
N5_2 C14_2 1_555 1_555
N6_2 C13_2 1_555 1_555
Co3_2 N3_2 1_555 1_555
Co2 N5_2 1_555 1_555
C12_2 N3_2 1_555 1_555
C12_2 N4_2 1_555 1_555
C15_2 N5_2 1_555 1_555
C15_2 N6_2 1_555 1_555
N6_2 H10_2 1_555 1_555
Co1_2 N1_2 1_555 1_555
C1_2 C2_2 1_555 1_555
C2_2 H1_2 1_555 1_555
C6_2 C1_2 1_555 1_555
H3_2 C6_2 1_555 1_555
C7_2 C1_2 1_555 1_555
C8_2 C7_2 1_555 1_555
H4_2 C8_2 1_555 1_555
C9_2 H5_2 1_555 1_555
N1_2 C8_2 1_555 1_555
N2_2 C7_2 1_555 1_555
Co4 N2_2 1_555 1_555
N7_2 Co1_2 1_555 1_555
N8_2 Co1_2 1_555 1_555
N9_2 Co1_2 1_555 1_555
C9_2 N1_2 1_555 1_555
C9_2 N2_2 1_555 1_555
Co2 N1_3 1_555 1_555
C1_3 C2_3 1_555 1_555
C2_3 H1_3 1_555 1_555
C3_3 C2_3 1_555 1_555
C4_3 C3_3 1_555 1_555
H2_3 C4_3 1_555 1_555
C5_3 C4_3 1_555 1_555
C6_3 C1_3 1_555 1_555
H3_3 C6_3 1_555 1_555
C7_3 C1_3 1_555 1_555
C8_3 C7_3 1_555 1_555
H4_3 C8_3 1_555 1_555
C9_3 H5_3 1_555 1_555
C10_3 C3_3 1_555 1_555
C11_3 C10_3 1_555 1_555
H6_3 C11_3 1_555 1_555
C13_3 C5_3 1_555 1_555
C14_3 C13_3 1_555 1_555
C15_3 H9_3 1_555 1_555
N1_3 C8_3 1_555 1_555
N7_2 C7_3 1_555 1_555
N3_3 C11_3 1_555 1_555
N4_3 C10_3 1_555 1_555
N9 C14_3 1_555 1_555
N6_3 C13_3 1_555 1_555
Co3_3 N3_3 1_555 1_555
N8_3 Co2 1_555 1_555
C5_3 C6_3 1_555 1_555
C9_3 N1_3 1_555 1_555
C9_3 N7_2 1_555 1_555
C12_3 N3_3 1_555 1_555
C12_3 N4_3 1_555 1_555
C15_3 N9 1_555 1_555
C15_3 N6_3 1_555 1_555
N6_3 H10_3 1_555 1_555
C1_4 C2_4 1_555 1_555
C2_4 H1_4 1_555 1_555
C3_4 C2_4 1_555 1_555
C4_4 C3_4 1_555 1_555
H2_4 C4_4 1_555 1_555
C5_4 C4_4 1_555 1_555
C6_4 C1_4 1_555 1_555
H3_4 C6_4 1_555 1_555
C7_4 C1_4 1_555 1_555
C8_4 C7_4 1_555 1_555
H4_4 C8_4 1_555 1_555
C10_4 C3_4 1_555 1_555
C11_4 C10_4 1_555 1_555
H6_4 C11_4 1_555 1_555
C12_4 H7_4 1_555 1_555
C13_4 C5_4 1_555 1_555
C14_4 C13_4 1_555 1_555
H8_4 C14_4 1_555 1_555
C15_4 H9_4 1_555 1_555
N7 C7_4 1_555 1_555
N3_4 C11_4 1_555 1_555
N4_4 C10_4 1_555 1_555
N9_2 C14_4 1_555 1_555
N6_4 C13_4 1_555 1_555
Co3_4 N3_4 1_555 1_555
C5_4 C6_4 1_555 1_555
C12_4 N3_4 1_555 1_555
C12_4 N4_4 1_555 1_555
C15_4 N9_2 1_555 1_555
C15_4 N6_4 1_555 1_555
N6_4 H10_4 1_555 1_555
Co4 N1_4 1_555 1_555
C9_4 H5_4 1_555 1_555
N8_4 Co4 1_555 1_555
C9_4 N1_4 1_555 1_555
C4_5 C3_5 1_555 1_555
H2_5 C4_5 1_555 1_555
C5_5 C4_5 1_555 1_555
C10_5 C3_5 1_555 1_555
C11_5 C10_5 1_555 1_555
H6_5 C11_5 1_555 1_555
C12_5 H7_5 1_555 1_555
C13_5 C5_5 1_555 1_555
C14_5 C13_5 1_555 1_555
H8_5 C14_5 1_555 1_555
C15_5 H9_5 1_555 1_555
N3_5 C11_5 1_555 1_555
N4_5 C10_5 1_555 1_555
N5_3 C14_5 1_555 1_555
N6_5 C13_5 1_555 1_555
Co3_5 N3_5 1_555 1_555
Co4_2 N5_3 1_555 1_555
C12_5 N3_5 1_555 1_555
C12_5 N4_5 1_555 1_555
C15_5 N5_3 1_555 1_555
C15_5 N6_5 1_555 1_555
N6_5 H10_5 1_555 1_555
Co1_3 N1_5 1_555 1_555
C1_5 C2_5 1_555 1_555
C2_5 H1_5 1_555 1_555
C6_5 C1_5 1_555 1_555
H3_5 C6_5 1_555 1_555
C7_5 C1_5 1_555 1_555
C8_5 C7_5 1_555 1_555
H4_5 C8_5 1_555 1_555
C9_5 H5_5 1_555 1_555
N1_5 C8_5 1_555 1_555
N2_3 C7_5 1_555 1_555
N7_3 Co1_3 1_555 1_555
N8_5 Co1_3 1_555 1_555
N9_3 Co1_3 1_555 1_555
C9_5 N1_5 1_555 1_555
C9_5 N2_3 1_555 1_555
H6_6 C11_6 1_555 1_555
C12_6 H7_6 1_555 1_555
N3_6 C11_6 1_555 1_555
Co3_6 N3_6 1_555 1_555
C12_6 N3_6 1_555 1_555
Co1_4 N1_6 1_555 1_555
C1_6 C2_6 1_555 1_555
C2_6 H1_6 1_555 1_555
C3_6 C2_6 1_555 1_555
C4_6 C3_6 1_555 1_555
H2_6 C4_6 1_555 1_555
C5_6 C4_6 1_555 1_555
C6_6 C1_6 1_555 1_555
H3_6 C6_6 1_555 1_555
C7_6 C1_6 1_555 1_555
C8_6 C7_6 1_555 1_555
H4_6 C8_6 1_555 1_555
C9_6 H5_6 1_555 1_555
C10_6 C3_6 1_555 1_555
C13_6 C5_6 1_555 1_555
C14_6 C13_6 1_555 1_555
H8_6 C14_6 1_555 1_555
C15_6 H9_6 1_555 1_555
N1_6 C8_6 1_555 1_555
N2_4 C7_6 1_555 1_555
N4_6 C10_6 1_555 1_555
N5_4 C14_6 1_555 1_555
N6_6 C13_6 1_555 1_555
Co2_2 N5_4 1_555 1_555
N7_4 Co1_4 1_555 1_555
N8_6 Co1_4 1_555 1_555
C5_6 C6_6 1_555 1_555
C9_6 N1_6 1_555 1_555
C9_6 N2_4 1_555 1_555
C15_6 N5_4 1_555 1_555
C15_6 N6_6 1_555 1_555
N6_6 H10_6 1_555 1_555
C14_7 C13_7 1_555 1_555
C15_7 H9_7 1_555 1_555
N9_3 C14_7 1_555 1_555
N6_7 C13_7 1_555 1_555
C15_7 N9_3 1_555 1_555
C15_7 N6_7 1_555 1_555
N6_7 H10_7 1_555 1_555
C1_7 C2_7 1_555 1_555
C2_7 H1_7 1_555 1_555
C3_7 C2_7 1_555 1_555
C4_7 C3_7 1_555 1_555
H2_7 C4_7 1_555 1_555
C5_7 C4_7 1_555 1_555
C6_7 C1_7 1_555 1_555
H3_7 C6_7 1_555 1_555
C7_7 C1_7 1_555 1_555
C8_7 C7_7 1_555 1_555
H4_7 C8_7 1_555 1_555
C10_7 C3_7 1_555 1_555
C11_7 C10_7 1_555 1_555
H6_7 C11_7 1_555 1_555
C12_7 H7_7 1_555 1_555
N7_4 C7_7 1_555 1_555
N3_7 C11_7 1_555 1_555
N4_7 C10_7 1_555 1_555
Co3_7 N3_7 1_555 1_555
C5_7 C6_7 1_555 1_555
C12_7 N3_7 1_555 1_555
C12_7 N4_7 1_555 1_555
Co2_2 N1_7 1_555 1_555
C9_7 H5_7 1_555 1_555
N8_7 Co2_2 1_555 1_555
C9_7 N1_7 1_555 1_555
Co4_2 N1_8 1_555 1_555
C1_8 C2_8 1_555 1_555
C2_8 H1_8 1_555 1_555
C3_8 C2_8 1_555 1_555
C4_8 C3_8 1_555 1_555
H2_8 C4_8 1_555 1_555
C5_8 C4_8 1_555 1_555
C6_8 C1_8 1_555 1_555
H3_8 C6_8 1_555 1_555
C7_8 C1_8 1_555 1_555
C8_8 C7_8 1_555 1_555
H4_8 C8_8 1_555 1_555
C9_8 H5_8 1_555 1_555
C10_8 C3_8 1_555 1_555
C11_8 C10_8 1_555 1_555
H6_8 C11_8 1_555 1_555
N1_8 C8_8 1_555 1_555
N7_3 C7_8 1_555 1_555
N3_8 C11_8 1_555 1_555
N4_8 C10_8 1_555 1_555
Co3_8 N3_8 1_555 1_555
N8_8 Co4_2 1_555 1_555
C5_8 C6_8 1_555 1_555
C9_8 N1_8 1_555 1_555
C9_8 N7_3 1_555 1_555
C12_8 N3_8 1_555 1_555
C12_8 N4_8 1_555 1_555
C14_8 C13_8 1_555 1_555
C15_8 H9_8 1_555 1_555
N9_4 C14_8 1_555 1_555
N6_8 C13_8 1_555 1_555
C15_8 N9_4 1_555 1_555
C15_8 N6_8 1_555 1_555
N6_8 H10_8 1_555 1_555
H6_9 C11_9 1_555 1_555
C12_9 H7_8 1_555 1_555
N8_3 C11_9 1_555 1_555
C12_9 N8_3 1_555 1_555
Co3_8 N1_9 1_555 1_555
C1_9 C2_9 1_555 1_555
C2_9 H1_9 1_555 1_555
C3_9 C2_9 1_555 1_555
C4_9 C3_9 1_555 1_555
H2_9 C4_9 1_555 1_555
C5_9 C4_9 1_555 1_555
C6_9 C1_9 1_555 1_555
H3_9 C6_9 1_555 1_555
C7_9 C1_9 1_555 1_555
C8_9 C7_9 1_555 1_555
H4_9 C8_9 1_555 1_555
C9_9 H5_9 1_555 1_555
C10_9 C3_9 1_555 1_555
C13_9 C5_9 1_555 1_555
C14_9 C13_9 1_555 1_555
H8_8 C14_9 1_555 1_555
C15_9 H9_9 1_555 1_555
N1_9 C8_9 1_555 1_555
N2_5 C7_9 1_555 1_555
N4_9 C10_9 1_555 1_555
N5_5 C14_9 1_555 1_555
N6_9 C13_9 1_555 1_555
Co3 N2_5 1_555 1_555
Co3_2 N5_5 1_555 1_555
N7_5 Co3_8 1_555 1_555
C5_9 C6_9 1_555 1_555
C9_9 N1_9 1_555 1_555
C9_9 N2_5 1_555 1_555
C15_9 N5_5 1_555 1_555
C15_9 N6_9 1_555 1_555
N6_9 H10_9 1_555 1_555
Co3_7 N1_10 1_555 1_555
C1_10 C2_10 1_555 1_555
C2_10 H1_10 1_555 1_555
C6_10 C1_10 1_555 1_555
H3_10 C6_10 1_555 1_555
C7_10 C1_10 1_555 1_555
C8_10 C7_10 1_555 1_555
H4_10 C8_10 1_555 1_555
C9_10 H5_10 1_555 1_555
N1_10 C8_10 1_555 1_555
N2_6 C7_10 1_555 1_555
Co3_2 N2_6 1_555 1_555
N7_6 Co3_7 1_555 1_555
N9_6 Co3_7 1_555 1_555
C9_10 N1_10 1_555 1_555
C9_10 N2_6 1_555 1_555
C4_10 C3_10 1_555 1_555
H2_10 C4_10 1_555 1_555
C5_10 C4_10 1_555 1_555
C10_10 C3_10 1_555 1_555
C11_10 C10_10 1_555 1_555
H6_10 C11_10 1_555 1_555
C12_10 H7_9 1_555 1_555
C13_10 C5_10 1_555 1_555
C14_10 C13_10 1_555 1_555
H8_9 C14_10 1_555 1_555
C15_10 H9_10 1_555 1_555
N8_4 C11_10 1_555 1_555
N4_10 C10_10 1_555 1_555
N5_6 C14_10 1_555 1_555
N6_10 C13_10 1_555 1_555
Co3 N5_6 1_555 1_555
C12_10 N8_4 1_555 1_555
C12_10 N4_10 1_555 1_555
C15_10 N5_6 1_555 1_555
C15_10 N6_10 1_555 1_555
N6_10 H10_10 1_555 1_555
Co3 N1_11 1_555 1_555
C1_11 C2_11 1_555 1_555
C2_11 H1_11 1_555 1_555
C3_11 C2_11 1_555 1_555
C4_11 C3_11 1_555 1_555
H2_11 C4_11 1_555 1_555
C5_11 C4_11 1_555 1_555
C6_11 C1_11 1_555 1_555
H3_11 C6_11 1_555 1_555
C7_11 C1_11 1_555 1_555
C8_11 C7_11 1_555 1_555
H4_11 C8_11 1_555 1_555
C9_11 H5_11 1_555 1_555
C10_11 C3_11 1_555 1_555
C11_11 C10_11 1_555 1_555
H6_11 C11_11 1_555 1_555
C13_11 C5_11 1_555 1_555
C14_11 C13_11 1_555 1_555
C15_11 H9_11 1_555 1_555
N1_11 C8_11 1_555 1_555
N7_6 C7_11 1_555 1_555
N8_6 C11_11 1_555 1_555
N4_11 C10_11 1_555 1_555
N9_5 C14_11 1_555 1_555
N6_11 C13_11 1_555 1_555
C5_11 C6_11 1_555 1_555
C9_11 N1_11 1_555 1_555
C9_11 N7_6 1_555 1_555
C12_11 N8_6 1_555 1_555
C12_11 N4_11 1_555 1_555
C15_11 N9_5 1_555 1_555
C15_11 N6_11 1_555 1_555
N6_11 H10_11 1_555 1_555
Co3_2 N1_12 1_555 1_555
C9_12 H5_12 1_555 1_555
C9_12 N1_12 1_555 1_555
C1_12 C2_12 1_555 1_555
C2_12 H1_12 1_555 1_555
C3_12 C2_12 1_555 1_555
C4_12 C3_12 1_555 1_555
H2_12 C4_12 1_555 1_555
C5_12 C4_12 1_555 1_555
C6_12 C1_12 1_555 1_555
H3_12 C6_12 1_555 1_555
C7_12 C1_12 1_555 1_555
C8_12 C7_12 1_555 1_555
H4_12 C8_12 1_555 1_555
C10_12 C3_12 1_555 1_555
C11_12 C10_12 1_555 1_555
H6_12 C11_12 1_555 1_555
C12_12 H7_11 1_555 1_555
C13_12 C5_12 1_555 1_555
C14_12 C13_12 1_555 1_555
H8_11 C14_12 1_555 1_555
C15_12 H9_12 1_555 1_555
N7_5 C7_12 1_555 1_555
N8_5 C11_12 1_555 1_555
N4_12 C10_12 1_555 1_555
N9_6 C14_12 1_555 1_555
N6_12 C13_12 1_555 1_555
C5_12 C6_12 1_555 1_555
C12_12 N8_5 1_555 1_555
C12_12 N4_12 1_555 1_555
C15_12 N9_6 1_555 1_555
C15_12 N6_12 1_555 1_555
N6_12 H10_12 1_555 1_555
Co3_4 N1_13 1_555 1_555
C1_13 C2_13 1_555 1_555
C2_13 H1_13 1_555 1_555
C6_13 C1_13 1_555 1_555
H3_13 C6_13 1_555 1_555
C7_13 C1_13 1_555 1_555
C8_13 C7_13 1_555 1_555
H4_13 C8_13 1_555 1_555
C9_13 H5_13 1_555 1_555
N1_13 C8_13 1_555 1_555
N2_7 C7_13 1_555 1_555
N7_7 Co3_4 1_555 1_555
N9_7 Co3_4 1_555 1_555
C9_13 N1_13 1_555 1_555
C9_13 N2_7 1_555 1_555
C4_13 C3_13 1_555 1_555
H2_13 C4_13 1_555 1_555
C5_13 C4_13 1_555 1_555
C10_13 C3_13 1_555 1_555
C11_13 C10_13 1_555 1_555
H6_13 C11_13 1_555 1_555
C12_13 H7_12 1_555 1_555
C13_13 C5_13 1_555 1_555
C14_13 C13_13 1_555 1_555
H8_12 C14_13 1_555 1_555
C15_13 H9_13 1_555 1_555
N8_7 C11_13 1_555 1_555
N4_13 C10_13 1_555 1_555
N5_7 C14_13 1_555 1_555
N6_13 C13_13 1_555 1_555
Co3_6 N5_7 1_555 1_555
C12_13 N8_7 1_555 1_555
C12_13 N4_13 1_555 1_555
C15_13 N5_7 1_555 1_555
C15_13 N6_13 1_555 1_555
N6_13 H10_13 1_555 1_555
Co3_3 N1_14 1_555 1_555
C1_14 C2_14 1_555 1_555
C2_14 H1_14 1_555 1_555
C3_14 C2_14 1_555 1_555
C4_14 C3_14 1_555 1_555
H2_14 C4_14 1_555 1_555
C5_14 C4_14 1_555 1_555
C6_14 C1_14 1_555 1_555
H3_14 C6_14 1_555 1_555
C7_14 C1_14 1_555 1_555
C8_14 C7_14 1_555 1_555
H4_14 C8_14 1_555 1_555
C9_14 H5_14 1_555 1_555
C10_14 C3_14 1_555 1_555
C13_14 C5_14 1_555 1_555
C14_14 C13_14 1_555 1_555
H8_13 C14_14 1_555 1_555
C15_14 H9_14 1_555 1_555
N1_14 C8_14 1_555 1_555
N2_8 C7_14 1_555 1_555
N4_14 C10_14 1_555 1_555
N5_8 C14_14 1_555 1_555
N6_14 C13_14 1_555 1_555
Co3_5 N5_8 1_555 1_555
N7_8 Co3_3 1_555 1_555
C5_14 C6_14 1_555 1_555
C9_14 N1_14 1_555 1_555
C9_14 N2_8 1_555 1_555
C15_14 N5_8 1_555 1_555
C15_14 N6_14 1_555 1_555
N6_14 H10_14 1_555 1_555
H6_14 C11_14 1_555 1_555
C12_14 H7_13 1_555 1_555
N8_8 C11_14 1_555 1_555
C12_14 N8_8 1_555 1_555
Co3_5 N1_15 1_555 1_555
C9_15 H5_15 1_555 1_555
C9_15 N1_15 1_555 1_555
C1_15 C2_15 1_555 1_555
C2_15 H1_15 1_555 1_555
C3_15 C2_15 1_555 1_555
C4_15 C3_15 1_555 1_555
H2_15 C4_15 1_555 1_555
C5_15 C4_15 1_555 1_555
C6_15 C1_15 1_555 1_555
H3_15 C6_15 1_555 1_555
C7_15 C1_15 1_555 1_555
C8_15 C7_15 1_555 1_555
H4_15 C8_15 1_555 1_555
C10_15 C3_15 1_555 1_555
C11_15 C10_15 1_555 1_555
H6_15 C11_15 1_555 1_555
C12_15 H7_14 1_555 1_555
N7_8 C7_15 1_555 1_555
N8_2 C11_15 1_555 1_555
N4_15 C10_15 1_555 1_555
C5_15 C6_15 1_555 1_555
C12_15 N8_2 1_555 1_555
C12_15 N4_15 1_555 1_555
C14_15 C13_15 1_555 1_555
C15_15 H9_15 1_555 1_555
N9_7 C14_15 1_555 1_555
N6_15 C13_15 1_555 1_555
C15_15 N9_7 1_555 1_555
C15_15 N6_15 1_555 1_555
N6_15 H10_15 1_555 1_555
C14_16 C13_16 1_555 1_555
C15_16 H9_16 1_555 1_555
N9_8 C14_16 1_555 1_555
N6_16 C13_16 1_555 1_555
C15_16 N9_8 1_555 1_555
C15_16 N6_16 1_555 1_555
N6_16 H10_16 1_555 1_555
Co3_6 N1_16 1_555 1_555
C1_16 C2_16 1_555 1_555
C2_16 H1_16 1_555 1_555
C3_16 C2_16 1_555 1_555
C4_16 C3_16 1_555 1_555
H2_16 C4_16 1_555 1_555
C5_16 C4_16 1_555 1_555
C6_16 C1_16 1_555 1_555
H3_16 C6_16 1_555 1_555
C7_16 C1_16 1_555 1_555
C8_16 C7_16 1_555 1_555
H4_16 C8_16 1_555 1_555
C9_16 H5_16 1_555 1_555
C10_16 C3_16 1_555 1_555
C11_16 C10_16 1_555 1_555
H6_16 C11_16 1_555 1_555
N1_16 C8_16 1_555 1_555
N7_7 C7_16 1_555 1_555
N8 C11_16 1_555 1_555
N4_16 C10_16 1_555 1_555
C5_16 C6_16 1_555 1_555
C9_16 N1_16 1_555 1_555
C9_16 N7_7 1_555 1_555
C12_16 N8 1_555 1_555
C12_16 N4_16 1_555 1_555

#END
