
###############################################################################
#
# This file contains modified crystal structure data generated from the
# MOF subset of the Cambridge Structural Database (CSD) v543 
# hosted by the Cambridge Crystallographic Data Centre (CCDC).
#
# This work is licensed under the Creative Commons
# Attribution-NonCommercial-ShareAlike 4.0 International License.
# To view a copy of this license, visit
# http://creativecommons.org/licenses/by-nc-sa/4.0/
# or send a letter to
# Creative Commons, PO Box 1866, Mountain View, CA 94042, USA.
#
# CIF created using the CSD Python API on 29 September 2022
# The structure has been converted into the P1 space group
# The structure has a 3D framework
# The original CSD entry EQERAU is in the monoclinic crystal system
# The framework has been calculated to contain at least 10.0% void space
# The void calculation uses a probe of radius 1.32A, grid spacing 0.4
# H atom positions have been added when not included in the experimental data
# Generated hydrogen atom positions removed from atoms on special positions
#
###############################################################################

data_EQERAU
_chemical_formula_moiety         '(C84 H80 Mg8 O38 P4)n'
_symmetry_cell_setting           triclinic
_symmetry_space_group_name_H-M   'P 1'
_symmetry_Int_Tables_number      1
_space_group_name_Hall           'P 1'
loop_
_symmetry_equiv_pos_site_id
_symmetry_equiv_pos_as_xyz
1 x,y,z
_cell_length_a                   13.5792(4)
_cell_length_b                   13.8958(4)
_cell_length_c                   20.7478(6)
_cell_angle_alpha                90
_cell_angle_beta                 104.8821(13)
_cell_angle_gamma                90
_cell_volume                     3783.66
loop_
_atom_site_label
_atom_site_type_symbol
_atom_site_fract_x
_atom_site_fract_y
_atom_site_fract_z
Mg7 Mg 0.34614(10) 0.13395(10) 0.04953(6)
O4 O 0.2143(2) 0.0774(2) 0.98864(14)
C12 C 0.0069(3) 0.0565(4) 0.9324(2)
H8 H 0.0298 0.1057 0.9645
C14 C 0.1901(3) 0.0061(3) 0.9505(2)
O5 O 0.2482(2) 0.9442(2) 0.93793(16)
C10 C 0.0442(4) 0.9258(4) 0.8692(3)
H7 H 0.0923 0.8838 0.8577
C11 C 0.0766(3) 0.9949(3) 0.9166(2)
Mg11 Mg 0.40507(10) 0.95701(10) 0.94830(7)
P2 P 0.26404(7) 0.03705(8) 0.18150(5)
Mg6 Mg 0.34614(10) 0.36605(10) 0.54953(6)
Mg10 Mg 0.59493(10) 0.04299(10) 0.05170(7)
Mg16 Mg 0.40507(10) 0.54299(10) 0.44830(7)
O11 O 0.3212(2) 0.0623(2) 0.13157(13)
O12 O 0.3715(2) 0.4169(2) 0.39263(14)
O15 O 0.3695(2) 0.2970(2) 0.46473(14)
O23 O 0.7518(2) 0.0558(2) 0.06207(16)
O26 O 0.6084(2) 0.1291(2) 0.13478(16)
O29 O 0.4616(2) 0.2143(2) 0.11031(14)
O30 O 0.43996(19) 0.0238(2) 0.03977(12)
O31 O 0.2519(3) 0.2498(3) 0.06128(16)
C22 C 0.2841(3) 0.1256(3) 0.24731(19)
C23 C 0.3174(4) 0.2157(4) 0.2361(2)
H15 H 0.3248 0.2322 0.1931
C24 C 0.3402(4) 0.2827(4) 0.2870(2)
H16 H 0.3625 0.3452 0.2786
C25 C 0.3308(3) 0.2594(3) 0.35036(19)
C26 C 0.2951(4) 0.1700(4) 0.3606(2)
H17 H 0.2864 0.1543 0.4034
C27 C 0.2713(4) 0.1019(4) 0.3103(2)
H18 H 0.2468 0.0402 0.3183
C28 C 0.3592(3) 0.3315(3) 0.4066(2)
C29 C 0.1293(3) 0.0229(3) 0.14608(18)
C30 C 0.0587(4) 0.0833(4) 0.1625(3)
H19 H 0.0807 0.1314 0.1956
H32 H 0.597076 0.231941 0.0314026
O6 O 0.6084(2) 0.3709(2) 0.63478(16)
O7 O 0.4616(2) 0.2857(2) 0.61031(14)
H1 H 0.5671 0.0262 0.9271
C13 C 0.9035(3) 0.0475(3) 0.9020(2)
H9 H 0.8557 0.0893 0.9139
C15 C 0.6886(3) 0.0727(3) 0.7746(2)
C16 C 0.7491(3) 0.1392(4) 0.7540(3)
H10 H 0.8212 0.1333 0.7681
C17 C 0.7057(3) 0.2147(4) 0.7129(2)
H11 H 0.7482 0.2613 0.7001
C18 C 0.6007(3) 0.2228(3) 0.6901(2)
C19 C 0.5399(3) 0.1558(3) 0.7115(2)
H12 H 0.4678 0.1606 0.6965
C20 C 0.5827(3) 0.0830(3) 0.7538(2)
H13 H 0.5401 0.0392 0.7693
C21 C 0.5529(3) 0.3002(3) 0.6408(2)
Mg13 Mg 0.59493(10) 0.45701(10) 0.55170(7)
O13 O 0.3715(2) 0.0831(2) 0.89263(14)
O16 O 0.3695(2) 0.2030(2) 0.96473(14)
O32 O 0.5832(3) 0.1781(2) 0.99885(17)
O10 O 0.4168(3) 0.8219(2) 0.00115(17)
Mg9 Mg 0.65386(10) 0.63395(10) 0.45047(6)
O14 O 0.6285(2) 0.9169(2) 0.10737(14)
O17 O 0.6305(2) 0.7970(2) 0.03527(14)
O20 O 0.7857(2) 0.9226(2) 0.01136(14)
O24 O 0.3916(2) 0.6291(2) 0.36522(16)
O27 O 0.5384(2) 0.7143(2) 0.38969(14)
H14 H 0.4329 0.9738 0.0729
C34 C 0.0965(3) 0.9525(3) 0.0980(2)
H22 H 0.1443 0.9107 0.0861
C36 C 0.3114(3) 0.9273(3) 0.2254(2)
C37 C 0.2509(3) 0.8608(4) 0.2460(3)
H23 H 0.1788 0.8667 0.2319
C38 C 0.2943(3) 0.7853(4) 0.2871(2)
H24 H 0.2518 0.7387 0.2999
C39 C 0.3993(3) 0.7772(3) 0.3099(2)
C40 C 0.4601(3) 0.8442(3) 0.2885(2)
H25 H 0.5322 0.8394 0.3035
C41 C 0.4173(3) 0.9170(3) 0.2462(2)
H26 H 0.4599 0.9608 0.2307
C42 C 0.4471(3) 0.6998(3) 0.3592(2)
P1 P 0.73596(7) 0.96295(8) 0.81850(5)
Mg1 Mg 0.65386(10) 0.86605(10) 0.95047(6)
O1 O 0.6788(2) 0.9377(2) 0.86843(13)
O2 O 0.6285(2) 0.5831(2) 0.60737(14)
O3 O 0.6305(2) 0.7030(2) 0.53527(14)
O8 O 0.56004(19) 0.9762(2) 0.96023(12)
O9 O 0.7481(3) 0.7502(3) 0.93872(16)
C1 C 0.7159(3) 0.8744(3) 0.75269(19)
C2 C 0.6826(4) 0.7843(4) 0.7639(2)
H2 H 0.6752 0.7678 0.8069
C3 C 0.6598(4) 0.7173(4) 0.7130(2)
H3 H 0.6375 0.6548 0.7214
C4 C 0.6692(3) 0.7406(3) 0.64964(19)
C5 C 0.7049(4) 0.8300(4) 0.6394(2)
H4 H 0.7136 0.8457 0.5966
C6 C 0.7287(4) 0.8981(4) 0.6897(2)
H5 H 0.7532 0.9598 0.6817
C7 C 0.6408(3) 0.6685(3) 0.5934(2)
C8 C 0.8707(3) 0.9771(3) 0.85392(18)
C9 C 0.9413(4) 0.9167(4) 0.8375(3)
H6 H 0.9193 0.8686 0.8044
O25 O 0.3916(2) 0.8709(2) 0.86522(16)
O28 O 0.5384(2) 0.7857(2) 0.88969(14)
C31 C 0.9558(4) 0.0742(4) 0.1308(3)
H20 H 0.9077 0.1162 0.1423
C32 C 0.9234(3) 0.0051(3) 0.0834(2)
C33 C 0.9931(3) 0.9435(4) 0.0676(2)
H21 H 0.9702 0.8943 0.0355
C35 C 0.8099(3) 0.9939(3) 0.0495(2)
O18 O 0.2143(2) 0.4226(2) 0.48864(14)
O21 O 0.2482(2) 0.5558(2) 0.43793(16)
C31_2 C 0.0442(4) 0.5742(4) 0.3692(3)
H20_2 H 0.0923 0.6162 0.3577
C32_2 C 0.0766(3) 0.5051(3) 0.4166(2)
C33_2 C 0.0069(3) 0.4435(4) 0.4324(2)
H21_2 H 0.0298 0.3943 0.4645
C35_2 C 0.1901(3) 0.4939(3) 0.4505(2)
P1_2 P 0.26404(7) 0.46295(8) 0.68150(5)
O1_2 O 0.3212(2) 0.4377(2) 0.63157(13)
O8_2 O 0.43996(19) 0.4762(2) 0.53977(12)
H1_2 H 0.4329 0.5262 0.5729
O9_2 O 0.2519(3) 0.2502(3) 0.56128(16)
O10_2 O 0.5832(3) 0.3219(2) 0.49885(17)
C1_2 C 0.2841(3) 0.3744(3) 0.74731(19)
C2_2 C 0.3174(4) 0.2843(4) 0.7361(2)
H2_2 H 0.3248 0.2678 0.6931
C3_2 C 0.3402(4) 0.2173(4) 0.7870(2)
H3_2 H 0.3625 0.1548 0.7786
C4_2 C 0.3308(3) 0.2406(3) 0.85036(19)
C5_2 C 0.2951(4) 0.3300(4) 0.8606(2)
H4_2 H 0.2864 0.3457 0.9034
C6_2 C 0.2713(4) 0.3981(4) 0.8103(2)
H5_2 H 0.2468 0.4598 0.8183
C7_2 C 0.3592(3) 0.1685(3) 0.9066(2)
C8_2 C 0.1293(3) 0.4771(3) 0.64608(18)
C9_2 C 0.0587(4) 0.4167(4) 0.6625(3)
H6_2 H 0.0807 0.3686 0.6956
C13_2 C 0.0965(3) 0.5475(3) 0.5980(2)
H9_2 H 0.1443 0.5893 0.5861
C15_2 C 0.3114(3) 0.5727(3) 0.7254(2)
C16_2 C 0.2509(3) 0.6392(4) 0.7460(3)
H10_2 H 0.1788 0.6333 0.7319
C17_2 C 0.2943(3) 0.7147(4) 0.7871(2)
H11_2 H 0.2518 0.7613 0.7999
C18_2 C 0.3993(3) 0.7228(3) 0.8099(2)
C19_2 C 0.4601(3) 0.6558(3) 0.7885(2)
H12_2 H 0.5322 0.6606 0.8035
C20_2 C 0.4173(3) 0.5830(3) 0.7462(2)
H13_2 H 0.4599 0.5392 0.7307
C21_2 C 0.4471(3) 0.8002(3) 0.8592(2)
P2_2 P 0.73596(7) 0.53705(8) 0.31850(5)
O11_2 O 0.6788(2) 0.5623(2) 0.36843(13)
O19 O 0.7857(2) 0.5774(2) 0.51136(14)
O22 O 0.7518(2) 0.4442(2) 0.56207(16)
O30_2 O 0.56004(19) 0.5238(2) 0.46023(12)
H14_2 H 0.5671 0.4738 0.4271
O31_2 O 0.7481(3) 0.7498(3) 0.43872(16)
O32_2 O 0.4168(3) 0.6781(2) 0.50115(17)
C22_2 C 0.7159(3) 0.6256(3) 0.25269(19)
C23_2 C 0.6826(4) 0.7157(4) 0.2639(2)
H15_2 H 0.6752 0.7322 0.3069
C24_2 C 0.6598(4) 0.7827(4) 0.2130(2)
H16_2 H 0.6375 0.8452 0.2214
C25_2 C 0.6692(3) 0.7594(3) 0.14964(19)
C26_2 C 0.7049(4) 0.6700(4) 0.1394(2)
H17_2 H 0.7136 0.6543 0.0966
C27_2 C 0.7287(4) 0.6019(4) 0.1897(2)
H18_2 H 0.7532 0.5402 0.1817
C28_2 C 0.6408(3) 0.8315(3) 0.0934(2)
C29_2 C 0.8707(3) 0.5229(3) 0.35392(18)
C30_2 C 0.9413(4) 0.5833(4) 0.3375(3)
H19_2 H 0.9193 0.6314 0.3044
C34_2 C 0.9035(3) 0.4525(3) 0.4020(2)
H22_2 H 0.8557 0.4107 0.4139
C36_2 C 0.6886(3) 0.4273(3) 0.2746(2)
C37_2 C 0.7491(3) 0.3608(4) 0.2540(3)
H23_2 H 0.8212 0.3667 0.2681
C38_2 C 0.7057(3) 0.2853(4) 0.2129(2)
H24_2 H 0.7482 0.2387 0.2001
C39_2 C 0.6007(3) 0.2772(3) 0.1901(2)
C40_2 C 0.5399(3) 0.3442(3) 0.2115(2)
H25_2 H 0.4678 0.3394 0.1965
C41_2 C 0.5827(3) 0.4170(3) 0.2538(2)
H26_2 H 0.5401 0.4608 0.2693
C42_2 C 0.5529(3) 0.1998(3) 0.1408(2)
C10_2 C 0.9558(4) 0.4258(4) 0.6308(3)
H7_2 H 0.9077 0.3838 0.6423
C11_2 C 0.9234(3) 0.4949(3) 0.5834(2)
C12_2 C 0.9931(3) 0.5565(4) 0.5676(2)
H8_2 H 0.9702 0.6057 0.5355
C14_2 C 0.8099(3) 0.5061(3) 0.5495(2)
H32_2 H 0.402924 0.768059 0.968597
loop_
_geom_bond_atom_site_label_1
_geom_bond_atom_site_label_2
_geom_bond_site_symmetry_1
_geom_bond_site_symmetry_2
O4 C14 1_555 1_555
H8 C12 1_555 1_555
H7 C10 1_555 1_555
C11 C10 1_555 1_555
Mg11 O5 1_555 1_555
P2 O11 1_555 1_555
Mg7 O11 1_555 1_555
Mg6 O15 1_555 1_555
Mg16 O12 1_555 1_555
O12 C28 1_555 1_555
O15 C28 1_555 1_555
O23 Mg10 1_555 1_555
O26 Mg10 1_555 1_555
O29 Mg7 1_555 1_555
O31 Mg7 1_555 1_555
C22 P2 1_555 1_555
C23 C22 1_555 1_555
H15 C23 1_555 1_555
C24 C23 1_555 1_555
H16 C24 1_555 1_555
C25 C24 1_555 1_555
C26 C25 1_555 1_555
H17 C26 1_555 1_555
C27 C22 1_555 1_555
H18 C27 1_555 1_555
C28 C25 1_555 1_555
C29 P2 1_555 1_555
C30 C29 1_555 1_555
H19 C30 1_555 1_555
Mg7 O30 1_555 1_555
Mg10 O30 1_555 1_555
C26 C27 1_555 1_555
O6 C21 1_555 1_555
O7 C21 1_555 1_555
H9 C13 1_555 1_555
C16 C15 1_555 1_555
H10 C16 1_555 1_555
C17 C16 1_555 1_555
H11 C17 1_555 1_555
C18 C17 1_555 1_555
C19 C18 1_555 1_555
H12 C19 1_555 1_555
C20 C15 1_555 1_555
H13 C20 1_555 1_555
C21 C18 1_555 1_555
Mg6 O7 1_555 1_555
Mg13 O6 1_555 1_555
C19 C20 1_555 1_555
Mg9 O27 1_555 1_555
Mg16 O24 1_555 1_555
O24 C42 1_555 1_555
O27 C42 1_555 1_555
H22 C34 1_555 1_555
C37 C36 1_555 1_555
H23 C37 1_555 1_555
C38 C37 1_555 1_555
H24 C38 1_555 1_555
C39 C38 1_555 1_555
C40 C39 1_555 1_555
H25 C40 1_555 1_555
C41 C36 1_555 1_555
H26 C41 1_555 1_555
C42 C39 1_555 1_555
C40 C41 1_555 1_555
P1 O1 1_555 1_555
Mg1 O1 1_555 1_555
Mg11 O8 1_555 1_555
O2 C7 1_555 1_555
O3 C7 1_555 1_555
O8 Mg1 1_555 1_555
O9 Mg1 1_555 1_555
C1 P1 1_555 1_555
C2 C1 1_555 1_555
H2 C2 1_555 1_555
C3 C2 1_555 1_555
H3 C3 1_555 1_555
C4 C3 1_555 1_555
C5 C4 1_555 1_555
H4 C5 1_555 1_555
C6 C1 1_555 1_555
H5 C6 1_555 1_555
C7 C4 1_555 1_555
C8 P1 1_555 1_555
C9 C8 1_555 1_555
H6 C9 1_555 1_555
Mg9 O3 1_555 1_555
Mg13 O2 1_555 1_555
O25 Mg11 1_555 1_555
O28 Mg1 1_555 1_555
C5 C6 1_555 1_555
H20 C31 1_555 1_555
C32 C31 1_555 1_555
O20 C35 1_555 1_555
H21 C33 1_555 1_555
Mg6 O18 1_555 1_555
Mg16 O21 1_555 1_555
O18 C35_2 1_555 1_555
O21 C35_2 1_555 1_555
H20_2 C31_2 1_555 1_555
C32_2 C31_2 1_555 1_555
C33_2 C32_2 1_555 1_555
H21_2 C33_2 1_555 1_555
C35_2 C32_2 1_555 1_555
P1_2 O1_2 1_555 1_555
Mg6 O1_2 1_555 1_555
Mg13 O8_2 1_555 1_555
O13 C7_2 1_555 1_555
O16 C7_2 1_555 1_555
O25 C21_2 1_555 1_555
O28 C21_2 1_555 1_555
O8_2 Mg6 1_555 1_555
H1_2 O8_2 1_555 1_555
O9_2 Mg6 1_555 1_555
O10_2 Mg13 1_555 1_555
C1_2 P1_2 1_555 1_555
C2_2 C1_2 1_555 1_555
H2_2 C2_2 1_555 1_555
C3_2 C2_2 1_555 1_555
H3_2 C3_2 1_555 1_555
C4_2 C3_2 1_555 1_555
C5_2 C4_2 1_555 1_555
H4_2 C5_2 1_555 1_555
C6_2 C1_2 1_555 1_555
H5_2 C6_2 1_555 1_555
C7_2 C4_2 1_555 1_555
C8_2 P1_2 1_555 1_555
C9_2 C8_2 1_555 1_555
H6_2 C9_2 1_555 1_555
C13_2 C8_2 1_555 1_555
H9_2 C13_2 1_555 1_555
C15_2 P1_2 1_555 1_555
C16_2 C15_2 1_555 1_555
H10_2 C16_2 1_555 1_555
C17_2 C16_2 1_555 1_555
H11_2 C17_2 1_555 1_555
C18_2 C17_2 1_555 1_555
C19_2 C18_2 1_555 1_555
H12_2 C19_2 1_555 1_555
C20_2 C15_2 1_555 1_555
H13_2 C20_2 1_555 1_555
C21_2 C18_2 1_555 1_555
P2_2 O11_2 1_555 1_555
Mg9 O11_2 1_555 1_555
Mg16 O8_2 1_555 1_555
O14 C28_2 1_555 1_555
O17 C28_2 1_555 1_555
O19 Mg9 1_555 1_555
O22 Mg13 1_555 1_555
O26 C42_2 1_555 1_555
O29 C42_2 1_555 1_555
O30_2 Mg13 1_555 1_555
H14_2 O30_2 1_555 1_555
O31_2 Mg9 1_555 1_555
O32_2 Mg16 1_555 1_555
C22_2 P2_2 1_555 1_555
C23_2 C22_2 1_555 1_555
H15_2 C23_2 1_555 1_555
C24_2 C23_2 1_555 1_555
H16_2 C24_2 1_555 1_555
C25_2 C24_2 1_555 1_555
C26_2 C25_2 1_555 1_555
H17_2 C26_2 1_555 1_555
C27_2 C22_2 1_555 1_555
H18_2 C27_2 1_555 1_555
C28_2 C25_2 1_555 1_555
C29_2 P2_2 1_555 1_555
C30_2 C29_2 1_555 1_555
H19_2 C30_2 1_555 1_555
C34_2 C29_2 1_555 1_555
H22_2 C34_2 1_555 1_555
C36_2 P2_2 1_555 1_555
C37_2 C36_2 1_555 1_555
H23_2 C37_2 1_555 1_555
C38_2 C37_2 1_555 1_555
H24_2 C38_2 1_555 1_555
C39_2 C38_2 1_555 1_555
C40_2 C39_2 1_555 1_555
H25_2 C40_2 1_555 1_555
C41_2 C36_2 1_555 1_555
H26_2 C41_2 1_555 1_555
C42_2 C39_2 1_555 1_555
C5_2 C6_2 1_555 1_555
C19_2 C20_2 1_555 1_555
Mg9 O30_2 1_555 1_555
Mg16 O30_2 1_555 1_555
C26_2 C27_2 1_555 1_555
C40_2 C41_2 1_555 1_555
O19 C14_2 1_555 1_555
O22 C14_2 1_555 1_555
H7_2 C10_2 1_555 1_555
C11_2 C10_2 1_555 1_555
C12_2 C11_2 1_555 1_555
H8_2 C12_2 1_555 1_555
C14_2 C11_2 1_555 1_555

#END
