
###############################################################################
#
# This file contains modified crystal structure data generated from the
# MOF subset of the Cambridge Structural Database (CSD) v543 
# hosted by the Cambridge Crystallographic Data Centre (CCDC).
#
# This work is licensed under the Creative Commons
# Attribution-NonCommercial-ShareAlike 4.0 International License.
# To view a copy of this license, visit
# http://creativecommons.org/licenses/by-nc-sa/4.0/
# or send a letter to
# Creative Commons, PO Box 1866, Mountain View, CA 94042, USA.
#
# CIF created using the CSD Python API on 29 September 2022
# The structure has been converted into the P1 space group
# The structure has a 3D framework
# The original CSD entry EQOCES01 is in the orthorhombic crystal system
# The framework has been calculated to contain at least 10.0% void space
# The void calculation uses a probe of radius 1.32A, grid spacing 0.4
#
###############################################################################

data_EQOCES01
_chemical_formula_moiety         '(C96 H96 Co16 N64)n'
_symmetry_cell_setting           triclinic
_symmetry_space_group_name_H-M   'P 1'
_symmetry_Int_Tables_number      1
_space_group_name_Hall           'P 1'
loop_
_symmetry_equiv_pos_site_id
_symmetry_equiv_pos_as_xyz
1 x,y,z
_cell_length_a                   15.9712(18)
_cell_length_b                   15.9253(19)
_cell_length_c                   18.475(2)
_cell_angle_alpha                90
_cell_angle_beta                 90
_cell_angle_gamma                90
_cell_volume                     4699.05
loop_
_atom_site_label
_atom_site_type_symbol
_atom_site_fract_x
_atom_site_fract_y
_atom_site_fract_z
Co1 Co 0.31203(3) 0.13639(3) 0.60097(3)
Co2 Co 0.00494(3) 0.32136(3) 0.67494(2)
N1 N 0.19034(18) 0.1553(2) 0.61272(15)
N2 N 0.07288(19) 0.2264(2) 0.63945(15)
N3 N 0.34213(17) 0.13422(19) 0.49770(15)
N4 N 0.41535(17) 0.14988(19) 0.39452(16)
N5 N 0.34307(18) 0.03100(19) 0.65094(16)
N7 N 0.44973(16) 0.2974(2) 0.73175(15)
N8 N 0.37437(16) 0.2295(2) 0.64759(16)
C1 C 0.1222(3) 0.1055(3) 0.6007(3)
C2 C 0.0527(3) 0.1495(4) 0.6163(3)
C3 C 0.1559(3) 0.2253(3) 0.6358(2)
C4 C 0.2963(3) 0.1065(3) 0.4407(3)
C5 C 0.3397(3) 0.1146(3) 0.3793(3)
C6 C 0.4114(2) 0.1602(3) 0.4648(2)
C10 C 0.4307(3) 0.3504(3) 0.6773(3)
C11 C 0.3862(3) 0.3101(3) 0.6268(3)
C12 C 0.4139(2) 0.2266(3) 0.7109(2)
H1 H 0.131(2) 0.054(2) 0.5815(18)
H2 H 0.003(2) 0.134(3) 0.610(2)
H3 H 0.1843(17) 0.2687(19) 0.6443(15)
H4 H 0.2519(19) 0.086(2) 0.4489(18)
H5 H 0.3301(18) 0.103(2) 0.3348(16)
H6 H 0.4515(15) 0.1807(16) 0.4907(13)
H7 H 0.2606(19) 0.011(2) 0.7239(17)
H10 H 0.452(2) 0.402(2) 0.6802(18)
H11 H 0.366(2) 0.329(3) 0.586(2)
H12 H 0.4162(16) 0.1783(19) 0.7346(15)
N10 N 0.08358(17) 0.41742(19) 0.68436(16)
Co3 Co 0.50494(3) 0.17864(3) 0.32506(2)
Co5 Co 0.50494(3) 0.32136(3) 0.82506(2)
N6 N 0.41642(17) 0.91742(19) 0.68436(16)
C7 C 0.3058(3) 0.9929(3) 0.7079(3)
C8 C 0.3496(3) 0.9263(4) 0.7285(3)
C9 C 0.4087(2) 0.9812(3) 0.6402(2)
H8 H 0.337(2) 0.890(2) 0.7611(19)
H9 H 0.4410(16) 0.9942(18) 0.6040(15)
Co4 Co 0.49506(3) 0.82136(3) 0.67494(2)
N9 N 0.91535(17) 0.35012(19) 0.60548(16)
N11 N 0.94973(16) 0.2974(2) 0.76825(15)
Co3_2 Co 0.00494(3) 0.17864(3) 0.17494(2)
N3_2 N 0.84213(17) 0.13422(19) 0.00230(15)
N4_2 N 0.91535(17) 0.14988(19) 0.10548(16)
C4_2 C 0.7963(3) 0.1065(3) 0.0593(3)
C5_2 C 0.8397(3) 0.1146(3) 0.1207(3)
C6_2 C 0.9114(2) 0.1602(3) 0.0352(2)
H4_2 H 0.7519(19) 0.086(2) 0.0511(18)
H5_2 H 0.8301(18) 0.103(2) 0.1652(16)
H6_2 H 0.9515(15) 0.1807(16) 0.0093(13)
Co1_2 Co 0.81203(3) 0.13639(3) 0.89903(3)
N1_2 N 0.69034(18) 0.1553(2) 0.88728(15)
N2_2 N 0.57288(19) 0.2264(2) 0.86055(15)
N5_2 N 0.84307(18) 0.03100(19) 0.84906(16)
N8_2 N 0.87437(16) 0.2295(2) 0.85241(16)
C1_2 C 0.6222(3) 0.1055(3) 0.8993(3)
C2_2 C 0.5527(3) 0.1495(4) 0.8837(3)
C3_2 C 0.6559(3) 0.2253(3) 0.8642(2)
C10_2 C 0.9307(3) 0.3504(3) 0.8227(3)
C11_2 C 0.8862(3) 0.3101(3) 0.8732(3)
C12_2 C 0.9139(2) 0.2266(3) 0.7891(2)
H1_2 H 0.631(2) 0.054(2) 0.9185(18)
H2_2 H 0.503(2) 0.134(3) 0.890(2)
H3_2 H 0.6843(17) 0.2687(19) 0.8557(15)
H7_2 H 0.7606(19) 0.011(2) 0.7761(17)
H10_2 H 0.952(2) 0.402(2) 0.8198(18)
H11_2 H 0.866(2) 0.329(3) 0.914(2)
H12_2 H 0.9162(16) 0.1783(19) 0.7654(15)
N9_2 N 0.41535(17) 0.35012(19) 0.89452(16)
N10_2 N 0.58358(17) 0.41742(19) 0.81564(16)
N6_2 N 0.91642(17) 0.91742(19) 0.81564(16)
C7_2 C 0.8058(3) 0.9929(3) 0.7921(3)
C8_2 C 0.8496(3) 0.9263(4) 0.7715(3)
C9_2 C 0.9087(2) 0.9812(3) 0.8598(2)
H8_2 H 0.837(2) 0.890(2) 0.7389(19)
H9_2 H 0.9410(16) 0.9942(18) 0.8960(15)
Co4_2 Co 0.99506(3) 0.82136(3) 0.82506(2)
Co1_3 Co 0.31203(3) 0.36361(3) 0.10097(3)
N1_3 N 0.19034(18) 0.3447(2) 0.11272(15)
N2_3 N 0.07288(19) 0.2736(2) 0.13945(15)
N5_3 N 0.34307(18) 0.46900(19) 0.15094(16)
N6_3 N 0.41642(17) 0.58258(19) 0.18436(16)
N7_2 N 0.44973(16) 0.2026(2) 0.23175(15)
N8_3 N 0.37437(16) 0.2705(2) 0.14759(16)
C1_3 C 0.1222(3) 0.3945(3) 0.1007(3)
C2_3 C 0.0527(3) 0.3505(4) 0.1163(3)
C3_3 C 0.1559(3) 0.2747(3) 0.1358(2)
C7_3 C 0.3058(3) 0.5071(3) 0.2079(3)
C8_3 C 0.3496(3) 0.5737(4) 0.2285(3)
C9_3 C 0.4087(2) 0.5188(3) 0.1402(2)
C10_3 C 0.4307(3) 0.1496(3) 0.1773(3)
C11_3 C 0.3862(3) 0.1899(3) 0.1268(3)
C12_3 C 0.4139(2) 0.2734(3) 0.2109(2)
H1_3 H 0.131(2) 0.446(2) 0.0815(18)
H2_3 H 0.003(2) 0.366(3) 0.110(2)
H3_3 H 0.1843(17) 0.2313(19) 0.1443(15)
H7_3 H 0.2606(19) 0.489(2) 0.2239(17)
H8_3 H 0.337(2) 0.610(2) 0.2611(19)
H9_3 H 0.4410(16) 0.5058(18) 0.1040(15)
H10_3 H 0.452(2) 0.098(2) 0.1802(18)
H11_3 H 0.366(2) 0.171(3) 0.086(2)
H12_3 H 0.4162(16) 0.3217(19) 0.2346(15)
N10_3 N 0.08358(17) 0.08258(19) 0.18436(16)
Co4_3 Co 0.49506(3) 0.67864(3) 0.17494(2)
N3_3 N 0.34213(17) 0.36578(19) 0.99770(15)
C4_3 C 0.2963(3) 0.3935(3) 0.9407(3)
C5_3 C 0.3397(3) 0.3854(3) 0.8793(3)
C6_3 C 0.4114(2) 0.3398(3) 0.9648(2)
H4_3 H 0.2519(19) 0.414(2) 0.9489(18)
H5_3 H 0.3301(18) 0.397(2) 0.8348(16)
H6_3 H 0.4515(15) 0.3193(16) 0.9907(13)
N11_2 N 0.94973(16) 0.2026(2) 0.26825(15)
Co1_4 Co 0.18797(3) 0.63639(3) 0.60097(3)
N1_4 N 0.30966(18) 0.6553(2) 0.61272(15)
N2_4 N 0.42712(19) 0.7264(2) 0.63945(15)
N3_4 N 0.15787(17) 0.63422(19) 0.49770(15)
N4_3 N 0.08465(17) 0.64988(19) 0.39452(16)
N5_4 N 0.15693(18) 0.53100(19) 0.65094(16)
N7_3 N 0.05027(16) 0.7974(2) 0.73175(15)
N8_4 N 0.12563(16) 0.7295(2) 0.64759(16)
C1_4 C 0.3778(3) 0.6055(3) 0.6007(3)
C2_4 C 0.4473(3) 0.6495(4) 0.6163(3)
C3_4 C 0.3441(3) 0.7253(3) 0.6358(2)
C4_4 C 0.2037(3) 0.6065(3) 0.4407(3)
C5_4 C 0.1603(3) 0.6146(3) 0.3793(3)
C6_4 C 0.0886(2) 0.6602(3) 0.4648(2)
C7_4 C 0.1942(3) 0.4929(3) 0.7079(3)
C8_4 C 0.1504(3) 0.4263(4) 0.7285(3)
C9_4 C 0.0913(2) 0.4812(3) 0.6402(2)
C10_4 C 0.0693(3) 0.8504(3) 0.6773(3)
C11_4 C 0.1138(3) 0.8101(3) 0.6268(3)
C12_4 C 0.0861(2) 0.7266(3) 0.7109(2)
H1_4 H 0.369(2) 0.554(2) 0.5815(18)
H2_4 H 0.497(2) 0.634(3) 0.610(2)
H3_4 H 0.3157(17) 0.7687(19) 0.6443(15)
H4_4 H 0.2481(19) 0.586(2) 0.4489(18)
H5_4 H 0.1699(18) 0.603(2) 0.3348(16)
H6_4 H 0.0485(15) 0.6807(16) 0.4907(13)
H7_4 H 0.2394(19) 0.511(2) 0.7239(17)
H8_4 H 0.163(2) 0.390(2) 0.7611(19)
H9_4 H 0.0590(16) 0.4942(18) 0.6040(15)
H10_4 H 0.048(2) 0.902(2) 0.6802(18)
H11_4 H 0.134(2) 0.829(3) 0.586(2)
H12_4 H 0.0838(16) 0.6783(19) 0.7346(15)
N9_3 N 0.58465(17) 0.85012(19) 0.60548(16)
N11_3 N 0.55027(16) 0.7974(2) 0.76825(15)
Co3_3 Co 0.99506(3) 0.67864(3) 0.32506(2)
N11_4 N 0.05027(16) 0.7026(2) 0.23175(15)
N6_4 N 0.58358(17) 0.08258(19) 0.31564(16)
C7_5 C 0.6942(3) 0.0071(3) 0.2921(3)
C8_5 C 0.6504(3) 0.0737(4) 0.2715(3)
C9_5 C 0.5913(2) 0.0188(3) 0.3598(2)
H8_5 H 0.663(2) 0.110(2) 0.2389(19)
H9_5 H 0.5590(16) 0.0058(18) 0.3960(15)
Co1_5 Co 0.68797(3) 0.86361(3) 0.39903(3)
N1_5 N 0.80966(18) 0.8447(2) 0.38728(15)
N2_5 N 0.92712(19) 0.7736(2) 0.36055(15)
N3_5 N 0.65787(17) 0.86578(19) 0.50230(15)
N5_5 N 0.65693(18) 0.96900(19) 0.34906(16)
N7_4 N 0.55027(16) 0.7026(2) 0.26825(15)
N8_5 N 0.62563(16) 0.7705(2) 0.35241(16)
C1_5 C 0.8778(3) 0.8945(3) 0.3993(3)
C2_5 C 0.9473(3) 0.8505(4) 0.3837(3)
C3_5 C 0.8441(3) 0.7747(3) 0.3642(2)
C4_5 C 0.7037(3) 0.8935(3) 0.5593(3)
C5_5 C 0.6603(3) 0.8854(3) 0.6207(3)
C6_5 C 0.5886(2) 0.8398(3) 0.5352(2)
C10_5 C 0.5693(3) 0.6496(3) 0.3227(3)
C11_5 C 0.6138(3) 0.6899(3) 0.3732(3)
C12_5 C 0.5861(2) 0.7734(3) 0.2891(2)
H1_5 H 0.869(2) 0.946(2) 0.4185(18)
H2_5 H 0.997(2) 0.866(3) 0.390(2)
H3_5 H 0.8157(17) 0.7313(19) 0.3557(15)
H4_5 H 0.7481(19) 0.914(2) 0.5511(18)
H5_5 H 0.6699(18) 0.897(2) 0.6652(16)
H6_5 H 0.5485(15) 0.8193(16) 0.5093(13)
H7_5 H 0.7394(19) 0.989(2) 0.2761(17)
H10_5 H 0.548(2) 0.598(2) 0.3198(18)
H11_5 H 0.634(2) 0.671(3) 0.414(2)
H12_5 H 0.5838(16) 0.8217(19) 0.2654(15)
N10_4 N 0.91642(17) 0.58258(19) 0.31564(16)
C7_6 C 0.1942(3) 0.0071(3) 0.2079(3)
C8_6 C 0.1504(3) 0.0737(4) 0.2285(3)
C9_6 C 0.0913(2) 0.0188(3) 0.1402(2)
H8_6 H 0.163(2) 0.110(2) 0.2611(19)
H9_6 H 0.0590(16) 0.0058(18) 0.1040(15)
Co1_6 Co 0.18797(3) 0.86361(3) 0.10097(3)
N1_6 N 0.30966(18) 0.8447(2) 0.11272(15)
N2_6 N 0.42712(19) 0.7736(2) 0.13945(15)
N5_6 N 0.15693(18) 0.96900(19) 0.15094(16)
N8_6 N 0.12563(16) 0.7705(2) 0.14759(16)
C1_6 C 0.3778(3) 0.8945(3) 0.1007(3)
C2_6 C 0.4473(3) 0.8505(4) 0.1163(3)
C3_6 C 0.3441(3) 0.7747(3) 0.1358(2)
C10_6 C 0.0693(3) 0.6496(3) 0.1773(3)
C11_6 C 0.1138(3) 0.6899(3) 0.1268(3)
C12_6 C 0.0861(2) 0.7734(3) 0.2109(2)
H1_6 H 0.369(2) 0.946(2) 0.0815(18)
H2_6 H 0.497(2) 0.866(3) 0.110(2)
H3_6 H 0.3157(17) 0.7313(19) 0.1443(15)
H7_6 H 0.2394(19) 0.989(2) 0.2239(17)
H10_6 H 0.048(2) 0.598(2) 0.1802(18)
H11_6 H 0.134(2) 0.671(3) 0.086(2)
H12_6 H 0.0838(16) 0.8217(19) 0.2346(15)
N9_4 N 0.58465(17) 0.64988(19) 0.10548(16)
N3_6 N 0.15787(17) 0.86578(19) 0.99770(15)
N4_4 N 0.08465(17) 0.85012(19) 0.89452(16)
C4_6 C 0.2037(3) 0.8935(3) 0.9407(3)
C5_6 C 0.1603(3) 0.8854(3) 0.8793(3)
C6_6 C 0.0886(2) 0.8398(3) 0.9648(2)
H4_6 H 0.2481(19) 0.914(2) 0.9489(18)
H5_6 H 0.1699(18) 0.897(2) 0.8348(16)
H6_6 H 0.0485(15) 0.8193(16) 0.9907(13)
N3_7 N 0.65787(17) 0.63422(19) 0.00230(15)
C4_7 C 0.7037(3) 0.6065(3) 0.0593(3)
C5_7 C 0.6603(3) 0.6146(3) 0.1207(3)
C6_7 C 0.5886(2) 0.6602(3) 0.0352(2)
H4_7 H 0.7481(19) 0.586(2) 0.0511(18)
H5_7 H 0.6699(18) 0.603(2) 0.1652(16)
H6_7 H 0.5485(15) 0.6807(16) 0.0093(13)
Co1_7 Co 0.68797(3) 0.63639(3) 0.89903(3)
N1_7 N 0.80966(18) 0.6553(2) 0.88728(15)
N2_7 N 0.92712(19) 0.7264(2) 0.86055(15)
N5_7 N 0.65693(18) 0.53100(19) 0.84906(16)
N8_7 N 0.62563(16) 0.7295(2) 0.85241(16)
C1_7 C 0.8778(3) 0.6055(3) 0.8993(3)
C2_7 C 0.9473(3) 0.6495(4) 0.8837(3)
C3_7 C 0.8441(3) 0.7253(3) 0.8642(2)
C7_7 C 0.6942(3) 0.4929(3) 0.7921(3)
C8_7 C 0.6504(3) 0.4263(4) 0.7715(3)
C9_7 C 0.5913(2) 0.4812(3) 0.8598(2)
C10_7 C 0.5693(3) 0.8504(3) 0.8227(3)
C11_7 C 0.6138(3) 0.8101(3) 0.8732(3)
C12_7 C 0.5861(2) 0.7266(3) 0.7891(2)
H1_7 H 0.869(2) 0.554(2) 0.9185(18)
H2_7 H 0.997(2) 0.634(3) 0.890(2)
H3_7 H 0.8157(17) 0.7687(19) 0.8557(15)
H7_7 H 0.7394(19) 0.511(2) 0.7761(17)
H8_7 H 0.663(2) 0.390(2) 0.7389(19)
H9_7 H 0.5590(16) 0.4942(18) 0.8960(15)
H10_7 H 0.548(2) 0.902(2) 0.8198(18)
H11_7 H 0.634(2) 0.829(3) 0.914(2)
H12_7 H 0.5838(16) 0.6783(19) 0.7654(15)
Co1_8 Co 0.81203(3) 0.36361(3) 0.39903(3)
N1_8 N 0.69034(18) 0.3447(2) 0.38728(15)
N2_8 N 0.57288(19) 0.2736(2) 0.36055(15)
N3_8 N 0.84213(17) 0.36578(19) 0.50230(15)
N5_8 N 0.84307(18) 0.46900(19) 0.34906(16)
N8_8 N 0.87437(16) 0.2705(2) 0.35241(16)
C1_8 C 0.6222(3) 0.3945(3) 0.3993(3)
C2_8 C 0.5527(3) 0.3505(4) 0.3837(3)
C3_8 C 0.6559(3) 0.2747(3) 0.3642(2)
C4_8 C 0.7963(3) 0.3935(3) 0.5593(3)
C5_8 C 0.8397(3) 0.3854(3) 0.6207(3)
C6_8 C 0.9114(2) 0.3398(3) 0.5352(2)
C7_8 C 0.8058(3) 0.5071(3) 0.2921(3)
C8_8 C 0.8496(3) 0.5737(4) 0.2715(3)
C9_8 C 0.9087(2) 0.5188(3) 0.3598(2)
C10_8 C 0.9307(3) 0.1496(3) 0.3227(3)
C11_8 C 0.8862(3) 0.1899(3) 0.3732(3)
C12_8 C 0.9139(2) 0.2734(3) 0.2891(2)
H1_8 H 0.631(2) 0.446(2) 0.4185(18)
H2_8 H 0.503(2) 0.366(3) 0.390(2)
H3_8 H 0.6843(17) 0.2313(19) 0.3557(15)
H4_8 H 0.7519(19) 0.414(2) 0.5511(18)
H5_8 H 0.8301(18) 0.397(2) 0.6652(16)
H6_8 H 0.9515(15) 0.3193(16) 0.5093(13)
H7_8 H 0.7606(19) 0.489(2) 0.2761(17)
H8_8 H 0.837(2) 0.610(2) 0.2389(19)
H9_8 H 0.9410(16) 0.5058(18) 0.3960(15)
H10_8 H 0.952(2) 0.098(2) 0.3198(18)
H11_8 H 0.866(2) 0.171(3) 0.414(2)
H12_8 H 0.9162(16) 0.3217(19) 0.2654(15)
loop_
_geom_bond_atom_site_label_1
_geom_bond_atom_site_label_2
_geom_bond_site_symmetry_1
_geom_bond_site_symmetry_2
Co1 N1 1_555 1_555
Co2 N2 1_555 1_555
N1 C1 1_555 1_555
N2 C2 1_555 1_555
N3 Co1 1_555 1_555
N4 C5 1_555 1_555
N5 Co1 1_555 1_555
N7 C10 1_555 1_555
N8 Co1 1_555 1_555
C1 C2 1_555 1_555
C2 H2 1_555 1_555
C3 N1 1_555 1_555
C4 N3 1_555 1_555
C5 C4 1_555 1_555
C6 N3 1_555 1_555
C10 C11 1_555 1_555
C11 N8 1_555 1_555
C12 N7 1_555 1_555
H1 C1 1_555 1_555
H3 C3 1_555 1_555
H4 C4 1_555 1_555
H5 C5 1_555 1_555
H6 C6 1_555 1_555
H10 C10 1_555 1_555
H11 C11 1_555 1_555
H12 C12 1_555 1_555
N10 Co2 1_555 1_555
Co3 N4 1_555 1_555
Co5 N7 1_555 1_555
N2 C3 1_555 1_555
N4 C6 1_555 1_555
N8 C12 1_555 1_555
N6 C8 1_555 1_555
C8 C7 1_555 1_555
H8 C8 1_555 1_555
H9 C9 1_555 1_555
Co4 N6 1_555 1_555
N6 C9 1_555 1_555
N4_2 C5_2 1_555 1_555
C4_2 N3_2 1_555 1_555
C5_2 C4_2 1_555 1_555
C6_2 N3_2 1_555 1_555
H4_2 C4_2 1_555 1_555
H5_2 C5_2 1_555 1_555
H6_2 C6_2 1_555 1_555
N4_2 C6_2 1_555 1_555
Co1_2 N1_2 1_555 1_555
Co5 N2_2 1_555 1_555
N1_2 C1_2 1_555 1_555
N2_2 C2_2 1_555 1_555
N5_2 Co1_2 1_555 1_555
N11 C10_2 1_555 1_555
N8_2 Co1_2 1_555 1_555
C1_2 C2_2 1_555 1_555
C2_2 H2_2 1_555 1_555
C3_2 N1_2 1_555 1_555
C10_2 C11_2 1_555 1_555
C11_2 N8_2 1_555 1_555
C12_2 N11 1_555 1_555
H1_2 C1_2 1_555 1_555
H3_2 C3_2 1_555 1_555
H10_2 C10_2 1_555 1_555
H11_2 C11_2 1_555 1_555
H12_2 C12_2 1_555 1_555
N9_2 Co5 1_555 1_555
N10_2 Co5 1_555 1_555
N2_2 C3_2 1_555 1_555
N8_2 C12_2 1_555 1_555
N6_2 C8_2 1_555 1_555
C8_2 C7_2 1_555 1_555
H8_2 C8_2 1_555 1_555
H9_2 C9_2 1_555 1_555
Co4_2 N6_2 1_555 1_555
N6_2 C9_2 1_555 1_555
Co1_3 N1_3 1_555 1_555
Co3_2 N2_3 1_555 1_555
N1_3 C1_3 1_555 1_555
N2_3 C2_3 1_555 1_555
N5_3 Co1_3 1_555 1_555
N6_3 C8_3 1_555 1_555
N7_2 C10_3 1_555 1_555
N8_3 Co1_3 1_555 1_555
C1_3 C2_3 1_555 1_555
C2_3 H2_3 1_555 1_555
C3_3 N1_3 1_555 1_555
C7_3 N5_3 1_555 1_555
C8_3 C7_3 1_555 1_555
C9_3 N5_3 1_555 1_555
C10_3 C11_3 1_555 1_555
C11_3 N8_3 1_555 1_555
C12_3 N7_2 1_555 1_555
H1_3 C1_3 1_555 1_555
H3_3 C3_3 1_555 1_555
H7_3 C7_3 1_555 1_555
H8_3 C8_3 1_555 1_555
H9_3 C9_3 1_555 1_555
H10_3 C10_3 1_555 1_555
H11_3 C11_3 1_555 1_555
H12_3 C12_3 1_555 1_555
N10_3 Co3_2 1_555 1_555
Co4_3 N6_3 1_555 1_555
Co3 N7_2 1_555 1_555
N2_3 C3_3 1_555 1_555
N6_3 C9_3 1_555 1_555
N8_3 C12_3 1_555 1_555
N9_2 C5_3 1_555 1_555
C4_3 N3_3 1_555 1_555
C5_3 C4_3 1_555 1_555
C6_3 N3_3 1_555 1_555
H4_3 C4_3 1_555 1_555
H5_3 C5_3 1_555 1_555
H6_3 C6_3 1_555 1_555
N9_2 C6_3 1_555 1_555
Co1_4 N1_4 1_555 1_555
Co4 N2_4 1_555 1_555
N1_4 C1_4 1_555 1_555
N2_4 C2_4 1_555 1_555
N3_4 Co1_4 1_555 1_555
N4_3 C5_4 1_555 1_555
N5_4 Co1_4 1_555 1_555
N10 C8_4 1_555 1_555
N7_3 C10_4 1_555 1_555
N8_4 Co1_4 1_555 1_555
C1_4 C2_4 1_555 1_555
C2_4 H2_4 1_555 1_555
C3_4 N1_4 1_555 1_555
C4_4 N3_4 1_555 1_555
C5_4 C4_4 1_555 1_555
C6_4 N3_4 1_555 1_555
C7_4 N5_4 1_555 1_555
C8_4 C7_4 1_555 1_555
C9_4 N5_4 1_555 1_555
C10_4 C11_4 1_555 1_555
C11_4 N8_4 1_555 1_555
C12_4 N7_3 1_555 1_555
H1_4 C1_4 1_555 1_555
H3_4 C3_4 1_555 1_555
H4_4 C4_4 1_555 1_555
H5_4 C5_4 1_555 1_555
H6_4 C6_4 1_555 1_555
H7_4 C7_4 1_555 1_555
H8_4 C8_4 1_555 1_555
H9_4 C9_4 1_555 1_555
H10_4 C10_4 1_555 1_555
H11_4 C11_4 1_555 1_555
H12_4 C12_4 1_555 1_555
N9_3 Co4 1_555 1_555
N11_3 Co4 1_555 1_555
N2_4 C3_4 1_555 1_555
N4_3 C6_4 1_555 1_555
N10 C9_4 1_555 1_555
N8_4 C12_4 1_555 1_555
N6_4 C8_5 1_555 1_555
C8_5 C7_5 1_555 1_555
H8_5 C8_5 1_555 1_555
H9_5 C9_5 1_555 1_555
Co3 N6_4 1_555 1_555
N6_4 C9_5 1_555 1_555
Co1_5 N1_5 1_555 1_555
Co3_3 N2_5 1_555 1_555
N1_5 C1_5 1_555 1_555
N2_5 C2_5 1_555 1_555
N3_5 Co1_5 1_555 1_555
N9_3 C5_5 1_555 1_555
N5_5 Co1_5 1_555 1_555
N7_4 C10_5 1_555 1_555
N8_5 Co1_5 1_555 1_555
C1_5 C2_5 1_555 1_555
C2_5 H2_5 1_555 1_555
C3_5 N1_5 1_555 1_555
C4_5 N3_5 1_555 1_555
C5_5 C4_5 1_555 1_555
C6_5 N3_5 1_555 1_555
C10_5 C11_5 1_555 1_555
C11_5 N8_5 1_555 1_555
C12_5 N7_4 1_555 1_555
H1_5 C1_5 1_555 1_555
H3_5 C3_5 1_555 1_555
H4_5 C4_5 1_555 1_555
H5_5 C5_5 1_555 1_555
H6_5 C6_5 1_555 1_555
H10_5 C10_5 1_555 1_555
H11_5 C11_5 1_555 1_555
H12_5 C12_5 1_555 1_555
N10_4 Co3_3 1_555 1_555
Co4_3 N7_4 1_555 1_555
N2_5 C3_5 1_555 1_555
N9_3 C6_5 1_555 1_555
N8_5 C12_5 1_555 1_555
N10_3 C8_6 1_555 1_555
C8_6 C7_6 1_555 1_555
H8_6 C8_6 1_555 1_555
H9_6 C9_6 1_555 1_555
N10_3 C9_6 1_555 1_555
Co1_6 N1_6 1_555 1_555
Co4_3 N2_6 1_555 1_555
N1_6 C1_6 1_555 1_555
N2_6 C2_6 1_555 1_555
N5_6 Co1_6 1_555 1_555
N11_4 C10_6 1_555 1_555
N8_6 Co1_6 1_555 1_555
C1_6 C2_6 1_555 1_555
C2_6 H2_6 1_555 1_555
C3_6 N1_6 1_555 1_555
C10_6 C11_6 1_555 1_555
C11_6 N8_6 1_555 1_555
C12_6 N11_4 1_555 1_555
H1_6 C1_6 1_555 1_555
H3_6 C3_6 1_555 1_555
H10_6 C10_6 1_555 1_555
H11_6 C11_6 1_555 1_555
H12_6 C12_6 1_555 1_555
N9_4 Co4_3 1_555 1_555
N2_6 C3_6 1_555 1_555
N8_6 C12_6 1_555 1_555
N4_4 C5_6 1_555 1_555
C4_6 N3_6 1_555 1_555
C5_6 C4_6 1_555 1_555
C6_6 N3_6 1_555 1_555
H4_6 C4_6 1_555 1_555
H5_6 C5_6 1_555 1_555
H6_6 C6_6 1_555 1_555
N4_4 C6_6 1_555 1_555
N9_4 C5_7 1_555 1_555
C4_7 N3_7 1_555 1_555
C5_7 C4_7 1_555 1_555
C6_7 N3_7 1_555 1_555
H4_7 C4_7 1_555 1_555
H5_7 C5_7 1_555 1_555
H6_7 C6_7 1_555 1_555
N9_4 C6_7 1_555 1_555
Co1_7 N1_7 1_555 1_555
Co4_2 N2_7 1_555 1_555
N1_7 C1_7 1_555 1_555
N2_7 C2_7 1_555 1_555
N5_7 Co1_7 1_555 1_555
N10_2 C8_7 1_555 1_555
N11_3 C10_7 1_555 1_555
N8_7 Co1_7 1_555 1_555
C1_7 C2_7 1_555 1_555
C2_7 H2_7 1_555 1_555
C3_7 N1_7 1_555 1_555
C7_7 N5_7 1_555 1_555
C8_7 C7_7 1_555 1_555
C9_7 N5_7 1_555 1_555
C10_7 C11_7 1_555 1_555
C11_7 N8_7 1_555 1_555
C12_7 N11_3 1_555 1_555
H1_7 C1_7 1_555 1_555
H3_7 C3_7 1_555 1_555
H7_7 C7_7 1_555 1_555
H8_7 C8_7 1_555 1_555
H9_7 C9_7 1_555 1_555
H10_7 C10_7 1_555 1_555
H11_7 C11_7 1_555 1_555
H12_7 C12_7 1_555 1_555
N2_7 C3_7 1_555 1_555
N10_2 C9_7 1_555 1_555
N8_7 C12_7 1_555 1_555
Co1_8 N1_8 1_555 1_555
Co3 N2_8 1_555 1_555
N1_8 C1_8 1_555 1_555
N2_8 C2_8 1_555 1_555
N3_8 Co1_8 1_555 1_555
N9 C5_8 1_555 1_555
N5_8 Co1_8 1_555 1_555
N10_4 C8_8 1_555 1_555
N11_2 C10_8 1_555 1_555
N8_8 Co1_8 1_555 1_555
C1_8 C2_8 1_555 1_555
C2_8 H2_8 1_555 1_555
C3_8 N1_8 1_555 1_555
C4_8 N3_8 1_555 1_555
C5_8 C4_8 1_555 1_555
C6_8 N3_8 1_555 1_555
C7_8 N5_8 1_555 1_555
C8_8 C7_8 1_555 1_555
C9_8 N5_8 1_555 1_555
C10_8 C11_8 1_555 1_555
C11_8 N8_8 1_555 1_555
C12_8 N11_2 1_555 1_555
H1_8 C1_8 1_555 1_555
H3_8 C3_8 1_555 1_555
H4_8 C4_8 1_555 1_555
H5_8 C5_8 1_555 1_555
H6_8 C6_8 1_555 1_555
H7_8 C7_8 1_555 1_555
H8_8 C8_8 1_555 1_555
H9_8 C9_8 1_555 1_555
H10_8 C10_8 1_555 1_555
H11_8 C11_8 1_555 1_555
H12_8 C12_8 1_555 1_555
N2_8 C3_8 1_555 1_555
N9 C6_8 1_555 1_555
N10_4 C9_8 1_555 1_555
N8_8 C12_8 1_555 1_555

#END
