
###############################################################################
#
# This file contains modified crystal structure data generated from the
# MOF subset of the Cambridge Structural Database (CSD) v543 
# hosted by the Cambridge Crystallographic Data Centre (CCDC).
#
# This work is licensed under the Creative Commons
# Attribution-NonCommercial-ShareAlike 4.0 International License.
# To view a copy of this license, visit
# http://creativecommons.org/licenses/by-nc-sa/4.0/
# or send a letter to
# Creative Commons, PO Box 1866, Mountain View, CA 94042, USA.
#
# CIF created using the CSD Python API on 29 September 2022
# The structure has been converted into the P1 space group
# The structure has a 3D framework
# The original CSD entry EQOCIW is in the orthorhombic crystal system
# The framework has been calculated to contain at least 10.0% void space
# The void calculation uses a probe of radius 1.32A, grid spacing 0.4
#
###############################################################################

data_EQOCIW
_chemical_formula_moiety         '(C96 H96 Co14 N64)n'
_symmetry_cell_setting           triclinic
_symmetry_space_group_name_H-M   'P 1'
_symmetry_Int_Tables_number      1
_space_group_name_Hall           'P 1'
loop_
_symmetry_equiv_pos_site_id
_symmetry_equiv_pos_as_xyz
1 x,y,z
_cell_length_a                   17.775(4)
_cell_length_b                   27.617(6)
_cell_length_c                   8.8830(18)
_cell_angle_alpha                90
_cell_angle_beta                 90
_cell_angle_gamma                90
_cell_volume                     4360.6
loop_
_atom_site_label
_atom_site_type_symbol
_atom_site_fract_x
_atom_site_fract_y
_atom_site_fract_z
Co1 Co 0.20942(5) 0.06379(3) 0.24821(10)
N1 N 0.2023(4) 0.0037(2) 0.3761(9)
N3 N 0.2667(3) 0.1118(2) 0.3677(8)
N4 N 0.3573(3) 0.15884(19) 0.4599(7)
H1 H 0.2636 0.0248 0.5537
C4 C 0.3385(4) 0.1269(3) 0.3563(10)
H4 H 0.3715 0.1158 0.2828
C5 C 0.2406(5) 0.1363(3) 0.4904(15)
H5 H 0.1920 0.1340 0.5285
C6 C 0.2950(5) 0.1640(4) 0.5478(15)
H6 H 0.2911 0.1835 0.6330
N6 N 0.2635(4) 0.0452(2) 0.0606(9)
C7 C 0.2610(5) 0.0006(3) 0.0062(13)
N7 N 0.0167(3) 0.1382(2) 0.1177(8)
N8 N 0.1073(3) 0.09116(19) 0.2099(7)
C10 C 0.0885(4) 0.1231(3) 0.1063(10)
H10 H 0.1215 0.1342 0.0328
C12 C 0.0450(5) 0.0860(4) 0.2978(15)
H12 H 0.0411 0.0665 0.3830
Co4 Co 0.45942(5) 0.18621(3) 0.49821(10)
C8 C 0.3278(7) 0.0405(4) 0.8510(14)
H8 H 0.3570 0.0493 0.7685
C9 C 0.3088(8) 0.0686(4) 0.9617(17)
H9 H 0.3242 0.1006 0.9719
N2 N 0.2365(4) 0.9548(2) 0.5606(9)
C1 C 0.2390(5) 0.9994(3) 0.5062(13)
C2 C 0.1722(7) 0.9595(4) 0.3510(14)
H2 H 0.1430 0.9507 0.2685
C3 C 0.1912(8) 0.9314(4) 0.4617(17)
H3 H 0.1758 0.8994 0.4719
H7 H 0.2364 0.9752 0.0537
Co3 Co 0.29058(5) 0.93621(3) 0.74821(10)
N5 N 0.2977(4) 0.9963(2) 0.8761(9)
N10 N 0.2333(3) 0.8882(2) 0.8677(8)
N11 N 0.3927(3) 0.90884(19) 0.7099(7)
C11 C 0.9906(5) 0.1137(3) 0.2404(15)
H11 H 0.9420 0.1160 0.2785
Co5 Co 0.95942(5) 0.18621(3) 0.99821(10)
C11_2 C 0.0094(5) 0.8863(3) 0.2404(15)
H11_2 H 0.0580 0.8840 0.2785
Co5_2 Co 0.04058(5) 0.81379(3) 0.99821(10)
N2_2 N 0.7635(4) 0.0452(2) 0.5606(9)
C1_2 C 0.7610(5) 0.0006(3) 0.5062(13)
C2_2 C 0.8278(7) 0.0405(4) 0.3510(14)
H2_2 H 0.8570 0.0493 0.2685
C3_2 C 0.8088(8) 0.0686(4) 0.4617(17)
H3_2 H 0.8242 0.1006 0.4719
H7_2 H 0.7636 0.0248 0.0537
Co3_2 Co 0.70942(5) 0.06379(3) 0.74821(10)
N5_2 N 0.7023(4) 0.0037(2) 0.8761(9)
N10_2 N 0.7667(3) 0.1118(2) 0.8677(8)
N11_2 N 0.6073(3) 0.09116(19) 0.7099(7)
Co1_2 Co 0.79058(5) 0.93621(3) 0.24821(10)
N1_2 N 0.7977(4) 0.9963(2) 0.3761(9)
N3_2 N 0.7333(3) 0.8882(2) 0.3677(8)
N4_2 N 0.6427(3) 0.84116(19) 0.4599(7)
H1_2 H 0.7364 0.9752 0.5537
C4_2 C 0.6615(4) 0.8731(3) 0.3563(10)
H4_2 H 0.6285 0.8842 0.2828
C5_2 C 0.7594(5) 0.8637(3) 0.4904(15)
H5_2 H 0.8080 0.8660 0.5285
C6_2 C 0.7050(5) 0.8360(4) 0.5478(15)
H6_2 H 0.7089 0.8165 0.6330
N6_2 N 0.7365(4) 0.9548(2) 0.0606(9)
C7_2 C 0.7390(5) 0.9994(3) 0.0062(13)
N7_2 N 0.9833(3) 0.8618(2) 0.1177(8)
N8_2 N 0.8927(3) 0.90884(19) 0.2099(7)
C10_2 C 0.9115(4) 0.8769(3) 0.1063(10)
H10_2 H 0.8785 0.8658 0.0328
C12_2 C 0.9550(5) 0.9140(4) 0.2978(15)
H12_2 H 0.9589 0.9335 0.3830
Co4_2 Co 0.54058(5) 0.81379(3) 0.49821(10)
C8_2 C 0.6722(7) 0.9595(4) 0.8510(14)
H8_2 H 0.6430 0.9507 0.7685
C9_2 C 0.6912(8) 0.9314(4) 0.9617(17)
H9_2 H 0.6758 0.8994 0.9719
N1_3 N 0.4523(4) 0.2463(2) 0.6261(9)
N2_3 N 0.4865(4) 0.2952(2) 0.8106(9)
N3_3 N 0.5167(3) 0.1382(2) 0.6177(8)
C1_3 C 0.4890(5) 0.2506(3) 0.7562(13)
H1_3 H 0.5136 0.2252 0.8037
C2_3 C 0.4222(7) 0.2905(4) 0.6010(14)
H2_3 H 0.3930 0.2993 0.5185
C3_3 C 0.4412(8) 0.3186(4) 0.7117(17)
H3_3 H 0.4258 0.3506 0.7219
C4_3 C 0.5885(4) 0.1231(3) 0.6063(10)
H4_3 H 0.6215 0.1342 0.5328
C5_3 C 0.4906(5) 0.1137(3) 0.7404(15)
H5_3 H 0.4420 0.1160 0.7785
C6_3 C 0.5450(5) 0.0860(4) 0.7978(15)
H6_3 H 0.5411 0.0665 0.8830
N5_3 N 0.5477(4) 0.2537(2) 0.1261(9)
N6_3 N 0.5135(4) 0.2048(2) 0.3106(9)
C7_3 C 0.5110(5) 0.2494(3) 0.2562(13)
H7_3 H 0.4864 0.2748 0.3037
C8_3 C 0.5778(7) 0.2095(4) 0.1010(14)
H8_3 H 0.6070 0.2007 0.0185
C9_3 C 0.5588(8) 0.1814(4) 0.2117(17)
H9_3 H 0.5742 0.1494 0.2219
Co3_3 Co 0.54058(5) 0.31379(3) 0.99821(10)
N10_3 N 0.4833(3) 0.3618(2) 0.1177(8)
N11_3 N 0.6427(3) 0.34116(19) 0.9599(7)
Co1_3 Co 0.04058(5) 0.31379(3) 0.49821(10)
N1_4 N 0.0477(4) 0.2537(2) 0.6261(9)
N2_4 N 0.0135(4) 0.2048(2) 0.8106(9)
C1_4 C 0.0110(5) 0.2494(3) 0.7562(13)
C2_4 C 0.0778(7) 0.2095(4) 0.6010(14)
H2_4 H 0.1070 0.2007 0.5185
C3_4 C 0.0588(8) 0.1814(4) 0.7117(17)
H3_4 H 0.0742 0.1494 0.7219
C5_4 C 0.0094(5) 0.3863(3) 0.7404(15)
H5_4 H 0.0580 0.3840 0.7785
H7_4 H 0.0136 0.2252 0.3037
N7_3 N 0.2333(3) 0.3882(2) 0.3677(8)
N8_3 N 0.1427(3) 0.34116(19) 0.4599(7)
C10_3 C 0.1615(4) 0.3731(3) 0.3563(10)
H10_3 H 0.1285 0.3842 0.2828
C11_3 C 0.2594(5) 0.3637(3) 0.4904(15)
H11_3 H 0.3080 0.3660 0.5285
C12_3 C 0.2050(5) 0.3360(4) 0.5478(15)
H12_3 H 0.2089 0.3165 0.6330
Co5_3 Co 0.29058(5) 0.43621(3) 0.24821(10)
N3_4 N 0.9833(3) 0.3618(2) 0.6177(8)
N4_3 N 0.8927(3) 0.40884(19) 0.7099(7)
H1_4 H 0.9864 0.2748 0.8037
C4_4 C 0.9115(4) 0.3769(3) 0.6063(10)
H4_4 H 0.8785 0.3658 0.5328
C6_4 C 0.9550(5) 0.4140(4) 0.7978(15)
H6_4 H 0.9589 0.4335 0.8830
N5_4 N 0.9523(4) 0.2463(2) 0.1261(9)
N6_4 N 0.9865(4) 0.2952(2) 0.3106(9)
C7_4 C 0.9890(5) 0.2506(3) 0.2562(13)
C8_4 C 0.9222(7) 0.2905(4) 0.1010(14)
H8_4 H 0.8930 0.2993 0.0185
C9_4 C 0.9412(8) 0.3186(4) 0.2117(17)
H9_4 H 0.9258 0.3506 0.2219
Co4_3 Co 0.79058(5) 0.43621(3) 0.74821(10)
N11_4 N 0.8573(3) 0.15884(19) 0.9599(7)
N2_5 N 0.2365(4) 0.4548(2) 0.0606(9)
C1_5 C 0.2390(5) 0.4994(3) 0.0062(13)
H1_5 H 0.2636 0.5248 0.0537
H5_5 H 0.1920 0.6340 0.0285
C6_5 C 0.2950(5) 0.6640(4) 0.0478(15)
H6_5 H 0.2911 0.6835 0.1330
Co1_4 Co 0.20942(5) 0.56379(3) 0.74821(10)
N1_5 N 0.2023(4) 0.5037(2) 0.8761(9)
N3_5 N 0.2667(3) 0.6118(2) 0.8677(8)
N4_4 N 0.3573(3) 0.65884(19) 0.9599(7)
C2_5 C 0.1722(7) 0.4595(4) 0.8510(14)
H2_5 H 0.1430 0.4507 0.7685
C3_5 C 0.1912(8) 0.4314(4) 0.9617(17)
H3_5 H 0.1758 0.3994 0.9719
C4_5 C 0.3385(4) 0.6269(3) 0.8563(10)
H4_5 H 0.3715 0.6158 0.7828
C5_5 C 0.2406(5) 0.6363(3) 0.9904(15)
N5_5 N 0.2977(4) 0.4963(2) 0.3761(9)
N6_5 N 0.2635(4) 0.5452(2) 0.5606(9)
C7_5 C 0.2610(5) 0.5006(3) 0.5062(13)
H7_5 H 0.2364 0.4752 0.5537
C8_5 C 0.3278(7) 0.5405(4) 0.3510(14)
H8_5 H 0.3570 0.5493 0.2685
C9_5 C 0.3088(8) 0.5686(4) 0.4617(17)
H9_5 H 0.3242 0.6006 0.4719
N7_4 N 0.0167(3) 0.6382(2) 0.6177(8)
N8_4 N 0.1073(3) 0.59116(19) 0.7099(7)
C10_4 C 0.0885(4) 0.6231(3) 0.6063(10)
H10_4 H 0.1215 0.6342 0.5328
C12_4 C 0.0450(5) 0.5860(4) 0.7978(15)
H12_4 H 0.0411 0.5665 0.8830
Co4_4 Co 0.45942(5) 0.68621(3) 0.99821(10)
N11_5 N 0.3927(3) 0.40884(19) 0.2099(7)
C11_4 C 0.9906(5) 0.6137(3) 0.7404(15)
H11_4 H 0.9420 0.6160 0.7785
Co5_4 Co 0.95942(5) 0.68621(3) 0.49821(10)
N2_6 N 0.7635(4) 0.5452(2) 0.0606(9)
C1_6 C 0.7610(5) 0.5006(3) 0.0062(13)
H1_6 H 0.7364 0.4752 0.0537
H5_6 H 0.8080 0.3660 0.0285
C6_6 C 0.7050(5) 0.3360(4) 0.0478(15)
H6_6 H 0.7089 0.3165 0.1330
Co3_4 Co 0.70942(5) 0.56379(3) 0.24821(10)
N1_6 N 0.7977(4) 0.4963(2) 0.8761(9)
N3_6 N 0.7333(3) 0.3882(2) 0.8677(8)
C2_6 C 0.8278(7) 0.5405(4) 0.8510(14)
H2_6 H 0.8570 0.5493 0.7685
C3_6 C 0.8088(8) 0.5686(4) 0.9617(17)
H3_6 H 0.8242 0.6006 0.9719
C4_6 C 0.6615(4) 0.3731(3) 0.8563(10)
H4_6 H 0.6285 0.3842 0.7828
C5_6 C 0.7594(5) 0.3637(3) 0.9904(15)
N5_6 N 0.7023(4) 0.5037(2) 0.3761(9)
N6_6 N 0.7365(4) 0.4548(2) 0.5606(9)
C7_6 C 0.7390(5) 0.4994(3) 0.5062(13)
H7_6 H 0.7636 0.5248 0.5537
C8_6 C 0.6722(7) 0.4595(4) 0.3510(14)
H8_6 H 0.6430 0.4507 0.2685
C9_6 C 0.6912(8) 0.4314(4) 0.4617(17)
H9_6 H 0.6758 0.3994 0.4719
N10_4 N 0.7667(3) 0.6118(2) 0.3677(8)
N11_6 N 0.6073(3) 0.59116(19) 0.2099(7)
N1_7 N 0.4523(4) 0.7463(2) 0.1261(9)
N2_7 N 0.4865(4) 0.7952(2) 0.3106(9)
N3_7 N 0.5167(3) 0.6382(2) 0.1177(8)
C1_7 C 0.4890(5) 0.7506(3) 0.2562(13)
H1_7 H 0.5136 0.7252 0.3037
C2_7 C 0.4222(7) 0.7905(4) 0.1010(14)
H2_7 H 0.3930 0.7993 0.0185
C3_7 C 0.4412(8) 0.8186(4) 0.2117(17)
H3_7 H 0.4258 0.8506 0.2219
C4_7 C 0.5885(4) 0.6231(3) 0.1063(10)
H4_7 H 0.6215 0.6342 0.0328
C5_7 C 0.4906(5) 0.6137(3) 0.2404(15)
H5_7 H 0.4420 0.6160 0.2785
C6_7 C 0.5450(5) 0.5860(4) 0.2978(15)
H6_7 H 0.5411 0.5665 0.3830
N5_7 N 0.5477(4) 0.7537(2) 0.6261(9)
N6_7 N 0.5135(4) 0.7048(2) 0.8106(9)
C7_7 C 0.5110(5) 0.7494(3) 0.7562(13)
H7_7 H 0.4864 0.7748 0.8037
C8_7 C 0.5778(7) 0.7095(4) 0.6010(14)
H8_7 H 0.6070 0.7007 0.5185
C9_7 C 0.5588(8) 0.6814(4) 0.7117(17)
H9_7 H 0.5742 0.6494 0.7219
N10_5 N 0.4833(3) 0.8618(2) 0.6177(8)
N1_8 N 0.0477(4) 0.7537(2) 0.1261(9)
N2_8 N 0.0135(4) 0.7048(2) 0.3106(9)
C1_8 C 0.0110(5) 0.7494(3) 0.2562(13)
C2_8 C 0.0778(7) 0.7095(4) 0.1010(14)
H2_8 H 0.1070 0.7007 0.0185
C3_8 C 0.0588(8) 0.6814(4) 0.2117(17)
H3_8 H 0.0742 0.6494 0.2219
H11_5 H 0.3080 0.8660 0.0285
C12_5 C 0.2050(5) 0.8360(4) 0.0478(15)
H12_5 H 0.2089 0.8165 0.1330
H7_8 H 0.0136 0.7252 0.8037
N8_5 N 0.1427(3) 0.84116(19) 0.9599(7)
C10_5 C 0.1615(4) 0.8731(3) 0.8563(10)
H10_5 H 0.1285 0.8842 0.7828
C11_5 C 0.2594(5) 0.8637(3) 0.9904(15)
H1_8 H 0.9864 0.7748 0.3037
N5_8 N 0.9523(4) 0.7463(2) 0.6261(9)
N6_8 N 0.9865(4) 0.7952(2) 0.8106(9)
C7_8 C 0.9890(5) 0.7506(3) 0.7562(13)
C8_8 C 0.9222(7) 0.7905(4) 0.6010(14)
H8_8 H 0.8930 0.7993 0.5185
C9_8 C 0.9412(8) 0.8186(4) 0.7117(17)
H9_8 H 0.9258 0.8506 0.7219
N11_7 N 0.8573(3) 0.65884(19) 0.4599(7)
H5_8 H 0.6920 0.1340 0.0285
C6_8 C 0.7950(5) 0.1640(4) 0.0478(15)
H6_8 H 0.7911 0.1835 0.1330
C4_8 C 0.8385(4) 0.1269(3) 0.8563(10)
H4_8 H 0.8715 0.1158 0.7828
C5_8 C 0.7406(5) 0.1363(3) 0.9904(15)
C10_6 C 0.4115(4) 0.8769(3) 0.6063(10)
H10_6 H 0.3785 0.8658 0.5328
C11_6 C 0.5094(5) 0.8863(3) 0.7404(15)
H11_6 H 0.5580 0.8840 0.7785
C12_6 C 0.4550(5) 0.9140(4) 0.7978(15)
H12_6 H 0.4589 0.9335 0.8830
C4_9 C 0.4115(4) 0.3769(3) 0.1063(10)
H4_9 H 0.3785 0.3658 0.0328
C5_9 C 0.5094(5) 0.3863(3) 0.2404(15)
H5_9 H 0.5580 0.3840 0.2785
C6_9 C 0.4550(5) 0.4140(4) 0.2978(15)
H6_9 H 0.4589 0.4335 0.3830
C4_10 C 0.8385(4) 0.6269(3) 0.3563(10)
H4_10 H 0.8715 0.6158 0.2828
C5_10 C 0.7406(5) 0.6363(3) 0.4904(15)
H5_10 H 0.6920 0.6340 0.5285
C6_10 C 0.7950(5) 0.6640(4) 0.5478(15)
H6_10 H 0.7911 0.6835 0.6330
loop_
_geom_bond_atom_site_label_1
_geom_bond_atom_site_label_2
_geom_bond_site_symmetry_1
_geom_bond_site_symmetry_2
Co1 N1 1_555 1_555
N3 Co1 1_555 1_555
N4 C4 1_555 1_555
C4 N3 1_555 1_555
H4 C4 1_555 1_555
C5 N3 1_555 1_555
H5 C5 1_555 1_555
C6 N4 1_555 1_555
H6 C6 1_555 1_555
N6 Co1 1_555 1_555
C7 N6 1_555 1_555
N7 C10 1_555 1_555
N8 Co1 1_555 1_555
C10 N8 1_555 1_555
H10 C10 1_555 1_555
C12 N8 1_555 1_555
H12 C12 1_555 1_555
Co4 N4 1_555 1_555
C5 C6 1_555 1_555
H8 C8 1_555 1_555
H9 C9 1_555 1_555
C8 C9 1_555 1_555
N2 C1 1_555 1_555
H2 C2 1_555 1_555
C3 N2 1_555 1_555
H3 C3 1_555 1_555
Co3 N2 1_555 1_555
C2 C3 1_555 1_555
Co3 N5 1_555 1_555
N10 Co3 1_555 1_555
N11 Co3 1_555 1_555
H11 C11 1_555 1_555
H11_2 C11_2 1_555 1_555
N2_2 C1_2 1_555 1_555
H2_2 C2_2 1_555 1_555
C3_2 N2_2 1_555 1_555
H3_2 C3_2 1_555 1_555
Co3_2 N2_2 1_555 1_555
C2_2 C3_2 1_555 1_555
Co3_2 N5_2 1_555 1_555
N10_2 Co3_2 1_555 1_555
N11_2 Co3_2 1_555 1_555
Co1_2 N1_2 1_555 1_555
N3_2 Co1_2 1_555 1_555
N4_2 C4_2 1_555 1_555
C4_2 N3_2 1_555 1_555
H4_2 C4_2 1_555 1_555
C5_2 N3_2 1_555 1_555
H5_2 C5_2 1_555 1_555
C6_2 N4_2 1_555 1_555
H6_2 C6_2 1_555 1_555
N6_2 Co1_2 1_555 1_555
C7_2 N6_2 1_555 1_555
N7_2 C10_2 1_555 1_555
N8_2 Co1_2 1_555 1_555
C10_2 N8_2 1_555 1_555
H10_2 C10_2 1_555 1_555
C12_2 N8_2 1_555 1_555
H12_2 C12_2 1_555 1_555
Co4_2 N4_2 1_555 1_555
C5_2 C6_2 1_555 1_555
H8_2 C8_2 1_555 1_555
H9_2 C9_2 1_555 1_555
C8_2 C9_2 1_555 1_555
Co4 N1_3 1_555 1_555
N1_3 C1_3 1_555 1_555
N2_3 C1_3 1_555 1_555
N3_3 Co4 1_555 1_555
N11_2 C4_3 1_555 1_555
C1_3 H1_3 1_555 1_555
C2_3 N1_3 1_555 1_555
H2_3 C2_3 1_555 1_555
C3_3 N2_3 1_555 1_555
H3_3 C3_3 1_555 1_555
C4_3 N3_3 1_555 1_555
H4_3 C4_3 1_555 1_555
C5_3 N3_3 1_555 1_555
H5_3 C5_3 1_555 1_555
C6_3 N11_2 1_555 1_555
H6_3 C6_3 1_555 1_555
N5_3 C7_3 1_555 1_555
N6_3 Co4 1_555 1_555
C7_3 N6_3 1_555 1_555
H7_3 C7_3 1_555 1_555
C8_3 N5_3 1_555 1_555
H8_3 C8_3 1_555 1_555
C9_3 N6_3 1_555 1_555
H9_3 C9_3 1_555 1_555
Co3_3 N2_3 1_555 1_555
C2_3 C3_3 1_555 1_555
C5_3 C6_3 1_555 1_555
C8_3 C9_3 1_555 1_555
N11_3 Co3_3 1_555 1_555
Co1_3 N1_4 1_555 1_555
N1_4 C1_4 1_555 1_555
N2_4 C1_4 1_555 1_555
C2_4 N1_4 1_555 1_555
H2_4 C2_4 1_555 1_555
C3_4 N2_4 1_555 1_555
H3_4 C3_4 1_555 1_555
H5_4 C5_4 1_555 1_555
N7_3 C10_3 1_555 1_555
N8_3 Co1_3 1_555 1_555
C10_3 N8_3 1_555 1_555
H10_3 C10_3 1_555 1_555
C11_3 N7_3 1_555 1_555
H11_3 C11_3 1_555 1_555
C12_3 N8_3 1_555 1_555
H12_3 C12_3 1_555 1_555
Co5_3 N7_3 1_555 1_555
C2_4 C3_4 1_555 1_555
C11_3 C12_3 1_555 1_555
N4_3 C4_4 1_555 1_555
C4_4 N3_4 1_555 1_555
H4_4 C4_4 1_555 1_555
C6_4 N4_3 1_555 1_555
H6_4 C6_4 1_555 1_555
N5_4 C7_4 1_555 1_555
C7_4 N6_4 1_555 1_555
C8_4 N5_4 1_555 1_555
H8_4 C8_4 1_555 1_555
C9_4 N6_4 1_555 1_555
H9_4 C9_4 1_555 1_555
Co4_3 N4_3 1_555 1_555
C8_4 C9_4 1_555 1_555
N11_4 Co5 1_555 1_555
N2_5 C1_5 1_555 1_555
C1_5 H1_5 1_555 1_555
H6_5 C6_5 1_555 1_555
Co5_3 N2_5 1_555 1_555
Co1_4 N1_5 1_555 1_555
N3_5 Co1_4 1_555 1_555
N4_4 C4_5 1_555 1_555
C2_5 N1_5 1_555 1_555
H2_5 C2_5 1_555 1_555
H3_5 C3_5 1_555 1_555
C4_5 N3_5 1_555 1_555
H4_5 C4_5 1_555 1_555
C5_5 N3_5 1_555 1_555
N5_5 C7_5 1_555 1_555
N6_5 Co1_4 1_555 1_555
C7_5 N6_5 1_555 1_555
H7_5 C7_5 1_555 1_555
C8_5 N5_5 1_555 1_555
H8_5 C8_5 1_555 1_555
C9_5 N6_5 1_555 1_555
H9_5 C9_5 1_555 1_555
N7_4 C10_4 1_555 1_555
N8_4 Co1_4 1_555 1_555
C10_4 N8_4 1_555 1_555
H10_4 C10_4 1_555 1_555
C12_4 N8_4 1_555 1_555
H12_4 C12_4 1_555 1_555
Co5_3 N5_5 1_555 1_555
Co4_4 N4_4 1_555 1_555
N11_5 Co5_3 1_555 1_555
C2_5 C3_5 1_555 1_555
C8_5 C9_5 1_555 1_555
H11_4 C11_4 1_555 1_555
N2_6 C1_6 1_555 1_555
C1_6 H1_6 1_555 1_555
H6_6 C6_6 1_555 1_555
Co3_4 N2_6 1_555 1_555
Co4_3 N1_6 1_555 1_555
N3_6 Co4_3 1_555 1_555
N11_3 C4_6 1_555 1_555
C2_6 N1_6 1_555 1_555
H2_6 C2_6 1_555 1_555
H3_6 C3_6 1_555 1_555
C4_6 N3_6 1_555 1_555
H4_6 C4_6 1_555 1_555
C5_6 N3_6 1_555 1_555
N5_6 C7_6 1_555 1_555
N6_6 Co4_3 1_555 1_555
C7_6 N6_6 1_555 1_555
H7_6 C7_6 1_555 1_555
C8_6 N5_6 1_555 1_555
H8_6 C8_6 1_555 1_555
C9_6 N6_6 1_555 1_555
H9_6 C9_6 1_555 1_555
Co3_4 N5_6 1_555 1_555
N10_4 Co3_4 1_555 1_555
N11_6 Co3_4 1_555 1_555
C2_6 C3_6 1_555 1_555
C8_6 C9_6 1_555 1_555
N1_7 C1_7 1_555 1_555
N2_7 C1_7 1_555 1_555
N11_6 C4_7 1_555 1_555
C1_7 H1_7 1_555 1_555
C2_7 N1_7 1_555 1_555
H2_7 C2_7 1_555 1_555
C3_7 N2_7 1_555 1_555
H3_7 C3_7 1_555 1_555
C4_7 N3_7 1_555 1_555
H4_7 C4_7 1_555 1_555
C5_7 N3_7 1_555 1_555
H5_7 C5_7 1_555 1_555
C6_7 N11_6 1_555 1_555
H6_7 C6_7 1_555 1_555
Co4_2 N2_7 1_555 1_555
C2_7 C3_7 1_555 1_555
C5_7 C6_7 1_555 1_555
N5_7 C7_7 1_555 1_555
N6_7 Co4_4 1_555 1_555
C7_7 N6_7 1_555 1_555
H7_7 C7_7 1_555 1_555
C8_7 N5_7 1_555 1_555
H8_7 C8_7 1_555 1_555
C9_7 N6_7 1_555 1_555
H9_7 C9_7 1_555 1_555
Co4_2 N5_7 1_555 1_555
N10_5 Co4_2 1_555 1_555
C8_7 C9_7 1_555 1_555
N1_8 C1_8 1_555 1_555
N2_8 C1_8 1_555 1_555
C2_8 N1_8 1_555 1_555
H2_8 C2_8 1_555 1_555
C3_8 N2_8 1_555 1_555
H3_8 C3_8 1_555 1_555
H12_5 C12_5 1_555 1_555
C2_8 C3_8 1_555 1_555
N10 C10_5 1_555 1_555
N8_5 Co5_2 1_555 1_555
C10_5 N8_5 1_555 1_555
H10_5 C10_5 1_555 1_555
C11_5 N10 1_555 1_555
N5_8 C7_8 1_555 1_555
C7_8 N6_8 1_555 1_555
C8_8 N5_8 1_555 1_555
H8_8 C8_8 1_555 1_555
C9_8 N6_8 1_555 1_555
H9_8 C9_8 1_555 1_555
Co5_4 N5_8 1_555 1_555
N11_7 Co5_4 1_555 1_555
C8_8 C9_8 1_555 1_555
H6_8 C6_8 1_555 1_555
N11_4 C4_8 1_555 1_555
C4_8 N10_2 1_555 1_555
H4_8 C4_8 1_555 1_555
C5_8 N10_2 1_555 1_555
N10_5 C10_6 1_555 1_555
C10_6 N11 1_555 1_555
H10_6 C10_6 1_555 1_555
C11_6 N10_5 1_555 1_555
H11_6 C11_6 1_555 1_555
C12_6 N11 1_555 1_555
H12_6 C12_6 1_555 1_555
C11_6 C12_6 1_555 1_555
N11_5 C4_9 1_555 1_555
C4_9 N10_3 1_555 1_555
H4_9 C4_9 1_555 1_555
C5_9 N10_3 1_555 1_555
H5_9 C5_9 1_555 1_555
C6_9 N11_5 1_555 1_555
H6_9 C6_9 1_555 1_555
C5_9 C6_9 1_555 1_555
N11_7 C4_10 1_555 1_555
C4_10 N10_4 1_555 1_555
H4_10 C4_10 1_555 1_555
C5_10 N10_4 1_555 1_555
H5_10 C5_10 1_555 1_555
C6_10 N11_7 1_555 1_555
H6_10 C6_10 1_555 1_555
C5_10 C6_10 1_555 1_555

#END
