
###############################################################################
#
# This file contains modified crystal structure data generated from the
# MOF subset of the Cambridge Structural Database (CSD) v543 
# hosted by the Cambridge Crystallographic Data Centre (CCDC).
#
# This work is licensed under the Creative Commons
# Attribution-NonCommercial-ShareAlike 4.0 International License.
# To view a copy of this license, visit
# http://creativecommons.org/licenses/by-nc-sa/4.0/
# or send a letter to
# Creative Commons, PO Box 1866, Mountain View, CA 94042, USA.
#
# CIF created using the CSD Python API on 29 September 2022
# The structure has been converted into the P1 space group
# The structure has a 3D framework
# The original CSD entry EQOXIT is in the monoclinic crystal system
# The original CSD entry EQOXIT is in a Sohncke space group
# The framework has been calculated to contain at least 10.0% void space
# The void calculation uses a probe of radius 1.32A, grid spacing 0.4
# H atom positions have been added when not included in the experimental data
#
###############################################################################

data_EQOXIT
_chemical_formula_moiety         '(C144 H100 N24 O41 Zn12)n'
_symmetry_cell_setting           triclinic
_symmetry_space_group_name_H-M   'P 1'
_symmetry_Int_Tables_number      1
_space_group_name_Hall           'P 1'
loop_
_symmetry_equiv_pos_site_id
_symmetry_equiv_pos_as_xyz
1 x,y,z
_cell_length_a                   14.7409(5)
_cell_length_b                   15.3429(6)
_cell_length_c                   22.1924(8)
_cell_angle_alpha                90
_cell_angle_beta                 103.716(2)
_cell_angle_gamma                90
_cell_volume                     4876.08
loop_
_atom_site_label
_atom_site_type_symbol
_atom_site_fract_x
_atom_site_fract_y
_atom_site_fract_z
C15 C 0.2157(6) 0.0530(6) 0.0232(4)
H7 H 0.2607 0.0237 0.0527
C16 C 0.2190(7) 0.1432(6) 0.0186(5)
H8 H 0.2663 0.1743 0.0451
N3 N 0.1450(6) 0.0064(5) 0.9836(4)
C17 C 0.1517(8) 0.1869(5) 0.9745(5)
C18 C 0.0810(6) 0.1404(6) 0.9349(4)
H9 H 0.0360 0.1696 0.9054
C19 C 0.0777(5) 0.0501(6) 0.9395(4)
H10 H 0.0304 0.0190 0.9130
N4 N 0.1564(5) 0.4638(4) 0.9574(3)
C20 C 0.2397(4) 0.4191(5) 0.9792(4)
H11 H 0.2957 0.4497 0.9907
C21 C 0.2395(5) 0.3288(5) 0.9839(5)
H12 H 0.2952 0.2989 0.9985
C22 C 0.1558(6) 0.2831(4) 0.9667(4)
C23 C 0.0725(5) 0.3278(5) 0.9449(4)
H13 H 0.0166 0.2973 0.9334
C24 C 0.0727(4) 0.4182(5) 0.9403(3)
H14 H 0.0170 0.4481 0.9257
Zn7 Zn 0.15394(9) 0.59981(10) 0.95404(6)
C1 C 0.1658(8) 0.6744(10) 0.1644(5)
H1 H 0.1663 0.6142 0.1594
C2 C 0.1668(7) 0.7301(8) 0.1131(4)
O1 O 0.1646(6) 0.8761(7) 0.0760(3)
C3 C 0.1654(7) 0.8211(8) 0.1178(5)
C4 C 0.1613(8) 0.8522(11) 0.1808(5)
H2 H 0.1567 0.9118 0.1871
C5 C 0.1640(9) 0.7981(10) 0.2292(5)
H3 H 0.1656 0.8205 0.2683
C6 C 0.1643(8) 0.7083(8) 0.2199(5)
N1 N 0.1635(6) 0.6478(6) 0.2661(4)
O4 O 0.1668(6) 0.6030(7) 0.0485(3)
O5 O 0.1592(5) 0.7287(6) 0.0012(3)
C13 C 0.1638(7) 0.6870(10) 0.0534(5)
C32 C 0.1528(8) 0.6480(8) 0.5324(5)
C33 C 0.1563(7) 0.6053(9) 0.4737(4)
C34 C 0.1589(7) 0.6525(8) 0.4218(5)
H18 H 0.1588 0.7128 0.4255
C35 C 0.1616(8) 0.6185(8) 0.3639(5)
C36 C 0.1633(8) 0.5283(7) 0.3597(4)
H19 H 0.1658 0.5034 0.3220
C37 C 0.1615(8) 0.4723(10) 0.4102(5)
H20 H 0.1620 0.4121 0.4052
C38 C 0.1586(7) 0.5099(7) 0.4703(5)
N5 N 0.1629(8) 0.6741(8) 0.3170(5)
O12 O 0.1515(5) 0.6079(6) 0.5833(4)
O13 O 0.1458(6) 0.7291(6) 0.5320(3)
O14 O 0.1527(6) 0.4561(6) 0.5126(4)
Zn12 Zn 0.15737(9) 0.47769(9) 0.59980(5)
Zn13 Zn 0.15565(9) 0.74224(9) 0.62598(6)
O2 O 0.0206(4) 0.7887(5) 0.7548(3)
O3 O 0.2772(6) 0.6263(6) 0.9336(3)
O6 O 0.2836(6) 0.8632(9) 0.9727(4)
Zn2 Zn 0.14892(9) 0.86595(11) 0.98783(6)
O7 O 0.1053(4) 0.8185(5) 0.8802(3)
C14 C 0.0217(7) 0.8284(8) 0.8873(5)
O8 O 0.0108(4) 0.8561(6) 0.9391(3)
Zn3 Zn 0.15251(8) 0.80752(9) 0.80565(6)
C49 C 0.0278(7) 0.5999(8) 0.8518(5)
O18 O 0.0191(5) 0.6115(7) 0.9054(3)
O19 O 0.1091(4) 0.5961(6) 0.8423(3)
O20 O 0.0232(4) 0.5571(6) 0.7204(3)
O23 O 0.2798(4) 0.7879(6) 0.8607(3)
O24 O 0.1981(5) 0.7455(7) 0.7385(3)
N14 N 0.1569(6) 0.9436(8) 0.7916(5)
Zn10 Zn 0.15240(8) 0.53879(9) 0.77490(6)
H43 H 0.324176 0.582273 0.953517
H44 H 0.269536 0.624446 0.887941
H45 H 0.318204 0.81249 0.994715
H46 H 0.279681 0.857973 0.927556
C63 C 0.2306(9) 0.2942(11) 0.6475(7)
H35 H 0.2818 0.3237 0.6713
C64 C 0.2331(10) 0.2063(11) 0.6482(9)
H36 H 0.2870 0.1786 0.6699
C65 C 0.1626(7) 0.1588(8) 0.6196(6)
C66 C 0.0863(11) 0.2054(10) 0.5886(10)
H37 H 0.0326 0.1760 0.5681
C67 C 0.0880(11) 0.2948(12) 0.5873(8)
H38 H 0.0349 0.3236 0.5654
C69 C 0.2383(9) 0.0113(9) 0.6382(8)
H40 H 0.2958 0.0377 0.6539
C70 C 0.1603(7) 0.0632(8) 0.6177(6)
C71 C 0.0794(9) 0.0149(9) 0.6053(7)
H41 H 0.0222 0.0436 0.5948
N11 N 0.1601(6) 0.3421(7) 0.6151(4)
C7 C 0.9445(6) 0.7951(7) 0.7732(5)
C8 C 0.8615(8) 0.7848(9) 0.7310(6)
H4 H 0.8637 0.7728 0.6903
C9 C 0.9434(6) 0.8172(8) 0.8351(4)
C10 C 0.8525(7) 0.8168(8) 0.8495(5)
H5 H 0.8497 0.8210 0.8908
C11 C 0.7763(8) 0.7904(9) 0.7432(5)
H6 H 0.7230 0.7810 0.7118
C12 C 0.7682(6) 0.8106(8) 0.8040(4)
N2 N 0.6886(5) 0.8106(7) 0.8271(4)
C25 C 0.2803(7) 0.7483(8) 0.7286(5)
C26 C 0.3583(7) 0.7918(8) 0.8410(5)
C27 C 0.3646(6) 0.7713(9) 0.7800(5)
C28 C 0.4500(6) 0.7715(8) 0.7622(5)
H15 H 0.4529 0.7559 0.7222
C29 C 0.5300(7) 0.7958(9) 0.8062(5)
C30 C 0.5269(8) 0.8125(11) 0.8679(5)
H16 H 0.5816 0.8246 0.8974
C31 C 0.4435(6) 0.8111(9) 0.8843(5)
H17 H 0.4423 0.8230 0.9252
N6 N 0.6150(6) 0.7933(7) 0.7867(4)
O11 O 0.2883(5) 0.7321(6) 0.6755(3)
C39 C 0.2274(11) 0.0772(12) 0.8086(10)
H21 H 0.2817 0.1063 0.8281
C42 C 0.0650(11) 0.2663(10) 0.7596(8)
H24 H 0.0109 0.2356 0.7416
C43 C 0.0660(10) 0.3562(10) 0.7588(7)
H25 H 0.0129 0.3859 0.7378
C44 C 0.1507(10) 0.2205(9) 0.7892(6)
N8 N 0.1443(7) 0.4033(8) 0.7886(4)
C45 C 0.2215(9) 0.2722(9) 0.8214(8)
H26 H 0.2749 0.2455 0.8450
C46 C 0.2172(10) 0.3596(11) 0.8205(7)
H27 H 0.2678 0.3908 0.8433
C47 C 0.0720(11) 0.0705(13) 0.7687(9)
H28 H 0.0137 0.0956 0.7531
C48 C 0.1558(9) 0.1238(9) 0.7876(5)
C50 C 0.9432(6) 0.5851(7) 0.7999(4)
C51 C 0.8574(7) 0.5875(7) 0.8156(4)
H29 H 0.8565 0.5990 0.8566
C52 C 0.7722(7) 0.5736(8) 0.7728(5)
C53 C 0.7780(7) 0.5503(10) 0.7140(5)
H30 H 0.7234 0.5352 0.6853
C54 C 0.8586(7) 0.5484(10) 0.6963(5)
H31 H 0.8582 0.5362 0.6552
C55 C 0.9472(7) 0.5655(7) 0.7407(4)
C56 C 0.2882(6) 0.5142(7) 0.6939(4)
C57 C 0.3698(6) 0.5379(7) 0.7471(4)
C58 C 0.3609(7) 0.5537(8) 0.8070(5)
C59 C 0.4472(7) 0.5741(10) 0.8541(5)
H32 H 0.4445 0.5880 0.8944
C60 C 0.5309(8) 0.5724(10) 0.8381(5)
H33 H 0.5859 0.5805 0.8683
C61 C 0.5341(7) 0.5589(8) 0.7773(5)
C62 C 0.4566(7) 0.5360(10) 0.7333(5)
H34 H 0.4619 0.5192 0.6940
N9 N 0.6206(5) 0.5596(7) 0.7570(4)
N10 N 0.6912(6) 0.5767(6) 0.7970(4)
O15 O 0.2788(4) 0.5565(6) 0.8252(3)
O16 O 0.2033(5) 0.5232(6) 0.6989(3)
O17 O 0.3030(5) 0.4878(6) 0.6452(3)
O21 O 0.0211(5) 0.4837(6) 0.6114(3)
C68 C 0.2331(10) 0.9209(10) 0.6362(9)
H39 H 0.2897 0.8911 0.6450
C72 C 0.0807(9) 0.9243(9) 0.6081(7)
H42 H 0.0233 0.8959 0.5986
N12 N 0.1587(6) 0.8735(7) 0.6235(4)
O22 O 0.0286(5) 0.7245(6) 0.6442(4)
H47 H 0.0069348 0.544269 0.622017
H49 H 0.0134824 0.775291 0.667779
C40 C 0.2326(10) 0.9910(10) 0.8054(8)
H22 H 0.2908 0.9641 0.8130
C41 C 0.0819(11) 0.9875(10) 0.7743(8)
H23 H 0.0270 0.9552 0.7644
H48 H 0.976765 0.465869 0.572298
H50 H 0.980605 0.718844 0.604584
H50_2 H 0.0193952 0.218844 0.395416
H48_2 H 0.0232352 0.965869 0.427702
C7_2 C 0.0555(6) 0.2951(7) 0.2268(5)
C8_2 C 0.1385(8) 0.2848(9) 0.2690(6)
H4_2 H 0.1363 0.2728 0.3097
C9_2 C 0.0566(6) 0.3172(8) 0.1649(4)
C10_2 C 0.1475(7) 0.3168(8) 0.1505(5)
H5_2 H 0.1503 0.3210 0.1092
C11_2 C 0.2237(8) 0.2904(9) 0.2568(5)
H6_2 H 0.2770 0.2810 0.2882
C12_2 C 0.2318(6) 0.3106(8) 0.1960(4)
N2_2 N 0.3114(5) 0.3106(7) 0.1729(4)
C25_2 C 0.7197(7) 0.2483(8) 0.2714(5)
C26_2 C 0.6417(7) 0.2918(8) 0.1590(5)
C27_2 C 0.6354(6) 0.2713(9) 0.2200(5)
C28_2 C 0.5500(6) 0.2715(8) 0.2378(5)
H15_2 H 0.5471 0.2559 0.2778
C29_2 C 0.4700(7) 0.2958(9) 0.1938(5)
C30_2 C 0.4731(8) 0.3125(11) 0.1321(5)
H16_2 H 0.4184 0.3246 0.1026
C31_2 C 0.5565(6) 0.3111(9) 0.1157(5)
H17_2 H 0.5577 0.3230 0.0748
N6_2 N 0.3850(6) 0.2933(7) 0.2133(4)
O9 O 0.7202(4) 0.2879(6) 0.1393(3)
O10 O 0.8019(5) 0.2455(7) 0.2615(3)
O11_2 O 0.7117(5) 0.2321(6) 0.3245(3)
C50_2 C 0.0568(6) 0.0851(7) 0.2001(4)
C51_2 C 0.1426(7) 0.0875(7) 0.1844(4)
H29_2 H 0.1435 0.0990 0.1434
C52_2 C 0.2278(7) 0.0736(8) 0.2272(5)
C53_2 C 0.2220(7) 0.0503(10) 0.2860(5)
H30_2 H 0.2766 0.0352 0.3147
C54_2 C 0.1414(7) 0.0484(10) 0.3037(5)
H31_2 H 0.1418 0.0362 0.3448
C55_2 C 0.0528(7) 0.0655(7) 0.2593(4)
C56_2 C 0.7118(6) 0.0142(7) 0.3061(4)
C57_2 C 0.6302(6) 0.0379(7) 0.2529(4)
C58_2 C 0.6391(7) 0.0537(8) 0.1930(5)
C59_2 C 0.5528(7) 0.0741(10) 0.1459(5)
H32_2 H 0.5555 0.0880 0.1056
C60_2 C 0.4691(8) 0.0724(10) 0.1619(5)
H33_2 H 0.4141 0.0805 0.1317
C61_2 C 0.4659(7) 0.0589(8) 0.2227(5)
C62_2 C 0.5434(7) 0.0360(10) 0.2667(5)
H34_2 H 0.5381 0.0192 0.3060
N9_2 N 0.3794(5) 0.0596(7) 0.2430(4)
N10_2 N 0.3088(6) 0.0767(6) 0.2030(4)
O15_2 O 0.7212(4) 0.0565(6) 0.1748(3)
O16_2 O 0.7967(5) 0.0232(6) 0.3011(3)
Zn4 Zn 0.84760(8) 0.03879(9) 0.22510(6)
C63_2 C 0.7694(9) 0.7942(11) 0.3525(7)
H35_2 H 0.7182 0.8237 0.3287
C64_2 C 0.7669(10) 0.7063(11) 0.3518(9)
H36_2 H 0.7130 0.6786 0.3301
C65_2 C 0.8374(7) 0.6588(8) 0.3804(6)
C66_2 C 0.9137(11) 0.7054(10) 0.4114(10)
H37_2 H 0.9674 0.6760 0.4319
C67_2 C 0.9120(11) 0.7948(12) 0.4127(8)
H38_2 H 0.9651 0.8236 0.4346
C68_2 C 0.7669(10) 0.4209(10) 0.3638(9)
H39_2 H 0.7103 0.3911 0.3550
C69_2 C 0.7617(9) 0.5113(9) 0.3618(8)
H40_2 H 0.7042 0.5377 0.3461
C70_2 C 0.8397(7) 0.5632(8) 0.3823(6)
C71_2 C 0.9206(9) 0.5149(9) 0.3947(7)
H41_2 H 0.9778 0.5436 0.4052
C72_2 C 0.9193(9) 0.4243(9) 0.3919(7)
H42_2 H 0.9767 0.3959 0.4014
N11_2 N 0.8399(6) 0.8421(7) 0.3849(4)
N12_2 N 0.8413(6) 0.3735(7) 0.3765(4)
O22_2 O 0.9714(5) 0.2245(6) 0.3558(4)
Zn6 Zn 0.84435(9) 0.24224(9) 0.37402(6)
Zn9 Zn 0.84749(8) 0.30752(9) 0.19435(6)
O25 O 0.8485(5) 0.1079(6) 0.4167(4)
O26 O 0.8542(6) 0.2291(6) 0.4680(3)
O28 O 0.8909(4) 0.0961(6) 0.1577(3)
O29 O 0.9768(4) 0.0571(6) 0.2796(3)
Zn11 Zn 0.84263(9) 0.97769(9) 0.40020(5)
H47_2 H 0.993065 0.0442689 0.377983
H49_2 H 0.986518 0.275291 0.332221
C39_2 C 0.7726(11) 0.5772(12) 0.1914(10)
H21_2 H 0.7183 0.6063 0.1719
C40_2 C 0.7674(10) 0.4910(10) 0.1946(8)
H22_2 H 0.7092 0.4641 0.1870
N7 N 0.8431(6) 0.4436(8) 0.2084(5)
C41_2 C 0.9181(11) 0.4875(10) 0.2257(8)
H23_2 H 0.9730 0.4552 0.2356
C42_2 C 0.9350(11) 0.7663(10) 0.2404(8)
H24_2 H 0.9891 0.7356 0.2584
C43_2 C 0.9340(10) 0.8562(10) 0.2412(7)
H25_2 H 0.9871 0.8859 0.2622
C44_2 C 0.8493(10) 0.7205(9) 0.2108(6)
N8_2 N 0.8557(7) 0.9033(8) 0.2114(4)
C45_2 C 0.7785(9) 0.7722(9) 0.1786(8)
H26_2 H 0.7251 0.7455 0.1550
C46_2 C 0.7828(10) 0.8596(11) 0.1795(7)
H27_2 H 0.7322 0.8908 0.1567
C47_2 C 0.9280(11) 0.5705(13) 0.2313(9)
H28_2 H 0.9863 0.5956 0.2469
C48_2 C 0.8442(9) 0.6238(9) 0.2124(5)
O17_2 O 0.6970(5) 0.9878(6) 0.3548(3)
O21_2 O 0.9789(5) 0.9837(6) 0.3886(3)
O27 O 0.8473(6) 0.9561(6) 0.4874(4)
Zn7_2 Zn 0.84606(9) 0.09981(10) 0.04596(6)
O2_2 O 0.9794(4) 0.2887(5) 0.2452(3)
O3_2 O 0.7228(6) 0.1263(6) 0.0664(3)
O6_2 O 0.7164(6) 0.3632(9) 0.0273(4)
Zn2_2 Zn 0.85108(9) 0.36595(11) 0.01217(6)
O7_2 O 0.8947(4) 0.3185(5) 0.1198(3)
C14_2 C 0.9783(7) 0.3284(8) 0.1127(5)
N3_2 N 0.8550(6) 0.5064(5) 0.0164(4)
C17_2 C 0.8483(8) 0.6869(5) 0.0255(5)
C18_2 C 0.9190(6) 0.6404(6) 0.0651(4)
H9_2 H 0.9640 0.6696 0.0946
C19_2 C 0.9223(5) 0.5501(6) 0.0605(4)
H10_2 H 0.9696 0.5190 0.0870
O8_2 O 0.9892(4) 0.3561(6) 0.0609(3)
N4_2 N 0.8436(5) 0.9638(4) 0.0426(3)
C20_2 C 0.7603(4) 0.9191(5) 0.0208(4)
H11_2 H 0.7043 0.9497 0.0093
C21_2 C 0.7605(5) 0.8288(5) 0.0161(5)
H12_2 H 0.7048 0.7989 0.0015
C22_2 C 0.8442(6) 0.7831(4) 0.0333(4)
C23_2 C 0.9275(5) 0.8278(5) 0.0551(4)
H13_2 H 0.9834 0.7973 0.0666
C24_2 C 0.9273(4) 0.9182(5) 0.0597(3)
H14_2 H 0.9830 0.9481 0.0743
C49_2 C 0.9722(7) 0.0999(8) 0.1482(5)
O18_2 O 0.9809(5) 0.1115(7) 0.0946(3)
H43_2 H 0.675824 0.0822728 0.0464829
H44_2 H 0.730464 0.124446 0.112059
H45_2 H 0.681796 0.31249 0.0052848
H46_2 H 0.720319 0.357973 0.0724443
C1_2 C 0.8342(8) 0.1744(10) 0.8356(5)
H1_2 H 0.8337 0.1142 0.8406
C2_2 C 0.8332(7) 0.2301(8) 0.8869(4)
O1_2 O 0.8354(6) 0.3761(7) 0.9240(3)
C3_2 C 0.8346(7) 0.3211(8) 0.8822(5)
C4_2 C 0.8387(8) 0.3522(11) 0.8192(5)
H2_2 H 0.8433 0.4118 0.8129
C5_2 C 0.8360(9) 0.2981(10) 0.7708(5)
H3_2 H 0.8344 0.3205 0.7317
C6_2 C 0.8357(8) 0.2083(8) 0.7801(5)
N1_2 N 0.8365(6) 0.1478(6) 0.7339(4)
O4_2 O 0.8332(6) 0.1030(7) 0.9515(3)
O5_2 O 0.8408(5) 0.2287(6) 0.9988(3)
C13_2 C 0.8362(7) 0.1870(10) 0.9466(5)
C15_2 C 0.7843(6) 0.5530(6) 0.9768(4)
H7_2 H 0.7393 0.5237 0.9473
C16_2 C 0.7810(7) 0.6432(6) 0.9814(5)
H8_2 H 0.7337 0.6743 0.9549
C32_2 C 0.8472(8) 0.1480(8) 0.4676(5)
C33_2 C 0.8437(7) 0.1053(9) 0.5263(4)
C34_2 C 0.8411(7) 0.1525(8) 0.5782(5)
H18_2 H 0.8412 0.2128 0.5745
C35_2 C 0.8384(8) 0.1185(8) 0.6361(5)
C36_2 C 0.8367(8) 0.0283(7) 0.6403(4)
H19_2 H 0.8342 0.0034 0.6780
C38_2 C 0.8414(7) 0.0099(7) 0.5297(5)
N5_2 N 0.8371(8) 0.1741(8) 0.6830(5)
C37_2 C 0.8385(8) 0.9723(10) 0.5898(5)
H20_2 H 0.8380 0.9121 0.5948
loop_
_geom_bond_atom_site_label_1
_geom_bond_atom_site_label_2
_geom_bond_site_symmetry_1
_geom_bond_site_symmetry_2
H7 C15 1_555 1_555
C16 C15 1_555 1_555
H8 C16 1_555 1_555
C18 C17 1_555 1_555
H9 C18 1_555 1_555
C19 N3 1_555 1_555
H10 C19 1_555 1_555
N4 C20 1_555 1_555
C20 H11 1_555 1_555
C21 C20 1_555 1_555
H12 C21 1_555 1_555
C22 C17 1_555 1_555
C23 C22 1_555 1_555
H13 C23 1_555 1_555
C24 N4 1_555 1_555
H14 C24 1_555 1_555
Zn7 N4 1_555 1_555
C18 C19 1_555 1_555
C21 C22 1_555 1_555
C23 C24 1_555 1_555
C1 H1 1_555 1_555
C2 C1 1_555 1_555
O1 C3 1_555 1_555
C3 C2 1_555 1_555
C4 C3 1_555 1_555
H2 C4 1_555 1_555
C5 C4 1_555 1_555
H3 C5 1_555 1_555
C6 C1 1_555 1_555
N1 C6 1_555 1_555
O4 C13 1_555 1_555
C13 C2 1_555 1_555
C32 C33 1_555 1_555
C33 C34 1_555 1_555
C34 H18 1_555 1_555
C35 C34 1_555 1_555
C36 C35 1_555 1_555
H19 C36 1_555 1_555
C37 C36 1_555 1_555
H20 C37 1_555 1_555
C38 C33 1_555 1_555
N5 N1 1_555 1_555
O12 C32 1_555 1_555
O13 C32 1_555 1_555
O14 C38 1_555 1_555
Zn12 O12 1_555 1_555
Zn13 O12 1_555 1_555
C5 C6 1_555 1_555
O5 C13 1_555 1_555
C35 N5 1_555 1_555
C37 C38 1_555 1_555
O13 Zn13 1_555 1_555
O14 Zn12 1_555 1_555
O3 Zn7 1_555 1_555
O6 Zn2 1_555 1_555
O7 Zn2 1_555 1_555
O8 Zn2 1_555 1_555
Zn3 O2 1_555 1_555
O18 Zn7 1_555 1_555
O19 Zn7 1_555 1_555
O23 Zn3 1_555 1_555
O24 Zn3 1_555 1_555
N14 Zn3 1_555 1_555
Zn10 O19 1_555 1_555
O7 C14 1_555 1_555
O7 Zn3 1_555 1_555
C14 O8 1_555 1_555
C49 O18 1_555 1_555
C49 O19 1_555 1_555
O20 Zn10 1_555 1_555
O3 H43 1_555 1_555
O3 H44 1_555 1_555
O6 H45 1_555 1_555
O6 H46 1_555 1_555
C63 H35 1_555 1_555
C64 C63 1_555 1_555
H36 C64 1_555 1_555
C65 C64 1_555 1_555
C66 C65 1_555 1_555
H37 C66 1_555 1_555
C67 C66 1_555 1_555
H38 C67 1_555 1_555
H40 C69 1_555 1_555
C70 C65 1_555 1_555
C71 C70 1_555 1_555
H41 C71 1_555 1_555
N11 C63 1_555 1_555
Zn12 N11 1_555 1_555
C67 N11 1_555 1_555
C69 C70 1_555 1_555
C7 C8 1_555 1_555
C8 H4 1_555 1_555
C9 C7 1_555 1_555
C10 C9 1_555 1_555
H5 C10 1_555 1_555
C11 C8 1_555 1_555
H6 C11 1_555 1_555
C12 C10 1_555 1_555
N2 C12 1_555 1_555
C25 C27 1_555 1_555
C26 C27 1_555 1_555
C27 C28 1_555 1_555
C28 H15 1_555 1_555
C29 C28 1_555 1_555
C30 C29 1_555 1_555
H16 C30 1_555 1_555
C31 C26 1_555 1_555
H17 C31 1_555 1_555
N6 N2 1_555 1_555
O23 C26 1_555 1_555
O24 C25 1_555 1_555
O11 C25 1_555 1_555
C39 H21 1_555 1_555
C42 H24 1_555 1_555
C43 C42 1_555 1_555
H25 C43 1_555 1_555
C44 C42 1_555 1_555
N8 C43 1_555 1_555
C45 C44 1_555 1_555
H26 C45 1_555 1_555
C46 N8 1_555 1_555
H27 C46 1_555 1_555
H28 C47 1_555 1_555
C48 C39 1_555 1_555
C50 C51 1_555 1_555
C51 H29 1_555 1_555
C52 C51 1_555 1_555
C53 C52 1_555 1_555
H30 C53 1_555 1_555
C54 C53 1_555 1_555
H31 C54 1_555 1_555
C55 C50 1_555 1_555
C56 C57 1_555 1_555
C57 C58 1_555 1_555
C58 C59 1_555 1_555
C59 H32 1_555 1_555
C60 C59 1_555 1_555
H33 C60 1_555 1_555
C61 C60 1_555 1_555
C62 C57 1_555 1_555
H34 C62 1_555 1_555
N9 C61 1_555 1_555
N10 C52 1_555 1_555
O15 C58 1_555 1_555
O16 C56 1_555 1_555
O17 C56 1_555 1_555
O21 Zn12 1_555 1_555
Zn10 N8 1_555 1_555
Zn12 O16 1_555 1_555
C68 H39 1_555 1_555
H42 C72 1_555 1_555
N12 C68 1_555 1_555
O22 Zn13 1_555 1_555
Zn13 O24 1_555 1_555
C11 C12 1_555 1_555
C29 N6 1_555 1_555
C30 C31 1_555 1_555
O11 Zn13 1_555 1_555
C44 C48 1_555 1_555
C45 C46 1_555 1_555
C47 C48 1_555 1_555
C54 C55 1_555 1_555
C61 C62 1_555 1_555
N9 N10 1_555 1_555
O15 Zn10 1_555 1_555
O16 Zn10 1_555 1_555
O17 Zn12 1_555 1_555
C72 N12 1_555 1_555
N12 Zn13 1_555 1_555
O21 H47 1_555 1_555
O22 H49 1_555 1_555
H22 C40 1_555 1_555
N14 C40 1_555 1_555
C41 N14 1_555 1_555
H23 C41 1_555 1_555
C7_2 C8_2 1_555 1_555
C8_2 H4_2 1_555 1_555
C9_2 C7_2 1_555 1_555
C10_2 C9_2 1_555 1_555
H5_2 C10_2 1_555 1_555
C11_2 C8_2 1_555 1_555
H6_2 C11_2 1_555 1_555
C12_2 C10_2 1_555 1_555
N2_2 C12_2 1_555 1_555
C25_2 C27_2 1_555 1_555
C26_2 C27_2 1_555 1_555
C27_2 C28_2 1_555 1_555
C28_2 H15_2 1_555 1_555
C29_2 C28_2 1_555 1_555
C30_2 C29_2 1_555 1_555
H16_2 C30_2 1_555 1_555
C31_2 C26_2 1_555 1_555
H17_2 C31_2 1_555 1_555
N6_2 N2_2 1_555 1_555
O9 C26_2 1_555 1_555
O10 C25_2 1_555 1_555
O11_2 C25_2 1_555 1_555
C50_2 C51_2 1_555 1_555
C51_2 H29_2 1_555 1_555
C52_2 C51_2 1_555 1_555
C53_2 C52_2 1_555 1_555
H30_2 C53_2 1_555 1_555
C54_2 C53_2 1_555 1_555
H31_2 C54_2 1_555 1_555
C55_2 C50_2 1_555 1_555
C56_2 C57_2 1_555 1_555
C57_2 C58_2 1_555 1_555
C58_2 C59_2 1_555 1_555
C59_2 H32_2 1_555 1_555
C60_2 C59_2 1_555 1_555
H33_2 C60_2 1_555 1_555
C61_2 C60_2 1_555 1_555
C62_2 C57_2 1_555 1_555
H34_2 C62_2 1_555 1_555
N9_2 C61_2 1_555 1_555
N10_2 C52_2 1_555 1_555
O15_2 C58_2 1_555 1_555
O16_2 C56_2 1_555 1_555
C63_2 H35_2 1_555 1_555
C64_2 C63_2 1_555 1_555
H36_2 C64_2 1_555 1_555
C65_2 C64_2 1_555 1_555
C66_2 C65_2 1_555 1_555
H37_2 C66_2 1_555 1_555
C67_2 C66_2 1_555 1_555
H38_2 C67_2 1_555 1_555
C68_2 H39_2 1_555 1_555
C69_2 C68_2 1_555 1_555
H40_2 C69_2 1_555 1_555
C70_2 C65_2 1_555 1_555
C71_2 C70_2 1_555 1_555
H41_2 C71_2 1_555 1_555
C72_2 C71_2 1_555 1_555
H42_2 C72_2 1_555 1_555
N11_2 C63_2 1_555 1_555
N12_2 C68_2 1_555 1_555
O22_2 Zn6 1_555 1_555
Zn6 O10 1_555 1_555
Zn9 O9 1_555 1_555
O26 Zn6 1_555 1_555
O28 Zn4 1_555 1_555
O29 Zn4 1_555 1_555
Zn11 N11_2 1_555 1_555
C11_2 C12_2 1_555 1_555
C29_2 N6_2 1_555 1_555
C30_2 C31_2 1_555 1_555
O10 Zn9 1_555 1_555
O11_2 Zn6 1_555 1_555
C54_2 C55_2 1_555 1_555
C61_2 C62_2 1_555 1_555
N9_2 N10_2 1_555 1_555
O15_2 Zn4 1_555 1_555
O16_2 Zn4 1_555 1_555
C67_2 N11_2 1_555 1_555
C69_2 C70_2 1_555 1_555
C72_2 N12_2 1_555 1_555
N12_2 Zn6 1_555 1_555
Zn6 O25 1_555 1_555
O22_2 H49_2 1_555 1_555
C39_2 H21_2 1_555 1_555
C40_2 C39_2 1_555 1_555
H22_2 C40_2 1_555 1_555
N7 C40_2 1_555 1_555
C41_2 N7 1_555 1_555
H23_2 C41_2 1_555 1_555
C42_2 H24_2 1_555 1_555
C43_2 C42_2 1_555 1_555
H25_2 C43_2 1_555 1_555
C44_2 C42_2 1_555 1_555
N8_2 C43_2 1_555 1_555
C45_2 C44_2 1_555 1_555
H26_2 C45_2 1_555 1_555
C46_2 N8_2 1_555 1_555
H27_2 C46_2 1_555 1_555
C47_2 C41_2 1_555 1_555
H28_2 C47_2 1_555 1_555
C48_2 C39_2 1_555 1_555
O21_2 Zn11 1_555 1_555
Zn9 N7 1_555 1_555
O27 Zn11 1_555 1_555
C44_2 C48_2 1_555 1_555
C45_2 C46_2 1_555 1_555
C47_2 C48_2 1_555 1_555
O17_2 Zn11 1_555 1_555
O3_2 Zn7_2 1_555 1_555
O6_2 Zn2_2 1_555 1_555
O7_2 Zn2_2 1_555 1_555
N3_2 Zn2_2 1_555 1_555
C18_2 C17_2 1_555 1_555
H9_2 C18_2 1_555 1_555
C19_2 N3_2 1_555 1_555
H10_2 C19_2 1_555 1_555
O8_2 Zn2_2 1_555 1_555
N4_2 C20_2 1_555 1_555
C20_2 H11_2 1_555 1_555
C21_2 C20_2 1_555 1_555
H12_2 C21_2 1_555 1_555
C22_2 C17_2 1_555 1_555
C23_2 C22_2 1_555 1_555
H13_2 C23_2 1_555 1_555
C24_2 N4_2 1_555 1_555
H14_2 C24_2 1_555 1_555
Zn9 O2_2 1_555 1_555
O18_2 Zn7_2 1_555 1_555
O28 Zn7_2 1_555 1_555
O7_2 C14_2 1_555 1_555
O7_2 Zn9 1_555 1_555
C14_2 O8_2 1_555 1_555
C18_2 C19_2 1_555 1_555
C21_2 C22_2 1_555 1_555
C23_2 C24_2 1_555 1_555
C49_2 O18_2 1_555 1_555
C49_2 O28 1_555 1_555
O3_2 H43_2 1_555 1_555
O3_2 H44_2 1_555 1_555
O6_2 H45_2 1_555 1_555
O6_2 H46_2 1_555 1_555
C1_2 H1_2 1_555 1_555
C2_2 C1_2 1_555 1_555
O1_2 C3_2 1_555 1_555
C3_2 C2_2 1_555 1_555
C4_2 C3_2 1_555 1_555
H2_2 C4_2 1_555 1_555
C5_2 C4_2 1_555 1_555
H3_2 C5_2 1_555 1_555
C6_2 C1_2 1_555 1_555
N1_2 C6_2 1_555 1_555
O4_2 C13_2 1_555 1_555
C13_2 C2_2 1_555 1_555
H7_2 C15_2 1_555 1_555
C16_2 C15_2 1_555 1_555
H8_2 C16_2 1_555 1_555
C32_2 C33_2 1_555 1_555
C33_2 C34_2 1_555 1_555
C34_2 H18_2 1_555 1_555
C35_2 C34_2 1_555 1_555
C36_2 C35_2 1_555 1_555
H19_2 C36_2 1_555 1_555
C38_2 C33_2 1_555 1_555
N5_2 N1_2 1_555 1_555
O25 C32_2 1_555 1_555
O26 C32_2 1_555 1_555
C5_2 C6_2 1_555 1_555
O5_2 C13_2 1_555 1_555
C35_2 N5_2 1_555 1_555
H20_2 C37_2 1_555 1_555

#END
