
###############################################################################
#
# This file contains modified crystal structure data generated from the
# MOF subset of the Cambridge Structural Database (CSD) v543 
# hosted by the Cambridge Crystallographic Data Centre (CCDC).
#
# This work is licensed under the Creative Commons
# Attribution-NonCommercial-ShareAlike 4.0 International License.
# To view a copy of this license, visit
# http://creativecommons.org/licenses/by-nc-sa/4.0/
# or send a letter to
# Creative Commons, PO Box 1866, Mountain View, CA 94042, USA.
#
# CIF created using the CSD Python API on 29 September 2022
# The structure has been converted into the P1 space group
# The structure has a 3D framework
# The original CSD entry EQUBOI is in the tetragonal crystal system
# The framework has been calculated to contain at least 10.0% void space
# The void calculation uses a probe of radius 1.32A, grid spacing 0.4
# H atom positions have been added when not included in the experimental data
#
###############################################################################

data_EQUBOI
_chemical_formula_moiety         '(C56 H60 Eu8 O48 S8)n'
_symmetry_cell_setting           triclinic
_symmetry_space_group_name_H-M   'P 1'
_symmetry_Int_Tables_number      1
_space_group_name_Hall           'P 1'
loop_
_symmetry_equiv_pos_site_id
_symmetry_equiv_pos_as_xyz
1 x,y,z
_cell_length_a                   17.2009(2)
_cell_length_b                   17.2009(2)
_cell_length_c                   8.5389(2)
_cell_angle_alpha                90
_cell_angle_beta                 90
_cell_angle_gamma                90
_cell_volume                     2526.41
loop_
_atom_site_label
_atom_site_type_symbol
_atom_site_fract_x
_atom_site_fract_y
_atom_site_fract_z
Eu10 Eu 0.110610(7) 0.036960(7) 0.15047(2)
O10 O 0.07563(13) 0.10369(13) 0.3876(3)
O14 O 0.14928(16) 0.15847(14) 0.0430(3)
O18 O 0.07366(12) 0.02580(12) 0.8786(3)
O23 O 0.23696(15) 0.07890(16) 0.2676(3)
H12 H 0.109(3) 0.040(4) 0.799(6)
H17 H 0.275(3) 0.114(3) 0.241(6)
H18 H 0.231(4) 0.079(3) 0.378(3)
H19 H 0.0266785 0.0585782 0.864211
O19 O 0.02580(12) 0.92634(12) 0.1214(3)
H13 H 0.040(4) 0.891(3) 0.201(6)
Eu1 Eu 0.036960(7) 0.889390(7) 0.84953(2)
O7 O 0.07890(16) 0.76304(15) 0.7324(3)
H6 H 0.114(3) 0.725(3) 0.759(6)
H7 H 0.079(3) 0.769(4) 0.622(3)
C8 C 0.23851(18) 0.87095(17) 0.5414(4)
C9 C 0.27430(19) 0.80093(17) 0.5030(4)
H8 H 0.2480 0.7638 0.4440
C10 C 0.3495(2) 0.78730(18) 0.5537(4)
C11 C 0.3901(2) 0.71313(19) 0.5097(4)
C12 C 0.3879(2) 0.8421(2) 0.6424(5)
H9 H 0.4383 0.8326 0.6765
C13 C 0.3515(2) 0.9113(2) 0.6810(6)
H10 H 0.3772 0.9478 0.7423
C14 C 0.2767(2) 0.92633(19) 0.6284(5)
H11 H 0.2526 0.9733 0.6517
Eu8 Eu 0.389390(7) 0.536960(7) 0.34953(2)
Eu9 Eu 0.536960(7) 0.610610(7) 0.65047(2)
O8 O 0.15149(13) 0.94929(13) 0.3534(3)
O9 O 0.10369(13) 0.92437(13) 0.6124(3)
O11 O 0.10865(14) 0.82046(14) 0.4191(3)
O12 O 0.35072(16) 0.65847(14) 0.4570(3)
O13 O 0.15847(14) 0.85072(16) 0.9570(3)
O15 O 0.46328(15) 0.71065(14) 0.5305(3)
O17 O 0.21065(14) 0.96328(15) 0.0305(3)
S2 S 0.14323(4) 0.89171(4) 0.47619(9)
Eu6 Eu 0.963040(7) 0.110610(7) 0.84953(2)
O21 O 0.97420(12) 0.07366(12) 0.1214(3)
H15 H 0.960(4) 0.109(3) 0.201(6)
Eu7 Eu 0.889390(7) 0.963040(7) 0.15047(2)
C1 C 0.87095(17) 0.76149(18) 0.4586(4)
C2 C 0.80093(17) 0.72570(19) 0.4970(4)
H1 H 0.7638 0.7520 0.5560
C3 C 0.78730(18) 0.6505(2) 0.4463(4)
C4 C 0.71313(19) 0.6099(2) 0.4903(4)
C5 C 0.8421(2) 0.6121(2) 0.3576(5)
H2 H 0.8326 0.5617 0.3235
C6 C 0.9113(2) 0.6485(2) 0.3190(6)
H3 H 0.9478 0.6228 0.2577
C7 C 0.92633(19) 0.7233(2) 0.3716(5)
H4 H 0.9733 0.7474 0.3483
O1 O 0.94929(13) 0.84851(13) 0.6466(3)
O2 O 0.92437(13) 0.89631(13) 0.3876(3)
O3 O 0.82046(14) 0.89135(14) 0.5809(3)
O4 O 0.65847(14) 0.64928(16) 0.5430(3)
O5 O 0.71065(14) 0.53672(15) 0.4695(3)
O6 O 0.92634(12) 0.97420(12) 0.8786(3)
S1 S 0.89171(4) 0.85677(4) 0.52381(9)
H5 H 0.891(3) 0.960(4) 0.799(6)
Eu5 Eu 0.610610(7) 0.463040(7) 0.34953(2)
O16 O 0.96328(15) 0.78935(14) 0.9695(3)
C1_2 C 0.12905(17) 0.23851(18) 0.4586(4)
C2_2 C 0.19907(17) 0.27430(19) 0.4970(4)
H1_2 H 0.2362 0.2480 0.5560
C3_2 C 0.21270(18) 0.3495(2) 0.4463(4)
C4_2 C 0.28687(19) 0.3901(2) 0.4903(4)
C5_2 C 0.1579(2) 0.3879(2) 0.3576(5)
H2_2 H 0.1674 0.4383 0.3235
C6_2 C 0.0887(2) 0.3515(2) 0.3190(6)
H3_2 H 0.0522 0.3772 0.2577
C7_2 C 0.07367(19) 0.2767(2) 0.3716(5)
H4_2 H 0.0267 0.2526 0.3483
O1_2 O 0.05071(13) 0.15149(13) 0.6466(3)
O3_2 O 0.17954(14) 0.10865(14) 0.5809(3)
O4_2 O 0.34153(14) 0.35072(16) 0.5430(3)
O5_2 O 0.28935(14) 0.46328(15) 0.4695(3)
S1_2 S 0.10829(4) 0.14323(4) 0.52381(9)
Eu4 Eu 0.463040(7) 0.389390(7) 0.65047(2)
O16_2 O 0.03672(15) 0.21065(14) 0.9695(3)
O7_2 O 0.92110(16) 0.23696(15) 0.7324(3)
H6_2 H 0.886(3) 0.275(3) 0.759(6)
H7_2 H 0.921(3) 0.231(4) 0.622(3)
C8_2 C 0.76149(18) 0.12905(17) 0.5414(4)
C9_2 C 0.72570(19) 0.19907(17) 0.5030(4)
H8_2 H 0.7520 0.2362 0.4440
C10_2 C 0.6505(2) 0.21270(18) 0.5537(4)
C11_2 C 0.6099(2) 0.28687(19) 0.5097(4)
C12_2 C 0.6121(2) 0.1579(2) 0.6424(5)
H9_2 H 0.5617 0.1674 0.6765
C13_2 C 0.6485(2) 0.0887(2) 0.6810(6)
H10_2 H 0.6228 0.0522 0.7423
C14_2 C 0.7233(2) 0.07367(19) 0.6284(5)
H11_2 H 0.7474 0.0267 0.6517
O8_2 O 0.84851(13) 0.05071(13) 0.3534(3)
O9_2 O 0.89631(13) 0.07563(13) 0.6124(3)
O11_2 O 0.89135(14) 0.17954(14) 0.4191(3)
O12_2 O 0.64928(16) 0.34153(14) 0.4570(3)
O13_2 O 0.84153(14) 0.14928(16) 0.9570(3)
O15_2 O 0.53672(15) 0.28935(14) 0.5305(3)
O17_2 O 0.78935(14) 0.03672(15) 0.0305(3)
S2_2 S 0.85677(4) 0.10829(4) 0.47619(9)
O14_2 O 0.85072(16) 0.84153(14) 0.0430(3)
O23_2 O 0.76304(15) 0.92110(16) 0.2676(3)
H17_2 H 0.725(3) 0.886(3) 0.241(6)
H18_2 H 0.769(4) 0.921(3) 0.378(3)
H19_2 H 0.973322 0.941422 0.864211
H19_3 H 0.0585782 0.973322 0.135789
H19_4 H 0.941422 0.0266785 0.135789
C1_3 C 0.62905(17) 0.26149(18) 0.0414(4)
C2_3 C 0.69907(17) 0.22570(19) 0.0030(4)
C3_3 C 0.71270(18) 0.1505(2) 0.0537(4)
C4_3 C 0.78687(19) 0.1099(2) 0.0097(4)
C5_3 C 0.6579(2) 0.1121(2) 0.1424(5)
H2_3 H 0.6674 0.0617 0.1765
C6_3 C 0.5887(2) 0.1485(2) 0.1810(6)
H3_3 H 0.5522 0.1228 0.2423
C7_3 C 0.57367(19) 0.2233(2) 0.1284(5)
H4_3 H 0.5267 0.2474 0.1517
O2_2 O 0.57563(13) 0.39631(13) 0.1124(3)
H8_3 H 0.2520 0.2638 0.0560
O8_3 O 0.34851(13) 0.44929(13) 0.1466(3)
O10_2 O 0.42437(13) 0.60369(13) 0.1124(3)
O11_3 O 0.39135(14) 0.32046(14) 0.0809(3)
O20 O 0.47420(12) 0.42634(12) 0.3786(3)
O21_2 O 0.52580(12) 0.57366(12) 0.3786(3)
O22 O 0.42634(12) 0.52580(12) 0.6214(3)
O23_3 O 0.26304(15) 0.57890(16) 0.2324(3)
S2_3 S 0.35677(4) 0.39171(4) 0.02381(9)
H14 H 0.460(4) 0.391(3) 0.299(6)
H15_2 H 0.540(4) 0.609(3) 0.299(6)
H16 H 0.391(3) 0.540(4) 0.701(6)
H17_3 H 0.225(3) 0.614(3) 0.259(6)
H18_3 H 0.269(4) 0.579(3) 0.122(3)
H19_5 H 0.473322 0.558578 0.635789
H1_3 H 0.7362 0.2520 0.9440
O1_3 O 0.55071(13) 0.34851(13) 0.8534(3)
O3_3 O 0.67954(14) 0.39135(14) 0.9191(3)
O6_2 O 0.57366(12) 0.47420(12) 0.6214(3)
O7_3 O 0.42110(16) 0.26304(15) 0.7676(3)
S1_3 S 0.60829(4) 0.35677(4) 0.97619(9)
H5_2 H 0.609(3) 0.460(4) 0.701(6)
H6_3 H 0.386(3) 0.225(3) 0.741(6)
H7_3 H 0.421(3) 0.269(4) 0.878(3)
C8_3 C 0.26149(18) 0.37095(17) 0.9586(4)
C9_3 C 0.22570(19) 0.30093(17) 0.9970(4)
C10_3 C 0.1505(2) 0.28730(18) 0.9463(4)
C11_3 C 0.1099(2) 0.21313(19) 0.9903(4)
C12_3 C 0.1121(2) 0.3421(2) 0.8576(5)
H9_3 H 0.0617 0.3326 0.8235
C13_3 C 0.1485(2) 0.4113(2) 0.8190(6)
H10_3 H 0.1228 0.4478 0.7577
C14_3 C 0.2233(2) 0.42633(19) 0.8716(5)
H11_3 H 0.2474 0.4733 0.8483
O9_3 O 0.39631(13) 0.42437(13) 0.8876(3)
C1_4 C 0.37095(17) 0.73851(18) 0.0414(4)
C2_4 C 0.30093(17) 0.77430(19) 0.0030(4)
C3_4 C 0.28730(18) 0.8495(2) 0.0537(4)
C4_4 C 0.21313(19) 0.8901(2) 0.0097(4)
C5_4 C 0.3421(2) 0.8879(2) 0.1424(5)
H2_4 H 0.3326 0.9383 0.1765
C6_4 C 0.4113(2) 0.8515(2) 0.1810(6)
H3_4 H 0.4478 0.8772 0.2423
C7_4 C 0.42633(19) 0.7767(2) 0.1284(5)
H4_4 H 0.4733 0.7526 0.1517
H8_4 H 0.7480 0.7362 0.0560
O8_4 O 0.65149(13) 0.55071(13) 0.1466(3)
O11_4 O 0.60865(14) 0.67954(14) 0.0809(3)
O23_4 O 0.73696(15) 0.42110(16) 0.2324(3)
S2_4 S 0.64323(4) 0.60829(4) 0.02381(9)
H17_4 H 0.775(3) 0.386(3) 0.259(6)
H18_4 H 0.731(4) 0.421(3) 0.122(3)
H19_6 H 0.526678 0.441422 0.635789
H1_4 H 0.2638 0.7480 0.9440
O1_4 O 0.44929(13) 0.65149(13) 0.8534(3)
O3_4 O 0.32046(14) 0.60865(14) 0.9191(3)
O7_4 O 0.57890(16) 0.73696(15) 0.7676(3)
S1_4 S 0.39171(4) 0.64323(4) 0.97619(9)
H6_4 H 0.614(3) 0.775(3) 0.741(6)
H7_4 H 0.579(3) 0.731(4) 0.878(3)
C8_4 C 0.73851(18) 0.62905(17) 0.9586(4)
C9_4 C 0.77430(19) 0.69907(17) 0.9970(4)
C10_4 C 0.8495(2) 0.71270(18) 0.9463(4)
C11_4 C 0.8901(2) 0.78687(19) 0.9903(4)
C12_4 C 0.8879(2) 0.6579(2) 0.8576(5)
H9_4 H 0.9383 0.6674 0.8235
C13_4 C 0.8515(2) 0.5887(2) 0.8190(6)
H10_4 H 0.8772 0.5522 0.7577
C14_4 C 0.7767(2) 0.57367(19) 0.8716(5)
H11_4 H 0.7526 0.5267 0.8483
O9_4 O 0.60369(13) 0.57563(13) 0.8876(3)
H19_7 H 0.441422 0.473322 0.364211
H19_8 H 0.558578 0.526678 0.364211
loop_
_geom_bond_atom_site_label_1
_geom_bond_atom_site_label_2
_geom_bond_site_symmetry_1
_geom_bond_site_symmetry_2
O10 Eu10 1_555 1_555
O14 Eu10 1_555 1_555
O23 Eu10 1_555 1_555
H12 O18 1_555 1_555
H17 O23 1_555 1_555
H18 O23 1_555 1_555
O18 H19 1_555 1_555
H13 O19 1_555 1_555
O7 Eu1 1_555 1_555
H6 O7 1_555 1_555
H7 O7 1_555 1_555
C8 C9 1_555 1_555
C9 H8 1_555 1_555
C10 C9 1_555 1_555
C11 C10 1_555 1_555
C12 C10 1_555 1_555
H9 C12 1_555 1_555
C13 C12 1_555 1_555
H10 C13 1_555 1_555
C14 C8 1_555 1_555
H11 C14 1_555 1_555
Eu8 O12 1_555 1_555
Eu9 O15 1_555 1_555
O8 S2 1_555 1_555
O9 Eu1 1_555 1_555
O11 S2 1_555 1_555
O12 C11 1_555 1_555
O13 Eu1 1_555 1_555
O15 C11 1_555 1_555
S2 C8 1_555 1_555
C13 C14 1_555 1_555
O9 S2 1_555 1_555
H15 O21 1_555 1_555
C1 C2 1_555 1_555
C2 H1 1_555 1_555
C3 C2 1_555 1_555
C4 C3 1_555 1_555
C5 C3 1_555 1_555
H2 C5 1_555 1_555
C6 C5 1_555 1_555
H3 C6 1_555 1_555
C7 C1 1_555 1_555
H4 C7 1_555 1_555
O1 S1 1_555 1_555
O2 S1 1_555 1_555
O3 S1 1_555 1_555
O4 C4 1_555 1_555
O5 C4 1_555 1_555
S1 C1 1_555 1_555
H5 O6 1_555 1_555
Eu7 O2 1_555 1_555
Eu9 O4 1_555 1_555
Eu5 O5 1_555 1_555
C6 C7 1_555 1_555
C1_2 C2_2 1_555 1_555
C2_2 H1_2 1_555 1_555
C3_2 C2_2 1_555 1_555
C4_2 C3_2 1_555 1_555
C5_2 C3_2 1_555 1_555
H2_2 C5_2 1_555 1_555
C6_2 C5_2 1_555 1_555
H3_2 C6_2 1_555 1_555
C7_2 C1_2 1_555 1_555
H4_2 C7_2 1_555 1_555
O1_2 S1_2 1_555 1_555
O10 S1_2 1_555 1_555
O3_2 S1_2 1_555 1_555
O4_2 C4_2 1_555 1_555
O5_2 C4_2 1_555 1_555
S1_2 C1_2 1_555 1_555
Eu4 O4_2 1_555 1_555
Eu8 O5_2 1_555 1_555
C6_2 C7_2 1_555 1_555
O7_2 Eu6 1_555 1_555
H6_2 O7_2 1_555 1_555
H7_2 O7_2 1_555 1_555
C8_2 C9_2 1_555 1_555
C9_2 H8_2 1_555 1_555
C10_2 C9_2 1_555 1_555
C11_2 C10_2 1_555 1_555
C12_2 C10_2 1_555 1_555
H9_2 C12_2 1_555 1_555
C13_2 C12_2 1_555 1_555
H10_2 C13_2 1_555 1_555
C14_2 C8_2 1_555 1_555
H11_2 C14_2 1_555 1_555
Eu5 O12_2 1_555 1_555
Eu4 O15_2 1_555 1_555
O8_2 S2_2 1_555 1_555
O9_2 Eu6 1_555 1_555
O11_2 S2_2 1_555 1_555
O12_2 C11_2 1_555 1_555
O13_2 Eu6 1_555 1_555
O15_2 C11_2 1_555 1_555
S2_2 C8_2 1_555 1_555
C13_2 C14_2 1_555 1_555
O9_2 S2_2 1_555 1_555
O14_2 Eu7 1_555 1_555
O23_2 Eu7 1_555 1_555
H17_2 O23_2 1_555 1_555
H18_2 O23_2 1_555 1_555
O6 H19_2 1_555 1_555
O19 H19_3 1_555 1_555
O21 H19_4 1_555 1_555
C1_3 C2_3 1_555 1_555
C3_3 C2_3 1_555 1_555
C4_3 C3_3 1_555 1_555
C5_3 C3_3 1_555 1_555
H2_3 C5_3 1_555 1_555
C6_3 C5_3 1_555 1_555
H3_3 C6_3 1_555 1_555
C7_3 C1_3 1_555 1_555
H4_3 C7_3 1_555 1_555
O17_2 C4_3 1_555 1_555
Eu8 O8_3 1_555 1_555
Eu5 O2_2 1_555 1_555
O8_3 S2_3 1_555 1_555
O10_2 Eu8 1_555 1_555
O11_3 S2_3 1_555 1_555
O20 Eu8 1_555 1_555
O21_2 Eu8 1_555 1_555
O22 Eu8 1_555 1_555
O23_3 Eu8 1_555 1_555
H14 O20 1_555 1_555
H15_2 O21_2 1_555 1_555
H16 O22 1_555 1_555
H17_3 O23_3 1_555 1_555
H18_3 O23_3 1_555 1_555
C6_3 C7_3 1_555 1_555
Eu5 O20 1_555 1_555
Eu5 O21_2 1_555 1_555
O22 H19_5 1_555 1_555
Eu4 O1_3 1_555 1_555
O1_3 S1_3 1_555 1_555
O3_3 S1_3 1_555 1_555
O6_2 Eu4 1_555 1_555
O7_3 Eu4 1_555 1_555
H5_2 O6_2 1_555 1_555
H6_3 O7_3 1_555 1_555
H7_3 O7_3 1_555 1_555
C8_3 C9_3 1_555 1_555
C10_3 C9_3 1_555 1_555
C11_3 C10_3 1_555 1_555
C12_3 C10_3 1_555 1_555
H9_3 C12_3 1_555 1_555
C13_3 C12_3 1_555 1_555
H10_3 C13_3 1_555 1_555
C14_3 C8_3 1_555 1_555
H11_3 C14_3 1_555 1_555
Eu9 O6_2 1_555 1_555
Eu5 O6_2 1_555 1_555
O9_3 Eu4 1_555 1_555
O16_2 C11_3 1_555 1_555
O22 Eu4 1_555 1_555
O20 Eu4 1_555 1_555
C13_3 C14_3 1_555 1_555
Eu9 O22 1_555 1_555
C1_4 C2_4 1_555 1_555
C3_4 C2_4 1_555 1_555
C4_4 C3_4 1_555 1_555
C5_4 C3_4 1_555 1_555
H2_4 C5_4 1_555 1_555
C6_4 C5_4 1_555 1_555
H3_4 C6_4 1_555 1_555
C7_4 C1_4 1_555 1_555
H4_4 C7_4 1_555 1_555
O17 C4_4 1_555 1_555
Eu5 O8_4 1_555 1_555
O8_4 S2_4 1_555 1_555
O11_4 S2_4 1_555 1_555
O23_4 Eu5 1_555 1_555
H17_4 O23_4 1_555 1_555
H18_4 O23_4 1_555 1_555
C6_4 C7_4 1_555 1_555
O6_2 H19_6 1_555 1_555
Eu9 O1_4 1_555 1_555
O1_4 S1_4 1_555 1_555
O3_4 S1_4 1_555 1_555
O7_4 Eu9 1_555 1_555
H6_4 O7_4 1_555 1_555
H7_4 O7_4 1_555 1_555
C8_4 C9_4 1_555 1_555
C10_4 C9_4 1_555 1_555
C11_4 C10_4 1_555 1_555
C12_4 C10_4 1_555 1_555
H9_4 C12_4 1_555 1_555
C13_4 C12_4 1_555 1_555
H10_4 C13_4 1_555 1_555
C14_4 C8_4 1_555 1_555
H11_4 C14_4 1_555 1_555
O9_4 Eu9 1_555 1_555
O16 C11_4 1_555 1_555
O21_2 Eu9 1_555 1_555
C13_4 C14_4 1_555 1_555
O20 H19_7 1_555 1_555
O21_2 H19_8 1_555 1_555

#END
