
###############################################################################
#
# This file contains modified crystal structure data generated from the
# MOF subset of the Cambridge Structural Database (CSD) v543 
# hosted by the Cambridge Crystallographic Data Centre (CCDC).
#
# This work is licensed under the Creative Commons
# Attribution-NonCommercial-ShareAlike 4.0 International License.
# To view a copy of this license, visit
# http://creativecommons.org/licenses/by-nc-sa/4.0/
# or send a letter to
# Creative Commons, PO Box 1866, Mountain View, CA 94042, USA.
#
# CIF created using the CSD Python API on 29 September 2022
# The structure has been converted into the P1 space group
# The structure has a 3D framework
# The original CSD entry EQUBIC is in the tetragonal crystal system
# The framework has been calculated to contain at least 10.0% void space
# The void calculation uses a probe of radius 1.32A, grid spacing 0.4
#
###############################################################################

data_EQUBIC
_chemical_formula_moiety         '(C56 H53 O49 S8 Tb8)n'
_symmetry_cell_setting           triclinic
_symmetry_space_group_name_H-M   'P 1'
_symmetry_Int_Tables_number      1
_space_group_name_Hall           'P 1'
loop_
_symmetry_equiv_pos_site_id
_symmetry_equiv_pos_as_xyz
1 x,y,z
_cell_length_a                   17.1205(7)
_cell_length_b                   17.1205(7)
_cell_length_c                   8.4672(6)
_cell_angle_alpha                90
_cell_angle_beta                 90
_cell_angle_gamma                90
_cell_volume                     2481.83
loop_
_atom_site_label
_atom_site_type_symbol
_atom_site_fract_x
_atom_site_fract_y
_atom_site_fract_z
C1 C 0.2588(3) 0.3730(3) 0.0377(8)
C2 C 0.2237(3) 0.3020(3) 0.0021(7)
C3 C 0.1474(4) 0.2882(3) 0.0493(8)
C4 C 0.1079(4) 0.2136(4) 0.0081(7)
C5 C 0.1094(4) 0.3443(4) 0.1376(10)
H2 H 0.0586 0.3351 0.1721
C6 C 0.1460(4) 0.4143(4) 0.1757(10)
H3 H 0.1202 0.4512 0.2372
C7 C 0.2196(4) 0.4289(4) 0.1230(9)
H4 H 0.2434 0.4765 0.1446
O2 O 0.3952(2) 0.4247(2) 0.1157(5)
O5 O 0.0339(3) 0.2108(2) 0.0307(5)
Tb3 Tb 0.462670(14) 0.390180(14) 0.35020(4)
O12 O 0.0725(2) 0.0259(2) 0.1208(5)
H9 H 0.096(6) 0.034(6) 0.220(6)
H1 H 0.2513 0.2640 0.9469
Tb1 Tb 0.109820(14) 0.037330(14) 0.85020(4)
O1 O 0.3491(2) 0.4506(2) 0.8530(6)
O3 O 0.3904(3) 0.3205(2) 0.9181(5)
O4 O 0.1482(3) 0.1587(3) 0.9562(6)
O7 O 0.2362(3) 0.0794(3) 0.7343(6)
S1 S 0.35614(8) 0.39234(9) 0.97636(17)
H6 H 0.273(4) 0.115(4) 0.774(10)
H7 H 0.246(6) 0.075(6) 0.624(3)
Tb2 Tb 0.390180(14) 0.537330(14) 0.64980(4)
O9 O 0.0753(2) 0.1048(2) 0.6157(5)
Tb6 Tb 0.037330(14) 0.890180(14) 0.14980(4)
O6 O 0.0259(2) 0.9275(2) 0.8792(5)
H5 H 0.034(6) 0.904(6) 0.780(6)
O8 O 0.1509(2) 0.9506(2) 0.6470(6)
O10 O 0.2108(2) 0.9661(3) 0.9693(5)
Tb4 Tb 0.962670(14) 0.109820(14) 0.14980(4)
O11 O 0.9741(2) 0.0725(2) 0.8792(5)
H8 H 0.966(6) 0.096(6) 0.780(6)
Tb5 Tb 0.890180(14) 0.962670(14) 0.85020(4)
O8_2 O 0.8491(2) 0.0494(2) 0.6470(6)
O10_2 O 0.7892(2) 0.0339(3) 0.9693(5)
C1_2 C 0.7412(3) 0.6270(3) 0.0377(8)
C2_2 C 0.7763(3) 0.6980(3) 0.0021(7)
C3_2 C 0.8526(4) 0.7118(3) 0.0493(8)
C4_2 C 0.8921(4) 0.7864(4) 0.0081(7)
C5_2 C 0.8906(4) 0.6557(4) 0.1376(10)
H2_2 H 0.9414 0.6649 0.1721
C6_2 C 0.8540(4) 0.5857(4) 0.1757(10)
H3_2 H 0.8798 0.5488 0.2372
C7_2 C 0.7804(4) 0.5711(4) 0.1230(9)
H4_2 H 0.7566 0.5235 0.1446
O2_2 O 0.6048(2) 0.5753(2) 0.1157(5)
O5_2 O 0.9661(3) 0.7892(2) 0.0307(5)
Tb3_2 Tb 0.537330(14) 0.609820(14) 0.35020(4)
O12_2 O 0.9275(2) 0.9741(2) 0.1208(5)
H9_2 H 0.904(6) 0.966(6) 0.220(6)
H1_2 H 0.7487 0.7360 0.9469
O1_2 O 0.6509(2) 0.5494(2) 0.8530(6)
O3_2 O 0.6096(3) 0.6795(2) 0.9181(5)
O4_2 O 0.8518(3) 0.8413(3) 0.9562(6)
O7_2 O 0.7638(3) 0.9206(3) 0.7343(6)
S1_2 S 0.64386(8) 0.60766(9) 0.97636(17)
H6_2 H 0.727(4) 0.885(4) 0.774(10)
H7_2 H 0.754(6) 0.925(6) 0.624(3)
Tb2_2 Tb 0.609820(14) 0.462670(14) 0.64980(4)
O9_2 O 0.9247(2) 0.8952(2) 0.6157(5)
H1_3 H 0.2640 0.7487 0.0531
O1_3 O 0.4506(2) 0.6509(2) 0.1470(6)
O3_3 O 0.3205(2) 0.6096(3) 0.0819(5)
O4_3 O 0.1587(3) 0.8518(3) 0.0438(6)
O7_3 O 0.0794(3) 0.7638(3) 0.2657(6)
S1_3 S 0.39234(9) 0.64386(8) 0.02364(17)
H6_3 H 0.115(4) 0.727(4) 0.226(10)
H7_3 H 0.075(6) 0.754(6) 0.376(3)
O9_3 O 0.1048(2) 0.9247(2) 0.3843(5)
C1_3 C 0.3730(3) 0.7412(3) 0.9623(8)
C2_3 C 0.3020(3) 0.7763(3) 0.9979(7)
C3_3 C 0.2882(3) 0.8526(4) 0.9507(8)
C4_3 C 0.2136(4) 0.8921(4) 0.9919(7)
C5_3 C 0.3443(4) 0.8906(4) 0.8624(10)
H2_3 H 0.3351 0.9414 0.8279
C6_3 C 0.4143(4) 0.8540(4) 0.8243(10)
H3_3 H 0.4512 0.8798 0.7628
C7_3 C 0.4289(4) 0.7804(4) 0.8770(9)
H4_3 H 0.4765 0.7566 0.8554
O2_3 O 0.4247(2) 0.6048(2) 0.8843(5)
O8_3 O 0.9506(2) 0.8491(2) 0.3530(6)
O8_4 O 0.0494(2) 0.1509(2) 0.3530(6)
H1_4 H 0.7360 0.2513 0.0531
O1_4 O 0.5494(2) 0.3491(2) 0.1470(6)
O3_4 O 0.6795(2) 0.3904(3) 0.0819(5)
O4_4 O 0.8413(3) 0.1482(3) 0.0438(6)
O7_4 O 0.9206(3) 0.2362(3) 0.2657(6)
S1_4 S 0.60766(9) 0.35614(8) 0.02364(17)
H6_4 H 0.885(4) 0.273(4) 0.226(10)
H7_4 H 0.925(6) 0.246(6) 0.376(3)
O9_4 O 0.8952(2) 0.0753(2) 0.3843(5)
C1_4 C 0.6270(3) 0.2588(3) 0.9623(8)
C2_4 C 0.6980(3) 0.2237(3) 0.9979(7)
C3_4 C 0.7118(3) 0.1474(4) 0.9507(8)
C4_4 C 0.7864(4) 0.1079(4) 0.9919(7)
C5_4 C 0.6557(4) 0.1094(4) 0.8624(10)
H2_4 H 0.6649 0.0586 0.8279
C6_4 C 0.5857(4) 0.1460(4) 0.8243(10)
H3_4 H 0.5488 0.1202 0.7628
C7_4 C 0.5711(4) 0.2196(4) 0.8770(9)
H4_4 H 0.5235 0.2434 0.8554
O2_4 O 0.5753(2) 0.3952(2) 0.8843(5)
C1_5 C 0.2412(3) 0.8730(3) 0.4623(8)
C2_5 C 0.2763(3) 0.8020(3) 0.4979(7)
H1_5 H 0.2487 0.7640 0.5531
C3_5 C 0.3526(4) 0.7882(3) 0.4507(8)
C4_5 C 0.3921(4) 0.7136(4) 0.4919(7)
C5_5 C 0.3906(4) 0.8443(4) 0.3624(10)
H2_5 H 0.4414 0.8351 0.3279
C6_5 C 0.3540(4) 0.9143(4) 0.3243(10)
H3_5 H 0.3798 0.9512 0.2628
C7_5 C 0.2804(4) 0.9289(4) 0.3770(9)
H4_5 H 0.2566 0.9765 0.3554
O3_5 O 0.1096(3) 0.8205(2) 0.5819(5)
O4_5 O 0.3518(3) 0.6587(3) 0.5438(6)
O5_3 O 0.4661(3) 0.7108(2) 0.4693(5)
O6_2 O 0.4741(2) 0.4275(2) 0.6208(5)
O7_5 O 0.2638(3) 0.5794(3) 0.7657(6)
S1_5 S 0.14386(8) 0.89234(9) 0.52364(17)
H5_2 H 0.466(6) 0.404(6) 0.720(6)
H6_5 H 0.227(4) 0.615(4) 0.726(10)
H7_5 H 0.254(6) 0.575(6) 0.876(3)
O10_3 O 0.2892(2) 0.4661(3) 0.5307(5)
O11_2 O 0.5259(2) 0.5725(2) 0.6208(5)
O12_3 O 0.4275(2) 0.5259(2) 0.3792(5)
H8_2 H 0.534(6) 0.596(6) 0.720(6)
H9_3 H 0.404(6) 0.534(6) 0.280(6)
C1_6 C 0.7588(3) 0.1270(3) 0.4623(8)
C2_6 C 0.7237(3) 0.1980(3) 0.4979(7)
H1_6 H 0.7513 0.2360 0.5531
C3_6 C 0.6474(4) 0.2118(3) 0.4507(8)
C4_6 C 0.6079(4) 0.2864(4) 0.4919(7)
C5_6 C 0.6094(4) 0.1557(4) 0.3624(10)
H2_6 H 0.5586 0.1649 0.3279
C6_6 C 0.6460(4) 0.0857(4) 0.3243(10)
H3_6 H 0.6202 0.0488 0.2628
C7_6 C 0.7196(4) 0.0711(4) 0.3770(9)
H4_6 H 0.7434 0.0235 0.3554
O3_6 O 0.8904(3) 0.1795(2) 0.5819(5)
O4_6 O 0.6482(3) 0.3413(3) 0.5438(6)
O5_4 O 0.5339(3) 0.2892(2) 0.4693(5)
O7_6 O 0.7362(3) 0.4206(3) 0.7657(6)
S1_6 S 0.85614(8) 0.10766(9) 0.52364(17)
H6_6 H 0.773(4) 0.385(4) 0.726(10)
H7_6 H 0.746(6) 0.425(6) 0.876(3)
O10_4 O 0.7108(2) 0.5339(3) 0.5307(5)
O12_4 O 0.5725(2) 0.4741(2) 0.3792(5)
H9_4 H 0.596(6) 0.466(6) 0.280(6)
C1_7 C 0.1270(3) 0.2412(3) 0.5377(8)
C2_7 C 0.1980(3) 0.2763(3) 0.5021(7)
H1_7 H 0.2360 0.2487 0.4469
C3_7 C 0.2118(3) 0.3526(4) 0.5493(8)
C4_7 C 0.2864(4) 0.3921(4) 0.5081(7)
C5_7 C 0.1557(4) 0.3906(4) 0.6376(10)
H2_7 H 0.1649 0.4414 0.6721
C6_7 C 0.0857(4) 0.3540(4) 0.6757(10)
H3_7 H 0.0488 0.3798 0.7372
C7_7 C 0.0711(4) 0.2804(4) 0.6230(9)
H4_7 H 0.0235 0.2566 0.6446
O3_7 O 0.1795(2) 0.1096(3) 0.4181(5)
O4_7 O 0.3413(3) 0.3518(3) 0.4562(6)
O7_7 O 0.4206(3) 0.2638(3) 0.2343(6)
S1_7 S 0.10766(9) 0.14386(8) 0.47636(17)
H6_7 H 0.385(4) 0.227(4) 0.274(10)
H7_7 H 0.425(6) 0.254(6) 0.124(3)
C1_8 C 0.8730(3) 0.7588(3) 0.5377(8)
C2_8 C 0.8020(3) 0.7237(3) 0.5021(7)
H1_8 H 0.7640 0.7513 0.4469
C3_8 C 0.7882(3) 0.6474(4) 0.5493(8)
C4_8 C 0.7136(4) 0.6079(4) 0.5081(7)
C5_8 C 0.8443(4) 0.6094(4) 0.6376(10)
H2_8 H 0.8351 0.5586 0.6721
C6_8 C 0.9143(4) 0.6460(4) 0.6757(10)
H3_8 H 0.9512 0.6202 0.7372
C7_8 C 0.9289(4) 0.7196(4) 0.6230(9)
H4_8 H 0.9765 0.7434 0.6446
O3_8 O 0.8205(2) 0.8904(3) 0.4181(5)
O4_8 O 0.6587(3) 0.6482(3) 0.4562(6)
O7_8 O 0.5794(3) 0.7362(3) 0.2343(6)
S1_8 S 0.89234(9) 0.85614(8) 0.47636(17)
H6_8 H 0.615(4) 0.773(4) 0.274(10)
H7_8 H 0.575(6) 0.746(6) 0.124(3)
loop_
_geom_bond_atom_site_label_1
_geom_bond_atom_site_label_2
_geom_bond_site_symmetry_1
_geom_bond_site_symmetry_2
C1 C2 1_555 1_555
C3 C2 1_555 1_555
C4 C3 1_555 1_555
C5 C3 1_555 1_555
H2 C5 1_555 1_555
C6 C5 1_555 1_555
H3 C6 1_555 1_555
C7 C1 1_555 1_555
H4 C7 1_555 1_555
O5 C4 1_555 1_555
Tb3 O2 1_555 1_555
H9 O12 1_555 1_555
C6 C7 1_555 1_555
Tb1 O4 1_555 1_555
O1 S1 1_555 1_555
O3 S1 1_555 1_555
O7 Tb1 1_555 1_555
H6 O7 1_555 1_555
H7 O7 1_555 1_555
Tb2 O1 1_555 1_555
O9 Tb1 1_555 1_555
H5 O6 1_555 1_555
H8 O11 1_555 1_555
C1_2 C2_2 1_555 1_555
C3_2 C2_2 1_555 1_555
C4_2 C3_2 1_555 1_555
C5_2 C3_2 1_555 1_555
H2_2 C5_2 1_555 1_555
C6_2 C5_2 1_555 1_555
H3_2 C6_2 1_555 1_555
C7_2 C1_2 1_555 1_555
H4_2 C7_2 1_555 1_555
O5_2 C4_2 1_555 1_555
Tb3_2 O2_2 1_555 1_555
H9_2 O12_2 1_555 1_555
C6_2 C7_2 1_555 1_555
Tb5 O4_2 1_555 1_555
O1_2 S1_2 1_555 1_555
O3_2 S1_2 1_555 1_555
O7_2 Tb5 1_555 1_555
H6_2 O7_2 1_555 1_555
H7_2 O7_2 1_555 1_555
Tb2_2 O1_2 1_555 1_555
O9_2 Tb5 1_555 1_555
Tb6 O4_3 1_555 1_555
O1_3 S1_3 1_555 1_555
O3_3 S1_3 1_555 1_555
O7_3 Tb6 1_555 1_555
H6_3 O7_3 1_555 1_555
H7_3 O7_3 1_555 1_555
Tb3_2 O1_3 1_555 1_555
O9_3 Tb6 1_555 1_555
C1_3 C2_3 1_555 1_555
C3_3 C2_3 1_555 1_555
C4_3 C3_3 1_555 1_555
C5_3 C3_3 1_555 1_555
H2_3 C5_3 1_555 1_555
C6_3 C5_3 1_555 1_555
H3_3 C6_3 1_555 1_555
C7_3 C1_3 1_555 1_555
H4_3 C7_3 1_555 1_555
O10 C4_3 1_555 1_555
Tb2 O2_3 1_555 1_555
C6_3 C7_3 1_555 1_555
Tb4 O4_4 1_555 1_555
O1_4 S1_4 1_555 1_555
O3_4 S1_4 1_555 1_555
O7_4 Tb4 1_555 1_555
H6_4 O7_4 1_555 1_555
H7_4 O7_4 1_555 1_555
Tb3 O1_4 1_555 1_555
O9_4 Tb4 1_555 1_555
C1_4 C2_4 1_555 1_555
C3_4 C2_4 1_555 1_555
C4_4 C3_4 1_555 1_555
C5_4 C3_4 1_555 1_555
H2_4 C5_4 1_555 1_555
C6_4 C5_4 1_555 1_555
H3_4 C6_4 1_555 1_555
C7_4 C1_4 1_555 1_555
H4_4 C7_4 1_555 1_555
O10_2 C4_4 1_555 1_555
Tb2_2 O2_4 1_555 1_555
C6_4 C7_4 1_555 1_555
C1_5 C2_5 1_555 1_555
C2_5 H1_5 1_555 1_555
C3_5 C2_5 1_555 1_555
C4_5 C3_5 1_555 1_555
C5_5 C3_5 1_555 1_555
H2_5 C5_5 1_555 1_555
C6_5 C5_5 1_555 1_555
H3_5 C6_5 1_555 1_555
C7_5 C1_5 1_555 1_555
H4_5 C7_5 1_555 1_555
Tb2 O4_5 1_555 1_555
O8 S1_5 1_555 1_555
O9_3 S1_5 1_555 1_555
O3_5 S1_5 1_555 1_555
O4_5 C4_5 1_555 1_555
O5_3 C4_5 1_555 1_555
O6_2 Tb2 1_555 1_555
O7_5 Tb2 1_555 1_555
S1_5 C1_5 1_555 1_555
H5_2 O6_2 1_555 1_555
H6_5 O7_5 1_555 1_555
H7_5 O7_5 1_555 1_555
Tb3_2 O5_3 1_555 1_555
Tb2_2 O6_2 1_555 1_555
Tb3 O6_2 1_555 1_555
O10_3 Tb2 1_555 1_555
O11_2 Tb2 1_555 1_555
O12_3 Tb2 1_555 1_555
H8_2 O11_2 1_555 1_555
H9_3 O12_3 1_555 1_555
C6_5 C7_5 1_555 1_555
Tb3_2 O11_2 1_555 1_555
Tb3_2 O12_3 1_555 1_555
Tb2_2 O11_2 1_555 1_555
Tb3 O12_3 1_555 1_555
C1_6 C2_6 1_555 1_555
C2_6 H1_6 1_555 1_555
C3_6 C2_6 1_555 1_555
C4_6 C3_6 1_555 1_555
C5_6 C3_6 1_555 1_555
H2_6 C5_6 1_555 1_555
C6_6 C5_6 1_555 1_555
H3_6 C6_6 1_555 1_555
C7_6 C1_6 1_555 1_555
H4_6 C7_6 1_555 1_555
Tb2_2 O4_6 1_555 1_555
O8_2 S1_6 1_555 1_555
O9_4 S1_6 1_555 1_555
O3_6 S1_6 1_555 1_555
O4_6 C4_6 1_555 1_555
O5_4 C4_6 1_555 1_555
O7_6 Tb2_2 1_555 1_555
S1_6 C1_6 1_555 1_555
H6_6 O7_6 1_555 1_555
H7_6 O7_6 1_555 1_555
Tb3 O5_4 1_555 1_555
O10_4 Tb2_2 1_555 1_555
O12_4 Tb2_2 1_555 1_555
H9_4 O12_4 1_555 1_555
C6_6 C7_6 1_555 1_555
Tb3 O12_4 1_555 1_555
Tb3_2 O12_4 1_555 1_555
C1_7 C2_7 1_555 1_555
C2_7 H1_7 1_555 1_555
C3_7 C2_7 1_555 1_555
C4_7 C3_7 1_555 1_555
C5_7 C3_7 1_555 1_555
H2_7 C5_7 1_555 1_555
C6_7 C5_7 1_555 1_555
H3_7 C6_7 1_555 1_555
C7_7 C1_7 1_555 1_555
H4_7 C7_7 1_555 1_555
Tb3 O4_7 1_555 1_555
O8_4 S1_7 1_555 1_555
O9 S1_7 1_555 1_555
O3_7 S1_7 1_555 1_555
O4_7 C4_7 1_555 1_555
O10_3 C4_7 1_555 1_555
O7_7 Tb3 1_555 1_555
S1_7 C1_7 1_555 1_555
H6_7 O7_7 1_555 1_555
H7_7 O7_7 1_555 1_555
C6_7 C7_7 1_555 1_555
C1_8 C2_8 1_555 1_555
C2_8 H1_8 1_555 1_555
C3_8 C2_8 1_555 1_555
C4_8 C3_8 1_555 1_555
C5_8 C3_8 1_555 1_555
H2_8 C5_8 1_555 1_555
C6_8 C5_8 1_555 1_555
H3_8 C6_8 1_555 1_555
C7_8 C1_8 1_555 1_555
H4_8 C7_8 1_555 1_555
Tb3_2 O4_8 1_555 1_555
O8_3 S1_8 1_555 1_555
O9_2 S1_8 1_555 1_555
O3_8 S1_8 1_555 1_555
O4_8 C4_8 1_555 1_555
O10_4 C4_8 1_555 1_555
O7_8 Tb3_2 1_555 1_555
S1_8 C1_8 1_555 1_555
H6_8 O7_8 1_555 1_555
H7_8 O7_8 1_555 1_555
C6_8 C7_8 1_555 1_555

#END
