
###############################################################################
#
# This file contains modified crystal structure data generated from the
# MOF subset of the Cambridge Structural Database (CSD) v543 
# hosted by the Cambridge Crystallographic Data Centre (CCDC).
#
# This work is licensed under the Creative Commons
# Attribution-NonCommercial-ShareAlike 4.0 International License.
# To view a copy of this license, visit
# http://creativecommons.org/licenses/by-nc-sa/4.0/
# or send a letter to
# Creative Commons, PO Box 1866, Mountain View, CA 94042, USA.
#
# CIF created using the CSD Python API on 29 September 2022
# The structure has been converted into the P1 space group
# The structure has a 3D framework
# The original CSD entry EQUMUA is in the tetragonal crystal system
# The framework has been calculated to contain at least 10.0% void space
# The void calculation uses a probe of radius 1.32A, grid spacing 0.4
# The framework is charged, counterions have been retained in the structure
#
###############################################################################

data_EQUMUA
_chemical_formula_moiety         '(C72 H24 In4 O32 2-)n'
_symmetry_cell_setting           triclinic
_symmetry_space_group_name_H-M   'P 1'
_symmetry_Int_Tables_number      1
_space_group_name_Hall           'P 1'
loop_
_symmetry_equiv_pos_site_id
_symmetry_equiv_pos_as_xyz
1 x,y,z
_cell_length_a                   9.9798(2)
_cell_length_b                   9.9798(2)
_cell_length_c                   23.1921(8)
_cell_angle_alpha                90
_cell_angle_beta                 90
_cell_angle_gamma                90
_cell_volume                     2309.85
loop_
_atom_site_label
_atom_site_type_symbol
_atom_site_fract_x
_atom_site_fract_y
_atom_site_fract_z
In2 In 0.0000 0.0000 0.2500
In4 In 0.0000 0.0000 0.7500
O1 O 0.0000 0.2412(10) 0.2603(3)
O2 O 0.0000 0.1426(5) 0.1795(3)
C1 C 0.0000 0.2474(9) 0.2078(5)
C2 C 0.0000 0.5000 0.2072(6)
H1 H 0.0000 0.5000 0.2473
C3 C -0.0000 0.3806(7) 0.1776(4)
C4 C -0.0000 0.3806(8) 0.1178(4)
H2 H 0.0000 0.2994 0.0981
C5 C 0.0000 0.5000 0.0865(6)
C6 C 0.0000 0.5000 0.0264(6)
O3 O 0.0000 0.7588(10) 0.2603(3)
O4 O -0.0000 0.8574(5) 0.1795(3)
C7 C 0.0000 0.7526(9) 0.2078(5)
C8 C -0.0000 0.6194(7) 0.1776(4)
C9 C 0.0000 0.6194(8) 0.1178(4)
H3 H 0.0000 0.7006 0.0981
In2_2 In -0.0000 1.0000 0.2500
O10 O 0.2412(10) -0.0000 0.2397(3)
O13 O 0.1426(5) -0.0000 0.3205(3)
O5 O 0.0000 0.2412(10) 0.7397(3)
O6 O 0.0000 0.1426(5) 0.8205(3)
C10 C 0.0000 0.2474(9) 0.7922(5)
C11 C 0.0000 0.5000 0.7928(6)
H4 H 0.0000 0.5000 0.7527
C12 C 0.0000 0.3806(7) 0.8224(4)
C13 C 0.0000 0.3806(8) 0.8822(4)
H5 H 0.0000 0.2994 0.9019
C14 C 0.0000 0.5000 0.9135(6)
C15 C 0.0000 0.5000 0.9736(6)
O7 O 0.0000 0.7588(10) 0.7397(3)
O8 O 0.0000 0.8574(5) 0.8205(3)
C16 C 0.0000 0.7526(9) 0.7922(5)
C17 C 0.0000 0.6194(7) 0.8224(4)
C18 C 0.0000 0.6194(8) 0.8822(4)
H6 H 0.0000 0.7006 0.9019
In4_2 In -0.0000 1.0000 0.7500
O10_2 O 0.2412(10) 1.0000 0.2397(3)
O13_2 O 0.1426(5) 1.0000 0.3205(3)
In2_3 In 1.0000 0.0000 0.2500
In4_3 In 1.0000 0.0000 0.7500
O1_2 O 1.0000 0.2412(10) 0.2603(3)
O2_2 O 1.0000 0.1426(5) 0.1795(3)
C1_2 C 1.0000 0.2474(9) 0.2078(5)
C2_2 C 1.0000 0.5000 0.2072(6)
H1_2 H 1.0000 0.5000 0.2473
C3_2 C 1.0000 0.3806(7) 0.1776(4)
C4_2 C 1.0000 0.3806(8) 0.1178(4)
H2_2 H 1.0000 0.2994 0.0981
C5_2 C 1.0000 0.5000 0.0865(6)
C6_2 C 1.0000 0.5000 0.0264(6)
O3_2 O 1.0000 0.7588(10) 0.2603(3)
O4_2 O 1.0000 0.8574(5) 0.1795(3)
C7_2 C 1.0000 0.7526(9) 0.2078(5)
C8_2 C 1.0000 0.6194(7) 0.1776(4)
C9_2 C 1.0000 0.6194(8) 0.1178(4)
H3_2 H 1.0000 0.7006 0.0981
In2_4 In 1.0000 1.0000 0.2500
O11 O 0.7588(10) -0.0000 0.2397(3)
O14 O 0.8574(5) -0.0000 0.3205(3)
O5_2 O 1.0000 0.2412(10) 0.7397(3)
O6_2 O 1.0000 0.1426(5) 0.8205(3)
C10_2 C 1.0000 0.2474(9) 0.7922(5)
C11_2 C 1.0000 0.5000 0.7928(6)
H4_2 H 1.0000 0.5000 0.7527
C12_2 C 1.0000 0.3806(7) 0.8224(4)
C13_2 C 1.0000 0.3806(8) 0.8822(4)
H5_2 H 1.0000 0.2994 0.9019
C14_2 C 1.0000 0.5000 0.9135(6)
C15_2 C 1.0000 0.5000 0.9736(6)
O7_2 O 1.0000 0.7588(10) 0.7397(3)
O8_2 O 1.0000 0.8574(5) 0.8205(3)
C16_2 C 1.0000 0.7526(9) 0.7922(5)
C17_2 C 1.0000 0.6194(7) 0.8224(4)
C18_2 C 1.0000 0.6194(8) 0.8822(4)
H6_2 H 1.0000 0.7006 0.9019
In4_4 In 1.0000 1.0000 0.7500
O11_2 O 0.7588(10) 1.0000 0.2397(3)
O14_2 O 0.8574(5) 1.0000 0.3205(3)
O9 O 0.2412(10) -0.0000 0.7603(3)
O12 O 0.1426(5) 0.0000 0.6795(3)
O9_2 O 0.2412(10) 1.0000 0.7603(3)
O12_2 O 0.1426(5) 1.0000 0.6795(3)
O1_3 O 0.7588(10) -0.0000 0.7603(3)
O2_3 O 0.8574(5) 0.0000 0.6795(3)
C1_3 C 0.7526(9) 0.0000 0.7078(5)
C2_3 C 0.5000 0.0000 0.7072(6)
H1_3 H 0.5000 0.0000 0.7473
C3_3 C 0.6194(7) -0.0000 0.6776(4)
C4_3 C 0.6194(8) 0.0000 0.6178(4)
H2_3 H 0.7006 0.0000 0.5981
C5_3 C 0.5000 0.0000 0.5865(6)
C6_3 C 0.5000 0.0000 0.5264(6)
C7_3 C 0.2474(9) 0.0000 0.7078(5)
C8_3 C 0.3806(7) -0.0000 0.6776(4)
C9_3 C 0.3806(8) 0.0000 0.6178(4)
H3_3 H 0.2994 0.0000 0.5981
C10_3 C 0.7526(9) 0.0000 0.2922(5)
C11_3 C 0.5000 -0.0000 0.2928(6)
H4_3 H 0.5000 0.0000 0.2527
C12_3 C 0.6194(7) 0.0000 0.3224(4)
C13_3 C 0.6194(8) 0.0000 0.3822(4)
H5_3 H 0.7006 0.0000 0.4019
C14_3 C 0.5000 0.0000 0.4135(6)
C15_3 C 0.5000 0.0000 0.4736(6)
C16_3 C 0.2474(9) 0.0000 0.2922(5)
C17_3 C 0.3806(7) 0.0000 0.3224(4)
C18_3 C 0.3806(8) 0.0000 0.3822(4)
H6_3 H 0.2994 -0.0000 0.4019
O1_4 O 0.7588(10) 1.0000 0.7603(3)
O2_4 O 0.8574(5) 1.0000 0.6795(3)
C1_4 C 0.7526(9) 1.0000 0.7078(5)
C2_4 C 0.5000 1.0000 0.7072(6)
H1_4 H 0.5000 1.0000 0.7473
C3_4 C 0.6194(7) 1.0000 0.6776(4)
C4_4 C 0.6194(8) 1.0000 0.6178(4)
H2_4 H 0.7006 1.0000 0.5981
C5_4 C 0.5000 1.0000 0.5865(6)
C6_4 C 0.5000 1.0000 0.5264(6)
C7_4 C 0.2474(9) 1.0000 0.7078(5)
C8_4 C 0.3806(7) 1.0000 0.6776(4)
C9_4 C 0.3806(8) 1.0000 0.6178(4)
H3_4 H 0.2994 1.0000 0.5981
C10_4 C 0.7526(9) 1.0000 0.2922(5)
C11_4 C 0.5000 1.0000 0.2928(6)
H4_4 H 0.5000 1.0000 0.2527
C12_4 C 0.6194(7) 1.0000 0.3224(4)
C13_4 C 0.6194(8) 1.0000 0.3822(4)
H5_4 H 0.7006 1.0000 0.4019
C14_4 C 0.5000 1.0000 0.4135(6)
C15_4 C 0.5000 1.0000 0.4736(6)
C16_4 C 0.2474(9) 1.0000 0.2922(5)
C17_4 C 0.3806(7) 1.0000 0.3224(4)
C18_4 C 0.3806(8) 1.0000 0.3822(4)
H6_4 H 0.2994 1.0000 0.4019
loop_
_geom_bond_atom_site_label_1
_geom_bond_atom_site_label_2
_geom_bond_site_symmetry_1
_geom_bond_site_symmetry_2
In2 O1 1_555 1_555
O1 C1 1_555 1_555
O2 In2 1_555 1_555
C1 O2 1_555 1_555
C2 H1 1_555 1_555
C3 C1 1_555 1_555
C4 C3 1_555 1_555
H2 C4 1_555 1_555
C5 C4 1_555 1_555
C6 C5 1_555 1_555
O3 C7 1_555 1_555
O4 C7 1_555 1_555
C7 C8 1_555 1_555
C8 C2 1_555 1_555
C9 C5 1_555 1_555
H3 C9 1_555 1_555
In2_2 O3 1_555 1_555
O10 In2 1_555 1_555
O13 In2 1_555 1_555
C2 C3 1_555 1_555
O4 In2_2 1_555 1_555
C8 C9 1_555 1_555
O5 C10 1_555 1_555
O6 C10 1_555 1_555
C10 C12 1_555 1_555
C11 H4 1_555 1_555
C12 C11 1_555 1_555
C13 C12 1_555 1_555
H5 C13 1_555 1_555
C14 C13 1_555 1_555
O7 C16 1_555 1_555
O8 C16 1_555 1_555
C16 C17 1_555 1_555
C17 C11 1_555 1_555
C18 C14 1_555 1_555
H6 C18 1_555 1_555
In4 O5 1_555 1_555
In4_2 O7 1_555 1_555
O6 In4 1_555 1_555
C14 C15 1_555 1_555
O8 In4_2 1_555 1_555
C17 C18 1_555 1_555
O10_2 In2_2 1_555 1_555
O13_2 In2_2 1_555 1_555
In2_3 O1_2 1_555 1_555
O1_2 C1_2 1_555 1_555
O2_2 In2_3 1_555 1_555
C1_2 O2_2 1_555 1_555
C2_2 H1_2 1_555 1_555
C3_2 C1_2 1_555 1_555
C4_2 C3_2 1_555 1_555
H2_2 C4_2 1_555 1_555
C5_2 C4_2 1_555 1_555
C6_2 C5_2 1_555 1_555
O3_2 C7_2 1_555 1_555
O4_2 C7_2 1_555 1_555
C7_2 C8_2 1_555 1_555
C8_2 C2_2 1_555 1_555
C9_2 C5_2 1_555 1_555
H3_2 C9_2 1_555 1_555
In2_4 O3_2 1_555 1_555
O11 In2_3 1_555 1_555
O14 In2_3 1_555 1_555
C2_2 C3_2 1_555 1_555
O4_2 In2_4 1_555 1_555
C8_2 C9_2 1_555 1_555
O5_2 C10_2 1_555 1_555
O6_2 C10_2 1_555 1_555
C10_2 C12_2 1_555 1_555
C11_2 H4_2 1_555 1_555
C12_2 C11_2 1_555 1_555
C13_2 C12_2 1_555 1_555
H5_2 C13_2 1_555 1_555
C14_2 C13_2 1_555 1_555
O7_2 C16_2 1_555 1_555
O8_2 C16_2 1_555 1_555
C16_2 C17_2 1_555 1_555
C17_2 C11_2 1_555 1_555
C18_2 C14_2 1_555 1_555
H6_2 C18_2 1_555 1_555
In4_3 O5_2 1_555 1_555
In4_4 O7_2 1_555 1_555
O6_2 In4_3 1_555 1_555
C14_2 C15_2 1_555 1_555
O8_2 In4_4 1_555 1_555
C17_2 C18_2 1_555 1_555
O11_2 In2_4 1_555 1_555
O14_2 In2_4 1_555 1_555
O9 In4 1_555 1_555
O12 In4 1_555 1_555
O9_2 In4_2 1_555 1_555
O12_2 In4_2 1_555 1_555
In4_3 O1_3 1_555 1_555
O1_3 C1_3 1_555 1_555
O2_3 In4_3 1_555 1_555
C1_3 O2_3 1_555 1_555
C2_3 H1_3 1_555 1_555
C3_3 C1_3 1_555 1_555
C4_3 C3_3 1_555 1_555
H2_3 C4_3 1_555 1_555
C5_3 C4_3 1_555 1_555
C6_3 C5_3 1_555 1_555
O9 C7_3 1_555 1_555
O12 C7_3 1_555 1_555
C7_3 C8_3 1_555 1_555
C8_3 C2_3 1_555 1_555
C9_3 C5_3 1_555 1_555
H3_3 C9_3 1_555 1_555
O11 C10_3 1_555 1_555
O14 C10_3 1_555 1_555
C10_3 C12_3 1_555 1_555
C11_3 H4_3 1_555 1_555
C12_3 C11_3 1_555 1_555
C13_3 C12_3 1_555 1_555
H5_3 C13_3 1_555 1_555
C14_3 C13_3 1_555 1_555
C15_3 C6_3 1_555 1_555
O10 C16_3 1_555 1_555
O13 C16_3 1_555 1_555
C16_3 C17_3 1_555 1_555
C17_3 C11_3 1_555 1_555
C18_3 C14_3 1_555 1_555
H6_3 C18_3 1_555 1_555
C2_3 C3_3 1_555 1_555
C8_3 C9_3 1_555 1_555
C14_3 C15_3 1_555 1_555
C17_3 C18_3 1_555 1_555
In4_4 O1_4 1_555 1_555
O1_4 C1_4 1_555 1_555
O2_4 In4_4 1_555 1_555
C1_4 O2_4 1_555 1_555
C2_4 H1_4 1_555 1_555
C3_4 C1_4 1_555 1_555
C4_4 C3_4 1_555 1_555
H2_4 C4_4 1_555 1_555
C5_4 C4_4 1_555 1_555
C6_4 C5_4 1_555 1_555
O9_2 C7_4 1_555 1_555
O12_2 C7_4 1_555 1_555
C7_4 C8_4 1_555 1_555
C8_4 C2_4 1_555 1_555
C9_4 C5_4 1_555 1_555
H3_4 C9_4 1_555 1_555
O11_2 C10_4 1_555 1_555
O14_2 C10_4 1_555 1_555
C10_4 C12_4 1_555 1_555
C11_4 H4_4 1_555 1_555
C12_4 C11_4 1_555 1_555
C13_4 C12_4 1_555 1_555
H5_4 C13_4 1_555 1_555
C14_4 C13_4 1_555 1_555
C15_4 C6_4 1_555 1_555
O10_2 C16_4 1_555 1_555
O13_2 C16_4 1_555 1_555
C16_4 C17_4 1_555 1_555
C17_4 C11_4 1_555 1_555
C18_4 C14_4 1_555 1_555
H6_4 C18_4 1_555 1_555
C2_4 C3_4 1_555 1_555
C8_4 C9_4 1_555 1_555
C14_4 C15_4 1_555 1_555
C17_4 C18_4 1_555 1_555

#END
