
###############################################################################
#
# This file contains modified crystal structure data generated from the
# MOF subset of the Cambridge Structural Database (CSD) v543 
# hosted by the Cambridge Crystallographic Data Centre (CCDC).
#
# This work is licensed under the Creative Commons
# Attribution-NonCommercial-ShareAlike 4.0 International License.
# To view a copy of this license, visit
# http://creativecommons.org/licenses/by-nc-sa/4.0/
# or send a letter to
# Creative Commons, PO Box 1866, Mountain View, CA 94042, USA.
#
# CIF created using the CSD Python API on 29 September 2022
# The structure has been converted into the P1 space group
# The structure has a 3D framework
# The original CSD entry EQUNAH is in the orthorhombic crystal system
# The framework has been calculated to contain at least 10.0% void space
# The void calculation uses a probe of radius 1.32A, grid spacing 0.4
# The framework is charged, counterions have been retained in the structure
#
###############################################################################

data_EQUNAH
_chemical_formula_moiety         '(C216 H72 In16 O96 10-)n'
_symmetry_cell_setting           triclinic
_symmetry_space_group_name_H-M   'P 1'
_symmetry_Int_Tables_number      1
_space_group_name_Hall           'P 1'
loop_
_symmetry_equiv_pos_site_id
_symmetry_equiv_pos_as_xyz
1 x,y,z
_cell_length_a                   25.161(5)
_cell_length_b                   35.988(7)
_cell_length_c                   10.021(2)
_cell_angle_alpha                90
_cell_angle_beta                 90
_cell_angle_gamma                90
_cell_volume                     9073.96
loop_
_atom_site_label
_atom_site_type_symbol
_atom_site_fract_x
_atom_site_fract_y
_atom_site_fract_z
In7 In 0.12331(2) 0.188096(16) 0.0000
O11 O 0.1311(3) 0.19168(17) 0.7576(6)
O12 O 0.0686(2) 0.16172(18) 0.8571(5)
C27 C 0.0181(4) 0.1470(3) 0.6191(7)
H9 H 0.0017 0.1412 0.6996
C28 C 0.0669(3) 0.1643(2) 0.6197(7)
C29 C 0.0905(5) 0.1735(3) 0.5000
H10 H 0.1228 0.1861 0.5000
C30 C 0.0909(4) 0.1737(2) 0.7511(8)
O15 O 0.1311(3) 0.19168(17) 0.2424(6)
O16 O 0.0686(2) 0.16172(18) 0.1429(5)
C34 C 0.0181(4) 0.1470(3) 0.3809(7)
H12 H 0.0017 0.1412 0.3004
C35 C 0.0669(3) 0.1643(2) 0.3803(7)
C36 C 0.0909(4) 0.1737(2) 0.2489(8)
In7_2 In 0.12331(2) 0.188096(16) 1.0000
In1 In 0.70870(3) 0.050305(17) 0.0000
In2 In 0.62331(2) 0.311904(16) 0.0000
O1 O 0.6276(3) 0.07400(19) 0.0000
O2 O 0.6893(3) 0.1152(2) 0.0000
O3 O 0.2504(3) 0.00882(19) 0.0000
O4 O 0.3359(3) 0.00319(19) 0.0000
O7 O 0.5570(3) 0.2668(2) 0.0000
O8 O 0.6400(3) 0.25075(19) 0.0000
O9 O 0.2140(3) 0.18344(19) 0.0000
O10 O 0.1666(3) 0.1327(2) 0.0000
C1 C 0.6153(4) 0.1747(3) 0.0000
H1 H 0.6511 0.1813 0.0000
C2 C 0.6004(4) 0.1369(3) 0.0000
C3 C 0.5480(4) 0.1272(3) 0.0000
H2 H 0.5384 0.1022 0.0000
C4 C 0.5083(5) 0.1550(3) 0.0000
C5 C 0.5226(5) 0.1917(3) 0.0000
H3 H 0.4966 0.2100 0.0000
C6 C 0.5770(5) 0.2017(3) 0.0000
C7 C 0.6421(5) 0.1071(3) 0.0000
C8 C 0.5922(5) 0.2423(3) 0.0000
C9 C 0.4525(5) 0.1448(3) 0.0000
C10 C 0.4088(5) 0.1348(3) 0.0000
C11 C 0.2547(4) 0.0858(3) 0.0000
H4 H 0.2213 0.0748 0.0000
C12 C 0.2604(4) 0.1258(3) 0.0000
C13 C 0.3113(4) 0.1414(3) 0.0000
H5 H 0.3155 0.1670 0.0000
C14 C 0.3554(4) 0.1184(3) 0.0000
C15 C 0.3505(4) 0.0806(3) 0.0000
H6 H 0.3807 0.0657 0.0000
C16 C 0.2999(4) 0.0646(3) 0.0000
C17 C 0.2942(4) 0.0230(3) 0.0000
C18 C 0.2113(4) 0.1489(3) 0.0000
O19 O 0.7706(3) 0.06653(18) 0.1421(5)
O20 O 0.6998(3) 0.0475(2) 0.2414(6)
O21 O 0.7140(3) 0.31656(19) 0.0000
O22 O 0.6666(3) 0.3673(2) 0.0000
O23 O 0.6311(3) 0.30832(17) 0.2424(6)
O25 O 0.5686(2) 0.33828(18) 0.1429(5)
In1_2 In 0.70870(3) 0.050305(17) 1.0000
In2_2 In 0.62331(2) 0.311904(16) 1.0000
O1_2 O 0.6276(3) 0.07400(19) 1.0000
O2_2 O 0.6893(3) 0.1152(2) 1.0000
O3_2 O 0.2504(3) 0.00882(19) 1.0000
O4_2 O 0.3359(3) 0.00319(19) 1.0000
O5 O 0.7706(3) 0.06653(18) 0.8579(5)
O6 O 0.6998(3) 0.0475(2) 0.7586(6)
O7_2 O 0.5570(3) 0.2668(2) 1.0000
O8_2 O 0.6400(3) 0.25075(19) 1.0000
O9_2 O 0.2140(3) 0.18344(19) 1.0000
O10_2 O 0.1666(3) 0.1327(2) 1.0000
C1_2 C 0.6153(4) 0.1747(3) 1.0000
H1_2 H 0.6511 0.1813 1.0000
C2_2 C 0.6004(4) 0.1369(3) 1.0000
C3_2 C 0.5480(4) 0.1272(3) 1.0000
H2_2 H 0.5384 0.1022 1.0000
C4_2 C 0.5083(5) 0.1550(3) 1.0000
C5_2 C 0.5226(5) 0.1917(3) 1.0000
H3_2 H 0.4966 0.2100 1.0000
C6_2 C 0.5770(5) 0.2017(3) 1.0000
C7_2 C 0.6421(5) 0.1071(3) 1.0000
C8_2 C 0.5922(5) 0.2423(3) 1.0000
C9_2 C 0.4525(5) 0.1448(3) 1.0000
C10_2 C 0.4088(5) 0.1348(3) 1.0000
C11_2 C 0.2547(4) 0.0858(3) 1.0000
H4_2 H 0.2213 0.0748 1.0000
C12_2 C 0.2604(4) 0.1258(3) 1.0000
C13_2 C 0.3113(4) 0.1414(3) 1.0000
H5_2 H 0.3155 0.1670 1.0000
C14_2 C 0.3554(4) 0.1184(3) 1.0000
C15_2 C 0.3505(4) 0.0806(3) 1.0000
H6_2 H 0.3807 0.0657 1.0000
C16_2 C 0.2999(4) 0.0646(3) 1.0000
C17_2 C 0.2942(4) 0.0230(3) 1.0000
C18_2 C 0.2113(4) 0.1489(3) 1.0000
C19 C 0.7450(5) 0.0596(3) 0.5000
H7 H 0.7112 0.0492 0.5000
C20 C 0.7707(4) 0.0676(2) 0.6199(7)
C21 C 0.8201(4) 0.0831(3) 0.6199(7)
H8 H 0.8363 0.0886 0.7010
C22 C 0.8475(5) 0.0909(4) 0.5000
C23 C 0.7447(4) 0.0602(2) 0.7534(8)
C24 C 0.8980(6) 0.1062(4) 0.5000
C25 C 0.9415(6) 0.1197(5) 0.5000
C26 C 0.9932(5) 0.1382(4) 0.5000
C31 C 0.7707(4) 0.0676(2) 0.3801(7)
C32 C 0.8201(4) 0.0831(3) 0.3801(7)
H11 H 0.8363 0.0886 0.2990
C33 C 0.7447(4) 0.0602(2) 0.2466(8)
O21_2 O 0.7140(3) 0.31656(19) 1.0000
O22_2 O 0.6666(3) 0.3673(2) 1.0000
O24 O 0.6311(3) 0.30832(17) 0.7576(6)
O26 O 0.5686(2) 0.33828(18) 0.8571(5)
In4 In 0.29130(3) 0.949695(17) 0.0000
O17 O 0.7496(3) 0.99118(19) 0.0000
O18 O 0.6641(3) 0.99681(19) 0.0000
In4_2 In 0.29130(3) 0.949695(17) 1.0000
O17_2 O 0.7496(3) 0.99118(19) 1.0000
O18_2 O 0.6641(3) 0.99681(19) 1.0000
In2_3 In 0.37669(2) 0.688096(16) 0.0000
O1_3 O 0.3724(3) 0.92600(19) 0.0000
O2_3 O 0.3107(3) 0.8848(2) 0.0000
O7_3 O 0.4430(3) 0.7332(2) 0.0000
O8_3 O 0.3600(3) 0.74925(19) 0.0000
O9_3 O 0.7860(3) 0.81656(19) 0.0000
O10_3 O 0.8334(3) 0.8673(2) 0.0000
C1_3 C 0.3847(4) 0.8253(3) 0.0000
H1_3 H 0.3489 0.8187 0.0000
C2_3 C 0.3996(4) 0.8631(3) 0.0000
C3_3 C 0.4520(4) 0.8728(3) 0.0000
H2_3 H 0.4616 0.8978 0.0000
C4_3 C 0.4917(5) 0.8450(3) 0.0000
C5_3 C 0.4774(5) 0.8083(3) 0.0000
H3_3 H 0.5034 0.7900 0.0000
C6_3 C 0.4230(5) 0.7983(3) 0.0000
C7_3 C 0.3579(5) 0.8929(3) 0.0000
C8_3 C 0.4078(5) 0.7577(3) 0.0000
C9_3 C 0.5475(5) 0.8552(3) 0.0000
C10_3 C 0.5912(5) 0.8652(3) 0.0000
C11_3 C 0.7453(4) 0.9142(3) 0.0000
H4_3 H 0.7787 0.9252 0.0000
C12_3 C 0.7396(4) 0.8742(3) 0.0000
C13_3 C 0.6887(4) 0.8586(3) 0.0000
H5_3 H 0.6845 0.8330 0.0000
C14_3 C 0.6446(4) 0.8816(3) 0.0000
C15_3 C 0.6495(4) 0.9194(3) 0.0000
H6_3 H 0.6193 0.9343 0.0000
C16_3 C 0.7001(4) 0.9354(3) 0.0000
C17_3 C 0.7058(4) 0.9770(3) 0.0000
C18_3 C 0.7887(4) 0.8511(3) 0.0000
In5 In 0.87669(2) 0.811904(16) 0.0000
O19_2 O 0.2294(3) 0.93347(18) 0.1421(5)
O20_2 O 0.3002(3) 0.9525(2) 0.2414(6)
O21_3 O 0.2860(3) 0.68344(19) 0.0000
O22_3 O 0.3334(3) 0.6327(2) 0.0000
O23_2 O 0.3689(3) 0.69168(17) 0.2424(6)
O25_2 O 0.4314(2) 0.66172(18) 0.1429(5)
In2_4 In 0.37669(2) 0.688096(16) 1.0000
O1_4 O 0.3724(3) 0.92600(19) 1.0000
O2_4 O 0.3107(3) 0.8848(2) 1.0000
O5_2 O 0.2294(3) 0.93347(18) 0.8579(5)
O6_2 O 0.3002(3) 0.9525(2) 0.7586(6)
O7_4 O 0.4430(3) 0.7332(2) 1.0000
O8_4 O 0.3600(3) 0.74925(19) 1.0000
O9_4 O 0.7860(3) 0.81656(19) 1.0000
O10_4 O 0.8334(3) 0.8673(2) 1.0000
C1_4 C 0.3847(4) 0.8253(3) 1.0000
H1_4 H 0.3489 0.8187 1.0000
C2_4 C 0.3996(4) 0.8631(3) 1.0000
C3_4 C 0.4520(4) 0.8728(3) 1.0000
H2_4 H 0.4616 0.8978 1.0000
C4_4 C 0.4917(5) 0.8450(3) 1.0000
C5_4 C 0.4774(5) 0.8083(3) 1.0000
H3_4 H 0.5034 0.7900 1.0000
C6_4 C 0.4230(5) 0.7983(3) 1.0000
C7_4 C 0.3579(5) 0.8929(3) 1.0000
C8_4 C 0.4078(5) 0.7577(3) 1.0000
C9_4 C 0.5475(5) 0.8552(3) 1.0000
C10_4 C 0.5912(5) 0.8652(3) 1.0000
C11_4 C 0.7453(4) 0.9142(3) 1.0000
H4_4 H 0.7787 0.9252 1.0000
C12_4 C 0.7396(4) 0.8742(3) 1.0000
C13_4 C 0.6887(4) 0.8586(3) 1.0000
H5_4 H 0.6845 0.8330 1.0000
C14_4 C 0.6446(4) 0.8816(3) 1.0000
C15_4 C 0.6495(4) 0.9194(3) 1.0000
H6_4 H 0.6193 0.9343 1.0000
C16_4 C 0.7001(4) 0.9354(3) 1.0000
C17_4 C 0.7058(4) 0.9770(3) 1.0000
C18_4 C 0.7887(4) 0.8511(3) 1.0000
C19_2 C 0.2550(5) 0.9404(3) 0.5000
H7_2 H 0.2888 0.9508 0.5000
C20_2 C 0.2293(4) 0.9324(2) 0.6199(7)
C21_2 C 0.1799(4) 0.9169(3) 0.6199(7)
H8_2 H 0.1637 0.9114 0.7010
C22_2 C 0.1525(5) 0.9091(4) 0.5000
C23_2 C 0.2553(4) 0.9398(2) 0.7534(8)
C24_2 C 0.1020(6) 0.8938(4) 0.5000
C25_2 C 0.0585(6) 0.8803(5) 0.5000
C26_2 C 0.0068(5) 0.8618(4) 0.5000
C31_2 C 0.2293(4) 0.9324(2) 0.3801(7)
C32_2 C 0.1799(4) 0.9169(3) 0.3801(7)
H11_2 H 0.1637 0.9114 0.2990
C33_2 C 0.2553(4) 0.9398(2) 0.2466(8)
In5_2 In 0.87669(2) 0.811904(16) 1.0000
O21_4 O 0.2860(3) 0.68344(19) 1.0000
O22_4 O 0.3334(3) 0.6327(2) 1.0000
O24_2 O 0.3689(3) 0.69168(17) 0.7576(6)
O26_2 O 0.4314(2) 0.66172(18) 0.8571(5)
O11_2 O 0.8689(3) 0.80832(17) 0.7576(6)
O12_2 O 0.9314(2) 0.83828(18) 0.8571(5)
C27_2 C 0.9819(4) 0.8530(3) 0.6191(7)
H9_2 H 0.9983 0.8588 0.6996
C28_2 C 0.9331(3) 0.8357(2) 0.6197(7)
C29_2 C 0.9095(5) 0.8265(3) 0.5000
H10_2 H 0.8772 0.8139 0.5000
C30_2 C 0.9091(4) 0.8263(2) 0.7511(8)
O15_2 O 0.8689(3) 0.80832(17) 0.2424(6)
O16_2 O 0.9314(2) 0.83828(18) 0.1429(5)
C34_2 C 0.9819(4) 0.8530(3) 0.3809(7)
H12_2 H 0.9983 0.8588 0.3004
C35_2 C 0.9331(3) 0.8357(2) 0.3803(7)
C36_2 C 0.9091(4) 0.8263(2) 0.2489(8)
O3_3 O 0.2496(3) 0.50882(19) 0.0000
O4_3 O 0.1641(3) 0.50319(19) 0.0000
H3_5 H 0.0034 0.7100 0.0000
C9_5 C 0.0475(5) 0.6448(3) 0.0000
C10_5 C 0.0912(5) 0.6348(3) 0.0000
C11_5 C 0.2453(4) 0.5858(3) 0.0000
H4_5 H 0.2787 0.5748 0.0000
C12_5 C 0.2396(4) 0.6258(3) 0.0000
C13_5 C 0.1887(4) 0.6414(3) 0.0000
H5_5 H 0.1845 0.6670 0.0000
C14_5 C 0.1446(4) 0.6184(3) 0.0000
C15_5 C 0.1495(4) 0.5806(3) 0.0000
H6_5 H 0.1193 0.5657 0.0000
C16_5 C 0.2001(4) 0.5646(3) 0.0000
C17_5 C 0.2058(4) 0.5230(3) 0.0000
C18_5 C 0.2887(4) 0.6489(3) 0.0000
In4_3 In 0.20870(3) 0.449695(17) 0.0000
O3_4 O 0.2496(3) 0.50882(19) 1.0000
O4_4 O 0.1641(3) 0.50319(19) 1.0000
H3_6 H 0.0034 0.7100 1.0000
C9_6 C 0.0475(5) 0.6448(3) 1.0000
C10_6 C 0.0912(5) 0.6348(3) 1.0000
C11_6 C 0.2453(4) 0.5858(3) 1.0000
H4_6 H 0.2787 0.5748 1.0000
C12_6 C 0.2396(4) 0.6258(3) 1.0000
C13_6 C 0.1887(4) 0.6414(3) 1.0000
H5_6 H 0.1845 0.6670 1.0000
C14_6 C 0.1446(4) 0.6184(3) 1.0000
C15_6 C 0.1495(4) 0.5806(3) 1.0000
H6_6 H 0.1193 0.5657 1.0000
C16_6 C 0.2001(4) 0.5646(3) 1.0000
C17_6 C 0.2058(4) 0.5230(3) 1.0000
C18_6 C 0.2887(4) 0.6489(3) 1.0000
In4_4 In 0.20870(3) 0.449695(17) 1.0000
In3 In 0.79130(3) 0.550305(17) 0.0000
O1_5 O 0.8724(3) 0.57400(19) 0.0000
O2_5 O 0.8107(3) 0.6152(2) 0.0000
O5_3 O 0.7294(3) 0.56653(18) 0.1421(5)
O6_3 O 0.8002(3) 0.5475(2) 0.2414(6)
O7_5 O 0.9430(3) 0.7668(2) 0.0000
O8_5 O 0.8600(3) 0.75075(19) 0.0000
C1_5 C 0.8847(4) 0.6747(3) 0.0000
H1_5 H 0.8489 0.6813 0.0000
C2_5 C 0.8996(4) 0.6369(3) 0.0000
C3_5 C 0.9520(4) 0.6272(3) 0.0000
H2_5 H 0.9616 0.6022 0.0000
C4_5 C 0.9917(5) 0.6550(3) 0.0000
C5_5 C 0.9774(5) 0.6917(3) 0.0000
C6_5 C 0.9230(5) 0.7017(3) 0.0000
C7_5 C 0.8579(5) 0.6071(3) 0.0000
C8_5 C 0.9078(5) 0.7423(3) 0.0000
C19_3 C 0.7550(5) 0.5596(3) 0.5000
H7_3 H 0.7888 0.5492 0.5000
C20_3 C 0.7293(4) 0.5676(2) 0.3801(7)
C21_3 C 0.6799(4) 0.5831(3) 0.3801(7)
H8_3 H 0.6637 0.5886 0.2990
C22_3 C 0.6525(5) 0.5909(4) 0.5000
C23_3 C 0.7553(4) 0.5602(2) 0.2466(8)
C24_3 C 0.6020(6) 0.6062(4) 0.5000
C25_3 C 0.5585(6) 0.6197(5) 0.5000
C26_3 C 0.5068(5) 0.6382(4) 0.5000
C27_3 C 0.4819(4) 0.6470(3) 0.3809(7)
H9_3 H 0.4983 0.6412 0.3004
C28_3 C 0.4331(3) 0.6643(2) 0.3803(7)
C29_3 C 0.4095(5) 0.6735(3) 0.5000
H10_3 H 0.3772 0.6861 0.5000
C30_3 C 0.4091(4) 0.6737(2) 0.2489(8)
O13 O 0.7294(3) 0.56653(18) 0.8579(5)
O14 O 0.8002(3) 0.5475(2) 0.7586(6)
C31_3 C 0.7293(4) 0.5676(2) 0.6199(7)
C32_3 C 0.6799(4) 0.5831(3) 0.6199(7)
H11_3 H 0.6637 0.5886 0.7010
C33_3 C 0.7553(4) 0.5602(2) 0.7534(8)
C34_3 C 0.4819(4) 0.6470(3) 0.6191(7)
H12_3 H 0.4983 0.6412 0.6996
C35_3 C 0.4331(3) 0.6643(2) 0.6197(7)
C36_3 C 0.4091(4) 0.6737(2) 0.7511(8)
In3_2 In 0.79130(3) 0.550305(17) 1.0000
O17_3 O 0.7504(3) 0.49118(19) 0.0000
O18_3 O 0.8359(3) 0.49681(19) 0.0000
O1_6 O 0.8724(3) 0.57400(19) 1.0000
O2_6 O 0.8107(3) 0.6152(2) 1.0000
O7_6 O 0.9430(3) 0.7668(2) 1.0000
O8_6 O 0.8600(3) 0.75075(19) 1.0000
C1_6 C 0.8847(4) 0.6747(3) 1.0000
H1_6 H 0.8489 0.6813 1.0000
C2_6 C 0.8996(4) 0.6369(3) 1.0000
C3_6 C 0.9520(4) 0.6272(3) 1.0000
H2_6 H 0.9616 0.6022 1.0000
C4_6 C 0.9917(5) 0.6550(3) 1.0000
C5_6 C 0.9774(5) 0.6917(3) 1.0000
C6_6 C 0.9230(5) 0.7017(3) 1.0000
C7_6 C 0.8579(5) 0.6071(3) 1.0000
C8_6 C 0.9078(5) 0.7423(3) 1.0000
O17_4 O 0.7504(3) 0.49118(19) 1.0000
O18_4 O 0.8359(3) 0.49681(19) 1.0000
O1_7 O 0.1276(3) 0.42600(19) 0.0000
O2_7 O 0.1893(3) 0.3848(2) 0.0000
O5_4 O 0.2706(3) 0.43347(18) 0.1421(5)
O6_4 O 0.1998(3) 0.4525(2) 0.2414(6)
O7_7 O 0.0570(3) 0.2332(2) 0.0000
O8_7 O 0.1400(3) 0.24925(19) 0.0000
C1_7 C 0.1153(4) 0.3253(3) 0.0000
H1_7 H 0.1511 0.3187 0.0000
C2_7 C 0.1004(4) 0.3631(3) 0.0000
C3_7 C 0.0480(4) 0.3728(3) 0.0000
H2_7 H 0.0384 0.3978 0.0000
C4_7 C 0.0083(5) 0.3450(3) 0.0000
C5_7 C 0.0226(5) 0.3083(3) 0.0000
C6_7 C 0.0770(5) 0.2983(3) 0.0000
C7_7 C 0.1421(5) 0.3929(3) 0.0000
C8_7 C 0.0922(5) 0.2577(3) 0.0000
C19_4 C 0.2450(5) 0.4404(3) 0.5000
H7_4 H 0.2112 0.4508 0.5000
C20_4 C 0.2707(4) 0.4324(2) 0.3801(7)
C21_4 C 0.3201(4) 0.4169(3) 0.3801(7)
H8_4 H 0.3363 0.4114 0.2990
C22_4 C 0.3475(5) 0.4091(4) 0.5000
C23_4 C 0.2447(4) 0.4398(2) 0.2466(8)
C24_4 C 0.3980(6) 0.3938(4) 0.5000
C25_4 C 0.4415(6) 0.3803(5) 0.5000
C26_4 C 0.4932(5) 0.3618(4) 0.5000
C27_4 C 0.5181(4) 0.3530(3) 0.3809(7)
H9_4 H 0.5017 0.3588 0.3004
C28_4 C 0.5669(3) 0.3357(2) 0.3803(7)
C29_4 C 0.5905(5) 0.3265(3) 0.5000
H10_4 H 0.6228 0.3139 0.5000
C30_4 C 0.5909(4) 0.3263(2) 0.2489(8)
O13_2 O 0.2706(3) 0.43347(18) 0.8579(5)
O14_2 O 0.1998(3) 0.4525(2) 0.7586(6)
C31_4 C 0.2707(4) 0.4324(2) 0.6199(7)
C32_4 C 0.3201(4) 0.4169(3) 0.6199(7)
H11_4 H 0.3363 0.4114 0.7010
C33_4 C 0.2447(4) 0.4398(2) 0.7534(8)
C34_4 C 0.5181(4) 0.3530(3) 0.6191(7)
H12_4 H 0.5017 0.3588 0.6996
C35_4 C 0.5669(3) 0.3357(2) 0.6197(7)
C36_4 C 0.5909(4) 0.3263(2) 0.7511(8)
O1_8 O 0.1276(3) 0.42600(19) 1.0000
O2_8 O 0.1893(3) 0.3848(2) 1.0000
O7_8 O 0.0570(3) 0.2332(2) 1.0000
O8_8 O 0.1400(3) 0.24925(19) 1.0000
C1_8 C 0.1153(4) 0.3253(3) 1.0000
H1_8 H 0.1511 0.3187 1.0000
C2_8 C 0.1004(4) 0.3631(3) 1.0000
C3_8 C 0.0480(4) 0.3728(3) 1.0000
H2_8 H 0.0384 0.3978 1.0000
C4_8 C 0.0083(5) 0.3450(3) 1.0000
C5_8 C 0.0226(5) 0.3083(3) 1.0000
C6_8 C 0.0770(5) 0.2983(3) 1.0000
C7_8 C 0.1421(5) 0.3929(3) 1.0000
C8_8 C 0.0922(5) 0.2577(3) 1.0000
H3_7 H 0.9966 0.2900 0.0000
C9_7 C 0.9525(5) 0.3552(3) 0.0000
C10_7 C 0.9088(5) 0.3652(3) 0.0000
C11_7 C 0.7547(4) 0.4142(3) 0.0000
H4_7 H 0.7213 0.4252 0.0000
C12_7 C 0.7604(4) 0.3742(3) 0.0000
C13_7 C 0.8113(4) 0.3586(3) 0.0000
H5_7 H 0.8155 0.3330 0.0000
C14_7 C 0.8554(4) 0.3816(3) 0.0000
C15_7 C 0.8505(4) 0.4194(3) 0.0000
H6_7 H 0.8807 0.4343 0.0000
C16_7 C 0.7999(4) 0.4354(3) 0.0000
C17_7 C 0.7942(4) 0.4770(3) 0.0000
C18_7 C 0.7113(4) 0.3511(3) 0.0000
H3_8 H 0.9966 0.2900 1.0000
C9_8 C 0.9525(5) 0.3552(3) 1.0000
C10_8 C 0.9088(5) 0.3652(3) 1.0000
C11_8 C 0.7547(4) 0.4142(3) 1.0000
H4_8 H 0.7213 0.4252 1.0000
C12_8 C 0.7604(4) 0.3742(3) 1.0000
C13_8 C 0.8113(4) 0.3586(3) 1.0000
H5_8 H 0.8155 0.3330 1.0000
C14_8 C 0.8554(4) 0.3816(3) 1.0000
C15_8 C 0.8505(4) 0.4194(3) 1.0000
H6_8 H 0.8807 0.4343 1.0000
C16_8 C 0.7999(4) 0.4354(3) 1.0000
C17_8 C 0.7942(4) 0.4770(3) 1.0000
C18_8 C 0.7113(4) 0.3511(3) 1.0000
loop_
_geom_bond_atom_site_label_1
_geom_bond_atom_site_label_2
_geom_bond_site_symmetry_1
_geom_bond_site_symmetry_2
O11 C30 1_555 1_555
O12 C30 1_555 1_555
H9 C27 1_555 1_555
C28 C27 1_555 1_555
C29 C28 1_555 1_555
H10 C29 1_555 1_555
C30 C28 1_555 1_555
O15 C36 1_555 1_555
O16 C36 1_555 1_555
H12 C34 1_555 1_555
C35 C29 1_555 1_555
C36 C35 1_555 1_555
In7 O15 1_555 1_555
In7_2 O11 1_555 1_555
O12 In7_2 1_555 1_555
O16 In7 1_555 1_555
C34 C35 1_555 1_555
In1 O1 1_555 1_555
In2 O7 1_555 1_555
O1 C7 1_555 1_555
O2 In1 1_555 1_555
O3 C17 1_555 1_555
O4 C17 1_555 1_555
O7 C8 1_555 1_555
O8 In2 1_555 1_555
O9 C18 1_555 1_555
O10 C18 1_555 1_555
C1 H1 1_555 1_555
C2 C1 1_555 1_555
C3 C2 1_555 1_555
H2 C3 1_555 1_555
C4 C3 1_555 1_555
C5 C4 1_555 1_555
H3 C5 1_555 1_555
C6 C1 1_555 1_555
C7 O2 1_555 1_555
C8 O8 1_555 1_555
C9 C4 1_555 1_555
C10 C9 1_555 1_555
C11 H4 1_555 1_555
C12 C11 1_555 1_555
C13 C12 1_555 1_555
H5 C13 1_555 1_555
C14 C10 1_555 1_555
C15 C14 1_555 1_555
H6 C15 1_555 1_555
C16 C11 1_555 1_555
C17 C16 1_555 1_555
C18 C12 1_555 1_555
In7 O9 1_555 1_555
O19 In1 1_555 1_555
O20 In1 1_555 1_555
O21 In2 1_555 1_555
O22 In2 1_555 1_555
O23 In2 1_555 1_555
O25 In2 1_555 1_555
O10 In7 1_555 1_555
C2 C7 1_555 1_555
C5 C6 1_555 1_555
C6 C8 1_555 1_555
C13 C14 1_555 1_555
C15 C16 1_555 1_555
In1_2 O1_2 1_555 1_555
In2_2 O7_2 1_555 1_555
O1_2 C7_2 1_555 1_555
O2_2 In1_2 1_555 1_555
O3_2 C17_2 1_555 1_555
O4_2 C17_2 1_555 1_555
O5 In1_2 1_555 1_555
O6 In1_2 1_555 1_555
O7_2 C8_2 1_555 1_555
O8_2 In2_2 1_555 1_555
O9_2 C18_2 1_555 1_555
O10_2 C18_2 1_555 1_555
C1_2 H1_2 1_555 1_555
C2_2 C1_2 1_555 1_555
C3_2 C2_2 1_555 1_555
H2_2 C3_2 1_555 1_555
C4_2 C3_2 1_555 1_555
C5_2 C4_2 1_555 1_555
H3_2 C5_2 1_555 1_555
C6_2 C1_2 1_555 1_555
C7_2 O2_2 1_555 1_555
C8_2 O8_2 1_555 1_555
C9_2 C4_2 1_555 1_555
C10_2 C9_2 1_555 1_555
C11_2 H4_2 1_555 1_555
C12_2 C11_2 1_555 1_555
C13_2 C12_2 1_555 1_555
H5_2 C13_2 1_555 1_555
C14_2 C10_2 1_555 1_555
C15_2 C14_2 1_555 1_555
H6_2 C15_2 1_555 1_555
C16_2 C11_2 1_555 1_555
C17_2 C16_2 1_555 1_555
C18_2 C12_2 1_555 1_555
C19 H7 1_555 1_555
C20 C19 1_555 1_555
C21 C20 1_555 1_555
H8 C21 1_555 1_555
C22 C21 1_555 1_555
C23 O5 1_555 1_555
C24 C22 1_555 1_555
C25 C24 1_555 1_555
C26 C25 1_555 1_555
O19 C33 1_555 1_555
O20 C33 1_555 1_555
C31 C19 1_555 1_555
C32 C22 1_555 1_555
H11 C32 1_555 1_555
C33 C31 1_555 1_555
In7_2 O9_2 1_555 1_555
O21_2 In2_2 1_555 1_555
O22_2 In2_2 1_555 1_555
O24 In2_2 1_555 1_555
O26 In2_2 1_555 1_555
O6 C23 1_555 1_555
O10_2 In7_2 1_555 1_555
C2_2 C7_2 1_555 1_555
C5_2 C6_2 1_555 1_555
C6_2 C8_2 1_555 1_555
C13_2 C14_2 1_555 1_555
C15_2 C16_2 1_555 1_555
C20 C23 1_555 1_555
C31 C32 1_555 1_555
In4 O1_3 1_555 1_555
In2_3 O7_3 1_555 1_555
O1_3 C7_3 1_555 1_555
O2_3 In4 1_555 1_555
O17 C17_3 1_555 1_555
O18 C17_3 1_555 1_555
O7_3 C8_3 1_555 1_555
O8_3 In2_3 1_555 1_555
O9_3 C18_3 1_555 1_555
O10_3 C18_3 1_555 1_555
C1_3 H1_3 1_555 1_555
C2_3 C1_3 1_555 1_555
C3_3 C2_3 1_555 1_555
H2_3 C3_3 1_555 1_555
C4_3 C3_3 1_555 1_555
C5_3 C4_3 1_555 1_555
H3_3 C5_3 1_555 1_555
C6_3 C1_3 1_555 1_555
C7_3 O2_3 1_555 1_555
C8_3 O8_3 1_555 1_555
C9_3 C4_3 1_555 1_555
C10_3 C9_3 1_555 1_555
C11_3 H4_3 1_555 1_555
C12_3 C11_3 1_555 1_555
C13_3 C12_3 1_555 1_555
H5_3 C13_3 1_555 1_555
C14_3 C10_3 1_555 1_555
C15_3 C14_3 1_555 1_555
H6_3 C15_3 1_555 1_555
C16_3 C11_3 1_555 1_555
C17_3 C16_3 1_555 1_555
C18_3 C12_3 1_555 1_555
In5 O9_3 1_555 1_555
O19_2 In4 1_555 1_555
O20_2 In4 1_555 1_555
O21_3 In2_3 1_555 1_555
O22_3 In2_3 1_555 1_555
O23_2 In2_3 1_555 1_555
O25_2 In2_3 1_555 1_555
O10_3 In5 1_555 1_555
C2_3 C7_3 1_555 1_555
C5_3 C6_3 1_555 1_555
C6_3 C8_3 1_555 1_555
C13_3 C14_3 1_555 1_555
C15_3 C16_3 1_555 1_555
In4_2 O1_4 1_555 1_555
In2_4 O7_4 1_555 1_555
O1_4 C7_4 1_555 1_555
O2_4 In4_2 1_555 1_555
O17_2 C17_4 1_555 1_555
O18_2 C17_4 1_555 1_555
O5_2 In4_2 1_555 1_555
O6_2 In4_2 1_555 1_555
O7_4 C8_4 1_555 1_555
O8_4 In2_4 1_555 1_555
O9_4 C18_4 1_555 1_555
O10_4 C18_4 1_555 1_555
C1_4 H1_4 1_555 1_555
C2_4 C1_4 1_555 1_555
C3_4 C2_4 1_555 1_555
H2_4 C3_4 1_555 1_555
C4_4 C3_4 1_555 1_555
C5_4 C4_4 1_555 1_555
H3_4 C5_4 1_555 1_555
C6_4 C1_4 1_555 1_555
C7_4 O2_4 1_555 1_555
C8_4 O8_4 1_555 1_555
C9_4 C4_4 1_555 1_555
C10_4 C9_4 1_555 1_555
C11_4 H4_4 1_555 1_555
C12_4 C11_4 1_555 1_555
C13_4 C12_4 1_555 1_555
H5_4 C13_4 1_555 1_555
C14_4 C10_4 1_555 1_555
C15_4 C14_4 1_555 1_555
H6_4 C15_4 1_555 1_555
C16_4 C11_4 1_555 1_555
C17_4 C16_4 1_555 1_555
C18_4 C12_4 1_555 1_555
C19_2 H7_2 1_555 1_555
C20_2 C19_2 1_555 1_555
C21_2 C20_2 1_555 1_555
H8_2 C21_2 1_555 1_555
C22_2 C21_2 1_555 1_555
C23_2 O5_2 1_555 1_555
C24_2 C22_2 1_555 1_555
C25_2 C24_2 1_555 1_555
C26_2 C25_2 1_555 1_555
O19_2 C33_2 1_555 1_555
O20_2 C33_2 1_555 1_555
C31_2 C19_2 1_555 1_555
C32_2 C22_2 1_555 1_555
H11_2 C32_2 1_555 1_555
C33_2 C31_2 1_555 1_555
In5_2 O9_4 1_555 1_555
O21_4 In2_4 1_555 1_555
O22_4 In2_4 1_555 1_555
O24_2 In2_4 1_555 1_555
O26_2 In2_4 1_555 1_555
O6_2 C23_2 1_555 1_555
O10_4 In5_2 1_555 1_555
C2_4 C7_4 1_555 1_555
C5_4 C6_4 1_555 1_555
C6_4 C8_4 1_555 1_555
C13_4 C14_4 1_555 1_555
C15_4 C16_4 1_555 1_555
C20_2 C23_2 1_555 1_555
C31_2 C32_2 1_555 1_555
O11_2 C30_2 1_555 1_555
O12_2 C30_2 1_555 1_555
H9_2 C27_2 1_555 1_555
C28_2 C27_2 1_555 1_555
C29_2 C28_2 1_555 1_555
H10_2 C29_2 1_555 1_555
C30_2 C28_2 1_555 1_555
O15_2 C36_2 1_555 1_555
O16_2 C36_2 1_555 1_555
H12_2 C34_2 1_555 1_555
C35_2 C29_2 1_555 1_555
C36_2 C35_2 1_555 1_555
In5 O15_2 1_555 1_555
In5_2 O11_2 1_555 1_555
O12_2 In5_2 1_555 1_555
O16_2 In5 1_555 1_555
C34_2 C35_2 1_555 1_555
O3_3 C17_5 1_555 1_555
O4_3 C17_5 1_555 1_555
O21_3 C18_5 1_555 1_555
O22_3 C18_5 1_555 1_555
C10_5 C9_5 1_555 1_555
C11_5 H4_5 1_555 1_555
C12_5 C11_5 1_555 1_555
C13_5 C12_5 1_555 1_555
H5_5 C13_5 1_555 1_555
C14_5 C10_5 1_555 1_555
C15_5 C14_5 1_555 1_555
H6_5 C15_5 1_555 1_555
C16_5 C11_5 1_555 1_555
C17_5 C16_5 1_555 1_555
C18_5 C12_5 1_555 1_555
In4_3 O3_3 1_555 1_555
O4_3 In4_3 1_555 1_555
C13_5 C14_5 1_555 1_555
C15_5 C16_5 1_555 1_555
O3_4 C17_6 1_555 1_555
O4_4 C17_6 1_555 1_555
O21_4 C18_6 1_555 1_555
O22_4 C18_6 1_555 1_555
C10_6 C9_6 1_555 1_555
C11_6 H4_6 1_555 1_555
C12_6 C11_6 1_555 1_555
C13_6 C12_6 1_555 1_555
H5_6 C13_6 1_555 1_555
C14_6 C10_6 1_555 1_555
C15_6 C14_6 1_555 1_555
H6_6 C15_6 1_555 1_555
C16_6 C11_6 1_555 1_555
C17_6 C16_6 1_555 1_555
C18_6 C12_6 1_555 1_555
In4_4 O3_4 1_555 1_555
O4_4 In4_4 1_555 1_555
C13_6 C14_6 1_555 1_555
C15_6 C16_6 1_555 1_555
In3 O1_5 1_555 1_555
In5 O7_5 1_555 1_555
O1_5 C7_5 1_555 1_555
O2_5 In3 1_555 1_555
O5_3 In3 1_555 1_555
O6_3 In3 1_555 1_555
O7_5 C8_5 1_555 1_555
O8_5 In5 1_555 1_555
O23_2 C30_3 1_555 1_555
O25_2 C30_3 1_555 1_555
C1_5 H1_5 1_555 1_555
C2_5 C1_5 1_555 1_555
C3_5 C2_5 1_555 1_555
H2_5 C3_5 1_555 1_555
C4_5 C3_5 1_555 1_555
C5_5 C4_5 1_555 1_555
C6_5 C1_5 1_555 1_555
C7_5 O2_5 1_555 1_555
C8_5 O8_5 1_555 1_555
C19_3 H7_3 1_555 1_555
C20_3 C19_3 1_555 1_555
C21_3 C20_3 1_555 1_555
H8_3 C21_3 1_555 1_555
C22_3 C21_3 1_555 1_555
C23_3 O5_3 1_555 1_555
C24_3 C22_3 1_555 1_555
C25_3 C24_3 1_555 1_555
C26_3 C25_3 1_555 1_555
C27_3 C26_3 1_555 1_555
H9_3 C27_3 1_555 1_555
C28_3 C27_3 1_555 1_555
C29_3 C28_3 1_555 1_555
H10_3 C29_3 1_555 1_555
C30_3 C28_3 1_555 1_555
O13 C33_3 1_555 1_555
O14 C33_3 1_555 1_555
O24_2 C36_3 1_555 1_555
O26_2 C36_3 1_555 1_555
C31_3 C19_3 1_555 1_555
C32_3 C22_3 1_555 1_555
H11_3 C32_3 1_555 1_555
C33_3 C31_3 1_555 1_555
C34_3 C26_3 1_555 1_555
H12_3 C34_3 1_555 1_555
C35_3 C29_3 1_555 1_555
C36_3 C35_3 1_555 1_555
In3_2 O13 1_555 1_555
O17_3 In3 1_555 1_555
O18_3 In3 1_555 1_555
O6_3 C23_3 1_555 1_555
C2_5 C7_5 1_555 1_555
C5_5 C6_5 1_555 1_555
C6_5 C8_5 1_555 1_555
C20_3 C23_3 1_555 1_555
O14 In3_2 1_555 1_555
C31_3 C32_3 1_555 1_555
C34_3 C35_3 1_555 1_555
In3_2 O1_6 1_555 1_555
In5_2 O7_6 1_555 1_555
O1_6 C7_6 1_555 1_555
O2_6 In3_2 1_555 1_555
O7_6 C8_6 1_555 1_555
O8_6 In5_2 1_555 1_555
C1_6 H1_6 1_555 1_555
C2_6 C1_6 1_555 1_555
C3_6 C2_6 1_555 1_555
H2_6 C3_6 1_555 1_555
C4_6 C3_6 1_555 1_555
C5_6 C4_6 1_555 1_555
C6_6 C1_6 1_555 1_555
C7_6 O2_6 1_555 1_555
C8_6 O8_6 1_555 1_555
O17_4 In3_2 1_555 1_555
O18_4 In3_2 1_555 1_555
C2_6 C7_6 1_555 1_555
C5_6 C6_6 1_555 1_555
C6_6 C8_6 1_555 1_555
In4_3 O1_7 1_555 1_555
In7 O7_7 1_555 1_555
O1_7 C7_7 1_555 1_555
O2_7 In4_3 1_555 1_555
O5_4 In4_3 1_555 1_555
O6_4 In4_3 1_555 1_555
O7_7 C8_7 1_555 1_555
O8_7 In7 1_555 1_555
O23 C30_4 1_555 1_555
O25 C30_4 1_555 1_555
C1_7 H1_7 1_555 1_555
C2_7 C1_7 1_555 1_555
C3_7 C2_7 1_555 1_555
H2_7 C3_7 1_555 1_555
C4_7 C3_7 1_555 1_555
C5_7 C4_7 1_555 1_555
C6_7 C1_7 1_555 1_555
C7_7 O2_7 1_555 1_555
C8_7 O8_7 1_555 1_555
C19_4 H7_4 1_555 1_555
C20_4 C19_4 1_555 1_555
C21_4 C20_4 1_555 1_555
H8_4 C21_4 1_555 1_555
C22_4 C21_4 1_555 1_555
C23_4 O5_4 1_555 1_555
C24_4 C22_4 1_555 1_555
C25_4 C24_4 1_555 1_555
C26_4 C25_4 1_555 1_555
C27_4 C26_4 1_555 1_555
H9_4 C27_4 1_555 1_555
C28_4 C27_4 1_555 1_555
C29_4 C28_4 1_555 1_555
H10_4 C29_4 1_555 1_555
C30_4 C28_4 1_555 1_555
O13_2 C33_4 1_555 1_555
O14_2 C33_4 1_555 1_555
O24 C36_4 1_555 1_555
O26 C36_4 1_555 1_555
C31_4 C19_4 1_555 1_555
C32_4 C22_4 1_555 1_555
H11_4 C32_4 1_555 1_555
C33_4 C31_4 1_555 1_555
C34_4 C26_4 1_555 1_555
H12_4 C34_4 1_555 1_555
C35_4 C29_4 1_555 1_555
C36_4 C35_4 1_555 1_555
In4_4 O13_2 1_555 1_555
O6_4 C23_4 1_555 1_555
C2_7 C7_7 1_555 1_555
C5_7 C6_7 1_555 1_555
C6_7 C8_7 1_555 1_555
C20_4 C23_4 1_555 1_555
O14_2 In4_4 1_555 1_555
C31_4 C32_4 1_555 1_555
C34_4 C35_4 1_555 1_555
In4_4 O1_8 1_555 1_555
In7_2 O7_8 1_555 1_555
O1_8 C7_8 1_555 1_555
O2_8 In4_4 1_555 1_555
O7_8 C8_8 1_555 1_555
O8_8 In7_2 1_555 1_555
C1_8 H1_8 1_555 1_555
C2_8 C1_8 1_555 1_555
C3_8 C2_8 1_555 1_555
H2_8 C3_8 1_555 1_555
C4_8 C3_8 1_555 1_555
C5_8 C4_8 1_555 1_555
C6_8 C1_8 1_555 1_555
C7_8 O2_8 1_555 1_555
C8_8 O8_8 1_555 1_555
C2_8 C7_8 1_555 1_555
C5_8 C6_8 1_555 1_555
C6_8 C8_8 1_555 1_555
O17_3 C17_7 1_555 1_555
O18_3 C17_7 1_555 1_555
O21 C18_7 1_555 1_555
O22 C18_7 1_555 1_555
C10_7 C9_7 1_555 1_555
C11_7 H4_7 1_555 1_555
C12_7 C11_7 1_555 1_555
C13_7 C12_7 1_555 1_555
H5_7 C13_7 1_555 1_555
C14_7 C10_7 1_555 1_555
C15_7 C14_7 1_555 1_555
H6_7 C15_7 1_555 1_555
C16_7 C11_7 1_555 1_555
C17_7 C16_7 1_555 1_555
C18_7 C12_7 1_555 1_555
C13_7 C14_7 1_555 1_555
C15_7 C16_7 1_555 1_555
O17_4 C17_8 1_555 1_555
O18_4 C17_8 1_555 1_555
O21_2 C18_8 1_555 1_555
O22_2 C18_8 1_555 1_555
C10_8 C9_8 1_555 1_555
C11_8 H4_8 1_555 1_555
C12_8 C11_8 1_555 1_555
C13_8 C12_8 1_555 1_555
H5_8 C13_8 1_555 1_555
C14_8 C10_8 1_555 1_555
C15_8 C14_8 1_555 1_555
H6_8 C15_8 1_555 1_555
C16_8 C11_8 1_555 1_555
C17_8 C16_8 1_555 1_555
C18_8 C12_8 1_555 1_555
C13_8 C14_8 1_555 1_555
C15_8 C16_8 1_555 1_555

#END
