
###############################################################################
#
# This file contains modified crystal structure data generated from the
# MOF subset of the Cambridge Structural Database (CSD) v543 
# hosted by the Cambridge Crystallographic Data Centre (CCDC).
#
# This work is licensed under the Creative Commons
# Attribution-NonCommercial-ShareAlike 4.0 International License.
# To view a copy of this license, visit
# http://creativecommons.org/licenses/by-nc-sa/4.0/
# or send a letter to
# Creative Commons, PO Box 1866, Mountain View, CA 94042, USA.
#
# CIF created using the CSD Python API on 29 September 2022
# The structure has been converted into the P1 space group
# The structure has a 3D framework
# The original CSD entry EQUNIP is in the rhombohedral crystal system
# The original CSD entry EQUNIP is in a Sohncke space group
# The framework has been calculated to contain at least 10.0% void space
# The void calculation uses a probe of radius 1.32A, grid spacing 0.4
# The framework is charged, counterions have been retained in the structure
# H atom positions have been added when not included in the experimental data
# Generated hydrogen atom positions removed from atoms on special positions
#
###############################################################################

data_EQUNIP
_chemical_formula_moiety         '(C324 H180 In26 O162 1-)n'
_symmetry_cell_setting           triclinic
_symmetry_space_group_name_H-M   'P 1'
_symmetry_Int_Tables_number      1
_space_group_name_Hall           'P 1'
loop_
_symmetry_equiv_pos_site_id
_symmetry_equiv_pos_as_xyz
1 x,y,z
_cell_length_a                   22.1811(12)
_cell_length_b                   22.1811(12)
_cell_length_c                   41.961(5)
_cell_angle_alpha                90
_cell_angle_beta                 90
_cell_angle_gamma                120
_cell_volume                     17879
loop_
_atom_site_label
_atom_site_type_symbol
_atom_site_fract_x
_atom_site_fract_y
_atom_site_fract_z
In2 In 0.3333 0.331813(13) 0.1667
O1 O 0.54259(15) 0.21172(15) 0.03441(8)
O4 O 0.53760(15) 0.30843(17) 0.03591(9)
O5 O 0.58041(15) 0.11957(19) 0.00033(10)
O6 O 0.6667 0.3333 0.00009(11)
O7 O 0.40406(12) 0.32523(12) 0.12930(6)
O8 O 0.30061(11) 0.23277(12) 0.13570(6)
C8 C 0.45845(17) 0.2108(2) 0.06620(9)
C9 C 0.5195(2) 0.24537(19) 0.04411(10)
C10 C 0.4201(3) 0.1401(2) 0.06689(13)
H4 H 0.4327 0.1148 0.0535
C12 C 0.3224(3) 0.0297(2) 0.08855(13)
C13 C 0.3622(2) 0.1039(2) 0.08695(13)
C14 C 0.4372(2) 0.2506(2) 0.08364(13)
H5 H 0.4603 0.2987 0.0815
C15 C 0.3802(2) 0.2165(2) 0.10462(12)
C16 C 0.3405(2) 0.1436(2) 0.10513(10)
H6 H 0.3001 0.1214 0.1173
C17 C 0.36459(18) 0.2612(2) 0.12675(9)
O12 O 0.21101(14) 0.54235(21) 0.03479(8)
O13 O 0.31082(19) 0.53923(25) 0.03771(10)
O19 O 0.32621(17) 0.40144(25) 0.12863(10)
O20 O 0.23057(16) 0.31739(23) 0.14886(9)
C19 C 0.2464(2) 0.5195(3) 0.04497(11)
C20 C 0.1461(2) 0.3449(3) 0.10944(12)
H7 H 0.1237 0.3082 0.1237
C21 C 0.1076(2) 0.3628(3) 0.08853(13)
C22 C 0.2195(2) 0.3842(3) 0.10811(11)
C23 C 0.2534(2) 0.4418(3) 0.08718(11)
H8 H 0.3017 0.4675 0.0864
C24 C 0.2132(2) 0.4598(3) 0.06747(10)
C25 C 0.1413(2) 0.4211(3) 0.06879(13)
H9 H 0.1150 0.4341 0.0563
C29 C 0.0305(2) 0.3242(3) 0.08915(14)
C36 C 0.2594(2) 0.3658(3) 0.12999(15)
In7 In 0.227979(14) 0.622777(13) 0.000386(7)
In16 In 0.377223(13) 0.605202(19) 0.000386(7)
O57 O 0.22841(16) 0.68918(19) 0.03771(10)
O64 O 0.69157(17) 0.22917(23) 0.03591(9)
O74 O 0.26261(12) 0.25450(17) 0.20403(6)
O77 O 0.36606(11) 0.26549(16) 0.19763(6)
O79 O 0.34046(17) 0.40856(18) 0.20470(10)
O82 O 0.43610(16) 0.42015(17) 0.18447(9)
H45 H 0.103031 0.582549 0.0214053
In1 In 0.622777(13) 0.227979(14) 0.999614(7)
O30 O 0.21172(15) 0.54259(15) 0.96559(8)
O33 O 0.30843(17) 0.53760(15) 0.96409(9)
O34 O 0.11957(19) 0.58041(15) 0.99967(10)
O35 O 0.32523(12) 0.40406(12) 0.87070(6)
O36 O 0.23277(12) 0.30061(11) 0.86430(6)
C62 C 0.2108(2) 0.45845(17) 0.93380(9)
C63 C 0.24537(19) 0.5195(2) 0.95589(10)
C64 C 0.1401(2) 0.4201(3) 0.93311(13)
H22 H 0.1148 0.4327 0.9465
C66 C 0.0297(2) 0.3224(3) 0.91145(13)
C67 C 0.1039(2) 0.3622(2) 0.91305(13)
C68 C 0.2506(2) 0.4372(2) 0.91636(13)
H23 H 0.2987 0.4603 0.9185
C69 C 0.2165(2) 0.3802(2) 0.89538(12)
C70 C 0.1436(2) 0.3405(2) 0.89487(10)
H24 H 0.1214 0.3001 0.8827
C71 C 0.2612(2) 0.36459(18) 0.87325(9)
O40 O 0.54235(21) 0.21101(14) 0.96521(8)
O41 O 0.53923(25) 0.31082(19) 0.96229(10)
O46 O 0.40144(25) 0.32621(17) 0.87137(10)
O47 O 0.31739(23) 0.23057(16) 0.85114(9)
C73 C 0.5195(3) 0.2464(2) 0.95503(11)
C74 C 0.3449(3) 0.1461(2) 0.89056(12)
H25 H 0.3082 0.1237 0.8763
C75 C 0.3628(3) 0.1076(2) 0.91147(13)
C76 C 0.3842(3) 0.2195(2) 0.89189(11)
C77 C 0.4418(3) 0.2534(2) 0.91282(11)
H26 H 0.4675 0.3017 0.9136
C78 C 0.4598(3) 0.2132(2) 0.93253(10)
C79 C 0.4211(3) 0.1413(2) 0.93121(13)
H27 H 0.4341 0.1150 0.9437
C83 C 0.3242(3) 0.0305(2) 0.91085(14)
C90 C 0.3658(3) 0.2594(2) 0.87001(15)
In12 In 0.772021(14) 0.394798(19) 0.999614(7)
In14 In 0.605202(19) 0.377223(13) 0.999614(7)
In18 In 0.331813(13) 0.3333 0.8333
O60 O 0.68918(19) 0.22841(16) 0.96229(10)
O68 O 0.22917(23) 0.69157(17) 0.96409(9)
O72 O 0.3333 0.6667 0.99991(11)
H37 H 0.530942 0.0964657 0.993515
H38 H 0.606982 0.106551 0.985541
H46 H 0.10749 0.607469 0.984726
O2 O 0.33134(15) 0.78899(14) 0.03479(8)
O9 O 0.07523(18) 0.67379(17) 0.12863(10)
O10 O 0.08682(17) 0.76943(16) 0.14886(9)
C1 C 0.2731(2) 0.7536(2) 0.04497(11)
C2 C 0.1988(2) 0.8539(2) 0.10944(12)
H1 H 0.1845 0.8763 0.1237
C3 C 0.2552(2) 0.8924(2) 0.08853(13)
C4 C 0.1647(2) 0.7805(2) 0.10811(11)
C5 C 0.1884(2) 0.7466(2) 0.08718(11)
H2 H 0.1658 0.6983 0.0864
C6 C 0.2466(2) 0.7868(2) 0.06747(10)
C7 C 0.2798(2) 0.8587(2) 0.06879(13)
H3 H 0.3191 0.8850 0.0563
C11 C 0.2937(2) 0.9695(2) 0.08915(14)
C18 C 0.1064(2) 0.7406(2) 0.12999(15)
In8 In 0.394798(19) 0.772021(14) 0.000386(7)
O59 O 0.46077(25) 0.77159(16) 0.03771(10)
O81 O 0.06811(25) 0.65954(17) 0.20470(10)
H43 H 0.479518 0.896969 0.0214053
O39 O 0.33087(21) 0.78828(15) 0.96559(8)
O43 O 0.46084(24) 0.88043(19) 0.99967(10)
O44 O 0.07883(17) 0.67477(12) 0.87070(6)
O45 O 0.06784(16) 0.76723(12) 0.86430(6)
C80 C 0.24765(26) 0.7892(2) 0.93380(9)
C81 C 0.27413(28) 0.75463(19) 0.95589(10)
C82 C 0.2800(4) 0.8599(2) 0.93311(13)
H28 H 0.3179 0.8852 0.9465
C84 C 0.2927(4) 0.9703(2) 0.91145(13)
C85 C 0.2583(3) 0.8961(2) 0.91305(13)
C86 C 0.1866(3) 0.7494(2) 0.91636(13)
H29 H 0.1616 0.7013 0.9185
C87 C 0.1637(3) 0.7835(2) 0.89538(12)
C88 C 0.1969(3) 0.8564(2) 0.89487(10)
H30 H 0.1787 0.8786 0.8827
C89 C 0.10339(27) 0.7388(2) 0.87325(9)
In20 In 0.001487(13) 0.668187(13) 0.8333
O67 O 0.46240(15) 0.77083(23) 0.96409(9)
H44 H 0.499978 0.89251 0.984726
In4 In 0.668187(13) 0.001487(13) 0.1667
O11 O 0.78828(15) 0.33087(21) 0.03441(8)
O15 O 0.88043(19) 0.46084(24) 0.00033(10)
O17 O 0.67477(12) 0.07883(17) 0.12930(6)
O18 O 0.76723(12) 0.06784(16) 0.13570(6)
C26 C 0.7892(2) 0.24765(26) 0.06620(9)
C27 C 0.75463(19) 0.27413(28) 0.04411(10)
C28 C 0.8599(2) 0.2800(4) 0.06689(13)
H10 H 0.8852 0.3179 0.0535
C30 C 0.9703(2) 0.2927(4) 0.08855(13)
C31 C 0.8961(2) 0.2583(3) 0.08695(13)
C32 C 0.7494(2) 0.1866(3) 0.08364(13)
H11 H 0.7013 0.1616 0.0815
C33 C 0.7835(2) 0.1637(3) 0.10462(12)
C34 C 0.8564(2) 0.1969(3) 0.10513(10)
H12 H 0.8786 0.1787 0.1173
C35 C 0.7388(2) 0.10339(27) 0.12675(9)
O65 O 0.77083(23) 0.46240(15) 0.03591(9)
O75 O 0.74550(17) 0.00810(12) 0.20403(6)
O78 O 0.73451(16) 0.10056(12) 0.19763(6)
O83 O 0.57985(17) 0.01594(23) 0.18447(9)
O31 O 0.78899(14) 0.33134(15) 0.96521(8)
O37 O 0.67379(17) 0.07523(18) 0.87137(10)
O38 O 0.76943(16) 0.08682(17) 0.85114(9)
C55 C 0.7536(2) 0.2731(2) 0.95503(11)
C56 C 0.8539(2) 0.1988(2) 0.89056(12)
H19 H 0.8763 0.1845 0.8763
C57 C 0.8924(2) 0.2552(2) 0.91147(13)
C58 C 0.7805(2) 0.1647(2) 0.89189(11)
C59 C 0.7466(2) 0.1884(2) 0.91282(11)
H20 H 0.6983 0.1658 0.9136
C60 C 0.7868(2) 0.2466(2) 0.93253(10)
C61 C 0.8587(2) 0.2798(2) 0.93121(13)
H21 H 0.8850 0.3191 0.9437
C65 C 0.9695(2) 0.2937(2) 0.91085(14)
C72 C 0.7406(2) 0.1064(2) 0.87001(15)
O61 O 0.77159(16) 0.46077(25) 0.96229(10)
H41 H 0.903534 0.434476 0.993515
H42 H 0.893449 0.500431 0.985541
In6 In 0.998513(13) 0.6667 0.1667
O21 O 0.66913(21) 0.45741(15) 0.03441(8)
O22 O 0.45765(21) 0.66866(15) 0.03479(8)
O25 O 0.53916(24) 0.41959(15) 0.00033(10)
O26 O 0.92117(17) 0.59594(12) 0.12930(6)
O27 O 0.93216(16) 0.69939(11) 0.13570(6)
O28 O 0.59856(25) 0.92477(18) 0.12863(10)
O29 O 0.68261(23) 0.91318(17) 0.14886(9)
C37 C 0.4805(3) 0.7269(2) 0.04497(11)
C38 C 0.6551(3) 0.8012(2) 0.10944(12)
H13 H 0.6918 0.8155 0.1237
C39 C 0.6372(3) 0.7448(2) 0.08853(13)
C40 C 0.6158(3) 0.8353(2) 0.10811(11)
C41 C 0.5582(3) 0.8116(2) 0.08718(11)
H14 H 0.5325 0.8342 0.0864
C42 C 0.5402(3) 0.7534(2) 0.06747(10)
C43 C 0.5789(3) 0.7202(2) 0.06879(13)
H15 H 0.5659 0.6809 0.0563
C44 C 0.75235(26) 0.54155(17) 0.06620(9)
C45 C 0.72587(28) 0.4805(2) 0.04411(10)
C46 C 0.7200(4) 0.5799(3) 0.06689(13)
H16 H 0.6821 0.5673 0.0535
C47 C 0.6758(3) 0.7063(2) 0.08915(14)
C48 C 0.7073(4) 0.6776(3) 0.08855(13)
C49 C 0.7417(3) 0.6378(2) 0.08695(13)
C50 C 0.8134(3) 0.5628(2) 0.08364(13)
H17 H 0.8384 0.5397 0.0815
C51 C 0.8363(3) 0.6198(2) 0.10462(12)
C52 C 0.8031(3) 0.6595(2) 0.10513(10)
H18 H 0.8213 0.6999 0.1173
C53 C 0.89661(27) 0.63541(18) 0.12675(9)
C54 C 0.6342(3) 0.8936(2) 0.12999(15)
O73 O 0.99190(12) 0.73739(12) 0.20403(6)
O76 O 0.89944(12) 0.63394(11) 0.19763(6)
O80 O 0.59144(18) 0.93189(25) 0.20470(10)
O84 O 0.98406(23) 0.56390(16) 0.18447(9)
H47 H 0.417451 0.520482 0.0214053
O48 O 0.45741(15) 0.66913(21) 0.96559(8)
O49 O 0.66866(15) 0.45765(21) 0.96521(8)
O52 O 0.41959(15) 0.53916(24) 0.99967(10)
O53 O 0.59594(12) 0.92117(17) 0.87070(6)
O54 O 0.69939(11) 0.93216(16) 0.86430(6)
O55 O 0.92477(18) 0.59856(25) 0.87137(10)
O56 O 0.91318(17) 0.68261(23) 0.85114(9)
C91 C 0.7269(2) 0.4805(3) 0.95503(11)
C92 C 0.8012(2) 0.6551(3) 0.89056(12)
H31 H 0.8155 0.6918 0.8763
C93 C 0.7448(2) 0.6372(3) 0.91147(13)
C94 C 0.8353(2) 0.6158(3) 0.89189(11)
C95 C 0.8116(2) 0.5582(3) 0.91282(11)
H32 H 0.8342 0.5325 0.9136
C96 C 0.7534(2) 0.5402(3) 0.93253(10)
C97 C 0.7202(2) 0.5789(3) 0.93121(13)
H33 H 0.6809 0.5659 0.9437
C98 C 0.54155(17) 0.75235(26) 0.93380(9)
C99 C 0.4805(2) 0.72587(28) 0.95589(10)
C100 C 0.5799(3) 0.7200(4) 0.93311(13)
H34 H 0.5673 0.6821 0.9465
C101 C 0.7063(2) 0.6758(3) 0.91085(14)
C102 C 0.6776(3) 0.7073(4) 0.91145(13)
C103 C 0.6378(2) 0.7417(3) 0.91305(13)
C104 C 0.5628(2) 0.8134(3) 0.91636(13)
H35 H 0.5397 0.8384 0.9185
C105 C 0.6198(2) 0.8363(3) 0.89538(12)
C106 C 0.6595(2) 0.8031(3) 0.89487(10)
H36 H 0.6999 0.8213 0.8827
C107 C 0.63541(18) 0.89661(27) 0.87325(9)
C108 C 0.8936(2) 0.6342(3) 0.87001(15)
In19 In 0.6667 0.998513(13) 0.8333
H39 H 0.565524 0.469058 0.993515
H40 H 0.499569 0.393018 0.985541
H48 H 0.392531 0.500022 0.984726
H37_2 H 0.0964657 0.530942 0.00648458
H38_2 H 0.106551 0.606982 0.0144586
H46_2 H 0.607469 0.10749 0.015274
O74_2 O 0.25450(17) 0.26261(12) 0.79597(6)
O77_2 O 0.26549(16) 0.36606(11) 0.80237(6)
O79_2 O 0.40856(18) 0.34046(17) 0.79530(10)
O82_2 O 0.42015(17) 0.43610(16) 0.81553(9)
H45_2 H 0.582549 0.103031 0.978595
H41_2 H 0.434476 0.903534 0.00648458
H42_2 H 0.500431 0.893449 0.0144586
O75_2 O 0.00810(12) 0.74550(17) 0.79597(6)
O78_2 O 0.10056(12) 0.73451(16) 0.80237(6)
O83_2 O 0.01594(23) 0.57985(17) 0.81553(9)
H44_2 H 0.89251 0.499978 0.015274
O81_2 O 0.65954(17) 0.06811(25) 0.79530(10)
H43_2 H 0.896969 0.479518 0.978595
H39_2 H 0.469058 0.565524 0.00648458
H40_2 H 0.393018 0.499569 0.0144586
H48_2 H 0.500022 0.392531 0.015274
O73_2 O 0.73739(12) 0.99190(12) 0.79597(6)
O76_2 O 0.63394(11) 0.89944(12) 0.80237(6)
O80_2 O 0.93189(25) 0.59144(18) 0.79530(10)
O84_2 O 0.56390(16) 0.98406(23) 0.81553(9)
H47_2 H 0.520482 0.417451 0.978595
O72_2 O -0.0000 0.0000 0.33324(11)
In1_2 In 0.289444(13) 0.561312(14) 0.332947(7)
In2_2 In -0.0000 0.665146(13) 0.5000
O1_2 O 0.20926(15) 0.54505(15) 0.36774(8)
O4_2 O 0.20427(15) 0.64176(17) 0.36924(9)
O5_2 O 0.24708(15) 0.45290(19) 0.33366(10)
O6_2 O 0.3334 0.6666 0.33342(11)
O7_2 O 0.07073(12) 0.65856(12) 0.46263(6)
C8_2 C 0.12512(17) 0.5441(2) 0.39953(9)
C9_2 C 0.1862(2) 0.57870(19) 0.37744(10)
C10_2 C 0.0868(3) 0.4734(2) 0.40022(13)
H4_2 H 0.0994 0.4481 0.3868
C13_2 C 0.0289(2) 0.4372(2) 0.42028(13)
C14_2 C 0.1039(2) 0.5839(2) 0.41697(13)
H5_2 H 0.1270 0.6320 0.4148
C15_2 C 0.0469(2) 0.5498(2) 0.43795(12)
C16_2 C 0.0072(2) 0.4769(2) 0.43846(10)
C17_2 C 0.03126(18) 0.5945(2) 0.46008(9)
In8_2 In 0.061465(19) 0.105354(14) 0.333719(7)
O40_2 O 0.20902(21) 0.54434(14) 0.29854(8)
O41_2 O 0.20590(25) 0.64415(19) 0.29562(10)
O43_2 O 0.12751(24) 0.21376(19) 0.33300(10)
C73_2 C 0.1862(3) 0.5797(2) 0.28836(11)
C74_2 C 0.0116(3) 0.4794(2) 0.22389(12)
C75_2 C 0.0295(3) 0.4409(2) 0.24480(13)
C76_2 C 0.0509(3) 0.5528(2) 0.22522(11)
C77_2 C 0.1085(3) 0.5867(2) 0.24615(11)
H26_2 H 0.1342 0.6350 0.2469
C78_2 C 0.1265(3) 0.5465(2) 0.26586(10)
C79_2 C 0.0878(3) 0.4746(2) 0.26454(13)
H27_2 H 0.1008 0.4483 0.2770
C90_2 C 0.0325(3) 0.5927(2) 0.20334(15)
In12_2 In 0.438688(14) 0.728131(19) 0.332947(7)
In14_2 In 0.271869(19) 0.710556(13) 0.332947(7)
In16_2 In 0.043890(13) 0.938535(19) 0.333719(7)
O59_2 O 0.12744(25) 0.10492(16) 0.37104(10)
O60_2 O 0.35585(19) 0.56174(16) 0.29562(10)
O64_2 O 0.35824(17) 0.56250(23) 0.36924(9)
O67_2 O 0.12907(15) 0.10416(23) 0.29742(9)
O72_3 O -0.0000 1.0000 0.33324(11)
O77_3 O 0.03272(11) 0.59883(16) 0.53097(6)
O79_3 O 0.00712(17) 0.74190(18) 0.53804(10)
O82_3 O 0.10276(16) 0.75349(17) 0.51781(9)
O57_2 O 0.89508(16) 0.02251(19) 0.37104(10)
O68_2 O 0.89584(23) 0.02490(17) 0.29742(9)
O72_4 O 1.0000 0.0000 0.33324(11)
In2_3 In 1.0000 0.665146(13) 0.5000
O2_2 O 0.99801(15) 0.12232(14) 0.36812(8)
O8_2 O 0.96728(11) 0.56610(12) 0.46903(6)
O9_2 O 0.74190(18) 0.00712(17) 0.46196(10)
O10_2 O 0.75349(17) 0.10276(16) 0.48219(9)
C1_2 C 0.9398(2) 0.0869(2) 0.37830(11)
C2_2 C 0.8655(2) 0.1872(2) 0.44277(12)
H1_2 H 0.8512 0.2096 0.4570
C3_2 C 0.9219(2) 0.2257(2) 0.42186(13)
C4_2 C 0.8314(2) 0.1138(2) 0.44144(11)
C5_2 C 0.8551(2) 0.0799(2) 0.42051(11)
H2_2 H 0.8325 0.0316 0.4197
C6_2 C 0.9133(2) 0.1201(2) 0.40080(10)
C7_2 C 0.9465(2) 0.1920(2) 0.40212(13)
H3_2 H 0.9858 0.2183 0.3896
C11_2 C 0.9604(2) 0.3028(2) 0.42248(14)
C12_2 C 0.9891(3) 0.3630(2) 0.42188(13)
H6_2 H 0.9668 0.4547 0.4506
C18_2 C 0.7731(2) 0.0739(2) 0.46332(15)
In4_2 In 0.334854(13) 0.334820(13) 0.5000
O11_2 O 0.45495(15) 0.66420(21) 0.36774(8)
O12_2 O 0.87768(14) 0.87568(21) 0.36812(8)
O13_2 O 0.97749(19) 0.87256(25) 0.37104(10)
O15_2 O 0.54710(19) 0.79417(24) 0.33366(10)
O17_2 O 0.34144(12) 0.41216(17) 0.46263(6)
O18_2 O 0.43390(12) 0.40117(16) 0.46903(6)
O19_2 O 0.99288(17) 0.73477(25) 0.46196(10)
O20_2 O 0.89724(16) 0.65072(23) 0.48219(9)
C19_2 C 0.9131(2) 0.8528(3) 0.37830(11)
C20_2 C 0.8128(2) 0.6782(3) 0.44277(12)
H7_2 H 0.7904 0.6415 0.4570
C21_2 C 0.7743(2) 0.6961(3) 0.42186(13)
C22_2 C 0.8862(2) 0.7175(3) 0.44144(11)
C23_2 C 0.9201(2) 0.7751(3) 0.42051(11)
H8_2 H 0.9684 0.8008 0.4197
C24_2 C 0.8799(2) 0.7931(3) 0.40080(10)
C25_2 C 0.8080(2) 0.7544(3) 0.40212(13)
H9_2 H 0.7817 0.7674 0.3896
C26_2 C 0.4559(2) 0.58098(26) 0.39953(9)
C27_2 C 0.42130(19) 0.60746(28) 0.37744(10)
C28_2 C 0.5266(2) 0.6133(4) 0.40022(13)
H10_2 H 0.5519 0.6512 0.3868
C29_2 C 0.6972(2) 0.6575(3) 0.42248(14)
C30_2 C 0.6370(2) 0.6260(4) 0.42188(13)
C31_2 C 0.5628(2) 0.5916(3) 0.42028(13)
C32_2 C 0.4161(2) 0.5199(3) 0.41697(13)
H11_2 H 0.3680 0.4949 0.4148
C33_2 C 0.4502(2) 0.4970(3) 0.43795(12)
C34_2 C 0.5231(2) 0.5302(3) 0.43846(10)
H12_2 H 0.5453 0.5120 0.4506
C35_2 C 0.4055(2) 0.43672(27) 0.46008(9)
C36_2 C 0.9261(2) 0.6991(3) 0.46332(15)
In6_2 In 0.665180(13) 0.0000 0.5000
O22_2 O 0.12432(21) 0.00199(15) 0.36812(8)
O27_2 O 0.59883(16) 0.03272(11) 0.46903(6)
O28_2 O 0.26523(25) 0.25810(18) 0.46196(10)
O29_2 O 0.34928(23) 0.24651(17) 0.48219(9)
C37_2 C 0.1472(3) 0.0602(2) 0.37830(11)
C38_2 C 0.3218(3) 0.1345(2) 0.44277(12)
H13_2 H 0.3585 0.1488 0.4570
C39_2 C 0.3039(3) 0.0781(2) 0.42186(13)
C40_2 C 0.2825(3) 0.1686(2) 0.44144(11)
C41_2 C 0.2249(3) 0.1449(2) 0.42051(11)
H14_2 H 0.1992 0.1675 0.4197
C42_2 C 0.2069(3) 0.0867(2) 0.40080(10)
C43_2 C 0.2456(3) 0.0535(2) 0.40212(13)
H15_2 H 0.2326 0.0142 0.3896
C47_2 C 0.3425(3) 0.0396(2) 0.42248(14)
C48_2 C 0.3740(4) 0.0109(3) 0.42188(13)
H18_2 H 0.4880 0.0332 0.4506
C54_2 C 0.3009(3) 0.2269(2) 0.46332(15)
In7_2 In 0.894646(14) 0.956110(13) 0.333719(7)
O30_2 O 0.87839(15) 0.87592(15) 0.29892(8)
O31_2 O 0.45566(14) 0.66467(15) 0.29854(8)
O33_2 O 0.97510(17) 0.87093(15) 0.29742(9)
O34_2 O 0.78624(19) 0.91374(15) 0.33300(10)
C55_2 C 0.4203(2) 0.6064(2) 0.28836(11)
C56_2 C 0.5206(2) 0.5321(2) 0.22389(12)
H19_2 H 0.5430 0.5178 0.2096
C57_2 C 0.5591(2) 0.5885(2) 0.24480(13)
C58_2 C 0.4472(2) 0.4980(2) 0.22522(11)
C59_2 C 0.4133(2) 0.5217(2) 0.24615(11)
H20_2 H 0.3650 0.4991 0.2469
C60_2 C 0.4535(2) 0.5799(2) 0.26586(10)
C61_2 C 0.5254(2) 0.6131(2) 0.26454(13)
H21_2 H 0.5517 0.6524 0.2770
C62_2 C 0.8775(2) 0.79178(17) 0.26713(9)
C63_2 C 0.91204(19) 0.8528(2) 0.28922(10)
C64_2 C 0.8068(2) 0.7534(3) 0.26644(13)
H22_2 H 0.7815 0.7660 0.2798
C65_2 C 0.6362(2) 0.6270(2) 0.24418(14)
C66_2 C 0.6964(2) 0.6557(3) 0.24478(13)
C67_2 C 0.7706(2) 0.6955(2) 0.24638(13)
C68_2 C 0.9173(2) 0.7705(2) 0.24969(13)
H23_2 H 0.9654 0.7936 0.2518
C69_2 C 0.8832(2) 0.7135(2) 0.22871(12)
C70_2 C 0.8103(2) 0.6738(2) 0.22820(10)
H24_2 H 0.7881 0.6334 0.2160
C71_2 C 0.9279(2) 0.69792(18) 0.20658(9)
C72_2 C 0.4073(2) 0.4397(2) 0.20334(15)
O39_2 O 0.99754(21) 0.12161(15) 0.29892(8)
H25_2 H 0.9749 0.4570 0.2096
C80_2 C 0.91432(26) 0.1225(2) 0.26713(9)
C81_2 C 0.94080(28) 0.08796(19) 0.28922(10)
C82_2 C 0.9467(4) 0.1932(2) 0.26644(13)
H28_2 H 0.9846 0.2185 0.2798
C83_2 C 0.9909(3) 0.3638(2) 0.24418(14)
C84_2 C 0.9594(4) 0.3036(2) 0.24478(13)
C85_2 C 0.9250(3) 0.2294(2) 0.24638(13)
C86_2 C 0.8533(3) 0.0827(2) 0.24969(13)
H29_2 H 0.8283 0.0346 0.2518
C87_2 C 0.8304(3) 0.1168(2) 0.22871(12)
C88_2 C 0.8636(3) 0.1897(2) 0.22820(10)
H30_2 H 0.8454 0.2119 0.2160
C89_2 C 0.77006(27) 0.0721(2) 0.20658(9)
O48_2 O 0.12408(15) 0.00246(21) 0.29892(8)
H31_2 H 0.4822 0.0251 0.2096
C98_2 C 0.20822(17) 0.08568(26) 0.26713(9)
C99_2 C 0.1472(2) 0.05920(28) 0.28922(10)
C100_2 C 0.2466(3) 0.0533(4) 0.26644(13)
H34_2 H 0.2340 0.0154 0.2798
C101_2 C 0.3730(2) 0.0091(3) 0.24418(14)
C102_2 C 0.3443(3) 0.0406(4) 0.24478(13)
C103_2 C 0.3045(2) 0.0750(3) 0.24638(13)
C104_2 C 0.2295(2) 0.1467(3) 0.24969(13)
H35_2 H 0.2064 0.1717 0.2518
C105_2 C 0.2865(2) 0.1696(3) 0.22871(12)
C106_2 C 0.3262(2) 0.1364(3) 0.22820(10)
H36_2 H 0.3666 0.1546 0.2160
C107_2 C 0.30208(18) 0.22994(27) 0.20658(9)
O61_2 O 0.43826(16) 0.79410(25) 0.29562(10)
O65_2 O 0.43750(23) 0.79573(15) 0.36924(9)
O72_5 O 1.0000 1.0000 0.33324(11)
O73_3 O 0.65856(12) 0.07073(12) 0.53737(6)
O74_3 O 0.92927(12) 0.58784(17) 0.53737(6)
O75_3 O 0.41216(17) 0.34144(12) 0.53737(6)
O78_3 O 0.40117(16) 0.43390(12) 0.53097(6)
O80_3 O 0.25810(18) 0.26523(25) 0.53804(10)
O83_3 O 0.24651(17) 0.34928(23) 0.51781(9)
In6_3 In 0.665180(13) 1.0000 0.5000
O21_2 O 0.33580(21) 0.79074(15) 0.36774(8)
O25_2 O 0.20583(24) 0.75292(15) 0.33366(10)
O26_2 O 0.58784(17) 0.92927(12) 0.46263(6)
C44_2 C 0.41902(26) 0.87488(17) 0.39953(9)
C45_2 C 0.39254(28) 0.8138(2) 0.37744(10)
C46_2 C 0.3867(4) 0.9132(3) 0.40022(13)
H16_2 H 0.3488 0.9006 0.3868
C49_2 C 0.4084(3) 0.9711(2) 0.42028(13)
C50_2 C 0.4801(3) 0.8961(2) 0.41697(13)
H17_2 H 0.5051 0.8730 0.4148
C51_2 C 0.5030(3) 0.9531(2) 0.43795(12)
C52_2 C 0.4698(3) 0.9928(2) 0.43846(10)
C53_2 C 0.56328(27) 0.96874(18) 0.46008(9)
O49_2 O 0.33533(15) 0.79098(21) 0.29854(8)
O52_2 O 0.08626(15) 0.87249(24) 0.33300(10)
C91_2 C 0.3936(2) 0.8138(3) 0.28836(11)
C92_2 C 0.4679(2) 0.9884(3) 0.22389(12)
C93_2 C 0.4115(2) 0.9705(3) 0.24480(13)
C94_2 C 0.5020(2) 0.9491(3) 0.22522(11)
C95_2 C 0.4783(2) 0.8915(3) 0.24615(11)
H32_2 H 0.5009 0.8658 0.2469
C96_2 C 0.4201(2) 0.8735(3) 0.26586(10)
C97_2 C 0.3869(2) 0.9122(3) 0.26454(13)
H33_2 H 0.3476 0.8992 0.2770
C108_2 C 0.5603(2) 0.9675(3) 0.20334(15)
O76_3 O 0.56610(12) 0.96728(11) 0.53097(6)
O81_3 O 0.73477(25) 0.99288(17) 0.53804(10)
O84_3 O 0.65072(23) 0.89724(16) 0.51781(9)
O6_3 O 0.0000 -0.0000 0.66676(11)
In12_3 In 0.105354(14) 0.061465(19) 0.666281(7)
O6_4 O 0.0000 1.0000 0.66676(11)
O60_3 O 0.02251(19) 0.89508(16) 0.62896(10)
O64_3 O 0.02490(17) 0.89584(23) 0.70258(9)
O6_5 O 1.0000 -0.0000 0.66676(11)
O12_3 O 0.54434(14) 0.20902(21) 0.70146(8)
O13_3 O 0.64415(19) 0.20590(25) 0.70438(10)
O15_3 O 0.21376(19) 0.12751(24) 0.66700(10)
C19_3 C 0.5797(2) 0.1862(3) 0.71164(11)
C20_3 C 0.4794(2) 0.0116(3) 0.77611(12)
C21_3 C 0.4409(2) 0.0295(3) 0.75520(13)
C22_3 C 0.5528(2) 0.0509(3) 0.77478(11)
C23_3 C 0.5867(2) 0.1085(3) 0.75385(11)
H8_3 H 0.6350 0.1342 0.7531
C24_3 C 0.5465(2) 0.1265(3) 0.73414(10)
C25_3 C 0.4746(2) 0.0878(3) 0.73546(13)
H9_3 H 0.4483 0.1008 0.7230
C36_3 C 0.5927(2) 0.0325(3) 0.79666(15)
In7_3 In 0.561312(14) 0.289444(13) 0.667053(7)
O30_3 O 0.54505(15) 0.20926(15) 0.63226(8)
O33_3 O 0.64176(17) 0.20427(15) 0.63076(9)
O34_3 O 0.45290(19) 0.24708(15) 0.66634(10)
C62_3 C 0.5441(2) 0.12512(17) 0.60047(9)
C63_3 C 0.57870(19) 0.1862(2) 0.62256(10)
C64_3 C 0.4734(2) 0.0868(3) 0.59978(13)
H22_3 H 0.4481 0.0994 0.6132
C67_3 C 0.4372(2) 0.0289(2) 0.57972(13)
C68_3 C 0.5839(2) 0.1039(2) 0.58303(13)
H23_3 H 0.6320 0.1270 0.5852
C69_3 C 0.5498(2) 0.0469(2) 0.56205(12)
C70_3 C 0.4769(2) 0.0072(2) 0.56154(10)
C71_3 C 0.5945(2) 0.03126(18) 0.53992(9)
In14_3 In 0.938535(19) 0.043890(13) 0.666281(7)
In16_3 In 0.710556(13) 0.271869(19) 0.667053(7)
O57_3 O 0.56174(16) 0.35585(19) 0.70438(10)
O61_3 O 0.10492(16) 0.12744(25) 0.62896(10)
O65_3 O 0.10416(23) 0.12907(15) 0.70258(9)
O68_3 O 0.56250(23) 0.35824(17) 0.63076(9)
O72_6 O 0.6666 0.3334 0.66658(11)
In1_3 In 0.956110(13) 0.894646(14) 0.666281(7)
O1_3 O 0.87592(15) 0.87839(15) 0.70108(8)
O2_3 O 0.66467(15) 0.45566(14) 0.70146(8)
O4_3 O 0.87093(15) 0.97510(17) 0.70258(9)
O5_3 O 0.91374(15) 0.78624(19) 0.66700(10)
O6_6 O 1.0000 1.0000 0.66676(11)
C1_3 C 0.6064(2) 0.4203(2) 0.71164(11)
C2_3 C 0.5321(2) 0.5206(2) 0.77611(12)
H1_3 H 0.5178 0.5430 0.7904
C3_3 C 0.5885(2) 0.5591(2) 0.75520(13)
C4_3 C 0.4980(2) 0.4472(2) 0.77478(11)
C5_3 C 0.5217(2) 0.4133(2) 0.75385(11)
H2_3 H 0.4991 0.3650 0.7531
C6_3 C 0.5799(2) 0.4535(2) 0.73414(10)
C7_3 C 0.6131(2) 0.5254(2) 0.73546(13)
H3_3 H 0.6524 0.5517 0.7230
C8_3 C 0.79178(17) 0.8775(2) 0.73287(9)
C9_3 C 0.8528(2) 0.91204(19) 0.71078(10)
C10_3 C 0.7534(3) 0.8068(2) 0.73356(13)
H4_3 H 0.7660 0.7815 0.7202
C11_3 C 0.6270(2) 0.6362(2) 0.75582(14)
C12_3 C 0.6557(3) 0.6964(2) 0.75522(13)
C13_3 C 0.6955(2) 0.7706(2) 0.75362(13)
C14_3 C 0.7705(2) 0.9173(2) 0.75031(13)
H5_3 H 0.7936 0.9654 0.7482
C15_3 C 0.7135(2) 0.8832(2) 0.77129(12)
C16_3 C 0.6738(2) 0.8103(2) 0.77180(10)
H6_3 H 0.6334 0.7881 0.7840
C17_3 C 0.69792(18) 0.9279(2) 0.79342(9)
C18_3 C 0.4397(2) 0.4073(2) 0.79666(15)
O11_3 O 0.12161(15) 0.99754(21) 0.70108(8)
H7_3 H 0.4570 0.9749 0.7904
C26_3 C 0.1225(2) 0.91432(26) 0.73287(9)
C27_3 C 0.08796(19) 0.94080(28) 0.71078(10)
C28_3 C 0.1932(2) 0.9467(4) 0.73356(13)
H10_3 H 0.2185 0.9846 0.7202
C29_3 C 0.3638(2) 0.9909(3) 0.75582(14)
C30_3 C 0.3036(2) 0.9594(4) 0.75522(13)
C31_3 C 0.2294(2) 0.9250(3) 0.75362(13)
C32_3 C 0.0827(2) 0.8533(3) 0.75031(13)
H11_3 H 0.0346 0.8283 0.7482
C33_3 C 0.1168(2) 0.8304(3) 0.77129(12)
C34_3 C 0.1897(2) 0.8636(3) 0.77180(10)
H12_3 H 0.2119 0.8454 0.7840
C35_3 C 0.0721(2) 0.77006(27) 0.79342(9)
O21_3 O 0.00246(21) 0.12408(15) 0.70108(8)
H13_3 H 0.0251 0.4822 0.7904
C44_3 C 0.08568(26) 0.20822(17) 0.73287(9)
C45_3 C 0.05920(28) 0.1472(2) 0.71078(10)
C46_3 C 0.0533(4) 0.2466(3) 0.73356(13)
H16_3 H 0.0154 0.2340 0.7202
C47_3 C 0.0091(3) 0.3730(2) 0.75582(14)
C48_3 C 0.0406(4) 0.3443(3) 0.75522(13)
C49_3 C 0.0750(3) 0.3045(2) 0.75362(13)
C50_3 C 0.1467(3) 0.2295(2) 0.75031(13)
H17_3 H 0.1717 0.2064 0.7482
C51_3 C 0.1696(3) 0.2865(2) 0.77129(12)
C52_3 C 0.1364(3) 0.3262(2) 0.77180(10)
H18_3 H 0.1546 0.3666 0.7840
C53_3 C 0.22994(27) 0.30208(18) 0.79342(9)
O31_3 O 0.12232(14) 0.99801(15) 0.63188(8)
C55_3 C 0.0869(2) 0.9398(2) 0.62170(11)
C56_3 C 0.1872(2) 0.8655(2) 0.55723(12)
H19_3 H 0.2096 0.8512 0.5430
C57_3 C 0.2257(2) 0.9219(2) 0.57814(13)
C58_3 C 0.1138(2) 0.8314(2) 0.55856(11)
C59_3 C 0.0799(2) 0.8551(2) 0.57949(11)
H20_3 H 0.0316 0.8325 0.5803
C60_3 C 0.1201(2) 0.9133(2) 0.59920(10)
C61_3 C 0.1920(2) 0.9465(2) 0.59788(13)
H21_3 H 0.2183 0.9858 0.6104
C65_3 C 0.3028(2) 0.9604(2) 0.57752(14)
C66_3 C 0.3630(2) 0.9891(3) 0.57812(13)
H24_3 H 0.4547 0.9668 0.5494
C72_3 C 0.0739(2) 0.7731(2) 0.53668(15)
In8_3 In 0.728131(19) 0.438688(14) 0.667053(7)
O39_3 O 0.66420(21) 0.45495(15) 0.63226(8)
O40_3 O 0.87568(21) 0.87768(14) 0.63188(8)
O41_3 O 0.87256(25) 0.97749(19) 0.62896(10)
O43_3 O 0.79417(24) 0.54710(19) 0.66634(10)
C73_3 C 0.8528(3) 0.9131(2) 0.62170(11)
C74_3 C 0.6782(3) 0.8128(2) 0.55723(12)
H25_3 H 0.6415 0.7904 0.5430
C75_3 C 0.6961(3) 0.7743(2) 0.57814(13)
C76_3 C 0.7175(3) 0.8862(2) 0.55856(11)
C77_3 C 0.7751(3) 0.9201(2) 0.57949(11)
H26_3 H 0.8008 0.9684 0.5803
C78_3 C 0.7931(3) 0.8799(2) 0.59920(10)
C79_3 C 0.7544(3) 0.8080(2) 0.59788(13)
H27_3 H 0.7674 0.7817 0.6104
C80_3 C 0.58098(26) 0.4559(2) 0.60047(9)
C81_3 C 0.60746(28) 0.42130(19) 0.62256(10)
C82_3 C 0.6133(4) 0.5266(2) 0.59978(13)
H28_3 H 0.6512 0.5519 0.6132
C83_3 C 0.6575(3) 0.6972(2) 0.57752(14)
C84_3 C 0.6260(4) 0.6370(2) 0.57812(13)
C85_3 C 0.5916(3) 0.5628(2) 0.57972(13)
C86_3 C 0.5199(3) 0.4161(2) 0.58303(13)
H29_3 H 0.4949 0.3680 0.5852
C87_3 C 0.4970(3) 0.4502(2) 0.56205(12)
C88_3 C 0.5302(3) 0.5231(2) 0.56154(10)
H30_3 H 0.5120 0.5453 0.5494
C89_3 C 0.43672(27) 0.4055(2) 0.53992(9)
C90_3 C 0.6991(3) 0.9261(2) 0.53668(15)
O49_3 O 0.00199(15) 0.12432(21) 0.63188(8)
C91_3 C 0.0602(2) 0.1472(3) 0.62170(11)
C92_3 C 0.1345(2) 0.3218(3) 0.55723(12)
H31_3 H 0.1488 0.3585 0.5430
C93_3 C 0.0781(2) 0.3039(3) 0.57814(13)
C94_3 C 0.1686(2) 0.2825(3) 0.55856(11)
C95_3 C 0.1449(2) 0.2249(3) 0.57949(11)
H32_3 H 0.1675 0.1992 0.5803
C96_3 C 0.0867(2) 0.2069(3) 0.59920(10)
C97_3 C 0.0535(2) 0.2456(3) 0.59788(13)
H33_3 H 0.0142 0.2326 0.6104
C101_3 C 0.0396(2) 0.3425(3) 0.57752(14)
C102_3 C 0.0109(3) 0.3740(4) 0.57812(13)
H36_3 H 0.0332 0.4880 0.5494
C108_3 C 0.2269(2) 0.3009(3) 0.53668(15)
O59_3 O 0.79410(25) 0.43826(16) 0.70438(10)
O67_3 O 0.79573(15) 0.43750(23) 0.63076(9)
O22_3 O 0.79098(21) 0.33533(15) 0.70146(8)
O25_3 O 0.87249(24) 0.08626(15) 0.66700(10)
C37_3 C 0.8138(3) 0.3936(2) 0.71164(11)
C38_3 C 0.9884(3) 0.4679(2) 0.77611(12)
C39_3 C 0.9705(3) 0.4115(2) 0.75520(13)
C40_3 C 0.9491(3) 0.5020(2) 0.77478(11)
C41_3 C 0.8915(3) 0.4783(2) 0.75385(11)
H14_3 H 0.8658 0.5009 0.7531
C42_3 C 0.8735(3) 0.4201(2) 0.73414(10)
C43_3 C 0.9122(3) 0.3869(2) 0.73546(13)
H15_3 H 0.8992 0.3476 0.7230
C54_3 C 0.9675(3) 0.5603(2) 0.79666(15)
O48_3 O 0.79074(15) 0.33580(21) 0.63226(8)
O52_3 O 0.75292(15) 0.20583(24) 0.66634(10)
C98_3 C 0.87488(17) 0.41902(26) 0.60047(9)
C99_3 C 0.8138(2) 0.39254(28) 0.62256(10)
C100_3 C 0.9132(3) 0.3867(4) 0.59978(13)
H34_3 H 0.9006 0.3488 0.6132
C103_3 C 0.9711(2) 0.4084(3) 0.57972(13)
C104_3 C 0.8961(2) 0.4801(3) 0.58303(13)
H35_3 H 0.8730 0.5051 0.5852
C105_3 C 0.9531(2) 0.5030(3) 0.56205(12)
C106_3 C 0.9928(2) 0.4698(3) 0.56154(10)
C107_3 C 0.96874(18) 0.56328(27) 0.53992(9)
loop_
_geom_bond_atom_site_label_1
_geom_bond_atom_site_label_2
_geom_bond_site_symmetry_1
_geom_bond_site_symmetry_2
In2 O7 1_555 1_555
O1 C9 1_555 1_555
O4 C9 1_555 1_555
O7 C17 1_555 1_555
O8 In2 1_555 1_555
C8 C9 1_555 1_555
C10 C8 1_555 1_555
H4 C10 1_555 1_555
C13 C10 1_555 1_555
C14 C8 1_555 1_555
H5 C14 1_555 1_555
C15 C14 1_555 1_555
C16 C13 1_555 1_555
H6 C16 1_555 1_555
C17 O8 1_555 1_555
O12 C19 1_555 1_555
O13 C19 1_555 1_555
O19 In2 1_555 1_555
O20 In2 1_555 1_555
C19 C24 1_555 1_555
C20 H7 1_555 1_555
C21 C20 1_555 1_555
C22 C20 1_555 1_555
C23 C22 1_555 1_555
H8 C23 1_555 1_555
C24 C23 1_555 1_555
C25 C21 1_555 1_555
H9 C25 1_555 1_555
C29 C21 1_555 1_555
C36 O19 1_555 1_555
In7 O12 1_555 1_555
In16 O13 1_555 1_555
O57 In7 1_555 1_555
O74 In2 1_555 1_555
O77 In2 1_555 1_555
O79 In2 1_555 1_555
O82 In2 1_555 1_555
C12 C13 1_555 1_555
C15 C16 1_555 1_555
C15 C17 1_555 1_555
O20 C36 1_555 1_555
C22 C36 1_555 1_555
C24 C25 1_555 1_555
O33 C63 1_555 1_555
O35 C71 1_555 1_555
O36 C71 1_555 1_555
C62 C63 1_555 1_555
C63 O30 1_555 1_555
C64 C62 1_555 1_555
H22 C64 1_555 1_555
C67 C64 1_555 1_555
C68 C62 1_555 1_555
H23 C68 1_555 1_555
C69 C68 1_555 1_555
C70 C67 1_555 1_555
H24 C70 1_555 1_555
C71 C69 1_555 1_555
O40 In1 1_555 1_555
O41 C73 1_555 1_555
O46 C90 1_555 1_555
O47 C90 1_555 1_555
C73 O40 1_555 1_555
C74 H25 1_555 1_555
C75 C74 1_555 1_555
C76 C74 1_555 1_555
C77 C76 1_555 1_555
H26 C77 1_555 1_555
C78 C73 1_555 1_555
C79 C75 1_555 1_555
H27 C79 1_555 1_555
C83 C75 1_555 1_555
C90 C76 1_555 1_555
In18 O35 1_555 1_555
O60 In1 1_555 1_555
O36 In18 1_555 1_555
C66 C67 1_555 1_555
C69 C70 1_555 1_555
O41 In14 1_555 1_555
O46 In18 1_555 1_555
O47 In18 1_555 1_555
C77 C78 1_555 1_555
C78 C79 1_555 1_555
O34 H46 1_555 1_555
O2 C1 1_555 1_555
O57 C1 1_555 1_555
O9 C18 1_555 1_555
O10 C18 1_555 1_555
C1 C6 1_555 1_555
C2 H1 1_555 1_555
C3 C2 1_555 1_555
C4 C2 1_555 1_555
C5 C4 1_555 1_555
H2 C5 1_555 1_555
C6 C5 1_555 1_555
C7 C3 1_555 1_555
H3 C7 1_555 1_555
C11 C3 1_555 1_555
C18 C4 1_555 1_555
In8 O2 1_555 1_555
O59 In8 1_555 1_555
C6 C7 1_555 1_555
O68 C81 1_555 1_555
O44 C89 1_555 1_555
O45 C89 1_555 1_555
C80 C81 1_555 1_555
C81 O39 1_555 1_555
C82 C80 1_555 1_555
H28 C82 1_555 1_555
C85 C82 1_555 1_555
C86 C80 1_555 1_555
H29 C86 1_555 1_555
C87 C86 1_555 1_555
C88 C85 1_555 1_555
H30 C88 1_555 1_555
C89 C87 1_555 1_555
In20 O44 1_555 1_555
O45 In20 1_555 1_555
C84 C85 1_555 1_555
C87 C88 1_555 1_555
O43 H44 1_555 1_555
In4 O17 1_555 1_555
O11 C27 1_555 1_555
O64 C27 1_555 1_555
O17 C35 1_555 1_555
O18 In4 1_555 1_555
C26 C27 1_555 1_555
C28 C26 1_555 1_555
H10 C28 1_555 1_555
C31 C28 1_555 1_555
C32 C26 1_555 1_555
H11 C32 1_555 1_555
C33 C32 1_555 1_555
C34 C31 1_555 1_555
H12 C34 1_555 1_555
C35 O18 1_555 1_555
O75 In4 1_555 1_555
O78 In4 1_555 1_555
O83 In4 1_555 1_555
C30 C31 1_555 1_555
C33 C34 1_555 1_555
C33 C35 1_555 1_555
O31 In12 1_555 1_555
O60 C55 1_555 1_555
O37 C72 1_555 1_555
O38 C72 1_555 1_555
C55 O31 1_555 1_555
C56 H19 1_555 1_555
C57 C56 1_555 1_555
C58 C56 1_555 1_555
C59 C58 1_555 1_555
H20 C59 1_555 1_555
C60 C55 1_555 1_555
C61 C57 1_555 1_555
H21 C61 1_555 1_555
C65 C57 1_555 1_555
C72 C58 1_555 1_555
O61 In12 1_555 1_555
C59 C60 1_555 1_555
C60 C61 1_555 1_555
O21 C45 1_555 1_555
O22 C37 1_555 1_555
O59 C37 1_555 1_555
O65 C45 1_555 1_555
O26 In6 1_555 1_555
O27 In6 1_555 1_555
C37 C42 1_555 1_555
C38 H13 1_555 1_555
C39 C38 1_555 1_555
C40 C38 1_555 1_555
C41 C40 1_555 1_555
H14 C41 1_555 1_555
C42 C41 1_555 1_555
C43 C39 1_555 1_555
H15 C43 1_555 1_555
C44 C45 1_555 1_555
C46 C44 1_555 1_555
H16 C46 1_555 1_555
C47 C39 1_555 1_555
C48 C47 1_555 1_555
C49 C46 1_555 1_555
C50 C44 1_555 1_555
H17 C50 1_555 1_555
C51 C50 1_555 1_555
C52 C49 1_555 1_555
H18 C52 1_555 1_555
C53 O26 1_555 1_555
C54 O28 1_555 1_555
In16 O22 1_555 1_555
O73 In6 1_555 1_555
O76 In6 1_555 1_555
O84 In6 1_555 1_555
O27 C53 1_555 1_555
O29 C54 1_555 1_555
C40 C54 1_555 1_555
C42 C43 1_555 1_555
C48 C49 1_555 1_555
C51 C52 1_555 1_555
C51 C53 1_555 1_555
O49 In14 1_555 1_555
O61 C91 1_555 1_555
O67 C99 1_555 1_555
O53 C107 1_555 1_555
O54 C107 1_555 1_555
O55 C108 1_555 1_555
O56 C108 1_555 1_555
C91 O49 1_555 1_555
C92 H31 1_555 1_555
C93 C92 1_555 1_555
C94 C92 1_555 1_555
C95 C94 1_555 1_555
H32 C95 1_555 1_555
C96 C91 1_555 1_555
C97 C93 1_555 1_555
H33 C97 1_555 1_555
C98 C99 1_555 1_555
C99 O48 1_555 1_555
C100 C98 1_555 1_555
H34 C100 1_555 1_555
C101 C93 1_555 1_555
C102 C101 1_555 1_555
C103 C100 1_555 1_555
C104 C98 1_555 1_555
H35 C104 1_555 1_555
C105 C104 1_555 1_555
C106 C103 1_555 1_555
H36 C106 1_555 1_555
C107 C105 1_555 1_555
C108 C94 1_555 1_555
O53 In19 1_555 1_555
O54 In19 1_555 1_555
C95 C96 1_555 1_555
C96 C97 1_555 1_555
C102 C103 1_555 1_555
C105 C106 1_555 1_555
O52 H48 1_555 1_555
O5 H46_2 1_555 1_555
O74_2 In18 1_555 1_555
O77_2 In18 1_555 1_555
O79_2 In18 1_555 1_555
O82_2 In18 1_555 1_555
O75_2 In20 1_555 1_555
O78_2 In20 1_555 1_555
O83_2 In20 1_555 1_555
O15 H44_2 1_555 1_555
O25 H48_2 1_555 1_555
O73_2 In19 1_555 1_555
O76_2 In19 1_555 1_555
O84_2 In19 1_555 1_555
In1_2 O1_2 1_555 1_555
In2_2 O7_2 1_555 1_555
O1_2 C9_2 1_555 1_555
O4_2 C9_2 1_555 1_555
O5_2 In1_2 1_555 1_555
O6_2 In1_2 1_555 1_555
O7_2 C17_2 1_555 1_555
C8_2 C9_2 1_555 1_555
C10_2 C8_2 1_555 1_555
H4_2 C10_2 1_555 1_555
C13_2 C10_2 1_555 1_555
C14_2 C8_2 1_555 1_555
H5_2 C14_2 1_555 1_555
C15_2 C14_2 1_555 1_555
C16_2 C13_2 1_555 1_555
O40_2 In1_2 1_555 1_555
O41_2 C73_2 1_555 1_555
O43_2 In8_2 1_555 1_555
O81 C90_2 1_555 1_555
C73_2 O40_2 1_555 1_555
C75_2 C74_2 1_555 1_555
C76_2 C74_2 1_555 1_555
C77_2 C76_2 1_555 1_555
H26_2 C77_2 1_555 1_555
C78_2 C73_2 1_555 1_555
C79_2 C75_2 1_555 1_555
H27_2 C79_2 1_555 1_555
C90_2 C76_2 1_555 1_555
In12_2 O6_2 1_555 1_555
In14_2 O4_2 1_555 1_555
O59_2 In8_2 1_555 1_555
O60_2 In1_2 1_555 1_555
O64_2 In1_2 1_555 1_555
O67_2 In8_2 1_555 1_555
O72_2 In8_2 1_555 1_555
O77_3 In2_2 1_555 1_555
O79_3 In2_2 1_555 1_555
O82_3 In2_2 1_555 1_555
O6_2 In14_2 1_555 1_555
C15_2 C16_2 1_555 1_555
C15_2 C17_2 1_555 1_555
O41_2 In14_2 1_555 1_555
C77_2 C78_2 1_555 1_555
C78_2 C79_2 1_555 1_555
In16_2 O72_3 1_555 1_555
O2_2 C1_2 1_555 1_555
O57_2 C1_2 1_555 1_555
O8_2 In2_3 1_555 1_555
O9_2 C18_2 1_555 1_555
O10_2 C18_2 1_555 1_555
C1_2 C6_2 1_555 1_555
C2_2 H1_2 1_555 1_555
C3_2 C2_2 1_555 1_555
C4_2 C2_2 1_555 1_555
C5_2 C4_2 1_555 1_555
H2_2 C5_2 1_555 1_555
C6_2 C5_2 1_555 1_555
C7_2 C3_2 1_555 1_555
H3_2 C7_2 1_555 1_555
C11_2 C3_2 1_555 1_555
C12_2 C11_2 1_555 1_555
C18_2 C4_2 1_555 1_555
In12_2 O11_2 1_555 1_555
In4_2 O17_2 1_555 1_555
O11_2 C27_2 1_555 1_555
O12_2 C19_2 1_555 1_555
O13_2 C19_2 1_555 1_555
O64_2 C27_2 1_555 1_555
O15_2 In12_2 1_555 1_555
O17_2 C35_2 1_555 1_555
O18_2 In4_2 1_555 1_555
O19_2 In2_3 1_555 1_555
O20_2 In2_3 1_555 1_555
C19_2 C24_2 1_555 1_555
C20_2 H7_2 1_555 1_555
C21_2 C20_2 1_555 1_555
C22_2 C20_2 1_555 1_555
C23_2 C22_2 1_555 1_555
H8_2 C23_2 1_555 1_555
C24_2 C23_2 1_555 1_555
C25_2 C21_2 1_555 1_555
H9_2 C25_2 1_555 1_555
C26_2 C27_2 1_555 1_555
C28_2 C26_2 1_555 1_555
H10_2 C28_2 1_555 1_555
C29_2 C21_2 1_555 1_555
C30_2 C29_2 1_555 1_555
C31_2 C28_2 1_555 1_555
C32_2 C26_2 1_555 1_555
H11_2 C32_2 1_555 1_555
C33_2 C32_2 1_555 1_555
C34_2 C31_2 1_555 1_555
H12_2 C34_2 1_555 1_555
C35_2 O18_2 1_555 1_555
C36_2 O19_2 1_555 1_555
In6_2 O9_2 1_555 1_555
O22_2 C37_2 1_555 1_555
O59_2 C37_2 1_555 1_555
O27_2 In6_2 1_555 1_555
O28_2 In4_2 1_555 1_555
O29_2 In4_2 1_555 1_555
C37_2 C42_2 1_555 1_555
C38_2 H13_2 1_555 1_555
C39_2 C38_2 1_555 1_555
C40_2 C38_2 1_555 1_555
C41_2 C40_2 1_555 1_555
H14_2 C41_2 1_555 1_555
C42_2 C41_2 1_555 1_555
C43_2 C39_2 1_555 1_555
H15_2 C43_2 1_555 1_555
C47_2 C39_2 1_555 1_555
C48_2 C47_2 1_555 1_555
C54_2 O28_2 1_555 1_555
In7_2 O12_2 1_555 1_555
O30_2 In7_2 1_555 1_555
O31_2 In12_2 1_555 1_555
O60_2 C55_2 1_555 1_555
O33_2 C63_2 1_555 1_555
O34_2 In7_2 1_555 1_555
O73 C71_2 1_555 1_555
O76 C71_2 1_555 1_555
O79 C72_2 1_555 1_555
O82 C72_2 1_555 1_555
C55_2 O31_2 1_555 1_555
C56_2 H19_2 1_555 1_555
C57_2 C56_2 1_555 1_555
C58_2 C56_2 1_555 1_555
C59_2 C58_2 1_555 1_555
H20_2 C59_2 1_555 1_555
C60_2 C55_2 1_555 1_555
C61_2 C57_2 1_555 1_555
H21_2 C61_2 1_555 1_555
C62_2 C63_2 1_555 1_555
C63_2 O30_2 1_555 1_555
C64_2 C62_2 1_555 1_555
H22_2 C64_2 1_555 1_555
C65_2 C57_2 1_555 1_555
C66_2 C65_2 1_555 1_555
C67_2 C64_2 1_555 1_555
C68_2 C62_2 1_555 1_555
H23_2 C68_2 1_555 1_555
C69_2 C68_2 1_555 1_555
C70_2 C67_2 1_555 1_555
H24_2 C70_2 1_555 1_555
C71_2 C69_2 1_555 1_555
C72_2 C58_2 1_555 1_555
O68_2 C81_2 1_555 1_555
O75 C89_2 1_555 1_555
O78 C89_2 1_555 1_555
C80_2 C81_2 1_555 1_555
C81_2 O39_2 1_555 1_555
C82_2 C80_2 1_555 1_555
H28_2 C82_2 1_555 1_555
C84_2 C83_2 1_555 1_555
C85_2 C82_2 1_555 1_555
C86_2 C80_2 1_555 1_555
H29_2 C86_2 1_555 1_555
C87_2 C86_2 1_555 1_555
C88_2 C85_2 1_555 1_555
H30_2 C88_2 1_555 1_555
C89_2 C87_2 1_555 1_555
O67_2 C99_2 1_555 1_555
O74 C107_2 1_555 1_555
O77 C107_2 1_555 1_555
C98_2 C99_2 1_555 1_555
C99_2 O48_2 1_555 1_555
C100_2 C98_2 1_555 1_555
H34_2 C100_2 1_555 1_555
C102_2 C101_2 1_555 1_555
C103_2 C100_2 1_555 1_555
C104_2 C98_2 1_555 1_555
H35_2 C104_2 1_555 1_555
C105_2 C104_2 1_555 1_555
C106_2 C103_2 1_555 1_555
H36_2 C106_2 1_555 1_555
C107_2 C105_2 1_555 1_555
O61_2 In12_2 1_555 1_555
O65_2 In12_2 1_555 1_555
O72_5 In7_2 1_555 1_555
O73_3 In6_2 1_555 1_555
O74_3 In2_3 1_555 1_555
O75_3 In4_2 1_555 1_555
O78_3 In4_2 1_555 1_555
O80_3 In4_2 1_555 1_555
O83_3 In4_2 1_555 1_555
O10_2 In6_2 1_555 1_555
C6_2 C7_2 1_555 1_555
O20_2 C36_2 1_555 1_555
C22_2 C36_2 1_555 1_555
C24_2 C25_2 1_555 1_555
C30_2 C31_2 1_555 1_555
C33_2 C34_2 1_555 1_555
C33_2 C35_2 1_555 1_555
O29_2 C54_2 1_555 1_555
C40_2 C54_2 1_555 1_555
C42_2 C43_2 1_555 1_555
C59_2 C60_2 1_555 1_555
C60_2 C61_2 1_555 1_555
C66_2 C67_2 1_555 1_555
C69_2 C70_2 1_555 1_555
C84_2 C85_2 1_555 1_555
C87_2 C88_2 1_555 1_555
C102_2 C103_2 1_555 1_555
C105_2 C106_2 1_555 1_555
In14_2 O21_2 1_555 1_555
O21_2 C45_2 1_555 1_555
O65_2 C45_2 1_555 1_555
O25_2 In14_2 1_555 1_555
O26_2 In6_3 1_555 1_555
C44_2 C45_2 1_555 1_555
C46_2 C44_2 1_555 1_555
H16_2 C46_2 1_555 1_555
C49_2 C46_2 1_555 1_555
C50_2 C44_2 1_555 1_555
H17_2 C50_2 1_555 1_555
C51_2 C50_2 1_555 1_555
C52_2 C49_2 1_555 1_555
C53_2 O26_2 1_555 1_555
O49_2 In14_2 1_555 1_555
O61_2 C91_2 1_555 1_555
O52_2 In16_2 1_555 1_555
O80 C108_2 1_555 1_555
C91_2 O49_2 1_555 1_555
C93_2 C92_2 1_555 1_555
C94_2 C92_2 1_555 1_555
C95_2 C94_2 1_555 1_555
H32_2 C95_2 1_555 1_555
C96_2 C91_2 1_555 1_555
C97_2 C93_2 1_555 1_555
H33_2 C97_2 1_555 1_555
C108_2 C94_2 1_555 1_555
O76_3 In6_3 1_555 1_555
O81_3 In6_3 1_555 1_555
O84_3 In6_3 1_555 1_555
C51_2 C52_2 1_555 1_555
C51_2 C53_2 1_555 1_555
C95_2 C96_2 1_555 1_555
C96_2 C97_2 1_555 1_555
In12_3 O6_3 1_555 1_555
O12_3 C19_3 1_555 1_555
O13_3 C19_3 1_555 1_555
O15_3 In12_3 1_555 1_555
C19_3 C24_3 1_555 1_555
C21_3 C20_3 1_555 1_555
C22_3 C20_3 1_555 1_555
C23_3 C22_3 1_555 1_555
H8_3 C23_3 1_555 1_555
C24_3 C23_3 1_555 1_555
C25_3 C21_3 1_555 1_555
H9_3 C25_3 1_555 1_555
C36_3 O81_2 1_555 1_555
In7_3 O12_3 1_555 1_555
O30_3 In7_3 1_555 1_555
O33_3 C63_3 1_555 1_555
O34_3 In7_3 1_555 1_555
O73_3 C71_3 1_555 1_555
C62_3 C63_3 1_555 1_555
C63_3 O30_3 1_555 1_555
C64_3 C62_3 1_555 1_555
H22_3 C64_3 1_555 1_555
C67_3 C64_3 1_555 1_555
C68_3 C62_3 1_555 1_555
H23_3 C68_3 1_555 1_555
C69_3 C68_3 1_555 1_555
C70_3 C67_3 1_555 1_555
C71_3 C69_3 1_555 1_555
In16_3 O13_3 1_555 1_555
O57_3 In7_3 1_555 1_555
O61_3 In12_3 1_555 1_555
O65_3 In12_3 1_555 1_555
O68_3 In7_3 1_555 1_555
O72_6 In7_3 1_555 1_555
O6_5 In14_3 1_555 1_555
C22_3 C36_3 1_555 1_555
C24_3 C25_3 1_555 1_555
O33_3 In16_3 1_555 1_555
C69_3 C70_3 1_555 1_555
In16_3 O72_6 1_555 1_555
In1_3 O1_3 1_555 1_555
O1_3 C9_3 1_555 1_555
O2_3 C1_3 1_555 1_555
O57_3 C1_3 1_555 1_555
O4_3 C9_3 1_555 1_555
O5_3 In1_3 1_555 1_555
O6_6 In1_3 1_555 1_555
O73_2 C17_3 1_555 1_555
O79_2 C18_3 1_555 1_555
O82_2 C18_3 1_555 1_555
C1_3 C6_3 1_555 1_555
C2_3 H1_3 1_555 1_555
C3_3 C2_3 1_555 1_555
C4_3 C2_3 1_555 1_555
C5_3 C4_3 1_555 1_555
H2_3 C5_3 1_555 1_555
C6_3 C5_3 1_555 1_555
C7_3 C3_3 1_555 1_555
H3_3 C7_3 1_555 1_555
C8_3 C9_3 1_555 1_555
C10_3 C8_3 1_555 1_555
H4_3 C10_3 1_555 1_555
C11_3 C3_3 1_555 1_555
C12_3 C11_3 1_555 1_555
C13_3 C10_3 1_555 1_555
C14_3 C8_3 1_555 1_555
H5_3 C14_3 1_555 1_555
C15_3 C14_3 1_555 1_555
C16_3 C13_3 1_555 1_555
H6_3 C16_3 1_555 1_555
C17_3 O76_2 1_555 1_555
C18_3 C4_3 1_555 1_555
O11_3 C27_3 1_555 1_555
O64_3 C27_3 1_555 1_555
O75_2 C35_3 1_555 1_555
C26_3 C27_3 1_555 1_555
C28_3 C26_3 1_555 1_555
H10_3 C28_3 1_555 1_555
C30_3 C29_3 1_555 1_555
C31_3 C28_3 1_555 1_555
C32_3 C26_3 1_555 1_555
H11_3 C32_3 1_555 1_555
C33_3 C32_3 1_555 1_555
C34_3 C31_3 1_555 1_555
H12_3 C34_3 1_555 1_555
C35_3 O78_2 1_555 1_555
O21_3 C45_3 1_555 1_555
O65_3 C45_3 1_555 1_555
C44_3 C45_3 1_555 1_555
C46_3 C44_3 1_555 1_555
H16_3 C46_3 1_555 1_555
C48_3 C47_3 1_555 1_555
C49_3 C46_3 1_555 1_555
C50_3 C44_3 1_555 1_555
H17_3 C50_3 1_555 1_555
C51_3 C50_3 1_555 1_555
C52_3 C49_3 1_555 1_555
H18_3 C52_3 1_555 1_555
C53_3 O74_2 1_555 1_555
O60_3 C55_3 1_555 1_555
O79_3 C72_3 1_555 1_555
O82_3 C72_3 1_555 1_555
C55_3 O31_3 1_555 1_555
C56_3 H19_3 1_555 1_555
C57_3 C56_3 1_555 1_555
C58_3 C56_3 1_555 1_555
C59_3 C58_3 1_555 1_555
H20_3 C59_3 1_555 1_555
C60_3 C55_3 1_555 1_555
C61_3 C57_3 1_555 1_555
H21_3 C61_3 1_555 1_555
C65_3 C57_3 1_555 1_555
C66_3 C65_3 1_555 1_555
C72_3 C58_3 1_555 1_555
In8_3 O2_3 1_555 1_555
O39_3 In8_3 1_555 1_555
O40_3 In1_3 1_555 1_555
O41_3 C73_3 1_555 1_555
O68_3 C81_3 1_555 1_555
O43_3 In8_3 1_555 1_555
O75_3 C89_3 1_555 1_555
O78_3 C89_3 1_555 1_555
O81_3 C90_3 1_555 1_555
O84_3 C90_3 1_555 1_555
C73_3 O40_3 1_555 1_555
C74_3 H25_3 1_555 1_555
C75_3 C74_3 1_555 1_555
C76_3 C74_3 1_555 1_555
C77_3 C76_3 1_555 1_555
H26_3 C77_3 1_555 1_555
C78_3 C73_3 1_555 1_555
C79_3 C75_3 1_555 1_555
H27_3 C79_3 1_555 1_555
C80_3 C81_3 1_555 1_555
C81_3 O39_3 1_555 1_555
C82_3 C80_3 1_555 1_555
H28_3 C82_3 1_555 1_555
C83_3 C75_3 1_555 1_555
C84_3 C83_3 1_555 1_555
C85_3 C82_3 1_555 1_555
C86_3 C80_3 1_555 1_555
H29_3 C86_3 1_555 1_555
C87_3 C86_3 1_555 1_555
C88_3 C85_3 1_555 1_555
H30_3 C88_3 1_555 1_555
C89_3 C87_3 1_555 1_555
C90_3 C76_3 1_555 1_555
O61_3 C91_3 1_555 1_555
O80_3 C108_3 1_555 1_555
O83_3 C108_3 1_555 1_555
C91_3 O49_3 1_555 1_555
C92_3 H31_3 1_555 1_555
C93_3 C92_3 1_555 1_555
C94_3 C92_3 1_555 1_555
C95_3 C94_3 1_555 1_555
H32_3 C95_3 1_555 1_555
C96_3 C91_3 1_555 1_555
C97_3 C93_3 1_555 1_555
H33_3 C97_3 1_555 1_555
C101_3 C93_3 1_555 1_555
C102_3 C101_3 1_555 1_555
C108_3 C94_3 1_555 1_555
O59_3 In8_3 1_555 1_555
O67_3 In8_3 1_555 1_555
O72_6 In8_3 1_555 1_555
C6_3 C7_3 1_555 1_555
C12_3 C13_3 1_555 1_555
C15_3 C16_3 1_555 1_555
C15_3 C17_3 1_555 1_555
C30_3 C31_3 1_555 1_555
C33_3 C34_3 1_555 1_555
C33_3 C35_3 1_555 1_555
O77_2 C53_3 1_555 1_555
C48_3 C49_3 1_555 1_555
C51_3 C52_3 1_555 1_555
C51_3 C53_3 1_555 1_555
C59_3 C60_3 1_555 1_555
C60_3 C61_3 1_555 1_555
C77_3 C78_3 1_555 1_555
C78_3 C79_3 1_555 1_555
C84_3 C85_3 1_555 1_555
C87_3 C88_3 1_555 1_555
C95_3 C96_3 1_555 1_555
C96_3 C97_3 1_555 1_555
O22_3 C37_3 1_555 1_555
O59_3 C37_3 1_555 1_555
O25_3 In14_3 1_555 1_555
C37_3 C42_3 1_555 1_555
C39_3 C38_3 1_555 1_555
C40_3 C38_3 1_555 1_555
C41_3 C40_3 1_555 1_555
H14_3 C41_3 1_555 1_555
C42_3 C41_3 1_555 1_555
C43_3 C39_3 1_555 1_555
H15_3 C43_3 1_555 1_555
C54_3 O80_2 1_555 1_555
In16_3 O22_3 1_555 1_555
O48_3 In16_3 1_555 1_555
O67_3 C99_3 1_555 1_555
O52_3 In16_3 1_555 1_555
O74_3 C107_3 1_555 1_555
C98_3 C99_3 1_555 1_555
C99_3 O48_3 1_555 1_555
C100_3 C98_3 1_555 1_555
H34_3 C100_3 1_555 1_555
C103_3 C100_3 1_555 1_555
C104_3 C98_3 1_555 1_555
H35_3 C104_3 1_555 1_555
C105_3 C104_3 1_555 1_555
C106_3 C103_3 1_555 1_555
C107_3 C105_3 1_555 1_555
C40_3 C54_3 1_555 1_555
C42_3 C43_3 1_555 1_555
C105_3 C106_3 1_555 1_555

#END
