
###############################################################################
#
# This file contains modified crystal structure data generated from the
# MOF subset of the Cambridge Structural Database (CSD) v543 
# hosted by the Cambridge Crystallographic Data Centre (CCDC).
#
# This work is licensed under the Creative Commons
# Attribution-NonCommercial-ShareAlike 4.0 International License.
# To view a copy of this license, visit
# http://creativecommons.org/licenses/by-nc-sa/4.0/
# or send a letter to
# Creative Commons, PO Box 1866, Mountain View, CA 94042, USA.
#
# CIF created using the CSD Python API on 29 September 2022
# The structure has been converted into the P1 space group
# The structure has a 3D framework
# The original CSD entry EQUYOH is in the tetragonal crystal system
# The framework has been calculated to contain at least 10.0% void space
# The void calculation uses a probe of radius 1.32A, grid spacing 0.4
# H atom positions have been added when not included in the experimental data
# Generated hydrogen atom positions removed from atoms on special positions
#
###############################################################################

data_EQUYOH
_chemical_formula_moiety         '(C240 H248 O138 Zn26)n'
_symmetry_cell_setting           triclinic
_symmetry_space_group_name_H-M   'P 1'
_symmetry_Int_Tables_number      1
_space_group_name_Hall           'P 1'
loop_
_symmetry_equiv_pos_site_id
_symmetry_equiv_pos_as_xyz
1 x,y,z
_cell_length_a                   18.9991(3)
_cell_length_b                   18.9991(3)
_cell_length_c                   29.2348(8)
_cell_angle_alpha                90
_cell_angle_beta                 90
_cell_angle_gamma                90
_cell_volume                     10552.8
loop_
_atom_site_label
_atom_site_type_symbol
_atom_site_fract_x
_atom_site_fract_y
_atom_site_fract_z
Zn1 Zn 0.21221(2) 0.21221(2) 0.212366(19)
Zn2 Zn 0.0000 0.0000 0.55101(3)
O1 O 0.23662(16) 0.12996(14) 0.25329(10)
O2 O 0.29186(15) 0.18699(15) 0.30968(11)
O3 O 0.36381(16) 0.0000 0.42085(11)
O4 O 0.10526(16) 0.0000 0.53824(13)
O5 O 0.1643(2) 0.1643(2) 0.16192(19)
O6 O 0.0000 0.0000 0.6179(3)
C1 C 0.2700(2) 0.1330(2) 0.28992(14)
C2 C 0.28422(17) 0.06285(19) 0.31424(13)
C3 C 0.2693(3) -0.0000 0.29341(17)
H1 H 0.2487 0.0000 0.2646
C4 C 0.31570(19) 0.0625(2) 0.35732(12)
H2 H 0.3270 0.1047 0.3717
C5 C 0.3298(3) 0.0000 0.37820(17)
C6 C 0.3236(2) -0.0000 0.45940(15)
C7 C 0.3590(3) 0.0000 0.5000
H3 H 0.4079 0.0000 0.5000
C8 C 0.2495(2) 0.0000 0.45885(15)
H4 H 0.2252 0.0000 0.4312
C9 C 0.2133(3) 0.0000 0.5000
C10 C 0.1351(3) 0.0000 0.5000
O9 O 0.36381(16) -0.0000 0.57915(11)
O10 O 0.10526(16) 0.0000 0.46176(13)
C13 C 0.2693(3) -0.0000 0.70659(17)
H5 H 0.2487 0.0000 0.7354
C15 C 0.3298(3) 0.0000 0.62180(17)
C16 C 0.3236(2) -0.0000 0.54060(15)
C17 C 0.2495(2) 0.0000 0.54115(15)
H7 H 0.2252 0.0000 0.5688
O11 O 0.23662(16) 0.12996(14) 0.74671(10)
O12 O 0.29186(15) 0.18699(15) 0.69032(11)
C18 C 0.2700(2) 0.1330(2) 0.71008(14)
C19 C 0.28422(17) 0.06285(19) 0.68576(13)
C20 C 0.31570(19) 0.0625(2) 0.64268(12)
H8 H 0.3270 0.1047 0.6283
Zn8 Zn 0.21221(2) 0.21221(2) 0.787634(19)
Zn11 Zn 0.28779(2) 0.28779(2) 0.712366(19)
Zn17 Zn 0.28779(2) 0.28779(2) 0.287634(19)
Zn18 Zn 0.0000 0.0000 0.44899(3)
O33 O 0.12996(14) 0.23662(16) 0.25329(10)
O37 O 0.31301(15) 0.20814(15) 0.19032(11)
O38 O 0.20814(15) 0.31301(15) 0.19032(11)
O42 O 0.0000 0.10526(16) 0.53824(13)
Zn2_2 Zn 0.0000 1.0000 0.55101(3)
O3_2 O 0.36381(16) 1.0000 0.42085(11)
O4_2 O 0.10526(16) 1.0000 0.53824(13)
O6_2 O 0.0000 1.0000 0.6179(3)
C3_2 C 0.2693(3) 1.0000 0.29341(17)
H1_2 H 0.2487 1.0000 0.2646
C5_2 C 0.3298(3) 1.0000 0.37820(17)
C6_2 C 0.3236(2) 1.0000 0.45940(15)
C7_2 C 0.3590(3) 1.0000 0.5000
H3_2 H 0.4079 1.0000 0.5000
C8_2 C 0.2495(2) 1.0000 0.45885(15)
H4_2 H 0.2252 1.0000 0.4312
C9_2 C 0.2133(3) 1.0000 0.5000
C10_2 C 0.1351(3) 1.0000 0.5000
O7 O 0.23662(16) 0.87004(14) 0.74671(10)
O8 O 0.29186(15) 0.81301(15) 0.69032(11)
O9_2 O 0.36381(16) 1.0000 0.57915(11)
O10_2 O 0.10526(16) 1.0000 0.46176(13)
C11 C 0.2700(2) 0.8670(2) 0.71008(14)
C12 C 0.28422(17) 0.93715(19) 0.68576(13)
C13_2 C 0.2693(3) 1.0000 0.70659(17)
H5_2 H 0.2487 1.0000 0.7354
C14 C 0.31570(19) 0.9375(2) 0.64268(12)
H6 H 0.3270 0.8953 0.6283
C15_2 C 0.3298(3) 1.0000 0.62180(17)
C16_2 C 0.3236(2) 1.0000 0.54060(15)
C17_2 C 0.2495(2) 1.0000 0.54115(15)
H7_2 H 0.2252 1.0000 0.5688
O13 O 0.23662(16) 0.87004(14) 0.25329(10)
O14 O 0.29186(15) 0.81301(15) 0.30968(11)
C21 C 0.2700(2) 0.8670(2) 0.28992(14)
C22 C 0.28422(17) 0.93715(19) 0.31424(13)
C23 C 0.31570(19) 0.9375(2) 0.35732(12)
H9 H 0.3270 0.8953 0.3717
Zn5 Zn 0.21221(2) 0.78779(2) 0.212366(19)
O29 O 0.1643(2) 0.8357(2) 0.16192(19)
Zn7 Zn 0.21221(2) 0.78779(2) 0.787634(19)
Zn12 Zn 0.28779(2) 0.71221(2) 0.712366(19)
Zn14 Zn 0.28779(2) 0.71221(2) 0.287634(19)
Zn18_2 Zn 0.0000 1.0000 0.44899(3)
O31 O 0.12996(14) 0.76338(16) 0.25329(10)
O34 O 0.20814(15) 0.68699(15) 0.19032(11)
O41 O 0.31301(15) 0.79186(15) 0.19032(11)
O43 O -0.0000 0.89474(16) 0.53824(13)
Zn2_3 Zn 1.0000 0.0000 0.55101(3)
O6_3 O 1.0000 0.0000 0.6179(3)
O17 O 0.63619(16) 0.0000 0.42085(11)
O18 O 0.89474(16) 0.0000 0.53824(13)
C26 C 0.7307(3) -0.0000 0.29341(17)
H10 H 0.7513 0.0000 0.2646
C28 C 0.6702(3) 0.0000 0.37820(17)
C29 C 0.6764(2) -0.0000 0.45940(15)
C30 C 0.6410(3) 0.0000 0.5000
H12 H 0.5921 0.0000 0.5000
C31 C 0.7505(2) 0.0000 0.45885(15)
H13 H 0.7748 0.0000 0.4312
C32 C 0.7867(3) 0.0000 0.5000
C33 C 0.8649(3) 0.0000 0.5000
O20 O 0.76338(16) 0.12996(14) 0.74671(10)
O21 O 0.70814(15) 0.18699(15) 0.69032(11)
O22 O 0.63619(16) -0.0000 0.57915(11)
O23 O 0.89474(16) 0.0000 0.46176(13)
C34 C 0.7300(2) 0.1330(2) 0.71008(14)
C35 C 0.71578(17) 0.06285(19) 0.68576(13)
C36 C 0.7307(3) -0.0000 0.70659(17)
H14 H 0.7513 0.0000 0.7354
C37 C 0.68430(19) 0.0625(2) 0.64268(12)
H15 H 0.6730 0.1047 0.6283
C38 C 0.6702(3) 0.0000 0.62180(17)
C39 C 0.6764(2) -0.0000 0.54060(15)
C40 C 0.7505(2) 0.0000 0.54115(15)
H16 H 0.7748 0.0000 0.5688
O26 O 0.76338(16) 0.12996(14) 0.25329(10)
O27 O 0.70814(15) 0.18699(15) 0.30968(11)
C44 C 0.7300(2) 0.1330(2) 0.28992(14)
C45 C 0.71578(17) 0.06285(19) 0.31424(13)
C46 C 0.68430(19) 0.0625(2) 0.35732(12)
H18 H 0.6730 0.1047 0.3717
Zn4 Zn 0.78779(2) 0.21221(2) 0.212366(19)
O28 O 0.8357(2) 0.1643(2) 0.16192(19)
Zn6 Zn 0.78779(2) 0.21221(2) 0.787634(19)
Zn13 Zn 0.71221(2) 0.28779(2) 0.712366(19)
Zn15 Zn 0.71221(2) 0.28779(2) 0.287634(19)
Zn18_3 Zn 1.0000 0.0000 0.44899(3)
O30 O 0.87004(14) 0.23662(16) 0.25329(10)
O35 O 0.79186(15) 0.31301(15) 0.19032(11)
O40 O 0.68699(15) 0.20814(15) 0.19032(11)
O42_2 O 1.0000 0.10526(16) 0.53824(13)
Zn2_4 Zn 1.0000 1.0000 0.55101(3)
O6_4 O 1.0000 1.0000 0.6179(3)
Zn3 Zn 0.78779(2) 0.78779(2) 0.212366(19)
O15 O 0.76338(16) 0.87004(14) 0.25329(10)
O16 O 0.70814(15) 0.81301(15) 0.30968(11)
O17_2 O 0.63619(16) 1.0000 0.42085(11)
O18_2 O 0.89474(16) 1.0000 0.53824(13)
O19 O 0.8357(2) 0.8357(2) 0.16192(19)
C24 C 0.7300(2) 0.8670(2) 0.28992(14)
C25 C 0.71578(17) 0.93715(19) 0.31424(13)
C26_2 C 0.7307(3) 1.0000 0.29341(17)
H10_2 H 0.7513 1.0000 0.2646
C27 C 0.68430(19) 0.9375(2) 0.35732(12)
H11 H 0.6730 0.8953 0.3717
C28_2 C 0.6702(3) 1.0000 0.37820(17)
C29_2 C 0.6764(2) 1.0000 0.45940(15)
C30_2 C 0.6410(3) 1.0000 0.5000
H12_2 H 0.5921 1.0000 0.5000
C31_2 C 0.7505(2) 1.0000 0.45885(15)
H13_2 H 0.7748 1.0000 0.4312
C32_2 C 0.7867(3) 1.0000 0.5000
C33_2 C 0.8649(3) 1.0000 0.5000
O22_2 O 0.63619(16) 1.0000 0.57915(11)
O23_2 O 0.89474(16) 1.0000 0.46176(13)
C36_2 C 0.7307(3) 1.0000 0.70659(17)
H14_2 H 0.7513 1.0000 0.7354
C38_2 C 0.6702(3) 1.0000 0.62180(17)
C39_2 C 0.6764(2) 1.0000 0.54060(15)
C40_2 C 0.7505(2) 1.0000 0.54115(15)
H16_2 H 0.7748 1.0000 0.5688
O24 O 0.76338(16) 0.87004(14) 0.74671(10)
O25 O 0.70814(15) 0.81301(15) 0.69032(11)
C41 C 0.7300(2) 0.8670(2) 0.71008(14)
C42 C 0.71578(17) 0.93715(19) 0.68576(13)
C43 C 0.68430(19) 0.9375(2) 0.64268(12)
H17 H 0.6730 0.8953 0.6283
Zn9 Zn 0.78779(2) 0.78779(2) 0.787634(19)
Zn10 Zn 0.71221(2) 0.71221(2) 0.712366(19)
Zn16 Zn 0.71221(2) 0.71221(2) 0.287634(19)
Zn18_4 Zn 1.0000 1.0000 0.44899(3)
O32 O 0.87004(14) 0.76338(16) 0.25329(10)
O36 O 0.68699(15) 0.79186(15) 0.19032(11)
O39 O 0.79186(15) 0.68699(15) 0.19032(11)
O43_2 O 1.0000 0.89474(16) 0.53824(13)
O3_3 O -0.0000 0.36381(16) 0.42085(11)
C3_3 C -0.0000 0.2693(3) 0.29341(17)
H1_3 H 0.0000 0.2487 0.2646
C5_3 C -0.0000 0.3298(3) 0.37820(17)
C6_3 C 0.0000 0.3236(2) 0.45940(15)
C7_3 C -0.0000 0.3590(3) 0.5000
H3_3 H 0.0000 0.4079 0.5000
C8_3 C -0.0000 0.2495(2) 0.45885(15)
H4_3 H -0.0000 0.2252 0.4312
C9_3 C -0.0000 0.2133(3) 0.5000
C10_3 C -0.0000 0.1351(3) 0.5000
O7_2 O 0.12996(14) 0.23662(16) 0.74671(10)
O8_2 O 0.18699(15) 0.29186(15) 0.69032(11)
O9_3 O 0.0000 0.36381(16) 0.57915(11)
O10_3 O -0.0000 0.10526(16) 0.46176(13)
C11_2 C 0.1330(2) 0.2700(2) 0.71008(14)
C12_2 C 0.06285(19) 0.28422(17) 0.68576(13)
C13_3 C 0.0000 0.2693(3) 0.70659(17)
H5_3 H 0.0000 0.2487 0.7354
C14_2 C 0.0625(2) 0.31570(19) 0.64268(12)
H6_2 H 0.1047 0.3270 0.6283
C15_3 C 0.0000 0.3298(3) 0.62180(17)
C16_3 C 0.0000 0.3236(2) 0.54060(15)
C17_3 C -0.0000 0.2495(2) 0.54115(15)
H7_3 H -0.0000 0.2252 0.5688
O14_2 O 0.18699(15) 0.29186(15) 0.30968(11)
C21_2 C 0.1330(2) 0.2700(2) 0.28992(14)
C22_2 C 0.06285(19) 0.28422(17) 0.31424(13)
C23_2 C 0.0625(2) 0.31570(19) 0.35732(12)
H9_2 H 0.1047 0.3270 0.3717
O16_2 O 0.18699(15) 0.70814(15) 0.30968(11)
O17_3 O -0.0000 0.63619(16) 0.42085(11)
C24_2 C 0.1330(2) 0.7300(2) 0.28992(14)
C25_2 C 0.06285(19) 0.71578(17) 0.31424(13)
C26_3 C 0.0000 0.7307(3) 0.29341(17)
H10_3 H -0.0000 0.7513 0.2646
C27_2 C 0.0625(2) 0.68430(19) 0.35732(12)
H11_2 H 0.1047 0.6730 0.3717
C28_3 C -0.0000 0.6702(3) 0.37820(17)
C29_3 C 0.0000 0.6764(2) 0.45940(15)
C30_3 C 0.0000 0.6410(3) 0.5000
H12_3 H -0.0000 0.5921 0.5000
C31_3 C 0.0000 0.7505(2) 0.45885(15)
H13_3 H 0.0000 0.7748 0.4312
C32_3 C -0.0000 0.7867(3) 0.5000
C33_3 C 0.0000 0.8649(3) 0.5000
O22_3 O -0.0000 0.63619(16) 0.57915(11)
O23_3 O 0.0000 0.89474(16) 0.46176(13)
C36_3 C 0.0000 0.7307(3) 0.70659(17)
H14_3 H 0.0000 0.7513 0.7354
C38_3 C -0.0000 0.6702(3) 0.62180(17)
C39_3 C 0.0000 0.6764(2) 0.54060(15)
C40_3 C 0.0000 0.7505(2) 0.54115(15)
H16_3 H -0.0000 0.7748 0.5688
O24_2 O 0.12996(14) 0.76338(16) 0.74671(10)
O25_2 O 0.18699(15) 0.70814(15) 0.69032(11)
C41_2 C 0.1330(2) 0.7300(2) 0.71008(14)
C42_2 C 0.06285(19) 0.71578(17) 0.68576(13)
C43_2 C 0.0625(2) 0.68430(19) 0.64268(12)
H17_2 H 0.1047 0.6730 0.6283
O2_2 O 0.81301(15) 0.29186(15) 0.30968(11)
O3_4 O 1.0000 0.36381(16) 0.42085(11)
C1_2 C 0.8670(2) 0.2700(2) 0.28992(14)
C2_2 C 0.93715(19) 0.28422(17) 0.31424(13)
C3_4 C 1.0000 0.2693(3) 0.29341(17)
H1_4 H 1.0000 0.2487 0.2646
C4_2 C 0.9375(2) 0.31570(19) 0.35732(12)
H2_2 H 0.8953 0.3270 0.3717
C5_4 C 1.0000 0.3298(3) 0.37820(17)
C6_4 C 1.0000 0.3236(2) 0.45940(15)
C7_4 C 1.0000 0.3590(3) 0.5000
H3_4 H 1.0000 0.4079 0.5000
C8_4 C 1.0000 0.2495(2) 0.45885(15)
H4_4 H 1.0000 0.2252 0.4312
C9_4 C 1.0000 0.2133(3) 0.5000
C10_4 C 1.0000 0.1351(3) 0.5000
O9_4 O 1.0000 0.36381(16) 0.57915(11)
O10_4 O 1.0000 0.10526(16) 0.46176(13)
C13_4 C 1.0000 0.2693(3) 0.70659(17)
H5_4 H 1.0000 0.2487 0.7354
C15_4 C 1.0000 0.3298(3) 0.62180(17)
C16_4 C 1.0000 0.3236(2) 0.54060(15)
C17_4 C 1.0000 0.2495(2) 0.54115(15)
H7_4 H 1.0000 0.2252 0.5688
O11_2 O 0.87004(14) 0.23662(16) 0.74671(10)
O12_2 O 0.81301(15) 0.29186(15) 0.69032(11)
C18_2 C 0.8670(2) 0.2700(2) 0.71008(14)
C19_2 C 0.93715(19) 0.28422(17) 0.68576(13)
C20_2 C 0.9375(2) 0.31570(19) 0.64268(12)
H8_2 H 0.8953 0.3270 0.6283
O17_4 O 1.0000 0.63619(16) 0.42085(11)
C26_4 C 1.0000 0.7307(3) 0.29341(17)
H10_4 H 1.0000 0.7513 0.2646
C28_4 C 1.0000 0.6702(3) 0.37820(17)
C29_4 C 1.0000 0.6764(2) 0.45940(15)
C30_4 C 1.0000 0.6410(3) 0.5000
H12_4 H 1.0000 0.5921 0.5000
C31_4 C 1.0000 0.7505(2) 0.45885(15)
H13_4 H 1.0000 0.7748 0.4312
C32_4 C 1.0000 0.7867(3) 0.5000
C33_4 C 1.0000 0.8649(3) 0.5000
O20_2 O 0.87004(14) 0.76338(16) 0.74671(10)
O21_2 O 0.81301(15) 0.70814(15) 0.69032(11)
O22_4 O 1.0000 0.63619(16) 0.57915(11)
O23_4 O 1.0000 0.89474(16) 0.46176(13)
C34_2 C 0.8670(2) 0.7300(2) 0.71008(14)
C35_2 C 0.93715(19) 0.71578(17) 0.68576(13)
C36_4 C 1.0000 0.7307(3) 0.70659(17)
H14_4 H 1.0000 0.7513 0.7354
C37_2 C 0.9375(2) 0.68430(19) 0.64268(12)
H15_2 H 0.8953 0.6730 0.6283
C38_4 C 1.0000 0.6702(3) 0.62180(17)
C39_4 C 1.0000 0.6764(2) 0.54060(15)
C40_4 C 1.0000 0.7505(2) 0.54115(15)
H16_4 H 1.0000 0.7748 0.5688
O27_2 O 0.81301(15) 0.70814(15) 0.30968(11)
C44_2 C 0.8670(2) 0.7300(2) 0.28992(14)
C45_2 C 0.93715(19) 0.71578(17) 0.31424(13)
C46_2 C 0.9375(2) 0.68430(19) 0.35732(12)
H18_2 H 0.8953 0.6730 0.3717
O6_5 O 0.0000 0.0000 0.3821(3)
O28_2 O 0.1643(2) 0.1643(2) 0.83808(19)
O35_2 O 0.20814(15) 0.31301(15) 0.80968(11)
O40_2 O 0.31301(15) 0.20814(15) 0.80968(11)
O6_6 O 0.0000 1.0000 0.3821(3)
O19_2 O 0.1643(2) 0.8357(2) 0.83808(19)
O36_2 O 0.31301(15) 0.79186(15) 0.80968(11)
O39_2 O 0.20814(15) 0.68699(15) 0.80968(11)
O5_2 O 0.8357(2) 0.1643(2) 0.83808(19)
O6_7 O 1.0000 0.0000 0.3821(3)
O37_2 O 0.68699(15) 0.20814(15) 0.80968(11)
O38_2 O 0.79186(15) 0.31301(15) 0.80968(11)
O6_8 O 1.0000 1.0000 0.3821(3)
O29_2 O 0.8357(2) 0.8357(2) 0.83808(19)
O34_2 O 0.79186(15) 0.68699(15) 0.80968(11)
O41_2 O 0.68699(15) 0.79186(15) 0.80968(11)
Zn2_5 Zn 0.5000 0.5000 0.05101(3)
O4_3 O 0.60526(16) 0.5000 0.03824(13)
O6_9 O 0.5000 0.5000 0.1179(3)
C7_5 C 0.8590(3) 0.5000 -0.0000
H3_5 H 0.9079 0.5000 -0.0000
C9_5 C 0.7133(3) 0.5000 -0.0000
C10_5 C 0.6351(3) 0.5000 -0.0000
O7_3 O 0.73662(16) 0.37004(14) 0.24671(10)
O9_5 O 0.86381(16) 0.5000 0.07915(11)
C11_3 C 0.7700(2) 0.3670(2) 0.21008(14)
C12_3 C 0.78422(17) 0.43715(19) 0.18576(13)
C13_5 C 0.7693(3) 0.5000 0.20659(17)
H5_5 H 0.7487 0.5000 0.2354
C14_3 C 0.81570(19) 0.4375(2) 0.14268(12)
H6_3 H 0.8270 0.3953 0.1283
C15_5 C 0.8298(3) 0.5000 0.12180(17)
C16_5 C 0.8236(2) 0.5000 0.04060(15)
C17_5 C 0.7495(2) 0.5000 0.04115(15)
H7_5 H 0.7252 0.5000 0.0688
O11_3 O 0.73662(16) 0.62996(14) 0.24671(10)
C18_3 C 0.7700(2) 0.6330(2) 0.21008(14)
C19_3 C 0.78422(17) 0.56285(19) 0.18576(13)
C20_3 C 0.81570(19) 0.5625(2) 0.14268(12)
H8_3 H 0.8270 0.6047 0.1283
O18_3 O 0.39474(16) 0.5000 0.03824(13)
C30_5 C 0.1410(3) 0.5000 -0.0000
H12_5 H 0.0921 0.5000 -0.0000
C32_5 C 0.2867(3) 0.5000 -0.0000
C33_5 C 0.3649(3) 0.5000 -0.0000
O20_3 O 0.26338(16) 0.62996(14) 0.24671(10)
O22_5 O 0.13619(16) 0.5000 0.07915(11)
C34_3 C 0.2300(2) 0.6330(2) 0.21008(14)
C35_3 C 0.21578(17) 0.56285(19) 0.18576(13)
C36_5 C 0.2307(3) 0.5000 0.20659(17)
H14_5 H 0.2513 0.5000 0.2354
C37_3 C 0.18430(19) 0.5625(2) 0.14268(12)
H15_3 H 0.1730 0.6047 0.1283
C38_5 C 0.1702(3) 0.5000 0.12180(17)
C39_5 C 0.1764(2) 0.5000 0.04060(15)
C40_5 C 0.2505(2) 0.5000 0.04115(15)
H16_5 H 0.2748 0.5000 0.0688
O24_3 O 0.26338(16) 0.37004(14) 0.24671(10)
C41_3 C 0.2300(2) 0.3670(2) 0.21008(14)
C42_3 C 0.21578(17) 0.43715(19) 0.18576(13)
C43_3 C 0.18430(19) 0.4375(2) 0.14268(12)
H17_3 H 0.1730 0.3953 0.1283
O42_3 O 0.5000 0.60526(16) 0.03824(13)
O43_3 O 0.5000 0.39474(16) 0.03824(13)
O1_2 O 0.73662(16) 0.62996(14) 0.75329(10)
O3_5 O 0.86381(16) 0.5000 0.92085(11)
O5_3 O 0.6643(2) 0.6643(2) 0.66192(19)
C1_3 C 0.7700(2) 0.6330(2) 0.78992(14)
C2_3 C 0.78422(17) 0.56285(19) 0.81424(13)
C3_5 C 0.7693(3) 0.5000 0.79341(17)
H1_5 H 0.7487 0.5000 0.7646
C4_3 C 0.81570(19) 0.5625(2) 0.85732(12)
H2_3 H 0.8270 0.6047 0.8717
C5_5 C 0.8298(3) 0.5000 0.87820(17)
C6_5 C 0.8236(2) 0.5000 0.95940(15)
C7_6 C 0.8590(3) 0.5000 1.0000
H3_6 H 0.9079 0.5000 1.0000
C8_5 C 0.7495(2) 0.5000 0.95885(15)
H4_5 H 0.7252 0.5000 0.9312
C9_6 C 0.7133(3) 0.5000 1.0000
C10_6 C 0.6351(3) 0.5000 1.0000
O10_5 O 0.60526(16) 0.5000 0.96176(13)
O13_2 O 0.73662(16) 0.37004(14) 0.75329(10)
C21_3 C 0.7700(2) 0.3670(2) 0.78992(14)
C22_3 C 0.78422(17) 0.43715(19) 0.81424(13)
C23_3 C 0.81570(19) 0.4375(2) 0.85732(12)
H9_3 H 0.8270 0.3953 0.8717
O15_2 O 0.26338(16) 0.37004(14) 0.75329(10)
O17_5 O 0.13619(16) 0.5000 0.92085(11)
O19_3 O 0.3357(2) 0.3357(2) 0.66192(19)
C24_3 C 0.2300(2) 0.3670(2) 0.78992(14)
C25_3 C 0.21578(17) 0.43715(19) 0.81424(13)
C26_5 C 0.2307(3) 0.5000 0.79341(17)
H10_5 H 0.2513 0.5000 0.7646
C27_3 C 0.18430(19) 0.4375(2) 0.85732(12)
H11_3 H 0.1730 0.3953 0.8717
C28_5 C 0.1702(3) 0.5000 0.87820(17)
C29_5 C 0.1764(2) 0.5000 0.95940(15)
C30_6 C 0.1410(3) 0.5000 1.0000
H12_6 H 0.0921 0.5000 1.0000
C31_5 C 0.2505(2) 0.5000 0.95885(15)
H13_5 H 0.2748 0.5000 0.9312
C32_6 C 0.2867(3) 0.5000 1.0000
C33_6 C 0.3649(3) 0.5000 1.0000
O23_5 O 0.39474(16) 0.5000 0.96176(13)
O26_2 O 0.26338(16) 0.62996(14) 0.75329(10)
C44_3 C 0.2300(2) 0.6330(2) 0.78992(14)
C45_3 C 0.21578(17) 0.56285(19) 0.81424(13)
C46_3 C 0.18430(19) 0.5625(2) 0.85732(12)
H18_3 H 0.1730 0.6047 0.8717
O28_3 O 0.3357(2) 0.6643(2) 0.66192(19)
O29_3 O 0.6643(2) 0.3357(2) 0.66192(19)
Zn18_5 Zn 0.5000 0.5000 0.94899(3)
O30_2 O 0.37004(14) 0.73662(16) 0.75329(10)
O31_2 O 0.62996(14) 0.26338(16) 0.75329(10)
O32_2 O 0.37004(14) 0.26338(16) 0.75329(10)
O33_2 O 0.62996(14) 0.73662(16) 0.75329(10)
C7_7 C 0.5000 0.8590(3) -0.0000
H3_7 H 0.5000 0.9079 -0.0000
C9_7 C 0.5000 0.7133(3) -0.0000
C10_7 C 0.5000 0.6351(3) -0.0000
O7_4 O 0.62996(14) 0.73662(16) 0.24671(10)
O9_6 O 0.5000 0.86381(16) 0.07915(11)
C11_4 C 0.6330(2) 0.7700(2) 0.21008(14)
C12_4 C 0.56285(19) 0.78422(17) 0.18576(13)
C13_6 C 0.5000 0.7693(3) 0.20659(17)
H5_6 H 0.5000 0.7487 0.2354
C14_4 C 0.5625(2) 0.81570(19) 0.14268(12)
H6_4 H 0.6047 0.8270 0.1283
C15_6 C 0.5000 0.8298(3) 0.12180(17)
C16_6 C 0.5000 0.8236(2) 0.04060(15)
C17_6 C 0.5000 0.7495(2) 0.04115(15)
H7_6 H 0.5000 0.7252 0.0688
O11_4 O 0.37004(14) 0.73662(16) 0.24671(10)
C18_4 C 0.3670(2) 0.7700(2) 0.21008(14)
C19_4 C 0.43715(19) 0.78422(17) 0.18576(13)
C20_4 C 0.4375(2) 0.81570(19) 0.14268(12)
H8_4 H 0.3953 0.8270 0.1283
C30_7 C 0.5000 0.1410(3) -0.0000
H12_7 H 0.5000 0.0921 -0.0000
C32_7 C 0.5000 0.2867(3) -0.0000
C33_7 C 0.5000 0.3649(3) -0.0000
O20_4 O 0.37004(14) 0.26338(16) 0.24671(10)
O22_6 O 0.5000 0.13619(16) 0.07915(11)
C34_4 C 0.3670(2) 0.2300(2) 0.21008(14)
C35_4 C 0.43715(19) 0.21578(17) 0.18576(13)
C36_6 C 0.5000 0.2307(3) 0.20659(17)
H14_6 H 0.5000 0.2513 0.2354
C37_4 C 0.4375(2) 0.18430(19) 0.14268(12)
H15_4 H 0.3953 0.1730 0.1283
C38_6 C 0.5000 0.1702(3) 0.12180(17)
C39_6 C 0.5000 0.1764(2) 0.04060(15)
C40_6 C 0.5000 0.2505(2) 0.04115(15)
H16_6 H 0.5000 0.2748 0.0688
O24_4 O 0.62996(14) 0.26338(16) 0.24671(10)
C41_4 C 0.6330(2) 0.2300(2) 0.21008(14)
C42_4 C 0.56285(19) 0.21578(17) 0.18576(13)
C43_4 C 0.5625(2) 0.18430(19) 0.14268(12)
H17_4 H 0.6047 0.1730 0.1283
O3_6 O 0.5000 0.86381(16) 0.92085(11)
C1_4 C 0.3670(2) 0.7700(2) 0.78992(14)
C2_4 C 0.43715(19) 0.78422(17) 0.81424(13)
C3_6 C 0.5000 0.7693(3) 0.79341(17)
H1_6 H 0.5000 0.7487 0.7646
C4_4 C 0.4375(2) 0.81570(19) 0.85732(12)
H2_4 H 0.3953 0.8270 0.8717
C5_6 C 0.5000 0.8298(3) 0.87820(17)
C6_6 C 0.5000 0.8236(2) 0.95940(15)
C7_8 C 0.5000 0.8590(3) 1.0000
H3_8 H 0.5000 0.9079 1.0000
C8_6 C 0.5000 0.7495(2) 0.95885(15)
H4_6 H 0.5000 0.7252 0.9312
C9_8 C 0.5000 0.7133(3) 1.0000
C10_8 C 0.5000 0.6351(3) 1.0000
O10_6 O 0.5000 0.60526(16) 0.96176(13)
C21_4 C 0.6330(2) 0.7700(2) 0.78992(14)
C22_4 C 0.56285(19) 0.78422(17) 0.81424(13)
C23_4 C 0.5625(2) 0.81570(19) 0.85732(12)
H9_4 H 0.6047 0.8270 0.8717
O17_6 O 0.5000 0.13619(16) 0.92085(11)
C24_4 C 0.6330(2) 0.2300(2) 0.78992(14)
C25_4 C 0.56285(19) 0.21578(17) 0.81424(13)
C26_6 C 0.5000 0.2307(3) 0.79341(17)
H10_6 H 0.5000 0.2513 0.7646
C27_4 C 0.5625(2) 0.18430(19) 0.85732(12)
H11_4 H 0.6047 0.1730 0.8717
C28_6 C 0.5000 0.1702(3) 0.87820(17)
C29_6 C 0.5000 0.1764(2) 0.95940(15)
C30_8 C 0.5000 0.1410(3) 1.0000
H12_8 H 0.5000 0.0921 1.0000
C31_6 C 0.5000 0.2505(2) 0.95885(15)
H13_6 H 0.5000 0.2748 0.9312
C32_8 C 0.5000 0.2867(3) 1.0000
C33_8 C 0.5000 0.3649(3) 1.0000
O23_6 O 0.5000 0.39474(16) 0.96176(13)
C44_4 C 0.3670(2) 0.2300(2) 0.78992(14)
C45_4 C 0.43715(19) 0.21578(17) 0.81424(13)
C46_4 C 0.4375(2) 0.18430(19) 0.85732(12)
H18_4 H 0.3953 0.1730 0.8717
O5_4 O 0.3357(2) 0.6643(2) 0.33808(19)
O19_4 O 0.6643(2) 0.3357(2) 0.33808(19)
O28_4 O 0.6643(2) 0.6643(2) 0.33808(19)
O29_4 O 0.3357(2) 0.3357(2) 0.33808(19)
O6_10 O 0.5000 0.5000 0.8821(3)
loop_
_geom_bond_atom_site_label_1
_geom_bond_atom_site_label_2
_geom_bond_site_symmetry_1
_geom_bond_site_symmetry_2
Zn1 O1 1_555 1_555
Zn2 O4 1_555 1_555
O1 C1 1_555 1_555
O2 C1 1_555 1_555
O3 C5 1_555 1_555
O4 C10 1_555 1_555
O5 Zn1 1_555 1_555
O6 Zn2 1_555 1_555
C1 C2 1_555 1_555
C2 C3 1_555 1_555
C3 H1 1_555 1_555
C4 C2 1_555 1_555
H2 C4 1_555 1_555
C5 C4 1_555 1_555
C6 O3 1_555 1_555
C7 C6 1_555 1_555
H3 C7 1_555 1_555
C8 C6 1_555 1_555
H4 C8 1_555 1_555
C9 C8 1_555 1_555
C10 C9 1_555 1_555
O9 C15 1_555 1_555
O10 C10 1_555 1_555
C13 H5 1_555 1_555
C16 C7 1_555 1_555
C17 C9 1_555 1_555
H7 C17 1_555 1_555
O11 C18 1_555 1_555
O12 C18 1_555 1_555
C18 C19 1_555 1_555
C19 C13 1_555 1_555
C20 C15 1_555 1_555
H8 C20 1_555 1_555
Zn8 O11 1_555 1_555
Zn11 O12 1_555 1_555
Zn17 O2 1_555 1_555
Zn18 O10 1_555 1_555
O33 Zn1 1_555 1_555
O37 Zn1 1_555 1_555
O38 Zn1 1_555 1_555
O42 Zn2 1_555 1_555
O9 C16 1_555 1_555
C16 C17 1_555 1_555
C19 C20 1_555 1_555
Zn2_2 O4_2 1_555 1_555
O3_2 C5_2 1_555 1_555
O4_2 C10_2 1_555 1_555
O6_2 Zn2_2 1_555 1_555
C3_2 H1_2 1_555 1_555
C6_2 O3_2 1_555 1_555
C7_2 C6_2 1_555 1_555
H3_2 C7_2 1_555 1_555
C8_2 C6_2 1_555 1_555
H4_2 C8_2 1_555 1_555
C9_2 C8_2 1_555 1_555
C10_2 C9_2 1_555 1_555
O7 C11 1_555 1_555
O8 C11 1_555 1_555
O9_2 C15_2 1_555 1_555
O10_2 C10_2 1_555 1_555
C11 C12 1_555 1_555
C12 C13_2 1_555 1_555
C13_2 H5_2 1_555 1_555
C14 C12 1_555 1_555
H6 C14 1_555 1_555
C15_2 C14 1_555 1_555
C16_2 C7_2 1_555 1_555
C17_2 C9_2 1_555 1_555
H7_2 C17_2 1_555 1_555
O13 C21 1_555 1_555
O14 C21 1_555 1_555
C21 C22 1_555 1_555
C22 C3_2 1_555 1_555
C23 C5_2 1_555 1_555
H9 C23 1_555 1_555
Zn5 O13 1_555 1_555
O29 Zn5 1_555 1_555
Zn7 O7 1_555 1_555
Zn12 O8 1_555 1_555
Zn14 O14 1_555 1_555
Zn18_2 O10_2 1_555 1_555
O31 Zn5 1_555 1_555
O34 Zn5 1_555 1_555
O41 Zn5 1_555 1_555
O43 Zn2_2 1_555 1_555
O9_2 C16_2 1_555 1_555
C16_2 C17_2 1_555 1_555
C22 C23 1_555 1_555
O6_3 Zn2_3 1_555 1_555
O17 C28 1_555 1_555
O18 Zn2_3 1_555 1_555
C26 H10 1_555 1_555
C29 O17 1_555 1_555
C30 C29 1_555 1_555
H12 C30 1_555 1_555
C31 C29 1_555 1_555
H13 C31 1_555 1_555
C32 C31 1_555 1_555
C33 O18 1_555 1_555
O20 C34 1_555 1_555
O21 C34 1_555 1_555
O22 C38 1_555 1_555
O23 C33 1_555 1_555
C34 C35 1_555 1_555
C35 C36 1_555 1_555
C36 H14 1_555 1_555
C37 C35 1_555 1_555
H15 C37 1_555 1_555
C38 C37 1_555 1_555
C39 C30 1_555 1_555
C40 C32 1_555 1_555
H16 C40 1_555 1_555
O26 C44 1_555 1_555
O27 C44 1_555 1_555
C44 C45 1_555 1_555
C45 C26 1_555 1_555
C46 C28 1_555 1_555
H18 C46 1_555 1_555
Zn4 O26 1_555 1_555
O28 Zn4 1_555 1_555
Zn6 O20 1_555 1_555
Zn13 O21 1_555 1_555
Zn15 O27 1_555 1_555
O30 Zn4 1_555 1_555
O35 Zn4 1_555 1_555
O40 Zn4 1_555 1_555
O42_2 Zn2_3 1_555 1_555
C32 C33 1_555 1_555
O22 C39 1_555 1_555
O23 Zn18_3 1_555 1_555
C39 C40 1_555 1_555
C45 C46 1_555 1_555
O6_4 Zn2_4 1_555 1_555
Zn3 O15 1_555 1_555
O15 C24 1_555 1_555
O16 C24 1_555 1_555
O17_2 C28_2 1_555 1_555
O18_2 Zn2_4 1_555 1_555
O19 Zn3 1_555 1_555
C24 C25 1_555 1_555
C25 C26_2 1_555 1_555
C26_2 H10_2 1_555 1_555
C27 C25 1_555 1_555
H11 C27 1_555 1_555
C28_2 C27 1_555 1_555
C29_2 O17_2 1_555 1_555
C30_2 C29_2 1_555 1_555
H12_2 C30_2 1_555 1_555
C31_2 C29_2 1_555 1_555
H13_2 C31_2 1_555 1_555
C32_2 C31_2 1_555 1_555
C33_2 O18_2 1_555 1_555
O22_2 C38_2 1_555 1_555
O23_2 C33_2 1_555 1_555
C36_2 H14_2 1_555 1_555
C39_2 C30_2 1_555 1_555
C40_2 C32_2 1_555 1_555
H16_2 C40_2 1_555 1_555
O24 C41 1_555 1_555
O25 C41 1_555 1_555
C41 C42 1_555 1_555
C42 C36_2 1_555 1_555
C43 C38_2 1_555 1_555
H17 C43 1_555 1_555
Zn9 O24 1_555 1_555
Zn10 O25 1_555 1_555
Zn16 O16 1_555 1_555
O32 Zn3 1_555 1_555
O36 Zn3 1_555 1_555
O39 Zn3 1_555 1_555
O43_2 Zn2_4 1_555 1_555
C32_2 C33_2 1_555 1_555
O22_2 C39_2 1_555 1_555
O23_2 Zn18_4 1_555 1_555
C39_2 C40_2 1_555 1_555
C42 C43 1_555 1_555
O3_3 C5_3 1_555 1_555
O42 C10_3 1_555 1_555
C3_3 H1_3 1_555 1_555
C6_3 O3_3 1_555 1_555
C7_3 C6_3 1_555 1_555
H3_3 C7_3 1_555 1_555
C8_3 C6_3 1_555 1_555
H4_3 C8_3 1_555 1_555
C9_3 C8_3 1_555 1_555
C10_3 C9_3 1_555 1_555
O7_2 C11_2 1_555 1_555
O8_2 C11_2 1_555 1_555
O9_3 C15_3 1_555 1_555
O10_3 C10_3 1_555 1_555
C11_2 C12_2 1_555 1_555
C12_2 C13_3 1_555 1_555
C13_3 H5_3 1_555 1_555
C14_2 C12_2 1_555 1_555
H6_2 C14_2 1_555 1_555
C15_3 C14_2 1_555 1_555
C16_3 C7_3 1_555 1_555
C17_3 C9_3 1_555 1_555
H7_3 C17_3 1_555 1_555
O33 C21_2 1_555 1_555
O14_2 C21_2 1_555 1_555
C21_2 C22_2 1_555 1_555
C22_2 C3_3 1_555 1_555
C23_2 C5_3 1_555 1_555
H9_2 C23_2 1_555 1_555
Zn8 O7_2 1_555 1_555
Zn11 O8_2 1_555 1_555
Zn17 O14_2 1_555 1_555
Zn18 O10_3 1_555 1_555
O9_3 C16_3 1_555 1_555
C16_3 C17_3 1_555 1_555
C22_2 C23_2 1_555 1_555
O31 C24_2 1_555 1_555
O16_2 C24_2 1_555 1_555
O17_3 C28_3 1_555 1_555
C24_2 C25_2 1_555 1_555
C25_2 C26_3 1_555 1_555
C26_3 H10_3 1_555 1_555
C27_2 C25_2 1_555 1_555
H11_2 C27_2 1_555 1_555
C28_3 C27_2 1_555 1_555
C29_3 O17_3 1_555 1_555
C30_3 C29_3 1_555 1_555
H12_3 C30_3 1_555 1_555
C31_3 C29_3 1_555 1_555
H13_3 C31_3 1_555 1_555
C32_3 C31_3 1_555 1_555
C33_3 O43 1_555 1_555
O22_3 C38_3 1_555 1_555
O23_3 C33_3 1_555 1_555
C36_3 H14_3 1_555 1_555
C39_3 C30_3 1_555 1_555
C40_3 C32_3 1_555 1_555
H16_3 C40_3 1_555 1_555
O24_2 C41_2 1_555 1_555
O25_2 C41_2 1_555 1_555
C41_2 C42_2 1_555 1_555
C42_2 C36_3 1_555 1_555
C43_2 C38_3 1_555 1_555
H17_2 C43_2 1_555 1_555
Zn7 O24_2 1_555 1_555
Zn12 O25_2 1_555 1_555
Zn14 O16_2 1_555 1_555
C32_3 C33_3 1_555 1_555
O22_3 C39_3 1_555 1_555
O23_3 Zn18_2 1_555 1_555
C39_3 C40_3 1_555 1_555
C42_2 C43_2 1_555 1_555
O30 C1_2 1_555 1_555
O2_2 C1_2 1_555 1_555
O3_4 C5_4 1_555 1_555
O42_2 C10_4 1_555 1_555
C1_2 C2_2 1_555 1_555
C2_2 C3_4 1_555 1_555
C3_4 H1_4 1_555 1_555
C4_2 C2_2 1_555 1_555
H2_2 C4_2 1_555 1_555
C5_4 C4_2 1_555 1_555
C6_4 O3_4 1_555 1_555
C7_4 C6_4 1_555 1_555
H3_4 C7_4 1_555 1_555
C8_4 C6_4 1_555 1_555
H4_4 C8_4 1_555 1_555
C9_4 C8_4 1_555 1_555
C10_4 C9_4 1_555 1_555
O9_4 C15_4 1_555 1_555
O10_4 C10_4 1_555 1_555
C13_4 H5_4 1_555 1_555
C16_4 C7_4 1_555 1_555
C17_4 C9_4 1_555 1_555
H7_4 C17_4 1_555 1_555
O11_2 C18_2 1_555 1_555
O12_2 C18_2 1_555 1_555
C18_2 C19_2 1_555 1_555
C19_2 C13_4 1_555 1_555
C20_2 C15_4 1_555 1_555
H8_2 C20_2 1_555 1_555
Zn6 O11_2 1_555 1_555
Zn13 O12_2 1_555 1_555
Zn15 O2_2 1_555 1_555
Zn18_3 O10_4 1_555 1_555
O9_4 C16_4 1_555 1_555
C16_4 C17_4 1_555 1_555
C19_2 C20_2 1_555 1_555
O17_4 C28_4 1_555 1_555
C26_4 H10_4 1_555 1_555
C29_4 O17_4 1_555 1_555
C30_4 C29_4 1_555 1_555
H12_4 C30_4 1_555 1_555
C31_4 C29_4 1_555 1_555
H13_4 C31_4 1_555 1_555
C32_4 C31_4 1_555 1_555
C33_4 O43_2 1_555 1_555
O20_2 C34_2 1_555 1_555
O21_2 C34_2 1_555 1_555
O22_4 C38_4 1_555 1_555
O23_4 C33_4 1_555 1_555
C34_2 C35_2 1_555 1_555
C35_2 C36_4 1_555 1_555
C36_4 H14_4 1_555 1_555
C37_2 C35_2 1_555 1_555
H15_2 C37_2 1_555 1_555
C38_4 C37_2 1_555 1_555
C39_4 C30_4 1_555 1_555
C40_4 C32_4 1_555 1_555
H16_4 C40_4 1_555 1_555
O32 C44_2 1_555 1_555
O27_2 C44_2 1_555 1_555
C44_2 C45_2 1_555 1_555
C45_2 C26_4 1_555 1_555
C46_2 C28_4 1_555 1_555
H18_2 C46_2 1_555 1_555
Zn9 O20_2 1_555 1_555
Zn10 O21_2 1_555 1_555
Zn16 O27_2 1_555 1_555
C32_4 C33_4 1_555 1_555
O22_4 C39_4 1_555 1_555
O23_4 Zn18_4 1_555 1_555
C39_4 C40_4 1_555 1_555
C45_2 C46_2 1_555 1_555
O6_5 Zn18 1_555 1_555
O28_2 Zn8 1_555 1_555
O35_2 Zn8 1_555 1_555
O40_2 Zn8 1_555 1_555
O6_6 Zn18_2 1_555 1_555
O19_2 Zn7 1_555 1_555
O36_2 Zn7 1_555 1_555
O39_2 Zn7 1_555 1_555
O5_2 Zn6 1_555 1_555
O6_7 Zn18_3 1_555 1_555
O37_2 Zn6 1_555 1_555
O38_2 Zn6 1_555 1_555
O6_8 Zn18_4 1_555 1_555
O29_2 Zn9 1_555 1_555
O34_2 Zn9 1_555 1_555
O41_2 Zn9 1_555 1_555
Zn2_5 O4_3 1_555 1_555
O4_3 C10_5 1_555 1_555
O6_9 Zn2_5 1_555 1_555
H3_5 C7_5 1_555 1_555
C10_5 C9_5 1_555 1_555
O7_3 C11_3 1_555 1_555
O35 C11_3 1_555 1_555
O9_5 C15_5 1_555 1_555
C11_3 C12_3 1_555 1_555
C12_3 C13_5 1_555 1_555
C13_5 H5_5 1_555 1_555
C14_3 C12_3 1_555 1_555
H6_3 C14_3 1_555 1_555
C15_5 C14_3 1_555 1_555
C16_5 C7_5 1_555 1_555
C17_5 C9_5 1_555 1_555
H7_5 C17_5 1_555 1_555
O11_3 C18_3 1_555 1_555
O39 C18_3 1_555 1_555
C18_3 C19_3 1_555 1_555
C19_3 C13_5 1_555 1_555
C20_3 C15_5 1_555 1_555
H8_3 C20_3 1_555 1_555
O18_3 Zn2_5 1_555 1_555
H12_5 C30_5 1_555 1_555
C33_5 O18_3 1_555 1_555
O20_3 C34_3 1_555 1_555
O34 C34_3 1_555 1_555
O22_5 C38_5 1_555 1_555
C34_3 C35_3 1_555 1_555
C35_3 C36_5 1_555 1_555
C36_5 H14_5 1_555 1_555
C37_3 C35_3 1_555 1_555
H15_3 C37_3 1_555 1_555
C38_5 C37_3 1_555 1_555
C39_5 C30_5 1_555 1_555
C40_5 C32_5 1_555 1_555
H16_5 C40_5 1_555 1_555
O24_3 C41_3 1_555 1_555
O38 C41_3 1_555 1_555
C41_3 C42_3 1_555 1_555
C42_3 C36_5 1_555 1_555
C43_3 C38_5 1_555 1_555
H17_3 C43_3 1_555 1_555
Zn14 O20_3 1_555 1_555
Zn15 O7_3 1_555 1_555
Zn16 O11_3 1_555 1_555
Zn17 O24_3 1_555 1_555
O42_3 Zn2_5 1_555 1_555
O43_3 Zn2_5 1_555 1_555
O9_5 C16_5 1_555 1_555
C16_5 C17_5 1_555 1_555
C19_3 C20_3 1_555 1_555
C32_5 C33_5 1_555 1_555
O22_5 C39_5 1_555 1_555
C39_5 C40_5 1_555 1_555
C42_3 C43_3 1_555 1_555
Zn10 O1_2 1_555 1_555
O1_2 C1_3 1_555 1_555
O34_2 C1_3 1_555 1_555
O3_5 C5_5 1_555 1_555
O5_3 Zn10 1_555 1_555
C1_3 C2_3 1_555 1_555
C2_3 C3_5 1_555 1_555
C3_5 H1_5 1_555 1_555
C4_3 C2_3 1_555 1_555
H2_3 C4_3 1_555 1_555
C5_5 C4_3 1_555 1_555
C6_5 O3_5 1_555 1_555
C7_6 C6_5 1_555 1_555
H3_6 C7_6 1_555 1_555
C8_5 C6_5 1_555 1_555
H4_5 C8_5 1_555 1_555
C9_6 C8_5 1_555 1_555
C10_6 C9_6 1_555 1_555
O10_5 C10_6 1_555 1_555
O13_2 C21_3 1_555 1_555
O38_2 C21_3 1_555 1_555
C21_3 C22_3 1_555 1_555
C22_3 C3_5 1_555 1_555
C23_3 C5_5 1_555 1_555
H9_3 C23_3 1_555 1_555
Zn11 O15_2 1_555 1_555
O15_2 C24_3 1_555 1_555
O35_2 C24_3 1_555 1_555
O17_5 C28_5 1_555 1_555
O19_3 Zn11 1_555 1_555
C24_3 C25_3 1_555 1_555
C25_3 C26_5 1_555 1_555
C26_5 H10_5 1_555 1_555
C27_3 C25_3 1_555 1_555
H11_3 C27_3 1_555 1_555
C28_5 C27_3 1_555 1_555
C29_5 O17_5 1_555 1_555
C30_6 C29_5 1_555 1_555
H12_6 C30_6 1_555 1_555
C31_5 C29_5 1_555 1_555
H13_5 C31_5 1_555 1_555
C32_6 C31_5 1_555 1_555
O23_5 C33_6 1_555 1_555
O26_2 C44_3 1_555 1_555
O39_2 C44_3 1_555 1_555
C44_3 C45_3 1_555 1_555
C45_3 C26_5 1_555 1_555
C46_3 C28_5 1_555 1_555
H18_3 C46_3 1_555 1_555
Zn12 O26_2 1_555 1_555
O28_3 Zn12 1_555 1_555
Zn13 O13_2 1_555 1_555
O29_3 Zn13 1_555 1_555
Zn18_5 O10_5 1_555 1_555
O30_2 Zn12 1_555 1_555
O31_2 Zn13 1_555 1_555
O32_2 Zn11 1_555 1_555
O33_2 Zn10 1_555 1_555
C22_3 C23_3 1_555 1_555
C32_6 C33_6 1_555 1_555
O23_5 Zn18_5 1_555 1_555
C45_3 C46_3 1_555 1_555
O42_3 C10_7 1_555 1_555
H3_7 C7_7 1_555 1_555
C10_7 C9_7 1_555 1_555
O7_4 C11_4 1_555 1_555
O36 C11_4 1_555 1_555
O9_6 C15_6 1_555 1_555
C11_4 C12_4 1_555 1_555
C12_4 C13_6 1_555 1_555
C13_6 H5_6 1_555 1_555
C14_4 C12_4 1_555 1_555
H6_4 C14_4 1_555 1_555
C15_6 C14_4 1_555 1_555
C16_6 C7_7 1_555 1_555
C17_6 C9_7 1_555 1_555
H7_6 C17_6 1_555 1_555
O11_4 C18_4 1_555 1_555
O41 C18_4 1_555 1_555
C18_4 C19_4 1_555 1_555
C19_4 C13_6 1_555 1_555
C20_4 C15_6 1_555 1_555
H8_4 C20_4 1_555 1_555
H12_7 C30_7 1_555 1_555
C33_7 O43_3 1_555 1_555
O20_4 C34_4 1_555 1_555
O37 C34_4 1_555 1_555
O22_6 C38_6 1_555 1_555
C34_4 C35_4 1_555 1_555
C35_4 C36_6 1_555 1_555
C36_6 H14_6 1_555 1_555
C37_4 C35_4 1_555 1_555
H15_4 C37_4 1_555 1_555
C38_6 C37_4 1_555 1_555
C39_6 C30_7 1_555 1_555
C40_6 C32_7 1_555 1_555
H16_6 C40_6 1_555 1_555
O24_4 C41_4 1_555 1_555
O40 C41_4 1_555 1_555
C41_4 C42_4 1_555 1_555
C42_4 C36_6 1_555 1_555
C43_4 C38_6 1_555 1_555
H17_4 C43_4 1_555 1_555
Zn17 O20_4 1_555 1_555
Zn16 O7_4 1_555 1_555
Zn14 O11_4 1_555 1_555
Zn15 O24_4 1_555 1_555
O9_6 C16_6 1_555 1_555
C16_6 C17_6 1_555 1_555
C19_4 C20_4 1_555 1_555
C32_7 C33_7 1_555 1_555
O22_6 C39_6 1_555 1_555
C39_6 C40_6 1_555 1_555
C42_4 C43_4 1_555 1_555
O30_2 C1_4 1_555 1_555
O36_2 C1_4 1_555 1_555
O3_6 C5_6 1_555 1_555
C1_4 C2_4 1_555 1_555
C2_4 C3_6 1_555 1_555
C3_6 H1_6 1_555 1_555
C4_4 C2_4 1_555 1_555
H2_4 C4_4 1_555 1_555
C5_6 C4_4 1_555 1_555
C6_6 O3_6 1_555 1_555
C7_8 C6_6 1_555 1_555
H3_8 C7_8 1_555 1_555
C8_6 C6_6 1_555 1_555
H4_6 C8_6 1_555 1_555
C9_8 C8_6 1_555 1_555
C10_8 C9_8 1_555 1_555
O10_6 C10_8 1_555 1_555
O33_2 C21_4 1_555 1_555
O41_2 C21_4 1_555 1_555
C21_4 C22_4 1_555 1_555
C22_4 C3_6 1_555 1_555
C23_4 C5_6 1_555 1_555
H9_4 C23_4 1_555 1_555
O31_2 C24_4 1_555 1_555
O37_2 C24_4 1_555 1_555
O17_6 C28_6 1_555 1_555
C24_4 C25_4 1_555 1_555
C25_4 C26_6 1_555 1_555
C26_6 H10_6 1_555 1_555
C27_4 C25_4 1_555 1_555
H11_4 C27_4 1_555 1_555
C28_6 C27_4 1_555 1_555
C29_6 O17_6 1_555 1_555
C30_8 C29_6 1_555 1_555
H12_8 C30_8 1_555 1_555
C31_6 C29_6 1_555 1_555
H13_6 C31_6 1_555 1_555
C32_8 C31_6 1_555 1_555
O23_6 C33_8 1_555 1_555
O32_2 C44_4 1_555 1_555
O40_2 C44_4 1_555 1_555
C44_4 C45_4 1_555 1_555
C45_4 C26_6 1_555 1_555
C46_4 C28_6 1_555 1_555
H18_4 C46_4 1_555 1_555
Zn18_5 O10_6 1_555 1_555
C22_4 C23_4 1_555 1_555
C32_8 C33_8 1_555 1_555
O23_6 Zn18_5 1_555 1_555
C45_4 C46_4 1_555 1_555
O5_4 Zn14 1_555 1_555
O19_4 Zn15 1_555 1_555
O28_4 Zn16 1_555 1_555
O29_4 Zn17 1_555 1_555
O6_10 Zn18_5 1_555 1_555

#END
