
###############################################################################
#
# This file contains modified crystal structure data generated from the
# MOF subset of the Cambridge Structural Database (CSD) v543 
# hosted by the Cambridge Crystallographic Data Centre (CCDC).
#
# This work is licensed under the Creative Commons
# Attribution-NonCommercial-ShareAlike 4.0 International License.
# To view a copy of this license, visit
# http://creativecommons.org/licenses/by-nc-sa/4.0/
# or send a letter to
# Creative Commons, PO Box 1866, Mountain View, CA 94042, USA.
#
# CIF created using the CSD Python API on 29 September 2022
# The structure has been converted into the P1 space group
# The structure has a 3D framework
# The original CSD entry ERAMES is in the hexagonal crystal system
# The framework has been calculated to contain at least 10.0% void space
# The void calculation uses a probe of radius 1.32A, grid spacing 0.4
# H atom positions have been added when not included in the experimental data
# Generated hydrogen atom positions removed from atoms on special positions
#
###############################################################################

data_ERAMES
_chemical_formula_moiety         '(C168 H180 N12 O64 Zr12)n'
_symmetry_cell_setting           triclinic
_symmetry_space_group_name_H-M   'P 1'
_symmetry_Int_Tables_number      1
_space_group_name_Hall           'P 1'
loop_
_symmetry_equiv_pos_site_id
_symmetry_equiv_pos_as_xyz
1 x,y,z
_cell_length_a                   23.3072(3)
_cell_length_b                   23.3072(3)
_cell_length_c                   21.8206(9)
_cell_angle_alpha                90
_cell_angle_beta                 90
_cell_angle_gamma                120
_cell_volume                     10265.4
loop_
_atom_site_label
_atom_site_type_symbol
_atom_site_fract_x
_atom_site_fract_y
_atom_site_fract_z
Zr1 Zr 0.38325(2) 0.61675(2) 0.65686(5)
Zr2 Zr 0.28270(2) 0.56541(4) 0.52673(6)
O1 O 0.2793(2) 0.5587(4) 0.6291(5)
O2 O 0.3759(2) 0.6241(2) 0.5619(5)
O3 O 0.3014(3) 0.4838(3) 0.5500(4)
O4 O 0.5565(3) 0.3266(3) 0.2372(4)
O5 O 0.3333 0.6667 0.4801(7)
O6 O 0.2165(5) 0.5475(5) 0.4445(5)
N1 N 0.3732(5) 0.2336(5) 0.5105(6)
C1 C 0.3228(4) 0.4063(4) 0.5980(5)
C2 C 0.3339(6) 0.4774(5) 0.5923(7)
C3 C 0.5015(7) 0.2507(4) 0.3164(8)
C4 C 0.5378(7) 0.2689(3) 0.2560(7)
C5 C 0.3423(7) 0.3868(6) 0.6494(8)
H1 H 0.3601 0.4170 0.6815
C6 C 0.3137(5) 0.2828(5) 0.6059(7)
C7 C 0.2953(7) 0.3588(6) 0.5512(7)
H2 H 0.2777 0.3676 0.5166
C8 C 0.3952(7) 0.1976(4) 0.4812(9)
C9 C 0.3404(7) 0.2008(7) 0.5631(8)
C10 C 0.2942(7) 0.3011(7) 0.5558(8)
H3 H 0.2791 0.2723 0.5225
C11 C 0.4827(8) 0.2922(8) 0.3412(8)
H4 H 0.4935 0.3318 0.3217
C12 C 0.3375(6) 0.3251(6) 0.6573(9)
H5 H 0.3492 0.3128 0.6937
C13 C 0.4281(9) 0.2141(4) 0.4216(10)
C14 C 0.3128(7) 0.2188(7) 0.6091(7)
C15 C 0.4471(8) 0.2752(8) 0.3961(8)
H6 H 0.4364 0.3044 0.4151
C16 C 0.2857(6) 0.1741(6) 0.6610(8)
H7 H 0.2683 0.1854 0.6943
O7 O 0.3333 0.6667 0.6792(10)
O8 O 0.3682(3) 0.5185(3) 0.6324(4)
O10 O 0.5565(3) 0.2299(4) 0.2372(4)
N2 N 0.3732(5) 0.1396(7) 0.5105(6)
C20 C 0.3137(5) 0.0309(7) 0.6059(7)
C22 C 0.3404(7) 0.1396(10) 0.5631(8)
H10 H 0.2791 0.0068 0.5225
C24 C 0.4827(8) 0.1905(11) 0.3412(8)
H11 H 0.4935 0.1617 0.3217
C25 C 0.3375(6) 0.0124(8) 0.6573(9)
H12 H 0.3492 0.0364 0.6937
C26 C 0.3128(7) 0.0940(10) 0.6091(7)
C27 C 0.4471(8) 0.1719(11) 0.3961(8)
H13 H 0.4364 0.1320 0.4151
C28 C 0.2857(6) 0.1116(8) 0.6610(8)
H14 H 0.2683 0.0829 0.6943
O17 O 0.1824(4) 0.4838(3) 0.5500(4)
C45 C 0.0835(6) 0.4063(4) 0.5980(5)
C46 C 0.1435(8) 0.4774(5) 0.5923(7)
C47 C 0.0445(9) 0.3868(6) 0.6494(8)
H22 H 0.0569 0.4170 0.6815
C49 C 0.0635(9) 0.3588(6) 0.5512(7)
H23 H 0.0899 0.3676 0.5166
C51 C 0.0069(10) 0.3011(7) 0.5558(8)
O19 O 0.1503(4) 0.5185(3) 0.6324(4)
Zr5 Zr 0.23350(3) 0.61675(2) 0.65686(5)
O29 O 0.2482(3) 0.6241(2) 0.5619(5)
O30 O 0.3310(7) 0.5475(5) 0.4445(5)
Zr9 Zr 0.38325(2) 0.76650(3) 0.65686(5)
Zr12 Zr 0.61675(2) 0.38325(2) 0.15686(5)
Zr14 Zr 0.61675(2) 0.23350(3) 0.15686(5)
Zr18 Zr 0.43459(4) 0.71729(4) 0.52673(6)
Zr19 Zr 0.28271(4) 0.71730(2) 0.52673(6)
O34 O 0.4413(4) 0.7206(4) 0.6291(5)
O35 O 0.2794(4) 0.7207(2) 0.6291(5)
O39 O 0.4435(3) 0.6734(3) 0.7372(4)
O41 O 0.2299(4) 0.5565(3) 0.7372(4)
O42 O 0.3266(3) 0.5565(3) 0.7372(4)
O43 O 0.2299(4) 0.6734(3) 0.7372(4)
O49 O 0.1503(4) 0.6318(3) 0.6324(4)
O50 O 0.4815(3) 0.6318(3) 0.6324(4)
H43 H 0.379694 0.2779 0.496188
O9 O 0.3014(3) 0.8176(4) 0.5500(4)
C17 C 0.3228(4) 0.9165(6) 0.5980(5)
C18 C 0.3339(6) 0.8565(8) 0.5923(7)
C19 C 0.3423(7) 0.9555(9) 0.6494(8)
H8 H 0.3601 0.9431 0.6815
C21 C 0.2953(7) 0.9365(9) 0.5512(7)
H9 H 0.2777 0.9101 0.5166
C23 C 0.2942(7) 0.9931(10) 0.5558(8)
O11 O 0.3682(3) 0.8497(4) 0.6324(4)
O21 O 0.1824(4) 0.6986(3) 0.5500(4)
O23 O 0.3310(7) 0.7835(5) 0.4445(5)
C57 C 0.0835(6) 0.6772(4) 0.5980(5)
C58 C 0.1435(8) 0.6661(6) 0.5923(7)
C61 C 0.0445(9) 0.6577(7) 0.6494(8)
H29 H 0.0569 0.6399 0.6815
C63 C 0.0635(9) 0.7047(7) 0.5512(7)
H30 H 0.0899 0.7223 0.5166
C66 C 0.0069(10) 0.7058(7) 0.5558(8)
O31 O 0.3759(2) 0.7518(3) 0.5619(5)
O32 O 0.2165(5) 0.6690(7) 0.4445(5)
O40 O 0.3266(3) 0.7701(4) 0.7372(4)
O44 O 0.4435(3) 0.7701(4) 0.7372(4)
O48 O 0.4815(3) 0.8497(4) 0.6324(4)
O14 O 0.6734(3) 0.2299(4) 0.2372(4)
N3 N 0.7664(5) 0.1396(7) 0.5105(6)
C31 C 0.7493(4) 0.2508(8) 0.3164(8)
C32 C 0.7311(3) 0.2689(8) 0.2560(7)
C34 C 0.7172(5) 0.0309(7) 0.6059(7)
C36 C 0.8024(4) 0.1976(8) 0.4812(9)
C37 C 0.7992(7) 0.1396(10) 0.5631(8)
H17 H 0.7277 0.0068 0.5225
C39 C 0.7078(8) 0.1905(11) 0.3412(8)
H18 H 0.6682 0.1617 0.3217
C40 C 0.6749(6) 0.0124(8) 0.6573(9)
H19 H 0.6872 0.0364 0.6937
C41 C 0.7859(4) 0.2140(10) 0.4216(10)
C42 C 0.7812(7) 0.0940(10) 0.6091(7)
C43 C 0.7248(8) 0.1719(11) 0.3961(8)
H20 H 0.6956 0.1320 0.4151
C44 C 0.8259(6) 0.1116(8) 0.6610(8)
H21 H 0.8146 0.0829 0.6943
O18 O 0.7701(4) 0.3266(3) 0.2372(4)
N4 N 0.8604(7) 0.2336(5) 0.5105(6)
C48 C 0.9691(7) 0.2828(5) 0.6059(7)
C50 C 0.8604(10) 0.2008(7) 0.5631(8)
H24 H 0.9932 0.2723 0.5225
C52 C 0.8095(11) 0.2922(8) 0.3412(8)
H25 H 0.8383 0.3318 0.3217
C53 C 0.9876(8) 0.3251(6) 0.6573(9)
H26 H 0.9636 0.3128 0.6937
C54 C 0.9060(10) 0.2188(7) 0.6091(7)
C55 C 0.8281(11) 0.2752(8) 0.3961(8)
H27 H 0.8680 0.3044 0.4151
C56 C 0.8884(8) 0.1741(6) 0.6610(8)
H28 H 0.9171 0.1854 0.6943
Zr16 Zr 0.76650(3) 0.38325(2) 0.15686(5)
H48 H 0.7221 0.101794 0.496188
O13 O 0.5162(3) 0.8176(4) 0.5500(4)
O15 O 0.4525(5) 0.6690(7) 0.4445(5)
C29 C 0.5937(4) 0.9165(6) 0.5980(5)
C30 C 0.5226(5) 0.8565(8) 0.5923(7)
C33 C 0.6132(6) 0.9555(9) 0.6494(8)
H15 H 0.5830 0.9431 0.6815
C35 C 0.6412(6) 0.9365(9) 0.5512(7)
H16 H 0.6324 0.9101 0.5166
C38 C 0.6989(7) 0.9931(10) 0.5558(8)
O22 O 0.7701(4) 0.4435(3) 0.2372(4)
N5 N 0.8604(7) 0.6268(5) 0.5105(6)
C59 C 0.7492(8) 0.4985(7) 0.3164(8)
C60 C 0.7311(8) 0.4622(7) 0.2560(7)
C62 C 0.9691(7) 0.6863(5) 0.6059(7)
C64 C 0.8024(8) 0.6048(7) 0.4812(9)
C65 C 0.8604(10) 0.6596(7) 0.5631(8)
H31 H 0.9932 0.7209 0.5225
C67 C 0.8095(11) 0.5173(8) 0.3412(8)
H32 H 0.8383 0.5065 0.3217
C68 C 0.9876(8) 0.6625(6) 0.6573(9)
H33 H 0.9636 0.6508 0.6937
C69 C 0.7860(10) 0.5719(9) 0.4216(10)
C70 C 0.9060(10) 0.6872(7) 0.6091(7)
C71 C 0.8281(11) 0.5529(8) 0.3961(8)
H34 H 0.8680 0.5636 0.4151
C72 C 0.8884(8) 0.7143(6) 0.6610(8)
H35 H 0.9171 0.7317 0.6943
O25 O 0.5162(3) 0.6986(3) 0.5500(4)
O26 O 0.6734(3) 0.4435(3) 0.2372(4)
N6 N 0.7664(5) 0.6268(5) 0.5105(6)
C73 C 0.5937(4) 0.6772(4) 0.5980(5)
C74 C 0.5226(5) 0.6661(6) 0.5923(7)
C75 C 0.6132(6) 0.6577(7) 0.6494(8)
H36 H 0.5830 0.6399 0.6815
C76 C 0.7172(5) 0.6863(5) 0.6059(7)
C77 C 0.6412(6) 0.7047(7) 0.5512(7)
H37 H 0.6324 0.7223 0.5166
C78 C 0.7992(7) 0.6596(7) 0.5631(8)
C79 C 0.6989(7) 0.7058(7) 0.5558(8)
H38 H 0.7277 0.7209 0.5225
C80 C 0.7078(8) 0.5173(8) 0.3412(8)
H39 H 0.6682 0.5065 0.3217
C81 C 0.6749(6) 0.6625(6) 0.6573(9)
H40 H 0.6872 0.6508 0.6937
C82 C 0.7812(7) 0.6872(7) 0.6091(7)
C83 C 0.7248(8) 0.5529(8) 0.3961(8)
H41 H 0.6956 0.5636 0.4151
C84 C 0.8259(6) 0.7143(6) 0.6610(8)
H42 H 0.8146 0.7317 0.6943
O28 O 0.4525(5) 0.7835(5) 0.4445(5)
H55 H 0.898206 0.620306 0.496188
Zr3 Zr 0.56541(4) 0.28271(4) 0.02673(6)
O12 O 0.5587(4) 0.2794(4) 0.1291(5)
O13_2 O 0.4838(3) 0.1824(4) 0.0500(4)
C29_2 C 0.4063(4) 0.0835(6) 0.0980(5)
C30_2 C 0.4774(5) 0.1435(8) 0.0923(7)
C33_2 C 0.3868(6) 0.0445(9) 0.1494(8)
H15_2 H 0.4170 0.0569 0.1815
C35_2 C 0.3588(6) 0.0635(9) 0.0512(7)
H16_2 H 0.3676 0.0899 0.0166
C38_2 C 0.3011(7) 0.0069(10) 0.0558(8)
O16 O 0.5185(3) 0.1503(4) 0.1324(4)
N5_2 N 0.1396(7) 0.3732(5) 0.0105(6)
C62_2 C 0.0309(7) 0.3137(5) 0.1059(7)
C65_2 C 0.1396(10) 0.3404(7) 0.0631(8)
H31_2 H 0.0068 0.2791 0.0225
C68_2 C 0.0124(8) 0.3375(6) 0.1573(9)
H33_2 H 0.0364 0.3492 0.1937
C70_2 C 0.0940(10) 0.3128(7) 0.1091(7)
C72_2 C 0.1116(8) 0.2857(6) 0.1610(8)
H35_2 H 0.0829 0.2683 0.1943
O25_2 O 0.4838(3) 0.3014(3) 0.0500(4)
N6_2 N 0.2336(5) 0.3732(5) 0.0105(6)
C73_2 C 0.4063(4) 0.3228(4) 0.0980(5)
C74_2 C 0.4774(5) 0.3339(6) 0.0923(7)
C75_2 C 0.3868(6) 0.3423(7) 0.1494(8)
H36_2 H 0.4170 0.3601 0.1815
C76_2 C 0.2828(5) 0.3137(5) 0.1059(7)
C77_2 C 0.3588(6) 0.2953(7) 0.0512(7)
H37_2 H 0.3676 0.2777 0.0166
C78_2 C 0.2008(7) 0.3404(7) 0.0631(8)
C79_2 C 0.3011(7) 0.2942(7) 0.0558(8)
H38_2 H 0.2723 0.2791 0.0225
C81_2 C 0.3251(6) 0.3375(6) 0.1573(9)
H40_2 H 0.3128 0.3492 0.1937
C82_2 C 0.2188(7) 0.3128(7) 0.1091(7)
C84_2 C 0.1741(6) 0.2857(6) 0.1610(8)
H42_2 H 0.1854 0.2683 0.1943
O27 O 0.5185(3) 0.3682(3) 0.1324(4)
O36 O 0.6241(2) 0.3759(2) 0.0619(5)
O37 O 0.6241(2) 0.2482(3) 0.0619(5)
O15_2 O 0.5475(5) 0.3310(7) 0.9445(5)
C59_2 C 0.2508(8) 0.5015(7) 0.8164(8)
C60_2 C 0.2689(8) 0.5378(7) 0.7560(7)
C64_2 C 0.1976(8) 0.3952(7) 0.9812(9)
C67_2 C 0.1905(11) 0.4827(8) 0.8412(8)
H32_2 H 0.1617 0.4935 0.8217
C69_2 C 0.2140(10) 0.4281(9) 0.9216(10)
C71_2 C 0.1719(11) 0.4471(8) 0.8961(8)
H34_2 H 0.1320 0.4364 0.9151
C80_2 C 0.2922(8) 0.4827(8) 0.8412(8)
H39_2 H 0.3318 0.4935 0.8217
C83_2 C 0.2752(8) 0.4471(8) 0.8961(8)
H41_2 H 0.3044 0.4364 0.9151
O28_2 O 0.5475(5) 0.2165(5) 0.9445(5)
O45 O 0.6667 0.3333 0.9801(7)
H55_2 H 0.101794 0.379694 0.996188
C31_2 C 0.2507(4) 0.7492(8) 0.8164(8)
C32_2 C 0.2689(3) 0.7311(8) 0.7560(7)
C36_2 C 0.1976(4) 0.8024(8) 0.9812(9)
C39_2 C 0.2922(8) 0.8095(11) 0.8412(8)
H18_2 H 0.3318 0.8383 0.8217
C41_2 C 0.2141(4) 0.7860(10) 0.9216(10)
C43_2 C 0.2752(8) 0.8281(11) 0.8961(8)
H20_2 H 0.3044 0.8680 0.9151
C52_2 C 0.1905(11) 0.7078(8) 0.8412(8)
H25_2 H 0.1617 0.6682 0.8217
C55_2 C 0.1719(11) 0.7248(8) 0.8961(8)
H27_2 H 0.1320 0.6956 0.9151
H48_2 H 0.2779 0.898206 0.996188
O9_2 O 0.6986(3) 0.1824(4) 0.0500(4)
C17_2 C 0.6772(4) 0.0835(6) 0.0980(5)
C18_2 C 0.6661(6) 0.1435(8) 0.0923(7)
C19_2 C 0.6577(7) 0.0445(9) 0.1494(8)
H8_2 H 0.6399 0.0569 0.1815
C21_2 C 0.7047(7) 0.0635(9) 0.0512(7)
H9_2 H 0.7223 0.0899 0.0166
C23_2 C 0.7058(7) 0.0069(10) 0.0558(8)
O11_2 O 0.6318(3) 0.1503(4) 0.1324(4)
Zr4 Zr 0.71729(4) 0.28270(2) 0.02673(6)
O20 O 0.7206(4) 0.2793(2) 0.1291(5)
O21_2 O 0.8176(4) 0.3014(3) 0.0500(4)
C57_2 C 0.9165(6) 0.3228(4) 0.0980(5)
C58_2 C 0.8565(8) 0.3339(6) 0.0923(7)
C61_2 C 0.9555(9) 0.3423(7) 0.1494(8)
H29_2 H 0.9431 0.3601 0.1815
C63_2 C 0.9365(9) 0.2953(7) 0.0512(7)
H30_2 H 0.9101 0.2777 0.0166
C66_2 C 0.9931(10) 0.2942(7) 0.0558(8)
O24 O 0.8497(4) 0.3682(3) 0.1324(4)
O38 O 0.7518(3) 0.3759(2) 0.0619(5)
O47 O 0.6667 0.3333 0.1792(10)
O23_2 O 0.6690(7) 0.2165(5) 0.9445(5)
O32_2 O 0.7835(5) 0.3310(7) 0.9445(5)
Zr2_2 Zr 0.71730(2) 0.43459(4) 0.02673(6)
O1_2 O 0.7207(2) 0.4413(4) 0.1291(5)
O3_2 O 0.6986(3) 0.5162(3) 0.0500(4)
N1_2 N 0.6268(5) 0.7664(5) 0.0105(6)
C1_2 C 0.6772(4) 0.5937(4) 0.0980(5)
C2_2 C 0.6661(6) 0.5226(5) 0.0923(7)
C5_2 C 0.6577(7) 0.6132(6) 0.1494(8)
H1_2 H 0.6399 0.5830 0.1815
C6_2 C 0.6863(5) 0.7172(5) 0.1059(7)
C7_2 C 0.7047(7) 0.6412(6) 0.0512(7)
H2_2 H 0.7223 0.6324 0.0166
C9_2 C 0.6596(7) 0.7992(7) 0.0631(8)
C10_2 C 0.7058(7) 0.6989(7) 0.0558(8)
H3_2 H 0.7209 0.7277 0.0225
C12_2 C 0.6625(6) 0.6749(6) 0.1573(9)
H5_2 H 0.6508 0.6872 0.1937
C14_2 C 0.6872(7) 0.7812(7) 0.1091(7)
C16_2 C 0.7143(6) 0.8259(6) 0.1610(8)
H7_2 H 0.7317 0.8146 0.1943
O8_2 O 0.6318(3) 0.4815(3) 0.1324(4)
N2_2 N 0.6268(5) 0.8604(7) 0.0105(6)
C20_2 C 0.6863(5) 0.9691(7) 0.1059(7)
C22_2 C 0.6596(7) 0.8604(10) 0.0631(8)
H10_2 H 0.7209 0.9932 0.0225
C25_2 C 0.6625(6) 0.9876(8) 0.1573(9)
H12_2 H 0.6508 0.9636 0.1937
C26_2 C 0.6872(7) 0.9060(10) 0.1091(7)
C28_2 C 0.7143(6) 0.8884(8) 0.1610(8)
H14_2 H 0.7317 0.9171 0.1943
O17_2 O 0.8176(4) 0.5162(3) 0.0500(4)
C45_2 C 0.9165(6) 0.5937(4) 0.0980(5)
C46_2 C 0.8565(8) 0.5226(5) 0.0923(7)
C47_2 C 0.9555(9) 0.6132(6) 0.1494(8)
H22_2 H 0.9431 0.5830 0.1815
C49_2 C 0.9365(9) 0.6412(6) 0.0512(7)
H23_2 H 0.9101 0.6324 0.0166
C51_2 C 0.9931(10) 0.6989(7) 0.0558(8)
O19_2 O 0.8497(4) 0.4815(3) 0.1324(4)
O6_2 O 0.7835(5) 0.4525(5) 0.9445(5)
C3_2 C 0.4985(7) 0.7493(4) 0.8164(8)
C4_2 C 0.4622(7) 0.7311(3) 0.7560(7)
C8_2 C 0.6048(7) 0.8024(4) 0.9812(9)
C11_2 C 0.5173(8) 0.7078(8) 0.8412(8)
H4_2 H 0.5065 0.6682 0.8217
C13_2 C 0.5719(9) 0.7859(4) 0.9216(10)
C15_2 C 0.5529(8) 0.7248(8) 0.8961(8)
H6_2 H 0.5636 0.6956 0.9151
C24_2 C 0.5173(8) 0.8095(11) 0.8412(8)
H11_2 H 0.5065 0.8383 0.8217
C27_2 C 0.5529(8) 0.8281(11) 0.8961(8)
H13_2 H 0.5636 0.8680 0.9151
O30_2 O 0.6690(7) 0.4525(5) 0.9445(5)
H43_2 H 0.620306 0.7221 0.996188
H55_3 H 0.379694 0.101794 0.496188
H48_3 H 0.898206 0.2779 0.496188
H43_3 H 0.7221 0.620306 0.496188
H43_4 H 0.2779 0.379694 0.996188
H48_4 H 0.101794 0.7221 0.996188
H55_4 H 0.620306 0.898206 0.996188
N3_2 N 0.2336(5) 0.8604(7) 0.0105(6)
C34_2 C 0.2828(5) 0.9691(7) 0.1059(7)
C37_2 C 0.2008(7) 0.8604(10) 0.0631(8)
H17_2 H 0.2723 0.9932 0.0225
C40_2 C 0.3251(6) 0.9876(8) 0.1573(9)
H19_2 H 0.3128 0.9636 0.1937
C42_2 C 0.2188(7) 0.9060(10) 0.1091(7)
C44_2 C 0.1741(6) 0.8884(8) 0.1610(8)
H21_2 H 0.1854 0.9171 0.1943
N4_2 N 0.1396(7) 0.7664(5) 0.0105(6)
C48_2 C 0.0309(7) 0.7172(5) 0.1059(7)
C50_2 C 0.1396(10) 0.7992(7) 0.0631(8)
H24_2 H 0.0068 0.7277 0.0225
C53_2 C 0.0124(8) 0.6749(6) 0.1573(9)
H26_2 H 0.0364 0.6872 0.1937
C54_2 C 0.0940(10) 0.7812(7) 0.1091(7)
C56_2 C 0.1116(8) 0.8259(6) 0.1610(8)
H28_2 H 0.0829 0.8146 0.1943
loop_
_geom_bond_atom_site_label_1
_geom_bond_atom_site_label_2
_geom_bond_site_symmetry_1
_geom_bond_site_symmetry_2
Zr1 O1 1_555 1_555
Zr2 O1 1_555 1_555
O1 Zr5 1_555 1_555
O2 Zr1 1_555 1_555
O3 Zr2 1_555 1_555
O4 C4 1_555 1_555
O5 Zr2 1_555 1_555
O6 Zr2 1_555 1_555
N1 C8 1_555 1_555
C1 C2 1_555 1_555
C2 O3 1_555 1_555
C3 C4 1_555 1_555
C4 O10 1_555 1_555
C5 C1 1_555 1_555
H1 C5 1_555 1_555
C6 C10 1_555 1_555
C7 C1 1_555 1_555
H2 C7 1_555 1_555
C8 C13 1_555 1_555
C9 N1 1_555 1_555
C10 C7 1_555 1_555
H3 C10 1_555 1_555
C11 C3 1_555 1_555
H4 C11 1_555 1_555
C12 C5 1_555 1_555
H5 C12 1_555 1_555
C13 C15 1_555 1_555
C14 C6 1_555 1_555
C15 C11 1_555 1_555
H6 C15 1_555 1_555
C16 C14 1_555 1_555
H7 C16 1_555 1_555
O7 Zr1 1_555 1_555
O8 Zr1 1_555 1_555
O10 Zr14 1_555 1_555
N2 C8 1_555 1_555
C22 C9 1_555 1_555
C24 C3 1_555 1_555
H11 C24 1_555 1_555
H12 C25 1_555 1_555
C26 C20 1_555 1_555
C27 C13 1_555 1_555
H13 C27 1_555 1_555
C28 C16 1_555 1_555
H14 C28 1_555 1_555
O17 Zr2 1_555 1_555
C45 C46 1_555 1_555
C46 O17 1_555 1_555
C47 C45 1_555 1_555
H22 C47 1_555 1_555
C49 C45 1_555 1_555
H23 C49 1_555 1_555
C51 C49 1_555 1_555
O19 C46 1_555 1_555
Zr5 O7 1_555 1_555
O29 Zr2 1_555 1_555
O30 Zr2 1_555 1_555
Zr9 O7 1_555 1_555
Zr12 O4 1_555 1_555
Zr18 O2 1_555 1_555
Zr19 O5 1_555 1_555
O34 Zr1 1_555 1_555
O35 Zr5 1_555 1_555
O39 Zr1 1_555 1_555
O41 Zr5 1_555 1_555
O42 Zr1 1_555 1_555
O43 Zr5 1_555 1_555
O49 Zr5 1_555 1_555
O50 Zr1 1_555 1_555
Zr2 O2 1_555 1_555
O5 Zr18 1_555 1_555
C2 O8 1_555 1_555
C6 C12 1_555 1_555
C9 C14 1_555 1_555
N2 C22 1_555 1_555
C20 C25 1_555 1_555
C22 C26 1_555 1_555
C24 C27 1_555 1_555
C26 C28 1_555 1_555
O19 Zr5 1_555 1_555
Zr5 O29 1_555 1_555
O29 Zr19 1_555 1_555
Zr9 O34 1_555 1_555
Zr9 O35 1_555 1_555
Zr18 O34 1_555 1_555
Zr19 O35 1_555 1_555
N1 H43 1_555 1_555
O9 C18 1_555 1_555
C17 C18 1_555 1_555
C18 O11 1_555 1_555
C19 C17 1_555 1_555
H8 C19 1_555 1_555
C21 C17 1_555 1_555
H9 C21 1_555 1_555
C23 C21 1_555 1_555
O11 Zr9 1_555 1_555
Zr19 O9 1_555 1_555
O21 Zr19 1_555 1_555
O23 Zr19 1_555 1_555
C57 C58 1_555 1_555
C58 O21 1_555 1_555
C61 C57 1_555 1_555
H29 C61 1_555 1_555
C63 C57 1_555 1_555
H30 C63 1_555 1_555
C66 C63 1_555 1_555
O49 C58 1_555 1_555
O31 Zr19 1_555 1_555
O32 Zr19 1_555 1_555
Zr18 O31 1_555 1_555
O40 Zr9 1_555 1_555
O44 Zr9 1_555 1_555
O48 Zr9 1_555 1_555
Zr9 O31 1_555 1_555
O14 C32 1_555 1_555
N3 C36 1_555 1_555
C31 C32 1_555 1_555
C32 O18 1_555 1_555
C36 C41 1_555 1_555
C37 N3 1_555 1_555
C39 C31 1_555 1_555
H18 C39 1_555 1_555
H19 C40 1_555 1_555
C41 C43 1_555 1_555
C42 C34 1_555 1_555
C43 C39 1_555 1_555
H20 C43 1_555 1_555
C44 C42 1_555 1_555
H21 C44 1_555 1_555
O18 Zr16 1_555 1_555
N4 C36 1_555 1_555
C50 C37 1_555 1_555
C52 C31 1_555 1_555
H25 C52 1_555 1_555
H26 C53 1_555 1_555
C54 C48 1_555 1_555
C55 C41 1_555 1_555
H27 C55 1_555 1_555
C56 C44 1_555 1_555
H28 C56 1_555 1_555
Zr14 O14 1_555 1_555
C34 C40 1_555 1_555
C37 C42 1_555 1_555
N4 C50 1_555 1_555
C48 C53 1_555 1_555
C50 C54 1_555 1_555
C52 C55 1_555 1_555
C54 C56 1_555 1_555
N3 H48 1_555 1_555
O13 Zr18 1_555 1_555
O15 Zr18 1_555 1_555
C29 C30 1_555 1_555
C30 O13 1_555 1_555
C33 C29 1_555 1_555
H15 C33 1_555 1_555
C35 C29 1_555 1_555
H16 C35 1_555 1_555
C38 C35 1_555 1_555
O48 C30 1_555 1_555
O22 C60 1_555 1_555
N5 C64 1_555 1_555
C59 C60 1_555 1_555
C60 O26 1_555 1_555
C64 C69 1_555 1_555
C65 N5 1_555 1_555
C67 C59 1_555 1_555
H32 C67 1_555 1_555
H33 C68 1_555 1_555
C69 C71 1_555 1_555
C70 C62 1_555 1_555
C71 C67 1_555 1_555
H34 C71 1_555 1_555
C72 C70 1_555 1_555
H35 C72 1_555 1_555
O25 Zr18 1_555 1_555
O26 Zr12 1_555 1_555
N6 C64 1_555 1_555
C73 C74 1_555 1_555
C74 O25 1_555 1_555
C75 C73 1_555 1_555
H36 C75 1_555 1_555
C76 C79 1_555 1_555
C77 C73 1_555 1_555
H37 C77 1_555 1_555
C78 C65 1_555 1_555
C79 C77 1_555 1_555
H38 C79 1_555 1_555
C80 C59 1_555 1_555
H39 C80 1_555 1_555
C81 C75 1_555 1_555
H40 C81 1_555 1_555
C82 C76 1_555 1_555
C83 C69 1_555 1_555
H41 C83 1_555 1_555
C84 C72 1_555 1_555
H42 C84 1_555 1_555
O50 C74 1_555 1_555
O28 Zr18 1_555 1_555
Zr16 O22 1_555 1_555
C62 C68 1_555 1_555
C65 C70 1_555 1_555
N6 C78 1_555 1_555
C76 C81 1_555 1_555
C78 C82 1_555 1_555
C80 C83 1_555 1_555
C82 C84 1_555 1_555
N5 H55 1_555 1_555
Zr3 O12 1_555 1_555
O12 Zr12 1_555 1_555
O13_2 Zr3 1_555 1_555
C29_2 C30_2 1_555 1_555
C30_2 O13_2 1_555 1_555
C33_2 C29_2 1_555 1_555
H15_2 C33_2 1_555 1_555
C35_2 C29_2 1_555 1_555
H16_2 C35_2 1_555 1_555
C38_2 C35_2 1_555 1_555
O16 C30_2 1_555 1_555
C65_2 N5_2 1_555 1_555
H33_2 C68_2 1_555 1_555
C70_2 C62_2 1_555 1_555
C72_2 C70_2 1_555 1_555
H35_2 C72_2 1_555 1_555
O25_2 Zr3 1_555 1_555
C73_2 C74_2 1_555 1_555
C74_2 O25_2 1_555 1_555
C75_2 C73_2 1_555 1_555
H36_2 C75_2 1_555 1_555
C76_2 C79_2 1_555 1_555
C77_2 C73_2 1_555 1_555
H37_2 C77_2 1_555 1_555
C78_2 C65_2 1_555 1_555
C79_2 C77_2 1_555 1_555
H38_2 C79_2 1_555 1_555
C81_2 C75_2 1_555 1_555
H40_2 C81_2 1_555 1_555
C82_2 C76_2 1_555 1_555
C84_2 C72_2 1_555 1_555
H42_2 C84_2 1_555 1_555
O27 C74_2 1_555 1_555
Zr12 O27 1_555 1_555
Zr14 O12 1_555 1_555
O36 Zr3 1_555 1_555
O37 Zr3 1_555 1_555
O16 Zr14 1_555 1_555
C62_2 C68_2 1_555 1_555
C65_2 C70_2 1_555 1_555
N6_2 C78_2 1_555 1_555
C76_2 C81_2 1_555 1_555
C78_2 C82_2 1_555 1_555
C82_2 C84_2 1_555 1_555
Zr12 O36 1_555 1_555
Zr14 O37 1_555 1_555
O41 C60_2 1_555 1_555
C59_2 C60_2 1_555 1_555
C60_2 O42 1_555 1_555
C64_2 C69_2 1_555 1_555
C67_2 C59_2 1_555 1_555
H32_2 C67_2 1_555 1_555
C69_2 C71_2 1_555 1_555
C71_2 C67_2 1_555 1_555
H34_2 C71_2 1_555 1_555
C80_2 C59_2 1_555 1_555
H39_2 C80_2 1_555 1_555
C83_2 C69_2 1_555 1_555
H41_2 C83_2 1_555 1_555
C80_2 C83_2 1_555 1_555
O40 C32_2 1_555 1_555
C31_2 C32_2 1_555 1_555
C32_2 O43 1_555 1_555
C36_2 C41_2 1_555 1_555
C39_2 C31_2 1_555 1_555
H18_2 C39_2 1_555 1_555
C41_2 C43_2 1_555 1_555
C43_2 C39_2 1_555 1_555
H20_2 C43_2 1_555 1_555
C52_2 C31_2 1_555 1_555
H25_2 C52_2 1_555 1_555
C55_2 C41_2 1_555 1_555
H27_2 C55_2 1_555 1_555
C52_2 C55_2 1_555 1_555
O9_2 C18_2 1_555 1_555
C17_2 C18_2 1_555 1_555
C18_2 O11_2 1_555 1_555
C19_2 C17_2 1_555 1_555
H8_2 C19_2 1_555 1_555
C21_2 C17_2 1_555 1_555
H9_2 C21_2 1_555 1_555
C23_2 C21_2 1_555 1_555
O11_2 Zr14 1_555 1_555
Zr4 O9_2 1_555 1_555
O20 Zr4 1_555 1_555
O21_2 Zr4 1_555 1_555
C57_2 C58_2 1_555 1_555
C58_2 O21_2 1_555 1_555
C61_2 C57_2 1_555 1_555
H29_2 C61_2 1_555 1_555
C63_2 C57_2 1_555 1_555
H30_2 C63_2 1_555 1_555
C66_2 C63_2 1_555 1_555
O24 C58_2 1_555 1_555
Zr14 O20 1_555 1_555
O37 Zr4 1_555 1_555
Zr16 O20 1_555 1_555
O38 Zr4 1_555 1_555
O47 Zr14 1_555 1_555
O24 Zr16 1_555 1_555
Zr16 O38 1_555 1_555
Zr16 O47 1_555 1_555
Zr12 O1_2 1_555 1_555
Zr2_2 O1_2 1_555 1_555
O1_2 Zr16 1_555 1_555
O3_2 Zr2_2 1_555 1_555
C1_2 C2_2 1_555 1_555
C2_2 O3_2 1_555 1_555
C5_2 C1_2 1_555 1_555
H1_2 C5_2 1_555 1_555
C6_2 C10_2 1_555 1_555
C7_2 C1_2 1_555 1_555
H2_2 C7_2 1_555 1_555
C9_2 N1_2 1_555 1_555
C10_2 C7_2 1_555 1_555
H3_2 C10_2 1_555 1_555
C12_2 C5_2 1_555 1_555
H5_2 C12_2 1_555 1_555
C14_2 C6_2 1_555 1_555
C16_2 C14_2 1_555 1_555
H7_2 C16_2 1_555 1_555
O47 Zr12 1_555 1_555
O8_2 Zr12 1_555 1_555
C22_2 C9_2 1_555 1_555
H12_2 C25_2 1_555 1_555
C26_2 C20_2 1_555 1_555
C28_2 C16_2 1_555 1_555
H14_2 C28_2 1_555 1_555
O17_2 Zr2_2 1_555 1_555
C45_2 C46_2 1_555 1_555
C46_2 O17_2 1_555 1_555
C47_2 C45_2 1_555 1_555
H22_2 C47_2 1_555 1_555
C49_2 C45_2 1_555 1_555
H23_2 C49_2 1_555 1_555
C51_2 C49_2 1_555 1_555
O19_2 C46_2 1_555 1_555
O38 Zr2_2 1_555 1_555
Zr2_2 O36 1_555 1_555
C2_2 O8_2 1_555 1_555
C6_2 C12_2 1_555 1_555
C9_2 C14_2 1_555 1_555
N2_2 C22_2 1_555 1_555
C20_2 C25_2 1_555 1_555
C22_2 C26_2 1_555 1_555
C26_2 C28_2 1_555 1_555
O19_2 Zr16 1_555 1_555
O39 C4_2 1_555 1_555
C3_2 C4_2 1_555 1_555
C4_2 O44 1_555 1_555
C8_2 C13_2 1_555 1_555
C11_2 C3_2 1_555 1_555
H4_2 C11_2 1_555 1_555
C13_2 C15_2 1_555 1_555
C15_2 C11_2 1_555 1_555
H6_2 C15_2 1_555 1_555
C24_2 C3_2 1_555 1_555
H11_2 C24_2 1_555 1_555
C27_2 C13_2 1_555 1_555
H13_2 C27_2 1_555 1_555
C24_2 C27_2 1_555 1_555
N2 H55_3 1_555 1_555
N4 H48_3 1_555 1_555
N6 H43_3 1_555 1_555
C37_2 N3_2 1_555 1_555
H19_2 C40_2 1_555 1_555
C42_2 C34_2 1_555 1_555
C44_2 C42_2 1_555 1_555
H21_2 C44_2 1_555 1_555
C50_2 C37_2 1_555 1_555
H26_2 C53_2 1_555 1_555
C54_2 C48_2 1_555 1_555
C56_2 C44_2 1_555 1_555
H28_2 C56_2 1_555 1_555
C34_2 C40_2 1_555 1_555
C37_2 C42_2 1_555 1_555
N4_2 C50_2 1_555 1_555
C48_2 C53_2 1_555 1_555
C50_2 C54_2 1_555 1_555
C54_2 C56_2 1_555 1_555

#END
