
###############################################################################
#
# This file contains modified crystal structure data generated from the
# MOF subset of the Cambridge Structural Database (CSD) v543 
# hosted by the Cambridge Crystallographic Data Centre (CCDC).
#
# This work is licensed under the Creative Commons
# Attribution-NonCommercial-ShareAlike 4.0 International License.
# To view a copy of this license, visit
# http://creativecommons.org/licenses/by-nc-sa/4.0/
# or send a letter to
# Creative Commons, PO Box 1866, Mountain View, CA 94042, USA.
#
# CIF created using the CSD Python API on 29 September 2022
# The structure has been converted into the P1 space group
# The structure has a 3D framework
# The original CSD entry ERAMER is in the tetragonal crystal system
# The framework has been calculated to contain at least 10.0% void space
# The void calculation uses a probe of radius 1.32A, grid spacing 0.4
# H atom positions have been added when not included in the experimental data
# Generated hydrogen atom positions removed from atoms on special positions
#
###############################################################################

data_ERAMER
_chemical_formula_moiety         '(C144 H224 O61 Zr17)n'
_symmetry_cell_setting           triclinic
_symmetry_space_group_name_H-M   'P 1'
_symmetry_Int_Tables_number      1
_space_group_name_Hall           'P 1'
loop_
_symmetry_equiv_pos_site_id
_symmetry_equiv_pos_as_xyz
1 x,y,z
_cell_length_a                   24.218(10)
_cell_length_b                   24.218
_cell_length_c                   15.359(6)
_cell_angle_alpha                90
_cell_angle_beta                 90
_cell_angle_gamma                90
_cell_volume                     9008.23
loop_
_atom_site_label
_atom_site_type_symbol
_atom_site_fract_x
_atom_site_fract_y
_atom_site_fract_z
Zr6 Zr 0.39854(3) 0.0000 -0.0000
Zr1 Zr 0.0000 0.39854(3) 0.5000
O1 O 0.0000 0.44984(17) 0.6132(4)
O2 O 0.05458(13) 0.35140(11) 0.5851(2)
O3 O 0.10225(15) 0.41728(14) 0.6612(3)
O4 O 0.0731(2) 0.45085(17) 0.5000
C1 C 0.16817(17) 0.23248(12) 0.6663(3)
C2 C 0.13176(13) 0.27219(16) 0.6348(2)
H1 H 0.1074 0.2634 0.5884
C3 C 0.13112(11) 0.32467(14) 0.6714(3)
C4 C 0.20312(16) 0.2979(2) 0.7707(3)
C5 C 0.20383(15) 0.24539(17) 0.7342(3)
C6 C 0.16675(17) 0.33758(15) 0.7393(3)
H2 H 0.1663 0.3735 0.7643
C7 C 0.1700(3) 0.17511(18) 0.6282(5)
H3 H 0.1415 0.1522 0.6555
H4 H 0.2064 0.1588 0.6390
H5 H 0.1634 0.1770 0.5653
C8 C 0.09181(17) 0.3680(2) 0.6378(4)
C9 C 0.2429(3) 0.3091(3) 0.8442(4)
H6 H 0.2388 0.2806 0.8890
H7 H 0.2350 0.3454 0.8695
H8 H 0.2808 0.3086 0.8218
O7 O 0.35140(11) 0.05458(13) 0.9149(2)
O8 O 0.41728(14) 0.10225(15) 0.8388(3)
C10 C 0.23248(12) 0.16817(17) 0.8337(3)
C11 C 0.27219(16) 0.13176(13) 0.8652(2)
H9 H 0.2634 0.1074 0.9116
C12 C 0.32467(14) 0.13112(11) 0.8286(3)
C13 C 0.2979(2) 0.20312(16) 0.7293(3)
C14 C 0.24539(17) 0.20383(15) 0.7658(3)
C15 C 0.33758(15) 0.16675(17) 0.7607(3)
H10 H 0.3735 0.1663 0.7357
C16 C 0.17511(18) 0.1700(3) 0.8718(5)
H11 H 0.1522 0.1415 0.8445
H12 H 0.1588 0.2064 0.8610
H13 H 0.1770 0.1634 0.9347
C17 C 0.3680(2) 0.09181(17) 0.8622(4)
C18 C 0.3091(3) 0.2429(3) 0.6558(4)
H14 H 0.2806 0.2388 0.6110
H15 H 0.3454 0.2350 0.6305
H16 H 0.3086 0.2808 0.6782
Zr3 Zr 0.07271(2) 0.5000 0.61488(5)
O9 O 0.0000 0.55016(17) 0.6132(4)
O11 O 0.16352(18) 0.5000 0.6058(4)
O12 O 0.0610(3) 0.5000 0.7579(4)
Zr5 Zr 0.0000 0.60146(3) 0.5000
Zr6_2 Zr 0.39854(3) 0.0000 1.0000
Zr8 Zr 0.07271(2) 0.5000 0.38512(5)
Zr10 Zr 0.5000 0.07271(2) 0.88512(5)
O17 O 0.0000 0.44984(17) 0.3868(4)
O19 O 0.05458(13) 0.35140(11) 0.4149(2)
O21 O 0.10225(15) 0.58272(14) 0.6612(3)
O22 O 0.0731(2) 0.54915(17) 0.5000
Zr6_3 Zr 0.39854(3) 1.0000 -0.0000
Zr6_4 Zr 0.39854(3) 1.0000 1.0000
Zr4 Zr 0.60146(3) 0.0000 -0.0000
Zr1_2 Zr 1.0000 0.39854(3) 0.5000
Zr2 Zr 0.92729(2) 0.5000 0.61488(5)
O1_2 O 1.0000 0.44984(17) 0.6132(4)
O5 O 0.83648(18) 0.5000 0.6058(4)
O6 O 0.9390(3) 0.5000 0.7579(4)
O9_2 O 1.0000 0.55016(17) 0.6132(4)
O10 O 0.9269(2) 0.54915(17) 0.5000
O13 O 0.94542(13) 0.35140(11) 0.5851(2)
O14 O 0.89775(15) 0.41728(14) 0.6612(3)
C19 C 0.83183(17) 0.23248(12) 0.6663(3)
C20 C 0.86824(13) 0.27219(16) 0.6348(2)
H17 H 0.8926 0.2634 0.5884
C21 C 0.86888(11) 0.32467(14) 0.6714(3)
C22 C 0.79688(16) 0.2979(2) 0.7707(3)
C23 C 0.79617(15) 0.24539(17) 0.7342(3)
C24 C 0.83325(17) 0.33758(15) 0.7393(3)
H18 H 0.8337 0.3735 0.7643
C25 C 0.8300(3) 0.17511(18) 0.6282(5)
H19 H 0.8585 0.1522 0.6555
H20 H 0.7936 0.1588 0.6390
H21 H 0.8366 0.1770 0.5653
C26 C 0.90819(17) 0.3680(2) 0.6378(4)
C27 C 0.7571(3) 0.3091(3) 0.8442(4)
H22 H 0.7612 0.2806 0.8890
H23 H 0.7650 0.3454 0.8695
H24 H 0.7192 0.3086 0.8218
O15 O 0.64860(11) 0.05458(13) 0.9149(2)
O16 O 0.58272(14) 0.10225(15) 0.8388(3)
C28 C 0.76752(12) 0.16817(17) 0.8337(3)
C29 C 0.72781(16) 0.13176(13) 0.8652(2)
H25 H 0.7366 0.1074 0.9116
C30 C 0.67533(14) 0.13112(11) 0.8286(3)
C31 C 0.7021(2) 0.20312(16) 0.7293(3)
C32 C 0.75461(17) 0.20383(15) 0.7658(3)
C33 C 0.66242(15) 0.16675(17) 0.7607(3)
H26 H 0.6265 0.1663 0.7357
C34 C 0.82489(18) 0.1700(3) 0.8718(5)
H27 H 0.8478 0.1415 0.8445
H28 H 0.8412 0.2064 0.8610
H29 H 0.8230 0.1634 0.9347
C35 C 0.6320(2) 0.09181(17) 0.8622(4)
C36 C 0.6909(3) 0.2429(3) 0.6558(4)
H30 H 0.7194 0.2388 0.6110
H31 H 0.6546 0.2350 0.6305
H32 H 0.6914 0.2808 0.6782
Zr4_2 Zr 0.60146(3) 0.0000 1.0000
Zr5_2 Zr 1.0000 0.60146(3) 0.5000
Zr7 Zr 0.92729(2) 0.5000 0.38512(5)
O17_2 O 1.0000 0.44984(17) 0.3868(4)
O18 O 0.94542(13) 0.35140(11) 0.4149(2)
O20 O 0.89775(15) 0.58272(14) 0.6612(3)
O23 O 0.9269(2) 0.45085(17) 0.5000
Zr4_3 Zr 0.60146(3) 1.0000 -0.0000
Zr4_4 Zr 0.60146(3) 1.0000 1.0000
O1_3 O 0.55016(17) 0.0000 0.1132(4)
O2_2 O 0.64860(11) 0.05458(13) 0.0851(2)
O3_2 O 0.58272(14) 0.10225(15) 0.1612(3)
O4_2 O 0.54915(17) 0.0731(2) -0.0000
C1_2 C 0.76752(12) 0.16817(17) 0.1663(3)
C2_2 C 0.72781(16) 0.13176(13) 0.1348(2)
H1_2 H 0.7366 0.1074 0.0884
C3_2 C 0.67533(14) 0.13112(11) 0.1714(3)
C4_2 C 0.7021(2) 0.20312(16) 0.2707(3)
C5_2 C 0.75461(17) 0.20383(15) 0.2342(3)
C6_2 C 0.66242(15) 0.16675(17) 0.2393(3)
H2_2 H 0.6265 0.1663 0.2643
C7_2 C 0.82489(18) 0.1700(3) 0.1282(5)
H3_2 H 0.8478 0.1415 0.1555
H4_2 H 0.8412 0.2064 0.1390
H5_2 H 0.8230 0.1634 0.0653
C8_2 C 0.6320(2) 0.09181(17) 0.1378(4)
C9_2 C 0.6909(3) 0.2429(3) 0.3442(4)
H6_2 H 0.7194 0.2388 0.3890
H7_2 H 0.6546 0.2350 0.3695
H8_2 H 0.6914 0.2808 0.3218
O8_2 O 0.89775(15) 0.41728(14) 0.3388(3)
C10_2 C 0.83183(17) 0.23248(12) 0.3337(3)
C11_2 C 0.86824(13) 0.27219(16) 0.3652(2)
H9_2 H 0.8926 0.2634 0.4116
C12_2 C 0.86888(11) 0.32467(14) 0.3286(3)
C13_2 C 0.79688(16) 0.2979(2) 0.2293(3)
C14_2 C 0.79617(15) 0.24539(17) 0.2658(3)
C15_2 C 0.83325(17) 0.33758(15) 0.2607(3)
H10_2 H 0.8337 0.3735 0.2357
C16_2 C 0.8300(3) 0.17511(18) 0.3718(5)
H11_2 H 0.8585 0.1522 0.3445
H12_2 H 0.7936 0.1588 0.3610
H13_2 H 0.8366 0.1770 0.4347
C17_2 C 0.90819(17) 0.3680(2) 0.3622(4)
C18_2 C 0.7571(3) 0.3091(3) 0.1558(4)
H14_2 H 0.7612 0.2806 0.1110
H15_2 H 0.7650 0.3454 0.1305
H16_2 H 0.7192 0.3086 0.1782
Zr3_2 Zr 0.5000 0.07271(2) 0.11488(5)
O9_3 O 0.44984(17) 0.0000 0.1132(4)
O11_2 O 0.5000 0.16352(18) 0.1058(4)
O12_2 O 0.5000 0.0610(3) 0.2579(4)
O21_2 O 0.41728(14) 0.10225(15) 0.1612(3)
O22_2 O 0.45085(17) 0.0731(2) -0.0000
O4_3 O 0.54915(17) 0.0731(2) 1.0000
O17_3 O 0.55016(17) 0.0000 0.8868(4)
O22_3 O 0.45085(17) 0.0731(2) 1.0000
Zr2_2 Zr 0.5000 0.92729(2) 0.11488(5)
O1_4 O 0.55016(17) 1.0000 0.1132(4)
O5_2 O 0.5000 0.83648(18) 0.1058(4)
O6_2 O 0.5000 0.9390(3) 0.2579(4)
O9_4 O 0.44984(17) 1.0000 0.1132(4)
O10_2 O 0.45085(17) 0.9269(2) -0.0000
O13_2 O 0.64860(11) 0.94542(13) 0.0851(2)
O14_2 O 0.58272(14) 0.89775(15) 0.1612(3)
C19_2 C 0.76752(12) 0.83183(17) 0.1663(3)
C20_2 C 0.72781(16) 0.86824(13) 0.1348(2)
H17_2 H 0.7366 0.8926 0.0884
C21_2 C 0.67533(14) 0.86888(11) 0.1714(3)
C22_2 C 0.7021(2) 0.79688(16) 0.2707(3)
C23_2 C 0.75461(17) 0.79617(15) 0.2342(3)
C24_2 C 0.66242(15) 0.83325(17) 0.2393(3)
H18_2 H 0.6265 0.8337 0.2643
C25_2 C 0.82489(18) 0.8300(3) 0.1282(5)
H19_2 H 0.8478 0.8585 0.1555
H20_2 H 0.8412 0.7936 0.1390
H21_2 H 0.8230 0.8366 0.0653
C26_2 C 0.6320(2) 0.90819(17) 0.1378(4)
C27_2 C 0.6909(3) 0.7571(3) 0.3442(4)
H22_2 H 0.7194 0.7612 0.3890
H23_2 H 0.6546 0.7650 0.3695
H24_2 H 0.6914 0.7192 0.3218
O15_2 O 0.94542(13) 0.64860(11) 0.4149(2)
O16_2 O 0.89775(15) 0.58272(14) 0.3388(3)
C28_2 C 0.83183(17) 0.76752(12) 0.3337(3)
C29_2 C 0.86824(13) 0.72781(16) 0.3652(2)
H25_2 H 0.8926 0.7366 0.4116
C30_2 C 0.86888(11) 0.67533(14) 0.3286(3)
C31_2 C 0.79688(16) 0.7021(2) 0.2293(3)
C32_2 C 0.79617(15) 0.75461(17) 0.2658(3)
C33_2 C 0.83325(17) 0.66242(15) 0.2607(3)
H26_2 H 0.8337 0.6265 0.2357
C34_2 C 0.8300(3) 0.82489(18) 0.3718(5)
H27_2 H 0.8585 0.8478 0.3445
H28_2 H 0.7936 0.8412 0.3610
H29_2 H 0.8366 0.8230 0.4347
C35_2 C 0.90819(17) 0.6320(2) 0.3622(4)
C36_2 C 0.7571(3) 0.6909(3) 0.1558(4)
H30_2 H 0.7612 0.7194 0.1110
H31_2 H 0.7650 0.6546 0.1305
H32_2 H 0.7192 0.6914 0.1782
O20_2 O 0.41728(14) 0.89775(15) 0.1612(3)
O23_2 O 0.54915(17) 0.9269(2) -0.0000
O10_3 O 0.45085(17) 0.9269(2) 1.0000
Zr7_2 Zr 0.5000 0.92729(2) 0.88512(5)
O17_4 O 0.55016(17) 1.0000 0.8868(4)
O18_2 O 0.64860(11) 0.94542(13) 0.9149(2)
O23_3 O 0.54915(17) 0.9269(2) 1.0000
O13_3 O 0.05458(13) 0.64860(11) 0.5851(2)
C19_3 C 0.16817(17) 0.76752(12) 0.6663(3)
C20_3 C 0.13176(13) 0.72781(16) 0.6348(2)
H17_3 H 0.1074 0.7366 0.5884
C21_3 C 0.13112(11) 0.67533(14) 0.6714(3)
C22_3 C 0.20312(16) 0.7021(2) 0.7707(3)
C23_3 C 0.20383(15) 0.75461(17) 0.7342(3)
C24_3 C 0.16675(17) 0.66242(15) 0.7393(3)
H18_3 H 0.1663 0.6265 0.7643
C25_3 C 0.1700(3) 0.82489(18) 0.6282(5)
H19_3 H 0.1415 0.8478 0.6555
H20_3 H 0.2064 0.8412 0.6390
H21_3 H 0.1634 0.8230 0.5653
C26_3 C 0.09181(17) 0.6320(2) 0.6378(4)
C27_3 C 0.2429(3) 0.6909(3) 0.8442(4)
H22_3 H 0.2388 0.7194 0.8890
H23_3 H 0.2350 0.6546 0.8695
H24_3 H 0.2808 0.6914 0.8218
O15_3 O 0.35140(11) 0.94542(13) 0.9149(2)
O16_3 O 0.41728(14) 0.89775(15) 0.8388(3)
C28_3 C 0.23248(12) 0.83183(17) 0.8337(3)
C29_3 C 0.27219(16) 0.86824(13) 0.8652(2)
H25_3 H 0.2634 0.8926 0.9116
C30_3 C 0.32467(14) 0.86888(11) 0.8286(3)
C31_3 C 0.2979(2) 0.79688(16) 0.7293(3)
C32_3 C 0.24539(17) 0.79617(15) 0.7658(3)
C33_3 C 0.33758(15) 0.83325(17) 0.7607(3)
H26_3 H 0.3735 0.8337 0.7357
C34_3 C 0.17511(18) 0.8300(3) 0.8718(5)
H27_3 H 0.1522 0.8585 0.8445
H28_3 H 0.1588 0.7936 0.8610
H29_3 H 0.1770 0.8366 0.9347
C35_3 C 0.3680(2) 0.90819(17) 0.8622(4)
C36_3 C 0.3091(3) 0.7571(3) 0.6558(4)
H30_3 H 0.2806 0.7612 0.6110
H31_3 H 0.3454 0.7650 0.6305
H32_3 H 0.3086 0.7192 0.6782
O17_5 O -0.0000 0.55016(17) 0.3868(4)
O18_3 O 0.05458(13) 0.64860(11) 0.4149(2)
O2_3 O 0.94542(13) 0.64860(11) 0.5851(2)
C1_3 C 0.83183(17) 0.76752(12) 0.6663(3)
C2_3 C 0.86824(13) 0.72781(16) 0.6348(2)
H1_3 H 0.8926 0.7366 0.5884
C3_3 C 0.86888(11) 0.67533(14) 0.6714(3)
C4_3 C 0.79688(16) 0.7021(2) 0.7707(3)
C5_3 C 0.79617(15) 0.75461(17) 0.7342(3)
C6_3 C 0.83325(17) 0.66242(15) 0.7393(3)
H2_3 H 0.8337 0.6265 0.7643
C7_3 C 0.8300(3) 0.82489(18) 0.6282(5)
H3_3 H 0.8585 0.8478 0.6555
H4_3 H 0.7936 0.8412 0.6390
H5_3 H 0.8366 0.8230 0.5653
C8_3 C 0.90819(17) 0.6320(2) 0.6378(4)
C9_3 C 0.7571(3) 0.6909(3) 0.8442(4)
H6_3 H 0.7612 0.7194 0.8890
H7_3 H 0.7650 0.6546 0.8695
H8_3 H 0.7192 0.6914 0.8218
O8_3 O 0.58272(14) 0.89775(15) 0.8388(3)
C10_3 C 0.76752(12) 0.83183(17) 0.8337(3)
C11_3 C 0.72781(16) 0.86824(13) 0.8652(2)
H9_3 H 0.7366 0.8926 0.9116
C12_3 C 0.67533(14) 0.86888(11) 0.8286(3)
C13_3 C 0.7021(2) 0.79688(16) 0.7293(3)
C14_3 C 0.75461(17) 0.79617(15) 0.7658(3)
C15_3 C 0.66242(15) 0.83325(17) 0.7607(3)
H10_3 H 0.6265 0.8337 0.7357
C16_3 C 0.82489(18) 0.8300(3) 0.8718(5)
H11_3 H 0.8478 0.8585 0.8445
H12_3 H 0.8412 0.7936 0.8610
H13_3 H 0.8230 0.8366 0.9347
C17_3 C 0.6320(2) 0.90819(17) 0.8622(4)
C18_3 C 0.6909(3) 0.7571(3) 0.6558(4)
H14_3 H 0.7194 0.7612 0.6110
H15_3 H 0.6546 0.7650 0.6305
H16_3 H 0.6914 0.7192 0.6782
O17_6 O 1.0000 0.55016(17) 0.3868(4)
O13_4 O 0.35140(11) 0.05458(13) 0.0851(2)
C19_4 C 0.23248(12) 0.16817(17) 0.1663(3)
C20_4 C 0.27219(16) 0.13176(13) 0.1348(2)
H17_4 H 0.2634 0.1074 0.0884
C21_4 C 0.32467(14) 0.13112(11) 0.1714(3)
C22_4 C 0.2979(2) 0.20312(16) 0.2707(3)
C23_4 C 0.24539(17) 0.20383(15) 0.2342(3)
C24_4 C 0.33758(15) 0.16675(17) 0.2393(3)
H18_4 H 0.3735 0.1663 0.2643
C25_4 C 0.17511(18) 0.1700(3) 0.1282(5)
H19_4 H 0.1522 0.1415 0.1555
H20_4 H 0.1588 0.2064 0.1390
H21_4 H 0.1770 0.1634 0.0653
C26_4 C 0.3680(2) 0.09181(17) 0.1378(4)
C27_4 C 0.3091(3) 0.2429(3) 0.3442(4)
H22_4 H 0.2806 0.2388 0.3890
H23_4 H 0.3454 0.2350 0.3695
H24_4 H 0.3086 0.2808 0.3218
O16_4 O 0.10225(15) 0.41728(14) 0.3388(3)
C28_4 C 0.16817(17) 0.23248(12) 0.3337(3)
C29_4 C 0.13176(13) 0.27219(16) 0.3652(2)
H25_4 H 0.1074 0.2634 0.4116
C30_4 C 0.13112(11) 0.32467(14) 0.3286(3)
C31_4 C 0.20312(16) 0.2979(2) 0.2293(3)
C32_4 C 0.20383(15) 0.24539(17) 0.2658(3)
C33_4 C 0.16675(17) 0.33758(15) 0.2607(3)
H26_4 H 0.1663 0.3735 0.2357
C34_4 C 0.1700(3) 0.17511(18) 0.3718(5)
H27_4 H 0.1415 0.1522 0.3445
H28_4 H 0.2064 0.1588 0.3610
H29_4 H 0.1634 0.1770 0.4347
C35_4 C 0.09181(17) 0.3680(2) 0.3622(4)
C36_4 C 0.2429(3) 0.3091(3) 0.1558(4)
H30_4 H 0.2388 0.2806 0.1110
H31_4 H 0.2350 0.3454 0.1305
H32_4 H 0.2808 0.3086 0.1782
O17_7 O 0.44984(17) -0.0000 0.8868(4)
O2_4 O 0.35140(11) 0.94542(13) 0.0851(2)
C1_4 C 0.23248(12) 0.83183(17) 0.1663(3)
C2_4 C 0.27219(16) 0.86824(13) 0.1348(2)
H1_4 H 0.2634 0.8926 0.0884
C3_4 C 0.32467(14) 0.86888(11) 0.1714(3)
C4_4 C 0.2979(2) 0.79688(16) 0.2707(3)
C5_4 C 0.24539(17) 0.79617(15) 0.2342(3)
C6_4 C 0.33758(15) 0.83325(17) 0.2393(3)
H2_4 H 0.3735 0.8337 0.2643
C7_4 C 0.17511(18) 0.8300(3) 0.1282(5)
H3_4 H 0.1522 0.8585 0.1555
H4_4 H 0.1588 0.7936 0.1390
H5_4 H 0.1770 0.8366 0.0653
C8_4 C 0.3680(2) 0.90819(17) 0.1378(4)
C9_4 C 0.3091(3) 0.7571(3) 0.3442(4)
H6_4 H 0.2806 0.7612 0.3890
H7_4 H 0.3454 0.7650 0.3695
H8_4 H 0.3086 0.7192 0.3218
O8_4 O 0.10225(15) 0.58272(14) 0.3388(3)
C10_4 C 0.16817(17) 0.76752(12) 0.3337(3)
C11_4 C 0.13176(13) 0.72781(16) 0.3652(2)
H9_4 H 0.1074 0.7366 0.4116
C12_4 C 0.13112(11) 0.67533(14) 0.3286(3)
C13_4 C 0.20312(16) 0.7021(2) 0.2293(3)
C14_4 C 0.20383(15) 0.75461(17) 0.2658(3)
C15_4 C 0.16675(17) 0.66242(15) 0.2607(3)
H10_4 H 0.1663 0.6265 0.2357
C16_4 C 0.1700(3) 0.82489(18) 0.3718(5)
H11_4 H 0.1415 0.8478 0.3445
H12_4 H 0.2064 0.8412 0.3610
H13_4 H 0.1634 0.8230 0.4347
C17_4 C 0.09181(17) 0.6320(2) 0.3622(4)
C18_4 C 0.2429(3) 0.6909(3) 0.1558(4)
H14_4 H 0.2388 0.7194 0.1110
H15_4 H 0.2350 0.6546 0.1305
H16_4 H 0.2808 0.6914 0.1782
O17_8 O 0.44984(17) 1.0000 0.8868(4)
O11_3 O 0.16352(18) 0.5000 0.3942(4)
O12_3 O 0.0610(3) 0.5000 0.2421(4)
O5_3 O 0.83648(18) 0.5000 0.3942(4)
O6_3 O 0.9390(3) 0.5000 0.2421(4)
O11_4 O 0.5000 0.16352(18) 0.8942(4)
O12_4 O 0.5000 0.0610(3) 0.7421(4)
O5_4 O 0.5000 0.83648(18) 0.8942(4)
O6_4 O 0.5000 0.9390(3) 0.7421(4)
loop_
_geom_bond_atom_site_label_1
_geom_bond_atom_site_label_2
_geom_bond_site_symmetry_1
_geom_bond_site_symmetry_2
Zr1 O1 1_555 1_555
O1 Zr3 1_555 1_555
O2 Zr1 1_555 1_555
O3 C8 1_555 1_555
O4 Zr1 1_555 1_555
C1 C2 1_555 1_555
C2 H1 1_555 1_555
C3 C2 1_555 1_555
C4 C5 1_555 1_555
C5 C1 1_555 1_555
C6 C3 1_555 1_555
H2 C6 1_555 1_555
C7 C1 1_555 1_555
H3 C7 1_555 1_555
H4 C7 1_555 1_555
H5 C7 1_555 1_555
C8 O2 1_555 1_555
C9 C4 1_555 1_555
H6 C9 1_555 1_555
H7 C9 1_555 1_555
H8 C9 1_555 1_555
O7 C17 1_555 1_555
O8 C17 1_555 1_555
C10 C11 1_555 1_555
C11 H9 1_555 1_555
C12 C11 1_555 1_555
C13 C14 1_555 1_555
C14 C5 1_555 1_555
C15 C12 1_555 1_555
H10 C15 1_555 1_555
C16 C10 1_555 1_555
H11 C16 1_555 1_555
H12 C16 1_555 1_555
H13 C16 1_555 1_555
C17 C12 1_555 1_555
C18 C13 1_555 1_555
H14 C18 1_555 1_555
H15 C18 1_555 1_555
H16 C18 1_555 1_555
Zr3 O3 1_555 1_555
O11 Zr3 1_555 1_555
O12 Zr3 1_555 1_555
Zr5 O9 1_555 1_555
Zr6_2 O7 1_555 1_555
Zr8 O4 1_555 1_555
Zr10 O8 1_555 1_555
O17 Zr1 1_555 1_555
O19 Zr1 1_555 1_555
O21 Zr3 1_555 1_555
O22 Zr3 1_555 1_555
O4 Zr3 1_555 1_555
C3 C8 1_555 1_555
C4 C6 1_555 1_555
C10 C14 1_555 1_555
C13 C15 1_555 1_555
Zr3 O9 1_555 1_555
Zr5 O22 1_555 1_555
Zr8 O17 1_555 1_555
Zr8 O22 1_555 1_555
Zr1_2 O1_2 1_555 1_555
Zr2 O1_2 1_555 1_555
O5 Zr2 1_555 1_555
O6 Zr2 1_555 1_555
O9_2 Zr2 1_555 1_555
O10 Zr2 1_555 1_555
O13 Zr1_2 1_555 1_555
O14 Zr2 1_555 1_555
C19 C20 1_555 1_555
C20 H17 1_555 1_555
C21 C20 1_555 1_555
C22 C23 1_555 1_555
C23 C19 1_555 1_555
C24 C21 1_555 1_555
H18 C24 1_555 1_555
C25 C19 1_555 1_555
H19 C25 1_555 1_555
H20 C25 1_555 1_555
H21 C25 1_555 1_555
C26 O13 1_555 1_555
C27 C22 1_555 1_555
H22 C27 1_555 1_555
H23 C27 1_555 1_555
H24 C27 1_555 1_555
O15 C35 1_555 1_555
O16 C35 1_555 1_555
C28 C29 1_555 1_555
C29 H25 1_555 1_555
C30 C29 1_555 1_555
C31 C32 1_555 1_555
C32 C23 1_555 1_555
C33 C30 1_555 1_555
H26 C33 1_555 1_555
C34 C28 1_555 1_555
H27 C34 1_555 1_555
H28 C34 1_555 1_555
H29 C34 1_555 1_555
C35 C30 1_555 1_555
C36 C31 1_555 1_555
H30 C36 1_555 1_555
H31 C36 1_555 1_555
H32 C36 1_555 1_555
Zr4_2 O15 1_555 1_555
Zr5_2 O9_2 1_555 1_555
Zr7 O10 1_555 1_555
Zr10 O16 1_555 1_555
O17_2 Zr1_2 1_555 1_555
O18 Zr1_2 1_555 1_555
O20 Zr2 1_555 1_555
O23 Zr1_2 1_555 1_555
Zr2 O23 1_555 1_555
O10 Zr5_2 1_555 1_555
O14 C26 1_555 1_555
C21 C26 1_555 1_555
C22 C24 1_555 1_555
C28 C32 1_555 1_555
C31 C33 1_555 1_555
Zr7 O17_2 1_555 1_555
Zr7 O23 1_555 1_555
Zr4 O1_3 1_555 1_555
O1_3 Zr3_2 1_555 1_555
O2_2 Zr4 1_555 1_555
O3_2 C8_2 1_555 1_555
O4_2 Zr4 1_555 1_555
C1_2 C2_2 1_555 1_555
C2_2 H1_2 1_555 1_555
C3_2 C2_2 1_555 1_555
C4_2 C5_2 1_555 1_555
C5_2 C1_2 1_555 1_555
C6_2 C3_2 1_555 1_555
H2_2 C6_2 1_555 1_555
C7_2 C1_2 1_555 1_555
H3_2 C7_2 1_555 1_555
H4_2 C7_2 1_555 1_555
H5_2 C7_2 1_555 1_555
C8_2 O2_2 1_555 1_555
C9_2 C4_2 1_555 1_555
H6_2 C9_2 1_555 1_555
H7_2 C9_2 1_555 1_555
H8_2 C9_2 1_555 1_555
O18 C17_2 1_555 1_555
O8_2 C17_2 1_555 1_555
C10_2 C11_2 1_555 1_555
C11_2 H9_2 1_555 1_555
C12_2 C11_2 1_555 1_555
C13_2 C14_2 1_555 1_555
C14_2 C5_2 1_555 1_555
C15_2 C12_2 1_555 1_555
H10_2 C15_2 1_555 1_555
C16_2 C10_2 1_555 1_555
H11_2 C16_2 1_555 1_555
H12_2 C16_2 1_555 1_555
H13_2 C16_2 1_555 1_555
C17_2 C12_2 1_555 1_555
C18_2 C13_2 1_555 1_555
H14_2 C18_2 1_555 1_555
H15_2 C18_2 1_555 1_555
H16_2 C18_2 1_555 1_555
Zr3_2 O3_2 1_555 1_555
O11_2 Zr3_2 1_555 1_555
O12_2 Zr3_2 1_555 1_555
Zr6 O9_3 1_555 1_555
Zr7 O8_2 1_555 1_555
O21_2 Zr3_2 1_555 1_555
O22_2 Zr3_2 1_555 1_555
O4_2 Zr3_2 1_555 1_555
C3_2 C8_2 1_555 1_555
C4_2 C6_2 1_555 1_555
C10_2 C14_2 1_555 1_555
C13_2 C15_2 1_555 1_555
Zr3_2 O9_3 1_555 1_555
Zr6 O22_2 1_555 1_555
O4_3 Zr4_2 1_555 1_555
Zr10 O4_3 1_555 1_555
O17_3 Zr4_2 1_555 1_555
Zr6_2 O22_3 1_555 1_555
Zr10 O17_3 1_555 1_555
Zr10 O22_3 1_555 1_555
Zr4_3 O1_4 1_555 1_555
Zr2_2 O1_4 1_555 1_555
O5_2 Zr2_2 1_555 1_555
O6_2 Zr2_2 1_555 1_555
O9_4 Zr2_2 1_555 1_555
O10_2 Zr2_2 1_555 1_555
O13_2 Zr4_3 1_555 1_555
O14_2 Zr2_2 1_555 1_555
C19_2 C20_2 1_555 1_555
C20_2 H17_2 1_555 1_555
C21_2 C20_2 1_555 1_555
C22_2 C23_2 1_555 1_555
C23_2 C19_2 1_555 1_555
C24_2 C21_2 1_555 1_555
H18_2 C24_2 1_555 1_555
C25_2 C19_2 1_555 1_555
H19_2 C25_2 1_555 1_555
H20_2 C25_2 1_555 1_555
H21_2 C25_2 1_555 1_555
C26_2 O13_2 1_555 1_555
C27_2 C22_2 1_555 1_555
H22_2 C27_2 1_555 1_555
H23_2 C27_2 1_555 1_555
H24_2 C27_2 1_555 1_555
O15_2 C35_2 1_555 1_555
O16_2 C35_2 1_555 1_555
C28_2 C29_2 1_555 1_555
C29_2 H25_2 1_555 1_555
C30_2 C29_2 1_555 1_555
C31_2 C32_2 1_555 1_555
C32_2 C23_2 1_555 1_555
C33_2 C30_2 1_555 1_555
H26_2 C33_2 1_555 1_555
C34_2 C28_2 1_555 1_555
H27_2 C34_2 1_555 1_555
H28_2 C34_2 1_555 1_555
H29_2 C34_2 1_555 1_555
C35_2 C30_2 1_555 1_555
C36_2 C31_2 1_555 1_555
H30_2 C36_2 1_555 1_555
H31_2 C36_2 1_555 1_555
H32_2 C36_2 1_555 1_555
Zr5_2 O15_2 1_555 1_555
Zr6_3 O9_4 1_555 1_555
Zr7 O16_2 1_555 1_555
O20_2 Zr2_2 1_555 1_555
O23_2 Zr4_3 1_555 1_555
Zr2_2 O23_2 1_555 1_555
O10_2 Zr6_3 1_555 1_555
O14_2 C26_2 1_555 1_555
C21_2 C26_2 1_555 1_555
C22_2 C24_2 1_555 1_555
C28_2 C32_2 1_555 1_555
C31_2 C33_2 1_555 1_555
Zr7_2 O10_3 1_555 1_555
O17_4 Zr4_4 1_555 1_555
O18_2 Zr4_4 1_555 1_555
O23_3 Zr4_4 1_555 1_555
O10_3 Zr6_4 1_555 1_555
Zr7_2 O17_4 1_555 1_555
Zr7_2 O23_3 1_555 1_555
O13_3 Zr5 1_555 1_555
C19_3 C20_3 1_555 1_555
C20_3 H17_3 1_555 1_555
C21_3 C20_3 1_555 1_555
C22_3 C23_3 1_555 1_555
C23_3 C19_3 1_555 1_555
C24_3 C21_3 1_555 1_555
H18_3 C24_3 1_555 1_555
C25_3 C19_3 1_555 1_555
H19_3 C25_3 1_555 1_555
H20_3 C25_3 1_555 1_555
H21_3 C25_3 1_555 1_555
C26_3 O13_3 1_555 1_555
C27_3 C22_3 1_555 1_555
H22_3 C27_3 1_555 1_555
H23_3 C27_3 1_555 1_555
H24_3 C27_3 1_555 1_555
O15_3 C35_3 1_555 1_555
O16_3 C35_3 1_555 1_555
C28_3 C29_3 1_555 1_555
C29_3 H25_3 1_555 1_555
C30_3 C29_3 1_555 1_555
C31_3 C32_3 1_555 1_555
C32_3 C23_3 1_555 1_555
C33_3 C30_3 1_555 1_555
H26_3 C33_3 1_555 1_555
C34_3 C28_3 1_555 1_555
H27_3 C34_3 1_555 1_555
H28_3 C34_3 1_555 1_555
H29_3 C34_3 1_555 1_555
C35_3 C30_3 1_555 1_555
C36_3 C31_3 1_555 1_555
H30_3 C36_3 1_555 1_555
H31_3 C36_3 1_555 1_555
H32_3 C36_3 1_555 1_555
Zr6_4 O15_3 1_555 1_555
Zr7_2 O16_3 1_555 1_555
O17_5 Zr5 1_555 1_555
O18_3 Zr5 1_555 1_555
O21 C26_3 1_555 1_555
C21_3 C26_3 1_555 1_555
C22_3 C24_3 1_555 1_555
C28_3 C32_3 1_555 1_555
C31_3 C33_3 1_555 1_555
Zr8 O17_5 1_555 1_555
O2_3 Zr5_2 1_555 1_555
O20 C8_3 1_555 1_555
C1_3 C2_3 1_555 1_555
C2_3 H1_3 1_555 1_555
C3_3 C2_3 1_555 1_555
C4_3 C5_3 1_555 1_555
C5_3 C1_3 1_555 1_555
C6_3 C3_3 1_555 1_555
H2_3 C6_3 1_555 1_555
C7_3 C1_3 1_555 1_555
H3_3 C7_3 1_555 1_555
H4_3 C7_3 1_555 1_555
H5_3 C7_3 1_555 1_555
C8_3 O2_3 1_555 1_555
C9_3 C4_3 1_555 1_555
H6_3 C9_3 1_555 1_555
H7_3 C9_3 1_555 1_555
H8_3 C9_3 1_555 1_555
O18_2 C17_3 1_555 1_555
O8_3 C17_3 1_555 1_555
C10_3 C11_3 1_555 1_555
C11_3 H9_3 1_555 1_555
C12_3 C11_3 1_555 1_555
C13_3 C14_3 1_555 1_555
C14_3 C5_3 1_555 1_555
C15_3 C12_3 1_555 1_555
H10_3 C15_3 1_555 1_555
C16_3 C10_3 1_555 1_555
H11_3 C16_3 1_555 1_555
H12_3 C16_3 1_555 1_555
H13_3 C16_3 1_555 1_555
C17_3 C12_3 1_555 1_555
C18_3 C13_3 1_555 1_555
H14_3 C18_3 1_555 1_555
H15_3 C18_3 1_555 1_555
H16_3 C18_3 1_555 1_555
Zr7_2 O8_3 1_555 1_555
O17_6 Zr5_2 1_555 1_555
C3_3 C8_3 1_555 1_555
C4_3 C6_3 1_555 1_555
C10_3 C14_3 1_555 1_555
C13_3 C15_3 1_555 1_555
Zr7 O17_6 1_555 1_555
O13_4 Zr6 1_555 1_555
C19_4 C20_4 1_555 1_555
C20_4 H17_4 1_555 1_555
C21_4 C20_4 1_555 1_555
C22_4 C23_4 1_555 1_555
C23_4 C19_4 1_555 1_555
C24_4 C21_4 1_555 1_555
H18_4 C24_4 1_555 1_555
C25_4 C19_4 1_555 1_555
H19_4 C25_4 1_555 1_555
H20_4 C25_4 1_555 1_555
H21_4 C25_4 1_555 1_555
C26_4 O13_4 1_555 1_555
C27_4 C22_4 1_555 1_555
H22_4 C27_4 1_555 1_555
H23_4 C27_4 1_555 1_555
H24_4 C27_4 1_555 1_555
O19 C35_4 1_555 1_555
O16_4 C35_4 1_555 1_555
C28_4 C29_4 1_555 1_555
C29_4 H25_4 1_555 1_555
C30_4 C29_4 1_555 1_555
C31_4 C32_4 1_555 1_555
C32_4 C23_4 1_555 1_555
C33_4 C30_4 1_555 1_555
H26_4 C33_4 1_555 1_555
C34_4 C28_4 1_555 1_555
H27_4 C34_4 1_555 1_555
H28_4 C34_4 1_555 1_555
H29_4 C34_4 1_555 1_555
C35_4 C30_4 1_555 1_555
C36_4 C31_4 1_555 1_555
H30_4 C36_4 1_555 1_555
H31_4 C36_4 1_555 1_555
H32_4 C36_4 1_555 1_555
Zr8 O16_4 1_555 1_555
O21_2 C26_4 1_555 1_555
C21_4 C26_4 1_555 1_555
C22_4 C24_4 1_555 1_555
C28_4 C32_4 1_555 1_555
C31_4 C33_4 1_555 1_555
O17_7 Zr6_2 1_555 1_555
Zr10 O17_7 1_555 1_555
O2_4 Zr6_3 1_555 1_555
O20_2 C8_4 1_555 1_555
C1_4 C2_4 1_555 1_555
C2_4 H1_4 1_555 1_555
C3_4 C2_4 1_555 1_555
C4_4 C5_4 1_555 1_555
C5_4 C1_4 1_555 1_555
C6_4 C3_4 1_555 1_555
H2_4 C6_4 1_555 1_555
C7_4 C1_4 1_555 1_555
H3_4 C7_4 1_555 1_555
H4_4 C7_4 1_555 1_555
H5_4 C7_4 1_555 1_555
C8_4 O2_4 1_555 1_555
C9_4 C4_4 1_555 1_555
H6_4 C9_4 1_555 1_555
H7_4 C9_4 1_555 1_555
H8_4 C9_4 1_555 1_555
O18_3 C17_4 1_555 1_555
O8_4 C17_4 1_555 1_555
C10_4 C11_4 1_555 1_555
C11_4 H9_4 1_555 1_555
C12_4 C11_4 1_555 1_555
C13_4 C14_4 1_555 1_555
C14_4 C5_4 1_555 1_555
C15_4 C12_4 1_555 1_555
H10_4 C15_4 1_555 1_555
C16_4 C10_4 1_555 1_555
H11_4 C16_4 1_555 1_555
H12_4 C16_4 1_555 1_555
H13_4 C16_4 1_555 1_555
C17_4 C12_4 1_555 1_555
C18_4 C13_4 1_555 1_555
H14_4 C18_4 1_555 1_555
H15_4 C18_4 1_555 1_555
H16_4 C18_4 1_555 1_555
Zr8 O8_4 1_555 1_555
C3_4 C8_4 1_555 1_555
C4_4 C6_4 1_555 1_555
C10_4 C14_4 1_555 1_555
C13_4 C15_4 1_555 1_555
O17_8 Zr6_4 1_555 1_555
Zr7_2 O17_8 1_555 1_555
O11_3 Zr8 1_555 1_555
O12_3 Zr8 1_555 1_555
O5_3 Zr7 1_555 1_555
O6_3 Zr7 1_555 1_555
O11_4 Zr10 1_555 1_555
O12_4 Zr10 1_555 1_555
O5_4 Zr7_2 1_555 1_555
O6_4 Zr7_2 1_555 1_555

#END
