
###############################################################################
#
# This file contains modified crystal structure data generated from the
# MOF subset of the Cambridge Structural Database (CSD) v543 
# hosted by the Cambridge Crystallographic Data Centre (CCDC).
#
# This work is licensed under the Creative Commons
# Attribution-NonCommercial-ShareAlike 4.0 International License.
# To view a copy of this license, visit
# http://creativecommons.org/licenses/by-nc-sa/4.0/
# or send a letter to
# Creative Commons, PO Box 1866, Mountain View, CA 94042, USA.
#
# CIF created using the CSD Python API on 29 September 2022
# The structure has been converted into the P1 space group
# The structure has a 3D framework
# The original CSD entry EREGOY is in the orthorhombic crystal system
# The framework has been calculated to contain at least 10.0% void space
# The void calculation uses a probe of radius 1.32A, grid spacing 0.4
# H atom positions have been added when not included in the experimental data
#
###############################################################################

data_EREGOY
_chemical_formula_moiety         '(C130 H120 Cd8 O48)n'
_symmetry_cell_setting           triclinic
_symmetry_space_group_name_H-M   'P 1'
_symmetry_Int_Tables_number      1
_space_group_name_Hall           'P 1'
loop_
_symmetry_equiv_pos_site_id
_symmetry_equiv_pos_as_xyz
1 x,y,z
_cell_length_a                   19.517(4)
_cell_length_b                   17.306(4)
_cell_length_c                   18.722(4)
_cell_angle_alpha                90
_cell_angle_beta                 90
_cell_angle_gamma                90
_cell_volume                     6323.57
loop_
_atom_site_label
_atom_site_type_symbol
_atom_site_fract_x
_atom_site_fract_y
_atom_site_fract_z
Cd5 Cd 0.058751(9) 0.719496(11) 0.842917(11)
Cd7 Cd 0.077445(12) 0.570815(14) 0.713605(16)
Cd1 Cd 0.441249(9) 0.219496(11) 0.342917(11)
Cd2 Cd 0.422555(12) 0.070815(14) 0.213605(16)
O9 O 0.46072(15) 0.29233(16) 0.24904(13)
C18 C 0.52842(17) 0.3953(2) 0.01116(16)
C19 C 0.48836(18) 0.3062(2) 0.12843(16)
C22 C 0.4674(2) 0.2593(3) 0.19043(19)
C24 C 0.5026(2) 0.3834(3) 0.13487(19)
H15 H 0.4988 0.4068 0.1806
O12 O 0.4590(2) 0.1890(2) 0.18115(17)
C25 C 0.5221(2) 0.4286(2) 0.07741(19)
H16 H 0.5310 0.4821 0.0837
C28 C 0.5166(3) 0.3157(3) 0.00384(18)
C29 C 0.4965(3) 0.2762(2) 0.0606(2)
H20 H 0.4869 0.2229 0.0542
O14 O 0.3240(2) 0.0865(3) 0.1544(2)
O15 O 0.4797(3) 0.0197(3) 0.1130(3)
O16 O 0.31843(10) 0.22903(14) 0.33523(18)
O17 O 0.36939(10) 0.11957(14) 0.31471(13)
O18 O 0.41878(19) 0.21508(18) 0.47211(17)
C34 C 0.31544(16) 0.1601(2) 0.32505(18)
C35 C 0.4562(2) 0.2749(2) 0.4761(2)
O19 O 0.48082(15) 0.30572(16) 0.42250(12)
O20 O 0.53878(11) 0.15438(14) 0.33912(16)
O21 O 0.51374(13) 0.0459(2) 0.27879(18)
H25 H 0.333798 0.0952841 0.102991
H26 H 0.295382 0.0394246 0.15984
H29 H 0.529379 0.0315411 0.116364
O1 O 0.18157(10) 0.72903(14) 0.83523(18)
O2 O 0.13061(10) 0.61957(14) 0.81471(13)
C1 C 0.18456(16) 0.6601(2) 0.82505(18)
O5 O 0.67817(9) 0.47754(13) 0.84798(18)
C3 C 0.55650(13) 0.48152(18) 0.8366(2)
C4 C 0.49749(12) 0.54038(18) 0.8421(2)
H1 H 0.4972 0.5647 0.8900
H2 H 0.5030 0.5814 0.8058
C5 C 0.62091(13) 0.52782(18) 0.8519(2)
H3 H 0.6258 0.5699 0.8164
H4 H 0.6181 0.5512 0.9000
O6 O 0.96122(11) 0.65438(14) 0.83912(16)
O7 O 0.43523(11) 0.49915(17) 0.8305(3)
O8 O 0.54626(13) 0.44471(14) 0.95812(11)
C6 C 0.4706(2) 0.3069(2) 0.54675(19)
C7 C 0.56234(16) 0.4490(2) 0.75955(17)
H5 H 0.5579 0.4916 0.7246
H6 H 0.6077 0.4246 0.7528
C8 C 0.54811(16) 0.4145(2) 0.88648(15)
H7 H 0.5051 0.3865 0.8758
H8 H 0.5869 0.3781 0.8811
C9 C 0.74172(13) 0.50916(17) 0.8408(2)
O10 O 0.51029(15) 0.39413(18) 0.74810(12)
C10 C 0.82495(15) 0.6075(2) 0.8529(2)
H9 H 0.8366 0.6589 0.8661
C11 C 0.87520(15) 0.5599(2) 0.82516(17)
C12 C 0.31264(15) 0.6606(2) 0.8342(2)
H10 H 0.3114 0.7152 0.8390
C13 C 0.37464(15) 0.6214(2) 0.8386(3)
H11 H 0.4154 0.6492 0.8489
C14 C 0.5003(2) 0.3696(2) 0.68092(17)
C15 C 0.52667(19) 0.3553(2) 0.55646(17)
H12 H 0.5550 0.3675 0.5167
C16 C 0.25244(16) 0.6193(2) 0.8227(2)
C17 C 0.75857(17) 0.5826(2) 0.8619(2)
H13 H 0.7250 0.6157 0.8823
O11 O 0.98626(13) 0.5459(2) 0.77879(18)
C20 C 0.54224(18) 0.3865(2) 0.62327(17)
H14 H 0.5811 0.4189 0.6292
C21 C 0.37784(17) 0.5436(2) 0.8284(3)
C23 C 0.94706(15) 0.5892(2) 0.81440(19)
C26 C 0.79188(18) 0.4580(2) 0.8160(3)
H17 H 0.7815 0.4052 0.8074
C27 C 0.85701(18) 0.4868(3) 0.8045(3)
H18 H 0.8901 0.4550 0.7817
H19 H 0.5230 0.2908 0.9591
C30 C 0.4438(2) 0.3199(4) 0.6727(2)
H21 H 0.4153 0.3085 0.7125
C31 C 0.4295(3) 0.2875(3) 0.6066(2)
H22 H 0.3924 0.2525 0.6014
C32 C 0.3171(2) 0.5004(3) 0.8143(4)
H23 H 0.3188 0.4463 0.8057
C33 C 0.2550(2) 0.5403(3) 0.8136(5)
H24 H 0.2136 0.5124 0.8068
C4_2 C 0.00251(12) 0.04038(18) 0.3421(2)
H1_2 H 0.0028 0.0647 0.3900
C12_2 C 0.18736(15) 0.1606(2) 0.3342(2)
H10_2 H 0.1886 0.2152 0.3390
C13_2 C 0.12536(15) 0.1214(2) 0.3386(3)
H11_2 H 0.0846 0.1492 0.3489
C16_2 C 0.24756(16) 0.1193(2) 0.3227(2)
C21_2 C 0.12216(17) 0.0436(2) 0.3284(3)
C32_2 C 0.1829(2) 0.0004(3) 0.3143(4)
C33_2 C 0.2450(2) 0.0403(3) 0.3136(5)
H24_2 H 0.2864 0.0124 0.3068
O7_2 O 0.06477(11) 0.99915(17) 0.3305(3)
O9_2 O 0.03928(15) 0.79233(16) 0.74904(13)
C6_2 C 0.0294(2) 0.8069(2) 0.04675(19)
C19_2 C 0.01164(18) 0.8062(2) 0.62843(16)
C22_2 C 0.0326(2) 0.7593(3) 0.69043(19)
H15_2 H 0.0012 0.9068 0.6806
O12_2 O 0.0410(2) 0.6890(2) 0.68115(17)
C29_2 C 0.0035(3) 0.7762(2) 0.5606(2)
H20_2 H 0.0131 0.7229 0.5542
C30_2 C 0.0562(2) 0.8199(4) 0.1727(2)
H21_2 H 0.0847 0.8085 0.2125
C31_2 C 0.0705(3) 0.7875(3) 0.1066(2)
H22_2 H 0.1076 0.7525 0.1014
H23_2 H 0.1812 0.9463 0.3057
O13 O 0.11889(19) 0.4517(2) 0.7442(3)
O14_2 O 0.1760(2) 0.5865(3) 0.6544(2)
O15_2 O 0.0203(3) 0.5197(3) 0.6130(3)
O18_2 O 0.08122(19) 0.71508(18) 0.97211(17)
C35_2 C 0.0438(2) 0.7749(2) 0.9761(2)
O19_2 O 0.01918(15) 0.80572(16) 0.92250(12)
H25_2 H 0.166202 0.595284 0.602991
H26_2 H 0.204618 0.539425 0.65984
H27 H 0.130337 0.422326 0.700229
H28 H 0.0835924 0.423163 0.771829
H30 H 0.0269149 0.462833 0.611443
H2_2 H 0.9970 0.0814 0.3058
C5_2 C 0.87909(13) 0.02782(18) 0.3519(2)
H3_2 H 0.8742 0.0699 0.3164
H4_2 H 0.8819 0.0512 0.4000
C9_2 C 0.75828(13) 0.00916(17) 0.3408(2)
C10_2 C 0.67505(15) 0.1075(2) 0.3529(2)
H9_2 H 0.6634 0.1589 0.3661
C11_2 C 0.62480(15) 0.0599(2) 0.32516(17)
C17_2 C 0.74143(17) 0.0826(2) 0.3619(2)
H13_2 H 0.7750 0.1157 0.3823
C23_2 C 0.55294(15) 0.0892(2) 0.31440(19)
O5_2 O 0.82183(9) 0.97754(13) 0.34798(18)
C3_2 C 0.94350(13) 0.98152(18) 0.3366(2)
O8_2 O 0.95374(13) 0.94471(14) 0.45812(11)
C7_2 C 0.93766(16) 0.9490(2) 0.25955(17)
H5_2 H 0.9421 0.9916 0.2246
H6_2 H 0.8923 0.9246 0.2528
C8_2 C 0.95189(16) 0.9145(2) 0.38648(15)
H7_2 H 0.9949 0.8865 0.3758
H8_2 H 0.9131 0.8781 0.3811
O10_2 O 0.98971(15) 0.89413(18) 0.24810(12)
C14_2 C 0.9997(2) 0.8696(2) 0.18092(17)
C15_2 C 0.97333(19) 0.8553(2) 0.05646(17)
H12_2 H 0.9450 0.8675 0.0167
C18_2 C 0.97158(17) 0.8953(2) 0.51116(16)
C20_2 C 0.95776(18) 0.8865(2) 0.12327(17)
H14_2 H 0.9189 0.9189 0.1292
C24_2 C 0.9974(2) 0.8834(3) 0.63487(19)
C25_2 C 0.9779(2) 0.9286(2) 0.57741(19)
H16_2 H 0.9690 0.9821 0.5837
C26_2 C 0.70812(18) 0.9580(2) 0.3160(3)
H17_2 H 0.7185 0.9052 0.3074
C27_2 C 0.64299(18) 0.9868(3) 0.3045(3)
H18_2 H 0.6099 0.9550 0.2817
C28_2 C 0.9834(3) 0.8157(3) 0.50384(18)
H19_2 H 0.9770 0.7908 0.4591
H29_2 H 0.970621 0.531541 0.616364
O13_2 O 0.38111(19) 0.9517(2) 0.2442(3)
H27_2 H 0.369663 0.922326 0.200229
H28_2 H 0.416408 0.923163 0.271829
H30_2 H 0.473085 0.962833 0.111443
O13_3 O 0.61889(19) 0.0483(2) 0.7442(3)
H27_3 H 0.630337 0.0776745 0.700229
H28_3 H 0.583592 0.0768371 0.771829
H30_3 H 0.526915 0.037167 0.611443
Cd1_2 Cd 0.558751(9) 0.780504(11) 0.842917(11)
Cd2_2 Cd 0.577445(12) 0.929185(14) 0.713605(16)
O1_2 O 0.81843(10) 0.27097(14) 0.33523(18)
O2_2 O 0.86939(10) 0.38043(14) 0.31471(13)
C1_2 C 0.81544(16) 0.3399(2) 0.32505(18)
O5_3 O 0.32183(9) 0.52246(13) 0.34798(18)
C3_3 C 0.44350(13) 0.51848(18) 0.3366(2)
C4_3 C 0.50251(12) 0.45962(18) 0.3421(2)
H1_3 H 0.5028 0.4353 0.3900
H2_3 H 0.4970 0.4186 0.3058
C5_3 C 0.37909(13) 0.47218(18) 0.3519(2)
H3_3 H 0.3742 0.4301 0.3164
H4_3 H 0.3819 0.4488 0.4000
O6_2 O 0.03878(11) 0.34562(14) 0.33912(16)
O7_3 O 0.56477(11) 0.50085(17) 0.3305(3)
O8_3 O 0.45374(13) 0.55529(14) 0.45812(11)
O9_3 O 0.53928(15) 0.70767(16) 0.74904(13)
C6_3 C 0.5294(2) 0.6931(2) 0.04675(19)
C7_3 C 0.43766(16) 0.5510(2) 0.25955(17)
H5_3 H 0.4421 0.5084 0.2246
H6_3 H 0.3923 0.5754 0.2528
C8_3 C 0.45189(16) 0.5855(2) 0.38648(15)
H7_3 H 0.4949 0.6135 0.3758
H8_3 H 0.4131 0.6219 0.3811
C9_3 C 0.25828(13) 0.49084(17) 0.3408(2)
O10_3 O 0.48971(15) 0.60587(18) 0.24810(12)
C10_3 C 0.17505(15) 0.3925(2) 0.3529(2)
H9_3 H 0.1634 0.3411 0.3661
C11_3 C 0.12480(15) 0.4401(2) 0.32516(17)
C12_3 C 0.68736(15) 0.3394(2) 0.3342(2)
H10_3 H 0.6886 0.2848 0.3390
C13_3 C 0.62536(15) 0.3786(2) 0.3386(3)
H11_3 H 0.5846 0.3508 0.3489
C14_3 C 0.4997(2) 0.6304(2) 0.18092(17)
C15_3 C 0.47333(19) 0.6447(2) 0.05646(17)
H12_3 H 0.4450 0.6325 0.0167
C16_3 C 0.74756(16) 0.3807(2) 0.3227(2)
C17_3 C 0.24143(17) 0.4174(2) 0.3619(2)
H13_3 H 0.2750 0.3843 0.3823
O11_2 O 0.01374(13) 0.4541(2) 0.27879(18)
C18_3 C 0.47158(17) 0.6047(2) 0.51116(16)
C19_3 C 0.51164(18) 0.6938(2) 0.62843(16)
C20_3 C 0.45776(18) 0.6135(2) 0.12327(17)
H14_3 H 0.4189 0.5811 0.1292
C21_3 C 0.62216(17) 0.4564(2) 0.3284(3)
C22_3 C 0.5326(2) 0.7407(3) 0.69043(19)
C23_3 C 0.05294(15) 0.4108(2) 0.31440(19)
C24_3 C 0.4974(2) 0.6166(3) 0.63487(19)
H15_3 H 0.5012 0.5932 0.6806
O12_3 O 0.5410(2) 0.8110(2) 0.68115(17)
C25_3 C 0.4779(2) 0.5714(2) 0.57741(19)
H16_3 H 0.4690 0.5179 0.5837
C26_3 C 0.20812(18) 0.5420(2) 0.3160(3)
H17_3 H 0.2185 0.5948 0.3074
C27_3 C 0.14299(18) 0.5132(3) 0.3045(3)
H18_3 H 0.1099 0.5450 0.2817
C28_3 C 0.4834(3) 0.6843(3) 0.50384(18)
H19_3 H 0.4770 0.7092 0.4591
C29_3 C 0.5035(3) 0.7238(2) 0.5606(2)
H20_3 H 0.5131 0.7771 0.5542
C30_3 C 0.5562(2) 0.6801(4) 0.1727(2)
H21_3 H 0.5847 0.6915 0.2125
C31_3 C 0.5705(3) 0.7125(3) 0.1066(2)
H22_3 H 0.6076 0.7475 0.1014
C32_3 C 0.6829(2) 0.4996(3) 0.3143(4)
H23_3 H 0.6812 0.5537 0.3057
C33_3 C 0.7450(2) 0.4597(3) 0.3136(5)
H24_3 H 0.7864 0.4876 0.3068
O14_3 O 0.6760(2) 0.9135(3) 0.6544(2)
O15_3 O 0.5203(3) 0.9803(3) 0.6130(3)
Cd4 Cd 0.941249(9) 0.280504(11) 0.342917(11)
Cd6 Cd 0.922555(12) 0.429185(14) 0.213605(16)
O16_2 O 0.68157(10) 0.77097(14) 0.83523(18)
O17_2 O 0.63061(10) 0.88043(14) 0.81471(13)
O18_3 O 0.58122(19) 0.78492(18) 0.97211(17)
C34_2 C 0.68456(16) 0.8399(2) 0.82505(18)
C35_3 C 0.5438(2) 0.7251(2) 0.9761(2)
O19_3 O 0.51918(15) 0.69428(16) 0.92250(12)
O20_2 O 0.46122(11) 0.84562(14) 0.83912(16)
O21_2 O 0.48626(13) 0.9541(2) 0.77879(18)
H25_3 H 0.666202 0.904716 0.602991
H26_3 H 0.704618 0.960575 0.65984
H29_3 H 0.470621 0.968459 0.616364
C18_4 C 0.02842(17) 0.1047(2) 0.01116(16)
C24_4 C 0.0026(2) 0.1166(3) 0.13487(19)
C25_4 C 0.0221(2) 0.0714(2) 0.07741(19)
H16_4 H 0.0310 0.0179 0.0837
C28_4 C 0.0166(3) 0.1843(3) 0.00384(18)
H29_4 H 0.0293788 0.468459 0.116364
H2_4 H 0.0030 0.9186 0.8058
C5_4 C 0.12091(13) 0.97218(18) 0.8519(2)
H3_4 H 0.1258 0.9301 0.8164
H4_4 H 0.1181 0.9488 0.9000
C9_4 C 0.24172(13) 0.99084(17) 0.8408(2)
C10_4 C 0.32495(15) 0.8925(2) 0.8529(2)
H9_4 H 0.3366 0.8411 0.8661
C11_4 C 0.37520(15) 0.9401(2) 0.82516(17)
C17_4 C 0.25857(17) 0.9174(2) 0.8619(2)
H13_4 H 0.2250 0.8843 0.8823
C23_4 C 0.44706(15) 0.9108(2) 0.81440(19)
O9_4 O 0.96072(15) 0.20767(16) 0.24904(13)
C19_4 C 0.98836(18) 0.1938(2) 0.12843(16)
C22_4 C 0.9674(2) 0.2407(3) 0.19043(19)
H15_4 H 0.9988 0.0932 0.1806
O12_4 O 0.9590(2) 0.3110(2) 0.18115(17)
C29_4 C 0.9965(3) 0.2238(2) 0.0606(2)
H20_4 H 0.9869 0.2771 0.0542
O13_4 O 0.88111(19) 0.5483(2) 0.2442(3)
O14_4 O 0.8240(2) 0.4135(3) 0.1544(2)
O15_4 O 0.9797(3) 0.4803(3) 0.1130(3)
O18_4 O 0.91878(19) 0.28492(18) 0.47211(17)
C35_4 C 0.9562(2) 0.2251(2) 0.4761(2)
O19_4 O 0.98082(15) 0.19428(16) 0.42250(12)
H25_4 H 0.833798 0.404716 0.102991
H26_4 H 0.795382 0.460575 0.15984
H27_4 H 0.869663 0.577674 0.200229
H28_4 H 0.916408 0.576837 0.271829
H30_4 H 0.973085 0.537167 0.111443
O7_4 O 0.93523(11) 0.00085(17) 0.8305(3)
C6_4 C 0.9706(2) 0.1931(2) 0.54675(19)
C30_4 C 0.9438(2) 0.1801(4) 0.6727(2)
H21_4 H 0.9153 0.1915 0.7125
C31_4 C 0.9295(3) 0.2125(3) 0.6066(2)
H22_4 H 0.8924 0.2475 0.6014
H23_4 H 0.8188 0.0537 0.8057
C4_4 C 0.99749(12) 0.95962(18) 0.8421(2)
H1_4 H 0.9972 0.9353 0.8900
C12_4 C 0.81264(15) 0.8394(2) 0.8342(2)
H10_4 H 0.8114 0.7848 0.8390
C13_4 C 0.87464(15) 0.8786(2) 0.8386(3)
H11_4 H 0.9154 0.8508 0.8489
C16_4 C 0.75244(16) 0.8807(2) 0.8227(2)
C21_4 C 0.87784(17) 0.9564(2) 0.8284(3)
C32_4 C 0.8171(2) 0.9996(3) 0.8143(4)
C33_4 C 0.7550(2) 0.9597(3) 0.8136(5)
H24_4 H 0.7136 0.9876 0.8068
O5_4 O 0.17817(9) 0.02246(13) 0.84798(18)
C3_4 C 0.05650(13) 0.01848(18) 0.8366(2)
O8_4 O 0.04626(13) 0.05529(14) 0.95812(11)
C7_4 C 0.06234(16) 0.0510(2) 0.75955(17)
H5_4 H 0.0579 0.0084 0.7246
H6_4 H 0.1077 0.0754 0.7528
C8_4 C 0.04811(16) 0.0855(2) 0.88648(15)
H7_4 H 0.0051 0.1135 0.8758
H8_4 H 0.0869 0.1219 0.8811
O10_4 O 0.01029(15) 0.10587(18) 0.74810(12)
C14_4 C 0.0003(2) 0.1304(2) 0.68092(17)
C15_4 C 0.02667(19) 0.1447(2) 0.55646(17)
H12_4 H 0.0550 0.1325 0.5167
C20_4 C 0.04224(18) 0.1135(2) 0.62327(17)
H14_4 H 0.0811 0.0811 0.6292
C26_4 C 0.29188(18) 0.0420(2) 0.8160(3)
H17_4 H 0.2815 0.0948 0.8074
C27_4 C 0.35701(18) 0.0132(3) 0.8045(3)
H18_4 H 0.3901 0.0450 0.7817
H19_4 H 0.0230 0.2092 0.9591
loop_
_geom_bond_atom_site_label_1
_geom_bond_atom_site_label_2
_geom_bond_site_symmetry_1
_geom_bond_site_symmetry_2
Cd1 O9 1_555 1_555
Cd2 O12 1_555 1_555
O9 C22 1_555 1_555
C19 C22 1_555 1_555
C22 O12 1_555 1_555
C24 C19 1_555 1_555
H15 C24 1_555 1_555
C25 C18 1_555 1_555
H16 C25 1_555 1_555
C28 C18 1_555 1_555
C29 C19 1_555 1_555
H20 C29 1_555 1_555
O14 Cd2 1_555 1_555
O15 Cd2 1_555 1_555
O16 Cd1 1_555 1_555
O17 Cd1 1_555 1_555
O18 Cd1 1_555 1_555
C34 O16 1_555 1_555
C35 O18 1_555 1_555
O19 Cd1 1_555 1_555
O20 Cd1 1_555 1_555
O21 Cd2 1_555 1_555
Cd2 O17 1_555 1_555
C24 C25 1_555 1_555
C28 C29 1_555 1_555
O17 C34 1_555 1_555
C35 O19 1_555 1_555
O14 H25 1_555 1_555
O14 H26 1_555 1_555
O15 H29 1_555 1_555
O1 C1 1_555 1_555
O2 C1 1_555 1_555
C1 C16 1_555 1_555
O5 C5 1_555 1_555
C3 C4 1_555 1_555
C4 H1 1_555 1_555
H2 C4 1_555 1_555
C5 C3 1_555 1_555
H3 C5 1_555 1_555
H4 C5 1_555 1_555
O6 C23 1_555 1_555
O7 C4 1_555 1_555
O8 C8 1_555 1_555
C6 C35 1_555 1_555
C7 C3 1_555 1_555
H5 C7 1_555 1_555
H6 C7 1_555 1_555
C8 C3 1_555 1_555
H7 C8 1_555 1_555
H8 C8 1_555 1_555
C9 O5 1_555 1_555
O10 C7 1_555 1_555
C10 H9 1_555 1_555
C11 C10 1_555 1_555
C12 H10 1_555 1_555
C13 C12 1_555 1_555
H11 C13 1_555 1_555
C14 O10 1_555 1_555
C15 C6 1_555 1_555
H12 C15 1_555 1_555
C16 C12 1_555 1_555
C17 C9 1_555 1_555
H13 C17 1_555 1_555
O11 C23 1_555 1_555
C20 C14 1_555 1_555
H14 C20 1_555 1_555
C21 O7 1_555 1_555
C23 C11 1_555 1_555
C26 C9 1_555 1_555
H17 C26 1_555 1_555
C27 C11 1_555 1_555
H18 C27 1_555 1_555
C30 C14 1_555 1_555
H21 C30 1_555 1_555
C31 C6 1_555 1_555
H22 C31 1_555 1_555
C32 C21 1_555 1_555
H23 C32 1_555 1_555
C33 C16 1_555 1_555
H24 C33 1_555 1_555
Cd5 O1 1_555 1_555
Cd7 O2 1_555 1_555
O2 Cd5 1_555 1_555
C10 C17 1_555 1_555
C13 C21 1_555 1_555
C15 C20 1_555 1_555
C26 C27 1_555 1_555
C30 C31 1_555 1_555
C32 C33 1_555 1_555
C34 C16_2 1_555 1_555
C4_2 H1_2 1_555 1_555
C12_2 H10_2 1_555 1_555
C13_2 C12_2 1_555 1_555
H11_2 C13_2 1_555 1_555
C16_2 C12_2 1_555 1_555
C32_2 C21_2 1_555 1_555
C33_2 C16_2 1_555 1_555
H24_2 C33_2 1_555 1_555
C13_2 C21_2 1_555 1_555
C32_2 C33_2 1_555 1_555
Cd5 O9_2 1_555 1_555
Cd7 O12_2 1_555 1_555
O9_2 C22_2 1_555 1_555
C19_2 C22_2 1_555 1_555
C22_2 O12_2 1_555 1_555
C29_2 C19_2 1_555 1_555
H20_2 C29_2 1_555 1_555
H21_2 C30_2 1_555 1_555
C31_2 C6_2 1_555 1_555
H22_2 C31_2 1_555 1_555
O13 Cd7 1_555 1_555
O14_2 Cd7 1_555 1_555
O15_2 Cd7 1_555 1_555
O18_2 Cd5 1_555 1_555
C35_2 O18_2 1_555 1_555
O19_2 Cd5 1_555 1_555
C30_2 C31_2 1_555 1_555
C35_2 O19_2 1_555 1_555
O14_2 H25_2 1_555 1_555
O14_2 H26_2 1_555 1_555
O13 H27 1_555 1_555
O13 H28 1_555 1_555
O15_2 H30 1_555 1_555
H3_2 C5_2 1_555 1_555
H4_2 C5_2 1_555 1_555
O20 C23_2 1_555 1_555
C10_2 H9_2 1_555 1_555
C11_2 C10_2 1_555 1_555
C17_2 C9_2 1_555 1_555
H13_2 C17_2 1_555 1_555
O21 C23_2 1_555 1_555
C23_2 C11_2 1_555 1_555
C10_2 C17_2 1_555 1_555
O8_2 C8_2 1_555 1_555
C7_2 C3_2 1_555 1_555
H5_2 C7_2 1_555 1_555
H6_2 C7_2 1_555 1_555
C8_2 C3_2 1_555 1_555
H7_2 C8_2 1_555 1_555
H8_2 C8_2 1_555 1_555
O10_2 C7_2 1_555 1_555
C14_2 O10_2 1_555 1_555
H12_2 C15_2 1_555 1_555
C18_2 O8_2 1_555 1_555
C20_2 C14_2 1_555 1_555
H14_2 C20_2 1_555 1_555
C25_2 C18_2 1_555 1_555
H16_2 C25_2 1_555 1_555
H17_2 C26_2 1_555 1_555
H18_2 C27_2 1_555 1_555
C28_2 C18_2 1_555 1_555
H19_2 C28_2 1_555 1_555
C15_2 C20_2 1_555 1_555
C24_2 C25_2 1_555 1_555
C26_2 C27_2 1_555 1_555
O13_2 H27_2 1_555 1_555
O13_2 H28_2 1_555 1_555
O13_3 H27_3 1_555 1_555
O13_3 H28_3 1_555 1_555
Cd1_2 O9_3 1_555 1_555
Cd2_2 O12_3 1_555 1_555
O1_2 C1_2 1_555 1_555
O2_2 C1_2 1_555 1_555
C1_2 C16_3 1_555 1_555
O5_3 C5_3 1_555 1_555
C3_3 C4_3 1_555 1_555
C4_3 H1_3 1_555 1_555
H2_3 C4_3 1_555 1_555
C5_3 C3_3 1_555 1_555
H3_3 C5_3 1_555 1_555
H4_3 C5_3 1_555 1_555
O6_2 C23_3 1_555 1_555
O7_3 C4_3 1_555 1_555
O8_3 C8_3 1_555 1_555
O9_3 C22_3 1_555 1_555
C7_3 C3_3 1_555 1_555
H5_3 C7_3 1_555 1_555
H6_3 C7_3 1_555 1_555
C8_3 C3_3 1_555 1_555
H7_3 C8_3 1_555 1_555
H8_3 C8_3 1_555 1_555
C9_3 O5_3 1_555 1_555
O10_3 C7_3 1_555 1_555
C10_3 H9_3 1_555 1_555
C11_3 C10_3 1_555 1_555
C12_3 H10_3 1_555 1_555
C13_3 C12_3 1_555 1_555
H11_3 C13_3 1_555 1_555
C14_3 O10_3 1_555 1_555
C15_3 C6_3 1_555 1_555
H12_3 C15_3 1_555 1_555
C16_3 C12_3 1_555 1_555
C17_3 C9_3 1_555 1_555
H13_3 C17_3 1_555 1_555
O11_2 C23_3 1_555 1_555
C18_3 O8_3 1_555 1_555
C19_3 C22_3 1_555 1_555
C20_3 C14_3 1_555 1_555
H14_3 C20_3 1_555 1_555
C21_3 O7_3 1_555 1_555
C22_3 O12_3 1_555 1_555
C23_3 C11_3 1_555 1_555
C24_3 C19_3 1_555 1_555
H15_3 C24_3 1_555 1_555
C25_3 C18_3 1_555 1_555
H16_3 C25_3 1_555 1_555
C26_3 C9_3 1_555 1_555
H17_3 C26_3 1_555 1_555
C27_3 C11_3 1_555 1_555
H18_3 C27_3 1_555 1_555
C28_3 C18_3 1_555 1_555
H19_3 C28_3 1_555 1_555
C29_3 C19_3 1_555 1_555
H20_3 C29_3 1_555 1_555
C30_3 C14_3 1_555 1_555
H21_3 C30_3 1_555 1_555
C31_3 C6_3 1_555 1_555
H22_3 C31_3 1_555 1_555
C32_3 C21_3 1_555 1_555
H23_3 C32_3 1_555 1_555
C33_3 C16_3 1_555 1_555
H24_3 C33_3 1_555 1_555
O14_3 Cd2_2 1_555 1_555
O15_3 Cd2_2 1_555 1_555
Cd4 O1_2 1_555 1_555
Cd6 O2_2 1_555 1_555
O16_2 Cd1_2 1_555 1_555
O17_2 Cd1_2 1_555 1_555
O18_3 Cd1_2 1_555 1_555
C34_2 O16_2 1_555 1_555
C35_3 O18_3 1_555 1_555
O19_3 Cd1_2 1_555 1_555
O20_2 Cd1_2 1_555 1_555
O21_2 Cd2_2 1_555 1_555
Cd2_2 O17_2 1_555 1_555
O2_2 Cd4 1_555 1_555
C10_3 C17_3 1_555 1_555
C13_3 C21_3 1_555 1_555
C15_3 C20_3 1_555 1_555
C24_3 C25_3 1_555 1_555
C26_3 C27_3 1_555 1_555
C28_3 C29_3 1_555 1_555
C30_3 C31_3 1_555 1_555
C32_3 C33_3 1_555 1_555
O17_2 C34_2 1_555 1_555
C35_3 O19_3 1_555 1_555
O14_3 H25_3 1_555 1_555
O14_3 H26_3 1_555 1_555
O15_3 H29_3 1_555 1_555
C25_4 C18_4 1_555 1_555
H16_4 C25_4 1_555 1_555
C28_4 C18_4 1_555 1_555
C24_4 C25_4 1_555 1_555
H3_4 C5_4 1_555 1_555
H4_4 C5_4 1_555 1_555
O20_2 C23_4 1_555 1_555
C10_4 H9_4 1_555 1_555
C11_4 C10_4 1_555 1_555
C17_4 C9_4 1_555 1_555
H13_4 C17_4 1_555 1_555
O21_2 C23_4 1_555 1_555
C23_4 C11_4 1_555 1_555
C10_4 C17_4 1_555 1_555
Cd4 O9_4 1_555 1_555
Cd6 O12_4 1_555 1_555
O9_4 C22_4 1_555 1_555
C19_4 C22_4 1_555 1_555
C22_4 O12_4 1_555 1_555
C29_4 C19_4 1_555 1_555
H20_4 C29_4 1_555 1_555
O13_4 Cd6 1_555 1_555
O14_4 Cd6 1_555 1_555
O15_4 Cd6 1_555 1_555
O18_4 Cd4 1_555 1_555
C35_4 O18_4 1_555 1_555
O19_4 Cd4 1_555 1_555
C35_4 O19_4 1_555 1_555
O14_4 H25_4 1_555 1_555
O14_4 H26_4 1_555 1_555
O13_4 H27_4 1_555 1_555
O13_4 H28_4 1_555 1_555
O15_4 H30_4 1_555 1_555
C6_4 C35_4 1_555 1_555
H21_4 C30_4 1_555 1_555
C31_4 C6_4 1_555 1_555
H22_4 C31_4 1_555 1_555
C30_4 C31_4 1_555 1_555
C34_2 C16_4 1_555 1_555
C4_4 H1_4 1_555 1_555
C12_4 H10_4 1_555 1_555
C13_4 C12_4 1_555 1_555
H11_4 C13_4 1_555 1_555
C16_4 C12_4 1_555 1_555
C32_4 C21_4 1_555 1_555
C33_4 C16_4 1_555 1_555
H24_4 C33_4 1_555 1_555
C13_4 C21_4 1_555 1_555
C32_4 C33_4 1_555 1_555
O8_4 C8_4 1_555 1_555
C7_4 C3_4 1_555 1_555
H5_4 C7_4 1_555 1_555
H6_4 C7_4 1_555 1_555
C8_4 C3_4 1_555 1_555
H7_4 C8_4 1_555 1_555
H8_4 C8_4 1_555 1_555
O10_4 C7_4 1_555 1_555
C14_4 O10_4 1_555 1_555
H12_4 C15_4 1_555 1_555
C20_4 C14_4 1_555 1_555
H14_4 C20_4 1_555 1_555
H17_4 C26_4 1_555 1_555
H18_4 C27_4 1_555 1_555
C15_4 C20_4 1_555 1_555
C26_4 C27_4 1_555 1_555

#END
