
###############################################################################
#
# This file contains modified crystal structure data generated from the
# MOF subset of the Cambridge Structural Database (CSD) v543 
# hosted by the Cambridge Crystallographic Data Centre (CCDC).
#
# This work is licensed under the Creative Commons
# Attribution-NonCommercial-ShareAlike 4.0 International License.
# To view a copy of this license, visit
# http://creativecommons.org/licenses/by-nc-sa/4.0/
# or send a letter to
# Creative Commons, PO Box 1866, Mountain View, CA 94042, USA.
#
# CIF created using the CSD Python API on 29 September 2022
# The structure has been converted into the P1 space group
# The structure has a 3D framework
# The original CSD entry ERIJUM is in the monoclinic crystal system
# The framework has been calculated to contain at least 10.0% void space
# The void calculation uses a probe of radius 1.32A, grid spacing 0.4
# The framework is charged, counterions have been retained in the structure
#
###############################################################################

data_ERIJUM
_chemical_formula_moiety         '(C112 H112 Ag26 N64 26+)n'
_symmetry_cell_setting           triclinic
_symmetry_space_group_name_H-M   'P 1'
_symmetry_Int_Tables_number      1
_space_group_name_Hall           'P 1'
loop_
_symmetry_equiv_pos_site_id
_symmetry_equiv_pos_as_xyz
1 x,y,z
_cell_length_a                   23.342(3)
_cell_length_b                   20.685(3)
_cell_length_c                   12.5402(16)
_cell_angle_alpha                90
_cell_angle_beta                 97.970(2)
_cell_angle_gamma                90
_cell_volume                     5996.29
loop_
_atom_site_label
_atom_site_type_symbol
_atom_site_fract_x
_atom_site_fract_y
_atom_site_fract_z
N17 N 0.5000 0.057(3) 0.2500
Ag1 Ag 0.5000 0.5900(3) 0.2500
Ag2 Ag 0.5000 0.9459(3) 0.2500
Ag3 Ag -0.0000 0.8075(4) 0.2500
Ag4 Ag 0.2632(3) 0.9235(3) 0.5650(5)
N1 N 0.333(3) 0.950(2) 0.483(4)
N2 N 0.1838(19) 0.887(2) 0.462(3)
N3 N 0.5000 0.829(3) 0.2500
N4 N 0.5000 0.697(2) 0.2500
N5 N 0.5006(18) 0.5338(18) 0.095(3)
N6 N 0.082(2) 0.844(3) 0.345(4)
C1 C 0.476(2) 0.730(2) 0.320(4)
H1 H 0.4585 0.7080 0.3715
C2 C 0.153(3) 0.921(3) 0.387(4)
H2 H 0.1660 0.9627 0.3775
C3 C 0.476(2) 0.798(2) 0.321(4)
H3 H 0.4590 0.8206 0.3719
C4 C 0.548(2) 0.509(2) 0.068(3)
H4 H 0.5828 0.5154 0.1131
C5 C 0.453(2) 0.526(2) 0.027(3)
H5 H 0.4189 0.5444 0.0427
C6 C 0.392(3) 0.937(3) 0.516(4)
H6 H 0.4041 0.9250 0.5864
C7 C 0.108(3) 0.903(3) 0.326(4)
H7 H 0.0916 0.9288 0.2700
C8 C 0.116(3) 0.807(3) 0.415(5)
H8 H 0.1027 0.7659 0.4281
C9 C 0.370(4) 0.979(4) 0.315(4)
H9 H 0.3613 0.9944 0.2450
N7 N 0.425(2) 0.961(2) 0.353(3)
C10 C 0.430(3) 0.942(3) 0.447(5)
H10 H 0.4674 0.9295 0.4756
C11 C 0.168(3) 0.825(3) 0.468(4)
H11 H 0.1919 0.7953 0.5081
C12 C 0.330(4) 0.976(3) 0.377(5)
H12 H 0.2938 0.9936 0.3483
N8 N 0.0000 0.698(4) 0.2500
N9 N 0.0000 0.557(3) 0.2500
C15 C 0.524(2) 0.730(2) 0.180(4)
H15 H 0.5415 0.7080 0.1285
C16 C 0.524(2) 0.798(2) 0.179(4)
H16 H 0.5410 0.8206 0.1281
C19 C 0.022(3) 0.660(4) 0.170(6)
H19 H 0.0339 0.6816 0.1118
C20 C 0.027(4) 0.598(4) 0.172(7)
H20 H 0.0471 0.5778 0.1231
Ag8 Ag -0.0000 0.4459(3) 0.2500
N15 N 0.4994(18) 0.5338(18) 0.405(3)
N16 N 0.575(2) 0.961(2) 0.147(3)
N10 N 0.4994(18) 0.4662(18) 0.905(3)
C17 C 0.452(2) 0.491(2) 0.932(3)
H17 H 0.4172 0.4846 0.8869
C18 C 0.547(2) 0.474(2) 0.973(3)
H18 H 0.5811 0.4556 0.9573
Ag6 Ag 0.5000 0.4100(3) 0.7500
Ag3_2 Ag 1.0000 0.8075(4) 0.2500
N8_2 N 1.0000 0.698(4) 0.2500
C13 C 0.978(3) 0.660(4) 0.330(6)
H13 H 0.9661 0.6816 0.3882
C14 C 0.973(4) 0.598(4) 0.328(7)
H14 H 0.9529 0.5778 0.3769
N9_2 N 1.0000 0.557(3) 0.2500
N11 N 0.667(3) 0.950(2) 0.017(4)
N12 N 0.8162(19) 0.887(2) 0.038(3)
N13 N 0.918(2) 0.844(3) 0.155(4)
C21 C 0.847(3) 0.921(3) 0.113(4)
H21 H 0.8340 0.9627 0.1225
C23 C 0.892(3) 0.903(3) 0.174(4)
H23 H 0.9084 0.9288 0.2300
C24 C 0.884(3) 0.807(3) 0.085(5)
H24 H 0.8973 0.7659 0.0719
C25 C 0.630(4) 0.979(4) 0.185(4)
H25 H 0.6387 0.9944 0.2550
C26 C 0.570(3) 0.942(3) 0.053(5)
H26 H 0.5326 0.9295 0.0244
C27 C 0.832(3) 0.825(3) 0.032(4)
C28 C 0.670(4) 0.976(3) 0.123(5)
H28 H 0.7062 0.9936 0.1517
Ag8_2 Ag 1.0000 0.4459(3) 0.2500
C4_2 C 0.452(2) 0.509(2) 0.432(3)
H4_2 H 0.4172 0.5154 0.3869
C5_2 C 0.547(2) 0.526(2) 0.473(3)
H5_2 H 0.5811 0.5444 0.4573
N10_2 N 0.5006(18) 0.4662(18) 0.595(3)
C17_2 C 0.548(2) 0.491(2) 0.568(3)
H17_2 H 0.5828 0.4846 0.6131
C18_2 C 0.453(2) 0.474(2) 0.527(3)
H18_2 H 0.4189 0.4556 0.5427
Ag1_2 Ag 0.0000 0.0900(3) 0.2500
N3_2 N 0.0000 0.329(3) 0.2500
N4_2 N 0.0000 0.197(2) 0.2500
N5_2 N 0.0006(18) 0.0338(18) 0.095(3)
C4_3 C 0.048(2) 0.009(2) 0.068(3)
H4_3 H 0.0828 0.0154 0.1131
C15_2 C 0.024(2) 0.230(2) 0.180(4)
H15_2 H 0.0415 0.2080 0.1285
C16_2 C 0.024(2) 0.298(2) 0.179(4)
H16_2 H 0.0410 0.3206 0.1281
N16_2 N 0.075(2) 0.461(2) 0.147(3)
C18_3 C 0.047(2) 0.974(2) 0.973(3)
H18_3 H 0.0811 0.9556 0.9573
Ag6_2 Ag 0.0000 0.9100(3) 0.7500
Ag1_3 Ag 1.0000 0.0900(3) 0.2500
Ag3_3 Ag 0.5000 0.3075(4) 0.2500
Ag4_2 Ag 0.7632(3) 0.4235(3) 0.5650(5)
N1_2 N 0.833(3) 0.450(2) 0.483(4)
N2_2 N 0.6838(19) 0.387(2) 0.462(3)
N3_3 N 1.0000 0.329(3) 0.2500
N4_3 N 1.0000 0.197(2) 0.2500
N6_2 N 0.582(2) 0.344(3) 0.345(4)
C1_2 C 0.976(2) 0.230(2) 0.320(4)
H1_2 H 0.9585 0.2080 0.3715
C2_2 C 0.653(3) 0.421(3) 0.387(4)
H2_2 H 0.6660 0.4627 0.3775
C3_2 C 0.976(2) 0.298(2) 0.321(4)
H3_2 H 0.9590 0.3206 0.3719
C5_3 C 0.953(2) 0.026(2) 0.027(3)
H5_3 H 0.9189 0.0444 0.0427
C6_2 C 0.892(3) 0.437(3) 0.516(4)
H6_2 H 0.9041 0.4250 0.5864
C7_2 C 0.608(3) 0.403(3) 0.326(4)
H7_2 H 0.5916 0.4288 0.2700
C8_2 C 0.616(3) 0.307(3) 0.415(5)
H8_2 H 0.6027 0.2659 0.4281
C9_2 C 0.870(4) 0.479(4) 0.315(4)
H9_2 H 0.8613 0.4944 0.2450
N7_2 N 0.925(2) 0.461(2) 0.353(3)
C10_2 C 0.930(3) 0.442(3) 0.447(5)
H10_2 H 0.9674 0.4295 0.4756
C11_2 C 0.668(3) 0.325(3) 0.468(4)
H11_2 H 0.6919 0.2953 0.5081
C12_2 C 0.830(4) 0.476(3) 0.377(5)
H12_2 H 0.7938 0.4936 0.3483
N8_3 N 0.5000 0.198(4) 0.2500
C13_2 C 0.478(3) 0.160(4) 0.330(6)
H13_2 H 0.4661 0.1816 0.3882
C14_2 C 0.473(4) 0.098(4) 0.328(7)
H14_2 H 0.4529 0.0778 0.3769
C19_2 C 0.522(3) 0.160(4) 0.170(6)
H19_2 H 0.5339 0.1816 0.1118
C20_2 C 0.527(4) 0.098(4) 0.172(7)
H20_2 H 0.5471 0.0778 0.1231
N11_2 N 0.167(3) 0.450(2) 0.017(4)
N12_2 N 0.3162(19) 0.387(2) 0.038(3)
N13_2 N 0.418(2) 0.344(3) 0.155(4)
C21_2 C 0.347(3) 0.421(3) 0.113(4)
H21_2 H 0.3340 0.4627 0.1225
C23_2 C 0.392(3) 0.403(3) 0.174(4)
H23_2 H 0.4084 0.4288 0.2300
C24_2 C 0.384(3) 0.307(3) 0.085(5)
H24_2 H 0.3973 0.2659 0.0719
C25_2 C 0.130(4) 0.479(4) 0.185(4)
H25_2 H 0.1387 0.4944 0.2550
C26_2 C 0.070(3) 0.442(3) 0.053(5)
H26_2 H 0.0326 0.4295 0.0244
C27_2 C 0.332(3) 0.325(3) 0.032(4)
C28_2 C 0.170(4) 0.476(3) 0.123(5)
H28_2 H 0.2062 0.4936 0.1517
N15_2 N 0.9994(18) 0.0338(18) 0.405(3)
N10_3 N 0.9994(18) 0.9662(18) 0.905(3)
C17_3 C 0.952(2) 0.991(2) 0.932(3)
H17_3 H 0.9172 0.9846 0.8869
Ag6_3 Ag 1.0000 0.9100(3) 0.7500
C5_4 C 0.047(2) 0.026(2) 0.473(3)
H5_4 H 0.0811 0.0444 0.4573
N10_4 N 0.0006(18) 0.9662(18) 0.595(3)
C17_4 C 0.048(2) 0.991(2) 0.568(3)
H17_4 H 0.0828 0.9846 0.6131
C4_4 C 0.952(2) 0.009(2) 0.432(3)
H4_4 H 0.9172 0.0154 0.3869
C18_4 C 0.953(2) 0.974(2) 0.527(3)
H18_4 H 0.9189 0.9556 0.5427
Ag3_4 Ag 0.0000 0.1925(4) 0.7500
N8_4 N 0.0000 0.302(4) 0.7500
C13_3 C 0.022(3) 0.340(4) 0.670(6)
H13_3 H 0.0339 0.3184 0.6118
C14_3 C 0.027(4) 0.402(4) 0.672(7)
H14_3 H 0.0471 0.4222 0.6231
N9_3 N 0.0000 0.443(3) 0.7500
N11_3 N 0.333(3) 0.050(2) 0.983(4)
N12_3 N 0.1838(19) 0.113(2) 0.962(3)
N13_3 N 0.082(2) 0.156(3) 0.845(4)
C21_3 C 0.153(3) 0.079(3) 0.887(4)
H21_3 H 0.1660 0.0373 0.8775
C23_3 C 0.108(3) 0.097(3) 0.826(4)
H23_3 H 0.0916 0.0712 0.7700
C24_3 C 0.116(3) 0.193(3) 0.915(5)
H24_3 H 0.1027 0.2341 0.9281
C25_3 C 0.370(4) 0.021(4) 0.815(4)
H25_3 H 0.3613 0.0056 0.7450
N14 N 0.425(2) 0.039(2) 0.853(3)
C26_3 C 0.430(3) 0.058(3) 0.947(5)
H26_3 H 0.4674 0.0705 0.9756
C27_3 C 0.168(3) 0.175(3) 0.968(4)
C28_3 C 0.330(4) 0.024(3) 0.877(5)
H28_3 H 0.2938 0.0064 0.8483
Ag7 Ag 0.5000 0.0541(3) 0.7500
Ag8_3 Ag 0.0000 0.5541(3) 0.7500
Ag3_5 Ag 1.0000 0.1925(4) 0.7500
Ag4_3 Ag 0.7368(3) 0.0765(3) 0.4350(5)
N1_3 N 0.667(3) 0.050(2) 0.517(4)
N2_3 N 0.8162(19) 0.113(2) 0.538(3)
N3_4 N 0.5000 0.171(3) 0.7500
N4_4 N 0.5000 0.303(2) 0.7500
N6_3 N 0.918(2) 0.156(3) 0.655(4)
C1_3 C 0.524(2) 0.270(2) 0.680(4)
H1_3 H 0.5415 0.2920 0.6285
C2_3 C 0.847(3) 0.079(3) 0.613(4)
H2_3 H 0.8340 0.0373 0.6225
C3_3 C 0.524(2) 0.202(2) 0.679(4)
H3_3 H 0.5410 0.1794 0.6281
C6_3 C 0.608(3) 0.063(3) 0.484(4)
H6_3 H 0.5959 0.0750 0.4136
C7_3 C 0.892(3) 0.097(3) 0.674(4)
H7_3 H 0.9084 0.0712 0.7300
C8_3 C 0.884(3) 0.193(3) 0.585(5)
H8_3 H 0.8973 0.2341 0.5719
C9_3 C 0.630(4) 0.021(4) 0.685(4)
H9_3 H 0.6387 0.0056 0.7550
N7_3 N 0.575(2) 0.039(2) 0.647(3)
C10_3 C 0.570(3) 0.058(3) 0.553(5)
H10_3 H 0.5326 0.0705 0.5244
C11_3 C 0.832(3) 0.175(3) 0.532(4)
H11_3 H 0.8081 0.2047 0.4919
C12_3 C 0.670(4) 0.024(3) 0.623(5)
H12_3 H 0.7062 0.0064 0.6517
N8_5 N 1.0000 0.302(4) 0.7500
N9_4 N 1.0000 0.443(3) 0.7500
C15_3 C 0.476(2) 0.270(2) 0.820(4)
H15_3 H 0.4585 0.2920 0.8715
C16_3 C 0.476(2) 0.202(2) 0.821(4)
H16_3 H 0.4590 0.1794 0.8719
C19_3 C 0.978(3) 0.340(4) 0.830(6)
H19_3 H 0.9661 0.3184 0.8882
C20_3 C 0.973(4) 0.402(4) 0.828(7)
H20_3 H 0.9529 0.4222 0.8769
Ag8_4 Ag 1.0000 0.5541(3) 0.7500
N17_2 N 0.5000 0.943(3) 0.7500
Ag3_6 Ag 0.5000 0.6925(4) 0.7500
Ag4_4 Ag 0.2368(3) 0.5765(3) 0.4350(5)
N1_4 N 0.167(3) 0.550(2) 0.517(4)
N2_4 N 0.3162(19) 0.613(2) 0.538(3)
N3_5 N 0.0000 0.671(3) 0.7500
N4_5 N 0.0000 0.803(2) 0.7500
N6_4 N 0.418(2) 0.656(3) 0.655(4)
C1_4 C 0.024(2) 0.770(2) 0.680(4)
H1_4 H 0.0415 0.7920 0.6285
C2_4 C 0.347(3) 0.579(3) 0.613(4)
H2_4 H 0.3340 0.5373 0.6225
C3_4 C 0.024(2) 0.702(2) 0.679(4)
H3_4 H 0.0410 0.6794 0.6281
C6_4 C 0.108(3) 0.563(3) 0.484(4)
H6_4 H 0.0959 0.5750 0.4136
C7_4 C 0.392(3) 0.597(3) 0.674(4)
H7_4 H 0.4084 0.5712 0.7300
C8_4 C 0.384(3) 0.693(3) 0.585(5)
H8_4 H 0.3973 0.7341 0.5719
C9_4 C 0.130(4) 0.521(4) 0.685(4)
H9_4 H 0.1387 0.5056 0.7550
N7_4 N 0.075(2) 0.539(2) 0.647(3)
C10_4 C 0.070(3) 0.558(3) 0.553(5)
H10_4 H 0.0326 0.5705 0.5244
C11_4 C 0.332(3) 0.675(3) 0.532(4)
H11_4 H 0.3081 0.7047 0.4919
C12_4 C 0.170(4) 0.524(3) 0.623(5)
H12_4 H 0.2062 0.5064 0.6517
N8_6 N 0.5000 0.802(4) 0.7500
C13_4 C 0.522(3) 0.840(4) 0.670(6)
H13_4 H 0.5339 0.8184 0.6118
C14_4 C 0.527(4) 0.902(4) 0.672(7)
H14_4 H 0.5471 0.9222 0.6231
C19_4 C 0.478(3) 0.840(4) 0.830(6)
H19_4 H 0.4661 0.8184 0.8882
C20_4 C 0.473(4) 0.902(4) 0.828(7)
H20_4 H 0.4529 0.9222 0.8769
N11_4 N 0.833(3) 0.550(2) 0.983(4)
N12_4 N 0.6838(19) 0.613(2) 0.962(3)
N13_4 N 0.582(2) 0.656(3) 0.845(4)
C21_4 C 0.653(3) 0.579(3) 0.887(4)
H21_4 H 0.6660 0.5373 0.8775
C23_4 C 0.608(3) 0.597(3) 0.826(4)
H23_4 H 0.5916 0.5712 0.7700
C24_4 C 0.616(3) 0.693(3) 0.915(5)
H24_4 H 0.6027 0.7341 0.9281
C25_4 C 0.870(4) 0.521(4) 0.815(4)
H25_4 H 0.8613 0.5056 0.7450
N14_2 N 0.925(2) 0.539(2) 0.853(3)
C26_4 C 0.930(3) 0.558(3) 0.947(5)
H26_4 H 0.9674 0.5705 0.9756
C27_4 C 0.668(3) 0.675(3) 0.968(4)
C28_4 C 0.830(4) 0.524(3) 0.877(5)
H28_4 H 0.7938 0.5064 0.8483
N3_6 N 1.0000 0.671(3) 0.7500
N4_6 N 1.0000 0.803(2) 0.7500
C15_4 C 0.976(2) 0.770(2) 0.820(4)
H15_4 H 0.9585 0.7920 0.8715
C16_4 C 0.976(2) 0.702(2) 0.821(4)
H16_4 H 0.9590 0.6794 0.8719
Ag5 Ag 0.7368(3) 0.9235(3) 0.9350(5)
C22 C 0.608(3) 0.937(3) 0.984(4)
H22 H 0.5959 0.9250 0.9136
H27 H 0.8081 0.7953 0.9919
Ag5_2 Ag 0.2368(3) 0.4235(3) 0.9350(5)
C22_2 C 0.108(3) 0.437(3) 0.984(4)
H22_2 H 0.0959 0.4250 0.9136
H27_2 H 0.3081 0.2953 0.9919
Ag5_3 Ag 0.2632(3) 0.0765(3) 0.0650(5)
C22_3 C 0.392(3) 0.063(3) 0.016(4)
H22_3 H 0.4041 0.0750 0.0864
H27_3 H 0.1919 0.2047 0.0081
Ag5_4 Ag 0.7632(3) 0.5765(3) 0.0650(5)
C22_4 C 0.892(3) 0.563(3) 0.016(4)
H22_4 H 0.9041 0.5750 0.0864
H27_4 H 0.6919 0.7047 0.0081
loop_
_geom_bond_atom_site_label_1
_geom_bond_atom_site_label_2
_geom_bond_site_symmetry_1
_geom_bond_site_symmetry_2
Ag1 N4 1_555 1_555
Ag2 N3 1_555 1_555
Ag3 N6 1_555 1_555
Ag4 N1 1_555 1_555
N1 C6 1_555 1_555
N2 Ag4 1_555 1_555
N3 C3 1_555 1_555
N4 C1 1_555 1_555
N5 Ag1 1_555 1_555
N6 C7 1_555 1_555
C1 H1 1_555 1_555
C2 N2 1_555 1_555
H2 C2 1_555 1_555
C3 C1 1_555 1_555
H3 C3 1_555 1_555
C4 N5 1_555 1_555
H4 C4 1_555 1_555
C5 N5 1_555 1_555
H5 C5 1_555 1_555
C6 H6 1_555 1_555
C7 C2 1_555 1_555
H7 C7 1_555 1_555
C8 N6 1_555 1_555
H8 C8 1_555 1_555
C9 H9 1_555 1_555
N7 Ag2 1_555 1_555
C10 C6 1_555 1_555
H10 C10 1_555 1_555
C11 N2 1_555 1_555
H11 C11 1_555 1_555
C12 N1 1_555 1_555
H12 C12 1_555 1_555
N8 Ag3 1_555 1_555
C15 N4 1_555 1_555
H15 C15 1_555 1_555
C16 N3 1_555 1_555
H16 C16 1_555 1_555
C19 N8 1_555 1_555
H19 C19 1_555 1_555
C20 N9 1_555 1_555
H20 C20 1_555 1_555
Ag8 N9 1_555 1_555
N15 Ag1 1_555 1_555
N16 Ag2 1_555 1_555
C8 C11 1_555 1_555
C9 N7 1_555 1_555
C9 C12 1_555 1_555
N7 C10 1_555 1_555
C15 C16 1_555 1_555
C19 C20 1_555 1_555
N10 C17 1_555 1_555
H17 C17 1_555 1_555
H18 C18 1_555 1_555
Ag6 N10 1_555 1_555
N10 C18 1_555 1_555
N8_2 Ag3_2 1_555 1_555
C13 N8_2 1_555 1_555
H13 C13 1_555 1_555
C14 C13 1_555 1_555
H14 C14 1_555 1_555
N9_2 C14 1_555 1_555
N13 Ag3_2 1_555 1_555
C21 N12 1_555 1_555
H21 C21 1_555 1_555
C23 N13 1_555 1_555
H23 C23 1_555 1_555
C24 N13 1_555 1_555
H24 C24 1_555 1_555
C25 H25 1_555 1_555
N16 C25 1_555 1_555
H26 C26 1_555 1_555
C27 N12 1_555 1_555
C28 N11 1_555 1_555
H28 C28 1_555 1_555
Ag8_2 N9_2 1_555 1_555
C21 C23 1_555 1_555
C24 C27 1_555 1_555
C25 C28 1_555 1_555
N16 C26 1_555 1_555
C4_2 N15 1_555 1_555
H4_2 C4_2 1_555 1_555
C5_2 N15 1_555 1_555
H5_2 C5_2 1_555 1_555
N10_2 C17_2 1_555 1_555
C17_2 C5_2 1_555 1_555
H17_2 C17_2 1_555 1_555
C18_2 C4_2 1_555 1_555
H18_2 C18_2 1_555 1_555
Ag6 N10_2 1_555 1_555
N10_2 C18_2 1_555 1_555
Ag1_2 N4_2 1_555 1_555
Ag8 N3_2 1_555 1_555
N5_2 Ag1_2 1_555 1_555
C4_3 N5_2 1_555 1_555
H4_3 C4_3 1_555 1_555
C15_2 N4_2 1_555 1_555
H15_2 C15_2 1_555 1_555
C16_2 N3_2 1_555 1_555
H16_2 C16_2 1_555 1_555
N16_2 Ag8 1_555 1_555
C15_2 C16_2 1_555 1_555
H18_3 C18_3 1_555 1_555
Ag1_3 N4_3 1_555 1_555
Ag8_2 N3_3 1_555 1_555
Ag3_3 N6_2 1_555 1_555
Ag4_2 N1_2 1_555 1_555
N1_2 C6_2 1_555 1_555
N2_2 Ag4_2 1_555 1_555
N3_3 C3_2 1_555 1_555
N4_3 C1_2 1_555 1_555
N6_2 C7_2 1_555 1_555
C1_2 H1_2 1_555 1_555
C2_2 N2_2 1_555 1_555
H2_2 C2_2 1_555 1_555
C3_2 C1_2 1_555 1_555
H3_2 C3_2 1_555 1_555
H5_3 C5_3 1_555 1_555
C6_2 H6_2 1_555 1_555
C7_2 C2_2 1_555 1_555
H7_2 C7_2 1_555 1_555
C8_2 N6_2 1_555 1_555
H8_2 C8_2 1_555 1_555
C9_2 H9_2 1_555 1_555
N7_2 Ag8_2 1_555 1_555
C10_2 C6_2 1_555 1_555
H10_2 C10_2 1_555 1_555
C11_2 N2_2 1_555 1_555
H11_2 C11_2 1_555 1_555
C12_2 N1_2 1_555 1_555
H12_2 C12_2 1_555 1_555
N8_3 Ag3_3 1_555 1_555
C13_2 N8_3 1_555 1_555
H13_2 C13_2 1_555 1_555
C14_2 C13_2 1_555 1_555
H14_2 C14_2 1_555 1_555
N17 C14_2 1_555 1_555
C19_2 N8_3 1_555 1_555
H19_2 C19_2 1_555 1_555
C20_2 N17 1_555 1_555
H20_2 C20_2 1_555 1_555
N13_2 Ag3_3 1_555 1_555
C21_2 N12_2 1_555 1_555
H21_2 C21_2 1_555 1_555
C23_2 N13_2 1_555 1_555
H23_2 C23_2 1_555 1_555
C24_2 N13_2 1_555 1_555
H24_2 C24_2 1_555 1_555
C25_2 H25_2 1_555 1_555
N16_2 C25_2 1_555 1_555
H26_2 C26_2 1_555 1_555
C27_2 N12_2 1_555 1_555
C28_2 N11_2 1_555 1_555
H28_2 C28_2 1_555 1_555
N15_2 Ag1_3 1_555 1_555
C8_2 C11_2 1_555 1_555
C9_2 N7_2 1_555 1_555
C9_2 C12_2 1_555 1_555
N7_2 C10_2 1_555 1_555
C19_2 C20_2 1_555 1_555
C21_2 C23_2 1_555 1_555
C24_2 C27_2 1_555 1_555
C25_2 C28_2 1_555 1_555
N16_2 C26_2 1_555 1_555
N10_3 C17_3 1_555 1_555
H17_3 C17_3 1_555 1_555
Ag6_3 N10_3 1_555 1_555
H5_4 C5_4 1_555 1_555
N10_4 C17_4 1_555 1_555
H17_4 C17_4 1_555 1_555
Ag6_2 N10_4 1_555 1_555
C4_4 N15_2 1_555 1_555
H4_4 C4_4 1_555 1_555
H18_4 C18_4 1_555 1_555
N8_4 Ag3_4 1_555 1_555
C13_3 N8_4 1_555 1_555
H13_3 C13_3 1_555 1_555
C14_3 C13_3 1_555 1_555
H14_3 C14_3 1_555 1_555
N9_3 C14_3 1_555 1_555
N13_3 Ag3_4 1_555 1_555
C21_3 N12_3 1_555 1_555
H21_3 C21_3 1_555 1_555
C23_3 N13_3 1_555 1_555
H23_3 C23_3 1_555 1_555
C24_3 N13_3 1_555 1_555
H24_3 C24_3 1_555 1_555
C25_3 H25_3 1_555 1_555
N14 C25_3 1_555 1_555
H26_3 C26_3 1_555 1_555
C27_3 N12_3 1_555 1_555
C28_3 N11_3 1_555 1_555
H28_3 C28_3 1_555 1_555
Ag7 N14 1_555 1_555
Ag8_3 N9_3 1_555 1_555
C21_3 C23_3 1_555 1_555
C24_3 C27_3 1_555 1_555
C25_3 C28_3 1_555 1_555
N14 C26_3 1_555 1_555
Ag6 N4_4 1_555 1_555
Ag7 N3_4 1_555 1_555
Ag3_5 N6_3 1_555 1_555
Ag4_3 N1_3 1_555 1_555
N1_3 C6_3 1_555 1_555
N2_3 Ag4_3 1_555 1_555
N3_4 C3_3 1_555 1_555
N4_4 C1_3 1_555 1_555
N6_3 C7_3 1_555 1_555
C1_3 H1_3 1_555 1_555
C2_3 N2_3 1_555 1_555
H2_3 C2_3 1_555 1_555
C3_3 C1_3 1_555 1_555
H3_3 C3_3 1_555 1_555
C6_3 H6_3 1_555 1_555
C7_3 C2_3 1_555 1_555
H7_3 C7_3 1_555 1_555
C8_3 N6_3 1_555 1_555
H8_3 C8_3 1_555 1_555
C9_3 H9_3 1_555 1_555
N7_3 Ag7 1_555 1_555
C10_3 C6_3 1_555 1_555
H10_3 C10_3 1_555 1_555
C11_3 N2_3 1_555 1_555
H11_3 C11_3 1_555 1_555
C12_3 N1_3 1_555 1_555
H12_3 C12_3 1_555 1_555
N8_5 Ag3_5 1_555 1_555
C15_3 N4_4 1_555 1_555
H15_3 C15_3 1_555 1_555
C16_3 N3_4 1_555 1_555
H16_3 C16_3 1_555 1_555
C19_3 N8_5 1_555 1_555
H19_3 C19_3 1_555 1_555
C20_3 N9_4 1_555 1_555
H20_3 C20_3 1_555 1_555
Ag8_4 N9_4 1_555 1_555
C8_3 C11_3 1_555 1_555
C9_3 N7_3 1_555 1_555
C9_3 C12_3 1_555 1_555
N7_3 C10_3 1_555 1_555
C15_3 C16_3 1_555 1_555
C19_3 C20_3 1_555 1_555
Ag6_2 N4_5 1_555 1_555
Ag8_3 N3_5 1_555 1_555
Ag3_6 N6_4 1_555 1_555
Ag4_4 N1_4 1_555 1_555
N1_4 C6_4 1_555 1_555
N2_4 Ag4_4 1_555 1_555
N3_5 C3_4 1_555 1_555
N4_5 C1_4 1_555 1_555
N6_4 C7_4 1_555 1_555
C1_4 H1_4 1_555 1_555
C2_4 N2_4 1_555 1_555
H2_4 C2_4 1_555 1_555
C3_4 C1_4 1_555 1_555
H3_4 C3_4 1_555 1_555
C6_4 H6_4 1_555 1_555
C7_4 C2_4 1_555 1_555
H7_4 C7_4 1_555 1_555
C8_4 N6_4 1_555 1_555
H8_4 C8_4 1_555 1_555
C9_4 H9_4 1_555 1_555
N7_4 Ag8_3 1_555 1_555
C10_4 C6_4 1_555 1_555
H10_4 C10_4 1_555 1_555
C11_4 N2_4 1_555 1_555
H11_4 C11_4 1_555 1_555
C12_4 N1_4 1_555 1_555
H12_4 C12_4 1_555 1_555
N8_6 Ag3_6 1_555 1_555
C13_4 N8_6 1_555 1_555
H13_4 C13_4 1_555 1_555
C14_4 C13_4 1_555 1_555
H14_4 C14_4 1_555 1_555
N17_2 C14_4 1_555 1_555
C19_4 N8_6 1_555 1_555
H19_4 C19_4 1_555 1_555
C20_4 N17_2 1_555 1_555
H20_4 C20_4 1_555 1_555
N13_4 Ag3_6 1_555 1_555
C21_4 N12_4 1_555 1_555
H21_4 C21_4 1_555 1_555
C23_4 N13_4 1_555 1_555
H23_4 C23_4 1_555 1_555
C24_4 N13_4 1_555 1_555
H24_4 C24_4 1_555 1_555
C25_4 H25_4 1_555 1_555
N14_2 C25_4 1_555 1_555
H26_4 C26_4 1_555 1_555
C27_4 N12_4 1_555 1_555
C28_4 N11_4 1_555 1_555
H28_4 C28_4 1_555 1_555
Ag8_4 N14_2 1_555 1_555
C8_4 C11_4 1_555 1_555
C9_4 N7_4 1_555 1_555
C9_4 C12_4 1_555 1_555
N7_4 C10_4 1_555 1_555
C19_4 C20_4 1_555 1_555
C21_4 C23_4 1_555 1_555
C24_4 C27_4 1_555 1_555
C25_4 C28_4 1_555 1_555
N14_2 C26_4 1_555 1_555
Ag6_3 N4_6 1_555 1_555
Ag8_4 N3_6 1_555 1_555
C15_4 N4_6 1_555 1_555
H15_4 C15_4 1_555 1_555
C16_4 N3_6 1_555 1_555
H16_4 C16_4 1_555 1_555
C15_4 C16_4 1_555 1_555
C22 H22 1_555 1_555
C22_2 H22_2 1_555 1_555
C22_3 H22_3 1_555 1_555
C22_4 H22_4 1_555 1_555

#END
