
###############################################################################
#
# This file contains modified crystal structure data generated from the
# MOF subset of the Cambridge Structural Database (CSD) v543 
# hosted by the Cambridge Crystallographic Data Centre (CCDC).
#
# This work is licensed under the Creative Commons
# Attribution-NonCommercial-ShareAlike 4.0 International License.
# To view a copy of this license, visit
# http://creativecommons.org/licenses/by-nc-sa/4.0/
# or send a letter to
# Creative Commons, PO Box 1866, Mountain View, CA 94042, USA.
#
# CIF created using the CSD Python API on 29 September 2022
# The structure has been converted into the P1 space group
# The structure has a 3D framework
# The original CSD entry EROBIZ is in the tetragonal crystal system
# The framework has been calculated to contain at least 10.0% void space
# The void calculation uses a probe of radius 1.32A, grid spacing 0.4
# H atom positions have been added when not included in the experimental data
# Generated hydrogen atom positions removed from atoms on special positions
#
###############################################################################

data_EROBIZ
_chemical_formula_moiety         '(C780 H540 O288 Zn68)n'
_symmetry_cell_setting           triclinic
_symmetry_space_group_name_H-M   'P 1'
_symmetry_Int_Tables_number      1
_space_group_name_Hall           'P 1'
loop_
_symmetry_equiv_pos_site_id
_symmetry_equiv_pos_as_xyz
1 x,y,z
_cell_length_a                   30.86932(9)
_cell_length_b                   30.86932(9)
_cell_length_c                   46.7574(2)
_cell_angle_alpha                90
_cell_angle_beta                 90
_cell_angle_gamma                90
_cell_volume                     44555.8
loop_
_atom_site_label
_atom_site_type_symbol
_atom_site_fract_x
_atom_site_fract_y
_atom_site_fract_z
Zn1 Zn 0.05992(2) 0.23681(2) 0.500000
Zn2 Zn 0.08011(2) 0.33162(2) 0.500000
Zn3 Zn 0.08788(2) 0.85143(2) 0.37101(2)
Zn4 Zn 0.28965(2) 0.37414(2) 0.17118(2)
Zn5 Zn 0.000000 0.500000 0.500000
O1 O 0.19869(7) 0.17787(6) 0.35460(4)
O2 O 0.16230(8) 0.14578(6) 0.39007(4)
O3 O 0.10638(7) 0.23386(6) 0.46957(4)
O4 O 0.11874(7) 0.30519(6) 0.46938(4)
O7 O 0.06309(7) 0.79841(6) 0.38978(5)
O8 O 0.10033(7) 0.75369(6) 0.36133(5)
O9 O 0.35748(8) 0.65576(7) 0.19287(4)
O10 O 0.37840(8) 0.61237(7) 0.15720(5)
O11 O 0.34792(8) 0.46049(7) 0.15796(5)
O12 O 0.29641(7) 0.43486(6) 0.18711(5)
O13 O 0.03896(10) 0.17617(8) 0.500000
O14 O 0.09874(13) 0.39219(9) 0.500000
O15 O 0.07084(15) 0.89807(9) 0.39653(5)
O16 O 0.24369(8) 0.35189(8) 0.19625(6)
O17 O 0.000000 0.500000 0.4533(3)
O18 O 0.0473(4) 0.5581(3) 0.500000
O19 O 0.0521(4) 0.4580(3) 0.500000
C1 C 0.22525(17) 0.41410(12) 0.35017(9)
C2 C 0.24582(17) 0.37562(12) 0.34475(10)
H1 H 0.266456 0.374692 0.330272
C3 C 0.23728(15) 0.33851(11) 0.35973(9)
H2 H 0.253917 0.313786 0.356822
C4 C 0.20298(14) 0.33821(11) 0.37960(8)
C5 C 0.18269(15) 0.37677(10) 0.38577(8)
H3 H 0.161402 0.377308 0.399833
C6 C 0.19300(15) 0.41457(11) 0.37172(8)
C7 C 0.16911(17) 0.45374(11) 0.37833(10)
C8 C 0.15051(19) 0.48557(12) 0.38491(11)
C9 C 0.12905(18) 0.52571(11) 0.39200(10)
C10 C 0.09834(19) 0.52890(12) 0.41318(11)
H4 H 0.090929 0.504218 0.423480
C11 C 0.07833(17) 0.56729(11) 0.41959(11)
H5 H 0.058737 0.568494 0.434681
C12 C 0.08700(14) 0.60471(10) 0.40371(8)
C13 C 0.1169(2) 0.60107(11) 0.38278(10)
H6 H 0.123421 0.625592 0.372048
C14 C 0.13863(19) 0.56291(12) 0.37634(10)
C15 C 0.1696(2) 0.56141(13) 0.35373(12)
C16 C 0.1930(3) 0.56187(14) 0.33351(14)
C17 C 0.2218(3) 0.56038(14) 0.30975(14)
C18 C 0.2277(3) 0.59580(15) 0.29221(15)
H7 H 0.215744 0.622253 0.297532
C19 C 0.2509(3) 0.59322(14) 0.26694(13)
H8 H 0.252407 0.617093 0.254851
C20 C 0.2719(2) 0.55499(12) 0.25959(10)
C21 C 0.26820(18) 0.51994(11) 0.27788(10)
H9 H 0.282349 0.494254 0.273330
C22 C 0.2437(2) 0.52210(12) 0.30300(11)
C23 C 0.2391(2) 0.48492(12) 0.32061(11)
C24 C 0.2339(2) 0.45283(12) 0.33444(10)
C25 C 0.18885(11) 0.29786(9) 0.39427(7)
C26 C 0.19383(11) 0.25734(10) 0.38146(7)
H10 H 0.208912 0.255135 0.364300
C27 C 0.17689(10) 0.22073(9) 0.39372(6)
C28 C 0.15464(9) 0.22331(8) 0.41938(6)
H11 H 0.142948 0.198468 0.427562
C29 C 0.14984(10) 0.26309(9) 0.43285(6)
C30 C 0.16799(11) 0.29969(9) 0.42055(6)
H12 H 0.166167 0.326045 0.430112
C31 C 0.17969(10) 0.17801(9) 0.37801(6)
C32 C 0.12301(9) 0.26791(9) 0.45948(6)
C33 C 0.06641(11) 0.64715(9) 0.41014(7)
C34 C 0.03615(11) 0.65263(9) 0.43169(7)
H13 H 0.027007 0.628762 0.442218
C35 C 0.01922(9) 0.69337(9) 0.43780(6)
C36 C 0.03270(9) 0.72922(9) 0.42214(6)
H14 H 0.022292 0.756680 0.426570
C37 C 0.06175(9) 0.72366(9) 0.39989(6)
C38 C 0.07825(11) 0.68320(9) 0.39420(7)
H15 H 0.097879 0.679891 0.379265
C40 C 0.07657(9) 0.76188(9) 0.38229(7)
C41 C 0.29733(15) 0.55081(10) 0.23315(8)
C42 C 0.31804(14) 0.58630(10) 0.22043(7)
H16 H 0.316698 0.613285 0.229228
C43 C 0.34029(11) 0.58185(10) 0.19518(6)
C44 C 0.34288(10) 0.54143(9) 0.18205(6)
H17 H 0.358953 0.538170 0.165366
C45 C 0.32165(11) 0.50605(9) 0.19370(7)
C46 C 0.29812(12) 0.51088(10) 0.21902(7)
H18 H 0.282924 0.487464 0.226499
C47 C 0.36008(11) 0.61979(10) 0.18105(6)
C48 C 0.32186(10) 0.46371(10) 0.17845(7)
C49 C 0.0609(5) 0.4174(4) 0.500000
H19 H 0.035979 0.400420 0.500000
O24 O 0.03218(8) 0.33404(7) 0.47033(5)
O25 O 0.02009(7) 0.26255(7) 0.46963(5)
C88 C 0.01354(10) 0.30043(9) 0.46115(6)
Zn10 Zn 0.14857(2) 0.08788(2) 0.37101(2)
Zn11 Zn 0.62586(2) 0.28965(2) 0.17118(2)
O38 O 0.82213(6) 0.19869(7) 0.35460(4)
O39 O 0.85422(6) 0.16230(8) 0.39007(4)
O40 O 0.76614(6) 0.10638(7) 0.46957(4)
O41 O 0.69481(6) 0.11874(7) 0.46938(4)
O44 O 0.20159(6) 0.06309(7) 0.38978(5)
O45 O 0.24631(6) 0.10033(7) 0.36133(5)
O46 O 0.34424(7) 0.35748(8) 0.19287(4)
O47 O 0.38763(7) 0.37840(8) 0.15720(5)
O48 O 0.53951(7) 0.34792(8) 0.15796(5)
O49 O 0.56514(6) 0.29641(7) 0.18711(5)
O50 O 0.10193(9) 0.07084(15) 0.39653(5)
O51 O 0.64811(8) 0.24369(8) 0.19625(6)
C99 C 0.58590(12) 0.22525(17) 0.35017(9)
C100 C 0.62438(12) 0.24582(17) 0.34475(10)
H39 H 0.625308 0.266456 0.330272
C101 C 0.66149(11) 0.23728(15) 0.35973(9)
H40 H 0.686214 0.253917 0.356822
C102 C 0.66179(11) 0.20298(14) 0.37960(8)
C103 C 0.62323(10) 0.18269(15) 0.38577(8)
H41 H 0.622692 0.161402 0.399833
C104 C 0.58543(11) 0.19300(15) 0.37172(8)
C105 C 0.54626(11) 0.16911(17) 0.37833(10)
C106 C 0.51443(12) 0.15051(19) 0.38491(11)
C107 C 0.47429(11) 0.12905(18) 0.39200(10)
C108 C 0.47110(12) 0.09834(19) 0.41318(11)
H42 H 0.495782 0.090929 0.423480
C109 C 0.43271(11) 0.07833(17) 0.41959(11)
H43 H 0.431506 0.058737 0.434681
C110 C 0.39529(10) 0.08700(14) 0.40371(8)
C111 C 0.39893(11) 0.1169(2) 0.38278(10)
H44 H 0.374408 0.123421 0.372048
C112 C 0.43709(12) 0.13863(19) 0.37634(10)
C113 C 0.43859(13) 0.1696(2) 0.35373(12)
C114 C 0.43813(14) 0.1930(3) 0.33351(14)
C115 C 0.43962(14) 0.2218(3) 0.30975(14)
C116 C 0.40420(15) 0.2277(3) 0.29221(15)
H45 H 0.377747 0.215744 0.297532
C117 C 0.40678(14) 0.2509(3) 0.26694(13)
H46 H 0.382907 0.252407 0.254851
C118 C 0.44501(12) 0.2719(2) 0.25959(10)
C119 C 0.48006(11) 0.26820(18) 0.27788(10)
H47 H 0.505746 0.282349 0.273330
C120 C 0.47790(12) 0.2437(2) 0.30300(11)
C121 C 0.51508(12) 0.2391(2) 0.32061(11)
C122 C 0.54717(12) 0.2339(2) 0.33444(10)
C123 C 0.70214(9) 0.18885(11) 0.39427(7)
C124 C 0.74266(10) 0.19383(11) 0.38146(7)
H48 H 0.744865 0.208912 0.364300
C125 C 0.77927(9) 0.17689(10) 0.39372(6)
C126 C 0.77669(8) 0.15464(9) 0.41938(6)
H49 H 0.801532 0.142948 0.427562
C127 C 0.73691(9) 0.14984(10) 0.43285(6)
C128 C 0.70031(9) 0.16799(11) 0.42055(6)
H50 H 0.673955 0.166167 0.430112
C129 C 0.82199(9) 0.17969(10) 0.37801(6)
C130 C 0.73209(9) 0.12301(9) 0.45948(6)
C131 C 0.35285(9) 0.06641(11) 0.41014(7)
C132 C 0.34737(9) 0.03615(11) 0.43169(7)
H51 H 0.371238 0.027007 0.442218
C133 C 0.30663(9) 0.01922(9) 0.43780(6)
C134 C 0.27078(9) 0.03270(9) 0.42214(6)
H52 H 0.243320 0.022292 0.426570
C135 C 0.27634(9) 0.06175(9) 0.39989(6)
C136 C 0.31680(9) 0.07825(11) 0.39420(7)
H53 H 0.320109 0.097879 0.379265
C138 C 0.23812(9) 0.07657(9) 0.38229(7)
C139 C 0.44919(10) 0.29733(15) 0.23315(8)
C140 C 0.41370(10) 0.31804(14) 0.22043(7)
H54 H 0.386715 0.316698 0.229228
C141 C 0.41815(10) 0.34029(11) 0.19518(6)
C142 C 0.45857(9) 0.34288(10) 0.18205(6)
H55 H 0.461830 0.358953 0.165366
C143 C 0.49395(9) 0.32165(11) 0.19370(7)
C144 C 0.48912(10) 0.29812(12) 0.21902(7)
H56 H 0.512536 0.282924 0.226499
C145 C 0.38021(10) 0.36008(11) 0.18105(6)
C146 C 0.53629(10) 0.32186(10) 0.17845(7)
O66 O -0.000000 0.500000 0.5467(3)
Zn15 Zn 0.76319(2) 0.05992(2) 0.500000
Zn19 Zn 0.66838(2) 0.08011(2) 0.500000
Zn23 Zn 0.91212(2) 0.14857(2) 0.37101(2)
Zn25 Zn 0.41212(2) 0.64857(2) 0.12899(2)
Zn27 Zn 0.58788(2) 0.35143(2) 0.12899(2)
Zn28 Zn 0.35143(2) 0.41212(2) 0.12899(2)
Zn31 Zn 0.37414(2) 0.71035(2) 0.17118(2)
Zn32 Zn 0.21035(2) 0.12586(2) 0.32882(2)
Zn35 Zn 0.87414(2) 0.21035(2) 0.32882(2)
Zn37 Zn 0.12586(2) 0.78965(2) 0.32882(2)
O67 O 0.30131(7) 0.32213(6) 0.14540(4)
O69 O 0.67787(6) 0.30131(7) 0.14540(4)
O72 O 0.14578(6) 0.83770(8) 0.39007(4)
O74 O 0.10638(7) 0.23386(6) 0.53043(4)
O76 O 0.11874(7) 0.30519(6) 0.53062(4)
O77 O 0.03218(8) 0.33404(7) 0.52967(5)
O79 O 0.02009(7) 0.26255(7) 0.53037(5)
O82 O 0.60033(7) 0.25369(6) 0.13867(5)
O83 O 0.25369(6) 0.39967(7) 0.13867(5)
O86 O 0.64252(8) 0.34424(7) 0.19287(4)
O87 O 0.12160(8) 0.88763(7) 0.34280(5)
O89 O 0.11237(7) 0.12160(8) 0.34280(5)
O91 O 0.15208(8) 0.03951(7) 0.34204(5)
O94 O 0.03951(7) 0.84792(8) 0.34204(5)
H83 H 0.217394 0.370147 0.194163
H84 H 0.236744 0.321571 0.190834
H101 H 0.629853 0.217394 0.194163
H102 H 0.678429 0.236744 0.190834
O42 O 0.33404(7) 0.96782(8) 0.47033(5)
O43 O 0.26255(7) 0.97991(7) 0.46963(5)
C137 C 0.30043(9) 0.98646(10) 0.46115(6)
Zn17 Zn 0.23681(2) 0.94008(2) 0.500000
Zn21 Zn 0.33162(2) 0.91989(2) 0.500000
O56 O 0.66596(7) 0.03218(8) 0.47033(5)
O57 O 0.73745(7) 0.02009(7) 0.46963(5)
C185 C 0.69957(9) 0.01354(10) 0.46115(6)
Zn5_2 Zn 1.000000 0.500000 0.500000
O5 O 0.96782(8) 0.66596(7) 0.47033(5)
O6 O 0.97991(7) 0.73745(7) 0.46963(5)
O17_2 O 1.000000 0.500000 0.4533(3)
C39 C 0.98646(10) 0.69957(9) 0.46115(6)
Zn6 Zn 0.94008(2) 0.76319(2) 0.500000
Zn7 Zn 0.91989(2) 0.66838(2) 0.500000
Zn9 Zn 0.71035(2) 0.62586(2) 0.17118(2)
O20 O 0.80131(7) 0.82213(6) 0.35460(4)
O21 O 0.83770(8) 0.85422(6) 0.39007(4)
O22 O 0.89362(7) 0.76614(6) 0.46957(4)
O23 O 0.88126(7) 0.69481(6) 0.46938(4)
O26 O 0.93691(7) 0.20159(6) 0.38978(5)
O27 O 0.89967(7) 0.24631(6) 0.36133(5)
O29 O 0.62160(8) 0.38763(7) 0.15720(5)
O30 O 0.65208(8) 0.53951(7) 0.15796(5)
O31 O 0.70359(7) 0.56514(6) 0.18711(5)
O32 O 0.96104(10) 0.82383(8) 0.500000
O33 O 0.90126(13) 0.60781(9) 0.500000
O34 O 0.92916(15) 0.10193(9) 0.39653(5)
O35 O 0.75631(8) 0.64811(8) 0.19625(6)
O36 O 0.9527(4) 0.4419(3) 0.500000
O37 O 0.9479(4) 0.5420(3) 0.500000
C50 C 0.77475(17) 0.58590(12) 0.35017(9)
C51 C 0.75418(17) 0.62438(12) 0.34475(10)
H20 H 0.733544 0.625308 0.330272
C52 C 0.76272(15) 0.66149(11) 0.35973(9)
H21 H 0.746083 0.686214 0.356822
C53 C 0.79702(14) 0.66179(11) 0.37960(8)
C54 C 0.81731(15) 0.62323(10) 0.38577(8)
H22 H 0.838598 0.622692 0.399833
C55 C 0.80700(15) 0.58543(11) 0.37172(8)
C56 C 0.83089(17) 0.54626(11) 0.37833(10)
C57 C 0.84949(19) 0.51443(12) 0.38491(11)
C58 C 0.87095(18) 0.47429(11) 0.39200(10)
C59 C 0.90166(19) 0.47110(12) 0.41318(11)
H23 H 0.909071 0.495782 0.423480
C60 C 0.92167(17) 0.43271(11) 0.41959(11)
H24 H 0.941263 0.431506 0.434681
C61 C 0.91300(14) 0.39529(10) 0.40371(8)
C62 C 0.8831(2) 0.39893(11) 0.38278(10)
H25 H 0.876579 0.374408 0.372048
C63 C 0.86137(19) 0.43709(12) 0.37634(10)
C64 C 0.8304(2) 0.43859(13) 0.35373(12)
C65 C 0.8070(3) 0.43813(14) 0.33351(14)
C66 C 0.7782(3) 0.43962(14) 0.30975(14)
C67 C 0.7723(3) 0.40420(15) 0.29221(15)
H26 H 0.784256 0.377747 0.297532
C68 C 0.7491(3) 0.40678(14) 0.26694(13)
H27 H 0.747593 0.382907 0.254851
C69 C 0.7281(2) 0.44501(12) 0.25959(10)
C70 C 0.73180(18) 0.48006(11) 0.27788(10)
H28 H 0.717651 0.505746 0.273330
C71 C 0.7563(2) 0.47790(12) 0.30300(11)
C72 C 0.7609(2) 0.51508(12) 0.32061(11)
C73 C 0.7661(2) 0.54717(12) 0.33444(10)
C74 C 0.81115(11) 0.70214(9) 0.39427(7)
C75 C 0.80617(11) 0.74266(10) 0.38146(7)
H29 H 0.791088 0.744865 0.364300
C76 C 0.82311(10) 0.77927(9) 0.39372(6)
C77 C 0.84536(9) 0.77669(8) 0.41938(6)
H30 H 0.857052 0.801532 0.427562
C78 C 0.85016(10) 0.73691(9) 0.43285(6)
C79 C 0.83201(11) 0.70031(9) 0.42055(6)
H31 H 0.833833 0.673955 0.430112
C80 C 0.82031(10) 0.82199(9) 0.37801(6)
C81 C 0.87699(9) 0.73209(9) 0.45948(6)
C82 C 0.93359(11) 0.35285(9) 0.41014(7)
C83 C 0.96385(11) 0.34737(9) 0.43169(7)
H32 H 0.972993 0.371238 0.442218
C84 C 0.98078(9) 0.30663(9) 0.43780(6)
C85 C 0.96730(9) 0.27078(9) 0.42214(6)
H33 H 0.977708 0.243320 0.426570
C86 C 0.93825(9) 0.27634(9) 0.39989(6)
C87 C 0.92175(11) 0.31680(9) 0.39420(7)
H34 H 0.902121 0.320109 0.379265
C89 C 0.92343(9) 0.23812(9) 0.38229(7)
C90 C 0.70267(15) 0.44919(10) 0.23315(8)
C91 C 0.68196(14) 0.41370(10) 0.22043(7)
H35 H 0.683302 0.386715 0.229228
C92 C 0.65971(11) 0.41815(10) 0.19518(6)
C93 C 0.65712(10) 0.45857(9) 0.18205(6)
H36 H 0.641047 0.461830 0.165366
C94 C 0.67835(11) 0.49395(9) 0.19370(7)
C95 C 0.70188(12) 0.48912(10) 0.21902(7)
H37 H 0.717076 0.512536 0.226499
C96 C 0.63992(11) 0.38021(10) 0.18105(6)
C97 C 0.67814(10) 0.53629(10) 0.17845(7)
C98 C 0.9391(5) 0.5826(4) 0.500000
H38 H 0.964021 0.599580 0.500000
Zn12 Zn 0.85143(2) 0.91212(2) 0.37101(2)
O52 O 0.17787(6) 0.80131(7) 0.35460(4)
O54 O 0.23386(6) 0.89362(7) 0.46957(4)
O55 O 0.30519(6) 0.88126(7) 0.46938(4)
O58 O 0.79841(6) 0.93691(7) 0.38978(5)
O59 O 0.75369(6) 0.89967(7) 0.36133(5)
O60 O 0.65576(7) 0.64252(8) 0.19287(4)
O61 O 0.61237(7) 0.62160(8) 0.15720(5)
O62 O 0.46049(7) 0.65208(8) 0.15796(5)
O63 O 0.43486(6) 0.70359(7) 0.18711(5)
O64 O 0.89807(9) 0.92916(15) 0.39653(5)
O65 O 0.35189(8) 0.75631(8) 0.19625(6)
C147 C 0.41410(12) 0.77475(17) 0.35017(9)
C148 C 0.37562(12) 0.75418(17) 0.34475(10)
H57 H 0.374692 0.733544 0.330272
C149 C 0.33851(11) 0.76272(15) 0.35973(9)
H58 H 0.313786 0.746083 0.356822
C150 C 0.33821(11) 0.79702(14) 0.37960(8)
C151 C 0.37677(10) 0.81731(15) 0.38577(8)
H59 H 0.377308 0.838598 0.399833
C152 C 0.41457(11) 0.80700(15) 0.37172(8)
C153 C 0.45374(11) 0.83089(17) 0.37833(10)
C154 C 0.48557(12) 0.84949(19) 0.38491(11)
C155 C 0.52571(11) 0.87095(18) 0.39200(10)
C156 C 0.52890(12) 0.90166(19) 0.41318(11)
H60 H 0.504218 0.909071 0.423480
C157 C 0.56729(11) 0.92167(17) 0.41959(11)
H61 H 0.568494 0.941263 0.434681
C158 C 0.60471(10) 0.91300(14) 0.40371(8)
C159 C 0.60107(11) 0.8831(2) 0.38278(10)
H62 H 0.625592 0.876579 0.372048
C160 C 0.56291(12) 0.86137(19) 0.37634(10)
C161 C 0.56141(13) 0.8304(2) 0.35373(12)
C162 C 0.56187(14) 0.8070(3) 0.33351(14)
C163 C 0.56038(14) 0.7782(3) 0.30975(14)
C164 C 0.59580(15) 0.7723(3) 0.29221(15)
H63 H 0.622253 0.784256 0.297532
C165 C 0.59322(14) 0.7491(3) 0.26694(13)
H64 H 0.617093 0.747593 0.254851
C166 C 0.55499(12) 0.7281(2) 0.25959(10)
C167 C 0.51994(11) 0.73180(18) 0.27788(10)
H65 H 0.494254 0.717651 0.273330
C168 C 0.52210(12) 0.7563(2) 0.30300(11)
C169 C 0.48492(12) 0.7609(2) 0.32061(11)
C170 C 0.45283(12) 0.7661(2) 0.33444(10)
C171 C 0.29786(9) 0.81115(11) 0.39427(7)
C172 C 0.25734(10) 0.80617(11) 0.38146(7)
H66 H 0.255135 0.791088 0.364300
C173 C 0.22073(9) 0.82311(10) 0.39372(6)
C174 C 0.22331(8) 0.84536(9) 0.41938(6)
H67 H 0.198468 0.857052 0.427562
C175 C 0.26309(9) 0.85016(10) 0.43285(6)
C176 C 0.29969(9) 0.83201(11) 0.42055(6)
H68 H 0.326045 0.833833 0.430112
C177 C 0.17801(9) 0.82031(10) 0.37801(6)
C178 C 0.26791(9) 0.87699(9) 0.45948(6)
C179 C 0.64715(9) 0.93359(11) 0.41014(7)
C180 C 0.65263(9) 0.96385(11) 0.43169(7)
H69 H 0.628762 0.972993 0.442218
C181 C 0.69337(9) 0.98078(9) 0.43780(6)
C182 C 0.72922(9) 0.96730(9) 0.42214(6)
H70 H 0.756680 0.977708 0.426570
C183 C 0.72366(9) 0.93825(9) 0.39989(6)
C184 C 0.68320(9) 0.92175(11) 0.39420(7)
H71 H 0.679891 0.902121 0.379265
C186 C 0.76188(9) 0.92343(9) 0.38229(7)
C187 C 0.55081(10) 0.70267(15) 0.23315(8)
C188 C 0.58630(10) 0.68196(14) 0.22043(7)
H72 H 0.613285 0.683302 0.229228
C189 C 0.58185(10) 0.65971(11) 0.19518(6)
C190 C 0.54143(9) 0.65712(10) 0.18205(6)
H73 H 0.538170 0.641047 0.165366
C191 C 0.50605(9) 0.67835(11) 0.19370(7)
C192 C 0.51088(10) 0.70188(12) 0.21902(7)
H74 H 0.487464 0.717076 0.226499
C193 C 0.61979(10) 0.63992(11) 0.18105(6)
C194 C 0.46371(10) 0.67814(10) 0.17845(7)
O66_2 O 1.000000 0.500000 0.5467(3)
Zn29 Zn 0.64857(2) 0.58788(2) 0.12899(2)
Zn33 Zn 0.78965(2) 0.87414(2) 0.32882(2)
O68 O 0.69869(7) 0.67787(6) 0.14540(4)
O70 O 0.32213(6) 0.69869(7) 0.14540(4)
O73 O 0.89362(7) 0.76614(6) 0.53043(4)
O75 O 0.88126(7) 0.69481(6) 0.53062(4)
O78 O 0.96782(8) 0.66596(7) 0.52967(5)
O80 O 0.97991(7) 0.73745(7) 0.53037(5)
O81 O 0.39967(7) 0.74631(6) 0.13867(5)
O84 O 0.74631(6) 0.60033(7) 0.13867(5)
O88 O 0.87840(8) 0.11237(7) 0.34280(5)
O90 O 0.88763(7) 0.87840(8) 0.34280(5)
O92 O 0.84792(8) 0.96049(7) 0.34204(5)
O93 O 0.96049(7) 0.15208(8) 0.34204(5)
H77 H 0.370147 0.782606 0.194163
H78 H 0.321571 0.763256 0.190834
H91 H 0.782606 0.629853 0.194163
H92 H 0.763256 0.678429 0.190834
Zn5_3 Zn 0.500000 0.000000 0.500000
O13_2 O 0.82383(8) 0.03896(10) 0.500000
O14_2 O 0.60781(9) 0.09874(13) 0.500000
O17_3 O 0.500000 0.000000 0.4533(3)
O18_2 O 0.4419(3) 0.0473(4) 0.500000
O19_2 O 0.5420(3) 0.0521(4) 0.500000
C49_2 C 0.5826(4) 0.0609(5) 0.500000
H19_2 H 0.599580 0.035979 0.500000
O66_3 O 0.500000 0.000000 0.5467(3)
O74_2 O 0.76614(6) 0.10638(7) 0.53043(4)
O76_2 O 0.69481(6) 0.11874(7) 0.53062(4)
O77_2 O 0.66596(7) 0.03218(8) 0.52967(5)
O79_2 O 0.73745(7) 0.02009(7) 0.53037(5)
Zn5_4 Zn 0.500000 1.000000 0.500000
O17_4 O 0.500000 1.000000 0.4533(3)
O32_2 O 0.17617(8) 0.96104(10) 0.500000
O33_2 O 0.39219(9) 0.90126(13) 0.500000
O36_2 O 0.5581(3) 0.9527(4) 0.500000
O37_2 O 0.4580(3) 0.9479(4) 0.500000
C98_2 C 0.4174(4) 0.9391(5) 0.500000
H38_2 H 0.400420 0.964021 0.500000
O66_4 O 0.500000 1.000000 0.5467(3)
O73_2 O 0.23386(6) 0.89362(7) 0.53043(4)
O75_2 O 0.30519(6) 0.88126(7) 0.53062(4)
O78_2 O 0.33404(7) 0.96782(8) 0.52967(5)
O80_2 O 0.26255(7) 0.97991(7) 0.53037(5)
Zn15_2 Zn 0.26319(2) 0.55992(2) 0.000000
Zn19_2 Zn 0.16838(2) 0.58011(2) 0.000000
Zn11_2 Zn 0.12586(2) 0.78965(2) 0.67118(2)
O38_2 O 0.32213(6) 0.69869(7) 0.85460(4)
O39_2 O 0.35422(6) 0.66230(8) 0.89007(4)
O40_2 O 0.26614(6) 0.60638(7) 0.96957(4)
O41_2 O 0.19481(6) 0.61874(7) 0.96938(4)
O48_2 O 0.03951(7) 0.84792(8) 0.65796(5)
O49_2 O 0.06514(6) 0.79641(7) 0.68711(5)
O51_2 O 0.14811(8) 0.74369(8) 0.69625(6)
C99_2 C 0.08590(12) 0.72525(17) 0.85017(9)
C100_2 C 0.12438(12) 0.74582(17) 0.84475(10)
H39_2 H 0.125308 0.766456 0.830272
C101_2 C 0.16149(11) 0.73728(15) 0.85973(9)
H40_2 H 0.186214 0.753917 0.856822
C102_2 C 0.16179(11) 0.70298(14) 0.87960(8)
C103_2 C 0.12323(10) 0.68269(15) 0.88577(8)
H41_2 H 0.122692 0.661402 0.899833
C104_2 C 0.08543(11) 0.69300(15) 0.87172(8)
C105_2 C 0.04626(11) 0.66911(17) 0.87833(10)
C106_2 C 0.01443(12) 0.65051(19) 0.88491(11)
H47_2 H 0.005746 0.782349 0.773330
C121_2 C 0.01508(12) 0.7391(2) 0.82061(11)
C122_2 C 0.04717(12) 0.7339(2) 0.83444(10)
C123_2 C 0.20214(9) 0.68885(11) 0.89427(7)
C124_2 C 0.24266(10) 0.69383(11) 0.88146(7)
H48_2 H 0.244865 0.708912 0.864300
C125_2 C 0.27927(9) 0.67689(10) 0.89372(6)
C126_2 C 0.27669(8) 0.65464(9) 0.91938(6)
H49_2 H 0.301532 0.642948 0.927562
C127_2 C 0.23691(9) 0.64984(10) 0.93285(6)
C128_2 C 0.20031(9) 0.66799(11) 0.92055(6)
H50_2 H 0.173955 0.666167 0.930112
C129_2 C 0.32199(9) 0.67969(10) 0.87801(6)
C130_2 C 0.23209(9) 0.62301(9) 0.95948(6)
H56_2 H 0.012536 0.782924 0.726499
C146_2 C 0.03629(10) 0.82186(10) 0.67845(7)
Zn15_3 Zn 0.26319(2) 0.55992(2) 1.000000
Zn19_3 Zn 0.16838(2) 0.58011(2) 1.000000
Zn23_2 Zn 0.41212(2) 0.64857(2) 0.87101(2)
Zn27_2 Zn 0.08788(2) 0.85143(2) 0.62899(2)
Zn35_2 Zn 0.37414(2) 0.71035(2) 0.82882(2)
O69_2 O 0.17787(6) 0.80131(7) 0.64540(4)
O82_2 O 0.10033(7) 0.75369(6) 0.63867(5)
O86_2 O 0.14252(8) 0.84424(7) 0.69287(4)
H101_2 H 0.129853 0.717394 0.694163
H102_2 H 0.178429 0.736744 0.690834
Zn5_5 Zn 0.500000 0.000000 0.000000
O18_3 O 0.5473(4) 0.0581(3) 0.000000
Zn6_2 Zn 0.44008(2) 0.26319(2) 0.000000
Zn7_2 Zn 0.41989(2) 0.16838(2) 0.000000
O32_3 O 0.46104(10) 0.32383(8) 0.000000
O33_3 O 0.40126(13) 0.10781(9) 0.000000
O37_3 O 0.4479(4) 0.0420(3) 0.000000
C98_3 C 0.4391(5) 0.0826(4) 0.000000
H38_3 H 0.464021 0.099580 0.000000
O66_5 O 0.500000 0.000000 0.0467(3)
O73_3 O 0.39362(7) 0.26614(6) 0.03043(4)
O75_3 O 0.38126(7) 0.19481(6) 0.03062(4)
O78_3 O 0.46782(8) 0.16596(7) 0.02967(5)
O80_3 O 0.47991(7) 0.23745(7) 0.03037(5)
H88 H 0.55407 0.0664154 0.0200227
Zn3_2 Zn 0.58788(2) 0.35143(2) 0.87101(2)
Zn5_6 Zn 0.500000 0.000000 1.000000
O5_2 O 0.46782(8) 0.16596(7) 0.97033(5)
O6_2 O 0.47991(7) 0.23745(7) 0.96963(5)
O7_2 O 0.56309(7) 0.29841(6) 0.88978(5)
O8_2 O 0.60033(7) 0.25369(6) 0.86133(5)
O9_2 O 0.85748(8) 0.15576(7) 0.69287(4)
O10_2 O 0.87840(8) 0.11237(7) 0.65720(5)
O15_2 O 0.57084(15) 0.39807(9) 0.89653(5)
O17_5 O 0.500000 0.000000 0.9533(3)
O18_4 O 0.5473(4) 0.0581(3) 1.000000
C9_2 C 0.62905(18) 0.02571(11) 0.89200(10)
C10_2 C 0.59834(19) 0.02890(12) 0.91318(11)
H4_2 H 0.590929 0.004218 0.923480
C11_2 C 0.57833(17) 0.06729(11) 0.91959(11)
H5_2 H 0.558737 0.068494 0.934681
C12_2 C 0.58700(14) 0.10471(10) 0.90371(8)
C13_2 C 0.6169(2) 0.10107(11) 0.88278(10)
H6_2 H 0.623421 0.125592 0.872048
C14_2 C 0.63863(19) 0.06291(12) 0.87634(10)
C15_2 C 0.6696(2) 0.06141(13) 0.85373(12)
C16_2 C 0.6930(3) 0.06187(14) 0.83351(14)
C17_2 C 0.7218(3) 0.06038(14) 0.80975(14)
C18_2 C 0.7277(3) 0.09580(15) 0.79221(15)
H7_2 H 0.715744 0.122253 0.797532
C19_2 C 0.7509(3) 0.09322(14) 0.76694(13)
H8_2 H 0.752407 0.117093 0.754851
C20_2 C 0.7719(2) 0.05499(12) 0.75959(10)
C21_2 C 0.76820(18) 0.01994(11) 0.77788(10)
C22_2 C 0.7437(2) 0.02210(12) 0.80300(11)
C33_2 C 0.56641(11) 0.14715(9) 0.91014(7)
C34_2 C 0.53615(11) 0.15263(9) 0.93169(7)
H13_2 H 0.527007 0.128762 0.942218
C35_2 C 0.51922(9) 0.19337(9) 0.93780(6)
C36_2 C 0.53270(9) 0.22922(9) 0.92214(6)
H14_2 H 0.522292 0.256680 0.926570
C37_2 C 0.56175(9) 0.22366(9) 0.89989(6)
C38_2 C 0.57825(11) 0.18320(9) 0.89420(7)
H15_2 H 0.597879 0.179891 0.879265
C39_2 C 0.48646(10) 0.19957(9) 0.96115(6)
C40_2 C 0.57657(9) 0.26188(9) 0.88229(7)
C41_2 C 0.79733(15) 0.05081(10) 0.73315(8)
C42_2 C 0.81804(14) 0.08630(10) 0.72043(7)
H16_2 H 0.816698 0.113285 0.729228
C43_2 C 0.84029(11) 0.08185(10) 0.69518(6)
C44_2 C 0.84288(10) 0.04143(9) 0.68205(6)
H17_2 H 0.858953 0.038170 0.665366
C45_2 C 0.82165(11) 0.00605(9) 0.69370(7)
C46_2 C 0.79812(12) 0.01088(10) 0.71902(7)
C47_2 C 0.86008(11) 0.11979(10) 0.68105(6)
Zn6_3 Zn 0.44008(2) 0.26319(2) 1.000000
Zn7_3 Zn 0.41989(2) 0.16838(2) 1.000000
Zn9_2 Zn 0.21035(2) 0.12586(2) 0.67118(2)
O20_2 O 0.30131(7) 0.32213(6) 0.85460(4)
O21_2 O 0.33770(8) 0.35422(6) 0.89007(4)
O22_2 O 0.39362(7) 0.26614(6) 0.96957(4)
O23_2 O 0.38126(7) 0.19481(6) 0.96938(4)
O30_2 O 0.15208(8) 0.03951(7) 0.65796(5)
O31_2 O 0.20359(7) 0.06514(6) 0.68711(5)
O32_4 O 0.46104(10) 0.32383(8) 1.000000
O33_4 O 0.40126(13) 0.10781(9) 1.000000
O35_2 O 0.25631(8) 0.14811(8) 0.69625(6)
O37_4 O 0.4479(4) 0.0420(3) 1.000000
C50_2 C 0.27475(17) 0.08590(12) 0.85017(9)
C51_2 C 0.25418(17) 0.12438(12) 0.84475(10)
H20_2 H 0.233544 0.125308 0.830272
C52_2 C 0.26272(15) 0.16149(11) 0.85973(9)
H21_2 H 0.246083 0.186214 0.856822
C53_2 C 0.29702(14) 0.16179(11) 0.87960(8)
C54_2 C 0.31731(15) 0.12323(10) 0.88577(8)
H22_2 H 0.338598 0.122692 0.899833
C55_2 C 0.30700(15) 0.08543(11) 0.87172(8)
C56_2 C 0.33089(17) 0.04626(11) 0.87833(10)
C57_2 C 0.34949(19) 0.01443(12) 0.88491(11)
H28_2 H 0.217651 0.005746 0.773330
C72_2 C 0.2609(2) 0.01508(12) 0.82061(11)
C73_2 C 0.2661(2) 0.04717(12) 0.83444(10)
C74_2 C 0.31115(11) 0.20214(9) 0.89427(7)
C75_2 C 0.30617(11) 0.24266(10) 0.88146(7)
H29_2 H 0.291088 0.244865 0.864300
C76_2 C 0.32311(10) 0.27927(9) 0.89372(6)
C77_2 C 0.34536(9) 0.27669(8) 0.91938(6)
H30_2 H 0.357052 0.301532 0.927562
C78_2 C 0.35016(10) 0.23691(9) 0.93285(6)
C79_2 C 0.33201(11) 0.20031(9) 0.92055(6)
H31_2 H 0.333833 0.173955 0.930112
C80_2 C 0.32031(10) 0.32199(9) 0.87801(6)
C81_2 C 0.37699(9) 0.23209(9) 0.95948(6)
H37_2 H 0.217076 0.012536 0.726499
C97_2 C 0.17814(10) 0.03629(10) 0.67845(7)
C98_4 C 0.4391(5) 0.0826(4) 1.000000
H38_4 H 0.464021 0.099580 1.000000
Zn12_2 Zn 0.35143(2) 0.41212(2) 0.87101(2)
O56_2 O 0.16596(7) 0.53218(8) 0.97033(5)
O57_2 O 0.23745(7) 0.52009(7) 0.96963(5)
O58_2 O 0.29841(6) 0.43691(7) 0.88978(5)
O59_2 O 0.25369(6) 0.39967(7) 0.86133(5)
O60_2 O 0.15576(7) 0.14252(8) 0.69287(4)
O61_2 O 0.11237(7) 0.12160(8) 0.65720(5)
O64_2 O 0.39807(9) 0.42916(15) 0.89653(5)
C155_2 C 0.02571(11) 0.37095(18) 0.89200(10)
C156_2 C 0.02890(12) 0.40166(19) 0.91318(11)
H60_2 H 0.004218 0.409071 0.923480
C157_2 C 0.06729(11) 0.42167(17) 0.91959(11)
H61_2 H 0.068494 0.441263 0.934681
C158_2 C 0.10471(10) 0.41300(14) 0.90371(8)
C159_2 C 0.10107(11) 0.3831(2) 0.88278(10)
H62_2 H 0.125592 0.376579 0.872048
C160_2 C 0.06291(12) 0.36137(19) 0.87634(10)
C161_2 C 0.06141(13) 0.3304(2) 0.85373(12)
C162_2 C 0.06187(14) 0.3070(3) 0.83351(14)
C163_2 C 0.06038(14) 0.2782(3) 0.80975(14)
C164_2 C 0.09580(15) 0.2723(3) 0.79221(15)
H63_2 H 0.122253 0.284256 0.797532
C165_2 C 0.09322(14) 0.2491(3) 0.76694(13)
H64_2 H 0.117093 0.247593 0.754851
C166_2 C 0.05499(12) 0.2281(2) 0.75959(10)
C167_2 C 0.01994(11) 0.23180(18) 0.77788(10)
C168_2 C 0.02210(12) 0.2563(2) 0.80300(11)
C179_2 C 0.14715(9) 0.43359(11) 0.91014(7)
C180_2 C 0.15263(9) 0.46385(11) 0.93169(7)
H69_2 H 0.128762 0.472993 0.942218
C181_2 C 0.19337(9) 0.48078(9) 0.93780(6)
C182_2 C 0.22922(9) 0.46730(9) 0.92214(6)
H70_2 H 0.256680 0.477708 0.926570
C183_2 C 0.22366(9) 0.43825(9) 0.89989(6)
C184_2 C 0.18320(9) 0.42175(11) 0.89420(7)
H71_2 H 0.179891 0.402121 0.879265
C185_2 C 0.19957(9) 0.51354(10) 0.96115(6)
C186_2 C 0.26188(9) 0.42343(9) 0.88229(7)
C187_2 C 0.05081(10) 0.20267(15) 0.73315(8)
C188_2 C 0.08630(10) 0.18196(14) 0.72043(7)
H72_2 H 0.113285 0.183302 0.729228
C189_2 C 0.08185(10) 0.15971(11) 0.69518(6)
C190_2 C 0.04143(9) 0.15712(10) 0.68205(6)
H73_2 H 0.038170 0.141047 0.665366
C191_2 C 0.00605(9) 0.17835(11) 0.69370(7)
C192_2 C 0.01088(10) 0.20188(12) 0.71902(7)
C193_2 C 0.11979(10) 0.13992(11) 0.68105(6)
Zn25_2 Zn 0.91212(2) 0.14857(2) 0.62899(2)
Zn29_2 Zn 0.14857(2) 0.08788(2) 0.62899(2)
Zn31_2 Zn 0.87414(2) 0.21035(2) 0.67118(2)
Zn33_2 Zn 0.28965(2) 0.37414(2) 0.82882(2)
Zn37_2 Zn 0.62586(2) 0.28965(2) 0.82882(2)
O68_2 O 0.19869(7) 0.17787(6) 0.64540(4)
O72_2 O 0.64578(6) 0.33770(8) 0.89007(4)
O84_2 O 0.24631(6) 0.10033(7) 0.63867(5)
O87_2 O 0.62160(8) 0.38763(7) 0.84280(5)
O90_2 O 0.38763(7) 0.37840(8) 0.84280(5)
O92_2 O 0.34792(8) 0.46049(7) 0.84204(5)
O94_2 O 0.53951(7) 0.34792(8) 0.84204(5)
H87 H 0.533701 0.0829977 0.989989
H91_2 H 0.282606 0.129853 0.694163
H92_2 H 0.263256 0.178429 0.690834
Zn1_2 Zn 0.55992(2) 0.73681(2) 0.000000
Zn2_2 Zn 0.58011(2) 0.83162(2) 0.000000
Zn5_7 Zn 0.500000 1.000000 0.000000
O13_3 O 0.53896(10) 0.67617(8) 0.000000
O14_3 O 0.59874(13) 0.89219(9) 0.000000
O19_3 O 0.5521(4) 0.9580(3) 0.000000
C49_3 C 0.5609(5) 0.9174(4) 0.000000
H19_3 H 0.535979 0.900420 0.000000
O36_3 O 0.4527(4) 0.9419(3) 0.000000
O66_6 O 0.500000 1.000000 0.0467(3)
Zn17_2 Zn 0.73681(2) 0.44008(2) 0.000000
Zn21_2 Zn 0.83162(2) 0.41989(2) 0.000000
O74_3 O 0.60638(7) 0.73386(6) 0.03043(4)
O76_3 O 0.61874(7) 0.80519(6) 0.03062(4)
O77_3 O 0.53218(8) 0.83404(7) 0.02967(5)
O79_3 O 0.52009(7) 0.76255(7) 0.03037(5)
H90 H 0.44593 0.933585 0.0200227
Zn1_3 Zn 0.55992(2) 0.73681(2) 1.000000
Zn2_3 Zn 0.58011(2) 0.83162(2) 1.000000
Zn4_2 Zn 0.78965(2) 0.87414(2) 0.67118(2)
Zn5_8 Zn 0.500000 1.000000 1.000000
O1_2 O 0.69869(7) 0.67787(6) 0.85460(4)
O2_2 O 0.66230(8) 0.64578(6) 0.89007(4)
O3_2 O 0.60638(7) 0.73386(6) 0.96957(4)
O4_2 O 0.61874(7) 0.80519(6) 0.96938(4)
O11_2 O 0.84792(8) 0.96049(7) 0.65796(5)
O12_2 O 0.79641(7) 0.93486(6) 0.68711(5)
O13_4 O 0.53896(10) 0.67617(8) 1.000000
O14_4 O 0.59874(13) 0.89219(9) 1.000000
O16_2 O 0.74369(8) 0.85189(8) 0.69625(6)
O17_6 O 0.500000 1.000000 0.9533(3)
O19_4 O 0.5521(4) 0.9580(3) 1.000000
C1_2 C 0.72525(17) 0.91410(12) 0.85017(9)
C2_2 C 0.74582(17) 0.87562(12) 0.84475(10)
H1_2 H 0.766456 0.874692 0.830272
C3_2 C 0.73728(15) 0.83851(11) 0.85973(9)
H2_2 H 0.753917 0.813786 0.856822
C4_2 C 0.70298(14) 0.83821(11) 0.87960(8)
C5_2 C 0.68269(15) 0.87677(10) 0.88577(8)
H3_2 H 0.661402 0.877308 0.899833
C6_2 C 0.69300(15) 0.91457(11) 0.87172(8)
C7_2 C 0.66911(17) 0.95374(11) 0.87833(10)
C8_2 C 0.65051(19) 0.98557(12) 0.88491(11)
H9_2 H 0.782349 0.994254 0.773330
C23_2 C 0.7391(2) 0.98492(12) 0.82061(11)
C24_2 C 0.7339(2) 0.95283(12) 0.83444(10)
C25_2 C 0.68885(11) 0.79786(9) 0.89427(7)
C26_2 C 0.69383(11) 0.75734(10) 0.88146(7)
H10_2 H 0.708912 0.755135 0.864300
C27_2 C 0.67689(10) 0.72073(9) 0.89372(6)
C28_2 C 0.65464(9) 0.72331(8) 0.91938(6)
H11_2 H 0.642948 0.698468 0.927562
C29_2 C 0.64984(10) 0.76309(9) 0.93285(6)
C30_2 C 0.66799(11) 0.79969(9) 0.92055(6)
H12_2 H 0.666167 0.826045 0.930112
C31_2 C 0.67969(10) 0.67801(9) 0.87801(6)
C32_2 C 0.62301(9) 0.76791(9) 0.95948(6)
H18_2 H 0.782924 0.987464 0.726499
C48_2 C 0.82186(10) 0.96371(10) 0.67845(7)
C49_4 C 0.5609(5) 0.9174(4) 1.000000
H19_4 H 0.535979 0.900420 1.000000
O24_2 O 0.53218(8) 0.83404(7) 0.97033(5)
O25_2 O 0.52009(7) 0.76255(7) 0.96963(5)
O26_2 O 0.43691(7) 0.70159(6) 0.88978(5)
O27_2 O 0.39967(7) 0.74631(6) 0.86133(5)
O29_2 O 0.12160(8) 0.88763(7) 0.65720(5)
O34_2 O 0.42916(15) 0.60193(9) 0.89653(5)
O36_4 O 0.4527(4) 0.9419(3) 1.000000
C58_2 C 0.37095(18) 0.97429(11) 0.89200(10)
C59_2 C 0.40166(19) 0.97110(12) 0.91318(11)
H23_2 H 0.409071 0.995782 0.923480
C60_2 C 0.42167(17) 0.93271(11) 0.91959(11)
H24_2 H 0.441263 0.931506 0.934681
C61_2 C 0.41300(14) 0.89529(10) 0.90371(8)
C62_2 C 0.3831(2) 0.89893(11) 0.88278(10)
H25_2 H 0.376579 0.874408 0.872048
C63_2 C 0.36137(19) 0.93709(12) 0.87634(10)
C64_2 C 0.3304(2) 0.93859(13) 0.85373(12)
C65_2 C 0.3070(3) 0.93813(14) 0.83351(14)
C66_2 C 0.2782(3) 0.93962(14) 0.80975(14)
C67_2 C 0.2723(3) 0.90420(15) 0.79221(15)
H26_2 H 0.284256 0.877747 0.797532
C68_2 C 0.2491(3) 0.90678(14) 0.76694(13)
H27_2 H 0.247593 0.882907 0.754851
C69_2 C 0.2281(2) 0.94501(12) 0.75959(10)
C70_2 C 0.23180(18) 0.98006(11) 0.77788(10)
C71_2 C 0.2563(2) 0.97790(12) 0.80300(11)
C82_2 C 0.43359(11) 0.85285(9) 0.91014(7)
C83_2 C 0.46385(11) 0.84737(9) 0.93169(7)
H32_2 H 0.472993 0.871238 0.942218
C84_2 C 0.48078(9) 0.80663(9) 0.93780(6)
C85_2 C 0.46730(9) 0.77078(9) 0.92214(6)
H33_2 H 0.477708 0.743320 0.926570
C86_2 C 0.43825(9) 0.77634(9) 0.89989(6)
C87_2 C 0.42175(11) 0.81680(9) 0.89420(7)
H34_2 H 0.402121 0.820109 0.879265
C88_2 C 0.51354(10) 0.80043(9) 0.96115(6)
C89_2 C 0.42343(9) 0.73812(9) 0.88229(7)
C90_2 C 0.20267(15) 0.94919(10) 0.73315(8)
C91_2 C 0.18196(14) 0.91370(10) 0.72043(7)
H35_2 H 0.183302 0.886715 0.729228
C92_2 C 0.15971(11) 0.91815(10) 0.69518(6)
C93_2 C 0.15712(10) 0.95857(9) 0.68205(6)
H36_2 H 0.141047 0.961830 0.665366
C94_2 C 0.17835(11) 0.99395(9) 0.69370(7)
C95_2 C 0.20188(12) 0.98912(10) 0.71902(7)
C96_2 C 0.13992(11) 0.88021(10) 0.68105(6)
Zn10_2 Zn 0.64857(2) 0.58788(2) 0.87101(2)
O42_2 O 0.83404(7) 0.46782(8) 0.97033(5)
O43_2 O 0.76255(7) 0.47991(7) 0.96963(5)
O44_2 O 0.70159(6) 0.56309(7) 0.88978(5)
O45_2 O 0.74631(6) 0.60033(7) 0.86133(5)
O46_2 O 0.84424(7) 0.85748(8) 0.69287(4)
O47_2 O 0.88763(7) 0.87840(8) 0.65720(5)
O50_2 O 0.60193(9) 0.57084(15) 0.89653(5)
C107_2 C 0.97429(11) 0.62905(18) 0.89200(10)
C108_2 C 0.97110(12) 0.59834(19) 0.91318(11)
H42_2 H 0.995782 0.590929 0.923480
C109_2 C 0.93271(11) 0.57833(17) 0.91959(11)
H43_2 H 0.931506 0.558737 0.934681
C110_2 C 0.89529(10) 0.58700(14) 0.90371(8)
C111_2 C 0.89893(11) 0.6169(2) 0.88278(10)
H44_2 H 0.874408 0.623421 0.872048
C112_2 C 0.93709(12) 0.63863(19) 0.87634(10)
C113_2 C 0.93859(13) 0.6696(2) 0.85373(12)
C114_2 C 0.93813(14) 0.6930(3) 0.83351(14)
C115_2 C 0.93962(14) 0.7218(3) 0.80975(14)
C116_2 C 0.90420(15) 0.7277(3) 0.79221(15)
H45_2 H 0.877747 0.715744 0.797532
C117_2 C 0.90678(14) 0.7509(3) 0.76694(13)
H46_2 H 0.882907 0.752407 0.754851
C118_2 C 0.94501(12) 0.7719(2) 0.75959(10)
C119_2 C 0.98006(11) 0.76820(18) 0.77788(10)
C120_2 C 0.97790(12) 0.7437(2) 0.80300(11)
C131_2 C 0.85285(9) 0.56641(11) 0.91014(7)
C132_2 C 0.84737(9) 0.53615(11) 0.93169(7)
H51_2 H 0.871238 0.527007 0.942218
C133_2 C 0.80663(9) 0.51922(9) 0.93780(6)
C134_2 C 0.77078(9) 0.53270(9) 0.92214(6)
H52_2 H 0.743320 0.522292 0.926570
C135_2 C 0.77634(9) 0.56175(9) 0.89989(6)
C136_2 C 0.81680(9) 0.57825(11) 0.89420(7)
H53_2 H 0.820109 0.597879 0.879265
C137_2 C 0.80043(9) 0.48646(10) 0.96115(6)
C138_2 C 0.73812(9) 0.57657(9) 0.88229(7)
C139_2 C 0.94919(10) 0.79733(15) 0.73315(8)
C140_2 C 0.91370(10) 0.81804(14) 0.72043(7)
H54_2 H 0.886715 0.816698 0.729228
C141_2 C 0.91815(10) 0.84029(11) 0.69518(6)
C142_2 C 0.95857(9) 0.84288(10) 0.68205(6)
H55_2 H 0.961830 0.858953 0.665366
C143_2 C 0.99395(9) 0.82165(11) 0.69370(7)
C144_2 C 0.98912(10) 0.79812(12) 0.71902(7)
C145_2 C 0.88021(10) 0.86008(11) 0.68105(6)
Zn17_3 Zn 0.73681(2) 0.44008(2) 1.000000
Zn21_3 Zn 0.83162(2) 0.41989(2) 1.000000
Zn28_2 Zn 0.85143(2) 0.91212(2) 0.62899(2)
Zn32_2 Zn 0.71035(2) 0.62586(2) 0.82882(2)
O67_2 O 0.80131(7) 0.82213(6) 0.64540(4)
O83_2 O 0.75369(6) 0.89967(7) 0.63867(5)
O88_2 O 0.37840(8) 0.61237(7) 0.84280(5)
O89_2 O 0.61237(7) 0.62160(8) 0.84280(5)
O91_2 O 0.65208(8) 0.53951(7) 0.84204(5)
O93_2 O 0.46049(7) 0.65208(8) 0.84204(5)
H83_2 H 0.717394 0.870147 0.694163
H84_2 H 0.736744 0.821571 0.690834
H89 H 0.466299 0.917002 0.989989
O52_2 O 0.67787(6) 0.30131(7) 0.85460(4)
O54_2 O 0.73386(6) 0.39362(7) 0.96957(4)
O55_2 O 0.80519(6) 0.38126(7) 0.96938(4)
O62_2 O 0.96049(7) 0.15208(8) 0.65796(5)
O63_2 O 0.93486(6) 0.20359(7) 0.68711(5)
O65_2 O 0.85189(8) 0.25631(8) 0.69625(6)
C147_2 C 0.91410(12) 0.27475(17) 0.85017(9)
C148_2 C 0.87562(12) 0.25418(17) 0.84475(10)
H57_2 H 0.874692 0.233544 0.830272
C149_2 C 0.83851(11) 0.26272(15) 0.85973(9)
H58_2 H 0.813786 0.246083 0.856822
C150_2 C 0.83821(11) 0.29702(14) 0.87960(8)
C151_2 C 0.87677(10) 0.31731(15) 0.88577(8)
H59_2 H 0.877308 0.338598 0.899833
C152_2 C 0.91457(11) 0.30700(15) 0.87172(8)
C153_2 C 0.95374(11) 0.33089(17) 0.87833(10)
C154_2 C 0.98557(12) 0.34949(19) 0.88491(11)
H65_2 H 0.994254 0.217651 0.773330
C169_2 C 0.98492(12) 0.2609(2) 0.82061(11)
C170_2 C 0.95283(12) 0.2661(2) 0.83444(10)
C171_2 C 0.79786(9) 0.31115(11) 0.89427(7)
C172_2 C 0.75734(10) 0.30617(11) 0.88146(7)
H66_2 H 0.755135 0.291088 0.864300
C173_2 C 0.72073(9) 0.32311(10) 0.89372(6)
C174_2 C 0.72331(8) 0.34536(9) 0.91938(6)
H67_2 H 0.698468 0.357052 0.927562
C175_2 C 0.76309(9) 0.35016(10) 0.93285(6)
C176_2 C 0.79969(9) 0.33201(11) 0.92055(6)
H68_2 H 0.826045 0.333833 0.930112
C177_2 C 0.67801(9) 0.32031(10) 0.87801(6)
C178_2 C 0.76791(9) 0.37699(9) 0.95948(6)
H74_2 H 0.987464 0.217076 0.726499
C194_2 C 0.96371(10) 0.17814(10) 0.67845(7)
O70_2 O 0.82213(6) 0.19869(7) 0.64540(4)
O81_2 O 0.89967(7) 0.24631(6) 0.63867(5)
H77_2 H 0.870147 0.282606 0.694163
H78_2 H 0.821571 0.263256 0.690834
Zn5_9 Zn -0.000000 0.500000 0.000000
O13_5 O 0.32383(8) 0.53896(10) 0.000000
O14_5 O 0.10781(9) 0.59874(13) 0.000000
O19_5 O 0.0420(3) 0.5521(4) 0.000000
C49_5 C 0.0826(4) 0.5609(5) 0.000000
H19_5 H 0.099580 0.535979 0.000000
O36_5 O 0.0581(3) 0.4527(4) 0.000000
O66_7 O -0.000000 0.500000 0.0467(3)
O74_4 O 0.26614(6) 0.60638(7) 0.03043(4)
O76_4 O 0.19481(6) 0.61874(7) 0.03062(4)
O77_4 O 0.16596(7) 0.53218(8) 0.02967(5)
O79_4 O 0.23745(7) 0.52009(7) 0.03037(5)
H90_2 H 0.0664154 0.44593 0.0200227
Zn5_10 Zn -0.000000 0.500000 1.000000
O13_6 O 0.32383(8) 0.53896(10) 1.000000
O14_6 O 0.10781(9) 0.59874(13) 1.000000
O17_7 O -0.000000 0.500000 0.9533(3)
O19_6 O 0.0420(3) 0.5521(4) 1.000000
C49_6 C 0.0826(4) 0.5609(5) 1.000000
H19_6 H 0.099580 0.535979 1.000000
O36_6 O 0.0581(3) 0.4527(4) 1.000000
H89_2 H 0.0829977 0.466299 0.989989
Zn5_11 Zn 1.000000 0.500000 0.000000
O18_5 O 0.9419(3) 0.5473(4) 0.000000
O32_5 O 0.67617(8) 0.46104(10) 0.000000
O33_5 O 0.89219(9) 0.40126(13) 0.000000
O37_5 O 0.9580(3) 0.4479(4) 0.000000
C98_5 C 0.9174(4) 0.4391(5) 0.000000
H38_5 H 0.900420 0.464021 0.000000
O66_8 O 1.000000 0.500000 0.0467(3)
O73_4 O 0.73386(6) 0.39362(7) 0.03043(4)
O75_4 O 0.80519(6) 0.38126(7) 0.03062(4)
O78_4 O 0.83404(7) 0.46782(8) 0.02967(5)
O80_4 O 0.76255(7) 0.47991(7) 0.03037(5)
H88_2 H 0.933585 0.55407 0.0200227
Zn5_12 Zn 1.000000 0.500000 1.000000
O17_8 O 1.000000 0.500000 0.9533(3)
O18_6 O 0.9419(3) 0.5473(4) 1.000000
O32_6 O 0.67617(8) 0.46104(10) 1.000000
O33_6 O 0.89219(9) 0.40126(13) 1.000000
O37_6 O 0.9580(3) 0.4479(4) 1.000000
C98_6 C 0.9174(4) 0.4391(5) 1.000000
H38_6 H 0.900420 0.464021 1.000000
H87_2 H 0.917002 0.533701 0.989989
C39_3 C 0.01354(10) 0.30043(9) 0.53885(6)
O21_3 O 0.16230(8) 0.14578(6) 0.60993(4)
O26_3 O 0.06309(7) 0.79841(6) 0.61022(5)
O28 O 0.35748(8) 0.65576(7) 0.80713(4)
O31_3 O 0.29641(7) 0.43486(6) 0.81289(5)
O34_3 O 0.07084(15) 0.89807(9) 0.60347(5)
O35_3 O 0.24369(8) 0.35189(8) 0.80375(6)
C50_3 C 0.22525(17) 0.41410(12) 0.64983(9)
C51_3 C 0.24582(17) 0.37562(12) 0.65525(10)
H20_3 H 0.266456 0.374692 0.669728
C52_3 C 0.23728(15) 0.33851(11) 0.64027(9)
H21_3 H 0.253917 0.313786 0.643178
C53_3 C 0.20298(14) 0.33821(11) 0.62040(8)
C54_3 C 0.18269(15) 0.37677(10) 0.61423(8)
H22_3 H 0.161402 0.377308 0.600167
C55_3 C 0.19300(15) 0.41457(11) 0.62828(8)
C56_3 C 0.16911(17) 0.45374(11) 0.62167(10)
C57_3 C 0.15051(19) 0.48557(12) 0.61509(11)
C58_3 C 0.12905(18) 0.52571(11) 0.60800(10)
C59_3 C 0.09834(19) 0.52890(12) 0.58682(11)
H23_3 H 0.090929 0.504218 0.576520
C60_3 C 0.07833(17) 0.56729(11) 0.58041(11)
H24_3 H 0.058737 0.568494 0.565319
C61_3 C 0.08700(14) 0.60471(10) 0.59629(8)
C62_3 C 0.1169(2) 0.60107(11) 0.61722(10)
H25_3 H 0.123421 0.625592 0.627952
C63_3 C 0.13863(19) 0.56291(12) 0.62366(10)
C64_3 C 0.1696(2) 0.56141(13) 0.64627(12)
C65_3 C 0.1930(3) 0.56187(14) 0.66649(14)
C66_3 C 0.2218(3) 0.56038(14) 0.69025(14)
C67_3 C 0.2277(3) 0.59580(15) 0.70779(15)
H26_3 H 0.215744 0.622253 0.702468
C68_3 C 0.2509(3) 0.59322(14) 0.73306(13)
H27_3 H 0.252407 0.617093 0.745149
C69_3 C 0.2719(2) 0.55499(12) 0.74041(10)
C70_3 C 0.26820(18) 0.51994(11) 0.72212(10)
H28_3 H 0.282349 0.494254 0.726670
C71_3 C 0.2437(2) 0.52210(12) 0.69700(11)
C72_3 C 0.2391(2) 0.48492(12) 0.67939(11)
C73_3 C 0.2339(2) 0.45283(12) 0.66556(10)
C74_3 C 0.18885(11) 0.29786(9) 0.60573(7)
C75_3 C 0.19383(11) 0.25734(10) 0.61854(7)
H29_3 H 0.208912 0.255135 0.635700
C76_3 C 0.17689(10) 0.22073(9) 0.60628(6)
C77_3 C 0.15464(9) 0.22331(8) 0.58062(6)
H30_3 H 0.142948 0.198468 0.572438
C78_3 C 0.14984(10) 0.26309(9) 0.56715(6)
C79_3 C 0.16799(11) 0.29969(9) 0.57945(6)
H31_3 H 0.166167 0.326045 0.569888
C80_3 C 0.17969(10) 0.17801(9) 0.62199(6)
C81_3 C 0.12301(9) 0.26791(9) 0.54052(6)
C82_3 C 0.06641(11) 0.64715(9) 0.58986(7)
C83_3 C 0.03615(11) 0.65263(9) 0.56831(7)
H32_3 H 0.027007 0.628762 0.557782
C84_3 C 0.01922(9) 0.69337(9) 0.56220(6)
C85_3 C 0.03270(9) 0.72922(9) 0.57786(6)
H33_3 H 0.022292 0.756680 0.573430
C86_3 C 0.06175(9) 0.72366(9) 0.60011(6)
C87_3 C 0.07825(11) 0.68320(9) 0.60580(7)
H34_3 H 0.097879 0.679891 0.620735
C89_3 C 0.07657(9) 0.76188(9) 0.61771(7)
C90_3 C 0.29733(15) 0.55081(10) 0.76685(8)
C91_3 C 0.31804(14) 0.58630(10) 0.77957(7)
H35_3 H 0.316698 0.613285 0.770772
C92_3 C 0.34029(11) 0.58185(10) 0.80482(6)
C93_3 C 0.34288(10) 0.54143(9) 0.81795(6)
H36_3 H 0.358953 0.538170 0.834634
C94_3 C 0.32165(11) 0.50605(9) 0.80630(7)
C95_3 C 0.29812(12) 0.51088(10) 0.78098(7)
H37_3 H 0.282924 0.487464 0.773501
C96_3 C 0.36008(11) 0.61979(10) 0.81895(6)
C97_3 C 0.32186(10) 0.46371(10) 0.82155(7)
O53 O 0.85422(6) 0.16230(8) 0.60993(4)
O58_3 O 0.20159(6) 0.06309(7) 0.61022(5)
O60_3 O 0.34424(7) 0.35748(8) 0.80713(4)
O63_3 O 0.56514(6) 0.29641(7) 0.81289(5)
O64_3 O 0.10193(9) 0.07084(15) 0.60347(5)
O65_3 O 0.64811(8) 0.24369(8) 0.80375(6)
C147_3 C 0.58590(12) 0.22525(17) 0.64983(9)
C148_3 C 0.62438(12) 0.24582(17) 0.65525(10)
H57_3 H 0.625308 0.266456 0.669728
C149_3 C 0.66149(11) 0.23728(15) 0.64027(9)
H58_3 H 0.686214 0.253917 0.643178
C150_3 C 0.66179(11) 0.20298(14) 0.62040(8)
C151_3 C 0.62323(10) 0.18269(15) 0.61423(8)
H59_3 H 0.622692 0.161402 0.600167
C152_3 C 0.58543(11) 0.19300(15) 0.62828(8)
C153_3 C 0.54626(11) 0.16911(17) 0.62167(10)
C154_3 C 0.51443(12) 0.15051(19) 0.61509(11)
C155_3 C 0.47429(11) 0.12905(18) 0.60800(10)
C156_3 C 0.47110(12) 0.09834(19) 0.58682(11)
H60_3 H 0.495782 0.090929 0.576520
C157_3 C 0.43271(11) 0.07833(17) 0.58041(11)
H61_3 H 0.431506 0.058737 0.565319
C158_3 C 0.39529(10) 0.08700(14) 0.59629(8)
C159_3 C 0.39893(11) 0.1169(2) 0.61722(10)
H62_3 H 0.374408 0.123421 0.627952
C160_3 C 0.43709(12) 0.13863(19) 0.62366(10)
C161_3 C 0.43859(13) 0.1696(2) 0.64627(12)
C162_3 C 0.43813(14) 0.1930(3) 0.66649(14)
C163_3 C 0.43962(14) 0.2218(3) 0.69025(14)
C164_3 C 0.40420(15) 0.2277(3) 0.70779(15)
H63_3 H 0.377747 0.215744 0.702468
C165_3 C 0.40678(14) 0.2509(3) 0.73306(13)
H64_3 H 0.382907 0.252407 0.745149
C166_3 C 0.44501(12) 0.2719(2) 0.74041(10)
C167_3 C 0.48006(11) 0.26820(18) 0.72212(10)
H65_3 H 0.505746 0.282349 0.726670
C168_3 C 0.47790(12) 0.2437(2) 0.69700(11)
C169_3 C 0.51508(12) 0.2391(2) 0.67939(11)
C170_3 C 0.54717(12) 0.2339(2) 0.66556(10)
C171_3 C 0.70214(9) 0.18885(11) 0.60573(7)
C172_3 C 0.74266(10) 0.19383(11) 0.61854(7)
H66_3 H 0.744865 0.208912 0.635700
C173_3 C 0.77927(9) 0.17689(10) 0.60628(6)
C174_3 C 0.77669(8) 0.15464(9) 0.58062(6)
H67_3 H 0.801532 0.142948 0.572438
C175_3 C 0.73691(9) 0.14984(10) 0.56715(6)
C176_3 C 0.70031(9) 0.16799(11) 0.57945(6)
H68_3 H 0.673955 0.166167 0.569888
C177_3 C 0.82199(9) 0.17969(10) 0.62199(6)
C178_3 C 0.73209(9) 0.12301(9) 0.54052(6)
C179_3 C 0.35285(9) 0.06641(11) 0.58986(7)
C180_3 C 0.34737(9) 0.03615(11) 0.56831(7)
H69_3 H 0.371238 0.027007 0.557782
C181_3 C 0.30663(9) 0.01922(9) 0.56220(6)
C182_3 C 0.27078(9) 0.03270(9) 0.57786(6)
H70_3 H 0.243320 0.022292 0.573430
C183_3 C 0.27634(9) 0.06175(9) 0.60011(6)
C184_3 C 0.31680(9) 0.07825(11) 0.60580(7)
H71_3 H 0.320109 0.097879 0.620735
C186_3 C 0.23812(9) 0.07657(9) 0.61771(7)
C187_3 C 0.44919(10) 0.29733(15) 0.76685(8)
C188_3 C 0.41370(10) 0.31804(14) 0.77957(7)
H72_3 H 0.386715 0.316698 0.770772
C189_3 C 0.41815(10) 0.34029(11) 0.80482(6)
C190_3 C 0.45857(9) 0.34288(10) 0.81795(6)
H73_3 H 0.461830 0.358953 0.834634
C191_3 C 0.49395(9) 0.32165(11) 0.80630(7)
C192_3 C 0.48912(10) 0.29812(12) 0.78098(7)
H74_3 H 0.512536 0.282924 0.773501
C193_3 C 0.38021(10) 0.36008(11) 0.81895(6)
C194_3 C 0.53629(10) 0.32186(10) 0.82155(7)
O71 O 0.14578(6) 0.83770(8) 0.60993(4)
O85 O 0.64252(8) 0.34424(7) 0.80713(4)
H77_3 H 0.629853 0.217394 0.805837
H78_3 H 0.678429 0.236744 0.809166
H91_3 H 0.217394 0.370147 0.805837
H92_3 H 0.236744 0.321571 0.809166
C185_3 C 0.30043(9) 0.98646(10) 0.53885(6)
C137_3 C 0.69957(9) 0.01354(10) 0.53885(6)
O2_3 O 0.83770(8) 0.85422(6) 0.60993(4)
O7_3 O 0.93691(7) 0.20159(6) 0.61022(5)
O12_3 O 0.70359(7) 0.56514(6) 0.81289(5)
O15_3 O 0.92916(15) 0.10193(9) 0.60347(5)
O16_3 O 0.75631(8) 0.64811(8) 0.80375(6)
C1_3 C 0.77475(17) 0.58590(12) 0.64983(9)
C2_3 C 0.75418(17) 0.62438(12) 0.65525(10)
H1_3 H 0.733544 0.625308 0.669728
C3_3 C 0.76272(15) 0.66149(11) 0.64027(9)
H2_3 H 0.746083 0.686214 0.643178
C4_3 C 0.79702(14) 0.66179(11) 0.62040(8)
C5_3 C 0.81731(15) 0.62323(10) 0.61423(8)
H3_3 H 0.838598 0.622692 0.600167
C6_3 C 0.80700(15) 0.58543(11) 0.62828(8)
C7_3 C 0.83089(17) 0.54626(11) 0.62167(10)
C8_3 C 0.84949(19) 0.51443(12) 0.61509(11)
C9_3 C 0.87095(18) 0.47429(11) 0.60800(10)
C10_3 C 0.90166(19) 0.47110(12) 0.58682(11)
H4_3 H 0.909071 0.495782 0.576520
C11_3 C 0.92167(17) 0.43271(11) 0.58041(11)
H5_3 H 0.941263 0.431506 0.565319
C12_3 C 0.91300(14) 0.39529(10) 0.59629(8)
C13_3 C 0.8831(2) 0.39893(11) 0.61722(10)
H6_3 H 0.876579 0.374408 0.627952
C14_3 C 0.86137(19) 0.43709(12) 0.62366(10)
C15_3 C 0.8304(2) 0.43859(13) 0.64627(12)
C16_3 C 0.8070(3) 0.43813(14) 0.66649(14)
C17_3 C 0.7782(3) 0.43962(14) 0.69025(14)
C18_3 C 0.7723(3) 0.40420(15) 0.70779(15)
H7_3 H 0.784256 0.377747 0.702468
C19_3 C 0.7491(3) 0.40678(14) 0.73306(13)
H8_3 H 0.747593 0.382907 0.745149
C20_3 C 0.7281(2) 0.44501(12) 0.74041(10)
C21_3 C 0.73180(18) 0.48006(11) 0.72212(10)
H9_3 H 0.717651 0.505746 0.726670
C22_3 C 0.7563(2) 0.47790(12) 0.69700(11)
C23_3 C 0.7609(2) 0.51508(12) 0.67939(11)
C24_3 C 0.7661(2) 0.54717(12) 0.66556(10)
C25_3 C 0.81115(11) 0.70214(9) 0.60573(7)
C26_3 C 0.80617(11) 0.74266(10) 0.61854(7)
H10_3 H 0.791088 0.744865 0.635700
C27_3 C 0.82311(10) 0.77927(9) 0.60628(6)
C28_3 C 0.84536(9) 0.77669(8) 0.58062(6)
H11_3 H 0.857052 0.801532 0.572438
C29_3 C 0.85016(10) 0.73691(9) 0.56715(6)
C30_3 C 0.83201(11) 0.70031(9) 0.57945(6)
H12_3 H 0.833833 0.673955 0.569888
C31_3 C 0.82031(10) 0.82199(9) 0.62199(6)
C32_3 C 0.87699(9) 0.73209(9) 0.54052(6)
C33_3 C 0.93359(11) 0.35285(9) 0.58986(7)
C34_3 C 0.96385(11) 0.34737(9) 0.56831(7)
H13_3 H 0.972993 0.371238 0.557782
C35_3 C 0.98078(9) 0.30663(9) 0.56220(6)
C36_3 C 0.96730(9) 0.27078(9) 0.57786(6)
H14_3 H 0.977708 0.243320 0.573430
C37_3 C 0.93825(9) 0.27634(9) 0.60011(6)
C38_3 C 0.92175(11) 0.31680(9) 0.60580(7)
H15_3 H 0.902121 0.320109 0.620735
C40_3 C 0.92343(9) 0.23812(9) 0.61771(7)
C41_3 C 0.70267(15) 0.44919(10) 0.76685(8)
C42_3 C 0.68196(14) 0.41370(10) 0.77957(7)
H16_3 H 0.683302 0.386715 0.770772
C43_3 C 0.65971(11) 0.41815(10) 0.80482(6)
C44_3 C 0.65712(10) 0.45857(9) 0.81795(6)
H17_3 H 0.641047 0.461830 0.834634
C45_3 C 0.67835(11) 0.49395(9) 0.80630(7)
C46_3 C 0.70188(12) 0.48912(10) 0.78098(7)
H18_3 H 0.717076 0.512536 0.773501
C47_3 C 0.63992(11) 0.38021(10) 0.81895(6)
C48_3 C 0.67814(10) 0.53629(10) 0.82155(7)
C88_3 C 0.98646(10) 0.69957(9) 0.53885(6)
O44_3 O 0.79841(6) 0.93691(7) 0.61022(5)
O46_3 O 0.65576(7) 0.64252(8) 0.80713(4)
O49_3 O 0.43486(6) 0.70359(7) 0.81289(5)
O50_3 O 0.89807(9) 0.92916(15) 0.60347(5)
O51_3 O 0.35189(8) 0.75631(8) 0.80375(6)
C99_3 C 0.41410(12) 0.77475(17) 0.64983(9)
C100_3 C 0.37562(12) 0.75418(17) 0.65525(10)
H39_3 H 0.374692 0.733544 0.669728
C101_3 C 0.33851(11) 0.76272(15) 0.64027(9)
H40_3 H 0.313786 0.746083 0.643178
C102_3 C 0.33821(11) 0.79702(14) 0.62040(8)
C103_3 C 0.37677(10) 0.81731(15) 0.61423(8)
H41_3 H 0.377308 0.838598 0.600167
C104_3 C 0.41457(11) 0.80700(15) 0.62828(8)
C105_3 C 0.45374(11) 0.83089(17) 0.62167(10)
C106_3 C 0.48557(12) 0.84949(19) 0.61509(11)
C107_3 C 0.52571(11) 0.87095(18) 0.60800(10)
C108_3 C 0.52890(12) 0.90166(19) 0.58682(11)
H42_3 H 0.504218 0.909071 0.576520
C109_3 C 0.56729(11) 0.92167(17) 0.58041(11)
H43_3 H 0.568494 0.941263 0.565319
C110_3 C 0.60471(10) 0.91300(14) 0.59629(8)
C111_3 C 0.60107(11) 0.8831(2) 0.61722(10)
H44_3 H 0.625592 0.876579 0.627952
C112_3 C 0.56291(12) 0.86137(19) 0.62366(10)
C113_3 C 0.56141(13) 0.8304(2) 0.64627(12)
C114_3 C 0.56187(14) 0.8070(3) 0.66649(14)
C115_3 C 0.56038(14) 0.7782(3) 0.69025(14)
C116_3 C 0.59580(15) 0.7723(3) 0.70779(15)
H45_3 H 0.622253 0.784256 0.702468
C117_3 C 0.59322(14) 0.7491(3) 0.73306(13)
H46_3 H 0.617093 0.747593 0.745149
C118_3 C 0.55499(12) 0.7281(2) 0.74041(10)
C119_3 C 0.51994(11) 0.73180(18) 0.72212(10)
H47_3 H 0.494254 0.717651 0.726670
C120_3 C 0.52210(12) 0.7563(2) 0.69700(11)
C121_3 C 0.48492(12) 0.7609(2) 0.67939(11)
C122_3 C 0.45283(12) 0.7661(2) 0.66556(10)
C123_3 C 0.29786(9) 0.81115(11) 0.60573(7)
C124_3 C 0.25734(10) 0.80617(11) 0.61854(7)
H48_3 H 0.255135 0.791088 0.635700
C125_3 C 0.22073(9) 0.82311(10) 0.60628(6)
C126_3 C 0.22331(8) 0.84536(9) 0.58062(6)
H49_3 H 0.198468 0.857052 0.572438
C127_3 C 0.26309(9) 0.85016(10) 0.56715(6)
C128_3 C 0.29969(9) 0.83201(11) 0.57945(6)
H50_3 H 0.326045 0.833833 0.569888
C129_3 C 0.17801(9) 0.82031(10) 0.62199(6)
C130_3 C 0.26791(9) 0.87699(9) 0.54052(6)
C131_3 C 0.64715(9) 0.93359(11) 0.58986(7)
C132_3 C 0.65263(9) 0.96385(11) 0.56831(7)
H51_3 H 0.628762 0.972993 0.557782
C133_3 C 0.69337(9) 0.98078(9) 0.56220(6)
C134_3 C 0.72922(9) 0.96730(9) 0.57786(6)
H52_3 H 0.756680 0.977708 0.573430
C135_3 C 0.72366(9) 0.93825(9) 0.60011(6)
C136_3 C 0.68320(9) 0.92175(11) 0.60580(7)
H53_3 H 0.679891 0.902121 0.620735
C138_3 C 0.76188(9) 0.92343(9) 0.61771(7)
C139_3 C 0.55081(10) 0.70267(15) 0.76685(8)
C140_3 C 0.58630(10) 0.68196(14) 0.77957(7)
H54_3 H 0.613285 0.683302 0.770772
C141_3 C 0.58185(10) 0.65971(11) 0.80482(6)
C142_3 C 0.54143(9) 0.65712(10) 0.81795(6)
H55_3 H 0.538170 0.641047 0.834634
C143_3 C 0.50605(9) 0.67835(11) 0.80630(7)
C144_3 C 0.51088(10) 0.70188(12) 0.78098(7)
H56_3 H 0.487464 0.717076 0.773501
C145_3 C 0.61979(10) 0.63992(11) 0.81895(6)
C146_3 C 0.46371(10) 0.67814(10) 0.82155(7)
H83_3 H 0.782606 0.629853 0.805837
H84_3 H 0.763256 0.678429 0.809166
H101_3 H 0.370147 0.782606 0.805837
H102_3 H 0.321571 0.763256 0.809166
O53_2 O 0.35422(6) 0.66230(8) 0.10993(4)
O63_4 O 0.06514(6) 0.79641(7) 0.31289(5)
O65_4 O 0.14811(8) 0.74369(8) 0.30375(6)
C147_4 C 0.08590(12) 0.72525(17) 0.14983(9)
C148_4 C 0.12438(12) 0.74582(17) 0.15525(10)
H57_4 H 0.125308 0.766456 0.169728
C149_4 C 0.16149(11) 0.73728(15) 0.14027(9)
H58_4 H 0.186214 0.753917 0.143178
C150_4 C 0.16179(11) 0.70298(14) 0.12040(8)
C151_4 C 0.12323(10) 0.68269(15) 0.11423(8)
H59_4 H 0.122692 0.661402 0.100167
C152_4 C 0.08543(11) 0.69300(15) 0.12828(8)
C153_4 C 0.04626(11) 0.66911(17) 0.12167(10)
C154_4 C 0.01443(12) 0.65051(19) 0.11509(11)
H65_4 H 0.005746 0.782349 0.226670
C169_4 C 0.01508(12) 0.7391(2) 0.17939(11)
C170_4 C 0.04717(12) 0.7339(2) 0.16556(10)
C171_4 C 0.20214(9) 0.68885(11) 0.10573(7)
C172_4 C 0.24266(10) 0.69383(11) 0.11854(7)
H66_4 H 0.244865 0.708912 0.135700
C173_4 C 0.27927(9) 0.67689(10) 0.10628(6)
C174_4 C 0.27669(8) 0.65464(9) 0.08062(6)
H67_4 H 0.301532 0.642948 0.072438
C175_4 C 0.23691(9) 0.64984(10) 0.06715(6)
C176_4 C 0.20031(9) 0.66799(11) 0.07945(6)
H68_4 H 0.173955 0.666167 0.069888
C177_4 C 0.32199(9) 0.67969(10) 0.12199(6)
C178_4 C 0.23209(9) 0.62301(9) 0.04052(6)
H74_4 H 0.012536 0.782924 0.273501
C194_4 C 0.03629(10) 0.82186(10) 0.32155(7)
O85_2 O 0.14252(8) 0.84424(7) 0.30713(4)
H77_4 H 0.129853 0.717394 0.305837
H78_4 H 0.178429 0.736744 0.309166
O2_4 O 0.33770(8) 0.35422(6) 0.10993(4)
O12_4 O 0.20359(7) 0.06514(6) 0.31289(5)
O16_4 O 0.25631(8) 0.14811(8) 0.30375(6)
C1_4 C 0.27475(17) 0.08590(12) 0.14983(9)
C2_4 C 0.25418(17) 0.12438(12) 0.15525(10)
H1_4 H 0.233544 0.125308 0.169728
C3_4 C 0.26272(15) 0.16149(11) 0.14027(9)
H2_4 H 0.246083 0.186214 0.143178
C4_4 C 0.29702(14) 0.16179(11) 0.12040(8)
C5_4 C 0.31731(15) 0.12323(10) 0.11423(8)
H3_4 H 0.338598 0.122692 0.100167
C6_4 C 0.30700(15) 0.08543(11) 0.12828(8)
C7_4 C 0.33089(17) 0.04626(11) 0.12167(10)
C8_4 C 0.34949(19) 0.01443(12) 0.11509(11)
H9_4 H 0.217651 0.005746 0.226670
C23_4 C 0.2609(2) 0.01508(12) 0.17939(11)
C24_4 C 0.2661(2) 0.04717(12) 0.16556(10)
C25_4 C 0.31115(11) 0.20214(9) 0.10573(7)
C26_4 C 0.30617(11) 0.24266(10) 0.11854(7)
H10_4 H 0.291088 0.244865 0.135700
C27_4 C 0.32311(10) 0.27927(9) 0.10628(6)
C28_4 C 0.34536(9) 0.27669(8) 0.08062(6)
H11_4 H 0.357052 0.301532 0.072438
C29_4 C 0.35016(10) 0.23691(9) 0.06715(6)
C30_4 C 0.33201(11) 0.20031(9) 0.07945(6)
H12_4 H 0.333833 0.173955 0.069888
C31_4 C 0.32031(10) 0.32199(9) 0.12199(6)
C32_4 C 0.37699(9) 0.23209(9) 0.04052(6)
H18_4 H 0.217076 0.012536 0.273501
C48_4 C 0.17814(10) 0.03629(10) 0.32155(7)
O26_4 O 0.56309(7) 0.29841(6) 0.11022(5)
O28_2 O 0.85748(8) 0.15576(7) 0.30713(4)
O34_4 O 0.57084(15) 0.39807(9) 0.10347(5)
C58_4 C 0.62905(18) 0.02571(11) 0.10800(10)
C59_4 C 0.59834(19) 0.02890(12) 0.08682(11)
H23_4 H 0.590929 0.004218 0.076520
C60_4 C 0.57833(17) 0.06729(11) 0.08041(11)
H24_4 H 0.558737 0.068494 0.065319
C61_4 C 0.58700(14) 0.10471(10) 0.09629(8)
C62_4 C 0.6169(2) 0.10107(11) 0.11722(10)
H25_4 H 0.623421 0.125592 0.127952
C63_4 C 0.63863(19) 0.06291(12) 0.12366(10)
C64_4 C 0.6696(2) 0.06141(13) 0.14627(12)
C65_4 C 0.6930(3) 0.06187(14) 0.16649(14)
C66_4 C 0.7218(3) 0.06038(14) 0.19025(14)
C67_4 C 0.7277(3) 0.09580(15) 0.20779(15)
H26_4 H 0.715744 0.122253 0.202468
C68_4 C 0.7509(3) 0.09322(14) 0.23306(13)
H27_4 H 0.752407 0.117093 0.245149
C69_4 C 0.7719(2) 0.05499(12) 0.24041(10)
C70_4 C 0.76820(18) 0.01994(11) 0.22212(10)
C71_4 C 0.7437(2) 0.02210(12) 0.19700(11)
C82_4 C 0.56641(11) 0.14715(9) 0.08986(7)
C83_4 C 0.53615(11) 0.15263(9) 0.06831(7)
H32_4 H 0.527007 0.128762 0.057782
C84_4 C 0.51922(9) 0.19337(9) 0.06220(6)
C85_4 C 0.53270(9) 0.22922(9) 0.07786(6)
H33_4 H 0.522292 0.256680 0.073430
C86_4 C 0.56175(9) 0.22366(9) 0.10011(6)
C87_4 C 0.57825(11) 0.18320(9) 0.10580(7)
H34_4 H 0.597879 0.179891 0.120735
C88_4 C 0.48646(10) 0.19957(9) 0.03885(6)
C89_4 C 0.57657(9) 0.26188(9) 0.11771(7)
C90_4 C 0.79733(15) 0.05081(10) 0.26685(8)
C91_4 C 0.81804(14) 0.08630(10) 0.27957(7)
H35_4 H 0.816698 0.113285 0.270772
C92_4 C 0.84029(11) 0.08185(10) 0.30482(6)
C93_4 C 0.84288(10) 0.04143(9) 0.31795(6)
H36_4 H 0.858953 0.038170 0.334634
C94_4 C 0.82165(11) 0.00605(9) 0.30630(7)
C95_4 C 0.79812(12) 0.01088(10) 0.28098(7)
C96_4 C 0.86008(11) 0.11979(10) 0.31895(6)
O44_4 O 0.29841(6) 0.43691(7) 0.11022(5)
O46_4 O 0.15576(7) 0.14252(8) 0.30713(4)
O50_4 O 0.39807(9) 0.42916(15) 0.10347(5)
C107_4 C 0.02571(11) 0.37095(18) 0.10800(10)
C108_4 C 0.02890(12) 0.40166(19) 0.08682(11)
H42_4 H 0.004218 0.409071 0.076520
C109_4 C 0.06729(11) 0.42167(17) 0.08041(11)
H43_4 H 0.068494 0.441263 0.065319
C110_4 C 0.10471(10) 0.41300(14) 0.09629(8)
C111_4 C 0.10107(11) 0.3831(2) 0.11722(10)
H44_4 H 0.125592 0.376579 0.127952
C112_4 C 0.06291(12) 0.36137(19) 0.12366(10)
C113_4 C 0.06141(13) 0.3304(2) 0.14627(12)
C114_4 C 0.06187(14) 0.3070(3) 0.16649(14)
C115_4 C 0.06038(14) 0.2782(3) 0.19025(14)
C116_4 C 0.09580(15) 0.2723(3) 0.20779(15)
H45_4 H 0.122253 0.284256 0.202468
C117_4 C 0.09322(14) 0.2491(3) 0.23306(13)
H46_4 H 0.117093 0.247593 0.245149
C118_4 C 0.05499(12) 0.2281(2) 0.24041(10)
C119_4 C 0.01994(11) 0.23180(18) 0.22212(10)
C120_4 C 0.02210(12) 0.2563(2) 0.19700(11)
C131_4 C 0.14715(9) 0.43359(11) 0.08986(7)
C132_4 C 0.15263(9) 0.46385(11) 0.06831(7)
H51_4 H 0.128762 0.472993 0.057782
C133_4 C 0.19337(9) 0.48078(9) 0.06220(6)
C134_4 C 0.22922(9) 0.46730(9) 0.07786(6)
H52_4 H 0.256680 0.477708 0.073430
C135_4 C 0.22366(9) 0.43825(9) 0.10011(6)
C136_4 C 0.18320(9) 0.42175(11) 0.10580(7)
H53_4 H 0.179891 0.402121 0.120735
C137_4 C 0.19957(9) 0.51354(10) 0.03885(6)
C138_4 C 0.26188(9) 0.42343(9) 0.11771(7)
C139_4 C 0.05081(10) 0.20267(15) 0.26685(8)
C140_4 C 0.08630(10) 0.18196(14) 0.27957(7)
H54_4 H 0.113285 0.183302 0.270772
C141_4 C 0.08185(10) 0.15971(11) 0.30482(6)
C142_4 C 0.04143(9) 0.15712(10) 0.31795(6)
H55_4 H 0.038170 0.141047 0.334634
C143_4 C 0.00605(9) 0.17835(11) 0.30630(7)
C144_4 C 0.01088(10) 0.20188(12) 0.28098(7)
C145_4 C 0.11979(10) 0.13992(11) 0.31895(6)
O71_2 O 0.64578(6) 0.33770(8) 0.10993(4)
H83_4 H 0.282606 0.129853 0.305837
H84_4 H 0.263256 0.178429 0.309166
H89_3 H 0.533701 0.0829977 0.0100113
H90_3 H 0.55407 0.0664154 0.979977
O7_4 O 0.43691(7) 0.70159(6) 0.11022(5)
O15_4 O 0.42916(15) 0.60193(9) 0.10347(5)
C9_4 C 0.37095(18) 0.97429(11) 0.10800(10)
C10_4 C 0.40166(19) 0.97110(12) 0.08682(11)
H4_4 H 0.409071 0.995782 0.076520
C11_4 C 0.42167(17) 0.93271(11) 0.08041(11)
H5_4 H 0.441263 0.931506 0.065319
C12_4 C 0.41300(14) 0.89529(10) 0.09629(8)
C13_4 C 0.3831(2) 0.89893(11) 0.11722(10)
H6_4 H 0.376579 0.874408 0.127952
C14_4 C 0.36137(19) 0.93709(12) 0.12366(10)
C15_4 C 0.3304(2) 0.93859(13) 0.14627(12)
C16_4 C 0.3070(3) 0.93813(14) 0.16649(14)
C17_4 C 0.2782(3) 0.93962(14) 0.19025(14)
C18_4 C 0.2723(3) 0.90420(15) 0.20779(15)
H7_4 H 0.284256 0.877747 0.202468
C19_4 C 0.2491(3) 0.90678(14) 0.23306(13)
H8_4 H 0.247593 0.882907 0.245149
C20_4 C 0.2281(2) 0.94501(12) 0.24041(10)
C21_4 C 0.23180(18) 0.98006(11) 0.22212(10)
C22_4 C 0.2563(2) 0.97790(12) 0.19700(11)
C33_4 C 0.43359(11) 0.85285(9) 0.08986(7)
C34_4 C 0.46385(11) 0.84737(9) 0.06831(7)
H13_4 H 0.472993 0.871238 0.057782
C35_4 C 0.48078(9) 0.80663(9) 0.06220(6)
C36_4 C 0.46730(9) 0.77078(9) 0.07786(6)
H14_4 H 0.477708 0.743320 0.073430
C37_4 C 0.43825(9) 0.77634(9) 0.10011(6)
C38_4 C 0.42175(11) 0.81680(9) 0.10580(7)
H15_4 H 0.402121 0.820109 0.120735
C39_4 C 0.51354(10) 0.80043(9) 0.03885(6)
C40_4 C 0.42343(9) 0.73812(9) 0.11771(7)
C41_4 C 0.20267(15) 0.94919(10) 0.26685(8)
C42_4 C 0.18196(14) 0.91370(10) 0.27957(7)
H16_4 H 0.183302 0.886715 0.270772
C43_4 C 0.15971(11) 0.91815(10) 0.30482(6)
C44_4 C 0.15712(10) 0.95857(9) 0.31795(6)
H17_4 H 0.141047 0.961830 0.334634
C45_4 C 0.17835(11) 0.99395(9) 0.30630(7)
C46_4 C 0.20188(12) 0.98912(10) 0.28098(7)
C47_4 C 0.13992(11) 0.88021(10) 0.31895(6)
O21_4 O 0.66230(8) 0.64578(6) 0.10993(4)
O31_4 O 0.79641(7) 0.93486(6) 0.31289(5)
O35_4 O 0.74369(8) 0.85189(8) 0.30375(6)
C50_4 C 0.72525(17) 0.91410(12) 0.14983(9)
C51_4 C 0.74582(17) 0.87562(12) 0.15525(10)
H20_4 H 0.766456 0.874692 0.169728
C52_4 C 0.73728(15) 0.83851(11) 0.14027(9)
H21_4 H 0.753917 0.813786 0.143178
C53_4 C 0.70298(14) 0.83821(11) 0.12040(8)
C54_4 C 0.68269(15) 0.87677(10) 0.11423(8)
H22_4 H 0.661402 0.877308 0.100167
C55_4 C 0.69300(15) 0.91457(11) 0.12828(8)
C56_4 C 0.66911(17) 0.95374(11) 0.12167(10)
C57_4 C 0.65051(19) 0.98557(12) 0.11509(11)
H28_4 H 0.782349 0.994254 0.226670
C72_4 C 0.7391(2) 0.98492(12) 0.17939(11)
C73_4 C 0.7339(2) 0.95283(12) 0.16556(10)
C74_4 C 0.68885(11) 0.79786(9) 0.10573(7)
C75_4 C 0.69383(11) 0.75734(10) 0.11854(7)
H29_4 H 0.708912 0.755135 0.135700
C76_4 C 0.67689(10) 0.72073(9) 0.10628(6)
C77_4 C 0.65464(9) 0.72331(8) 0.08062(6)
H30_4 H 0.642948 0.698468 0.072438
C78_4 C 0.64984(10) 0.76309(9) 0.06715(6)
C79_4 C 0.66799(11) 0.79969(9) 0.07945(6)
H31_4 H 0.666167 0.826045 0.069888
C80_4 C 0.67969(10) 0.67801(9) 0.12199(6)
C81_4 C 0.62301(9) 0.76791(9) 0.04052(6)
H37_4 H 0.782924 0.987464 0.273501
C97_4 C 0.82186(10) 0.96371(10) 0.32155(7)
O58_4 O 0.70159(6) 0.56309(7) 0.11022(5)
O60_4 O 0.84424(7) 0.85748(8) 0.30713(4)
O64_4 O 0.60193(9) 0.57084(15) 0.10347(5)
C155_4 C 0.97429(11) 0.62905(18) 0.10800(10)
C156_4 C 0.97110(12) 0.59834(19) 0.08682(11)
H60_4 H 0.995782 0.590929 0.076520
C157_4 C 0.93271(11) 0.57833(17) 0.08041(11)
H61_4 H 0.931506 0.558737 0.065319
C158_4 C 0.89529(10) 0.58700(14) 0.09629(8)
C159_4 C 0.89893(11) 0.6169(2) 0.11722(10)
H62_4 H 0.874408 0.623421 0.127952
C160_4 C 0.93709(12) 0.63863(19) 0.12366(10)
C161_4 C 0.93859(13) 0.6696(2) 0.14627(12)
C162_4 C 0.93813(14) 0.6930(3) 0.16649(14)
C163_4 C 0.93962(14) 0.7218(3) 0.19025(14)
C164_4 C 0.90420(15) 0.7277(3) 0.20779(15)
H63_4 H 0.877747 0.715744 0.202468
C165_4 C 0.90678(14) 0.7509(3) 0.23306(13)
H64_4 H 0.882907 0.752407 0.245149
C166_4 C 0.94501(12) 0.7719(2) 0.24041(10)
C167_4 C 0.98006(11) 0.76820(18) 0.22212(10)
C168_4 C 0.97790(12) 0.7437(2) 0.19700(11)
C179_4 C 0.85285(9) 0.56641(11) 0.08986(7)
C180_4 C 0.84737(9) 0.53615(11) 0.06831(7)
H69_4 H 0.871238 0.527007 0.057782
C181_4 C 0.80663(9) 0.51922(9) 0.06220(6)
C182_4 C 0.77078(9) 0.53270(9) 0.07786(6)
H70_4 H 0.743320 0.522292 0.073430
C183_4 C 0.77634(9) 0.56175(9) 0.10011(6)
C184_4 C 0.81680(9) 0.57825(11) 0.10580(7)
H71_4 H 0.820109 0.597879 0.120735
C185_4 C 0.80043(9) 0.48646(10) 0.03885(6)
C186_4 C 0.73812(9) 0.57657(9) 0.11771(7)
C187_4 C 0.94919(10) 0.79733(15) 0.26685(8)
C188_4 C 0.91370(10) 0.81804(14) 0.27957(7)
H72_4 H 0.886715 0.816698 0.270772
C189_4 C 0.91815(10) 0.84029(11) 0.30482(6)
C190_4 C 0.95857(9) 0.84288(10) 0.31795(6)
H73_4 H 0.961830 0.858953 0.334634
C191_4 C 0.99395(9) 0.82165(11) 0.30630(7)
C192_4 C 0.98912(10) 0.79812(12) 0.28098(7)
C193_4 C 0.88021(10) 0.86008(11) 0.31895(6)
H87_3 H 0.466299 0.917002 0.0100113
H91_4 H 0.717394 0.870147 0.305837
H92_4 H 0.736744 0.821571 0.309166
H88_3 H 0.44593 0.933585 0.979977
O49_4 O 0.93486(6) 0.20359(7) 0.31289(5)
O51_4 O 0.85189(8) 0.25631(8) 0.30375(6)
C99_4 C 0.91410(12) 0.27475(17) 0.14983(9)
C100_4 C 0.87562(12) 0.25418(17) 0.15525(10)
H39_4 H 0.874692 0.233544 0.169728
C101_4 C 0.83851(11) 0.26272(15) 0.14027(9)
H40_4 H 0.813786 0.246083 0.143178
C102_4 C 0.83821(11) 0.29702(14) 0.12040(8)
C103_4 C 0.87677(10) 0.31731(15) 0.11423(8)
H41_4 H 0.877308 0.338598 0.100167
C104_4 C 0.91457(11) 0.30700(15) 0.12828(8)
C105_4 C 0.95374(11) 0.33089(17) 0.12167(10)
C106_4 C 0.98557(12) 0.34949(19) 0.11509(11)
H47_4 H 0.994254 0.217651 0.226670
C121_4 C 0.98492(12) 0.2609(2) 0.17939(11)
C122_4 C 0.95283(12) 0.2661(2) 0.16556(10)
C123_4 C 0.79786(9) 0.31115(11) 0.10573(7)
C124_4 C 0.75734(10) 0.30617(11) 0.11854(7)
H48_4 H 0.755135 0.291088 0.135700
C125_4 C 0.72073(9) 0.32311(10) 0.10628(6)
C126_4 C 0.72331(8) 0.34536(9) 0.08062(6)
H49_4 H 0.698468 0.357052 0.072438
C127_4 C 0.76309(9) 0.35016(10) 0.06715(6)
C128_4 C 0.79969(9) 0.33201(11) 0.07945(6)
H50_4 H 0.826045 0.333833 0.069888
C129_4 C 0.67801(9) 0.32031(10) 0.12199(6)
C130_4 C 0.76791(9) 0.37699(9) 0.04052(6)
H56_4 H 0.987464 0.217076 0.273501
C146_4 C 0.96371(10) 0.17814(10) 0.32155(7)
H101_4 H 0.870147 0.282606 0.305837
H102_4 H 0.821571 0.263256 0.309166
H87_4 H 0.0829977 0.466299 0.0100113
H88_4 H 0.0664154 0.44593 0.979977
H89_4 H 0.917002 0.533701 0.0100113
H90_4 H 0.933585 0.55407 0.979977
loop_
_geom_bond_atom_site_label_1
_geom_bond_atom_site_label_2
_geom_bond_site_symmetry_1
_geom_bond_site_symmetry_2
Zn1 O3 1_555 1_555
Zn2 O4 1_555 1_555
Zn3 O7 1_555 1_555
Zn4 O12 1_555 1_555
Zn5 O17 1_555 1_555
O1 C31 1_555 1_555
O2 C31 1_555 1_555
O3 C32 1_555 1_555
O4 C32 1_555 1_555
O7 C40 1_555 1_555
O8 C40 1_555 1_555
O9 C47 1_555 1_555
O10 C47 1_555 1_555
O11 C48 1_555 1_555
O12 C48 1_555 1_555
O13 Zn1 1_555 1_555
O14 Zn2 1_555 1_555
O15 Zn3 1_555 1_555
O16 Zn4 1_555 1_555
O18 Zn5 1_555 1_555
O19 Zn5 1_555 1_555
C1 C2 1_555 1_555
C2 H1 1_555 1_555
C3 C2 1_555 1_555
H2 C3 1_555 1_555
C4 C3 1_555 1_555
C5 C4 1_555 1_555
H3 C5 1_555 1_555
C6 C1 1_555 1_555
C7 C6 1_555 1_555
C8 C7 1_555 1_555
C9 C8 1_555 1_555
C10 C9 1_555 1_555
H4 C10 1_555 1_555
C11 C10 1_555 1_555
H5 C11 1_555 1_555
C12 C11 1_555 1_555
C13 C12 1_555 1_555
H6 C13 1_555 1_555
C14 C9 1_555 1_555
C15 C14 1_555 1_555
C16 C15 1_555 1_555
C17 C16 1_555 1_555
C18 C17 1_555 1_555
H7 C18 1_555 1_555
C19 C18 1_555 1_555
H8 C19 1_555 1_555
C20 C19 1_555 1_555
C21 C20 1_555 1_555
H9 C21 1_555 1_555
C22 C17 1_555 1_555
C23 C22 1_555 1_555
C24 C1 1_555 1_555
C25 C4 1_555 1_555
C26 C25 1_555 1_555
H10 C26 1_555 1_555
C27 C26 1_555 1_555
C28 C27 1_555 1_555
H11 C28 1_555 1_555
C29 C28 1_555 1_555
C30 C25 1_555 1_555
H12 C30 1_555 1_555
C31 C27 1_555 1_555
C32 C29 1_555 1_555
C33 C12 1_555 1_555
C34 C33 1_555 1_555
H13 C34 1_555 1_555
C35 C34 1_555 1_555
C36 C35 1_555 1_555
H14 C36 1_555 1_555
C37 C36 1_555 1_555
C38 C33 1_555 1_555
H15 C38 1_555 1_555
C40 C37 1_555 1_555
C41 C20 1_555 1_555
C42 C41 1_555 1_555
H16 C42 1_555 1_555
C43 C42 1_555 1_555
C44 C43 1_555 1_555
H17 C44 1_555 1_555
C45 C44 1_555 1_555
C46 C41 1_555 1_555
H18 C46 1_555 1_555
C47 C43 1_555 1_555
C48 C45 1_555 1_555
C49 O14 1_555 1_555
H19 C49 1_555 1_555
O24 Zn2 1_555 1_555
O25 Zn1 1_555 1_555
C88 O24 1_555 1_555
Zn10 O2 1_555 1_555
Zn11 O49 1_555 1_555
O38 C129 1_555 1_555
O39 C129 1_555 1_555
O40 C130 1_555 1_555
O41 C130 1_555 1_555
O44 Zn10 1_555 1_555
O45 C138 1_555 1_555
O46 Zn4 1_555 1_555
O47 C145 1_555 1_555
O48 C146 1_555 1_555
O49 C146 1_555 1_555
O50 Zn10 1_555 1_555
O51 Zn11 1_555 1_555
C99 C100 1_555 1_555
C100 H39 1_555 1_555
C101 C100 1_555 1_555
H40 C101 1_555 1_555
C102 C101 1_555 1_555
C103 C102 1_555 1_555
H41 C103 1_555 1_555
C104 C99 1_555 1_555
C105 C104 1_555 1_555
C106 C105 1_555 1_555
C107 C106 1_555 1_555
C108 C107 1_555 1_555
H42 C108 1_555 1_555
C109 C108 1_555 1_555
H43 C109 1_555 1_555
C110 C109 1_555 1_555
C111 C110 1_555 1_555
H44 C111 1_555 1_555
C112 C107 1_555 1_555
C113 C112 1_555 1_555
C114 C113 1_555 1_555
C115 C114 1_555 1_555
C116 C115 1_555 1_555
H45 C116 1_555 1_555
C117 C116 1_555 1_555
H46 C117 1_555 1_555
C118 C117 1_555 1_555
C119 C118 1_555 1_555
H47 C119 1_555 1_555
C120 C115 1_555 1_555
C121 C120 1_555 1_555
C122 C99 1_555 1_555
C123 C102 1_555 1_555
C124 C123 1_555 1_555
H48 C124 1_555 1_555
C125 C124 1_555 1_555
C126 C125 1_555 1_555
H49 C126 1_555 1_555
C127 C126 1_555 1_555
C128 C123 1_555 1_555
H50 C128 1_555 1_555
C129 C125 1_555 1_555
C130 C127 1_555 1_555
C131 C110 1_555 1_555
C132 C131 1_555 1_555
H51 C132 1_555 1_555
C133 C132 1_555 1_555
C134 C133 1_555 1_555
H52 C134 1_555 1_555
C135 C134 1_555 1_555
C136 C131 1_555 1_555
H53 C136 1_555 1_555
C138 O44 1_555 1_555
C139 C118 1_555 1_555
C140 C139 1_555 1_555
H54 C140 1_555 1_555
C141 C140 1_555 1_555
C142 C141 1_555 1_555
H55 C142 1_555 1_555
C143 C142 1_555 1_555
C144 C139 1_555 1_555
H56 C144 1_555 1_555
C145 O46 1_555 1_555
C146 C143 1_555 1_555
O66 Zn5 1_555 1_555
Zn15 O40 1_555 1_555
Zn19 O41 1_555 1_555
Zn23 O39 1_555 1_555
Zn25 O10 1_555 1_555
Zn27 O48 1_555 1_555
Zn28 O11 1_555 1_555
Zn31 O9 1_555 1_555
Zn32 O1 1_555 1_555
Zn35 O38 1_555 1_555
Zn37 O8 1_555 1_555
O67 Zn4 1_555 1_555
O69 Zn11 1_555 1_555
O72 Zn3 1_555 1_555
O74 Zn1 1_555 1_555
O76 Zn2 1_555 1_555
O77 Zn2 1_555 1_555
O79 Zn1 1_555 1_555
O82 Zn11 1_555 1_555
O83 Zn4 1_555 1_555
O86 Zn11 1_555 1_555
O87 Zn3 1_555 1_555
O89 Zn10 1_555 1_555
O91 Zn10 1_555 1_555
O94 Zn3 1_555 1_555
O19 C49 1_555 1_555
C5 C6 1_555 1_555
C13 C14 1_555 1_555
C21 C22 1_555 1_555
C23 C24 1_555 1_555
C29 C30 1_555 1_555
C37 C38 1_555 1_555
C45 C46 1_555 1_555
O25 C88 1_555 1_555
O45 Zn32 1_555 1_555
O47 Zn28 1_555 1_555
C103 C104 1_555 1_555
C111 C112 1_555 1_555
C119 C120 1_555 1_555
C121 C122 1_555 1_555
C127 C128 1_555 1_555
C135 C136 1_555 1_555
C135 C138 1_555 1_555
C141 C145 1_555 1_555
C143 C144 1_555 1_555
O16 H83 1_555 1_555
O16 H84 1_555 1_555
O51 H101 1_555 1_555
O51 H102 1_555 1_555
O42 C137 1_555 1_555
O43 C137 1_555 1_555
Zn17 O43 1_555 1_555
Zn21 O42 1_555 1_555
O56 C185 1_555 1_555
O57 C185 1_555 1_555
Zn15 O57 1_555 1_555
Zn19 O56 1_555 1_555
Zn5_2 O17_2 1_555 1_555
O5 C39 1_555 1_555
O6 C39 1_555 1_555
Zn6 O6 1_555 1_555
Zn7 O5 1_555 1_555
Zn23 O26 1_555 1_555
Zn9 O31 1_555 1_555
O20 C80 1_555 1_555
O21 C80 1_555 1_555
O22 Zn6 1_555 1_555
O23 Zn7 1_555 1_555
O26 C89 1_555 1_555
O27 C89 1_555 1_555
O86 C96 1_555 1_555
O29 C96 1_555 1_555
O30 C97 1_555 1_555
O31 C97 1_555 1_555
O32 Zn6 1_555 1_555
O33 Zn7 1_555 1_555
O34 Zn23 1_555 1_555
O35 Zn9 1_555 1_555
O36 Zn5_2 1_555 1_555
O37 Zn5_2 1_555 1_555
C50 C51 1_555 1_555
C51 H20 1_555 1_555
C52 C51 1_555 1_555
H21 C52 1_555 1_555
C53 C52 1_555 1_555
C54 C53 1_555 1_555
H22 C54 1_555 1_555
C55 C50 1_555 1_555
C56 C55 1_555 1_555
C57 C56 1_555 1_555
C58 C57 1_555 1_555
C59 C58 1_555 1_555
H23 C59 1_555 1_555
C60 C59 1_555 1_555
H24 C60 1_555 1_555
C61 C60 1_555 1_555
C62 C61 1_555 1_555
H25 C62 1_555 1_555
C63 C58 1_555 1_555
C64 C63 1_555 1_555
C65 C64 1_555 1_555
C66 C65 1_555 1_555
C67 C66 1_555 1_555
H26 C67 1_555 1_555
C68 C67 1_555 1_555
H27 C68 1_555 1_555
C69 C68 1_555 1_555
C70 C69 1_555 1_555
H28 C70 1_555 1_555
C71 C66 1_555 1_555
C72 C71 1_555 1_555
C73 C50 1_555 1_555
C74 C53 1_555 1_555
C75 C74 1_555 1_555
H29 C75 1_555 1_555
C76 C75 1_555 1_555
C77 C76 1_555 1_555
H30 C77 1_555 1_555
C78 C77 1_555 1_555
C79 C74 1_555 1_555
H31 C79 1_555 1_555
C80 C76 1_555 1_555
C81 O22 1_555 1_555
C82 C61 1_555 1_555
C83 C82 1_555 1_555
H32 C83 1_555 1_555
C84 C83 1_555 1_555
C85 C84 1_555 1_555
H33 C85 1_555 1_555
C86 C85 1_555 1_555
C87 C82 1_555 1_555
H34 C87 1_555 1_555
C89 C86 1_555 1_555
C90 C69 1_555 1_555
C91 C90 1_555 1_555
H35 C91 1_555 1_555
C92 C91 1_555 1_555
C93 C92 1_555 1_555
H36 C93 1_555 1_555
C94 C93 1_555 1_555
C95 C90 1_555 1_555
H37 C95 1_555 1_555
C96 C92 1_555 1_555
C97 C94 1_555 1_555
C98 O33 1_555 1_555
H38 C98 1_555 1_555
Zn12 O21 1_555 1_555
Zn31 O63 1_555 1_555
O52 C177 1_555 1_555
O72 C177 1_555 1_555
O54 C178 1_555 1_555
O55 C178 1_555 1_555
O58 Zn12 1_555 1_555
O59 C186 1_555 1_555
O60 Zn9 1_555 1_555
O61 C193 1_555 1_555
O62 C194 1_555 1_555
O63 C194 1_555 1_555
O64 Zn12 1_555 1_555
O65 Zn31 1_555 1_555
C147 C148 1_555 1_555
C148 H57 1_555 1_555
C149 C148 1_555 1_555
H58 C149 1_555 1_555
C150 C149 1_555 1_555
C151 C150 1_555 1_555
H59 C151 1_555 1_555
C152 C147 1_555 1_555
C153 C152 1_555 1_555
C154 C153 1_555 1_555
C155 C154 1_555 1_555
C156 C155 1_555 1_555
H60 C156 1_555 1_555
C157 C156 1_555 1_555
H61 C157 1_555 1_555
C158 C157 1_555 1_555
C159 C158 1_555 1_555
H62 C159 1_555 1_555
C160 C155 1_555 1_555
C161 C160 1_555 1_555
C162 C161 1_555 1_555
C163 C162 1_555 1_555
C164 C163 1_555 1_555
H63 C164 1_555 1_555
C165 C164 1_555 1_555
H64 C165 1_555 1_555
C166 C165 1_555 1_555
C167 C166 1_555 1_555
H65 C167 1_555 1_555
C168 C163 1_555 1_555
C169 C168 1_555 1_555
C170 C147 1_555 1_555
C171 C150 1_555 1_555
C172 C171 1_555 1_555
H66 C172 1_555 1_555
C173 C172 1_555 1_555
C174 C173 1_555 1_555
H67 C174 1_555 1_555
C175 C174 1_555 1_555
C176 C171 1_555 1_555
H68 C176 1_555 1_555
C177 C173 1_555 1_555
C178 C175 1_555 1_555
C179 C158 1_555 1_555
C180 C179 1_555 1_555
H69 C180 1_555 1_555
C181 C180 1_555 1_555
C182 C181 1_555 1_555
H70 C182 1_555 1_555
C183 C182 1_555 1_555
C184 C179 1_555 1_555
H71 C184 1_555 1_555
C186 O58 1_555 1_555
C187 C166 1_555 1_555
C188 C187 1_555 1_555
H72 C188 1_555 1_555
C189 C188 1_555 1_555
C190 C189 1_555 1_555
H73 C190 1_555 1_555
C191 C190 1_555 1_555
C192 C187 1_555 1_555
H74 C192 1_555 1_555
C193 O60 1_555 1_555
C194 C191 1_555 1_555
O66_2 Zn5_2 1_555 1_555
Zn17 O54 1_555 1_555
Zn21 O55 1_555 1_555
Zn25 O62 1_555 1_555
Zn27 O29 1_555 1_555
Zn29 O30 1_555 1_555
Zn33 O20 1_555 1_555
Zn35 O27 1_555 1_555
Zn37 O52 1_555 1_555
O68 Zn9 1_555 1_555
O70 Zn31 1_555 1_555
O73 Zn6 1_555 1_555
O75 Zn7 1_555 1_555
O78 Zn7 1_555 1_555
O80 Zn6 1_555 1_555
O81 Zn31 1_555 1_555
O84 Zn9 1_555 1_555
O88 Zn23 1_555 1_555
O90 Zn12 1_555 1_555
O92 Zn12 1_555 1_555
O93 Zn23 1_555 1_555
O23 C81 1_555 1_555
O37 C98 1_555 1_555
C54 C55 1_555 1_555
C62 C63 1_555 1_555
C70 C71 1_555 1_555
C72 C73 1_555 1_555
C78 C79 1_555 1_555
C78 C81 1_555 1_555
C86 C87 1_555 1_555
C94 C95 1_555 1_555
O59 Zn33 1_555 1_555
O61 Zn29 1_555 1_555
C151 C152 1_555 1_555
C159 C160 1_555 1_555
C167 C168 1_555 1_555
C169 C170 1_555 1_555
C175 C176 1_555 1_555
C183 C184 1_555 1_555
C183 C186 1_555 1_555
C189 C193 1_555 1_555
C191 C192 1_555 1_555
O65 H77 1_555 1_555
O65 H78 1_555 1_555
O35 H91 1_555 1_555
O35 H92 1_555 1_555
Zn5_3 O17_3 1_555 1_555
O13_2 Zn15 1_555 1_555
O14_2 Zn19 1_555 1_555
O18_2 Zn5_3 1_555 1_555
O19_2 Zn5_3 1_555 1_555
C49_2 O14_2 1_555 1_555
H19_2 C49_2 1_555 1_555
O66_3 Zn5_3 1_555 1_555
O74_2 Zn15 1_555 1_555
O76_2 Zn19 1_555 1_555
O77_2 Zn19 1_555 1_555
O79_2 Zn15 1_555 1_555
O19_2 C49_2 1_555 1_555
Zn5_4 O17_4 1_555 1_555
O32_2 Zn17 1_555 1_555
O33_2 Zn21 1_555 1_555
O36_2 Zn5_4 1_555 1_555
O37_2 Zn5_4 1_555 1_555
C98_2 O33_2 1_555 1_555
H38_2 C98_2 1_555 1_555
O66_4 Zn5_4 1_555 1_555
O73_2 Zn17 1_555 1_555
O75_2 Zn21 1_555 1_555
O78_2 Zn21 1_555 1_555
O80_2 Zn17 1_555 1_555
O37_2 C98_2 1_555 1_555
Zn11_2 O49_2 1_555 1_555
O38_2 C129_2 1_555 1_555
O39_2 C129_2 1_555 1_555
O40_2 C130_2 1_555 1_555
O41_2 C130_2 1_555 1_555
O48_2 C146_2 1_555 1_555
O49_2 C146_2 1_555 1_555
O51_2 Zn11_2 1_555 1_555
C99_2 C100_2 1_555 1_555
C100_2 H39_2 1_555 1_555
C101_2 C100_2 1_555 1_555
H40_2 C101_2 1_555 1_555
C102_2 C101_2 1_555 1_555
C103_2 C102_2 1_555 1_555
H41_2 C103_2 1_555 1_555
C104_2 C99_2 1_555 1_555
C105_2 C104_2 1_555 1_555
C106_2 C105_2 1_555 1_555
C122_2 C99_2 1_555 1_555
C123_2 C102_2 1_555 1_555
C124_2 C123_2 1_555 1_555
H48_2 C124_2 1_555 1_555
C125_2 C124_2 1_555 1_555
C126_2 C125_2 1_555 1_555
H49_2 C126_2 1_555 1_555
C127_2 C126_2 1_555 1_555
C128_2 C123_2 1_555 1_555
H50_2 C128_2 1_555 1_555
C129_2 C125_2 1_555 1_555
C130_2 C127_2 1_555 1_555
Zn15_3 O40_2 1_555 1_555
Zn19_3 O41_2 1_555 1_555
Zn23_2 O39_2 1_555 1_555
Zn27_2 O48_2 1_555 1_555
Zn35_2 O38_2 1_555 1_555
O69_2 Zn11_2 1_555 1_555
O82_2 Zn11_2 1_555 1_555
O86_2 Zn11_2 1_555 1_555
C103_2 C104_2 1_555 1_555
C121_2 C122_2 1_555 1_555
C127_2 C128_2 1_555 1_555
O51_2 H101_2 1_555 1_555
O51_2 H102_2 1_555 1_555
O18_3 Zn5_5 1_555 1_555
O32_3 Zn6_2 1_555 1_555
O33_3 Zn7_2 1_555 1_555
O37_3 Zn5_5 1_555 1_555
C98_3 O33_3 1_555 1_555
H38_3 C98_3 1_555 1_555
O66_5 Zn5_5 1_555 1_555
O73_3 Zn6_2 1_555 1_555
O75_3 Zn7_2 1_555 1_555
O78_3 Zn7_2 1_555 1_555
O80_3 Zn6_2 1_555 1_555
O37_3 C98_3 1_555 1_555
O18_3 H88 1_555 1_555
Zn3_2 O7_2 1_555 1_555
Zn5_6 O17_5 1_555 1_555
O5_2 C39_2 1_555 1_555
O6_2 C39_2 1_555 1_555
O7_2 C40_2 1_555 1_555
O8_2 C40_2 1_555 1_555
O9_2 C47_2 1_555 1_555
O10_2 C47_2 1_555 1_555
O15_2 Zn3_2 1_555 1_555
O18_4 Zn5_6 1_555 1_555
C10_2 C9_2 1_555 1_555
H4_2 C10_2 1_555 1_555
C11_2 C10_2 1_555 1_555
H5_2 C11_2 1_555 1_555
C12_2 C11_2 1_555 1_555
C13_2 C12_2 1_555 1_555
H6_2 C13_2 1_555 1_555
C14_2 C9_2 1_555 1_555
C15_2 C14_2 1_555 1_555
C16_2 C15_2 1_555 1_555
C17_2 C16_2 1_555 1_555
C18_2 C17_2 1_555 1_555
H7_2 C18_2 1_555 1_555
C19_2 C18_2 1_555 1_555
H8_2 C19_2 1_555 1_555
C20_2 C19_2 1_555 1_555
C21_2 C20_2 1_555 1_555
C22_2 C17_2 1_555 1_555
C33_2 C12_2 1_555 1_555
C34_2 C33_2 1_555 1_555
H13_2 C34_2 1_555 1_555
C35_2 C34_2 1_555 1_555
C36_2 C35_2 1_555 1_555
H14_2 C36_2 1_555 1_555
C37_2 C36_2 1_555 1_555
C38_2 C33_2 1_555 1_555
H15_2 C38_2 1_555 1_555
C39_2 C35_2 1_555 1_555
C40_2 C37_2 1_555 1_555
C41_2 C20_2 1_555 1_555
C42_2 C41_2 1_555 1_555
H16_2 C42_2 1_555 1_555
C43_2 C42_2 1_555 1_555
C44_2 C43_2 1_555 1_555
H17_2 C44_2 1_555 1_555
C45_2 C44_2 1_555 1_555
C46_2 C41_2 1_555 1_555
C47_2 C43_2 1_555 1_555
Zn6_3 O6_2 1_555 1_555
Zn7_3 O5_2 1_555 1_555
Zn9_2 O31_2 1_555 1_555
O20_2 C80_2 1_555 1_555
O21_2 C80_2 1_555 1_555
O22_2 Zn6_3 1_555 1_555
O23_2 Zn7_3 1_555 1_555
O30_2 C97_2 1_555 1_555
O31_2 C97_2 1_555 1_555
O32_4 Zn6_3 1_555 1_555
O33_4 Zn7_3 1_555 1_555
O35_2 Zn9_2 1_555 1_555
O37_4 Zn5_6 1_555 1_555
C50_2 C51_2 1_555 1_555
C51_2 H20_2 1_555 1_555
C52_2 C51_2 1_555 1_555
H21_2 C52_2 1_555 1_555
C53_2 C52_2 1_555 1_555
C54_2 C53_2 1_555 1_555
H22_2 C54_2 1_555 1_555
C55_2 C50_2 1_555 1_555
C56_2 C55_2 1_555 1_555
C57_2 C56_2 1_555 1_555
C73_2 C50_2 1_555 1_555
C74_2 C53_2 1_555 1_555
C75_2 C74_2 1_555 1_555
H29_2 C75_2 1_555 1_555
C76_2 C75_2 1_555 1_555
C77_2 C76_2 1_555 1_555
H30_2 C77_2 1_555 1_555
C78_2 C77_2 1_555 1_555
C79_2 C74_2 1_555 1_555
H31_2 C79_2 1_555 1_555
C80_2 C76_2 1_555 1_555
C81_2 O22_2 1_555 1_555
C98_4 O33_4 1_555 1_555
H38_4 C98_4 1_555 1_555
Zn12_2 O21_2 1_555 1_555
O56_2 C185_2 1_555 1_555
O57_2 C185_2 1_555 1_555
O58_2 Zn12_2 1_555 1_555
O59_2 C186_2 1_555 1_555
O60_2 Zn9_2 1_555 1_555
O61_2 C193_2 1_555 1_555
O64_2 Zn12_2 1_555 1_555
C156_2 C155_2 1_555 1_555
H60_2 C156_2 1_555 1_555
C157_2 C156_2 1_555 1_555
H61_2 C157_2 1_555 1_555
C158_2 C157_2 1_555 1_555
C159_2 C158_2 1_555 1_555
H62_2 C159_2 1_555 1_555
C160_2 C155_2 1_555 1_555
C161_2 C160_2 1_555 1_555
C162_2 C161_2 1_555 1_555
C163_2 C162_2 1_555 1_555
C164_2 C163_2 1_555 1_555
H63_2 C164_2 1_555 1_555
C165_2 C164_2 1_555 1_555
H64_2 C165_2 1_555 1_555
C166_2 C165_2 1_555 1_555
C167_2 C166_2 1_555 1_555
C168_2 C163_2 1_555 1_555
C179_2 C158_2 1_555 1_555
C180_2 C179_2 1_555 1_555
H69_2 C180_2 1_555 1_555
C181_2 C180_2 1_555 1_555
C182_2 C181_2 1_555 1_555
H70_2 C182_2 1_555 1_555
C183_2 C182_2 1_555 1_555
C184_2 C179_2 1_555 1_555
H71_2 C184_2 1_555 1_555
C185_2 C181_2 1_555 1_555
C186_2 O58_2 1_555 1_555
C187_2 C166_2 1_555 1_555
C188_2 C187_2 1_555 1_555
H72_2 C188_2 1_555 1_555
C189_2 C188_2 1_555 1_555
C190_2 C189_2 1_555 1_555
H73_2 C190_2 1_555 1_555
C191_2 C190_2 1_555 1_555
C192_2 C187_2 1_555 1_555
C193_2 O60_2 1_555 1_555
Zn15_3 O57_2 1_555 1_555
Zn19_3 O56_2 1_555 1_555
Zn25_2 O10_2 1_555 1_555
Zn29_2 O30_2 1_555 1_555
Zn31_2 O9_2 1_555 1_555
Zn33_2 O20_2 1_555 1_555
Zn37_2 O8_2 1_555 1_555
O68_2 Zn9_2 1_555 1_555
O72_2 Zn3_2 1_555 1_555
O84_2 Zn9_2 1_555 1_555
O87_2 Zn3_2 1_555 1_555
O90_2 Zn12_2 1_555 1_555
O92_2 Zn12_2 1_555 1_555
O94_2 Zn3_2 1_555 1_555
C13_2 C14_2 1_555 1_555
C21_2 C22_2 1_555 1_555
C37_2 C38_2 1_555 1_555
C45_2 C46_2 1_555 1_555
O23_2 C81_2 1_555 1_555
O37_4 C98_4 1_555 1_555
C54_2 C55_2 1_555 1_555
C72_2 C73_2 1_555 1_555
C78_2 C79_2 1_555 1_555
C78_2 C81_2 1_555 1_555
O59_2 Zn33_2 1_555 1_555
O61_2 Zn29_2 1_555 1_555
C159_2 C160_2 1_555 1_555
C167_2 C168_2 1_555 1_555
C183_2 C184_2 1_555 1_555
C183_2 C186_2 1_555 1_555
C189_2 C193_2 1_555 1_555
C191_2 C192_2 1_555 1_555
O18_4 H87 1_555 1_555
O35_2 H91_2 1_555 1_555
O35_2 H92_2 1_555 1_555
O13_3 Zn1_2 1_555 1_555
O14_3 Zn2_2 1_555 1_555
O19_3 Zn5_7 1_555 1_555
C49_3 O14_3 1_555 1_555
H19_3 C49_3 1_555 1_555
O36_3 Zn5_7 1_555 1_555
O66_6 Zn5_7 1_555 1_555
O74_3 Zn1_2 1_555 1_555
O76_3 Zn2_2 1_555 1_555
O77_3 Zn2_2 1_555 1_555
O79_3 Zn1_2 1_555 1_555
O19_3 C49_3 1_555 1_555
O36_3 H90 1_555 1_555
Zn1_3 O3_2 1_555 1_555
Zn2_3 O4_2 1_555 1_555
Zn4_2 O12_2 1_555 1_555
Zn5_8 O17_6 1_555 1_555
O1_2 C31_2 1_555 1_555
O2_2 C31_2 1_555 1_555
O3_2 C32_2 1_555 1_555
O4_2 C32_2 1_555 1_555
O11_2 C48_2 1_555 1_555
O12_2 C48_2 1_555 1_555
O13_4 Zn1_3 1_555 1_555
O14_4 Zn2_3 1_555 1_555
O16_2 Zn4_2 1_555 1_555
O19_4 Zn5_8 1_555 1_555
C1_2 C2_2 1_555 1_555
C2_2 H1_2 1_555 1_555
C3_2 C2_2 1_555 1_555
H2_2 C3_2 1_555 1_555
C4_2 C3_2 1_555 1_555
C5_2 C4_2 1_555 1_555
H3_2 C5_2 1_555 1_555
C6_2 C1_2 1_555 1_555
C7_2 C6_2 1_555 1_555
C8_2 C7_2 1_555 1_555
C24_2 C1_2 1_555 1_555
C25_2 C4_2 1_555 1_555
C26_2 C25_2 1_555 1_555
H10_2 C26_2 1_555 1_555
C27_2 C26_2 1_555 1_555
C28_2 C27_2 1_555 1_555
H11_2 C28_2 1_555 1_555
C29_2 C28_2 1_555 1_555
C30_2 C25_2 1_555 1_555
H12_2 C30_2 1_555 1_555
C31_2 C27_2 1_555 1_555
C32_2 C29_2 1_555 1_555
C49_4 O14_4 1_555 1_555
H19_4 C49_4 1_555 1_555
Zn23_2 O26_2 1_555 1_555
O24_2 Zn2_3 1_555 1_555
O25_2 Zn1_3 1_555 1_555
O26_2 C89_2 1_555 1_555
O27_2 C89_2 1_555 1_555
O86_2 C96_2 1_555 1_555
O29_2 C96_2 1_555 1_555
O34_2 Zn23_2 1_555 1_555
O36_4 Zn5_8 1_555 1_555
C59_2 C58_2 1_555 1_555
H23_2 C59_2 1_555 1_555
C60_2 C59_2 1_555 1_555
H24_2 C60_2 1_555 1_555
C61_2 C60_2 1_555 1_555
C62_2 C61_2 1_555 1_555
H25_2 C62_2 1_555 1_555
C63_2 C58_2 1_555 1_555
C64_2 C63_2 1_555 1_555
C65_2 C64_2 1_555 1_555
C66_2 C65_2 1_555 1_555
C67_2 C66_2 1_555 1_555
H26_2 C67_2 1_555 1_555
C68_2 C67_2 1_555 1_555
H27_2 C68_2 1_555 1_555
C69_2 C68_2 1_555 1_555
C70_2 C69_2 1_555 1_555
C71_2 C66_2 1_555 1_555
C82_2 C61_2 1_555 1_555
C83_2 C82_2 1_555 1_555
H32_2 C83_2 1_555 1_555
C84_2 C83_2 1_555 1_555
C85_2 C84_2 1_555 1_555
H33_2 C85_2 1_555 1_555
C86_2 C85_2 1_555 1_555
C87_2 C82_2 1_555 1_555
H34_2 C87_2 1_555 1_555
C88_2 O24_2 1_555 1_555
C89_2 C86_2 1_555 1_555
C90_2 C69_2 1_555 1_555
C91_2 C90_2 1_555 1_555
H35_2 C91_2 1_555 1_555
C92_2 C91_2 1_555 1_555
C93_2 C92_2 1_555 1_555
H36_2 C93_2 1_555 1_555
C94_2 C93_2 1_555 1_555
C95_2 C90_2 1_555 1_555
C96_2 C92_2 1_555 1_555
Zn10_2 O2_2 1_555 1_555
O42_2 C137_2 1_555 1_555
O43_2 C137_2 1_555 1_555
O44_2 Zn10_2 1_555 1_555
O45_2 C138_2 1_555 1_555
O46_2 Zn4_2 1_555 1_555
O47_2 C145_2 1_555 1_555
O50_2 Zn10_2 1_555 1_555
C108_2 C107_2 1_555 1_555
H42_2 C108_2 1_555 1_555
C109_2 C108_2 1_555 1_555
H43_2 C109_2 1_555 1_555
C110_2 C109_2 1_555 1_555
C111_2 C110_2 1_555 1_555
H44_2 C111_2 1_555 1_555
C112_2 C107_2 1_555 1_555
C113_2 C112_2 1_555 1_555
C114_2 C113_2 1_555 1_555
C115_2 C114_2 1_555 1_555
C116_2 C115_2 1_555 1_555
H45_2 C116_2 1_555 1_555
C117_2 C116_2 1_555 1_555
H46_2 C117_2 1_555 1_555
C118_2 C117_2 1_555 1_555
C119_2 C118_2 1_555 1_555
C120_2 C115_2 1_555 1_555
C131_2 C110_2 1_555 1_555
C132_2 C131_2 1_555 1_555
H51_2 C132_2 1_555 1_555
C133_2 C132_2 1_555 1_555
C134_2 C133_2 1_555 1_555
H52_2 C134_2 1_555 1_555
C135_2 C134_2 1_555 1_555
C136_2 C131_2 1_555 1_555
H53_2 C136_2 1_555 1_555
C137_2 C133_2 1_555 1_555
C138_2 O44_2 1_555 1_555
C139_2 C118_2 1_555 1_555
C140_2 C139_2 1_555 1_555
H54_2 C140_2 1_555 1_555
C141_2 C140_2 1_555 1_555
C142_2 C141_2 1_555 1_555
H55_2 C142_2 1_555 1_555
C143_2 C142_2 1_555 1_555
C144_2 C139_2 1_555 1_555
C145_2 O46_2 1_555 1_555
Zn17_3 O43_2 1_555 1_555
Zn21_3 O42_2 1_555 1_555
Zn27_2 O29_2 1_555 1_555
Zn28_2 O11_2 1_555 1_555
Zn32_2 O1_2 1_555 1_555
Zn35_2 O27_2 1_555 1_555
O67_2 Zn4_2 1_555 1_555
O83_2 Zn4_2 1_555 1_555
O88_2 Zn23_2 1_555 1_555
O89_2 Zn10_2 1_555 1_555
O91_2 Zn10_2 1_555 1_555
O93_2 Zn23_2 1_555 1_555
O19_4 C49_4 1_555 1_555
C5_2 C6_2 1_555 1_555
C23_2 C24_2 1_555 1_555
C29_2 C30_2 1_555 1_555
O25_2 C88_2 1_555 1_555
C62_2 C63_2 1_555 1_555
C70_2 C71_2 1_555 1_555
C84_2 C88_2 1_555 1_555
C86_2 C87_2 1_555 1_555
C94_2 C95_2 1_555 1_555
O45_2 Zn32_2 1_555 1_555
O47_2 Zn28_2 1_555 1_555
C111_2 C112_2 1_555 1_555
C119_2 C120_2 1_555 1_555
C135_2 C136_2 1_555 1_555
C135_2 C138_2 1_555 1_555
C141_2 C145_2 1_555 1_555
C143_2 C144_2 1_555 1_555
O16_2 H83_2 1_555 1_555
O16_2 H84_2 1_555 1_555
O36_4 H89 1_555 1_555
Zn31_2 O63_2 1_555 1_555
O52_2 C177_2 1_555 1_555
O72_2 C177_2 1_555 1_555
O54_2 C178_2 1_555 1_555
O55_2 C178_2 1_555 1_555
O62_2 C194_2 1_555 1_555
O63_2 C194_2 1_555 1_555
O65_2 Zn31_2 1_555 1_555
C147_2 C148_2 1_555 1_555
C148_2 H57_2 1_555 1_555
C149_2 C148_2 1_555 1_555
H58_2 C149_2 1_555 1_555
C150_2 C149_2 1_555 1_555
C151_2 C150_2 1_555 1_555
H59_2 C151_2 1_555 1_555
C152_2 C147_2 1_555 1_555
C153_2 C152_2 1_555 1_555
C154_2 C153_2 1_555 1_555
C170_2 C147_2 1_555 1_555
C171_2 C150_2 1_555 1_555
C172_2 C171_2 1_555 1_555
H66_2 C172_2 1_555 1_555
C173_2 C172_2 1_555 1_555
C174_2 C173_2 1_555 1_555
H67_2 C174_2 1_555 1_555
C175_2 C174_2 1_555 1_555
C176_2 C171_2 1_555 1_555
H68_2 C176_2 1_555 1_555
C177_2 C173_2 1_555 1_555
C178_2 C175_2 1_555 1_555
Zn17_3 O54_2 1_555 1_555
Zn21_3 O55_2 1_555 1_555
Zn25_2 O62_2 1_555 1_555
Zn37_2 O52_2 1_555 1_555
O70_2 Zn31_2 1_555 1_555
O81_2 Zn31_2 1_555 1_555
C151_2 C152_2 1_555 1_555
C169_2 C170_2 1_555 1_555
C175_2 C176_2 1_555 1_555
O65_2 H77_2 1_555 1_555
O65_2 H78_2 1_555 1_555
O13_5 Zn15_2 1_555 1_555
O14_5 Zn19_2 1_555 1_555
O19_5 Zn5_9 1_555 1_555
C49_5 O14_5 1_555 1_555
H19_5 C49_5 1_555 1_555
O36_5 Zn5_9 1_555 1_555
O66_7 Zn5_9 1_555 1_555
O74_4 Zn15_2 1_555 1_555
O76_4 Zn19_2 1_555 1_555
O77_4 Zn19_2 1_555 1_555
O79_4 Zn15_2 1_555 1_555
O19_5 C49_5 1_555 1_555
O36_5 H90_2 1_555 1_555
Zn5_10 O17_7 1_555 1_555
O13_6 Zn15_3 1_555 1_555
O14_6 Zn19_3 1_555 1_555
O19_6 Zn5_10 1_555 1_555
C49_6 O14_6 1_555 1_555
H19_6 C49_6 1_555 1_555
O36_6 Zn5_10 1_555 1_555
O19_6 C49_6 1_555 1_555
O36_6 H89_2 1_555 1_555
O18_5 Zn5_11 1_555 1_555
O32_5 Zn17_2 1_555 1_555
O33_5 Zn21_2 1_555 1_555
O37_5 Zn5_11 1_555 1_555
C98_5 O33_5 1_555 1_555
H38_5 C98_5 1_555 1_555
O66_8 Zn5_11 1_555 1_555
O73_4 Zn17_2 1_555 1_555
O75_4 Zn21_2 1_555 1_555
O78_4 Zn21_2 1_555 1_555
O80_4 Zn17_2 1_555 1_555
O37_5 C98_5 1_555 1_555
O18_5 H88_2 1_555 1_555
Zn5_12 O17_8 1_555 1_555
O18_6 Zn5_12 1_555 1_555
O32_6 Zn17_3 1_555 1_555
O33_6 Zn21_3 1_555 1_555
O37_6 Zn5_12 1_555 1_555
C98_6 O33_6 1_555 1_555
H38_6 C98_6 1_555 1_555
O37_6 C98_6 1_555 1_555
O18_6 H87_2 1_555 1_555
O77 C39_3 1_555 1_555
O79 C39_3 1_555 1_555
Zn27_2 O26_3 1_555 1_555
Zn33_2 O31_3 1_555 1_555
O68_2 C80_3 1_555 1_555
O21_3 C80_3 1_555 1_555
O26_3 C89_3 1_555 1_555
O82_2 C89_3 1_555 1_555
O28 C96_3 1_555 1_555
O88_2 C96_3 1_555 1_555
O92_2 C97_3 1_555 1_555
O31_3 C97_3 1_555 1_555
O34_3 Zn27_2 1_555 1_555
O35_3 Zn33_2 1_555 1_555
C50_3 C51_3 1_555 1_555
C51_3 H20_3 1_555 1_555
C52_3 C51_3 1_555 1_555
H21_3 C52_3 1_555 1_555
C53_3 C52_3 1_555 1_555
C54_3 C53_3 1_555 1_555
H22_3 C54_3 1_555 1_555
C55_3 C50_3 1_555 1_555
C56_3 C55_3 1_555 1_555
C57_3 C56_3 1_555 1_555
C58_3 C57_3 1_555 1_555
C59_3 C58_3 1_555 1_555
H23_3 C59_3 1_555 1_555
C60_3 C59_3 1_555 1_555
H24_3 C60_3 1_555 1_555
C61_3 C60_3 1_555 1_555
C62_3 C61_3 1_555 1_555
H25_3 C62_3 1_555 1_555
C63_3 C58_3 1_555 1_555
C64_3 C63_3 1_555 1_555
C65_3 C64_3 1_555 1_555
C66_3 C65_3 1_555 1_555
C67_3 C66_3 1_555 1_555
H26_3 C67_3 1_555 1_555
C68_3 C67_3 1_555 1_555
H27_3 C68_3 1_555 1_555
C69_3 C68_3 1_555 1_555
C70_3 C69_3 1_555 1_555
H28_3 C70_3 1_555 1_555
C71_3 C66_3 1_555 1_555
C72_3 C71_3 1_555 1_555
C73_3 C50_3 1_555 1_555
C74_3 C53_3 1_555 1_555
C75_3 C74_3 1_555 1_555
H29_3 C75_3 1_555 1_555
C76_3 C75_3 1_555 1_555
C77_3 C76_3 1_555 1_555
H30_3 C77_3 1_555 1_555
C78_3 C77_3 1_555 1_555
C79_3 C74_3 1_555 1_555
H31_3 C79_3 1_555 1_555
C80_3 C76_3 1_555 1_555
C81_3 O74 1_555 1_555
C82_3 C61_3 1_555 1_555
C83_3 C82_3 1_555 1_555
H32_3 C83_3 1_555 1_555
C84_3 C83_3 1_555 1_555
C85_3 C84_3 1_555 1_555
H33_3 C85_3 1_555 1_555
C86_3 C85_3 1_555 1_555
C87_3 C82_3 1_555 1_555
H34_3 C87_3 1_555 1_555
C89_3 C86_3 1_555 1_555
C90_3 C69_3 1_555 1_555
C91_3 C90_3 1_555 1_555
H35_3 C91_3 1_555 1_555
C92_3 C91_3 1_555 1_555
C93_3 C92_3 1_555 1_555
H36_3 C93_3 1_555 1_555
C94_3 C93_3 1_555 1_555
C95_3 C90_3 1_555 1_555
H37_3 C95_3 1_555 1_555
C96_3 C92_3 1_555 1_555
C97_3 C94_3 1_555 1_555
Zn29_2 O21_3 1_555 1_555
Zn37_2 O63_3 1_555 1_555
O70_2 C177_3 1_555 1_555
O53 C177_3 1_555 1_555
O74_2 C178_3 1_555 1_555
O76_2 C178_3 1_555 1_555
O58_3 Zn29_2 1_555 1_555
O84_2 C186_3 1_555 1_555
O60_3 Zn33_2 1_555 1_555
O90_2 C193_3 1_555 1_555
O94_2 C194_3 1_555 1_555
O63_3 C194_3 1_555 1_555
O64_3 Zn29_2 1_555 1_555
O65_3 Zn37_2 1_555 1_555
C147_3 C148_3 1_555 1_555
C148_3 H57_3 1_555 1_555
C149_3 C148_3 1_555 1_555
H58_3 C149_3 1_555 1_555
C150_3 C149_3 1_555 1_555
C151_3 C150_3 1_555 1_555
H59_3 C151_3 1_555 1_555
C152_3 C147_3 1_555 1_555
C153_3 C152_3 1_555 1_555
C154_3 C153_3 1_555 1_555
C155_3 C154_3 1_555 1_555
C156_3 C155_3 1_555 1_555
H60_3 C156_3 1_555 1_555
C157_3 C156_3 1_555 1_555
H61_3 C157_3 1_555 1_555
C158_3 C157_3 1_555 1_555
C159_3 C158_3 1_555 1_555
H62_3 C159_3 1_555 1_555
C160_3 C155_3 1_555 1_555
C161_3 C160_3 1_555 1_555
C162_3 C161_3 1_555 1_555
C163_3 C162_3 1_555 1_555
C164_3 C163_3 1_555 1_555
H63_3 C164_3 1_555 1_555
C165_3 C164_3 1_555 1_555
H64_3 C165_3 1_555 1_555
C166_3 C165_3 1_555 1_555
C167_3 C166_3 1_555 1_555
H65_3 C167_3 1_555 1_555
C168_3 C163_3 1_555 1_555
C169_3 C168_3 1_555 1_555
C170_3 C147_3 1_555 1_555
C171_3 C150_3 1_555 1_555
C172_3 C171_3 1_555 1_555
H66_3 C172_3 1_555 1_555
C173_3 C172_3 1_555 1_555
C174_3 C173_3 1_555 1_555
H67_3 C174_3 1_555 1_555
C175_3 C174_3 1_555 1_555
C176_3 C171_3 1_555 1_555
H68_3 C176_3 1_555 1_555
C177_3 C173_3 1_555 1_555
C178_3 C175_3 1_555 1_555
C179_3 C158_3 1_555 1_555
C180_3 C179_3 1_555 1_555
H69_3 C180_3 1_555 1_555
C181_3 C180_3 1_555 1_555
C182_3 C181_3 1_555 1_555
H70_3 C182_3 1_555 1_555
C183_3 C182_3 1_555 1_555
C184_3 C179_3 1_555 1_555
H71_3 C184_3 1_555 1_555
C186_3 O58_3 1_555 1_555
C187_3 C166_3 1_555 1_555
C188_3 C187_3 1_555 1_555
H72_3 C188_3 1_555 1_555
C189_3 C188_3 1_555 1_555
C190_3 C189_3 1_555 1_555
H73_3 C190_3 1_555 1_555
C191_3 C190_3 1_555 1_555
C192_3 C187_3 1_555 1_555
H74_3 C192_3 1_555 1_555
C193_3 O60_3 1_555 1_555
C194_3 C191_3 1_555 1_555
Zn25_2 O53 1_555 1_555
Zn35_2 O28 1_555 1_555
O71 Zn27_2 1_555 1_555
O85 Zn37_2 1_555 1_555
O76 C81_3 1_555 1_555
C54_3 C55_3 1_555 1_555
C62_3 C63_3 1_555 1_555
C70_3 C71_3 1_555 1_555
C72_3 C73_3 1_555 1_555
C78_3 C79_3 1_555 1_555
C78_3 C81_3 1_555 1_555
C86_3 C87_3 1_555 1_555
C94_3 C95_3 1_555 1_555
C151_3 C152_3 1_555 1_555
C159_3 C160_3 1_555 1_555
C167_3 C168_3 1_555 1_555
C169_3 C170_3 1_555 1_555
C175_3 C176_3 1_555 1_555
C183_3 C184_3 1_555 1_555
C183_3 C186_3 1_555 1_555
C189_3 C193_3 1_555 1_555
C191_3 C192_3 1_555 1_555
O65_3 H77_3 1_555 1_555
O65_3 H78_3 1_555 1_555
O35_3 H91_3 1_555 1_555
O35_3 H92_3 1_555 1_555
O78_2 C185_3 1_555 1_555
O80_2 C185_3 1_555 1_555
O77_2 C137_3 1_555 1_555
O79_2 C137_3 1_555 1_555
Zn25_2 O7_3 1_555 1_555
Zn32_2 O12_3 1_555 1_555
O67_2 C31_3 1_555 1_555
O2_3 C31_3 1_555 1_555
O73 C32_3 1_555 1_555
O75 C32_3 1_555 1_555
O7_3 C40_3 1_555 1_555
O81_2 C40_3 1_555 1_555
O85 C47_3 1_555 1_555
O87_2 C47_3 1_555 1_555
O91_2 C48_3 1_555 1_555
O12_3 C48_3 1_555 1_555
O15_3 Zn25_2 1_555 1_555
O16_3 Zn32_2 1_555 1_555
C1_3 C2_3 1_555 1_555
C2_3 H1_3 1_555 1_555
C3_3 C2_3 1_555 1_555
H2_3 C3_3 1_555 1_555
C4_3 C3_3 1_555 1_555
C5_3 C4_3 1_555 1_555
H3_3 C5_3 1_555 1_555
C6_3 C1_3 1_555 1_555
C7_3 C6_3 1_555 1_555
C8_3 C7_3 1_555 1_555
C9_3 C8_3 1_555 1_555
C10_3 C9_3 1_555 1_555
H4_3 C10_3 1_555 1_555
C11_3 C10_3 1_555 1_555
H5_3 C11_3 1_555 1_555
C12_3 C11_3 1_555 1_555
C13_3 C12_3 1_555 1_555
H6_3 C13_3 1_555 1_555
C14_3 C9_3 1_555 1_555
C15_3 C14_3 1_555 1_555
C16_3 C15_3 1_555 1_555
C17_3 C16_3 1_555 1_555
C18_3 C17_3 1_555 1_555
H7_3 C18_3 1_555 1_555
C19_3 C18_3 1_555 1_555
H8_3 C19_3 1_555 1_555
C20_3 C19_3 1_555 1_555
C21_3 C20_3 1_555 1_555
H9_3 C21_3 1_555 1_555
C22_3 C17_3 1_555 1_555
C23_3 C22_3 1_555 1_555
C24_3 C1_3 1_555 1_555
C25_3 C4_3 1_555 1_555
C26_3 C25_3 1_555 1_555
H10_3 C26_3 1_555 1_555
C27_3 C26_3 1_555 1_555
C28_3 C27_3 1_555 1_555
H11_3 C28_3 1_555 1_555
C29_3 C28_3 1_555 1_555
C30_3 C25_3 1_555 1_555
H12_3 C30_3 1_555 1_555
C31_3 C27_3 1_555 1_555
C32_3 C29_3 1_555 1_555
C33_3 C12_3 1_555 1_555
C34_3 C33_3 1_555 1_555
H13_3 C34_3 1_555 1_555
C35_3 C34_3 1_555 1_555
C36_3 C35_3 1_555 1_555
H14_3 C36_3 1_555 1_555
C37_3 C36_3 1_555 1_555
C38_3 C33_3 1_555 1_555
H15_3 C38_3 1_555 1_555
C40_3 C37_3 1_555 1_555
C41_3 C20_3 1_555 1_555
C42_3 C41_3 1_555 1_555
H16_3 C42_3 1_555 1_555
C43_3 C42_3 1_555 1_555
C44_3 C43_3 1_555 1_555
H17_3 C44_3 1_555 1_555
C45_3 C44_3 1_555 1_555
C46_3 C41_3 1_555 1_555
H18_3 C46_3 1_555 1_555
C47_3 C43_3 1_555 1_555
C48_3 C45_3 1_555 1_555
C88_3 O78 1_555 1_555
Zn28_2 O2_3 1_555 1_555
Zn35_2 O49_3 1_555 1_555
O69_2 C129_3 1_555 1_555
O71 C129_3 1_555 1_555
O73_2 C130_3 1_555 1_555
O75_2 C130_3 1_555 1_555
O44_3 Zn28_2 1_555 1_555
O83_2 C138_3 1_555 1_555
O46_3 Zn32_2 1_555 1_555
O89_2 C145_3 1_555 1_555
O93_2 C146_3 1_555 1_555
O49_3 C146_3 1_555 1_555
O50_3 Zn28_2 1_555 1_555
O51_3 Zn35_2 1_555 1_555
C99_3 C100_3 1_555 1_555
C100_3 H39_3 1_555 1_555
C101_3 C100_3 1_555 1_555
H40_3 C101_3 1_555 1_555
C102_3 C101_3 1_555 1_555
C103_3 C102_3 1_555 1_555
H41_3 C103_3 1_555 1_555
C104_3 C99_3 1_555 1_555
C105_3 C104_3 1_555 1_555
C106_3 C105_3 1_555 1_555
C107_3 C106_3 1_555 1_555
C108_3 C107_3 1_555 1_555
H42_3 C108_3 1_555 1_555
C109_3 C108_3 1_555 1_555
H43_3 C109_3 1_555 1_555
C110_3 C109_3 1_555 1_555
C111_3 C110_3 1_555 1_555
H44_3 C111_3 1_555 1_555
C112_3 C107_3 1_555 1_555
C113_3 C112_3 1_555 1_555
C114_3 C113_3 1_555 1_555
C115_3 C114_3 1_555 1_555
C116_3 C115_3 1_555 1_555
H45_3 C116_3 1_555 1_555
C117_3 C116_3 1_555 1_555
H46_3 C117_3 1_555 1_555
C118_3 C117_3 1_555 1_555
C119_3 C118_3 1_555 1_555
H47_3 C119_3 1_555 1_555
C120_3 C115_3 1_555 1_555
C121_3 C120_3 1_555 1_555
C122_3 C99_3 1_555 1_555
C123_3 C102_3 1_555 1_555
C124_3 C123_3 1_555 1_555
H48_3 C124_3 1_555 1_555
C125_3 C124_3 1_555 1_555
C126_3 C125_3 1_555 1_555
H49_3 C126_3 1_555 1_555
C127_3 C126_3 1_555 1_555
C128_3 C123_3 1_555 1_555
H50_3 C128_3 1_555 1_555
C129_3 C125_3 1_555 1_555
C130_3 C127_3 1_555 1_555
C131_3 C110_3 1_555 1_555
C132_3 C131_3 1_555 1_555
H51_3 C132_3 1_555 1_555
C133_3 C132_3 1_555 1_555
C134_3 C133_3 1_555 1_555
H52_3 C134_3 1_555 1_555
C135_3 C134_3 1_555 1_555
C136_3 C131_3 1_555 1_555
H53_3 C136_3 1_555 1_555
C138_3 O44_3 1_555 1_555
C139_3 C118_3 1_555 1_555
C140_3 C139_3 1_555 1_555
H54_3 C140_3 1_555 1_555
C141_3 C140_3 1_555 1_555
C142_3 C141_3 1_555 1_555
H55_3 C142_3 1_555 1_555
C143_3 C142_3 1_555 1_555
C144_3 C139_3 1_555 1_555
H56_3 C144_3 1_555 1_555
C145_3 O46_3 1_555 1_555
C146_3 C143_3 1_555 1_555
C5_3 C6_3 1_555 1_555
C13_3 C14_3 1_555 1_555
C21_3 C22_3 1_555 1_555
C23_3 C24_3 1_555 1_555
C29_3 C30_3 1_555 1_555
C37_3 C38_3 1_555 1_555
C45_3 C46_3 1_555 1_555
O80 C88_3 1_555 1_555
C103_3 C104_3 1_555 1_555
C111_3 C112_3 1_555 1_555
C119_3 C120_3 1_555 1_555
C121_3 C122_3 1_555 1_555
C127_3 C128_3 1_555 1_555
C135_3 C136_3 1_555 1_555
C135_3 C138_3 1_555 1_555
C141_3 C145_3 1_555 1_555
C143_3 C144_3 1_555 1_555
O16_3 H83_3 1_555 1_555
O16_3 H84_3 1_555 1_555
O51_3 H101_3 1_555 1_555
O51_3 H102_3 1_555 1_555
Zn37 O63_4 1_555 1_555
O70 C177_4 1_555 1_555
O53_2 C177_4 1_555 1_555
O74_4 C178_4 1_555 1_555
O76_4 C178_4 1_555 1_555
O94 C194_4 1_555 1_555
O63_4 C194_4 1_555 1_555
O65_4 Zn37 1_555 1_555
C147_4 C148_4 1_555 1_555
C148_4 H57_4 1_555 1_555
C149_4 C148_4 1_555 1_555
H58_4 C149_4 1_555 1_555
C150_4 C149_4 1_555 1_555
C151_4 C150_4 1_555 1_555
H59_4 C151_4 1_555 1_555
C152_4 C147_4 1_555 1_555
C153_4 C152_4 1_555 1_555
C154_4 C153_4 1_555 1_555
C170_4 C147_4 1_555 1_555
C171_4 C150_4 1_555 1_555
C172_4 C171_4 1_555 1_555
H66_4 C172_4 1_555 1_555
C173_4 C172_4 1_555 1_555
C174_4 C173_4 1_555 1_555
H67_4 C174_4 1_555 1_555
C175_4 C174_4 1_555 1_555
C176_4 C171_4 1_555 1_555
H68_4 C176_4 1_555 1_555
C177_4 C173_4 1_555 1_555
C178_4 C175_4 1_555 1_555
Zn25 O53_2 1_555 1_555
O85_2 Zn37 1_555 1_555
C151_4 C152_4 1_555 1_555
C169_4 C170_4 1_555 1_555
C175_4 C176_4 1_555 1_555
O65_4 H77_4 1_555 1_555
O65_4 H78_4 1_555 1_555
Zn32 O12_4 1_555 1_555
O67 C31_4 1_555 1_555
O2_4 C31_4 1_555 1_555
O73_3 C32_4 1_555 1_555
O75_3 C32_4 1_555 1_555
O91 C48_4 1_555 1_555
O12_4 C48_4 1_555 1_555
O16_4 Zn32 1_555 1_555
C1_4 C2_4 1_555 1_555
C2_4 H1_4 1_555 1_555
C3_4 C2_4 1_555 1_555
H2_4 C3_4 1_555 1_555
C4_4 C3_4 1_555 1_555
C5_4 C4_4 1_555 1_555
H3_4 C5_4 1_555 1_555
C6_4 C1_4 1_555 1_555
C7_4 C6_4 1_555 1_555
C8_4 C7_4 1_555 1_555
C24_4 C1_4 1_555 1_555
C25_4 C4_4 1_555 1_555
C26_4 C25_4 1_555 1_555
H10_4 C26_4 1_555 1_555
C27_4 C26_4 1_555 1_555
C28_4 C27_4 1_555 1_555
H11_4 C28_4 1_555 1_555
C29_4 C28_4 1_555 1_555
C30_4 C25_4 1_555 1_555
H12_4 C30_4 1_555 1_555
C31_4 C27_4 1_555 1_555
C32_4 C29_4 1_555 1_555
Zn27 O26_4 1_555 1_555
O26_4 C89_4 1_555 1_555
O82 C89_4 1_555 1_555
O28_2 C96_4 1_555 1_555
O88 C96_4 1_555 1_555
O34_4 Zn27 1_555 1_555
C59_4 C58_4 1_555 1_555
H23_4 C59_4 1_555 1_555
C60_4 C59_4 1_555 1_555
H24_4 C60_4 1_555 1_555
C61_4 C60_4 1_555 1_555
C62_4 C61_4 1_555 1_555
H25_4 C62_4 1_555 1_555
C63_4 C58_4 1_555 1_555
C64_4 C63_4 1_555 1_555
C65_4 C64_4 1_555 1_555
C66_4 C65_4 1_555 1_555
C67_4 C66_4 1_555 1_555
H26_4 C67_4 1_555 1_555
C68_4 C67_4 1_555 1_555
H27_4 C68_4 1_555 1_555
C69_4 C68_4 1_555 1_555
C70_4 C69_4 1_555 1_555
C71_4 C66_4 1_555 1_555
C82_4 C61_4 1_555 1_555
C83_4 C82_4 1_555 1_555
H32_4 C83_4 1_555 1_555
C84_4 C83_4 1_555 1_555
C85_4 C84_4 1_555 1_555
H33_4 C85_4 1_555 1_555
C86_4 C85_4 1_555 1_555
C87_4 C82_4 1_555 1_555
H34_4 C87_4 1_555 1_555
C88_4 O78_3 1_555 1_555
C89_4 C86_4 1_555 1_555
C90_4 C69_4 1_555 1_555
C91_4 C90_4 1_555 1_555
H35_4 C91_4 1_555 1_555
C92_4 C91_4 1_555 1_555
C93_4 C92_4 1_555 1_555
H36_4 C93_4 1_555 1_555
C94_4 C93_4 1_555 1_555
C95_4 C90_4 1_555 1_555
C96_4 C92_4 1_555 1_555
Zn28 O2_4 1_555 1_555
O77_4 C137_4 1_555 1_555
O79_4 C137_4 1_555 1_555
O44_4 Zn28 1_555 1_555
O83 C138_4 1_555 1_555
O46_4 Zn32 1_555 1_555
O89 C145_4 1_555 1_555
O50_4 Zn28 1_555 1_555
C108_4 C107_4 1_555 1_555
H42_4 C108_4 1_555 1_555
C109_4 C108_4 1_555 1_555
H43_4 C109_4 1_555 1_555
C110_4 C109_4 1_555 1_555
C111_4 C110_4 1_555 1_555
H44_4 C111_4 1_555 1_555
C112_4 C107_4 1_555 1_555
C113_4 C112_4 1_555 1_555
C114_4 C113_4 1_555 1_555
C115_4 C114_4 1_555 1_555
C116_4 C115_4 1_555 1_555
H45_4 C116_4 1_555 1_555
C117_4 C116_4 1_555 1_555
H46_4 C117_4 1_555 1_555
C118_4 C117_4 1_555 1_555
C119_4 C118_4 1_555 1_555
C120_4 C115_4 1_555 1_555
C131_4 C110_4 1_555 1_555
C132_4 C131_4 1_555 1_555
H51_4 C132_4 1_555 1_555
C133_4 C132_4 1_555 1_555
C134_4 C133_4 1_555 1_555
H52_4 C134_4 1_555 1_555
C135_4 C134_4 1_555 1_555
C136_4 C131_4 1_555 1_555
H53_4 C136_4 1_555 1_555
C137_4 C133_4 1_555 1_555
C138_4 O44_4 1_555 1_555
C139_4 C118_4 1_555 1_555
C140_4 C139_4 1_555 1_555
H54_4 C140_4 1_555 1_555
C141_4 C140_4 1_555 1_555
C142_4 C141_4 1_555 1_555
H55_4 C142_4 1_555 1_555
C143_4 C142_4 1_555 1_555
C144_4 C139_4 1_555 1_555
C145_4 O46_4 1_555 1_555
Zn35 O28_2 1_555 1_555
O71_2 Zn27 1_555 1_555
C5_4 C6_4 1_555 1_555
C23_4 C24_4 1_555 1_555
C29_4 C30_4 1_555 1_555
O80_3 C88_4 1_555 1_555
C62_4 C63_4 1_555 1_555
C70_4 C71_4 1_555 1_555
C84_4 C88_4 1_555 1_555
C86_4 C87_4 1_555 1_555
C94_4 C95_4 1_555 1_555
C111_4 C112_4 1_555 1_555
C119_4 C120_4 1_555 1_555
C135_4 C136_4 1_555 1_555
C135_4 C138_4 1_555 1_555
C141_4 C145_4 1_555 1_555
C143_4 C144_4 1_555 1_555
O16_4 H83_4 1_555 1_555
O16_4 H84_4 1_555 1_555
O18_3 H89_3 1_555 1_555
O18_4 H90_3 1_555 1_555
Zn25 O7_4 1_555 1_555
O77_3 C39_4 1_555 1_555
O79_3 C39_4 1_555 1_555
O7_4 C40_4 1_555 1_555
O81 C40_4 1_555 1_555
O85_2 C47_4 1_555 1_555
O87 C47_4 1_555 1_555
O15_4 Zn25 1_555 1_555
C10_4 C9_4 1_555 1_555
H4_4 C10_4 1_555 1_555
C11_4 C10_4 1_555 1_555
H5_4 C11_4 1_555 1_555
C12_4 C11_4 1_555 1_555
C13_4 C12_4 1_555 1_555
H6_4 C13_4 1_555 1_555
C14_4 C9_4 1_555 1_555
C15_4 C14_4 1_555 1_555
C16_4 C15_4 1_555 1_555
C17_4 C16_4 1_555 1_555
C18_4 C17_4 1_555 1_555
H7_4 C18_4 1_555 1_555
C19_4 C18_4 1_555 1_555
H8_4 C19_4 1_555 1_555
C20_4 C19_4 1_555 1_555
C21_4 C20_4 1_555 1_555
C22_4 C17_4 1_555 1_555
C33_4 C12_4 1_555 1_555
C34_4 C33_4 1_555 1_555
H13_4 C34_4 1_555 1_555
C35_4 C34_4 1_555 1_555
C36_4 C35_4 1_555 1_555
H14_4 C36_4 1_555 1_555
C37_4 C36_4 1_555 1_555
C38_4 C33_4 1_555 1_555
H15_4 C38_4 1_555 1_555
C39_4 C35_4 1_555 1_555
C40_4 C37_4 1_555 1_555
C41_4 C20_4 1_555 1_555
C42_4 C41_4 1_555 1_555
H16_4 C42_4 1_555 1_555
C43_4 C42_4 1_555 1_555
C44_4 C43_4 1_555 1_555
H17_4 C44_4 1_555 1_555
C45_4 C44_4 1_555 1_555
C46_4 C41_4 1_555 1_555
C47_4 C43_4 1_555 1_555
Zn33 O31_4 1_555 1_555
O68 C80_4 1_555 1_555
O21_4 C80_4 1_555 1_555
O92 C97_4 1_555 1_555
O31_4 C97_4 1_555 1_555
O35_4 Zn33 1_555 1_555
C50_4 C51_4 1_555 1_555
C51_4 H20_4 1_555 1_555
C52_4 C51_4 1_555 1_555
H21_4 C52_4 1_555 1_555
C53_4 C52_4 1_555 1_555
C54_4 C53_4 1_555 1_555
H22_4 C54_4 1_555 1_555
C55_4 C50_4 1_555 1_555
C56_4 C55_4 1_555 1_555
C57_4 C56_4 1_555 1_555
C73_4 C50_4 1_555 1_555
C74_4 C53_4 1_555 1_555
C75_4 C74_4 1_555 1_555
H29_4 C75_4 1_555 1_555
C76_4 C75_4 1_555 1_555
C77_4 C76_4 1_555 1_555
H30_4 C77_4 1_555 1_555
C78_4 C77_4 1_555 1_555
C79_4 C74_4 1_555 1_555
H31_4 C79_4 1_555 1_555
C80_4 C76_4 1_555 1_555
C81_4 O74_3 1_555 1_555
Zn29 O21_4 1_555 1_555
O78_4 C185_4 1_555 1_555
O80_4 C185_4 1_555 1_555
O58_4 Zn29 1_555 1_555
O84 C186_4 1_555 1_555
O60_4 Zn33 1_555 1_555
O90 C193_4 1_555 1_555
O64_4 Zn29 1_555 1_555
C156_4 C155_4 1_555 1_555
H60_4 C156_4 1_555 1_555
C157_4 C156_4 1_555 1_555
H61_4 C157_4 1_555 1_555
C158_4 C157_4 1_555 1_555
C159_4 C158_4 1_555 1_555
H62_4 C159_4 1_555 1_555
C160_4 C155_4 1_555 1_555
C161_4 C160_4 1_555 1_555
C162_4 C161_4 1_555 1_555
C163_4 C162_4 1_555 1_555
C164_4 C163_4 1_555 1_555
H63_4 C164_4 1_555 1_555
C165_4 C164_4 1_555 1_555
H64_4 C165_4 1_555 1_555
C166_4 C165_4 1_555 1_555
C167_4 C166_4 1_555 1_555
C168_4 C163_4 1_555 1_555
C179_4 C158_4 1_555 1_555
C180_4 C179_4 1_555 1_555
H69_4 C180_4 1_555 1_555
C181_4 C180_4 1_555 1_555
C182_4 C181_4 1_555 1_555
H70_4 C182_4 1_555 1_555
C183_4 C182_4 1_555 1_555
C184_4 C179_4 1_555 1_555
H71_4 C184_4 1_555 1_555
C185_4 C181_4 1_555 1_555
C186_4 O58_4 1_555 1_555
C187_4 C166_4 1_555 1_555
C188_4 C187_4 1_555 1_555
H72_4 C188_4 1_555 1_555
C189_4 C188_4 1_555 1_555
C190_4 C189_4 1_555 1_555
H73_4 C190_4 1_555 1_555
C191_4 C190_4 1_555 1_555
C192_4 C187_4 1_555 1_555
C193_4 O60_4 1_555 1_555
C13_4 C14_4 1_555 1_555
C21_4 C22_4 1_555 1_555
C37_4 C38_4 1_555 1_555
C45_4 C46_4 1_555 1_555
O76_3 C81_4 1_555 1_555
C54_4 C55_4 1_555 1_555
C72_4 C73_4 1_555 1_555
C78_4 C79_4 1_555 1_555
C78_4 C81_4 1_555 1_555
C159_4 C160_4 1_555 1_555
C167_4 C168_4 1_555 1_555
C183_4 C184_4 1_555 1_555
C183_4 C186_4 1_555 1_555
C189_4 C193_4 1_555 1_555
C191_4 C192_4 1_555 1_555
O36_3 H87_3 1_555 1_555
O35_4 H91_4 1_555 1_555
O35_4 H92_4 1_555 1_555
O36_4 H88_3 1_555 1_555
Zn35 O49_4 1_555 1_555
O69 C129_4 1_555 1_555
O71_2 C129_4 1_555 1_555
O73_4 C130_4 1_555 1_555
O75_4 C130_4 1_555 1_555
O93 C146_4 1_555 1_555
O49_4 C146_4 1_555 1_555
O51_4 Zn35 1_555 1_555
C99_4 C100_4 1_555 1_555
C100_4 H39_4 1_555 1_555
C101_4 C100_4 1_555 1_555
H40_4 C101_4 1_555 1_555
C102_4 C101_4 1_555 1_555
C103_4 C102_4 1_555 1_555
H41_4 C103_4 1_555 1_555
C104_4 C99_4 1_555 1_555
C105_4 C104_4 1_555 1_555
C106_4 C105_4 1_555 1_555
C122_4 C99_4 1_555 1_555
C123_4 C102_4 1_555 1_555
C124_4 C123_4 1_555 1_555
H48_4 C124_4 1_555 1_555
C125_4 C124_4 1_555 1_555
C126_4 C125_4 1_555 1_555
H49_4 C126_4 1_555 1_555
C127_4 C126_4 1_555 1_555
C128_4 C123_4 1_555 1_555
H50_4 C128_4 1_555 1_555
C129_4 C125_4 1_555 1_555
C130_4 C127_4 1_555 1_555
C103_4 C104_4 1_555 1_555
C121_4 C122_4 1_555 1_555
C127_4 C128_4 1_555 1_555
O51_4 H101_4 1_555 1_555
O51_4 H102_4 1_555 1_555
O36_5 H87_4 1_555 1_555
O36_6 H88_4 1_555 1_555
O18_5 H89_4 1_555 1_555
O18_6 H90_4 1_555 1_555

#END
