
###############################################################################
#
# This file contains modified crystal structure data generated from the
# MOF subset of the Cambridge Structural Database (CSD) v543 
# hosted by the Cambridge Crystallographic Data Centre (CCDC).
#
# This work is licensed under the Creative Commons
# Attribution-NonCommercial-ShareAlike 4.0 International License.
# To view a copy of this license, visit
# http://creativecommons.org/licenses/by-nc-sa/4.0/
# or send a letter to
# Creative Commons, PO Box 1866, Mountain View, CA 94042, USA.
#
# CIF created using the CSD Python API on 29 September 2022
# The structure has been converted into the P1 space group
# The structure has a 3D framework
# The original CSD entry EROJUT is in the trigonal crystal system
# The original CSD entry EROJUT is in a Sohncke space group
# The framework has been calculated to contain at least 10.0% void space
# The void calculation uses a probe of radius 1.32A, grid spacing 0.4
# The framework is charged, counterions have been retained in the structure
# H atom positions have been added when not included in the experimental data
# Generated hydrogen atom positions removed from atoms on special positions
#
###############################################################################

data_EROJUT
_chemical_formula_moiety         '(C216 H336 N78 O110 P12 Pd36 Zn6 6+)n'
_symmetry_cell_setting           triclinic
_symmetry_space_group_name_H-M   'P 1'
_symmetry_Int_Tables_number      1
_space_group_name_Hall           'P 1'
loop_
_symmetry_equiv_pos_site_id
_symmetry_equiv_pos_as_xyz
1 x,y,z
_cell_length_a                   22.327(5)
_cell_length_b                   22.327(5)
_cell_length_c                   23.713(5)
_cell_angle_alpha                90
_cell_angle_beta                 90
_cell_angle_gamma                120
_cell_volume                     10237.1
loop_
_atom_site_label
_atom_site_type_symbol
_atom_site_fract_x
_atom_site_fract_y
_atom_site_fract_z
N1 N 0.9411(13) 0.5633(14) 0.8527(12)
O1 O 0.8857(12) 0.5457(12) 0.8722(9)
O2 O 0.9641(13) 0.5258(13) 0.8489(10)
O3 O 0.973(2) 0.6212(18) 0.8341(17)
N1_2 N 0.4367(14) 0.3778(19) 0.1860(12)
O1_2 O 0.4543(12) 0.3400(17) 0.2055(9)
O2_2 O 0.4742(13) 0.4383(18) 0.1822(10)
O3_2 O 0.3788(18) 0.3518(27) 0.1674(17)
N1_3 N 0.6222(19) 0.0589(13) 0.5194(12)
O1_3 O 0.6600(17) 0.1143(12) 0.5389(9)
O2_3 O 0.5617(18) 0.0359(13) 0.5156(10)
O3_3 O 0.6482(27) 0.027(2) 0.5008(17)
N1_4 N 0.5633(14) 0.9411(13) 0.1473(12)
O1_4 O 0.5457(12) 0.8857(12) 0.1278(9)
O2_4 O 0.5258(13) 0.9641(13) 0.1511(10)
O3_4 O 0.6212(18) 0.973(2) 0.1659(17)
N1_5 N 0.3778(19) 0.4367(14) 0.8140(12)
O1_5 O 0.3400(17) 0.4543(12) 0.7945(9)
O2_5 O 0.4383(18) 0.4742(13) 0.8178(10)
O3_5 O 0.3518(27) 0.3788(18) 0.8326(17)
N1_6 N 0.0589(13) 0.6222(19) 0.4806(12)
O1_6 O 0.1143(12) 0.6600(17) 0.4611(9)
O2_6 O 0.0359(13) 0.5617(18) 0.4844(10)
O3_6 O 0.027(2) 0.6482(27) 0.4992(17)
H2 H 0.0141 0.2426 0.4271
C25 C 0.0388(12) 0.5454(12) 0.3594(8)
C27 C 0.0894(10) 0.4609(10) 0.3539(7)
C28 C 0.1143(11) 0.4096(11) 0.3409(8)
C29 C 0.0216(12) 0.2741(11) 0.2210(10)
H46 H 0.0389 0.2833 0.2585
C35 C 0.1298(11) 0.5305(16) 0.3431(8)
H48 H 0.1770 0.5487 0.3330
C36 C 0.0065(11) 0.5916(16) 0.3562(8)
N10 N 0.0199(9) 0.4327(9) 0.3675(7)
N13 N 0.1048(8) 0.5722(11) 0.3464(6)
O12 O 0.0488(7) 0.6548(10) 0.3387(6)
O16 O 0.0663(8) 0.3454(8) 0.3395(7)
O17 O 0.1768(7) 0.4343(8) 0.3326(6)
C38 C 0.0678(11) 0.2968(16) 0.1746(9)
C39 C 0.1402(11) 0.3411(16) 0.1833(10)
N14 N 0.0455(9) 0.2856(12) 0.1218(7)
O20 O 0.1786(7) 0.3712(11) 0.1390(6)
O21 O 0.1647(9) 0.3512(13) 0.2315(7)
C40 C 0.0124(12) 0.6985(17) 0.2237(9)
H50 H 0.0188 0.7046 0.2633
C41 C 0.0570(11) 0.7201(16) 0.1329(8)
C42 C 0.1156(11) 0.7392(16) 0.0955(9)
N15 N 0.0676(9) 0.7227(13) 0.1894(7)
O22 O 0.1733(7) 0.7551(10) 0.1219(6)
O23 O 0.1102(8) 0.7413(12) 0.0452(6)
Pd7 Pd 0.17938(9) 0.48491(13) 0.00553(7)
Pd9 Pd 0.12323(9) 0.33980(13) 0.06539(7)
Pd10 Pd 0.16700(8) 0.75587(11) 0.20809(7)
Pd11 Pd 0.25813(8) 0.68381(12) 0.24173(7)
Pd12 Pd 0.14709(8) 0.67766(11) 0.32561(7)
Zn2 Zn 0.2659(2) 0.4169(3) 0.28776(19)
P4 P 0.2627(3) 0.7962(4) 0.2919(2)
O25 O 0.3168(7) 0.8619(11) 0.3145(6)
H51 H 0.0035 0.2098 0.0008
H57 H 0.1195 0.2225 0.0253
C46 C 0.2745(11) 0.4225(16) 0.0254(9)
H58 H 0.2913 0.4534 0.0592
C48 C 0.2739(14) 0.3520(19) 0.0415(12)
H62 H 0.2357 0.3130 0.0217
H63 H 0.2677 0.3444 0.0823
H64 H 0.3178 0.3557 0.0302
C52 C 0.2960(12) 0.7288(18) 0.3704(11)
H72 H 0.2994 0.7676 0.3940
C53 C 0.2691(12) 0.6669(18) 0.4054(10)
H73 H 0.2208 0.6510 0.4151
H74 H 0.2966 0.6776 0.4400
H75 H 0.2719 0.6305 0.3845
C54 C 0.3714(12) 0.7491(17) 0.3490(11)
H76 H 0.4007 0.7538 0.3814
H77 H 0.3916 0.7931 0.3285
H78 H 0.3684 0.7129 0.3237
C55 C 0.1551(13) 0.8213(18) 0.3210(9)
H79 H 0.1036 0.7972 0.3173
C56 C 0.1826(16) 0.8904(22) 0.2922(11)
H80 H 0.2331 0.9131 0.2895
H81 H 0.1699 0.9196 0.3142
H82 H 0.1628 0.8836 0.2543
C57 C 0.1709(11) 0.8251(16) 0.3850(9)
H83 H 0.2176 0.8325 0.3906
H84 H 0.1372 0.7817 0.4032
H85 H 0.1678 0.8636 0.4019
C58 C 0.3216(11) 0.8230(16) 0.1831(9)
H86 H 0.3108 0.7994 0.1456
C59 C 0.3909(13) 0.8326(18) 0.2031(11)
H87 H 0.4041 0.8586 0.2386
H88 H 0.4264 0.8581 0.1745
H89 H 0.3867 0.7872 0.2092
C60 C 0.3246(13) 0.8915(18) 0.1759(10)
H90 H 0.2776 0.8841 0.1732
H91 H 0.3503 0.9141 0.1415
H92 H 0.3480 0.9211 0.2085
C61 C 0.1861(11) 0.6152(16) 0.0154(10)
C62 C 0.2131(11) 0.6044(16) 0.0715(9)
C63 C 0.2287(10) 0.6500(15) 0.1143(9)
H93 H 0.2248 0.6901 0.1093
C64 C 0.2519(11) 0.5785(15) 0.1719(9)
C65 C 0.2352(11) 0.5326(16) 0.1263(9)
H94 H 0.2363 0.4909 0.1312
C66 C 0.2629(12) 0.5604(17) 0.2301(10)
N17 N 0.1990(9) 0.4051(13) 0.0139(8)
N19 N 0.2525(9) 0.7204(13) 0.3196(7)
N20 N 0.1782(9) 0.7733(13) 0.2934(7)
N21 N 0.2647(9) 0.7782(13) 0.2231(7)
N22 N 0.2498(8) 0.6376(11) 0.1641(7)
N23 N 0.2175(8) 0.5469(12) 0.0757(7)
O26 O 0.1865(8) 0.6688(12) 0.0104(7)
O28 O 0.2654(8) 0.5069(11) 0.2352(6)
O29 O 0.2640(8) 0.6013(11) 0.2686(6)
O34 O 0.3115(9) 0.4229(12) 0.1919(7)
O35 O 0.2487(11) 0.2956(15) 0.2776(8)
O37 O 0.3312(12) 0.5177(9) 0.3438(7)
O39 O 0.2587(12) 0.3689(9) 0.3786(6)
O41 O 0.3796(14) 0.4316(11) 0.2941(6)
Pd8 Pd 0.03050(9) 0.35822(13) 0.97024(7)
P3 P 0.1554(3) 0.3660(4) 0.9531(3)
O24 O 0.1878(9) 0.3442(13) 0.9089(8)
C43 C 0.0449(14) 0.2328(20) 0.9756(11)
C44 C 0.0213(16) 0.2159(22) 0.9139(12)
H53 H 0.0019 0.1662 0.9072
H54 H 0.0609 0.2420 0.8888
C45 C 0.0957(17) 0.2031(23) 0.9896(13)
H55 H 0.1298 0.2159 0.9593
H56 H 0.0686 0.1525 0.9925
C47 C 0.3213(12) 0.4625(18) 0.9761(10)
H59 H 0.3083 0.4325 0.9429
H60 H 0.3695 0.4781 0.9861
H61 H 0.3163 0.5028 0.9678
C49 C 0.1374(14) 0.4561(21) 0.8815(10)
H65 H 0.1200 0.4895 0.8846
C50 C 0.2137(14) 0.4979(22) 0.8699(12)
H66 H 0.2254 0.4776 0.8381
H67 H 0.2394 0.4980 0.9034
H68 H 0.2262 0.5455 0.8605
C51 C 0.0975(15) 0.4077(23) 0.8406(11)
H69 H 0.0919 0.4315 0.8080
H70 H 0.0520 0.3753 0.8563
H71 H 0.1206 0.3823 0.8287
C68 C 0.0040(12) 0.4801(17) 0.9600(8)
H95 H 0.0496 0.5096 0.9466
N16 N 0.0819(10) 0.3068(14) 0.9869(8)
N18 N 0.1279(10) 0.4210(14) 0.9414(7)
O27 O 0.1652(8) 0.5644(11) 0.9818(6)
O31 O 0.0520(8) 0.6204(14) 0.9607(6)
Zn4 Zn 0.1510(2) 0.7341(2) 0.95443(19)
Pd1 Pd 0.82062(9) 0.30553(9) 0.32780(7)
Pd2 Pd 0.96950(9) 0.32772(9) 0.36309(7)
Pd3 Pd 0.87677(9) 0.21657(9) 0.26794(7)
Pd4 Pd 0.83300(8) 0.58887(8) 0.12524(7)
Pd5 Pd 0.74187(8) 0.42568(9) 0.09160(7)
Pd6 Pd 0.85291(8) 0.53057(8) 0.00772(7)
Zn1 Zn 0.7341(2) 0.1510(2) 0.04557(19)
P1 P 0.8446(3) 0.2106(3) 0.3802(3)
P2 P 0.7373(3) 0.5335(3) 0.0414(2)
O4 O 0.8122(9) 0.1564(9) 0.4244(8)
O5 O 0.6832(7) 0.5451(8) 0.0188(6)
C1 C 0.9551(14) 0.1879(14) 0.3577(11)
H1 H 0.9965 0.2063 0.3325
C2 C 0.9787(16) 0.1946(15) 0.4194(12)
H3 H 0.9981 0.1643 0.4261
H4 H 0.9391 0.1811 0.4445
C3 C 0.9043(17) 0.1074(15) 0.3437(13)
H5 H 0.8702 0.0861 0.3740
H6 H 0.9314 0.0839 0.3408
H7 H 0.8805 0.1030 0.3080
C4 C 0.7255(11) 0.1480(12) 0.3079(9)
H8 H 0.7087 0.1621 0.2741
C5 C 0.6787(12) 0.1412(14) 0.3572(10)
H9 H 0.6917 0.1242 0.3904
H10 H 0.6305 0.1086 0.3472
H11 H 0.6837 0.1865 0.3655
C6 C 0.7261(14) 0.0781(13) 0.2918(12)
H12 H 0.7643 0.0773 0.3116
H13 H 0.7323 0.0767 0.2510
H14 H 0.6822 0.0379 0.3031
C7 C 0.8626(14) 0.3187(16) 0.4518(10)
H15 H 0.8800 0.3695 0.4487
C8 C 0.7863(14) 0.2842(17) 0.4634(12)
H16 H 0.7746 0.2522 0.4952
H17 H 0.7606 0.2586 0.4299
H18 H 0.7738 0.3193 0.4728
C9 C 0.9025(15) 0.3102(18) 0.4927(11)
H19 H 0.9081 0.3396 0.5253
H20 H 0.9480 0.3233 0.4770
H21 H 0.8794 0.2617 0.5046
H27 H 0.6084 0.4015 0.0048
H28 H 0.6316 0.3445 0.0096
C13 C 0.8449(13) 0.6662(12) 0.0123(9)
H29 H 0.8964 0.6936 0.0160
C14 C 0.8174(16) 0.7078(15) 0.0411(11)
H30 H 0.7669 0.6800 0.0438
H31 H 0.8301 0.7497 0.0191
H32 H 0.8372 0.7208 0.0790
C16 C 0.6784(11) 0.5014(11) 0.1502(9)
H36 H 0.6892 0.4886 0.1877
C17 C 0.6091(13) 0.4417(13) 0.1302(11)
H37 H 0.5959 0.4545 0.0947
H38 H 0.5736 0.4317 0.1588
H39 H 0.6133 0.4005 0.1241
C18 C 0.6754(13) 0.5669(12) 0.1574(10)
H40 H 0.7224 0.6065 0.1601
H41 H 0.6497 0.5638 0.1918
H42 H 0.6520 0.5731 0.1248
C19 C 0.8139(11) 0.4291(12) 0.3179(10)
C20 C 0.7869(11) 0.3913(11) 0.2618(9)
C21 C 0.7713(10) 0.4213(11) 0.2190(9)
H43 H 0.7752 0.4653 0.2240
C22 C 0.7481(11) 0.3266(10) 0.1614(9)
C23 C 0.7648(11) 0.2974(11) 0.2070(9)
H44 H 0.7637 0.2546 0.2021
C24 C 0.7371(12) 0.2975(12) 0.1032(10)
C26 C 0.9960(12) 0.4761(12) 0.3733(8)
H45 H 0.9504 0.4600 0.3867
C30 C 0.9322(11) 0.2290(12) 0.1587(9)
C31 C 0.8598(11) 0.2009(11) 0.1500(10)
C32 C 0.9876(12) 0.6861(12) 0.1096(9)
H47 H 0.9812 0.6858 0.0700
C33 C 0.9430(11) 0.6631(11) 0.2004(8)
C34 C 0.8844(11) 0.6236(12) 0.2378(9)
N2 N 0.9181(10) 0.2249(10) 0.3464(8)
N3 N 0.8010(9) 0.2061(10) 0.3194(8)
N4 N 0.8721(10) 0.2931(10) 0.3919(7)
N5 N 0.7475(9) 0.4679(9) 0.0137(7)
N6 N 0.8218(9) 0.5951(9) 0.0399(7)
N7 N 0.7353(9) 0.5135(9) 0.1102(7)
N8 N 0.7502(8) 0.3878(8) 0.1692(7)
N9 N 0.7825(8) 0.3294(9) 0.2576(7)
N11 N 0.9545(9) 0.2401(8) 0.2115(7)
N12 N 0.9324(9) 0.6551(9) 0.1439(7)
O6 O 0.8135(8) 0.4823(9) 0.3229(7)
O7 O 0.8348(8) 0.3992(8) 0.3515(6)
O8 O 0.7346(8) 0.2415(8) 0.0981(6)
O9 O 0.7360(8) 0.3373(7) 0.0647(6)
O10 O 0.8267(7) 0.5818(7) 0.2114(6)
O11 O 0.8898(8) 0.6311(9) 0.2881(6)
O13 O 0.9480(8) 0.5684(11) 0.3726(6)
O14 O 0.8214(7) 0.1926(8) 0.1943(6)
O15 O 0.8353(9) 0.1865(9) 0.1018(7)
O18 O 0.6885(9) 0.1114(8) 0.1414(7)
O19 O 0.7513(11) 0.0469(10) 0.0557(8)
C37 C 0.9784(12) 0.2525(16) 0.1123(10)
H49 H 0.9611 0.2444 0.0748
H96 H 0.8230 0.3717 0.0003
O33 O 0.8232(7) 0.2575(11) 0.0007(6)
Zn3 Zn 0.8490(2) 0.5831(3) 0.37890(19)
O40 O 0.6204(14) 0.0520(8) 0.0393(6)
C10 C 0.7040(12) 0.4328(14) 0.9629(11)
H22 H 0.7006 0.4682 0.9393
C11 C 0.7309(12) 0.3978(13) 0.9279(10)
H23 H 0.7792 0.4302 0.9182
H24 H 0.7034 0.3810 0.8933
H25 H 0.7281 0.3586 0.9488
C12 C 0.6286(12) 0.3777(12) 0.9843(11)
H26 H 0.5993 0.3531 0.9519
C15 C 0.8291(11) 0.6542(12) 0.9483(9)
H33 H 0.7824 0.6149 0.9427
H34 H 0.8628 0.6445 0.9301
H35 H 0.8322 0.6958 0.9314
H52 H 0.9859 0.2285 0.9062
C67 C 0.9612(12) 0.5066(17) 0.9739(8)
C69 C 0.9106(10) 0.3715(14) 0.9794(7)
C70 C 0.8857(11) 0.2953(16) 0.9924(8)
C71 C 0.8702(11) 0.4007(19) 0.9902(8)
C72 C 0.9935(11) 0.5851(19) 0.9771(8)
N24 N 0.9801(9) 0.4128(13) 0.9658(7)
N25 N 0.8952(8) 0.4674(14) 0.9869(6)
O30 O 0.9512(7) 0.6060(12) 0.9946(6)
O32 O 0.9337(8) 0.2791(11) 0.9938(7)
O36 O 0.6688(12) 0.1865(8) 0.9896(7)
O38 O 0.7413(12) 0.1102(8) 0.9548(6)
Pd1_2 Pd 0.69447(9) 0.51509(13) 0.66113(7)
Pd2_2 Pd 0.67228(9) 0.64178(13) 0.69642(7)
Pd3_2 Pd 0.78343(9) 0.66020(13) 0.60127(7)
Pd4_2 Pd 0.41113(8) 0.24413(11) 0.45857(7)
Pd5_2 Pd 0.57432(9) 0.31619(12) 0.42493(7)
Pd6_2 Pd 0.46943(8) 0.32234(11) 0.34105(7)
P1_2 P 0.7894(3) 0.6340(4) 0.7135(3)
P2_2 P 0.4665(3) 0.2038(4) 0.3747(2)
O4_2 O 0.8436(9) 0.6558(13) 0.7577(8)
O5_2 O 0.4549(8) 0.1381(11) 0.3521(6)
C1_2 C 0.8121(14) 0.7672(20) 0.6910(11)
H1_2 H 0.7937 0.7902 0.6658
C2_2 C 0.8054(15) 0.7841(22) 0.7527(12)
H2_2 H 0.7574 0.7715 0.7604
H3_2 H 0.8357 0.8338 0.7594
H4_2 H 0.8189 0.7580 0.7778
C3_2 C 0.8926(15) 0.7969(23) 0.6770(13)
H5_2 H 0.9139 0.7841 0.7073
H6_2 H 0.9161 0.8475 0.6741
H7_2 H 0.8970 0.7775 0.6413
C4_2 C 0.8520(12) 0.5775(16) 0.6412(9)
H8_2 H 0.8379 0.5466 0.6074
C5_2 C 0.8588(14) 0.5375(18) 0.6905(10)
H9_2 H 0.8758 0.5675 0.7237
H10_2 H 0.8914 0.5219 0.6805
H11_2 H 0.8135 0.4972 0.6988
C6_2 C 0.9219(13) 0.6480(19) 0.6251(12)
H12_2 H 0.9227 0.6870 0.6449
H13_2 H 0.9233 0.6556 0.5843
H14_2 H 0.9621 0.6443 0.6364
C7_2 C 0.6813(16) 0.5439(21) 0.7851(10)
H15_2 H 0.6305 0.5105 0.7820
C8_2 C 0.7158(17) 0.5021(22) 0.7967(12)
H16_2 H 0.7478 0.5224 0.8285
H17_2 H 0.7414 0.5020 0.7632
H18_2 H 0.6807 0.4545 0.8061
C9_2 C 0.6898(18) 0.5923(23) 0.8260(11)
H19_2 H 0.6604 0.5685 0.8586
H20_2 H 0.6767 0.6247 0.8103
H21_2 H 0.7383 0.6177 0.8379
C10_2 C 0.5672(14) 0.2712(18) 0.2962(11)
H22_2 H 0.5318 0.2324 0.2726
C11_2 C 0.6022(13) 0.3331(18) 0.2612(10)
H23_2 H 0.5698 0.3490 0.2515
H24_2 H 0.6190 0.3224 0.2266
H25_2 H 0.6414 0.3695 0.2821
C12_2 C 0.6223(12) 0.2509(17) 0.3176(11)
H26_2 H 0.6469 0.2462 0.2852
H27_2 H 0.5985 0.2069 0.3381
H28_2 H 0.6555 0.2871 0.3429
C13_2 C 0.3338(12) 0.1787(18) 0.3456(9)
H29_2 H 0.3064 0.2028 0.3493
C14_2 C 0.2922(15) 0.1096(22) 0.3744(11)
H30_2 H 0.3200 0.0869 0.3771
H31_2 H 0.2503 0.0804 0.3524
H32_2 H 0.2792 0.1164 0.4123
C15_2 C 0.3458(12) 0.1749(16) 0.2816(9)
H33_2 H 0.3851 0.1675 0.2760
H34_2 H 0.3555 0.2183 0.2634
H35_2 H 0.3042 0.1364 0.2647
C16_2 C 0.4986(11) 0.1770(16) 0.4835(9)
H36_2 H 0.5114 0.2006 0.5210
C17_2 C 0.5583(13) 0.1674(18) 0.4635(11)
H37_2 H 0.5455 0.1414 0.4280
H38_2 H 0.5683 0.1419 0.4921
H39_2 H 0.5995 0.2128 0.4574
C18_2 C 0.4331(12) 0.1085(18) 0.4907(10)
H40_2 H 0.3935 0.1159 0.4934
H41_2 H 0.4362 0.0859 0.5251
H42_2 H 0.4269 0.0789 0.4581
C19_2 C 0.5709(12) 0.3848(16) 0.6512(10)
C20_2 C 0.6087(11) 0.3956(16) 0.5951(9)
C21_2 C 0.5787(11) 0.3500(15) 0.5523(9)
H43_2 H 0.5347 0.3099 0.5573
C22_2 C 0.6734(10) 0.4215(15) 0.4947(9)
C23_2 C 0.7026(11) 0.4674(16) 0.5403(9)
H44_2 H 0.7454 0.5091 0.5354
C24_2 C 0.7025(12) 0.4396(17) 0.4365(10)
C25_2 C 0.4546(12) 0.4934(17) 0.6927(8)
C26_2 C 0.5239(12) 0.5199(17) 0.7066(8)
H45_2 H 0.5400 0.4904 0.7200
C27_2 C 0.5391(10) 0.6285(14) 0.6872(7)
C28_2 C 0.5904(11) 0.7047(16) 0.6742(8)
C29_2 C 0.7259(11) 0.7475(16) 0.5543(10)
H46_2 H 0.7167 0.7556 0.5918
C30_2 C 0.7710(12) 0.7032(16) 0.4920(9)
C31_2 C 0.7991(11) 0.6589(16) 0.4833(10)
C32_2 C 0.3139(12) 0.3015(17) 0.4429(9)
H47_2 H 0.3142 0.2954 0.4033
C33_2 C 0.3369(11) 0.2799(16) 0.5337(8)
C34_2 C 0.3764(12) 0.2608(16) 0.5711(9)
C35_2 C 0.4695(16) 0.5993(19) 0.6764(8)
H48_2 H 0.4513 0.6283 0.6663
C36_2 C 0.4084(16) 0.4149(19) 0.6895(8)
N2_2 N 0.7751(10) 0.6932(14) 0.6797(8)
N3_2 N 0.7939(10) 0.5949(13) 0.6527(8)
N4_2 N 0.7069(10) 0.5790(14) 0.7252(7)
N5_2 N 0.5321(9) 0.2796(13) 0.3470(7)
N6_2 N 0.4049(9) 0.2267(13) 0.3732(7)
N7_2 N 0.4865(9) 0.2218(13) 0.4435(7)
N8_2 N 0.6122(8) 0.3624(11) 0.5025(7)
N9_2 N 0.6706(9) 0.4531(12) 0.5909(7)
N10_2 N 0.5673(9) 0.5872(13) 0.7008(7)
N11_2 N 0.7599(8) 0.7144(12) 0.5448(7)
N12_2 N 0.3449(9) 0.2773(13) 0.4772(7)
N13_2 N 0.4278(11) 0.5326(14) 0.6797(6)
O6_2 O 0.5177(9) 0.3312(12) 0.6562(7)
O7_2 O 0.6008(8) 0.4356(11) 0.6848(6)
O8_2 O 0.7585(8) 0.4931(11) 0.4314(6)
O9_2 O 0.6627(7) 0.3987(11) 0.3980(6)
O10_2 O 0.4182(7) 0.2449(10) 0.5447(6)
O11_2 O 0.3689(9) 0.2587(12) 0.6214(6)
O12_2 O 0.3452(10) 0.3940(12) 0.6720(6)
O13_2 O 0.4316(11) 0.3796(14) 0.7059(6)
O14_2 O 0.8074(8) 0.6288(11) 0.5276(6)
O15_2 O 0.8135(9) 0.6488(13) 0.4351(7)
O16_2 O 0.6546(8) 0.7209(11) 0.6728(7)
O17_2 O 0.5657(8) 0.7425(11) 0.6659(6)
O18_2 O 0.8886(8) 0.5771(12) 0.4747(7)
O19_2 O 0.9531(10) 0.7044(15) 0.3890(8)
C37_2 C 0.7475(16) 0.7259(20) 0.4457(10)
H49_2 H 0.7556 0.7167 0.4082
C38_2 C 0.7032(16) 0.7710(19) 0.5080(9)
C39_2 C 0.6589(16) 0.7991(19) 0.5167(10)
N14_2 N 0.7144(12) 0.7599(15) 0.4552(7)
O20_2 O 0.6288(11) 0.8074(13) 0.4724(6)
O21_2 O 0.6488(13) 0.8135(16) 0.5649(7)
C40_2 C 0.3015(17) 0.3139(21) 0.5571(9)
H50_2 H 0.2954 0.3142 0.5967
C41_2 C 0.2799(16) 0.3369(19) 0.4663(8)
C42_2 C 0.2608(16) 0.3764(19) 0.4289(9)
N15_2 N 0.2773(13) 0.3449(16) 0.5228(7)
O22_2 O 0.2449(10) 0.4182(12) 0.4553(6)
Pd7_2 Pd 0.51509(13) 0.69447(16) 0.33887(7)
Pd8_2 Pd 0.64178(13) 0.67228(16) 0.30358(7)
Pd9_2 Pd 0.66020(13) 0.78343(16) 0.39873(7)
Pd10_2 Pd 0.24413(11) 0.41113(14) 0.54143(7)
Pd11_2 Pd 0.31619(12) 0.57432(14) 0.57507(7)
Pd12_2 Pd 0.32234(11) 0.46943(14) 0.65895(7)
Zn2_2 Zn 0.5831(3) 0.8490(4) 0.62110(19)
P3_2 P 0.6340(4) 0.7894(5) 0.2865(3)
P4_2 P 0.2038(4) 0.4665(5) 0.6253(2)
O24_2 O 0.6558(13) 0.8436(16) 0.2423(8)
O25_2 O 0.1381(11) 0.4549(13) 0.6479(6)
C43_2 C 0.7672(20) 0.8121(24) 0.3090(11)
H51_2 H 0.7902 0.7937 0.3342
C44_2 C 0.7841(22) 0.8054(27) 0.2473(12)
H52_2 H 0.7715 0.7574 0.2396
H53_2 H 0.8338 0.8357 0.2406
H54_2 H 0.7580 0.8189 0.2222
C45_2 C 0.7969(23) 0.8926(29) 0.3230(13)
H55_2 H 0.7841 0.9139 0.2927
H56_2 H 0.8475 0.9161 0.3259
H57_2 H 0.7775 0.8970 0.3587
C46_2 C 0.5775(16) 0.8520(19) 0.3588(9)
H58_2 H 0.5466 0.8379 0.3926
C47_2 C 0.5375(18) 0.8588(22) 0.3095(10)
H59_2 H 0.5675 0.8758 0.2763
H60_2 H 0.5219 0.8914 0.3195
H61_2 H 0.4972 0.8135 0.3012
C48_2 C 0.6480(19) 0.9219(24) 0.3749(12)
H62_2 H 0.6870 0.9227 0.3551
H63_2 H 0.6556 0.9233 0.4157
H64_2 H 0.6443 0.9621 0.3636
C49_2 C 0.5439(21) 0.6813(25) 0.2149(10)
H65_2 H 0.5105 0.6305 0.2180
C50_2 C 0.5021(22) 0.7158(26) 0.2033(12)
H66_2 H 0.5224 0.7478 0.1715
H67_2 H 0.5020 0.7414 0.2368
H68_2 H 0.4545 0.6807 0.1939
C51_2 C 0.5923(23) 0.6898(27) 0.1740(11)
H69_2 H 0.5685 0.6604 0.1414
H70_2 H 0.6247 0.6767 0.1897
H71_2 H 0.6177 0.7383 0.1621
C52_2 C 0.2712(18) 0.5672(22) 0.7038(11)
H72_2 H 0.2324 0.5318 0.7274
C53_2 C 0.3331(18) 0.6022(22) 0.7388(10)
H73_2 H 0.3490 0.5698 0.7485
H74_2 H 0.3224 0.6190 0.7734
H75_2 H 0.3695 0.6414 0.7179
C54_2 C 0.2509(17) 0.6223(21) 0.6824(11)
H76_2 H 0.2462 0.6469 0.7148
H77_2 H 0.2069 0.5985 0.6619
H78_2 H 0.2871 0.6555 0.6571
C55_2 C 0.1787(18) 0.3338(22) 0.6544(9)
H79_2 H 0.2028 0.3064 0.6507
C56_2 C 0.1096(22) 0.2922(27) 0.6256(11)
H80_2 H 0.0869 0.3200 0.6229
H81_2 H 0.0804 0.2503 0.6476
H82_2 H 0.1164 0.2792 0.5877
C57_2 C 0.1749(16) 0.3458(19) 0.7184(9)
H83_2 H 0.1675 0.3851 0.7240
H84_2 H 0.2183 0.3555 0.7366
H85_2 H 0.1364 0.3042 0.7353
C58_2 C 0.1770(16) 0.4986(19) 0.5165(9)
H86_2 H 0.2006 0.5114 0.4790
C59_2 C 0.1674(18) 0.5583(22) 0.5365(11)
H87_2 H 0.1414 0.5455 0.5720
H88_2 H 0.1419 0.5683 0.5079
H89_2 H 0.2128 0.5995 0.5426
C60_2 C 0.1085(18) 0.4331(22) 0.5093(10)
H90_2 H 0.1159 0.3935 0.5066
H91_2 H 0.0859 0.4362 0.4749
H92_2 H 0.0789 0.4269 0.5419
C61_2 C 0.3848(16) 0.5709(19) 0.3488(10)
C62_2 C 0.3956(16) 0.6087(19) 0.4049(9)
C63_2 C 0.3500(15) 0.5787(18) 0.4477(9)
H93_2 H 0.3099 0.5347 0.4427
C64_2 C 0.4215(15) 0.6734(19) 0.5053(9)
C65_2 C 0.4674(16) 0.7026(19) 0.4597(9)
H94_2 H 0.5091 0.7454 0.4646
C66_2 C 0.4396(17) 0.7025(21) 0.5635(10)
C67_2 C 0.4934(17) 0.4546(21) 0.3073(8)
C68_2 C 0.5199(17) 0.5239(21) 0.2934(8)
H95_2 H 0.4904 0.5400 0.2800
C69_2 C 0.6285(14) 0.5391(17) 0.3128(7)
C70_2 C 0.7047(16) 0.5904(19) 0.3258(8)
C71_2 C 0.5993(19) 0.4695(22) 0.3236(8)
H96_2 H 0.6283 0.4513 0.3337
C72_2 C 0.4149(19) 0.4084(22) 0.3105(8)
N16_2 N 0.6932(14) 0.7751(17) 0.3203(8)
N17_2 N 0.5949(13) 0.7939(16) 0.3473(8)
N18_2 N 0.5790(14) 0.7069(17) 0.2748(7)
N19_2 N 0.2796(13) 0.5321(16) 0.6530(7)
N20_2 N 0.2267(13) 0.4049(16) 0.6268(7)
N21_2 N 0.2218(13) 0.4865(16) 0.5565(7)
N22_2 N 0.3624(11) 0.6122(14) 0.4975(7)
N23_2 N 0.4531(12) 0.6706(14) 0.4091(7)
N24_2 N 0.5872(13) 0.5673(16) 0.2992(7)
N25_2 N 0.5326(14) 0.4278(16) 0.3203(6)
O27_2 O 0.4356(11) 0.6008(14) 0.3152(6)
O28_2 O 0.4931(11) 0.7585(14) 0.5686(6)
O29_2 O 0.3987(11) 0.6627(14) 0.6020(6)
O30_2 O 0.3940(12) 0.3452(14) 0.3280(6)
O32_2 O 0.7209(11) 0.6546(14) 0.3272(7)
O33_2 O 0.7425(11) 0.5657(13) 0.3341(6)
O34_2 O 0.5771(12) 0.8886(15) 0.5253(7)
O35_2 O 0.7044(15) 0.9531(19) 0.6110(8)
Zn3_2 Zn 0.4169(3) 0.2659(4) 0.71224(19)
O37_2 O 0.4823(9) 0.8135(15) 0.6771(7)
O39_2 O 0.6311(9) 0.8898(15) 0.7119(6)
O41_2 O 0.5684(11) 0.9480(18) 0.6274(6)
Pd2_3 Pd 0.35822(13) 0.03050(9) 0.02976(7)
P1_3 P 0.3660(4) 0.1554(3) 0.0469(3)
O4_3 O 0.3442(13) 0.1878(9) 0.0911(8)
C1_3 C 0.2328(20) 0.0449(14) 0.0244(11)
C2_3 C 0.2159(22) 0.0213(16) 0.0861(12)
H3_3 H 0.1662 0.0019 0.0928
H4_3 H 0.2420 0.0609 0.1112
C3_3 C 0.2031(23) 0.0957(17) 0.0104(13)
H5_3 H 0.2159 0.1298 0.0407
H6_3 H 0.1525 0.0686 0.0075
C5_3 C 0.4625(18) 0.3213(12) 0.0239(10)
H9_3 H 0.4325 0.3083 0.0571
H10_3 H 0.4781 0.3695 0.0139
H11_3 H 0.5028 0.3163 0.0322
C7_3 C 0.4561(21) 0.1374(14) 0.1185(10)
H15_3 H 0.4895 0.1200 0.1154
C8_3 C 0.4979(22) 0.2137(14) 0.1301(12)
H16_3 H 0.4776 0.2254 0.1619
H17_3 H 0.4980 0.2394 0.0966
H18_3 H 0.5455 0.2262 0.1395
C9_3 C 0.4077(23) 0.0975(15) 0.1594(11)
H19_3 H 0.4315 0.0919 0.1920
H20_3 H 0.3753 0.0520 0.1437
H21_3 H 0.3823 0.1206 0.1713
C26_3 C 0.4801(17) 0.0040(12) 0.0400(8)
H45_3 H 0.5096 0.0496 0.0534
N2_3 N 0.3068(14) 0.0819(10) 0.0131(8)
N4_3 N 0.4210(14) 0.1279(10) 0.0586(7)
O7_3 O 0.5644(11) 0.1652(8) 0.0182(6)
Pd1_3 Pd 0.48491(13) 0.17938(9) 0.99447(7)
Pd3_3 Pd 0.33980(13) 0.12323(9) 0.93461(7)
Pd4_3 Pd 0.75587(11) 0.16700(8) 0.79191(7)
Pd5_3 Pd 0.68381(12) 0.25813(8) 0.75827(7)
Pd6_3 Pd 0.67766(11) 0.14709(8) 0.67439(7)
P2_3 P 0.7962(4) 0.2627(3) 0.7081(2)
O5_3 O 0.8619(11) 0.3168(7) 0.6855(6)
H1_3 H 0.2098 0.0035 0.9992
H7_3 H 0.2225 0.1195 0.9747
C4_3 C 0.4225(16) 0.2745(11) 0.9746(9)
H8_3 H 0.4534 0.2913 0.9408
C6_3 C 0.3520(19) 0.2739(14) 0.9585(12)
H12_3 H 0.3130 0.2357 0.9783
H13_3 H 0.3444 0.2677 0.9177
H14_3 H 0.3557 0.3178 0.9698
C10_3 C 0.7288(18) 0.2960(12) 0.6296(11)
H22_3 H 0.7676 0.2994 0.6060
C11_3 C 0.6669(18) 0.2691(12) 0.5946(10)
H23_3 H 0.6510 0.2208 0.5849
H24_3 H 0.6776 0.2966 0.5600
H25_3 H 0.6305 0.2719 0.6155
C12_3 C 0.7491(17) 0.3714(12) 0.6510(11)
H26_3 H 0.7538 0.4007 0.6186
H27_3 H 0.7931 0.3916 0.6715
H28_3 H 0.7129 0.3684 0.6763
C13_3 C 0.8213(18) 0.1551(13) 0.6790(9)
H29_3 H 0.7972 0.1036 0.6827
C14_3 C 0.8904(22) 0.1826(16) 0.7078(11)
H30_3 H 0.9131 0.2331 0.7105
H31_3 H 0.9196 0.1699 0.6858
H32_3 H 0.8836 0.1628 0.7457
C15_3 C 0.8251(16) 0.1709(11) 0.6150(9)
H33_3 H 0.8325 0.2176 0.6094
H34_3 H 0.7817 0.1372 0.5968
H35_3 H 0.8636 0.1678 0.5981
C16_3 C 0.8230(16) 0.3216(11) 0.8169(9)
H36_3 H 0.7994 0.3108 0.8544
C17_3 C 0.8326(18) 0.3909(13) 0.7969(11)
H37_3 H 0.8586 0.4041 0.7614
H38_3 H 0.8581 0.4264 0.8255
H39_3 H 0.7872 0.3867 0.7908
C18_3 C 0.8915(18) 0.3246(13) 0.8241(10)
H40_3 H 0.8841 0.2776 0.8268
H41_3 H 0.9141 0.3503 0.8585
H42_3 H 0.9211 0.3480 0.7915
C19_3 C 0.6152(16) 0.1861(11) 0.9846(10)
C20_3 C 0.6044(16) 0.2131(11) 0.9285(9)
C21_3 C 0.6500(15) 0.2287(10) 0.8857(9)
H43_3 H 0.6901 0.2248 0.8907
C22_3 C 0.5785(15) 0.2519(11) 0.8281(9)
C23_3 C 0.5326(16) 0.2352(11) 0.8737(9)
H44_3 H 0.4909 0.2363 0.8688
C24_3 C 0.5604(17) 0.2629(12) 0.7699(10)
C30_3 C 0.2968(16) 0.0678(11) 0.8254(9)
C31_3 C 0.3411(16) 0.1402(11) 0.8167(10)
C32_3 C 0.6985(17) 0.0124(12) 0.7763(9)
H47_3 H 0.7046 0.0188 0.7367
C33_3 C 0.7201(16) 0.0570(11) 0.8671(8)
C34_3 C 0.7392(16) 0.1156(11) 0.9045(9)
N3_3 N 0.4051(13) 0.1990(9) 0.9861(8)
N5_3 N 0.7204(13) 0.2525(9) 0.6804(7)
N6_3 N 0.7733(13) 0.1782(9) 0.7066(7)
N7_3 N 0.7782(13) 0.2647(9) 0.7769(7)
N8_3 N 0.6376(11) 0.2498(8) 0.8359(7)
N9_3 N 0.5469(12) 0.2175(8) 0.9243(7)
N11_3 N 0.2856(12) 0.0455(9) 0.8782(7)
N12_3 N 0.7227(13) 0.0676(9) 0.8106(7)
O8_3 O 0.5069(11) 0.2654(8) 0.7648(6)
O9_3 O 0.6013(11) 0.2640(8) 0.7314(6)
O10_3 O 0.7551(10) 0.1733(7) 0.8781(6)
O14_3 O 0.3712(11) 0.1786(7) 0.8610(6)
O15_3 O 0.3512(13) 0.1647(9) 0.7685(7)
O18_3 O 0.4229(12) 0.3115(9) 0.8081(7)
O19_3 O 0.2956(15) 0.2487(11) 0.7224(8)
C37_3 C 0.2741(20) 0.0216(12) 0.7790(10)
H49_3 H 0.2833 0.0389 0.7415
H52_3 H 0.2426 0.0141 0.5729
C67_3 C 0.5454(21) 0.0388(12) 0.6406(8)
C69_3 C 0.4609(17) 0.0894(10) 0.6461(7)
C70_3 C 0.4096(19) 0.1143(11) 0.6591(8)
C71_3 C 0.5305(22) 0.1298(11) 0.6569(8)
H96_3 H 0.5487 0.1770 0.6670
C72_3 C 0.5916(22) 0.0065(11) 0.6438(8)
N24_3 N 0.4327(16) 0.0199(9) 0.6325(7)
N25_3 N 0.5722(16) 0.1048(8) 0.6536(6)
O30_3 O 0.6548(14) 0.0488(7) 0.6613(6)
O32_3 O 0.3454(14) 0.0663(8) 0.6605(7)
O33_3 O 0.4343(13) 0.1768(7) 0.6674(6)
H2_3 H 0.2285 0.9859 0.0938
C25_3 C 0.5066(17) 0.9612(12) 0.0261(8)
C27_3 C 0.3715(14) 0.9106(10) 0.0206(7)
C28_3 C 0.2953(16) 0.8857(11) 0.0076(8)
C35_3 C 0.4007(19) 0.8702(11) 0.0098(8)
C36_3 C 0.5851(19) 0.9935(11) 0.0229(8)
N10_3 N 0.4128(13) 0.9801(9) 0.0342(7)
N13_3 N 0.4674(14) 0.8952(8) 0.0131(6)
O12_3 O 0.6060(12) 0.9512(7) 0.0054(6)
O16_3 O 0.2791(11) 0.9337(8) 0.0062(7)
C52_3 C 0.4328(22) 0.7040(12) 0.0371(11)
H72_3 H 0.4682 0.7006 0.0607
C53_3 C 0.3978(22) 0.7309(12) 0.0721(10)
H73_3 H 0.4302 0.7792 0.0818
H74_3 H 0.3810 0.7034 0.1067
H75_3 H 0.3586 0.7281 0.0512
C54_3 C 0.3777(21) 0.6286(12) 0.0157(11)
H76_3 H 0.3531 0.5993 0.0481
C57_3 C 0.6542(19) 0.8291(11) 0.0517(9)
H83_3 H 0.6149 0.7824 0.0573
H84_3 H 0.6445 0.8628 0.0699
H85_3 H 0.6958 0.8322 0.0686
C29_3 C 0.2525(16) 0.9784(12) 0.8877(10)
H46_3 H 0.2444 0.9611 0.9252
H48_3 H 0.3717 0.8230 0.9997
O17_3 O 0.2575(11) 0.8232(7) 0.9993(6)
C38_3 C 0.2290(19) 0.9322(11) 0.8413(9)
C39_3 C 0.2009(19) 0.8598(11) 0.8500(10)
N14_3 N 0.2401(15) 0.9545(9) 0.7885(7)
O20_3 O 0.1926(13) 0.8214(7) 0.8057(6)
O21_3 O 0.1865(16) 0.8353(9) 0.8982(7)
C40_3 C 0.6861(21) 0.9876(12) 0.8904(9)
H50_3 H 0.6858 0.9812 0.9300
C41_3 C 0.6631(19) 0.9430(11) 0.7996(8)
C42_3 C 0.6236(19) 0.8844(11) 0.7622(9)
N15_3 N 0.6551(16) 0.9324(9) 0.8561(7)
O22_3 O 0.5818(12) 0.8267(7) 0.7886(6)
Pd7_3 Pd 0.30553(16) 0.82062(9) 0.67220(7)
Pd8_3 Pd 0.32772(16) 0.96950(9) 0.63691(7)
Pd9_3 Pd 0.21657(16) 0.87677(9) 0.73206(7)
Pd10_3 Pd 0.58887(14) 0.83300(8) 0.87476(7)
Pd11_3 Pd 0.42568(14) 0.74187(8) 0.90840(7)
Pd12_3 Pd 0.53057(14) 0.85291(8) 0.99228(7)
P3_3 P 0.2106(5) 0.8446(3) 0.6198(3)
P4_3 P 0.5335(5) 0.7373(3) 0.9586(2)
O24_3 O 0.1564(16) 0.8122(9) 0.5756(8)
O25_3 O 0.5451(13) 0.6832(7) 0.9812(6)
C43_3 C 0.1879(24) 0.9551(14) 0.6423(11)
H51_3 H 0.2063 0.9965 0.6675
C44_3 C 0.1946(27) 0.9787(16) 0.5806(12)
H53_3 H 0.1643 0.9981 0.5739
H54_3 H 0.1811 0.9391 0.5555
C45_3 C 0.1074(29) 0.9043(17) 0.6563(13)
H55_3 H 0.0861 0.8702 0.6260
H56_3 H 0.0839 0.9314 0.6592
H57_3 H 0.1030 0.8805 0.6920
C46_3 C 0.1480(19) 0.7255(11) 0.6921(9)
H58_3 H 0.1621 0.7087 0.7259
C47_3 C 0.1412(22) 0.6787(12) 0.6428(10)
H59_3 H 0.1242 0.6917 0.6096
H60_3 H 0.1086 0.6305 0.6528
H61_3 H 0.1865 0.6837 0.6345
C48_3 C 0.0781(24) 0.7261(14) 0.7082(12)
H62_3 H 0.0773 0.7643 0.6884
H63_3 H 0.0767 0.7323 0.7490
H64_3 H 0.0379 0.6822 0.6969
C49_3 C 0.3187(25) 0.8626(14) 0.5482(10)
H65_3 H 0.3695 0.8800 0.5513
C50_3 C 0.2842(26) 0.7863(14) 0.5366(12)
H66_3 H 0.2522 0.7746 0.5048
H67_3 H 0.2586 0.7606 0.5701
H68_3 H 0.3193 0.7738 0.5272
C51_3 C 0.3102(27) 0.9025(15) 0.5073(11)
H69_3 H 0.3396 0.9081 0.4747
H70_3 H 0.3233 0.9480 0.5230
H71_3 H 0.2617 0.8794 0.4954
H77_3 H 0.4015 0.6084 0.9952
H78_3 H 0.3445 0.6316 0.9904
C55_3 C 0.6662(22) 0.8449(13) 0.9877(9)
H79_3 H 0.6936 0.8964 0.9840
C56_3 C 0.7078(27) 0.8174(16) 0.9589(11)
H80_3 H 0.6800 0.7669 0.9562
H81_3 H 0.7497 0.8301 0.9809
H82_3 H 0.7208 0.8372 0.9210
C58_3 C 0.5014(19) 0.6784(11) 0.8498(9)
H86_3 H 0.4886 0.6892 0.8123
C59_3 C 0.4417(22) 0.6091(13) 0.8698(11)
H87_3 H 0.4545 0.5959 0.9053
H88_3 H 0.4317 0.5736 0.8412
H89_3 H 0.4005 0.6133 0.8759
C60_3 C 0.5669(22) 0.6754(13) 0.8426(10)
H90_3 H 0.6065 0.7224 0.8399
H91_3 H 0.5638 0.6497 0.8082
H92_3 H 0.5731 0.6520 0.8752
C61_3 C 0.4291(19) 0.8139(11) 0.6821(10)
C62_3 C 0.3913(19) 0.7869(11) 0.7382(9)
C63_3 C 0.4213(18) 0.7713(10) 0.7810(9)
H93_3 H 0.4653 0.7752 0.7760
C64_3 C 0.3266(19) 0.7481(11) 0.8386(9)
C65_3 C 0.2974(19) 0.7648(11) 0.7930(9)
H94_3 H 0.2546 0.7637 0.7979
C66_3 C 0.2975(21) 0.7371(12) 0.8968(10)
C68_3 C 0.4761(21) 0.9960(12) 0.6267(8)
H95_3 H 0.4600 0.9504 0.6133
N16_3 N 0.2249(17) 0.9181(10) 0.6536(8)
N17_3 N 0.2061(16) 0.8010(9) 0.6806(8)
N18_3 N 0.2931(17) 0.8721(10) 0.6081(7)
N19_3 N 0.4679(16) 0.7475(9) 0.9863(7)
N20_3 N 0.5951(16) 0.8218(9) 0.9601(7)
N21_3 N 0.5135(16) 0.7353(9) 0.8898(7)
N22_3 N 0.3878(14) 0.7502(8) 0.8308(7)
N23_3 N 0.3294(14) 0.7825(8) 0.7424(7)
O27_3 O 0.3992(14) 0.8348(8) 0.6485(6)
O28_3 O 0.2415(14) 0.7346(8) 0.9019(6)
O29_3 O 0.3373(14) 0.7360(8) 0.9353(6)
O34_3 O 0.1114(15) 0.6885(9) 0.8586(7)
O35_3 O 0.0469(19) 0.7513(11) 0.9443(8)
loop_
_geom_bond_atom_site_label_1
_geom_bond_atom_site_label_2
_geom_bond_site_symmetry_1
_geom_bond_site_symmetry_2
N1 O1 1_555 1_555
O2 N1 1_555 1_555
O3 N1 1_555 1_555
N1_2 O1_2 1_555 1_555
O2_2 N1_2 1_555 1_555
O3_2 N1_2 1_555 1_555
N1_3 O1_3 1_555 1_555
O2_3 N1_3 1_555 1_555
O3_3 N1_3 1_555 1_555
N1_4 O1_4 1_555 1_555
O2_4 N1_4 1_555 1_555
O3_4 N1_4 1_555 1_555
N1_5 O1_5 1_555 1_555
O2_5 N1_5 1_555 1_555
O3_5 N1_5 1_555 1_555
N1_6 O1_6 1_555 1_555
O2_6 N1_6 1_555 1_555
O3_6 N1_6 1_555 1_555
C27 C28 1_555 1_555
C28 O16 1_555 1_555
C29 H46 1_555 1_555
C35 C27 1_555 1_555
H48 C35 1_555 1_555
C36 C25 1_555 1_555
N13 C25 1_555 1_555
O12 C36 1_555 1_555
O17 C28 1_555 1_555
C38 C29 1_555 1_555
C39 C38 1_555 1_555
O20 C39 1_555 1_555
O21 C39 1_555 1_555
H50 C40 1_555 1_555
C42 C41 1_555 1_555
N15 C40 1_555 1_555
O22 C42 1_555 1_555
O23 C42 1_555 1_555
Pd7 N17 1_555 1_555
Pd9 N14 1_555 1_555
Pd10 N15 1_555 1_555
Pd11 N19 1_555 1_555
Pd12 N13 1_555 1_555
Zn2 O17 1_555 1_555
P4 O25 1_555 1_555
C46 H58 1_555 1_555
C48 C46 1_555 1_555
H62 C48 1_555 1_555
H63 C48 1_555 1_555
H64 C48 1_555 1_555
C52 H72 1_555 1_555
C53 C52 1_555 1_555
H73 C53 1_555 1_555
H74 C53 1_555 1_555
H75 C53 1_555 1_555
C54 C52 1_555 1_555
H76 C54 1_555 1_555
H77 C54 1_555 1_555
H78 C54 1_555 1_555
C55 H79 1_555 1_555
C56 C55 1_555 1_555
H80 C56 1_555 1_555
H81 C56 1_555 1_555
H82 C56 1_555 1_555
C57 C55 1_555 1_555
H83 C57 1_555 1_555
H84 C57 1_555 1_555
H85 C57 1_555 1_555
C58 H86 1_555 1_555
C59 C58 1_555 1_555
H87 C59 1_555 1_555
H88 C59 1_555 1_555
H89 C59 1_555 1_555
C60 C58 1_555 1_555
H90 C60 1_555 1_555
H91 C60 1_555 1_555
H92 C60 1_555 1_555
C61 C62 1_555 1_555
C62 C63 1_555 1_555
C63 H93 1_555 1_555
C64 C65 1_555 1_555
C65 H94 1_555 1_555
C66 C64 1_555 1_555
N17 Pd9 1_555 1_555
N19 Pd12 1_555 1_555
N20 Pd10 1_555 1_555
N21 Pd10 1_555 1_555
N22 Pd11 1_555 1_555
N23 Pd7 1_555 1_555
O26 C61 1_555 1_555
O28 Zn2 1_555 1_555
O29 Pd11 1_555 1_555
O34 Zn2 1_555 1_555
O35 Zn2 1_555 1_555
O37 Zn2 1_555 1_555
O39 Zn2 1_555 1_555
O41 Zn2 1_555 1_555
C27 N10 1_555 1_555
C35 N13 1_555 1_555
O12 Pd12 1_555 1_555
C38 N14 1_555 1_555
O20 Pd9 1_555 1_555
O21 Zn2 1_555 1_555
C41 N15 1_555 1_555
O22 Pd10 1_555 1_555
Pd11 N21 1_555 1_555
Pd12 N20 1_555 1_555
P4 N19 1_555 1_555
P4 N20 1_555 1_555
P4 N21 1_555 1_555
C46 N17 1_555 1_555
C52 N19 1_555 1_555
C55 N20 1_555 1_555
C58 N21 1_555 1_555
C62 N23 1_555 1_555
C63 N22 1_555 1_555
C64 N22 1_555 1_555
C65 N23 1_555 1_555
C66 O28 1_555 1_555
C66 O29 1_555 1_555
Pd8 N16 1_555 1_555
P3 O24 1_555 1_555
C44 C43 1_555 1_555
H53 C44 1_555 1_555
H54 C44 1_555 1_555
C45 C43 1_555 1_555
H55 C45 1_555 1_555
H56 C45 1_555 1_555
H59 C47 1_555 1_555
H60 C47 1_555 1_555
H61 C47 1_555 1_555
C49 H65 1_555 1_555
C50 C49 1_555 1_555
H66 C50 1_555 1_555
H67 C50 1_555 1_555
H68 C50 1_555 1_555
C51 C49 1_555 1_555
H69 C51 1_555 1_555
H70 C51 1_555 1_555
H71 C51 1_555 1_555
C68 H95 1_555 1_555
Pd8 N18 1_555 1_555
P3 N16 1_555 1_555
P3 N18 1_555 1_555
C43 N16 1_555 1_555
C49 N18 1_555 1_555
O31 Zn4 1_555 1_555
Pd1 N3 1_555 1_555
Pd2 N2 1_555 1_555
Pd3 N2 1_555 1_555
Pd4 N6 1_555 1_555
Pd5 N5 1_555 1_555
Pd6 N5 1_555 1_555
Zn1 O8 1_555 1_555
P1 O4 1_555 1_555
P2 O5 1_555 1_555
C1 H1 1_555 1_555
C2 C1 1_555 1_555
H3 C2 1_555 1_555
H4 C2 1_555 1_555
C3 C1 1_555 1_555
H5 C3 1_555 1_555
H6 C3 1_555 1_555
H7 C3 1_555 1_555
C4 H8 1_555 1_555
C5 C4 1_555 1_555
H9 C5 1_555 1_555
H10 C5 1_555 1_555
H11 C5 1_555 1_555
C6 C4 1_555 1_555
H12 C6 1_555 1_555
H13 C6 1_555 1_555
H14 C6 1_555 1_555
C7 H15 1_555 1_555
C8 C7 1_555 1_555
H16 C8 1_555 1_555
H17 C8 1_555 1_555
H18 C8 1_555 1_555
C9 C7 1_555 1_555
H19 C9 1_555 1_555
H20 C9 1_555 1_555
H21 C9 1_555 1_555
C13 H29 1_555 1_555
C14 C13 1_555 1_555
H30 C14 1_555 1_555
H31 C14 1_555 1_555
H32 C14 1_555 1_555
C16 H36 1_555 1_555
C17 C16 1_555 1_555
H37 C17 1_555 1_555
H38 C17 1_555 1_555
H39 C17 1_555 1_555
C18 C16 1_555 1_555
H40 C18 1_555 1_555
H41 C18 1_555 1_555
H42 C18 1_555 1_555
C19 C20 1_555 1_555
C20 C21 1_555 1_555
C21 H43 1_555 1_555
C22 C23 1_555 1_555
C23 H44 1_555 1_555
C24 C22 1_555 1_555
C26 H45 1_555 1_555
C30 C31 1_555 1_555
C31 O14 1_555 1_555
C32 H47 1_555 1_555
C33 C34 1_555 1_555
C34 O10 1_555 1_555
N2 P1 1_555 1_555
N3 Pd3 1_555 1_555
N4 Pd1 1_555 1_555
N5 P2 1_555 1_555
N6 Pd6 1_555 1_555
N7 Pd4 1_555 1_555
N8 Pd5 1_555 1_555
N9 Pd1 1_555 1_555
N11 Pd3 1_555 1_555
N12 Pd4 1_555 1_555
O6 C19 1_555 1_555
O7 Pd1 1_555 1_555
O8 C24 1_555 1_555
O9 Pd5 1_555 1_555
O10 Pd4 1_555 1_555
O11 C34 1_555 1_555
O14 Pd3 1_555 1_555
O15 Zn1 1_555 1_555
O18 Zn1 1_555 1_555
O19 Zn1 1_555 1_555
C37 C30 1_555 1_555
H49 C37 1_555 1_555
O33 Zn1 1_555 1_555
Zn3 O6 1_555 1_555
O40 Zn1 1_555 1_555
Pd2 N4 1_555 1_555
Pd5 N7 1_555 1_555
P1 N3 1_555 1_555
P1 N4 1_555 1_555
P2 N6 1_555 1_555
P2 N7 1_555 1_555
C1 N2 1_555 1_555
C4 N3 1_555 1_555
C7 N4 1_555 1_555
C13 N6 1_555 1_555
C16 N7 1_555 1_555
C19 O7 1_555 1_555
C20 N9 1_555 1_555
C21 N8 1_555 1_555
C22 N8 1_555 1_555
C23 N9 1_555 1_555
C24 O9 1_555 1_555
C30 N11 1_555 1_555
C31 O15 1_555 1_555
C32 N12 1_555 1_555
C33 N12 1_555 1_555
O11 Zn3 1_555 1_555
O13 Zn3 1_555 1_555
C10 H22 1_555 1_555
C11 C10 1_555 1_555
H23 C11 1_555 1_555
H24 C11 1_555 1_555
H25 C11 1_555 1_555
C12 C10 1_555 1_555
H26 C12 1_555 1_555
H33 C15 1_555 1_555
H34 C15 1_555 1_555
H35 C15 1_555 1_555
C69 C70 1_555 1_555
C70 O32 1_555 1_555
C71 C69 1_555 1_555
C72 C67 1_555 1_555
C67 N25 1_555 1_555
C69 N24 1_555 1_555
C71 N25 1_555 1_555
C72 O30 1_555 1_555
Pd1_2 N3_2 1_555 1_555
Pd2_2 N2_2 1_555 1_555
Pd3_2 N2_2 1_555 1_555
Pd4_2 N6_2 1_555 1_555
Pd5_2 N5_2 1_555 1_555
Pd6_2 N5_2 1_555 1_555
Zn3 O8_2 1_555 1_555
P1_2 O4_2 1_555 1_555
P2_2 O5_2 1_555 1_555
C1_2 H1_2 1_555 1_555
C2_2 C1_2 1_555 1_555
H2_2 C2_2 1_555 1_555
H3_2 C2_2 1_555 1_555
H4_2 C2_2 1_555 1_555
C3_2 C1_2 1_555 1_555
H5_2 C3_2 1_555 1_555
H6_2 C3_2 1_555 1_555
H7_2 C3_2 1_555 1_555
C4_2 H8_2 1_555 1_555
C5_2 C4_2 1_555 1_555
H9_2 C5_2 1_555 1_555
H10_2 C5_2 1_555 1_555
H11_2 C5_2 1_555 1_555
C6_2 C4_2 1_555 1_555
H12_2 C6_2 1_555 1_555
H13_2 C6_2 1_555 1_555
H14_2 C6_2 1_555 1_555
C7_2 H15_2 1_555 1_555
C8_2 C7_2 1_555 1_555
H16_2 C8_2 1_555 1_555
H17_2 C8_2 1_555 1_555
H18_2 C8_2 1_555 1_555
C9_2 C7_2 1_555 1_555
H19_2 C9_2 1_555 1_555
H20_2 C9_2 1_555 1_555
H21_2 C9_2 1_555 1_555
C10_2 H22_2 1_555 1_555
C11_2 C10_2 1_555 1_555
H23_2 C11_2 1_555 1_555
H24_2 C11_2 1_555 1_555
H25_2 C11_2 1_555 1_555
C12_2 C10_2 1_555 1_555
H26_2 C12_2 1_555 1_555
H27_2 C12_2 1_555 1_555
H28_2 C12_2 1_555 1_555
C13_2 H29_2 1_555 1_555
C14_2 C13_2 1_555 1_555
H30_2 C14_2 1_555 1_555
H31_2 C14_2 1_555 1_555
H32_2 C14_2 1_555 1_555
C15_2 C13_2 1_555 1_555
H33_2 C15_2 1_555 1_555
H34_2 C15_2 1_555 1_555
H35_2 C15_2 1_555 1_555
C16_2 H36_2 1_555 1_555
C17_2 C16_2 1_555 1_555
H37_2 C17_2 1_555 1_555
H38_2 C17_2 1_555 1_555
H39_2 C17_2 1_555 1_555
C18_2 C16_2 1_555 1_555
H40_2 C18_2 1_555 1_555
H41_2 C18_2 1_555 1_555
H42_2 C18_2 1_555 1_555
C19_2 C20_2 1_555 1_555
C20_2 C21_2 1_555 1_555
C21_2 H43_2 1_555 1_555
C22_2 C23_2 1_555 1_555
C23_2 H44_2 1_555 1_555
C24_2 C22_2 1_555 1_555
C25_2 C26_2 1_555 1_555
C26_2 H45_2 1_555 1_555
C27_2 C28_2 1_555 1_555
C28_2 O16_2 1_555 1_555
C29_2 H46_2 1_555 1_555
C30_2 C31_2 1_555 1_555
C31_2 O14_2 1_555 1_555
C32_2 H47_2 1_555 1_555
C33_2 C34_2 1_555 1_555
C34_2 O10_2 1_555 1_555
C35_2 C27_2 1_555 1_555
H48_2 C35_2 1_555 1_555
C36_2 C25_2 1_555 1_555
N2_2 P1_2 1_555 1_555
N3_2 Pd3_2 1_555 1_555
N4_2 Pd1_2 1_555 1_555
N5_2 P2_2 1_555 1_555
N6_2 Pd6_2 1_555 1_555
N7_2 Pd4_2 1_555 1_555
N8_2 Pd5_2 1_555 1_555
N9_2 Pd1_2 1_555 1_555
N10_2 Pd2_2 1_555 1_555
N11_2 Pd3_2 1_555 1_555
N12_2 Pd4_2 1_555 1_555
N13_2 C25_2 1_555 1_555
O6_2 C19_2 1_555 1_555
O7_2 Pd1_2 1_555 1_555
O8_2 C24_2 1_555 1_555
O9_2 Pd5_2 1_555 1_555
O10_2 Pd4_2 1_555 1_555
O11_2 C34_2 1_555 1_555
O12_2 C36_2 1_555 1_555
O13_2 C36_2 1_555 1_555
O14_2 Pd3_2 1_555 1_555
O15_2 Zn3 1_555 1_555
O16_2 Pd2_2 1_555 1_555
O17_2 C28_2 1_555 1_555
O18_2 Zn3 1_555 1_555
O19_2 Zn3 1_555 1_555
C37_2 C30_2 1_555 1_555
H49_2 C37_2 1_555 1_555
C38_2 C29_2 1_555 1_555
C39_2 C38_2 1_555 1_555
N14_2 C37_2 1_555 1_555
O20_2 C39_2 1_555 1_555
O21_2 C39_2 1_555 1_555
C40_2 C33_2 1_555 1_555
H50_2 C40_2 1_555 1_555
C41_2 C32_2 1_555 1_555
C42_2 C41_2 1_555 1_555
N15_2 C40_2 1_555 1_555
O22_2 C42_2 1_555 1_555
O39 C42_2 1_555 1_555
Pd7_2 N17_2 1_555 1_555
Pd8_2 N16_2 1_555 1_555
Pd9_2 N14_2 1_555 1_555
Pd10_2 N15_2 1_555 1_555
Pd11_2 N19_2 1_555 1_555
Pd12_2 N13_2 1_555 1_555
Zn2_2 O17_2 1_555 1_555
P3_2 O24_2 1_555 1_555
P4_2 O25_2 1_555 1_555
C43_2 H51_2 1_555 1_555
C44_2 C43_2 1_555 1_555
H52_2 C44_2 1_555 1_555
H53_2 C44_2 1_555 1_555
H54_2 C44_2 1_555 1_555
C45_2 C43_2 1_555 1_555
H55_2 C45_2 1_555 1_555
H56_2 C45_2 1_555 1_555
H57_2 C45_2 1_555 1_555
C46_2 H58_2 1_555 1_555
C47_2 C46_2 1_555 1_555
H59_2 C47_2 1_555 1_555
H60_2 C47_2 1_555 1_555
H61_2 C47_2 1_555 1_555
C48_2 C46_2 1_555 1_555
H62_2 C48_2 1_555 1_555
H63_2 C48_2 1_555 1_555
H64_2 C48_2 1_555 1_555
C49_2 H65_2 1_555 1_555
C50_2 C49_2 1_555 1_555
H66_2 C50_2 1_555 1_555
H67_2 C50_2 1_555 1_555
H68_2 C50_2 1_555 1_555
C51_2 C49_2 1_555 1_555
H69_2 C51_2 1_555 1_555
H70_2 C51_2 1_555 1_555
H71_2 C51_2 1_555 1_555
C52_2 H72_2 1_555 1_555
C53_2 C52_2 1_555 1_555
H73_2 C53_2 1_555 1_555
H74_2 C53_2 1_555 1_555
H75_2 C53_2 1_555 1_555
C54_2 C52_2 1_555 1_555
H76_2 C54_2 1_555 1_555
H77_2 C54_2 1_555 1_555
H78_2 C54_2 1_555 1_555
C55_2 H79_2 1_555 1_555
C56_2 C55_2 1_555 1_555
H80_2 C56_2 1_555 1_555
H81_2 C56_2 1_555 1_555
H82_2 C56_2 1_555 1_555
C57_2 C55_2 1_555 1_555
H83_2 C57_2 1_555 1_555
H84_2 C57_2 1_555 1_555
H85_2 C57_2 1_555 1_555
C58_2 H86_2 1_555 1_555
C59_2 C58_2 1_555 1_555
H87_2 C59_2 1_555 1_555
H88_2 C59_2 1_555 1_555
H89_2 C59_2 1_555 1_555
C60_2 C58_2 1_555 1_555
H90_2 C60_2 1_555 1_555
H91_2 C60_2 1_555 1_555
H92_2 C60_2 1_555 1_555
C61_2 C62_2 1_555 1_555
C62_2 C63_2 1_555 1_555
C63_2 H93_2 1_555 1_555
C64_2 C65_2 1_555 1_555
C65_2 H94_2 1_555 1_555
C66_2 C64_2 1_555 1_555
C67_2 C68_2 1_555 1_555
C68_2 H95_2 1_555 1_555
C69_2 C70_2 1_555 1_555
C70_2 O32_2 1_555 1_555
C71_2 C69_2 1_555 1_555
H96_2 C71_2 1_555 1_555
C72_2 C67_2 1_555 1_555
N16_2 Pd9_2 1_555 1_555
N17_2 Pd9_2 1_555 1_555
N18_2 Pd7_2 1_555 1_555
N19_2 Pd12_2 1_555 1_555
N20_2 Pd10_2 1_555 1_555
N21_2 Pd10_2 1_555 1_555
N22_2 Pd11_2 1_555 1_555
N23_2 Pd7_2 1_555 1_555
N24_2 Pd8_2 1_555 1_555
N25_2 Pd6_2 1_555 1_555
O37 C61_2 1_555 1_555
O27_2 Pd7_2 1_555 1_555
O28_2 Zn2_2 1_555 1_555
O29_2 Pd11_2 1_555 1_555
O30_2 Pd6_2 1_555 1_555
O41 C72_2 1_555 1_555
O32_2 Pd8_2 1_555 1_555
O33_2 Zn3 1_555 1_555
O34_2 Zn2_2 1_555 1_555
O35_2 Zn2_2 1_555 1_555
Zn3_2 O6_2 1_555 1_555
O37_2 Zn2_2 1_555 1_555
O39_2 Zn2_2 1_555 1_555
O41_2 Zn2_2 1_555 1_555
Pd2_2 N4_2 1_555 1_555
Pd5_2 N7_2 1_555 1_555
P1_2 N3_2 1_555 1_555
P1_2 N4_2 1_555 1_555
P2_2 N6_2 1_555 1_555
P2_2 N7_2 1_555 1_555
C1_2 N2_2 1_555 1_555
C4_2 N3_2 1_555 1_555
C7_2 N4_2 1_555 1_555
C10_2 N5_2 1_555 1_555
C13_2 N6_2 1_555 1_555
C16_2 N7_2 1_555 1_555
C19_2 O7_2 1_555 1_555
C20_2 N9_2 1_555 1_555
C21_2 N8_2 1_555 1_555
C22_2 N8_2 1_555 1_555
C23_2 N9_2 1_555 1_555
C24_2 O9_2 1_555 1_555
C26_2 N10_2 1_555 1_555
C27_2 N10_2 1_555 1_555
C29_2 N11_2 1_555 1_555
C30_2 N11_2 1_555 1_555
C31_2 O15_2 1_555 1_555
C32_2 N12_2 1_555 1_555
C33_2 N12_2 1_555 1_555
C35_2 N13_2 1_555 1_555
O11_2 Zn3_2 1_555 1_555
O12_2 Pd12_2 1_555 1_555
O13_2 Zn3_2 1_555 1_555
C38_2 N14_2 1_555 1_555
O20_2 Pd9_2 1_555 1_555
O21_2 Zn2_2 1_555 1_555
C41_2 N15_2 1_555 1_555
O22_2 Pd10_2 1_555 1_555
Pd8_2 N18_2 1_555 1_555
Pd11_2 N21_2 1_555 1_555
Pd12_2 N20_2 1_555 1_555
P3_2 N16_2 1_555 1_555
P3_2 N17_2 1_555 1_555
P3_2 N18_2 1_555 1_555
P4_2 N19_2 1_555 1_555
P4_2 N20_2 1_555 1_555
P4_2 N21_2 1_555 1_555
C43_2 N16_2 1_555 1_555
C46_2 N17_2 1_555 1_555
C49_2 N18_2 1_555 1_555
C52_2 N19_2 1_555 1_555
C55_2 N20_2 1_555 1_555
C58_2 N21_2 1_555 1_555
C61_2 O27_2 1_555 1_555
C62_2 N23_2 1_555 1_555
C63_2 N22_2 1_555 1_555
C64_2 N22_2 1_555 1_555
C65_2 N23_2 1_555 1_555
C66_2 O28_2 1_555 1_555
C66_2 O29_2 1_555 1_555
C67_2 N25_2 1_555 1_555
C68_2 N24_2 1_555 1_555
C69_2 N24_2 1_555 1_555
C70_2 O33_2 1_555 1_555
C71_2 N25_2 1_555 1_555
C72_2 O30_2 1_555 1_555
Pd2_3 N2_3 1_555 1_555
P1_3 O4_3 1_555 1_555
C2_3 C1_3 1_555 1_555
H3_3 C2_3 1_555 1_555
H4_3 C2_3 1_555 1_555
C3_3 C1_3 1_555 1_555
H5_3 C3_3 1_555 1_555
H6_3 C3_3 1_555 1_555
H9_3 C5_3 1_555 1_555
H10_3 C5_3 1_555 1_555
H11_3 C5_3 1_555 1_555
C7_3 H15_3 1_555 1_555
C8_3 C7_3 1_555 1_555
H16_3 C8_3 1_555 1_555
H17_3 C8_3 1_555 1_555
H18_3 C8_3 1_555 1_555
C9_3 C7_3 1_555 1_555
H19_3 C9_3 1_555 1_555
H20_3 C9_3 1_555 1_555
H21_3 C9_3 1_555 1_555
C26_3 H45_3 1_555 1_555
N2_3 P1_3 1_555 1_555
Pd2_3 N4_3 1_555 1_555
P1_3 N4_3 1_555 1_555
C1_3 N2_3 1_555 1_555
C7_3 N4_3 1_555 1_555
Pd1_3 N3_3 1_555 1_555
Pd4_3 N6_3 1_555 1_555
Pd5_3 N5_3 1_555 1_555
Pd6_3 N5_3 1_555 1_555
Zn3_2 O8_3 1_555 1_555
P2_3 O5_3 1_555 1_555
C4_3 H8_3 1_555 1_555
C6_3 C4_3 1_555 1_555
H12_3 C6_3 1_555 1_555
H13_3 C6_3 1_555 1_555
H14_3 C6_3 1_555 1_555
C10_3 H22_3 1_555 1_555
C11_3 C10_3 1_555 1_555
H23_3 C11_3 1_555 1_555
H24_3 C11_3 1_555 1_555
H25_3 C11_3 1_555 1_555
C12_3 C10_3 1_555 1_555
H26_3 C12_3 1_555 1_555
H27_3 C12_3 1_555 1_555
H28_3 C12_3 1_555 1_555
C13_3 H29_3 1_555 1_555
C14_3 C13_3 1_555 1_555
H30_3 C14_3 1_555 1_555
H31_3 C14_3 1_555 1_555
H32_3 C14_3 1_555 1_555
C15_3 C13_3 1_555 1_555
H33_3 C15_3 1_555 1_555
H34_3 C15_3 1_555 1_555
H35_3 C15_3 1_555 1_555
C16_3 H36_3 1_555 1_555
C17_3 C16_3 1_555 1_555
H37_3 C17_3 1_555 1_555
H38_3 C17_3 1_555 1_555
H39_3 C17_3 1_555 1_555
C18_3 C16_3 1_555 1_555
H40_3 C18_3 1_555 1_555
H41_3 C18_3 1_555 1_555
H42_3 C18_3 1_555 1_555
C19_3 C20_3 1_555 1_555
C20_3 C21_3 1_555 1_555
C21_3 H43_3 1_555 1_555
C22_3 C23_3 1_555 1_555
C23_3 H44_3 1_555 1_555
C24_3 C22_3 1_555 1_555
C30_3 C31_3 1_555 1_555
C31_3 O14_3 1_555 1_555
C32_3 H47_3 1_555 1_555
C33_3 C34_3 1_555 1_555
C34_3 O10_3 1_555 1_555
N3_3 Pd3_3 1_555 1_555
N5_3 P2_3 1_555 1_555
N6_3 Pd6_3 1_555 1_555
N7_3 Pd4_3 1_555 1_555
N8_3 Pd5_3 1_555 1_555
N9_3 Pd1_3 1_555 1_555
N11_3 Pd3_3 1_555 1_555
N12_3 Pd4_3 1_555 1_555
O36 C19_3 1_555 1_555
O8_3 C24_3 1_555 1_555
O9_3 Pd5_3 1_555 1_555
O10_3 Pd4_3 1_555 1_555
O38 C34_3 1_555 1_555
O14_3 Pd3_3 1_555 1_555
O15_3 Zn3_2 1_555 1_555
O18_3 Zn3_2 1_555 1_555
O19_3 Zn3_2 1_555 1_555
C37_3 C30_3 1_555 1_555
H49_3 C37_3 1_555 1_555
C69_3 C70_3 1_555 1_555
C70_3 O32_3 1_555 1_555
C71_3 C69_3 1_555 1_555
H96_3 C71_3 1_555 1_555
C72_3 C67_3 1_555 1_555
N25_3 Pd6_3 1_555 1_555
O30_3 Pd6_3 1_555 1_555
O33_3 Zn3_2 1_555 1_555
Pd5_3 N7_3 1_555 1_555
P2_3 N6_3 1_555 1_555
P2_3 N7_3 1_555 1_555
C4_3 N3_3 1_555 1_555
C10_3 N5_3 1_555 1_555
C13_3 N6_3 1_555 1_555
C16_3 N7_3 1_555 1_555
C20_3 N9_3 1_555 1_555
C21_3 N8_3 1_555 1_555
C22_3 N8_3 1_555 1_555
C23_3 N9_3 1_555 1_555
C24_3 O9_3 1_555 1_555
C30_3 N11_3 1_555 1_555
C31_3 O15_3 1_555 1_555
C32_3 N12_3 1_555 1_555
C33_3 N12_3 1_555 1_555
C67_3 N25_3 1_555 1_555
C69_3 N24_3 1_555 1_555
C70_3 O33_3 1_555 1_555
C71_3 N25_3 1_555 1_555
C72_3 O30_3 1_555 1_555
C27_3 C28_3 1_555 1_555
C28_3 O16_3 1_555 1_555
C35_3 C27_3 1_555 1_555
C36_3 C25_3 1_555 1_555
N13_3 C25_3 1_555 1_555
O12_3 C36_3 1_555 1_555
C52_3 H72_3 1_555 1_555
C53_3 C52_3 1_555 1_555
H73_3 C53_3 1_555 1_555
H74_3 C53_3 1_555 1_555
H75_3 C53_3 1_555 1_555
C54_3 C52_3 1_555 1_555
H76_3 C54_3 1_555 1_555
H83_3 C57_3 1_555 1_555
H84_3 C57_3 1_555 1_555
H85_3 C57_3 1_555 1_555
C27_3 N10_3 1_555 1_555
C35_3 N13_3 1_555 1_555
C29_3 H46_3 1_555 1_555
C38_3 C29_3 1_555 1_555
C39_3 C38_3 1_555 1_555
O20_3 C39_3 1_555 1_555
O21_3 C39_3 1_555 1_555
H50_3 C40_3 1_555 1_555
C42_3 C41_3 1_555 1_555
N15_3 C40_3 1_555 1_555
O22_3 C42_3 1_555 1_555
O39_2 C42_3 1_555 1_555
Pd7_3 N17_3 1_555 1_555
Pd8_3 N16_3 1_555 1_555
Pd9_3 N14_3 1_555 1_555
Pd10_3 N15_3 1_555 1_555
Pd11_3 N19_3 1_555 1_555
Zn4 O17_3 1_555 1_555
P3_3 O24_3 1_555 1_555
P4_3 O25_3 1_555 1_555
C43_3 H51_3 1_555 1_555
C44_3 C43_3 1_555 1_555
H53_3 C44_3 1_555 1_555
H54_3 C44_3 1_555 1_555
C45_3 C43_3 1_555 1_555
H55_3 C45_3 1_555 1_555
H56_3 C45_3 1_555 1_555
H57_3 C45_3 1_555 1_555
C46_3 H58_3 1_555 1_555
C47_3 C46_3 1_555 1_555
H59_3 C47_3 1_555 1_555
H60_3 C47_3 1_555 1_555
H61_3 C47_3 1_555 1_555
C48_3 C46_3 1_555 1_555
H62_3 C48_3 1_555 1_555
H63_3 C48_3 1_555 1_555
H64_3 C48_3 1_555 1_555
C49_3 H65_3 1_555 1_555
C50_3 C49_3 1_555 1_555
H66_3 C50_3 1_555 1_555
H67_3 C50_3 1_555 1_555
H68_3 C50_3 1_555 1_555
C51_3 C49_3 1_555 1_555
H69_3 C51_3 1_555 1_555
H70_3 C51_3 1_555 1_555
H71_3 C51_3 1_555 1_555
C55_3 H79_3 1_555 1_555
C56_3 C55_3 1_555 1_555
H80_3 C56_3 1_555 1_555
H81_3 C56_3 1_555 1_555
H82_3 C56_3 1_555 1_555
C58_3 H86_3 1_555 1_555
C59_3 C58_3 1_555 1_555
H87_3 C59_3 1_555 1_555
H88_3 C59_3 1_555 1_555
H89_3 C59_3 1_555 1_555
C60_3 C58_3 1_555 1_555
H90_3 C60_3 1_555 1_555
H91_3 C60_3 1_555 1_555
H92_3 C60_3 1_555 1_555
C61_3 C62_3 1_555 1_555
C62_3 C63_3 1_555 1_555
C63_3 H93_3 1_555 1_555
C64_3 C65_3 1_555 1_555
C65_3 H94_3 1_555 1_555
C66_3 C64_3 1_555 1_555
C68_3 H95_3 1_555 1_555
N16_3 Pd9_3 1_555 1_555
N17_3 Pd9_3 1_555 1_555
N18_3 Pd7_3 1_555 1_555
N19_3 Pd12_3 1_555 1_555
N20_3 Pd10_3 1_555 1_555
N21_3 Pd10_3 1_555 1_555
N22_3 Pd11_3 1_555 1_555
N23_3 Pd7_3 1_555 1_555
O37_2 C61_3 1_555 1_555
O27_3 Pd7_3 1_555 1_555
O28_3 Zn4 1_555 1_555
O29_3 Pd11_3 1_555 1_555
O34_3 Zn4 1_555 1_555
O35_3 Zn4 1_555 1_555
C38_3 N14_3 1_555 1_555
O20_3 Pd9_3 1_555 1_555
O21_3 Zn4 1_555 1_555
C41_3 N15_3 1_555 1_555
O22_3 Pd10_3 1_555 1_555
Pd8_3 N18_3 1_555 1_555
Pd11_3 N21_3 1_555 1_555
Pd12_3 N20_3 1_555 1_555
P3_3 N16_3 1_555 1_555
P3_3 N17_3 1_555 1_555
P3_3 N18_3 1_555 1_555
P4_3 N19_3 1_555 1_555
P4_3 N20_3 1_555 1_555
P4_3 N21_3 1_555 1_555
C43_3 N16_3 1_555 1_555
C46_3 N17_3 1_555 1_555
C49_3 N18_3 1_555 1_555
C55_3 N20_3 1_555 1_555
C58_3 N21_3 1_555 1_555
C61_3 O27_3 1_555 1_555
C62_3 N23_3 1_555 1_555
C63_3 N22_3 1_555 1_555
C64_3 N22_3 1_555 1_555
C65_3 N23_3 1_555 1_555
C66_3 O28_3 1_555 1_555
C66_3 O29_3 1_555 1_555

#END
