
###############################################################################
#
# This file contains modified crystal structure data generated from the
# MOF subset of the Cambridge Structural Database (CSD) v543 
# hosted by the Cambridge Crystallographic Data Centre (CCDC).
#
# This work is licensed under the Creative Commons
# Attribution-NonCommercial-ShareAlike 4.0 International License.
# To view a copy of this license, visit
# http://creativecommons.org/licenses/by-nc-sa/4.0/
# or send a letter to
# Creative Commons, PO Box 1866, Mountain View, CA 94042, USA.
#
# CIF created using the CSD Python API on 29 September 2022
# The structure has been converted into the P1 space group
# The structure has a 3D framework
# The original CSD entry EROJUS06 is in the tetragonal crystal system
# The framework has been calculated to contain at least 10.0% void space
# The void calculation uses a probe of radius 1.32A, grid spacing 0.4
#
###############################################################################

data_EROJUS06
_chemical_formula_moiety         '(C208 H192 Cd10 N32 O28)n'
_symmetry_cell_setting           triclinic
_symmetry_space_group_name_H-M   'P 1'
_symmetry_Int_Tables_number      1
_space_group_name_Hall           'P 1'
loop_
_symmetry_equiv_pos_site_id
_symmetry_equiv_pos_as_xyz
1 x,y,z
_cell_length_a                   24.0666(7)
_cell_length_b                   24.0666(7)
_cell_length_c                   10.5856(11)
_cell_angle_alpha                90
_cell_angle_beta                 90
_cell_angle_gamma                90
_cell_volume                     6131.19
loop_
_atom_site_label
_atom_site_type_symbol
_atom_site_fract_x
_atom_site_fract_y
_atom_site_fract_z
O1 O 0.2004(3) 0.0110(3) 0.9968(7)
O2 O 0.2775(3) 0.0445(3) 0.9108(6)
H2 H 0.1093 0.0026 0.5603
Cd2 Cd 0.30994(3) 0.01627(3) 0.71176(7)
O5 O 0.2055(3) 0.0275(3) 0.6608(6)
Cd3 Cd 0.23373(3) 0.05994(3) 0.46176(7)
N1 N 0.2085(3) 0.8801(3) 0.0439(8)
O4 O 0.2945(3) 0.9725(3) 0.1608(6)
Cd1 Cd 0.26627(3) 0.94006(3) 0.96176(7)
N2 N 0.3501(3) 0.9265(3) 0.8901(8)
C1 C 0.1980(4) 0.9780(4) 0.7013(8)
C2 C 0.1436(4) 0.9504(4) 0.6897(10)
C3 C 0.1331(5) 0.9034(5) 0.7598(14)
C4 C 0.1028(4) 0.9698(4) 0.6077(11)
H1 H 0.1603 0.8895 0.8166
C5 C 0.0820(5) 0.8762(5) 0.7466(14)
C6 C 0.0535(4) 0.9420(4) 0.5946(11)
H3 H 0.0747 0.8439 0.7955
C7 C 0.0422(4) 0.8953(4) 0.6639(12)
H4 H 0.0266 0.9555 0.5363
O3 O 0.2390(3) 0.9504(3) 0.7468(7)
Cd4 Cd 0.80994(3) 0.01627(3) 0.78824(7)
C8 C 0.9876(4) 0.8631(4) 0.6515(14)
C9 C 0.9354(4) 0.8983(4) 0.6513(12)
H5 H 0.9852 0.8362 0.7221
H6 H 0.9888 0.8414 0.5720
C10 C 0.9219(4) 0.9421(4) 0.7315(10)
C11 C 0.8899(4) 0.8891(4) 0.5767(11)
C12 C 0.9544(5) 0.9703(4) 0.8316(11)
C13 C 0.8790(5) 0.8480(5) 0.4723(13)
H7 H 0.9298 0.9947 0.8802
H8 H 0.9707 0.9424 0.8879
H9 H 0.9840 0.9924 0.7928
H10 H 0.9087 0.8505 0.4093
H11 H 0.8778 0.8104 0.5074
H12 H 0.8432 0.8566 0.4322
N3 N 0.8699(3) 0.9585(3) 0.7061(8)
N4 N 0.8501(3) 0.9265(3) 0.6099(8)
Cd5 Cd 0.76627(3) 0.94006(3) 0.53824(7)
Cd1_2 Cd 0.80994(3) 0.51627(3) 0.21176(7)
N1_2 N 0.8699(3) 0.4585(3) 0.2939(8)
O1_2 O 0.7390(3) 0.4504(3) 0.2468(7)
O2_2 O 0.7055(3) 0.5275(3) 0.1608(6)
N2_2 N 0.8235(3) 0.6001(3) 0.1401(8)
C3_2 C 0.8466(5) 0.3831(5) 0.0098(14)
H1_2 H 0.8605 0.4103 0.0666
H3_2 H 0.9061 0.3247 0.0455
C12_2 C 0.7797(4) 0.2044(5) 0.0816(11)
H7_2 H 0.7553 0.1798 0.1302
H8_2 H 0.8076 0.2207 0.1379
H9_2 H 0.7576 0.2340 0.0428
O4_2 O 0.7775(3) 0.5445(3) 0.4108(6)
Cd4_2 Cd 0.73373(3) 0.05994(3) 0.03824(7)
C1_2 C 0.7720(4) 0.4480(4) 0.9513(8)
C2_2 C 0.7996(4) 0.3936(4) 0.9397(10)
C4_2 C 0.7802(4) 0.3528(4) 0.8577(11)
C5_2 C 0.8738(5) 0.3320(5) 0.9966(14)
C6_2 C 0.8080(4) 0.3035(4) 0.8446(11)
H2_2 H 0.7474 0.3593 0.8103
C7_2 C 0.8547(4) 0.2922(4) 0.9139(12)
H4_2 H 0.7945 0.2766 0.7863
C8_2 C 0.8869(4) 0.2376(4) 0.9015(14)
C9_2 C 0.8517(4) 0.1854(4) 0.9013(12)
H5_2 H 0.9138 0.2352 0.9721
H6_2 H 0.9086 0.2388 0.8220
C10_2 C 0.8079(4) 0.1719(4) 0.9815(10)
C11_2 C 0.8609(4) 0.1399(4) 0.8267(11)
C13_2 C 0.9020(5) 0.1290(5) 0.7223(13)
H10_2 H 0.8995 0.1587 0.6593
H11_2 H 0.9396 0.1278 0.7574
H12_2 H 0.8934 0.0932 0.6822
O3_2 O 0.7996(3) 0.4890(3) 0.9968(7)
Cd2_2 Cd 0.73373(3) 0.55994(3) 0.96176(7)
O5_2 O 0.7225(3) 0.4555(3) 0.9108(6)
Cd3_2 Cd 0.69006(3) 0.48373(3) 0.71176(7)
N3_2 N 0.7915(3) 0.1199(3) 0.9561(8)
N4_2 N 0.8235(3) 0.1001(3) 0.8599(8)
C8_3 C 0.0124(4) 0.6369(4) 0.6515(14)
C9_3 C 0.0646(4) 0.6017(4) 0.6513(12)
H5_3 H 0.0148 0.6638 0.7221
H6_3 H 0.0112 0.6586 0.5720
C10_3 C 0.0781(4) 0.5579(4) 0.7315(10)
C11_3 C 0.1101(4) 0.6109(4) 0.5767(11)
C12_3 C 0.0456(5) 0.5297(4) 0.8316(11)
C13_3 C 0.1210(5) 0.6520(5) 0.4723(13)
H7_3 H 0.0702 0.5053 0.8802
H8_3 H 0.0293 0.5576 0.8879
H9_3 H 0.0160 0.5076 0.7928
H10_3 H 0.0913 0.6495 0.4093
H11_3 H 0.1222 0.6896 0.5074
H12_3 H 0.1568 0.6434 0.4322
N3_3 N 0.1301(3) 0.5415(3) 0.7061(8)
N4_3 N 0.1499(3) 0.5735(3) 0.6099(8)
Cd4_3 Cd 0.19006(3) 0.48373(3) 0.78824(7)
Cd5_2 Cd 0.23373(3) 0.55994(3) 0.53824(7)
N1_3 N 0.7915(3) 0.6199(3) 0.0439(8)
N2_3 N 0.6499(3) 0.5735(3) 0.8901(8)
C1_3 C 0.8020(4) 0.5220(4) 0.7013(8)
C2_3 C 0.8564(4) 0.5496(4) 0.6897(10)
C3_3 C 0.8669(5) 0.5966(5) 0.7598(14)
C4_3 C 0.8972(4) 0.5302(4) 0.6077(11)
H1_3 H 0.8397 0.6105 0.8166
C5_3 C 0.9180(5) 0.6238(5) 0.7466(14)
C6_3 C 0.9465(4) 0.5580(4) 0.5946(11)
H2_3 H 0.8907 0.4974 0.5603
H3_3 H 0.9253 0.6561 0.7955
C7_3 C 0.9578(4) 0.6047(4) 0.6639(12)
H4_3 H 0.9734 0.5445 0.5363
O3_3 O 0.7610(3) 0.5496(3) 0.7468(7)
O5_3 O 0.7945(3) 0.4725(3) 0.6608(6)
Cd3_3 Cd 0.76627(3) 0.44006(3) 0.46176(7)
N1_4 N 0.1301(3) 0.0415(3) 0.2939(8)
O1_3 O 0.2610(3) 0.0496(3) 0.2468(7)
C3_4 C 0.1534(5) 0.1169(5) 0.0098(14)
H1_4 H 0.1395 0.0897 0.0666
H3_4 H 0.0939 0.1753 0.0455
C12_4 C 0.2203(4) 0.2956(5) 0.0816(11)
H7_4 H 0.2447 0.3202 0.1302
H8_4 H 0.1924 0.2793 0.1379
H9_4 H 0.2424 0.2660 0.0428
Cd4_4 Cd 0.26627(3) 0.44006(3) 0.03824(7)
C1_4 C 0.2280(4) 0.0520(4) 0.9513(8)
C2_4 C 0.2004(4) 0.1064(4) 0.9397(10)
C4_4 C 0.2198(4) 0.1472(4) 0.8577(11)
C5_4 C 0.1262(5) 0.1680(5) 0.9966(14)
C6_4 C 0.1920(4) 0.1965(4) 0.8446(11)
H2_4 H 0.2526 0.1407 0.8103
C7_4 C 0.1453(4) 0.2078(4) 0.9139(12)
H4_4 H 0.2055 0.2234 0.7863
C8_4 C 0.1131(4) 0.2624(4) 0.9015(14)
C9_4 C 0.1483(4) 0.3146(4) 0.9013(12)
H5_4 H 0.0862 0.2648 0.9721
H6_4 H 0.0914 0.2612 0.8220
C10_4 C 0.1921(4) 0.3281(4) 0.9815(10)
C11_4 C 0.1391(4) 0.3601(4) 0.8267(11)
C13_4 C 0.0980(5) 0.3710(5) 0.7223(13)
H10_4 H 0.1005 0.3413 0.6593
H11_4 H 0.0604 0.3722 0.7574
H12_4 H 0.1066 0.4068 0.6822
N3_4 N 0.2085(3) 0.3801(3) 0.9561(8)
N4_4 N 0.1765(3) 0.3999(3) 0.8599(8)
Cd1_3 Cd 0.19006(3) 0.98373(3) 0.21176(7)
N2_4 N 0.1765(3) 0.8999(3) 0.1401(8)
O4_3 O 0.2225(3) 0.9555(3) 0.4108(6)
N1_5 N 0.7085(3) 0.3801(3) 0.5439(8)
O1_4 O 0.7004(3) 0.5110(3) 0.4968(7)
N2_5 N 0.8501(3) 0.4265(3) 0.3901(8)
C1_5 C 0.6980(4) 0.4780(4) 0.2013(8)
C2_5 C 0.6436(4) 0.4504(4) 0.1897(10)
C3_5 C 0.6331(5) 0.4034(5) 0.2598(14)
C4_5 C 0.6028(4) 0.4698(4) 0.1077(11)
H1_5 H 0.6603 0.3895 0.3166
C5_5 C 0.5820(5) 0.3762(5) 0.2466(14)
C6_5 C 0.5535(4) 0.4420(4) 0.0946(11)
H2_5 H 0.6093 0.5026 0.0603
H3_5 H 0.5747 0.3439 0.2955
C7_5 C 0.5422(4) 0.3953(4) 0.1639(12)
H4_5 H 0.5266 0.4555 0.0363
C8_5 C 0.4876(4) 0.3631(4) 0.1515(14)
C9_5 C 0.4354(4) 0.3983(4) 0.1513(12)
H5_5 H 0.4852 0.3362 0.2221
H6_5 H 0.4888 0.3414 0.0720
C10_5 C 0.4219(4) 0.4421(4) 0.2315(10)
C11_5 C 0.3899(4) 0.3891(4) 0.0767(11)
C12_5 C 0.4544(5) 0.4703(4) 0.3316(11)
H7_5 H 0.4298 0.4947 0.3802
H8_5 H 0.4707 0.4424 0.3879
H9_5 H 0.4840 0.4924 0.2928
H11_5 H 0.3778 0.3104 0.0074
N3_5 N 0.3699(3) 0.4585(3) 0.2061(8)
N4_5 N 0.3501(3) 0.4265(3) 0.1099(8)
Cd4_5 Cd 0.30994(3) 0.51627(3) 0.28824(7)
C13_5 C 0.3790(5) 0.3480(5) 0.9723(13)
H10_5 H 0.4087 0.3505 0.9093
H12_5 H 0.3432 0.3566 0.9322
N2_6 N 0.3235(3) 0.1001(3) 0.6401(8)
N1_6 N 0.3699(3) 0.9585(3) 0.7939(8)
C1_6 C 0.2720(4) 0.9480(4) 0.4513(8)
C2_6 C 0.2996(4) 0.8936(4) 0.4397(10)
C3_6 C 0.3466(5) 0.8831(5) 0.5098(14)
C4_6 C 0.2802(4) 0.8528(4) 0.3577(11)
H1_6 H 0.3605 0.9103 0.5666
C5_6 C 0.3738(5) 0.8320(5) 0.4966(14)
C6_6 C 0.3080(4) 0.8035(4) 0.3446(11)
H2_6 H 0.2474 0.8593 0.3103
H3_6 H 0.4061 0.8247 0.5455
C7_6 C 0.3547(4) 0.7922(4) 0.4139(12)
H4_6 H 0.2945 0.7766 0.2863
C8_6 C 0.3869(4) 0.7376(4) 0.4015(14)
C9_6 C 0.3517(4) 0.6854(4) 0.4013(12)
H5_6 H 0.4138 0.7352 0.4721
H6_6 H 0.4086 0.7388 0.3220
C10_6 C 0.3079(4) 0.6719(4) 0.4815(10)
C11_6 C 0.3609(4) 0.6399(4) 0.3267(11)
C12_6 C 0.2797(4) 0.7044(5) 0.5816(11)
C13_6 C 0.4020(5) 0.6290(5) 0.2223(13)
H7_6 H 0.2553 0.6798 0.6302
H8_6 H 0.3076 0.7207 0.6379
H9_6 H 0.2576 0.7340 0.5428
H10_6 H 0.3995 0.6587 0.1593
H11_6 H 0.4396 0.6278 0.2574
H12_6 H 0.3934 0.5932 0.1822
O3_4 O 0.2996(3) 0.9890(3) 0.4968(7)
N3_6 N 0.2915(3) 0.6199(3) 0.4561(8)
N4_6 N 0.3235(3) 0.6001(3) 0.3599(8)
N1_7 N 0.2915(3) 0.1199(3) 0.5439(8)
N2_7 N 0.1499(3) 0.0735(3) 0.3901(8)
C1_7 C 0.3020(4) 0.0220(4) 0.2013(8)
C2_7 C 0.3564(4) 0.0496(4) 0.1897(10)
C3_7 C 0.3669(5) 0.0966(5) 0.2598(14)
C4_7 C 0.3972(4) 0.0302(4) 0.1077(11)
H1_7 H 0.3397 0.1105 0.3166
C5_7 C 0.4180(5) 0.1238(5) 0.2466(14)
C6_7 C 0.4465(4) 0.0580(4) 0.0946(11)
H3_7 H 0.4253 0.1561 0.2955
C7_7 C 0.4578(4) 0.1047(4) 0.1639(12)
H4_7 H 0.4734 0.0445 0.0363
C8_7 C 0.5124(4) 0.1369(4) 0.1515(14)
C9_7 C 0.5646(4) 0.1017(4) 0.1513(12)
H5_7 H 0.5148 0.1638 0.2221
H6_7 H 0.5112 0.1586 0.0720
C10_7 C 0.5781(4) 0.0579(4) 0.2315(10)
C11_7 C 0.6101(4) 0.1109(4) 0.0767(11)
C12_7 C 0.5456(5) 0.0297(4) 0.3316(11)
H7_7 H 0.5702 0.0053 0.3802
H8_7 H 0.5293 0.0576 0.3879
H9_7 H 0.5160 0.0076 0.2928
H11_7 H 0.6222 0.1896 0.0074
N3_7 N 0.6301(3) 0.0415(3) 0.2061(8)
N4_7 N 0.6499(3) 0.0735(3) 0.1099(8)
H2_7 H 0.3907 0.9974 0.0603
Cd4_6 Cd 0.69006(3) 0.98373(3) 0.28824(7)
N1_8 N 0.6301(3) 0.5415(3) 0.7939(8)
N2_8 N 0.6765(3) 0.3999(3) 0.6401(8)
C1_8 C 0.7280(4) 0.5520(4) 0.4513(8)
C2_8 C 0.7004(4) 0.6064(4) 0.4397(10)
C3_8 C 0.6534(5) 0.6169(5) 0.5098(14)
C4_8 C 0.7198(4) 0.6472(4) 0.3577(11)
H1_8 H 0.6395 0.5897 0.5666
C5_8 C 0.6262(5) 0.6680(5) 0.4966(14)
C6_8 C 0.6920(4) 0.6965(4) 0.3446(11)
H2_8 H 0.7526 0.6407 0.3103
H3_8 H 0.5939 0.6753 0.5455
C7_8 C 0.6453(4) 0.7078(4) 0.4139(12)
H4_8 H 0.7055 0.7234 0.2863
C8_8 C 0.6131(4) 0.7624(4) 0.4015(14)
C9_8 C 0.6483(4) 0.8146(4) 0.4013(12)
H5_8 H 0.5862 0.7648 0.4721
H6_8 H 0.5914 0.7612 0.3220
C10_8 C 0.6921(4) 0.8281(4) 0.4815(10)
C11_8 C 0.6391(4) 0.8601(4) 0.3267(11)
C12_8 C 0.7203(4) 0.7956(5) 0.5816(11)
C13_7 C 0.5980(5) 0.8710(5) 0.2223(13)
H7_8 H 0.7447 0.8202 0.6302
H8_8 H 0.6924 0.7793 0.6379
H9_8 H 0.7424 0.7660 0.5428
H10_7 H 0.6005 0.8413 0.1593
H11_8 H 0.5604 0.8722 0.2574
H12_7 H 0.6066 0.9068 0.1822
N3_8 N 0.7085(3) 0.8801(3) 0.4561(8)
N4_8 N 0.6765(3) 0.8999(3) 0.3599(8)
C8_9 C 0.0124(4) 0.1369(4) 0.3485(14)
C9_9 C 0.0646(4) 0.1017(4) 0.3487(12)
H5_9 H 0.0148 0.1638 0.2779
H6_9 H 0.0112 0.1586 0.4280
C10_9 C 0.0781(4) 0.0579(4) 0.2685(10)
C11_9 C 0.1101(4) 0.1109(4) 0.4233(11)
C12_9 C 0.0456(5) 0.0297(4) 0.1684(11)
C13_8 C 0.1210(5) 0.1520(5) 0.5277(13)
H7_9 H 0.0702 0.0053 0.1198
H8_9 H 0.0293 0.0576 0.1121
H9_9 H 0.0160 0.0076 0.2072
H10_8 H 0.0913 0.1495 0.5907
H11_9 H 0.1222 0.1896 0.4926
H12_8 H 0.1568 0.1434 0.5678
C1_9 C 0.8020(4) 0.0220(4) 0.2987(8)
C2_9 C 0.8564(4) 0.0496(4) 0.3103(10)
C3_9 C 0.8669(5) 0.0966(5) 0.2402(14)
C4_9 C 0.8972(4) 0.0302(4) 0.3923(11)
H1_9 H 0.8397 0.1105 0.1834
C5_9 C 0.9180(5) 0.1238(5) 0.2534(14)
C6_9 C 0.9465(4) 0.0580(4) 0.4054(11)
H3_9 H 0.9253 0.1561 0.2045
C7_9 C 0.9578(4) 0.1047(4) 0.3361(12)
H4_9 H 0.9734 0.0445 0.4637
O3_5 O 0.7610(3) 0.0496(3) 0.2532(7)
O4_4 O 0.7055(3) 0.0275(3) 0.8392(6)
O1_5 O 0.7996(3) 0.9890(3) 0.0032(7)
O2_3 O 0.7225(3) 0.9555(3) 0.0892(6)
H2_9 H 0.8907 0.9974 0.4397
O5_4 O 0.7945(3) 0.9725(3) 0.3392(6)
C1_10 C 0.2280(4) 0.5520(4) 0.0487(8)
C2_10 C 0.2004(4) 0.6064(4) 0.0603(10)
C4_10 C 0.2198(4) 0.6472(4) 0.1423(11)
C5_10 C 0.1262(5) 0.6680(5) 0.0034(14)
C6_10 C 0.1920(4) 0.6965(4) 0.1554(11)
H2_10 H 0.2526 0.6407 0.1897
C7_10 C 0.1453(4) 0.7078(4) 0.0861(12)
H4_10 H 0.2055 0.7234 0.2137
C8_10 C 0.1131(4) 0.7624(4) 0.0985(14)
C9_10 C 0.1483(4) 0.8146(4) 0.0987(12)
H5_10 H 0.0862 0.7648 0.0279
H6_10 H 0.0914 0.7612 0.1780
C10_10 C 0.1921(4) 0.8281(4) 0.0185(10)
C11_10 C 0.1391(4) 0.8601(4) 0.1733(11)
C13_9 C 0.0980(5) 0.8710(5) 0.2777(13)
H10_9 H 0.1005 0.8413 0.3407
H11_10 H 0.0604 0.8722 0.2426
H12_9 H 0.1066 0.9068 0.3178
O3_6 O 0.2004(3) 0.5110(3) 0.0032(7)
O5_5 O 0.2775(3) 0.5445(3) 0.0892(6)
O1_6 O 0.2610(3) 0.5496(3) 0.7532(7)
O2_4 O 0.2945(3) 0.4725(3) 0.8392(6)
C3_10 C 0.1534(5) 0.6169(5) 0.9902(14)
H1_10 H 0.1395 0.5897 0.9334
H3_10 H 0.0939 0.6753 0.9545
C12_10 C 0.2203(4) 0.7956(5) 0.9184(11)
H7_10 H 0.2447 0.8202 0.8698
H8_10 H 0.1924 0.7793 0.8621
H9_10 H 0.2424 0.7660 0.9572
O4_5 O 0.2225(3) 0.4555(3) 0.5892(6)
C1_11 C 0.1980(4) 0.4780(4) 0.2987(8)
C2_11 C 0.1436(4) 0.4504(4) 0.3103(10)
C3_11 C 0.1331(5) 0.4034(5) 0.2402(14)
C4_11 C 0.1028(4) 0.4698(4) 0.3923(11)
H1_11 H 0.1603 0.3895 0.1834
C5_11 C 0.0820(5) 0.3762(5) 0.2534(14)
C6_11 C 0.0535(4) 0.4420(4) 0.4054(11)
H2_11 H 0.1093 0.5026 0.4397
H3_11 H 0.0747 0.3439 0.2045
C7_11 C 0.0422(4) 0.3953(4) 0.3361(12)
H4_11 H 0.0266 0.4555 0.4637
O3_7 O 0.2390(3) 0.4504(3) 0.2532(7)
O5_6 O 0.2055(3) 0.5275(3) 0.3392(6)
C8_11 C 0.9876(4) 0.3631(4) 0.3485(14)
C9_11 C 0.9354(4) 0.3983(4) 0.3487(12)
H5_11 H 0.9852 0.3362 0.2779
H6_11 H 0.9888 0.3414 0.4280
C10_11 C 0.9219(4) 0.4421(4) 0.2685(10)
C11_11 C 0.8899(4) 0.3891(4) 0.4233(11)
C12_11 C 0.9544(5) 0.4703(4) 0.1684(11)
C13_10 C 0.8790(5) 0.3480(5) 0.5277(13)
H7_11 H 0.9298 0.4947 0.1198
H8_11 H 0.9707 0.4424 0.1121
H9_11 H 0.9840 0.4924 0.2072
H10_10 H 0.9087 0.3505 0.5907
H11_11 H 0.8778 0.3104 0.4926
H12_10 H 0.8432 0.3566 0.5678
O4_6 O 0.7775(3) 0.0445(3) 0.5892(6)
C1_12 C 0.7720(4) 0.9480(4) 0.0487(8)
C2_12 C 0.7996(4) 0.8936(4) 0.0603(10)
C4_12 C 0.7802(4) 0.8528(4) 0.1423(11)
C5_12 C 0.8738(5) 0.8320(5) 0.0034(14)
C6_12 C 0.8080(4) 0.8035(4) 0.1554(11)
H2_12 H 0.7474 0.8593 0.1897
C7_12 C 0.8547(4) 0.7922(4) 0.0861(12)
H4_12 H 0.7945 0.7766 0.2137
C8_12 C 0.8869(4) 0.7376(4) 0.0985(14)
C9_12 C 0.8517(4) 0.6854(4) 0.0987(12)
H5_12 H 0.9138 0.7352 0.0279
H6_12 H 0.9086 0.7388 0.1780
C10_12 C 0.8079(4) 0.6719(4) 0.0185(10)
C11_12 C 0.8609(4) 0.6399(4) 0.1733(11)
C13_11 C 0.9020(5) 0.6290(5) 0.2777(13)
H10_11 H 0.8995 0.6587 0.3407
H11_12 H 0.9396 0.6278 0.2426
H12_11 H 0.8934 0.5932 0.3178
O1_7 O 0.7390(3) 0.9504(3) 0.7532(7)
C3_12 C 0.8466(5) 0.8831(5) 0.9902(14)
H1_12 H 0.8605 0.9103 0.9334
H3_12 H 0.9061 0.8247 0.9545
C12_12 C 0.7797(4) 0.7044(5) 0.9184(11)
H7_12 H 0.7553 0.6798 0.8698
H8_12 H 0.8076 0.7207 0.8621
H9_12 H 0.7576 0.7340 0.9572
C13_12 C 0.6210(5) 0.6520(5) 0.0277(13)
H10_12 H 0.5913 0.6495 0.0907
H12_12 H 0.6568 0.6434 0.0678
O1_8 O 0.2996(3) 0.4890(3) 0.5032(7)
C1_13 C 0.3020(4) 0.5220(4) 0.7987(8)
C2_13 C 0.3564(4) 0.5496(4) 0.8103(10)
C3_13 C 0.3669(5) 0.5966(5) 0.7402(14)
C4_13 C 0.3972(4) 0.5302(4) 0.8923(11)
H1_13 H 0.3397 0.6105 0.6834
C5_13 C 0.4180(5) 0.6238(5) 0.7534(14)
C6_13 C 0.4465(4) 0.5580(4) 0.9054(11)
H2_13 H 0.3907 0.4974 0.9397
H3_13 H 0.4253 0.6561 0.7045
C7_13 C 0.4578(4) 0.6047(4) 0.8361(12)
H4_13 H 0.4734 0.5445 0.9637
C8_13 C 0.5124(4) 0.6369(4) 0.8485(14)
C9_13 C 0.5646(4) 0.6017(4) 0.8487(12)
H5_13 H 0.5148 0.6638 0.7779
H6_13 H 0.5112 0.6586 0.9280
C10_13 C 0.5781(4) 0.5579(4) 0.7685(10)
C11_13 C 0.6101(4) 0.6109(4) 0.9233(11)
C12_13 C 0.5456(5) 0.5297(4) 0.6684(11)
H7_13 H 0.5702 0.5053 0.6198
H8_13 H 0.5293 0.5576 0.6121
H9_13 H 0.5160 0.5076 0.7072
H11_13 H 0.6222 0.6896 0.9926
C1_14 C 0.7280(4) 0.0520(4) 0.5487(8)
C2_14 C 0.7004(4) 0.1064(4) 0.5603(10)
C3_14 C 0.6534(5) 0.1169(5) 0.4902(14)
C4_14 C 0.7198(4) 0.1472(4) 0.6423(11)
H1_14 H 0.6395 0.0897 0.4334
C5_14 C 0.6262(5) 0.1680(5) 0.5034(14)
C6_14 C 0.6920(4) 0.1965(4) 0.6554(11)
H2_14 H 0.7526 0.1407 0.6897
H3_14 H 0.5939 0.1753 0.4545
C7_14 C 0.6453(4) 0.2078(4) 0.5861(12)
H4_14 H 0.7055 0.2234 0.7137
C8_14 C 0.6131(4) 0.2624(4) 0.5985(14)
C9_14 C 0.6483(4) 0.3146(4) 0.5987(12)
H5_14 H 0.5862 0.2648 0.5279
H6_14 H 0.5914 0.2612 0.6780
C10_14 C 0.6921(4) 0.3281(4) 0.5185(10)
C11_14 C 0.6391(4) 0.3601(4) 0.6733(11)
C12_14 C 0.7203(4) 0.2956(5) 0.4184(11)
C13_13 C 0.5980(5) 0.3710(5) 0.7777(13)
H7_14 H 0.7447 0.3202 0.3698
H8_14 H 0.6924 0.2793 0.3621
H9_14 H 0.7424 0.2660 0.4572
H10_13 H 0.6005 0.3413 0.8407
H11_14 H 0.5604 0.3722 0.7426
H12_13 H 0.6066 0.4068 0.8178
O3_8 O 0.7004(3) 0.0110(3) 0.5032(7)
H2_15 H 0.6093 0.0026 0.9397
C1_15 C 0.6980(4) 0.9780(4) 0.7987(8)
C2_15 C 0.6436(4) 0.9504(4) 0.8103(10)
C3_15 C 0.6331(5) 0.9034(5) 0.7402(14)
C4_15 C 0.6028(4) 0.9698(4) 0.8923(11)
H1_15 H 0.6603 0.8895 0.6834
C5_15 C 0.5820(5) 0.8762(5) 0.7534(14)
C6_15 C 0.5535(4) 0.9420(4) 0.9054(11)
H3_15 H 0.5747 0.8439 0.7045
C7_15 C 0.5422(4) 0.8953(4) 0.8361(12)
H4_15 H 0.5266 0.9555 0.9637
C8_15 C 0.4876(4) 0.8631(4) 0.8485(14)
C9_15 C 0.4354(4) 0.8983(4) 0.8487(12)
H5_15 H 0.4852 0.8362 0.7779
H6_15 H 0.4888 0.8414 0.9280
C10_15 C 0.4219(4) 0.9421(4) 0.7685(10)
C11_15 C 0.3899(4) 0.8891(4) 0.9233(11)
C12_15 C 0.4544(5) 0.9703(4) 0.6684(11)
H7_15 H 0.4298 0.9947 0.6198
H8_15 H 0.4707 0.9424 0.6121
H9_15 H 0.4840 0.9924 0.7072
H11_15 H 0.3778 0.8104 0.9926
C1_16 C 0.2720(4) 0.4480(4) 0.5487(8)
C2_16 C 0.2996(4) 0.3936(4) 0.5603(10)
C3_16 C 0.3466(5) 0.3831(5) 0.4902(14)
C4_16 C 0.2802(4) 0.3528(4) 0.6423(11)
H1_16 H 0.3605 0.4103 0.4334
C5_16 C 0.3738(5) 0.3320(5) 0.5034(14)
C6_16 C 0.3080(4) 0.3035(4) 0.6554(11)
H2_16 H 0.2474 0.3593 0.6897
H3_16 H 0.4061 0.3247 0.4545
C7_16 C 0.3547(4) 0.2922(4) 0.5861(12)
H4_16 H 0.2945 0.2766 0.7137
C8_16 C 0.3869(4) 0.2376(4) 0.5985(14)
C9_16 C 0.3517(4) 0.1854(4) 0.5987(12)
H5_16 H 0.4138 0.2352 0.5279
H6_16 H 0.4086 0.2388 0.6780
C10_16 C 0.3079(4) 0.1719(4) 0.5185(10)
C11_16 C 0.3609(4) 0.1399(4) 0.6733(11)
C12_16 C 0.2797(4) 0.2044(5) 0.4184(11)
C13_14 C 0.4020(5) 0.1290(5) 0.7777(13)
H7_16 H 0.2553 0.1798 0.3698
H8_16 H 0.3076 0.2207 0.3621
H9_16 H 0.2576 0.2340 0.4572
H10_14 H 0.3995 0.1587 0.8407
H11_16 H 0.4396 0.1278 0.7426
H12_14 H 0.3934 0.0932 0.8178
C13_15 C 0.6210(5) 0.1520(5) 0.9723(13)
H10_15 H 0.5913 0.1495 0.9093
H12_15 H 0.6568 0.1434 0.9322
C13_16 C 0.3790(5) 0.8480(5) 0.0277(13)
H10_16 H 0.4087 0.8505 0.0907
H12_16 H 0.3432 0.8566 0.0678
loop_
_geom_bond_atom_site_label_1
_geom_bond_atom_site_label_2
_geom_bond_site_symmetry_1
_geom_bond_site_symmetry_2
Cd2 O2 1_555 1_555
Cd3 O5 1_555 1_555
Cd2 O5 1_555 1_555
N2 Cd1 1_555 1_555
C1 C2 1_555 1_555
C2 C3 1_555 1_555
C3 H1 1_555 1_555
C4 C2 1_555 1_555
C5 C3 1_555 1_555
C6 C4 1_555 1_555
H3 C5 1_555 1_555
C7 C5 1_555 1_555
H4 C6 1_555 1_555
O3 Cd1 1_555 1_555
C1 O3 1_555 1_555
C6 C7 1_555 1_555
C9 C8 1_555 1_555
H5 C8 1_555 1_555
H6 C8 1_555 1_555
C10 C9 1_555 1_555
C11 C9 1_555 1_555
C12 C10 1_555 1_555
C13 C11 1_555 1_555
H7 C12 1_555 1_555
H8 C12 1_555 1_555
H9 C12 1_555 1_555
H10 C13 1_555 1_555
H11 C13 1_555 1_555
H12 C13 1_555 1_555
N3 C10 1_555 1_555
N4 C11 1_555 1_555
Cd5 N4 1_555 1_555
N3 N4 1_555 1_555
Cd1_2 N1_2 1_555 1_555
O1_2 Cd1_2 1_555 1_555
O2_2 Cd1_2 1_555 1_555
N2_2 Cd1_2 1_555 1_555
C3_2 H1_2 1_555 1_555
H7_2 C12_2 1_555 1_555
H8_2 C12_2 1_555 1_555
H9_2 C12_2 1_555 1_555
O4_2 Cd1_2 1_555 1_555
C1_2 C2_2 1_555 1_555
C4_2 C2_2 1_555 1_555
C6_2 C4_2 1_555 1_555
H2_2 C4_2 1_555 1_555
C7_2 C5_2 1_555 1_555
H4_2 C6_2 1_555 1_555
C8_2 C7_2 1_555 1_555
C9_2 C8_2 1_555 1_555
H5_2 C8_2 1_555 1_555
H6_2 C8_2 1_555 1_555
C10_2 C9_2 1_555 1_555
C11_2 C9_2 1_555 1_555
C13_2 C11_2 1_555 1_555
H10_2 C13_2 1_555 1_555
H11_2 C13_2 1_555 1_555
H12_2 C13_2 1_555 1_555
O5_2 C1_2 1_555 1_555
Cd3_2 O5_2 1_555 1_555
N3_2 C10_2 1_555 1_555
N4_2 C11_2 1_555 1_555
Cd4 N4_2 1_555 1_555
C1_2 O3_2 1_555 1_555
C6_2 C7_2 1_555 1_555
O3_2 Cd2_2 1_555 1_555
Cd2_2 O5_2 1_555 1_555
N3_2 N4_2 1_555 1_555
C9_3 C8_3 1_555 1_555
H5_3 C8_3 1_555 1_555
H6_3 C8_3 1_555 1_555
C10_3 C9_3 1_555 1_555
C11_3 C9_3 1_555 1_555
C12_3 C10_3 1_555 1_555
C13_3 C11_3 1_555 1_555
H7_3 C12_3 1_555 1_555
H8_3 C12_3 1_555 1_555
H9_3 C12_3 1_555 1_555
H10_3 C13_3 1_555 1_555
H11_3 C13_3 1_555 1_555
H12_3 C13_3 1_555 1_555
N3_3 C10_3 1_555 1_555
N4_3 C11_3 1_555 1_555
Cd4_3 N3_3 1_555 1_555
Cd5_2 N4_3 1_555 1_555
N3_3 N4_3 1_555 1_555
N2_3 Cd2_2 1_555 1_555
C1_3 C2_3 1_555 1_555
C2_3 C3_3 1_555 1_555
C3_3 H1_3 1_555 1_555
C4_3 C2_3 1_555 1_555
C5_3 C3_3 1_555 1_555
C6_3 C4_3 1_555 1_555
H2_3 C4_3 1_555 1_555
H3_3 C5_3 1_555 1_555
C7_3 C5_3 1_555 1_555
H4_3 C6_3 1_555 1_555
O3_3 Cd2_2 1_555 1_555
O5_3 C1_3 1_555 1_555
Cd3_3 O5_3 1_555 1_555
C1_3 O3_3 1_555 1_555
C6_3 C7_3 1_555 1_555
O3_3 Cd3_2 1_555 1_555
Cd3_2 O5_3 1_555 1_555
C3_4 H1_4 1_555 1_555
H7_4 C12_4 1_555 1_555
H8_4 C12_4 1_555 1_555
H9_4 C12_4 1_555 1_555
C1_4 C2_4 1_555 1_555
C4_4 C2_4 1_555 1_555
C6_4 C4_4 1_555 1_555
H2_4 C4_4 1_555 1_555
C7_4 C5_4 1_555 1_555
H4_4 C6_4 1_555 1_555
C8_4 C7_4 1_555 1_555
C9_4 C8_4 1_555 1_555
H5_4 C8_4 1_555 1_555
H6_4 C8_4 1_555 1_555
C10_4 C9_4 1_555 1_555
C11_4 C9_4 1_555 1_555
C13_4 C11_4 1_555 1_555
H10_4 C13_4 1_555 1_555
H11_4 C13_4 1_555 1_555
H12_4 C13_4 1_555 1_555
O2 C1_4 1_555 1_555
N3_4 C10_4 1_555 1_555
N4_4 C11_4 1_555 1_555
Cd4_3 N4_4 1_555 1_555
C1_4 O1 1_555 1_555
C6_4 C7_4 1_555 1_555
N3_4 N4_4 1_555 1_555
O4 Cd1_3 1_555 1_555
N2_4 Cd1_3 1_555 1_555
O4_3 Cd1_3 1_555 1_555
Cd3_3 N1_5 1_555 1_555
O1_4 Cd3_3 1_555 1_555
O4_2 Cd3_3 1_555 1_555
N2_5 Cd3_3 1_555 1_555
C1_5 C2_5 1_555 1_555
C2_5 C3_5 1_555 1_555
C3_5 H1_5 1_555 1_555
C4_5 C2_5 1_555 1_555
C5_5 C3_5 1_555 1_555
C6_5 C4_5 1_555 1_555
H2_5 C4_5 1_555 1_555
H3_5 C5_5 1_555 1_555
C7_5 C5_5 1_555 1_555
H4_5 C6_5 1_555 1_555
C8_5 C7_5 1_555 1_555
C9_5 C8_5 1_555 1_555
H5_5 C8_5 1_555 1_555
H6_5 C8_5 1_555 1_555
C10_5 C9_5 1_555 1_555
C11_5 C9_5 1_555 1_555
C12_5 C10_5 1_555 1_555
H7_5 C12_5 1_555 1_555
H8_5 C12_5 1_555 1_555
H9_5 C12_5 1_555 1_555
O1_2 Cd3_3 1_555 1_555
O2_2 C1_5 1_555 1_555
N3_5 C10_5 1_555 1_555
N4_5 C11_5 1_555 1_555
Cd4_5 N3_5 1_555 1_555
Cd4_4 N4_5 1_555 1_555
C1_5 O1_2 1_555 1_555
C6_5 C7_5 1_555 1_555
N3_5 N4_5 1_555 1_555
H10_5 C13_5 1_555 1_555
H12_5 C13_5 1_555 1_555
N2_6 Cd2 1_555 1_555
C1_6 C2_6 1_555 1_555
C2_6 C3_6 1_555 1_555
C3_6 H1_6 1_555 1_555
C4_6 C2_6 1_555 1_555
C5_6 C3_6 1_555 1_555
C6_6 C4_6 1_555 1_555
H2_6 C4_6 1_555 1_555
H3_6 C5_6 1_555 1_555
C7_6 C5_6 1_555 1_555
H4_6 C6_6 1_555 1_555
C8_6 C7_6 1_555 1_555
C9_6 C8_6 1_555 1_555
H5_6 C8_6 1_555 1_555
H6_6 C8_6 1_555 1_555
C10_6 C9_6 1_555 1_555
C11_6 C9_6 1_555 1_555
C12_6 C10_6 1_555 1_555
C13_6 C11_6 1_555 1_555
H7_6 C12_6 1_555 1_555
H8_6 C12_6 1_555 1_555
H9_6 C12_6 1_555 1_555
H10_6 C13_6 1_555 1_555
H11_6 C13_6 1_555 1_555
H12_6 C13_6 1_555 1_555
O4_3 C1_6 1_555 1_555
N3_6 C10_6 1_555 1_555
N4_6 C11_6 1_555 1_555
Cd5_2 N3_6 1_555 1_555
Cd4_5 N4_6 1_555 1_555
C1_6 O3_4 1_555 1_555
C6_6 C7_6 1_555 1_555
N3_6 N4_6 1_555 1_555
Cd3 N1_7 1_555 1_555
N2_7 Cd3 1_555 1_555
C1_7 C2_7 1_555 1_555
C2_7 C3_7 1_555 1_555
C3_7 H1_7 1_555 1_555
C4_7 C2_7 1_555 1_555
C5_7 C3_7 1_555 1_555
C6_7 C4_7 1_555 1_555
H3_7 C5_7 1_555 1_555
C7_7 C5_7 1_555 1_555
H4_7 C6_7 1_555 1_555
C8_7 C7_7 1_555 1_555
C9_7 C8_7 1_555 1_555
H5_7 C8_7 1_555 1_555
H6_7 C8_7 1_555 1_555
C10_7 C9_7 1_555 1_555
C11_7 C9_7 1_555 1_555
C12_7 C10_7 1_555 1_555
H7_7 C12_7 1_555 1_555
H8_7 C12_7 1_555 1_555
H9_7 C12_7 1_555 1_555
O1_3 Cd3 1_555 1_555
N3_7 C10_7 1_555 1_555
N4_7 C11_7 1_555 1_555
Cd4_2 N4_7 1_555 1_555
C1_7 O1_3 1_555 1_555
C6_7 C7_7 1_555 1_555
N3_7 N4_7 1_555 1_555
Cd3_2 N1_8 1_555 1_555
N2_8 Cd3_2 1_555 1_555
C1_8 C2_8 1_555 1_555
C2_8 C3_8 1_555 1_555
C3_8 H1_8 1_555 1_555
C4_8 C2_8 1_555 1_555
C5_8 C3_8 1_555 1_555
C6_8 C4_8 1_555 1_555
H2_8 C4_8 1_555 1_555
H3_8 C5_8 1_555 1_555
C7_8 C5_8 1_555 1_555
H4_8 C6_8 1_555 1_555
C8_8 C7_8 1_555 1_555
C9_8 C8_8 1_555 1_555
H5_8 C8_8 1_555 1_555
H6_8 C8_8 1_555 1_555
C10_8 C9_8 1_555 1_555
C11_8 C9_8 1_555 1_555
C12_8 C10_8 1_555 1_555
C13_7 C11_8 1_555 1_555
H7_8 C12_8 1_555 1_555
H8_8 C12_8 1_555 1_555
H9_8 C12_8 1_555 1_555
H10_7 C13_7 1_555 1_555
H11_8 C13_7 1_555 1_555
H12_7 C13_7 1_555 1_555
O1_4 Cd3_2 1_555 1_555
O4_2 C1_8 1_555 1_555
N3_8 C10_8 1_555 1_555
N4_8 C11_8 1_555 1_555
Cd5 N3_8 1_555 1_555
Cd4_6 N4_8 1_555 1_555
C1_8 O1_4 1_555 1_555
C6_8 C7_8 1_555 1_555
N3_8 N4_8 1_555 1_555
C9_9 C8_9 1_555 1_555
H5_9 C8_9 1_555 1_555
H6_9 C8_9 1_555 1_555
C10_9 C9_9 1_555 1_555
C11_9 C9_9 1_555 1_555
C12_9 C10_9 1_555 1_555
C13_8 C11_9 1_555 1_555
H7_9 C12_9 1_555 1_555
H8_9 C12_9 1_555 1_555
H9_9 C12_9 1_555 1_555
H10_8 C13_8 1_555 1_555
H11_9 C13_8 1_555 1_555
H12_8 C13_8 1_555 1_555
N1_4 C10_9 1_555 1_555
N2_7 C11_9 1_555 1_555
N1_4 N2_7 1_555 1_555
C1_9 C2_9 1_555 1_555
C2_9 C3_9 1_555 1_555
C3_9 H1_9 1_555 1_555
C4_9 C2_9 1_555 1_555
C5_9 C3_9 1_555 1_555
C6_9 C4_9 1_555 1_555
H3_9 C5_9 1_555 1_555
C7_9 C5_9 1_555 1_555
H4_9 C6_9 1_555 1_555
O3_5 Cd4_2 1_555 1_555
C1_9 O3_5 1_555 1_555
C6_9 C7_9 1_555 1_555
Cd4_6 O2_3 1_555 1_555
Cd5 O5_4 1_555 1_555
Cd4_6 O5_4 1_555 1_555
C1_10 C2_10 1_555 1_555
C4_10 C2_10 1_555 1_555
C6_10 C4_10 1_555 1_555
H2_10 C4_10 1_555 1_555
C7_10 C5_10 1_555 1_555
H4_10 C6_10 1_555 1_555
C8_10 C7_10 1_555 1_555
C9_10 C8_10 1_555 1_555
H5_10 C8_10 1_555 1_555
H6_10 C8_10 1_555 1_555
C10_10 C9_10 1_555 1_555
C11_10 C9_10 1_555 1_555
C13_9 C11_10 1_555 1_555
H10_9 C13_9 1_555 1_555
H11_10 C13_9 1_555 1_555
H12_9 C13_9 1_555 1_555
O5_5 C1_10 1_555 1_555
Cd4_5 O5_5 1_555 1_555
N1 C10_10 1_555 1_555
N2_4 C11_10 1_555 1_555
C1_10 O3_6 1_555 1_555
C6_10 C7_10 1_555 1_555
O3_6 Cd4_4 1_555 1_555
Cd4_4 O5_5 1_555 1_555
N1 N2_4 1_555 1_555
O1_6 Cd4_3 1_555 1_555
O2_4 Cd4_3 1_555 1_555
C3_10 H1_10 1_555 1_555
H7_10 C12_10 1_555 1_555
H8_10 C12_10 1_555 1_555
H9_10 C12_10 1_555 1_555
O4_5 Cd4_3 1_555 1_555
C1_11 C2_11 1_555 1_555
C2_11 C3_11 1_555 1_555
C3_11 H1_11 1_555 1_555
C4_11 C2_11 1_555 1_555
C5_11 C3_11 1_555 1_555
C6_11 C4_11 1_555 1_555
H2_11 C4_11 1_555 1_555
H3_11 C5_11 1_555 1_555
C7_11 C5_11 1_555 1_555
H4_11 C6_11 1_555 1_555
O3_7 Cd4_4 1_555 1_555
O5_6 C1_11 1_555 1_555
Cd5_2 O5_6 1_555 1_555
C1_11 O3_7 1_555 1_555
C6_11 C7_11 1_555 1_555
O3_7 Cd4_5 1_555 1_555
Cd4_5 O5_6 1_555 1_555
C9_11 C8_11 1_555 1_555
H5_11 C8_11 1_555 1_555
H6_11 C8_11 1_555 1_555
C10_11 C9_11 1_555 1_555
C11_11 C9_11 1_555 1_555
C12_11 C10_11 1_555 1_555
C13_10 C11_11 1_555 1_555
H7_11 C12_11 1_555 1_555
H8_11 C12_11 1_555 1_555
H9_11 C12_11 1_555 1_555
H10_10 C13_10 1_555 1_555
H11_11 C13_10 1_555 1_555
H12_10 C13_10 1_555 1_555
N1_2 C10_11 1_555 1_555
N2_5 C11_11 1_555 1_555
N1_2 N2_5 1_555 1_555
O4_4 Cd4 1_555 1_555
O4_6 Cd4 1_555 1_555
C1_12 C2_12 1_555 1_555
C4_12 C2_12 1_555 1_555
C6_12 C4_12 1_555 1_555
H2_12 C4_12 1_555 1_555
C7_12 C5_12 1_555 1_555
H4_12 C6_12 1_555 1_555
C8_12 C7_12 1_555 1_555
C9_12 C8_12 1_555 1_555
H5_12 C8_12 1_555 1_555
H6_12 C8_12 1_555 1_555
C10_12 C9_12 1_555 1_555
C11_12 C9_12 1_555 1_555
C13_11 C11_12 1_555 1_555
H10_11 C13_11 1_555 1_555
H11_12 C13_11 1_555 1_555
H12_11 C13_11 1_555 1_555
O2_3 C1_12 1_555 1_555
N1_3 C10_12 1_555 1_555
N2_2 C11_12 1_555 1_555
C1_12 O1_5 1_555 1_555
C6_12 C7_12 1_555 1_555
N1_3 N2_2 1_555 1_555
C3_12 H1_12 1_555 1_555
H7_12 C12_12 1_555 1_555
H8_12 C12_12 1_555 1_555
H9_12 C12_12 1_555 1_555
H10_12 C13_12 1_555 1_555
H12_12 C13_12 1_555 1_555
O1_8 Cd5_2 1_555 1_555
O4_5 Cd5_2 1_555 1_555
C1_13 C2_13 1_555 1_555
C2_13 C3_13 1_555 1_555
C3_13 H1_13 1_555 1_555
C4_13 C2_13 1_555 1_555
C5_13 C3_13 1_555 1_555
C6_13 C4_13 1_555 1_555
H2_13 C4_13 1_555 1_555
H3_13 C5_13 1_555 1_555
C7_13 C5_13 1_555 1_555
H4_13 C6_13 1_555 1_555
C8_13 C7_13 1_555 1_555
C9_13 C8_13 1_555 1_555
H5_13 C8_13 1_555 1_555
H6_13 C8_13 1_555 1_555
C10_13 C9_13 1_555 1_555
C11_13 C9_13 1_555 1_555
C12_13 C10_13 1_555 1_555
H7_13 C12_13 1_555 1_555
H8_13 C12_13 1_555 1_555
H9_13 C12_13 1_555 1_555
O1_6 Cd5_2 1_555 1_555
O2_4 C1_13 1_555 1_555
N1_8 C10_13 1_555 1_555
N2_3 C11_13 1_555 1_555
C1_13 O1_6 1_555 1_555
C6_13 C7_13 1_555 1_555
N1_8 N2_3 1_555 1_555
C1_14 C2_14 1_555 1_555
C2_14 C3_14 1_555 1_555
C3_14 H1_14 1_555 1_555
C4_14 C2_14 1_555 1_555
C5_14 C3_14 1_555 1_555
C6_14 C4_14 1_555 1_555
H2_14 C4_14 1_555 1_555
H3_14 C5_14 1_555 1_555
C7_14 C5_14 1_555 1_555
H4_14 C6_14 1_555 1_555
C8_14 C7_14 1_555 1_555
C9_14 C8_14 1_555 1_555
H5_14 C8_14 1_555 1_555
H6_14 C8_14 1_555 1_555
C10_14 C9_14 1_555 1_555
C11_14 C9_14 1_555 1_555
C12_14 C10_14 1_555 1_555
C13_13 C11_14 1_555 1_555
H7_14 C12_14 1_555 1_555
H8_14 C12_14 1_555 1_555
H9_14 C12_14 1_555 1_555
H10_13 C13_13 1_555 1_555
H11_14 C13_13 1_555 1_555
H12_13 C13_13 1_555 1_555
O4_6 C1_14 1_555 1_555
N1_5 C10_14 1_555 1_555
N2_8 C11_14 1_555 1_555
C1_14 O3_8 1_555 1_555
C6_14 C7_14 1_555 1_555
N1_5 N2_8 1_555 1_555
C1_15 C2_15 1_555 1_555
C2_15 C3_15 1_555 1_555
C3_15 H1_15 1_555 1_555
C4_15 C2_15 1_555 1_555
C5_15 C3_15 1_555 1_555
C6_15 C4_15 1_555 1_555
H3_15 C5_15 1_555 1_555
C7_15 C5_15 1_555 1_555
H4_15 C6_15 1_555 1_555
C8_15 C7_15 1_555 1_555
C9_15 C8_15 1_555 1_555
H5_15 C8_15 1_555 1_555
H6_15 C8_15 1_555 1_555
C10_15 C9_15 1_555 1_555
C11_15 C9_15 1_555 1_555
C12_15 C10_15 1_555 1_555
H7_15 C12_15 1_555 1_555
H8_15 C12_15 1_555 1_555
H9_15 C12_15 1_555 1_555
O1_7 Cd5 1_555 1_555
N1_6 C10_15 1_555 1_555
N2 C11_15 1_555 1_555
C1_15 O1_7 1_555 1_555
C6_15 C7_15 1_555 1_555
N1_6 N2 1_555 1_555
C1_16 C2_16 1_555 1_555
C2_16 C3_16 1_555 1_555
C3_16 H1_16 1_555 1_555
C4_16 C2_16 1_555 1_555
C5_16 C3_16 1_555 1_555
C6_16 C4_16 1_555 1_555
H2_16 C4_16 1_555 1_555
H3_16 C5_16 1_555 1_555
C7_16 C5_16 1_555 1_555
H4_16 C6_16 1_555 1_555
C8_16 C7_16 1_555 1_555
C9_16 C8_16 1_555 1_555
H5_16 C8_16 1_555 1_555
H6_16 C8_16 1_555 1_555
C10_16 C9_16 1_555 1_555
C11_16 C9_16 1_555 1_555
C12_16 C10_16 1_555 1_555
C13_14 C11_16 1_555 1_555
H7_16 C12_16 1_555 1_555
H8_16 C12_16 1_555 1_555
H9_16 C12_16 1_555 1_555
H10_14 C13_14 1_555 1_555
H11_16 C13_14 1_555 1_555
H12_14 C13_14 1_555 1_555
O1_8 Cd4_5 1_555 1_555
O4_5 C1_16 1_555 1_555
N1_7 C10_16 1_555 1_555
N2_6 C11_16 1_555 1_555
C1_16 O1_8 1_555 1_555
C6_16 C7_16 1_555 1_555
N1_7 N2_6 1_555 1_555
H10_15 C13_15 1_555 1_555
H12_15 C13_15 1_555 1_555
H10_16 C13_16 1_555 1_555
H12_16 C13_16 1_555 1_555

#END
