
###############################################################################
#
# This file contains modified crystal structure data generated from the
# MOF subset of the Cambridge Structural Database (CSD) v543 
# hosted by the Cambridge Crystallographic Data Centre (CCDC).
#
# This work is licensed under the Creative Commons
# Attribution-NonCommercial-ShareAlike 4.0 International License.
# To view a copy of this license, visit
# http://creativecommons.org/licenses/by-nc-sa/4.0/
# or send a letter to
# Creative Commons, PO Box 1866, Mountain View, CA 94042, USA.
#
# CIF created using the CSD Python API on 29 September 2022
# The structure has been converted into the P1 space group
# The structure has a 3D framework
# The original CSD entry EROJUS04 is in the tetragonal crystal system
# The framework has been calculated to contain at least 10.0% void space
# The void calculation uses a probe of radius 1.32A, grid spacing 0.4
#
###############################################################################

data_EROJUS04
_chemical_formula_moiety         '(C208 H192 Cd12 N32 O28)n'
_symmetry_cell_setting           triclinic
_symmetry_space_group_name_H-M   'P 1'
_symmetry_Int_Tables_number      1
_space_group_name_Hall           'P 1'
loop_
_symmetry_equiv_pos_site_id
_symmetry_equiv_pos_as_xyz
1 x,y,z
_cell_length_a                   24.6108(3)
_cell_length_b                   24.6108(3)
_cell_length_c                   10.76785(17)
_cell_angle_alpha                90
_cell_angle_beta                 90
_cell_angle_gamma                90
_cell_volume                     6521.99
loop_
_atom_site_label
_atom_site_type_symbol
_atom_site_fract_x
_atom_site_fract_y
_atom_site_fract_z
C1 C 0.30380(9) 0.51572(10) 0.2792(2)
C2 C 0.35940(10) 0.54020(10) 0.2738(2)
C3 C 0.39957(11) 0.52490(12) 0.3565(3)
H1 H 0.3927 0.4979 0.4148
C4 C 0.45025(11) 0.54975(14) 0.3526(3)
H2 H 0.4768 0.5398 0.4098
C5 C 0.46174(10) 0.58940(10) 0.2642(3)
C6 C 0.42169(11) 0.60316(12) 0.1801(3)
H3 H 0.4291 0.6289 0.1191
C7 C 0.37081(11) 0.57939(12) 0.1850(3)
H4 H 0.3442 0.5897 0.1285
C8 C 0.51609(11) 0.61901(12) 0.2606(3)
H5 H 0.5211 0.6338 0.1779
H6 H 0.5144 0.6494 0.3178
C9 C 0.56527(10) 0.58529(10) 0.2928(3)
C10 C 0.60390(10) 0.59590(10) 0.3836(3)
C11 C 0.60589(13) 0.63977(13) 0.4795(3)
H7 H 0.6141 0.6738 0.4403
H8 H 0.6335 0.6314 0.5395
H9 H 0.5713 0.6422 0.5204
C12 C 0.58405(10) 0.53928(11) 0.2309(3)
C13 C 0.56062(13) 0.51021(13) 0.1212(3)
H10 H 0.5266 0.4940 0.1441
H11 H 0.5854 0.4824 0.0944
H12 H 0.5549 0.5356 0.0548
Cd1 Cd 0.22255(2) 0.55203(2) 0.03510(2)
N1 N 0.63119(8) 0.52310(8) 0.28170(19)
N2 N 0.64364(8) 0.55851(8) 0.37630(19)
O1 O 0.26372(7) 0.54178(7) 0.23507(15)
O2 O 0.29759(7) 0.46901(7) 0.32866(16)
Cd2 Cd 0.19797(2) 0.47255(2) 0.28510(2)
Cd3 Cd 0.27745(2) 0.44797(2) 0.53510(2)
Cd4 Cd 0.72255(2) 0.55203(2) 0.46490(2)
Cd5 Cd 0.69797(2) 0.47255(2) 0.21490(2)
N4 N 0.14364(8) 0.55851(8) 0.12370(19)
O5 O 0.21901(7) 0.45241(7) 0.07866(16)
N3 N 0.27310(8) 0.61881(8) 0.96830(19)
O3 O 0.29178(7) 0.48628(7) 0.98507(15)
O4 O 0.20241(7) 0.53099(7) 0.82866(16)
C1_2 C 0.23428(10) 0.55380(9) 0.5292(2)
C2_2 C 0.20980(10) 0.60940(10) 0.5238(2)
C3_2 C 0.22510(12) 0.64957(11) 0.6065(3)
H1_2 H 0.2521 0.6427 0.6648
C4_2 C 0.20025(14) 0.70025(11) 0.6026(3)
H2_2 H 0.2102 0.7268 0.6598
C5_2 C 0.16060(10) 0.71174(10) 0.5142(3)
C6_2 C 0.14684(12) 0.67169(11) 0.4301(3)
H3_2 H 0.1211 0.6791 0.3691
C7_2 C 0.17061(12) 0.62081(11) 0.4350(3)
H4_2 H 0.1603 0.5942 0.3785
C8_2 C 0.13099(12) 0.76609(11) 0.5106(3)
H5_2 H 0.1162 0.7711 0.4279
H6_2 H 0.1006 0.7644 0.5678
C9_2 C 0.16471(10) 0.81527(10) 0.5428(3)
C10_2 C 0.15410(10) 0.85390(10) 0.6336(3)
C11_2 C 0.11023(13) 0.85589(13) 0.7295(3)
H7_2 H 0.0762 0.8641 0.6903
H8_2 H 0.1186 0.8835 0.7895
H9_2 H 0.1078 0.8213 0.7704
C12_2 C 0.21072(11) 0.83405(10) 0.4809(3)
C13_2 C 0.23979(13) 0.81062(13) 0.3712(3)
H10_2 H 0.2560 0.7766 0.3941
H11_2 H 0.2676 0.8354 0.3444
H12_2 H 0.2144 0.8049 0.3048
N1_2 N 0.22690(8) 0.88119(8) 0.53170(19)
N2_2 N 0.19149(8) 0.89364(8) 0.62630(19)
O1_2 O 0.20822(7) 0.51372(7) 0.48507(15)
O2_2 O 0.28099(7) 0.54759(7) 0.57866(16)
Cd3_2 Cd 0.30203(2) 0.52745(2) 0.78510(2)
Cd4_2 Cd 0.19797(2) 0.97255(2) 0.71490(2)
Cd5_2 Cd 0.27745(2) 0.94797(2) 0.46490(2)
N3_2 N 0.13119(8) 0.52310(8) 0.21830(19)
N4_2 N 0.19149(8) 0.39364(8) 0.37370(19)
H1_3 H 0.6073 0.0021 0.4148
H10_3 H 0.4734 0.0060 0.1441
H11_3 H 0.4146 0.0176 0.0944
O2_3 O 0.70241(7) 0.03099(7) 0.32866(16)
Cd2_2 Cd 0.80203(2) 0.02745(2) 0.28510(2)
Cd3_3 Cd 0.72255(2) 0.05203(2) 0.53510(2)
Cd5_3 Cd 0.30203(2) 0.02745(2) 0.21490(2)
O5_2 O 0.78099(7) 0.04759(7) 0.07866(16)
O3_2 O 0.70822(7) 0.01372(7) 0.98507(15)
C1_3 C 0.69620(9) 0.98428(10) 0.2792(2)
C2_3 C 0.64060(10) 0.95980(10) 0.2738(2)
C3_3 C 0.60043(11) 0.97510(12) 0.3565(3)
C4_3 C 0.54975(11) 0.95025(14) 0.3526(3)
H2_3 H 0.5232 0.9602 0.4098
C5_3 C 0.53826(10) 0.91060(10) 0.2642(3)
C6_3 C 0.57831(11) 0.89684(12) 0.1801(3)
H3_3 H 0.5709 0.8711 0.1191
C7_3 C 0.62919(11) 0.92061(12) 0.1850(3)
H4_3 H 0.6558 0.9103 0.1285
C8_3 C 0.48391(11) 0.88099(12) 0.2606(3)
H5_3 H 0.4789 0.8662 0.1779
H6_3 H 0.4856 0.8506 0.3178
C9_3 C 0.43473(10) 0.91471(10) 0.2928(3)
C10_3 C 0.39610(10) 0.90410(10) 0.3836(3)
C11_3 C 0.39411(13) 0.86023(13) 0.4795(3)
H7_3 H 0.3859 0.8262 0.4403
H8_3 H 0.3665 0.8686 0.5395
H9_3 H 0.4287 0.8578 0.5204
C12_3 C 0.41595(10) 0.96072(11) 0.2309(3)
C13_3 C 0.43938(13) 0.98979(13) 0.1212(3)
H12_3 H 0.4451 0.9644 0.0548
Cd1_2 Cd 0.77745(2) 0.94797(2) 0.03510(2)
N1_3 N 0.36881(8) 0.97690(8) 0.28170(19)
N2_3 N 0.35636(8) 0.94149(8) 0.37630(19)
O1_3 O 0.73628(7) 0.95822(7) 0.23507(15)
N4_3 N 0.85636(8) 0.94149(8) 0.12370(19)
N3_3 N 0.72690(8) 0.88119(8) 0.96830(19)
O4_2 O 0.79759(7) 0.96901(7) 0.82866(16)
N4_4 N 0.80851(8) 0.10636(8) 0.37370(19)
C1_4 C 0.76572(10) 0.94620(9) 0.5292(2)
C2_4 C 0.79020(10) 0.89060(10) 0.5238(2)
C3_4 C 0.77490(12) 0.85043(11) 0.6065(3)
H1_4 H 0.7479 0.8573 0.6648
C4_4 C 0.79975(14) 0.79975(11) 0.6026(3)
H2_4 H 0.7898 0.7732 0.6598
C5_4 C 0.83940(10) 0.78826(10) 0.5142(3)
C6_4 C 0.85316(12) 0.82831(11) 0.4301(3)
H3_4 H 0.8789 0.8209 0.3691
C7_4 C 0.82939(12) 0.87919(11) 0.4350(3)
H4_4 H 0.8397 0.9058 0.3785
C8_4 C 0.86901(12) 0.73391(11) 0.5106(3)
H5_4 H 0.8838 0.7289 0.4279
H6_4 H 0.8994 0.7356 0.5678
C9_4 C 0.83529(10) 0.68473(10) 0.5428(3)
C10_4 C 0.84590(10) 0.64610(10) 0.6336(3)
C11_4 C 0.88977(13) 0.64411(13) 0.7295(3)
H7_4 H 0.9238 0.6359 0.6903
H8_4 H 0.8814 0.6165 0.7895
H9_4 H 0.8922 0.6787 0.7704
C12_4 C 0.78928(11) 0.66595(10) 0.4809(3)
C13_4 C 0.76021(13) 0.68938(13) 0.3712(3)
H10_4 H 0.7440 0.7234 0.3941
H11_4 H 0.7324 0.6646 0.3444
H12_4 H 0.7856 0.6951 0.3048
N1_4 N 0.77310(8) 0.61881(8) 0.53170(19)
N2_4 N 0.80851(8) 0.60636(8) 0.62630(19)
O1_4 O 0.79178(7) 0.98628(7) 0.48507(15)
O2_4 O 0.71901(7) 0.95241(7) 0.57866(16)
Cd3_4 Cd 0.69797(2) 0.97255(2) 0.78510(2)
Cd4_3 Cd 0.80203(2) 0.52745(2) 0.71490(2)
N3_4 N 0.86881(8) 0.97690(8) 0.21830(19)
C8_5 C 0.01609(11) 0.11901(12) 0.7606(3)
H5_5 H 0.0211 0.1338 0.6779
H6_5 H 0.0144 0.1494 0.8178
C9_5 C 0.06527(10) 0.08529(10) 0.7928(3)
C10_5 C 0.10390(10) 0.09590(10) 0.8836(3)
C11_5 C 0.10589(13) 0.13977(13) 0.9795(3)
H7_5 H 0.1141 0.1738 0.9403
C12_5 C 0.08405(10) 0.03928(11) 0.7309(3)
C13_5 C 0.06062(13) 0.01021(13) 0.6212(3)
H12_5 H 0.0549 0.0356 0.5548
N1_5 N 0.13119(8) 0.02310(8) 0.78170(19)
N2_5 N 0.14364(8) 0.05851(8) 0.87630(19)
Cd4_4 Cd 0.22255(2) 0.05203(2) 0.96490(2)
H10_5 H 0.0266 0.9940 0.6441
H11_5 H 0.0854 0.9824 0.5944
C1_5 C 0.80380(9) 0.01572(10) 0.7792(2)
C2_5 C 0.85940(10) 0.04020(10) 0.7738(2)
C3_5 C 0.89957(11) 0.02490(12) 0.8565(3)
C4_5 C 0.95025(11) 0.04975(14) 0.8526(3)
H2_5 H 0.9768 0.0398 0.9098
C5_5 C 0.96174(10) 0.08940(10) 0.7642(3)
C6_5 C 0.92169(11) 0.10316(12) 0.6801(3)
H3_5 H 0.9291 0.1289 0.6191
C7_5 C 0.87081(11) 0.07939(12) 0.6850(3)
H4_5 H 0.8442 0.0897 0.6285
O1_5 O 0.76372(7) 0.04178(7) 0.73507(15)
N3_5 N 0.77310(8) 0.11881(8) 0.46830(19)
N4_5 N 0.64364(8) 0.05851(8) 0.62370(19)
H1_5 H 0.8927 0.9979 0.9148
C1_6 C 0.73428(10) 0.05380(9) 0.0292(2)
C2_6 C 0.70980(10) 0.10940(10) 0.0238(2)
C3_6 C 0.72510(12) 0.14957(11) 0.1065(3)
H1_6 H 0.7521 0.1427 0.1648
C4_6 C 0.70025(14) 0.20025(11) 0.1026(3)
H2_6 H 0.7102 0.2268 0.1598
C5_6 C 0.66060(10) 0.21174(10) 0.0142(3)
C8_6 C 0.63099(12) 0.26609(11) 0.0106(3)
H6_6 H 0.6006 0.2644 0.0678
C9_6 C 0.66471(10) 0.31527(10) 0.0428(3)
C10_6 C 0.65410(10) 0.35390(10) 0.1336(3)
C11_6 C 0.61023(13) 0.35589(13) 0.2295(3)
H7_6 H 0.5762 0.3641 0.1903
H8_5 H 0.6186 0.3835 0.2895
H9_5 H 0.6078 0.3213 0.2704
N1_6 N 0.72690(8) 0.38119(8) 0.03170(19)
N2_6 N 0.69149(8) 0.39364(8) 0.12630(19)
C6_6 C 0.64684(12) 0.17169(11) 0.9301(3)
H3_6 H 0.6211 0.1791 0.8691
C7_6 C 0.67061(12) 0.12081(11) 0.9350(3)
H4_6 H 0.6603 0.0942 0.8785
H5_6 H 0.6162 0.2711 0.9279
C12_6 C 0.71072(11) 0.33405(10) 0.9809(3)
C13_6 C 0.73979(13) 0.31062(13) 0.8712(3)
H10_6 H 0.7560 0.2766 0.8941
H11_6 H 0.7676 0.3354 0.8444
H12_6 H 0.7144 0.3049 0.8048
Cd5_4 Cd 0.77745(2) 0.44797(2) 0.96490(2)
N3_6 N 0.63119(8) 0.02310(8) 0.71830(19)
N4_6 N 0.69149(8) 0.89364(8) 0.87370(19)
C1_7 C 0.19620(9) 0.48428(10) 0.7792(2)
C2_7 C 0.14060(10) 0.45980(10) 0.7738(2)
C3_7 C 0.10043(11) 0.47510(12) 0.8565(3)
H1_7 H 0.1073 0.5021 0.9148
C4_7 C 0.04975(11) 0.45025(14) 0.8526(3)
H2_7 H 0.0232 0.4602 0.9098
C5_7 C 0.03826(10) 0.41060(10) 0.7642(3)
C6_7 C 0.07831(11) 0.39684(12) 0.6801(3)
H3_7 H 0.0709 0.3711 0.6191
C7_7 C 0.12919(11) 0.42061(12) 0.6850(3)
H4_7 H 0.1558 0.4103 0.6285
O1_6 O 0.23628(7) 0.45822(7) 0.73507(15)
N3_7 N 0.22690(8) 0.38119(8) 0.46830(19)
N4_7 N 0.35636(8) 0.44149(8) 0.62370(19)
C8_7 C 0.98391(11) 0.38099(12) 0.7606(3)
H5_7 H 0.9789 0.3662 0.6779
H6_7 H 0.9856 0.3506 0.8178
C9_7 C 0.93473(10) 0.41471(10) 0.7928(3)
C10_7 C 0.89610(10) 0.40410(10) 0.8836(3)
C11_7 C 0.89411(13) 0.36023(13) 0.9795(3)
H7_7 H 0.8859 0.3262 0.9403
C12_7 C 0.91595(10) 0.46072(11) 0.7309(3)
C13_7 C 0.93938(13) 0.48979(13) 0.6212(3)
H10_7 H 0.9734 0.5060 0.6441
H11_7 H 0.9146 0.5176 0.5944
H12_7 H 0.9451 0.4644 0.5548
N1_7 N 0.86881(8) 0.47690(8) 0.78170(19)
N2_7 N 0.85636(8) 0.44149(8) 0.87630(19)
C1_8 C 0.26572(10) 0.44620(9) 0.0292(2)
C2_8 C 0.29020(10) 0.39060(10) 0.0238(2)
C3_8 C 0.27490(12) 0.35043(11) 0.1065(3)
H1_8 H 0.2479 0.3573 0.1648
C4_8 C 0.29975(14) 0.29975(11) 0.1026(3)
H2_8 H 0.2898 0.2732 0.1598
C5_8 C 0.33940(10) 0.28826(10) 0.0142(3)
C8_8 C 0.36901(12) 0.23391(11) 0.0106(3)
H6_8 H 0.3994 0.2356 0.0678
C9_8 C 0.33529(10) 0.18473(10) 0.0428(3)
C10_8 C 0.34590(10) 0.14610(10) 0.1336(3)
C11_8 C 0.38977(13) 0.14411(13) 0.2295(3)
H7_8 H 0.4238 0.1359 0.1903
H8_6 H 0.3814 0.1165 0.2895
H9_6 H 0.3922 0.1787 0.2704
N1_8 N 0.27310(8) 0.11881(8) 0.03170(19)
N2_8 N 0.30851(8) 0.10636(8) 0.12630(19)
C6_8 C 0.35316(12) 0.32831(11) 0.9301(3)
H3_8 H 0.3789 0.3209 0.8691
C7_8 C 0.32939(12) 0.37919(11) 0.9350(3)
H4_8 H 0.3397 0.4058 0.8785
H5_8 H 0.3838 0.2289 0.9279
C12_8 C 0.28928(11) 0.16595(10) 0.9809(3)
C13_8 C 0.26021(13) 0.18938(13) 0.8712(3)
H10_8 H 0.2440 0.2234 0.8941
H11_8 H 0.2324 0.1646 0.8444
H12_8 H 0.2856 0.1951 0.8048
N3_8 N 0.36881(8) 0.47690(8) 0.71830(19)
N4_8 N 0.30851(8) 0.60636(8) 0.87370(19)
O3_3 O 0.70822(7) 0.51372(7) 0.01493(15)
O4_3 O 0.79759(7) 0.46901(7) 0.17134(16)
C1_9 C 0.69620(9) 0.48428(10) 0.7208(2)
C2_9 C 0.64060(10) 0.45980(10) 0.7262(2)
C3_9 C 0.60043(11) 0.47510(12) 0.6435(3)
H1_9 H 0.6073 0.5021 0.5852
C4_9 C 0.54975(11) 0.45025(14) 0.6474(3)
H2_9 H 0.5232 0.4602 0.5902
C5_9 C 0.53826(10) 0.41060(10) 0.7358(3)
C6_9 C 0.57831(11) 0.39684(12) 0.8199(3)
H3_9 H 0.5709 0.3711 0.8809
C7_9 C 0.62919(11) 0.42061(12) 0.8150(3)
H4_9 H 0.6558 0.4103 0.8715
C8_9 C 0.48391(11) 0.38099(12) 0.7394(3)
H5_9 H 0.4789 0.3662 0.8221
H6_9 H 0.4856 0.3506 0.6822
C9_9 C 0.43473(10) 0.41471(10) 0.7072(3)
C10_9 C 0.39610(10) 0.40410(10) 0.6164(3)
C11_9 C 0.39411(13) 0.36023(13) 0.5205(3)
H7_9 H 0.3859 0.3262 0.5597
H8_7 H 0.3665 0.3686 0.4605
H9_7 H 0.4287 0.3578 0.4796
C12_9 C 0.41595(10) 0.46072(11) 0.7691(3)
C13_9 C 0.43938(13) 0.48979(13) 0.8788(3)
H10_9 H 0.4734 0.5060 0.8559
H11_9 H 0.4146 0.5176 0.9056
H12_9 H 0.4451 0.4644 0.9452
O1_7 O 0.73628(7) 0.45822(7) 0.76493(15)
O2_5 O 0.70241(7) 0.53099(7) 0.67134(16)
O5_3 O 0.78099(7) 0.54759(7) 0.92134(16)
C1_10 C 0.76572(10) 0.44620(9) 0.4708(2)
C2_10 C 0.79020(10) 0.39060(10) 0.4762(2)
C3_10 C 0.77490(12) 0.35043(11) 0.3935(3)
H1_10 H 0.7479 0.3573 0.3352
C4_10 C 0.79975(14) 0.29975(11) 0.3974(3)
H2_10 H 0.7898 0.2732 0.3402
C5_10 C 0.83940(10) 0.28826(10) 0.4858(3)
C6_10 C 0.85316(12) 0.32831(11) 0.5699(3)
H3_10 H 0.8789 0.3209 0.6309
C7_10 C 0.82939(12) 0.37919(11) 0.5650(3)
H4_10 H 0.8397 0.4058 0.6215
C8_10 C 0.86901(12) 0.23391(11) 0.4894(3)
H5_10 H 0.8838 0.2289 0.5721
H6_10 H 0.8994 0.2356 0.4322
C9_10 C 0.83529(10) 0.18473(10) 0.4572(3)
C10_10 C 0.84590(10) 0.14610(10) 0.3664(3)
C11_10 C 0.88977(13) 0.14411(13) 0.2705(3)
H7_10 H 0.9238 0.1359 0.3097
H8_8 H 0.8814 0.1165 0.2105
H9_8 H 0.8922 0.1787 0.2296
C12_10 C 0.78928(11) 0.16595(10) 0.5191(3)
C13_10 C 0.76021(13) 0.18938(13) 0.6288(3)
H10_10 H 0.7440 0.2234 0.6059
H11_10 H 0.7324 0.1646 0.6556
H12_10 H 0.7856 0.1951 0.6952
O1_8 O 0.79178(7) 0.48628(7) 0.51493(15)
O2_6 O 0.71901(7) 0.45241(7) 0.42134(16)
O4_4 O 0.20241(7) 0.03099(7) 0.17134(16)
C1_11 C 0.30380(9) 0.01572(10) 0.7208(2)
C2_11 C 0.35940(10) 0.04020(10) 0.7262(2)
C3_11 C 0.39957(11) 0.02490(12) 0.6435(3)
C4_11 C 0.45025(11) 0.04975(14) 0.6474(3)
H2_11 H 0.4768 0.0398 0.5902
C5_11 C 0.46174(10) 0.08940(10) 0.7358(3)
C6_11 C 0.42169(11) 0.10316(12) 0.8199(3)
H3_11 H 0.4291 0.1289 0.8809
C7_11 C 0.37081(11) 0.07939(12) 0.8150(3)
H4_11 H 0.3442 0.0897 0.8715
C8_11 C 0.51609(11) 0.11901(12) 0.7394(3)
H5_11 H 0.5211 0.1338 0.8221
H6_11 H 0.5144 0.1494 0.6822
C9_11 C 0.56527(10) 0.08529(10) 0.7072(3)
C10_11 C 0.60390(10) 0.09590(10) 0.6164(3)
C11_11 C 0.60589(13) 0.13977(13) 0.5205(3)
H7_11 H 0.6141 0.1738 0.5597
H8_9 H 0.6335 0.1314 0.4605
H9_9 H 0.5713 0.1422 0.4796
C12_11 C 0.58405(10) 0.03928(11) 0.7691(3)
C13_11 C 0.56062(13) 0.01021(13) 0.8788(3)
H12_11 H 0.5549 0.0356 0.9452
O1_9 O 0.26372(7) 0.04178(7) 0.76493(15)
O3_4 O 0.29178(7) 0.98628(7) 0.01493(15)
H1_11 H 0.3927 0.9979 0.5852
H10_11 H 0.5266 0.9940 0.8559
H11_11 H 0.5854 0.9824 0.9056
O2_7 O 0.29759(7) 0.96901(7) 0.67134(16)
O5_4 O 0.21901(7) 0.95241(7) 0.92134(16)
C1_12 C 0.23428(10) 0.05380(9) 0.4708(2)
C2_12 C 0.20980(10) 0.10940(10) 0.4762(2)
C3_12 C 0.22510(12) 0.14957(11) 0.3935(3)
H1_12 H 0.2521 0.1427 0.3352
C4_12 C 0.20025(14) 0.20025(11) 0.3974(3)
H2_12 H 0.2102 0.2268 0.3402
C5_12 C 0.16060(10) 0.21174(10) 0.4858(3)
C6_12 C 0.14684(12) 0.17169(11) 0.5699(3)
H3_12 H 0.1211 0.1791 0.6309
C7_12 C 0.17061(12) 0.12081(11) 0.5650(3)
H4_12 H 0.1603 0.0942 0.6215
C8_12 C 0.13099(12) 0.26609(11) 0.4894(3)
H5_12 H 0.1162 0.2711 0.5721
H6_12 H 0.1006 0.2644 0.4322
C9_12 C 0.16471(10) 0.31527(10) 0.4572(3)
C10_12 C 0.15410(10) 0.35390(10) 0.3664(3)
C11_12 C 0.11023(13) 0.35589(13) 0.2705(3)
H7_12 H 0.0762 0.3641 0.3097
H8_10 H 0.1186 0.3835 0.2105
H9_10 H 0.1078 0.3213 0.2296
C12_12 C 0.21072(11) 0.33405(10) 0.5191(3)
C13_12 C 0.23979(13) 0.31062(13) 0.6288(3)
H10_12 H 0.2560 0.2766 0.6059
H11_12 H 0.2676 0.3354 0.6556
H12_12 H 0.2144 0.3049 0.6952
O1_10 O 0.20822(7) 0.01372(7) 0.51493(15)
O2_8 O 0.28099(7) 0.04759(7) 0.42134(16)
H1_13 H 0.1073 0.0021 0.0852
C1_13 C 0.19620(9) 0.98428(10) 0.2208(2)
C2_13 C 0.14060(10) 0.95980(10) 0.2262(2)
C3_13 C 0.10043(11) 0.97510(12) 0.1435(3)
C4_13 C 0.04975(11) 0.95025(14) 0.1474(3)
H2_13 H 0.0232 0.9602 0.0902
C5_13 C 0.03826(10) 0.91060(10) 0.2358(3)
C6_13 C 0.07831(11) 0.89684(12) 0.3199(3)
H3_13 H 0.0709 0.8711 0.3809
C7_13 C 0.12919(11) 0.92061(12) 0.3150(3)
H4_13 H 0.1558 0.9103 0.3715
O1_11 O 0.23628(7) 0.95822(7) 0.26493(15)
H10_13 H 0.9734 0.0060 0.3559
H11_13 H 0.9146 0.0176 0.4056
C8_13 C 0.98391(11) 0.88099(12) 0.2394(3)
H5_13 H 0.9789 0.8662 0.3221
H6_13 H 0.9856 0.8506 0.1822
C9_13 C 0.93473(10) 0.91471(10) 0.2072(3)
C10_13 C 0.89610(10) 0.90410(10) 0.1164(3)
C11_13 C 0.89411(13) 0.86023(13) 0.0205(3)
H7_13 H 0.8859 0.8262 0.0597
C12_13 C 0.91595(10) 0.96072(11) 0.2691(3)
C13_13 C 0.93938(13) 0.98979(13) 0.3788(3)
H12_13 H 0.9451 0.9644 0.4452
C6_14 C 0.35316(12) 0.82831(11) 0.0699(3)
H3_14 H 0.3789 0.8209 0.1309
C7_14 C 0.32939(12) 0.87919(11) 0.0650(3)
H4_14 H 0.3397 0.9058 0.1215
H5_14 H 0.3838 0.7289 0.0721
C12_14 C 0.28928(11) 0.66595(10) 0.0191(3)
C13_14 C 0.26021(13) 0.68938(13) 0.1288(3)
H10_14 H 0.2440 0.7234 0.1059
H11_14 H 0.2324 0.6646 0.1556
H12_14 H 0.2856 0.6951 0.1952
C1_14 C 0.26572(10) 0.94620(9) 0.9708(2)
C2_14 C 0.29020(10) 0.89060(10) 0.9762(2)
C3_14 C 0.27490(12) 0.85043(11) 0.8935(3)
H1_14 H 0.2479 0.8573 0.8352
C4_14 C 0.29975(14) 0.79975(11) 0.8974(3)
H2_14 H 0.2898 0.7732 0.8402
C5_14 C 0.33940(10) 0.78826(10) 0.9858(3)
C8_14 C 0.36901(12) 0.73391(11) 0.9894(3)
H6_14 H 0.3994 0.7356 0.9322
C9_14 C 0.33529(10) 0.68473(10) 0.9572(3)
C10_14 C 0.34590(10) 0.64610(10) 0.8664(3)
C11_14 C 0.38977(13) 0.64411(13) 0.7705(3)
H7_14 H 0.4238 0.6359 0.8097
H8_11 H 0.3814 0.6165 0.7105
H9_11 H 0.3922 0.6787 0.7296
C8_15 C 0.01609(11) 0.61901(12) 0.2394(3)
H5_15 H 0.0211 0.6338 0.3221
H6_15 H 0.0144 0.6494 0.1822
C9_15 C 0.06527(10) 0.58529(10) 0.2072(3)
C10_15 C 0.10390(10) 0.59590(10) 0.1164(3)
C11_15 C 0.10589(13) 0.63977(13) 0.0205(3)
H7_15 H 0.1141 0.6738 0.0597
C12_15 C 0.08405(10) 0.53928(11) 0.2691(3)
C13_15 C 0.06062(13) 0.51021(13) 0.3788(3)
H10_15 H 0.0266 0.4940 0.3559
H11_15 H 0.0854 0.4824 0.4056
H12_15 H 0.0549 0.5356 0.4452
C1_15 C 0.80380(9) 0.51572(10) 0.2208(2)
C2_15 C 0.85940(10) 0.54020(10) 0.2262(2)
C3_15 C 0.89957(11) 0.52490(12) 0.1435(3)
H1_15 H 0.8927 0.4979 0.0852
C4_15 C 0.95025(11) 0.54975(14) 0.1474(3)
H2_15 H 0.9768 0.5398 0.0902
C5_15 C 0.96174(10) 0.58940(10) 0.2358(3)
C6_15 C 0.92169(11) 0.60316(12) 0.3199(3)
H3_15 H 0.9291 0.6289 0.3809
C7_15 C 0.87081(11) 0.57939(12) 0.3150(3)
H4_15 H 0.8442 0.5897 0.3715
O1_12 O 0.76372(7) 0.54178(7) 0.26493(15)
C6_16 C 0.64684(12) 0.67169(11) 0.0699(3)
H3_16 H 0.6211 0.6791 0.1309
C7_16 C 0.67061(12) 0.62081(11) 0.0650(3)
H4_16 H 0.6603 0.5942 0.1215
H5_16 H 0.6162 0.7711 0.0721
C12_16 C 0.71072(11) 0.83405(10) 0.0191(3)
C13_16 C 0.73979(13) 0.81062(13) 0.1288(3)
H10_16 H 0.7560 0.7766 0.1059
H11_16 H 0.7676 0.8354 0.1556
H12_16 H 0.7144 0.8049 0.1952
C1_16 C 0.73428(10) 0.55380(9) 0.9708(2)
C2_16 C 0.70980(10) 0.60940(10) 0.9762(2)
C3_16 C 0.72510(12) 0.64957(11) 0.8935(3)
H1_16 H 0.7521 0.6427 0.8352
C4_16 C 0.70025(14) 0.70025(11) 0.8974(3)
H2_16 H 0.7102 0.7268 0.8402
C5_16 C 0.66060(10) 0.71174(10) 0.9858(3)
C8_16 C 0.63099(12) 0.76609(11) 0.9894(3)
H6_16 H 0.6006 0.7644 0.9322
C9_16 C 0.66471(10) 0.81527(10) 0.9572(3)
C10_16 C 0.65410(10) 0.85390(10) 0.8664(3)
C11_16 C 0.61023(13) 0.85589(13) 0.7705(3)
H7_16 H 0.5762 0.8641 0.8097
H8_12 H 0.6186 0.8835 0.7105
H9_12 H 0.6078 0.8213 0.7296
H8_13 H 0.1335 0.1314 0.0395
H9_13 H 0.0713 0.1422 0.0204
H8_14 H 0.8665 0.3686 0.0395
H9_14 H 0.9287 0.3578 0.0204
H8_15 H 0.8665 0.8686 0.9605
H9_15 H 0.9287 0.8578 0.9796
H8_16 H 0.1335 0.6314 0.9605
H9_16 H 0.0713 0.6422 0.9796
loop_
_geom_bond_atom_site_label_1
_geom_bond_atom_site_label_2
_geom_bond_site_symmetry_1
_geom_bond_site_symmetry_2
C1 C2 1_555 1_555
C2 C3 1_555 1_555
C3 H1 1_555 1_555
C4 C3 1_555 1_555
H2 C4 1_555 1_555
C5 C4 1_555 1_555
C6 C5 1_555 1_555
H3 C6 1_555 1_555
C7 C2 1_555 1_555
H4 C7 1_555 1_555
C8 C5 1_555 1_555
H5 C8 1_555 1_555
H6 C8 1_555 1_555
C9 C8 1_555 1_555
C10 C9 1_555 1_555
C11 C10 1_555 1_555
H7 C11 1_555 1_555
H8 C11 1_555 1_555
H9 C11 1_555 1_555
C12 C9 1_555 1_555
C13 C12 1_555 1_555
H10 C13 1_555 1_555
H11 C13 1_555 1_555
H12 C13 1_555 1_555
Cd1 O1 1_555 1_555
N1 C12 1_555 1_555
N2 C10 1_555 1_555
O1 C1 1_555 1_555
O2 C1 1_555 1_555
Cd2 O1 1_555 1_555
Cd3 O2 1_555 1_555
Cd4 N2 1_555 1_555
Cd5 N1 1_555 1_555
N4 Cd1 1_555 1_555
O5 Cd1 1_555 1_555
C6 C7 1_555 1_555
N1 N2 1_555 1_555
O2 Cd2 1_555 1_555
Cd2 O5 1_555 1_555
C1_2 C2_2 1_555 1_555
C2_2 C3_2 1_555 1_555
C3_2 H1_2 1_555 1_555
C4_2 C3_2 1_555 1_555
H2_2 C4_2 1_555 1_555
C5_2 C4_2 1_555 1_555
C6_2 C5_2 1_555 1_555
H3_2 C6_2 1_555 1_555
C7_2 C2_2 1_555 1_555
H4_2 C7_2 1_555 1_555
C8_2 C5_2 1_555 1_555
H5_2 C8_2 1_555 1_555
H6_2 C8_2 1_555 1_555
C9_2 C8_2 1_555 1_555
C10_2 C9_2 1_555 1_555
C11_2 C10_2 1_555 1_555
H7_2 C11_2 1_555 1_555
H8_2 C11_2 1_555 1_555
H9_2 C11_2 1_555 1_555
C12_2 C9_2 1_555 1_555
C13_2 C12_2 1_555 1_555
H10_2 C13_2 1_555 1_555
H11_2 C13_2 1_555 1_555
H12_2 C13_2 1_555 1_555
Cd2 O1_2 1_555 1_555
N1_2 C12_2 1_555 1_555
N2_2 C10_2 1_555 1_555
O1_2 C1_2 1_555 1_555
O2_2 C1_2 1_555 1_555
Cd3 O1_2 1_555 1_555
Cd3_2 O2_2 1_555 1_555
Cd4_2 N2_2 1_555 1_555
Cd5_2 N1_2 1_555 1_555
N3_2 Cd2 1_555 1_555
N4_2 Cd2 1_555 1_555
C6_2 C7_2 1_555 1_555
N1_2 N2_2 1_555 1_555
O2_2 Cd3 1_555 1_555
Cd3_3 O2_3 1_555 1_555
O2_3 Cd2_2 1_555 1_555
Cd2_2 O5_2 1_555 1_555
C1_3 C2_3 1_555 1_555
C2_3 C3_3 1_555 1_555
C4_3 C3_3 1_555 1_555
H2_3 C4_3 1_555 1_555
C5_3 C4_3 1_555 1_555
C6_3 C5_3 1_555 1_555
H3_3 C6_3 1_555 1_555
C7_3 C2_3 1_555 1_555
H4_3 C7_3 1_555 1_555
C8_3 C5_3 1_555 1_555
H5_3 C8_3 1_555 1_555
H6_3 C8_3 1_555 1_555
C9_3 C8_3 1_555 1_555
C10_3 C9_3 1_555 1_555
C11_3 C10_3 1_555 1_555
H7_3 C11_3 1_555 1_555
H8_3 C11_3 1_555 1_555
H9_3 C11_3 1_555 1_555
C12_3 C9_3 1_555 1_555
C13_3 C12_3 1_555 1_555
H12_3 C13_3 1_555 1_555
Cd1_2 O1_3 1_555 1_555
N1_3 C12_3 1_555 1_555
N2_3 C10_3 1_555 1_555
O1_3 C1_3 1_555 1_555
Cd5_2 N2_3 1_555 1_555
N4_3 Cd1_2 1_555 1_555
C6_3 C7_3 1_555 1_555
N1_3 N2_3 1_555 1_555
N4_4 Cd2_2 1_555 1_555
C1_4 C2_4 1_555 1_555
C2_4 C3_4 1_555 1_555
C3_4 H1_4 1_555 1_555
C4_4 C3_4 1_555 1_555
H2_4 C4_4 1_555 1_555
C5_4 C4_4 1_555 1_555
C6_4 C5_4 1_555 1_555
H3_4 C6_4 1_555 1_555
C7_4 C2_4 1_555 1_555
H4_4 C7_4 1_555 1_555
C8_4 C5_4 1_555 1_555
H5_4 C8_4 1_555 1_555
H6_4 C8_4 1_555 1_555
C9_4 C8_4 1_555 1_555
C10_4 C9_4 1_555 1_555
C11_4 C10_4 1_555 1_555
H7_4 C11_4 1_555 1_555
H8_4 C11_4 1_555 1_555
H9_4 C11_4 1_555 1_555
C12_4 C9_4 1_555 1_555
C13_4 C12_4 1_555 1_555
H10_4 C13_4 1_555 1_555
H11_4 C13_4 1_555 1_555
H12_4 C13_4 1_555 1_555
N1_4 C12_4 1_555 1_555
N2_4 C10_4 1_555 1_555
O1_4 C1_4 1_555 1_555
O2_4 C1_4 1_555 1_555
Cd3_4 O2_4 1_555 1_555
Cd4_3 N2_4 1_555 1_555
Cd4 N1_4 1_555 1_555
C6_4 C7_4 1_555 1_555
N1_4 N2_4 1_555 1_555
H5_5 C8_5 1_555 1_555
H6_5 C8_5 1_555 1_555
C9_5 C8_5 1_555 1_555
C10_5 C9_5 1_555 1_555
C11_5 C10_5 1_555 1_555
H7_5 C11_5 1_555 1_555
C12_5 C9_5 1_555 1_555
C13_5 C12_5 1_555 1_555
H12_5 C13_5 1_555 1_555
N1_5 C12_5 1_555 1_555
N2_5 C10_5 1_555 1_555
Cd4_4 N2_5 1_555 1_555
N1_5 N2_5 1_555 1_555
C1_5 C2_5 1_555 1_555
C2_5 C3_5 1_555 1_555
C4_5 C3_5 1_555 1_555
H2_5 C4_5 1_555 1_555
C5_5 C4_5 1_555 1_555
C6_5 C5_5 1_555 1_555
H3_5 C6_5 1_555 1_555
C7_5 C2_5 1_555 1_555
H4_5 C7_5 1_555 1_555
Cd3_3 O1_5 1_555 1_555
O1_5 C1_5 1_555 1_555
N3_5 Cd3_3 1_555 1_555
N4_5 Cd3_3 1_555 1_555
C6_5 C7_5 1_555 1_555
O4_2 Cd3_4 1_555 1_555
C1_6 C2_6 1_555 1_555
C2_6 C3_6 1_555 1_555
C3_6 H1_6 1_555 1_555
C4_6 C3_6 1_555 1_555
H2_6 C4_6 1_555 1_555
C5_6 C4_6 1_555 1_555
C8_6 C5_6 1_555 1_555
H6_6 C8_6 1_555 1_555
C9_6 C8_6 1_555 1_555
C10_6 C9_6 1_555 1_555
C11_6 C10_6 1_555 1_555
H7_6 C11_6 1_555 1_555
H8_5 C11_6 1_555 1_555
H9_5 C11_6 1_555 1_555
N2_6 C10_6 1_555 1_555
O5_2 C1_6 1_555 1_555
Cd5 N2_6 1_555 1_555
N1_6 N2_6 1_555 1_555
H3_6 C6_6 1_555 1_555
H4_6 C7_6 1_555 1_555
C13_6 C12_6 1_555 1_555
H10_6 C13_6 1_555 1_555
H11_6 C13_6 1_555 1_555
H12_6 C13_6 1_555 1_555
C6_6 C7_6 1_555 1_555
N4_6 Cd3_4 1_555 1_555
C1_7 C2_7 1_555 1_555
C2_7 C3_7 1_555 1_555
C3_7 H1_7 1_555 1_555
C4_7 C3_7 1_555 1_555
H2_7 C4_7 1_555 1_555
C5_7 C4_7 1_555 1_555
C6_7 C5_7 1_555 1_555
H3_7 C6_7 1_555 1_555
C7_7 C2_7 1_555 1_555
H4_7 C7_7 1_555 1_555
Cd3 O1_6 1_555 1_555
O1_6 C1_7 1_555 1_555
O4 C1_7 1_555 1_555
Cd3_2 O1_6 1_555 1_555
N3_7 Cd3 1_555 1_555
N4_7 Cd3 1_555 1_555
C6_7 C7_7 1_555 1_555
O4 Cd3_2 1_555 1_555
H5_7 C8_7 1_555 1_555
H6_7 C8_7 1_555 1_555
C9_7 C8_7 1_555 1_555
C10_7 C9_7 1_555 1_555
C11_7 C10_7 1_555 1_555
H7_7 C11_7 1_555 1_555
C12_7 C9_7 1_555 1_555
C13_7 C12_7 1_555 1_555
H10_7 C13_7 1_555 1_555
H11_7 C13_7 1_555 1_555
H12_7 C13_7 1_555 1_555
N1_7 C12_7 1_555 1_555
N2_7 C10_7 1_555 1_555
Cd5_4 N2_7 1_555 1_555
Cd4_3 N1_7 1_555 1_555
N1_7 N2_7 1_555 1_555
C1_8 C2_8 1_555 1_555
C2_8 C3_8 1_555 1_555
C3_8 H1_8 1_555 1_555
C4_8 C3_8 1_555 1_555
H2_8 C4_8 1_555 1_555
C5_8 C4_8 1_555 1_555
C8_8 C5_8 1_555 1_555
H6_8 C8_8 1_555 1_555
C9_8 C8_8 1_555 1_555
C10_8 C9_8 1_555 1_555
C11_8 C10_8 1_555 1_555
H7_8 C11_8 1_555 1_555
H8_6 C11_8 1_555 1_555
H9_6 C11_8 1_555 1_555
N2_8 C10_8 1_555 1_555
O5 C1_8 1_555 1_555
Cd5_3 N2_8 1_555 1_555
N1_8 N2_8 1_555 1_555
H3_8 C6_8 1_555 1_555
H4_8 C7_8 1_555 1_555
C13_8 C12_8 1_555 1_555
H10_8 C13_8 1_555 1_555
H11_8 C13_8 1_555 1_555
H12_8 C13_8 1_555 1_555
Cd3_2 O3 1_555 1_555
N3_8 Cd3_2 1_555 1_555
N4_8 Cd3_2 1_555 1_555
C6_8 C7_8 1_555 1_555
C1_9 C2_9 1_555 1_555
C2_9 C3_9 1_555 1_555
C3_9 H1_9 1_555 1_555
C4_9 C3_9 1_555 1_555
H2_9 C4_9 1_555 1_555
C5_9 C4_9 1_555 1_555
C6_9 C5_9 1_555 1_555
H3_9 C6_9 1_555 1_555
C7_9 C2_9 1_555 1_555
H4_9 C7_9 1_555 1_555
C8_9 C5_9 1_555 1_555
H5_9 C8_9 1_555 1_555
H6_9 C8_9 1_555 1_555
C9_9 C8_9 1_555 1_555
C10_9 C9_9 1_555 1_555
C11_9 C10_9 1_555 1_555
H7_9 C11_9 1_555 1_555
H8_7 C11_9 1_555 1_555
H9_7 C11_9 1_555 1_555
C12_9 C9_9 1_555 1_555
C13_9 C12_9 1_555 1_555
H10_9 C13_9 1_555 1_555
H11_9 C13_9 1_555 1_555
H12_9 C13_9 1_555 1_555
Cd5_4 O1_7 1_555 1_555
N3_8 C12_9 1_555 1_555
N4_7 C10_9 1_555 1_555
O1_7 C1_9 1_555 1_555
O2_5 C1_9 1_555 1_555
Cd4_3 O1_7 1_555 1_555
Cd4 O2_5 1_555 1_555
O5_3 Cd5_4 1_555 1_555
C6_9 C7_9 1_555 1_555
N3_8 N4_7 1_555 1_555
O2_5 Cd4_3 1_555 1_555
Cd4_3 O5_3 1_555 1_555
C1_10 C2_10 1_555 1_555
C2_10 C3_10 1_555 1_555
C3_10 H1_10 1_555 1_555
C4_10 C3_10 1_555 1_555
H2_10 C4_10 1_555 1_555
C5_10 C4_10 1_555 1_555
C6_10 C5_10 1_555 1_555
H3_10 C6_10 1_555 1_555
C7_10 C2_10 1_555 1_555
H4_10 C7_10 1_555 1_555
C8_10 C5_10 1_555 1_555
H5_10 C8_10 1_555 1_555
H6_10 C8_10 1_555 1_555
C9_10 C8_10 1_555 1_555
C10_10 C9_10 1_555 1_555
C11_10 C10_10 1_555 1_555
H7_10 C11_10 1_555 1_555
H8_8 C11_10 1_555 1_555
H9_8 C11_10 1_555 1_555
C12_10 C9_10 1_555 1_555
C13_10 C12_10 1_555 1_555
H10_10 C13_10 1_555 1_555
H11_10 C13_10 1_555 1_555
H12_10 C13_10 1_555 1_555
Cd4_3 O1_8 1_555 1_555
N3_5 C12_10 1_555 1_555
N4_4 C10_10 1_555 1_555
O1_8 C1_10 1_555 1_555
O2_6 C1_10 1_555 1_555
Cd4 O1_8 1_555 1_555
Cd5 O2_6 1_555 1_555
C6_10 C7_10 1_555 1_555
N3_5 N4_4 1_555 1_555
O2_6 Cd4 1_555 1_555
C1_11 C2_11 1_555 1_555
C2_11 C3_11 1_555 1_555
C4_11 C3_11 1_555 1_555
H2_11 C4_11 1_555 1_555
C5_11 C4_11 1_555 1_555
C6_11 C5_11 1_555 1_555
H3_11 C6_11 1_555 1_555
C7_11 C2_11 1_555 1_555
H4_11 C7_11 1_555 1_555
C8_11 C5_11 1_555 1_555
H5_11 C8_11 1_555 1_555
H6_11 C8_11 1_555 1_555
C9_11 C8_11 1_555 1_555
C10_11 C9_11 1_555 1_555
C11_11 C10_11 1_555 1_555
H7_11 C11_11 1_555 1_555
H8_9 C11_11 1_555 1_555
H9_9 C11_11 1_555 1_555
C12_11 C9_11 1_555 1_555
C13_11 C12_11 1_555 1_555
H12_11 C13_11 1_555 1_555
Cd4_4 O1_9 1_555 1_555
N3_6 C12_11 1_555 1_555
N4_5 C10_11 1_555 1_555
O1_9 C1_11 1_555 1_555
C6_11 C7_11 1_555 1_555
N3_6 N4_5 1_555 1_555
Cd5_2 O2_7 1_555 1_555
O2_7 Cd4_2 1_555 1_555
Cd4_2 O5_4 1_555 1_555
C1_12 C2_12 1_555 1_555
C2_12 C3_12 1_555 1_555
C3_12 H1_12 1_555 1_555
C4_12 C3_12 1_555 1_555
H2_12 C4_12 1_555 1_555
C5_12 C4_12 1_555 1_555
C6_12 C5_12 1_555 1_555
H3_12 C6_12 1_555 1_555
C7_12 C2_12 1_555 1_555
H4_12 C7_12 1_555 1_555
C8_12 C5_12 1_555 1_555
H5_12 C8_12 1_555 1_555
H6_12 C8_12 1_555 1_555
C9_12 C8_12 1_555 1_555
C10_12 C9_12 1_555 1_555
C11_12 C10_12 1_555 1_555
H7_12 C11_12 1_555 1_555
H8_10 C11_12 1_555 1_555
H9_10 C11_12 1_555 1_555
C12_12 C9_12 1_555 1_555
C13_12 C12_12 1_555 1_555
H10_12 C13_12 1_555 1_555
H11_12 C13_12 1_555 1_555
H12_12 C13_12 1_555 1_555
N3_7 C12_12 1_555 1_555
N4_2 C10_12 1_555 1_555
O1_10 C1_12 1_555 1_555
O2_8 C1_12 1_555 1_555
Cd5_3 O2_8 1_555 1_555
C6_12 C7_12 1_555 1_555
N3_7 N4_2 1_555 1_555
O4_4 Cd5_3 1_555 1_555
C1_13 C2_13 1_555 1_555
C2_13 C3_13 1_555 1_555
C4_13 C3_13 1_555 1_555
H2_13 C4_13 1_555 1_555
C5_13 C4_13 1_555 1_555
C6_13 C5_13 1_555 1_555
H3_13 C6_13 1_555 1_555
C7_13 C2_13 1_555 1_555
H4_13 C7_13 1_555 1_555
Cd5_2 O1_11 1_555 1_555
O1_11 C1_13 1_555 1_555
C6_13 C7_13 1_555 1_555
H5_13 C8_13 1_555 1_555
H6_13 C8_13 1_555 1_555
C9_13 C8_13 1_555 1_555
C10_13 C9_13 1_555 1_555
C11_13 C10_13 1_555 1_555
H7_13 C11_13 1_555 1_555
C12_13 C9_13 1_555 1_555
C13_13 C12_13 1_555 1_555
H12_13 C13_13 1_555 1_555
N3_4 C12_13 1_555 1_555
N4_3 C10_13 1_555 1_555
N3_4 N4_3 1_555 1_555
H3_14 C6_14 1_555 1_555
H4_14 C7_14 1_555 1_555
C13_14 C12_14 1_555 1_555
H10_14 C13_14 1_555 1_555
H11_14 C13_14 1_555 1_555
H12_14 C13_14 1_555 1_555
C6_14 C7_14 1_555 1_555
C1_14 C2_14 1_555 1_555
C2_14 C3_14 1_555 1_555
C3_14 H1_14 1_555 1_555
C4_14 C3_14 1_555 1_555
H2_14 C4_14 1_555 1_555
C5_14 C4_14 1_555 1_555
C8_14 C5_14 1_555 1_555
H6_14 C8_14 1_555 1_555
C9_14 C8_14 1_555 1_555
C10_14 C9_14 1_555 1_555
C11_14 C10_14 1_555 1_555
H7_14 C11_14 1_555 1_555
H8_11 C11_14 1_555 1_555
H9_11 C11_14 1_555 1_555
N4_8 C10_14 1_555 1_555
O5_4 C1_14 1_555 1_555
N3 N4_8 1_555 1_555
H5_15 C8_15 1_555 1_555
H6_15 C8_15 1_555 1_555
C9_15 C8_15 1_555 1_555
C10_15 C9_15 1_555 1_555
C11_15 C10_15 1_555 1_555
H7_15 C11_15 1_555 1_555
C12_15 C9_15 1_555 1_555
C13_15 C12_15 1_555 1_555
H10_15 C13_15 1_555 1_555
H11_15 C13_15 1_555 1_555
H12_15 C13_15 1_555 1_555
N3_2 C12_15 1_555 1_555
N4 C10_15 1_555 1_555
N3_2 N4 1_555 1_555
C1_15 C2_15 1_555 1_555
C2_15 C3_15 1_555 1_555
C3_15 H1_15 1_555 1_555
C4_15 C3_15 1_555 1_555
H2_15 C4_15 1_555 1_555
C5_15 C4_15 1_555 1_555
C6_15 C5_15 1_555 1_555
H3_15 C6_15 1_555 1_555
C7_15 C2_15 1_555 1_555
H4_15 C7_15 1_555 1_555
Cd4 O1_12 1_555 1_555
O1_12 C1_15 1_555 1_555
O4_3 C1_15 1_555 1_555
Cd5 O1_12 1_555 1_555
C6_15 C7_15 1_555 1_555
O4_3 Cd5 1_555 1_555
H3_16 C6_16 1_555 1_555
H4_16 C7_16 1_555 1_555
C13_16 C12_16 1_555 1_555
H10_16 C13_16 1_555 1_555
H11_16 C13_16 1_555 1_555
H12_16 C13_16 1_555 1_555
Cd5 O3_3 1_555 1_555
C6_16 C7_16 1_555 1_555
C1_16 C2_16 1_555 1_555
C2_16 C3_16 1_555 1_555
C3_16 H1_16 1_555 1_555
C4_16 C3_16 1_555 1_555
H2_16 C4_16 1_555 1_555
C5_16 C4_16 1_555 1_555
C8_16 C5_16 1_555 1_555
H6_16 C8_16 1_555 1_555
C9_16 C8_16 1_555 1_555
C10_16 C9_16 1_555 1_555
C11_16 C10_16 1_555 1_555
H7_16 C11_16 1_555 1_555
H8_12 C11_16 1_555 1_555
H9_12 C11_16 1_555 1_555
N4_6 C10_16 1_555 1_555
O5_3 C1_16 1_555 1_555
N3_3 N4_6 1_555 1_555

#END
