
###############################################################################
#
# This file contains modified crystal structure data generated from the
# MOF subset of the Cambridge Structural Database (CSD) v543 
# hosted by the Cambridge Crystallographic Data Centre (CCDC).
#
# This work is licensed under the Creative Commons
# Attribution-NonCommercial-ShareAlike 4.0 International License.
# To view a copy of this license, visit
# http://creativecommons.org/licenses/by-nc-sa/4.0/
# or send a letter to
# Creative Commons, PO Box 1866, Mountain View, CA 94042, USA.
#
# CIF created using the CSD Python API on 29 September 2022
# The structure has been converted into the P1 space group
# The structure has a 3D framework
# The original CSD entry EROJUS is in the tetragonal crystal system
# The framework has been calculated to contain at least 10.0% void space
# The void calculation uses a probe of radius 1.32A, grid spacing 0.4
#
###############################################################################

data_EROJUS
_chemical_formula_moiety         '(C208 H192 Cd10 N32 O28)n'
_symmetry_cell_setting           triclinic
_symmetry_space_group_name_H-M   'P 1'
_symmetry_Int_Tables_number      1
_space_group_name_Hall           'P 1'
loop_
_symmetry_equiv_pos_site_id
_symmetry_equiv_pos_as_xyz
1 x,y,z
_cell_length_a                   24.0290(5)
_cell_length_b                   24.0290(5)
_cell_length_c                   10.5501(3)
_cell_angle_alpha                90
_cell_angle_beta                 90
_cell_angle_gamma                90
_cell_volume                     6091.55
loop_
_atom_site_label
_atom_site_type_symbol
_atom_site_fract_x
_atom_site_fract_y
_atom_site_fract_z
C1 C 0.30120(14) 0.52205(14) 0.3010(3)
C2 C 0.35638(14) 0.55030(15) 0.3129(3)
C3 C 0.39725(15) 0.53018(16) 0.3941(4)
H1 H 0.3909 0.4970 0.4408
C4 C 0.44728(15) 0.55830(17) 0.4073(4)
H2 H 0.4745 0.5446 0.4645
C5 C 0.45810(14) 0.60597(15) 0.3383(4)
C6 C 0.41752(18) 0.62506(18) 0.2562(5)
H3 H 0.4244 0.6575 0.2073
C7 C 0.36682(18) 0.59774(19) 0.2438(5)
H4 H 0.3394 0.6118 0.1876
C8 C 0.51225(16) 0.63764(17) 0.3523(5)
H5 H 0.5146 0.6653 0.2830
H6 H 0.5111 0.6585 0.4333
C9 C 0.56395(15) 0.60314(15) 0.3505(4)
C10 C 0.57771(14) 0.55876(15) 0.2700(3)
C11 C 0.54448(17) 0.53105(18) 0.1688(4)
H7 H 0.5152 0.5083 0.2077
H8 H 0.5689 0.5072 0.1179
H9 H 0.5275 0.5594 0.1143
C12 C 0.61120(15) 0.61132(15) 0.4239(4)
C13 C 0.62181(19) 0.6521(2) 0.5287(5)
H10 H 0.6296 0.6889 0.4924
H11 H 0.6539 0.6398 0.5788
H12 H 0.5889 0.6544 0.5834
Cd1 Cd 0.23413(2) 0.56038(2) 0.03891(2)
N1 N 0.65101(12) 0.57448(12) 0.3894(3)
N2 N 0.63012(11) 0.54217(11) 0.2950(3)
O1 O 0.26037(10) 0.54987(10) 0.2543(2)
O2 O 0.29460(10) 0.47286(10) 0.3403(2)
Cd2 Cd 0.18962(2) 0.48413(2) 0.28891(2)
Cd3 Cd 0.26587(2) 0.43962(2) 0.53891(2)
Cd4 Cd 0.73413(2) 0.56038(2) 0.46109(2)
Cd5 Cd 0.68962(2) 0.48413(2) 0.21109(2)
N3 N 0.15101(12) 0.57448(12) 0.1106(3)
O3 O 0.29987(10) 0.48963(10) 0.0043(2)
O5 O 0.22286(10) 0.45540(10) 0.0903(2)
N4 N 0.29217(11) 0.61988(11) 0.9550(3)
O4 O 0.20540(10) 0.52714(10) 0.8403(2)
C1_2 C 0.22795(14) 0.55120(14) 0.5510(3)
C2_2 C 0.19970(15) 0.60638(14) 0.5629(3)
C3_2 C 0.21982(16) 0.64725(15) 0.6441(4)
H1_2 H 0.2530 0.6409 0.6908
C4_2 C 0.19170(17) 0.69728(15) 0.6573(4)
H2_2 H 0.2054 0.7245 0.7145
C5_2 C 0.14403(15) 0.70810(14) 0.5883(4)
C6_2 C 0.12494(18) 0.66752(18) 0.5062(5)
H3_2 H 0.0925 0.6744 0.4573
C7_2 C 0.15226(19) 0.61682(18) 0.4938(5)
H4_2 H 0.1382 0.5894 0.4376
C8_2 C 0.11236(17) 0.76225(16) 0.6023(5)
H5_2 H 0.0847 0.7646 0.5330
H6_2 H 0.0915 0.7611 0.6833
C9_2 C 0.14686(15) 0.81395(15) 0.6005(4)
C10_2 C 0.19124(15) 0.82771(14) 0.5200(3)
C11_2 C 0.21895(18) 0.79448(17) 0.4188(4)
H7_2 H 0.2417 0.7652 0.4577
H8_2 H 0.2428 0.8189 0.3679
H9_2 H 0.1906 0.7775 0.3643
C12_2 C 0.13868(15) 0.86120(15) 0.6739(4)
C13_2 C 0.0979(2) 0.87181(19) 0.7787(5)
H10_2 H 0.0611 0.8796 0.7424
H11_2 H 0.1102 0.9039 0.8288
H12_2 H 0.0956 0.8389 0.8334
N1_2 N 0.17552(12) 0.90101(12) 0.6394(3)
N2_2 N 0.20783(11) 0.88012(11) 0.5450(3)
O1_2 O 0.20013(10) 0.51037(10) 0.5043(2)
O2_2 O 0.27714(10) 0.54460(10) 0.5903(2)
Cd3_2 Cd 0.31038(2) 0.51587(2) 0.78891(2)
Cd4_2 Cd 0.18962(2) 0.98413(2) 0.71109(2)
Cd5_2 Cd 0.26587(2) 0.93962(2) 0.46109(2)
N3_2 N 0.17552(12) 0.40101(12) 0.3606(3)
N4_2 N 0.13012(11) 0.54217(11) 0.2050(3)
H1_3 H 0.6091 0.0030 0.4408
O2_3 O 0.70540(10) 0.02714(10) 0.3403(2)
Cd2_2 Cd 0.81038(2) 0.01587(2) 0.28891(2)
Cd3_3 Cd 0.73413(2) 0.06038(2) 0.53891(2)
Cd5_3 Cd 0.31038(2) 0.01587(2) 0.21109(2)
O3_2 O 0.70013(10) 0.01037(10) 0.0043(2)
O5_2 O 0.77714(10) 0.04460(10) 0.0903(2)
C1_3 C 0.69880(14) 0.97795(14) 0.3010(3)
C2_3 C 0.64362(14) 0.94970(15) 0.3129(3)
C3_3 C 0.60275(15) 0.96982(16) 0.3941(4)
C4_3 C 0.55272(15) 0.94170(17) 0.4073(4)
H2_3 H 0.5255 0.9554 0.4645
C5_3 C 0.54190(14) 0.89403(15) 0.3383(4)
C6_3 C 0.58248(18) 0.87494(18) 0.2562(5)
H3_3 H 0.5756 0.8425 0.2073
C7_3 C 0.63318(18) 0.90226(19) 0.2438(5)
H4_3 H 0.6606 0.8882 0.1876
C8_3 C 0.48775(16) 0.86236(17) 0.3523(5)
H5_3 H 0.4854 0.8347 0.2830
H6_3 H 0.4889 0.8415 0.4333
C9_3 C 0.43605(15) 0.89686(15) 0.3505(4)
C10_3 C 0.42229(14) 0.94124(15) 0.2700(3)
C11_3 C 0.45552(17) 0.96895(18) 0.1688(4)
H7_3 H 0.4848 0.9917 0.2077
H8_3 H 0.4311 0.9928 0.1179
H9_3 H 0.4725 0.9406 0.1143
C12_3 C 0.38880(15) 0.88868(15) 0.4239(4)
C13_3 C 0.37819(19) 0.8479(2) 0.5287(5)
H10_3 H 0.3704 0.8111 0.4924
H11_3 H 0.3461 0.8602 0.5788
H12_3 H 0.4111 0.8456 0.5834
Cd1_2 Cd 0.76587(2) 0.93962(2) 0.03891(2)
N1_3 N 0.34899(12) 0.92552(12) 0.3894(3)
N2_3 N 0.36988(11) 0.95783(11) 0.2950(3)
O1_3 O 0.73963(10) 0.95013(10) 0.2543(2)
N3_3 N 0.84899(12) 0.92552(12) 0.1106(3)
N4_3 N 0.70783(11) 0.88012(11) 0.9550(3)
O4_2 O 0.79460(10) 0.97286(10) 0.8403(2)
N3_4 N 0.82448(12) 0.09899(12) 0.3606(3)
C1_4 C 0.77205(14) 0.94880(14) 0.5510(3)
C2_4 C 0.80030(15) 0.89362(14) 0.5629(3)
C3_4 C 0.78018(16) 0.85275(15) 0.6441(4)
H1_4 H 0.7470 0.8591 0.6908
C4_4 C 0.80830(17) 0.80272(15) 0.6573(4)
H2_4 H 0.7946 0.7755 0.7145
C5_4 C 0.85597(15) 0.79190(14) 0.5883(4)
C6_4 C 0.87506(18) 0.83248(18) 0.5062(5)
H3_4 H 0.9075 0.8256 0.4573
C7_4 C 0.84774(19) 0.88318(18) 0.4938(5)
H4_4 H 0.8618 0.9106 0.4376
C8_4 C 0.88764(17) 0.73775(16) 0.6023(5)
H5_4 H 0.9153 0.7354 0.5330
H6_4 H 0.9085 0.7389 0.6833
C9_4 C 0.85314(15) 0.68605(15) 0.6005(4)
C10_4 C 0.80876(15) 0.67229(14) 0.5200(3)
C11_4 C 0.78105(18) 0.70552(17) 0.4188(4)
H7_4 H 0.7583 0.7348 0.4577
H8_4 H 0.7572 0.6811 0.3679
H9_4 H 0.8094 0.7225 0.3643
C12_4 C 0.86132(15) 0.63880(15) 0.6739(4)
C13_4 C 0.9021(2) 0.62819(19) 0.7787(5)
H10_4 H 0.9389 0.6204 0.7424
H11_4 H 0.8898 0.5961 0.8288
H12_4 H 0.9044 0.6611 0.8334
N1_4 N 0.82448(12) 0.59899(12) 0.6394(3)
N2_4 N 0.79217(11) 0.61988(11) 0.5450(3)
O1_4 O 0.79987(10) 0.98963(10) 0.5043(2)
O2_4 O 0.72286(10) 0.95540(10) 0.5903(2)
Cd3_4 Cd 0.68962(2) 0.98413(2) 0.78891(2)
Cd4_3 Cd 0.81038(2) 0.51587(2) 0.71109(2)
N4_4 N 0.86988(11) 0.95783(11) 0.2050(3)
C8_5 C 0.01225(16) 0.13764(17) 0.8523(5)
H5_5 H 0.0146 0.1653 0.7830
H6_5 H 0.0111 0.1585 0.9333
C9_5 C 0.06395(15) 0.10314(15) 0.8505(4)
C10_5 C 0.07771(14) 0.05876(15) 0.7700(3)
C11_5 C 0.04448(17) 0.03105(18) 0.6688(4)
H7_5 H 0.0152 0.0083 0.7077
H8_5 H 0.0689 0.0072 0.6179
H9_5 H 0.0275 0.0594 0.6143
C12_5 C 0.11120(15) 0.11132(15) 0.9239(4)
H10_5 H 0.1296 0.1889 0.9924
N1_5 N 0.15101(12) 0.07448(12) 0.8894(3)
N2_5 N 0.13012(11) 0.04217(11) 0.7950(3)
Cd4_4 Cd 0.23413(2) 0.06038(2) 0.96109(2)
C1_5 C 0.80120(14) 0.02205(14) 0.8010(3)
C2_5 C 0.85638(14) 0.05030(15) 0.8129(3)
C3_5 C 0.89725(15) 0.03018(16) 0.8941(4)
C4_5 C 0.94728(15) 0.05830(17) 0.9073(4)
H2_5 H 0.9745 0.0446 0.9645
C5_5 C 0.95810(14) 0.10597(15) 0.8383(4)
C6_5 C 0.91752(18) 0.12506(18) 0.7562(5)
H3_5 H 0.9244 0.1575 0.7073
C7_5 C 0.86682(18) 0.09774(19) 0.7438(5)
H4_5 H 0.8394 0.1118 0.6876
O1_5 O 0.76037(10) 0.04987(10) 0.7543(2)
N3_5 N 0.65101(12) 0.07448(12) 0.6106(3)
N4_5 N 0.79217(11) 0.11988(11) 0.4550(3)
H1_5 H 0.8909 0.9970 0.9408
C1_6 C 0.72795(14) 0.05120(14) 0.0510(3)
C2_6 C 0.69970(15) 0.10638(14) 0.0629(3)
C3_6 C 0.71982(16) 0.14725(15) 0.1441(4)
H1_6 H 0.7530 0.1409 0.1908
C4_6 C 0.69170(17) 0.19728(15) 0.1573(4)
H2_6 H 0.7054 0.2245 0.2145
C5_6 C 0.64403(15) 0.20810(14) 0.0883(4)
C6_6 C 0.62494(18) 0.16752(18) 0.0062(5)
C8_6 C 0.61236(17) 0.26225(16) 0.1023(5)
H5_6 H 0.5847 0.2646 0.0330
H6_6 H 0.5915 0.2611 0.1833
C9_6 C 0.64686(15) 0.31395(15) 0.1005(4)
C10_6 C 0.69124(15) 0.32771(14) 0.0200(3)
C12_6 C 0.63868(15) 0.36120(15) 0.1739(4)
C13_5 C 0.5979(2) 0.37181(19) 0.2787(5)
H10_6 H 0.5611 0.3796 0.2424
H11_5 H 0.6102 0.4039 0.3288
H12_5 H 0.5956 0.3389 0.3334
N1_6 N 0.67552(12) 0.40101(12) 0.1394(3)
N2_6 N 0.70783(11) 0.38012(11) 0.0450(3)
H3_6 H 0.5925 0.1744 0.9573
C7_6 C 0.65226(19) 0.11682(18) 0.9938(5)
H4_6 H 0.6382 0.0894 0.9376
C11_6 C 0.71895(18) 0.29448(17) 0.9188(4)
H7_6 H 0.7417 0.2652 0.9577
H8_6 H 0.7428 0.3189 0.8679
H9_6 H 0.6906 0.2775 0.8643
Cd5_4 Cd 0.76587(2) 0.43962(2) 0.96109(2)
N4_6 N 0.63012(11) 0.04217(11) 0.7050(3)
N3_6 N 0.67552(12) 0.90101(12) 0.8606(3)
C1_7 C 0.19880(14) 0.47795(14) 0.8010(3)
C2_7 C 0.14362(14) 0.44970(15) 0.8129(3)
C3_7 C 0.10275(15) 0.46982(16) 0.8941(4)
H1_7 H 0.1091 0.5030 0.9408
C4_7 C 0.05272(15) 0.44170(17) 0.9073(4)
H2_7 H 0.0255 0.4554 0.9645
C5_7 C 0.04190(14) 0.39403(15) 0.8383(4)
C6_7 C 0.08248(18) 0.37494(18) 0.7562(5)
H3_7 H 0.0756 0.3425 0.7073
C7_7 C 0.13318(18) 0.40226(19) 0.7438(5)
H4_7 H 0.1606 0.3882 0.6876
O1_6 O 0.23963(10) 0.45013(10) 0.7543(2)
N3_7 N 0.34899(12) 0.42552(12) 0.6106(3)
N4_7 N 0.20783(11) 0.38012(11) 0.4550(3)
C8_7 C 0.98775(16) 0.36236(17) 0.8523(5)
H5_7 H 0.9854 0.3347 0.7830
H6_7 H 0.9889 0.3415 0.9333
C9_7 C 0.93605(15) 0.39686(15) 0.8505(4)
C10_7 C 0.92229(14) 0.44124(15) 0.7700(3)
C11_7 C 0.95552(17) 0.46895(18) 0.6688(4)
H7_7 H 0.9848 0.4917 0.7077
H8_7 H 0.9311 0.4928 0.6179
H9_7 H 0.9725 0.4406 0.6143
C12_7 C 0.88880(15) 0.38868(15) 0.9239(4)
H10_7 H 0.8704 0.3111 0.9924
N1_7 N 0.84899(12) 0.42552(12) 0.8894(3)
N2_7 N 0.86988(11) 0.45783(11) 0.7950(3)
C1_8 C 0.27205(14) 0.44880(14) 0.0510(3)
C2_8 C 0.30030(15) 0.39362(14) 0.0629(3)
C3_8 C 0.28018(16) 0.35275(15) 0.1441(4)
H1_8 H 0.2470 0.3591 0.1908
C4_8 C 0.30830(17) 0.30272(15) 0.1573(4)
H2_8 H 0.2946 0.2755 0.2145
C5_8 C 0.35597(15) 0.29190(14) 0.0883(4)
C6_8 C 0.37506(18) 0.33248(18) 0.0062(5)
C8_8 C 0.38764(17) 0.23775(16) 0.1023(5)
H5_8 H 0.4153 0.2354 0.0330
H6_8 H 0.4085 0.2389 0.1833
C9_8 C 0.35314(15) 0.18605(15) 0.1005(4)
C10_8 C 0.30876(15) 0.17229(14) 0.0200(3)
C12_8 C 0.36132(15) 0.13880(15) 0.1739(4)
C13_6 C 0.4021(2) 0.12819(19) 0.2787(5)
H10_8 H 0.4389 0.1204 0.2424
H11_6 H 0.3898 0.0961 0.3288
H12_6 H 0.4044 0.1611 0.3334
N1_8 N 0.32448(12) 0.09899(12) 0.1394(3)
N2_8 N 0.29217(11) 0.11988(11) 0.0450(3)
H3_8 H 0.4075 0.3256 0.9573
C7_8 C 0.34774(19) 0.38318(18) 0.9938(5)
H4_8 H 0.3618 0.4106 0.9376
C11_8 C 0.28105(18) 0.20552(17) 0.9188(4)
H7_8 H 0.2583 0.2348 0.9577
H8_8 H 0.2572 0.1811 0.8679
H9_8 H 0.3094 0.2225 0.8643
N3_8 N 0.32448(12) 0.59899(12) 0.8606(3)
N4_8 N 0.36988(11) 0.45783(11) 0.7050(3)
O4_3 O 0.79460(10) 0.47286(10) 0.1597(2)
C1_9 C 0.69880(14) 0.47795(14) 0.6990(3)
C2_9 C 0.64362(14) 0.44970(15) 0.6871(3)
C3_9 C 0.60275(15) 0.46982(16) 0.6059(4)
H1_9 H 0.6091 0.5030 0.5592
C4_9 C 0.55272(15) 0.44170(17) 0.5927(4)
H2_9 H 0.5255 0.4554 0.5355
C5_9 C 0.54190(14) 0.39403(15) 0.6617(4)
C6_9 C 0.58248(18) 0.37494(18) 0.7438(5)
H3_9 H 0.5756 0.3425 0.7927
C7_9 C 0.63318(18) 0.40226(19) 0.7562(5)
H4_9 H 0.6606 0.3882 0.8124
C8_9 C 0.48775(16) 0.36236(17) 0.6477(5)
H5_9 H 0.4854 0.3347 0.7170
H6_9 H 0.4889 0.3415 0.5667
C9_9 C 0.43605(15) 0.39686(15) 0.6495(4)
C10_9 C 0.42229(14) 0.44124(15) 0.7300(3)
C11_9 C 0.45552(17) 0.46895(18) 0.8312(4)
H7_9 H 0.4848 0.4917 0.7923
H8_9 H 0.4311 0.4928 0.8821
H9_9 H 0.4725 0.4406 0.8857
C12_9 C 0.38880(15) 0.38868(15) 0.5761(4)
C13_7 C 0.37819(19) 0.3479(2) 0.4713(5)
H10_9 H 0.3704 0.3111 0.5076
H11_7 H 0.3461 0.3602 0.4212
H12_7 H 0.4111 0.3456 0.4166
O1_7 O 0.73963(10) 0.45013(10) 0.7457(2)
O2_5 O 0.70540(10) 0.52714(10) 0.6597(2)
O3_3 O 0.70013(10) 0.51037(10) 0.9957(2)
O5_3 O 0.77714(10) 0.54460(10) 0.9097(2)
C1_10 C 0.77205(14) 0.44880(14) 0.4490(3)
C2_10 C 0.80030(15) 0.39362(14) 0.4371(3)
C3_10 C 0.78018(16) 0.35275(15) 0.3559(4)
H1_10 H 0.7470 0.3591 0.3092
C4_10 C 0.80830(17) 0.30272(15) 0.3427(4)
H2_10 H 0.7946 0.2755 0.2855
C5_10 C 0.85597(15) 0.29190(14) 0.4117(4)
C6_10 C 0.87506(18) 0.33248(18) 0.4938(5)
H3_10 H 0.9075 0.3256 0.5427
C7_10 C 0.84774(19) 0.38318(18) 0.5062(5)
H4_10 H 0.8618 0.4106 0.5624
C8_10 C 0.88764(17) 0.23775(16) 0.3977(5)
H5_10 H 0.9153 0.2354 0.4670
H6_10 H 0.9085 0.2389 0.3167
C9_10 C 0.85314(15) 0.18605(15) 0.3995(4)
C10_10 C 0.80876(15) 0.17229(14) 0.4800(3)
C11_10 C 0.78105(18) 0.20552(17) 0.5812(4)
H7_10 H 0.7583 0.2348 0.5423
H8_10 H 0.7572 0.1811 0.6321
H9_10 H 0.8094 0.2225 0.6357
C12_10 C 0.86132(15) 0.13880(15) 0.3261(4)
C13_8 C 0.9021(2) 0.12819(19) 0.2213(5)
H10_10 H 0.9389 0.1204 0.2576
H11_8 H 0.8898 0.0961 0.1712
H12_8 H 0.9044 0.1611 0.1666
O1_8 O 0.79987(10) 0.48963(10) 0.4957(2)
O2_6 O 0.72286(10) 0.45540(10) 0.4097(2)
O4_4 O 0.20540(10) 0.02714(10) 0.1597(2)
C1_11 C 0.30120(14) 0.02205(14) 0.6990(3)
C2_11 C 0.35638(14) 0.05030(15) 0.6871(3)
C3_11 C 0.39725(15) 0.03018(16) 0.6059(4)
C4_11 C 0.44728(15) 0.05830(17) 0.5927(4)
H2_11 H 0.4745 0.0446 0.5355
C5_11 C 0.45810(14) 0.10597(15) 0.6617(4)
C6_11 C 0.41752(18) 0.12506(18) 0.7438(5)
H3_11 H 0.4244 0.1575 0.7927
C7_11 C 0.36682(18) 0.09774(19) 0.7562(5)
H4_11 H 0.3394 0.1118 0.8124
C8_11 C 0.51225(16) 0.13764(17) 0.6477(5)
H5_11 H 0.5146 0.1653 0.7170
H6_11 H 0.5111 0.1585 0.5667
C9_11 C 0.56395(15) 0.10314(15) 0.6495(4)
C10_11 C 0.57771(14) 0.05876(15) 0.7300(3)
C11_11 C 0.54448(17) 0.03105(18) 0.8312(4)
H7_11 H 0.5152 0.0083 0.7923
H8_11 H 0.5689 0.0072 0.8821
H9_11 H 0.5275 0.0594 0.8857
C12_11 C 0.61120(15) 0.11132(15) 0.5761(4)
C13_9 C 0.62181(19) 0.1521(2) 0.4713(5)
H10_11 H 0.6296 0.1889 0.5076
H11_9 H 0.6539 0.1398 0.4212
H12_9 H 0.5889 0.1544 0.4166
O1_9 O 0.26037(10) 0.04987(10) 0.7457(2)
H1_11 H 0.3909 0.9970 0.5592
O2_7 O 0.29460(10) 0.97286(10) 0.6597(2)
O3_4 O 0.29987(10) 0.98963(10) 0.9957(2)
O5_4 O 0.22286(10) 0.95540(10) 0.9097(2)
C1_12 C 0.22795(14) 0.05120(14) 0.4490(3)
C2_12 C 0.19970(15) 0.10638(14) 0.4371(3)
C3_12 C 0.21982(16) 0.14725(15) 0.3559(4)
H1_12 H 0.2530 0.1409 0.3092
C4_12 C 0.19170(17) 0.19728(15) 0.3427(4)
H2_12 H 0.2054 0.2245 0.2855
C5_12 C 0.14403(15) 0.20810(14) 0.4117(4)
C6_12 C 0.12494(18) 0.16752(18) 0.4938(5)
H3_12 H 0.0925 0.1744 0.5427
C7_12 C 0.15226(19) 0.11682(18) 0.5062(5)
H4_12 H 0.1382 0.0894 0.5624
C8_12 C 0.11236(17) 0.26225(16) 0.3977(5)
H5_12 H 0.0847 0.2646 0.4670
H6_12 H 0.0915 0.2611 0.3167
C9_12 C 0.14686(15) 0.31395(15) 0.3995(4)
C10_12 C 0.19124(15) 0.32771(14) 0.4800(3)
C11_12 C 0.21895(18) 0.29448(17) 0.5812(4)
H7_12 H 0.2417 0.2652 0.5423
H8_12 H 0.2428 0.3189 0.6321
H9_12 H 0.1906 0.2775 0.6357
C12_12 C 0.13868(15) 0.36120(15) 0.3261(4)
C13_10 C 0.0979(2) 0.37181(19) 0.2213(5)
H10_12 H 0.0611 0.3796 0.2576
H11_10 H 0.1102 0.4039 0.1712
H12_10 H 0.0956 0.3389 0.1666
O1_10 O 0.20013(10) 0.01037(10) 0.4957(2)
O2_8 O 0.27714(10) 0.04460(10) 0.4097(2)
H1_13 H 0.1091 0.0030 0.0592
C1_13 C 0.19880(14) 0.97795(14) 0.1990(3)
C2_13 C 0.14362(14) 0.94970(15) 0.1871(3)
C3_13 C 0.10275(15) 0.96982(16) 0.1059(4)
C4_13 C 0.05272(15) 0.94170(17) 0.0927(4)
H2_13 H 0.0255 0.9554 0.0355
C5_13 C 0.04190(14) 0.89403(15) 0.1617(4)
C6_13 C 0.08248(18) 0.87494(18) 0.2438(5)
H3_13 H 0.0756 0.8425 0.2927
C7_13 C 0.13318(18) 0.90226(19) 0.2562(5)
H4_13 H 0.1606 0.8882 0.3124
O1_11 O 0.23963(10) 0.95013(10) 0.2457(2)
C8_13 C 0.98775(16) 0.86236(17) 0.1477(5)
H5_13 H 0.9854 0.8347 0.2170
H6_13 H 0.9889 0.8415 0.0667
C9_13 C 0.93605(15) 0.89686(15) 0.1495(4)
C10_13 C 0.92229(14) 0.94124(15) 0.2300(3)
C11_13 C 0.95552(17) 0.96895(18) 0.3312(4)
H7_13 H 0.9848 0.9917 0.2923
H8_13 H 0.9311 0.9928 0.3821
H9_13 H 0.9725 0.9406 0.3857
C12_13 C 0.88880(15) 0.88868(15) 0.0761(4)
H10_13 H 0.8704 0.8111 0.0076
H3_14 H 0.4075 0.8256 0.0427
C7_14 C 0.34774(19) 0.88318(18) 0.0062(5)
H4_14 H 0.3618 0.9106 0.0624
C11_14 C 0.28105(18) 0.70552(17) 0.0812(4)
H7_14 H 0.2583 0.7348 0.0423
H8_14 H 0.2572 0.6811 0.1321
H9_14 H 0.3094 0.7225 0.1357
C1_14 C 0.27205(14) 0.94880(14) 0.9490(3)
C2_14 C 0.30030(15) 0.89362(14) 0.9371(3)
C3_14 C 0.28018(16) 0.85275(15) 0.8559(4)
H1_14 H 0.2470 0.8591 0.8092
C4_14 C 0.30830(17) 0.80272(15) 0.8427(4)
H2_14 H 0.2946 0.7755 0.7855
C5_14 C 0.35597(15) 0.79190(14) 0.9117(4)
C6_14 C 0.37506(18) 0.83248(18) 0.9938(5)
C8_14 C 0.38764(17) 0.73775(16) 0.8977(5)
H5_14 H 0.4153 0.7354 0.9670
H6_14 H 0.4085 0.7389 0.8167
C9_14 C 0.35314(15) 0.68605(15) 0.8995(4)
C10_14 C 0.30876(15) 0.67229(14) 0.9800(3)
C12_14 C 0.36132(15) 0.63880(15) 0.8261(4)
C13_11 C 0.4021(2) 0.62819(19) 0.7213(5)
H10_14 H 0.4389 0.6204 0.7576
H11_11 H 0.3898 0.5961 0.6712
H12_11 H 0.4044 0.6611 0.6666
C8_15 C 0.01225(16) 0.63764(17) 0.1477(5)
H5_15 H 0.0146 0.6653 0.2170
H6_15 H 0.0111 0.6585 0.0667
C9_15 C 0.06395(15) 0.60314(15) 0.1495(4)
C10_15 C 0.07771(14) 0.55876(15) 0.2300(3)
C11_15 C 0.04448(17) 0.53105(18) 0.3312(4)
H7_15 H 0.0152 0.5083 0.2923
H8_15 H 0.0689 0.5072 0.3821
H9_15 H 0.0275 0.5594 0.3857
C12_15 C 0.11120(15) 0.61132(15) 0.0761(4)
H10_15 H 0.1296 0.6889 0.0076
C1_15 C 0.80120(14) 0.52205(14) 0.1990(3)
C2_15 C 0.85638(14) 0.55030(15) 0.1871(3)
C3_15 C 0.89725(15) 0.53018(16) 0.1059(4)
H1_15 H 0.8909 0.4970 0.0592
C4_15 C 0.94728(15) 0.55830(17) 0.0927(4)
H2_15 H 0.9745 0.5446 0.0355
C5_15 C 0.95810(14) 0.60597(15) 0.1617(4)
C6_15 C 0.91752(18) 0.62506(18) 0.2438(5)
H3_15 H 0.9244 0.6575 0.2927
C7_15 C 0.86682(18) 0.59774(19) 0.2562(5)
H4_15 H 0.8394 0.6118 0.3124
O1_12 O 0.76037(10) 0.54987(10) 0.2457(2)
H3_16 H 0.5925 0.6744 0.0427
C7_16 C 0.65226(19) 0.61682(18) 0.0062(5)
H4_16 H 0.6382 0.5894 0.0624
C11_16 C 0.71895(18) 0.79448(17) 0.0812(4)
H7_16 H 0.7417 0.7652 0.0423
H8_16 H 0.7428 0.8189 0.1321
H9_16 H 0.6906 0.7775 0.1357
C1_16 C 0.72795(14) 0.55120(14) 0.9490(3)
C2_16 C 0.69970(15) 0.60638(14) 0.9371(3)
C3_16 C 0.71982(16) 0.64725(15) 0.8559(4)
H1_16 H 0.7530 0.6409 0.8092
C4_16 C 0.69170(17) 0.69728(15) 0.8427(4)
H2_16 H 0.7054 0.7245 0.7855
C5_16 C 0.64403(15) 0.70810(14) 0.9117(4)
C6_16 C 0.62494(18) 0.66752(18) 0.9938(5)
C8_16 C 0.61236(17) 0.76225(16) 0.8977(5)
H5_16 H 0.5847 0.7646 0.9670
H6_16 H 0.5915 0.7611 0.8167
C9_16 C 0.64686(15) 0.81395(15) 0.8995(4)
C10_16 C 0.69124(15) 0.82771(14) 0.9800(3)
C12_16 C 0.63868(15) 0.86120(15) 0.8261(4)
C13_12 C 0.5979(2) 0.87181(19) 0.7213(5)
H10_16 H 0.5611 0.8796 0.7576
H11_12 H 0.6102 0.9039 0.6712
H12_12 H 0.5956 0.8389 0.6666
C13_13 C 0.12181(19) 0.1521(2) 0.0287(5)
H11_13 H 0.1539 0.1398 0.0788
H12_13 H 0.0889 0.1544 0.0834
C13_14 C 0.87819(19) 0.3479(2) 0.0287(5)
H11_14 H 0.8461 0.3602 0.0788
H12_14 H 0.9111 0.3456 0.0834
C13_15 C 0.87819(19) 0.8479(2) 0.9713(5)
H11_15 H 0.8461 0.8602 0.9212
H12_15 H 0.9111 0.8456 0.9166
C13_16 C 0.12181(19) 0.6521(2) 0.9713(5)
H11_16 H 0.1539 0.6398 0.9212
H12_16 H 0.0889 0.6544 0.9166
loop_
_geom_bond_atom_site_label_1
_geom_bond_atom_site_label_2
_geom_bond_site_symmetry_1
_geom_bond_site_symmetry_2
C1 C2 1_555 1_555
C2 C3 1_555 1_555
C3 H1 1_555 1_555
C4 C3 1_555 1_555
H2 C4 1_555 1_555
C5 C4 1_555 1_555
C6 C5 1_555 1_555
H3 C6 1_555 1_555
C7 C2 1_555 1_555
H4 C7 1_555 1_555
C8 C5 1_555 1_555
H5 C8 1_555 1_555
H6 C8 1_555 1_555
C9 C8 1_555 1_555
C10 C9 1_555 1_555
C11 C10 1_555 1_555
H7 C11 1_555 1_555
H8 C11 1_555 1_555
H9 C11 1_555 1_555
C12 C9 1_555 1_555
C13 C12 1_555 1_555
H10 C13 1_555 1_555
H11 C13 1_555 1_555
H12 C13 1_555 1_555
Cd1 O1 1_555 1_555
N1 C12 1_555 1_555
N2 C10 1_555 1_555
O1 C1 1_555 1_555
O2 C1 1_555 1_555
Cd2 O1 1_555 1_555
Cd3 O2 1_555 1_555
Cd4 N1 1_555 1_555
Cd5 N2 1_555 1_555
N3 Cd1 1_555 1_555
O3 Cd1 1_555 1_555
O5 Cd1 1_555 1_555
C6 C7 1_555 1_555
N1 N2 1_555 1_555
O2 Cd2 1_555 1_555
Cd2 O5 1_555 1_555
C1_2 C2_2 1_555 1_555
C2_2 C3_2 1_555 1_555
C3_2 H1_2 1_555 1_555
C4_2 C3_2 1_555 1_555
H2_2 C4_2 1_555 1_555
C5_2 C4_2 1_555 1_555
C6_2 C5_2 1_555 1_555
H3_2 C6_2 1_555 1_555
C7_2 C2_2 1_555 1_555
H4_2 C7_2 1_555 1_555
C8_2 C5_2 1_555 1_555
H5_2 C8_2 1_555 1_555
H6_2 C8_2 1_555 1_555
C9_2 C8_2 1_555 1_555
C10_2 C9_2 1_555 1_555
C11_2 C10_2 1_555 1_555
H7_2 C11_2 1_555 1_555
H8_2 C11_2 1_555 1_555
H9_2 C11_2 1_555 1_555
C12_2 C9_2 1_555 1_555
C13_2 C12_2 1_555 1_555
H10_2 C13_2 1_555 1_555
H11_2 C13_2 1_555 1_555
H12_2 C13_2 1_555 1_555
Cd2 O1_2 1_555 1_555
N1_2 C12_2 1_555 1_555
N2_2 C10_2 1_555 1_555
O1_2 C1_2 1_555 1_555
O2_2 C1_2 1_555 1_555
Cd3 O1_2 1_555 1_555
Cd3_2 O2_2 1_555 1_555
Cd4_2 N1_2 1_555 1_555
Cd5_2 N2_2 1_555 1_555
N3_2 Cd2 1_555 1_555
N4_2 Cd2 1_555 1_555
C6_2 C7_2 1_555 1_555
N1_2 N2_2 1_555 1_555
O2_2 Cd3 1_555 1_555
Cd3_3 O2_3 1_555 1_555
O2_3 Cd2_2 1_555 1_555
Cd2_2 O5_2 1_555 1_555
C1_3 C2_3 1_555 1_555
C2_3 C3_3 1_555 1_555
C4_3 C3_3 1_555 1_555
H2_3 C4_3 1_555 1_555
C5_3 C4_3 1_555 1_555
C6_3 C5_3 1_555 1_555
H3_3 C6_3 1_555 1_555
C7_3 C2_3 1_555 1_555
H4_3 C7_3 1_555 1_555
C8_3 C5_3 1_555 1_555
H5_3 C8_3 1_555 1_555
H6_3 C8_3 1_555 1_555
C9_3 C8_3 1_555 1_555
C10_3 C9_3 1_555 1_555
C11_3 C10_3 1_555 1_555
H7_3 C11_3 1_555 1_555
H8_3 C11_3 1_555 1_555
H9_3 C11_3 1_555 1_555
C12_3 C9_3 1_555 1_555
C13_3 C12_3 1_555 1_555
H10_3 C13_3 1_555 1_555
H11_3 C13_3 1_555 1_555
H12_3 C13_3 1_555 1_555
Cd1_2 O1_3 1_555 1_555
N1_3 C12_3 1_555 1_555
N2_3 C10_3 1_555 1_555
O1_3 C1_3 1_555 1_555
Cd5_2 N1_3 1_555 1_555
N3_3 Cd1_2 1_555 1_555
C6_3 C7_3 1_555 1_555
N1_3 N2_3 1_555 1_555
N3_4 Cd2_2 1_555 1_555
C1_4 C2_4 1_555 1_555
C2_4 C3_4 1_555 1_555
C3_4 H1_4 1_555 1_555
C4_4 C3_4 1_555 1_555
H2_4 C4_4 1_555 1_555
C5_4 C4_4 1_555 1_555
C6_4 C5_4 1_555 1_555
H3_4 C6_4 1_555 1_555
C7_4 C2_4 1_555 1_555
H4_4 C7_4 1_555 1_555
C8_4 C5_4 1_555 1_555
H5_4 C8_4 1_555 1_555
H6_4 C8_4 1_555 1_555
C9_4 C8_4 1_555 1_555
C10_4 C9_4 1_555 1_555
C11_4 C10_4 1_555 1_555
H7_4 C11_4 1_555 1_555
H8_4 C11_4 1_555 1_555
H9_4 C11_4 1_555 1_555
C12_4 C9_4 1_555 1_555
C13_4 C12_4 1_555 1_555
H10_4 C13_4 1_555 1_555
H11_4 C13_4 1_555 1_555
H12_4 C13_4 1_555 1_555
N1_4 C12_4 1_555 1_555
N2_4 C10_4 1_555 1_555
O1_4 C1_4 1_555 1_555
O2_4 C1_4 1_555 1_555
Cd3_4 O2_4 1_555 1_555
Cd4_3 N1_4 1_555 1_555
Cd4 N2_4 1_555 1_555
C6_4 C7_4 1_555 1_555
N1_4 N2_4 1_555 1_555
H5_5 C8_5 1_555 1_555
H6_5 C8_5 1_555 1_555
C9_5 C8_5 1_555 1_555
C10_5 C9_5 1_555 1_555
C11_5 C10_5 1_555 1_555
H7_5 C11_5 1_555 1_555
H8_5 C11_5 1_555 1_555
H9_5 C11_5 1_555 1_555
C12_5 C9_5 1_555 1_555
N1_5 C12_5 1_555 1_555
N2_5 C10_5 1_555 1_555
Cd4_4 N1_5 1_555 1_555
N1_5 N2_5 1_555 1_555
C1_5 C2_5 1_555 1_555
C2_5 C3_5 1_555 1_555
C4_5 C3_5 1_555 1_555
H2_5 C4_5 1_555 1_555
C5_5 C4_5 1_555 1_555
C6_5 C5_5 1_555 1_555
H3_5 C6_5 1_555 1_555
C7_5 C2_5 1_555 1_555
H4_5 C7_5 1_555 1_555
Cd3_3 O1_5 1_555 1_555
O1_5 C1_5 1_555 1_555
N3_5 Cd3_3 1_555 1_555
N4_5 Cd3_3 1_555 1_555
C6_5 C7_5 1_555 1_555
O4_2 Cd3_4 1_555 1_555
C1_6 C2_6 1_555 1_555
C2_6 C3_6 1_555 1_555
C3_6 H1_6 1_555 1_555
C4_6 C3_6 1_555 1_555
H2_6 C4_6 1_555 1_555
C5_6 C4_6 1_555 1_555
C6_6 C5_6 1_555 1_555
C8_6 C5_6 1_555 1_555
H5_6 C8_6 1_555 1_555
H6_6 C8_6 1_555 1_555
C9_6 C8_6 1_555 1_555
C10_6 C9_6 1_555 1_555
C12_6 C9_6 1_555 1_555
C13_5 C12_6 1_555 1_555
H10_6 C13_5 1_555 1_555
H11_5 C13_5 1_555 1_555
H12_5 C13_5 1_555 1_555
N1_6 C12_6 1_555 1_555
N2_6 C10_6 1_555 1_555
O3_2 C1_6 1_555 1_555
O5_2 C1_6 1_555 1_555
Cd5 N1_6 1_555 1_555
N1_6 N2_6 1_555 1_555
H4_6 C7_6 1_555 1_555
H7_6 C11_6 1_555 1_555
H8_6 C11_6 1_555 1_555
H9_6 C11_6 1_555 1_555
N3_6 Cd3_4 1_555 1_555
C1_7 C2_7 1_555 1_555
C2_7 C3_7 1_555 1_555
C3_7 H1_7 1_555 1_555
C4_7 C3_7 1_555 1_555
H2_7 C4_7 1_555 1_555
C5_7 C4_7 1_555 1_555
C6_7 C5_7 1_555 1_555
H3_7 C6_7 1_555 1_555
C7_7 C2_7 1_555 1_555
H4_7 C7_7 1_555 1_555
Cd3 O1_6 1_555 1_555
O1_6 C1_7 1_555 1_555
O4 C1_7 1_555 1_555
Cd3_2 O1_6 1_555 1_555
N3_7 Cd3 1_555 1_555
N4_7 Cd3 1_555 1_555
C6_7 C7_7 1_555 1_555
O4 Cd3_2 1_555 1_555
H5_7 C8_7 1_555 1_555
H6_7 C8_7 1_555 1_555
C9_7 C8_7 1_555 1_555
C10_7 C9_7 1_555 1_555
C11_7 C10_7 1_555 1_555
H7_7 C11_7 1_555 1_555
H8_7 C11_7 1_555 1_555
H9_7 C11_7 1_555 1_555
C12_7 C9_7 1_555 1_555
N1_7 C12_7 1_555 1_555
N2_7 C10_7 1_555 1_555
Cd5_4 N1_7 1_555 1_555
Cd4_3 N2_7 1_555 1_555
N1_7 N2_7 1_555 1_555
C1_8 C2_8 1_555 1_555
C2_8 C3_8 1_555 1_555
C3_8 H1_8 1_555 1_555
C4_8 C3_8 1_555 1_555
H2_8 C4_8 1_555 1_555
C5_8 C4_8 1_555 1_555
C6_8 C5_8 1_555 1_555
C8_8 C5_8 1_555 1_555
H5_8 C8_8 1_555 1_555
H6_8 C8_8 1_555 1_555
C9_8 C8_8 1_555 1_555
C10_8 C9_8 1_555 1_555
C12_8 C9_8 1_555 1_555
C13_6 C12_8 1_555 1_555
H10_8 C13_6 1_555 1_555
H11_6 C13_6 1_555 1_555
H12_6 C13_6 1_555 1_555
N1_8 C12_8 1_555 1_555
N2_8 C10_8 1_555 1_555
O3 C1_8 1_555 1_555
O5 C1_8 1_555 1_555
Cd5_3 N1_8 1_555 1_555
N1_8 N2_8 1_555 1_555
H4_8 C7_8 1_555 1_555
H7_8 C11_8 1_555 1_555
H8_8 C11_8 1_555 1_555
H9_8 C11_8 1_555 1_555
N3_8 Cd3_2 1_555 1_555
N4_8 Cd3_2 1_555 1_555
C1_9 C2_9 1_555 1_555
C2_9 C3_9 1_555 1_555
C3_9 H1_9 1_555 1_555
C4_9 C3_9 1_555 1_555
H2_9 C4_9 1_555 1_555
C5_9 C4_9 1_555 1_555
C6_9 C5_9 1_555 1_555
H3_9 C6_9 1_555 1_555
C7_9 C2_9 1_555 1_555
H4_9 C7_9 1_555 1_555
C8_9 C5_9 1_555 1_555
H5_9 C8_9 1_555 1_555
H6_9 C8_9 1_555 1_555
C9_9 C8_9 1_555 1_555
C10_9 C9_9 1_555 1_555
C11_9 C10_9 1_555 1_555
H7_9 C11_9 1_555 1_555
H8_9 C11_9 1_555 1_555
H9_9 C11_9 1_555 1_555
C12_9 C9_9 1_555 1_555
C13_7 C12_9 1_555 1_555
H10_9 C13_7 1_555 1_555
H11_7 C13_7 1_555 1_555
H12_7 C13_7 1_555 1_555
Cd5_4 O1_7 1_555 1_555
N3_7 C12_9 1_555 1_555
N4_8 C10_9 1_555 1_555
O1_7 C1_9 1_555 1_555
O2_5 C1_9 1_555 1_555
Cd4_3 O1_7 1_555 1_555
Cd4 O2_5 1_555 1_555
O3_3 Cd5_4 1_555 1_555
O5_3 Cd5_4 1_555 1_555
C6_9 C7_9 1_555 1_555
N3_7 N4_8 1_555 1_555
O2_5 Cd4_3 1_555 1_555
Cd4_3 O5_3 1_555 1_555
C1_10 C2_10 1_555 1_555
C2_10 C3_10 1_555 1_555
C3_10 H1_10 1_555 1_555
C4_10 C3_10 1_555 1_555
H2_10 C4_10 1_555 1_555
C5_10 C4_10 1_555 1_555
C6_10 C5_10 1_555 1_555
H3_10 C6_10 1_555 1_555
C7_10 C2_10 1_555 1_555
H4_10 C7_10 1_555 1_555
C8_10 C5_10 1_555 1_555
H5_10 C8_10 1_555 1_555
H6_10 C8_10 1_555 1_555
C9_10 C8_10 1_555 1_555
C10_10 C9_10 1_555 1_555
C11_10 C10_10 1_555 1_555
H7_10 C11_10 1_555 1_555
H8_10 C11_10 1_555 1_555
H9_10 C11_10 1_555 1_555
C12_10 C9_10 1_555 1_555
C13_8 C12_10 1_555 1_555
H10_10 C13_8 1_555 1_555
H11_8 C13_8 1_555 1_555
H12_8 C13_8 1_555 1_555
Cd4_3 O1_8 1_555 1_555
N3_4 C12_10 1_555 1_555
N4_5 C10_10 1_555 1_555
O1_8 C1_10 1_555 1_555
O2_6 C1_10 1_555 1_555
Cd4 O1_8 1_555 1_555
Cd5 O2_6 1_555 1_555
C6_10 C7_10 1_555 1_555
N3_4 N4_5 1_555 1_555
O2_6 Cd4 1_555 1_555
C1_11 C2_11 1_555 1_555
C2_11 C3_11 1_555 1_555
C4_11 C3_11 1_555 1_555
H2_11 C4_11 1_555 1_555
C5_11 C4_11 1_555 1_555
C6_11 C5_11 1_555 1_555
H3_11 C6_11 1_555 1_555
C7_11 C2_11 1_555 1_555
H4_11 C7_11 1_555 1_555
C8_11 C5_11 1_555 1_555
H5_11 C8_11 1_555 1_555
H6_11 C8_11 1_555 1_555
C9_11 C8_11 1_555 1_555
C10_11 C9_11 1_555 1_555
C11_11 C10_11 1_555 1_555
H7_11 C11_11 1_555 1_555
H8_11 C11_11 1_555 1_555
H9_11 C11_11 1_555 1_555
C12_11 C9_11 1_555 1_555
C13_9 C12_11 1_555 1_555
H10_11 C13_9 1_555 1_555
H11_9 C13_9 1_555 1_555
H12_9 C13_9 1_555 1_555
Cd4_4 O1_9 1_555 1_555
N3_5 C12_11 1_555 1_555
N4_6 C10_11 1_555 1_555
O1_9 C1_11 1_555 1_555
C6_11 C7_11 1_555 1_555
N3_5 N4_6 1_555 1_555
Cd5_2 O2_7 1_555 1_555
O2_7 Cd4_2 1_555 1_555
Cd4_2 O5_4 1_555 1_555
C1_12 C2_12 1_555 1_555
C2_12 C3_12 1_555 1_555
C3_12 H1_12 1_555 1_555
C4_12 C3_12 1_555 1_555
H2_12 C4_12 1_555 1_555
C5_12 C4_12 1_555 1_555
C6_12 C5_12 1_555 1_555
H3_12 C6_12 1_555 1_555
C7_12 C2_12 1_555 1_555
H4_12 C7_12 1_555 1_555
C8_12 C5_12 1_555 1_555
H5_12 C8_12 1_555 1_555
H6_12 C8_12 1_555 1_555
C9_12 C8_12 1_555 1_555
C10_12 C9_12 1_555 1_555
C11_12 C10_12 1_555 1_555
H7_12 C11_12 1_555 1_555
H8_12 C11_12 1_555 1_555
H9_12 C11_12 1_555 1_555
C12_12 C9_12 1_555 1_555
C13_10 C12_12 1_555 1_555
H10_12 C13_10 1_555 1_555
H11_10 C13_10 1_555 1_555
H12_10 C13_10 1_555 1_555
N3_2 C12_12 1_555 1_555
N4_7 C10_12 1_555 1_555
O1_10 C1_12 1_555 1_555
O2_8 C1_12 1_555 1_555
Cd5_3 O2_8 1_555 1_555
C6_12 C7_12 1_555 1_555
N3_2 N4_7 1_555 1_555
O4_4 Cd5_3 1_555 1_555
C1_13 C2_13 1_555 1_555
C2_13 C3_13 1_555 1_555
C4_13 C3_13 1_555 1_555
H2_13 C4_13 1_555 1_555
C5_13 C4_13 1_555 1_555
C6_13 C5_13 1_555 1_555
H3_13 C6_13 1_555 1_555
C7_13 C2_13 1_555 1_555
H4_13 C7_13 1_555 1_555
Cd5_2 O1_11 1_555 1_555
O1_11 C1_13 1_555 1_555
C6_13 C7_13 1_555 1_555
H5_13 C8_13 1_555 1_555
H6_13 C8_13 1_555 1_555
C9_13 C8_13 1_555 1_555
C10_13 C9_13 1_555 1_555
C11_13 C10_13 1_555 1_555
H7_13 C11_13 1_555 1_555
H8_13 C11_13 1_555 1_555
H9_13 C11_13 1_555 1_555
C12_13 C9_13 1_555 1_555
N3_3 C12_13 1_555 1_555
N4_4 C10_13 1_555 1_555
N3_3 N4_4 1_555 1_555
H4_14 C7_14 1_555 1_555
H7_14 C11_14 1_555 1_555
H8_14 C11_14 1_555 1_555
H9_14 C11_14 1_555 1_555
C1_14 C2_14 1_555 1_555
C2_14 C3_14 1_555 1_555
C3_14 H1_14 1_555 1_555
C4_14 C3_14 1_555 1_555
H2_14 C4_14 1_555 1_555
C5_14 C4_14 1_555 1_555
C6_14 C5_14 1_555 1_555
C8_14 C5_14 1_555 1_555
H5_14 C8_14 1_555 1_555
H6_14 C8_14 1_555 1_555
C9_14 C8_14 1_555 1_555
C10_14 C9_14 1_555 1_555
C12_14 C9_14 1_555 1_555
C13_11 C12_14 1_555 1_555
H10_14 C13_11 1_555 1_555
H11_11 C13_11 1_555 1_555
H12_11 C13_11 1_555 1_555
N3_8 C12_14 1_555 1_555
N4 C10_14 1_555 1_555
O3_4 C1_14 1_555 1_555
O5_4 C1_14 1_555 1_555
N3_8 N4 1_555 1_555
H5_15 C8_15 1_555 1_555
H6_15 C8_15 1_555 1_555
C9_15 C8_15 1_555 1_555
C10_15 C9_15 1_555 1_555
C11_15 C10_15 1_555 1_555
H7_15 C11_15 1_555 1_555
H8_15 C11_15 1_555 1_555
H9_15 C11_15 1_555 1_555
C12_15 C9_15 1_555 1_555
N3 C12_15 1_555 1_555
N4_2 C10_15 1_555 1_555
N3 N4_2 1_555 1_555
C1_15 C2_15 1_555 1_555
C2_15 C3_15 1_555 1_555
C3_15 H1_15 1_555 1_555
C4_15 C3_15 1_555 1_555
H2_15 C4_15 1_555 1_555
C5_15 C4_15 1_555 1_555
C6_15 C5_15 1_555 1_555
H3_15 C6_15 1_555 1_555
C7_15 C2_15 1_555 1_555
H4_15 C7_15 1_555 1_555
Cd4 O1_12 1_555 1_555
O1_12 C1_15 1_555 1_555
O4_3 C1_15 1_555 1_555
Cd5 O1_12 1_555 1_555
C6_15 C7_15 1_555 1_555
O4_3 Cd5 1_555 1_555
H4_16 C7_16 1_555 1_555
H7_16 C11_16 1_555 1_555
H8_16 C11_16 1_555 1_555
H9_16 C11_16 1_555 1_555
C1_16 C2_16 1_555 1_555
C2_16 C3_16 1_555 1_555
C3_16 H1_16 1_555 1_555
C4_16 C3_16 1_555 1_555
H2_16 C4_16 1_555 1_555
C5_16 C4_16 1_555 1_555
C6_16 C5_16 1_555 1_555
C8_16 C5_16 1_555 1_555
H5_16 C8_16 1_555 1_555
H6_16 C8_16 1_555 1_555
C9_16 C8_16 1_555 1_555
C10_16 C9_16 1_555 1_555
C12_16 C9_16 1_555 1_555
C13_12 C12_16 1_555 1_555
H10_16 C13_12 1_555 1_555
H11_12 C13_12 1_555 1_555
H12_12 C13_12 1_555 1_555
N3_6 C12_16 1_555 1_555
N4_3 C10_16 1_555 1_555
O3_3 C1_16 1_555 1_555
O5_3 C1_16 1_555 1_555
N3_6 N4_3 1_555 1_555
H11_13 C13_13 1_555 1_555
H12_13 C13_13 1_555 1_555
H11_14 C13_14 1_555 1_555
H12_14 C13_14 1_555 1_555
H11_15 C13_15 1_555 1_555
H12_15 C13_15 1_555 1_555
H11_16 C13_16 1_555 1_555
H12_16 C13_16 1_555 1_555

#END
