
###############################################################################
#
# This file contains modified crystal structure data generated from the
# MOF subset of the Cambridge Structural Database (CSD) v543 
# hosted by the Cambridge Crystallographic Data Centre (CCDC).
#
# This work is licensed under the Creative Commons
# Attribution-NonCommercial-ShareAlike 4.0 International License.
# To view a copy of this license, visit
# http://creativecommons.org/licenses/by-nc-sa/4.0/
# or send a letter to
# Creative Commons, PO Box 1866, Mountain View, CA 94042, USA.
#
# CIF created using the CSD Python API on 29 September 2022
# The structure has been converted into the P1 space group
# The structure has a 3D framework
# The original CSD entry EROJUS02 is in the tetragonal crystal system
# The framework has been calculated to contain at least 10.0% void space
# The void calculation uses a probe of radius 1.32A, grid spacing 0.4
#
###############################################################################

data_EROJUS02
_chemical_formula_moiety         '(C208 H192 Cd12 N32 O28)n'
_symmetry_cell_setting           triclinic
_symmetry_space_group_name_H-M   'P 1'
_symmetry_Int_Tables_number      1
_space_group_name_Hall           'P 1'
loop_
_symmetry_equiv_pos_site_id
_symmetry_equiv_pos_as_xyz
1 x,y,z
_cell_length_a                   24.5830(4)
_cell_length_b                   24.5830(4)
_cell_length_c                   10.8704(3)
_cell_angle_alpha                90
_cell_angle_beta                 90
_cell_angle_gamma                90
_cell_volume                     6569.24
loop_
_atom_site_label
_atom_site_type_symbol
_atom_site_fract_x
_atom_site_fract_y
_atom_site_fract_z
Cd1 Cd 0.27577(2) 0.44786(2) 0.04171(4)
H11 H 0.6392 0.6318 0.0322
H12 H 0.5758 0.6381 0.0289
O3 O 0.28002(19) 0.54839(19) 0.0878(4)
O5 O 0.23504(16) 0.45824(19) 0.2425(4)
N4 N 0.3547(2) 0.4402(2) 0.1283(6)
C1 C 0.3603(2) 0.5410(3) 0.7816(6)
C2 C 0.4620(3) 0.5902(3) 0.7724(9)
C3 C 0.4512(3) 0.5509(4) 0.8578(11)
H1 H 0.4780 0.5408 0.9139
C4 C 0.4222(3) 0.6037(4) 0.6908(10)
H2 H 0.4293 0.6295 0.6302
C5 C 0.4003(3) 0.5257(4) 0.8617(10)
H3 H 0.3937 0.4984 0.9190
C6 C 0.3716(3) 0.5797(4) 0.6969(9)
H4 H 0.3447 0.5903 0.6418
O1 O 0.29839(19) 0.46998(19) 0.8378(4)
C7 C 0.3044(2) 0.5163(3) 0.7883(6)
O2 O 0.26496(16) 0.54176(19) 0.7425(4)
C8 C 0.5658(2) 0.5867(3) 0.7966(8)
C9 C 0.5841(3) 0.5419(3) 0.7306(8)
C10 C 0.5605(4) 0.5134(5) 0.6228(11)
H5 H 0.5277 0.4950 0.6471
H6 H 0.5862 0.4873 0.5919
H7 H 0.5522 0.5393 0.5595
C11 C 0.5161(3) 0.6200(4) 0.7686(12)
H8 H 0.5204 0.6357 0.6873
H9 H 0.5145 0.6499 0.8268
N1 N 0.6324(2) 0.5258(2) 0.7774(5)
N2 N 0.6453(2) 0.5598(2) 0.8717(6)
C12 C 0.6051(3) 0.5966(3) 0.8836(8)
C13 C 0.6084(4) 0.6388(4) 0.9804(11)
H10 H 0.6123 0.6739 0.9427
Cd2 Cd 0.22423(2) 0.55214(2) 0.54171(4)
Cd3 Cd 0.19786(2) 0.47423(2) 0.79171(4)
Cd4 Cd 0.72423(2) 0.55214(2) 0.95829(4)
Cd5 Cd 0.69786(2) 0.47423(2) 0.70829(4)
O4 O 0.20824(19) 0.51496(16) 0.9925(4)
N3 N 0.2242(2) 0.3824(2) 0.9726(5)
Cd1_2 Cd 0.30214(2) 0.52577(2) 0.29171(4)
C1_2 C 0.2090(3) 0.6103(2) 0.0316(6)
C2_2 C 0.1598(3) 0.7120(3) 0.0224(9)
C3_2 C 0.1991(4) 0.7012(3) 0.1078(11)
H1_2 H 0.2092 0.7280 0.1639
C5_2 C 0.2243(4) 0.6503(3) 0.1117(10)
H3_2 H 0.2516 0.6437 0.1690
C7_2 C 0.2337(3) 0.5544(2) 0.0383(6)
C8_2 C 0.1633(3) 0.8158(2) 0.0466(8)
C11_2 C 0.1300(4) 0.7661(3) 0.0186(12)
H9_2 H 0.1001 0.7645 0.0768
N1_2 N 0.2242(2) 0.8824(2) 0.0274(5)
N2_2 N 0.1902(2) 0.8953(2) 0.1217(6)
C12_2 C 0.1534(3) 0.8551(3) 0.1336(8)
C13_2 C 0.1112(4) 0.8584(4) 0.2304(11)
H10_2 H 0.0761 0.8623 0.1927
H11_2 H 0.1182 0.8892 0.2822
H12_2 H 0.1119 0.8258 0.2789
Cd4_2 Cd 0.19786(2) 0.97423(2) 0.20829(4)
O3_2 O 0.20161(19) 0.53002(19) 0.3378(4)
O5_2 O 0.29176(19) 0.48504(16) 0.4925(4)
N3_2 N 0.3676(2) 0.4742(2) 0.2226(5)
N4_2 N 0.3098(2) 0.6047(2) 0.3783(6)
C4_2 C 0.1463(4) 0.6722(3) 0.9408(10)
H2_2 H 0.1205 0.6793 0.8802
C6_2 C 0.1703(4) 0.6216(3) 0.9469(9)
H4_2 H 0.1597 0.5947 0.8918
C9_2 C 0.2081(3) 0.8341(3) 0.9806(8)
C10_2 C 0.2366(5) 0.8105(4) 0.8728(11)
H5_2 H 0.2550 0.7777 0.8971
H6_2 H 0.2627 0.8362 0.8419
H7_2 H 0.2107 0.8022 0.8095
H8_2 H 0.1143 0.7704 0.9373
Cd5_2 Cd 0.27577(2) 0.94786(2) 0.95829(4)
Cd1_3 Cd 0.72423(2) 0.05214(2) 0.04171(4)
O5_3 O 0.76496(16) 0.04176(19) 0.2425(4)
N4_3 N 0.6453(2) 0.0598(2) 0.1283(6)
H3_3 H 0.6063 0.0016 0.9190
O1_2 O 0.70161(19) 0.03002(19) 0.8378(4)
H5_3 H 0.4723 0.0050 0.6471
H6_3 H 0.4138 0.0127 0.5919
Cd3_2 Cd 0.80214(2) 0.02577(2) 0.79171(4)
Cd5_3 Cd 0.30214(2) 0.02577(2) 0.70829(4)
N3_3 N 0.7758(2) 0.1176(2) 0.9726(5)
H11_3 H 0.3608 0.8682 0.0322
H12_3 H 0.4242 0.8619 0.0289
O3_3 O 0.71998(19) 0.95161(19) 0.0878(4)
C1_3 C 0.6397(2) 0.9590(3) 0.7816(6)
C2_3 C 0.5380(3) 0.9098(3) 0.7724(9)
C3_3 C 0.5488(3) 0.9491(4) 0.8578(11)
H1_3 H 0.5220 0.9592 0.9139
C4_3 C 0.5778(3) 0.8963(4) 0.6908(10)
H2_3 H 0.5707 0.8705 0.6302
C5_3 C 0.5997(3) 0.9743(4) 0.8617(10)
C6_3 C 0.6284(3) 0.9203(4) 0.6969(9)
H4_3 H 0.6553 0.9097 0.6418
C7_3 C 0.6956(2) 0.9837(3) 0.7883(6)
O2_2 O 0.73504(16) 0.95824(19) 0.7425(4)
C8_3 C 0.4342(2) 0.9133(3) 0.7966(8)
C9_3 C 0.4159(3) 0.9581(3) 0.7306(8)
C10_3 C 0.4395(4) 0.9866(5) 0.6228(11)
H7_3 H 0.4478 0.9607 0.5595
C11_3 C 0.4839(3) 0.8800(4) 0.7686(12)
H8_3 H 0.4796 0.8643 0.6873
H9_3 H 0.4855 0.8501 0.8268
N1_3 N 0.3676(2) 0.9742(2) 0.7774(5)
N2_3 N 0.3547(2) 0.9402(2) 0.8717(6)
C12_3 C 0.3949(3) 0.9034(3) 0.8836(8)
C13_3 C 0.3916(4) 0.8612(4) 0.9804(11)
H10_3 H 0.3877 0.8261 0.9427
Cd2_2 Cd 0.77577(2) 0.94786(2) 0.54171(4)
O4_2 O 0.79176(19) 0.98504(16) 0.9925(4)
O5_4 O 0.70824(19) 0.01496(16) 0.4925(4)
N3_4 N 0.6324(2) 0.0258(2) 0.2226(5)
Cd1_4 Cd 0.69786(2) 0.97423(2) 0.29171(4)
C1_4 C 0.7910(3) 0.8897(2) 0.0316(6)
C2_4 C 0.8402(3) 0.7880(3) 0.0224(9)
C3_4 C 0.8009(4) 0.7988(3) 0.1078(11)
H1_4 H 0.7908 0.7720 0.1639
C5_4 C 0.7757(4) 0.8497(3) 0.1117(10)
H3_4 H 0.7484 0.8563 0.1690
C7_4 C 0.7663(3) 0.9456(2) 0.0383(6)
C8_4 C 0.8367(3) 0.6842(2) 0.0466(8)
C11_4 C 0.8700(4) 0.7339(3) 0.0186(12)
H9_4 H 0.8999 0.7355 0.0768
N1_4 N 0.7758(2) 0.6176(2) 0.0274(5)
N2_4 N 0.8098(2) 0.6047(2) 0.1217(6)
C12_4 C 0.8466(3) 0.6449(3) 0.1336(8)
C13_4 C 0.8888(4) 0.6416(4) 0.2304(11)
H10_4 H 0.9239 0.6377 0.1927
H11_4 H 0.8818 0.6108 0.2822
H12_4 H 0.8881 0.6742 0.2789
Cd4_3 Cd 0.80214(2) 0.52577(2) 0.20829(4)
O3_4 O 0.79839(19) 0.96998(19) 0.3378(4)
N4_4 N 0.6902(2) 0.8953(2) 0.3783(6)
C4_4 C 0.8537(4) 0.8278(3) 0.9408(10)
H2_4 H 0.8795 0.8207 0.8802
C6_4 C 0.8297(4) 0.8784(3) 0.9469(9)
H4_4 H 0.8403 0.9053 0.8918
C9_4 C 0.7919(3) 0.6659(3) 0.9806(8)
C10_4 C 0.7634(5) 0.6895(4) 0.8728(11)
H5_4 H 0.7450 0.7223 0.8971
H6_4 H 0.7373 0.6638 0.8419
H7_4 H 0.7893 0.6978 0.8095
H8_4 H 0.8857 0.7296 0.9373
C8_5 C 0.0658(2) 0.0867(3) 0.2966(8)
C9_5 C 0.0841(3) 0.0419(3) 0.2306(8)
C10_5 C 0.0605(4) 0.0134(5) 0.1228(11)
H7_5 H 0.0522 0.0393 0.0595
C11_5 C 0.0161(3) 0.1200(4) 0.2686(12)
H8_5 H 0.0204 0.1357 0.1873
H9_5 H 0.0145 0.1499 0.3268
N1_5 N 0.1324(2) 0.0258(2) 0.2774(5)
N2_5 N 0.1453(2) 0.0598(2) 0.3717(6)
C12_5 C 0.1051(3) 0.0966(3) 0.3836(8)
C13_5 C 0.1084(4) 0.1388(4) 0.4804(11)
H10_5 H 0.1123 0.1739 0.4427
H11_5 H 0.1392 0.1318 0.5322
H12_5 H 0.0758 0.1381 0.5289
Cd4_4 Cd 0.22423(2) 0.05214(2) 0.45829(4)
H5_5 H 0.0277 0.9950 0.1471
H6_5 H 0.0862 0.9873 0.0919
C1_5 C 0.8603(2) 0.0410(3) 0.2816(6)
C2_5 C 0.9620(3) 0.0902(3) 0.2724(9)
C3_5 C 0.9512(3) 0.0509(4) 0.3578(11)
H1_5 H 0.9780 0.0408 0.4139
C4_5 C 0.9222(3) 0.1037(4) 0.1908(10)
H2_5 H 0.9293 0.1295 0.1302
C5_5 C 0.9003(3) 0.0257(4) 0.3617(10)
C6_5 C 0.8716(3) 0.0797(4) 0.1969(9)
H4_5 H 0.8447 0.0903 0.1418
C7_5 C 0.8044(2) 0.0163(3) 0.2883(6)
O3_5 O 0.78002(19) 0.04839(19) 0.5878(4)
H3_5 H 0.8937 0.9984 0.4190
N3_5 N 0.7242(2) 0.8824(2) 0.4726(5)
N4_5 N 0.8547(2) 0.9402(2) 0.6283(6)
C1_6 C 0.7090(3) 0.1103(2) 0.5316(6)
C2_6 C 0.6598(3) 0.2120(3) 0.5224(9)
C3_6 C 0.6991(4) 0.2012(3) 0.6078(11)
H1_6 H 0.7092 0.2280 0.6639
C4_6 C 0.6463(4) 0.1722(3) 0.4408(10)
H2_6 H 0.6205 0.1793 0.3802
C5_6 C 0.7243(4) 0.1503(3) 0.6117(10)
H3_6 H 0.7516 0.1437 0.6690
C6_6 C 0.6703(4) 0.1216(3) 0.4469(9)
H4_6 H 0.6597 0.0947 0.3918
C7_6 C 0.7337(3) 0.0544(2) 0.5383(6)
C8_6 C 0.6633(3) 0.3158(2) 0.5466(8)
C9_6 C 0.7081(3) 0.3341(3) 0.4806(8)
C10_6 C 0.7366(5) 0.3105(4) 0.3728(11)
H5_6 H 0.7550 0.2777 0.3971
H6_6 H 0.7627 0.3362 0.3419
H7_6 H 0.7107 0.3022 0.3095
C11_6 C 0.6300(4) 0.2661(3) 0.5186(12)
H8_6 H 0.6143 0.2704 0.4373
H9_6 H 0.6001 0.2645 0.5768
N1_6 N 0.7242(2) 0.3824(2) 0.5274(5)
N2_6 N 0.6902(2) 0.3953(2) 0.6217(6)
C12_6 C 0.6534(3) 0.3551(3) 0.6336(8)
C13_6 C 0.6112(4) 0.3584(4) 0.7304(11)
H10_6 H 0.5761 0.3623 0.6927
H11_6 H 0.6182 0.3892 0.7822
H12_6 H 0.6119 0.3258 0.7789
Cd5_4 Cd 0.77577(2) 0.44786(2) 0.45829(4)
N4_6 N 0.8098(2) 0.1047(2) 0.8783(6)
N3_6 N 0.8676(2) 0.9742(2) 0.7226(5)
C1_7 C 0.1397(2) 0.4590(3) 0.2816(6)
C2_7 C 0.0380(3) 0.4098(3) 0.2724(9)
C3_7 C 0.0488(3) 0.4491(4) 0.3578(11)
H1_7 H 0.0220 0.4592 0.4139
C4_7 C 0.0778(3) 0.3963(4) 0.1908(10)
H2_7 H 0.0707 0.3705 0.1302
C5_7 C 0.0997(3) 0.4743(4) 0.3617(10)
H3_7 H 0.1063 0.5016 0.4190
C6_7 C 0.1284(3) 0.4203(4) 0.1969(9)
H4_7 H 0.1553 0.4097 0.1418
C7_7 C 0.1956(2) 0.4837(3) 0.2883(6)
O3_6 O 0.21998(19) 0.45161(19) 0.5878(4)
N3_7 N 0.2758(2) 0.6176(2) 0.4726(5)
N4_7 N 0.1453(2) 0.5598(2) 0.6283(6)
C8_7 C 0.9342(2) 0.4133(3) 0.2966(8)
C9_7 C 0.9159(3) 0.4581(3) 0.2306(8)
C10_7 C 0.9395(4) 0.4866(5) 0.1228(11)
H5_7 H 0.9723 0.5050 0.1471
H6_7 H 0.9138 0.5127 0.0919
H7_7 H 0.9478 0.4607 0.0595
C11_7 C 0.9839(3) 0.3800(4) 0.2686(12)
H8_7 H 0.9796 0.3643 0.1873
H9_7 H 0.9855 0.3501 0.3268
N1_7 N 0.8676(2) 0.4742(2) 0.2774(5)
N2_7 N 0.8547(2) 0.4402(2) 0.3717(6)
C12_7 C 0.8949(3) 0.4034(3) 0.3836(8)
C13_7 C 0.8916(4) 0.3612(4) 0.4804(11)
H10_7 H 0.8877 0.3261 0.4427
H11_7 H 0.8608 0.3682 0.5322
H12_7 H 0.9242 0.3619 0.5289
C1_8 C 0.2910(3) 0.3897(2) 0.5316(6)
C2_8 C 0.3402(3) 0.2880(3) 0.5224(9)
C3_8 C 0.3009(4) 0.2988(3) 0.6078(11)
H1_8 H 0.2908 0.2720 0.6639
C4_8 C 0.3537(4) 0.3278(3) 0.4408(10)
H2_8 H 0.3795 0.3207 0.3802
C5_8 C 0.2757(4) 0.3497(3) 0.6117(10)
H3_8 H 0.2484 0.3563 0.6690
C6_8 C 0.3297(4) 0.3784(3) 0.4469(9)
H4_8 H 0.3403 0.4053 0.3918
C7_8 C 0.2663(3) 0.4456(2) 0.5383(6)
C8_8 C 0.3367(3) 0.1842(2) 0.5466(8)
C9_8 C 0.2919(3) 0.1659(3) 0.4806(8)
C10_8 C 0.2634(5) 0.1895(4) 0.3728(11)
H5_8 H 0.2450 0.2223 0.3971
H6_8 H 0.2373 0.1638 0.3419
H7_8 H 0.2893 0.1978 0.3095
C11_8 C 0.3700(4) 0.2339(3) 0.5186(12)
H8_8 H 0.3857 0.2296 0.4373
H9_8 H 0.3999 0.2355 0.5768
N1_8 N 0.2758(2) 0.1176(2) 0.5274(5)
N2_8 N 0.3098(2) 0.1047(2) 0.6217(6)
C12_8 C 0.3466(3) 0.1449(3) 0.6336(8)
C13_8 C 0.3888(4) 0.1416(4) 0.7304(11)
H10_8 H 0.4239 0.1377 0.6927
H11_8 H 0.3818 0.1108 0.7822
H12_8 H 0.3881 0.1742 0.7789
N3_8 N 0.1324(2) 0.5258(2) 0.7226(5)
N4_8 N 0.1902(2) 0.3953(2) 0.8783(6)
C1_9 C 0.6397(2) 0.4590(3) 0.2184(6)
C2_9 C 0.5380(3) 0.4098(3) 0.2276(9)
C3_9 C 0.5488(3) 0.4491(4) 0.1422(11)
H1_9 H 0.5220 0.4592 0.0861
C4_9 C 0.5778(3) 0.3963(4) 0.3092(10)
H2_9 H 0.5707 0.3705 0.3698
C5_9 C 0.5997(3) 0.4743(4) 0.1383(10)
H3_9 H 0.6063 0.5016 0.0810
C6_9 C 0.6284(3) 0.4203(4) 0.3031(9)
H4_9 H 0.6553 0.4097 0.3582
O1_3 O 0.70161(19) 0.53002(19) 0.1622(4)
C7_9 C 0.6956(2) 0.4837(3) 0.2117(6)
O2_3 O 0.73504(16) 0.45824(19) 0.2575(4)
C8_9 C 0.4342(2) 0.4133(3) 0.2034(8)
C9_9 C 0.4159(3) 0.4581(3) 0.2694(8)
C10_9 C 0.4395(4) 0.4866(5) 0.3772(11)
H5_9 H 0.4723 0.5050 0.3529
H6_9 H 0.4138 0.5127 0.4081
H7_9 H 0.4478 0.4607 0.4405
C11_9 C 0.4839(3) 0.3800(4) 0.2314(12)
H8_9 H 0.4796 0.3643 0.3127
H9_9 H 0.4855 0.3501 0.1732
C12_9 C 0.3949(3) 0.4034(3) 0.1164(8)
C13_9 C 0.3916(4) 0.3612(4) 0.0196(11)
H10_9 H 0.3877 0.3261 0.0573
O4_3 O 0.79176(19) 0.48504(16) 0.0075(4)
H11_9 H 0.3608 0.3682 0.9678
H12_9 H 0.4242 0.3619 0.9711
O3_7 O 0.71998(19) 0.45161(19) 0.9122(4)
O5_5 O 0.76496(16) 0.54176(19) 0.7575(4)
C4_10 C 0.8537(4) 0.3278(3) 0.0592(10)
H2_10 H 0.8795 0.3207 0.1198
C6_10 C 0.8297(4) 0.3784(3) 0.0531(9)
H4_10 H 0.8403 0.4053 0.1082
C9_10 C 0.7919(3) 0.1659(3) 0.0194(8)
C10_10 C 0.7634(5) 0.1895(4) 0.1272(11)
H5_10 H 0.7450 0.2223 0.1029
H6_10 H 0.7373 0.1638 0.1581
H7_10 H 0.7893 0.1978 0.1905
H8_10 H 0.8857 0.2296 0.0627
C1_10 C 0.7910(3) 0.3897(2) 0.9684(6)
C2_10 C 0.8402(3) 0.2880(3) 0.9776(9)
C3_10 C 0.8009(4) 0.2988(3) 0.8922(11)
H1_10 H 0.7908 0.2720 0.8361
C5_10 C 0.7757(4) 0.3497(3) 0.8883(10)
H3_10 H 0.7484 0.3563 0.8310
C7_10 C 0.7663(3) 0.4456(2) 0.9617(6)
C8_10 C 0.8367(3) 0.1842(2) 0.9534(8)
C11_10 C 0.8700(4) 0.2339(3) 0.9814(12)
H9_10 H 0.8999 0.2355 0.9232
C12_10 C 0.8466(3) 0.1449(3) 0.8664(8)
C13_10 C 0.8888(4) 0.1416(4) 0.7696(11)
H10_10 H 0.9239 0.1377 0.8073
H11_10 H 0.8818 0.1108 0.7178
H12_10 H 0.8881 0.1742 0.7211
O3_8 O 0.79839(19) 0.46998(19) 0.6622(4)
O5_6 O 0.70824(19) 0.51496(16) 0.5075(4)
C1_11 C 0.3603(2) 0.0410(3) 0.2184(6)
C2_11 C 0.4620(3) 0.0902(3) 0.2276(9)
C3_11 C 0.4512(3) 0.0509(4) 0.1422(11)
H1_11 H 0.4780 0.0408 0.0861
C4_11 C 0.4222(3) 0.1037(4) 0.3092(10)
H2_11 H 0.4293 0.1295 0.3698
C5_11 C 0.4003(3) 0.0257(4) 0.1383(10)
C6_11 C 0.3716(3) 0.0797(4) 0.3031(9)
H4_11 H 0.3447 0.0903 0.3582
C7_11 C 0.3044(2) 0.0163(3) 0.2117(6)
O2_4 O 0.26496(16) 0.04176(19) 0.2575(4)
C8_11 C 0.5658(2) 0.0867(3) 0.2034(8)
C9_11 C 0.5841(3) 0.0419(3) 0.2694(8)
C10_11 C 0.5605(4) 0.0134(5) 0.3772(11)
H7_11 H 0.5522 0.0393 0.4405
C11_11 C 0.5161(3) 0.1200(4) 0.2314(12)
H8_11 H 0.5204 0.1357 0.3127
H9_11 H 0.5145 0.1499 0.1732
C12_11 C 0.6051(3) 0.0966(3) 0.1164(8)
C13_11 C 0.6084(4) 0.1388(4) 0.0196(11)
H10_11 H 0.6123 0.1739 0.0573
O4_4 O 0.20824(19) 0.01496(16) 0.0075(4)
H11_11 H 0.6392 0.1318 0.9678
H12_11 H 0.5758 0.1381 0.9711
O3_9 O 0.28002(19) 0.04839(19) 0.9122(4)
H3_11 H 0.3937 0.9984 0.0810
O1_4 O 0.29839(19) 0.96998(19) 0.1622(4)
H5_11 H 0.5277 0.9950 0.3529
H6_11 H 0.5862 0.9873 0.4081
O5_7 O 0.23504(16) 0.95824(19) 0.7575(4)
C4_12 C 0.1463(4) 0.1722(3) 0.0592(10)
H2_12 H 0.1205 0.1793 0.1198
C6_12 C 0.1703(4) 0.1216(3) 0.0531(9)
H4_12 H 0.1597 0.0947 0.1082
C9_12 C 0.2081(3) 0.3341(3) 0.0194(8)
C10_12 C 0.2366(5) 0.3105(4) 0.1272(11)
H5_12 H 0.2550 0.2777 0.1029
H6_12 H 0.2627 0.3362 0.1581
H7_12 H 0.2107 0.3022 0.1905
H8_12 H 0.1143 0.2704 0.0627
C1_12 C 0.2090(3) 0.1103(2) 0.9684(6)
C2_12 C 0.1598(3) 0.2120(3) 0.9776(9)
C3_12 C 0.1991(4) 0.2012(3) 0.8922(11)
H1_12 H 0.2092 0.2280 0.8361
C5_12 C 0.2243(4) 0.1503(3) 0.8883(10)
H3_12 H 0.2516 0.1437 0.8310
C7_12 C 0.2337(3) 0.0544(2) 0.9617(6)
C8_12 C 0.1633(3) 0.3158(2) 0.9534(8)
C11_12 C 0.1300(4) 0.2661(3) 0.9814(12)
H9_12 H 0.1001 0.2645 0.9232
C12_12 C 0.1534(3) 0.3551(3) 0.8664(8)
C13_12 C 0.1112(4) 0.3584(4) 0.7696(11)
H10_12 H 0.0761 0.3623 0.8073
H11_12 H 0.1182 0.3892 0.7178
H12_12 H 0.1119 0.3258 0.7211
O3_10 O 0.20161(19) 0.03002(19) 0.6622(4)
O5_8 O 0.29176(19) 0.98504(16) 0.5075(4)
H3_13 H 0.1063 0.0016 0.5810
C1_13 C 0.1397(2) 0.9590(3) 0.7184(6)
C2_13 C 0.0380(3) 0.9098(3) 0.7276(9)
C3_13 C 0.0488(3) 0.9491(4) 0.6422(11)
H1_13 H 0.0220 0.9592 0.5861
C4_13 C 0.0778(3) 0.8963(4) 0.8092(10)
H2_13 H 0.0707 0.8705 0.8698
C5_13 C 0.0997(3) 0.9743(4) 0.6383(10)
C6_13 C 0.1284(3) 0.9203(4) 0.8031(9)
H4_13 H 0.1553 0.9097 0.8582
C7_13 C 0.1956(2) 0.9837(3) 0.7117(6)
O3_11 O 0.21998(19) 0.95161(19) 0.4122(4)
H5_13 H 0.9723 0.0050 0.8529
H6_13 H 0.9138 0.0127 0.9081
C8_13 C 0.9342(2) 0.9133(3) 0.7034(8)
C9_13 C 0.9159(3) 0.9581(3) 0.7694(8)
C10_13 C 0.9395(4) 0.9866(5) 0.8772(11)
H7_13 H 0.9478 0.9607 0.9405
C11_13 C 0.9839(3) 0.8800(4) 0.7314(12)
H8_13 H 0.9796 0.8643 0.8127
H9_13 H 0.9855 0.8501 0.6732
C12_13 C 0.8949(3) 0.9034(3) 0.6164(8)
C13_13 C 0.8916(4) 0.8612(4) 0.5196(11)
H10_13 H 0.8877 0.8261 0.5573
H11_13 H 0.8608 0.8682 0.4678
H12_13 H 0.9242 0.8619 0.4711
C1_14 C 0.2910(3) 0.8897(2) 0.4684(6)
C2_14 C 0.3402(3) 0.7880(3) 0.4776(9)
C3_14 C 0.3009(4) 0.7988(3) 0.3922(11)
H1_14 H 0.2908 0.7720 0.3361
C4_14 C 0.3537(4) 0.8278(3) 0.5592(10)
H2_14 H 0.3795 0.8207 0.6198
C5_14 C 0.2757(4) 0.8497(3) 0.3883(10)
H3_14 H 0.2484 0.8563 0.3310
C6_14 C 0.3297(4) 0.8784(3) 0.5531(9)
H4_14 H 0.3403 0.9053 0.6082
C7_14 C 0.2663(3) 0.9456(2) 0.4617(6)
C8_14 C 0.3367(3) 0.6842(2) 0.4534(8)
C9_14 C 0.2919(3) 0.6659(3) 0.5194(8)
C10_14 C 0.2634(5) 0.6895(4) 0.6272(11)
H5_14 H 0.2450 0.7223 0.6029
H6_14 H 0.2373 0.6638 0.6581
H7_14 H 0.2893 0.6978 0.6905
C11_14 C 0.3700(4) 0.7339(3) 0.4814(12)
H8_14 H 0.3857 0.7296 0.5627
H9_14 H 0.3999 0.7355 0.4232
C12_14 C 0.3466(3) 0.6449(3) 0.3664(8)
C13_14 C 0.3888(4) 0.6416(4) 0.2696(11)
H10_14 H 0.4239 0.6377 0.3073
H11_14 H 0.3818 0.6108 0.2178
H12_14 H 0.3881 0.6742 0.2211
C8_15 C 0.0658(2) 0.5867(3) 0.7034(8)
C9_15 C 0.0841(3) 0.5419(3) 0.7694(8)
C10_15 C 0.0605(4) 0.5134(5) 0.8772(11)
H5_15 H 0.0277 0.4950 0.8529
H6_15 H 0.0862 0.4873 0.9081
H7_15 H 0.0522 0.5393 0.9405
C11_15 C 0.0161(3) 0.6200(4) 0.7314(12)
H8_15 H 0.0204 0.6357 0.8127
H9_15 H 0.0145 0.6499 0.6732
C12_15 C 0.1051(3) 0.5966(3) 0.6164(8)
C13_15 C 0.1084(4) 0.6388(4) 0.5196(11)
H10_15 H 0.1123 0.6739 0.5573
H11_15 H 0.1392 0.6318 0.4678
H12_15 H 0.0758 0.6381 0.4711
C1_15 C 0.8603(2) 0.5410(3) 0.7184(6)
C2_15 C 0.9620(3) 0.5902(3) 0.7276(9)
C3_15 C 0.9512(3) 0.5509(4) 0.6422(11)
H1_15 H 0.9780 0.5408 0.5861
C4_15 C 0.9222(3) 0.6037(4) 0.8092(10)
H2_15 H 0.9293 0.6295 0.8698
C5_15 C 0.9003(3) 0.5257(4) 0.6383(10)
H3_15 H 0.8937 0.4984 0.5810
C6_15 C 0.8716(3) 0.5797(4) 0.8031(9)
H4_15 H 0.8447 0.5903 0.8582
C7_15 C 0.8044(2) 0.5163(3) 0.7117(6)
O3_12 O 0.78002(19) 0.54839(19) 0.4122(4)
C1_16 C 0.7090(3) 0.6103(2) 0.4684(6)
C2_16 C 0.6598(3) 0.7120(3) 0.4776(9)
C3_16 C 0.6991(4) 0.7012(3) 0.3922(11)
H1_16 H 0.7092 0.7280 0.3361
C4_16 C 0.6463(4) 0.6722(3) 0.5592(10)
H2_16 H 0.6205 0.6793 0.6198
C5_16 C 0.7243(4) 0.6503(3) 0.3883(10)
H3_16 H 0.7516 0.6437 0.3310
C6_16 C 0.6703(4) 0.6216(3) 0.5531(9)
H4_16 H 0.6597 0.5947 0.6082
C7_16 C 0.7337(3) 0.5544(2) 0.4617(6)
C8_16 C 0.6633(3) 0.8158(2) 0.4534(8)
C9_16 C 0.7081(3) 0.8341(3) 0.5194(8)
C10_16 C 0.7366(5) 0.8105(4) 0.6272(11)
H5_16 H 0.7550 0.7777 0.6029
H6_16 H 0.7627 0.8362 0.6581
H7_16 H 0.7107 0.8022 0.6905
C11_16 C 0.6300(4) 0.7661(3) 0.4814(12)
H8_16 H 0.6143 0.7704 0.5627
H9_16 H 0.6001 0.7645 0.4232
C12_16 C 0.6534(3) 0.8551(3) 0.3664(8)
C13_16 C 0.6112(4) 0.8584(4) 0.2696(11)
H10_16 H 0.5761 0.8623 0.3073
H11_16 H 0.6182 0.8892 0.2178
H12_16 H 0.6119 0.8258 0.2211
loop_
_geom_bond_atom_site_label_1
_geom_bond_atom_site_label_2
_geom_bond_site_symmetry_1
_geom_bond_site_symmetry_2
O3 Cd1 1_555 1_555
O5 Cd1 1_555 1_555
N4 Cd1 1_555 1_555
C1 C5 1_555 1_555
C2 C3 1_555 1_555
C3 H1 1_555 1_555
C4 C2 1_555 1_555
H2 C4 1_555 1_555
C5 C3 1_555 1_555
H3 C5 1_555 1_555
C6 C1 1_555 1_555
H4 C6 1_555 1_555
O1 C7 1_555 1_555
C7 C1 1_555 1_555
O2 C7 1_555 1_555
C8 C9 1_555 1_555
C9 C10 1_555 1_555
C10 H5 1_555 1_555
H6 C10 1_555 1_555
H7 C10 1_555 1_555
C11 C2 1_555 1_555
H8 C11 1_555 1_555
H9 C11 1_555 1_555
N1 C9 1_555 1_555
N2 N1 1_555 1_555
C12 C8 1_555 1_555
C13 C12 1_555 1_555
H10 C13 1_555 1_555
Cd2 O2 1_555 1_555
Cd3 O1 1_555 1_555
Cd4 N2 1_555 1_555
Cd5 N1 1_555 1_555
C4 C6 1_555 1_555
O2 Cd3 1_555 1_555
C8 C11 1_555 1_555
N2 C12 1_555 1_555
Cd3 O4 1_555 1_555
Cd1_2 O3 1_555 1_555
C1_2 C5_2 1_555 1_555
C2_2 C3_2 1_555 1_555
C3_2 H1_2 1_555 1_555
C5_2 C3_2 1_555 1_555
H3_2 C5_2 1_555 1_555
O3 C7_2 1_555 1_555
C7_2 C1_2 1_555 1_555
C11_2 C2_2 1_555 1_555
H9_2 C11_2 1_555 1_555
N2_2 N1_2 1_555 1_555
C12_2 C8_2 1_555 1_555
C13_2 C12_2 1_555 1_555
H10_2 C13_2 1_555 1_555
H11_2 C13_2 1_555 1_555
H12_2 C13_2 1_555 1_555
Cd4_2 N2_2 1_555 1_555
O3_2 Cd1_2 1_555 1_555
O5 Cd1_2 1_555 1_555
O5_2 Cd1_2 1_555 1_555
N3_2 Cd1_2 1_555 1_555
N4_2 Cd1_2 1_555 1_555
C8_2 C11_2 1_555 1_555
N2_2 C12_2 1_555 1_555
H2_2 C4_2 1_555 1_555
H4_2 C6_2 1_555 1_555
C9_2 C10_2 1_555 1_555
C10_2 H5_2 1_555 1_555
H6_2 C10_2 1_555 1_555
H7_2 C10_2 1_555 1_555
C4_2 C6_2 1_555 1_555
O5_3 Cd1_3 1_555 1_555
N4_3 Cd1_3 1_555 1_555
Cd3_2 O1_2 1_555 1_555
C1_3 C5_3 1_555 1_555
C2_3 C3_3 1_555 1_555
C3_3 H1_3 1_555 1_555
C4_3 C2_3 1_555 1_555
H2_3 C4_3 1_555 1_555
C5_3 C3_3 1_555 1_555
C6_3 C1_3 1_555 1_555
H4_3 C6_3 1_555 1_555
C7_3 C1_3 1_555 1_555
O2_2 C7_3 1_555 1_555
C8_3 C9_3 1_555 1_555
C9_3 C10_3 1_555 1_555
H7_3 C10_3 1_555 1_555
C11_3 C2_3 1_555 1_555
H8_3 C11_3 1_555 1_555
H9_3 C11_3 1_555 1_555
N1_3 C9_3 1_555 1_555
N2_3 N1_3 1_555 1_555
C12_3 C8_3 1_555 1_555
C13_3 C12_3 1_555 1_555
H10_3 C13_3 1_555 1_555
Cd2_2 O2_2 1_555 1_555
Cd5_2 N2_3 1_555 1_555
C4_3 C6_3 1_555 1_555
C8_3 C11_3 1_555 1_555
N2_3 C12_3 1_555 1_555
Cd1_4 O3_3 1_555 1_555
C1_4 C5_4 1_555 1_555
C2_4 C3_4 1_555 1_555
C3_4 H1_4 1_555 1_555
C5_4 C3_4 1_555 1_555
H3_4 C5_4 1_555 1_555
O3_3 C7_4 1_555 1_555
C7_4 C1_4 1_555 1_555
C11_4 C2_4 1_555 1_555
H9_4 C11_4 1_555 1_555
N2_4 N1_4 1_555 1_555
C12_4 C8_4 1_555 1_555
C13_4 C12_4 1_555 1_555
H10_4 C13_4 1_555 1_555
H11_4 C13_4 1_555 1_555
H12_4 C13_4 1_555 1_555
Cd4_3 N2_4 1_555 1_555
O3_4 Cd1_4 1_555 1_555
N4_4 Cd1_4 1_555 1_555
C8_4 C11_4 1_555 1_555
N2_4 C12_4 1_555 1_555
H2_4 C4_4 1_555 1_555
H4_4 C6_4 1_555 1_555
C9_4 C10_4 1_555 1_555
C10_4 H5_4 1_555 1_555
H6_4 C10_4 1_555 1_555
H7_4 C10_4 1_555 1_555
C4_4 C6_4 1_555 1_555
C8_5 C9_5 1_555 1_555
C9_5 C10_5 1_555 1_555
H7_5 C10_5 1_555 1_555
H8_5 C11_5 1_555 1_555
H9_5 C11_5 1_555 1_555
N1_5 C9_5 1_555 1_555
N2_5 N1_5 1_555 1_555
C12_5 C8_5 1_555 1_555
C13_5 C12_5 1_555 1_555
H10_5 C13_5 1_555 1_555
H11_5 C13_5 1_555 1_555
H12_5 C13_5 1_555 1_555
Cd4_4 N2_5 1_555 1_555
C8_5 C11_5 1_555 1_555
N2_5 C12_5 1_555 1_555
C1_5 C5_5 1_555 1_555
C2_5 C3_5 1_555 1_555
C3_5 H1_5 1_555 1_555
C4_5 C2_5 1_555 1_555
H2_5 C4_5 1_555 1_555
C5_5 C3_5 1_555 1_555
C6_5 C1_5 1_555 1_555
H4_5 C6_5 1_555 1_555
C7_5 C1_5 1_555 1_555
O5_3 C7_5 1_555 1_555
C4_5 C6_5 1_555 1_555
Cd2_2 O3_4 1_555 1_555
N3_5 Cd2_2 1_555 1_555
N4_5 Cd2_2 1_555 1_555
Cd3_2 O3_5 1_555 1_555
C1_6 C5_6 1_555 1_555
C2_6 C3_6 1_555 1_555
C3_6 H1_6 1_555 1_555
C4_6 C2_6 1_555 1_555
H2_6 C4_6 1_555 1_555
C5_6 C3_6 1_555 1_555
H3_6 C5_6 1_555 1_555
C6_6 C1_6 1_555 1_555
H4_6 C6_6 1_555 1_555
O3_5 C7_6 1_555 1_555
C7_6 C1_6 1_555 1_555
O5_4 C7_6 1_555 1_555
C8_6 C9_6 1_555 1_555
C9_6 C10_6 1_555 1_555
C10_6 H5_6 1_555 1_555
H6_6 C10_6 1_555 1_555
H7_6 C10_6 1_555 1_555
C11_6 C2_6 1_555 1_555
H8_6 C11_6 1_555 1_555
H9_6 C11_6 1_555 1_555
N1_6 C9_6 1_555 1_555
N2_6 N1_6 1_555 1_555
C12_6 C8_6 1_555 1_555
C13_6 C12_6 1_555 1_555
H10_6 C13_6 1_555 1_555
H11_6 C13_6 1_555 1_555
H12_6 C13_6 1_555 1_555
Cd5 N2_6 1_555 1_555
Cd5_4 N1_6 1_555 1_555
N4_6 Cd3_2 1_555 1_555
C4_6 C6_6 1_555 1_555
C8_6 C11_6 1_555 1_555
N2_6 C12_6 1_555 1_555
Cd2 O3_2 1_555 1_555
C1_7 C5_7 1_555 1_555
C2_7 C3_7 1_555 1_555
C3_7 H1_7 1_555 1_555
C4_7 C2_7 1_555 1_555
H2_7 C4_7 1_555 1_555
C5_7 C3_7 1_555 1_555
H3_7 C5_7 1_555 1_555
C6_7 C1_7 1_555 1_555
H4_7 C6_7 1_555 1_555
O3_2 C7_7 1_555 1_555
C7_7 C1_7 1_555 1_555
O5 C7_7 1_555 1_555
O3_6 Cd2 1_555 1_555
O5_2 Cd2 1_555 1_555
N3_7 Cd2 1_555 1_555
N4_7 Cd2 1_555 1_555
C4_7 C6_7 1_555 1_555
C8_7 C9_7 1_555 1_555
C9_7 C10_7 1_555 1_555
C10_7 H5_7 1_555 1_555
H6_7 C10_7 1_555 1_555
H7_7 C10_7 1_555 1_555
H8_7 C11_7 1_555 1_555
H9_7 C11_7 1_555 1_555
N1_7 C9_7 1_555 1_555
N2_7 N1_7 1_555 1_555
C12_7 C8_7 1_555 1_555
C13_7 C12_7 1_555 1_555
H10_7 C13_7 1_555 1_555
H11_7 C13_7 1_555 1_555
H12_7 C13_7 1_555 1_555
Cd5_4 N2_7 1_555 1_555
Cd4_3 N1_7 1_555 1_555
C8_7 C11_7 1_555 1_555
N2_7 C12_7 1_555 1_555
Cd3 O3_6 1_555 1_555
C1_8 C5_8 1_555 1_555
C2_8 C3_8 1_555 1_555
C3_8 H1_8 1_555 1_555
C4_8 C2_8 1_555 1_555
H2_8 C4_8 1_555 1_555
C5_8 C3_8 1_555 1_555
H3_8 C5_8 1_555 1_555
C6_8 C1_8 1_555 1_555
H4_8 C6_8 1_555 1_555
O3_6 C7_8 1_555 1_555
C7_8 C1_8 1_555 1_555
O5_2 C7_8 1_555 1_555
C8_8 C9_8 1_555 1_555
C9_8 C10_8 1_555 1_555
C10_8 H5_8 1_555 1_555
H6_8 C10_8 1_555 1_555
H7_8 C10_8 1_555 1_555
C11_8 C2_8 1_555 1_555
H8_8 C11_8 1_555 1_555
H9_8 C11_8 1_555 1_555
N1_8 C9_8 1_555 1_555
N2_8 N1_8 1_555 1_555
C12_8 C8_8 1_555 1_555
C13_8 C12_8 1_555 1_555
H10_8 C13_8 1_555 1_555
H11_8 C13_8 1_555 1_555
H12_8 C13_8 1_555 1_555
Cd5_3 N2_8 1_555 1_555
Cd4_4 N1_8 1_555 1_555
N3_8 Cd3 1_555 1_555
N4_8 Cd3 1_555 1_555
C4_8 C6_8 1_555 1_555
C8_8 C11_8 1_555 1_555
N2_8 C12_8 1_555 1_555
C1_9 C5_9 1_555 1_555
C2_9 C3_9 1_555 1_555
C3_9 H1_9 1_555 1_555
C4_9 C2_9 1_555 1_555
H2_9 C4_9 1_555 1_555
C5_9 C3_9 1_555 1_555
H3_9 C5_9 1_555 1_555
C6_9 C1_9 1_555 1_555
H4_9 C6_9 1_555 1_555
O1_3 C7_9 1_555 1_555
C7_9 C1_9 1_555 1_555
O2_3 C7_9 1_555 1_555
C8_9 C9_9 1_555 1_555
C9_9 C10_9 1_555 1_555
C10_9 H5_9 1_555 1_555
H6_9 C10_9 1_555 1_555
H7_9 C10_9 1_555 1_555
C11_9 C2_9 1_555 1_555
H8_9 C11_9 1_555 1_555
H9_9 C11_9 1_555 1_555
N3_2 C9_9 1_555 1_555
N4 N3_2 1_555 1_555
C12_9 C8_9 1_555 1_555
C13_9 C12_9 1_555 1_555
H10_9 C13_9 1_555 1_555
Cd5_4 O2_3 1_555 1_555
Cd4_3 O1_3 1_555 1_555
C4_9 C6_9 1_555 1_555
O2_3 Cd4_3 1_555 1_555
C8_9 C11_9 1_555 1_555
N4 C12_9 1_555 1_555
Cd4_3 O4_3 1_555 1_555
O3_7 Cd4 1_555 1_555
O5_5 Cd4 1_555 1_555
H2_10 C4_10 1_555 1_555
H4_10 C6_10 1_555 1_555
C9_10 C10_10 1_555 1_555
C10_10 H5_10 1_555 1_555
H6_10 C10_10 1_555 1_555
H7_10 C10_10 1_555 1_555
C4_10 C6_10 1_555 1_555
Cd5 O3_7 1_555 1_555
C1_10 C5_10 1_555 1_555
C2_10 C3_10 1_555 1_555
C3_10 H1_10 1_555 1_555
C5_10 C3_10 1_555 1_555
H3_10 C5_10 1_555 1_555
O3_7 C7_10 1_555 1_555
C7_10 C1_10 1_555 1_555
C11_10 C2_10 1_555 1_555
H9_10 C11_10 1_555 1_555
N4_6 N3_3 1_555 1_555
C12_10 C8_10 1_555 1_555
C13_10 C12_10 1_555 1_555
H10_10 C13_10 1_555 1_555
H11_10 C13_10 1_555 1_555
H12_10 C13_10 1_555 1_555
O3_8 Cd5 1_555 1_555
O5_5 Cd5 1_555 1_555
O5_6 Cd5 1_555 1_555
C8_10 C11_10 1_555 1_555
N4_6 C12_10 1_555 1_555
C1_11 C5_11 1_555 1_555
C2_11 C3_11 1_555 1_555
C3_11 H1_11 1_555 1_555
C4_11 C2_11 1_555 1_555
H2_11 C4_11 1_555 1_555
C5_11 C3_11 1_555 1_555
C6_11 C1_11 1_555 1_555
H4_11 C6_11 1_555 1_555
C7_11 C1_11 1_555 1_555
O2_4 C7_11 1_555 1_555
C8_11 C9_11 1_555 1_555
C9_11 C10_11 1_555 1_555
H7_11 C10_11 1_555 1_555
C11_11 C2_11 1_555 1_555
H8_11 C11_11 1_555 1_555
H9_11 C11_11 1_555 1_555
N3_4 C9_11 1_555 1_555
N4_3 N3_4 1_555 1_555
C12_11 C8_11 1_555 1_555
C13_11 C12_11 1_555 1_555
H10_11 C13_11 1_555 1_555
Cd4_4 O2_4 1_555 1_555
C4_11 C6_11 1_555 1_555
C8_11 C11_11 1_555 1_555
N4_3 C12_11 1_555 1_555
Cd4_2 O1_4 1_555 1_555
O5_7 Cd5_2 1_555 1_555
H2_12 C4_12 1_555 1_555
H4_12 C6_12 1_555 1_555
C9_12 C10_12 1_555 1_555
C10_12 H5_12 1_555 1_555
H6_12 C10_12 1_555 1_555
H7_12 C10_12 1_555 1_555
C4_12 C6_12 1_555 1_555
Cd5_3 O3_9 1_555 1_555
C1_12 C5_12 1_555 1_555
C2_12 C3_12 1_555 1_555
C3_12 H1_12 1_555 1_555
C5_12 C3_12 1_555 1_555
H3_12 C5_12 1_555 1_555
O3_9 C7_12 1_555 1_555
C7_12 C1_12 1_555 1_555
C11_12 C2_12 1_555 1_555
H9_12 C11_12 1_555 1_555
N4_8 N3 1_555 1_555
C12_12 C8_12 1_555 1_555
C13_12 C12_12 1_555 1_555
H10_12 C13_12 1_555 1_555
H11_12 C13_12 1_555 1_555
H12_12 C13_12 1_555 1_555
O3_10 Cd5_3 1_555 1_555
C8_12 C11_12 1_555 1_555
N4_8 C12_12 1_555 1_555
Cd4_4 O3_10 1_555 1_555
C1_13 C5_13 1_555 1_555
C2_13 C3_13 1_555 1_555
C3_13 H1_13 1_555 1_555
C4_13 C2_13 1_555 1_555
H2_13 C4_13 1_555 1_555
C5_13 C3_13 1_555 1_555
C6_13 C1_13 1_555 1_555
H4_13 C6_13 1_555 1_555
C7_13 C1_13 1_555 1_555
O5_7 C7_13 1_555 1_555
C4_13 C6_13 1_555 1_555
C8_13 C9_13 1_555 1_555
C9_13 C10_13 1_555 1_555
H7_13 C10_13 1_555 1_555
H8_13 C11_13 1_555 1_555
H9_13 C11_13 1_555 1_555
N3_6 C9_13 1_555 1_555
N4_5 N3_6 1_555 1_555
C12_13 C8_13 1_555 1_555
C13_13 C12_13 1_555 1_555
H10_13 C13_13 1_555 1_555
H11_13 C13_13 1_555 1_555
H12_13 C13_13 1_555 1_555
C8_13 C11_13 1_555 1_555
N4_5 C12_13 1_555 1_555
Cd4_2 O3_11 1_555 1_555
C1_14 C5_14 1_555 1_555
C2_14 C3_14 1_555 1_555
C3_14 H1_14 1_555 1_555
C4_14 C2_14 1_555 1_555
H2_14 C4_14 1_555 1_555
C5_14 C3_14 1_555 1_555
H3_14 C5_14 1_555 1_555
C6_14 C1_14 1_555 1_555
H4_14 C6_14 1_555 1_555
O3_11 C7_14 1_555 1_555
C7_14 C1_14 1_555 1_555
O5_8 C7_14 1_555 1_555
C8_14 C9_14 1_555 1_555
C9_14 C10_14 1_555 1_555
C10_14 H5_14 1_555 1_555
H6_14 C10_14 1_555 1_555
H7_14 C10_14 1_555 1_555
C11_14 C2_14 1_555 1_555
H8_14 C11_14 1_555 1_555
H9_14 C11_14 1_555 1_555
N3_7 C9_14 1_555 1_555
N4_2 N3_7 1_555 1_555
C12_14 C8_14 1_555 1_555
C13_14 C12_14 1_555 1_555
H10_14 C13_14 1_555 1_555
H11_14 C13_14 1_555 1_555
H12_14 C13_14 1_555 1_555
C4_14 C6_14 1_555 1_555
C8_14 C11_14 1_555 1_555
N4_2 C12_14 1_555 1_555
C8_15 C9_15 1_555 1_555
C9_15 C10_15 1_555 1_555
C10_15 H5_15 1_555 1_555
H6_15 C10_15 1_555 1_555
H7_15 C10_15 1_555 1_555
H8_15 C11_15 1_555 1_555
H9_15 C11_15 1_555 1_555
N3_8 C9_15 1_555 1_555
N4_7 N3_8 1_555 1_555
C12_15 C8_15 1_555 1_555
C13_15 C12_15 1_555 1_555
H10_15 C13_15 1_555 1_555
H11_15 C13_15 1_555 1_555
H12_15 C13_15 1_555 1_555
C8_15 C11_15 1_555 1_555
N4_7 C12_15 1_555 1_555
Cd5_4 O3_8 1_555 1_555
C1_15 C5_15 1_555 1_555
C2_15 C3_15 1_555 1_555
C3_15 H1_15 1_555 1_555
C4_15 C2_15 1_555 1_555
H2_15 C4_15 1_555 1_555
C5_15 C3_15 1_555 1_555
H3_15 C5_15 1_555 1_555
C6_15 C1_15 1_555 1_555
H4_15 C6_15 1_555 1_555
O3_8 C7_15 1_555 1_555
C7_15 C1_15 1_555 1_555
O5_5 C7_15 1_555 1_555
O3_12 Cd5_4 1_555 1_555
O5_6 Cd5_4 1_555 1_555
C4_15 C6_15 1_555 1_555
Cd4_3 O3_12 1_555 1_555
C1_16 C5_16 1_555 1_555
C2_16 C3_16 1_555 1_555
C3_16 H1_16 1_555 1_555
C4_16 C2_16 1_555 1_555
H2_16 C4_16 1_555 1_555
C5_16 C3_16 1_555 1_555
H3_16 C5_16 1_555 1_555
C6_16 C1_16 1_555 1_555
H4_16 C6_16 1_555 1_555
O3_12 C7_16 1_555 1_555
C7_16 C1_16 1_555 1_555
O5_6 C7_16 1_555 1_555
C8_16 C9_16 1_555 1_555
C9_16 C10_16 1_555 1_555
C10_16 H5_16 1_555 1_555
H6_16 C10_16 1_555 1_555
H7_16 C10_16 1_555 1_555
C11_16 C2_16 1_555 1_555
H8_16 C11_16 1_555 1_555
H9_16 C11_16 1_555 1_555
N3_5 C9_16 1_555 1_555
N4_4 N3_5 1_555 1_555
C12_16 C8_16 1_555 1_555
C13_16 C12_16 1_555 1_555
H10_16 C13_16 1_555 1_555
H11_16 C13_16 1_555 1_555
H12_16 C13_16 1_555 1_555
C4_16 C6_16 1_555 1_555
C8_16 C11_16 1_555 1_555
N4_4 C12_16 1_555 1_555

#END
