
###############################################################################
#
# This file contains modified crystal structure data generated from the
# MOF subset of the Cambridge Structural Database (CSD) v543 
# hosted by the Cambridge Crystallographic Data Centre (CCDC).
#
# This work is licensed under the Creative Commons
# Attribution-NonCommercial-ShareAlike 4.0 International License.
# To view a copy of this license, visit
# http://creativecommons.org/licenses/by-nc-sa/4.0/
# or send a letter to
# Creative Commons, PO Box 1866, Mountain View, CA 94042, USA.
#
# CIF created using the CSD Python API on 29 September 2022
# The structure has been converted into the P1 space group
# The structure has a 3D framework
# The original CSD entry ERUFOM is in the orthorhombic crystal system
# The original CSD entry ERUFOM is in a Sohncke space group
# The framework has been calculated to contain at least 10.0% void space
# The void calculation uses a probe of radius 1.32A, grid spacing 0.4
# H atom positions have been added when not included in the experimental data
#
###############################################################################

data_ERUFOM
_chemical_formula_moiety         '(C48 H40 Cu4 N16 O20 S8)n'
_symmetry_cell_setting           triclinic
_symmetry_space_group_name_H-M   'P 1'
_symmetry_Int_Tables_number      1
_space_group_name_Hall           'P 1'
loop_
_symmetry_equiv_pos_site_id
_symmetry_equiv_pos_as_xyz
1 x,y,z
_cell_length_a                   5.509(2)
_cell_length_b                   10.545(4)
_cell_length_c                   29.399(11)
_cell_angle_alpha                90
_cell_angle_beta                 90
_cell_angle_gamma                90
_cell_volume                     1707.86
loop_
_atom_site_label
_atom_site_type_symbol
_atom_site_fract_x
_atom_site_fract_y
_atom_site_fract_z
O5 O 0.0745(5) 0.1124(3) 0.23860(11)
H9 H 0.0409211 0.201336 0.229454
H10 H 0.143682 0.111222 0.269787
H4 H 0.0456 0.9771 0.1517
H7 H 0.0105 0.9535 0.8219
Cu1 Cu 0.76830(9) 0.01373(4) 0.237631(15)
N1 N 0.7380(7) 0.0546(3) 0.17073(10)
N2 N 0.4215(8) 0.1370(5) 0.01103(13)
C1 C 0.5396(9) 0.1141(5) 0.15442(16)
H1 H 0.4256 0.1453 0.1749
C2 C 0.4989(9) 0.1306(4) 0.10813(15)
H2 H 0.3606 0.1725 0.0980
C3 C 0.6671(9) 0.0836(4) 0.07711(13)
C4 C 0.8759(9) 0.0266(5) 0.09423(15)
C5 C 0.9045(8) 0.0146(5) 0.14075(15)
C6 C 0.6226(9) 0.0927(4) 0.02764(15)
O6 O 0.5724(6) 0.2094(3) 0.25682(11)
S1 S 0.8256(2) 0.04178(13) 0.98751(4)
N3 N 0.4181(8) 0.1359(5) 0.96446(13)
N4 N 0.7008(7) 0.0351(3) 0.80445(11)
C7 C 0.6171(8) 0.0882(4) 0.94740(15)
C8 C 0.6529(9) 0.0728(4) 0.89783(14)
C9 C 0.4814(10) 0.1185(5) 0.86781(16)
H5 H 0.3484 0.1640 0.8784
C10 C 0.5091(9) 0.0961(5) 0.82204(15)
H6 H 0.3889 0.1247 0.8023
C12 C 0.8562(9) 0.0129(5) 0.88022(15)
H3 H 0.9952 0.9969 0.0745
S2 S 0.3405(2) 0.81890(10) 0.21621(3)
O1 O 0.4393(5) 0.9387(3) 0.23745(11)
O2 O 0.4154(8) 0.8128(4) 0.16861(12)
O3 O 0.0737(6) 0.8292(3) 0.21975(11)
O4 O 0.4276(6) 0.7094(3) 0.24318(11)
N5 N 0.7992(7) 0.9649(3) 0.30445(11)
Cu3 Cu 0.23170(9) 0.51373(4) 0.262369(15)
C11 C 0.8747(8) 0.9947(4) 0.83350(15)
H8 H 0.9791 0.9852 0.8995
Cu2 Cu 0.73170(9) 0.98627(4) 0.737631(15)
S2_2 S 0.1595(2) 0.18110(10) 0.71621(3)
O1_2 O 0.0607(5) 0.0613(3) 0.73745(11)
O2_2 O 0.0846(8) 0.1872(4) 0.66861(12)
O3_2 O 0.4263(6) 0.1708(3) 0.71975(11)
O4_2 O 0.0724(6) 0.2906(3) 0.74318(11)
Cu3_2 Cu 0.26830(9) 0.48627(4) 0.762369(15)
H3_2 H 0.5048 0.0031 0.5745
H4_2 H 0.4544 0.0229 0.6517
C11_2 C 0.6253(8) 0.0053(4) 0.33350(15)
H7_2 H 0.4895 0.0465 0.3219
H8_2 H 0.5209 0.0148 0.3995
S1_2 S 0.6744(2) 0.95822(13) 0.48751(4)
N1_2 N 0.7620(7) 0.9454(3) 0.67073(10)
C1_2 C 0.9604(9) 0.8859(5) 0.65442(16)
C3_2 C 0.8329(9) 0.9164(4) 0.57711(13)
C4_2 C 0.6241(9) 0.9734(5) 0.59423(15)
C5_2 C 0.5955(8) 0.9854(5) 0.64075(15)
C6_2 C 0.8774(9) 0.9073(4) 0.52764(15)
C7_2 C 0.8829(8) 0.9118(4) 0.44740(15)
C8_2 C 0.8471(9) 0.9272(4) 0.39783(14)
C10_2 C 0.9909(9) 0.9039(5) 0.32204(15)
C12_2 C 0.6438(9) 0.9871(5) 0.38022(15)
O5_2 O 0.4255(5) 0.8876(3) 0.73860(11)
O6_2 O 0.9276(6) 0.7906(3) 0.75682(11)
H9_2 H 0.459079 0.798664 0.729454
H10_2 H 0.356318 0.888778 0.769787
S1_3 S 0.1744(2) 0.54178(13) 0.51249(4)
N1_3 N 0.2620(7) 0.5546(3) 0.32927(10)
N2_2 N 0.5785(8) 0.6370(5) 0.48897(13)
N3_2 N 0.5819(8) 0.6359(5) 0.53554(13)
N4_2 N 0.2992(7) 0.5351(3) 0.69555(11)
C1_3 C 0.4604(9) 0.6141(5) 0.34558(16)
H1_2 H 0.5744 0.6453 0.3251
C2_2 C 0.5011(9) 0.6306(4) 0.39187(15)
H2_2 H 0.6394 0.6725 0.4020
C3_3 C 0.3329(9) 0.5836(4) 0.42289(13)
C4_3 C 0.1241(9) 0.5266(5) 0.40577(15)
H3_3 H 0.0048 0.4969 0.4255
C5_3 C 0.0955(8) 0.5146(5) 0.35925(15)
C6_3 C 0.3774(9) 0.5927(4) 0.47236(15)
C7_3 C 0.3829(8) 0.5882(4) 0.55260(15)
C8_3 C 0.3471(9) 0.5728(4) 0.60217(14)
C9_2 C 0.5186(10) 0.6185(5) 0.63219(16)
H5_2 H 0.6516 0.6640 0.6216
C10_3 C 0.4909(9) 0.5961(5) 0.67796(15)
H6_2 H 0.6111 0.6247 0.6977
C11_3 C 0.1253(8) 0.4947(4) 0.66650(15)
C12_3 C 0.1438(9) 0.5129(5) 0.61978(15)
H8_3 H 0.0209 0.4852 0.6005
S2_3 S 0.6595(2) 0.31890(10) 0.28379(3)
O1_3 O 0.5607(5) 0.4387(3) 0.26255(11)
O2_3 O 0.5846(8) 0.3128(4) 0.33139(12)
O3_3 O 0.9263(6) 0.3292(3) 0.28025(11)
N5_2 N 0.2008(7) 0.4649(3) 0.19555(11)
S1_4 S 0.3256(2) 0.45822(13) 0.01249(4)
C7_4 C 0.1171(8) 0.4118(4) 0.05260(15)
C8_4 C 0.1529(9) 0.4272(4) 0.10217(14)
C10_4 C 0.0091(9) 0.4039(5) 0.17796(15)
C11_4 C 0.3747(8) 0.5053(4) 0.16650(15)
H7_3 H 0.5105 0.5465 0.1781
C12_4 C 0.3562(9) 0.4871(5) 0.11978(15)
H8_4 H 0.4791 0.5148 0.1005
N1_4 N 0.2380(7) 0.4454(3) 0.82927(10)
C1_4 C 0.0396(9) 0.3859(5) 0.84558(16)
C3_4 C 0.1671(9) 0.4164(4) 0.92289(13)
C4_4 C 0.3759(9) 0.4734(5) 0.90577(15)
H3_4 H 0.4952 0.5031 0.9255
C5_4 C 0.4045(8) 0.4854(5) 0.85925(15)
H4_3 H 0.5456 0.5229 0.8483
C6_4 C 0.1226(9) 0.4073(4) 0.97236(15)
O5_3 O 0.5745(5) 0.3876(3) 0.76140(11)
H9_3 H 0.540921 0.298664 0.770546
H10_3 H 0.643682 0.388778 0.730213
N2_3 N 0.9215(8) 0.3630(5) 0.98897(13)
H1_3 H 0.9256 0.3547 0.8251
C2_3 C 0.9989(9) 0.3694(4) 0.89187(15)
H2_3 H 0.8606 0.3275 0.9020
S2_4 S 0.8405(2) 0.68110(10) 0.78379(3)
O1_4 O 0.9393(5) 0.5613(3) 0.76255(11)
O2_4 O 0.9154(8) 0.6872(4) 0.83139(12)
O3_4 O 0.5737(6) 0.6708(3) 0.78025(11)
N2_4 N 0.0785(8) 0.8630(5) 0.51103(13)
N3_3 N 0.0819(8) 0.8641(5) 0.46446(13)
H1_4 H 0.0744 0.8547 0.6749
C2_4 C 0.0011(9) 0.8694(4) 0.60813(15)
H2_4 H 0.1394 0.8275 0.5980
C9_3 C 0.0186(10) 0.8815(5) 0.36781(16)
H5_3 H 0.1516 0.8360 0.3784
H6_3 H 0.1111 0.8753 0.3023
H4_4 H 0.9544 0.4771 0.3483
H7_4 H 0.9895 0.4535 0.6781
O5_4 O 0.9255(5) 0.6124(3) 0.26140(11)
H9_4 H 0.959079 0.701336 0.270546
H10_4 H 0.856318 0.611222 0.230213
N3_4 N 0.9181(8) 0.3641(5) 0.03554(13)
C9_4 C 0.9814(10) 0.3815(5) 0.13219(16)
H5_4 H 0.8484 0.3360 0.1216
H6_4 H 0.8889 0.3753 0.1977
loop_
_geom_bond_atom_site_label_1
_geom_bond_atom_site_label_2
_geom_bond_site_symmetry_1
_geom_bond_site_symmetry_2
O5 H9 1_555 1_555
O5 H10 1_555 1_555
Cu1 N1 1_555 1_555
N1 C1 1_555 1_555
C1 H1 1_555 1_555
C2 C1 1_555 1_555
H2 C2 1_555 1_555
C3 C2 1_555 1_555
C4 C3 1_555 1_555
C5 N1 1_555 1_555
C6 N2 1_555 1_555
O6 Cu1 1_555 1_555
C3 C6 1_555 1_555
C4 C5 1_555 1_555
N3 C7 1_555 1_555
N4 C10 1_555 1_555
C7 S1 1_555 1_555
C8 C7 1_555 1_555
C9 C8 1_555 1_555
H5 C9 1_555 1_555
C10 C9 1_555 1_555
H6 C10 1_555 1_555
C12 C8 1_555 1_555
S2 O1 1_555 1_555
O2 S2 1_555 1_555
O3 S2 1_555 1_555
O4 S2 1_555 1_555
Cu3 O4 1_555 1_555
S2_2 O1_2 1_555 1_555
O2_2 S2_2 1_555 1_555
O3_2 S2_2 1_555 1_555
O4_2 S2_2 1_555 1_555
Cu3_2 O4_2 1_555 1_555
H7_2 C11_2 1_555 1_555
Cu2 N1_2 1_555 1_555
S1_2 C6_2 1_555 1_555
N1_2 C1_2 1_555 1_555
N5 C10_2 1_555 1_555
C4_2 C3_2 1_555 1_555
C5_2 N1_2 1_555 1_555
C7_2 S1_2 1_555 1_555
C8_2 C7_2 1_555 1_555
C12_2 C8_2 1_555 1_555
O5_2 Cu2 1_555 1_555
O6_2 Cu2 1_555 1_555
C3_2 C6_2 1_555 1_555
C4_2 C5_2 1_555 1_555
O5_2 H9_2 1_555 1_555
O5_2 H10_2 1_555 1_555
Cu3 N1_3 1_555 1_555
S1_3 C6_3 1_555 1_555
N1_3 C1_3 1_555 1_555
N2_2 N3_2 1_555 1_555
N3_2 C7_3 1_555 1_555
N4_2 C10_3 1_555 1_555
C1_3 H1_2 1_555 1_555
C2_2 C1_3 1_555 1_555
H2_2 C2_2 1_555 1_555
C3_3 C2_2 1_555 1_555
C4_3 C3_3 1_555 1_555
H3_3 C4_3 1_555 1_555
C5_3 N1_3 1_555 1_555
C6_3 N2_2 1_555 1_555
C7_3 S1_3 1_555 1_555
C8_3 C7_3 1_555 1_555
C9_2 C8_3 1_555 1_555
H5_2 C9_2 1_555 1_555
C10_3 C9_2 1_555 1_555
H6_2 C10_3 1_555 1_555
C11_3 N4_2 1_555 1_555
C12_3 C8_3 1_555 1_555
H8_3 C12_3 1_555 1_555
S2_3 O1_3 1_555 1_555
O1_3 Cu3 1_555 1_555
O2_3 S2_3 1_555 1_555
O3_3 S2_3 1_555 1_555
O6 S2_3 1_555 1_555
N5_2 Cu3 1_555 1_555
Cu3_2 N4_2 1_555 1_555
C3_3 C6_3 1_555 1_555
C4_3 C5_3 1_555 1_555
C11_3 C12_3 1_555 1_555
N5_2 C10_4 1_555 1_555
C7_4 S1_4 1_555 1_555
C8_4 C7_4 1_555 1_555
C11_4 N5_2 1_555 1_555
H7_3 C11_4 1_555 1_555
C12_4 C8_4 1_555 1_555
H8_4 C12_4 1_555 1_555
C11_4 C12_4 1_555 1_555
Cu3_2 N1_4 1_555 1_555
N1_4 C1_4 1_555 1_555
C4_4 C3_4 1_555 1_555
H3_4 C4_4 1_555 1_555
C5_4 N1_4 1_555 1_555
H4_3 C5_4 1_555 1_555
O5_3 Cu3_2 1_555 1_555
C3_4 C6_4 1_555 1_555
C4_4 C5_4 1_555 1_555
O5_3 H9_3 1_555 1_555
O5_3 H10_3 1_555 1_555
H2_3 C2_3 1_555 1_555
S2_4 O1_4 1_555 1_555
O2_4 S2_4 1_555 1_555
O3_4 S2_4 1_555 1_555
O6_2 S2_4 1_555 1_555
N2_4 N3_3 1_555 1_555
H2_4 C2_4 1_555 1_555
H5_3 C9_3 1_555 1_555
O5_4 H9_4 1_555 1_555
O5_4 H10_4 1_555 1_555
H5_4 C9_4 1_555 1_555

#END
