
###############################################################################
#
# This file contains modified crystal structure data generated from the
# MOF subset of the Cambridge Structural Database (CSD) v543 
# hosted by the Cambridge Crystallographic Data Centre (CCDC).
#
# This work is licensed under the Creative Commons
# Attribution-NonCommercial-ShareAlike 4.0 International License.
# To view a copy of this license, visit
# http://creativecommons.org/licenses/by-nc-sa/4.0/
# or send a letter to
# Creative Commons, PO Box 1866, Mountain View, CA 94042, USA.
#
# CIF created using the CSD Python API on 29 September 2022
# The structure has been converted into the P1 space group
# The structure has a 3D framework
# The original CSD entry ERUFUS is in the monoclinic crystal system
# The framework has been calculated to contain at least 10.0% void space
# The void calculation uses a probe of radius 1.32A, grid spacing 0.4
#
###############################################################################

data_ERUFUS
_chemical_formula_moiety         '(C56 H32 Cd6 N20 S14)n'
_symmetry_cell_setting           triclinic
_symmetry_space_group_name_H-M   'P 1'
_symmetry_Int_Tables_number      1
_space_group_name_Hall           'P 1'
loop_
_symmetry_equiv_pos_site_id
_symmetry_equiv_pos_as_xyz
1 x,y,z
_cell_length_a                   28.408(10)
_cell_length_b                   9.997(5)
_cell_length_c                   7.358(4)
_cell_angle_alpha                90
_cell_angle_beta                 99.013(8)
_cell_angle_gamma                90
_cell_volume                     2063.83
loop_
_atom_site_label
_atom_site_type_symbol
_atom_site_fract_x
_atom_site_fract_y
_atom_site_fract_z
N2 N 0.02315(12) 0.0300(3) 0.2329(5)
H3 H 0.1080 0.0662 0.1238
H4 H 0.1815 0.0084 0.0562
N3 N 0.26241(12) 0.0289(3) 0.4296(5)
Cd2 Cd 0.2500 0.2500 0.5000
Cd1 Cd 0.2500 0.7500 0.0000
S1 S 0.0000 0.78587(15) 0.2500
N1 N 0.17835(10) 0.8158(3) 0.1013(4)
C1 C 0.15041(17) 0.7234(4) 0.1610(8)
H1 H 0.1618 0.6362 0.1762
C2 C 0.10566(18) 0.7503(4) 0.2014(9)
H2 H 0.0873 0.6822 0.2403
C3 C 0.08829(13) 0.8801(4) 0.1833(5)
C4 C 0.11772(14) 0.9773(4) 0.1318(5)
C5 C 0.16208(14) 0.9415(4) 0.0916(6)
C6 C 0.03975(13) 0.9101(4) 0.2201(5)
S2 S 0.30158(5) 0.78537(11) 0.34087(17)
C7 C 0.27843(13) 0.9285(3) 0.3935(5)
N9 N 0.23759(12) 0.5289(3) 0.0704(5)
Cd1_2 Cd 0.2500 0.7500 1.0000
S3 S 0.19842(5) 0.71463(11) 0.65913(17)
C14 C 0.22157(13) 0.5715(3) 0.6065(5)
N6 N 0.23759(12) 0.4711(3) 0.5704(5)
N7 N 0.32165(10) 0.6842(3) 0.8987(4)
N8 N 0.26241(12) 0.9711(3) 0.9296(5)
N4 N 0.97685(12) 0.0300(3) 0.2671(5)
H5 H 0.8920 0.0662 0.3762
H6 H 0.8185 0.0084 0.4438
S1_2 S 1.0000 0.78587(15) 0.2500
C8 C 0.96025(13) 0.9101(4) 0.2799(5)
C9 C 0.91171(13) 0.8801(4) 0.3167(5)
C10 C 0.89434(18) 0.7503(4) 0.2986(9)
C11 C 0.84959(17) 0.7234(4) 0.3390(8)
N5 N 0.82165(10) 0.8158(3) 0.3987(4)
C12 C 0.83792(14) 0.9415(4) 0.4084(6)
C13 C 0.88228(14) 0.9773(4) 0.3682(5)
H7 H 0.8382 0.6362 0.3238
H8 H 0.9127 0.6822 0.2597
Cd3 Cd 0.7500 0.7500 0.5000
Cd1_3 Cd 0.7500 0.2500 0.0000
S1_3 S 0.5000 0.28587(15) 0.2500
N1_2 N 0.67835(10) 0.3158(3) 0.1013(4)
N2_2 N 0.52315(12) 0.5300(3) 0.2329(5)
C1_2 C 0.65041(17) 0.2234(4) 0.1610(8)
H1_2 H 0.6618 0.1362 0.1762
C2_2 C 0.60566(18) 0.2503(4) 0.2014(9)
H2_2 H 0.5873 0.1822 0.2403
C3_2 C 0.58829(13) 0.3801(4) 0.1833(5)
C4_2 C 0.61772(14) 0.4773(4) 0.1318(5)
H3_2 H 0.6080 0.5662 0.1238
C5_2 C 0.66208(14) 0.4415(4) 0.0916(6)
H4_2 H 0.6815 0.5084 0.0562
C6_2 C 0.53975(13) 0.4101(4) 0.2201(5)
S2_2 S 0.80158(5) 0.28537(11) 0.34087(17)
C7_2 C 0.77843(13) 0.4285(3) 0.3935(5)
N3_2 N 0.76241(12) 0.5289(3) 0.4296(5)
N4_2 N 0.47685(12) 0.5300(3) 0.2671(5)
C8_2 C 0.46025(13) 0.4101(4) 0.2799(5)
C9_2 C 0.41171(13) 0.3801(4) 0.3167(5)
C10_2 C 0.39434(18) 0.2503(4) 0.2986(9)
C11_2 C 0.34959(17) 0.2234(4) 0.3390(8)
N5_2 N 0.32165(10) 0.3158(3) 0.3987(4)
C12_2 C 0.33792(14) 0.4415(4) 0.4084(6)
C13_2 C 0.38228(14) 0.4773(4) 0.3682(5)
H5_2 H 0.3920 0.5662 0.3762
H6_2 H 0.3185 0.5084 0.4438
H7_2 H 0.3382 0.1362 0.3238
H8_2 H 0.4127 0.1822 0.2597
N9_2 N 0.73759(12) 0.0289(3) 0.0704(5)
Cd1_4 Cd 0.7500 0.2500 1.0000
S3_2 S 0.69842(5) 0.21463(11) 0.65913(17)
C14_2 C 0.72157(13) 0.0715(3) 0.6065(5)
N7_2 N 0.82165(10) 0.1842(3) 0.8987(4)
N8_2 N 0.76241(12) 0.4711(3) 0.9296(5)
N6_2 N 0.73759(12) 0.9711(3) 0.5704(5)
S1_4 S 0.0000 0.21413(15) 0.7500
N1_3 N 0.17835(10) 0.1842(3) 0.6013(4)
C1_3 C 0.15041(17) 0.2766(4) 0.6610(8)
H1_3 H 0.1618 0.3638 0.6762
C2_3 C 0.10566(18) 0.2497(4) 0.7014(9)
H2_3 H 0.0873 0.3178 0.7403
C3_3 C 0.08829(13) 0.1199(4) 0.6833(5)
C4_3 C 0.11772(14) 0.0227(4) 0.6318(5)
C5_3 C 0.16208(14) 0.0585(4) 0.5916(6)
C6_3 C 0.03975(13) 0.0899(4) 0.7201(5)
S2_3 S 0.30158(5) 0.21463(11) 0.84087(17)
C7_3 C 0.27843(13) 0.0715(3) 0.8935(5)
S3_3 S 0.19842(5) 0.28537(11) 0.15913(17)
C14_3 C 0.22157(13) 0.4285(3) 0.1065(5)
N2_3 N 0.02315(12) 0.9700(3) 0.7329(5)
H3_3 H 0.1080 0.9338 0.6238
H4_3 H 0.1815 0.9916 0.5562
S1_5 S 1.0000 0.21413(15) 0.7500
C8_3 C 0.96025(13) 0.0899(4) 0.7799(5)
C9_3 C 0.91171(13) 0.1199(4) 0.8167(5)
C10_3 C 0.89434(18) 0.2497(4) 0.7986(9)
C11_3 C 0.84959(17) 0.2766(4) 0.8390(8)
C12_3 C 0.83792(14) 0.0585(4) 0.9084(6)
C13_3 C 0.88228(14) 0.0227(4) 0.8682(5)
H7_3 H 0.8382 0.3638 0.8238
H8_3 H 0.9127 0.3178 0.7597
N4_3 N 0.97685(12) 0.9700(3) 0.7671(5)
H5_3 H 0.8920 0.9338 0.8762
H6_3 H 0.8185 0.9916 0.9438
S1_6 S 0.5000 0.71413(15) 0.7500
N1_4 N 0.67835(10) 0.6842(3) 0.6013(4)
N2_4 N 0.52315(12) 0.4700(3) 0.7329(5)
C1_4 C 0.65041(17) 0.7766(4) 0.6610(8)
H1_4 H 0.6618 0.8638 0.6762
C2_4 C 0.60566(18) 0.7497(4) 0.7014(9)
H2_4 H 0.5873 0.8178 0.7403
C3_4 C 0.58829(13) 0.6199(4) 0.6833(5)
C4_4 C 0.61772(14) 0.5227(4) 0.6318(5)
H3_4 H 0.6080 0.4338 0.6238
C5_4 C 0.66208(14) 0.5585(4) 0.5916(6)
H4_4 H 0.6815 0.4916 0.5562
C6_4 C 0.53975(13) 0.5899(4) 0.7201(5)
S2_4 S 0.80158(5) 0.71463(11) 0.84087(17)
C7_4 C 0.77843(13) 0.5715(3) 0.8935(5)
N4_4 N 0.47685(12) 0.4700(3) 0.7671(5)
C8_4 C 0.46025(13) 0.5899(4) 0.7799(5)
C9_4 C 0.41171(13) 0.6199(4) 0.8167(5)
C10_4 C 0.39434(18) 0.7497(4) 0.7986(9)
C11_4 C 0.34959(17) 0.7766(4) 0.8390(8)
C12_4 C 0.33792(14) 0.5585(4) 0.9084(6)
C13_4 C 0.38228(14) 0.5227(4) 0.8682(5)
H5_4 H 0.3920 0.4338 0.8762
H6_4 H 0.3185 0.4916 0.9438
H7_4 H 0.3382 0.8638 0.8238
H8_4 H 0.4127 0.8178 0.7597
S3_4 S 0.69842(5) 0.78537(11) 0.15913(17)
C14_4 C 0.72157(13) 0.9285(3) 0.1065(5)
loop_
_geom_bond_atom_site_label_1
_geom_bond_atom_site_label_2
_geom_bond_site_symmetry_1
_geom_bond_site_symmetry_2
Cd2 N3 1_555 1_555
Cd1 N1 1_555 1_555
S1 C6 1_555 1_555
N1 C1 1_555 1_555
C1 H1 1_555 1_555
C2 C1 1_555 1_555
H2 C2 1_555 1_555
C3 C2 1_555 1_555
C4 C3 1_555 1_555
C5 N1 1_555 1_555
C6 C3 1_555 1_555
S2 Cd1 1_555 1_555
C7 S2 1_555 1_555
N9 Cd1 1_555 1_555
C4 C5 1_555 1_555
S3 Cd1_2 1_555 1_555
C14 S3 1_555 1_555
N6 C14 1_555 1_555
N7 Cd1_2 1_555 1_555
N8 Cd1_2 1_555 1_555
Cd2 N6 1_555 1_555
C8 S1_2 1_555 1_555
C9 C8 1_555 1_555
C10 C9 1_555 1_555
C11 C10 1_555 1_555
N5 C11 1_555 1_555
C12 N5 1_555 1_555
C13 C9 1_555 1_555
H7 C11 1_555 1_555
H8 C10 1_555 1_555
Cd3 N5 1_555 1_555
C12 C13 1_555 1_555
Cd1_3 N1_2 1_555 1_555
S1_3 C6_2 1_555 1_555
N1_2 C1_2 1_555 1_555
N2_2 C6_2 1_555 1_555
C1_2 H1_2 1_555 1_555
C2_2 C1_2 1_555 1_555
H2_2 C2_2 1_555 1_555
C3_2 C2_2 1_555 1_555
C4_2 C3_2 1_555 1_555
H3_2 C4_2 1_555 1_555
C5_2 N1_2 1_555 1_555
H4_2 C5_2 1_555 1_555
C6_2 C3_2 1_555 1_555
S2_2 Cd1_3 1_555 1_555
C7_2 S2_2 1_555 1_555
N3_2 C7_2 1_555 1_555
N4_2 N2_2 1_555 1_555
C8_2 S1_3 1_555 1_555
C9_2 C8_2 1_555 1_555
C10_2 C9_2 1_555 1_555
C11_2 C10_2 1_555 1_555
N5_2 C11_2 1_555 1_555
C12_2 N5_2 1_555 1_555
C13_2 C9_2 1_555 1_555
H5_2 C13_2 1_555 1_555
H6_2 C12_2 1_555 1_555
H7_2 C11_2 1_555 1_555
H8_2 C10_2 1_555 1_555
N9_2 Cd1_3 1_555 1_555
Cd3 N3_2 1_555 1_555
Cd2 N5_2 1_555 1_555
C4_2 C5_2 1_555 1_555
N4_2 C8_2 1_555 1_555
C12_2 C13_2 1_555 1_555
S3_2 Cd1_4 1_555 1_555
C14_2 S3_2 1_555 1_555
N7_2 Cd1_4 1_555 1_555
N8_2 Cd1_4 1_555 1_555
Cd3 N6_2 1_555 1_555
Cd2 N1_3 1_555 1_555
S1_4 C6_3 1_555 1_555
N1_3 C1_3 1_555 1_555
C1_3 H1_3 1_555 1_555
C2_3 C1_3 1_555 1_555
H2_3 C2_3 1_555 1_555
C3_3 C2_3 1_555 1_555
C4_3 C3_3 1_555 1_555
C5_3 N1_3 1_555 1_555
C6_3 C3_3 1_555 1_555
S2_3 Cd2 1_555 1_555
C7_3 S2_3 1_555 1_555
S3_3 Cd2 1_555 1_555
C14_3 S3_3 1_555 1_555
N9 C14_3 1_555 1_555
C4_3 C5_3 1_555 1_555
C8_3 S1_5 1_555 1_555
C9_3 C8_3 1_555 1_555
C10_3 C9_3 1_555 1_555
C11_3 C10_3 1_555 1_555
N7_2 C11_3 1_555 1_555
C12_3 N7_2 1_555 1_555
C13_3 C9_3 1_555 1_555
H7_3 C11_3 1_555 1_555
H8_3 C10_3 1_555 1_555
C12_3 C13_3 1_555 1_555
Cd3 N1_4 1_555 1_555
S1_6 C6_4 1_555 1_555
N1_4 C1_4 1_555 1_555
N2_4 C6_4 1_555 1_555
C1_4 H1_4 1_555 1_555
C2_4 C1_4 1_555 1_555
H2_4 C2_4 1_555 1_555
C3_4 C2_4 1_555 1_555
C4_4 C3_4 1_555 1_555
H3_4 C4_4 1_555 1_555
C5_4 N1_4 1_555 1_555
H4_4 C5_4 1_555 1_555
C6_4 C3_4 1_555 1_555
S2_4 Cd3 1_555 1_555
C7_4 S2_4 1_555 1_555
N8_2 C7_4 1_555 1_555
N4_4 N2_4 1_555 1_555
C8_4 S1_6 1_555 1_555
C9_4 C8_4 1_555 1_555
C10_4 C9_4 1_555 1_555
C11_4 C10_4 1_555 1_555
N7 C11_4 1_555 1_555
C12_4 N7 1_555 1_555
C13_4 C9_4 1_555 1_555
H5_4 C13_4 1_555 1_555
H6_4 C12_4 1_555 1_555
H7_4 C11_4 1_555 1_555
H8_4 C10_4 1_555 1_555
S3_4 Cd3 1_555 1_555
C14_4 S3_4 1_555 1_555
C4_4 C5_4 1_555 1_555
N4_4 C8_4 1_555 1_555
C12_4 C13_4 1_555 1_555

#END
