
###############################################################################
#
# This file contains modified crystal structure data generated from the
# MOF subset of the Cambridge Structural Database (CSD) v543 
# hosted by the Cambridge Crystallographic Data Centre (CCDC).
#
# This work is licensed under the Creative Commons
# Attribution-NonCommercial-ShareAlike 4.0 International License.
# To view a copy of this license, visit
# http://creativecommons.org/licenses/by-nc-sa/4.0/
# or send a letter to
# Creative Commons, PO Box 1866, Mountain View, CA 94042, USA.
#
# CIF created using the CSD Python API on 29 September 2022
# The structure has been converted into the P1 space group
# The structure has a 3D framework
# The original CSD entry ERUVEU is in the monoclinic crystal system
# The framework has been calculated to contain at least 10.0% void space
# The void calculation uses a probe of radius 1.32A, grid spacing 0.4
#
###############################################################################

data_ERUVEU
_chemical_formula_moiety         '(C32 H40 Cd8 N69)n'
_symmetry_cell_setting           triclinic
_symmetry_space_group_name_H-M   'P 1'
_symmetry_Int_Tables_number      1
_space_group_name_Hall           'P 1'
loop_
_symmetry_equiv_pos_site_id
_symmetry_equiv_pos_as_xyz
1 x,y,z
_cell_length_a                   21.6492(7)
_cell_length_b                   9.9528(3)
_cell_length_c                   8.4146(3)
_cell_angle_alpha                90
_cell_angle_beta                 105.5970(10)
_cell_angle_gamma                90
_cell_volume                     1746.33
loop_
_atom_site_label
_atom_site_type_symbol
_atom_site_fract_x
_atom_site_fract_y
_atom_site_fract_z
C3 C 0.66168(12) 0.1303(3) 0.1065(3)
C4 C 0.61081(14) 0.2367(3) 0.0490(3)
H4 H 0.5746 0.2164 0.0924
H5 H 0.6280 0.3230 0.0931
N5 N 0.66227(11) 0.0165(2) 0.0239(3)
N7 N 0.74545(11) 0.0229(2) 0.2382(3)
N8 N 0.71189(11) 0.1378(2) 0.2388(3)
N11 N 0.43852(10) 0.4327(2) 0.0832(3)
N12 N 0.38641(11) 0.3940(2) 0.1197(3)
Cd5 Cd 0.2500 0.2500 0.0000
Cd7 Cd 0.7500 0.2500 0.5000
Cd9 Cd 0.5000 0.59675(2) 0.2500
H1 H 0.5705(19) 0.163(4) 0.831(5)
C1 C 0.61871(11) 0.3282(2) 0.6250(3)
C2 C 0.64279(13) 0.2773(3) 0.7972(3)
H2 H 0.6700 0.3446 0.8650
H3 H 0.6683 0.1970 0.7979
N1 N 0.56326(11) 0.3921(2) 0.5708(3)
N2 N 0.56148(10) 0.4327(2) 0.4168(3)
N3 N 0.61359(11) 0.3940(2) 0.3803(3)
N4 N 0.65041(10) 0.3265(2) 0.5089(3)
N9 N 0.58815(11) 0.2459(2) 0.8668(3)
Cd2 Cd 0.5000 0.40325(2) 0.7500
H6 H 0.4295(19) 0.163(4) 0.669(5)
C5 C 0.38129(11) 0.3282(2) 0.8750(3)
C6 C 0.35721(13) 0.2773(3) 0.7028(3)
H7 H 0.3300 0.3446 0.6350
H8 H 0.3317 0.1970 0.7021
C7 C 0.33832(12) 0.1303(3) 0.3935(3)
C8 C 0.38919(14) 0.2367(3) 0.4510(3)
H9 H 0.4254 0.2164 0.4076
H10 H 0.3720 0.3230 0.4069
N10 N 0.43674(11) 0.3921(2) 0.9292(3)
N13 N 0.34959(10) 0.3265(2) 0.9911(3)
N14 N 0.33773(11) 0.0165(2) 0.4761(3)
N16 N 0.25455(11) 0.0229(2) 0.2618(3)
N17 N 0.28811(11) 0.1378(2) 0.2612(3)
N18 N 0.41185(11) 0.2459(2) 0.6332(3)
Cd5_2 Cd 0.2500 0.2500 1.0000
N19 N 0.43852(10) 0.5673(2) 0.5832(3)
N20 N 0.56148(10) 0.5673(2) 0.9168(3)
Cd1 Cd 0.7500 0.7500 0.0000
N6 N 0.71588(11) 0.9525(2) 0.1096(3)
N22 N 0.65041(10) 0.6735(2) 0.0089(3)
N24 N 0.78811(11) 0.6378(2) 0.2612(3)
Cd1_2 Cd 0.7500 0.7500 1.0000
N15 N 0.28412(11) 0.9525(2) 0.3904(3)
Cd3 Cd 0.2500 0.7500 0.5000
N21 N 0.84959(10) 0.8265(2) 0.9911(3)
N23 N 0.78412(11) 0.5475(2) 0.8904(3)
N25 N 0.71189(11) 0.8622(2) 0.7388(3)
N21_2 N 0.15041(10) 0.8265(2) 0.5089(3)
N22_2 N 0.34959(10) 0.6735(2) 0.4911(3)
N23_2 N 0.21588(11) 0.5475(2) 0.6096(3)
N24_2 N 0.21189(11) 0.6378(2) 0.2388(3)
N25_2 N 0.28811(11) 0.8622(2) 0.7612(3)
Cd9_2 Cd 0.0000 0.09675(2) 0.2500
N20_2 N 0.06148(10) 0.0673(2) 0.9168(3)
C3_2 C 0.16168(12) 0.6303(3) 0.1065(3)
C4_2 C 0.11081(14) 0.7367(3) 0.0490(3)
H4_2 H 0.0746 0.7164 0.0924
H5_2 H 0.1280 0.8230 0.0931
N5_2 N 0.16227(11) 0.5165(2) 0.0239(3)
N6_2 N 0.21588(11) 0.4525(2) 0.1096(3)
N7_2 N 0.24545(11) 0.5229(2) 0.2382(3)
N22_3 N 0.15041(10) 0.1735(2) 0.0089(3)
H1_2 H 0.0705(19) 0.663(4) 0.831(5)
C1_2 C 0.11871(11) 0.8282(2) 0.6250(3)
C2_2 C 0.14279(13) 0.7773(3) 0.7972(3)
H2_2 H 0.1700 0.8446 0.8650
H3_2 H 0.1683 0.6970 0.7979
N1_2 N 0.06326(11) 0.8921(2) 0.5708(3)
N2_2 N 0.06148(10) 0.9327(2) 0.4168(3)
N3_2 N 0.11359(11) 0.8940(2) 0.3803(3)
N9_2 N 0.08815(11) 0.7459(2) 0.8668(3)
Cd2_2 Cd -0.0000 0.90325(2) 0.7500
N23_3 N 0.28412(11) 0.0475(2) 0.8904(3)
N25_3 N 0.21189(11) 0.3622(2) 0.7388(3)
Cd9_3 Cd 1.0000 0.09675(2) 0.2500
N19_2 N 0.93852(10) 0.0673(2) 0.5832(3)
N11_2 N 0.93852(10) 0.9327(2) 0.0832(3)
N12_2 N 0.88641(11) 0.8940(2) 0.1197(3)
Cd2_3 Cd 1.0000 0.90325(2) 0.7500
H6_2 H 0.9295(19) 0.663(4) 0.669(5)
C5_2 C 0.88129(11) 0.8282(2) 0.8750(3)
C6_2 C 0.85721(13) 0.7773(3) 0.7028(3)
H7_2 H 0.8300 0.8446 0.6350
H8_2 H 0.8317 0.6970 0.7021
C7_2 C 0.83832(12) 0.6303(3) 0.3935(3)
C8_2 C 0.88919(14) 0.7367(3) 0.4510(3)
H9_2 H 0.9254 0.7164 0.4076
H10_2 H 0.8720 0.8230 0.4069
N10_2 N 0.93674(11) 0.8921(2) 0.9292(3)
N14_2 N 0.83773(11) 0.5165(2) 0.4761(3)
N15_2 N 0.78412(11) 0.4525(2) 0.3904(3)
N16_2 N 0.75455(11) 0.5229(2) 0.2618(3)
N18_2 N 0.91185(11) 0.7459(2) 0.6332(3)
N22_4 N 0.84959(10) 0.1735(2) 0.4911(3)
N23_4 N 0.71588(11) 0.0475(2) 0.6096(3)
N25_4 N 0.78811(11) 0.3622(2) 0.7612(3)
H1_3 H 0.4295(19) 0.837(4) 0.169(5)
C1_3 C 0.38129(11) 0.6718(2) 0.3750(3)
C2_3 C 0.35721(13) 0.7227(3) 0.2028(3)
H2_3 H 0.3300 0.6554 0.1350
H3_3 H 0.3317 0.8030 0.2021
N1_3 N 0.43674(11) 0.6079(2) 0.4292(3)
N3_3 N 0.38641(11) 0.6060(2) 0.6197(3)
N9_3 N 0.41185(11) 0.7541(2) 0.1332(3)
H6_3 H 0.5705(19) 0.837(4) 0.331(5)
C5_3 C 0.61871(11) 0.6718(2) 0.1250(3)
C6_3 C 0.64279(13) 0.7227(3) 0.2972(3)
H7_3 H 0.6700 0.6554 0.3650
H8_3 H 0.6683 0.8030 0.2979
C7_3 C 0.66168(12) 0.8697(3) 0.6065(3)
C8_3 C 0.61081(14) 0.7633(3) 0.5490(3)
H9_3 H 0.5746 0.7836 0.5924
H10_3 H 0.6280 0.6770 0.5931
N10_3 N 0.56326(11) 0.6079(2) 0.0708(3)
N14_3 N 0.66227(11) 0.9835(2) 0.5239(3)
N16_3 N 0.74545(11) 0.9771(2) 0.7382(3)
N18_3 N 0.58815(11) 0.7541(2) 0.3668(3)
C3_3 C 0.33832(12) 0.8697(3) 0.8935(3)
C4_3 C 0.38919(14) 0.7633(3) 0.9510(3)
H4_3 H 0.4254 0.7836 0.9076
H5_3 H 0.3720 0.6770 0.9069
N5_3 N 0.33773(11) 0.9835(2) 0.9761(3)
N7_3 N 0.25455(11) 0.9771(2) 0.7618(3)
N12_3 N 0.61359(11) 0.6060(2) 0.8803(3)
H6_4 H 0.0705(19) 0.337(4) 0.331(5)
C5_4 C 0.11871(11) 0.1718(2) 0.1250(3)
C6_4 C 0.14279(13) 0.2227(3) 0.2972(3)
H7_4 H 0.1700 0.1554 0.3650
H8_4 H 0.1683 0.3030 0.2979
C7_4 C 0.16168(12) 0.3697(3) 0.6065(3)
C8_4 C 0.11081(14) 0.2633(3) 0.5490(3)
H9_4 H 0.0746 0.2836 0.5924
H10_4 H 0.1280 0.1770 0.5931
N10_4 N 0.06326(11) 0.1079(2) 0.0708(3)
N14_4 N 0.16227(11) 0.4835(2) 0.5239(3)
N16_4 N 0.24545(11) 0.4771(2) 0.7382(3)
N18_4 N 0.08815(11) 0.2541(2) 0.3668(3)
N12_4 N 0.11359(11) 0.1060(2) 0.8803(3)
H1_4 H 0.9295(19) 0.337(4) 0.169(5)
C1_4 C 0.88129(11) 0.1718(2) 0.3750(3)
C2_4 C 0.85721(13) 0.2227(3) 0.2028(3)
H2_4 H 0.8300 0.1554 0.1350
H3_4 H 0.8317 0.3030 0.2021
N1_4 N 0.93674(11) 0.1079(2) 0.4292(3)
N3_4 N 0.88641(11) 0.1060(2) 0.6197(3)
N9_4 N 0.91185(11) 0.2541(2) 0.1332(3)
C3_4 C 0.83832(12) 0.3697(3) 0.8935(3)
C4_4 C 0.88919(14) 0.2633(3) 0.9510(3)
H4_4 H 0.9254 0.2836 0.9076
H5_4 H 0.8720 0.1770 0.9069
N5_4 N 0.83773(11) 0.4835(2) 0.9761(3)
N7_4 N 0.75455(11) 0.4771(2) 0.7618(3)
loop_
_geom_bond_atom_site_label_1
_geom_bond_atom_site_label_2
_geom_bond_site_symmetry_1
_geom_bond_site_symmetry_2
C3 C4 1_555 1_555
C4 H4 1_555 1_555
H5 C4 1_555 1_555
N5 C3 1_555 1_555
N8 C3 1_555 1_555
N12 N11 1_555 1_555
Cd7 N8 1_555 1_555
Cd9 N11 1_555 1_555
N7 N8 1_555 1_555
H1 N9 1_555 1_555
C1 C2 1_555 1_555
C2 H2 1_555 1_555
H3 C2 1_555 1_555
N1 C1 1_555 1_555
N2 N1 1_555 1_555
N3 N2 1_555 1_555
N4 C1 1_555 1_555
N9 C2 1_555 1_555
Cd2 N1 1_555 1_555
H6 N18 1_555 1_555
C5 C6 1_555 1_555
C6 H7 1_555 1_555
H8 C6 1_555 1_555
C7 C8 1_555 1_555
C8 H9 1_555 1_555
H10 C8 1_555 1_555
N10 Cd2 1_555 1_555
N13 C5 1_555 1_555
N14 C7 1_555 1_555
N17 C7 1_555 1_555
N18 Cd2 1_555 1_555
Cd5 N17 1_555 1_555
Cd5_2 N13 1_555 1_555
Cd7 N4 1_555 1_555
N19 Cd2 1_555 1_555
N20 Cd2 1_555 1_555
Cd9 N2 1_555 1_555
N3 N4 1_555 1_555
N9 Cd2 1_555 1_555
C5 N10 1_555 1_555
C6 N18 1_555 1_555
C8 N18 1_555 1_555
N16 N17 1_555 1_555
Cd1 N6 1_555 1_555
N22 Cd1 1_555 1_555
N24 Cd1 1_555 1_555
Cd3 N15 1_555 1_555
N21 Cd1_2 1_555 1_555
N23 Cd1_2 1_555 1_555
N25 Cd1_2 1_555 1_555
N21_2 Cd3 1_555 1_555
N22_2 Cd3 1_555 1_555
N23_2 Cd3 1_555 1_555
N24_2 Cd3 1_555 1_555
N25_2 Cd3 1_555 1_555
C3_2 C4_2 1_555 1_555
C4_2 H4_2 1_555 1_555
H5_2 C4_2 1_555 1_555
Cd5 N6_2 1_555 1_555
N5_2 C3_2 1_555 1_555
N6_2 N5_2 1_555 1_555
N7_2 N6_2 1_555 1_555
N24_2 C3_2 1_555 1_555
N22_3 Cd5 1_555 1_555
N7_2 N24_2 1_555 1_555
H1_2 N9_2 1_555 1_555
C1_2 C2_2 1_555 1_555
C2_2 H2_2 1_555 1_555
H3_2 C2_2 1_555 1_555
N1_2 C1_2 1_555 1_555
N2_2 N1_2 1_555 1_555
N3_2 N2_2 1_555 1_555
N21_2 C1_2 1_555 1_555
N9_2 C2_2 1_555 1_555
Cd2_2 N1_2 1_555 1_555
N23_3 Cd5_2 1_555 1_555
N25_3 Cd5_2 1_555 1_555
N3_2 N21_2 1_555 1_555
N9_2 Cd2_2 1_555 1_555
N12_2 N11_2 1_555 1_555
H6_2 N18_2 1_555 1_555
C5_2 C6_2 1_555 1_555
C6_2 H7_2 1_555 1_555
H8_2 C6_2 1_555 1_555
C7_2 C8_2 1_555 1_555
C8_2 H9_2 1_555 1_555
H10_2 C8_2 1_555 1_555
N10_2 Cd2_3 1_555 1_555
N21 C5_2 1_555 1_555
N14_2 C7_2 1_555 1_555
N15_2 N14_2 1_555 1_555
N16_2 N15_2 1_555 1_555
N24 C7_2 1_555 1_555
N18_2 Cd2_3 1_555 1_555
Cd7 N15_2 1_555 1_555
C5_2 N10_2 1_555 1_555
C6_2 N18_2 1_555 1_555
C8_2 N18_2 1_555 1_555
N16_2 N24 1_555 1_555
N22_4 Cd7 1_555 1_555
N23_4 Cd7 1_555 1_555
N25_4 Cd7 1_555 1_555
H1_3 N9_3 1_555 1_555
C1_3 C2_3 1_555 1_555
C2_3 H2_3 1_555 1_555
H3_3 C2_3 1_555 1_555
N1_3 C1_3 1_555 1_555
N19 N1_3 1_555 1_555
N3_3 N19 1_555 1_555
N22_2 C1_3 1_555 1_555
N9_3 C2_3 1_555 1_555
Cd9 N1_3 1_555 1_555
H6_3 N18_3 1_555 1_555
C5_3 C6_3 1_555 1_555
C6_3 H7_3 1_555 1_555
H8_3 C6_3 1_555 1_555
C7_3 C8_3 1_555 1_555
C8_3 H9_3 1_555 1_555
H10_3 C8_3 1_555 1_555
N10_3 Cd9 1_555 1_555
N22 C5_3 1_555 1_555
N14_3 C7_3 1_555 1_555
N25 C7_3 1_555 1_555
N18_3 Cd9 1_555 1_555
N3_3 N22_2 1_555 1_555
N9_3 Cd9 1_555 1_555
C5_3 N10_3 1_555 1_555
C6_3 N18_3 1_555 1_555
C8_3 N18_3 1_555 1_555
N16_3 N25 1_555 1_555
C3_3 C4_3 1_555 1_555
C4_3 H4_3 1_555 1_555
H5_3 C4_3 1_555 1_555
N5_3 C3_3 1_555 1_555
N25_2 C3_3 1_555 1_555
N12_3 N20 1_555 1_555
N7_3 N25_2 1_555 1_555
H6_4 N18_4 1_555 1_555
C5_4 C6_4 1_555 1_555
C6_4 H7_4 1_555 1_555
H8_4 C6_4 1_555 1_555
C7_4 C8_4 1_555 1_555
C8_4 H9_4 1_555 1_555
H10_4 C8_4 1_555 1_555
N10_4 Cd9_2 1_555 1_555
N22_3 C5_4 1_555 1_555
N14_4 C7_4 1_555 1_555
N23_2 N14_4 1_555 1_555
N16_4 N23_2 1_555 1_555
N25_3 C7_4 1_555 1_555
N18_4 Cd9_2 1_555 1_555
C5_4 N10_4 1_555 1_555
C6_4 N18_4 1_555 1_555
C8_4 N18_4 1_555 1_555
N16_4 N25_3 1_555 1_555
N12_4 N20_2 1_555 1_555
H1_4 N9_4 1_555 1_555
C1_4 C2_4 1_555 1_555
C2_4 H2_4 1_555 1_555
H3_4 C2_4 1_555 1_555
N1_4 C1_4 1_555 1_555
N19_2 N1_4 1_555 1_555
N3_4 N19_2 1_555 1_555
N22_4 C1_4 1_555 1_555
N9_4 C2_4 1_555 1_555
Cd9_3 N1_4 1_555 1_555
N3_4 N22_4 1_555 1_555
N9_4 Cd9_3 1_555 1_555
C3_4 C4_4 1_555 1_555
C4_4 H4_4 1_555 1_555
H5_4 C4_4 1_555 1_555
N5_4 C3_4 1_555 1_555
N23 N5_4 1_555 1_555
N7_4 N23 1_555 1_555
N25_4 C3_4 1_555 1_555
N7_4 N25_4 1_555 1_555

#END
