
###############################################################################
#
# This file contains modified crystal structure data generated from the
# MOF subset of the Cambridge Structural Database (CSD) v543 
# hosted by the Cambridge Crystallographic Data Centre (CCDC).
#
# This work is licensed under the Creative Commons
# Attribution-NonCommercial-ShareAlike 4.0 International License.
# To view a copy of this license, visit
# http://creativecommons.org/licenses/by-nc-sa/4.0/
# or send a letter to
# Creative Commons, PO Box 1866, Mountain View, CA 94042, USA.
#
# CIF created using the CSD Python API on 29 September 2022
# The structure has been converted into the P1 space group
# The structure has a 3D framework
# The original CSD entry ESAFIQ is in the tetragonal crystal system
# The framework has been calculated to contain at least 10.0% void space
# The void calculation uses a probe of radius 1.32A, grid spacing 0.4
# The framework is charged, counterions have been retained in the structure
# H atom positions have been added when not included in the experimental data
#
###############################################################################

data_ESAFIQ
_chemical_formula_moiety         '(C896 H896 Cu64 In16 N128 O188 48+)n'
_symmetry_cell_setting           triclinic
_symmetry_space_group_name_H-M   'P 1'
_symmetry_Int_Tables_number      1
_space_group_name_Hall           'P 1'
loop_
_symmetry_equiv_pos_site_id
_symmetry_equiv_pos_as_xyz
1 x,y,z
_cell_length_a                   31.8006(17)
_cell_length_b                   31.8006(17)
_cell_length_c                   31.3820(13)
_cell_angle_alpha                90
_cell_angle_beta                 90
_cell_angle_gamma                90
_cell_volume                     31735.9
loop_
_atom_site_label
_atom_site_type_symbol
_atom_site_fract_x
_atom_site_fract_y
_atom_site_fract_z
In1 In 0.24665(3) 0.25690(3) 0.49905(3)
Cu1 Cu 0.48225(6) 0.33649(7) 0.33185(5)
Cu2 Cu 0.52618(5) 0.33540(7) 0.41924(5)
Cu3 Cu 0.14256(7) 0.52625(6) 0.57876(5)
Cu4 Cu 0.14118(7) 0.48283(6) 0.66598(5)
O1 O 0.5386(3) 0.3314(3) 0.3582(2)
O2 O 0.4696(3) 0.3331(4) 0.3930(3)
O3 O 0.6892(3) 0.2678(3) 0.2438(3)
O4 O 0.7156(3) 0.2593(3) 0.3064(3)
O5 O 0.2901(3) 0.2702(3) 0.4443(3)
O6 O 0.3141(3) 0.2792(3) 0.5088(3)
O7 O 0.2203(3) 0.3230(3) 0.4912(3)
O8 O 0.2311(3) 0.2987(3) 0.5566(3)
O9 O 0.1423(3) 0.4690(3) 0.6057(3)
O10 O 0.1448(3) 0.5394(3) 0.6396(3)
O11 O 0.2420(3) 0.7069(3) 0.6882(3)
O12 O 0.2336(3) 0.6796(3) 0.7529(3)
N1 N 0.5041(4) 0.3338(5) 0.2740(4)
N2 N 0.5856(4) 0.3279(5) 0.4368(3)
N3 N 0.5025(4) 0.3356(4) 0.4770(3)
N4 N 0.4243(4) 0.3303(6) 0.3150(4)
N5 N 0.1446(5) 0.5031(4) 0.5216(4)
N6 N 0.1450(4) 0.4238(4) 0.6827(3)
N7 N 0.1436(4) 0.5059(4) 0.7228(3)
N8 N 0.1489(5) 0.5850(4) 0.5621(4)
C1 C 0.4378(5) 0.3299(9) 0.2359(5)
C2 C 0.4140(7) 0.3401(10) 0.1944(5)
H1 H 0.413145 0.370631 0.190293
H2 H 0.385291 0.329128 0.196217
H3 H 0.428560 0.326992 0.170268
C3 C 0.4406(8) 0.2821(9) 0.2382(6)
H4 H 0.412267 0.270192 0.240735
H5 H 0.457375 0.273900 0.263030
H6 H 0.453971 0.271335 0.212218
C4 C 0.4790(5) 0.3456(6) 0.2396(5)
H7 H 0.489703 0.364332 0.218621
C5 C 0.5416(5) 0.3224(5) 0.2658(4)
H8 H 0.548832 0.321894 0.236408
C6 C 0.5755(4) 0.3100(5) 0.2952(4)
C7 C 0.6109(4) 0.2948(4) 0.2772(4)
H9 H 0.612301 0.291708 0.247159
C8 C 0.6465(4) 0.2832(4) 0.3025(4)
C9 C 0.6427(4) 0.2905(4) 0.3463(4)
H10 H 0.665986 0.283449 0.363845
C10 C 0.6084(4) 0.3069(5) 0.3653(4)
C11 C 0.5720(4) 0.3168(5) 0.3403(4)
C12 C 0.6121(4) 0.3131(5) 0.4118(4)
H11 H 0.638086 0.304736 0.424161
C13 C 0.6009(5) 0.3403(6) 0.4781(4)
H12 H 0.604423 0.371265 0.478437
H13 H 0.628935 0.327582 0.482604
C14 C 0.5723(4) 0.3277(6) 0.5148(4)
C15 C 0.5657(6) 0.2799(7) 0.5150(5)
H14 H 0.535886 0.273580 0.519540
H15 H 0.582367 0.267320 0.538028
H16 H 0.574757 0.268132 0.487626
C16 C 0.5917(5) 0.3406(7) 0.5563(4)
H17 H 0.616353 0.322992 0.562054
H18 H 0.571165 0.337181 0.579287
H19 H 0.600388 0.370152 0.554641
C17 C 0.5295(5) 0.3496(7) 0.5128(5)
H20 H 0.514398 0.344432 0.539854
H21 H 0.534097 0.380243 0.510233
C18 C 0.4661(5) 0.3253(5) 0.4847(4)
H22 H 0.459373 0.323378 0.514095
C19 C 0.4322(5) 0.3156(5) 0.4562(4)
C20 C 0.3950(4) 0.3026(5) 0.4739(4)
H23 H 0.393380 0.300153 0.503999
C21 C 0.3582(4) 0.2924(4) 0.4492(4)
C22 C 0.3635(4) 0.2985(4) 0.4064(4)
H24 H 0.339863 0.292771 0.388833
C23 C 0.3984(5) 0.3118(5) 0.3867(4)
C24 C 0.4374(5) 0.3221(5) 0.4119(4)
C25 C 0.3954(6) 0.3159(7) 0.3393(5)
H25 H 0.369950 0.307214 0.326248
C26 C 0.4083(6) 0.3441(9) 0.2731(5)
H26 H 0.405885 0.375108 0.272847
H27 H 0.379921 0.332188 0.268506
C27 C 0.6844(4) 0.2694(4) 0.2839(4)
C28 C 0.3195(4) 0.2799(4) 0.4680(4)
C29 C 0.2176(4) 0.3266(5) 0.5323(4)
C30 C 0.1520(7) 0.5719(5) 0.4838(5)
C31 C 0.2017(7) 0.5662(6) 0.4842(5)
H28 H 0.210574 0.551579 0.458221
H29 H 0.209894 0.549572 0.509172
H30 H 0.215207 0.593836 0.485514
C32 C 0.1386(8) 0.5923(6) 0.4402(5)
H31 H 0.162660 0.607098 0.427777
H32 H 0.115602 0.612243 0.445081
H33 H 0.129156 0.570219 0.420618
C33 C 0.1394(7) 0.5992(5) 0.5194(5)
H34 H 0.153027 0.626870 0.515294
H35 H 0.108655 0.603683 0.517464
C34 C 0.1675(5) 0.6113(5) 0.5849(5)
H36 H 0.175379 0.636974 0.571590
C35 C 0.1787(5) 0.6065(4) 0.6311(4)
C36 C 0.1993(5) 0.6383(5) 0.6521(5)
H37 H 0.208246 0.661282 0.635026
C37 C 0.2079(4) 0.6407(5) 0.6924(4)
C38 C 0.1938(5) 0.6060(4) 0.7202(4)
H38 H 0.198205 0.607030 0.750069
C39 C 0.1742(5) 0.5722(4) 0.7018(4)
C40 C 0.1667(5) 0.5701(5) 0.6577(5)
C41 C 0.1616(5) 0.5425(5) 0.7303(4)
H39 H 0.166500 0.548945 0.759415
C42 C 0.1307(6) 0.4814(5) 0.7595(4)
H40 H 0.099634 0.479411 0.759769
H41 H 0.139436 0.496359 0.785721
C43 C 0.1491(6) 0.4369(5) 0.7604(5)
C44 C 0.1977(6) 0.4412(6) 0.7594(5)
H42 H 0.210475 0.413251 0.756558
H43 H 0.207412 0.454323 0.785861
H44 H 0.206007 0.458673 0.735076
C45 C 0.1388(8) 0.4154(6) 0.8030(5)
H45 H 0.121113 0.390658 0.797833
H46 H 0.123667 0.435180 0.821463
H47 H 0.164904 0.406670 0.817018
C46 C 0.1336(6) 0.4093(5) 0.7260(4)
H48 H 0.102631 0.407446 0.728030
H49 H 0.145136 0.380721 0.730348
C47 C 0.1610(7) 0.3961(6) 0.6573(5)
H50 H 0.166730 0.369443 0.669675
C48 C 0.1716(4) 0.4002(4) 0.6120(4)
C49 C 0.1910(4) 0.3673(5) 0.5939(4)
H51 H 0.199997 0.344584 0.611368
C50 C 0.1983(5) 0.3655(5) 0.5509(4)
C51 C 0.1856(5) 0.3995(5) 0.5250(4)
H52 H 0.189159 0.397747 0.494968
C52 C 0.1687(5) 0.4339(5) 0.5420(4)
C53 C 0.1615(5) 0.4351(5) 0.5879(4)
C54 C 0.1547(5) 0.4656(5) 0.5130(4)
H53 H 0.152739 0.457627 0.483858
C55 C 0.1310(8) 0.5288(5) 0.4844(5)
H54 H 0.100118 0.532493 0.485411
H55 H 0.138015 0.513667 0.457793
C56 C 0.2291(4) 0.6770(4) 0.7127(4)
In2 In 0.75690(3) 0.24665(3) 0.24905(3)
In3 In 0.25690(3) 0.74665(3) 0.74905(3)
O13 O 0.2678(3) 0.1892(3) 0.4938(3)
O14 O 0.2593(3) 0.2156(3) 0.5564(3)
O15 O 0.2069(3) 0.2420(3) 0.4382(3)
O16 O 0.1796(3) 0.2336(3) 0.5029(3)
H56 H 0.490773 0.31895 0.221364
Cu3_2 Cu 0.02625(6) 0.14256(7) 0.32876(5)
O10_2 O 0.0394(3) 0.1448(3) 0.3896(3)
N5_2 N 0.0031(4) 0.1446(5) 0.2716(4)
N7_2 N 0.0059(4) 0.1436(4) 0.4728(3)
N8_2 N 0.0850(4) 0.1489(5) 0.3121(4)
C30_2 C 0.0719(5) 0.1520(7) 0.2338(5)
C31_2 C 0.0662(6) 0.2017(7) 0.2342(5)
H28_2 H 0.051579 0.210574 0.208221
H29_2 H 0.049572 0.209894 0.259172
H30_2 H 0.093836 0.215207 0.235514
C32_2 C 0.0923(6) 0.1386(8) 0.1902(5)
H31_2 H 0.107098 0.162660 0.177777
H32_2 H 0.112243 0.115602 0.195081
H33_2 H 0.070219 0.129156 0.170618
C33_2 C 0.0992(5) 0.1394(7) 0.2694(5)
H34_2 H 0.126870 0.153027 0.265294
H35_2 H 0.103683 0.108655 0.267464
C34_2 C 0.1113(5) 0.1675(5) 0.3349(5)
H36_2 H 0.136974 0.175379 0.321590
C35_2 C 0.1065(4) 0.1787(5) 0.3811(4)
C36_2 C 0.1383(5) 0.1993(5) 0.4021(5)
H37_2 H 0.161282 0.208246 0.385026
C37_2 C 0.1407(5) 0.2079(4) 0.4424(4)
C38_2 C 0.1060(4) 0.1938(5) 0.4702(4)
H38_2 H 0.107030 0.198205 0.500069
C39_2 C 0.0722(4) 0.1742(5) 0.4518(4)
C40_2 C 0.0701(5) 0.1667(5) 0.4077(5)
C41_2 C 0.0425(5) 0.1616(5) 0.4803(4)
H39_2 H 0.048945 0.166500 0.509415
C55_2 C 0.0288(5) 0.1310(8) 0.2344(5)
H54_2 H 0.032493 0.100118 0.235411
H55_2 H 0.013667 0.138015 0.207793
C56_2 C 0.1770(4) 0.2291(4) 0.4627(4)
Cu1_2 Cu 0.83649(7) 0.48225(6) 0.08185(5)
Cu2_2 Cu 0.83540(7) 0.52618(5) 0.16924(5)
Cu4_2 Cu 0.98283(6) 0.14118(7) 0.41598(5)
O1_2 O 0.8314(3) 0.5386(3) 0.1082(2)
O2_2 O 0.8331(4) 0.4696(3) 0.1430(3)
O4_2 O 0.7593(3) 0.7156(3) 0.0564(3)
O5_2 O 0.7702(3) 0.2901(3) 0.1943(3)
O6_2 O 0.7792(3) 0.3141(3) 0.2588(3)
O7_2 O 0.8230(3) 0.2203(3) 0.2412(3)
O8_2 O 0.7987(3) 0.2311(3) 0.3066(3)
O9_2 O 0.9690(3) 0.1423(3) 0.3557(3)
N1_2 N 0.8338(5) 0.5041(4) 0.0240(4)
N2_2 N 0.8279(5) 0.5856(4) 0.1868(3)
N3_2 N 0.8356(4) 0.5025(4) 0.2270(3)
N4_2 N 0.8303(6) 0.4243(4) 0.0650(4)
N6_2 N 0.9238(4) 0.1450(4) 0.4327(3)
H5_2 H 0.773900 0.457375 0.013030
C5_2 C 0.8224(5) 0.5416(5) 0.0158(4)
C6_2 C 0.8100(5) 0.5755(4) 0.0452(4)
C7_2 C 0.7948(4) 0.6109(4) 0.0272(4)
C8_2 C 0.7832(4) 0.6465(4) 0.0525(4)
C9_2 C 0.7905(4) 0.6427(4) 0.0963(4)
H10_2 H 0.783449 0.665986 0.113845
C10_2 C 0.8069(5) 0.6084(4) 0.1153(4)
C11_2 C 0.8168(5) 0.5720(4) 0.0903(4)
C12_2 C 0.8131(5) 0.6121(4) 0.1618(4)
H11_2 H 0.804736 0.638086 0.174161
C13_2 C 0.8403(6) 0.6009(5) 0.2281(4)
H12_2 H 0.871265 0.604423 0.228437
H13_2 H 0.827582 0.628935 0.232604
C14_2 C 0.8277(6) 0.5723(4) 0.2648(4)
C15_2 C 0.7799(7) 0.5657(6) 0.2650(5)
H14_2 H 0.773580 0.535886 0.269540
H15_2 H 0.767320 0.582367 0.288028
H16_2 H 0.768132 0.574757 0.237626
C16_2 C 0.8406(7) 0.5917(5) 0.3063(4)
H17_2 H 0.822992 0.616353 0.312054
H18_2 H 0.837181 0.571165 0.329287
H19_2 H 0.870152 0.600388 0.304641
C17_2 C 0.8496(7) 0.5295(5) 0.2628(5)
H20_2 H 0.844432 0.514398 0.289854
H21_2 H 0.880243 0.534097 0.260233
C18_2 C 0.8253(5) 0.4661(5) 0.2347(4)
H22_2 H 0.823378 0.459373 0.264095
C19_2 C 0.8156(5) 0.4322(5) 0.2062(4)
C20_2 C 0.8026(5) 0.3950(4) 0.2239(4)
H23_2 H 0.800153 0.393380 0.253999
C21_2 C 0.7924(4) 0.3582(4) 0.1992(4)
C22_2 C 0.7985(4) 0.3635(4) 0.1564(4)
H24_2 H 0.792771 0.339863 0.138833
C23_2 C 0.8118(5) 0.3984(5) 0.1367(4)
C24_2 C 0.8221(5) 0.4374(5) 0.1619(4)
C25_2 C 0.8159(7) 0.3954(6) 0.0893(5)
H25_2 H 0.807214 0.369950 0.076248
C26_2 C 0.8441(9) 0.4083(6) 0.0231(5)
H26_2 H 0.875108 0.405885 0.022847
H27_2 H 0.832188 0.379921 0.018506
C27_2 C 0.7694(4) 0.6844(4) 0.0339(4)
C28_2 C 0.7799(4) 0.3195(4) 0.2180(4)
C29_2 C 0.8266(5) 0.2176(4) 0.2823(4)
C42_2 C 0.9814(5) 0.1307(6) 0.5095(4)
H40_2 H 0.979411 0.099634 0.509769
H41_2 H 0.996359 0.139436 0.535721
C43_2 C 0.9369(5) 0.1491(6) 0.5104(5)
C44_2 C 0.9412(6) 0.1977(6) 0.5094(5)
H42_2 H 0.913251 0.210475 0.506558
H43_2 H 0.954323 0.207412 0.535861
H44_2 H 0.958673 0.206007 0.485076
C45_2 C 0.9154(6) 0.1388(8) 0.5530(5)
H45_2 H 0.890658 0.121113 0.547833
H46_2 H 0.935180 0.123667 0.571463
H47_2 H 0.906670 0.164904 0.567018
C46_2 C 0.9093(5) 0.1336(6) 0.4760(4)
H48_2 H 0.907446 0.102631 0.478030
H49_2 H 0.880721 0.145136 0.480348
C47_2 C 0.8961(6) 0.1610(7) 0.4073(5)
H50_2 H 0.869443 0.166730 0.419675
C48_2 C 0.9002(4) 0.1716(4) 0.3620(4)
C49_2 C 0.8673(5) 0.1910(4) 0.3439(4)
H51_2 H 0.844584 0.199997 0.361368
C50_2 C 0.8655(5) 0.1983(5) 0.3009(4)
C51_2 C 0.8995(5) 0.1856(5) 0.2750(4)
H52_2 H 0.897747 0.189159 0.244968
C52_2 C 0.9339(5) 0.1687(5) 0.2920(4)
C53_2 C 0.9351(5) 0.1615(5) 0.3379(4)
C54_2 C 0.9656(5) 0.1547(5) 0.2630(4)
H53_2 H 0.957627 0.152739 0.233858
O15_2 O 0.7420(3) 0.2069(3) 0.1882(3)
O16_2 O 0.7336(3) 0.1796(3) 0.2529(3)
O3_2 O 0.7678(3) 0.6892(3) 0.9938(3)
C1_2 C 0.8299(9) 0.4378(5) 0.9859(5)
C2_2 C 0.8401(10) 0.4140(7) 0.9444(5)
H1_2 H 0.870631 0.413145 0.940293
H2_2 H 0.829128 0.385291 0.946217
H3_2 H 0.826992 0.428560 0.920268
C3_2 C 0.7821(9) 0.4406(8) 0.9882(6)
H4_2 H 0.770192 0.412267 0.990735
H6_2 H 0.771335 0.453971 0.962218
C4_2 C 0.8456(6) 0.4790(5) 0.9896(5)
H7_2 H 0.864332 0.489703 0.968621
H8_2 H 0.821894 0.548832 0.986408
H9_2 H 0.791708 0.612301 0.997159
In2_2 In 0.74665(3) 0.75690(3) 0.99905(3)
H56_2 H 0.81895 0.490773 0.971364
Cu2_3 Cu 0.02618(5) 0.83540(7) 0.91924(5)
O1_3 O 0.0386(3) 0.8314(3) 0.8582(2)
O3_3 O 0.1892(3) 0.7678(3) 0.7438(3)
O4_3 O 0.2156(3) 0.7593(3) 0.8064(3)
N1_3 N 0.0041(4) 0.8338(5) 0.7740(4)
N2_3 N 0.0856(4) 0.8279(5) 0.9368(3)
N3_3 N 0.0025(4) 0.8356(4) 0.9770(3)
C5_3 C 0.0416(5) 0.8224(5) 0.7658(4)
H8_3 H 0.048832 0.821894 0.736408
C6_3 C 0.0755(4) 0.8100(5) 0.7952(4)
C7_3 C 0.1109(4) 0.7948(4) 0.7772(4)
H9_3 H 0.112301 0.791708 0.747159
C8_3 C 0.1465(4) 0.7832(4) 0.8025(4)
C9_3 C 0.1427(4) 0.7905(4) 0.8463(4)
H10_3 H 0.165986 0.783449 0.863845
C10_3 C 0.1084(4) 0.8069(5) 0.8653(4)
C11_3 C 0.0720(4) 0.8168(5) 0.8403(4)
C12_3 C 0.1121(4) 0.8131(5) 0.9118(4)
H11_3 H 0.138086 0.804736 0.924161
C13_3 C 0.1009(5) 0.8403(6) 0.9781(4)
H12_3 H 0.104423 0.871265 0.978437
H13_3 H 0.128935 0.827582 0.982604
H16_3 H 0.074757 0.768132 0.987626
C27_3 C 0.1844(4) 0.7694(4) 0.7839(4)
Cu3_3 Cu 0.64256(7) 0.02625(6) 0.07876(5)
O10_3 O 0.6448(3) 0.0394(3) 0.1396(3)
N5_3 N 0.6446(5) 0.0031(4) 0.0216(4)
N7_3 N 0.6436(4) 0.0059(4) 0.2228(3)
N8_3 N 0.6489(5) 0.0850(4) 0.0621(4)
H29_3 H 0.709894 0.049572 0.009172
C33_3 C 0.6394(7) 0.0992(5) 0.0194(5)
H34_3 H 0.653027 0.126870 0.015294
H35_3 H 0.608655 0.103683 0.017464
C34_3 C 0.6675(5) 0.1113(5) 0.0849(5)
H36_3 H 0.675379 0.136974 0.071590
C35_3 C 0.6787(5) 0.1065(4) 0.1311(4)
C36_3 C 0.6993(5) 0.1383(5) 0.1521(5)
H37_3 H 0.708246 0.161282 0.135026
C37_3 C 0.7079(4) 0.1407(5) 0.1924(4)
C38_3 C 0.6938(5) 0.1060(4) 0.2202(4)
H38_3 H 0.698205 0.107030 0.250069
C39_3 C 0.6742(5) 0.0722(4) 0.2018(4)
C40_3 C 0.6667(5) 0.0701(5) 0.1577(5)
C41_3 C 0.6616(5) 0.0425(5) 0.2303(4)
H39_3 H 0.666500 0.048945 0.259415
C56_3 C 0.7291(4) 0.1770(4) 0.2127(4)
Cu4_3 Cu 0.64118(7) 0.98283(6) 0.16598(5)
O6_3 O 0.8141(3) 0.7792(3) 0.0088(3)
O8_3 O 0.7311(3) 0.7987(3) 0.0566(3)
O9_3 O 0.6423(3) 0.9690(3) 0.1057(3)
N6_3 N 0.6450(4) 0.9238(4) 0.1827(3)
H22_3 H 0.959373 0.823378 0.014095
H23_3 H 0.893380 0.800153 0.003999
C29_3 C 0.7176(4) 0.8266(5) 0.0323(4)
C42_3 C 0.6307(6) 0.9814(5) 0.2595(4)
H40_3 H 0.599634 0.979411 0.259769
H41_3 H 0.639436 0.996359 0.285721
C43_3 C 0.6491(6) 0.9369(5) 0.2604(5)
C44_3 C 0.6977(6) 0.9412(6) 0.2594(5)
H42_3 H 0.710475 0.913251 0.256558
H43_3 H 0.707412 0.954323 0.285861
H44_3 H 0.706007 0.958673 0.235076
C45_3 C 0.6388(8) 0.9154(6) 0.3030(5)
H45_3 H 0.621113 0.890658 0.297833
H46_3 H 0.623667 0.935180 0.321463
H47_3 H 0.664904 0.906670 0.317018
C46_3 C 0.6336(6) 0.9093(5) 0.2260(4)
H48_3 H 0.602631 0.907446 0.228030
H49_3 H 0.645136 0.880721 0.230348
C47_3 C 0.6610(7) 0.8961(6) 0.1573(5)
H50_3 H 0.666730 0.869443 0.169675
C48_3 C 0.6716(4) 0.9002(4) 0.1120(4)
C49_3 C 0.6910(4) 0.8673(5) 0.0939(4)
H51_3 H 0.699997 0.844584 0.111368
C50_3 C 0.6983(5) 0.8655(5) 0.0509(4)
C51_3 C 0.6856(5) 0.8995(5) 0.0250(4)
C52_3 C 0.6687(5) 0.9339(5) 0.0420(4)
C53_3 C 0.6615(5) 0.9351(5) 0.0879(4)
C54_3 C 0.6547(5) 0.9656(5) 0.0130(4)
O16_3 O 0.6796(3) 0.7336(3) 0.0029(3)
Cu1_3 Cu 0.98225(6) 0.83649(7) 0.83185(5)
O2_3 O 0.9696(3) 0.8331(4) 0.8930(3)
O5_3 O 0.7901(3) 0.7702(3) 0.9443(3)
O7_3 O 0.7203(3) 0.8230(3) 0.9912(3)
N4_3 N 0.9243(4) 0.8303(6) 0.8150(4)
C1_3 C 0.9378(5) 0.8299(9) 0.7359(5)
C2_3 C 0.9140(7) 0.8401(10) 0.6944(5)
H1_3 H 0.913145 0.870631 0.690293
H2_3 H 0.885291 0.829128 0.696217
H3_3 H 0.928560 0.826992 0.670268
C3_3 C 0.9406(8) 0.7821(9) 0.7382(6)
H4_3 H 0.912267 0.770192 0.740735
H5_3 H 0.957375 0.773900 0.763030
H6_3 H 0.953971 0.771335 0.712218
C4_3 C 0.9790(5) 0.8456(6) 0.7396(5)
H7_3 H 0.989703 0.864332 0.718621
C18_3 C 0.9661(5) 0.8253(5) 0.9847(4)
C19_3 C 0.9322(5) 0.8156(5) 0.9562(4)
C20_3 C 0.8950(4) 0.8026(5) 0.9739(4)
C21_3 C 0.8582(4) 0.7924(4) 0.9492(4)
C22_3 C 0.8635(4) 0.7985(4) 0.9064(4)
H24_3 H 0.839863 0.792771 0.888833
C23_3 C 0.8984(5) 0.8118(5) 0.8867(4)
C24_3 C 0.9374(5) 0.8221(5) 0.9119(4)
C25_3 C 0.8954(6) 0.8159(7) 0.8393(5)
H25_3 H 0.869950 0.807214 0.826248
C26_3 C 0.9083(6) 0.8441(9) 0.7731(5)
H26_3 H 0.905885 0.875108 0.772847
H27_3 H 0.879921 0.832188 0.768506
C28_3 C 0.8195(4) 0.7799(4) 0.9680(4)
H52_3 H 0.689159 0.897747 0.994968
H53_3 H 0.652739 0.957627 0.983858
O15_3 O 0.7069(3) 0.7420(3) 0.9382(3)
H56_3 H 0.990773 0.81895 0.721364
Cu2_4 Cu 0.33540(7) 0.02618(5) 0.66924(5)
O1_4 O 0.3314(3) 0.0386(3) 0.6082(2)
N1_4 N 0.3338(5) 0.0041(4) 0.5240(4)
N2_4 N 0.3279(5) 0.0856(4) 0.6868(3)
N3_4 N 0.3356(4) 0.0025(4) 0.7270(3)
C5_4 C 0.3224(5) 0.0416(5) 0.5158(4)
H8_4 H 0.321894 0.048832 0.486408
C6_4 C 0.3100(5) 0.0755(4) 0.5452(4)
C7_4 C 0.2948(4) 0.1109(4) 0.5272(4)
H9_4 H 0.291708 0.112301 0.497159
C8_4 C 0.2832(4) 0.1465(4) 0.5525(4)
C9_4 C 0.2905(4) 0.1427(4) 0.5963(4)
H10_4 H 0.283449 0.165986 0.613845
C10_4 C 0.3069(5) 0.1084(4) 0.6153(4)
C11_4 C 0.3168(5) 0.0720(4) 0.5903(4)
C12_4 C 0.3131(5) 0.1121(4) 0.6618(4)
H11_4 H 0.304736 0.138086 0.674161
C13_4 C 0.3403(6) 0.1009(5) 0.7281(4)
H12_4 H 0.371265 0.104423 0.728437
H13_4 H 0.327582 0.128935 0.732604
C14_3 C 0.3277(6) 0.0723(4) 0.7648(4)
C15_3 C 0.2799(7) 0.0657(6) 0.7650(5)
H14_3 H 0.273580 0.035886 0.769540
H15_3 H 0.267320 0.082367 0.788028
H16_4 H 0.268132 0.074757 0.737626
C16_3 C 0.3406(7) 0.0917(5) 0.8063(4)
H17_3 H 0.322992 0.116353 0.812054
H18_3 H 0.337181 0.071165 0.829287
H19_3 H 0.370152 0.100388 0.804641
C17_3 C 0.3496(7) 0.0295(5) 0.7628(5)
H20_3 H 0.344432 0.014398 0.789854
H21_3 H 0.380243 0.034097 0.760233
C27_4 C 0.2694(4) 0.1844(4) 0.5339(4)
H38_4 H 0.607030 0.698205 0.000069
H39_4 H 0.548945 0.666500 0.009415
C42_4 C 0.4814(5) 0.6307(6) 0.0095(4)
H40_4 H 0.479411 0.599634 0.009769
H41_4 H 0.496359 0.639436 0.035721
C43_4 C 0.4369(5) 0.6491(6) 0.0104(5)
C44_4 C 0.4412(6) 0.6977(6) 0.0094(5)
H42_4 H 0.413251 0.710475 0.006558
H43_4 H 0.454323 0.707412 0.035861
C45_4 C 0.4154(6) 0.6388(8) 0.0530(5)
H45_4 H 0.390658 0.621113 0.047833
H46_4 H 0.435180 0.623667 0.071463
H47_4 H 0.406670 0.664904 0.067018
Cu1_4 Cu 0.33649(7) 0.98225(6) 0.58185(5)
Cu3_4 Cu 0.52625(6) 0.64256(7) 0.82876(5)
Cu4_4 Cu 0.48283(6) 0.64118(7) 0.91598(5)
O2_4 O 0.3331(4) 0.9696(3) 0.6430(3)
O5_4 O 0.2702(3) 0.7901(3) 0.6943(3)
O6_4 O 0.2792(3) 0.8141(3) 0.7588(3)
O7_4 O 0.3230(3) 0.7203(3) 0.7412(3)
O8_4 O 0.2987(3) 0.7311(3) 0.8066(3)
O9_4 O 0.4690(3) 0.6423(3) 0.8557(3)
O10_4 O 0.5394(3) 0.6448(3) 0.8896(3)
N4_4 N 0.3303(6) 0.9243(4) 0.5650(4)
N5_4 N 0.5031(4) 0.6446(5) 0.7716(4)
N6_4 N 0.4238(4) 0.6450(4) 0.9327(3)
N7_4 N 0.5059(4) 0.6436(4) 0.9728(3)
N8_4 N 0.5850(4) 0.6489(5) 0.8121(4)
C1_4 C 0.3299(9) 0.9378(5) 0.4859(5)
C2_4 C 0.3401(10) 0.9140(7) 0.4444(5)
H1_4 H 0.370631 0.913145 0.440293
H2_4 H 0.329128 0.885291 0.446217
H3_4 H 0.326992 0.928560 0.420268
C3_4 C 0.2821(9) 0.9406(8) 0.4882(6)
H4_4 H 0.270192 0.912267 0.490735
H5_4 H 0.273900 0.957375 0.513030
H6_4 H 0.271335 0.953971 0.462218
C4_4 C 0.3456(6) 0.9790(5) 0.4896(5)
H7_4 H 0.364332 0.989703 0.468621
C18_4 C 0.3253(5) 0.9661(5) 0.7347(4)
H22_4 H 0.323378 0.959373 0.764095
C19_4 C 0.3156(5) 0.9322(5) 0.7062(4)
C20_4 C 0.3026(5) 0.8950(4) 0.7239(4)
H23_4 H 0.300153 0.893380 0.753999
C21_4 C 0.2924(4) 0.8582(4) 0.6992(4)
C22_4 C 0.2985(4) 0.8635(4) 0.6564(4)
H24_4 H 0.292771 0.839863 0.638833
C23_4 C 0.3118(5) 0.8984(5) 0.6367(4)
C24_4 C 0.3221(5) 0.9374(5) 0.6619(4)
C25_4 C 0.3159(7) 0.8954(6) 0.5893(5)
H25_4 H 0.307214 0.869950 0.576248
C26_4 C 0.3441(9) 0.9083(6) 0.5231(5)
H26_4 H 0.375108 0.905885 0.522847
H27_4 H 0.332188 0.879921 0.518506
C28_4 C 0.2799(4) 0.8195(4) 0.7180(4)
C29_4 C 0.3266(5) 0.7176(4) 0.7823(4)
C30_3 C 0.5719(5) 0.6520(7) 0.7338(5)
C31_3 C 0.5662(6) 0.7017(7) 0.7342(5)
H28_3 H 0.551579 0.710574 0.708221
H29_4 H 0.549572 0.709894 0.759172
H30_3 H 0.593836 0.715207 0.735514
C32_3 C 0.5923(6) 0.6386(8) 0.6902(5)
H31_3 H 0.607098 0.662660 0.677777
H32_3 H 0.612243 0.615602 0.695081
H33_3 H 0.570219 0.629156 0.670618
C33_4 C 0.5992(5) 0.6394(7) 0.7694(5)
H34_4 H 0.626870 0.653027 0.765294
H35_4 H 0.603683 0.608655 0.767464
C34_4 C 0.6113(5) 0.6675(5) 0.8349(5)
H36_4 H 0.636974 0.675379 0.821590
C35_4 C 0.6065(4) 0.6787(5) 0.8811(4)
C36_4 C 0.6383(5) 0.6993(5) 0.9021(5)
H37_4 H 0.661282 0.708246 0.885026
C37_4 C 0.6407(5) 0.7079(4) 0.9424(4)
C38_4 C 0.6060(4) 0.6938(5) 0.9702(4)
C39_4 C 0.5722(4) 0.6742(5) 0.9518(4)
C40_4 C 0.5701(5) 0.6667(5) 0.9077(5)
C41_4 C 0.5425(5) 0.6616(5) 0.9803(4)
H44_4 H 0.458673 0.706007 0.985076
C46_4 C 0.4093(5) 0.6336(6) 0.9760(4)
H48_4 H 0.407446 0.602631 0.978030
H49_4 H 0.380721 0.645136 0.980348
C47_4 C 0.3961(6) 0.6610(7) 0.9073(5)
H50_4 H 0.369443 0.666730 0.919675
C48_4 C 0.4002(4) 0.6716(4) 0.8620(4)
C49_4 C 0.3673(5) 0.6910(4) 0.8439(4)
H51_4 H 0.344584 0.699997 0.861368
C50_4 C 0.3655(5) 0.6983(5) 0.8009(4)
C51_4 C 0.3995(5) 0.6856(5) 0.7750(4)
H52_4 H 0.397747 0.689159 0.744968
C52_4 C 0.4339(5) 0.6687(5) 0.7920(4)
C53_4 C 0.4351(5) 0.6615(5) 0.8379(4)
C54_4 C 0.4656(5) 0.6547(5) 0.7630(4)
H53_4 H 0.457627 0.652739 0.733858
C55_3 C 0.5288(5) 0.6310(8) 0.7344(5)
H54_3 H 0.532493 0.600118 0.735411
H55_3 H 0.513667 0.638015 0.707793
C56_4 C 0.6770(4) 0.7291(4) 0.9627(4)
H56_4 H 0.31895 0.990773 0.471364
In1_2 In 0.75335(3) 0.74310(3) 0.49905(3)
Cu1_5 Cu 0.51775(6) 0.66351(7) 0.33185(5)
Cu2_5 Cu 0.47382(5) 0.66460(7) 0.41924(5)
Cu3_5 Cu 0.85744(7) 0.47375(6) 0.57876(5)
Cu4_5 Cu 0.85882(7) 0.51717(6) 0.66598(5)
O1_5 O 0.4614(3) 0.6686(3) 0.3582(2)
O2_5 O 0.5304(3) 0.6669(4) 0.3930(3)
O3_4 O 0.3108(3) 0.7322(3) 0.2438(3)
O4_4 O 0.2844(3) 0.7407(3) 0.3064(3)
O5_5 O 0.7099(3) 0.7298(3) 0.4443(3)
O6_5 O 0.6859(3) 0.7208(3) 0.5088(3)
O7_5 O 0.7797(3) 0.6770(3) 0.4912(3)
O8_5 O 0.7689(3) 0.7013(3) 0.5566(3)
O9_5 O 0.8577(3) 0.5310(3) 0.6057(3)
O10_5 O 0.8552(3) 0.4606(3) 0.6396(3)
O11_2 O 0.7580(3) 0.2931(3) 0.6882(3)
O12_2 O 0.7664(3) 0.3204(3) 0.7529(3)
N1_5 N 0.4959(4) 0.6662(5) 0.2740(4)
N2_5 N 0.4144(4) 0.6721(5) 0.4368(3)
N3_5 N 0.4975(4) 0.6644(4) 0.4770(3)
N4_5 N 0.5757(4) 0.6697(6) 0.3150(4)
N5_5 N 0.8554(5) 0.4969(4) 0.5216(4)
N6_5 N 0.8550(4) 0.5762(4) 0.6827(3)
N7_5 N 0.8564(4) 0.4941(4) 0.7228(3)
N8_5 N 0.8511(5) 0.4150(4) 0.5621(4)
C1_5 C 0.5622(5) 0.6701(9) 0.2359(5)
C2_5 C 0.5860(7) 0.6599(10) 0.1944(5)
H1_5 H 0.586855 0.629369 0.190293
H2_5 H 0.614709 0.670872 0.196217
H3_5 H 0.571440 0.673008 0.170268
C3_5 C 0.5594(8) 0.7179(9) 0.2382(6)
H4_5 H 0.587733 0.729808 0.240735
H5_5 H 0.542625 0.726100 0.263030
H6_5 H 0.546029 0.728665 0.212218
C4_5 C 0.5210(5) 0.6544(6) 0.2396(5)
H7_5 H 0.510297 0.635668 0.218621
C5_5 C 0.4584(5) 0.6776(5) 0.2658(4)
H8_5 H 0.451168 0.678106 0.236408
C6_5 C 0.4245(4) 0.6900(5) 0.2952(4)
C7_5 C 0.3891(4) 0.7052(4) 0.2772(4)
H9_5 H 0.387699 0.708292 0.247159
C8_5 C 0.3535(4) 0.7168(4) 0.3025(4)
C9_5 C 0.3573(4) 0.7095(4) 0.3463(4)
H10_5 H 0.334014 0.716551 0.363845
C10_5 C 0.3916(4) 0.6931(5) 0.3653(4)
C11_5 C 0.4280(4) 0.6832(5) 0.3403(4)
C12_5 C 0.3879(4) 0.6869(5) 0.4118(4)
H11_5 H 0.361914 0.695264 0.424161
C13_5 C 0.3991(5) 0.6597(6) 0.4781(4)
H12_5 H 0.395577 0.628735 0.478437
H13_5 H 0.371065 0.672418 0.482604
C14_4 C 0.4277(4) 0.6723(6) 0.5148(4)
C15_4 C 0.4343(6) 0.7201(7) 0.5150(5)
H14_4 H 0.464114 0.726420 0.519540
H15_4 H 0.417633 0.732680 0.538028
H16_5 H 0.425243 0.731868 0.487626
C16_4 C 0.4083(5) 0.6594(7) 0.5563(4)
H17_4 H 0.383647 0.677008 0.562054
H18_4 H 0.428835 0.662819 0.579287
H19_4 H 0.399612 0.629848 0.554641
C17_4 C 0.4705(5) 0.6504(7) 0.5128(5)
H20_4 H 0.485602 0.655568 0.539854
H21_4 H 0.465903 0.619757 0.510233
C18_5 C 0.5339(5) 0.6747(5) 0.4847(4)
H22_5 H 0.540627 0.676622 0.514095
C19_5 C 0.5678(5) 0.6844(5) 0.4562(4)
C20_5 C 0.6050(4) 0.6974(5) 0.4739(4)
H23_5 H 0.606620 0.699847 0.503999
C21_5 C 0.6418(4) 0.7076(4) 0.4492(4)
C22_5 C 0.6365(4) 0.7015(4) 0.4064(4)
H24_5 H 0.660137 0.707229 0.388833
C23_5 C 0.6016(5) 0.6882(5) 0.3867(4)
C24_5 C 0.5626(5) 0.6779(5) 0.4119(4)
C25_5 C 0.6046(6) 0.6841(7) 0.3393(5)
H25_5 H 0.630050 0.692786 0.326248
C26_5 C 0.5917(6) 0.6559(9) 0.2731(5)
H26_5 H 0.594115 0.624892 0.272847
H27_5 H 0.620079 0.667812 0.268506
C27_5 C 0.3156(4) 0.7306(4) 0.2839(4)
C28_5 C 0.6805(4) 0.7201(4) 0.4680(4)
C29_5 C 0.7824(4) 0.6734(5) 0.5323(4)
C30_4 C 0.8480(7) 0.4281(5) 0.4838(5)
C31_4 C 0.7983(7) 0.4338(6) 0.4842(5)
H28_4 H 0.789426 0.448421 0.458221
H29_5 H 0.790106 0.450428 0.509172
H30_4 H 0.784793 0.406164 0.485514
C32_4 C 0.8614(8) 0.4077(6) 0.4402(5)
H31_4 H 0.837340 0.392902 0.427777
H32_4 H 0.884398 0.387757 0.445081
H33_4 H 0.870844 0.429781 0.420618
C33_5 C 0.8606(7) 0.4008(5) 0.5194(5)
H34_5 H 0.846973 0.373130 0.515294
H35_5 H 0.891345 0.396317 0.517464
C34_5 C 0.8325(5) 0.3887(5) 0.5849(5)
H36_5 H 0.824621 0.363026 0.571590
C35_5 C 0.8213(5) 0.3935(4) 0.6311(4)
C36_5 C 0.8007(5) 0.3617(5) 0.6521(5)
H37_5 H 0.791754 0.338718 0.635026
C37_5 C 0.7921(4) 0.3593(5) 0.6924(4)
C38_5 C 0.8062(5) 0.3940(4) 0.7202(4)
H38_5 H 0.801795 0.392970 0.750069
C39_5 C 0.8258(5) 0.4278(4) 0.7018(4)
C40_5 C 0.8333(5) 0.4299(5) 0.6577(5)
C41_5 C 0.8384(5) 0.4575(5) 0.7303(4)
H39_5 H 0.833500 0.451055 0.759415
C42_5 C 0.8693(6) 0.5186(5) 0.7595(4)
H40_5 H 0.900366 0.520589 0.759769
H41_5 H 0.860564 0.503641 0.785721
C43_5 C 0.8509(6) 0.5631(5) 0.7604(5)
C44_5 C 0.8023(6) 0.5588(6) 0.7594(5)
H42_5 H 0.789525 0.586749 0.756558
H43_5 H 0.792588 0.545677 0.785861
H44_5 H 0.793993 0.541327 0.735076
C45_5 C 0.8612(8) 0.5846(6) 0.8030(5)
H45_5 H 0.878887 0.609342 0.797833
H46_5 H 0.876333 0.564820 0.821463
H47_5 H 0.835096 0.593330 0.817018
C46_5 C 0.8664(6) 0.5907(5) 0.7260(4)
H48_5 H 0.897369 0.592554 0.728030
H49_5 H 0.854864 0.619279 0.730348
C47_5 C 0.8390(7) 0.6039(6) 0.6573(5)
H50_5 H 0.833270 0.630557 0.669675
C48_5 C 0.8284(4) 0.5998(4) 0.6120(4)
C49_5 C 0.8090(4) 0.6327(5) 0.5939(4)
H51_5 H 0.800003 0.655416 0.611368
C50_5 C 0.8017(5) 0.6345(5) 0.5509(4)
C51_5 C 0.8144(5) 0.6005(5) 0.5250(4)
H52_5 H 0.810841 0.602253 0.494968
C52_5 C 0.8313(5) 0.5661(5) 0.5420(4)
C53_5 C 0.8385(5) 0.5649(5) 0.5879(4)
C54_5 C 0.8453(5) 0.5344(5) 0.5130(4)
H53_5 H 0.847261 0.542373 0.483858
C55_4 C 0.8690(8) 0.4712(5) 0.4844(5)
H54_4 H 0.899882 0.467507 0.485411
H55_4 H 0.861985 0.486333 0.457793
C56_5 C 0.7709(4) 0.3230(4) 0.7127(4)
In2_3 In 0.24310(3) 0.75335(3) 0.24905(3)
In3_2 In 0.74310(3) 0.25335(3) 0.74905(3)
O13_2 O 0.7322(3) 0.8108(3) 0.4938(3)
O14_2 O 0.7407(3) 0.7844(3) 0.5564(3)
O15_4 O 0.7931(3) 0.7580(3) 0.4382(3)
O16_4 O 0.8204(3) 0.7664(3) 0.5029(3)
H56_5 H 0.509227 0.68105 0.221364
Cu1_6 Cu 0.16351(7) 0.51775(6) 0.08185(5)
Cu2_6 Cu 0.16460(7) 0.47382(5) 0.16924(5)
Cu4_6 Cu 0.01717(6) 0.85882(7) 0.41598(5)
O1_6 O 0.1686(3) 0.4614(3) 0.1082(2)
O2_6 O 0.1669(4) 0.5304(3) 0.1430(3)
O4_5 O 0.2407(3) 0.2844(3) 0.0564(3)
O5_6 O 0.2298(3) 0.7099(3) 0.1943(3)
O6_6 O 0.2208(3) 0.6859(3) 0.2588(3)
O7_6 O 0.1770(3) 0.7797(3) 0.2412(3)
O8_6 O 0.2013(3) 0.7689(3) 0.3066(3)
O9_6 O 0.0310(3) 0.8577(3) 0.3557(3)
N1_6 N 0.1662(5) 0.4959(4) 0.0240(4)
N2_6 N 0.1721(5) 0.4144(4) 0.1868(3)
N3_6 N 0.1644(4) 0.4975(4) 0.2270(3)
N4_6 N 0.1697(6) 0.5757(4) 0.0650(4)
N6_6 N 0.0762(4) 0.8550(4) 0.4327(3)
H5_6 H 0.226100 0.542625 0.013030
C5_6 C 0.1776(5) 0.4584(5) 0.0158(4)
C6_6 C 0.1900(5) 0.4245(4) 0.0452(4)
C7_6 C 0.2052(4) 0.3891(4) 0.0272(4)
C8_6 C 0.2168(4) 0.3535(4) 0.0525(4)
C9_6 C 0.2095(4) 0.3573(4) 0.0963(4)
H10_6 H 0.216551 0.334014 0.113845
C10_6 C 0.1931(5) 0.3916(4) 0.1153(4)
C11_6 C 0.1832(5) 0.4280(4) 0.0903(4)
C12_6 C 0.1869(5) 0.3879(4) 0.1618(4)
H11_6 H 0.195264 0.361914 0.174161
C13_6 C 0.1597(6) 0.3991(5) 0.2281(4)
H12_6 H 0.128735 0.395577 0.228437
H13_6 H 0.172418 0.371065 0.232604
C14_5 C 0.1723(6) 0.4277(4) 0.2648(4)
C15_5 C 0.2201(7) 0.4343(6) 0.2650(5)
H14_5 H 0.226420 0.464114 0.269540
H15_5 H 0.232680 0.417633 0.288028
H16_6 H 0.231868 0.425243 0.237626
C16_5 C 0.1594(7) 0.4083(5) 0.3063(4)
H17_5 H 0.177008 0.383647 0.312054
H18_5 H 0.162819 0.428835 0.329287
H19_5 H 0.129848 0.399612 0.304641
C17_5 C 0.1504(7) 0.4705(5) 0.2628(5)
H20_5 H 0.155568 0.485602 0.289854
H21_5 H 0.119757 0.465903 0.260233
C18_6 C 0.1747(5) 0.5339(5) 0.2347(4)
H22_6 H 0.176622 0.540627 0.264095
C19_6 C 0.1844(5) 0.5678(5) 0.2062(4)
C20_6 C 0.1974(5) 0.6050(4) 0.2239(4)
H23_6 H 0.199847 0.606620 0.253999
C21_6 C 0.2076(4) 0.6418(4) 0.1992(4)
C22_6 C 0.2015(4) 0.6365(4) 0.1564(4)
H24_6 H 0.207229 0.660137 0.138833
C23_6 C 0.1882(5) 0.6016(5) 0.1367(4)
C24_6 C 0.1779(5) 0.5626(5) 0.1619(4)
C25_6 C 0.1841(7) 0.6046(6) 0.0893(5)
H25_6 H 0.192786 0.630050 0.076248
C26_6 C 0.1559(9) 0.5917(6) 0.0231(5)
H26_6 H 0.124892 0.594115 0.022847
H27_6 H 0.167812 0.620079 0.018506
C27_6 C 0.2306(4) 0.3156(4) 0.0339(4)
C28_6 C 0.2201(4) 0.6805(4) 0.2180(4)
C29_6 C 0.1734(5) 0.7824(4) 0.2823(4)
C42_6 C 0.0186(5) 0.8693(6) 0.5095(4)
H40_6 H 0.020589 0.900366 0.509769
H41_6 H 0.003641 0.860564 0.535721
C43_6 C 0.0631(5) 0.8509(6) 0.5104(5)
C44_6 C 0.0588(6) 0.8023(6) 0.5094(5)
H42_6 H 0.086749 0.789525 0.506558
H43_6 H 0.045677 0.792588 0.535861
H44_6 H 0.041327 0.793993 0.485076
C45_6 C 0.0846(6) 0.8612(8) 0.5530(5)
H45_6 H 0.109342 0.878887 0.547833
H46_6 H 0.064820 0.876333 0.571463
H47_6 H 0.093330 0.835096 0.567018
C46_6 C 0.0907(5) 0.8664(6) 0.4760(4)
H48_6 H 0.092554 0.897369 0.478030
H49_6 H 0.119279 0.854864 0.480348
C47_6 C 0.1039(6) 0.8390(7) 0.4073(5)
H50_6 H 0.130557 0.833270 0.419675
C48_6 C 0.0998(4) 0.8284(4) 0.3620(4)
C49_6 C 0.1327(5) 0.8090(4) 0.3439(4)
H51_6 H 0.155416 0.800003 0.361368
C50_6 C 0.1345(5) 0.8017(5) 0.3009(4)
C51_6 C 0.1005(5) 0.8144(5) 0.2750(4)
H52_6 H 0.102253 0.810841 0.244968
C52_6 C 0.0661(5) 0.8313(5) 0.2920(4)
C53_6 C 0.0649(5) 0.8385(5) 0.3379(4)
C54_6 C 0.0344(5) 0.8453(5) 0.2630(4)
H53_6 H 0.042373 0.847261 0.233858
O15_5 O 0.2580(3) 0.7931(3) 0.1882(3)
O16_5 O 0.2664(3) 0.8204(3) 0.2529(3)
O3_5 O 0.2322(3) 0.3108(3) 0.9938(3)
C1_6 C 0.1701(9) 0.5622(5) 0.9859(5)
C2_6 C 0.1599(10) 0.5860(7) 0.9444(5)
H1_6 H 0.129369 0.586855 0.940293
H2_6 H 0.170872 0.614709 0.946217
H3_6 H 0.173008 0.571440 0.920268
C3_6 C 0.2179(9) 0.5594(8) 0.9882(6)
H4_6 H 0.229808 0.587733 0.990735
H6_6 H 0.228665 0.546029 0.962218
C4_6 C 0.1544(6) 0.5210(5) 0.9896(5)
H7_6 H 0.135668 0.510297 0.968621
H8_6 H 0.178106 0.451168 0.986408
H9_6 H 0.208292 0.387699 0.997159
In2_4 In 0.25335(3) 0.24310(3) 0.99905(3)
H56_6 H 0.18105 0.509227 0.971364
Cu3_6 Cu 0.97375(6) 0.85744(7) 0.32876(5)
O10_6 O 0.9606(3) 0.8552(3) 0.3896(3)
N5_6 N 0.9969(4) 0.8554(5) 0.2716(4)
N7_6 N 0.9941(4) 0.8564(4) 0.4728(3)
N8_6 N 0.9150(4) 0.8511(5) 0.3121(4)
C30_5 C 0.9281(5) 0.8480(7) 0.2338(5)
C31_5 C 0.9338(6) 0.7983(7) 0.2342(5)
H28_5 H 0.948421 0.789426 0.208221
H29_6 H 0.950428 0.790106 0.259172
H30_5 H 0.906164 0.784793 0.235514
C32_5 C 0.9077(6) 0.8614(8) 0.1902(5)
H31_5 H 0.892902 0.837340 0.177777
H32_5 H 0.887757 0.884398 0.195081
H33_5 H 0.929781 0.870844 0.170618
C33_6 C 0.9008(5) 0.8606(7) 0.2694(5)
H34_6 H 0.873130 0.846973 0.265294
H35_6 H 0.896317 0.891345 0.267464
C34_6 C 0.8887(5) 0.8325(5) 0.3349(5)
H36_6 H 0.863026 0.824621 0.321590
C35_6 C 0.8935(4) 0.8213(5) 0.3811(4)
C36_6 C 0.8617(5) 0.8007(5) 0.4021(5)
H37_6 H 0.838718 0.791754 0.385026
C37_6 C 0.8593(5) 0.7921(4) 0.4424(4)
C38_6 C 0.8940(4) 0.8062(5) 0.4702(4)
H38_6 H 0.892970 0.801795 0.500069
C39_6 C 0.9278(4) 0.8258(5) 0.4518(4)
C40_6 C 0.9299(5) 0.8333(5) 0.4077(5)
C41_6 C 0.9575(5) 0.8384(5) 0.4803(4)
H39_6 H 0.951055 0.833500 0.509415
C55_5 C 0.9712(5) 0.8690(8) 0.2344(5)
H54_5 H 0.967507 0.899882 0.235411
H55_5 H 0.986333 0.861985 0.207793
C56_6 C 0.8230(4) 0.7709(4) 0.4627(4)
Cu4_7 Cu 0.35882(7) 0.01717(6) 0.16598(5)
O6_7 O 0.1859(3) 0.2208(3) 0.0088(3)
O8_7 O 0.2689(3) 0.2013(3) 0.0566(3)
O9_7 O 0.3577(3) 0.0310(3) 0.1057(3)
N6_7 N 0.3550(4) 0.0762(4) 0.1827(3)
H22_7 H 0.040627 0.176622 0.014095
H23_7 H 0.106620 0.199847 0.003999
C29_7 C 0.2824(4) 0.1734(5) 0.0323(4)
C42_7 C 0.3693(6) 0.0186(5) 0.2595(4)
H40_7 H 0.400366 0.020589 0.259769
H41_7 H 0.360564 0.003641 0.285721
C43_7 C 0.3509(6) 0.0631(5) 0.2604(5)
C44_7 C 0.3023(6) 0.0588(6) 0.2594(5)
H42_7 H 0.289525 0.086749 0.256558
H43_7 H 0.292588 0.045677 0.285861
H44_7 H 0.293993 0.041327 0.235076
C45_7 C 0.3612(8) 0.0846(6) 0.3030(5)
H45_7 H 0.378887 0.109342 0.297833
H46_7 H 0.376333 0.064820 0.321463
H47_7 H 0.335096 0.093330 0.317018
C46_7 C 0.3664(6) 0.0907(5) 0.2260(4)
H48_7 H 0.397369 0.092554 0.228030
H49_7 H 0.354864 0.119279 0.230348
C47_7 C 0.3390(7) 0.1039(6) 0.1573(5)
H50_7 H 0.333270 0.130557 0.169675
C48_7 C 0.3284(4) 0.0998(4) 0.1120(4)
C49_7 C 0.3090(4) 0.1327(5) 0.0939(4)
H51_7 H 0.300003 0.155416 0.111368
C50_7 C 0.3017(5) 0.1345(5) 0.0509(4)
C51_7 C 0.3144(5) 0.1005(5) 0.0250(4)
C52_7 C 0.3313(5) 0.0661(5) 0.0420(4)
C53_7 C 0.3385(5) 0.0649(5) 0.0879(4)
C54_7 C 0.3453(5) 0.0344(5) 0.0130(4)
O16_6 O 0.3204(3) 0.2664(3) 0.0029(3)
Cu1_7 Cu 0.01775(6) 0.16351(7) 0.83185(5)
O2_7 O 0.0304(3) 0.1669(4) 0.8930(3)
O5_7 O 0.2099(3) 0.2298(3) 0.9443(3)
O7_7 O 0.2797(3) 0.1770(3) 0.9912(3)
N4_7 N 0.0757(4) 0.1697(6) 0.8150(4)
C1_7 C 0.0622(5) 0.1701(9) 0.7359(5)
C2_7 C 0.0860(7) 0.1599(10) 0.6944(5)
H1_7 H 0.086855 0.129369 0.690293
H2_7 H 0.114709 0.170872 0.696217
H3_7 H 0.071440 0.173008 0.670268
C3_7 C 0.0594(8) 0.2179(9) 0.7382(6)
H4_7 H 0.087733 0.229808 0.740735
H5_7 H 0.042625 0.226100 0.763030
H6_7 H 0.046029 0.228665 0.712218
C4_7 C 0.0210(5) 0.1544(6) 0.7396(5)
H7_7 H 0.010297 0.135668 0.718621
C18_7 C 0.0339(5) 0.1747(5) 0.9847(4)
C19_7 C 0.0678(5) 0.1844(5) 0.9562(4)
C20_7 C 0.1050(4) 0.1974(5) 0.9739(4)
C21_7 C 0.1418(4) 0.2076(4) 0.9492(4)
C22_7 C 0.1365(4) 0.2015(4) 0.9064(4)
H24_7 H 0.160137 0.207229 0.888833
C23_7 C 0.1016(5) 0.1882(5) 0.8867(4)
C24_7 C 0.0626(5) 0.1779(5) 0.9119(4)
C25_7 C 0.1046(6) 0.1841(7) 0.8393(5)
H25_7 H 0.130050 0.192786 0.826248
C26_7 C 0.0917(6) 0.1559(9) 0.7731(5)
H26_7 H 0.094115 0.124892 0.772847
H27_7 H 0.120079 0.167812 0.768506
C28_7 C 0.1805(4) 0.2201(4) 0.9680(4)
H52_7 H 0.310841 0.102253 0.994968
H53_7 H 0.347261 0.042373 0.983858
O15_6 O 0.2931(3) 0.2580(3) 0.9382(3)
H56_7 H 0.00922678 0.18105 0.721364
Cu3_7 Cu 0.35744(7) 0.97375(6) 0.07876(5)
O10_7 O 0.3552(3) 0.9606(3) 0.1396(3)
N5_7 N 0.3554(5) 0.9969(4) 0.0216(4)
N7_7 N 0.3564(4) 0.9941(4) 0.2228(3)
N8_7 N 0.3511(5) 0.9150(4) 0.0621(4)
H29_7 H 0.290106 0.950428 0.009172
C33_7 C 0.3606(7) 0.9008(5) 0.0194(5)
H34_7 H 0.346973 0.873130 0.015294
H35_7 H 0.391345 0.896317 0.017464
C34_7 C 0.3325(5) 0.8887(5) 0.0849(5)
H36_7 H 0.324621 0.863026 0.071590
C35_7 C 0.3213(5) 0.8935(4) 0.1311(4)
C36_7 C 0.3007(5) 0.8617(5) 0.1521(5)
H37_7 H 0.291754 0.838718 0.135026
C37_7 C 0.2921(4) 0.8593(5) 0.1924(4)
C38_7 C 0.3062(5) 0.8940(4) 0.2202(4)
H38_7 H 0.301795 0.892970 0.250069
C39_7 C 0.3258(5) 0.9278(4) 0.2018(4)
C40_7 C 0.3333(5) 0.9299(5) 0.1577(5)
C41_7 C 0.3384(5) 0.9575(5) 0.2303(4)
H39_7 H 0.333500 0.951055 0.259415
C56_7 C 0.2709(4) 0.8230(4) 0.2127(4)
Cu2_7 Cu 0.97382(5) 0.16460(7) 0.91924(5)
O1_7 O 0.9614(3) 0.1686(3) 0.8582(2)
O3_6 O 0.8108(3) 0.2322(3) 0.7438(3)
O4_6 O 0.7844(3) 0.2407(3) 0.8064(3)
N1_7 N 0.9959(4) 0.1662(5) 0.7740(4)
N2_7 N 0.9144(4) 0.1721(5) 0.9368(3)
N3_7 N 0.9975(4) 0.1644(4) 0.9770(3)
C5_7 C 0.9584(5) 0.1776(5) 0.7658(4)
H8_7 H 0.951168 0.178106 0.736408
C6_7 C 0.9245(4) 0.1900(5) 0.7952(4)
C7_7 C 0.8891(4) 0.2052(4) 0.7772(4)
H9_7 H 0.887699 0.208292 0.747159
C8_7 C 0.8535(4) 0.2168(4) 0.8025(4)
C9_7 C 0.8573(4) 0.2095(4) 0.8463(4)
H10_7 H 0.834014 0.216551 0.863845
C10_7 C 0.8916(4) 0.1931(5) 0.8653(4)
C11_7 C 0.9280(4) 0.1832(5) 0.8403(4)
C12_7 C 0.8879(4) 0.1869(5) 0.9118(4)
H11_7 H 0.861914 0.195264 0.924161
C13_7 C 0.8991(5) 0.1597(6) 0.9781(4)
H12_7 H 0.895577 0.128735 0.978437
H13_7 H 0.871065 0.172418 0.982604
H16_7 H 0.925243 0.231868 0.987626
C27_7 C 0.8156(4) 0.2306(4) 0.7839(4)
H38_8 H 0.392970 0.301795 0.000069
H39_8 H 0.451055 0.333500 0.009415
C42_8 C 0.5186(5) 0.3693(6) 0.0095(4)
H40_8 H 0.520589 0.400366 0.009769
H41_8 H 0.503641 0.360564 0.035721
C43_8 C 0.5631(5) 0.3509(6) 0.0104(5)
C44_8 C 0.5588(6) 0.3023(6) 0.0094(5)
H42_8 H 0.586749 0.289525 0.006558
H43_8 H 0.545677 0.292588 0.035861
C45_8 C 0.5846(6) 0.3612(8) 0.0530(5)
H45_8 H 0.609342 0.378887 0.047833
H46_8 H 0.564820 0.376333 0.071463
H47_8 H 0.593330 0.335096 0.067018
Cu1_8 Cu 0.66351(7) 0.01775(6) 0.58185(5)
Cu3_8 Cu 0.47375(6) 0.35744(7) 0.82876(5)
Cu4_8 Cu 0.51717(6) 0.35882(7) 0.91598(5)
O2_8 O 0.6669(4) 0.0304(3) 0.6430(3)
O5_8 O 0.7298(3) 0.2099(3) 0.6943(3)
O6_8 O 0.7208(3) 0.1859(3) 0.7588(3)
O7_8 O 0.6770(3) 0.2797(3) 0.7412(3)
O8_8 O 0.7013(3) 0.2689(3) 0.8066(3)
O9_8 O 0.5310(3) 0.3577(3) 0.8557(3)
O10_8 O 0.4606(3) 0.3552(3) 0.8896(3)
N4_8 N 0.6697(6) 0.0757(4) 0.5650(4)
N5_8 N 0.4969(4) 0.3554(5) 0.7716(4)
N6_8 N 0.5762(4) 0.3550(4) 0.9327(3)
N7_8 N 0.4941(4) 0.3564(4) 0.9728(3)
N8_8 N 0.4150(4) 0.3511(5) 0.8121(4)
C1_8 C 0.6701(9) 0.0622(5) 0.4859(5)
C2_8 C 0.6599(10) 0.0860(7) 0.4444(5)
H1_8 H 0.629369 0.086855 0.440293
H2_8 H 0.670872 0.114709 0.446217
H3_8 H 0.673008 0.071440 0.420268
C3_8 C 0.7179(9) 0.0594(8) 0.4882(6)
H4_8 H 0.729808 0.087733 0.490735
H5_8 H 0.726100 0.042625 0.513030
H6_8 H 0.728665 0.046029 0.462218
C4_8 C 0.6544(6) 0.0210(5) 0.4896(5)
H7_8 H 0.635668 0.010297 0.468621
C18_8 C 0.6747(5) 0.0339(5) 0.7347(4)
H22_8 H 0.676622 0.040627 0.764095
C19_8 C 0.6844(5) 0.0678(5) 0.7062(4)
C20_8 C 0.6974(5) 0.1050(4) 0.7239(4)
H23_8 H 0.699847 0.106620 0.753999
C21_8 C 0.7076(4) 0.1418(4) 0.6992(4)
C22_8 C 0.7015(4) 0.1365(4) 0.6564(4)
H24_8 H 0.707229 0.160137 0.638833
C23_8 C 0.6882(5) 0.1016(5) 0.6367(4)
C24_8 C 0.6779(5) 0.0626(5) 0.6619(4)
C25_8 C 0.6841(7) 0.1046(6) 0.5893(5)
H25_8 H 0.692786 0.130050 0.576248
C26_8 C 0.6559(9) 0.0917(6) 0.5231(5)
H26_8 H 0.624892 0.094115 0.522847
H27_8 H 0.667812 0.120079 0.518506
C28_8 C 0.7201(4) 0.1805(4) 0.7180(4)
C29_8 C 0.6734(5) 0.2824(4) 0.7823(4)
C30_6 C 0.4281(5) 0.3480(7) 0.7338(5)
C31_6 C 0.4338(6) 0.2983(7) 0.7342(5)
H28_6 H 0.448421 0.289426 0.708221
H29_8 H 0.450428 0.290106 0.759172
H30_6 H 0.406164 0.284793 0.735514
C32_6 C 0.4077(6) 0.3614(8) 0.6902(5)
H31_6 H 0.392902 0.337340 0.677777
H32_6 H 0.387757 0.384398 0.695081
H33_6 H 0.429781 0.370844 0.670618
C33_8 C 0.4008(5) 0.3606(7) 0.7694(5)
H34_8 H 0.373130 0.346973 0.765294
H35_8 H 0.396317 0.391345 0.767464
C34_8 C 0.3887(5) 0.3325(5) 0.8349(5)
H36_8 H 0.363026 0.324621 0.821590
C35_8 C 0.3935(4) 0.3213(5) 0.8811(4)
C36_8 C 0.3617(5) 0.3007(5) 0.9021(5)
H37_8 H 0.338718 0.291754 0.885026
C37_8 C 0.3593(5) 0.2921(4) 0.9424(4)
C38_8 C 0.3940(4) 0.3062(5) 0.9702(4)
C39_8 C 0.4278(4) 0.3258(5) 0.9518(4)
C40_8 C 0.4299(5) 0.3333(5) 0.9077(5)
C41_8 C 0.4575(5) 0.3384(5) 0.9803(4)
H44_8 H 0.541327 0.293993 0.985076
C46_8 C 0.5907(5) 0.3664(6) 0.9760(4)
H48_8 H 0.592554 0.397369 0.978030
H49_8 H 0.619279 0.354864 0.980348
C47_8 C 0.6039(6) 0.3390(7) 0.9073(5)
H50_8 H 0.630557 0.333270 0.919675
C48_8 C 0.5998(4) 0.3284(4) 0.8620(4)
C49_8 C 0.6327(5) 0.3090(4) 0.8439(4)
H51_8 H 0.655416 0.300003 0.861368
C50_8 C 0.6345(5) 0.3017(5) 0.8009(4)
C51_8 C 0.6005(5) 0.3144(5) 0.7750(4)
H52_8 H 0.602253 0.310841 0.744968
C52_8 C 0.5661(5) 0.3313(5) 0.7920(4)
C53_8 C 0.5649(5) 0.3385(5) 0.8379(4)
C54_8 C 0.5344(5) 0.3453(5) 0.7630(4)
H53_8 H 0.542373 0.347261 0.733858
C55_6 C 0.4712(5) 0.3690(8) 0.7344(5)
H54_6 H 0.467507 0.399882 0.735411
H55_6 H 0.486333 0.361985 0.707793
C56_8 C 0.3230(4) 0.2709(4) 0.9627(4)
H56_8 H 0.68105 0.00922678 0.471364
Cu2_8 Cu 0.66460(7) 0.97382(5) 0.66924(5)
O1_8 O 0.6686(3) 0.9614(3) 0.6082(2)
N1_8 N 0.6662(5) 0.9959(4) 0.5240(4)
N2_8 N 0.6721(5) 0.9144(4) 0.6868(3)
N3_8 N 0.6644(4) 0.9975(4) 0.7270(3)
C5_8 C 0.6776(5) 0.9584(5) 0.5158(4)
H8_8 H 0.678106 0.951168 0.486408
C6_8 C 0.6900(5) 0.9245(4) 0.5452(4)
C7_8 C 0.7052(4) 0.8891(4) 0.5272(4)
H9_8 H 0.708292 0.887699 0.497159
C8_8 C 0.7168(4) 0.8535(4) 0.5525(4)
C9_8 C 0.7095(4) 0.8573(4) 0.5963(4)
H10_8 H 0.716551 0.834014 0.613845
C10_8 C 0.6931(5) 0.8916(4) 0.6153(4)
C11_8 C 0.6832(5) 0.9280(4) 0.5903(4)
C12_8 C 0.6869(5) 0.8879(4) 0.6618(4)
H11_8 H 0.695264 0.861914 0.674161
C13_8 C 0.6597(6) 0.8991(5) 0.7281(4)
H12_8 H 0.628735 0.895577 0.728437
H13_8 H 0.672418 0.871065 0.732604
C14_6 C 0.6723(6) 0.9277(4) 0.7648(4)
C15_6 C 0.7201(7) 0.9343(6) 0.7650(5)
H14_6 H 0.726420 0.964114 0.769540
H15_6 H 0.732680 0.917633 0.788028
H16_8 H 0.731868 0.925243 0.737626
C16_6 C 0.6594(7) 0.9083(5) 0.8063(4)
H17_6 H 0.677008 0.883647 0.812054
H18_6 H 0.662819 0.928835 0.829287
H19_6 H 0.629848 0.899612 0.804641
C17_6 C 0.6504(7) 0.9705(5) 0.7628(5)
H20_6 H 0.655568 0.985602 0.789854
H21_6 H 0.619757 0.965903 0.760233
C27_8 C 0.7306(4) 0.8156(4) 0.5339(4)
In1_3 In 0.25690(3) 0.75335(3) 0.50095(3)
Cu1_9 Cu 0.33649(7) 0.51775(6) 0.66815(5)
Cu2_9 Cu 0.33540(7) 0.47382(5) 0.58076(5)
Cu3_9 Cu 0.52625(6) 0.85744(7) 0.42124(5)
Cu4_9 Cu 0.48283(6) 0.85882(7) 0.33402(5)
O1_9 O 0.3314(3) 0.4614(3) 0.6418(2)
O2_9 O 0.3331(4) 0.5304(3) 0.6070(3)
O3_7 O 0.2678(3) 0.3108(3) 0.7562(3)
O4_7 O 0.2593(3) 0.2844(3) 0.6936(3)
O5_9 O 0.2702(3) 0.7099(3) 0.5557(3)
O6_9 O 0.2792(3) 0.6859(3) 0.4912(3)
O7_9 O 0.3230(3) 0.7797(3) 0.5088(3)
O8_9 O 0.2987(3) 0.7689(3) 0.4434(3)
O9_9 O 0.4690(3) 0.8577(3) 0.3943(3)
O10_9 O 0.5394(3) 0.8552(3) 0.3604(3)
O11_3 O 0.7069(3) 0.7580(3) 0.3118(3)
O12_3 O 0.6796(3) 0.7664(3) 0.2471(3)
N1_9 N 0.3338(5) 0.4959(4) 0.7260(4)
N2_9 N 0.3279(5) 0.4144(4) 0.5632(3)
N3_9 N 0.3356(4) 0.4975(4) 0.5230(3)
N4_9 N 0.3303(6) 0.5757(4) 0.6850(4)
N5_9 N 0.5031(4) 0.8554(5) 0.4784(4)
N6_9 N 0.4238(4) 0.8550(4) 0.3173(3)
N7_9 N 0.5059(4) 0.8564(4) 0.2772(3)
N8_9 N 0.5850(4) 0.8511(5) 0.4379(4)
C1_9 C 0.3299(9) 0.5622(5) 0.7641(5)
C2_9 C 0.3401(10) 0.5860(7) 0.8056(5)
H1_9 H 0.370631 0.586855 0.809707
H2_9 H 0.329128 0.614709 0.803783
H3_9 H 0.326992 0.571440 0.829732
C3_9 C 0.2821(9) 0.5594(8) 0.7618(6)
H4_9 H 0.270192 0.587733 0.759265
H5_9 H 0.273900 0.542625 0.736970
H6_9 H 0.271335 0.546029 0.787782
C4_9 C 0.3456(6) 0.5210(5) 0.7604(5)
H7_9 H 0.364332 0.510297 0.781379
C5_9 C 0.3224(5) 0.4584(5) 0.7342(4)
H8_9 H 0.321894 0.451168 0.763592
C6_9 C 0.3100(5) 0.4245(4) 0.7048(4)
C7_9 C 0.2948(4) 0.3891(4) 0.7228(4)
H9_9 H 0.291708 0.387699 0.752841
C8_9 C 0.2832(4) 0.3535(4) 0.6975(4)
C9_9 C 0.2905(4) 0.3573(4) 0.6537(4)
H10_9 H 0.283449 0.334014 0.636155
C10_9 C 0.3069(5) 0.3916(4) 0.6347(4)
C11_9 C 0.3168(5) 0.4280(4) 0.6597(4)
C12_9 C 0.3131(5) 0.3879(4) 0.5882(4)
H11_9 H 0.304736 0.361914 0.575839
C13_9 C 0.3403(6) 0.3991(5) 0.5219(4)
H12_9 H 0.371265 0.395577 0.521563
H13_9 H 0.327582 0.371065 0.517396
C14_7 C 0.3277(6) 0.4277(4) 0.4852(4)
C15_7 C 0.2799(7) 0.4343(6) 0.4850(5)
H14_7 H 0.273580 0.464114 0.480460
H15_7 H 0.267320 0.417633 0.461972
H16_9 H 0.268132 0.425243 0.512374
C16_7 C 0.3406(7) 0.4083(5) 0.4437(4)
H17_7 H 0.322992 0.383647 0.437946
H18_7 H 0.337181 0.428835 0.420713
H19_7 H 0.370152 0.399612 0.445359
C17_7 C 0.3496(7) 0.4705(5) 0.4872(5)
H20_7 H 0.344432 0.485602 0.460146
H21_7 H 0.380243 0.465903 0.489767
C18_9 C 0.3253(5) 0.5339(5) 0.5153(4)
H22_9 H 0.323378 0.540627 0.485905
C19_9 C 0.3156(5) 0.5678(5) 0.5438(4)
C20_9 C 0.3026(5) 0.6050(4) 0.5261(4)
H23_9 H 0.300153 0.606620 0.496001
C21_9 C 0.2924(4) 0.6418(4) 0.5508(4)
C22_9 C 0.2985(4) 0.6365(4) 0.5936(4)
H24_9 H 0.292771 0.660137 0.611167
C23_9 C 0.3118(5) 0.6016(5) 0.6133(4)
C24_9 C 0.3221(5) 0.5626(5) 0.5881(4)
C25_9 C 0.3159(7) 0.6046(6) 0.6607(5)
H25_9 H 0.307214 0.630050 0.673752
C26_9 C 0.3441(9) 0.5917(6) 0.7269(5)
H26_9 H 0.375108 0.594115 0.727153
H27_9 H 0.332188 0.620079 0.731494
C27_9 C 0.2694(4) 0.3156(4) 0.7161(4)
C28_9 C 0.2799(4) 0.6805(4) 0.5320(4)
C29_9 C 0.3266(5) 0.7824(4) 0.4677(4)
C30_7 C 0.5719(5) 0.8480(7) 0.5162(5)
C31_7 C 0.5662(6) 0.7983(7) 0.5158(5)
H28_7 H 0.551579 0.789426 0.541779
H29_9 H 0.549572 0.790106 0.490828
H30_7 H 0.593836 0.784793 0.514486
C32_7 C 0.5923(6) 0.8614(8) 0.5598(5)
H31_7 H 0.607098 0.837340 0.572223
H32_7 H 0.612243 0.884398 0.554919
H33_7 H 0.570219 0.870844 0.579382
C33_9 C 0.5992(5) 0.8606(7) 0.4806(5)
H34_9 H 0.626870 0.846973 0.484706
H35_9 H 0.603683 0.891345 0.482536
C34_9 C 0.6113(5) 0.8325(5) 0.4151(5)
H36_9 H 0.636974 0.824621 0.428410
C35_9 C 0.6065(4) 0.8213(5) 0.3689(4)
C36_9 C 0.6383(5) 0.8007(5) 0.3479(5)
H37_9 H 0.661282 0.791754 0.364974
C37_9 C 0.6407(5) 0.7921(4) 0.3076(4)
C38_9 C 0.6060(4) 0.8062(5) 0.2798(4)
H38_9 H 0.607030 0.801795 0.249931
C39_9 C 0.5722(4) 0.8258(5) 0.2982(4)
C40_9 C 0.5701(5) 0.8333(5) 0.3423(5)
C41_9 C 0.5425(5) 0.8384(5) 0.2697(4)
H39_9 H 0.548945 0.833500 0.240585
C42_9 C 0.4814(5) 0.8693(6) 0.2405(4)
H40_9 H 0.479411 0.900366 0.240231
H41_9 H 0.496359 0.860564 0.214279
C43_9 C 0.4369(5) 0.8509(6) 0.2396(5)
C44_9 C 0.4412(6) 0.8023(6) 0.2406(5)
H42_9 H 0.413251 0.789525 0.243442
H43_9 H 0.454323 0.792588 0.214139
H44_9 H 0.458673 0.793993 0.264924
C45_9 C 0.4154(6) 0.8612(8) 0.1970(5)
H45_9 H 0.390658 0.878887 0.202167
H46_9 H 0.435180 0.876333 0.178537
H47_9 H 0.406670 0.835096 0.182982
C46_9 C 0.4093(5) 0.8664(6) 0.2740(4)
H48_9 H 0.407446 0.897369 0.271970
H49_9 H 0.380721 0.854864 0.269652
C47_9 C 0.3961(6) 0.8390(7) 0.3427(5)
H50_9 H 0.369443 0.833270 0.330325
C48_9 C 0.4002(4) 0.8284(4) 0.3880(4)
C49_9 C 0.3673(5) 0.8090(4) 0.4061(4)
H51_9 H 0.344584 0.800003 0.388632
C50_9 C 0.3655(5) 0.8017(5) 0.4491(4)
C51_9 C 0.3995(5) 0.8144(5) 0.4750(4)
H52_9 H 0.397747 0.810841 0.505032
C52_9 C 0.4339(5) 0.8313(5) 0.4580(4)
C53_9 C 0.4351(5) 0.8385(5) 0.4121(4)
C54_9 C 0.4656(5) 0.8453(5) 0.4870(4)
H53_9 H 0.457627 0.847261 0.516142
C55_7 C 0.5288(5) 0.8690(8) 0.5156(5)
H54_7 H 0.532493 0.899882 0.514589
H55_7 H 0.513667 0.861985 0.542207
C56_9 C 0.6770(4) 0.7709(4) 0.2873(4)
In2_5 In 0.24665(3) 0.24310(3) 0.75095(3)
In3_3 In 0.74665(3) 0.74310(3) 0.25095(3)
O13_3 O 0.1892(3) 0.7322(3) 0.5062(3)
O14_3 O 0.2156(3) 0.7407(3) 0.4436(3)
O15_7 O 0.2420(3) 0.7931(3) 0.5618(3)
O16_7 O 0.2336(3) 0.8204(3) 0.4971(3)
H56_9 H 0.31895 0.509227 0.778636
Cu2_10 Cu 0.02618(5) 0.66460(7) 0.33076(5)
O1_10 O 0.0386(3) 0.6686(3) 0.3918(2)
N1_10 N 0.0041(4) 0.6662(5) 0.4760(4)
N2_10 N 0.0856(4) 0.6721(5) 0.3132(3)
N3_10 N 0.0025(4) 0.6644(4) 0.2730(3)
C5_10 C 0.0416(5) 0.6776(5) 0.4842(4)
H8_10 H 0.048832 0.678106 0.513592
C6_10 C 0.0755(4) 0.6900(5) 0.4548(4)
C7_10 C 0.1109(4) 0.7052(4) 0.4728(4)
H9_10 H 0.112301 0.708292 0.502841
C8_10 C 0.1465(4) 0.7168(4) 0.4475(4)
C9_10 C 0.1427(4) 0.7095(4) 0.4037(4)
H10_10 H 0.165986 0.716551 0.386155
C10_10 C 0.1084(4) 0.6931(5) 0.3847(4)
C11_10 C 0.0720(4) 0.6832(5) 0.4097(4)
C12_10 C 0.1121(4) 0.6869(5) 0.3382(4)
H11_10 H 0.138086 0.695264 0.325839
C13_10 C 0.1009(5) 0.6597(6) 0.2719(4)
H12_10 H 0.104423 0.628735 0.271563
H13_10 H 0.128935 0.672418 0.267396
C14_8 C 0.0723(4) 0.6723(6) 0.2352(4)
C15_8 C 0.0657(6) 0.7201(7) 0.2350(5)
H14_8 H 0.035886 0.726420 0.230460
H15_8 H 0.082367 0.732680 0.211972
H16_10 H 0.074757 0.731868 0.262374
C16_8 C 0.0917(5) 0.6594(7) 0.1937(4)
H17_8 H 0.116353 0.677008 0.187946
H18_8 H 0.071165 0.662819 0.170713
H19_8 H 0.100388 0.629848 0.195359
C17_8 C 0.0295(5) 0.6504(7) 0.2372(5)
H20_8 H 0.014398 0.655568 0.210146
H21_8 H 0.034097 0.619757 0.239767
C27_10 C 0.1844(4) 0.7306(4) 0.4661(4)
Cu1_10 Cu 0.98225(6) 0.66351(7) 0.41815(5)
Cu3_10 Cu 0.64256(7) 0.47375(6) 0.17124(5)
Cu4_10 Cu 0.64118(7) 0.51717(6) 0.08402(5)
O2_10 O 0.9696(3) 0.6669(4) 0.3570(3)
O5_10 O 0.7901(3) 0.7298(3) 0.3057(3)
O6_10 O 0.8141(3) 0.7208(3) 0.2412(3)
O7_10 O 0.7203(3) 0.6770(3) 0.2588(3)
O8_10 O 0.7311(3) 0.7013(3) 0.1934(3)
O9_10 O 0.6423(3) 0.5310(3) 0.1443(3)
O10_10 O 0.6448(3) 0.4606(3) 0.1104(3)
O11_4 O 0.7420(3) 0.2931(3) 0.0618(3)
N4_10 N 0.9243(4) 0.6697(6) 0.4350(4)
N5_10 N 0.6446(5) 0.4969(4) 0.2284(4)
N6_10 N 0.6450(4) 0.5762(4) 0.0673(3)
N7_10 N 0.6436(4) 0.4941(4) 0.0272(3)
N8_10 N 0.6489(5) 0.4150(4) 0.1879(4)
C1_10 C 0.9378(5) 0.6701(9) 0.5141(5)
C2_10 C 0.9140(7) 0.6599(10) 0.5556(5)
H1_10 H 0.913145 0.629369 0.559707
H2_10 H 0.885291 0.670872 0.553783
H3_10 H 0.928560 0.673008 0.579732
C3_10 C 0.9406(8) 0.7179(9) 0.5118(6)
H4_10 H 0.912267 0.729808 0.509265
H5_10 H 0.957375 0.726100 0.486970
H6_10 H 0.953971 0.728665 0.537782
C4_10 C 0.9790(5) 0.6544(6) 0.5104(5)
H7_10 H 0.989703 0.635668 0.531379
C18_10 C 0.9661(5) 0.6747(5) 0.2653(4)
H22_10 H 0.959373 0.676622 0.235905
C19_10 C 0.9322(5) 0.6844(5) 0.2938(4)
C20_10 C 0.8950(4) 0.6974(5) 0.2761(4)
H23_10 H 0.893380 0.699847 0.246001
C21_10 C 0.8582(4) 0.7076(4) 0.3008(4)
C22_10 C 0.8635(4) 0.7015(4) 0.3436(4)
H24_10 H 0.839863 0.707229 0.361167
C23_10 C 0.8984(5) 0.6882(5) 0.3633(4)
C24_10 C 0.9374(5) 0.6779(5) 0.3381(4)
C25_10 C 0.8954(6) 0.6841(7) 0.4107(5)
H25_10 H 0.869950 0.692786 0.423752
C26_10 C 0.9083(6) 0.6559(9) 0.4769(5)
H26_10 H 0.905885 0.624892 0.477153
H27_10 H 0.879921 0.667812 0.481494
C28_10 C 0.8195(4) 0.7201(4) 0.2820(4)
C29_10 C 0.7176(4) 0.6734(5) 0.2177(4)
C30_8 C 0.6520(7) 0.4281(5) 0.2662(5)
C31_8 C 0.7017(7) 0.4338(6) 0.2658(5)
H28_8 H 0.710574 0.448421 0.291779
H29_10 H 0.709894 0.450428 0.240828
H30_8 H 0.715207 0.406164 0.264486
C32_8 C 0.6386(8) 0.4077(6) 0.3098(5)
H31_8 H 0.662660 0.392902 0.322223
H32_8 H 0.615602 0.387757 0.304919
H33_8 H 0.629156 0.429781 0.329382
C33_10 C 0.6394(7) 0.4008(5) 0.2306(5)
H34_10 H 0.653027 0.373130 0.234706
H35_10 H 0.608655 0.396317 0.232536
C34_10 C 0.6675(5) 0.3887(5) 0.1651(5)
H36_10 H 0.675379 0.363026 0.178410
C35_10 C 0.6787(5) 0.3935(4) 0.1189(4)
C36_10 C 0.6993(5) 0.3617(5) 0.0979(5)
H37_10 H 0.708246 0.338718 0.114974
C37_10 C 0.7079(4) 0.3593(5) 0.0576(4)
C38_10 C 0.6938(5) 0.3940(4) 0.0298(4)
C39_10 C 0.6742(5) 0.4278(4) 0.0482(4)
C40_10 C 0.6667(5) 0.4299(5) 0.0923(5)
C41_10 C 0.6616(5) 0.4575(5) 0.0197(4)
H44_10 H 0.706007 0.541327 0.014924
C46_10 C 0.6336(6) 0.5907(5) 0.0240(4)
H48_10 H 0.602631 0.592554 0.021970
H49_10 H 0.645136 0.619279 0.019652
C47_10 C 0.6610(7) 0.6039(6) 0.0927(5)
H50_10 H 0.666730 0.630557 0.080325
C48_10 C 0.6716(4) 0.5998(4) 0.1380(4)
C49_10 C 0.6910(4) 0.6327(5) 0.1561(4)
H51_10 H 0.699997 0.655416 0.138632
C50_10 C 0.6983(5) 0.6345(5) 0.1991(4)
C51_10 C 0.6856(5) 0.6005(5) 0.2250(4)
H52_10 H 0.689159 0.602253 0.255032
C52_10 C 0.6687(5) 0.5661(5) 0.2080(4)
C53_10 C 0.6615(5) 0.5649(5) 0.1621(4)
C54_10 C 0.6547(5) 0.5344(5) 0.2370(4)
H53_10 H 0.652739 0.542373 0.266142
C55_8 C 0.6310(8) 0.4712(5) 0.2656(5)
H54_8 H 0.600118 0.467507 0.264589
H55_8 H 0.638015 0.486333 0.292207
C56_10 C 0.7291(4) 0.3230(4) 0.0373(4)
In3_4 In 0.75690(3) 0.25335(3) 0.00095(3)
O13_4 O 0.7678(3) 0.8108(3) 0.2562(3)
O14_4 O 0.7593(3) 0.7844(3) 0.1936(3)
H56_10 H 0.990773 0.68105 0.528636
O12_4 O 0.7336(3) 0.3204(3) 0.9971(3)
H38_10 H 0.698205 0.392970 0.999931
H39_10 H 0.666500 0.451055 0.990585
C42_10 C 0.6307(6) 0.5186(5) 0.9905(4)
H40_10 H 0.599634 0.520589 0.990231
H41_10 H 0.639436 0.503641 0.964279
C43_10 C 0.6491(6) 0.5631(5) 0.9896(5)
C44_10 C 0.6977(6) 0.5588(6) 0.9906(5)
H42_10 H 0.710475 0.586749 0.993442
H43_10 H 0.707412 0.545677 0.964139
C45_10 C 0.6388(8) 0.5846(6) 0.9470(5)
H45_10 H 0.621113 0.609342 0.952167
H46_10 H 0.623667 0.564820 0.928537
H47_10 H 0.664904 0.593330 0.932982
Cu3_11 Cu 0.02625(6) 0.35744(7) 0.92124(5)
O10_11 O 0.0394(3) 0.3552(3) 0.8604(3)
O11_5 O 0.2069(3) 0.2580(3) 0.8118(3)
O12_5 O 0.1796(3) 0.2664(3) 0.7471(3)
N5_11 N 0.0031(4) 0.3554(5) 0.9784(4)
N7_11 N 0.0059(4) 0.3564(4) 0.7772(3)
N8_11 N 0.0850(4) 0.3511(5) 0.9379(4)
H29_11 H 0.049572 0.290106 0.990828
C33_11 C 0.0992(5) 0.3606(7) 0.9806(5)
H34_11 H 0.126870 0.346973 0.984706
H35_11 H 0.103683 0.391345 0.982536
C34_11 C 0.1113(5) 0.3325(5) 0.9151(5)
H36_11 H 0.136974 0.324621 0.928410
C35_11 C 0.1065(4) 0.3213(5) 0.8689(4)
C36_11 C 0.1383(5) 0.3007(5) 0.8479(5)
H37_11 H 0.161282 0.291754 0.864974
C37_11 C 0.1407(5) 0.2921(4) 0.8076(4)
C38_11 C 0.1060(4) 0.3062(5) 0.7798(4)
H38_11 H 0.107030 0.301795 0.749931
C39_11 C 0.0722(4) 0.3258(5) 0.7982(4)
C40_11 C 0.0701(5) 0.3333(5) 0.8423(5)
C41_11 C 0.0425(5) 0.3384(5) 0.7697(4)
H39_11 H 0.048945 0.333500 0.740585
C56_11 C 0.1770(4) 0.2709(4) 0.7873(4)
Cu1_11 Cu 0.83649(7) 0.01775(6) 0.16815(5)
O2_11 O 0.8331(4) 0.0304(3) 0.1070(3)
O5_11 O 0.7702(3) 0.2099(3) 0.0557(3)
O7_11 O 0.8230(3) 0.2797(3) 0.0088(3)
N4_11 N 0.8303(6) 0.0757(4) 0.1850(4)
C1_11 C 0.8299(9) 0.0622(5) 0.2641(5)
C2_11 C 0.8401(10) 0.0860(7) 0.3056(5)
H1_11 H 0.870631 0.086855 0.309707
H2_11 H 0.829128 0.114709 0.303783
H3_11 H 0.826992 0.071440 0.329732
C3_11 C 0.7821(9) 0.0594(8) 0.2618(6)
H4_11 H 0.770192 0.087733 0.259265
H5_11 H 0.773900 0.042625 0.236970
H6_11 H 0.771335 0.046029 0.287782
C4_11 C 0.8456(6) 0.0210(5) 0.2604(5)
H7_11 H 0.864332 0.010297 0.281379
C18_11 C 0.8253(5) 0.0339(5) 0.0153(4)
C19_11 C 0.8156(5) 0.0678(5) 0.0438(4)
C20_11 C 0.8026(5) 0.1050(4) 0.0261(4)
C21_11 C 0.7924(4) 0.1418(4) 0.0508(4)
C22_11 C 0.7985(4) 0.1365(4) 0.0936(4)
H24_11 H 0.792771 0.160137 0.111167
C23_11 C 0.8118(5) 0.1016(5) 0.1133(4)
C24_11 C 0.8221(5) 0.0626(5) 0.0881(4)
C25_11 C 0.8159(7) 0.1046(6) 0.1607(5)
H25_11 H 0.807214 0.130050 0.173752
C26_11 C 0.8441(9) 0.0917(6) 0.2269(5)
H26_11 H 0.875108 0.094115 0.227153
H27_11 H 0.832188 0.120079 0.231494
C28_11 C 0.7799(4) 0.1805(4) 0.0320(4)
H52_11 H 0.897747 0.310841 0.005032
H53_11 H 0.957627 0.347261 0.016142
O13_5 O 0.6892(3) 0.2322(3) 0.0062(3)
H56_11 H 0.81895 0.00922678 0.278636
Cu4_11 Cu 0.98283(6) 0.35882(7) 0.83402(5)
O6_11 O 0.7792(3) 0.1859(3) 0.9912(3)
O8_11 O 0.7987(3) 0.2689(3) 0.9434(3)
O9_11 O 0.9690(3) 0.3577(3) 0.8943(3)
N6_11 N 0.9238(4) 0.3550(4) 0.8173(3)
H22_11 H 0.823378 0.040627 0.985905
H23_11 H 0.800153 0.106620 0.996001
C29_11 C 0.8266(5) 0.2824(4) 0.9677(4)
C42_11 C 0.9814(5) 0.3693(6) 0.7405(4)
H40_11 H 0.979411 0.400366 0.740231
H41_11 H 0.996359 0.360564 0.714279
C43_11 C 0.9369(5) 0.3509(6) 0.7396(5)
C44_11 C 0.9412(6) 0.3023(6) 0.7406(5)
H42_11 H 0.913251 0.289525 0.743442
H43_11 H 0.954323 0.292588 0.714139
H44_11 H 0.958673 0.293993 0.764924
C45_11 C 0.9154(6) 0.3612(8) 0.6970(5)
H45_11 H 0.890658 0.378887 0.702167
H46_11 H 0.935180 0.376333 0.678537
H47_11 H 0.906670 0.335096 0.682982
C46_11 C 0.9093(5) 0.3664(6) 0.7740(4)
H48_11 H 0.907446 0.397369 0.771970
H49_11 H 0.880721 0.354864 0.769652
C47_11 C 0.8961(6) 0.3390(7) 0.8427(5)
H50_11 H 0.869443 0.333270 0.830325
C48_11 C 0.9002(4) 0.3284(4) 0.8880(4)
C49_11 C 0.8673(5) 0.3090(4) 0.9061(4)
H51_11 H 0.844584 0.300003 0.888632
C50_11 C 0.8655(5) 0.3017(5) 0.9491(4)
C51_11 C 0.8995(5) 0.3144(5) 0.9750(4)
C52_11 C 0.9339(5) 0.3313(5) 0.9580(4)
C53_11 C 0.9351(5) 0.3385(5) 0.9121(4)
C54_11 C 0.9656(5) 0.3453(5) 0.9870(4)
O14_5 O 0.7156(3) 0.2407(3) 0.9436(3)
Cu2_11 Cu 0.83540(7) 0.97382(5) 0.08076(5)
O1_11 O 0.8314(3) 0.9614(3) 0.1418(2)
N1_11 N 0.8338(5) 0.9959(4) 0.2260(4)
N2_11 N 0.8279(5) 0.9144(4) 0.0632(3)
N3_11 N 0.8356(4) 0.9975(4) 0.0230(3)
C5_11 C 0.8224(5) 0.9584(5) 0.2342(4)
H8_11 H 0.821894 0.951168 0.263592
C6_11 C 0.8100(5) 0.9245(4) 0.2048(4)
C7_11 C 0.7948(4) 0.8891(4) 0.2228(4)
H9_11 H 0.791708 0.887699 0.252841
C8_11 C 0.7832(4) 0.8535(4) 0.1975(4)
C9_11 C 0.7905(4) 0.8573(4) 0.1537(4)
H10_11 H 0.783449 0.834014 0.136155
C10_11 C 0.8069(5) 0.8916(4) 0.1347(4)
C11_11 C 0.8168(5) 0.9280(4) 0.1597(4)
C12_11 C 0.8131(5) 0.8879(4) 0.0882(4)
H11_11 H 0.804736 0.861914 0.075839
C13_11 C 0.8403(6) 0.8991(5) 0.0219(4)
H12_11 H 0.871265 0.895577 0.021563
H13_11 H 0.827582 0.871065 0.017396
H16_11 H 0.768132 0.925243 0.012374
C27_11 C 0.7694(4) 0.8156(4) 0.2161(4)
C1_12 C 0.4378(5) 0.1701(9) 0.0141(5)
C2_12 C 0.4140(7) 0.1599(10) 0.0556(5)
H1_12 H 0.413145 0.129369 0.059707
H2_12 H 0.385291 0.170872 0.053783
H3_12 H 0.428560 0.173008 0.079732
C3_12 C 0.4406(8) 0.2179(9) 0.0118(6)
H4_12 H 0.412267 0.229808 0.009265
H6_12 H 0.453971 0.228665 0.037782
C4_12 C 0.4790(5) 0.1544(6) 0.0104(5)
H7_12 H 0.489703 0.135668 0.031379
H8_12 H 0.548832 0.178106 0.013592
H9_12 H 0.612301 0.208292 0.002841
H56_12 H 0.490773 0.18105 0.028636
Cu1_12 Cu 0.48225(6) 0.16351(7) 0.91815(5)
Cu2_12 Cu 0.52618(5) 0.16460(7) 0.83076(5)
Cu4_12 Cu 0.14118(7) 0.01717(6) 0.58402(5)
O1_12 O 0.5386(3) 0.1686(3) 0.8918(2)
O2_12 O 0.4696(3) 0.1669(4) 0.8570(3)
O5_12 O 0.2901(3) 0.2298(3) 0.8057(3)
O6_12 O 0.3141(3) 0.2208(3) 0.7412(3)
O7_12 O 0.2203(3) 0.1770(3) 0.7588(3)
O8_12 O 0.2311(3) 0.2013(3) 0.6934(3)
O9_12 O 0.1423(3) 0.0310(3) 0.6443(3)
N1_12 N 0.5041(4) 0.1662(5) 0.9760(4)
N2_12 N 0.5856(4) 0.1721(5) 0.8132(3)
N3_12 N 0.5025(4) 0.1644(4) 0.7730(3)
N4_12 N 0.4243(4) 0.1697(6) 0.9350(4)
N6_12 N 0.1450(4) 0.0762(4) 0.5673(3)
H5_12 H 0.457375 0.226100 0.986970
C5_12 C 0.5416(5) 0.1776(5) 0.9842(4)
C6_12 C 0.5755(4) 0.1900(5) 0.9548(4)
C7_12 C 0.6109(4) 0.2052(4) 0.9728(4)
C8_12 C 0.6465(4) 0.2168(4) 0.9475(4)
C9_12 C 0.6427(4) 0.2095(4) 0.9037(4)
H10_12 H 0.665986 0.216551 0.886155
C10_12 C 0.6084(4) 0.1931(5) 0.8847(4)
C11_12 C 0.5720(4) 0.1832(5) 0.9097(4)
C12_12 C 0.6121(4) 0.1869(5) 0.8382(4)
H11_12 H 0.638086 0.195264 0.825839
C13_12 C 0.6009(5) 0.1597(6) 0.7719(4)
H12_12 H 0.604423 0.128735 0.771563
H13_12 H 0.628935 0.172418 0.767396
C14_9 C 0.5723(4) 0.1723(6) 0.7352(4)
C15_9 C 0.5657(6) 0.2201(7) 0.7350(5)
H14_9 H 0.535886 0.226420 0.730460
H15_9 H 0.582367 0.232680 0.711972
H16_12 H 0.574757 0.231868 0.762374
C16_9 C 0.5917(5) 0.1594(7) 0.6937(4)
H17_9 H 0.616353 0.177008 0.687946
H18_9 H 0.571165 0.162819 0.670713
H19_9 H 0.600388 0.129848 0.695359
C17_9 C 0.5295(5) 0.1504(7) 0.7372(5)
H20_9 H 0.514398 0.155568 0.710146
H21_9 H 0.534097 0.119757 0.739767
C18_12 C 0.4661(5) 0.1747(5) 0.7653(4)
H22_12 H 0.459373 0.176622 0.735905
C19_12 C 0.4322(5) 0.1844(5) 0.7938(4)
C20_12 C 0.3950(4) 0.1974(5) 0.7761(4)
H23_12 H 0.393380 0.199847 0.746001
C21_12 C 0.3582(4) 0.2076(4) 0.8008(4)
C22_12 C 0.3635(4) 0.2015(4) 0.8436(4)
H24_12 H 0.339863 0.207229 0.861167
C23_12 C 0.3984(5) 0.1882(5) 0.8633(4)
C24_12 C 0.4374(5) 0.1779(5) 0.8381(4)
C25_12 C 0.3954(6) 0.1841(7) 0.9107(5)
H25_12 H 0.369950 0.192786 0.923752
C26_12 C 0.4083(6) 0.1559(9) 0.9769(5)
H26_12 H 0.405885 0.124892 0.977153
H27_12 H 0.379921 0.167812 0.981494
C27_12 C 0.6844(4) 0.2306(4) 0.9661(4)
C28_12 C 0.3195(4) 0.2201(4) 0.7820(4)
C29_12 C 0.2176(4) 0.1734(5) 0.7177(4)
C42_12 C 0.1307(6) 0.0186(5) 0.4905(4)
H40_12 H 0.099634 0.020589 0.490231
H41_12 H 0.139436 0.003641 0.464279
C43_12 C 0.1491(6) 0.0631(5) 0.4896(5)
C44_12 C 0.1977(6) 0.0588(6) 0.4906(5)
H42_12 H 0.210475 0.086749 0.493442
H43_12 H 0.207412 0.045677 0.464139
H44_12 H 0.206007 0.041327 0.514924
C45_12 C 0.1388(8) 0.0846(6) 0.4470(5)
H45_12 H 0.121113 0.109342 0.452167
H46_12 H 0.123667 0.064820 0.428537
H47_12 H 0.164904 0.093330 0.432982
C46_12 C 0.1336(6) 0.0907(5) 0.5240(4)
H48_12 H 0.102631 0.092554 0.521970
H49_12 H 0.145136 0.119279 0.519652
C47_12 C 0.1610(7) 0.1039(6) 0.5927(5)
H50_12 H 0.166730 0.130557 0.580325
C48_12 C 0.1716(4) 0.0998(4) 0.6380(4)
C49_12 C 0.1910(4) 0.1327(5) 0.6561(4)
H51_12 H 0.199997 0.155416 0.638632
C50_12 C 0.1983(5) 0.1345(5) 0.6991(4)
C51_12 C 0.1856(5) 0.1005(5) 0.7250(4)
H52_12 H 0.189159 0.102253 0.755032
C52_12 C 0.1687(5) 0.0661(5) 0.7080(4)
C53_12 C 0.1615(5) 0.0649(5) 0.6621(4)
C54_12 C 0.1547(5) 0.0344(5) 0.7370(4)
H53_12 H 0.152739 0.042373 0.766142
Cu3_12 Cu 0.14256(7) 0.97375(6) 0.67124(5)
O10_12 O 0.1448(3) 0.9606(3) 0.6104(3)
N5_12 N 0.1446(5) 0.9969(4) 0.7284(4)
N7_12 N 0.1436(4) 0.9941(4) 0.5272(3)
N8_12 N 0.1489(5) 0.9150(4) 0.6879(4)
C30_9 C 0.1520(7) 0.9281(5) 0.7662(5)
C31_9 C 0.2017(7) 0.9338(6) 0.7658(5)
H28_9 H 0.210574 0.948421 0.791779
H29_12 H 0.209894 0.950428 0.740828
H30_9 H 0.215207 0.906164 0.764486
C32_9 C 0.1386(8) 0.9077(6) 0.8098(5)
H31_9 H 0.162660 0.892902 0.822223
H32_9 H 0.115602 0.887757 0.804919
H33_9 H 0.129156 0.929781 0.829382
C33_12 C 0.1394(7) 0.9008(5) 0.7306(5)
H34_12 H 0.153027 0.873130 0.734706
H35_12 H 0.108655 0.896317 0.732536
C34_12 C 0.1675(5) 0.8887(5) 0.6651(5)
H36_12 H 0.175379 0.863026 0.678410
C35_12 C 0.1787(5) 0.8935(4) 0.6189(4)
C36_12 C 0.1993(5) 0.8617(5) 0.5979(5)
H37_12 H 0.208246 0.838718 0.614974
C37_12 C 0.2079(4) 0.8593(5) 0.5576(4)
C38_12 C 0.1938(5) 0.8940(4) 0.5298(4)
H38_12 H 0.198205 0.892970 0.499931
C39_12 C 0.1742(5) 0.9278(4) 0.5482(4)
C40_12 C 0.1667(5) 0.9299(5) 0.5923(5)
C41_12 C 0.1616(5) 0.9575(5) 0.5197(4)
H39_12 H 0.166500 0.951055 0.490585
C55_9 C 0.1310(8) 0.9712(5) 0.7656(5)
H54_9 H 0.100118 0.967507 0.764589
H55_9 H 0.138015 0.986333 0.792207
C56_12 C 0.2291(4) 0.8230(4) 0.5373(4)
In1_4 In 0.74310(3) 0.24665(3) 0.50095(3)
Cu1_13 Cu 0.66351(7) 0.48225(6) 0.66815(5)
Cu2_13 Cu 0.66460(7) 0.52618(5) 0.58076(5)
Cu3_13 Cu 0.47375(6) 0.14256(7) 0.42124(5)
Cu4_13 Cu 0.51717(6) 0.14118(7) 0.33402(5)
O1_13 O 0.6686(3) 0.5386(3) 0.6418(2)
O2_13 O 0.6669(4) 0.4696(3) 0.6070(3)
O3_8 O 0.7322(3) 0.6892(3) 0.7562(3)
O4_8 O 0.7407(3) 0.7156(3) 0.6936(3)
O5_13 O 0.7298(3) 0.2901(3) 0.5557(3)
O6_13 O 0.7208(3) 0.3141(3) 0.4912(3)
O7_13 O 0.6770(3) 0.2203(3) 0.5088(3)
O8_13 O 0.7013(3) 0.2311(3) 0.4434(3)
O9_13 O 0.5310(3) 0.1423(3) 0.3943(3)
O10_13 O 0.4606(3) 0.1448(3) 0.3604(3)
O11_6 O 0.2931(3) 0.2420(3) 0.3118(3)
O12_6 O 0.3204(3) 0.2336(3) 0.2471(3)
N1_13 N 0.6662(5) 0.5041(4) 0.7260(4)
N2_13 N 0.6721(5) 0.5856(4) 0.5632(3)
N3_13 N 0.6644(4) 0.5025(4) 0.5230(3)
N4_13 N 0.6697(6) 0.4243(4) 0.6850(4)
N5_13 N 0.4969(4) 0.1446(5) 0.4784(4)
N6_13 N 0.5762(4) 0.1450(4) 0.3173(3)
N7_13 N 0.4941(4) 0.1436(4) 0.2772(3)
N8_13 N 0.4150(4) 0.1489(5) 0.4379(4)
C1_13 C 0.6701(9) 0.4378(5) 0.7641(5)
C2_13 C 0.6599(10) 0.4140(7) 0.8056(5)
H1_13 H 0.629369 0.413145 0.809707
H2_13 H 0.670872 0.385291 0.803783
H3_13 H 0.673008 0.428560 0.829732
C3_13 C 0.7179(9) 0.4406(8) 0.7618(6)
H4_13 H 0.729808 0.412267 0.759265
H5_13 H 0.726100 0.457375 0.736970
H6_13 H 0.728665 0.453971 0.787782
C4_13 C 0.6544(6) 0.4790(5) 0.7604(5)
H7_13 H 0.635668 0.489703 0.781379
C5_13 C 0.6776(5) 0.5416(5) 0.7342(4)
H8_13 H 0.678106 0.548832 0.763592
C6_13 C 0.6900(5) 0.5755(4) 0.7048(4)
C7_13 C 0.7052(4) 0.6109(4) 0.7228(4)
H9_13 H 0.708292 0.612301 0.752841
C8_13 C 0.7168(4) 0.6465(4) 0.6975(4)
C9_13 C 0.7095(4) 0.6427(4) 0.6537(4)
H10_13 H 0.716551 0.665986 0.636155
C10_13 C 0.6931(5) 0.6084(4) 0.6347(4)
C11_13 C 0.6832(5) 0.5720(4) 0.6597(4)
C12_13 C 0.6869(5) 0.6121(4) 0.5882(4)
H11_13 H 0.695264 0.638086 0.575839
C13_13 C 0.6597(6) 0.6009(5) 0.5219(4)
H12_13 H 0.628735 0.604423 0.521563
H13_13 H 0.672418 0.628935 0.517396
C14_10 C 0.6723(6) 0.5723(4) 0.4852(4)
C15_10 C 0.7201(7) 0.5657(6) 0.4850(5)
H14_10 H 0.726420 0.535886 0.480460
H15_10 H 0.732680 0.582367 0.461972
H16_13 H 0.731868 0.574757 0.512374
C16_10 C 0.6594(7) 0.5917(5) 0.4437(4)
H17_10 H 0.677008 0.616353 0.437946
H18_10 H 0.662819 0.571165 0.420713
H19_10 H 0.629848 0.600388 0.445359
C17_10 C 0.6504(7) 0.5295(5) 0.4872(5)
H20_10 H 0.655568 0.514398 0.460146
H21_10 H 0.619757 0.534097 0.489767
C18_13 C 0.6747(5) 0.4661(5) 0.5153(4)
H22_13 H 0.676622 0.459373 0.485905
C19_13 C 0.6844(5) 0.4322(5) 0.5438(4)
C20_13 C 0.6974(5) 0.3950(4) 0.5261(4)
H23_13 H 0.699847 0.393380 0.496001
C21_13 C 0.7076(4) 0.3582(4) 0.5508(4)
C22_13 C 0.7015(4) 0.3635(4) 0.5936(4)
H24_13 H 0.707229 0.339863 0.611167
C23_13 C 0.6882(5) 0.3984(5) 0.6133(4)
C24_13 C 0.6779(5) 0.4374(5) 0.5881(4)
C25_13 C 0.6841(7) 0.3954(6) 0.6607(5)
H25_13 H 0.692786 0.369950 0.673752
C26_13 C 0.6559(9) 0.4083(6) 0.7269(5)
H26_13 H 0.624892 0.405885 0.727153
H27_13 H 0.667812 0.379921 0.731494
C27_13 C 0.7306(4) 0.6844(4) 0.7161(4)
C28_13 C 0.7201(4) 0.3195(4) 0.5320(4)
C29_13 C 0.6734(5) 0.2176(4) 0.4677(4)
C30_10 C 0.4281(5) 0.1520(7) 0.5162(5)
C31_10 C 0.4338(6) 0.2017(7) 0.5158(5)
H28_10 H 0.448421 0.210574 0.541779
H29_13 H 0.450428 0.209894 0.490828
H30_10 H 0.406164 0.215207 0.514486
C32_10 C 0.4077(6) 0.1386(8) 0.5598(5)
H31_10 H 0.392902 0.162660 0.572223
H32_10 H 0.387757 0.115602 0.554919
H33_10 H 0.429781 0.129156 0.579382
C33_13 C 0.4008(5) 0.1394(7) 0.4806(5)
H34_13 H 0.373130 0.153027 0.484706
H35_13 H 0.396317 0.108655 0.482536
C34_13 C 0.3887(5) 0.1675(5) 0.4151(5)
H36_13 H 0.363026 0.175379 0.428410
C35_13 C 0.3935(4) 0.1787(5) 0.3689(4)
C36_13 C 0.3617(5) 0.1993(5) 0.3479(5)
H37_13 H 0.338718 0.208246 0.364974
C37_13 C 0.3593(5) 0.2079(4) 0.3076(4)
C38_13 C 0.3940(4) 0.1938(5) 0.2798(4)
H38_13 H 0.392970 0.198205 0.249931
C39_13 C 0.4278(4) 0.1742(5) 0.2982(4)
C40_13 C 0.4299(5) 0.1667(5) 0.3423(5)
C41_13 C 0.4575(5) 0.1616(5) 0.2697(4)
H39_13 H 0.451055 0.166500 0.240585
C42_13 C 0.5186(5) 0.1307(6) 0.2405(4)
H40_13 H 0.520589 0.099634 0.240231
H41_13 H 0.503641 0.139436 0.214279
C43_13 C 0.5631(5) 0.1491(6) 0.2396(5)
C44_13 C 0.5588(6) 0.1977(6) 0.2406(5)
H42_13 H 0.586749 0.210475 0.243442
H43_13 H 0.545677 0.207412 0.214139
H44_13 H 0.541327 0.206007 0.264924
C45_13 C 0.5846(6) 0.1388(8) 0.1970(5)
H45_13 H 0.609342 0.121113 0.202167
H46_13 H 0.564820 0.123667 0.178537
H47_13 H 0.593330 0.164904 0.182982
C46_13 C 0.5907(5) 0.1336(6) 0.2740(4)
H48_13 H 0.592554 0.102631 0.271970
H49_13 H 0.619279 0.145136 0.269652
C47_13 C 0.6039(6) 0.1610(7) 0.3427(5)
H50_13 H 0.630557 0.166730 0.330325
C48_13 C 0.5998(4) 0.1716(4) 0.3880(4)
C49_13 C 0.6327(5) 0.1910(4) 0.4061(4)
H51_13 H 0.655416 0.199997 0.388632
C50_13 C 0.6345(5) 0.1983(5) 0.4491(4)
C51_13 C 0.6005(5) 0.1856(5) 0.4750(4)
H52_13 H 0.602253 0.189159 0.505032
C52_13 C 0.5661(5) 0.1687(5) 0.4580(4)
C53_13 C 0.5649(5) 0.1615(5) 0.4121(4)
C54_13 C 0.5344(5) 0.1547(5) 0.4870(4)
H53_13 H 0.542373 0.152739 0.516142
C55_10 C 0.4712(5) 0.1310(8) 0.5156(5)
H54_10 H 0.467507 0.100118 0.514589
H55_10 H 0.486333 0.138015 0.542207
C56_13 C 0.3230(4) 0.2291(4) 0.2873(4)
In2_6 In 0.75335(3) 0.75690(3) 0.75095(3)
In3_5 In 0.25335(3) 0.25690(3) 0.25095(3)
O13_6 O 0.8108(3) 0.2678(3) 0.5062(3)
O14_6 O 0.7844(3) 0.2593(3) 0.4436(3)
O15_8 O 0.7580(3) 0.2069(3) 0.5618(3)
O16_8 O 0.7664(3) 0.1796(3) 0.4971(3)
H56_13 H 0.68105 0.490773 0.778636
Cu1_14 Cu 0.01775(6) 0.33649(7) 0.41815(5)
Cu3_14 Cu 0.35744(7) 0.52625(6) 0.17124(5)
Cu4_14 Cu 0.35882(7) 0.48283(6) 0.08402(5)
O2_14 O 0.0304(3) 0.3331(4) 0.3570(3)
O5_14 O 0.2099(3) 0.2702(3) 0.3057(3)
O6_14 O 0.1859(3) 0.2792(3) 0.2412(3)
O7_14 O 0.2797(3) 0.3230(3) 0.2588(3)
O8_14 O 0.2689(3) 0.2987(3) 0.1934(3)
O9_14 O 0.3577(3) 0.4690(3) 0.1443(3)
O10_14 O 0.3552(3) 0.5394(3) 0.1104(3)
O11_7 O 0.2580(3) 0.7069(3) 0.0618(3)
N4_14 N 0.0757(4) 0.3303(6) 0.4350(4)
N5_14 N 0.3554(5) 0.5031(4) 0.2284(4)
N6_14 N 0.3550(4) 0.4238(4) 0.0673(3)
N7_14 N 0.3564(4) 0.5059(4) 0.0272(3)
N8_14 N 0.3511(5) 0.5850(4) 0.1879(4)
C1_14 C 0.0622(5) 0.3299(9) 0.5141(5)
C2_14 C 0.0860(7) 0.3401(10) 0.5556(5)
H1_14 H 0.086855 0.370631 0.559707
H2_14 H 0.114709 0.329128 0.553783
H3_14 H 0.071440 0.326992 0.579732
C3_14 C 0.0594(8) 0.2821(9) 0.5118(6)
H4_14 H 0.087733 0.270192 0.509265
H5_14 H 0.042625 0.273900 0.486970
H6_14 H 0.046029 0.271335 0.537782
C4_14 C 0.0210(5) 0.3456(6) 0.5104(5)
H7_14 H 0.010297 0.364332 0.531379
C18_14 C 0.0339(5) 0.3253(5) 0.2653(4)
H22_14 H 0.040627 0.323378 0.235905
C19_14 C 0.0678(5) 0.3156(5) 0.2938(4)
C20_14 C 0.1050(4) 0.3026(5) 0.2761(4)
H23_14 H 0.106620 0.300153 0.246001
C21_14 C 0.1418(4) 0.2924(4) 0.3008(4)
C22_14 C 0.1365(4) 0.2985(4) 0.3436(4)
H24_14 H 0.160137 0.292771 0.361167
C23_14 C 0.1016(5) 0.3118(5) 0.3633(4)
C24_14 C 0.0626(5) 0.3221(5) 0.3381(4)
C25_14 C 0.1046(6) 0.3159(7) 0.4107(5)
H25_14 H 0.130050 0.307214 0.423752
C26_14 C 0.0917(6) 0.3441(9) 0.4769(5)
H26_14 H 0.094115 0.375108 0.477153
H27_14 H 0.120079 0.332188 0.481494
C28_14 C 0.1805(4) 0.2799(4) 0.2820(4)
C29_14 C 0.2824(4) 0.3266(5) 0.2177(4)
C30_11 C 0.3480(7) 0.5719(5) 0.2662(5)
C31_11 C 0.2983(7) 0.5662(6) 0.2658(5)
H28_11 H 0.289426 0.551579 0.291779
H29_14 H 0.290106 0.549572 0.240828
H30_11 H 0.284793 0.593836 0.264486
C32_11 C 0.3614(8) 0.5923(6) 0.3098(5)
H31_11 H 0.337340 0.607098 0.322223
H32_11 H 0.384398 0.612243 0.304919
H33_11 H 0.370844 0.570219 0.329382
C33_14 C 0.3606(7) 0.5992(5) 0.2306(5)
H34_14 H 0.346973 0.626870 0.234706
H35_14 H 0.391345 0.603683 0.232536
C34_14 C 0.3325(5) 0.6113(5) 0.1651(5)
H36_14 H 0.324621 0.636974 0.178410
C35_14 C 0.3213(5) 0.6065(4) 0.1189(4)
C36_14 C 0.3007(5) 0.6383(5) 0.0979(5)
H37_14 H 0.291754 0.661282 0.114974
C37_14 C 0.2921(4) 0.6407(5) 0.0576(4)
C38_14 C 0.3062(5) 0.6060(4) 0.0298(4)
C39_14 C 0.3258(5) 0.5722(4) 0.0482(4)
C40_14 C 0.3333(5) 0.5701(5) 0.0923(5)
C41_14 C 0.3384(5) 0.5425(5) 0.0197(4)
H44_14 H 0.293993 0.458673 0.014924
C46_14 C 0.3664(6) 0.4093(5) 0.0240(4)
H48_14 H 0.397369 0.407446 0.021970
H49_14 H 0.354864 0.380721 0.019652
C47_14 C 0.3390(7) 0.3961(6) 0.0927(5)
H50_14 H 0.333270 0.369443 0.080325
C48_14 C 0.3284(4) 0.4002(4) 0.1380(4)
C49_14 C 0.3090(4) 0.3673(5) 0.1561(4)
H51_14 H 0.300003 0.344584 0.138632
C50_14 C 0.3017(5) 0.3655(5) 0.1991(4)
C51_14 C 0.3144(5) 0.3995(5) 0.2250(4)
H52_14 H 0.310841 0.397747 0.255032
C52_14 C 0.3313(5) 0.4339(5) 0.2080(4)
C53_14 C 0.3385(5) 0.4351(5) 0.1621(4)
C54_14 C 0.3453(5) 0.4656(5) 0.2370(4)
H53_14 H 0.347261 0.457627 0.266142
C55_11 C 0.3690(8) 0.5288(5) 0.2656(5)
H54_11 H 0.399882 0.532493 0.264589
H55_11 H 0.361985 0.513667 0.292207
C56_14 C 0.2709(4) 0.6770(4) 0.0373(4)
In3_6 In 0.24310(3) 0.74665(3) 0.00095(3)
O13_7 O 0.2322(3) 0.1892(3) 0.2562(3)
O14_7 O 0.2407(3) 0.2156(3) 0.1936(3)
H56_14 H 0.00922678 0.31895 0.528636
O12_7 O 0.2664(3) 0.6796(3) 0.9971(3)
H38_14 H 0.301795 0.607030 0.999931
H39_14 H 0.333500 0.548945 0.990585
C42_14 C 0.3693(6) 0.4814(5) 0.9905(4)
H40_14 H 0.400366 0.479411 0.990231
H41_14 H 0.360564 0.496359 0.964279
C43_14 C 0.3509(6) 0.4369(5) 0.9896(5)
C44_14 C 0.3023(6) 0.4412(6) 0.9906(5)
H42_14 H 0.289525 0.413251 0.993442
H43_14 H 0.292588 0.454323 0.964139
C45_14 C 0.3612(8) 0.4154(6) 0.9470(5)
H45_14 H 0.378887 0.390658 0.952167
H46_14 H 0.376333 0.435180 0.928537
H47_14 H 0.335096 0.406670 0.932982
Cu2_14 Cu 0.97382(5) 0.33540(7) 0.33076(5)
O1_14 O 0.9614(3) 0.3314(3) 0.3918(2)
N1_14 N 0.9959(4) 0.3338(5) 0.4760(4)
N2_14 N 0.9144(4) 0.3279(5) 0.3132(3)
N3_14 N 0.9975(4) 0.3356(4) 0.2730(3)
C5_14 C 0.9584(5) 0.3224(5) 0.4842(4)
H8_14 H 0.951168 0.321894 0.513592
C6_14 C 0.9245(4) 0.3100(5) 0.4548(4)
C7_14 C 0.8891(4) 0.2948(4) 0.4728(4)
H9_14 H 0.887699 0.291708 0.502841
C8_14 C 0.8535(4) 0.2832(4) 0.4475(4)
C9_14 C 0.8573(4) 0.2905(4) 0.4037(4)
H10_14 H 0.834014 0.283449 0.386155
C10_14 C 0.8916(4) 0.3069(5) 0.3847(4)
C11_14 C 0.9280(4) 0.3168(5) 0.4097(4)
C12_14 C 0.8879(4) 0.3131(5) 0.3382(4)
H11_14 H 0.861914 0.304736 0.325839
C13_14 C 0.8991(5) 0.3403(6) 0.2719(4)
H12_14 H 0.895577 0.371265 0.271563
H13_14 H 0.871065 0.327582 0.267396
C14_11 C 0.9277(4) 0.3277(6) 0.2352(4)
C15_11 C 0.9343(6) 0.2799(7) 0.2350(5)
H14_11 H 0.964114 0.273580 0.230460
H15_11 H 0.917633 0.267320 0.211972
H16_14 H 0.925243 0.268132 0.262374
C16_11 C 0.9083(5) 0.3406(7) 0.1937(4)
H17_11 H 0.883647 0.322992 0.187946
H18_11 H 0.928835 0.337181 0.170713
H19_11 H 0.899612 0.370152 0.195359
C17_11 C 0.9705(5) 0.3496(7) 0.2372(5)
H20_11 H 0.985602 0.344432 0.210146
H21_11 H 0.965903 0.380243 0.239767
C27_14 C 0.8156(4) 0.2694(4) 0.4661(4)
Cu2_15 Cu 0.16460(7) 0.02618(5) 0.08076(5)
O1_15 O 0.1686(3) 0.0386(3) 0.1418(2)
N1_15 N 0.1662(5) 0.0041(4) 0.2260(4)
N2_15 N 0.1721(5) 0.0856(4) 0.0632(3)
N3_15 N 0.1644(4) 0.0025(4) 0.0230(3)
C5_15 C 0.1776(5) 0.0416(5) 0.2342(4)
H8_15 H 0.178106 0.048832 0.263592
C6_15 C 0.1900(5) 0.0755(4) 0.2048(4)
C7_15 C 0.2052(4) 0.1109(4) 0.2228(4)
H9_15 H 0.208292 0.112301 0.252841
C8_15 C 0.2168(4) 0.1465(4) 0.1975(4)
C9_15 C 0.2095(4) 0.1427(4) 0.1537(4)
H10_15 H 0.216551 0.165986 0.136155
C10_15 C 0.1931(5) 0.1084(4) 0.1347(4)
C11_15 C 0.1832(5) 0.0720(4) 0.1597(4)
C12_15 C 0.1869(5) 0.1121(4) 0.0882(4)
H11_15 H 0.195264 0.138086 0.075839
C13_15 C 0.1597(6) 0.1009(5) 0.0219(4)
H12_15 H 0.128735 0.104423 0.021563
H13_15 H 0.172418 0.128935 0.017396
H16_15 H 0.231868 0.074757 0.012374
C27_15 C 0.2306(4) 0.1844(4) 0.2161(4)
Cu1_15 Cu 0.16351(7) 0.98225(6) 0.16815(5)
O2_15 O 0.1669(4) 0.9696(3) 0.1070(3)
O5_15 O 0.2298(3) 0.7901(3) 0.0557(3)
O7_15 O 0.1770(3) 0.7203(3) 0.0088(3)
N4_15 N 0.1697(6) 0.9243(4) 0.1850(4)
C1_15 C 0.1701(9) 0.9378(5) 0.2641(5)
C2_15 C 0.1599(10) 0.9140(7) 0.3056(5)
H1_15 H 0.129369 0.913145 0.309707
H2_15 H 0.170872 0.885291 0.303783
H3_15 H 0.173008 0.928560 0.329732
C3_15 C 0.2179(9) 0.9406(8) 0.2618(6)
H4_15 H 0.229808 0.912267 0.259265
H5_15 H 0.226100 0.957375 0.236970
H6_15 H 0.228665 0.953971 0.287782
C4_15 C 0.1544(6) 0.9790(5) 0.2604(5)
H7_15 H 0.135668 0.989703 0.281379
C18_15 C 0.1747(5) 0.9661(5) 0.0153(4)
C19_15 C 0.1844(5) 0.9322(5) 0.0438(4)
C20_15 C 0.1974(5) 0.8950(4) 0.0261(4)
C21_15 C 0.2076(4) 0.8582(4) 0.0508(4)
C22_15 C 0.2015(4) 0.8635(4) 0.0936(4)
H24_15 H 0.207229 0.839863 0.111167
C23_15 C 0.1882(5) 0.8984(5) 0.1133(4)
C24_15 C 0.1779(5) 0.9374(5) 0.0881(4)
C25_15 C 0.1841(7) 0.8954(6) 0.1607(5)
H25_15 H 0.192786 0.869950 0.173752
C26_15 C 0.1559(9) 0.9083(6) 0.2269(5)
H26_15 H 0.124892 0.905885 0.227153
H27_15 H 0.167812 0.879921 0.231494
C28_15 C 0.2201(4) 0.8195(4) 0.0320(4)
H52_15 H 0.102253 0.689159 0.005032
H53_15 H 0.042373 0.652739 0.016142
O13_8 O 0.3108(3) 0.7678(3) 0.0062(3)
H56_15 H 0.18105 0.990773 0.278636
Cu4_15 Cu 0.01717(6) 0.64118(7) 0.83402(5)
O6_15 O 0.2208(3) 0.8141(3) 0.9912(3)
O8_15 O 0.2013(3) 0.7311(3) 0.9434(3)
O9_15 O 0.0310(3) 0.6423(3) 0.8943(3)
N6_15 N 0.0762(4) 0.6450(4) 0.8173(3)
H22_15 H 0.176622 0.959373 0.985905
H23_15 H 0.199847 0.893380 0.996001
C29_15 C 0.1734(5) 0.7176(4) 0.9677(4)
C42_15 C 0.0186(5) 0.6307(6) 0.7405(4)
H40_15 H 0.020589 0.599634 0.740231
H41_15 H 0.003641 0.639436 0.714279
C43_15 C 0.0631(5) 0.6491(6) 0.7396(5)
C44_15 C 0.0588(6) 0.6977(6) 0.7406(5)
H42_15 H 0.086749 0.710475 0.743442
H43_15 H 0.045677 0.707412 0.714139
H44_15 H 0.041327 0.706007 0.764924
C45_15 C 0.0846(6) 0.6388(8) 0.6970(5)
H45_15 H 0.109342 0.621113 0.702167
H46_15 H 0.064820 0.623667 0.678537
H47_15 H 0.093330 0.664904 0.682982
C46_15 C 0.0907(5) 0.6336(6) 0.7740(4)
H48_15 H 0.092554 0.602631 0.771970
H49_15 H 0.119279 0.645136 0.769652
C47_15 C 0.1039(6) 0.6610(7) 0.8427(5)
H50_15 H 0.130557 0.666730 0.830325
C48_15 C 0.0998(4) 0.6716(4) 0.8880(4)
C49_15 C 0.1327(5) 0.6910(4) 0.9061(4)
H51_15 H 0.155416 0.699997 0.888632
C50_15 C 0.1345(5) 0.6983(5) 0.9491(4)
C51_15 C 0.1005(5) 0.6856(5) 0.9750(4)
C52_15 C 0.0661(5) 0.6687(5) 0.9580(4)
C53_15 C 0.0649(5) 0.6615(5) 0.9121(4)
C54_15 C 0.0344(5) 0.6547(5) 0.9870(4)
O14_8 O 0.2844(3) 0.7593(3) 0.9436(3)
Cu3_15 Cu 0.97375(6) 0.64256(7) 0.92124(5)
O10_15 O 0.9606(3) 0.6448(3) 0.8604(3)
O11_8 O 0.7931(3) 0.7420(3) 0.8118(3)
O12_8 O 0.8204(3) 0.7336(3) 0.7471(3)
N5_15 N 0.9969(4) 0.6446(5) 0.9784(4)
N7_15 N 0.9941(4) 0.6436(4) 0.7772(3)
N8_15 N 0.9150(4) 0.6489(5) 0.9379(4)
H29_15 H 0.950428 0.709894 0.990828
C33_15 C 0.9008(5) 0.6394(7) 0.9806(5)
H34_15 H 0.873130 0.653027 0.984706
H35_15 H 0.896317 0.608655 0.982536
C34_15 C 0.8887(5) 0.6675(5) 0.9151(5)
H36_15 H 0.863026 0.675379 0.928410
C35_15 C 0.8935(4) 0.6787(5) 0.8689(4)
C36_15 C 0.8617(5) 0.6993(5) 0.8479(5)
H37_15 H 0.838718 0.708246 0.864974
C37_15 C 0.8593(5) 0.7079(4) 0.8076(4)
C38_15 C 0.8940(4) 0.6938(5) 0.7798(4)
H38_15 H 0.892970 0.698205 0.749931
C39_15 C 0.9278(4) 0.6742(5) 0.7982(4)
C40_15 C 0.9299(5) 0.6667(5) 0.8423(5)
C41_15 C 0.9575(5) 0.6616(5) 0.7697(4)
H39_15 H 0.951055 0.666500 0.740585
C56_15 C 0.8230(4) 0.7291(4) 0.7873(4)
Cu3_16 Cu 0.85744(7) 0.02625(6) 0.67124(5)
O10_16 O 0.8552(3) 0.0394(3) 0.6104(3)
N5_16 N 0.8554(5) 0.0031(4) 0.7284(4)
N7_16 N 0.8564(4) 0.0059(4) 0.5272(3)
N8_16 N 0.8511(5) 0.0850(4) 0.6879(4)
C30_12 C 0.8480(7) 0.0719(5) 0.7662(5)
C31_12 C 0.7983(7) 0.0662(6) 0.7658(5)
H28_12 H 0.789426 0.051579 0.791779
H29_16 H 0.790106 0.049572 0.740828
H30_12 H 0.784793 0.093836 0.764486
C32_12 C 0.8614(8) 0.0923(6) 0.8098(5)
H31_12 H 0.837340 0.107098 0.822223
H32_12 H 0.884398 0.112243 0.804919
H33_12 H 0.870844 0.070219 0.829382
C33_16 C 0.8606(7) 0.0992(5) 0.7306(5)
H34_16 H 0.846973 0.126870 0.734706
H35_16 H 0.891345 0.103683 0.732536
C34_16 C 0.8325(5) 0.1113(5) 0.6651(5)
H36_16 H 0.824621 0.136974 0.678410
C35_16 C 0.8213(5) 0.1065(4) 0.6189(4)
C36_16 C 0.8007(5) 0.1383(5) 0.5979(5)
H37_16 H 0.791754 0.161282 0.614974
C37_16 C 0.7921(4) 0.1407(5) 0.5576(4)
C38_16 C 0.8062(5) 0.1060(4) 0.5298(4)
H38_16 H 0.801795 0.107030 0.499931
C39_16 C 0.8258(5) 0.0722(4) 0.5482(4)
C40_16 C 0.8333(5) 0.0701(5) 0.5923(5)
C41_16 C 0.8384(5) 0.0425(5) 0.5197(4)
H39_16 H 0.833500 0.048945 0.490585
C55_12 C 0.8690(8) 0.0288(5) 0.7656(5)
H54_12 H 0.899882 0.032493 0.764589
H55_12 H 0.861985 0.013667 0.792207
C56_16 C 0.7709(4) 0.1770(4) 0.5373(4)
C1_16 C 0.5622(5) 0.8299(9) 0.0141(5)
C2_16 C 0.5860(7) 0.8401(10) 0.0556(5)
H1_16 H 0.586855 0.870631 0.059707
H2_16 H 0.614709 0.829128 0.053783
H3_16 H 0.571440 0.826992 0.079732
C3_16 C 0.5594(8) 0.7821(9) 0.0118(6)
H4_16 H 0.587733 0.770192 0.009265
H6_16 H 0.546029 0.771335 0.037782
C4_16 C 0.5210(5) 0.8456(6) 0.0104(5)
H7_16 H 0.510297 0.864332 0.031379
H8_16 H 0.451168 0.821894 0.013592
H9_16 H 0.387699 0.791708 0.002841
H56_16 H 0.509227 0.81895 0.028636
Cu1_16 Cu 0.51775(6) 0.83649(7) 0.91815(5)
Cu2_16 Cu 0.47382(5) 0.83540(7) 0.83076(5)
Cu4_16 Cu 0.85882(7) 0.98283(6) 0.58402(5)
O1_16 O 0.4614(3) 0.8314(3) 0.8918(2)
O2_16 O 0.5304(3) 0.8331(4) 0.8570(3)
O5_16 O 0.7099(3) 0.7702(3) 0.8057(3)
O6_16 O 0.6859(3) 0.7792(3) 0.7412(3)
O7_16 O 0.7797(3) 0.8230(3) 0.7588(3)
O8_16 O 0.7689(3) 0.7987(3) 0.6934(3)
O9_16 O 0.8577(3) 0.9690(3) 0.6443(3)
N1_16 N 0.4959(4) 0.8338(5) 0.9760(4)
N2_16 N 0.4144(4) 0.8279(5) 0.8132(3)
N3_16 N 0.4975(4) 0.8356(4) 0.7730(3)
N4_16 N 0.5757(4) 0.8303(6) 0.9350(4)
N6_16 N 0.8550(4) 0.9238(4) 0.5673(3)
H5_16 H 0.542625 0.773900 0.986970
C5_16 C 0.4584(5) 0.8224(5) 0.9842(4)
C6_16 C 0.4245(4) 0.8100(5) 0.9548(4)
C7_16 C 0.3891(4) 0.7948(4) 0.9728(4)
C8_16 C 0.3535(4) 0.7832(4) 0.9475(4)
C9_16 C 0.3573(4) 0.7905(4) 0.9037(4)
H10_16 H 0.334014 0.783449 0.886155
C10_16 C 0.3916(4) 0.8069(5) 0.8847(4)
C11_16 C 0.4280(4) 0.8168(5) 0.9097(4)
C12_16 C 0.3879(4) 0.8131(5) 0.8382(4)
H11_16 H 0.361914 0.804736 0.825839
C13_16 C 0.3991(5) 0.8403(6) 0.7719(4)
H12_16 H 0.395577 0.871265 0.771563
H13_16 H 0.371065 0.827582 0.767396
C14_12 C 0.4277(4) 0.8277(6) 0.7352(4)
C15_12 C 0.4343(6) 0.7799(7) 0.7350(5)
H14_12 H 0.464114 0.773580 0.730460
H15_12 H 0.417633 0.767320 0.711972
H16_16 H 0.425243 0.768132 0.762374
C16_12 C 0.4083(5) 0.8406(7) 0.6937(4)
H17_12 H 0.383647 0.822992 0.687946
H18_12 H 0.428835 0.837181 0.670713
H19_12 H 0.399612 0.870152 0.695359
C17_12 C 0.4705(5) 0.8496(7) 0.7372(5)
H20_12 H 0.485602 0.844432 0.710146
H21_12 H 0.465903 0.880243 0.739767
C18_16 C 0.5339(5) 0.8253(5) 0.7653(4)
H22_16 H 0.540627 0.823378 0.735905
C19_16 C 0.5678(5) 0.8156(5) 0.7938(4)
C20_16 C 0.6050(4) 0.8026(5) 0.7761(4)
H23_16 H 0.606620 0.800153 0.746001
C21_16 C 0.6418(4) 0.7924(4) 0.8008(4)
C22_16 C 0.6365(4) 0.7985(4) 0.8436(4)
H24_16 H 0.660137 0.792771 0.861167
C23_16 C 0.6016(5) 0.8118(5) 0.8633(4)
C24_16 C 0.5626(5) 0.8221(5) 0.8381(4)
C25_16 C 0.6046(6) 0.8159(7) 0.9107(5)
H25_16 H 0.630050 0.807214 0.923752
C26_16 C 0.5917(6) 0.8441(9) 0.9769(5)
H26_16 H 0.594115 0.875108 0.977153
H27_16 H 0.620079 0.832188 0.981494
C27_16 C 0.3156(4) 0.7694(4) 0.9661(4)
C28_16 C 0.6805(4) 0.7799(4) 0.7820(4)
C29_16 C 0.7824(4) 0.8266(5) 0.7177(4)
C42_16 C 0.8693(6) 0.9814(5) 0.4905(4)
H40_16 H 0.900366 0.979411 0.490231
H41_16 H 0.860564 0.996359 0.464279
C43_16 C 0.8509(6) 0.9369(5) 0.4896(5)
C44_16 C 0.8023(6) 0.9412(6) 0.4906(5)
H42_16 H 0.789525 0.913251 0.493442
H43_16 H 0.792588 0.954323 0.464139
H44_16 H 0.793993 0.958673 0.514924
C45_16 C 0.8612(8) 0.9154(6) 0.4470(5)
H45_16 H 0.878887 0.890658 0.452167
H46_16 H 0.876333 0.935180 0.428537
H47_16 H 0.835096 0.906670 0.432982
C46_16 C 0.8664(6) 0.9093(5) 0.5240(4)
H48_16 H 0.897369 0.907446 0.521970
H49_16 H 0.854864 0.880721 0.519652
C47_16 C 0.8390(7) 0.8961(6) 0.5927(5)
H50_16 H 0.833270 0.869443 0.580325
C48_16 C 0.8284(4) 0.9002(4) 0.6380(4)
C49_16 C 0.8090(4) 0.8673(5) 0.6561(4)
H51_16 H 0.800003 0.844584 0.638632
C50_16 C 0.8017(5) 0.8655(5) 0.6991(4)
C51_16 C 0.8144(5) 0.8995(5) 0.7250(4)
H52_16 H 0.810841 0.897747 0.755032
C52_16 C 0.8313(5) 0.9339(5) 0.7080(4)
C53_16 C 0.8385(5) 0.9351(5) 0.6621(4)
C54_16 C 0.8453(5) 0.9656(5) 0.7370(4)
H53_16 H 0.847261 0.957627 0.766142
C14_13 C 0.0723(4) 0.8277(6) 0.0148(4)
C15_13 C 0.0657(6) 0.7799(7) 0.0150(5)
H14_13 H 0.035886 0.773580 0.019540
H15_13 H 0.082367 0.767320 0.038028
C16_13 C 0.0917(5) 0.8406(7) 0.0563(4)
H17_13 H 0.116353 0.822992 0.062054
H18_13 H 0.071165 0.837181 0.079287
H19_13 H 0.100388 0.870152 0.054641
C17_13 C 0.0295(5) 0.8496(7) 0.0128(5)
H20_13 H 0.014398 0.844432 0.039854
H21_13 H 0.034097 0.880243 0.010233
C30_13 C 0.6520(7) 0.0719(5) 0.9838(5)
C31_13 C 0.7017(7) 0.0662(6) 0.9842(5)
H28_13 H 0.710574 0.051579 0.958221
H30_13 H 0.715207 0.093836 0.985514
C32_13 C 0.6386(8) 0.0923(6) 0.9402(5)
H31_13 H 0.662660 0.107098 0.927777
H32_13 H 0.615602 0.112243 0.945081
H33_13 H 0.629156 0.070219 0.920618
C55_13 C 0.6310(8) 0.0288(5) 0.9844(5)
H54_13 H 0.600118 0.032493 0.985411
H55_13 H 0.638015 0.013667 0.957793
C30_14 C 0.3480(7) 0.9281(5) 0.9838(5)
C31_14 C 0.2983(7) 0.9338(6) 0.9842(5)
H28_14 H 0.289426 0.948421 0.958221
H30_14 H 0.284793 0.906164 0.985514
C32_14 C 0.3614(8) 0.9077(6) 0.9402(5)
H31_14 H 0.337340 0.892902 0.927777
H32_14 H 0.384398 0.887757 0.945081
H33_14 H 0.370844 0.929781 0.920618
C55_14 C 0.3690(8) 0.9712(5) 0.9844(5)
H54_14 H 0.399882 0.967507 0.985411
H55_14 H 0.361985 0.986333 0.957793
C14_14 C 0.9277(4) 0.1723(6) 0.0148(4)
C15_14 C 0.9343(6) 0.2201(7) 0.0150(5)
H14_14 H 0.964114 0.226420 0.019540
H15_14 H 0.917633 0.232680 0.038028
C16_14 C 0.9083(5) 0.1594(7) 0.0563(4)
H17_14 H 0.883647 0.177008 0.062054
H18_14 H 0.928835 0.162819 0.079287
H19_14 H 0.899612 0.129848 0.054641
C17_14 C 0.9705(5) 0.1504(7) 0.0128(5)
H20_14 H 0.985602 0.155568 0.039854
H21_14 H 0.965903 0.119757 0.010233
C30_15 C 0.0719(5) 0.3480(7) 0.0162(5)
C31_15 C 0.0662(6) 0.2983(7) 0.0158(5)
H28_15 H 0.051579 0.289426 0.041779
H30_15 H 0.093836 0.284793 0.014486
C32_15 C 0.0923(6) 0.3614(8) 0.0598(5)
H31_15 H 0.107098 0.337340 0.072223
H32_15 H 0.112243 0.384398 0.054919
H33_15 H 0.070219 0.370844 0.079382
C55_15 C 0.0288(5) 0.3690(8) 0.0156(5)
H54_15 H 0.032493 0.399882 0.014589
H55_15 H 0.013667 0.361985 0.042207
C14_15 C 0.8277(6) 0.9277(4) 0.9852(4)
C15_15 C 0.7799(7) 0.9343(6) 0.9850(5)
H14_15 H 0.773580 0.964114 0.980460
H15_15 H 0.767320 0.917633 0.961972
C16_15 C 0.8406(7) 0.9083(5) 0.9437(4)
H17_15 H 0.822992 0.883647 0.937946
H18_15 H 0.837181 0.928835 0.920713
H19_15 H 0.870152 0.899612 0.945359
C17_15 C 0.8496(7) 0.9705(5) 0.9872(5)
H20_15 H 0.844432 0.985602 0.960146
H21_15 H 0.880243 0.965903 0.989767
C14_16 C 0.1723(6) 0.0723(4) 0.9852(4)
C15_16 C 0.2201(7) 0.0657(6) 0.9850(5)
H14_16 H 0.226420 0.035886 0.980460
H15_16 H 0.232680 0.082367 0.961972
C16_16 C 0.1594(7) 0.0917(5) 0.9437(4)
H17_16 H 0.177008 0.116353 0.937946
H18_16 H 0.162819 0.071165 0.920713
H19_16 H 0.129848 0.100388 0.945359
C17_16 C 0.1504(7) 0.0295(5) 0.9872(5)
H20_16 H 0.155568 0.014398 0.960146
H21_16 H 0.119757 0.034097 0.989767
C30_16 C 0.9281(5) 0.6520(7) 0.0162(5)
C31_16 C 0.9338(6) 0.7017(7) 0.0158(5)
H28_16 H 0.948421 0.710574 0.041779
H30_16 H 0.906164 0.715207 0.014486
C32_16 C 0.9077(6) 0.6386(8) 0.0598(5)
H31_16 H 0.892902 0.662660 0.072223
H32_16 H 0.887757 0.615602 0.054919
H33_16 H 0.929781 0.629156 0.079382
C55_16 C 0.9712(5) 0.6310(8) 0.0156(5)
H54_16 H 0.967507 0.600118 0.014589
H55_16 H 0.986333 0.638015 0.042207
loop_
_geom_bond_atom_site_label_1
_geom_bond_atom_site_label_2
_geom_bond_site_symmetry_1
_geom_bond_site_symmetry_2
In1 O5 1_555 1_555
Cu1 O1 1_555 1_555
Cu2 O1 1_555 1_555
Cu3 O9 1_555 1_555
Cu4 O9 1_555 1_555
O1 C11 1_555 1_555
O2 Cu1 1_555 1_555
O3 C27 1_555 1_555
O4 C27 1_555 1_555
O5 C28 1_555 1_555
O6 In1 1_555 1_555
O7 In1 1_555 1_555
O8 In1 1_555 1_555
O9 C53 1_555 1_555
O10 Cu3 1_555 1_555
O11 C56 1_555 1_555
O12 C56 1_555 1_555
N1 Cu1 1_555 1_555
N2 Cu2 1_555 1_555
N3 Cu2 1_555 1_555
N4 Cu1 1_555 1_555
N5 Cu3 1_555 1_555
N6 Cu4 1_555 1_555
N7 Cu4 1_555 1_555
N8 Cu3 1_555 1_555
C1 C2 1_555 1_555
C2 H1 1_555 1_555
H2 C2 1_555 1_555
H3 C2 1_555 1_555
C3 C1 1_555 1_555
H4 C3 1_555 1_555
H5 C3 1_555 1_555
H6 C3 1_555 1_555
C4 N1 1_555 1_555
H7 C4 1_555 1_555
C5 N1 1_555 1_555
H8 C5 1_555 1_555
C6 C5 1_555 1_555
C7 C6 1_555 1_555
H9 C7 1_555 1_555
C8 C7 1_555 1_555
C9 C8 1_555 1_555
H10 C9 1_555 1_555
C10 C9 1_555 1_555
C11 C6 1_555 1_555
C12 N2 1_555 1_555
H11 C12 1_555 1_555
C13 N2 1_555 1_555
H12 C13 1_555 1_555
H13 C13 1_555 1_555
C14 C13 1_555 1_555
C15 C14 1_555 1_555
H14 C15 1_555 1_555
H15 C15 1_555 1_555
H16 C15 1_555 1_555
C16 C14 1_555 1_555
H17 C16 1_555 1_555
H18 C16 1_555 1_555
H19 C16 1_555 1_555
C17 N3 1_555 1_555
H20 C17 1_555 1_555
H21 C17 1_555 1_555
C18 N3 1_555 1_555
H22 C18 1_555 1_555
C19 C18 1_555 1_555
C20 C19 1_555 1_555
H23 C20 1_555 1_555
C21 C20 1_555 1_555
C22 C21 1_555 1_555
H24 C22 1_555 1_555
C23 C22 1_555 1_555
C24 O2 1_555 1_555
C25 N4 1_555 1_555
H25 C25 1_555 1_555
C26 N4 1_555 1_555
H26 C26 1_555 1_555
H27 C26 1_555 1_555
C27 C8 1_555 1_555
C28 O6 1_555 1_555
C29 O7 1_555 1_555
C30 C31 1_555 1_555
C31 H28 1_555 1_555
H29 C31 1_555 1_555
H30 C31 1_555 1_555
C32 C30 1_555 1_555
H31 C32 1_555 1_555
H32 C32 1_555 1_555
H33 C32 1_555 1_555
C33 N8 1_555 1_555
H34 C33 1_555 1_555
H35 C33 1_555 1_555
C34 N8 1_555 1_555
H36 C34 1_555 1_555
C35 C34 1_555 1_555
C36 C35 1_555 1_555
H37 C36 1_555 1_555
C37 C36 1_555 1_555
C38 C37 1_555 1_555
H38 C38 1_555 1_555
C39 C38 1_555 1_555
C40 O10 1_555 1_555
C41 N7 1_555 1_555
H39 C41 1_555 1_555
C42 N7 1_555 1_555
H40 C42 1_555 1_555
H41 C42 1_555 1_555
C43 C42 1_555 1_555
C44 C43 1_555 1_555
H42 C44 1_555 1_555
H43 C44 1_555 1_555
H44 C44 1_555 1_555
C45 C43 1_555 1_555
H45 C45 1_555 1_555
H46 C45 1_555 1_555
H47 C45 1_555 1_555
C46 N6 1_555 1_555
H48 C46 1_555 1_555
H49 C46 1_555 1_555
C47 N6 1_555 1_555
H50 C47 1_555 1_555
C48 C47 1_555 1_555
C49 C48 1_555 1_555
H51 C49 1_555 1_555
C50 C29 1_555 1_555
C51 C50 1_555 1_555
H52 C51 1_555 1_555
C52 C51 1_555 1_555
C53 C48 1_555 1_555
C54 N5 1_555 1_555
H53 C54 1_555 1_555
C55 N5 1_555 1_555
H54 C55 1_555 1_555
H55 C55 1_555 1_555
C56 C37 1_555 1_555
In2 O3 1_555 1_555
In3 O11 1_555 1_555
O13 In1 1_555 1_555
O14 In1 1_555 1_555
O15 In1 1_555 1_555
O16 In1 1_555 1_555
Cu2 O2 1_555 1_555
Cu4 O10 1_555 1_555
O4 In2 1_555 1_555
O8 C29 1_555 1_555
O12 In3 1_555 1_555
C1 C4 1_555 1_555
C1 C26 1_555 1_555
C10 C11 1_555 1_555
C10 C12 1_555 1_555
C14 C17 1_555 1_555
C19 C24 1_555 1_555
C21 C28 1_555 1_555
C23 C24 1_555 1_555
C23 C25 1_555 1_555
C30 C33 1_555 1_555
C30 C55 1_555 1_555
C35 C40 1_555 1_555
C39 C40 1_555 1_555
C39 C41 1_555 1_555
C43 C46 1_555 1_555
C49 C50 1_555 1_555
C52 C53 1_555 1_555
C52 C54 1_555 1_555
C4 H56 1_555 1_555
O10_2 Cu3_2 1_555 1_555
O15 C56_2 1_555 1_555
O16 C56_2 1_555 1_555
N5_2 Cu3_2 1_555 1_555
N8_2 Cu3_2 1_555 1_555
C30_2 C31_2 1_555 1_555
C31_2 H28_2 1_555 1_555
H29_2 C31_2 1_555 1_555
H30_2 C31_2 1_555 1_555
C32_2 C30_2 1_555 1_555
H31_2 C32_2 1_555 1_555
H32_2 C32_2 1_555 1_555
H33_2 C32_2 1_555 1_555
C33_2 N8_2 1_555 1_555
H34_2 C33_2 1_555 1_555
H35_2 C33_2 1_555 1_555
C34_2 N8_2 1_555 1_555
H36_2 C34_2 1_555 1_555
C35_2 C34_2 1_555 1_555
C36_2 C35_2 1_555 1_555
H37_2 C36_2 1_555 1_555
C37_2 C36_2 1_555 1_555
C38_2 C37_2 1_555 1_555
H38_2 C38_2 1_555 1_555
C39_2 C38_2 1_555 1_555
C40_2 O10_2 1_555 1_555
C41_2 N7_2 1_555 1_555
H39_2 C41_2 1_555 1_555
C55_2 N5_2 1_555 1_555
H54_2 C55_2 1_555 1_555
H55_2 C55_2 1_555 1_555
C56_2 C37_2 1_555 1_555
C30_2 C33_2 1_555 1_555
C30_2 C55_2 1_555 1_555
C35_2 C40_2 1_555 1_555
C39_2 C40_2 1_555 1_555
C39_2 C41_2 1_555 1_555
In2 O5_2 1_555 1_555
Cu1_2 O1_2 1_555 1_555
Cu2_2 O1_2 1_555 1_555
Cu4_2 O9_2 1_555 1_555
O1_2 C11_2 1_555 1_555
O2_2 Cu1_2 1_555 1_555
O4_2 C27_2 1_555 1_555
O5_2 C28_2 1_555 1_555
O6_2 In2 1_555 1_555
O7_2 In2 1_555 1_555
O8_2 In2 1_555 1_555
O9_2 C53_2 1_555 1_555
N1_2 Cu1_2 1_555 1_555
N2_2 Cu2_2 1_555 1_555
N3_2 Cu2_2 1_555 1_555
N4_2 Cu1_2 1_555 1_555
N6_2 Cu4_2 1_555 1_555
C5_2 N1_2 1_555 1_555
C6_2 C5_2 1_555 1_555
C7_2 C6_2 1_555 1_555
C8_2 C7_2 1_555 1_555
C9_2 C8_2 1_555 1_555
H10_2 C9_2 1_555 1_555
C10_2 C9_2 1_555 1_555
C11_2 C6_2 1_555 1_555
C12_2 N2_2 1_555 1_555
H11_2 C12_2 1_555 1_555
C13_2 N2_2 1_555 1_555
H12_2 C13_2 1_555 1_555
H13_2 C13_2 1_555 1_555
C14_2 C13_2 1_555 1_555
C15_2 C14_2 1_555 1_555
H14_2 C15_2 1_555 1_555
H15_2 C15_2 1_555 1_555
H16_2 C15_2 1_555 1_555
C16_2 C14_2 1_555 1_555
H17_2 C16_2 1_555 1_555
H18_2 C16_2 1_555 1_555
H19_2 C16_2 1_555 1_555
C17_2 N3_2 1_555 1_555
H20_2 C17_2 1_555 1_555
H21_2 C17_2 1_555 1_555
C18_2 N3_2 1_555 1_555
H22_2 C18_2 1_555 1_555
C19_2 C18_2 1_555 1_555
C20_2 C19_2 1_555 1_555
H23_2 C20_2 1_555 1_555
C21_2 C20_2 1_555 1_555
C22_2 C21_2 1_555 1_555
H24_2 C22_2 1_555 1_555
C23_2 C22_2 1_555 1_555
C24_2 O2_2 1_555 1_555
C25_2 N4_2 1_555 1_555
H25_2 C25_2 1_555 1_555
C26_2 N4_2 1_555 1_555
H26_2 C26_2 1_555 1_555
H27_2 C26_2 1_555 1_555
C27_2 C8_2 1_555 1_555
C28_2 O6_2 1_555 1_555
C29_2 O7_2 1_555 1_555
H40_2 C42_2 1_555 1_555
H41_2 C42_2 1_555 1_555
C43_2 C42_2 1_555 1_555
C44_2 C43_2 1_555 1_555
H42_2 C44_2 1_555 1_555
H43_2 C44_2 1_555 1_555
H44_2 C44_2 1_555 1_555
C45_2 C43_2 1_555 1_555
H45_2 C45_2 1_555 1_555
H46_2 C45_2 1_555 1_555
H47_2 C45_2 1_555 1_555
C46_2 N6_2 1_555 1_555
H48_2 C46_2 1_555 1_555
H49_2 C46_2 1_555 1_555
C47_2 N6_2 1_555 1_555
H50_2 C47_2 1_555 1_555
C48_2 C47_2 1_555 1_555
C49_2 C48_2 1_555 1_555
H51_2 C49_2 1_555 1_555
C50_2 C29_2 1_555 1_555
C51_2 C50_2 1_555 1_555
H52_2 C51_2 1_555 1_555
C52_2 C51_2 1_555 1_555
C53_2 C48_2 1_555 1_555
H53_2 C54_2 1_555 1_555
O15_2 In2 1_555 1_555
O16_2 In2 1_555 1_555
Cu2_2 O2_2 1_555 1_555
O8_2 C29_2 1_555 1_555
C10_2 C11_2 1_555 1_555
C10_2 C12_2 1_555 1_555
C14_2 C17_2 1_555 1_555
C19_2 C24_2 1_555 1_555
C21_2 C28_2 1_555 1_555
C23_2 C24_2 1_555 1_555
C23_2 C25_2 1_555 1_555
C43_2 C46_2 1_555 1_555
C49_2 C50_2 1_555 1_555
C52_2 C53_2 1_555 1_555
C52_2 C54_2 1_555 1_555
C1_2 C2_2 1_555 1_555
C2_2 H1_2 1_555 1_555
H2_2 C2_2 1_555 1_555
H3_2 C2_2 1_555 1_555
C3_2 C1_2 1_555 1_555
H4_2 C3_2 1_555 1_555
H6_2 C3_2 1_555 1_555
H7_2 C4_2 1_555 1_555
In2_2 O3_2 1_555 1_555
C1_2 C4_2 1_555 1_555
C4_2 H56_2 1_555 1_555
Cu2_3 O1_3 1_555 1_555
O1_3 C11_3 1_555 1_555
O3_3 C27_3 1_555 1_555
O4_3 C27_3 1_555 1_555
N2_3 Cu2_3 1_555 1_555
N3_3 Cu2_3 1_555 1_555
C5_3 N1_3 1_555 1_555
H8_3 C5_3 1_555 1_555
C6_3 C5_3 1_555 1_555
C7_3 C6_3 1_555 1_555
H9_3 C7_3 1_555 1_555
C8_3 C7_3 1_555 1_555
C9_3 C8_3 1_555 1_555
H10_3 C9_3 1_555 1_555
C10_3 C9_3 1_555 1_555
C11_3 C6_3 1_555 1_555
C12_3 N2_3 1_555 1_555
H11_3 C12_3 1_555 1_555
C13_3 N2_3 1_555 1_555
H12_3 C13_3 1_555 1_555
H13_3 C13_3 1_555 1_555
C27_3 C8_3 1_555 1_555
In3 O3_3 1_555 1_555
O4_3 In3 1_555 1_555
C10_3 C11_3 1_555 1_555
C10_3 C12_3 1_555 1_555
O10_3 Cu3_3 1_555 1_555
O15_2 C56_3 1_555 1_555
O16_2 C56_3 1_555 1_555
N5_3 Cu3_3 1_555 1_555
N8_3 Cu3_3 1_555 1_555
C33_3 N8_3 1_555 1_555
H34_3 C33_3 1_555 1_555
H35_3 C33_3 1_555 1_555
C34_3 N8_3 1_555 1_555
H36_3 C34_3 1_555 1_555
C35_3 C34_3 1_555 1_555
C36_3 C35_3 1_555 1_555
H37_3 C36_3 1_555 1_555
C37_3 C36_3 1_555 1_555
C38_3 C37_3 1_555 1_555
H38_3 C38_3 1_555 1_555
C39_3 C38_3 1_555 1_555
C40_3 O10_3 1_555 1_555
C41_3 N7_3 1_555 1_555
H39_3 C41_3 1_555 1_555
C56_3 C37_3 1_555 1_555
C35_3 C40_3 1_555 1_555
C39_3 C40_3 1_555 1_555
C39_3 C41_3 1_555 1_555
Cu4_3 O9_3 1_555 1_555
O9_3 C53_3 1_555 1_555
N6_3 Cu4_3 1_555 1_555
H40_3 C42_3 1_555 1_555
H41_3 C42_3 1_555 1_555
C43_3 C42_3 1_555 1_555
C44_3 C43_3 1_555 1_555
H42_3 C44_3 1_555 1_555
H43_3 C44_3 1_555 1_555
H44_3 C44_3 1_555 1_555
C45_3 C43_3 1_555 1_555
H45_3 C45_3 1_555 1_555
H46_3 C45_3 1_555 1_555
H47_3 C45_3 1_555 1_555
C46_3 N6_3 1_555 1_555
H48_3 C46_3 1_555 1_555
H49_3 C46_3 1_555 1_555
C47_3 N6_3 1_555 1_555
H50_3 C47_3 1_555 1_555
C48_3 C47_3 1_555 1_555
C49_3 C48_3 1_555 1_555
H51_3 C49_3 1_555 1_555
C50_3 C29_3 1_555 1_555
C51_3 C50_3 1_555 1_555
C52_3 C51_3 1_555 1_555
C53_3 C48_3 1_555 1_555
O8_3 C29_3 1_555 1_555
C43_3 C46_3 1_555 1_555
C49_3 C50_3 1_555 1_555
C52_3 C53_3 1_555 1_555
C52_3 C54_3 1_555 1_555
In2_2 O5_3 1_555 1_555
O2_3 Cu1_3 1_555 1_555
O5_3 C28_3 1_555 1_555
O7_3 In2_2 1_555 1_555
N4_3 Cu1_3 1_555 1_555
C1_3 C2_3 1_555 1_555
C2_3 H1_3 1_555 1_555
H2_3 C2_3 1_555 1_555
H3_3 C2_3 1_555 1_555
C3_3 C1_3 1_555 1_555
H4_3 C3_3 1_555 1_555
H5_3 C3_3 1_555 1_555
H6_3 C3_3 1_555 1_555
H7_3 C4_3 1_555 1_555
C19_3 C18_3 1_555 1_555
C20_3 C19_3 1_555 1_555
C21_3 C20_3 1_555 1_555
C22_3 C21_3 1_555 1_555
H24_3 C22_3 1_555 1_555
C23_3 C22_3 1_555 1_555
C24_3 O2_3 1_555 1_555
C25_3 N4_3 1_555 1_555
H25_3 C25_3 1_555 1_555
C26_3 N4_3 1_555 1_555
H26_3 C26_3 1_555 1_555
H27_3 C26_3 1_555 1_555
O15_3 In2_2 1_555 1_555
C1_3 C4_3 1_555 1_555
C1_3 C26_3 1_555 1_555
C19_3 C24_3 1_555 1_555
C21_3 C28_3 1_555 1_555
C23_3 C24_3 1_555 1_555
C23_3 C25_3 1_555 1_555
C4_3 H56_3 1_555 1_555
Cu2_4 O1_4 1_555 1_555
O1_4 C11_4 1_555 1_555
O13 C27_4 1_555 1_555
O14 C27_4 1_555 1_555
N2_4 Cu2_4 1_555 1_555
N3_4 Cu2_4 1_555 1_555
C5_4 N1_4 1_555 1_555
H8_4 C5_4 1_555 1_555
C6_4 C5_4 1_555 1_555
C7_4 C6_4 1_555 1_555
H9_4 C7_4 1_555 1_555
C8_4 C7_4 1_555 1_555
C9_4 C8_4 1_555 1_555
H10_4 C9_4 1_555 1_555
C10_4 C9_4 1_555 1_555
C11_4 C6_4 1_555 1_555
C12_4 N2_4 1_555 1_555
H11_4 C12_4 1_555 1_555
C13_4 N2_4 1_555 1_555
H12_4 C13_4 1_555 1_555
H13_4 C13_4 1_555 1_555
C14_3 C13_4 1_555 1_555
C15_3 C14_3 1_555 1_555
H14_3 C15_3 1_555 1_555
H15_3 C15_3 1_555 1_555
H16_4 C15_3 1_555 1_555
C16_3 C14_3 1_555 1_555
H17_3 C16_3 1_555 1_555
H18_3 C16_3 1_555 1_555
H19_3 C16_3 1_555 1_555
C17_3 N3_4 1_555 1_555
H20_3 C17_3 1_555 1_555
H21_3 C17_3 1_555 1_555
C27_4 C8_4 1_555 1_555
C10_4 C11_4 1_555 1_555
C10_4 C12_4 1_555 1_555
C14_3 C17_3 1_555 1_555
H40_4 C42_4 1_555 1_555
H41_4 C42_4 1_555 1_555
C43_4 C42_4 1_555 1_555
C44_4 C43_4 1_555 1_555
H42_4 C44_4 1_555 1_555
H43_4 C44_4 1_555 1_555
C45_4 C43_4 1_555 1_555
H45_4 C45_4 1_555 1_555
H46_4 C45_4 1_555 1_555
H47_4 C45_4 1_555 1_555
In3 O5_4 1_555 1_555
Cu3_4 O9_4 1_555 1_555
Cu4_4 O9_4 1_555 1_555
O2_4 Cu1_4 1_555 1_555
O5_4 C28_4 1_555 1_555
O6_4 In3 1_555 1_555
O7_4 In3 1_555 1_555
O8_4 In3 1_555 1_555
O9_4 C53_4 1_555 1_555
O10_4 Cu3_4 1_555 1_555
O15_3 C56_4 1_555 1_555
N4_4 Cu1_4 1_555 1_555
N5_4 Cu3_4 1_555 1_555
N6_4 Cu4_4 1_555 1_555
N7_4 Cu4_4 1_555 1_555
N8_4 Cu3_4 1_555 1_555
C1_4 C2_4 1_555 1_555
C2_4 H1_4 1_555 1_555
H2_4 C2_4 1_555 1_555
H3_4 C2_4 1_555 1_555
C3_4 C1_4 1_555 1_555
H4_4 C3_4 1_555 1_555
H5_4 C3_4 1_555 1_555
H6_4 C3_4 1_555 1_555
H7_4 C4_4 1_555 1_555
H22_4 C18_4 1_555 1_555
C19_4 C18_4 1_555 1_555
C20_4 C19_4 1_555 1_555
H23_4 C20_4 1_555 1_555
C21_4 C20_4 1_555 1_555
C22_4 C21_4 1_555 1_555
H24_4 C22_4 1_555 1_555
C23_4 C22_4 1_555 1_555
C24_4 O2_4 1_555 1_555
C25_4 N4_4 1_555 1_555
H25_4 C25_4 1_555 1_555
C26_4 N4_4 1_555 1_555
H26_4 C26_4 1_555 1_555
H27_4 C26_4 1_555 1_555
C28_4 O6_4 1_555 1_555
C29_4 O7_4 1_555 1_555
C30_3 C31_3 1_555 1_555
C31_3 H28_3 1_555 1_555
H29_4 C31_3 1_555 1_555
H30_3 C31_3 1_555 1_555
C32_3 C30_3 1_555 1_555
H31_3 C32_3 1_555 1_555
H32_3 C32_3 1_555 1_555
H33_3 C32_3 1_555 1_555
C33_4 N8_4 1_555 1_555
H34_4 C33_4 1_555 1_555
H35_4 C33_4 1_555 1_555
C34_4 N8_4 1_555 1_555
H36_4 C34_4 1_555 1_555
C35_4 C34_4 1_555 1_555
C36_4 C35_4 1_555 1_555
H37_4 C36_4 1_555 1_555
C37_4 C36_4 1_555 1_555
C38_4 C37_4 1_555 1_555
C39_4 C38_4 1_555 1_555
C40_4 O10_4 1_555 1_555
C41_4 N7_4 1_555 1_555
C46_4 N6_4 1_555 1_555
H48_4 C46_4 1_555 1_555
H49_4 C46_4 1_555 1_555
C47_4 N6_4 1_555 1_555
H50_4 C47_4 1_555 1_555
C48_4 C47_4 1_555 1_555
C49_4 C48_4 1_555 1_555
H51_4 C49_4 1_555 1_555
C50_4 C29_4 1_555 1_555
C51_4 C50_4 1_555 1_555
H52_4 C51_4 1_555 1_555
C52_4 C51_4 1_555 1_555
C53_4 C48_4 1_555 1_555
C54_4 N5_4 1_555 1_555
H53_4 C54_4 1_555 1_555
C55_3 N5_4 1_555 1_555
H54_3 C55_3 1_555 1_555
H55_3 C55_3 1_555 1_555
C56_4 C37_4 1_555 1_555
Cu4_4 O10_4 1_555 1_555
O8_4 C29_4 1_555 1_555
C1_4 C4_4 1_555 1_555
C1_4 C26_4 1_555 1_555
C19_4 C24_4 1_555 1_555
C21_4 C28_4 1_555 1_555
C23_4 C24_4 1_555 1_555
C23_4 C25_4 1_555 1_555
C30_3 C33_4 1_555 1_555
C30_3 C55_3 1_555 1_555
C35_4 C40_4 1_555 1_555
C39_4 C40_4 1_555 1_555
C39_4 C41_4 1_555 1_555
C49_4 C50_4 1_555 1_555
C52_4 C53_4 1_555 1_555
C52_4 C54_4 1_555 1_555
C4_4 H56_4 1_555 1_555
In1_2 O5_5 1_555 1_555
Cu1_5 O1_5 1_555 1_555
Cu2_5 O1_5 1_555 1_555
Cu3_5 O9_5 1_555 1_555
Cu4_5 O9_5 1_555 1_555
O1_5 C11_5 1_555 1_555
O2_5 Cu1_5 1_555 1_555
O3_4 C27_5 1_555 1_555
O4_4 C27_5 1_555 1_555
O5_5 C28_5 1_555 1_555
O6_5 In1_2 1_555 1_555
O7_5 In1_2 1_555 1_555
O8_5 In1_2 1_555 1_555
O9_5 C53_5 1_555 1_555
O10_5 Cu3_5 1_555 1_555
O11_2 C56_5 1_555 1_555
O12_2 C56_5 1_555 1_555
N1_5 Cu1_5 1_555 1_555
N2_5 Cu2_5 1_555 1_555
N3_5 Cu2_5 1_555 1_555
N4_5 Cu1_5 1_555 1_555
N5_5 Cu3_5 1_555 1_555
N6_5 Cu4_5 1_555 1_555
N7_5 Cu4_5 1_555 1_555
N8_5 Cu3_5 1_555 1_555
C1_5 C2_5 1_555 1_555
C2_5 H1_5 1_555 1_555
H2_5 C2_5 1_555 1_555
H3_5 C2_5 1_555 1_555
C3_5 C1_5 1_555 1_555
H4_5 C3_5 1_555 1_555
H5_5 C3_5 1_555 1_555
H6_5 C3_5 1_555 1_555
C4_5 N1_5 1_555 1_555
H7_5 C4_5 1_555 1_555
C5_5 N1_5 1_555 1_555
H8_5 C5_5 1_555 1_555
C6_5 C5_5 1_555 1_555
C7_5 C6_5 1_555 1_555
H9_5 C7_5 1_555 1_555
C8_5 C7_5 1_555 1_555
C9_5 C8_5 1_555 1_555
H10_5 C9_5 1_555 1_555
C10_5 C9_5 1_555 1_555
C11_5 C6_5 1_555 1_555
C12_5 N2_5 1_555 1_555
H11_5 C12_5 1_555 1_555
C13_5 N2_5 1_555 1_555
H12_5 C13_5 1_555 1_555
H13_5 C13_5 1_555 1_555
C14_4 C13_5 1_555 1_555
C15_4 C14_4 1_555 1_555
H14_4 C15_4 1_555 1_555
H15_4 C15_4 1_555 1_555
H16_5 C15_4 1_555 1_555
C16_4 C14_4 1_555 1_555
H17_4 C16_4 1_555 1_555
H18_4 C16_4 1_555 1_555
H19_4 C16_4 1_555 1_555
C17_4 N3_5 1_555 1_555
H20_4 C17_4 1_555 1_555
H21_4 C17_4 1_555 1_555
C18_5 N3_5 1_555 1_555
H22_5 C18_5 1_555 1_555
C19_5 C18_5 1_555 1_555
C20_5 C19_5 1_555 1_555
H23_5 C20_5 1_555 1_555
C21_5 C20_5 1_555 1_555
C22_5 C21_5 1_555 1_555
H24_5 C22_5 1_555 1_555
C23_5 C22_5 1_555 1_555
C24_5 O2_5 1_555 1_555
C25_5 N4_5 1_555 1_555
H25_5 C25_5 1_555 1_555
C26_5 N4_5 1_555 1_555
H26_5 C26_5 1_555 1_555
H27_5 C26_5 1_555 1_555
C27_5 C8_5 1_555 1_555
C28_5 O6_5 1_555 1_555
C29_5 O7_5 1_555 1_555
C30_4 C31_4 1_555 1_555
C31_4 H28_4 1_555 1_555
H29_5 C31_4 1_555 1_555
H30_4 C31_4 1_555 1_555
C32_4 C30_4 1_555 1_555
H31_4 C32_4 1_555 1_555
H32_4 C32_4 1_555 1_555
H33_4 C32_4 1_555 1_555
C33_5 N8_5 1_555 1_555
H34_5 C33_5 1_555 1_555
H35_5 C33_5 1_555 1_555
C34_5 N8_5 1_555 1_555
H36_5 C34_5 1_555 1_555
C35_5 C34_5 1_555 1_555
C36_5 C35_5 1_555 1_555
H37_5 C36_5 1_555 1_555
C37_5 C36_5 1_555 1_555
C38_5 C37_5 1_555 1_555
H38_5 C38_5 1_555 1_555
C39_5 C38_5 1_555 1_555
C40_5 O10_5 1_555 1_555
C41_5 N7_5 1_555 1_555
H39_5 C41_5 1_555 1_555
C42_5 N7_5 1_555 1_555
H40_5 C42_5 1_555 1_555
H41_5 C42_5 1_555 1_555
C43_5 C42_5 1_555 1_555
C44_5 C43_5 1_555 1_555
H42_5 C44_5 1_555 1_555
H43_5 C44_5 1_555 1_555
H44_5 C44_5 1_555 1_555
C45_5 C43_5 1_555 1_555
H45_5 C45_5 1_555 1_555
H46_5 C45_5 1_555 1_555
H47_5 C45_5 1_555 1_555
C46_5 N6_5 1_555 1_555
H48_5 C46_5 1_555 1_555
H49_5 C46_5 1_555 1_555
C47_5 N6_5 1_555 1_555
H50_5 C47_5 1_555 1_555
C48_5 C47_5 1_555 1_555
C49_5 C48_5 1_555 1_555
H51_5 C49_5 1_555 1_555
C50_5 C29_5 1_555 1_555
C51_5 C50_5 1_555 1_555
H52_5 C51_5 1_555 1_555
C52_5 C51_5 1_555 1_555
C53_5 C48_5 1_555 1_555
C54_5 N5_5 1_555 1_555
H53_5 C54_5 1_555 1_555
C55_4 N5_5 1_555 1_555
H54_4 C55_4 1_555 1_555
H55_4 C55_4 1_555 1_555
C56_5 C37_5 1_555 1_555
In2_3 O3_4 1_555 1_555
In3_2 O11_2 1_555 1_555
O13_2 In1_2 1_555 1_555
O14_2 In1_2 1_555 1_555
O15_4 In1_2 1_555 1_555
O16_4 In1_2 1_555 1_555
Cu2_5 O2_5 1_555 1_555
Cu4_5 O10_5 1_555 1_555
O4_4 In2_3 1_555 1_555
O8_5 C29_5 1_555 1_555
O12_2 In3_2 1_555 1_555
C1_5 C4_5 1_555 1_555
C1_5 C26_5 1_555 1_555
C10_5 C11_5 1_555 1_555
C10_5 C12_5 1_555 1_555
C14_4 C17_4 1_555 1_555
C19_5 C24_5 1_555 1_555
C21_5 C28_5 1_555 1_555
C23_5 C24_5 1_555 1_555
C23_5 C25_5 1_555 1_555
C30_4 C33_5 1_555 1_555
C30_4 C55_4 1_555 1_555
C35_5 C40_5 1_555 1_555
C39_5 C40_5 1_555 1_555
C39_5 C41_5 1_555 1_555
C43_5 C46_5 1_555 1_555
C49_5 C50_5 1_555 1_555
C52_5 C53_5 1_555 1_555
C52_5 C54_5 1_555 1_555
C4_5 H56_5 1_555 1_555
In2_3 O5_6 1_555 1_555
Cu1_6 O1_6 1_555 1_555
Cu2_6 O1_6 1_555 1_555
Cu4_6 O9_6 1_555 1_555
O1_6 C11_6 1_555 1_555
O2_6 Cu1_6 1_555 1_555
O4_5 C27_6 1_555 1_555
O5_6 C28_6 1_555 1_555
O6_6 In2_3 1_555 1_555
O7_6 In2_3 1_555 1_555
O8_6 In2_3 1_555 1_555
O9_6 C53_6 1_555 1_555
N1_6 Cu1_6 1_555 1_555
N2_6 Cu2_6 1_555 1_555
N3_6 Cu2_6 1_555 1_555
N4_6 Cu1_6 1_555 1_555
N6_6 Cu4_6 1_555 1_555
C5_6 N1_6 1_555 1_555
C6_6 C5_6 1_555 1_555
C7_6 C6_6 1_555 1_555
C8_6 C7_6 1_555 1_555
C9_6 C8_6 1_555 1_555
H10_6 C9_6 1_555 1_555
C10_6 C9_6 1_555 1_555
C11_6 C6_6 1_555 1_555
C12_6 N2_6 1_555 1_555
H11_6 C12_6 1_555 1_555
C13_6 N2_6 1_555 1_555
H12_6 C13_6 1_555 1_555
H13_6 C13_6 1_555 1_555
C14_5 C13_6 1_555 1_555
C15_5 C14_5 1_555 1_555
H14_5 C15_5 1_555 1_555
H15_5 C15_5 1_555 1_555
H16_6 C15_5 1_555 1_555
C16_5 C14_5 1_555 1_555
H17_5 C16_5 1_555 1_555
H18_5 C16_5 1_555 1_555
H19_5 C16_5 1_555 1_555
C17_5 N3_6 1_555 1_555
H20_5 C17_5 1_555 1_555
H21_5 C17_5 1_555 1_555
C18_6 N3_6 1_555 1_555
H22_6 C18_6 1_555 1_555
C19_6 C18_6 1_555 1_555
C20_6 C19_6 1_555 1_555
H23_6 C20_6 1_555 1_555
C21_6 C20_6 1_555 1_555
C22_6 C21_6 1_555 1_555
H24_6 C22_6 1_555 1_555
C23_6 C22_6 1_555 1_555
C24_6 O2_6 1_555 1_555
C25_6 N4_6 1_555 1_555
H25_6 C25_6 1_555 1_555
C26_6 N4_6 1_555 1_555
H26_6 C26_6 1_555 1_555
H27_6 C26_6 1_555 1_555
C27_6 C8_6 1_555 1_555
C28_6 O6_6 1_555 1_555
C29_6 O7_6 1_555 1_555
H40_6 C42_6 1_555 1_555
H41_6 C42_6 1_555 1_555
C43_6 C42_6 1_555 1_555
C44_6 C43_6 1_555 1_555
H42_6 C44_6 1_555 1_555
H43_6 C44_6 1_555 1_555
H44_6 C44_6 1_555 1_555
C45_6 C43_6 1_555 1_555
H45_6 C45_6 1_555 1_555
H46_6 C45_6 1_555 1_555
H47_6 C45_6 1_555 1_555
C46_6 N6_6 1_555 1_555
H48_6 C46_6 1_555 1_555
H49_6 C46_6 1_555 1_555
C47_6 N6_6 1_555 1_555
H50_6 C47_6 1_555 1_555
C48_6 C47_6 1_555 1_555
C49_6 C48_6 1_555 1_555
H51_6 C49_6 1_555 1_555
C50_6 C29_6 1_555 1_555
C51_6 C50_6 1_555 1_555
H52_6 C51_6 1_555 1_555
C52_6 C51_6 1_555 1_555
C53_6 C48_6 1_555 1_555
H53_6 C54_6 1_555 1_555
O15_5 In2_3 1_555 1_555
O16_5 In2_3 1_555 1_555
Cu2_6 O2_6 1_555 1_555
O8_6 C29_6 1_555 1_555
C10_6 C11_6 1_555 1_555
C10_6 C12_6 1_555 1_555
C14_5 C17_5 1_555 1_555
C19_6 C24_6 1_555 1_555
C21_6 C28_6 1_555 1_555
C23_6 C24_6 1_555 1_555
C23_6 C25_6 1_555 1_555
C43_6 C46_6 1_555 1_555
C49_6 C50_6 1_555 1_555
C52_6 C53_6 1_555 1_555
C52_6 C54_6 1_555 1_555
C1_6 C2_6 1_555 1_555
C2_6 H1_6 1_555 1_555
H2_6 C2_6 1_555 1_555
H3_6 C2_6 1_555 1_555
C3_6 C1_6 1_555 1_555
H4_6 C3_6 1_555 1_555
H6_6 C3_6 1_555 1_555
H7_6 C4_6 1_555 1_555
In2_4 O3_5 1_555 1_555
C1_6 C4_6 1_555 1_555
C4_6 H56_6 1_555 1_555
O10_6 Cu3_6 1_555 1_555
O15_4 C56_6 1_555 1_555
O16_4 C56_6 1_555 1_555
N5_6 Cu3_6 1_555 1_555
N8_6 Cu3_6 1_555 1_555
C30_5 C31_5 1_555 1_555
C31_5 H28_5 1_555 1_555
H29_6 C31_5 1_555 1_555
H30_5 C31_5 1_555 1_555
C32_5 C30_5 1_555 1_555
H31_5 C32_5 1_555 1_555
H32_5 C32_5 1_555 1_555
H33_5 C32_5 1_555 1_555
C33_6 N8_6 1_555 1_555
H34_6 C33_6 1_555 1_555
H35_6 C33_6 1_555 1_555
C34_6 N8_6 1_555 1_555
H36_6 C34_6 1_555 1_555
C35_6 C34_6 1_555 1_555
C36_6 C35_6 1_555 1_555
H37_6 C36_6 1_555 1_555
C37_6 C36_6 1_555 1_555
C38_6 C37_6 1_555 1_555
H38_6 C38_6 1_555 1_555
C39_6 C38_6 1_555 1_555
C40_6 O10_6 1_555 1_555
C41_6 N7_6 1_555 1_555
H39_6 C41_6 1_555 1_555
C55_5 N5_6 1_555 1_555
H54_5 C55_5 1_555 1_555
H55_5 C55_5 1_555 1_555
C56_6 C37_6 1_555 1_555
C30_5 C33_6 1_555 1_555
C30_5 C55_5 1_555 1_555
C35_6 C40_6 1_555 1_555
C39_6 C40_6 1_555 1_555
C39_6 C41_6 1_555 1_555
Cu4_7 O9_7 1_555 1_555
O9_7 C53_7 1_555 1_555
N6_7 Cu4_7 1_555 1_555
H40_7 C42_7 1_555 1_555
H41_7 C42_7 1_555 1_555
C43_7 C42_7 1_555 1_555
C44_7 C43_7 1_555 1_555
H42_7 C44_7 1_555 1_555
H43_7 C44_7 1_555 1_555
H44_7 C44_7 1_555 1_555
C45_7 C43_7 1_555 1_555
H45_7 C45_7 1_555 1_555
H46_7 C45_7 1_555 1_555
H47_7 C45_7 1_555 1_555
C46_7 N6_7 1_555 1_555
H48_7 C46_7 1_555 1_555
H49_7 C46_7 1_555 1_555
C47_7 N6_7 1_555 1_555
H50_7 C47_7 1_555 1_555
C48_7 C47_7 1_555 1_555
C49_7 C48_7 1_555 1_555
H51_7 C49_7 1_555 1_555
C50_7 C29_7 1_555 1_555
C51_7 C50_7 1_555 1_555
C52_7 C51_7 1_555 1_555
C53_7 C48_7 1_555 1_555
O8_7 C29_7 1_555 1_555
C43_7 C46_7 1_555 1_555
C49_7 C50_7 1_555 1_555
C52_7 C53_7 1_555 1_555
C52_7 C54_7 1_555 1_555
In2_4 O5_7 1_555 1_555
O2_7 Cu1_7 1_555 1_555
O5_7 C28_7 1_555 1_555
O7_7 In2_4 1_555 1_555
N4_7 Cu1_7 1_555 1_555
C1_7 C2_7 1_555 1_555
C2_7 H1_7 1_555 1_555
H2_7 C2_7 1_555 1_555
H3_7 C2_7 1_555 1_555
C3_7 C1_7 1_555 1_555
H4_7 C3_7 1_555 1_555
H5_7 C3_7 1_555 1_555
H6_7 C3_7 1_555 1_555
H7_7 C4_7 1_555 1_555
C19_7 C18_7 1_555 1_555
C20_7 C19_7 1_555 1_555
C21_7 C20_7 1_555 1_555
C22_7 C21_7 1_555 1_555
H24_7 C22_7 1_555 1_555
C23_7 C22_7 1_555 1_555
C24_7 O2_7 1_555 1_555
C25_7 N4_7 1_555 1_555
H25_7 C25_7 1_555 1_555
C26_7 N4_7 1_555 1_555
H26_7 C26_7 1_555 1_555
H27_7 C26_7 1_555 1_555
O15_6 In2_4 1_555 1_555
C1_7 C4_7 1_555 1_555
C1_7 C26_7 1_555 1_555
C19_7 C24_7 1_555 1_555
C21_7 C28_7 1_555 1_555
C23_7 C24_7 1_555 1_555
C23_7 C25_7 1_555 1_555
C4_7 H56_7 1_555 1_555
O10_7 Cu3_7 1_555 1_555
O15_5 C56_7 1_555 1_555
O16_5 C56_7 1_555 1_555
N5_7 Cu3_7 1_555 1_555
N8_7 Cu3_7 1_555 1_555
C33_7 N8_7 1_555 1_555
H34_7 C33_7 1_555 1_555
H35_7 C33_7 1_555 1_555
C34_7 N8_7 1_555 1_555
H36_7 C34_7 1_555 1_555
C35_7 C34_7 1_555 1_555
C36_7 C35_7 1_555 1_555
H37_7 C36_7 1_555 1_555
C37_7 C36_7 1_555 1_555
C38_7 C37_7 1_555 1_555
H38_7 C38_7 1_555 1_555
C39_7 C38_7 1_555 1_555
C40_7 O10_7 1_555 1_555
C41_7 N7_7 1_555 1_555
H39_7 C41_7 1_555 1_555
C56_7 C37_7 1_555 1_555
C35_7 C40_7 1_555 1_555
C39_7 C40_7 1_555 1_555
C39_7 C41_7 1_555 1_555
Cu2_7 O1_7 1_555 1_555
O1_7 C11_7 1_555 1_555
O3_6 C27_7 1_555 1_555
O4_6 C27_7 1_555 1_555
N2_7 Cu2_7 1_555 1_555
N3_7 Cu2_7 1_555 1_555
C5_7 N1_7 1_555 1_555
H8_7 C5_7 1_555 1_555
C6_7 C5_7 1_555 1_555
C7_7 C6_7 1_555 1_555
H9_7 C7_7 1_555 1_555
C8_7 C7_7 1_555 1_555
C9_7 C8_7 1_555 1_555
H10_7 C9_7 1_555 1_555
C10_7 C9_7 1_555 1_555
C11_7 C6_7 1_555 1_555
C12_7 N2_7 1_555 1_555
H11_7 C12_7 1_555 1_555
C13_7 N2_7 1_555 1_555
H12_7 C13_7 1_555 1_555
H13_7 C13_7 1_555 1_555
C27_7 C8_7 1_555 1_555
In3_2 O3_6 1_555 1_555
O4_6 In3_2 1_555 1_555
C10_7 C11_7 1_555 1_555
C10_7 C12_7 1_555 1_555
H40_8 C42_8 1_555 1_555
H41_8 C42_8 1_555 1_555
C43_8 C42_8 1_555 1_555
C44_8 C43_8 1_555 1_555
H42_8 C44_8 1_555 1_555
H43_8 C44_8 1_555 1_555
C45_8 C43_8 1_555 1_555
H45_8 C45_8 1_555 1_555
H46_8 C45_8 1_555 1_555
H47_8 C45_8 1_555 1_555
In3_2 O5_8 1_555 1_555
Cu3_8 O9_8 1_555 1_555
Cu4_8 O9_8 1_555 1_555
O2_8 Cu1_8 1_555 1_555
O5_8 C28_8 1_555 1_555
O6_8 In3_2 1_555 1_555
O7_8 In3_2 1_555 1_555
O8_8 In3_2 1_555 1_555
O9_8 C53_8 1_555 1_555
O10_8 Cu3_8 1_555 1_555
O15_6 C56_8 1_555 1_555
N4_8 Cu1_8 1_555 1_555
N5_8 Cu3_8 1_555 1_555
N6_8 Cu4_8 1_555 1_555
N7_8 Cu4_8 1_555 1_555
N8_8 Cu3_8 1_555 1_555
C1_8 C2_8 1_555 1_555
C2_8 H1_8 1_555 1_555
H2_8 C2_8 1_555 1_555
H3_8 C2_8 1_555 1_555
C3_8 C1_8 1_555 1_555
H4_8 C3_8 1_555 1_555
H5_8 C3_8 1_555 1_555
H6_8 C3_8 1_555 1_555
H7_8 C4_8 1_555 1_555
H22_8 C18_8 1_555 1_555
C19_8 C18_8 1_555 1_555
C20_8 C19_8 1_555 1_555
H23_8 C20_8 1_555 1_555
C21_8 C20_8 1_555 1_555
C22_8 C21_8 1_555 1_555
H24_8 C22_8 1_555 1_555
C23_8 C22_8 1_555 1_555
C24_8 O2_8 1_555 1_555
C25_8 N4_8 1_555 1_555
H25_8 C25_8 1_555 1_555
C26_8 N4_8 1_555 1_555
H26_8 C26_8 1_555 1_555
H27_8 C26_8 1_555 1_555
C28_8 O6_8 1_555 1_555
C29_8 O7_8 1_555 1_555
C30_6 C31_6 1_555 1_555
C31_6 H28_6 1_555 1_555
H29_8 C31_6 1_555 1_555
H30_6 C31_6 1_555 1_555
C32_6 C30_6 1_555 1_555
H31_6 C32_6 1_555 1_555
H32_6 C32_6 1_555 1_555
H33_6 C32_6 1_555 1_555
C33_8 N8_8 1_555 1_555
H34_8 C33_8 1_555 1_555
H35_8 C33_8 1_555 1_555
C34_8 N8_8 1_555 1_555
H36_8 C34_8 1_555 1_555
C35_8 C34_8 1_555 1_555
C36_8 C35_8 1_555 1_555
H37_8 C36_8 1_555 1_555
C37_8 C36_8 1_555 1_555
C38_8 C37_8 1_555 1_555
C39_8 C38_8 1_555 1_555
C40_8 O10_8 1_555 1_555
C41_8 N7_8 1_555 1_555
C46_8 N6_8 1_555 1_555
H48_8 C46_8 1_555 1_555
H49_8 C46_8 1_555 1_555
C47_8 N6_8 1_555 1_555
H50_8 C47_8 1_555 1_555
C48_8 C47_8 1_555 1_555
C49_8 C48_8 1_555 1_555
H51_8 C49_8 1_555 1_555
C50_8 C29_8 1_555 1_555
C51_8 C50_8 1_555 1_555
H52_8 C51_8 1_555 1_555
C52_8 C51_8 1_555 1_555
C53_8 C48_8 1_555 1_555
C54_8 N5_8 1_555 1_555
H53_8 C54_8 1_555 1_555
C55_6 N5_8 1_555 1_555
H54_6 C55_6 1_555 1_555
H55_6 C55_6 1_555 1_555
C56_8 C37_8 1_555 1_555
Cu4_8 O10_8 1_555 1_555
O8_8 C29_8 1_555 1_555
C1_8 C4_8 1_555 1_555
C1_8 C26_8 1_555 1_555
C19_8 C24_8 1_555 1_555
C21_8 C28_8 1_555 1_555
C23_8 C24_8 1_555 1_555
C23_8 C25_8 1_555 1_555
C30_6 C33_8 1_555 1_555
C30_6 C55_6 1_555 1_555
C35_8 C40_8 1_555 1_555
C39_8 C40_8 1_555 1_555
C39_8 C41_8 1_555 1_555
C49_8 C50_8 1_555 1_555
C52_8 C53_8 1_555 1_555
C52_8 C54_8 1_555 1_555
C4_8 H56_8 1_555 1_555
Cu2_8 O1_8 1_555 1_555
O1_8 C11_8 1_555 1_555
O13_2 C27_8 1_555 1_555
O14_2 C27_8 1_555 1_555
N2_8 Cu2_8 1_555 1_555
N3_8 Cu2_8 1_555 1_555
C5_8 N1_8 1_555 1_555
H8_8 C5_8 1_555 1_555
C6_8 C5_8 1_555 1_555
C7_8 C6_8 1_555 1_555
H9_8 C7_8 1_555 1_555
C8_8 C7_8 1_555 1_555
C9_8 C8_8 1_555 1_555
H10_8 C9_8 1_555 1_555
C10_8 C9_8 1_555 1_555
C11_8 C6_8 1_555 1_555
C12_8 N2_8 1_555 1_555
H11_8 C12_8 1_555 1_555
C13_8 N2_8 1_555 1_555
H12_8 C13_8 1_555 1_555
H13_8 C13_8 1_555 1_555
C14_6 C13_8 1_555 1_555
C15_6 C14_6 1_555 1_555
H14_6 C15_6 1_555 1_555
H15_6 C15_6 1_555 1_555
H16_8 C15_6 1_555 1_555
C16_6 C14_6 1_555 1_555
H17_6 C16_6 1_555 1_555
H18_6 C16_6 1_555 1_555
H19_6 C16_6 1_555 1_555
C17_6 N3_8 1_555 1_555
H20_6 C17_6 1_555 1_555
H21_6 C17_6 1_555 1_555
C27_8 C8_8 1_555 1_555
C10_8 C11_8 1_555 1_555
C10_8 C12_8 1_555 1_555
C14_6 C17_6 1_555 1_555
In1_3 O5_9 1_555 1_555
Cu1_9 O1_9 1_555 1_555
Cu2_9 O1_9 1_555 1_555
Cu3_9 O9_9 1_555 1_555
Cu4_9 O9_9 1_555 1_555
O1_9 C11_9 1_555 1_555
O2_9 Cu1_9 1_555 1_555
O3_7 C27_9 1_555 1_555
O4_7 C27_9 1_555 1_555
O5_9 C28_9 1_555 1_555
O6_9 In1_3 1_555 1_555
O7_9 In1_3 1_555 1_555
O8_9 In1_3 1_555 1_555
O9_9 C53_9 1_555 1_555
O10_9 Cu3_9 1_555 1_555
O11_3 C56_9 1_555 1_555
O12_3 C56_9 1_555 1_555
N1_9 Cu1_9 1_555 1_555
N2_9 Cu2_9 1_555 1_555
N3_9 Cu2_9 1_555 1_555
N4_9 Cu1_9 1_555 1_555
N5_9 Cu3_9 1_555 1_555
N6_9 Cu4_9 1_555 1_555
N7_9 Cu4_9 1_555 1_555
N8_9 Cu3_9 1_555 1_555
C1_9 C2_9 1_555 1_555
C2_9 H1_9 1_555 1_555
H2_9 C2_9 1_555 1_555
H3_9 C2_9 1_555 1_555
C3_9 C1_9 1_555 1_555
H4_9 C3_9 1_555 1_555
H5_9 C3_9 1_555 1_555
H6_9 C3_9 1_555 1_555
C4_9 N1_9 1_555 1_555
H7_9 C4_9 1_555 1_555
C5_9 N1_9 1_555 1_555
H8_9 C5_9 1_555 1_555
C6_9 C5_9 1_555 1_555
C7_9 C6_9 1_555 1_555
H9_9 C7_9 1_555 1_555
C8_9 C7_9 1_555 1_555
C9_9 C8_9 1_555 1_555
H10_9 C9_9 1_555 1_555
C10_9 C9_9 1_555 1_555
C11_9 C6_9 1_555 1_555
C12_9 N2_9 1_555 1_555
H11_9 C12_9 1_555 1_555
C13_9 N2_9 1_555 1_555
H12_9 C13_9 1_555 1_555
H13_9 C13_9 1_555 1_555
C14_7 C13_9 1_555 1_555
C15_7 C14_7 1_555 1_555
H14_7 C15_7 1_555 1_555
H15_7 C15_7 1_555 1_555
H16_9 C15_7 1_555 1_555
C16_7 C14_7 1_555 1_555
H17_7 C16_7 1_555 1_555
H18_7 C16_7 1_555 1_555
H19_7 C16_7 1_555 1_555
C17_7 N3_9 1_555 1_555
H20_7 C17_7 1_555 1_555
H21_7 C17_7 1_555 1_555
C18_9 N3_9 1_555 1_555
H22_9 C18_9 1_555 1_555
C19_9 C18_9 1_555 1_555
C20_9 C19_9 1_555 1_555
H23_9 C20_9 1_555 1_555
C21_9 C20_9 1_555 1_555
C22_9 C21_9 1_555 1_555
H24_9 C22_9 1_555 1_555
C23_9 C22_9 1_555 1_555
C24_9 O2_9 1_555 1_555
C25_9 N4_9 1_555 1_555
H25_9 C25_9 1_555 1_555
C26_9 N4_9 1_555 1_555
H26_9 C26_9 1_555 1_555
H27_9 C26_9 1_555 1_555
C27_9 C8_9 1_555 1_555
C28_9 O6_9 1_555 1_555
C29_9 O7_9 1_555 1_555
C30_7 C31_7 1_555 1_555
C31_7 H28_7 1_555 1_555
H29_9 C31_7 1_555 1_555
H30_7 C31_7 1_555 1_555
C32_7 C30_7 1_555 1_555
H31_7 C32_7 1_555 1_555
H32_7 C32_7 1_555 1_555
H33_7 C32_7 1_555 1_555
C33_9 N8_9 1_555 1_555
H34_9 C33_9 1_555 1_555
H35_9 C33_9 1_555 1_555
C34_9 N8_9 1_555 1_555
H36_9 C34_9 1_555 1_555
C35_9 C34_9 1_555 1_555
C36_9 C35_9 1_555 1_555
H37_9 C36_9 1_555 1_555
C37_9 C36_9 1_555 1_555
C38_9 C37_9 1_555 1_555
H38_9 C38_9 1_555 1_555
C39_9 C38_9 1_555 1_555
C40_9 O10_9 1_555 1_555
C41_9 N7_9 1_555 1_555
H39_9 C41_9 1_555 1_555
C42_9 N7_9 1_555 1_555
H40_9 C42_9 1_555 1_555
H41_9 C42_9 1_555 1_555
C43_9 C42_9 1_555 1_555
C44_9 C43_9 1_555 1_555
H42_9 C44_9 1_555 1_555
H43_9 C44_9 1_555 1_555
H44_9 C44_9 1_555 1_555
C45_9 C43_9 1_555 1_555
H45_9 C45_9 1_555 1_555
H46_9 C45_9 1_555 1_555
H47_9 C45_9 1_555 1_555
C46_9 N6_9 1_555 1_555
H48_9 C46_9 1_555 1_555
H49_9 C46_9 1_555 1_555
C47_9 N6_9 1_555 1_555
H50_9 C47_9 1_555 1_555
C48_9 C47_9 1_555 1_555
C49_9 C48_9 1_555 1_555
H51_9 C49_9 1_555 1_555
C50_9 C29_9 1_555 1_555
C51_9 C50_9 1_555 1_555
H52_9 C51_9 1_555 1_555
C52_9 C51_9 1_555 1_555
C53_9 C48_9 1_555 1_555
C54_9 N5_9 1_555 1_555
H53_9 C54_9 1_555 1_555
C55_7 N5_9 1_555 1_555
H54_7 C55_7 1_555 1_555
H55_7 C55_7 1_555 1_555
C56_9 C37_9 1_555 1_555
In2_5 O3_7 1_555 1_555
In3_3 O11_3 1_555 1_555
O13_3 In1_3 1_555 1_555
O14_3 In1_3 1_555 1_555
O15_7 In1_3 1_555 1_555
O16_7 In1_3 1_555 1_555
Cu2_9 O2_9 1_555 1_555
Cu4_9 O10_9 1_555 1_555
O4_7 In2_5 1_555 1_555
O8_9 C29_9 1_555 1_555
O12_3 In3_3 1_555 1_555
C1_9 C4_9 1_555 1_555
C1_9 C26_9 1_555 1_555
C10_9 C11_9 1_555 1_555
C10_9 C12_9 1_555 1_555
C14_7 C17_7 1_555 1_555
C19_9 C24_9 1_555 1_555
C21_9 C28_9 1_555 1_555
C23_9 C24_9 1_555 1_555
C23_9 C25_9 1_555 1_555
C30_7 C33_9 1_555 1_555
C30_7 C55_7 1_555 1_555
C35_9 C40_9 1_555 1_555
C39_9 C40_9 1_555 1_555
C39_9 C41_9 1_555 1_555
C43_9 C46_9 1_555 1_555
C49_9 C50_9 1_555 1_555
C52_9 C53_9 1_555 1_555
C52_9 C54_9 1_555 1_555
C4_9 H56_9 1_555 1_555
Cu2_10 O1_10 1_555 1_555
O1_10 C11_10 1_555 1_555
O13_3 C27_10 1_555 1_555
O14_3 C27_10 1_555 1_555
N2_10 Cu2_10 1_555 1_555
N3_10 Cu2_10 1_555 1_555
C5_10 N1_10 1_555 1_555
H8_10 C5_10 1_555 1_555
C6_10 C5_10 1_555 1_555
C7_10 C6_10 1_555 1_555
H9_10 C7_10 1_555 1_555
C8_10 C7_10 1_555 1_555
C9_10 C8_10 1_555 1_555
H10_10 C9_10 1_555 1_555
C10_10 C9_10 1_555 1_555
C11_10 C6_10 1_555 1_555
C12_10 N2_10 1_555 1_555
H11_10 C12_10 1_555 1_555
C13_10 N2_10 1_555 1_555
H12_10 C13_10 1_555 1_555
H13_10 C13_10 1_555 1_555
C14_8 C13_10 1_555 1_555
C15_8 C14_8 1_555 1_555
H14_8 C15_8 1_555 1_555
H15_8 C15_8 1_555 1_555
H16_10 C15_8 1_555 1_555
C16_8 C14_8 1_555 1_555
H17_8 C16_8 1_555 1_555
H18_8 C16_8 1_555 1_555
H19_8 C16_8 1_555 1_555
C17_8 N3_10 1_555 1_555
H20_8 C17_8 1_555 1_555
H21_8 C17_8 1_555 1_555
C27_10 C8_10 1_555 1_555
C10_10 C11_10 1_555 1_555
C10_10 C12_10 1_555 1_555
C14_8 C17_8 1_555 1_555
In3_3 O5_10 1_555 1_555
Cu3_10 O9_10 1_555 1_555
Cu4_10 O9_10 1_555 1_555
O2_10 Cu1_10 1_555 1_555
O5_10 C28_10 1_555 1_555
O6_10 In3_3 1_555 1_555
O7_10 In3_3 1_555 1_555
O8_10 In3_3 1_555 1_555
O9_10 C53_10 1_555 1_555
O10_10 Cu3_10 1_555 1_555
O11_4 C56_10 1_555 1_555
N4_10 Cu1_10 1_555 1_555
N5_10 Cu3_10 1_555 1_555
N6_10 Cu4_10 1_555 1_555
N7_10 Cu4_10 1_555 1_555
N8_10 Cu3_10 1_555 1_555
C1_10 C2_10 1_555 1_555
C2_10 H1_10 1_555 1_555
H2_10 C2_10 1_555 1_555
H3_10 C2_10 1_555 1_555
C3_10 C1_10 1_555 1_555
H4_10 C3_10 1_555 1_555
H5_10 C3_10 1_555 1_555
H6_10 C3_10 1_555 1_555
H7_10 C4_10 1_555 1_555
H22_10 C18_10 1_555 1_555
C19_10 C18_10 1_555 1_555
C20_10 C19_10 1_555 1_555
H23_10 C20_10 1_555 1_555
C21_10 C20_10 1_555 1_555
C22_10 C21_10 1_555 1_555
H24_10 C22_10 1_555 1_555
C23_10 C22_10 1_555 1_555
C24_10 O2_10 1_555 1_555
C25_10 N4_10 1_555 1_555
H25_10 C25_10 1_555 1_555
C26_10 N4_10 1_555 1_555
H26_10 C26_10 1_555 1_555
H27_10 C26_10 1_555 1_555
C28_10 O6_10 1_555 1_555
C29_10 O7_10 1_555 1_555
C30_8 C31_8 1_555 1_555
C31_8 H28_8 1_555 1_555
H29_10 C31_8 1_555 1_555
H30_8 C31_8 1_555 1_555
C32_8 C30_8 1_555 1_555
H31_8 C32_8 1_555 1_555
H32_8 C32_8 1_555 1_555
H33_8 C32_8 1_555 1_555
C33_10 N8_10 1_555 1_555
H34_10 C33_10 1_555 1_555
H35_10 C33_10 1_555 1_555
C34_10 N8_10 1_555 1_555
H36_10 C34_10 1_555 1_555
C35_10 C34_10 1_555 1_555
C36_10 C35_10 1_555 1_555
H37_10 C36_10 1_555 1_555
C37_10 C36_10 1_555 1_555
C38_10 C37_10 1_555 1_555
C39_10 C38_10 1_555 1_555
C40_10 O10_10 1_555 1_555
C41_10 N7_10 1_555 1_555
C46_10 N6_10 1_555 1_555
H48_10 C46_10 1_555 1_555
H49_10 C46_10 1_555 1_555
C47_10 N6_10 1_555 1_555
H50_10 C47_10 1_555 1_555
C48_10 C47_10 1_555 1_555
C49_10 C48_10 1_555 1_555
H51_10 C49_10 1_555 1_555
C50_10 C29_10 1_555 1_555
C51_10 C50_10 1_555 1_555
H52_10 C51_10 1_555 1_555
C52_10 C51_10 1_555 1_555
C53_10 C48_10 1_555 1_555
C54_10 N5_10 1_555 1_555
H53_10 C54_10 1_555 1_555
C55_8 N5_10 1_555 1_555
H54_8 C55_8 1_555 1_555
H55_8 C55_8 1_555 1_555
C56_10 C37_10 1_555 1_555
In3_4 O11_4 1_555 1_555
O13_4 In3_3 1_555 1_555
O14_4 In3_3 1_555 1_555
Cu4_10 O10_10 1_555 1_555
O8_10 C29_10 1_555 1_555
C1_10 C4_10 1_555 1_555
C1_10 C26_10 1_555 1_555
C19_10 C24_10 1_555 1_555
C21_10 C28_10 1_555 1_555
C23_10 C24_10 1_555 1_555
C23_10 C25_10 1_555 1_555
C30_8 C33_10 1_555 1_555
C30_8 C55_8 1_555 1_555
C35_10 C40_10 1_555 1_555
C39_10 C40_10 1_555 1_555
C39_10 C41_10 1_555 1_555
C49_10 C50_10 1_555 1_555
C52_10 C53_10 1_555 1_555
C52_10 C54_10 1_555 1_555
C4_10 H56_10 1_555 1_555
H40_10 C42_10 1_555 1_555
H41_10 C42_10 1_555 1_555
C43_10 C42_10 1_555 1_555
C44_10 C43_10 1_555 1_555
H42_10 C44_10 1_555 1_555
H43_10 C44_10 1_555 1_555
C45_10 C43_10 1_555 1_555
H45_10 C45_10 1_555 1_555
H46_10 C45_10 1_555 1_555
H47_10 C45_10 1_555 1_555
O10_11 Cu3_11 1_555 1_555
O11_5 C56_11 1_555 1_555
O12_5 C56_11 1_555 1_555
N5_11 Cu3_11 1_555 1_555
N8_11 Cu3_11 1_555 1_555
C33_11 N8_11 1_555 1_555
H34_11 C33_11 1_555 1_555
H35_11 C33_11 1_555 1_555
C34_11 N8_11 1_555 1_555
H36_11 C34_11 1_555 1_555
C35_11 C34_11 1_555 1_555
C36_11 C35_11 1_555 1_555
H37_11 C36_11 1_555 1_555
C37_11 C36_11 1_555 1_555
C38_11 C37_11 1_555 1_555
H38_11 C38_11 1_555 1_555
C39_11 C38_11 1_555 1_555
C40_11 O10_11 1_555 1_555
C41_11 N7_11 1_555 1_555
H39_11 C41_11 1_555 1_555
C56_11 C37_11 1_555 1_555
In2_5 O11_5 1_555 1_555
O12_5 In2_5 1_555 1_555
C35_11 C40_11 1_555 1_555
C39_11 C40_11 1_555 1_555
C39_11 C41_11 1_555 1_555
In3_4 O5_11 1_555 1_555
O2_11 Cu1_11 1_555 1_555
O5_11 C28_11 1_555 1_555
O7_11 In3_4 1_555 1_555
N4_11 Cu1_11 1_555 1_555
C1_11 C2_11 1_555 1_555
C2_11 H1_11 1_555 1_555
H2_11 C2_11 1_555 1_555
H3_11 C2_11 1_555 1_555
C3_11 C1_11 1_555 1_555
H4_11 C3_11 1_555 1_555
H5_11 C3_11 1_555 1_555
H6_11 C3_11 1_555 1_555
H7_11 C4_11 1_555 1_555
C19_11 C18_11 1_555 1_555
C20_11 C19_11 1_555 1_555
C21_11 C20_11 1_555 1_555
C22_11 C21_11 1_555 1_555
H24_11 C22_11 1_555 1_555
C23_11 C22_11 1_555 1_555
C24_11 O2_11 1_555 1_555
C25_11 N4_11 1_555 1_555
H25_11 C25_11 1_555 1_555
C26_11 N4_11 1_555 1_555
H26_11 C26_11 1_555 1_555
H27_11 C26_11 1_555 1_555
O13_5 In3_4 1_555 1_555
C1_11 C4_11 1_555 1_555
C1_11 C26_11 1_555 1_555
C19_11 C24_11 1_555 1_555
C21_11 C28_11 1_555 1_555
C23_11 C24_11 1_555 1_555
C23_11 C25_11 1_555 1_555
C4_11 H56_11 1_555 1_555
Cu4_11 O9_11 1_555 1_555
O9_11 C53_11 1_555 1_555
N6_11 Cu4_11 1_555 1_555
H40_11 C42_11 1_555 1_555
H41_11 C42_11 1_555 1_555
C43_11 C42_11 1_555 1_555
C44_11 C43_11 1_555 1_555
H42_11 C44_11 1_555 1_555
H43_11 C44_11 1_555 1_555
H44_11 C44_11 1_555 1_555
C45_11 C43_11 1_555 1_555
H45_11 C45_11 1_555 1_555
H46_11 C45_11 1_555 1_555
H47_11 C45_11 1_555 1_555
C46_11 N6_11 1_555 1_555
H48_11 C46_11 1_555 1_555
H49_11 C46_11 1_555 1_555
C47_11 N6_11 1_555 1_555
H50_11 C47_11 1_555 1_555
C48_11 C47_11 1_555 1_555
C49_11 C48_11 1_555 1_555
H51_11 C49_11 1_555 1_555
C50_11 C29_11 1_555 1_555
C51_11 C50_11 1_555 1_555
C52_11 C51_11 1_555 1_555
C53_11 C48_11 1_555 1_555
O8_11 C29_11 1_555 1_555
C43_11 C46_11 1_555 1_555
C49_11 C50_11 1_555 1_555
C52_11 C53_11 1_555 1_555
C52_11 C54_11 1_555 1_555
Cu2_11 O1_11 1_555 1_555
O1_11 C11_11 1_555 1_555
O13_4 C27_11 1_555 1_555
O14_4 C27_11 1_555 1_555
N2_11 Cu2_11 1_555 1_555
N3_11 Cu2_11 1_555 1_555
C5_11 N1_11 1_555 1_555
H8_11 C5_11 1_555 1_555
C6_11 C5_11 1_555 1_555
C7_11 C6_11 1_555 1_555
H9_11 C7_11 1_555 1_555
C8_11 C7_11 1_555 1_555
C9_11 C8_11 1_555 1_555
H10_11 C9_11 1_555 1_555
C10_11 C9_11 1_555 1_555
C11_11 C6_11 1_555 1_555
C12_11 N2_11 1_555 1_555
H11_11 C12_11 1_555 1_555
C13_11 N2_11 1_555 1_555
H12_11 C13_11 1_555 1_555
H13_11 C13_11 1_555 1_555
C27_11 C8_11 1_555 1_555
C10_11 C11_11 1_555 1_555
C10_11 C12_11 1_555 1_555
C1_12 C2_12 1_555 1_555
C2_12 H1_12 1_555 1_555
H2_12 C2_12 1_555 1_555
H3_12 C2_12 1_555 1_555
C3_12 C1_12 1_555 1_555
H4_12 C3_12 1_555 1_555
H6_12 C3_12 1_555 1_555
H7_12 C4_12 1_555 1_555
C1_12 C4_12 1_555 1_555
C4_12 H56_12 1_555 1_555
In2_5 O5_12 1_555 1_555
Cu1_12 O1_12 1_555 1_555
Cu2_12 O1_12 1_555 1_555
Cu4_12 O9_12 1_555 1_555
O1_12 C11_12 1_555 1_555
O2_12 Cu1_12 1_555 1_555
O14_5 C27_12 1_555 1_555
O5_12 C28_12 1_555 1_555
O6_12 In2_5 1_555 1_555
O7_12 In2_5 1_555 1_555
O8_12 In2_5 1_555 1_555
O9_12 C53_12 1_555 1_555
N1_12 Cu1_12 1_555 1_555
N2_12 Cu2_12 1_555 1_555
N3_12 Cu2_12 1_555 1_555
N4_12 Cu1_12 1_555 1_555
N6_12 Cu4_12 1_555 1_555
C5_12 N1_12 1_555 1_555
C6_12 C5_12 1_555 1_555
C7_12 C6_12 1_555 1_555
C8_12 C7_12 1_555 1_555
C9_12 C8_12 1_555 1_555
H10_12 C9_12 1_555 1_555
C10_12 C9_12 1_555 1_555
C11_12 C6_12 1_555 1_555
C12_12 N2_12 1_555 1_555
H11_12 C12_12 1_555 1_555
C13_12 N2_12 1_555 1_555
H12_12 C13_12 1_555 1_555
H13_12 C13_12 1_555 1_555
C14_9 C13_12 1_555 1_555
C15_9 C14_9 1_555 1_555
H14_9 C15_9 1_555 1_555
H15_9 C15_9 1_555 1_555
H16_12 C15_9 1_555 1_555
C16_9 C14_9 1_555 1_555
H17_9 C16_9 1_555 1_555
H18_9 C16_9 1_555 1_555
H19_9 C16_9 1_555 1_555
C17_9 N3_12 1_555 1_555
H20_9 C17_9 1_555 1_555
H21_9 C17_9 1_555 1_555
C18_12 N3_12 1_555 1_555
H22_12 C18_12 1_555 1_555
C19_12 C18_12 1_555 1_555
C20_12 C19_12 1_555 1_555
H23_12 C20_12 1_555 1_555
C21_12 C20_12 1_555 1_555
C22_12 C21_12 1_555 1_555
H24_12 C22_12 1_555 1_555
C23_12 C22_12 1_555 1_555
C24_12 O2_12 1_555 1_555
C25_12 N4_12 1_555 1_555
H25_12 C25_12 1_555 1_555
C26_12 N4_12 1_555 1_555
H26_12 C26_12 1_555 1_555
H27_12 C26_12 1_555 1_555
C27_12 C8_12 1_555 1_555
C28_12 O6_12 1_555 1_555
C29_12 O7_12 1_555 1_555
H40_12 C42_12 1_555 1_555
H41_12 C42_12 1_555 1_555
C43_12 C42_12 1_555 1_555
C44_12 C43_12 1_555 1_555
H42_12 C44_12 1_555 1_555
H43_12 C44_12 1_555 1_555
H44_12 C44_12 1_555 1_555
C45_12 C43_12 1_555 1_555
H45_12 C45_12 1_555 1_555
H46_12 C45_12 1_555 1_555
H47_12 C45_12 1_555 1_555
C46_12 N6_12 1_555 1_555
H48_12 C46_12 1_555 1_555
H49_12 C46_12 1_555 1_555
C47_12 N6_12 1_555 1_555
H50_12 C47_12 1_555 1_555
C48_12 C47_12 1_555 1_555
C49_12 C48_12 1_555 1_555
H51_12 C49_12 1_555 1_555
C50_12 C29_12 1_555 1_555
C51_12 C50_12 1_555 1_555
H52_12 C51_12 1_555 1_555
C52_12 C51_12 1_555 1_555
C53_12 C48_12 1_555 1_555
H53_12 C54_12 1_555 1_555
Cu2_12 O2_12 1_555 1_555
O8_12 C29_12 1_555 1_555
C10_12 C11_12 1_555 1_555
C10_12 C12_12 1_555 1_555
C14_9 C17_9 1_555 1_555
C19_12 C24_12 1_555 1_555
C21_12 C28_12 1_555 1_555
C23_12 C24_12 1_555 1_555
C23_12 C25_12 1_555 1_555
C43_12 C46_12 1_555 1_555
C49_12 C50_12 1_555 1_555
C52_12 C53_12 1_555 1_555
C52_12 C54_12 1_555 1_555
O10_12 Cu3_12 1_555 1_555
O15_7 C56_12 1_555 1_555
O16_7 C56_12 1_555 1_555
N5_12 Cu3_12 1_555 1_555
N8_12 Cu3_12 1_555 1_555
C30_9 C31_9 1_555 1_555
C31_9 H28_9 1_555 1_555
H29_12 C31_9 1_555 1_555
H30_9 C31_9 1_555 1_555
C32_9 C30_9 1_555 1_555
H31_9 C32_9 1_555 1_555
H32_9 C32_9 1_555 1_555
H33_9 C32_9 1_555 1_555
C33_12 N8_12 1_555 1_555
H34_12 C33_12 1_555 1_555
H35_12 C33_12 1_555 1_555
C34_12 N8_12 1_555 1_555
H36_12 C34_12 1_555 1_555
C35_12 C34_12 1_555 1_555
C36_12 C35_12 1_555 1_555
H37_12 C36_12 1_555 1_555
C37_12 C36_12 1_555 1_555
C38_12 C37_12 1_555 1_555
H38_12 C38_12 1_555 1_555
C39_12 C38_12 1_555 1_555
C40_12 O10_12 1_555 1_555
C41_12 N7_12 1_555 1_555
H39_12 C41_12 1_555 1_555
C55_9 N5_12 1_555 1_555
H54_9 C55_9 1_555 1_555
H55_9 C55_9 1_555 1_555
C56_12 C37_12 1_555 1_555
C30_9 C33_12 1_555 1_555
C30_9 C55_9 1_555 1_555
C35_12 C40_12 1_555 1_555
C39_12 C40_12 1_555 1_555
C39_12 C41_12 1_555 1_555
In1_4 O5_13 1_555 1_555
Cu1_13 O1_13 1_555 1_555
Cu2_13 O1_13 1_555 1_555
Cu3_13 O9_13 1_555 1_555
Cu4_13 O9_13 1_555 1_555
O1_13 C11_13 1_555 1_555
O2_13 Cu1_13 1_555 1_555
O3_8 C27_13 1_555 1_555
O4_8 C27_13 1_555 1_555
O5_13 C28_13 1_555 1_555
O6_13 In1_4 1_555 1_555
O7_13 In1_4 1_555 1_555
O8_13 In1_4 1_555 1_555
O9_13 C53_13 1_555 1_555
O10_13 Cu3_13 1_555 1_555
O11_6 C56_13 1_555 1_555
O12_6 C56_13 1_555 1_555
N1_13 Cu1_13 1_555 1_555
N2_13 Cu2_13 1_555 1_555
N3_13 Cu2_13 1_555 1_555
N4_13 Cu1_13 1_555 1_555
N5_13 Cu3_13 1_555 1_555
N6_13 Cu4_13 1_555 1_555
N7_13 Cu4_13 1_555 1_555
N8_13 Cu3_13 1_555 1_555
C1_13 C2_13 1_555 1_555
C2_13 H1_13 1_555 1_555
H2_13 C2_13 1_555 1_555
H3_13 C2_13 1_555 1_555
C3_13 C1_13 1_555 1_555
H4_13 C3_13 1_555 1_555
H5_13 C3_13 1_555 1_555
H6_13 C3_13 1_555 1_555
C4_13 N1_13 1_555 1_555
H7_13 C4_13 1_555 1_555
C5_13 N1_13 1_555 1_555
H8_13 C5_13 1_555 1_555
C6_13 C5_13 1_555 1_555
C7_13 C6_13 1_555 1_555
H9_13 C7_13 1_555 1_555
C8_13 C7_13 1_555 1_555
C9_13 C8_13 1_555 1_555
H10_13 C9_13 1_555 1_555
C10_13 C9_13 1_555 1_555
C11_13 C6_13 1_555 1_555
C12_13 N2_13 1_555 1_555
H11_13 C12_13 1_555 1_555
C13_13 N2_13 1_555 1_555
H12_13 C13_13 1_555 1_555
H13_13 C13_13 1_555 1_555
C14_10 C13_13 1_555 1_555
C15_10 C14_10 1_555 1_555
H14_10 C15_10 1_555 1_555
H15_10 C15_10 1_555 1_555
H16_13 C15_10 1_555 1_555
C16_10 C14_10 1_555 1_555
H17_10 C16_10 1_555 1_555
H18_10 C16_10 1_555 1_555
H19_10 C16_10 1_555 1_555
C17_10 N3_13 1_555 1_555
H20_10 C17_10 1_555 1_555
H21_10 C17_10 1_555 1_555
C18_13 N3_13 1_555 1_555
H22_13 C18_13 1_555 1_555
C19_13 C18_13 1_555 1_555
C20_13 C19_13 1_555 1_555
H23_13 C20_13 1_555 1_555
C21_13 C20_13 1_555 1_555
C22_13 C21_13 1_555 1_555
H24_13 C22_13 1_555 1_555
C23_13 C22_13 1_555 1_555
C24_13 O2_13 1_555 1_555
C25_13 N4_13 1_555 1_555
H25_13 C25_13 1_555 1_555
C26_13 N4_13 1_555 1_555
H26_13 C26_13 1_555 1_555
H27_13 C26_13 1_555 1_555
C27_13 C8_13 1_555 1_555
C28_13 O6_13 1_555 1_555
C29_13 O7_13 1_555 1_555
C30_10 C31_10 1_555 1_555
C31_10 H28_10 1_555 1_555
H29_13 C31_10 1_555 1_555
H30_10 C31_10 1_555 1_555
C32_10 C30_10 1_555 1_555
H31_10 C32_10 1_555 1_555
H32_10 C32_10 1_555 1_555
H33_10 C32_10 1_555 1_555
C33_13 N8_13 1_555 1_555
H34_13 C33_13 1_555 1_555
H35_13 C33_13 1_555 1_555
C34_13 N8_13 1_555 1_555
H36_13 C34_13 1_555 1_555
C35_13 C34_13 1_555 1_555
C36_13 C35_13 1_555 1_555
H37_13 C36_13 1_555 1_555
C37_13 C36_13 1_555 1_555
C38_13 C37_13 1_555 1_555
H38_13 C38_13 1_555 1_555
C39_13 C38_13 1_555 1_555
C40_13 O10_13 1_555 1_555
C41_13 N7_13 1_555 1_555
H39_13 C41_13 1_555 1_555
C42_13 N7_13 1_555 1_555
H40_13 C42_13 1_555 1_555
H41_13 C42_13 1_555 1_555
C43_13 C42_13 1_555 1_555
C44_13 C43_13 1_555 1_555
H42_13 C44_13 1_555 1_555
H43_13 C44_13 1_555 1_555
H44_13 C44_13 1_555 1_555
C45_13 C43_13 1_555 1_555
H45_13 C45_13 1_555 1_555
H46_13 C45_13 1_555 1_555
H47_13 C45_13 1_555 1_555
C46_13 N6_13 1_555 1_555
H48_13 C46_13 1_555 1_555
H49_13 C46_13 1_555 1_555
C47_13 N6_13 1_555 1_555
H50_13 C47_13 1_555 1_555
C48_13 C47_13 1_555 1_555
C49_13 C48_13 1_555 1_555
H51_13 C49_13 1_555 1_555
C50_13 C29_13 1_555 1_555
C51_13 C50_13 1_555 1_555
H52_13 C51_13 1_555 1_555
C52_13 C51_13 1_555 1_555
C53_13 C48_13 1_555 1_555
C54_13 N5_13 1_555 1_555
H53_13 C54_13 1_555 1_555
C55_10 N5_13 1_555 1_555
H54_10 C55_10 1_555 1_555
H55_10 C55_10 1_555 1_555
C56_13 C37_13 1_555 1_555
In2_6 O3_8 1_555 1_555
In3_5 O11_6 1_555 1_555
O13_6 In1_4 1_555 1_555
O14_6 In1_4 1_555 1_555
O15_8 In1_4 1_555 1_555
O16_8 In1_4 1_555 1_555
Cu2_13 O2_13 1_555 1_555
Cu4_13 O10_13 1_555 1_555
O4_8 In2_6 1_555 1_555
O8_13 C29_13 1_555 1_555
O12_6 In3_5 1_555 1_555
C1_13 C4_13 1_555 1_555
C1_13 C26_13 1_555 1_555
C10_13 C11_13 1_555 1_555
C10_13 C12_13 1_555 1_555
C14_10 C17_10 1_555 1_555
C19_13 C24_13 1_555 1_555
C21_13 C28_13 1_555 1_555
C23_13 C24_13 1_555 1_555
C23_13 C25_13 1_555 1_555
C30_10 C33_13 1_555 1_555
C30_10 C55_10 1_555 1_555
C35_13 C40_13 1_555 1_555
C39_13 C40_13 1_555 1_555
C39_13 C41_13 1_555 1_555
C43_13 C46_13 1_555 1_555
C49_13 C50_13 1_555 1_555
C52_13 C53_13 1_555 1_555
C52_13 C54_13 1_555 1_555
C4_13 H56_13 1_555 1_555
In3_5 O5_14 1_555 1_555
Cu3_14 O9_14 1_555 1_555
Cu4_14 O9_14 1_555 1_555
O2_14 Cu1_14 1_555 1_555
O5_14 C28_14 1_555 1_555
O6_14 In3_5 1_555 1_555
O7_14 In3_5 1_555 1_555
O8_14 In3_5 1_555 1_555
O9_14 C53_14 1_555 1_555
O10_14 Cu3_14 1_555 1_555
O11_7 C56_14 1_555 1_555
N4_14 Cu1_14 1_555 1_555
N5_14 Cu3_14 1_555 1_555
N6_14 Cu4_14 1_555 1_555
N7_14 Cu4_14 1_555 1_555
N8_14 Cu3_14 1_555 1_555
C1_14 C2_14 1_555 1_555
C2_14 H1_14 1_555 1_555
H2_14 C2_14 1_555 1_555
H3_14 C2_14 1_555 1_555
C3_14 C1_14 1_555 1_555
H4_14 C3_14 1_555 1_555
H5_14 C3_14 1_555 1_555
H6_14 C3_14 1_555 1_555
H7_14 C4_14 1_555 1_555
H22_14 C18_14 1_555 1_555
C19_14 C18_14 1_555 1_555
C20_14 C19_14 1_555 1_555
H23_14 C20_14 1_555 1_555
C21_14 C20_14 1_555 1_555
C22_14 C21_14 1_555 1_555
H24_14 C22_14 1_555 1_555
C23_14 C22_14 1_555 1_555
C24_14 O2_14 1_555 1_555
C25_14 N4_14 1_555 1_555
H25_14 C25_14 1_555 1_555
C26_14 N4_14 1_555 1_555
H26_14 C26_14 1_555 1_555
H27_14 C26_14 1_555 1_555
C28_14 O6_14 1_555 1_555
C29_14 O7_14 1_555 1_555
C30_11 C31_11 1_555 1_555
C31_11 H28_11 1_555 1_555
H29_14 C31_11 1_555 1_555
H30_11 C31_11 1_555 1_555
C32_11 C30_11 1_555 1_555
H31_11 C32_11 1_555 1_555
H32_11 C32_11 1_555 1_555
H33_11 C32_11 1_555 1_555
C33_14 N8_14 1_555 1_555
H34_14 C33_14 1_555 1_555
H35_14 C33_14 1_555 1_555
C34_14 N8_14 1_555 1_555
H36_14 C34_14 1_555 1_555
C35_14 C34_14 1_555 1_555
C36_14 C35_14 1_555 1_555
H37_14 C36_14 1_555 1_555
C37_14 C36_14 1_555 1_555
C38_14 C37_14 1_555 1_555
C39_14 C38_14 1_555 1_555
C40_14 O10_14 1_555 1_555
C41_14 N7_14 1_555 1_555
C46_14 N6_14 1_555 1_555
H48_14 C46_14 1_555 1_555
H49_14 C46_14 1_555 1_555
C47_14 N6_14 1_555 1_555
H50_14 C47_14 1_555 1_555
C48_14 C47_14 1_555 1_555
C49_14 C48_14 1_555 1_555
H51_14 C49_14 1_555 1_555
C50_14 C29_14 1_555 1_555
C51_14 C50_14 1_555 1_555
H52_14 C51_14 1_555 1_555
C52_14 C51_14 1_555 1_555
C53_14 C48_14 1_555 1_555
C54_14 N5_14 1_555 1_555
H53_14 C54_14 1_555 1_555
C55_11 N5_14 1_555 1_555
H54_11 C55_11 1_555 1_555
H55_11 C55_11 1_555 1_555
C56_14 C37_14 1_555 1_555
In3_6 O11_7 1_555 1_555
O13_7 In3_5 1_555 1_555
O14_7 In3_5 1_555 1_555
Cu4_14 O10_14 1_555 1_555
O8_14 C29_14 1_555 1_555
C1_14 C4_14 1_555 1_555
C1_14 C26_14 1_555 1_555
C19_14 C24_14 1_555 1_555
C21_14 C28_14 1_555 1_555
C23_14 C24_14 1_555 1_555
C23_14 C25_14 1_555 1_555
C30_11 C33_14 1_555 1_555
C30_11 C55_11 1_555 1_555
C35_14 C40_14 1_555 1_555
C39_14 C40_14 1_555 1_555
C39_14 C41_14 1_555 1_555
C49_14 C50_14 1_555 1_555
C52_14 C53_14 1_555 1_555
C52_14 C54_14 1_555 1_555
C4_14 H56_14 1_555 1_555
H40_14 C42_14 1_555 1_555
H41_14 C42_14 1_555 1_555
C43_14 C42_14 1_555 1_555
C44_14 C43_14 1_555 1_555
H42_14 C44_14 1_555 1_555
H43_14 C44_14 1_555 1_555
C45_14 C43_14 1_555 1_555
H45_14 C45_14 1_555 1_555
H46_14 C45_14 1_555 1_555
H47_14 C45_14 1_555 1_555
Cu2_14 O1_14 1_555 1_555
O1_14 C11_14 1_555 1_555
O13_6 C27_14 1_555 1_555
O14_6 C27_14 1_555 1_555
N2_14 Cu2_14 1_555 1_555
N3_14 Cu2_14 1_555 1_555
C5_14 N1_14 1_555 1_555
H8_14 C5_14 1_555 1_555
C6_14 C5_14 1_555 1_555
C7_14 C6_14 1_555 1_555
H9_14 C7_14 1_555 1_555
C8_14 C7_14 1_555 1_555
C9_14 C8_14 1_555 1_555
H10_14 C9_14 1_555 1_555
C10_14 C9_14 1_555 1_555
C11_14 C6_14 1_555 1_555
C12_14 N2_14 1_555 1_555
H11_14 C12_14 1_555 1_555
C13_14 N2_14 1_555 1_555
H12_14 C13_14 1_555 1_555
H13_14 C13_14 1_555 1_555
C14_11 C13_14 1_555 1_555
C15_11 C14_11 1_555 1_555
H14_11 C15_11 1_555 1_555
H15_11 C15_11 1_555 1_555
H16_14 C15_11 1_555 1_555
C16_11 C14_11 1_555 1_555
H17_11 C16_11 1_555 1_555
H18_11 C16_11 1_555 1_555
H19_11 C16_11 1_555 1_555
C17_11 N3_14 1_555 1_555
H20_11 C17_11 1_555 1_555
H21_11 C17_11 1_555 1_555
C27_14 C8_14 1_555 1_555
C10_14 C11_14 1_555 1_555
C10_14 C12_14 1_555 1_555
C14_11 C17_11 1_555 1_555
Cu2_15 O1_15 1_555 1_555
O1_15 C11_15 1_555 1_555
O13_7 C27_15 1_555 1_555
O14_7 C27_15 1_555 1_555
N2_15 Cu2_15 1_555 1_555
N3_15 Cu2_15 1_555 1_555
C5_15 N1_15 1_555 1_555
H8_15 C5_15 1_555 1_555
C6_15 C5_15 1_555 1_555
C7_15 C6_15 1_555 1_555
H9_15 C7_15 1_555 1_555
C8_15 C7_15 1_555 1_555
C9_15 C8_15 1_555 1_555
H10_15 C9_15 1_555 1_555
C10_15 C9_15 1_555 1_555
C11_15 C6_15 1_555 1_555
C12_15 N2_15 1_555 1_555
H11_15 C12_15 1_555 1_555
C13_15 N2_15 1_555 1_555
H12_15 C13_15 1_555 1_555
H13_15 C13_15 1_555 1_555
C27_15 C8_15 1_555 1_555
C10_15 C11_15 1_555 1_555
C10_15 C12_15 1_555 1_555
In3_6 O5_15 1_555 1_555
O2_15 Cu1_15 1_555 1_555
O5_15 C28_15 1_555 1_555
O7_15 In3_6 1_555 1_555
N4_15 Cu1_15 1_555 1_555
C1_15 C2_15 1_555 1_555
C2_15 H1_15 1_555 1_555
H2_15 C2_15 1_555 1_555
H3_15 C2_15 1_555 1_555
C3_15 C1_15 1_555 1_555
H4_15 C3_15 1_555 1_555
H5_15 C3_15 1_555 1_555
H6_15 C3_15 1_555 1_555
H7_15 C4_15 1_555 1_555
C19_15 C18_15 1_555 1_555
C20_15 C19_15 1_555 1_555
C21_15 C20_15 1_555 1_555
C22_15 C21_15 1_555 1_555
H24_15 C22_15 1_555 1_555
C23_15 C22_15 1_555 1_555
C24_15 O2_15 1_555 1_555
C25_15 N4_15 1_555 1_555
H25_15 C25_15 1_555 1_555
C26_15 N4_15 1_555 1_555
H26_15 C26_15 1_555 1_555
H27_15 C26_15 1_555 1_555
O13_8 In3_6 1_555 1_555
C1_15 C4_15 1_555 1_555
C1_15 C26_15 1_555 1_555
C19_15 C24_15 1_555 1_555
C21_15 C28_15 1_555 1_555
C23_15 C24_15 1_555 1_555
C23_15 C25_15 1_555 1_555
C4_15 H56_15 1_555 1_555
Cu4_15 O9_15 1_555 1_555
O9_15 C53_15 1_555 1_555
N6_15 Cu4_15 1_555 1_555
H40_15 C42_15 1_555 1_555
H41_15 C42_15 1_555 1_555
C43_15 C42_15 1_555 1_555
C44_15 C43_15 1_555 1_555
H42_15 C44_15 1_555 1_555
H43_15 C44_15 1_555 1_555
H44_15 C44_15 1_555 1_555
C45_15 C43_15 1_555 1_555
H45_15 C45_15 1_555 1_555
H46_15 C45_15 1_555 1_555
H47_15 C45_15 1_555 1_555
C46_15 N6_15 1_555 1_555
H48_15 C46_15 1_555 1_555
H49_15 C46_15 1_555 1_555
C47_15 N6_15 1_555 1_555
H50_15 C47_15 1_555 1_555
C48_15 C47_15 1_555 1_555
C49_15 C48_15 1_555 1_555
H51_15 C49_15 1_555 1_555
C50_15 C29_15 1_555 1_555
C51_15 C50_15 1_555 1_555
C52_15 C51_15 1_555 1_555
C53_15 C48_15 1_555 1_555
O8_15 C29_15 1_555 1_555
C43_15 C46_15 1_555 1_555
C49_15 C50_15 1_555 1_555
C52_15 C53_15 1_555 1_555
C52_15 C54_15 1_555 1_555
O10_15 Cu3_15 1_555 1_555
O11_8 C56_15 1_555 1_555
O12_8 C56_15 1_555 1_555
N5_15 Cu3_15 1_555 1_555
N8_15 Cu3_15 1_555 1_555
C33_15 N8_15 1_555 1_555
H34_15 C33_15 1_555 1_555
H35_15 C33_15 1_555 1_555
C34_15 N8_15 1_555 1_555
H36_15 C34_15 1_555 1_555
C35_15 C34_15 1_555 1_555
C36_15 C35_15 1_555 1_555
H37_15 C36_15 1_555 1_555
C37_15 C36_15 1_555 1_555
C38_15 C37_15 1_555 1_555
H38_15 C38_15 1_555 1_555
C39_15 C38_15 1_555 1_555
C40_15 O10_15 1_555 1_555
C41_15 N7_15 1_555 1_555
H39_15 C41_15 1_555 1_555
C56_15 C37_15 1_555 1_555
In2_6 O11_8 1_555 1_555
O12_8 In2_6 1_555 1_555
C35_15 C40_15 1_555 1_555
C39_15 C40_15 1_555 1_555
C39_15 C41_15 1_555 1_555
O10_16 Cu3_16 1_555 1_555
O15_8 C56_16 1_555 1_555
O16_8 C56_16 1_555 1_555
N5_16 Cu3_16 1_555 1_555
N8_16 Cu3_16 1_555 1_555
C30_12 C31_12 1_555 1_555
C31_12 H28_12 1_555 1_555
H29_16 C31_12 1_555 1_555
H30_12 C31_12 1_555 1_555
C32_12 C30_12 1_555 1_555
H31_12 C32_12 1_555 1_555
H32_12 C32_12 1_555 1_555
H33_12 C32_12 1_555 1_555
C33_16 N8_16 1_555 1_555
H34_16 C33_16 1_555 1_555
H35_16 C33_16 1_555 1_555
C34_16 N8_16 1_555 1_555
H36_16 C34_16 1_555 1_555
C35_16 C34_16 1_555 1_555
C36_16 C35_16 1_555 1_555
H37_16 C36_16 1_555 1_555
C37_16 C36_16 1_555 1_555
C38_16 C37_16 1_555 1_555
H38_16 C38_16 1_555 1_555
C39_16 C38_16 1_555 1_555
C40_16 O10_16 1_555 1_555
C41_16 N7_16 1_555 1_555
H39_16 C41_16 1_555 1_555
C55_12 N5_16 1_555 1_555
H54_12 C55_12 1_555 1_555
H55_12 C55_12 1_555 1_555
C56_16 C37_16 1_555 1_555
C30_12 C33_16 1_555 1_555
C30_12 C55_12 1_555 1_555
C35_16 C40_16 1_555 1_555
C39_16 C40_16 1_555 1_555
C39_16 C41_16 1_555 1_555
C1_16 C2_16 1_555 1_555
C2_16 H1_16 1_555 1_555
H2_16 C2_16 1_555 1_555
H3_16 C2_16 1_555 1_555
C3_16 C1_16 1_555 1_555
H4_16 C3_16 1_555 1_555
H6_16 C3_16 1_555 1_555
H7_16 C4_16 1_555 1_555
C1_16 C4_16 1_555 1_555
C4_16 H56_16 1_555 1_555
In2_6 O5_16 1_555 1_555
Cu1_16 O1_16 1_555 1_555
Cu2_16 O1_16 1_555 1_555
Cu4_16 O9_16 1_555 1_555
O1_16 C11_16 1_555 1_555
O2_16 Cu1_16 1_555 1_555
O14_8 C27_16 1_555 1_555
O5_16 C28_16 1_555 1_555
O6_16 In2_6 1_555 1_555
O7_16 In2_6 1_555 1_555
O8_16 In2_6 1_555 1_555
O9_16 C53_16 1_555 1_555
N1_16 Cu1_16 1_555 1_555
N2_16 Cu2_16 1_555 1_555
N3_16 Cu2_16 1_555 1_555
N4_16 Cu1_16 1_555 1_555
N6_16 Cu4_16 1_555 1_555
C5_16 N1_16 1_555 1_555
C6_16 C5_16 1_555 1_555
C7_16 C6_16 1_555 1_555
C8_16 C7_16 1_555 1_555
C9_16 C8_16 1_555 1_555
H10_16 C9_16 1_555 1_555
C10_16 C9_16 1_555 1_555
C11_16 C6_16 1_555 1_555
C12_16 N2_16 1_555 1_555
H11_16 C12_16 1_555 1_555
C13_16 N2_16 1_555 1_555
H12_16 C13_16 1_555 1_555
H13_16 C13_16 1_555 1_555
C14_12 C13_16 1_555 1_555
C15_12 C14_12 1_555 1_555
H14_12 C15_12 1_555 1_555
H15_12 C15_12 1_555 1_555
H16_16 C15_12 1_555 1_555
C16_12 C14_12 1_555 1_555
H17_12 C16_12 1_555 1_555
H18_12 C16_12 1_555 1_555
H19_12 C16_12 1_555 1_555
C17_12 N3_16 1_555 1_555
H20_12 C17_12 1_555 1_555
H21_12 C17_12 1_555 1_555
C18_16 N3_16 1_555 1_555
H22_16 C18_16 1_555 1_555
C19_16 C18_16 1_555 1_555
C20_16 C19_16 1_555 1_555
H23_16 C20_16 1_555 1_555
C21_16 C20_16 1_555 1_555
C22_16 C21_16 1_555 1_555
H24_16 C22_16 1_555 1_555
C23_16 C22_16 1_555 1_555
C24_16 O2_16 1_555 1_555
C25_16 N4_16 1_555 1_555
H25_16 C25_16 1_555 1_555
C26_16 N4_16 1_555 1_555
H26_16 C26_16 1_555 1_555
H27_16 C26_16 1_555 1_555
C27_16 C8_16 1_555 1_555
C28_16 O6_16 1_555 1_555
C29_16 O7_16 1_555 1_555
H40_16 C42_16 1_555 1_555
H41_16 C42_16 1_555 1_555
C43_16 C42_16 1_555 1_555
C44_16 C43_16 1_555 1_555
H42_16 C44_16 1_555 1_555
H43_16 C44_16 1_555 1_555
H44_16 C44_16 1_555 1_555
C45_16 C43_16 1_555 1_555
H45_16 C45_16 1_555 1_555
H46_16 C45_16 1_555 1_555
H47_16 C45_16 1_555 1_555
C46_16 N6_16 1_555 1_555
H48_16 C46_16 1_555 1_555
H49_16 C46_16 1_555 1_555
C47_16 N6_16 1_555 1_555
H50_16 C47_16 1_555 1_555
C48_16 C47_16 1_555 1_555
C49_16 C48_16 1_555 1_555
H51_16 C49_16 1_555 1_555
C50_16 C29_16 1_555 1_555
C51_16 C50_16 1_555 1_555
H52_16 C51_16 1_555 1_555
C52_16 C51_16 1_555 1_555
C53_16 C48_16 1_555 1_555
H53_16 C54_16 1_555 1_555
Cu2_16 O2_16 1_555 1_555
O8_16 C29_16 1_555 1_555
C10_16 C11_16 1_555 1_555
C10_16 C12_16 1_555 1_555
C14_12 C17_12 1_555 1_555
C19_16 C24_16 1_555 1_555
C21_16 C28_16 1_555 1_555
C23_16 C24_16 1_555 1_555
C23_16 C25_16 1_555 1_555
C43_16 C46_16 1_555 1_555
C49_16 C50_16 1_555 1_555
C52_16 C53_16 1_555 1_555
C52_16 C54_16 1_555 1_555
C15_13 C14_13 1_555 1_555
H14_13 C15_13 1_555 1_555
H15_13 C15_13 1_555 1_555
C16_13 C14_13 1_555 1_555
H17_13 C16_13 1_555 1_555
H18_13 C16_13 1_555 1_555
H19_13 C16_13 1_555 1_555
H20_13 C17_13 1_555 1_555
H21_13 C17_13 1_555 1_555
C14_13 C17_13 1_555 1_555
C30_13 C31_13 1_555 1_555
C31_13 H28_13 1_555 1_555
H30_13 C31_13 1_555 1_555
C32_13 C30_13 1_555 1_555
H31_13 C32_13 1_555 1_555
H32_13 C32_13 1_555 1_555
H33_13 C32_13 1_555 1_555
H54_13 C55_13 1_555 1_555
H55_13 C55_13 1_555 1_555
C30_13 C55_13 1_555 1_555
C30_14 C31_14 1_555 1_555
C31_14 H28_14 1_555 1_555
H30_14 C31_14 1_555 1_555
C32_14 C30_14 1_555 1_555
H31_14 C32_14 1_555 1_555
H32_14 C32_14 1_555 1_555
H33_14 C32_14 1_555 1_555
H54_14 C55_14 1_555 1_555
H55_14 C55_14 1_555 1_555
C30_14 C55_14 1_555 1_555
C15_14 C14_14 1_555 1_555
H14_14 C15_14 1_555 1_555
H15_14 C15_14 1_555 1_555
C16_14 C14_14 1_555 1_555
H17_14 C16_14 1_555 1_555
H18_14 C16_14 1_555 1_555
H19_14 C16_14 1_555 1_555
H20_14 C17_14 1_555 1_555
H21_14 C17_14 1_555 1_555
C14_14 C17_14 1_555 1_555
C30_15 C31_15 1_555 1_555
C31_15 H28_15 1_555 1_555
H30_15 C31_15 1_555 1_555
C32_15 C30_15 1_555 1_555
H31_15 C32_15 1_555 1_555
H32_15 C32_15 1_555 1_555
H33_15 C32_15 1_555 1_555
H54_15 C55_15 1_555 1_555
H55_15 C55_15 1_555 1_555
C30_15 C55_15 1_555 1_555
C15_15 C14_15 1_555 1_555
H14_15 C15_15 1_555 1_555
H15_15 C15_15 1_555 1_555
C16_15 C14_15 1_555 1_555
H17_15 C16_15 1_555 1_555
H18_15 C16_15 1_555 1_555
H19_15 C16_15 1_555 1_555
H20_15 C17_15 1_555 1_555
H21_15 C17_15 1_555 1_555
C14_15 C17_15 1_555 1_555
C15_16 C14_16 1_555 1_555
H14_16 C15_16 1_555 1_555
H15_16 C15_16 1_555 1_555
C16_16 C14_16 1_555 1_555
H17_16 C16_16 1_555 1_555
H18_16 C16_16 1_555 1_555
H19_16 C16_16 1_555 1_555
H20_16 C17_16 1_555 1_555
H21_16 C17_16 1_555 1_555
C14_16 C17_16 1_555 1_555
C30_16 C31_16 1_555 1_555
C31_16 H28_16 1_555 1_555
H30_16 C31_16 1_555 1_555
C32_16 C30_16 1_555 1_555
H31_16 C32_16 1_555 1_555
H32_16 C32_16 1_555 1_555
H33_16 C32_16 1_555 1_555
H54_16 C55_16 1_555 1_555
H55_16 C55_16 1_555 1_555
C30_16 C55_16 1_555 1_555

#END
