
###############################################################################
#
# This file contains modified crystal structure data generated from the
# MOF subset of the Cambridge Structural Database (CSD) v543 
# hosted by the Cambridge Crystallographic Data Centre (CCDC).
#
# This work is licensed under the Creative Commons
# Attribution-NonCommercial-ShareAlike 4.0 International License.
# To view a copy of this license, visit
# http://creativecommons.org/licenses/by-nc-sa/4.0/
# or send a letter to
# Creative Commons, PO Box 1866, Mountain View, CA 94042, USA.
#
# CIF created using the CSD Python API on 29 September 2022
# The structure has been converted into the P1 space group
# The structure has a 3D framework
# The original CSD entry ESANET is in the rhombohedral crystal system
# The framework has been calculated to contain at least 10.0% void space
# The void calculation uses a probe of radius 1.32A, grid spacing 0.4
#
###############################################################################

data_ESANET
_chemical_formula_moiety         '(C72 H90 Cd29 Cl18 N159)n'
_symmetry_cell_setting           triclinic
_symmetry_space_group_name_H-M   'P 1'
_symmetry_Int_Tables_number      1
_space_group_name_Hall           'P 1'
loop_
_symmetry_equiv_pos_site_id
_symmetry_equiv_pos_as_xyz
1 x,y,z
_cell_length_a                   27.148(4)
_cell_length_b                   27.148(4)
_cell_length_c                   9.957(3)
_cell_angle_alpha                90
_cell_angle_beta                 90
_cell_angle_gamma                120
_cell_volume                     6355.28
loop_
_atom_site_label
_atom_site_type_symbol
_atom_site_fract_x
_atom_site_fract_y
_atom_site_fract_z
Cd5 Cd 0.054786(8) 0.651348(11) 0.325964(18)
Cd11 Cd -0.0000 0.4999 0.5000
Cd6 Cd 0.015318(11) 0.736771(8) 0.659298(18)
N21 N 0.02760(10) 0.67444(17) 0.9879(2)
Cd8 Cd 0.611881(8) 0.681985(11) 0.007369(18)
C3 C 0.87010(13) 0.47292(12) 0.0258(3)
H4 H 0.8336 0.4646 0.0624
C4 C 0.91483(11) 0.50008(11) 0.1297(3)
Cd2 Cd 0.8333 0.6667 0.1667
Cl1 Cl 0.83016(3) 0.57144(3) 0.10575(8)
N3 N 0.94913(10) 0.55582(9) 0.1396(2)
N4 N 0.98102(10) 0.56379(14) 0.2471(2)
N8 N 0.96634(10) 0.51411(14) 0.2990(2)
N9 N 0.92490(11) 0.47314(16) 0.2275(2)
C5 C 0.71739(13) 0.77743(12) 0.6060(3)
C6 C 0.74213(16) 0.82677(14) 0.5140(3)
H6 H 0.7622 0.8617 0.5651
H7 H 0.7122 0.8277 0.4632
C7 C 0.79657(13) 0.86041(12) 0.3075(3)
H8 H 0.7995 0.8959 0.3364
H9 H 0.8331 0.8687 0.2709
C8 C 0.75184(11) 0.83325(11) 0.2036(3)
Cd3 Cd 0.736771(8) 0.721452(8) 0.340702(18)
Cl2 Cl 0.83651(3) 0.76189(3) 0.22758(8)
H10 H 0.8206(14) 0.8343(13) 0.464(3)
N10 N 0.71451(10) 0.72888(10) 0.5753(2)
N11 N 0.78176(11) 0.82156(11) 0.4220(2)
N12 N 0.71754(10) 0.77751(9) 0.1937(2)
N13 N 0.68565(10) 0.76954(14) 0.0862(2)
N14 N 0.68649(14) 0.69426(10) 0.6787(2)
N15 N 0.67318(13) 0.72112(9) 0.7665(2)
N16 N 0.69230(11) 0.77416(15) 0.7230(2)
N17 N 0.70033(10) 0.81922(14) 0.0343(2)
N18 N 0.74177(11) 0.86019(16) 0.1058(2)
Cd9 Cd 0.651348(11) 0.596563(8) 0.674036(18)
Cd11_2 Cd 1.0000 0.4999 0.5000
Cd13 Cd 0.6666 0.8333 0.8334
N20 N 0.75056(17) 0.64769(10) 0.4196(2)
N22 N 0.63907(10) 0.65889(17) 0.3454(2)
N23 N 0.95205(16) 0.67318(13) 0.2335(2)
N24 N 0.71461(16) 0.66016(13) 0.0999(2)
N25 N 0.91813(19) 0.69230(11) 0.2770(2)
N26 N 0.74853(19) 0.64104(11) 0.0564(2)
N28 N 0.78556(17) 0.63301(10) 0.3677(2)
C1 C 0.94928(13) 0.55590(12) 0.7273(3)
C2 C 0.92454(16) 0.50656(14) 0.8193(3)
H1 H 0.9045 0.4716 0.7682
H2 H 0.9545 0.5056 0.8701
H3 H 0.8672 0.4374 0.9969
Cd1 Cd 0.929896(8) 0.611881(8) 0.992631(18)
H5 H 0.8461(14) 0.4990(13) 0.869(3)
N1 N 0.95216(10) 0.60445(10) 0.7580(2)
N2 N 0.88491(11) 0.51177(11) 0.9113(2)
N5 N 0.98018(14) 0.63907(10) 0.6546(2)
N6 N 0.99349(13) 0.61221(9) 0.5668(2)
N7 N 0.97437(11) 0.55917(15) 0.6103(2)
N19 N 0.91610(17) 0.68565(10) 0.9138(2)
N27 N 0.88110(17) 0.70033(10) 0.9657(2)
C3_2 C 0.52708(12) 0.39718(18) 0.0258(3)
H4_2 H 0.5354 0.3690 0.0624
C4_2 C 0.49992(11) 0.41475(16) 0.1297(3)
Cd2_2 Cd 0.3333 0.1666 0.1667
Cl1_2 Cl 0.42856(3) 0.25872(4) 0.10575(8)
N3_2 N 0.44418(9) 0.39331(13) 0.1396(2)
N4_2 N 0.43621(14) 0.41723(17) 0.2471(2)
N8_2 N 0.48589(14) 0.45223(17) 0.2990(2)
N9_2 N 0.52686(16) 0.45176(19) 0.2275(2)
Cd3_2 Cd 0.278548(8) 0.015318(11) 0.340702(18)
Cl2_2 Cl 0.23811(3) 0.07461(4) 0.22758(8)
Cd5_2 Cd 0.348652(11) 0.403437(14) 0.325964(18)
Cd9_2 Cd 0.403437(8) 0.054786(14) 0.674036(18)
Cd11_3 Cd 0.5001 0.5000 0.5000
N20_2 N 0.35231(10) 0.10288(20) 0.4196(2)
N23_2 N 0.32682(13) 0.27888(21) 0.2335(2)
N24_2 N 0.33984(13) 0.05446(21) 0.0999(2)
N25_2 N 0.30770(11) 0.22584(22) 0.2770(2)
N26_2 N 0.35896(11) 0.10750(22) 0.0564(2)
N28_2 N 0.36699(10) 0.15256(20) 0.3677(2)
C1_2 C 0.44410(12) 0.39338(18) 0.7273(3)
C2_2 C 0.49344(14) 0.41798(21) 0.8193(3)
H1_2 H 0.5284 0.4329 0.7682
H2_2 H 0.4944 0.4489 0.8701
H3_2 H 0.5626 0.4298 0.9969
Cd1_2 Cd 0.388119(8) 0.318015(11) 0.992631(18)
H5_2 H 0.5010(13) 0.3471(19) 0.869(3)
N1_2 N 0.39555(10) 0.34771(14) 0.7580(2)
N2_2 N 0.48823(11) 0.37314(16) 0.9113(2)
N5_2 N 0.36093(10) 0.34111(17) 0.6546(2)
N6_2 N 0.38779(9) 0.38128(16) 0.5668(2)
N7_2 N 0.44083(15) 0.41520(19) 0.6103(2)
Cd6_2 Cd 0.263229(8) 0.278548(14) 0.659298(18)
N19_2 N 0.31435(10) 0.23046(20) 0.9138(2)
N21_2 N 0.32556(17) 0.35315(20) 0.9879(2)
N27_2 N 0.29967(10) 0.18078(20) 0.9657(2)
Cd8_2 Cd 0.318015(11) 0.929896(14) 0.007369(18)
C5_2 C 0.22257(12) 0.93995(18) 0.6060(3)
C6_2 C 0.17323(14) 0.91535(21) 0.5140(3)
H6_2 H 0.1383 0.9004 0.5651
H7_2 H 0.1723 0.8844 0.4632
C7_2 C 0.13959(12) 0.93615(18) 0.3075(3)
H8_2 H 0.1041 0.9035 0.3364
H9_2 H 0.1313 0.9643 0.2709
C8_2 C 0.16675(11) 0.91858(16) 0.2036(3)
H10_2 H 0.1657(13) 0.9862(19) 0.464(3)
N10_2 N 0.27112(10) 0.98562(14) 0.5753(2)
N11_2 N 0.17844(11) 0.96019(16) 0.4220(2)
N12_2 N 0.22249(9) 0.94002(13) 0.1937(2)
N13_2 N 0.23046(14) 0.91610(17) 0.0862(2)
N14_2 N 0.30574(10) 0.99222(17) 0.6787(2)
N15_2 N 0.27888(9) 0.95205(16) 0.7665(2)
N16_2 N 0.22584(15) 0.91813(19) 0.7230(2)
N17_2 N 0.18078(14) 0.88110(17) 0.0343(2)
N18_2 N 0.13981(16) 0.88157(19) 0.1058(2)
Cd13_2 Cd 0.1667 0.8334 0.8334
N22_2 N 0.34111(17) 0.98018(20) 0.3454(2)
Cd8_3 Cd 0.070104(14) 0.388119(8) 0.007369(18)
C5_3 C 0.06005(18) 0.28261(13) 0.6060(3)
C6_3 C 0.08465(21) 0.25787(16) 0.5140(3)
H6_3 H 0.0996 0.2378 0.5651
H7_3 H 0.1156 0.2878 0.4632
C7_3 C 0.06385(18) 0.20343(13) 0.3075(3)
H8_3 H 0.0965 0.2005 0.3364
H9_3 H 0.0357 0.1669 0.2709
C8_3 C 0.08142(16) 0.24816(11) 0.2036(3)
H10_3 H 0.0138(19) 0.1794(14) 0.464(3)
N10_3 N 0.01438(14) 0.28549(10) 0.5753(2)
N11_3 N 0.03981(16) 0.21824(11) 0.4220(2)
N12_3 N 0.05998(13) 0.28246(10) 0.1937(2)
N13_3 N 0.08390(17) 0.31435(10) 0.0862(2)
N14_3 N 0.00778(17) 0.31351(14) 0.6787(2)
N15_3 N 0.04795(16) 0.32682(13) 0.7665(2)
N16_3 N 0.08187(19) 0.30770(11) 0.7230(2)
N17_3 N 0.11890(17) 0.29967(10) 0.0343(2)
N18_3 N 0.11843(19) 0.25823(11) 0.1058(2)
Cd13_3 Cd 0.1666 0.3334 0.8334
N22_3 N 0.01982(20) 0.36093(10) 0.3454(2)
C3_3 C 0.60282(18) 0.12990(13) 0.0258(3)
H4_3 H 0.6310 0.1664 0.0624
C4_3 C 0.58525(16) 0.08517(11) 0.1297(3)
Cd2_3 Cd 0.8334 0.1667 0.1667
Cl1_3 Cl 0.74128(4) 0.16984(3) 0.10575(8)
N3_3 N 0.60669(13) 0.05087(10) 0.1396(2)
N4_3 N 0.58277(17) 0.01898(10) 0.2471(2)
N8_3 N 0.54777(17) 0.03366(10) 0.2990(2)
N9_3 N 0.54824(19) 0.07510(11) 0.2275(2)
Cd3_3 Cd 0.984682(11) 0.263229(8) 0.340702(18)
Cl2_3 Cl 0.92539(4) 0.16349(3) 0.22758(8)
Cd9_3 Cd 0.945214(14) 0.348652(11) 0.674036(18)
Cd11_4 Cd 0.5000 0.0000 0.5000
N20_3 N 0.89712(20) 0.24944(17) 0.4196(2)
N23_3 N 0.72112(21) 0.04795(16) 0.2335(2)
N24_3 N 0.94554(21) 0.28539(16) 0.0999(2)
N25_3 N 0.77416(22) 0.08187(19) 0.2770(2)
N26_3 N 0.89250(22) 0.25147(19) 0.0564(2)
N28_3 N 0.84744(20) 0.21444(17) 0.3677(2)
C1_3 C 0.60662(18) 0.05072(13) 0.7273(3)
C2_3 C 0.58202(21) 0.07546(16) 0.8193(3)
H1_3 H 0.5671 0.0955 0.7682
H2_3 H 0.5511 0.0455 0.8701
H3_3 H 0.5702 0.1328 0.9969
Cd1_3 Cd 0.681985(11) 0.070104(8) 0.992631(18)
H5_3 H 0.6529(19) 0.1539(14) 0.869(3)
N1_3 N 0.65229(14) 0.04784(10) 0.7580(2)
N2_3 N 0.62686(16) 0.11509(11) 0.9113(2)
N5_3 N 0.65889(17) 0.01982(14) 0.6546(2)
N6_3 N 0.61872(16) 0.00651(13) 0.5668(2)
N7_3 N 0.58480(19) 0.02563(11) 0.6103(2)
N19_3 N 0.76954(20) 0.08390(17) 0.9138(2)
N27_3 N 0.81922(20) 0.11890(17) 0.9657(2)
Cd5_3 Cd 0.596563(14) 0.945214(8) 0.325964(18)
Cd11_5 Cd 0.5000 1.0000 0.5000
Cd6_3 Cd 0.721452(14) 0.984682(11) 0.659298(18)
N21_3 N 0.64685(20) 0.97240(10) 0.9879(2)
N14_4 N 0.35315(14) 0.02760(10) 0.0121(2)
C5_4 C 0.38405(13) 0.11077(12) 0.9394(3)
C6_4 C 0.40879(16) 0.16011(14) 0.8474(3)
H6_4 H 0.4288 0.1951 0.8985
H7_4 H 0.3788 0.1611 0.7966
C7_4 C 0.46323(13) 0.19375(12) 0.6409(3)
H8_4 H 0.4661 0.2293 0.6698
H9_4 H 0.4997 0.2021 0.6043
C8_4 C 0.41850(11) 0.16659(11) 0.5370(3)
Cl2_4 Cl 0.50317(3) 0.09523(3) 0.56092(8)
H10_4 H 0.4872(14) 0.1677(13) 0.798(3)
N10_4 N 0.38117(10) 0.06222(10) 0.9087(2)
N11_4 N 0.44842(11) 0.15490(11) 0.7554(2)
N12_4 N 0.38420(10) 0.11085(9) 0.5271(2)
N18_4 N 0.40843(11) 0.19353(16) 0.4392(2)
N21_4 N 0.69426(10) 0.00778(17) 0.3213(2)
C1_4 C 0.61595(13) 0.88923(12) 0.0606(3)
C2_4 C 0.59121(16) 0.83989(14) 0.1526(3)
H1_4 H 0.5712 0.8049 0.1015
H2_4 H 0.6212 0.8389 0.2034
C3_4 C 0.53677(13) 0.80625(12) 0.3591(3)
H3_4 H 0.5339 0.7707 0.3302
H4_4 H 0.5003 0.7979 0.3957
C4_4 C 0.58150(11) 0.83341(11) 0.4630(3)
Cl1_4 Cl 0.49683(3) 0.90477(3) 0.43908(8)
H5_4 H 0.5128(14) 0.8323(13) 0.202(3)
N1_4 N 0.61883(10) 0.93778(10) 0.0913(2)
N2_4 N 0.55158(11) 0.84510(11) 0.2446(2)
N3_4 N 0.61580(10) 0.88915(9) 0.4729(2)
N4_4 N 0.64769(10) 0.89712(14) 0.5804(2)
N8_4 N 0.63301(10) 0.84744(14) 0.6323(2)
N9_4 N 0.59157(11) 0.80647(16) 0.5608(2)
N20_4 N 0.41723(17) 0.98102(10) 0.7529(2)
N24_4 N 0.38128(16) 0.99349(13) 0.4332(2)
N26_4 N 0.41520(19) 0.97437(11) 0.3897(2)
N28_4 N 0.45223(17) 0.96634(10) 0.7010(2)
N6_4 N 0.66016(13) 0.94554(9) 0.9001(2)
N7_4 N 0.64104(11) 0.89250(15) 0.9436(2)
C1_5 C 0.11077(12) 0.72671(18) 0.0606(3)
C2_5 C 0.16011(14) 0.75131(21) 0.1526(3)
H1_5 H 0.1951 0.7662 0.1015
H2_5 H 0.1611 0.7822 0.2034
C3_5 C 0.19375(12) 0.73051(18) 0.3591(3)
H3_5 H 0.2293 0.7631 0.3302
H4_5 H 0.2021 0.7023 0.3957
C4_5 C 0.16659(11) 0.74808(16) 0.4630(3)
Cl1_5 Cl 0.09523(3) 0.59205(4) 0.43908(8)
H5_5 H 0.1677(13) 0.6804(19) 0.202(3)
N1_5 N 0.06222(10) 0.68104(14) 0.0913(2)
N2_5 N 0.15490(11) 0.70647(16) 0.2446(2)
N3_5 N 0.11085(9) 0.72664(13) 0.4729(2)
N4_5 N 0.10288(14) 0.75056(17) 0.5804(2)
N8_5 N 0.15256(14) 0.78556(17) 0.6323(2)
N9_5 N 0.19353(16) 0.78509(19) 0.5608(2)
N20_5 N 0.01898(10) 0.43621(20) 0.7529(2)
N24_5 N 0.00651(13) 0.38779(21) 0.4332(2)
N26_5 N 0.02563(11) 0.44083(22) 0.3897(2)
N28_5 N 0.03366(10) 0.48589(20) 0.7010(2)
N6_5 N 0.05446(9) 0.71461(16) 0.9001(2)
N7_5 N 0.10750(15) 0.74853(19) 0.9436(2)
N14_5 N 0.97240(10) 0.32556(17) 0.0121(2)
C5_5 C 0.88923(12) 0.27329(18) 0.9394(3)
C6_5 C 0.83989(14) 0.24869(21) 0.8474(3)
H6_5 H 0.8049 0.2338 0.8985
H7_5 H 0.8389 0.2178 0.7966
C7_5 C 0.80625(12) 0.26949(18) 0.6409(3)
H8_5 H 0.7707 0.2369 0.6698
H9_5 H 0.7979 0.2977 0.6043
C8_5 C 0.83341(11) 0.25192(16) 0.5370(3)
Cl2_5 Cl 0.90477(3) 0.40795(4) 0.56092(8)
H10_5 H 0.8323(13) 0.3196(19) 0.798(3)
N10_5 N 0.93778(10) 0.31896(14) 0.9087(2)
N11_5 N 0.84510(11) 0.29353(16) 0.7554(2)
N12_5 N 0.88915(9) 0.27336(13) 0.5271(2)
N18_5 N 0.80647(16) 0.21491(19) 0.4392(2)
N21_5 N 0.99222(17) 0.68649(20) 0.3213(2)
N14_6 N 0.67444(17) 0.64685(14) 0.0121(2)
C1_6 C 0.27329(18) 0.38405(13) 0.0606(3)
C2_6 C 0.24869(21) 0.40879(16) 0.1526(3)
H1_6 H 0.2338 0.4288 0.1015
H2_6 H 0.2178 0.3788 0.2034
C3_6 C 0.26949(18) 0.46323(13) 0.3591(3)
H3_6 H 0.2369 0.4661 0.3302
H4_6 H 0.2977 0.4997 0.3957
C4_6 C 0.25192(16) 0.41850(11) 0.4630(3)
Cl1_6 Cl 0.40795(4) 0.50317(3) 0.43908(8)
H5_6 H 0.3196(19) 0.4872(14) 0.202(3)
N1_6 N 0.31896(14) 0.38117(10) 0.0913(2)
N2_6 N 0.29353(16) 0.44842(11) 0.2446(2)
N3_6 N 0.27336(13) 0.38420(10) 0.4729(2)
N4_6 N 0.24944(17) 0.35231(10) 0.5804(2)
N8_6 N 0.21444(17) 0.36699(10) 0.6323(2)
N9_6 N 0.21491(19) 0.40843(11) 0.5608(2)
C5_6 C 0.72671(18) 0.61595(13) 0.9394(3)
C6_6 C 0.75131(21) 0.59121(16) 0.8474(3)
H6_6 H 0.7662 0.5712 0.8985
H7_6 H 0.7822 0.6212 0.7966
C7_6 C 0.73051(18) 0.53677(13) 0.6409(3)
H8_6 H 0.7631 0.5339 0.6698
H9_6 H 0.7023 0.5003 0.6043
C8_6 C 0.74808(16) 0.58150(11) 0.5370(3)
Cl2_6 Cl 0.59205(4) 0.49683(3) 0.56092(8)
H10_6 H 0.6804(19) 0.5128(14) 0.798(3)
N10_6 N 0.68104(14) 0.61883(10) 0.9087(2)
N11_6 N 0.70647(16) 0.55158(11) 0.7554(2)
N12_6 N 0.72664(13) 0.61580(10) 0.5271(2)
N18_6 N 0.78509(19) 0.59157(11) 0.4392(2)
N20_6 N 0.56379(20) 0.58277(17) 0.7529(2)
N21_6 N 0.31351(20) 0.30574(10) 0.3213(2)
N24_6 N 0.61221(21) 0.61872(16) 0.4332(2)
N26_6 N 0.55917(22) 0.58480(19) 0.3897(2)
N28_6 N 0.51411(20) 0.54777(17) 0.7010(2)
N6_6 N 0.28539(16) 0.33984(13) 0.9001(2)
N7_6 N 0.25147(19) 0.35896(11) 0.9436(2)
C5_7 C 0.05072(13) 0.44410(12) 0.2727(3)
C6_7 C 0.07546(16) 0.49344(14) 0.1807(3)
H6_7 H 0.0955 0.5284 0.2318
H7_7 H 0.0455 0.4944 0.1299
H8_7 H 0.1328 0.5626 0.0031
H10_7 H 0.1539(14) 0.5010(13) 0.131(3)
N10_7 N 0.04784(10) 0.39555(10) 0.2420(2)
N11_7 N 0.11509(11) 0.48823(11) 0.0887(2)
C1_7 C 0.28261(13) 0.22257(12) 0.3940(3)
C2_7 C 0.25787(16) 0.17323(14) 0.4860(3)
H1_7 H 0.2378 0.1383 0.4349
H2_7 H 0.2878 0.1723 0.5368
C3_7 C 0.20343(13) 0.13959(12) 0.6925(3)
H3_7 H 0.2005 0.1041 0.6636
H4_7 H 0.1669 0.1313 0.7291
C4_7 C 0.24816(11) 0.16675(11) 0.7964(3)
Cl1_7 Cl 0.16349(3) 0.23811(3) 0.77242(8)
H5_7 H 0.1794(14) 0.1657(13) 0.536(3)
N1_7 N 0.28549(10) 0.27112(10) 0.4247(2)
N2_7 N 0.21824(11) 0.17844(11) 0.5780(2)
N3_7 N 0.28246(10) 0.22249(9) 0.8063(2)
N9_7 N 0.25823(11) 0.13981(16) 0.8942(2)
C7_7 C 0.12990(13) 0.52708(12) 0.9742(3)
H9_7 H 0.1664 0.5354 0.9376
C8_7 C 0.08517(11) 0.49992(11) 0.8703(3)
Cl2_7 Cl 0.16984(3) 0.42856(3) 0.89425(8)
N12_7 N 0.05087(10) 0.44418(9) 0.8604(2)
N18_7 N 0.07510(11) 0.52686(16) 0.7725(2)
C1_8 C 0.77743(12) 0.06005(18) 0.3940(3)
C2_8 C 0.82677(14) 0.08465(21) 0.4860(3)
H1_8 H 0.8617 0.0996 0.4349
H2_8 H 0.8277 0.1156 0.5368
C3_8 C 0.86041(12) 0.06385(18) 0.6925(3)
H3_8 H 0.8959 0.0965 0.6636
H4_8 H 0.8687 0.0357 0.7291
C4_8 C 0.83325(11) 0.08142(16) 0.7964(3)
H5_8 H 0.8343(13) 0.0138(19) 0.536(3)
N1_8 N 0.72888(10) 0.01438(14) 0.4247(2)
N2_8 N 0.82156(11) 0.03981(16) 0.5780(2)
N3_8 N 0.77751(9) 0.05998(13) 0.8063(2)
N9_8 N 0.86019(16) 0.11843(19) 0.8942(2)
C5_8 C 0.55590(12) 0.60662(18) 0.2727(3)
C6_8 C 0.50656(14) 0.58202(21) 0.1807(3)
H6_8 H 0.4716 0.5671 0.2318
H7_8 H 0.5056 0.5511 0.1299
H8_8 H 0.4374 0.5702 0.0031
H10_8 H 0.4990(13) 0.6529(19) 0.131(3)
N10_8 N 0.60445(10) 0.65229(14) 0.2420(2)
N11_8 N 0.51177(11) 0.62686(16) 0.0887(2)
Cl1_8 Cl 0.76189(3) 0.92539(4) 0.77242(8)
C7_8 C 0.47292(12) 0.60282(18) 0.9742(3)
H9_8 H 0.4646 0.6310 0.9376
C8_8 C 0.50008(11) 0.58525(16) 0.8703(3)
Cl2_8 Cl 0.57144(3) 0.74128(4) 0.89425(8)
N12_8 N 0.55582(9) 0.60669(13) 0.8604(2)
N18_8 N 0.47314(16) 0.54824(19) 0.7725(2)
C5_9 C 0.39338(18) 0.94928(13) 0.2727(3)
C6_9 C 0.41798(21) 0.92454(16) 0.1807(3)
H6_9 H 0.4329 0.9045 0.2318
H7_9 H 0.4489 0.9545 0.1299
H8_9 H 0.4298 0.8672 0.0031
H10_9 H 0.3471(19) 0.8461(14) 0.131(3)
N10_9 N 0.34771(14) 0.95216(10) 0.2420(2)
N11_9 N 0.37314(16) 0.88491(11) 0.0887(2)
Cl1_9 Cl 0.07461(4) 0.83651(3) 0.77242(8)
C7_9 C 0.39718(18) 0.87010(13) 0.9742(3)
H9_9 H 0.3690 0.8336 0.9376
C8_9 C 0.41475(16) 0.91483(11) 0.8703(3)
Cl2_9 Cl 0.25872(4) 0.83016(3) 0.89425(8)
N12_9 N 0.39331(13) 0.94913(10) 0.8604(2)
N18_9 N 0.45176(19) 0.92490(11) 0.7725(2)
C1_9 C 0.93995(18) 0.71739(13) 0.3940(3)
C2_9 C 0.91535(21) 0.74213(16) 0.4860(3)
H1_9 H 0.9004 0.7622 0.4349
H2_9 H 0.8844 0.7122 0.5368
C3_9 C 0.93615(18) 0.79657(13) 0.6925(3)
H3_9 H 0.9035 0.7995 0.6636
H4_9 H 0.9643 0.8331 0.7291
C4_9 C 0.91858(16) 0.75184(11) 0.7964(3)
H5_9 H 0.9862(19) 0.8206(14) 0.536(3)
N1_9 N 0.98562(14) 0.71451(10) 0.4247(2)
N2_9 N 0.96019(16) 0.78176(11) 0.5780(2)
N3_9 N 0.94002(13) 0.71754(10) 0.8063(2)
N9_9 N 0.88157(19) 0.74177(11) 0.8942(2)
loop_
_geom_bond_atom_site_label_1
_geom_bond_atom_site_label_2
_geom_bond_site_symmetry_1
_geom_bond_site_symmetry_2
H4 C3 1_555 1_555
C4 C3 1_555 1_555
Cd2 Cl1 1_555 1_555
N3 C4 1_555 1_555
N4 N3 1_555 1_555
N8 N4 1_555 1_555
N9 C4 1_555 1_555
C5 C6 1_555 1_555
C6 H6 1_555 1_555
H7 C6 1_555 1_555
C7 H8 1_555 1_555
H9 C7 1_555 1_555
C8 C7 1_555 1_555
Cd3 Cl2 1_555 1_555
Cl2 Cd2 1_555 1_555
H10 N11 1_555 1_555
N10 C5 1_555 1_555
N11 C6 1_555 1_555
N12 C8 1_555 1_555
N13 N12 1_555 1_555
N14 N10 1_555 1_555
N15 N14 1_555 1_555
N16 C5 1_555 1_555
N17 N13 1_555 1_555
N18 C8 1_555 1_555
Cd8 N13 1_555 1_555
Cd9 N14 1_555 1_555
Cd11_2 N8 1_555 1_555
Cd13 N16 1_555 1_555
N20 Cd3 1_555 1_555
N22 Cd3 1_555 1_555
N24 Cd3 1_555 1_555
N25 Cd2 1_555 1_555
N26 Cd2 1_555 1_555
N28 Cd2 1_555 1_555
N8 N9 1_555 1_555
C7 N11 1_555 1_555
Cd3 N10 1_555 1_555
Cd3 N11 1_555 1_555
Cd3 N12 1_555 1_555
N15 N16 1_555 1_555
N17 N18 1_555 1_555
N20 N28 1_555 1_555
N23 N25 1_555 1_555
N24 N26 1_555 1_555
C1 C2 1_555 1_555
C2 H1 1_555 1_555
H2 C2 1_555 1_555
H5 N2 1_555 1_555
N1 C1 1_555 1_555
N2 C2 1_555 1_555
N5 N1 1_555 1_555
N6 N5 1_555 1_555
N7 C1 1_555 1_555
Cd11_2 N7 1_555 1_555
N19 Cd1 1_555 1_555
Cd1 N1 1_555 1_555
Cd1 N2 1_555 1_555
N6 N7 1_555 1_555
N19 N27 1_555 1_555
H4_2 C3_2 1_555 1_555
C4_2 C3_2 1_555 1_555
Cd2_2 Cl1_2 1_555 1_555
N3_2 C4_2 1_555 1_555
N4_2 N3_2 1_555 1_555
N8_2 N4_2 1_555 1_555
N9_2 C4_2 1_555 1_555
Cd3_2 Cl2_2 1_555 1_555
Cl2_2 Cd2_2 1_555 1_555
Cd5_2 N4_2 1_555 1_555
Cd11_3 N8_2 1_555 1_555
N20_2 Cd3_2 1_555 1_555
N24_2 Cd3_2 1_555 1_555
N25_2 Cd2_2 1_555 1_555
N26_2 Cd2_2 1_555 1_555
N28_2 Cd2_2 1_555 1_555
N8_2 N9_2 1_555 1_555
N20_2 N28_2 1_555 1_555
N23_2 N25_2 1_555 1_555
N24_2 N26_2 1_555 1_555
C1_2 C2_2 1_555 1_555
C2_2 H1_2 1_555 1_555
H2_2 C2_2 1_555 1_555
H5_2 N2_2 1_555 1_555
N1_2 C1_2 1_555 1_555
N2_2 C2_2 1_555 1_555
N5_2 N1_2 1_555 1_555
N6_2 N5_2 1_555 1_555
N7_2 C1_2 1_555 1_555
Cd5_2 N6_2 1_555 1_555
Cd6_2 N5_2 1_555 1_555
Cd11_3 N7_2 1_555 1_555
N19_2 Cd1_2 1_555 1_555
N21_2 Cd1_2 1_555 1_555
Cd1_2 N1_2 1_555 1_555
Cd1_2 N2_2 1_555 1_555
N6_2 N7_2 1_555 1_555
N19_2 N27_2 1_555 1_555
C5_2 C6_2 1_555 1_555
C6_2 H6_2 1_555 1_555
H7_2 C6_2 1_555 1_555
C7_2 H8_2 1_555 1_555
H9_2 C7_2 1_555 1_555
C8_2 C7_2 1_555 1_555
H10_2 N11_2 1_555 1_555
N10_2 C5_2 1_555 1_555
N11_2 C6_2 1_555 1_555
N12_2 C8_2 1_555 1_555
N13_2 N12_2 1_555 1_555
N14_2 N10_2 1_555 1_555
N15_2 N14_2 1_555 1_555
N16_2 C5_2 1_555 1_555
N17_2 N13_2 1_555 1_555
N18_2 C8_2 1_555 1_555
Cd8_2 N13_2 1_555 1_555
Cd13_2 N16_2 1_555 1_555
C7_2 N11_2 1_555 1_555
N15_2 N16_2 1_555 1_555
N17_2 N18_2 1_555 1_555
C5_3 C6_3 1_555 1_555
C6_3 H6_3 1_555 1_555
H7_3 C6_3 1_555 1_555
C7_3 H8_3 1_555 1_555
H9_3 C7_3 1_555 1_555
C8_3 C7_3 1_555 1_555
H10_3 N11_3 1_555 1_555
N10_3 C5_3 1_555 1_555
N11_3 C6_3 1_555 1_555
N12_3 C8_3 1_555 1_555
N13_3 N12_3 1_555 1_555
N14_3 N10_3 1_555 1_555
N15_3 N14_3 1_555 1_555
N16_3 C5_3 1_555 1_555
N17_3 N13_3 1_555 1_555
N18_3 C8_3 1_555 1_555
Cd8_3 N13_3 1_555 1_555
Cd13_3 N16_3 1_555 1_555
C7_3 N11_3 1_555 1_555
N15_3 N16_3 1_555 1_555
N17_3 N18_3 1_555 1_555
H4_3 C3_3 1_555 1_555
C4_3 C3_3 1_555 1_555
Cd2_3 Cl1_3 1_555 1_555
N3_3 C4_3 1_555 1_555
N4_3 N3_3 1_555 1_555
N8_3 N4_3 1_555 1_555
N9_3 C4_3 1_555 1_555
Cd3_3 Cl2_3 1_555 1_555
Cl2_3 Cd2_3 1_555 1_555
Cd11_4 N8_3 1_555 1_555
N20_3 Cd3_3 1_555 1_555
N24_3 Cd3_3 1_555 1_555
N25_3 Cd2_3 1_555 1_555
N26_3 Cd2_3 1_555 1_555
N28_3 Cd2_3 1_555 1_555
N8_3 N9_3 1_555 1_555
N20_3 N28_3 1_555 1_555
N23_3 N25_3 1_555 1_555
N24_3 N26_3 1_555 1_555
C1_3 C2_3 1_555 1_555
C2_3 H1_3 1_555 1_555
H2_3 C2_3 1_555 1_555
H5_3 N2_3 1_555 1_555
N1_3 C1_3 1_555 1_555
N2_3 C2_3 1_555 1_555
N5_3 N1_3 1_555 1_555
N6_3 N5_3 1_555 1_555
N7_3 C1_3 1_555 1_555
Cd11_4 N7_3 1_555 1_555
N19_3 Cd1_3 1_555 1_555
Cd1_3 N1_3 1_555 1_555
Cd1_3 N2_3 1_555 1_555
N6_3 N7_3 1_555 1_555
N19_3 N27_3 1_555 1_555
N24_2 N14_4 1_555 1_555
C5_4 C6_4 1_555 1_555
C6_4 H6_4 1_555 1_555
H7_4 C6_4 1_555 1_555
C7_4 H8_4 1_555 1_555
H9_4 C7_4 1_555 1_555
C8_4 C7_4 1_555 1_555
Cd9_2 Cl2_4 1_555 1_555
Cl2_4 Cd11_4 1_555 1_555
H10_4 N11_4 1_555 1_555
N10_4 C5_4 1_555 1_555
N11_4 C6_4 1_555 1_555
N12_4 C8_4 1_555 1_555
N20_2 N12_4 1_555 1_555
N18_4 C8_4 1_555 1_555
C7_4 N11_4 1_555 1_555
Cd9_2 N10_4 1_555 1_555
Cd9_2 N11_4 1_555 1_555
Cd9_2 N12_4 1_555 1_555
N28_2 N18_4 1_555 1_555
C1_4 C2_4 1_555 1_555
C2_4 H1_4 1_555 1_555
H2_4 C2_4 1_555 1_555
C3_4 H3_4 1_555 1_555
H4_4 C3_4 1_555 1_555
C4_4 C3_4 1_555 1_555
Cd5_3 Cl1_4 1_555 1_555
Cd11_5 Cl1_4 1_555 1_555
H5_4 N2_4 1_555 1_555
N1_4 C1_4 1_555 1_555
N2_4 C2_4 1_555 1_555
N3_4 C4_4 1_555 1_555
N4_4 N3_4 1_555 1_555
N8_4 N4_4 1_555 1_555
N9_4 C4_4 1_555 1_555
Cd6_3 N4_4 1_555 1_555
Cd13 N8_4 1_555 1_555
N26_4 Cd11_5 1_555 1_555
N28_4 Cd11_5 1_555 1_555
C3_4 N2_4 1_555 1_555
Cd5_3 N1_4 1_555 1_555
Cd5_3 N2_4 1_555 1_555
Cd5_3 N3_4 1_555 1_555
N8_4 N9_4 1_555 1_555
N20_4 N28_4 1_555 1_555
N24_4 N26_4 1_555 1_555
N6_4 N21_3 1_555 1_555
Cd6_3 N6_4 1_555 1_555
Cd13 N7_4 1_555 1_555
N6_4 N7_4 1_555 1_555
C1_5 C2_5 1_555 1_555
C2_5 H1_5 1_555 1_555
H2_5 C2_5 1_555 1_555
C3_5 H3_5 1_555 1_555
H4_5 C3_5 1_555 1_555
C4_5 C3_5 1_555 1_555
Cd5 Cl1_5 1_555 1_555
Cd11 Cl1_5 1_555 1_555
H5_5 N2_5 1_555 1_555
N1_5 C1_5 1_555 1_555
N2_5 C2_5 1_555 1_555
N3_5 C4_5 1_555 1_555
N4_5 N3_5 1_555 1_555
N8_5 N4_5 1_555 1_555
N9_5 C4_5 1_555 1_555
Cd6 N4_5 1_555 1_555
Cd13_2 N8_5 1_555 1_555
N26_5 Cd11 1_555 1_555
N28_5 Cd11 1_555 1_555
C3_5 N2_5 1_555 1_555
Cd5 N1_5 1_555 1_555
Cd5 N2_5 1_555 1_555
Cd5 N3_5 1_555 1_555
N8_5 N9_5 1_555 1_555
N20_5 N28_5 1_555 1_555
N24_5 N26_5 1_555 1_555
N6_5 N21 1_555 1_555
Cd6 N6_5 1_555 1_555
Cd13_2 N7_5 1_555 1_555
N6_5 N7_5 1_555 1_555
N24_3 N14_5 1_555 1_555
C5_5 C6_5 1_555 1_555
C6_5 H6_5 1_555 1_555
H7_5 C6_5 1_555 1_555
C7_5 H8_5 1_555 1_555
H9_5 C7_5 1_555 1_555
C8_5 C7_5 1_555 1_555
Cd9_3 Cl2_5 1_555 1_555
Cl2_5 Cd11_2 1_555 1_555
H10_5 N11_5 1_555 1_555
N10_5 C5_5 1_555 1_555
N11_5 C6_5 1_555 1_555
N12_5 C8_5 1_555 1_555
N20_3 N12_5 1_555 1_555
N18_5 C8_5 1_555 1_555
C7_5 N11_5 1_555 1_555
Cd9_3 N10_5 1_555 1_555
Cd9_3 N11_5 1_555 1_555
Cd9_3 N12_5 1_555 1_555
N28_3 N18_5 1_555 1_555
N24 N14_6 1_555 1_555
Cd8 N14_6 1_555 1_555
C1_6 C2_6 1_555 1_555
C2_6 H1_6 1_555 1_555
H2_6 C2_6 1_555 1_555
C3_6 H3_6 1_555 1_555
H4_6 C3_6 1_555 1_555
C4_6 C3_6 1_555 1_555
Cd5_2 Cl1_6 1_555 1_555
Cd11_3 Cl1_6 1_555 1_555
H5_6 N2_6 1_555 1_555
N1_6 C1_6 1_555 1_555
N2_6 C2_6 1_555 1_555
N3_6 C4_6 1_555 1_555
N4_6 N3_6 1_555 1_555
N8_6 N4_6 1_555 1_555
N9_6 C4_6 1_555 1_555
C5_6 C6_6 1_555 1_555
C6_6 H6_6 1_555 1_555
H7_6 C6_6 1_555 1_555
C7_6 H8_6 1_555 1_555
H9_6 C7_6 1_555 1_555
C8_6 C7_6 1_555 1_555
Cd9 Cl2_6 1_555 1_555
Cl2_6 Cd11_3 1_555 1_555
H10_6 N11_6 1_555 1_555
N10_6 C5_6 1_555 1_555
N11_6 C6_6 1_555 1_555
N12_6 C8_6 1_555 1_555
N20 N12_6 1_555 1_555
N18_6 C8_6 1_555 1_555
Cd6_2 N4_6 1_555 1_555
Cd13_3 N8_6 1_555 1_555
N20_6 Cd9 1_555 1_555
N21_6 Cd5_2 1_555 1_555
N24_6 Cd9 1_555 1_555
N26_6 Cd11_3 1_555 1_555
N28_6 Cd11_3 1_555 1_555
C3_6 N2_6 1_555 1_555
Cd5_2 N1_6 1_555 1_555
Cd5_2 N2_6 1_555 1_555
Cd5_2 N3_6 1_555 1_555
N8_6 N9_6 1_555 1_555
C7_6 N11_6 1_555 1_555
Cd9 N10_6 1_555 1_555
Cd9 N11_6 1_555 1_555
Cd9 N12_6 1_555 1_555
N28 N18_6 1_555 1_555
N20_6 N28_6 1_555 1_555
N24_6 N26_6 1_555 1_555
N6_6 N21_2 1_555 1_555
Cd6_2 N6_6 1_555 1_555
Cd13_3 N7_6 1_555 1_555
N6_6 N7_6 1_555 1_555
C5_7 C6_7 1_555 1_555
C6_7 H6_7 1_555 1_555
H7_7 C6_7 1_555 1_555
H10_7 N11_7 1_555 1_555
N10_7 C5_7 1_555 1_555
N11_7 C6_7 1_555 1_555
N22_3 N10_7 1_555 1_555
N24_5 N22_3 1_555 1_555
N26_5 C5_7 1_555 1_555
Cd8_3 N10_7 1_555 1_555
Cd8_3 N11_7 1_555 1_555
C1_7 C2_7 1_555 1_555
C2_7 H1_7 1_555 1_555
H2_7 C2_7 1_555 1_555
C3_7 H3_7 1_555 1_555
H4_7 C3_7 1_555 1_555
C4_7 C3_7 1_555 1_555
Cd6_2 Cl1_7 1_555 1_555
Cd13_3 Cl1_7 1_555 1_555
H5_7 N2_7 1_555 1_555
N1_7 C1_7 1_555 1_555
N2_7 C2_7 1_555 1_555
N3_7 C4_7 1_555 1_555
N19_2 N3_7 1_555 1_555
N21_6 N1_7 1_555 1_555
N23_2 N21_6 1_555 1_555
N25_2 C1_7 1_555 1_555
N9_7 C4_7 1_555 1_555
H9_7 C7_7 1_555 1_555
C8_7 C7_7 1_555 1_555
Cl2_7 Cd13_3 1_555 1_555
N12_7 C8_7 1_555 1_555
N20_5 N12_7 1_555 1_555
N18_7 C8_7 1_555 1_555
C3_7 N2_7 1_555 1_555
Cd6_2 N1_7 1_555 1_555
Cd6_2 N2_7 1_555 1_555
Cd6_2 N3_7 1_555 1_555
N27_2 N9_7 1_555 1_555
N28_5 N18_7 1_555 1_555
C1_8 C2_8 1_555 1_555
C2_8 H1_8 1_555 1_555
H2_8 C2_8 1_555 1_555
C3_8 H3_8 1_555 1_555
H4_8 C3_8 1_555 1_555
C4_8 C3_8 1_555 1_555
H5_8 N2_8 1_555 1_555
N1_8 C1_8 1_555 1_555
N2_8 C2_8 1_555 1_555
N3_8 C4_8 1_555 1_555
N19_3 N3_8 1_555 1_555
N21_4 N1_8 1_555 1_555
N23_3 N21_4 1_555 1_555
N25_3 C1_8 1_555 1_555
N9_8 C4_8 1_555 1_555
C3_8 N2_8 1_555 1_555
N27_3 N9_8 1_555 1_555
C5_8 C6_8 1_555 1_555
C6_8 H6_8 1_555 1_555
H7_8 C6_8 1_555 1_555
H10_8 N11_8 1_555 1_555
N10_8 C5_8 1_555 1_555
N11_8 C6_8 1_555 1_555
N22 N10_8 1_555 1_555
N24_6 N22 1_555 1_555
N26_6 C5_8 1_555 1_555
Cd8 N10_8 1_555 1_555
Cd8 N11_8 1_555 1_555
Cd6_3 Cl1_8 1_555 1_555
Cd13 Cl1_8 1_555 1_555
H9_8 C7_8 1_555 1_555
C8_8 C7_8 1_555 1_555
Cl2_8 Cd13 1_555 1_555
N12_8 C8_8 1_555 1_555
N20_6 N12_8 1_555 1_555
N18_8 C8_8 1_555 1_555
N28_6 N18_8 1_555 1_555
C5_9 C6_9 1_555 1_555
C6_9 H6_9 1_555 1_555
H7_9 C6_9 1_555 1_555
H10_9 N11_9 1_555 1_555
N10_9 C5_9 1_555 1_555
N11_9 C6_9 1_555 1_555
N22_2 N10_9 1_555 1_555
N24_4 N22_2 1_555 1_555
N26_4 C5_9 1_555 1_555
Cd8_2 N10_9 1_555 1_555
Cd8_2 N11_9 1_555 1_555
Cd6 Cl1_9 1_555 1_555
Cd13_2 Cl1_9 1_555 1_555
H9_9 C7_9 1_555 1_555
C8_9 C7_9 1_555 1_555
Cl2_9 Cd13_2 1_555 1_555
N12_9 C8_9 1_555 1_555
N20_4 N12_9 1_555 1_555
N18_9 C8_9 1_555 1_555
N28_4 N18_9 1_555 1_555
C1_9 C2_9 1_555 1_555
C2_9 H1_9 1_555 1_555
H2_9 C2_9 1_555 1_555
C3_9 H3_9 1_555 1_555
H4_9 C3_9 1_555 1_555
C4_9 C3_9 1_555 1_555
H5_9 N2_9 1_555 1_555
N1_9 C1_9 1_555 1_555
N2_9 C2_9 1_555 1_555
N3_9 C4_9 1_555 1_555
N19 N3_9 1_555 1_555
N21_5 N1_9 1_555 1_555
N23 N21_5 1_555 1_555
N25 C1_9 1_555 1_555
N9_9 C4_9 1_555 1_555
C3_9 N2_9 1_555 1_555
N27 N9_9 1_555 1_555

#END
