
###############################################################################
#
# This file contains modified crystal structure data generated from the
# MOF subset of the Cambridge Structural Database (CSD) v543 
# hosted by the Cambridge Crystallographic Data Centre (CCDC).
#
# This work is licensed under the Creative Commons
# Attribution-NonCommercial-ShareAlike 4.0 International License.
# To view a copy of this license, visit
# http://creativecommons.org/licenses/by-nc-sa/4.0/
# or send a letter to
# Creative Commons, PO Box 1866, Mountain View, CA 94042, USA.
#
# CIF created using the CSD Python API on 29 September 2022
# The structure has been converted into the P1 space group
# The structure has a 3D framework
# The original CSD entry ESARUN is in the triclinic crystal system
# The framework has been calculated to contain at least 10.0% void space
# The void calculation uses a probe of radius 1.32A, grid spacing 0.4
#
###############################################################################

data_ESARUN
_chemical_formula_moiety         '(C76 H84 N18 O22 Zn4)n'
_symmetry_cell_setting           triclinic
_symmetry_space_group_name_H-M   'P 1'
_symmetry_Int_Tables_number      1
_space_group_name_Hall           'P 1'
loop_
_symmetry_equiv_pos_site_id
_symmetry_equiv_pos_as_xyz
1 x,y,z
_cell_length_a                   10.4819(3)
_cell_length_b                   12.4239(3)
_cell_length_c                   19.8043(5)
_cell_angle_alpha                75.2285(13)
_cell_angle_beta                 81.2767(13)
_cell_angle_gamma                82.9364(12)
_cell_volume                     2455.35
loop_
_atom_site_label
_atom_site_type_symbol
_atom_site_fract_x
_atom_site_fract_y
_atom_site_fract_z
_atom_site_U_iso_or_equiv
_atom_site_thermal_displace_type
C55 C 0.4097(4) 0.0901(3) 0.8599(2) 0.0231 Uani
H49 H 0.4158 0.0358 0.9017 0.0280 Uiso
N12 N 0.5056(3) 0.1481(3) 0.82453(17) 0.0228 Uani
N13 N 0.3022(3) 0.1191(3) 0.82822(18) 0.0277 Uani
C56 C 0.1764(4) 0.0725(4) 0.8539(2) 0.0306 Uani
H50 H 0.1102 0.1189 0.8276 0.0370 Uiso
C57 C 0.1391(4) 0.0667(4) 0.9315(2) 0.0287 Uani
H52 H 0.2091 0.0263 0.9571 0.0350 Uiso
H53 H 0.1266 0.1418 0.9387 0.0350 Uiso
C58 C 0.0152(4) 0.0086(4) 0.9603(2) 0.0280 Uani
C59 C 0.4587(5) 0.2141(4) 0.7659(2) 0.0406 Uani
H56 H 0.5055 0.2638 0.7304 0.0480 Uiso
C60 C 0.3337(5) 0.1963(5) 0.7673(3) 0.0432 Uani
H57 H 0.2797 0.2302 0.7332 0.0520 Uiso
Zn7 Zn 0.68783(4) 0.13065(3) 0.84716(2) 0.0166 Uani
H14 H 0.0566 0.9468 0.0619 0.0340 Uiso
H51 H 0.1811 0.9982 0.8460 0.0370 Uiso
H54 H 0.0245 0.9366 0.9486 0.0340 Uiso
N1 N 0.2680(3) 0.0336(2) 0.11163(16) 0.0195 Uani
N4 N 0.2803(3) 0.2059(3) 0.04870(18) 0.0242 Uani
C6 C 0.3341(4) 0.1013(3) 0.0590(2) 0.0211 Uani
H3 H 0.4088 0.0785 0.0325 0.0250 Uiso
H5 H 0.8189 0.0018 0.1540 0.0370 Uiso
H13 H 0.9755 0.0634 0.0514 0.0340 Uiso
C18 C 0.3967(4) 0.3724(3) 0.0341(2) 0.0275 Uani
H17 H 0.4579 0.3241 0.0630 0.0330 Uiso
H18 H 0.3307 0.4048 0.0649 0.0330 Uiso
C23 C 0.1725(4) 0.2074(4) 0.0973(2) 0.0309 Uani
H20 H 0.1155 0.2691 0.1026 0.0370 Uiso
C37 C 0.1654(4) 0.1002(3) 0.1364(2) 0.0273 Uani
H42 H 0.1019 0.0758 0.1736 0.0330 Uiso
C62 C 0.5327(4) 0.5341(3) 0.0181(2) 0.0259 Uani
H59 H 0.4679 0.5664 0.0495 0.0310 Uiso
H60 H 0.5943 0.4850 0.0464 0.0310 Uiso
C63 C 0.6662(4) 0.6968(3) 0.0023(2) 0.0294 Uani
H61 H 0.7351 0.6509 0.0265 0.0350 Uiso
H62 H 0.6025 0.7222 0.0371 0.0350 Uiso
C15 C 0.4673(4) 0.4659(3) 0.9819(2) 0.0259 Uani
H11 H 0.5321 0.4336 0.9505 0.0310 Uiso
H12 H 0.4057 0.5150 0.9536 0.0310 Uiso
C17 C 0.3338(4) 0.3032(3) 0.9977(2) 0.0294 Uani
H15 H 0.2649 0.3491 0.9735 0.0350 Uiso
H16 H 0.3975 0.2778 0.9629 0.0350 Uiso
H35 H 0.8872 0.0446 0.6067 0.1360 Uiso
H38 H 0.5519 0.0217 0.7194 0.1040 Uiso
H55 H 0.9434 0.0532 0.9381 0.0340 Uiso
N14 N 0.7320(3) 0.9664(2) 0.88837(16) 0.0195 Uani
N15 N 0.7197(3) 0.7941(3) 0.95130(18) 0.0242 Uani
C61 C 0.6659(4) 0.8987(3) 0.9410(2) 0.0211 Uani
H58 H 0.5912 0.9215 0.9675 0.0250 Uiso
C64 C 0.6033(4) 0.6276(3) 0.9659(2) 0.0275 Uani
H63 H 0.5421 0.6759 0.9370 0.0330 Uiso
H64 H 0.6693 0.5952 0.9351 0.0330 Uiso
C65 C 0.8275(4) 0.7926(4) 0.9027(2) 0.0309 Uani
H65 H 0.8845 0.7309 0.8974 0.0370 Uiso
C66 C 0.8346(4) 0.8998(3) 0.8636(2) 0.0273 Uani
H66 H 0.8981 0.9242 0.8264 0.0330 Uiso
O25 O 0.2496(3) 0.0227(3) 0.66999(17) 0.0381 Uani
Zn1 Zn 0.31217(4) 0.86935(3) 0.15284(2) 0.0166 Uani
O1 O 0.2690(3) 0.7705(2) 0.09905(14) 0.0238 Uani
O2 O 0.1765(3) 0.8566(2) 0.23329(14) 0.0292 Uani
O3 O 0.3822(3) 0.8724(2) 0.00537(14) 0.0255 Uani
O4 O 0.2707(3) 0.6870(3) 0.27704(16) 0.0337 Uani
C1 C 0.1814(4) 0.7605(3) 0.27753(19) 0.0234 Uani
C2 C 0.5903(4) 0.9099(3) 0.1401(2) 0.0231 Uani
H1 H 0.5842 0.9642 0.0983 0.0280 Uiso
N3 N 0.4944(3) 0.8519(3) 0.17547(17) 0.0228 Uani
C3 C 0.3074(3) 0.7994(3) 0.03311(19) 0.0192 Uani
N5 N 0.6978(3) 0.8809(3) 0.17178(18) 0.0277 Uani
C5 C 0.0647(4) 0.6435(3) 0.3851(2) 0.0236 Uani
H2 H 0.1347 0.5895 0.3858 0.0280 Uiso
N7 N 0.0433(3) 0.5111(3) 0.0150(2) 0.0287 Uani
C7 C 0.8236(4) 0.9275(4) 0.1461(2) 0.0306 Uani
H4 H 0.8898 0.8811 0.1724 0.0370 Uiso
C8 C 0.1736(3) 0.6534(3) 0.0196(2) 0.0203 Uani
H6 H 0.1579 0.6302 0.0683 0.0240 Uiso
C10 C 0.8609(4) 0.9333(4) 0.0685(2) 0.0287 Uani
H8 H 0.7909 0.9737 0.0429 0.0350 Uiso
H9 H 0.8734 0.8582 0.0613 0.0350 Uiso
C16 C 0.9848(4) 0.9914(4) 0.0397(2) 0.0280 Uani
C19 C 0.0659(4) 0.7430(3) 0.33306(19) 0.0226 Uani
C25 C 0.5413(5) 0.7859(4) 0.2341(2) 0.0406 Uani
H22 H 0.4945 0.7362 0.2696 0.0480 Uiso
C27 C 0.6663(5) 0.8037(5) 0.2327(3) 0.0432 Uani
H23 H 0.7203 0.7698 0.2668 0.0520 Uiso
O8 O 0.0748(9) 0.4609(7) 0.0794(6) 0.1500 Uani
N11 N 0.0521(3) 0.4759(3) 0.51040(18) 0.0266 Uani
C49 C 0.0424(4) 0.3740(3) 0.5642(2) 0.0252 Uani
C51 C 0.1468(4) 0.1952(3) 0.6170(2) 0.0274 Uani
C52 C 0.1487(4) 0.2942(3) 0.5651(2) 0.0290 Uani
H47 H 0.2204 0.3073 0.5310 0.0350 Uiso
O19 O 0.1667(10) 0.5060(9) 0.4981(6) 0.1791 Uani
C53 C 0.0390(4) 0.1771(3) 0.6676(2) 0.0241 Uani
H48 H 0.0373 0.1106 0.7023 0.0290 Uiso
O20 O 0.3525(4) 0.1228(3) 0.5729(2) 0.0646 Uani
C54 C 0.2601(5) 0.1084(4) 0.6184(3) 0.0357 Uani
Zn2 Zn 0.35968(5) 0.88580(4) 0.66933(2) 0.0245 Uani
N2 N 0.3168(4) 0.8214(3) 0.59439(18) 0.0291 Uani
C4 C 0.2526(3) 0.7397(3) 0.98815(19) 0.0183 Uani
O5 O 0.3482(4) 0.8112(3) 0.76905(16) 0.0456 Uani
O6 O 0.5509(4) 0.8955(4) 0.6364(3) 0.0613 Uani
C9 C 0.2788(4) 0.7713(3) 0.91531(19) 0.0219 Uani
H7 H 0.3347 0.8265 0.8944 0.0260 Uiso
C11 C 0.1411(4) 0.6362(3) 0.9049(2) 0.0315 Uani
H10 H 0.1027 0.6027 0.8770 0.0380 Uiso
C12 C 0.2458(6) 0.7621(4) 0.7935(2) 0.0412 Uani
C14 C 0.1184(4) 0.6022(3) 0.9777(2) 0.0259 Uani
N8 N 0.3259(4) 0.7745(4) 0.4946(2) 0.0405 Uani
C20 C 0.2227(4) 0.7218(3) 0.8736(2) 0.0298 Uani
N9 N 0.7549(4) 0.9386(4) 0.6198(3) 0.0491 Uani
C24 C 0.3876(4) 0.8201(4) 0.5332(2) 0.0303 Uani
H21 H 0.4688 0.8470 0.5192 0.0360 Uiso
O7 O 0.1649(5) 0.7475(4) 0.7587(2) 0.0723 Uani
C26 C 0.6368(6) 0.9288(5) 0.6560(3) 0.0516 Uani
C28 C 0.2037(6) 0.7761(5) 0.5936(3) 0.0510 Uani
H24 H 0.1354 0.7663 0.6299 0.0610 Uiso
C29 C 0.3849(6) 0.7453(5) 0.4276(3) 0.0493 Uani
H25 H 0.4663 0.7788 0.4115 0.0590 Uiso
H26 H 0.3275 0.7754 0.3919 0.0590 Uiso
C30 C 0.4894(6) 0.5619(5) 0.4949(3) 0.0543 Uani
H27 H 0.5730 0.5923 0.4843 0.0650 Uiso
H28 H 0.4477 0.5783 0.5388 0.0650 Uiso
C31 C 0.2080(6) 0.7486(6) 0.5327(3) 0.0594 Uani
H29 H 0.1433 0.7176 0.5184 0.0710 Uiso
C32 C 0.4085(7) 0.6200(6) 0.4376(3) 0.0628 Uani
H30 H 0.3254 0.5886 0.4478 0.0760 Uiso
H31 H 0.4509 0.6043 0.3936 0.0760 Uiso
C33 C 0.7815(7) 0.9135(6) 0.5495(4) 0.0703 Uani
H32 H 0.8457 0.8511 0.5508 0.1050 Uiso
H33 H 0.8129 0.9776 0.5153 0.1050 Uiso
H34 H 0.7032 0.8957 0.5369 0.1050 Uiso
C34 C 0.8633(7) 0.9771(9) 0.6402(5) 0.0907 Uani
H36 H 0.9350 0.9210 0.6414 0.1360 Uiso
H37 H 0.8401 0.9917 0.6860 0.1360 Uiso
C35 C 0.6117(7) 0.9561(6) 0.7225(4) 0.0696 Uani
H39 H 0.6912 0.9700 0.7359 0.1040 Uiso
H40 H 0.5749 0.8949 0.7571 0.1040 Uiso
N16 N 0.6832(4) 0.1786(3) 0.40561(18) 0.0291 Uani
N17 N 0.6741(4) 0.2255(4) 0.5054(2) 0.0405 Uani
C67 C 0.6124(4) 0.1799(4) 0.4668(2) 0.0303 Uani
H67 H 0.5312 0.1530 0.4808 0.0360 Uiso
C68 C 0.7963(6) 0.2239(5) 0.4064(3) 0.0510 Uani
H68 H 0.8646 0.2337 0.3701 0.0610 Uiso
C69 C 0.6151(6) 0.2547(5) 0.5724(3) 0.0493 Uani
H69 H 0.5337 0.2212 0.5885 0.0590 Uiso
H70 H 0.6725 0.2246 0.6081 0.0590 Uiso
C70 C 0.5106(6) 0.4381(5) 0.5051(3) 0.0543 Uani
H71 H 0.4270 0.4077 0.5157 0.0650 Uiso
H72 H 0.5523 0.4217 0.4612 0.0650 Uiso
C71 C 0.7920(6) 0.2514(6) 0.4673(3) 0.0594 Uani
H73 H 0.8567 0.2824 0.4816 0.0710 Uiso
C72 C 0.5915(7) 0.3800(6) 0.5624(3) 0.0628 Uani
H74 H 0.6746 0.4114 0.5522 0.0760 Uiso
H75 H 0.5491 0.3957 0.6064 0.0760 Uiso
Zn10 Zn 0.64032(5) 0.11420(4) 0.33067(2) 0.0245 Uani
N6 N 0.9479(3) 0.5241(3) 0.48960(18) 0.0266 Uani
C13 C 0.9576(4) 0.6260(3) 0.4358(2) 0.0252 Uani
C21 C 0.8532(4) 0.8048(3) 0.3830(2) 0.0274 Uani
C22 C 0.8513(4) 0.7058(3) 0.4349(2) 0.0290 Uani
H19 H 0.7796 0.6927 0.4690 0.0350 Uiso
O9 O 0.8333(10) 0.4940(9) 0.5019(6) 0.1791 Uani
C36 C 0.9610(4) 0.8229(3) 0.3324(2) 0.0241 Uani
H41 H 0.9627 0.8894 0.2977 0.0290 Uiso
O10 O 0.6475(4) 0.8772(3) 0.4271(2) 0.0646 Uani
C38 C 0.7399(5) 0.8916(4) 0.3816(3) 0.0357 Uani
O11 O 0.7504(3) 0.9773(3) 0.33001(17) 0.0381 Uani
C40 C 0.7474(3) 0.2603(3) 0.01185(19) 0.0183 Uani
O14 O 0.6518(4) 0.1888(3) 0.23095(16) 0.0456 Uani
C42 C 0.7212(4) 0.2287(3) 0.08469(19) 0.0219 Uani
H44 H 0.6653 0.1735 0.1056 0.0260 Uiso
C43 C 0.8589(4) 0.3638(3) 0.0951(2) 0.0315 Uani
H45 H 0.8973 0.3973 0.1230 0.0380 Uiso
C44 C 0.7542(6) 0.2379(4) 0.2065(2) 0.0412 Uani
C45 C 0.8816(4) 0.3978(3) 0.0223(2) 0.0259 Uani
C46 C 0.7773(4) 0.2782(3) 0.1264(2) 0.0298 Uani
O15 O 0.8351(5) 0.2525(4) 0.2413(2) 0.0723 Uani
O17 O 0.8235(3) 0.1434(2) 0.76671(14) 0.0292 Uani
O18 O 0.7293(3) 0.3130(3) 0.72296(16) 0.0337 Uani
C47 C 0.8186(4) 0.2395(3) 0.72247(19) 0.0234 Uani
C48 C 0.9353(4) 0.3565(3) 0.6149(2) 0.0236 Uani
H46 H 0.8653 0.4105 0.6142 0.0280 Uiso
C50 C 0.9341(4) 0.2570(3) 0.66694(19) 0.0226 Uani
O22 O 0.4491(4) 0.1045(4) 0.3636(3) 0.0613 Uani
N18 N 0.2451(4) 0.0614(4) 0.3802(3) 0.0491 Uani
C73 C 0.3632(6) 0.0712(5) 0.3440(3) 0.0516 Uani
C74 C 0.2185(7) 0.0865(6) 0.4505(4) 0.0703 Uani
H76 H 0.1543 0.1489 0.4492 0.1050 Uiso
H77 H 0.1871 0.0224 0.4847 0.1050 Uiso
H78 H 0.2968 0.1043 0.4631 0.1050 Uiso
C75 C 0.1367(7) 0.0229(9) 0.3598(5) 0.0907 Uani
H80 H 0.0650 0.0790 0.3586 0.1360 Uiso
H81 H 0.1599 0.0083 0.3140 0.1360 Uiso
C76 C 0.3883(7) 0.0439(6) 0.2775(4) 0.0696 Uani
H83 H 0.3088 0.0300 0.2641 0.1040 Uiso
H84 H 0.4251 0.1051 0.2429 0.1040 Uiso
O12 O 0.7310(3) 0.2295(2) 0.90095(14) 0.0238 Uani
O13 O 0.6178(3) 0.1276(2) 0.99463(14) 0.0255 Uani
C39 C 0.6926(3) 0.2006(3) 0.96689(19) 0.0192 Uani
N10 N 0.9567(3) 0.4889(3) 0.9850(2) 0.0287 Uani
C41 C 0.8264(3) 0.3466(3) 0.9804(2) 0.0203 Uani
H43 H 0.8421 0.3698 0.9317 0.0240 Uiso
O16 O 0.9252(9) 0.5391(7) 0.9206(6) 0.1500 Uani
H79 H 0.1128 0.9554 0.3933 0.1360 Uiso
H82 H 0.4481 0.9783 0.2806 0.1040 Uiso
loop_
_atom_site_aniso_label
_atom_site_aniso_U_11
_atom_site_aniso_U_22
_atom_site_aniso_U_33
_atom_site_aniso_U_23
_atom_site_aniso_U_13
_atom_site_aniso_U_12
C55 0.0187 0.0282 0.0217 -0.0026 -0.003 -0.0058
N12 0.0201 0.029 0.0191 -0.0042 -0.0021 -0.0058
N13 0.0229 0.0366 0.024 -0.0036 -0.0046 -0.0103
C56 0.024 0.038 0.032 -0.0056 -0.008 -0.0115
C57 0.0199 0.036 0.03 -0.0016 -0.0069 -0.01
C58 0.0159 0.036 0.032 -0.0055 -0.003 -0.0072
C59 0.03 0.053 0.029 0.012 -0.006 -0.01
C60 0.032 0.058 0.031 0.011 -0.0106 -0.009
Zn7 0.0181 0.0187 0.0127 -0.0024 0.00071 -0.00658
N1 0.0211 0.0185 0.0191 -0.0023 -0.0023 -0.007
N4 0.0221 0.0175 0.0323 -0.0011 -0.0047 -0.0076
C6 0.022 0.0195 0.0212 -0.0025 -0.0017 -0.006
C18 0.0242 0.019 0.036 0.0022 -0.0042 -0.0071
C23 0.023 0.025 0.045 -0.01 -0.0018 -0.0027
C37 0.0218 0.028 0.031 -0.0068 0.0034 -0.0072
C62 0.0231 0.0145 0.037 0.001 -0.0036 -0.0049
C63 0.029 0.0195 0.037 0.0025 -0.0068 -0.0078
C15 0.0231 0.0145 0.037 0.001 -0.0036 -0.0049
C17 0.029 0.0195 0.037 0.0025 -0.0068 -0.0078
N14 0.0211 0.0185 0.0191 -0.0023 -0.0023 -0.007
N15 0.0221 0.0175 0.0323 -0.0011 -0.0047 -0.0076
C61 0.022 0.0195 0.0212 -0.0025 -0.0017 -0.006
C64 0.0242 0.019 0.036 0.0022 -0.0042 -0.0071
C65 0.023 0.025 0.045 -0.01 -0.0018 -0.0027
C66 0.0218 0.028 0.031 -0.0068 0.0034 -0.0072
O25 0.0469 0.0293 0.0346 -0.0074 -0.0023 0.0063
Zn1 0.0181 0.0187 0.0127 -0.0024 0.00071 -0.00658
O1 0.0306 0.0255 0.0175 -0.0058 -0.0015 -0.0119
O2 0.0396 0.0246 0.0192 -0.0025 0.0111 -0.0106
O3 0.0238 0.0288 0.0262 -0.0089 0.0032 -0.0141
O4 0.0268 0.0355 0.0311 0.0003 0.008 -0.0046
C1 0.028 0.0276 0.0147 -0.0037 0.0032 -0.0128
C2 0.0187 0.0282 0.0217 -0.0026 -0.003 -0.0058
N3 0.0201 0.029 0.0191 -0.0042 -0.0021 -0.0058
C3 0.0171 0.02 0.0198 -0.0045 -0.0005 -0.0018
N5 0.0229 0.0366 0.024 -0.0036 -0.0046 -0.0103
C5 0.0203 0.0263 0.0205 -0.0001 0.0013 -0.0045
N7 0.0265 0.0228 0.039 -0.0046 -0.0149 -0.003
C7 0.024 0.038 0.032 -0.0056 -0.008 -0.0115
C8 0.0187 0.0201 0.0221 -0.0036 -0.0037 -0.0039
C10 0.0199 0.036 0.03 -0.0016 -0.0069 -0.01
C16 0.0159 0.036 0.032 -0.0055 -0.003 -0.0072
C19 0.0237 0.0265 0.0151 -0.0019 0.0053 -0.009
C25 0.03 0.053 0.029 0.012 -0.006 -0.01
C27 0.032 0.058 0.031 0.011 -0.0106 -0.009
O8 0.139 0.108 0.213 -0.043 -0.049 -0.007
N11 0.0212 0.0242 0.0276 0.0042 0.0061 -0.0095
C49 0.0232 0.0252 0.0243 -0.0009 0.0022 -0.0079
C51 0.0226 0.028 0.028 -0.0034 0.0046 -0.0056
C52 0.0217 0.03 0.029 -0.0004 0.0098 -0.008
O19 0.142 0.165 0.205 0.016 -0.028 -0.037
C53 0.028 0.0233 0.0186 -0.0004 0.0011 -0.0076
O20 0.04 0.049 0.077 0.008 0.025 0.0144
C54 0.033 0.03 0.04 -0.0053 0.0003 -0.0002
Zn2 0.0292 0.0267 0.0183 -0.00617 -0.00581 0.0002
N2 0.0329 0.0375 0.0185 -0.0074 -0.0031 -0.0078
C4 0.0191 0.0174 0.0186 -0.0052 -0.0015 -0.0017
O5 0.074 0.0413 0.0171 -0.0037 -0.0044 0.0031
O6 0.035 0.058 0.084 -0.001 -0.015 -0.0029
C9 0.0283 0.0173 0.0197 -0.0046 -0.0018 -0.0015
C11 0.039 0.026 0.037 -0.0152 -0.0184 0.0012
C12 0.067 0.034 0.025 -0.0134 -0.015 0.011
C14 0.0186 0.0205 0.04 -0.0056 -0.0112 -0.0011
N8 0.048 0.056 0.0237 -0.0159 -0.0061 -0.013
C20 0.044 0.0241 0.0227 -0.0081 -0.0118 0.0064
N9 0.039 0.056 0.06 -0.031 0.001 -0.007
C24 0.034 0.039 0.0195 -0.0088 -0.0045 -0.0046
O7 0.11 0.079 0.037 -0.015 -0.034 -0.011
C26 0.051 0.055 0.052 -0.019 -0.005 -0.006
C28 0.047 0.078 0.036 -0.021 0.003 -0.031
C29 0.065 0.067 0.023 -0.023 -0.013 0.002
C30 0.063 0.069 0.041 -0.025 -0.018 -0.005
C31 0.059 0.092 0.039 -0.023 -0.005 -0.038
C32 0.083 0.076 0.041 -0.033 -0.028 0.014
C33 0.072 0.075 0.064 -0.026 0.011 -0.011
C34 0.056 0.139 0.1 -0.065 0.004 -0.037
C35 0.07 0.081 0.068 -0.043 0.013 -0.019
N16 0.0329 0.0375 0.0185 -0.0074 -0.0031 -0.0078
N17 0.048 0.056 0.0237 -0.0159 -0.0061 -0.013
C67 0.034 0.039 0.0195 -0.0088 -0.0045 -0.0046
C68 0.047 0.078 0.036 -0.021 0.003 -0.031
C69 0.065 0.067 0.023 -0.023 -0.013 0.002
C70 0.063 0.069 0.041 -0.025 -0.018 -0.005
C71 0.059 0.092 0.039 -0.023 -0.005 -0.038
C72 0.083 0.076 0.041 -0.033 -0.028 0.014
Zn10 0.0292 0.0267 0.0183 -0.00617 -0.00581 0.0002
N6 0.0212 0.0242 0.0276 0.0042 0.0061 -0.0095
C13 0.0232 0.0252 0.0243 -0.0009 0.0022 -0.0079
C21 0.0226 0.028 0.028 -0.0034 0.0046 -0.0056
C22 0.0217 0.03 0.029 -0.0004 0.0098 -0.008
O9 0.142 0.165 0.205 0.016 -0.028 -0.037
C36 0.028 0.0233 0.0186 -0.0004 0.0011 -0.0076
O10 0.04 0.049 0.077 0.008 0.025 0.0144
C38 0.033 0.03 0.04 -0.0053 0.0003 -0.0002
O11 0.0469 0.0293 0.0346 -0.0074 -0.0023 0.0063
C40 0.0191 0.0174 0.0186 -0.0052 -0.0015 -0.0017
O14 0.074 0.0413 0.0171 -0.0037 -0.0044 0.0031
C42 0.0283 0.0173 0.0197 -0.0046 -0.0018 -0.0015
C43 0.039 0.026 0.037 -0.0152 -0.0184 0.0012
C44 0.067 0.034 0.025 -0.0134 -0.015 0.011
C45 0.0186 0.0205 0.04 -0.0056 -0.0112 -0.0011
C46 0.044 0.0241 0.0227 -0.0081 -0.0118 0.0064
O15 0.11 0.079 0.037 -0.015 -0.034 -0.011
O17 0.0396 0.0246 0.0192 -0.0025 0.0111 -0.0106
O18 0.0268 0.0355 0.0311 0.0003 0.008 -0.0046
C47 0.028 0.0276 0.0147 -0.0037 0.0032 -0.0128
C48 0.0203 0.0263 0.0205 -0.0001 0.0013 -0.0045
C50 0.0237 0.0265 0.0151 -0.0019 0.0053 -0.009
O22 0.035 0.058 0.084 -0.001 -0.015 -0.0029
N18 0.039 0.056 0.06 -0.031 0.001 -0.007
C73 0.051 0.055 0.052 -0.019 -0.005 -0.006
C74 0.072 0.075 0.064 -0.026 0.011 -0.011
C75 0.056 0.139 0.1 -0.065 0.004 -0.037
C76 0.07 0.081 0.068 -0.043 0.013 -0.019
O12 0.0306 0.0255 0.0175 -0.0058 -0.0015 -0.0119
O13 0.0238 0.0288 0.0262 -0.0089 0.0032 -0.0141
C39 0.0171 0.02 0.0198 -0.0045 -0.0005 -0.0018
N10 0.0265 0.0228 0.039 -0.0046 -0.0149 -0.003
C41 0.0187 0.0201 0.0221 -0.0036 -0.0037 -0.0039
O16 0.139 0.108 0.213 -0.043 -0.049 -0.007
loop_
_geom_bond_atom_site_label_1
_geom_bond_atom_site_label_2
_geom_bond_site_symmetry_1
_geom_bond_site_symmetry_2
C55 H49 1_555 1_555
N12 C55 1_555 1_555
N13 C55 1_555 1_555
C56 N13 1_555 1_555
H50 C56 1_555 1_555
C57 C56 1_555 1_555
H52 C57 1_555 1_555
H53 C57 1_555 1_555
C59 N12 1_555 1_555
H56 C59 1_555 1_555
C60 N13 1_555 1_555
H57 C60 1_555 1_555
Zn7 N12 1_555 1_555
C57 C58 1_555 1_555
C59 C60 1_555 1_555
N4 C6 1_555 1_555
C6 N1 1_555 1_555
H3 C6 1_555 1_555
H17 C18 1_555 1_555
H18 C18 1_555 1_555
C23 N4 1_555 1_555
H20 C23 1_555 1_555
C37 N1 1_555 1_555
H42 C37 1_555 1_555
H59 C62 1_555 1_555
H60 C62 1_555 1_555
H61 C63 1_555 1_555
H62 C63 1_555 1_555
C23 C37 1_555 1_555
C15 H11 1_555 1_555
H12 C15 1_555 1_555
H15 C17 1_555 1_555
H16 C17 1_555 1_555
N14 C61 1_555 1_555
N15 C61 1_555 1_555
C61 H58 1_555 1_555
H63 C64 1_555 1_555
H64 C64 1_555 1_555
C65 N15 1_555 1_555
H65 C65 1_555 1_555
C66 N14 1_555 1_555
H66 C66 1_555 1_555
C65 C66 1_555 1_555
Zn1 O1 1_555 1_555
O1 C3 1_555 1_555
O2 Zn1 1_555 1_555
O3 C3 1_555 1_555
O4 C1 1_555 1_555
C1 O2 1_555 1_555
C2 H1 1_555 1_555
N3 Zn1 1_555 1_555
N5 C2 1_555 1_555
C5 H2 1_555 1_555
C7 N5 1_555 1_555
H4 C7 1_555 1_555
C8 H6 1_555 1_555
C10 C7 1_555 1_555
H8 C10 1_555 1_555
H9 C10 1_555 1_555
C16 C10 1_555 1_555
C19 C1 1_555 1_555
C25 N3 1_555 1_555
H22 C25 1_555 1_555
C27 N5 1_555 1_555
H23 C27 1_555 1_555
O8 N7 1_555 1_555
C49 N11 1_555 1_555
C51 C52 1_555 1_555
C52 C49 1_555 1_555
H47 C52 1_555 1_555
O19 N11 1_555 1_555
H48 C53 1_555 1_555
O20 C54 1_555 1_555
C54 C51 1_555 1_555
O25 C54 1_555 1_555
C2 N3 1_555 1_555
C5 C19 1_555 1_555
C25 C27 1_555 1_555
C51 C53 1_555 1_555
Zn2 N2 1_555 1_555
N2 C24 1_555 1_555
O5 Zn2 1_555 1_555
O6 Zn2 1_555 1_555
C9 C4 1_555 1_555
H7 C9 1_555 1_555
C11 H10 1_555 1_555
C12 O5 1_555 1_555
N8 C24 1_555 1_555
C20 C9 1_555 1_555
N9 C26 1_555 1_555
C24 H21 1_555 1_555
O7 C12 1_555 1_555
C26 O6 1_555 1_555
C28 N2 1_555 1_555
H24 C28 1_555 1_555
C29 N8 1_555 1_555
H25 C29 1_555 1_555
H26 C29 1_555 1_555
C30 H27 1_555 1_555
H28 C30 1_555 1_555
C31 N8 1_555 1_555
H29 C31 1_555 1_555
C32 C29 1_555 1_555
H30 C32 1_555 1_555
H31 C32 1_555 1_555
C33 N9 1_555 1_555
H32 C33 1_555 1_555
H33 C33 1_555 1_555
H34 C33 1_555 1_555
C34 N9 1_555 1_555
H36 C34 1_555 1_555
H37 C34 1_555 1_555
C35 C26 1_555 1_555
H39 C35 1_555 1_555
H40 C35 1_555 1_555
N16 C67 1_555 1_555
N17 C67 1_555 1_555
C67 H67 1_555 1_555
C68 N16 1_555 1_555
H68 C68 1_555 1_555
C69 N17 1_555 1_555
H69 C69 1_555 1_555
H70 C69 1_555 1_555
C70 C30 1_555 1_555
H71 C70 1_555 1_555
H72 C70 1_555 1_555
C71 N17 1_555 1_555
H73 C71 1_555 1_555
C72 C69 1_555 1_555
H74 C72 1_555 1_555
H75 C72 1_555 1_555
Zn10 N16 1_555 1_555
C11 C14 1_555 1_555
C11 C20 1_555 1_555
C12 C20 1_555 1_555
C28 C31 1_555 1_555
C30 C32 1_555 1_555
C68 C71 1_555 1_555
C70 C72 1_555 1_555
N6 C13 1_555 1_555
C21 C22 1_555 1_555
C22 C13 1_555 1_555
H19 C22 1_555 1_555
O9 N6 1_555 1_555
H41 C36 1_555 1_555
O10 C38 1_555 1_555
C38 C21 1_555 1_555
O11 C38 1_555 1_555
O14 C44 1_555 1_555
C42 C40 1_555 1_555
H44 C42 1_555 1_555
C43 H45 1_555 1_555
C44 C46 1_555 1_555
C46 C42 1_555 1_555
O15 C44 1_555 1_555
O17 C47 1_555 1_555
O18 C47 1_555 1_555
C47 C50 1_555 1_555
C48 H46 1_555 1_555
C50 C48 1_555 1_555
Zn10 O14 1_555 1_555
O22 Zn10 1_555 1_555
N18 C73 1_555 1_555
C73 O22 1_555 1_555
C74 N18 1_555 1_555
H76 C74 1_555 1_555
H77 C74 1_555 1_555
H78 C74 1_555 1_555
C75 N18 1_555 1_555
H80 C75 1_555 1_555
H81 C75 1_555 1_555
C76 C73 1_555 1_555
H83 C76 1_555 1_555
H84 C76 1_555 1_555
Zn7 O17 1_555 1_555
C21 C36 1_555 1_555
C43 C45 1_555 1_555
C43 C46 1_555 1_555
O12 C39 1_555 1_555
O13 C39 1_555 1_555
C41 H43 1_555 1_555
O16 N10 1_555 1_555
Zn7 O12 1_555 1_555

#END
