
###############################################################################
#
# This file contains modified crystal structure data generated from the
# MOF subset of the Cambridge Structural Database (CSD) v543 
# hosted by the Cambridge Crystallographic Data Centre (CCDC).
#
# This work is licensed under the Creative Commons
# Attribution-NonCommercial-ShareAlike 4.0 International License.
# To view a copy of this license, visit
# http://creativecommons.org/licenses/by-nc-sa/4.0/
# or send a letter to
# Creative Commons, PO Box 1866, Mountain View, CA 94042, USA.
#
# CIF created using the CSD Python API on 29 September 2022
# The structure has been converted into the P1 space group
# The structure has a 3D framework
# The original CSD entry ESECOW is in the cubic crystal system
# The framework has been calculated to contain at least 10.0% void space
# The void calculation uses a probe of radius 1.32A, grid spacing 0.4
# The framework is charged, counterions have been retained in the structure
#
###############################################################################

data_ESECOW
_chemical_formula_moiety         '(C672 H528 Co24 N48 O152 8-)n'
_symmetry_cell_setting           triclinic
_symmetry_space_group_name_H-M   'P 1'
_symmetry_Int_Tables_number      1
_space_group_name_Hall           'P 1'
loop_
_symmetry_equiv_pos_site_id
_symmetry_equiv_pos_as_xyz
1 x,y,z
_cell_length_a                   27.391(3)
_cell_length_b                   27.391(3)
_cell_length_c                   27.391(3)
_cell_angle_alpha                90
_cell_angle_beta                 90
_cell_angle_gamma                90
_cell_volume                     20550.6
loop_
_atom_site_label
_atom_site_type_symbol
_atom_site_fract_x
_atom_site_fract_y
_atom_site_fract_z
C136 C 0.0062(7) 0.1506(8) 0.8566(5)
H104 H 0.0249 0.1496 0.8862
C137 C 0.0114(7) 0.1896(6) 0.8246(6)
H105 H 0.0337 0.2156 0.8321
C126 C 0.1506(8) 0.8566(5) 0.0062(7)
H95 H 0.1496 0.8862 0.0249
C127 C 0.1896(6) 0.8246(6) 0.0114(7)
H96 H 0.2156 0.8321 0.0337
C118 C 0.0266(3) 0.8694(3) 0.9482(3)
H89 H 0.0310 0.8675 0.9134
H90 H 0.0145 0.8383 0.9589
O36 O 0.0748(4) 0.8784(7) 0.9699(7)
C120 C 0.0265(3) 0.9597(4) 0.8947(3)
H91 H 0.0215 0.9914 0.8805
H92 H 0.0582 0.9585 0.9097
H93 H 0.0245 0.9352 0.8697
O37 O 0.1713(12) 0.6928(8) 0.9425(11)
C121 C 0.1488(7) 0.7263(7) 0.9200(5)
Co13 Co 0.17034(3) 0.61757(3) 0.93363(3)
O38 O 0.1266(7) 0.7248(8) 0.8797(6)
Co14 Co 0.06637(3) 0.67034(3) 0.88243(3)
C122 C 0.1129(5) 0.8457(8) 0.9740(8)
C123 C 0.1534(7) 0.7708(6) 0.9521(5)
C124 C 0.1144(5) 0.8028(9) 0.9469(6)
C125 C 0.1910(5) 0.7817(5) 0.9843(6)
H94 H 0.0884 0.7952 0.9246
H97 H 0.2180 0.7596 0.9879
N12 N 0.01280(19) 0.72553(18) 0.88233(18)
C138 C 0.0175(3) 0.7623(2) 0.8484(3)
H107 H 0.0448 0.7626 0.8270
C95 C 0.8566(5) 0.0062(7) 0.1506(8)
H73 H 0.8862 0.0249 0.1496
C96 C 0.8246(6) 0.0114(7) 0.1896(6)
H74 H 0.8321 0.0337 0.2156
O35 O 0.71636(18) 0.14306(16) 0.17962(16)
C105 C 0.7181(2) 0.1082(2) 0.1418(2)
C106 C 0.6848(3) 0.1301(3) 0.2207(3)
C107 C 0.6938(3) 0.0372(2) 0.0981(2)
C108 C 0.6879(2) 0.0701(2) 0.1367(2)
C109 C 0.7350(3) 0.0426(3) 0.0665(3)
H80 H 0.6622 0.0654 0.1596
C110 C 0.7569(3) 0.1155(3) 0.1104(3)
H81 H 0.7779 0.1428 0.1142
C111 C 0.7643(3) 0.0817(3) 0.0732(3)
H82 H 0.7910 0.0863 0.0515
H83 H 0.7416 0.0193 0.0417
H84 H 0.6925 0.0968 0.2324
H85 H 0.6501 0.1310 0.2107
C112 C 0.6946(2) 0.1681(2) 0.2616(2)
C113 C 0.7335(2) 0.1611(2) 0.2928(2)
C114 C 0.6611(2) 0.2072(2) 0.2665(2)
C115 C 0.7687(3) 0.1197(2) 0.2834(3)
C116 C 0.7384(2) 0.1946(2) 0.3319(2)
H86 H 0.7940 0.1196 0.3086
H87 H 0.7838 0.1240 0.2512
H88 H 0.7509 0.0886 0.2841
O42 O 0.93744(16) 0.17346(17) 0.53967(17)
C149 C 0.9071(2) 0.1609(2) 0.5068(2)
Co17 Co 0.93363(3) 0.17034(3) 0.61757(3)
O43 O 0.88096(18) 0.12253(16) 0.50857(17)
Co18 Co 0.82966(3) 0.11757(3) 0.56637(3)
O44 O 0.82038(16) 0.21636(18) 0.35694(16)
C150 C 0.8582(2) 0.2181(2) 0.3918(2)
C151 C 0.7793(3) 0.1848(3) 0.3699(3)
C152 C 0.9019(2) 0.1938(3) 0.4628(2)
C153 C 0.8633(2) 0.1879(2) 0.4299(2)
C154 C 0.9335(3) 0.2350(3) 0.4574(3)
H115 H 0.8404 0.1622 0.4346
C155 C 0.8896(3) 0.2569(3) 0.3845(3)
H116 H 0.8858 0.2779 0.3572
C156 C 0.9268(3) 0.2643(3) 0.4183(3)
H117 H 0.9485 0.2910 0.4137
H118 H 0.9583 0.2416 0.4807
H119 H 0.7676 0.1925 0.4032
H120 H 0.7893 0.1501 0.3690
C157 C 0.7072(2) 0.2335(2) 0.3389(2)
C158 C 0.7166(3) 0.2687(3) 0.3803(2)
C159 C 0.6681(2) 0.2384(2) 0.3054(2)
H121 H 0.6914 0.2940 0.3804
H122 H 0.7488 0.2838 0.3760
H123 H 0.7159 0.2509 0.4114
O45 O 0.46033(17) 0.43744(16) 0.32654(17)
C160 C 0.4932(2) 0.4071(2) 0.3391(2)
Co19 Co 0.38243(3) 0.43363(3) 0.32966(3)
O46 O 0.49143(17) 0.38096(18) 0.37747(16)
Co20 Co 0.43363(3) 0.32966(3) 0.38243(3)
O47 O 0.64306(16) 0.32038(16) 0.28364(18)
C161 C 0.6082(2) 0.3582(2) 0.2819(2)
C162 C 0.6301(3) 0.2793(3) 0.3152(3)
C163 C 0.5372(2) 0.4019(2) 0.3062(3)
C164 C 0.5701(2) 0.3633(2) 0.3121(2)
C165 C 0.5426(3) 0.4335(3) 0.2650(3)
H124 H 0.5654 0.3404 0.3378
C166 C 0.6155(3) 0.3896(3) 0.2431(3)
H125 H 0.6428 0.3858 0.2221
C167 C 0.5817(3) 0.4268(3) 0.2357(3)
H126 H 0.5863 0.4485 0.2090
H127 H 0.5193 0.4583 0.2584
H128 H 0.5968 0.2676 0.3075
H129 H 0.6310 0.2893 0.3499
C168 C 0.6197(2) 0.2166(3) 0.2313(3)
H130 H 0.6196 0.1914 0.2060
H131 H 0.6240 0.2488 0.2162
H132 H 0.5886 0.2159 0.2491
C129 C 0.9482(3) 0.0266(3) 0.8694(3)
H98 H 0.9134 0.0310 0.8675
H99 H 0.9589 0.0145 0.8383
O39 O 0.9699(7) 0.0748(4) 0.8784(7)
C130 C 0.8947(3) 0.0265(3) 0.9597(4)
H100 H 0.8805 0.0215 0.9914
H101 H 0.9097 0.0582 0.9585
H102 H 0.8697 0.0245 0.9352
O40 O 0.9425(11) 0.1713(12) 0.6928(8)
C131 C 0.9200(5) 0.1488(7) 0.7263(7)
O41 O 0.8797(6) 0.1266(7) 0.7248(8)
Co16 Co 0.88243(3) 0.06637(3) 0.67034(3)
C132 C 0.9740(8) 0.1129(5) 0.8457(8)
C133 C 0.9521(5) 0.1534(7) 0.7708(6)
C134 C 0.9469(6) 0.1144(5) 0.8028(9)
C135 C 0.9843(6) 0.1910(5) 0.7817(5)
H103 H 0.9246 0.0884 0.7952
H106 H 0.9879 0.2180 0.7596
N14 N 0.88233(18) 0.01280(19) 0.72553(18)
C144 C 0.8484(3) 0.0175(3) 0.7623(2)
H111 H 0.8270 0.0448 0.7626
C1 C 0.4587(2) 0.5120(2) 0.0929(2)
C2 C 0.4482(3) 0.4734(3) 0.1306(3)
H1 H 0.4134 0.4690 0.1325
H2 H 0.4589 0.4855 0.1617
C3 C 0.3947(3) 0.4735(3) 0.0403(4)
H3 H 0.3805 0.4785 0.0086
H4 H 0.4097 0.4418 0.0415
H5 H 0.3697 0.4755 0.0648
O1 O 0.4425(11) 0.3287(12) 0.3072(8)
O2 O 0.3797(6) 0.3734(7) 0.2752(8)
O3 O 0.4699(7) 0.4252(4) 0.1216(7)
C4 C 0.4521(5) 0.3466(7) 0.2292(6)
C5 C 0.4469(6) 0.3856(5) 0.1972(9)
H6 H 0.4246 0.4116 0.2048
C6 C 0.4740(8) 0.3871(5) 0.1543(8)
C7 C 0.5062(7) 0.3494(8) 0.1434(5)
H7 H 0.5249 0.3504 0.1138
C8 C 0.5114(7) 0.3104(6) 0.1754(6)
H8 H 0.5337 0.2844 0.1679
C9 C 0.4843(6) 0.3090(5) 0.2183(5)
H9 H 0.4879 0.2820 0.2404
C10 C 0.4200(5) 0.3512(7) 0.2737(7)
N1 N 0.38233(18) 0.48720(19) 0.27447(18)
N2 N 0.34077(16) 0.58804(15) 0.12593(16)
C11 C 0.3484(3) 0.4825(3) 0.2377(2)
H10 H 0.3270 0.4552 0.2374
C12 C 0.3452(2) 0.5183(2) 0.1997(2)
H11 H 0.3202 0.5168 0.1758
C13 C 0.3800(2) 0.5550(2) 0.1990(2)
C14 C 0.4152(2) 0.5575(2) 0.2346(2)
H12 H 0.4391 0.5827 0.2338
C15 C 0.4157(3) 0.5234(3) 0.2717(3)
H13 H 0.4403 0.5254 0.2960
C16 C 0.37860(19) 0.5916(2) 0.15843(19)
O4 O 0.3795(2) 0.3795(2) 0.3795(2)
C28 C 0.43278(18) 0.5119(2) 0.0492(2)
C29 C 0.4071(2) 0.5413(2) 0.0120(2)
C39 C 0.4508(2) 0.56722(18) 0.0119(2)
C40 C 0.4880(2) 0.5929(2) 0.0413(2)
C41 C 0.5266(3) 0.6306(3) 0.0518(3)
H32 H 0.5310 0.6325 0.0866
H33 H 0.5145 0.6617 0.0411
C42 C 0.5265(3) 0.5403(4) 0.1053(3)
H34 H 0.5215 0.5086 0.1195
H35 H 0.5582 0.5415 0.0903
H36 H 0.5245 0.5648 0.1303
O11 O 0.6713(12) 0.8072(8) 0.0575(11)
O12 O 0.6266(7) 0.7752(8) 0.1203(6)
O13 O 0.5748(4) 0.6216(7) 0.0301(7)
C43 C 0.6534(7) 0.7292(6) 0.0479(5)
C44 C 0.6144(5) 0.6972(9) 0.0531(6)
H37 H 0.5884 0.7048 0.0754
C45 C 0.6129(5) 0.6543(8) 0.0260(8)
C48 C 0.6910(5) 0.7183(5) 0.0157(6)
H40 H 0.7180 0.7404 0.0121
C49 C 0.6488(7) 0.7737(7) 0.0800(5)
C50 C 0.4881(2) 0.5492(2) 0.06722(18)
N4 N 0.37407(16) 0.65923(16) 0.08804(15)
C52 C 0.3003(2) 0.6548(2) 0.0183(2)
H42 H 0.3242 0.6798 0.0168
C53 C 0.3010(2) 0.6200(2) 0.0550(2)
C54 C 0.2654(2) 0.5848(2) 0.0575(2)
H43 H 0.2662 0.5609 0.0827
C55 C 0.2283(3) 0.5843(3) 0.0234(3)
H44 H 0.2040 0.5597 0.0254
C56 C 0.34157(19) 0.62140(19) 0.0916(2)
N5 N 0.51280(19) 0.77447(18) 0.11767(18)
N6 N 0.41196(15) 0.62593(16) 0.15923(16)
C57 C 0.5175(3) 0.7377(2) 0.1516(3)
H45 H 0.5448 0.7374 0.1730
C58 C 0.4817(2) 0.6997(2) 0.1548(2)
H46 H 0.4832 0.6758 0.1798
C59 C 0.4450(2) 0.6990(2) 0.1200(2)
C60 C 0.4425(2) 0.7346(2) 0.0848(2)
H47 H 0.4173 0.7338 0.0609
C61 C 0.4766(3) 0.7717(3) 0.0843(3)
H48 H 0.4746 0.7960 0.0597
C62 C 0.4084(2) 0.65843(19) 0.12140(19)
Co2 Co 0.32966(3) 0.38243(3) 0.43363(3)
O20 O 0.3072(8) 0.4425(11) 0.3287(12)
O21 O 0.3287(12) 0.3072(8) 0.4425(11)
O22 O 0.2752(8) 0.3797(6) 0.3734(7)
O23 O 0.3734(7) 0.2752(8) 0.3797(6)
Co9 Co 0.67034(3) 0.88243(3) 0.06637(3)
Co10 Co 0.56637(3) 0.82966(3) 0.11757(3)
N7 N 0.27447(18) 0.38233(18) 0.48720(19)
N8 N 0.48720(19) 0.27447(18) 0.38233(18)
O24 O 0.32654(17) 0.46033(17) 0.43744(16)
O25 O 0.43744(16) 0.32654(17) 0.46033(17)
O26 O 0.37747(16) 0.49143(17) 0.38096(18)
O27 O 0.38096(18) 0.37747(16) 0.49143(17)
C86 C 0.8694(3) 0.9482(3) 0.0266(3)
H67 H 0.8675 0.9134 0.0310
H68 H 0.8383 0.9589 0.0145
O28 O 0.8784(7) 0.9699(7) 0.0748(4)
C89 C 0.9597(4) 0.8947(3) 0.0265(3)
H69 H 0.9914 0.8805 0.0215
H70 H 0.9585 0.9097 0.0582
H71 H 0.9352 0.8697 0.0245
O29 O 0.6928(8) 0.9425(11) 0.1713(12)
C90 C 0.7263(7) 0.9200(5) 0.1488(7)
Co12 Co 0.61757(3) 0.93363(3) 0.17034(3)
O30 O 0.7248(8) 0.8797(6) 0.1266(7)
C91 C 0.8457(8) 0.9740(8) 0.1129(5)
C92 C 0.7708(6) 0.9521(5) 0.1534(7)
C93 C 0.8028(9) 0.9469(6) 0.1144(5)
C94 C 0.7817(5) 0.9843(6) 0.1910(5)
H72 H 0.7952 0.9246 0.0884
H75 H 0.7596 0.9879 0.2180
N9 N 0.72553(18) 0.88233(18) 0.01280(19)
O31 O 0.6205(2) 0.8795(2) 0.1205(2)
O32 O 0.67346(17) 0.96033(17) 0.06256(16)
O33 O 0.61904(18) 0.87747(16) 0.00857(17)
C97 C 0.7623(2) 0.8484(3) 0.0175(3)
H76 H 0.7626 0.8270 0.0448
C104 C 0.6609(2) 0.9932(2) 0.0929(2)
O34 O 0.62253(16) 0.99143(17) 0.11904(18)
O48 O 0.5575(11) 0.8287(12) 0.1928(8)
O49 O 0.56256(16) 0.82654(17) 0.03967(17)
O50 O 0.50857(17) 0.88096(18) 0.12253(16)
O51 O 0.6203(6) 0.8734(7) 0.2248(8)
N15 N 0.61767(18) 0.98720(19) 0.22553(18)
O52 O 0.53967(17) 0.93744(16) 0.17346(17)
C30 C 0.3694(3) 0.5518(3) 0.9734(3)
H23 H 0.3675 0.5866 0.9690
H24 H 0.3383 0.5411 0.9855
C31 C 0.4597(4) 0.6053(3) 0.9735(3)
H25 H 0.4914 0.6195 0.9785
H26 H 0.4585 0.5903 0.9418
H27 H 0.4352 0.6303 0.9755
O8 O 0.1928(8) 0.5575(11) 0.8287(12)
O9 O 0.2248(8) 0.6203(6) 0.8734(7)
O10 O 0.3784(7) 0.5301(7) 0.9252(4)
C32 C 0.2708(6) 0.5479(5) 0.8466(7)
C33 C 0.3028(9) 0.5531(6) 0.8856(5)
H28 H 0.2952 0.5754 0.9116
C34 C 0.3457(8) 0.5260(8) 0.8871(5)
C35 C 0.3566(5) 0.4938(7) 0.8494(8)
H29 H 0.3862 0.4751 0.8504
C36 C 0.3246(6) 0.4886(7) 0.8104(6)
H30 H 0.3321 0.4663 0.7844
C37 C 0.2817(5) 0.5157(6) 0.8090(5)
H31 H 0.2596 0.5121 0.7820
C38 C 0.2263(7) 0.5800(5) 0.8512(7)
C46 C 0.6506(8) 0.6434(5) 0.9938(7)
H38 H 0.6496 0.6138 0.9751
C47 C 0.6896(6) 0.6754(6) 0.9886(7)
H39 H 0.7156 0.6679 0.9663
N3 N 0.22553(18) 0.61767(18) 0.98720(19)
C51 C 0.2623(2) 0.6516(3) 0.9825(3)
H41 H 0.2626 0.6730 0.9552
Co4 Co 0.11757(3) 0.56637(3) 0.82966(3)
C85 C 0.9071(2) 0.9587(2) 0.9880(2)
C87 C 0.9508(2) 0.93278(18) 0.9881(2)
C88 C 0.93278(18) 0.9881(2) 0.9508(2)
C98 C 0.7283(3) 0.9157(3) 0.9766(3)
N10 N 0.87407(16) 0.84077(16) 0.91196(15)
C99 C 0.84157(19) 0.87860(19) 0.9084(2)
C100 C 0.9084(2) 0.84157(19) 0.87860(19)
C101 C 0.8003(2) 0.8452(2) 0.9817(2)
H77 H 0.8242 0.8202 0.9832
C102 C 0.8010(2) 0.8800(2) 0.9450(2)
C103 C 0.7654(2) 0.9152(2) 0.9425(2)
H78 H 0.7662 0.9391 0.9173
H79 H 0.7040 0.9403 0.9746
N11 N 0.84077(16) 0.91196(15) 0.87407(16)
C117 C 0.9880(2) 0.9071(2) 0.9587(2)
C119 C 0.9881(2) 0.9508(2) 0.93278(18)
C128 C 0.9587(2) 0.9880(2) 0.9071(2)
C139 C 0.9766(3) 0.7283(3) 0.9157(3)
N13 N 0.91196(15) 0.87407(16) 0.84077(16)
C140 C 0.87860(19) 0.9084(2) 0.84157(19)
C141 C 0.9817(2) 0.8003(2) 0.8452(2)
H108 H 0.9832 0.8242 0.8202
C142 C 0.9450(2) 0.8010(2) 0.8800(2)
C143 C 0.9425(2) 0.7654(2) 0.9152(2)
H109 H 0.9173 0.7662 0.9391
H110 H 0.9746 0.7040 0.9403
C145 C 0.9157(3) 0.9766(3) 0.7283(3)
C146 C 0.8452(2) 0.9817(2) 0.8003(2)
H112 H 0.8202 0.9832 0.8242
C147 C 0.8800(2) 0.9450(2) 0.8010(2)
C148 C 0.9152(2) 0.9425(2) 0.7654(2)
H113 H 0.9391 0.9173 0.7662
H114 H 0.9403 0.9746 0.7040
C1_2 C 0.0413(2) 0.4880(2) 0.5929(2)
C2_2 C 0.0518(3) 0.5266(3) 0.6306(3)
H1_2 H 0.0866 0.5310 0.6325
H2_2 H 0.0411 0.5145 0.6617
C3_2 C 0.1053(3) 0.5265(3) 0.5403(4)
H3_2 H 0.1195 0.5215 0.5086
H4_2 H 0.0903 0.5582 0.5415
H5_2 H 0.1303 0.5245 0.5648
O1_2 O 0.0575(11) 0.6713(12) 0.8072(8)
O2_2 O 0.1203(6) 0.6266(7) 0.7752(8)
O3_2 O 0.0301(7) 0.5748(4) 0.6216(7)
C4_2 C 0.0479(5) 0.6534(7) 0.7292(6)
C5_2 C 0.0531(6) 0.6144(5) 0.6972(9)
H6_2 H 0.0754 0.5884 0.7048
C6_2 C 0.0260(8) 0.6129(5) 0.6543(8)
C9_2 C 0.0157(6) 0.6910(5) 0.7183(5)
H9_2 H 0.0121 0.7180 0.7404
C10_2 C 0.0800(5) 0.6488(7) 0.7737(7)
N1_2 N 0.11767(18) 0.51280(19) 0.77447(18)
N2_2 N 0.15923(16) 0.41196(15) 0.62593(16)
C11_2 C 0.1516(3) 0.5175(3) 0.7377(2)
H10_2 H 0.1730 0.5448 0.7374
C12_2 C 0.1548(2) 0.4817(2) 0.6997(2)
H11_2 H 0.1798 0.4832 0.6758
C13_2 C 0.1200(2) 0.4450(2) 0.6990(2)
C14_2 C 0.0848(2) 0.4425(2) 0.7346(2)
H12_2 H 0.0609 0.4173 0.7338
C15_2 C 0.0843(3) 0.4766(3) 0.7717(3)
H13_2 H 0.0597 0.4746 0.7960
C16_2 C 0.12140(19) 0.4084(2) 0.65843(19)
O4_2 O 0.1205(2) 0.6205(2) 0.8795(2)
O5 O 0.03967(17) 0.56256(16) 0.82654(17)
O6 O 0.00857(17) 0.61904(18) 0.87747(16)
C17 C 0.0068(2) 0.5929(2) 0.8391(2)
C28_2 C 0.06722(18) 0.4881(2) 0.5492(2)
C29_2 C 0.0929(2) 0.4587(2) 0.5120(2)
C30_2 C 0.1306(3) 0.4482(3) 0.4734(3)
H23_2 H 0.1325 0.4134 0.4690
H24_2 H 0.1617 0.4589 0.4855
C31_2 C 0.0403(4) 0.3947(3) 0.4735(3)
H25_2 H 0.0086 0.3805 0.4785
H26_2 H 0.0415 0.4097 0.4418
H27_2 H 0.0648 0.3697 0.4755
O10_2 O 0.1216(7) 0.4699(7) 0.4252(4)
C32_2 C 0.2292(6) 0.4521(5) 0.3466(7)
C33_2 C 0.1972(9) 0.4469(6) 0.3856(5)
H28_2 H 0.2048 0.4246 0.4116
C34_2 C 0.1543(8) 0.4740(8) 0.3871(5)
C35_2 C 0.1434(5) 0.5062(7) 0.3494(8)
H29_2 H 0.1138 0.5249 0.3504
C36_2 C 0.1754(6) 0.5114(7) 0.3104(6)
H30_2 H 0.1679 0.5337 0.2844
C37_2 C 0.2183(5) 0.4843(6) 0.3090(5)
H31_2 H 0.2404 0.4879 0.2820
C38_2 C 0.2737(7) 0.4200(5) 0.3512(7)
C39_2 C 0.0492(2) 0.43278(18) 0.5119(2)
C40_2 C 0.0120(2) 0.4071(2) 0.5413(2)
C50_2 C 0.0119(2) 0.4508(2) 0.56722(18)
N4_2 N 0.12593(16) 0.34077(16) 0.58804(15)
C51_2 C 0.2377(2) 0.3484(3) 0.4825(3)
H41_2 H 0.2374 0.3270 0.4552
C52_2 C 0.1997(2) 0.3452(2) 0.5183(2)
H42_2 H 0.1758 0.3202 0.5168
C53_2 C 0.1990(2) 0.3800(2) 0.5550(2)
C54_2 C 0.2346(2) 0.4152(2) 0.5575(2)
H43_2 H 0.2338 0.4391 0.5827
C55_2 C 0.2717(3) 0.4157(3) 0.5234(3)
H44_2 H 0.2960 0.4403 0.5254
C56_2 C 0.15843(19) 0.37860(19) 0.5916(2)
N6_2 N 0.08804(15) 0.37407(16) 0.65923(16)
C58_2 C 0.0183(2) 0.3003(2) 0.6548(2)
H46_2 H 0.0168 0.3242 0.6798
C59_2 C 0.0550(2) 0.3010(2) 0.6200(2)
C60_2 C 0.0575(2) 0.2654(2) 0.5848(2)
H47_2 H 0.0827 0.2662 0.5609
C61_2 C 0.0234(3) 0.2283(3) 0.5843(3)
H48_2 H 0.0254 0.2040 0.5597
C62_2 C 0.0916(2) 0.34157(19) 0.62140(19)
O24_2 O 0.17346(17) 0.53967(17) 0.93744(16)
O25_2 O 0.06256(16) 0.67346(17) 0.96033(17)
O26_2 O 0.12253(16) 0.50857(17) 0.88096(18)
O27_2 O 0.11904(18) 0.62253(16) 0.99143(17)
O14 O 0.82654(17) 0.03967(17) 0.56256(16)
O15 O 0.87747(16) 0.00857(17) 0.61904(18)
C63 C 0.8391(2) 0.0068(2) 0.5929(2)
C74 C 0.5929(2) 0.8391(2) 0.0068(2)
C7_2 C 0.9938(7) 0.6506(8) 0.6434(5)
H7_2 H 0.9751 0.6496 0.6138
C8_2 C 0.9886(7) 0.6896(6) 0.6754(6)
H8_2 H 0.9663 0.7156 0.6679
O7 O 0.85694(16) 0.67962(16) 0.78364(18)
C18 C 0.9628(2) 0.5981(2) 0.8062(3)
C19 C 0.9299(2) 0.6367(2) 0.8121(2)
H14 H 0.9346 0.6596 0.8378
C20 C 0.8918(2) 0.6418(2) 0.7819(2)
C21 C 0.8845(3) 0.6104(3) 0.7431(3)
H15 H 0.8572 0.6142 0.7221
C22 C 0.9183(3) 0.5732(3) 0.7357(3)
H16 H 0.9137 0.5515 0.7090
C23 C 0.9574(3) 0.5665(3) 0.7650(3)
H17 H 0.9807 0.5417 0.7584
C24 C 0.8699(3) 0.7207(3) 0.8152(3)
H18 H 0.9032 0.7324 0.8075
H19 H 0.8690 0.7107 0.8499
C25 C 0.8319(2) 0.7616(2) 0.8054(2)
C26 C 0.8389(2) 0.7928(2) 0.7665(2)
C27 C 0.8803(2) 0.7834(3) 0.7313(3)
H20 H 0.8804 0.8086 0.7060
H21 H 0.8760 0.7512 0.7162
H22 H 0.9114 0.7841 0.7491
C41_2 C 0.9734(3) 0.3694(3) 0.5518(3)
H32_2 H 0.9690 0.3675 0.5866
H33_2 H 0.9855 0.3383 0.5411
C42_2 C 0.9735(3) 0.4597(4) 0.6053(3)
H34_2 H 0.9785 0.4914 0.6195
H35_2 H 0.9418 0.4585 0.5903
H36_2 H 0.9755 0.4352 0.6303
O11_2 O 0.8287(12) 0.1928(8) 0.5575(11)
O12_2 O 0.8734(7) 0.2248(8) 0.6203(6)
O13_2 O 0.9252(4) 0.3784(7) 0.5301(7)
C43_2 C 0.8466(7) 0.2708(6) 0.5479(5)
C44_2 C 0.8856(5) 0.3028(9) 0.5531(6)
H37_2 H 0.9116 0.2952 0.5754
C45_2 C 0.8871(5) 0.3457(8) 0.5260(8)
C46_2 C 0.8494(8) 0.3566(5) 0.4938(7)
H38_2 H 0.8504 0.3862 0.4751
C47_2 C 0.8104(6) 0.3246(6) 0.4886(7)
H39_2 H 0.7844 0.3321 0.4663
C48_2 C 0.8090(5) 0.2817(5) 0.5157(6)
H40_2 H 0.7820 0.2596 0.5121
C49_2 C 0.8512(7) 0.2263(7) 0.5800(5)
N5_2 N 0.98720(19) 0.22553(18) 0.61767(18)
C57_2 C 0.9825(3) 0.2623(2) 0.6516(3)
H45_2 H 0.9552 0.2626 0.6730
O16 O 0.78364(18) 0.85694(16) 0.67962(16)
C64 C 0.8062(3) 0.9628(2) 0.5981(2)
C65 C 0.8121(2) 0.9299(2) 0.6367(2)
H49 H 0.8378 0.9346 0.6596
C66 C 0.7819(2) 0.8918(2) 0.6418(2)
C67 C 0.7431(3) 0.8845(3) 0.6104(3)
H50 H 0.7221 0.8572 0.6142
C68 C 0.7357(3) 0.9183(3) 0.5732(3)
H51 H 0.7090 0.9137 0.5515
C69 C 0.7650(3) 0.9574(3) 0.5665(3)
H52 H 0.7584 0.9807 0.5417
C70 C 0.8152(3) 0.8699(3) 0.7207(3)
H53 H 0.8075 0.9032 0.7324
H54 H 0.8499 0.8690 0.7107
C71 C 0.8054(2) 0.8319(2) 0.7616(2)
C72 C 0.7665(2) 0.8389(2) 0.7928(2)
C73 C 0.7313(3) 0.8803(2) 0.7834(3)
H55 H 0.7060 0.8804 0.8086
H56 H 0.7162 0.8760 0.7512
H57 H 0.7491 0.9114 0.7841
O19 O 0.67962(16) 0.78364(18) 0.85694(16)
C75 C 0.5981(2) 0.8062(3) 0.9628(2)
C76 C 0.6367(2) 0.8121(2) 0.9299(2)
H58 H 0.6596 0.8378 0.9346
C77 C 0.6418(2) 0.7819(2) 0.8918(2)
C78 C 0.6104(3) 0.7431(3) 0.8845(3)
H59 H 0.6142 0.7221 0.8572
C79 C 0.5732(3) 0.7357(3) 0.9183(3)
H60 H 0.5515 0.7090 0.9137
C80 C 0.5665(3) 0.7650(3) 0.9574(3)
H61 H 0.5417 0.7584 0.9807
C81 C 0.7207(3) 0.8152(3) 0.8699(3)
H62 H 0.7324 0.8075 0.9032
H63 H 0.7107 0.8499 0.8690
C82 C 0.7616(2) 0.8054(2) 0.8319(2)
C83 C 0.7928(2) 0.7665(2) 0.8389(2)
C84 C 0.7834(3) 0.7313(3) 0.8803(2)
H64 H 0.8086 0.7060 0.8804
H65 H 0.7512 0.7162 0.8760
H66 H 0.7841 0.7491 0.9114
C85_2 C 0.5929(2) 0.0413(2) 0.4880(2)
C86_2 C 0.6306(3) 0.0518(3) 0.5266(3)
C87_2 C 0.5492(2) 0.06722(18) 0.4881(2)
C88_2 C 0.56722(18) 0.0119(2) 0.4508(2)
H67_2 H 0.6325 0.0866 0.5310
H68_2 H 0.6617 0.0411 0.5145
O28_2 O 0.6216(7) 0.0301(7) 0.5748(4)
C89_2 C 0.5403(4) 0.1053(3) 0.5265(3)
H69_2 H 0.5086 0.1195 0.5215
H70_2 H 0.5415 0.0903 0.5582
H71_2 H 0.5648 0.1303 0.5245
O29_2 O 0.8072(8) 0.0575(11) 0.6713(12)
C90_2 C 0.7737(7) 0.0800(5) 0.6488(7)
O30_2 O 0.7752(8) 0.1203(6) 0.6266(7)
C91_2 C 0.6543(8) 0.0260(8) 0.6129(5)
C92_2 C 0.7292(6) 0.0479(5) 0.6534(7)
C93_2 C 0.6972(9) 0.0531(6) 0.6144(5)
C94_2 C 0.7183(5) 0.0157(6) 0.6910(5)
H72_2 H 0.7048 0.0754 0.5884
H75_2 H 0.7404 0.0121 0.7180
N9_2 N 0.77447(18) 0.11767(18) 0.51280(19)
O31_2 O 0.8795(2) 0.1205(2) 0.6205(2)
C97_2 C 0.7377(2) 0.1516(3) 0.5175(3)
C98_2 C 0.7717(3) 0.0843(3) 0.4766(3)
N10_2 N 0.62593(16) 0.15923(16) 0.41196(15)
C99_2 C 0.65843(19) 0.12140(19) 0.4084(2)
C100_2 C 0.5916(2) 0.15843(19) 0.37860(19)
H76_2 H 0.7374 0.1730 0.5448
C101_2 C 0.6997(2) 0.1548(2) 0.4817(2)
H77_2 H 0.6758 0.1798 0.4832
C102_2 C 0.6990(2) 0.1200(2) 0.4450(2)
C103_2 C 0.7346(2) 0.0848(2) 0.4425(2)
H78_2 H 0.7338 0.0609 0.4173
H79_2 H 0.7960 0.0597 0.4746
N11_2 N 0.65923(16) 0.08804(15) 0.37407(16)
C117_2 C 0.5120(2) 0.0929(2) 0.4587(2)
C118_2 C 0.4734(3) 0.1306(3) 0.4482(3)
C119_2 C 0.5119(2) 0.0492(2) 0.43278(18)
H89_2 H 0.4690 0.1325 0.4134
H90_2 H 0.4855 0.1617 0.4589
O36_2 O 0.4252(4) 0.1216(7) 0.4699(7)
C120_2 C 0.4735(3) 0.0403(4) 0.3947(3)
H91_2 H 0.4785 0.0086 0.3805
H92_2 H 0.4418 0.0415 0.4097
H93_2 H 0.4755 0.0648 0.3697
C121_2 C 0.3512(7) 0.2737(7) 0.4200(5)
C122_2 C 0.3871(5) 0.1543(8) 0.4740(8)
C123_2 C 0.3466(7) 0.2292(6) 0.4521(5)
C124_2 C 0.3856(5) 0.1972(9) 0.4469(6)
C125_2 C 0.3090(5) 0.2183(5) 0.4843(6)
H94_2 H 0.4116 0.2048 0.4246
C126_2 C 0.3494(8) 0.1434(5) 0.5062(7)
H95_2 H 0.3504 0.1138 0.5249
C127_2 C 0.3104(6) 0.1754(6) 0.5114(7)
H96_2 H 0.2844 0.1679 0.5337
H97_2 H 0.2820 0.2404 0.4879
C128_2 C 0.5413(2) 0.0120(2) 0.4071(2)
C138_2 C 0.4825(3) 0.2377(2) 0.3484(3)
C139_2 C 0.5234(3) 0.2717(3) 0.4157(3)
N13_2 N 0.58804(15) 0.12593(16) 0.34077(16)
C140_2 C 0.62140(19) 0.0916(2) 0.34157(19)
H107_2 H 0.4552 0.2374 0.3270
C141_2 C 0.5183(2) 0.1997(2) 0.3452(2)
H108_2 H 0.5168 0.1758 0.3202
C142_2 C 0.5550(2) 0.1990(2) 0.3800(2)
C143_2 C 0.5575(2) 0.2346(2) 0.4152(2)
H109_2 H 0.5827 0.2338 0.4391
H110_2 H 0.5254 0.2960 0.4403
C145_2 C 0.5843(3) 0.0234(3) 0.2283(3)
C146_2 C 0.6548(2) 0.0183(2) 0.3003(2)
H112_2 H 0.6798 0.0168 0.3242
C147_2 C 0.6200(2) 0.0550(2) 0.3010(2)
C148_2 C 0.5848(2) 0.0575(2) 0.2654(2)
H113_2 H 0.5609 0.0827 0.2662
H114_2 H 0.5597 0.0254 0.2040
O50_2 O 0.99143(17) 0.11904(18) 0.62253(16)
O52_2 O 0.96033(17) 0.06256(16) 0.67346(17)
C95_2 C 0.6434(5) 0.9938(7) 0.6506(8)
H73_2 H 0.6138 0.9751 0.6496
C96_2 C 0.6754(6) 0.9886(7) 0.6896(6)
H74_2 H 0.6679 0.9663 0.7156
C129_2 C 0.5518(3) 0.9734(3) 0.3694(3)
H98_2 H 0.5866 0.9690 0.3675
H99_2 H 0.5411 0.9855 0.3383
O39_2 O 0.5301(7) 0.9252(4) 0.3784(7)
C130_2 C 0.6053(3) 0.9735(3) 0.4597(4)
H100_2 H 0.6195 0.9785 0.4914
H101_2 H 0.5903 0.9418 0.4585
H102_2 H 0.6303 0.9755 0.4352
C131_2 C 0.5800(5) 0.8512(7) 0.2263(7)
C132_2 C 0.5260(8) 0.8871(5) 0.3457(8)
C133_2 C 0.5479(5) 0.8466(7) 0.2708(6)
C134_2 C 0.5531(6) 0.8856(5) 0.3028(9)
C135_2 C 0.5157(6) 0.8090(5) 0.2817(5)
H103_2 H 0.5754 0.9116 0.2952
C136_2 C 0.4938(7) 0.8494(8) 0.3566(5)
H104_2 H 0.4751 0.8504 0.3862
C137_2 C 0.4886(7) 0.8104(6) 0.3246(6)
H105_2 H 0.4663 0.7844 0.3321
H106_2 H 0.5121 0.7820 0.2596
C144_2 C 0.6516(3) 0.9825(3) 0.2623(2)
H111_2 H 0.6730 0.9552 0.2626
C104_2 C 0.3391(2) 0.4932(2) 0.4071(2)
O35_2 O 0.28364(18) 0.64306(16) 0.32038(16)
C105_2 C 0.2819(2) 0.6082(2) 0.3582(2)
C106_2 C 0.3152(3) 0.6301(3) 0.2793(3)
C107_2 C 0.3062(3) 0.5372(2) 0.4019(2)
C108_2 C 0.3121(2) 0.5701(2) 0.3633(2)
C109_2 C 0.2650(3) 0.5426(3) 0.4335(3)
H80_2 H 0.3378 0.5654 0.3404
C110_2 C 0.2431(3) 0.6155(3) 0.3896(3)
H81_2 H 0.2221 0.6428 0.3858
C111_2 C 0.2357(3) 0.5817(3) 0.4268(3)
H82_2 H 0.2090 0.5863 0.4485
H83_2 H 0.2584 0.5193 0.4583
H84_2 H 0.3075 0.5968 0.2676
H85_2 H 0.3499 0.6310 0.2893
C112_2 C 0.3054(2) 0.6681(2) 0.2384(2)
C113_2 C 0.2665(2) 0.6611(2) 0.2072(2)
C114_2 C 0.3389(2) 0.7072(2) 0.2335(2)
C115_2 C 0.2313(3) 0.6197(2) 0.2166(3)
C116_2 C 0.2616(2) 0.6946(2) 0.1681(2)
H86_2 H 0.2060 0.6196 0.1914
H87_2 H 0.2162 0.6240 0.2488
H88_2 H 0.2491 0.5886 0.2159
O44_2 O 0.17962(16) 0.71636(18) 0.14306(16)
C150_2 C 0.1418(2) 0.7181(2) 0.1082(2)
C151_2 C 0.2207(3) 0.6848(3) 0.1301(3)
C152_2 C 0.0981(2) 0.6938(3) 0.0372(2)
C153_2 C 0.1367(2) 0.6879(2) 0.0701(2)
C154_2 C 0.0665(3) 0.7350(3) 0.0426(3)
H115_2 H 0.1596 0.6622 0.0654
C155_2 C 0.1104(3) 0.7569(3) 0.1155(3)
H116_2 H 0.1142 0.7779 0.1428
C156_2 C 0.0732(3) 0.7643(3) 0.0817(3)
H117_2 H 0.0515 0.7910 0.0863
H118_2 H 0.0417 0.7416 0.0193
H119_2 H 0.2324 0.6925 0.0968
H120_2 H 0.2107 0.6501 0.1310
C157_2 C 0.2928(2) 0.7335(2) 0.1611(2)
C158_2 C 0.2834(3) 0.7687(3) 0.1197(2)
C159_2 C 0.3319(2) 0.7384(2) 0.1946(2)
H121_2 H 0.3086 0.7940 0.1196
H122_2 H 0.2512 0.7838 0.1240
H123_2 H 0.2841 0.7509 0.0886
C160_2 C 0.5068(2) 0.9071(2) 0.1609(2)
O47_2 O 0.35694(16) 0.82038(16) 0.21636(18)
C161_2 C 0.3918(2) 0.8582(2) 0.2181(2)
C162_2 C 0.3699(3) 0.7793(3) 0.1848(3)
C163_2 C 0.4628(2) 0.9019(2) 0.1938(3)
C164_2 C 0.4299(2) 0.8633(2) 0.1879(2)
C165_2 C 0.4574(3) 0.9335(3) 0.2350(3)
H124_2 H 0.4346 0.8404 0.1622
C166_2 C 0.3845(3) 0.8896(3) 0.2569(3)
H125_2 H 0.3572 0.8858 0.2779
C167_2 C 0.4183(3) 0.9268(3) 0.2643(3)
H126_2 H 0.4137 0.9485 0.2910
H127_2 H 0.4807 0.9583 0.2416
H128_2 H 0.4032 0.7676 0.1925
H129_2 H 0.3690 0.7893 0.1501
C168_2 C 0.3803(2) 0.7166(3) 0.2687(3)
H130_2 H 0.3804 0.6914 0.2940
H131_2 H 0.3760 0.7488 0.2838
H132_2 H 0.4114 0.7159 0.2509
C149_2 C 0.0929(2) 0.6609(2) 0.9932(2)
O7_2 O 0.14306(16) 0.17962(16) 0.71636(18)
C18_2 C 0.0372(2) 0.0981(2) 0.6938(3)
C19_2 C 0.0701(2) 0.1367(2) 0.6879(2)
H14_2 H 0.0654 0.1596 0.6622
C20_2 C 0.1082(2) 0.1418(2) 0.7181(2)
C21_2 C 0.1155(3) 0.1104(3) 0.7569(3)
H15_2 H 0.1428 0.1142 0.7779
C22_2 C 0.0817(3) 0.0732(3) 0.7643(3)
H16_2 H 0.0863 0.0515 0.7910
C23_2 C 0.0426(3) 0.0665(3) 0.7350(3)
H17_2 H 0.0193 0.0417 0.7416
C24_2 C 0.1301(3) 0.2207(3) 0.6848(3)
H18_2 H 0.0968 0.2324 0.6925
H19_2 H 0.1310 0.2107 0.6501
C25_2 C 0.1681(2) 0.2616(2) 0.6946(2)
C26_2 C 0.1611(2) 0.2928(2) 0.7335(2)
C27_2 C 0.1197(2) 0.2834(3) 0.7687(3)
H20_2 H 0.1196 0.3086 0.7940
H21_2 H 0.1240 0.2512 0.7838
H22_2 H 0.0886 0.2841 0.7509
O16_2 O 0.21636(18) 0.35694(16) 0.82038(16)
C63_2 C 0.1609(2) 0.5068(2) 0.9071(2)
C64_2 C 0.1938(3) 0.4628(2) 0.9019(2)
C65_2 C 0.1879(2) 0.4299(2) 0.8633(2)
H49_2 H 0.1622 0.4346 0.8404
C66_2 C 0.2181(2) 0.3918(2) 0.8582(2)
C67_2 C 0.2569(3) 0.3845(3) 0.8896(3)
H50_2 H 0.2779 0.3572 0.8858
C68_2 C 0.2643(3) 0.4183(3) 0.9268(3)
H51_2 H 0.2910 0.4137 0.9485
C69_2 C 0.2350(3) 0.4574(3) 0.9335(3)
H52_2 H 0.2416 0.4807 0.9583
C70_2 C 0.1848(3) 0.3699(3) 0.7793(3)
H53_2 H 0.1925 0.4032 0.7676
H54_2 H 0.1501 0.3690 0.7893
C71_2 C 0.1946(2) 0.3319(2) 0.7384(2)
C72_2 C 0.2335(2) 0.3389(2) 0.7072(2)
C73_2 C 0.2687(3) 0.3803(2) 0.7166(3)
H55_2 H 0.2940 0.3804 0.6914
H56_2 H 0.2838 0.3760 0.7488
H57_2 H 0.2509 0.4114 0.7159
O19_2 O 0.32038(16) 0.28364(18) 0.64306(16)
C74_2 C 0.4071(2) 0.3391(2) 0.4932(2)
C75_2 C 0.4019(2) 0.3062(3) 0.5372(2)
C76_2 C 0.3633(2) 0.3121(2) 0.5701(2)
H58_2 H 0.3404 0.3378 0.5654
C77_2 C 0.3582(2) 0.2819(2) 0.6082(2)
C78_2 C 0.3896(3) 0.2431(3) 0.6155(3)
H59_2 H 0.3858 0.2221 0.6428
C79_2 C 0.4268(3) 0.2357(3) 0.5817(3)
H60_2 H 0.4485 0.2090 0.5863
C80_2 C 0.4335(3) 0.2650(3) 0.5426(3)
H61_2 H 0.4583 0.2584 0.5193
C81_2 C 0.2793(3) 0.3152(3) 0.6301(3)
H62_2 H 0.2676 0.3075 0.5968
H63_2 H 0.2893 0.3499 0.6310
C82_2 C 0.2384(2) 0.3054(2) 0.6681(2)
C83_2 C 0.2072(2) 0.2665(2) 0.6611(2)
C84_2 C 0.2166(3) 0.2313(3) 0.6197(2)
H64_2 H 0.1914 0.2060 0.6196
H65_2 H 0.2488 0.2162 0.6240
H66_2 H 0.2159 0.2491 0.5886
C17_2 C 0.9932(2) 0.0929(2) 0.6609(2)
O14_2 O 0.32654(17) 0.03967(17) 0.93744(16)
O15_2 O 0.37747(16) 0.00857(17) 0.88096(18)
C63_3 C 0.3391(2) 0.0068(2) 0.9071(2)
Co5 Co 0.38243(3) 0.06637(3) 0.82966(3)
Co8 Co 0.32966(3) 0.11757(3) 0.93363(3)
C30_3 C 0.6306(3) 0.4482(3) 0.0266(3)
H23_3 H 0.6325 0.4134 0.0310
H24_3 H 0.6617 0.4589 0.0145
C31_3 C 0.5403(4) 0.3947(3) 0.0265(3)
H25_3 H 0.5086 0.3805 0.0215
H26_3 H 0.5415 0.4097 0.0582
H27_3 H 0.5648 0.3697 0.0245
O8_2 O 0.8072(8) 0.4425(11) 0.1713(12)
O9_2 O 0.7752(8) 0.3797(6) 0.1266(7)
O10_3 O 0.6216(7) 0.4699(7) 0.0748(4)
C32_3 C 0.7292(6) 0.4521(5) 0.1534(7)
C33_3 C 0.6972(9) 0.4469(6) 0.1144(5)
H28_3 H 0.7048 0.4246 0.0884
C34_3 C 0.6543(8) 0.4740(8) 0.1129(5)
C35_3 C 0.6434(5) 0.5062(7) 0.1506(8)
H29_3 H 0.6138 0.5249 0.1496
C36_3 C 0.6754(6) 0.5114(7) 0.1896(6)
H30_3 H 0.6679 0.5337 0.2156
C37_3 C 0.7183(5) 0.4843(6) 0.1910(5)
H31_3 H 0.7404 0.4879 0.2180
C38_3 C 0.7737(7) 0.4200(5) 0.1488(7)
C46_3 C 0.3494(8) 0.3566(5) 0.0062(7)
H38_3 H 0.3504 0.3862 0.0249
C47_3 C 0.3104(6) 0.3246(6) 0.0114(7)
H39_3 H 0.2844 0.3321 0.0337
N3_2 N 0.77447(18) 0.38233(18) 0.01280(19)
C51_3 C 0.7377(2) 0.3484(3) 0.0175(3)
H41_3 H 0.7374 0.3270 0.0448
Co4_2 Co 0.88243(3) 0.43363(3) 0.17034(3)
Co7 Co 0.82966(3) 0.38243(3) 0.06637(3)
C85_3 C 0.0929(2) 0.0413(2) 0.0120(2)
C87_3 C 0.0492(2) 0.06722(18) 0.0119(2)
C88_3 C 0.06722(18) 0.0119(2) 0.0492(2)
C98_3 C 0.2717(3) 0.0843(3) 0.0234(3)
N10_3 N 0.12593(16) 0.15923(16) 0.08804(15)
C99_3 C 0.15843(19) 0.12140(19) 0.0916(2)
C100_3 C 0.0916(2) 0.15843(19) 0.12140(19)
C101_3 C 0.1997(2) 0.1548(2) 0.0183(2)
H77_3 H 0.1758 0.1798 0.0168
C102_3 C 0.1990(2) 0.1200(2) 0.0550(2)
C103_3 C 0.2346(2) 0.0848(2) 0.0575(2)
H78_3 H 0.2338 0.0609 0.0827
H79_3 H 0.2960 0.0597 0.0254
N11_3 N 0.15923(16) 0.08804(15) 0.12593(16)
C117_3 C 0.0120(2) 0.0929(2) 0.0413(2)
C119_3 C 0.0119(2) 0.0492(2) 0.06722(18)
C128_3 C 0.0413(2) 0.0120(2) 0.0929(2)
C139_3 C 0.0234(3) 0.2717(3) 0.0843(3)
N13_3 N 0.08804(15) 0.12593(16) 0.15923(16)
C140_3 C 0.12140(19) 0.0916(2) 0.15843(19)
C141_3 C 0.0183(2) 0.1997(2) 0.1548(2)
H108_3 H 0.0168 0.1758 0.1798
C142_3 C 0.0550(2) 0.1990(2) 0.1200(2)
C143_3 C 0.0575(2) 0.2346(2) 0.0848(2)
H109_3 H 0.0827 0.2338 0.0609
H110_3 H 0.0254 0.2960 0.0597
C145_3 C 0.0843(3) 0.0234(3) 0.2717(3)
C146_3 C 0.1548(2) 0.0183(2) 0.1997(2)
H112_3 H 0.1798 0.0168 0.1758
C147_3 C 0.1200(2) 0.0550(2) 0.1990(2)
C148_3 C 0.0848(2) 0.0575(2) 0.2346(2)
H113_3 H 0.0609 0.0827 0.2338
H114_3 H 0.0597 0.0254 0.2960
C1_3 C 0.5413(2) 0.4880(2) 0.9071(2)
C2_3 C 0.5518(3) 0.5266(3) 0.8694(3)
H1_3 H 0.5866 0.5310 0.8675
H2_3 H 0.5411 0.5145 0.8383
C3_3 C 0.6053(3) 0.5265(3) 0.9597(4)
H3_3 H 0.6195 0.5215 0.9914
H4_3 H 0.5903 0.5582 0.9585
H5_3 H 0.6303 0.5245 0.9352
O1_3 O 0.5575(11) 0.6713(12) 0.6928(8)
O2_3 O 0.6203(6) 0.6266(7) 0.7248(8)
O3_3 O 0.5301(7) 0.5748(4) 0.8784(7)
C4_3 C 0.5479(5) 0.6534(7) 0.7708(6)
C5_3 C 0.5531(6) 0.6144(5) 0.8028(9)
H6_3 H 0.5754 0.5884 0.7952
C6_3 C 0.5260(8) 0.6129(5) 0.8457(8)
C7_3 C 0.4938(7) 0.6506(8) 0.8566(5)
H7_3 H 0.4751 0.6496 0.8862
C8_3 C 0.4886(7) 0.6896(6) 0.8246(6)
H8_3 H 0.4663 0.7156 0.8321
C9_3 C 0.5157(6) 0.6910(5) 0.7817(5)
H9_3 H 0.5121 0.7180 0.7596
C10_3 C 0.5800(5) 0.6488(7) 0.7263(7)
Co1 Co 0.61757(3) 0.56637(3) 0.67034(3)
N1_3 N 0.61767(18) 0.51280(19) 0.72553(18)
N2_3 N 0.65923(16) 0.41196(15) 0.87407(16)
C11_3 C 0.6516(3) 0.5175(3) 0.7623(2)
H10_3 H 0.6730 0.5448 0.7626
C12_3 C 0.6548(2) 0.4817(2) 0.8003(2)
H11_3 H 0.6798 0.4832 0.8242
C13_3 C 0.6200(2) 0.4450(2) 0.8010(2)
C14_3 C 0.5848(2) 0.4425(2) 0.7654(2)
H12_3 H 0.5609 0.4173 0.7662
C15_3 C 0.5843(3) 0.4766(3) 0.7283(3)
H13_3 H 0.5597 0.4746 0.7040
C16_3 C 0.62140(19) 0.4084(2) 0.84157(19)
O4_3 O 0.6205(2) 0.6205(2) 0.6205(2)
O5_2 O 0.53967(17) 0.56256(16) 0.67346(17)
O6_2 O 0.50857(17) 0.61904(18) 0.62253(16)
O7_3 O 0.35694(16) 0.67962(16) 0.71636(18)
C17_3 C 0.5068(2) 0.5929(2) 0.6609(2)
C18_3 C 0.4628(2) 0.5981(2) 0.6938(3)
C19_3 C 0.4299(2) 0.6367(2) 0.6879(2)
H14_3 H 0.4346 0.6596 0.6622
C20_3 C 0.3918(2) 0.6418(2) 0.7181(2)
C21_3 C 0.3845(3) 0.6104(3) 0.7569(3)
H15_3 H 0.3572 0.6142 0.7779
C22_3 C 0.4183(3) 0.5732(3) 0.7643(3)
H16_3 H 0.4137 0.5515 0.7910
C23_3 C 0.4574(3) 0.5665(3) 0.7350(3)
H17_3 H 0.4807 0.5417 0.7416
C24_3 C 0.3699(3) 0.7207(3) 0.6848(3)
H18_3 H 0.4032 0.7324 0.6925
H19_3 H 0.3690 0.7107 0.6501
C25_3 C 0.3319(2) 0.7616(2) 0.6946(2)
C26_3 C 0.3389(2) 0.7928(2) 0.7335(2)
C27_3 C 0.3803(2) 0.7834(3) 0.7687(3)
H20_3 H 0.3804 0.8086 0.7940
H21_3 H 0.3760 0.7512 0.7838
H22_3 H 0.4114 0.7841 0.7509
C28_3 C 0.56722(18) 0.4881(2) 0.9508(2)
C29_3 C 0.5929(2) 0.4587(2) 0.9880(2)
C39_3 C 0.5492(2) 0.43278(18) 0.9881(2)
C40_3 C 0.5120(2) 0.4071(2) 0.9587(2)
C41_3 C 0.4734(3) 0.3694(3) 0.9482(3)
H32_3 H 0.4690 0.3675 0.9134
H33_3 H 0.4855 0.3383 0.9589
C42_3 C 0.4735(3) 0.4597(4) 0.8947(3)
H34_3 H 0.4785 0.4914 0.8805
H35_3 H 0.4418 0.4585 0.9097
H36_3 H 0.4755 0.4352 0.8697
O11_3 O 0.3287(12) 0.1928(8) 0.9425(11)
O12_3 O 0.3734(7) 0.2248(8) 0.8797(6)
O13_3 O 0.4252(4) 0.3784(7) 0.9699(7)
C43_3 C 0.3466(7) 0.2708(6) 0.9521(5)
C44_3 C 0.3856(5) 0.3028(9) 0.9469(6)
H37_3 H 0.4116 0.2952 0.9246
C45_3 C 0.3871(5) 0.3457(8) 0.9740(8)
C48_3 C 0.3090(5) 0.2817(5) 0.9843(6)
H40_3 H 0.2820 0.2596 0.9879
C49_3 C 0.3512(7) 0.2263(7) 0.9200(5)
C50_3 C 0.5119(2) 0.4508(2) 0.93278(18)
N4_3 N 0.62593(16) 0.34077(16) 0.91196(15)
C52_3 C 0.6997(2) 0.3452(2) 0.9817(2)
H42_3 H 0.6758 0.3202 0.9832
C53_3 C 0.6990(2) 0.3800(2) 0.9450(2)
C54_3 C 0.7346(2) 0.4152(2) 0.9425(2)
H43_3 H 0.7338 0.4391 0.9173
C55_3 C 0.7717(3) 0.4157(3) 0.9766(3)
H44_3 H 0.7960 0.4403 0.9746
C56_3 C 0.65843(19) 0.37860(19) 0.9084(2)
N5_3 N 0.48720(19) 0.22553(18) 0.88233(18)
N6_3 N 0.58804(15) 0.37407(16) 0.84077(16)
C57_3 C 0.4825(3) 0.2623(2) 0.8484(3)
H45_3 H 0.4552 0.2626 0.8270
C58_3 C 0.5183(2) 0.3003(2) 0.8452(2)
H46_3 H 0.5168 0.3242 0.8202
C59_3 C 0.5550(2) 0.3010(2) 0.8800(2)
C60_3 C 0.5575(2) 0.2654(2) 0.9152(2)
H47_3 H 0.5827 0.2662 0.9391
C61_3 C 0.5234(3) 0.2283(3) 0.9157(3)
H48_3 H 0.5254 0.2040 0.9403
C62_3 C 0.5916(2) 0.34157(19) 0.87860(19)
O16_3 O 0.28364(18) 0.85694(16) 0.82038(16)
C64_3 C 0.3062(3) 0.9628(2) 0.9019(2)
C65_3 C 0.3121(2) 0.9299(2) 0.8633(2)
H49_3 H 0.3378 0.9346 0.8404
C66_3 C 0.2819(2) 0.8918(2) 0.8582(2)
C67_3 C 0.2431(3) 0.8845(3) 0.8896(3)
H50_3 H 0.2221 0.8572 0.8858
C68_3 C 0.2357(3) 0.9183(3) 0.9268(3)
H51_3 H 0.2090 0.9137 0.9485
C69_3 C 0.2650(3) 0.9574(3) 0.9335(3)
H52_3 H 0.2584 0.9807 0.9583
C70_3 C 0.3152(3) 0.8699(3) 0.7793(3)
H53_3 H 0.3075 0.9032 0.7676
H54_3 H 0.3499 0.8690 0.7893
C71_3 C 0.3054(2) 0.8319(2) 0.7384(2)
C72_3 C 0.2665(2) 0.8389(2) 0.7072(2)
C73_3 C 0.2313(3) 0.8803(2) 0.7166(3)
H55_3 H 0.2060 0.8804 0.6914
H56_3 H 0.2162 0.8760 0.7488
H57_3 H 0.2491 0.9114 0.7159
O17 O 0.06256(16) 0.82654(17) 0.46033(17)
O18 O 0.11904(18) 0.87747(16) 0.49143(17)
O19_3 O 0.17962(16) 0.78364(18) 0.64306(16)
C74_3 C 0.0929(2) 0.8391(2) 0.4932(2)
C75_3 C 0.0981(2) 0.8062(3) 0.5372(2)
C76_3 C 0.1367(2) 0.8121(2) 0.5701(2)
H58_3 H 0.1596 0.8378 0.5654
C77_3 C 0.1418(2) 0.7819(2) 0.6082(2)
C78_3 C 0.1104(3) 0.7431(3) 0.6155(3)
H59_3 H 0.1142 0.7221 0.6428
C79_3 C 0.0732(3) 0.7357(3) 0.5817(3)
H60_3 H 0.0515 0.7090 0.5863
C80_3 C 0.0665(3) 0.7650(3) 0.5426(3)
H61_3 H 0.0417 0.7584 0.5193
C81_3 C 0.2207(3) 0.8152(3) 0.6301(3)
H62_3 H 0.2324 0.8075 0.5968
H63_3 H 0.2107 0.8499 0.6310
C82_3 C 0.2616(2) 0.8054(2) 0.6681(2)
C83_3 C 0.2928(2) 0.7665(2) 0.6611(2)
C84_3 C 0.2834(3) 0.7313(3) 0.6197(2)
H64_3 H 0.3086 0.7060 0.6196
H65_3 H 0.2512 0.7162 0.6240
H66_3 H 0.2841 0.7491 0.5886
Co2_2 Co 0.67034(3) 0.61757(3) 0.56637(3)
Co3 Co 0.56637(3) 0.67034(3) 0.61757(3)
O20_2 O 0.6928(8) 0.5575(11) 0.6713(12)
O21_2 O 0.6713(12) 0.6928(8) 0.5575(11)
O22_2 O 0.7248(8) 0.6203(6) 0.6266(7)
O23_2 O 0.6266(7) 0.7248(8) 0.6203(6)
Co6 Co 0.17034(3) 0.88243(3) 0.43363(3)
Co10_2 Co 0.43363(3) 0.17034(3) 0.88243(3)
Co11 Co 0.06637(3) 0.82966(3) 0.38243(3)
N7_2 N 0.72553(18) 0.61767(18) 0.51280(19)
N8_2 N 0.51280(19) 0.72553(18) 0.61767(18)
O24_3 O 0.67346(17) 0.53967(17) 0.56256(16)
O25_3 O 0.56256(16) 0.67346(17) 0.53967(17)
O26_3 O 0.62253(16) 0.50857(17) 0.61904(18)
O27_3 O 0.61904(18) 0.62253(16) 0.50857(17)
C86_3 C 0.1306(3) 0.0518(3) 0.9734(3)
H67_3 H 0.1325 0.0866 0.9690
H68_3 H 0.1617 0.0411 0.9855
O28_3 O 0.1216(7) 0.0301(7) 0.9252(4)
C89_3 C 0.0403(4) 0.1053(3) 0.9735(3)
H69_3 H 0.0086 0.1195 0.9785
H70_3 H 0.0415 0.0903 0.9418
H71_3 H 0.0648 0.1303 0.9755
O29_3 O 0.3072(8) 0.0575(11) 0.8287(12)
C90_3 C 0.2737(7) 0.0800(5) 0.8512(7)
O30_3 O 0.2752(8) 0.1203(6) 0.8734(7)
C91_3 C 0.1543(8) 0.0260(8) 0.8871(5)
C92_3 C 0.2292(6) 0.0479(5) 0.8466(7)
C93_3 C 0.1972(9) 0.0531(6) 0.8856(5)
C94_3 C 0.2183(5) 0.0157(6) 0.8090(5)
H72_3 H 0.2048 0.0754 0.9116
H75_3 H 0.2404 0.0121 0.7820
N9_3 N 0.27447(18) 0.11767(18) 0.98720(19)
O31_3 O 0.3795(2) 0.1205(2) 0.8795(2)
O33_2 O 0.38096(18) 0.12253(16) 0.99143(17)
C97_3 C 0.2377(2) 0.1516(3) 0.9825(3)
H76_3 H 0.2374 0.1730 0.9552
O48_2 O 0.4425(11) 0.1713(12) 0.8072(8)
O49_2 O 0.43744(16) 0.17346(17) 0.96033(17)
O50_3 O 0.49143(17) 0.11904(18) 0.87747(16)
O51_2 O 0.3797(6) 0.1266(7) 0.7752(8)
N15_2 N 0.38233(18) 0.01280(19) 0.77447(18)
O52_3 O 0.46033(17) 0.06256(16) 0.82654(17)
C129_3 C 0.0518(3) 0.9734(3) 0.1306(3)
H98_3 H 0.0866 0.9690 0.1325
H99_3 H 0.0411 0.9855 0.1617
O39_3 O 0.0301(7) 0.9252(4) 0.1216(7)
C130_3 C 0.1053(3) 0.9735(3) 0.0403(4)
H100_3 H 0.1195 0.9785 0.0086
H101_3 H 0.0903 0.9418 0.0415
H102_3 H 0.1303 0.9755 0.0648
O40_2 O 0.0575(11) 0.8287(12) 0.3072(8)
C131_3 C 0.0800(5) 0.8512(7) 0.2737(7)
O41_2 O 0.1203(6) 0.8734(7) 0.2752(8)
Co16_2 Co 0.11757(3) 0.93363(3) 0.32966(3)
C132_3 C 0.0260(8) 0.8871(5) 0.1543(8)
C133_3 C 0.0479(5) 0.8466(7) 0.2292(6)
C134_3 C 0.0531(6) 0.8856(5) 0.1972(9)
C135_3 C 0.0157(6) 0.8090(5) 0.2183(5)
H103_3 H 0.0754 0.9116 0.2048
H106_3 H 0.0121 0.7820 0.2404
N14_2 N 0.11767(18) 0.98720(19) 0.27447(18)
C144_3 C 0.1516(3) 0.9825(3) 0.2377(2)
H111_3 H 0.1730 0.9552 0.2374
C95_3 C 0.1434(5) 0.9938(7) 0.8494(8)
H73_3 H 0.1138 0.9751 0.8504
C96_3 C 0.1754(6) 0.9886(7) 0.8104(6)
H74_3 H 0.1679 0.9663 0.7844
C118_3 C 0.9734(3) 0.1306(3) 0.0518(3)
H89_3 H 0.9690 0.1325 0.0866
H90_3 H 0.9855 0.1617 0.0411
O36_3 O 0.9252(4) 0.1216(7) 0.0301(7)
C120_3 C 0.9735(3) 0.0403(4) 0.1053(3)
H91_3 H 0.9785 0.0086 0.1195
H92_3 H 0.9418 0.0415 0.0903
H93_3 H 0.9755 0.0648 0.1303
O37_2 O 0.8287(12) 0.3072(8) 0.0575(11)
C121_3 C 0.8512(7) 0.2737(7) 0.0800(5)
O38_2 O 0.8734(7) 0.2752(8) 0.1203(6)
Co14_2 Co 0.93363(3) 0.32966(3) 0.11757(3)
C122_3 C 0.8871(5) 0.1543(8) 0.0260(8)
C123_3 C 0.8466(7) 0.2292(6) 0.0479(5)
C124_3 C 0.8856(5) 0.1972(9) 0.0531(6)
C125_3 C 0.8090(5) 0.2183(5) 0.0157(6)
H94_3 H 0.9116 0.2048 0.0754
H97_3 H 0.7820 0.2404 0.0121
N12_2 N 0.98720(19) 0.27447(18) 0.11767(18)
C138_3 C 0.9825(3) 0.2377(2) 0.1516(3)
H107_3 H 0.9552 0.2374 0.1730
C126_3 C 0.8494(8) 0.1434(5) 0.9938(7)
H95_3 H 0.8504 0.1138 0.9751
C127_3 C 0.8104(6) 0.1754(6) 0.9886(7)
H96_3 H 0.7844 0.1679 0.9663
C136_3 C 0.9938(7) 0.8494(8) 0.1434(5)
H104_3 H 0.9751 0.8504 0.1138
C137_3 C 0.9886(7) 0.8104(6) 0.1754(6)
H105_3 H 0.9663 0.7844 0.1679
C95_4 C 0.3566(5) 0.0062(7) 0.3494(8)
H73_4 H 0.3862 0.0249 0.3504
C96_4 C 0.3246(6) 0.0114(7) 0.3104(6)
H74_4 H 0.3321 0.0337 0.2844
O35_3 O 0.21636(18) 0.14306(16) 0.32038(16)
C105_3 C 0.2181(2) 0.1082(2) 0.3582(2)
C106_3 C 0.1848(3) 0.1301(3) 0.2793(3)
C107_3 C 0.1938(3) 0.0372(2) 0.4019(2)
C108_3 C 0.1879(2) 0.0701(2) 0.3633(2)
C109_3 C 0.2350(3) 0.0426(3) 0.4335(3)
H80_3 H 0.1622 0.0654 0.3404
C110_3 C 0.2569(3) 0.1155(3) 0.3896(3)
H81_3 H 0.2779 0.1428 0.3858
C111_3 C 0.2643(3) 0.0817(3) 0.4268(3)
H82_3 H 0.2910 0.0863 0.4485
H83_3 H 0.2416 0.0193 0.4583
H84_3 H 0.1925 0.0968 0.2676
H85_3 H 0.1501 0.1310 0.2893
C112_3 C 0.1946(2) 0.1681(2) 0.2384(2)
C113_3 C 0.2335(2) 0.1611(2) 0.2072(2)
C114_3 C 0.1611(2) 0.2072(2) 0.2335(2)
C115_3 C 0.2687(3) 0.1197(2) 0.2166(3)
C116_3 C 0.2384(2) 0.1946(2) 0.1681(2)
H86_3 H 0.2940 0.1196 0.1914
H87_3 H 0.2838 0.1240 0.2488
H88_3 H 0.2509 0.0886 0.2159
C129_4 C 0.4482(3) 0.0266(3) 0.6306(3)
H98_4 H 0.4134 0.0310 0.6325
H99_4 H 0.4589 0.0145 0.6617
O39_4 O 0.4699(7) 0.0748(4) 0.6216(7)
C130_4 C 0.3947(3) 0.0265(3) 0.5403(4)
H100_4 H 0.3805 0.0215 0.5086
H101_4 H 0.4097 0.0582 0.5415
H102_4 H 0.3697 0.0245 0.5648
C131_4 C 0.4200(5) 0.1488(7) 0.7737(7)
C132_4 C 0.4740(8) 0.1129(5) 0.6543(8)
C133_4 C 0.4521(5) 0.1534(7) 0.7292(6)
C134_4 C 0.4469(6) 0.1144(5) 0.6972(9)
C135_4 C 0.4843(6) 0.1910(5) 0.7183(5)
H103_4 H 0.4246 0.0884 0.7048
C136_4 C 0.5062(7) 0.1506(8) 0.6434(5)
H104_4 H 0.5249 0.1496 0.6138
C137_4 C 0.5114(7) 0.1896(6) 0.6754(6)
H105_4 H 0.5337 0.2156 0.6679
H106_4 H 0.4879 0.2180 0.7404
C144_4 C 0.3484(3) 0.0175(3) 0.7377(2)
H111_4 H 0.3270 0.0448 0.7374
O44_3 O 0.32038(16) 0.21636(18) 0.14306(16)
C150_3 C 0.3582(2) 0.2181(2) 0.1082(2)
C151_3 C 0.2793(3) 0.1848(3) 0.1301(3)
C152_3 C 0.4019(2) 0.1938(3) 0.0372(2)
C153_3 C 0.3633(2) 0.1879(2) 0.0701(2)
C154_3 C 0.4335(3) 0.2350(3) 0.0426(3)
H115_3 H 0.3404 0.1622 0.0654
C155_3 C 0.3896(3) 0.2569(3) 0.1155(3)
H116_3 H 0.3858 0.2779 0.1428
C156_3 C 0.4268(3) 0.2643(3) 0.0817(3)
H117_3 H 0.4485 0.2910 0.0863
H118_3 H 0.4583 0.2416 0.0193
H119_3 H 0.2676 0.1925 0.0968
H120_3 H 0.2893 0.1501 0.1310
C157_3 C 0.2072(2) 0.2335(2) 0.1611(2)
C158_3 C 0.2166(3) 0.2687(3) 0.1197(2)
C159_3 C 0.1681(2) 0.2384(2) 0.1946(2)
H121_3 H 0.1914 0.2940 0.1196
H122_3 H 0.2488 0.2838 0.1240
H123_3 H 0.2159 0.2509 0.0886
O47_3 O 0.14306(16) 0.32038(16) 0.21636(18)
C161_3 C 0.1082(2) 0.3582(2) 0.2181(2)
C162_3 C 0.1301(3) 0.2793(3) 0.1848(3)
C163_3 C 0.0372(2) 0.4019(2) 0.1938(3)
C164_3 C 0.0701(2) 0.3633(2) 0.1879(2)
C165_3 C 0.0426(3) 0.4335(3) 0.2350(3)
H124_3 H 0.0654 0.3404 0.1622
C166_3 C 0.1155(3) 0.3896(3) 0.2569(3)
H125_3 H 0.1428 0.3858 0.2779
C167_3 C 0.0817(3) 0.4268(3) 0.2643(3)
H126_3 H 0.0863 0.4485 0.2910
H127_3 H 0.0193 0.4583 0.2416
H128_3 H 0.0968 0.2676 0.1925
H129_3 H 0.1310 0.2893 0.1501
C168_3 C 0.1197(2) 0.2166(3) 0.2687(3)
H130_3 H 0.1196 0.1914 0.2940
H131_3 H 0.1240 0.2488 0.2838
H132_3 H 0.0886 0.2159 0.2509
C149_3 C 0.4071(2) 0.1609(2) 0.9932(2)
C7_4 C 0.0062(7) 0.3494(8) 0.3566(5)
H7_4 H 0.0249 0.3504 0.3862
C8_4 C 0.0114(7) 0.3104(6) 0.3246(6)
H8_4 H 0.0337 0.2844 0.3321
C41_4 C 0.0266(3) 0.6306(3) 0.4482(3)
H32_4 H 0.0310 0.6325 0.4134
H33_4 H 0.0145 0.6617 0.4589
C42_4 C 0.0265(3) 0.5403(4) 0.3947(3)
H34_4 H 0.0215 0.5086 0.3805
H35_4 H 0.0582 0.5415 0.4097
H36_4 H 0.0245 0.5648 0.3697
O11_4 O 0.1713(12) 0.8072(8) 0.4425(11)
O12_4 O 0.1266(7) 0.7752(8) 0.3797(6)
O13_4 O 0.0748(4) 0.6216(7) 0.4699(7)
C43_4 C 0.1534(7) 0.7292(6) 0.4521(5)
C44_4 C 0.1144(5) 0.6972(9) 0.4469(6)
H37_4 H 0.0884 0.7048 0.4246
C45_4 C 0.1129(5) 0.6543(8) 0.4740(8)
C46_4 C 0.1506(8) 0.6434(5) 0.5062(7)
H38_4 H 0.1496 0.6138 0.5249
C47_4 C 0.1896(6) 0.6754(6) 0.5114(7)
H39_4 H 0.2156 0.6679 0.5337
C48_4 C 0.1910(5) 0.7183(5) 0.4843(6)
H40_4 H 0.2180 0.7404 0.4879
C49_4 C 0.1488(7) 0.7737(7) 0.4200(5)
N5_4 N 0.01280(19) 0.77447(18) 0.38233(18)
C57_4 C 0.0175(3) 0.7377(2) 0.3484(3)
H45_4 H 0.0448 0.7374 0.3270
C85_4 C 0.4071(2) 0.9587(2) 0.5120(2)
C86_4 C 0.3694(3) 0.9482(3) 0.4734(3)
C87_4 C 0.4508(2) 0.93278(18) 0.5119(2)
C88_4 C 0.43278(18) 0.9881(2) 0.5492(2)
H67_4 H 0.3675 0.9134 0.4690
H68_4 H 0.3383 0.9589 0.4855
O28_4 O 0.3784(7) 0.9699(7) 0.4252(4)
C89_4 C 0.4597(4) 0.8947(3) 0.4735(3)
H69_4 H 0.4914 0.8805 0.4785
H70_4 H 0.4585 0.9097 0.4418
H71_4 H 0.4352 0.8697 0.4755
O29_4 O 0.1928(8) 0.9425(11) 0.3287(12)
C90_4 C 0.2263(7) 0.9200(5) 0.3512(7)
O30_4 O 0.2248(8) 0.8797(6) 0.3734(7)
C91_4 C 0.3457(8) 0.9740(8) 0.3871(5)
C92_4 C 0.2708(6) 0.9521(5) 0.3466(7)
C93_4 C 0.3028(9) 0.9469(6) 0.3856(5)
C94_4 C 0.2817(5) 0.9843(6) 0.3090(5)
H72_4 H 0.2952 0.9246 0.4116
H75_4 H 0.2596 0.9879 0.2820
N9_4 N 0.22553(18) 0.88233(18) 0.48720(19)
O31_4 O 0.1205(2) 0.8795(2) 0.3795(2)
O32_2 O 0.17346(17) 0.96033(17) 0.43744(16)
C97_4 C 0.2623(2) 0.8484(3) 0.4825(3)
C98_4 C 0.2283(3) 0.9157(3) 0.5234(3)
N10_4 N 0.37407(16) 0.84077(16) 0.58804(15)
C99_4 C 0.34157(19) 0.87860(19) 0.5916(2)
C100_4 C 0.4084(2) 0.84157(19) 0.62140(19)
H76_4 H 0.2626 0.8270 0.4552
C101_4 C 0.3003(2) 0.8452(2) 0.5183(2)
H77_4 H 0.3242 0.8202 0.5168
C102_4 C 0.3010(2) 0.8800(2) 0.5550(2)
C103_4 C 0.2654(2) 0.9152(2) 0.5575(2)
H78_4 H 0.2662 0.9391 0.5827
H79_4 H 0.2040 0.9403 0.5254
N11_4 N 0.34077(16) 0.91196(15) 0.62593(16)
C104_3 C 0.1609(2) 0.9932(2) 0.4071(2)
O34_2 O 0.12253(16) 0.99143(17) 0.38096(18)
C117_4 C 0.4880(2) 0.9071(2) 0.5413(2)
C118_4 C 0.5266(3) 0.8694(3) 0.5518(3)
C119_4 C 0.4881(2) 0.9508(2) 0.56722(18)
H89_4 H 0.5310 0.8675 0.5866
H90_4 H 0.5145 0.8383 0.5411
O36_4 O 0.5748(4) 0.8784(7) 0.5301(7)
C120_4 C 0.5265(3) 0.9597(4) 0.6053(3)
H91_4 H 0.5215 0.9914 0.6195
H92_4 H 0.5582 0.9585 0.5903
H93_4 H 0.5245 0.9352 0.6303
C121_4 C 0.6488(7) 0.7263(7) 0.5800(5)
C122_4 C 0.6129(5) 0.8457(8) 0.5260(8)
C123_4 C 0.6534(7) 0.7708(6) 0.5479(5)
C124_4 C 0.6144(5) 0.8028(9) 0.5531(6)
C125_4 C 0.6910(5) 0.7817(5) 0.5157(6)
H94_4 H 0.5884 0.7952 0.5754
C126_4 C 0.6506(8) 0.8566(5) 0.4938(7)
H95_4 H 0.6496 0.8862 0.4751
C127_4 C 0.6896(6) 0.8246(6) 0.4886(7)
H96_4 H 0.7156 0.8321 0.4663
H97_4 H 0.7180 0.7596 0.5121
C128_4 C 0.4587(2) 0.9880(2) 0.5929(2)
C138_4 C 0.5175(3) 0.7623(2) 0.6516(3)
C139_4 C 0.4766(3) 0.7283(3) 0.5843(3)
N13_4 N 0.41196(15) 0.87407(16) 0.65923(16)
C140_4 C 0.37860(19) 0.9084(2) 0.65843(19)
H107_4 H 0.5448 0.7626 0.6730
C141_4 C 0.4817(2) 0.8003(2) 0.6548(2)
H108_4 H 0.4832 0.8242 0.6798
C142_4 C 0.4450(2) 0.8010(2) 0.6200(2)
C143_4 C 0.4425(2) 0.7654(2) 0.5848(2)
H109_4 H 0.4173 0.7662 0.5609
H110_4 H 0.4746 0.7040 0.5597
C145_4 C 0.4157(3) 0.9766(3) 0.7717(3)
C146_4 C 0.3452(2) 0.9817(2) 0.6997(2)
H112_4 H 0.3202 0.9832 0.6758
C147_4 C 0.3800(2) 0.9450(2) 0.6990(2)
C148_4 C 0.4152(2) 0.9425(2) 0.7346(2)
H113_4 H 0.4391 0.9173 0.7338
H114_4 H 0.4403 0.9746 0.7960
O50_4 O 0.00857(17) 0.88096(18) 0.37747(16)
O52_4 O 0.03967(17) 0.93744(16) 0.32654(17)
O45_2 O 0.96033(17) 0.43744(16) 0.17346(17)
C160_3 C 0.9932(2) 0.4071(2) 0.1609(2)
O46_2 O 0.99143(17) 0.38096(18) 0.12253(16)
C1_4 C 0.9587(2) 0.5120(2) 0.4071(2)
C2_4 C 0.9482(3) 0.4734(3) 0.3694(3)
H1_4 H 0.9134 0.4690 0.3675
H2_4 H 0.9589 0.4855 0.3383
C3_4 C 0.8947(3) 0.4735(3) 0.4597(4)
H3_4 H 0.8805 0.4785 0.4914
H4_4 H 0.9097 0.4418 0.4585
H5_4 H 0.8697 0.4755 0.4352
O1_4 O 0.9425(11) 0.3287(12) 0.1928(8)
O2_4 O 0.8797(6) 0.3734(7) 0.2248(8)
O3_4 O 0.9699(7) 0.4252(4) 0.3784(7)
C4_4 C 0.9521(5) 0.3466(7) 0.2708(6)
C5_4 C 0.9469(6) 0.3856(5) 0.3028(9)
H6_4 H 0.9246 0.4116 0.2952
C6_4 C 0.9740(8) 0.3871(5) 0.3457(8)
C9_4 C 0.9843(6) 0.3090(5) 0.2817(5)
H9_4 H 0.9879 0.2820 0.2596
C10_4 C 0.9200(5) 0.3512(7) 0.2263(7)
N1_4 N 0.88233(18) 0.48720(19) 0.22553(18)
N2_4 N 0.84077(16) 0.58804(15) 0.37407(16)
C11_4 C 0.8484(3) 0.4825(3) 0.2623(2)
H10_4 H 0.8270 0.4552 0.2626
C12_4 C 0.8452(2) 0.5183(2) 0.3003(2)
H11_4 H 0.8202 0.5168 0.3242
C13_4 C 0.8800(2) 0.5550(2) 0.3010(2)
C14_4 C 0.9152(2) 0.5575(2) 0.2654(2)
H12_4 H 0.9391 0.5827 0.2662
C15_4 C 0.9157(3) 0.5234(3) 0.2283(3)
H13_4 H 0.9403 0.5254 0.2040
C16_4 C 0.87860(19) 0.5916(2) 0.34157(19)
O4_4 O 0.8795(2) 0.3795(2) 0.1205(2)
C28_4 C 0.93278(18) 0.5119(2) 0.4508(2)
C29_4 C 0.9071(2) 0.5413(2) 0.4880(2)
C30_4 C 0.8694(3) 0.5518(3) 0.5266(3)
H23_4 H 0.8675 0.5866 0.5310
H24_4 H 0.8383 0.5411 0.5145
C31_4 C 0.9597(4) 0.6053(3) 0.5265(3)
H25_4 H 0.9914 0.6195 0.5215
H26_4 H 0.9585 0.5903 0.5582
H27_4 H 0.9352 0.6303 0.5245
O10_4 O 0.8784(7) 0.5301(7) 0.5748(4)
C32_4 C 0.7708(6) 0.5479(5) 0.6534(7)
C33_4 C 0.8028(9) 0.5531(6) 0.6144(5)
H28_4 H 0.7952 0.5754 0.5884
C34_4 C 0.8457(8) 0.5260(8) 0.6129(5)
C35_4 C 0.8566(5) 0.4938(7) 0.6506(8)
H29_4 H 0.8862 0.4751 0.6496
C36_4 C 0.8246(6) 0.4886(7) 0.6896(6)
H30_4 H 0.8321 0.4663 0.7156
C37_4 C 0.7817(5) 0.5157(6) 0.6910(5)
H31_4 H 0.7596 0.5121 0.7180
C38_4 C 0.7263(7) 0.5800(5) 0.6488(7)
C39_4 C 0.9508(2) 0.56722(18) 0.4881(2)
C40_4 C 0.9880(2) 0.5929(2) 0.4587(2)
C50_4 C 0.9881(2) 0.5492(2) 0.43278(18)
N4_4 N 0.87407(16) 0.65923(16) 0.41196(15)
C51_4 C 0.7623(2) 0.6516(3) 0.5175(3)
H41_4 H 0.7626 0.6730 0.5448
C52_4 C 0.8003(2) 0.6548(2) 0.4817(2)
H42_4 H 0.8242 0.6798 0.4832
C53_4 C 0.8010(2) 0.6200(2) 0.4450(2)
C54_4 C 0.7654(2) 0.5848(2) 0.4425(2)
H43_4 H 0.7662 0.5609 0.4173
C55_4 C 0.7283(3) 0.5843(3) 0.4766(3)
H44_4 H 0.7040 0.5597 0.4746
C56_4 C 0.84157(19) 0.62140(19) 0.4084(2)
N6_4 N 0.91196(15) 0.62593(16) 0.34077(16)
C58_4 C 0.9817(2) 0.6997(2) 0.3452(2)
H46_4 H 0.9832 0.6758 0.3202
C59_4 C 0.9450(2) 0.6990(2) 0.3800(2)
C60_4 C 0.9425(2) 0.7346(2) 0.4152(2)
H47_4 H 0.9173 0.7338 0.4391
C61_4 C 0.9766(3) 0.7717(3) 0.4157(3)
H48_4 H 0.9746 0.7960 0.4403
C62_4 C 0.9084(2) 0.65843(19) 0.37860(19)
O24_4 O 0.82654(17) 0.46033(17) 0.06256(16)
O25_4 O 0.93744(16) 0.32654(17) 0.03967(17)
O26_4 O 0.87747(16) 0.49143(17) 0.11904(18)
O27_4 O 0.88096(18) 0.37747(16) 0.00857(17)
C74_4 C 0.9071(2) 0.3391(2) 0.0068(2)
O7_4 O 0.64306(16) 0.17962(16) 0.78364(18)
C17_4 C 0.4932(2) 0.0929(2) 0.8391(2)
C18_4 C 0.5372(2) 0.0981(2) 0.8062(3)
C19_4 C 0.5701(2) 0.1367(2) 0.8121(2)
H14_4 H 0.5654 0.1596 0.8378
C20_4 C 0.6082(2) 0.1418(2) 0.7819(2)
C21_4 C 0.6155(3) 0.1104(3) 0.7431(3)
H15_4 H 0.6428 0.1142 0.7221
C22_4 C 0.5817(3) 0.0732(3) 0.7357(3)
H16_4 H 0.5863 0.0515 0.7090
C23_4 C 0.5426(3) 0.0665(3) 0.7650(3)
H17_4 H 0.5193 0.0417 0.7584
C24_4 C 0.6301(3) 0.2207(3) 0.8152(3)
H18_4 H 0.5968 0.2324 0.8075
H19_4 H 0.6310 0.2107 0.8499
C25_4 C 0.6681(2) 0.2616(2) 0.8054(2)
C26_4 C 0.6611(2) 0.2928(2) 0.7665(2)
C27_4 C 0.6197(2) 0.2834(3) 0.7313(3)
H20_4 H 0.6196 0.3086 0.7060
H21_4 H 0.6240 0.2512 0.7162
H22_4 H 0.5886 0.2841 0.7491
O16_4 O 0.71636(18) 0.35694(16) 0.67962(16)
C63_4 C 0.6609(2) 0.5068(2) 0.5929(2)
C64_4 C 0.6938(3) 0.4628(2) 0.5981(2)
C65_4 C 0.6879(2) 0.4299(2) 0.6367(2)
H49_4 H 0.6622 0.4346 0.6596
C66_4 C 0.7181(2) 0.3918(2) 0.6418(2)
C67_4 C 0.7569(3) 0.3845(3) 0.6104(3)
H50_4 H 0.7779 0.3572 0.6142
C68_4 C 0.7643(3) 0.4183(3) 0.5732(3)
H51_4 H 0.7910 0.4137 0.5515
C69_4 C 0.7350(3) 0.4574(3) 0.5665(3)
H52_4 H 0.7416 0.4807 0.5417
C70_4 C 0.6848(3) 0.3699(3) 0.7207(3)
H53_4 H 0.6925 0.4032 0.7324
H54_4 H 0.6501 0.3690 0.7107
C71_4 C 0.6946(2) 0.3319(2) 0.7616(2)
C72_4 C 0.7335(2) 0.3389(2) 0.7928(2)
C73_4 C 0.7687(3) 0.3803(2) 0.7834(3)
H55_4 H 0.7940 0.3804 0.8086
H56_4 H 0.7838 0.3760 0.7512
H57_4 H 0.7509 0.4114 0.7841
O19_4 O 0.82038(16) 0.28364(18) 0.85694(16)
C75_4 C 0.9019(2) 0.3062(3) 0.9628(2)
C76_4 C 0.8633(2) 0.3121(2) 0.9299(2)
H58_4 H 0.8404 0.3378 0.9346
C77_4 C 0.8582(2) 0.2819(2) 0.8918(2)
C78_4 C 0.8896(3) 0.2431(3) 0.8845(3)
H59_4 H 0.8858 0.2221 0.8572
C79_4 C 0.9268(3) 0.2357(3) 0.9183(3)
H60_4 H 0.9485 0.2090 0.9137
C80_4 C 0.9335(3) 0.2650(3) 0.9574(3)
H61_4 H 0.9583 0.2584 0.9807
C81_4 C 0.7793(3) 0.3152(3) 0.8699(3)
H62_4 H 0.7676 0.3075 0.9032
H63_4 H 0.7893 0.3499 0.8690
C82_4 C 0.7384(2) 0.3054(2) 0.8319(2)
C83_4 C 0.7072(2) 0.2665(2) 0.8389(2)
C84_4 C 0.7166(3) 0.2313(3) 0.8803(2)
H64_4 H 0.6914 0.2060 0.8804
H65_4 H 0.7488 0.2162 0.8760
H66_4 H 0.7159 0.2491 0.9114
C160_4 C 0.0068(2) 0.9071(2) 0.3391(2)
C104_4 C 0.8391(2) 0.4932(2) 0.0929(2)
O35_4 O 0.78364(18) 0.64306(16) 0.17962(16)
C105_4 C 0.7819(2) 0.6082(2) 0.1418(2)
C106_4 C 0.8152(3) 0.6301(3) 0.2207(3)
C107_4 C 0.8062(3) 0.5372(2) 0.0981(2)
C108_4 C 0.8121(2) 0.5701(2) 0.1367(2)
C109_4 C 0.7650(3) 0.5426(3) 0.0665(3)
H80_4 H 0.8378 0.5654 0.1596
C110_4 C 0.7431(3) 0.6155(3) 0.1104(3)
H81_4 H 0.7221 0.6428 0.1142
C111_4 C 0.7357(3) 0.5817(3) 0.0732(3)
H82_4 H 0.7090 0.5863 0.0515
H83_4 H 0.7584 0.5193 0.0417
H84_4 H 0.8075 0.5968 0.2324
H85_4 H 0.8499 0.6310 0.2107
C112_4 C 0.8054(2) 0.6681(2) 0.2616(2)
C113_4 C 0.7665(2) 0.6611(2) 0.2928(2)
C114_4 C 0.8389(2) 0.7072(2) 0.2665(2)
C115_4 C 0.7313(3) 0.6197(2) 0.2834(3)
C116_4 C 0.7616(2) 0.6946(2) 0.3319(2)
H86_4 H 0.7060 0.6196 0.3086
H87_4 H 0.7162 0.6240 0.2512
H88_4 H 0.7491 0.5886 0.2841
C149_4 C 0.5929(2) 0.6609(2) 0.5068(2)
O44_4 O 0.67962(16) 0.71636(18) 0.35694(16)
C150_4 C 0.6418(2) 0.7181(2) 0.3918(2)
C151_4 C 0.7207(3) 0.6848(3) 0.3699(3)
C152_4 C 0.5981(2) 0.6938(3) 0.4628(2)
C153_4 C 0.6367(2) 0.6879(2) 0.4299(2)
C154_4 C 0.5665(3) 0.7350(3) 0.4574(3)
H115_4 H 0.6596 0.6622 0.4346
C155_4 C 0.6104(3) 0.7569(3) 0.3845(3)
H116_4 H 0.6142 0.7779 0.3572
C156_4 C 0.5732(3) 0.7643(3) 0.4183(3)
H117_4 H 0.5515 0.7910 0.4137
H118_4 H 0.5417 0.7416 0.4807
H119_4 H 0.7324 0.6925 0.4032
H120_4 H 0.7107 0.6501 0.3690
C157_4 C 0.7928(2) 0.7335(2) 0.3389(2)
C158_4 C 0.7834(3) 0.7687(3) 0.3803(2)
C159_4 C 0.8319(2) 0.7384(2) 0.3054(2)
H121_4 H 0.8086 0.7940 0.3804
H122_4 H 0.7512 0.7838 0.3760
H123_4 H 0.7841 0.7509 0.4114
O47_4 O 0.85694(16) 0.82038(16) 0.28364(18)
C161_4 C 0.8918(2) 0.8582(2) 0.2819(2)
C162_4 C 0.8699(3) 0.7793(3) 0.3152(3)
C163_4 C 0.9628(2) 0.9019(2) 0.3062(3)
C164_4 C 0.9299(2) 0.8633(2) 0.3121(2)
C165_4 C 0.9574(3) 0.9335(3) 0.2650(3)
H124_4 H 0.9346 0.8404 0.3378
C166_4 C 0.8845(3) 0.8896(3) 0.2431(3)
H125_4 H 0.8572 0.8858 0.2221
C167_4 C 0.9183(3) 0.9268(3) 0.2357(3)
H126_4 H 0.9137 0.9485 0.2090
H127_4 H 0.9807 0.9583 0.2584
H128_4 H 0.9032 0.7676 0.3075
H129_4 H 0.8690 0.7893 0.3499
C168_4 C 0.8803(2) 0.7166(3) 0.2313(3)
H130_4 H 0.8804 0.6914 0.2060
H131_4 H 0.8760 0.7488 0.2162
H132_4 H 0.9114 0.7159 0.2491
loop_
_geom_bond_atom_site_label_1
_geom_bond_atom_site_label_2
_geom_bond_site_symmetry_1
_geom_bond_site_symmetry_2
H104 C136 1_555 1_555
H105 C137 1_555 1_555
C136 C137 1_555 1_555
H95 C126 1_555 1_555
H96 C127 1_555 1_555
C126 C127 1_555 1_555
H89 C118 1_555 1_555
H90 C118 1_555 1_555
O36 C118 1_555 1_555
H91 C120 1_555 1_555
H92 C120 1_555 1_555
H93 C120 1_555 1_555
O37 C121 1_555 1_555
C121 O38 1_555 1_555
Co13 O37 1_555 1_555
O38 Co14 1_555 1_555
Co14 N12 1_555 1_555
C122 O36 1_555 1_555
C123 C121 1_555 1_555
C124 C122 1_555 1_555
C125 C123 1_555 1_555
H94 C124 1_555 1_555
H97 C125 1_555 1_555
N12 C138 1_555 1_555
C138 H107 1_555 1_555
C123 C124 1_555 1_555
H73 C95 1_555 1_555
H74 C96 1_555 1_555
O35 C105 1_555 1_555
C105 C108 1_555 1_555
C106 O35 1_555 1_555
C108 C107 1_555 1_555
C109 C107 1_555 1_555
H80 C108 1_555 1_555
C110 C105 1_555 1_555
H81 C110 1_555 1_555
C111 C109 1_555 1_555
H82 C111 1_555 1_555
H83 C109 1_555 1_555
H84 C106 1_555 1_555
H85 C106 1_555 1_555
C112 C106 1_555 1_555
C113 C112 1_555 1_555
C114 C112 1_555 1_555
C115 C113 1_555 1_555
C116 C113 1_555 1_555
H86 C115 1_555 1_555
H87 C115 1_555 1_555
H88 C115 1_555 1_555
O42 C149 1_555 1_555
C149 O43 1_555 1_555
Co17 O42 1_555 1_555
O43 Co18 1_555 1_555
O44 C150 1_555 1_555
C150 C153 1_555 1_555
C151 C116 1_555 1_555
C152 C149 1_555 1_555
C153 C152 1_555 1_555
C154 C152 1_555 1_555
H115 C153 1_555 1_555
C155 C150 1_555 1_555
H116 C155 1_555 1_555
C156 C154 1_555 1_555
H117 C156 1_555 1_555
H118 C154 1_555 1_555
H119 C151 1_555 1_555
H120 C151 1_555 1_555
C157 C116 1_555 1_555
C158 C157 1_555 1_555
C159 C114 1_555 1_555
H121 C158 1_555 1_555
H122 C158 1_555 1_555
H123 C158 1_555 1_555
O45 C160 1_555 1_555
C160 O46 1_555 1_555
Co19 O45 1_555 1_555
O46 Co20 1_555 1_555
O47 C161 1_555 1_555
C161 C164 1_555 1_555
C162 C159 1_555 1_555
C163 C160 1_555 1_555
C164 C163 1_555 1_555
C165 C163 1_555 1_555
H124 C164 1_555 1_555
C166 C161 1_555 1_555
H125 C166 1_555 1_555
C167 C165 1_555 1_555
H126 C167 1_555 1_555
H127 C165 1_555 1_555
H128 C162 1_555 1_555
H129 C162 1_555 1_555
C168 C114 1_555 1_555
H130 C168 1_555 1_555
H131 C168 1_555 1_555
H132 C168 1_555 1_555
C95 C96 1_555 1_555
C110 C111 1_555 1_555
O44 C151 1_555 1_555
C155 C156 1_555 1_555
C157 C159 1_555 1_555
O47 C162 1_555 1_555
C166 C167 1_555 1_555
H98 C129 1_555 1_555
H99 C129 1_555 1_555
O39 C129 1_555 1_555
H100 C130 1_555 1_555
H101 C130 1_555 1_555
H102 C130 1_555 1_555
O40 C131 1_555 1_555
C131 O41 1_555 1_555
Co17 O40 1_555 1_555
O41 Co16 1_555 1_555
Co16 N14 1_555 1_555
C132 O39 1_555 1_555
C133 C131 1_555 1_555
C134 C132 1_555 1_555
C135 C133 1_555 1_555
H103 C134 1_555 1_555
H106 C135 1_555 1_555
N14 C144 1_555 1_555
C144 H111 1_555 1_555
C133 C134 1_555 1_555
C1 C2 1_555 1_555
C2 H1 1_555 1_555
H2 C2 1_555 1_555
C3 H3 1_555 1_555
H4 C3 1_555 1_555
H5 C3 1_555 1_555
O1 C10 1_555 1_555
O2 C10 1_555 1_555
O3 C2 1_555 1_555
C4 C5 1_555 1_555
C5 H6 1_555 1_555
C6 O3 1_555 1_555
C7 C6 1_555 1_555
H7 C7 1_555 1_555
C8 C7 1_555 1_555
H8 C8 1_555 1_555
C9 C4 1_555 1_555
H9 C9 1_555 1_555
C10 C4 1_555 1_555
Co19 O2 1_555 1_555
N1 Co19 1_555 1_555
N2 C16 1_555 1_555
C11 N1 1_555 1_555
H10 C11 1_555 1_555
C12 C11 1_555 1_555
H11 C12 1_555 1_555
C13 C12 1_555 1_555
C14 C13 1_555 1_555
H12 C14 1_555 1_555
C15 N1 1_555 1_555
H13 C15 1_555 1_555
C16 C13 1_555 1_555
O4 Co19 1_555 1_555
C28 C1 1_555 1_555
C29 C28 1_555 1_555
C39 C29 1_555 1_555
C40 C39 1_555 1_555
C41 C40 1_555 1_555
H32 C41 1_555 1_555
H33 C41 1_555 1_555
C42 H34 1_555 1_555
H35 C42 1_555 1_555
H36 C42 1_555 1_555
O11 C49 1_555 1_555
O12 C49 1_555 1_555
O13 C41 1_555 1_555
C43 C44 1_555 1_555
C44 H37 1_555 1_555
C45 O13 1_555 1_555
C48 C43 1_555 1_555
H40 C48 1_555 1_555
C49 C43 1_555 1_555
C50 C1 1_555 1_555
N4 C56 1_555 1_555
H42 C52 1_555 1_555
C53 C52 1_555 1_555
C54 C53 1_555 1_555
H43 C54 1_555 1_555
H44 C55 1_555 1_555
C56 N2 1_555 1_555
N5 C57 1_555 1_555
N6 C16 1_555 1_555
C57 H45 1_555 1_555
C58 C57 1_555 1_555
H46 C58 1_555 1_555
C59 C58 1_555 1_555
C60 C59 1_555 1_555
H47 C60 1_555 1_555
C61 N5 1_555 1_555
H48 C61 1_555 1_555
C62 N4 1_555 1_555
Co2 O4 1_555 1_555
Co20 O1 1_555 1_555
O20 Co19 1_555 1_555
O21 Co2 1_555 1_555
O22 Co2 1_555 1_555
O23 Co20 1_555 1_555
Co9 O11 1_555 1_555
Co10 O12 1_555 1_555
N7 Co2 1_555 1_555
N8 Co20 1_555 1_555
O24 Co2 1_555 1_555
O25 Co20 1_555 1_555
O26 Co19 1_555 1_555
O27 Co2 1_555 1_555
C86 H67 1_555 1_555
H68 C86 1_555 1_555
O28 C86 1_555 1_555
H69 C89 1_555 1_555
H70 C89 1_555 1_555
H71 C89 1_555 1_555
O29 C90 1_555 1_555
C90 O30 1_555 1_555
Co12 O29 1_555 1_555
O30 Co9 1_555 1_555
C91 O28 1_555 1_555
C92 C90 1_555 1_555
C93 C91 1_555 1_555
C94 C92 1_555 1_555
H72 C93 1_555 1_555
H75 C94 1_555 1_555
N9 Co9 1_555 1_555
O31 Co9 1_555 1_555
O32 Co9 1_555 1_555
O33 Co9 1_555 1_555
C97 N9 1_555 1_555
H76 C97 1_555 1_555
C104 O32 1_555 1_555
O34 Co12 1_555 1_555
O48 Co10 1_555 1_555
O49 Co10 1_555 1_555
O50 Co10 1_555 1_555
O51 Co12 1_555 1_555
N15 Co12 1_555 1_555
O52 Co12 1_555 1_555
C3 C28 1_555 1_555
C5 C6 1_555 1_555
C8 C9 1_555 1_555
C14 C15 1_555 1_555
O4 Co20 1_555 1_555
C40 C50 1_555 1_555
C42 C50 1_555 1_555
C44 C45 1_555 1_555
C53 C56 1_555 1_555
C54 C55 1_555 1_555
N5 Co10 1_555 1_555
N6 C62 1_555 1_555
C59 C62 1_555 1_555
C60 C61 1_555 1_555
Co10 O31 1_555 1_555
Co12 O31 1_555 1_555
C92 C93 1_555 1_555
C104 O34 1_555 1_555
H23 C30 1_555 1_555
H24 C30 1_555 1_555
C31 H25 1_555 1_555
H26 C31 1_555 1_555
H27 C31 1_555 1_555
O8 C38 1_555 1_555
O9 C38 1_555 1_555
O10 C30 1_555 1_555
C32 C33 1_555 1_555
C33 H28 1_555 1_555
C34 O10 1_555 1_555
C35 C34 1_555 1_555
H29 C35 1_555 1_555
C36 C35 1_555 1_555
H30 C36 1_555 1_555
C37 C32 1_555 1_555
H31 C37 1_555 1_555
C38 C32 1_555 1_555
H38 C46 1_555 1_555
C47 C46 1_555 1_555
H39 C47 1_555 1_555
N3 C51 1_555 1_555
C51 H41 1_555 1_555
Co4 O8 1_555 1_555
Co13 O9 1_555 1_555
C87 C85 1_555 1_555
C88 C85 1_555 1_555
N10 C99 1_555 1_555
C99 C102 1_555 1_555
C100 N10 1_555 1_555
H77 C101 1_555 1_555
C102 C101 1_555 1_555
C103 C98 1_555 1_555
H78 C103 1_555 1_555
H79 C98 1_555 1_555
N11 C99 1_555 1_555
C117 C87 1_555 1_555
C119 C117 1_555 1_555
C128 C88 1_555 1_555
N13 C100 1_555 1_555
C140 N11 1_555 1_555
H108 C141 1_555 1_555
C142 C100 1_555 1_555
C143 C139 1_555 1_555
H109 C143 1_555 1_555
H110 C139 1_555 1_555
H112 C146 1_555 1_555
C147 C140 1_555 1_555
C148 C145 1_555 1_555
H113 C148 1_555 1_555
H114 C145 1_555 1_555
C33 C34 1_555 1_555
C36 C37 1_555 1_555
N3 Co13 1_555 1_555
C102 C103 1_555 1_555
C119 C128 1_555 1_555
N13 C140 1_555 1_555
C141 C142 1_555 1_555
C142 C143 1_555 1_555
C146 C147 1_555 1_555
C147 C148 1_555 1_555
C1_2 C2_2 1_555 1_555
C2_2 H1_2 1_555 1_555
H2_2 C2_2 1_555 1_555
C3_2 H3_2 1_555 1_555
H4_2 C3_2 1_555 1_555
H5_2 C3_2 1_555 1_555
O1_2 C10_2 1_555 1_555
O2_2 C10_2 1_555 1_555
O3_2 C2_2 1_555 1_555
C4_2 C5_2 1_555 1_555
C5_2 H6_2 1_555 1_555
C6_2 O3_2 1_555 1_555
C9_2 C4_2 1_555 1_555
H9_2 C9_2 1_555 1_555
C10_2 C4_2 1_555 1_555
Co4 O2_2 1_555 1_555
N1_2 Co4 1_555 1_555
N2_2 C16_2 1_555 1_555
C11_2 N1_2 1_555 1_555
H10_2 C11_2 1_555 1_555
C12_2 C11_2 1_555 1_555
H11_2 C12_2 1_555 1_555
C13_2 C12_2 1_555 1_555
C14_2 C13_2 1_555 1_555
H12_2 C14_2 1_555 1_555
C15_2 N1_2 1_555 1_555
H13_2 C15_2 1_555 1_555
C16_2 C13_2 1_555 1_555
O4_2 Co4 1_555 1_555
O5 Co4 1_555 1_555
O6 C17 1_555 1_555
C17 O5 1_555 1_555
C28_2 C1_2 1_555 1_555
C29_2 C28_2 1_555 1_555
C30_2 C29_2 1_555 1_555
H23_2 C30_2 1_555 1_555
H24_2 C30_2 1_555 1_555
C31_2 H25_2 1_555 1_555
H26_2 C31_2 1_555 1_555
H27_2 C31_2 1_555 1_555
O20 C38_2 1_555 1_555
O22 C38_2 1_555 1_555
O10_2 C30_2 1_555 1_555
C32_2 C33_2 1_555 1_555
C33_2 H28_2 1_555 1_555
C34_2 O10_2 1_555 1_555
C35_2 C34_2 1_555 1_555
H29_2 C35_2 1_555 1_555
C36_2 C35_2 1_555 1_555
H30_2 C36_2 1_555 1_555
C37_2 C32_2 1_555 1_555
H31_2 C37_2 1_555 1_555
C38_2 C32_2 1_555 1_555
C39_2 C29_2 1_555 1_555
C40_2 C39_2 1_555 1_555
C50_2 C1_2 1_555 1_555
N7 C51_2 1_555 1_555
N4_2 C56_2 1_555 1_555
C51_2 H41_2 1_555 1_555
C52_2 C51_2 1_555 1_555
H42_2 C52_2 1_555 1_555
C53_2 C52_2 1_555 1_555
C54_2 C53_2 1_555 1_555
H43_2 C54_2 1_555 1_555
C55_2 N7 1_555 1_555
H44_2 C55_2 1_555 1_555
C56_2 N2_2 1_555 1_555
N6_2 C16_2 1_555 1_555
H46_2 C58_2 1_555 1_555
C59_2 C58_2 1_555 1_555
C60_2 C59_2 1_555 1_555
H47_2 C60_2 1_555 1_555
H48_2 C61_2 1_555 1_555
C62_2 N4_2 1_555 1_555
Co13 O4_2 1_555 1_555
Co14 O1_2 1_555 1_555
O24_2 Co13 1_555 1_555
O25_2 Co14 1_555 1_555
O26_2 Co4 1_555 1_555
O27_2 Co13 1_555 1_555
C3_2 C28_2 1_555 1_555
C5_2 C6_2 1_555 1_555
C14_2 C15_2 1_555 1_555
O4_2 Co14 1_555 1_555
O6 Co14 1_555 1_555
C31_2 C39_2 1_555 1_555
C33_2 C34_2 1_555 1_555
C36_2 C37_2 1_555 1_555
C40_2 C50_2 1_555 1_555
C53_2 C56_2 1_555 1_555
C54_2 C55_2 1_555 1_555
N6_2 C62_2 1_555 1_555
C59_2 C62_2 1_555 1_555
C60_2 C61_2 1_555 1_555
O14 C63 1_555 1_555
O15 C63 1_555 1_555
Co16 O15 1_555 1_555
Co18 O14 1_555 1_555
O49 C74 1_555 1_555
O33 C74 1_555 1_555
H7_2 C7_2 1_555 1_555
C8_2 C7_2 1_555 1_555
H8_2 C8_2 1_555 1_555
O7 C20 1_555 1_555
C19 C18 1_555 1_555
H14 C19 1_555 1_555
C20 C19 1_555 1_555
C21 C20 1_555 1_555
H15 C21 1_555 1_555
C22 C21 1_555 1_555
H16 C22 1_555 1_555
C23 C18 1_555 1_555
H17 C23 1_555 1_555
C24 O7 1_555 1_555
H18 C24 1_555 1_555
H19 C24 1_555 1_555
C25 C24 1_555 1_555
C26 C25 1_555 1_555
C27 C26 1_555 1_555
H20 C27 1_555 1_555
H21 C27 1_555 1_555
H22 C27 1_555 1_555
H32_2 C41_2 1_555 1_555
H33_2 C41_2 1_555 1_555
C42_2 H34_2 1_555 1_555
H35_2 C42_2 1_555 1_555
H36_2 C42_2 1_555 1_555
O11_2 C49_2 1_555 1_555
O12_2 C49_2 1_555 1_555
O13_2 C41_2 1_555 1_555
C43_2 C44_2 1_555 1_555
C44_2 H37_2 1_555 1_555
C45_2 O13_2 1_555 1_555
C46_2 C45_2 1_555 1_555
H38_2 C46_2 1_555 1_555
C47_2 C46_2 1_555 1_555
H39_2 C47_2 1_555 1_555
C48_2 C43_2 1_555 1_555
H40_2 C48_2 1_555 1_555
C49_2 C43_2 1_555 1_555
N5_2 C57_2 1_555 1_555
C57_2 H45_2 1_555 1_555
O16 C66 1_555 1_555
C64 C65 1_555 1_555
C65 H49 1_555 1_555
C66 C65 1_555 1_555
C67 C66 1_555 1_555
H50 C67 1_555 1_555
C68 C67 1_555 1_555
H51 C68 1_555 1_555
C69 C64 1_555 1_555
H52 C69 1_555 1_555
C70 O16 1_555 1_555
H53 C70 1_555 1_555
H54 C70 1_555 1_555
C71 C26 1_555 1_555
C72 C71 1_555 1_555
C73 C72 1_555 1_555
H55 C73 1_555 1_555
H56 C73 1_555 1_555
H57 C73 1_555 1_555
O19 C77 1_555 1_555
C75 C76 1_555 1_555
C76 H58 1_555 1_555
C77 C76 1_555 1_555
C78 C77 1_555 1_555
H59 C78 1_555 1_555
C79 C78 1_555 1_555
H60 C79 1_555 1_555
C80 C75 1_555 1_555
H61 C80 1_555 1_555
C81 O19 1_555 1_555
H62 C81 1_555 1_555
H63 C81 1_555 1_555
C82 C72 1_555 1_555
C83 C25 1_555 1_555
C84 C83 1_555 1_555
H64 C84 1_555 1_555
H65 C84 1_555 1_555
H66 C84 1_555 1_555
Co18 O11_2 1_555 1_555
Co17 O12_2 1_555 1_555
C85_2 C86_2 1_555 1_555
C86_2 H67_2 1_555 1_555
C87_2 C85_2 1_555 1_555
C88_2 C85_2 1_555 1_555
H68_2 C86_2 1_555 1_555
O28_2 C86_2 1_555 1_555
C89_2 C87_2 1_555 1_555
H69_2 C89_2 1_555 1_555
H70_2 C89_2 1_555 1_555
H71_2 C89_2 1_555 1_555
O29_2 C90_2 1_555 1_555
C90_2 O30_2 1_555 1_555
Co16 O29_2 1_555 1_555
O30_2 Co18 1_555 1_555
C91_2 O28_2 1_555 1_555
C92_2 C90_2 1_555 1_555
C93_2 C91_2 1_555 1_555
C94_2 C92_2 1_555 1_555
H72_2 C93_2 1_555 1_555
H75_2 C94_2 1_555 1_555
N9_2 Co18 1_555 1_555
O31_2 Co18 1_555 1_555
C97_2 N9_2 1_555 1_555
C98_2 N9_2 1_555 1_555
N10_2 C99_2 1_555 1_555
C99_2 C102_2 1_555 1_555
C100_2 N10_2 1_555 1_555
H76_2 C97_2 1_555 1_555
C101_2 C97_2 1_555 1_555
H77_2 C101_2 1_555 1_555
C102_2 C101_2 1_555 1_555
C103_2 C98_2 1_555 1_555
H78_2 C103_2 1_555 1_555
H79_2 C98_2 1_555 1_555
N11_2 C99_2 1_555 1_555
C117_2 C87_2 1_555 1_555
C118_2 C117_2 1_555 1_555
C119_2 C117_2 1_555 1_555
H89_2 C118_2 1_555 1_555
H90_2 C118_2 1_555 1_555
O36_2 C118_2 1_555 1_555
C120_2 C119_2 1_555 1_555
H91_2 C120_2 1_555 1_555
H92_2 C120_2 1_555 1_555
H93_2 C120_2 1_555 1_555
O21 C121_2 1_555 1_555
C121_2 O23 1_555 1_555
C122_2 O36_2 1_555 1_555
C123_2 C121_2 1_555 1_555
C124_2 C122_2 1_555 1_555
C125_2 C123_2 1_555 1_555
H94_2 C124_2 1_555 1_555
C126_2 C122_2 1_555 1_555
H95_2 C126_2 1_555 1_555
C127_2 C125_2 1_555 1_555
H96_2 C127_2 1_555 1_555
H97_2 C125_2 1_555 1_555
C128_2 C88_2 1_555 1_555
N8 C138_2 1_555 1_555
C138_2 H107_2 1_555 1_555
C139_2 N8 1_555 1_555
N13_2 C100_2 1_555 1_555
C140_2 N11_2 1_555 1_555
C141_2 C138_2 1_555 1_555
H108_2 C141_2 1_555 1_555
C142_2 C100_2 1_555 1_555
C143_2 C139_2 1_555 1_555
H109_2 C143_2 1_555 1_555
H110_2 C139_2 1_555 1_555
H112_2 C146_2 1_555 1_555
C147_2 C140_2 1_555 1_555
C148_2 C145_2 1_555 1_555
H113_2 C148_2 1_555 1_555
H114_2 C145_2 1_555 1_555
O50_2 Co17 1_555 1_555
O52_2 Co16 1_555 1_555
C22 C23 1_555 1_555
C44_2 C45_2 1_555 1_555
C47_2 C48_2 1_555 1_555
N5_2 Co17 1_555 1_555
C68 C69 1_555 1_555
C70 C71 1_555 1_555
C79 C80 1_555 1_555
C81 C82 1_555 1_555
C82 C83 1_555 1_555
Co17 O31_2 1_555 1_555
Co16 O31_2 1_555 1_555
C92_2 C93_2 1_555 1_555
C102_2 C103_2 1_555 1_555
C119_2 C128_2 1_555 1_555
C123_2 C124_2 1_555 1_555
C126_2 C127_2 1_555 1_555
N13_2 C140_2 1_555 1_555
C141_2 C142_2 1_555 1_555
C142_2 C143_2 1_555 1_555
C146_2 C147_2 1_555 1_555
C147_2 C148_2 1_555 1_555
H73_2 C95_2 1_555 1_555
H74_2 C96_2 1_555 1_555
H98_2 C129_2 1_555 1_555
H99_2 C129_2 1_555 1_555
O39_2 C129_2 1_555 1_555
H100_2 C130_2 1_555 1_555
H101_2 C130_2 1_555 1_555
H102_2 C130_2 1_555 1_555
O48 C131_2 1_555 1_555
C131_2 O51 1_555 1_555
C132_2 O39_2 1_555 1_555
C133_2 C131_2 1_555 1_555
C134_2 C132_2 1_555 1_555
C135_2 C133_2 1_555 1_555
H103_2 C134_2 1_555 1_555
C136_2 C132_2 1_555 1_555
H104_2 C136_2 1_555 1_555
C137_2 C135_2 1_555 1_555
H105_2 C137_2 1_555 1_555
H106_2 C135_2 1_555 1_555
N15 C144_2 1_555 1_555
C144_2 H111_2 1_555 1_555
C95_2 C96_2 1_555 1_555
C133_2 C134_2 1_555 1_555
C136_2 C137_2 1_555 1_555
C104_2 O24 1_555 1_555
O35_2 C105_2 1_555 1_555
C105_2 C108_2 1_555 1_555
C106_2 O35_2 1_555 1_555
C107_2 C104_2 1_555 1_555
C108_2 C107_2 1_555 1_555
C109_2 C107_2 1_555 1_555
H80_2 C108_2 1_555 1_555
C110_2 C105_2 1_555 1_555
H81_2 C110_2 1_555 1_555
C111_2 C109_2 1_555 1_555
H82_2 C111_2 1_555 1_555
H83_2 C109_2 1_555 1_555
H84_2 C106_2 1_555 1_555
H85_2 C106_2 1_555 1_555
C112_2 C106_2 1_555 1_555
C113_2 C112_2 1_555 1_555
C114_2 C112_2 1_555 1_555
C115_2 C113_2 1_555 1_555
C116_2 C113_2 1_555 1_555
H86_2 C115_2 1_555 1_555
H87_2 C115_2 1_555 1_555
H88_2 C115_2 1_555 1_555
O44_2 C150_2 1_555 1_555
C150_2 C153_2 1_555 1_555
C151_2 C116_2 1_555 1_555
C153_2 C152_2 1_555 1_555
C154_2 C152_2 1_555 1_555
H115_2 C153_2 1_555 1_555
C155_2 C150_2 1_555 1_555
H116_2 C155_2 1_555 1_555
C156_2 C154_2 1_555 1_555
H117_2 C156_2 1_555 1_555
H118_2 C154_2 1_555 1_555
H119_2 C151_2 1_555 1_555
H120_2 C151_2 1_555 1_555
C157_2 C116_2 1_555 1_555
C158_2 C157_2 1_555 1_555
C159_2 C114_2 1_555 1_555
H121_2 C158_2 1_555 1_555
H122_2 C158_2 1_555 1_555
H123_2 C158_2 1_555 1_555
O52 C160_2 1_555 1_555
C160_2 O50 1_555 1_555
O47_2 C161_2 1_555 1_555
C161_2 C164_2 1_555 1_555
C162_2 C159_2 1_555 1_555
C163_2 C160_2 1_555 1_555
C164_2 C163_2 1_555 1_555
C165_2 C163_2 1_555 1_555
H124_2 C164_2 1_555 1_555
C166_2 C161_2 1_555 1_555
H125_2 C166_2 1_555 1_555
C167_2 C165_2 1_555 1_555
H126_2 C167_2 1_555 1_555
H127_2 C165_2 1_555 1_555
H128_2 C162_2 1_555 1_555
H129_2 C162_2 1_555 1_555
C168_2 C114_2 1_555 1_555
H130_2 C168_2 1_555 1_555
H131_2 C168_2 1_555 1_555
H132_2 C168_2 1_555 1_555
C104_2 O26 1_555 1_555
C110_2 C111_2 1_555 1_555
O44_2 C151_2 1_555 1_555
C155_2 C156_2 1_555 1_555
C157_2 C159_2 1_555 1_555
O47_2 C162_2 1_555 1_555
C166_2 C167_2 1_555 1_555
O25_2 C149_2 1_555 1_555
C149_2 O27_2 1_555 1_555
O7_2 C20_2 1_555 1_555
C19_2 C18_2 1_555 1_555
H14_2 C19_2 1_555 1_555
C20_2 C19_2 1_555 1_555
C21_2 C20_2 1_555 1_555
H15_2 C21_2 1_555 1_555
C22_2 C21_2 1_555 1_555
H16_2 C22_2 1_555 1_555
C23_2 C18_2 1_555 1_555
H17_2 C23_2 1_555 1_555
C24_2 O7_2 1_555 1_555
H18_2 C24_2 1_555 1_555
H19_2 C24_2 1_555 1_555
C25_2 C24_2 1_555 1_555
C26_2 C25_2 1_555 1_555
C27_2 C26_2 1_555 1_555
H20_2 C27_2 1_555 1_555
H21_2 C27_2 1_555 1_555
H22_2 C27_2 1_555 1_555
O24_2 C63_2 1_555 1_555
O26_2 C63_2 1_555 1_555
O16_2 C66_2 1_555 1_555
C63_2 C64_2 1_555 1_555
C64_2 C65_2 1_555 1_555
C65_2 H49_2 1_555 1_555
C66_2 C65_2 1_555 1_555
C67_2 C66_2 1_555 1_555
H50_2 C67_2 1_555 1_555
C68_2 C67_2 1_555 1_555
H51_2 C68_2 1_555 1_555
C69_2 C64_2 1_555 1_555
H52_2 C69_2 1_555 1_555
C70_2 O16_2 1_555 1_555
H53_2 C70_2 1_555 1_555
H54_2 C70_2 1_555 1_555
C71_2 C26_2 1_555 1_555
C72_2 C71_2 1_555 1_555
C73_2 C72_2 1_555 1_555
H55_2 C73_2 1_555 1_555
H56_2 C73_2 1_555 1_555
H57_2 C73_2 1_555 1_555
O25 C74_2 1_555 1_555
O27 C74_2 1_555 1_555
O19_2 C77_2 1_555 1_555
C74_2 C75_2 1_555 1_555
C75_2 C76_2 1_555 1_555
C76_2 H58_2 1_555 1_555
C77_2 C76_2 1_555 1_555
C78_2 C77_2 1_555 1_555
H59_2 C78_2 1_555 1_555
C79_2 C78_2 1_555 1_555
H60_2 C79_2 1_555 1_555
C80_2 C75_2 1_555 1_555
H61_2 C80_2 1_555 1_555
C81_2 O19_2 1_555 1_555
H62_2 C81_2 1_555 1_555
H63_2 C81_2 1_555 1_555
C82_2 C72_2 1_555 1_555
C83_2 C25_2 1_555 1_555
C84_2 C83_2 1_555 1_555
H64_2 C84_2 1_555 1_555
H65_2 C84_2 1_555 1_555
H66_2 C84_2 1_555 1_555
C22_2 C23_2 1_555 1_555
C68_2 C69_2 1_555 1_555
C70_2 C71_2 1_555 1_555
C79_2 C80_2 1_555 1_555
C81_2 C82_2 1_555 1_555
C82_2 C83_2 1_555 1_555
O50_2 C17_2 1_555 1_555
C17_2 O52_2 1_555 1_555
O14_2 C63_3 1_555 1_555
O15_2 C63_3 1_555 1_555
Co5 O15_2 1_555 1_555
Co8 O14_2 1_555 1_555
H23_3 C30_3 1_555 1_555
H24_3 C30_3 1_555 1_555
C31_3 H25_3 1_555 1_555
H26_3 C31_3 1_555 1_555
H27_3 C31_3 1_555 1_555
O8_2 C38_3 1_555 1_555
O9_2 C38_3 1_555 1_555
O10_3 C30_3 1_555 1_555
C32_3 C33_3 1_555 1_555
C33_3 H28_3 1_555 1_555
C34_3 O10_3 1_555 1_555
C35_3 C34_3 1_555 1_555
H29_3 C35_3 1_555 1_555
C36_3 C35_3 1_555 1_555
H30_3 C36_3 1_555 1_555
C37_3 C32_3 1_555 1_555
H31_3 C37_3 1_555 1_555
C38_3 C32_3 1_555 1_555
H38_3 C46_3 1_555 1_555
C47_3 C46_3 1_555 1_555
H39_3 C47_3 1_555 1_555
N3_2 C51_3 1_555 1_555
C51_3 H41_3 1_555 1_555
Co4_2 O8_2 1_555 1_555
Co7 O9_2 1_555 1_555
C87_3 C85_3 1_555 1_555
C88_3 C85_3 1_555 1_555
N10_3 C99_3 1_555 1_555
C99_3 C102_3 1_555 1_555
C100_3 N10_3 1_555 1_555
H77_3 C101_3 1_555 1_555
C102_3 C101_3 1_555 1_555
C103_3 C98_3 1_555 1_555
H78_3 C103_3 1_555 1_555
H79_3 C98_3 1_555 1_555
N11_3 C99_3 1_555 1_555
C117_3 C87_3 1_555 1_555
C119_3 C117_3 1_555 1_555
C128_3 C88_3 1_555 1_555
N13_3 C100_3 1_555 1_555
C140_3 N11_3 1_555 1_555
H108_3 C141_3 1_555 1_555
C142_3 C100_3 1_555 1_555
C143_3 C139_3 1_555 1_555
H109_3 C143_3 1_555 1_555
H110_3 C139_3 1_555 1_555
H112_3 C146_3 1_555 1_555
C147_3 C140_3 1_555 1_555
C148_3 C145_3 1_555 1_555
H113_3 C148_3 1_555 1_555
H114_3 C145_3 1_555 1_555
C33_3 C34_3 1_555 1_555
C36_3 C37_3 1_555 1_555
N3_2 Co7 1_555 1_555
C102_3 C103_3 1_555 1_555
C119_3 C128_3 1_555 1_555
N13_3 C140_3 1_555 1_555
C141_3 C142_3 1_555 1_555
C142_3 C143_3 1_555 1_555
C146_3 C147_3 1_555 1_555
C147_3 C148_3 1_555 1_555
C1_3 C2_3 1_555 1_555
C2_3 H1_3 1_555 1_555
H2_3 C2_3 1_555 1_555
C3_3 H3_3 1_555 1_555
H4_3 C3_3 1_555 1_555
H5_3 C3_3 1_555 1_555
O1_3 C10_3 1_555 1_555
O2_3 C10_3 1_555 1_555
O3_3 C2_3 1_555 1_555
C4_3 C5_3 1_555 1_555
C5_3 H6_3 1_555 1_555
C6_3 O3_3 1_555 1_555
C7_3 C6_3 1_555 1_555
H7_3 C7_3 1_555 1_555
C8_3 C7_3 1_555 1_555
H8_3 C8_3 1_555 1_555
C9_3 C4_3 1_555 1_555
H9_3 C9_3 1_555 1_555
C10_3 C4_3 1_555 1_555
Co1 O2_3 1_555 1_555
N1_3 Co1 1_555 1_555
N2_3 C16_3 1_555 1_555
C11_3 N1_3 1_555 1_555
H10_3 C11_3 1_555 1_555
C12_3 C11_3 1_555 1_555
H11_3 C12_3 1_555 1_555
C13_3 C12_3 1_555 1_555
C14_3 C13_3 1_555 1_555
H12_3 C14_3 1_555 1_555
C15_3 N1_3 1_555 1_555
H13_3 C15_3 1_555 1_555
C16_3 C13_3 1_555 1_555
O4_3 Co1 1_555 1_555
O5_2 Co1 1_555 1_555
O6_2 C17_3 1_555 1_555
O7_3 C20_3 1_555 1_555
C17_3 O5_2 1_555 1_555
C18_3 C17_3 1_555 1_555
C19_3 C18_3 1_555 1_555
H14_3 C19_3 1_555 1_555
C20_3 C19_3 1_555 1_555
C21_3 C20_3 1_555 1_555
H15_3 C21_3 1_555 1_555
C22_3 C21_3 1_555 1_555
H16_3 C22_3 1_555 1_555
C23_3 C18_3 1_555 1_555
H17_3 C23_3 1_555 1_555
C24_3 O7_3 1_555 1_555
H18_3 C24_3 1_555 1_555
H19_3 C24_3 1_555 1_555
C25_3 C24_3 1_555 1_555
C26_3 C25_3 1_555 1_555
C27_3 C26_3 1_555 1_555
H20_3 C27_3 1_555 1_555
H21_3 C27_3 1_555 1_555
H22_3 C27_3 1_555 1_555
C28_3 C1_3 1_555 1_555
C29_3 C28_3 1_555 1_555
C39_3 C29_3 1_555 1_555
C40_3 C39_3 1_555 1_555
C41_3 C40_3 1_555 1_555
H32_3 C41_3 1_555 1_555
H33_3 C41_3 1_555 1_555
C42_3 H34_3 1_555 1_555
H35_3 C42_3 1_555 1_555
H36_3 C42_3 1_555 1_555
O11_3 C49_3 1_555 1_555
O12_3 C49_3 1_555 1_555
O13_3 C41_3 1_555 1_555
C43_3 C44_3 1_555 1_555
C44_3 H37_3 1_555 1_555
C45_3 O13_3 1_555 1_555
C48_3 C43_3 1_555 1_555
H40_3 C48_3 1_555 1_555
C49_3 C43_3 1_555 1_555
C50_3 C1_3 1_555 1_555
N4_3 C56_3 1_555 1_555
H42_3 C52_3 1_555 1_555
C53_3 C52_3 1_555 1_555
C54_3 C53_3 1_555 1_555
H43_3 C54_3 1_555 1_555
H44_3 C55_3 1_555 1_555
C56_3 N2_3 1_555 1_555
N5_3 C57_3 1_555 1_555
N6_3 C16_3 1_555 1_555
C57_3 H45_3 1_555 1_555
C58_3 C57_3 1_555 1_555
H46_3 C58_3 1_555 1_555
C59_3 C58_3 1_555 1_555
C60_3 C59_3 1_555 1_555
H47_3 C60_3 1_555 1_555
C61_3 N5_3 1_555 1_555
H48_3 C61_3 1_555 1_555
C62_3 N4_3 1_555 1_555
O16_3 C66_3 1_555 1_555
C64_3 C65_3 1_555 1_555
C65_3 H49_3 1_555 1_555
C66_3 C65_3 1_555 1_555
C67_3 C66_3 1_555 1_555
H50_3 C67_3 1_555 1_555
C68_3 C67_3 1_555 1_555
H51_3 C68_3 1_555 1_555
C69_3 C64_3 1_555 1_555
H52_3 C69_3 1_555 1_555
C70_3 O16_3 1_555 1_555
H53_3 C70_3 1_555 1_555
H54_3 C70_3 1_555 1_555
C71_3 C26_3 1_555 1_555
C72_3 C71_3 1_555 1_555
C73_3 C72_3 1_555 1_555
H55_3 C73_3 1_555 1_555
H56_3 C73_3 1_555 1_555
H57_3 C73_3 1_555 1_555
O17 C74_3 1_555 1_555
O18 C74_3 1_555 1_555
O19_3 C77_3 1_555 1_555
C74_3 C75_3 1_555 1_555
C75_3 C76_3 1_555 1_555
C76_3 H58_3 1_555 1_555
C77_3 C76_3 1_555 1_555
C78_3 C77_3 1_555 1_555
H59_3 C78_3 1_555 1_555
C79_3 C78_3 1_555 1_555
H60_3 C79_3 1_555 1_555
C80_3 C75_3 1_555 1_555
H61_3 C80_3 1_555 1_555
C81_3 O19_3 1_555 1_555
H62_3 C81_3 1_555 1_555
H63_3 C81_3 1_555 1_555
C82_3 C72_3 1_555 1_555
C83_3 C25_3 1_555 1_555
C84_3 C83_3 1_555 1_555
H64_3 C84_3 1_555 1_555
H65_3 C84_3 1_555 1_555
H66_3 C84_3 1_555 1_555
Co2_2 O4_3 1_555 1_555
Co3 O1_3 1_555 1_555
O20_2 Co1 1_555 1_555
O21_2 Co2_2 1_555 1_555
O22_2 Co2_2 1_555 1_555
O23_2 Co3 1_555 1_555
Co6 O18 1_555 1_555
Co8 O11_3 1_555 1_555
Co10_2 O12_3 1_555 1_555
Co11 O17 1_555 1_555
N7_2 Co2_2 1_555 1_555
N8_2 Co3 1_555 1_555
O24_3 Co2_2 1_555 1_555
O25_3 Co3 1_555 1_555
O26_3 Co1 1_555 1_555
O27_3 Co2_2 1_555 1_555
C86_3 H67_3 1_555 1_555
H68_3 C86_3 1_555 1_555
O28_3 C86_3 1_555 1_555
H69_3 C89_3 1_555 1_555
H70_3 C89_3 1_555 1_555
H71_3 C89_3 1_555 1_555
O29_3 C90_3 1_555 1_555
C90_3 O30_3 1_555 1_555
Co5 O29_3 1_555 1_555
O30_3 Co8 1_555 1_555
C91_3 O28_3 1_555 1_555
C92_3 C90_3 1_555 1_555
C93_3 C91_3 1_555 1_555
C94_3 C92_3 1_555 1_555
H72_3 C93_3 1_555 1_555
H75_3 C94_3 1_555 1_555
N9_3 Co8 1_555 1_555
O31_3 Co8 1_555 1_555
O33_2 Co8 1_555 1_555
C97_3 N9_3 1_555 1_555
H76_3 C97_3 1_555 1_555
O48_2 Co10_2 1_555 1_555
O49_2 Co10_2 1_555 1_555
O50_3 Co10_2 1_555 1_555
O51_2 Co5 1_555 1_555
N15_2 Co5 1_555 1_555
O52_3 Co5 1_555 1_555
C3_3 C28_3 1_555 1_555
C5_3 C6_3 1_555 1_555
C8_3 C9_3 1_555 1_555
C14_3 C15_3 1_555 1_555
O4_3 Co3 1_555 1_555
O6_2 Co3 1_555 1_555
C22_3 C23_3 1_555 1_555
C40_3 C50_3 1_555 1_555
C42_3 C50_3 1_555 1_555
C44_3 C45_3 1_555 1_555
C53_3 C56_3 1_555 1_555
C54_3 C55_3 1_555 1_555
N5_3 Co10_2 1_555 1_555
N6_3 C62_3 1_555 1_555
C59_3 C62_3 1_555 1_555
C60_3 C61_3 1_555 1_555
C68_3 C69_3 1_555 1_555
C70_3 C71_3 1_555 1_555
C79_3 C80_3 1_555 1_555
C81_3 C82_3 1_555 1_555
C82_3 C83_3 1_555 1_555
Co10_2 O31_3 1_555 1_555
Co5 O31_3 1_555 1_555
C92_3 C93_3 1_555 1_555
H98_3 C129_3 1_555 1_555
H99_3 C129_3 1_555 1_555
O39_3 C129_3 1_555 1_555
H100_3 C130_3 1_555 1_555
H101_3 C130_3 1_555 1_555
H102_3 C130_3 1_555 1_555
O40_2 C131_3 1_555 1_555
C131_3 O41_2 1_555 1_555
Co11 O40_2 1_555 1_555
O41_2 Co16_2 1_555 1_555
Co16_2 N14_2 1_555 1_555
C132_3 O39_3 1_555 1_555
C133_3 C131_3 1_555 1_555
C134_3 C132_3 1_555 1_555
C135_3 C133_3 1_555 1_555
H103_3 C134_3 1_555 1_555
H106_3 C135_3 1_555 1_555
N14_2 C144_3 1_555 1_555
C144_3 H111_3 1_555 1_555
C133_3 C134_3 1_555 1_555
H73_3 C95_3 1_555 1_555
H74_3 C96_3 1_555 1_555
C95_3 C96_3 1_555 1_555
H89_3 C118_3 1_555 1_555
H90_3 C118_3 1_555 1_555
O36_3 C118_3 1_555 1_555
H91_3 C120_3 1_555 1_555
H92_3 C120_3 1_555 1_555
H93_3 C120_3 1_555 1_555
O37_2 C121_3 1_555 1_555
C121_3 O38_2 1_555 1_555
Co7 O37_2 1_555 1_555
O38_2 Co14_2 1_555 1_555
Co14_2 N12_2 1_555 1_555
C122_3 O36_3 1_555 1_555
C123_3 C121_3 1_555 1_555
C124_3 C122_3 1_555 1_555
C125_3 C123_3 1_555 1_555
H94_3 C124_3 1_555 1_555
H97_3 C125_3 1_555 1_555
N12_2 C138_3 1_555 1_555
C138_3 H107_3 1_555 1_555
C123_3 C124_3 1_555 1_555
H95_3 C126_3 1_555 1_555
H96_3 C127_3 1_555 1_555
C126_3 C127_3 1_555 1_555
H104_3 C136_3 1_555 1_555
H105_3 C137_3 1_555 1_555
C136_3 C137_3 1_555 1_555
H73_4 C95_4 1_555 1_555
H74_4 C96_4 1_555 1_555
O35_3 C105_3 1_555 1_555
C105_3 C108_3 1_555 1_555
C106_3 O35_3 1_555 1_555
C108_3 C107_3 1_555 1_555
C109_3 C107_3 1_555 1_555
H80_3 C108_3 1_555 1_555
C110_3 C105_3 1_555 1_555
H81_3 C110_3 1_555 1_555
C111_3 C109_3 1_555 1_555
H82_3 C111_3 1_555 1_555
H83_3 C109_3 1_555 1_555
H84_3 C106_3 1_555 1_555
H85_3 C106_3 1_555 1_555
C112_3 C106_3 1_555 1_555
C113_3 C112_3 1_555 1_555
C114_3 C112_3 1_555 1_555
C115_3 C113_3 1_555 1_555
C116_3 C113_3 1_555 1_555
H86_3 C115_3 1_555 1_555
H87_3 C115_3 1_555 1_555
H88_3 C115_3 1_555 1_555
H98_4 C129_4 1_555 1_555
H99_4 C129_4 1_555 1_555
O39_4 C129_4 1_555 1_555
H100_4 C130_4 1_555 1_555
H101_4 C130_4 1_555 1_555
H102_4 C130_4 1_555 1_555
O48_2 C131_4 1_555 1_555
C131_4 O51_2 1_555 1_555
C132_4 O39_4 1_555 1_555
C133_4 C131_4 1_555 1_555
C134_4 C132_4 1_555 1_555
C135_4 C133_4 1_555 1_555
H103_4 C134_4 1_555 1_555
C136_4 C132_4 1_555 1_555
H104_4 C136_4 1_555 1_555
C137_4 C135_4 1_555 1_555
H105_4 C137_4 1_555 1_555
H106_4 C135_4 1_555 1_555
N15_2 C144_4 1_555 1_555
C144_4 H111_4 1_555 1_555
O44_3 C150_3 1_555 1_555
C150_3 C153_3 1_555 1_555
C151_3 C116_3 1_555 1_555
C153_3 C152_3 1_555 1_555
C154_3 C152_3 1_555 1_555
H115_3 C153_3 1_555 1_555
C155_3 C150_3 1_555 1_555
H116_3 C155_3 1_555 1_555
C156_3 C154_3 1_555 1_555
H117_3 C156_3 1_555 1_555
H118_3 C154_3 1_555 1_555
H119_3 C151_3 1_555 1_555
H120_3 C151_3 1_555 1_555
C157_3 C116_3 1_555 1_555
C158_3 C157_3 1_555 1_555
C159_3 C114_3 1_555 1_555
H121_3 C158_3 1_555 1_555
H122_3 C158_3 1_555 1_555
H123_3 C158_3 1_555 1_555
O47_3 C161_3 1_555 1_555
C161_3 C164_3 1_555 1_555
C162_3 C159_3 1_555 1_555
C164_3 C163_3 1_555 1_555
C165_3 C163_3 1_555 1_555
H124_3 C164_3 1_555 1_555
C166_3 C161_3 1_555 1_555
H125_3 C166_3 1_555 1_555
C167_3 C165_3 1_555 1_555
H126_3 C167_3 1_555 1_555
H127_3 C165_3 1_555 1_555
H128_3 C162_3 1_555 1_555
H129_3 C162_3 1_555 1_555
C168_3 C114_3 1_555 1_555
H130_3 C168_3 1_555 1_555
H131_3 C168_3 1_555 1_555
H132_3 C168_3 1_555 1_555
C95_4 C96_4 1_555 1_555
C110_3 C111_3 1_555 1_555
C133_4 C134_4 1_555 1_555
C136_4 C137_4 1_555 1_555
O44_3 C151_3 1_555 1_555
C155_3 C156_3 1_555 1_555
C157_3 C159_3 1_555 1_555
O47_3 C162_3 1_555 1_555
C166_3 C167_3 1_555 1_555
O49_2 C149_3 1_555 1_555
C149_3 O33_2 1_555 1_555
H7_4 C7_4 1_555 1_555
C8_4 C7_4 1_555 1_555
H8_4 C8_4 1_555 1_555
H32_4 C41_4 1_555 1_555
H33_4 C41_4 1_555 1_555
C42_4 H34_4 1_555 1_555
H35_4 C42_4 1_555 1_555
H36_4 C42_4 1_555 1_555
O11_4 C49_4 1_555 1_555
O12_4 C49_4 1_555 1_555
O13_4 C41_4 1_555 1_555
C43_4 C44_4 1_555 1_555
C44_4 H37_4 1_555 1_555
C45_4 O13_4 1_555 1_555
C46_4 C45_4 1_555 1_555
H38_4 C46_4 1_555 1_555
C47_4 C46_4 1_555 1_555
H39_4 C47_4 1_555 1_555
C48_4 C43_4 1_555 1_555
H40_4 C48_4 1_555 1_555
C49_4 C43_4 1_555 1_555
N5_4 C57_4 1_555 1_555
C57_4 H45_4 1_555 1_555
Co6 O11_4 1_555 1_555
Co11 O12_4 1_555 1_555
C85_4 C86_4 1_555 1_555
C86_4 H67_4 1_555 1_555
C87_4 C85_4 1_555 1_555
C88_4 C85_4 1_555 1_555
H68_4 C86_4 1_555 1_555
O28_4 C86_4 1_555 1_555
C89_4 C87_4 1_555 1_555
H69_4 C89_4 1_555 1_555
H70_4 C89_4 1_555 1_555
H71_4 C89_4 1_555 1_555
O29_4 C90_4 1_555 1_555
C90_4 O30_4 1_555 1_555
Co16_2 O29_4 1_555 1_555
O30_4 Co6 1_555 1_555
C91_4 O28_4 1_555 1_555
C92_4 C90_4 1_555 1_555
C93_4 C91_4 1_555 1_555
C94_4 C92_4 1_555 1_555
H72_4 C93_4 1_555 1_555
H75_4 C94_4 1_555 1_555
N9_4 Co6 1_555 1_555
O31_4 Co6 1_555 1_555
O32_2 Co6 1_555 1_555
C97_4 N9_4 1_555 1_555
C98_4 N9_4 1_555 1_555
N10_4 C99_4 1_555 1_555
C99_4 C102_4 1_555 1_555
C100_4 N10_4 1_555 1_555
H76_4 C97_4 1_555 1_555
C101_4 C97_4 1_555 1_555
H77_4 C101_4 1_555 1_555
C102_4 C101_4 1_555 1_555
C103_4 C98_4 1_555 1_555
H78_4 C103_4 1_555 1_555
H79_4 C98_4 1_555 1_555
N11_4 C99_4 1_555 1_555
C104_3 O32_2 1_555 1_555
O34_2 Co16_2 1_555 1_555
C117_4 C87_4 1_555 1_555
C118_4 C117_4 1_555 1_555
C119_4 C117_4 1_555 1_555
H89_4 C118_4 1_555 1_555
H90_4 C118_4 1_555 1_555
O36_4 C118_4 1_555 1_555
C120_4 C119_4 1_555 1_555
H91_4 C120_4 1_555 1_555
H92_4 C120_4 1_555 1_555
H93_4 C120_4 1_555 1_555
O21_2 C121_4 1_555 1_555
C121_4 O23_2 1_555 1_555
C122_4 O36_4 1_555 1_555
C123_4 C121_4 1_555 1_555
C124_4 C122_4 1_555 1_555
C125_4 C123_4 1_555 1_555
H94_4 C124_4 1_555 1_555
C126_4 C122_4 1_555 1_555
H95_4 C126_4 1_555 1_555
C127_4 C125_4 1_555 1_555
H96_4 C127_4 1_555 1_555
H97_4 C125_4 1_555 1_555
C128_4 C88_4 1_555 1_555
N8_2 C138_4 1_555 1_555
C138_4 H107_4 1_555 1_555
C139_4 N8_2 1_555 1_555
N13_4 C100_4 1_555 1_555
C140_4 N11_4 1_555 1_555
C141_4 C138_4 1_555 1_555
H108_4 C141_4 1_555 1_555
C142_4 C100_4 1_555 1_555
C143_4 C139_4 1_555 1_555
H109_4 C143_4 1_555 1_555
H110_4 C139_4 1_555 1_555
H112_4 C146_4 1_555 1_555
C147_4 C140_4 1_555 1_555
C148_4 C145_4 1_555 1_555
H113_4 C148_4 1_555 1_555
H114_4 C145_4 1_555 1_555
O50_4 Co11 1_555 1_555
O52_4 Co16_2 1_555 1_555
C44_4 C45_4 1_555 1_555
C47_4 C48_4 1_555 1_555
N5_4 Co11 1_555 1_555
Co11 O31_4 1_555 1_555
Co16_2 O31_4 1_555 1_555
C92_4 C93_4 1_555 1_555
C102_4 C103_4 1_555 1_555
C104_3 O34_2 1_555 1_555
C119_4 C128_4 1_555 1_555
C123_4 C124_4 1_555 1_555
C126_4 C127_4 1_555 1_555
N13_4 C140_4 1_555 1_555
C141_4 C142_4 1_555 1_555
C142_4 C143_4 1_555 1_555
C146_4 C147_4 1_555 1_555
C147_4 C148_4 1_555 1_555
O45_2 C160_3 1_555 1_555
C160_3 O46_2 1_555 1_555
Co4_2 O45_2 1_555 1_555
O46_2 Co14_2 1_555 1_555
C1_4 C2_4 1_555 1_555
C2_4 H1_4 1_555 1_555
H2_4 C2_4 1_555 1_555
C3_4 H3_4 1_555 1_555
H4_4 C3_4 1_555 1_555
H5_4 C3_4 1_555 1_555
O1_4 C10_4 1_555 1_555
O2_4 C10_4 1_555 1_555
O3_4 C2_4 1_555 1_555
C4_4 C5_4 1_555 1_555
C5_4 H6_4 1_555 1_555
C6_4 O3_4 1_555 1_555
C9_4 C4_4 1_555 1_555
H9_4 C9_4 1_555 1_555
C10_4 C4_4 1_555 1_555
Co4_2 O2_4 1_555 1_555
N1_4 Co4_2 1_555 1_555
N2_4 C16_4 1_555 1_555
C11_4 N1_4 1_555 1_555
H10_4 C11_4 1_555 1_555
C12_4 C11_4 1_555 1_555
H11_4 C12_4 1_555 1_555
C13_4 C12_4 1_555 1_555
C14_4 C13_4 1_555 1_555
H12_4 C14_4 1_555 1_555
C15_4 N1_4 1_555 1_555
H13_4 C15_4 1_555 1_555
C16_4 C13_4 1_555 1_555
O4_4 Co4_2 1_555 1_555
C28_4 C1_4 1_555 1_555
C29_4 C28_4 1_555 1_555
C30_4 C29_4 1_555 1_555
H23_4 C30_4 1_555 1_555
H24_4 C30_4 1_555 1_555
C31_4 H25_4 1_555 1_555
H26_4 C31_4 1_555 1_555
H27_4 C31_4 1_555 1_555
O20_2 C38_4 1_555 1_555
O22_2 C38_4 1_555 1_555
O10_4 C30_4 1_555 1_555
C32_4 C33_4 1_555 1_555
C33_4 H28_4 1_555 1_555
C34_4 O10_4 1_555 1_555
C35_4 C34_4 1_555 1_555
H29_4 C35_4 1_555 1_555
C36_4 C35_4 1_555 1_555
H30_4 C36_4 1_555 1_555
C37_4 C32_4 1_555 1_555
H31_4 C37_4 1_555 1_555
C38_4 C32_4 1_555 1_555
C39_4 C29_4 1_555 1_555
C40_4 C39_4 1_555 1_555
C50_4 C1_4 1_555 1_555
N7_2 C51_4 1_555 1_555
N4_4 C56_4 1_555 1_555
C51_4 H41_4 1_555 1_555
C52_4 C51_4 1_555 1_555
H42_4 C52_4 1_555 1_555
C53_4 C52_4 1_555 1_555
C54_4 C53_4 1_555 1_555
H43_4 C54_4 1_555 1_555
C55_4 N7_2 1_555 1_555
H44_4 C55_4 1_555 1_555
C56_4 N2_4 1_555 1_555
N6_4 C16_4 1_555 1_555
H46_4 C58_4 1_555 1_555
C59_4 C58_4 1_555 1_555
C60_4 C59_4 1_555 1_555
H47_4 C60_4 1_555 1_555
H48_4 C61_4 1_555 1_555
C62_4 N4_4 1_555 1_555
Co7 O4_4 1_555 1_555
Co14_2 O1_4 1_555 1_555
O24_4 Co7 1_555 1_555
O25_4 Co14_2 1_555 1_555
O26_4 Co4_2 1_555 1_555
O27_4 Co7 1_555 1_555
C3_4 C28_4 1_555 1_555
C5_4 C6_4 1_555 1_555
C14_4 C15_4 1_555 1_555
O4_4 Co14_2 1_555 1_555
C31_4 C39_4 1_555 1_555
C33_4 C34_4 1_555 1_555
C36_4 C37_4 1_555 1_555
C40_4 C50_4 1_555 1_555
C53_4 C56_4 1_555 1_555
C54_4 C55_4 1_555 1_555
N6_4 C62_4 1_555 1_555
C59_4 C62_4 1_555 1_555
C60_4 C61_4 1_555 1_555
O25_4 C74_4 1_555 1_555
O27_4 C74_4 1_555 1_555
O50_3 C17_4 1_555 1_555
O7_4 C20_4 1_555 1_555
C17_4 O52_3 1_555 1_555
C18_4 C17_4 1_555 1_555
C19_4 C18_4 1_555 1_555
H14_4 C19_4 1_555 1_555
C20_4 C19_4 1_555 1_555
C21_4 C20_4 1_555 1_555
H15_4 C21_4 1_555 1_555
C22_4 C21_4 1_555 1_555
H16_4 C22_4 1_555 1_555
C23_4 C18_4 1_555 1_555
H17_4 C23_4 1_555 1_555
C24_4 O7_4 1_555 1_555
H18_4 C24_4 1_555 1_555
H19_4 C24_4 1_555 1_555
C25_4 C24_4 1_555 1_555
C26_4 C25_4 1_555 1_555
C27_4 C26_4 1_555 1_555
H20_4 C27_4 1_555 1_555
H21_4 C27_4 1_555 1_555
H22_4 C27_4 1_555 1_555
O24_3 C63_4 1_555 1_555
O26_3 C63_4 1_555 1_555
O16_4 C66_4 1_555 1_555
C63_4 C64_4 1_555 1_555
C64_4 C65_4 1_555 1_555
C65_4 H49_4 1_555 1_555
C66_4 C65_4 1_555 1_555
C67_4 C66_4 1_555 1_555
H50_4 C67_4 1_555 1_555
C68_4 C67_4 1_555 1_555
H51_4 C68_4 1_555 1_555
C69_4 C64_4 1_555 1_555
H52_4 C69_4 1_555 1_555
C70_4 O16_4 1_555 1_555
H53_4 C70_4 1_555 1_555
H54_4 C70_4 1_555 1_555
C71_4 C26_4 1_555 1_555
C72_4 C71_4 1_555 1_555
C73_4 C72_4 1_555 1_555
H55_4 C73_4 1_555 1_555
H56_4 C73_4 1_555 1_555
H57_4 C73_4 1_555 1_555
O19_4 C77_4 1_555 1_555
C75_4 C76_4 1_555 1_555
C76_4 H58_4 1_555 1_555
C77_4 C76_4 1_555 1_555
C78_4 C77_4 1_555 1_555
H59_4 C78_4 1_555 1_555
C79_4 C78_4 1_555 1_555
H60_4 C79_4 1_555 1_555
C80_4 C75_4 1_555 1_555
H61_4 C80_4 1_555 1_555
C81_4 O19_4 1_555 1_555
H62_4 C81_4 1_555 1_555
H63_4 C81_4 1_555 1_555
C82_4 C72_4 1_555 1_555
C83_4 C25_4 1_555 1_555
C84_4 C83_4 1_555 1_555
H64_4 C84_4 1_555 1_555
H65_4 C84_4 1_555 1_555
H66_4 C84_4 1_555 1_555
C22_4 C23_4 1_555 1_555
C68_4 C69_4 1_555 1_555
C70_4 C71_4 1_555 1_555
C79_4 C80_4 1_555 1_555
C81_4 C82_4 1_555 1_555
C82_4 C83_4 1_555 1_555
O52_4 C160_4 1_555 1_555
C160_4 O50_4 1_555 1_555
C104_4 O24_4 1_555 1_555
O35_4 C105_4 1_555 1_555
C105_4 C108_4 1_555 1_555
C106_4 O35_4 1_555 1_555
C107_4 C104_4 1_555 1_555
C108_4 C107_4 1_555 1_555
C109_4 C107_4 1_555 1_555
H80_4 C108_4 1_555 1_555
C110_4 C105_4 1_555 1_555
H81_4 C110_4 1_555 1_555
C111_4 C109_4 1_555 1_555
H82_4 C111_4 1_555 1_555
H83_4 C109_4 1_555 1_555
H84_4 C106_4 1_555 1_555
H85_4 C106_4 1_555 1_555
C112_4 C106_4 1_555 1_555
C113_4 C112_4 1_555 1_555
C114_4 C112_4 1_555 1_555
C115_4 C113_4 1_555 1_555
C116_4 C113_4 1_555 1_555
H86_4 C115_4 1_555 1_555
H87_4 C115_4 1_555 1_555
H88_4 C115_4 1_555 1_555
O25_3 C149_4 1_555 1_555
C149_4 O27_3 1_555 1_555
O44_4 C150_4 1_555 1_555
C150_4 C153_4 1_555 1_555
C151_4 C116_4 1_555 1_555
C152_4 C149_4 1_555 1_555
C153_4 C152_4 1_555 1_555
C154_4 C152_4 1_555 1_555
H115_4 C153_4 1_555 1_555
C155_4 C150_4 1_555 1_555
H116_4 C155_4 1_555 1_555
C156_4 C154_4 1_555 1_555
H117_4 C156_4 1_555 1_555
H118_4 C154_4 1_555 1_555
H119_4 C151_4 1_555 1_555
H120_4 C151_4 1_555 1_555
C157_4 C116_4 1_555 1_555
C158_4 C157_4 1_555 1_555
C159_4 C114_4 1_555 1_555
H121_4 C158_4 1_555 1_555
H122_4 C158_4 1_555 1_555
H123_4 C158_4 1_555 1_555
O47_4 C161_4 1_555 1_555
C161_4 C164_4 1_555 1_555
C162_4 C159_4 1_555 1_555
C164_4 C163_4 1_555 1_555
C165_4 C163_4 1_555 1_555
H124_4 C164_4 1_555 1_555
C166_4 C161_4 1_555 1_555
H125_4 C166_4 1_555 1_555
C167_4 C165_4 1_555 1_555
H126_4 C167_4 1_555 1_555
H127_4 C165_4 1_555 1_555
H128_4 C162_4 1_555 1_555
H129_4 C162_4 1_555 1_555
C168_4 C114_4 1_555 1_555
H130_4 C168_4 1_555 1_555
H131_4 C168_4 1_555 1_555
H132_4 C168_4 1_555 1_555
C104_4 O26_4 1_555 1_555
C110_4 C111_4 1_555 1_555
O44_4 C151_4 1_555 1_555
C155_4 C156_4 1_555 1_555
C157_4 C159_4 1_555 1_555
O47_4 C162_4 1_555 1_555
C166_4 C167_4 1_555 1_555

#END
