
###############################################################################
#
# This file contains modified crystal structure data generated from the
# MOF subset of the Cambridge Structural Database (CSD) v543 
# hosted by the Cambridge Crystallographic Data Centre (CCDC).
#
# This work is licensed under the Creative Commons
# Attribution-NonCommercial-ShareAlike 4.0 International License.
# To view a copy of this license, visit
# http://creativecommons.org/licenses/by-nc-sa/4.0/
# or send a letter to
# Creative Commons, PO Box 1866, Mountain View, CA 94042, USA.
#
# CIF created using the CSD Python API on 29 September 2022
# The structure has been converted into the P1 space group
# The structure has a 3D framework
# The original CSD entry ESEDAJ is in the orthorhombic crystal system
# The framework has been calculated to contain at least 10.0% void space
# The void calculation uses a probe of radius 1.32A, grid spacing 0.4
#
###############################################################################

data_ESEDAJ
_chemical_formula_moiety         '(C136 H72 O32 Zn4)n'
_symmetry_cell_setting           triclinic
_symmetry_space_group_name_H-M   'P 1'
_symmetry_Int_Tables_number      1
_space_group_name_Hall           'P 1'
loop_
_symmetry_equiv_pos_site_id
_symmetry_equiv_pos_as_xyz
1 x,y,z
_cell_length_a                   6.6210(7)
_cell_length_b                   20.678(2)
_cell_length_c                   26.840(3)
_cell_angle_alpha                90
_cell_angle_beta                 90
_cell_angle_gamma                90
_cell_volume                     3674.64
loop_
_atom_site_label
_atom_site_type_symbol
_atom_site_fract_x
_atom_site_fract_y
_atom_site_fract_z
C27 C 0.1079(5) 0.05600(14) 0.00273(12)
H14 H 0.1819 0.0942 0.0045
C29 C 0.0851(5) 0.11775(16) 0.10807(13)
H15 H 0.2163 0.1030 0.1032
C30 C 0.0493(5) 0.16297(17) 0.14315(13)
H16 H 0.1546 0.1779 0.1630
C1 C 0.6619(5) 0.11828(15) 0.81129(11)
C2 C 0.5369(5) 0.08622(17) 0.84973(13)
C3 C 0.3446(5) 0.06390(15) 0.83738(12)
H1 H 0.3008 0.0651 0.8045
C4 C 0.2202(5) 0.04015(17) 0.87403(12)
H2 H 0.0907 0.0263 0.8660
C5 C 0.2864(5) 0.03679(15) 0.92258(11)
C6 C 0.4798(5) 0.05708(16) 0.93456(12)
H3 H 0.5244 0.0550 0.9674
C7 C 0.6052(5) 0.08021(16) 0.89825(12)
H4 H 0.7370 0.0920 0.9062
C8 C 0.1423(5) 0.01460(16) 0.96334(11)
O1 O 0.5996(4) 0.11732(12) 0.76588(8)
O2 O 0.8188(4) 0.14595(11) 0.82414(8)
Zn1 Zn 0.47721(6) 0.18559(2) 0.728078(15)
O10 O 0.3188(4) 0.14595(11) 0.67586(8)
O11 O 0.6517(4) 0.23208(11) 0.68324(9)
O14 O 0.4407(4) 0.25130(12) 0.77739(9)
Zn6 Zn 0.97721(6) 0.18559(2) 0.771922(15)
C9 C 0.0323(5) 0.95675(15) 0.96011(13)
C11 C 0.0722(5) 0.90758(15) 0.92129(12)
C14 C 0.1427(6) 0.81275(15) 0.85025(12)
C15 C 0.2990(5) 0.83586(16) 0.87889(12)
H8 H 0.4291 0.8199 0.8745
C16 C 0.2622(5) 0.88243(16) 0.91390(13)
H9 H 0.3686 0.8975 0.9333
C17 C 0.1832(5) 0.76136(15) 0.81143(11)
O3 O 0.3483(4) 0.73208(11) 0.81676(9)
O4 O 0.0593(4) 0.75130(12) 0.77739(9)
Zn4 Zn 0.52279(6) 0.68559(2) 0.771922(15)
Zn8 Zn 0.02279(6) 0.68559(2) 0.728078(15)
C26 C 0.9677(5) 0.04325(15) 0.03989(13)
C28 C 0.9278(5) 0.09242(15) 0.07871(12)
C31 C 0.8573(6) 0.18725(15) 0.14975(12)
C32 C 0.7010(5) 0.16414(16) 0.12111(12)
H17 H 0.5709 0.1801 0.1255
C33 C 0.7378(5) 0.11757(16) 0.08610(13)
H18 H 0.6314 0.1025 0.0667
C34 C 0.8168(5) 0.23864(15) 0.18857(11)
O7 O 0.6517(4) 0.26792(11) 0.18324(9)
O8 O 0.9407(4) 0.24870(12) 0.22261(9)
Zn5 Zn 0.97721(6) 0.31441(2) 0.271922(15)
Zn7 Zn 0.47721(6) 0.31441(2) 0.228078(15)
C18 C 0.3381(5) 0.88172(15) 0.18871(11)
C19 C 0.4631(5) 0.91378(17) 0.15027(13)
C20 C 0.6554(5) 0.93610(15) 0.16262(12)
H10 H 0.6992 0.9349 0.1955
C21 C 0.7798(5) 0.95985(17) 0.12597(12)
H11 H 0.9093 0.9737 0.1340
C22 C 0.7136(5) 0.96321(15) 0.07742(11)
C23 C 0.5202(5) 0.94292(16) 0.06544(12)
H12 H 0.4756 0.9450 0.0326
C24 C 0.3948(5) 0.91979(16) 0.10175(12)
H13 H 0.2630 0.9080 0.0938
C25 C 0.8577(5) 0.98540(16) 0.03666(11)
O5 O 0.4004(4) 0.88268(12) 0.23412(8)
O6 O 0.1812(4) 0.85405(11) 0.17586(8)
Zn2 Zn 0.52279(6) 0.81441(2) 0.271922(15)
O9 O 0.6812(4) 0.85405(11) 0.32414(8)
O12 O 0.3483(4) 0.76792(11) 0.31676(9)
O13 O 0.5593(4) 0.74870(12) 0.22261(9)
Zn3 Zn 0.02279(6) 0.81441(2) 0.228078(15)
C18_2 C 0.1619(5) 0.11828(15) 0.68871(11)
C19_2 C 0.0369(5) 0.08622(17) 0.65027(13)
H12_2 H 0.0244 0.0550 0.5326
C24_2 C 0.1052(5) 0.08021(16) 0.60175(12)
H13_2 H 0.2370 0.0920 0.5938
O5_2 O 0.0996(4) 0.11732(12) 0.73412(8)
O12_2 O 0.1517(4) 0.23208(11) 0.81676(9)
C9_2 C 0.4677(5) 0.04325(15) 0.46011(13)
C10 C 0.6079(5) 0.05600(14) 0.49727(12)
H5 H 0.6819 0.0942 0.4955
C11_2 C 0.4278(5) 0.09242(15) 0.42129(12)
C12 C 0.5851(5) 0.11775(16) 0.39193(13)
H6 H 0.7163 0.1030 0.3968
C13 C 0.5493(5) 0.16297(17) 0.35685(13)
H7 H 0.6546 0.1779 0.3370
C14_2 C 0.3573(6) 0.18725(15) 0.35025(12)
C15_2 C 0.2010(5) 0.16414(16) 0.37889(12)
H8_2 H 0.0709 0.1801 0.3745
C16_2 C 0.2378(5) 0.11757(16) 0.41390(13)
H9_2 H 0.1314 0.1025 0.4333
C17_2 C 0.3168(5) 0.23864(15) 0.31143(11)
O3_2 O 0.1517(4) 0.26792(11) 0.31676(9)
O4_2 O 0.4407(4) 0.24870(12) 0.27739(9)
C20_2 C 0.8446(5) 0.06390(15) 0.66262(12)
H10_2 H 0.8008 0.0651 0.6955
C21_2 C 0.7202(5) 0.04015(17) 0.62597(12)
H11_2 H 0.5907 0.0263 0.6340
C22_2 C 0.7864(5) 0.03679(15) 0.57742(11)
C23_2 C 0.9798(5) 0.05708(16) 0.56544(12)
C25_2 C 0.6423(5) 0.01460(16) 0.53666(11)
O13_2 O 0.9407(4) 0.25130(12) 0.72261(9)
C3_2 C 0.1554(5) 0.93610(15) 0.33738(12)
H1_2 H 0.1992 0.9349 0.3045
C4_2 C 0.2798(5) 0.95985(17) 0.37403(12)
H2_2 H 0.4093 0.9737 0.3660
C5_2 C 0.2136(5) 0.96321(15) 0.42258(11)
C6_2 C 0.0202(5) 0.94292(16) 0.43456(12)
C8_2 C 0.3577(5) 0.98540(16) 0.46334(11)
C26_2 C 0.5323(5) 0.95675(15) 0.53989(13)
C27_2 C 0.3921(5) 0.94400(14) 0.50273(12)
H14_2 H 0.3181 0.9058 0.5045
C28_2 C 0.5722(5) 0.90758(15) 0.57871(12)
C29_2 C 0.4149(5) 0.88225(16) 0.60807(13)
H15_2 H 0.2837 0.8970 0.6032
C30_2 C 0.4507(5) 0.83703(17) 0.64315(13)
H16_2 H 0.3454 0.8221 0.6630
C31_2 C 0.6427(6) 0.81275(15) 0.64975(12)
C32_2 C 0.7990(5) 0.83586(16) 0.62111(12)
H17_2 H 0.9291 0.8199 0.6255
C33_2 C 0.7622(5) 0.88243(16) 0.58610(13)
H18_2 H 0.8686 0.8975 0.5667
C34_2 C 0.6832(5) 0.76136(15) 0.68857(11)
O7_2 O 0.8483(4) 0.73208(11) 0.68324(9)
O8_2 O 0.5593(4) 0.75130(12) 0.72261(9)
O14_2 O 0.0593(4) 0.74870(12) 0.27739(9)
C1_2 C 0.8381(5) 0.88172(15) 0.31129(11)
C2_2 C 0.9631(5) 0.91378(17) 0.34973(13)
H3_2 H 0.9756 0.9450 0.4674
C7_2 C 0.8948(5) 0.91979(16) 0.39825(12)
H4_2 H 0.7630 0.9080 0.4062
O1_2 O 0.9004(4) 0.88268(12) 0.26588(8)
O11_2 O 0.8483(4) 0.76792(11) 0.18324(9)
C10_2 C 0.1079(5) 0.44400(14) 0.50273(12)
H5_2 H 0.1819 0.4058 0.5045
C12_2 C 0.0851(5) 0.38225(16) 0.60807(13)
H6_2 H 0.2163 0.3970 0.6032
C13_2 C 0.0493(5) 0.33703(17) 0.64315(13)
H7_2 H 0.1546 0.3221 0.6630
C18_3 C 0.6619(5) 0.38172(15) 0.31129(11)
C19_3 C 0.5369(5) 0.41378(17) 0.34973(13)
C20_3 C 0.3446(5) 0.43610(15) 0.33738(12)
H10_3 H 0.3008 0.4349 0.3045
C21_3 C 0.2202(5) 0.45985(17) 0.37403(12)
H11_3 H 0.0907 0.4737 0.3660
C22_3 C 0.2864(5) 0.46321(15) 0.42258(11)
C23_3 C 0.4798(5) 0.44292(16) 0.43456(12)
H12_3 H 0.5244 0.4450 0.4674
C24_3 C 0.6052(5) 0.41979(16) 0.39825(12)
H13_3 H 0.7370 0.4080 0.4062
C25_3 C 0.1423(5) 0.48540(16) 0.46334(11)
C26_3 C 0.0323(5) 0.54325(15) 0.46011(13)
C28_3 C 0.0722(5) 0.59242(15) 0.42129(12)
C31_3 C 0.1427(6) 0.68725(15) 0.35025(12)
C32_3 C 0.2990(5) 0.66414(16) 0.37889(12)
H17_3 H 0.4291 0.6801 0.3745
C33_3 C 0.2622(5) 0.61757(16) 0.41390(13)
H18_3 H 0.3686 0.6025 0.4333
C34_3 C 0.1832(5) 0.73864(15) 0.31143(11)
O5_3 O 0.5996(4) 0.38268(12) 0.26588(8)
O6_2 O 0.8188(4) 0.35405(11) 0.32414(8)
O9_2 O 0.3188(4) 0.35405(11) 0.17586(8)
C1_3 C 0.3381(5) 0.61828(15) 0.68871(11)
C2_3 C 0.4631(5) 0.58622(17) 0.65027(13)
C3_3 C 0.6554(5) 0.56390(15) 0.66262(12)
H1_3 H 0.6992 0.5651 0.6955
C4_3 C 0.7798(5) 0.54015(17) 0.62597(12)
H2_3 H 0.9093 0.5263 0.6340
C5_3 C 0.7136(5) 0.53679(15) 0.57742(11)
C6_3 C 0.5202(5) 0.55708(16) 0.56544(12)
H3_3 H 0.4756 0.5550 0.5326
C7_3 C 0.3948(5) 0.58021(16) 0.60175(12)
H4_3 H 0.2630 0.5920 0.5938
C8_3 C 0.8577(5) 0.51460(16) 0.53666(11)
C9_3 C 0.9677(5) 0.45675(15) 0.53989(13)
C11_3 C 0.9278(5) 0.40758(15) 0.57871(12)
C14_3 C 0.8573(6) 0.31275(15) 0.64975(12)
C15_3 C 0.7010(5) 0.33586(16) 0.62111(12)
H8_3 H 0.5709 0.3199 0.6255
C16_3 C 0.7378(5) 0.38243(16) 0.58610(13)
H9_3 H 0.6314 0.3975 0.5667
C17_3 C 0.8168(5) 0.26136(15) 0.68857(11)
O1_3 O 0.4004(4) 0.61732(12) 0.73412(8)
O2_2 O 0.1812(4) 0.64595(11) 0.67586(8)
C27_3 C 0.8921(5) 0.55600(14) 0.49727(12)
H14_3 H 0.8181 0.5942 0.4955
C29_3 C 0.9149(5) 0.61775(16) 0.39193(13)
H15_3 H 0.7837 0.6030 0.3968
C30_3 C 0.9507(5) 0.66297(17) 0.35685(13)
H16_3 H 0.8454 0.6779 0.3370
O10_2 O 0.6812(4) 0.64595(11) 0.82414(8)
C1_4 C 0.1619(5) 0.38172(15) 0.18871(11)
C2_4 C 0.0369(5) 0.41378(17) 0.15027(13)
H3_4 H 0.0244 0.4450 0.0326
C7_4 C 0.1052(5) 0.41979(16) 0.10175(12)
H4_4 H 0.2370 0.4080 0.0938
O1_4 O 0.0996(4) 0.38268(12) 0.23412(8)
C3_4 C 0.8446(5) 0.43610(15) 0.16262(12)
H1_4 H 0.8008 0.4349 0.1955
C4_4 C 0.7202(5) 0.45985(17) 0.12597(12)
H2_4 H 0.5907 0.4737 0.1340
C5_4 C 0.7864(5) 0.46321(15) 0.07742(11)
C6_4 C 0.9798(5) 0.44292(16) 0.06544(12)
C8_4 C 0.6423(5) 0.48540(16) 0.03666(11)
C9_4 C 0.5323(5) 0.54325(15) 0.03989(13)
C10_3 C 0.3921(5) 0.55600(14) 0.00273(12)
H5_3 H 0.3181 0.5942 0.0045
C11_4 C 0.5722(5) 0.59242(15) 0.07871(12)
C12_3 C 0.4149(5) 0.61775(16) 0.10807(13)
H6_3 H 0.2837 0.6030 0.1032
C13_3 C 0.4507(5) 0.66297(17) 0.14315(13)
H7_3 H 0.3454 0.6779 0.1630
C14_4 C 0.6427(6) 0.68725(15) 0.14975(12)
C15_4 C 0.7990(5) 0.66414(16) 0.12111(12)
H8_4 H 0.9291 0.6801 0.1255
C16_4 C 0.7622(5) 0.61757(16) 0.08610(13)
H9_4 H 0.8686 0.6025 0.0667
C17_4 C 0.6832(5) 0.73864(15) 0.18857(11)
C20_4 C 0.1554(5) 0.56390(15) 0.83738(12)
H10_4 H 0.1992 0.5651 0.8045
C21_4 C 0.2798(5) 0.54015(17) 0.87403(12)
H11_4 H 0.4093 0.5263 0.8660
C22_4 C 0.2136(5) 0.53679(15) 0.92258(11)
C23_4 C 0.0202(5) 0.55708(16) 0.93456(12)
C25_4 C 0.3577(5) 0.51460(16) 0.96334(11)
C26_4 C 0.4677(5) 0.45675(15) 0.96011(13)
C27_4 C 0.6079(5) 0.44400(14) 0.99727(12)
H14_4 H 0.6819 0.4058 0.9955
C28_4 C 0.4278(5) 0.40758(15) 0.92129(12)
C29_4 C 0.5851(5) 0.38225(16) 0.89193(13)
H15_4 H 0.7163 0.3970 0.8968
C30_4 C 0.5493(5) 0.33703(17) 0.85685(13)
H16_4 H 0.6546 0.3221 0.8370
C31_4 C 0.3573(6) 0.31275(15) 0.85025(12)
C32_4 C 0.2010(5) 0.33586(16) 0.87889(12)
H17_4 H 0.0709 0.3199 0.8745
C33_4 C 0.2378(5) 0.38243(16) 0.91390(13)
H18_4 H 0.1314 0.3975 0.9333
C34_4 C 0.3168(5) 0.26136(15) 0.81143(11)
C18_4 C 0.8381(5) 0.61828(15) 0.81129(11)
C19_4 C 0.9631(5) 0.58622(17) 0.84973(13)
H12_4 H 0.9756 0.5550 0.9674
C24_4 C 0.8948(5) 0.58021(16) 0.89825(12)
H13_4 H 0.7630 0.5920 0.9062
O5_4 O 0.9004(4) 0.61732(12) 0.76588(8)
C10_4 C 0.8921(5) 0.94400(14) 0.99727(12)
H5_4 H 0.8181 0.9058 0.9955
C12_4 C 0.9149(5) 0.88225(16) 0.89193(13)
H6_4 H 0.7837 0.8970 0.8968
C13_4 C 0.9507(5) 0.83703(17) 0.85685(13)
H7_4 H 0.8454 0.8221 0.8370
loop_
_geom_bond_atom_site_label_1
_geom_bond_atom_site_label_2
_geom_bond_site_symmetry_1
_geom_bond_site_symmetry_2
H14 C27 1_555 1_555
H15 C29 1_555 1_555
C30 C29 1_555 1_555
H16 C30 1_555 1_555
C1 C2 1_555 1_555
C2 C3 1_555 1_555
C3 H1 1_555 1_555
C4 C3 1_555 1_555
H2 C4 1_555 1_555
C5 C4 1_555 1_555
C6 C5 1_555 1_555
H3 C6 1_555 1_555
C7 C2 1_555 1_555
H4 C7 1_555 1_555
C8 C5 1_555 1_555
O1 C1 1_555 1_555
O2 C1 1_555 1_555
Zn1 O1 1_555 1_555
O10 Zn1 1_555 1_555
O11 Zn1 1_555 1_555
O14 Zn1 1_555 1_555
Zn6 O2 1_555 1_555
C6 C7 1_555 1_555
C11 C9 1_555 1_555
C15 C14 1_555 1_555
H8 C15 1_555 1_555
C16 C11 1_555 1_555
H9 C16 1_555 1_555
C17 C14 1_555 1_555
O3 C17 1_555 1_555
O4 C17 1_555 1_555
Zn4 O3 1_555 1_555
Zn8 O4 1_555 1_555
C15 C16 1_555 1_555
C28 C26 1_555 1_555
C32 C31 1_555 1_555
H17 C32 1_555 1_555
C33 C28 1_555 1_555
H18 C33 1_555 1_555
C34 C31 1_555 1_555
O7 C34 1_555 1_555
O8 C34 1_555 1_555
Zn5 O8 1_555 1_555
Zn7 O7 1_555 1_555
C32 C33 1_555 1_555
C18 C19 1_555 1_555
C19 C20 1_555 1_555
C20 H10 1_555 1_555
C21 C20 1_555 1_555
H11 C21 1_555 1_555
C22 C21 1_555 1_555
C23 C22 1_555 1_555
H12 C23 1_555 1_555
C24 C19 1_555 1_555
H13 C24 1_555 1_555
O5 C18 1_555 1_555
O6 C18 1_555 1_555
Zn2 O5 1_555 1_555
O9 Zn2 1_555 1_555
O12 Zn2 1_555 1_555
O13 Zn2 1_555 1_555
Zn3 O6 1_555 1_555
C22 C25 1_555 1_555
C23 C24 1_555 1_555
C18_2 C19_2 1_555 1_555
C24_2 C19_2 1_555 1_555
H13_2 C24_2 1_555 1_555
O5_2 C18_2 1_555 1_555
O10 C18_2 1_555 1_555
C10 C9_2 1_555 1_555
H5 C10 1_555 1_555
C11_2 C9_2 1_555 1_555
C12 C11_2 1_555 1_555
H6 C12 1_555 1_555
C13 C12 1_555 1_555
H7 C13 1_555 1_555
C14_2 C13 1_555 1_555
C15_2 C14_2 1_555 1_555
H8_2 C15_2 1_555 1_555
C16_2 C11_2 1_555 1_555
H9_2 C16_2 1_555 1_555
C17_2 C14_2 1_555 1_555
O3_2 C17_2 1_555 1_555
O4_2 C17_2 1_555 1_555
C20_2 H10_2 1_555 1_555
C21_2 C20_2 1_555 1_555
H11_2 C21_2 1_555 1_555
C22_2 C21_2 1_555 1_555
C23_2 C22_2 1_555 1_555
C25_2 C10 1_555 1_555
O13_2 Zn6 1_555 1_555
Zn7 O4_2 1_555 1_555
C15_2 C16_2 1_555 1_555
C22_2 C25_2 1_555 1_555
C3_2 H1_2 1_555 1_555
C4_2 C3_2 1_555 1_555
H2_2 C4_2 1_555 1_555
C5_2 C4_2 1_555 1_555
C6_2 C5_2 1_555 1_555
C8_2 C5_2 1_555 1_555
C27_2 C8_2 1_555 1_555
H14_2 C27_2 1_555 1_555
C28_2 C26_2 1_555 1_555
C29_2 C28_2 1_555 1_555
H15_2 C29_2 1_555 1_555
C30_2 C29_2 1_555 1_555
H16_2 C30_2 1_555 1_555
C31_2 C30_2 1_555 1_555
C32_2 C31_2 1_555 1_555
H17_2 C32_2 1_555 1_555
C33_2 C28_2 1_555 1_555
H18_2 C33_2 1_555 1_555
C34_2 C31_2 1_555 1_555
O7_2 C34_2 1_555 1_555
O8_2 C34_2 1_555 1_555
O14_2 Zn3 1_555 1_555
Zn4 O8_2 1_555 1_555
C26_2 C27_2 1_555 1_555
C32_2 C33_2 1_555 1_555
C1_2 C2_2 1_555 1_555
C7_2 C2_2 1_555 1_555
H4_2 C7_2 1_555 1_555
O1_2 C1_2 1_555 1_555
O9 C1_2 1_555 1_555
H5_2 C10_2 1_555 1_555
H6_2 C12_2 1_555 1_555
C13_2 C12_2 1_555 1_555
H7_2 C13_2 1_555 1_555
C18_3 C19_3 1_555 1_555
C19_3 C20_3 1_555 1_555
C20_3 H10_3 1_555 1_555
C21_3 C20_3 1_555 1_555
H11_3 C21_3 1_555 1_555
C22_3 C21_3 1_555 1_555
C23_3 C22_3 1_555 1_555
H12_3 C23_3 1_555 1_555
C24_3 C19_3 1_555 1_555
H13_3 C24_3 1_555 1_555
C25_3 C10_2 1_555 1_555
C26_3 C25_3 1_555 1_555
C28_3 C26_3 1_555 1_555
C32_3 C31_3 1_555 1_555
H17_3 C32_3 1_555 1_555
C33_3 C28_3 1_555 1_555
H18_3 C33_3 1_555 1_555
C34_3 C31_3 1_555 1_555
O5_3 C18_3 1_555 1_555
O6_2 C18_3 1_555 1_555
O12 C34_3 1_555 1_555
O14_2 C34_3 1_555 1_555
Zn7 O5_3 1_555 1_555
O9_2 Zn7 1_555 1_555
Zn5 O6_2 1_555 1_555
C22_3 C25_3 1_555 1_555
C23_3 C24_3 1_555 1_555
C32_3 C33_3 1_555 1_555
C1_3 C2_3 1_555 1_555
C2_3 C3_3 1_555 1_555
C3_3 H1_3 1_555 1_555
C4_3 C3_3 1_555 1_555
H2_3 C4_3 1_555 1_555
C5_3 C4_3 1_555 1_555
C6_3 C5_3 1_555 1_555
H3_3 C6_3 1_555 1_555
C7_3 C2_3 1_555 1_555
H4_3 C7_3 1_555 1_555
C8_3 C5_3 1_555 1_555
C9_3 C8_3 1_555 1_555
C11_3 C9_3 1_555 1_555
C15_3 C14_3 1_555 1_555
H8_3 C15_3 1_555 1_555
C16_3 C11_3 1_555 1_555
H9_3 C16_3 1_555 1_555
C17_3 C14_3 1_555 1_555
O1_3 C1_3 1_555 1_555
O2_2 C1_3 1_555 1_555
O11 C17_3 1_555 1_555
O13_2 C17_3 1_555 1_555
Zn4 O1_3 1_555 1_555
C27_3 C8_3 1_555 1_555
H14_3 C27_3 1_555 1_555
H15_3 C29_3 1_555 1_555
C30_3 C29_3 1_555 1_555
H16_3 C30_3 1_555 1_555
O10_2 Zn4 1_555 1_555
Zn8 O2_2 1_555 1_555
C6_3 C7_3 1_555 1_555
C15_3 C16_3 1_555 1_555
C1_4 C2_4 1_555 1_555
C7_4 C2_4 1_555 1_555
H4_4 C7_4 1_555 1_555
O1_4 C1_4 1_555 1_555
O9_2 C1_4 1_555 1_555
C3_4 H1_4 1_555 1_555
C4_4 C3_4 1_555 1_555
H2_4 C4_4 1_555 1_555
C5_4 C4_4 1_555 1_555
C6_4 C5_4 1_555 1_555
C8_4 C5_4 1_555 1_555
C9_4 C8_4 1_555 1_555
C10_3 C9_4 1_555 1_555
H5_3 C10_3 1_555 1_555
C11_4 C9_4 1_555 1_555
C12_3 C11_4 1_555 1_555
H6_3 C12_3 1_555 1_555
C13_3 C12_3 1_555 1_555
H7_3 C13_3 1_555 1_555
C14_4 C13_3 1_555 1_555
C15_4 C14_4 1_555 1_555
H8_4 C15_4 1_555 1_555
C16_4 C11_4 1_555 1_555
H9_4 C16_4 1_555 1_555
C17_4 C14_4 1_555 1_555
O11_2 C17_4 1_555 1_555
O13 C17_4 1_555 1_555
C15_4 C16_4 1_555 1_555
C20_4 H10_4 1_555 1_555
C21_4 C20_4 1_555 1_555
H11_4 C21_4 1_555 1_555
C22_4 C21_4 1_555 1_555
C23_4 C22_4 1_555 1_555
C26_4 C25_4 1_555 1_555
H14_4 C27_4 1_555 1_555
C28_4 C26_4 1_555 1_555
C29_4 C28_4 1_555 1_555
H15_4 C29_4 1_555 1_555
C30_4 C29_4 1_555 1_555
H16_4 C30_4 1_555 1_555
C31_4 C30_4 1_555 1_555
C32_4 C31_4 1_555 1_555
H17_4 C32_4 1_555 1_555
C33_4 C28_4 1_555 1_555
H18_4 C33_4 1_555 1_555
C34_4 C31_4 1_555 1_555
O12_2 C34_4 1_555 1_555
O14 C34_4 1_555 1_555
C22_4 C25_4 1_555 1_555
C26_4 C27_4 1_555 1_555
C32_4 C33_4 1_555 1_555
C18_4 C19_4 1_555 1_555
C24_4 C19_4 1_555 1_555
H13_4 C24_4 1_555 1_555
O5_4 C18_4 1_555 1_555
O10_2 C18_4 1_555 1_555
H5_4 C10_4 1_555 1_555
H6_4 C12_4 1_555 1_555
C13_4 C12_4 1_555 1_555
H7_4 C13_4 1_555 1_555

#END
