
###############################################################################
#
# This file contains modified crystal structure data generated from the
# MOF subset of the Cambridge Structural Database (CSD) v543 
# hosted by the Cambridge Crystallographic Data Centre (CCDC).
#
# This work is licensed under the Creative Commons
# Attribution-NonCommercial-ShareAlike 4.0 International License.
# To view a copy of this license, visit
# http://creativecommons.org/licenses/by-nc-sa/4.0/
# or send a letter to
# Creative Commons, PO Box 1866, Mountain View, CA 94042, USA.
#
# CIF created using the CSD Python API on 29 September 2022
# The structure has been converted into the P1 space group
# The structure has a 3D framework
# The original CSD entry ESEMIA is in the monoclinic crystal system
# The framework has been calculated to contain at least 10.0% void space
# The void calculation uses a probe of radius 1.32A, grid spacing 0.4
#
###############################################################################

data_ESEMIA
_chemical_formula_moiety         '(C200 H114 In8 N24 O72)n'
_symmetry_cell_setting           triclinic
_symmetry_space_group_name_H-M   'P 1'
_symmetry_Int_Tables_number      1
_space_group_name_Hall           'P 1'
loop_
_symmetry_equiv_pos_site_id
_symmetry_equiv_pos_as_xyz
1 x,y,z
_cell_length_a                   17.4113(11)
_cell_length_b                   18.4523(13)
_cell_length_c                   17.9028(11)
_cell_angle_alpha                90
_cell_angle_beta                 101.309(5)
_cell_angle_gamma                90
_cell_volume                     5640.11
loop_
_atom_site_label
_atom_site_type_symbol
_atom_site_fract_x
_atom_site_fract_y
_atom_site_fract_z
C1 C 0.1727(5) 0.1230(4) 0.1338(4)
C2 C 0.2163(5) 0.1654(4) 0.0848(4)
C3 C 0.2926(5) 0.1852(4) 0.1085(5)
H1 H 0.3188 0.1718 0.1568
C4 C 0.1786(6) 0.1860(5) 0.0130(5)
C5 C 0.3321(6) 0.2250(5) 0.0620(6)
H3 H 0.3842 0.2377 0.0795
In1 In 0.08288(3) 0.04822(3) 0.21429(3)
O1 O 0.1046(3) 0.1014(3) 0.1073(3)
O2 O 0.2061(3) 0.1066(3) 0.2005(3)
N7 N 0.1605(4) 0.0266(4) 0.3314(4)
O19 O 0.0579(4) 0.1598(3) 0.2470(3)
H2 H 0.1261 0.1748 0.9958
C6 C 0.2201(6) 0.2239(5) 0.9666(5)
C7 C 0.2950(6) 0.2454(4) 0.9911(5)
C8 C 0.3817(5) 0.2687(4) 0.9040(5)
C9 C 0.4184(5) 0.3192(4) 0.8701(5)
H4 H 0.4100 0.3678 0.8794
C10 C 0.4687(5) 0.3012(4) 0.8219(4)
C11 C 0.5078(5) 0.3576(5) 0.7852(4)
C12 C 0.3927(5) 0.1951(4) 0.8898(5)
H5 H 0.3668 0.1597 0.9124
C13 C 0.4807(5) 0.2287(4) 0.8078(4)
H6 H 0.5141 0.2157 0.7754
C14 C 0.4431(5) 0.1755(4) 0.8416(4)
C15 C 0.4586(5) 0.0972(4) 0.8276(4)
N1 N 0.1759(9) 0.2445(9) 0.8907(6)
O3 O 0.1113(8) 0.2643(13) 0.8865(8)
O4 O 0.2108(6) 0.2511(7) 0.8408(5)
O5 O 0.3328(4) 0.2930(3) 0.9509(4)
O6 O 0.5579(4) 0.3402(3) 0.7470(3)
O7 O 0.4933(3) 0.4234(3) 0.7927(3)
O8 O 0.4209(3) 0.0494(2) 0.8584(3)
O9 O 0.5052(3) 0.0788(3) 0.7873(3)
In4 In 0.58288(3) 0.45178(3) 0.71429(3)
C16 C 0.0935(5) 0.9039(4) 0.2027(4)
C17 C 0.1054(5) 0.8261(4) 0.1872(4)
C18 C 0.1560(5) 0.8049(4) 0.1379(4)
H7 H 0.1834 0.8399 0.1163
C19 C 0.0674(5) 0.7724(4) 0.2207(4)
H8 H 0.0344 0.7851 0.2536
C20 C 0.1645(5) 0.7322(4) 0.1219(5)
C21 C 0.1269(5) 0.6800(4) 0.1563(5)
H9 H 0.1340 0.6312 0.1465
C22 C 0.0785(4) 0.6999(4) 0.2054(4)
C23 C 0.0407(5) 0.6425(4) 0.2440(4)
C24 C 0.2497(7) 0.7540(5) 0.0341(6)
C25 C 0.3230(7) 0.7779(6) 0.0650(5)
H10 H 0.3448 0.7669 0.1154
C27 C 0.3651(5) 0.8179(5) 0.0227(4)
H11 H 0.4152 0.8332 0.0451
O10 O 0.0481(3) 0.9230(3) 0.2437(3)
O11 O 0.1309(3) 0.9513(2) 0.1714(3)
O13 O 0.0546(3) 0.5767(3) 0.2343(3)
O14 O 0.2114(5) 0.7074(3) 0.0733(4)
N8 N 0.0896(4) 0.5248(3) 0.3963(3)
O22 O 0.0052(3) 0.4212(3) 0.2873(3)
C26 C 0.2182(6) 0.7722(5) 0.9597(6)
C28 C 0.2617(6) 0.8122(5) 0.9172(5)
H12 H 0.2403 0.8229 0.8666
C29 C 0.3351(5) 0.8361(4) 0.9477(4)
C30 C 0.3816(5) 0.8785(4) 0.9019(4)
N2 N 0.1388(8) 0.7524(8) 0.9245(7)
O15 O 0.0947(8) 0.7367(10) 0.9563(8)
O16 O 0.1250(10) 0.7403(16) 0.8639(8)
O17 O 0.4510(3) 0.8949(3) 0.9289(3)
O18 O 0.3506(3) 0.8992(3) 0.8369(3)
In6 In 0.46897(3) 0.95177(3) 0.81821(2)
C41 C 0.9041(6) 0.0003(6) 0.1581(5)
C42 C 0.9466(5) 0.0504(4) 0.0626(5)
H22 H 0.9863 0.0727 0.0430
C44 C 0.8767(6) 0.0401(5) 0.0139(5)
C45 C 0.8143(4) 0.0103(4) 0.0392(4)
N5 N 0.9629(4) 0.0315(3) 0.1343(3)
O20 O 0.9933(3) 0.0766(3) 0.2927(3)
H16 H 0.6516 0.5204 0.0000
C36 C 0.8026(6) 0.5121(5) 0.0514(5)
C37 C 0.7797(7) 0.5549(6) 0.1043(5)
H17 H 0.7322 0.5793 0.0923
C38 C 0.8751(7) 0.4803(7) 0.0741(6)
H18 H 0.8948 0.4507 0.0403
C39 C 0.8258(7) 0.5630(6) 0.1757(5)
H19 H 0.8078 0.5933 0.2100
C40 C 0.9182(7) 0.4915(7) 0.1450(5)
H20 H 0.9678 0.4709 0.1573
H21 H 0.9134 0.9838 0.2082
C43 C 0.8297(6) 0.9897(6) 0.1155(5)
H23 H 0.7907 0.9691 0.1374
C48 C 0.6726(5) 0.9756(4) 0.0186(4)
H26 H 0.6782 0.9678 0.0707
In2 In 0.96897(3) 0.54823(3) 0.31821(2)
N4 N 0.8922(4) 0.5312(3) 0.1981(4)
O12 O 0.9968(3) 0.6600(3) 0.2889(3)
O21 O 0.9209(3) 0.4506(2) 0.3584(3)
O23 O 0.9510(3) 0.6051(3) 0.4289(3)
O24 O 0.8506(3) 0.6008(3) 0.3369(3)
C31 C 0.7369(7) 0.4791(6) 0.8411(5)
H13 H 0.7595 0.4751 0.7983
C32 C 0.6330(8) 0.4883(12) 0.8907(7)
H14 H 0.5788 0.4877 0.8857
C33 C 0.7862(7) 0.4908(8) 0.9107(6)
H15 H 0.8401 0.4931 0.9143
C34 C 0.6764(8) 0.5049(13) 0.9613(7)
H16_2 H 0.6516 0.5204 1.0000
C35 C 0.7542(6) 0.4988(5) 0.9742(5)
C46 C 0.7360(4) 0.9998(4) 0.9892(4)
C49 C 0.6025(5) 0.9633(4) 0.9721(4)
H27 H 0.5616 0.9458 0.9934
N3 N 0.6605(4) 0.4734(4) 0.8314(4)
N6 N 0.5896(4) 0.9752(3) 0.8963(3)
C11_2 C 0.0078(5) 0.1424(5) 0.2852(4)
H6_2 H 0.0141 0.2843 0.2754
C31_2 C 0.2369(7) 0.0209(6) 0.3411(5)
H13_2 H 0.2595 0.0249 0.2983
C32_2 C 0.1330(8) 0.0117(12) 0.3907(7)
H14_2 H 0.0788 0.0123 0.3857
C33_2 C 0.2862(7) 0.0092(8) 0.4107(6)
H15_2 H 0.3401 0.0069 0.4143
C35_2 C 0.2542(6) 0.0012(5) 0.4742(5)
C38_2 C 0.3751(7) 0.0197(7) 0.5741(6)
H18_2 H 0.3948 0.0493 0.5403
C40_2 C 0.4182(7) 0.0085(7) 0.6450(5)
H20_2 H 0.4678 0.0291 0.6573
C1_2 C 0.6727(5) 0.3770(4) 0.6338(4)
C2_2 C 0.7163(5) 0.3346(4) 0.5848(4)
C3_2 C 0.7926(5) 0.3148(4) 0.6085(5)
H1_2 H 0.8188 0.3282 0.6568
C4_2 C 0.6786(6) 0.3140(5) 0.5130(5)
H2_2 H 0.6261 0.3252 0.4958
C5_2 C 0.8321(6) 0.2750(5) 0.5620(6)
H3_2 H 0.8842 0.2623 0.5795
C6_2 C 0.7201(6) 0.2761(5) 0.4666(5)
C7_2 C 0.7950(6) 0.2546(4) 0.4911(5)
C8_2 C 0.8817(5) 0.2313(4) 0.4040(5)
C9_2 C 0.9184(5) 0.1808(4) 0.3701(5)
H4_2 H 0.9100 0.1322 0.3794
C10_2 C 0.9687(5) 0.1988(4) 0.3219(4)
C12_2 C 0.8927(5) 0.3049(4) 0.3898(5)
H5_2 H 0.8668 0.3403 0.4124
C13_2 C 0.9807(5) 0.2713(4) 0.3078(4)
C14_2 C 0.9431(5) 0.3245(4) 0.3416(4)
C15_2 C 0.9586(5) 0.4028(4) 0.3276(4)
C16_2 C 0.5935(5) 0.5961(4) 0.7027(4)
C17_2 C 0.6054(5) 0.6739(4) 0.6872(4)
C18_2 C 0.6560(5) 0.6951(4) 0.6379(4)
H7_2 H 0.6834 0.6601 0.6163
C19_2 C 0.5674(5) 0.7276(4) 0.7207(4)
H8_2 H 0.5344 0.7149 0.7536
C20_2 C 0.6645(5) 0.7678(4) 0.6219(5)
C21_2 C 0.6269(5) 0.8200(4) 0.6563(5)
H9_2 H 0.6340 0.8688 0.6465
C22_2 C 0.5785(4) 0.8001(4) 0.7054(4)
C23_2 C 0.5407(5) 0.8575(4) 0.7440(4)
C24_2 C 0.7497(7) 0.7460(5) 0.5341(6)
C25_2 C 0.8230(7) 0.7221(6) 0.5650(5)
H10_2 H 0.8448 0.7331 0.6154
C26_2 C 0.7182(6) 0.7278(5) 0.4597(6)
C27_2 C 0.8651(5) 0.6821(5) 0.5227(4)
H11_2 H 0.9152 0.6668 0.5451
C28_2 C 0.7617(6) 0.6878(5) 0.4172(5)
H12_2 H 0.7403 0.6771 0.3666
C29_2 C 0.8351(5) 0.6639(4) 0.4477(4)
C30_2 C 0.8816(5) 0.6215(4) 0.4019(4)
C34_2 C 0.1764(8) 0.9951(13) 0.4613(7)
H16_3 H 0.1516 0.9796 0.5000
C36_2 C 0.3026(6) 0.9879(5) 0.5514(5)
C37_2 C 0.2797(7) 0.9451(6) 0.6043(5)
H17_2 H 0.2322 0.9207 0.5923
C39_2 C 0.3258(7) 0.9370(6) 0.6757(5)
H19_2 H 0.3078 0.9067 0.7100
C41_2 C 0.4041(6) 0.4997(6) 0.6581(5)
H21_2 H 0.4134 0.5162 0.7082
C42_2 C 0.4466(5) 0.4496(4) 0.5626(5)
H22_2 H 0.4863 0.4273 0.5430
C43_2 C 0.3297(6) 0.5103(6) 0.6155(5)
H23_2 H 0.2907 0.5309 0.6374
C44_2 C 0.3767(6) 0.4599(5) 0.5139(5)
H24 H 0.3713 0.4465 0.4631
C45_2 C 0.3143(4) 0.4897(4) 0.5392(4)
C46_2 C 0.2360(4) 0.5002(4) 0.4892(4)
C47 C 0.2226(5) 0.4866(4) 0.4109(4)
H25 H 0.2628 0.4693 0.3884
C48_2 C 0.1726(5) 0.5244(4) 0.5186(4)
H26_2 H 0.1782 0.5322 0.5707
C49_2 C 0.1025(5) 0.5367(4) 0.4721(4)
H27_2 H 0.0616 0.5542 0.4934
C50 C 0.1508(5) 0.4989(4) 0.3681(4)
H28 H 0.1429 0.4891 0.3162
N1_2 N 0.6759(9) 0.2555(9) 0.3907(6)
N2_2 N 0.6388(8) 0.7476(8) 0.4245(7)
N4_2 N 0.3922(4) 0.9688(3) 0.6981(4)
N5_2 N 0.4629(4) 0.4685(3) 0.6343(3)
O1_2 O 0.6046(3) 0.3986(3) 0.6073(3)
O2_2 O 0.7061(3) 0.3934(3) 0.7005(3)
O3_2 O 0.6113(8) 0.2357(13) 0.3865(8)
O4_2 O 0.7108(6) 0.2489(7) 0.3408(5)
O5_2 O 0.8328(4) 0.2070(3) 0.4509(4)
O10_2 O 0.5481(3) 0.5770(3) 0.7437(3)
O11_2 O 0.6309(3) 0.5487(2) 0.6714(3)
O12_2 O 0.4968(3) 0.8400(3) 0.7889(3)
O13_2 O 0.5546(3) 0.9233(3) 0.7343(3)
O14_2 O 0.7114(5) 0.7926(3) 0.5733(4)
O15_2 O 0.5947(8) 0.7633(10) 0.4563(8)
O16_2 O 0.6250(10) 0.7597(16) 0.3639(8)
H24_2 H 0.8713 0.0535 0.9631
C47_2 C 0.7226(5) 0.0134(4) 0.9109(4)
H25_2 H 0.7628 0.0307 0.8884
C50_2 C 0.6508(5) 0.0011(4) 0.8681(4)
H28_2 H 0.6429 0.0109 0.8162
In5 In 0.03103(3) 0.45177(3) 0.68179(2)
C1_3 C 0.3273(5) 0.6230(4) 0.3662(4)
C2_3 C 0.2837(5) 0.6654(4) 0.4152(4)
C3_3 C 0.2074(5) 0.6852(4) 0.3915(5)
H1_3 H 0.1812 0.6718 0.3432
C4_3 C 0.3214(6) 0.6860(5) 0.4870(5)
H2_3 H 0.3739 0.6748 0.5042
C5_3 C 0.1679(6) 0.7250(5) 0.4380(6)
H3_3 H 0.1158 0.7377 0.4205
C6_3 C 0.2799(6) 0.7239(5) 0.5334(5)
C7_3 C 0.2050(6) 0.7454(4) 0.5089(5)
C8_3 C 0.1183(5) 0.7687(4) 0.5960(5)
C9_3 C 0.0816(5) 0.8192(4) 0.6299(5)
H4_3 H 0.0900 0.8678 0.6206
C10_3 C 0.0313(5) 0.8012(4) 0.6781(4)
C12_3 C 0.1073(5) 0.6951(4) 0.6102(5)
H5_3 H 0.1332 0.6597 0.5876
C13_3 C 0.0193(5) 0.7287(4) 0.6922(4)
C14_3 C 0.0569(5) 0.6755(4) 0.6584(4)
C15_3 C 0.0414(5) 0.5972(4) 0.6724(4)
C16_3 C 0.4065(5) 0.4039(4) 0.2973(4)
C17_3 C 0.3946(5) 0.3261(4) 0.3128(4)
C18_3 C 0.3440(5) 0.3049(4) 0.3621(4)
H7_3 H 0.3166 0.3399 0.3837
C19_3 C 0.4326(5) 0.2724(4) 0.2793(4)
H8_3 H 0.4656 0.2851 0.2464
C20_3 C 0.3355(5) 0.2322(4) 0.3781(5)
C21_3 C 0.3731(5) 0.1800(4) 0.3437(5)
H9_3 H 0.3660 0.1312 0.3535
C22_3 C 0.4215(4) 0.1999(4) 0.2946(4)
C23_3 C 0.4593(5) 0.1425(4) 0.2560(4)
C24_3 C 0.2503(7) 0.2540(5) 0.4659(6)
C25_3 C 0.1770(7) 0.2779(6) 0.4350(5)
H10_3 H 0.1552 0.2669 0.3846
C26_3 C 0.2818(6) 0.2722(5) 0.5403(6)
C27_3 C 0.1349(5) 0.3179(5) 0.4773(4)
H11_3 H 0.0848 0.3332 0.4549
C28_3 C 0.2383(6) 0.3122(5) 0.5828(5)
H12_3 H 0.2597 0.3229 0.6334
C29_3 C 0.1649(5) 0.3361(4) 0.5523(4)
C30_3 C 0.1184(5) 0.3785(4) 0.5981(4)
C34_3 C 0.8236(8) 0.0049(13) 0.5387(7)
H16_4 H 0.8484 0.0204 0.5000
C36_3 C 0.6974(6) 0.0121(5) 0.4486(5)
C37_3 C 0.7203(7) 0.0549(6) 0.3957(5)
H17_3 H 0.7678 0.0793 0.4077
C39_3 C 0.6742(7) 0.0630(6) 0.3243(5)
H19_3 H 0.6922 0.0933 0.2900
C41_3 C 0.5959(6) 0.5003(6) 0.3419(5)
H21_3 H 0.5866 0.4838 0.2918
C42_3 C 0.5534(5) 0.5504(4) 0.4374(5)
H22_3 H 0.5137 0.5727 0.4570
C43_3 C 0.6703(6) 0.4897(6) 0.3845(5)
H23_3 H 0.7093 0.4691 0.3626
C44_3 C 0.6233(6) 0.5401(5) 0.4861(5)
H24_3 H 0.6287 0.5535 0.5369
C45_3 C 0.6857(4) 0.5103(4) 0.4608(4)
C46_3 C 0.7640(4) 0.4998(4) 0.5108(4)
C47_3 C 0.7774(5) 0.5134(4) 0.5891(4)
H25_3 H 0.7372 0.5307 0.6116
C48_3 C 0.8274(5) 0.4756(4) 0.4814(4)
H26_3 H 0.8218 0.4678 0.4293
C49_3 C 0.8975(5) 0.4633(4) 0.5279(4)
H27_3 H 0.9384 0.4458 0.5066
C50_3 C 0.8492(5) 0.5011(4) 0.6319(4)
H28_3 H 0.8571 0.5109 0.6838
In1_2 In 0.41712(3) 0.54822(3) 0.28571(3)
In2_2 In 0.53103(3) 0.04823(3) 0.18179(2)
N1_3 N 0.3241(9) 0.7445(9) 0.6093(6)
N2_3 N 0.3612(8) 0.2524(8) 0.5755(7)
N4_3 N 0.6078(4) 0.0312(3) 0.3019(4)
N5_3 N 0.5371(4) 0.5315(3) 0.3657(3)
N6_2 N 0.9104(4) 0.4752(3) 0.6037(3)
O1_3 O 0.3954(3) 0.6014(3) 0.3927(3)
O2_3 O 0.2939(3) 0.6066(3) 0.2995(3)
O3_3 O 0.3887(8) 0.7643(13) 0.6135(8)
O4_3 O 0.2892(6) 0.7511(7) 0.6592(5)
O5_3 O 0.1672(4) 0.7930(3) 0.5491(4)
O7_2 O 0.0067(3) 0.9234(3) 0.7073(3)
O8_2 O 0.0791(3) 0.5494(2) 0.6416(3)
O10_3 O 0.4519(3) 0.4230(3) 0.2563(3)
O11_3 O 0.3691(3) 0.4513(2) 0.3286(3)
O12_3 O 0.5032(3) 0.1600(3) 0.2111(3)
O13_3 O 0.4454(3) 0.0767(3) 0.2657(3)
O14_3 O 0.2886(5) 0.2074(3) 0.4267(4)
O15_3 O 0.4053(8) 0.2367(10) 0.5437(8)
O16_3 O 0.3750(10) 0.2403(16) 0.6361(8)
O17_2 O 0.0490(3) 0.3949(3) 0.5711(3)
O18_2 O 0.1494(3) 0.3992(3) 0.6631(3)
N7_2 N 0.3395(4) 0.5266(4) 0.1686(4)
N8_2 N 0.4104(4) 0.0248(3) 0.1037(3)
O19_2 O 0.4421(4) 0.6598(3) 0.2530(3)
O20_2 O 0.5067(3) 0.5766(3) 0.2073(3)
O23_2 O 0.5490(3) 0.1051(3) 0.0711(3)
O24_2 O 0.6494(3) 0.1008(3) 0.1631(3)
C31_3 C 0.7631(7) 0.9791(6) 0.6589(5)
H13_3 H 0.7405 0.9751 0.7017
C32_3 C 0.8670(8) 0.9883(12) 0.6093(7)
H14_3 H 0.9212 0.9877 0.6143
C33_3 C 0.7138(7) 0.9908(8) 0.5893(6)
H15_3 H 0.6599 0.9931 0.5857
C35_3 C 0.7458(6) 0.9988(5) 0.5258(5)
C38_3 C 0.6249(7) 0.9803(7) 0.4259(6)
H18_3 H 0.6052 0.9507 0.4597
C40_3 C 0.5818(7) 0.9915(7) 0.3550(5)
H20_3 H 0.5322 0.9709 0.3427
N3_2 N 0.8395(4) 0.9734(4) 0.6686(4)
In3 In 0.91712(3) 0.95178(3) 0.78571(3)
O21_2 O 0.5791(3) 0.9506(2) 0.1416(3)
O22_2 O 0.4948(3) 0.9212(3) 0.2127(3)
C11_3 C 0.9922(5) 0.8576(5) 0.7148(4)
H6_3 H 0.9859 0.7157 0.7246
O6_2 O 0.9421(4) 0.8402(3) 0.7530(3)
O9_2 O 0.9948(3) 0.5788(3) 0.7127(3)
C31_4 C 0.2631(7) 0.5209(6) 0.1589(5)
H13_4 H 0.2405 0.5249 0.2017
C32_4 C 0.3670(8) 0.5117(12) 0.1093(7)
H14_4 H 0.4212 0.5123 0.1143
C33_4 C 0.2138(7) 0.5092(8) 0.0893(6)
H15_4 H 0.1599 0.5069 0.0857
C34_4 C 0.3236(8) 0.4951(13) 0.0387(7)
H16_5 H 0.3484 0.4796 0.0000
C35_4 C 0.2458(6) 0.5012(5) 0.0258(5)
C46_4 C 0.2640(4) 0.0002(4) 0.0108(4)
C49_4 C 0.3975(5) 0.0367(4) 0.0279(4)
H27_4 H 0.4384 0.0542 0.0066
H16_6 H 0.3484 0.4796 1.0000
C36_4 C 0.1974(6) 0.4879(5) 0.9486(5)
C37_4 C 0.2203(7) 0.4451(6) 0.8957(5)
H17_4 H 0.2678 0.4207 0.9077
C38_4 C 0.1249(7) 0.5197(7) 0.9259(6)
H18_4 H 0.1052 0.5493 0.9597
C39_4 C 0.1742(7) 0.4370(6) 0.8243(5)
H19_4 H 0.1922 0.4067 0.7900
C40_4 C 0.0818(7) 0.5085(7) 0.8550(5)
H20_4 H 0.0322 0.5291 0.8427
H21_4 H 0.0866 0.0162 0.7918
C43_4 C 0.1703(6) 0.0103(6) 0.8845(5)
H23_4 H 0.2093 0.0309 0.8626
C48_4 C 0.3274(5) 0.0244(4) 0.9814(4)
H26_4 H 0.3218 0.0322 0.9293
N4_4 N 0.1078(4) 0.4688(3) 0.8019(4)
O12_4 O 0.0032(3) 0.3400(3) 0.7111(3)
C41_4 C 0.0959(6) 0.9997(6) 0.8419(5)
C42_4 C 0.0534(5) 0.9496(4) 0.9374(5)
H22_4 H 0.0137 0.9273 0.9570
C44_4 C 0.1233(6) 0.9599(5) 0.9861(5)
C45_4 C 0.1857(4) 0.9897(4) 0.9608(4)
N5_4 N 0.0371(4) 0.9685(3) 0.8657(3)
C26_4 C 0.7818(6) 0.2278(5) 0.0403(6)
C28_4 C 0.7383(6) 0.1878(5) 0.0828(5)
H12_4 H 0.7597 0.1771 0.1334
C29_4 C 0.6649(5) 0.1639(4) 0.0523(4)
C30_4 C 0.6184(5) 0.1215(4) 0.0981(4)
N2_4 N 0.8612(8) 0.2476(8) 0.0755(7)
O15_4 O 0.9053(8) 0.2633(10) 0.0437(8)
O16_4 O 0.8750(10) 0.2597(16) 0.1361(8)
C16_4 C 0.9065(5) 0.0961(4) 0.7973(4)
C17_4 C 0.8946(5) 0.1739(4) 0.8128(4)
C18_4 C 0.8440(5) 0.1951(4) 0.8621(4)
H7_4 H 0.8166 0.1601 0.8837
C19_4 C 0.9326(5) 0.2276(4) 0.7793(4)
H8_4 H 0.9656 0.2149 0.7464
C20_4 C 0.8355(5) 0.2678(4) 0.8781(5)
C21_4 C 0.8731(5) 0.3200(4) 0.8437(5)
H9_4 H 0.8660 0.3688 0.8535
C22_4 C 0.9215(4) 0.3001(4) 0.7946(4)
C23_4 C 0.9593(5) 0.3575(4) 0.7560(4)
C24_4 C 0.7503(7) 0.2460(5) 0.9659(6)
C25_4 C 0.6770(7) 0.2221(6) 0.9350(5)
H10_4 H 0.6552 0.2331 0.8846
C27_4 C 0.6349(5) 0.1821(5) 0.9773(4)
H11_4 H 0.5848 0.1668 0.9549
O10_4 O 0.9519(3) 0.0770(3) 0.7563(3)
O11_4 O 0.8691(3) 0.0487(2) 0.8286(3)
O13_4 O 0.9454(3) 0.4233(3) 0.7657(3)
O14_4 O 0.7886(5) 0.2926(3) 0.9267(4)
H2_4 H 0.8739 0.8252 0.0042
C6_4 C 0.7799(6) 0.7761(5) 0.0334(5)
C7_4 C 0.7050(6) 0.7546(4) 0.0089(5)
C8_4 C 0.6183(5) 0.7313(4) 0.0960(5)
C9_4 C 0.5816(5) 0.6808(4) 0.1299(5)
H4_4 H 0.5900 0.6322 0.1206
C10_4 C 0.5313(5) 0.6988(4) 0.1781(4)
C11_4 C 0.4922(5) 0.6424(5) 0.2148(4)
C12_4 C 0.6073(5) 0.8049(4) 0.1102(5)
H5_4 H 0.6332 0.8403 0.0876
C13_4 C 0.5193(5) 0.7713(4) 0.1922(4)
H6_4 H 0.4859 0.7843 0.2246
C14_4 C 0.5569(5) 0.8245(4) 0.1584(4)
C15_4 C 0.5414(5) 0.9028(4) 0.1724(4)
N1_4 N 0.8241(9) 0.7555(9) 0.1093(6)
O3_4 O 0.8887(8) 0.7357(13) 0.1135(8)
O4_4 O 0.7892(6) 0.7489(7) 0.1592(5)
O5_4 O 0.6672(4) 0.7070(3) 0.0491(4)
C1_4 C 0.8273(5) 0.8770(4) 0.8662(4)
C2_4 C 0.7837(5) 0.8346(4) 0.9152(4)
C3_4 C 0.7074(5) 0.8148(4) 0.8915(5)
H1_4 H 0.6812 0.8282 0.8432
C4_4 C 0.8214(6) 0.8140(5) 0.9870(5)
C5_4 C 0.6679(6) 0.7750(5) 0.9380(6)
H3_4 H 0.6158 0.7623 0.9205
O1_4 O 0.8954(3) 0.8986(3) 0.8927(3)
O2_4 O 0.7939(3) 0.8934(3) 0.7995(3)
H24_4 H 0.1287 0.9465 0.0369
C47_4 C 0.2774(5) 0.9866(4) 0.0891(4)
H25_4 H 0.2372 0.9693 0.1116
C50_4 C 0.3492(5) 0.9989(4) 0.1319(4)
H28_4 H 0.3571 0.9891 0.1838
loop_
_geom_bond_atom_site_label_1
_geom_bond_atom_site_label_2
_geom_bond_site_symmetry_1
_geom_bond_site_symmetry_2
C1 C2 1_555 1_555
C2 C3 1_555 1_555
C3 H1 1_555 1_555
C4 C2 1_555 1_555
C5 C3 1_555 1_555
H3 C5 1_555 1_555
O1 C1 1_555 1_555
O2 C1 1_555 1_555
N7 In1 1_555 1_555
O19 In1 1_555 1_555
In1 O1 1_555 1_555
In1 O2 1_555 1_555
C8 C9 1_555 1_555
C9 H4 1_555 1_555
C10 C9 1_555 1_555
C11 C10 1_555 1_555
C12 C8 1_555 1_555
H5 C12 1_555 1_555
C13 C10 1_555 1_555
H6 C13 1_555 1_555
C14 C12 1_555 1_555
C15 C14 1_555 1_555
N1 C6 1_555 1_555
O3 N1 1_555 1_555
O4 N1 1_555 1_555
O5 C7 1_555 1_555
O6 C11 1_555 1_555
O7 C11 1_555 1_555
O8 C15 1_555 1_555
O9 C15 1_555 1_555
In4 O6 1_555 1_555
C6 C7 1_555 1_555
C8 O5 1_555 1_555
C13 C14 1_555 1_555
O7 In4 1_555 1_555
C16 C17 1_555 1_555
C17 C18 1_555 1_555
C18 H7 1_555 1_555
C19 C17 1_555 1_555
H8 C19 1_555 1_555
C20 C18 1_555 1_555
C21 C20 1_555 1_555
H9 C21 1_555 1_555
C22 C19 1_555 1_555
C23 C22 1_555 1_555
C24 C25 1_555 1_555
C25 H10 1_555 1_555
C27 C25 1_555 1_555
H11 C27 1_555 1_555
O10 C16 1_555 1_555
O11 C16 1_555 1_555
O13 C23 1_555 1_555
O14 C20 1_555 1_555
C21 C22 1_555 1_555
C24 O14 1_555 1_555
C28 C26 1_555 1_555
H12 C28 1_555 1_555
C30 C29 1_555 1_555
N2 C26 1_555 1_555
O15 N2 1_555 1_555
O16 N2 1_555 1_555
O17 C30 1_555 1_555
O18 C30 1_555 1_555
C28 C29 1_555 1_555
O17 In6 1_555 1_555
O18 In6 1_555 1_555
C42 H22 1_555 1_555
C44 C42 1_555 1_555
N5 C41 1_555 1_555
C42 N5 1_555 1_555
C44 C45 1_555 1_555
C37 C36 1_555 1_555
H17 C37 1_555 1_555
C38 C36 1_555 1_555
H18 C38 1_555 1_555
C39 C37 1_555 1_555
H19 C39 1_555 1_555
C40 C38 1_555 1_555
H20 C40 1_555 1_555
H23 C43 1_555 1_555
H26 C48 1_555 1_555
In2 N4 1_555 1_555
N4 C39 1_555 1_555
O21 In2 1_555 1_555
O23 In2 1_555 1_555
O24 In2 1_555 1_555
C40 N4 1_555 1_555
In2 O12 1_555 1_555
C31 H13 1_555 1_555
C32 H14 1_555 1_555
C33 C31 1_555 1_555
H15 C33 1_555 1_555
C34 C32 1_555 1_555
H16_2 C34 1_555 1_555
C35 C33 1_555 1_555
H27 C49 1_555 1_555
N3 C31 1_555 1_555
N6 C49 1_555 1_555
In4 N3 1_555 1_555
In6 N6 1_555 1_555
C32 N3 1_555 1_555
C34 C35 1_555 1_555
O19 C11_2 1_555 1_555
C31_2 H13_2 1_555 1_555
C32_2 H14_2 1_555 1_555
C33_2 C31_2 1_555 1_555
H15_2 C33_2 1_555 1_555
C35_2 C33_2 1_555 1_555
H18_2 C38_2 1_555 1_555
C40_2 C38_2 1_555 1_555
H20_2 C40_2 1_555 1_555
N7 C31_2 1_555 1_555
C32_2 N7 1_555 1_555
C1_2 C2_2 1_555 1_555
C2_2 C3_2 1_555 1_555
C3_2 H1_2 1_555 1_555
C4_2 C2_2 1_555 1_555
H2_2 C4_2 1_555 1_555
C5_2 C3_2 1_555 1_555
H3_2 C5_2 1_555 1_555
C6_2 C4_2 1_555 1_555
C7_2 C5_2 1_555 1_555
C8_2 C9_2 1_555 1_555
C9_2 H4_2 1_555 1_555
C10_2 C9_2 1_555 1_555
C12_2 C8_2 1_555 1_555
H5_2 C12_2 1_555 1_555
C13_2 C10_2 1_555 1_555
C14_2 C12_2 1_555 1_555
C15_2 C14_2 1_555 1_555
C16_2 C17_2 1_555 1_555
C17_2 C18_2 1_555 1_555
C18_2 H7_2 1_555 1_555
C19_2 C17_2 1_555 1_555
H8_2 C19_2 1_555 1_555
C20_2 C18_2 1_555 1_555
C21_2 C20_2 1_555 1_555
H9_2 C21_2 1_555 1_555
C22_2 C19_2 1_555 1_555
C23_2 C22_2 1_555 1_555
C24_2 C25_2 1_555 1_555
C25_2 H10_2 1_555 1_555
C26_2 C24_2 1_555 1_555
C27_2 C25_2 1_555 1_555
H11_2 C27_2 1_555 1_555
C28_2 C26_2 1_555 1_555
H12_2 C28_2 1_555 1_555
C29_2 C27_2 1_555 1_555
C30_2 C29_2 1_555 1_555
H16_3 C34_2 1_555 1_555
C37_2 C36_2 1_555 1_555
H17_2 C37_2 1_555 1_555
C39_2 C37_2 1_555 1_555
H19_2 C39_2 1_555 1_555
C41_2 H21_2 1_555 1_555
C42_2 H22_2 1_555 1_555
C43_2 C41_2 1_555 1_555
H23_2 C43_2 1_555 1_555
C44_2 C42_2 1_555 1_555
H24 C44_2 1_555 1_555
C45_2 C43_2 1_555 1_555
C46_2 C45_2 1_555 1_555
C47 C46_2 1_555 1_555
H25 C47 1_555 1_555
C48_2 C46_2 1_555 1_555
H26_2 C48_2 1_555 1_555
C49_2 C48_2 1_555 1_555
H27_2 C49_2 1_555 1_555
C50 C47 1_555 1_555
H28 C50 1_555 1_555
In4 N5_2 1_555 1_555
In6 N4_2 1_555 1_555
N1_2 C6_2 1_555 1_555
N2_2 C26_2 1_555 1_555
N4_2 C39_2 1_555 1_555
N5_2 C41_2 1_555 1_555
N8 C49_2 1_555 1_555
O1_2 C1_2 1_555 1_555
O2_2 C1_2 1_555 1_555
O3_2 N1_2 1_555 1_555
O4_2 N1_2 1_555 1_555
O5_2 C7_2 1_555 1_555
O21 C15_2 1_555 1_555
O10_2 C16_2 1_555 1_555
O11_2 C16_2 1_555 1_555
O12_2 C23_2 1_555 1_555
O13_2 C23_2 1_555 1_555
O14_2 C20_2 1_555 1_555
O15_2 N2_2 1_555 1_555
O16_2 N2_2 1_555 1_555
O23 C30_2 1_555 1_555
O24 C30_2 1_555 1_555
C6_2 C7_2 1_555 1_555
C8_2 O5_2 1_555 1_555
C13_2 C14_2 1_555 1_555
C21_2 C22_2 1_555 1_555
C24_2 O14_2 1_555 1_555
C28_2 C29_2 1_555 1_555
C42_2 N5_2 1_555 1_555
C44_2 C45_2 1_555 1_555
C50 N8 1_555 1_555
In4 O1_2 1_555 1_555
In4 O2_2 1_555 1_555
In4 O10_2 1_555 1_555
In4 O11_2 1_555 1_555
In6 O12_2 1_555 1_555
In6 O13_2 1_555 1_555
H25_2 C47_2 1_555 1_555
C50_2 C47_2 1_555 1_555
H28_2 C50_2 1_555 1_555
C1_3 C2_3 1_555 1_555
C2_3 C3_3 1_555 1_555
C3_3 H1_3 1_555 1_555
C4_3 C2_3 1_555 1_555
H2_3 C4_3 1_555 1_555
C5_3 C3_3 1_555 1_555
H3_3 C5_3 1_555 1_555
C6_3 C4_3 1_555 1_555
C7_3 C5_3 1_555 1_555
C8_3 C9_3 1_555 1_555
C9_3 H4_3 1_555 1_555
C10_3 C9_3 1_555 1_555
C12_3 C8_3 1_555 1_555
H5_3 C12_3 1_555 1_555
C13_3 C10_3 1_555 1_555
C14_3 C12_3 1_555 1_555
C15_3 C14_3 1_555 1_555
C16_3 C17_3 1_555 1_555
C17_3 C18_3 1_555 1_555
C18_3 H7_3 1_555 1_555
C19_3 C17_3 1_555 1_555
H8_3 C19_3 1_555 1_555
C20_3 C18_3 1_555 1_555
C21_3 C20_3 1_555 1_555
H9_3 C21_3 1_555 1_555
C22_3 C19_3 1_555 1_555
C23_3 C22_3 1_555 1_555
C24_3 C25_3 1_555 1_555
C25_3 H10_3 1_555 1_555
C26_3 C24_3 1_555 1_555
C27_3 C25_3 1_555 1_555
H11_3 C27_3 1_555 1_555
C28_3 C26_3 1_555 1_555
H12_3 C28_3 1_555 1_555
C29_3 C27_3 1_555 1_555
C30_3 C29_3 1_555 1_555
H16_4 C34_3 1_555 1_555
C37_3 C36_3 1_555 1_555
H17_3 C37_3 1_555 1_555
C39_3 C37_3 1_555 1_555
H19_3 C39_3 1_555 1_555
C41_3 H21_3 1_555 1_555
C42_3 H22_3 1_555 1_555
C43_3 C41_3 1_555 1_555
H23_3 C43_3 1_555 1_555
C44_3 C42_3 1_555 1_555
H24_3 C44_3 1_555 1_555
C45_3 C43_3 1_555 1_555
C46_3 C45_3 1_555 1_555
C47_3 C46_3 1_555 1_555
H25_3 C47_3 1_555 1_555
C48_3 C46_3 1_555 1_555
H26_3 C48_3 1_555 1_555
C49_3 C48_3 1_555 1_555
H27_3 C49_3 1_555 1_555
C50_3 C47_3 1_555 1_555
H28_3 C50_3 1_555 1_555
In1_2 N5_3 1_555 1_555
In2_2 N4_3 1_555 1_555
N1_3 C6_3 1_555 1_555
N2_3 C26_3 1_555 1_555
N4_3 C39_3 1_555 1_555
N5_3 C41_3 1_555 1_555
N6_2 C49_3 1_555 1_555
O1_3 C1_3 1_555 1_555
O2_3 C1_3 1_555 1_555
O3_3 N1_3 1_555 1_555
O4_3 N1_3 1_555 1_555
O5_3 C7_3 1_555 1_555
O8_2 C15_3 1_555 1_555
O10_3 C16_3 1_555 1_555
O11_3 C16_3 1_555 1_555
O12_3 C23_3 1_555 1_555
O13_3 C23_3 1_555 1_555
O14_3 C20_3 1_555 1_555
O15_3 N2_3 1_555 1_555
O16_3 N2_3 1_555 1_555
O17_2 C30_3 1_555 1_555
O18_2 C30_3 1_555 1_555
In5 O8_2 1_555 1_555
N7_2 In1_2 1_555 1_555
N8_2 In2_2 1_555 1_555
O19_2 In1_2 1_555 1_555
O20_2 In1_2 1_555 1_555
O23_2 In2_2 1_555 1_555
O24_2 In2_2 1_555 1_555
C6_3 C7_3 1_555 1_555
C8_3 O5_3 1_555 1_555
C13_3 C14_3 1_555 1_555
C21_3 C22_3 1_555 1_555
C24_3 O14_3 1_555 1_555
C28_3 C29_3 1_555 1_555
C42_3 N5_3 1_555 1_555
C44_3 C45_3 1_555 1_555
C50_3 N6_2 1_555 1_555
In1_2 O1_3 1_555 1_555
In1_2 O2_3 1_555 1_555
In1_2 O10_3 1_555 1_555
In1_2 O11_3 1_555 1_555
In2_2 O12_3 1_555 1_555
In2_2 O13_3 1_555 1_555
O17_2 In5 1_555 1_555
O18_2 In5 1_555 1_555
C31_3 H13_3 1_555 1_555
C32_3 H14_3 1_555 1_555
C33_3 C31_3 1_555 1_555
H15_3 C33_3 1_555 1_555
C35_3 C33_3 1_555 1_555
H18_3 C38_3 1_555 1_555
C40_3 C38_3 1_555 1_555
H20_3 C40_3 1_555 1_555
N3_2 C31_3 1_555 1_555
In3 N3_2 1_555 1_555
C32_3 N3_2 1_555 1_555
O6_2 C11_3 1_555 1_555
In3 O6_2 1_555 1_555
C31_4 H13_4 1_555 1_555
C32_4 H14_4 1_555 1_555
C33_4 C31_4 1_555 1_555
H15_4 C33_4 1_555 1_555
C34_4 C32_4 1_555 1_555
H16_5 C34_4 1_555 1_555
C35_4 C33_4 1_555 1_555
H27_4 C49_4 1_555 1_555
N7_2 C31_4 1_555 1_555
N8_2 C49_4 1_555 1_555
C32_4 N7_2 1_555 1_555
C34_4 C35_4 1_555 1_555
C37_4 C36_4 1_555 1_555
H17_4 C37_4 1_555 1_555
C38_4 C36_4 1_555 1_555
H18_4 C38_4 1_555 1_555
C39_4 C37_4 1_555 1_555
H19_4 C39_4 1_555 1_555
C40_4 C38_4 1_555 1_555
H20_4 C40_4 1_555 1_555
H23_4 C43_4 1_555 1_555
H26_4 C48_4 1_555 1_555
In5 N4_4 1_555 1_555
N4_4 C39_4 1_555 1_555
C40_4 N4_4 1_555 1_555
In5 O12_4 1_555 1_555
C42_4 H22_4 1_555 1_555
C44_4 C42_4 1_555 1_555
N5_4 C41_4 1_555 1_555
C42_4 N5_4 1_555 1_555
C44_4 C45_4 1_555 1_555
C28_4 C26_4 1_555 1_555
H12_4 C28_4 1_555 1_555
C30_4 C29_4 1_555 1_555
N2_4 C26_4 1_555 1_555
O15_4 N2_4 1_555 1_555
O16_4 N2_4 1_555 1_555
O23_2 C30_4 1_555 1_555
O24_2 C30_4 1_555 1_555
C28_4 C29_4 1_555 1_555
C16_4 C17_4 1_555 1_555
C17_4 C18_4 1_555 1_555
C18_4 H7_4 1_555 1_555
C19_4 C17_4 1_555 1_555
H8_4 C19_4 1_555 1_555
C20_4 C18_4 1_555 1_555
C21_4 C20_4 1_555 1_555
H9_4 C21_4 1_555 1_555
C22_4 C19_4 1_555 1_555
C23_4 C22_4 1_555 1_555
C24_4 C25_4 1_555 1_555
C25_4 H10_4 1_555 1_555
C27_4 C25_4 1_555 1_555
H11_4 C27_4 1_555 1_555
O10_4 C16_4 1_555 1_555
O11_4 C16_4 1_555 1_555
O13_4 C23_4 1_555 1_555
O14_4 C20_4 1_555 1_555
C21_4 C22_4 1_555 1_555
C24_4 O14_4 1_555 1_555
C8_4 C9_4 1_555 1_555
C9_4 H4_4 1_555 1_555
C10_4 C9_4 1_555 1_555
C11_4 C10_4 1_555 1_555
C12_4 C8_4 1_555 1_555
H5_4 C12_4 1_555 1_555
C13_4 C10_4 1_555 1_555
H6_4 C13_4 1_555 1_555
C14_4 C12_4 1_555 1_555
C15_4 C14_4 1_555 1_555
N1_4 C6_4 1_555 1_555
O3_4 N1_4 1_555 1_555
O4_4 N1_4 1_555 1_555
O5_4 C7_4 1_555 1_555
O19_2 C11_4 1_555 1_555
O20_2 C11_4 1_555 1_555
O21_2 C15_4 1_555 1_555
O22_2 C15_4 1_555 1_555
C6_4 C7_4 1_555 1_555
C8_4 O5_4 1_555 1_555
C13_4 C14_4 1_555 1_555
C1_4 C2_4 1_555 1_555
C2_4 C3_4 1_555 1_555
C3_4 H1_4 1_555 1_555
C4_4 C2_4 1_555 1_555
C5_4 C3_4 1_555 1_555
H3_4 C5_4 1_555 1_555
O1_4 C1_4 1_555 1_555
O2_4 C1_4 1_555 1_555
In3 O1_4 1_555 1_555
In3 O2_4 1_555 1_555
H25_4 C47_4 1_555 1_555
C50_4 C47_4 1_555 1_555
H28_4 C50_4 1_555 1_555

#END
