
###############################################################################
#
# This file contains modified crystal structure data generated from the
# MOF subset of the Cambridge Structural Database (CSD) v543 
# hosted by the Cambridge Crystallographic Data Centre (CCDC).
#
# This work is licensed under the Creative Commons
# Attribution-NonCommercial-ShareAlike 4.0 International License.
# To view a copy of this license, visit
# http://creativecommons.org/licenses/by-nc-sa/4.0/
# or send a letter to
# Creative Commons, PO Box 1866, Mountain View, CA 94042, USA.
#
# CIF created using the CSD Python API on 29 September 2022
# The structure has been converted into the P1 space group
# The structure has a 3D framework
# The original CSD entry ESEQUO is in the triclinic crystal system
# The framework has been calculated to contain at least 10.0% void space
# The void calculation uses a probe of radius 1.32A, grid spacing 0.4
# H atom positions have been added when not included in the experimental data
#
###############################################################################

data_ESEQUO
_chemical_formula_moiety         '(C32 H32 Co3 O20)n'
_symmetry_cell_setting           triclinic
_symmetry_space_group_name_H-M   'P 1'
_symmetry_Int_Tables_number      1
_space_group_name_Hall           'P 1'
loop_
_symmetry_equiv_pos_site_id
_symmetry_equiv_pos_as_xyz
1 x,y,z
_cell_length_a                   9.978(2)
_cell_length_b                   11.223(2)
_cell_length_c                   11.283(2)
_cell_angle_alpha                102.26(3)
_cell_angle_beta                 113.52(3)
_cell_angle_gamma                92.73(3)
_cell_volume                     1119.69
loop_
_atom_site_label
_atom_site_type_symbol
_atom_site_fract_x
_atom_site_fract_y
_atom_site_fract_z
_atom_site_U_iso_or_equiv
_atom_site_thermal_displace_type
C26 C 0.0430(4) 0.1056(3) 0.4699(3) 0.0258 Uani
C27 C 0.0937(4) 0.2188(3) 0.4385(3) 0.0259 Uani
O15 O 0.1796(3) 0.3052(2) 0.5344(2) 0.0356 Uani
O16 O 0.0483(3) 0.2191(2) 0.3167(2) 0.0337 Uani
C28 C 0.0973(5) 0.0961(4) 0.6018(4) 0.0345 Uani
H19 H 0.1665 0.1642 0.6740 0.0800 Uiso
Co8 Co 0.16449(5) 0.31664(4) 0.24362(4) 0.0202 Uani
O10 O 0.9940(3) 0.6231(3) 0.0800(3) 0.0447 Uani
H12 H 0.9697 0.7753 0.1724 0.0800 Uiso
Co1 Co 0.5000 0.5000 0.5000 0.0167 Uani
Co2 Co 0.83551(5) 0.68336(4) 0.75638(4) 0.0202 Uani
O1 O 0.5178(3) 0.3222(2) 0.4992(3) 0.0312 Uani
O2 O 0.4913(3) 0.4753(2) 0.3112(2) 0.0303 Uani
O3 O 0.7434(2) 0.5425(2) 0.5685(2) 0.0214 Uani
O5 O 0.8204(3) 0.6948(2) 0.4656(2) 0.0356 Uani
O6 O 0.9517(3) 0.7809(2) 0.6833(2) 0.0337 Uani
O7 O 0.9228(3) 0.8194(2) 0.9404(2) 0.0327 Uani
O8 O 0.2609(3) 0.4122(2) 0.1529(2) 0.0252 Uani
O9 O 0.3308(3) 0.2170(2) 0.3077(2) 0.0318 Uani
C1 C 0.6002(6) 0.1031(4) 0.5627(6) 0.0791 Uani
H1 H 0.6736 0.1777 0.6090 0.0800 Uiso
C2 C 0.3699(6) 0.0036(4) 0.3971(5) 0.0696 Uani
H2 H 0.2757 0.0047 0.3230 0.0800 Uiso
C3 C 0.4705(4) 0.1074(3) 0.4596(3) 0.0252 Uani
C4 C 0.4369(4) 0.2252(3) 0.4191(3) 0.0243 Uani
C5 C 0.8315(4) 0.4437(3) 0.5791(4) 0.0312 Uani
H3 H 0.8241 0.4030 0.4913 0.0800 Uiso
H4 H 0.7943 0.3834 0.6129 0.0800 Uiso
C6 C 0.9910(4) 0.4930(4) 0.6715(4) 0.0341 Uani
C7 C 0.9063(4) 0.7812(3) 0.5615(3) 0.0259 Uani
C8 C 0.9570(4) 0.8944(3) 0.5301(3) 0.0258 Uani
C9 C 0.9027(5) 0.9039(4) 0.3982(4) 0.0345 Uani
H7 H 0.8335 0.8358 0.3260 0.0800 Uiso
C13 C 0.3962(4) 0.4538(3) 0.1940(3) 0.0210 Uani
C14 C 0.4478(4) 0.4788(3) 0.0923(3) 0.0230 Uani
C15 C 0.5847(4) 0.5495(4) 0.1356(3) 0.0307 Uani
H13 H 0.6452 0.5840 0.2313 0.0800 Uiso
C21 C 0.6353(4) 0.5708(4) 0.0432(3) 0.0307 Uani
H18 H 0.7312 0.6217 0.0741 0.0800 Uiso
O17 O 0.2566(2) 0.4575(2) 0.4315(2) 0.0214 Uani
C29 C 0.1685(4) 0.5563(3) 0.4209(4) 0.0312 Uani
H21 H 0.1759 0.5970 0.5087 0.0800 Uiso
H22 H 0.2057 0.6166 0.3871 0.0800 Uiso
C30 C 0.0090(4) 0.5070(4) 0.3285(4) 0.0341 Uani
O19 O 0.0772(3) 0.1806(2) 0.0596(2) 0.0327 Uani
O21 O 0.4822(3) 0.6778(2) 0.5008(3) 0.0312 Uani
O22 O 0.5087(3) 0.5247(2) 0.6888(2) 0.0303 Uani
O23 O 0.7391(3) 0.5878(2) 0.8471(2) 0.0252 Uani
O24 O 0.6692(3) 0.7830(2) 0.6923(2) 0.0318 Uani
C16 C 0.3647(4) 0.4292(4) 0.9568(3) 0.0307 Uani
H14 H 0.2688 0.3783 0.9259 0.0800 Uiso
C22 C 0.5522(4) 0.5212(3) 0.9077(3) 0.0230 Uani
C23 C 0.6038(4) 0.5462(3) 0.8060(3) 0.0210 Uani
C24 C 0.4153(4) 0.4505(4) 0.8644(3) 0.0307 Uani
H17 H 0.3548 0.4160 0.7687 0.0800 Uiso
O20 O 0.0060(3) 0.3769(3) 0.9200(3) 0.0447 Uani
H28 H 0.0303 0.2247 0.8276 0.0800 Uiso
H30 H 0.105248 0.389985 0.995335 . .
C17 C 0.6301(6) 0.9964(4) 0.6029(5) 0.0696 Uani
H15 H 0.7243 0.9953 0.6770 0.0800 Uiso
C18 C 0.5295(4) 0.8926(3) 0.5404(3) 0.0252 Uani
C19 C 0.3998(6) 0.8969(4) 0.4373(6) 0.0791 Uani
H16 H 0.3264 0.8223 0.3910 0.0800 Uiso
C20 C 0.5631(4) 0.7748(3) 0.5809(3) 0.0243 Uani
H30_2 H 0.894752 0.610015 0.0046655 . .
C11 C 0.0557(5) 0.8287(4) 0.0584(4) 0.0479 Uani
H9 H 0.0818 0.9128 0.1131 0.0800 Uiso
H10 H 0.1357 0.8093 0.0328 0.0800 Uiso
C12 C 0.0389(9) 0.7454(8) 0.1366(7) 0.1043 Uani
H11 H 0.1336 0.7544 0.2122 0.0800 Uiso
H29 H 0.0653934 0.588289 0.0461661 . .
O4 O 0.0010(3) 0.5640(3) 0.7974(2) 0.0301 Uani
H5 H 0.0472 0.4251 0.6851 0.0800 Uiso
H6 H 0.0325 0.5444 0.6317 0.0800 Uiso
C10 C 0.0542(5) 0.9918(4) 0.6309(4) 0.0341 Uani
H8 H 0.0927 0.9862 0.7239 0.0800 Uiso
C25 C 0.9458(5) 0.0082(4) 0.3691(4) 0.0341 Uani
H20 H 0.9073 0.0138 0.2761 0.0800 Uiso
O18 O 0.9990(3) 0.4360(3) 0.2026(2) 0.0301 Uani
H23 H 0.9528 0.5749 0.3149 0.0800 Uiso
H24 H 0.9675 0.4556 0.3683 0.0800 Uiso
C31 C 0.9443(5) 0.1713(4) 0.9416(4) 0.0479 Uani
H25 H 0.9182 0.0872 0.8869 0.0800 Uiso
H26 H 0.8643 0.1907 0.9672 0.0800 Uiso
C32 C 0.9611(9) 0.2546(8) 0.8634(7) 0.1043 Uani
H27 H 0.8664 0.2456 0.7878 0.0800 Uiso
H29_2 H 0.934607 0.411711 0.953834 . .
loop_
_atom_site_aniso_label
_atom_site_aniso_U_11
_atom_site_aniso_U_22
_atom_site_aniso_U_33
_atom_site_aniso_U_23
_atom_site_aniso_U_13
_atom_site_aniso_U_12
C26 0.0313 0.0264 0.0249 0.0103 0.0158 -0.002
C27 0.0293 0.0266 0.0255 0.0112 0.0135 -0.0006
O15 0.0514 0.0276 0.0245 0.0078 0.0138 -0.012
O16 0.0396 0.0354 0.0244 0.0137 0.0103 -0.0109
C28 0.046 0.03 0.0228 0.0074 0.0109 -0.0101
Co8 0.0232 0.0212 0.0176 0.00905 0.00818 0.00014
O10 0.0441 0.0491 0.043 0.0249 0.0133 0.0113
Co1 0.0243 0.0129 0.0138 0.0055 0.008 0.0005
Co2 0.0232 0.0212 0.0176 0.00905 0.00818 0.00014
O1 0.0345 0.0139 0.0368 0.0098 0.005 0.0009
O2 0.0321 0.0424 0.0151 0.0078 0.0095 -0.0051
O3 0.0246 0.0202 0.0206 0.007 0.0098 0.0017
O5 0.0514 0.0276 0.0245 0.0078 0.0138 -0.012
O6 0.0396 0.0354 0.0244 0.0137 0.0103 -0.0109
O7 0.0326 0.033 0.0248 0.005 0.0062 -0.0015
O8 0.0235 0.0351 0.0221 0.0145 0.0115 0.0015
O9 0.0387 0.024 0.0256 0.0104 0.0039 0.0088
C1 0.064 0.023 0.084 0.026 -0.039 -0.02
C2 0.061 0.023 0.065 0.021 -0.037 -0.01
C3 0.0283 0.0152 0.0265 0.0077 0.0046 0.0027
C4 0.0282 0.0187 0.0282 0.0103 0.0118 0.0048
C5 0.0347 0.0258 0.039 0.0099 0.0202 0.0069
C6 0.033 0.04 0.038 0.0139 0.0209 0.0118
C7 0.0293 0.0266 0.0255 0.0112 0.0135 -0.0006
C8 0.0313 0.0264 0.0249 0.0103 0.0158 -0.002
C9 0.046 0.03 0.0228 0.0074 0.0109 -0.0101
C13 0.0277 0.0201 0.019 0.0071 0.0129 0.0006
C14 0.027 0.0263 0.0188 0.0078 0.0124 -0.0015
C15 0.0291 0.044 0.0143 0.0032 0.0082 -0.0106
C21 0.0272 0.042 0.0201 0.006 0.01 -0.0119
O17 0.0246 0.0202 0.0206 0.007 0.0098 0.0017
C29 0.0347 0.0258 0.039 0.0099 0.0202 0.0069
C30 0.033 0.04 0.038 0.0139 0.0209 0.0118
O19 0.0326 0.033 0.0248 0.005 0.0062 -0.0015
O21 0.0345 0.0139 0.0368 0.0098 0.005 0.0009
O22 0.0321 0.0424 0.0151 0.0078 0.0095 -0.0051
O23 0.0235 0.0351 0.0221 0.0145 0.0115 0.0015
O24 0.0387 0.024 0.0256 0.0104 0.0039 0.0088
C16 0.0272 0.042 0.0201 0.006 0.01 -0.0119
C22 0.027 0.0263 0.0188 0.0078 0.0124 -0.0015
C23 0.0277 0.0201 0.019 0.0071 0.0129 0.0006
C24 0.0291 0.044 0.0143 0.0032 0.0082 -0.0106
O20 0.0441 0.0491 0.043 0.0249 0.0133 0.0113
C17 0.061 0.023 0.065 0.021 -0.037 -0.01
C18 0.0283 0.0152 0.0265 0.0077 0.0046 0.0027
C19 0.064 0.023 0.084 0.026 -0.039 -0.02
C20 0.0282 0.0187 0.0282 0.0103 0.0118 0.0048
C11 0.036 0.05 0.039 0.0114 -0.0011 -0.0126
C12 0.108 0.093 0.055 0.037 -0.027 -0.033
O4 0.0278 0.0399 0.0277 0.0146 0.0132 0.0097
C10 0.047 0.03 0.0234 0.0109 0.0122 -0.0066
C25 0.047 0.03 0.0234 0.0109 0.0122 -0.0066
O18 0.0278 0.0399 0.0277 0.0146 0.0132 0.0097
C31 0.036 0.05 0.039 0.0114 -0.0011 -0.0126
C32 0.108 0.093 0.055 0.037 -0.027 -0.033
loop_
_geom_bond_atom_site_label_1
_geom_bond_atom_site_label_2
_geom_bond_site_symmetry_1
_geom_bond_site_symmetry_2
C27 C26 1_555 1_555
O15 C27 1_555 1_555
O16 C27 1_555 1_555
H19 C28 1_555 1_555
Co8 O16 1_555 1_555
C26 C28 1_555 1_555
Co1 O1 1_555 1_555
Co2 O3 1_555 1_555
O1 C4 1_555 1_555
O2 Co1 1_555 1_555
O3 Co1 1_555 1_555
O5 C7 1_555 1_555
O6 Co2 1_555 1_555
O7 Co2 1_555 1_555
O8 C13 1_555 1_555
O9 C4 1_555 1_555
C1 H1 1_555 1_555
C2 H2 1_555 1_555
C3 C1 1_555 1_555
C4 C3 1_555 1_555
C5 O3 1_555 1_555
H3 C5 1_555 1_555
H4 C5 1_555 1_555
C7 O6 1_555 1_555
C8 C7 1_555 1_555
C9 C8 1_555 1_555
H7 C9 1_555 1_555
C13 O2 1_555 1_555
C14 C13 1_555 1_555
C15 C14 1_555 1_555
H13 C15 1_555 1_555
C21 C15 1_555 1_555
H18 C21 1_555 1_555
O17 Co1 1_555 1_555
C29 O17 1_555 1_555
H21 C29 1_555 1_555
H22 C29 1_555 1_555
C30 C29 1_555 1_555
Co8 O8 1_555 1_555
O19 Co8 1_555 1_555
O21 Co1 1_555 1_555
O22 Co1 1_555 1_555
O23 Co2 1_555 1_555
O24 Co2 1_555 1_555
O9 Co8 1_555 1_555
C2 C3 1_555 1_555
C5 C6 1_555 1_555
O17 Co8 1_555 1_555
H14 C16 1_555 1_555
C23 C22 1_555 1_555
O22 C23 1_555 1_555
O23 C23 1_555 1_555
C24 C16 1_555 1_555
H17 C24 1_555 1_555
C22 C24 1_555 1_555
O20 H30 1_555 1_555
H15 C17 1_555 1_555
C18 C17 1_555 1_555
H16 C19 1_555 1_555
C20 C18 1_555 1_555
O21 C20 1_555 1_555
O24 C20 1_555 1_555
C18 C19 1_555 1_555
O10 H30_2 1_555 1_555
H9 C11 1_555 1_555
H10 C11 1_555 1_555
C12 C11 1_555 1_555
H11 C12 1_555 1_555
H8 C10 1_555 1_555
H20 C25 1_555 1_555
H25 C31 1_555 1_555
H26 C31 1_555 1_555
C32 C31 1_555 1_555
H27 C32 1_555 1_555

#END
