
###############################################################################
#
# This file contains modified crystal structure data generated from the
# MOF subset of the Cambridge Structural Database (CSD) v543 
# hosted by the Cambridge Crystallographic Data Centre (CCDC).
#
# This work is licensed under the Creative Commons
# Attribution-NonCommercial-ShareAlike 4.0 International License.
# To view a copy of this license, visit
# http://creativecommons.org/licenses/by-nc-sa/4.0/
# or send a letter to
# Creative Commons, PO Box 1866, Mountain View, CA 94042, USA.
#
# CIF created using the CSD Python API on 29 September 2022
# The structure has been converted into the P1 space group
# The structure has a 3D framework
# The original CSD entry ESEXAE is in the monoclinic crystal system
# The original CSD entry ESEXAE is in a Sohncke space group
# The framework has been calculated to contain at least 10.0% void space
# The void calculation uses a probe of radius 1.32A, grid spacing 0.4
#
###############################################################################

data_ESEXAE
_chemical_formula_moiety         '(C104 H80 La4 O35)n'
_symmetry_cell_setting           triclinic
_symmetry_space_group_name_H-M   'P 1'
_symmetry_Int_Tables_number      1
_space_group_name_Hall           'P 1'
loop_
_symmetry_equiv_pos_site_id
_symmetry_equiv_pos_as_xyz
1 x,y,z
_cell_length_a                   33.136(6)
_cell_length_b                   7.3933(12)
_cell_length_c                   14.349(2)
_cell_angle_alpha                90
_cell_angle_beta                 104.510(3)
_cell_angle_gamma                90
_cell_volume                     3403.16
loop_
_atom_site_label
_atom_site_type_symbol
_atom_site_fract_x
_atom_site_fract_y
_atom_site_fract_z
O20 O 0.30365(15) 0.5272(7) 0.0420(4)
O24 O 0.32879(14) 0.2634(15) 0.0215(4)
O27 O 0.26743(15) 0.0742(7) 0.1161(3)
O30 O 0.22004(16) 0.4404(7) 0.0717(4)
La1 La 0.74934(2) 0.25646(8) 0.03626(2)
O8 O 0.7212(2) 0.1609(9) 0.1740(4)
C19 C 0.7091(2) 0.0071(12) 0.1432(6)
H19 H 0.668536 0.107249 0.268247
O17 O 0.2788(2) 0.1609(9) 0.8260(4)
C45 C 0.2909(2) 0.0071(12) 0.8568(6)
H39 H 0.331464 0.107249 0.731753
La2 La 0.25066(2) 0.25646(8) 0.96374(2)
O22 O 0.80365(15) 0.0272(7) 0.0420(4)
O23 O 0.19635(15) 0.0272(7) 0.9580(4)
O28 O 0.23257(15) 0.5742(7) 0.8839(3)
O29 O 0.76743(15) 0.5742(7) 0.1161(3)
O32 O 0.19519(17) 0.3444(7) 0.8149(4)
O33 O 0.80481(17) 0.3444(7) 0.1851(4)
O21 O 0.69635(15) 0.5272(7) 0.9580(4)
O25 O 0.67121(14) 0.2634(15) 0.9785(4)
O26 O 0.73257(15) 0.0742(7) 0.8839(3)
O31 O 0.77996(16) 0.4404(7) 0.9283(4)
La7 La 0.24934(2) 0.75646(8) 0.03626(2)
O4 O 0.49252(15) 0.6247(8) 0.2770(4)
O5 O 0.60730(17) 0.4805(8) 0.5417(4)
O6 O 0.500000 0.5785(11) 0.500000
O7 O 0.60193(18) 0.6106(9) 0.3152(4)
O9 O 0.72004(16) 0.9404(7) 0.0717(4)
C1 C 0.3342(2) 0.4188(11) 0.0530(5)
C2 C 0.3765(2) 0.4752(11) 0.1098(5)
C3 C 0.3857(2) 0.6521(11) 0.1372(6)
H1 H 0.365231 0.740291 0.118671
C4 C 0.4252(2) 0.7013(11) 0.1923(6)
H2 H 0.431406 0.820804 0.210505
C5 C 0.4543(2) 0.5677(12) 0.2187(5)
C6 C 0.4463(2) 0.3928(12) 0.1906(6)
H3 H 0.467112 0.305704 0.207053
C7 C 0.4069(2) 0.3463(12) 0.1372(6)
H4 H 0.400908 0.226259 0.119806
C8 C 0.7031(2) 0.0082(11) 0.8174(5)
C9 C 0.6789(3) 0.1299(13) 0.7425(7)
C10 C 0.6864(3) 0.3150(11) 0.7427(7)
H5 H 0.708356 0.362615 0.789790
C11 C 0.6625(3) 0.4301(12) 0.6761(7)
H6 H 0.668356 0.553272 0.677704
C12 C 0.6291(3) 0.3576(17) 0.6053(7)
C13 C 0.6209(4) 0.1750(18) 0.6046(9)
H7 H 0.598897 0.126832 0.557727
C14 C 0.6448(3) 0.0648(16) 0.6721(8)
C15 C 0.5745(2) 0.4129(11) 0.4665(5)
H9 H 0.555337 0.342463 0.492951
H10 H 0.585697 0.335435 0.424424
C16 C 0.5521(2) 0.5738(11) 0.4105(5)
C17 C 0.5296(2) 0.6836(11) 0.4704(6)
H11 H 0.549611 0.730482 0.526535
H12 H 0.515867 0.785568 0.433037
C18 C 0.5812(2) 0.7018(11) 0.3771(5)
H13 H 0.565462 0.802908 0.343184
H14 H 0.601630 0.748944 0.432461
C20 C 0.5197(2) 0.4862(11) 0.3249(6)
H15 H 0.533779 0.429886 0.280833
H16 H 0.503891 0.394097 0.348525
C21 C 0.6366(3) 0.8913(15) 0.2983(7)
H17 H 0.624821 0.949015 0.342628
C22 C 0.6467(3) 0.6280(14) 0.2129(7)
H18 H 0.641271 0.506095 0.199255
C23 C 0.6633(3) 0.9853(14) 0.2546(7)
C24 C 0.6821(3) 0.8993(13) 0.1910(6)
C25 C 0.6280(3) 0.7134(13) 0.2757(7)
C26 C 0.6731(3) 0.7183(14) 0.1699(7)
H20 H 0.685103 0.658546 0.126451
O14 O 0.50748(15) 0.6247(8) 0.7230(4)
O15 O 0.39270(17) 0.4805(8) 0.4583(4)
O16 O 0.39807(18) 0.6106(9) 0.6848(4)
O18 O 0.27996(16) 0.9404(7) 0.9283(4)
C27 C 0.6658(2) 0.4188(11) 0.9470(5)
C28 C 0.6235(2) 0.4752(11) 0.8902(5)
C29 C 0.6143(2) 0.6521(11) 0.8628(6)
H21 H 0.634769 0.740291 0.881329
C30 C 0.5748(2) 0.7013(11) 0.8077(6)
H22 H 0.568594 0.820804 0.789495
C31 C 0.5457(2) 0.5677(12) 0.7813(5)
C32 C 0.5537(2) 0.3928(12) 0.8094(6)
H23 H 0.532888 0.305704 0.792947
C33 C 0.5931(2) 0.3463(12) 0.8628(6)
H24 H 0.599092 0.226259 0.880194
C34 C 0.2969(2) 0.0082(11) 0.1826(5)
C35 C 0.3211(3) 0.1299(13) 0.2575(7)
C36 C 0.3136(3) 0.3150(11) 0.2573(7)
H25 H 0.291644 0.362615 0.210210
C37 C 0.3375(3) 0.4301(12) 0.3239(7)
H26 H 0.331644 0.553272 0.322296
C38 C 0.3709(3) 0.3576(17) 0.3947(7)
C39 C 0.3791(4) 0.1750(18) 0.3954(9)
H27 H 0.401103 0.126832 0.442273
C40 C 0.3552(3) 0.0648(16) 0.3279(8)
C41 C 0.4255(2) 0.4129(11) 0.5335(5)
H29 H 0.444663 0.342463 0.507049
H30 H 0.414303 0.335435 0.575576
C42 C 0.4479(2) 0.5738(11) 0.5895(5)
C43 C 0.4704(2) 0.6836(11) 0.5296(6)
H31 H 0.450389 0.730482 0.473465
H32 H 0.484133 0.785568 0.566963
C44 C 0.4188(2) 0.7018(11) 0.6229(5)
H33 H 0.434538 0.802908 0.656816
H34 H 0.398370 0.748944 0.567539
C46 C 0.4803(2) 0.4862(11) 0.6751(6)
H35 H 0.466221 0.429886 0.719167
H36 H 0.496109 0.394097 0.651475
C47 C 0.3634(3) 0.8913(15) 0.7017(7)
H37 H 0.375179 0.949015 0.657372
C48 C 0.3533(3) 0.6280(14) 0.7871(7)
H38 H 0.358729 0.506095 0.800745
C49 C 0.3367(3) 0.9853(14) 0.7454(7)
C50 C 0.3179(3) 0.8993(13) 0.8090(6)
C51 C 0.3720(3) 0.7134(13) 0.7243(7)
C52 C 0.3269(3) 0.7183(14) 0.8301(7)
H40 H 0.314897 0.658546 0.873549
La10 La 0.75066(2) 0.75646(8) 0.96374(2)
O10 O 0.69519(17) 0.8444(7) 0.8149(4)
H8 H 0.638317 0.942328 0.671488
O19 O 0.30481(17) 0.8444(7) 0.1851(4)
H28 H 0.361683 0.942328 0.328512
O6_2 O -0.000000 0.0785(11) 0.500000
O7_2 O 0.10193(18) 0.1106(9) 0.3152(4)
O8_2 O 0.2212(2) 0.6609(9) 0.1740(4)
H6_2 H 0.168356 0.053272 0.677704
C16_2 C 0.0521(2) 0.0738(11) 0.4105(5)
C17_2 C 0.0296(2) 0.1836(11) 0.4704(6)
H11_2 H 0.049611 0.230482 0.526535
H12_2 H 0.015867 0.285568 0.433037
C18_2 C 0.0812(2) 0.2018(11) 0.3771(5)
H13_2 H 0.065462 0.302908 0.343184
H14_2 H 0.101630 0.248944 0.432461
C19_2 C 0.2091(2) 0.5071(12) 0.1432(6)
C21_2 C 0.1366(3) 0.3913(15) 0.2983(7)
H17_2 H 0.124821 0.449015 0.342628
C22_2 C 0.1467(3) 0.1280(14) 0.2129(7)
H18_2 H 0.141271 0.006095 0.199255
C23_2 C 0.1633(3) 0.4853(14) 0.2546(7)
H19_2 H 0.168536 0.607249 0.268247
C24_2 C 0.1821(3) 0.3993(13) 0.1910(6)
C25_2 C 0.1280(3) 0.2134(13) 0.2757(7)
C26_2 C 0.1731(3) 0.2183(14) 0.1699(7)
H20_2 H 0.185103 0.158546 0.126451
O14_2 O 0.00748(15) 0.1247(8) 0.7230(4)
C29_2 C 0.1143(2) 0.1521(11) 0.8628(6)
H21_2 H 0.134769 0.240291 0.881329
C30_2 C 0.0748(2) 0.2013(11) 0.8077(6)
H22_2 H 0.068594 0.320804 0.789495
C31_2 C 0.0457(2) 0.0677(12) 0.7813(5)
O25_2 O 0.17121(14) 0.7634(15) 0.9785(4)
O5_2 O 0.10730(17) 0.9805(8) 0.5417(4)
C8_2 C 0.2031(2) 0.5082(11) 0.8174(5)
C9_2 C 0.1789(3) 0.6299(13) 0.7425(7)
C10_2 C 0.1864(3) 0.8150(11) 0.7427(7)
H5_2 H 0.208356 0.862615 0.789790
C11_2 C 0.1625(3) 0.9301(12) 0.6761(7)
C12_2 C 0.1291(3) 0.8576(17) 0.6053(7)
C13_2 C 0.1209(4) 0.6750(18) 0.6046(9)
H7_2 H 0.098897 0.626832 0.557727
C14_2 C 0.1448(3) 0.5648(16) 0.6721(8)
H8_2 H 0.138317 0.442328 0.671488
C15_2 C 0.0745(2) 0.9129(11) 0.4665(5)
H9_2 H 0.055337 0.842463 0.492951
H10_2 H 0.085697 0.835435 0.424424
C20_2 C 0.0197(2) 0.9862(11) 0.3249(6)
H15_2 H 0.033779 0.929886 0.280833
H16_2 H 0.003891 0.894097 0.348525
C27_2 C 0.1658(2) 0.9188(11) 0.9470(5)
C28_2 C 0.1235(2) 0.9752(11) 0.8902(5)
C32_2 C 0.0537(2) 0.8928(12) 0.8094(6)
H23_2 H 0.032888 0.805704 0.792947
C33_2 C 0.0931(2) 0.8463(12) 0.8628(6)
H24_2 H 0.099092 0.726259 0.880194
O24_2 O 0.82879(14) 0.7634(15) 0.0215(4)
O4_2 O 0.99252(15) 0.1247(8) 0.2770(4)
O6_3 O 1.000000 0.0785(11) 0.500000
C3_2 C 0.8857(2) 0.1521(11) 0.1372(6)
H1_2 H 0.865231 0.240291 0.118671
C4_2 C 0.9252(2) 0.2013(11) 0.1923(6)
H2_2 H 0.931406 0.320804 0.210505
C5_2 C 0.9543(2) 0.0677(12) 0.2187(5)
O16_2 O 0.89807(18) 0.1106(9) 0.6848(4)
O17_2 O 0.7788(2) 0.6609(9) 0.8260(4)
H26_2 H 0.831644 0.053272 0.322296
C42_2 C 0.9479(2) 0.0738(11) 0.5895(5)
C43_2 C 0.9704(2) 0.1836(11) 0.5296(6)
H31_2 H 0.950389 0.230482 0.473465
H32_2 H 0.984133 0.285568 0.566963
C44_2 C 0.9188(2) 0.2018(11) 0.6229(5)
H33_2 H 0.934538 0.302908 0.656816
H34_2 H 0.898370 0.248944 0.567539
C45_2 C 0.7909(2) 0.5071(12) 0.8568(6)
C47_2 C 0.8634(3) 0.3913(15) 0.7017(7)
H37_2 H 0.875179 0.449015 0.657372
C48_2 C 0.8533(3) 0.1280(14) 0.7871(7)
H38_2 H 0.858729 0.006095 0.800745
C49_2 C 0.8367(3) 0.4853(14) 0.7454(7)
H39_2 H 0.831464 0.607249 0.731753
C50_2 C 0.8179(3) 0.3993(13) 0.8090(6)
C51_2 C 0.8720(3) 0.2134(13) 0.7243(7)
C52_2 C 0.8269(3) 0.2183(14) 0.8301(7)
H40_2 H 0.814897 0.158546 0.873549
C1_2 C 0.8342(2) 0.9188(11) 0.0530(5)
C2_2 C 0.8765(2) 0.9752(11) 0.1098(5)
C6_2 C 0.9463(2) 0.8928(12) 0.1906(6)
H3_2 H 0.967112 0.805704 0.207053
C7_2 C 0.9069(2) 0.8463(12) 0.1372(6)
H4_2 H 0.900908 0.726259 0.119806
O15_2 O 0.89270(17) 0.9805(8) 0.4583(4)
C34_2 C 0.7969(2) 0.5082(11) 0.1826(5)
C35_2 C 0.8211(3) 0.6299(13) 0.2575(7)
C36_2 C 0.8136(3) 0.8150(11) 0.2573(7)
H25_2 H 0.791644 0.862615 0.210210
C37_2 C 0.8375(3) 0.9301(12) 0.3239(7)
C38_2 C 0.8709(3) 0.8576(17) 0.3947(7)
C39_2 C 0.8791(4) 0.6750(18) 0.3954(9)
H27_2 H 0.901103 0.626832 0.442273
C40_2 C 0.8552(3) 0.5648(16) 0.3279(8)
H28_2 H 0.861683 0.442328 0.328512
C41_2 C 0.9255(2) 0.9129(11) 0.5335(5)
H29_2 H 0.944663 0.842463 0.507049
H30_2 H 0.914303 0.835435 0.575576
C46_2 C 0.9803(2) 0.9862(11) 0.6751(6)
H35_2 H 0.966221 0.929886 0.719167
H36_2 H 0.996109 0.894097 0.651475
loop_
_geom_bond_atom_site_label_1
_geom_bond_atom_site_label_2
_geom_bond_site_symmetry_1
_geom_bond_site_symmetry_2
La1 O8 1_555 1_555
O8 C19 1_555 1_555
O17 C45 1_555 1_555
La2 O17 1_555 1_555
O22 La1 1_555 1_555
O23 La2 1_555 1_555
O28 La2 1_555 1_555
O29 La1 1_555 1_555
O32 La2 1_555 1_555
O33 La1 1_555 1_555
O20 C1 1_555 1_555
O24 C1 1_555 1_555
O26 C8 1_555 1_555
O4 C5 1_555 1_555
O5 C12 1_555 1_555
O6 C17 1_555 1_555
O7 C18 1_555 1_555
C1 C2 1_555 1_555
C2 C3 1_555 1_555
C3 H1 1_555 1_555
C4 C3 1_555 1_555
H2 C4 1_555 1_555
C5 C4 1_555 1_555
C6 C5 1_555 1_555
H3 C6 1_555 1_555
C7 C2 1_555 1_555
H4 C7 1_555 1_555
C8 C9 1_555 1_555
C9 C10 1_555 1_555
C10 H5 1_555 1_555
C11 C10 1_555 1_555
H6 C11 1_555 1_555
C12 C11 1_555 1_555
C13 C12 1_555 1_555
H7 C13 1_555 1_555
C14 C9 1_555 1_555
C15 O5 1_555 1_555
H9 C15 1_555 1_555
H10 C15 1_555 1_555
C16 C15 1_555 1_555
C17 C16 1_555 1_555
H11 C17 1_555 1_555
H12 C17 1_555 1_555
C18 C16 1_555 1_555
H13 C18 1_555 1_555
H14 C18 1_555 1_555
C20 O4 1_555 1_555
H15 C20 1_555 1_555
H16 C20 1_555 1_555
C21 H17 1_555 1_555
C22 H18 1_555 1_555
C23 C21 1_555 1_555
C25 O7 1_555 1_555
C26 C22 1_555 1_555
H20 C26 1_555 1_555
O21 C27 1_555 1_555
O25 C27 1_555 1_555
O27 C34 1_555 1_555
O14 C31 1_555 1_555
O15 C38 1_555 1_555
O16 C44 1_555 1_555
C27 C28 1_555 1_555
C28 C29 1_555 1_555
C29 H21 1_555 1_555
C30 C29 1_555 1_555
H22 C30 1_555 1_555
C31 C30 1_555 1_555
C32 C31 1_555 1_555
H23 C32 1_555 1_555
C33 C28 1_555 1_555
H24 C33 1_555 1_555
C34 C35 1_555 1_555
C35 C36 1_555 1_555
C36 H25 1_555 1_555
C37 C36 1_555 1_555
H26 C37 1_555 1_555
C38 C37 1_555 1_555
C39 C38 1_555 1_555
H27 C39 1_555 1_555
C40 C35 1_555 1_555
C41 O15 1_555 1_555
H29 C41 1_555 1_555
H30 C41 1_555 1_555
C42 C41 1_555 1_555
C43 O6 1_555 1_555
H31 C43 1_555 1_555
H32 C43 1_555 1_555
C44 C42 1_555 1_555
H33 C44 1_555 1_555
H34 C44 1_555 1_555
C46 O14 1_555 1_555
H35 C46 1_555 1_555
H36 C46 1_555 1_555
C47 H37 1_555 1_555
C48 H38 1_555 1_555
C49 C47 1_555 1_555
C50 C49 1_555 1_555
C51 O16 1_555 1_555
C52 C48 1_555 1_555
H40 C52 1_555 1_555
La7 O20 1_555 1_555
La10 O21 1_555 1_555
C6 C7 1_555 1_555
C13 C14 1_555 1_555
C16 C20 1_555 1_555
C21 C25 1_555 1_555
C22 C25 1_555 1_555
C23 C24 1_555 1_555
C24 C26 1_555 1_555
C32 C33 1_555 1_555
C39 C40 1_555 1_555
C42 C43 1_555 1_555
C42 C46 1_555 1_555
C47 C51 1_555 1_555
C48 C51 1_555 1_555
C50 C52 1_555 1_555
O10 La10 1_555 1_555
O19 La7 1_555 1_555
La7 O8_2 1_555 1_555
O6_2 C17_2 1_555 1_555
O7_2 C18_2 1_555 1_555
O8_2 C19_2 1_555 1_555
O30 La7 1_555 1_555
C17_2 C16_2 1_555 1_555
H11_2 C17_2 1_555 1_555
H12_2 C17_2 1_555 1_555
C18_2 C16_2 1_555 1_555
H13_2 C18_2 1_555 1_555
H14_2 C18_2 1_555 1_555
C19_2 O30 1_555 1_555
C21_2 H17_2 1_555 1_555
C22_2 H18_2 1_555 1_555
C23_2 C21_2 1_555 1_555
H19_2 C23_2 1_555 1_555
C24_2 C19_2 1_555 1_555
C25_2 O7_2 1_555 1_555
C26_2 C22_2 1_555 1_555
H20_2 C26_2 1_555 1_555
O14_2 C31_2 1_555 1_555
C29_2 H21_2 1_555 1_555
C30_2 C29_2 1_555 1_555
H22_2 C30_2 1_555 1_555
C31_2 C30_2 1_555 1_555
C21_2 C25_2 1_555 1_555
C22_2 C25_2 1_555 1_555
C23_2 C24_2 1_555 1_555
C24_2 C26_2 1_555 1_555
O28 C8_2 1_555 1_555
O5_2 C12_2 1_555 1_555
O32 C8_2 1_555 1_555
C8_2 C9_2 1_555 1_555
C9_2 C10_2 1_555 1_555
C10_2 H5_2 1_555 1_555
C11_2 C10_2 1_555 1_555
C12_2 C11_2 1_555 1_555
C13_2 C12_2 1_555 1_555
H7_2 C13_2 1_555 1_555
C14_2 C9_2 1_555 1_555
H8_2 C14_2 1_555 1_555
C15_2 O5_2 1_555 1_555
H9_2 C15_2 1_555 1_555
H10_2 C15_2 1_555 1_555
H15_2 C20_2 1_555 1_555
H16_2 C20_2 1_555 1_555
O25_2 C27_2 1_555 1_555
C27_2 C28_2 1_555 1_555
H23_2 C32_2 1_555 1_555
C33_2 C28_2 1_555 1_555
H24_2 C33_2 1_555 1_555
C13_2 C14_2 1_555 1_555
C32_2 C33_2 1_555 1_555
O4_2 C5_2 1_555 1_555
C3_2 H1_2 1_555 1_555
C4_2 C3_2 1_555 1_555
H2_2 C4_2 1_555 1_555
C5_2 C4_2 1_555 1_555
O16_2 C44_2 1_555 1_555
O17_2 C45_2 1_555 1_555
O31 C45_2 1_555 1_555
C43_2 O6_3 1_555 1_555
H31_2 C43_2 1_555 1_555
H32_2 C43_2 1_555 1_555
C44_2 C42_2 1_555 1_555
H33_2 C44_2 1_555 1_555
H34_2 C44_2 1_555 1_555
C45_2 C50_2 1_555 1_555
C47_2 H37_2 1_555 1_555
C48_2 H38_2 1_555 1_555
C49_2 C47_2 1_555 1_555
H39_2 C49_2 1_555 1_555
C50_2 C49_2 1_555 1_555
C51_2 O16_2 1_555 1_555
C52_2 C48_2 1_555 1_555
H40_2 C52_2 1_555 1_555
La10 O17_2 1_555 1_555
O31 La10 1_555 1_555
C42_2 C43_2 1_555 1_555
C47_2 C51_2 1_555 1_555
C48_2 C51_2 1_555 1_555
C50_2 C52_2 1_555 1_555
O24_2 C1_2 1_555 1_555
C1_2 C2_2 1_555 1_555
H3_2 C6_2 1_555 1_555
C7_2 C2_2 1_555 1_555
H4_2 C7_2 1_555 1_555
O29 C34_2 1_555 1_555
O15_2 C38_2 1_555 1_555
O33 C34_2 1_555 1_555
C34_2 C35_2 1_555 1_555
C35_2 C36_2 1_555 1_555
C36_2 H25_2 1_555 1_555
C37_2 C36_2 1_555 1_555
C38_2 C37_2 1_555 1_555
C39_2 C38_2 1_555 1_555
H27_2 C39_2 1_555 1_555
C40_2 C35_2 1_555 1_555
H28_2 C40_2 1_555 1_555
C41_2 O15_2 1_555 1_555
H29_2 C41_2 1_555 1_555
H30_2 C41_2 1_555 1_555
H35_2 C46_2 1_555 1_555
H36_2 C46_2 1_555 1_555
C6_2 C7_2 1_555 1_555
C39_2 C40_2 1_555 1_555

#END
