
###############################################################################
#
# This file contains modified crystal structure data generated from the
# MOF subset of the Cambridge Structural Database (CSD) v543 
# hosted by the Cambridge Crystallographic Data Centre (CCDC).
#
# This work is licensed under the Creative Commons
# Attribution-NonCommercial-ShareAlike 4.0 International License.
# To view a copy of this license, visit
# http://creativecommons.org/licenses/by-nc-sa/4.0/
# or send a letter to
# Creative Commons, PO Box 1866, Mountain View, CA 94042, USA.
#
# CIF created using the CSD Python API on 29 September 2022
# The structure has been converted into the P1 space group
# The structure has a 3D framework
# The original CSD entry ESEXEI is in the monoclinic crystal system
# The original CSD entry ESEXEI is in a Sohncke space group
# The framework has been calculated to contain at least 10.0% void space
# The void calculation uses a probe of radius 1.32A, grid spacing 0.4
#
###############################################################################

data_ESEXEI
_chemical_formula_moiety         '(C104 H80 O37 Tb4)n'
_symmetry_cell_setting           triclinic
_symmetry_space_group_name_H-M   'P 1'
_symmetry_Int_Tables_number      1
_space_group_name_Hall           'P 1'
loop_
_symmetry_equiv_pos_site_id
_symmetry_equiv_pos_as_xyz
1 x,y,z
_cell_length_a                   32.6663(15)
_cell_length_b                   7.0665(3)
_cell_length_c                   14.5262(7)
_cell_angle_alpha                90
_cell_angle_beta                 104.3980(10)
_cell_angle_gamma                90
_cell_volume                     3247.86
loop_
_atom_site_label
_atom_site_type_symbol
_atom_site_fract_x
_atom_site_fract_y
_atom_site_fract_z
O10 O 0.71663(18) 0.1953(7) 0.1566(4)
C21 C 0.7079(2) 0.0261(10) 0.1340(5)
C24 C 0.6637(3) 0.0041(13) 0.2493(6)
H19 H 0.669470 0.131731 0.261989
O19 O 0.28337(18) 0.1953(7) 0.8434(4)
C47 C 0.2921(2) 0.0261(10) 0.8660(5)
C50 C 0.3363(3) 0.0041(13) 0.7507(6)
H39 H 0.330530 0.131731 0.738011
Tb8 Tb 0.25135(2) 0.26115(7) 0.96952(2)
Tb10 Tb 0.74865(2) 0.26115(7) 0.03048(2)
Tb6 Tb 0.24865(2) 0.76115(7) 0.03048(2)
O30 O 0.80317(14) 0.0400(7) 0.0406(3)
O1 O 0.32670(12) 0.2576(15) 0.0342(3)
C1 C 0.6231(4) 0.1668(17) 0.6111(8)
H1 H 0.601033 0.114204 0.565037
O2 O 0.60912(16) 0.4860(7) 0.5450(3)
O3 O 0.49316(15) 0.6342(7) 0.2802(4)
C2 C 0.6904(3) 0.3204(10) 0.7441(6)
H2 H 0.713140 0.371958 0.788587
C3 C 0.6818(3) 0.1282(12) 0.7467(6)
C4 C 0.6652(3) 0.4360(11) 0.6758(6)
H3 H 0.670809 0.564921 0.675178
C5 C 0.6471(3) 0.0549(14) 0.6812(7)
C6 C 0.5210(2) 0.4876(10) 0.3294(5)
H5 H 0.535397 0.427325 0.286402
H6 H 0.504791 0.392085 0.352908
C7 C 0.55315(19) 0.5781(9) 0.4123(4)
C8 C 0.5764(2) 0.4119(10) 0.4701(4)
H7 H 0.556965 0.337604 0.495924
H8 H 0.588400 0.330647 0.429640
C9 C 0.4265(2) 0.7147(10) 0.1929(5)
H9 H 0.433366 0.840242 0.208812
C10 C 0.4462(2) 0.3896(11) 0.1996(5)
H10 H 0.466222 0.294931 0.219501
C11 C 0.4559(2) 0.5745(10) 0.2242(5)
O4 O 0.73613(13) 0.0754(6) 0.8894(3)
O5 O 0.72080(15) 0.9493(7) 0.0665(3)
O6 O 0.500000 0.5864(10) 0.500000
C12 C 0.7063(2) 0.0063(10) 0.8234(4)
C13 C 0.3762(2) 0.4814(10) 0.1136(5)
C14 C 0.4062(2) 0.3453(11) 0.1446(5)
H11 H 0.399679 0.219684 0.128376
C15 C 0.3863(2) 0.6681(10) 0.1371(5)
H12 H 0.366407 0.762771 0.115851
O8 O 0.30317(14) 0.5400(7) 0.0406(3)
O9 O 0.60375(16) 0.6166(7) 0.3181(4)
C16 C 0.6296(2) 0.7220(13) 0.2777(6)
C17 C 0.6732(3) 0.7214(14) 0.1679(6)
H13 H 0.685028 0.656475 0.125192
C18 C 0.5302(2) 0.6967(10) 0.4716(5)
H14 H 0.550395 0.745373 0.527235
H15 H 0.516490 0.803502 0.434485
C19 C 0.6318(3) 0.3599(16) 0.6090(7)
C20 C 0.5829(2) 0.7133(10) 0.3788(5)
H16 H 0.566931 0.818698 0.344987
H17 H 0.603611 0.763062 0.433211
C22 C 0.6479(3) 0.6278(12) 0.2157(6)
H18 H 0.643074 0.498777 0.205746
C23 C 0.6811(2) 0.9159(12) 0.1839(5)
C25 C 0.6380(3) 0.9105(14) 0.2970(7)
H20 H 0.626687 0.973656 0.341160
C26 C 0.3330(2) 0.4218(11) 0.0589(5)
O11 O 0.67330(12) 0.2576(15) 0.9658(3)
C27 C 0.3769(4) 0.1668(17) 0.3889(8)
H21 H 0.398967 0.114204 0.434963
O12 O 0.39088(16) 0.4860(7) 0.4550(3)
O13 O 0.50684(15) 0.6342(7) 0.7198(4)
C28 C 0.3096(3) 0.3204(10) 0.2559(6)
H22 H 0.286860 0.371958 0.211413
C29 C 0.3182(3) 0.1282(12) 0.2533(6)
C30 C 0.3348(3) 0.4360(11) 0.3242(6)
H23 H 0.329191 0.564921 0.324822
C31 C 0.3529(3) 0.0549(14) 0.3188(7)
C32 C 0.4790(2) 0.4876(10) 0.6706(5)
H25 H 0.464603 0.427325 0.713598
H26 H 0.495209 0.392085 0.647092
C33 C 0.44685(19) 0.5781(9) 0.5877(4)
C34 C 0.4236(2) 0.4119(10) 0.5299(4)
H27 H 0.443035 0.337604 0.504076
H28 H 0.411600 0.330647 0.570360
C35 C 0.5735(2) 0.7147(10) 0.8071(5)
H29 H 0.566634 0.840242 0.791188
C36 C 0.5538(2) 0.3896(11) 0.8004(5)
H30 H 0.533778 0.294931 0.780499
C37 C 0.5441(2) 0.5745(10) 0.7758(5)
O14 O 0.26387(13) 0.0754(6) 0.1106(3)
O15 O 0.27920(15) 0.9493(7) 0.9335(3)
C38 C 0.2937(2) 0.0063(10) 0.1766(4)
C39 C 0.6238(2) 0.4814(10) 0.8864(5)
C40 C 0.5938(2) 0.3453(11) 0.8554(5)
H31 H 0.600321 0.219684 0.871624
C41 C 0.6137(2) 0.6681(10) 0.8629(5)
H32 H 0.633593 0.762771 0.884149
O17 O 0.69683(14) 0.5400(7) 0.9594(3)
O18 O 0.39625(16) 0.6166(7) 0.6819(4)
C42 C 0.3704(2) 0.7220(13) 0.7223(6)
C43 C 0.3268(3) 0.7214(14) 0.8321(6)
H33 H 0.314972 0.656475 0.874808
C44 C 0.4698(2) 0.6967(10) 0.5284(5)
H34 H 0.449605 0.745373 0.472765
H35 H 0.483510 0.803502 0.565515
C45 C 0.3682(3) 0.3599(16) 0.3910(7)
C46 C 0.4171(2) 0.7133(10) 0.6212(5)
H36 H 0.433069 0.818698 0.655013
H37 H 0.396389 0.763062 0.566789
C48 C 0.3521(3) 0.6278(12) 0.7843(6)
H38 H 0.356926 0.498777 0.794254
C49 C 0.3189(2) 0.9159(12) 0.8161(5)
C51 C 0.3620(3) 0.9105(14) 0.7030(7)
H40 H 0.373313 0.973656 0.658840
C52 C 0.6670(2) 0.4218(11) 0.9411(5)
Tb4 Tb 0.75135(2) 0.76115(7) 0.96952(2)
O31 O 0.19683(14) 0.0400(7) 0.9594(3)
O20 O 0.82670(12) 0.7576(15) 0.0342(3)
O23 O 0.76387(13) 0.5754(6) 0.1106(3)
H4 H 0.639953 0.928162 0.684825
O7 O 0.69875(16) 0.8334(6) 0.8243(3)
H24 H 0.360047 0.928162 0.315175
O16 O 0.30125(16) 0.8334(6) 0.1757(3)
O26 O 0.22080(15) 0.4493(7) 0.0665(3)
O27 O 0.77920(15) 0.4493(7) 0.9335(3)
O32 O 0.21663(18) 0.6953(7) 0.1566(4)
O33 O 0.78337(18) 0.6953(7) 0.8434(4)
O21 O 0.17330(12) 0.7576(15) 0.9658(3)
O22 O 0.23613(13) 0.5754(6) 0.8894(3)
H3_2 H 0.170809 0.064921 0.675178
C7_2 C 0.05315(19) 0.0781(9) 0.4123(4)
O6_2 O -0.000000 0.0864(10) 0.500000
O9_2 O 0.10375(16) 0.1166(7) 0.3181(4)
C16_2 C 0.1296(2) 0.2220(13) 0.2777(6)
C17_2 C 0.1732(3) 0.2214(14) 0.1679(6)
H13_2 H 0.185028 0.156475 0.125192
C18_2 C 0.0302(2) 0.1967(10) 0.4716(5)
H14_2 H 0.050395 0.245373 0.527235
H15_2 H 0.016490 0.303502 0.434485
C20_2 C 0.0829(2) 0.2133(10) 0.3788(5)
H16_2 H 0.066931 0.318698 0.344987
H17_2 H 0.103611 0.263062 0.433211
C21_2 C 0.2079(2) 0.5261(10) 0.1340(5)
C22_2 C 0.1479(3) 0.1278(12) 0.2157(6)
C23_2 C 0.1811(2) 0.4159(12) 0.1839(5)
C24_2 C 0.1637(3) 0.5041(13) 0.2493(6)
H19_2 H 0.169470 0.631731 0.261989
C25_2 C 0.1380(3) 0.4105(14) 0.2970(7)
H20_2 H 0.126687 0.473656 0.341160
O13_2 O 0.00684(15) 0.1342(7) 0.7198(4)
C35_2 C 0.0735(2) 0.2147(10) 0.8071(5)
H29_2 H 0.066634 0.340242 0.791188
C37_2 C 0.0441(2) 0.0745(10) 0.7758(5)
C41_2 C 0.1137(2) 0.1681(10) 0.8629(5)
H32_2 H 0.133593 0.262771 0.884149
C1_2 C 0.1231(4) 0.6668(17) 0.6111(8)
H1_2 H 0.101033 0.614204 0.565037
O2_2 O 0.10912(16) 0.9860(7) 0.5450(3)
C2_2 C 0.1904(3) 0.8204(10) 0.7441(6)
H2_2 H 0.213140 0.871958 0.788587
C3_2 C 0.1818(3) 0.6282(12) 0.7467(6)
C4_2 C 0.1652(3) 0.9360(11) 0.6758(6)
C5_2 C 0.1471(3) 0.5549(14) 0.6812(7)
H4_2 H 0.139953 0.428162 0.684825
C6_2 C 0.0210(2) 0.9876(10) 0.3294(5)
H5_2 H 0.035397 0.927325 0.286402
H6_2 H 0.004791 0.892085 0.352908
C8_2 C 0.0764(2) 0.9119(10) 0.4701(4)
H7_2 H 0.056965 0.837604 0.495924
H8_2 H 0.088400 0.830647 0.429640
O7_2 O 0.19875(16) 0.3334(6) 0.8243(3)
C12_2 C 0.2063(2) 0.5063(10) 0.8234(4)
C19_2 C 0.1318(3) 0.8599(16) 0.6090(7)
H18_2 H 0.143074 0.998777 0.205746
C36_2 C 0.0538(2) 0.8896(11) 0.8004(5)
H30_2 H 0.033778 0.794931 0.780499
C39_2 C 0.1238(2) 0.9814(10) 0.8864(5)
C40_2 C 0.0938(2) 0.8453(11) 0.8554(5)
H31_2 H 0.100321 0.719684 0.871624
C52_2 C 0.1670(2) 0.9218(11) 0.9411(5)
O3_2 O 0.99316(15) 0.1342(7) 0.2802(4)
C9_2 C 0.9265(2) 0.2147(10) 0.1929(5)
H9_2 H 0.933366 0.340242 0.208812
C11_2 C 0.9559(2) 0.0745(10) 0.2242(5)
O6_3 O 1.000000 0.0864(10) 0.500000
C15_2 C 0.8863(2) 0.1681(10) 0.1371(5)
H12_2 H 0.866407 0.262771 0.115851
H23_2 H 0.829191 0.064921 0.324822
C33_2 C 0.94685(19) 0.0781(9) 0.5877(4)
O18_2 O 0.89625(16) 0.1166(7) 0.6819(4)
C42_2 C 0.8704(2) 0.2220(13) 0.7223(6)
C43_2 C 0.8268(3) 0.2214(14) 0.8321(6)
H33_2 H 0.814972 0.156475 0.874808
C44_2 C 0.9698(2) 0.1967(10) 0.5284(5)
H34_2 H 0.949605 0.245373 0.472765
H35_2 H 0.983510 0.303502 0.565515
C46_2 C 0.9171(2) 0.2133(10) 0.6212(5)
H36_2 H 0.933069 0.318698 0.655013
H37_2 H 0.896389 0.263062 0.566789
C47_2 C 0.7921(2) 0.5261(10) 0.8660(5)
C48_2 C 0.8521(3) 0.1278(12) 0.7843(6)
C49_2 C 0.8189(2) 0.4159(12) 0.8161(5)
C50_2 C 0.8363(3) 0.5041(13) 0.7507(6)
H39_2 H 0.830530 0.631731 0.738011
C51_2 C 0.8620(3) 0.4105(14) 0.7030(7)
H40_2 H 0.873313 0.473656 0.658840
C10_2 C 0.9462(2) 0.8896(11) 0.1996(5)
H10_2 H 0.966222 0.794931 0.219501
C13_2 C 0.8762(2) 0.9814(10) 0.1136(5)
C14_2 C 0.9062(2) 0.8453(11) 0.1446(5)
H11_2 H 0.899679 0.719684 0.128376
C26_2 C 0.8330(2) 0.9218(11) 0.0589(5)
C27_2 C 0.8769(4) 0.6668(17) 0.3889(8)
H21_2 H 0.898967 0.614204 0.434963
O12_2 O 0.89088(16) 0.9860(7) 0.4550(3)
C28_2 C 0.8096(3) 0.8204(10) 0.2559(6)
H22_2 H 0.786860 0.871958 0.211413
C29_2 C 0.8182(3) 0.6282(12) 0.2533(6)
C30_2 C 0.8348(3) 0.9360(11) 0.3242(6)
C31_2 C 0.8529(3) 0.5549(14) 0.3188(7)
H24_2 H 0.860047 0.428162 0.315175
C32_2 C 0.9790(2) 0.9876(10) 0.6706(5)
H25_2 H 0.964603 0.927325 0.713598
H26_2 H 0.995209 0.892085 0.647092
C34_2 C 0.9236(2) 0.9119(10) 0.5299(4)
H27_2 H 0.943035 0.837604 0.504076
H28_2 H 0.911600 0.830647 0.570360
O16_2 O 0.80125(16) 0.3334(6) 0.1757(3)
C38_2 C 0.7937(2) 0.5063(10) 0.1766(4)
C45_2 C 0.8682(3) 0.8599(16) 0.3910(7)
H38_2 H 0.856926 0.998777 0.794254
loop_
_geom_bond_atom_site_label_1
_geom_bond_atom_site_label_2
_geom_bond_site_symmetry_1
_geom_bond_site_symmetry_2
O10 C21 1_555 1_555
H19 C24 1_555 1_555
O19 C47 1_555 1_555
H39 C50 1_555 1_555
O10 Tb10 1_555 1_555
O19 Tb8 1_555 1_555
Tb10 O30 1_555 1_555
O1 C26 1_555 1_555
C1 H1 1_555 1_555
O2 C8 1_555 1_555
O3 C6 1_555 1_555
C2 H2 1_555 1_555
C3 C2 1_555 1_555
C4 C2 1_555 1_555
H3 C4 1_555 1_555
C5 C1 1_555 1_555
C6 H5 1_555 1_555
H6 C6 1_555 1_555
C7 C6 1_555 1_555
C8 C7 1_555 1_555
H7 C8 1_555 1_555
H8 C8 1_555 1_555
C9 H9 1_555 1_555
C10 H10 1_555 1_555
C11 O3 1_555 1_555
O4 C12 1_555 1_555
O6 C18 1_555 1_555
C12 C3 1_555 1_555
C13 C14 1_555 1_555
C14 C10 1_555 1_555
H11 C14 1_555 1_555
C15 C9 1_555 1_555
H12 C15 1_555 1_555
O8 C26 1_555 1_555
O9 C16 1_555 1_555
C16 C22 1_555 1_555
C17 H13 1_555 1_555
C18 C7 1_555 1_555
H14 C18 1_555 1_555
H15 C18 1_555 1_555
C19 C1 1_555 1_555
C20 C7 1_555 1_555
H16 C20 1_555 1_555
H17 C20 1_555 1_555
C22 C17 1_555 1_555
H18 C22 1_555 1_555
C23 C17 1_555 1_555
C25 C16 1_555 1_555
H20 C25 1_555 1_555
C26 C13 1_555 1_555
O11 C52 1_555 1_555
C27 H21 1_555 1_555
O12 C34 1_555 1_555
O13 C32 1_555 1_555
C28 H22 1_555 1_555
C29 C28 1_555 1_555
C30 C28 1_555 1_555
H23 C30 1_555 1_555
C31 C27 1_555 1_555
C32 H25 1_555 1_555
H26 C32 1_555 1_555
C33 C32 1_555 1_555
C34 C33 1_555 1_555
H27 C34 1_555 1_555
H28 C34 1_555 1_555
C35 H29 1_555 1_555
C36 H30 1_555 1_555
C37 O13 1_555 1_555
O14 C38 1_555 1_555
C38 C29 1_555 1_555
C39 C40 1_555 1_555
C40 C36 1_555 1_555
H31 C40 1_555 1_555
C41 C35 1_555 1_555
H32 C41 1_555 1_555
O17 C52 1_555 1_555
O18 C42 1_555 1_555
C42 C48 1_555 1_555
C43 H33 1_555 1_555
C44 O6 1_555 1_555
H34 C44 1_555 1_555
H35 C44 1_555 1_555
C45 C27 1_555 1_555
C46 C33 1_555 1_555
H36 C46 1_555 1_555
H37 C46 1_555 1_555
C48 C43 1_555 1_555
H38 C48 1_555 1_555
C49 C43 1_555 1_555
C51 C42 1_555 1_555
H40 C51 1_555 1_555
C52 C39 1_555 1_555
Tb4 O17 1_555 1_555
Tb6 O8 1_555 1_555
O2 C19 1_555 1_555
C3 C5 1_555 1_555
C4 C19 1_555 1_555
C9 C11 1_555 1_555
C10 C11 1_555 1_555
C13 C15 1_555 1_555
O9 C20 1_555 1_555
O12 C45 1_555 1_555
C29 C31 1_555 1_555
C30 C45 1_555 1_555
C33 C44 1_555 1_555
C35 C37 1_555 1_555
C36 C37 1_555 1_555
C39 C41 1_555 1_555
O18 C46 1_555 1_555
Tb8 O31 1_555 1_555
O7 Tb4 1_555 1_555
O26 Tb6 1_555 1_555
O27 Tb4 1_555 1_555
O32 Tb6 1_555 1_555
O33 Tb4 1_555 1_555
O16 Tb6 1_555 1_555
O26 C21_2 1_555 1_555
O6_2 C18_2 1_555 1_555
O9_2 C16_2 1_555 1_555
O32 C21_2 1_555 1_555
C16_2 C22_2 1_555 1_555
C17_2 H13_2 1_555 1_555
C18_2 C7_2 1_555 1_555
H14_2 C18_2 1_555 1_555
H15_2 C18_2 1_555 1_555
C20_2 C7_2 1_555 1_555
H16_2 C20_2 1_555 1_555
H17_2 C20_2 1_555 1_555
C21_2 C23_2 1_555 1_555
C22_2 C17_2 1_555 1_555
C23_2 C17_2 1_555 1_555
C24_2 C23_2 1_555 1_555
H19_2 C24_2 1_555 1_555
C25_2 C16_2 1_555 1_555
H20_2 C25_2 1_555 1_555
C35_2 H29_2 1_555 1_555
C37_2 O13_2 1_555 1_555
C41_2 C35_2 1_555 1_555
H32_2 C41_2 1_555 1_555
O9_2 C20_2 1_555 1_555
C24_2 C25_2 1_555 1_555
C35_2 C37_2 1_555 1_555
Tb8 O22 1_555 1_555
C1_2 H1_2 1_555 1_555
O2_2 C8_2 1_555 1_555
C2_2 H2_2 1_555 1_555
C3_2 C2_2 1_555 1_555
C4_2 C2_2 1_555 1_555
C5_2 C1_2 1_555 1_555
H4_2 C5_2 1_555 1_555
C6_2 H5_2 1_555 1_555
H6_2 C6_2 1_555 1_555
H7_2 C8_2 1_555 1_555
H8_2 C8_2 1_555 1_555
O22 C12_2 1_555 1_555
O7_2 Tb8 1_555 1_555
C12_2 C3_2 1_555 1_555
C19_2 C1_2 1_555 1_555
O21 C52_2 1_555 1_555
C36_2 H30_2 1_555 1_555
C39_2 C40_2 1_555 1_555
C40_2 C36_2 1_555 1_555
H31_2 C40_2 1_555 1_555
C52_2 C39_2 1_555 1_555
O2_2 C19_2 1_555 1_555
C3_2 C5_2 1_555 1_555
C4_2 C19_2 1_555 1_555
O7_2 C12_2 1_555 1_555
C9_2 H9_2 1_555 1_555
C11_2 O3_2 1_555 1_555
C15_2 C9_2 1_555 1_555
H12_2 C15_2 1_555 1_555
O27 C47_2 1_555 1_555
O18_2 C42_2 1_555 1_555
O33 C47_2 1_555 1_555
C42_2 C48_2 1_555 1_555
C43_2 H33_2 1_555 1_555
C44_2 O6_3 1_555 1_555
H34_2 C44_2 1_555 1_555
H35_2 C44_2 1_555 1_555
C46_2 C33_2 1_555 1_555
H36_2 C46_2 1_555 1_555
H37_2 C46_2 1_555 1_555
C47_2 C49_2 1_555 1_555
C48_2 C43_2 1_555 1_555
C49_2 C43_2 1_555 1_555
C50_2 C49_2 1_555 1_555
H39_2 C50_2 1_555 1_555
C51_2 C42_2 1_555 1_555
H40_2 C51_2 1_555 1_555
C9_2 C11_2 1_555 1_555
C33_2 C44_2 1_555 1_555
O18_2 C46_2 1_555 1_555
C50_2 C51_2 1_555 1_555
O20 C26_2 1_555 1_555
C10_2 H10_2 1_555 1_555
C13_2 C14_2 1_555 1_555
C14_2 C10_2 1_555 1_555
H11_2 C14_2 1_555 1_555
C26_2 C13_2 1_555 1_555
C27_2 H21_2 1_555 1_555
O12_2 C34_2 1_555 1_555
C28_2 H22_2 1_555 1_555
C29_2 C28_2 1_555 1_555
C30_2 C28_2 1_555 1_555
C31_2 C27_2 1_555 1_555
H24_2 C31_2 1_555 1_555
C32_2 H25_2 1_555 1_555
H26_2 C32_2 1_555 1_555
H27_2 C34_2 1_555 1_555
H28_2 C34_2 1_555 1_555
O23 C38_2 1_555 1_555
O16_2 C38_2 1_555 1_555
C38_2 C29_2 1_555 1_555
C45_2 C27_2 1_555 1_555
Tb10 O23 1_555 1_555
O12_2 C45_2 1_555 1_555
C29_2 C31_2 1_555 1_555
C30_2 C45_2 1_555 1_555
O16_2 Tb10 1_555 1_555

#END
