
###############################################################################
#
# This file contains modified crystal structure data generated from the
# MOF subset of the Cambridge Structural Database (CSD) v543 
# hosted by the Cambridge Crystallographic Data Centre (CCDC).
#
# This work is licensed under the Creative Commons
# Attribution-NonCommercial-ShareAlike 4.0 International License.
# To view a copy of this license, visit
# http://creativecommons.org/licenses/by-nc-sa/4.0/
# or send a letter to
# Creative Commons, PO Box 1866, Mountain View, CA 94042, USA.
#
# CIF created using the CSD Python API on 29 September 2022
# The structure has been converted into the P1 space group
# The structure has a 3D framework
# The original CSD entry ESEYEJ is in the monoclinic crystal system
# The framework has been calculated to contain at least 10.0% void space
# The void calculation uses a probe of radius 1.32A, grid spacing 0.4
#
###############################################################################

data_ESEYEJ
_chemical_formula_moiety         '(C440 H376 Ho14 N8 O153)n'
_symmetry_cell_setting           triclinic
_symmetry_space_group_name_H-M   'P 1'
_symmetry_Int_Tables_number      1
_space_group_name_Hall           'P 1'
loop_
_symmetry_equiv_pos_site_id
_symmetry_equiv_pos_as_xyz
1 x,y,z
_cell_length_a                   31.0005(17)
_cell_length_b                   20.4207(17)
_cell_length_c                   28.4056(19)
_cell_angle_alpha                90
_cell_angle_beta                 108.073(5)
_cell_angle_gamma                90
_cell_volume                     17095
loop_
_atom_site_label
_atom_site_type_symbol
_atom_site_fract_x
_atom_site_fract_y
_atom_site_fract_z
O4 O 0.41944(12) 0.06705(16) 0.26641(14)
O5 O 0.42248(13) 0.24727(18) 0.27713(15)
O6 O 0.38361(14) 0.25432(18) 0.16242(17)
O7 O 0.36992(13) 0.08200(18) 0.15407(15)
O8 O 0.42107(13) 0.04738(17) 0.37376(15)
O10 O 0.45467(14) 0.46858(18) 0.04282(16)
O11 O 0.39068(15) 0.5142(2) 0.04535(18)
O14 O 0.44116(13) 0.46862(18) 0.43692(13)
O17 O 0.29444(14) 0.23138(19) 0.45265(17)
O18 O 0.35881(14) 0.28710(17) 0.47641(15)
O19 O 0.37729(12) 0.42187(18) 0.44070(14)
C16 C 0.39451(19) 0.0017(2) 0.3381(2)
H10 H 0.369992 0.024278 0.313784
C18 C 0.45245(19) 0.0217(2) 0.2939(2)
H14 H 0.474535 0.043380 0.321287
H15 H 0.468204 0.001671 0.272894
C19 C 0.43786(19) 0.1157(2) 0.2412(2)
H16 H 0.449217 0.095087 0.216642
H17 H 0.462707 0.138781 0.264677
C20 C 0.40012(18) 0.1629(2) 0.21654(19)
C21 C 0.38591(19) 0.2036(2) 0.2540(2)
H18 H 0.358653 0.228204 0.237497
H19 H 0.379682 0.175347 0.278552
C22 C 0.41732(18) 0.2060(2) 0.1822(2)
H20 H 0.445796 0.226511 0.200512
H21 H 0.422176 0.179890 0.155766
C23 C 0.35733(19) 0.1257(2) 0.1868(2)
H22 H 0.344930 0.101339 0.208903
H23 H 0.334454 0.156208 0.167978
C24 C 0.4241(2) 0.1427(3) 0.4185(2)
H24 H 0.454857 0.145420 0.421813
C25 C 0.3980(2) 0.0917(3) 0.3931(2)
C26 C 0.3530(2) 0.0876(3) 0.3888(3)
H25 H 0.335872 0.052442 0.372251
C27 C 0.3328(2) 0.1361(3) 0.4091(3)
H26 H 0.301864 0.133853 0.404984
C30 C 0.4156(2) 0.2906(3) 0.3106(2)
C31 C 0.4489(2) 0.3382(3) 0.3271(3)
H28 H 0.472992 0.339993 0.314080
C32 C 0.3943(2) 0.3035(3) 0.1346(2)
C33 C 0.4292(2) 0.3021(3) 0.1146(2)
H29 H 0.447770 0.265469 0.118536
C34 C 0.33813(19) 0.0398(3) 0.1273(2)
C35 C 0.2927(2) 0.0413(3) 0.1266(3)
H30 H 0.282898 0.071386 0.145611
C36 C 0.4186(2) 0.4684(3) 0.0541(2)
C37 C 0.4088(2) 0.4100(3) 0.0808(2)
C39 C 0.3802(2) 0.2887(3) 0.3294(2)
H31 H 0.357465 0.257445 0.318213
C40 C 0.3780(2) 0.3338(3) 0.3654(2)
H32 H 0.353922 0.332042 0.378394
C41 C 0.35751(18) 0.1867(2) 0.4350(2)
C42 C 0.3360(2) 0.2387(2) 0.4565(2)
C43 C 0.4365(2) 0.3562(3) 0.0882(2)
H33 H 0.460659 0.355814 0.075373
C44 C 0.4027(2) 0.1905(3) 0.4392(2)
H34 H 0.419711 0.225582 0.456110
C45 C 0.4465(2) 0.3825(3) 0.3626(3)
H35 H 0.469080 0.414016 0.373543
C46 C 0.41100(18) 0.3807(2) 0.38214(19)
C50 C 0.3732(2) 0.4099(3) 0.0980(3)
H39 H 0.353448 0.445454 0.091610
C52 C 0.41021(19) 0.4262(3) 0.42257(19)
C53 C 0.3652(3) 0.3572(4) 0.1254(4)
H41 H 0.340557 0.357962 0.137411
O24 O 0.58056(12) 0.06705(16) 0.23359(14)
O25 O 0.57752(13) 0.24727(18) 0.22287(15)
O26 O 0.61639(14) 0.25432(18) 0.33758(17)
O27 O 0.63008(13) 0.08200(18) 0.34593(15)
O28 O 0.57893(13) 0.04738(17) 0.12624(15)
O30 O 0.54533(14) 0.46858(18) 0.45718(16)
O31 O 0.60932(15) 0.5142(2) 0.45465(18)
O34 O 0.55884(13) 0.46862(18) 0.06308(13)
O37 O 0.70556(14) 0.23138(19) 0.04735(17)
O38 O 0.64119(14) 0.28710(17) 0.02359(15)
O39 O 0.62271(12) 0.42187(18) 0.05930(14)
C71 C 0.60549(19) 0.0017(2) 0.1619(2)
H57 H 0.630008 0.024278 0.186216
C73 C 0.54755(19) 0.0217(2) 0.2061(2)
H61 H 0.525465 0.043380 0.178713
H62 H 0.531796 0.001671 0.227106
C74 C 0.56214(19) 0.1157(2) 0.2588(2)
H63 H 0.550783 0.095087 0.283358
H64 H 0.537293 0.138781 0.235323
C75 C 0.59988(18) 0.1629(2) 0.28346(19)
C76 C 0.61409(19) 0.2036(2) 0.2460(2)
H65 H 0.641347 0.228204 0.262503
H66 H 0.620318 0.175347 0.221448
C77 C 0.58268(18) 0.2060(2) 0.3178(2)
H67 H 0.554204 0.226511 0.299488
H68 H 0.577824 0.179890 0.344234
C78 C 0.64267(19) 0.1257(2) 0.3132(2)
H69 H 0.655070 0.101339 0.291097
H70 H 0.665546 0.156208 0.332022
C79 C 0.5759(2) 0.1427(3) 0.0815(2)
H71 H 0.545143 0.145420 0.078187
C80 C 0.6020(2) 0.0917(3) 0.1069(2)
C81 C 0.6470(2) 0.0876(3) 0.1112(3)
H72 H 0.664128 0.052442 0.127749
C82 C 0.6672(2) 0.1361(3) 0.0909(3)
H73 H 0.698136 0.133853 0.095016
C85 C 0.5844(2) 0.2906(3) 0.1894(2)
C86 C 0.5511(2) 0.3382(3) 0.1729(3)
H75 H 0.527008 0.339993 0.185920
C87 C 0.6057(2) 0.3035(3) 0.3654(2)
C88 C 0.5708(2) 0.3021(3) 0.3854(2)
H76 H 0.552230 0.265469 0.381464
C89 C 0.66187(19) 0.0398(3) 0.3727(2)
C90 C 0.7073(2) 0.0413(3) 0.3734(3)
H77 H 0.717102 0.071386 0.354389
C91 C 0.5814(2) 0.4684(3) 0.4459(2)
C92 C 0.5912(2) 0.4100(3) 0.4192(2)
C94 C 0.6198(2) 0.2887(3) 0.1706(2)
H78 H 0.642535 0.257445 0.181787
C95 C 0.6220(2) 0.3338(3) 0.1346(2)
H79 H 0.646078 0.332042 0.121606
C96 C 0.64249(18) 0.1867(2) 0.0650(2)
C97 C 0.6640(2) 0.2387(2) 0.0435(2)
C98 C 0.5635(2) 0.3562(3) 0.4118(2)
H80 H 0.539341 0.355814 0.424627
C99 C 0.5973(2) 0.1905(3) 0.0608(2)
H81 H 0.580289 0.225582 0.043890
C100 C 0.5535(2) 0.3825(3) 0.1374(3)
H82 H 0.530920 0.414016 0.126457
C101 C 0.58900(18) 0.3807(2) 0.11786(19)
C105 C 0.6268(2) 0.4099(3) 0.4020(3)
H86 H 0.646552 0.445454 0.408390
C107 C 0.58979(19) 0.4262(3) 0.07743(19)
C108 C 0.6348(3) 0.3572(4) 0.3746(4)
H88 H 0.659443 0.357962 0.362589
Ho5 Ho 0.500000 0.500000 0.500000
Ho7 Ho 0.500000 0.500000 0.000000
Ho8 Ho 0.36735(2) 0.61288(2) 0.01234(2)
Ho9 Ho 0.63265(2) 0.61288(2) 0.48766(2)
Ho11 Ho 0.36735(2) 0.38712(2) 0.51234(2)
Ho15 Ho 0.750000 0.250000 0.000000
Ho16 Ho 0.250000 0.250000 0.500000
Ho7_2 Ho 0.500000 0.500000 1.000000
Ho10 Ho 0.63265(2) 0.38712(2) 0.98766(2)
Ho15_2 Ho 0.750000 0.250000 1.000000
N1 N 0.2770(5) 0.5274(7) 0.1032(6)
Ho3 Ho 0.250000 0.750000 0.000000
O1 O 0.37764(14) 0.6781(2) 0.08111(15)
O2 O 0.31020(13) 0.72463(18) 0.06355(14)
O3 O 0.43555(14) 0.87569(17) 0.36488(17)
O9 O 0.42361(14) 0.89174(19) 0.24960(15)
O12 O 0.49106(13) 0.60190(16) 0.46813(17)
O13 O 0.55878(13) 0.63663(19) 0.47120(17)
O15 O 0.20281(15) 0.9088(2) 0.0352(2)
O16 O 0.25982(14) 0.85367(18) 0.02274(18)
C1 C 0.27703(18) 0.9498(3) 0.0701(2)
O20 O 0.3180(4) 0.5734(6) 0.0567(5)
C2 C 0.3510(2) 0.7195(3) 0.0896(2)
C3 C 0.36930(19) 0.7652(3) 0.1326(2)
C4 C 0.4142(2) 0.7661(3) 0.1584(2)
H1 H 0.433581 0.737400 0.149384
C5 C 0.3409(2) 0.8073(3) 0.1464(2)
H2 H 0.309968 0.806924 0.129212
C6 C 0.3572(2) 0.8494(3) 0.1848(2)
H3 H 0.337597 0.877758 0.193736
C7 C 0.49670(18) 0.7082(2) 0.4374(2)
C8 C 0.5229(2) 0.7580(2) 0.4302(2)
H4 H 0.554338 0.753617 0.441946
C9 C 0.4505(2) 0.7182(3) 0.4225(3)
H5 H 0.431753 0.685967 0.428695
C10 C 0.4315(2) 0.7744(3) 0.3991(3)
H6 H 0.400186 0.779672 0.388853
C11 C 0.4584(2) 0.8226(2) 0.3906(2)
C12 C 0.5046(2) 0.8152(2) 0.4060(2)
H7 H 0.523193 0.847927 0.400310
C13 C 0.51729(19) 0.6457(2) 0.4612(2)
C14 C 0.46054(19) 0.9256(2) 0.3490(2)
H8 H 0.480665 0.906019 0.332741
H9 H 0.478640 0.950735 0.377184
C15 C 0.42593(18) 0.9696(2) 0.31305(19)
H11 H 0.381504 0.968877 0.354334
C17 C 0.39497(18) 0.9300(2) 0.2696(2)
H12 H 0.375100 0.901839 0.281029
H13 H 0.376396 0.959279 0.244506
C28 C 0.4031(2) 0.8503(3) 0.2108(2)
C29 C 0.4316(2) 0.8078(3) 0.1971(2)
H27 H 0.462534 0.807561 0.214086
C38 C 0.2447(2) 0.9014(3) 0.0399(3)
C47 C 0.3523(2) 0.9930(3) 0.1010(2)
H36 H 0.382652 0.990571 0.102684
C48 C 0.3210(2) 0.9491(3) 0.0718(3)
H37 H 0.330650 0.918412 0.053052
C49 C 0.2632(2) 0.9971(3) 0.0969(3)
H38 H 0.232730 0.999212 0.094730
C51 C 0.3099(5) 0.5668(8) 0.0969(4)
H40 H 0.327503 0.590442 0.124023
C54 C 0.2775(6) 0.5262(9) 0.1556(5)
H42 H 0.271251 0.569036 0.165738
H43 H 0.307541 0.513076 0.174908
H44 H 0.255831 0.495566 0.160518
C55 C 0.2473(6) 0.4841(8) 0.0649(5)
H45 H 0.232610 0.506231 0.034279
H46 H 0.224810 0.465321 0.077639
H47 H 0.266450 0.450071 0.059199
N2 N 0.7230(5) 0.5274(7) 0.3968(6)
O21 O 0.62236(14) 0.6781(2) 0.41889(15)
O22 O 0.68980(13) 0.72463(18) 0.43645(14)
O23 O 0.56445(14) 0.87569(17) 0.13512(17)
O29 O 0.57639(14) 0.89174(19) 0.25040(15)
O32 O 0.50894(13) 0.60190(16) 0.03187(17)
O33 O 0.44122(13) 0.63663(19) 0.02880(17)
O35 O 0.79719(15) 0.9088(2) 0.4648(2)
O36 O 0.74018(14) 0.85367(18) 0.47726(18)
C56 C 0.72297(18) 0.9498(3) 0.4299(2)
O40 O 0.6820(4) 0.5734(6) 0.4433(5)
C57 C 0.6490(2) 0.7195(3) 0.4104(2)
C58 C 0.63070(19) 0.7652(3) 0.3674(2)
C59 C 0.5858(2) 0.7661(3) 0.3416(2)
H48 H 0.566419 0.737400 0.350616
C60 C 0.6591(2) 0.8073(3) 0.3536(2)
H49 H 0.690032 0.806924 0.370788
C61 C 0.6428(2) 0.8494(3) 0.3152(2)
H50 H 0.662403 0.877758 0.306264
C62 C 0.50330(18) 0.7082(2) 0.0626(2)
C63 C 0.4771(2) 0.7580(2) 0.0698(2)
H51 H 0.445662 0.753617 0.058054
C64 C 0.5495(2) 0.7182(3) 0.0775(3)
H52 H 0.568247 0.685967 0.071305
C65 C 0.5685(2) 0.7744(3) 0.1009(3)
H53 H 0.599814 0.779672 0.111147
C66 C 0.5416(2) 0.8226(2) 0.1094(2)
C67 C 0.4954(2) 0.8152(2) 0.0940(2)
H54 H 0.476807 0.847927 0.099690
C68 C 0.48271(19) 0.6457(2) 0.0388(2)
C69 C 0.53946(19) 0.9256(2) 0.1510(2)
H55 H 0.519335 0.906019 0.167259
H56 H 0.521360 0.950735 0.122816
C70 C 0.57407(18) 0.9696(2) 0.18695(19)
H58 H 0.618496 0.968877 0.145666
C72 C 0.60503(18) 0.9300(2) 0.2304(2)
H59 H 0.624900 0.901839 0.218971
H60 H 0.623604 0.959279 0.255494
C83 C 0.5969(2) 0.8503(3) 0.2892(2)
C84 C 0.5684(2) 0.8078(3) 0.3029(2)
H74 H 0.537466 0.807561 0.285914
C93 C 0.7553(2) 0.9014(3) 0.4601(3)
C102 C 0.6477(2) 0.9930(3) 0.3990(2)
H83 H 0.617348 0.990571 0.397316
C103 C 0.6790(2) 0.9491(3) 0.4282(3)
H84 H 0.669350 0.918412 0.446948
C104 C 0.7368(2) 0.9971(3) 0.4031(3)
H85 H 0.767270 0.999212 0.405270
C106 C 0.6901(5) 0.5668(8) 0.4031(4)
H87 H 0.672497 0.590442 0.375977
C109 C 0.7225(6) 0.5262(9) 0.3444(5)
H89 H 0.728749 0.569036 0.334262
H90 H 0.692459 0.513076 0.325092
H91 H 0.744169 0.495566 0.339482
C110 C 0.7527(6) 0.4841(8) 0.4351(5)
H92 H 0.767390 0.506231 0.465721
H93 H 0.775190 0.465321 0.422361
H94 H 0.733550 0.450071 0.440801
Ho13 Ho 0.86735(2) 0.88712(2) 0.51234(2)
Ho14 Ho 0.750000 0.750000 0.500000
O43 O 0.45467(14) 0.53142(18) 0.54282(16)
O46 O 0.50894(13) 0.39810(16) 0.53187(17)
O48 O 0.55884(13) 0.53138(18) 0.56308(13)
O50 O 0.70281(15) 0.5912(2) 0.5352(2)
O52 O 0.20556(14) 0.73138(19) 0.04735(17)
O54 O 0.64119(14) 0.71290(17) 0.52359(15)
O56 O 0.62271(12) 0.57813(18) 0.55930(14)
Ho3_2 Ho 0.250000 0.750000 1.000000
Ho12 Ho 0.13265(2) 0.88712(2) 0.98766(2)
O41 O 0.18980(13) 0.77537(18) 0.93645(14)
O49 O 0.29719(15) 0.5912(2) 0.9648(2)
O51 O 0.24018(14) 0.64633(18) 0.97726(18)
O53 O 0.29444(14) 0.76862(19) 0.95265(17)
O55 O 0.35881(14) 0.71290(17) 0.97641(15)
O57 O 0.37729(12) 0.57813(18) 0.94070(14)
O41_2 O 0.81020(13) 0.77537(18) 0.56355(14)
O51_2 O 0.75982(14) 0.64633(18) 0.52274(18)
O52_2 O 0.79444(14) 0.73138(19) 0.45265(17)
O53_2 O 0.70556(14) 0.76862(19) 0.54735(17)
O43_2 O 0.54533(14) 0.53142(18) 0.95718(16)
O46_2 O 0.49106(13) 0.39810(16) 0.96813(17)
O48_2 O 0.44116(13) 0.53138(18) 0.93692(13)
O31_2 O 0.10932(15) 0.0142(2) 0.45465(18)
Ho5_2 Ho -0.000000 0.000000 0.500000
Ho7_3 Ho 0.000000 0.000000 0.000000
Ho9_2 Ho 0.13265(2) 0.11288(2) 0.48766(2)
Ho7_4 Ho -0.000000 0.000000 1.000000
O13_2 O 0.05878(13) 0.13663(19) 0.47120(17)
C8_2 C 0.0229(2) 0.2580(2) 0.4302(2)
H4_2 H 0.054338 0.253617 0.441946
C12_2 C 0.0046(2) 0.3152(2) 0.4060(2)
H7_2 H 0.023193 0.347927 0.400310
C13_2 C 0.01729(19) 0.1457(2) 0.4612(2)
N2_2 N 0.2230(5) 0.0274(7) 0.3968(6)
O21_2 O 0.12236(14) 0.1781(2) 0.41889(15)
O22_2 O 0.18980(13) 0.22463(18) 0.43645(14)
O23_2 O 0.06445(14) 0.37569(17) 0.13512(17)
O24_2 O 0.08056(12) 0.56705(16) 0.23359(14)
O25_2 O 0.07752(13) 0.74727(18) 0.22287(15)
O26_2 O 0.11639(14) 0.75432(18) 0.33758(17)
O27_2 O 0.13008(13) 0.58200(18) 0.34593(15)
O28_2 O 0.07893(13) 0.54738(17) 0.12624(15)
O29_2 O 0.07639(14) 0.39174(19) 0.25040(15)
O30_2 O 0.04533(14) 0.96858(18) 0.45718(16)
O32_2 O 0.00894(13) 0.10190(16) 0.03187(17)
O34_2 O 0.05884(13) 0.96862(18) 0.06308(13)
O35_2 O 0.29719(15) 0.4088(2) 0.4648(2)
O36_2 O 0.24018(14) 0.35367(18) 0.47726(18)
O38_2 O 0.14119(14) 0.78710(17) 0.02359(15)
O39_2 O 0.12271(12) 0.92187(18) 0.05930(14)
C56_2 C 0.22297(18) 0.4498(3) 0.4299(2)
O40_2 O 0.1820(4) 0.0734(6) 0.4433(5)
C57_2 C 0.1490(2) 0.2195(3) 0.4104(2)
C58_2 C 0.13070(19) 0.2652(3) 0.3674(2)
C59_2 C 0.0858(2) 0.2661(3) 0.3416(2)
H48_2 H 0.066419 0.237400 0.350616
C60_2 C 0.1591(2) 0.3073(3) 0.3536(2)
H49_2 H 0.190032 0.306924 0.370788
C61_2 C 0.1428(2) 0.3494(3) 0.3152(2)
H50_2 H 0.162403 0.377758 0.306264
C62_2 C 0.00330(18) 0.2082(2) 0.0626(2)
C64_2 C 0.0495(2) 0.2182(3) 0.0775(3)
H52_2 H 0.068247 0.185967 0.071305
C65_2 C 0.0685(2) 0.2744(3) 0.1009(3)
H53_2 H 0.099814 0.279672 0.111147
C66_2 C 0.0416(2) 0.3226(2) 0.1094(2)
C69_2 C 0.03946(19) 0.4256(2) 0.1510(2)
H55_2 H 0.019335 0.406019 0.167259
H56_2 H 0.021360 0.450735 0.122816
C70_2 C 0.07407(18) 0.4696(2) 0.18695(19)
C71_2 C 0.10549(19) 0.5017(2) 0.1619(2)
H57_2 H 0.130008 0.524278 0.186216
H58_2 H 0.118496 0.468877 0.145666
C72_2 C 0.10503(18) 0.4300(2) 0.2304(2)
H59_2 H 0.124900 0.401839 0.218971
H60_2 H 0.123604 0.459279 0.255494
C73_2 C 0.04755(19) 0.5217(2) 0.2061(2)
H61_2 H 0.025465 0.543380 0.178713
H62_2 H 0.031796 0.501671 0.227106
C74_2 C 0.06214(19) 0.6157(2) 0.2588(2)
H63_2 H 0.050783 0.595087 0.283358
H64_2 H 0.037293 0.638781 0.235323
C75_2 C 0.09988(18) 0.6629(2) 0.28346(19)
C76_2 C 0.11409(19) 0.7036(2) 0.2460(2)
H65_2 H 0.141347 0.728204 0.262503
H66_2 H 0.120318 0.675347 0.221448
C77_2 C 0.08268(18) 0.7060(2) 0.3178(2)
H67_2 H 0.054204 0.726511 0.299488
H68_2 H 0.077824 0.679890 0.344234
C78_2 C 0.14267(19) 0.6257(2) 0.3132(2)
H69_2 H 0.155070 0.601339 0.291097
H70_2 H 0.165546 0.656208 0.332022
C79_2 C 0.0759(2) 0.6427(3) 0.0815(2)
H71_2 H 0.045143 0.645420 0.078187
C80_2 C 0.1020(2) 0.5917(3) 0.1069(2)
C81_2 C 0.1470(2) 0.5876(3) 0.1112(3)
H72_2 H 0.164128 0.552442 0.127749
C82_2 C 0.1672(2) 0.6361(3) 0.0909(3)
H73_2 H 0.198136 0.633853 0.095016
C83_2 C 0.0969(2) 0.3503(3) 0.2892(2)
C84_2 C 0.0684(2) 0.3078(3) 0.3029(2)
H74_2 H 0.037466 0.307561 0.285914
C85_2 C 0.0844(2) 0.7906(3) 0.1894(2)
C86_2 C 0.0511(2) 0.8382(3) 0.1729(3)
H75_2 H 0.027008 0.839993 0.185920
C87_2 C 0.1057(2) 0.8035(3) 0.3654(2)
C88_2 C 0.0708(2) 0.8021(3) 0.3854(2)
H76_2 H 0.052230 0.765469 0.381464
C89_2 C 0.16187(19) 0.5398(3) 0.3727(2)
C90_2 C 0.2073(2) 0.5413(3) 0.3734(3)
H77_2 H 0.217102 0.571386 0.354389
C91_2 C 0.0814(2) 0.9684(3) 0.4459(2)
C92_2 C 0.0912(2) 0.9100(3) 0.4192(2)
C93_2 C 0.2553(2) 0.4014(3) 0.4601(3)
C94_2 C 0.1198(2) 0.7887(3) 0.1706(2)
H78_2 H 0.142535 0.757445 0.181787
C95_2 C 0.1220(2) 0.8338(3) 0.1346(2)
H79_2 H 0.146078 0.832042 0.121606
C96_2 C 0.14249(18) 0.6867(2) 0.0650(2)
C97_2 C 0.1640(2) 0.7387(2) 0.0435(2)
C98_2 C 0.0635(2) 0.8562(3) 0.4118(2)
H80_2 H 0.039341 0.855814 0.424627
C99_2 C 0.0973(2) 0.6905(3) 0.0608(2)
H81_2 H 0.080289 0.725582 0.043890
C100_2 C 0.0535(2) 0.8825(3) 0.1374(3)
H82_2 H 0.030920 0.914016 0.126457
C101_2 C 0.08900(18) 0.8807(2) 0.11786(19)
C102_2 C 0.1477(2) 0.4930(3) 0.3990(2)
H83_2 H 0.117348 0.490571 0.397316
C103_2 C 0.1790(2) 0.4491(3) 0.4282(3)
H84_2 H 0.169350 0.418412 0.446948
C104_2 C 0.2368(2) 0.4971(3) 0.4031(3)
H85_2 H 0.267270 0.499212 0.405270
C105_2 C 0.1268(2) 0.9099(3) 0.4020(3)
H86_2 H 0.146552 0.945454 0.408390
C106_2 C 0.1901(5) 0.0668(8) 0.4031(4)
H87_2 H 0.172497 0.090442 0.375977
C107_2 C 0.08979(19) 0.9262(3) 0.07743(19)
C108_2 C 0.1348(3) 0.8572(4) 0.3746(4)
H88_2 H 0.159443 0.857962 0.362589
C109_2 C 0.2225(6) 0.0262(9) 0.3444(5)
H89_2 H 0.228749 0.069036 0.334262
H90_2 H 0.192459 0.013076 0.325092
H92_2 H 0.267390 0.006231 0.465721
Ho5_3 Ho 0.000000 1.000000 0.500000
Ho7_5 Ho 0.000000 1.000000 0.000000
O48_3 O 0.05884(13) 0.03138(18) 0.56308(13)
O50_2 O 0.20281(15) 0.0912(2) 0.5352(2)
O54_2 O 0.14119(14) 0.21290(17) 0.52359(15)
O56_2 O 0.12271(12) 0.07813(18) 0.55930(14)
Ho7_6 Ho 0.000000 1.000000 1.000000
H91_2 H 0.244169 0.995566 0.339482
C110_2 C 0.2527(6) 0.9841(8) 0.4351(5)
H93_2 H 0.275190 0.965321 0.422361
H94_2 H 0.233550 0.950071 0.440801
O46_3 O 0.00894(13) 0.89810(16) 0.53187(17)
O11_2 O 0.89068(15) 0.0142(2) 0.04535(18)
Ho5_4 Ho 1.000000 0.000000 0.500000
Ho7_7 Ho 1.000000 0.000000 0.000000
Ho8_2 Ho 0.86735(2) 0.11288(2) 0.01234(2)
Ho7_8 Ho 1.000000 0.000000 1.000000
N1_2 N 0.7770(5) 0.0274(7) 0.1032(6)
O1_2 O 0.87764(14) 0.1781(2) 0.08111(15)
O2_2 O 0.81020(13) 0.22463(18) 0.06355(14)
O3_2 O 0.93555(14) 0.37569(17) 0.36488(17)
O4_2 O 0.91944(12) 0.56705(16) 0.26641(14)
O5_2 O 0.92248(13) 0.74727(18) 0.27713(15)
O6_2 O 0.88361(14) 0.75432(18) 0.16242(17)
O7_2 O 0.86992(13) 0.58200(18) 0.15407(15)
O8_2 O 0.92107(13) 0.54738(17) 0.37376(15)
O9_2 O 0.92361(14) 0.39174(19) 0.24960(15)
O10_2 O 0.95467(14) 0.96858(18) 0.04282(16)
O12_2 O 0.99106(13) 0.10190(16) 0.46813(17)
O14_2 O 0.94116(13) 0.96862(18) 0.43692(13)
O15_2 O 0.70281(15) 0.4088(2) 0.0352(2)
O16_2 O 0.75982(14) 0.35367(18) 0.02274(18)
O18_2 O 0.85881(14) 0.78710(17) 0.47641(15)
O19_2 O 0.87729(12) 0.92187(18) 0.44070(14)
C1_2 C 0.77703(18) 0.4498(3) 0.0701(2)
O20_2 O 0.8180(4) 0.0734(6) 0.0567(5)
C2_2 C 0.8510(2) 0.2195(3) 0.0896(2)
C3_2 C 0.86930(19) 0.2652(3) 0.1326(2)
C4_2 C 0.9142(2) 0.2661(3) 0.1584(2)
H1_2 H 0.933581 0.237400 0.149384
C5_2 C 0.8409(2) 0.3073(3) 0.1464(2)
H2_2 H 0.809968 0.306924 0.129212
C6_2 C 0.8572(2) 0.3494(3) 0.1848(2)
H3_2 H 0.837597 0.377758 0.193736
C7_2 C 0.99670(18) 0.2082(2) 0.4374(2)
C9_2 C 0.9505(2) 0.2182(3) 0.4225(3)
H5_2 H 0.931753 0.185967 0.428695
C10_2 C 0.9315(2) 0.2744(3) 0.3991(3)
H6_2 H 0.900186 0.279672 0.388853
C11_2 C 0.9584(2) 0.3226(2) 0.3906(2)
C14_2 C 0.96054(19) 0.4256(2) 0.3490(2)
H8_2 H 0.980665 0.406019 0.332741
H9_2 H 0.978640 0.450735 0.377184
C15_2 C 0.92593(18) 0.4696(2) 0.31305(19)
C16_2 C 0.89451(19) 0.5017(2) 0.3381(2)
H10_2 H 0.869992 0.524278 0.313784
H11_2 H 0.881504 0.468877 0.354334
C17_2 C 0.89497(18) 0.4300(2) 0.2696(2)
H12_2 H 0.875100 0.401839 0.281029
H13_2 H 0.876396 0.459279 0.244506
C18_2 C 0.95245(19) 0.5217(2) 0.2939(2)
H14_2 H 0.974535 0.543380 0.321287
H15_2 H 0.968204 0.501671 0.272894
C19_2 C 0.93786(19) 0.6157(2) 0.2412(2)
H16_2 H 0.949217 0.595087 0.216642
H17_2 H 0.962707 0.638781 0.264677
C20_2 C 0.90012(18) 0.6629(2) 0.21654(19)
C21_2 C 0.88591(19) 0.7036(2) 0.2540(2)
H18_2 H 0.858653 0.728204 0.237497
H19_2 H 0.879682 0.675347 0.278552
C22_2 C 0.91732(18) 0.7060(2) 0.1822(2)
H20_2 H 0.945796 0.726511 0.200512
H21_2 H 0.922176 0.679890 0.155766
C23_2 C 0.85733(19) 0.6257(2) 0.1868(2)
H22_2 H 0.844930 0.601339 0.208903
H23_2 H 0.834454 0.656208 0.167978
C24_2 C 0.9241(2) 0.6427(3) 0.4185(2)
H24_2 H 0.954857 0.645420 0.421813
C25_2 C 0.8980(2) 0.5917(3) 0.3931(2)
C26_2 C 0.8530(2) 0.5876(3) 0.3888(3)
H25_2 H 0.835872 0.552442 0.372251
C27_2 C 0.8328(2) 0.6361(3) 0.4091(3)
H26_2 H 0.801864 0.633853 0.404984
C28_2 C 0.9031(2) 0.3503(3) 0.2108(2)
C29_2 C 0.9316(2) 0.3078(3) 0.1971(2)
H27_2 H 0.962534 0.307561 0.214086
C30_2 C 0.9156(2) 0.7906(3) 0.3106(2)
C31_2 C 0.9489(2) 0.8382(3) 0.3271(3)
H28_2 H 0.972992 0.839993 0.314080
C32_2 C 0.8943(2) 0.8035(3) 0.1346(2)
C33_2 C 0.9292(2) 0.8021(3) 0.1146(2)
H29_2 H 0.947770 0.765469 0.118536
C34_2 C 0.83813(19) 0.5398(3) 0.1273(2)
C35_2 C 0.7927(2) 0.5413(3) 0.1266(3)
H30_2 H 0.782898 0.571386 0.145611
C36_2 C 0.9186(2) 0.9684(3) 0.0541(2)
C37_2 C 0.9088(2) 0.9100(3) 0.0808(2)
C38_2 C 0.7447(2) 0.4014(3) 0.0399(3)
C39_2 C 0.8802(2) 0.7887(3) 0.3294(2)
H31_2 H 0.857465 0.757445 0.318213
C40_2 C 0.8780(2) 0.8338(3) 0.3654(2)
H32_2 H 0.853922 0.832042 0.378394
C41_2 C 0.85751(18) 0.6867(2) 0.4350(2)
C42_2 C 0.8360(2) 0.7387(2) 0.4565(2)
C43_2 C 0.9365(2) 0.8562(3) 0.0882(2)
H33_2 H 0.960659 0.855814 0.075373
C44_2 C 0.9027(2) 0.6905(3) 0.4392(2)
H34_2 H 0.919711 0.725582 0.456110
C45_2 C 0.9465(2) 0.8825(3) 0.3626(3)
H35_2 H 0.969080 0.914016 0.373543
C46_2 C 0.91100(18) 0.8807(2) 0.38214(19)
C47_2 C 0.8523(2) 0.4930(3) 0.1010(2)
H36_2 H 0.882652 0.490571 0.102684
C48_2 C 0.8210(2) 0.4491(3) 0.0718(3)
H37_2 H 0.830650 0.418412 0.053052
C49_2 C 0.7632(2) 0.4971(3) 0.0969(3)
H38_2 H 0.732730 0.499212 0.094730
C50_2 C 0.8732(2) 0.9099(3) 0.0980(3)
H39_2 H 0.853448 0.945454 0.091610
C51_2 C 0.8099(5) 0.0668(8) 0.0969(4)
H40_2 H 0.827503 0.090442 0.124023
C52_2 C 0.91021(19) 0.9262(3) 0.42257(19)
C53_2 C 0.8652(3) 0.8572(4) 0.1254(4)
H41_2 H 0.840557 0.857962 0.137411
C54_2 C 0.7775(6) 0.0262(9) 0.1556(5)
H42_2 H 0.771251 0.069036 0.165738
H43_2 H 0.807541 0.013076 0.174908
H45_2 H 0.732610 0.006231 0.034279
O33_2 O 0.94122(13) 0.13663(19) 0.02880(17)
C63_2 C 0.9771(2) 0.2580(2) 0.0698(2)
H51_2 H 0.945662 0.253617 0.058054
C67_2 C 0.9954(2) 0.3152(2) 0.0940(2)
H54_2 H 0.976807 0.347927 0.099690
C68_2 C 0.98271(19) 0.1457(2) 0.0388(2)
Ho5_5 Ho 1.000000 1.000000 0.500000
Ho7_9 Ho 1.000000 1.000000 0.000000
O43_3 O 0.95467(14) 0.03142(18) 0.54282(16)
Ho7_10 Ho 1.000000 1.000000 1.000000
O41_3 O 0.68980(13) 0.27537(18) 0.93645(14)
O49_2 O 0.79719(15) 0.0912(2) 0.9648(2)
O51_3 O 0.74018(14) 0.14633(18) 0.97726(18)
O53_3 O 0.79444(14) 0.26862(19) 0.95265(17)
O55_2 O 0.85881(14) 0.21290(17) 0.97641(15)
O57_2 O 0.87729(12) 0.07813(18) 0.94070(14)
H44_2 H 0.755831 0.995566 0.160518
C55_2 C 0.7473(6) 0.9841(8) 0.0649(5)
H46_2 H 0.724810 0.965321 0.077639
H47_2 H 0.766450 0.950071 0.059199
O41_4 O 0.31020(13) 0.27537(18) 0.56355(14)
O51_4 O 0.25982(14) 0.14633(18) 0.52274(18)
O53_4 O 0.20556(14) 0.26862(19) 0.54735(17)
O43_4 O 0.04533(14) 0.03142(18) 0.95718(16)
O48_4 O 0.94116(13) 0.03138(18) 0.93692(13)
O46_4 O 0.99106(13) 0.89810(16) 0.96813(17)
N1_3 N 0.7230(5) 0.4726(7) 0.8968(6)
O1_3 O 0.62236(14) 0.3219(2) 0.91889(15)
O3_3 O 0.56445(14) 0.12431(17) 0.63512(17)
O9_3 O 0.57639(14) 0.10826(19) 0.75040(15)
O13_3 O 0.44122(13) 0.36337(19) 0.52880(17)
C1_3 C 0.72297(18) 0.0502(3) 0.9299(2)
O20_3 O 0.6820(4) 0.4266(6) 0.9433(5)
C2_3 C 0.6490(2) 0.2805(3) 0.9104(2)
C3_3 C 0.63070(19) 0.2348(3) 0.8674(2)
C4_3 C 0.5858(2) 0.2339(3) 0.8416(2)
H1_3 H 0.566419 0.262600 0.850616
C5_3 C 0.6591(2) 0.1927(3) 0.8536(2)
H2_3 H 0.690032 0.193076 0.870788
C6_3 C 0.6428(2) 0.1506(3) 0.8152(2)
H3_3 H 0.662403 0.122242 0.806264
C7_3 C 0.50330(18) 0.2918(2) 0.5626(2)
C8_3 C 0.4771(2) 0.2420(2) 0.5698(2)
H4_3 H 0.445662 0.246383 0.558054
C9_3 C 0.5495(2) 0.2818(3) 0.5775(3)
H5_3 H 0.568247 0.314033 0.571305
C10_3 C 0.5685(2) 0.2256(3) 0.6009(3)
H6_3 H 0.599814 0.220328 0.611147
C11_3 C 0.5416(2) 0.1774(2) 0.6094(2)
C12_3 C 0.4954(2) 0.1848(2) 0.5940(2)
H7_3 H 0.476807 0.152073 0.599690
C13_3 C 0.48271(19) 0.3543(2) 0.5388(2)
C14_3 C 0.53946(19) 0.0744(2) 0.6510(2)
H8_3 H 0.519335 0.093981 0.667259
H9_3 H 0.521360 0.049265 0.622816
C15_3 C 0.57407(18) 0.0304(2) 0.68695(19)
H11_3 H 0.618496 0.031123 0.645666
C17_3 C 0.60503(18) 0.0700(2) 0.7304(2)
H12_3 H 0.624900 0.098161 0.718971
H13_3 H 0.623604 0.040721 0.755494
C28_3 C 0.5969(2) 0.1497(3) 0.7892(2)
C29_3 C 0.5684(2) 0.1922(3) 0.8029(2)
H27_3 H 0.537466 0.192439 0.785914
C38_3 C 0.7553(2) 0.0986(3) 0.9601(3)
C47_3 C 0.6477(2) 0.0070(3) 0.8990(2)
H36_3 H 0.617348 0.009429 0.897316
C48_3 C 0.6790(2) 0.0509(3) 0.9282(3)
H37_3 H 0.669350 0.081588 0.946948
C49_3 C 0.7368(2) 0.0029(3) 0.9031(3)
H38_3 H 0.767270 0.000788 0.905270
C51_3 C 0.6901(5) 0.4332(8) 0.9031(4)
H40_3 H 0.672497 0.409558 0.875977
C54_3 C 0.7225(6) 0.4738(9) 0.8444(5)
H42_3 H 0.728749 0.430964 0.834262
H43_3 H 0.692459 0.486924 0.825092
H44_3 H 0.744169 0.504434 0.839482
C55_3 C 0.7527(6) 0.5159(8) 0.9351(5)
H45_3 H 0.767390 0.493769 0.965721
H46_3 H 0.775190 0.534679 0.922361
H47_3 H 0.733550 0.549929 0.940801
N2_3 N 0.2770(5) 0.4726(7) 0.6032(6)
O21_3 O 0.37764(14) 0.3219(2) 0.58111(15)
O23_3 O 0.43555(14) 0.12431(17) 0.86488(17)
O29_3 O 0.42361(14) 0.10826(19) 0.74960(15)
O33_3 O 0.55878(13) 0.36337(19) 0.97120(17)
C56_3 C 0.27703(18) 0.0502(3) 0.5701(2)
O40_3 O 0.3180(4) 0.4266(6) 0.5567(5)
C57_3 C 0.3510(2) 0.2805(3) 0.5896(2)
C58_3 C 0.36930(19) 0.2348(3) 0.6326(2)
C59_3 C 0.4142(2) 0.2339(3) 0.6584(2)
H48_3 H 0.433581 0.262600 0.649384
C60_3 C 0.3409(2) 0.1927(3) 0.6464(2)
H49_3 H 0.309968 0.193076 0.629212
C61_3 C 0.3572(2) 0.1506(3) 0.6848(2)
H50_3 H 0.337597 0.122242 0.693736
C62_3 C 0.49670(18) 0.2918(2) 0.9374(2)
C63_3 C 0.5229(2) 0.2420(2) 0.9302(2)
H51_3 H 0.554338 0.246383 0.941946
C64_3 C 0.4505(2) 0.2818(3) 0.9225(3)
H52_3 H 0.431753 0.314033 0.928695
C65_3 C 0.4315(2) 0.2256(3) 0.8991(3)
H53_3 H 0.400186 0.220328 0.888853
C66_3 C 0.4584(2) 0.1774(2) 0.8906(2)
C67_3 C 0.5046(2) 0.1848(2) 0.9060(2)
H54_3 H 0.523193 0.152073 0.900310
C68_3 C 0.51729(19) 0.3543(2) 0.9612(2)
C69_3 C 0.46054(19) 0.0744(2) 0.8490(2)
H55_3 H 0.480665 0.093981 0.832741
H56_3 H 0.478640 0.049265 0.877184
C70_3 C 0.42593(18) 0.0304(2) 0.81305(19)
H58_3 H 0.381504 0.031123 0.854334
C72_3 C 0.39497(18) 0.0700(2) 0.7696(2)
H59_3 H 0.375100 0.098161 0.781029
H60_3 H 0.376396 0.040721 0.744506
C83_3 C 0.4031(2) 0.1497(3) 0.7108(2)
C84_3 C 0.4316(2) 0.1922(3) 0.6971(2)
H74_3 H 0.462534 0.192439 0.714086
C93_3 C 0.2447(2) 0.0986(3) 0.5399(3)
C102_3 C 0.3523(2) 0.0070(3) 0.6010(2)
H83_3 H 0.382652 0.009429 0.602684
C103_3 C 0.3210(2) 0.0509(3) 0.5718(3)
H84_3 H 0.330650 0.081588 0.553052
C104_3 C 0.2632(2) 0.0029(3) 0.5969(3)
H85_3 H 0.232730 0.000788 0.594730
C106_3 C 0.3099(5) 0.4332(8) 0.5969(4)
H87_3 H 0.327503 0.409558 0.624023
C109_3 C 0.2775(6) 0.4738(9) 0.6556(5)
H89_3 H 0.271251 0.430964 0.665738
H90_3 H 0.307541 0.486924 0.674908
H91_3 H 0.255831 0.504434 0.660518
C110_3 C 0.2473(6) 0.5159(8) 0.5649(5)
H92_3 H 0.232610 0.493769 0.534279
H93_3 H 0.224810 0.534679 0.577639
H94_3 H 0.266450 0.549929 0.559199
O44 O 0.60932(15) 0.4858(2) 0.95465(18)
O45 O 0.39068(15) 0.4858(2) 0.54535(18)
O4_3 O 0.58056(12) 0.93295(16) 0.73359(14)
O5_3 O 0.57752(13) 0.75273(18) 0.72287(15)
O6_3 O 0.61639(14) 0.74568(18) 0.83758(17)
O7_3 O 0.63008(13) 0.91800(18) 0.84593(15)
O8_3 O 0.57893(13) 0.95262(17) 0.62624(15)
C16_3 C 0.60549(19) 0.9983(2) 0.6619(2)
H10_3 H 0.630008 0.975722 0.686216
C18_3 C 0.54755(19) 0.9783(2) 0.7061(2)
H14_3 H 0.525465 0.956620 0.678713
H15_3 H 0.531796 0.998329 0.727106
C19_3 C 0.56214(19) 0.8843(2) 0.7588(2)
H16_3 H 0.550783 0.904913 0.783358
H17_3 H 0.537293 0.861219 0.735323
C20_3 C 0.59988(18) 0.8371(2) 0.78346(19)
C21_3 C 0.61409(19) 0.7964(2) 0.7460(2)
H18_3 H 0.641347 0.771796 0.762503
H19_3 H 0.620318 0.824653 0.721448
C22_3 C 0.58268(18) 0.7940(2) 0.8178(2)
H20_3 H 0.554204 0.773489 0.799488
H21_3 H 0.577824 0.820110 0.844234
C23_3 C 0.64267(19) 0.8743(2) 0.8132(2)
H22_3 H 0.655070 0.898661 0.791097
H23_3 H 0.665546 0.843792 0.832022
C24_3 C 0.5759(2) 0.8573(3) 0.5815(2)
H24_3 H 0.545143 0.854580 0.578187
C25_3 C 0.6020(2) 0.9083(3) 0.6069(2)
C26_3 C 0.6470(2) 0.9124(3) 0.6112(3)
H25_3 H 0.664128 0.947558 0.627749
C27_3 C 0.6672(2) 0.8639(3) 0.5909(3)
H26_3 H 0.698136 0.866147 0.595016
C30_3 C 0.5844(2) 0.7094(3) 0.6894(2)
C31_3 C 0.5511(2) 0.6618(3) 0.6729(3)
H28_3 H 0.527008 0.660007 0.685920
C32_3 C 0.6057(2) 0.6965(3) 0.8654(2)
C33_3 C 0.5708(2) 0.6979(3) 0.8854(2)
H29_3 H 0.552230 0.734531 0.881464
C34_3 C 0.66187(19) 0.9602(3) 0.8727(2)
C35_3 C 0.7073(2) 0.9587(3) 0.8734(3)
H30_3 H 0.717102 0.928614 0.854389
C36_3 C 0.5814(2) 0.5316(3) 0.9459(2)
C37_3 C 0.5912(2) 0.5900(3) 0.9192(2)
C39_3 C 0.6198(2) 0.7113(3) 0.6706(2)
H31_3 H 0.642535 0.742555 0.681787
C40_3 C 0.6220(2) 0.6662(3) 0.6346(2)
H32_3 H 0.646078 0.667958 0.621606
C41_3 C 0.64249(18) 0.8133(2) 0.5650(2)
C42_3 C 0.6640(2) 0.7613(2) 0.5435(2)
C43_3 C 0.5635(2) 0.6438(3) 0.9118(2)
H33_3 H 0.539341 0.644186 0.924627
C44_3 C 0.5973(2) 0.8095(3) 0.5608(2)
H34_3 H 0.580289 0.774418 0.543890
C45_3 C 0.5535(2) 0.6175(3) 0.6374(3)
H35_3 H 0.530920 0.585984 0.626457
C46_3 C 0.58900(18) 0.6193(2) 0.61786(19)
C50_3 C 0.6268(2) 0.5901(3) 0.9020(3)
H39_3 H 0.646552 0.554546 0.908390
C52_3 C 0.58979(19) 0.5738(3) 0.57743(19)
C53_3 C 0.6348(3) 0.6428(4) 0.8746(4)
H41_3 H 0.659443 0.642038 0.862589
O24_3 O 0.41944(12) 0.93295(16) 0.76641(14)
O25_3 O 0.42248(13) 0.75273(18) 0.77713(15)
O26_3 O 0.38361(14) 0.74568(18) 0.66242(17)
O27_3 O 0.36992(13) 0.91800(18) 0.65407(15)
O28_3 O 0.42107(13) 0.95262(17) 0.87376(15)
C71_3 C 0.39451(19) 0.9983(2) 0.8381(2)
H57_3 H 0.369992 0.975722 0.813784
C73_3 C 0.45245(19) 0.9783(2) 0.7939(2)
H61_3 H 0.474535 0.956620 0.821287
H62_3 H 0.468204 0.998329 0.772894
C74_3 C 0.43786(19) 0.8843(2) 0.7412(2)
H63_3 H 0.449217 0.904913 0.716642
H64_3 H 0.462707 0.861219 0.764677
C75_3 C 0.40012(18) 0.8371(2) 0.71654(19)
C76_3 C 0.38591(19) 0.7964(2) 0.7540(2)
H65_3 H 0.358653 0.771796 0.737497
H66_3 H 0.379682 0.824653 0.778552
C77_3 C 0.41732(18) 0.7940(2) 0.6822(2)
H67_3 H 0.445796 0.773489 0.700512
H68_3 H 0.422176 0.820110 0.655766
C78_3 C 0.35733(19) 0.8743(2) 0.6868(2)
H69_3 H 0.344930 0.898661 0.708903
H70_3 H 0.334454 0.843792 0.667978
C79_3 C 0.4241(2) 0.8573(3) 0.9185(2)
H71_3 H 0.454857 0.854580 0.921813
C80_3 C 0.3980(2) 0.9083(3) 0.8931(2)
C81_3 C 0.3530(2) 0.9124(3) 0.8888(3)
H72_3 H 0.335872 0.947558 0.872251
C82_3 C 0.3328(2) 0.8639(3) 0.9091(3)
H73_3 H 0.301864 0.866147 0.904984
C85_3 C 0.4156(2) 0.7094(3) 0.8106(2)
C86_3 C 0.4489(2) 0.6618(3) 0.8271(3)
H75_3 H 0.472992 0.660007 0.814080
C87_3 C 0.3943(2) 0.6965(3) 0.6346(2)
C88_3 C 0.4292(2) 0.6979(3) 0.6146(2)
H76_3 H 0.447770 0.734531 0.618536
C89_3 C 0.33813(19) 0.9602(3) 0.6273(2)
C90_3 C 0.2927(2) 0.9587(3) 0.6266(3)
H77_3 H 0.282898 0.928614 0.645611
C91_3 C 0.4186(2) 0.5316(3) 0.5541(2)
C92_3 C 0.4088(2) 0.5900(3) 0.5808(2)
C94_3 C 0.3802(2) 0.7113(3) 0.8294(2)
H78_3 H 0.357465 0.742555 0.818213
C95_3 C 0.3780(2) 0.6662(3) 0.8654(2)
H79_3 H 0.353922 0.667958 0.878394
C96_3 C 0.35751(18) 0.8133(2) 0.9350(2)
C97_3 C 0.3360(2) 0.7613(2) 0.9565(2)
C98_3 C 0.4365(2) 0.6438(3) 0.5882(2)
H80_3 H 0.460659 0.644186 0.575373
C99_3 C 0.4027(2) 0.8095(3) 0.9392(2)
H81_3 H 0.419711 0.774418 0.956110
C100_3 C 0.4465(2) 0.6175(3) 0.8626(3)
H82_3 H 0.469080 0.585984 0.873543
C101_3 C 0.41100(18) 0.6193(2) 0.88214(19)
C105_3 C 0.3732(2) 0.5901(3) 0.5980(3)
H86_3 H 0.353448 0.554546 0.591610
C107_3 C 0.41021(19) 0.5738(3) 0.92257(19)
C108_3 C 0.3652(3) 0.6428(4) 0.6254(4)
H88_3 H 0.340557 0.642038 0.637411
H44_4 H 0.244169 0.004434 0.839482
C55_4 C 0.2527(6) 0.0159(8) 0.9351(5)
H46_4 H 0.275190 0.034679 0.922361
H47_4 H 0.233550 0.049929 0.940801
N1_4 N 0.2230(5) 0.9726(7) 0.8968(6)
O1_4 O 0.12236(14) 0.8219(2) 0.91889(15)
O3_4 O 0.06445(14) 0.62431(17) 0.63512(17)
O4_4 O 0.08056(12) 0.43295(16) 0.73359(14)
O5_4 O 0.07752(13) 0.25273(18) 0.72287(15)
O6_4 O 0.11639(14) 0.24568(18) 0.83758(17)
O7_4 O 0.13008(13) 0.41800(18) 0.84593(15)
O8_4 O 0.07893(13) 0.45262(17) 0.62624(15)
O9_4 O 0.07639(14) 0.60826(19) 0.75040(15)
C1_4 C 0.22297(18) 0.5502(3) 0.9299(2)
O20_4 O 0.1820(4) 0.9266(6) 0.9433(5)
C2_4 C 0.1490(2) 0.7805(3) 0.9104(2)
C3_4 C 0.13070(19) 0.7348(3) 0.8674(2)
C4_4 C 0.0858(2) 0.7339(3) 0.8416(2)
H1_4 H 0.066419 0.762600 0.850616
C5_4 C 0.1591(2) 0.6927(3) 0.8536(2)
H2_4 H 0.190032 0.693076 0.870788
C6_4 C 0.1428(2) 0.6506(3) 0.8152(2)
H3_4 H 0.162403 0.622242 0.806264
C7_4 C 0.00330(18) 0.7918(2) 0.5626(2)
C9_4 C 0.0495(2) 0.7818(3) 0.5775(3)
H5_4 H 0.068247 0.814033 0.571305
C10_4 C 0.0685(2) 0.7256(3) 0.6009(3)
H6_4 H 0.099814 0.720328 0.611147
C11_4 C 0.0416(2) 0.6774(2) 0.6094(2)
C14_4 C 0.03946(19) 0.5744(2) 0.6510(2)
H8_4 H 0.019335 0.593981 0.667259
H9_4 H 0.021360 0.549265 0.622816
C15_4 C 0.07407(18) 0.5304(2) 0.68695(19)
C16_4 C 0.10549(19) 0.4983(2) 0.6619(2)
H10_4 H 0.130008 0.475722 0.686216
H11_4 H 0.118496 0.531123 0.645666
C17_4 C 0.10503(18) 0.5700(2) 0.7304(2)
H12_4 H 0.124900 0.598161 0.718971
H13_4 H 0.123604 0.540721 0.755494
C18_4 C 0.04755(19) 0.4783(2) 0.7061(2)
H14_4 H 0.025465 0.456620 0.678713
H15_4 H 0.031796 0.498329 0.727106
C19_4 C 0.06214(19) 0.3843(2) 0.7588(2)
H16_4 H 0.050783 0.404913 0.783358
H17_4 H 0.037293 0.361219 0.735323
C20_4 C 0.09988(18) 0.3371(2) 0.78346(19)
C21_4 C 0.11409(19) 0.2964(2) 0.7460(2)
H18_4 H 0.141347 0.271796 0.762503
H19_4 H 0.120318 0.324653 0.721448
C22_4 C 0.08268(18) 0.2940(2) 0.8178(2)
H20_4 H 0.054204 0.273489 0.799488
H21_4 H 0.077824 0.320110 0.844234
C23_4 C 0.14267(19) 0.3743(2) 0.8132(2)
H22_4 H 0.155070 0.398661 0.791097
H23_4 H 0.165546 0.343792 0.832022
C24_4 C 0.0759(2) 0.3573(3) 0.5815(2)
H24_4 H 0.045143 0.354580 0.578187
C25_4 C 0.1020(2) 0.4083(3) 0.6069(2)
C26_4 C 0.1470(2) 0.4124(3) 0.6112(3)
H25_4 H 0.164128 0.447558 0.627749
C27_4 C 0.1672(2) 0.3639(3) 0.5909(3)
H26_4 H 0.198136 0.366147 0.595016
C28_4 C 0.0969(2) 0.6497(3) 0.7892(2)
C29_4 C 0.0684(2) 0.6922(3) 0.8029(2)
H27_4 H 0.037466 0.692439 0.785914
C30_4 C 0.0844(2) 0.2094(3) 0.6894(2)
C31_4 C 0.0511(2) 0.1618(3) 0.6729(3)
H28_4 H 0.027008 0.160007 0.685920
C32_4 C 0.1057(2) 0.1965(3) 0.8654(2)
C33_4 C 0.0708(2) 0.1979(3) 0.8854(2)
H29_4 H 0.052230 0.234531 0.881464
C34_4 C 0.16187(19) 0.4602(3) 0.8727(2)
C35_4 C 0.2073(2) 0.4587(3) 0.8734(3)
H30_4 H 0.217102 0.428614 0.854389
C36_4 C 0.0814(2) 0.0316(3) 0.9459(2)
C37_4 C 0.0912(2) 0.0900(3) 0.9192(2)
C38_4 C 0.2553(2) 0.5986(3) 0.9601(3)
C39_4 C 0.1198(2) 0.2113(3) 0.6706(2)
H31_4 H 0.142535 0.242555 0.681787
C40_4 C 0.1220(2) 0.1662(3) 0.6346(2)
H32_4 H 0.146078 0.167958 0.621606
C41_4 C 0.14249(18) 0.3133(2) 0.5650(2)
C42_4 C 0.1640(2) 0.2613(2) 0.5435(2)
C43_4 C 0.0635(2) 0.1438(3) 0.9118(2)
H33_4 H 0.039341 0.144186 0.924627
C44_4 C 0.0973(2) 0.3095(3) 0.5608(2)
H34_4 H 0.080289 0.274418 0.543890
C45_4 C 0.0535(2) 0.1175(3) 0.6374(3)
H35_4 H 0.030920 0.085984 0.626457
C46_4 C 0.08900(18) 0.1193(2) 0.61786(19)
C47_4 C 0.1477(2) 0.5070(3) 0.8990(2)
H36_4 H 0.117348 0.509429 0.897316
C48_4 C 0.1790(2) 0.5509(3) 0.9282(3)
H37_4 H 0.169350 0.581588 0.946948
C49_4 C 0.2368(2) 0.5029(3) 0.9031(3)
H38_4 H 0.267270 0.500788 0.905270
C50_4 C 0.1268(2) 0.0901(3) 0.9020(3)
H39_4 H 0.146552 0.054546 0.908390
C51_4 C 0.1901(5) 0.9332(8) 0.9031(4)
H40_4 H 0.172497 0.909558 0.875977
C52_4 C 0.08979(19) 0.0738(3) 0.57743(19)
C53_4 C 0.1348(3) 0.1428(4) 0.8746(4)
H41_4 H 0.159443 0.142038 0.862589
C54_4 C 0.2225(6) 0.9738(9) 0.8444(5)
H42_4 H 0.228749 0.930964 0.834262
H43_4 H 0.192459 0.986924 0.825092
H45_4 H 0.267390 0.993769 0.965721
O33_4 O 0.05878(13) 0.86337(19) 0.97120(17)
C63_4 C 0.0229(2) 0.7420(2) 0.9302(2)
H51_4 H 0.054338 0.746383 0.941946
C67_4 C 0.0046(2) 0.6848(2) 0.9060(2)
H54_4 H 0.023193 0.652073 0.900310
C68_4 C 0.01729(19) 0.8543(2) 0.9612(2)
O44_2 O 0.10932(15) 0.9858(2) 0.95465(18)
H91_4 H 0.755831 0.004434 0.660518
C110_4 C 0.7473(6) 0.0159(8) 0.5649(5)
H93_4 H 0.724810 0.034679 0.577639
H94_4 H 0.766450 0.049929 0.559199
O13_4 O 0.94122(13) 0.86337(19) 0.52880(17)
C8_4 C 0.9771(2) 0.7420(2) 0.5698(2)
H4_4 H 0.945662 0.746383 0.558054
C12_4 C 0.9954(2) 0.6848(2) 0.5940(2)
H7_4 H 0.976807 0.652073 0.599690
C13_4 C 0.98271(19) 0.8543(2) 0.5388(2)
N2_4 N 0.7770(5) 0.9726(7) 0.6032(6)
O21_4 O 0.87764(14) 0.8219(2) 0.58111(15)
O23_4 O 0.93555(14) 0.62431(17) 0.86488(17)
O24_4 O 0.91944(12) 0.43295(16) 0.76641(14)
O25_4 O 0.92248(13) 0.25273(18) 0.77713(15)
O26_4 O 0.88361(14) 0.24568(18) 0.66242(17)
O27_4 O 0.86992(13) 0.41800(18) 0.65407(15)
O28_4 O 0.92107(13) 0.45262(17) 0.87376(15)
O29_4 O 0.92361(14) 0.60826(19) 0.74960(15)
C56_4 C 0.77703(18) 0.5502(3) 0.5701(2)
O40_4 O 0.8180(4) 0.9266(6) 0.5567(5)
C57_4 C 0.8510(2) 0.7805(3) 0.5896(2)
C58_4 C 0.86930(19) 0.7348(3) 0.6326(2)
C59_4 C 0.9142(2) 0.7339(3) 0.6584(2)
H48_4 H 0.933581 0.762600 0.649384
C60_4 C 0.8409(2) 0.6927(3) 0.6464(2)
H49_4 H 0.809968 0.693076 0.629212
C61_4 C 0.8572(2) 0.6506(3) 0.6848(2)
H50_4 H 0.837597 0.622242 0.693736
C62_4 C 0.99670(18) 0.7918(2) 0.9374(2)
C64_4 C 0.9505(2) 0.7818(3) 0.9225(3)
H52_4 H 0.931753 0.814033 0.928695
C65_4 C 0.9315(2) 0.7256(3) 0.8991(3)
H53_4 H 0.900186 0.720328 0.888853
C66_4 C 0.9584(2) 0.6774(2) 0.8906(2)
C69_4 C 0.96054(19) 0.5744(2) 0.8490(2)
H55_4 H 0.980665 0.593981 0.832741
H56_4 H 0.978640 0.549265 0.877184
C70_4 C 0.92593(18) 0.5304(2) 0.81305(19)
C71_4 C 0.89451(19) 0.4983(2) 0.8381(2)
H57_4 H 0.869992 0.475722 0.813784
H58_4 H 0.881504 0.531123 0.854334
C72_4 C 0.89497(18) 0.5700(2) 0.7696(2)
H59_4 H 0.875100 0.598161 0.781029
H60_4 H 0.876396 0.540721 0.744506
C73_4 C 0.95245(19) 0.4783(2) 0.7939(2)
H61_4 H 0.974535 0.456620 0.821287
H62_4 H 0.968204 0.498329 0.772894
C74_4 C 0.93786(19) 0.3843(2) 0.7412(2)
H63_4 H 0.949217 0.404913 0.716642
H64_4 H 0.962707 0.361219 0.764677
C75_4 C 0.90012(18) 0.3371(2) 0.71654(19)
C76_4 C 0.88591(19) 0.2964(2) 0.7540(2)
H65_4 H 0.858653 0.271796 0.737497
H66_4 H 0.879682 0.324653 0.778552
C77_4 C 0.91732(18) 0.2940(2) 0.6822(2)
H67_4 H 0.945796 0.273489 0.700512
H68_4 H 0.922176 0.320110 0.655766
C78_4 C 0.85733(19) 0.3743(2) 0.6868(2)
H69_4 H 0.844930 0.398661 0.708903
H70_4 H 0.834454 0.343792 0.667978
C79_4 C 0.9241(2) 0.3573(3) 0.9185(2)
H71_4 H 0.954857 0.354580 0.921813
C80_4 C 0.8980(2) 0.4083(3) 0.8931(2)
C81_4 C 0.8530(2) 0.4124(3) 0.8888(3)
H72_4 H 0.835872 0.447558 0.872251
C82_4 C 0.8328(2) 0.3639(3) 0.9091(3)
H73_4 H 0.801864 0.366147 0.904984
C83_4 C 0.9031(2) 0.6497(3) 0.7108(2)
C84_4 C 0.9316(2) 0.6922(3) 0.6971(2)
H74_4 H 0.962534 0.692439 0.714086
C85_4 C 0.9156(2) 0.2094(3) 0.8106(2)
C86_4 C 0.9489(2) 0.1618(3) 0.8271(3)
H75_4 H 0.972992 0.160007 0.814080
C87_4 C 0.8943(2) 0.1965(3) 0.6346(2)
C88_4 C 0.9292(2) 0.1979(3) 0.6146(2)
H76_4 H 0.947770 0.234531 0.618536
C89_4 C 0.83813(19) 0.4602(3) 0.6273(2)
C90_4 C 0.7927(2) 0.4587(3) 0.6266(3)
H77_4 H 0.782898 0.428614 0.645611
C91_4 C 0.9186(2) 0.0316(3) 0.5541(2)
C92_4 C 0.9088(2) 0.0900(3) 0.5808(2)
C93_4 C 0.7447(2) 0.5986(3) 0.5399(3)
C94_4 C 0.8802(2) 0.2113(3) 0.8294(2)
H78_4 H 0.857465 0.242555 0.818213
C95_4 C 0.8780(2) 0.1662(3) 0.8654(2)
H79_4 H 0.853922 0.167958 0.878394
C96_4 C 0.85751(18) 0.3133(2) 0.9350(2)
C97_4 C 0.8360(2) 0.2613(2) 0.9565(2)
C98_4 C 0.9365(2) 0.1438(3) 0.5882(2)
H80_4 H 0.960659 0.144186 0.575373
C99_4 C 0.9027(2) 0.3095(3) 0.9392(2)
H81_4 H 0.919711 0.274418 0.956110
C100_4 C 0.9465(2) 0.1175(3) 0.8626(3)
H82_4 H 0.969080 0.085984 0.873543
C101_4 C 0.91100(18) 0.1193(2) 0.88214(19)
C102_4 C 0.8523(2) 0.5070(3) 0.6010(2)
H83_4 H 0.882652 0.509429 0.602684
C103_4 C 0.8210(2) 0.5509(3) 0.5718(3)
H84_4 H 0.830650 0.581588 0.553052
C104_4 C 0.7632(2) 0.5029(3) 0.5969(3)
H85_4 H 0.732730 0.500788 0.594730
C105_4 C 0.8732(2) 0.0901(3) 0.5980(3)
H86_4 H 0.853448 0.054546 0.591610
C106_4 C 0.8099(5) 0.9332(8) 0.5969(4)
H87_4 H 0.827503 0.909558 0.624023
C107_4 C 0.91021(19) 0.0738(3) 0.92257(19)
C108_4 C 0.8652(3) 0.1428(4) 0.6254(4)
H88_4 H 0.840557 0.142038 0.637411
C109_4 C 0.7775(6) 0.9738(9) 0.6556(5)
H89_4 H 0.771251 0.930964 0.665738
H90_4 H 0.807541 0.986924 0.674908
H92_4 H 0.732610 0.993769 0.534279
O45_2 O 0.89068(15) 0.9858(2) 0.54535(18)
loop_
_geom_bond_atom_site_label_1
_geom_bond_atom_site_label_2
_geom_bond_site_symmetry_1
_geom_bond_site_symmetry_2
O4 C18 1_555 1_555
O5 C21 1_555 1_555
O6 C22 1_555 1_555
O7 C23 1_555 1_555
O8 C16 1_555 1_555
O10 C36 1_555 1_555
O11 C36 1_555 1_555
O14 C52 1_555 1_555
O17 C42 1_555 1_555
O18 C42 1_555 1_555
O19 C52 1_555 1_555
H10 C16 1_555 1_555
H14 C18 1_555 1_555
H15 C18 1_555 1_555
C19 O4 1_555 1_555
H16 C19 1_555 1_555
H17 C19 1_555 1_555
C20 C19 1_555 1_555
C21 C20 1_555 1_555
H18 C21 1_555 1_555
H19 C21 1_555 1_555
C22 C20 1_555 1_555
H20 C22 1_555 1_555
H21 C22 1_555 1_555
C23 C20 1_555 1_555
H22 C23 1_555 1_555
H23 C23 1_555 1_555
C24 H24 1_555 1_555
C25 O8 1_555 1_555
C26 C25 1_555 1_555
H25 C26 1_555 1_555
C27 C26 1_555 1_555
H26 C27 1_555 1_555
C30 O5 1_555 1_555
C31 C30 1_555 1_555
H28 C31 1_555 1_555
C32 O6 1_555 1_555
C33 C32 1_555 1_555
H29 C33 1_555 1_555
C34 O7 1_555 1_555
C35 C34 1_555 1_555
H30 C35 1_555 1_555
C36 C37 1_555 1_555
C37 C43 1_555 1_555
C39 C30 1_555 1_555
H31 C39 1_555 1_555
C40 C39 1_555 1_555
H32 C40 1_555 1_555
C41 C27 1_555 1_555
C42 C41 1_555 1_555
C43 C33 1_555 1_555
H33 C43 1_555 1_555
C44 C24 1_555 1_555
H34 C44 1_555 1_555
C45 C31 1_555 1_555
H35 C45 1_555 1_555
C46 C40 1_555 1_555
C50 C37 1_555 1_555
H39 C50 1_555 1_555
C52 C46 1_555 1_555
C53 C32 1_555 1_555
H41 C53 1_555 1_555
O24 C73 1_555 1_555
O25 C76 1_555 1_555
O26 C77 1_555 1_555
O27 C78 1_555 1_555
O28 C71 1_555 1_555
O30 C91 1_555 1_555
O31 C91 1_555 1_555
O34 C107 1_555 1_555
O37 C97 1_555 1_555
O38 C97 1_555 1_555
O39 C107 1_555 1_555
H57 C71 1_555 1_555
H61 C73 1_555 1_555
H62 C73 1_555 1_555
C74 O24 1_555 1_555
H63 C74 1_555 1_555
H64 C74 1_555 1_555
C75 C74 1_555 1_555
C76 C75 1_555 1_555
H65 C76 1_555 1_555
H66 C76 1_555 1_555
C77 C75 1_555 1_555
H67 C77 1_555 1_555
H68 C77 1_555 1_555
C78 C75 1_555 1_555
H69 C78 1_555 1_555
H70 C78 1_555 1_555
C79 H71 1_555 1_555
C80 O28 1_555 1_555
C81 C80 1_555 1_555
H72 C81 1_555 1_555
C82 C81 1_555 1_555
H73 C82 1_555 1_555
C85 O25 1_555 1_555
C86 C85 1_555 1_555
H75 C86 1_555 1_555
C87 O26 1_555 1_555
C88 C87 1_555 1_555
H76 C88 1_555 1_555
C89 O27 1_555 1_555
C90 C89 1_555 1_555
H77 C90 1_555 1_555
C91 C92 1_555 1_555
C92 C98 1_555 1_555
C94 C85 1_555 1_555
H78 C94 1_555 1_555
C95 C94 1_555 1_555
H79 C95 1_555 1_555
C96 C82 1_555 1_555
C97 C96 1_555 1_555
C98 C88 1_555 1_555
H80 C98 1_555 1_555
C99 C79 1_555 1_555
H81 C99 1_555 1_555
C100 C86 1_555 1_555
H82 C100 1_555 1_555
C101 C95 1_555 1_555
C105 C92 1_555 1_555
H86 C105 1_555 1_555
C107 C101 1_555 1_555
C108 C87 1_555 1_555
H88 C108 1_555 1_555
Ho5 O14 1_555 1_555
Ho7 O10 1_555 1_555
Ho8 O11 1_555 1_555
Ho9 O31 1_555 1_555
Ho11 O18 1_555 1_555
Ho15 O37 1_555 1_555
Ho16 O17 1_555 1_555
O19 Ho11 1_555 1_555
C24 C25 1_555 1_555
C41 C44 1_555 1_555
C45 C46 1_555 1_555
C50 C53 1_555 1_555
O30 Ho5 1_555 1_555
O34 Ho7 1_555 1_555
C79 C80 1_555 1_555
C96 C99 1_555 1_555
C100 C101 1_555 1_555
C105 C108 1_555 1_555
Ho5 O12 1_555 1_555
N1 C51 1_555 1_555
Ho8 O1 1_555 1_555
Ho3 O2 1_555 1_555
O1 C2 1_555 1_555
O2 C2 1_555 1_555
O3 C11 1_555 1_555
O9 C17 1_555 1_555
O12 C13 1_555 1_555
O13 C13 1_555 1_555
O15 C38 1_555 1_555
O16 Ho3 1_555 1_555
C1 C38 1_555 1_555
O20 Ho8 1_555 1_555
C2 C3 1_555 1_555
C3 C4 1_555 1_555
C4 H1 1_555 1_555
C5 C3 1_555 1_555
H2 C5 1_555 1_555
C6 C5 1_555 1_555
H3 C6 1_555 1_555
C7 C8 1_555 1_555
C8 H4 1_555 1_555
C9 C7 1_555 1_555
H5 C9 1_555 1_555
C10 C9 1_555 1_555
H6 C10 1_555 1_555
C11 C10 1_555 1_555
C12 C8 1_555 1_555
H7 C12 1_555 1_555
C13 C7 1_555 1_555
C14 O3 1_555 1_555
H8 C14 1_555 1_555
H9 C14 1_555 1_555
C15 C14 1_555 1_555
C17 C15 1_555 1_555
H12 C17 1_555 1_555
H13 C17 1_555 1_555
C28 O9 1_555 1_555
C29 C4 1_555 1_555
H27 C29 1_555 1_555
C38 O16 1_555 1_555
H36 C47 1_555 1_555
C48 C1 1_555 1_555
H37 C48 1_555 1_555
C49 C1 1_555 1_555
H38 C49 1_555 1_555
C51 O20 1_555 1_555
H40 C51 1_555 1_555
C54 N1 1_555 1_555
H42 C54 1_555 1_555
H43 C54 1_555 1_555
H44 C54 1_555 1_555
C55 N1 1_555 1_555
H45 C55 1_555 1_555
H46 C55 1_555 1_555
H47 C55 1_555 1_555
N2 C106 1_555 1_555
Ho9 O13 1_555 1_555
O21 Ho9 1_555 1_555
O22 C57 1_555 1_555
O23 C66 1_555 1_555
O29 C72 1_555 1_555
O32 C68 1_555 1_555
O33 Ho8 1_555 1_555
O35 C93 1_555 1_555
O36 C93 1_555 1_555
C56 C93 1_555 1_555
O40 Ho9 1_555 1_555
C57 O21 1_555 1_555
C58 C57 1_555 1_555
C59 C58 1_555 1_555
H48 C59 1_555 1_555
C60 C58 1_555 1_555
H49 C60 1_555 1_555
C61 C60 1_555 1_555
H50 C61 1_555 1_555
C62 C63 1_555 1_555
C63 H51 1_555 1_555
C64 C62 1_555 1_555
H52 C64 1_555 1_555
C65 C64 1_555 1_555
H53 C65 1_555 1_555
C66 C65 1_555 1_555
C67 C63 1_555 1_555
H54 C67 1_555 1_555
C68 O33 1_555 1_555
C69 O23 1_555 1_555
H55 C69 1_555 1_555
H56 C69 1_555 1_555
C70 C69 1_555 1_555
C72 C70 1_555 1_555
H59 C72 1_555 1_555
H60 C72 1_555 1_555
C83 O29 1_555 1_555
C84 C59 1_555 1_555
H74 C84 1_555 1_555
H83 C102 1_555 1_555
C103 C56 1_555 1_555
H84 C103 1_555 1_555
C104 C56 1_555 1_555
H85 C104 1_555 1_555
C106 O40 1_555 1_555
H87 C106 1_555 1_555
C109 N2 1_555 1_555
H89 C109 1_555 1_555
H90 C109 1_555 1_555
H91 C109 1_555 1_555
C110 N2 1_555 1_555
H92 C110 1_555 1_555
H93 C110 1_555 1_555
H94 C110 1_555 1_555
Ho7 O32 1_555 1_555
Ho13 O35 1_555 1_555
Ho14 O22 1_555 1_555
O43 Ho5 1_555 1_555
O46 Ho5 1_555 1_555
O48 Ho5 1_555 1_555
O50 Ho9 1_555 1_555
O52 Ho3 1_555 1_555
O54 Ho9 1_555 1_555
O56 Ho9 1_555 1_555
C6 C28 1_555 1_555
C11 C12 1_555 1_555
C28 C29 1_555 1_555
C47 C48 1_555 1_555
O36 Ho14 1_555 1_555
C61 C83 1_555 1_555
C62 C68 1_555 1_555
C66 C67 1_555 1_555
C83 C84 1_555 1_555
C102 C103 1_555 1_555
O41 Ho3_2 1_555 1_555
O51 Ho3_2 1_555 1_555
O53 Ho3_2 1_555 1_555
O41_2 Ho14 1_555 1_555
O51_2 Ho14 1_555 1_555
O52_2 Ho14 1_555 1_555
O53_2 Ho14 1_555 1_555
O43_2 Ho7_2 1_555 1_555
O46_2 Ho7_2 1_555 1_555
O48_2 Ho7_2 1_555 1_555
Ho9_2 O31_2 1_555 1_555
O13_2 C13_2 1_555 1_555
C8_2 H4_2 1_555 1_555
C12_2 C8_2 1_555 1_555
H7_2 C12_2 1_555 1_555
N2_2 C106_2 1_555 1_555
Ho9_2 O13_2 1_555 1_555
O21_2 Ho9_2 1_555 1_555
O22_2 C57_2 1_555 1_555
O23_2 C66_2 1_555 1_555
O24_2 C73_2 1_555 1_555
O25_2 C76_2 1_555 1_555
O26_2 C77_2 1_555 1_555
O27_2 C78_2 1_555 1_555
O28_2 C71_2 1_555 1_555
O29_2 C72_2 1_555 1_555
O30_2 C91_2 1_555 1_555
O34_2 C107_2 1_555 1_555
O35_2 C93_2 1_555 1_555
O36_2 C93_2 1_555 1_555
O52 C97_2 1_555 1_555
O38_2 C97_2 1_555 1_555
O39_2 C107_2 1_555 1_555
C56_2 C93_2 1_555 1_555
O40_2 Ho9_2 1_555 1_555
C57_2 O21_2 1_555 1_555
C58_2 C57_2 1_555 1_555
C59_2 C58_2 1_555 1_555
H48_2 C59_2 1_555 1_555
C60_2 C58_2 1_555 1_555
H49_2 C60_2 1_555 1_555
C61_2 C60_2 1_555 1_555
H50_2 C61_2 1_555 1_555
C64_2 C62_2 1_555 1_555
H52_2 C64_2 1_555 1_555
C65_2 C64_2 1_555 1_555
H53_2 C65_2 1_555 1_555
C66_2 C65_2 1_555 1_555
C69_2 O23_2 1_555 1_555
H55_2 C69_2 1_555 1_555
H56_2 C69_2 1_555 1_555
C70_2 C69_2 1_555 1_555
C71_2 C70_2 1_555 1_555
H57_2 C71_2 1_555 1_555
H58_2 C71_2 1_555 1_555
C72_2 C70_2 1_555 1_555
H59_2 C72_2 1_555 1_555
H60_2 C72_2 1_555 1_555
C73_2 C70_2 1_555 1_555
H61_2 C73_2 1_555 1_555
H62_2 C73_2 1_555 1_555
C74_2 O24_2 1_555 1_555
H63_2 C74_2 1_555 1_555
H64_2 C74_2 1_555 1_555
C75_2 C74_2 1_555 1_555
C76_2 C75_2 1_555 1_555
H65_2 C76_2 1_555 1_555
H66_2 C76_2 1_555 1_555
C77_2 C75_2 1_555 1_555
H67_2 C77_2 1_555 1_555
H68_2 C77_2 1_555 1_555
C78_2 C75_2 1_555 1_555
H69_2 C78_2 1_555 1_555
H70_2 C78_2 1_555 1_555
C79_2 H71_2 1_555 1_555
C80_2 O28_2 1_555 1_555
C81_2 C80_2 1_555 1_555
H72_2 C81_2 1_555 1_555
C82_2 C81_2 1_555 1_555
H73_2 C82_2 1_555 1_555
C83_2 O29_2 1_555 1_555
C84_2 C59_2 1_555 1_555
H74_2 C84_2 1_555 1_555
C85_2 O25_2 1_555 1_555
C86_2 C85_2 1_555 1_555
H75_2 C86_2 1_555 1_555
C87_2 O26_2 1_555 1_555
C88_2 C87_2 1_555 1_555
H76_2 C88_2 1_555 1_555
C89_2 O27_2 1_555 1_555
C90_2 C89_2 1_555 1_555
H77_2 C90_2 1_555 1_555
C91_2 C92_2 1_555 1_555
C92_2 C98_2 1_555 1_555
C94_2 C85_2 1_555 1_555
H78_2 C94_2 1_555 1_555
C95_2 C94_2 1_555 1_555
H79_2 C95_2 1_555 1_555
C96_2 C82_2 1_555 1_555
C97_2 C96_2 1_555 1_555
C98_2 C88_2 1_555 1_555
H80_2 C98_2 1_555 1_555
C99_2 C79_2 1_555 1_555
H81_2 C99_2 1_555 1_555
C100_2 C86_2 1_555 1_555
H82_2 C100_2 1_555 1_555
C101_2 C95_2 1_555 1_555
C102_2 C89_2 1_555 1_555
H83_2 C102_2 1_555 1_555
C103_2 C56_2 1_555 1_555
H84_2 C103_2 1_555 1_555
C104_2 C56_2 1_555 1_555
H85_2 C104_2 1_555 1_555
C105_2 C92_2 1_555 1_555
H86_2 C105_2 1_555 1_555
C106_2 O40_2 1_555 1_555
H87_2 C106_2 1_555 1_555
C107_2 C101_2 1_555 1_555
C108_2 C87_2 1_555 1_555
H88_2 C108_2 1_555 1_555
C109_2 N2_2 1_555 1_555
H89_2 C109_2 1_555 1_555
H90_2 C109_2 1_555 1_555
Ho7_3 O32_2 1_555 1_555
Ho11 O35_2 1_555 1_555
Ho16 O22_2 1_555 1_555
O48_3 Ho5_2 1_555 1_555
O50_2 Ho9_2 1_555 1_555
O54_2 Ho9_2 1_555 1_555
O56_2 Ho9_2 1_555 1_555
O30_2 Ho5_3 1_555 1_555
O34_2 Ho7_5 1_555 1_555
O36_2 Ho16 1_555 1_555
C61_2 C83_2 1_555 1_555
C79_2 C80_2 1_555 1_555
C83_2 C84_2 1_555 1_555
C90_2 C104_2 1_555 1_555
C96_2 C99_2 1_555 1_555
C100_2 C101_2 1_555 1_555
C102_2 C103_2 1_555 1_555
C105_2 C108_2 1_555 1_555
H93_2 C110_2 1_555 1_555
H94_2 C110_2 1_555 1_555
O46_3 Ho5_3 1_555 1_555
Ho8_2 O11_2 1_555 1_555
Ho5_4 O12_2 1_555 1_555
N1_2 C51_2 1_555 1_555
Ho8_2 O1_2 1_555 1_555
Ho15 O2_2 1_555 1_555
O1_2 C2_2 1_555 1_555
O2_2 C2_2 1_555 1_555
O3_2 C11_2 1_555 1_555
O4_2 C18_2 1_555 1_555
O5_2 C21_2 1_555 1_555
O6_2 C22_2 1_555 1_555
O7_2 C23_2 1_555 1_555
O8_2 C16_2 1_555 1_555
O9_2 C17_2 1_555 1_555
O10_2 C36_2 1_555 1_555
O14_2 C52_2 1_555 1_555
O15_2 C38_2 1_555 1_555
O16_2 Ho15 1_555 1_555
O52_2 C42_2 1_555 1_555
O18_2 C42_2 1_555 1_555
O19_2 C52_2 1_555 1_555
C1_2 C38_2 1_555 1_555
O20_2 Ho8_2 1_555 1_555
C2_2 C3_2 1_555 1_555
C3_2 C4_2 1_555 1_555
C4_2 H1_2 1_555 1_555
C5_2 C3_2 1_555 1_555
H2_2 C5_2 1_555 1_555
C6_2 C5_2 1_555 1_555
H3_2 C6_2 1_555 1_555
C9_2 C7_2 1_555 1_555
H5_2 C9_2 1_555 1_555
C10_2 C9_2 1_555 1_555
H6_2 C10_2 1_555 1_555
C11_2 C10_2 1_555 1_555
C14_2 O3_2 1_555 1_555
H8_2 C14_2 1_555 1_555
H9_2 C14_2 1_555 1_555
C15_2 C14_2 1_555 1_555
C16_2 C15_2 1_555 1_555
H10_2 C16_2 1_555 1_555
H11_2 C16_2 1_555 1_555
C17_2 C15_2 1_555 1_555
H12_2 C17_2 1_555 1_555
H13_2 C17_2 1_555 1_555
C18_2 C15_2 1_555 1_555
H14_2 C18_2 1_555 1_555
H15_2 C18_2 1_555 1_555
C19_2 O4_2 1_555 1_555
H16_2 C19_2 1_555 1_555
H17_2 C19_2 1_555 1_555
C20_2 C19_2 1_555 1_555
C21_2 C20_2 1_555 1_555
H18_2 C21_2 1_555 1_555
H19_2 C21_2 1_555 1_555
C22_2 C20_2 1_555 1_555
H20_2 C22_2 1_555 1_555
H21_2 C22_2 1_555 1_555
C23_2 C20_2 1_555 1_555
H22_2 C23_2 1_555 1_555
H23_2 C23_2 1_555 1_555
C24_2 H24_2 1_555 1_555
C25_2 O8_2 1_555 1_555
C26_2 C25_2 1_555 1_555
H25_2 C26_2 1_555 1_555
C27_2 C26_2 1_555 1_555
H26_2 C27_2 1_555 1_555
C28_2 O9_2 1_555 1_555
C29_2 C4_2 1_555 1_555
H27_2 C29_2 1_555 1_555
C30_2 O5_2 1_555 1_555
C31_2 C30_2 1_555 1_555
H28_2 C31_2 1_555 1_555
C32_2 O6_2 1_555 1_555
C33_2 C32_2 1_555 1_555
H29_2 C33_2 1_555 1_555
C34_2 O7_2 1_555 1_555
C35_2 C34_2 1_555 1_555
H30_2 C35_2 1_555 1_555
C36_2 C37_2 1_555 1_555
C37_2 C43_2 1_555 1_555
C38_2 O16_2 1_555 1_555
C39_2 C30_2 1_555 1_555
H31_2 C39_2 1_555 1_555
C40_2 C39_2 1_555 1_555
H32_2 C40_2 1_555 1_555
C41_2 C27_2 1_555 1_555
C42_2 C41_2 1_555 1_555
C43_2 C33_2 1_555 1_555
H33_2 C43_2 1_555 1_555
C44_2 C24_2 1_555 1_555
H34_2 C44_2 1_555 1_555
C45_2 C31_2 1_555 1_555
H35_2 C45_2 1_555 1_555
C46_2 C40_2 1_555 1_555
C47_2 C34_2 1_555 1_555
H36_2 C47_2 1_555 1_555
C48_2 C1_2 1_555 1_555
H37_2 C48_2 1_555 1_555
C49_2 C1_2 1_555 1_555
H38_2 C49_2 1_555 1_555
C50_2 C37_2 1_555 1_555
H39_2 C50_2 1_555 1_555
C51_2 O20_2 1_555 1_555
H40_2 C51_2 1_555 1_555
C52_2 C46_2 1_555 1_555
C53_2 C32_2 1_555 1_555
H41_2 C53_2 1_555 1_555
C54_2 N1_2 1_555 1_555
H42_2 C54_2 1_555 1_555
H43_2 C54_2 1_555 1_555
O33_2 Ho8_2 1_555 1_555
C63_2 H51_2 1_555 1_555
C67_2 C63_2 1_555 1_555
H54_2 C67_2 1_555 1_555
C68_2 O33_2 1_555 1_555
Ho5_5 O14_2 1_555 1_555
Ho7_9 O10_2 1_555 1_555
Ho13 O18_2 1_555 1_555
O43_3 Ho5_4 1_555 1_555
O19_2 Ho13 1_555 1_555
C6_2 C28_2 1_555 1_555
C24_2 C25_2 1_555 1_555
C28_2 C29_2 1_555 1_555
C35_2 C49_2 1_555 1_555
C41_2 C44_2 1_555 1_555
C45_2 C46_2 1_555 1_555
C47_2 C48_2 1_555 1_555
C50_2 C53_2 1_555 1_555
O41_3 Ho15_2 1_555 1_555
O51_3 Ho15_2 1_555 1_555
O53_3 Ho15_2 1_555 1_555
H46_2 C55_2 1_555 1_555
H47_2 C55_2 1_555 1_555
O41_4 Ho16 1_555 1_555
O51_4 Ho16 1_555 1_555
O53_4 Ho16 1_555 1_555
O43_4 Ho7_4 1_555 1_555
O48_4 Ho7_8 1_555 1_555
O46_4 Ho7_10 1_555 1_555
N1_3 C51_3 1_555 1_555
Ho10 O1_3 1_555 1_555
O1_3 C2_3 1_555 1_555
O41_3 C2_3 1_555 1_555
O3_3 C11_3 1_555 1_555
O9_3 C17_3 1_555 1_555
O46 C13_3 1_555 1_555
O13_3 C13_3 1_555 1_555
O49_2 C38_3 1_555 1_555
C1_3 C38_3 1_555 1_555
O20_3 Ho10 1_555 1_555
C2_3 C3_3 1_555 1_555
C3_3 C4_3 1_555 1_555
C4_3 H1_3 1_555 1_555
C5_3 C3_3 1_555 1_555
H2_3 C5_3 1_555 1_555
C6_3 C5_3 1_555 1_555
H3_3 C6_3 1_555 1_555
C7_3 C8_3 1_555 1_555
C8_3 H4_3 1_555 1_555
C9_3 C7_3 1_555 1_555
H5_3 C9_3 1_555 1_555
C10_3 C9_3 1_555 1_555
H6_3 C10_3 1_555 1_555
C11_3 C10_3 1_555 1_555
C12_3 C8_3 1_555 1_555
H7_3 C12_3 1_555 1_555
C13_3 C7_3 1_555 1_555
C14_3 O3_3 1_555 1_555
H8_3 C14_3 1_555 1_555
H9_3 C14_3 1_555 1_555
C15_3 C14_3 1_555 1_555
C17_3 C15_3 1_555 1_555
H12_3 C17_3 1_555 1_555
H13_3 C17_3 1_555 1_555
C28_3 O9_3 1_555 1_555
C29_3 C4_3 1_555 1_555
H27_3 C29_3 1_555 1_555
C38_3 O51_3 1_555 1_555
H36_3 C47_3 1_555 1_555
C48_3 C1_3 1_555 1_555
H37_3 C48_3 1_555 1_555
C49_3 C1_3 1_555 1_555
H38_3 C49_3 1_555 1_555
C51_3 O20_3 1_555 1_555
H40_3 C51_3 1_555 1_555
C54_3 N1_3 1_555 1_555
H42_3 C54_3 1_555 1_555
H43_3 C54_3 1_555 1_555
H44_3 C54_3 1_555 1_555
C55_3 N1_3 1_555 1_555
H45_3 C55_3 1_555 1_555
H46_3 C55_3 1_555 1_555
H47_3 C55_3 1_555 1_555
N2_3 C106_3 1_555 1_555
Ho11 O13_3 1_555 1_555
O21_3 Ho11 1_555 1_555
O41_4 C57_3 1_555 1_555
O23_3 C66_3 1_555 1_555
O29_3 C72_3 1_555 1_555
O46_2 C68_3 1_555 1_555
O33_3 Ho10 1_555 1_555
O50_2 C93_3 1_555 1_555
O51_4 C93_3 1_555 1_555
C56_3 C93_3 1_555 1_555
O40_3 Ho11 1_555 1_555
C57_3 O21_3 1_555 1_555
C58_3 C57_3 1_555 1_555
C59_3 C58_3 1_555 1_555
H48_3 C59_3 1_555 1_555
C60_3 C58_3 1_555 1_555
H49_3 C60_3 1_555 1_555
C61_3 C60_3 1_555 1_555
H50_3 C61_3 1_555 1_555
C62_3 C63_3 1_555 1_555
C63_3 H51_3 1_555 1_555
C64_3 C62_3 1_555 1_555
H52_3 C64_3 1_555 1_555
C65_3 C64_3 1_555 1_555
H53_3 C65_3 1_555 1_555
C66_3 C65_3 1_555 1_555
C67_3 C63_3 1_555 1_555
H54_3 C67_3 1_555 1_555
C68_3 O33_3 1_555 1_555
C69_3 O23_3 1_555 1_555
H55_3 C69_3 1_555 1_555
H56_3 C69_3 1_555 1_555
C70_3 C69_3 1_555 1_555
C72_3 C70_3 1_555 1_555
H59_3 C72_3 1_555 1_555
H60_3 C72_3 1_555 1_555
C83_3 O29_3 1_555 1_555
C84_3 C59_3 1_555 1_555
H74_3 C84_3 1_555 1_555
H83_3 C102_3 1_555 1_555
C103_3 C56_3 1_555 1_555
H84_3 C103_3 1_555 1_555
C104_3 C56_3 1_555 1_555
H85_3 C104_3 1_555 1_555
C106_3 O40_3 1_555 1_555
H87_3 C106_3 1_555 1_555
C109_3 N2_3 1_555 1_555
H89_3 C109_3 1_555 1_555
H90_3 C109_3 1_555 1_555
H91_3 C109_3 1_555 1_555
C110_3 N2_3 1_555 1_555
H92_3 C110_3 1_555 1_555
H93_3 C110_3 1_555 1_555
H94_3 C110_3 1_555 1_555
O44 Ho10 1_555 1_555
O45 Ho11 1_555 1_555
C6_3 C28_3 1_555 1_555
C11_3 C12_3 1_555 1_555
C28_3 C29_3 1_555 1_555
C47_3 C48_3 1_555 1_555
C61_3 C83_3 1_555 1_555
C62_3 C68_3 1_555 1_555
C66_3 C67_3 1_555 1_555
C83_3 C84_3 1_555 1_555
C102_3 C103_3 1_555 1_555
O4_3 C18_3 1_555 1_555
O5_3 C21_3 1_555 1_555
O6_3 C22_3 1_555 1_555
O7_3 C23_3 1_555 1_555
O8_3 C16_3 1_555 1_555
O43_2 C36_3 1_555 1_555
O44 C36_3 1_555 1_555
O48 C52_3 1_555 1_555
O53_2 C42_3 1_555 1_555
O54 C42_3 1_555 1_555
O56 C52_3 1_555 1_555
H10_3 C16_3 1_555 1_555
H14_3 C18_3 1_555 1_555
H15_3 C18_3 1_555 1_555
C19_3 O4_3 1_555 1_555
H16_3 C19_3 1_555 1_555
H17_3 C19_3 1_555 1_555
C20_3 C19_3 1_555 1_555
C21_3 C20_3 1_555 1_555
H18_3 C21_3 1_555 1_555
H19_3 C21_3 1_555 1_555
C22_3 C20_3 1_555 1_555
H20_3 C22_3 1_555 1_555
H21_3 C22_3 1_555 1_555
C23_3 C20_3 1_555 1_555
H22_3 C23_3 1_555 1_555
H23_3 C23_3 1_555 1_555
C24_3 H24_3 1_555 1_555
C25_3 O8_3 1_555 1_555
C26_3 C25_3 1_555 1_555
H25_3 C26_3 1_555 1_555
C27_3 C26_3 1_555 1_555
H26_3 C27_3 1_555 1_555
C30_3 O5_3 1_555 1_555
C31_3 C30_3 1_555 1_555
H28_3 C31_3 1_555 1_555
C32_3 O6_3 1_555 1_555
C33_3 C32_3 1_555 1_555
H29_3 C33_3 1_555 1_555
C34_3 O7_3 1_555 1_555
C35_3 C34_3 1_555 1_555
H30_3 C35_3 1_555 1_555
C36_3 C37_3 1_555 1_555
C37_3 C43_3 1_555 1_555
C39_3 C30_3 1_555 1_555
H31_3 C39_3 1_555 1_555
C40_3 C39_3 1_555 1_555
H32_3 C40_3 1_555 1_555
C41_3 C27_3 1_555 1_555
C42_3 C41_3 1_555 1_555
C43_3 C33_3 1_555 1_555
H33_3 C43_3 1_555 1_555
C44_3 C24_3 1_555 1_555
H34_3 C44_3 1_555 1_555
C45_3 C31_3 1_555 1_555
H35_3 C45_3 1_555 1_555
C46_3 C40_3 1_555 1_555
C50_3 C37_3 1_555 1_555
H39_3 C50_3 1_555 1_555
C52_3 C46_3 1_555 1_555
C53_3 C32_3 1_555 1_555
H41_3 C53_3 1_555 1_555
O24_3 C73_3 1_555 1_555
O25_3 C76_3 1_555 1_555
O26_3 C77_3 1_555 1_555
O27_3 C78_3 1_555 1_555
O28_3 C71_3 1_555 1_555
O43 C91_3 1_555 1_555
O45 C91_3 1_555 1_555
O48_2 C107_3 1_555 1_555
O53 C97_3 1_555 1_555
O55 C97_3 1_555 1_555
O57 C107_3 1_555 1_555
H57_3 C71_3 1_555 1_555
H61_3 C73_3 1_555 1_555
H62_3 C73_3 1_555 1_555
C74_3 O24_3 1_555 1_555
H63_3 C74_3 1_555 1_555
H64_3 C74_3 1_555 1_555
C75_3 C74_3 1_555 1_555
C76_3 C75_3 1_555 1_555
H65_3 C76_3 1_555 1_555
H66_3 C76_3 1_555 1_555
C77_3 C75_3 1_555 1_555
H67_3 C77_3 1_555 1_555
H68_3 C77_3 1_555 1_555
C78_3 C75_3 1_555 1_555
H69_3 C78_3 1_555 1_555
H70_3 C78_3 1_555 1_555
C79_3 H71_3 1_555 1_555
C80_3 O28_3 1_555 1_555
C81_3 C80_3 1_555 1_555
H72_3 C81_3 1_555 1_555
C82_3 C81_3 1_555 1_555
H73_3 C82_3 1_555 1_555
C85_3 O25_3 1_555 1_555
C86_3 C85_3 1_555 1_555
H75_3 C86_3 1_555 1_555
C87_3 O26_3 1_555 1_555
C88_3 C87_3 1_555 1_555
H76_3 C88_3 1_555 1_555
C89_3 O27_3 1_555 1_555
C90_3 C89_3 1_555 1_555
H77_3 C90_3 1_555 1_555
C91_3 C92_3 1_555 1_555
C92_3 C98_3 1_555 1_555
C94_3 C85_3 1_555 1_555
H78_3 C94_3 1_555 1_555
C95_3 C94_3 1_555 1_555
H79_3 C95_3 1_555 1_555
C96_3 C82_3 1_555 1_555
C97_3 C96_3 1_555 1_555
C98_3 C88_3 1_555 1_555
H80_3 C98_3 1_555 1_555
C99_3 C79_3 1_555 1_555
H81_3 C99_3 1_555 1_555
C100_3 C86_3 1_555 1_555
H82_3 C100_3 1_555 1_555
C101_3 C95_3 1_555 1_555
C105_3 C92_3 1_555 1_555
H86_3 C105_3 1_555 1_555
C107_3 C101_3 1_555 1_555
C108_3 C87_3 1_555 1_555
H88_3 C108_3 1_555 1_555
C24_3 C25_3 1_555 1_555
C41_3 C44_3 1_555 1_555
C45_3 C46_3 1_555 1_555
C50_3 C53_3 1_555 1_555
C79_3 C80_3 1_555 1_555
C96_3 C99_3 1_555 1_555
C100_3 C101_3 1_555 1_555
C105_3 C108_3 1_555 1_555
H46_4 C55_4 1_555 1_555
H47_4 C55_4 1_555 1_555
N1_4 C51_4 1_555 1_555
Ho12 O1_4 1_555 1_555
O1_4 C2_4 1_555 1_555
O41 C2_4 1_555 1_555
O3_4 C11_4 1_555 1_555
O4_4 C18_4 1_555 1_555
O5_4 C21_4 1_555 1_555
O6_4 C22_4 1_555 1_555
O7_4 C23_4 1_555 1_555
O8_4 C16_4 1_555 1_555
O9_4 C17_4 1_555 1_555
O43_4 C36_4 1_555 1_555
O48_3 C52_4 1_555 1_555
O49 C38_4 1_555 1_555
O53_4 C42_4 1_555 1_555
O54_2 C42_4 1_555 1_555
O56_2 C52_4 1_555 1_555
C1_4 C38_4 1_555 1_555
O20_4 Ho12 1_555 1_555
C2_4 C3_4 1_555 1_555
C3_4 C4_4 1_555 1_555
C4_4 H1_4 1_555 1_555
C5_4 C3_4 1_555 1_555
H2_4 C5_4 1_555 1_555
C6_4 C5_4 1_555 1_555
H3_4 C6_4 1_555 1_555
C9_4 C7_4 1_555 1_555
H5_4 C9_4 1_555 1_555
C10_4 C9_4 1_555 1_555
H6_4 C10_4 1_555 1_555
C11_4 C10_4 1_555 1_555
C14_4 O3_4 1_555 1_555
H8_4 C14_4 1_555 1_555
H9_4 C14_4 1_555 1_555
C15_4 C14_4 1_555 1_555
C16_4 C15_4 1_555 1_555
H10_4 C16_4 1_555 1_555
H11_4 C16_4 1_555 1_555
C17_4 C15_4 1_555 1_555
H12_4 C17_4 1_555 1_555
H13_4 C17_4 1_555 1_555
C18_4 C15_4 1_555 1_555
H14_4 C18_4 1_555 1_555
H15_4 C18_4 1_555 1_555
C19_4 O4_4 1_555 1_555
H16_4 C19_4 1_555 1_555
H17_4 C19_4 1_555 1_555
C20_4 C19_4 1_555 1_555
C21_4 C20_4 1_555 1_555
H18_4 C21_4 1_555 1_555
H19_4 C21_4 1_555 1_555
C22_4 C20_4 1_555 1_555
H20_4 C22_4 1_555 1_555
H21_4 C22_4 1_555 1_555
C23_4 C20_4 1_555 1_555
H22_4 C23_4 1_555 1_555
H23_4 C23_4 1_555 1_555
C24_4 H24_4 1_555 1_555
C25_4 O8_4 1_555 1_555
C26_4 C25_4 1_555 1_555
H25_4 C26_4 1_555 1_555
C27_4 C26_4 1_555 1_555
H26_4 C27_4 1_555 1_555
C28_4 O9_4 1_555 1_555
C29_4 C4_4 1_555 1_555
H27_4 C29_4 1_555 1_555
C30_4 O5_4 1_555 1_555
C31_4 C30_4 1_555 1_555
H28_4 C31_4 1_555 1_555
C32_4 O6_4 1_555 1_555
C33_4 C32_4 1_555 1_555
H29_4 C33_4 1_555 1_555
C34_4 O7_4 1_555 1_555
C35_4 C34_4 1_555 1_555
H30_4 C35_4 1_555 1_555
C36_4 C37_4 1_555 1_555
C37_4 C43_4 1_555 1_555
C38_4 O51 1_555 1_555
C39_4 C30_4 1_555 1_555
H31_4 C39_4 1_555 1_555
C40_4 C39_4 1_555 1_555
H32_4 C40_4 1_555 1_555
C41_4 C27_4 1_555 1_555
C42_4 C41_4 1_555 1_555
C43_4 C33_4 1_555 1_555
H33_4 C43_4 1_555 1_555
C44_4 C24_4 1_555 1_555
H34_4 C44_4 1_555 1_555
C45_4 C31_4 1_555 1_555
H35_4 C45_4 1_555 1_555
C46_4 C40_4 1_555 1_555
C47_4 C34_4 1_555 1_555
H36_4 C47_4 1_555 1_555
C48_4 C1_4 1_555 1_555
H37_4 C48_4 1_555 1_555
C49_4 C1_4 1_555 1_555
H38_4 C49_4 1_555 1_555
C50_4 C37_4 1_555 1_555
H39_4 C50_4 1_555 1_555
C51_4 O20_4 1_555 1_555
H40_4 C51_4 1_555 1_555
C52_4 C46_4 1_555 1_555
C53_4 C32_4 1_555 1_555
H41_4 C53_4 1_555 1_555
C54_4 N1_4 1_555 1_555
H42_4 C54_4 1_555 1_555
H43_4 C54_4 1_555 1_555
O33_4 Ho12 1_555 1_555
C63_4 H51_4 1_555 1_555
C67_4 C63_4 1_555 1_555
H54_4 C67_4 1_555 1_555
C68_4 O33_4 1_555 1_555
O44_2 Ho12 1_555 1_555
C6_4 C28_4 1_555 1_555
C24_4 C25_4 1_555 1_555
C28_4 C29_4 1_555 1_555
C35_4 C49_4 1_555 1_555
C41_4 C44_4 1_555 1_555
C45_4 C46_4 1_555 1_555
C47_4 C48_4 1_555 1_555
C50_4 C53_4 1_555 1_555
H93_4 C110_4 1_555 1_555
H94_4 C110_4 1_555 1_555
O13_4 C13_4 1_555 1_555
C8_4 H4_4 1_555 1_555
C12_4 C8_4 1_555 1_555
H7_4 C12_4 1_555 1_555
N2_4 C106_4 1_555 1_555
Ho13 O13_4 1_555 1_555
O21_4 Ho13 1_555 1_555
O41_2 C57_4 1_555 1_555
O23_4 C66_4 1_555 1_555
O24_4 C73_4 1_555 1_555
O25_4 C76_4 1_555 1_555
O26_4 C77_4 1_555 1_555
O27_4 C78_4 1_555 1_555
O28_4 C71_4 1_555 1_555
O29_4 C72_4 1_555 1_555
O43_3 C91_4 1_555 1_555
O48_4 C107_4 1_555 1_555
O50 C93_4 1_555 1_555
O51_2 C93_4 1_555 1_555
O53_3 C97_4 1_555 1_555
O55_2 C97_4 1_555 1_555
O57_2 C107_4 1_555 1_555
C56_4 C93_4 1_555 1_555
O40_4 Ho13 1_555 1_555
C57_4 O21_4 1_555 1_555
C58_4 C57_4 1_555 1_555
C59_4 C58_4 1_555 1_555
H48_4 C59_4 1_555 1_555
C60_4 C58_4 1_555 1_555
H49_4 C60_4 1_555 1_555
C61_4 C60_4 1_555 1_555
H50_4 C61_4 1_555 1_555
C64_4 C62_4 1_555 1_555
H52_4 C64_4 1_555 1_555
C65_4 C64_4 1_555 1_555
H53_4 C65_4 1_555 1_555
C66_4 C65_4 1_555 1_555
C69_4 O23_4 1_555 1_555
H55_4 C69_4 1_555 1_555
H56_4 C69_4 1_555 1_555
C70_4 C69_4 1_555 1_555
C71_4 C70_4 1_555 1_555
H57_4 C71_4 1_555 1_555
H58_4 C71_4 1_555 1_555
C72_4 C70_4 1_555 1_555
H59_4 C72_4 1_555 1_555
H60_4 C72_4 1_555 1_555
C73_4 C70_4 1_555 1_555
H61_4 C73_4 1_555 1_555
H62_4 C73_4 1_555 1_555
C74_4 O24_4 1_555 1_555
H63_4 C74_4 1_555 1_555
H64_4 C74_4 1_555 1_555
C75_4 C74_4 1_555 1_555
C76_4 C75_4 1_555 1_555
H65_4 C76_4 1_555 1_555
H66_4 C76_4 1_555 1_555
C77_4 C75_4 1_555 1_555
H67_4 C77_4 1_555 1_555
H68_4 C77_4 1_555 1_555
C78_4 C75_4 1_555 1_555
H69_4 C78_4 1_555 1_555
H70_4 C78_4 1_555 1_555
C79_4 H71_4 1_555 1_555
C80_4 O28_4 1_555 1_555
C81_4 C80_4 1_555 1_555
H72_4 C81_4 1_555 1_555
C82_4 C81_4 1_555 1_555
H73_4 C82_4 1_555 1_555
C83_4 O29_4 1_555 1_555
C84_4 C59_4 1_555 1_555
H74_4 C84_4 1_555 1_555
C85_4 O25_4 1_555 1_555
C86_4 C85_4 1_555 1_555
H75_4 C86_4 1_555 1_555
C87_4 O26_4 1_555 1_555
C88_4 C87_4 1_555 1_555
H76_4 C88_4 1_555 1_555
C89_4 O27_4 1_555 1_555
C90_4 C89_4 1_555 1_555
H77_4 C90_4 1_555 1_555
C91_4 C92_4 1_555 1_555
C92_4 C98_4 1_555 1_555
C94_4 C85_4 1_555 1_555
H78_4 C94_4 1_555 1_555
C95_4 C94_4 1_555 1_555
H79_4 C95_4 1_555 1_555
C96_4 C82_4 1_555 1_555
C97_4 C96_4 1_555 1_555
C98_4 C88_4 1_555 1_555
H80_4 C98_4 1_555 1_555
C99_4 C79_4 1_555 1_555
H81_4 C99_4 1_555 1_555
C100_4 C86_4 1_555 1_555
H82_4 C100_4 1_555 1_555
C101_4 C95_4 1_555 1_555
C102_4 C89_4 1_555 1_555
H83_4 C102_4 1_555 1_555
C103_4 C56_4 1_555 1_555
H84_4 C103_4 1_555 1_555
C104_4 C56_4 1_555 1_555
H85_4 C104_4 1_555 1_555
C105_4 C92_4 1_555 1_555
H86_4 C105_4 1_555 1_555
C106_4 O40_4 1_555 1_555
H87_4 C106_4 1_555 1_555
C107_4 C101_4 1_555 1_555
C108_4 C87_4 1_555 1_555
H88_4 C108_4 1_555 1_555
C109_4 N2_4 1_555 1_555
H89_4 C109_4 1_555 1_555
H90_4 C109_4 1_555 1_555
O45_2 Ho13 1_555 1_555
C61_4 C83_4 1_555 1_555
C79_4 C80_4 1_555 1_555
C83_4 C84_4 1_555 1_555
C90_4 C104_4 1_555 1_555
C96_4 C99_4 1_555 1_555
C100_4 C101_4 1_555 1_555
C102_4 C103_4 1_555 1_555
C105_4 C108_4 1_555 1_555

#END
