
###############################################################################
#
# This file contains modified crystal structure data generated from the
# MOF subset of the Cambridge Structural Database (CSD) v543 
# hosted by the Cambridge Crystallographic Data Centre (CCDC).
#
# This work is licensed under the Creative Commons
# Attribution-NonCommercial-ShareAlike 4.0 International License.
# To view a copy of this license, visit
# http://creativecommons.org/licenses/by-nc-sa/4.0/
# or send a letter to
# Creative Commons, PO Box 1866, Mountain View, CA 94042, USA.
#
# CIF created using the CSD Python API on 29 September 2022
# The structure has been converted into the P1 space group
# The structure has a 3D framework
# The original CSD entry ESEZOU is in the monoclinic crystal system
# The framework has been calculated to contain at least 10.0% void space
# The void calculation uses a probe of radius 1.32A, grid spacing 0.4
#
###############################################################################

data_ESEZOU
_chemical_formula_moiety         '(C440 H376 Dy13 N8 O152)n'
_symmetry_cell_setting           triclinic
_symmetry_space_group_name_H-M   'P 1'
_symmetry_Int_Tables_number      1
_space_group_name_Hall           'P 1'
loop_
_symmetry_equiv_pos_site_id
_symmetry_equiv_pos_as_xyz
1 x,y,z
_cell_length_a                   30.412(2)
_cell_length_b                   20.8099(11)
_cell_length_c                   27.2491(18)
_cell_angle_alpha                90
_cell_angle_beta                 107.803(4)
_cell_angle_gamma                90
_cell_volume                     16419.3
loop_
_atom_site_label
_atom_site_type_symbol
_atom_site_fract_x
_atom_site_fract_y
_atom_site_fract_z
Dy8 Dy 0.500000 0.000000 0.000000
Dy10 Dy 0.500000 0.000000 0.500000
Dy8_2 Dy 0.500000 0.000000 1.000000
Dy1 Dy 0.750000 0.750000 0.500000
Dy3 Dy 0.86657(3) 0.60844(3) 0.52028(3)
O1 O 0.8147(5) 0.5686(7) 0.5602(6)
N1 N 0.7711(7) 0.5287(11) 0.6074(8)
C1 C 0.7581(10) 0.5144(15) 0.6579(10)
H1 H 0.731804 0.484891 0.649976
H2 H 0.749912 0.554688 0.671573
H3 H 0.784614 0.494834 0.683565
C2 C 0.7440(10) 0.4795(13) 0.5662(10)
H4 H 0.711228 0.480333 0.564233
H5 H 0.756392 0.436269 0.575972
H6 H 0.747163 0.490810 0.532597
C3 C 0.8125(9) 0.5705(12) 0.5993(10)
H7 H 0.833205 0.594741 0.626023
O2 O 0.6269(3) 0.0723(4) 0.0573(3)
C4 C 0.5952(6) 0.0705(7) 0.0762(5)
O3 O 0.5619(3) 0.0279(4) 0.0623(3)
C5 C 0.6262(5) 0.1626(6) 0.1332(5)
H8 H 0.652378 0.161362 0.121035
O4 O 0.5776(3) 0.2563(4) 0.2186(3)
C6 C 0.6233(5) 0.2105(6) 0.1674(4)
H9 H 0.647022 0.241767 0.178433
O5 O 0.6182(3) 0.2535(4) 0.3385(3)
C7 C 0.5855(5) 0.2123(6) 0.1854(5)
C8 C 0.5518(5) 0.1643(6) 0.1702(5)
H10 H 0.527011 0.162908 0.184525
O7 O 0.5451(4) 0.0322(4) 0.4527(3)
C9 C 0.5549(5) 0.1189(6) 0.1345(5)
H11 H 0.530844 0.088377 0.121926
O8 O 0.6271(3) 0.4212(4) 0.3444(3)
C10 C 0.6150(4) 0.3011(5) 0.2409(4)
H12 H 0.620738 0.328546 0.213853
H13 H 0.643776 0.277633 0.258828
O9 O 0.7934(4) 0.5971(5) 0.4678(5)
C11 C 0.5989(4) 0.3423(5) 0.2797(4)
O10 O 0.7337(3) 0.6465(4) 0.4841(4)
C12 C 0.5811(4) 0.2988(5) 0.3150(4)
H14 H 0.573542 0.324684 0.341833
H15 H 0.552970 0.275617 0.294790
O11 O 0.5777(3) 0.4322(3) 0.2262(3)
C13 C 0.5586(4) 0.3863(5) 0.2520(4)
H16 H 0.533785 0.361578 0.227129
H17 H 0.545624 0.407441 0.277062
O12 O 0.6354(3) 0.2079(4) 0.0180(3)
C14 C 0.6597(5) 0.4656(6) 0.3739(5)
O13 O 0.5720(3) 0.4541(4) 0.1111(3)
C15 C 0.6087(5) 0.2041(6) 0.3667(5)
O14 O 0.7037(3) 0.2555(4) 0.0504(3)
C16 C 0.6395(5) 0.1503(6) 0.3721(5)
H18 H 0.664350 0.149985 0.357729
O15 O 0.5600(3) 0.6204(4) 0.1234(4)
C17 C 0.6303(5) 0.0991(6) 0.3996(5)
H19 H 0.651189 0.063807 0.406325
O16 O 0.4417(3) 0.8698(4) 0.0318(4)
C18 C 0.5928(5) 0.0956(6) 0.4181(5)
O17 O 0.5113(3) 0.8976(4) 0.0290(4)
C19 C 0.5634(5) 0.1468(6) 0.4109(5)
H20 H 0.537706 0.144334 0.423727
O18 O 0.5723(3) 0.6036(4) 0.2437(3)
C20 C 0.5696(5) 0.2035(6) 0.3849(5)
H21 H 0.548921 0.238804 0.379968
O19 O 0.6897(3) 0.7752(5) 0.4322(3)
C21 C 0.5839(6) 0.0357(6) 0.4432(5)
O20 O 0.6219(3) 0.8244(5) 0.4104(3)
C22 C 0.6404(4) 0.3800(5) 0.3095(5)
H22 H 0.665257 0.350536 0.328868
H23 H 0.652230 0.405834 0.285710
C23 C 0.7037(5) 0.4656(6) 0.3712(5)
H24 H 0.713410 0.437681 0.348956
C24 C 0.7344(5) 0.5109(6) 0.4043(5)
H25 H 0.765947 0.511534 0.405720
C25 C 0.7190(5) 0.5532(7) 0.4341(6)
C26 C 0.6724(5) 0.5538(6) 0.4308(5)
H26 H 0.660686 0.586084 0.448093
C27 C 0.6429(5) 0.5067(6) 0.4021(5)
H27 H 0.611824 0.503627 0.402345
C28 C 0.7488(6) 0.6034(7) 0.4628(6)
C29 C 0.5424(4) 0.4774(5) 0.1969(4)
H28 H 0.525402 0.496317 0.219116
H29 H 0.520063 0.455580 0.167395
C30 C 0.5690(5) 0.5297(5) 0.1779(4)
C31 C 0.6006(4) 0.4975(5) 0.1504(4)
H30 H 0.614956 0.530493 0.134050
H31 H 0.625395 0.473121 0.175467
C32 C 0.5351(5) 0.5736(5) 0.1421(5)
H32 H 0.514700 0.548775 0.112977
H33 H 0.515654 0.594857 0.160554
C33 C 0.6007(4) 0.5667(6) 0.2213(5)
H34 H 0.620550 0.537067 0.247207
H35 H 0.620834 0.595267 0.208484
C34 C 0.5705(5) 0.3517(5) 0.0744(5)
H36 H 0.538886 0.348334 0.072652
C35 C 0.6596(4) 0.2540(6) 0.0413(4)
C36 C 0.5914(4) 0.3026(5) 0.0572(4)
H37 H 0.574493 0.264557 0.044401
C37 C 0.6377(4) 0.3075(6) 0.0581(5)
C38 C 0.6613(5) 0.3629(6) 0.0789(5)
H38 H 0.693015 0.366410 0.081142
C39 C 0.6413(5) 0.4122(5) 0.0962(5)
H39 H 0.658428 0.449940 0.109306
C40 C 0.5372(5) 0.6755(6) 0.0988(5)
C41 C 0.4915(5) 0.6885(6) 0.0895(5)
H40 H 0.471863 0.656899 0.096895
C42 C 0.4736(5) 0.7469(6) 0.0696(5)
H41 H 0.441797 0.755594 0.064300
C43 C 0.5006(5) 0.7927(6) 0.0574(6)
C44 C 0.5469(6) 0.7777(7) 0.0673(6)
H42 H 0.566956 0.809197 0.060630
C45 C 0.5652(5) 0.7179(7) 0.0867(6)
H43 H 0.596615 0.707786 0.091206
C46 C 0.4822(6) 0.8577(6) 0.0376(6)
C47 C 0.5928(5) 0.6425(7) 0.2830(5)
C48 C 0.6396(5) 0.6437(7) 0.3097(5)
H44 H 0.659668 0.614554 0.300251
C49 C 0.6580(5) 0.6872(7) 0.3506(5)
H45 H 0.689798 0.684696 0.370035
C50 C 0.6305(5) 0.7331(7) 0.3626(5)
C51 C 0.5821(5) 0.7329(8) 0.3350(5)
H46 H 0.562062 0.763565 0.342778
C52 C 0.5648(5) 0.6865(8) 0.2962(5)
H47 H 0.532628 0.685725 0.278572
C53 C 0.6489(5) 0.7817(7) 0.4048(5)
C54 C 0.5955(5) 0.4072(5) 0.0948(5)
C55 C 0.5934(5) 0.1182(6) 0.1168(5)
O22 O 0.3731(3) 0.0723(4) 0.4427(3)
C59 C 0.4048(6) 0.0705(7) 0.4238(5)
O23 O 0.4381(3) 0.0279(4) 0.4377(3)
C60 C 0.3738(5) 0.1626(6) 0.3668(5)
H55 H 0.347622 0.161362 0.378965
O24 O 0.4224(3) 0.2563(4) 0.2814(3)
C61 C 0.3767(5) 0.2105(6) 0.3326(4)
H56 H 0.352978 0.241767 0.321567
O25 O 0.3818(3) 0.2535(4) 0.1615(3)
C62 C 0.4145(5) 0.2123(6) 0.3146(5)
C63 C 0.4482(5) 0.1643(6) 0.3298(5)
H57 H 0.472989 0.162908 0.315475
O27 O 0.4549(4) 0.0322(4) 0.0473(3)
C64 C 0.4451(5) 0.1189(6) 0.3655(5)
H58 H 0.469156 0.088377 0.378074
O28 O 0.3729(3) 0.4212(4) 0.1556(3)
C65 C 0.3850(4) 0.3011(5) 0.2591(4)
H59 H 0.379262 0.328546 0.286147
H60 H 0.356224 0.277633 0.241172
O29 O 0.2066(4) 0.5971(5) 0.0322(5)
C66 C 0.4011(4) 0.3423(5) 0.2203(4)
O30 O 0.2663(3) 0.6465(4) 0.0159(4)
C67 C 0.4189(4) 0.2988(5) 0.1850(4)
H61 H 0.426458 0.324684 0.158167
H62 H 0.447030 0.275617 0.205210
O31 O 0.4223(3) 0.4322(3) 0.2738(3)
C68 C 0.4414(4) 0.3863(5) 0.2480(4)
H63 H 0.466215 0.361578 0.272871
H64 H 0.454376 0.407441 0.222938
O32 O 0.3646(3) 0.2079(4) 0.4820(3)
C69 C 0.3403(5) 0.4656(6) 0.1261(5)
O33 O 0.4280(3) 0.4541(4) 0.3889(3)
C70 C 0.3913(5) 0.2041(6) 0.1333(5)
O34 O 0.2963(3) 0.2555(4) 0.4496(3)
C71 C 0.3605(5) 0.1503(6) 0.1279(5)
H65 H 0.335650 0.149985 0.142271
O35 O 0.4400(3) 0.6204(4) 0.3766(4)
C72 C 0.3697(5) 0.0991(6) 0.1004(5)
H66 H 0.348811 0.063807 0.093675
O36 O 0.5583(3) 0.8698(4) 0.4682(4)
C73 C 0.4072(5) 0.0956(6) 0.0819(5)
O37 O 0.4887(3) 0.8976(4) 0.4710(4)
C74 C 0.4366(5) 0.1468(6) 0.0891(5)
H67 H 0.462294 0.144334 0.076273
O38 O 0.4277(3) 0.6036(4) 0.2563(3)
C75 C 0.4304(5) 0.2035(6) 0.1151(5)
H68 H 0.451079 0.238804 0.120032
O39 O 0.3103(3) 0.7752(5) 0.0678(3)
C76 C 0.4161(6) 0.0357(6) 0.0568(5)
O40 O 0.3781(3) 0.8244(5) 0.0896(3)
C77 C 0.3596(4) 0.3800(5) 0.1905(5)
H69 H 0.334743 0.350536 0.171132
H70 H 0.347770 0.405834 0.214290
C78 C 0.2963(5) 0.4656(6) 0.1288(5)
H71 H 0.286590 0.437681 0.151044
C79 C 0.2656(5) 0.5109(6) 0.0957(5)
H72 H 0.234053 0.511534 0.094280
C80 C 0.2810(5) 0.5532(7) 0.0659(6)
C81 C 0.3276(5) 0.5538(6) 0.0692(5)
H73 H 0.339314 0.586084 0.051907
C82 C 0.3571(5) 0.5067(6) 0.0979(5)
H74 H 0.388176 0.503627 0.097655
C83 C 0.2512(6) 0.6034(7) 0.0372(6)
C84 C 0.4576(4) 0.4774(5) 0.3031(4)
H75 H 0.474598 0.496317 0.280884
H76 H 0.479937 0.455580 0.332605
C85 C 0.4310(5) 0.5297(5) 0.3221(4)
C86 C 0.3994(4) 0.4975(5) 0.3496(4)
H77 H 0.385044 0.530493 0.365950
H78 H 0.374605 0.473121 0.324533
C87 C 0.4649(5) 0.5736(5) 0.3579(5)
H79 H 0.485300 0.548775 0.387023
H80 H 0.484346 0.594857 0.339446
C88 C 0.3993(4) 0.5667(6) 0.2787(5)
H81 H 0.379450 0.537067 0.252793
H82 H 0.379166 0.595267 0.291516
C89 C 0.4295(5) 0.3517(5) 0.4256(5)
H83 H 0.461114 0.348334 0.427348
C90 C 0.3404(4) 0.2540(6) 0.4587(4)
C91 C 0.4086(4) 0.3026(5) 0.4428(4)
H84 H 0.425507 0.264557 0.455599
C92 C 0.3623(4) 0.3075(6) 0.4419(5)
C93 C 0.3387(5) 0.3629(6) 0.4211(5)
H85 H 0.306985 0.366410 0.418858
C94 C 0.3587(5) 0.4122(5) 0.4038(5)
H86 H 0.341572 0.449940 0.390694
C95 C 0.4628(5) 0.6755(6) 0.4012(5)
C96 C 0.5085(5) 0.6885(6) 0.4105(5)
H87 H 0.528137 0.656899 0.403105
C97 C 0.5264(5) 0.7469(6) 0.4304(5)
H88 H 0.558203 0.755594 0.435700
C98 C 0.4994(5) 0.7927(6) 0.4426(6)
C99 C 0.4531(6) 0.7777(7) 0.4327(6)
H89 H 0.433044 0.809197 0.439370
C100 C 0.4348(5) 0.7179(7) 0.4133(6)
H90 H 0.403385 0.707786 0.408794
C101 C 0.5178(6) 0.8577(6) 0.4624(6)
C102 C 0.4072(5) 0.6425(7) 0.2170(5)
C103 C 0.3604(5) 0.6437(7) 0.1903(5)
H91 H 0.340332 0.614554 0.199749
C104 C 0.3420(5) 0.6872(7) 0.1494(5)
H92 H 0.310202 0.684696 0.129965
C105 C 0.3695(5) 0.7331(7) 0.1374(5)
C106 C 0.4179(5) 0.7329(8) 0.1650(5)
H93 H 0.437938 0.763565 0.157222
C107 C 0.4352(5) 0.6865(8) 0.2038(5)
H94 H 0.467372 0.685725 0.221428
C108 C 0.3511(5) 0.7817(7) 0.0952(5)
C109 C 0.4045(5) 0.4072(5) 0.4052(5)
C110 C 0.4066(5) 0.1182(6) 0.3832(5)
Dy5 Dy 0.250000 0.750000 0.000000
Dy6 Dy 0.250000 0.250000 0.500000
Dy7 Dy 0.750000 0.250000 0.000000
Dy8_3 Dy 0.500000 1.000000 0.000000
Dy10_2 Dy 0.500000 1.000000 0.500000
Dy11 Dy 0.36657(3) 0.10844(3) 0.52028(3)
Dy14 Dy 0.63343(3) 0.89156(3) 0.47972(3)
Dy16 Dy 0.36657(3) 0.89156(3) 0.02028(3)
O41 O 0.1269(3) 0.5723(4) 0.0573(3)
O42 O 0.8731(3) 0.5723(4) 0.4427(3)
O44 O 0.8875(3) 0.5084(4) 0.5469(4)
O47 O 0.7663(3) 0.8535(4) 0.5159(4)
O48 O 0.1354(3) 0.7079(4) 0.0180(3)
O49 O 0.8646(3) 0.7079(4) 0.4820(3)
O50 O 0.7963(3) 0.7555(4) 0.4496(3)
O51 O 0.7037(3) 0.7445(4) 0.5504(3)
O53 O 0.9417(3) 0.6302(4) 0.5318(4)
O56 O 0.8103(3) 0.7248(5) 0.5678(3)
O57 O 0.8781(3) 0.6756(5) 0.5896(3)
Dy4 Dy 0.13343(3) 0.60844(3) 0.97972(3)
O21 O 0.1853(5) 0.5686(7) 0.9398(6)
N2 N 0.2289(7) 0.5287(11) 0.8926(8)
C56 C 0.2419(10) 0.5144(15) 0.8421(10)
H48 H 0.268196 0.484891 0.850024
H49 H 0.250088 0.554688 0.828427
H50 H 0.215386 0.494834 0.816435
C57 C 0.2560(10) 0.4795(13) 0.9338(10)
H51 H 0.288772 0.480333 0.935767
H52 H 0.243608 0.436269 0.924028
H53 H 0.252837 0.490810 0.967403
C58 C 0.1875(9) 0.5705(12) 0.9007(10)
H54 H 0.166795 0.594741 0.873977
Dy5_2 Dy 0.250000 0.750000 1.000000
Dy7_2 Dy 0.750000 0.250000 1.000000
Dy8_4 Dy 0.500000 1.000000 1.000000
Dy12 Dy 0.63343(3) 0.10844(3) 0.97972(3)
O45 O 0.1125(3) 0.5084(4) 0.9531(4)
O52 O 0.0583(3) 0.6302(4) 0.9682(4)
O55 O 0.4887(3) 0.1024(4) 0.9710(4)
O58 O 0.1219(3) 0.6756(5) 0.9104(3)
O6 O 0.6125(3) 0.9916(4) 0.4531(4)
O26 O 0.3875(3) 0.9916(4) 0.0469(4)
O43 O 0.4381(3) 0.9721(4) 0.9377(3)
O46 O 0.5451(4) 0.9678(4) 0.9527(3)
O50_2 O 0.2037(3) 0.7555(4) 0.0504(3)
O55_2 O 0.5113(3) 0.1024(4) 0.5290(4)
O47_2 O 0.2337(3) 0.8535(4) 0.9841(4)
O51_2 O 0.2963(3) 0.7445(4) 0.9496(3)
O56_2 O 0.1897(3) 0.7248(5) 0.9322(3)
O43_2 O 0.5619(3) 0.9721(4) 0.5623(3)
O46_2 O 0.4549(4) 0.9678(4) 0.5473(3)
O1_2 O 0.3147(5) 0.0686(7) 0.5602(6)
N1_2 N 0.2711(7) 0.0287(11) 0.6074(8)
C1_2 C 0.2581(10) 0.0144(15) 0.6579(10)
H2_2 H 0.249912 0.054688 0.671573
C3_2 C 0.3125(9) 0.0705(12) 0.5993(10)
H7_2 H 0.333205 0.094741 0.626023
O9_2 O 0.2934(4) 0.0971(5) 0.4678(5)
O10_2 O 0.2337(3) 0.1465(4) 0.4841(4)
O15_2 O 0.0600(3) 0.1204(4) 0.1234(4)
O17_2 O 0.0113(3) 0.3976(4) 0.0290(4)
O18_2 O 0.0723(3) 0.1036(4) 0.2437(3)
O19_2 O 0.1897(3) 0.2752(5) 0.4322(3)
O20_2 O 0.1219(3) 0.3244(5) 0.4104(3)
C24_2 C 0.2344(5) 0.0109(6) 0.4043(5)
H25_2 H 0.265947 0.011534 0.405720
C25_2 C 0.2190(5) 0.0532(7) 0.4341(6)
C26_2 C 0.1724(5) 0.0538(6) 0.4308(5)
H26_2 H 0.160686 0.086084 0.448093
C27_2 C 0.1429(5) 0.0067(6) 0.4021(5)
H27_2 H 0.111824 0.003627 0.402345
C28_2 C 0.2488(6) 0.1034(7) 0.4628(6)
C30_2 C 0.0690(5) 0.0297(5) 0.1779(4)
H30_2 H 0.114956 0.030493 0.134050
C32_2 C 0.0351(5) 0.0736(5) 0.1421(5)
H32_2 H 0.014700 0.048775 0.112977
H33_2 H 0.015654 0.094857 0.160554
C33_2 C 0.1007(4) 0.0667(6) 0.2213(5)
H34_2 H 0.120550 0.037067 0.247207
H35_2 H 0.120834 0.095267 0.208484
C40_2 C 0.0372(5) 0.1755(6) 0.0988(5)
C43_2 C 0.0006(5) 0.2927(6) 0.0574(6)
C44_2 C 0.0469(6) 0.2777(7) 0.0673(6)
H42_2 H 0.066956 0.309197 0.060630
C45_2 C 0.0652(5) 0.2179(7) 0.0867(6)
H43_2 H 0.096615 0.207786 0.091206
C47_2 C 0.0928(5) 0.1425(7) 0.2830(5)
C48_2 C 0.1396(5) 0.1437(7) 0.3097(5)
H44_2 H 0.159668 0.114554 0.300251
C49_2 C 0.1580(5) 0.1872(7) 0.3506(5)
H45_2 H 0.189798 0.184696 0.370035
C50_2 C 0.1305(5) 0.2331(7) 0.3626(5)
C51_2 C 0.0821(5) 0.2329(8) 0.3350(5)
H46_2 H 0.062062 0.263565 0.342778
C52_2 C 0.0648(5) 0.1865(8) 0.2962(5)
H47_2 H 0.032628 0.185725 0.278572
C53_2 C 0.1489(5) 0.2817(7) 0.4048(5)
O36_2 O 0.0583(3) 0.3698(4) 0.4682(4)
C96_2 C 0.0085(5) 0.1885(6) 0.4105(5)
H87_2 H 0.028137 0.156899 0.403105
C97_2 C 0.0264(5) 0.2469(6) 0.4304(5)
H88_2 H 0.058203 0.255594 0.435700
C101_2 C 0.0178(6) 0.3577(6) 0.4624(6)
Dy8_5 Dy -0.000000 0.500000 0.000000
Dy10_3 Dy -0.000000 0.500000 0.500000
Dy14_2 Dy 0.13343(3) 0.39156(3) 0.47972(3)
O44_2 O 0.3875(3) 0.0084(4) 0.5469(4)
O47_3 O 0.2663(3) 0.3535(4) 0.5159(4)
O51_3 O 0.2037(3) 0.2445(4) 0.5504(3)
O53_2 O 0.4417(3) 0.1302(4) 0.5318(4)
O56_3 O 0.3103(3) 0.2248(5) 0.5678(3)
O57_2 O 0.3781(3) 0.1756(5) 0.5896(3)
Dy8_6 Dy -0.000000 0.500000 1.000000
H1_2 H 0.231804 0.984891 0.649976
H3_2 H 0.284614 0.994834 0.683565
C2_2 C 0.2440(10) 0.9795(13) 0.5662(10)
H4_2 H 0.211228 0.980333 0.564233
H5_2 H 0.256392 0.936269 0.575972
H6_2 H 0.247163 0.990810 0.532597
C4_2 C 0.0952(6) 0.5705(7) 0.0762(5)
O3_2 O 0.0619(3) 0.5279(4) 0.0623(3)
C5_2 C 0.1262(5) 0.6626(6) 0.1332(5)
H8_2 H 0.152378 0.661362 0.121035
O4_2 O 0.0776(3) 0.7563(4) 0.2186(3)
C6_2 C 0.1233(5) 0.7105(6) 0.1674(4)
H9_2 H 0.147022 0.741767 0.178433
O5_2 O 0.1182(3) 0.7535(4) 0.3385(3)
C7_2 C 0.0855(5) 0.7123(6) 0.1854(5)
O6_2 O 0.1125(3) 0.4916(4) 0.4531(4)
C8_2 C 0.0518(5) 0.6643(6) 0.1702(5)
H10_2 H 0.027011 0.662908 0.184525
O7_2 O 0.0451(4) 0.5322(4) 0.4527(3)
C9_2 C 0.0549(5) 0.6189(6) 0.1345(5)
H11_2 H 0.030844 0.588377 0.121926
O8_2 O 0.1271(3) 0.9212(4) 0.3444(3)
C10_2 C 0.1150(4) 0.8011(5) 0.2409(4)
H12_2 H 0.120738 0.828546 0.213853
H13_2 H 0.143776 0.777633 0.258828
C11_2 C 0.0989(4) 0.8423(5) 0.2797(4)
C12_2 C 0.0811(4) 0.7988(5) 0.3150(4)
H14_2 H 0.073542 0.824684 0.341833
H15_2 H 0.052970 0.775617 0.294790
O11_2 O 0.0777(3) 0.9322(3) 0.2262(3)
C13_2 C 0.0586(4) 0.8863(5) 0.2520(4)
H16_2 H 0.033785 0.861578 0.227129
H17_2 H 0.045624 0.907441 0.277062
C14_2 C 0.1597(5) 0.9656(6) 0.3739(5)
O13_2 O 0.0720(3) 0.9541(4) 0.1111(3)
C15_2 C 0.1087(5) 0.7041(6) 0.3667(5)
C16_2 C 0.1395(5) 0.6503(6) 0.3721(5)
H18_2 H 0.164350 0.649985 0.357729
C17_2 C 0.1303(5) 0.5991(6) 0.3996(5)
H19_2 H 0.151189 0.563807 0.406325
C18_2 C 0.0928(5) 0.5956(6) 0.4181(5)
C19_2 C 0.0634(5) 0.6468(6) 0.4109(5)
H20_2 H 0.037706 0.644334 0.423727
C20_2 C 0.0696(5) 0.7035(6) 0.3849(5)
H21_2 H 0.048921 0.738804 0.379968
C21_2 C 0.0839(6) 0.5357(6) 0.4432(5)
C22_2 C 0.1404(4) 0.8800(5) 0.3095(5)
H22_2 H 0.165257 0.850536 0.328868
H23_2 H 0.152230 0.905834 0.285710
C23_2 C 0.2037(5) 0.9656(6) 0.3712(5)
H24_2 H 0.213410 0.937681 0.348956
C29_2 C 0.0424(4) 0.9774(5) 0.1969(4)
H28_2 H 0.025402 0.996317 0.219116
H29_2 H 0.020063 0.955580 0.167395
C31_2 C 0.1006(4) 0.9975(5) 0.1504(4)
H31_2 H 0.125395 0.973121 0.175467
C34_2 C 0.0705(5) 0.8517(5) 0.0744(5)
H36_2 H 0.038886 0.848334 0.072652
C35_2 C 0.1596(4) 0.7540(6) 0.0413(4)
C36_2 C 0.0914(4) 0.8026(5) 0.0572(4)
H37_2 H 0.074493 0.764557 0.044401
C37_2 C 0.1377(4) 0.8075(6) 0.0581(5)
C38_2 C 0.1613(5) 0.8629(6) 0.0789(5)
H38_2 H 0.193015 0.866410 0.081142
C39_2 C 0.1413(5) 0.9122(5) 0.0962(5)
H39_2 H 0.158428 0.949940 0.109306
C54_2 C 0.0955(5) 0.9072(5) 0.0948(5)
C55_2 C 0.0934(5) 0.6182(6) 0.1168(5)
O46_3 O 0.0451(4) 0.4678(4) 0.9527(3)
O16_2 O 0.9417(3) 0.3698(4) 0.0318(4)
C41_2 C 0.9915(5) 0.1885(6) 0.0895(5)
H40_2 H 0.971863 0.156899 0.096895
C42_2 C 0.9736(5) 0.2469(6) 0.0696(5)
H41_2 H 0.941797 0.255594 0.064300
C46_2 C 0.9822(6) 0.3577(6) 0.0376(6)
O29_2 O 0.7066(4) 0.0971(5) 0.0322(5)
O30_2 O 0.7663(3) 0.1465(4) 0.0159(4)
O35_2 O 0.9400(3) 0.1204(4) 0.3766(4)
O37_2 O 0.9887(3) 0.3976(4) 0.4710(4)
O38_2 O 0.9277(3) 0.1036(4) 0.2563(3)
O39_2 O 0.8103(3) 0.2752(5) 0.0678(3)
O40_2 O 0.8781(3) 0.3244(5) 0.0896(3)
C79_2 C 0.7656(5) 0.0109(6) 0.0957(5)
H72_2 H 0.734053 0.011534 0.094280
C80_2 C 0.7810(5) 0.0532(7) 0.0659(6)
C81_2 C 0.8276(5) 0.0538(6) 0.0692(5)
H73_2 H 0.839314 0.086084 0.051907
C82_2 C 0.8571(5) 0.0067(6) 0.0979(5)
H74_2 H 0.888176 0.003627 0.097655
C83_2 C 0.7512(6) 0.1034(7) 0.0372(6)
C85_2 C 0.9310(5) 0.0297(5) 0.3221(4)
H77_2 H 0.885044 0.030493 0.365950
C87_2 C 0.9649(5) 0.0736(5) 0.3579(5)
H79_2 H 0.985300 0.048775 0.387023
H80_2 H 0.984346 0.094857 0.339446
C88_2 C 0.8993(4) 0.0667(6) 0.2787(5)
H81_2 H 0.879450 0.037067 0.252793
H82_2 H 0.879166 0.095267 0.291516
C95_2 C 0.9628(5) 0.1755(6) 0.4012(5)
C98_2 C 0.9994(5) 0.2927(6) 0.4426(6)
C99_2 C 0.9531(6) 0.2777(7) 0.4327(6)
H89_2 H 0.933044 0.309197 0.439370
C100_2 C 0.9348(5) 0.2179(7) 0.4133(6)
H90_2 H 0.903385 0.207786 0.408794
C102_2 C 0.9072(5) 0.1425(7) 0.2170(5)
C103_2 C 0.8604(5) 0.1437(7) 0.1903(5)
H91_2 H 0.840332 0.114554 0.199749
C104_2 C 0.8420(5) 0.1872(7) 0.1494(5)
H92_2 H 0.810202 0.184696 0.129965
C105_2 C 0.8695(5) 0.2331(7) 0.1374(5)
C106_2 C 0.9179(5) 0.2329(8) 0.1650(5)
H93_2 H 0.937938 0.263565 0.157222
C107_2 C 0.9352(5) 0.1865(8) 0.2038(5)
H94_2 H 0.967372 0.185725 0.221428
C108_2 C 0.8511(5) 0.2817(7) 0.0952(5)
Dy8_7 Dy 1.000000 0.500000 0.000000
Dy10_4 Dy 1.000000 0.500000 0.500000
Dy16_2 Dy 0.86657(3) 0.39156(3) 0.02028(3)
O21_2 O 0.6853(5) 0.0686(7) 0.9398(6)
N2_2 N 0.7289(7) 0.0287(11) 0.8926(8)
C56_2 C 0.7419(10) 0.0144(15) 0.8421(10)
H49_2 H 0.750088 0.054688 0.828427
C58_2 C 0.6875(9) 0.0705(12) 0.9007(10)
H54_2 H 0.666795 0.094741 0.873977
Dy8_8 Dy 1.000000 0.500000 1.000000
O45_2 O 0.6125(3) 0.0084(4) 0.9531(4)
O52_2 O 0.5583(3) 0.1302(4) 0.9682(4)
O58_2 O 0.6219(3) 0.1756(5) 0.9104(3)
C59_2 C 0.9048(6) 0.5705(7) 0.4238(5)
O23_2 O 0.9381(3) 0.5279(4) 0.4377(3)
C60_2 C 0.8738(5) 0.6626(6) 0.3668(5)
H55_2 H 0.847622 0.661362 0.378965
O24_2 O 0.9224(3) 0.7563(4) 0.2814(3)
C61_2 C 0.8767(5) 0.7105(6) 0.3326(4)
H56_2 H 0.852978 0.741767 0.321567
O25_2 O 0.8818(3) 0.7535(4) 0.1615(3)
C62_2 C 0.9145(5) 0.7123(6) 0.3146(5)
O26_2 O 0.8875(3) 0.4916(4) 0.0469(4)
C63_2 C 0.9482(5) 0.6643(6) 0.3298(5)
H57_2 H 0.972989 0.662908 0.315475
O27_2 O 0.9549(4) 0.5322(4) 0.0473(3)
C64_2 C 0.9451(5) 0.6189(6) 0.3655(5)
H58_2 H 0.969156 0.588377 0.378074
O28_2 O 0.8729(3) 0.9212(4) 0.1556(3)
C65_2 C 0.8850(4) 0.8011(5) 0.2591(4)
H59_2 H 0.879262 0.828546 0.286147
H60_2 H 0.856224 0.777633 0.241172
C66_2 C 0.9011(4) 0.8423(5) 0.2203(4)
C67_2 C 0.9189(4) 0.7988(5) 0.1850(4)
H61_2 H 0.926458 0.824684 0.158167
H62_2 H 0.947030 0.775617 0.205210
O31_2 O 0.9223(3) 0.9322(3) 0.2738(3)
C68_2 C 0.9414(4) 0.8863(5) 0.2480(4)
H63_2 H 0.966215 0.861578 0.272871
H64_2 H 0.954376 0.907441 0.222938
C69_2 C 0.8403(5) 0.9656(6) 0.1261(5)
O33_2 O 0.9280(3) 0.9541(4) 0.3889(3)
C70_2 C 0.8913(5) 0.7041(6) 0.1333(5)
C71_2 C 0.8605(5) 0.6503(6) 0.1279(5)
H65_2 H 0.835650 0.649985 0.142271
C72_2 C 0.8697(5) 0.5991(6) 0.1004(5)
H66_2 H 0.848811 0.563807 0.093675
C73_2 C 0.9072(5) 0.5956(6) 0.0819(5)
C74_2 C 0.9366(5) 0.6468(6) 0.0891(5)
H67_2 H 0.962294 0.644334 0.076273
C75_2 C 0.9304(5) 0.7035(6) 0.1151(5)
H68_2 H 0.951079 0.738804 0.120032
C76_2 C 0.9161(6) 0.5357(6) 0.0568(5)
C77_2 C 0.8596(4) 0.8800(5) 0.1905(5)
H69_2 H 0.834743 0.850536 0.171132
H70_2 H 0.847770 0.905834 0.214290
C78_2 C 0.7963(5) 0.9656(6) 0.1288(5)
H71_2 H 0.786590 0.937681 0.151044
C84_2 C 0.9576(4) 0.9774(5) 0.3031(4)
H75_2 H 0.974598 0.996317 0.280884
H76_2 H 0.979937 0.955580 0.332605
C86_2 C 0.8994(4) 0.9975(5) 0.3496(4)
H78_2 H 0.874605 0.973121 0.324533
C89_2 C 0.9295(5) 0.8517(5) 0.4256(5)
H83_2 H 0.961114 0.848334 0.427348
C90_2 C 0.8404(4) 0.7540(6) 0.4587(4)
C91_2 C 0.9086(4) 0.8026(5) 0.4428(4)
H84_2 H 0.925507 0.764557 0.455599
C92_2 C 0.8623(4) 0.8075(6) 0.4419(5)
C93_2 C 0.8387(5) 0.8629(6) 0.4211(5)
H85_2 H 0.806985 0.866410 0.418858
C94_2 C 0.8587(5) 0.9122(5) 0.4038(5)
H86_2 H 0.841572 0.949940 0.390694
C109_2 C 0.9045(5) 0.9072(5) 0.4052(5)
C110_2 C 0.9066(5) 0.6182(6) 0.3832(5)
H48_2 H 0.768196 0.984891 0.850024
H50_2 H 0.715386 0.994834 0.816435
C57_2 C 0.7560(10) 0.9795(13) 0.9338(10)
H51_2 H 0.788772 0.980333 0.935767
H52_2 H 0.743608 0.936269 0.924028
H53_2 H 0.752837 0.990810 0.967403
O43_3 O 0.9381(3) 0.4721(4) 0.9377(3)
O55_3 O 0.9887(3) 0.6024(4) 0.9710(4)
O43_4 O 0.0619(3) 0.4721(4) 0.5623(3)
O55_4 O 0.0113(3) 0.6024(4) 0.5290(4)
O47_4 O 0.7337(3) 0.3535(4) 0.9841(4)
O51_4 O 0.7963(3) 0.2445(4) 0.9496(3)
O56_4 O 0.6897(3) 0.2248(5) 0.9322(3)
O46_4 O 0.9549(4) 0.4678(4) 0.5473(3)
O21_3 O 0.8147(5) 0.4314(7) 0.0602(6)
N2_3 N 0.7711(7) 0.4713(11) 0.1074(8)
C56_3 C 0.7581(10) 0.4856(15) 0.1579(10)
H48_3 H 0.731804 0.515109 0.149976
H49_3 H 0.749912 0.445312 0.171573
H50_3 H 0.784614 0.505166 0.183565
C57_3 C 0.7440(10) 0.5205(13) 0.0662(10)
H51_3 H 0.711228 0.519667 0.064233
H52_3 H 0.756392 0.563731 0.075972
H53_3 H 0.747163 0.509190 0.032597
C58_3 C 0.8125(9) 0.4295(12) 0.0993(10)
H54_3 H 0.833205 0.405259 0.126023
O1_3 O 0.1853(5) 0.4314(7) 0.4398(6)
N1_3 N 0.2289(7) 0.4713(11) 0.3926(8)
C1_3 C 0.2419(10) 0.4856(15) 0.3421(10)
H1_3 H 0.268196 0.515109 0.350024
H2_3 H 0.250088 0.445312 0.328427
H3_3 H 0.215386 0.505166 0.316435
C2_3 C 0.2560(10) 0.5205(13) 0.4338(10)
H4_3 H 0.288772 0.519667 0.435767
H5_3 H 0.243608 0.563731 0.424028
H6_3 H 0.252837 0.509190 0.467403
C3_3 C 0.1875(9) 0.4295(12) 0.4007(10)
H7_3 H 0.166795 0.405259 0.373977
O2_2 O 0.3731(3) 0.9277(4) 0.9427(3)
C4_3 C 0.4048(6) 0.9295(7) 0.9238(5)
C5_3 C 0.3738(5) 0.8374(6) 0.8668(5)
H8_3 H 0.347622 0.838638 0.878965
O4_3 O 0.4224(3) 0.7437(4) 0.7814(3)
C6_3 C 0.3767(5) 0.7895(6) 0.8326(4)
H9_3 H 0.352978 0.758233 0.821567
O5_3 O 0.3818(3) 0.7465(4) 0.6615(3)
C7_3 C 0.4145(5) 0.7877(6) 0.8146(5)
C8_3 C 0.4482(5) 0.8357(6) 0.8298(5)
H10_3 H 0.472989 0.837092 0.815475
C9_3 C 0.4451(5) 0.8811(6) 0.8655(5)
H11_3 H 0.469156 0.911623 0.878074
O8_3 O 0.3729(3) 0.5788(4) 0.6556(3)
C10_3 C 0.3850(4) 0.6989(5) 0.7591(4)
H12_3 H 0.379262 0.671454 0.786147
H13_3 H 0.356224 0.722367 0.741172
O9_3 O 0.2066(4) 0.4029(5) 0.5322(5)
C11_3 C 0.4011(4) 0.6577(5) 0.7203(4)
C12_3 C 0.4189(4) 0.7012(5) 0.6850(4)
H14_3 H 0.426458 0.675316 0.658167
H15_3 H 0.447030 0.724383 0.705210
O11_3 O 0.4223(3) 0.5678(3) 0.7738(3)
C13_3 C 0.4414(4) 0.6137(5) 0.7480(4)
H16_3 H 0.466215 0.638422 0.772871
H17_3 H 0.454376 0.592559 0.722938
O12_2 O 0.3646(3) 0.7921(4) 0.9820(3)
C14_3 C 0.3403(5) 0.5344(6) 0.6261(5)
O13_3 O 0.4280(3) 0.5459(4) 0.8889(3)
C15_3 C 0.3913(5) 0.7959(6) 0.6333(5)
C16_3 C 0.3605(5) 0.8497(6) 0.6279(5)
H18_3 H 0.335650 0.850015 0.642271
O15_3 O 0.4400(3) 0.3796(4) 0.8766(4)
C17_3 C 0.3697(5) 0.9009(6) 0.6004(5)
H19_3 H 0.348811 0.936193 0.593675
C18_3 C 0.4072(5) 0.9044(6) 0.5819(5)
C19_3 C 0.4366(5) 0.8532(6) 0.5891(5)
H20_3 H 0.462294 0.855666 0.576273
O18_3 O 0.4277(3) 0.3964(4) 0.7563(3)
C20_3 C 0.4304(5) 0.7965(6) 0.6151(5)
H21_3 H 0.451079 0.761196 0.620032
C21_3 C 0.4161(6) 0.9643(6) 0.5568(5)
C22_3 C 0.3596(4) 0.6200(5) 0.6905(5)
H22_3 H 0.334743 0.649464 0.671132
H23_3 H 0.347770 0.594166 0.714290
C23_3 C 0.2963(5) 0.5344(6) 0.6288(5)
H24_3 H 0.286590 0.562319 0.651044
C24_3 C 0.2656(5) 0.4891(6) 0.5957(5)
H25_3 H 0.234053 0.488466 0.594280
C25_3 C 0.2810(5) 0.4468(7) 0.5659(6)
C26_3 C 0.3276(5) 0.4462(6) 0.5692(5)
H26_3 H 0.339314 0.413916 0.551907
C27_3 C 0.3571(5) 0.4933(6) 0.5979(5)
H27_3 H 0.388176 0.496373 0.597655
C28_3 C 0.2512(6) 0.3966(7) 0.5372(6)
C29_3 C 0.4576(4) 0.5226(5) 0.8031(4)
H28_3 H 0.474598 0.503683 0.780884
H29_3 H 0.479937 0.544420 0.832605
C30_3 C 0.4310(5) 0.4703(5) 0.8221(4)
C31_3 C 0.3994(4) 0.5025(5) 0.8496(4)
H30_3 H 0.385044 0.469507 0.865950
H31_3 H 0.374605 0.526879 0.824533
C32_3 C 0.4649(5) 0.4264(5) 0.8579(5)
H32_3 H 0.485300 0.451225 0.887023
H33_3 H 0.484346 0.405143 0.839446
C33_3 C 0.3993(4) 0.4333(6) 0.7787(5)
H34_3 H 0.379450 0.462933 0.752793
H35_3 H 0.379166 0.404733 0.791516
C34_3 C 0.4295(5) 0.6483(5) 0.9256(5)
H36_3 H 0.461114 0.651666 0.927348
C35_3 C 0.3404(4) 0.7460(6) 0.9587(4)
C36_3 C 0.4086(4) 0.6974(5) 0.9428(4)
H37_3 H 0.425507 0.735443 0.955599
C37_3 C 0.3623(4) 0.6925(6) 0.9419(5)
C38_3 C 0.3387(5) 0.6371(6) 0.9211(5)
H38_3 H 0.306985 0.633590 0.918858
C39_3 C 0.3587(5) 0.5878(5) 0.9038(5)
H39_3 H 0.341572 0.550060 0.890694
C40_3 C 0.4628(5) 0.3245(6) 0.9012(5)
C41_3 C 0.5085(5) 0.3115(6) 0.9105(5)
H40_3 H 0.528137 0.343101 0.903105
C42_3 C 0.5264(5) 0.2531(6) 0.9304(5)
H41_3 H 0.558203 0.244406 0.935700
C43_3 C 0.4994(5) 0.2073(6) 0.9426(6)
C44_3 C 0.4531(6) 0.2223(7) 0.9327(6)
H42_3 H 0.433044 0.190803 0.939370
C45_3 C 0.4348(5) 0.2821(7) 0.9133(6)
H43_3 H 0.403385 0.292214 0.908794
C46_3 C 0.5178(6) 0.1423(6) 0.9624(6)
C47_3 C 0.4072(5) 0.3575(7) 0.7170(5)
C48_3 C 0.3604(5) 0.3563(7) 0.6903(5)
H44_3 H 0.340332 0.385446 0.699749
C49_3 C 0.3420(5) 0.3128(7) 0.6494(5)
H45_3 H 0.310202 0.315304 0.629965
C50_3 C 0.3695(5) 0.2669(7) 0.6374(5)
C51_3 C 0.4179(5) 0.2671(8) 0.6650(5)
H46_3 H 0.437938 0.236435 0.657222
C52_3 C 0.4352(5) 0.3135(8) 0.7038(5)
H47_3 H 0.467372 0.314275 0.721428
C53_3 C 0.3511(5) 0.2183(7) 0.5952(5)
C54_3 C 0.4045(5) 0.5928(5) 0.9052(5)
C55_3 C 0.4066(5) 0.8818(6) 0.8832(5)
O22_2 O 0.6269(3) 0.9277(4) 0.5573(3)
C59_3 C 0.5952(6) 0.9295(7) 0.5762(5)
C60_3 C 0.6262(5) 0.8374(6) 0.6332(5)
H55_3 H 0.652378 0.838638 0.621035
O24_3 O 0.5776(3) 0.7437(4) 0.7186(3)
C61_3 C 0.6233(5) 0.7895(6) 0.6674(4)
H56_3 H 0.647022 0.758233 0.678433
O25_3 O 0.6182(3) 0.7465(4) 0.8385(3)
C62_3 C 0.5855(5) 0.7877(6) 0.6854(5)
C63_3 C 0.5518(5) 0.8357(6) 0.6702(5)
H57_3 H 0.527011 0.837092 0.684525
C64_3 C 0.5549(5) 0.8811(6) 0.6345(5)
H58_3 H 0.530844 0.911623 0.621926
O28_3 O 0.6271(3) 0.5788(4) 0.8444(3)
C65_3 C 0.6150(4) 0.6989(5) 0.7409(4)
H59_3 H 0.620738 0.671454 0.713853
H60_3 H 0.643776 0.722367 0.758828
O29_3 O 0.7934(4) 0.4029(5) 0.9678(5)
C66_3 C 0.5989(4) 0.6577(5) 0.7797(4)
C67_3 C 0.5811(4) 0.7012(5) 0.8150(4)
H61_3 H 0.573542 0.675316 0.841833
H62_3 H 0.552970 0.724383 0.794790
O31_3 O 0.5777(3) 0.5678(3) 0.7262(3)
C68_3 C 0.5586(4) 0.6137(5) 0.7520(4)
H63_3 H 0.533785 0.638422 0.727129
H64_3 H 0.545624 0.592559 0.777062
O32_2 O 0.6354(3) 0.7921(4) 0.5180(3)
C69_3 C 0.6597(5) 0.5344(6) 0.8739(5)
O33_3 O 0.5720(3) 0.5459(4) 0.6111(3)
C70_3 C 0.6087(5) 0.7959(6) 0.8667(5)
C71_3 C 0.6395(5) 0.8497(6) 0.8721(5)
H65_3 H 0.664350 0.850015 0.857729
O35_3 O 0.5600(3) 0.3796(4) 0.6234(4)
C72_3 C 0.6303(5) 0.9009(6) 0.8996(5)
H66_3 H 0.651189 0.936193 0.906325
C73_3 C 0.5928(5) 0.9044(6) 0.9181(5)
C74_3 C 0.5634(5) 0.8532(6) 0.9109(5)
H67_3 H 0.537706 0.855666 0.923727
O38_3 O 0.5723(3) 0.3964(4) 0.7437(3)
C75_3 C 0.5696(5) 0.7965(6) 0.8849(5)
H68_3 H 0.548921 0.761196 0.879968
C76_3 C 0.5839(6) 0.9643(6) 0.9432(5)
C77_3 C 0.6404(4) 0.6200(5) 0.8095(5)
H69_3 H 0.665257 0.649464 0.828868
H70_3 H 0.652230 0.594166 0.785710
C78_3 C 0.7037(5) 0.5344(6) 0.8712(5)
H71_3 H 0.713410 0.562319 0.848956
C79_3 C 0.7344(5) 0.4891(6) 0.9043(5)
H72_3 H 0.765947 0.488466 0.905720
C80_3 C 0.7190(5) 0.4468(7) 0.9341(6)
C81_3 C 0.6724(5) 0.4462(6) 0.9308(5)
H73_3 H 0.660686 0.413916 0.948093
C82_3 C 0.6429(5) 0.4933(6) 0.9021(5)
H74_3 H 0.611824 0.496373 0.902345
C83_3 C 0.7488(6) 0.3966(7) 0.9628(6)
C84_3 C 0.5424(4) 0.5226(5) 0.6969(4)
H75_3 H 0.525402 0.503683 0.719116
H76_3 H 0.520063 0.544420 0.667395
C85_3 C 0.5690(5) 0.4703(5) 0.6779(4)
C86_3 C 0.6006(4) 0.5025(5) 0.6504(4)
H77_3 H 0.614956 0.469507 0.634050
H78_3 H 0.625395 0.526879 0.675467
C87_3 C 0.5351(5) 0.4264(5) 0.6421(5)
H79_3 H 0.514700 0.451225 0.612977
H80_3 H 0.515654 0.405143 0.660554
C88_3 C 0.6007(4) 0.4333(6) 0.7213(5)
H81_3 H 0.620550 0.462933 0.747207
H82_3 H 0.620834 0.404733 0.708484
C89_3 C 0.5705(5) 0.6483(5) 0.5744(5)
H83_3 H 0.538886 0.651666 0.572652
C90_3 C 0.6596(4) 0.7460(6) 0.5413(4)
C91_3 C 0.5914(4) 0.6974(5) 0.5572(4)
H84_3 H 0.574493 0.735443 0.544401
C92_3 C 0.6377(4) 0.6925(6) 0.5581(5)
C93_3 C 0.6613(5) 0.6371(6) 0.5789(5)
H85_3 H 0.693015 0.633590 0.581142
C94_3 C 0.6413(5) 0.5878(5) 0.5962(5)
H86_3 H 0.658428 0.550060 0.609306
C95_3 C 0.5372(5) 0.3245(6) 0.5988(5)
C96_3 C 0.4915(5) 0.3115(6) 0.5895(5)
H87_3 H 0.471863 0.343101 0.596895
C97_3 C 0.4736(5) 0.2531(6) 0.5696(5)
H88_3 H 0.441797 0.244406 0.564300
C98_3 C 0.5006(5) 0.2073(6) 0.5574(6)
C99_3 C 0.5469(6) 0.2223(7) 0.5673(6)
H89_3 H 0.566956 0.190803 0.560630
C100_3 C 0.5652(5) 0.2821(7) 0.5867(6)
H90_3 H 0.596615 0.292214 0.591206
C101_3 C 0.4822(6) 0.1423(6) 0.5376(6)
C102_3 C 0.5928(5) 0.3575(7) 0.7830(5)
C103_3 C 0.6396(5) 0.3563(7) 0.8097(5)
H91_3 H 0.659668 0.385446 0.800251
C104_3 C 0.6580(5) 0.3128(7) 0.8506(5)
H92_3 H 0.689798 0.315304 0.870035
C105_3 C 0.6305(5) 0.2669(7) 0.8626(5)
C106_3 C 0.5821(5) 0.2671(8) 0.8350(5)
H93_3 H 0.562062 0.236435 0.842778
C107_3 C 0.5648(5) 0.3135(8) 0.7962(5)
H94_3 H 0.532628 0.314275 0.778572
C108_3 C 0.6489(5) 0.2183(7) 0.9048(5)
C109_3 C 0.5955(5) 0.5928(5) 0.5948(5)
C110_3 C 0.5934(5) 0.8818(6) 0.6168(5)
O41_2 O 0.8731(3) 0.4277(4) 0.9427(3)
O42_2 O 0.1269(3) 0.4277(4) 0.5573(3)
O48_2 O 0.8646(3) 0.2921(4) 0.9820(3)
O49_2 O 0.1354(3) 0.2921(4) 0.5180(3)
H48_4 H 0.231804 0.015109 0.149976
H50_4 H 0.284614 0.005166 0.183565
C57_4 C 0.2440(10) 0.0205(13) 0.0662(10)
H51_4 H 0.211228 0.019667 0.064233
H52_4 H 0.256392 0.063731 0.075972
H53_4 H 0.247163 0.009190 0.032597
C59_4 C 0.0952(6) 0.4295(7) 0.5762(5)
C60_4 C 0.1262(5) 0.3374(6) 0.6332(5)
H55_4 H 0.152378 0.338638 0.621035
O24_4 O 0.0776(3) 0.2437(4) 0.7186(3)
C61_4 C 0.1233(5) 0.2895(6) 0.6674(4)
H56_4 H 0.147022 0.258233 0.678433
O25_4 O 0.1182(3) 0.2465(4) 0.8385(3)
C62_4 C 0.0855(5) 0.2877(6) 0.6854(5)
C63_4 C 0.0518(5) 0.3357(6) 0.6702(5)
H57_4 H 0.027011 0.337092 0.684525
C64_4 C 0.0549(5) 0.3811(6) 0.6345(5)
H58_4 H 0.030844 0.411623 0.621926
O28_4 O 0.1271(3) 0.0788(4) 0.8444(3)
C65_4 C 0.1150(4) 0.1989(5) 0.7409(4)
H59_4 H 0.120738 0.171454 0.713853
H60_4 H 0.143776 0.222367 0.758828
C66_4 C 0.0989(4) 0.1577(5) 0.7797(4)
C67_4 C 0.0811(4) 0.2012(5) 0.8150(4)
H61_4 H 0.073542 0.175316 0.841833
H62_4 H 0.052970 0.224383 0.794790
O31_4 O 0.0777(3) 0.0678(3) 0.7262(3)
C68_4 C 0.0586(4) 0.1137(5) 0.7520(4)
H63_4 H 0.033785 0.138422 0.727129
H64_4 H 0.045624 0.092559 0.777062
C69_4 C 0.1597(5) 0.0344(6) 0.8739(5)
O33_4 O 0.0720(3) 0.0459(4) 0.6111(3)
C70_4 C 0.1087(5) 0.2959(6) 0.8667(5)
C71_4 C 0.1395(5) 0.3497(6) 0.8721(5)
H65_4 H 0.164350 0.350015 0.857729
C72_4 C 0.1303(5) 0.4009(6) 0.8996(5)
H66_4 H 0.151189 0.436193 0.906325
C73_4 C 0.0928(5) 0.4044(6) 0.9181(5)
C74_4 C 0.0634(5) 0.3532(6) 0.9109(5)
H67_4 H 0.037706 0.355666 0.923727
C75_4 C 0.0696(5) 0.2965(6) 0.8849(5)
H68_4 H 0.048921 0.261196 0.879968
C76_4 C 0.0839(6) 0.4643(6) 0.9432(5)
C77_4 C 0.1404(4) 0.1200(5) 0.8095(5)
H69_4 H 0.165257 0.149464 0.828868
H70_4 H 0.152230 0.094166 0.785710
C78_4 C 0.2037(5) 0.0344(6) 0.8712(5)
H71_4 H 0.213410 0.062319 0.848956
C84_4 C 0.0424(4) 0.0226(5) 0.6969(4)
H75_4 H 0.025402 0.003683 0.719116
H76_4 H 0.020063 0.044420 0.667395
C86_4 C 0.1006(4) 0.0025(5) 0.6504(4)
H78_4 H 0.125395 0.026879 0.675467
C89_4 C 0.0705(5) 0.1483(5) 0.5744(5)
H83_4 H 0.038886 0.151666 0.572652
C90_4 C 0.1596(4) 0.2460(6) 0.5413(4)
C91_4 C 0.0914(4) 0.1974(5) 0.5572(4)
H84_4 H 0.074493 0.235443 0.544401
C92_4 C 0.1377(4) 0.1925(6) 0.5581(5)
C93_4 C 0.1613(5) 0.1371(6) 0.5789(5)
H85_4 H 0.193015 0.133590 0.581142
C94_4 C 0.1413(5) 0.0878(5) 0.5962(5)
H86_4 H 0.158428 0.050060 0.609306
C109_4 C 0.0955(5) 0.0928(5) 0.5948(5)
C110_4 C 0.0934(5) 0.3818(6) 0.6168(5)
O21_4 O 0.3147(5) 0.9314(7) 0.0602(6)
N2_4 N 0.2711(7) 0.9713(11) 0.1074(8)
C56_4 C 0.2581(10) 0.9856(15) 0.1579(10)
H49_4 H 0.249912 0.945312 0.171573
C58_4 C 0.3125(9) 0.9295(12) 0.0993(10)
H54_4 H 0.333205 0.905259 0.126023
C41_4 C 0.0085(5) 0.8115(6) 0.9105(5)
H40_4 H 0.028137 0.843101 0.903105
C42_4 C 0.0264(5) 0.7531(6) 0.9304(5)
H41_4 H 0.058203 0.744406 0.935700
C46_4 C 0.0178(6) 0.6423(6) 0.9624(6)
O29_4 O 0.2934(4) 0.9029(5) 0.9678(5)
O35_4 O 0.0600(3) 0.8796(4) 0.6234(4)
O38_4 O 0.0723(3) 0.8964(4) 0.7437(3)
C79_4 C 0.2344(5) 0.9891(6) 0.9043(5)
H72_4 H 0.265947 0.988466 0.905720
C80_4 C 0.2190(5) 0.9468(7) 0.9341(6)
C81_4 C 0.1724(5) 0.9462(6) 0.9308(5)
H73_4 H 0.160686 0.913916 0.948093
C82_4 C 0.1429(5) 0.9933(6) 0.9021(5)
H74_4 H 0.111824 0.996373 0.902345
C83_4 C 0.2488(6) 0.8966(7) 0.9628(6)
C85_4 C 0.0690(5) 0.9703(5) 0.6779(4)
H77_4 H 0.114956 0.969507 0.634050
C87_4 C 0.0351(5) 0.9264(5) 0.6421(5)
H79_4 H 0.014700 0.951225 0.612977
H80_4 H 0.015654 0.905143 0.660554
C88_4 C 0.1007(4) 0.9333(6) 0.7213(5)
H81_4 H 0.120550 0.962933 0.747207
H82_4 H 0.120834 0.904733 0.708484
C95_4 C 0.0372(5) 0.8245(6) 0.5988(5)
C98_4 C 0.0006(5) 0.7073(6) 0.5574(6)
C99_4 C 0.0469(6) 0.7223(7) 0.5673(6)
H89_4 H 0.066956 0.690803 0.560630
C100_4 C 0.0652(5) 0.7821(7) 0.5867(6)
H90_4 H 0.096615 0.792214 0.591206
C102_4 C 0.0928(5) 0.8575(7) 0.7830(5)
C103_4 C 0.1396(5) 0.8563(7) 0.8097(5)
H91_4 H 0.159668 0.885446 0.800251
C104_4 C 0.1580(5) 0.8128(7) 0.8506(5)
H92_4 H 0.189798 0.815304 0.870035
C105_4 C 0.1305(5) 0.7669(7) 0.8626(5)
C106_4 C 0.0821(5) 0.7671(8) 0.8350(5)
H93_4 H 0.062062 0.736435 0.842778
C107_4 C 0.0648(5) 0.8135(8) 0.7962(5)
H94_4 H 0.032628 0.814275 0.778572
C108_4 C 0.1489(5) 0.7183(7) 0.9048(5)
H1_4 H 0.768196 0.015109 0.350024
H3_4 H 0.715386 0.005166 0.316435
C2_4 C 0.7560(10) 0.0205(13) 0.4338(10)
H4_4 H 0.788772 0.019667 0.435767
H5_4 H 0.743608 0.063731 0.424028
H6_4 H 0.752837 0.009190 0.467403
C4_4 C 0.9048(6) 0.4295(7) 0.9238(5)
C5_4 C 0.8738(5) 0.3374(6) 0.8668(5)
H8_4 H 0.847622 0.338638 0.878965
O4_4 O 0.9224(3) 0.2437(4) 0.7814(3)
C6_4 C 0.8767(5) 0.2895(6) 0.8326(4)
H9_4 H 0.852978 0.258233 0.821567
O5_4 O 0.8818(3) 0.2465(4) 0.6615(3)
C7_4 C 0.9145(5) 0.2877(6) 0.8146(5)
C8_4 C 0.9482(5) 0.3357(6) 0.8298(5)
H10_4 H 0.972989 0.337092 0.815475
C9_4 C 0.9451(5) 0.3811(6) 0.8655(5)
H11_4 H 0.969156 0.411623 0.878074
O8_4 O 0.8729(3) 0.0788(4) 0.6556(3)
C10_4 C 0.8850(4) 0.1989(5) 0.7591(4)
H12_4 H 0.879262 0.171454 0.786147
H13_4 H 0.856224 0.222367 0.741172
C11_4 C 0.9011(4) 0.1577(5) 0.7203(4)
C12_4 C 0.9189(4) 0.2012(5) 0.6850(4)
H14_4 H 0.926458 0.175316 0.658167
H15_4 H 0.947030 0.224383 0.705210
O11_4 O 0.9223(3) 0.0678(3) 0.7738(3)
C13_4 C 0.9414(4) 0.1137(5) 0.7480(4)
H16_4 H 0.966215 0.138422 0.772871
H17_4 H 0.954376 0.092559 0.722938
C14_4 C 0.8403(5) 0.0344(6) 0.6261(5)
O13_4 O 0.9280(3) 0.0459(4) 0.8889(3)
C15_4 C 0.8913(5) 0.2959(6) 0.6333(5)
C16_4 C 0.8605(5) 0.3497(6) 0.6279(5)
H18_4 H 0.835650 0.350015 0.642271
C17_4 C 0.8697(5) 0.4009(6) 0.6004(5)
H19_4 H 0.848811 0.436193 0.593675
C18_4 C 0.9072(5) 0.4044(6) 0.5819(5)
C19_4 C 0.9366(5) 0.3532(6) 0.5891(5)
H20_4 H 0.962294 0.355666 0.576273
C20_4 C 0.9304(5) 0.2965(6) 0.6151(5)
H21_4 H 0.951079 0.261196 0.620032
C21_4 C 0.9161(6) 0.4643(6) 0.5568(5)
C22_4 C 0.8596(4) 0.1200(5) 0.6905(5)
H22_4 H 0.834743 0.149464 0.671132
H23_4 H 0.847770 0.094166 0.714290
C23_4 C 0.7963(5) 0.0344(6) 0.6288(5)
H24_4 H 0.786590 0.062319 0.651044
C29_4 C 0.9576(4) 0.0226(5) 0.8031(4)
H28_4 H 0.974598 0.003683 0.780884
H29_4 H 0.979937 0.044420 0.832605
C31_4 C 0.8994(4) 0.0025(5) 0.8496(4)
H31_4 H 0.874605 0.026879 0.824533
C34_4 C 0.9295(5) 0.1483(5) 0.9256(5)
H36_4 H 0.961114 0.151666 0.927348
C35_4 C 0.8404(4) 0.2460(6) 0.9587(4)
C36_4 C 0.9086(4) 0.1974(5) 0.9428(4)
H37_4 H 0.925507 0.235443 0.955599
C37_4 C 0.8623(4) 0.1925(6) 0.9419(5)
C38_4 C 0.8387(5) 0.1371(6) 0.9211(5)
H38_4 H 0.806985 0.133590 0.918858
C39_4 C 0.8587(5) 0.0878(5) 0.9038(5)
H39_4 H 0.841572 0.050060 0.890694
C54_4 C 0.9045(5) 0.0928(5) 0.9052(5)
C55_4 C 0.9066(5) 0.3818(6) 0.8832(5)
O1_4 O 0.6853(5) 0.9314(7) 0.4398(6)
N1_4 N 0.7289(7) 0.9713(11) 0.3926(8)
C1_4 C 0.7419(10) 0.9856(15) 0.3421(10)
H2_4 H 0.750088 0.945312 0.328427
C3_4 C 0.6875(9) 0.9295(12) 0.4007(10)
H7_4 H 0.666795 0.905259 0.373977
O9_4 O 0.7066(4) 0.9029(5) 0.5322(5)
O15_4 O 0.9400(3) 0.8796(4) 0.8766(4)
O18_4 O 0.9277(3) 0.8964(4) 0.7563(3)
C24_4 C 0.7656(5) 0.9891(6) 0.5957(5)
H25_4 H 0.734053 0.988466 0.594280
C25_4 C 0.7810(5) 0.9468(7) 0.5659(6)
C26_4 C 0.8276(5) 0.9462(6) 0.5692(5)
H26_4 H 0.839314 0.913916 0.551907
C27_4 C 0.8571(5) 0.9933(6) 0.5979(5)
H27_4 H 0.888176 0.996373 0.597655
C28_4 C 0.7512(6) 0.8966(7) 0.5372(6)
C30_4 C 0.9310(5) 0.9703(5) 0.8221(4)
H30_4 H 0.885044 0.969507 0.865950
C32_4 C 0.9649(5) 0.9264(5) 0.8579(5)
H32_4 H 0.985300 0.951225 0.887023
H33_4 H 0.984346 0.905143 0.839446
C33_4 C 0.8993(4) 0.9333(6) 0.7787(5)
H34_4 H 0.879450 0.962933 0.752793
H35_4 H 0.879166 0.904733 0.791516
C40_4 C 0.9628(5) 0.8245(6) 0.9012(5)
C43_4 C 0.9994(5) 0.7073(6) 0.9426(6)
C44_4 C 0.9531(6) 0.7223(7) 0.9327(6)
H42_4 H 0.933044 0.690803 0.939370
C45_4 C 0.9348(5) 0.7821(7) 0.9133(6)
H43_4 H 0.903385 0.792214 0.908794
C47_4 C 0.9072(5) 0.8575(7) 0.7170(5)
C48_4 C 0.8604(5) 0.8563(7) 0.6903(5)
H44_4 H 0.840332 0.885446 0.699749
C49_4 C 0.8420(5) 0.8128(7) 0.6494(5)
H45_4 H 0.810202 0.815304 0.629965
C50_4 C 0.8695(5) 0.7669(7) 0.6374(5)
C51_4 C 0.9179(5) 0.7671(8) 0.6650(5)
H46_4 H 0.937938 0.736435 0.657222
C52_4 C 0.9352(5) 0.8135(8) 0.7038(5)
H47_4 H 0.967372 0.814275 0.721428
C53_4 C 0.8511(5) 0.7183(7) 0.5952(5)
C96_4 C 0.9915(5) 0.8115(6) 0.5895(5)
H87_4 H 0.971863 0.843101 0.596895
C97_4 C 0.9736(5) 0.7531(6) 0.5696(5)
H88_4 H 0.941797 0.744406 0.564300
C101_4 C 0.9822(6) 0.6423(6) 0.5376(6)
loop_
_geom_bond_atom_site_label_1
_geom_bond_atom_site_label_2
_geom_bond_site_symmetry_1
_geom_bond_site_symmetry_2
Dy1 O10 1_555 1_555
Dy8 O3 1_555 1_555
Dy3 O1 1_555 1_555
O1 C3 1_555 1_555
N1 C1 1_555 1_555
C1 H1 1_555 1_555
H2 C1 1_555 1_555
H3 C1 1_555 1_555
C2 N1 1_555 1_555
H4 C2 1_555 1_555
H5 C2 1_555 1_555
H6 C2 1_555 1_555
C3 N1 1_555 1_555
H7 C3 1_555 1_555
O2 C4 1_555 1_555
C4 O3 1_555 1_555
C5 H8 1_555 1_555
O4 C7 1_555 1_555
C6 C5 1_555 1_555
H9 C6 1_555 1_555
O5 C12 1_555 1_555
C7 C6 1_555 1_555
C8 C7 1_555 1_555
H10 C8 1_555 1_555
O7 C21 1_555 1_555
C9 C8 1_555 1_555
H11 C9 1_555 1_555
O8 C14 1_555 1_555
C10 O4 1_555 1_555
H12 C10 1_555 1_555
H13 C10 1_555 1_555
O9 Dy3 1_555 1_555
C11 C10 1_555 1_555
O10 C28 1_555 1_555
C12 C11 1_555 1_555
H14 C12 1_555 1_555
H15 C12 1_555 1_555
O11 C13 1_555 1_555
C13 C11 1_555 1_555
H16 C13 1_555 1_555
H17 C13 1_555 1_555
O12 C35 1_555 1_555
C14 C23 1_555 1_555
O13 C31 1_555 1_555
C15 O5 1_555 1_555
O14 C35 1_555 1_555
C16 C15 1_555 1_555
H18 C16 1_555 1_555
O15 C32 1_555 1_555
C17 C16 1_555 1_555
H19 C17 1_555 1_555
O16 C46 1_555 1_555
C18 C17 1_555 1_555
O17 C46 1_555 1_555
C19 C18 1_555 1_555
H20 C19 1_555 1_555
O18 C33 1_555 1_555
C20 C15 1_555 1_555
H21 C20 1_555 1_555
O19 Dy1 1_555 1_555
C21 C18 1_555 1_555
O20 C53 1_555 1_555
C22 O8 1_555 1_555
H22 C22 1_555 1_555
H23 C22 1_555 1_555
C23 H24 1_555 1_555
C24 C23 1_555 1_555
H25 C24 1_555 1_555
C25 C24 1_555 1_555
C26 C25 1_555 1_555
H26 C26 1_555 1_555
C27 C14 1_555 1_555
H27 C27 1_555 1_555
C28 O9 1_555 1_555
C29 O11 1_555 1_555
H28 C29 1_555 1_555
H29 C29 1_555 1_555
C30 C29 1_555 1_555
C31 C30 1_555 1_555
H30 C31 1_555 1_555
H31 C31 1_555 1_555
C32 C30 1_555 1_555
H32 C32 1_555 1_555
H33 C32 1_555 1_555
C33 C30 1_555 1_555
H34 C33 1_555 1_555
H35 C33 1_555 1_555
C34 H36 1_555 1_555
C35 C37 1_555 1_555
C36 C34 1_555 1_555
H37 C36 1_555 1_555
C37 C36 1_555 1_555
C38 C37 1_555 1_555
H38 C38 1_555 1_555
C39 C38 1_555 1_555
H39 C39 1_555 1_555
C40 O15 1_555 1_555
C41 C40 1_555 1_555
H40 C41 1_555 1_555
C42 C41 1_555 1_555
H41 C42 1_555 1_555
C43 C42 1_555 1_555
C44 C43 1_555 1_555
H42 C44 1_555 1_555
C45 C40 1_555 1_555
H43 C45 1_555 1_555
C46 C43 1_555 1_555
C47 O18 1_555 1_555
C48 C47 1_555 1_555
H44 C48 1_555 1_555
C49 C48 1_555 1_555
H45 C49 1_555 1_555
C50 C49 1_555 1_555
C51 C50 1_555 1_555
H46 C51 1_555 1_555
C52 C47 1_555 1_555
H47 C52 1_555 1_555
C53 O19 1_555 1_555
C54 O13 1_555 1_555
C55 C4 1_555 1_555
O22 C59 1_555 1_555
C59 O23 1_555 1_555
O23 Dy10 1_555 1_555
C60 H55 1_555 1_555
O24 C62 1_555 1_555
C61 C60 1_555 1_555
H56 C61 1_555 1_555
O25 C67 1_555 1_555
C62 C61 1_555 1_555
C63 C62 1_555 1_555
H57 C63 1_555 1_555
O27 Dy8 1_555 1_555
C64 C63 1_555 1_555
H58 C64 1_555 1_555
O28 C69 1_555 1_555
C65 O24 1_555 1_555
H59 C65 1_555 1_555
H60 C65 1_555 1_555
C66 C65 1_555 1_555
O30 C83 1_555 1_555
C67 C66 1_555 1_555
H61 C67 1_555 1_555
H62 C67 1_555 1_555
O31 C68 1_555 1_555
C68 C66 1_555 1_555
H63 C68 1_555 1_555
H64 C68 1_555 1_555
O32 C90 1_555 1_555
C69 C78 1_555 1_555
O33 C86 1_555 1_555
C70 O25 1_555 1_555
O34 C90 1_555 1_555
C71 C70 1_555 1_555
H65 C71 1_555 1_555
O35 C87 1_555 1_555
C72 C71 1_555 1_555
H66 C72 1_555 1_555
O36 C101 1_555 1_555
C73 C72 1_555 1_555
O37 C101 1_555 1_555
C74 C73 1_555 1_555
H67 C74 1_555 1_555
O38 C88 1_555 1_555
C75 C70 1_555 1_555
H68 C75 1_555 1_555
O39 C108 1_555 1_555
C76 O27 1_555 1_555
O40 C108 1_555 1_555
C77 O28 1_555 1_555
H69 C77 1_555 1_555
H70 C77 1_555 1_555
C78 H71 1_555 1_555
C79 C78 1_555 1_555
H72 C79 1_555 1_555
C80 C79 1_555 1_555
C81 C80 1_555 1_555
H73 C81 1_555 1_555
C82 C69 1_555 1_555
H74 C82 1_555 1_555
C83 O29 1_555 1_555
C84 O31 1_555 1_555
H75 C84 1_555 1_555
H76 C84 1_555 1_555
C85 C84 1_555 1_555
C86 C85 1_555 1_555
H77 C86 1_555 1_555
H78 C86 1_555 1_555
C87 C85 1_555 1_555
H79 C87 1_555 1_555
H80 C87 1_555 1_555
C88 C85 1_555 1_555
H81 C88 1_555 1_555
H82 C88 1_555 1_555
C89 H83 1_555 1_555
C90 C92 1_555 1_555
C91 C89 1_555 1_555
H84 C91 1_555 1_555
C92 C91 1_555 1_555
C93 C92 1_555 1_555
H85 C93 1_555 1_555
C94 C93 1_555 1_555
H86 C94 1_555 1_555
C95 O35 1_555 1_555
C96 C95 1_555 1_555
H87 C96 1_555 1_555
C97 C96 1_555 1_555
H88 C97 1_555 1_555
C98 C97 1_555 1_555
C99 C98 1_555 1_555
H89 C99 1_555 1_555
C100 C95 1_555 1_555
H90 C100 1_555 1_555
C101 C98 1_555 1_555
C102 O38 1_555 1_555
C103 C102 1_555 1_555
H91 C103 1_555 1_555
C104 C103 1_555 1_555
H92 C104 1_555 1_555
C105 C104 1_555 1_555
C106 C105 1_555 1_555
H93 C106 1_555 1_555
C107 C102 1_555 1_555
H94 C107 1_555 1_555
C108 C105 1_555 1_555
C109 O33 1_555 1_555
C110 C59 1_555 1_555
Dy5 O30 1_555 1_555
Dy6 O34 1_555 1_555
Dy7 O14 1_555 1_555
Dy8_3 O17 1_555 1_555
Dy10 O7 1_555 1_555
Dy10_2 O37 1_555 1_555
Dy11 O22 1_555 1_555
Dy14 O20 1_555 1_555
Dy16 O16 1_555 1_555
O42 Dy3 1_555 1_555
O44 Dy3 1_555 1_555
O47 Dy1 1_555 1_555
O49 Dy3 1_555 1_555
O50 Dy1 1_555 1_555
O51 Dy1 1_555 1_555
O53 Dy3 1_555 1_555
O56 Dy1 1_555 1_555
O57 Dy3 1_555 1_555
C5 C55 1_555 1_555
C9 C55 1_555 1_555
C11 C22 1_555 1_555
C19 C20 1_555 1_555
C25 C28 1_555 1_555
C26 C27 1_555 1_555
C34 C54 1_555 1_555
C39 C54 1_555 1_555
C44 C45 1_555 1_555
C50 C53 1_555 1_555
C51 C52 1_555 1_555
C60 C110 1_555 1_555
C64 C110 1_555 1_555
C66 C77 1_555 1_555
O32 Dy11 1_555 1_555
O36 Dy14 1_555 1_555
C73 C76 1_555 1_555
C74 C75 1_555 1_555
O39 Dy5 1_555 1_555
O40 Dy16 1_555 1_555
C80 C83 1_555 1_555
C81 C82 1_555 1_555
C89 C109 1_555 1_555
C94 C109 1_555 1_555
C99 C100 1_555 1_555
C106 C107 1_555 1_555
Dy4 O21 1_555 1_555
O21 C58 1_555 1_555
N2 C56 1_555 1_555
C56 H48 1_555 1_555
H49 C56 1_555 1_555
H50 C56 1_555 1_555
C57 N2 1_555 1_555
H51 C57 1_555 1_555
H52 C57 1_555 1_555
H53 C57 1_555 1_555
C58 N2 1_555 1_555
H54 C58 1_555 1_555
O45 Dy4 1_555 1_555
O52 Dy4 1_555 1_555
O55 Dy8_2 1_555 1_555
O58 Dy4 1_555 1_555
Dy14 O6 1_555 1_555
Dy16 O26 1_555 1_555
O43 Dy8_4 1_555 1_555
O46 Dy8_4 1_555 1_555
O50_2 Dy5 1_555 1_555
O55_2 Dy10 1_555 1_555
O47_2 Dy5_2 1_555 1_555
O51_2 Dy5_2 1_555 1_555
O56_2 Dy5_2 1_555 1_555
O43_2 Dy10_2 1_555 1_555
O46_2 Dy10_2 1_555 1_555
Dy6 O10_2 1_555 1_555
Dy11 O1_2 1_555 1_555
O1_2 C3_2 1_555 1_555
N1_2 C1_2 1_555 1_555
H2_2 C1_2 1_555 1_555
C3_2 N1_2 1_555 1_555
H7_2 C3_2 1_555 1_555
O9_2 Dy11 1_555 1_555
O10_2 C28_2 1_555 1_555
O15_2 C32_2 1_555 1_555
O18_2 C33_2 1_555 1_555
O19_2 Dy6 1_555 1_555
O20_2 C53_2 1_555 1_555
H25_2 C24_2 1_555 1_555
C25_2 C24_2 1_555 1_555
C26_2 C25_2 1_555 1_555
H26_2 C26_2 1_555 1_555
H27_2 C27_2 1_555 1_555
C28_2 O9_2 1_555 1_555
C32_2 C30_2 1_555 1_555
H32_2 C32_2 1_555 1_555
H33_2 C32_2 1_555 1_555
C33_2 C30_2 1_555 1_555
H34_2 C33_2 1_555 1_555
H35_2 C33_2 1_555 1_555
C40_2 O15_2 1_555 1_555
C44_2 C43_2 1_555 1_555
H42_2 C44_2 1_555 1_555
C45_2 C40_2 1_555 1_555
H43_2 C45_2 1_555 1_555
C47_2 O18_2 1_555 1_555
C48_2 C47_2 1_555 1_555
H44_2 C48_2 1_555 1_555
C49_2 C48_2 1_555 1_555
H45_2 C49_2 1_555 1_555
C50_2 C49_2 1_555 1_555
C51_2 C50_2 1_555 1_555
H46_2 C51_2 1_555 1_555
C52_2 C47_2 1_555 1_555
H47_2 C52_2 1_555 1_555
C53_2 O19_2 1_555 1_555
O36_2 C101_2 1_555 1_555
H87_2 C96_2 1_555 1_555
C97_2 C96_2 1_555 1_555
H88_2 C97_2 1_555 1_555
Dy8_5 O17_2 1_555 1_555
Dy14_2 O20_2 1_555 1_555
O44_2 Dy11 1_555 1_555
O47_3 Dy6 1_555 1_555
O51_3 Dy6 1_555 1_555
O53_2 Dy11 1_555 1_555
O56_3 Dy6 1_555 1_555
O57_2 Dy11 1_555 1_555
C25_2 C28_2 1_555 1_555
C26_2 C27_2 1_555 1_555
C44_2 C45_2 1_555 1_555
C50_2 C53_2 1_555 1_555
C51_2 C52_2 1_555 1_555
O36_2 Dy14_2 1_555 1_555
Dy8_5 O3_2 1_555 1_555
H4_2 C2_2 1_555 1_555
H5_2 C2_2 1_555 1_555
H6_2 C2_2 1_555 1_555
O41 C4_2 1_555 1_555
C4_2 O3_2 1_555 1_555
C5_2 H8_2 1_555 1_555
O4_2 C7_2 1_555 1_555
C6_2 C5_2 1_555 1_555
H9_2 C6_2 1_555 1_555
O5_2 C12_2 1_555 1_555
C7_2 C6_2 1_555 1_555
O6_2 C21_2 1_555 1_555
C8_2 C7_2 1_555 1_555
H10_2 C8_2 1_555 1_555
O7_2 C21_2 1_555 1_555
C9_2 C8_2 1_555 1_555
H11_2 C9_2 1_555 1_555
O8_2 C14_2 1_555 1_555
C10_2 O4_2 1_555 1_555
H12_2 C10_2 1_555 1_555
H13_2 C10_2 1_555 1_555
C11_2 C10_2 1_555 1_555
C12_2 C11_2 1_555 1_555
H14_2 C12_2 1_555 1_555
H15_2 C12_2 1_555 1_555
O11_2 C13_2 1_555 1_555
C13_2 C11_2 1_555 1_555
H16_2 C13_2 1_555 1_555
H17_2 C13_2 1_555 1_555
O48 C35_2 1_555 1_555
C14_2 C23_2 1_555 1_555
O13_2 C31_2 1_555 1_555
C15_2 O5_2 1_555 1_555
O50_2 C35_2 1_555 1_555
C16_2 C15_2 1_555 1_555
H18_2 C16_2 1_555 1_555
C17_2 C16_2 1_555 1_555
H19_2 C17_2 1_555 1_555
C18_2 C17_2 1_555 1_555
C19_2 C18_2 1_555 1_555
H20_2 C19_2 1_555 1_555
C20_2 C15_2 1_555 1_555
H21_2 C20_2 1_555 1_555
C21_2 C18_2 1_555 1_555
C22_2 O8_2 1_555 1_555
H22_2 C22_2 1_555 1_555
H23_2 C22_2 1_555 1_555
C23_2 H24_2 1_555 1_555
C29_2 O11_2 1_555 1_555
H28_2 C29_2 1_555 1_555
H29_2 C29_2 1_555 1_555
H31_2 C31_2 1_555 1_555
C34_2 H36_2 1_555 1_555
C35_2 C37_2 1_555 1_555
C36_2 C34_2 1_555 1_555
H37_2 C36_2 1_555 1_555
C37_2 C36_2 1_555 1_555
C38_2 C37_2 1_555 1_555
H38_2 C38_2 1_555 1_555
C39_2 C38_2 1_555 1_555
H39_2 C39_2 1_555 1_555
C54_2 O13_2 1_555 1_555
C55_2 C4_2 1_555 1_555
Dy10_3 O7_2 1_555 1_555
Dy14_2 O6_2 1_555 1_555
C5_2 C55_2 1_555 1_555
C9_2 C55_2 1_555 1_555
C11_2 C22_2 1_555 1_555
C19_2 C20_2 1_555 1_555
C34_2 C54_2 1_555 1_555
C39_2 C54_2 1_555 1_555
O46_3 Dy8_6 1_555 1_555
O16_2 C46_2 1_555 1_555
H40_2 C41_2 1_555 1_555
C42_2 C41_2 1_555 1_555
H41_2 C42_2 1_555 1_555
O30_2 C83_2 1_555 1_555
O35_2 C87_2 1_555 1_555
O38_2 C88_2 1_555 1_555
O39_2 C108_2 1_555 1_555
O40_2 C108_2 1_555 1_555
H72_2 C79_2 1_555 1_555
C80_2 C79_2 1_555 1_555
C81_2 C80_2 1_555 1_555
H73_2 C81_2 1_555 1_555
H74_2 C82_2 1_555 1_555
C83_2 O29_2 1_555 1_555
C87_2 C85_2 1_555 1_555
H79_2 C87_2 1_555 1_555
H80_2 C87_2 1_555 1_555
C88_2 C85_2 1_555 1_555
H81_2 C88_2 1_555 1_555
H82_2 C88_2 1_555 1_555
C95_2 O35_2 1_555 1_555
C99_2 C98_2 1_555 1_555
H89_2 C99_2 1_555 1_555
C100_2 C95_2 1_555 1_555
H90_2 C100_2 1_555 1_555
C102_2 O38_2 1_555 1_555
C103_2 C102_2 1_555 1_555
H91_2 C103_2 1_555 1_555
C104_2 C103_2 1_555 1_555
H92_2 C104_2 1_555 1_555
C105_2 C104_2 1_555 1_555
C106_2 C105_2 1_555 1_555
H93_2 C106_2 1_555 1_555
C107_2 C102_2 1_555 1_555
H94_2 C107_2 1_555 1_555
C108_2 C105_2 1_555 1_555
Dy7 O30_2 1_555 1_555
Dy10_4 O37_2 1_555 1_555
Dy16_2 O16_2 1_555 1_555
O39_2 Dy7 1_555 1_555
O40_2 Dy16_2 1_555 1_555
C80_2 C83_2 1_555 1_555
C81_2 C82_2 1_555 1_555
C99_2 C100_2 1_555 1_555
C106_2 C107_2 1_555 1_555
Dy12 O21_2 1_555 1_555
O21_2 C58_2 1_555 1_555
N2_2 C56_2 1_555 1_555
H49_2 C56_2 1_555 1_555
C58_2 N2_2 1_555 1_555
H54_2 C58_2 1_555 1_555
O45_2 Dy12 1_555 1_555
O52_2 Dy12 1_555 1_555
O58_2 Dy12 1_555 1_555
O42 C59_2 1_555 1_555
C59_2 O23_2 1_555 1_555
O23_2 Dy10_4 1_555 1_555
C60_2 H55_2 1_555 1_555
O24_2 C62_2 1_555 1_555
C61_2 C60_2 1_555 1_555
H56_2 C61_2 1_555 1_555
O25_2 C67_2 1_555 1_555
C62_2 C61_2 1_555 1_555
O26_2 C76_2 1_555 1_555
C63_2 C62_2 1_555 1_555
H57_2 C63_2 1_555 1_555
O27_2 Dy8_7 1_555 1_555
C64_2 C63_2 1_555 1_555
H58_2 C64_2 1_555 1_555
O28_2 C69_2 1_555 1_555
C65_2 O24_2 1_555 1_555
H59_2 C65_2 1_555 1_555
H60_2 C65_2 1_555 1_555
C66_2 C65_2 1_555 1_555
C67_2 C66_2 1_555 1_555
H61_2 C67_2 1_555 1_555
H62_2 C67_2 1_555 1_555
O31_2 C68_2 1_555 1_555
C68_2 C66_2 1_555 1_555
H63_2 C68_2 1_555 1_555
H64_2 C68_2 1_555 1_555
O49 C90_2 1_555 1_555
C69_2 C78_2 1_555 1_555
O33_2 C86_2 1_555 1_555
C70_2 O25_2 1_555 1_555
O50 C90_2 1_555 1_555
C71_2 C70_2 1_555 1_555
H65_2 C71_2 1_555 1_555
C72_2 C71_2 1_555 1_555
H66_2 C72_2 1_555 1_555
C73_2 C72_2 1_555 1_555
C74_2 C73_2 1_555 1_555
H67_2 C74_2 1_555 1_555
C75_2 C70_2 1_555 1_555
H68_2 C75_2 1_555 1_555
C76_2 O27_2 1_555 1_555
C77_2 O28_2 1_555 1_555
H69_2 C77_2 1_555 1_555
H70_2 C77_2 1_555 1_555
C78_2 H71_2 1_555 1_555
C84_2 O31_2 1_555 1_555
H75_2 C84_2 1_555 1_555
H76_2 C84_2 1_555 1_555
H78_2 C86_2 1_555 1_555
C89_2 H83_2 1_555 1_555
C90_2 C92_2 1_555 1_555
C91_2 C89_2 1_555 1_555
H84_2 C91_2 1_555 1_555
C92_2 C91_2 1_555 1_555
C93_2 C92_2 1_555 1_555
H85_2 C93_2 1_555 1_555
C94_2 C93_2 1_555 1_555
H86_2 C94_2 1_555 1_555
C109_2 O33_2 1_555 1_555
C110_2 C59_2 1_555 1_555
Dy16_2 O26_2 1_555 1_555
C60_2 C110_2 1_555 1_555
C64_2 C110_2 1_555 1_555
C66_2 C77_2 1_555 1_555
C73_2 C76_2 1_555 1_555
C74_2 C75_2 1_555 1_555
C89_2 C109_2 1_555 1_555
C94_2 C109_2 1_555 1_555
H51_2 C57_2 1_555 1_555
H52_2 C57_2 1_555 1_555
H53_2 C57_2 1_555 1_555
O43_3 Dy8_8 1_555 1_555
O55_3 Dy8_8 1_555 1_555
O43_4 Dy10_3 1_555 1_555
O55_4 Dy10_3 1_555 1_555
O47_4 Dy7_2 1_555 1_555
O51_4 Dy7_2 1_555 1_555
O56_4 Dy7_2 1_555 1_555
O46_4 Dy10_4 1_555 1_555
Dy16_2 O21_3 1_555 1_555
O21_3 C58_3 1_555 1_555
N2_3 C56_3 1_555 1_555
C56_3 H48_3 1_555 1_555
H49_3 C56_3 1_555 1_555
H50_3 C56_3 1_555 1_555
C57_3 N2_3 1_555 1_555
H51_3 C57_3 1_555 1_555
H52_3 C57_3 1_555 1_555
H53_3 C57_3 1_555 1_555
C58_3 N2_3 1_555 1_555
H54_3 C58_3 1_555 1_555
Dy14_2 O1_3 1_555 1_555
O1_3 C3_3 1_555 1_555
N1_3 C1_3 1_555 1_555
C1_3 H1_3 1_555 1_555
H2_3 C1_3 1_555 1_555
H3_3 C1_3 1_555 1_555
C2_3 N1_3 1_555 1_555
H4_3 C2_3 1_555 1_555
H5_3 C2_3 1_555 1_555
H6_3 C2_3 1_555 1_555
C3_3 N1_3 1_555 1_555
H7_3 C3_3 1_555 1_555
O2_2 C4_3 1_555 1_555
C4_3 O43 1_555 1_555
C5_3 H8_3 1_555 1_555
O4_3 C7_3 1_555 1_555
C6_3 C5_3 1_555 1_555
H9_3 C6_3 1_555 1_555
O5_3 C12_3 1_555 1_555
C7_3 C6_3 1_555 1_555
C8_3 C7_3 1_555 1_555
H10_3 C8_3 1_555 1_555
O46_2 C21_3 1_555 1_555
C9_3 C8_3 1_555 1_555
H11_3 C9_3 1_555 1_555
O8_3 C14_3 1_555 1_555
C10_3 O4_3 1_555 1_555
H12_3 C10_3 1_555 1_555
H13_3 C10_3 1_555 1_555
O9_3 Dy14_2 1_555 1_555
C11_3 C10_3 1_555 1_555
O47_3 C28_3 1_555 1_555
C12_3 C11_3 1_555 1_555
H14_3 C12_3 1_555 1_555
H15_3 C12_3 1_555 1_555
O11_3 C13_3 1_555 1_555
C13_3 C11_3 1_555 1_555
H16_3 C13_3 1_555 1_555
H17_3 C13_3 1_555 1_555
O12_2 C35_3 1_555 1_555
C14_3 C23_3 1_555 1_555
O13_3 C31_3 1_555 1_555
C15_3 O5_3 1_555 1_555
O51_2 C35_3 1_555 1_555
C16_3 C15_3 1_555 1_555
H18_3 C16_3 1_555 1_555
O15_3 C32_3 1_555 1_555
C17_3 C16_3 1_555 1_555
H19_3 C17_3 1_555 1_555
O52_2 C46_3 1_555 1_555
C18_3 C17_3 1_555 1_555
O55 C46_3 1_555 1_555
C19_3 C18_3 1_555 1_555
H20_3 C19_3 1_555 1_555
O18_3 C33_3 1_555 1_555
C20_3 C15_3 1_555 1_555
H21_3 C20_3 1_555 1_555
C21_3 C18_3 1_555 1_555
O57_2 C53_3 1_555 1_555
C22_3 O8_3 1_555 1_555
H22_3 C22_3 1_555 1_555
H23_3 C22_3 1_555 1_555
C23_3 H24_3 1_555 1_555
C24_3 C23_3 1_555 1_555
H25_3 C24_3 1_555 1_555
C25_3 C24_3 1_555 1_555
C26_3 C25_3 1_555 1_555
H26_3 C26_3 1_555 1_555
C27_3 C14_3 1_555 1_555
H27_3 C27_3 1_555 1_555
C28_3 O9_3 1_555 1_555
C29_3 O11_3 1_555 1_555
H28_3 C29_3 1_555 1_555
H29_3 C29_3 1_555 1_555
C30_3 C29_3 1_555 1_555
C31_3 C30_3 1_555 1_555
H30_3 C31_3 1_555 1_555
H31_3 C31_3 1_555 1_555
C32_3 C30_3 1_555 1_555
H32_3 C32_3 1_555 1_555
H33_3 C32_3 1_555 1_555
C33_3 C30_3 1_555 1_555
H34_3 C33_3 1_555 1_555
H35_3 C33_3 1_555 1_555
C34_3 H36_3 1_555 1_555
C35_3 C37_3 1_555 1_555
C36_3 C34_3 1_555 1_555
H37_3 C36_3 1_555 1_555
C37_3 C36_3 1_555 1_555
C38_3 C37_3 1_555 1_555
H38_3 C38_3 1_555 1_555
C39_3 C38_3 1_555 1_555
H39_3 C39_3 1_555 1_555
C40_3 O15_3 1_555 1_555
C41_3 C40_3 1_555 1_555
H40_3 C41_3 1_555 1_555
C42_3 C41_3 1_555 1_555
H41_3 C42_3 1_555 1_555
C43_3 C42_3 1_555 1_555
C44_3 C43_3 1_555 1_555
H42_3 C44_3 1_555 1_555
C45_3 C40_3 1_555 1_555
H43_3 C45_3 1_555 1_555
C46_3 C43_3 1_555 1_555
C47_3 O18_3 1_555 1_555
C48_3 C47_3 1_555 1_555
H44_3 C48_3 1_555 1_555
C49_3 C48_3 1_555 1_555
H45_3 C49_3 1_555 1_555
C50_3 C49_3 1_555 1_555
C51_3 C50_3 1_555 1_555
H46_3 C51_3 1_555 1_555
C52_3 C47_3 1_555 1_555
H47_3 C52_3 1_555 1_555
C53_3 O56_3 1_555 1_555
C54_3 O13_3 1_555 1_555
C55_3 C4_3 1_555 1_555
O22_2 C59_3 1_555 1_555
C59_3 O43_2 1_555 1_555
C60_3 H55_3 1_555 1_555
O24_3 C62_3 1_555 1_555
C61_3 C60_3 1_555 1_555
H56_3 C61_3 1_555 1_555
O25_3 C67_3 1_555 1_555
C62_3 C61_3 1_555 1_555
C63_3 C62_3 1_555 1_555
H57_3 C63_3 1_555 1_555
C64_3 C63_3 1_555 1_555
H58_3 C64_3 1_555 1_555
O28_3 C69_3 1_555 1_555
C65_3 O24_3 1_555 1_555
H59_3 C65_3 1_555 1_555
H60_3 C65_3 1_555 1_555
C66_3 C65_3 1_555 1_555
O47_4 C83_3 1_555 1_555
C67_3 C66_3 1_555 1_555
H61_3 C67_3 1_555 1_555
H62_3 C67_3 1_555 1_555
O31_3 C68_3 1_555 1_555
C68_3 C66_3 1_555 1_555
H63_3 C68_3 1_555 1_555
H64_3 C68_3 1_555 1_555
O32_2 C90_3 1_555 1_555
C69_3 C78_3 1_555 1_555
O33_3 C86_3 1_555 1_555
C70_3 O25_3 1_555 1_555
O51 C90_3 1_555 1_555
C71_3 C70_3 1_555 1_555
H65_3 C71_3 1_555 1_555
O35_3 C87_3 1_555 1_555
C72_3 C71_3 1_555 1_555
H66_3 C72_3 1_555 1_555
O53_2 C101_3 1_555 1_555
C73_3 C72_3 1_555 1_555
O55_2 C101_3 1_555 1_555
C74_3 C73_3 1_555 1_555
H67_3 C74_3 1_555 1_555
O38_3 C88_3 1_555 1_555
C75_3 C70_3 1_555 1_555
H68_3 C75_3 1_555 1_555
O56_4 C108_3 1_555 1_555
C76_3 O46 1_555 1_555
O58_2 C108_3 1_555 1_555
C77_3 O28_3 1_555 1_555
H69_3 C77_3 1_555 1_555
H70_3 C77_3 1_555 1_555
C78_3 H71_3 1_555 1_555
C79_3 C78_3 1_555 1_555
H72_3 C79_3 1_555 1_555
C80_3 C79_3 1_555 1_555
C81_3 C80_3 1_555 1_555
H73_3 C81_3 1_555 1_555
C82_3 C69_3 1_555 1_555
H74_3 C82_3 1_555 1_555
C83_3 O29_3 1_555 1_555
C84_3 O31_3 1_555 1_555
H75_3 C84_3 1_555 1_555
H76_3 C84_3 1_555 1_555
C85_3 C84_3 1_555 1_555
C86_3 C85_3 1_555 1_555
H77_3 C86_3 1_555 1_555
H78_3 C86_3 1_555 1_555
C87_3 C85_3 1_555 1_555
H79_3 C87_3 1_555 1_555
H80_3 C87_3 1_555 1_555
C88_3 C85_3 1_555 1_555
H81_3 C88_3 1_555 1_555
H82_3 C88_3 1_555 1_555
C89_3 H83_3 1_555 1_555
C90_3 C92_3 1_555 1_555
C91_3 C89_3 1_555 1_555
H84_3 C91_3 1_555 1_555
C92_3 C91_3 1_555 1_555
C93_3 C92_3 1_555 1_555
H85_3 C93_3 1_555 1_555
C94_3 C93_3 1_555 1_555
H86_3 C94_3 1_555 1_555
C95_3 O35_3 1_555 1_555
C96_3 C95_3 1_555 1_555
H87_3 C96_3 1_555 1_555
C97_3 C96_3 1_555 1_555
H88_3 C97_3 1_555 1_555
C98_3 C97_3 1_555 1_555
C99_3 C98_3 1_555 1_555
H89_3 C99_3 1_555 1_555
C100_3 C95_3 1_555 1_555
H90_3 C100_3 1_555 1_555
C101_3 C98_3 1_555 1_555
C102_3 O38_3 1_555 1_555
C103_3 C102_3 1_555 1_555
H91_3 C103_3 1_555 1_555
C104_3 C103_3 1_555 1_555
H92_3 C104_3 1_555 1_555
C105_3 C104_3 1_555 1_555
C106_3 C105_3 1_555 1_555
H93_3 C106_3 1_555 1_555
C107_3 C102_3 1_555 1_555
H94_3 C107_3 1_555 1_555
C108_3 C105_3 1_555 1_555
C109_3 O33_3 1_555 1_555
C110_3 C59_3 1_555 1_555
Dy14 O22_2 1_555 1_555
O42_2 Dy14_2 1_555 1_555
O49_2 Dy14_2 1_555 1_555
C5_3 C55_3 1_555 1_555
C9_3 C55_3 1_555 1_555
C11_3 C22_3 1_555 1_555
C19_3 C20_3 1_555 1_555
C25_3 C28_3 1_555 1_555
C26_3 C27_3 1_555 1_555
C34_3 C54_3 1_555 1_555
C39_3 C54_3 1_555 1_555
C44_3 C45_3 1_555 1_555
C50_3 C53_3 1_555 1_555
C51_3 C52_3 1_555 1_555
C60_3 C110_3 1_555 1_555
C64_3 C110_3 1_555 1_555
C66_3 C77_3 1_555 1_555
O32_2 Dy14 1_555 1_555
C73_3 C76_3 1_555 1_555
C74_3 C75_3 1_555 1_555
C80_3 C83_3 1_555 1_555
C81_3 C82_3 1_555 1_555
C89_3 C109_3 1_555 1_555
C94_3 C109_3 1_555 1_555
C99_3 C100_3 1_555 1_555
C106_3 C107_3 1_555 1_555
H51_4 C57_4 1_555 1_555
H52_4 C57_4 1_555 1_555
H53_4 C57_4 1_555 1_555
O42_2 C59_4 1_555 1_555
C59_4 O43_4 1_555 1_555
C60_4 H55_4 1_555 1_555
O24_4 C62_4 1_555 1_555
C61_4 C60_4 1_555 1_555
H56_4 C61_4 1_555 1_555
O25_4 C67_4 1_555 1_555
C62_4 C61_4 1_555 1_555
O45 C76_4 1_555 1_555
C63_4 C62_4 1_555 1_555
H57_4 C63_4 1_555 1_555
C64_4 C63_4 1_555 1_555
H58_4 C64_4 1_555 1_555
O28_4 C69_4 1_555 1_555
C65_4 O24_4 1_555 1_555
H59_4 C65_4 1_555 1_555
H60_4 C65_4 1_555 1_555
C66_4 C65_4 1_555 1_555
C67_4 C66_4 1_555 1_555
H61_4 C67_4 1_555 1_555
H62_4 C67_4 1_555 1_555
O31_4 C68_4 1_555 1_555
C68_4 C66_4 1_555 1_555
H63_4 C68_4 1_555 1_555
H64_4 C68_4 1_555 1_555
O49_2 C90_4 1_555 1_555
C69_4 C78_4 1_555 1_555
O33_4 C86_4 1_555 1_555
C70_4 O25_4 1_555 1_555
O51_3 C90_4 1_555 1_555
C71_4 C70_4 1_555 1_555
H65_4 C71_4 1_555 1_555
C72_4 C71_4 1_555 1_555
H66_4 C72_4 1_555 1_555
C73_4 C72_4 1_555 1_555
C74_4 C73_4 1_555 1_555
H67_4 C74_4 1_555 1_555
C75_4 C70_4 1_555 1_555
H68_4 C75_4 1_555 1_555
C76_4 O46_3 1_555 1_555
C77_4 O28_4 1_555 1_555
H69_4 C77_4 1_555 1_555
H70_4 C77_4 1_555 1_555
C78_4 H71_4 1_555 1_555
C84_4 O31_4 1_555 1_555
H75_4 C84_4 1_555 1_555
H76_4 C84_4 1_555 1_555
H78_4 C86_4 1_555 1_555
C89_4 H83_4 1_555 1_555
C90_4 C92_4 1_555 1_555
C91_4 C89_4 1_555 1_555
H84_4 C91_4 1_555 1_555
C92_4 C91_4 1_555 1_555
C93_4 C92_4 1_555 1_555
H85_4 C93_4 1_555 1_555
C94_4 C93_4 1_555 1_555
H86_4 C94_4 1_555 1_555
C109_4 O33_4 1_555 1_555
C110_4 C59_4 1_555 1_555
C60_4 C110_4 1_555 1_555
C64_4 C110_4 1_555 1_555
C66_4 C77_4 1_555 1_555
C73_4 C76_4 1_555 1_555
C74_4 C75_4 1_555 1_555
C89_4 C109_4 1_555 1_555
C94_4 C109_4 1_555 1_555
Dy16 O21_4 1_555 1_555
O21_4 C58_4 1_555 1_555
N2_4 C56_4 1_555 1_555
H49_4 C56_4 1_555 1_555
C58_4 N2_4 1_555 1_555
H54_4 C58_4 1_555 1_555
O52 C46_4 1_555 1_555
H40_4 C41_4 1_555 1_555
C42_4 C41_4 1_555 1_555
H41_4 C42_4 1_555 1_555
O47_2 C83_4 1_555 1_555
O35_4 C87_4 1_555 1_555
O38_4 C88_4 1_555 1_555
O56_2 C108_4 1_555 1_555
O58 C108_4 1_555 1_555
H72_4 C79_4 1_555 1_555
C80_4 C79_4 1_555 1_555
C81_4 C80_4 1_555 1_555
H73_4 C81_4 1_555 1_555
H74_4 C82_4 1_555 1_555
C83_4 O29_4 1_555 1_555
C87_4 C85_4 1_555 1_555
H79_4 C87_4 1_555 1_555
H80_4 C87_4 1_555 1_555
C88_4 C85_4 1_555 1_555
H81_4 C88_4 1_555 1_555
H82_4 C88_4 1_555 1_555
C95_4 O35_4 1_555 1_555
C99_4 C98_4 1_555 1_555
H89_4 C99_4 1_555 1_555
C100_4 C95_4 1_555 1_555
H90_4 C100_4 1_555 1_555
C102_4 O38_4 1_555 1_555
C103_4 C102_4 1_555 1_555
H91_4 C103_4 1_555 1_555
C104_4 C103_4 1_555 1_555
H92_4 C104_4 1_555 1_555
C105_4 C104_4 1_555 1_555
C106_4 C105_4 1_555 1_555
H93_4 C106_4 1_555 1_555
C107_4 C102_4 1_555 1_555
H94_4 C107_4 1_555 1_555
C108_4 C105_4 1_555 1_555
C80_4 C83_4 1_555 1_555
C81_4 C82_4 1_555 1_555
C99_4 C100_4 1_555 1_555
C106_4 C107_4 1_555 1_555
H4_4 C2_4 1_555 1_555
H5_4 C2_4 1_555 1_555
H6_4 C2_4 1_555 1_555
O41_2 C4_4 1_555 1_555
C4_4 O43_3 1_555 1_555
C5_4 H8_4 1_555 1_555
O4_4 C7_4 1_555 1_555
C6_4 C5_4 1_555 1_555
H9_4 C6_4 1_555 1_555
O5_4 C12_4 1_555 1_555
C7_4 C6_4 1_555 1_555
O44 C21_4 1_555 1_555
C8_4 C7_4 1_555 1_555
H10_4 C8_4 1_555 1_555
O46_4 C21_4 1_555 1_555
C9_4 C8_4 1_555 1_555
H11_4 C9_4 1_555 1_555
O8_4 C14_4 1_555 1_555
C10_4 O4_4 1_555 1_555
H12_4 C10_4 1_555 1_555
H13_4 C10_4 1_555 1_555
C11_4 C10_4 1_555 1_555
C12_4 C11_4 1_555 1_555
H14_4 C12_4 1_555 1_555
H15_4 C12_4 1_555 1_555
O11_4 C13_4 1_555 1_555
C13_4 C11_4 1_555 1_555
H16_4 C13_4 1_555 1_555
H17_4 C13_4 1_555 1_555
O48_2 C35_4 1_555 1_555
C14_4 C23_4 1_555 1_555
O13_4 C31_4 1_555 1_555
C15_4 O5_4 1_555 1_555
O51_4 C35_4 1_555 1_555
C16_4 C15_4 1_555 1_555
H18_4 C16_4 1_555 1_555
C17_4 C16_4 1_555 1_555
H19_4 C17_4 1_555 1_555
C18_4 C17_4 1_555 1_555
C19_4 C18_4 1_555 1_555
H20_4 C19_4 1_555 1_555
C20_4 C15_4 1_555 1_555
H21_4 C20_4 1_555 1_555
C21_4 C18_4 1_555 1_555
C22_4 O8_4 1_555 1_555
H22_4 C22_4 1_555 1_555
H23_4 C22_4 1_555 1_555
C23_4 H24_4 1_555 1_555
C29_4 O11_4 1_555 1_555
H28_4 C29_4 1_555 1_555
H29_4 C29_4 1_555 1_555
H31_4 C31_4 1_555 1_555
C34_4 H36_4 1_555 1_555
C35_4 C37_4 1_555 1_555
C36_4 C34_4 1_555 1_555
H37_4 C36_4 1_555 1_555
C37_4 C36_4 1_555 1_555
C38_4 C37_4 1_555 1_555
H38_4 C38_4 1_555 1_555
C39_4 C38_4 1_555 1_555
H39_4 C39_4 1_555 1_555
C54_4 O13_4 1_555 1_555
C55_4 C4_4 1_555 1_555
C5_4 C55_4 1_555 1_555
C9_4 C55_4 1_555 1_555
C11_4 C22_4 1_555 1_555
C19_4 C20_4 1_555 1_555
C34_4 C54_4 1_555 1_555
C39_4 C54_4 1_555 1_555
Dy14 O1_4 1_555 1_555
O1_4 C3_4 1_555 1_555
N1_4 C1_4 1_555 1_555
H2_4 C1_4 1_555 1_555
C3_4 N1_4 1_555 1_555
H7_4 C3_4 1_555 1_555
O9_4 Dy14 1_555 1_555
O47 C28_4 1_555 1_555
O15_4 C32_4 1_555 1_555
O18_4 C33_4 1_555 1_555
O57 C53_4 1_555 1_555
H25_4 C24_4 1_555 1_555
C25_4 C24_4 1_555 1_555
C26_4 C25_4 1_555 1_555
H26_4 C26_4 1_555 1_555
H27_4 C27_4 1_555 1_555
C28_4 O9_4 1_555 1_555
C32_4 C30_4 1_555 1_555
H32_4 C32_4 1_555 1_555
H33_4 C32_4 1_555 1_555
C33_4 C30_4 1_555 1_555
H34_4 C33_4 1_555 1_555
H35_4 C33_4 1_555 1_555
C40_4 O15_4 1_555 1_555
C44_4 C43_4 1_555 1_555
H42_4 C44_4 1_555 1_555
C45_4 C40_4 1_555 1_555
H43_4 C45_4 1_555 1_555
C47_4 O18_4 1_555 1_555
C48_4 C47_4 1_555 1_555
H44_4 C48_4 1_555 1_555
C49_4 C48_4 1_555 1_555
H45_4 C49_4 1_555 1_555
C50_4 C49_4 1_555 1_555
C51_4 C50_4 1_555 1_555
H46_4 C51_4 1_555 1_555
C52_4 C47_4 1_555 1_555
H47_4 C52_4 1_555 1_555
C53_4 O56 1_555 1_555
O53 C101_4 1_555 1_555
H87_4 C96_4 1_555 1_555
C97_4 C96_4 1_555 1_555
H88_4 C97_4 1_555 1_555
C25_4 C28_4 1_555 1_555
C26_4 C27_4 1_555 1_555
C44_4 C45_4 1_555 1_555
C50_4 C53_4 1_555 1_555
C51_4 C52_4 1_555 1_555

#END
