
###############################################################################
#
# This file contains modified crystal structure data generated from the
# MOF subset of the Cambridge Structural Database (CSD) v543 
# hosted by the Cambridge Crystallographic Data Centre (CCDC).
#
# This work is licensed under the Creative Commons
# Attribution-NonCommercial-ShareAlike 4.0 International License.
# To view a copy of this license, visit
# http://creativecommons.org/licenses/by-nc-sa/4.0/
# or send a letter to
# Creative Commons, PO Box 1866, Mountain View, CA 94042, USA.
#
# CIF created using the CSD Python API on 29 September 2022
# The structure has been converted into the P1 space group
# The structure has a 3D framework
# The original CSD entry ESEZIO is in the monoclinic crystal system
# The framework has been calculated to contain at least 10.0% void space
# The void calculation uses a probe of radius 1.32A, grid spacing 0.4
#
###############################################################################

data_ESEZIO
_chemical_formula_moiety         '(C416 H336 O152 Tm13)n'
_symmetry_cell_setting           triclinic
_symmetry_space_group_name_H-M   'P 1'
_symmetry_Int_Tables_number      1
_space_group_name_Hall           'P 1'
loop_
_symmetry_equiv_pos_site_id
_symmetry_equiv_pos_as_xyz
1 x,y,z
_cell_length_a                   29.758(2)
_cell_length_b                   20.9104(13)
_cell_length_c                   26.869(2)
_cell_angle_alpha                90
_cell_angle_beta                 107.019(5)
_cell_angle_gamma                90
_cell_volume                     15987.1
loop_
_atom_site_label
_atom_site_type_symbol
_atom_site_fract_x
_atom_site_fract_y
_atom_site_fract_z
Tm8 Tm 0.500000 -0.000000 0.000000
Tm10 Tm 0.500000 -0.000000 0.500000
Tm8_2 Tm 0.500000 -0.000000 1.000000
Tm1 Tm 0.750000 0.750000 0.500000
Tm3 Tm 0.86607(3) 0.60687(3) 0.52559(3)
O1 O 0.8234(5) 0.5760(6) 0.5851(5)
H1 H 0.832114 0.532114 0.597322
H2 H 0.791280 0.576531 0.562997
O2 O 0.6290(3) 0.0717(4) 0.0528(3)
C1 C 0.5958(5) 0.0685(6) 0.0736(5)
O3 O 0.5635(3) 0.0278(4) 0.0610(3)
C2 C 0.6312(5) 0.1611(6) 0.1325(5)
H3 H 0.658483 0.158977 0.120992
O4 O 0.5805(3) 0.2555(4) 0.2170(3)
C3 C 0.6278(5) 0.2071(6) 0.1659(5)
H4 H 0.652458 0.237393 0.177387
O5 O 0.6191(3) 0.2548(4) 0.3365(3)
C4 C 0.5877(5) 0.2110(7) 0.1843(5)
C5 C 0.5529(5) 0.1647(6) 0.1681(5)
H5 H 0.526480 0.165708 0.181133
O7 O 0.5412(4) 0.0324(4) 0.4482(3)
C6 C 0.5560(5) 0.1191(7) 0.1350(5)
H6 H 0.531759 0.088007 0.124650
O8 O 0.6259(3) 0.4246(4) 0.3399(3)
C7 C 0.6169(5) 0.3018(6) 0.2389(5)
H7 H 0.622158 0.329429 0.211230
H8 H 0.646745 0.280008 0.256949
O9 O 0.7921(4) 0.5900(4) 0.4797(4)
C8 C 0.5999(5) 0.3416(6) 0.2774(5)
O10 O 0.7310(3) 0.6480(4) 0.4843(3)
C9 C 0.5819(5) 0.2999(6) 0.3134(5)
H9 H 0.574554 0.326112 0.340692
H10 H 0.552999 0.277018 0.293657
O11 O 0.5780(3) 0.4330(4) 0.2218(3)
C10 C 0.5596(5) 0.3869(5) 0.2490(5)
H11 H 0.534197 0.362359 0.224414
H12 H 0.546436 0.408207 0.274550
O12 O 0.6321(3) 0.2021(4) 0.0151(3)
C11 C 0.6571(5) 0.4665(6) 0.3703(5)
O13 O 0.5722(3) 0.4551(4) 0.1064(3)
C12 C 0.6082(5) 0.2041(6) 0.3630(5)
O14 O 0.7031(3) 0.2464(4) 0.0494(3)
C13 C 0.6370(5) 0.1510(7) 0.3668(6)
H13 H 0.662483 0.151685 0.352163
O15 O 0.5613(3) 0.6215(4) 0.1193(4)
C14 C 0.6279(5) 0.0960(7) 0.3928(6)
H14 H 0.646982 0.059000 0.395372
O16 O 0.4432(4) 0.8740(4) 0.0411(4)
C15 C 0.5917(5) 0.0962(6) 0.4142(5)
O17 O 0.5123(3) 0.8998(4) 0.0309(4)
C16 C 0.5633(5) 0.1498(6) 0.4112(5)
H15 H 0.538437 0.149562 0.426768
O18 O 0.5745(4) 0.6030(5) 0.2406(4)
C17 C 0.5718(5) 0.2041(6) 0.3849(5)
H16 H 0.552475 0.240849 0.382100
O19 O 0.6899(3) 0.7738(4) 0.4318(3)
C18 C 0.5810(5) 0.0364(6) 0.4393(5)
O20 O 0.6211(4) 0.8222(5) 0.4078(3)
C19 C 0.6418(5) 0.3820(6) 0.3075(5)
H17 H 0.666941 0.354144 0.328947
H18 H 0.654508 0.406331 0.283067
C20 C 0.7043(5) 0.4684(6) 0.3722(6)
H19 H 0.716075 0.440857 0.350813
C21 C 0.7342(5) 0.5116(6) 0.4059(5)
H20 H 0.766772 0.511889 0.408965
C22 C 0.7164(5) 0.5538(6) 0.4349(5)
C23 C 0.6688(5) 0.5529(6) 0.4302(5)
H21 H 0.655950 0.583107 0.448671
C24 C 0.6405(5) 0.5085(6) 0.3991(5)
H22 H 0.608256 0.506887 0.397617
C25 C 0.7471(5) 0.6019(6) 0.4688(6)
C26 C 0.5452(5) 0.4782(5) 0.1950(5)
H23 H 0.529258 0.497905 0.218755
H24 H 0.521083 0.457337 0.166095
C27 C 0.5712(5) 0.5292(6) 0.1735(5)
C28 C 0.6013(5) 0.4976(6) 0.1450(5)
H25 H 0.615735 0.530220 0.127806
H26 H 0.626719 0.473118 0.169580
C29 C 0.5353(5) 0.5743(6) 0.1385(5)
H27 H 0.514071 0.550261 0.109130
H28 H 0.516095 0.595037 0.158375
C30 C 0.6022(5) 0.5648(6) 0.2184(5)
H29 H 0.620756 0.534340 0.244674
H30 H 0.624349 0.591959 0.206575
C31 C 0.5675(5) 0.3518(6) 0.0717(5)
H31 H 0.535571 0.350161 0.071473
C32 C 0.6583(5) 0.2455(6) 0.0382(5)
C33 C 0.5884(5) 0.3003(6) 0.0548(5)
H32 H 0.570429 0.262922 0.042570
C34 C 0.6353(5) 0.3023(6) 0.0554(5)
C35 C 0.6607(5) 0.3589(6) 0.0719(5)
H33 H 0.692375 0.361650 0.071168
C36 C 0.6405(5) 0.4106(6) 0.0893(5)
H34 H 0.658361 0.448242 0.101122
C37 C 0.5389(5) 0.6768(6) 0.0997(6)
C38 C 0.4925(5) 0.6903(6) 0.0914(6)
H35 H 0.471849 0.659736 0.099069
C39 C 0.4759(5) 0.7520(6) 0.0708(6)
H36 H 0.443312 0.760877 0.063406
C40 C 0.5032(5) 0.7967(6) 0.0616(6)
C41 C 0.5508(6) 0.7800(7) 0.0670(6)
H37 H 0.570599 0.809409 0.056505
C42 C 0.5680(6) 0.7222(7) 0.0870(6)
H38 H 0.600282 0.712624 0.092287
C43 C 0.4854(5) 0.8610(6) 0.0422(6)
C44 C 0.5970(6) 0.6443(8) 0.2810(5)
C45 C 0.6427(5) 0.6411(7) 0.3088(5)
H39 H 0.662602 0.609275 0.301242
C46 C 0.6604(5) 0.6852(7) 0.3489(5)
H40 H 0.692641 0.683422 0.368519
C47 C 0.6320(6) 0.7307(7) 0.3601(5)
C48 C 0.5850(6) 0.7339(8) 0.3304(6)
H41 H 0.565364 0.766154 0.337807
C49 C 0.5669(6) 0.6923(8) 0.2915(6)
H42 H 0.534836 0.694732 0.271526
C50 C 0.6488(5) 0.7784(7) 0.4025(5)
C51 C 0.5951(5) 0.4071(6) 0.0893(5)
C52 C 0.5954(5) 0.1160(6) 0.1143(5)
O22 O 0.3710(3) 0.0717(4) 0.4472(3)
C53 C 0.4042(5) 0.0685(6) 0.4264(5)
O23 O 0.4365(3) 0.0278(4) 0.4390(3)
C54 C 0.3688(5) 0.1611(6) 0.3675(5)
H45 H 0.341517 0.158977 0.379008
O24 O 0.4195(3) 0.2555(4) 0.2830(3)
C55 C 0.3722(5) 0.2071(6) 0.3341(5)
H46 H 0.347542 0.237393 0.322613
O25 O 0.3809(3) 0.2548(4) 0.1635(3)
C56 C 0.4123(5) 0.2110(7) 0.3157(5)
C57 C 0.4471(5) 0.1647(6) 0.3319(5)
H47 H 0.473520 0.165708 0.318867
O27 O 0.4588(4) 0.0324(4) 0.0518(3)
C58 C 0.4440(5) 0.1191(7) 0.3650(5)
H48 H 0.468241 0.088007 0.375350
O28 O 0.3741(3) 0.4246(4) 0.1601(3)
C59 C 0.3831(5) 0.3018(6) 0.2611(5)
H49 H 0.377842 0.329429 0.288770
H50 H 0.353255 0.280008 0.243051
O29 O 0.2079(4) 0.5900(4) 0.0203(4)
C60 C 0.4001(5) 0.3416(6) 0.2226(5)
O30 O 0.2690(3) 0.6480(4) 0.0157(3)
C61 C 0.4181(5) 0.2999(6) 0.1866(5)
H51 H 0.425446 0.326112 0.159308
H52 H 0.447001 0.277018 0.206343
O31 O 0.4220(3) 0.4330(4) 0.2782(3)
C62 C 0.4404(5) 0.3869(5) 0.2510(5)
H53 H 0.465803 0.362359 0.275586
H54 H 0.453564 0.408207 0.225450
O32 O 0.3679(3) 0.2021(4) 0.4849(3)
C63 C 0.3429(5) 0.4665(6) 0.1297(5)
O33 O 0.4278(3) 0.4551(4) 0.3936(3)
C64 C 0.3918(5) 0.2041(6) 0.1370(5)
O34 O 0.2969(3) 0.2464(4) 0.4506(3)
C65 C 0.3630(5) 0.1510(7) 0.1332(6)
H55 H 0.337517 0.151685 0.147837
O35 O 0.4387(3) 0.6215(4) 0.3807(4)
C66 C 0.3721(5) 0.0960(7) 0.1072(6)
H56 H 0.353018 0.059000 0.104628
O36 O 0.5568(4) 0.8740(4) 0.4589(4)
C67 C 0.4083(5) 0.0962(6) 0.0858(5)
O37 O 0.4877(3) 0.8998(4) 0.4691(4)
C68 C 0.4367(5) 0.1498(6) 0.0888(5)
H57 H 0.461563 0.149562 0.073232
O38 O 0.4255(4) 0.6030(5) 0.2594(4)
C69 C 0.4282(5) 0.2041(6) 0.1151(5)
H58 H 0.447525 0.240849 0.117900
O39 O 0.3101(3) 0.7738(4) 0.0682(3)
C70 C 0.4190(5) 0.0364(6) 0.0607(5)
O40 O 0.3789(4) 0.8222(5) 0.0922(3)
C71 C 0.3582(5) 0.3820(6) 0.1925(5)
H59 H 0.333059 0.354144 0.171053
H60 H 0.345492 0.406331 0.216933
C72 C 0.2957(5) 0.4684(6) 0.1278(6)
H61 H 0.283925 0.440857 0.149187
C73 C 0.2658(5) 0.5116(6) 0.0941(5)
H62 H 0.233228 0.511889 0.091035
C74 C 0.2836(5) 0.5538(6) 0.0651(5)
C75 C 0.3312(5) 0.5529(6) 0.0698(5)
H63 H 0.344050 0.583107 0.051329
C76 C 0.3595(5) 0.5085(6) 0.1009(5)
H64 H 0.391744 0.506887 0.102383
C77 C 0.2529(5) 0.6019(6) 0.0312(6)
C78 C 0.4548(5) 0.4782(5) 0.3050(5)
H65 H 0.470742 0.497905 0.281245
H66 H 0.478917 0.457337 0.333905
C79 C 0.4288(5) 0.5292(6) 0.3265(5)
C80 C 0.3987(5) 0.4976(6) 0.3550(5)
H67 H 0.384265 0.530220 0.372194
H68 H 0.373281 0.473118 0.330420
C81 C 0.4647(5) 0.5743(6) 0.3615(5)
H69 H 0.485929 0.550261 0.390870
H70 H 0.483905 0.595037 0.341625
C82 C 0.3978(5) 0.5648(6) 0.2816(5)
H71 H 0.379244 0.534340 0.255326
H72 H 0.375651 0.591959 0.293425
C83 C 0.4325(5) 0.3518(6) 0.4283(5)
H73 H 0.464429 0.350161 0.428527
C84 C 0.3417(5) 0.2455(6) 0.4618(5)
C85 C 0.4116(5) 0.3003(6) 0.4452(5)
H74 H 0.429571 0.262922 0.457430
C86 C 0.3647(5) 0.3023(6) 0.4446(5)
C87 C 0.3393(5) 0.3589(6) 0.4281(5)
H75 H 0.307625 0.361650 0.428832
C88 C 0.3595(5) 0.4106(6) 0.4107(5)
H76 H 0.341639 0.448242 0.398878
C89 C 0.4611(5) 0.6768(6) 0.4003(6)
C90 C 0.5075(5) 0.6903(6) 0.4086(6)
H77 H 0.528151 0.659736 0.400931
C91 C 0.5241(5) 0.7520(6) 0.4292(6)
H78 H 0.556688 0.760877 0.436594
C92 C 0.4968(5) 0.7967(6) 0.4384(6)
C93 C 0.4492(6) 0.7800(7) 0.4330(6)
H79 H 0.429401 0.809409 0.443495
C94 C 0.4320(6) 0.7222(7) 0.4130(6)
H80 H 0.399718 0.712624 0.407713
C95 C 0.5146(5) 0.8610(6) 0.4578(6)
C96 C 0.4030(6) 0.6443(8) 0.2190(5)
C97 C 0.3573(5) 0.6411(7) 0.1912(5)
H81 H 0.337398 0.609275 0.198758
C98 C 0.3396(5) 0.6852(7) 0.1511(5)
H82 H 0.307359 0.683422 0.131481
C99 C 0.3680(6) 0.7307(7) 0.1399(5)
C100 C 0.4150(6) 0.7339(8) 0.1696(6)
H83 H 0.434636 0.766154 0.162193
C101 C 0.4331(6) 0.6923(8) 0.2085(6)
H84 H 0.465164 0.694732 0.228474
C102 C 0.3512(5) 0.7784(7) 0.0975(5)
C103 C 0.4049(5) 0.4071(6) 0.4107(5)
C104 C 0.4046(5) 0.1160(6) 0.3857(5)
Tm5 Tm 0.250000 0.750000 0.000000
Tm6 Tm 0.250000 0.250000 0.500000
Tm7 Tm 0.750000 0.250000 0.000000
Tm8_3 Tm 0.500000 1.000000 0.000000
Tm10_2 Tm 0.500000 1.000000 0.500000
Tm11 Tm 0.36607(3) 0.10687(3) 0.52559(3)
Tm14 Tm 0.63393(3) 0.89313(3) 0.47441(3)
Tm16 Tm 0.36607(3) 0.89313(3) 0.02559(3)
O41 O 0.1290(3) 0.5717(4) 0.0528(3)
O42 O 0.8710(3) 0.5717(4) 0.4472(3)
O44 O 0.8888(3) 0.5079(4) 0.5512(3)
O47 O 0.7690(3) 0.8520(4) 0.5157(3)
O48 O 0.1321(3) 0.7021(4) 0.0151(3)
O49 O 0.8679(3) 0.7021(4) 0.4849(3)
O50 O 0.7969(3) 0.7464(4) 0.4506(3)
O51 O 0.7031(3) 0.7536(4) 0.5494(3)
O53 O 0.9432(4) 0.6260(4) 0.5411(4)
O56 O 0.8101(3) 0.7262(4) 0.5682(3)
O57 O 0.8789(4) 0.6778(5) 0.5922(3)
Tm4 Tm 0.13393(3) 0.60687(3) 0.97441(3)
O21 O 0.1766(5) 0.5760(6) 0.9149(5)
H43 H 0.167886 0.532114 0.902678
H44 H 0.208720 0.576531 0.937003
Tm5_2 Tm 0.250000 0.750000 1.000000
Tm7_2 Tm 0.750000 0.250000 1.000000
Tm8_4 Tm 0.500000 1.000000 1.000000
Tm12 Tm 0.63393(3) 0.10687(3) 0.97441(3)
O45 O 0.1112(3) 0.5079(4) 0.9488(3)
O52 O 0.0568(4) 0.6260(4) 0.9589(4)
O55 O 0.4877(3) 0.1002(4) 0.9691(4)
O58 O 0.1211(4) 0.6778(5) 0.9078(3)
O6 O 0.6112(3) 0.9921(4) 0.4488(3)
O26 O 0.3888(3) 0.9921(4) 0.0512(3)
O43 O 0.4365(3) 0.9722(4) 0.9390(3)
O46 O 0.5412(4) 0.9676(4) 0.9482(3)
O50_2 O 0.2031(3) 0.7464(4) 0.0494(3)
O55_2 O 0.5123(3) 0.1002(4) 0.5309(4)
O47_2 O 0.2310(3) 0.8520(4) 0.9843(3)
O51_2 O 0.2969(3) 0.7536(4) 0.9506(3)
O56_2 O 0.1899(3) 0.7262(4) 0.9318(3)
O43_2 O 0.5635(3) 0.9722(4) 0.5610(3)
O46_2 O 0.4588(4) 0.9676(4) 0.5518(3)
O1_2 O 0.3234(5) 0.0760(6) 0.5851(5)
H1_2 H 0.332114 0.032114 0.597322
H2_2 H 0.291280 0.076531 0.562997
O9_2 O 0.2921(4) 0.0900(4) 0.4797(4)
O10_2 O 0.2310(3) 0.1480(4) 0.4843(3)
O15_2 O 0.0613(3) 0.1215(4) 0.1193(4)
O17_2 O 0.0123(3) 0.3998(4) 0.0309(4)
O18_2 O 0.0745(4) 0.1030(5) 0.2406(4)
O19_2 O 0.1899(3) 0.2738(4) 0.4318(3)
O20_2 O 0.1211(4) 0.3222(5) 0.4078(3)
C21_2 C 0.2342(5) 0.0116(6) 0.4059(5)
H20_2 H 0.266772 0.011889 0.408965
C22_2 C 0.2164(5) 0.0538(6) 0.4349(5)
C23_2 C 0.1688(5) 0.0529(6) 0.4302(5)
H21_2 H 0.155950 0.083107 0.448671
C24_2 C 0.1405(5) 0.0085(6) 0.3991(5)
H22_2 H 0.108256 0.006887 0.397617
C25_2 C 0.2471(5) 0.1019(6) 0.4688(6)
C27_2 C 0.0712(5) 0.0292(6) 0.1735(5)
H25_2 H 0.115735 0.030220 0.127806
C29_2 C 0.0353(5) 0.0743(6) 0.1385(5)
H27_2 H 0.014071 0.050261 0.109130
H28_2 H 0.016095 0.095037 0.158375
C30_2 C 0.1022(5) 0.0648(6) 0.2184(5)
H29_2 H 0.120756 0.034340 0.244674
H30_2 H 0.124349 0.091959 0.206575
C37_2 C 0.0389(5) 0.1768(6) 0.0997(6)
C40_2 C 0.0032(5) 0.2967(6) 0.0616(6)
C41_2 C 0.0508(6) 0.2800(7) 0.0670(6)
H37_2 H 0.070599 0.309409 0.056505
C42_2 C 0.0680(6) 0.2222(7) 0.0870(6)
H38_2 H 0.100282 0.212624 0.092287
C44_2 C 0.0970(6) 0.1443(8) 0.2810(5)
C45_2 C 0.1427(5) 0.1411(7) 0.3088(5)
H39_2 H 0.162602 0.109275 0.301242
C46_2 C 0.1604(5) 0.1852(7) 0.3489(5)
H40_2 H 0.192641 0.183422 0.368519
C47_2 C 0.1320(6) 0.2307(7) 0.3601(5)
C48_2 C 0.0850(6) 0.2339(8) 0.3304(6)
H41_2 H 0.065364 0.266154 0.337807
C49_2 C 0.0669(6) 0.1923(8) 0.2915(6)
H42_2 H 0.034836 0.194732 0.271526
C50_2 C 0.1488(5) 0.2784(7) 0.4025(5)
O36_2 O 0.0568(4) 0.3740(4) 0.4589(4)
C90_2 C 0.0075(5) 0.1903(6) 0.4086(6)
H77_2 H 0.028151 0.159736 0.400931
C91_2 C 0.0241(5) 0.2520(6) 0.4292(6)
H78_2 H 0.056688 0.260877 0.436594
C95_2 C 0.0146(5) 0.3610(6) 0.4578(6)
Tm8_5 Tm 0.000000 0.500000 0.000000
Tm10_3 Tm 0.000000 0.500000 0.500000
Tm14_2 Tm 0.13393(3) 0.39313(3) 0.47441(3)
O44_2 O 0.3888(3) 0.0079(4) 0.5512(3)
O47_3 O 0.2690(3) 0.3520(4) 0.5157(3)
O51_3 O 0.2031(3) 0.2536(4) 0.5494(3)
O53_2 O 0.4432(4) 0.1260(4) 0.5411(4)
O56_3 O 0.3101(3) 0.2262(4) 0.5682(3)
O57_2 O 0.3789(4) 0.1778(5) 0.5922(3)
Tm8_6 Tm 0.000000 0.500000 1.000000
C1_2 C 0.0958(5) 0.5685(6) 0.0736(5)
O3_2 O 0.0635(3) 0.5278(4) 0.0610(3)
C2_2 C 0.1312(5) 0.6611(6) 0.1325(5)
H3_2 H 0.158483 0.658977 0.120992
O4_2 O 0.0805(3) 0.7555(4) 0.2170(3)
C3_2 C 0.1278(5) 0.7071(6) 0.1659(5)
H4_2 H 0.152458 0.737393 0.177387
O5_2 O 0.1191(3) 0.7548(4) 0.3365(3)
C4_2 C 0.0877(5) 0.7110(7) 0.1843(5)
O6_2 O 0.1112(3) 0.4921(4) 0.4488(3)
C5_2 C 0.0529(5) 0.6647(6) 0.1681(5)
H5_2 H 0.026480 0.665708 0.181133
O7_2 O 0.0412(4) 0.5324(4) 0.4482(3)
C6_2 C 0.0560(5) 0.6191(7) 0.1350(5)
H6_2 H 0.031759 0.588007 0.124650
O8_2 O 0.1259(3) 0.9246(4) 0.3399(3)
C7_2 C 0.1169(5) 0.8018(6) 0.2389(5)
H7_2 H 0.122158 0.829429 0.211230
H8_2 H 0.146745 0.780008 0.256949
C8_2 C 0.0999(5) 0.8416(6) 0.2774(5)
C9_2 C 0.0819(5) 0.7999(6) 0.3134(5)
H9_2 H 0.074554 0.826112 0.340692
H10_2 H 0.052999 0.777018 0.293657
O11_2 O 0.0780(3) 0.9330(4) 0.2218(3)
C10_2 C 0.0596(5) 0.8869(5) 0.2490(5)
H11_2 H 0.034197 0.862359 0.224414
H12_2 H 0.046436 0.908207 0.274550
C11_2 C 0.1571(5) 0.9665(6) 0.3703(5)
O13_2 O 0.0722(3) 0.9551(4) 0.1064(3)
C12_2 C 0.1082(5) 0.7041(6) 0.3630(5)
C13_2 C 0.1370(5) 0.6510(7) 0.3668(6)
H13_2 H 0.162483 0.651685 0.352163
C14_2 C 0.1279(5) 0.5960(7) 0.3928(6)
H14_2 H 0.146982 0.559000 0.395372
C15_2 C 0.0917(5) 0.5962(6) 0.4142(5)
C16_2 C 0.0633(5) 0.6498(6) 0.4112(5)
H15_2 H 0.038437 0.649562 0.426768
C17_2 C 0.0718(5) 0.7041(6) 0.3849(5)
H16_2 H 0.052475 0.740849 0.382100
C18_2 C 0.0810(5) 0.5364(6) 0.4393(5)
C19_2 C 0.1418(5) 0.8820(6) 0.3075(5)
H17_2 H 0.166941 0.854144 0.328947
H18_2 H 0.154508 0.906331 0.283067
C20_2 C 0.2043(5) 0.9684(6) 0.3722(6)
H19_2 H 0.216075 0.940857 0.350813
C26_2 C 0.0452(5) 0.9782(5) 0.1950(5)
H23_2 H 0.029258 0.997905 0.218755
H24_2 H 0.021083 0.957337 0.166095
C28_2 C 0.1013(5) 0.9976(6) 0.1450(5)
H26_2 H 0.126719 0.973118 0.169580
C31_2 C 0.0675(5) 0.8518(6) 0.0717(5)
H31_2 H 0.035571 0.850161 0.071473
C32_2 C 0.1583(5) 0.7455(6) 0.0382(5)
C33_2 C 0.0884(5) 0.8003(6) 0.0548(5)
H32_2 H 0.070429 0.762922 0.042570
C34_2 C 0.1353(5) 0.8023(6) 0.0554(5)
C35_2 C 0.1607(5) 0.8589(6) 0.0719(5)
H33_2 H 0.192375 0.861650 0.071168
C36_2 C 0.1405(5) 0.9106(6) 0.0893(5)
H34_2 H 0.158361 0.948242 0.101122
C51_2 C 0.0951(5) 0.9071(6) 0.0893(5)
C52_2 C 0.0954(5) 0.6160(6) 0.1143(5)
O46_3 O 0.0412(4) 0.4676(4) 0.9482(3)
O16_2 O 0.9432(4) 0.3740(4) 0.0411(4)
C38_2 C 0.9925(5) 0.1903(6) 0.0914(6)
H35_2 H 0.971849 0.159736 0.099069
C39_2 C 0.9759(5) 0.2520(6) 0.0708(6)
H36_2 H 0.943312 0.260877 0.063406
C43_2 C 0.9854(5) 0.3610(6) 0.0422(6)
O29_2 O 0.7079(4) 0.0900(4) 0.0203(4)
O30_2 O 0.7690(3) 0.1480(4) 0.0157(3)
O35_2 O 0.9387(3) 0.1215(4) 0.3807(4)
O37_2 O 0.9877(3) 0.3998(4) 0.4691(4)
O38_2 O 0.9255(4) 0.1030(5) 0.2594(4)
O39_2 O 0.8101(3) 0.2738(4) 0.0682(3)
O40_2 O 0.8789(4) 0.3222(5) 0.0922(3)
C73_2 C 0.7658(5) 0.0116(6) 0.0941(5)
H62_2 H 0.733228 0.011889 0.091035
C74_2 C 0.7836(5) 0.0538(6) 0.0651(5)
C75_2 C 0.8312(5) 0.0529(6) 0.0698(5)
H63_2 H 0.844050 0.083107 0.051329
C76_2 C 0.8595(5) 0.0085(6) 0.1009(5)
H64_2 H 0.891744 0.006887 0.102383
C77_2 C 0.7529(5) 0.1019(6) 0.0312(6)
C79_2 C 0.9288(5) 0.0292(6) 0.3265(5)
H67_2 H 0.884265 0.030220 0.372194
C81_2 C 0.9647(5) 0.0743(6) 0.3615(5)
H69_2 H 0.985929 0.050261 0.390870
H70_2 H 0.983905 0.095037 0.341625
C82_2 C 0.8978(5) 0.0648(6) 0.2816(5)
H71_2 H 0.879244 0.034340 0.255326
H72_2 H 0.875651 0.091959 0.293425
C89_2 C 0.9611(5) 0.1768(6) 0.4003(6)
C92_2 C 0.9968(5) 0.2967(6) 0.4384(6)
C93_2 C 0.9492(6) 0.2800(7) 0.4330(6)
H79_2 H 0.929401 0.309409 0.443495
C94_2 C 0.9320(6) 0.2222(7) 0.4130(6)
H80_2 H 0.899718 0.212624 0.407713
C96_2 C 0.9030(6) 0.1443(8) 0.2190(5)
C97_2 C 0.8573(5) 0.1411(7) 0.1912(5)
H81_2 H 0.837398 0.109275 0.198758
C98_2 C 0.8396(5) 0.1852(7) 0.1511(5)
H82_2 H 0.807359 0.183422 0.131481
C99_2 C 0.8680(6) 0.2307(7) 0.1399(5)
C100_2 C 0.9150(6) 0.2339(8) 0.1696(6)
H83_2 H 0.934636 0.266154 0.162193
C101_2 C 0.9331(6) 0.1923(8) 0.2085(6)
H84_2 H 0.965164 0.194732 0.228474
C102_2 C 0.8512(5) 0.2784(7) 0.0975(5)
Tm8_7 Tm 1.000000 0.500000 0.000000
Tm10_4 Tm 1.000000 0.500000 0.500000
Tm16_2 Tm 0.86607(3) 0.39313(3) 0.02559(3)
O21_2 O 0.6766(5) 0.0760(6) 0.9149(5)
H43_2 H 0.667886 0.032114 0.902678
H44_2 H 0.708720 0.076531 0.937003
Tm8_8 Tm 1.000000 0.500000 1.000000
O45_2 O 0.6112(3) 0.0079(4) 0.9488(3)
O52_2 O 0.5568(4) 0.1260(4) 0.9589(4)
O58_2 O 0.6211(4) 0.1778(5) 0.9078(3)
C53_2 C 0.9042(5) 0.5685(6) 0.4264(5)
O23_2 O 0.9365(3) 0.5278(4) 0.4390(3)
C54_2 C 0.8688(5) 0.6611(6) 0.3675(5)
H45_2 H 0.841517 0.658977 0.379008
O24_2 O 0.9195(3) 0.7555(4) 0.2830(3)
C55_2 C 0.8722(5) 0.7071(6) 0.3341(5)
H46_2 H 0.847542 0.737393 0.322613
O25_2 O 0.8809(3) 0.7548(4) 0.1635(3)
C56_2 C 0.9123(5) 0.7110(7) 0.3157(5)
O26_2 O 0.8888(3) 0.4921(4) 0.0512(3)
C57_2 C 0.9471(5) 0.6647(6) 0.3319(5)
H47_2 H 0.973520 0.665708 0.318867
O27_2 O 0.9588(4) 0.5324(4) 0.0518(3)
C58_2 C 0.9440(5) 0.6191(7) 0.3650(5)
H48_2 H 0.968241 0.588007 0.375350
O28_2 O 0.8741(3) 0.9246(4) 0.1601(3)
C59_2 C 0.8831(5) 0.8018(6) 0.2611(5)
H49_2 H 0.877842 0.829429 0.288770
H50_2 H 0.853255 0.780008 0.243051
C60_2 C 0.9001(5) 0.8416(6) 0.2226(5)
C61_2 C 0.9181(5) 0.7999(6) 0.1866(5)
H51_2 H 0.925446 0.826112 0.159308
H52_2 H 0.947001 0.777018 0.206343
O31_2 O 0.9220(3) 0.9330(4) 0.2782(3)
C62_2 C 0.9404(5) 0.8869(5) 0.2510(5)
H53_2 H 0.965803 0.862359 0.275586
H54_2 H 0.953564 0.908207 0.225450
C63_2 C 0.8429(5) 0.9665(6) 0.1297(5)
O33_2 O 0.9278(3) 0.9551(4) 0.3936(3)
C64_2 C 0.8918(5) 0.7041(6) 0.1370(5)
C65_2 C 0.8630(5) 0.6510(7) 0.1332(6)
H55_2 H 0.837517 0.651685 0.147837
C66_2 C 0.8721(5) 0.5960(7) 0.1072(6)
H56_2 H 0.853018 0.559000 0.104628
C67_2 C 0.9083(5) 0.5962(6) 0.0858(5)
C68_2 C 0.9367(5) 0.6498(6) 0.0888(5)
H57_2 H 0.961563 0.649562 0.073232
C69_2 C 0.9282(5) 0.7041(6) 0.1151(5)
H58_2 H 0.947525 0.740849 0.117900
C70_2 C 0.9190(5) 0.5364(6) 0.0607(5)
C71_2 C 0.8582(5) 0.8820(6) 0.1925(5)
H59_2 H 0.833059 0.854144 0.171053
H60_2 H 0.845492 0.906331 0.216933
C72_2 C 0.7957(5) 0.9684(6) 0.1278(6)
H61_2 H 0.783925 0.940857 0.149187
C78_2 C 0.9548(5) 0.9782(5) 0.3050(5)
H65_2 H 0.970742 0.997905 0.281245
H66_2 H 0.978917 0.957337 0.333905
C80_2 C 0.8987(5) 0.9976(6) 0.3550(5)
H68_2 H 0.873281 0.973118 0.330420
C83_2 C 0.9325(5) 0.8518(6) 0.4283(5)
H73_2 H 0.964429 0.850161 0.428527
C84_2 C 0.8417(5) 0.7455(6) 0.4618(5)
C85_2 C 0.9116(5) 0.8003(6) 0.4452(5)
H74_2 H 0.929571 0.762922 0.457430
C86_2 C 0.8647(5) 0.8023(6) 0.4446(5)
C87_2 C 0.8393(5) 0.8589(6) 0.4281(5)
H75_2 H 0.807625 0.861650 0.428832
C88_2 C 0.8595(5) 0.9106(6) 0.4107(5)
H76_2 H 0.841639 0.948242 0.398878
C103_2 C 0.9049(5) 0.9071(6) 0.4107(5)
C104_2 C 0.9046(5) 0.6160(6) 0.3857(5)
O43_3 O 0.9365(3) 0.4722(4) 0.9390(3)
O55_3 O 0.9877(3) 0.6002(4) 0.9691(4)
O43_4 O 0.0635(3) 0.4722(4) 0.5610(3)
O55_4 O 0.0123(3) 0.6002(4) 0.5309(4)
O47_4 O 0.7310(3) 0.3520(4) 0.9843(3)
O51_4 O 0.7969(3) 0.2536(4) 0.9506(3)
O56_4 O 0.6899(3) 0.2262(4) 0.9318(3)
O46_4 O 0.9588(4) 0.4676(4) 0.5518(3)
O21_3 O 0.8234(5) 0.4240(6) 0.0851(5)
H43_3 H 0.832114 0.467886 0.097322
H44_3 H 0.791280 0.423469 0.062997
O1_3 O 0.1766(5) 0.4240(6) 0.4149(5)
H1_3 H 0.167886 0.467886 0.402678
H2_3 H 0.208720 0.423469 0.437003
O2_2 O 0.3710(3) 0.9283(4) 0.9472(3)
C1_3 C 0.4042(5) 0.9315(6) 0.9264(5)
C2_3 C 0.3688(5) 0.8389(6) 0.8675(5)
H3_3 H 0.341517 0.841023 0.879008
O4_3 O 0.4195(3) 0.7445(4) 0.7830(3)
C3_3 C 0.3722(5) 0.7929(6) 0.8341(5)
H4_3 H 0.347542 0.762607 0.822613
O5_3 O 0.3809(3) 0.7452(4) 0.6635(3)
C4_3 C 0.4123(5) 0.7890(7) 0.8157(5)
C5_3 C 0.4471(5) 0.8353(6) 0.8319(5)
H5_3 H 0.473520 0.834292 0.818867
C6_3 C 0.4440(5) 0.8809(7) 0.8650(5)
H6_3 H 0.468241 0.911993 0.875350
O8_3 O 0.3741(3) 0.5754(4) 0.6601(3)
C7_3 C 0.3831(5) 0.6982(6) 0.7611(5)
H7_3 H 0.377842 0.670571 0.788770
H8_3 H 0.353255 0.719992 0.743051
O9_3 O 0.2079(4) 0.4100(4) 0.5203(4)
C8_3 C 0.4001(5) 0.6584(6) 0.7226(5)
C9_3 C 0.4181(5) 0.7001(6) 0.6866(5)
H9_3 H 0.425446 0.673888 0.659308
H10_3 H 0.447001 0.722982 0.706343
O11_3 O 0.4220(3) 0.5670(4) 0.7782(3)
C10_3 C 0.4404(5) 0.6131(5) 0.7510(5)
H11_3 H 0.465803 0.637641 0.775586
H12_3 H 0.453564 0.591793 0.725450
O12_2 O 0.3679(3) 0.7979(4) 0.9849(3)
C11_3 C 0.3429(5) 0.5335(6) 0.6297(5)
O13_3 O 0.4278(3) 0.5449(4) 0.8936(3)
C12_3 C 0.3918(5) 0.7959(6) 0.6370(5)
C13_3 C 0.3630(5) 0.8490(7) 0.6332(6)
H13_3 H 0.337517 0.848315 0.647837
O15_3 O 0.4387(3) 0.3785(4) 0.8807(4)
C14_3 C 0.3721(5) 0.9040(7) 0.6072(6)
H14_3 H 0.353018 0.941000 0.604628
C15_3 C 0.4083(5) 0.9038(6) 0.5858(5)
C16_3 C 0.4367(5) 0.8502(6) 0.5888(5)
H15_3 H 0.461563 0.850438 0.573232
O18_3 O 0.4255(4) 0.3970(5) 0.7594(4)
C17_3 C 0.4282(5) 0.7959(6) 0.6151(5)
H16_3 H 0.447525 0.759151 0.617900
C18_3 C 0.4190(5) 0.9636(6) 0.5607(5)
C19_3 C 0.3582(5) 0.6180(6) 0.6925(5)
H17_3 H 0.333059 0.645856 0.671053
H18_3 H 0.345492 0.593669 0.716933
C20_3 C 0.2957(5) 0.5316(6) 0.6278(6)
H19_3 H 0.283925 0.559143 0.649187
C21_3 C 0.2658(5) 0.4884(6) 0.5941(5)
H20_3 H 0.233228 0.488111 0.591035
C22_3 C 0.2836(5) 0.4462(6) 0.5651(5)
C23_3 C 0.3312(5) 0.4471(6) 0.5698(5)
H21_3 H 0.344050 0.416893 0.551329
C24_3 C 0.3595(5) 0.4915(6) 0.6009(5)
H22_3 H 0.391744 0.493113 0.602383
C25_3 C 0.2529(5) 0.3981(6) 0.5312(6)
C26_3 C 0.4548(5) 0.5218(5) 0.8050(5)
H23_3 H 0.470742 0.502095 0.781245
H24_3 H 0.478917 0.542663 0.833905
C27_3 C 0.4288(5) 0.4708(6) 0.8265(5)
C28_3 C 0.3987(5) 0.5024(6) 0.8550(5)
H25_3 H 0.384265 0.469780 0.872194
H26_3 H 0.373281 0.526882 0.830420
C29_3 C 0.4647(5) 0.4257(6) 0.8615(5)
H27_3 H 0.485929 0.449739 0.890870
H28_3 H 0.483905 0.404963 0.841625
C30_3 C 0.3978(5) 0.4352(6) 0.7816(5)
H29_3 H 0.379244 0.465660 0.755326
H30_3 H 0.375651 0.408041 0.793425
C31_3 C 0.4325(5) 0.6482(6) 0.9283(5)
H31_3 H 0.464429 0.649839 0.928527
C32_3 C 0.3417(5) 0.7545(6) 0.9618(5)
C33_3 C 0.4116(5) 0.6997(6) 0.9452(5)
H32_3 H 0.429571 0.737078 0.957430
C34_3 C 0.3647(5) 0.6977(6) 0.9446(5)
C35_3 C 0.3393(5) 0.6411(6) 0.9281(5)
H33_3 H 0.307625 0.638350 0.928832
C36_3 C 0.3595(5) 0.5894(6) 0.9107(5)
H34_3 H 0.341639 0.551758 0.898878
C37_3 C 0.4611(5) 0.3232(6) 0.9003(6)
C38_3 C 0.5075(5) 0.3097(6) 0.9086(6)
H35_3 H 0.528151 0.340264 0.900931
C39_3 C 0.5241(5) 0.2480(6) 0.9292(6)
H36_3 H 0.556688 0.239123 0.936594
C40_3 C 0.4968(5) 0.2033(6) 0.9384(6)
C41_3 C 0.4492(6) 0.2200(7) 0.9330(6)
H37_3 H 0.429401 0.190591 0.943495
C42_3 C 0.4320(6) 0.2778(7) 0.9130(6)
H38_3 H 0.399718 0.287376 0.907713
C43_3 C 0.5146(5) 0.1390(6) 0.9578(6)
C44_3 C 0.4030(6) 0.3557(8) 0.7190(5)
C45_3 C 0.3573(5) 0.3589(7) 0.6912(5)
H39_3 H 0.337398 0.390725 0.698758
C46_3 C 0.3396(5) 0.3148(7) 0.6511(5)
H40_3 H 0.307359 0.316578 0.631481
C47_3 C 0.3680(6) 0.2693(7) 0.6399(5)
C48_3 C 0.4150(6) 0.2661(8) 0.6696(6)
H41_3 H 0.434636 0.233846 0.662193
C49_3 C 0.4331(6) 0.3077(8) 0.7085(6)
H42_3 H 0.465164 0.305268 0.728474
C50_3 C 0.3512(5) 0.2216(7) 0.5975(5)
C51_3 C 0.4049(5) 0.5929(6) 0.9107(5)
C52_3 C 0.4046(5) 0.8840(6) 0.8857(5)
O22_2 O 0.6290(3) 0.9283(4) 0.5528(3)
C53_3 C 0.5958(5) 0.9315(6) 0.5736(5)
C54_3 C 0.6312(5) 0.8389(6) 0.6325(5)
H45_3 H 0.658483 0.841023 0.620992
O24_3 O 0.5805(3) 0.7445(4) 0.7170(3)
C55_3 C 0.6278(5) 0.7929(6) 0.6659(5)
H46_3 H 0.652458 0.762607 0.677387
O25_3 O 0.6191(3) 0.7452(4) 0.8365(3)
C56_3 C 0.5877(5) 0.7890(7) 0.6843(5)
C57_3 C 0.5529(5) 0.8353(6) 0.6681(5)
H47_3 H 0.526480 0.834292 0.681133
C58_3 C 0.5560(5) 0.8809(7) 0.6350(5)
H48_3 H 0.531759 0.911993 0.624650
O28_3 O 0.6259(3) 0.5754(4) 0.8399(3)
C59_3 C 0.6169(5) 0.6982(6) 0.7389(5)
H49_3 H 0.622158 0.670571 0.711230
H50_3 H 0.646745 0.719992 0.756949
O29_3 O 0.7921(4) 0.4100(4) 0.9797(4)
C60_3 C 0.5999(5) 0.6584(6) 0.7774(5)
C61_3 C 0.5819(5) 0.7001(6) 0.8134(5)
H51_3 H 0.574554 0.673888 0.840692
H52_3 H 0.552999 0.722982 0.793657
O31_3 O 0.5780(3) 0.5670(4) 0.7218(3)
C62_3 C 0.5596(5) 0.6131(5) 0.7490(5)
H53_3 H 0.534197 0.637641 0.724414
H54_3 H 0.546436 0.591793 0.774550
O32_2 O 0.6321(3) 0.7979(4) 0.5151(3)
C63_3 C 0.6571(5) 0.5335(6) 0.8703(5)
O33_3 O 0.5722(3) 0.5449(4) 0.6064(3)
C64_3 C 0.6082(5) 0.7959(6) 0.8630(5)
C65_3 C 0.6370(5) 0.8490(7) 0.8668(6)
H55_3 H 0.662483 0.848315 0.852163
O35_3 O 0.5613(3) 0.3785(4) 0.6193(4)
C66_3 C 0.6279(5) 0.9040(7) 0.8928(6)
H56_3 H 0.646982 0.941000 0.895372
C67_3 C 0.5917(5) 0.9038(6) 0.9142(5)
C68_3 C 0.5633(5) 0.8502(6) 0.9112(5)
H57_3 H 0.538437 0.850438 0.926768
O38_3 O 0.5745(4) 0.3970(5) 0.7406(4)
C69_3 C 0.5718(5) 0.7959(6) 0.8849(5)
H58_3 H 0.552475 0.759151 0.882100
C70_3 C 0.5810(5) 0.9636(6) 0.9393(5)
C71_3 C 0.6418(5) 0.6180(6) 0.8075(5)
H59_3 H 0.666941 0.645856 0.828947
H60_3 H 0.654508 0.593669 0.783067
C72_3 C 0.7043(5) 0.5316(6) 0.8722(6)
H61_3 H 0.716075 0.559143 0.850813
C73_3 C 0.7342(5) 0.4884(6) 0.9059(5)
H62_3 H 0.766772 0.488111 0.908965
C74_3 C 0.7164(5) 0.4462(6) 0.9349(5)
C75_3 C 0.6688(5) 0.4471(6) 0.9302(5)
H63_3 H 0.655950 0.416893 0.948671
C76_3 C 0.6405(5) 0.4915(6) 0.8991(5)
H64_3 H 0.608256 0.493113 0.897617
C77_3 C 0.7471(5) 0.3981(6) 0.9688(6)
C78_3 C 0.5452(5) 0.5218(5) 0.6950(5)
H65_3 H 0.529258 0.502095 0.718755
H66_3 H 0.521083 0.542663 0.666095
C79_3 C 0.5712(5) 0.4708(6) 0.6735(5)
C80_3 C 0.6013(5) 0.5024(6) 0.6450(5)
H67_3 H 0.615735 0.469780 0.627806
H68_3 H 0.626719 0.526882 0.669580
C81_3 C 0.5353(5) 0.4257(6) 0.6385(5)
H69_3 H 0.514071 0.449739 0.609130
H70_3 H 0.516095 0.404963 0.658375
C82_3 C 0.6022(5) 0.4352(6) 0.7184(5)
H71_3 H 0.620756 0.465660 0.744674
H72_3 H 0.624349 0.408041 0.706575
C83_3 C 0.5675(5) 0.6482(6) 0.5717(5)
H73_3 H 0.535571 0.649839 0.571473
C84_3 C 0.6583(5) 0.7545(6) 0.5382(5)
C85_3 C 0.5884(5) 0.6997(6) 0.5548(5)
H74_3 H 0.570429 0.737078 0.542570
C86_3 C 0.6353(5) 0.6977(6) 0.5554(5)
C87_3 C 0.6607(5) 0.6411(6) 0.5719(5)
H75_3 H 0.692375 0.638350 0.571168
C88_3 C 0.6405(5) 0.5894(6) 0.5893(5)
H76_3 H 0.658361 0.551758 0.601122
C89_3 C 0.5389(5) 0.3232(6) 0.5997(6)
C90_3 C 0.4925(5) 0.3097(6) 0.5914(6)
H77_3 H 0.471849 0.340264 0.599069
C91_3 C 0.4759(5) 0.2480(6) 0.5708(6)
H78_3 H 0.443312 0.239123 0.563406
C92_3 C 0.5032(5) 0.2033(6) 0.5616(6)
C93_3 C 0.5508(6) 0.2200(7) 0.5670(6)
H79_3 H 0.570599 0.190591 0.556505
C94_3 C 0.5680(6) 0.2778(7) 0.5870(6)
H80_3 H 0.600282 0.287376 0.592287
C95_3 C 0.4854(5) 0.1390(6) 0.5422(6)
C96_3 C 0.5970(6) 0.3557(8) 0.7810(5)
C97_3 C 0.6427(5) 0.3589(7) 0.8088(5)
H81_3 H 0.662602 0.390725 0.801242
C98_3 C 0.6604(5) 0.3148(7) 0.8489(5)
H82_3 H 0.692641 0.316578 0.868519
C99_3 C 0.6320(6) 0.2693(7) 0.8601(5)
C100_3 C 0.5850(6) 0.2661(8) 0.8304(6)
H83_3 H 0.565364 0.233846 0.837807
C101_3 C 0.5669(6) 0.3077(8) 0.7915(6)
H84_3 H 0.534836 0.305268 0.771526
C102_3 C 0.6488(5) 0.2216(7) 0.9025(5)
C103_3 C 0.5951(5) 0.5929(6) 0.5893(5)
C104_3 C 0.5954(5) 0.8840(6) 0.6143(5)
O41_2 O 0.8710(3) 0.4283(4) 0.9472(3)
O42_2 O 0.1290(3) 0.4283(4) 0.5528(3)
O48_2 O 0.8679(3) 0.2979(4) 0.9849(3)
O49_2 O 0.1321(3) 0.2979(4) 0.5151(3)
C53_4 C 0.0958(5) 0.4315(6) 0.5736(5)
C54_4 C 0.1312(5) 0.3389(6) 0.6325(5)
H45_4 H 0.158483 0.341023 0.620992
O24_4 O 0.0805(3) 0.2445(4) 0.7170(3)
C55_4 C 0.1278(5) 0.2929(6) 0.6659(5)
H46_4 H 0.152458 0.262607 0.677387
O25_4 O 0.1191(3) 0.2452(4) 0.8365(3)
C56_4 C 0.0877(5) 0.2890(7) 0.6843(5)
C57_4 C 0.0529(5) 0.3353(6) 0.6681(5)
H47_4 H 0.026480 0.334292 0.681133
C58_4 C 0.0560(5) 0.3809(7) 0.6350(5)
H48_4 H 0.031759 0.411993 0.624650
O28_4 O 0.1259(3) 0.0754(4) 0.8399(3)
C59_4 C 0.1169(5) 0.1982(6) 0.7389(5)
H49_4 H 0.122158 0.170571 0.711230
H50_4 H 0.146745 0.219992 0.756949
C60_4 C 0.0999(5) 0.1584(6) 0.7774(5)
C61_4 C 0.0819(5) 0.2001(6) 0.8134(5)
H51_4 H 0.074554 0.173888 0.840692
H52_4 H 0.052999 0.222982 0.793657
O31_4 O 0.0780(3) 0.0670(4) 0.7218(3)
C62_4 C 0.0596(5) 0.1131(5) 0.7490(5)
H53_4 H 0.034197 0.137641 0.724414
H54_4 H 0.046436 0.091793 0.774550
C63_4 C 0.1571(5) 0.0335(6) 0.8703(5)
O33_4 O 0.0722(3) 0.0449(4) 0.6064(3)
C64_4 C 0.1082(5) 0.2959(6) 0.8630(5)
C65_4 C 0.1370(5) 0.3490(7) 0.8668(6)
H55_4 H 0.162483 0.348315 0.852163
C66_4 C 0.1279(5) 0.4040(7) 0.8928(6)
H56_4 H 0.146982 0.441000 0.895372
C67_4 C 0.0917(5) 0.4038(6) 0.9142(5)
C68_4 C 0.0633(5) 0.3502(6) 0.9112(5)
H57_4 H 0.038437 0.350438 0.926768
C69_4 C 0.0718(5) 0.2959(6) 0.8849(5)
H58_4 H 0.052475 0.259151 0.882100
C70_4 C 0.0810(5) 0.4636(6) 0.9393(5)
C71_4 C 0.1418(5) 0.1180(6) 0.8075(5)
H59_4 H 0.166941 0.145856 0.828947
H60_4 H 0.154508 0.093669 0.783067
C72_4 C 0.2043(5) 0.0316(6) 0.8722(6)
H61_4 H 0.216075 0.059143 0.850813
C78_4 C 0.0452(5) 0.0218(5) 0.6950(5)
H65_4 H 0.029258 0.002095 0.718755
H66_4 H 0.021083 0.042663 0.666095
C80_4 C 0.1013(5) 0.0024(6) 0.6450(5)
H68_4 H 0.126719 0.026882 0.669580
C83_4 C 0.0675(5) 0.1482(6) 0.5717(5)
H73_4 H 0.035571 0.149839 0.571473
C84_4 C 0.1583(5) 0.2545(6) 0.5382(5)
C85_4 C 0.0884(5) 0.1997(6) 0.5548(5)
H74_4 H 0.070429 0.237078 0.542570
C86_4 C 0.1353(5) 0.1977(6) 0.5554(5)
C87_4 C 0.1607(5) 0.1411(6) 0.5719(5)
H75_4 H 0.192375 0.138350 0.571168
C88_4 C 0.1405(5) 0.0894(6) 0.5893(5)
H76_4 H 0.158361 0.051758 0.601122
C103_4 C 0.0951(5) 0.0929(6) 0.5893(5)
C104_4 C 0.0954(5) 0.3840(6) 0.6143(5)
O21_4 O 0.3234(5) 0.9240(6) 0.0851(5)
H43_4 H 0.332114 0.967886 0.097322
H44_4 H 0.291280 0.923469 0.062997
C38_4 C 0.0075(5) 0.8097(6) 0.9086(6)
H35_4 H 0.028151 0.840264 0.900931
C39_4 C 0.0241(5) 0.7480(6) 0.9292(6)
H36_4 H 0.056688 0.739123 0.936594
C43_4 C 0.0146(5) 0.6390(6) 0.9578(6)
O29_4 O 0.2921(4) 0.9100(4) 0.9797(4)
O35_4 O 0.0613(3) 0.8785(4) 0.6193(4)
O38_4 O 0.0745(4) 0.8970(5) 0.7406(4)
C73_4 C 0.2342(5) 0.9884(6) 0.9059(5)
H62_4 H 0.266772 0.988111 0.908965
C74_4 C 0.2164(5) 0.9462(6) 0.9349(5)
C75_4 C 0.1688(5) 0.9471(6) 0.9302(5)
H63_4 H 0.155950 0.916893 0.948671
C76_4 C 0.1405(5) 0.9915(6) 0.8991(5)
H64_4 H 0.108256 0.993113 0.897617
C77_4 C 0.2471(5) 0.8981(6) 0.9688(6)
C79_4 C 0.0712(5) 0.9708(6) 0.6735(5)
H67_4 H 0.115735 0.969780 0.627806
C81_4 C 0.0353(5) 0.9257(6) 0.6385(5)
H69_4 H 0.014071 0.949739 0.609130
H70_4 H 0.016095 0.904963 0.658375
C82_4 C 0.1022(5) 0.9352(6) 0.7184(5)
H71_4 H 0.120756 0.965660 0.744674
H72_4 H 0.124349 0.908041 0.706575
C89_4 C 0.0389(5) 0.8232(6) 0.5997(6)
C92_4 C 0.0032(5) 0.7033(6) 0.5616(6)
C93_4 C 0.0508(6) 0.7200(7) 0.5670(6)
H79_4 H 0.070599 0.690591 0.556505
C94_4 C 0.0680(6) 0.7778(7) 0.5870(6)
H80_4 H 0.100282 0.787376 0.592287
C96_4 C 0.0970(6) 0.8557(8) 0.7810(5)
C97_4 C 0.1427(5) 0.8589(7) 0.8088(5)
H81_4 H 0.162602 0.890725 0.801242
C98_4 C 0.1604(5) 0.8148(7) 0.8489(5)
H82_4 H 0.192641 0.816578 0.868519
C99_4 C 0.1320(6) 0.7693(7) 0.8601(5)
C100_4 C 0.0850(6) 0.7661(8) 0.8304(6)
H83_4 H 0.065364 0.733846 0.837807
C101_4 C 0.0669(6) 0.8077(8) 0.7915(6)
H84_4 H 0.034836 0.805268 0.771526
C102_4 C 0.1488(5) 0.7216(7) 0.9025(5)
C1_4 C 0.9042(5) 0.4315(6) 0.9264(5)
C2_4 C 0.8688(5) 0.3389(6) 0.8675(5)
H3_4 H 0.841517 0.341023 0.879008
O4_4 O 0.9195(3) 0.2445(4) 0.7830(3)
C3_4 C 0.8722(5) 0.2929(6) 0.8341(5)
H4_4 H 0.847542 0.262607 0.822613
O5_4 O 0.8809(3) 0.2452(4) 0.6635(3)
C4_4 C 0.9123(5) 0.2890(7) 0.8157(5)
C5_4 C 0.9471(5) 0.3353(6) 0.8319(5)
H5_4 H 0.973520 0.334292 0.818867
C6_4 C 0.9440(5) 0.3809(7) 0.8650(5)
H6_4 H 0.968241 0.411993 0.875350
O8_4 O 0.8741(3) 0.0754(4) 0.6601(3)
C7_4 C 0.8831(5) 0.1982(6) 0.7611(5)
H7_4 H 0.877842 0.170571 0.788770
H8_4 H 0.853255 0.219992 0.743051
C8_4 C 0.9001(5) 0.1584(6) 0.7226(5)
C9_4 C 0.9181(5) 0.2001(6) 0.6866(5)
H9_4 H 0.925446 0.173888 0.659308
H10_4 H 0.947001 0.222982 0.706343
O11_4 O 0.9220(3) 0.0670(4) 0.7782(3)
C10_4 C 0.9404(5) 0.1131(5) 0.7510(5)
H11_4 H 0.965803 0.137641 0.775586
H12_4 H 0.953564 0.091793 0.725450
C11_4 C 0.8429(5) 0.0335(6) 0.6297(5)
O13_4 O 0.9278(3) 0.0449(4) 0.8936(3)
C12_4 C 0.8918(5) 0.2959(6) 0.6370(5)
C13_4 C 0.8630(5) 0.3490(7) 0.6332(6)
H13_4 H 0.837517 0.348315 0.647837
C14_4 C 0.8721(5) 0.4040(7) 0.6072(6)
H14_4 H 0.853018 0.441000 0.604628
C15_4 C 0.9083(5) 0.4038(6) 0.5858(5)
C16_4 C 0.9367(5) 0.3502(6) 0.5888(5)
H15_4 H 0.961563 0.350438 0.573232
C17_4 C 0.9282(5) 0.2959(6) 0.6151(5)
H16_4 H 0.947525 0.259151 0.617900
C18_4 C 0.9190(5) 0.4636(6) 0.5607(5)
C19_4 C 0.8582(5) 0.1180(6) 0.6925(5)
H17_4 H 0.833059 0.145856 0.671053
H18_4 H 0.845492 0.093669 0.716933
C20_4 C 0.7957(5) 0.0316(6) 0.6278(6)
H19_4 H 0.783925 0.059143 0.649187
C26_4 C 0.9548(5) 0.0218(5) 0.8050(5)
H23_4 H 0.970742 0.002095 0.781245
H24_4 H 0.978917 0.042663 0.833905
C28_4 C 0.8987(5) 0.0024(6) 0.8550(5)
H26_4 H 0.873281 0.026882 0.830420
C31_4 C 0.9325(5) 0.1482(6) 0.9283(5)
H31_4 H 0.964429 0.149839 0.928527
C32_4 C 0.8417(5) 0.2545(6) 0.9618(5)
C33_4 C 0.9116(5) 0.1997(6) 0.9452(5)
H32_4 H 0.929571 0.237078 0.957430
C34_4 C 0.8647(5) 0.1977(6) 0.9446(5)
C35_4 C 0.8393(5) 0.1411(6) 0.9281(5)
H33_4 H 0.807625 0.138350 0.928832
C36_4 C 0.8595(5) 0.0894(6) 0.9107(5)
H34_4 H 0.841639 0.051758 0.898878
C51_4 C 0.9049(5) 0.0929(6) 0.9107(5)
C52_4 C 0.9046(5) 0.3840(6) 0.8857(5)
O1_4 O 0.6766(5) 0.9240(6) 0.4149(5)
H1_4 H 0.667886 0.967886 0.402678
H2_4 H 0.708720 0.923469 0.437003
O9_4 O 0.7079(4) 0.9100(4) 0.5203(4)
O15_4 O 0.9387(3) 0.8785(4) 0.8807(4)
O18_4 O 0.9255(4) 0.8970(5) 0.7594(4)
C21_4 C 0.7658(5) 0.9884(6) 0.5941(5)
H20_4 H 0.733228 0.988111 0.591035
C22_4 C 0.7836(5) 0.9462(6) 0.5651(5)
C23_4 C 0.8312(5) 0.9471(6) 0.5698(5)
H21_4 H 0.844050 0.916893 0.551329
C24_4 C 0.8595(5) 0.9915(6) 0.6009(5)
H22_4 H 0.891744 0.993113 0.602383
C25_4 C 0.7529(5) 0.8981(6) 0.5312(6)
C27_4 C 0.9288(5) 0.9708(6) 0.8265(5)
H25_4 H 0.884265 0.969780 0.872194
C29_4 C 0.9647(5) 0.9257(6) 0.8615(5)
H27_4 H 0.985929 0.949739 0.890870
H28_4 H 0.983905 0.904963 0.841625
C30_4 C 0.8978(5) 0.9352(6) 0.7816(5)
H29_4 H 0.879244 0.965660 0.755326
H30_4 H 0.875651 0.908041 0.793425
C37_4 C 0.9611(5) 0.8232(6) 0.9003(6)
C40_4 C 0.9968(5) 0.7033(6) 0.9384(6)
C41_4 C 0.9492(6) 0.7200(7) 0.9330(6)
H37_4 H 0.929401 0.690591 0.943495
C42_4 C 0.9320(6) 0.7778(7) 0.9130(6)
H38_4 H 0.899718 0.787376 0.907713
C44_4 C 0.9030(6) 0.8557(8) 0.7190(5)
C45_4 C 0.8573(5) 0.8589(7) 0.6912(5)
H39_4 H 0.837398 0.890725 0.698758
C46_4 C 0.8396(5) 0.8148(7) 0.6511(5)
H40_4 H 0.807359 0.816578 0.631481
C47_4 C 0.8680(6) 0.7693(7) 0.6399(5)
C48_4 C 0.9150(6) 0.7661(8) 0.6696(6)
H41_4 H 0.934636 0.733846 0.662193
C49_4 C 0.9331(6) 0.8077(8) 0.7085(6)
H42_4 H 0.965164 0.805268 0.728474
C50_4 C 0.8512(5) 0.7216(7) 0.5975(5)
C90_4 C 0.9925(5) 0.8097(6) 0.5914(6)
H77_4 H 0.971849 0.840264 0.599069
C91_4 C 0.9759(5) 0.7480(6) 0.5708(6)
H78_4 H 0.943312 0.739123 0.563406
C95_4 C 0.9854(5) 0.6390(6) 0.5422(6)
loop_
_geom_bond_atom_site_label_1
_geom_bond_atom_site_label_2
_geom_bond_site_symmetry_1
_geom_bond_site_symmetry_2
Tm1 O10 1_555 1_555
Tm8 O3 1_555 1_555
Tm3 O1 1_555 1_555
O1 H1 1_555 1_555
H2 O1 1_555 1_555
O2 C1 1_555 1_555
C1 O3 1_555 1_555
C2 H3 1_555 1_555
O4 C4 1_555 1_555
C3 C2 1_555 1_555
H4 C3 1_555 1_555
O5 C9 1_555 1_555
C4 C3 1_555 1_555
C5 C4 1_555 1_555
H5 C5 1_555 1_555
O7 C18 1_555 1_555
C6 C5 1_555 1_555
H6 C6 1_555 1_555
O8 C11 1_555 1_555
C7 O4 1_555 1_555
H7 C7 1_555 1_555
H8 C7 1_555 1_555
O9 Tm3 1_555 1_555
C8 C7 1_555 1_555
O10 C25 1_555 1_555
C9 C8 1_555 1_555
H9 C9 1_555 1_555
H10 C9 1_555 1_555
O11 C10 1_555 1_555
C10 C8 1_555 1_555
H11 C10 1_555 1_555
H12 C10 1_555 1_555
O12 C32 1_555 1_555
C11 C20 1_555 1_555
O13 C28 1_555 1_555
C12 O5 1_555 1_555
O14 C32 1_555 1_555
C13 C12 1_555 1_555
H13 C13 1_555 1_555
O15 C29 1_555 1_555
C14 C13 1_555 1_555
H14 C14 1_555 1_555
O16 C43 1_555 1_555
C15 C14 1_555 1_555
O17 C43 1_555 1_555
C16 C15 1_555 1_555
H15 C16 1_555 1_555
O18 C30 1_555 1_555
C17 C12 1_555 1_555
H16 C17 1_555 1_555
O19 Tm1 1_555 1_555
C18 C15 1_555 1_555
O20 C50 1_555 1_555
C19 O8 1_555 1_555
H17 C19 1_555 1_555
H18 C19 1_555 1_555
C20 H19 1_555 1_555
C21 C20 1_555 1_555
H20 C21 1_555 1_555
C22 C21 1_555 1_555
C23 C22 1_555 1_555
H21 C23 1_555 1_555
C24 C11 1_555 1_555
H22 C24 1_555 1_555
C25 O9 1_555 1_555
C26 O11 1_555 1_555
H23 C26 1_555 1_555
H24 C26 1_555 1_555
C27 C26 1_555 1_555
C28 C27 1_555 1_555
H25 C28 1_555 1_555
H26 C28 1_555 1_555
C29 C27 1_555 1_555
H27 C29 1_555 1_555
H28 C29 1_555 1_555
C30 C27 1_555 1_555
H29 C30 1_555 1_555
H30 C30 1_555 1_555
C31 H31 1_555 1_555
C32 C34 1_555 1_555
C33 C31 1_555 1_555
H32 C33 1_555 1_555
C34 C33 1_555 1_555
C35 C34 1_555 1_555
H33 C35 1_555 1_555
C36 C35 1_555 1_555
H34 C36 1_555 1_555
C37 O15 1_555 1_555
C38 C37 1_555 1_555
H35 C38 1_555 1_555
C39 C38 1_555 1_555
H36 C39 1_555 1_555
C40 C39 1_555 1_555
C41 C40 1_555 1_555
H37 C41 1_555 1_555
C42 C37 1_555 1_555
H38 C42 1_555 1_555
C43 C40 1_555 1_555
C44 O18 1_555 1_555
C45 C44 1_555 1_555
H39 C45 1_555 1_555
C46 C45 1_555 1_555
H40 C46 1_555 1_555
C47 C46 1_555 1_555
C48 C47 1_555 1_555
H41 C48 1_555 1_555
C49 C44 1_555 1_555
H42 C49 1_555 1_555
C50 O19 1_555 1_555
C51 O13 1_555 1_555
C52 C1 1_555 1_555
O22 C53 1_555 1_555
C53 O23 1_555 1_555
O23 Tm10 1_555 1_555
C54 H45 1_555 1_555
O24 C56 1_555 1_555
C55 C54 1_555 1_555
H46 C55 1_555 1_555
O25 C61 1_555 1_555
C56 C55 1_555 1_555
C57 C56 1_555 1_555
H47 C57 1_555 1_555
O27 Tm8 1_555 1_555
C58 C57 1_555 1_555
H48 C58 1_555 1_555
O28 C63 1_555 1_555
C59 O24 1_555 1_555
H49 C59 1_555 1_555
H50 C59 1_555 1_555
C60 C59 1_555 1_555
O30 C77 1_555 1_555
C61 C60 1_555 1_555
H51 C61 1_555 1_555
H52 C61 1_555 1_555
O31 C62 1_555 1_555
C62 C60 1_555 1_555
H53 C62 1_555 1_555
H54 C62 1_555 1_555
O32 C84 1_555 1_555
C63 C72 1_555 1_555
O33 C80 1_555 1_555
C64 O25 1_555 1_555
O34 C84 1_555 1_555
C65 C64 1_555 1_555
H55 C65 1_555 1_555
O35 C81 1_555 1_555
C66 C65 1_555 1_555
H56 C66 1_555 1_555
O36 C95 1_555 1_555
C67 C66 1_555 1_555
O37 C95 1_555 1_555
C68 C67 1_555 1_555
H57 C68 1_555 1_555
O38 C82 1_555 1_555
C69 C64 1_555 1_555
H58 C69 1_555 1_555
O39 C102 1_555 1_555
C70 O27 1_555 1_555
O40 C102 1_555 1_555
C71 O28 1_555 1_555
H59 C71 1_555 1_555
H60 C71 1_555 1_555
C72 H61 1_555 1_555
C73 C72 1_555 1_555
H62 C73 1_555 1_555
C74 C73 1_555 1_555
C75 C74 1_555 1_555
H63 C75 1_555 1_555
C76 C63 1_555 1_555
H64 C76 1_555 1_555
C77 O29 1_555 1_555
C78 O31 1_555 1_555
H65 C78 1_555 1_555
H66 C78 1_555 1_555
C79 C78 1_555 1_555
C80 C79 1_555 1_555
H67 C80 1_555 1_555
H68 C80 1_555 1_555
C81 C79 1_555 1_555
H69 C81 1_555 1_555
H70 C81 1_555 1_555
C82 C79 1_555 1_555
H71 C82 1_555 1_555
H72 C82 1_555 1_555
C83 H73 1_555 1_555
C84 C86 1_555 1_555
C85 C83 1_555 1_555
H74 C85 1_555 1_555
C86 C85 1_555 1_555
C87 C86 1_555 1_555
H75 C87 1_555 1_555
C88 C87 1_555 1_555
H76 C88 1_555 1_555
C89 O35 1_555 1_555
C90 C89 1_555 1_555
H77 C90 1_555 1_555
C91 C90 1_555 1_555
H78 C91 1_555 1_555
C92 C91 1_555 1_555
C93 C92 1_555 1_555
H79 C93 1_555 1_555
C94 C89 1_555 1_555
H80 C94 1_555 1_555
C95 C92 1_555 1_555
C96 O38 1_555 1_555
C97 C96 1_555 1_555
H81 C97 1_555 1_555
C98 C97 1_555 1_555
H82 C98 1_555 1_555
C99 C98 1_555 1_555
C100 C99 1_555 1_555
H83 C100 1_555 1_555
C101 C96 1_555 1_555
H84 C101 1_555 1_555
C102 C99 1_555 1_555
C103 O33 1_555 1_555
C104 C53 1_555 1_555
Tm5 O30 1_555 1_555
Tm6 O34 1_555 1_555
Tm7 O14 1_555 1_555
Tm8_3 O17 1_555 1_555
Tm10 O7 1_555 1_555
Tm10_2 O37 1_555 1_555
Tm11 O22 1_555 1_555
Tm14 O20 1_555 1_555
Tm16 O16 1_555 1_555
O42 Tm3 1_555 1_555
O44 Tm3 1_555 1_555
O47 Tm1 1_555 1_555
O49 Tm3 1_555 1_555
O50 Tm1 1_555 1_555
O51 Tm1 1_555 1_555
O53 Tm3 1_555 1_555
O56 Tm1 1_555 1_555
O57 Tm3 1_555 1_555
C2 C52 1_555 1_555
C6 C52 1_555 1_555
C8 C19 1_555 1_555
C16 C17 1_555 1_555
C22 C25 1_555 1_555
C23 C24 1_555 1_555
C31 C51 1_555 1_555
C36 C51 1_555 1_555
C41 C42 1_555 1_555
C47 C50 1_555 1_555
C48 C49 1_555 1_555
C54 C104 1_555 1_555
C58 C104 1_555 1_555
C60 C71 1_555 1_555
O32 Tm11 1_555 1_555
O36 Tm14 1_555 1_555
C67 C70 1_555 1_555
C68 C69 1_555 1_555
O39 Tm5 1_555 1_555
O40 Tm16 1_555 1_555
C74 C77 1_555 1_555
C75 C76 1_555 1_555
C83 C103 1_555 1_555
C88 C103 1_555 1_555
C93 C94 1_555 1_555
C100 C101 1_555 1_555
Tm4 O21 1_555 1_555
O21 H43 1_555 1_555
H44 O21 1_555 1_555
O45 Tm4 1_555 1_555
O52 Tm4 1_555 1_555
O55 Tm8_2 1_555 1_555
O58 Tm4 1_555 1_555
Tm14 O6 1_555 1_555
Tm16 O26 1_555 1_555
O43 Tm8_4 1_555 1_555
O46 Tm8_4 1_555 1_555
O50_2 Tm5 1_555 1_555
O55_2 Tm10 1_555 1_555
O47_2 Tm5_2 1_555 1_555
O51_2 Tm5_2 1_555 1_555
O56_2 Tm5_2 1_555 1_555
O43_2 Tm10_2 1_555 1_555
O46_2 Tm10_2 1_555 1_555
Tm6 O10_2 1_555 1_555
Tm11 O1_2 1_555 1_555
O1_2 H1_2 1_555 1_555
H2_2 O1_2 1_555 1_555
O9_2 Tm11 1_555 1_555
O10_2 C25_2 1_555 1_555
O15_2 C29_2 1_555 1_555
O18_2 C30_2 1_555 1_555
O19_2 Tm6 1_555 1_555
O20_2 C50_2 1_555 1_555
H20_2 C21_2 1_555 1_555
C22_2 C21_2 1_555 1_555
C23_2 C22_2 1_555 1_555
H21_2 C23_2 1_555 1_555
H22_2 C24_2 1_555 1_555
C25_2 O9_2 1_555 1_555
C29_2 C27_2 1_555 1_555
H27_2 C29_2 1_555 1_555
H28_2 C29_2 1_555 1_555
C30_2 C27_2 1_555 1_555
H29_2 C30_2 1_555 1_555
H30_2 C30_2 1_555 1_555
C37_2 O15_2 1_555 1_555
C41_2 C40_2 1_555 1_555
H37_2 C41_2 1_555 1_555
C42_2 C37_2 1_555 1_555
H38_2 C42_2 1_555 1_555
C44_2 O18_2 1_555 1_555
C45_2 C44_2 1_555 1_555
H39_2 C45_2 1_555 1_555
C46_2 C45_2 1_555 1_555
H40_2 C46_2 1_555 1_555
C47_2 C46_2 1_555 1_555
C48_2 C47_2 1_555 1_555
H41_2 C48_2 1_555 1_555
C49_2 C44_2 1_555 1_555
H42_2 C49_2 1_555 1_555
C50_2 O19_2 1_555 1_555
O36_2 C95_2 1_555 1_555
H77_2 C90_2 1_555 1_555
C91_2 C90_2 1_555 1_555
H78_2 C91_2 1_555 1_555
Tm8_5 O17_2 1_555 1_555
Tm14_2 O20_2 1_555 1_555
O44_2 Tm11 1_555 1_555
O47_3 Tm6 1_555 1_555
O51_3 Tm6 1_555 1_555
O53_2 Tm11 1_555 1_555
O56_3 Tm6 1_555 1_555
O57_2 Tm11 1_555 1_555
C22_2 C25_2 1_555 1_555
C23_2 C24_2 1_555 1_555
C41_2 C42_2 1_555 1_555
C47_2 C50_2 1_555 1_555
C48_2 C49_2 1_555 1_555
O36_2 Tm14_2 1_555 1_555
Tm8_5 O3_2 1_555 1_555
O41 C1_2 1_555 1_555
C1_2 O3_2 1_555 1_555
C2_2 H3_2 1_555 1_555
O4_2 C4_2 1_555 1_555
C3_2 C2_2 1_555 1_555
H4_2 C3_2 1_555 1_555
O5_2 C9_2 1_555 1_555
C4_2 C3_2 1_555 1_555
O6_2 C18_2 1_555 1_555
C5_2 C4_2 1_555 1_555
H5_2 C5_2 1_555 1_555
O7_2 C18_2 1_555 1_555
C6_2 C5_2 1_555 1_555
H6_2 C6_2 1_555 1_555
O8_2 C11_2 1_555 1_555
C7_2 O4_2 1_555 1_555
H7_2 C7_2 1_555 1_555
H8_2 C7_2 1_555 1_555
C8_2 C7_2 1_555 1_555
C9_2 C8_2 1_555 1_555
H9_2 C9_2 1_555 1_555
H10_2 C9_2 1_555 1_555
O11_2 C10_2 1_555 1_555
C10_2 C8_2 1_555 1_555
H11_2 C10_2 1_555 1_555
H12_2 C10_2 1_555 1_555
O48 C32_2 1_555 1_555
C11_2 C20_2 1_555 1_555
O13_2 C28_2 1_555 1_555
C12_2 O5_2 1_555 1_555
O50_2 C32_2 1_555 1_555
C13_2 C12_2 1_555 1_555
H13_2 C13_2 1_555 1_555
C14_2 C13_2 1_555 1_555
H14_2 C14_2 1_555 1_555
C15_2 C14_2 1_555 1_555
C16_2 C15_2 1_555 1_555
H15_2 C16_2 1_555 1_555
C17_2 C12_2 1_555 1_555
H16_2 C17_2 1_555 1_555
C18_2 C15_2 1_555 1_555
C19_2 O8_2 1_555 1_555
H17_2 C19_2 1_555 1_555
H18_2 C19_2 1_555 1_555
C20_2 H19_2 1_555 1_555
C26_2 O11_2 1_555 1_555
H23_2 C26_2 1_555 1_555
H24_2 C26_2 1_555 1_555
H26_2 C28_2 1_555 1_555
C31_2 H31_2 1_555 1_555
C32_2 C34_2 1_555 1_555
C33_2 C31_2 1_555 1_555
H32_2 C33_2 1_555 1_555
C34_2 C33_2 1_555 1_555
C35_2 C34_2 1_555 1_555
H33_2 C35_2 1_555 1_555
C36_2 C35_2 1_555 1_555
H34_2 C36_2 1_555 1_555
C51_2 O13_2 1_555 1_555
C52_2 C1_2 1_555 1_555
Tm10_3 O7_2 1_555 1_555
Tm14_2 O6_2 1_555 1_555
C2_2 C52_2 1_555 1_555
C6_2 C52_2 1_555 1_555
C8_2 C19_2 1_555 1_555
C16_2 C17_2 1_555 1_555
C31_2 C51_2 1_555 1_555
C36_2 C51_2 1_555 1_555
O46_3 Tm8_6 1_555 1_555
O16_2 C43_2 1_555 1_555
H35_2 C38_2 1_555 1_555
C39_2 C38_2 1_555 1_555
H36_2 C39_2 1_555 1_555
O30_2 C77_2 1_555 1_555
O35_2 C81_2 1_555 1_555
O38_2 C82_2 1_555 1_555
O39_2 C102_2 1_555 1_555
O40_2 C102_2 1_555 1_555
H62_2 C73_2 1_555 1_555
C74_2 C73_2 1_555 1_555
C75_2 C74_2 1_555 1_555
H63_2 C75_2 1_555 1_555
H64_2 C76_2 1_555 1_555
C77_2 O29_2 1_555 1_555
C81_2 C79_2 1_555 1_555
H69_2 C81_2 1_555 1_555
H70_2 C81_2 1_555 1_555
C82_2 C79_2 1_555 1_555
H71_2 C82_2 1_555 1_555
H72_2 C82_2 1_555 1_555
C89_2 O35_2 1_555 1_555
C93_2 C92_2 1_555 1_555
H79_2 C93_2 1_555 1_555
C94_2 C89_2 1_555 1_555
H80_2 C94_2 1_555 1_555
C96_2 O38_2 1_555 1_555
C97_2 C96_2 1_555 1_555
H81_2 C97_2 1_555 1_555
C98_2 C97_2 1_555 1_555
H82_2 C98_2 1_555 1_555
C99_2 C98_2 1_555 1_555
C100_2 C99_2 1_555 1_555
H83_2 C100_2 1_555 1_555
C101_2 C96_2 1_555 1_555
H84_2 C101_2 1_555 1_555
C102_2 C99_2 1_555 1_555
Tm7 O30_2 1_555 1_555
Tm10_4 O37_2 1_555 1_555
Tm16_2 O16_2 1_555 1_555
O39_2 Tm7 1_555 1_555
O40_2 Tm16_2 1_555 1_555
C74_2 C77_2 1_555 1_555
C75_2 C76_2 1_555 1_555
C93_2 C94_2 1_555 1_555
C100_2 C101_2 1_555 1_555
Tm12 O21_2 1_555 1_555
O21_2 H43_2 1_555 1_555
H44_2 O21_2 1_555 1_555
O45_2 Tm12 1_555 1_555
O52_2 Tm12 1_555 1_555
O58_2 Tm12 1_555 1_555
O42 C53_2 1_555 1_555
C53_2 O23_2 1_555 1_555
O23_2 Tm10_4 1_555 1_555
C54_2 H45_2 1_555 1_555
O24_2 C56_2 1_555 1_555
C55_2 C54_2 1_555 1_555
H46_2 C55_2 1_555 1_555
O25_2 C61_2 1_555 1_555
C56_2 C55_2 1_555 1_555
O26_2 C70_2 1_555 1_555
C57_2 C56_2 1_555 1_555
H47_2 C57_2 1_555 1_555
O27_2 Tm8_7 1_555 1_555
C58_2 C57_2 1_555 1_555
H48_2 C58_2 1_555 1_555
O28_2 C63_2 1_555 1_555
C59_2 O24_2 1_555 1_555
H49_2 C59_2 1_555 1_555
H50_2 C59_2 1_555 1_555
C60_2 C59_2 1_555 1_555
C61_2 C60_2 1_555 1_555
H51_2 C61_2 1_555 1_555
H52_2 C61_2 1_555 1_555
O31_2 C62_2 1_555 1_555
C62_2 C60_2 1_555 1_555
H53_2 C62_2 1_555 1_555
H54_2 C62_2 1_555 1_555
O49 C84_2 1_555 1_555
C63_2 C72_2 1_555 1_555
O33_2 C80_2 1_555 1_555
C64_2 O25_2 1_555 1_555
O50 C84_2 1_555 1_555
C65_2 C64_2 1_555 1_555
H55_2 C65_2 1_555 1_555
C66_2 C65_2 1_555 1_555
H56_2 C66_2 1_555 1_555
C67_2 C66_2 1_555 1_555
C68_2 C67_2 1_555 1_555
H57_2 C68_2 1_555 1_555
C69_2 C64_2 1_555 1_555
H58_2 C69_2 1_555 1_555
C70_2 O27_2 1_555 1_555
C71_2 O28_2 1_555 1_555
H59_2 C71_2 1_555 1_555
H60_2 C71_2 1_555 1_555
C72_2 H61_2 1_555 1_555
C78_2 O31_2 1_555 1_555
H65_2 C78_2 1_555 1_555
H66_2 C78_2 1_555 1_555
H68_2 C80_2 1_555 1_555
C83_2 H73_2 1_555 1_555
C84_2 C86_2 1_555 1_555
C85_2 C83_2 1_555 1_555
H74_2 C85_2 1_555 1_555
C86_2 C85_2 1_555 1_555
C87_2 C86_2 1_555 1_555
H75_2 C87_2 1_555 1_555
C88_2 C87_2 1_555 1_555
H76_2 C88_2 1_555 1_555
C103_2 O33_2 1_555 1_555
C104_2 C53_2 1_555 1_555
Tm16_2 O26_2 1_555 1_555
C54_2 C104_2 1_555 1_555
C58_2 C104_2 1_555 1_555
C60_2 C71_2 1_555 1_555
C67_2 C70_2 1_555 1_555
C68_2 C69_2 1_555 1_555
C83_2 C103_2 1_555 1_555
C88_2 C103_2 1_555 1_555
O43_3 Tm8_8 1_555 1_555
O55_3 Tm8_8 1_555 1_555
O43_4 Tm10_3 1_555 1_555
O55_4 Tm10_3 1_555 1_555
O47_4 Tm7_2 1_555 1_555
O51_4 Tm7_2 1_555 1_555
O56_4 Tm7_2 1_555 1_555
O46_4 Tm10_4 1_555 1_555
Tm16_2 O21_3 1_555 1_555
O21_3 H43_3 1_555 1_555
H44_3 O21_3 1_555 1_555
Tm14_2 O1_3 1_555 1_555
O1_3 H1_3 1_555 1_555
H2_3 O1_3 1_555 1_555
O2_2 C1_3 1_555 1_555
C1_3 O43 1_555 1_555
C2_3 H3_3 1_555 1_555
O4_3 C4_3 1_555 1_555
C3_3 C2_3 1_555 1_555
H4_3 C3_3 1_555 1_555
O5_3 C9_3 1_555 1_555
C4_3 C3_3 1_555 1_555
C5_3 C4_3 1_555 1_555
H5_3 C5_3 1_555 1_555
O46_2 C18_3 1_555 1_555
C6_3 C5_3 1_555 1_555
H6_3 C6_3 1_555 1_555
O8_3 C11_3 1_555 1_555
C7_3 O4_3 1_555 1_555
H7_3 C7_3 1_555 1_555
H8_3 C7_3 1_555 1_555
O9_3 Tm14_2 1_555 1_555
C8_3 C7_3 1_555 1_555
O47_3 C25_3 1_555 1_555
C9_3 C8_3 1_555 1_555
H9_3 C9_3 1_555 1_555
H10_3 C9_3 1_555 1_555
O11_3 C10_3 1_555 1_555
C10_3 C8_3 1_555 1_555
H11_3 C10_3 1_555 1_555
H12_3 C10_3 1_555 1_555
O12_2 C32_3 1_555 1_555
C11_3 C20_3 1_555 1_555
O13_3 C28_3 1_555 1_555
C12_3 O5_3 1_555 1_555
O51_2 C32_3 1_555 1_555
C13_3 C12_3 1_555 1_555
H13_3 C13_3 1_555 1_555
O15_3 C29_3 1_555 1_555
C14_3 C13_3 1_555 1_555
H14_3 C14_3 1_555 1_555
O52_2 C43_3 1_555 1_555
C15_3 C14_3 1_555 1_555
O55 C43_3 1_555 1_555
C16_3 C15_3 1_555 1_555
H15_3 C16_3 1_555 1_555
O18_3 C30_3 1_555 1_555
C17_3 C12_3 1_555 1_555
H16_3 C17_3 1_555 1_555
C18_3 C15_3 1_555 1_555
O57_2 C50_3 1_555 1_555
C19_3 O8_3 1_555 1_555
H17_3 C19_3 1_555 1_555
H18_3 C19_3 1_555 1_555
C20_3 H19_3 1_555 1_555
C21_3 C20_3 1_555 1_555
H20_3 C21_3 1_555 1_555
C22_3 C21_3 1_555 1_555
C23_3 C22_3 1_555 1_555
H21_3 C23_3 1_555 1_555
C24_3 C11_3 1_555 1_555
H22_3 C24_3 1_555 1_555
C25_3 O9_3 1_555 1_555
C26_3 O11_3 1_555 1_555
H23_3 C26_3 1_555 1_555
H24_3 C26_3 1_555 1_555
C27_3 C26_3 1_555 1_555
C28_3 C27_3 1_555 1_555
H25_3 C28_3 1_555 1_555
H26_3 C28_3 1_555 1_555
C29_3 C27_3 1_555 1_555
H27_3 C29_3 1_555 1_555
H28_3 C29_3 1_555 1_555
C30_3 C27_3 1_555 1_555
H29_3 C30_3 1_555 1_555
H30_3 C30_3 1_555 1_555
C31_3 H31_3 1_555 1_555
C32_3 C34_3 1_555 1_555
C33_3 C31_3 1_555 1_555
H32_3 C33_3 1_555 1_555
C34_3 C33_3 1_555 1_555
C35_3 C34_3 1_555 1_555
H33_3 C35_3 1_555 1_555
C36_3 C35_3 1_555 1_555
H34_3 C36_3 1_555 1_555
C37_3 O15_3 1_555 1_555
C38_3 C37_3 1_555 1_555
H35_3 C38_3 1_555 1_555
C39_3 C38_3 1_555 1_555
H36_3 C39_3 1_555 1_555
C40_3 C39_3 1_555 1_555
C41_3 C40_3 1_555 1_555
H37_3 C41_3 1_555 1_555
C42_3 C37_3 1_555 1_555
H38_3 C42_3 1_555 1_555
C43_3 C40_3 1_555 1_555
C44_3 O18_3 1_555 1_555
C45_3 C44_3 1_555 1_555
H39_3 C45_3 1_555 1_555
C46_3 C45_3 1_555 1_555
H40_3 C46_3 1_555 1_555
C47_3 C46_3 1_555 1_555
C48_3 C47_3 1_555 1_555
H41_3 C48_3 1_555 1_555
C49_3 C44_3 1_555 1_555
H42_3 C49_3 1_555 1_555
C50_3 O56_3 1_555 1_555
C51_3 O13_3 1_555 1_555
C52_3 C1_3 1_555 1_555
O22_2 C53_3 1_555 1_555
C53_3 O43_2 1_555 1_555
C54_3 H45_3 1_555 1_555
O24_3 C56_3 1_555 1_555
C55_3 C54_3 1_555 1_555
H46_3 C55_3 1_555 1_555
O25_3 C61_3 1_555 1_555
C56_3 C55_3 1_555 1_555
C57_3 C56_3 1_555 1_555
H47_3 C57_3 1_555 1_555
C58_3 C57_3 1_555 1_555
H48_3 C58_3 1_555 1_555
O28_3 C63_3 1_555 1_555
C59_3 O24_3 1_555 1_555
H49_3 C59_3 1_555 1_555
H50_3 C59_3 1_555 1_555
C60_3 C59_3 1_555 1_555
O47_4 C77_3 1_555 1_555
C61_3 C60_3 1_555 1_555
H51_3 C61_3 1_555 1_555
H52_3 C61_3 1_555 1_555
O31_3 C62_3 1_555 1_555
C62_3 C60_3 1_555 1_555
H53_3 C62_3 1_555 1_555
H54_3 C62_3 1_555 1_555
O32_2 C84_3 1_555 1_555
C63_3 C72_3 1_555 1_555
O33_3 C80_3 1_555 1_555
C64_3 O25_3 1_555 1_555
O51 C84_3 1_555 1_555
C65_3 C64_3 1_555 1_555
H55_3 C65_3 1_555 1_555
O35_3 C81_3 1_555 1_555
C66_3 C65_3 1_555 1_555
H56_3 C66_3 1_555 1_555
O53_2 C95_3 1_555 1_555
C67_3 C66_3 1_555 1_555
O55_2 C95_3 1_555 1_555
C68_3 C67_3 1_555 1_555
H57_3 C68_3 1_555 1_555
O38_3 C82_3 1_555 1_555
C69_3 C64_3 1_555 1_555
H58_3 C69_3 1_555 1_555
O56_4 C102_3 1_555 1_555
C70_3 O46 1_555 1_555
O58_2 C102_3 1_555 1_555
C71_3 O28_3 1_555 1_555
H59_3 C71_3 1_555 1_555
H60_3 C71_3 1_555 1_555
C72_3 H61_3 1_555 1_555
C73_3 C72_3 1_555 1_555
H62_3 C73_3 1_555 1_555
C74_3 C73_3 1_555 1_555
C75_3 C74_3 1_555 1_555
H63_3 C75_3 1_555 1_555
C76_3 C63_3 1_555 1_555
H64_3 C76_3 1_555 1_555
C77_3 O29_3 1_555 1_555
C78_3 O31_3 1_555 1_555
H65_3 C78_3 1_555 1_555
H66_3 C78_3 1_555 1_555
C79_3 C78_3 1_555 1_555
C80_3 C79_3 1_555 1_555
H67_3 C80_3 1_555 1_555
H68_3 C80_3 1_555 1_555
C81_3 C79_3 1_555 1_555
H69_3 C81_3 1_555 1_555
H70_3 C81_3 1_555 1_555
C82_3 C79_3 1_555 1_555
H71_3 C82_3 1_555 1_555
H72_3 C82_3 1_555 1_555
C83_3 H73_3 1_555 1_555
C84_3 C86_3 1_555 1_555
C85_3 C83_3 1_555 1_555
H74_3 C85_3 1_555 1_555
C86_3 C85_3 1_555 1_555
C87_3 C86_3 1_555 1_555
H75_3 C87_3 1_555 1_555
C88_3 C87_3 1_555 1_555
H76_3 C88_3 1_555 1_555
C89_3 O35_3 1_555 1_555
C90_3 C89_3 1_555 1_555
H77_3 C90_3 1_555 1_555
C91_3 C90_3 1_555 1_555
H78_3 C91_3 1_555 1_555
C92_3 C91_3 1_555 1_555
C93_3 C92_3 1_555 1_555
H79_3 C93_3 1_555 1_555
C94_3 C89_3 1_555 1_555
H80_3 C94_3 1_555 1_555
C95_3 C92_3 1_555 1_555
C96_3 O38_3 1_555 1_555
C97_3 C96_3 1_555 1_555
H81_3 C97_3 1_555 1_555
C98_3 C97_3 1_555 1_555
H82_3 C98_3 1_555 1_555
C99_3 C98_3 1_555 1_555
C100_3 C99_3 1_555 1_555
H83_3 C100_3 1_555 1_555
C101_3 C96_3 1_555 1_555
H84_3 C101_3 1_555 1_555
C102_3 C99_3 1_555 1_555
C103_3 O33_3 1_555 1_555
C104_3 C53_3 1_555 1_555
Tm14 O22_2 1_555 1_555
O42_2 Tm14_2 1_555 1_555
O49_2 Tm14_2 1_555 1_555
C2_3 C52_3 1_555 1_555
C6_3 C52_3 1_555 1_555
C8_3 C19_3 1_555 1_555
C16_3 C17_3 1_555 1_555
C22_3 C25_3 1_555 1_555
C23_3 C24_3 1_555 1_555
C31_3 C51_3 1_555 1_555
C36_3 C51_3 1_555 1_555
C41_3 C42_3 1_555 1_555
C47_3 C50_3 1_555 1_555
C48_3 C49_3 1_555 1_555
C54_3 C104_3 1_555 1_555
C58_3 C104_3 1_555 1_555
C60_3 C71_3 1_555 1_555
O32_2 Tm14 1_555 1_555
C67_3 C70_3 1_555 1_555
C68_3 C69_3 1_555 1_555
C74_3 C77_3 1_555 1_555
C75_3 C76_3 1_555 1_555
C83_3 C103_3 1_555 1_555
C88_3 C103_3 1_555 1_555
C93_3 C94_3 1_555 1_555
C100_3 C101_3 1_555 1_555
O42_2 C53_4 1_555 1_555
C53_4 O43_4 1_555 1_555
C54_4 H45_4 1_555 1_555
O24_4 C56_4 1_555 1_555
C55_4 C54_4 1_555 1_555
H46_4 C55_4 1_555 1_555
O25_4 C61_4 1_555 1_555
C56_4 C55_4 1_555 1_555
O45 C70_4 1_555 1_555
C57_4 C56_4 1_555 1_555
H47_4 C57_4 1_555 1_555
C58_4 C57_4 1_555 1_555
H48_4 C58_4 1_555 1_555
O28_4 C63_4 1_555 1_555
C59_4 O24_4 1_555 1_555
H49_4 C59_4 1_555 1_555
H50_4 C59_4 1_555 1_555
C60_4 C59_4 1_555 1_555
C61_4 C60_4 1_555 1_555
H51_4 C61_4 1_555 1_555
H52_4 C61_4 1_555 1_555
O31_4 C62_4 1_555 1_555
C62_4 C60_4 1_555 1_555
H53_4 C62_4 1_555 1_555
H54_4 C62_4 1_555 1_555
O49_2 C84_4 1_555 1_555
C63_4 C72_4 1_555 1_555
O33_4 C80_4 1_555 1_555
C64_4 O25_4 1_555 1_555
O51_3 C84_4 1_555 1_555
C65_4 C64_4 1_555 1_555
H55_4 C65_4 1_555 1_555
C66_4 C65_4 1_555 1_555
H56_4 C66_4 1_555 1_555
C67_4 C66_4 1_555 1_555
C68_4 C67_4 1_555 1_555
H57_4 C68_4 1_555 1_555
C69_4 C64_4 1_555 1_555
H58_4 C69_4 1_555 1_555
C70_4 O46_3 1_555 1_555
C71_4 O28_4 1_555 1_555
H59_4 C71_4 1_555 1_555
H60_4 C71_4 1_555 1_555
C72_4 H61_4 1_555 1_555
C78_4 O31_4 1_555 1_555
H65_4 C78_4 1_555 1_555
H66_4 C78_4 1_555 1_555
H68_4 C80_4 1_555 1_555
C83_4 H73_4 1_555 1_555
C84_4 C86_4 1_555 1_555
C85_4 C83_4 1_555 1_555
H74_4 C85_4 1_555 1_555
C86_4 C85_4 1_555 1_555
C87_4 C86_4 1_555 1_555
H75_4 C87_4 1_555 1_555
C88_4 C87_4 1_555 1_555
H76_4 C88_4 1_555 1_555
C103_4 O33_4 1_555 1_555
C104_4 C53_4 1_555 1_555
C54_4 C104_4 1_555 1_555
C58_4 C104_4 1_555 1_555
C60_4 C71_4 1_555 1_555
C67_4 C70_4 1_555 1_555
C68_4 C69_4 1_555 1_555
C83_4 C103_4 1_555 1_555
C88_4 C103_4 1_555 1_555
Tm16 O21_4 1_555 1_555
O21_4 H43_4 1_555 1_555
H44_4 O21_4 1_555 1_555
O52 C43_4 1_555 1_555
H35_4 C38_4 1_555 1_555
C39_4 C38_4 1_555 1_555
H36_4 C39_4 1_555 1_555
O47_2 C77_4 1_555 1_555
O35_4 C81_4 1_555 1_555
O38_4 C82_4 1_555 1_555
O56_2 C102_4 1_555 1_555
O58 C102_4 1_555 1_555
H62_4 C73_4 1_555 1_555
C74_4 C73_4 1_555 1_555
C75_4 C74_4 1_555 1_555
H63_4 C75_4 1_555 1_555
H64_4 C76_4 1_555 1_555
C77_4 O29_4 1_555 1_555
C81_4 C79_4 1_555 1_555
H69_4 C81_4 1_555 1_555
H70_4 C81_4 1_555 1_555
C82_4 C79_4 1_555 1_555
H71_4 C82_4 1_555 1_555
H72_4 C82_4 1_555 1_555
C89_4 O35_4 1_555 1_555
C93_4 C92_4 1_555 1_555
H79_4 C93_4 1_555 1_555
C94_4 C89_4 1_555 1_555
H80_4 C94_4 1_555 1_555
C96_4 O38_4 1_555 1_555
C97_4 C96_4 1_555 1_555
H81_4 C97_4 1_555 1_555
C98_4 C97_4 1_555 1_555
H82_4 C98_4 1_555 1_555
C99_4 C98_4 1_555 1_555
C100_4 C99_4 1_555 1_555
H83_4 C100_4 1_555 1_555
C101_4 C96_4 1_555 1_555
H84_4 C101_4 1_555 1_555
C102_4 C99_4 1_555 1_555
C74_4 C77_4 1_555 1_555
C75_4 C76_4 1_555 1_555
C93_4 C94_4 1_555 1_555
C100_4 C101_4 1_555 1_555
O41_2 C1_4 1_555 1_555
C1_4 O43_3 1_555 1_555
C2_4 H3_4 1_555 1_555
O4_4 C4_4 1_555 1_555
C3_4 C2_4 1_555 1_555
H4_4 C3_4 1_555 1_555
O5_4 C9_4 1_555 1_555
C4_4 C3_4 1_555 1_555
O44 C18_4 1_555 1_555
C5_4 C4_4 1_555 1_555
H5_4 C5_4 1_555 1_555
O46_4 C18_4 1_555 1_555
C6_4 C5_4 1_555 1_555
H6_4 C6_4 1_555 1_555
O8_4 C11_4 1_555 1_555
C7_4 O4_4 1_555 1_555
H7_4 C7_4 1_555 1_555
H8_4 C7_4 1_555 1_555
C8_4 C7_4 1_555 1_555
C9_4 C8_4 1_555 1_555
H9_4 C9_4 1_555 1_555
H10_4 C9_4 1_555 1_555
O11_4 C10_4 1_555 1_555
C10_4 C8_4 1_555 1_555
H11_4 C10_4 1_555 1_555
H12_4 C10_4 1_555 1_555
O48_2 C32_4 1_555 1_555
C11_4 C20_4 1_555 1_555
O13_4 C28_4 1_555 1_555
C12_4 O5_4 1_555 1_555
O51_4 C32_4 1_555 1_555
C13_4 C12_4 1_555 1_555
H13_4 C13_4 1_555 1_555
C14_4 C13_4 1_555 1_555
H14_4 C14_4 1_555 1_555
C15_4 C14_4 1_555 1_555
C16_4 C15_4 1_555 1_555
H15_4 C16_4 1_555 1_555
C17_4 C12_4 1_555 1_555
H16_4 C17_4 1_555 1_555
C18_4 C15_4 1_555 1_555
C19_4 O8_4 1_555 1_555
H17_4 C19_4 1_555 1_555
H18_4 C19_4 1_555 1_555
C20_4 H19_4 1_555 1_555
C26_4 O11_4 1_555 1_555
H23_4 C26_4 1_555 1_555
H24_4 C26_4 1_555 1_555
H26_4 C28_4 1_555 1_555
C31_4 H31_4 1_555 1_555
C32_4 C34_4 1_555 1_555
C33_4 C31_4 1_555 1_555
H32_4 C33_4 1_555 1_555
C34_4 C33_4 1_555 1_555
C35_4 C34_4 1_555 1_555
H33_4 C35_4 1_555 1_555
C36_4 C35_4 1_555 1_555
H34_4 C36_4 1_555 1_555
C51_4 O13_4 1_555 1_555
C52_4 C1_4 1_555 1_555
C2_4 C52_4 1_555 1_555
C6_4 C52_4 1_555 1_555
C8_4 C19_4 1_555 1_555
C16_4 C17_4 1_555 1_555
C31_4 C51_4 1_555 1_555
C36_4 C51_4 1_555 1_555
Tm14 O1_4 1_555 1_555
O1_4 H1_4 1_555 1_555
H2_4 O1_4 1_555 1_555
O9_4 Tm14 1_555 1_555
O47 C25_4 1_555 1_555
O15_4 C29_4 1_555 1_555
O18_4 C30_4 1_555 1_555
O57 C50_4 1_555 1_555
H20_4 C21_4 1_555 1_555
C22_4 C21_4 1_555 1_555
C23_4 C22_4 1_555 1_555
H21_4 C23_4 1_555 1_555
H22_4 C24_4 1_555 1_555
C25_4 O9_4 1_555 1_555
C29_4 C27_4 1_555 1_555
H27_4 C29_4 1_555 1_555
H28_4 C29_4 1_555 1_555
C30_4 C27_4 1_555 1_555
H29_4 C30_4 1_555 1_555
H30_4 C30_4 1_555 1_555
C37_4 O15_4 1_555 1_555
C41_4 C40_4 1_555 1_555
H37_4 C41_4 1_555 1_555
C42_4 C37_4 1_555 1_555
H38_4 C42_4 1_555 1_555
C44_4 O18_4 1_555 1_555
C45_4 C44_4 1_555 1_555
H39_4 C45_4 1_555 1_555
C46_4 C45_4 1_555 1_555
H40_4 C46_4 1_555 1_555
C47_4 C46_4 1_555 1_555
C48_4 C47_4 1_555 1_555
H41_4 C48_4 1_555 1_555
C49_4 C44_4 1_555 1_555
H42_4 C49_4 1_555 1_555
C50_4 O56 1_555 1_555
O53 C95_4 1_555 1_555
H77_4 C90_4 1_555 1_555
C91_4 C90_4 1_555 1_555
H78_4 C91_4 1_555 1_555
C22_4 C25_4 1_555 1_555
C23_4 C24_4 1_555 1_555
C41_4 C42_4 1_555 1_555
C47_4 C50_4 1_555 1_555
C48_4 C49_4 1_555 1_555

#END
