
###############################################################################
#
# This file contains modified crystal structure data generated from the
# MOF subset of the Cambridge Structural Database (CSD) v543 
# hosted by the Cambridge Crystallographic Data Centre (CCDC).
#
# This work is licensed under the Creative Commons
# Attribution-NonCommercial-ShareAlike 4.0 International License.
# To view a copy of this license, visit
# http://creativecommons.org/licenses/by-nc-sa/4.0/
# or send a letter to
# Creative Commons, PO Box 1866, Mountain View, CA 94042, USA.
#
# CIF created using the CSD Python API on 29 September 2022
# The structure has been converted into the P1 space group
# The structure has a 3D framework
# The original CSD entry ESEZUA is in the monoclinic crystal system
# The framework has been calculated to contain at least 10.0% void space
# The void calculation uses a probe of radius 1.32A, grid spacing 0.4
#
###############################################################################

data_ESEZUA
_chemical_formula_moiety         '(C416 H336 O152 Yb13)n'
_symmetry_cell_setting           triclinic
_symmetry_space_group_name_H-M   'P 1'
_symmetry_Int_Tables_number      1
_space_group_name_Hall           'P 1'
loop_
_symmetry_equiv_pos_site_id
_symmetry_equiv_pos_as_xyz
1 x,y,z
_cell_length_a                   29.896(11)
_cell_length_b                   20.853(4)
_cell_length_c                   27.002(7)
_cell_angle_alpha                90
_cell_angle_beta                 107.499(16)
_cell_angle_gamma                90
_cell_volume                     16054.6
loop_
_atom_site_label
_atom_site_type_symbol
_atom_site_fract_x
_atom_site_fract_y
_atom_site_fract_z
Yb14 Yb 0.500000 0.000000 0.000000
Yb16 Yb 0.500000 0.000000 0.500000
Yb14_2 Yb 0.500000 0.000000 1.000000
Yb1 Yb 0.86566(3) 0.60752(3) 0.52334(3)
O1 O 0.8221(6) 0.5769(7) 0.5837(7)
H1 H 0.830784 0.532969 0.595919
H2 H 0.789951 0.577386 0.561595
O2 O 0.6285(4) 0.0716(5) 0.0535(4)
Yb2 Yb 0.750000 0.750000 0.500000
C1 C 0.5964(6) 0.0676(7) 0.0740(6)
O3 O 0.5632(4) 0.0271(5) 0.0612(4)
C2 C 0.6298(6) 0.1611(7) 0.1322(6)
H3 H 0.656252 0.159193 0.119700
O4 O 0.5801(4) 0.2563(5) 0.2179(4)
C3 C 0.6271(6) 0.2068(7) 0.1667(6)
H4 H 0.652112 0.236414 0.179108
O5 O 0.6188(4) 0.2537(5) 0.3369(4)
C4 C 0.5882(6) 0.2106(7) 0.1840(6)
C5 C 0.5534(6) 0.1634(7) 0.1697(6)
H5 H 0.528499 0.162806 0.184754
O7 O 0.5418(4) 0.0319(5) 0.4490(4)
C6 C 0.5558(6) 0.1184(8) 0.1341(6)
H6 H 0.531124 0.088077 0.122252
O8 O 0.6263(4) 0.4235(5) 0.3408(4)
C7 C 0.6164(6) 0.3007(7) 0.2399(6)
H7 H 0.622158 0.328042 0.212432
H8 H 0.645817 0.277809 0.257910
O9 O 0.7924(4) 0.5922(5) 0.4784(5)
C8 C 0.6007(6) 0.3415(7) 0.2781(6)
O10 O 0.7317(4) 0.6488(4) 0.4833(4)
C9 C 0.5823(6) 0.2988(7) 0.3146(6)
H9 H 0.575502 0.324972 0.342012
H10 H 0.553261 0.276314 0.294769
O11 O 0.5786(4) 0.4330(4) 0.2226(4)
C10 C 0.5609(6) 0.3858(6) 0.2496(5)
H11 H 0.535847 0.360765 0.224727
H12 H 0.547263 0.406655 0.274694
O12 O 0.6339(4) 0.2028(4) 0.0165(4)
C11 C 0.6574(6) 0.4652(7) 0.3704(6)
O13 O 0.5736(4) 0.4551(4) 0.1081(4)
C12 C 0.6071(6) 0.2022(7) 0.3634(6)
O14 O 0.7039(4) 0.2498(5) 0.0501(4)
C13 C 0.6363(6) 0.1490(8) 0.3673(6)
H13 H 0.661398 0.149799 0.352534
O15 O 0.5614(4) 0.6211(5) 0.1209(4)
C14 C 0.6280(6) 0.0961(8) 0.3924(6)
H14 H 0.647553 0.059564 0.395175
O16 O 0.4423(4) 0.8739(5) 0.0400(5)
C15 C 0.5918(6) 0.0946(7) 0.4139(6)
O17 O 0.5110(4) 0.8993(4) 0.0303(4)
C16 C 0.5625(6) 0.1476(7) 0.4106(6)
H15 H 0.536842 0.146423 0.424476
O18 O 0.5745(4) 0.6051(6) 0.2423(4)
C17 C 0.5727(6) 0.2041(7) 0.3855(6)
H16 H 0.555188 0.242354 0.384664
O19 O 0.6897(4) 0.7745(5) 0.4332(4)
C18 C 0.5811(6) 0.0345(7) 0.4397(6)
O20 O 0.6219(4) 0.8246(5) 0.4092(4)
C19 C 0.6418(6) 0.3806(6) 0.3090(6)
H17 H 0.666466 0.352166 0.330743
H18 H 0.655231 0.404862 0.285309
C20 C 0.7035(6) 0.4675(7) 0.3727(6)
H19 H 0.714762 0.438859 0.351826
C21 C 0.7356(6) 0.5118(7) 0.4056(6)
H20 H 0.767910 0.511949 0.407505
C22 C 0.7183(6) 0.5539(7) 0.4340(6)
C23 C 0.6709(6) 0.5528(7) 0.4307(6)
H21 H 0.658679 0.583261 0.449413
C24 C 0.6417(6) 0.5074(7) 0.4000(6)
H22 H 0.609829 0.505466 0.399526
C25 C 0.7484(6) 0.6027(7) 0.4672(7)
C26 C 0.5452(6) 0.4783(6) 0.1959(6)
H23 H 0.529501 0.497667 0.219773
H24 H 0.521042 0.457250 0.167118
C27 C 0.5706(6) 0.5300(7) 0.1746(6)
C28 C 0.6010(6) 0.4986(7) 0.1458(6)
H25 H 0.614615 0.531861 0.128369
H26 H 0.627159 0.475349 0.170612
C29 C 0.5341(6) 0.5742(7) 0.1397(6)
H27 H 0.512774 0.550152 0.110432
H28 H 0.515280 0.595519 0.159478
C30 C 0.6026(6) 0.5656(7) 0.2192(6)
H29 H 0.621470 0.535022 0.245208
H30 H 0.624316 0.592807 0.206971
C31 C 0.5688(6) 0.3515(6) 0.0728(6)
H31 H 0.536804 0.348982 0.071597
C32 C 0.6578(6) 0.2476(6) 0.0388(5)
C33 C 0.5903(6) 0.3013(6) 0.0559(6)
H32 H 0.572598 0.263582 0.043865
C34 C 0.6361(6) 0.3032(6) 0.0556(6)
C35 C 0.6618(6) 0.3593(7) 0.0736(6)
H33 H 0.693844 0.361039 0.074748
C36 C 0.6422(6) 0.4109(7) 0.0894(6)
H34 H 0.659649 0.449480 0.098691
C37 C 0.5386(6) 0.6768(6) 0.0998(6)
C38 C 0.4928(6) 0.6895(7) 0.0900(7)
H35 H 0.472563 0.656943 0.095580
C39 C 0.4740(6) 0.7498(7) 0.0716(7)
H36 H 0.441945 0.759193 0.067056
C40 C 0.5033(6) 0.7951(7) 0.0604(7)
C41 C 0.5498(6) 0.7815(7) 0.0691(7)
H37 H 0.570147 0.812865 0.062135
C42 C 0.5671(6) 0.7226(7) 0.0880(7)
H38 H 0.599278 0.713182 0.093076
C43 C 0.4844(6) 0.8602(7) 0.0421(6)
C44 C 0.5969(6) 0.6461(9) 0.2823(6)
C45 C 0.6422(6) 0.6436(8) 0.3092(6)
H39 H 0.662263 0.613270 0.300438
C46 C 0.6598(6) 0.6857(8) 0.3502(6)
H40 H 0.691610 0.682127 0.370800
C47 C 0.6319(6) 0.7326(8) 0.3616(6)
C48 C 0.5851(6) 0.7362(9) 0.3319(7)
H41 H 0.565087 0.768054 0.338988
C49 C 0.5680(7) 0.6928(9) 0.2920(7)
H42 H 0.536131 0.695177 0.271169
C50 C 0.6498(6) 0.7809(8) 0.4037(6)
C51 C 0.5958(6) 0.4072(6) 0.0920(6)
C52 C 0.5934(6) 0.1165(7) 0.1151(6)
O22 O 0.3715(4) 0.0716(5) 0.4465(4)
C53 C 0.4036(6) 0.0676(7) 0.4260(6)
O23 O 0.4368(4) 0.0271(5) 0.4388(4)
C54 C 0.3702(6) 0.1611(7) 0.3678(6)
H45 H 0.343748 0.159193 0.380300
O24 O 0.4199(4) 0.2563(5) 0.2821(4)
C55 C 0.3729(6) 0.2068(7) 0.3333(6)
H46 H 0.347888 0.236414 0.320892
O25 O 0.3812(4) 0.2537(5) 0.1631(4)
C56 C 0.4118(6) 0.2106(7) 0.3160(6)
C57 C 0.4466(6) 0.1634(7) 0.3303(6)
H47 H 0.471501 0.162806 0.315246
O27 O 0.4582(4) 0.0319(5) 0.0510(4)
C58 C 0.4442(6) 0.1184(8) 0.3659(6)
H48 H 0.468876 0.088077 0.377748
O28 O 0.3737(4) 0.4235(5) 0.1592(4)
C59 C 0.3836(6) 0.3007(7) 0.2601(6)
H49 H 0.377842 0.328042 0.287568
H50 H 0.354183 0.277809 0.242090
O29 O 0.2076(4) 0.5922(5) 0.0216(5)
C60 C 0.3993(6) 0.3415(7) 0.2219(6)
O30 O 0.2683(4) 0.6488(4) 0.0167(4)
C61 C 0.4177(6) 0.2988(7) 0.1854(6)
H51 H 0.424498 0.324972 0.157988
H52 H 0.446739 0.276314 0.205231
O31 O 0.4214(4) 0.4330(4) 0.2774(4)
C62 C 0.4391(6) 0.3858(6) 0.2504(5)
H53 H 0.464153 0.360765 0.275273
H54 H 0.452737 0.406655 0.225306
O32 O 0.3661(4) 0.2028(4) 0.4835(4)
C63 C 0.3426(6) 0.4652(7) 0.1296(6)
O33 O 0.4264(4) 0.4551(4) 0.3919(4)
C64 C 0.3929(6) 0.2022(7) 0.1366(6)
O34 O 0.2961(4) 0.2498(5) 0.4499(4)
C65 C 0.3637(6) 0.1490(8) 0.1327(6)
H55 H 0.338602 0.149799 0.147466
O35 O 0.4386(4) 0.6211(5) 0.3791(4)
C66 C 0.3720(6) 0.0961(8) 0.1076(6)
H56 H 0.352447 0.059564 0.104825
O36 O 0.5577(4) 0.8739(5) 0.4600(5)
C67 C 0.4082(6) 0.0946(7) 0.0861(6)
O37 O 0.4890(4) 0.8993(4) 0.4697(4)
C68 C 0.4375(6) 0.1476(7) 0.0894(6)
H57 H 0.463158 0.146423 0.075524
O38 O 0.4255(4) 0.6051(6) 0.2577(4)
C69 C 0.4273(6) 0.2041(7) 0.1145(6)
H58 H 0.444812 0.242354 0.115336
O39 O 0.3103(4) 0.7745(5) 0.0668(4)
C70 C 0.4189(6) 0.0345(7) 0.0603(6)
O40 O 0.3781(4) 0.8246(5) 0.0908(4)
C71 C 0.3582(6) 0.3806(6) 0.1910(6)
H59 H 0.333534 0.352166 0.169257
H60 H 0.344769 0.404862 0.214691
C72 C 0.2965(6) 0.4675(7) 0.1273(6)
H61 H 0.285238 0.438859 0.148174
C73 C 0.2644(6) 0.5118(7) 0.0944(6)
H62 H 0.232090 0.511949 0.092495
C74 C 0.2817(6) 0.5539(7) 0.0660(6)
C75 C 0.3291(6) 0.5528(7) 0.0693(6)
H63 H 0.341321 0.583261 0.050587
C76 C 0.3583(6) 0.5074(7) 0.1000(6)
H64 H 0.390171 0.505466 0.100474
C77 C 0.2516(6) 0.6027(7) 0.0328(7)
C78 C 0.4548(6) 0.4783(6) 0.3041(6)
H65 H 0.470499 0.497667 0.280227
H66 H 0.478958 0.457250 0.332882
C79 C 0.4294(6) 0.5300(7) 0.3254(6)
C80 C 0.3990(6) 0.4986(7) 0.3542(6)
H67 H 0.385385 0.531861 0.371631
H68 H 0.372841 0.475349 0.329388
C81 C 0.4659(6) 0.5742(7) 0.3603(6)
H69 H 0.487226 0.550152 0.389568
H70 H 0.484720 0.595519 0.340522
C82 C 0.3974(6) 0.5656(7) 0.2808(6)
H71 H 0.378530 0.535022 0.254792
H72 H 0.375684 0.592807 0.293029
C83 C 0.4312(6) 0.3515(6) 0.4272(6)
H73 H 0.463196 0.348982 0.428403
C84 C 0.3422(6) 0.2476(6) 0.4612(5)
C85 C 0.4097(6) 0.3013(6) 0.4441(6)
H74 H 0.427402 0.263582 0.456135
C86 C 0.3639(6) 0.3032(6) 0.4444(6)
C87 C 0.3382(6) 0.3593(7) 0.4264(6)
H75 H 0.306156 0.361039 0.425252
C88 C 0.3578(6) 0.4109(7) 0.4106(6)
H76 H 0.340351 0.449480 0.401309
C89 C 0.4614(6) 0.6768(6) 0.4002(6)
C90 C 0.5072(6) 0.6895(7) 0.4100(7)
H77 H 0.527437 0.656943 0.404420
C91 C 0.5260(6) 0.7498(7) 0.4284(7)
H78 H 0.558055 0.759193 0.432944
C92 C 0.4967(6) 0.7951(7) 0.4396(7)
C93 C 0.4502(6) 0.7815(7) 0.4309(7)
H79 H 0.429853 0.812865 0.437865
C94 C 0.4329(6) 0.7226(7) 0.4120(7)
H80 H 0.400722 0.713182 0.406924
C95 C 0.5156(6) 0.8602(7) 0.4579(6)
C96 C 0.4031(6) 0.6461(9) 0.2177(6)
C97 C 0.3578(6) 0.6436(8) 0.1908(6)
H81 H 0.337737 0.613270 0.199562
C98 C 0.3402(6) 0.6857(8) 0.1498(6)
H82 H 0.308390 0.682127 0.129200
C99 C 0.3681(6) 0.7326(8) 0.1384(6)
C100 C 0.4149(6) 0.7362(9) 0.1681(7)
H83 H 0.434913 0.768054 0.161012
C101 C 0.4320(7) 0.6928(9) 0.2080(7)
H84 H 0.463869 0.695177 0.228831
C102 C 0.3502(6) 0.7809(8) 0.0963(6)
C103 C 0.4042(6) 0.4072(6) 0.4080(6)
C104 C 0.4066(6) 0.1165(7) 0.3849(6)
Yb5 Yb 0.36566(3) 0.10752(3) 0.52334(3)
Yb8 Yb 0.63434(3) 0.89248(3) 0.47666(3)
Yb10 Yb 0.36566(3) 0.89248(3) 0.02334(3)
O41 O 0.1285(4) 0.5716(5) 0.0535(4)
O42 O 0.8715(4) 0.5716(5) 0.4465(4)
Yb11 Yb 0.250000 0.750000 0.000000
Yb12 Yb 0.250000 0.250000 0.500000
Yb13 Yb 0.750000 0.250000 0.000000
Yb14_3 Yb 0.500000 1.000000 0.000000
Yb16_2 Yb 0.500000 1.000000 0.500000
O44 O 0.8883(4) 0.5090(5) 0.5519(4)
O47 O 0.7683(4) 0.8512(4) 0.5167(4)
O48 O 0.1339(4) 0.7028(4) 0.0165(4)
O49 O 0.8661(4) 0.7028(4) 0.4835(4)
O50 O 0.7961(4) 0.7498(5) 0.4499(4)
O51 O 0.7039(4) 0.7502(5) 0.5501(4)
O53 O 0.9423(4) 0.6261(5) 0.5400(5)
O56 O 0.8103(4) 0.7255(5) 0.5668(4)
O57 O 0.8781(4) 0.6754(5) 0.5908(4)
Yb4 Yb 0.13434(3) 0.60752(3) 0.97666(3)
O21 O 0.1779(6) 0.5769(7) 0.9163(7)
H43 H 0.169216 0.532969 0.904081
H44 H 0.210049 0.577386 0.938405
Yb6 Yb 0.63434(3) 0.10752(3) 0.97666(3)
Yb11_2 Yb 0.250000 0.750000 1.000000
Yb13_2 Yb 0.750000 0.250000 1.000000
Yb14_4 Yb 0.500000 1.000000 1.000000
O45 O 0.1117(4) 0.5090(5) 0.9481(4)
O52 O 0.0577(4) 0.6261(5) 0.9600(5)
O55 O 0.4890(4) 0.1007(4) 0.9697(4)
O58 O 0.1219(4) 0.6754(5) 0.9092(4)
O6 O 0.6117(4) 0.9910(5) 0.4481(4)
O26 O 0.3883(4) 0.9910(5) 0.0519(4)
O43 O 0.4368(4) 0.9729(5) 0.9388(4)
O46 O 0.5418(4) 0.9681(5) 0.9490(4)
O50_2 O 0.2039(4) 0.7498(5) 0.0501(4)
O55_2 O 0.5110(4) 0.1007(4) 0.5303(4)
O47_2 O 0.2317(4) 0.8512(4) 0.9833(4)
O51_2 O 0.2961(4) 0.7502(5) 0.9499(4)
O56_2 O 0.1897(4) 0.7255(5) 0.9332(4)
O43_2 O 0.5632(4) 0.9729(5) 0.5612(4)
O46_2 O 0.4582(4) 0.9681(5) 0.5510(4)
O1_2 O 0.3221(6) 0.0769(7) 0.5837(7)
H1_2 H 0.330784 0.032969 0.595919
H2_2 H 0.289951 0.077386 0.561595
O9_2 O 0.2924(4) 0.0922(5) 0.4784(5)
O10_2 O 0.2317(4) 0.1488(4) 0.4833(4)
O15_2 O 0.0614(4) 0.1211(5) 0.1209(4)
O17_2 O 0.0110(4) 0.3993(4) 0.0303(4)
O18_2 O 0.0745(4) 0.1051(6) 0.2423(4)
O19_2 O 0.1897(4) 0.2745(5) 0.4332(4)
O20_2 O 0.1219(4) 0.3246(5) 0.4092(4)
C21_2 C 0.2356(6) 0.0118(7) 0.4056(6)
H20_2 H 0.267910 0.011949 0.407505
C22_2 C 0.2183(6) 0.0539(7) 0.4340(6)
C23_2 C 0.1709(6) 0.0528(7) 0.4307(6)
H21_2 H 0.158679 0.083261 0.449413
C24_2 C 0.1417(6) 0.0074(7) 0.4000(6)
H22_2 H 0.109829 0.005466 0.399526
C25_2 C 0.2484(6) 0.1027(7) 0.4672(7)
C27_2 C 0.0706(6) 0.0300(7) 0.1746(6)
H25_2 H 0.114615 0.031861 0.128369
C29_2 C 0.0341(6) 0.0742(7) 0.1397(6)
H27_2 H 0.012774 0.050152 0.110432
H28_2 H 0.015280 0.095519 0.159478
C30_2 C 0.1026(6) 0.0656(7) 0.2192(6)
H29_2 H 0.121470 0.035022 0.245208
H30_2 H 0.124316 0.092807 0.206971
C37_2 C 0.0386(6) 0.1768(6) 0.0998(6)
C40_2 C 0.0033(6) 0.2951(7) 0.0604(7)
C41_2 C 0.0498(6) 0.2815(7) 0.0691(7)
H37_2 H 0.070147 0.312865 0.062135
C42_2 C 0.0671(6) 0.2226(7) 0.0880(7)
H38_2 H 0.099278 0.213182 0.093076
C44_2 C 0.0969(6) 0.1461(9) 0.2823(6)
C45_2 C 0.1422(6) 0.1436(8) 0.3092(6)
H39_2 H 0.162263 0.113270 0.300438
C46_2 C 0.1598(6) 0.1857(8) 0.3502(6)
H40_2 H 0.191610 0.182127 0.370800
C47_2 C 0.1319(6) 0.2326(8) 0.3616(6)
C48_2 C 0.0851(6) 0.2362(9) 0.3319(7)
H41_2 H 0.065087 0.268054 0.338988
C49_2 C 0.0680(7) 0.1928(9) 0.2920(7)
H42_2 H 0.036131 0.195177 0.271169
C50_2 C 0.1498(6) 0.2809(8) 0.4037(6)
O36_2 O 0.0577(4) 0.3739(5) 0.4600(5)
C90_2 C 0.0072(6) 0.1895(7) 0.4100(7)
H77_2 H 0.027437 0.156943 0.404420
C91_2 C 0.0260(6) 0.2498(7) 0.4284(7)
H78_2 H 0.058055 0.259193 0.432944
C95_2 C 0.0156(6) 0.3602(7) 0.4579(6)
Yb8_2 Yb 0.13434(3) 0.39248(3) 0.47666(3)
Yb14_5 Yb -0.000000 0.500000 0.000000
Yb16_3 Yb 0.000000 0.500000 0.500000
O44_2 O 0.3883(4) 0.0090(5) 0.5519(4)
O47_3 O 0.2683(4) 0.3512(4) 0.5167(4)
O51_3 O 0.2039(4) 0.2502(5) 0.5501(4)
O53_2 O 0.4423(4) 0.1261(5) 0.5400(5)
O56_3 O 0.3103(4) 0.2255(5) 0.5668(4)
O57_2 O 0.3781(4) 0.1754(5) 0.5908(4)
Yb14_6 Yb -0.000000 0.500000 1.000000
C1_2 C 0.0964(6) 0.5676(7) 0.0740(6)
O3_2 O 0.0632(4) 0.5271(5) 0.0612(4)
C2_2 C 0.1298(6) 0.6611(7) 0.1322(6)
H3_2 H 0.156252 0.659193 0.119700
O4_2 O 0.0801(4) 0.7563(5) 0.2179(4)
C3_2 C 0.1271(6) 0.7068(7) 0.1667(6)
H4_2 H 0.152112 0.736414 0.179108
O5_2 O 0.1188(4) 0.7537(5) 0.3369(4)
C4_2 C 0.0882(6) 0.7106(7) 0.1840(6)
O6_2 O 0.1117(4) 0.4910(5) 0.4481(4)
C5_2 C 0.0534(6) 0.6634(7) 0.1697(6)
H5_2 H 0.028499 0.662806 0.184754
O7_2 O 0.0418(4) 0.5319(5) 0.4490(4)
C6_2 C 0.0558(6) 0.6184(8) 0.1341(6)
H6_2 H 0.031124 0.588077 0.122252
O8_2 O 0.1263(4) 0.9235(5) 0.3408(4)
C7_2 C 0.1164(6) 0.8007(7) 0.2399(6)
H7_2 H 0.122158 0.828042 0.212432
H8_2 H 0.145817 0.777809 0.257910
C8_2 C 0.1007(6) 0.8415(7) 0.2781(6)
C9_2 C 0.0823(6) 0.7988(7) 0.3146(6)
H9_2 H 0.075502 0.824972 0.342012
H10_2 H 0.053261 0.776314 0.294769
O11_2 O 0.0786(4) 0.9330(4) 0.2226(4)
C10_2 C 0.0609(6) 0.8858(6) 0.2496(5)
H11_2 H 0.035847 0.860765 0.224727
H12_2 H 0.047263 0.906655 0.274694
C11_2 C 0.1574(6) 0.9652(7) 0.3704(6)
O13_2 O 0.0736(4) 0.9551(4) 0.1081(4)
C12_2 C 0.1071(6) 0.7022(7) 0.3634(6)
C13_2 C 0.1363(6) 0.6490(8) 0.3673(6)
H13_2 H 0.161398 0.649799 0.352534
C14_2 C 0.1280(6) 0.5961(8) 0.3924(6)
H14_2 H 0.147553 0.559564 0.395175
C15_2 C 0.0918(6) 0.5946(7) 0.4139(6)
C16_2 C 0.0625(6) 0.6476(7) 0.4106(6)
H15_2 H 0.036842 0.646423 0.424476
C17_2 C 0.0727(6) 0.7041(7) 0.3855(6)
H16_2 H 0.055188 0.742354 0.384664
C18_2 C 0.0811(6) 0.5345(7) 0.4397(6)
C19_2 C 0.1418(6) 0.8806(6) 0.3090(6)
H17_2 H 0.166466 0.852166 0.330743
H18_2 H 0.155231 0.904862 0.285309
C20_2 C 0.2035(6) 0.9675(7) 0.3727(6)
H19_2 H 0.214762 0.938859 0.351826
C26_2 C 0.0452(6) 0.9783(6) 0.1959(6)
H23_2 H 0.029501 0.997667 0.219773
H24_2 H 0.021042 0.957250 0.167118
C28_2 C 0.1010(6) 0.9986(7) 0.1458(6)
H26_2 H 0.127159 0.975349 0.170612
C31_2 C 0.0688(6) 0.8515(6) 0.0728(6)
H31_2 H 0.036804 0.848982 0.071597
C32_2 C 0.1578(6) 0.7476(6) 0.0388(5)
C33_2 C 0.0903(6) 0.8013(6) 0.0559(6)
H32_2 H 0.072598 0.763582 0.043865
C34_2 C 0.1361(6) 0.8032(6) 0.0556(6)
C35_2 C 0.1618(6) 0.8593(7) 0.0736(6)
H33_2 H 0.193844 0.861039 0.074748
C36_2 C 0.1422(6) 0.9109(7) 0.0894(6)
H34_2 H 0.159649 0.949480 0.098691
C51_2 C 0.0958(6) 0.9072(6) 0.0920(6)
C52_2 C 0.0934(6) 0.6165(7) 0.1151(6)
O46_3 O 0.0418(4) 0.4681(5) 0.9490(4)
O16_2 O 0.9423(4) 0.3739(5) 0.0400(5)
C38_2 C 0.9928(6) 0.1895(7) 0.0900(7)
H35_2 H 0.972563 0.156943 0.095580
C39_2 C 0.9740(6) 0.2498(7) 0.0716(7)
H36_2 H 0.941945 0.259193 0.067056
C43_2 C 0.9844(6) 0.3602(7) 0.0421(6)
O29_2 O 0.7076(4) 0.0922(5) 0.0216(5)
O30_2 O 0.7683(4) 0.1488(4) 0.0167(4)
O35_2 O 0.9386(4) 0.1211(5) 0.3791(4)
O37_2 O 0.9890(4) 0.3993(4) 0.4697(4)
O38_2 O 0.9255(4) 0.1051(6) 0.2577(4)
O39_2 O 0.8103(4) 0.2745(5) 0.0668(4)
O40_2 O 0.8781(4) 0.3246(5) 0.0908(4)
C73_2 C 0.7644(6) 0.0118(7) 0.0944(6)
H62_2 H 0.732090 0.011949 0.092495
C74_2 C 0.7817(6) 0.0539(7) 0.0660(6)
C75_2 C 0.8291(6) 0.0528(7) 0.0693(6)
H63_2 H 0.841321 0.083261 0.050587
C76_2 C 0.8583(6) 0.0074(7) 0.1000(6)
H64_2 H 0.890171 0.005466 0.100474
C77_2 C 0.7516(6) 0.1027(7) 0.0328(7)
C79_2 C 0.9294(6) 0.0300(7) 0.3254(6)
H67_2 H 0.885385 0.031861 0.371631
C81_2 C 0.9659(6) 0.0742(7) 0.3603(6)
H69_2 H 0.987226 0.050152 0.389568
H70_2 H 0.984720 0.095519 0.340522
C82_2 C 0.8974(6) 0.0656(7) 0.2808(6)
H71_2 H 0.878530 0.035022 0.254792
H72_2 H 0.875684 0.092807 0.293029
C89_2 C 0.9614(6) 0.1768(6) 0.4002(6)
C92_2 C 0.9967(6) 0.2951(7) 0.4396(7)
C93_2 C 0.9502(6) 0.2815(7) 0.4309(7)
H79_2 H 0.929853 0.312865 0.437865
C94_2 C 0.9329(6) 0.2226(7) 0.4120(7)
H80_2 H 0.900722 0.213182 0.406924
C96_2 C 0.9031(6) 0.1461(9) 0.2177(6)
C97_2 C 0.8578(6) 0.1436(8) 0.1908(6)
H81_2 H 0.837737 0.113270 0.199562
C98_2 C 0.8402(6) 0.1857(8) 0.1498(6)
H82_2 H 0.808390 0.182127 0.129200
C99_2 C 0.8681(6) 0.2326(8) 0.1384(6)
C100_2 C 0.9149(6) 0.2362(9) 0.1681(7)
H83_2 H 0.934913 0.268054 0.161012
C101_2 C 0.9320(7) 0.1928(9) 0.2080(7)
H84_2 H 0.963869 0.195177 0.228831
C102_2 C 0.8502(6) 0.2809(8) 0.0963(6)
Yb10_2 Yb 0.86566(3) 0.39248(3) 0.02334(3)
Yb14_7 Yb 1.000000 0.500000 0.000000
Yb16_4 Yb 1.000000 0.500000 0.500000
O21_2 O 0.6779(6) 0.0769(7) 0.9163(7)
H43_2 H 0.669216 0.032969 0.904081
H44_2 H 0.710049 0.077386 0.938405
Yb14_8 Yb 1.000000 0.500000 1.000000
O45_2 O 0.6117(4) 0.0090(5) 0.9481(4)
O52_2 O 0.5577(4) 0.1261(5) 0.9600(5)
O58_2 O 0.6219(4) 0.1754(5) 0.9092(4)
C53_2 C 0.9036(6) 0.5676(7) 0.4260(6)
O23_2 O 0.9368(4) 0.5271(5) 0.4388(4)
C54_2 C 0.8702(6) 0.6611(7) 0.3678(6)
H45_2 H 0.843748 0.659193 0.380300
O24_2 O 0.9199(4) 0.7563(5) 0.2821(4)
C55_2 C 0.8729(6) 0.7068(7) 0.3333(6)
H46_2 H 0.847888 0.736414 0.320892
O25_2 O 0.8812(4) 0.7537(5) 0.1631(4)
C56_2 C 0.9118(6) 0.7106(7) 0.3160(6)
O26_2 O 0.8883(4) 0.4910(5) 0.0519(4)
C57_2 C 0.9466(6) 0.6634(7) 0.3303(6)
H47_2 H 0.971501 0.662806 0.315246
O27_2 O 0.9582(4) 0.5319(5) 0.0510(4)
C58_2 C 0.9442(6) 0.6184(8) 0.3659(6)
H48_2 H 0.968876 0.588077 0.377748
O28_2 O 0.8737(4) 0.9235(5) 0.1592(4)
C59_2 C 0.8836(6) 0.8007(7) 0.2601(6)
H49_2 H 0.877842 0.828042 0.287568
H50_2 H 0.854183 0.777809 0.242090
C60_2 C 0.8993(6) 0.8415(7) 0.2219(6)
C61_2 C 0.9177(6) 0.7988(7) 0.1854(6)
H51_2 H 0.924498 0.824972 0.157988
H52_2 H 0.946739 0.776314 0.205231
O31_2 O 0.9214(4) 0.9330(4) 0.2774(4)
C62_2 C 0.9391(6) 0.8858(6) 0.2504(5)
H53_2 H 0.964153 0.860765 0.275273
H54_2 H 0.952737 0.906655 0.225306
C63_2 C 0.8426(6) 0.9652(7) 0.1296(6)
O33_2 O 0.9264(4) 0.9551(4) 0.3919(4)
C64_2 C 0.8929(6) 0.7022(7) 0.1366(6)
C65_2 C 0.8637(6) 0.6490(8) 0.1327(6)
H55_2 H 0.838602 0.649799 0.147466
C66_2 C 0.8720(6) 0.5961(8) 0.1076(6)
H56_2 H 0.852447 0.559564 0.104825
C67_2 C 0.9082(6) 0.5946(7) 0.0861(6)
C68_2 C 0.9375(6) 0.6476(7) 0.0894(6)
H57_2 H 0.963158 0.646423 0.075524
C69_2 C 0.9273(6) 0.7041(7) 0.1145(6)
H58_2 H 0.944812 0.742354 0.115336
C70_2 C 0.9189(6) 0.5345(7) 0.0603(6)
C71_2 C 0.8582(6) 0.8806(6) 0.1910(6)
H59_2 H 0.833534 0.852166 0.169257
H60_2 H 0.844769 0.904862 0.214691
C72_2 C 0.7965(6) 0.9675(7) 0.1273(6)
H61_2 H 0.785238 0.938859 0.148174
C78_2 C 0.9548(6) 0.9783(6) 0.3041(6)
H65_2 H 0.970499 0.997667 0.280227
H66_2 H 0.978958 0.957250 0.332882
C80_2 C 0.8990(6) 0.9986(7) 0.3542(6)
H68_2 H 0.872841 0.975349 0.329388
C83_2 C 0.9312(6) 0.8515(6) 0.4272(6)
H73_2 H 0.963196 0.848982 0.428403
C84_2 C 0.8422(6) 0.7476(6) 0.4612(5)
C85_2 C 0.9097(6) 0.8013(6) 0.4441(6)
H74_2 H 0.927402 0.763582 0.456135
C86_2 C 0.8639(6) 0.8032(6) 0.4444(6)
C87_2 C 0.8382(6) 0.8593(7) 0.4264(6)
H75_2 H 0.806156 0.861039 0.425252
C88_2 C 0.8578(6) 0.9109(7) 0.4106(6)
H76_2 H 0.840351 0.949480 0.401309
C103_2 C 0.9042(6) 0.9072(6) 0.4080(6)
C104_2 C 0.9066(6) 0.6165(7) 0.3849(6)
O43_3 O 0.9368(4) 0.4729(5) 0.9388(4)
O55_3 O 0.9890(4) 0.6007(4) 0.9697(4)
O43_4 O 0.0632(4) 0.4729(5) 0.5612(4)
O55_4 O 0.0110(4) 0.6007(4) 0.5303(4)
O47_4 O 0.7317(4) 0.3512(4) 0.9833(4)
O51_4 O 0.7961(4) 0.2502(5) 0.9499(4)
O56_4 O 0.6897(4) 0.2255(5) 0.9332(4)
O46_4 O 0.9582(4) 0.4681(5) 0.5510(4)
O21_3 O 0.8221(6) 0.4231(7) 0.0837(7)
H43_3 H 0.830784 0.467031 0.095919
H44_3 H 0.789951 0.422614 0.061595
O1_3 O 0.1779(6) 0.4231(7) 0.4163(7)
H1_3 H 0.169216 0.467031 0.404081
H2_3 H 0.210049 0.422614 0.438405
O2_2 O 0.3715(4) 0.9284(5) 0.9465(4)
C1_3 C 0.4036(6) 0.9324(7) 0.9260(6)
C2_3 C 0.3702(6) 0.8389(7) 0.8678(6)
H3_3 H 0.343748 0.840807 0.880300
O4_3 O 0.4199(4) 0.7437(5) 0.7821(4)
C3_3 C 0.3729(6) 0.7932(7) 0.8333(6)
H4_3 H 0.347888 0.763586 0.820892
O5_3 O 0.3812(4) 0.7463(5) 0.6631(4)
C4_3 C 0.4118(6) 0.7894(7) 0.8160(6)
C5_3 C 0.4466(6) 0.8366(7) 0.8303(6)
H5_3 H 0.471501 0.837194 0.815246
C6_3 C 0.4442(6) 0.8816(8) 0.8659(6)
H6_3 H 0.468876 0.911923 0.877748
O8_3 O 0.3737(4) 0.5765(5) 0.6592(4)
C7_3 C 0.3836(6) 0.6993(7) 0.7601(6)
H7_3 H 0.377842 0.671958 0.787568
H8_3 H 0.354183 0.722191 0.742090
O9_3 O 0.2076(4) 0.4078(5) 0.5216(5)
C8_3 C 0.3993(6) 0.6585(7) 0.7219(6)
C9_3 C 0.4177(6) 0.7012(7) 0.6854(6)
H9_3 H 0.424498 0.675028 0.657988
H10_3 H 0.446739 0.723686 0.705231
O11_3 O 0.4214(4) 0.5670(4) 0.7774(4)
C10_3 C 0.4391(6) 0.6142(6) 0.7504(5)
H11_3 H 0.464153 0.639235 0.775273
H12_3 H 0.452737 0.593345 0.725306
O12_2 O 0.3661(4) 0.7972(4) 0.9835(4)
C11_3 C 0.3426(6) 0.5348(7) 0.6296(6)
O13_3 O 0.4264(4) 0.5449(4) 0.8919(4)
C12_3 C 0.3929(6) 0.7978(7) 0.6366(6)
C13_3 C 0.3637(6) 0.8510(8) 0.6327(6)
H13_3 H 0.338602 0.850201 0.647466
O15_3 O 0.4386(4) 0.3789(5) 0.8791(4)
C14_3 C 0.3720(6) 0.9039(8) 0.6076(6)
H14_3 H 0.352447 0.940436 0.604825
C15_3 C 0.4082(6) 0.9054(7) 0.5861(6)
C16_3 C 0.4375(6) 0.8524(7) 0.5894(6)
H15_3 H 0.463158 0.853577 0.575524
O18_3 O 0.4255(4) 0.3949(6) 0.7577(4)
C17_3 C 0.4273(6) 0.7959(7) 0.6145(6)
H16_3 H 0.444812 0.757646 0.615336
C18_3 C 0.4189(6) 0.9655(7) 0.5603(6)
C19_3 C 0.3582(6) 0.6194(6) 0.6910(6)
H17_3 H 0.333534 0.647834 0.669257
H18_3 H 0.344769 0.595138 0.714691
C20_3 C 0.2965(6) 0.5325(7) 0.6273(6)
H19_3 H 0.285238 0.561141 0.648174
C21_3 C 0.2644(6) 0.4882(7) 0.5944(6)
H20_3 H 0.232090 0.488051 0.592495
C22_3 C 0.2817(6) 0.4461(7) 0.5660(6)
C23_3 C 0.3291(6) 0.4472(7) 0.5693(6)
H21_3 H 0.341321 0.416739 0.550587
C24_3 C 0.3583(6) 0.4926(7) 0.6000(6)
H22_3 H 0.390171 0.494534 0.600474
C25_3 C 0.2516(6) 0.3973(7) 0.5328(7)
C26_3 C 0.4548(6) 0.5217(6) 0.8041(6)
H23_3 H 0.470499 0.502333 0.780227
H24_3 H 0.478958 0.542750 0.832882
C27_3 C 0.4294(6) 0.4700(7) 0.8254(6)
C28_3 C 0.3990(6) 0.5014(7) 0.8542(6)
H25_3 H 0.385385 0.468139 0.871631
H26_3 H 0.372841 0.524651 0.829388
C29_3 C 0.4659(6) 0.4258(7) 0.8603(6)
H27_3 H 0.487226 0.449848 0.889568
H28_3 H 0.484720 0.404481 0.840522
C30_3 C 0.3974(6) 0.4344(7) 0.7808(6)
H29_3 H 0.378530 0.464978 0.754792
H30_3 H 0.375684 0.407193 0.793029
C31_3 C 0.4312(6) 0.6485(6) 0.9272(6)
H31_3 H 0.463196 0.651018 0.928403
C32_3 C 0.3422(6) 0.7524(6) 0.9612(5)
C33_3 C 0.4097(6) 0.6987(6) 0.9441(6)
H32_3 H 0.427402 0.736418 0.956135
C34_3 C 0.3639(6) 0.6968(6) 0.9444(6)
C35_3 C 0.3382(6) 0.6407(7) 0.9264(6)
H33_3 H 0.306156 0.638961 0.925252
C36_3 C 0.3578(6) 0.5891(7) 0.9106(6)
H34_3 H 0.340351 0.550520 0.901309
C37_3 C 0.4614(6) 0.3232(6) 0.9002(6)
C38_3 C 0.5072(6) 0.3105(7) 0.9100(7)
H35_3 H 0.527437 0.343057 0.904420
C39_3 C 0.5260(6) 0.2502(7) 0.9284(7)
H36_3 H 0.558055 0.240807 0.932944
C40_3 C 0.4967(6) 0.2049(7) 0.9396(7)
C41_3 C 0.4502(6) 0.2185(7) 0.9309(7)
H37_3 H 0.429853 0.187135 0.937865
C42_3 C 0.4329(6) 0.2774(7) 0.9120(7)
H38_3 H 0.400722 0.286818 0.906924
C43_3 C 0.5156(6) 0.1398(7) 0.9579(6)
C44_3 C 0.4031(6) 0.3539(9) 0.7177(6)
C45_3 C 0.3578(6) 0.3564(8) 0.6908(6)
H39_3 H 0.337737 0.386730 0.699562
C46_3 C 0.3402(6) 0.3143(8) 0.6498(6)
H40_3 H 0.308390 0.317873 0.629200
C47_3 C 0.3681(6) 0.2674(8) 0.6384(6)
C48_3 C 0.4149(6) 0.2638(9) 0.6681(7)
H41_3 H 0.434913 0.231946 0.661012
C49_3 C 0.4320(7) 0.3072(9) 0.7080(7)
H42_3 H 0.463869 0.304823 0.728831
C50_3 C 0.3502(6) 0.2191(8) 0.5963(6)
C51_3 C 0.4042(6) 0.5928(6) 0.9080(6)
C52_3 C 0.4066(6) 0.8835(7) 0.8849(6)
O22_2 O 0.6285(4) 0.9284(5) 0.5535(4)
C53_3 C 0.5964(6) 0.9324(7) 0.5740(6)
C54_3 C 0.6298(6) 0.8389(7) 0.6322(6)
H45_3 H 0.656252 0.840807 0.619700
O24_3 O 0.5801(4) 0.7437(5) 0.7179(4)
C55_3 C 0.6271(6) 0.7932(7) 0.6667(6)
H46_3 H 0.652112 0.763586 0.679108
O25_3 O 0.6188(4) 0.7463(5) 0.8369(4)
C56_3 C 0.5882(6) 0.7894(7) 0.6840(6)
C57_3 C 0.5534(6) 0.8366(7) 0.6697(6)
H47_3 H 0.528499 0.837194 0.684754
C58_3 C 0.5558(6) 0.8816(8) 0.6341(6)
H48_3 H 0.531124 0.911923 0.622252
O28_3 O 0.6263(4) 0.5765(5) 0.8408(4)
C59_3 C 0.6164(6) 0.6993(7) 0.7399(6)
H49_3 H 0.622158 0.671958 0.712432
H50_3 H 0.645817 0.722191 0.757910
O29_3 O 0.7924(4) 0.4078(5) 0.9784(5)
C60_3 C 0.6007(6) 0.6585(7) 0.7781(6)
C61_3 C 0.5823(6) 0.7012(7) 0.8146(6)
H51_3 H 0.575502 0.675028 0.842012
H52_3 H 0.553261 0.723686 0.794769
O31_3 O 0.5786(4) 0.5670(4) 0.7226(4)
C62_3 C 0.5609(6) 0.6142(6) 0.7496(5)
H53_3 H 0.535847 0.639235 0.724727
H54_3 H 0.547263 0.593345 0.774694
O32_2 O 0.6339(4) 0.7972(4) 0.5165(4)
C63_3 C 0.6574(6) 0.5348(7) 0.8704(6)
O33_3 O 0.5736(4) 0.5449(4) 0.6081(4)
C64_3 C 0.6071(6) 0.7978(7) 0.8634(6)
C65_3 C 0.6363(6) 0.8510(8) 0.8673(6)
H55_3 H 0.661398 0.850201 0.852534
O35_3 O 0.5614(4) 0.3789(5) 0.6209(4)
C66_3 C 0.6280(6) 0.9039(8) 0.8924(6)
H56_3 H 0.647553 0.940436 0.895175
C67_3 C 0.5918(6) 0.9054(7) 0.9139(6)
C68_3 C 0.5625(6) 0.8524(7) 0.9106(6)
H57_3 H 0.536842 0.853577 0.924476
O38_3 O 0.5745(4) 0.3949(6) 0.7423(4)
C69_3 C 0.5727(6) 0.7959(7) 0.8855(6)
H58_3 H 0.555188 0.757646 0.884664
C70_3 C 0.5811(6) 0.9655(7) 0.9397(6)
C71_3 C 0.6418(6) 0.6194(6) 0.8090(6)
H59_3 H 0.666466 0.647834 0.830743
H60_3 H 0.655231 0.595138 0.785309
C72_3 C 0.7035(6) 0.5325(7) 0.8727(6)
H61_3 H 0.714762 0.561141 0.851826
C73_3 C 0.7356(6) 0.4882(7) 0.9056(6)
H62_3 H 0.767910 0.488051 0.907505
C74_3 C 0.7183(6) 0.4461(7) 0.9340(6)
C75_3 C 0.6709(6) 0.4472(7) 0.9307(6)
H63_3 H 0.658679 0.416739 0.949413
C76_3 C 0.6417(6) 0.4926(7) 0.9000(6)
H64_3 H 0.609829 0.494534 0.899526
C77_3 C 0.7484(6) 0.3973(7) 0.9672(7)
C78_3 C 0.5452(6) 0.5217(6) 0.6959(6)
H65_3 H 0.529501 0.502333 0.719773
H66_3 H 0.521042 0.542750 0.667118
C79_3 C 0.5706(6) 0.4700(7) 0.6746(6)
C80_3 C 0.6010(6) 0.5014(7) 0.6458(6)
H67_3 H 0.614615 0.468139 0.628369
H68_3 H 0.627159 0.524651 0.670612
C81_3 C 0.5341(6) 0.4258(7) 0.6397(6)
H69_3 H 0.512774 0.449848 0.610432
H70_3 H 0.515280 0.404481 0.659478
C82_3 C 0.6026(6) 0.4344(7) 0.7192(6)
H71_3 H 0.621470 0.464978 0.745208
H72_3 H 0.624316 0.407193 0.706971
C83_3 C 0.5688(6) 0.6485(6) 0.5728(6)
H73_3 H 0.536804 0.651018 0.571597
C84_3 C 0.6578(6) 0.7524(6) 0.5388(5)
C85_3 C 0.5903(6) 0.6987(6) 0.5559(6)
H74_3 H 0.572598 0.736418 0.543865
C86_3 C 0.6361(6) 0.6968(6) 0.5556(6)
C87_3 C 0.6618(6) 0.6407(7) 0.5736(6)
H75_3 H 0.693844 0.638961 0.574748
C88_3 C 0.6422(6) 0.5891(7) 0.5894(6)
H76_3 H 0.659649 0.550520 0.598691
C89_3 C 0.5386(6) 0.3232(6) 0.5998(6)
C90_3 C 0.4928(6) 0.3105(7) 0.5900(7)
H77_3 H 0.472563 0.343057 0.595580
C91_3 C 0.4740(6) 0.2502(7) 0.5716(7)
H78_3 H 0.441945 0.240807 0.567056
C92_3 C 0.5033(6) 0.2049(7) 0.5604(7)
C93_3 C 0.5498(6) 0.2185(7) 0.5691(7)
H79_3 H 0.570147 0.187135 0.562135
C94_3 C 0.5671(6) 0.2774(7) 0.5880(7)
H80_3 H 0.599278 0.286818 0.593076
C95_3 C 0.4844(6) 0.1398(7) 0.5421(6)
C96_3 C 0.5969(6) 0.3539(9) 0.7823(6)
C97_3 C 0.6422(6) 0.3564(8) 0.8092(6)
H81_3 H 0.662263 0.386730 0.800438
C98_3 C 0.6598(6) 0.3143(8) 0.8502(6)
H82_3 H 0.691610 0.317873 0.870800
C99_3 C 0.6319(6) 0.2674(8) 0.8616(6)
C100_3 C 0.5851(6) 0.2638(9) 0.8319(7)
H83_3 H 0.565087 0.231946 0.838988
C101_3 C 0.5680(7) 0.3072(9) 0.7920(7)
H84_3 H 0.536131 0.304823 0.771169
C102_3 C 0.6498(6) 0.2191(8) 0.9037(6)
C103_3 C 0.5958(6) 0.5928(6) 0.5920(6)
C104_3 C 0.5934(6) 0.8835(7) 0.6151(6)
O41_2 O 0.8715(4) 0.4284(5) 0.9465(4)
O42_2 O 0.1285(4) 0.4284(5) 0.5535(4)
O48_2 O 0.8661(4) 0.2972(4) 0.9835(4)
O49_2 O 0.1339(4) 0.2972(4) 0.5165(4)
C53_4 C 0.0964(6) 0.4324(7) 0.5740(6)
C54_4 C 0.1298(6) 0.3389(7) 0.6322(6)
H45_4 H 0.156252 0.340807 0.619700
O24_4 O 0.0801(4) 0.2437(5) 0.7179(4)
C55_4 C 0.1271(6) 0.2932(7) 0.6667(6)
H46_4 H 0.152112 0.263586 0.679108
O25_4 O 0.1188(4) 0.2463(5) 0.8369(4)
C56_4 C 0.0882(6) 0.2894(7) 0.6840(6)
C57_4 C 0.0534(6) 0.3366(7) 0.6697(6)
H47_4 H 0.028499 0.337194 0.684754
C58_4 C 0.0558(6) 0.3816(8) 0.6341(6)
H48_4 H 0.031124 0.411923 0.622252
O28_4 O 0.1263(4) 0.0765(5) 0.8408(4)
C59_4 C 0.1164(6) 0.1993(7) 0.7399(6)
H49_4 H 0.122158 0.171958 0.712432
H50_4 H 0.145817 0.222191 0.757910
C60_4 C 0.1007(6) 0.1585(7) 0.7781(6)
C61_4 C 0.0823(6) 0.2012(7) 0.8146(6)
H51_4 H 0.075502 0.175028 0.842012
H52_4 H 0.053261 0.223686 0.794769
O31_4 O 0.0786(4) 0.0670(4) 0.7226(4)
C62_4 C 0.0609(6) 0.1142(6) 0.7496(5)
H53_4 H 0.035847 0.139235 0.724727
H54_4 H 0.047263 0.093345 0.774694
C63_4 C 0.1574(6) 0.0348(7) 0.8704(6)
O33_4 O 0.0736(4) 0.0449(4) 0.6081(4)
C64_4 C 0.1071(6) 0.2978(7) 0.8634(6)
C65_4 C 0.1363(6) 0.3510(8) 0.8673(6)
H55_4 H 0.161398 0.350201 0.852534
C66_4 C 0.1280(6) 0.4039(8) 0.8924(6)
H56_4 H 0.147553 0.440436 0.895175
C67_4 C 0.0918(6) 0.4054(7) 0.9139(6)
C68_4 C 0.0625(6) 0.3524(7) 0.9106(6)
H57_4 H 0.036842 0.353577 0.924476
C69_4 C 0.0727(6) 0.2959(7) 0.8855(6)
H58_4 H 0.055188 0.257646 0.884664
C70_4 C 0.0811(6) 0.4655(7) 0.9397(6)
C71_4 C 0.1418(6) 0.1194(6) 0.8090(6)
H59_4 H 0.166466 0.147834 0.830743
H60_4 H 0.155231 0.095138 0.785309
C72_4 C 0.2035(6) 0.0325(7) 0.8727(6)
H61_4 H 0.214762 0.061141 0.851826
C78_4 C 0.0452(6) 0.0217(6) 0.6959(6)
H65_4 H 0.029501 0.002333 0.719773
H66_4 H 0.021042 0.042750 0.667118
C80_4 C 0.1010(6) 0.0014(7) 0.6458(6)
H68_4 H 0.127159 0.024651 0.670612
C83_4 C 0.0688(6) 0.1485(6) 0.5728(6)
H73_4 H 0.036804 0.151018 0.571597
C84_4 C 0.1578(6) 0.2524(6) 0.5388(5)
C85_4 C 0.0903(6) 0.1987(6) 0.5559(6)
H74_4 H 0.072598 0.236418 0.543865
C86_4 C 0.1361(6) 0.1968(6) 0.5556(6)
C87_4 C 0.1618(6) 0.1407(7) 0.5736(6)
H75_4 H 0.193844 0.138961 0.574748
C88_4 C 0.1422(6) 0.0891(7) 0.5894(6)
H76_4 H 0.159649 0.050520 0.598691
C103_4 C 0.0958(6) 0.0928(6) 0.5920(6)
C104_4 C 0.0934(6) 0.3835(7) 0.6151(6)
O21_4 O 0.3221(6) 0.9231(7) 0.0837(7)
H43_4 H 0.330784 0.967031 0.095919
H44_4 H 0.289951 0.922614 0.061595
C38_4 C 0.0072(6) 0.8105(7) 0.9100(7)
H35_4 H 0.027437 0.843057 0.904420
C39_4 C 0.0260(6) 0.7502(7) 0.9284(7)
H36_4 H 0.058055 0.740807 0.932944
C43_4 C 0.0156(6) 0.6398(7) 0.9579(6)
O29_4 O 0.2924(4) 0.9078(5) 0.9784(5)
O35_4 O 0.0614(4) 0.8789(5) 0.6209(4)
O38_4 O 0.0745(4) 0.8949(6) 0.7423(4)
C73_4 C 0.2356(6) 0.9882(7) 0.9056(6)
H62_4 H 0.267910 0.988051 0.907505
C74_4 C 0.2183(6) 0.9461(7) 0.9340(6)
C75_4 C 0.1709(6) 0.9472(7) 0.9307(6)
H63_4 H 0.158679 0.916739 0.949413
C76_4 C 0.1417(6) 0.9926(7) 0.9000(6)
H64_4 H 0.109829 0.994534 0.899526
C77_4 C 0.2484(6) 0.8973(7) 0.9672(7)
C79_4 C 0.0706(6) 0.9700(7) 0.6746(6)
H67_4 H 0.114615 0.968139 0.628369
C81_4 C 0.0341(6) 0.9258(7) 0.6397(6)
H69_4 H 0.012774 0.949848 0.610432
H70_4 H 0.015280 0.904481 0.659478
C82_4 C 0.1026(6) 0.9344(7) 0.7192(6)
H71_4 H 0.121470 0.964978 0.745208
H72_4 H 0.124316 0.907193 0.706971
C89_4 C 0.0386(6) 0.8232(6) 0.5998(6)
C92_4 C 0.0033(6) 0.7049(7) 0.5604(7)
C93_4 C 0.0498(6) 0.7185(7) 0.5691(7)
H79_4 H 0.070147 0.687135 0.562135
C94_4 C 0.0671(6) 0.7774(7) 0.5880(7)
H80_4 H 0.099278 0.786818 0.593076
C96_4 C 0.0969(6) 0.8539(9) 0.7823(6)
C97_4 C 0.1422(6) 0.8564(8) 0.8092(6)
H81_4 H 0.162263 0.886730 0.800438
C98_4 C 0.1598(6) 0.8143(8) 0.8502(6)
H82_4 H 0.191610 0.817873 0.870800
C99_4 C 0.1319(6) 0.7674(8) 0.8616(6)
C100_4 C 0.0851(6) 0.7638(9) 0.8319(7)
H83_4 H 0.065087 0.731946 0.838988
C101_4 C 0.0680(7) 0.8072(9) 0.7920(7)
H84_4 H 0.036131 0.804823 0.771169
C102_4 C 0.1498(6) 0.7191(8) 0.9037(6)
C1_4 C 0.9036(6) 0.4324(7) 0.9260(6)
C2_4 C 0.8702(6) 0.3389(7) 0.8678(6)
H3_4 H 0.843748 0.340807 0.880300
O4_4 O 0.9199(4) 0.2437(5) 0.7821(4)
C3_4 C 0.8729(6) 0.2932(7) 0.8333(6)
H4_4 H 0.847888 0.263586 0.820892
O5_4 O 0.8812(4) 0.2463(5) 0.6631(4)
C4_4 C 0.9118(6) 0.2894(7) 0.8160(6)
C5_4 C 0.9466(6) 0.3366(7) 0.8303(6)
H5_4 H 0.971501 0.337194 0.815246
C6_4 C 0.9442(6) 0.3816(8) 0.8659(6)
H6_4 H 0.968876 0.411923 0.877748
O8_4 O 0.8737(4) 0.0765(5) 0.6592(4)
C7_4 C 0.8836(6) 0.1993(7) 0.7601(6)
H7_4 H 0.877842 0.171958 0.787568
H8_4 H 0.854183 0.222191 0.742090
C8_4 C 0.8993(6) 0.1585(7) 0.7219(6)
C9_4 C 0.9177(6) 0.2012(7) 0.6854(6)
H9_4 H 0.924498 0.175028 0.657988
H10_4 H 0.946739 0.223686 0.705231
O11_4 O 0.9214(4) 0.0670(4) 0.7774(4)
C10_4 C 0.9391(6) 0.1142(6) 0.7504(5)
H11_4 H 0.964153 0.139235 0.775273
H12_4 H 0.952737 0.093345 0.725306
C11_4 C 0.8426(6) 0.0348(7) 0.6296(6)
O13_4 O 0.9264(4) 0.0449(4) 0.8919(4)
C12_4 C 0.8929(6) 0.2978(7) 0.6366(6)
C13_4 C 0.8637(6) 0.3510(8) 0.6327(6)
H13_4 H 0.838602 0.350201 0.647466
C14_4 C 0.8720(6) 0.4039(8) 0.6076(6)
H14_4 H 0.852447 0.440436 0.604825
C15_4 C 0.9082(6) 0.4054(7) 0.5861(6)
C16_4 C 0.9375(6) 0.3524(7) 0.5894(6)
H15_4 H 0.963158 0.353577 0.575524
C17_4 C 0.9273(6) 0.2959(7) 0.6145(6)
H16_4 H 0.944812 0.257646 0.615336
C18_4 C 0.9189(6) 0.4655(7) 0.5603(6)
C19_4 C 0.8582(6) 0.1194(6) 0.6910(6)
H17_4 H 0.833534 0.147834 0.669257
H18_4 H 0.844769 0.095138 0.714691
C20_4 C 0.7965(6) 0.0325(7) 0.6273(6)
H19_4 H 0.785238 0.061141 0.648174
C26_4 C 0.9548(6) 0.0217(6) 0.8041(6)
H23_4 H 0.970499 0.002333 0.780227
H24_4 H 0.978958 0.042750 0.832882
C28_4 C 0.8990(6) 0.0014(7) 0.8542(6)
H26_4 H 0.872841 0.024651 0.829388
C31_4 C 0.9312(6) 0.1485(6) 0.9272(6)
H31_4 H 0.963196 0.151018 0.928403
C32_4 C 0.8422(6) 0.2524(6) 0.9612(5)
C33_4 C 0.9097(6) 0.1987(6) 0.9441(6)
H32_4 H 0.927402 0.236418 0.956135
C34_4 C 0.8639(6) 0.1968(6) 0.9444(6)
C35_4 C 0.8382(6) 0.1407(7) 0.9264(6)
H33_4 H 0.806156 0.138961 0.925252
C36_4 C 0.8578(6) 0.0891(7) 0.9106(6)
H34_4 H 0.840351 0.050520 0.901309
C51_4 C 0.9042(6) 0.0928(6) 0.9080(6)
C52_4 C 0.9066(6) 0.3835(7) 0.8849(6)
O1_4 O 0.6779(6) 0.9231(7) 0.4163(7)
H1_4 H 0.669216 0.967031 0.404081
H2_4 H 0.710049 0.922614 0.438405
O9_4 O 0.7076(4) 0.9078(5) 0.5216(5)
O15_4 O 0.9386(4) 0.8789(5) 0.8791(4)
O18_4 O 0.9255(4) 0.8949(6) 0.7577(4)
C21_4 C 0.7644(6) 0.9882(7) 0.5944(6)
H20_4 H 0.732090 0.988051 0.592495
C22_4 C 0.7817(6) 0.9461(7) 0.5660(6)
C23_4 C 0.8291(6) 0.9472(7) 0.5693(6)
H21_4 H 0.841321 0.916739 0.550587
C24_4 C 0.8583(6) 0.9926(7) 0.6000(6)
H22_4 H 0.890171 0.994534 0.600474
C25_4 C 0.7516(6) 0.8973(7) 0.5328(7)
C27_4 C 0.9294(6) 0.9700(7) 0.8254(6)
H25_4 H 0.885385 0.968139 0.871631
C29_4 C 0.9659(6) 0.9258(7) 0.8603(6)
H27_4 H 0.987226 0.949848 0.889568
H28_4 H 0.984720 0.904481 0.840522
C30_4 C 0.8974(6) 0.9344(7) 0.7808(6)
H29_4 H 0.878530 0.964978 0.754792
H30_4 H 0.875684 0.907193 0.793029
C37_4 C 0.9614(6) 0.8232(6) 0.9002(6)
C40_4 C 0.9967(6) 0.7049(7) 0.9396(7)
C41_4 C 0.9502(6) 0.7185(7) 0.9309(7)
H37_4 H 0.929853 0.687135 0.937865
C42_4 C 0.9329(6) 0.7774(7) 0.9120(7)
H38_4 H 0.900722 0.786818 0.906924
C44_4 C 0.9031(6) 0.8539(9) 0.7177(6)
C45_4 C 0.8578(6) 0.8564(8) 0.6908(6)
H39_4 H 0.837737 0.886730 0.699562
C46_4 C 0.8402(6) 0.8143(8) 0.6498(6)
H40_4 H 0.808390 0.817873 0.629200
C47_4 C 0.8681(6) 0.7674(8) 0.6384(6)
C48_4 C 0.9149(6) 0.7638(9) 0.6681(7)
H41_4 H 0.934913 0.731946 0.661012
C49_4 C 0.9320(7) 0.8072(9) 0.7080(7)
H42_4 H 0.963869 0.804823 0.728831
C50_4 C 0.8502(6) 0.7191(8) 0.5963(6)
C90_4 C 0.9928(6) 0.8105(7) 0.5900(7)
H77_4 H 0.972563 0.843057 0.595580
C91_4 C 0.9740(6) 0.7502(7) 0.5716(7)
H78_4 H 0.941945 0.740807 0.567056
C95_4 C 0.9844(6) 0.6398(7) 0.5421(6)
loop_
_geom_bond_atom_site_label_1
_geom_bond_atom_site_label_2
_geom_bond_site_symmetry_1
_geom_bond_site_symmetry_2
Yb1 O1 1_555 1_555
O1 H1 1_555 1_555
H2 O1 1_555 1_555
O2 C1 1_555 1_555
Yb2 O10 1_555 1_555
C1 O3 1_555 1_555
O3 Yb14 1_555 1_555
Yb14 O27 1_555 1_555
C2 H3 1_555 1_555
O4 C4 1_555 1_555
C3 C2 1_555 1_555
H4 C3 1_555 1_555
O5 C9 1_555 1_555
C4 C3 1_555 1_555
C5 C4 1_555 1_555
H5 C5 1_555 1_555
O7 C18 1_555 1_555
C6 C5 1_555 1_555
H6 C6 1_555 1_555
O8 C11 1_555 1_555
C7 O4 1_555 1_555
H7 C7 1_555 1_555
H8 C7 1_555 1_555
O9 Yb1 1_555 1_555
C8 C7 1_555 1_555
O10 C25 1_555 1_555
C9 C8 1_555 1_555
H9 C9 1_555 1_555
H10 C9 1_555 1_555
O11 C10 1_555 1_555
C10 C8 1_555 1_555
H11 C10 1_555 1_555
H12 C10 1_555 1_555
O12 C32 1_555 1_555
C11 C20 1_555 1_555
O13 C28 1_555 1_555
C12 O5 1_555 1_555
O14 C32 1_555 1_555
C13 C12 1_555 1_555
H13 C13 1_555 1_555
O15 C29 1_555 1_555
C14 C13 1_555 1_555
H14 C14 1_555 1_555
O16 C43 1_555 1_555
C15 C14 1_555 1_555
O17 C43 1_555 1_555
C16 C15 1_555 1_555
H15 C16 1_555 1_555
O18 C30 1_555 1_555
C17 C12 1_555 1_555
H16 C17 1_555 1_555
O19 Yb2 1_555 1_555
C18 C15 1_555 1_555
O20 C50 1_555 1_555
C19 O8 1_555 1_555
H17 C19 1_555 1_555
H18 C19 1_555 1_555
C20 H19 1_555 1_555
C21 C20 1_555 1_555
H20 C21 1_555 1_555
C22 C21 1_555 1_555
C23 C22 1_555 1_555
H21 C23 1_555 1_555
C24 C11 1_555 1_555
H22 C24 1_555 1_555
C25 O9 1_555 1_555
C26 O11 1_555 1_555
H23 C26 1_555 1_555
H24 C26 1_555 1_555
C27 C26 1_555 1_555
C28 C27 1_555 1_555
H25 C28 1_555 1_555
H26 C28 1_555 1_555
C29 C27 1_555 1_555
H27 C29 1_555 1_555
H28 C29 1_555 1_555
C30 C27 1_555 1_555
H29 C30 1_555 1_555
H30 C30 1_555 1_555
C31 H31 1_555 1_555
C32 C34 1_555 1_555
C33 C31 1_555 1_555
H32 C33 1_555 1_555
C34 C33 1_555 1_555
C35 C34 1_555 1_555
H33 C35 1_555 1_555
C36 C35 1_555 1_555
H34 C36 1_555 1_555
C37 O15 1_555 1_555
C38 C37 1_555 1_555
H35 C38 1_555 1_555
C39 C38 1_555 1_555
H36 C39 1_555 1_555
C40 C39 1_555 1_555
C41 C40 1_555 1_555
H37 C41 1_555 1_555
C42 C37 1_555 1_555
H38 C42 1_555 1_555
C43 C40 1_555 1_555
C44 O18 1_555 1_555
C45 C44 1_555 1_555
H39 C45 1_555 1_555
C46 C45 1_555 1_555
H40 C46 1_555 1_555
C47 C46 1_555 1_555
C48 C47 1_555 1_555
H41 C48 1_555 1_555
C49 C44 1_555 1_555
H42 C49 1_555 1_555
C50 O19 1_555 1_555
C51 O13 1_555 1_555
C52 C1 1_555 1_555
O22 C53 1_555 1_555
C53 O23 1_555 1_555
O23 Yb16 1_555 1_555
C54 H45 1_555 1_555
O24 C56 1_555 1_555
C55 C54 1_555 1_555
H46 C55 1_555 1_555
O25 C61 1_555 1_555
C56 C55 1_555 1_555
C57 C56 1_555 1_555
H47 C57 1_555 1_555
O27 C70 1_555 1_555
C58 C57 1_555 1_555
H48 C58 1_555 1_555
O28 C63 1_555 1_555
C59 O24 1_555 1_555
H49 C59 1_555 1_555
H50 C59 1_555 1_555
C60 C59 1_555 1_555
O30 C77 1_555 1_555
C61 C60 1_555 1_555
H51 C61 1_555 1_555
H52 C61 1_555 1_555
O31 C62 1_555 1_555
C62 C60 1_555 1_555
H53 C62 1_555 1_555
H54 C62 1_555 1_555
O32 C84 1_555 1_555
C63 C72 1_555 1_555
O33 C80 1_555 1_555
C64 O25 1_555 1_555
O34 C84 1_555 1_555
C65 C64 1_555 1_555
H55 C65 1_555 1_555
O35 C81 1_555 1_555
C66 C65 1_555 1_555
H56 C66 1_555 1_555
O36 C95 1_555 1_555
C67 C66 1_555 1_555
O37 C95 1_555 1_555
C68 C67 1_555 1_555
H57 C68 1_555 1_555
O38 C82 1_555 1_555
C69 C64 1_555 1_555
H58 C69 1_555 1_555
O39 C102 1_555 1_555
C70 C67 1_555 1_555
O40 C102 1_555 1_555
C71 O28 1_555 1_555
H59 C71 1_555 1_555
H60 C71 1_555 1_555
C72 H61 1_555 1_555
C73 C72 1_555 1_555
H62 C73 1_555 1_555
C74 C73 1_555 1_555
C75 C74 1_555 1_555
H63 C75 1_555 1_555
C76 C63 1_555 1_555
H64 C76 1_555 1_555
C77 O29 1_555 1_555
C78 O31 1_555 1_555
H65 C78 1_555 1_555
H66 C78 1_555 1_555
C79 C78 1_555 1_555
C80 C79 1_555 1_555
H67 C80 1_555 1_555
H68 C80 1_555 1_555
C81 C79 1_555 1_555
H69 C81 1_555 1_555
H70 C81 1_555 1_555
C82 C79 1_555 1_555
H71 C82 1_555 1_555
H72 C82 1_555 1_555
C83 H73 1_555 1_555
C84 C86 1_555 1_555
C85 C83 1_555 1_555
H74 C85 1_555 1_555
C86 C85 1_555 1_555
C87 C86 1_555 1_555
H75 C87 1_555 1_555
C88 C87 1_555 1_555
H76 C88 1_555 1_555
C89 O35 1_555 1_555
C90 C89 1_555 1_555
H77 C90 1_555 1_555
C91 C90 1_555 1_555
H78 C91 1_555 1_555
C92 C91 1_555 1_555
C93 C92 1_555 1_555
H79 C93 1_555 1_555
C94 C89 1_555 1_555
H80 C94 1_555 1_555
C95 C92 1_555 1_555
C96 O38 1_555 1_555
C97 C96 1_555 1_555
H81 C97 1_555 1_555
C98 C97 1_555 1_555
H82 C98 1_555 1_555
C99 C98 1_555 1_555
C100 C99 1_555 1_555
H83 C100 1_555 1_555
C101 C96 1_555 1_555
H84 C101 1_555 1_555
C102 C99 1_555 1_555
C103 O33 1_555 1_555
C104 C53 1_555 1_555
Yb5 O22 1_555 1_555
Yb8 O20 1_555 1_555
Yb10 O16 1_555 1_555
O42 Yb1 1_555 1_555
Yb11 O30 1_555 1_555
Yb12 O34 1_555 1_555
Yb13 O14 1_555 1_555
Yb14_3 O17 1_555 1_555
Yb16 O7 1_555 1_555
Yb16_2 O37 1_555 1_555
O44 Yb1 1_555 1_555
O47 Yb2 1_555 1_555
O49 Yb1 1_555 1_555
O50 Yb2 1_555 1_555
O51 Yb2 1_555 1_555
O53 Yb1 1_555 1_555
O56 Yb2 1_555 1_555
O57 Yb1 1_555 1_555
C2 C52 1_555 1_555
C6 C52 1_555 1_555
C8 C19 1_555 1_555
C16 C17 1_555 1_555
C22 C25 1_555 1_555
C23 C24 1_555 1_555
C31 C51 1_555 1_555
C36 C51 1_555 1_555
C41 C42 1_555 1_555
C47 C50 1_555 1_555
C48 C49 1_555 1_555
C54 C104 1_555 1_555
C58 C104 1_555 1_555
C60 C71 1_555 1_555
O32 Yb5 1_555 1_555
O36 Yb8 1_555 1_555
C68 C69 1_555 1_555
O39 Yb11 1_555 1_555
O40 Yb10 1_555 1_555
C74 C77 1_555 1_555
C75 C76 1_555 1_555
C83 C103 1_555 1_555
C88 C103 1_555 1_555
C93 C94 1_555 1_555
C100 C101 1_555 1_555
Yb4 O21 1_555 1_555
O21 H43 1_555 1_555
H44 O21 1_555 1_555
O45 Yb4 1_555 1_555
O52 Yb4 1_555 1_555
O55 Yb14_2 1_555 1_555
O58 Yb4 1_555 1_555
Yb8 O6 1_555 1_555
Yb10 O26 1_555 1_555
O43 Yb14_4 1_555 1_555
O46 Yb14_4 1_555 1_555
O50_2 Yb11 1_555 1_555
O55_2 Yb16 1_555 1_555
O47_2 Yb11_2 1_555 1_555
O51_2 Yb11_2 1_555 1_555
O56_2 Yb11_2 1_555 1_555
O43_2 Yb16_2 1_555 1_555
O46_2 Yb16_2 1_555 1_555
Yb5 O1_2 1_555 1_555
O1_2 H1_2 1_555 1_555
H2_2 O1_2 1_555 1_555
Yb12 O10_2 1_555 1_555
O9_2 Yb5 1_555 1_555
O10_2 C25_2 1_555 1_555
O15_2 C29_2 1_555 1_555
O18_2 C30_2 1_555 1_555
O19_2 Yb12 1_555 1_555
O20_2 C50_2 1_555 1_555
H20_2 C21_2 1_555 1_555
C22_2 C21_2 1_555 1_555
C23_2 C22_2 1_555 1_555
H21_2 C23_2 1_555 1_555
H22_2 C24_2 1_555 1_555
C25_2 O9_2 1_555 1_555
C29_2 C27_2 1_555 1_555
H27_2 C29_2 1_555 1_555
H28_2 C29_2 1_555 1_555
C30_2 C27_2 1_555 1_555
H29_2 C30_2 1_555 1_555
H30_2 C30_2 1_555 1_555
C37_2 O15_2 1_555 1_555
C41_2 C40_2 1_555 1_555
H37_2 C41_2 1_555 1_555
C42_2 C37_2 1_555 1_555
H38_2 C42_2 1_555 1_555
C44_2 O18_2 1_555 1_555
C45_2 C44_2 1_555 1_555
H39_2 C45_2 1_555 1_555
C46_2 C45_2 1_555 1_555
H40_2 C46_2 1_555 1_555
C47_2 C46_2 1_555 1_555
C48_2 C47_2 1_555 1_555
H41_2 C48_2 1_555 1_555
C49_2 C44_2 1_555 1_555
H42_2 C49_2 1_555 1_555
C50_2 O19_2 1_555 1_555
O36_2 C95_2 1_555 1_555
H77_2 C90_2 1_555 1_555
C91_2 C90_2 1_555 1_555
H78_2 C91_2 1_555 1_555
Yb8_2 O20_2 1_555 1_555
Yb14_5 O17_2 1_555 1_555
O44_2 Yb5 1_555 1_555
O47_3 Yb12 1_555 1_555
O51_3 Yb12 1_555 1_555
O53_2 Yb5 1_555 1_555
O56_3 Yb12 1_555 1_555
O57_2 Yb5 1_555 1_555
C22_2 C25_2 1_555 1_555
C23_2 C24_2 1_555 1_555
C41_2 C42_2 1_555 1_555
C47_2 C50_2 1_555 1_555
C48_2 C49_2 1_555 1_555
O36_2 Yb8_2 1_555 1_555
O41 C1_2 1_555 1_555
C1_2 O3_2 1_555 1_555
O3_2 Yb14_5 1_555 1_555
C2_2 H3_2 1_555 1_555
O4_2 C4_2 1_555 1_555
C3_2 C2_2 1_555 1_555
H4_2 C3_2 1_555 1_555
O5_2 C9_2 1_555 1_555
C4_2 C3_2 1_555 1_555
O6_2 C18_2 1_555 1_555
C5_2 C4_2 1_555 1_555
H5_2 C5_2 1_555 1_555
O7_2 C18_2 1_555 1_555
C6_2 C5_2 1_555 1_555
H6_2 C6_2 1_555 1_555
O8_2 C11_2 1_555 1_555
C7_2 O4_2 1_555 1_555
H7_2 C7_2 1_555 1_555
H8_2 C7_2 1_555 1_555
C8_2 C7_2 1_555 1_555
C9_2 C8_2 1_555 1_555
H9_2 C9_2 1_555 1_555
H10_2 C9_2 1_555 1_555
O11_2 C10_2 1_555 1_555
C10_2 C8_2 1_555 1_555
H11_2 C10_2 1_555 1_555
H12_2 C10_2 1_555 1_555
O48 C32_2 1_555 1_555
C11_2 C20_2 1_555 1_555
O13_2 C28_2 1_555 1_555
C12_2 O5_2 1_555 1_555
O50_2 C32_2 1_555 1_555
C13_2 C12_2 1_555 1_555
H13_2 C13_2 1_555 1_555
C14_2 C13_2 1_555 1_555
H14_2 C14_2 1_555 1_555
C15_2 C14_2 1_555 1_555
C16_2 C15_2 1_555 1_555
H15_2 C16_2 1_555 1_555
C17_2 C12_2 1_555 1_555
H16_2 C17_2 1_555 1_555
C18_2 C15_2 1_555 1_555
C19_2 O8_2 1_555 1_555
H17_2 C19_2 1_555 1_555
H18_2 C19_2 1_555 1_555
C20_2 H19_2 1_555 1_555
C26_2 O11_2 1_555 1_555
H23_2 C26_2 1_555 1_555
H24_2 C26_2 1_555 1_555
H26_2 C28_2 1_555 1_555
C31_2 H31_2 1_555 1_555
C32_2 C34_2 1_555 1_555
C33_2 C31_2 1_555 1_555
H32_2 C33_2 1_555 1_555
C34_2 C33_2 1_555 1_555
C35_2 C34_2 1_555 1_555
H33_2 C35_2 1_555 1_555
C36_2 C35_2 1_555 1_555
H34_2 C36_2 1_555 1_555
C51_2 O13_2 1_555 1_555
C52_2 C1_2 1_555 1_555
Yb8_2 O6_2 1_555 1_555
Yb16_3 O7_2 1_555 1_555
C2_2 C52_2 1_555 1_555
C6_2 C52_2 1_555 1_555
C8_2 C19_2 1_555 1_555
C16_2 C17_2 1_555 1_555
C31_2 C51_2 1_555 1_555
C36_2 C51_2 1_555 1_555
O46_3 Yb14_6 1_555 1_555
O16_2 C43_2 1_555 1_555
H35_2 C38_2 1_555 1_555
C39_2 C38_2 1_555 1_555
H36_2 C39_2 1_555 1_555
O30_2 C77_2 1_555 1_555
O35_2 C81_2 1_555 1_555
O38_2 C82_2 1_555 1_555
O39_2 C102_2 1_555 1_555
O40_2 C102_2 1_555 1_555
H62_2 C73_2 1_555 1_555
C74_2 C73_2 1_555 1_555
C75_2 C74_2 1_555 1_555
H63_2 C75_2 1_555 1_555
H64_2 C76_2 1_555 1_555
C77_2 O29_2 1_555 1_555
C81_2 C79_2 1_555 1_555
H69_2 C81_2 1_555 1_555
H70_2 C81_2 1_555 1_555
C82_2 C79_2 1_555 1_555
H71_2 C82_2 1_555 1_555
H72_2 C82_2 1_555 1_555
C89_2 O35_2 1_555 1_555
C93_2 C92_2 1_555 1_555
H79_2 C93_2 1_555 1_555
C94_2 C89_2 1_555 1_555
H80_2 C94_2 1_555 1_555
C96_2 O38_2 1_555 1_555
C97_2 C96_2 1_555 1_555
H81_2 C97_2 1_555 1_555
C98_2 C97_2 1_555 1_555
H82_2 C98_2 1_555 1_555
C99_2 C98_2 1_555 1_555
C100_2 C99_2 1_555 1_555
H83_2 C100_2 1_555 1_555
C101_2 C96_2 1_555 1_555
H84_2 C101_2 1_555 1_555
C102_2 C99_2 1_555 1_555
Yb10_2 O16_2 1_555 1_555
Yb13 O30_2 1_555 1_555
Yb16_4 O37_2 1_555 1_555
O39_2 Yb13 1_555 1_555
O40_2 Yb10_2 1_555 1_555
C74_2 C77_2 1_555 1_555
C75_2 C76_2 1_555 1_555
C93_2 C94_2 1_555 1_555
C100_2 C101_2 1_555 1_555
Yb6 O21_2 1_555 1_555
O21_2 H43_2 1_555 1_555
H44_2 O21_2 1_555 1_555
O45_2 Yb6 1_555 1_555
O52_2 Yb6 1_555 1_555
O58_2 Yb6 1_555 1_555
Yb14_7 O27_2 1_555 1_555
O42 C53_2 1_555 1_555
C53_2 O23_2 1_555 1_555
O23_2 Yb16_4 1_555 1_555
C54_2 H45_2 1_555 1_555
O24_2 C56_2 1_555 1_555
C55_2 C54_2 1_555 1_555
H46_2 C55_2 1_555 1_555
O25_2 C61_2 1_555 1_555
C56_2 C55_2 1_555 1_555
O26_2 C70_2 1_555 1_555
C57_2 C56_2 1_555 1_555
H47_2 C57_2 1_555 1_555
O27_2 C70_2 1_555 1_555
C58_2 C57_2 1_555 1_555
H48_2 C58_2 1_555 1_555
O28_2 C63_2 1_555 1_555
C59_2 O24_2 1_555 1_555
H49_2 C59_2 1_555 1_555
H50_2 C59_2 1_555 1_555
C60_2 C59_2 1_555 1_555
C61_2 C60_2 1_555 1_555
H51_2 C61_2 1_555 1_555
H52_2 C61_2 1_555 1_555
O31_2 C62_2 1_555 1_555
C62_2 C60_2 1_555 1_555
H53_2 C62_2 1_555 1_555
H54_2 C62_2 1_555 1_555
O49 C84_2 1_555 1_555
C63_2 C72_2 1_555 1_555
O33_2 C80_2 1_555 1_555
C64_2 O25_2 1_555 1_555
O50 C84_2 1_555 1_555
C65_2 C64_2 1_555 1_555
H55_2 C65_2 1_555 1_555
C66_2 C65_2 1_555 1_555
H56_2 C66_2 1_555 1_555
C67_2 C66_2 1_555 1_555
C68_2 C67_2 1_555 1_555
H57_2 C68_2 1_555 1_555
C69_2 C64_2 1_555 1_555
H58_2 C69_2 1_555 1_555
C70_2 C67_2 1_555 1_555
C71_2 O28_2 1_555 1_555
H59_2 C71_2 1_555 1_555
H60_2 C71_2 1_555 1_555
C72_2 H61_2 1_555 1_555
C78_2 O31_2 1_555 1_555
H65_2 C78_2 1_555 1_555
H66_2 C78_2 1_555 1_555
H68_2 C80_2 1_555 1_555
C83_2 H73_2 1_555 1_555
C84_2 C86_2 1_555 1_555
C85_2 C83_2 1_555 1_555
H74_2 C85_2 1_555 1_555
C86_2 C85_2 1_555 1_555
C87_2 C86_2 1_555 1_555
H75_2 C87_2 1_555 1_555
C88_2 C87_2 1_555 1_555
H76_2 C88_2 1_555 1_555
C103_2 O33_2 1_555 1_555
C104_2 C53_2 1_555 1_555
Yb10_2 O26_2 1_555 1_555
C54_2 C104_2 1_555 1_555
C58_2 C104_2 1_555 1_555
C60_2 C71_2 1_555 1_555
C68_2 C69_2 1_555 1_555
C83_2 C103_2 1_555 1_555
C88_2 C103_2 1_555 1_555
O43_3 Yb14_8 1_555 1_555
O55_3 Yb14_8 1_555 1_555
O43_4 Yb16_3 1_555 1_555
O55_4 Yb16_3 1_555 1_555
O47_4 Yb13_2 1_555 1_555
O51_4 Yb13_2 1_555 1_555
O56_4 Yb13_2 1_555 1_555
O46_4 Yb16_4 1_555 1_555
Yb10_2 O21_3 1_555 1_555
O21_3 H43_3 1_555 1_555
H44_3 O21_3 1_555 1_555
Yb8_2 O1_3 1_555 1_555
O1_3 H1_3 1_555 1_555
H2_3 O1_3 1_555 1_555
O2_2 C1_3 1_555 1_555
C1_3 O43 1_555 1_555
C2_3 H3_3 1_555 1_555
O4_3 C4_3 1_555 1_555
C3_3 C2_3 1_555 1_555
H4_3 C3_3 1_555 1_555
O5_3 C9_3 1_555 1_555
C4_3 C3_3 1_555 1_555
C5_3 C4_3 1_555 1_555
H5_3 C5_3 1_555 1_555
O46_2 C18_3 1_555 1_555
C6_3 C5_3 1_555 1_555
H6_3 C6_3 1_555 1_555
O8_3 C11_3 1_555 1_555
C7_3 O4_3 1_555 1_555
H7_3 C7_3 1_555 1_555
H8_3 C7_3 1_555 1_555
O9_3 Yb8_2 1_555 1_555
C8_3 C7_3 1_555 1_555
O47_3 C25_3 1_555 1_555
C9_3 C8_3 1_555 1_555
H9_3 C9_3 1_555 1_555
H10_3 C9_3 1_555 1_555
O11_3 C10_3 1_555 1_555
C10_3 C8_3 1_555 1_555
H11_3 C10_3 1_555 1_555
H12_3 C10_3 1_555 1_555
O12_2 C32_3 1_555 1_555
C11_3 C20_3 1_555 1_555
O13_3 C28_3 1_555 1_555
C12_3 O5_3 1_555 1_555
O51_2 C32_3 1_555 1_555
C13_3 C12_3 1_555 1_555
H13_3 C13_3 1_555 1_555
O15_3 C29_3 1_555 1_555
C14_3 C13_3 1_555 1_555
H14_3 C14_3 1_555 1_555
O52_2 C43_3 1_555 1_555
C15_3 C14_3 1_555 1_555
O55 C43_3 1_555 1_555
C16_3 C15_3 1_555 1_555
H15_3 C16_3 1_555 1_555
O18_3 C30_3 1_555 1_555
C17_3 C12_3 1_555 1_555
H16_3 C17_3 1_555 1_555
C18_3 C15_3 1_555 1_555
O57_2 C50_3 1_555 1_555
C19_3 O8_3 1_555 1_555
H17_3 C19_3 1_555 1_555
H18_3 C19_3 1_555 1_555
C20_3 H19_3 1_555 1_555
C21_3 C20_3 1_555 1_555
H20_3 C21_3 1_555 1_555
C22_3 C21_3 1_555 1_555
C23_3 C22_3 1_555 1_555
H21_3 C23_3 1_555 1_555
C24_3 C11_3 1_555 1_555
H22_3 C24_3 1_555 1_555
C25_3 O9_3 1_555 1_555
C26_3 O11_3 1_555 1_555
H23_3 C26_3 1_555 1_555
H24_3 C26_3 1_555 1_555
C27_3 C26_3 1_555 1_555
C28_3 C27_3 1_555 1_555
H25_3 C28_3 1_555 1_555
H26_3 C28_3 1_555 1_555
C29_3 C27_3 1_555 1_555
H27_3 C29_3 1_555 1_555
H28_3 C29_3 1_555 1_555
C30_3 C27_3 1_555 1_555
H29_3 C30_3 1_555 1_555
H30_3 C30_3 1_555 1_555
C31_3 H31_3 1_555 1_555
C32_3 C34_3 1_555 1_555
C33_3 C31_3 1_555 1_555
H32_3 C33_3 1_555 1_555
C34_3 C33_3 1_555 1_555
C35_3 C34_3 1_555 1_555
H33_3 C35_3 1_555 1_555
C36_3 C35_3 1_555 1_555
H34_3 C36_3 1_555 1_555
C37_3 O15_3 1_555 1_555
C38_3 C37_3 1_555 1_555
H35_3 C38_3 1_555 1_555
C39_3 C38_3 1_555 1_555
H36_3 C39_3 1_555 1_555
C40_3 C39_3 1_555 1_555
C41_3 C40_3 1_555 1_555
H37_3 C41_3 1_555 1_555
C42_3 C37_3 1_555 1_555
H38_3 C42_3 1_555 1_555
C43_3 C40_3 1_555 1_555
C44_3 O18_3 1_555 1_555
C45_3 C44_3 1_555 1_555
H39_3 C45_3 1_555 1_555
C46_3 C45_3 1_555 1_555
H40_3 C46_3 1_555 1_555
C47_3 C46_3 1_555 1_555
C48_3 C47_3 1_555 1_555
H41_3 C48_3 1_555 1_555
C49_3 C44_3 1_555 1_555
H42_3 C49_3 1_555 1_555
C50_3 O56_3 1_555 1_555
C51_3 O13_3 1_555 1_555
C52_3 C1_3 1_555 1_555
O22_2 C53_3 1_555 1_555
C53_3 O43_2 1_555 1_555
C54_3 H45_3 1_555 1_555
O24_3 C56_3 1_555 1_555
C55_3 C54_3 1_555 1_555
H46_3 C55_3 1_555 1_555
O25_3 C61_3 1_555 1_555
C56_3 C55_3 1_555 1_555
C57_3 C56_3 1_555 1_555
H47_3 C57_3 1_555 1_555
O46 C70_3 1_555 1_555
C58_3 C57_3 1_555 1_555
H48_3 C58_3 1_555 1_555
O28_3 C63_3 1_555 1_555
C59_3 O24_3 1_555 1_555
H49_3 C59_3 1_555 1_555
H50_3 C59_3 1_555 1_555
C60_3 C59_3 1_555 1_555
O47_4 C77_3 1_555 1_555
C61_3 C60_3 1_555 1_555
H51_3 C61_3 1_555 1_555
H52_3 C61_3 1_555 1_555
O31_3 C62_3 1_555 1_555
C62_3 C60_3 1_555 1_555
H53_3 C62_3 1_555 1_555
H54_3 C62_3 1_555 1_555
O32_2 C84_3 1_555 1_555
C63_3 C72_3 1_555 1_555
O33_3 C80_3 1_555 1_555
C64_3 O25_3 1_555 1_555
O51 C84_3 1_555 1_555
C65_3 C64_3 1_555 1_555
H55_3 C65_3 1_555 1_555
O35_3 C81_3 1_555 1_555
C66_3 C65_3 1_555 1_555
H56_3 C66_3 1_555 1_555
O53_2 C95_3 1_555 1_555
C67_3 C66_3 1_555 1_555
O55_2 C95_3 1_555 1_555
C68_3 C67_3 1_555 1_555
H57_3 C68_3 1_555 1_555
O38_3 C82_3 1_555 1_555
C69_3 C64_3 1_555 1_555
H58_3 C69_3 1_555 1_555
O56_4 C102_3 1_555 1_555
C70_3 C67_3 1_555 1_555
O58_2 C102_3 1_555 1_555
C71_3 O28_3 1_555 1_555
H59_3 C71_3 1_555 1_555
H60_3 C71_3 1_555 1_555
C72_3 H61_3 1_555 1_555
C73_3 C72_3 1_555 1_555
H62_3 C73_3 1_555 1_555
C74_3 C73_3 1_555 1_555
C75_3 C74_3 1_555 1_555
H63_3 C75_3 1_555 1_555
C76_3 C63_3 1_555 1_555
H64_3 C76_3 1_555 1_555
C77_3 O29_3 1_555 1_555
C78_3 O31_3 1_555 1_555
H65_3 C78_3 1_555 1_555
H66_3 C78_3 1_555 1_555
C79_3 C78_3 1_555 1_555
C80_3 C79_3 1_555 1_555
H67_3 C80_3 1_555 1_555
H68_3 C80_3 1_555 1_555
C81_3 C79_3 1_555 1_555
H69_3 C81_3 1_555 1_555
H70_3 C81_3 1_555 1_555
C82_3 C79_3 1_555 1_555
H71_3 C82_3 1_555 1_555
H72_3 C82_3 1_555 1_555
C83_3 H73_3 1_555 1_555
C84_3 C86_3 1_555 1_555
C85_3 C83_3 1_555 1_555
H74_3 C85_3 1_555 1_555
C86_3 C85_3 1_555 1_555
C87_3 C86_3 1_555 1_555
H75_3 C87_3 1_555 1_555
C88_3 C87_3 1_555 1_555
H76_3 C88_3 1_555 1_555
C89_3 O35_3 1_555 1_555
C90_3 C89_3 1_555 1_555
H77_3 C90_3 1_555 1_555
C91_3 C90_3 1_555 1_555
H78_3 C91_3 1_555 1_555
C92_3 C91_3 1_555 1_555
C93_3 C92_3 1_555 1_555
H79_3 C93_3 1_555 1_555
C94_3 C89_3 1_555 1_555
H80_3 C94_3 1_555 1_555
C95_3 C92_3 1_555 1_555
C96_3 O38_3 1_555 1_555
C97_3 C96_3 1_555 1_555
H81_3 C97_3 1_555 1_555
C98_3 C97_3 1_555 1_555
H82_3 C98_3 1_555 1_555
C99_3 C98_3 1_555 1_555
C100_3 C99_3 1_555 1_555
H83_3 C100_3 1_555 1_555
C101_3 C96_3 1_555 1_555
H84_3 C101_3 1_555 1_555
C102_3 C99_3 1_555 1_555
C103_3 O33_3 1_555 1_555
C104_3 C53_3 1_555 1_555
Yb8 O22_2 1_555 1_555
O42_2 Yb8_2 1_555 1_555
O49_2 Yb8_2 1_555 1_555
C2_3 C52_3 1_555 1_555
C6_3 C52_3 1_555 1_555
C8_3 C19_3 1_555 1_555
C16_3 C17_3 1_555 1_555
C22_3 C25_3 1_555 1_555
C23_3 C24_3 1_555 1_555
C31_3 C51_3 1_555 1_555
C36_3 C51_3 1_555 1_555
C41_3 C42_3 1_555 1_555
C47_3 C50_3 1_555 1_555
C48_3 C49_3 1_555 1_555
C54_3 C104_3 1_555 1_555
C58_3 C104_3 1_555 1_555
C60_3 C71_3 1_555 1_555
O32_2 Yb8 1_555 1_555
C68_3 C69_3 1_555 1_555
C74_3 C77_3 1_555 1_555
C75_3 C76_3 1_555 1_555
C83_3 C103_3 1_555 1_555
C88_3 C103_3 1_555 1_555
C93_3 C94_3 1_555 1_555
C100_3 C101_3 1_555 1_555
O42_2 C53_4 1_555 1_555
C53_4 O43_4 1_555 1_555
C54_4 H45_4 1_555 1_555
O24_4 C56_4 1_555 1_555
C55_4 C54_4 1_555 1_555
H46_4 C55_4 1_555 1_555
O25_4 C61_4 1_555 1_555
C56_4 C55_4 1_555 1_555
O45 C70_4 1_555 1_555
C57_4 C56_4 1_555 1_555
H47_4 C57_4 1_555 1_555
O46_3 C70_4 1_555 1_555
C58_4 C57_4 1_555 1_555
H48_4 C58_4 1_555 1_555
O28_4 C63_4 1_555 1_555
C59_4 O24_4 1_555 1_555
H49_4 C59_4 1_555 1_555
H50_4 C59_4 1_555 1_555
C60_4 C59_4 1_555 1_555
C61_4 C60_4 1_555 1_555
H51_4 C61_4 1_555 1_555
H52_4 C61_4 1_555 1_555
O31_4 C62_4 1_555 1_555
C62_4 C60_4 1_555 1_555
H53_4 C62_4 1_555 1_555
H54_4 C62_4 1_555 1_555
O49_2 C84_4 1_555 1_555
C63_4 C72_4 1_555 1_555
O33_4 C80_4 1_555 1_555
C64_4 O25_4 1_555 1_555
O51_3 C84_4 1_555 1_555
C65_4 C64_4 1_555 1_555
H55_4 C65_4 1_555 1_555
C66_4 C65_4 1_555 1_555
H56_4 C66_4 1_555 1_555
C67_4 C66_4 1_555 1_555
C68_4 C67_4 1_555 1_555
H57_4 C68_4 1_555 1_555
C69_4 C64_4 1_555 1_555
H58_4 C69_4 1_555 1_555
C70_4 C67_4 1_555 1_555
C71_4 O28_4 1_555 1_555
H59_4 C71_4 1_555 1_555
H60_4 C71_4 1_555 1_555
C72_4 H61_4 1_555 1_555
C78_4 O31_4 1_555 1_555
H65_4 C78_4 1_555 1_555
H66_4 C78_4 1_555 1_555
H68_4 C80_4 1_555 1_555
C83_4 H73_4 1_555 1_555
C84_4 C86_4 1_555 1_555
C85_4 C83_4 1_555 1_555
H74_4 C85_4 1_555 1_555
C86_4 C85_4 1_555 1_555
C87_4 C86_4 1_555 1_555
H75_4 C87_4 1_555 1_555
C88_4 C87_4 1_555 1_555
H76_4 C88_4 1_555 1_555
C103_4 O33_4 1_555 1_555
C104_4 C53_4 1_555 1_555
C54_4 C104_4 1_555 1_555
C58_4 C104_4 1_555 1_555
C60_4 C71_4 1_555 1_555
C68_4 C69_4 1_555 1_555
C83_4 C103_4 1_555 1_555
C88_4 C103_4 1_555 1_555
Yb10 O21_4 1_555 1_555
O21_4 H43_4 1_555 1_555
H44_4 O21_4 1_555 1_555
O52 C43_4 1_555 1_555
H35_4 C38_4 1_555 1_555
C39_4 C38_4 1_555 1_555
H36_4 C39_4 1_555 1_555
O47_2 C77_4 1_555 1_555
O35_4 C81_4 1_555 1_555
O38_4 C82_4 1_555 1_555
O56_2 C102_4 1_555 1_555
O58 C102_4 1_555 1_555
H62_4 C73_4 1_555 1_555
C74_4 C73_4 1_555 1_555
C75_4 C74_4 1_555 1_555
H63_4 C75_4 1_555 1_555
H64_4 C76_4 1_555 1_555
C77_4 O29_4 1_555 1_555
C81_4 C79_4 1_555 1_555
H69_4 C81_4 1_555 1_555
H70_4 C81_4 1_555 1_555
C82_4 C79_4 1_555 1_555
H71_4 C82_4 1_555 1_555
H72_4 C82_4 1_555 1_555
C89_4 O35_4 1_555 1_555
C93_4 C92_4 1_555 1_555
H79_4 C93_4 1_555 1_555
C94_4 C89_4 1_555 1_555
H80_4 C94_4 1_555 1_555
C96_4 O38_4 1_555 1_555
C97_4 C96_4 1_555 1_555
H81_4 C97_4 1_555 1_555
C98_4 C97_4 1_555 1_555
H82_4 C98_4 1_555 1_555
C99_4 C98_4 1_555 1_555
C100_4 C99_4 1_555 1_555
H83_4 C100_4 1_555 1_555
C101_4 C96_4 1_555 1_555
H84_4 C101_4 1_555 1_555
C102_4 C99_4 1_555 1_555
C74_4 C77_4 1_555 1_555
C75_4 C76_4 1_555 1_555
C93_4 C94_4 1_555 1_555
C100_4 C101_4 1_555 1_555
O41_2 C1_4 1_555 1_555
C1_4 O43_3 1_555 1_555
C2_4 H3_4 1_555 1_555
O4_4 C4_4 1_555 1_555
C3_4 C2_4 1_555 1_555
H4_4 C3_4 1_555 1_555
O5_4 C9_4 1_555 1_555
C4_4 C3_4 1_555 1_555
O44 C18_4 1_555 1_555
C5_4 C4_4 1_555 1_555
H5_4 C5_4 1_555 1_555
O46_4 C18_4 1_555 1_555
C6_4 C5_4 1_555 1_555
H6_4 C6_4 1_555 1_555
O8_4 C11_4 1_555 1_555
C7_4 O4_4 1_555 1_555
H7_4 C7_4 1_555 1_555
H8_4 C7_4 1_555 1_555
C8_4 C7_4 1_555 1_555
C9_4 C8_4 1_555 1_555
H9_4 C9_4 1_555 1_555
H10_4 C9_4 1_555 1_555
O11_4 C10_4 1_555 1_555
C10_4 C8_4 1_555 1_555
H11_4 C10_4 1_555 1_555
H12_4 C10_4 1_555 1_555
O48_2 C32_4 1_555 1_555
C11_4 C20_4 1_555 1_555
O13_4 C28_4 1_555 1_555
C12_4 O5_4 1_555 1_555
O51_4 C32_4 1_555 1_555
C13_4 C12_4 1_555 1_555
H13_4 C13_4 1_555 1_555
C14_4 C13_4 1_555 1_555
H14_4 C14_4 1_555 1_555
C15_4 C14_4 1_555 1_555
C16_4 C15_4 1_555 1_555
H15_4 C16_4 1_555 1_555
C17_4 C12_4 1_555 1_555
H16_4 C17_4 1_555 1_555
C18_4 C15_4 1_555 1_555
C19_4 O8_4 1_555 1_555
H17_4 C19_4 1_555 1_555
H18_4 C19_4 1_555 1_555
C20_4 H19_4 1_555 1_555
C26_4 O11_4 1_555 1_555
H23_4 C26_4 1_555 1_555
H24_4 C26_4 1_555 1_555
H26_4 C28_4 1_555 1_555
C31_4 H31_4 1_555 1_555
C32_4 C34_4 1_555 1_555
C33_4 C31_4 1_555 1_555
H32_4 C33_4 1_555 1_555
C34_4 C33_4 1_555 1_555
C35_4 C34_4 1_555 1_555
H33_4 C35_4 1_555 1_555
C36_4 C35_4 1_555 1_555
H34_4 C36_4 1_555 1_555
C51_4 O13_4 1_555 1_555
C52_4 C1_4 1_555 1_555
C2_4 C52_4 1_555 1_555
C6_4 C52_4 1_555 1_555
C8_4 C19_4 1_555 1_555
C16_4 C17_4 1_555 1_555
C31_4 C51_4 1_555 1_555
C36_4 C51_4 1_555 1_555
Yb8 O1_4 1_555 1_555
O1_4 H1_4 1_555 1_555
H2_4 O1_4 1_555 1_555
O9_4 Yb8 1_555 1_555
O47 C25_4 1_555 1_555
O15_4 C29_4 1_555 1_555
O18_4 C30_4 1_555 1_555
O57 C50_4 1_555 1_555
H20_4 C21_4 1_555 1_555
C22_4 C21_4 1_555 1_555
C23_4 C22_4 1_555 1_555
H21_4 C23_4 1_555 1_555
H22_4 C24_4 1_555 1_555
C25_4 O9_4 1_555 1_555
C29_4 C27_4 1_555 1_555
H27_4 C29_4 1_555 1_555
H28_4 C29_4 1_555 1_555
C30_4 C27_4 1_555 1_555
H29_4 C30_4 1_555 1_555
H30_4 C30_4 1_555 1_555
C37_4 O15_4 1_555 1_555
C41_4 C40_4 1_555 1_555
H37_4 C41_4 1_555 1_555
C42_4 C37_4 1_555 1_555
H38_4 C42_4 1_555 1_555
C44_4 O18_4 1_555 1_555
C45_4 C44_4 1_555 1_555
H39_4 C45_4 1_555 1_555
C46_4 C45_4 1_555 1_555
H40_4 C46_4 1_555 1_555
C47_4 C46_4 1_555 1_555
C48_4 C47_4 1_555 1_555
H41_4 C48_4 1_555 1_555
C49_4 C44_4 1_555 1_555
H42_4 C49_4 1_555 1_555
C50_4 O56 1_555 1_555
O53 C95_4 1_555 1_555
H77_4 C90_4 1_555 1_555
C91_4 C90_4 1_555 1_555
H78_4 C91_4 1_555 1_555
C22_4 C25_4 1_555 1_555
C23_4 C24_4 1_555 1_555
C41_4 C42_4 1_555 1_555
C47_4 C50_4 1_555 1_555
C48_4 C49_4 1_555 1_555

#END
