
###############################################################################
#
# This file contains modified crystal structure data generated from the
# MOF subset of the Cambridge Structural Database (CSD) v543 
# hosted by the Cambridge Crystallographic Data Centre (CCDC).
#
# This work is licensed under the Creative Commons
# Attribution-NonCommercial-ShareAlike 4.0 International License.
# To view a copy of this license, visit
# http://creativecommons.org/licenses/by-nc-sa/4.0/
# or send a letter to
# Creative Commons, PO Box 1866, Mountain View, CA 94042, USA.
#
# CIF created using the CSD Python API on 29 September 2022
# The structure has been converted into the P1 space group
# The structure has a 3D framework
# The original CSD entry ESIBAM is in the monoclinic crystal system
# The framework has been calculated to contain at least 10.0% void space
# The void calculation uses a probe of radius 1.32A, grid spacing 0.4
#
###############################################################################

data_ESIBAM
_chemical_formula_moiety         '(C440 H376 Er13 N8 O152)n'
_symmetry_cell_setting           triclinic
_symmetry_space_group_name_H-M   'P 1'
_symmetry_Int_Tables_number      1
_space_group_name_Hall           'P 1'
loop_
_symmetry_equiv_pos_site_id
_symmetry_equiv_pos_as_xyz
1 x,y,z
_cell_length_a                   30.5558(14)
_cell_length_b                   20.7576(7)
_cell_length_c                   27.2281(12)
_cell_angle_alpha                90
_cell_angle_beta                 107.635(3)
_cell_angle_gamma                90
_cell_volume                     16458.3
loop_
_atom_site_label
_atom_site_type_symbol
_atom_site_fract_x
_atom_site_fract_y
_atom_site_fract_z
Er14 Er 0.500000 0.000000 0.000000
Er16 Er 0.500000 -0.000000 0.500000
Er14_2 Er 0.500000 -0.000000 1.000000
Er1 Er 0.86440(3) 0.60913(3) 0.51619(3)
O1 O 0.8143(5) 0.5688(7) 0.5583(6)
N1 N 0.7715(8) 0.5264(11) 0.6062(9)
C1 C 0.7664(11) 0.5198(16) 0.6609(11)
H1 H 0.795684 0.505769 0.684970
H2 H 0.742587 0.487911 0.660241
H3 H 0.757728 0.561524 0.671937
C2 C 0.7482(10) 0.4844(14) 0.5655(11)
H4 H 0.770339 0.464717 0.550511
H5 H 0.725439 0.508913 0.538906
H6 H 0.732572 0.450565 0.578983
C3 C 0.8076(9) 0.5709(12) 0.5998(11)
H7 H 0.824262 0.598959 0.626524
O2 O 0.6260(3) 0.0693(4) 0.0577(4)
Er2 Er 0.750000 0.750000 0.500000
C4 C 0.5930(5) 0.0659(7) 0.0763(6)
O3 O 0.5628(3) 0.0240(4) 0.0644(4)
C5 C 0.6250(5) 0.1619(6) 0.1326(5)
H8 H 0.650522 0.162161 0.119485
O4 O 0.5776(3) 0.2548(4) 0.2183(4)
C6 C 0.6218(5) 0.2076(6) 0.1672(5)
H9 H 0.645728 0.238281 0.179090
O5 O 0.6166(4) 0.2508(4) 0.3366(4)
C7 C 0.5836(6) 0.2102(7) 0.1854(6)
C8 C 0.5523(6) 0.1623(6) 0.1715(6)
H10 H 0.527625 0.161420 0.185877
O7 O 0.5431(4) 0.0287(4) 0.4503(4)
C9 C 0.5549(5) 0.1150(7) 0.1373(6)
H11 H 0.531980 0.082443 0.127968
O8 O 0.6267(4) 0.4193(4) 0.3442(4)
C10 C 0.6124(5) 0.3002(6) 0.2396(6)
H12 H 0.616466 0.328784 0.212144
H13 H 0.641894 0.277835 0.255842
O9 O 0.7930(4) 0.5989(5) 0.4617(5)
C11 C 0.5986(5) 0.3403(6) 0.2802(6)
O10 O 0.7363(3) 0.6474(4) 0.4804(4)
C12 C 0.5813(5) 0.2968(6) 0.3154(6)
H14 H 0.575002 0.322434 0.343150
H15 H 0.552654 0.274846 0.295554
O11 O 0.5774(3) 0.4328(4) 0.2269(4)
C13 C 0.5595(5) 0.3851(6) 0.2542(5)
H16 H 0.534157 0.360844 0.229847
H17 H 0.547486 0.406045 0.280144
O12 O 0.6380(3) 0.2075(4) 0.0204(4)
C14 C 0.6602(6) 0.4621(7) 0.3728(6)
O13 O 0.5726(3) 0.4553(4) 0.1132(4)
C15 C 0.6069(6) 0.1998(7) 0.3629(6)
O14 O 0.7037(3) 0.2591(4) 0.0502(4)
C16 C 0.6353(6) 0.1462(7) 0.3694(6)
H18 H 0.660725 0.146342 0.356211
O15 O 0.5589(4) 0.6214(4) 0.1236(4)
C17 C 0.6266(6) 0.0933(7) 0.3946(6)
H19 H 0.646369 0.057055 0.398785
O16 O 0.4402(3) 0.8694(4) 0.0308(4)
C18 C 0.5895(6) 0.0909(6) 0.4145(6)
O17 O 0.5080(3) 0.8968(4) 0.0280(4)
C19 C 0.5628(6) 0.1447(7) 0.4110(6)
H20 H 0.538765 0.144698 0.426422
O18 O 0.5724(3) 0.6068(5) 0.2457(4)
C20 C 0.5705(6) 0.2004(7) 0.3845(6)
H21 H 0.551437 0.237291 0.381480
O19 O 0.6899(3) 0.7762(4) 0.4337(4)
C21 C 0.5815(6) 0.0322(7) 0.4410(6)
O20 O 0.6233(4) 0.8261(5) 0.4123(4)
C22 C 0.6419(5) 0.3767(6) 0.3101(6)
H22 H 0.665760 0.346568 0.330195
H23 H 0.654444 0.401675 0.286482
C23 C 0.7034(5) 0.4634(7) 0.3695(6)
H24 H 0.712703 0.434863 0.347228
C24 C 0.7347(6) 0.5093(7) 0.4006(6)
H25 H 0.765873 0.510196 0.400844
C25 C 0.7190(5) 0.5521(6) 0.4301(6)
C26 C 0.6736(5) 0.5519(6) 0.4293(6)
H26 H 0.662868 0.583452 0.448171
C27 C 0.6440(6) 0.5065(7) 0.4015(6)
H27 H 0.612972 0.505177 0.401663
C28 C 0.7520(6) 0.6036(7) 0.4600(7)
C29 C 0.5444(5) 0.4779(6) 0.1984(6)
H28 H 0.527641 0.497177 0.220804
H29 H 0.521841 0.456190 0.169183
C30 C 0.5693(5) 0.5294(6) 0.1789(6)
C31 C 0.6018(5) 0.4988(6) 0.1515(6)
H30 H 0.615426 0.532281 0.134725
H31 H 0.626901 0.474699 0.176321
C32 C 0.5344(5) 0.5742(6) 0.1428(6)
H32 H 0.513860 0.549306 0.113955
H33 H 0.515337 0.595477 0.161759
C33 C 0.6009(5) 0.5687(6) 0.2231(6)
H34 H 0.620742 0.539643 0.249277
H35 H 0.620727 0.597236 0.209881
C34 C 0.5725(5) 0.3524(6) 0.0752(6)
H36 H 0.540814 0.348779 0.072395
C35 C 0.6613(5) 0.2551(6) 0.0409(5)
C36 C 0.5926(5) 0.3039(6) 0.0590(6)
H37 H 0.575401 0.266008 0.046363
C37 C 0.6382(5) 0.3071(6) 0.0599(6)
C38 C 0.6622(5) 0.3646(6) 0.0793(6)
H38 H 0.693005 0.369115 0.078893
C39 C 0.6424(5) 0.4142(6) 0.0986(6)
H39 H 0.659802 0.451225 0.113103
C40 C 0.5371(6) 0.6763(6) 0.1008(6)
C41 C 0.4914(6) 0.6872(6) 0.0899(6)
H40 H 0.472250 0.654547 0.096762
C42 C 0.4719(6) 0.7466(6) 0.0685(6)
H41 H 0.439911 0.754260 0.060908
C43 C 0.5005(6) 0.7929(6) 0.0590(6)
C44 C 0.5459(6) 0.7801(7) 0.0686(7)
H42 H 0.565067 0.812070 0.060786
C45 C 0.5655(6) 0.7215(7) 0.0897(7)
H43 H 0.597336 0.713255 0.096112
C46 C 0.4811(5) 0.8578(6) 0.0369(6)
C47 C 0.5941(5) 0.6454(7) 0.2840(6)
C48 C 0.6395(5) 0.6456(7) 0.3114(6)
H44 H 0.659158 0.615279 0.302585
C49 C 0.6582(6) 0.6879(7) 0.3516(6)
H45 H 0.689724 0.684981 0.370822
C50 C 0.6303(5) 0.7352(7) 0.3637(6)
C51 C 0.5853(6) 0.7361(8) 0.3375(6)
H46 H 0.566079 0.768010 0.345186
C52 C 0.5661(6) 0.6899(8) 0.2983(6)
H47 H 0.533916 0.689313 0.281785
C53 C 0.6498(5) 0.7815(7) 0.4056(6)
C54 C 0.5958(5) 0.4090(6) 0.0963(6)
C55 C 0.5912(5) 0.1147(7) 0.1164(6)
O22 O 0.3740(3) 0.0693(4) 0.4423(4)
C59 C 0.4070(5) 0.0659(7) 0.4237(6)
O23 O 0.4372(3) 0.0240(4) 0.4356(4)
C60 C 0.3750(5) 0.1619(6) 0.3674(5)
H55 H 0.349478 0.162161 0.380515
O24 O 0.4224(3) 0.2548(4) 0.2817(4)
C61 C 0.3782(5) 0.2076(6) 0.3328(5)
H56 H 0.354272 0.238281 0.320910
O25 O 0.3834(4) 0.2508(4) 0.1634(4)
C62 C 0.4164(6) 0.2102(7) 0.3146(6)
C63 C 0.4477(6) 0.1623(6) 0.3285(6)
H57 H 0.472375 0.161420 0.314123
O27 O 0.4569(4) 0.0287(4) 0.0497(4)
C64 C 0.4451(5) 0.1150(7) 0.3627(6)
H58 H 0.468020 0.082443 0.372032
O28 O 0.3733(4) 0.4193(4) 0.1558(4)
C65 C 0.3876(5) 0.3002(6) 0.2604(6)
H59 H 0.383534 0.328784 0.287856
H60 H 0.358106 0.277835 0.244158
O29 O 0.2070(4) 0.5989(5) 0.0383(5)
C66 C 0.4014(5) 0.3403(6) 0.2198(6)
O30 O 0.2637(3) 0.6474(4) 0.0196(4)
C67 C 0.4187(5) 0.2968(6) 0.1846(6)
H61 H 0.424998 0.322434 0.156850
H62 H 0.447346 0.274846 0.204446
O31 O 0.4226(3) 0.4328(4) 0.2731(4)
C68 C 0.4405(5) 0.3851(6) 0.2458(5)
H63 H 0.465843 0.360844 0.270153
H64 H 0.452514 0.406045 0.219856
O32 O 0.3620(3) 0.2075(4) 0.4796(4)
C69 C 0.3398(6) 0.4621(7) 0.1272(6)
O33 O 0.4274(3) 0.4553(4) 0.3868(4)
C70 C 0.3931(6) 0.1998(7) 0.1371(6)
O34 O 0.2963(3) 0.2591(4) 0.4498(4)
C71 C 0.3647(6) 0.1462(7) 0.1306(6)
H65 H 0.339275 0.146342 0.143789
O35 O 0.4411(4) 0.6214(4) 0.3764(4)
C72 C 0.3734(6) 0.0933(7) 0.1054(6)
H66 H 0.353631 0.057055 0.101215
O36 O 0.5598(3) 0.8694(4) 0.4692(4)
C73 C 0.4105(6) 0.0909(6) 0.0855(6)
O37 O 0.4920(3) 0.8968(4) 0.4720(4)
C74 C 0.4372(6) 0.1447(7) 0.0890(6)
H67 H 0.461235 0.144698 0.073578
O38 O 0.4276(3) 0.6068(5) 0.2543(4)
C75 C 0.4295(6) 0.2004(7) 0.1155(6)
H68 H 0.448563 0.237291 0.118520
O39 O 0.3101(3) 0.7762(4) 0.0663(4)
C76 C 0.4185(6) 0.0322(7) 0.0590(6)
O40 O 0.3767(4) 0.8261(5) 0.0877(4)
C77 C 0.3581(5) 0.3767(6) 0.1899(6)
H69 H 0.334240 0.346568 0.169805
H70 H 0.345556 0.401675 0.213518
C78 C 0.2966(5) 0.4634(7) 0.1305(6)
H71 H 0.287297 0.434863 0.152772
C79 C 0.2653(6) 0.5093(7) 0.0994(6)
H72 H 0.234127 0.510196 0.099156
C80 C 0.2810(5) 0.5521(6) 0.0699(6)
C81 C 0.3264(5) 0.5519(6) 0.0707(6)
H73 H 0.337132 0.583452 0.051829
C82 C 0.3560(6) 0.5065(7) 0.0985(6)
H74 H 0.387028 0.505177 0.098337
C83 C 0.2480(6) 0.6036(7) 0.0400(7)
C84 C 0.4556(5) 0.4779(6) 0.3016(6)
H75 H 0.472359 0.497177 0.279196
H76 H 0.478159 0.456190 0.330817
C85 C 0.4307(5) 0.5294(6) 0.3211(6)
C86 C 0.3982(5) 0.4988(6) 0.3485(6)
H77 H 0.384574 0.532281 0.365275
H78 H 0.373099 0.474699 0.323679
C87 C 0.4656(5) 0.5742(6) 0.3572(6)
H79 H 0.486140 0.549306 0.386045
H80 H 0.484663 0.595477 0.338241
C88 C 0.3991(5) 0.5687(6) 0.2769(6)
H81 H 0.379258 0.539643 0.250723
H82 H 0.379273 0.597236 0.290119
C89 C 0.4275(5) 0.3524(6) 0.4248(6)
H83 H 0.459186 0.348779 0.427605
C90 C 0.3387(5) 0.2551(6) 0.4591(5)
C91 C 0.4074(5) 0.3039(6) 0.4410(6)
H84 H 0.424599 0.266008 0.453637
C92 C 0.3618(5) 0.3071(6) 0.4401(6)
C93 C 0.3378(5) 0.3646(6) 0.4207(6)
H85 H 0.306995 0.369115 0.421107
C94 C 0.3576(5) 0.4142(6) 0.4014(6)
H86 H 0.340198 0.451225 0.386897
C95 C 0.4629(6) 0.6763(6) 0.3992(6)
C96 C 0.5086(6) 0.6872(6) 0.4101(6)
H87 H 0.527750 0.654547 0.403238
C97 C 0.5281(6) 0.7466(6) 0.4315(6)
H88 H 0.560089 0.754260 0.439092
C98 C 0.4995(6) 0.7929(6) 0.4410(6)
C99 C 0.4541(6) 0.7801(7) 0.4314(7)
H89 H 0.434933 0.812070 0.439214
C100 C 0.4345(6) 0.7215(7) 0.4103(7)
H90 H 0.402664 0.713255 0.403888
C101 C 0.5189(5) 0.8578(6) 0.4631(6)
C102 C 0.4059(5) 0.6454(7) 0.2160(6)
C103 C 0.3605(5) 0.6456(7) 0.1886(6)
H91 H 0.340842 0.615279 0.197415
C104 C 0.3418(6) 0.6879(7) 0.1484(6)
H92 H 0.310276 0.684981 0.129178
C105 C 0.3697(5) 0.7352(7) 0.1363(6)
C106 C 0.4147(6) 0.7361(8) 0.1625(6)
H93 H 0.433921 0.768010 0.154814
C107 C 0.4339(6) 0.6899(8) 0.2017(6)
H94 H 0.466084 0.689313 0.218215
C108 C 0.3502(5) 0.7815(7) 0.0944(6)
C109 C 0.4042(5) 0.4090(6) 0.4037(6)
C110 C 0.4088(5) 0.1147(7) 0.3836(6)
Er5 Er 0.36440(3) 0.10913(3) 0.51619(3)
Er8 Er 0.63560(3) 0.89087(3) 0.48381(3)
Er10 Er 0.36440(3) 0.89087(3) 0.01619(3)
O41 O 0.1260(3) 0.5693(4) 0.0577(4)
O42 O 0.8740(3) 0.5693(4) 0.4423(4)
Er11 Er 0.250000 0.750000 0.000000
Er12 Er 0.250000 0.250000 0.500000
Er13 Er 0.750000 0.250000 0.000000
Er14_3 Er 0.500000 1.000000 0.000000
Er16_2 Er 0.500000 1.000000 0.500000
O44 O 0.8905(4) 0.5132(4) 0.5516(4)
O47 O 0.7637(3) 0.8526(4) 0.5196(4)
O48 O 0.1380(3) 0.7075(4) 0.0204(4)
O49 O 0.8620(3) 0.7075(4) 0.4796(4)
O50 O 0.7963(3) 0.7591(4) 0.4498(4)
O51 O 0.7037(3) 0.7409(4) 0.5502(4)
O53 O 0.9402(3) 0.6306(4) 0.5308(4)
O56 O 0.8101(3) 0.7238(4) 0.5663(4)
O57 O 0.8767(4) 0.6739(5) 0.5877(4)
Er4 Er 0.13560(3) 0.60913(3) 0.98381(3)
O21 O 0.1857(5) 0.5688(7) 0.9417(6)
N2 N 0.2285(8) 0.5264(11) 0.8938(9)
C56 C 0.2336(11) 0.5198(16) 0.8391(11)
H48 H 0.204316 0.505769 0.815030
H49 H 0.257413 0.487911 0.839759
H50 H 0.242272 0.561524 0.828063
C57 C 0.2518(10) 0.4844(14) 0.9345(11)
H51 H 0.229661 0.464717 0.949489
H52 H 0.274561 0.508913 0.961094
H53 H 0.267428 0.450565 0.921017
C58 C 0.1924(9) 0.5709(12) 0.9002(11)
H54 H 0.175738 0.598959 0.873476
Er6 Er 0.63560(3) 0.10913(3) 0.98381(3)
Er11_2 Er 0.250000 0.750000 1.000000
Er13_2 Er 0.750000 0.250000 1.000000
Er14_4 Er 0.500000 1.000000 1.000000
O45 O 0.1095(4) 0.5132(4) 0.9484(4)
O52 O 0.0598(3) 0.6306(4) 0.9692(4)
O55 O 0.4920(3) 0.1032(4) 0.9720(4)
O58 O 0.1233(4) 0.6739(5) 0.9123(4)
O6 O 0.6095(4) 0.9868(4) 0.4484(4)
O26 O 0.3905(4) 0.9868(4) 0.0516(4)
O43 O 0.4372(3) 0.9760(4) 0.9356(4)
O46 O 0.5431(4) 0.9713(4) 0.9503(4)
O50_2 O 0.2037(3) 0.7591(4) 0.0502(4)
O55_2 O 0.5080(3) 0.1032(4) 0.5280(4)
O47_2 O 0.2363(3) 0.8526(4) 0.9804(4)
O51_2 O 0.2963(3) 0.7409(4) 0.9498(4)
O56_2 O 0.1899(3) 0.7238(4) 0.9337(4)
O43_2 O 0.5628(3) 0.9760(4) 0.5644(4)
O46_2 O 0.4569(4) 0.9713(4) 0.5497(4)
O1_2 O 0.3143(5) 0.0688(7) 0.5583(6)
N1_2 N 0.2715(8) 0.0264(11) 0.6062(9)
C1_2 C 0.2664(11) 0.0198(16) 0.6609(11)
H1_2 H 0.295684 0.005769 0.684970
H3_2 H 0.257728 0.061524 0.671937
H5_2 H 0.225439 0.008913 0.538906
C3_2 C 0.3076(9) 0.0709(12) 0.5998(11)
H7_2 H 0.324262 0.098959 0.626524
O9_2 O 0.2930(4) 0.0989(5) 0.4617(5)
O10_2 O 0.2363(3) 0.1474(4) 0.4804(4)
O15_2 O 0.0589(4) 0.1214(4) 0.1236(4)
O17_2 O 0.0080(3) 0.3968(4) 0.0280(4)
O18_2 O 0.0724(3) 0.1068(5) 0.2457(4)
O19_2 O 0.1899(3) 0.2762(4) 0.4337(4)
O20_2 O 0.1233(4) 0.3261(5) 0.4123(4)
C24_2 C 0.2347(6) 0.0093(7) 0.4006(6)
H25_2 H 0.265873 0.010196 0.400844
C25_2 C 0.2190(5) 0.0521(6) 0.4301(6)
C26_2 C 0.1736(5) 0.0519(6) 0.4293(6)
H26_2 H 0.162868 0.083452 0.448171
C27_2 C 0.1440(6) 0.0065(7) 0.4015(6)
H27_2 H 0.112972 0.005177 0.401663
C28_2 C 0.2520(6) 0.1036(7) 0.4600(7)
C30_2 C 0.0693(5) 0.0294(6) 0.1789(6)
H30_2 H 0.115426 0.032281 0.134725
C32_2 C 0.0344(5) 0.0742(6) 0.1428(6)
H32_2 H 0.013860 0.049306 0.113955
H33_2 H 0.015337 0.095477 0.161759
C33_2 C 0.1009(5) 0.0687(6) 0.2231(6)
H34_2 H 0.120742 0.039643 0.249277
H35_2 H 0.120727 0.097236 0.209881
C40_2 C 0.0371(6) 0.1763(6) 0.1008(6)
C43_2 C 0.0005(6) 0.2929(6) 0.0590(6)
C44_2 C 0.0459(6) 0.2801(7) 0.0686(7)
H42_2 H 0.065067 0.312070 0.060786
C45_2 C 0.0655(6) 0.2215(7) 0.0897(7)
H43_2 H 0.097336 0.213255 0.096112
C47_2 C 0.0941(5) 0.1454(7) 0.2840(6)
C48_2 C 0.1395(5) 0.1456(7) 0.3114(6)
H44_2 H 0.159158 0.115279 0.302585
C49_2 C 0.1582(6) 0.1879(7) 0.3516(6)
H45_2 H 0.189724 0.184981 0.370822
C50_2 C 0.1303(5) 0.2352(7) 0.3637(6)
C51_2 C 0.0853(6) 0.2361(8) 0.3375(6)
H46_2 H 0.066079 0.268010 0.345186
C52_2 C 0.0661(6) 0.1899(8) 0.2983(6)
H47_2 H 0.033916 0.189313 0.281785
C53_2 C 0.1498(5) 0.2815(7) 0.4056(6)
O36_2 O 0.0598(3) 0.3694(4) 0.4692(4)
C96_2 C 0.0086(6) 0.1872(6) 0.4101(6)
H87_2 H 0.027750 0.154547 0.403238
C97_2 C 0.0281(6) 0.2466(6) 0.4315(6)
H88_2 H 0.060089 0.254260 0.439092
C101_2 C 0.0189(5) 0.3578(6) 0.4631(6)
Er8_2 Er 0.13560(3) 0.39087(3) 0.48381(3)
Er14_5 Er -0.000000 0.500000 0.000000
Er16_3 Er 0.000000 0.500000 0.500000
O44_2 O 0.3905(4) 0.0132(4) 0.5516(4)
O47_3 O 0.2637(3) 0.3526(4) 0.5196(4)
O51_3 O 0.2037(3) 0.2409(4) 0.5502(4)
O53_2 O 0.4402(3) 0.1306(4) 0.5308(4)
O56_3 O 0.3101(3) 0.2238(4) 0.5663(4)
O57_2 O 0.3767(4) 0.1739(5) 0.5877(4)
Er14_6 Er -0.000000 0.500000 1.000000
H2_2 H 0.242587 0.987911 0.660241
C2_2 C 0.2482(10) 0.9844(14) 0.5655(11)
H4_2 H 0.270339 0.964717 0.550511
H6_2 H 0.232572 0.950565 0.578983
C4_2 C 0.0930(5) 0.5659(7) 0.0763(6)
O3_2 O 0.0628(3) 0.5240(4) 0.0644(4)
C5_2 C 0.1250(5) 0.6619(6) 0.1326(5)
H8_2 H 0.150522 0.662161 0.119485
O4_2 O 0.0776(3) 0.7548(4) 0.2183(4)
C6_2 C 0.1218(5) 0.7076(6) 0.1672(5)
H9_2 H 0.145728 0.738281 0.179090
O5_2 O 0.1166(4) 0.7508(4) 0.3366(4)
C7_2 C 0.0836(6) 0.7102(7) 0.1854(6)
O6_2 O 0.1095(4) 0.4868(4) 0.4484(4)
C8_2 C 0.0523(6) 0.6623(6) 0.1715(6)
H10_2 H 0.027625 0.661420 0.185877
O7_2 O 0.0431(4) 0.5287(4) 0.4503(4)
C9_2 C 0.0549(5) 0.6150(7) 0.1373(6)
H11_2 H 0.031980 0.582443 0.127968
O8_2 O 0.1267(4) 0.9193(4) 0.3442(4)
C10_2 C 0.1124(5) 0.8002(6) 0.2396(6)
H12_2 H 0.116466 0.828784 0.212144
H13_2 H 0.141894 0.777835 0.255842
C11_2 C 0.0986(5) 0.8403(6) 0.2802(6)
C12_2 C 0.0813(5) 0.7968(6) 0.3154(6)
H14_2 H 0.075002 0.822434 0.343150
H15_2 H 0.052654 0.774846 0.295554
O11_2 O 0.0774(3) 0.9328(4) 0.2269(4)
C13_2 C 0.0595(5) 0.8851(6) 0.2542(5)
H16_2 H 0.034157 0.860844 0.229847
H17_2 H 0.047486 0.906045 0.280144
C14_2 C 0.1602(6) 0.9621(7) 0.3728(6)
O13_2 O 0.0726(3) 0.9553(4) 0.1132(4)
C15_2 C 0.1069(6) 0.6998(7) 0.3629(6)
C16_2 C 0.1353(6) 0.6462(7) 0.3694(6)
H18_2 H 0.160725 0.646342 0.356211
C17_2 C 0.1266(6) 0.5933(7) 0.3946(6)
H19_2 H 0.146369 0.557055 0.398785
C18_2 C 0.0895(6) 0.5909(6) 0.4145(6)
C19_2 C 0.0628(6) 0.6447(7) 0.4110(6)
H20_2 H 0.038765 0.644698 0.426422
C20_2 C 0.0705(6) 0.7004(7) 0.3845(6)
H21_2 H 0.051437 0.737291 0.381480
C21_2 C 0.0815(6) 0.5322(7) 0.4410(6)
C22_2 C 0.1419(5) 0.8767(6) 0.3101(6)
H22_2 H 0.165760 0.846568 0.330195
H23_2 H 0.154444 0.901675 0.286482
C23_2 C 0.2034(5) 0.9634(7) 0.3695(6)
H24_2 H 0.212703 0.934863 0.347228
C29_2 C 0.0444(5) 0.9779(6) 0.1984(6)
H28_2 H 0.027641 0.997177 0.220804
H29_2 H 0.021841 0.956190 0.169183
C31_2 C 0.1018(5) 0.9988(6) 0.1515(6)
H31_2 H 0.126901 0.974699 0.176321
C34_2 C 0.0725(5) 0.8524(6) 0.0752(6)
H36_2 H 0.040814 0.848779 0.072395
C35_2 C 0.1613(5) 0.7551(6) 0.0409(5)
C36_2 C 0.0926(5) 0.8039(6) 0.0590(6)
H37_2 H 0.075401 0.766008 0.046363
C37_2 C 0.1382(5) 0.8071(6) 0.0599(6)
C38_2 C 0.1622(5) 0.8646(6) 0.0793(6)
H38_2 H 0.193005 0.869115 0.078893
C39_2 C 0.1424(5) 0.9142(6) 0.0986(6)
H39_2 H 0.159802 0.951225 0.113103
C54_2 C 0.0958(5) 0.9090(6) 0.0963(6)
C55_2 C 0.0912(5) 0.6147(7) 0.1164(6)
O46_3 O 0.0431(4) 0.4713(4) 0.9503(4)
O16_2 O 0.9402(3) 0.3694(4) 0.0308(4)
C41_2 C 0.9914(6) 0.1872(6) 0.0899(6)
H40_2 H 0.972250 0.154547 0.096762
C42_2 C 0.9719(6) 0.2466(6) 0.0685(6)
H41_2 H 0.939911 0.254260 0.060908
C46_2 C 0.9811(5) 0.3578(6) 0.0369(6)
O29_2 O 0.7070(4) 0.0989(5) 0.0383(5)
O30_2 O 0.7637(3) 0.1474(4) 0.0196(4)
O35_2 O 0.9411(4) 0.1214(4) 0.3764(4)
O37_2 O 0.9920(3) 0.3968(4) 0.4720(4)
O38_2 O 0.9276(3) 0.1068(5) 0.2543(4)
O39_2 O 0.8101(3) 0.2762(4) 0.0663(4)
O40_2 O 0.8767(4) 0.3261(5) 0.0877(4)
C79_2 C 0.7653(6) 0.0093(7) 0.0994(6)
H72_2 H 0.734127 0.010196 0.099156
C80_2 C 0.7810(5) 0.0521(6) 0.0699(6)
C81_2 C 0.8264(5) 0.0519(6) 0.0707(6)
H73_2 H 0.837132 0.083452 0.051829
C82_2 C 0.8560(6) 0.0065(7) 0.0985(6)
H74_2 H 0.887028 0.005177 0.098337
C83_2 C 0.7480(6) 0.1036(7) 0.0400(7)
C85_2 C 0.9307(5) 0.0294(6) 0.3211(6)
H77_2 H 0.884574 0.032281 0.365275
C87_2 C 0.9656(5) 0.0742(6) 0.3572(6)
H79_2 H 0.986140 0.049306 0.386045
H80_2 H 0.984663 0.095477 0.338241
C88_2 C 0.8991(5) 0.0687(6) 0.2769(6)
H81_2 H 0.879258 0.039643 0.250723
H82_2 H 0.879273 0.097236 0.290119
C95_2 C 0.9629(6) 0.1763(6) 0.3992(6)
C98_2 C 0.9995(6) 0.2929(6) 0.4410(6)
C99_2 C 0.9541(6) 0.2801(7) 0.4314(7)
H89_2 H 0.934933 0.312070 0.439214
C100_2 C 0.9345(6) 0.2215(7) 0.4103(7)
H90_2 H 0.902664 0.213255 0.403888
C102_2 C 0.9059(5) 0.1454(7) 0.2160(6)
C103_2 C 0.8605(5) 0.1456(7) 0.1886(6)
H91_2 H 0.840842 0.115279 0.197415
C104_2 C 0.8418(6) 0.1879(7) 0.1484(6)
H92_2 H 0.810276 0.184981 0.129178
C105_2 C 0.8697(5) 0.2352(7) 0.1363(6)
C106_2 C 0.9147(6) 0.2361(8) 0.1625(6)
H93_2 H 0.933921 0.268010 0.154814
C107_2 C 0.9339(6) 0.1899(8) 0.2017(6)
H94_2 H 0.966084 0.189313 0.218215
C108_2 C 0.8502(5) 0.2815(7) 0.0944(6)
Er10_2 Er 0.86440(3) 0.39087(3) 0.01619(3)
Er14_7 Er 1.000000 0.500000 0.000000
Er16_4 Er 1.000000 0.500000 0.500000
O21_2 O 0.6857(5) 0.0688(7) 0.9417(6)
N2_2 N 0.7285(8) 0.0264(11) 0.8938(9)
C56_2 C 0.7336(11) 0.0198(16) 0.8391(11)
H48_2 H 0.704316 0.005769 0.815030
H50_2 H 0.742272 0.061524 0.828063
H52_2 H 0.774561 0.008913 0.961094
C58_2 C 0.6924(9) 0.0709(12) 0.9002(11)
H54_2 H 0.675738 0.098959 0.873476
Er14_8 Er 1.000000 0.500000 1.000000
O45_2 O 0.6095(4) 0.0132(4) 0.9484(4)
O52_2 O 0.5598(3) 0.1306(4) 0.9692(4)
O58_2 O 0.6233(4) 0.1739(5) 0.9123(4)
C59_2 C 0.9070(5) 0.5659(7) 0.4237(6)
O23_2 O 0.9372(3) 0.5240(4) 0.4356(4)
C60_2 C 0.8750(5) 0.6619(6) 0.3674(5)
H55_2 H 0.849478 0.662161 0.380515
O24_2 O 0.9224(3) 0.7548(4) 0.2817(4)
C61_2 C 0.8782(5) 0.7076(6) 0.3328(5)
H56_2 H 0.854272 0.738281 0.320910
O25_2 O 0.8834(4) 0.7508(4) 0.1634(4)
C62_2 C 0.9164(6) 0.7102(7) 0.3146(6)
O26_2 O 0.8905(4) 0.4868(4) 0.0516(4)
C63_2 C 0.9477(6) 0.6623(6) 0.3285(6)
H57_2 H 0.972375 0.661420 0.314123
O27_2 O 0.9569(4) 0.5287(4) 0.0497(4)
C64_2 C 0.9451(5) 0.6150(7) 0.3627(6)
H58_2 H 0.968020 0.582443 0.372032
O28_2 O 0.8733(4) 0.9193(4) 0.1558(4)
C65_2 C 0.8876(5) 0.8002(6) 0.2604(6)
H59_2 H 0.883534 0.828784 0.287856
H60_2 H 0.858106 0.777835 0.244158
C66_2 C 0.9014(5) 0.8403(6) 0.2198(6)
C67_2 C 0.9187(5) 0.7968(6) 0.1846(6)
H61_2 H 0.924998 0.822434 0.156850
H62_2 H 0.947346 0.774846 0.204446
O31_2 O 0.9226(3) 0.9328(4) 0.2731(4)
C68_2 C 0.9405(5) 0.8851(6) 0.2458(5)
H63_2 H 0.965843 0.860844 0.270153
H64_2 H 0.952514 0.906045 0.219856
C69_2 C 0.8398(6) 0.9621(7) 0.1272(6)
O33_2 O 0.9274(3) 0.9553(4) 0.3868(4)
C70_2 C 0.8931(6) 0.6998(7) 0.1371(6)
C71_2 C 0.8647(6) 0.6462(7) 0.1306(6)
H65_2 H 0.839275 0.646342 0.143789
C72_2 C 0.8734(6) 0.5933(7) 0.1054(6)
H66_2 H 0.853631 0.557055 0.101215
C73_2 C 0.9105(6) 0.5909(6) 0.0855(6)
C74_2 C 0.9372(6) 0.6447(7) 0.0890(6)
H67_2 H 0.961235 0.644698 0.073578
C75_2 C 0.9295(6) 0.7004(7) 0.1155(6)
H68_2 H 0.948563 0.737291 0.118520
C76_2 C 0.9185(6) 0.5322(7) 0.0590(6)
C77_2 C 0.8581(5) 0.8767(6) 0.1899(6)
H69_2 H 0.834240 0.846568 0.169805
H70_2 H 0.845556 0.901675 0.213518
C78_2 C 0.7966(5) 0.9634(7) 0.1305(6)
H71_2 H 0.787297 0.934863 0.152772
C84_2 C 0.9556(5) 0.9779(6) 0.3016(6)
H75_2 H 0.972359 0.997177 0.279196
H76_2 H 0.978159 0.956190 0.330817
C86_2 C 0.8982(5) 0.9988(6) 0.3485(6)
H78_2 H 0.873099 0.974699 0.323679
C89_2 C 0.9275(5) 0.8524(6) 0.4248(6)
H83_2 H 0.959186 0.848779 0.427605
C90_2 C 0.8387(5) 0.7551(6) 0.4591(5)
C91_2 C 0.9074(5) 0.8039(6) 0.4410(6)
H84_2 H 0.924599 0.766008 0.453637
C92_2 C 0.8618(5) 0.8071(6) 0.4401(6)
C93_2 C 0.8378(5) 0.8646(6) 0.4207(6)
H85_2 H 0.806995 0.869115 0.421107
C94_2 C 0.8576(5) 0.9142(6) 0.4014(6)
H86_2 H 0.840198 0.951225 0.386897
C109_2 C 0.9042(5) 0.9090(6) 0.4037(6)
C110_2 C 0.9088(5) 0.6147(7) 0.3836(6)
H49_2 H 0.757413 0.987911 0.839759
C57_2 C 0.7518(10) 0.9844(14) 0.9345(11)
H51_2 H 0.729661 0.964717 0.949489
H53_2 H 0.767428 0.950565 0.921017
O43_3 O 0.9372(3) 0.4760(4) 0.9356(4)
O55_3 O 0.9920(3) 0.6032(4) 0.9720(4)
O43_4 O 0.0628(3) 0.4760(4) 0.5644(4)
O55_4 O 0.0080(3) 0.6032(4) 0.5280(4)
O47_4 O 0.7363(3) 0.3526(4) 0.9804(4)
O51_4 O 0.7963(3) 0.2409(4) 0.9498(4)
O56_4 O 0.6899(3) 0.2238(4) 0.9337(4)
O46_4 O 0.9569(4) 0.4713(4) 0.5497(4)
O21_3 O 0.8143(5) 0.4312(7) 0.0583(6)
N2_3 N 0.7715(8) 0.4736(11) 0.1062(9)
C56_3 C 0.7664(11) 0.4802(16) 0.1609(11)
H48_3 H 0.795684 0.494231 0.184970
H49_3 H 0.742587 0.512089 0.160241
H50_3 H 0.757728 0.438476 0.171937
C57_3 C 0.7482(10) 0.5156(14) 0.0655(11)
H51_3 H 0.770339 0.535283 0.050511
H52_3 H 0.725439 0.491087 0.038906
H53_3 H 0.732572 0.549435 0.078983
C58_3 C 0.8076(9) 0.4291(12) 0.0998(11)
H54_3 H 0.824262 0.401041 0.126524
O1_3 O 0.1857(5) 0.4312(7) 0.4417(6)
N1_3 N 0.2285(8) 0.4736(11) 0.3938(9)
C1_3 C 0.2336(11) 0.4802(16) 0.3391(11)
H1_3 H 0.204316 0.494231 0.315030
H2_3 H 0.257413 0.512089 0.339759
H3_3 H 0.242272 0.438476 0.328063
C2_3 C 0.2518(10) 0.5156(14) 0.4345(11)
H4_3 H 0.229661 0.535283 0.449489
H5_3 H 0.274561 0.491087 0.461094
H6_3 H 0.267428 0.549435 0.421017
C3_3 C 0.1924(9) 0.4291(12) 0.4002(11)
H7_3 H 0.175738 0.401041 0.373476
O2_2 O 0.3740(3) 0.9307(4) 0.9423(4)
C4_3 C 0.4070(5) 0.9341(7) 0.9237(6)
C5_3 C 0.3750(5) 0.8381(6) 0.8674(5)
H8_3 H 0.349478 0.837839 0.880515
O4_3 O 0.4224(3) 0.7452(4) 0.7817(4)
C6_3 C 0.3782(5) 0.7924(6) 0.8328(5)
H9_3 H 0.354272 0.761719 0.820910
O5_3 O 0.3834(4) 0.7492(4) 0.6634(4)
C7_3 C 0.4164(6) 0.7898(7) 0.8146(6)
C8_3 C 0.4477(6) 0.8377(6) 0.8285(6)
H10_3 H 0.472375 0.838580 0.814123
C9_3 C 0.4451(5) 0.8850(7) 0.8627(6)
H11_3 H 0.468020 0.917557 0.872032
O8_3 O 0.3733(4) 0.5807(4) 0.6558(4)
C10_3 C 0.3876(5) 0.6998(6) 0.7604(6)
H12_3 H 0.383534 0.671216 0.787856
H13_3 H 0.358106 0.722165 0.744158
O9_3 O 0.2070(4) 0.4011(5) 0.5383(5)
C11_3 C 0.4014(5) 0.6597(6) 0.7198(6)
C12_3 C 0.4187(5) 0.7032(6) 0.6846(6)
H14_3 H 0.424998 0.677566 0.656850
H15_3 H 0.447346 0.725154 0.704446
O11_3 O 0.4226(3) 0.5672(4) 0.7731(4)
C13_3 C 0.4405(5) 0.6149(6) 0.7458(5)
H16_3 H 0.465843 0.639156 0.770153
H17_3 H 0.452514 0.593955 0.719856
O12_2 O 0.3620(3) 0.7925(4) 0.9796(4)
C14_3 C 0.3398(6) 0.5379(7) 0.6272(6)
O13_3 O 0.4274(3) 0.5447(4) 0.8868(4)
C15_3 C 0.3931(6) 0.8002(7) 0.6371(6)
C16_3 C 0.3647(6) 0.8538(7) 0.6306(6)
H18_3 H 0.339275 0.853658 0.643789
O15_3 O 0.4411(4) 0.3786(4) 0.8764(4)
C17_3 C 0.3734(6) 0.9067(7) 0.6054(6)
H19_3 H 0.353631 0.942945 0.601215
C18_3 C 0.4105(6) 0.9091(6) 0.5855(6)
C19_3 C 0.4372(6) 0.8553(7) 0.5890(6)
H20_3 H 0.461235 0.855302 0.573578
O18_3 O 0.4276(3) 0.3932(5) 0.7543(4)
C20_3 C 0.4295(6) 0.7996(7) 0.6155(6)
H21_3 H 0.448563 0.762709 0.618520
C21_3 C 0.4185(6) 0.9678(7) 0.5590(6)
C22_3 C 0.3581(5) 0.6233(6) 0.6899(6)
H22_3 H 0.334240 0.653432 0.669805
H23_3 H 0.345556 0.598325 0.713518
C23_3 C 0.2966(5) 0.5366(7) 0.6305(6)
H24_3 H 0.287297 0.565137 0.652772
C24_3 C 0.2653(6) 0.4907(7) 0.5994(6)
H25_3 H 0.234127 0.489804 0.599156
C25_3 C 0.2810(5) 0.4479(6) 0.5699(6)
C26_3 C 0.3264(5) 0.4481(6) 0.5707(6)
H26_3 H 0.337132 0.416548 0.551829
C27_3 C 0.3560(6) 0.4935(7) 0.5985(6)
H27_3 H 0.387028 0.494823 0.598337
C28_3 C 0.2480(6) 0.3964(7) 0.5400(7)
C29_3 C 0.4556(5) 0.5221(6) 0.8016(6)
H28_3 H 0.472359 0.502823 0.779196
H29_3 H 0.478159 0.543810 0.830817
C30_3 C 0.4307(5) 0.4706(6) 0.8211(6)
C31_3 C 0.3982(5) 0.5012(6) 0.8485(6)
H30_3 H 0.384574 0.467719 0.865275
H31_3 H 0.373099 0.525301 0.823679
C32_3 C 0.4656(5) 0.4258(6) 0.8572(6)
H32_3 H 0.486140 0.450694 0.886045
H33_3 H 0.484663 0.404523 0.838241
C33_3 C 0.3991(5) 0.4313(6) 0.7769(6)
H34_3 H 0.379258 0.460357 0.750723
H35_3 H 0.379273 0.402764 0.790119
C34_3 C 0.4275(5) 0.6476(6) 0.9248(6)
H36_3 H 0.459186 0.651221 0.927605
C35_3 C 0.3387(5) 0.7449(6) 0.9591(5)
C36_3 C 0.4074(5) 0.6961(6) 0.9410(6)
H37_3 H 0.424599 0.733992 0.953637
C37_3 C 0.3618(5) 0.6929(6) 0.9401(6)
C38_3 C 0.3378(5) 0.6354(6) 0.9207(6)
H38_3 H 0.306995 0.630885 0.921107
C39_3 C 0.3576(5) 0.5858(6) 0.9014(6)
H39_3 H 0.340198 0.548775 0.886897
C40_3 C 0.4629(6) 0.3237(6) 0.8992(6)
C41_3 C 0.5086(6) 0.3128(6) 0.9101(6)
H40_3 H 0.527750 0.345453 0.903238
C42_3 C 0.5281(6) 0.2534(6) 0.9315(6)
H41_3 H 0.560089 0.245740 0.939092
C43_3 C 0.4995(6) 0.2071(6) 0.9410(6)
C44_3 C 0.4541(6) 0.2199(7) 0.9314(7)
H42_3 H 0.434933 0.187930 0.939214
C45_3 C 0.4345(6) 0.2785(7) 0.9103(7)
H43_3 H 0.402664 0.286745 0.903888
C46_3 C 0.5189(5) 0.1422(6) 0.9631(6)
C47_3 C 0.4059(5) 0.3546(7) 0.7160(6)
C48_3 C 0.3605(5) 0.3544(7) 0.6886(6)
H44_3 H 0.340842 0.384721 0.697415
C49_3 C 0.3418(6) 0.3121(7) 0.6484(6)
H45_3 H 0.310276 0.315019 0.629178
C50_3 C 0.3697(5) 0.2648(7) 0.6363(6)
C51_3 C 0.4147(6) 0.2639(8) 0.6625(6)
H46_3 H 0.433921 0.231990 0.654814
C52_3 C 0.4339(6) 0.3101(8) 0.7017(6)
H47_3 H 0.466084 0.310687 0.718215
C53_3 C 0.3502(5) 0.2185(7) 0.5944(6)
C54_3 C 0.4042(5) 0.5910(6) 0.9037(6)
C55_3 C 0.4088(5) 0.8853(7) 0.8836(6)
O22_2 O 0.6260(3) 0.9307(4) 0.5577(4)
C59_3 C 0.5930(5) 0.9341(7) 0.5763(6)
C60_3 C 0.6250(5) 0.8381(6) 0.6326(5)
H55_3 H 0.650522 0.837839 0.619485
O24_3 O 0.5776(3) 0.7452(4) 0.7183(4)
C61_3 C 0.6218(5) 0.7924(6) 0.6672(5)
H56_3 H 0.645728 0.761719 0.679090
O25_3 O 0.6166(4) 0.7492(4) 0.8366(4)
C62_3 C 0.5836(6) 0.7898(7) 0.6854(6)
C63_3 C 0.5523(6) 0.8377(6) 0.6715(6)
H57_3 H 0.527625 0.838580 0.685877
C64_3 C 0.5549(5) 0.8850(7) 0.6373(6)
H58_3 H 0.531980 0.917557 0.627968
O28_3 O 0.6267(4) 0.5807(4) 0.8442(4)
C65_3 C 0.6124(5) 0.6998(6) 0.7396(6)
H59_3 H 0.616466 0.671216 0.712144
H60_3 H 0.641894 0.722165 0.755842
O29_3 O 0.7930(4) 0.4011(5) 0.9617(5)
C66_3 C 0.5986(5) 0.6597(6) 0.7802(6)
C67_3 C 0.5813(5) 0.7032(6) 0.8154(6)
H61_3 H 0.575002 0.677566 0.843150
H62_3 H 0.552654 0.725154 0.795554
O31_3 O 0.5774(3) 0.5672(4) 0.7269(4)
C68_3 C 0.5595(5) 0.6149(6) 0.7542(5)
H63_3 H 0.534157 0.639156 0.729847
H64_3 H 0.547486 0.593955 0.780144
O32_2 O 0.6380(3) 0.7925(4) 0.5204(4)
C69_3 C 0.6602(6) 0.5379(7) 0.8728(6)
O33_3 O 0.5726(3) 0.5447(4) 0.6132(4)
C70_3 C 0.6069(6) 0.8002(7) 0.8629(6)
C71_3 C 0.6353(6) 0.8538(7) 0.8694(6)
H65_3 H 0.660725 0.853658 0.856211
O35_3 O 0.5589(4) 0.3786(4) 0.6236(4)
C72_3 C 0.6266(6) 0.9067(7) 0.8946(6)
H66_3 H 0.646369 0.942945 0.898785
C73_3 C 0.5895(6) 0.9091(6) 0.9145(6)
C74_3 C 0.5628(6) 0.8553(7) 0.9110(6)
H67_3 H 0.538765 0.855302 0.926422
O38_3 O 0.5724(3) 0.3932(5) 0.7457(4)
C75_3 C 0.5705(6) 0.7996(7) 0.8845(6)
H68_3 H 0.551437 0.762709 0.881480
C76_3 C 0.5815(6) 0.9678(7) 0.9410(6)
C77_3 C 0.6419(5) 0.6233(6) 0.8101(6)
H69_3 H 0.665760 0.653432 0.830195
H70_3 H 0.654444 0.598325 0.786482
C78_3 C 0.7034(5) 0.5366(7) 0.8695(6)
H71_3 H 0.712703 0.565137 0.847228
C79_3 C 0.7347(6) 0.4907(7) 0.9006(6)
H72_3 H 0.765873 0.489804 0.900844
C80_3 C 0.7190(5) 0.4479(6) 0.9301(6)
C81_3 C 0.6736(5) 0.4481(6) 0.9293(6)
H73_3 H 0.662868 0.416548 0.948171
C82_3 C 0.6440(6) 0.4935(7) 0.9015(6)
H74_3 H 0.612972 0.494823 0.901663
C83_3 C 0.7520(6) 0.3964(7) 0.9600(7)
C84_3 C 0.5444(5) 0.5221(6) 0.6984(6)
H75_3 H 0.527641 0.502823 0.720804
H76_3 H 0.521841 0.543810 0.669183
C85_3 C 0.5693(5) 0.4706(6) 0.6789(6)
C86_3 C 0.6018(5) 0.5012(6) 0.6515(6)
H77_3 H 0.615426 0.467719 0.634725
H78_3 H 0.626901 0.525301 0.676321
C87_3 C 0.5344(5) 0.4258(6) 0.6428(6)
H79_3 H 0.513860 0.450694 0.613955
H80_3 H 0.515337 0.404523 0.661759
C88_3 C 0.6009(5) 0.4313(6) 0.7231(6)
H81_3 H 0.620742 0.460357 0.749277
H82_3 H 0.620727 0.402764 0.709881
C89_3 C 0.5725(5) 0.6476(6) 0.5752(6)
H83_3 H 0.540814 0.651221 0.572395
C90_3 C 0.6613(5) 0.7449(6) 0.5409(5)
C91_3 C 0.5926(5) 0.6961(6) 0.5590(6)
H84_3 H 0.575401 0.733992 0.546363
C92_3 C 0.6382(5) 0.6929(6) 0.5599(6)
C93_3 C 0.6622(5) 0.6354(6) 0.5793(6)
H85_3 H 0.693005 0.630885 0.578893
C94_3 C 0.6424(5) 0.5858(6) 0.5986(6)
H86_3 H 0.659802 0.548775 0.613103
C95_3 C 0.5371(6) 0.3237(6) 0.6008(6)
C96_3 C 0.4914(6) 0.3128(6) 0.5899(6)
H87_3 H 0.472250 0.345453 0.596762
C97_3 C 0.4719(6) 0.2534(6) 0.5685(6)
H88_3 H 0.439911 0.245740 0.560908
C98_3 C 0.5005(6) 0.2071(6) 0.5590(6)
C99_3 C 0.5459(6) 0.2199(7) 0.5686(7)
H89_3 H 0.565067 0.187930 0.560786
C100_3 C 0.5655(6) 0.2785(7) 0.5897(7)
H90_3 H 0.597336 0.286745 0.596112
C101_3 C 0.4811(5) 0.1422(6) 0.5369(6)
C102_3 C 0.5941(5) 0.3546(7) 0.7840(6)
C103_3 C 0.6395(5) 0.3544(7) 0.8114(6)
H91_3 H 0.659158 0.384721 0.802585
C104_3 C 0.6582(6) 0.3121(7) 0.8516(6)
H92_3 H 0.689724 0.315019 0.870822
C105_3 C 0.6303(5) 0.2648(7) 0.8637(6)
C106_3 C 0.5853(6) 0.2639(8) 0.8375(6)
H93_3 H 0.566079 0.231990 0.845186
C107_3 C 0.5661(6) 0.3101(8) 0.7983(6)
H94_3 H 0.533916 0.310687 0.781785
C108_3 C 0.6498(5) 0.2185(7) 0.9056(6)
C109_3 C 0.5958(5) 0.5910(6) 0.5963(6)
C110_3 C 0.5912(5) 0.8853(7) 0.6164(6)
O41_2 O 0.8740(3) 0.4307(4) 0.9423(4)
O42_2 O 0.1260(3) 0.4307(4) 0.5577(4)
O48_2 O 0.8620(3) 0.2925(4) 0.9796(4)
O49_2 O 0.1380(3) 0.2925(4) 0.5204(4)
H49_4 H 0.242587 0.012089 0.160241
C57_4 C 0.2482(10) 0.0156(14) 0.0655(11)
H51_4 H 0.270339 0.035283 0.050511
H53_4 H 0.232572 0.049435 0.078983
C59_4 C 0.0930(5) 0.4341(7) 0.5763(6)
C60_4 C 0.1250(5) 0.3381(6) 0.6326(5)
H55_4 H 0.150522 0.337839 0.619485
O24_4 O 0.0776(3) 0.2452(4) 0.7183(4)
C61_4 C 0.1218(5) 0.2924(6) 0.6672(5)
H56_4 H 0.145728 0.261719 0.679090
O25_4 O 0.1166(4) 0.2492(4) 0.8366(4)
C62_4 C 0.0836(6) 0.2898(7) 0.6854(6)
C63_4 C 0.0523(6) 0.3377(6) 0.6715(6)
H57_4 H 0.027625 0.338580 0.685877
C64_4 C 0.0549(5) 0.3850(7) 0.6373(6)
H58_4 H 0.031980 0.417557 0.627968
O28_4 O 0.1267(4) 0.0807(4) 0.8442(4)
C65_4 C 0.1124(5) 0.1998(6) 0.7396(6)
H59_4 H 0.116466 0.171216 0.712144
H60_4 H 0.141894 0.222165 0.755842
C66_4 C 0.0986(5) 0.1597(6) 0.7802(6)
C67_4 C 0.0813(5) 0.2032(6) 0.8154(6)
H61_4 H 0.075002 0.177566 0.843150
H62_4 H 0.052654 0.225154 0.795554
O31_4 O 0.0774(3) 0.0672(4) 0.7269(4)
C68_4 C 0.0595(5) 0.1149(6) 0.7542(5)
H63_4 H 0.034157 0.139156 0.729847
H64_4 H 0.047486 0.093955 0.780144
C69_4 C 0.1602(6) 0.0379(7) 0.8728(6)
O33_4 O 0.0726(3) 0.0447(4) 0.6132(4)
C70_4 C 0.1069(6) 0.3002(7) 0.8629(6)
C71_4 C 0.1353(6) 0.3538(7) 0.8694(6)
H65_4 H 0.160725 0.353658 0.856211
C72_4 C 0.1266(6) 0.4067(7) 0.8946(6)
H66_4 H 0.146369 0.442945 0.898785
C73_4 C 0.0895(6) 0.4091(6) 0.9145(6)
C74_4 C 0.0628(6) 0.3553(7) 0.9110(6)
H67_4 H 0.038765 0.355302 0.926422
C75_4 C 0.0705(6) 0.2996(7) 0.8845(6)
H68_4 H 0.051437 0.262709 0.881480
C76_4 C 0.0815(6) 0.4678(7) 0.9410(6)
C77_4 C 0.1419(5) 0.1233(6) 0.8101(6)
H69_4 H 0.165760 0.153432 0.830195
H70_4 H 0.154444 0.098325 0.786482
C78_4 C 0.2034(5) 0.0366(7) 0.8695(6)
H71_4 H 0.212703 0.065137 0.847228
C84_4 C 0.0444(5) 0.0221(6) 0.6984(6)
H75_4 H 0.027641 0.002823 0.720804
H76_4 H 0.021841 0.043810 0.669183
C86_4 C 0.1018(5) 0.0012(6) 0.6515(6)
H78_4 H 0.126901 0.025301 0.676321
C89_4 C 0.0725(5) 0.1476(6) 0.5752(6)
H83_4 H 0.040814 0.151221 0.572395
C90_4 C 0.1613(5) 0.2449(6) 0.5409(5)
C91_4 C 0.0926(5) 0.1961(6) 0.5590(6)
H84_4 H 0.075401 0.233992 0.546363
C92_4 C 0.1382(5) 0.1929(6) 0.5599(6)
C93_4 C 0.1622(5) 0.1354(6) 0.5793(6)
H85_4 H 0.193005 0.130885 0.578893
C94_4 C 0.1424(5) 0.0858(6) 0.5986(6)
H86_4 H 0.159802 0.048775 0.613103
C109_4 C 0.0958(5) 0.0910(6) 0.5963(6)
C110_4 C 0.0912(5) 0.3853(7) 0.6164(6)
O21_4 O 0.3143(5) 0.9312(7) 0.0583(6)
N2_4 N 0.2715(8) 0.9736(11) 0.1062(9)
C56_4 C 0.2664(11) 0.9802(16) 0.1609(11)
H48_4 H 0.295684 0.994231 0.184970
H50_4 H 0.257728 0.938476 0.171937
H52_4 H 0.225439 0.991087 0.038906
C58_4 C 0.3076(9) 0.9291(12) 0.0998(11)
H54_4 H 0.324262 0.901041 0.126524
C41_4 C 0.0086(6) 0.8128(6) 0.9101(6)
H40_4 H 0.027750 0.845453 0.903238
C42_4 C 0.0281(6) 0.7534(6) 0.9315(6)
H41_4 H 0.060089 0.745740 0.939092
C46_4 C 0.0189(5) 0.6422(6) 0.9631(6)
O29_4 O 0.2930(4) 0.9011(5) 0.9617(5)
O35_4 O 0.0589(4) 0.8786(4) 0.6236(4)
O38_4 O 0.0724(3) 0.8932(5) 0.7457(4)
C79_4 C 0.2347(6) 0.9907(7) 0.9006(6)
H72_4 H 0.265873 0.989804 0.900844
C80_4 C 0.2190(5) 0.9479(6) 0.9301(6)
C81_4 C 0.1736(5) 0.9481(6) 0.9293(6)
H73_4 H 0.162868 0.916548 0.948171
C82_4 C 0.1440(6) 0.9935(7) 0.9015(6)
H74_4 H 0.112972 0.994823 0.901663
C83_4 C 0.2520(6) 0.8964(7) 0.9600(7)
C85_4 C 0.0693(5) 0.9706(6) 0.6789(6)
H77_4 H 0.115426 0.967719 0.634725
C87_4 C 0.0344(5) 0.9258(6) 0.6428(6)
H79_4 H 0.013860 0.950694 0.613955
H80_4 H 0.015337 0.904523 0.661759
C88_4 C 0.1009(5) 0.9313(6) 0.7231(6)
H81_4 H 0.120742 0.960357 0.749277
H82_4 H 0.120727 0.902764 0.709881
C95_4 C 0.0371(6) 0.8237(6) 0.6008(6)
C98_4 C 0.0005(6) 0.7071(6) 0.5590(6)
C99_4 C 0.0459(6) 0.7199(7) 0.5686(7)
H89_4 H 0.065067 0.687930 0.560786
C100_4 C 0.0655(6) 0.7785(7) 0.5897(7)
H90_4 H 0.097336 0.786745 0.596112
C102_4 C 0.0941(5) 0.8546(7) 0.7840(6)
C103_4 C 0.1395(5) 0.8544(7) 0.8114(6)
H91_4 H 0.159158 0.884721 0.802585
C104_4 C 0.1582(6) 0.8121(7) 0.8516(6)
H92_4 H 0.189724 0.815019 0.870822
C105_4 C 0.1303(5) 0.7648(7) 0.8637(6)
C106_4 C 0.0853(6) 0.7639(8) 0.8375(6)
H93_4 H 0.066079 0.731990 0.845186
C107_4 C 0.0661(6) 0.8101(8) 0.7983(6)
H94_4 H 0.033916 0.810687 0.781785
C108_4 C 0.1498(5) 0.7185(7) 0.9056(6)
H2_4 H 0.757413 0.012089 0.339759
C2_4 C 0.7518(10) 0.0156(14) 0.4345(11)
H4_4 H 0.729661 0.035283 0.449489
H6_4 H 0.767428 0.049435 0.421017
C4_4 C 0.9070(5) 0.4341(7) 0.9237(6)
C5_4 C 0.8750(5) 0.3381(6) 0.8674(5)
H8_4 H 0.849478 0.337839 0.880515
O4_4 O 0.9224(3) 0.2452(4) 0.7817(4)
C6_4 C 0.8782(5) 0.2924(6) 0.8328(5)
H9_4 H 0.854272 0.261719 0.820910
O5_4 O 0.8834(4) 0.2492(4) 0.6634(4)
C7_4 C 0.9164(6) 0.2898(7) 0.8146(6)
C8_4 C 0.9477(6) 0.3377(6) 0.8285(6)
H10_4 H 0.972375 0.338580 0.814123
C9_4 C 0.9451(5) 0.3850(7) 0.8627(6)
H11_4 H 0.968020 0.417557 0.872032
O8_4 O 0.8733(4) 0.0807(4) 0.6558(4)
C10_4 C 0.8876(5) 0.1998(6) 0.7604(6)
H12_4 H 0.883534 0.171216 0.787856
H13_4 H 0.858106 0.222165 0.744158
C11_4 C 0.9014(5) 0.1597(6) 0.7198(6)
C12_4 C 0.9187(5) 0.2032(6) 0.6846(6)
H14_4 H 0.924998 0.177566 0.656850
H15_4 H 0.947346 0.225154 0.704446
O11_4 O 0.9226(3) 0.0672(4) 0.7731(4)
C13_4 C 0.9405(5) 0.1149(6) 0.7458(5)
H16_4 H 0.965843 0.139156 0.770153
H17_4 H 0.952514 0.093955 0.719856
C14_4 C 0.8398(6) 0.0379(7) 0.6272(6)
O13_4 O 0.9274(3) 0.0447(4) 0.8868(4)
C15_4 C 0.8931(6) 0.3002(7) 0.6371(6)
C16_4 C 0.8647(6) 0.3538(7) 0.6306(6)
H18_4 H 0.839275 0.353658 0.643789
C17_4 C 0.8734(6) 0.4067(7) 0.6054(6)
H19_4 H 0.853631 0.442945 0.601215
C18_4 C 0.9105(6) 0.4091(6) 0.5855(6)
C19_4 C 0.9372(6) 0.3553(7) 0.5890(6)
H20_4 H 0.961235 0.355302 0.573578
C20_4 C 0.9295(6) 0.2996(7) 0.6155(6)
H21_4 H 0.948563 0.262709 0.618520
C21_4 C 0.9185(6) 0.4678(7) 0.5590(6)
C22_4 C 0.8581(5) 0.1233(6) 0.6899(6)
H22_4 H 0.834240 0.153432 0.669805
H23_4 H 0.845556 0.098325 0.713518
C23_4 C 0.7966(5) 0.0366(7) 0.6305(6)
H24_4 H 0.787297 0.065137 0.652772
C29_4 C 0.9556(5) 0.0221(6) 0.8016(6)
H28_4 H 0.972359 0.002823 0.779196
H29_4 H 0.978159 0.043810 0.830817
C31_4 C 0.8982(5) 0.0012(6) 0.8485(6)
H31_4 H 0.873099 0.025301 0.823679
C34_4 C 0.9275(5) 0.1476(6) 0.9248(6)
H36_4 H 0.959186 0.151221 0.927605
C35_4 C 0.8387(5) 0.2449(6) 0.9591(5)
C36_4 C 0.9074(5) 0.1961(6) 0.9410(6)
H37_4 H 0.924599 0.233992 0.953637
C37_4 C 0.8618(5) 0.1929(6) 0.9401(6)
C38_4 C 0.8378(5) 0.1354(6) 0.9207(6)
H38_4 H 0.806995 0.130885 0.921107
C39_4 C 0.8576(5) 0.0858(6) 0.9014(6)
H39_4 H 0.840198 0.048775 0.886897
C54_4 C 0.9042(5) 0.0910(6) 0.9037(6)
C55_4 C 0.9088(5) 0.3853(7) 0.8836(6)
O1_4 O 0.6857(5) 0.9312(7) 0.4417(6)
N1_4 N 0.7285(8) 0.9736(11) 0.3938(9)
C1_4 C 0.7336(11) 0.9802(16) 0.3391(11)
H1_4 H 0.704316 0.994231 0.315030
H3_4 H 0.742272 0.938476 0.328063
H5_4 H 0.774561 0.991087 0.461094
C3_4 C 0.6924(9) 0.9291(12) 0.4002(11)
H7_4 H 0.675738 0.901041 0.373476
O9_4 O 0.7070(4) 0.9011(5) 0.5383(5)
O15_4 O 0.9411(4) 0.8786(4) 0.8764(4)
O18_4 O 0.9276(3) 0.8932(5) 0.7543(4)
C24_4 C 0.7653(6) 0.9907(7) 0.5994(6)
H25_4 H 0.734127 0.989804 0.599156
C25_4 C 0.7810(5) 0.9479(6) 0.5699(6)
C26_4 C 0.8264(5) 0.9481(6) 0.5707(6)
H26_4 H 0.837132 0.916548 0.551829
C27_4 C 0.8560(6) 0.9935(7) 0.5985(6)
H27_4 H 0.887028 0.994823 0.598337
C28_4 C 0.7480(6) 0.8964(7) 0.5400(7)
C30_4 C 0.9307(5) 0.9706(6) 0.8211(6)
H30_4 H 0.884574 0.967719 0.865275
C32_4 C 0.9656(5) 0.9258(6) 0.8572(6)
H32_4 H 0.986140 0.950694 0.886045
H33_4 H 0.984663 0.904523 0.838241
C33_4 C 0.8991(5) 0.9313(6) 0.7769(6)
H34_4 H 0.879258 0.960357 0.750723
H35_4 H 0.879273 0.902764 0.790119
C40_4 C 0.9629(6) 0.8237(6) 0.8992(6)
C43_4 C 0.9995(6) 0.7071(6) 0.9410(6)
C44_4 C 0.9541(6) 0.7199(7) 0.9314(7)
H42_4 H 0.934933 0.687930 0.939214
C45_4 C 0.9345(6) 0.7785(7) 0.9103(7)
H43_4 H 0.902664 0.786745 0.903888
C47_4 C 0.9059(5) 0.8546(7) 0.7160(6)
C48_4 C 0.8605(5) 0.8544(7) 0.6886(6)
H44_4 H 0.840842 0.884721 0.697415
C49_4 C 0.8418(6) 0.8121(7) 0.6484(6)
H45_4 H 0.810276 0.815019 0.629178
C50_4 C 0.8697(5) 0.7648(7) 0.6363(6)
C51_4 C 0.9147(6) 0.7639(8) 0.6625(6)
H46_4 H 0.933921 0.731990 0.654814
C52_4 C 0.9339(6) 0.8101(8) 0.7017(6)
H47_4 H 0.966084 0.810687 0.718215
C53_4 C 0.8502(5) 0.7185(7) 0.5944(6)
C96_4 C 0.9914(6) 0.8128(6) 0.5899(6)
H87_4 H 0.972250 0.845453 0.596762
C97_4 C 0.9719(6) 0.7534(6) 0.5685(6)
H88_4 H 0.939911 0.745740 0.560908
C101_4 C 0.9811(5) 0.6422(6) 0.5369(6)
loop_
_geom_bond_atom_site_label_1
_geom_bond_atom_site_label_2
_geom_bond_site_symmetry_1
_geom_bond_site_symmetry_2
Er1 O1 1_555 1_555
O1 C3 1_555 1_555
N1 C1 1_555 1_555
C1 H1 1_555 1_555
H2 C1 1_555 1_555
H3 C1 1_555 1_555
C2 N1 1_555 1_555
H4 C2 1_555 1_555
H5 C2 1_555 1_555
H6 C2 1_555 1_555
C3 N1 1_555 1_555
H7 C3 1_555 1_555
O2 C4 1_555 1_555
Er2 O10 1_555 1_555
C4 O3 1_555 1_555
O3 Er14 1_555 1_555
Er14 O27 1_555 1_555
C5 H8 1_555 1_555
O4 C7 1_555 1_555
C6 C5 1_555 1_555
H9 C6 1_555 1_555
O5 C12 1_555 1_555
C7 C6 1_555 1_555
C8 C7 1_555 1_555
H10 C8 1_555 1_555
O7 C21 1_555 1_555
C9 C8 1_555 1_555
H11 C9 1_555 1_555
O8 C14 1_555 1_555
C10 O4 1_555 1_555
H12 C10 1_555 1_555
H13 C10 1_555 1_555
O9 Er1 1_555 1_555
C11 C10 1_555 1_555
O10 C28 1_555 1_555
C12 C11 1_555 1_555
H14 C12 1_555 1_555
H15 C12 1_555 1_555
O11 C13 1_555 1_555
C13 C11 1_555 1_555
H16 C13 1_555 1_555
H17 C13 1_555 1_555
O12 C35 1_555 1_555
C14 C23 1_555 1_555
O13 C31 1_555 1_555
C15 O5 1_555 1_555
O14 C35 1_555 1_555
C16 C15 1_555 1_555
H18 C16 1_555 1_555
O15 C32 1_555 1_555
C17 C16 1_555 1_555
H19 C17 1_555 1_555
O16 C46 1_555 1_555
C18 C17 1_555 1_555
O17 C46 1_555 1_555
C19 C18 1_555 1_555
H20 C19 1_555 1_555
O18 C33 1_555 1_555
C20 C15 1_555 1_555
H21 C20 1_555 1_555
O19 Er2 1_555 1_555
C21 C18 1_555 1_555
O20 C53 1_555 1_555
C22 O8 1_555 1_555
H22 C22 1_555 1_555
H23 C22 1_555 1_555
C23 H24 1_555 1_555
C24 C23 1_555 1_555
H25 C24 1_555 1_555
C25 C24 1_555 1_555
C26 C25 1_555 1_555
H26 C26 1_555 1_555
C27 C14 1_555 1_555
H27 C27 1_555 1_555
C28 O9 1_555 1_555
C29 O11 1_555 1_555
H28 C29 1_555 1_555
H29 C29 1_555 1_555
C30 C29 1_555 1_555
C31 C30 1_555 1_555
H30 C31 1_555 1_555
H31 C31 1_555 1_555
C32 C30 1_555 1_555
H32 C32 1_555 1_555
H33 C32 1_555 1_555
C33 C30 1_555 1_555
H34 C33 1_555 1_555
H35 C33 1_555 1_555
C34 H36 1_555 1_555
C35 C37 1_555 1_555
C36 C34 1_555 1_555
H37 C36 1_555 1_555
C37 C36 1_555 1_555
C38 C37 1_555 1_555
H38 C38 1_555 1_555
C39 C38 1_555 1_555
H39 C39 1_555 1_555
C40 O15 1_555 1_555
C41 C40 1_555 1_555
H40 C41 1_555 1_555
C42 C41 1_555 1_555
H41 C42 1_555 1_555
C43 C42 1_555 1_555
C44 C43 1_555 1_555
H42 C44 1_555 1_555
C45 C40 1_555 1_555
H43 C45 1_555 1_555
C46 C43 1_555 1_555
C47 O18 1_555 1_555
C48 C47 1_555 1_555
H44 C48 1_555 1_555
C49 C48 1_555 1_555
H45 C49 1_555 1_555
C50 C49 1_555 1_555
C51 C50 1_555 1_555
H46 C51 1_555 1_555
C52 C47 1_555 1_555
H47 C52 1_555 1_555
C53 O19 1_555 1_555
C54 O13 1_555 1_555
C55 C4 1_555 1_555
O22 C59 1_555 1_555
C59 O23 1_555 1_555
O23 Er16 1_555 1_555
C60 H55 1_555 1_555
O24 C62 1_555 1_555
C61 C60 1_555 1_555
H56 C61 1_555 1_555
O25 C67 1_555 1_555
C62 C61 1_555 1_555
C63 C62 1_555 1_555
H57 C63 1_555 1_555
O27 C76 1_555 1_555
C64 C63 1_555 1_555
H58 C64 1_555 1_555
O28 C69 1_555 1_555
C65 O24 1_555 1_555
H59 C65 1_555 1_555
H60 C65 1_555 1_555
C66 C65 1_555 1_555
O30 C83 1_555 1_555
C67 C66 1_555 1_555
H61 C67 1_555 1_555
H62 C67 1_555 1_555
O31 C68 1_555 1_555
C68 C66 1_555 1_555
H63 C68 1_555 1_555
H64 C68 1_555 1_555
O32 C90 1_555 1_555
C69 C78 1_555 1_555
O33 C86 1_555 1_555
C70 O25 1_555 1_555
O34 C90 1_555 1_555
C71 C70 1_555 1_555
H65 C71 1_555 1_555
O35 C87 1_555 1_555
C72 C71 1_555 1_555
H66 C72 1_555 1_555
O36 C101 1_555 1_555
C73 C72 1_555 1_555
O37 C101 1_555 1_555
C74 C73 1_555 1_555
H67 C74 1_555 1_555
O38 C88 1_555 1_555
C75 C70 1_555 1_555
H68 C75 1_555 1_555
O39 C108 1_555 1_555
C76 C73 1_555 1_555
O40 C108 1_555 1_555
C77 O28 1_555 1_555
H69 C77 1_555 1_555
H70 C77 1_555 1_555
C78 H71 1_555 1_555
C79 C78 1_555 1_555
H72 C79 1_555 1_555
C80 C79 1_555 1_555
C81 C80 1_555 1_555
H73 C81 1_555 1_555
C82 C69 1_555 1_555
H74 C82 1_555 1_555
C83 O29 1_555 1_555
C84 O31 1_555 1_555
H75 C84 1_555 1_555
H76 C84 1_555 1_555
C85 C84 1_555 1_555
C86 C85 1_555 1_555
H77 C86 1_555 1_555
H78 C86 1_555 1_555
C87 C85 1_555 1_555
H79 C87 1_555 1_555
H80 C87 1_555 1_555
C88 C85 1_555 1_555
H81 C88 1_555 1_555
H82 C88 1_555 1_555
C89 H83 1_555 1_555
C90 C92 1_555 1_555
C91 C89 1_555 1_555
H84 C91 1_555 1_555
C92 C91 1_555 1_555
C93 C92 1_555 1_555
H85 C93 1_555 1_555
C94 C93 1_555 1_555
H86 C94 1_555 1_555
C95 O35 1_555 1_555
C96 C95 1_555 1_555
H87 C96 1_555 1_555
C97 C96 1_555 1_555
H88 C97 1_555 1_555
C98 C97 1_555 1_555
C99 C98 1_555 1_555
H89 C99 1_555 1_555
C100 C95 1_555 1_555
H90 C100 1_555 1_555
C101 C98 1_555 1_555
C102 O38 1_555 1_555
C103 C102 1_555 1_555
H91 C103 1_555 1_555
C104 C103 1_555 1_555
H92 C104 1_555 1_555
C105 C104 1_555 1_555
C106 C105 1_555 1_555
H93 C106 1_555 1_555
C107 C102 1_555 1_555
H94 C107 1_555 1_555
C108 C105 1_555 1_555
C109 O33 1_555 1_555
C110 C59 1_555 1_555
Er5 O22 1_555 1_555
Er8 O20 1_555 1_555
Er10 O16 1_555 1_555
O42 Er1 1_555 1_555
Er11 O30 1_555 1_555
Er12 O34 1_555 1_555
Er13 O14 1_555 1_555
Er14_3 O17 1_555 1_555
Er16 O7 1_555 1_555
Er16_2 O37 1_555 1_555
O44 Er1 1_555 1_555
O47 Er2 1_555 1_555
O49 Er1 1_555 1_555
O50 Er2 1_555 1_555
O51 Er2 1_555 1_555
O53 Er1 1_555 1_555
O56 Er2 1_555 1_555
O57 Er1 1_555 1_555
C5 C55 1_555 1_555
C9 C55 1_555 1_555
C11 C22 1_555 1_555
C19 C20 1_555 1_555
C25 C28 1_555 1_555
C26 C27 1_555 1_555
C34 C54 1_555 1_555
C39 C54 1_555 1_555
C44 C45 1_555 1_555
C50 C53 1_555 1_555
C51 C52 1_555 1_555
C60 C110 1_555 1_555
C64 C110 1_555 1_555
C66 C77 1_555 1_555
O32 Er5 1_555 1_555
O36 Er8 1_555 1_555
C74 C75 1_555 1_555
O39 Er11 1_555 1_555
O40 Er10 1_555 1_555
C80 C83 1_555 1_555
C81 C82 1_555 1_555
C89 C109 1_555 1_555
C94 C109 1_555 1_555
C99 C100 1_555 1_555
C106 C107 1_555 1_555
Er4 O21 1_555 1_555
O21 C58 1_555 1_555
N2 C56 1_555 1_555
C56 H48 1_555 1_555
H49 C56 1_555 1_555
H50 C56 1_555 1_555
C57 N2 1_555 1_555
H51 C57 1_555 1_555
H52 C57 1_555 1_555
H53 C57 1_555 1_555
C58 N2 1_555 1_555
H54 C58 1_555 1_555
O45 Er4 1_555 1_555
O52 Er4 1_555 1_555
O55 Er14_2 1_555 1_555
O58 Er4 1_555 1_555
Er8 O6 1_555 1_555
Er10 O26 1_555 1_555
O43 Er14_4 1_555 1_555
O46 Er14_4 1_555 1_555
O50_2 Er11 1_555 1_555
O55_2 Er16 1_555 1_555
O47_2 Er11_2 1_555 1_555
O51_2 Er11_2 1_555 1_555
O56_2 Er11_2 1_555 1_555
O43_2 Er16_2 1_555 1_555
O46_2 Er16_2 1_555 1_555
Er5 O1_2 1_555 1_555
O1_2 C3_2 1_555 1_555
N1_2 C1_2 1_555 1_555
C1_2 H1_2 1_555 1_555
H3_2 C1_2 1_555 1_555
C3_2 N1_2 1_555 1_555
H7_2 C3_2 1_555 1_555
Er12 O10_2 1_555 1_555
O9_2 Er5 1_555 1_555
O10_2 C28_2 1_555 1_555
O15_2 C32_2 1_555 1_555
O18_2 C33_2 1_555 1_555
O19_2 Er12 1_555 1_555
O20_2 C53_2 1_555 1_555
H25_2 C24_2 1_555 1_555
C25_2 C24_2 1_555 1_555
C26_2 C25_2 1_555 1_555
H26_2 C26_2 1_555 1_555
H27_2 C27_2 1_555 1_555
C28_2 O9_2 1_555 1_555
C32_2 C30_2 1_555 1_555
H32_2 C32_2 1_555 1_555
H33_2 C32_2 1_555 1_555
C33_2 C30_2 1_555 1_555
H34_2 C33_2 1_555 1_555
H35_2 C33_2 1_555 1_555
C40_2 O15_2 1_555 1_555
C44_2 C43_2 1_555 1_555
H42_2 C44_2 1_555 1_555
C45_2 C40_2 1_555 1_555
H43_2 C45_2 1_555 1_555
C47_2 O18_2 1_555 1_555
C48_2 C47_2 1_555 1_555
H44_2 C48_2 1_555 1_555
C49_2 C48_2 1_555 1_555
H45_2 C49_2 1_555 1_555
C50_2 C49_2 1_555 1_555
C51_2 C50_2 1_555 1_555
H46_2 C51_2 1_555 1_555
C52_2 C47_2 1_555 1_555
H47_2 C52_2 1_555 1_555
C53_2 O19_2 1_555 1_555
O36_2 C101_2 1_555 1_555
H87_2 C96_2 1_555 1_555
C97_2 C96_2 1_555 1_555
H88_2 C97_2 1_555 1_555
Er8_2 O20_2 1_555 1_555
Er14_5 O17_2 1_555 1_555
O44_2 Er5 1_555 1_555
O47_3 Er12 1_555 1_555
O51_3 Er12 1_555 1_555
O53_2 Er5 1_555 1_555
O56_3 Er12 1_555 1_555
O57_2 Er5 1_555 1_555
C25_2 C28_2 1_555 1_555
C26_2 C27_2 1_555 1_555
C44_2 C45_2 1_555 1_555
C50_2 C53_2 1_555 1_555
C51_2 C52_2 1_555 1_555
O36_2 Er8_2 1_555 1_555
H4_2 C2_2 1_555 1_555
H6_2 C2_2 1_555 1_555
O41 C4_2 1_555 1_555
C4_2 O3_2 1_555 1_555
O3_2 Er14_5 1_555 1_555
C5_2 H8_2 1_555 1_555
O4_2 C7_2 1_555 1_555
C6_2 C5_2 1_555 1_555
H9_2 C6_2 1_555 1_555
O5_2 C12_2 1_555 1_555
C7_2 C6_2 1_555 1_555
O6_2 C21_2 1_555 1_555
C8_2 C7_2 1_555 1_555
H10_2 C8_2 1_555 1_555
O7_2 C21_2 1_555 1_555
C9_2 C8_2 1_555 1_555
H11_2 C9_2 1_555 1_555
O8_2 C14_2 1_555 1_555
C10_2 O4_2 1_555 1_555
H12_2 C10_2 1_555 1_555
H13_2 C10_2 1_555 1_555
C11_2 C10_2 1_555 1_555
C12_2 C11_2 1_555 1_555
H14_2 C12_2 1_555 1_555
H15_2 C12_2 1_555 1_555
O11_2 C13_2 1_555 1_555
C13_2 C11_2 1_555 1_555
H16_2 C13_2 1_555 1_555
H17_2 C13_2 1_555 1_555
O48 C35_2 1_555 1_555
C14_2 C23_2 1_555 1_555
O13_2 C31_2 1_555 1_555
C15_2 O5_2 1_555 1_555
O50_2 C35_2 1_555 1_555
C16_2 C15_2 1_555 1_555
H18_2 C16_2 1_555 1_555
C17_2 C16_2 1_555 1_555
H19_2 C17_2 1_555 1_555
C18_2 C17_2 1_555 1_555
C19_2 C18_2 1_555 1_555
H20_2 C19_2 1_555 1_555
C20_2 C15_2 1_555 1_555
H21_2 C20_2 1_555 1_555
C21_2 C18_2 1_555 1_555
C22_2 O8_2 1_555 1_555
H22_2 C22_2 1_555 1_555
H23_2 C22_2 1_555 1_555
C23_2 H24_2 1_555 1_555
C29_2 O11_2 1_555 1_555
H28_2 C29_2 1_555 1_555
H29_2 C29_2 1_555 1_555
H31_2 C31_2 1_555 1_555
C34_2 H36_2 1_555 1_555
C35_2 C37_2 1_555 1_555
C36_2 C34_2 1_555 1_555
H37_2 C36_2 1_555 1_555
C37_2 C36_2 1_555 1_555
C38_2 C37_2 1_555 1_555
H38_2 C38_2 1_555 1_555
C39_2 C38_2 1_555 1_555
H39_2 C39_2 1_555 1_555
C54_2 O13_2 1_555 1_555
C55_2 C4_2 1_555 1_555
Er8_2 O6_2 1_555 1_555
Er16_3 O7_2 1_555 1_555
C5_2 C55_2 1_555 1_555
C9_2 C55_2 1_555 1_555
C11_2 C22_2 1_555 1_555
C19_2 C20_2 1_555 1_555
C34_2 C54_2 1_555 1_555
C39_2 C54_2 1_555 1_555
O46_3 Er14_6 1_555 1_555
O16_2 C46_2 1_555 1_555
H40_2 C41_2 1_555 1_555
C42_2 C41_2 1_555 1_555
H41_2 C42_2 1_555 1_555
O30_2 C83_2 1_555 1_555
O35_2 C87_2 1_555 1_555
O38_2 C88_2 1_555 1_555
O39_2 C108_2 1_555 1_555
O40_2 C108_2 1_555 1_555
H72_2 C79_2 1_555 1_555
C80_2 C79_2 1_555 1_555
C81_2 C80_2 1_555 1_555
H73_2 C81_2 1_555 1_555
H74_2 C82_2 1_555 1_555
C83_2 O29_2 1_555 1_555
C87_2 C85_2 1_555 1_555
H79_2 C87_2 1_555 1_555
H80_2 C87_2 1_555 1_555
C88_2 C85_2 1_555 1_555
H81_2 C88_2 1_555 1_555
H82_2 C88_2 1_555 1_555
C95_2 O35_2 1_555 1_555
C99_2 C98_2 1_555 1_555
H89_2 C99_2 1_555 1_555
C100_2 C95_2 1_555 1_555
H90_2 C100_2 1_555 1_555
C102_2 O38_2 1_555 1_555
C103_2 C102_2 1_555 1_555
H91_2 C103_2 1_555 1_555
C104_2 C103_2 1_555 1_555
H92_2 C104_2 1_555 1_555
C105_2 C104_2 1_555 1_555
C106_2 C105_2 1_555 1_555
H93_2 C106_2 1_555 1_555
C107_2 C102_2 1_555 1_555
H94_2 C107_2 1_555 1_555
C108_2 C105_2 1_555 1_555
Er10_2 O16_2 1_555 1_555
Er13 O30_2 1_555 1_555
Er16_4 O37_2 1_555 1_555
O39_2 Er13 1_555 1_555
O40_2 Er10_2 1_555 1_555
C80_2 C83_2 1_555 1_555
C81_2 C82_2 1_555 1_555
C99_2 C100_2 1_555 1_555
C106_2 C107_2 1_555 1_555
Er6 O21_2 1_555 1_555
O21_2 C58_2 1_555 1_555
N2_2 C56_2 1_555 1_555
C56_2 H48_2 1_555 1_555
H50_2 C56_2 1_555 1_555
C58_2 N2_2 1_555 1_555
H54_2 C58_2 1_555 1_555
O45_2 Er6 1_555 1_555
O52_2 Er6 1_555 1_555
O58_2 Er6 1_555 1_555
Er14_7 O27_2 1_555 1_555
O42 C59_2 1_555 1_555
C59_2 O23_2 1_555 1_555
O23_2 Er16_4 1_555 1_555
C60_2 H55_2 1_555 1_555
O24_2 C62_2 1_555 1_555
C61_2 C60_2 1_555 1_555
H56_2 C61_2 1_555 1_555
O25_2 C67_2 1_555 1_555
C62_2 C61_2 1_555 1_555
O26_2 C76_2 1_555 1_555
C63_2 C62_2 1_555 1_555
H57_2 C63_2 1_555 1_555
O27_2 C76_2 1_555 1_555
C64_2 C63_2 1_555 1_555
H58_2 C64_2 1_555 1_555
O28_2 C69_2 1_555 1_555
C65_2 O24_2 1_555 1_555
H59_2 C65_2 1_555 1_555
H60_2 C65_2 1_555 1_555
C66_2 C65_2 1_555 1_555
C67_2 C66_2 1_555 1_555
H61_2 C67_2 1_555 1_555
H62_2 C67_2 1_555 1_555
O31_2 C68_2 1_555 1_555
C68_2 C66_2 1_555 1_555
H63_2 C68_2 1_555 1_555
H64_2 C68_2 1_555 1_555
O49 C90_2 1_555 1_555
C69_2 C78_2 1_555 1_555
O33_2 C86_2 1_555 1_555
C70_2 O25_2 1_555 1_555
O50 C90_2 1_555 1_555
C71_2 C70_2 1_555 1_555
H65_2 C71_2 1_555 1_555
C72_2 C71_2 1_555 1_555
H66_2 C72_2 1_555 1_555
C73_2 C72_2 1_555 1_555
C74_2 C73_2 1_555 1_555
H67_2 C74_2 1_555 1_555
C75_2 C70_2 1_555 1_555
H68_2 C75_2 1_555 1_555
C76_2 C73_2 1_555 1_555
C77_2 O28_2 1_555 1_555
H69_2 C77_2 1_555 1_555
H70_2 C77_2 1_555 1_555
C78_2 H71_2 1_555 1_555
C84_2 O31_2 1_555 1_555
H75_2 C84_2 1_555 1_555
H76_2 C84_2 1_555 1_555
H78_2 C86_2 1_555 1_555
C89_2 H83_2 1_555 1_555
C90_2 C92_2 1_555 1_555
C91_2 C89_2 1_555 1_555
H84_2 C91_2 1_555 1_555
C92_2 C91_2 1_555 1_555
C93_2 C92_2 1_555 1_555
H85_2 C93_2 1_555 1_555
C94_2 C93_2 1_555 1_555
H86_2 C94_2 1_555 1_555
C109_2 O33_2 1_555 1_555
C110_2 C59_2 1_555 1_555
Er10_2 O26_2 1_555 1_555
C60_2 C110_2 1_555 1_555
C64_2 C110_2 1_555 1_555
C66_2 C77_2 1_555 1_555
C74_2 C75_2 1_555 1_555
C89_2 C109_2 1_555 1_555
C94_2 C109_2 1_555 1_555
H51_2 C57_2 1_555 1_555
H53_2 C57_2 1_555 1_555
O43_3 Er14_8 1_555 1_555
O55_3 Er14_8 1_555 1_555
O43_4 Er16_3 1_555 1_555
O55_4 Er16_3 1_555 1_555
O47_4 Er13_2 1_555 1_555
O51_4 Er13_2 1_555 1_555
O56_4 Er13_2 1_555 1_555
O46_4 Er16_4 1_555 1_555
Er10_2 O21_3 1_555 1_555
O21_3 C58_3 1_555 1_555
N2_3 C56_3 1_555 1_555
C56_3 H48_3 1_555 1_555
H49_3 C56_3 1_555 1_555
H50_3 C56_3 1_555 1_555
C57_3 N2_3 1_555 1_555
H51_3 C57_3 1_555 1_555
H52_3 C57_3 1_555 1_555
H53_3 C57_3 1_555 1_555
C58_3 N2_3 1_555 1_555
H54_3 C58_3 1_555 1_555
Er8_2 O1_3 1_555 1_555
O1_3 C3_3 1_555 1_555
N1_3 C1_3 1_555 1_555
C1_3 H1_3 1_555 1_555
H2_3 C1_3 1_555 1_555
H3_3 C1_3 1_555 1_555
C2_3 N1_3 1_555 1_555
H4_3 C2_3 1_555 1_555
H5_3 C2_3 1_555 1_555
H6_3 C2_3 1_555 1_555
C3_3 N1_3 1_555 1_555
H7_3 C3_3 1_555 1_555
O2_2 C4_3 1_555 1_555
C4_3 O43 1_555 1_555
C5_3 H8_3 1_555 1_555
O4_3 C7_3 1_555 1_555
C6_3 C5_3 1_555 1_555
H9_3 C6_3 1_555 1_555
O5_3 C12_3 1_555 1_555
C7_3 C6_3 1_555 1_555
C8_3 C7_3 1_555 1_555
H10_3 C8_3 1_555 1_555
O46_2 C21_3 1_555 1_555
C9_3 C8_3 1_555 1_555
H11_3 C9_3 1_555 1_555
O8_3 C14_3 1_555 1_555
C10_3 O4_3 1_555 1_555
H12_3 C10_3 1_555 1_555
H13_3 C10_3 1_555 1_555
O9_3 Er8_2 1_555 1_555
C11_3 C10_3 1_555 1_555
O47_3 C28_3 1_555 1_555
C12_3 C11_3 1_555 1_555
H14_3 C12_3 1_555 1_555
H15_3 C12_3 1_555 1_555
O11_3 C13_3 1_555 1_555
C13_3 C11_3 1_555 1_555
H16_3 C13_3 1_555 1_555
H17_3 C13_3 1_555 1_555
O12_2 C35_3 1_555 1_555
C14_3 C23_3 1_555 1_555
O13_3 C31_3 1_555 1_555
C15_3 O5_3 1_555 1_555
O51_2 C35_3 1_555 1_555
C16_3 C15_3 1_555 1_555
H18_3 C16_3 1_555 1_555
O15_3 C32_3 1_555 1_555
C17_3 C16_3 1_555 1_555
H19_3 C17_3 1_555 1_555
O52_2 C46_3 1_555 1_555
C18_3 C17_3 1_555 1_555
O55 C46_3 1_555 1_555
C19_3 C18_3 1_555 1_555
H20_3 C19_3 1_555 1_555
O18_3 C33_3 1_555 1_555
C20_3 C15_3 1_555 1_555
H21_3 C20_3 1_555 1_555
C21_3 C18_3 1_555 1_555
O57_2 C53_3 1_555 1_555
C22_3 O8_3 1_555 1_555
H22_3 C22_3 1_555 1_555
H23_3 C22_3 1_555 1_555
C23_3 H24_3 1_555 1_555
C24_3 C23_3 1_555 1_555
H25_3 C24_3 1_555 1_555
C25_3 C24_3 1_555 1_555
C26_3 C25_3 1_555 1_555
H26_3 C26_3 1_555 1_555
C27_3 C14_3 1_555 1_555
H27_3 C27_3 1_555 1_555
C28_3 O9_3 1_555 1_555
C29_3 O11_3 1_555 1_555
H28_3 C29_3 1_555 1_555
H29_3 C29_3 1_555 1_555
C30_3 C29_3 1_555 1_555
C31_3 C30_3 1_555 1_555
H30_3 C31_3 1_555 1_555
H31_3 C31_3 1_555 1_555
C32_3 C30_3 1_555 1_555
H32_3 C32_3 1_555 1_555
H33_3 C32_3 1_555 1_555
C33_3 C30_3 1_555 1_555
H34_3 C33_3 1_555 1_555
H35_3 C33_3 1_555 1_555
C34_3 H36_3 1_555 1_555
C35_3 C37_3 1_555 1_555
C36_3 C34_3 1_555 1_555
H37_3 C36_3 1_555 1_555
C37_3 C36_3 1_555 1_555
C38_3 C37_3 1_555 1_555
H38_3 C38_3 1_555 1_555
C39_3 C38_3 1_555 1_555
H39_3 C39_3 1_555 1_555
C40_3 O15_3 1_555 1_555
C41_3 C40_3 1_555 1_555
H40_3 C41_3 1_555 1_555
C42_3 C41_3 1_555 1_555
H41_3 C42_3 1_555 1_555
C43_3 C42_3 1_555 1_555
C44_3 C43_3 1_555 1_555
H42_3 C44_3 1_555 1_555
C45_3 C40_3 1_555 1_555
H43_3 C45_3 1_555 1_555
C46_3 C43_3 1_555 1_555
C47_3 O18_3 1_555 1_555
C48_3 C47_3 1_555 1_555
H44_3 C48_3 1_555 1_555
C49_3 C48_3 1_555 1_555
H45_3 C49_3 1_555 1_555
C50_3 C49_3 1_555 1_555
C51_3 C50_3 1_555 1_555
H46_3 C51_3 1_555 1_555
C52_3 C47_3 1_555 1_555
H47_3 C52_3 1_555 1_555
C53_3 O56_3 1_555 1_555
C54_3 O13_3 1_555 1_555
C55_3 C4_3 1_555 1_555
O22_2 C59_3 1_555 1_555
C59_3 O43_2 1_555 1_555
C60_3 H55_3 1_555 1_555
O24_3 C62_3 1_555 1_555
C61_3 C60_3 1_555 1_555
H56_3 C61_3 1_555 1_555
O25_3 C67_3 1_555 1_555
C62_3 C61_3 1_555 1_555
C63_3 C62_3 1_555 1_555
H57_3 C63_3 1_555 1_555
O46 C76_3 1_555 1_555
C64_3 C63_3 1_555 1_555
H58_3 C64_3 1_555 1_555
O28_3 C69_3 1_555 1_555
C65_3 O24_3 1_555 1_555
H59_3 C65_3 1_555 1_555
H60_3 C65_3 1_555 1_555
C66_3 C65_3 1_555 1_555
O47_4 C83_3 1_555 1_555
C67_3 C66_3 1_555 1_555
H61_3 C67_3 1_555 1_555
H62_3 C67_3 1_555 1_555
O31_3 C68_3 1_555 1_555
C68_3 C66_3 1_555 1_555
H63_3 C68_3 1_555 1_555
H64_3 C68_3 1_555 1_555
O32_2 C90_3 1_555 1_555
C69_3 C78_3 1_555 1_555
O33_3 C86_3 1_555 1_555
C70_3 O25_3 1_555 1_555
O51 C90_3 1_555 1_555
C71_3 C70_3 1_555 1_555
H65_3 C71_3 1_555 1_555
O35_3 C87_3 1_555 1_555
C72_3 C71_3 1_555 1_555
H66_3 C72_3 1_555 1_555
O53_2 C101_3 1_555 1_555
C73_3 C72_3 1_555 1_555
O55_2 C101_3 1_555 1_555
C74_3 C73_3 1_555 1_555
H67_3 C74_3 1_555 1_555
O38_3 C88_3 1_555 1_555
C75_3 C70_3 1_555 1_555
H68_3 C75_3 1_555 1_555
O56_4 C108_3 1_555 1_555
C76_3 C73_3 1_555 1_555
O58_2 C108_3 1_555 1_555
C77_3 O28_3 1_555 1_555
H69_3 C77_3 1_555 1_555
H70_3 C77_3 1_555 1_555
C78_3 H71_3 1_555 1_555
C79_3 C78_3 1_555 1_555
H72_3 C79_3 1_555 1_555
C80_3 C79_3 1_555 1_555
C81_3 C80_3 1_555 1_555
H73_3 C81_3 1_555 1_555
C82_3 C69_3 1_555 1_555
H74_3 C82_3 1_555 1_555
C83_3 O29_3 1_555 1_555
C84_3 O31_3 1_555 1_555
H75_3 C84_3 1_555 1_555
H76_3 C84_3 1_555 1_555
C85_3 C84_3 1_555 1_555
C86_3 C85_3 1_555 1_555
H77_3 C86_3 1_555 1_555
H78_3 C86_3 1_555 1_555
C87_3 C85_3 1_555 1_555
H79_3 C87_3 1_555 1_555
H80_3 C87_3 1_555 1_555
C88_3 C85_3 1_555 1_555
H81_3 C88_3 1_555 1_555
H82_3 C88_3 1_555 1_555
C89_3 H83_3 1_555 1_555
C90_3 C92_3 1_555 1_555
C91_3 C89_3 1_555 1_555
H84_3 C91_3 1_555 1_555
C92_3 C91_3 1_555 1_555
C93_3 C92_3 1_555 1_555
H85_3 C93_3 1_555 1_555
C94_3 C93_3 1_555 1_555
H86_3 C94_3 1_555 1_555
C95_3 O35_3 1_555 1_555
C96_3 C95_3 1_555 1_555
H87_3 C96_3 1_555 1_555
C97_3 C96_3 1_555 1_555
H88_3 C97_3 1_555 1_555
C98_3 C97_3 1_555 1_555
C99_3 C98_3 1_555 1_555
H89_3 C99_3 1_555 1_555
C100_3 C95_3 1_555 1_555
H90_3 C100_3 1_555 1_555
C101_3 C98_3 1_555 1_555
C102_3 O38_3 1_555 1_555
C103_3 C102_3 1_555 1_555
H91_3 C103_3 1_555 1_555
C104_3 C103_3 1_555 1_555
H92_3 C104_3 1_555 1_555
C105_3 C104_3 1_555 1_555
C106_3 C105_3 1_555 1_555
H93_3 C106_3 1_555 1_555
C107_3 C102_3 1_555 1_555
H94_3 C107_3 1_555 1_555
C108_3 C105_3 1_555 1_555
C109_3 O33_3 1_555 1_555
C110_3 C59_3 1_555 1_555
Er8 O22_2 1_555 1_555
O42_2 Er8_2 1_555 1_555
O49_2 Er8_2 1_555 1_555
C5_3 C55_3 1_555 1_555
C9_3 C55_3 1_555 1_555
C11_3 C22_3 1_555 1_555
C19_3 C20_3 1_555 1_555
C25_3 C28_3 1_555 1_555
C26_3 C27_3 1_555 1_555
C34_3 C54_3 1_555 1_555
C39_3 C54_3 1_555 1_555
C44_3 C45_3 1_555 1_555
C50_3 C53_3 1_555 1_555
C51_3 C52_3 1_555 1_555
C60_3 C110_3 1_555 1_555
C64_3 C110_3 1_555 1_555
C66_3 C77_3 1_555 1_555
O32_2 Er8 1_555 1_555
C74_3 C75_3 1_555 1_555
C80_3 C83_3 1_555 1_555
C81_3 C82_3 1_555 1_555
C89_3 C109_3 1_555 1_555
C94_3 C109_3 1_555 1_555
C99_3 C100_3 1_555 1_555
C106_3 C107_3 1_555 1_555
H51_4 C57_4 1_555 1_555
H53_4 C57_4 1_555 1_555
O42_2 C59_4 1_555 1_555
C59_4 O43_4 1_555 1_555
C60_4 H55_4 1_555 1_555
O24_4 C62_4 1_555 1_555
C61_4 C60_4 1_555 1_555
H56_4 C61_4 1_555 1_555
O25_4 C67_4 1_555 1_555
C62_4 C61_4 1_555 1_555
O45 C76_4 1_555 1_555
C63_4 C62_4 1_555 1_555
H57_4 C63_4 1_555 1_555
O46_3 C76_4 1_555 1_555
C64_4 C63_4 1_555 1_555
H58_4 C64_4 1_555 1_555
O28_4 C69_4 1_555 1_555
C65_4 O24_4 1_555 1_555
H59_4 C65_4 1_555 1_555
H60_4 C65_4 1_555 1_555
C66_4 C65_4 1_555 1_555
C67_4 C66_4 1_555 1_555
H61_4 C67_4 1_555 1_555
H62_4 C67_4 1_555 1_555
O31_4 C68_4 1_555 1_555
C68_4 C66_4 1_555 1_555
H63_4 C68_4 1_555 1_555
H64_4 C68_4 1_555 1_555
O49_2 C90_4 1_555 1_555
C69_4 C78_4 1_555 1_555
O33_4 C86_4 1_555 1_555
C70_4 O25_4 1_555 1_555
O51_3 C90_4 1_555 1_555
C71_4 C70_4 1_555 1_555
H65_4 C71_4 1_555 1_555
C72_4 C71_4 1_555 1_555
H66_4 C72_4 1_555 1_555
C73_4 C72_4 1_555 1_555
C74_4 C73_4 1_555 1_555
H67_4 C74_4 1_555 1_555
C75_4 C70_4 1_555 1_555
H68_4 C75_4 1_555 1_555
C76_4 C73_4 1_555 1_555
C77_4 O28_4 1_555 1_555
H69_4 C77_4 1_555 1_555
H70_4 C77_4 1_555 1_555
C78_4 H71_4 1_555 1_555
C84_4 O31_4 1_555 1_555
H75_4 C84_4 1_555 1_555
H76_4 C84_4 1_555 1_555
H78_4 C86_4 1_555 1_555
C89_4 H83_4 1_555 1_555
C90_4 C92_4 1_555 1_555
C91_4 C89_4 1_555 1_555
H84_4 C91_4 1_555 1_555
C92_4 C91_4 1_555 1_555
C93_4 C92_4 1_555 1_555
H85_4 C93_4 1_555 1_555
C94_4 C93_4 1_555 1_555
H86_4 C94_4 1_555 1_555
C109_4 O33_4 1_555 1_555
C110_4 C59_4 1_555 1_555
C60_4 C110_4 1_555 1_555
C64_4 C110_4 1_555 1_555
C66_4 C77_4 1_555 1_555
C74_4 C75_4 1_555 1_555
C89_4 C109_4 1_555 1_555
C94_4 C109_4 1_555 1_555
Er10 O21_4 1_555 1_555
O21_4 C58_4 1_555 1_555
N2_4 C56_4 1_555 1_555
C56_4 H48_4 1_555 1_555
H50_4 C56_4 1_555 1_555
C58_4 N2_4 1_555 1_555
H54_4 C58_4 1_555 1_555
O52 C46_4 1_555 1_555
H40_4 C41_4 1_555 1_555
C42_4 C41_4 1_555 1_555
H41_4 C42_4 1_555 1_555
O47_2 C83_4 1_555 1_555
O35_4 C87_4 1_555 1_555
O38_4 C88_4 1_555 1_555
O56_2 C108_4 1_555 1_555
O58 C108_4 1_555 1_555
H72_4 C79_4 1_555 1_555
C80_4 C79_4 1_555 1_555
C81_4 C80_4 1_555 1_555
H73_4 C81_4 1_555 1_555
H74_4 C82_4 1_555 1_555
C83_4 O29_4 1_555 1_555
C87_4 C85_4 1_555 1_555
H79_4 C87_4 1_555 1_555
H80_4 C87_4 1_555 1_555
C88_4 C85_4 1_555 1_555
H81_4 C88_4 1_555 1_555
H82_4 C88_4 1_555 1_555
C95_4 O35_4 1_555 1_555
C99_4 C98_4 1_555 1_555
H89_4 C99_4 1_555 1_555
C100_4 C95_4 1_555 1_555
H90_4 C100_4 1_555 1_555
C102_4 O38_4 1_555 1_555
C103_4 C102_4 1_555 1_555
H91_4 C103_4 1_555 1_555
C104_4 C103_4 1_555 1_555
H92_4 C104_4 1_555 1_555
C105_4 C104_4 1_555 1_555
C106_4 C105_4 1_555 1_555
H93_4 C106_4 1_555 1_555
C107_4 C102_4 1_555 1_555
H94_4 C107_4 1_555 1_555
C108_4 C105_4 1_555 1_555
C80_4 C83_4 1_555 1_555
C81_4 C82_4 1_555 1_555
C99_4 C100_4 1_555 1_555
C106_4 C107_4 1_555 1_555
H4_4 C2_4 1_555 1_555
H6_4 C2_4 1_555 1_555
O41_2 C4_4 1_555 1_555
C4_4 O43_3 1_555 1_555
C5_4 H8_4 1_555 1_555
O4_4 C7_4 1_555 1_555
C6_4 C5_4 1_555 1_555
H9_4 C6_4 1_555 1_555
O5_4 C12_4 1_555 1_555
C7_4 C6_4 1_555 1_555
O44 C21_4 1_555 1_555
C8_4 C7_4 1_555 1_555
H10_4 C8_4 1_555 1_555
O46_4 C21_4 1_555 1_555
C9_4 C8_4 1_555 1_555
H11_4 C9_4 1_555 1_555
O8_4 C14_4 1_555 1_555
C10_4 O4_4 1_555 1_555
H12_4 C10_4 1_555 1_555
H13_4 C10_4 1_555 1_555
C11_4 C10_4 1_555 1_555
C12_4 C11_4 1_555 1_555
H14_4 C12_4 1_555 1_555
H15_4 C12_4 1_555 1_555
O11_4 C13_4 1_555 1_555
C13_4 C11_4 1_555 1_555
H16_4 C13_4 1_555 1_555
H17_4 C13_4 1_555 1_555
O48_2 C35_4 1_555 1_555
C14_4 C23_4 1_555 1_555
O13_4 C31_4 1_555 1_555
C15_4 O5_4 1_555 1_555
O51_4 C35_4 1_555 1_555
C16_4 C15_4 1_555 1_555
H18_4 C16_4 1_555 1_555
C17_4 C16_4 1_555 1_555
H19_4 C17_4 1_555 1_555
C18_4 C17_4 1_555 1_555
C19_4 C18_4 1_555 1_555
H20_4 C19_4 1_555 1_555
C20_4 C15_4 1_555 1_555
H21_4 C20_4 1_555 1_555
C21_4 C18_4 1_555 1_555
C22_4 O8_4 1_555 1_555
H22_4 C22_4 1_555 1_555
H23_4 C22_4 1_555 1_555
C23_4 H24_4 1_555 1_555
C29_4 O11_4 1_555 1_555
H28_4 C29_4 1_555 1_555
H29_4 C29_4 1_555 1_555
H31_4 C31_4 1_555 1_555
C34_4 H36_4 1_555 1_555
C35_4 C37_4 1_555 1_555
C36_4 C34_4 1_555 1_555
H37_4 C36_4 1_555 1_555
C37_4 C36_4 1_555 1_555
C38_4 C37_4 1_555 1_555
H38_4 C38_4 1_555 1_555
C39_4 C38_4 1_555 1_555
H39_4 C39_4 1_555 1_555
C54_4 O13_4 1_555 1_555
C55_4 C4_4 1_555 1_555
C5_4 C55_4 1_555 1_555
C9_4 C55_4 1_555 1_555
C11_4 C22_4 1_555 1_555
C19_4 C20_4 1_555 1_555
C34_4 C54_4 1_555 1_555
C39_4 C54_4 1_555 1_555
Er8 O1_4 1_555 1_555
O1_4 C3_4 1_555 1_555
N1_4 C1_4 1_555 1_555
C1_4 H1_4 1_555 1_555
H3_4 C1_4 1_555 1_555
C3_4 N1_4 1_555 1_555
H7_4 C3_4 1_555 1_555
O9_4 Er8 1_555 1_555
O47 C28_4 1_555 1_555
O15_4 C32_4 1_555 1_555
O18_4 C33_4 1_555 1_555
O57 C53_4 1_555 1_555
H25_4 C24_4 1_555 1_555
C25_4 C24_4 1_555 1_555
C26_4 C25_4 1_555 1_555
H26_4 C26_4 1_555 1_555
H27_4 C27_4 1_555 1_555
C28_4 O9_4 1_555 1_555
C32_4 C30_4 1_555 1_555
H32_4 C32_4 1_555 1_555
H33_4 C32_4 1_555 1_555
C33_4 C30_4 1_555 1_555
H34_4 C33_4 1_555 1_555
H35_4 C33_4 1_555 1_555
C40_4 O15_4 1_555 1_555
C44_4 C43_4 1_555 1_555
H42_4 C44_4 1_555 1_555
C45_4 C40_4 1_555 1_555
H43_4 C45_4 1_555 1_555
C47_4 O18_4 1_555 1_555
C48_4 C47_4 1_555 1_555
H44_4 C48_4 1_555 1_555
C49_4 C48_4 1_555 1_555
H45_4 C49_4 1_555 1_555
C50_4 C49_4 1_555 1_555
C51_4 C50_4 1_555 1_555
H46_4 C51_4 1_555 1_555
C52_4 C47_4 1_555 1_555
H47_4 C52_4 1_555 1_555
C53_4 O56 1_555 1_555
O53 C101_4 1_555 1_555
H87_4 C96_4 1_555 1_555
C97_4 C96_4 1_555 1_555
H88_4 C97_4 1_555 1_555
C25_4 C28_4 1_555 1_555
C26_4 C27_4 1_555 1_555
C44_4 C45_4 1_555 1_555
C50_4 C53_4 1_555 1_555
C51_4 C52_4 1_555 1_555

#END
