
###############################################################################
#
# This file contains modified crystal structure data generated from the
# MOF subset of the Cambridge Structural Database (CSD) v543 
# hosted by the Cambridge Crystallographic Data Centre (CCDC).
#
# This work is licensed under the Creative Commons
# Attribution-NonCommercial-ShareAlike 4.0 International License.
# To view a copy of this license, visit
# http://creativecommons.org/licenses/by-nc-sa/4.0/
# or send a letter to
# Creative Commons, PO Box 1866, Mountain View, CA 94042, USA.
#
# CIF created using the CSD Python API on 29 September 2022
# The structure has been converted into the P1 space group
# The structure has a 3D framework
# The original CSD entry ESIDOB is in the monoclinic crystal system
# The framework has been calculated to contain at least 10.0% void space
# The void calculation uses a probe of radius 1.32A, grid spacing 0.4
#
###############################################################################

data_ESIDOB
_chemical_formula_moiety         '(C60 H32 In9 N4 O38)n'
_symmetry_cell_setting           triclinic
_symmetry_space_group_name_H-M   'P 1'
_symmetry_Int_Tables_number      1
_space_group_name_Hall           'P 1'
loop_
_symmetry_equiv_pos_site_id
_symmetry_equiv_pos_as_xyz
1 x,y,z
_cell_length_a                   7.2776(7)
_cell_length_b                   22.060(2)
_cell_length_c                   15.0234(16)
_cell_angle_alpha                90
_cell_angle_beta                 98.687(6)
_cell_angle_gamma                90
_cell_volume                     2384.25
loop_
_atom_site_label
_atom_site_type_symbol
_atom_site_fract_x
_atom_site_fract_y
_atom_site_fract_z
In7 In 0.0000 -0.0000 0.5000
C1 C 0.2932(13) 0.4752(5) 0.1687(7)
C2 C 0.3473(12) 0.4570(4) 0.2652(7)
C3 C 0.5215(14) 0.4731(5) 0.3108(7)
H1 H 0.6021 0.4959 0.2818
C4 C 0.2262(13) 0.4228(4) 0.3093(7)
H2 H 0.1076 0.4131 0.2806
C5 C 0.5752(13) 0.4552(4) 0.3997(7)
C6 C 0.4567(14) 0.4209(4) 0.4435(7)
H3 H 0.4907 0.4095 0.5033
C7 C 0.2864(14) 0.4038(4) 0.3959(8)
C8 C 0.3509(15) 0.2785(5) 0.4378(9)
H4 H 0.4521 0.3005 0.4242
C9 C 0.1921(14) 0.3078(4) 0.4453(7)
C10 C 0.3671(14) 0.2172(5) 0.4497(9)
H5 H 0.4781 0.1980 0.4432
C11 C 0.0431(14) 0.2734(5) 0.4648(10)
C12 C 0.7627(16) 0.4737(5) 0.4449(8)
C13 C 0.2199(13) 0.1835(4) 0.4714(8)
C14 C 0.2334(12) 0.1162(4) 0.4851(7)
C15 C 0.0523(16) 0.2124(5) 0.4765(10)
In1 In 0.0000 0.5000 0.0000
In2 In 0.5000 0.5000 0.0000
O2 O 0.1308(9) 0.4692(3) 0.1341(5)
O3 O 0.4210(11) 0.4963(3) 0.1320(6)
O4 O 0.1623(10) 0.3695(3) 0.4392(5)
O5 O 0.8066(11) 0.4564(4) 0.5264(6)
H8 H 0.9147 0.4659 0.5447
O6 O 0.8646(13) 0.5038(4) 0.4031(7)
O7 O 0.3804(10) 0.0904(3) 0.4750(6)
O8 O 0.0926(11) 0.0918(3) 0.5104(6)
In4 In 0.5000 -0.0000 0.5000
O21 O 0.7686(8) 0.5289(3) 0.0541(5)
O23 O 0.1196(10) 0.5904(3) 0.0250(6)
O26 O 0.5926(11) 0.4082(3) 0.0104(6)
In1_2 In 0.0000 0.5000 1.0000
In2_2 In 0.5000 0.5000 1.0000
O1 O 0.2314(8) 0.4711(3) 0.9459(5)
H7 H 0.1702 0.4536 0.8913
H14 H 0.0510 0.8095 0.5123
N2 N 0.1403(18) 0.6979(6) 0.5390(14)
O19 O 0.219(2) 0.7072(9) 0.4728(16)
O20 O 0.2020(19) 0.6656(7) 0.5988(16)
In7_2 In -0.0000 1.0000 0.5000
O22 O 0.5790(11) 0.5037(3) 0.8680(6)
O25 O 0.4074(11) 0.5918(3) 0.9896(6)
In4_2 In 0.5000 1.0000 0.5000
In7_3 In 1.0000 -0.0000 0.5000
H6 H 0.9490 0.1905 0.4877
In1_3 In 1.0000 0.5000 0.0000
N1 N 0.8597(18) 0.3021(6) 0.4610(14)
O9 O 0.781(2) 0.2928(9) 0.5272(16)
O10 O 0.7980(19) 0.3344(7) 0.4012(16)
H15 H 0.8298 0.5464 0.1087
In1_4 In 1.0000 0.5000 1.0000
C16 C 0.7068(13) 0.5248(5) 0.8313(7)
C17 C 0.6527(12) 0.5430(4) 0.7348(7)
C18 C 0.4785(14) 0.5269(5) 0.6892(7)
H9 H 0.3979 0.5041 0.7182
C19 C 0.7738(13) 0.5772(4) 0.6907(7)
H10 H 0.8924 0.5869 0.7194
C20 C 0.4248(13) 0.5448(4) 0.6003(7)
C21 C 0.5433(14) 0.5791(4) 0.5565(7)
H11 H 0.5093 0.5905 0.4967
C22 C 0.7136(14) 0.5962(4) 0.6041(8)
C23 C 0.6491(15) 0.7215(5) 0.5622(9)
H12 H 0.5479 0.6995 0.5758
C24 C 0.8079(14) 0.6922(4) 0.5547(7)
C25 C 0.6329(14) 0.7828(5) 0.5503(9)
H13 H 0.5219 0.8020 0.5568
C26 C 0.9569(14) 0.7266(5) 0.5352(10)
C27 C 0.2373(16) 0.5263(5) 0.5551(8)
C28 C 0.7801(13) 0.8165(4) 0.5286(8)
C29 C 0.7666(12) 0.8838(4) 0.5149(7)
C30 C 0.9477(16) 0.7876(5) 0.5235(10)
O12 O 0.8692(9) 0.5308(3) 0.8659(5)
O14 O 0.8377(10) 0.6305(3) 0.5608(5)
O15 O 0.1934(11) 0.5436(4) 0.4736(6)
H16 H 0.0853 0.5341 0.4553
O16 O 0.1354(13) 0.4962(4) 0.5969(7)
O17 O 0.6196(10) 0.9096(3) 0.5250(6)
O18 O 0.9074(11) 0.9082(3) 0.4896(6)
In7_4 In 1.0000 1.0000 0.5000
O24 O 0.8804(10) 0.4096(3) 0.9750(6)
O15_2 O 0.3066(11) 0.0436(4) 0.0264(6)
H16_2 H 0.4147 0.0341 0.0447
C18_2 C 0.0215(14) 0.0269(5) 0.8108(7)
H9_2 H 0.1021 0.0041 0.7818
C20_2 C 0.0752(13) 0.0448(4) 0.8997(7)
C27_2 C 0.2627(16) 0.0263(5) 0.9449(8)
O16_2 O 0.3646(13) 0.9962(4) 0.9031(7)
H11_2 H 0.9907 0.0905 0.0033
O19_2 O 0.281(2) 0.2072(9) 0.0272(16)
C16_2 C 0.7932(13) 0.0248(5) 0.6687(7)
C17_2 C 0.8473(12) 0.0430(4) 0.7652(7)
C19_2 C 0.7262(13) 0.0772(4) 0.8093(7)
H10_2 H 0.6076 0.0869 0.7806
C21_2 C 0.9567(14) 0.0791(4) 0.9435(7)
C22_2 C 0.7864(14) 0.0962(4) 0.8959(8)
C23_2 C 0.8509(15) 0.2215(5) 0.9378(9)
H12_2 H 0.9521 0.1995 0.9242
C24_2 C 0.6921(14) 0.1922(4) 0.9453(7)
C25_2 C 0.8671(14) 0.2828(5) 0.9497(9)
H13_2 H 0.9781 0.3020 0.9432
C26_2 C 0.5431(14) 0.2266(5) 0.9648(10)
C28_2 C 0.7199(13) 0.3165(4) 0.9714(8)
C29_2 C 0.7334(12) 0.3838(4) 0.9851(7)
C30_2 C 0.5523(16) 0.2876(5) 0.9765(10)
H14_2 H 0.4490 0.3095 0.9877
N2_2 N 0.3597(18) 0.1979(6) 0.9610(14)
O11 O 0.7314(8) 0.0289(3) 0.4459(5)
H15_2 H 0.6702 0.0464 0.3913
O12_2 O 0.6308(9) 0.0308(3) 0.6341(5)
O13 O 0.9210(11) 0.0037(3) 0.6320(6)
O14_2 O 0.6623(10) 0.1305(3) 0.9392(5)
O20_2 O 0.2980(19) 0.1656(7) 0.9012(16)
C1_2 C 0.2068(13) 0.9752(5) 0.3313(7)
C2_2 C 0.1527(12) 0.9570(4) 0.2348(7)
C4_2 C 0.2738(13) 0.9228(4) 0.1907(7)
H2_2 H 0.3924 0.9131 0.2194
C6_2 C 0.0433(14) 0.9209(4) 0.0565(7)
C7_2 C 0.2136(14) 0.9038(4) 0.1041(8)
C8_2 C 0.1491(15) 0.7785(5) 0.0622(9)
H4_2 H 0.0479 0.8005 0.0758
C9_2 C 0.3079(14) 0.8078(4) 0.0547(7)
C10_2 C 0.1329(14) 0.7172(5) 0.0503(9)
H5_2 H 0.0219 0.6980 0.0568
C11_2 C 0.4569(14) 0.7734(5) 0.0352(10)
C13_2 C 0.2801(13) 0.6835(4) 0.0286(8)
C14_2 C 0.2666(12) 0.6162(4) 0.0149(7)
C15_2 C 0.4477(16) 0.7124(5) 0.0235(10)
H6_2 H 0.5510 0.6905 0.0123
N1_2 N 0.6403(18) 0.8021(6) 0.0390(14)
O1_2 O 0.2686(8) 0.9711(3) 0.5541(5)
H7_2 H 0.3298 0.9536 0.6087
O2_2 O 0.3692(9) 0.9692(3) 0.3659(5)
O3_2 O 0.0790(11) 0.9963(3) 0.3680(6)
O4_2 O 0.3377(10) 0.8695(3) 0.0608(5)
O10_2 O 0.7020(19) 0.8344(7) 0.0988(16)
H3_2 H 0.0093 0.9095 0.9967
O9_2 O 0.719(2) 0.7928(9) 0.9728(16)
O6_2 O 0.6354(13) 0.0038(4) 0.0969(7)
C3_2 C 0.9785(14) 0.9731(5) 0.1892(7)
H1_2 H 0.8979 0.9959 0.2182
C5_2 C 0.9248(13) 0.9552(4) 0.1003(7)
C12_2 C 0.7373(16) 0.9737(5) 0.0551(8)
O5_2 O 0.6934(11) 0.9564(4) 0.9736(6)
H8_2 H 0.5853 0.9659 0.9553
loop_
_geom_bond_atom_site_label_1
_geom_bond_atom_site_label_2
_geom_bond_site_symmetry_1
_geom_bond_site_symmetry_2
C1 C2 1_555 1_555
C2 C3 1_555 1_555
C3 H1 1_555 1_555
C4 C2 1_555 1_555
H2 C4 1_555 1_555
C5 C3 1_555 1_555
C6 C5 1_555 1_555
H3 C6 1_555 1_555
C7 C4 1_555 1_555
C8 H4 1_555 1_555
C9 C8 1_555 1_555
C10 C8 1_555 1_555
H5 C10 1_555 1_555
C11 C9 1_555 1_555
C12 C5 1_555 1_555
C13 C10 1_555 1_555
C14 C13 1_555 1_555
C15 C11 1_555 1_555
O2 C1 1_555 1_555
O3 C1 1_555 1_555
O4 C7 1_555 1_555
O5 C12 1_555 1_555
H8 O5 1_555 1_555
O6 C12 1_555 1_555
O7 C14 1_555 1_555
O8 C14 1_555 1_555
In4 O7 1_555 1_555
In7 O8 1_555 1_555
O21 In2 1_555 1_555
O23 In1 1_555 1_555
O26 In2 1_555 1_555
C6 C7 1_555 1_555
C9 O4 1_555 1_555
C13 C15 1_555 1_555
In1 O2 1_555 1_555
In2 O3 1_555 1_555
In1_2 O1 1_555 1_555
In2_2 O1 1_555 1_555
O1 H7 1_555 1_555
O19 N2 1_555 1_555
O20 N2 1_555 1_555
O22 In2_2 1_555 1_555
O25 In2_2 1_555 1_555
O9 N1 1_555 1_555
O10 N1 1_555 1_555
O21 In1_3 1_555 1_555
H15 O21 1_555 1_555
C16 C17 1_555 1_555
C17 C18 1_555 1_555
C18 H9 1_555 1_555
C19 C17 1_555 1_555
H10 C19 1_555 1_555
C20 C18 1_555 1_555
C21 C20 1_555 1_555
H11 C21 1_555 1_555
C22 C19 1_555 1_555
C23 H12 1_555 1_555
C24 C23 1_555 1_555
C25 C23 1_555 1_555
H13 C25 1_555 1_555
C26 C24 1_555 1_555
C27 C20 1_555 1_555
C28 C25 1_555 1_555
C29 C28 1_555 1_555
C30 C26 1_555 1_555
O12 In1_4 1_555 1_555
O22 C16 1_555 1_555
O14 C22 1_555 1_555
O15 C27 1_555 1_555
H16 O15 1_555 1_555
O16 C27 1_555 1_555
O17 C29 1_555 1_555
O18 C29 1_555 1_555
In4_2 O17 1_555 1_555
In7_4 O18 1_555 1_555
O24 In1_4 1_555 1_555
C16 O12 1_555 1_555
C21 C22 1_555 1_555
C24 O14 1_555 1_555
C28 C30 1_555 1_555
H16_2 O15_2 1_555 1_555
C18_2 H9_2 1_555 1_555
C20_2 C18_2 1_555 1_555
C27_2 C20_2 1_555 1_555
C16_2 C17_2 1_555 1_555
C19_2 C17_2 1_555 1_555
H10_2 C19_2 1_555 1_555
C22_2 C19_2 1_555 1_555
C23_2 H12_2 1_555 1_555
C24_2 C23_2 1_555 1_555
C25_2 C23_2 1_555 1_555
H13_2 C25_2 1_555 1_555
C26_2 C24_2 1_555 1_555
C28_2 C25_2 1_555 1_555
C29_2 C28_2 1_555 1_555
C30_2 C26_2 1_555 1_555
H14_2 C30_2 1_555 1_555
N2_2 C26_2 1_555 1_555
O11 In4 1_555 1_555
H15_2 O11 1_555 1_555
O12_2 In4 1_555 1_555
O13 C16_2 1_555 1_555
O14_2 C22_2 1_555 1_555
O24 C29_2 1_555 1_555
O20_2 N2_2 1_555 1_555
In7_3 O11 1_555 1_555
C16_2 O12_2 1_555 1_555
C21_2 C22_2 1_555 1_555
C24_2 O14_2 1_555 1_555
C28_2 C30_2 1_555 1_555
O13 In7_3 1_555 1_555
C1_2 C2_2 1_555 1_555
C4_2 C2_2 1_555 1_555
H2_2 C4_2 1_555 1_555
C7_2 C4_2 1_555 1_555
C8_2 H4_2 1_555 1_555
C9_2 C8_2 1_555 1_555
C10_2 C8_2 1_555 1_555
H5_2 C10_2 1_555 1_555
C11_2 C9_2 1_555 1_555
C13_2 C10_2 1_555 1_555
C14_2 C13_2 1_555 1_555
C15_2 C11_2 1_555 1_555
H6_2 C15_2 1_555 1_555
In4_2 O1_2 1_555 1_555
In7_2 O1_2 1_555 1_555
N1_2 C11_2 1_555 1_555
O1_2 H7_2 1_555 1_555
O2_2 C1_2 1_555 1_555
O3_2 C1_2 1_555 1_555
O4_2 C7_2 1_555 1_555
O23 C14_2 1_555 1_555
O10_2 N1_2 1_555 1_555
C6_2 C7_2 1_555 1_555
C9_2 O4_2 1_555 1_555
C13_2 C15_2 1_555 1_555
In4_2 O2_2 1_555 1_555
In7_2 O3_2 1_555 1_555
C3_2 H1_2 1_555 1_555
C5_2 C3_2 1_555 1_555
C12_2 C5_2 1_555 1_555
H8_2 O5_2 1_555 1_555

#END
