
###############################################################################
#
# This file contains modified crystal structure data generated from the
# MOF subset of the Cambridge Structural Database (CSD) v543 
# hosted by the Cambridge Crystallographic Data Centre (CCDC).
#
# This work is licensed under the Creative Commons
# Attribution-NonCommercial-ShareAlike 4.0 International License.
# To view a copy of this license, visit
# http://creativecommons.org/licenses/by-nc-sa/4.0/
# or send a letter to
# Creative Commons, PO Box 1866, Mountain View, CA 94042, USA.
#
# CIF created using the CSD Python API on 29 September 2022
# The structure has been converted into the P1 space group
# The structure has a 3D framework
# The original CSD entry ESIFIX is in the rhombohedral crystal system
# The framework has been calculated to contain at least 10.0% void space
# The void calculation uses a probe of radius 1.32A, grid spacing 0.4
#
###############################################################################

data_ESIFIX
_chemical_formula_moiety         '(C108 H102 Cd14 N66 O36)n'
_symmetry_cell_setting           triclinic
_symmetry_space_group_name_H-M   'P 1'
_symmetry_Int_Tables_number      1
_space_group_name_Hall           'P 1'
loop_
_symmetry_equiv_pos_site_id
_symmetry_equiv_pos_as_xyz
1 x,y,z
_cell_length_a                   18.7794(7)
_cell_length_b                   18.7794(7)
_cell_length_c                   19.1228(7)
_cell_angle_alpha                90
_cell_angle_beta                 90
_cell_angle_gamma                120
_cell_volume                     5840.44
loop_
_atom_site_label
_atom_site_type_symbol
_atom_site_fract_x
_atom_site_fract_y
_atom_site_fract_z
C1 C 0.0520(3) 0.7291(3) 0.7891(2)
C2 C 0.0173(3) 0.5686(3) 0.9061(2)
C3 C 0.0351(3) 0.6206(3) 0.8427(2)
C4 C 0.0499(4) 0.6142(3) 0.7731(2)
C5 C 0.0561(4) 0.5513(3) 0.7312(2)
C6 C 0.0613(4) 0.8113(3) 0.7757(3)
H1 H 0.121(4) 0.859(4) 0.780(3)
H2 H 0.043(4) 0.820(4) 0.733(4)
H3 H 0.027(4) 0.829(4) 0.812(3)
Cd1 Cd 0.00147(2) 0.71851(2) 0.95528(2)
N1 N 0.0599(3) 0.6834(2) 0.73934(18)
N2 N 0.0379(2) 0.6943(2) 0.85192(17)
N3 N 0.0162(4) 0.4985(3) 0.9005(3)
H4 H 0.013(3) 0.476(3) 0.935(3)
H5 H 0.028(3) 0.483(3) 0.860(3)
N4 N 0.0645(4) 0.5633(3) 0.6641(2)
H6 H 0.067(6) 0.525(4) 0.641(4)
O1 O 0.0033(2) 0.5933(2) 0.96277(16)
O2 O 0.0517(3) 0.4890(4) 0.76331(17)
Cd2 Cd 0.05037(3) 0.66520(2) 0.62195(2)
Cd3 Cd 0.05184(2) 0.38371(3) 0.71139(2)
N6 N 0.1034(3) 0.8345(5) 0.9974(2)
N5 N 0.9833(2) 0.7098(4) 0.07267(18)
O3 O 0.8960(5) 0.7184(3) 0.90336(17)
N5_2 N 0.2902(4) 0.2734(4) 0.07267(18)
C1_2 C 0.2709(3) 0.3229(4) 0.7891(2)
C2_2 C 0.4314(3) 0.4487(4) 0.9061(2)
C3_2 C 0.3794(3) 0.4145(4) 0.8427(2)
C4_2 C 0.3858(3) 0.4357(5) 0.7731(2)
C5_2 C 0.4487(3) 0.5048(5) 0.7312(2)
C6_2 C 0.1887(3) 0.2500(5) 0.7757(3)
H1_2 H 0.141(4) 0.262(6) 0.780(3)
H2_2 H 0.180(4) 0.223(6) 0.733(4)
H3_2 H 0.171(4) 0.198(6) 0.812(3)
Cd1_2 Cd 0.28149(2) 0.28296(3) 0.95528(2)
N1_2 N 0.3166(2) 0.3765(4) 0.73934(18)
N2_2 N 0.3057(2) 0.3436(3) 0.85192(17)
N3_2 N 0.5015(3) 0.5177(5) 0.9005(3)
H4_2 H 0.524(3) 0.537(4) 0.935(3)
H5_2 H 0.517(3) 0.545(4) 0.860(3)
N4_2 N 0.4367(3) 0.5012(5) 0.6641(2)
H6_2 H 0.475(4) 0.542(7) 0.641(4)
O1_2 O 0.4067(2) 0.4100(3) 0.96277(16)
O2_2 O 0.5110(4) 0.5627(5) 0.76331(17)
Cd2_2 Cd 0.33480(2) 0.38518(4) 0.62195(2)
Cd3_2 Cd 0.61629(3) 0.66814(4) 0.71139(2)
N6_2 N 0.1655(5) 0.2688(6) 0.9974(2)
O3_2 O 0.2816(3) 0.1777(6) 0.90336(17)
N5_3 N 0.7266(4) 0.0167(2) 0.07267(18)
C1_3 C 0.6771(4) 0.9480(3) 0.7891(2)
C2_3 C 0.5513(4) 0.9827(3) 0.9061(2)
C3_3 C 0.5855(4) 0.9649(3) 0.8427(2)
C4_3 C 0.5643(5) 0.9501(4) 0.7731(2)
C5_3 C 0.4952(5) 0.9439(4) 0.7312(2)
C6_3 C 0.7500(5) 0.9387(4) 0.7757(3)
H1_3 H 0.738(6) 0.879(4) 0.780(3)
H2_3 H 0.777(6) 0.957(4) 0.733(4)
H3_3 H 0.802(6) 0.973(4) 0.812(3)
Cd1_3 Cd 0.71704(3) 0.99853(2) 0.95528(2)
N1_3 N 0.6235(4) 0.9401(3) 0.73934(18)
N2_3 N 0.6564(3) 0.9621(2) 0.85192(17)
N3_3 N 0.4823(5) 0.9838(4) 0.9005(3)
H4_3 H 0.463(4) 0.987(3) 0.935(3)
H5_3 H 0.455(4) 0.972(3) 0.860(3)
N4_3 N 0.4988(5) 0.9355(4) 0.6641(2)
H6_3 H 0.458(7) 0.933(6) 0.641(4)
O1_3 O 0.5900(3) 0.9967(2) 0.96277(16)
O2_3 O 0.4373(5) 0.9483(3) 0.76331(17)
Cd2_3 Cd 0.61482(4) 0.94963(3) 0.62195(2)
Cd3_3 Cd 0.33186(4) 0.94816(2) 0.71139(2)
N6_3 N 0.7312(6) 0.8966(3) 0.9974(2)
C1_4 C 0.7187(3) 0.0624(3) 0.1224(2)
C6_4 C 0.7280(4) 0.1446(3) 0.1090(3)
H1_4 H 0.788(4) 0.192(4) 0.113(3)
H2_4 H 0.710(4) 0.153(4) 0.066(4)
H3_4 H 0.694(4) 0.162(4) 0.145(3)
Cd1_4 Cd 0.66814(2) 0.05184(2) 0.28861(2)
N2_4 N 0.7046(2) 0.0276(2) 0.18525(17)
N5_4 N 0.6499(2) 0.0432(4) 0.40601(18)
N6_4 N 0.7700(3) 0.1679(5) 0.3308(2)
O3_3 O 0.5627(5) 0.0517(3) 0.23669(17)
C2_4 C 0.6840(3) 0.9019(3) 0.2394(2)
C3_4 C 0.7018(3) 0.9539(3) 0.1760(2)
C4_4 C 0.7166(4) 0.9475(3) 0.1064(2)
C5_4 C 0.7228(4) 0.8846(3) 0.0645(2)
N3_4 N 0.6829(4) 0.8318(3) 0.2338(3)
H4_4 H 0.680(3) 0.809(3) 0.268(3)
H5_4 H 0.695(3) 0.816(3) 0.193(3)
O1_4 O 0.6700(2) 0.9266(2) 0.29610(16)
O2_4 O 0.7184(3) 0.8223(4) 0.09664(17)
Cd3_4 Cd 0.71851(2) 0.71704(3) 0.04472(2)
H6_4 H 0.734(6) 0.858(4) 0.974(4)
Cd3_5 Cd 0.28296(3) 0.00147(4) 0.04472(2)
H6_5 H 0.142(4) 0.875(7) 0.974(4)
C1_5 C 0.9376(3) 0.6562(4) 0.1224(2)
C6_5 C 0.8554(3) 0.5833(5) 0.1090(3)
H1_5 H 0.808(4) 0.595(6) 0.113(3)
H2_5 H 0.847(4) 0.556(6) 0.066(4)
H3_5 H 0.838(4) 0.531(6) 0.145(3)
Cd1_5 Cd 0.94816(2) 0.61629(3) 0.28861(2)
N2_5 N 0.9724(2) 0.6769(3) 0.18525(17)
N5_5 N 0.9568(4) 0.6068(4) 0.40601(18)
N6_5 N 0.8321(5) 0.6022(6) 0.3308(2)
O3_4 O 0.9483(3) 0.5110(6) 0.23669(17)
C1_6 C 0.3438(4) 0.2813(3) 0.1224(2)
C2_5 C 0.2180(4) 0.3160(3) 0.2394(2)
C3_5 C 0.2522(4) 0.2982(3) 0.1760(2)
C4_5 C 0.2310(5) 0.2834(4) 0.1064(2)
C5_5 C 0.1619(5) 0.2772(4) 0.0645(2)
C6_6 C 0.4167(5) 0.2720(4) 0.1090(3)
H1_6 H 0.405(6) 0.212(4) 0.113(3)
H2_6 H 0.444(6) 0.290(4) 0.066(4)
H3_6 H 0.469(6) 0.306(4) 0.145(3)
Cd1_6 Cd 0.38371(3) 0.33186(2) 0.28861(2)
N2_6 N 0.3231(3) 0.2954(2) 0.18525(17)
N3_5 N 0.1490(5) 0.3171(4) 0.2338(3)
H4_5 H 0.130(4) 0.320(3) 0.268(3)
H5_5 H 0.122(4) 0.305(3) 0.193(3)
O1_5 O 0.2567(3) 0.3300(2) 0.29610(16)
O2_5 O 0.1040(5) 0.2816(3) 0.09664(17)
N5_6 N 0.3932(4) 0.3501(2) 0.40601(18)
N6_6 N 0.3978(6) 0.2300(3) 0.3308(2)
O3_5 O 0.4890(6) 0.4373(5) 0.23669(17)
H6_6 H 0.125(7) 0.266(6) 0.974(4)
Cd3_6 Cd 0.99853(4) 0.28149(2) 0.04472(2)
C1_7 C 0.3853(3) 0.3958(3) 0.4558(2)
C2_6 C 0.3506(3) 0.2353(3) 0.5728(2)
C3_6 C 0.3684(3) 0.2873(3) 0.5094(2)
C4_6 C 0.3832(4) 0.2809(3) 0.4398(2)
C5_6 C 0.3894(4) 0.2180(3) 0.3979(2)
C6_7 C 0.3946(4) 0.4780(3) 0.4424(3)
H1_7 H 0.454(4) 0.526(4) 0.447(3)
H2_7 H 0.376(4) 0.487(4) 0.400(4)
H3_7 H 0.360(4) 0.496(4) 0.479(3)
N2_7 N 0.3712(2) 0.3610(2) 0.51859(17)
N3_6 N 0.3495(4) 0.1652(3) 0.5672(3)
H4_6 H 0.346(3) 0.143(3) 0.602(3)
H5_6 H 0.361(3) 0.150(3) 0.527(3)
H6_7 H 0.400(6) 0.192(4) 0.308(4)
O1_6 O 0.3366(2) 0.2600(2) 0.62944(16)
O2_6 O 0.3850(3) 0.1557(4) 0.42998(17)
Cd3_7 Cd 0.38518(2) 0.05037(3) 0.37805(2)
O3_6 O 0.2294(5) 0.3850(3) 0.57002(17)
C2_7 C 0.7647(3) 0.1154(4) 0.5728(2)
C3_7 C 0.7127(3) 0.0812(4) 0.5094(2)
C4_7 C 0.7191(3) 0.1024(5) 0.4398(2)
C5_7 C 0.7820(3) 0.1715(5) 0.3979(2)
N2_8 N 0.6390(2) 0.0103(3) 0.51859(17)
N3_7 N 0.8348(3) 0.1844(5) 0.5672(3)
H4_7 H 0.857(3) 0.204(4) 0.602(3)
H5_7 H 0.850(3) 0.212(4) 0.527(3)
H6_8 H 0.808(4) 0.209(7) 0.308(4)
O1_7 O 0.7400(2) 0.0767(3) 0.62944(16)
O2_7 O 0.8443(4) 0.2294(5) 0.42998(17)
Cd3_8 Cd 0.94963(3) 0.33480(4) 0.37805(2)
C1_8 C 0.6042(3) 0.9896(4) 0.4558(2)
C6_8 C 0.5220(3) 0.9167(5) 0.4424(3)
H1_8 H 0.474(4) 0.929(6) 0.447(3)
H2_8 H 0.513(4) 0.890(6) 0.400(4)
H3_8 H 0.504(4) 0.865(6) 0.479(3)
O3_7 O 0.6150(3) 0.8443(6) 0.57002(17)
C1_9 C 0.0104(4) 0.6147(3) 0.4558(2)
C6_9 C 0.0833(5) 0.6054(4) 0.4424(3)
H1_9 H 0.071(6) 0.546(4) 0.447(3)
H2_9 H 0.110(6) 0.624(4) 0.400(4)
H3_9 H 0.135(6) 0.640(4) 0.479(3)
O3_8 O 0.1557(6) 0.7706(5) 0.57002(17)
C2_8 C 0.8846(4) 0.6494(3) 0.5728(2)
C3_8 C 0.9188(4) 0.6316(3) 0.5094(2)
C4_8 C 0.8976(5) 0.6168(4) 0.4398(2)
C5_8 C 0.8285(5) 0.6106(4) 0.3979(2)
N2_9 N 0.9897(3) 0.6288(2) 0.51859(17)
N3_8 N 0.8156(5) 0.6505(4) 0.5672(3)
H4_8 H 0.796(4) 0.654(3) 0.602(3)
H5_8 H 0.788(4) 0.639(3) 0.527(3)
H6_9 H 0.791(7) 0.600(6) 0.308(4)
O1_8 O 0.9233(3) 0.6634(2) 0.62944(16)
O2_8 O 0.7706(5) 0.6150(3) 0.42998(17)
Cd3_9 Cd 0.66520(4) 0.61482(2) 0.37805(2)
N5_7 N 0.0167(2) 0.2902(4) 0.92733(18)
C1_10 C 0.9480(3) 0.2709(3) 0.2109(2)
C2_9 C 0.9827(3) 0.4314(3) 0.0939(2)
C3_9 C 0.9649(3) 0.3794(3) 0.1573(2)
C4_9 C 0.9501(4) 0.3858(3) 0.2269(2)
C5_9 C 0.9439(4) 0.4487(3) 0.2688(2)
C6_10 C 0.9387(4) 0.1887(3) 0.2243(3)
H1_10 H 0.879(4) 0.141(4) 0.220(3)
H2_10 H 0.957(4) 0.180(4) 0.267(4)
H3_10 H 0.973(4) 0.171(4) 0.188(3)
N1_4 N 0.9401(3) 0.3166(2) 0.26066(18)
N2_10 N 0.9621(2) 0.3057(2) 0.14808(17)
N3_9 N 0.9838(4) 0.5015(3) 0.0995(3)
H4_9 H 0.987(3) 0.524(3) 0.065(3)
H5_9 H 0.972(3) 0.517(3) 0.140(3)
N4_4 N 0.9355(4) 0.4367(3) 0.3359(2)
H6_10 H 0.933(6) 0.475(4) 0.359(4)
O1_9 O 0.9967(2) 0.4067(2) 0.03723(16)
N6_7 N 0.8966(3) 0.1655(5) 0.0026(2)
C1_11 C 0.7291(3) 0.6771(4) 0.2109(2)
C2_10 C 0.5686(3) 0.5513(4) 0.0939(2)
C3_10 C 0.6206(3) 0.5855(4) 0.1573(2)
C4_10 C 0.6142(3) 0.5643(5) 0.2269(2)
C5_10 C 0.5513(3) 0.4952(5) 0.2688(2)
C6_11 C 0.8113(3) 0.7500(5) 0.2243(3)
H1_11 H 0.859(4) 0.738(6) 0.220(3)
H2_11 H 0.820(4) 0.777(6) 0.267(4)
H3_11 H 0.829(4) 0.802(6) 0.188(3)
N1_5 N 0.6834(2) 0.6235(4) 0.26066(18)
N2_11 N 0.6943(2) 0.6564(3) 0.14808(17)
N3_10 N 0.4985(3) 0.4823(5) 0.0995(3)
H4_10 H 0.476(3) 0.463(4) 0.065(3)
H5_10 H 0.483(3) 0.455(4) 0.140(3)
N4_5 N 0.5633(3) 0.4988(5) 0.3359(2)
H6_11 H 0.525(4) 0.458(7) 0.359(4)
O1_10 O 0.5933(2) 0.5900(3) 0.03723(16)
N6_8 N 0.8345(5) 0.7312(6) 0.0026(2)
N5_8 N 0.7098(4) 0.7266(4) 0.92733(18)
C1_12 C 0.3229(4) 0.0520(3) 0.2109(2)
C2_11 C 0.4487(4) 0.0173(3) 0.0939(2)
C3_11 C 0.4145(4) 0.0351(3) 0.1573(2)
C4_11 C 0.4357(5) 0.0499(4) 0.2269(2)
C5_11 C 0.5048(5) 0.0561(4) 0.2688(2)
C6_12 C 0.2500(5) 0.0613(4) 0.2243(3)
H1_12 H 0.262(6) 0.121(4) 0.220(3)
H2_12 H 0.223(6) 0.043(4) 0.267(4)
H3_12 H 0.198(6) 0.027(4) 0.188(3)
N1_6 N 0.3765(4) 0.0599(3) 0.26066(18)
N2_12 N 0.3436(3) 0.0379(2) 0.14808(17)
N3_11 N 0.5177(5) 0.0162(4) 0.0995(3)
H4_11 H 0.537(4) 0.013(3) 0.065(3)
H5_11 H 0.545(4) 0.028(3) 0.140(3)
N4_6 N 0.5012(5) 0.0645(4) 0.3359(2)
H6_12 H 0.542(7) 0.067(6) 0.359(4)
O1_11 O 0.4100(3) 0.0033(2) 0.03723(16)
N6_9 N 0.2688(6) 0.1034(3) 0.0026(2)
N5_9 N 0.2734(4) 0.9833(2) 0.92733(18)
H6_13 H 0.266(6) 0.142(4) 0.026(4)
C2_12 C 0.3160(3) 0.0981(3) 0.7606(2)
C3_12 C 0.2982(3) 0.0461(3) 0.8240(2)
C4_12 C 0.2834(4) 0.0525(3) 0.8936(2)
C5_12 C 0.2772(4) 0.1154(3) 0.9355(2)
N3_12 N 0.3171(4) 0.1682(3) 0.7662(3)
H4_12 H 0.320(3) 0.191(3) 0.732(3)
H5_12 H 0.305(3) 0.184(3) 0.807(3)
O1_12 O 0.3300(2) 0.0734(2) 0.70390(16)
C1_13 C 0.2813(3) 0.9376(3) 0.8776(2)
C6_13 C 0.2720(4) 0.8554(3) 0.8910(3)
H1_13 H 0.212(4) 0.808(4) 0.887(3)
H2_13 H 0.290(4) 0.847(4) 0.934(4)
H3_13 H 0.306(4) 0.838(4) 0.855(3)
N2_13 N 0.2954(2) 0.9724(2) 0.81475(17)
N5_10 N 0.3501(2) 0.9568(4) 0.59399(18)
N6_10 N 0.2300(3) 0.8321(5) 0.6692(2)
C1_14 C 0.0624(3) 0.3438(4) 0.8776(2)
C6_14 C 0.1446(3) 0.4167(5) 0.8910(3)
H1_14 H 0.192(4) 0.405(6) 0.887(3)
H2_14 H 0.153(4) 0.444(6) 0.934(4)
H3_14 H 0.162(4) 0.469(6) 0.855(3)
N2_14 N 0.0276(2) 0.3231(3) 0.81475(17)
N5_11 N 0.0432(4) 0.3932(4) 0.59399(18)
N6_11 N 0.1679(5) 0.3978(6) 0.6692(2)
H6_14 H 0.858(4) 0.125(7) 0.026(4)
H6_15 H 0.875(7) 0.734(6) 0.026(4)
C1_15 C 0.6562(4) 0.7187(3) 0.8776(2)
C2_13 C 0.7820(4) 0.6840(3) 0.7606(2)
C3_13 C 0.7478(4) 0.7018(3) 0.8240(2)
C4_13 C 0.7690(5) 0.7166(4) 0.8936(2)
C5_13 C 0.8381(5) 0.7228(4) 0.9355(2)
C6_15 C 0.5833(5) 0.7280(4) 0.8910(3)
H1_15 H 0.595(6) 0.788(4) 0.887(3)
H2_15 H 0.556(6) 0.710(4) 0.934(4)
H3_15 H 0.531(6) 0.694(4) 0.855(3)
N2_15 N 0.6769(3) 0.7046(2) 0.81475(17)
N3_13 N 0.8510(5) 0.6829(4) 0.7662(3)
H4_13 H 0.870(4) 0.680(3) 0.732(3)
H5_13 H 0.878(4) 0.695(3) 0.807(3)
O1_13 O 0.7433(3) 0.6700(2) 0.70390(16)
N5_12 N 0.6068(4) 0.6499(2) 0.59399(18)
N6_12 N 0.6022(6) 0.7700(3) 0.6692(2)
C1_16 C 0.6147(3) 0.6042(3) 0.5442(2)
C2_14 C 0.6494(3) 0.7647(3) 0.4272(2)
C3_14 C 0.6316(3) 0.7127(3) 0.4906(2)
C4_14 C 0.6168(4) 0.7191(3) 0.5602(2)
C5_14 C 0.6106(4) 0.7820(3) 0.6021(2)
C6_16 C 0.6054(4) 0.5220(3) 0.5576(3)
H1_16 H 0.546(4) 0.474(4) 0.553(3)
H2_16 H 0.624(4) 0.513(4) 0.600(4)
H3_16 H 0.640(4) 0.504(4) 0.521(3)
N2_16 N 0.6288(2) 0.6390(2) 0.48141(17)
N3_14 N 0.6505(4) 0.8348(3) 0.4328(3)
H4_14 H 0.654(3) 0.857(3) 0.398(3)
H5_14 H 0.639(3) 0.850(3) 0.473(3)
H6_16 H 0.600(6) 0.808(4) 0.692(4)
O1_14 O 0.6634(2) 0.7400(2) 0.37056(16)
C1_17 C 0.3958(3) 0.0104(4) 0.5442(2)
C6_17 C 0.4780(3) 0.0833(5) 0.5576(3)
H1_17 H 0.526(4) 0.071(6) 0.553(3)
H2_17 H 0.487(4) 0.110(6) 0.600(4)
H3_17 H 0.496(4) 0.135(6) 0.521(3)
C2_15 C 0.2353(3) 0.8846(4) 0.4272(2)
C3_15 C 0.2873(3) 0.9188(4) 0.4906(2)
C4_15 C 0.2809(3) 0.8976(5) 0.5602(2)
C5_15 C 0.2180(3) 0.8285(5) 0.6021(2)
N2_17 N 0.3610(2) 0.9897(3) 0.48141(17)
N3_15 N 0.1652(3) 0.8156(5) 0.4328(3)
H4_15 H 0.143(3) 0.796(4) 0.398(3)
H5_15 H 0.150(3) 0.788(4) 0.473(3)
H6_17 H 0.192(4) 0.791(7) 0.692(4)
O1_15 O 0.2600(2) 0.9233(3) 0.37056(16)
C2_16 C 0.1154(4) 0.3506(3) 0.4272(2)
C3_16 C 0.0812(4) 0.3684(3) 0.4906(2)
C4_16 C 0.1024(5) 0.3832(4) 0.5602(2)
C5_16 C 0.1715(5) 0.3894(4) 0.6021(2)
N2_18 N 0.0103(3) 0.3712(2) 0.48141(17)
N3_16 N 0.1844(5) 0.3495(4) 0.4328(3)
H4_16 H 0.204(4) 0.346(3) 0.398(3)
H5_16 H 0.212(4) 0.361(3) 0.473(3)
H6_18 H 0.209(7) 0.400(6) 0.692(4)
O1_16 O 0.0767(3) 0.3366(2) 0.37056(16)
C1_18 C 0.9896(4) 0.3853(3) 0.5442(2)
C6_18 C 0.9167(5) 0.3946(4) 0.5576(3)
H1_18 H 0.929(6) 0.454(4) 0.553(3)
H2_18 H 0.890(6) 0.376(4) 0.600(4)
H3_18 H 0.865(6) 0.360(4) 0.521(3)
O3_9 O 0.8223(6) 0.1040(5) 0.90336(17)
C2_17 C 0.9019(3) 0.2180(4) 0.7606(2)
C3_17 C 0.9539(3) 0.2522(4) 0.8240(2)
C4_17 C 0.9475(3) 0.2310(5) 0.8936(2)
C5_17 C 0.8846(3) 0.1619(5) 0.9355(2)
N3_17 N 0.8318(3) 0.1490(5) 0.7662(3)
H4_17 H 0.809(3) 0.130(4) 0.732(3)
H5_17 H 0.816(3) 0.122(4) 0.807(3)
O1_17 O 0.9266(2) 0.2567(3) 0.70390(16)
C2_18 C 0.0981(3) 0.7820(4) 0.2394(2)
C3_18 C 0.0461(3) 0.7478(4) 0.1760(2)
C4_18 C 0.0525(3) 0.7690(5) 0.1064(2)
C5_18 C 0.1154(3) 0.8381(5) 0.0645(2)
N3_18 N 0.1682(3) 0.8510(5) 0.2338(3)
H4_18 H 0.191(3) 0.870(4) 0.268(3)
H5_18 H 0.184(3) 0.878(4) 0.193(3)
O1_18 O 0.0734(2) 0.7433(3) 0.29610(16)
O2_9 O 0.1777(4) 0.8960(5) 0.09664(17)
loop_
_geom_bond_atom_site_label_1
_geom_bond_atom_site_label_2
_geom_bond_site_symmetry_1
_geom_bond_site_symmetry_2
C1 C6 1_555 1_555
C2 C3 1_555 1_555
C3 C4 1_555 1_555
C4 C5 1_555 1_555
C5 N4 1_555 1_555
C6 H1 1_555 1_555
H2 C6 1_555 1_555
H3 C6 1_555 1_555
Cd1 N2 1_555 1_555
N1 C1 1_555 1_555
N2 C1 1_555 1_555
N3 C2 1_555 1_555
H4 N3 1_555 1_555
H5 N3 1_555 1_555
N4 H6 1_555 1_555
O1 C2 1_555 1_555
O2 C5 1_555 1_555
Cd2 N1 1_555 1_555
Cd3 O2 1_555 1_555
N6 Cd1 1_555 1_555
C3 N2 1_555 1_555
C4 N1 1_555 1_555
Cd1 O1 1_555 1_555
N4 Cd2 1_555 1_555
C1_2 C6_2 1_555 1_555
C2_2 C3_2 1_555 1_555
C3_2 C4_2 1_555 1_555
C4_2 C5_2 1_555 1_555
C5_2 N4_2 1_555 1_555
C6_2 H1_2 1_555 1_555
H2_2 C6_2 1_555 1_555
H3_2 C6_2 1_555 1_555
Cd1_2 N2_2 1_555 1_555
N1_2 C1_2 1_555 1_555
N2_2 C1_2 1_555 1_555
N3_2 C2_2 1_555 1_555
H4_2 N3_2 1_555 1_555
H5_2 N3_2 1_555 1_555
N4_2 H6_2 1_555 1_555
O1_2 C2_2 1_555 1_555
O2_2 C5_2 1_555 1_555
Cd2_2 N1_2 1_555 1_555
Cd3_2 O2_2 1_555 1_555
N6_2 Cd1_2 1_555 1_555
O3_2 Cd1_2 1_555 1_555
C3_2 N2_2 1_555 1_555
C4_2 N1_2 1_555 1_555
Cd1_2 O1_2 1_555 1_555
N4_2 Cd2_2 1_555 1_555
C1_3 C6_3 1_555 1_555
C2_3 C3_3 1_555 1_555
C3_3 C4_3 1_555 1_555
C4_3 C5_3 1_555 1_555
C5_3 N4_3 1_555 1_555
C6_3 H1_3 1_555 1_555
H2_3 C6_3 1_555 1_555
H3_3 C6_3 1_555 1_555
Cd1_3 N2_3 1_555 1_555
N1_3 C1_3 1_555 1_555
N2_3 C1_3 1_555 1_555
N3_3 C2_3 1_555 1_555
H4_3 N3_3 1_555 1_555
H5_3 N3_3 1_555 1_555
N4_3 H6_3 1_555 1_555
O1_3 C2_3 1_555 1_555
O2_3 C5_3 1_555 1_555
Cd2_3 N1_3 1_555 1_555
Cd3_3 O2_3 1_555 1_555
N6_3 Cd1_3 1_555 1_555
C3_3 N2_3 1_555 1_555
C4_3 N1_3 1_555 1_555
Cd1_3 O1_3 1_555 1_555
N4_3 Cd2_3 1_555 1_555
C1_4 C6_4 1_555 1_555
C6_4 H1_4 1_555 1_555
H2_4 C6_4 1_555 1_555
H3_4 C6_4 1_555 1_555
Cd1_4 N2_4 1_555 1_555
N5_3 C1_4 1_555 1_555
N2_4 C1_4 1_555 1_555
N5_4 Cd1_4 1_555 1_555
N6_4 Cd1_4 1_555 1_555
O3_3 Cd1_4 1_555 1_555
C2_4 C3_4 1_555 1_555
C3_4 C4_4 1_555 1_555
C4_4 C5_4 1_555 1_555
N3_4 C2_4 1_555 1_555
H4_4 N3_4 1_555 1_555
H5_4 N3_4 1_555 1_555
O1_4 C2_4 1_555 1_555
O2_4 C5_4 1_555 1_555
Cd3_4 O2_4 1_555 1_555
N6_3 H6_4 1_555 1_555
N6 H6_5 1_555 1_555
C1_5 C6_5 1_555 1_555
C6_5 H1_5 1_555 1_555
H2_5 C6_5 1_555 1_555
H3_5 C6_5 1_555 1_555
Cd1_5 N2_5 1_555 1_555
N5 C1_5 1_555 1_555
N2_5 C1_5 1_555 1_555
N5_5 Cd1_5 1_555 1_555
N6_5 Cd1_5 1_555 1_555
O3_4 Cd1_5 1_555 1_555
C1_6 C6_6 1_555 1_555
C2_5 C3_5 1_555 1_555
C3_5 C4_5 1_555 1_555
C4_5 C5_5 1_555 1_555
C6_6 H1_6 1_555 1_555
H2_6 C6_6 1_555 1_555
H3_6 C6_6 1_555 1_555
Cd1_6 N2_6 1_555 1_555
N5_2 C1_6 1_555 1_555
N2_6 C1_6 1_555 1_555
N3_5 C2_5 1_555 1_555
H4_5 N3_5 1_555 1_555
H5_5 N3_5 1_555 1_555
O1_5 C2_5 1_555 1_555
O2_5 C5_5 1_555 1_555
N5_6 Cd1_6 1_555 1_555
N6_6 Cd1_6 1_555 1_555
O3_5 Cd1_6 1_555 1_555
C3_5 N2_6 1_555 1_555
C4_5 N5_2 1_555 1_555
Cd1_6 O1_5 1_555 1_555
N6_2 H6_6 1_555 1_555
C1_7 C6_7 1_555 1_555
C2_6 C3_6 1_555 1_555
C3_6 C4_6 1_555 1_555
C4_6 C5_6 1_555 1_555
C5_6 N6_6 1_555 1_555
C6_7 H1_7 1_555 1_555
H2_7 C6_7 1_555 1_555
H3_7 C6_7 1_555 1_555
Cd2_2 N2_7 1_555 1_555
N5_6 C1_7 1_555 1_555
N2_7 C1_7 1_555 1_555
N3_6 C2_6 1_555 1_555
H4_6 N3_6 1_555 1_555
H5_6 N3_6 1_555 1_555
N6_6 H6_7 1_555 1_555
O1_6 C2_6 1_555 1_555
O2_6 C5_6 1_555 1_555
Cd3_7 O2_6 1_555 1_555
O3_6 Cd2_2 1_555 1_555
C3_6 N2_7 1_555 1_555
C4_6 N5_6 1_555 1_555
Cd2_2 O1_6 1_555 1_555
C2_7 C3_7 1_555 1_555
C3_7 C4_7 1_555 1_555
C4_7 C5_7 1_555 1_555
C5_7 N6_4 1_555 1_555
N3_7 C2_7 1_555 1_555
H4_7 N3_7 1_555 1_555
H5_7 N3_7 1_555 1_555
N6_4 H6_8 1_555 1_555
O1_7 C2_7 1_555 1_555
O2_7 C5_7 1_555 1_555
Cd3_8 O2_7 1_555 1_555
C3_7 N2_8 1_555 1_555
C4_7 N5_4 1_555 1_555
C1_8 C6_8 1_555 1_555
C6_8 H1_8 1_555 1_555
H2_8 C6_8 1_555 1_555
H3_8 C6_8 1_555 1_555
O3_7 Cd2_3 1_555 1_555
C1_9 C6_9 1_555 1_555
C6_9 H1_9 1_555 1_555
H2_9 C6_9 1_555 1_555
H3_9 C6_9 1_555 1_555
O3_8 Cd2 1_555 1_555
C2_8 C3_8 1_555 1_555
C3_8 C4_8 1_555 1_555
C4_8 C5_8 1_555 1_555
C5_8 N6_5 1_555 1_555
N3_8 C2_8 1_555 1_555
H4_8 N3_8 1_555 1_555
H5_8 N3_8 1_555 1_555
N6_5 H6_9 1_555 1_555
O1_8 C2_8 1_555 1_555
O2_8 C5_8 1_555 1_555
Cd3_9 O2_8 1_555 1_555
C3_8 N2_9 1_555 1_555
C4_8 N5_5 1_555 1_555
C1_10 C6_10 1_555 1_555
C2_9 C3_9 1_555 1_555
C3_9 C4_9 1_555 1_555
C4_9 C5_9 1_555 1_555
C5_9 N4_4 1_555 1_555
C6_10 H1_10 1_555 1_555
H2_10 C6_10 1_555 1_555
H3_10 C6_10 1_555 1_555
Cd3_6 N2_10 1_555 1_555
N1_4 C1_10 1_555 1_555
N2_10 C1_10 1_555 1_555
N3_9 C2_9 1_555 1_555
H4_9 N3_9 1_555 1_555
H5_9 N3_9 1_555 1_555
N4_4 H6_10 1_555 1_555
O1_9 C2_9 1_555 1_555
O3_4 C5_9 1_555 1_555
Cd3_8 N1_4 1_555 1_555
N6_7 Cd3_6 1_555 1_555
C3_9 N2_10 1_555 1_555
C4_9 N1_4 1_555 1_555
Cd3_6 O1_9 1_555 1_555
N4_4 Cd3_8 1_555 1_555
C1_11 C6_11 1_555 1_555
C2_10 C3_10 1_555 1_555
C3_10 C4_10 1_555 1_555
C4_10 C5_10 1_555 1_555
C5_10 N4_5 1_555 1_555
C6_11 H1_11 1_555 1_555
H2_11 C6_11 1_555 1_555
H3_11 C6_11 1_555 1_555
Cd3_4 N2_11 1_555 1_555
N1_5 C1_11 1_555 1_555
N2_11 C1_11 1_555 1_555
N3_10 C2_10 1_555 1_555
H4_10 N3_10 1_555 1_555
H5_10 N3_10 1_555 1_555
N4_5 H6_11 1_555 1_555
O1_10 C2_10 1_555 1_555
O3_5 C5_10 1_555 1_555
Cd3_9 N1_5 1_555 1_555
N6_8 Cd3_4 1_555 1_555
C3_10 N2_11 1_555 1_555
C4_10 N1_5 1_555 1_555
Cd3_4 O1_10 1_555 1_555
N4_5 Cd3_9 1_555 1_555
C1_12 C6_12 1_555 1_555
C2_11 C3_11 1_555 1_555
C3_11 C4_11 1_555 1_555
C4_11 C5_11 1_555 1_555
C5_11 N4_6 1_555 1_555
C6_12 H1_12 1_555 1_555
H2_12 C6_12 1_555 1_555
H3_12 C6_12 1_555 1_555
Cd3_5 N2_12 1_555 1_555
N1_6 C1_12 1_555 1_555
N2_12 C1_12 1_555 1_555
N3_11 C2_11 1_555 1_555
H4_11 N3_11 1_555 1_555
H5_11 N3_11 1_555 1_555
N4_6 H6_12 1_555 1_555
O1_11 C2_11 1_555 1_555
O3_3 C5_11 1_555 1_555
Cd3_7 N1_6 1_555 1_555
N6_9 Cd3_5 1_555 1_555
C3_11 N2_12 1_555 1_555
C4_11 N1_6 1_555 1_555
Cd3_5 O1_11 1_555 1_555
N4_6 Cd3_7 1_555 1_555
N6_9 H6_13 1_555 1_555
C2_12 C3_12 1_555 1_555
C3_12 C4_12 1_555 1_555
C4_12 C5_12 1_555 1_555
N3_12 C2_12 1_555 1_555
H4_12 N3_12 1_555 1_555
H5_12 N3_12 1_555 1_555
O1_12 C2_12 1_555 1_555
O3_2 C5_12 1_555 1_555
C1_13 C6_13 1_555 1_555
C6_13 H1_13 1_555 1_555
H2_13 C6_13 1_555 1_555
H3_13 C6_13 1_555 1_555
Cd3_3 N2_13 1_555 1_555
N5_9 C1_13 1_555 1_555
N2_13 C1_13 1_555 1_555
N5_10 Cd3_3 1_555 1_555
N6_10 Cd3_3 1_555 1_555
C1_14 C6_14 1_555 1_555
C6_14 H1_14 1_555 1_555
H2_14 C6_14 1_555 1_555
H3_14 C6_14 1_555 1_555
Cd3 N2_14 1_555 1_555
N5_7 C1_14 1_555 1_555
N2_14 C1_14 1_555 1_555
N5_11 Cd3 1_555 1_555
N6_11 Cd3 1_555 1_555
N6_7 H6_14 1_555 1_555
N6_8 H6_15 1_555 1_555
C1_15 C6_15 1_555 1_555
C2_13 C3_13 1_555 1_555
C3_13 C4_13 1_555 1_555
C4_13 C5_13 1_555 1_555
C6_15 H1_15 1_555 1_555
H2_15 C6_15 1_555 1_555
H3_15 C6_15 1_555 1_555
Cd3_2 N2_15 1_555 1_555
N5_8 C1_15 1_555 1_555
N2_15 C1_15 1_555 1_555
N3_13 C2_13 1_555 1_555
H4_13 N3_13 1_555 1_555
H5_13 N3_13 1_555 1_555
O1_13 C2_13 1_555 1_555
O3 C5_13 1_555 1_555
N5_12 Cd3_2 1_555 1_555
N6_12 Cd3_2 1_555 1_555
C3_13 N2_15 1_555 1_555
C4_13 N5_8 1_555 1_555
Cd3_2 O1_13 1_555 1_555
C1_16 C6_16 1_555 1_555
C2_14 C3_14 1_555 1_555
C3_14 C4_14 1_555 1_555
C4_14 C5_14 1_555 1_555
C5_14 N6_12 1_555 1_555
C6_16 H1_16 1_555 1_555
H2_16 C6_16 1_555 1_555
H3_16 C6_16 1_555 1_555
Cd3_9 N2_16 1_555 1_555
N5_12 C1_16 1_555 1_555
N2_16 C1_16 1_555 1_555
N3_14 C2_14 1_555 1_555
H4_14 N3_14 1_555 1_555
H5_14 N3_14 1_555 1_555
N6_12 H6_16 1_555 1_555
O1_14 C2_14 1_555 1_555
O3_7 C5_14 1_555 1_555
C3_14 N2_16 1_555 1_555
C4_14 N5_12 1_555 1_555
Cd3_9 O1_14 1_555 1_555
C1_17 C6_17 1_555 1_555
C6_17 H1_17 1_555 1_555
H2_17 C6_17 1_555 1_555
H3_17 C6_17 1_555 1_555
C2_15 C3_15 1_555 1_555
C3_15 C4_15 1_555 1_555
C4_15 C5_15 1_555 1_555
C5_15 N6_10 1_555 1_555
N3_15 C2_15 1_555 1_555
H4_15 N3_15 1_555 1_555
H5_15 N3_15 1_555 1_555
N6_10 H6_17 1_555 1_555
O1_15 C2_15 1_555 1_555
O3_8 C5_15 1_555 1_555
C3_15 N2_17 1_555 1_555
C4_15 N5_10 1_555 1_555
C2_16 C3_16 1_555 1_555
C3_16 C4_16 1_555 1_555
C4_16 C5_16 1_555 1_555
C5_16 N6_11 1_555 1_555
N3_16 C2_16 1_555 1_555
H4_16 N3_16 1_555 1_555
H5_16 N3_16 1_555 1_555
N6_11 H6_18 1_555 1_555
O1_16 C2_16 1_555 1_555
O3_6 C5_16 1_555 1_555
C3_16 N2_18 1_555 1_555
C4_16 N5_11 1_555 1_555
C1_18 C6_18 1_555 1_555
C6_18 H1_18 1_555 1_555
H2_18 C6_18 1_555 1_555
H3_18 C6_18 1_555 1_555
C2_17 C3_17 1_555 1_555
C3_17 C4_17 1_555 1_555
C4_17 C5_17 1_555 1_555
N3_17 C2_17 1_555 1_555
H4_17 N3_17 1_555 1_555
H5_17 N3_17 1_555 1_555
O1_17 C2_17 1_555 1_555
O3_9 C5_17 1_555 1_555
C2_18 C3_18 1_555 1_555
C3_18 C4_18 1_555 1_555
C4_18 C5_18 1_555 1_555
N3_18 C2_18 1_555 1_555
H4_18 N3_18 1_555 1_555
H5_18 N3_18 1_555 1_555
O1_18 C2_18 1_555 1_555
O2_9 C5_18 1_555 1_555

#END
