
###############################################################################
#
# This file contains modified crystal structure data generated from the
# MOF subset of the Cambridge Structural Database (CSD) v543 
# hosted by the Cambridge Crystallographic Data Centre (CCDC).
#
# This work is licensed under the Creative Commons
# Attribution-NonCommercial-ShareAlike 4.0 International License.
# To view a copy of this license, visit
# http://creativecommons.org/licenses/by-nc-sa/4.0/
# or send a letter to
# Creative Commons, PO Box 1866, Mountain View, CA 94042, USA.
#
# CIF created using the CSD Python API on 29 September 2022
# The structure has been converted into the P1 space group
# The structure has a 3D framework
# The original CSD entry ESIYEM is in the orthorhombic crystal system
# The framework has been calculated to contain at least 10.0% void space
# The void calculation uses a probe of radius 1.32A, grid spacing 0.4
#
###############################################################################

data_ESIYEM
_chemical_formula_moiety         '(C128 H111 N15 O61 S16 Zn14)n'
_symmetry_cell_setting           triclinic
_symmetry_space_group_name_H-M   'P 1'
_symmetry_Int_Tables_number      1
_space_group_name_Hall           'P 1'
loop_
_symmetry_equiv_pos_site_id
_symmetry_equiv_pos_as_xyz
1 x,y,z
_cell_length_a                   20.734(6)
_cell_length_b                   20.994(6)
_cell_length_c                   18.539(6)
_cell_angle_alpha                90
_cell_angle_beta                 90
_cell_angle_gamma                90
_cell_volume                     8069.83
loop_
_atom_site_label
_atom_site_type_symbol
_atom_site_fract_x
_atom_site_fract_y
_atom_site_fract_z
Zn5 Zn 0.02498(2) 0.98855(2) 0.65798(2)
Zn1 Zn 0.47502(2) 0.01145(2) 0.15798(2)
S1 S 0.23967(5) 0.00106(5) 0.23254(6)
S3 S 0.48369(7) 0.2500 0.20081(7)
O1 O 0.38332(14) 0.01056(13) 0.20436(16)
O3 O 0.07495(15) 0.00431(15) 0.33444(16)
O7 O 0.48341(14) 0.10595(14) 0.18175(16)
O8 O 0.50668(17) 0.08459(15) 0.29565(17)
N1 N 0.45027(16) 0.01994(15) 0.05065(16)
H1 H 0.4094 0.0357 0.0508
C1 C 0.3703(2) 0.00130(19) 0.2690(2)
C2 C 0.3023(2) 0.0007(2) 0.2925(2)
C10 C 0.49665(19) 0.1221(2) 0.2453(2)
C11 C 0.50203(19) 0.1914(2) 0.2618(2)
C12 C 0.5218(2) 0.2171(2) 0.3259(2)
H6 H 0.5340 0.1927 0.3655
C14 C 0.4886(2) 0.0663(2) 0.0070(2)
H10 H 0.4930 0.1059 0.0337
C16 C 0.5132(2) 0.0540(2) 0.4556(2)
H13 H 0.4700 0.0691 0.4447
H14 H 0.5436 0.0827 0.4326
O11 O 0.48341(14) 0.39405(14) 0.18175(16)
O12 O 0.50668(17) 0.41541(15) 0.29565(17)
C20 C 0.49665(19) 0.3779(2) 0.2453(2)
C21 C 0.50203(19) 0.3086(2) 0.2618(2)
C22 C 0.5218(2) 0.2829(2) 0.3259(2)
H16 H 0.5340 0.3073 0.3655
H18 H 0.5774 0.0338 0.0344
N4 N 0.47840(17) 0.01137(17) 0.57473(16)
H22 H 0.4372 0.0242 0.5658
C25 C 0.5234(2) 0.0560(2) 0.5364(2)
H23 H 0.5164 0.0990 0.5537
H24 H 0.5676 0.0443 0.5473
Zn8 Zn 0.47502(2) 0.48855(2) 0.15798(2)
Zn10 Zn 0.49255(2) 0.01229(2) 0.68421(2)
Zn13 Zn 0.50745(2) 0.51229(2) 0.31579(2)
O18 O 0.57495(15) 0.00431(15) 0.16556(16)
H9 H 0.4659 0.0755 0.9625
C23 C 0.5538(2) 0.0408(2) 0.98990(19)
H19 H 0.5774 0.0718 0.9615
O14 O 0.58941(15) 0.00701(16) 0.68148(17)
O16 O 0.90058(14) 0.01003(14) 0.78211(17)
C29 C 0.7197(2) 0.0012(3) 0.6386(3)
H27 H 0.6928 0.0012 0.5985
C30 C 0.7872(3) 0.0031(3) 0.6340(3)
H28 H 0.8096 0.0056 0.5906
C31 C 0.8164(2) 0.0010(2) 0.6995(2)
C32 C 0.8863(2) 0.00194(19) 0.7169(2)
Zn9 Zn 0.99255(2) 0.01229(2) 0.81579(2)
O19 O 0.40058(14) 0.01003(14) 0.71789(17)
O21 O 0.50085(15) 0.10599(15) 0.71785(18)
O22 O 0.52814(15) 0.08509(15) 0.83120(16)
Zn2 Zn 0.50745(2) 0.98771(2) 0.31579(2)
S2 S 0.50011(8) 0.7500 0.26245(8)
O2 O 0.41059(15) 0.99299(16) 0.31852(17)
O4 O 0.09942(14) 0.98997(14) 0.21789(17)
O5 O 0.49915(15) 0.89401(15) 0.28215(18)
O6 O 0.47186(15) 0.91491(15) 0.16880(16)
N2 N 0.52160(17) 0.98863(17) 0.42527(16)
H2 H 0.5628 0.9758 0.4342
C3 C 0.2803(2) 0.9988(3) 0.3614(3)
H3 H 0.3072 0.9988 0.4015
C4 C 0.2128(3) 0.9969(3) 0.3660(3)
H4 H 0.1904 0.9944 0.4094
C5 C 0.1836(2) 0.9990(2) 0.3005(2)
C6 C 0.1137(2) 0.99806(19) 0.2831(2)
C7 C 0.48318(18) 0.87790(19) 0.2202(2)
C8 C 0.47634(19) 0.8091(2) 0.2038(2)
C9 C 0.4508(2) 0.7833(2) 0.1428(2)
H5 H 0.4349 0.8077 0.1048
C13 C 0.4462(2) 0.9592(2) 0.01010(19)
H8 H 0.4226 0.9282 0.0385
C15 C 0.4766(2) 0.9440(2) 0.4636(2)
H11 H 0.4836 0.9010 0.4463
H12 H 0.4324 0.9557 0.4527
O9 O 0.49915(15) 0.60599(15) 0.28215(18)
O10 O 0.47186(15) 0.58509(15) 0.16880(16)
C17 C 0.48318(18) 0.62210(19) 0.2202(2)
C18 C 0.47634(19) 0.6909(2) 0.2038(2)
C19 C 0.4508(2) 0.7167(2) 0.1428(2)
H15 H 0.4349 0.6923 0.1048
H20 H 0.5341 0.9245 0.0375
C26 C 0.4868(2) 0.9460(2) 0.5444(2)
H25 H 0.5300 0.9309 0.5553
H26 H 0.4564 0.9173 0.5674
Zn11 Zn 0.00745(2) 0.98771(2) 0.18421(2)
O20 O 0.59942(14) 0.98997(14) 0.28211(17)
H7 H 0.4226 0.9662 0.9656
N3 N 0.54973(16) 0.98006(15) 0.94935(16)
H17 H 0.5906 0.9643 0.9492
C24 C 0.5114(2) 0.9337(2) 0.9930(2)
H21 H 0.5070 0.8941 0.9663
Zn3 Zn 0.52498(2) 0.98855(2) 0.84202(2)
S4 S 0.76033(5) 0.99894(5) 0.76746(6)
O13 O 0.61668(14) 0.98944(13) 0.79564(16)
O15 O 0.92505(15) 0.99569(15) 0.66556(16)
C27 C 0.6297(2) 0.99870(19) 0.7310(2)
C28 C 0.6977(2) 0.9993(2) 0.7075(2)
O17 O 0.42505(15) 0.99569(15) 0.83444(16)
O23 O 0.51659(14) 0.89405(14) 0.81825(16)
O24 O 0.49332(17) 0.91541(15) 0.70435(17)
Zn6 Zn 0.97502(2) 0.01145(2) 0.34202(2)
C26_2 C 0.0132(2) 0.0540(2) 0.0444(2)
H26_2 H 0.0436 0.0827 0.0674
O2_2 O 0.08941(15) 0.00701(16) 0.81852(17)
O5_2 O 0.00085(15) 0.10599(15) 0.78215(18)
O6_2 O 0.02814(15) 0.08509(15) 0.66880(16)
C3_2 C 0.2197(2) 0.0012(3) 0.8614(3)
H3_2 H 0.1928 0.0012 0.9015
C4_2 C 0.2872(3) 0.0031(3) 0.8660(3)
H4_2 H 0.3096 0.0056 0.9094
C5_2 C 0.3164(2) 0.0010(2) 0.8005(2)
C6_2 C 0.3863(2) 0.00194(19) 0.7831(2)
C7_2 C 0.01682(18) 0.12210(19) 0.7202(2)
C8_2 C 0.02366(19) 0.1909(2) 0.7038(2)
C9_2 C 0.0492(2) 0.2167(2) 0.6428(2)
H5_2 H 0.0651 0.1923 0.6048
C13_2 C 0.0538(2) 0.0408(2) 0.51010(19)
H7_2 H 0.0774 0.0338 0.4656
H8_2 H 0.0774 0.0718 0.5385
C15_2 C 0.0234(2) 0.0560(2) 0.9636(2)
H11_2 H 0.0164 0.0990 0.9463
H12_2 H 0.0676 0.0443 0.9527
O9_2 O 0.00085(15) 0.39401(15) 0.78215(18)
O10_2 O 0.02814(15) 0.41491(15) 0.66880(16)
C17_2 C 0.01682(18) 0.37790(19) 0.7202(2)
C18_2 C 0.02366(19) 0.3091(2) 0.7038(2)
C19_2 C 0.0492(2) 0.2833(2) 0.6428(2)
H15_2 H 0.0651 0.3077 0.6048
Zn7 Zn 0.02498(2) 0.51145(2) 0.65798(2)
O24_2 O 0.00668(17) 0.08459(15) 0.20435(17)
N4_2 N 0.02160(17) 0.98863(17) 0.07473(16)
H22_2 H 0.0628 0.9758 0.0658
S1_2 S 0.26033(5) 0.99894(5) 0.73254(6)
S3_2 S 0.01631(7) 0.7500 0.70081(7)
O1_2 O 0.11668(14) 0.98944(13) 0.70436(16)
O7_2 O 0.01659(14) 0.89405(14) 0.68175(16)
N1_2 N 0.04973(16) 0.98006(15) 0.55065(16)
H1_2 H 0.0906 0.9643 0.5508
C1_2 C 0.1297(2) 0.99870(19) 0.7690(2)
C2_2 C 0.1977(2) 0.9993(2) 0.7925(2)
C10_2 C 0.00335(19) 0.8779(2) 0.7453(2)
C14_2 C 0.0114(2) 0.9337(2) 0.5070(2)
H9_2 H 0.0341 0.9245 0.4625
H10_2 H 0.0070 0.8941 0.5337
H13_2 H 0.0300 0.9309 0.9447
O11_2 O 0.01659(14) 0.60595(14) 0.68175(16)
C20_2 C 0.00335(19) 0.6221(2) 0.7453(2)
H25_2 H 0.9700 0.0691 0.0553
S2_2 S 0.99989(8) 0.2500 0.76245(8)
N2_2 N 0.97840(17) 0.01137(17) 0.92527(16)
H2_2 H 0.9372 0.0242 0.9342
N3_2 N 0.95027(16) 0.01994(15) 0.44935(16)
H17_2 H 0.9094 0.0357 0.4492
C24_2 C 0.9886(2) 0.0663(2) 0.4930(2)
H20_2 H 0.9659 0.0755 0.5375
H21_2 H 0.9930 0.1059 0.4663
S4_2 S 0.73967(5) 0.00106(5) 0.26746(6)
O13_2 O 0.88332(14) 0.01056(13) 0.29564(16)
C27_2 C 0.8703(2) 0.00130(19) 0.2310(2)
C28_2 C 0.8023(2) 0.0007(2) 0.2075(2)
Zn12 Zn 0.99255(2) 0.48771(2) 0.81579(2)
O23_2 O 0.98341(14) 0.10595(14) 0.31825(16)
C25_2 C 0.9766(2) 0.9440(2) 0.0364(2)
H23_2 H 0.9836 0.9010 0.0537
H24_2 H 0.9324 0.9557 0.0473
O8_2 O 0.99332(17) 0.91541(15) 0.79565(17)
C11_2 C 0.99797(19) 0.8086(2) 0.7618(2)
C12_2 C 0.9782(2) 0.7829(2) 0.8259(2)
H6_2 H 0.9660 0.8073 0.8655
C16_2 C 0.9868(2) 0.9460(2) 0.9556(2)
H14_2 H 0.9564 0.9173 0.9326
O12_2 O 0.99332(17) 0.58459(15) 0.79565(17)
C21_2 C 0.99797(19) 0.6914(2) 0.7618(2)
C22_2 C 0.9782(2) 0.7171(2) 0.8259(2)
H16_2 H 0.9660 0.6927 0.8655
C23_2 C 0.9462(2) 0.9592(2) 0.48990(19)
H18_2 H 0.9226 0.9662 0.5344
H19_2 H 0.9226 0.9282 0.4615
O14_2 O 0.91059(15) 0.99299(16) 0.18148(17)
C29_2 C 0.7803(2) 0.9988(3) 0.1386(3)
H27_2 H 0.8072 0.9988 0.0985
C30_2 C 0.7128(3) 0.9969(3) 0.1340(3)
H28_2 H 0.6904 0.9944 0.0906
C31_2 C 0.6836(2) 0.9990(2) 0.1995(2)
C32_2 C 0.6137(2) 0.99806(19) 0.2169(2)
O21_2 O 0.99915(15) 0.89401(15) 0.21785(18)
O22_2 O 0.97186(15) 0.91491(15) 0.33120(16)
Zn2_2 Zn 0.00745(2) 0.51229(2) 0.18421(2)
S2_3 S 0.00011(8) 0.7500 0.23755(8)
O8_3 O 0.00668(17) 0.41541(15) 0.20435(17)
N2_3 N 0.02160(17) 0.51137(17) 0.07473(16)
H2_3 H 0.0628 0.5242 0.0658
C11_3 C 0.00203(19) 0.3086(2) 0.2382(2)
C12_3 C 0.0218(2) 0.2829(2) 0.1741(2)
H6_3 H 0.0340 0.3073 0.1345
C16_3 C 0.0132(2) 0.4460(2) 0.0444(2)
H14_3 H 0.0436 0.4173 0.0674
C21_3 C 0.00203(19) 0.1914(2) 0.2382(2)
C22_3 C 0.0218(2) 0.2171(2) 0.1741(2)
H16_3 H 0.0340 0.1927 0.1345
N3_3 N 0.04973(16) 0.51994(15) 0.55065(16)
H17_3 H 0.0906 0.5357 0.5508
C23_3 C 0.0538(2) 0.4592(2) 0.51010(19)
H18_3 H 0.0774 0.4662 0.4656
H19_3 H 0.0774 0.4282 0.5385
C24_3 C 0.0114(2) 0.5663(2) 0.5070(2)
H20_3 H 0.0341 0.5755 0.4625
H21_3 H 0.0070 0.6059 0.5337
S4_3 S 0.26033(5) 0.50106(5) 0.73254(6)
O13_3 O 0.11668(14) 0.51056(13) 0.70436(16)
O14_3 O 0.08941(15) 0.49299(16) 0.81852(17)
O15_2 O 0.42505(15) 0.50431(15) 0.83444(16)
O16_2 O 0.40058(14) 0.48997(14) 0.71789(17)
C27_3 C 0.1297(2) 0.50130(19) 0.7690(2)
C28_3 C 0.1977(2) 0.5007(2) 0.7925(2)
C29_3 C 0.2197(2) 0.4988(3) 0.8614(3)
H27_3 H 0.1928 0.4988 0.9015
C30_3 C 0.2872(3) 0.4969(3) 0.8660(3)
H28_3 H 0.3096 0.4944 0.9094
C31_3 C 0.3164(2) 0.4990(2) 0.8005(2)
C32_3 C 0.3863(2) 0.49806(19) 0.7831(2)
Zn5_2 Zn 0.52498(2) 0.51145(2) 0.84202(2)
Zn9_2 Zn 0.49255(2) 0.48771(2) 0.68421(2)
O18_2 O 0.07495(15) 0.49569(15) 0.33444(16)
O20_2 O 0.09942(14) 0.51003(14) 0.21789(17)
C25_3 C 0.0234(2) 0.4440(2) 0.9636(2)
H23_3 H 0.0164 0.4010 0.9463
H24_3 H 0.0676 0.4557 0.9527
H25_3 H 0.0300 0.5691 0.9447
Zn1_2 Zn 0.97502(2) 0.48855(2) 0.34202(2)
S1_3 S 0.73967(5) 0.49894(5) 0.26746(6)
S3_3 S 0.98369(7) 0.2500 0.29919(7)
O1_3 O 0.88332(14) 0.48944(13) 0.29564(16)
O2_3 O 0.91059(15) 0.50701(16) 0.18148(17)
O3_2 O 0.57495(15) 0.49569(15) 0.16556(16)
O4_2 O 0.59942(14) 0.51003(14) 0.28211(17)
O5_3 O 0.99915(15) 0.60599(15) 0.21785(18)
O6_3 O 0.97186(15) 0.58509(15) 0.33120(16)
O7_3 O 0.98341(14) 0.39405(14) 0.31825(16)
N1_3 N 0.95027(16) 0.48006(15) 0.44935(16)
H1_3 H 0.9094 0.4643 0.4492
C1_3 C 0.8703(2) 0.49870(19) 0.2310(2)
C2_3 C 0.8023(2) 0.4993(2) 0.2075(2)
C3_3 C 0.7803(2) 0.5012(3) 0.1386(3)
H3_3 H 0.8072 0.5012 0.0985
C4_3 C 0.7128(3) 0.5031(3) 0.1340(3)
H4_3 H 0.6904 0.5056 0.0906
C5_3 C 0.6836(2) 0.5010(2) 0.1995(2)
C6_3 C 0.6137(2) 0.50194(19) 0.2169(2)
C7_3 C 0.98318(18) 0.62210(19) 0.2798(2)
C8_3 C 0.97634(19) 0.6909(2) 0.2962(2)
C9_3 C 0.9508(2) 0.7167(2) 0.3572(2)
H5_3 H 0.9349 0.6923 0.3952
C10_3 C 0.99665(19) 0.3779(2) 0.2547(2)
C13_3 C 0.9462(2) 0.5408(2) 0.48990(19)
H7_3 H 0.9226 0.5338 0.5344
H8_3 H 0.9226 0.5718 0.4615
C14_3 C 0.9886(2) 0.4337(2) 0.4930(2)
H9_3 H 0.9659 0.4245 0.5375
H10_3 H 0.9930 0.3941 0.4663
C15_3 C 0.9766(2) 0.5560(2) 0.0364(2)
H11_3 H 0.9836 0.5990 0.0537
H12_3 H 0.9324 0.5443 0.0473
H13_3 H 0.9700 0.4309 0.0553
C17_3 C 0.98318(18) 0.87790(19) 0.2798(2)
C18_3 C 0.97634(19) 0.8091(2) 0.2962(2)
C19_3 C 0.9508(2) 0.7833(2) 0.3572(2)
H15_3 H 0.9349 0.8077 0.3952
C20_3 C 0.99665(19) 0.1221(2) 0.2547(2)
O17_2 O 0.92505(15) 0.50431(15) 0.66556(16)
O19_2 O 0.90058(14) 0.48997(14) 0.78211(17)
N5 N 0.97840(17) 0.48863(17) 0.92527(16)
H22_3 H 0.9372 0.4758 0.9342
C26_3 C 0.9868(2) 0.5540(2) 0.9556(2)
H26_3 H 0.9564 0.5827 0.9326
H7_4 H 0.5774 0.4662 0.0344
H9_4 H 0.5341 0.5755 0.0375
N3_4 N 0.45027(16) 0.48006(15) 0.05065(16)
H17_4 H 0.4094 0.4643 0.0508
C23_4 C 0.4462(2) 0.5408(2) 0.01010(19)
H19_4 H 0.4226 0.5718 0.0385
C24_4 C 0.4886(2) 0.4337(2) 0.0070(2)
H21_4 H 0.4930 0.3941 0.0337
S4_4 S 0.23967(5) 0.49894(5) 0.23254(6)
O13_4 O 0.38332(14) 0.48944(13) 0.20436(16)
O14_4 O 0.41059(15) 0.50701(16) 0.31852(17)
C27_4 C 0.3703(2) 0.49870(19) 0.2690(2)
C28_4 C 0.3023(2) 0.4993(2) 0.2925(2)
C29_4 C 0.2803(2) 0.5012(3) 0.3614(3)
H27_4 H 0.3072 0.5012 0.4015
C30_4 C 0.2128(3) 0.5031(3) 0.3660(3)
H28_4 H 0.1904 0.5056 0.4094
C31_4 C 0.1836(2) 0.5010(2) 0.3005(2)
C32_4 C 0.1137(2) 0.50194(19) 0.2831(2)
N5_2 N 0.52160(17) 0.51137(17) 0.42527(16)
S1_4 S 0.76033(5) 0.50106(5) 0.76746(6)
S2_4 S 0.49989(8) 0.2500 0.73755(8)
S3_4 S 0.51631(7) 0.7500 0.79919(7)
O1_4 O 0.61668(14) 0.51056(13) 0.79564(16)
O2_4 O 0.58941(15) 0.49299(16) 0.68148(17)
O5_4 O 0.50085(15) 0.39401(15) 0.71785(18)
O6_4 O 0.52814(15) 0.41491(15) 0.83120(16)
O7_4 O 0.51659(14) 0.60595(14) 0.81825(16)
O8_4 O 0.49332(17) 0.58459(15) 0.70435(17)
N1_4 N 0.54973(16) 0.51994(15) 0.94935(16)
H1_4 H 0.5906 0.5357 0.9492
N2_4 N 0.47840(17) 0.48863(17) 0.57473(16)
H2_4 H 0.4372 0.4758 0.5658
C1_4 C 0.6297(2) 0.50130(19) 0.7310(2)
C2_4 C 0.6977(2) 0.5007(2) 0.7075(2)
C3_4 C 0.7197(2) 0.4988(3) 0.6386(3)
H3_4 H 0.6928 0.4988 0.5985
C4_4 C 0.7872(3) 0.4969(3) 0.6340(3)
H4_4 H 0.8096 0.4944 0.5906
C5_4 C 0.8164(2) 0.4990(2) 0.6995(2)
C6_4 C 0.8863(2) 0.49806(19) 0.7169(2)
C7_4 C 0.51682(18) 0.37790(19) 0.7798(2)
C8_4 C 0.52366(19) 0.3091(2) 0.7962(2)
C9_4 C 0.5492(2) 0.2833(2) 0.8572(2)
H5_4 H 0.5651 0.3077 0.8952
C10_4 C 0.50335(19) 0.6221(2) 0.7547(2)
C11_4 C 0.49797(19) 0.6914(2) 0.7382(2)
C12_4 C 0.4782(2) 0.7171(2) 0.6741(2)
H6_4 H 0.4660 0.6927 0.6345
C13_4 C 0.5538(2) 0.4592(2) 0.98990(19)
H8_4 H 0.5774 0.4282 0.9615
C14_4 C 0.5114(2) 0.5663(2) 0.9930(2)
H10_4 H 0.5070 0.6059 0.9663
C15_4 C 0.5234(2) 0.4440(2) 0.5364(2)
H11_4 H 0.5164 0.4010 0.5537
H12_4 H 0.5676 0.4557 0.5473
C16_4 C 0.4868(2) 0.5540(2) 0.5444(2)
H13_4 H 0.5300 0.5691 0.5553
H14_4 H 0.4564 0.5827 0.5674
C17_4 C 0.51682(18) 0.12210(19) 0.7798(2)
C18_4 C 0.52366(19) 0.1909(2) 0.7962(2)
C19_4 C 0.5492(2) 0.2167(2) 0.8572(2)
H15_4 H 0.5651 0.1923 0.8952
C20_4 C 0.50335(19) 0.8779(2) 0.7547(2)
C21_4 C 0.49797(19) 0.8086(2) 0.7382(2)
C22_4 C 0.4782(2) 0.7829(2) 0.6741(2)
H16_4 H 0.4660 0.8073 0.6345
H18_4 H 0.4226 0.5338 0.9656
H20_4 H 0.4659 0.4245 0.9625
H22_4 H 0.5628 0.5242 0.4342
C25_4 C 0.4766(2) 0.5560(2) 0.4636(2)
H23_4 H 0.4836 0.5990 0.4463
H24_4 H 0.4324 0.5443 0.4527
C26_4 C 0.5132(2) 0.4460(2) 0.4556(2)
H25_4 H 0.4700 0.4309 0.4447
H26_4 H 0.5436 0.4173 0.4326
loop_
_geom_bond_atom_site_label_1
_geom_bond_atom_site_label_2
_geom_bond_site_symmetry_1
_geom_bond_site_symmetry_2
Zn1 O1 1_555 1_555
S1 C2 1_555 1_555
S3 C11 1_555 1_555
O1 C1 1_555 1_555
O7 Zn1 1_555 1_555
N1 Zn1 1_555 1_555
H1 N1 1_555 1_555
C1 C2 1_555 1_555
C10 O7 1_555 1_555
C11 C10 1_555 1_555
C12 C11 1_555 1_555
H6 C12 1_555 1_555
C14 N1 1_555 1_555
H10 C14 1_555 1_555
H13 C16 1_555 1_555
H14 C16 1_555 1_555
O11 C20 1_555 1_555
O12 C20 1_555 1_555
C20 C21 1_555 1_555
C21 S3 1_555 1_555
C22 C12 1_555 1_555
H16 C22 1_555 1_555
N4 H22 1_555 1_555
C25 C16 1_555 1_555
H23 C25 1_555 1_555
H24 C25 1_555 1_555
Zn8 O11 1_555 1_555
Zn10 N4 1_555 1_555
Zn13 O12 1_555 1_555
O18 Zn1 1_555 1_555
O8 C10 1_555 1_555
C21 C22 1_555 1_555
N4 C25 1_555 1_555
H19 C23 1_555 1_555
Zn10 O14 1_555 1_555
O16 C32 1_555 1_555
H27 C29 1_555 1_555
C30 C29 1_555 1_555
H28 C30 1_555 1_555
C32 C31 1_555 1_555
Zn9 O16 1_555 1_555
O19 Zn10 1_555 1_555
O21 Zn10 1_555 1_555
C30 C31 1_555 1_555
Zn2 O2 1_555 1_555
S2 C8 1_555 1_555
O4 C6 1_555 1_555
O5 Zn2 1_555 1_555
N2 Zn2 1_555 1_555
H2 N2 1_555 1_555
C3 H3 1_555 1_555
C4 C3 1_555 1_555
H4 C4 1_555 1_555
C6 C5 1_555 1_555
C7 O5 1_555 1_555
C8 C7 1_555 1_555
C9 C8 1_555 1_555
H5 C9 1_555 1_555
H8 C13 1_555 1_555
C15 N2 1_555 1_555
H11 C15 1_555 1_555
H12 C15 1_555 1_555
O9 C17 1_555 1_555
O10 C17 1_555 1_555
C17 C18 1_555 1_555
C18 S2 1_555 1_555
C19 C9 1_555 1_555
H15 C19 1_555 1_555
C26 C15 1_555 1_555
H25 C26 1_555 1_555
H26 C26 1_555 1_555
Zn8 O10 1_555 1_555
Zn11 O4 1_555 1_555
Zn13 O9 1_555 1_555
O20 Zn2 1_555 1_555
O6 C7 1_555 1_555
C4 C5 1_555 1_555
C18 C19 1_555 1_555
N3 H17 1_555 1_555
H21 C24 1_555 1_555
Zn3 N3 1_555 1_555
S4 C28 1_555 1_555
O13 Zn3 1_555 1_555
C27 O13 1_555 1_555
C28 C27 1_555 1_555
O17 Zn3 1_555 1_555
O23 Zn3 1_555 1_555
N3 C24 1_555 1_555
H26_2 C26_2 1_555 1_555
O19 C6_2 1_555 1_555
C3_2 H3_2 1_555 1_555
C4_2 C3_2 1_555 1_555
H4_2 C4_2 1_555 1_555
C6_2 C5_2 1_555 1_555
C7_2 O5_2 1_555 1_555
C8_2 C7_2 1_555 1_555
C9_2 C8_2 1_555 1_555
H5_2 C9_2 1_555 1_555
H7_2 C13_2 1_555 1_555
H8_2 C13_2 1_555 1_555
H11_2 C15_2 1_555 1_555
H12_2 C15_2 1_555 1_555
O9_2 C17_2 1_555 1_555
O10_2 C17_2 1_555 1_555
C17_2 C18_2 1_555 1_555
C19_2 C9_2 1_555 1_555
H15_2 C19_2 1_555 1_555
Zn7 O10_2 1_555 1_555
O6_2 C7_2 1_555 1_555
C4_2 C5_2 1_555 1_555
C18_2 C19_2 1_555 1_555
N4_2 H22_2 1_555 1_555
Zn11 N4_2 1_555 1_555
Zn5 O1_2 1_555 1_555
S1_2 C2_2 1_555 1_555
O1_2 C1_2 1_555 1_555
O7_2 Zn5 1_555 1_555
N1_2 Zn5 1_555 1_555
H1_2 N1_2 1_555 1_555
C1_2 C2_2 1_555 1_555
C10_2 O7_2 1_555 1_555
C14_2 N1_2 1_555 1_555
H9_2 C14_2 1_555 1_555
H10_2 C14_2 1_555 1_555
O11_2 C20_2 1_555 1_555
Zn7 O11_2 1_555 1_555
N2_2 Zn9 1_555 1_555
H2_2 N2_2 1_555 1_555
N3_2 H17_2 1_555 1_555
H20_2 C24_2 1_555 1_555
H21_2 C24_2 1_555 1_555
Zn6 N3_2 1_555 1_555
S4_2 C28_2 1_555 1_555
O13_2 Zn6 1_555 1_555
C27_2 O13_2 1_555 1_555
C28_2 C27_2 1_555 1_555
O23_2 Zn6 1_555 1_555
N3_2 C24_2 1_555 1_555
H23_2 C25_2 1_555 1_555
H24_2 C25_2 1_555 1_555
C12_2 C11_2 1_555 1_555
H6_2 C12_2 1_555 1_555
H14_2 C16_2 1_555 1_555
C22_2 C12_2 1_555 1_555
H16_2 C22_2 1_555 1_555
H18_2 C23_2 1_555 1_555
H19_2 C23_2 1_555 1_555
O20 C32_2 1_555 1_555
H27_2 C29_2 1_555 1_555
C30_2 C29_2 1_555 1_555
H28_2 C30_2 1_555 1_555
C32_2 C31_2 1_555 1_555
Zn12 O12_2 1_555 1_555
C21_2 C22_2 1_555 1_555
C30_2 C31_2 1_555 1_555
O8_3 Zn2_2 1_555 1_555
N2_3 Zn2_2 1_555 1_555
H2_3 N2_3 1_555 1_555
C12_3 C11_3 1_555 1_555
H6_3 C12_3 1_555 1_555
C16_3 N2_3 1_555 1_555
H14_3 C16_3 1_555 1_555
C22_3 C12_3 1_555 1_555
H16_3 C22_3 1_555 1_555
N3_3 H17_3 1_555 1_555
H18_3 C23_3 1_555 1_555
H19_3 C23_3 1_555 1_555
H20_3 C24_3 1_555 1_555
H21_3 C24_3 1_555 1_555
Zn7 N3_3 1_555 1_555
S4_3 C28_3 1_555 1_555
O13_3 Zn7 1_555 1_555
O14_3 C27_3 1_555 1_555
O15_2 C32_3 1_555 1_555
O16_2 C32_3 1_555 1_555
C27_3 O13_3 1_555 1_555
C28_3 C27_3 1_555 1_555
C29_3 C28_3 1_555 1_555
H27_3 C29_3 1_555 1_555
C30_3 C29_3 1_555 1_555
H28_3 C30_3 1_555 1_555
C31_3 S4_3 1_555 1_555
C32_3 C31_3 1_555 1_555
Zn5_2 O15_2 1_555 1_555
Zn9_2 O16_2 1_555 1_555
O20_2 Zn2_2 1_555 1_555
C21_3 C22_3 1_555 1_555
N3_3 C23_3 1_555 1_555
N3_3 C24_3 1_555 1_555
C30_3 C31_3 1_555 1_555
H23_3 C25_3 1_555 1_555
H24_3 C25_3 1_555 1_555
Zn1_2 O1_3 1_555 1_555
S1_3 C2_3 1_555 1_555
O1_3 C1_3 1_555 1_555
O2_3 C1_3 1_555 1_555
O3_2 C6_3 1_555 1_555
O4_2 C6_3 1_555 1_555
O6_3 Zn1_2 1_555 1_555
O7_3 Zn1_2 1_555 1_555
N1_3 Zn1_2 1_555 1_555
H1_3 N1_3 1_555 1_555
C1_3 C2_3 1_555 1_555
C2_3 C3_3 1_555 1_555
C3_3 H3_3 1_555 1_555
C4_3 C3_3 1_555 1_555
H4_3 C4_3 1_555 1_555
C5_3 S1_3 1_555 1_555
C6_3 C5_3 1_555 1_555
C7_3 O5_3 1_555 1_555
C8_3 C7_3 1_555 1_555
C9_3 C8_3 1_555 1_555
H5_3 C9_3 1_555 1_555
C10_3 O7_3 1_555 1_555
C13_3 N1_3 1_555 1_555
H7_3 C13_3 1_555 1_555
H8_3 C13_3 1_555 1_555
C14_3 N1_3 1_555 1_555
H9_3 C14_3 1_555 1_555
H10_3 C14_3 1_555 1_555
H11_3 C15_3 1_555 1_555
H12_3 C15_3 1_555 1_555
O21_2 C17_3 1_555 1_555
O22_2 C17_3 1_555 1_555
C17_3 C18_3 1_555 1_555
C19_3 C9_3 1_555 1_555
H15_3 C19_3 1_555 1_555
O23_2 C20_3 1_555 1_555
Zn8 O3_2 1_555 1_555
Zn13 O4_2 1_555 1_555
O19_2 Zn12 1_555 1_555
N5 Zn12 1_555 1_555
O6_3 C7_3 1_555 1_555
C4_3 C5_3 1_555 1_555
C18_3 C19_3 1_555 1_555
N5 H22_3 1_555 1_555
H26_3 C26_3 1_555 1_555
N5 C26_3 1_555 1_555
N3_4 H17_4 1_555 1_555
H19_4 C23_4 1_555 1_555
H21_4 C24_4 1_555 1_555
Zn8 N3_4 1_555 1_555
Zn13 O14_4 1_555 1_555
S4_4 C28_4 1_555 1_555
O13_4 Zn8 1_555 1_555
O14_4 C27_4 1_555 1_555
O18_2 C32_4 1_555 1_555
O20_2 C32_4 1_555 1_555
C27_4 O13_4 1_555 1_555
C28_4 C27_4 1_555 1_555
C29_4 C28_4 1_555 1_555
H27_4 C29_4 1_555 1_555
C30_4 C29_4 1_555 1_555
H28_4 C30_4 1_555 1_555
C31_4 S4_4 1_555 1_555
C32_4 C31_4 1_555 1_555
N5_2 Zn13 1_555 1_555
N3_4 C23_4 1_555 1_555
N3_4 C24_4 1_555 1_555
C30_4 C31_4 1_555 1_555
Zn5_2 O1_4 1_555 1_555
Zn9_2 O2_4 1_555 1_555
S1_4 C2_4 1_555 1_555
S2_4 C8_4 1_555 1_555
S3_4 C11_4 1_555 1_555
O1_4 C1_4 1_555 1_555
O2_4 C1_4 1_555 1_555
O17_2 C6_4 1_555 1_555
O19_2 C6_4 1_555 1_555
O5_4 Zn9_2 1_555 1_555
O6_4 Zn5_2 1_555 1_555
O7_4 Zn5_2 1_555 1_555
O8_4 Zn9_2 1_555 1_555
N1_4 Zn5_2 1_555 1_555
H1_4 N1_4 1_555 1_555
N2_4 Zn9_2 1_555 1_555
H2_4 N2_4 1_555 1_555
C1_4 C2_4 1_555 1_555
C2_4 C3_4 1_555 1_555
C3_4 H3_4 1_555 1_555
C4_4 C3_4 1_555 1_555
H4_4 C4_4 1_555 1_555
C5_4 S1_4 1_555 1_555
C6_4 C5_4 1_555 1_555
C7_4 O5_4 1_555 1_555
C8_4 C7_4 1_555 1_555
C9_4 C8_4 1_555 1_555
H5_4 C9_4 1_555 1_555
C10_4 O7_4 1_555 1_555
C11_4 C10_4 1_555 1_555
C12_4 C11_4 1_555 1_555
H6_4 C12_4 1_555 1_555
C13_4 N1_4 1_555 1_555
H8_4 C13_4 1_555 1_555
C14_4 N1_4 1_555 1_555
H10_4 C14_4 1_555 1_555
C15_4 N2_4 1_555 1_555
H11_4 C15_4 1_555 1_555
H12_4 C15_4 1_555 1_555
C16_4 N2_4 1_555 1_555
H13_4 C16_4 1_555 1_555
H14_4 C16_4 1_555 1_555
O21 C17_4 1_555 1_555
O22 C17_4 1_555 1_555
C17_4 C18_4 1_555 1_555
C18_4 S2_4 1_555 1_555
C19_4 C9_4 1_555 1_555
H15_4 C19_4 1_555 1_555
O23 C20_4 1_555 1_555
O24 C20_4 1_555 1_555
C20_4 C21_4 1_555 1_555
C21_4 S3_4 1_555 1_555
C22_4 C12_4 1_555 1_555
H16_4 C22_4 1_555 1_555
N5_2 H22_4 1_555 1_555
C25_4 C16_4 1_555 1_555
H23_4 C25_4 1_555 1_555
H24_4 C25_4 1_555 1_555
C26_4 C15_4 1_555 1_555
H25_4 C26_4 1_555 1_555
H26_4 C26_4 1_555 1_555
O6_4 C7_4 1_555 1_555
O8_4 C10_4 1_555 1_555
C4_4 C5_4 1_555 1_555
C18_4 C19_4 1_555 1_555
C21_4 C22_4 1_555 1_555
N5_2 C25_4 1_555 1_555
N5_2 C26_4 1_555 1_555

#END
