
###############################################################################
#
# This file contains modified crystal structure data generated from the
# MOF subset of the Cambridge Structural Database (CSD) v543 
# hosted by the Cambridge Crystallographic Data Centre (CCDC).
#
# This work is licensed under the Creative Commons
# Attribution-NonCommercial-ShareAlike 4.0 International License.
# To view a copy of this license, visit
# http://creativecommons.org/licenses/by-nc-sa/4.0/
# or send a letter to
# Creative Commons, PO Box 1866, Mountain View, CA 94042, USA.
#
# CIF created using the CSD Python API on 29 September 2022
# The structure has been converted into the P1 space group
# The structure has a 3D framework
# The original CSD entry ESUQUG is in the orthorhombic crystal system
# The framework has been calculated to contain at least 10.0% void space
# The void calculation uses a probe of radius 1.32A, grid spacing 0.4
#
###############################################################################

data_ESUQUG
_chemical_formula_moiety         '(C312 H256 Co16 N32 O78)n'
_symmetry_cell_setting           triclinic
_symmetry_space_group_name_H-M   'P 1'
_symmetry_Int_Tables_number      1
_space_group_name_Hall           'P 1'
loop_
_symmetry_equiv_pos_site_id
_symmetry_equiv_pos_as_xyz
1 x,y,z
_cell_length_a                   21.2203(6)
_cell_length_b                   16.5472(4)
_cell_length_c                   23.7050(5)
_cell_angle_alpha                90
_cell_angle_beta                 90
_cell_angle_gamma                90
_cell_volume                     8323.69
loop_
_atom_site_label
_atom_site_type_symbol
_atom_site_fract_x
_atom_site_fract_y
_atom_site_fract_z
Co4 Co 0.07533(2) 0.51991(3) 0.038604(18)
O3 O 0.09137(12) 0.49915(15) 0.95828(9)
C12 C 0.05962(16) 0.46407(19) 0.92123(14)
C13 C 0.09174(15) 0.44034(18) 0.86783(13)
C14 C 0.06347(15) 0.38581(19) 0.83167(14)
H17 H 0.0241 0.3649 0.8407
C15 C 0.09259(16) 0.3618(2) 0.78237(14)
H18 H 0.0732 0.3247 0.7585
C16 C 0.15067(16) 0.3933(2) 0.76894(13)
C17 C 0.17995(16) 0.4484(2) 0.80456(14)
H19 H 0.2191 0.4699 0.7952
C18 C 0.15065(16) 0.4708(2) 0.85382(14)
H20 H 0.1705 0.5069 0.8781
C19 C 0.16114(16) 0.3101(2) 0.68780(14)
C20 C 0.18141(16) 0.2335(2) 0.69979(14)
H21 H 0.2080 0.2243 0.7303
C21 C 0.09776(16) 0.1141(2) 0.58693(13)
C22 C 0.12133(14) 0.18305(19) 0.62158(13)
C23 C 0.10215(15) 0.2616(2) 0.61003(14)
H22 H 0.0754 0.2712 0.5797
C24 C 0.12205(16) 0.3250(2) 0.64261(15)
H23 H 0.1093 0.3774 0.6343
C25 C 0.16219(15) 0.1700(2) 0.66630(14)
H24 H 0.1767 0.1181 0.6737
O4 O 0.12873(12) 0.04833(14) 0.58839(10)
O5 O 0.04969(12) 0.12037(15) 0.55784(10)
O6 O 0.00276(11) 0.44574(15) 0.92585(10)
O7 O 0.18331(11) 0.37456(15) 0.72057(10)
Co3 Co 0.07533(2) 0.98009(3) 0.538604(18)
O1 O 0.42355(12) 0.03128(13) 0.43898(10)
O2 O 0.41084(12) 0.49063(15) 0.05756(10)
Co2 Co 0.549148(19) 0.44210(2) 0.004723(16)
H1 H 0.9510 0.3109 0.0108
H2 H 0.8829 0.1929 0.0079
C6 C 0.7483(2) 0.1681(2) 0.00343(18)
H8 H 0.7797 0.1275 0.0124
C7 C 0.73861(18) 0.2208(2) 0.05543(16)
H10 H 0.7167 0.1893 0.0839
H11 H 0.7795 0.2351 0.0706
C8 C 0.7333(2) 0.3726(3) 0.03738(18)
H12 H 0.7761 0.3840 0.0410
C9 C 0.69002(19) 0.4223(2) 0.02479(19)
H13 H 0.6960 0.4771 0.0177
C10 C 0.6440(2) 0.3098(2) 0.03620(14)
C11 C 0.5953(2) 0.2451(2) 0.04383(16)
H14 H 0.5886 0.2358 0.0834
H15 H 0.6096 0.1960 0.0264
H16 H 0.5565 0.2618 0.0266
C26 C 0.43713(17) 0.4307(2) 0.07963(13)
C27 C 0.40401(15) 0.39137(19) 0.12793(12)
C28 C 0.42552(16) 0.3182(2) 0.14851(15)
H25 H 0.4587 0.2920 0.1305
C29 C 0.39830(17) 0.2835(2) 0.19554(16)
H26 H 0.4129 0.2343 0.2092
C30 C 0.34929(15) 0.3227(2) 0.22195(14)
C31 C 0.32569(16) 0.3941(2) 0.20122(13)
H27 H 0.2916 0.4191 0.2186
C32 C 0.35341(16) 0.42781(19) 0.15424(13)
H28 H 0.3377 0.4761 0.1400
C33 C 0.35357(16) 0.2434(2) 0.30564(14)
C34 C 0.40700(18) 0.2724(2) 0.33136(18)
H29 H 0.4219 0.3238 0.3229
C35 C 0.44994(16) 0.0963(2) 0.42589(12)
C36 C 0.41624(15) 0.14802(19) 0.38287(12)
C37 C 0.43824(17) 0.2247(2) 0.36967(17)
H30 H 0.4746 0.2440 0.3870
C38 C 0.36178(16) 0.1209(2) 0.35761(13)
H31 H 0.3459 0.0702 0.3668
C39 C 0.33048(16) 0.1687(2) 0.31857(14)
H32 H 0.2939 0.1500 0.3013
N3 N 0.70325(16) 0.2944(2) 0.04509(12)
N4 N 0.62937(16) 0.38068(19) 0.02316(12)
O8 O 0.50057(11) 0.12210(15) 0.44606(10)
O9 O 0.48911(12) 0.40165(15) 0.06484(10)
O10 O 0.31895(11) 0.29109(18) 0.26863(10)
O11 O 0.57645(12) 0.53128(13) 0.06102(10)
O13 O 0.90863(12) 0.50085(15) 0.04172(9)
Co7 Co 0.549148(19) 0.05790(2) 0.504723(16)
Co1 Co 0.92467(2) 0.48009(3) 0.961396(18)
C1 C 0.91293(18) 0.3069(2) 0.99155(18)
C2 C 0.87544(18) 0.2422(2) 0.99026(18)
C3 C 0.83280(17) 0.3383(2) 0.93925(15)
C4 C 0.78974(19) 0.3801(3) 0.90075(17)
H3 H 0.8029 0.4353 0.8965
H4 H 0.7478 0.3786 0.9159
H5 H 0.7903 0.3538 0.8646
C5 C 0.76866(18) 0.2114(2) 0.94986(17)
H6 H 0.7777 0.1715 0.9210
H7 H 0.7341 0.2447 0.9365
H9 H 0.7091 0.1400 0.9957
N1 N 0.88532(14) 0.36768(18) 0.95895(12)
N2 N 0.82363(13) 0.26167(16) 0.95806(12)
O12 O 0.58916(12) 0.50937(15) 0.94244(10)
Co6 Co 0.450852(19) 0.55790(2) 0.995277(16)
O14 O 0.87127(12) 0.54833(14) 0.91161(10)
O15 O 0.95031(12) 0.62037(15) 0.94216(10)
O16 O 0.50057(11) 0.37790(15) 0.94606(10)
Co5 Co 0.450852(19) 0.94210(2) 0.495277(16)
O12_2 O 0.41084(12) 0.00937(15) 0.55756(10)
O13_2 O 0.09137(12) 0.00085(15) 0.45828(9)
O2_2 O 0.58916(12) 0.99063(15) 0.44244(10)
C1_2 C 0.08707(18) 0.8069(2) 0.50845(18)
H1_2 H 0.0490 0.8109 0.4892
C2_2 C 0.12456(18) 0.7422(2) 0.50974(18)
H2_2 H 0.1171 0.6929 0.4921
C3_2 C 0.16720(17) 0.8383(2) 0.56075(15)
C4_2 C 0.21026(19) 0.8801(3) 0.59925(17)
H3_2 H 0.1971 0.9353 0.6035
H4_2 H 0.2522 0.8786 0.5841
H5_2 H 0.2097 0.8538 0.6354
C5_2 C 0.23134(18) 0.7114(2) 0.55014(17)
H6_2 H 0.2223 0.6715 0.5790
H7_2 H 0.2659 0.7447 0.5635
C6_2 C 0.2517(2) 0.6681(2) 0.49657(18)
H8_2 H 0.2203 0.6275 0.4876
H9_2 H 0.2909 0.6400 0.5043
C7_2 C 0.26139(18) 0.7208(2) 0.44457(16)
H10_2 H 0.2833 0.6893 0.4161
H11_2 H 0.2205 0.7351 0.4294
C8_2 C 0.2667(2) 0.8726(3) 0.46262(18)
H12_2 H 0.2239 0.8840 0.4590
C9_2 C 0.30998(19) 0.9223(2) 0.47521(19)
H13_2 H 0.3040 0.9771 0.4823
C10_2 C 0.3560(2) 0.8098(2) 0.46380(14)
C11_2 C 0.4047(2) 0.7451(2) 0.45617(16)
H14_2 H 0.4114 0.7358 0.4166
H15_2 H 0.3904 0.6960 0.4736
H16_2 H 0.4435 0.7618 0.4734
C26_2 C 0.56287(17) 0.9307(2) 0.42037(13)
C27_2 C 0.59599(15) 0.89137(19) 0.37207(12)
C28_2 C 0.57448(16) 0.8182(2) 0.35149(15)
H25_2 H 0.5413 0.7920 0.3695
C29_2 C 0.60170(17) 0.7835(2) 0.30446(16)
H26_2 H 0.5871 0.7343 0.2908
C30_2 C 0.65071(15) 0.8227(2) 0.27805(14)
C31_2 C 0.67431(16) 0.8941(2) 0.29878(13)
H27_2 H 0.7084 0.9191 0.2814
C32_2 C 0.64659(16) 0.92781(19) 0.34576(13)
H28_2 H 0.6623 0.9761 0.3600
C33_2 C 0.64643(16) 0.7434(2) 0.19436(14)
C34_2 C 0.59300(18) 0.7724(2) 0.16864(18)
H29_2 H 0.5781 0.8238 0.1771
C35_2 C 0.55006(16) 0.5963(2) 0.07411(12)
C36_2 C 0.58376(15) 0.64802(19) 0.11713(12)
C37_2 C 0.56176(17) 0.7247(2) 0.13033(17)
H30_2 H 0.5254 0.7440 0.1130
C38_2 C 0.63822(16) 0.6209(2) 0.14239(13)
H31_2 H 0.6541 0.5702 0.1332
C39_2 C 0.66952(16) 0.6687(2) 0.18143(14)
H32_2 H 0.7061 0.6500 0.1987
N1_2 N 0.11468(14) 0.86768(18) 0.54105(12)
N2_2 N 0.17637(13) 0.76167(16) 0.54194(12)
N3_2 N 0.29675(16) 0.7944(2) 0.45491(12)
N4_2 N 0.37063(16) 0.88068(19) 0.47684(12)
O8_2 O 0.49943(11) 0.62210(15) 0.05394(10)
O9_2 O 0.51089(12) 0.90165(15) 0.43516(10)
O10_2 O 0.68105(11) 0.79109(18) 0.23137(10)
O16_2 O 0.49943(11) 0.87790(15) 0.55394(10)
H20_2 H 0.8295 0.0069 0.6219
Co4_2 Co 0.92467(2) 0.01991(3) 0.461396(18)
O3_2 O 0.90863(12) 0.99915(15) 0.54172(9)
C12_2 C 0.94038(16) 0.96407(19) 0.57877(14)
C13_2 C 0.90826(15) 0.94034(18) 0.63217(13)
C14_2 C 0.93653(15) 0.88581(19) 0.66833(14)
H17_2 H 0.9759 0.8649 0.6593
C15_2 C 0.90741(16) 0.8618(2) 0.71763(14)
H18_2 H 0.9268 0.8247 0.7415
C16_2 C 0.84933(16) 0.8933(2) 0.73106(13)
C17_2 C 0.82005(16) 0.9484(2) 0.69544(14)
H19_2 H 0.7809 0.9699 0.7048
C18_2 C 0.84935(16) 0.9708(2) 0.64618(14)
C19_2 C 0.83886(16) 0.8101(2) 0.81220(14)
C20_2 C 0.81859(16) 0.7335(2) 0.80021(14)
H21_2 H 0.7920 0.7243 0.7697
C21_2 C 0.90224(16) 0.6141(2) 0.91307(13)
C22_2 C 0.87867(14) 0.68305(19) 0.87842(13)
C23_2 C 0.89785(15) 0.7616(2) 0.88997(14)
H22_2 H 0.9246 0.7712 0.9203
C24_2 C 0.87795(16) 0.8250(2) 0.85739(15)
H23_2 H 0.8907 0.8774 0.8657
C25_2 C 0.83781(15) 0.6700(2) 0.83370(14)
H24_2 H 0.8233 0.6181 0.8263
O6_2 O 0.99724(11) 0.94574(15) 0.57415(10)
O7_2 O 0.81669(11) 0.87456(15) 0.77943(10)
C1_3 C 0.08707(18) 0.6931(2) 0.00845(18)
C2_3 C 0.12456(18) 0.7578(2) 0.00974(18)
C3_3 C 0.16720(17) 0.6617(2) 0.06075(15)
C4_3 C 0.21026(19) 0.6199(3) 0.09925(17)
H3_3 H 0.1971 0.5647 0.1035
H4_3 H 0.2522 0.6214 0.0841
H5_3 H 0.2097 0.6462 0.1354
C5_3 C 0.23134(18) 0.7886(2) 0.05014(17)
H6_3 H 0.2223 0.8285 0.0790
H7_3 H 0.2659 0.7553 0.0635
H9_3 H 0.2909 0.8600 0.0043
N1_3 N 0.11468(14) 0.63232(18) 0.04105(12)
N2_3 N 0.17637(13) 0.73833(16) 0.04194(12)
O14_2 O 0.12873(12) 0.45167(14) 0.08839(10)
O15_2 O 0.04969(12) 0.37963(15) 0.05784(10)
O1_2 O 0.57645(12) 0.96872(13) 0.56102(10)
H1_3 H 0.0490 0.6891 0.9892
H2_3 H 0.1171 0.8071 0.9921
C6_3 C 0.2517(2) 0.8319(2) 0.99657(18)
H8_3 H 0.2203 0.8725 0.9876
C7_3 C 0.26139(18) 0.7792(2) 0.94457(16)
H10_3 H 0.2833 0.8107 0.9161
H11_3 H 0.2205 0.7649 0.9294
C8_3 C 0.2667(2) 0.6274(3) 0.96262(18)
H12_3 H 0.2239 0.6160 0.9590
C9_3 C 0.30998(19) 0.5777(2) 0.97521(19)
H13_3 H 0.3040 0.5229 0.9823
C10_3 C 0.3560(2) 0.6902(2) 0.96380(14)
C11_3 C 0.4047(2) 0.7549(2) 0.95617(16)
H14_3 H 0.4114 0.7642 0.9166
H15_3 H 0.3904 0.8040 0.9736
H16_3 H 0.4435 0.7382 0.9734
C26_3 C 0.56287(17) 0.5693(2) 0.92037(13)
C27_3 C 0.59599(15) 0.60863(19) 0.87207(12)
C28_3 C 0.57448(16) 0.6818(2) 0.85149(15)
H25_3 H 0.5413 0.7080 0.8695
C29_3 C 0.60170(17) 0.7165(2) 0.80446(16)
H26_3 H 0.5871 0.7657 0.7908
C30_3 C 0.65071(15) 0.6773(2) 0.77805(14)
C31_3 C 0.67431(16) 0.6059(2) 0.79878(13)
H27_3 H 0.7084 0.5809 0.7814
C32_3 C 0.64659(16) 0.57219(19) 0.84576(13)
H28_3 H 0.6623 0.5239 0.8600
C33_3 C 0.64643(16) 0.7566(2) 0.69436(14)
C34_3 C 0.59300(18) 0.7276(2) 0.66864(18)
H29_3 H 0.5781 0.6762 0.6771
C35_3 C 0.55006(16) 0.9037(2) 0.57411(12)
C36_3 C 0.58376(15) 0.85198(19) 0.61713(12)
C37_3 C 0.56176(17) 0.7753(2) 0.63033(17)
H30_3 H 0.5254 0.7560 0.6130
C38_3 C 0.63822(16) 0.8791(2) 0.64239(13)
H31_3 H 0.6541 0.9298 0.6332
C39_3 C 0.66952(16) 0.8313(2) 0.68143(14)
H32_3 H 0.7061 0.8500 0.6987
N3_3 N 0.29675(16) 0.7056(2) 0.95491(12)
N4_3 N 0.37063(16) 0.61932(19) 0.97684(12)
O9_3 O 0.51089(12) 0.59835(15) 0.93516(10)
O10_3 O 0.68105(11) 0.70891(18) 0.73137(10)
O11_2 O 0.42355(12) 0.46872(13) 0.93898(10)
C12_3 C 0.94038(16) 0.53593(19) 0.07877(14)
C13_3 C 0.90826(15) 0.55966(18) 0.13217(13)
C14_3 C 0.93653(15) 0.61419(19) 0.16833(14)
H17_3 H 0.9759 0.6351 0.1593
C15_3 C 0.90741(16) 0.6382(2) 0.21763(14)
H18_3 H 0.9268 0.6753 0.2415
C16_3 C 0.84933(16) 0.6067(2) 0.23106(13)
C17_3 C 0.82005(16) 0.5516(2) 0.19544(14)
H19_3 H 0.7809 0.5301 0.2048
C18_3 C 0.84935(16) 0.5292(2) 0.14618(14)
H20_3 H 0.8295 0.4931 0.1219
C19_3 C 0.83886(16) 0.6899(2) 0.31220(14)
C20_3 C 0.81859(16) 0.7665(2) 0.30021(14)
H21_3 H 0.7920 0.7757 0.2697
C21_3 C 0.90224(16) 0.8859(2) 0.41307(13)
C22_3 C 0.87867(14) 0.81695(19) 0.37842(13)
C23_3 C 0.89785(15) 0.7384(2) 0.38997(14)
H22_3 H 0.9246 0.7288 0.4203
C24_3 C 0.87795(16) 0.6750(2) 0.35739(15)
H23_3 H 0.8907 0.6226 0.3657
C25_3 C 0.83781(15) 0.8300(2) 0.33370(14)
H24_3 H 0.8233 0.8819 0.3263
O4_2 O 0.87127(12) 0.95167(14) 0.41161(10)
O5_2 O 0.95031(12) 0.87963(15) 0.44216(10)
O6_3 O 0.99724(11) 0.55426(15) 0.07415(10)
O7_3 O 0.81669(11) 0.62544(15) 0.27943(10)
C12_4 C 0.05962(16) 0.03593(19) 0.42123(14)
C13_4 C 0.09174(15) 0.05966(18) 0.36783(13)
C14_4 C 0.06347(15) 0.11419(19) 0.33167(14)
H17_4 H 0.0241 0.1351 0.3407
C15_4 C 0.09259(16) 0.1382(2) 0.28237(14)
H18_4 H 0.0732 0.1753 0.2585
C16_4 C 0.15067(16) 0.1067(2) 0.26894(13)
C17_4 C 0.17995(16) 0.0516(2) 0.30456(14)
H19_4 H 0.2191 0.0301 0.2952
C18_4 C 0.15065(16) 0.0292(2) 0.35382(14)
C19_4 C 0.16114(16) 0.1899(2) 0.18780(14)
C20_4 C 0.18141(16) 0.2665(2) 0.19979(14)
H21_4 H 0.2080 0.2757 0.2303
C21_4 C 0.09776(16) 0.3859(2) 0.08693(13)
C22_4 C 0.12133(14) 0.31695(19) 0.12158(13)
C23_4 C 0.10215(15) 0.2384(2) 0.11003(14)
H22_4 H 0.0754 0.2288 0.0797
C24_4 C 0.12205(16) 0.1750(2) 0.14261(15)
H23_4 H 0.1093 0.1226 0.1343
C25_4 C 0.16219(15) 0.3300(2) 0.16630(14)
H24_4 H 0.1767 0.3819 0.1737
O6_4 O 0.00276(11) 0.05426(15) 0.42585(10)
O7_4 O 0.18331(11) 0.12544(15) 0.22057(10)
H20_4 H 0.1705 0.9931 0.3781
C1_4 C 0.91293(18) 0.1931(2) 0.49155(18)
H1_4 H 0.9510 0.1891 0.5108
C2_4 C 0.87544(18) 0.2578(2) 0.49026(18)
H2_4 H 0.8829 0.3071 0.5079
C3_4 C 0.83280(17) 0.1617(2) 0.43925(15)
C4_4 C 0.78974(19) 0.1199(3) 0.40075(17)
H3_4 H 0.8029 0.0647 0.3965
H4_4 H 0.7478 0.1214 0.4159
H5_4 H 0.7903 0.1462 0.3646
C5_4 C 0.76866(18) 0.2886(2) 0.44986(17)
H6_4 H 0.7777 0.3285 0.4210
H7_4 H 0.7341 0.2553 0.4365
C6_4 C 0.7483(2) 0.3319(2) 0.50343(18)
H8_4 H 0.7797 0.3725 0.5124
H9_4 H 0.7091 0.3600 0.4957
C7_4 C 0.73861(18) 0.2792(2) 0.55543(16)
H10_4 H 0.7167 0.3107 0.5839
H11_4 H 0.7795 0.2649 0.5706
C8_4 C 0.7333(2) 0.1274(3) 0.53738(18)
H12_4 H 0.7761 0.1160 0.5410
C9_4 C 0.69002(19) 0.0777(2) 0.52479(19)
H13_4 H 0.6960 0.0229 0.5177
C10_4 C 0.6440(2) 0.1902(2) 0.53620(14)
C11_4 C 0.5953(2) 0.2549(2) 0.54383(16)
H14_4 H 0.5886 0.2642 0.5834
H15_4 H 0.6096 0.3040 0.5264
H16_4 H 0.5565 0.2382 0.5266
C26_4 C 0.43713(17) 0.0693(2) 0.57963(13)
C27_4 C 0.40401(15) 0.10863(19) 0.62793(12)
C28_4 C 0.42552(16) 0.1818(2) 0.64851(15)
H25_4 H 0.4587 0.2080 0.6305
C29_4 C 0.39830(17) 0.2165(2) 0.69554(16)
H26_4 H 0.4129 0.2657 0.7092
C30_4 C 0.34929(15) 0.1773(2) 0.72195(14)
C31_4 C 0.32569(16) 0.1059(2) 0.70122(13)
H27_4 H 0.2916 0.0809 0.7186
C32_4 C 0.35341(16) 0.07219(19) 0.65424(13)
H28_4 H 0.3377 0.0239 0.6400
C33_4 C 0.35357(16) 0.2566(2) 0.80564(14)
C34_4 C 0.40700(18) 0.2276(2) 0.83136(18)
H29_4 H 0.4219 0.1762 0.8229
C35_4 C 0.44994(16) 0.4037(2) 0.92589(12)
C36_4 C 0.41624(15) 0.35198(19) 0.88287(12)
C37_4 C 0.43824(17) 0.2753(2) 0.86967(17)
H30_4 H 0.4746 0.2560 0.8870
C38_4 C 0.36178(16) 0.3791(2) 0.85761(13)
H31_4 H 0.3459 0.4298 0.8668
C39_4 C 0.33048(16) 0.3313(2) 0.81857(14)
H32_4 H 0.2939 0.3500 0.8013
N1_4 N 0.88532(14) 0.13232(18) 0.45895(12)
N2_4 N 0.82363(13) 0.23833(16) 0.45806(12)
N3_4 N 0.70325(16) 0.2056(2) 0.54509(12)
N4_4 N 0.62937(16) 0.11932(19) 0.52316(12)
O9_4 O 0.48911(12) 0.09835(15) 0.56484(10)
O10_4 O 0.31895(11) 0.20891(18) 0.76863(10)
Co5_2 Co 0.049148(19) 0.05790(2) 0.995277(16)
O1_3 O 0.07645(12) 0.96872(13) 0.93898(10)
O2_3 O 0.08916(12) 0.50937(15) 0.55756(10)
C26_5 C 0.06287(17) 0.5693(2) 0.57963(13)
C27_5 C 0.09599(15) 0.60863(19) 0.62793(12)
C28_5 C 0.07448(16) 0.6818(2) 0.64851(15)
H25_5 H 0.0413 0.7080 0.6305
C29_5 C 0.10170(17) 0.7165(2) 0.69554(16)
H26_5 H 0.0871 0.7657 0.7092
C30_5 C 0.15071(15) 0.6773(2) 0.72195(14)
C31_5 C 0.17431(16) 0.6059(2) 0.70122(13)
H27_5 H 0.2084 0.5809 0.7186
C32_5 C 0.14659(16) 0.57219(19) 0.65424(13)
H28_5 H 0.1623 0.5239 0.6400
C33_5 C 0.14643(16) 0.7566(2) 0.80564(14)
C34_5 C 0.09300(18) 0.7276(2) 0.83136(18)
H29_5 H 0.0781 0.6762 0.8229
C35_5 C 0.05006(16) 0.9037(2) 0.92589(12)
C36_5 C 0.08376(15) 0.85198(19) 0.88287(12)
C37_5 C 0.06176(17) 0.7753(2) 0.86967(17)
H30_5 H 0.0254 0.7560 0.8870
C38_5 C 0.13822(16) 0.8791(2) 0.85761(13)
H31_5 H 0.1541 0.9298 0.8668
C39_5 C 0.16952(16) 0.8313(2) 0.81857(14)
H32_5 H 0.2061 0.8500 0.8013
O9_5 O 0.01089(12) 0.59835(15) 0.56484(10)
O10_5 O 0.18105(11) 0.70891(18) 0.76863(10)
Co6_2 Co 0.049148(19) 0.44210(2) 0.495277(16)
Co3_2 Co 0.42467(2) 0.01991(3) 0.038604(18)
Co7_2 Co 0.950852(19) 0.94210(2) 0.004723(16)
O3_3 O 0.40863(12) 0.50085(15) 0.45828(9)
Co1_2 Co 0.57533(2) 0.51991(3) 0.461396(18)
Co2_2 Co 0.950852(19) 0.55790(2) 0.504723(16)
C1_5 C 0.58707(18) 0.6931(2) 0.49155(18)
H1_5 H 0.5490 0.6891 0.5108
C2_5 C 0.62456(18) 0.7578(2) 0.49026(18)
H2_5 H 0.6171 0.8071 0.5079
C3_5 C 0.66720(17) 0.6617(2) 0.43925(15)
C4_5 C 0.71026(19) 0.6199(3) 0.40075(17)
H3_5 H 0.6971 0.5647 0.3965
H4_5 H 0.7522 0.6214 0.4159
H5_5 H 0.7097 0.6462 0.3646
C5_5 C 0.73134(18) 0.7886(2) 0.44986(17)
H6_5 H 0.7223 0.8285 0.4210
H7_5 H 0.7659 0.7553 0.4365
C6_5 C 0.7517(2) 0.8319(2) 0.50343(18)
H8_5 H 0.7203 0.8725 0.5124
H9_5 H 0.7909 0.8600 0.4957
C7_5 C 0.76139(18) 0.7792(2) 0.55543(16)
H10_5 H 0.7833 0.8107 0.5839
H11_5 H 0.7205 0.7649 0.5706
C8_5 C 0.7667(2) 0.6274(3) 0.53738(18)
H12_5 H 0.7239 0.6160 0.5410
C9_5 C 0.80998(19) 0.5777(2) 0.52479(19)
H13_5 H 0.8040 0.5229 0.5177
C10_5 C 0.8560(2) 0.6902(2) 0.53620(14)
C11_5 C 0.9047(2) 0.7549(2) 0.54383(16)
H14_5 H 0.9114 0.7642 0.5834
H15_5 H 0.8904 0.8040 0.5264
H16_5 H 0.9435 0.7382 0.5266
C12_5 C 0.44038(16) 0.53593(19) 0.42123(14)
C13_5 C 0.40826(15) 0.55966(18) 0.36783(13)
C14_5 C 0.43653(15) 0.61419(19) 0.33167(14)
H17_5 H 0.4759 0.6351 0.3407
C15_5 C 0.40741(16) 0.6382(2) 0.28237(14)
H18_5 H 0.4268 0.6753 0.2585
C16_5 C 0.34933(16) 0.6067(2) 0.26894(13)
C17_5 C 0.32005(16) 0.5516(2) 0.30456(14)
H19_5 H 0.2809 0.5301 0.2952
C18_5 C 0.34935(16) 0.5292(2) 0.35382(14)
H20_5 H 0.3295 0.4931 0.3781
C19_5 C 0.33886(16) 0.6899(2) 0.18780(14)
C20_5 C 0.31859(16) 0.7665(2) 0.19979(14)
H21_5 H 0.2920 0.7757 0.2303
C21_5 C 0.40224(16) 0.8859(2) 0.08693(13)
C22_5 C 0.37867(14) 0.81695(19) 0.12158(13)
C23_5 C 0.39785(15) 0.7384(2) 0.11003(14)
H22_5 H 0.4246 0.7288 0.0797
C24_5 C 0.37795(16) 0.6750(2) 0.14261(15)
H23_5 H 0.3907 0.6226 0.1343
C25_5 C 0.33781(15) 0.8300(2) 0.16630(14)
H24_5 H 0.3233 0.8819 0.1737
N1_5 N 0.61468(14) 0.63232(18) 0.45895(12)
N2_5 N 0.67637(13) 0.73833(16) 0.45806(12)
N3_5 N 0.79675(16) 0.7056(2) 0.54509(12)
N4_5 N 0.87063(16) 0.61932(19) 0.52316(12)
O4_3 O 0.37127(12) 0.95167(14) 0.08839(10)
O5_3 O 0.45031(12) 0.87963(15) 0.05784(10)
O6_5 O 0.49724(11) 0.55426(15) 0.42585(10)
O7_5 O 0.31669(11) 0.62544(15) 0.22057(10)
O8_3 O 0.99943(11) 0.87790(15) 0.94606(10)
O11_3 O 0.92355(12) 0.46872(13) 0.56102(10)
O12_3 O 0.91084(12) 0.49063(15) 0.44244(10)
O13_3 O 0.59137(12) 0.49915(15) 0.54172(9)
Co4_3 Co 0.42467(2) 0.48009(3) 0.538604(18)
O14_3 O 0.62873(12) 0.45167(14) 0.41161(10)
O15_3 O 0.54969(12) 0.37963(15) 0.44216(10)
O16_3 O 0.99943(11) 0.62210(15) 0.44606(10)
O3_4 O 0.59137(12) 0.00085(15) 0.04172(9)
C1_6 C 0.41293(18) 0.1931(2) 0.00845(18)
C2_6 C 0.37544(18) 0.2578(2) 0.00974(18)
C3_6 C 0.33280(17) 0.1617(2) 0.06075(15)
C4_6 C 0.28974(19) 0.1199(3) 0.09925(17)
H3_6 H 0.3029 0.0647 0.1035
H4_6 H 0.2478 0.1214 0.0841
H5_6 H 0.2903 0.1462 0.1354
C5_6 C 0.26866(18) 0.2886(2) 0.05014(17)
H6_6 H 0.2777 0.3285 0.0790
H7_6 H 0.2341 0.2553 0.0635
H9_6 H 0.2091 0.3600 0.0043
C12_6 C 0.55962(16) 0.03593(19) 0.07877(14)
C13_6 C 0.59174(15) 0.05966(18) 0.13217(13)
C14_6 C 0.56347(15) 0.11419(19) 0.16833(14)
H17_6 H 0.5241 0.1351 0.1593
C15_6 C 0.59259(16) 0.1382(2) 0.21763(14)
H18_6 H 0.5732 0.1753 0.2415
C16_6 C 0.65067(16) 0.1067(2) 0.23106(13)
C17_6 C 0.67995(16) 0.0516(2) 0.19544(14)
H19_6 H 0.7191 0.0301 0.2048
C18_6 C 0.65065(16) 0.0292(2) 0.14618(14)
C19_6 C 0.66114(16) 0.1899(2) 0.31220(14)
C20_6 C 0.68141(16) 0.2665(2) 0.30021(14)
H21_6 H 0.7080 0.2757 0.2697
C21_6 C 0.59776(16) 0.3859(2) 0.41307(13)
C22_6 C 0.62133(14) 0.31695(19) 0.37842(13)
C23_6 C 0.60215(15) 0.2384(2) 0.38997(14)
H22_6 H 0.5754 0.2288 0.4203
C24_6 C 0.62205(16) 0.1750(2) 0.35739(15)
H23_6 H 0.6093 0.1226 0.3657
C25_6 C 0.66219(15) 0.3300(2) 0.33370(14)
H24_6 H 0.6767 0.3819 0.3263
N1_6 N 0.38532(14) 0.13232(18) 0.04105(12)
N2_6 N 0.32363(13) 0.23833(16) 0.04194(12)
O6_6 O 0.50276(11) 0.05426(15) 0.07415(10)
O7_6 O 0.68331(11) 0.12544(15) 0.27943(10)
O16_4 O 0.00057(11) 0.12210(15) 0.05394(10)
H1_6 H 0.4510 0.1891 0.9892
H2_6 H 0.3829 0.3071 0.9921
C6_6 C 0.2483(2) 0.3319(2) 0.99657(18)
H8_6 H 0.2797 0.3725 0.9876
C7_6 C 0.23861(18) 0.2792(2) 0.94457(16)
H10_6 H 0.2167 0.3107 0.9161
H11_6 H 0.2795 0.2649 0.9294
C8_6 C 0.2333(2) 0.1274(3) 0.96262(18)
H12_6 H 0.2761 0.1160 0.9590
C9_6 C 0.19002(19) 0.0777(2) 0.97521(19)
H13_6 H 0.1960 0.0229 0.9823
C10_6 C 0.1440(2) 0.1902(2) 0.96380(14)
C11_6 C 0.0953(2) 0.2549(2) 0.95617(16)
H14_6 H 0.0886 0.2642 0.9166
H15_6 H 0.1096 0.3040 0.9736
H16_6 H 0.0565 0.2382 0.9734
N3_6 N 0.20325(16) 0.2056(2) 0.95491(12)
N4_6 N 0.12937(16) 0.11932(19) 0.97684(12)
O8_4 O 0.00057(11) 0.37790(15) 0.55394(10)
H20_6 H 0.6705 0.9931 0.1219
O12_4 O 0.08916(12) 0.99063(15) 0.05756(10)
O13_4 O 0.40863(12) 0.99915(15) 0.95828(9)
Co4_4 Co 0.57533(2) 0.98009(3) 0.961396(18)
O2_4 O 0.91084(12) 0.00937(15) 0.94244(10)
C26_6 C 0.93713(17) 0.0693(2) 0.92037(13)
C27_6 C 0.90401(15) 0.10863(19) 0.87207(12)
C28_6 C 0.92552(16) 0.1818(2) 0.85149(15)
H25_6 H 0.9587 0.2080 0.8695
C29_6 C 0.89830(17) 0.2165(2) 0.80446(16)
H26_6 H 0.9129 0.2657 0.7908
C30_6 C 0.84929(15) 0.1773(2) 0.77805(14)
C31_6 C 0.82569(16) 0.1059(2) 0.79878(13)
H27_6 H 0.7916 0.0809 0.7814
C32_6 C 0.85341(16) 0.07219(19) 0.84576(13)
H28_6 H 0.8377 0.0239 0.8600
C33_6 C 0.85357(16) 0.2566(2) 0.69436(14)
C34_6 C 0.90700(18) 0.2276(2) 0.66864(18)
H29_6 H 0.9219 0.1762 0.6771
C35_6 C 0.94994(16) 0.4037(2) 0.57411(12)
C36_6 C 0.91624(15) 0.35198(19) 0.61713(12)
C37_6 C 0.93824(17) 0.2753(2) 0.63033(17)
H30_6 H 0.9746 0.2560 0.6130
C38_6 C 0.86178(16) 0.3791(2) 0.64239(13)
H31_6 H 0.8459 0.4298 0.6332
C39_6 C 0.83048(16) 0.3313(2) 0.68143(14)
H32_6 H 0.7939 0.3500 0.6987
O9_6 O 0.98911(12) 0.09835(15) 0.93516(10)
O10_6 O 0.81895(11) 0.20891(18) 0.73137(10)
C1_7 C 0.41293(18) 0.3069(2) 0.50845(18)
H1_7 H 0.4510 0.3109 0.4892
C2_7 C 0.37544(18) 0.2422(2) 0.50974(18)
H2_7 H 0.3829 0.1929 0.4921
C3_7 C 0.33280(17) 0.3383(2) 0.56075(15)
C4_7 C 0.28974(19) 0.3801(3) 0.59925(17)
H3_7 H 0.3029 0.4353 0.6035
H4_7 H 0.2478 0.3786 0.5841
H5_7 H 0.2903 0.3538 0.6354
C5_7 C 0.26866(18) 0.2114(2) 0.55014(17)
H6_7 H 0.2777 0.1715 0.5790
H7_7 H 0.2341 0.2447 0.5635
C6_7 C 0.2483(2) 0.1681(2) 0.49657(18)
H8_7 H 0.2797 0.1275 0.4876
H9_7 H 0.2091 0.1400 0.5043
C7_7 C 0.23861(18) 0.2208(2) 0.44457(16)
H10_7 H 0.2167 0.1893 0.4161
H11_7 H 0.2795 0.2351 0.4294
C8_7 C 0.2333(2) 0.3726(3) 0.46262(18)
H12_7 H 0.2761 0.3840 0.4590
C9_7 C 0.19002(19) 0.4223(2) 0.47521(19)
H13_7 H 0.1960 0.4771 0.4823
C10_7 C 0.1440(2) 0.3098(2) 0.46380(14)
C11_7 C 0.0953(2) 0.2451(2) 0.45617(16)
H14_7 H 0.0886 0.2358 0.4166
H15_7 H 0.1096 0.1960 0.4736
H16_7 H 0.0565 0.2618 0.4734
C12_7 C 0.55962(16) 0.46407(19) 0.57877(14)
C13_7 C 0.59174(15) 0.44034(18) 0.63217(13)
C14_7 C 0.56347(15) 0.38581(19) 0.66833(14)
H17_7 H 0.5241 0.3649 0.6593
C15_7 C 0.59259(16) 0.3618(2) 0.71763(14)
H18_7 H 0.5732 0.3247 0.7415
C16_7 C 0.65067(16) 0.3933(2) 0.73106(13)
C17_7 C 0.67995(16) 0.4484(2) 0.69544(14)
H19_7 H 0.7191 0.4699 0.7048
C18_7 C 0.65065(16) 0.4708(2) 0.64618(14)
H20_7 H 0.6705 0.5069 0.6219
C19_7 C 0.66114(16) 0.3101(2) 0.81220(14)
C20_7 C 0.68141(16) 0.2335(2) 0.80021(14)
H21_7 H 0.7080 0.2243 0.7697
C21_7 C 0.59776(16) 0.1141(2) 0.91307(13)
C22_7 C 0.62133(14) 0.18305(19) 0.87842(13)
C23_7 C 0.60215(15) 0.2616(2) 0.88997(14)
H22_7 H 0.5754 0.2712 0.9203
C24_7 C 0.62205(16) 0.3250(2) 0.85739(15)
H23_7 H 0.6093 0.3774 0.8657
C25_7 C 0.66219(15) 0.1700(2) 0.83370(14)
H24_7 H 0.6767 0.1181 0.8263
N1_7 N 0.38532(14) 0.36768(18) 0.54105(12)
N2_7 N 0.32363(13) 0.26167(16) 0.54194(12)
N3_7 N 0.20325(16) 0.2944(2) 0.45491(12)
N4_7 N 0.12937(16) 0.38068(19) 0.47684(12)
O4_4 O 0.62873(12) 0.04833(14) 0.91161(10)
O5_4 O 0.54969(12) 0.12037(15) 0.94216(10)
O6_7 O 0.50276(11) 0.44574(15) 0.57415(10)
O7_7 O 0.68331(11) 0.37456(15) 0.77943(10)
O11_4 O 0.07645(12) 0.53128(13) 0.43898(10)
O14_4 O 0.37127(12) 0.54833(14) 0.58839(10)
O15_4 O 0.45031(12) 0.62037(15) 0.55784(10)
O1_4 O 0.92355(12) 0.03128(13) 0.06102(10)
C26_7 C 0.93713(17) 0.4307(2) 0.42037(13)
C27_7 C 0.90401(15) 0.39137(19) 0.37207(12)
C28_7 C 0.92552(16) 0.3182(2) 0.35149(15)
H25_7 H 0.9587 0.2920 0.3695
C29_7 C 0.89830(17) 0.2835(2) 0.30446(16)
H26_7 H 0.9129 0.2343 0.2908
C30_7 C 0.84929(15) 0.3227(2) 0.27805(14)
C31_7 C 0.82569(16) 0.3941(2) 0.29878(13)
H27_7 H 0.7916 0.4191 0.2814
C32_7 C 0.85341(16) 0.42781(19) 0.34576(13)
H28_7 H 0.8377 0.4761 0.3600
C33_7 C 0.85357(16) 0.2434(2) 0.19436(14)
C34_7 C 0.90700(18) 0.2724(2) 0.16864(18)
H29_7 H 0.9219 0.3238 0.1771
C35_7 C 0.94994(16) 0.0963(2) 0.07411(12)
C36_7 C 0.91624(15) 0.14802(19) 0.11713(12)
C37_7 C 0.93824(17) 0.2247(2) 0.13033(17)
H30_7 H 0.9746 0.2440 0.1130
C38_7 C 0.86178(16) 0.1209(2) 0.14239(13)
H31_7 H 0.8459 0.0702 0.1332
C39_7 C 0.83048(16) 0.1687(2) 0.18143(14)
H32_7 H 0.7939 0.1500 0.1987
O9_7 O 0.98911(12) 0.40165(15) 0.43516(10)
O10_7 O 0.81895(11) 0.29109(18) 0.23137(10)
C26_8 C 0.06287(17) 0.9307(2) 0.07963(13)
C27_8 C 0.09599(15) 0.89137(19) 0.12793(12)
C28_8 C 0.07448(16) 0.8182(2) 0.14851(15)
H25_8 H 0.0413 0.7920 0.1305
C29_8 C 0.10170(17) 0.7835(2) 0.19554(16)
H26_8 H 0.0871 0.7343 0.2092
C30_8 C 0.15071(15) 0.8227(2) 0.22195(14)
C31_8 C 0.17431(16) 0.8941(2) 0.20122(13)
H27_8 H 0.2084 0.9191 0.2186
C32_8 C 0.14659(16) 0.92781(19) 0.15424(13)
H28_8 H 0.1623 0.9761 0.1400
C33_8 C 0.14643(16) 0.7434(2) 0.30564(14)
C34_8 C 0.09300(18) 0.7724(2) 0.33136(18)
H29_8 H 0.0781 0.8238 0.3229
C35_8 C 0.05006(16) 0.5963(2) 0.42589(12)
C36_8 C 0.08376(15) 0.64802(19) 0.38287(12)
C37_8 C 0.06176(17) 0.7247(2) 0.36967(17)
H30_8 H 0.0254 0.7440 0.3870
C38_8 C 0.13822(16) 0.6209(2) 0.35761(13)
H31_8 H 0.1541 0.5702 0.3668
C39_8 C 0.16952(16) 0.6687(2) 0.31857(14)
H32_8 H 0.2061 0.6500 0.3013
O9_8 O 0.01089(12) 0.90165(15) 0.06484(10)
O10_8 O 0.18105(11) 0.79109(18) 0.26863(10)
H20_8 H 0.3295 0.0069 0.8781
H1_8 H 0.5490 0.8109 0.0108
H2_8 H 0.6171 0.6929 0.0079
C6_8 C 0.7517(2) 0.6681(2) 0.00343(18)
H8_8 H 0.7203 0.6275 0.0124
C7_8 C 0.76139(18) 0.7208(2) 0.05543(16)
H10_8 H 0.7833 0.6893 0.0839
H11_8 H 0.7205 0.7351 0.0706
C8_8 C 0.7667(2) 0.8726(3) 0.03738(18)
H12_8 H 0.7239 0.8840 0.0410
C9_8 C 0.80998(19) 0.9223(2) 0.02479(19)
H13_8 H 0.8040 0.9771 0.0177
C10_8 C 0.8560(2) 0.8098(2) 0.03620(14)
C11_8 C 0.9047(2) 0.7451(2) 0.04383(16)
H14_8 H 0.9114 0.7358 0.0834
H15_8 H 0.8904 0.6960 0.0264
H16_8 H 0.9435 0.7618 0.0266
N3_8 N 0.79675(16) 0.7944(2) 0.04509(12)
N4_8 N 0.87063(16) 0.88068(19) 0.02316(12)
C1_8 C 0.58707(18) 0.8069(2) 0.99155(18)
C2_8 C 0.62456(18) 0.7422(2) 0.99026(18)
C3_8 C 0.66720(17) 0.8383(2) 0.93925(15)
C4_8 C 0.71026(19) 0.8801(3) 0.90075(17)
H3_8 H 0.6971 0.9353 0.8965
H4_8 H 0.7522 0.8786 0.9159
H5_8 H 0.7097 0.8538 0.8646
C5_8 C 0.73134(18) 0.7114(2) 0.94986(17)
H6_8 H 0.7223 0.6715 0.9210
H7_8 H 0.7659 0.7447 0.9365
H9_8 H 0.7909 0.6400 0.9957
C12_8 C 0.44038(16) 0.96407(19) 0.92123(14)
C13_8 C 0.40826(15) 0.94034(18) 0.86783(13)
C14_8 C 0.43653(15) 0.88581(19) 0.83167(14)
H17_8 H 0.4759 0.8649 0.8407
C15_8 C 0.40741(16) 0.8618(2) 0.78237(14)
H18_8 H 0.4268 0.8247 0.7585
C16_8 C 0.34933(16) 0.8933(2) 0.76894(13)
C17_8 C 0.32005(16) 0.9484(2) 0.80456(14)
H19_8 H 0.2809 0.9699 0.7952
C18_8 C 0.34935(16) 0.9708(2) 0.85382(14)
C19_8 C 0.33886(16) 0.8101(2) 0.68780(14)
C20_8 C 0.31859(16) 0.7335(2) 0.69979(14)
H21_8 H 0.2920 0.7243 0.7303
C21_8 C 0.40224(16) 0.6141(2) 0.58693(13)
C22_8 C 0.37867(14) 0.68305(19) 0.62158(13)
C23_8 C 0.39785(15) 0.7616(2) 0.61003(14)
H22_8 H 0.4246 0.7712 0.5797
C24_8 C 0.37795(16) 0.8250(2) 0.64261(15)
H23_8 H 0.3907 0.8774 0.6343
C25_8 C 0.33781(15) 0.6700(2) 0.66630(14)
H24_8 H 0.3233 0.6181 0.6737
N1_8 N 0.61468(14) 0.86768(18) 0.95895(12)
N2_8 N 0.67637(13) 0.76167(16) 0.95806(12)
O6_8 O 0.49724(11) 0.94574(15) 0.92585(10)
O7_8 O 0.31669(11) 0.87456(15) 0.72057(10)
loop_
_geom_bond_atom_site_label_1
_geom_bond_atom_site_label_2
_geom_bond_site_symmetry_1
_geom_bond_site_symmetry_2
O3 C12 1_555 1_555
C12 C13 1_555 1_555
C13 C14 1_555 1_555
C14 H17 1_555 1_555
C15 C14 1_555 1_555
H18 C15 1_555 1_555
C16 C15 1_555 1_555
C17 C16 1_555 1_555
H19 C17 1_555 1_555
C18 C13 1_555 1_555
H20 C18 1_555 1_555
C19 C20 1_555 1_555
C20 H21 1_555 1_555
C21 C22 1_555 1_555
C22 C23 1_555 1_555
C23 H22 1_555 1_555
C24 C19 1_555 1_555
H23 C24 1_555 1_555
C25 C20 1_555 1_555
H24 C25 1_555 1_555
O4 C21 1_555 1_555
O5 C21 1_555 1_555
O7 C16 1_555 1_555
C12 O6 1_555 1_555
C17 C18 1_555 1_555
C19 O7 1_555 1_555
C22 C25 1_555 1_555
C23 C24 1_555 1_555
O1 C35 1_555 1_555
O2 C26 1_555 1_555
Co2 N4 1_555 1_555
H8 C6 1_555 1_555
C7 C6 1_555 1_555
H10 C7 1_555 1_555
H11 C7 1_555 1_555
C8 H12 1_555 1_555
C9 C8 1_555 1_555
H13 C9 1_555 1_555
C10 C11 1_555 1_555
C11 H14 1_555 1_555
H15 C11 1_555 1_555
H16 C11 1_555 1_555
C26 C27 1_555 1_555
C27 C28 1_555 1_555
C28 H25 1_555 1_555
C29 C28 1_555 1_555
H26 C29 1_555 1_555
C30 C29 1_555 1_555
C31 C30 1_555 1_555
H27 C31 1_555 1_555
C32 C27 1_555 1_555
H28 C32 1_555 1_555
C33 C34 1_555 1_555
C34 H29 1_555 1_555
C35 C36 1_555 1_555
C36 C37 1_555 1_555
C37 C34 1_555 1_555
H30 C37 1_555 1_555
C38 C36 1_555 1_555
H31 C38 1_555 1_555
C39 C33 1_555 1_555
H32 C39 1_555 1_555
N3 C7 1_555 1_555
N4 C9 1_555 1_555
O8 C35 1_555 1_555
O9 Co2 1_555 1_555
O10 C30 1_555 1_555
O11 Co2 1_555 1_555
Co7 O8 1_555 1_555
C8 N3 1_555 1_555
C10 N3 1_555 1_555
C10 N4 1_555 1_555
C26 O9 1_555 1_555
C31 C32 1_555 1_555
C33 O10 1_555 1_555
C38 C39 1_555 1_555
Co1 N1 1_555 1_555
C2 C1 1_555 1_555
C3 C4 1_555 1_555
C4 H3 1_555 1_555
H4 C4 1_555 1_555
H5 C4 1_555 1_555
C5 H6 1_555 1_555
H7 C5 1_555 1_555
N1 C1 1_555 1_555
N2 C2 1_555 1_555
O14 Co1 1_555 1_555
O15 Co1 1_555 1_555
C3 N1 1_555 1_555
C3 N2 1_555 1_555
C5 N2 1_555 1_555
O11 C35_2 1_555 1_555
O2_2 C26_2 1_555 1_555
Co3 N1_2 1_555 1_555
Co5 N4_2 1_555 1_555
C1_2 H1_2 1_555 1_555
C2_2 C1_2 1_555 1_555
H2_2 C2_2 1_555 1_555
C3_2 C4_2 1_555 1_555
C4_2 H3_2 1_555 1_555
H4_2 C4_2 1_555 1_555
H5_2 C4_2 1_555 1_555
C5_2 H6_2 1_555 1_555
H7_2 C5_2 1_555 1_555
C6_2 C5_2 1_555 1_555
H8_2 C6_2 1_555 1_555
H9_2 C6_2 1_555 1_555
C7_2 C6_2 1_555 1_555
H10_2 C7_2 1_555 1_555
H11_2 C7_2 1_555 1_555
C8_2 H12_2 1_555 1_555
C9_2 C8_2 1_555 1_555
H13_2 C9_2 1_555 1_555
C10_2 C11_2 1_555 1_555
C11_2 H14_2 1_555 1_555
H15_2 C11_2 1_555 1_555
H16_2 C11_2 1_555 1_555
C26_2 C27_2 1_555 1_555
C27_2 C28_2 1_555 1_555
C28_2 H25_2 1_555 1_555
C29_2 C28_2 1_555 1_555
H26_2 C29_2 1_555 1_555
C30_2 C29_2 1_555 1_555
C31_2 C30_2 1_555 1_555
H27_2 C31_2 1_555 1_555
C32_2 C27_2 1_555 1_555
H28_2 C32_2 1_555 1_555
C33_2 C34_2 1_555 1_555
C34_2 H29_2 1_555 1_555
C35_2 C36_2 1_555 1_555
C36_2 C37_2 1_555 1_555
C37_2 C34_2 1_555 1_555
H30_2 C37_2 1_555 1_555
C38_2 C36_2 1_555 1_555
H31_2 C38_2 1_555 1_555
C39_2 C33_2 1_555 1_555
H32_2 C39_2 1_555 1_555
N1_2 C1_2 1_555 1_555
N2_2 C2_2 1_555 1_555
N3_2 C7_2 1_555 1_555
N4_2 C9_2 1_555 1_555
O8_2 C35_2 1_555 1_555
O9_2 Co5 1_555 1_555
O10_2 C30_2 1_555 1_555
O16_2 Co5 1_555 1_555
C3_2 N1_2 1_555 1_555
C3_2 N2_2 1_555 1_555
C5_2 N2_2 1_555 1_555
C8_2 N3_2 1_555 1_555
C10_2 N3_2 1_555 1_555
C10_2 N4_2 1_555 1_555
C26_2 O9_2 1_555 1_555
C31_2 C32_2 1_555 1_555
C33_2 O10_2 1_555 1_555
C38_2 C39_2 1_555 1_555
O3_2 C12_2 1_555 1_555
C12_2 C13_2 1_555 1_555
C13_2 C14_2 1_555 1_555
C14_2 H17_2 1_555 1_555
C15_2 C14_2 1_555 1_555
H18_2 C15_2 1_555 1_555
C16_2 C15_2 1_555 1_555
C17_2 C16_2 1_555 1_555
H19_2 C17_2 1_555 1_555
C18_2 C13_2 1_555 1_555
C19_2 C20_2 1_555 1_555
C20_2 H21_2 1_555 1_555
C21_2 C22_2 1_555 1_555
C22_2 C23_2 1_555 1_555
C23_2 H22_2 1_555 1_555
C24_2 C19_2 1_555 1_555
H23_2 C24_2 1_555 1_555
C25_2 C20_2 1_555 1_555
H24_2 C25_2 1_555 1_555
O14 C21_2 1_555 1_555
O15 C21_2 1_555 1_555
O7_2 C16_2 1_555 1_555
C12_2 O6_2 1_555 1_555
C17_2 C18_2 1_555 1_555
C19_2 O7_2 1_555 1_555
C22_2 C25_2 1_555 1_555
C23_2 C24_2 1_555 1_555
Co4 N1_3 1_555 1_555
C2_3 C1_3 1_555 1_555
C3_3 C4_3 1_555 1_555
C4_3 H3_3 1_555 1_555
H4_3 C4_3 1_555 1_555
H5_3 C4_3 1_555 1_555
C5_3 H6_3 1_555 1_555
H7_3 C5_3 1_555 1_555
N1_3 C1_3 1_555 1_555
N2_3 C2_3 1_555 1_555
O14_2 Co4 1_555 1_555
O15_2 Co4 1_555 1_555
C3_3 N1_3 1_555 1_555
C3_3 N2_3 1_555 1_555
C5_3 N2_3 1_555 1_555
O1_2 C35_3 1_555 1_555
O12 C26_3 1_555 1_555
Co6 N4_3 1_555 1_555
H8_3 C6_3 1_555 1_555
C7_3 C6_3 1_555 1_555
H10_3 C7_3 1_555 1_555
H11_3 C7_3 1_555 1_555
C8_3 H12_3 1_555 1_555
C9_3 C8_3 1_555 1_555
H13_3 C9_3 1_555 1_555
C10_3 C11_3 1_555 1_555
C11_3 H14_3 1_555 1_555
H15_3 C11_3 1_555 1_555
H16_3 C11_3 1_555 1_555
C26_3 C27_3 1_555 1_555
C27_3 C28_3 1_555 1_555
C28_3 H25_3 1_555 1_555
C29_3 C28_3 1_555 1_555
H26_3 C29_3 1_555 1_555
C30_3 C29_3 1_555 1_555
C31_3 C30_3 1_555 1_555
H27_3 C31_3 1_555 1_555
C32_3 C27_3 1_555 1_555
H28_3 C32_3 1_555 1_555
C33_3 C34_3 1_555 1_555
C34_3 H29_3 1_555 1_555
C35_3 C36_3 1_555 1_555
C36_3 C37_3 1_555 1_555
C37_3 C34_3 1_555 1_555
H30_3 C37_3 1_555 1_555
C38_3 C36_3 1_555 1_555
H31_3 C38_3 1_555 1_555
C39_3 C33_3 1_555 1_555
H32_3 C39_3 1_555 1_555
N3_3 C7_3 1_555 1_555
N4_3 C9_3 1_555 1_555
O16_2 C35_3 1_555 1_555
O9_3 Co6 1_555 1_555
O10_3 C30_3 1_555 1_555
O11_2 Co6 1_555 1_555
C8_3 N3_3 1_555 1_555
C10_3 N3_3 1_555 1_555
C10_3 N4_3 1_555 1_555
C26_3 O9_3 1_555 1_555
C31_3 C32_3 1_555 1_555
C33_3 O10_3 1_555 1_555
C38_3 C39_3 1_555 1_555
O13 C12_3 1_555 1_555
C12_3 C13_3 1_555 1_555
C13_3 C14_3 1_555 1_555
C14_3 H17_3 1_555 1_555
C15_3 C14_3 1_555 1_555
H18_3 C15_3 1_555 1_555
C16_3 C15_3 1_555 1_555
C17_3 C16_3 1_555 1_555
H19_3 C17_3 1_555 1_555
C18_3 C13_3 1_555 1_555
H20_3 C18_3 1_555 1_555
C19_3 C20_3 1_555 1_555
C20_3 H21_3 1_555 1_555
C21_3 C22_3 1_555 1_555
C22_3 C23_3 1_555 1_555
C23_3 H22_3 1_555 1_555
C24_3 C19_3 1_555 1_555
H23_3 C24_3 1_555 1_555
C25_3 C20_3 1_555 1_555
H24_3 C25_3 1_555 1_555
O4_2 C21_3 1_555 1_555
O5_2 C21_3 1_555 1_555
O7_3 C16_3 1_555 1_555
C12_3 O6_3 1_555 1_555
C17_3 C18_3 1_555 1_555
C19_3 O7_3 1_555 1_555
C22_3 C25_3 1_555 1_555
C23_3 C24_3 1_555 1_555
O13_2 C12_4 1_555 1_555
C12_4 C13_4 1_555 1_555
C13_4 C14_4 1_555 1_555
C14_4 H17_4 1_555 1_555
C15_4 C14_4 1_555 1_555
H18_4 C15_4 1_555 1_555
C16_4 C15_4 1_555 1_555
C17_4 C16_4 1_555 1_555
H19_4 C17_4 1_555 1_555
C18_4 C13_4 1_555 1_555
C19_4 C20_4 1_555 1_555
C20_4 H21_4 1_555 1_555
C21_4 C22_4 1_555 1_555
C22_4 C23_4 1_555 1_555
C23_4 H22_4 1_555 1_555
C24_4 C19_4 1_555 1_555
H23_4 C24_4 1_555 1_555
C25_4 C20_4 1_555 1_555
H24_4 C25_4 1_555 1_555
O14_2 C21_4 1_555 1_555
O15_2 C21_4 1_555 1_555
O7_4 C16_4 1_555 1_555
C12_4 O6_4 1_555 1_555
C17_4 C18_4 1_555 1_555
C19_4 O7_4 1_555 1_555
C22_4 C25_4 1_555 1_555
C23_4 C24_4 1_555 1_555
O11_2 C35_4 1_555 1_555
O12_2 C26_4 1_555 1_555
Co4_2 N1_4 1_555 1_555
Co7 N4_4 1_555 1_555
C1_4 H1_4 1_555 1_555
C2_4 C1_4 1_555 1_555
H2_4 C2_4 1_555 1_555
C3_4 C4_4 1_555 1_555
C4_4 H3_4 1_555 1_555
H4_4 C4_4 1_555 1_555
H5_4 C4_4 1_555 1_555
C5_4 H6_4 1_555 1_555
H7_4 C5_4 1_555 1_555
C6_4 C5_4 1_555 1_555
H8_4 C6_4 1_555 1_555
H9_4 C6_4 1_555 1_555
C7_4 C6_4 1_555 1_555
H10_4 C7_4 1_555 1_555
H11_4 C7_4 1_555 1_555
C8_4 H12_4 1_555 1_555
C9_4 C8_4 1_555 1_555
H13_4 C9_4 1_555 1_555
C10_4 C11_4 1_555 1_555
C11_4 H14_4 1_555 1_555
H15_4 C11_4 1_555 1_555
H16_4 C11_4 1_555 1_555
C26_4 C27_4 1_555 1_555
C27_4 C28_4 1_555 1_555
C28_4 H25_4 1_555 1_555
C29_4 C28_4 1_555 1_555
H26_4 C29_4 1_555 1_555
C30_4 C29_4 1_555 1_555
C31_4 C30_4 1_555 1_555
H27_4 C31_4 1_555 1_555
C32_4 C27_4 1_555 1_555
H28_4 C32_4 1_555 1_555
C33_4 C34_4 1_555 1_555
C34_4 H29_4 1_555 1_555
C35_4 C36_4 1_555 1_555
C36_4 C37_4 1_555 1_555
C37_4 C34_4 1_555 1_555
H30_4 C37_4 1_555 1_555
C38_4 C36_4 1_555 1_555
H31_4 C38_4 1_555 1_555
C39_4 C33_4 1_555 1_555
H32_4 C39_4 1_555 1_555
N1_4 C1_4 1_555 1_555
N2_4 C2_4 1_555 1_555
N3_4 C7_4 1_555 1_555
N4_4 C9_4 1_555 1_555
O16 C35_4 1_555 1_555
O9_4 Co7 1_555 1_555
O10_4 C30_4 1_555 1_555
C3_4 N1_4 1_555 1_555
C3_4 N2_4 1_555 1_555
C5_4 N2_4 1_555 1_555
C8_4 N3_4 1_555 1_555
C10_4 N3_4 1_555 1_555
C10_4 N4_4 1_555 1_555
C26_4 O9_4 1_555 1_555
C31_4 C32_4 1_555 1_555
C33_4 O10_4 1_555 1_555
C38_4 C39_4 1_555 1_555
O1_3 C35_5 1_555 1_555
O2_3 C26_5 1_555 1_555
C26_5 C27_5 1_555 1_555
C27_5 C28_5 1_555 1_555
C28_5 H25_5 1_555 1_555
C29_5 C28_5 1_555 1_555
H26_5 C29_5 1_555 1_555
C30_5 C29_5 1_555 1_555
C31_5 C30_5 1_555 1_555
H27_5 C31_5 1_555 1_555
C32_5 C27_5 1_555 1_555
H28_5 C32_5 1_555 1_555
C33_5 C34_5 1_555 1_555
C34_5 H29_5 1_555 1_555
C35_5 C36_5 1_555 1_555
C36_5 C37_5 1_555 1_555
C37_5 C34_5 1_555 1_555
H30_5 C37_5 1_555 1_555
C38_5 C36_5 1_555 1_555
H31_5 C38_5 1_555 1_555
C39_5 C33_5 1_555 1_555
H32_5 C39_5 1_555 1_555
O10_5 C30_5 1_555 1_555
Co6_2 O2_3 1_555 1_555
C26_5 O9_5 1_555 1_555
C31_5 C32_5 1_555 1_555
C33_5 O10_5 1_555 1_555
C38_5 C39_5 1_555 1_555
O3_3 C12_5 1_555 1_555
Co1_2 N1_5 1_555 1_555
Co2_2 N4_5 1_555 1_555
C1_5 H1_5 1_555 1_555
C2_5 C1_5 1_555 1_555
H2_5 C2_5 1_555 1_555
C3_5 C4_5 1_555 1_555
C4_5 H3_5 1_555 1_555
H4_5 C4_5 1_555 1_555
H5_5 C4_5 1_555 1_555
C5_5 H6_5 1_555 1_555
H7_5 C5_5 1_555 1_555
C6_5 C5_5 1_555 1_555
H8_5 C6_5 1_555 1_555
H9_5 C6_5 1_555 1_555
C7_5 C6_5 1_555 1_555
H10_5 C7_5 1_555 1_555
H11_5 C7_5 1_555 1_555
C8_5 H12_5 1_555 1_555
C9_5 C8_5 1_555 1_555
H13_5 C9_5 1_555 1_555
C10_5 C11_5 1_555 1_555
C11_5 H14_5 1_555 1_555
H15_5 C11_5 1_555 1_555
H16_5 C11_5 1_555 1_555
C12_5 C13_5 1_555 1_555
C13_5 C14_5 1_555 1_555
C14_5 H17_5 1_555 1_555
C15_5 C14_5 1_555 1_555
H18_5 C15_5 1_555 1_555
C16_5 C15_5 1_555 1_555
C17_5 C16_5 1_555 1_555
H19_5 C17_5 1_555 1_555
C18_5 C13_5 1_555 1_555
H20_5 C18_5 1_555 1_555
C19_5 C20_5 1_555 1_555
C20_5 H21_5 1_555 1_555
C21_5 C22_5 1_555 1_555
C22_5 C23_5 1_555 1_555
C23_5 H22_5 1_555 1_555
C24_5 C19_5 1_555 1_555
H23_5 C24_5 1_555 1_555
C25_5 C20_5 1_555 1_555
H24_5 C25_5 1_555 1_555
N1_5 C1_5 1_555 1_555
N2_5 C2_5 1_555 1_555
N3_5 C7_5 1_555 1_555
N4_5 C9_5 1_555 1_555
O4_3 C21_5 1_555 1_555
O5_3 C21_5 1_555 1_555
O6_5 Co1_2 1_555 1_555
O7_5 C16_5 1_555 1_555
O11_3 Co2_2 1_555 1_555
O12_3 Co2_2 1_555 1_555
O13_3 Co1_2 1_555 1_555
Co4_3 O3_3 1_555 1_555
O14_3 Co1_2 1_555 1_555
O15_3 Co1_2 1_555 1_555
O16_3 Co2_2 1_555 1_555
C3_5 N1_5 1_555 1_555
C3_5 N2_5 1_555 1_555
C5_5 N2_5 1_555 1_555
C8_5 N3_5 1_555 1_555
C10_5 N3_5 1_555 1_555
C10_5 N4_5 1_555 1_555
C12_5 O6_5 1_555 1_555
C17_5 C18_5 1_555 1_555
C19_5 O7_5 1_555 1_555
C22_5 C25_5 1_555 1_555
C23_5 C24_5 1_555 1_555
O3_4 C12_6 1_555 1_555
Co3_2 N1_6 1_555 1_555
C2_6 C1_6 1_555 1_555
C3_6 C4_6 1_555 1_555
C4_6 H3_6 1_555 1_555
H4_6 C4_6 1_555 1_555
H5_6 C4_6 1_555 1_555
C5_6 H6_6 1_555 1_555
H7_6 C5_6 1_555 1_555
C12_6 C13_6 1_555 1_555
C13_6 C14_6 1_555 1_555
C14_6 H17_6 1_555 1_555
C15_6 C14_6 1_555 1_555
H18_6 C15_6 1_555 1_555
C16_6 C15_6 1_555 1_555
C17_6 C16_6 1_555 1_555
H19_6 C17_6 1_555 1_555
C18_6 C13_6 1_555 1_555
C19_6 C20_6 1_555 1_555
C20_6 H21_6 1_555 1_555
C21_6 C22_6 1_555 1_555
C22_6 C23_6 1_555 1_555
C23_6 H22_6 1_555 1_555
C24_6 C19_6 1_555 1_555
H23_6 C24_6 1_555 1_555
C25_6 C20_6 1_555 1_555
H24_6 C25_6 1_555 1_555
N1_6 C1_6 1_555 1_555
N2_6 C2_6 1_555 1_555
O14_3 C21_6 1_555 1_555
O15_3 C21_6 1_555 1_555
O6_6 Co3_2 1_555 1_555
O7_6 C16_6 1_555 1_555
C3_6 N1_6 1_555 1_555
C3_6 N2_6 1_555 1_555
C5_6 N2_6 1_555 1_555
C12_6 O6_6 1_555 1_555
C17_6 C18_6 1_555 1_555
C19_6 O7_6 1_555 1_555
C22_6 C25_6 1_555 1_555
C23_6 C24_6 1_555 1_555
Co5_2 N4_6 1_555 1_555
H8_6 C6_6 1_555 1_555
C7_6 C6_6 1_555 1_555
H10_6 C7_6 1_555 1_555
H11_6 C7_6 1_555 1_555
C8_6 H12_6 1_555 1_555
C9_6 C8_6 1_555 1_555
H13_6 C9_6 1_555 1_555
C10_6 C11_6 1_555 1_555
C11_6 H14_6 1_555 1_555
H15_6 C11_6 1_555 1_555
H16_6 C11_6 1_555 1_555
N3_6 C7_6 1_555 1_555
N4_6 C9_6 1_555 1_555
Co6_2 O8_4 1_555 1_555
C8_6 N3_6 1_555 1_555
C10_6 N3_6 1_555 1_555
C10_6 N4_6 1_555 1_555
O11_3 C35_6 1_555 1_555
O2_4 C26_6 1_555 1_555
C26_6 C27_6 1_555 1_555
C27_6 C28_6 1_555 1_555
C28_6 H25_6 1_555 1_555
C29_6 C28_6 1_555 1_555
H26_6 C29_6 1_555 1_555
C30_6 C29_6 1_555 1_555
C31_6 C30_6 1_555 1_555
H27_6 C31_6 1_555 1_555
C32_6 C27_6 1_555 1_555
H28_6 C32_6 1_555 1_555
C33_6 C34_6 1_555 1_555
C34_6 H29_6 1_555 1_555
C35_6 C36_6 1_555 1_555
C36_6 C37_6 1_555 1_555
C37_6 C34_6 1_555 1_555
H30_6 C37_6 1_555 1_555
C38_6 C36_6 1_555 1_555
H31_6 C38_6 1_555 1_555
C39_6 C33_6 1_555 1_555
H32_6 C39_6 1_555 1_555
O10_6 C30_6 1_555 1_555
C26_6 O9_6 1_555 1_555
C31_6 C32_6 1_555 1_555
C33_6 O10_6 1_555 1_555
C38_6 C39_6 1_555 1_555
O13_3 C12_7 1_555 1_555
Co4_3 N1_7 1_555 1_555
Co6_2 N4_7 1_555 1_555
C1_7 H1_7 1_555 1_555
C2_7 C1_7 1_555 1_555
H2_7 C2_7 1_555 1_555
C3_7 C4_7 1_555 1_555
C4_7 H3_7 1_555 1_555
H4_7 C4_7 1_555 1_555
H5_7 C4_7 1_555 1_555
C5_7 H6_7 1_555 1_555
H7_7 C5_7 1_555 1_555
C6_7 C5_7 1_555 1_555
H8_7 C6_7 1_555 1_555
H9_7 C6_7 1_555 1_555
C7_7 C6_7 1_555 1_555
H10_7 C7_7 1_555 1_555
H11_7 C7_7 1_555 1_555
C8_7 H12_7 1_555 1_555
C9_7 C8_7 1_555 1_555
H13_7 C9_7 1_555 1_555
C10_7 C11_7 1_555 1_555
C11_7 H14_7 1_555 1_555
H15_7 C11_7 1_555 1_555
H16_7 C11_7 1_555 1_555
C12_7 C13_7 1_555 1_555
C13_7 C14_7 1_555 1_555
C14_7 H17_7 1_555 1_555
C15_7 C14_7 1_555 1_555
H18_7 C15_7 1_555 1_555
C16_7 C15_7 1_555 1_555
C17_7 C16_7 1_555 1_555
H19_7 C17_7 1_555 1_555
C18_7 C13_7 1_555 1_555
H20_7 C18_7 1_555 1_555
C19_7 C20_7 1_555 1_555
C20_7 H21_7 1_555 1_555
C21_7 C22_7 1_555 1_555
C22_7 C23_7 1_555 1_555
C23_7 H22_7 1_555 1_555
C24_7 C19_7 1_555 1_555
H23_7 C24_7 1_555 1_555
C25_7 C20_7 1_555 1_555
H24_7 C25_7 1_555 1_555
N1_7 C1_7 1_555 1_555
N2_7 C2_7 1_555 1_555
N3_7 C7_7 1_555 1_555
N4_7 C9_7 1_555 1_555
O4_4 C21_7 1_555 1_555
O5_4 C21_7 1_555 1_555
O6_7 Co4_3 1_555 1_555
O7_7 C16_7 1_555 1_555
O11_4 Co6_2 1_555 1_555
O14_4 Co4_3 1_555 1_555
O15_4 Co4_3 1_555 1_555
C3_7 N1_7 1_555 1_555
C3_7 N2_7 1_555 1_555
C5_7 N2_7 1_555 1_555
C8_7 N3_7 1_555 1_555
C10_7 N3_7 1_555 1_555
C10_7 N4_7 1_555 1_555
C12_7 O6_7 1_555 1_555
C17_7 C18_7 1_555 1_555
C19_7 O7_7 1_555 1_555
C22_7 C25_7 1_555 1_555
C23_7 C24_7 1_555 1_555
O1_4 C35_7 1_555 1_555
O12_3 C26_7 1_555 1_555
C26_7 C27_7 1_555 1_555
C27_7 C28_7 1_555 1_555
C28_7 H25_7 1_555 1_555
C29_7 C28_7 1_555 1_555
H26_7 C29_7 1_555 1_555
C30_7 C29_7 1_555 1_555
C31_7 C30_7 1_555 1_555
H27_7 C31_7 1_555 1_555
C32_7 C27_7 1_555 1_555
H28_7 C32_7 1_555 1_555
C33_7 C34_7 1_555 1_555
C34_7 H29_7 1_555 1_555
C35_7 C36_7 1_555 1_555
C36_7 C37_7 1_555 1_555
C37_7 C34_7 1_555 1_555
H30_7 C37_7 1_555 1_555
C38_7 C36_7 1_555 1_555
H31_7 C38_7 1_555 1_555
C39_7 C33_7 1_555 1_555
H32_7 C39_7 1_555 1_555
O10_7 C30_7 1_555 1_555
C26_7 O9_7 1_555 1_555
C31_7 C32_7 1_555 1_555
C33_7 O10_7 1_555 1_555
C38_7 C39_7 1_555 1_555
O11_4 C35_8 1_555 1_555
O12_4 C26_8 1_555 1_555
C26_8 C27_8 1_555 1_555
C27_8 C28_8 1_555 1_555
C28_8 H25_8 1_555 1_555
C29_8 C28_8 1_555 1_555
H26_8 C29_8 1_555 1_555
C30_8 C29_8 1_555 1_555
C31_8 C30_8 1_555 1_555
H27_8 C31_8 1_555 1_555
C32_8 C27_8 1_555 1_555
H28_8 C32_8 1_555 1_555
C33_8 C34_8 1_555 1_555
C34_8 H29_8 1_555 1_555
C35_8 C36_8 1_555 1_555
C36_8 C37_8 1_555 1_555
C37_8 C34_8 1_555 1_555
H30_8 C37_8 1_555 1_555
C38_8 C36_8 1_555 1_555
H31_8 C38_8 1_555 1_555
C39_8 C33_8 1_555 1_555
H32_8 C39_8 1_555 1_555
O10_8 C30_8 1_555 1_555
C26_8 O9_8 1_555 1_555
C31_8 C32_8 1_555 1_555
C33_8 O10_8 1_555 1_555
C38_8 C39_8 1_555 1_555
Co7_2 N4_8 1_555 1_555
H8_8 C6_8 1_555 1_555
C7_8 C6_8 1_555 1_555
H10_8 C7_8 1_555 1_555
H11_8 C7_8 1_555 1_555
C8_8 H12_8 1_555 1_555
C9_8 C8_8 1_555 1_555
H13_8 C9_8 1_555 1_555
C10_8 C11_8 1_555 1_555
C11_8 H14_8 1_555 1_555
H15_8 C11_8 1_555 1_555
H16_8 C11_8 1_555 1_555
N3_8 C7_8 1_555 1_555
N4_8 C9_8 1_555 1_555
C8_8 N3_8 1_555 1_555
C10_8 N3_8 1_555 1_555
C10_8 N4_8 1_555 1_555
O13_4 C12_8 1_555 1_555
Co4_4 N1_8 1_555 1_555
C2_8 C1_8 1_555 1_555
C3_8 C4_8 1_555 1_555
C4_8 H3_8 1_555 1_555
H4_8 C4_8 1_555 1_555
H5_8 C4_8 1_555 1_555
C5_8 H6_8 1_555 1_555
H7_8 C5_8 1_555 1_555
C12_8 C13_8 1_555 1_555
C13_8 C14_8 1_555 1_555
C14_8 H17_8 1_555 1_555
C15_8 C14_8 1_555 1_555
H18_8 C15_8 1_555 1_555
C16_8 C15_8 1_555 1_555
C17_8 C16_8 1_555 1_555
H19_8 C17_8 1_555 1_555
C18_8 C13_8 1_555 1_555
C19_8 C20_8 1_555 1_555
C20_8 H21_8 1_555 1_555
C21_8 C22_8 1_555 1_555
C22_8 C23_8 1_555 1_555
C23_8 H22_8 1_555 1_555
C24_8 C19_8 1_555 1_555
H23_8 C24_8 1_555 1_555
C25_8 C20_8 1_555 1_555
H24_8 C25_8 1_555 1_555
N1_8 C1_8 1_555 1_555
N2_8 C2_8 1_555 1_555
O14_4 C21_8 1_555 1_555
O15_4 C21_8 1_555 1_555
O6_8 Co4_4 1_555 1_555
O7_8 C16_8 1_555 1_555
C3_8 N1_8 1_555 1_555
C3_8 N2_8 1_555 1_555
C5_8 N2_8 1_555 1_555
C12_8 O6_8 1_555 1_555
C17_8 C18_8 1_555 1_555
C19_8 O7_8 1_555 1_555
C22_8 C25_8 1_555 1_555
C23_8 C24_8 1_555 1_555

#END
