
###############################################################################
#
# This file contains modified crystal structure data generated from the
# MOF subset of the Cambridge Structural Database (CSD) v543 
# hosted by the Cambridge Crystallographic Data Centre (CCDC).
#
# This work is licensed under the Creative Commons
# Attribution-NonCommercial-ShareAlike 4.0 International License.
# To view a copy of this license, visit
# http://creativecommons.org/licenses/by-nc-sa/4.0/
# or send a letter to
# Creative Commons, PO Box 1866, Mountain View, CA 94042, USA.
#
# CIF created using the CSD Python API on 29 September 2022
# The structure has been converted into the P1 space group
# The structure has a 3D framework
# The original CSD entry ESURER is in the monoclinic crystal system
# The framework has been calculated to contain at least 10.0% void space
# The void calculation uses a probe of radius 1.32A, grid spacing 0.4
#
###############################################################################

data_ESURER
_chemical_formula_moiety         '(C56 H32 Co14 N24 O24)n'
_symmetry_cell_setting           triclinic
_symmetry_space_group_name_H-M   'P 1'
_symmetry_Int_Tables_number      1
_space_group_name_Hall           'P 1'
loop_
_symmetry_equiv_pos_site_id
_symmetry_equiv_pos_as_xyz
1 x,y,z
_cell_length_a                   17.7835(6)
_cell_length_b                   12.7818(4)
_cell_length_c                   11.2254(3)
_cell_angle_alpha                90
_cell_angle_beta                 95.180(3)
_cell_angle_gamma                90
_cell_volume                     2541.17
loop_
_atom_site_label
_atom_site_type_symbol
_atom_site_fract_x
_atom_site_fract_y
_atom_site_fract_z
Co5 Co 0.0000 0.09464(6) 0.2500
Co5_2 Co 1.0000 0.09464(6) 0.2500
Co6 Co 0.92086(3) 0.05816(4) 0.49986(5)
Co7 Co 0.07914(3) 0.05816(4) 0.00014(5)
Co1 Co 0.5000 0.59464(6) 0.2500
Co2 Co 0.42086(3) 0.55816(4) 0.49986(5)
N1 N 0.8732(2) 0.9350(3) 0.1617(3)
N2 N 0.9105(2) 0.9831(3) 0.2556(3)
N3 N 0.8768(2) 0.9701(3) 0.3548(3)
C1 C 0.8120(2) 0.8870(3) 0.2046(4)
C2 C 0.8147(2) 0.9099(3) 0.3274(4)
C3 C 0.7603(3) 0.8726(4) 0.3984(4)
H1 H 0.7628 0.8873 0.4798
C4 C 0.7035(3) 0.8138(4) 0.3439(4)
H2 H 0.6663 0.7883 0.3893
C5 C 0.6991(2) 0.7902(3) 0.2195(4)
C6 C 0.7531(3) 0.8268(3) 0.1483(4)
H3 H 0.7504 0.8122 0.0669
C7 C 0.6339(2) 0.7237(3) 0.1687(4)
O1 O 0.52011(16) 0.5799(2) 0.4322(2)
H4 H 0.546(2) 0.639(2) 0.465(4)
O2 O 0.63691(18) 0.6876(2) 0.0639(3)
O3 O 0.58158(18) 0.7097(2) 0.2346(3)
Co3 Co 0.57914(3) 0.55816(4) 0.00014(5)
N4 N 0.1268(2) 0.9350(3) 0.3383(3)
N5 N 0.0895(2) 0.9831(3) 0.2444(3)
N6 N 0.1232(2) 0.9701(3) 0.1452(3)
C8 C 0.1880(2) 0.8870(3) 0.2954(4)
C9 C 0.1853(2) 0.9099(3) 0.1726(4)
C10 C 0.2397(3) 0.8726(4) 0.1016(4)
H5 H 0.2372 0.8873 0.0202
C11 C 0.2965(3) 0.8138(4) 0.1561(4)
H6 H 0.3337 0.7883 0.1107
C12 C 0.3009(2) 0.7902(3) 0.2805(4)
C13 C 0.2469(3) 0.8268(3) 0.3517(4)
H7 H 0.2496 0.8122 0.4331
C14 C 0.3661(2) 0.7237(3) 0.3313(4)
O4 O 0.47989(16) 0.5799(2) 0.0678(2)
H8 H 0.454(2) 0.639(2) 0.035(4)
O5 O 0.36309(18) 0.6876(2) 0.4361(3)
O6 O 0.41842(18) 0.7097(2) 0.2654(3)
Co8 Co 0.57914(3) 0.44184(4) 0.50014(5)
Co10 Co 0.07914(3) 0.94184(4) 0.50014(5)
N8 N 0.3732(2) 0.5650(3) 0.6617(3)
N9 N 0.4105(2) 0.4831(3) 0.2556(3)
N10 N 0.5895(2) 0.4831(3) 0.2444(3)
N11 N 0.3768(2) 0.4701(3) 0.3548(3)
N12 N 0.6232(2) 0.4701(3) 0.1452(3)
O7 O 0.47989(16) 0.4201(2) 0.5678(2)
Co9 Co 0.42086(3) 0.44184(4) 0.99986(5)
Co11 Co 0.92086(3) 0.94184(4) 0.99986(5)
N7 N 0.6268(2) 0.5650(3) 0.8383(3)
O8 O 0.52011(16) 0.4201(2) 0.9322(2)
N1_2 N 0.3732(2) 0.4350(3) 0.1617(3)
C1_2 C 0.3120(2) 0.3870(3) 0.2046(4)
C2_2 C 0.3147(2) 0.4099(3) 0.3274(4)
C3_2 C 0.2603(3) 0.3726(4) 0.3984(4)
H1_2 H 0.2628 0.3873 0.4798
C4_2 C 0.2035(3) 0.3138(4) 0.3439(4)
H2_2 H 0.1663 0.2883 0.3893
C5_2 C 0.1991(2) 0.2902(3) 0.2195(4)
C6_2 C 0.2531(3) 0.3268(3) 0.1483(4)
H3_2 H 0.2504 0.3122 0.0669
C7_2 C 0.1339(2) 0.2237(3) 0.1687(4)
O1_2 O 0.02011(16) 0.0799(2) 0.4322(2)
H4_2 H 0.046(2) 0.139(2) 0.465(4)
O2_2 O 0.13691(18) 0.1876(2) 0.0639(3)
O3_2 O 0.08158(18) 0.2097(2) 0.2346(3)
N7_2 N 0.1268(2) 0.0650(3) 0.8383(3)
O8_2 O 0.02011(16) 0.9201(2) 0.9322(2)
N4_2 N 0.6268(2) 0.4350(3) 0.3383(3)
C8_2 C 0.6880(2) 0.3870(3) 0.2954(4)
C9_2 C 0.6853(2) 0.4099(3) 0.1726(4)
C10_2 C 0.7397(3) 0.3726(4) 0.1016(4)
H5_2 H 0.7372 0.3873 0.0202
C11_2 C 0.7965(3) 0.3138(4) 0.1561(4)
H6_2 H 0.8337 0.2883 0.1107
C12_2 C 0.8009(2) 0.2902(3) 0.2805(4)
C13_2 C 0.7469(3) 0.3268(3) 0.3517(4)
H7_2 H 0.7496 0.3122 0.4331
C14_2 C 0.8661(2) 0.2237(3) 0.3313(4)
O4_2 O 0.97989(16) 0.0799(2) 0.0678(2)
H8_2 H 0.954(2) 0.139(2) 0.035(4)
O5_2 O 0.86309(18) 0.1876(2) 0.4361(3)
O6_2 O 0.91842(18) 0.2097(2) 0.2654(3)
N8_2 N 0.8732(2) 0.0650(3) 0.6617(3)
O7_2 O 0.97989(16) 0.9201(2) 0.5678(2)
Co4 Co 0.0000 0.90536(6) 0.7500
Co1_2 Co 0.5000 0.40536(6) 0.7500
N2_2 N 0.0895(2) 0.0169(3) 0.7444(3)
N3_2 N 0.1232(2) 0.0299(3) 0.6452(3)
C1_3 C 0.1880(2) 0.1130(3) 0.7954(4)
C2_3 C 0.1853(2) 0.0901(3) 0.6726(4)
C3_3 C 0.2397(3) 0.1274(4) 0.6016(4)
H1_3 H 0.2372 0.1127 0.5202
C4_3 C 0.2965(3) 0.1862(4) 0.6561(4)
H2_3 H 0.3337 0.2117 0.6107
C5_3 C 0.3009(2) 0.2098(3) 0.7805(4)
C6_3 C 0.2469(3) 0.1732(3) 0.8517(4)
H3_3 H 0.2496 0.1878 0.9331
C7_3 C 0.3661(2) 0.2763(3) 0.8313(4)
H4_3 H 0.454(2) 0.361(2) 0.535(4)
O2_3 O 0.36309(18) 0.3124(2) 0.9361(3)
O3_3 O 0.41842(18) 0.2903(2) 0.7654(3)
N5_2 N 0.9105(2) 0.0169(3) 0.7556(3)
N6_2 N 0.8768(2) 0.0299(3) 0.8548(3)
C8_3 C 0.8120(2) 0.1130(3) 0.7046(4)
C9_3 C 0.8147(2) 0.0901(3) 0.8274(4)
C10_3 C 0.7603(3) 0.1274(4) 0.8984(4)
H5_3 H 0.7628 0.1127 0.9798
C11_3 C 0.7035(3) 0.1862(4) 0.8439(4)
H6_3 H 0.6663 0.2117 0.8893
C12_3 C 0.6991(2) 0.2098(3) 0.7195(4)
C13_3 C 0.7531(3) 0.1732(3) 0.6483(4)
H7_3 H 0.7504 0.1878 0.5669
C14_3 C 0.6339(2) 0.2763(3) 0.6687(4)
H8_3 H 0.546(2) 0.361(2) 0.965(4)
O5_3 O 0.63691(18) 0.3124(2) 0.5639(3)
O6_3 O 0.58158(18) 0.2903(2) 0.7346(3)
N9_2 N 0.5895(2) 0.5169(3) 0.7444(3)
N10_2 N 0.4105(2) 0.5169(3) 0.7556(3)
N11_2 N 0.6232(2) 0.5299(3) 0.6452(3)
N12_2 N 0.3768(2) 0.5299(3) 0.8548(3)
Co4_2 Co 1.0000 0.90536(6) 0.7500
C8_4 C 0.3120(2) 0.6130(3) 0.7046(4)
C9_4 C 0.3147(2) 0.5901(3) 0.8274(4)
C10_4 C 0.2603(3) 0.6274(4) 0.8984(4)
H5_4 H 0.2628 0.6127 0.9798
C11_4 C 0.2035(3) 0.6862(4) 0.8439(4)
H6_4 H 0.1663 0.7117 0.8893
C12_4 C 0.1991(2) 0.7098(3) 0.7195(4)
C13_4 C 0.2531(3) 0.6732(3) 0.6483(4)
H7_4 H 0.2504 0.6878 0.5669
C14_4 C 0.1339(2) 0.7763(3) 0.6687(4)
H8_4 H 0.046(2) 0.861(2) 0.965(4)
O5_4 O 0.13691(18) 0.8124(2) 0.5639(3)
O6_4 O 0.08158(18) 0.7903(2) 0.7346(3)
C1_4 C 0.6880(2) 0.6130(3) 0.7954(4)
C2_4 C 0.6853(2) 0.5901(3) 0.6726(4)
C3_4 C 0.7397(3) 0.6274(4) 0.6016(4)
H1_4 H 0.7372 0.6127 0.5202
C4_4 C 0.7965(3) 0.6862(4) 0.6561(4)
H2_4 H 0.8337 0.7117 0.6107
C5_4 C 0.8009(2) 0.7098(3) 0.7805(4)
C6_4 C 0.7469(3) 0.6732(3) 0.8517(4)
H3_4 H 0.7496 0.6878 0.9331
C7_4 C 0.8661(2) 0.7763(3) 0.8313(4)
H4_4 H 0.954(2) 0.861(2) 0.535(4)
O2_4 O 0.86309(18) 0.8124(2) 0.9361(3)
O3_4 O 0.91842(18) 0.7903(2) 0.7654(3)
loop_
_geom_bond_atom_site_label_1
_geom_bond_atom_site_label_2
_geom_bond_site_symmetry_1
_geom_bond_site_symmetry_2
Co1 O1 1_555 1_555
Co2 O1 1_555 1_555
N1 N2 1_555 1_555
N2 N3 1_555 1_555
N3 C2 1_555 1_555
C1 N1 1_555 1_555
C2 C1 1_555 1_555
C3 C2 1_555 1_555
H1 C3 1_555 1_555
C4 C3 1_555 1_555
H2 C4 1_555 1_555
C5 C4 1_555 1_555
C6 C1 1_555 1_555
H3 C6 1_555 1_555
C7 C5 1_555 1_555
O1 H4 1_555 1_555
O2 C7 1_555 1_555
O3 Co1 1_555 1_555
Co3 O2 1_555 1_555
N4 N5 1_555 1_555
N5 N6 1_555 1_555
N6 C9 1_555 1_555
C8 N4 1_555 1_555
C9 C8 1_555 1_555
C10 C9 1_555 1_555
H5 C10 1_555 1_555
C11 C10 1_555 1_555
H6 C11 1_555 1_555
C12 C11 1_555 1_555
C13 C8 1_555 1_555
H7 C13 1_555 1_555
C14 C12 1_555 1_555
O4 Co1 1_555 1_555
H8 O4 1_555 1_555
O5 Co2 1_555 1_555
O6 Co1 1_555 1_555
Co8 O1 1_555 1_555
Co10 N4 1_555 1_555
N8 Co2 1_555 1_555
N9 Co1 1_555 1_555
N10 Co1 1_555 1_555
N11 Co2 1_555 1_555
N12 Co3 1_555 1_555
O7 Co2 1_555 1_555
C5 C6 1_555 1_555
C7 O3 1_555 1_555
Co3 O4 1_555 1_555
C12 C13 1_555 1_555
C14 O5 1_555 1_555
C14 O6 1_555 1_555
Co8 O7 1_555 1_555
N9 N11 1_555 1_555
N10 N12 1_555 1_555
Co9 O8 1_555 1_555
Co5 O1_2 1_555 1_555
N1_2 N9 1_555 1_555
N11 C2_2 1_555 1_555
C1_2 N1_2 1_555 1_555
C2_2 C1_2 1_555 1_555
C3_2 C2_2 1_555 1_555
H1_2 C3_2 1_555 1_555
C4_2 C3_2 1_555 1_555
H2_2 C4_2 1_555 1_555
C5_2 C4_2 1_555 1_555
C6_2 C1_2 1_555 1_555
H3_2 C6_2 1_555 1_555
C7_2 C5_2 1_555 1_555
O1_2 H4_2 1_555 1_555
O2_2 C7_2 1_555 1_555
O3_2 Co5 1_555 1_555
Co7 O2_2 1_555 1_555
C5_2 C6_2 1_555 1_555
C7_2 O3_2 1_555 1_555
N4_2 N10 1_555 1_555
N12 C9_2 1_555 1_555
C8_2 N4_2 1_555 1_555
C9_2 C8_2 1_555 1_555
C10_2 C9_2 1_555 1_555
H5_2 C10_2 1_555 1_555
C11_2 C10_2 1_555 1_555
H6_2 C11_2 1_555 1_555
C12_2 C11_2 1_555 1_555
C13_2 C8_2 1_555 1_555
H7_2 C13_2 1_555 1_555
C14_2 C12_2 1_555 1_555
O4_2 Co5_2 1_555 1_555
H8_2 O4_2 1_555 1_555
O5_2 Co6 1_555 1_555
O6_2 Co5_2 1_555 1_555
Co8 N4_2 1_555 1_555
N8_2 Co6 1_555 1_555
C12_2 C13_2 1_555 1_555
C14_2 O5_2 1_555 1_555
C14_2 O6_2 1_555 1_555
Co1_2 O7 1_555 1_555
N7_2 N2_2 1_555 1_555
N2_2 N3_2 1_555 1_555
N3_2 C2_3 1_555 1_555
C1_3 N7_2 1_555 1_555
C2_3 C1_3 1_555 1_555
C3_3 C2_3 1_555 1_555
H1_3 C3_3 1_555 1_555
C4_3 C3_3 1_555 1_555
H2_3 C4_3 1_555 1_555
C5_3 C4_3 1_555 1_555
C6_3 C1_3 1_555 1_555
H3_3 C6_3 1_555 1_555
C7_3 C5_3 1_555 1_555
O7 H4_3 1_555 1_555
O2_3 C7_3 1_555 1_555
O3_3 Co1_2 1_555 1_555
Co9 O2_3 1_555 1_555
N8_2 N5_2 1_555 1_555
N5_2 N6_2 1_555 1_555
N6_2 C9_3 1_555 1_555
C8_3 N8_2 1_555 1_555
C9_3 C8_3 1_555 1_555
C10_3 C9_3 1_555 1_555
H5_3 C10_3 1_555 1_555
C11_3 C10_3 1_555 1_555
H6_3 C11_3 1_555 1_555
C12_3 C11_3 1_555 1_555
C13_3 C8_3 1_555 1_555
H7_3 C13_3 1_555 1_555
C14_3 C12_3 1_555 1_555
O8 Co1_2 1_555 1_555
H8_3 O8 1_555 1_555
O5_3 Co8 1_555 1_555
O6_3 Co1_2 1_555 1_555
N9_2 Co1_2 1_555 1_555
N10_2 Co1_2 1_555 1_555
N11_2 Co8 1_555 1_555
N12_2 Co9 1_555 1_555
C5_3 C6_3 1_555 1_555
C7_3 O3_3 1_555 1_555
C12_3 C13_3 1_555 1_555
C14_3 O5_3 1_555 1_555
C14_3 O6_3 1_555 1_555
N9_2 N11_2 1_555 1_555
N10_2 N12_2 1_555 1_555
N8 N10_2 1_555 1_555
N12_2 C9_4 1_555 1_555
C8_4 N8 1_555 1_555
C9_4 C8_4 1_555 1_555
C10_4 C9_4 1_555 1_555
H5_4 C10_4 1_555 1_555
C11_4 C10_4 1_555 1_555
H6_4 C11_4 1_555 1_555
C12_4 C11_4 1_555 1_555
C13_4 C8_4 1_555 1_555
H7_4 C13_4 1_555 1_555
C14_4 C12_4 1_555 1_555
O8_2 Co4 1_555 1_555
H8_4 O8_2 1_555 1_555
O5_4 Co10 1_555 1_555
O6_4 Co4 1_555 1_555
C12_4 C13_4 1_555 1_555
C14_4 O5_4 1_555 1_555
C14_4 O6_4 1_555 1_555
Co4_2 O7_2 1_555 1_555
N7 N9_2 1_555 1_555
N11_2 C2_4 1_555 1_555
C1_4 N7 1_555 1_555
C2_4 C1_4 1_555 1_555
C3_4 C2_4 1_555 1_555
H1_4 C3_4 1_555 1_555
C4_4 C3_4 1_555 1_555
H2_4 C4_4 1_555 1_555
C5_4 C4_4 1_555 1_555
C6_4 C1_4 1_555 1_555
H3_4 C6_4 1_555 1_555
C7_4 C5_4 1_555 1_555
O7_2 H4_4 1_555 1_555
O2_4 C7_4 1_555 1_555
O3_4 Co4_2 1_555 1_555
Co11 O2_4 1_555 1_555
C5_4 C6_4 1_555 1_555
C7_4 O3_4 1_555 1_555

#END
