
###############################################################################
#
# This file contains modified crystal structure data generated from the
# MOF subset of the Cambridge Structural Database (CSD) v543 
# hosted by the Cambridge Crystallographic Data Centre (CCDC).
#
# This work is licensed under the Creative Commons
# Attribution-NonCommercial-ShareAlike 4.0 International License.
# To view a copy of this license, visit
# http://creativecommons.org/licenses/by-nc-sa/4.0/
# or send a letter to
# Creative Commons, PO Box 1866, Mountain View, CA 94042, USA.
#
# CIF created using the CSD Python API on 29 September 2022
# The structure has been converted into the P1 space group
# The structure has a 3D framework
# The original CSD entry ESURER01 is in the monoclinic crystal system
# The framework has been calculated to contain at least 10.0% void space
# The void calculation uses a probe of radius 1.32A, grid spacing 0.4
#
###############################################################################

data_ESURER01
_chemical_formula_moiety         '(C56 H32 Co10 N24 O24)n'
_symmetry_cell_setting           triclinic
_symmetry_space_group_name_H-M   'P 1'
_symmetry_Int_Tables_number      1
_space_group_name_Hall           'P 1'
loop_
_symmetry_equiv_pos_site_id
_symmetry_equiv_pos_as_xyz
1 x,y,z
_cell_length_a                   17.8491(3)
_cell_length_b                   12.6534(2)
_cell_length_c                   11.1984(2)
_cell_angle_alpha                90
_cell_angle_beta                 94.865(2)
_cell_angle_gamma                90
_cell_volume                     2520.07
loop_
_atom_site_label
_atom_site_type_symbol
_atom_site_fract_x
_atom_site_fract_y
_atom_site_fract_z
Co5 Co -0.0000 0.09553(6) 0.2500
Co5_2 Co 1.0000 0.09553(6) 0.2500
Co6 Co 0.92123(3) 0.05902(4) 0.50044(5)
Co7 Co 0.07877(3) 0.05902(4) 0.99956(5)
Co1 Co 0.5000 0.59553(6) 0.2500
Co2 Co 0.42123(3) 0.55902(4) 0.50044(5)
N1 N 0.87397(19) 0.9348(3) 0.1621(3)
N2 N 0.91073(18) 0.9830(3) 0.2558(3)
N3 N 0.87738(18) 0.9705(3) 0.3559(3)
C1 C 0.8117(2) 0.8875(3) 0.2051(4)
C2 C 0.8149(2) 0.9104(3) 0.3279(3)
C3 C 0.7598(2) 0.8731(4) 0.4003(4)
H1 H 0.7621 0.8879 0.4828
C4 C 0.7030(2) 0.8144(4) 0.3450(4)
H2 H 0.6655 0.7880 0.3911
C5 C 0.6983(2) 0.7915(3) 0.2202(4)
C6 C 0.7528(2) 0.8270(3) 0.1492(4)
H3 H 0.7505 0.8113 0.0669
C7 C 0.6331(2) 0.7260(3) 0.1686(4)
O1 O 0.52009(15) 0.5801(2) 0.4320(2)
H4 H 0.543(2) 0.641(2) 0.465(4)
O2 O 0.63617(16) 0.6897(2) 0.0633(3)
O3 O 0.58104(16) 0.7117(2) 0.2349(3)
N4 N 0.12603(19) 0.9348(3) 0.3379(3)
N5 N 0.08927(18) 0.9830(3) 0.2442(3)
N6 N 0.12262(18) 0.9705(3) 0.1441(3)
C8 C 0.1883(2) 0.8875(3) 0.2949(4)
C9 C 0.1851(2) 0.9104(3) 0.1721(3)
C10 C 0.2402(2) 0.8731(4) 0.0997(4)
H5 H 0.2379 0.8879 0.0172
C11 C 0.2970(2) 0.8144(4) 0.1550(4)
H6 H 0.3345 0.7880 0.1089
C12 C 0.3017(2) 0.7915(3) 0.2798(4)
C13 C 0.2472(2) 0.8270(3) 0.3508(4)
H7 H 0.2495 0.8113 0.4331
C14 C 0.3669(2) 0.7260(3) 0.3314(4)
O4 O 0.47991(15) 0.5801(2) 0.0680(2)
H8 H 0.457(2) 0.641(2) 0.035(4)
O5 O 0.36383(16) 0.6897(2) 0.4367(3)
O6 O 0.41896(16) 0.7117(2) 0.2651(3)
Co8 Co 0.57877(3) 0.44098(4) 0.49956(5)
Co9 Co 0.42123(3) 0.44098(4) 0.00044(5)
Co10 Co 0.07877(3) 0.94098(4) 0.49956(5)
Co11 Co 0.92123(3) 0.94098(4) 0.00044(5)
N8 N 0.37397(19) 0.5652(3) 0.6621(3)
N9 N 0.41073(18) 0.4830(3) 0.2558(3)
N10 N 0.58927(18) 0.4830(3) 0.2442(3)
N11 N 0.37738(18) 0.4705(3) 0.3559(3)
N12 N 0.62262(18) 0.4705(3) 0.1441(3)
O7 O 0.47991(15) 0.4199(2) 0.5680(2)
Co3 Co 0.57877(3) 0.55902(4) 0.99956(5)
N7 N 0.62603(19) 0.5652(3) 0.8379(3)
O8 O 0.52009(15) 0.4199(2) 0.9320(2)
N1_2 N 0.37397(19) 0.4348(3) 0.1621(3)
C1_2 C 0.3117(2) 0.3875(3) 0.2051(4)
C2_2 C 0.3149(2) 0.4104(3) 0.3279(3)
C3_2 C 0.2598(2) 0.3731(4) 0.4003(4)
H1_2 H 0.2621 0.3879 0.4828
C4_2 C 0.2030(2) 0.3144(4) 0.3450(4)
H2_2 H 0.1655 0.2880 0.3911
C5_2 C 0.1983(2) 0.2915(3) 0.2202(4)
C6_2 C 0.2528(2) 0.3270(3) 0.1492(4)
H3_2 H 0.2505 0.3113 0.0669
C7_2 C 0.1331(2) 0.2260(3) 0.1686(4)
O1_2 O 0.02009(15) 0.0801(2) 0.4320(2)
H4_2 H 0.043(2) 0.141(2) 0.465(4)
O2_2 O 0.13617(16) 0.1897(2) 0.0633(3)
O3_2 O 0.08104(16) 0.2117(2) 0.2349(3)
N7_2 N 0.12603(19) 0.0652(3) 0.8379(3)
O8_2 O 0.02009(15) 0.9199(2) 0.9320(2)
N4_2 N 0.62603(19) 0.4348(3) 0.3379(3)
C8_2 C 0.6883(2) 0.3875(3) 0.2949(4)
C9_2 C 0.6851(2) 0.4104(3) 0.1721(3)
C10_2 C 0.7402(2) 0.3731(4) 0.0997(4)
H5_2 H 0.7379 0.3879 0.0172
C11_2 C 0.7970(2) 0.3144(4) 0.1550(4)
H6_2 H 0.8345 0.2880 0.1089
C12_2 C 0.8017(2) 0.2915(3) 0.2798(4)
C13_2 C 0.7472(2) 0.3270(3) 0.3508(4)
H7_2 H 0.7495 0.3113 0.4331
C14_2 C 0.8669(2) 0.2260(3) 0.3314(4)
O4_2 O 0.97991(15) 0.0801(2) 0.0680(2)
H8_2 H 0.957(2) 0.141(2) 0.035(4)
O5_2 O 0.86383(16) 0.1897(2) 0.4367(3)
O6_2 O 0.91896(16) 0.2117(2) 0.2651(3)
N8_2 N 0.87397(19) 0.0652(3) 0.6621(3)
O7_2 O 0.97991(15) 0.9199(2) 0.5680(2)
Co4 Co -0.0000 0.90447(6) 0.7500
Co1_2 Co 0.5000 0.40447(6) 0.7500
N2_2 N 0.08927(18) 0.0170(3) 0.7442(3)
N3_2 N 0.12262(18) 0.0295(3) 0.6441(3)
C1_3 C 0.1883(2) 0.1125(3) 0.7949(4)
C2_3 C 0.1851(2) 0.0896(3) 0.6721(3)
C3_3 C 0.2402(2) 0.1269(4) 0.5997(4)
H1_3 H 0.2379 0.1121 0.5172
C4_3 C 0.2970(2) 0.1856(4) 0.6550(4)
H2_3 H 0.3345 0.2120 0.6089
C5_3 C 0.3017(2) 0.2085(3) 0.7798(4)
C6_3 C 0.2472(2) 0.1730(3) 0.8508(4)
H3_3 H 0.2495 0.1887 0.9331
C7_3 C 0.3669(2) 0.2740(3) 0.8314(4)
H4_3 H 0.457(2) 0.359(2) 0.535(4)
O2_3 O 0.36383(16) 0.3103(2) 0.9367(3)
O3_3 O 0.41896(16) 0.2883(2) 0.7651(3)
N5_2 N 0.91073(18) 0.0170(3) 0.7558(3)
N6_2 N 0.87738(18) 0.0295(3) 0.8559(3)
C8_3 C 0.8117(2) 0.1125(3) 0.7051(4)
C9_3 C 0.8149(2) 0.0896(3) 0.8279(3)
C10_3 C 0.7598(2) 0.1269(4) 0.9003(4)
H5_3 H 0.7621 0.1121 0.9828
C11_3 C 0.7030(2) 0.1856(4) 0.8450(4)
H6_3 H 0.6655 0.2120 0.8911
C12_3 C 0.6983(2) 0.2085(3) 0.7202(4)
C13_3 C 0.7528(2) 0.1730(3) 0.6492(4)
H7_3 H 0.7505 0.1887 0.5669
C14_3 C 0.6331(2) 0.2740(3) 0.6686(4)
H8_3 H 0.543(2) 0.359(2) 0.965(4)
O5_3 O 0.63617(16) 0.3103(2) 0.5633(3)
O6_3 O 0.58104(16) 0.2883(2) 0.7349(3)
N9_2 N 0.58927(18) 0.5170(3) 0.7442(3)
N10_2 N 0.41073(18) 0.5170(3) 0.7558(3)
N11_2 N 0.62262(18) 0.5295(3) 0.6441(3)
N12_2 N 0.37738(18) 0.5295(3) 0.8559(3)
Co4_2 Co 1.0000 0.90447(6) 0.7500
C8_4 C 0.3117(2) 0.6125(3) 0.7051(4)
C9_4 C 0.3149(2) 0.5896(3) 0.8279(3)
C10_4 C 0.2598(2) 0.6269(4) 0.9003(4)
H5_4 H 0.2621 0.6121 0.9828
C11_4 C 0.2030(2) 0.6856(4) 0.8450(4)
H6_4 H 0.1655 0.7120 0.8911
C12_4 C 0.1983(2) 0.7085(3) 0.7202(4)
C13_4 C 0.2528(2) 0.6730(3) 0.6492(4)
H7_4 H 0.2505 0.6887 0.5669
C14_4 C 0.1331(2) 0.7740(3) 0.6686(4)
H8_4 H 0.043(2) 0.859(2) 0.965(4)
O5_4 O 0.13617(16) 0.8103(2) 0.5633(3)
O6_4 O 0.08104(16) 0.7883(2) 0.7349(3)
C1_4 C 0.6883(2) 0.6125(3) 0.7949(4)
C2_4 C 0.6851(2) 0.5896(3) 0.6721(3)
C3_4 C 0.7402(2) 0.6269(4) 0.5997(4)
H1_4 H 0.7379 0.6121 0.5172
C4_4 C 0.7970(2) 0.6856(4) 0.6550(4)
H2_4 H 0.8345 0.7120 0.6089
C5_4 C 0.8017(2) 0.7085(3) 0.7798(4)
C6_4 C 0.7472(2) 0.6730(3) 0.8508(4)
H3_4 H 0.7495 0.6887 0.9331
C7_4 C 0.8669(2) 0.7740(3) 0.8314(4)
H4_4 H 0.957(2) 0.859(2) 0.535(4)
O2_4 O 0.86383(16) 0.8103(2) 0.9367(3)
O3_4 O 0.91896(16) 0.7883(2) 0.7651(3)
loop_
_geom_bond_atom_site_label_1
_geom_bond_atom_site_label_2
_geom_bond_site_symmetry_1
_geom_bond_site_symmetry_2
Co1 O1 1_555 1_555
Co2 O1 1_555 1_555
N1 N2 1_555 1_555
N2 N3 1_555 1_555
N3 C2 1_555 1_555
C1 N1 1_555 1_555
C2 C1 1_555 1_555
C3 C2 1_555 1_555
H1 C3 1_555 1_555
C4 C3 1_555 1_555
H2 C4 1_555 1_555
C5 C4 1_555 1_555
C6 C1 1_555 1_555
H3 C6 1_555 1_555
C7 C5 1_555 1_555
O1 H4 1_555 1_555
O2 C7 1_555 1_555
O3 Co1 1_555 1_555
N4 N5 1_555 1_555
N5 N6 1_555 1_555
N6 C9 1_555 1_555
C8 N4 1_555 1_555
C9 C8 1_555 1_555
C10 C9 1_555 1_555
H5 C10 1_555 1_555
C11 C10 1_555 1_555
H6 C11 1_555 1_555
C12 C11 1_555 1_555
C13 C8 1_555 1_555
H7 C13 1_555 1_555
C14 C12 1_555 1_555
O4 Co1 1_555 1_555
H8 O4 1_555 1_555
O5 Co2 1_555 1_555
O6 Co1 1_555 1_555
Co8 O1 1_555 1_555
Co9 O4 1_555 1_555
Co10 N4 1_555 1_555
Co11 N1 1_555 1_555
N8 Co2 1_555 1_555
N9 Co1 1_555 1_555
N10 Co1 1_555 1_555
N11 Co2 1_555 1_555
O7 Co2 1_555 1_555
C5 C6 1_555 1_555
C7 O3 1_555 1_555
C12 C13 1_555 1_555
C14 O5 1_555 1_555
C14 O6 1_555 1_555
Co8 O7 1_555 1_555
N9 N11 1_555 1_555
N10 N12 1_555 1_555
N7 Co3 1_555 1_555
O8 Co3 1_555 1_555
Co5 O1_2 1_555 1_555
N1_2 N9 1_555 1_555
N11 C2_2 1_555 1_555
C1_2 N1_2 1_555 1_555
C2_2 C1_2 1_555 1_555
C3_2 C2_2 1_555 1_555
H1_2 C3_2 1_555 1_555
C4_2 C3_2 1_555 1_555
H2_2 C4_2 1_555 1_555
C5_2 C4_2 1_555 1_555
C6_2 C1_2 1_555 1_555
H3_2 C6_2 1_555 1_555
C7_2 C5_2 1_555 1_555
O1_2 H4_2 1_555 1_555
O2_2 C7_2 1_555 1_555
O3_2 Co5 1_555 1_555
Co9 N1_2 1_555 1_555
C5_2 C6_2 1_555 1_555
C7_2 O3_2 1_555 1_555
N7_2 Co7 1_555 1_555
N4_2 N10 1_555 1_555
N12 C9_2 1_555 1_555
C8_2 N4_2 1_555 1_555
C9_2 C8_2 1_555 1_555
C10_2 C9_2 1_555 1_555
H5_2 C10_2 1_555 1_555
C11_2 C10_2 1_555 1_555
H6_2 C11_2 1_555 1_555
C12_2 C11_2 1_555 1_555
C13_2 C8_2 1_555 1_555
H7_2 C13_2 1_555 1_555
C14_2 C12_2 1_555 1_555
O4_2 Co5_2 1_555 1_555
H8_2 O4_2 1_555 1_555
O5_2 Co6 1_555 1_555
O6_2 Co5_2 1_555 1_555
Co8 N4_2 1_555 1_555
N8_2 Co6 1_555 1_555
C12_2 C13_2 1_555 1_555
C14_2 O5_2 1_555 1_555
C14_2 O6_2 1_555 1_555
Co1_2 O7 1_555 1_555
N7_2 N2_2 1_555 1_555
N2_2 N3_2 1_555 1_555
N3_2 C2_3 1_555 1_555
C1_3 N7_2 1_555 1_555
C2_3 C1_3 1_555 1_555
C3_3 C2_3 1_555 1_555
H1_3 C3_3 1_555 1_555
C4_3 C3_3 1_555 1_555
H2_3 C4_3 1_555 1_555
C5_3 C4_3 1_555 1_555
C6_3 C1_3 1_555 1_555
H3_3 C6_3 1_555 1_555
C7_3 C5_3 1_555 1_555
O7 H4_3 1_555 1_555
O2_3 C7_3 1_555 1_555
O3_3 Co1_2 1_555 1_555
N8_2 N5_2 1_555 1_555
N5_2 N6_2 1_555 1_555
N6_2 C9_3 1_555 1_555
C8_3 N8_2 1_555 1_555
C9_3 C8_3 1_555 1_555
C10_3 C9_3 1_555 1_555
H5_3 C10_3 1_555 1_555
C11_3 C10_3 1_555 1_555
H6_3 C11_3 1_555 1_555
C12_3 C11_3 1_555 1_555
C13_3 C8_3 1_555 1_555
H7_3 C13_3 1_555 1_555
C14_3 C12_3 1_555 1_555
O8 Co1_2 1_555 1_555
H8_3 O8 1_555 1_555
O5_3 Co8 1_555 1_555
O6_3 Co1_2 1_555 1_555
N9_2 Co1_2 1_555 1_555
N10_2 Co1_2 1_555 1_555
N11_2 Co8 1_555 1_555
C5_3 C6_3 1_555 1_555
C7_3 O3_3 1_555 1_555
C12_3 C13_3 1_555 1_555
C14_3 O5_3 1_555 1_555
C14_3 O6_3 1_555 1_555
N9_2 N11_2 1_555 1_555
N10_2 N12_2 1_555 1_555
N8 N10_2 1_555 1_555
N12_2 C9_4 1_555 1_555
C8_4 N8 1_555 1_555
C9_4 C8_4 1_555 1_555
C10_4 C9_4 1_555 1_555
H5_4 C10_4 1_555 1_555
C11_4 C10_4 1_555 1_555
H6_4 C11_4 1_555 1_555
C12_4 C11_4 1_555 1_555
C13_4 C8_4 1_555 1_555
H7_4 C13_4 1_555 1_555
C14_4 C12_4 1_555 1_555
O8_2 Co4 1_555 1_555
H8_4 O8_2 1_555 1_555
O5_4 Co10 1_555 1_555
O6_4 Co4 1_555 1_555
C12_4 C13_4 1_555 1_555
C14_4 O5_4 1_555 1_555
C14_4 O6_4 1_555 1_555
Co4_2 O7_2 1_555 1_555
N7 N9_2 1_555 1_555
N11_2 C2_4 1_555 1_555
C1_4 N7 1_555 1_555
C2_4 C1_4 1_555 1_555
C3_4 C2_4 1_555 1_555
H1_4 C3_4 1_555 1_555
C4_4 C3_4 1_555 1_555
H2_4 C4_4 1_555 1_555
C5_4 C4_4 1_555 1_555
C6_4 C1_4 1_555 1_555
H3_4 C6_4 1_555 1_555
C7_4 C5_4 1_555 1_555
O7_2 H4_4 1_555 1_555
O2_4 C7_4 1_555 1_555
O3_4 Co4_2 1_555 1_555
C5_4 C6_4 1_555 1_555
C7_4 O3_4 1_555 1_555

#END
