
###############################################################################
#
# This file contains modified crystal structure data generated from the
# MOF subset of the Cambridge Structural Database (CSD) v543 
# hosted by the Cambridge Crystallographic Data Centre (CCDC).
#
# This work is licensed under the Creative Commons
# Attribution-NonCommercial-ShareAlike 4.0 International License.
# To view a copy of this license, visit
# http://creativecommons.org/licenses/by-nc-sa/4.0/
# or send a letter to
# Creative Commons, PO Box 1866, Mountain View, CA 94042, USA.
#
# CIF created using the CSD Python API on 29 September 2022
# The structure has been converted into the P1 space group
# The structure has a 3D framework
# The original CSD entry ESUSOC01 is in the triclinic crystal system
# The framework has been calculated to contain at least 10.0% void space
# The void calculation uses a probe of radius 1.32A, grid spacing 0.4
#
###############################################################################

data_ESUSOC01
_chemical_formula_moiety         '(C30 H22 Co6 N12 O12)n'
_symmetry_cell_setting           triclinic
_symmetry_space_group_name_H-M   'P 1'
_symmetry_Int_Tables_number      1
_space_group_name_Hall           'P 1'
loop_
_symmetry_equiv_pos_site_id
_symmetry_equiv_pos_as_xyz
1 x,y,z
_cell_length_a                   10.9919(13)
_cell_length_b                   10.9843(4)
_cell_length_c                   10.9893(5)
_cell_angle_alpha                83.024(3)
_cell_angle_beta                 85.221(7)
_cell_angle_gamma                81.104(7)
_cell_volume                     1298.34
loop_
_atom_site_label
_atom_site_type_symbol
_atom_site_fract_x
_atom_site_fract_y
_atom_site_fract_z
_atom_site_U_iso_or_equiv
_atom_site_thermal_displace_type
Co5 Co 0.0836(5) 0.90702(12) 0.25115(13) 0.0208 Uani
O8 O 0.0858(15) 0.9468(7) 0.0657(7) 0.0170 Uiso
O10 O 0.0439(17) 0.9044(6) 0.4321(6) 0.0187 Uiso
O13 O 0.0249(16) 0.6761(5) 0.0806(7) 0.0194 Uiso
O7 O 0.823(2) 0.1725(7) 0.3620(8) 0.0420 Uiso
H9 H 0.748(5) 0.169(6) 0.323(10) 0.0500 Uiso
C15 C 0.809(5) 0.2902(16) 0.413(2) 0.1480 Uiso
H10 H 0.7962 0.3567 0.3476 0.2220 Uiso
H11 H 0.7396 0.2959 0.4716 0.2220 Uiso
H12 H 0.8824 0.2960 0.4519 0.2220 Uiso
Co11 Co 0.1452(4) 0.00393(12) 0.50904(14) 0.0193 Uani
N9 N 0.0938(13) 0.1003(6) 0.2513(7) 0.0180 Uiso
O11 O 0.9561(17) 0.0956(6) 0.5679(6) 0.0187 Uiso
O12 O 0.6753(19) 0.0500(6) 0.5657(7) 0.0320 Uiso
Co8 Co 0.0296(3) 0.14249(11) 0.99714(13) 0.0223 Uani
O9 O 0.9142(15) 0.0532(7) 0.9343(7) 0.0170 Uiso
Co2 Co 0.9704(3) 0.85751(11) 0.00286(13) 0.0223 Uani
Co3 Co 0.8548(4) 0.99607(12) 0.49096(14) 0.0193 Uani
N1 N 0.8375(18) 0.8942(6) 0.1417(8) 0.0200 Uiso
N2 N 0.885(2) 0.9129(6) 0.2467(10) 0.0330 Uiso
N3 N 0.7995(18) 0.9265(7) 0.3379(9) 0.0280 Uiso
N4 N 0.0718(16) 0.1896(6) 0.1604(7) 0.0140 Uiso
N6 N 0.1134(17) 0.1407(6) 0.3559(7) 0.0150 Uiso
C1 C 0.6909(17) 0.9170(9) 0.2934(10) 0.0240 Uiso
C2 C 0.7146(18) 0.8989(9) 0.1690(10) 0.0230 Uiso
C3 C 0.6209(19) 0.8872(9) 0.0980(13) 0.0350 Uiso
H1 H 0.6373 0.8765 0.0153 0.0420 Uiso
C4 C 0.503(2) 0.8913(9) 0.1502(11) 0.0350 Uiso
H2 H 0.4391 0.8812 0.1034 0.0410 Uiso
C5 C 0.478(2) 0.9107(11) 0.2743(12) 0.0350 Uiso
C6 C 0.5721(19) 0.9257(9) 0.3455(12) 0.0300 Uiso
H3 H 0.5551 0.9414 0.4269 0.0360 Uiso
C7 C 0.360(3) 0.9118(10) 0.3246(12) 0.0260 Uiso
C8 C 0.079(2) 0.2972(6) 0.2110(8) 0.0130 Uiso
C9 C 0.109(2) 0.2666(7) 0.3301(8) 0.0180 Uiso
C10 C 0.110(2) 0.3556(7) 0.4090(10) 0.0220 Uiso
H4 H 0.1167 0.3341 0.4929 0.0260 Uiso
C11 C 0.099(2) 0.4762(7) 0.3584(9) 0.0170 Uiso
H5 H 0.1075 0.5376 0.4073 0.0210 Uiso
C12 C 0.076(2) 0.5091(7) 0.2361(8) 0.0160 Uiso
C13 C 0.062(2) 0.4222(7) 0.1600(9) 0.0170 Uiso
H6 H 0.0432 0.4449 0.0787 0.0210 Uiso
C14 C 0.059(2) 0.6451(8) 0.1849(10) 0.0210 Uiso
H7 H 0.174(3) 0.939(9) 0.049(7) 0.0200 Uiso
H8 H 0.093(10) 0.826(6) 0.460(7) 0.0220 Uiso
O3 O 0.3247(19) 0.9500(6) 0.4343(7) 0.0320 Uiso
O4 O 0.282(3) 0.8734(8) 0.2655(9) 0.0440 Uiso
O6 O 0.0937(16) 0.7153(5) 0.2560(6) 0.0188 Uiso
N10 N 0.8866(17) 0.8593(6) 0.6441(7) 0.0150 Uiso
N8 N 0.9282(16) 0.8104(6) 0.8396(7) 0.0140 Uiso
N7 N 0.115(2) 0.0871(6) 0.7533(10) 0.0330 Uiso
Co4 Co 0.9164(5) 0.09298(12) 0.74885(13) 0.0208 Uani
N1_2 N 0.1625(18) 0.1058(6) 0.8583(8) 0.0200 Uiso
N3_2 N 0.2005(18) 0.0735(7) 0.6621(9) 0.0280 Uiso
N5 N 0.9062(13) 0.8997(6) 0.7487(7) 0.0180 Uiso
C1_2 C 0.3091(17) 0.0830(9) 0.7066(10) 0.0240 Uiso
C2_2 C 0.2854(18) 0.1011(9) 0.8310(10) 0.0230 Uiso
C3_2 C 0.3791(19) 0.1128(9) 0.9020(13) 0.0350 Uiso
H1_2 H 0.3627 0.1235 0.9847 0.0420 Uiso
C4_2 C 0.497(2) 0.1087(9) 0.8498(11) 0.0350 Uiso
H2_2 H 0.5609 0.1188 0.8966 0.0410 Uiso
C5_2 C 0.522(2) 0.0893(11) 0.7257(12) 0.0350 Uiso
C6_2 C 0.4279(19) 0.0743(9) 0.6545(12) 0.0300 Uiso
H3_2 H 0.4449 0.0586 0.5731 0.0360 Uiso
C7_2 C 0.640(3) 0.0882(10) 0.6754(12) 0.0260 Uiso
C8_2 C 0.921(2) 0.7028(6) 0.7890(8) 0.0130 Uiso
C9_2 C 0.891(2) 0.7334(7) 0.6699(8) 0.0180 Uiso
C10_2 C 0.890(2) 0.6444(7) 0.5910(10) 0.0220 Uiso
H4_2 H 0.8833 0.6659 0.5071 0.0260 Uiso
C11_2 C 0.901(2) 0.5238(7) 0.6416(9) 0.0170 Uiso
H5_2 H 0.8925 0.4624 0.5927 0.0210 Uiso
C12_2 C 0.924(2) 0.4909(7) 0.7639(8) 0.0160 Uiso
C13_2 C 0.938(2) 0.5778(7) 0.8400(9) 0.0170 Uiso
H6_2 H 0.9568 0.5551 0.9213 0.0210 Uiso
C14_2 C 0.941(2) 0.3549(8) 0.8151(10) 0.0210 Uiso
H7_2 H 0.826(3) 0.061(9) 0.951(7) 0.0200 Uiso
H8_2 H 0.907(10) 0.174(6) 0.540(7) 0.0220 Uiso
O4_2 O 0.718(3) 0.1266(8) 0.7345(9) 0.0440 Uiso
O5 O 0.9751(16) 0.3239(5) 0.9194(7) 0.0194 Uiso
O6_2 O 0.9063(16) 0.2847(5) 0.7440(6) 0.0188 Uiso
O7_2 O 0.177(2) 0.8275(7) 0.6380(8) 0.0420 Uiso
H9_2 H 0.252(5) 0.831(6) 0.677(10) 0.0500 Uiso
C15_2 C 0.191(5) 0.7098(16) 0.587(2) 0.1480 Uiso
H10_2 H 0.2038 0.6433 0.6524 0.2220 Uiso
H11_2 H 0.2604 0.7041 0.5284 0.2220 Uiso
H12_2 H 0.1176 0.7040 0.5481 0.2220 Uiso
loop_
_atom_site_aniso_label
_atom_site_aniso_U_11
_atom_site_aniso_U_22
_atom_site_aniso_U_33
_atom_site_aniso_U_23
_atom_site_aniso_U_13
_atom_site_aniso_U_12
Co5 0.035 0.0163 0.0114 -0.0019 0.0006 -0.0054
Co11 0.021 0.0238 0.0141 -0.0029 -0.0005 -0.0065
Co8 0.035 0.0196 0.0141 -0.0022 -0.0038 -0.0086
Co2 0.035 0.0196 0.0141 -0.0022 -0.0038 -0.0086
Co3 0.021 0.0238 0.0141 -0.0029 -0.0005 -0.0065
Co4 0.035 0.0163 0.0114 -0.0019 0.0006 -0.0054
loop_
_geom_bond_atom_site_label_1
_geom_bond_atom_site_label_2
_geom_bond_site_symmetry_1
_geom_bond_site_symmetry_2
Co5 O8 1_555 1_555
Co5 O10 1_555 1_555
H9 O7 1_555 1_555
C15 O7 1_555 1_555
H10 C15 1_555 1_555
H11 C15 1_555 1_555
H12 C15 1_555 1_555
Co2 N1 1_555 1_555
Co3 N3 1_555 1_555
N1 N2 1_555 1_555
N2 N3 1_555 1_555
N3 C1 1_555 1_555
N4 N9 1_555 1_555
N9 N6 1_555 1_555
N6 C9 1_555 1_555
C1 C2 1_555 1_555
C2 N1 1_555 1_555
C3 C2 1_555 1_555
H1 C3 1_555 1_555
C4 C3 1_555 1_555
H2 C4 1_555 1_555
C5 C4 1_555 1_555
C6 C1 1_555 1_555
H3 C6 1_555 1_555
C7 C5 1_555 1_555
C8 N4 1_555 1_555
C9 C8 1_555 1_555
C10 C9 1_555 1_555
H4 C10 1_555 1_555
C11 C10 1_555 1_555
H5 C11 1_555 1_555
C12 C11 1_555 1_555
C13 C8 1_555 1_555
H6 C13 1_555 1_555
C14 C12 1_555 1_555
O8 H7 1_555 1_555
H8 O10 1_555 1_555
O3 C7 1_555 1_555
O4 Co5 1_555 1_555
O13 C14 1_555 1_555
O6 Co5 1_555 1_555
Co11 N6 1_555 1_555
N10 Co3 1_555 1_555
C5 C6 1_555 1_555
C7 O4 1_555 1_555
C12 C13 1_555 1_555
C14 O6 1_555 1_555
Co4 O9 1_555 1_555
Co8 N1_2 1_555 1_555
Co11 N3_2 1_555 1_555
N1_2 N7 1_555 1_555
N7 N3_2 1_555 1_555
N3_2 C1_2 1_555 1_555
N8 N5 1_555 1_555
N5 N10 1_555 1_555
N10 C9_2 1_555 1_555
C1_2 C2_2 1_555 1_555
C2_2 N1_2 1_555 1_555
C3_2 C2_2 1_555 1_555
H1_2 C3_2 1_555 1_555
C4_2 C3_2 1_555 1_555
H2_2 C4_2 1_555 1_555
C5_2 C4_2 1_555 1_555
C6_2 C1_2 1_555 1_555
H3_2 C6_2 1_555 1_555
C7_2 C5_2 1_555 1_555
C8_2 N8 1_555 1_555
C9_2 C8_2 1_555 1_555
C10_2 C9_2 1_555 1_555
H4_2 C10_2 1_555 1_555
C11_2 C10_2 1_555 1_555
H5_2 C11_2 1_555 1_555
C12_2 C11_2 1_555 1_555
C13_2 C8_2 1_555 1_555
H6_2 C13_2 1_555 1_555
C14_2 C12_2 1_555 1_555
O9 H7_2 1_555 1_555
O11 Co4 1_555 1_555
H8_2 O11 1_555 1_555
O12 C7_2 1_555 1_555
O4_2 Co4 1_555 1_555
O5 C14_2 1_555 1_555
O6_2 Co4 1_555 1_555
C5_2 C6_2 1_555 1_555
C7_2 O4_2 1_555 1_555
C12_2 C13_2 1_555 1_555
C14_2 O6_2 1_555 1_555
H9_2 O7_2 1_555 1_555
C15_2 O7_2 1_555 1_555
H10_2 C15_2 1_555 1_555
H11_2 C15_2 1_555 1_555
H12_2 C15_2 1_555 1_555

#END
