
###############################################################################
#
# This file contains modified crystal structure data generated from the
# MOF subset of the Cambridge Structural Database (CSD) v543 
# hosted by the Cambridge Crystallographic Data Centre (CCDC).
#
# This work is licensed under the Creative Commons
# Attribution-NonCommercial-ShareAlike 4.0 International License.
# To view a copy of this license, visit
# http://creativecommons.org/licenses/by-nc-sa/4.0/
# or send a letter to
# Creative Commons, PO Box 1866, Mountain View, CA 94042, USA.
#
# CIF created using the CSD Python API on 29 September 2022
# The structure has been converted into the P1 space group
# The structure has a 3D framework
# The original CSD entry ESUSOC is in the triclinic crystal system
# The framework has been calculated to contain at least 10.0% void space
# The void calculation uses a probe of radius 1.32A, grid spacing 0.4
#
###############################################################################

data_ESUSOC
_chemical_formula_moiety         '(C30 H23 Co8 N12 O12)n'
_symmetry_cell_setting           triclinic
_symmetry_space_group_name_H-M   'P 1'
_symmetry_Int_Tables_number      1
_space_group_name_Hall           'P 1'
loop_
_symmetry_equiv_pos_site_id
_symmetry_equiv_pos_as_xyz
1 x,y,z
_cell_length_a                   11.0437(17)
_cell_length_b                   11.0107(5)
_cell_length_c                   11.0222(5)
_cell_angle_alpha                83.364(4)
_cell_angle_beta                 85.871(8)
_cell_angle_gamma                77.346(8)
_cell_volume                     1297.46
loop_
_atom_site_label
_atom_site_type_symbol
_atom_site_fract_x
_atom_site_fract_y
_atom_site_fract_z
Co5 Co 0.0869(5) 0.90366(15) 0.25111(14)
O8 O 0.0925(17) 0.9412(7) 0.0659(7)
O10 O 0.048(2) 0.9035(7) 0.4318(7)
O13 O 0.0386(18) 0.6743(7) 0.0756(7)
Co3 Co 0.8537(4) -0.00004(15) 0.48949(15)
O7 O 0.809(2) 0.1800(9) 0.3571(9)
H9 H 0.784(17) 0.189(5) 0.273(6)
C15 C 0.773(5) 0.3047(19) 0.400(2)
H10 H 0.7590 0.3668 0.3308
H11 H 0.6987 0.3100 0.4511
H12 H 0.8387 0.3191 0.4456
Co11 Co 0.1463(4) 0.00004(15) 0.51051(15)
O11 O 0.952(2) 0.0965(7) 0.5682(7)
O12 O 0.670(2) 0.0631(7) 0.5622(8)
N9 N 0.0952(15) 0.0948(7) 0.2542(7)
Co8 Co 0.0282(4) 0.14144(13) 0.99723(14)
O9 O 0.9075(17) 0.0588(7) 0.9341(7)
Co2 Co 0.9718(4) 0.85856(13) 0.00277(14)
Co3_2 Co 0.8537(4) 0.99996(15) 0.48949(15)
O3 O 0.330(2) 0.9369(7) 0.4378(8)
O4 O 0.279(3) 0.8641(8) 0.2692(10)
O6 O 0.1031(17) 0.7111(6) 0.2519(7)
N1 N 0.8425(17) 0.8951(7) 0.1428(8)
N2 N 0.890(2) 0.9152(7) 0.2444(10)
N3 N 0.8047(18) 0.9252(8) 0.3354(10)
N4 N 0.0743(17) 0.1862(7) 0.1615(7)
N6 N 0.1157(18) 0.1363(7) 0.3567(8)
C1 C 0.6957(16) 0.9102(11) 0.2942(11)
C2 C 0.7193(18) 0.8924(10) 0.1684(10)
C3 C 0.502(2) 0.8806(12) 0.1554(12)
H1 H 0.4378 0.8721 0.1094
C4 C 0.6208(19) 0.8786(12) 0.1004(15)
H2 H 0.6348 0.8681 0.0177
C5 C 0.481(2) 0.8956(11) 0.2816(12)
C6 C 0.5777(17) 0.9122(10) 0.3493(12)
H3 H 0.5631 0.9247 0.4316
C7 C 0.357(3) 0.8990(11) 0.3321(12)
C8 C 0.079(2) 0.2957(8) 0.2090(9)
C9 C 0.103(2) 0.2643(8) 0.3314(8)
C10 C 0.113(3) 0.3539(9) 0.4102(10)
H4 H 0.1212 0.3336 0.4938
C11 C 0.108(2) 0.4732(9) 0.3549(9)
H5 H 0.1195 0.5348 0.4013
C12 C 0.086(2) 0.5035(9) 0.2344(9)
C13 C 0.070(2) 0.4192(8) 0.1574(10)
H6 H 0.0538 0.4431 0.0755
C14 C 0.074(3) 0.6416(9) 0.1831(11)
H7 H 0.181(3) 0.919(9) 0.043(8)
Co11_2 Co 0.1463(4) 1.00004(15) 0.51051(15)
N10 N 0.8843(18) 0.8637(7) 0.6433(8)
N8 N 0.9257(17) 0.8138(7) 0.8385(7)
H8 H 0.968(5) 0.883(11) 0.448(8)
H8_2 H 0.032(5) 0.117(11) 0.552(8)
N7 N 0.110(2) 0.0848(7) 0.7556(10)
Co4 Co 0.9131(5) 0.09634(15) 0.74889(14)
O4_2 O 0.721(3) 0.1359(8) 0.7308(10)
O5 O 0.9614(18) 0.3257(7) 0.9244(7)
O6_2 O 0.8969(17) 0.2889(6) 0.7481(7)
N1_2 N 0.1575(17) 0.1049(7) 0.8572(8)
N3_2 N 0.1953(18) 0.0748(8) 0.6646(10)
N5 N 0.9048(15) 0.9052(7) 0.7458(7)
C1_2 C 0.3043(16) 0.0898(11) 0.7058(11)
C2_2 C 0.2807(18) 0.1076(10) 0.8316(10)
C3_2 C 0.498(2) 0.1194(12) 0.8446(12)
H1_2 H 0.5622 0.1279 0.8906
C4_2 C 0.3792(19) 0.1214(12) 0.8996(15)
H2_2 H 0.3652 0.1319 0.9823
C5_2 C 0.519(2) 0.1044(11) 0.7184(12)
C6_2 C 0.4223(17) 0.0878(10) 0.6507(12)
H3_2 H 0.4369 0.0753 0.5684
C7_2 C 0.643(3) 0.1010(11) 0.6679(12)
C8_2 C 0.921(2) 0.7043(8) 0.7910(9)
C9_2 C 0.897(2) 0.7357(8) 0.6686(8)
C10_2 C 0.887(3) 0.6461(9) 0.5898(10)
H4_2 H 0.8788 0.6664 0.5062
C11_2 C 0.892(2) 0.5268(9) 0.6451(9)
H5_2 H 0.8805 0.4652 0.5987
C12_2 C 0.914(2) 0.4965(9) 0.7656(9)
C13_2 C 0.930(2) 0.5808(8) 0.8426(10)
H6_2 H 0.9462 0.5569 0.9245
C14_2 C 0.926(3) 0.3584(9) 0.8169(11)
H7_2 H 0.819(3) 0.081(9) 0.957(8)
O7_2 O 0.191(2) 0.8200(9) 0.6429(9)
H9_2 H 0.216(17) 0.811(5) 0.727(6)
C15_2 C 0.227(5) 0.6953(19) 0.600(2)
H10_2 H 0.2410 0.6332 0.6692
H11_2 H 0.3013 0.6900 0.5489
H12_2 H 0.1613 0.6809 0.5544
loop_
_geom_bond_atom_site_label_1
_geom_bond_atom_site_label_2
_geom_bond_site_symmetry_1
_geom_bond_site_symmetry_2
Co5 O8 1_555 1_555
Co5 O10 1_555 1_555
O7 Co3 1_555 1_555
H9 O7 1_555 1_555
C15 O7 1_555 1_555
H10 C15 1_555 1_555
H11 C15 1_555 1_555
H12 C15 1_555 1_555
O11 Co3 1_555 1_555
O12 Co3 1_555 1_555
Co2 N1 1_555 1_555
Co3_2 N3 1_555 1_555
O8 H7 1_555 1_555
O3 C7 1_555 1_555
O4 Co5 1_555 1_555
O13 C14 1_555 1_555
O6 Co5 1_555 1_555
N1 N2 1_555 1_555
N2 N3 1_555 1_555
N3 C1 1_555 1_555
N4 N9 1_555 1_555
N9 N6 1_555 1_555
N6 C9 1_555 1_555
C1 C2 1_555 1_555
C2 N1 1_555 1_555
C3 H1 1_555 1_555
C4 C2 1_555 1_555
H2 C4 1_555 1_555
C5 C3 1_555 1_555
C6 C1 1_555 1_555
H3 C6 1_555 1_555
C7 O4 1_555 1_555
C8 N4 1_555 1_555
C9 C8 1_555 1_555
C10 C9 1_555 1_555
H4 C10 1_555 1_555
C11 C10 1_555 1_555
H5 C11 1_555 1_555
C12 C11 1_555 1_555
C13 C8 1_555 1_555
H6 C13 1_555 1_555
C14 O6 1_555 1_555
Co11 N6 1_555 1_555
Co11_2 O10 1_555 1_555
N10 Co3_2 1_555 1_555
O3 Co11_2 1_555 1_555
C3 C4 1_555 1_555
C5 C6 1_555 1_555
C5 C7 1_555 1_555
C12 C13 1_555 1_555
C12 C14 1_555 1_555
Co4 O9 1_555 1_555
Co8 N1_2 1_555 1_555
Co11 N3_2 1_555 1_555
O9 H7_2 1_555 1_555
O11 Co4 1_555 1_555
O12 C7_2 1_555 1_555
O4_2 Co4 1_555 1_555
O5 C14_2 1_555 1_555
O6_2 Co4 1_555 1_555
N1_2 N7 1_555 1_555
N7 N3_2 1_555 1_555
N3_2 C1_2 1_555 1_555
N8 N5 1_555 1_555
N5 N10 1_555 1_555
N10 C9_2 1_555 1_555
C1_2 C2_2 1_555 1_555
C2_2 N1_2 1_555 1_555
C3_2 H1_2 1_555 1_555
C4_2 C2_2 1_555 1_555
H2_2 C4_2 1_555 1_555
C5_2 C3_2 1_555 1_555
C6_2 C1_2 1_555 1_555
H3_2 C6_2 1_555 1_555
C7_2 O4_2 1_555 1_555
C8_2 N8 1_555 1_555
C9_2 C8_2 1_555 1_555
C10_2 C9_2 1_555 1_555
H4_2 C10_2 1_555 1_555
C11_2 C10_2 1_555 1_555
H5_2 C11_2 1_555 1_555
C12_2 C11_2 1_555 1_555
C13_2 C8_2 1_555 1_555
H6_2 C13_2 1_555 1_555
C14_2 O6_2 1_555 1_555
C3_2 C4_2 1_555 1_555
C5_2 C6_2 1_555 1_555
C5_2 C7_2 1_555 1_555
C12_2 C13_2 1_555 1_555
C12_2 C14_2 1_555 1_555
O7_2 Co11_2 1_555 1_555
H9_2 O7_2 1_555 1_555
C15_2 O7_2 1_555 1_555
H10_2 C15_2 1_555 1_555
H11_2 C15_2 1_555 1_555
H12_2 C15_2 1_555 1_555

#END
