
###############################################################################
#
# This file contains modified crystal structure data generated from the
# MOF subset of the Cambridge Structural Database (CSD) v543 
# hosted by the Cambridge Crystallographic Data Centre (CCDC).
#
# This work is licensed under the Creative Commons
# Attribution-NonCommercial-ShareAlike 4.0 International License.
# To view a copy of this license, visit
# http://creativecommons.org/licenses/by-nc-sa/4.0/
# or send a letter to
# Creative Commons, PO Box 1866, Mountain View, CA 94042, USA.
#
# CIF created using the CSD Python API on 29 September 2022
# The structure has been converted into the P1 space group
# The structure has a 3D framework
# The original CSD entry ESUSAO01 is in the triclinic crystal system
# The framework has been calculated to contain at least 10.0% void space
# The void calculation uses a probe of radius 1.32A, grid spacing 0.4
#
###############################################################################

data_ESUSAO01
_chemical_formula_moiety         '(C34 H28 Co6 N14 O12)n'
_symmetry_cell_setting           triclinic
_symmetry_space_group_name_H-M   'P 1'
_symmetry_Int_Tables_number      1
_space_group_name_Hall           'P 1'
loop_
_symmetry_equiv_pos_site_id
_symmetry_equiv_pos_as_xyz
1 x,y,z
_cell_length_a                   10.9188(4)
_cell_length_b                   10.9634(4)
_cell_length_c                   11.0564(4)
_cell_angle_alpha                83.336(3)
_cell_angle_beta                 87.083(3)
_cell_angle_gamma                70.191(4)
_cell_volume                     1236.71
loop_
_atom_site_label
_atom_site_type_symbol
_atom_site_fract_x
_atom_site_fract_y
_atom_site_fract_z
Co5 Co 0.09333(7) 0.89525(7) 0.25072(7)
O8 O 0.1015(4) 0.9299(4) 0.0666(3)
O10 O 0.0460(4) 0.9002(4) 0.4296(3)
O13 O 0.0484(4) 0.6706(4) 0.0702(4)
Co2 Co 0.85068(7) 0.01668(7) 0.48226(7)
O7 O 0.8053(4) 0.2030(3) 0.3534(4)
C15 C 0.7503(7) 0.3055(3) 0.3960(3)
H9 H 0.7299 0.3007 0.4805
N7 N 0.7155(6) 0.4265(3) 0.3334(4)
C16 C 0.7449(8) 0.4427(5) 0.2040(4)
H10 H 0.7131 0.5356 0.1742
H11 H 0.8393 0.4074 0.1908
H12 H 0.7021 0.3960 0.1599
C17 C 0.6477(12) 0.5430(4) 0.3921(7)
H13 H 0.6314 0.6199 0.3322
H14 H 0.5646 0.5381 0.4259
H15 H 0.7012 0.5499 0.4578
N10 N 0.0936(5) 0.0864(5) 0.2571(4)
O11 O 0.9540(4) 0.0998(4) 0.5704(3)
O12 O 0.6623(4) 0.0912(4) 0.5458(4)
Co11 Co 0.02893(8) 0.13649(7) 0.99829(7)
O9 O 0.8985(4) 0.0701(4) 0.9334(3)
Co3 Co 0.97107(8) 0.86351(7) 0.00171(7)
N1 N 0.8003(5) 0.9374(5) 0.3349(4)
N2 N 0.8819(5) 0.9320(5) 0.2390(4)
N3 N 0.8345(5) 0.9024(5) 0.1409(4)
N4 N 0.0762(5) 0.1776(5) 0.1636(4)
N6 N 0.1137(5) 0.1246(5) 0.3611(4)
C1 C 0.6958(5) 0.9103(5) 0.2966(5)
C2 C 0.7177(6) 0.8891(6) 0.1736(5)
C3 C 0.6256(6) 0.8624(7) 0.1056(6)
H1 H 0.6396 0.8497 0.0218
C4 C 0.5153(6) 0.8555(7) 0.1661(6)
H2 H 0.4521 0.8357 0.1236
C5 C 0.4927(6) 0.8772(6) 0.2907(5)
C6 C 0.5811(6) 0.9050(6) 0.3583(5)
H3 H 0.5655 0.9197 0.4415
C7 C 0.3643(6) 0.8739(6) 0.3477(5)
C8 C 0.0863(5) 0.2858(5) 0.2104(5)
C9 C 0.1084(5) 0.2520(5) 0.3350(5)
C10 C 0.1211(6) 0.3399(6) 0.4120(5)
H4 H 0.1358 0.3164 0.4968
C11 C 0.1109(6) 0.4623(6) 0.3572(5)
H5 H 0.1181 0.5254 0.4060
C12 C 0.0900(6) 0.4974(5) 0.2307(5)
C13 C 0.0779(6) 0.4108(6) 0.1554(5)
H6 H 0.0644 0.4341 0.0704
C14 C 0.0823(6) 0.6341(5) 0.1800(5)
H7 H 0.182(3) 0.879(5) 0.035(5)
H8 H 0.064(6) 0.814(3) 0.470(5)
O3 O 0.3377(4) 0.9088(4) 0.4542(4)
O4 O 0.2947(4) 0.8352(4) 0.2850(4)
O6 O 0.1081(4) 0.7014(4) 0.2525(4)
Co8 Co 0.14932(7) 0.98332(7) 0.51774(7)
N11 N 0.8863(5) 0.8754(5) 0.6389(4)
N9 N 0.9238(5) 0.8224(5) 0.8364(4)
N8 N 0.1181(5) 0.0680(5) 0.7610(4)
Co4 Co 0.90667(7) 0.10475(7) 0.74928(7)
N1_2 N 0.1997(5) 0.0626(5) 0.6651(4)
N3_2 N 0.1655(5) 0.0976(5) 0.8591(4)
N5 N 0.9064(5) 0.9136(5) 0.7429(4)
C1_2 C 0.3042(5) 0.0897(5) 0.7034(5)
C2_2 C 0.2823(6) 0.1109(6) 0.8264(5)
C3_2 C 0.3744(6) 0.1376(7) 0.8944(6)
H1_2 H 0.3604 0.1503 0.9782
C4_2 C 0.4847(6) 0.1445(7) 0.8339(6)
H2_2 H 0.5479 0.1643 0.8764
C5_2 C 0.5073(6) 0.1228(6) 0.7093(5)
C6_2 C 0.4189(6) 0.0950(6) 0.6417(5)
H3_2 H 0.4345 0.0803 0.5585
C7_2 C 0.6357(6) 0.1261(6) 0.6523(5)
C8_2 C 0.9137(5) 0.7142(5) 0.7896(5)
C9_2 C 0.8916(5) 0.7480(5) 0.6650(5)
C10_2 C 0.8789(6) 0.6601(6) 0.5880(5)
H4_2 H 0.8642 0.6836 0.5032
C11_2 C 0.8891(6) 0.5377(6) 0.6428(5)
H5_2 H 0.8819 0.4746 0.5940
C12_2 C 0.9100(6) 0.5026(5) 0.7693(5)
C13_2 C 0.9221(6) 0.5892(6) 0.8446(5)
H6_2 H 0.9356 0.5659 0.9296
C14_2 C 0.9177(6) 0.3659(5) 0.8200(5)
H7_2 H 0.818(3) 0.121(5) 0.965(5)
H8_2 H 0.936(6) 0.186(3) 0.530(5)
O4_2 O 0.7053(4) 0.1648(4) 0.7150(4)
O5 O 0.9516(4) 0.3294(4) 0.9298(4)
O6_2 O 0.8919(4) 0.2986(4) 0.7475(4)
O7_2 O 0.1947(4) 0.7970(3) 0.6466(4)
C15_2 C 0.2497(7) 0.6945(3) 0.6040(3)
H9_2 H 0.2701 0.6993 0.5195
N7_2 N 0.2845(6) 0.5735(3) 0.6666(4)
C16_2 C 0.2551(8) 0.5573(5) 0.7960(4)
H10_2 H 0.2869 0.4644 0.8258
H11_2 H 0.1607 0.5926 0.8092
H12_2 H 0.2979 0.6040 0.8401
C17_2 C 0.3523(12) 0.4570(4) 0.6079(7)
H13_2 H 0.3686 0.3801 0.6678
H14_2 H 0.4354 0.4619 0.5741
H15_2 H 0.2988 0.4501 0.5422
loop_
_geom_bond_atom_site_label_1
_geom_bond_atom_site_label_2
_geom_bond_site_symmetry_1
_geom_bond_site_symmetry_2
Co5 O8 1_555 1_555
Co5 O10 1_555 1_555
O7 Co2 1_555 1_555
C15 O7 1_555 1_555
H9 C15 1_555 1_555
N7 C15 1_555 1_555
C16 N7 1_555 1_555
H10 C16 1_555 1_555
H11 C16 1_555 1_555
H12 C16 1_555 1_555
C17 N7 1_555 1_555
H13 C17 1_555 1_555
H14 C17 1_555 1_555
H15 C17 1_555 1_555
O11 Co2 1_555 1_555
O12 Co2 1_555 1_555
Co3 N3 1_555 1_555
N1 N2 1_555 1_555
N2 N3 1_555 1_555
N3 C2 1_555 1_555
N4 N10 1_555 1_555
N10 N6 1_555 1_555
N6 C9 1_555 1_555
C1 N1 1_555 1_555
C2 C1 1_555 1_555
C3 C2 1_555 1_555
H1 C3 1_555 1_555
C4 C3 1_555 1_555
H2 C4 1_555 1_555
C5 C4 1_555 1_555
C6 C1 1_555 1_555
H3 C6 1_555 1_555
C7 C5 1_555 1_555
C8 N4 1_555 1_555
C9 C8 1_555 1_555
C10 C9 1_555 1_555
H4 C10 1_555 1_555
C11 C10 1_555 1_555
H5 C11 1_555 1_555
C12 C11 1_555 1_555
C13 C8 1_555 1_555
H6 C13 1_555 1_555
C14 C12 1_555 1_555
O8 H7 1_555 1_555
H8 O10 1_555 1_555
O3 C7 1_555 1_555
O4 Co5 1_555 1_555
O13 C14 1_555 1_555
O6 Co5 1_555 1_555
Co8 O10 1_555 1_555
C5 C6 1_555 1_555
C7 O4 1_555 1_555
C12 C13 1_555 1_555
C14 O6 1_555 1_555
O3 Co8 1_555 1_555
Co4 O9 1_555 1_555
Co11 N3_2 1_555 1_555
N1_2 N8 1_555 1_555
N8 N3_2 1_555 1_555
N3_2 C2_2 1_555 1_555
N9 N5 1_555 1_555
N5 N11 1_555 1_555
N11 C9_2 1_555 1_555
C1_2 N1_2 1_555 1_555
C2_2 C1_2 1_555 1_555
C3_2 C2_2 1_555 1_555
H1_2 C3_2 1_555 1_555
C4_2 C3_2 1_555 1_555
H2_2 C4_2 1_555 1_555
C5_2 C4_2 1_555 1_555
C6_2 C1_2 1_555 1_555
H3_2 C6_2 1_555 1_555
C7_2 C5_2 1_555 1_555
C8_2 N9 1_555 1_555
C9_2 C8_2 1_555 1_555
C10_2 C9_2 1_555 1_555
H4_2 C10_2 1_555 1_555
C11_2 C10_2 1_555 1_555
H5_2 C11_2 1_555 1_555
C12_2 C11_2 1_555 1_555
C13_2 C8_2 1_555 1_555
H6_2 C13_2 1_555 1_555
C14_2 C12_2 1_555 1_555
O9 H7_2 1_555 1_555
O11 Co4 1_555 1_555
H8_2 O11 1_555 1_555
O12 C7_2 1_555 1_555
O4_2 Co4 1_555 1_555
O5 C14_2 1_555 1_555
O6_2 Co4 1_555 1_555
C5_2 C6_2 1_555 1_555
C7_2 O4_2 1_555 1_555
C12_2 C13_2 1_555 1_555
C14_2 O6_2 1_555 1_555
O7_2 Co8 1_555 1_555
C15_2 O7_2 1_555 1_555
H9_2 C15_2 1_555 1_555
N7_2 C15_2 1_555 1_555
C16_2 N7_2 1_555 1_555
H10_2 C16_2 1_555 1_555
H11_2 C16_2 1_555 1_555
H12_2 C16_2 1_555 1_555
C17_2 N7_2 1_555 1_555
H13_2 C17_2 1_555 1_555
H14_2 C17_2 1_555 1_555
H15_2 C17_2 1_555 1_555

#END
