
###############################################################################
#
# This file contains modified crystal structure data generated from the
# MOF subset of the Cambridge Structural Database (CSD) v543 
# hosted by the Cambridge Crystallographic Data Centre (CCDC).
#
# This work is licensed under the Creative Commons
# Attribution-NonCommercial-ShareAlike 4.0 International License.
# To view a copy of this license, visit
# http://creativecommons.org/licenses/by-nc-sa/4.0/
# or send a letter to
# Creative Commons, PO Box 1866, Mountain View, CA 94042, USA.
#
# CIF created using the CSD Python API on 29 September 2022
# The structure has been converted into the P1 space group
# The structure has a 3D framework
# The original CSD entry ESUSOC02 is in the triclinic crystal system
# The framework has been calculated to contain at least 10.0% void space
# The void calculation uses a probe of radius 1.32A, grid spacing 0.4
#
###############################################################################

data_ESUSOC02
_chemical_formula_moiety         '(C30 H22 Co6 N12 O12)n'
_symmetry_cell_setting           triclinic
_symmetry_space_group_name_H-M   'P 1'
_symmetry_Int_Tables_number      1
_space_group_name_Hall           'P 1'
loop_
_symmetry_equiv_pos_site_id
_symmetry_equiv_pos_as_xyz
1 x,y,z
_cell_length_a                   10.9638(6)
_cell_length_b                   10.9718(15)
_cell_length_c                   10.9814(11)
_cell_angle_alpha                83.227(15)
_cell_angle_beta                 85.937(7)
_cell_angle_gamma                81.093(9)
_cell_volume                     1294.08
loop_
_atom_site_label
_atom_site_type_symbol
_atom_site_fract_x
_atom_site_fract_y
_atom_site_fract_z
_atom_site_U_iso_or_equiv
_atom_site_thermal_displace_type
Co5 Co 0.0807(2) 0.9065(6) 0.2507(2) 0.0247 Uiso
O8 O 0.0943(9) 0.937(3) 0.0643(10) 0.0140 Uiso
O10 O 0.0400(10) 0.899(3) 0.4320(12) 0.0270 Uiso
O13 O 0.0119(11) 0.676(3) 0.0822(13) 0.0380 Uiso
O7 O 0.8289(16) 0.148(4) 0.3595(17) 0.0740 Uiso
H9 H 0.773(7) 0.116(14) 0.311(18) 0.0880 Uiso
C15 C 0.764(3) 0.256(4) 0.411(4) 0.1410 Uiso
H10 H 0.7537 0.3248 0.3472 0.2110 Uiso
H11 H 0.6844 0.2397 0.4444 0.2110 Uiso
H12 H 0.8106 0.2768 0.4741 0.2110 Uiso
Co8 Co 0.1445(2) 0.0043(6) 0.5100(2) 0.0235 Uiso
N9 N 0.0894(9) 0.100(3) 0.2557(14) 0.0350 Uiso
O11 O 0.9600(10) 0.101(3) 0.5680(12) 0.0270 Uiso
O12 O 0.6822(10) 0.049(3) 0.5660(11) 0.0250 Uiso
Co11 Co 0.0352(2) 0.1408(7) 0.9952(3) 0.0268 Uiso
O9 O 0.9057(9) 0.063(3) 0.9357(10) 0.0140 Uiso
Co2 Co 0.8555(2) 0.9957(6) 0.4900(2) 0.0235 Uiso
Co3 Co 0.9648(2) 0.8592(7) 0.0048(3) 0.0268 Uiso
C1 C 0.6885(11) 0.916(4) 0.2940(12) 0.0280 Uiso
C2 C 0.7097(11) 0.903(4) 0.1704(12) 0.0230 Uiso
C3 C 0.6158(12) 0.892(4) 0.0964(16) 0.0340 Uiso
H1 H 0.6320 0.8806 0.0138 0.0410 Uiso
C4 C 0.4973(13) 0.897(4) 0.1496(14) 0.0310 Uiso
H2 H 0.4322 0.8896 0.1024 0.0370 Uiso
C5 C 0.4749(13) 0.913(4) 0.2732(13) 0.0260 Uiso
C6 C 0.5684(12) 0.929(4) 0.3453(16) 0.0400 Uiso
H3 H 0.5513 0.9478 0.4257 0.0480 Uiso
C7 C 0.3434(14) 0.919(4) 0.3328(18) 0.0270 Uiso
C8 C 0.0647(15) 0.295(3) 0.2132(15) 0.0330 Uiso
C9 C 0.0931(14) 0.265(3) 0.3358(15) 0.0320 Uiso
C10 C 0.1035(15) 0.353(3) 0.4126(18) 0.0380 Uiso
H4 H 0.1240 0.3306 0.4937 0.0450 Uiso
C11 C 0.0826(16) 0.477(3) 0.3653(17) 0.0430 Uiso
H5 H 0.0867 0.5393 0.4154 0.0520 Uiso
C12 C 0.0556(15) 0.509(3) 0.2426(18) 0.0330 Uiso
C13 C 0.0418(15) 0.419(3) 0.1684(18) 0.0350 Uiso
H6 H 0.0171 0.4415 0.0886 0.0430 Uiso
C14 C 0.0504(15) 0.642(5) 0.1891(18) 0.0230 Uiso
N1 N 0.7985(10) 0.927(3) 0.3375(12) 0.0250 Uiso
N2 N 0.8810(10) 0.917(2) 0.2446(10) 0.0210 Uiso
N3 N 0.8306(10) 0.902(3) 0.1419(11) 0.0220 Uiso
N4 N 0.0618(11) 0.189(3) 0.1660(15) 0.0350 Uiso
N6 N 0.1112(11) 0.141(3) 0.3591(12) 0.0280 Uiso
H7 H 0.169(8) 0.888(14) 0.035(9) 0.0160 Uiso
H8 H 0.102(11) 0.841(15) 0.476(9) 0.0320 Uiso
O3 O 0.3178(10) 0.951(3) 0.4340(11) 0.0250 Uiso
O4 O 0.2724(11) 0.869(3) 0.2667(12) 0.0380 Uiso
O6 O 0.0819(13) 0.711(4) 0.2581(14) 0.0470 Uiso
N10 N 0.8888(11) 0.859(3) 0.6409(12) 0.0280 Uiso
N8 N 0.9382(11) 0.811(3) 0.8340(15) 0.0350 Uiso
N7 N 0.1190(10) 0.083(2) 0.7554(10) 0.0210 Uiso
Co4 Co 0.9193(2) 0.0935(6) 0.7493(2) 0.0247 Uiso
C1_2 C 0.3115(11) 0.084(4) 0.7060(12) 0.0280 Uiso
C2_2 C 0.2903(11) 0.097(4) 0.8296(12) 0.0230 Uiso
C3_2 C 0.3842(12) 0.108(4) 0.9036(16) 0.0340 Uiso
H1_2 H 0.3680 0.1194 0.9862 0.0410 Uiso
C4_2 C 0.5027(13) 0.103(4) 0.8504(14) 0.0310 Uiso
H2_2 H 0.5678 0.1104 0.8976 0.0370 Uiso
C5_2 C 0.5251(13) 0.087(4) 0.7268(13) 0.0260 Uiso
C6_2 C 0.4316(12) 0.071(4) 0.6547(16) 0.0400 Uiso
H3_2 H 0.4487 0.0522 0.5743 0.0480 Uiso
C7_2 C 0.6566(14) 0.081(4) 0.6672(18) 0.0270 Uiso
C8_2 C 0.9353(15) 0.705(3) 0.7868(15) 0.0330 Uiso
C9_2 C 0.9069(14) 0.735(3) 0.6642(15) 0.0320 Uiso
C10_2 C 0.8965(15) 0.647(3) 0.5874(18) 0.0380 Uiso
H4_2 H 0.8760 0.6694 0.5063 0.0450 Uiso
C11_2 C 0.9174(16) 0.523(3) 0.6347(17) 0.0430 Uiso
H5_2 H 0.9133 0.4607 0.5846 0.0520 Uiso
C12_2 C 0.9444(15) 0.491(3) 0.7574(18) 0.0330 Uiso
C13_2 C 0.9582(15) 0.581(3) 0.8316(18) 0.0350 Uiso
H6_2 H 0.9829 0.5585 0.9114 0.0430 Uiso
C14_2 C 0.9496(15) 0.358(5) 0.8109(18) 0.0230 Uiso
N1_2 N 0.2015(10) 0.073(3) 0.6625(12) 0.0250 Uiso
N3_2 N 0.1694(10) 0.098(3) 0.8581(11) 0.0220 Uiso
N5 N 0.9106(9) 0.900(3) 0.7443(14) 0.0350 Uiso
H7_2 H 0.831(8) 0.112(14) 0.965(9) 0.0160 Uiso
H8_2 H 0.898(11) 0.159(15) 0.524(9) 0.0320 Uiso
O4_2 O 0.7276(11) 0.131(3) 0.7333(12) 0.0380 Uiso
O5 O 0.9881(11) 0.324(3) 0.9178(13) 0.0380 Uiso
O6_2 O 0.9181(13) 0.289(4) 0.7419(14) 0.0470 Uiso
O7_2 O 0.1711(16) 0.852(4) 0.6405(17) 0.0740 Uiso
H9_2 H 0.227(7) 0.884(14) 0.689(18) 0.0880 Uiso
C15_2 C 0.236(3) 0.744(4) 0.589(4) 0.1410 Uiso
H10_2 H 0.2463 0.6752 0.6528 0.2110 Uiso
H11_2 H 0.3156 0.7603 0.5556 0.2110 Uiso
H12_2 H 0.1894 0.7232 0.5259 0.2110 Uiso
loop_
_geom_bond_atom_site_label_1
_geom_bond_atom_site_label_2
_geom_bond_site_symmetry_1
_geom_bond_site_symmetry_2
Co5 O8 1_555 1_555
Co5 O10 1_555 1_555
H9 O7 1_555 1_555
C15 O7 1_555 1_555
H10 C15 1_555 1_555
H11 C15 1_555 1_555
H12 C15 1_555 1_555
Co2 N1 1_555 1_555
Co3 N3 1_555 1_555
C1 C2 1_555 1_555
C2 C3 1_555 1_555
C3 H1 1_555 1_555
C4 C3 1_555 1_555
H2 C4 1_555 1_555
C5 C4 1_555 1_555
C6 C1 1_555 1_555
H3 C6 1_555 1_555
C7 C5 1_555 1_555
C8 C9 1_555 1_555
C9 C10 1_555 1_555
C10 H4 1_555 1_555
C11 C10 1_555 1_555
H5 C11 1_555 1_555
C12 C11 1_555 1_555
C13 C8 1_555 1_555
H6 C13 1_555 1_555
C14 C12 1_555 1_555
N1 C1 1_555 1_555
N2 N1 1_555 1_555
N3 C2 1_555 1_555
N4 C8 1_555 1_555
N9 N4 1_555 1_555
N6 C9 1_555 1_555
O8 H7 1_555 1_555
H8 O10 1_555 1_555
O3 C7 1_555 1_555
O4 Co5 1_555 1_555
O13 C14 1_555 1_555
O6 Co5 1_555 1_555
Co8 N6 1_555 1_555
N10 Co2 1_555 1_555
C5 C6 1_555 1_555
C7 O4 1_555 1_555
C12 C13 1_555 1_555
C14 O6 1_555 1_555
N2 N3 1_555 1_555
N9 N6 1_555 1_555
Co4 O9 1_555 1_555
Co8 N1_2 1_555 1_555
Co11 N3_2 1_555 1_555
C1_2 C2_2 1_555 1_555
C2_2 C3_2 1_555 1_555
C3_2 H1_2 1_555 1_555
C4_2 C3_2 1_555 1_555
H2_2 C4_2 1_555 1_555
C5_2 C4_2 1_555 1_555
C6_2 C1_2 1_555 1_555
H3_2 C6_2 1_555 1_555
C7_2 C5_2 1_555 1_555
C8_2 C9_2 1_555 1_555
C9_2 C10_2 1_555 1_555
C10_2 H4_2 1_555 1_555
C11_2 C10_2 1_555 1_555
H5_2 C11_2 1_555 1_555
C12_2 C11_2 1_555 1_555
C13_2 C8_2 1_555 1_555
H6_2 C13_2 1_555 1_555
C14_2 C12_2 1_555 1_555
N1_2 C1_2 1_555 1_555
N7 N1_2 1_555 1_555
N3_2 C2_2 1_555 1_555
N8 C8_2 1_555 1_555
N5 N8 1_555 1_555
N10 C9_2 1_555 1_555
O9 H7_2 1_555 1_555
O11 Co4 1_555 1_555
H8_2 O11 1_555 1_555
O12 C7_2 1_555 1_555
O4_2 Co4 1_555 1_555
O5 C14_2 1_555 1_555
O6_2 Co4 1_555 1_555
C5_2 C6_2 1_555 1_555
C7_2 O4_2 1_555 1_555
C12_2 C13_2 1_555 1_555
C14_2 O6_2 1_555 1_555
N7 N3_2 1_555 1_555
N5 N10 1_555 1_555
H9_2 O7_2 1_555 1_555
C15_2 O7_2 1_555 1_555
H10_2 C15_2 1_555 1_555
H11_2 C15_2 1_555 1_555
H12_2 C15_2 1_555 1_555

#END
