
###############################################################################
#
# This file contains modified crystal structure data generated from the
# MOF subset of the Cambridge Structural Database (CSD) v543 
# hosted by the Cambridge Crystallographic Data Centre (CCDC).
#
# This work is licensed under the Creative Commons
# Attribution-NonCommercial-ShareAlike 4.0 International License.
# To view a copy of this license, visit
# http://creativecommons.org/licenses/by-nc-sa/4.0/
# or send a letter to
# Creative Commons, PO Box 1866, Mountain View, CA 94042, USA.
#
# CIF created using the CSD Python API on 29 September 2022
# The structure has been converted into the P1 space group
# The structure has a 3D framework
# The original CSD entry ESUTAP is in the monoclinic crystal system
# The framework has been calculated to contain at least 10.0% void space
# The void calculation uses a probe of radius 1.32A, grid spacing 0.4
#
###############################################################################

data_ESUTAP
_chemical_formula_moiety         '(C64 H64 Co14 N24 O32)n'
_symmetry_cell_setting           triclinic
_symmetry_space_group_name_H-M   'P 1'
_symmetry_Int_Tables_number      1
_space_group_name_Hall           'P 1'
loop_
_symmetry_equiv_pos_site_id
_symmetry_equiv_pos_as_xyz
1 x,y,z
_cell_length_a                   16.894(3)
_cell_length_b                   14.014(3)
_cell_length_c                   11.0033(14)
_cell_angle_alpha                90
_cell_angle_beta                 98.287(12)
_cell_angle_gamma                90
_cell_volume                     2577.86
loop_
_atom_site_label
_atom_site_type_symbol
_atom_site_fract_x
_atom_site_fract_y
_atom_site_fract_z
Co2 Co 0.0000 0.0914(3) 0.2500
O5 O 0.0244(7) 0.0703(9) 0.4337(11)
H12 H 0.053(9) 0.129(6) 0.452(13)
N7 N 0.1266(8) 0.0191(10) 0.6420(13)
O13 O 0.0857(9) 0.1960(12) 0.2465(14)
Co4 Co 0.07661(15) 0.0678(2) 0.9941(2)
C8 C 0.0419(18) 0.740(2) 0.080(3)
H6 H 0.0617 0.6962 0.1444
H7 H 0.0132 0.7061 0.0124
H8 H 0.0859 0.7739 0.0540
Co3 Co 0.07661(15) 0.9322(2) 0.4941(2)
N4 N 0.1342(8) 0.9410(11) 0.3382(13)
N5 N 0.0949(8) 0.9962(10) 0.2474(11)
N6 N 0.1266(8) 0.9809(10) 0.1420(13)
C9 C 0.1921(10) 0.8903(12) 0.2894(13)
C10 C 0.1861(10) 0.9154(12) 0.1670(12)
C11 C 0.2358(10) 0.8751(14) 0.0915(16)
H9 H 0.2315 0.8905 0.0086
C12 C 0.2919(10) 0.8114(13) 0.1456(15)
H10 H 0.3286 0.7859 0.0990
C13 C 0.2956(10) 0.7839(13) 0.2670(14)
C14 C 0.2444(9) 0.8213(12) 0.3400(15)
H11 H 0.2450 0.8008 0.4205
C15 C 0.3621(10) 0.7139(14) 0.3201(18)
O6 O 0.3582(7) 0.6826(10) 0.4253(12)
O7 O 0.4143(9) 0.6960(12) 0.2535(14)
O8 O 0.0121(9) 0.8090(12) 0.3725(15)
H13 H 0.058(2) 0.772(3) 0.355(7)
Co7 Co 0.42339(15) 0.5678(2) 0.5059(2)
Co9 Co 0.5000 0.5914(3) 0.2500
O12 O 0.1418(7) 0.8174(10) 0.5747(12)
O9 O 0.0244(7) 0.9297(9) 0.9337(11)
Co2_2 Co 1.0000 0.0914(3) 0.2500
O1 O 0.9756(7) 0.0703(9) 0.0663(11)
H4 H 0.947(9) 0.129(6) 0.048(13)
Co5 Co 0.92339(15) 0.0678(2) 0.5059(2)
O14 O 0.9143(9) 0.1960(12) 0.2535(14)
N8 N 0.8734(8) 0.0191(10) 0.8580(13)
Co1 Co 0.92339(15) 0.9322(2) 0.0059(2)
N1 N 0.8658(8) 0.9410(11) 0.1618(13)
N2 N 0.9051(8) 0.9962(10) 0.2526(11)
N3 N 0.8734(8) 0.9809(10) 0.3580(13)
C1 C 0.8079(10) 0.8903(12) 0.2106(13)
C2 C 0.8139(10) 0.9154(12) 0.3330(12)
C3 C 0.7642(10) 0.8751(14) 0.4085(16)
H1 H 0.7685 0.8905 0.4914
C4 C 0.7081(10) 0.8114(13) 0.3544(15)
H2 H 0.6714 0.7859 0.4010
C5 C 0.7044(10) 0.7839(13) 0.2330(14)
C6 C 0.7556(9) 0.8213(12) 0.1600(15)
H3 H 0.7550 0.8008 0.0795
C7 C 0.6379(10) 0.7139(14) 0.1799(18)
O2 O 0.6418(7) 0.6826(10) 0.0747(12)
O3 O 0.5857(9) 0.6960(12) 0.2465(14)
O4 O 0.9879(9) 0.8090(12) 0.1275(15)
H5 H 0.942(2) 0.772(3) 0.145(7)
C16 C 0.9581(18) 0.740(2) 0.420(3)
H14 H 0.9383 0.6962 0.3556
H15 H 0.9868 0.7061 0.4876
H16 H 0.9141 0.7739 0.4460
O10 O 0.9756(7) 0.9297(9) 0.5663(11)
Co6 Co 0.57661(15) 0.5678(2) 0.9941(2)
O11 O 0.8582(7) 0.8174(10) 0.9253(12)
Co1_2 Co 0.42339(15) 0.4322(2) 0.0059(2)
N1_2 N 0.3658(8) 0.4410(11) 0.1618(13)
N2_2 N 0.4051(8) 0.4962(10) 0.2526(11)
N3_2 N 0.3734(8) 0.4809(10) 0.3580(13)
C1_2 C 0.3079(10) 0.3903(12) 0.2106(13)
C2_2 C 0.3139(10) 0.4154(12) 0.3330(12)
C3_2 C 0.2642(10) 0.3751(14) 0.4085(16)
H1_2 H 0.2685 0.3905 0.4914
C4_2 C 0.2081(10) 0.3114(13) 0.3544(15)
H2_2 H 0.1714 0.2859 0.4010
C5_2 C 0.2044(10) 0.2839(13) 0.2330(14)
C6_2 C 0.2556(9) 0.3213(12) 0.1600(15)
H3_2 H 0.2550 0.3008 0.0795
C7_2 C 0.1379(10) 0.2139(14) 0.1799(18)
O1_2 O 0.4756(7) 0.5703(9) 0.0663(11)
H4_2 H 0.447(9) 0.629(6) 0.048(13)
O2_2 O 0.1418(7) 0.1826(10) 0.0747(12)
O4_2 O 0.4879(9) 0.3090(12) 0.1275(15)
H5_2 H 0.442(2) 0.272(3) 0.145(7)
C8_2 C 0.5419(18) 0.240(2) 0.080(3)
H6_2 H 0.5617 0.1962 0.1444
H7_2 H 0.5132 0.2061 0.0124
H8_2 H 0.5859 0.2739 0.0540
Co3_2 Co 0.57661(15) 0.4322(2) 0.4941(2)
N4_2 N 0.6342(8) 0.4410(11) 0.3382(13)
N5_2 N 0.5949(8) 0.4962(10) 0.2474(11)
N6_2 N 0.6266(8) 0.4809(10) 0.1420(13)
C9_2 C 0.6921(10) 0.3903(12) 0.2894(13)
C10_2 C 0.6861(10) 0.4154(12) 0.1670(12)
C11_2 C 0.7358(10) 0.3751(14) 0.0915(16)
H9_2 H 0.7315 0.3905 0.0086
C12_2 C 0.7919(10) 0.3114(13) 0.1456(15)
H10_2 H 0.8286 0.2859 0.0990
C13_2 C 0.7956(10) 0.2839(13) 0.2670(14)
C14_2 C 0.7444(9) 0.3213(12) 0.3400(15)
H11_2 H 0.7450 0.3008 0.4205
C15_2 C 0.8621(10) 0.2139(14) 0.3201(18)
O5_2 O 0.5244(7) 0.5703(9) 0.4337(11)
H12_2 H 0.553(9) 0.629(6) 0.452(13)
O6_2 O 0.8582(7) 0.1826(10) 0.4253(12)
O8_2 O 0.5121(9) 0.3090(12) 0.3725(15)
H13_2 H 0.558(2) 0.272(3) 0.355(7)
C16_2 C 0.4581(18) 0.240(2) 0.420(3)
H14_2 H 0.4383 0.1962 0.3556
H15_2 H 0.4868 0.2061 0.4876
H16_2 H 0.4141 0.2739 0.4460
N7_2 N 0.6266(8) 0.5191(10) 0.6420(13)
O10_2 O 0.4756(7) 0.4297(9) 0.5663(11)
O12_2 O 0.6418(7) 0.3174(10) 0.5747(12)
N8_2 N 0.3734(8) 0.5191(10) 0.8580(13)
O9_2 O 0.5244(7) 0.4297(9) 0.9337(11)
O11_2 O 0.3582(7) 0.3174(10) 0.9253(12)
N1_3 N 0.1342(8) 0.0590(11) 0.8382(13)
N2_3 N 0.0949(8) 0.0038(10) 0.7474(11)
C1_3 C 0.1921(10) 0.1097(12) 0.7894(13)
C2_3 C 0.1861(10) 0.0846(12) 0.6670(12)
C3_3 C 0.2358(10) 0.1249(14) 0.5915(16)
H1_3 H 0.2315 0.1095 0.5086
C4_3 C 0.2919(10) 0.1886(13) 0.6456(15)
H2_3 H 0.3286 0.2141 0.5990
C5_3 C 0.2956(10) 0.2161(13) 0.7670(14)
C6_3 C 0.2444(9) 0.1787(12) 0.8400(15)
H3_3 H 0.2450 0.1992 0.9205
C7_3 C 0.3621(10) 0.2861(14) 0.8201(18)
O3_2 O 0.4143(9) 0.3040(12) 0.7535(14)
O4_3 O 0.0121(9) 0.1910(12) 0.8725(15)
H5_3 H 0.058(2) 0.228(3) 0.855(7)
C16_3 C 0.0419(18) 0.260(2) 0.580(3)
H14_3 H 0.0617 0.3038 0.6444
H15_3 H 0.0132 0.2939 0.5124
H16_3 H 0.0859 0.2261 0.5540
Co8 Co 0.5000 0.4086(3) 0.7500
Co2_3 Co 0.0000 0.9086(3) 0.7500
H4_3 H 0.053(9) 0.871(6) 0.952(13)
O14_2 O 0.0857(9) 0.8040(12) 0.7465(14)
C8_3 C 0.9581(18) 0.260(2) 0.920(3)
H6_3 H 0.9383 0.3038 0.8556
H7_3 H 0.9868 0.2939 0.9876
H8_3 H 0.9141 0.2261 0.9460
N4_3 N 0.8658(8) 0.0590(11) 0.6618(13)
N5_3 N 0.9051(8) 0.0038(10) 0.7526(11)
C9_3 C 0.8079(10) 0.1097(12) 0.7106(13)
C10_3 C 0.8139(10) 0.0846(12) 0.8330(12)
C11_3 C 0.7642(10) 0.1249(14) 0.9085(16)
H9_3 H 0.7685 0.1095 0.9914
C12_3 C 0.7081(10) 0.1886(13) 0.8544(15)
H10_3 H 0.6714 0.2141 0.9010
C13_3 C 0.7044(10) 0.2161(13) 0.7330(14)
C14_3 C 0.7556(9) 0.1787(12) 0.6600(15)
H11_3 H 0.7550 0.1992 0.5795
C15_3 C 0.6379(10) 0.2861(14) 0.6799(18)
O7_2 O 0.5857(9) 0.3040(12) 0.7465(14)
O8_3 O 0.9879(9) 0.1910(12) 0.6275(15)
H13_3 H 0.942(2) 0.228(3) 0.645(7)
Co2_4 Co 1.0000 0.9086(3) 0.7500
H12_3 H 0.947(9) 0.871(6) 0.548(13)
O13_2 O 0.9143(9) 0.8040(12) 0.7535(14)
N1_4 N 0.6342(8) 0.5590(11) 0.8382(13)
N2_4 N 0.5949(8) 0.5038(10) 0.7474(11)
C1_4 C 0.6921(10) 0.6097(12) 0.7894(13)
C2_4 C 0.6861(10) 0.5846(12) 0.6670(12)
C3_4 C 0.7358(10) 0.6249(14) 0.5915(16)
H1_4 H 0.7315 0.6095 0.5086
C4_4 C 0.7919(10) 0.6886(13) 0.6456(15)
H2_4 H 0.8286 0.7141 0.5990
C5_4 C 0.7956(10) 0.7161(13) 0.7670(14)
C6_4 C 0.7444(9) 0.6787(12) 0.8400(15)
H3_4 H 0.7450 0.6992 0.9205
C7_4 C 0.8621(10) 0.7861(14) 0.8201(18)
H4_4 H 0.553(9) 0.371(6) 0.952(13)
O4_4 O 0.5121(9) 0.6910(12) 0.8725(15)
H5_4 H 0.558(2) 0.728(3) 0.855(7)
C8_4 C 0.4581(18) 0.760(2) 0.920(3)
H6_4 H 0.4383 0.8038 0.8556
H7_4 H 0.4868 0.7939 0.9876
H8_4 H 0.4141 0.7261 0.9460
N4_4 N 0.3658(8) 0.5590(11) 0.6618(13)
N5_4 N 0.4051(8) 0.5038(10) 0.7526(11)
C9_4 C 0.3079(10) 0.6097(12) 0.7106(13)
C10_4 C 0.3139(10) 0.5846(12) 0.8330(12)
C11_4 C 0.2642(10) 0.6249(14) 0.9085(16)
H9_4 H 0.2685 0.6095 0.9914
C12_4 C 0.2081(10) 0.6886(13) 0.8544(15)
H10_4 H 0.1714 0.7141 0.9010
C13_4 C 0.2044(10) 0.7161(13) 0.7330(14)
C14_4 C 0.2556(9) 0.6787(12) 0.6600(15)
H11_4 H 0.2550 0.6992 0.5795
C15_4 C 0.1379(10) 0.7861(14) 0.6799(18)
H12_4 H 0.447(9) 0.371(6) 0.548(13)
O8_4 O 0.4879(9) 0.6910(12) 0.6275(15)
H13_4 H 0.442(2) 0.728(3) 0.645(7)
C16_4 C 0.5419(18) 0.760(2) 0.580(3)
H14_4 H 0.5617 0.8038 0.6444
H15_4 H 0.5132 0.7939 0.5124
H16_4 H 0.5859 0.7261 0.5540
loop_
_geom_bond_atom_site_label_1
_geom_bond_atom_site_label_2
_geom_bond_site_symmetry_1
_geom_bond_site_symmetry_2
O5 Co2 1_555 1_555
H12 O5 1_555 1_555
O13 Co2 1_555 1_555
H6 C8 1_555 1_555
H7 C8 1_555 1_555
H8 C8 1_555 1_555
Co3 N4 1_555 1_555
N4 N5 1_555 1_555
N6 N5 1_555 1_555
C9 N4 1_555 1_555
C10 N6 1_555 1_555
C11 C10 1_555 1_555
H9 C11 1_555 1_555
C12 C11 1_555 1_555
H10 C12 1_555 1_555
C13 C12 1_555 1_555
C14 C9 1_555 1_555
H11 C14 1_555 1_555
C15 C13 1_555 1_555
O6 C15 1_555 1_555
O7 C15 1_555 1_555
O8 Co3 1_555 1_555
H13 O8 1_555 1_555
Co7 O6 1_555 1_555
Co9 O7 1_555 1_555
O12 Co3 1_555 1_555
C9 C10 1_555 1_555
C13 C14 1_555 1_555
H4 O1 1_555 1_555
O14 Co2_2 1_555 1_555
Co2_2 O1 1_555 1_555
Co1 N1 1_555 1_555
N1 N2 1_555 1_555
N2 N3 1_555 1_555
N3 C2 1_555 1_555
C1 N1 1_555 1_555
C2 C1 1_555 1_555
C3 C2 1_555 1_555
H1 C3 1_555 1_555
C4 C3 1_555 1_555
H2 C4 1_555 1_555
C5 C4 1_555 1_555
C6 C1 1_555 1_555
H3 C6 1_555 1_555
C7 C5 1_555 1_555
O2 C7 1_555 1_555
O3 C7 1_555 1_555
O4 Co1 1_555 1_555
H5 O4 1_555 1_555
H14 C16 1_555 1_555
H15 C16 1_555 1_555
H16 C16 1_555 1_555
Co9 O3 1_555 1_555
C5 C6 1_555 1_555
Co1_2 N1_2 1_555 1_555
Co9 N2_2 1_555 1_555
N1_2 N2_2 1_555 1_555
N2_2 N3_2 1_555 1_555
N3_2 C2_2 1_555 1_555
C1_2 N1_2 1_555 1_555
C2_2 C1_2 1_555 1_555
C3_2 C2_2 1_555 1_555
H1_2 C3_2 1_555 1_555
C4_2 C3_2 1_555 1_555
H2_2 C4_2 1_555 1_555
C5_2 C4_2 1_555 1_555
C6_2 C1_2 1_555 1_555
H3_2 C6_2 1_555 1_555
C7_2 C5_2 1_555 1_555
O1_2 Co1_2 1_555 1_555
H4_2 O1_2 1_555 1_555
O2_2 C7_2 1_555 1_555
O13 C7_2 1_555 1_555
O4_2 Co1_2 1_555 1_555
H5_2 O4_2 1_555 1_555
C8_2 O4_2 1_555 1_555
H6_2 C8_2 1_555 1_555
H7_2 C8_2 1_555 1_555
H8_2 C8_2 1_555 1_555
Co3_2 N4_2 1_555 1_555
N4_2 N5_2 1_555 1_555
N5_2 Co9 1_555 1_555
N6_2 N5_2 1_555 1_555
C9_2 N4_2 1_555 1_555
C10_2 N6_2 1_555 1_555
C11_2 C10_2 1_555 1_555
H9_2 C11_2 1_555 1_555
C12_2 C11_2 1_555 1_555
H10_2 C12_2 1_555 1_555
C13_2 C12_2 1_555 1_555
C14_2 C9_2 1_555 1_555
H11_2 C14_2 1_555 1_555
C15_2 C13_2 1_555 1_555
O5_2 Co9 1_555 1_555
H12_2 O5_2 1_555 1_555
O6_2 C15_2 1_555 1_555
O14 C15_2 1_555 1_555
O8_2 Co3_2 1_555 1_555
H13_2 O8_2 1_555 1_555
C16_2 O8_2 1_555 1_555
H14_2 C16_2 1_555 1_555
H15_2 C16_2 1_555 1_555
H16_2 C16_2 1_555 1_555
Co7 N3_2 1_555 1_555
Co5 O6_2 1_555 1_555
N7_2 Co3_2 1_555 1_555
O10_2 Co3_2 1_555 1_555
O12_2 Co3_2 1_555 1_555
Co9 O1_2 1_555 1_555
C5_2 C6_2 1_555 1_555
Co3_2 O5_2 1_555 1_555
C9_2 C10_2 1_555 1_555
C13_2 C14_2 1_555 1_555
O5_2 Co7 1_555 1_555
Co7 O10_2 1_555 1_555
Co6 O9_2 1_555 1_555
Co4 N1_3 1_555 1_555
N1_3 N2_3 1_555 1_555
N2_3 N7 1_555 1_555
N7 C2_3 1_555 1_555
C1_3 N1_3 1_555 1_555
C2_3 C1_3 1_555 1_555
C3_3 C2_3 1_555 1_555
H1_3 C3_3 1_555 1_555
C4_3 C3_3 1_555 1_555
H2_3 C4_3 1_555 1_555
C5_3 C4_3 1_555 1_555
C6_3 C1_3 1_555 1_555
H3_3 C6_3 1_555 1_555
C7_3 C5_3 1_555 1_555
O11_2 C7_3 1_555 1_555
O3_2 C7_3 1_555 1_555
O4_3 Co4 1_555 1_555
H5_3 O4_3 1_555 1_555
H14_3 C16_3 1_555 1_555
H15_3 C16_3 1_555 1_555
H16_3 C16_3 1_555 1_555
Co8 O3_2 1_555 1_555
C5_3 C6_3 1_555 1_555
H4_3 O9 1_555 1_555
O14_2 Co2_3 1_555 1_555
Co2_3 O9 1_555 1_555
H6_3 C8_3 1_555 1_555
H7_3 C8_3 1_555 1_555
H8_3 C8_3 1_555 1_555
Co5 N4_3 1_555 1_555
N4_3 N5_3 1_555 1_555
N8 N5_3 1_555 1_555
C9_3 N4_3 1_555 1_555
C10_3 N8 1_555 1_555
C11_3 C10_3 1_555 1_555
H9_3 C11_3 1_555 1_555
C12_3 C11_3 1_555 1_555
H10_3 C12_3 1_555 1_555
C13_3 C12_3 1_555 1_555
C14_3 C9_3 1_555 1_555
H11_3 C14_3 1_555 1_555
C15_3 C13_3 1_555 1_555
O12_2 C15_3 1_555 1_555
O7_2 C15_3 1_555 1_555
O8_3 Co5 1_555 1_555
H13_3 O8_3 1_555 1_555
Co8 O7_2 1_555 1_555
C9_3 C10_3 1_555 1_555
C13_3 C14_3 1_555 1_555
O10 Co2_4 1_555 1_555
H12_3 O10 1_555 1_555
O13_2 Co2_4 1_555 1_555
Co6 N1_4 1_555 1_555
Co8 N2_4 1_555 1_555
N1_4 N2_4 1_555 1_555
N2_4 N7_2 1_555 1_555
N7_2 C2_4 1_555 1_555
C1_4 N1_4 1_555 1_555
C2_4 C1_4 1_555 1_555
C3_4 C2_4 1_555 1_555
H1_4 C3_4 1_555 1_555
C4_4 C3_4 1_555 1_555
H2_4 C4_4 1_555 1_555
C5_4 C4_4 1_555 1_555
C6_4 C1_4 1_555 1_555
H3_4 C6_4 1_555 1_555
C7_4 C5_4 1_555 1_555
H4_4 O9_2 1_555 1_555
O11 C7_4 1_555 1_555
O13_2 C7_4 1_555 1_555
O4_4 Co6 1_555 1_555
H5_4 O4_4 1_555 1_555
C8_4 O4_4 1_555 1_555
H6_4 C8_4 1_555 1_555
H7_4 C8_4 1_555 1_555
H8_4 C8_4 1_555 1_555
Co7 N4_4 1_555 1_555
N4_4 N5_4 1_555 1_555
N5_4 Co8 1_555 1_555
N8_2 N5_4 1_555 1_555
C9_4 N4_4 1_555 1_555
C10_4 N8_2 1_555 1_555
C11_4 C10_4 1_555 1_555
H9_4 C11_4 1_555 1_555
C12_4 C11_4 1_555 1_555
H10_4 C12_4 1_555 1_555
C13_4 C12_4 1_555 1_555
C14_4 C9_4 1_555 1_555
H11_4 C14_4 1_555 1_555
C15_4 C13_4 1_555 1_555
O10_2 Co8 1_555 1_555
H12_4 O10_2 1_555 1_555
O12 C15_4 1_555 1_555
O14_2 C15_4 1_555 1_555
O8_4 Co7 1_555 1_555
H13_4 O8_4 1_555 1_555
C16_4 O8_4 1_555 1_555
H14_4 C16_4 1_555 1_555
H15_4 C16_4 1_555 1_555
H16_4 C16_4 1_555 1_555
Co8 O9_2 1_555 1_555
C5_4 C6_4 1_555 1_555
C9_4 C10_4 1_555 1_555
C13_4 C14_4 1_555 1_555

#END
