
###############################################################################
#
# This file contains modified crystal structure data generated from the
# MOF subset of the Cambridge Structural Database (CSD) v543 
# hosted by the Cambridge Crystallographic Data Centre (CCDC).
#
# This work is licensed under the Creative Commons
# Attribution-NonCommercial-ShareAlike 4.0 International License.
# To view a copy of this license, visit
# http://creativecommons.org/licenses/by-nc-sa/4.0/
# or send a letter to
# Creative Commons, PO Box 1866, Mountain View, CA 94042, USA.
#
# CIF created using the CSD Python API on 29 September 2022
# The structure has been converted into the P1 space group
# The structure has a 3D framework
# The original CSD entry ESUTIX is in the monoclinic crystal system
# The framework has been calculated to contain at least 10.0% void space
# The void calculation uses a probe of radius 1.32A, grid spacing 0.4
#
###############################################################################

data_ESUTIX
_chemical_formula_moiety         '(C176 H128 Co34 N72 O80)n'
_symmetry_cell_setting           triclinic
_symmetry_space_group_name_H-M   'P 1'
_symmetry_Int_Tables_number      1
_space_group_name_Hall           'P 1'
loop_
_symmetry_equiv_pos_site_id
_symmetry_equiv_pos_as_xyz
1 x,y,z
_cell_length_a                   16.8014(10)
_cell_length_b                   14.1730(10)
_cell_length_c                   33.1813(18)
_cell_angle_alpha                90
_cell_angle_beta                 96.641(4)
_cell_angle_gamma                90
_cell_volume                     7848.32
loop_
_atom_site_label
_atom_site_type_symbol
_atom_site_fract_x
_atom_site_fract_y
_atom_site_fract_z
Co2 Co 0.00688(9) 0.09479(12) 0.41734(5)
Co5 Co 0.09000(9) 0.06817(12) 0.33554(5)
C1 C 0.1882(7) 0.1368(10) 0.2639(4)
C2 C 0.1869(7) 0.1118(10) 0.2238(4)
C3 C 0.2372(6) 0.1512(9) 0.1963(4)
H1 H 0.2348 0.1339 0.1692
C4 C 0.2907(7) 0.2187(9) 0.2147(4)
H2 H 0.3246 0.2504 0.1990
C5 C 0.2941(6) 0.2400(9) 0.2570(4)
C6 C 0.2428(7) 0.2007(9) 0.2816(4)
H3 H 0.2450 0.2165 0.3089
C7 C 0.3599(6) 0.3090(9) 0.2739(4)
C8 C 0.3159(7) 0.3977(9) 0.4041(4)
C9 C 0.3164(6) 0.4195(9) 0.4444(4)
C10 C 0.2674(6) 0.3801(9) 0.4699(4)
H4 H 0.2705 0.3961 0.4972
C11 C 0.2124(7) 0.3141(10) 0.4522(4)
H5 H 0.1757 0.2876 0.4678
C12 C 0.2108(7) 0.2869(9) 0.4120(4)
C13 C 0.2605(6) 0.3280(9) 0.3881(4)
H6 H 0.2585 0.3104 0.3610
C14 C 0.1484(7) 0.2153(9) 0.3949(4)
N1 N 0.1294(6) 0.0815(8) 0.2800(3)
N2 N 0.0944(5) 0.0307(7) 0.2495(3)
N3 N 0.1254(5) 0.0478(7) 0.2154(3)
N4 N 0.3723(6) 0.4510(8) 0.3875(3)
N5 N 0.4056(5) 0.5036(7) 0.4184(3)
N6 N 0.3738(5) 0.4915(7) 0.4534(3)
O3 O 0.0293(4) 0.0688(6) 0.4776(2)
O4 O 0.3537(4) 0.3464(6) 0.3080(2)
O5 O 0.4143(5) 0.3262(7) 0.2520(2)
O6 O 0.1532(4) 0.1830(6) 0.3603(2)
O7 O 0.0983(5) 0.1940(6) 0.4183(2)
H10 H 0.069(5) 0.103(7) 0.495(2)
C22 C 0.0347(10) 0.2588(11) 0.5320(5)
H14 H 0.0611 0.2924 0.5549
H15 H 0.0733 0.2408 0.5143
O12 O 0.0146(4) 0.0863(6) 0.1444(2)
H28 H 0.044(6) 0.143(4) 0.153(3)
Co11 Co 0.5000 0.42944(18) 0.2500
Co13 Co 0.50688(9) 0.59479(12) 0.41734(5)
Co17 Co 0.42549(9) 0.57049(12) 0.50288(5)
Co22 Co 0.41897(9) 0.45850(12) 0.33322(5)
N22 N 0.0944(5) 0.0036(7) 0.0816(3)
O28 O 0.1345(5) 0.1876(7) 0.0215(3)
O30 O 0.0723(4) 0.2072(6) 0.0773(2)
Co7 Co 0.07451(9) 0.07049(12) 0.99712(5)
O20 O 0.0032(6) 0.1754(8) 0.9540(3)
H29 H 0.012(6) 0.187(4) 0.9258(11)
H32 H 0.0052 0.2987 0.9823
N26 N 0.1367(5) 0.0589(7) 0.9465(3)
Co1 Co -0.0000 0.92944(18) 0.2500
C15 C 0.1966(7) 0.9168(10) 0.3914(4)
C16 C 0.1989(7) 0.8898(9) 0.4316(4)
C17 C 0.3063(7) 0.8148(10) 0.3841(4)
H7 H 0.3441 0.7889 0.3690
C18 C 0.3081(8) 0.7920(11) 0.4268(4)
C19 C 0.2519(7) 0.8275(9) 0.4492(4)
H8 H 0.2504 0.8089 0.4759
C20 C 0.2497(6) 0.8736(9) 0.3664(4)
H9 H 0.2454 0.8856 0.3386
C21 C 0.3713(6) 0.7220(9) 0.4443(4)
N7 N 0.1374(5) 0.9785(8) 0.3812(3)
N8 N 0.1017(5) 0.9897(7) 0.4150(3)
N9 N 0.1367(5) 0.9411(7) 0.4465(3)
O1 O 0.0237(4) 0.9406(6) 0.3117(2)
O8 O 0.3655(5) 0.6876(7) 0.4785(3)
O9 O 0.4277(4) 0.7072(6) 0.4227(2)
H11 H 0.027(6) 0.877(3) 0.322(3)
Co8 Co 0.08103(9) 0.95850(12) 0.16678(5)
Co20 Co 0.07451(9) 0.92951(12) 0.49712(5)
N20 N 0.1277(6) 0.9510(8) 0.1125(3)
N24 N 0.1262(5) 0.9915(7) 0.0466(3)
O24 O 0.1463(4) 0.8464(6) 0.1920(2)
O26 O 0.0857(5) 0.8262(7) 0.2480(2)
O22 O 0.0293(4) 0.9312(6) 0.9776(2)
Co3 Co 0.92549(9) 0.07049(12) 0.50288(5)
O2 O 0.9854(4) 0.0863(6) 0.3556(2)
H12 H 0.956(6) 0.143(4) 0.347(3)
O10 O 0.9968(6) 0.1754(8) 0.5460(3)
H13 H 0.988(6) 0.187(4) 0.5742(11)
H16 H 0.9948 0.2987 0.5177
Co6 Co 0.99312(9) 0.09479(12) 0.08266(5)
Co9 Co 0.91000(9) 0.06817(12) 0.16446(5)
C23 C 0.8118(7) 0.1368(10) 0.2361(4)
C24 C 0.8131(7) 0.1118(10) 0.2762(4)
C25 C 0.7628(6) 0.1512(9) 0.3037(4)
H17 H 0.7652 0.1339 0.3308
C26 C 0.7093(7) 0.2187(9) 0.2853(4)
H18 H 0.6754 0.2504 0.3010
C27 C 0.7059(6) 0.2400(9) 0.2430(4)
C28 C 0.7572(7) 0.2007(9) 0.2184(4)
H19 H 0.7550 0.2165 0.1911
C29 C 0.6401(6) 0.3090(9) 0.2261(4)
C30 C 0.6841(7) 0.3977(9) 0.0959(4)
C31 C 0.6836(6) 0.4195(9) 0.0556(4)
C32 C 0.7326(6) 0.3801(9) 0.0301(4)
H20 H 0.7295 0.3961 0.0028
C33 C 0.7876(7) 0.3141(10) 0.0478(4)
H21 H 0.8243 0.2876 0.0322
C34 C 0.7892(7) 0.2869(9) 0.0880(4)
C35 C 0.7395(6) 0.3280(9) 0.1119(4)
H22 H 0.7415 0.3104 0.1390
C36 C 0.8516(7) 0.2153(9) 0.1051(4)
N10 N 0.8706(6) 0.0815(8) 0.2200(3)
N11 N 0.9056(5) 0.0307(7) 0.2505(3)
N12 N 0.8746(5) 0.0478(7) 0.2846(3)
N13 N 0.6277(6) 0.4510(8) 0.1125(3)
N14 N 0.5944(5) 0.5036(7) 0.0816(3)
N15 N 0.6262(5) 0.4915(7) 0.0466(3)
O13 O 0.9707(4) 0.0688(6) 0.0224(2)
O14 O 0.6463(4) 0.3464(6) 0.1920(2)
O15 O 0.5857(5) 0.3262(7) 0.2480(2)
O16 O 0.8468(4) 0.1830(6) 0.1397(2)
O17 O 0.9017(5) 0.1940(6) 0.0817(2)
H26 H 0.931(5) 0.103(7) 0.005(2)
Co15 Co 0.49312(9) 0.59479(12) 0.08266(5)
Co23 Co 0.58103(9) 0.45850(12) 0.16678(5)
N21 N 0.9056(5) 0.0036(7) 0.4184(3)
N25 N 0.8633(5) 0.0589(7) 0.5535(3)
O27 O 0.8655(5) 0.1876(7) 0.4785(3)
O29 O 0.9277(4) 0.2072(6) 0.4227(2)
C44 C 0.9653(10) 0.2588(11) 0.9680(5)
H30 H 0.9389 0.2924 0.9451
H31 H 0.9267 0.2408 0.9857
Co19 Co 0.57451(9) 0.57049(12) 0.99712(5)
Co1_2 Co 1.0000 0.92944(18) 0.2500
Co4 Co 0.91897(9) 0.95850(12) 0.33322(5)
C37 C 0.8034(7) 0.9168(10) 0.1086(4)
C38 C 0.8011(7) 0.8898(9) 0.0684(4)
C39 C 0.6937(7) 0.8148(10) 0.1159(4)
H23 H 0.6559 0.7889 0.1310
C40 C 0.6919(8) 0.7920(11) 0.0732(4)
C41 C 0.7481(7) 0.8275(9) 0.0508(4)
H24 H 0.7496 0.8089 0.0241
C42 C 0.7503(6) 0.8736(9) 0.1336(4)
H25 H 0.7546 0.8856 0.1614
C43 C 0.6287(6) 0.7220(9) 0.0557(4)
N16 N 0.8626(5) 0.9785(8) 0.1188(3)
N17 N 0.8983(5) 0.9897(7) 0.0850(3)
N18 N 0.8633(5) 0.9411(7) 0.0535(3)
O11 O 0.9763(4) 0.9406(6) 0.1883(2)
O18 O 0.6345(5) 0.6876(7) 0.0215(3)
O19 O 0.5723(4) 0.7072(6) 0.0773(2)
H27 H 0.973(6) 0.877(3) 0.178(3)
Co21 Co 0.92549(9) 0.92951(12) 0.00288(5)
N19 N 0.8723(6) 0.9510(8) 0.3875(3)
N23 N 0.8738(5) 0.9915(7) 0.4534(3)
O21 O 0.9707(4) 0.9312(6) 0.5224(2)
O23 O 0.8537(4) 0.8464(6) 0.3080(2)
O25 O 0.9143(5) 0.8262(7) 0.2520(2)
Co5_2 Co 0.59000(9) 0.56817(12) 0.33554(5)
C1_2 C 0.6882(7) 0.6368(10) 0.2639(4)
C2_2 C 0.6869(7) 0.6118(10) 0.2238(4)
C3_2 C 0.7372(6) 0.6512(9) 0.1963(4)
H1_2 H 0.7348 0.6339 0.1692
C4_2 C 0.7907(7) 0.7187(9) 0.2147(4)
H2_2 H 0.8246 0.7504 0.1990
C5_2 C 0.7941(6) 0.7400(9) 0.2570(4)
C6_2 C 0.7428(7) 0.7007(9) 0.2816(4)
H3_2 H 0.7450 0.7165 0.3089
C7_2 C 0.8599(6) 0.8090(9) 0.2739(4)
C8_2 C 0.8159(7) 0.8977(9) 0.4041(4)
C9_2 C 0.8164(6) 0.9195(9) 0.4444(4)
C10_2 C 0.7674(6) 0.8801(9) 0.4699(4)
H4_2 H 0.7705 0.8961 0.4972
C11_2 C 0.7124(7) 0.8141(10) 0.4522(4)
H5_2 H 0.6757 0.7876 0.4678
C12_2 C 0.7108(7) 0.7869(9) 0.4120(4)
C13_2 C 0.7605(6) 0.8280(9) 0.3881(4)
H6_2 H 0.7585 0.8104 0.3610
C14_2 C 0.6484(7) 0.7153(9) 0.3949(4)
C15_2 C 0.6966(7) 0.4168(10) 0.3914(4)
C16_2 C 0.6989(7) 0.3898(9) 0.4316(4)
C17_2 C 0.8063(7) 0.3148(10) 0.3841(4)
H7_2 H 0.8441 0.2889 0.3690
C18_2 C 0.8081(8) 0.2920(11) 0.4268(4)
C19_2 C 0.7519(7) 0.3275(9) 0.4492(4)
H8_2 H 0.7504 0.3089 0.4759
C20_2 C 0.7497(6) 0.3736(9) 0.3664(4)
H9_2 H 0.7454 0.3856 0.3386
C21_2 C 0.8713(6) 0.2220(9) 0.4443(4)
N1_2 N 0.6294(6) 0.5815(8) 0.2800(3)
N2_2 N 0.5944(5) 0.5307(7) 0.2495(3)
N3_2 N 0.6254(5) 0.5478(7) 0.2154(3)
N7_2 N 0.6374(5) 0.4785(8) 0.3812(3)
N8_2 N 0.6017(5) 0.4897(7) 0.4150(3)
N9_2 N 0.6367(5) 0.4411(7) 0.4465(3)
O1_2 O 0.5237(4) 0.4406(6) 0.3117(2)
O2_2 O 0.4854(4) 0.5863(6) 0.3556(2)
O3_2 O 0.5293(4) 0.5688(6) 0.4776(2)
O6_2 O 0.6532(4) 0.6830(6) 0.3603(2)
O7_2 O 0.5983(5) 0.6940(6) 0.4183(2)
H10_2 H 0.569(5) 0.603(7) 0.495(2)
H11_2 H 0.527(6) 0.377(3) 0.322(3)
H12_2 H 0.456(6) 0.643(4) 0.347(3)
O10_2 O 0.4968(6) 0.6754(8) 0.5460(3)
H13_2 H 0.488(6) 0.687(4) 0.5742(11)
C22_2 C 0.5347(10) 0.7588(11) 0.5320(5)
H14_2 H 0.5611 0.7924 0.5549
H15_2 H 0.5733 0.7408 0.5143
H16_2 H 0.4948 0.7987 0.5177
Co9_2 Co 0.41000(9) 0.56817(12) 0.16446(5)
C23_2 C 0.3118(7) 0.6368(10) 0.2361(4)
C24_2 C 0.3131(7) 0.6118(10) 0.2762(4)
C25_2 C 0.2628(6) 0.6512(9) 0.3037(4)
H17_2 H 0.2652 0.6339 0.3308
C26_2 C 0.2093(7) 0.7187(9) 0.2853(4)
H18_2 H 0.1754 0.7504 0.3010
C27_2 C 0.2059(6) 0.7400(9) 0.2430(4)
C28_2 C 0.2572(7) 0.7007(9) 0.2184(4)
H19_2 H 0.2550 0.7165 0.1911
C29_2 C 0.1401(6) 0.8090(9) 0.2261(4)
C30_2 C 0.1841(7) 0.8977(9) 0.0959(4)
C31_2 C 0.1836(6) 0.9195(9) 0.0556(4)
C32_2 C 0.2326(6) 0.8801(9) 0.0301(4)
H20_2 H 0.2295 0.8961 0.0028
C33_2 C 0.2876(7) 0.8141(10) 0.0478(4)
H21_2 H 0.3243 0.7876 0.0322
C34_2 C 0.2892(7) 0.7869(9) 0.0880(4)
C35_2 C 0.2395(6) 0.8280(9) 0.1119(4)
H22_2 H 0.2415 0.8104 0.1390
C36_2 C 0.3516(7) 0.7153(9) 0.1051(4)
C37_2 C 0.3034(7) 0.4168(10) 0.1086(4)
C38_2 C 0.3011(7) 0.3898(9) 0.0684(4)
C39_2 C 0.1937(7) 0.3148(10) 0.1159(4)
H23_2 H 0.1559 0.2889 0.1310
C40_2 C 0.1919(8) 0.2920(11) 0.0732(4)
C41_2 C 0.2481(7) 0.3275(9) 0.0508(4)
H24_2 H 0.2496 0.3089 0.0241
C42_2 C 0.2503(6) 0.3736(9) 0.1336(4)
H25_2 H 0.2546 0.3856 0.1614
C43_2 C 0.1287(6) 0.2220(9) 0.0557(4)
N10_2 N 0.3706(6) 0.5815(8) 0.2200(3)
N11_2 N 0.4056(5) 0.5307(7) 0.2505(3)
N12_2 N 0.3746(5) 0.5478(7) 0.2846(3)
N16_2 N 0.3626(5) 0.4785(8) 0.1188(3)
N17_2 N 0.3983(5) 0.4897(7) 0.0850(3)
N18_2 N 0.3633(5) 0.4411(7) 0.0535(3)
O11_2 O 0.4763(4) 0.4406(6) 0.1883(2)
O12_2 O 0.5146(4) 0.5863(6) 0.1444(2)
O13_2 O 0.4707(4) 0.5688(6) 0.0224(2)
O16_2 O 0.3468(4) 0.6830(6) 0.1397(2)
O17_2 O 0.4017(5) 0.6940(6) 0.0817(2)
H26_2 H 0.431(5) 0.603(7) 0.005(2)
H27_2 H 0.473(6) 0.377(3) 0.178(3)
H28_2 H 0.544(6) 0.643(4) 0.153(3)
Co20_2 Co 0.57451(9) 0.42951(12) 0.49712(5)
Co21_2 Co 0.42549(9) 0.42951(12) 0.00288(5)
N25_2 N 0.3633(5) 0.5589(7) 0.5535(3)
O21_2 O 0.4707(4) 0.4312(6) 0.5224(2)
O20_2 O 0.5032(6) 0.6754(8) 0.9540(3)
H29_2 H 0.512(6) 0.687(4) 0.9258(11)
C44_2 C 0.4653(10) 0.7588(11) 0.9680(5)
H30_2 H 0.4389 0.7924 0.9451
H31_2 H 0.4267 0.7408 0.9857
H32_2 H 0.5052 0.7987 0.9823
N26_2 N 0.6367(5) 0.5589(7) 0.9465(3)
O22_2 O 0.5293(4) 0.4312(6) 0.9776(2)
Co1_3 Co -0.0000 0.07056(18) 0.7500
Co4_2 Co 0.08103(9) 0.04150(12) 0.66678(5)
C37_3 C 0.1966(7) 0.0832(10) 0.8914(4)
C38_3 C 0.1989(7) 0.1102(9) 0.9316(4)
C39_3 C 0.3063(7) 0.1852(10) 0.8841(4)
H23_3 H 0.3441 0.2111 0.8690
C40_3 C 0.3081(8) 0.2080(11) 0.9268(4)
C41_3 C 0.2519(7) 0.1725(9) 0.9492(4)
H24_3 H 0.2504 0.1911 0.9759
C42_3 C 0.2497(6) 0.1264(9) 0.8664(4)
H25_3 H 0.2454 0.1144 0.8386
C43_3 C 0.3713(6) 0.2780(9) 0.9443(4)
N16_3 N 0.1374(5) 0.0215(8) 0.8812(3)
N17_3 N 0.1017(5) 0.0103(7) 0.9150(3)
O11_3 O 0.0237(4) 0.0594(6) 0.8117(2)
O18_2 O 0.3655(5) 0.3124(7) 0.9785(3)
O19_2 O 0.4277(4) 0.2928(6) 0.9227(2)
H27_3 H 0.027(6) 0.123(3) 0.822(3)
Co14 Co 0.50688(9) 0.40521(12) 0.91734(5)
N19_2 N 0.1277(6) 0.0490(8) 0.6125(3)
N23_2 N 0.1262(5) 0.0085(7) 0.5466(3)
O23_2 O 0.1463(4) 0.1536(6) 0.6920(2)
O25_2 O 0.0857(5) 0.1738(7) 0.7480(2)
C44_3 C 0.0347(10) 0.7412(11) 0.0320(5)
H30_3 H 0.0611 0.7076 0.0549
H31_3 H 0.0733 0.7592 0.0143
O2_3 O 0.0146(4) 0.9137(6) 0.6444(2)
H12_3 H 0.044(6) 0.857(4) 0.653(3)
O10_3 O 0.0032(6) 0.8246(8) 0.4540(3)
H13_3 H 0.012(6) 0.813(4) 0.4258(11)
H16_3 H 0.0052 0.7013 0.4823
Co6_2 Co 0.00688(9) 0.90521(12) 0.91734(5)
Co9_3 Co 0.09000(9) 0.93183(12) 0.83554(5)
C23_3 C 0.1882(7) 0.8632(10) 0.7639(4)
C24_3 C 0.1869(7) 0.8882(10) 0.7238(4)
C25_3 C 0.2372(6) 0.8488(9) 0.6963(4)
H17_3 H 0.2348 0.8661 0.6692
C26_3 C 0.2907(7) 0.7813(9) 0.7147(4)
H18_3 H 0.3246 0.7496 0.6990
C27_3 C 0.2941(6) 0.7600(9) 0.7570(4)
C28_3 C 0.2428(7) 0.7993(9) 0.7816(4)
H19_3 H 0.2450 0.7835 0.8089
C29_3 C 0.3599(6) 0.6910(9) 0.7739(4)
C30_3 C 0.3159(7) 0.6023(9) 0.9041(4)
C31_3 C 0.3164(6) 0.5805(9) 0.9444(4)
C32_3 C 0.2674(6) 0.6199(9) 0.9699(4)
H20_3 H 0.2705 0.6039 0.9972
C33_3 C 0.2124(7) 0.6859(10) 0.9522(4)
H21_3 H 0.1757 0.7124 0.9678
C34_3 C 0.2108(7) 0.7131(9) 0.9120(4)
C35_3 C 0.2605(6) 0.6720(9) 0.8881(4)
H22_3 H 0.2585 0.6896 0.8610
C36_3 C 0.1484(7) 0.7847(9) 0.8949(4)
N10_3 N 0.1294(6) 0.9185(8) 0.7800(3)
N11_3 N 0.0944(5) 0.9693(7) 0.7495(3)
N12_3 N 0.1254(5) 0.9522(7) 0.7154(3)
N13_2 N 0.3723(6) 0.5490(8) 0.8875(3)
N14_2 N 0.4056(5) 0.4964(7) 0.9184(3)
N15_2 N 0.3738(5) 0.5085(7) 0.9534(3)
O14_2 O 0.3537(4) 0.6536(6) 0.8080(2)
O15_2 O 0.4143(5) 0.6738(7) 0.7520(2)
O16_3 O 0.1532(4) 0.8170(6) 0.8603(2)
O17_3 O 0.0983(5) 0.8060(6) 0.9183(2)
H26_3 H 0.069(5) 0.897(7) 0.995(2)
Co10 Co 0.5000 0.57056(18) 0.7500
Co23_2 Co 0.41897(9) 0.54150(12) 0.83322(5)
N21_2 N 0.0944(5) 0.9964(7) 0.5816(3)
O27_2 O 0.1345(5) 0.8124(7) 0.5215(3)
O29_2 O 0.0723(4) 0.7928(6) 0.5773(2)
Co1_4 Co 1.0000 0.07056(18) 0.7500
C15_3 C 0.8034(7) 0.0832(10) 0.6086(4)
C16_3 C 0.8011(7) 0.1102(9) 0.5684(4)
C17_3 C 0.6937(7) 0.1852(10) 0.6159(4)
H7_3 H 0.6559 0.2111 0.6310
C18_3 C 0.6919(8) 0.2080(11) 0.5732(4)
C19_3 C 0.7481(7) 0.1725(9) 0.5508(4)
H8_3 H 0.7496 0.1911 0.5241
C20_3 C 0.7503(6) 0.1264(9) 0.6336(4)
H9_3 H 0.7546 0.1144 0.6614
C21_3 C 0.6287(6) 0.2780(9) 0.5557(4)
N7_3 N 0.8626(5) 0.0215(8) 0.6188(3)
N8_3 N 0.8983(5) 0.0103(7) 0.5850(3)
O1_3 O 0.9763(4) 0.0594(6) 0.6883(2)
O8_2 O 0.6345(5) 0.3124(7) 0.5215(3)
O9_2 O 0.5723(4) 0.2928(6) 0.5773(2)
H11_3 H 0.973(6) 0.123(3) 0.678(3)
Co8_2 Co 0.91897(9) 0.04150(12) 0.83322(5)
Co12 Co 0.49312(9) 0.40521(12) 0.58266(5)
N20_2 N 0.8723(6) 0.0490(8) 0.8875(3)
N24_2 N 0.8738(5) 0.0085(7) 0.9534(3)
O24_2 O 0.8537(4) 0.1536(6) 0.8080(2)
O26_2 O 0.9143(5) 0.1738(7) 0.7520(2)
O20_3 O 0.9968(6) 0.8246(8) 0.0460(3)
H29_3 H 0.988(6) 0.813(4) 0.0742(11)
H32_3 H 0.9948 0.7013 0.0177
Co2_2 Co 0.99312(9) 0.90521(12) 0.58266(5)
Co5_3 Co 0.91000(9) 0.93183(12) 0.66446(5)
C1_3 C 0.8118(7) 0.8632(10) 0.7361(4)
C2_3 C 0.8131(7) 0.8882(10) 0.7762(4)
C3_3 C 0.7628(6) 0.8488(9) 0.8037(4)
H1_3 H 0.7652 0.8661 0.8308
C4_3 C 0.7093(7) 0.7813(9) 0.7853(4)
H2_3 H 0.6754 0.7496 0.8010
C5_3 C 0.7059(6) 0.7600(9) 0.7430(4)
C6_3 C 0.7572(7) 0.7993(9) 0.7184(4)
H3_3 H 0.7550 0.7835 0.6911
C7_3 C 0.6401(6) 0.6910(9) 0.7261(4)
C8_3 C 0.6841(7) 0.6023(9) 0.5959(4)
C9_3 C 0.6836(6) 0.5805(9) 0.5556(4)
C10_3 C 0.7326(6) 0.6199(9) 0.5301(4)
H4_3 H 0.7295 0.6039 0.5028
C11_3 C 0.7876(7) 0.6859(10) 0.5478(4)
H5_3 H 0.8243 0.7124 0.5322
C12_3 C 0.7892(7) 0.7131(9) 0.5880(4)
C13_3 C 0.7395(6) 0.6720(9) 0.6119(4)
H6_3 H 0.7415 0.6896 0.6390
C14_3 C 0.8516(7) 0.7847(9) 0.6051(4)
N1_3 N 0.8706(6) 0.9185(8) 0.7200(3)
N2_3 N 0.9056(5) 0.9693(7) 0.7505(3)
N3_3 N 0.8746(5) 0.9522(7) 0.7846(3)
N4_2 N 0.6277(6) 0.5490(8) 0.6125(3)
N5_2 N 0.5944(5) 0.4964(7) 0.5816(3)
N6_2 N 0.6262(5) 0.5085(7) 0.5466(3)
O4_2 O 0.6463(4) 0.6536(6) 0.6920(2)
O5_2 O 0.5857(5) 0.6738(7) 0.7480(2)
O6_3 O 0.8468(4) 0.8170(6) 0.6397(2)
O7_3 O 0.9017(5) 0.8060(6) 0.5817(2)
H10_3 H 0.931(5) 0.897(7) 0.505(2)
C22_3 C 0.9653(10) 0.7412(11) 0.4680(5)
H14_3 H 0.9389 0.7076 0.4451
H15_3 H 0.9267 0.7592 0.4857
O12_3 O 0.9854(4) 0.9137(6) 0.8556(2)
H28_3 H 0.956(6) 0.857(4) 0.847(3)
Co22_2 Co 0.58103(9) 0.54150(12) 0.66678(5)
N22_2 N 0.9056(5) 0.9964(7) 0.9184(3)
O28_2 O 0.8655(5) 0.8124(7) 0.9785(3)
O30_2 O 0.9277(4) 0.7928(6) 0.9227(2)
O20_4 O 0.4968(6) 0.3246(8) 0.0460(3)
H29_4 H 0.488(6) 0.313(4) 0.0742(11)
C44_4 C 0.5347(10) 0.2412(11) 0.0320(5)
H30_4 H 0.5611 0.2076 0.0549
H31_4 H 0.5733 0.2592 0.0143
H32_4 H 0.4948 0.2013 0.0177
Co5_4 Co 0.41000(9) 0.43183(12) 0.66446(5)
C1_4 C 0.3118(7) 0.3632(10) 0.7361(4)
C2_4 C 0.3131(7) 0.3882(10) 0.7762(4)
C3_4 C 0.2628(6) 0.3488(9) 0.8037(4)
H1_4 H 0.2652 0.3661 0.8308
C4_4 C 0.2093(7) 0.2813(9) 0.7853(4)
H2_4 H 0.1754 0.2496 0.8010
C5_4 C 0.2059(6) 0.2600(9) 0.7430(4)
C6_4 C 0.2572(7) 0.2993(9) 0.7184(4)
H3_4 H 0.2550 0.2835 0.6911
C7_4 C 0.1401(6) 0.1910(9) 0.7261(4)
C8_4 C 0.1841(7) 0.1023(9) 0.5959(4)
C9_4 C 0.1836(6) 0.0805(9) 0.5556(4)
C10_4 C 0.2326(6) 0.1199(9) 0.5301(4)
H4_4 H 0.2295 0.1039 0.5028
C11_4 C 0.2876(7) 0.1859(10) 0.5478(4)
H5_4 H 0.3243 0.2124 0.5322
C12_4 C 0.2892(7) 0.2131(9) 0.5880(4)
C13_4 C 0.2395(6) 0.1720(9) 0.6119(4)
H6_4 H 0.2415 0.1896 0.6390
C14_4 C 0.3516(7) 0.2847(9) 0.6051(4)
C15_4 C 0.3034(7) 0.5832(10) 0.6086(4)
C16_4 C 0.3011(7) 0.6102(9) 0.5684(4)
C17_4 C 0.1937(7) 0.6852(10) 0.6159(4)
H7_4 H 0.1559 0.7111 0.6310
C18_4 C 0.1919(8) 0.7080(11) 0.5732(4)
C19_4 C 0.2481(7) 0.6725(9) 0.5508(4)
H8_4 H 0.2496 0.6911 0.5241
C20_4 C 0.2503(6) 0.6264(9) 0.6336(4)
H9_4 H 0.2546 0.6144 0.6614
C21_4 C 0.1287(6) 0.7780(9) 0.5557(4)
N1_4 N 0.3706(6) 0.4185(8) 0.7200(3)
N2_4 N 0.4056(5) 0.4693(7) 0.7505(3)
N3_4 N 0.3746(5) 0.4522(7) 0.7846(3)
N7_4 N 0.3626(5) 0.5215(8) 0.6188(3)
N8_4 N 0.3983(5) 0.5103(7) 0.5850(3)
O1_4 O 0.4763(4) 0.5594(6) 0.6883(2)
O2_4 O 0.5146(4) 0.4137(6) 0.6444(2)
O6_4 O 0.3468(4) 0.3170(6) 0.6397(2)
O7_4 O 0.4017(5) 0.3060(6) 0.5817(2)
H10_4 H 0.431(5) 0.397(7) 0.505(2)
H11_4 H 0.473(6) 0.623(3) 0.678(3)
H12_4 H 0.544(6) 0.357(4) 0.653(3)
O10_4 O 0.5032(6) 0.3246(8) 0.4540(3)
H13_4 H 0.512(6) 0.313(4) 0.4258(11)
C22_4 C 0.4653(10) 0.2412(11) 0.4680(5)
H14_4 H 0.4389 0.2076 0.4451
H15_4 H 0.4267 0.2592 0.4857
H16_4 H 0.5052 0.2013 0.4823
Co9_4 Co 0.59000(9) 0.43183(12) 0.83554(5)
C23_4 C 0.6882(7) 0.3632(10) 0.7639(4)
C24_4 C 0.6869(7) 0.3882(10) 0.7238(4)
C25_4 C 0.7372(6) 0.3488(9) 0.6963(4)
H17_4 H 0.7348 0.3661 0.6692
C26_4 C 0.7907(7) 0.2813(9) 0.7147(4)
H18_4 H 0.8246 0.2496 0.6990
C27_4 C 0.7941(6) 0.2600(9) 0.7570(4)
C28_4 C 0.7428(7) 0.2993(9) 0.7816(4)
H19_4 H 0.7450 0.2835 0.8089
C29_4 C 0.8599(6) 0.1910(9) 0.7739(4)
C30_4 C 0.8159(7) 0.1023(9) 0.9041(4)
C31_4 C 0.8164(6) 0.0805(9) 0.9444(4)
C32_4 C 0.7674(6) 0.1199(9) 0.9699(4)
H20_4 H 0.7705 0.1039 0.9972
C33_4 C 0.7124(7) 0.1859(10) 0.9522(4)
H21_4 H 0.6757 0.2124 0.9678
C34_4 C 0.7108(7) 0.2131(9) 0.9120(4)
C35_4 C 0.7605(6) 0.1720(9) 0.8881(4)
H22_4 H 0.7585 0.1896 0.8610
C36_4 C 0.6484(7) 0.2847(9) 0.8949(4)
C37_4 C 0.6966(7) 0.5832(10) 0.8914(4)
C38_4 C 0.6989(7) 0.6102(9) 0.9316(4)
C39_4 C 0.8063(7) 0.6852(10) 0.8841(4)
H23_4 H 0.8441 0.7111 0.8690
C40_4 C 0.8081(8) 0.7080(11) 0.9268(4)
C41_4 C 0.7519(7) 0.6725(9) 0.9492(4)
H24_4 H 0.7504 0.6911 0.9759
C42_4 C 0.7497(6) 0.6264(9) 0.8664(4)
H25_4 H 0.7454 0.6144 0.8386
C43_4 C 0.8713(6) 0.7780(9) 0.9443(4)
N10_4 N 0.6294(6) 0.4185(8) 0.7800(3)
N11_4 N 0.5944(5) 0.4693(7) 0.7495(3)
N12_4 N 0.6254(5) 0.4522(7) 0.7154(3)
N16_4 N 0.6374(5) 0.5215(8) 0.8812(3)
N17_4 N 0.6017(5) 0.5103(7) 0.9150(3)
O11_4 O 0.5237(4) 0.5594(6) 0.8117(2)
O12_4 O 0.4854(4) 0.4137(6) 0.8556(2)
O16_4 O 0.6532(4) 0.3170(6) 0.8603(2)
O17_4 O 0.5983(5) 0.3060(6) 0.9183(2)
H26_4 H 0.569(5) 0.397(7) 0.995(2)
H27_4 H 0.527(6) 0.623(3) 0.822(3)
H28_4 H 0.456(6) 0.357(4) 0.847(3)
loop_
_geom_bond_atom_site_label_1
_geom_bond_atom_site_label_2
_geom_bond_site_symmetry_1
_geom_bond_site_symmetry_2
Co5 N1 1_555 1_555
C1 C2 1_555 1_555
C2 C3 1_555 1_555
C3 H1 1_555 1_555
C4 C3 1_555 1_555
H2 C4 1_555 1_555
C5 C4 1_555 1_555
C6 C1 1_555 1_555
H3 C6 1_555 1_555
C7 C5 1_555 1_555
C8 C9 1_555 1_555
C9 C10 1_555 1_555
C10 H4 1_555 1_555
C11 C10 1_555 1_555
H5 C11 1_555 1_555
C12 C11 1_555 1_555
C13 C8 1_555 1_555
H6 C13 1_555 1_555
C14 C12 1_555 1_555
N1 C1 1_555 1_555
N2 N1 1_555 1_555
N3 C2 1_555 1_555
N4 C8 1_555 1_555
N5 N4 1_555 1_555
N6 C9 1_555 1_555
O3 Co2 1_555 1_555
O4 C7 1_555 1_555
O5 C7 1_555 1_555
O6 Co5 1_555 1_555
O7 Co2 1_555 1_555
H10 O3 1_555 1_555
H14 C22 1_555 1_555
H15 C22 1_555 1_555
H28 O12 1_555 1_555
Co11 O5 1_555 1_555
Co13 N5 1_555 1_555
Co17 N6 1_555 1_555
Co22 N4 1_555 1_555
C5 C6 1_555 1_555
C12 C13 1_555 1_555
C14 O6 1_555 1_555
C14 O7 1_555 1_555
N2 N3 1_555 1_555
N5 N6 1_555 1_555
O4 Co22 1_555 1_555
O20 Co7 1_555 1_555
H29 O20 1_555 1_555
N26 Co7 1_555 1_555
C15 C16 1_555 1_555
C16 C19 1_555 1_555
C17 H7 1_555 1_555
C18 C17 1_555 1_555
C19 C18 1_555 1_555
H8 C19 1_555 1_555
C20 C15 1_555 1_555
H9 C20 1_555 1_555
C21 C18 1_555 1_555
N8 N7 1_555 1_555
N9 C16 1_555 1_555
O1 Co1 1_555 1_555
O8 C21 1_555 1_555
O9 C21 1_555 1_555
H11 O1 1_555 1_555
Co13 O9 1_555 1_555
Co17 O8 1_555 1_555
Co20 N9 1_555 1_555
N20 Co8 1_555 1_555
O24 Co8 1_555 1_555
O26 Co1 1_555 1_555
C15 N7 1_555 1_555
C17 C20 1_555 1_555
N8 N9 1_555 1_555
H12 O2 1_555 1_555
O10 Co3 1_555 1_555
H13 O10 1_555 1_555
Co9 N10 1_555 1_555
C23 C24 1_555 1_555
C24 C25 1_555 1_555
C25 H17 1_555 1_555
C26 C25 1_555 1_555
H18 C26 1_555 1_555
C27 C26 1_555 1_555
C28 C23 1_555 1_555
H19 C28 1_555 1_555
C29 C27 1_555 1_555
C30 C31 1_555 1_555
C31 C32 1_555 1_555
C32 H20 1_555 1_555
C33 C32 1_555 1_555
H21 C33 1_555 1_555
C34 C33 1_555 1_555
C35 C30 1_555 1_555
H22 C35 1_555 1_555
C36 C34 1_555 1_555
N10 C23 1_555 1_555
N13 C30 1_555 1_555
N14 N13 1_555 1_555
N15 C31 1_555 1_555
O13 Co6 1_555 1_555
O14 C29 1_555 1_555
O15 C29 1_555 1_555
O16 Co9 1_555 1_555
O17 Co6 1_555 1_555
H26 O13 1_555 1_555
Co11 O15 1_555 1_555
Co15 N14 1_555 1_555
Co23 N13 1_555 1_555
N25 Co3 1_555 1_555
O27 Co3 1_555 1_555
C24 N12 1_555 1_555
C27 C28 1_555 1_555
C34 C35 1_555 1_555
C36 O16 1_555 1_555
C36 O17 1_555 1_555
N10 N11 1_555 1_555
N11 N12 1_555 1_555
N14 N15 1_555 1_555
O14 Co23 1_555 1_555
H30 C44 1_555 1_555
H31 C44 1_555 1_555
C37 C38 1_555 1_555
C38 C41 1_555 1_555
C39 H23 1_555 1_555
C40 C39 1_555 1_555
C41 C40 1_555 1_555
H24 C41 1_555 1_555
C42 C37 1_555 1_555
H25 C42 1_555 1_555
C43 C40 1_555 1_555
N17 N16 1_555 1_555
N18 C38 1_555 1_555
O11 Co1_2 1_555 1_555
O18 C43 1_555 1_555
O19 C43 1_555 1_555
H27 O11 1_555 1_555
Co15 O19 1_555 1_555
Co21 N18 1_555 1_555
N19 Co4 1_555 1_555
O23 Co4 1_555 1_555
O25 Co1_2 1_555 1_555
C37 N16 1_555 1_555
C39 C42 1_555 1_555
N17 N18 1_555 1_555
Co11 N2_2 1_555 1_555
Co13 N8_2 1_555 1_555
Co17 O3_2 1_555 1_555
Co22 O1_2 1_555 1_555
Co5_2 N1_2 1_555 1_555
C1_2 C2_2 1_555 1_555
C2_2 C3_2 1_555 1_555
C3_2 H1_2 1_555 1_555
C4_2 C3_2 1_555 1_555
H2_2 C4_2 1_555 1_555
C5_2 C4_2 1_555 1_555
C6_2 C1_2 1_555 1_555
H3_2 C6_2 1_555 1_555
C7_2 C5_2 1_555 1_555
C8_2 C9_2 1_555 1_555
C9_2 C10_2 1_555 1_555
C10_2 H4_2 1_555 1_555
C11_2 C10_2 1_555 1_555
H5_2 C11_2 1_555 1_555
C12_2 C11_2 1_555 1_555
C13_2 C8_2 1_555 1_555
H6_2 C13_2 1_555 1_555
C14_2 C12_2 1_555 1_555
C15_2 C16_2 1_555 1_555
C16_2 C19_2 1_555 1_555
C17_2 H7_2 1_555 1_555
C18_2 C17_2 1_555 1_555
C19_2 C18_2 1_555 1_555
H8_2 C19_2 1_555 1_555
C20_2 C15_2 1_555 1_555
H9_2 C20_2 1_555 1_555
C21_2 C18_2 1_555 1_555
N1_2 C1_2 1_555 1_555
N2_2 N1_2 1_555 1_555
N3_2 C2_2 1_555 1_555
N19 C8_2 1_555 1_555
N23 C9_2 1_555 1_555
N7_2 Co5_2 1_555 1_555
N8_2 N7_2 1_555 1_555
N9_2 C16_2 1_555 1_555
O1_2 Co11 1_555 1_555
O2_2 Co13 1_555 1_555
O3_2 Co13 1_555 1_555
O23 C7_2 1_555 1_555
O25 C7_2 1_555 1_555
O6_2 Co5_2 1_555 1_555
O7_2 Co13 1_555 1_555
O27 C21_2 1_555 1_555
O29 C21_2 1_555 1_555
H10_2 O3_2 1_555 1_555
H11_2 O1_2 1_555 1_555
H12_2 O2_2 1_555 1_555
O10_2 Co17 1_555 1_555
H13_2 O10_2 1_555 1_555
C22_2 O10_2 1_555 1_555
H14_2 C22_2 1_555 1_555
H15_2 C22_2 1_555 1_555
H16_2 C22_2 1_555 1_555
Co15 N17_2 1_555 1_555
Co23 N3_2 1_555 1_555
Co9_2 N10_2 1_555 1_555
C23_2 C24_2 1_555 1_555
C24_2 C25_2 1_555 1_555
C25_2 H17_2 1_555 1_555
C26_2 C25_2 1_555 1_555
H18_2 C26_2 1_555 1_555
C27_2 C26_2 1_555 1_555
C28_2 C23_2 1_555 1_555
H19_2 C28_2 1_555 1_555
C29_2 C27_2 1_555 1_555
C30_2 C31_2 1_555 1_555
C31_2 C32_2 1_555 1_555
C32_2 H20_2 1_555 1_555
C33_2 C32_2 1_555 1_555
H21_2 C33_2 1_555 1_555
C34_2 C33_2 1_555 1_555
C35_2 C30_2 1_555 1_555
H22_2 C35_2 1_555 1_555
C36_2 C34_2 1_555 1_555
C37_2 C38_2 1_555 1_555
C38_2 C41_2 1_555 1_555
C39_2 H23_2 1_555 1_555
C40_2 C39_2 1_555 1_555
C41_2 C40_2 1_555 1_555
H24_2 C41_2 1_555 1_555
C42_2 C37_2 1_555 1_555
H25_2 C42_2 1_555 1_555
C43_2 C40_2 1_555 1_555
N10_2 C23_2 1_555 1_555
N11_2 Co11 1_555 1_555
N12_2 Co22 1_555 1_555
N20 C30_2 1_555 1_555
N24 C31_2 1_555 1_555
N16_2 Co9_2 1_555 1_555
N17_2 N16_2 1_555 1_555
N18_2 C38_2 1_555 1_555
O11_2 Co11 1_555 1_555
O12_2 Co15 1_555 1_555
O13_2 Co15 1_555 1_555
O24 C29_2 1_555 1_555
O26 C29_2 1_555 1_555
O16_2 Co9_2 1_555 1_555
O17_2 Co15 1_555 1_555
O28 C43_2 1_555 1_555
O30 C43_2 1_555 1_555
H26_2 O13_2 1_555 1_555
H27_2 O11_2 1_555 1_555
H28_2 O12_2 1_555 1_555
Co20_2 N9_2 1_555 1_555
Co21_2 N18_2 1_555 1_555
N25_2 Co17 1_555 1_555
O21_2 Co17 1_555 1_555
Co22 O2_2 1_555 1_555
Co5_2 O1_2 1_555 1_555
Co5_2 O2_2 1_555 1_555
C5_2 C6_2 1_555 1_555
C12_2 C13_2 1_555 1_555
C14_2 O6_2 1_555 1_555
C14_2 O7_2 1_555 1_555
C15_2 N7_2 1_555 1_555
C17_2 C20_2 1_555 1_555
N2_2 N3_2 1_555 1_555
N8_2 N9_2 1_555 1_555
O3_2 Co20_2 1_555 1_555
Co23 O11_2 1_555 1_555
Co23 O12_2 1_555 1_555
Co9_2 O11_2 1_555 1_555
Co9_2 O12_2 1_555 1_555
C24_2 N12_2 1_555 1_555
C27_2 C28_2 1_555 1_555
C34_2 C35_2 1_555 1_555
C36_2 O16_2 1_555 1_555
C36_2 O17_2 1_555 1_555
C37_2 N16_2 1_555 1_555
C39_2 C42_2 1_555 1_555
N10_2 N11_2 1_555 1_555
N11_2 N12_2 1_555 1_555
N17_2 N18_2 1_555 1_555
O13_2 Co21_2 1_555 1_555
Co20_2 O21_2 1_555 1_555
O20_2 Co19 1_555 1_555
H29_2 O20_2 1_555 1_555
C44_2 O20_2 1_555 1_555
H30_2 C44_2 1_555 1_555
H31_2 C44_2 1_555 1_555
H32_2 C44_2 1_555 1_555
N26_2 Co19 1_555 1_555
O22_2 Co19 1_555 1_555
C37_3 C38_3 1_555 1_555
C38_3 C41_3 1_555 1_555
C39_3 H23_3 1_555 1_555
C40_3 C39_3 1_555 1_555
C41_3 C40_3 1_555 1_555
H24_3 C41_3 1_555 1_555
C42_3 C37_3 1_555 1_555
H25_3 C42_3 1_555 1_555
C43_3 C40_3 1_555 1_555
N17_3 N16_3 1_555 1_555
N26 C38_3 1_555 1_555
O11_3 Co1_3 1_555 1_555
O18_2 C43_3 1_555 1_555
O19_2 C43_3 1_555 1_555
H27_3 O11_3 1_555 1_555
Co14 O19_2 1_555 1_555
N19_2 Co4_2 1_555 1_555
O23_2 Co4_2 1_555 1_555
O25_2 Co1_3 1_555 1_555
C37_3 N16_3 1_555 1_555
C39_3 C42_3 1_555 1_555
N17_3 N26 1_555 1_555
H30_3 C44_3 1_555 1_555
H31_3 C44_3 1_555 1_555
H12_3 O2_3 1_555 1_555
O10_3 Co20 1_555 1_555
H13_3 O10_3 1_555 1_555
Co9_3 N10_3 1_555 1_555
C23_3 C24_3 1_555 1_555
C24_3 C25_3 1_555 1_555
C25_3 H17_3 1_555 1_555
C26_3 C25_3 1_555 1_555
H18_3 C26_3 1_555 1_555
C27_3 C26_3 1_555 1_555
C28_3 C23_3 1_555 1_555
H19_3 C28_3 1_555 1_555
C29_3 C27_3 1_555 1_555
C30_3 C31_3 1_555 1_555
C31_3 C32_3 1_555 1_555
C32_3 H20_3 1_555 1_555
C33_3 C32_3 1_555 1_555
H21_3 C33_3 1_555 1_555
C34_3 C33_3 1_555 1_555
C35_3 C30_3 1_555 1_555
H22_3 C35_3 1_555 1_555
C36_3 C34_3 1_555 1_555
N10_3 C23_3 1_555 1_555
N13_2 C30_3 1_555 1_555
N14_2 N13_2 1_555 1_555
N15_2 C31_3 1_555 1_555
O22 Co6_2 1_555 1_555
O14_2 C29_3 1_555 1_555
O15_2 C29_3 1_555 1_555
O16_3 Co9_3 1_555 1_555
O17_3 Co6_2 1_555 1_555
H26_3 O22 1_555 1_555
Co10 O15_2 1_555 1_555
Co14 N14_2 1_555 1_555
Co23_2 N13_2 1_555 1_555
O27_2 Co20 1_555 1_555
C24_3 N12_3 1_555 1_555
C27_3 C28_3 1_555 1_555
C34_3 C35_3 1_555 1_555
C36_3 O16_3 1_555 1_555
C36_3 O17_3 1_555 1_555
N10_3 N11_3 1_555 1_555
N11_3 N12_3 1_555 1_555
N14_2 N15_2 1_555 1_555
O14_2 Co23_2 1_555 1_555
C15_3 C16_3 1_555 1_555
C16_3 C19_3 1_555 1_555
C17_3 H7_3 1_555 1_555
C18_3 C17_3 1_555 1_555
C19_3 C18_3 1_555 1_555
H8_3 C19_3 1_555 1_555
C20_3 C15_3 1_555 1_555
H9_3 C20_3 1_555 1_555
C21_3 C18_3 1_555 1_555
N8_3 N7_3 1_555 1_555
N25 C16_3 1_555 1_555
O1_3 Co1_4 1_555 1_555
O8_2 C21_3 1_555 1_555
O9_2 C21_3 1_555 1_555
H11_3 O1_3 1_555 1_555
Co12 O9_2 1_555 1_555
Co20_2 O8_2 1_555 1_555
N20_2 Co8_2 1_555 1_555
O24_2 Co8_2 1_555 1_555
O26_2 Co1_4 1_555 1_555
C15_3 N7_3 1_555 1_555
C17_3 C20_3 1_555 1_555
N8_3 N25 1_555 1_555
O20_3 Co21 1_555 1_555
H29_3 O20_3 1_555 1_555
Co5_3 N1_3 1_555 1_555
C1_3 C2_3 1_555 1_555
C2_3 C3_3 1_555 1_555
C3_3 H1_3 1_555 1_555
C4_3 C3_3 1_555 1_555
H2_3 C4_3 1_555 1_555
C5_3 C4_3 1_555 1_555
C6_3 C1_3 1_555 1_555
H3_3 C6_3 1_555 1_555
C7_3 C5_3 1_555 1_555
C8_3 C9_3 1_555 1_555
C9_3 C10_3 1_555 1_555
C10_3 H4_3 1_555 1_555
C11_3 C10_3 1_555 1_555
H5_3 C11_3 1_555 1_555
C12_3 C11_3 1_555 1_555
C13_3 C8_3 1_555 1_555
H6_3 C13_3 1_555 1_555
C14_3 C12_3 1_555 1_555
N1_3 C1_3 1_555 1_555
N2_3 N1_3 1_555 1_555
N3_3 C2_3 1_555 1_555
N4_2 C8_3 1_555 1_555
N5_2 N4_2 1_555 1_555
N6_2 C9_3 1_555 1_555
O21 Co2_2 1_555 1_555
O4_2 C7_3 1_555 1_555
O5_2 C7_3 1_555 1_555
O6_3 Co5_3 1_555 1_555
O7_3 Co2_2 1_555 1_555
H10_3 O21 1_555 1_555
H14_3 C22_3 1_555 1_555
H15_3 C22_3 1_555 1_555
H28_3 O12_3 1_555 1_555
Co10 O5_2 1_555 1_555
Co12 N5_2 1_555 1_555
Co20_2 N6_2 1_555 1_555
Co22_2 N4_2 1_555 1_555
C5_3 C6_3 1_555 1_555
C12_3 C13_3 1_555 1_555
C14_3 O6_3 1_555 1_555
C14_3 O7_3 1_555 1_555
N2_3 N3_3 1_555 1_555
N5_2 N6_2 1_555 1_555
O4_2 Co22_2 1_555 1_555
O20_4 Co21_2 1_555 1_555
H29_4 O20_4 1_555 1_555
C44_4 O20_4 1_555 1_555
H30_4 C44_4 1_555 1_555
H31_4 C44_4 1_555 1_555
H32_4 C44_4 1_555 1_555
Co10 N2_4 1_555 1_555
Co12 N8_4 1_555 1_555
Co22_2 O1_4 1_555 1_555
Co5_4 N1_4 1_555 1_555
C1_4 C2_4 1_555 1_555
C2_4 C3_4 1_555 1_555
C3_4 H1_4 1_555 1_555
C4_4 C3_4 1_555 1_555
H2_4 C4_4 1_555 1_555
C5_4 C4_4 1_555 1_555
C6_4 C1_4 1_555 1_555
H3_4 C6_4 1_555 1_555
C7_4 C5_4 1_555 1_555
C8_4 C9_4 1_555 1_555
C9_4 C10_4 1_555 1_555
C10_4 H4_4 1_555 1_555
C11_4 C10_4 1_555 1_555
H5_4 C11_4 1_555 1_555
C12_4 C11_4 1_555 1_555
C13_4 C8_4 1_555 1_555
H6_4 C13_4 1_555 1_555
C14_4 C12_4 1_555 1_555
C15_4 C16_4 1_555 1_555
C16_4 C19_4 1_555 1_555
C17_4 H7_4 1_555 1_555
C18_4 C17_4 1_555 1_555
C19_4 C18_4 1_555 1_555
H8_4 C19_4 1_555 1_555
C20_4 C15_4 1_555 1_555
H9_4 C20_4 1_555 1_555
C21_4 C18_4 1_555 1_555
N1_4 C1_4 1_555 1_555
N2_4 N1_4 1_555 1_555
N3_4 C2_4 1_555 1_555
N19_2 C8_4 1_555 1_555
N23_2 C9_4 1_555 1_555
N7_4 Co5_4 1_555 1_555
N8_4 N7_4 1_555 1_555
N25_2 C16_4 1_555 1_555
O1_4 Co10 1_555 1_555
O2_4 Co12 1_555 1_555
O21_2 Co12 1_555 1_555
O23_2 C7_4 1_555 1_555
O25_2 C7_4 1_555 1_555
O6_4 Co5_4 1_555 1_555
O7_4 Co12 1_555 1_555
O27_2 C21_4 1_555 1_555
O29_2 C21_4 1_555 1_555
H10_4 O21_2 1_555 1_555
H11_4 O1_4 1_555 1_555
H12_4 O2_4 1_555 1_555
O10_4 Co20_2 1_555 1_555
H13_4 O10_4 1_555 1_555
C22_4 O10_4 1_555 1_555
H14_4 C22_4 1_555 1_555
H15_4 C22_4 1_555 1_555
H16_4 C22_4 1_555 1_555
Co14 N17_4 1_555 1_555
Co23_2 N3_4 1_555 1_555
Co9_4 N10_4 1_555 1_555
C23_4 C24_4 1_555 1_555
C24_4 C25_4 1_555 1_555
C25_4 H17_4 1_555 1_555
C26_4 C25_4 1_555 1_555
H18_4 C26_4 1_555 1_555
C27_4 C26_4 1_555 1_555
C28_4 C23_4 1_555 1_555
H19_4 C28_4 1_555 1_555
C29_4 C27_4 1_555 1_555
C30_4 C31_4 1_555 1_555
C31_4 C32_4 1_555 1_555
C32_4 H20_4 1_555 1_555
C33_4 C32_4 1_555 1_555
H21_4 C33_4 1_555 1_555
C34_4 C33_4 1_555 1_555
C35_4 C30_4 1_555 1_555
H22_4 C35_4 1_555 1_555
C36_4 C34_4 1_555 1_555
C37_4 C38_4 1_555 1_555
C38_4 C41_4 1_555 1_555
C39_4 H23_4 1_555 1_555
C40_4 C39_4 1_555 1_555
C41_4 C40_4 1_555 1_555
H24_4 C41_4 1_555 1_555
C42_4 C37_4 1_555 1_555
H25_4 C42_4 1_555 1_555
C43_4 C40_4 1_555 1_555
N10_4 C23_4 1_555 1_555
N11_4 Co10 1_555 1_555
N12_4 Co22_2 1_555 1_555
N20_2 C30_4 1_555 1_555
N24_2 C31_4 1_555 1_555
N16_4 Co9_4 1_555 1_555
N17_4 N16_4 1_555 1_555
N26_2 C38_4 1_555 1_555
O11_4 Co10 1_555 1_555
O12_4 Co14 1_555 1_555
O22_2 Co14 1_555 1_555
O24_2 C29_4 1_555 1_555
O26_2 C29_4 1_555 1_555
O16_4 Co9_4 1_555 1_555
O17_4 Co14 1_555 1_555
O28_2 C43_4 1_555 1_555
O30_2 C43_4 1_555 1_555
H26_4 O22_2 1_555 1_555
H27_4 O11_4 1_555 1_555
H28_4 O12_4 1_555 1_555
Co22_2 O2_4 1_555 1_555
Co5_4 O1_4 1_555 1_555
Co5_4 O2_4 1_555 1_555
C5_4 C6_4 1_555 1_555
C12_4 C13_4 1_555 1_555
C14_4 O6_4 1_555 1_555
C14_4 O7_4 1_555 1_555
C15_4 N7_4 1_555 1_555
C17_4 C20_4 1_555 1_555
N2_4 N3_4 1_555 1_555
N8_4 N25_2 1_555 1_555
Co23_2 O11_4 1_555 1_555
Co23_2 O12_4 1_555 1_555
Co9_4 O11_4 1_555 1_555
Co9_4 O12_4 1_555 1_555
C24_4 N12_4 1_555 1_555
C27_4 C28_4 1_555 1_555
C34_4 C35_4 1_555 1_555
C36_4 O16_4 1_555 1_555
C36_4 O17_4 1_555 1_555
C37_4 N16_4 1_555 1_555
C39_4 C42_4 1_555 1_555
N10_4 N11_4 1_555 1_555
N11_4 N12_4 1_555 1_555
N17_4 N26_2 1_555 1_555

#END
