
###############################################################################
#
# This file contains modified crystal structure data generated from the
# MOF subset of the Cambridge Structural Database (CSD) v543 
# hosted by the Cambridge Crystallographic Data Centre (CCDC).
#
# This work is licensed under the Creative Commons
# Attribution-NonCommercial-ShareAlike 4.0 International License.
# To view a copy of this license, visit
# http://creativecommons.org/licenses/by-nc-sa/4.0/
# or send a letter to
# Creative Commons, PO Box 1866, Mountain View, CA 94042, USA.
#
# CIF created using the CSD Python API on 29 September 2022
# The structure has been converted into the P1 space group
# The structure has a 3D framework
# The original CSD entry ESUVAR01 is in the triclinic crystal system
# The framework has been calculated to contain at least 10.0% void space
# The void calculation uses a probe of radius 1.32A, grid spacing 0.4
#
###############################################################################

data_ESUVAR01
_chemical_formula_moiety         '(C34 H28 Co6 N14 O12)n'
_symmetry_cell_setting           triclinic
_symmetry_space_group_name_H-M   'P 1'
_symmetry_Int_Tables_number      1
_space_group_name_Hall           'P 1'
loop_
_symmetry_equiv_pos_site_id
_symmetry_equiv_pos_as_xyz
1 x,y,z
_cell_length_a                   10.6489(8)
_cell_length_b                   10.8857(5)
_cell_length_c                   11.0782(5)
_cell_angle_alpha                84.005(4)
_cell_angle_beta                 89.826(5)
_cell_angle_gamma                63.605(6)
_cell_volume                     1142.67
loop_
_atom_site_label
_atom_site_type_symbol
_atom_site_fract_x
_atom_site_fract_y
_atom_site_fract_z
_atom_site_U_iso_or_equiv
_atom_site_thermal_displace_type
Co5 Co 0.0972(4) 0.8879(2) 0.25445(13) 0.0170 Uani
O8 O 0.1059(15) 0.9174(9) 0.0695(6) 0.0211 Uiso
O10 O 0.0511(19) 0.8955(9) 0.4293(5) 0.0130 Uiso
O13 O 0.0389(19) 0.6715(10) 0.0725(6) 0.0180 Uiso
Co3 Co 0.8438(5) 0.0272(2) 0.47758(13) 0.0234 Uani
O7 O 0.792(2) 0.2319(12) 0.3673(7) 0.0410 Uiso
N7 N 0.756(2) 0.4244(13) 0.2450(9) 0.0450 Uiso
C15 C 0.781(3) 0.2920(14) 0.2638(11) 0.0400 Uiso
H9 H 0.7911 0.2435 0.1973 0.0490 Uiso
C16 C 0.737(4) 0.5104(18) 0.3400(11) 0.0610 Uiso
H10 H 0.7199 0.6012 0.3049 0.0920 Uiso
H11 H 0.6587 0.5159 0.3861 0.0920 Uiso
H12 H 0.8204 0.4714 0.3925 0.0920 Uiso
C17 C 0.739(4) 0.4970(19) 0.1235(11) 0.0690 Uiso
H13 H 0.7212 0.5906 0.1294 0.1030 Uiso
H14 H 0.8231 0.4517 0.0809 0.1030 Uiso
H15 H 0.6614 0.4964 0.0799 0.1030 Uiso
O11 O 0.9489(19) 0.1045(9) 0.5707(5) 0.0130 Uiso
O12 O 0.645(2) 0.1124(11) 0.5414(7) 0.0290 Uiso
N10 N 0.1001(12) 0.0783(8) 0.2608(6) 0.0140 Uiso
Co8 Co 0.0386(4) 0.1278(2) 0.99976(12) 0.0174 Uani
O9 O 0.8941(15) 0.0826(9) 0.9305(6) 0.0211 Uiso
Co2 Co 0.9614(4) 0.8722(2) 0.00024(12) 0.0174 Uani
H1 H 0.2071 0.8720 0.0762 0.0250 Uiso
H2 H 0.0716 0.8088 0.4763 0.0160 Uiso
O3 O 0.355(2) 0.8876(11) 0.4586(7) 0.0290 Uiso
O4 O 0.320(3) 0.8000(13) 0.2953(7) 0.0290 Uiso
O6 O 0.112(2) 0.6931(10) 0.2574(6) 0.0212 Uiso
N1 N 0.8186(16) 0.9272(9) 0.1326(7) 0.0170 Uiso
N2 N 0.8663(17) 0.9596(9) 0.2300(7) 0.0190 Uiso
N3 N 0.7912(17) 0.9578(10) 0.3258(7) 0.0180 Uiso
N4 N 0.0870(14) 0.1690(8) 0.1657(6) 0.0120 Uiso
N6 N 0.1131(13) 0.1193(8) 0.3665(6) 0.0130 Uiso
C1 C 0.6894(17) 0.9237(13) 0.2906(8) 0.0180 Uiso
C2 C 0.7069(18) 0.9045(12) 0.1667(8) 0.0180 Uiso
C3 C 0.513(2) 0.8523(13) 0.1669(9) 0.0230 Uiso
H3 H 0.4521 0.8290 0.1260 0.0280 Uiso
C4 C 0.619(2) 0.8673(13) 0.1045(10) 0.0220 Uiso
H4 H 0.6304 0.8529 0.0231 0.0270 Uiso
C5 C 0.496(2) 0.8713(14) 0.2908(8) 0.0190 Uiso
C6 C 0.5863(19) 0.9049(13) 0.3541(9) 0.0200 Uiso
H5 H 0.5778 0.9145 0.4365 0.0240 Uiso
C7 C 0.382(3) 0.8514(16) 0.3528(10) 0.0220 Uiso
C8 C 0.0921(11) 0.2788(8) 0.2124(7) 0.0140 Uiso
C9 C 0.1083(12) 0.2463(9) 0.3387(7) 0.0130 Uiso
C10 C 0.1173(17) 0.3354(10) 0.4151(8) 0.0150 Uiso
H6 H 0.1288 0.3132 0.4990 0.0180 Uiso
C11 C 0.1085(17) 0.4585(10) 0.3599(7) 0.0110 Uiso
H7 H 0.1133 0.5214 0.4081 0.0130 Uiso
C12 C 0.0925(15) 0.4915(10) 0.2350(8) 0.0160 Uiso
C13 C 0.0838(15) 0.4029(10) 0.1581(8) 0.0150 Uiso
H8 H 0.0730 0.4256 0.0742 0.0180 Uiso
C14 C 0.084(2) 0.6289(12) 0.1826(9) 0.0180 Uiso
Co11 Co 0.1562(5) 0.9728(2) 0.52242(13) 0.0234 Uani
N11 N 0.8869(13) 0.8807(8) 0.6335(6) 0.0130 Uiso
N9 N 0.9130(14) 0.8310(8) 0.8343(6) 0.0120 Uiso
N8 N 0.1337(17) 0.0404(9) 0.7700(7) 0.0190 Uiso
Co4 Co 0.9028(4) 0.1121(2) 0.74555(13) 0.0170 Uani
H1_2 H 0.7929 0.1280 0.9238 0.0250 Uiso
H2_2 H 0.9284 0.1912 0.5237 0.0160 Uiso
O4_2 O 0.680(3) 0.2000(13) 0.7047(7) 0.0290 Uiso
O5 O 0.9611(19) 0.3285(10) 0.9275(6) 0.0180 Uiso
O6_2 O 0.888(2) 0.3069(10) 0.7426(6) 0.0212 Uiso
N1_2 N 0.1814(16) 0.0728(9) 0.8674(7) 0.0170 Uiso
N3_2 N 0.2088(17) 0.0422(10) 0.6742(7) 0.0180 Uiso
N5 N 0.8999(12) 0.9217(8) 0.7392(6) 0.0140 Uiso
C1_2 C 0.3106(17) 0.0763(13) 0.7094(8) 0.0180 Uiso
C2_2 C 0.2931(18) 0.0955(12) 0.8333(8) 0.0180 Uiso
C3_2 C 0.487(2) 0.1477(13) 0.8331(9) 0.0230 Uiso
H3_2 H 0.5479 0.1710 0.8740 0.0280 Uiso
C4_2 C 0.381(2) 0.1327(13) 0.8955(10) 0.0220 Uiso
H4_2 H 0.3696 0.1471 0.9769 0.0270 Uiso
C5_2 C 0.504(2) 0.1287(14) 0.7092(8) 0.0190 Uiso
C6_2 C 0.4137(19) 0.0951(13) 0.6459(9) 0.0200 Uiso
H5_2 H 0.4222 0.0855 0.5635 0.0240 Uiso
C7_2 C 0.618(3) 0.1486(16) 0.6472(10) 0.0220 Uiso
C8_2 C 0.9079(11) 0.7212(8) 0.7876(7) 0.0140 Uiso
C9_2 C 0.8917(12) 0.7537(9) 0.6613(7) 0.0130 Uiso
C10_2 C 0.8827(17) 0.6646(10) 0.5849(8) 0.0150 Uiso
H6_2 H 0.8712 0.6868 0.5010 0.0180 Uiso
C11_2 C 0.8915(17) 0.5415(10) 0.6401(7) 0.0110 Uiso
H7_2 H 0.8867 0.4786 0.5919 0.0130 Uiso
C12_2 C 0.9075(15) 0.5085(10) 0.7650(8) 0.0160 Uiso
C13_2 C 0.9162(15) 0.5971(10) 0.8419(8) 0.0150 Uiso
H8_2 H 0.9270 0.5744 0.9258 0.0180 Uiso
C14_2 C 0.916(2) 0.3711(12) 0.8174(9) 0.0180 Uiso
O7_2 O 0.208(2) 0.7681(12) 0.6327(7) 0.0410 Uiso
N7_2 N 0.244(2) 0.5756(13) 0.7550(9) 0.0450 Uiso
C15_2 C 0.219(3) 0.7080(14) 0.7362(11) 0.0400 Uiso
H9_2 H 0.2089 0.7565 0.8027 0.0490 Uiso
C16_2 C 0.263(4) 0.4896(18) 0.6600(11) 0.0610 Uiso
H10_2 H 0.2801 0.3988 0.6951 0.0920 Uiso
H11_2 H 0.3413 0.4841 0.6139 0.0920 Uiso
H12_2 H 0.1796 0.5286 0.6075 0.0920 Uiso
C17_2 C 0.261(4) 0.5030(19) 0.8765(11) 0.0690 Uiso
H13_2 H 0.2788 0.4094 0.8706 0.1030 Uiso
H14_2 H 0.1769 0.5483 0.9191 0.1030 Uiso
H15_2 H 0.3386 0.5036 0.9201 0.1030 Uiso
loop_
_atom_site_aniso_label
_atom_site_aniso_U_11
_atom_site_aniso_U_22
_atom_site_aniso_U_33
_atom_site_aniso_U_23
_atom_site_aniso_U_13
_atom_site_aniso_U_12
Co5 0.028 0.0141 0.0139 -0.0016 0.0026 -0.014
Co3 0.039 0.0254 0.0157 -0.0034 -0.0001 -0.023
Co8 0.027 0.0166 0.0132 -0.0012 -0.0002 -0.014
Co2 0.027 0.0166 0.0132 -0.0012 -0.0002 -0.014
Co11 0.039 0.0254 0.0157 -0.0034 -0.0001 -0.023
Co4 0.028 0.0141 0.0139 -0.0016 0.0026 -0.014
loop_
_geom_bond_atom_site_label_1
_geom_bond_atom_site_label_2
_geom_bond_site_symmetry_1
_geom_bond_site_symmetry_2
Co5 O8 1_555 1_555
Co5 O10 1_555 1_555
O7 Co3 1_555 1_555
N7 C15 1_555 1_555
C15 O7 1_555 1_555
H9 C15 1_555 1_555
C16 N7 1_555 1_555
H10 C16 1_555 1_555
H11 C16 1_555 1_555
H12 C16 1_555 1_555
C17 N7 1_555 1_555
H13 C17 1_555 1_555
H14 C17 1_555 1_555
H15 C17 1_555 1_555
O11 Co3 1_555 1_555
O12 Co3 1_555 1_555
Co2 N1 1_555 1_555
O8 H1 1_555 1_555
H2 O10 1_555 1_555
O3 C7 1_555 1_555
O4 Co5 1_555 1_555
O13 C14 1_555 1_555
O6 Co5 1_555 1_555
N1 N2 1_555 1_555
N2 N3 1_555 1_555
N3 C1 1_555 1_555
N4 N10 1_555 1_555
N10 N6 1_555 1_555
N6 C9 1_555 1_555
C1 C2 1_555 1_555
C2 N1 1_555 1_555
C3 H3 1_555 1_555
C4 C2 1_555 1_555
H4 C4 1_555 1_555
C5 C3 1_555 1_555
C6 C1 1_555 1_555
H5 C6 1_555 1_555
C7 O4 1_555 1_555
C8 N4 1_555 1_555
C9 C8 1_555 1_555
C10 C9 1_555 1_555
H6 C10 1_555 1_555
C11 C10 1_555 1_555
H7 C11 1_555 1_555
C12 C11 1_555 1_555
C13 C8 1_555 1_555
H8 C13 1_555 1_555
C14 O6 1_555 1_555
Co11 O10 1_555 1_555
O3 Co11 1_555 1_555
C3 C4 1_555 1_555
C5 C6 1_555 1_555
C5 C7 1_555 1_555
C12 C13 1_555 1_555
C12 C14 1_555 1_555
Co4 O9 1_555 1_555
Co8 N1_2 1_555 1_555
O9 H1_2 1_555 1_555
O11 Co4 1_555 1_555
H2_2 O11 1_555 1_555
O12 C7_2 1_555 1_555
O4_2 Co4 1_555 1_555
O5 C14_2 1_555 1_555
O6_2 Co4 1_555 1_555
N1_2 N8 1_555 1_555
N8 N3_2 1_555 1_555
N3_2 C1_2 1_555 1_555
N9 N5 1_555 1_555
N5 N11 1_555 1_555
N11 C9_2 1_555 1_555
C1_2 C2_2 1_555 1_555
C2_2 N1_2 1_555 1_555
C3_2 H3_2 1_555 1_555
C4_2 C2_2 1_555 1_555
H4_2 C4_2 1_555 1_555
C5_2 C3_2 1_555 1_555
C6_2 C1_2 1_555 1_555
H5_2 C6_2 1_555 1_555
C7_2 O4_2 1_555 1_555
C8_2 N9 1_555 1_555
C9_2 C8_2 1_555 1_555
C10_2 C9_2 1_555 1_555
H6_2 C10_2 1_555 1_555
C11_2 C10_2 1_555 1_555
H7_2 C11_2 1_555 1_555
C12_2 C11_2 1_555 1_555
C13_2 C8_2 1_555 1_555
H8_2 C13_2 1_555 1_555
C14_2 O6_2 1_555 1_555
C3_2 C4_2 1_555 1_555
C5_2 C6_2 1_555 1_555
C5_2 C7_2 1_555 1_555
C12_2 C13_2 1_555 1_555
C12_2 C14_2 1_555 1_555
O7_2 Co11 1_555 1_555
N7_2 C15_2 1_555 1_555
C15_2 O7_2 1_555 1_555
H9_2 C15_2 1_555 1_555
C16_2 N7_2 1_555 1_555
H10_2 C16_2 1_555 1_555
H11_2 C16_2 1_555 1_555
H12_2 C16_2 1_555 1_555
C17_2 N7_2 1_555 1_555
H13_2 C17_2 1_555 1_555
H14_2 C17_2 1_555 1_555
H15_2 C17_2 1_555 1_555

#END
