
###############################################################################
#
# This file contains modified crystal structure data generated from the
# MOF subset of the Cambridge Structural Database (CSD) v543 
# hosted by the Cambridge Crystallographic Data Centre (CCDC).
#
# This work is licensed under the Creative Commons
# Attribution-NonCommercial-ShareAlike 4.0 International License.
# To view a copy of this license, visit
# http://creativecommons.org/licenses/by-nc-sa/4.0/
# or send a letter to
# Creative Commons, PO Box 1866, Mountain View, CA 94042, USA.
#
# CIF created using the CSD Python API on 29 September 2022
# The structure has been converted into the P1 space group
# The structure has a 3D framework
# The original CSD entry ETAXUT is in the trigonal crystal system
# The original CSD entry ETAXUT is in a Sohncke space group
# The framework has been calculated to contain at least 10.0% void space
# The void calculation uses a probe of radius 1.32A, grid spacing 0.4
#
###############################################################################

data_ETAXUT
_chemical_formula_moiety         '(C684 H372 N12 O163 Zn41)n'
_symmetry_cell_setting           triclinic
_symmetry_space_group_name_H-M   'P 1'
_symmetry_Int_Tables_number      1
_space_group_name_Hall           'P 1'
loop_
_symmetry_equiv_pos_site_id
_symmetry_equiv_pos_as_xyz
1 x,y,z
_cell_length_a                   29.536(2)
_cell_length_b                   29.536(2)
_cell_length_c                   41.760(6)
_cell_angle_alpha                90
_cell_angle_beta                 90
_cell_angle_gamma                120
_cell_volume                     31549.6
loop_
_atom_site_label
_atom_site_type_symbol
_atom_site_fract_x
_atom_site_fract_y
_atom_site_fract_z
Zn5 Zn 0.29247(5) 0.27039(7) 0.35775(3)
Zn11 Zn 0.40425(5) 0.37000(7) 0.35851(3)
Zn12 Zn 0.33106(6) 0.34881(8) 0.29859(4)
Zn18 Zn 0.30560(6) 0.38349(8) 0.36502(4)
O14 O 0.3338(3) 0.3421(4) 0.34576(16)
O17 O 0.2770(3) 0.2190(4) 0.32315(18)
O18 O 0.2954(3) 0.2765(4) 0.28271(17)
O21 O 0.2258(4) 0.2522(3) 0.3773(2)
C55 C 0.2825(5) 0.2312(7) 0.2940(2)
C56 C 0.2653(4) 0.1882(5) 0.27059(17)
C57 C 0.2506(4) 0.1379(5) 0.28054(14)
H25 H 0.2507 0.1305 0.3026
C58 C 0.2356(4) 0.0981(5) 0.2581(2)
H26 H 0.2256 0.0637 0.2649
C59 C 0.2354(4) 0.1088(6) 0.22570(18)
C60 C 0.2502(4) 0.1593(6) 0.21575(14)
H27 H 0.2500 0.1665 0.1936
C61 C 0.2651(4) 0.1989(5) 0.23819(18)
H28 H 0.2752 0.2334 0.2314
C62 C 0.2163(6) 0.0663(8) 0.2027(3)
C63 C 0.2013(7) 0.0339(10) 0.1825(4)
O23 O 0.3310(3) 0.2544(4) 0.38995(18)
O28 O 0.4026(3) 0.3653(4) 0.2851(2)
O36 O 0.2639(8) 0.3536(8) 0.2973(4)
Zn10 Zn 0.63000(7) 0.03425(5) 0.69185(3)
O29 O 0.5802(6) 0.0058(4) 0.7267(2)
H44 H 0.5169 0.0112 0.7625
Zn4 Zn 0.07789(6) 0.69440(6) 0.03169(4)
O1 O 0.0083(3) 0.6662(3) 0.01243(16)
O11 O 0.0639(5) 0.6469(5) 0.0687(3)
O12 O 0.2629(5) 0.3987(6) 0.3384(3)
C37 C 0.0289(7) 0.6026(6) 0.0776(4)
C38 C 0.0468(5) 0.5809(5) 0.1032(3)
C39 C 0.0875(6) 0.6131(5) 0.1236(4)
H17 H 0.1081 0.6495 0.1192
C40 C 0.0982(6) 0.5922(6) 0.1504(3)
H18 H 0.1261 0.6143 0.1643
C41 C 0.0682(7) 0.5391(6) 0.1569(3)
C42 C 0.0274(6) 0.5068(5) 0.1365(4)
H19 H 0.0069 0.4705 0.1410
C43 C 0.0167(5) 0.5277(5) 0.1097(3)
C44 C 0.0864(10) 0.5193(9) 0.1822(5)
C45 C 0.1041(11) 0.4969(12) 0.1966(7)
C46 C 0.1390(11) 0.4897(12) 0.2152(7)
C47 C 0.1478(11) 0.4672(11) 0.2372(5)
C48 C 0.1717(6) 0.4443(7) 0.2564(4)
C49 C 0.1832(6) 0.4571(6) 0.2886(4)
H21 H 0.1726 0.4790 0.2988
C50 C 0.2102(7) 0.4377(6) 0.3057(3)
H22 H 0.2181 0.4464 0.3277
C51 C 0.2257(6) 0.4056(7) 0.2907(4)
C52 C 0.2142(6) 0.3929(6) 0.2586(4)
H23 H 0.2248 0.3709 0.2483
C53 C 0.1872(6) 0.4122(6) 0.2414(3)
H24 H 0.1793 0.4035 0.2194
C54 C 0.2493(10) 0.3808(9) 0.3117(4)
O19 O 0.0823(4) 0.7505(5) 0.0603(2)
O20 O 0.0264(3) 0.7742(4) 0.0439(2)
C64 C 0.1824(8) 0.9963(11) 0.1593(4)
C65 C 0.1634(7) 0.9597(9) 0.1413(4)
C66 C 0.1415(3) 0.9162(5) 0.1193(2)
C67 C 0.1526(3) 0.8759(4) 0.12249(19)
H29 H 0.1774 0.8785 0.1379
C68 C 0.1277(4) 0.8321(5) 0.1029(2)
H30 H 0.1353 0.8046 0.1051
C69 C 0.0915(3) 0.8285(4) 0.0803(2)
C70 C 0.0803(3) 0.8687(4) 0.07720(19)
H31 H 0.0556 0.8662 0.0617
C71 C 0.1053(4) 0.9126(5) 0.0967(2)
H32 H 0.0977 0.9401 0.0945
C72 C 0.0658(5) 0.7816(6) 0.0591(3)
O33 O 0.1358(8) 0.7371(5) 0.0051(3)
Zn3 Zn 0.01775(6) 0.66894(6) 0.96526(4)
Zn17 Zn 0.61651(8) 0.92211(6) 0.69836(4)
O31 O 0.5830(7) 0.9361(5) 0.7354(3)
O35 O 0.0897(11) 0.7361(8) 0.9640(4)
C91 C 0.5737(9) 0.9711(7) 0.7443(4)
C92 C 0.5341(7) 0.9532(5) 0.7699(3)
C93 C 0.5256(8) 0.9125(6) 0.7903(4)
H41 H 0.5414 0.8919 0.7859
C94 C 0.4940(8) 0.9018(6) 0.8171(3)
H42 H 0.4882 0.8739 0.8310
C95 C 0.4709(9) 0.9318(7) 0.8236(3)
C96 C 0.4794(8) 0.9726(6) 0.8032(4)
H43 H 0.4636 0.9931 0.8077
C97 C 0.5110(7) 0.9833(5) 0.7764(3)
C98 C 0.4329(13) 0.9136(10) 0.8489(5)
C99 C 0.3928(16) 0.8959(11) 0.8633(7)
C100 C 0.3507(16) 0.8610(11) 0.8819(7)
C101 C 0.3194(16) 0.8522(11) 0.9039(5)
C102 C 0.2726(9) 0.8283(6) 0.9231(4)
C103 C 0.2739(8) 0.8168(6) 0.9553(4)
H45 H 0.3064 0.8274 0.9655
C104 C 0.2275(9) 0.7898(7) 0.9724(3)
H46 H 0.2283 0.7819 0.9944
C105 C 0.1799(9) 0.7743(6) 0.9574(4)
C106 C 0.1787(8) 0.7858(6) 0.9253(4)
H47 H 0.1461 0.7752 0.9150
C107 C 0.2250(8) 0.8128(6) 0.9081(3)
H48 H 0.2242 0.8207 0.8861
C108 C 0.1315(13) 0.7507(10) 0.9784(4)
Zn6 Zn 0.72961(7) 0.02208(5) 0.69109(3)
Zn1 Zn 0.97792(5) 0.70753(5) 0.02442(3)
Zn2 Zn 0.96575(5) 0.59575(5) 0.02518(3)
O6 O 0.9234(3) 0.6690(3) 0.05662(18)
O7 O 0.9006(3) 0.5880(3) 0.04388(18)
O8 O 0.4589(3) 0.4003(4) 0.3254(2)
C19 C 0.8927(4) 0.6205(4) 0.0580(2)
C20 C 0.8465(2) 0.6008(3) 0.07905(16)
C21 C 0.8093(3) 0.5479(3) 0.07908(17)
H9 H 0.8128 0.5247 0.0648
C22 C 0.7670(3) 0.5288(2) 0.0999(2)
H10 H 0.7416 0.4927 0.1000
C23 C 0.7619(3) 0.5627(3) 0.12076(18)
C24 C 0.7990(3) 0.6156(3) 0.12074(18)
H11 H 0.7955 0.6388 0.1350
C25 C 0.8413(3) 0.6347(2) 0.09988(19)
H12 H 0.8667 0.6708 0.0999
C26 C 0.7180(5) 0.5409(5) 0.1427(3)
C27 C 0.6853(5) 0.5197(5) 0.1628(3)
C28 C 0.6455(5) 0.4973(6) 0.1839(3)
C29 C 0.6127(5) 0.4782(6) 0.2041(3)
C30 C 0.5728(3) 0.4509(4) 0.22859(17)
C31 C 0.5229(3) 0.4124(4) 0.21963(14)
H13 H 0.5162 0.4001 0.1982
C32 C 0.4827(2) 0.3919(3) 0.24206(19)
H14 H 0.4486 0.3656 0.2359
C33 C 0.4925(3) 0.4099(3) 0.27346(17)
C34 C 0.5425(3) 0.4484(3) 0.28242(15)
H15 H 0.5492 0.4607 0.3039
C35 C 0.5826(2) 0.4689(3) 0.25998(19)
H16 H 0.6168 0.4952 0.2661
C36 C 0.4489(4) 0.3920(5) 0.2966(3)
O10 O 0.9942(4) 0.5744(4) 0.0600(2)
H20 H 0.9888 0.5057 0.0958
O25 O 0.4120(3) 0.3126(4) 0.37721(18)
O30 O 0.4256(4) 0.4198(6) 0.3933(2)
O2 O 0.9420(3) 0.7230(3) 0.98982(18)
O3 O 0.9811(3) 0.7046(3) 0.94938(17)
O4 O 0.6682(3) 0.9177(4) 0.7270(2)
O5 O 0.7478(3) 0.9736(3) 0.7106(2)
C1 C 0.9487(5) 0.7175(5) 0.9607(2)
C2 C 0.9229(3) 0.7347(4) 0.93726(17)
C3 C 0.8873(3) 0.7494(4) 0.94721(14)
H1 H 0.8798 0.7493 0.9693
C4 C 0.8625(3) 0.7644(4) 0.9248(2)
H2 H 0.8381 0.7744 0.9316
C5 C 0.8734(4) 0.7646(4) 0.89237(18)
C6 C 0.9091(4) 0.7498(4) 0.88242(14)
H3 H 0.9165 0.7500 0.8603
C7 C 0.9338(3) 0.7349(4) 0.90486(18)
H4 H 0.9582 0.7248 0.8981
C8 C 0.8500(6) 0.7837(6) 0.8694(3)
C9 C 0.8326(7) 0.7987(7) 0.8492(4)
C10 C 0.8139(7) 0.8176(8) 0.8260(4)
C11 C 0.7963(6) 0.8366(7) 0.8080(4)
C12 C 0.7747(4) 0.8585(3) 0.7860(2)
C13 C 0.7233(3) 0.8474(3) 0.78916(19)
H5 H 0.7011 0.8226 0.8046
C14 C 0.7044(3) 0.8723(4) 0.7696(2)
H6 H 0.6693 0.8647 0.7718
C15 C 0.7370(3) 0.9085(3) 0.7470(2)
C16 C 0.7884(3) 0.9197(3) 0.74387(19)
H7 H 0.8106 0.9444 0.7284
C17 C 0.8073(3) 0.8947(4) 0.7634(2)
H8 H 0.8424 0.9023 0.7612
C18 C 0.7158(4) 0.9342(5) 0.7258(3)
O16 O 0.6579(4) 0.9917(3) 0.67910(16)
O22 O 0.7456(4) 0.0766(3) 0.72329(18)
O24 O 0.6874(4) 0.0994(3) 0.71055(18)
O26 O 0.9414(5) 0.5411(3) 0.9921(2)
O27 O 0.9627(5) 0.5974(3) 0.9518(2)
C73 C 0.7278(6) 0.1073(4) 0.7247(2)
C74 C 0.7543(4) 0.1535(2) 0.74572(16)
C75 C 0.7386(4) 0.1907(3) 0.74575(17)
H33 H 0.7119 0.1872 0.7315
C76 C 0.7618(4) 0.2330(3) 0.7666(2)
H34 H 0.7511 0.2584 0.7667
C77 C 0.8008(4) 0.2381(3) 0.78743(18)
C78 C 0.8166(4) 0.2010(3) 0.78741(18)
H35 H 0.8433 0.2045 0.8017
C79 C 0.7934(4) 0.1587(3) 0.76655(19)
H36 H 0.8041 0.1333 0.7666
C80 C 0.8229(7) 0.2820(5) 0.8094(3)
C81 C 0.8344(7) 0.3147(5) 0.8295(3)
C82 C 0.8518(8) 0.3545(5) 0.8506(3)
C83 C 0.8655(8) 0.3873(5) 0.8708(3)
C84 C 0.8781(5) 0.4272(3) 0.89526(17)
C85 C 0.8895(5) 0.4771(3) 0.88630(14)
H37 H 0.8839 0.4838 0.8649
C86 C 0.9092(4) 0.5173(2) 0.90873(19)
H38 H 0.9170 0.5514 0.9026
C87 C 0.9174(4) 0.5075(3) 0.94013(17)
C88 C 0.9059(4) 0.4575(3) 0.94909(15)
H39 H 0.9115 0.4508 0.9706
C89 C 0.8863(4) 0.4174(2) 0.92665(19)
H40 H 0.8784 0.3832 0.9328
C90 C 0.9431(6) 0.5511(4) 0.9633(3)
O34 O 0.6013(6) 0.8642(8) 0.6717(3)
O8_2 O 0.5997(4) 0.0586(5) 0.6587(2)
O9 O 0.6347(4) 0.0373(5) 0.6184(2)
C19_2 C 0.3795(4) 0.2722(6) 0.3913(2)
C20_2 C 0.3992(3) 0.2457(4) 0.41238(16)
C21_2 C 0.4521(3) 0.2614(4) 0.41241(17)
H9_2 H 0.4753 0.2881 0.3981
C22_2 C 0.4712(2) 0.2382(4) 0.4332(2)
H10_2 H 0.5073 0.2489 0.4333
C23_2 C 0.4373(3) 0.1992(4) 0.45409(18)
C24_2 C 0.3844(3) 0.1834(4) 0.45407(18)
H11_2 H 0.3612 0.1567 0.4683
C25_2 C 0.3653(2) 0.2066(4) 0.43321(19)
H12_2 H 0.3292 0.1959 0.4332
C26_2 C 0.4591(5) 0.1771(7) 0.4760(3)
C27_2 C 0.4803(5) 0.1656(7) 0.4961(3)
C28_2 C 0.5027(6) 0.1482(8) 0.5172(3)
C29_2 C 0.5218(6) 0.1345(8) 0.5374(3)
C30_2 C 0.5491(4) 0.1219(5) 0.56192(17)
C31_2 C 0.5876(4) 0.1105(5) 0.55296(14)
H13_2 H 0.5999 0.1161 0.5315
C32_2 C 0.6081(3) 0.0908(4) 0.57539(19)
H14_2 H 0.6344 0.0830 0.5692
C33_2 C 0.5901(3) 0.0826(4) 0.60679(17)
C34_2 C 0.5516(3) 0.0941(4) 0.61575(15)
H15_2 H 0.5393 0.0885 0.6372
C35_2 C 0.5311(3) 0.1137(4) 0.59331(19)
H16_2 H 0.5048 0.1216 0.5994
C36_2 C 0.6080(5) 0.0569(6) 0.6299(3)
O11_2 O 0.3531(5) 0.4170(7) 0.4020(3)
O13 O 0.6464(8) 0.9103(11) 0.6306(4)
C37_2 C 0.3974(6) 0.4263(9) 0.4109(4)
C38_2 C 0.4191(5) 0.4659(7) 0.4365(3)
C39_2 C 0.3869(5) 0.4744(8) 0.4569(4)
H17_2 H 0.3505 0.4586 0.4525
C40_2 C 0.4078(6) 0.5060(8) 0.4837(3)
H18_2 H 0.3857 0.5118 0.4976
C41_2 C 0.4609(6) 0.5291(9) 0.4902(3)
C42_2 C 0.4932(5) 0.5206(8) 0.4698(4)
H19_2 H 0.5295 0.5364 0.4743
C43_2 C 0.4723(5) 0.4890(7) 0.4430(3)
H20_2 H 0.4943 0.4831 0.4291
C44_2 C 0.4807(9) 0.5671(13) 0.5155(5)
C45_2 C 0.5031(12) 0.6072(16) 0.5299(7)
C46_2 C 0.5103(12) 0.6493(16) 0.5485(7)
C47_2 C 0.5328(11) 0.6806(16) 0.5705(5)
C48_2 C 0.5557(7) 0.7274(9) 0.5897(4)
C49_2 C 0.5429(6) 0.7261(8) 0.6219(4)
H21_2 H 0.5210 0.6936 0.6321
C50_2 C 0.5623(6) 0.7725(9) 0.6390(3)
H22_2 H 0.5536 0.7717 0.6610
C51_2 C 0.5944(7) 0.8201(9) 0.6240(4)
C52_2 C 0.6071(6) 0.8213(8) 0.5919(4)
H23_2 H 0.6291 0.8539 0.5816
C53_2 C 0.5878(6) 0.7750(8) 0.5747(3)
H24_2 H 0.5965 0.7758 0.5527
C54_2 C 0.6192(9) 0.8685(13) 0.6450(4)
Zn14 Zn 0.65119(8) 0.98225(10) 0.63193(4)
O19_2 O 0.2495(5) 0.3318(6) 0.3937(2)
C64_2 C 0.0037(11) 0.1861(14) 0.4927(4)
C65_2 C 0.0403(9) 0.2037(11) 0.4747(4)
C66_2 C 0.0838(5) 0.2253(6) 0.4527(2)
C67_2 C 0.1241(4) 0.2767(5) 0.45583(19)
H29_2 H 0.1215 0.2989 0.4713
C68_2 C 0.1679(5) 0.2956(6) 0.4363(2)
H30_2 H 0.1954 0.3307 0.4385
C69_2 C 0.1715(4) 0.2630(5) 0.4137(2)
C70_2 C 0.1313(4) 0.2116(5) 0.41054(19)
H31_2 H 0.1338 0.1894 0.3951
C71_2 C 0.0874(5) 0.1927(6) 0.4301(2)
H32_2 H 0.0599 0.1576 0.4279
C72_2 C 0.2184(6) 0.2842(8) 0.3925(3)
O17_2 O 0.7810(4) 0.0580(5) 0.65649(18)
O18_2 O 0.7235(4) 0.0189(5) 0.61605(17)
C55_2 C 0.7688(7) 0.0513(9) 0.6274(2)
C56_2 C 0.8118(5) 0.0771(6) 0.60393(17)
C57_2 C 0.8621(5) 0.1127(6) 0.61388(14)
H25_2 H 0.8695 0.1202 0.6360
C58_2 C 0.9019(5) 0.1375(6) 0.5915(2)
H26_2 H 0.9363 0.1619 0.5983
C59_2 C 0.8912(6) 0.1266(7) 0.55904(18)
C60_2 C 0.8407(6) 0.0909(7) 0.54909(14)
H27_2 H 0.8335 0.0835 0.5270
C61_2 C 0.8011(5) 0.0662(6) 0.57153(18)
H28_2 H 0.7666 0.0418 0.5648
C62_2 C 0.9337(8) 0.1500(10) 0.5361(3)
C63_2 C 0.9661(10) 0.1674(12) 0.5159(4)
Zn1_2 Zn 0.29247(5) 0.02208(5) 0.64225(3)
Zn2_2 Zn 0.40425(5) 0.03425(5) 0.64149(3)
O2_2 O 0.2770(3) 0.0580(3) 0.67685(18)
O3_2 O 0.2954(3) 0.0189(3) 0.71729(17)
O4_2 O 0.0823(4) 0.3318(3) 0.9397(2)
O5_2 O 0.0264(3) 0.2522(3) 0.9561(2)
C1_2 C 0.2825(5) 0.0513(5) 0.7060(2)
C2_2 C 0.2653(4) 0.0771(3) 0.72941(17)
C3_2 C 0.2506(4) 0.1127(3) 0.71946(14)
H1_2 H 0.2507 0.1202 0.6974
C4_2 C 0.2356(4) 0.1375(3) 0.7419(2)
H2_2 H 0.2256 0.1619 0.7351
C5_2 C 0.2354(4) 0.1266(4) 0.77430(18)
C6_2 C 0.2502(4) 0.0909(4) 0.78425(14)
H3_2 H 0.2500 0.0835 0.8064
C7_2 C 0.2651(4) 0.0662(3) 0.76181(18)
H4_2 H 0.2752 0.0418 0.7686
C8_2 C 0.2163(6) 0.1500(6) 0.7973(3)
C9_2 C 0.2013(7) 0.1674(7) 0.8175(4)
C10_2 C 0.1824(8) 0.1861(7) 0.8407(4)
C11_2 C 0.1634(7) 0.2037(6) 0.8587(4)
C12_2 C 0.1415(3) 0.2253(4) 0.8807(2)
C13_2 C 0.1526(3) 0.2767(3) 0.87751(19)
H5_2 H 0.1774 0.2989 0.8621
C14_2 C 0.1277(4) 0.2956(3) 0.8971(2)
H6_2 H 0.1353 0.3307 0.8949
C15_2 C 0.0915(3) 0.2630(3) 0.9197(2)
C16_2 C 0.0803(3) 0.2116(3) 0.92280(19)
H7_2 H 0.0556 0.1894 0.9383
C17_2 C 0.1053(4) 0.1927(3) 0.9033(2)
H8_2 H 0.0977 0.1576 0.9055
C18_2 C 0.0658(5) 0.2842(4) 0.9409(3)
O6_2 O 0.3310(3) 0.0766(3) 0.61005(18)
O7_2 O 0.4120(3) 0.0994(3) 0.62279(18)
O8_3 O 0.5997(4) 0.5411(3) 0.3413(2)
O9_2 O 0.6347(4) 0.5974(3) 0.3816(2)
C19_3 C 0.3795(4) 0.1073(4) 0.6087(2)
C20_3 C 0.3992(3) 0.1535(2) 0.58762(16)
C21_3 C 0.4521(3) 0.1907(3) 0.58759(17)
H9_3 H 0.4753 0.1872 0.6019
C22_3 C 0.4712(2) 0.2330(3) 0.5668(2)
H10_3 H 0.5073 0.2584 0.5667
C23_3 C 0.4373(3) 0.2381(3) 0.54591(18)
C24_3 C 0.3844(3) 0.2010(3) 0.54593(18)
H11_3 H 0.3612 0.2045 0.5317
C25_3 C 0.3653(2) 0.1587(3) 0.56679(19)
H12_3 H 0.3292 0.1333 0.5668
C26_3 C 0.4591(5) 0.2820(5) 0.5240(3)
C27_3 C 0.4803(5) 0.3147(5) 0.5039(3)
C28_3 C 0.5027(6) 0.3545(5) 0.4828(3)
C29_3 C 0.5218(6) 0.3873(5) 0.4626(3)
C30_3 C 0.5491(4) 0.4272(3) 0.43808(17)
C31_3 C 0.5876(4) 0.4771(3) 0.44704(14)
H13_3 H 0.5999 0.4838 0.4685
C32_3 C 0.6081(3) 0.5173(2) 0.42461(19)
H14_3 H 0.6344 0.5514 0.4308
C33_3 C 0.5901(3) 0.5075(3) 0.39321(17)
C34_3 C 0.5516(3) 0.4575(3) 0.38425(15)
H15_3 H 0.5393 0.4508 0.3628
C35_3 C 0.5311(3) 0.4174(2) 0.40669(19)
H16_3 H 0.5048 0.3832 0.4006
C36_3 C 0.6080(5) 0.5511(4) 0.3701(3)
O10_2 O 0.4256(4) 0.0058(4) 0.6067(2)
H20_3 H 0.4943 0.0112 0.5709
Zn7 Zn 0.97792(5) 0.27039(7) 0.97558(3)
Zn8 Zn 0.63000(7) 0.59575(5) 0.30815(3)
Zn9 Zn 0.96575(5) 0.37000(7) 0.97482(3)
Zn13 Zn 0.65119(8) 0.66894(6) 0.36807(4)
Zn15 Zn 0.07789(6) 0.38349(8) 0.96831(4)
O15 O 0.6579(4) 0.6662(3) 0.32090(16)
O16_2 O 0.0083(3) 0.3421(4) 0.98757(16)
O22_2 O 0.9234(3) 0.2544(4) 0.94338(18)
O24_2 O 0.9006(3) 0.3126(4) 0.95612(18)
O25_2 O 0.6874(4) 0.5880(3) 0.28945(18)
O26_2 O 0.4589(3) 0.0586(5) 0.6746(2)
O27_2 O 0.4026(3) 0.0373(5) 0.7149(2)
C73_2 C 0.8927(4) 0.2722(6) 0.9420(2)
C74_2 C 0.8465(2) 0.2457(4) 0.92095(16)
C75_2 C 0.8093(3) 0.2614(4) 0.92092(17)
H33_2 H 0.8128 0.2881 0.9352
C76_2 C 0.7670(3) 0.2382(4) 0.9001(2)
H34_2 H 0.7416 0.2489 0.9000
C77_2 C 0.7619(3) 0.1992(4) 0.87924(18)
C78_2 C 0.7990(3) 0.1834(4) 0.87926(18)
H35_2 H 0.7955 0.1567 0.8650
C79_2 C 0.8413(3) 0.2066(4) 0.90012(19)
H36_2 H 0.8667 0.1959 0.9001
C80_2 C 0.7180(5) 0.1771(7) 0.8573(3)
C81_2 C 0.6853(5) 0.1656(7) 0.8372(3)
C82_2 C 0.6455(5) 0.1482(8) 0.8161(3)
C83_2 C 0.6127(5) 0.1345(8) 0.7959(3)
C84_2 C 0.5728(3) 0.1219(5) 0.77141(17)
C85_2 C 0.5229(3) 0.1105(5) 0.78037(14)
H37_2 H 0.5162 0.1161 0.8018
C86_2 C 0.4827(2) 0.0908(4) 0.75794(19)
H38_2 H 0.4486 0.0830 0.7641
C87_2 C 0.4925(3) 0.0826(4) 0.72654(17)
C88_2 C 0.5425(3) 0.0941(4) 0.71758(15)
H39_2 H 0.5492 0.0885 0.6961
C89_2 C 0.5826(2) 0.1137(4) 0.74002(19)
H40_2 H 0.6168 0.1216 0.7339
C90_2 C 0.4489(4) 0.0569(6) 0.7034(3)
O30_2 O 0.5802(6) 0.5744(4) 0.2733(2)
O32 O 0.0639(5) 0.4170(7) 0.9313(3)
O34_2 O 0.1358(8) 0.3987(6) 0.9949(3)
Zn3_2 Zn 0.33106(6) 0.98225(6) 0.70141(4)
Zn4_2 Zn 0.30560(6) 0.92211(6) 0.63498(4)
O1_2 O 0.3338(3) 0.9917(3) 0.65424(16)
O11_3 O 0.3531(5) 0.9361(5) 0.5980(3)
O12_2 O 0.6013(6) 0.7371(5) 0.3283(3)
O13_2 O 0.6464(8) 0.7361(8) 0.3694(4)
C37_3 C 0.3974(6) 0.9711(7) 0.5891(4)
C38_3 C 0.4191(5) 0.9532(5) 0.5635(3)
C39_3 C 0.3869(5) 0.9125(6) 0.5431(4)
H17_3 H 0.3505 0.8919 0.5475
C40_3 C 0.4078(6) 0.9018(6) 0.5163(3)
H18_3 H 0.3857 0.8739 0.5024
C41_3 C 0.4609(6) 0.9318(7) 0.5098(3)
C42_3 C 0.4932(5) 0.9726(6) 0.5302(4)
H19_3 H 0.5295 0.9931 0.5257
C43_3 C 0.4723(5) 0.9833(5) 0.5570(3)
C44_3 C 0.4807(9) 0.9136(10) 0.4845(5)
C45_3 C 0.5031(12) 0.8959(11) 0.4701(7)
C46_3 C 0.5103(12) 0.8610(11) 0.4515(7)
C47_3 C 0.5328(11) 0.8522(11) 0.4295(5)
C48_3 C 0.5557(7) 0.8283(6) 0.4103(4)
C49_3 C 0.5429(6) 0.8168(6) 0.3781(4)
H21_3 H 0.5210 0.8274 0.3679
C50_3 C 0.5623(6) 0.7898(7) 0.3610(3)
H22_3 H 0.5536 0.7819 0.3390
C51_3 C 0.5944(7) 0.7743(6) 0.3760(4)
C52_3 C 0.6071(6) 0.7858(6) 0.4081(4)
H23_3 H 0.6291 0.7752 0.4184
C53_3 C 0.5878(6) 0.8128(6) 0.4253(3)
H24_3 H 0.5965 0.8207 0.4473
C54_3 C 0.6192(9) 0.7507(10) 0.3550(4)
Zn16 Zn 0.61651(8) 0.69440(6) 0.30164(4)
O19_3 O 0.2495(5) 0.9177(4) 0.6063(2)
O20_2 O 0.2258(4) 0.9736(3) 0.6227(2)
C64_3 C 0.0037(11) 0.8176(8) 0.5073(4)
C65_3 C 0.0403(9) 0.8366(7) 0.5253(4)
C66_3 C 0.0838(5) 0.8585(3) 0.5473(2)
C67_3 C 0.1241(4) 0.8474(3) 0.54417(19)
H29_3 H 0.1215 0.8226 0.5287
C68_3 C 0.1679(5) 0.8723(4) 0.5637(2)
H30_3 H 0.1954 0.8647 0.5615
C69_3 C 0.1715(4) 0.9085(3) 0.5863(2)
C70_3 C 0.1313(4) 0.9197(3) 0.58946(19)
H31_3 H 0.1338 0.9444 0.6049
C71_3 C 0.0874(5) 0.8947(4) 0.5699(2)
H32_3 H 0.0599 0.9023 0.5721
C72_3 C 0.2184(6) 0.9342(5) 0.6075(3)
O33_2 O 0.2629(5) 0.8642(8) 0.6616(3)
O35_2 O 0.2639(8) 0.9103(11) 0.7027(4)
C91_2 C 0.0289(7) 0.4263(9) 0.9224(4)
C92_2 C 0.0468(5) 0.4659(7) 0.8968(3)
C93_2 C 0.0875(6) 0.4744(8) 0.8764(4)
H41_2 H 0.1081 0.4586 0.8808
C94_2 C 0.0982(6) 0.5060(8) 0.8496(3)
H42_2 H 0.1261 0.5118 0.8357
C95_2 C 0.0682(7) 0.5291(9) 0.8431(3)
C96_2 C 0.0274(6) 0.5206(8) 0.8635(4)
H43_2 H 0.0069 0.5364 0.8590
C97_2 C 0.0167(5) 0.4890(7) 0.8903(3)
C98_2 C 0.0864(10) 0.5671(13) 0.8178(5)
C99_2 C 0.1041(11) 0.6072(16) 0.8034(7)
C100_2 C 0.1390(11) 0.6493(16) 0.7848(7)
C101_2 C 0.1478(11) 0.6806(16) 0.7628(5)
C102_2 C 0.1717(6) 0.7274(9) 0.7436(4)
C103_2 C 0.1832(6) 0.7261(8) 0.7114(4)
H45_2 H 0.1726 0.6936 0.7012
C104_2 C 0.2102(7) 0.7725(9) 0.6943(3)
H46_2 H 0.2181 0.7717 0.6723
C105_2 C 0.2257(6) 0.8201(9) 0.7093(4)
C106_2 C 0.2142(6) 0.8213(8) 0.7414(4)
H47_2 H 0.2248 0.8539 0.7517
C107_2 C 0.1872(6) 0.7750(8) 0.7586(3)
H48_2 H 0.1793 0.7758 0.7806
C108_2 C 0.2493(10) 0.8685(13) 0.6883(4)
Zn5_2 Zn 0.72961(7) 0.70753(5) 0.30891(3)
O17_3 O 0.7810(4) 0.7230(3) 0.34351(18)
O18_3 O 0.7235(4) 0.7046(3) 0.38395(17)
O21_2 O 0.7478(3) 0.7742(4) 0.2894(2)
C55_3 C 0.7688(7) 0.7175(5) 0.3726(2)
C56_3 C 0.8118(5) 0.7347(4) 0.39607(17)
C57_3 C 0.8621(5) 0.7494(4) 0.38612(14)
H25_3 H 0.8695 0.7493 0.3640
C58_3 C 0.9019(5) 0.7644(4) 0.4085(2)
H26_3 H 0.9363 0.7744 0.4017
C59_3 C 0.8912(6) 0.7646(4) 0.44096(18)
C60_3 C 0.8407(6) 0.7498(4) 0.45091(14)
H27_3 H 0.8335 0.7500 0.4730
C61_3 C 0.8011(5) 0.7349(4) 0.42847(18)
H28_3 H 0.7666 0.7248 0.4352
C62_3 C 0.9337(8) 0.7837(6) 0.4639(3)
C63_3 C 0.9661(10) 0.7987(7) 0.4841(4)
O23_2 O 0.7456(4) 0.6690(3) 0.27671(18)
O29_2 O 0.9942(4) 0.4198(6) 0.9400(2)
H44_2 H 0.9888 0.4831 0.9042
Zn12_2 Zn 0.01775(10) 0.34881(8) 0.03474(4)
O36_2 O 0.0897(11) 0.3536(8) 0.0360(4)
O17_4 O 0.9420(5) 0.2190(4) 0.01018(18)
O18_4 O 0.9811(5) 0.2765(4) 0.05062(17)
C55_4 C 0.9487(9) 0.2312(7) 0.0393(2)
C56_4 C 0.9229(6) 0.1882(5) 0.06274(17)
C57_4 C 0.8873(6) 0.1379(5) 0.05279(14)
H25_4 H 0.8798 0.1305 0.0307
C58_4 C 0.8625(6) 0.0981(5) 0.0752(2)
H26_4 H 0.8381 0.0637 0.0684
C59_4 C 0.8734(7) 0.1088(6) 0.10763(18)
C60_4 C 0.9091(7) 0.1593(6) 0.11758(14)
H27_4 H 0.9165 0.1665 0.1397
C61_4 C 0.9338(6) 0.1989(5) 0.09514(18)
H28_4 H 0.9582 0.2334 0.1019
C62_4 C 0.8500(10) 0.0663(8) 0.1306(3)
C63_4 C 0.8326(12) 0.0339(10) 0.1508(4)
O28_2 O 0.9627(5) 0.3653(4) 0.0482(2)
O8_4 O 0.9414(5) 0.4003(4) 0.0079(2)
C19_4 C 0.7278(6) 0.6205(4) 0.2753(2)
C20_4 C 0.7543(4) 0.6008(3) 0.25428(16)
C21_4 C 0.7386(4) 0.5479(3) 0.25425(17)
H9_4 H 0.7119 0.5247 0.2685
C22_4 C 0.7618(4) 0.5288(2) 0.2334(2)
H10_4 H 0.7511 0.4927 0.2333
C23_4 C 0.8008(4) 0.5627(3) 0.21257(18)
C24_4 C 0.8166(4) 0.6156(3) 0.21259(18)
H11_4 H 0.8433 0.6388 0.1983
C25_4 C 0.7934(4) 0.6347(2) 0.23345(19)
H12_4 H 0.8041 0.6708 0.2334
C26_4 C 0.8229(7) 0.5409(5) 0.1906(3)
C27_4 C 0.8344(7) 0.5197(5) 0.1705(3)
C28_4 C 0.8518(8) 0.4973(6) 0.1494(3)
C29_4 C 0.8655(8) 0.4782(6) 0.1292(3)
C30_4 C 0.8781(5) 0.4509(4) 0.10474(17)
C31_4 C 0.8895(5) 0.4124(4) 0.11370(14)
H13_4 H 0.8839 0.4001 0.1351
C32_4 C 0.9092(4) 0.3919(3) 0.09127(19)
H14_4 H 0.9170 0.3656 0.0974
C33_4 C 0.9174(4) 0.4099(3) 0.05987(17)
C34_4 C 0.9059(4) 0.4484(3) 0.05091(15)
H15_4 H 0.9115 0.4607 0.0294
C35_4 C 0.8863(4) 0.4689(3) 0.07335(19)
H16_4 H 0.8784 0.4952 0.0672
C36_4 C 0.9431(6) 0.3920(5) 0.0367(3)
O11_4 O 0.5830(7) 0.6469(5) 0.2646(3)
C37_4 C 0.5737(9) 0.6026(6) 0.2557(4)
C38_4 C 0.5341(7) 0.5809(5) 0.2301(3)
C39_4 C 0.5256(8) 0.6131(5) 0.2097(4)
H17_4 H 0.5414 0.6495 0.2141
C40_4 C 0.4940(8) 0.5922(6) 0.1829(3)
H18_4 H 0.4882 0.6143 0.1690
C41_4 C 0.4709(9) 0.5391(6) 0.1764(3)
C42_4 C 0.4794(8) 0.5068(5) 0.1968(4)
H19_4 H 0.4636 0.4705 0.1923
C43_4 C 0.5110(7) 0.5277(5) 0.2236(3)
H20_4 H 0.5169 0.5057 0.2375
C44_4 C 0.4329(13) 0.5193(9) 0.1511(5)
C45_4 C 0.3928(16) 0.4969(12) 0.1367(7)
C46_4 C 0.3507(16) 0.4897(12) 0.1181(7)
C47_4 C 0.3194(16) 0.4672(11) 0.0961(5)
C48_4 C 0.2726(9) 0.4443(7) 0.0769(4)
C49_4 C 0.2739(8) 0.4571(6) 0.0447(4)
H21_4 H 0.3064 0.4790 0.0345
C50_4 C 0.2275(9) 0.4377(6) 0.0276(3)
H22_4 H 0.2283 0.4464 0.0056
C51_4 C 0.1799(9) 0.4056(7) 0.0426(4)
C52_4 C 0.1787(8) 0.3929(6) 0.0747(4)
H23_4 H 0.1461 0.3709 0.0850
C53_4 C 0.2250(8) 0.4122(6) 0.0919(3)
H24_4 H 0.2242 0.4035 0.1139
C54_4 C 0.1315(13) 0.3808(9) 0.0216(4)
O19_4 O 0.6682(6) 0.7505(5) 0.2730(2)
C64_4 C 0.8139(14) 0.9963(11) 0.1740(4)
C65_4 C 0.7963(11) 0.9597(9) 0.1920(4)
C66_4 C 0.7747(6) 0.9162(5) 0.2140(2)
C67_4 C 0.7233(5) 0.8759(4) 0.21084(19)
H29_4 H 0.7011 0.8785 0.1954
C68_4 C 0.7044(6) 0.8321(5) 0.2304(2)
H30_4 H 0.6693 0.8046 0.2282
C69_4 C 0.7370(5) 0.8285(4) 0.2530(2)
C70_4 C 0.7884(5) 0.8687(4) 0.25613(19)
H31_4 H 0.8106 0.8662 0.2716
C71_4 C 0.8073(6) 0.9126(5) 0.2366(2)
H32_4 H 0.8424 0.9401 0.2388
C72_4 C 0.7158(8) 0.7816(6) 0.2742(3)
Zn25 Zn 0.31007(7) 0.37527(5) 0.68518(3)
Zn31 Zn 0.30169(7) 0.26520(5) 0.68753(3)
O60 O 0.2548(4) 0.3336(3) 0.71701(18)
O62 O 0.2380(4) 0.2517(3) 0.70999(18)
C187 C 0.2287(6) 0.2853(4) 0.7223(3)
C188 C 0.1840(4) 0.2667(3) 0.74459(18)
C189 C 0.1512(4) 0.2135(3) 0.7495(2)
H95 H 0.1564 0.1889 0.7378
C190 C 0.1106(4) 0.1961(3) 0.7717(2)
H96 H 0.0882 0.1597 0.7750
C191 C 0.1031(5) 0.2321(4) 0.78881(19)
C192 C 0.1358(4) 0.2853(3) 0.7839(2)
H97 H 0.1307 0.3099 0.7957
C193 C 0.1764(4) 0.3027(2) 0.7618(2)
H98 H 0.1988 0.3391 0.7584
C194 C 0.0607(8) 0.2144(6) 0.8116(3)
C195 C 0.0271(8) 0.1957(6) 0.8312(3)
O63 O 0.0137(3) 0.7620(4) 0.37665(18)
Zn20 Zn 0.62938(5) 0.04537(5) 0.01110(3)
Zn21 Zn 0.73480(5) 0.03649(5) 0.02086(3)
O37 O 0.6645(3) 0.0043(3) 0.00314(16)
O39 O 0.5890(3) 0.0027(3) 0.0496(2)
H49 H 0.5400 0.0103 0.0973
O46 O 0.9049(3) 0.5760(3) 0.3009(2)
O47 O 0.9592(4) 0.6162(4) 0.2603(2)
O48 O 0.6844(3) 0.1036(3) 0.0381(2)
O49 O 0.7473(3) 0.0874(3) 0.05381(18)
C145 C 0.9214(6) 0.5771(5) 0.2743(3)
C146 C 0.8988(4) 0.5271(3) 0.2555(2)
C147 C 0.9258(4) 0.5210(3) 0.2302(2)
H65 H 0.9590 0.5491 0.2240
C148 C 0.9042(4) 0.4738(4) 0.2138(2)
H66 H 0.9226 0.4696 0.1965
C149 C 0.8556(4) 0.4326(4) 0.2228(2)
C150 C 0.8287(4) 0.4388(3) 0.2481(2)
H67 H 0.7955 0.4107 0.2543
C151 C 0.8503(4) 0.4860(3) 0.26455(19)
H68 H 0.8318 0.4901 0.2818
C152 C 0.8372(7) 0.3859(7) 0.2040(4)
C153 C 0.8177(8) 0.3455(8) 0.1893(5)
C154 C 0.8004(8) 0.2999(8) 0.1731(5)
C155 C 0.7858(7) 0.2674(7) 0.1521(4)
C156 C 0.7698(4) 0.2276(4) 0.1276(2)
C157 C 0.7999(4) 0.2046(4) 0.1208(2)
H69 H 0.8315 0.2152 0.1322
C158 C 0.7836(3) 0.1660(4) 0.0975(2)
H70 H 0.8042 0.1504 0.0928
C159 C 0.7373(3) 0.1505(4) 0.08096(18)
C160 C 0.7073(3) 0.1735(3) 0.0877(2)
H71 H 0.6756 0.1628 0.0764
C161 C 0.7235(3) 0.2120(4) 0.1111(2)
H72 H 0.7030 0.2278 0.1157
C162 C 0.7228(4) 0.1116(5) 0.0548(3)
O51 O 0.5882(4) 0.0821(4) 0.0102(2)
N2 N 0.5840(6) 0.1564(4) 0.0105(3)
C166 C 0.6066(4) 0.1289(4) 0.0175(3)
H80 H 0.6388 0.1457 0.0288
H82 H 0.5087 0.1028 0.0036
C168 C 0.6083(9) 0.2119(4) 0.0186(5)
H84 H 0.5857 0.2254 0.0114
H85 H 0.6423 0.2312 0.0078
H86 H 0.6133 0.2163 0.0418
Zn27 Zn 0.95463(5) 0.58401(7) 0.34443(3)
Zn35 Zn 0.99858(5) 0.66989(7) 0.29048(3)
Zn22 Zn 0.67131(5) 0.00142(5) 0.95715(3)
H73 H 0.5224 0.0144 0.9804
H78 H 0.4697 0.0051 0.9278
C167 C 0.5359(8) 0.1332(7) 0.9921(6)
H81 H 0.5246 0.1590 0.9891
H83 H 0.5418 0.1221 0.9712
Zn28 Zn 0.41599(7) 0.37062(5) 0.67777(3)
O64 O 0.7916(4) 0.0672(3) 0.98919(19)
O65 O 0.7443(4) 0.0185(3) 0.94800(19)
C196 C 0.9901(8) 0.1749(6) 0.8538(3)
C197 C 0.9559(8) 0.1560(6) 0.8738(3)
C198 C 0.9149(4) 0.1270(3) 0.89693(16)
C199 C 0.8675(5) 0.0857(3) 0.88653(14)
H99 H 0.8635 0.0742 0.8650
C200 C 0.8258(5) 0.0612(3) 0.90772(17)
H100 H 0.7934 0.0330 0.9006
C201 C 0.8316(4) 0.0780(3) 0.93933(16)
C202 C 0.8790(4) 0.1193(3) 0.94973(13)
H101 H 0.8830 0.1308 0.9714
C203 C 0.9207(4) 0.1438(3) 0.92853(18)
H102 H 0.9531 0.1720 0.9357
C204 C 0.7854(6) 0.0517(4) 0.9604(2)
O67 O 0.6711(4) 0.0951(3) 0.9676(2)
O69 O 0.6570(6) 0.0408(4) 0.9270(2)
O71 O 0.4192(4) 0.3156(3) 0.7048(2)
O73 O 0.3401(4) 0.2527(3) 0.72048(18)
C205 C 0.6557(8) 0.0786(6) 0.9410(3)
C206 C 0.6283(5) 0.1012(4) 0.9222(2)
C207 C 0.5952(5) 0.0742(4) 0.8969(2)
H103 H 0.5901 0.0410 0.8907
C208 C 0.5696(6) 0.0958(4) 0.8805(2)
H104 H 0.5470 0.0774 0.8632
C209 C 0.5770(6) 0.1444(4) 0.8895(2)
C210 C 0.6101(5) 0.1713(4) 0.9148(2)
H105 H 0.6152 0.2045 0.9210
C211 C 0.6357(5) 0.1497(4) 0.93122(19)
H106 H 0.6583 0.1682 0.9485
C212 C 0.5487(10) 0.1628(7) 0.8707(4)
C213 C 0.5278(11) 0.1823(8) 0.8560(5)
C214 C 0.4995(11) 0.1996(8) 0.8398(5)
C215 C 0.4816(10) 0.2142(7) 0.8188(4)
C216 C 0.4578(6) 0.2302(4) 0.7943(2)
C217 C 0.4047(6) 0.2001(4) 0.7875(2)
H107 H 0.3837 0.1685 0.7989
C218 C 0.3824(5) 0.2164(3) 0.7642(2)
H108 H 0.3462 0.1958 0.7595
C219 C 0.4132(5) 0.2627(3) 0.74763(18)
C220 C 0.4662(4) 0.2927(3) 0.7544(2)
H109 H 0.4872 0.3244 0.7431
C221 C 0.4885(5) 0.2765(3) 0.7778(2)
H110 H 0.5248 0.2970 0.7824
C222 C 0.3888(6) 0.2772(4) 0.7215(3)
Zn19 Zn 0.62473(5) 0.93480(5) 0.01851(3)
O38 O 0.5611(3) 0.9189(3) 0.04026(19)
O40 O 0.0706(3) 0.7010(3) 0.27614(18)
O41 O 0.1213(3) 0.7256(3) 0.32032(17)
C109 C 0.5582(4) 0.9546(4) 0.0536(3)
C110 C 0.5129(3) 0.9390(4) 0.0764(2)
C111 C 0.5122(4) 0.9750(3) 0.0974(3)
C112 C 0.4709(4) 0.9595(4) 0.1188(2)
H50 H 0.4704 0.9842 0.1332
C113 C 0.4303(4) 0.9079(4) 0.1190(3)
C114 C 0.4311(3) 0.8718(3) 0.0980(3)
H51 H 0.4033 0.8366 0.0981
C115 C 0.4724(4) 0.8874(3) 0.0766(2)
H52 H 0.4729 0.8627 0.0622
C116 C 0.3925(6) 0.8908(7) 0.1446(4)
C117 C 0.3576(7) 0.8683(7) 0.1629(4)
C118 C 0.3242(6) 0.8489(7) 0.1887(4)
C119 C 0.2901(5) 0.8281(6) 0.2077(3)
C120 C 0.2461(3) 0.7977(3) 0.22809(18)
C121 C 0.2529(2) 0.8052(3) 0.26099(19)
H53 H 0.2867 0.8277 0.2695
C122 C 0.2102(3) 0.7798(3) 0.28139(14)
H54 H 0.2148 0.7849 0.3039
C123 C 0.1607(2) 0.7468(3) 0.26890(17)
C124 C 0.1539(2) 0.7393(3) 0.23600(18)
H55 H 0.1201 0.7167 0.2275
C125 C 0.1966(3) 0.7647(4) 0.21560(14)
H56 H 0.1920 0.7595 0.1931
C126 C 0.1143(4) 0.7232(5) 0.2906(2)
O42 O 0.6664(3) 0.9212(3) 0.05034(18)
O43 O 0.7483(3) 0.9863(3) 0.04332(18)
O44 O 0.9328(3) 0.7244(3) 0.32252(19)
O45 O 0.9815(3) 0.7258(3) 0.28133(19)
C127 C 0.7147(4) 0.9434(4) 0.0556(3)
C128 C 0.7333(3) 0.9173(3) 0.07792(18)
C129 C 0.7865(3) 0.9377(3) 0.0828(2)
H57 H 0.8111 0.9675 0.0711
C130 C 0.8039(3) 0.9145(3) 0.1050(2)
H58 H 0.8403 0.9285 0.1083
C131 C 0.7679(4) 0.8710(3) 0.12214(19)
C132 C 0.7147(3) 0.8505(3) 0.1172(2)
H59 H 0.6901 0.8208 0.1290
C133 C 0.6973(2) 0.8737(3) 0.0951(2)
H60 H 0.6609 0.8597 0.0917
C134 C 0.7856(6) 0.8463(6) 0.1449(3)
C135 C 0.8043(6) 0.8314(5) 0.1645(3)
C136 C 0.8251(6) 0.8152(6) 0.1871(3)
C137 C 0.8440(6) 0.7999(6) 0.2071(3)
C138 C 0.8730(3) 0.7879(3) 0.23026(16)
C139 C 0.9143(3) 0.7818(4) 0.21986(14)
H61 H 0.9258 0.7893 0.1983
C140 C 0.9388(3) 0.7646(4) 0.24105(17)
H62 H 0.9670 0.7604 0.2339
C141 C 0.9220(3) 0.7536(3) 0.27266(16)
C142 C 0.8807(3) 0.7597(3) 0.28306(13)
H63 H 0.8692 0.7522 0.3047
C143 C 0.8562(3) 0.7769(3) 0.26186(18)
H64 H 0.8280 0.7811 0.2690
C144 C 0.9483(4) 0.7337(4) 0.2937(2)
Zn24 Zn 0.06520(5) 0.68993(7) 0.35184(3)
Zn29 Zn 0.96351(5) 0.69831(7) 0.35419(3)
O53 O 0.9957(3) 0.6602(4) 0.33647(16)
O74 O 0.9126(3) 0.6599(4) 0.38714(18)
O50 O 0.5715(3) 0.9912(3) 0.97852(19)
N1 N 0.5027(3) 0.9647(4) 0.9450(2)
C163 C 0.5320(3) 0.9923(3) 0.9693(2)
C164 C 0.5169(5) 0.9321(6) 0.9264(3)
H74 H 0.4910 0.9145 0.9094
H75 H 0.5177 0.9059 0.9404
H76 H 0.5515 0.9539 0.9168
C165 C 0.4579(5) 0.9690(7) 0.9343(4)
H77 H 0.4412 0.9455 0.9161
H79 H 0.4327 0.9591 0.9519
Zn36 Zn 0.33011(7) 0.32869(5) 0.62382(3)
O52 O 0.3398(4) 0.3355(3) 0.66981(16)
O55 O 0.3578(4) 0.4389(3) 0.70693(19)
O56 O 0.4137(4) 0.4110(3) 0.7163(2)
O57 O 0.6304(4) 0.9294(3) 0.94281(18)
O58 O 0.6043(4) 0.8787(3) 0.98699(17)
O59 O 0.2744(3) 0.3957(4) 0.65365(17)
C169 C 0.3964(6) 0.4418(4) 0.7203(3)
C170 C 0.4261(5) 0.4871(3) 0.7431(2)
C171 C 0.4628(5) 0.4878(4) 0.7641(3)
H87 H 0.4703 0.4600 0.7640
C172 C 0.4886(6) 0.5291(4) 0.7855(2)
H88 H 0.5138 0.5296 0.7999
C173 C 0.4776(6) 0.5697(4) 0.7857(3)
C174 C 0.4407(4) 0.5689(3) 0.7647(3)
H89 H 0.4333 0.5967 0.7648
C175 C 0.4150(5) 0.5276(4) 0.7433(2)
H90 H 0.3898 0.5271 0.7289
C176 C 0.4983(9) 0.6075(6) 0.8113(4)
C177 C 0.5107(10) 0.6424(7) 0.8296(4)
C178 C 0.5247(9) 0.6758(6) 0.8554(4)
C179 C 0.5380(8) 0.7099(5) 0.8744(3)
C180 C 0.5516(4) 0.7539(3) 0.89476(18)
C181 C 0.5523(4) 0.7471(2) 0.92766(19)
H91 H 0.5410 0.7133 0.9362
C182 C 0.5696(4) 0.7898(3) 0.94806(14)
H92 H 0.5701 0.7852 0.9706
C183 C 0.5861(4) 0.8393(2) 0.93557(17)
C184 C 0.5854(4) 0.8461(2) 0.90267(18)
H93 H 0.5966 0.8799 0.8942
C185 C 0.5681(5) 0.8034(3) 0.88227(14)
H94 H 0.5675 0.8080 0.8598
C186 C 0.6089(6) 0.8857(4) 0.9573(2)
O68 O 0.4240(3) 0.3289(4) 0.6342(2)
O75 O 0.4197(4) 0.4285(3) 0.64519(19)
N3 N 0.4620(5) 0.4973(3) 0.6117(2)
C223 C 0.4603(4) 0.4680(3) 0.6360(2)
H111 H 0.4920 0.4776 0.6471
C224 C 0.4152(8) 0.4831(5) 0.5931(3)
H112 H 0.4235 0.5090 0.5761
H113 H 0.3882 0.4823 0.6071
H114 H 0.4024 0.4485 0.5835
C225 C 0.5111(9) 0.5421(5) 0.6010(4)
H115 H 0.5043 0.5588 0.5828
H116 H 0.5354 0.5303 0.5945
H117 H 0.5264 0.5673 0.6186
O76 O 0.4939(6) 0.4118(4) 0.6769(2)
N4 N 0.5724(7) 0.4160(6) 0.6772(3)
C226 C 0.5223(6) 0.3934(4) 0.6842(3)
H118 H 0.5069 0.3612 0.6955
C227 C 0.5973(11) 0.4641(8) 0.6588(6)
H119 H 0.6344 0.4754 0.6558
H120 H 0.5941 0.4913 0.6703
H121 H 0.5803 0.4582 0.6379
C228 C 0.6036(10) 0.3917(9) 0.6853(5)
H122 H 0.6397 0.4143 0.6781
H123 H 0.5889 0.3577 0.6745
H124 H 0.6030 0.3867 0.7085
O44_2 O 0.2756(3) 0.2084(4) 0.65585(19)
O45_2 O 0.2742(3) 0.2557(4) 0.61466(19)
C136_2 C 0.1848(6) 0.0099(8) 0.5204(3)
C137_2 C 0.2001(6) 0.0441(8) 0.5404(3)
C138_2 C 0.2121(3) 0.0851(4) 0.56359(16)
C139_2 C 0.2182(4) 0.1325(5) 0.55319(14)
H61_2 H 0.2107 0.1365 0.5316
C140_2 C 0.2354(4) 0.1742(5) 0.57438(17)
H62_2 H 0.2396 0.2066 0.5672
C141_2 C 0.2464(3) 0.1684(4) 0.60599(16)
C142_2 C 0.2403(3) 0.1210(4) 0.61639(13)
H63_2 H 0.2478 0.1170 0.6380
C143_2 C 0.2231(3) 0.0793(4) 0.59519(18)
H64_2 H 0.2189 0.0469 0.6023
C144_2 C 0.2663(4) 0.2146(6) 0.6270(2)
O38_2 O 0.0811(3) 0.6422(4) 0.37359(19)
O40_2 O 0.2990(3) 0.3696(4) 0.60947(18)
C109_2 C 0.0454(4) 0.6036(6) 0.3869(3)
C110_2 C 0.0610(4) 0.5739(5) 0.4097(2)
C111_2 C 0.0250(3) 0.5372(5) 0.4307(3)
C112_2 C 0.0405(4) 0.5114(6) 0.4521(2)
H50_2 H 0.0158 0.4862 0.4665
C113_2 C 0.0921(4) 0.5224(6) 0.4523(3)
C114_2 C 0.1282(3) 0.5593(4) 0.4313(3)
H51_2 H 0.1634 0.5667 0.4314
C115_2 C 0.1126(3) 0.5850(5) 0.4099(2)
H52_2 H 0.1373 0.6102 0.3955
C116_2 C 0.1092(7) 0.5017(9) 0.4779(4)
C117_2 C 0.1317(7) 0.4893(10) 0.4962(4)
C118_2 C 0.1511(7) 0.4753(9) 0.5220(4)
C119_2 C 0.1719(6) 0.4620(8) 0.5410(3)
C120_2 C 0.2023(3) 0.4484(4) 0.56142(18)
C121_2 C 0.1948(3) 0.4477(4) 0.59432(19)
H53_2 H 0.1723 0.4590 0.6028
C122_2 C 0.2202(3) 0.4304(4) 0.61472(14)
H54_2 H 0.2151 0.4299 0.6372
C123_2 C 0.2532(3) 0.4139(4) 0.60223(17)
C124_2 C 0.2607(3) 0.4146(4) 0.56933(18)
H55_2 H 0.2833 0.4034 0.5608
C125_2 C 0.2353(4) 0.4319(5) 0.54893(14)
H56_2 H 0.2405 0.4325 0.5264
C126_2 C 0.2768(5) 0.3911(6) 0.6239(2)
O42_2 O 0.0788(3) 0.7452(4) 0.38367(18)
C127_2 C 0.0566(4) 0.7713(6) 0.3889(3)
C128_2 C 0.0827(3) 0.8160(4) 0.41125(18)
C129_2 C 0.0623(3) 0.8488(4) 0.4161(2)
H57_2 H 0.0325 0.8436 0.4044
C130_2 C 0.0855(3) 0.8894(4) 0.4383(2)
H58_2 H 0.0715 0.9118 0.4416
C131_2 C 0.1290(3) 0.8969(5) 0.45547(19)
C132_2 C 0.1495(3) 0.8642(4) 0.4505(2)
H59_2 H 0.1792 0.8693 0.4623
C133_2 C 0.1263(3) 0.8236(4) 0.4284(2)
H60_2 H 0.1403 0.8012 0.4250
C134_2 C 0.1537(6) 0.9393(8) 0.4782(3)
C135_2 C 0.1686(5) 0.9729(8) 0.4978(3)
O50_2 O 0.0088(3) 0.5803(4) 0.31185(19)
N1_2 N 0.0353(4) 0.5380(5) 0.2783(2)
C163_2 C 0.0077(3) 0.5397(4) 0.3026(2)
C164_2 C 0.0679(6) 0.5848(8) 0.2597(3)
H74_2 H 0.0855 0.5765 0.2427
H75_2 H 0.0941 0.6118 0.2737
H76_2 H 0.0461 0.5976 0.2501
C165_2 C 0.0310(7) 0.4889(9) 0.2676(4)
H77_2 H 0.0545 0.4957 0.2494
H79_2 H 0.0409 0.4736 0.2852
O70 O 0.3838(4) 0.3430(6) 0.5936(2)
O39_2 O 0.9973(3) 0.5863(4) 0.3829(2)
H49_2 H 0.9897 0.5297 0.4306
O48_2 O 0.8964(3) 0.5808(4) 0.3714(2)
C145_2 C 0.4229(5) 0.3443(8) 0.6076(3)
C146_2 C 0.4729(3) 0.3717(5) 0.5888(2)
C147_2 C 0.4790(3) 0.4048(5) 0.5635(2)
H65_2 H 0.4509 0.4099 0.5573
C148_2 C 0.5262(4) 0.4304(6) 0.5471(2)
H66_2 H 0.5304 0.4530 0.5298
C149_2 C 0.5674(4) 0.4230(6) 0.5561(2)
C150_2 C 0.5612(3) 0.3899(5) 0.5814(2)
H67_2 H 0.5893 0.3848 0.5876
C151_2 C 0.5140(3) 0.3643(5) 0.59788(19)
H68_2 H 0.5099 0.3417 0.6151
C152_2 C 0.6141(7) 0.4513(10) 0.5373(4)
C153_2 C 0.6545(8) 0.4722(11) 0.5226(5)
C154_2 C 0.7001(8) 0.5005(11) 0.5064(5)
C155_2 C 0.7326(7) 0.5184(10) 0.4854(4)
C156_2 C 0.7724(4) 0.5422(6) 0.4609(2)
C157_2 C 0.7954(4) 0.5953(6) 0.4541(2)
H69_2 H 0.7848 0.6163 0.4655
C158_2 C 0.8340(4) 0.6176(5) 0.4308(2)
H70_2 H 0.8496 0.6538 0.4261
C159_2 C 0.8495(4) 0.5868(5) 0.41429(18)
C160_2 C 0.8265(3) 0.5338(4) 0.4210(2)
H71_2 H 0.8372 0.5128 0.4097
C161_2 C 0.7880(4) 0.5115(5) 0.4444(2)
H72_2 H 0.7722 0.4752 0.4490
C162_2 C 0.8884(5) 0.6112(6) 0.3881(3)
H73_2 H 0.9856 0.5080 0.3137
H78_2 H 0.9949 0.4646 0.2611
O51_2 O 0.9179(4) 0.5061(6) 0.3435(2)
N2_2 N 0.8436(4) 0.4276(7) 0.3438(3)
C166_2 C 0.8711(4) 0.4777(6) 0.3508(3)
H80_2 H 0.8543 0.4931 0.3621
C167_2 C 0.8668(7) 0.4027(11) 0.3254(6)
H81_2 H 0.8410 0.3656 0.3224
H82_2 H 0.8972 0.4059 0.3369
H83_2 H 0.8779 0.4197 0.3045
C168_2 C 0.7881(4) 0.3964(10) 0.3519(5)
H84_2 H 0.7746 0.3603 0.3447
H85_2 H 0.7688 0.4111 0.3411
H86_2 H 0.7837 0.3970 0.3751
Zn33 Zn 0.33011(7) 0.00142(5) 0.37618(3)
O54 O 0.3398(4) 0.0043(3) 0.33019(16)
O66 O 0.2742(3) 0.0185(3) 0.38534(19)
O70_2 O 0.3838(4) 0.0408(4) 0.4064(2)
Zn36_2 Zn 0.67131(5) 0.66989(7) 0.04285(3)
O59_2 O 0.6043(4) 0.7256(3) 0.01301(17)
O68_2 O 0.6711(4) 0.5760(3) 0.0324(2)
O75_2 O 0.5715(3) 0.5803(4) 0.02148(19)
N3_2 N 0.5027(3) 0.5380(5) 0.0550(2)
C223_2 C 0.5320(3) 0.5397(4) 0.0307(2)
H111_2 H 0.5224 0.5080 0.0196
C224_2 C 0.5169(5) 0.5848(8) 0.0736(3)
H112_2 H 0.4910 0.5765 0.0906
H113_2 H 0.5177 0.6118 0.0596
H114_2 H 0.5515 0.5976 0.0832
C225_2 C 0.4579(5) 0.4889(9) 0.0657(4)
H115_2 H 0.4412 0.4957 0.0839
H116_2 H 0.4697 0.4646 0.0722
H117_2 H 0.4327 0.4736 0.0481
C227_2 C 0.5359(8) 0.4027(11) 0.0079(6)
H119_2 H 0.5246 0.3656 0.0109
H121_2 H 0.5418 0.4197 0.0288
Zn19_2 Zn 0.06520(5) 0.37527(5) 0.64816(3)
O38_3 O 0.0811(3) 0.4389(3) 0.62641(19)
O40_3 O 0.2990(3) 0.9294(3) 0.39053(18)
O41_2 O 0.2744(3) 0.8787(3) 0.34635(17)
C109_3 C 0.0454(4) 0.4418(4) 0.6131(3)
C110_3 C 0.0610(4) 0.4871(3) 0.5903(2)
C111_3 C 0.0250(3) 0.4878(4) 0.5693(3)
C112_3 C 0.0405(4) 0.5291(4) 0.5479(2)
H50_3 H 0.0158 0.5296 0.5335
C113_3 C 0.0921(4) 0.5697(4) 0.5477(3)
C114_3 C 0.1282(3) 0.5689(3) 0.5687(3)
H51_3 H 0.1634 0.5967 0.5686
C115_3 C 0.1126(3) 0.5276(4) 0.5901(2)
H52_3 H 0.1373 0.5271 0.6045
C116_3 C 0.1092(7) 0.6075(6) 0.5221(4)
C117_3 C 0.1317(7) 0.6424(7) 0.5038(4)
C118_3 C 0.1511(7) 0.6758(6) 0.4780(4)
C119_3 C 0.1719(6) 0.7099(5) 0.4590(3)
C120_3 C 0.2023(3) 0.7539(3) 0.43858(18)
C121_3 C 0.1948(3) 0.7471(2) 0.40568(19)
H53_3 H 0.1723 0.7133 0.3972
C122_3 C 0.2202(3) 0.7898(3) 0.38528(14)
H54_3 H 0.2151 0.7852 0.3628
C123_3 C 0.2532(3) 0.8393(2) 0.39777(17)
C124_3 C 0.2607(3) 0.8461(2) 0.43067(18)
H55_3 H 0.2833 0.8799 0.4392
C125_3 C 0.2353(4) 0.8034(3) 0.45107(14)
H56_3 H 0.2405 0.8080 0.4736
C126_3 C 0.2768(5) 0.8857(4) 0.3761(2)
O42_3 O 0.0788(3) 0.3336(3) 0.61633(18)
O43_2 O 0.0137(3) 0.2517(3) 0.62335(18)
O44_3 O 0.2756(3) 0.0672(3) 0.34415(19)
C127_3 C 0.0566(4) 0.2853(4) 0.6111(3)
C128_3 C 0.0827(3) 0.2667(3) 0.58875(18)
C129_3 C 0.0623(3) 0.2135(3) 0.5839(2)
H57_3 H 0.0325 0.1889 0.5956
C130_3 C 0.0855(3) 0.1961(3) 0.5617(2)
H58_3 H 0.0715 0.1597 0.5584
C131_3 C 0.1290(3) 0.2321(4) 0.54453(19)
C132_3 C 0.1495(3) 0.2853(3) 0.5495(2)
H59_3 H 0.1792 0.3099 0.5377
C133_3 C 0.1263(3) 0.3027(2) 0.5716(2)
H60_3 H 0.1403 0.3391 0.5750
C134_3 C 0.1537(6) 0.2144(6) 0.5218(3)
C135_3 C 0.1686(5) 0.1957(6) 0.5022(3)
C136_3 C 0.1848(6) 0.1749(6) 0.4796(3)
C137_3 C 0.2001(6) 0.1560(6) 0.4596(3)
C138_3 C 0.2121(3) 0.1270(3) 0.43641(16)
C139_3 C 0.2182(4) 0.0857(3) 0.44681(14)
H61_3 H 0.2107 0.0742 0.4684
C140_3 C 0.2354(4) 0.0612(3) 0.42562(17)
H62_3 H 0.2396 0.0330 0.4328
C141_3 C 0.2464(3) 0.0780(3) 0.39401(16)
C142_3 C 0.2403(3) 0.1193(3) 0.38361(13)
H63_3 H 0.2478 0.1308 0.3620
C143_3 C 0.2231(3) 0.1438(3) 0.40481(18)
H64_3 H 0.2189 0.1720 0.3977
C144_3 C 0.2663(4) 0.0517(4) 0.3730(2)
O50_3 O 0.0088(3) 0.4285(3) 0.68815(19)
N1_3 N 0.0353(4) 0.4973(3) 0.7217(2)
C163_3 C 0.0077(3) 0.4680(3) 0.6974(2)
C164_3 C 0.0679(6) 0.4831(5) 0.7403(3)
H74_3 H 0.0855 0.5090 0.7573
H75_3 H 0.0941 0.4823 0.7263
H76_3 H 0.0461 0.4485 0.7499
C165_3 C 0.0310(7) 0.5421(5) 0.7324(4)
H77_3 H 0.0545 0.5588 0.7506
H79_3 H 0.0409 0.5673 0.7148
Zn23 Zn 0.62473(5) 0.68993(7) 0.98149(3)
Zn24_2 Zn 0.31007(7) 0.93480(5) 0.31482(3)
Zn26 Zn 0.62938(5) 0.58401(7) 0.98890(3)
Zn29_2 Zn 0.30169(7) 0.03649(5) 0.31247(3)
Zn32 Zn 0.73480(5) 0.69831(7) 0.97914(3)
O52_2 O 0.6645(3) 0.6602(4) 0.99686(16)
O55_2 O 0.5611(3) 0.6422(4) 0.95974(19)
O56_2 O 0.5890(3) 0.5863(4) 0.9504(2)
O57_2 O 0.0706(3) 0.3696(4) 0.72386(18)
O58_2 O 0.1213(3) 0.3957(4) 0.67968(17)
C169_2 C 0.5582(4) 0.6036(6) 0.9464(3)
C170_2 C 0.5129(3) 0.5739(5) 0.9236(2)
C171_2 C 0.5122(4) 0.5372(5) 0.9026(3)
H87_2 H 0.5400 0.5297 0.9027
C172_2 C 0.4709(4) 0.5114(6) 0.8812(2)
H88_2 H 0.4704 0.4862 0.8668
C173_2 C 0.4303(4) 0.5224(6) 0.8810(3)
C174_2 C 0.4311(3) 0.5593(4) 0.9020(3)
H89_2 H 0.4033 0.5667 0.9019
C175_2 C 0.4724(4) 0.5850(5) 0.9234(2)
H90_2 H 0.4729 0.6102 0.9378
C176_2 C 0.3925(6) 0.5017(9) 0.8554(4)
C177_2 C 0.3576(7) 0.4893(10) 0.8371(4)
C178_2 C 0.3242(6) 0.4753(9) 0.8113(4)
C179_2 C 0.2901(5) 0.4620(8) 0.7923(3)
C180_2 C 0.2461(3) 0.4484(4) 0.77191(18)
C181_2 C 0.2529(2) 0.4477(4) 0.73901(19)
H91_2 H 0.2867 0.4590 0.7305
C182_2 C 0.2102(3) 0.4304(4) 0.71861(14)
H92_2 H 0.2148 0.4299 0.6961
C183_2 C 0.1607(2) 0.4139(4) 0.73110(17)
C184_2 C 0.1539(2) 0.4146(4) 0.76400(18)
H93_2 H 0.1201 0.4034 0.7725
C185_2 C 0.1966(3) 0.4319(5) 0.78440(14)
H94_2 H 0.1920 0.4325 0.8069
C186_2 C 0.1143(4) 0.3911(6) 0.7094(2)
O61 O 0.6664(3) 0.7452(4) 0.94966(18)
O72 O 0.6844(3) 0.5808(4) 0.9619(2)
O74_2 O 0.3401(4) 0.0874(3) 0.27952(18)
O76_2 O 0.5882(4) 0.5061(6) 0.9898(2)
N4_2 N 0.5840(6) 0.4276(7) 0.9895(3)
C226_2 C 0.6066(4) 0.4777(6) 0.9825(3)
H118_2 H 0.6388 0.4931 0.9712
H120_2 H 0.5087 0.4059 0.9964
C228_2 C 0.6083(9) 0.3964(10) 0.9814(5)
H122_2 H 0.5857 0.3603 0.9886
H123_2 H 0.6423 0.4111 0.9922
H124_2 H 0.6133 0.3970 0.9582
O63_2 O 0.2380(4) 0.9863(3) 0.29001(18)
Zn20_2 Zn 0.95463(5) 0.37062(5) 0.65557(3)
Zn21_2 Zn 0.96351(5) 0.26520(5) 0.64581(3)
Zn22_2 Zn 0.99858(5) 0.32869(5) 0.70952(3)
O37_2 O 0.9957(3) 0.3355(3) 0.66353(16)
O39_3 O 0.9973(3) 0.4110(3) 0.6171(2)
H49_3 H 0.9897 0.4600 0.5694
O46_2 O 0.4240(3) 0.0951(3) 0.3658(2)
O48_3 O 0.8964(3) 0.3156(3) 0.6286(2)
O49_2 O 0.9126(3) 0.2527(3) 0.61286(18)
C145_3 C 0.4229(5) 0.0786(6) 0.3924(3)
C146_3 C 0.4729(3) 0.1012(4) 0.4112(2)
C147_3 C 0.4790(3) 0.0742(4) 0.4365(2)
H65_3 H 0.4509 0.0410 0.4427
C148_3 C 0.5262(4) 0.0958(4) 0.4529(2)
H66_3 H 0.5304 0.0774 0.4702
C149_3 C 0.5674(4) 0.1444(4) 0.4439(2)
C150_3 C 0.5612(3) 0.1713(4) 0.4186(2)
H67_3 H 0.5893 0.2045 0.4124
C151_3 C 0.5140(3) 0.1497(4) 0.40212(19)
H68_3 H 0.5099 0.1682 0.3849
C152_3 C 0.6141(7) 0.1628(7) 0.4627(4)
C153_3 C 0.6545(8) 0.1823(8) 0.4774(5)
C154_3 C 0.7001(8) 0.1996(8) 0.4936(5)
C155_3 C 0.7326(7) 0.2142(7) 0.5146(4)
C156_3 C 0.7724(4) 0.2302(4) 0.5391(2)
C157_3 C 0.7954(4) 0.2001(4) 0.5459(2)
H69_3 H 0.7848 0.1685 0.5345
C158_3 C 0.8340(4) 0.2164(3) 0.5692(2)
H70_3 H 0.8496 0.1958 0.5739
C159_3 C 0.8495(4) 0.2627(3) 0.58571(18)
C160_3 C 0.8265(3) 0.2927(3) 0.5790(2)
H71_3 H 0.8372 0.3244 0.5903
C161_3 C 0.7880(4) 0.2765(3) 0.5556(2)
H72_3 H 0.7722 0.2970 0.5510
C162_3 C 0.8884(5) 0.2772(4) 0.6119(3)
H73_3 H 0.9856 0.4776 0.6863
H78_3 H 0.9949 0.5303 0.7389
O51_3 O 0.9179(4) 0.4118(4) 0.6565(2)
N2_3 N 0.8436(4) 0.4160(6) 0.6562(3)
C166_3 C 0.8711(4) 0.3934(4) 0.6492(3)
H80_3 H 0.8543 0.3612 0.6379
C167_3 C 0.8668(7) 0.4641(8) 0.6746(6)
H81_3 H 0.8410 0.4754 0.6776
H82_3 H 0.8972 0.4913 0.6631
H83_3 H 0.8779 0.4582 0.6955
C168_3 C 0.7881(4) 0.3917(9) 0.6481(5)
H84_3 H 0.7746 0.4143 0.6553
H85_3 H 0.7688 0.3577 0.6589
H86_3 H 0.7837 0.3867 0.6249
Zn27_2 Zn 0.41599(7) 0.04537(5) 0.32223(3)
O64_2 O 0.9328(3) 0.2084(4) 0.67748(19)
O65_2 O 0.9815(3) 0.2557(4) 0.71867(19)
C196_2 C 0.8251(6) 0.0099(8) 0.8129(3)
C197_2 C 0.8440(6) 0.0441(8) 0.7929(3)
C198_2 C 0.8730(3) 0.0851(4) 0.76974(16)
C199_2 C 0.9143(3) 0.1325(5) 0.78014(14)
H99_2 H 0.9258 0.1365 0.8017
C200_2 C 0.9388(3) 0.1742(5) 0.75895(17)
H100_2 H 0.9670 0.2066 0.7661
C201_2 C 0.9220(3) 0.1684(4) 0.72734(16)
C202_2 C 0.8807(3) 0.1210(4) 0.71694(13)
H101_2 H 0.8692 0.1170 0.6953
C203_2 C 0.8562(3) 0.0793(4) 0.73814(18)
H102_2 H 0.8280 0.0469 0.7310
C204_2 C 0.9483(4) 0.2146(6) 0.7063(2)
O67_2 O 0.9049(3) 0.3289(4) 0.6991(2)
O69_2 O 0.9592(4) 0.3430(6) 0.7397(2)
O73_2 O 0.7473(3) 0.6599(4) 0.94619(18)
C205_2 C 0.9214(6) 0.3443(8) 0.7257(3)
C206_2 C 0.8988(4) 0.3717(5) 0.7445(2)
C207_2 C 0.9258(4) 0.4048(5) 0.7698(2)
H103_2 H 0.9590 0.4099 0.7760
C208_2 C 0.9042(4) 0.4304(6) 0.7862(2)
H104_2 H 0.9226 0.4530 0.8035
C209_2 C 0.8556(4) 0.4230(6) 0.7772(2)
C210_2 C 0.8287(4) 0.3899(5) 0.7519(2)
H105_2 H 0.7955 0.3848 0.7457
C211_2 C 0.8503(4) 0.3643(5) 0.73545(19)
H106_2 H 0.8318 0.3417 0.7182
C212_2 C 0.8372(7) 0.4513(10) 0.7960(4)
C213_2 C 0.8177(8) 0.4722(11) 0.8107(5)
C214_2 C 0.8004(8) 0.5005(11) 0.8269(5)
C215_2 C 0.7858(7) 0.5184(10) 0.8479(4)
C216_2 C 0.7698(4) 0.5422(6) 0.8724(2)
C217_2 C 0.7999(4) 0.5953(6) 0.8792(2)
H107_2 H 0.8315 0.6163 0.8678
C218_2 C 0.7836(3) 0.6176(5) 0.9025(2)
H108_2 H 0.8042 0.6538 0.9072
C219_2 C 0.7373(3) 0.5868(5) 0.91904(18)
C220_2 C 0.7073(3) 0.5338(4) 0.9123(2)
H109_2 H 0.6756 0.5128 0.9236
C221_2 C 0.7235(3) 0.5115(5) 0.8889(2)
H110_2 H 0.7030 0.4752 0.8843
C222_2 C 0.7228(4) 0.6112(6) 0.9452(3)
O62_2 O 0.7483(3) 0.7620(4) 0.95668(18)
C187_2 C 0.7147(4) 0.7713(6) 0.9444(3)
C188_2 C 0.7333(3) 0.8160(4) 0.92208(18)
C189_2 C 0.7865(3) 0.8488(4) 0.9172(2)
H95_2 H 0.8111 0.8436 0.9289
C190_2 C 0.8039(3) 0.8894(4) 0.8950(2)
H96_2 H 0.8403 0.9118 0.8917
C191_2 C 0.7679(4) 0.8969(5) 0.87786(19)
C192_2 C 0.7147(3) 0.8642(4) 0.8828(2)
H97_2 H 0.6901 0.8693 0.8710
C193_2 C 0.6973(2) 0.8236(4) 0.9049(2)
H98_2 H 0.6609 0.8012 0.9083
C194_2 C 0.7856(6) 0.9393(8) 0.8551(3)
C195_2 C 0.8043(6) 0.9729(8) 0.8355(3)
O39_4 O 0.4137(4) 0.0027(3) 0.2837(2)
H49_4 H 0.4703 0.0103 0.2360
O47_2 O 0.6570(6) 0.6162(4) 0.0730(2)
O48_4 O 0.4192(4) 0.1036(3) 0.2952(2)
C145_4 C 0.6557(8) 0.5771(5) 0.0590(3)
C146_4 C 0.6283(5) 0.5271(3) 0.0778(2)
C147_4 C 0.5952(5) 0.5210(3) 0.1031(2)
H65_4 H 0.5901 0.5491 0.1093
C148_4 C 0.5696(6) 0.4738(4) 0.1195(2)
H66_4 H 0.5470 0.4696 0.1368
C149_4 C 0.5770(6) 0.4326(4) 0.1105(2)
C150_4 C 0.6101(5) 0.4388(3) 0.0852(2)
H67_4 H 0.6152 0.4107 0.0790
C151_4 C 0.6357(5) 0.4860(3) 0.06878(19)
H68_4 H 0.6583 0.4901 0.0515
C152_4 C 0.5487(10) 0.3859(7) 0.1293(4)
C153_4 C 0.5278(11) 0.3455(8) 0.1440(5)
C154_4 C 0.4995(11) 0.2999(8) 0.1602(5)
C155_4 C 0.4816(10) 0.2674(7) 0.1812(4)
C156_4 C 0.4578(6) 0.2276(4) 0.2057(2)
C157_4 C 0.4047(6) 0.2046(4) 0.2125(2)
H69_4 H 0.3837 0.2152 0.2011
C158_4 C 0.3824(5) 0.1660(4) 0.2358(2)
H70_4 H 0.3462 0.1504 0.2405
C159_4 C 0.4132(5) 0.1505(4) 0.25237(18)
C160_4 C 0.4662(4) 0.1735(3) 0.2456(2)
H71_4 H 0.4872 0.1628 0.2569
C161_4 C 0.4885(5) 0.2120(4) 0.2222(2)
H72_4 H 0.5248 0.2278 0.2176
C162_4 C 0.3888(6) 0.1116(5) 0.2785(3)
H73_4 H 0.4920 0.0144 0.3529
H78_4 H 0.5354 0.0051 0.4055
O51_4 O 0.4939(6) 0.0821(4) 0.3231(2)
N2_4 N 0.5724(7) 0.1564(4) 0.3228(3)
C166_4 C 0.5223(6) 0.1289(4) 0.3158(3)
H80_4 H 0.5069 0.1457 0.3045
C167_4 C 0.5973(11) 0.1332(7) 0.3412(6)
H81_4 H 0.6344 0.1590 0.3442
H82_4 H 0.5941 0.1028 0.3297
H83_4 H 0.5803 0.1221 0.3621
C168_4 C 0.6036(10) 0.2119(4) 0.3147(5)
H84_4 H 0.6397 0.2254 0.3219
H85_4 H 0.5889 0.2312 0.3255
H86_4 H 0.6030 0.2163 0.2915
O38_4 O 0.3578(4) 0.9189(3) 0.29307(19)
O40_4 O 0.6304(4) 0.7010(3) 0.05719(18)
C109_4 C 0.3964(6) 0.9546(4) 0.2797(3)
C110_4 C 0.4261(5) 0.9390(4) 0.2569(2)
C111_4 C 0.4628(5) 0.9750(3) 0.2359(3)
C112_4 C 0.4886(6) 0.9595(4) 0.2145(2)
H50_4 H 0.5138 0.9842 0.2001
C113_4 C 0.4776(6) 0.9079(4) 0.2143(3)
C114_4 C 0.4407(4) 0.8718(3) 0.2353(3)
H51_4 H 0.4333 0.8366 0.2352
C115_4 C 0.4150(5) 0.8874(3) 0.2567(2)
H52_4 H 0.3898 0.8627 0.2711
C116_4 C 0.4983(9) 0.8908(7) 0.1887(4)
C117_4 C 0.5107(10) 0.8683(7) 0.1704(4)
C118_4 C 0.5247(9) 0.8489(7) 0.1446(4)
C119_4 C 0.5380(8) 0.8281(6) 0.1256(3)
C120_4 C 0.5516(4) 0.7977(3) 0.10524(18)
C121_4 C 0.5523(4) 0.8052(3) 0.07234(19)
H53_4 H 0.5410 0.8277 0.0638
C122_4 C 0.5696(4) 0.7798(3) 0.05194(14)
H54_4 H 0.5701 0.7849 0.0294
C123_4 C 0.5861(4) 0.7468(3) 0.06443(17)
C124_4 C 0.5854(4) 0.7393(3) 0.09733(18)
H55_4 H 0.5966 0.7167 0.1058
C125_4 C 0.5681(5) 0.7647(4) 0.11773(14)
H56_4 H 0.5675 0.7595 0.1402
C126_4 C 0.6089(6) 0.7232(5) 0.0427(2)
O42_4 O 0.2548(4) 0.9212(3) 0.28299(18)
C127_4 C 0.2287(6) 0.9434(4) 0.2777(3)
C128_4 C 0.1840(4) 0.9173(3) 0.25541(18)
C129_4 C 0.1512(4) 0.9377(3) 0.2505(2)
H57_4 H 0.1564 0.9675 0.2622
C130_4 C 0.1106(4) 0.9145(3) 0.2283(2)
H58_4 H 0.0882 0.9285 0.2250
C131_4 C 0.1031(5) 0.8710(3) 0.21119(19)
C132_4 C 0.1358(4) 0.8505(3) 0.2161(2)
H59_4 H 0.1307 0.8208 0.2043
C133_4 C 0.1764(4) 0.8737(3) 0.2382(2)
H60_4 H 0.1988 0.8597 0.2416
C134_4 C 0.0607(8) 0.8463(6) 0.1884(3)
C135_4 C 0.0271(8) 0.8314(5) 0.1688(3)
O50_4 O 0.4197(4) 0.9912(3) 0.35481(19)
N1_4 N 0.4620(5) 0.9647(4) 0.3883(2)
C163_4 C 0.4603(4) 0.9923(3) 0.3640(2)
C164_4 C 0.4152(8) 0.9321(6) 0.4069(3)
H74_4 H 0.4235 0.9145 0.4239
H75_4 H 0.3882 0.9059 0.3929
H76_4 H 0.4024 0.9539 0.4165
C165_4 C 0.5111(9) 0.9690(7) 0.3990(4)
H77_4 H 0.5043 0.9455 0.4172
H79_4 H 0.5264 0.9591 0.3814
O66_2 O 0.7443(4) 0.7258(3) 0.05200(19)
O44_4 O 0.7916(4) 0.7244(3) 0.01081(19)
C136_4 C 0.9901(8) 0.8152(6) 0.1462(3)
C137_4 C 0.9559(8) 0.7999(6) 0.1262(3)
C138_4 C 0.9149(4) 0.7879(3) 0.10307(16)
C139_4 C 0.8675(5) 0.7818(4) 0.11347(14)
H61_4 H 0.8635 0.7893 0.1350
C140_4 C 0.8258(5) 0.7646(4) 0.09228(17)
H62_4 H 0.7934 0.7604 0.0994
C141_4 C 0.8316(4) 0.7536(3) 0.06067(16)
C142_4 C 0.8790(4) 0.7597(3) 0.05027(13)
H63_4 H 0.8830 0.7522 0.0286
C143_4 C 0.9207(4) 0.7769(3) 0.07147(18)
H64_4 H 0.9531 0.7811 0.0643
C144_4 C 0.7854(6) 0.7337(4) 0.0396(2)
loop_
_geom_bond_atom_site_label_1
_geom_bond_atom_site_label_2
_geom_bond_site_symmetry_1
_geom_bond_site_symmetry_2
Zn5 O14 1_555 1_555
Zn11 O14 1_555 1_555
Zn12 O14 1_555 1_555
Zn18 O14 1_555 1_555
O17 Zn5 1_555 1_555
O18 Zn12 1_555 1_555
O21 Zn5 1_555 1_555
C55 O17 1_555 1_555
C56 C55 1_555 1_555
C57 C56 1_555 1_555
H25 C57 1_555 1_555
C58 C57 1_555 1_555
H26 C58 1_555 1_555
C59 C58 1_555 1_555
C60 C59 1_555 1_555
H27 C60 1_555 1_555
C61 C56 1_555 1_555
H28 C61 1_555 1_555
C62 C59 1_555 1_555
C63 C62 1_555 1_555
O23 Zn5 1_555 1_555
O28 Zn12 1_555 1_555
O36 Zn12 1_555 1_555
O18 C55 1_555 1_555
C60 C61 1_555 1_555
Zn10 O29 1_555 1_555
Zn4 O1 1_555 1_555
O11 Zn4 1_555 1_555
O12 C54 1_555 1_555
O36 C54 1_555 1_555
C38 C37 1_555 1_555
C39 C38 1_555 1_555
H17 C39 1_555 1_555
C40 C39 1_555 1_555
H18 C40 1_555 1_555
C41 C40 1_555 1_555
C42 C41 1_555 1_555
H19 C42 1_555 1_555
C43 C38 1_555 1_555
C44 C41 1_555 1_555
C45 C44 1_555 1_555
C46 C45 1_555 1_555
C47 C46 1_555 1_555
C48 C47 1_555 1_555
C49 C48 1_555 1_555
H21 C49 1_555 1_555
C50 C49 1_555 1_555
H22 C50 1_555 1_555
C51 C50 1_555 1_555
C52 C51 1_555 1_555
H23 C52 1_555 1_555
C53 C48 1_555 1_555
H24 C53 1_555 1_555
C54 C51 1_555 1_555
Zn18 O12 1_555 1_555
O19 Zn4 1_555 1_555
C65 C64 1_555 1_555
C66 C65 1_555 1_555
C67 C66 1_555 1_555
H29 C67 1_555 1_555
C68 C67 1_555 1_555
H30 C68 1_555 1_555
C69 C68 1_555 1_555
C70 C69 1_555 1_555
H31 C70 1_555 1_555
C71 C66 1_555 1_555
H32 C71 1_555 1_555
C72 O19 1_555 1_555
O33 Zn4 1_555 1_555
O11 C37 1_555 1_555
C42 C43 1_555 1_555
C52 C53 1_555 1_555
O20 C72 1_555 1_555
C69 C72 1_555 1_555
C70 C71 1_555 1_555
Zn17 O31 1_555 1_555
O31 C91 1_555 1_555
O35 Zn3 1_555 1_555
C91 C92 1_555 1_555
C92 C93 1_555 1_555
C93 H41 1_555 1_555
C94 C93 1_555 1_555
H42 C94 1_555 1_555
C95 C94 1_555 1_555
C96 C95 1_555 1_555
H43 C96 1_555 1_555
C97 C92 1_555 1_555
C98 C95 1_555 1_555
C99 C98 1_555 1_555
C100 C99 1_555 1_555
C101 C100 1_555 1_555
C102 C101 1_555 1_555
C103 C102 1_555 1_555
H45 C103 1_555 1_555
C104 C103 1_555 1_555
H46 C104 1_555 1_555
C105 C104 1_555 1_555
C106 C105 1_555 1_555
H47 C106 1_555 1_555
C107 C102 1_555 1_555
H48 C107 1_555 1_555
O35 C108 1_555 1_555
C96 C97 1_555 1_555
C105 C108 1_555 1_555
C106 C107 1_555 1_555
O6 Zn1 1_555 1_555
O7 Zn2 1_555 1_555
O8 C36 1_555 1_555
O28 C36 1_555 1_555
C19 O6 1_555 1_555
C20 C19 1_555 1_555
C21 C20 1_555 1_555
H9 C21 1_555 1_555
C22 C21 1_555 1_555
H10 C22 1_555 1_555
C23 C22 1_555 1_555
C24 C23 1_555 1_555
H11 C24 1_555 1_555
C25 C20 1_555 1_555
H12 C25 1_555 1_555
C26 C23 1_555 1_555
C27 C26 1_555 1_555
C28 C27 1_555 1_555
C29 C28 1_555 1_555
C30 C29 1_555 1_555
C31 C30 1_555 1_555
H13 C31 1_555 1_555
C32 C31 1_555 1_555
H14 C32 1_555 1_555
C33 C32 1_555 1_555
C34 C33 1_555 1_555
H15 C34 1_555 1_555
C35 C30 1_555 1_555
H16 C35 1_555 1_555
C36 C33 1_555 1_555
O10 Zn2 1_555 1_555
Zn11 O8 1_555 1_555
O25 Zn11 1_555 1_555
O30 Zn11 1_555 1_555
O7 C19 1_555 1_555
C24 C25 1_555 1_555
C34 C35 1_555 1_555
O4 C18 1_555 1_555
O5 C18 1_555 1_555
C1 O2 1_555 1_555
C2 C1 1_555 1_555
C3 C2 1_555 1_555
H1 C3 1_555 1_555
C4 C3 1_555 1_555
H2 C4 1_555 1_555
C5 C4 1_555 1_555
C6 C5 1_555 1_555
H3 C6 1_555 1_555
C7 C2 1_555 1_555
H4 C7 1_555 1_555
C8 C5 1_555 1_555
C9 C8 1_555 1_555
C10 C9 1_555 1_555
C11 C10 1_555 1_555
C12 C11 1_555 1_555
C13 C12 1_555 1_555
H5 C13 1_555 1_555
C14 C13 1_555 1_555
H6 C14 1_555 1_555
C15 C14 1_555 1_555
C16 C15 1_555 1_555
H7 C16 1_555 1_555
C17 C12 1_555 1_555
H8 C17 1_555 1_555
C18 C15 1_555 1_555
Zn6 O22 1_555 1_555
Zn10 O24 1_555 1_555
Zn17 O4 1_555 1_555
O22 C73 1_555 1_555
O24 C73 1_555 1_555
C73 C74 1_555 1_555
C74 C75 1_555 1_555
C75 H33 1_555 1_555
C76 C75 1_555 1_555
H34 C76 1_555 1_555
C77 C76 1_555 1_555
C78 C77 1_555 1_555
H35 C78 1_555 1_555
C79 C74 1_555 1_555
H36 C79 1_555 1_555
C80 C77 1_555 1_555
C81 C80 1_555 1_555
C82 C81 1_555 1_555
C83 C82 1_555 1_555
C84 C83 1_555 1_555
C85 C84 1_555 1_555
H37 C85 1_555 1_555
C86 C85 1_555 1_555
H38 C86 1_555 1_555
C87 C86 1_555 1_555
C88 C87 1_555 1_555
H39 C88 1_555 1_555
C89 C84 1_555 1_555
H40 C89 1_555 1_555
C90 O26 1_555 1_555
O34 Zn17 1_555 1_555
O3 C1 1_555 1_555
C6 C7 1_555 1_555
C16 C17 1_555 1_555
Zn17 O16 1_555 1_555
O27 C90 1_555 1_555
C78 C79 1_555 1_555
C87 C90 1_555 1_555
C88 C89 1_555 1_555
O8_2 C36_2 1_555 1_555
O9 C36_2 1_555 1_555
C19_2 O23 1_555 1_555
C20_2 C19_2 1_555 1_555
C21_2 C20_2 1_555 1_555
H9_2 C21_2 1_555 1_555
C22_2 C21_2 1_555 1_555
H10_2 C22_2 1_555 1_555
C23_2 C22_2 1_555 1_555
C24_2 C23_2 1_555 1_555
H11_2 C24_2 1_555 1_555
C25_2 C20_2 1_555 1_555
H12_2 C25_2 1_555 1_555
C26_2 C23_2 1_555 1_555
C27_2 C26_2 1_555 1_555
C28_2 C27_2 1_555 1_555
C29_2 C28_2 1_555 1_555
C30_2 C29_2 1_555 1_555
C31_2 C30_2 1_555 1_555
H13_2 C31_2 1_555 1_555
C32_2 C31_2 1_555 1_555
H14_2 C32_2 1_555 1_555
C33_2 C32_2 1_555 1_555
C34_2 C33_2 1_555 1_555
H15_2 C34_2 1_555 1_555
C35_2 C30_2 1_555 1_555
H16_2 C35_2 1_555 1_555
C36_2 C33_2 1_555 1_555
O11_2 Zn18 1_555 1_555
O34 C54_2 1_555 1_555
O13 C54_2 1_555 1_555
C37_2 O30 1_555 1_555
C38_2 C37_2 1_555 1_555
C39_2 C38_2 1_555 1_555
H17_2 C39_2 1_555 1_555
C40_2 C39_2 1_555 1_555
H18_2 C40_2 1_555 1_555
C41_2 C40_2 1_555 1_555
C42_2 C41_2 1_555 1_555
H19_2 C42_2 1_555 1_555
C43_2 C38_2 1_555 1_555
H20_2 C43_2 1_555 1_555
C44_2 C41_2 1_555 1_555
C45_2 C44_2 1_555 1_555
C46_2 C45_2 1_555 1_555
C47_2 C46_2 1_555 1_555
C48_2 C47_2 1_555 1_555
C49_2 C48_2 1_555 1_555
H21_2 C49_2 1_555 1_555
C50_2 C49_2 1_555 1_555
H22_2 C50_2 1_555 1_555
C51_2 C50_2 1_555 1_555
C52_2 C51_2 1_555 1_555
H23_2 C52_2 1_555 1_555
C53_2 C48_2 1_555 1_555
H24_2 C53_2 1_555 1_555
C54_2 C51_2 1_555 1_555
Zn10 O8_2 1_555 1_555
Zn14 O13 1_555 1_555
O19_2 Zn18 1_555 1_555
C65_2 C64_2 1_555 1_555
C66_2 C65_2 1_555 1_555
C67_2 C66_2 1_555 1_555
H29_2 C67_2 1_555 1_555
C68_2 C67_2 1_555 1_555
H30_2 C68_2 1_555 1_555
C69_2 C68_2 1_555 1_555
C70_2 C69_2 1_555 1_555
H31_2 C70_2 1_555 1_555
C71_2 C66_2 1_555 1_555
H32_2 C71_2 1_555 1_555
C72_2 O19_2 1_555 1_555
O25 C19_2 1_555 1_555
C24_2 C25_2 1_555 1_555
C34_2 C35_2 1_555 1_555
O11_2 C37_2 1_555 1_555
C42_2 C43_2 1_555 1_555
C52_2 C53_2 1_555 1_555
O21 C72_2 1_555 1_555
C69_2 C72_2 1_555 1_555
C70_2 C71_2 1_555 1_555
Zn14 O16 1_555 1_555
O17_2 Zn6 1_555 1_555
C55_2 O17_2 1_555 1_555
C56_2 C55_2 1_555 1_555
C57_2 C56_2 1_555 1_555
H25_2 C57_2 1_555 1_555
C58_2 C57_2 1_555 1_555
H26_2 C58_2 1_555 1_555
C59_2 C58_2 1_555 1_555
C60_2 C59_2 1_555 1_555
H27_2 C60_2 1_555 1_555
C61_2 C56_2 1_555 1_555
H28_2 C61_2 1_555 1_555
C62_2 C59_2 1_555 1_555
C63_2 C62_2 1_555 1_555
O18_2 C55_2 1_555 1_555
C60_2 C61_2 1_555 1_555
O2_2 Zn1_2 1_555 1_555
O4_2 C18_2 1_555 1_555
O5_2 C18_2 1_555 1_555
C1_2 O2_2 1_555 1_555
C2_2 C1_2 1_555 1_555
C3_2 C2_2 1_555 1_555
H1_2 C3_2 1_555 1_555
C4_2 C3_2 1_555 1_555
H2_2 C4_2 1_555 1_555
C5_2 C4_2 1_555 1_555
C6_2 C5_2 1_555 1_555
H3_2 C6_2 1_555 1_555
C7_2 C2_2 1_555 1_555
H4_2 C7_2 1_555 1_555
C8_2 C5_2 1_555 1_555
C9_2 C8_2 1_555 1_555
C10_2 C9_2 1_555 1_555
C11_2 C10_2 1_555 1_555
C12_2 C11_2 1_555 1_555
C13_2 C12_2 1_555 1_555
H5_2 C13_2 1_555 1_555
C14_2 C13_2 1_555 1_555
H6_2 C14_2 1_555 1_555
C15_2 C14_2 1_555 1_555
C16_2 C15_2 1_555 1_555
H7_2 C16_2 1_555 1_555
C17_2 C12_2 1_555 1_555
H8_2 C17_2 1_555 1_555
C18_2 C15_2 1_555 1_555
O6_2 Zn1_2 1_555 1_555
O7_2 Zn2_2 1_555 1_555
O8_3 C36_3 1_555 1_555
O9_2 C36_3 1_555 1_555
C19_3 O6_2 1_555 1_555
C20_3 C19_3 1_555 1_555
C21_3 C20_3 1_555 1_555
H9_3 C21_3 1_555 1_555
C22_3 C21_3 1_555 1_555
H10_3 C22_3 1_555 1_555
C23_3 C22_3 1_555 1_555
C24_3 C23_3 1_555 1_555
H11_3 C24_3 1_555 1_555
C25_3 C20_3 1_555 1_555
H12_3 C25_3 1_555 1_555
C26_3 C23_3 1_555 1_555
C27_3 C26_3 1_555 1_555
C28_3 C27_3 1_555 1_555
C29_3 C28_3 1_555 1_555
C30_3 C29_3 1_555 1_555
C31_3 C30_3 1_555 1_555
H13_3 C31_3 1_555 1_555
C32_3 C31_3 1_555 1_555
H14_3 C32_3 1_555 1_555
C33_3 C32_3 1_555 1_555
C34_3 C33_3 1_555 1_555
H15_3 C34_3 1_555 1_555
C35_3 C30_3 1_555 1_555
H16_3 C35_3 1_555 1_555
C36_3 C33_3 1_555 1_555
O10_2 Zn2_2 1_555 1_555
Zn7 O22_2 1_555 1_555
Zn8 O8_3 1_555 1_555
Zn9 O24_2 1_555 1_555
Zn13 O9_2 1_555 1_555
Zn15 O4_2 1_555 1_555
O15 Zn8 1_555 1_555
O22_2 C73_2 1_555 1_555
O24_2 C73_2 1_555 1_555
O25_2 Zn8 1_555 1_555
O26_2 Zn2_2 1_555 1_555
C73_2 C74_2 1_555 1_555
C74_2 C75_2 1_555 1_555
C75_2 H33_2 1_555 1_555
C76_2 C75_2 1_555 1_555
H34_2 C76_2 1_555 1_555
C77_2 C76_2 1_555 1_555
C78_2 C77_2 1_555 1_555
H35_2 C78_2 1_555 1_555
C79_2 C74_2 1_555 1_555
H36_2 C79_2 1_555 1_555
C80_2 C77_2 1_555 1_555
C81_2 C80_2 1_555 1_555
C82_2 C81_2 1_555 1_555
C83_2 C82_2 1_555 1_555
C84_2 C83_2 1_555 1_555
C85_2 C84_2 1_555 1_555
H37_2 C85_2 1_555 1_555
C86_2 C85_2 1_555 1_555
H38_2 C86_2 1_555 1_555
C87_2 C86_2 1_555 1_555
C88_2 C87_2 1_555 1_555
H39_2 C88_2 1_555 1_555
C89_2 C84_2 1_555 1_555
H40_2 C89_2 1_555 1_555
C90_2 O26_2 1_555 1_555
O30_2 Zn8 1_555 1_555
O32 Zn15 1_555 1_555
O34_2 Zn15 1_555 1_555
O3_2 C1_2 1_555 1_555
C6_2 C7_2 1_555 1_555
C16_2 C17_2 1_555 1_555
O7_2 C19_3 1_555 1_555
C24_3 C25_3 1_555 1_555
C34_3 C35_3 1_555 1_555
Zn13 O15 1_555 1_555
Zn15 O16_2 1_555 1_555
O27_2 C90_2 1_555 1_555
C78_2 C79_2 1_555 1_555
C87_2 C90_2 1_555 1_555
C88_2 C89_2 1_555 1_555
Zn3_2 O1_2 1_555 1_555
Zn4_2 O1_2 1_555 1_555
O11_3 Zn4_2 1_555 1_555
O12_2 C54_3 1_555 1_555
O13_2 C54_3 1_555 1_555
C38_3 C37_3 1_555 1_555
C39_3 C38_3 1_555 1_555
H17_3 C39_3 1_555 1_555
C40_3 C39_3 1_555 1_555
H18_3 C40_3 1_555 1_555
C41_3 C40_3 1_555 1_555
C42_3 C41_3 1_555 1_555
H19_3 C42_3 1_555 1_555
C43_3 C38_3 1_555 1_555
C44_3 C41_3 1_555 1_555
C45_3 C44_3 1_555 1_555
C46_3 C45_3 1_555 1_555
C47_3 C46_3 1_555 1_555
C48_3 C47_3 1_555 1_555
C49_3 C48_3 1_555 1_555
H21_3 C49_3 1_555 1_555
C50_3 C49_3 1_555 1_555
H22_3 C50_3 1_555 1_555
C51_3 C50_3 1_555 1_555
C52_3 C51_3 1_555 1_555
H23_3 C52_3 1_555 1_555
C53_3 C48_3 1_555 1_555
H24_3 C53_3 1_555 1_555
C54_3 C51_3 1_555 1_555
Zn13 O13_2 1_555 1_555
Zn16 O12_2 1_555 1_555
O19_3 Zn4_2 1_555 1_555
C65_3 C64_3 1_555 1_555
C66_3 C65_3 1_555 1_555
C67_3 C66_3 1_555 1_555
H29_3 C67_3 1_555 1_555
C68_3 C67_3 1_555 1_555
H30_3 C68_3 1_555 1_555
C69_3 C68_3 1_555 1_555
C70_3 C69_3 1_555 1_555
H31_3 C70_3 1_555 1_555
C71_3 C66_3 1_555 1_555
H32_3 C71_3 1_555 1_555
C72_3 O19_3 1_555 1_555
O32 C91_2 1_555 1_555
O33_2 Zn4_2 1_555 1_555
O35_2 Zn3_2 1_555 1_555
C91_2 C92_2 1_555 1_555
C92_2 C93_2 1_555 1_555
C93_2 H41_2 1_555 1_555
C94_2 C93_2 1_555 1_555
H42_2 C94_2 1_555 1_555
C95_2 C94_2 1_555 1_555
C96_2 C95_2 1_555 1_555
H43_2 C96_2 1_555 1_555
C97_2 C92_2 1_555 1_555
C98_2 C95_2 1_555 1_555
C99_2 C98_2 1_555 1_555
C100_2 C99_2 1_555 1_555
C101_2 C100_2 1_555 1_555
C102_2 C101_2 1_555 1_555
C103_2 C102_2 1_555 1_555
H45_2 C103_2 1_555 1_555
C104_2 C103_2 1_555 1_555
H46_2 C104_2 1_555 1_555
C105_2 C104_2 1_555 1_555
C106_2 C105_2 1_555 1_555
H47_2 C106_2 1_555 1_555
C107_2 C102_2 1_555 1_555
H48_2 C107_2 1_555 1_555
C108_2 O33_2 1_555 1_555
O11_3 C37_3 1_555 1_555
C42_3 C43_3 1_555 1_555
C52_3 C53_3 1_555 1_555
O20_2 C72_3 1_555 1_555
C69_3 C72_3 1_555 1_555
C70_3 C71_3 1_555 1_555
O35_2 C108_2 1_555 1_555
C96_2 C97_2 1_555 1_555
C105_2 C108_2 1_555 1_555
C106_2 C107_2 1_555 1_555
Zn5_2 O15 1_555 1_555
Zn9 O29_2 1_555 1_555
Zn16 O15 1_555 1_555
O17_3 Zn5_2 1_555 1_555
O18_3 Zn13 1_555 1_555
O21_2 Zn5_2 1_555 1_555
C55_3 O17_3 1_555 1_555
C56_3 C55_3 1_555 1_555
C57_3 C56_3 1_555 1_555
H25_3 C57_3 1_555 1_555
C58_3 C57_3 1_555 1_555
H26_3 C58_3 1_555 1_555
C59_3 C58_3 1_555 1_555
C60_3 C59_3 1_555 1_555
H27_3 C60_3 1_555 1_555
C61_3 C56_3 1_555 1_555
H28_3 C61_3 1_555 1_555
C62_3 C59_3 1_555 1_555
C63_3 C62_3 1_555 1_555
O23_2 Zn5_2 1_555 1_555
O18_3 C55_3 1_555 1_555
C60_3 C61_3 1_555 1_555
O36_2 Zn12_2 1_555 1_555
C55_4 O17_4 1_555 1_555
C56_4 C55_4 1_555 1_555
C57_4 C56_4 1_555 1_555
H25_4 C57_4 1_555 1_555
C58_4 C57_4 1_555 1_555
H26_4 C58_4 1_555 1_555
C59_4 C58_4 1_555 1_555
C60_4 C59_4 1_555 1_555
H27_4 C60_4 1_555 1_555
C61_4 C56_4 1_555 1_555
H28_4 C61_4 1_555 1_555
C62_4 C59_4 1_555 1_555
C63_4 C62_4 1_555 1_555
O18_4 C55_4 1_555 1_555
C60_4 C61_4 1_555 1_555
O8_4 C36_4 1_555 1_555
O28_2 C36_4 1_555 1_555
C19_4 O23_2 1_555 1_555
C20_4 C19_4 1_555 1_555
C21_4 C20_4 1_555 1_555
H9_4 C21_4 1_555 1_555
C22_4 C21_4 1_555 1_555
H10_4 C22_4 1_555 1_555
C23_4 C22_4 1_555 1_555
C24_4 C23_4 1_555 1_555
H11_4 C24_4 1_555 1_555
C25_4 C20_4 1_555 1_555
H12_4 C25_4 1_555 1_555
C26_4 C23_4 1_555 1_555
C27_4 C26_4 1_555 1_555
C28_4 C27_4 1_555 1_555
C29_4 C28_4 1_555 1_555
C30_4 C29_4 1_555 1_555
C31_4 C30_4 1_555 1_555
H13_4 C31_4 1_555 1_555
C32_4 C31_4 1_555 1_555
H14_4 C32_4 1_555 1_555
C33_4 C32_4 1_555 1_555
C34_4 C33_4 1_555 1_555
H15_4 C34_4 1_555 1_555
C35_4 C30_4 1_555 1_555
H16_4 C35_4 1_555 1_555
C36_4 C33_4 1_555 1_555
O11_4 Zn16 1_555 1_555
O36_2 C54_4 1_555 1_555
C37_4 O30_2 1_555 1_555
C38_4 C37_4 1_555 1_555
C39_4 C38_4 1_555 1_555
H17_4 C39_4 1_555 1_555
C40_4 C39_4 1_555 1_555
H18_4 C40_4 1_555 1_555
C41_4 C40_4 1_555 1_555
C42_4 C41_4 1_555 1_555
H19_4 C42_4 1_555 1_555
C43_4 C38_4 1_555 1_555
H20_4 C43_4 1_555 1_555
C44_4 C41_4 1_555 1_555
C45_4 C44_4 1_555 1_555
C46_4 C45_4 1_555 1_555
C47_4 C46_4 1_555 1_555
C48_4 C47_4 1_555 1_555
C49_4 C48_4 1_555 1_555
H21_4 C49_4 1_555 1_555
C50_4 C49_4 1_555 1_555
H22_4 C50_4 1_555 1_555
C51_4 C50_4 1_555 1_555
C52_4 C51_4 1_555 1_555
H23_4 C52_4 1_555 1_555
C53_4 C48_4 1_555 1_555
H24_4 C53_4 1_555 1_555
C54_4 C51_4 1_555 1_555
O19_4 Zn16 1_555 1_555
C65_4 C64_4 1_555 1_555
C66_4 C65_4 1_555 1_555
C67_4 C66_4 1_555 1_555
H29_4 C67_4 1_555 1_555
C68_4 C67_4 1_555 1_555
H30_4 C68_4 1_555 1_555
C69_4 C68_4 1_555 1_555
C70_4 C69_4 1_555 1_555
H31_4 C70_4 1_555 1_555
C71_4 C66_4 1_555 1_555
H32_4 C71_4 1_555 1_555
C72_4 O19_4 1_555 1_555
O25_2 C19_4 1_555 1_555
C24_4 C25_4 1_555 1_555
C34_4 C35_4 1_555 1_555
O11_4 C37_4 1_555 1_555
C42_4 C43_4 1_555 1_555
C52_4 C53_4 1_555 1_555
O21_2 C72_4 1_555 1_555
C69_4 C72_4 1_555 1_555
C70_4 C71_4 1_555 1_555
Zn25 O60 1_555 1_555
Zn31 O62 1_555 1_555
O60 C187 1_555 1_555
O62 C187 1_555 1_555
C187 C188 1_555 1_555
C188 C189 1_555 1_555
C189 H95 1_555 1_555
C190 C189 1_555 1_555
H96 C190 1_555 1_555
C191 C190 1_555 1_555
C192 C191 1_555 1_555
H97 C192 1_555 1_555
C193 C188 1_555 1_555
H98 C193 1_555 1_555
C194 C191 1_555 1_555
C195 C194 1_555 1_555
C192 C193 1_555 1_555
Zn20 O37 1_555 1_555
Zn21 O37 1_555 1_555
O39 Zn20 1_555 1_555
O46 C145 1_555 1_555
O47 C145 1_555 1_555
O48 Zn20 1_555 1_555
O49 Zn21 1_555 1_555
C145 C146 1_555 1_555
C146 C147 1_555 1_555
C147 H65 1_555 1_555
C148 C147 1_555 1_555
H66 C148 1_555 1_555
C149 C148 1_555 1_555
C150 C149 1_555 1_555
H67 C150 1_555 1_555
C151 C146 1_555 1_555
H68 C151 1_555 1_555
C152 C149 1_555 1_555
C153 C152 1_555 1_555
C154 C153 1_555 1_555
C155 C154 1_555 1_555
C156 C155 1_555 1_555
C157 C156 1_555 1_555
H69 C157 1_555 1_555
C158 C157 1_555 1_555
H70 C158 1_555 1_555
C159 C158 1_555 1_555
C160 C159 1_555 1_555
H71 C160 1_555 1_555
C161 C156 1_555 1_555
H72 C161 1_555 1_555
C162 O48 1_555 1_555
O51 Zn20 1_555 1_555
N2 C166 1_555 1_555
C166 O51 1_555 1_555
H80 C166 1_555 1_555
C168 N2 1_555 1_555
H84 C168 1_555 1_555
H85 C168 1_555 1_555
H86 C168 1_555 1_555
Zn27 O46 1_555 1_555
Zn35 O47 1_555 1_555
O49 C162 1_555 1_555
C150 C151 1_555 1_555
C159 C162 1_555 1_555
C160 C161 1_555 1_555
H81 C167 1_555 1_555
H83 C167 1_555 1_555
Zn28 O71 1_555 1_555
Zn31 O73 1_555 1_555
O65 Zn22 1_555 1_555
C197 C196 1_555 1_555
C198 C197 1_555 1_555
C199 C198 1_555 1_555
H99 C199 1_555 1_555
C200 C199 1_555 1_555
H100 C200 1_555 1_555
C201 C200 1_555 1_555
C202 C201 1_555 1_555
H101 C202 1_555 1_555
C203 C198 1_555 1_555
H102 C203 1_555 1_555
C204 O64 1_555 1_555
O69 Zn22 1_555 1_555
O71 C222 1_555 1_555
O73 C222 1_555 1_555
C205 O67 1_555 1_555
C206 C205 1_555 1_555
C207 C206 1_555 1_555
H103 C207 1_555 1_555
C208 C207 1_555 1_555
H104 C208 1_555 1_555
C209 C208 1_555 1_555
C210 C209 1_555 1_555
H105 C210 1_555 1_555
C211 C206 1_555 1_555
H106 C211 1_555 1_555
C212 C209 1_555 1_555
C213 C212 1_555 1_555
C214 C213 1_555 1_555
C215 C214 1_555 1_555
C216 C215 1_555 1_555
C217 C216 1_555 1_555
H107 C217 1_555 1_555
C218 C217 1_555 1_555
H108 C218 1_555 1_555
C219 C218 1_555 1_555
C220 C219 1_555 1_555
H109 C220 1_555 1_555
C221 C216 1_555 1_555
H110 C221 1_555 1_555
C222 C219 1_555 1_555
O65 C204 1_555 1_555
C201 C204 1_555 1_555
C202 C203 1_555 1_555
O69 C205 1_555 1_555
C210 C211 1_555 1_555
C220 C221 1_555 1_555
O38 Zn19 1_555 1_555
O40 C126 1_555 1_555
O41 C126 1_555 1_555
C109 O38 1_555 1_555
C110 C109 1_555 1_555
C111 C110 1_555 1_555
C112 C111 1_555 1_555
H50 C112 1_555 1_555
C113 C112 1_555 1_555
C114 C113 1_555 1_555
H51 C114 1_555 1_555
C115 C110 1_555 1_555
H52 C115 1_555 1_555
C116 C113 1_555 1_555
C117 C116 1_555 1_555
C118 C117 1_555 1_555
C119 C118 1_555 1_555
C120 C119 1_555 1_555
C121 C120 1_555 1_555
H53 C121 1_555 1_555
C122 C121 1_555 1_555
H54 C122 1_555 1_555
C123 C122 1_555 1_555
C124 C123 1_555 1_555
H55 C124 1_555 1_555
C125 C120 1_555 1_555
H56 C125 1_555 1_555
C126 C123 1_555 1_555
O42 Zn19 1_555 1_555
O44 C144 1_555 1_555
O45 C144 1_555 1_555
C127 O42 1_555 1_555
C128 C127 1_555 1_555
C129 C128 1_555 1_555
H57 C129 1_555 1_555
C130 C129 1_555 1_555
H58 C130 1_555 1_555
C131 C130 1_555 1_555
C132 C131 1_555 1_555
H59 C132 1_555 1_555
C133 C128 1_555 1_555
H60 C133 1_555 1_555
C134 C131 1_555 1_555
C135 C134 1_555 1_555
C136 C135 1_555 1_555
C137 C136 1_555 1_555
C138 C137 1_555 1_555
C139 C138 1_555 1_555
H61 C139 1_555 1_555
C140 C139 1_555 1_555
H62 C140 1_555 1_555
C141 C140 1_555 1_555
C142 C141 1_555 1_555
H63 C142 1_555 1_555
C143 C138 1_555 1_555
H64 C143 1_555 1_555
C144 C141 1_555 1_555
Zn24 O41 1_555 1_555
Zn29 O44 1_555 1_555
Zn35 O45 1_555 1_555
O53 Zn29 1_555 1_555
O74 Zn29 1_555 1_555
C114 C115 1_555 1_555
C124 C125 1_555 1_555
O43 C127 1_555 1_555
C132 C133 1_555 1_555
C142 C143 1_555 1_555
Zn35 O53 1_555 1_555
N1 C163 1_555 1_555
C163 O50 1_555 1_555
C164 N1 1_555 1_555
H74 C164 1_555 1_555
H75 C164 1_555 1_555
H76 C164 1_555 1_555
C165 N1 1_555 1_555
H77 C165 1_555 1_555
H79 C165 1_555 1_555
Zn25 O52 1_555 1_555
Zn28 O52 1_555 1_555
Zn31 O52 1_555 1_555
Zn36 O52 1_555 1_555
O55 Zn25 1_555 1_555
O56 Zn28 1_555 1_555
O59 Zn25 1_555 1_555
C169 O55 1_555 1_555
C170 C169 1_555 1_555
C171 C170 1_555 1_555
H87 C171 1_555 1_555
C172 C171 1_555 1_555
H88 C172 1_555 1_555
C173 C172 1_555 1_555
C174 C173 1_555 1_555
H89 C174 1_555 1_555
C175 C170 1_555 1_555
H90 C175 1_555 1_555
C176 C173 1_555 1_555
C177 C176 1_555 1_555
C178 C177 1_555 1_555
C179 C178 1_555 1_555
C180 C179 1_555 1_555
C181 C180 1_555 1_555
H91 C181 1_555 1_555
C182 C181 1_555 1_555
H92 C182 1_555 1_555
C183 C182 1_555 1_555
C184 C183 1_555 1_555
H93 C184 1_555 1_555
C185 C180 1_555 1_555
H94 C185 1_555 1_555
C186 O57 1_555 1_555
O68 Zn28 1_555 1_555
O75 Zn28 1_555 1_555
N3 C223 1_555 1_555
C223 O75 1_555 1_555
H111 C223 1_555 1_555
C224 N3 1_555 1_555
H112 C224 1_555 1_555
H113 C224 1_555 1_555
H114 C224 1_555 1_555
C225 N3 1_555 1_555
H115 C225 1_555 1_555
H116 C225 1_555 1_555
H117 C225 1_555 1_555
O76 Zn28 1_555 1_555
N4 C226 1_555 1_555
C226 O76 1_555 1_555
H118 C226 1_555 1_555
C227 N4 1_555 1_555
H119 C227 1_555 1_555
H120 C227 1_555 1_555
H121 C227 1_555 1_555
C228 N4 1_555 1_555
H122 C228 1_555 1_555
H123 C228 1_555 1_555
H124 C228 1_555 1_555
O56 C169 1_555 1_555
O58 C186 1_555 1_555
C174 C175 1_555 1_555
C183 C186 1_555 1_555
C184 C185 1_555 1_555
O44_2 C144_2 1_555 1_555
O45_2 C144_2 1_555 1_555
C137_2 C136_2 1_555 1_555
C138_2 C137_2 1_555 1_555
C139_2 C138_2 1_555 1_555
H61_2 C139_2 1_555 1_555
C140_2 C139_2 1_555 1_555
H62_2 C140_2 1_555 1_555
C141_2 C140_2 1_555 1_555
C142_2 C141_2 1_555 1_555
H63_2 C142_2 1_555 1_555
C143_2 C138_2 1_555 1_555
H64_2 C143_2 1_555 1_555
C144_2 C141_2 1_555 1_555
Zn31 O44_2 1_555 1_555
Zn36 O45_2 1_555 1_555
C142_2 C143_2 1_555 1_555
O38_2 Zn24 1_555 1_555
O40_2 C126_2 1_555 1_555
O59 C126_2 1_555 1_555
C109_2 O38_2 1_555 1_555
C110_2 C109_2 1_555 1_555
C111_2 C110_2 1_555 1_555
C112_2 C111_2 1_555 1_555
H50_2 C112_2 1_555 1_555
C113_2 C112_2 1_555 1_555
C114_2 C113_2 1_555 1_555
H51_2 C114_2 1_555 1_555
C115_2 C110_2 1_555 1_555
H52_2 C115_2 1_555 1_555
C116_2 C113_2 1_555 1_555
C117_2 C116_2 1_555 1_555
C118_2 C117_2 1_555 1_555
C119_2 C118_2 1_555 1_555
C120_2 C119_2 1_555 1_555
C121_2 C120_2 1_555 1_555
H53_2 C121_2 1_555 1_555
C122_2 C121_2 1_555 1_555
H54_2 C122_2 1_555 1_555
C123_2 C122_2 1_555 1_555
C124_2 C123_2 1_555 1_555
H55_2 C124_2 1_555 1_555
C125_2 C120_2 1_555 1_555
H56_2 C125_2 1_555 1_555
C126_2 C123_2 1_555 1_555
O42_2 Zn24 1_555 1_555
C127_2 O42_2 1_555 1_555
C128_2 C127_2 1_555 1_555
C129_2 C128_2 1_555 1_555
H57_2 C129_2 1_555 1_555
C130_2 C129_2 1_555 1_555
H58_2 C130_2 1_555 1_555
C131_2 C130_2 1_555 1_555
C132_2 C131_2 1_555 1_555
H59_2 C132_2 1_555 1_555
C133_2 C128_2 1_555 1_555
H60_2 C133_2 1_555 1_555
C134_2 C131_2 1_555 1_555
C135_2 C134_2 1_555 1_555
N1_2 C163_2 1_555 1_555
C163_2 O50_2 1_555 1_555
C164_2 N1_2 1_555 1_555
H74_2 C164_2 1_555 1_555
H75_2 C164_2 1_555 1_555
H76_2 C164_2 1_555 1_555
C165_2 N1_2 1_555 1_555
H77_2 C165_2 1_555 1_555
H79_2 C165_2 1_555 1_555
Zn36 O40_2 1_555 1_555
O70 Zn36 1_555 1_555
C114_2 C115_2 1_555 1_555
C124_2 C125_2 1_555 1_555
O63 C127_2 1_555 1_555
C132_2 C133_2 1_555 1_555
Zn27 O53 1_555 1_555
O39_2 Zn27 1_555 1_555
O68 C145_2 1_555 1_555
O70 C145_2 1_555 1_555
O48_2 Zn27 1_555 1_555
C145_2 C146_2 1_555 1_555
C146_2 C147_2 1_555 1_555
C147_2 H65_2 1_555 1_555
C148_2 C147_2 1_555 1_555
H66_2 C148_2 1_555 1_555
C149_2 C148_2 1_555 1_555
C150_2 C149_2 1_555 1_555
H67_2 C150_2 1_555 1_555
C151_2 C146_2 1_555 1_555
H68_2 C151_2 1_555 1_555
C152_2 C149_2 1_555 1_555
C153_2 C152_2 1_555 1_555
C154_2 C153_2 1_555 1_555
C155_2 C154_2 1_555 1_555
C156_2 C155_2 1_555 1_555
C157_2 C156_2 1_555 1_555
H69_2 C157_2 1_555 1_555
C158_2 C157_2 1_555 1_555
H70_2 C158_2 1_555 1_555
C159_2 C158_2 1_555 1_555
C160_2 C159_2 1_555 1_555
H71_2 C160_2 1_555 1_555
C161_2 C156_2 1_555 1_555
H72_2 C161_2 1_555 1_555
C162_2 O48_2 1_555 1_555
O51_2 Zn27 1_555 1_555
N2_2 C166_2 1_555 1_555
C166_2 O51_2 1_555 1_555
H80_2 C166_2 1_555 1_555
C167_2 N2_2 1_555 1_555
H81_2 C167_2 1_555 1_555
H82_2 C167_2 1_555 1_555
H83_2 C167_2 1_555 1_555
C168_2 N2_2 1_555 1_555
H84_2 C168_2 1_555 1_555
H85_2 C168_2 1_555 1_555
H86_2 C168_2 1_555 1_555
O74 C162_2 1_555 1_555
C150_2 C151_2 1_555 1_555
C159_2 C162_2 1_555 1_555
C160_2 C161_2 1_555 1_555
O66 Zn33 1_555 1_555
O70_2 Zn33 1_555 1_555
Zn33 O54 1_555 1_555
N3_2 C223_2 1_555 1_555
C223_2 O75_2 1_555 1_555
H111_2 C223_2 1_555 1_555
C224_2 N3_2 1_555 1_555
H112_2 C224_2 1_555 1_555
H113_2 C224_2 1_555 1_555
H114_2 C224_2 1_555 1_555
C225_2 N3_2 1_555 1_555
H115_2 C225_2 1_555 1_555
H116_2 C225_2 1_555 1_555
H117_2 C225_2 1_555 1_555
H119_2 C227_2 1_555 1_555
H121_2 C227_2 1_555 1_555
O38_3 Zn19_2 1_555 1_555
O40_3 C126_3 1_555 1_555
O41_2 C126_3 1_555 1_555
C109_3 O38_3 1_555 1_555
C110_3 C109_3 1_555 1_555
C111_3 C110_3 1_555 1_555
C112_3 C111_3 1_555 1_555
H50_3 C112_3 1_555 1_555
C113_3 C112_3 1_555 1_555
C114_3 C113_3 1_555 1_555
H51_3 C114_3 1_555 1_555
C115_3 C110_3 1_555 1_555
H52_3 C115_3 1_555 1_555
C116_3 C113_3 1_555 1_555
C117_3 C116_3 1_555 1_555
C118_3 C117_3 1_555 1_555
C119_3 C118_3 1_555 1_555
C120_3 C119_3 1_555 1_555
C121_3 C120_3 1_555 1_555
H53_3 C121_3 1_555 1_555
C122_3 C121_3 1_555 1_555
H54_3 C122_3 1_555 1_555
C123_3 C122_3 1_555 1_555
C124_3 C123_3 1_555 1_555
H55_3 C124_3 1_555 1_555
C125_3 C120_3 1_555 1_555
H56_3 C125_3 1_555 1_555
C126_3 C123_3 1_555 1_555
O42_3 Zn19_2 1_555 1_555
O44_3 C144_3 1_555 1_555
O66 C144_3 1_555 1_555
C127_3 O42_3 1_555 1_555
C128_3 C127_3 1_555 1_555
C129_3 C128_3 1_555 1_555
H57_3 C129_3 1_555 1_555
C130_3 C129_3 1_555 1_555
H58_3 C130_3 1_555 1_555
C131_3 C130_3 1_555 1_555
C132_3 C131_3 1_555 1_555
H59_3 C132_3 1_555 1_555
C133_3 C128_3 1_555 1_555
H60_3 C133_3 1_555 1_555
C134_3 C131_3 1_555 1_555
C135_3 C134_3 1_555 1_555
C136_3 C135_3 1_555 1_555
C137_3 C136_3 1_555 1_555
C138_3 C137_3 1_555 1_555
C139_3 C138_3 1_555 1_555
H61_3 C139_3 1_555 1_555
C140_3 C139_3 1_555 1_555
H62_3 C140_3 1_555 1_555
C141_3 C140_3 1_555 1_555
C142_3 C141_3 1_555 1_555
H63_3 C142_3 1_555 1_555
C143_3 C138_3 1_555 1_555
H64_3 C143_3 1_555 1_555
C144_3 C141_3 1_555 1_555
N1_3 C163_3 1_555 1_555
C163_3 O50_3 1_555 1_555
C164_3 N1_3 1_555 1_555
H74_3 C164_3 1_555 1_555
H75_3 C164_3 1_555 1_555
H76_3 C164_3 1_555 1_555
C165_3 N1_3 1_555 1_555
H77_3 C165_3 1_555 1_555
H79_3 C165_3 1_555 1_555
Zn23 O52_2 1_555 1_555
Zn24_2 O41_2 1_555 1_555
Zn26 O52_2 1_555 1_555
Zn29_2 O44_3 1_555 1_555
Zn32 O52_2 1_555 1_555
O54 Zn29_2 1_555 1_555
O55_2 Zn23 1_555 1_555
O56_2 Zn26 1_555 1_555
O58_2 Zn19_2 1_555 1_555
C169_2 O55_2 1_555 1_555
C170_2 C169_2 1_555 1_555
C171_2 C170_2 1_555 1_555
H87_2 C171_2 1_555 1_555
C172_2 C171_2 1_555 1_555
H88_2 C172_2 1_555 1_555
C173_2 C172_2 1_555 1_555
C174_2 C173_2 1_555 1_555
H89_2 C174_2 1_555 1_555
C175_2 C170_2 1_555 1_555
H90_2 C175_2 1_555 1_555
C176_2 C173_2 1_555 1_555
C177_2 C176_2 1_555 1_555
C178_2 C177_2 1_555 1_555
C179_2 C178_2 1_555 1_555
C180_2 C179_2 1_555 1_555
C181_2 C180_2 1_555 1_555
H91_2 C181_2 1_555 1_555
C182_2 C181_2 1_555 1_555
H92_2 C182_2 1_555 1_555
C183_2 C182_2 1_555 1_555
C184_2 C183_2 1_555 1_555
H93_2 C184_2 1_555 1_555
C185_2 C180_2 1_555 1_555
H94_2 C185_2 1_555 1_555
C186_2 O57_2 1_555 1_555
O61 Zn23 1_555 1_555
O72 Zn26 1_555 1_555
O74_2 Zn29_2 1_555 1_555
O76_2 Zn26 1_555 1_555
N4_2 C226_2 1_555 1_555
C226_2 O76_2 1_555 1_555
H118_2 C226_2 1_555 1_555
C228_2 N4_2 1_555 1_555
H122_2 C228_2 1_555 1_555
H123_2 C228_2 1_555 1_555
H124_2 C228_2 1_555 1_555
C114_3 C115_3 1_555 1_555
C124_3 C125_3 1_555 1_555
O43_2 C127_3 1_555 1_555
C132_3 C133_3 1_555 1_555
C142_3 C143_3 1_555 1_555
O56_2 C169_2 1_555 1_555
O58_2 C186_2 1_555 1_555
C174_2 C175_2 1_555 1_555
C183_2 C186_2 1_555 1_555
C184_2 C185_2 1_555 1_555
Zn20_2 O37_2 1_555 1_555
Zn21_2 O37_2 1_555 1_555
Zn22_2 O37_2 1_555 1_555
O39_3 Zn20_2 1_555 1_555
O46_2 C145_3 1_555 1_555
O70_2 C145_3 1_555 1_555
O48_3 Zn20_2 1_555 1_555
O49_2 Zn21_2 1_555 1_555
C145_3 C146_3 1_555 1_555
C146_3 C147_3 1_555 1_555
C147_3 H65_3 1_555 1_555
C148_3 C147_3 1_555 1_555
H66_3 C148_3 1_555 1_555
C149_3 C148_3 1_555 1_555
C150_3 C149_3 1_555 1_555
H67_3 C150_3 1_555 1_555
C151_3 C146_3 1_555 1_555
H68_3 C151_3 1_555 1_555
C152_3 C149_3 1_555 1_555
C153_3 C152_3 1_555 1_555
C154_3 C153_3 1_555 1_555
C155_3 C154_3 1_555 1_555
C156_3 C155_3 1_555 1_555
C157_3 C156_3 1_555 1_555
H69_3 C157_3 1_555 1_555
C158_3 C157_3 1_555 1_555
H70_3 C158_3 1_555 1_555
C159_3 C158_3 1_555 1_555
C160_3 C159_3 1_555 1_555
H71_3 C160_3 1_555 1_555
C161_3 C156_3 1_555 1_555
H72_3 C161_3 1_555 1_555
C162_3 O48_3 1_555 1_555
O51_3 Zn20_2 1_555 1_555
N2_3 C166_3 1_555 1_555
C166_3 O51_3 1_555 1_555
H80_3 C166_3 1_555 1_555
C167_3 N2_3 1_555 1_555
H81_3 C167_3 1_555 1_555
H82_3 C167_3 1_555 1_555
H83_3 C167_3 1_555 1_555
C168_3 N2_3 1_555 1_555
H84_3 C168_3 1_555 1_555
H85_3 C168_3 1_555 1_555
H86_3 C168_3 1_555 1_555
Zn27_2 O46_2 1_555 1_555
Zn32 O73_2 1_555 1_555
O64_2 Zn21_2 1_555 1_555
O65_2 Zn22_2 1_555 1_555
C197_2 C196_2 1_555 1_555
C198_2 C197_2 1_555 1_555
C199_2 C198_2 1_555 1_555
H99_2 C199_2 1_555 1_555
C200_2 C199_2 1_555 1_555
H100_2 C200_2 1_555 1_555
C201_2 C200_2 1_555 1_555
C202_2 C201_2 1_555 1_555
H101_2 C202_2 1_555 1_555
C203_2 C198_2 1_555 1_555
H102_2 C203_2 1_555 1_555
C204_2 O64_2 1_555 1_555
O67_2 Zn20_2 1_555 1_555
O69_2 Zn22_2 1_555 1_555
O72 C222_2 1_555 1_555
O73_2 C222_2 1_555 1_555
C205_2 O67_2 1_555 1_555
C206_2 C205_2 1_555 1_555
C207_2 C206_2 1_555 1_555
H103_2 C207_2 1_555 1_555
C208_2 C207_2 1_555 1_555
H104_2 C208_2 1_555 1_555
C209_2 C208_2 1_555 1_555
C210_2 C209_2 1_555 1_555
H105_2 C210_2 1_555 1_555
C211_2 C206_2 1_555 1_555
H106_2 C211_2 1_555 1_555
C212_2 C209_2 1_555 1_555
C213_2 C212_2 1_555 1_555
C214_2 C213_2 1_555 1_555
C215_2 C214_2 1_555 1_555
C216_2 C215_2 1_555 1_555
C217_2 C216_2 1_555 1_555
H107_2 C217_2 1_555 1_555
C218_2 C217_2 1_555 1_555
H108_2 C218_2 1_555 1_555
C219_2 C218_2 1_555 1_555
C220_2 C219_2 1_555 1_555
H109_2 C220_2 1_555 1_555
C221_2 C216_2 1_555 1_555
H110_2 C221_2 1_555 1_555
C222_2 C219_2 1_555 1_555
O49_2 C162_3 1_555 1_555
C150_3 C151_3 1_555 1_555
C159_3 C162_3 1_555 1_555
C160_3 C161_3 1_555 1_555
O65_2 C204_2 1_555 1_555
C201_2 C204_2 1_555 1_555
C202_2 C203_2 1_555 1_555
O69_2 C205_2 1_555 1_555
C210_2 C211_2 1_555 1_555
C220_2 C221_2 1_555 1_555
Zn32 O62_2 1_555 1_555
O61 C187_2 1_555 1_555
O62_2 C187_2 1_555 1_555
C187_2 C188_2 1_555 1_555
C188_2 C189_2 1_555 1_555
C189_2 H95_2 1_555 1_555
C190_2 C189_2 1_555 1_555
H96_2 C190_2 1_555 1_555
C191_2 C190_2 1_555 1_555
C192_2 C191_2 1_555 1_555
H97_2 C192_2 1_555 1_555
C193_2 C188_2 1_555 1_555
H98_2 C193_2 1_555 1_555
C194_2 C191_2 1_555 1_555
C195_2 C194_2 1_555 1_555
C192_2 C193_2 1_555 1_555
Zn27_2 O54 1_555 1_555
O39_4 Zn27_2 1_555 1_555
O68_2 C145_4 1_555 1_555
O47_2 C145_4 1_555 1_555
O48_4 Zn27_2 1_555 1_555
C145_4 C146_4 1_555 1_555
C146_4 C147_4 1_555 1_555
C147_4 H65_4 1_555 1_555
C148_4 C147_4 1_555 1_555
H66_4 C148_4 1_555 1_555
C149_4 C148_4 1_555 1_555
C150_4 C149_4 1_555 1_555
H67_4 C150_4 1_555 1_555
C151_4 C146_4 1_555 1_555
H68_4 C151_4 1_555 1_555
C152_4 C149_4 1_555 1_555
C153_4 C152_4 1_555 1_555
C154_4 C153_4 1_555 1_555
C155_4 C154_4 1_555 1_555
C156_4 C155_4 1_555 1_555
C157_4 C156_4 1_555 1_555
H69_4 C157_4 1_555 1_555
C158_4 C157_4 1_555 1_555
H70_4 C158_4 1_555 1_555
C159_4 C158_4 1_555 1_555
C160_4 C159_4 1_555 1_555
H71_4 C160_4 1_555 1_555
C161_4 C156_4 1_555 1_555
H72_4 C161_4 1_555 1_555
C162_4 O48_4 1_555 1_555
O51_4 Zn27_2 1_555 1_555
N2_4 C166_4 1_555 1_555
C166_4 O51_4 1_555 1_555
H80_4 C166_4 1_555 1_555
C167_4 N2_4 1_555 1_555
H81_4 C167_4 1_555 1_555
H82_4 C167_4 1_555 1_555
H83_4 C167_4 1_555 1_555
C168_4 N2_4 1_555 1_555
H84_4 C168_4 1_555 1_555
H85_4 C168_4 1_555 1_555
H86_4 C168_4 1_555 1_555
Zn36_2 O47_2 1_555 1_555
O74_2 C162_4 1_555 1_555
C150_4 C151_4 1_555 1_555
C159_4 C162_4 1_555 1_555
C160_4 C161_4 1_555 1_555
O38_4 Zn24_2 1_555 1_555
O40_4 C126_4 1_555 1_555
O59_2 C126_4 1_555 1_555
C109_4 O38_4 1_555 1_555
C110_4 C109_4 1_555 1_555
C111_4 C110_4 1_555 1_555
C112_4 C111_4 1_555 1_555
H50_4 C112_4 1_555 1_555
C113_4 C112_4 1_555 1_555
C114_4 C113_4 1_555 1_555
H51_4 C114_4 1_555 1_555
C115_4 C110_4 1_555 1_555
H52_4 C115_4 1_555 1_555
C116_4 C113_4 1_555 1_555
C117_4 C116_4 1_555 1_555
C118_4 C117_4 1_555 1_555
C119_4 C118_4 1_555 1_555
C120_4 C119_4 1_555 1_555
C121_4 C120_4 1_555 1_555
H53_4 C121_4 1_555 1_555
C122_4 C121_4 1_555 1_555
H54_4 C122_4 1_555 1_555
C123_4 C122_4 1_555 1_555
C124_4 C123_4 1_555 1_555
H55_4 C124_4 1_555 1_555
C125_4 C120_4 1_555 1_555
H56_4 C125_4 1_555 1_555
C126_4 C123_4 1_555 1_555
O42_4 Zn24_2 1_555 1_555
C127_4 O42_4 1_555 1_555
C128_4 C127_4 1_555 1_555
C129_4 C128_4 1_555 1_555
H57_4 C129_4 1_555 1_555
C130_4 C129_4 1_555 1_555
H58_4 C130_4 1_555 1_555
C131_4 C130_4 1_555 1_555
C132_4 C131_4 1_555 1_555
H59_4 C132_4 1_555 1_555
C133_4 C128_4 1_555 1_555
H60_4 C133_4 1_555 1_555
C134_4 C131_4 1_555 1_555
C135_4 C134_4 1_555 1_555
N1_4 C163_4 1_555 1_555
C163_4 O50_4 1_555 1_555
C164_4 N1_4 1_555 1_555
H74_4 C164_4 1_555 1_555
H75_4 C164_4 1_555 1_555
H76_4 C164_4 1_555 1_555
C165_4 N1_4 1_555 1_555
H77_4 C165_4 1_555 1_555
H79_4 C165_4 1_555 1_555
Zn36_2 O40_4 1_555 1_555
O66_2 Zn36_2 1_555 1_555
C114_4 C115_4 1_555 1_555
C124_4 C125_4 1_555 1_555
O63_2 C127_4 1_555 1_555
C132_4 C133_4 1_555 1_555
O44_4 C144_4 1_555 1_555
O66_2 C144_4 1_555 1_555
C137_4 C136_4 1_555 1_555
C138_4 C137_4 1_555 1_555
C139_4 C138_4 1_555 1_555
H61_4 C139_4 1_555 1_555
C140_4 C139_4 1_555 1_555
H62_4 C140_4 1_555 1_555
C141_4 C140_4 1_555 1_555
C142_4 C141_4 1_555 1_555
H63_4 C142_4 1_555 1_555
C143_4 C138_4 1_555 1_555
H64_4 C143_4 1_555 1_555
C144_4 C141_4 1_555 1_555
C142_4 C143_4 1_555 1_555

#END
