
###############################################################################
#
# This file contains modified crystal structure data generated from the
# MOF subset of the Cambridge Structural Database (CSD) v543 
# hosted by the Cambridge Crystallographic Data Centre (CCDC).
#
# This work is licensed under the Creative Commons
# Attribution-NonCommercial-ShareAlike 4.0 International License.
# To view a copy of this license, visit
# http://creativecommons.org/licenses/by-nc-sa/4.0/
# or send a letter to
# Creative Commons, PO Box 1866, Mountain View, CA 94042, USA.
#
# CIF created using the CSD Python API on 29 September 2022
# The structure has been converted into the P1 space group
# The structure has a 3D framework
# The original CSD entry ETEJUJ is in the triclinic crystal system
# The framework has been calculated to contain at least 10.0% void space
# The void calculation uses a probe of radius 1.32A, grid spacing 0.4
#
###############################################################################

data_ETEJUJ
_chemical_formula_moiety         '(C36 H40 N4 O22 Sm2)n'
_symmetry_cell_setting           triclinic
_symmetry_space_group_name_H-M   'P 1'
_symmetry_Int_Tables_number      1
_space_group_name_Hall           'P 1'
loop_
_symmetry_equiv_pos_site_id
_symmetry_equiv_pos_as_xyz
1 x,y,z
_cell_length_a                   10.5152(5)
_cell_length_b                   11.1058(5)
_cell_length_c                   12.7396(6)
_cell_angle_alpha                103.891(2)
_cell_angle_beta                 109.709(2)
_cell_angle_gamma                96.684(2)
_cell_volume                     1327.53
loop_
_atom_site_label
_atom_site_type_symbol
_atom_site_fract_x
_atom_site_fract_y
_atom_site_fract_z
_atom_site_U_iso_or_equiv
_atom_site_thermal_displace_type
Sm6 Sm 0.102067(16) 0.547772(14) 0.681555(13) 0.0248 Uani
Sm7 Sm 0.897933(16) 0.452228(14) 0.318445(13) 0.0248 Uani
O25 O 0.8241(3) 0.2443(3) 0.1506(2) 0.0426 Uani
O27 O 0.6695(3) 0.3102(3) 0.2174(3) 0.0528 Uani
O29 O 0.7638(4) 0.0127(4) 0.0029(4) 0.0738 Uani
H23 H 0.8154 0.0809 0.0457 0.1110 Uiso
C27 C 0.6360(4) 0.0112(4) 0.0048(3) 0.0395 Uani
C28 C 0.6000(4) 0.1090(3) 0.0734(3) 0.0346 Uani
C29 C 0.4639(4) 0.0973(4) 0.0679(3) 0.0407 Uani
H26 H 0.4401 0.1628 0.1133 0.0490 Uiso
C30 C 0.7043(4) 0.2278(4) 0.1522(3) 0.0358 Uani
O4 O 0.1565(3) 0.4926(3) 0.5128(3) 0.0374 Uani
O5 O 0.1277(3) 0.4285(3) 0.3281(2) 0.0427 Uani
O6 O 0.3343(3) 0.3974(4) 0.2669(3) 0.0652 Uani
H2 H 0.2525 0.3939 0.2568 0.0980 Uiso
O7 O 0.1759(3) 0.7557(3) 0.8494(2) 0.0426 Uani
O8 O 0.3305(3) 0.6898(3) 0.7826(3) 0.0528 Uani
O9 O 0.2362(4) 0.9873(4) 0.9971(4) 0.0738 Uani
H3 H 0.1846 0.9191 0.9543 0.1110 Uiso
O10 O 0.2728(4) 0.4217(4) 0.7408(4) 0.0685 Uani
O11 O 0.0697(4) 0.4774(3) 0.8396(3) 0.0513 Uani
C3 C 0.0025(5) 0.0883(4) 0.5971(3) 0.0417 Uani
H4 H 0.0042 0.1486 0.6626 0.0500 Uiso
C5 C 0.4134(4) 0.4485(4) 0.3824(3) 0.0385 Uani
C6 C 0.3568(4) 0.4844(4) 0.4677(3) 0.0326 Uani
C7 C 0.4454(4) 0.5357(4) 0.5840(3) 0.0379 Uani
H5 H 0.4084 0.5600 0.6407 0.0460 Uiso
C8 C 0.2058(4) 0.4678(3) 0.4356(3) 0.0325 Uani
C9 C 0.3640(4) 0.9888(4) 0.9952(3) 0.0395 Uani
C10 C 0.4000(4) 0.8910(3) 0.9266(3) 0.0346 Uani
C11 C 0.5361(4) 0.9027(4) 0.9321(3) 0.0407 Uani
H6 H 0.5599 0.8372 0.8867 0.0490 Uiso
C12 C 0.2957(4) 0.7722(4) 0.8478(3) 0.0358 Uani
C13 C 0.3688(14) 0.4088(13) 0.7877(9) 0.1538 Uani
H7 H 0.4329 0.4837 0.8073 0.1850 Uiso
C14 C 0.5801(13) 0.3670(13) 0.8980(12) 0.1637 Uani
H8 H 0.6120 0.4551 0.9079 0.2460 Uiso
H9 H 0.6281 0.3166 0.8586 0.2460 Uiso
H10 H 0.5977 0.3543 0.9731 0.2460 Uiso
C15 C 0.3727(13) 0.2019(12) 0.8058(11) 0.1743 Uani
H11 H 0.2762 0.1865 0.7582 0.2610 Uiso
H12 H 0.3828 0.1838 0.8778 0.2610 Uiso
H13 H 0.4169 0.1482 0.7650 0.2610 Uiso
C18 C 0.1219(11) 0.3321(10) 0.9918(8) 0.1439 Uani
H18 H 0.1856 0.4050 0.9977 0.2160 Uiso
H19 H 0.1620 0.2588 0.9824 0.2160 Uiso
N1 N 0.4344(6) 0.3297(6) 0.8297(5) 0.0807 Uani
O14 O 0.0741(3) 0.7267(2) 0.6055(2) 0.0402 Uani
O17 O 0.8435(3) 0.5074(3) 0.4872(3) 0.0374 Uani
O21 O 0.8723(3) 0.5715(3) 0.6719(2) 0.0427 Uani
O24 O 0.6657(3) 0.6026(4) 0.7331(3) 0.0652 Uani
H22 H 0.7475 0.6061 0.7432 0.0980 Uiso
C23 C 0.5866(4) 0.5515(4) 0.6176(3) 0.0385 Uani
C24 C 0.6432(4) 0.5156(4) 0.5323(3) 0.0326 Uani
C25 C 0.5546(4) 0.4643(4) 0.4160(3) 0.0379 Uani
H25 H 0.5916 0.4400 0.3593 0.0460 Uiso
C26 C 0.7942(4) 0.5322(3) 0.5644(3) 0.0325 Uani
O12 O 0.0171(3) 0.6679(2) 0.4122(2) 0.0377 Uani
O16 O 0.0478(5) 0.9489(3) 0.7100(3) 0.0710 Uani
H21 H 0.0597 0.8764 0.7050 0.1060 Uiso
C19 C 0.0242(5) 0.9707(4) 0.6054(3) 0.0402 Uani
C20 C 0.0218(4) 0.8797(3) 0.5065(3) 0.0334 Uani
C22 C 0.0397(4) 0.7481(3) 0.5077(3) 0.0327 Uani
C34 C 0.0194(6) 0.6148(5) 0.1729(4) 0.0551 Uani
H34 H 0.1043 0.6324 0.2345 0.0660 Uiso
C35 C 0.1114(10) 0.7937(8) 0.1251(8) 0.1098 Uani
H35 H 0.1919 0.7960 0.1906 0.1650 Uiso
H36 H 0.1336 0.7826 0.0568 0.1650 Uiso
H37 H 0.0810 0.8719 0.1409 0.1650 Uiso
N4 N 0.0019(6) 0.6886(4) 0.1056(4) 0.0643 Uani
O1 O 0.9829(3) 0.3321(2) 0.5878(2) 0.0377 Uani
O2 O 0.9259(3) 0.2733(2) 0.3945(2) 0.0402 Uani
O3 O 0.9522(5) 0.0511(3) 0.2900(3) 0.0710 Uani
H1 H 0.9403 0.1236 0.2950 0.1060 Uiso
C1 C 0.9758(5) 0.0293(4) 0.3946(3) 0.0402 Uani
C2 C 0.9782(4) 0.1203(3) 0.4935(3) 0.0334 Uani
C4 C 0.9603(4) 0.2519(3) 0.4923(3) 0.0327 Uani
C16 C 0.9806(6) 0.3852(5) 0.8271(4) 0.0551 Uani
H14 H 0.8957 0.3676 0.7655 0.0660 Uiso
C17 C 0.8886(10) 0.2063(8) 0.8749(8) 0.1098 Uani
H15 H 0.8081 0.2040 0.8094 0.1650 Uiso
H16 H 0.8664 0.2174 0.9432 0.1650 Uiso
H17 H 0.9190 0.1281 0.8591 0.1650 Uiso
N2 N 0.9981(6) 0.3114(4) 0.8944(4) 0.0643 Uani
O30 O 0.7272(4) 0.5783(4) 0.2592(4) 0.0685 Uani
O31 O 0.9303(4) 0.5226(3) 0.1604(3) 0.0513 Uani
C21 C 0.9975(5) 0.9117(4) 0.4029(3) 0.0417 Uani
H24 H 0.9958 0.8514 0.3374 0.0500 Uiso
C31 C 0.6312(14) 0.5912(13) 0.2123(9) 0.1538 Uani
H27 H 0.5671 0.5163 0.1927 0.1850 Uiso
C32 C 0.4199(13) 0.6330(13) 0.1020(12) 0.1637 Uani
H28 H 0.3880 0.5449 0.0921 0.2460 Uiso
H29 H 0.3719 0.6834 0.1414 0.2460 Uiso
H30 H 0.4023 0.6457 0.0269 0.2460 Uiso
C33 C 0.6273(13) 0.7981(12) 0.1942(11) 0.1743 Uani
H31 H 0.7238 0.8135 0.2418 0.2610 Uiso
H32 H 0.6172 0.8162 0.1222 0.2610 Uiso
H33 H 0.5831 0.8518 0.2350 0.2610 Uiso
C36 C 0.8781(11) 0.6679(10) 0.0082(8) 0.1439 Uani
H38 H 0.8144 0.5950 0.0023 0.2160 Uiso
H39 H 0.8380 0.7412 0.0176 0.2160 Uiso
N3 N 0.5656(6) 0.6703(6) 0.1703(5) 0.0807 Uani
H20 H 0.1021 0.3464 0.0615 0.2160 Uiso
H40 H 0.8979 0.6536 0.9385 0.2160 Uiso
loop_
_atom_site_aniso_label
_atom_site_aniso_U_11
_atom_site_aniso_U_22
_atom_site_aniso_U_33
_atom_site_aniso_U_23
_atom_site_aniso_U_13
_atom_site_aniso_U_12
Sm6 0.02009 0.01942 0.02868 0.00665 0.00274 0.00173
Sm7 0.02009 0.01942 0.02868 0.00665 0.00274 0.00173
O25 0.037 0.0386 0.0386 0.0023 0.0097 -0.0097
O27 0.0309 0.0444 0.0538 -0.0125 0.0034 -0.0052
O29 0.05 0.067 0.083 -0.009 0.028 -0.0096
C27 0.03 0.039 0.039 0.0061 0.0076 -0.0031
C28 0.033 0.0274 0.0303 0.0022 0.0047 -0.0069
C29 0.038 0.0344 0.0376 0.0005 0.0098 -0.002
C30 0.034 0.0291 0.03 0.0046 0.0012 -0.0041
O4 0.027 0.0379 0.0506 0.0127 0.0181 0.0098
O5 0.0237 0.0554 0.0413 0.0115 0.0053 0.0077
O6 0.0274 0.118 0.0321 0.0018 0.0055 0.0087
O7 0.037 0.0386 0.0386 0.0023 0.0097 -0.0097
O8 0.0309 0.0444 0.0538 -0.0125 0.0034 -0.0052
O9 0.05 0.067 0.083 -0.009 0.028 -0.0096
O10 0.049 0.079 0.089 0.049 0.015 0.04
O11 0.065 0.0476 0.0403 0.0192 0.0172 0.0044
C3 0.062 0.0247 0.0329 0.0066 0.0116 0.0128
C5 0.026 0.055 0.0293 0.0075 0.0079 0.0076
C6 0.0225 0.0377 0.0356 0.0098 0.0096 0.0054
C7 0.0248 0.055 0.0319 0.0072 0.012 0.0093
C8 0.0244 0.0312 0.0424 0.0134 0.0108 0.0082
C9 0.03 0.039 0.039 0.0061 0.0076 -0.0031
C10 0.033 0.0274 0.0303 0.0022 0.0047 -0.0069
C11 0.038 0.0344 0.0376 0.0005 0.0098 -0.002
C12 0.034 0.0291 0.03 0.0046 0.0012 -0.0041
C13 0.222 0.243 0.125 0.14 0.118 0.192
C14 0.121 0.159 0.164 0.019 0.022 0.013
C15 0.155 0.166 0.153 0.096 -0.013 -0.032
C18 0.148 0.141 0.098 0.077 -0.026 -0.001
N1 0.07 0.104 0.101 0.068 0.035 0.055
O14 0.0522 0.023 0.0368 0.0114 0.0057 0.0045
O17 0.027 0.0379 0.0506 0.0127 0.0181 0.0098
O21 0.0237 0.0554 0.0413 0.0115 0.0053 0.0077
O24 0.0274 0.118 0.0321 0.0018 0.0055 0.0087
C23 0.026 0.055 0.0293 0.0075 0.0079 0.0076
C24 0.0225 0.0377 0.0356 0.0098 0.0096 0.0054
C25 0.0248 0.055 0.0319 0.0072 0.012 0.0093
C26 0.0244 0.0312 0.0424 0.0134 0.0108 0.0082
O12 0.0471 0.0197 0.0377 0.0049 0.0098 0.0023
O16 0.141 0.043 0.0407 0.0226 0.035 0.041
C19 0.061 0.0257 0.0307 0.0105 0.0117 0.0108
C20 0.039 0.02 0.0349 0.0081 0.0071 0.004
C22 0.035 0.0198 0.0375 0.009 0.0078 0.0014
C34 0.065 0.059 0.045 0.022 0.022 0.01
C35 0.122 0.095 0.129 0.063 0.056 -0.003
N4 0.089 0.055 0.056 0.029 0.029 0.011
O1 0.0471 0.0197 0.0377 0.0049 0.0098 0.0023
O2 0.0522 0.023 0.0368 0.0114 0.0057 0.0045
O3 0.141 0.043 0.0407 0.0226 0.035 0.041
C1 0.061 0.0257 0.0307 0.0105 0.0117 0.0108
C2 0.039 0.02 0.0349 0.0081 0.0071 0.004
C4 0.035 0.0198 0.0375 0.009 0.0078 0.0014
C16 0.065 0.059 0.045 0.022 0.022 0.01
C17 0.122 0.095 0.129 0.063 0.056 -0.003
N2 0.089 0.055 0.056 0.029 0.029 0.011
O30 0.049 0.079 0.089 0.049 0.015 0.04
O31 0.065 0.0476 0.0403 0.0192 0.0172 0.0044
C21 0.062 0.0247 0.0329 0.0066 0.0116 0.0128
C31 0.222 0.243 0.125 0.14 0.118 0.192
C32 0.121 0.159 0.164 0.019 0.022 0.013
C33 0.155 0.166 0.153 0.096 -0.013 -0.032
C36 0.148 0.141 0.098 0.077 -0.026 -0.001
N3 0.07 0.104 0.101 0.068 0.035 0.055
loop_
_geom_bond_atom_site_label_1
_geom_bond_atom_site_label_2
_geom_bond_site_symmetry_1
_geom_bond_site_symmetry_2
Sm7 O25 1_555 1_555
O25 C30 1_555 1_555
O27 Sm7 1_555 1_555
O29 H23 1_555 1_555
C28 C27 1_555 1_555
H26 C29 1_555 1_555
C30 O27 1_555 1_555
O29 C27 1_555 1_555
C28 C29 1_555 1_555
C28 C30 1_555 1_555
O4 Sm6 1_555 1_555
O5 C8 1_555 1_555
O6 H2 1_555 1_555
O7 Sm6 1_555 1_555
O8 Sm6 1_555 1_555
O9 H3 1_555 1_555
O10 Sm6 1_555 1_555
O11 Sm6 1_555 1_555
H4 C3 1_555 1_555
C5 O6 1_555 1_555
C6 C5 1_555 1_555
C7 C6 1_555 1_555
H5 C7 1_555 1_555
C8 O4 1_555 1_555
C9 O9 1_555 1_555
C10 C9 1_555 1_555
C11 C10 1_555 1_555
H6 C11 1_555 1_555
C12 O7 1_555 1_555
C13 O10 1_555 1_555
H7 C13 1_555 1_555
C14 H8 1_555 1_555
H9 C14 1_555 1_555
H10 C14 1_555 1_555
C15 H11 1_555 1_555
H12 C15 1_555 1_555
H13 C15 1_555 1_555
C18 H18 1_555 1_555
H19 C18 1_555 1_555
N1 C13 1_555 1_555
Sm7 O17 1_555 1_555
O14 Sm6 1_555 1_555
O17 C26 1_555 1_555
O24 H22 1_555 1_555
C23 C7 1_555 1_555
C24 C23 1_555 1_555
C25 C5 1_555 1_555
H25 C25 1_555 1_555
C26 O21 1_555 1_555
O8 C12 1_555 1_555
C6 C8 1_555 1_555
C10 C12 1_555 1_555
C14 N1 1_555 1_555
C15 N1 1_555 1_555
O24 C23 1_555 1_555
C24 C25 1_555 1_555
C24 C26 1_555 1_555
O12 C22 1_555 1_555
O14 C22 1_555 1_555
O16 H21 1_555 1_555
C20 C19 1_555 1_555
C22 C20 1_555 1_555
H34 C34 1_555 1_555
C35 H35 1_555 1_555
H36 C35 1_555 1_555
H37 C35 1_555 1_555
N4 C34 1_555 1_555
O16 C19 1_555 1_555
C35 N4 1_555 1_555
O1 C4 1_555 1_555
O2 C4 1_555 1_555
O3 H1 1_555 1_555
C1 O3 1_555 1_555
C2 C1 1_555 1_555
C4 C2 1_555 1_555
H14 C16 1_555 1_555
C17 H15 1_555 1_555
H16 C17 1_555 1_555
H17 C17 1_555 1_555
N2 C16 1_555 1_555
Sm7 O2 1_555 1_555
C17 N2 1_555 1_555
O30 Sm7 1_555 1_555
O31 Sm7 1_555 1_555
H24 C21 1_555 1_555
C31 O30 1_555 1_555
H27 C31 1_555 1_555
C32 H28 1_555 1_555
H29 C32 1_555 1_555
H30 C32 1_555 1_555
C33 H31 1_555 1_555
H32 C33 1_555 1_555
H33 C33 1_555 1_555
C36 H38 1_555 1_555
H39 C36 1_555 1_555
N3 C31 1_555 1_555
C32 N3 1_555 1_555
C33 N3 1_555 1_555

#END
