
###############################################################################
#
# This file contains modified crystal structure data generated from the
# MOF subset of the Cambridge Structural Database (CSD) v543 
# hosted by the Cambridge Crystallographic Data Centre (CCDC).
#
# This work is licensed under the Creative Commons
# Attribution-NonCommercial-ShareAlike 4.0 International License.
# To view a copy of this license, visit
# http://creativecommons.org/licenses/by-nc-sa/4.0/
# or send a letter to
# Creative Commons, PO Box 1866, Mountain View, CA 94042, USA.
#
# CIF created using the CSD Python API on 29 September 2022
# The structure has been converted into the P1 space group
# The structure has a 3D framework
# The original CSD entry ETEKAQ is in the triclinic crystal system
# The framework has been calculated to contain at least 10.0% void space
# The void calculation uses a probe of radius 1.32A, grid spacing 0.4
#
###############################################################################

data_ETEKAQ
_chemical_formula_moiety         '(C36 H40 Gd2 N4 O22)n'
_symmetry_cell_setting           triclinic
_symmetry_space_group_name_H-M   'P 1'
_symmetry_Int_Tables_number      1
_space_group_name_Hall           'P 1'
loop_
_symmetry_equiv_pos_site_id
_symmetry_equiv_pos_as_xyz
1 x,y,z
_cell_length_a                   10.5226(9)
_cell_length_b                   11.0545(9)
_cell_length_c                   12.7711(11)
_cell_angle_alpha                103.8260(10)
_cell_angle_beta                 110.0240(10)
_cell_angle_gamma                96.6020(10)
_cell_volume                     1323.41
loop_
_atom_site_label
_atom_site_type_symbol
_atom_site_fract_x
_atom_site_fract_y
_atom_site_fract_z
_atom_site_U_iso_or_equiv
_atom_site_thermal_displace_type
Gd6 Gd 0.103040(18) 0.547825(17) 0.681682(17) 0.0249 Uani
Gd7 Gd 0.896960(18) 0.452175(17) 0.318318(17) 0.0249 Uani
O25 O 0.8245(3) 0.2456(3) 0.1516(3) 0.0422 Uani
O27 O 0.6707(3) 0.3101(4) 0.2193(3) 0.0541 Uani
O29 O 0.7649(4) 0.0148(4) 0.0036(4) 0.0739 Uani
H23 H 0.8160 0.0835 0.0467 0.1110 Uiso
C27 C 0.6359(4) 0.0116(5) 0.0049(4) 0.0377 Uani
C28 C 0.5999(4) 0.1091(4) 0.0736(4) 0.0351 Uani
C29 C 0.4645(5) 0.0972(5) 0.0681(4) 0.0412 Uani
H26 H 0.4410 0.1628 0.1138 0.0490 Uiso
C30 C 0.7047(5) 0.2284(4) 0.1533(4) 0.0375 Uani
O4 O 0.1590(3) 0.4937(3) 0.5176(3) 0.0378 Uani
O5 O 0.1256(3) 0.4300(3) 0.3317(3) 0.0424 Uani
O6 O 0.3298(4) 0.3985(5) 0.2670(3) 0.0647 Uani
H2 H 0.2483 0.3954 0.2578 0.0970 Uiso
O7 O 0.1755(3) 0.7544(3) 0.8484(3) 0.0422 Uani
O8 O 0.3293(3) 0.6899(4) 0.7807(3) 0.0541 Uani
O9 O 0.2351(4) 0.9852(4) 0.9964(4) 0.0739 Uani
H3 H 0.1840 0.9165 0.9533 0.1110 Uiso
O10 O 0.2730(4) 0.4227(5) 0.7426(4) 0.0703 Uani
O11 O 0.0708(4) 0.4786(4) 0.8374(3) 0.0527 Uani
C3 C 0.0013(6) 0.0884(4) 0.5958(4) 0.0427 Uani
H4 H 0.0018 0.1487 0.6607 0.0520 Uiso
C5 C 0.4110(4) 0.4492(5) 0.3825(4) 0.0371 Uani
C6 C 0.3573(4) 0.4846(4) 0.4693(4) 0.0326 Uani
C7 C 0.4475(5) 0.5352(5) 0.5851(4) 0.0394 Uani
H5 H 0.4118 0.5593 0.6424 0.0470 Uiso
C8 C 0.2063(4) 0.4687(4) 0.4389(4) 0.0324 Uani
C9 C 0.3641(4) 0.9884(5) 0.9951(4) 0.0377 Uani
C10 C 0.4001(4) 0.8909(4) 0.9264(4) 0.0351 Uani
C11 C 0.5355(5) 0.9028(5) 0.9319(4) 0.0412 Uani
H6 H 0.5590 0.8372 0.8862 0.0490 Uiso
C12 C 0.2953(5) 0.7716(4) 0.8467(4) 0.0375 Uani
C13 C 0.3635(15) 0.4033(15) 0.7860(10) 0.1779 Uani
H7 H 0.4290 0.4771 0.8043 0.2140 Uiso
C14 C 0.5801(12) 0.3665(13) 0.8965(12) 0.1586 Uani
H8 H 0.6105 0.4551 0.9056 0.2370 Uiso
H9 H 0.6282 0.3164 0.8571 0.2370 Uiso
H10 H 0.5993 0.3543 0.9719 0.2370 Uiso
C15 C 0.3730(14) 0.1994(13) 0.8044(12) 0.1771 Uani
H11 H 0.2763 0.1835 0.7567 0.2650 Uiso
H12 H 0.3838 0.1806 0.8762 0.2650 Uiso
H13 H 0.4175 0.1461 0.7636 0.2650 Uiso
C18 C 0.1265(12) 0.3314(11) 0.9897(9) 0.1581 Uani
H18 H 0.1903 0.4045 0.9956 0.2370 Uiso
H19 H 0.1650 0.2571 0.9774 0.2370 Uiso
N1 N 0.4334(7) 0.3271(7) 0.8287(6) 0.0822 Uani
O14 O 0.0731(3) 0.7255(3) 0.6057(3) 0.0393 Uani
O17 O 0.8410(3) 0.5063(3) 0.4824(3) 0.0378 Uani
O21 O 0.8744(3) 0.5700(3) 0.6683(3) 0.0424 Uani
O24 O 0.6702(4) 0.6015(5) 0.7330(3) 0.0647 Uani
H22 H 0.7517 0.6046 0.7422 0.0970 Uiso
C23 C 0.5890(4) 0.5508(5) 0.6175(4) 0.0371 Uani
C24 C 0.6427(4) 0.5154(4) 0.5307(4) 0.0326 Uani
C25 C 0.5525(5) 0.4648(5) 0.4149(4) 0.0394 Uani
H25 H 0.5882 0.4407 0.3576 0.0470 Uiso
C26 C 0.7937(4) 0.5313(4) 0.5611(4) 0.0324 Uani
O12 O 0.0166(3) 0.6663(3) 0.4124(3) 0.0371 Uani
O16 O 0.0450(6) 0.9472(4) 0.7083(3) 0.0713 Uani
H21 H 0.0569 0.8743 0.7032 0.1070 Uiso
C19 C 0.0235(5) 0.9701(4) 0.6052(4) 0.0405 Uani
C20 C 0.0218(4) 0.8788(4) 0.5066(4) 0.0333 Uani
C22 C 0.0386(4) 0.7464(4) 0.5072(4) 0.0336 Uani
C34 C 0.0178(7) 0.6141(6) 0.1740(5) 0.0561 Uani
H34 H 0.1028 0.6329 0.2362 0.0670 Uiso
C35 C 0.1084(11) 0.7911(9) 0.1237(9) 0.1171 Uani
H35 H 0.1898 0.7945 0.1892 0.1750 Uiso
H36 H 0.1296 0.7791 0.0551 0.1750 Uiso
H37 H 0.0776 0.8695 0.1387 0.1750 Uiso
N4 N 0.0009(6) 0.6865(5) 0.1060(5) 0.0654 Uani
O1 O 0.9834(3) 0.3337(3) 0.5876(3) 0.0371 Uani
O2 O 0.9269(3) 0.2745(3) 0.3943(3) 0.0393 Uani
O3 O 0.9550(6) 0.0528(4) 0.2917(3) 0.0713 Uani
H1 H 0.9431 0.1257 0.2968 0.1070 Uiso
C1 C 0.9765(5) 0.0299(4) 0.3948(4) 0.0405 Uani
C2 C 0.9782(4) 0.1212(4) 0.4934(4) 0.0333 Uani
C4 C 0.9614(4) 0.2536(4) 0.4928(4) 0.0336 Uani
C16 C 0.9822(7) 0.3859(6) 0.8260(5) 0.0561 Uani
H14 H 0.8972 0.3671 0.7638 0.0670 Uiso
C17 C 0.8916(11) 0.2089(9) 0.8763(9) 0.1171 Uani
H15 H 0.8102 0.2055 0.8108 0.1750 Uiso
H16 H 0.8704 0.2209 0.9449 0.1750 Uiso
H17 H 0.9224 0.1305 0.8613 0.1750 Uiso
N2 N 0.9991(6) 0.3135(5) 0.8940(5) 0.0654 Uani
O30 O 0.7270(4) 0.5773(5) 0.2574(4) 0.0703 Uani
O31 O 0.9292(4) 0.5214(4) 0.1626(3) 0.0527 Uani
C21 C 0.9987(6) 0.9116(4) 0.4042(4) 0.0427 Uani
H24 H 0.9982 0.8513 0.3393 0.0520 Uiso
C31 C 0.6365(15) 0.5967(15) 0.2140(10) 0.1779 Uani
H27 H 0.5710 0.5229 0.1957 0.2140 Uiso
C32 C 0.4199(12) 0.6335(13) 0.1035(12) 0.1586 Uani
H28 H 0.3895 0.5449 0.0944 0.2370 Uiso
H29 H 0.3718 0.6836 0.1429 0.2370 Uiso
H30 H 0.4007 0.6457 0.0281 0.2370 Uiso
C33 C 0.6270(14) 0.8006(13) 0.1956(12) 0.1771 Uani
H31 H 0.7237 0.8165 0.2433 0.2650 Uiso
H32 H 0.6162 0.8194 0.1238 0.2650 Uiso
H33 H 0.5825 0.8539 0.2364 0.2650 Uiso
C36 C 0.8735(12) 0.6686(11) 0.0103(9) 0.1581 Uani
H38 H 0.8097 0.5955 0.0044 0.2370 Uiso
H39 H 0.8350 0.7429 0.0226 0.2370 Uiso
N3 N 0.5666(7) 0.6729(7) 0.1713(6) 0.0822 Uani
H20 H 0.1101 0.3446 0.0607 0.2370 Uiso
H40 H 0.8899 0.6554 0.9393 0.2370 Uiso
loop_
_atom_site_aniso_label
_atom_site_aniso_U_11
_atom_site_aniso_U_22
_atom_site_aniso_U_33
_atom_site_aniso_U_23
_atom_site_aniso_U_13
_atom_site_aniso_U_12
Gd6 0.02076 0.01946 0.02765 0.00575 0.00297 0.0014
Gd7 0.02076 0.01946 0.02765 0.00575 0.00297 0.0014
O25 0.0356 0.0381 0.0385 0.0013 0.0095 -0.0102
O27 0.0319 0.046 0.054 -0.014 0.0029 -0.0023
O29 0.05 0.069 0.079 -0.011 0.026 -0.011
C27 0.028 0.04 0.036 0.0068 0.0082 -0.0042
C28 0.034 0.029 0.029 0.0035 0.0033 -0.0051
C29 0.037 0.036 0.038 0.001 0.0091 -0.0014
C30 0.034 0.035 0.029 0.0068 0.0008 -0.0056
O4 0.0304 0.0337 0.0512 0.0087 0.0204 0.0073
O5 0.0248 0.052 0.0435 0.0125 0.0062 0.0071
O6 0.0293 0.115 0.0305 0.002 0.0045 0.006
O7 0.0356 0.0381 0.0385 0.0013 0.0095 -0.0102
O8 0.0319 0.046 0.054 -0.014 0.0029 -0.0023
O9 0.05 0.069 0.079 -0.011 0.026 -0.011
O10 0.054 0.08 0.091 0.048 0.021 0.041
O11 0.069 0.047 0.0393 0.0183 0.0166 0.003
C3 0.064 0.027 0.03 0.0058 0.011 0.011
C5 0.027 0.049 0.028 0.0042 0.0074 0.006
C6 0.0263 0.036 0.034 0.0093 0.0102 0.0075
C7 0.032 0.053 0.033 0.007 0.0167 0.007
C8 0.027 0.029 0.04 0.0113 0.0104 0.007
C9 0.028 0.04 0.036 0.0068 0.0082 -0.0042
C10 0.034 0.029 0.029 0.0035 0.0033 -0.0051
C11 0.037 0.036 0.038 0.001 0.0091 -0.0014
C12 0.034 0.035 0.029 0.0068 0.0008 -0.0056
C13 0.249 0.304 0.142 0.171 0.14 0.243
C14 0.104 0.148 0.171 0.014 0.019 0.005
C15 0.152 0.167 0.158 0.092 -0.013 -0.036
C18 0.165 0.136 0.11 0.083 -0.037 -0.023
N1 0.073 0.104 0.103 0.067 0.038 0.055
O14 0.0513 0.0225 0.0347 0.0094 0.0057 0.0044
O17 0.0304 0.0337 0.0512 0.0087 0.0204 0.0073
O21 0.0248 0.052 0.0435 0.0125 0.0062 0.0071
O24 0.0293 0.115 0.0305 0.002 0.0045 0.006
C23 0.027 0.049 0.028 0.0042 0.0074 0.006
C24 0.0263 0.036 0.034 0.0093 0.0102 0.0075
C25 0.032 0.053 0.033 0.007 0.0167 0.007
C26 0.027 0.029 0.04 0.0113 0.0104 0.007
O12 0.0489 0.0183 0.0369 0.0061 0.0107 0.0029
O16 0.144 0.041 0.041 0.022 0.037 0.04
C19 0.06 0.029 0.031 0.011 0.014 0.01
C20 0.037 0.0189 0.035 0.0065 0.0052 0.0026
C22 0.033 0.022 0.037 0.0053 0.007 -0.0002
C34 0.064 0.063 0.045 0.022 0.022 0.012
C35 0.132 0.098 0.14 0.07 0.059 0.001
N4 0.082 0.061 0.06 0.031 0.029 0.008
O1 0.0489 0.0183 0.0369 0.0061 0.0107 0.0029
O2 0.0513 0.0225 0.0347 0.0094 0.0057 0.0044
O3 0.144 0.041 0.041 0.022 0.037 0.04
C1 0.06 0.029 0.031 0.011 0.014 0.01
C2 0.037 0.0189 0.035 0.0065 0.0052 0.0026
C4 0.033 0.022 0.037 0.0053 0.007 -0.0002
C16 0.064 0.063 0.045 0.022 0.022 0.012
C17 0.132 0.098 0.14 0.07 0.059 0.001
N2 0.082 0.061 0.06 0.031 0.029 0.008
O30 0.054 0.08 0.091 0.048 0.021 0.041
O31 0.069 0.047 0.0393 0.0183 0.0166 0.003
C21 0.064 0.027 0.03 0.0058 0.011 0.011
C31 0.249 0.304 0.142 0.171 0.14 0.243
C32 0.104 0.148 0.171 0.014 0.019 0.005
C33 0.152 0.167 0.158 0.092 -0.013 -0.036
C36 0.165 0.136 0.11 0.083 -0.037 -0.023
N3 0.073 0.104 0.103 0.067 0.038 0.055
loop_
_geom_bond_atom_site_label_1
_geom_bond_atom_site_label_2
_geom_bond_site_symmetry_1
_geom_bond_site_symmetry_2
Gd7 O25 1_555 1_555
O25 C30 1_555 1_555
O27 Gd7 1_555 1_555
O29 H23 1_555 1_555
C28 C27 1_555 1_555
H26 C29 1_555 1_555
C30 O27 1_555 1_555
O29 C27 1_555 1_555
C28 C29 1_555 1_555
C28 C30 1_555 1_555
O4 Gd6 1_555 1_555
O5 C8 1_555 1_555
O6 H2 1_555 1_555
O7 Gd6 1_555 1_555
O8 Gd6 1_555 1_555
O9 H3 1_555 1_555
O10 Gd6 1_555 1_555
O11 Gd6 1_555 1_555
H4 C3 1_555 1_555
C5 O6 1_555 1_555
C6 C5 1_555 1_555
C7 C6 1_555 1_555
H5 C7 1_555 1_555
C8 O4 1_555 1_555
C9 O9 1_555 1_555
C10 C9 1_555 1_555
C11 C10 1_555 1_555
H6 C11 1_555 1_555
C12 O7 1_555 1_555
C13 O10 1_555 1_555
H7 C13 1_555 1_555
C14 H8 1_555 1_555
H9 C14 1_555 1_555
H10 C14 1_555 1_555
C15 H11 1_555 1_555
H12 C15 1_555 1_555
H13 C15 1_555 1_555
C18 H18 1_555 1_555
H19 C18 1_555 1_555
N1 C13 1_555 1_555
Gd7 O17 1_555 1_555
O14 Gd6 1_555 1_555
O17 C26 1_555 1_555
O24 H22 1_555 1_555
C23 C7 1_555 1_555
C24 C23 1_555 1_555
C25 C5 1_555 1_555
H25 C25 1_555 1_555
C26 O21 1_555 1_555
O8 C12 1_555 1_555
C6 C8 1_555 1_555
C10 C12 1_555 1_555
C14 N1 1_555 1_555
C15 N1 1_555 1_555
O24 C23 1_555 1_555
C24 C25 1_555 1_555
C24 C26 1_555 1_555
O12 C22 1_555 1_555
O14 C22 1_555 1_555
O16 H21 1_555 1_555
C20 C19 1_555 1_555
C22 C20 1_555 1_555
H34 C34 1_555 1_555
C35 H35 1_555 1_555
H36 C35 1_555 1_555
H37 C35 1_555 1_555
N4 C34 1_555 1_555
O16 C19 1_555 1_555
C35 N4 1_555 1_555
O1 C4 1_555 1_555
O2 C4 1_555 1_555
O3 H1 1_555 1_555
C1 O3 1_555 1_555
C2 C1 1_555 1_555
C4 C2 1_555 1_555
H14 C16 1_555 1_555
C17 H15 1_555 1_555
H16 C17 1_555 1_555
H17 C17 1_555 1_555
N2 C16 1_555 1_555
Gd7 O2 1_555 1_555
C17 N2 1_555 1_555
O30 Gd7 1_555 1_555
O31 Gd7 1_555 1_555
H24 C21 1_555 1_555
C31 O30 1_555 1_555
H27 C31 1_555 1_555
C32 H28 1_555 1_555
H29 C32 1_555 1_555
H30 C32 1_555 1_555
C33 H31 1_555 1_555
H32 C33 1_555 1_555
H33 C33 1_555 1_555
C36 H38 1_555 1_555
H39 C36 1_555 1_555
N3 C31 1_555 1_555
C32 N3 1_555 1_555
C33 N3 1_555 1_555

#END
