
###############################################################################
#
# This file contains modified crystal structure data generated from the
# MOF subset of the Cambridge Structural Database (CSD) v543 
# hosted by the Cambridge Crystallographic Data Centre (CCDC).
#
# This work is licensed under the Creative Commons
# Attribution-NonCommercial-ShareAlike 4.0 International License.
# To view a copy of this license, visit
# http://creativecommons.org/licenses/by-nc-sa/4.0/
# or send a letter to
# Creative Commons, PO Box 1866, Mountain View, CA 94042, USA.
#
# CIF created using the CSD Python API on 29 September 2022
# The structure has been converted into the P1 space group
# The structure has a 3D framework
# The original CSD entry ETEKEU is in the triclinic crystal system
# The framework has been calculated to contain at least 10.0% void space
# The void calculation uses a probe of radius 1.32A, grid spacing 0.4
#
###############################################################################

data_ETEKEU
_chemical_formula_moiety         '(C36 H40 Er2 N4 O22)n'
_symmetry_cell_setting           triclinic
_symmetry_space_group_name_H-M   'P 1'
_symmetry_Int_Tables_number      1
_space_group_name_Hall           'P 1'
loop_
_symmetry_equiv_pos_site_id
_symmetry_equiv_pos_as_xyz
1 x,y,z
_cell_length_a                   10.5507(9)
_cell_length_b                   10.9265(10)
_cell_length_c                   12.8978(11)
_cell_angle_alpha                103.1840(10)
_cell_angle_beta                 111.1470(10)
_cell_angle_gamma                96.5660(10)
_cell_volume                     1318.17
loop_
_atom_site_label
_atom_site_type_symbol
_atom_site_fract_x
_atom_site_fract_y
_atom_site_fract_z
_atom_site_U_iso_or_equiv
_atom_site_thermal_displace_type
Er5 Er 0.106461(19) 0.546535(18) 0.682665(17) 0.0230 Uani
Er7 Er 0.893539(19) 0.453465(18) 0.317335(17) 0.0230 Uani
O25 O 0.8263(4) 0.2497(3) 0.1552(3) 0.0381 Uani
O27 O 0.6718(4) 0.3120(4) 0.2199(3) 0.0485 Uani
O29 O 0.7652(4) 0.0191(4) 0.0058(4) 0.0630 Uani
H23 H 0.8160 0.0884 0.0494 0.0940 Uiso
C27 C 0.6360(5) 0.0132(5) 0.0059(4) 0.0361 Uani
C28 C 0.6007(5) 0.1103(5) 0.0753(4) 0.0350 Uani
C29 C 0.4642(5) 0.0959(5) 0.0676(5) 0.0407 Uani
H26 H 0.4402 0.1608 0.1127 0.0490 Uiso
C30 C 0.7046(5) 0.2302(5) 0.1543(4) 0.0330 Uani
O4 O 0.1682(3) 0.4969(3) 0.5301(3) 0.0353 Uani
O5 O 0.1208(3) 0.4352(3) 0.3428(3) 0.0363 Uani
O6 O 0.3172(4) 0.4061(5) 0.2697(3) 0.0558 Uani
H2 H 0.2366 0.4040 0.2628 0.0840 Uiso
O7 O 0.1737(4) 0.7503(3) 0.8448(3) 0.0381 Uani
O8 O 0.3282(4) 0.6880(4) 0.7801(3) 0.0485 Uani
O9 O 0.2348(4) 0.9809(4) 0.9942(4) 0.0630 Uani
H3 H 0.1840 0.9116 0.9506 0.0940 Uiso
O10 O 0.2709(5) 0.4224(5) 0.7471(4) 0.0686 Uani
O11 O 0.0714(4) 0.4784(4) 0.8323(3) 0.0456 Uani
C5 C 0.4046(5) 0.4530(5) 0.3842(4) 0.0339 Uani
C6 C 0.3578(5) 0.4861(4) 0.4727(4) 0.0279 Uani
C7 C 0.4543(5) 0.5330(5) 0.5882(4) 0.0345 Uani
H5 H 0.4229 0.5552 0.6474 0.0420 Uiso
C8 C 0.2068(5) 0.4722(4) 0.4484(4) 0.0291 Uani
C9 C 0.3640(5) 0.9868(5) 0.9941(4) 0.0361 Uani
C10 C 0.3993(5) 0.8897(5) 0.9247(4) 0.0350 Uani
C11 C 0.5358(5) 0.9041(5) 0.9324(5) 0.0407 Uani
H6 H 0.5598 0.8392 0.8873 0.0490 Uiso
C12 C 0.2954(5) 0.7698(5) 0.8457(4) 0.0330 Uani
C13 C 0.3576(16) 0.3966(16) 0.7848(11) 0.1881 Uani
H7 H 0.4238 0.4698 0.8006 0.2260 Uiso
C14 C 0.5825(13) 0.3668(13) 0.8936(12) 0.1492 Uani
H8 H 0.6090 0.4563 0.9008 0.2240 Uiso
H9 H 0.6320 0.3183 0.8559 0.2240 Uiso
H10 H 0.6047 0.3557 0.9695 0.2240 Uiso
C15 C 0.3772(14) 0.1915(13) 0.7974(10) 0.1597 Uani
H11 H 0.2796 0.1742 0.7493 0.2400 Uiso
H12 H 0.3897 0.1682 0.8673 0.2400 Uiso
H13 H 0.4229 0.1420 0.7562 0.2400 Uiso
C18 C 0.1310(13) 0.3347(12) 0.9868(9) 0.1530 Uani
H18 H 0.1932 0.4086 0.9907 0.2300 Uiso
H19 H 0.1713 0.2605 0.9773 0.2300 Uiso
N1 N 0.4340(7) 0.3215(7) 0.8253(6) 0.0742 Uani
N2 N 0.0021(6) 0.3129(5) 0.8908(5) 0.0606 Uani
O14 O 0.0717(4) 0.7199(3) 0.6051(3) 0.0343 Uani
O17 O 0.8318(3) 0.5031(3) 0.4699(3) 0.0353 Uani
O21 O 0.8792(3) 0.5648(3) 0.6572(3) 0.0363 Uani
O24 O 0.6828(4) 0.5939(5) 0.7303(3) 0.0558 Uani
H22 H 0.7634 0.5960 0.7372 0.0840 Uiso
C23 C 0.5954(5) 0.5470(5) 0.6158(4) 0.0339 Uani
C24 C 0.6422(5) 0.5139(4) 0.5273(4) 0.0279 Uani
C25 C 0.5457(5) 0.4670(5) 0.4118(4) 0.0345 Uani
H25 H 0.5771 0.4448 0.3526 0.0420 Uiso
C26 C 0.7932(5) 0.5278(4) 0.5516(4) 0.0291 Uani
O12 O 0.0149(4) 0.6628(3) 0.4134(3) 0.0323 Uani
O16 O 0.0411(6) 0.9435(4) 0.7060(3) 0.0639 Uani
H21 H 0.0532 0.8700 0.7016 0.0970 Uiso
C19 C 0.0210(6) 0.9678(5) 0.6031(4) 0.0365 Uani
C20 C 0.0209(5) 0.8771(4) 0.5064(4) 0.0293 Uani
C21 C 0.0003(6) 0.9117(5) 0.4053(4) 0.0381 Uani
H24 H 0.0009 0.8520 0.3413 0.0460 Uiso
C22 C 0.0368(5) 0.7433(4) 0.5076(4) 0.0288 Uani
C34 C 0.0161(7) 0.6114(6) 0.1773(5) 0.0488 Uani
H34 H 0.1031 0.6280 0.2378 0.0590 Uiso
C35 C 0.1059(10) 0.7931(9) 0.1256(9) 0.1013 Uani
H35 H 0.1885 0.7974 0.1915 0.1520 Uiso
H36 H 0.1259 0.7799 0.0574 0.1520 Uiso
H37 H 0.0749 0.8722 0.1388 0.1520 Uiso
O1 O 0.9851(4) 0.3372(3) 0.5866(3) 0.0323 Uani
O2 O 0.9283(4) 0.2801(3) 0.3949(3) 0.0343 Uani
O3 O 0.9589(6) 0.0565(4) 0.2940(3) 0.0639 Uani
H1 H 0.9468 0.1300 0.2984 0.0970 Uiso
C1 C 0.9790(6) 0.0322(5) 0.3969(4) 0.0365 Uani
C2 C 0.9791(5) 0.1229(4) 0.4936(4) 0.0293 Uani
C3 C 0.9997(6) 0.0883(5) 0.5947(4) 0.0381 Uani
H4 H 0.9991 0.1480 0.6587 0.0460 Uiso
C4 C 0.9632(5) 0.2567(4) 0.4924(4) 0.0288 Uani
C16 C 0.9839(7) 0.3886(6) 0.8227(5) 0.0488 Uani
H14 H 0.8969 0.3720 0.7622 0.0590 Uiso
C17 C 0.8941(10) 0.2069(9) 0.8744(9) 0.1013 Uani
H15 H 0.8115 0.2026 0.8085 0.1520 Uiso
H16 H 0.8741 0.2201 0.9426 0.1520 Uiso
H17 H 0.9251 0.1278 0.8612 0.1520 Uiso
O30 O 0.7291(5) 0.5776(5) 0.2529(4) 0.0686 Uani
O31 O 0.9286(4) 0.5216(4) 0.1677(3) 0.0456 Uani
C31 C 0.6424(16) 0.6034(16) 0.2152(11) 0.1881 Uani
H27 H 0.5762 0.5302 0.1994 0.2260 Uiso
C32 C 0.4175(13) 0.6332(13) 0.1064(12) 0.1492 Uani
H28 H 0.3910 0.5437 0.0992 0.2240 Uiso
H29 H 0.3680 0.6817 0.1441 0.2240 Uiso
H30 H 0.3953 0.6443 0.0305 0.2240 Uiso
C33 C 0.6228(14) 0.8085(13) 0.2026(10) 0.1597 Uani
H31 H 0.7204 0.8258 0.2507 0.2400 Uiso
H32 H 0.6103 0.8318 0.1327 0.2400 Uiso
H33 H 0.5771 0.8580 0.2438 0.2400 Uiso
C36 C 0.8690(13) 0.6653(12) 0.0132(9) 0.1530 Uani
H38 H 0.8068 0.5914 0.0093 0.2300 Uiso
H39 H 0.8287 0.7395 0.0227 0.2300 Uiso
N3 N 0.5660(7) 0.6785(7) 0.1747(6) 0.0742 Uani
N4 N 0.9979(6) 0.6871(5) 0.1092(5) 0.0606 Uani
H20 H 0.1158 0.3495 0.0572 0.2300 Uiso
H40 H 0.8842 0.6505 0.9428 0.2300 Uiso
loop_
_atom_site_aniso_label
_atom_site_aniso_U_11
_atom_site_aniso_U_22
_atom_site_aniso_U_33
_atom_site_aniso_U_23
_atom_site_aniso_U_13
_atom_site_aniso_U_12
Er5 0.01909 0.0184 0.02592 0.00582 0.0039 0.00161
Er7 0.01909 0.0184 0.02592 0.00582 0.0039 0.00161
O25 0.0322 0.0355 0.034 0.0022 0.0081 -0.0072
O27 0.029 0.039 0.052 -0.0106 0.0049 -0.0023
O29 0.044 0.058 0.068 -0.007 0.023 -0.011
C27 0.027 0.035 0.035 0.005 0.006 -0.004
C28 0.033 0.027 0.032 0.005 0.004 -0.0052
C29 0.038 0.036 0.036 0.002 0.009 -0.001
C30 0.031 0.026 0.027 0.0077 -0.0013 -0.0076
O4 0.0283 0.0359 0.044 0.0086 0.0191 0.0061
O5 0.0208 0.042 0.037 0.0072 0.0043 0.0053
O6 0.0257 0.101 0.0266 0.006 0.0052 0.004
O7 0.0322 0.0355 0.034 0.0022 0.0081 -0.0072
O8 0.029 0.039 0.052 -0.0106 0.0049 -0.0023
O9 0.044 0.058 0.068 -0.007 0.023 -0.011
O10 0.052 0.084 0.079 0.045 0.016 0.041
O11 0.061 0.037 0.0324 0.0152 0.012 -0.0021
C5 0.025 0.044 0.025 0.006 0.0051 0.003
C6 0.023 0.028 0.03 0.0061 0.0083 0.0073
C7 0.029 0.046 0.031 0.009 0.016 0.009
C8 0.025 0.024 0.04 0.0095 0.015 0.0049
C9 0.027 0.035 0.035 0.005 0.006 -0.004
C10 0.033 0.027 0.032 0.005 0.004 -0.0052
C11 0.038 0.036 0.036 0.002 0.009 -0.001
C12 0.031 0.026 0.027 0.0077 -0.0013 -0.0076
C13 0.259 0.34 0.171 0.212 0.174 0.267
C14 0.126 0.127 0.155 0.003 0.042 0.002
C15 0.159 0.133 0.118 0.064 -0.016 -0.046
C18 0.145 0.153 0.101 0.087 -0.033 -0.021
N1 0.065 0.092 0.102 0.065 0.042 0.051
N2 0.078 0.053 0.054 0.028 0.026 0.002
O14 0.045 0.0182 0.0308 0.0083 0.0058 0.0021
O17 0.0283 0.0359 0.044 0.0086 0.0191 0.0061
O21 0.0208 0.042 0.037 0.0072 0.0043 0.0053
O24 0.0257 0.101 0.0266 0.006 0.0052 0.004
C23 0.025 0.044 0.025 0.006 0.0051 0.003
C24 0.023 0.028 0.03 0.0061 0.0083 0.0073
C25 0.029 0.046 0.031 0.009 0.016 0.009
C26 0.025 0.024 0.04 0.0095 0.015 0.0049
O12 0.042 0.02 0.0311 0.0061 0.0121 0.0039
O16 0.133 0.035 0.038 0.0196 0.039 0.038
C19 0.054 0.027 0.028 0.009 0.015 0.009
C20 0.032 0.021 0.03 0.0073 0.0078 0.0032
C21 0.057 0.026 0.028 0.005 0.014 0.012
C22 0.025 0.019 0.035 0.0067 0.0059 -0.0003
C34 0.056 0.053 0.043 0.02 0.023 0.01
C35 0.109 0.091 0.111 0.056 0.045 -0.009
O1 0.042 0.02 0.0311 0.0061 0.0121 0.0039
O2 0.045 0.0182 0.0308 0.0083 0.0058 0.0021
O3 0.133 0.035 0.038 0.0196 0.039 0.038
C1 0.054 0.027 0.028 0.009 0.015 0.009
C2 0.032 0.021 0.03 0.0073 0.0078 0.0032
C3 0.057 0.026 0.028 0.005 0.014 0.012
C4 0.025 0.019 0.035 0.0067 0.0059 -0.0003
C16 0.056 0.053 0.043 0.02 0.023 0.01
C17 0.109 0.091 0.111 0.056 0.045 -0.009
O30 0.052 0.084 0.079 0.045 0.016 0.041
O31 0.061 0.037 0.0324 0.0152 0.012 -0.0021
C31 0.259 0.34 0.171 0.212 0.174 0.267
C32 0.126 0.127 0.155 0.003 0.042 0.002
C33 0.159 0.133 0.118 0.064 -0.016 -0.046
C36 0.145 0.153 0.101 0.087 -0.033 -0.021
N3 0.065 0.092 0.102 0.065 0.042 0.051
N4 0.078 0.053 0.054 0.028 0.026 0.002
loop_
_geom_bond_atom_site_label_1
_geom_bond_atom_site_label_2
_geom_bond_site_symmetry_1
_geom_bond_site_symmetry_2
Er7 O25 1_555 1_555
O25 C30 1_555 1_555
O27 Er7 1_555 1_555
O29 H23 1_555 1_555
C28 C27 1_555 1_555
H26 C29 1_555 1_555
C30 O27 1_555 1_555
O29 C27 1_555 1_555
C28 C29 1_555 1_555
C28 C30 1_555 1_555
O4 Er5 1_555 1_555
O5 C8 1_555 1_555
O6 H2 1_555 1_555
O7 Er5 1_555 1_555
O8 Er5 1_555 1_555
O9 H3 1_555 1_555
O10 Er5 1_555 1_555
O11 Er5 1_555 1_555
C5 O6 1_555 1_555
C6 C5 1_555 1_555
C7 C6 1_555 1_555
H5 C7 1_555 1_555
C8 O4 1_555 1_555
C9 O9 1_555 1_555
C10 C9 1_555 1_555
C11 C10 1_555 1_555
H6 C11 1_555 1_555
C12 O7 1_555 1_555
C13 O10 1_555 1_555
H7 C13 1_555 1_555
C14 H8 1_555 1_555
H9 C14 1_555 1_555
H10 C14 1_555 1_555
C15 H11 1_555 1_555
H12 C15 1_555 1_555
H13 C15 1_555 1_555
C18 H18 1_555 1_555
H19 C18 1_555 1_555
N1 C13 1_555 1_555
Er7 O17 1_555 1_555
O14 Er5 1_555 1_555
O17 C26 1_555 1_555
O24 H22 1_555 1_555
C23 C7 1_555 1_555
C24 C23 1_555 1_555
C25 C5 1_555 1_555
H25 C25 1_555 1_555
C26 O21 1_555 1_555
O8 C12 1_555 1_555
C6 C8 1_555 1_555
C10 C12 1_555 1_555
C14 N1 1_555 1_555
C15 N1 1_555 1_555
C18 N2 1_555 1_555
O24 C23 1_555 1_555
C24 C25 1_555 1_555
C24 C26 1_555 1_555
O12 C22 1_555 1_555
O14 C22 1_555 1_555
O16 H21 1_555 1_555
C20 C19 1_555 1_555
H24 C21 1_555 1_555
C22 C20 1_555 1_555
H34 C34 1_555 1_555
C35 H35 1_555 1_555
H36 C35 1_555 1_555
H37 C35 1_555 1_555
O16 C19 1_555 1_555
C20 C21 1_555 1_555
O1 C4 1_555 1_555
O2 C4 1_555 1_555
O3 H1 1_555 1_555
C1 O3 1_555 1_555
C2 C1 1_555 1_555
C3 C2 1_555 1_555
H4 C3 1_555 1_555
C4 C2 1_555 1_555
H14 C16 1_555 1_555
C17 H15 1_555 1_555
H16 C17 1_555 1_555
H17 C17 1_555 1_555
Er7 O2 1_555 1_555
O30 Er7 1_555 1_555
O31 Er7 1_555 1_555
C31 O30 1_555 1_555
H27 C31 1_555 1_555
C32 H28 1_555 1_555
H29 C32 1_555 1_555
H30 C32 1_555 1_555
C33 H31 1_555 1_555
H32 C33 1_555 1_555
H33 C33 1_555 1_555
C36 H38 1_555 1_555
H39 C36 1_555 1_555
N3 C31 1_555 1_555
C32 N3 1_555 1_555
C33 N3 1_555 1_555
C36 N4 1_555 1_555

#END
