
###############################################################################
#
# This file contains modified crystal structure data generated from the
# MOF subset of the Cambridge Structural Database (CSD) v543 
# hosted by the Cambridge Crystallographic Data Centre (CCDC).
#
# This work is licensed under the Creative Commons
# Attribution-NonCommercial-ShareAlike 4.0 International License.
# To view a copy of this license, visit
# http://creativecommons.org/licenses/by-nc-sa/4.0/
# or send a letter to
# Creative Commons, PO Box 1866, Mountain View, CA 94042, USA.
#
# CIF created using the CSD Python API on 29 September 2022
# The structure has been converted into the P1 space group
# The structure has a 3D framework
# The original CSD entry ETELEX is in the cubic crystal system
# The framework has been calculated to contain at least 10.0% void space
# The void calculation uses a probe of radius 1.32A, grid spacing 0.4
# The framework is charged, counterions have been retained in the structure
#
###############################################################################

data_ETELEX
_chemical_formula_moiety         '(C288 H144 O160 Tm32 4-)n'
_symmetry_cell_setting           triclinic
_symmetry_space_group_name_H-M   'P 1'
_symmetry_Int_Tables_number      1
_space_group_name_Hall           'P 1'
loop_
_symmetry_equiv_pos_site_id
_symmetry_equiv_pos_as_xyz
1 x,y,z
_cell_length_a                   21.2553(16)
_cell_length_b                   21.2553(16)
_cell_length_c                   21.2553(16)
_cell_angle_alpha                90
_cell_angle_beta                 90
_cell_angle_gamma                90
_cell_volume                     9602.88
loop_
_atom_site_label
_atom_site_type_symbol
_atom_site_fract_x
_atom_site_fract_y
_atom_site_fract_z
Tm10 Tm 0.12723(3) 0.000000 0.500000
Tm1 Tm 0.37277(3) 0.500000 0.500000
O1 O 0.44085(17) 0.55915(17) 0.55915(17)
O2 O 0.3263(3) 0.4036(2) 0.500000
C1 C 0.3465(4) 0.3465(4) 0.500000
C2 C 0.2964(4) 0.2964(4) 0.500000
C3 C 0.3127(6) 0.2336(5) 0.500000
H1 H 0.355385 0.222006 0.500000
O3 O 0.4036(2) 0.3263(3) 0.500000
C4 C 0.2336(5) 0.3127(6) 0.500000
H2 H 0.222006 0.355385 0.500000
O4 O 0.0964(2) 0.1737(3) 0.500000
C5 C 0.1535(4) 0.1535(4) 0.500000
C6 C 0.2036(4) 0.2036(4) 0.500000
C7 C 0.2664(5) 0.1873(6) 0.500000
H3 H 0.277994 0.144615 0.500000
O5 O 0.1737(3) 0.0964(2) 0.500000
C8 C 0.1873(6) 0.2664(5) 0.500000
H4 H 0.144615 0.277994 0.500000
O6 O 0.44085(17) 0.44085(17) 0.44085(17)
O7 O 0.3263(3) 0.5964(2) 0.500000
C9 C 0.3465(4) 0.6535(4) 0.500000
C10 C 0.2964(4) 0.7036(4) 0.500000
C11 C 0.3127(6) 0.7664(5) 0.500000
H5 H 0.355385 0.777994 0.500000
O8 O 0.4036(2) 0.6737(3) 0.500000
C12 C 0.2336(5) 0.6873(6) 0.500000
H6 H 0.222006 0.644615 0.500000
O9 O 0.0964(2) 0.8263(3) 0.500000
C13 C 0.1535(4) 0.8465(4) 0.500000
C14 C 0.2036(4) 0.7964(4) 0.500000
C15 C 0.2664(5) 0.8127(6) 0.500000
H7 H 0.277994 0.855385 0.500000
O10 O 0.1737(3) 0.9036(2) 0.500000
C16 C 0.1873(6) 0.7336(5) 0.500000
H8 H 0.144615 0.722006 0.500000
Tm2 Tm 0.500000 0.37277(3) 0.500000
O11 O 0.55915(17) 0.44085(17) 0.55915(17)
O12 O 0.500000 0.3263(3) 0.4036(2)
C17 C 0.500000 0.3465(4) 0.3465(4)
C18 C 0.500000 0.2964(4) 0.2964(4)
C19 C 0.500000 0.3127(6) 0.2336(5)
H9 H 0.500000 0.355385 0.222006
O13 O 0.500000 0.4036(2) 0.3263(3)
C20 C 0.500000 0.2336(5) 0.3127(6)
H10 H 0.500000 0.222006 0.355385
O14 O 0.500000 0.0964(2) 0.1737(3)
C21 C 0.500000 0.1535(4) 0.1535(4)
C22 C 0.500000 0.2036(4) 0.2036(4)
C23 C 0.500000 0.2664(5) 0.1873(6)
H11 H 0.500000 0.277994 0.144615
O15 O 0.500000 0.1737(3) 0.0964(2)
C24 C 0.500000 0.1873(6) 0.2664(5)
H12 H 0.500000 0.144615 0.277994
Tm3 Tm 0.500000 0.62723(3) 0.500000
O16 O 0.55915(17) 0.55915(17) 0.44085(17)
Tm4 Tm 0.62723(3) 0.500000 0.500000
Tm5 Tm 0.500000 0.500000 0.37277(3)
Tm6 Tm 0.500000 0.500000 0.62723(3)
Tm7 Tm 0.500000 0.12723(3) 0.000000
Tm8 Tm 0.500000 -0.000000 0.12723(3)
Tm10_2 Tm 0.12723(3) 1.000000 0.500000
Tm11 Tm 0.000000 0.87277(3) 0.500000
Tm12 Tm 0.000000 0.12723(3) 0.500000
O17 O 0.55915(17) 0.44085(17) 0.44085(17)
O18 O 0.44085(17) 0.55915(17) 0.44085(17)
O19 O 0.55915(17) 0.55915(17) 0.55915(17)
O20 O 0.44085(17) 0.44085(17) 0.55915(17)
O21 O 0.500000 0.6737(3) 0.5964(2)
O22 O 0.500000 0.6737(3) 0.4036(2)
O23 O 0.500000 0.3263(3) 0.5964(2)
O24 O 0.5964(2) 0.6737(3) 0.500000
O25 O 0.5964(2) 0.3263(3) 0.500000
O26 O 0.3263(3) 0.500000 0.5964(2)
O27 O 0.3263(3) 0.500000 0.4036(2)
Tm7_2 Tm 0.500000 0.12723(3) 1.000000
Tm8_2 Tm 0.500000 1.000000 0.12723(3)
Tm11_2 Tm 1.000000 0.87277(3) 0.500000
Tm12_2 Tm 1.000000 0.12723(3) 0.500000
Tm9 Tm 0.87277(3) 0.000000 0.500000
O2_2 O 0.6737(3) 0.5964(2) 0.500000
C1_2 C 0.6535(4) 0.6535(4) 0.500000
C2_2 C 0.7036(4) 0.7036(4) 0.500000
C3_2 C 0.6873(6) 0.7664(5) 0.500000
H1_2 H 0.644615 0.777994 0.500000
C4_2 C 0.7664(5) 0.6873(6) 0.500000
H2_2 H 0.777994 0.644615 0.500000
O4_2 O 0.9036(2) 0.8263(3) 0.500000
C5_2 C 0.8465(4) 0.8465(4) 0.500000
C6_2 C 0.7964(4) 0.7964(4) 0.500000
C7_2 C 0.7336(5) 0.8127(6) 0.500000
H3_2 H 0.722006 0.855385 0.500000
O5_2 O 0.8263(3) 0.9036(2) 0.500000
C8_2 C 0.8127(6) 0.7336(5) 0.500000
H4_2 H 0.855385 0.722006 0.500000
O7_2 O 0.6737(3) 0.4036(2) 0.500000
C9_2 C 0.6535(4) 0.3465(4) 0.500000
C10_2 C 0.7036(4) 0.2964(4) 0.500000
C11_2 C 0.6873(6) 0.2336(5) 0.500000
H5_2 H 0.644615 0.222006 0.500000
C12_2 C 0.7664(5) 0.3127(6) 0.500000
H6_2 H 0.777994 0.355385 0.500000
O9_2 O 0.9036(2) 0.1737(3) 0.500000
C13_2 C 0.8465(4) 0.1535(4) 0.500000
C14_2 C 0.7964(4) 0.2036(4) 0.500000
C15_2 C 0.7336(5) 0.1873(6) 0.500000
H7_2 H 0.722006 0.144615 0.500000
O10_2 O 0.8263(3) 0.0964(2) 0.500000
C16_2 C 0.8127(6) 0.2664(5) 0.500000
H8_2 H 0.855385 0.277994 0.500000
C17_2 C 0.500000 0.6535(4) 0.3465(4)
C18_2 C 0.500000 0.7036(4) 0.2964(4)
C19_2 C 0.500000 0.6873(6) 0.2336(5)
H9_2 H 0.500000 0.644615 0.222006
O13_2 O 0.500000 0.5964(2) 0.3263(3)
C20_2 C 0.500000 0.7664(5) 0.3127(6)
H10_2 H 0.500000 0.777994 0.355385
O14_2 O 0.500000 0.9036(2) 0.1737(3)
C21_2 C 0.500000 0.8465(4) 0.1535(4)
C22_2 C 0.500000 0.7964(4) 0.2036(4)
C23_2 C 0.500000 0.7336(5) 0.1873(6)
H11_2 H 0.500000 0.722006 0.144615
O15_2 O 0.500000 0.8263(3) 0.0964(2)
C24_2 C 0.500000 0.8127(6) 0.2664(5)
H12_2 H 0.500000 0.855385 0.277994
Tm7_3 Tm 0.500000 0.87277(3) 0.000000
Tm9_2 Tm 0.87277(3) 1.000000 0.500000
O26_2 O 0.6737(3) 0.500000 0.5964(2)
O27_2 O 0.6737(3) 0.500000 0.4036(2)
Tm7_4 Tm 0.500000 0.87277(3) 1.000000
C17_3 C 0.500000 0.3465(4) 0.6535(4)
C18_3 C 0.500000 0.2964(4) 0.7036(4)
C19_3 C 0.500000 0.3127(6) 0.7664(5)
H9_3 H 0.500000 0.355385 0.777994
O13_3 O 0.500000 0.4036(2) 0.6737(3)
C20_3 C 0.500000 0.2336(5) 0.6873(6)
H10_3 H 0.500000 0.222006 0.644615
O14_3 O 0.500000 0.0964(2) 0.8263(3)
C21_3 C 0.500000 0.1535(4) 0.8465(4)
C22_3 C 0.500000 0.2036(4) 0.7964(4)
C23_3 C 0.500000 0.2664(5) 0.8127(6)
H11_3 H 0.500000 0.277994 0.855385
O15_3 O 0.500000 0.1737(3) 0.9036(2)
C24_3 C 0.500000 0.1873(6) 0.7336(5)
H12_3 H 0.500000 0.144615 0.722006
Tm8_3 Tm 0.500000 0.000000 0.87277(3)
Tm8_4 Tm 0.500000 1.000000 0.87277(3)
C17_4 C 0.500000 0.6535(4) 0.6535(4)
C18_4 C 0.500000 0.7036(4) 0.7036(4)
C19_4 C 0.500000 0.6873(6) 0.7664(5)
H9_4 H 0.500000 0.644615 0.777994
O13_4 O 0.500000 0.5964(2) 0.6737(3)
C20_4 C 0.500000 0.7664(5) 0.6873(6)
H10_4 H 0.500000 0.777994 0.644615
O14_4 O 0.500000 0.9036(2) 0.8263(3)
C21_4 C 0.500000 0.8465(4) 0.8465(4)
C22_4 C 0.500000 0.7964(4) 0.7964(4)
C23_4 C 0.500000 0.7336(5) 0.8127(6)
H11_4 H 0.500000 0.722006 0.855385
O15_4 O 0.500000 0.8263(3) 0.9036(2)
C24_4 C 0.500000 0.8127(6) 0.7336(5)
H12_4 H 0.500000 0.855385 0.722006
O12_2 O 0.4036(2) 0.500000 0.3263(3)
C17_5 C 0.3465(4) 0.500000 0.3465(4)
C18_5 C 0.2964(4) 0.500000 0.2964(4)
C19_5 C 0.2336(5) 0.500000 0.3127(6)
H9_5 H 0.222006 0.500000 0.355385
C20_5 C 0.3127(6) 0.500000 0.2336(5)
H10_5 H 0.355385 0.500000 0.222006
O14_5 O 0.1737(3) 0.500000 0.0964(2)
C21_5 C 0.1535(4) 0.500000 0.1535(4)
C22_5 C 0.2036(4) 0.500000 0.2036(4)
C23_5 C 0.1873(6) 0.500000 0.2664(5)
H11_5 H 0.144615 0.500000 0.277994
O15_5 O 0.0964(2) 0.500000 0.1737(3)
C24_5 C 0.2664(5) 0.500000 0.1873(6)
H12_5 H 0.277994 0.500000 0.144615
Tm7_5 Tm 0.000000 0.500000 0.12723(3)
Tm8_5 Tm 0.12723(3) 0.500000 0.000000
O21_2 O 0.5964(2) 0.500000 0.6737(3)
O22_2 O 0.4036(2) 0.500000 0.6737(3)
O23_2 O 0.5964(2) 0.500000 0.3263(3)
Tm8_6 Tm 0.12723(3) 0.500000 1.000000
Tm7_6 Tm 1.000000 0.500000 0.12723(3)
C17_6 C 0.3465(4) 0.500000 0.6535(4)
C18_6 C 0.2964(4) 0.500000 0.7036(4)
C19_6 C 0.2336(5) 0.500000 0.6873(6)
H9_6 H 0.222006 0.500000 0.644615
C20_6 C 0.3127(6) 0.500000 0.7664(5)
H10_6 H 0.355385 0.500000 0.777994
O14_6 O 0.1737(3) 0.500000 0.9036(2)
C21_6 C 0.1535(4) 0.500000 0.8465(4)
C22_6 C 0.2036(4) 0.500000 0.7964(4)
C23_6 C 0.1873(6) 0.500000 0.7336(5)
H11_6 H 0.144615 0.500000 0.722006
O15_6 O 0.0964(2) 0.500000 0.8263(3)
C24_6 C 0.2664(5) 0.500000 0.8127(6)
H12_6 H 0.277994 0.500000 0.855385
Tm7_7 Tm 0.000000 0.500000 0.87277(3)
Tm7_8 Tm 1.000000 0.500000 0.87277(3)
C17_7 C 0.6535(4) 0.500000 0.3465(4)
C18_7 C 0.7036(4) 0.500000 0.2964(4)
C19_7 C 0.7664(5) 0.500000 0.3127(6)
H9_7 H 0.777994 0.500000 0.355385
C20_7 C 0.6873(6) 0.500000 0.2336(5)
H10_7 H 0.644615 0.500000 0.222006
O14_7 O 0.8263(3) 0.500000 0.0964(2)
C21_7 C 0.8465(4) 0.500000 0.1535(4)
C22_7 C 0.7964(4) 0.500000 0.2036(4)
C23_7 C 0.8127(6) 0.500000 0.2664(5)
H11_7 H 0.855385 0.500000 0.277994
O15_7 O 0.9036(2) 0.500000 0.1737(3)
C24_7 C 0.7336(5) 0.500000 0.1873(6)
H12_7 H 0.722006 0.500000 0.144615
Tm8_7 Tm 0.87277(3) 0.500000 0.000000
Tm8_8 Tm 0.87277(3) 0.500000 1.000000
C17_8 C 0.6535(4) 0.500000 0.6535(4)
C18_8 C 0.7036(4) 0.500000 0.7036(4)
C19_8 C 0.7664(5) 0.500000 0.6873(6)
H9_8 H 0.777994 0.500000 0.644615
C20_8 C 0.6873(6) 0.500000 0.7664(5)
H10_8 H 0.644615 0.500000 0.777994
O14_8 O 0.8263(3) 0.500000 0.9036(2)
C21_8 C 0.8465(4) 0.500000 0.8465(4)
C22_8 C 0.7964(4) 0.500000 0.7964(4)
C23_8 C 0.8127(6) 0.500000 0.7336(5)
H11_8 H 0.855385 0.500000 0.722006
O15_8 O 0.9036(2) 0.500000 0.8263(3)
C24_8 C 0.7336(5) 0.500000 0.8127(6)
H12_8 H 0.722006 0.500000 0.855385
Tm1_2 Tm 0.37277(3) -0.000000 0.000000
O1_2 O 0.44085(17) 0.05915(17) 0.05915(17)
O7_3 O 0.3263(3) 0.0964(2) 0.000000
C9_3 C 0.3465(4) 0.1535(4) 0.000000
C10_3 C 0.2964(4) 0.2036(4) 0.000000
C11_3 C 0.3127(6) 0.2664(5) 0.000000
H5_3 H 0.355385 0.277994 0.000000
O8_2 O 0.4036(2) 0.1737(3) 0.000000
C12_3 C 0.2336(5) 0.1873(6) 0.000000
H6_3 H 0.222006 0.144615 0.000000
O9_3 O 0.0964(2) 0.3263(3) 0.000000
C13_3 C 0.1535(4) 0.3465(4) 0.000000
C14_3 C 0.2036(4) 0.2964(4) 0.000000
C15_3 C 0.2664(5) 0.3127(6) 0.000000
H7_3 H 0.277994 0.355385 0.000000
O10_3 O 0.1737(3) 0.4036(2) 0.000000
C16_3 C 0.1873(6) 0.2336(5) 0.000000
H8_3 H 0.144615 0.222006 0.000000
Tm4_2 Tm 0.62723(3) -0.000000 0.000000
Tm11_3 Tm 0.000000 0.37277(3) 0.000000
O19_2 O 0.55915(17) 0.05915(17) 0.05915(17)
O24_2 O 0.5964(2) 0.1737(3) 0.000000
O26_3 O 0.3263(3) -0.000000 0.0964(2)
Tm1_3 Tm 0.37277(3) -0.000000 1.000000
O7_4 O 0.3263(3) 0.0964(2) 1.000000
C9_4 C 0.3465(4) 0.1535(4) 1.000000
C10_4 C 0.2964(4) 0.2036(4) 1.000000
C11_4 C 0.3127(6) 0.2664(5) 1.000000
H5_4 H 0.355385 0.277994 1.000000
O8_3 O 0.4036(2) 0.1737(3) 1.000000
C12_4 C 0.2336(5) 0.1873(6) 1.000000
H6_4 H 0.222006 0.144615 1.000000
O9_4 O 0.0964(2) 0.3263(3) 1.000000
C13_4 C 0.1535(4) 0.3465(4) 1.000000
C14_4 C 0.2036(4) 0.2964(4) 1.000000
C15_4 C 0.2664(5) 0.3127(6) 1.000000
H7_4 H 0.277994 0.355385 1.000000
O10_4 O 0.1737(3) 0.4036(2) 1.000000
C16_4 C 0.1873(6) 0.2336(5) 1.000000
H8_4 H 0.144615 0.222006 1.000000
O16_2 O 0.55915(17) 0.05915(17) 0.94085(17)
Tm4_3 Tm 0.62723(3) -0.000000 1.000000
Tm11_4 Tm 0.000000 0.37277(3) 1.000000
O18_2 O 0.44085(17) 0.05915(17) 0.94085(17)
O24_3 O 0.5964(2) 0.1737(3) 1.000000
O27_3 O 0.3263(3) -0.000000 0.9036(2)
Tm1_4 Tm 0.37277(3) 1.000000 0.000000
O2_3 O 0.3263(3) 0.9036(2) 0.000000
C1_3 C 0.3465(4) 0.8465(4) 0.000000
C2_3 C 0.2964(4) 0.7964(4) 0.000000
C3_3 C 0.3127(6) 0.7336(5) 0.000000
H1_3 H 0.355385 0.722006 0.000000
O3_2 O 0.4036(2) 0.8263(3) 0.000000
C4_3 C 0.2336(5) 0.8127(6) 0.000000
H2_3 H 0.222006 0.855385 0.000000
O4_3 O 0.0964(2) 0.6737(3) 0.000000
C5_3 C 0.1535(4) 0.6535(4) 0.000000
C6_3 C 0.2036(4) 0.7036(4) 0.000000
C7_3 C 0.2664(5) 0.6873(6) 0.000000
H3_3 H 0.277994 0.644615 0.000000
O5_3 O 0.1737(3) 0.5964(2) 0.000000
C8_3 C 0.1873(6) 0.7664(5) 0.000000
H4_3 H 0.144615 0.777994 0.000000
O11_2 O 0.55915(17) 0.94085(17) 0.05915(17)
Tm4_4 Tm 0.62723(3) 1.000000 0.000000
Tm12_3 Tm 0.000000 0.62723(3) 0.000000
O20_2 O 0.44085(17) 0.94085(17) 0.05915(17)
O25_2 O 0.5964(2) 0.8263(3) 0.000000
O26_4 O 0.3263(3) 1.000000 0.0964(2)
Tm1_5 Tm 0.37277(3) 1.000000 1.000000
O2_4 O 0.3263(3) 0.9036(2) 1.000000
C1_4 C 0.3465(4) 0.8465(4) 1.000000
C2_4 C 0.2964(4) 0.7964(4) 1.000000
C3_4 C 0.3127(6) 0.7336(5) 1.000000
H1_4 H 0.355385 0.722006 1.000000
O3_3 O 0.4036(2) 0.8263(3) 1.000000
C4_4 C 0.2336(5) 0.8127(6) 1.000000
H2_4 H 0.222006 0.855385 1.000000
O4_4 O 0.0964(2) 0.6737(3) 1.000000
C5_4 C 0.1535(4) 0.6535(4) 1.000000
C6_4 C 0.2036(4) 0.7036(4) 1.000000
C7_4 C 0.2664(5) 0.6873(6) 1.000000
H3_4 H 0.277994 0.644615 1.000000
O5_4 O 0.1737(3) 0.5964(2) 1.000000
C8_4 C 0.1873(6) 0.7664(5) 1.000000
H4_4 H 0.144615 0.777994 1.000000
O6_2 O 0.44085(17) 0.94085(17) 0.94085(17)
Tm4_5 Tm 0.62723(3) 1.000000 1.000000
Tm12_4 Tm -0.000000 0.62723(3) 1.000000
O17_2 O 0.55915(17) 0.94085(17) 0.94085(17)
O25_3 O 0.5964(2) 0.8263(3) 1.000000
O27_4 O 0.3263(3) 1.000000 0.9036(2)
Tm11_5 Tm 1.000000 0.37277(3) 0.000000
Tm11_6 Tm 1.000000 0.37277(3) 1.000000
Tm12_5 Tm 1.000000 0.62723(3) 0.000000
Tm12_6 Tm 1.000000 0.62723(3) 1.000000
O2_5 O 0.6737(3) 0.0964(2) 0.000000
C1_5 C 0.6535(4) 0.1535(4) 0.000000
C2_5 C 0.7036(4) 0.2036(4) 0.000000
C3_5 C 0.6873(6) 0.2664(5) 0.000000
H1_5 H 0.644615 0.277994 0.000000
C4_5 C 0.7664(5) 0.1873(6) 0.000000
H2_5 H 0.777994 0.144615 0.000000
O4_5 O 0.9036(2) 0.3263(3) 0.000000
C5_5 C 0.8465(4) 0.3465(4) 0.000000
C6_5 C 0.7964(4) 0.2964(4) 0.000000
C7_5 C 0.7336(5) 0.3127(6) 0.000000
H3_5 H 0.722006 0.355385 0.000000
O5_5 O 0.8263(3) 0.4036(2) 0.000000
C8_5 C 0.8127(6) 0.2336(5) 0.000000
H4_5 H 0.855385 0.222006 0.000000
O26_5 O 0.6737(3) 0.000000 0.0964(2)
O2_6 O 0.6737(3) 0.0964(2) 1.000000
C1_6 C 0.6535(4) 0.1535(4) 1.000000
C2_6 C 0.7036(4) 0.2036(4) 1.000000
C3_6 C 0.6873(6) 0.2664(5) 1.000000
H1_6 H 0.644615 0.277994 1.000000
C4_6 C 0.7664(5) 0.1873(6) 1.000000
H2_6 H 0.777994 0.144615 1.000000
O4_6 O 0.9036(2) 0.3263(3) 1.000000
C5_6 C 0.8465(4) 0.3465(4) 1.000000
C6_6 C 0.7964(4) 0.2964(4) 1.000000
C7_6 C 0.7336(5) 0.3127(6) 1.000000
H3_6 H 0.722006 0.355385 1.000000
O5_6 O 0.8263(3) 0.4036(2) 1.000000
C8_6 C 0.8127(6) 0.2336(5) 1.000000
H4_6 H 0.855385 0.222006 1.000000
O27_5 O 0.6737(3) -0.000000 0.9036(2)
O7_5 O 0.6737(3) 0.9036(2) 0.000000
C9_5 C 0.6535(4) 0.8465(4) 0.000000
C10_5 C 0.7036(4) 0.7964(4) 0.000000
C11_5 C 0.6873(6) 0.7336(5) 0.000000
H5_5 H 0.644615 0.722006 0.000000
C12_5 C 0.7664(5) 0.8127(6) 0.000000
H6_5 H 0.777994 0.855385 0.000000
O9_5 O 0.9036(2) 0.6737(3) 0.000000
C13_5 C 0.8465(4) 0.6535(4) 0.000000
C14_5 C 0.7964(4) 0.7036(4) 0.000000
C15_5 C 0.7336(5) 0.6873(6) 0.000000
H7_5 H 0.722006 0.644615 0.000000
O10_5 O 0.8263(3) 0.5964(2) 0.000000
C16_5 C 0.8127(6) 0.7664(5) 0.000000
H8_5 H 0.855385 0.777994 0.000000
O26_6 O 0.6737(3) 1.000000 0.0964(2)
O7_6 O 0.6737(3) 0.9036(2) 1.000000
C9_6 C 0.6535(4) 0.8465(4) 1.000000
C10_6 C 0.7036(4) 0.7964(4) 1.000000
C11_6 C 0.6873(6) 0.7336(5) 1.000000
H5_6 H 0.644615 0.722006 1.000000
C12_6 C 0.7664(5) 0.8127(6) 1.000000
H6_6 H 0.777994 0.855385 1.000000
O9_6 O 0.9036(2) 0.6737(3) 1.000000
C13_6 C 0.8465(4) 0.6535(4) 1.000000
C14_6 C 0.7964(4) 0.7036(4) 1.000000
C15_6 C 0.7336(5) 0.6873(6) 1.000000
H7_6 H 0.722006 0.644615 1.000000
O10_6 O 0.8263(3) 0.5964(2) 1.000000
C16_6 C 0.8127(6) 0.7664(5) 1.000000
H8_6 H 0.855385 0.777994 1.000000
O27_6 O 0.6737(3) 1.000000 0.9036(2)
O21_3 O 0.5964(2) -0.000000 0.1737(3)
O22_3 O 0.4036(2) -0.000000 0.1737(3)
O12_3 O 0.4036(2) 0.000000 0.8263(3)
C17_9 C 0.3465(4) 0.000000 0.8465(4)
C18_9 C 0.2964(4) 0.000000 0.7964(4)
C19_9 C 0.2336(5) 0.000000 0.8127(6)
H9_9 H 0.222006 0.000000 0.855385
C20_9 C 0.3127(6) -0.000000 0.7336(5)
H10_9 H 0.355385 0.000000 0.722006
O14_9 O 0.1737(3) -0.000000 0.5964(2)
C21_9 C 0.1535(4) -0.000000 0.6535(4)
C22_9 C 0.2036(4) 0.000000 0.7036(4)
C23_9 C 0.1873(6) 0.000000 0.7664(5)
H11_9 H 0.144615 -0.000000 0.777994
O15_9 O 0.0964(2) 0.000000 0.6737(3)
C24_9 C 0.2664(5) 0.000000 0.6873(6)
H12_9 H 0.277994 0.000000 0.644615
Tm7_9 Tm 0.000000 0.000000 0.62723(3)
O23_3 O 0.5964(2) -0.000000 0.8263(3)
O21_4 O 0.5964(2) 1.000000 0.1737(3)
O22_4 O 0.4036(2) 1.000000 0.1737(3)
O12_4 O 0.4036(2) 1.000000 0.8263(3)
C17_10 C 0.3465(4) 1.000000 0.8465(4)
C18_10 C 0.2964(4) 1.000000 0.7964(4)
C19_10 C 0.2336(5) 1.000000 0.8127(6)
H9_10 H 0.222006 1.000000 0.855385
C20_10 C 0.3127(6) 1.000000 0.7336(5)
H10_10 H 0.355385 1.000000 0.722006
O14_10 O 0.1737(3) 1.000000 0.5964(2)
C21_10 C 0.1535(4) 1.000000 0.6535(4)
C22_10 C 0.2036(4) 1.000000 0.7036(4)
C23_10 C 0.1873(6) 1.000000 0.7664(5)
H11_10 H 0.144615 1.000000 0.777994
O15_10 O 0.0964(2) 1.000000 0.6737(3)
C24_10 C 0.2664(5) 1.000000 0.6873(6)
H12_10 H 0.277994 1.000000 0.644615
Tm7_10 Tm 0.000000 1.000000 0.62723(3)
O23_4 O 0.5964(2) 1.000000 0.8263(3)
Tm7_11 Tm 1.000000 0.000000 0.62723(3)
Tm7_12 Tm 1.000000 1.000000 0.62723(3)
C17_11 C 0.3465(4) 0.000000 0.1535(4)
C18_11 C 0.2964(4) 0.000000 0.2036(4)
C19_11 C 0.2336(5) -0.000000 0.1873(6)
H9_11 H 0.222006 -0.000000 0.144615
C20_11 C 0.3127(6) -0.000000 0.2664(5)
H10_11 H 0.355385 0.000000 0.277994
O14_11 O 0.1737(3) 0.000000 0.4036(2)
C21_11 C 0.1535(4) -0.000000 0.3465(4)
C22_11 C 0.2036(4) 0.000000 0.2964(4)
C23_11 C 0.1873(6) 0.000000 0.2336(5)
H11_11 H 0.144615 0.000000 0.222006
O15_11 O 0.0964(2) 0.000000 0.3263(3)
C24_11 C 0.2664(5) -0.000000 0.3127(6)
H12_11 H 0.277994 0.000000 0.355385
Tm7_13 Tm 0.000000 0.000000 0.37277(3)
C17_12 C 0.3465(4) 1.000000 0.1535(4)
C18_12 C 0.2964(4) 1.000000 0.2036(4)
C19_12 C 0.2336(5) 1.000000 0.1873(6)
H9_12 H 0.222006 1.000000 0.144615
C20_12 C 0.3127(6) 1.000000 0.2664(5)
H10_12 H 0.355385 1.000000 0.277994
O14_12 O 0.1737(3) 1.000000 0.4036(2)
C21_12 C 0.1535(4) 1.000000 0.3465(4)
C22_12 C 0.2036(4) 1.000000 0.2964(4)
C23_12 C 0.1873(6) 1.000000 0.2336(5)
H11_12 H 0.144615 1.000000 0.222006
O15_12 O 0.0964(2) 1.000000 0.3263(3)
C24_12 C 0.2664(5) 1.000000 0.3127(6)
H12_12 H 0.277994 1.000000 0.355385
Tm7_14 Tm 0.000000 1.000000 0.37277(3)
Tm7_15 Tm 1.000000 0.000000 0.37277(3)
Tm7_16 Tm 1.000000 1.000000 0.37277(3)
C17_13 C 0.6535(4) 0.000000 0.8465(4)
C18_13 C 0.7036(4) 0.000000 0.7964(4)
C19_13 C 0.7664(5) 0.000000 0.8127(6)
H9_13 H 0.777994 0.000000 0.855385
C20_13 C 0.6873(6) -0.000000 0.7336(5)
H10_13 H 0.644615 0.000000 0.722006
O14_13 O 0.8263(3) -0.000000 0.5964(2)
C21_13 C 0.8465(4) -0.000000 0.6535(4)
C22_13 C 0.7964(4) 0.000000 0.7036(4)
C23_13 C 0.8127(6) 0.000000 0.7664(5)
H11_13 H 0.855385 -0.000000 0.777994
O15_13 O 0.9036(2) 0.000000 0.6737(3)
C24_13 C 0.7336(5) 0.000000 0.6873(6)
H12_13 H 0.722006 0.000000 0.644615
C17_14 C 0.6535(4) 1.000000 0.8465(4)
C18_14 C 0.7036(4) 1.000000 0.7964(4)
C19_14 C 0.7664(5) 1.000000 0.8127(6)
H9_14 H 0.777994 1.000000 0.855385
C20_14 C 0.6873(6) 1.000000 0.7336(5)
H10_14 H 0.644615 1.000000 0.722006
O14_14 O 0.8263(3) 1.000000 0.5964(2)
C21_14 C 0.8465(4) 1.000000 0.6535(4)
C22_14 C 0.7964(4) 1.000000 0.7036(4)
C23_14 C 0.8127(6) 1.000000 0.7664(5)
H11_14 H 0.855385 1.000000 0.777994
O15_14 O 0.9036(2) 1.000000 0.6737(3)
C24_14 C 0.7336(5) 1.000000 0.6873(6)
H12_14 H 0.722006 1.000000 0.644615
C17_15 C 0.6535(4) 0.000000 0.1535(4)
C18_15 C 0.7036(4) 0.000000 0.2036(4)
C19_15 C 0.7664(5) -0.000000 0.1873(6)
H9_15 H 0.777994 -0.000000 0.144615
C20_15 C 0.6873(6) -0.000000 0.2664(5)
H10_15 H 0.644615 0.000000 0.277994
O14_15 O 0.8263(3) 0.000000 0.4036(2)
C21_15 C 0.8465(4) -0.000000 0.3465(4)
C22_15 C 0.7964(4) 0.000000 0.2964(4)
C23_15 C 0.8127(6) 0.000000 0.2336(5)
H11_15 H 0.855385 0.000000 0.222006
O15_15 O 0.9036(2) 0.000000 0.3263(3)
C24_15 C 0.7336(5) -0.000000 0.3127(6)
H12_15 H 0.722006 0.000000 0.355385
C17_16 C 0.6535(4) 1.000000 0.1535(4)
C18_16 C 0.7036(4) 1.000000 0.2036(4)
C19_16 C 0.7664(5) 1.000000 0.1873(6)
H9_16 H 0.777994 1.000000 0.144615
C20_16 C 0.6873(6) 1.000000 0.2664(5)
H10_16 H 0.644615 1.000000 0.277994
O14_16 O 0.8263(3) 1.000000 0.4036(2)
C21_16 C 0.8465(4) 1.000000 0.3465(4)
C22_16 C 0.7964(4) 1.000000 0.2964(4)
C23_16 C 0.8127(6) 1.000000 0.2336(5)
H11_16 H 0.855385 1.000000 0.222006
O15_16 O 0.9036(2) 1.000000 0.3263(3)
C24_16 C 0.7336(5) 1.000000 0.3127(6)
H12_16 H 0.722006 1.000000 0.355385
O11_3 O 0.05915(17) 0.44085(17) 0.05915(17)
O19_3 O 0.05915(17) 0.55915(17) 0.05915(17)
O21_5 O -0.000000 0.6737(3) 0.0964(2)
O23_5 O -0.000000 0.3263(3) 0.0964(2)
O12_5 O -0.000000 0.3263(3) 0.9036(2)
C17_17 C 0.000000 0.3465(4) 0.8465(4)
C18_17 C -0.000000 0.2964(4) 0.7964(4)
C19_17 C -0.000000 0.3127(6) 0.7336(5)
H9_17 H 0.000000 0.355385 0.722006
O13_5 O -0.000000 0.4036(2) 0.8263(3)
C20_17 C 0.000000 0.2336(5) 0.8127(6)
H10_17 H 0.000000 0.222006 0.855385
O14_17 O -0.000000 0.0964(2) 0.6737(3)
C21_17 C -0.000000 0.1535(4) 0.6535(4)
C22_17 C 0.000000 0.2036(4) 0.7036(4)
C23_17 C -0.000000 0.2664(5) 0.6873(6)
H11_17 H 0.000000 0.277994 0.644615
O15_17 O -0.000000 0.1737(3) 0.5964(2)
C24_17 C 0.000000 0.1873(6) 0.7664(5)
H12_17 H 0.000000 0.144615 0.777994
O16_3 O 0.05915(17) 0.55915(17) 0.94085(17)
O17_3 O 0.05915(17) 0.44085(17) 0.94085(17)
O22_5 O -0.000000 0.6737(3) 0.9036(2)
O1_3 O 0.94085(17) 0.55915(17) 0.05915(17)
O20_3 O 0.94085(17) 0.44085(17) 0.05915(17)
O21_6 O 1.000000 0.6737(3) 0.0964(2)
O23_6 O 1.000000 0.3263(3) 0.0964(2)
O6_3 O 0.94085(17) 0.44085(17) 0.94085(17)
O12_6 O 1.000000 0.3263(3) 0.9036(2)
C17_18 C 1.000000 0.3465(4) 0.8465(4)
C18_18 C 1.000000 0.2964(4) 0.7964(4)
C19_18 C 1.000000 0.3127(6) 0.7336(5)
H9_18 H 1.000000 0.355385 0.722006
O13_6 O 1.000000 0.4036(2) 0.8263(3)
C20_18 C 1.000000 0.2336(5) 0.8127(6)
H10_18 H 1.000000 0.222006 0.855385
O14_18 O 1.000000 0.0964(2) 0.6737(3)
C21_18 C 1.000000 0.1535(4) 0.6535(4)
C22_18 C 1.000000 0.2036(4) 0.7036(4)
C23_18 C 1.000000 0.2664(5) 0.6873(6)
H11_18 H 1.000000 0.277994 0.644615
O15_18 O 1.000000 0.1737(3) 0.5964(2)
C24_18 C 1.000000 0.1873(6) 0.7664(5)
H12_18 H 1.000000 0.144615 0.777994
O18_3 O 0.94085(17) 0.55915(17) 0.94085(17)
O22_6 O 1.000000 0.6737(3) 0.9036(2)
C17_19 C 0.000000 0.6535(4) 0.8465(4)
C18_19 C 0.000000 0.7036(4) 0.7964(4)
C19_19 C -0.000000 0.6873(6) 0.7336(5)
H9_19 H 0.000000 0.644615 0.722006
O13_7 O -0.000000 0.5964(2) 0.8263(3)
C20_19 C -0.000000 0.7664(5) 0.8127(6)
H10_19 H -0.000000 0.777994 0.855385
O14_19 O -0.000000 0.9036(2) 0.6737(3)
C21_19 C 0.000000 0.8465(4) 0.6535(4)
C22_19 C 0.000000 0.7964(4) 0.7036(4)
C23_19 C -0.000000 0.7336(5) 0.6873(6)
H11_19 H 0.000000 0.722006 0.644615
O15_19 O -0.000000 0.8263(3) 0.5964(2)
C24_19 C 0.000000 0.8127(6) 0.7664(5)
H12_19 H -0.000000 0.855385 0.777994
C17_20 C 1.000000 0.6535(4) 0.8465(4)
C18_20 C 1.000000 0.7036(4) 0.7964(4)
C19_20 C 1.000000 0.6873(6) 0.7336(5)
H9_20 H 1.000000 0.644615 0.722006
O13_8 O 1.000000 0.5964(2) 0.8263(3)
C20_20 C 1.000000 0.7664(5) 0.8127(6)
H10_20 H 1.000000 0.777994 0.855385
O14_20 O 1.000000 0.9036(2) 0.6737(3)
C21_20 C 1.000000 0.8465(4) 0.6535(4)
C22_20 C 1.000000 0.7964(4) 0.7036(4)
C23_20 C 1.000000 0.7336(5) 0.6873(6)
H11_20 H 1.000000 0.722006 0.644615
O15_20 O 1.000000 0.8263(3) 0.5964(2)
C24_20 C 1.000000 0.8127(6) 0.7664(5)
H12_20 H 1.000000 0.855385 0.777994
C17_21 C 0.000000 0.3465(4) 0.1535(4)
C18_21 C 0.000000 0.2964(4) 0.2036(4)
C19_21 C -0.000000 0.3127(6) 0.2664(5)
H9_21 H 0.000000 0.355385 0.277994
O13_9 O 0.000000 0.4036(2) 0.1737(3)
C20_21 C -0.000000 0.2336(5) 0.1873(6)
H10_21 H -0.000000 0.222006 0.144615
O14_21 O -0.000000 0.0964(2) 0.3263(3)
C21_21 C -0.000000 0.1535(4) 0.3465(4)
C22_21 C 0.000000 0.2036(4) 0.2964(4)
C23_21 C -0.000000 0.2664(5) 0.3127(6)
H11_21 H -0.000000 0.277994 0.355385
O15_21 O -0.000000 0.1737(3) 0.4036(2)
C24_21 C -0.000000 0.1873(6) 0.2336(5)
H12_21 H -0.000000 0.144615 0.222006
C17_22 C 1.000000 0.3465(4) 0.1535(4)
C18_22 C 1.000000 0.2964(4) 0.2036(4)
C19_22 C 1.000000 0.3127(6) 0.2664(5)
H9_22 H 1.000000 0.355385 0.277994
O13_10 O 1.000000 0.4036(2) 0.1737(3)
C20_22 C 1.000000 0.2336(5) 0.1873(6)
H10_22 H 1.000000 0.222006 0.144615
O14_22 O 1.000000 0.0964(2) 0.3263(3)
C21_22 C 1.000000 0.1535(4) 0.3465(4)
C22_22 C 1.000000 0.2036(4) 0.2964(4)
C23_22 C 1.000000 0.2664(5) 0.3127(6)
H11_22 H 1.000000 0.277994 0.355385
O15_22 O 1.000000 0.1737(3) 0.4036(2)
C24_22 C 1.000000 0.1873(6) 0.2336(5)
H12_22 H 1.000000 0.144615 0.222006
C17_23 C -0.000000 0.6535(4) 0.1535(4)
C18_23 C 0.000000 0.7036(4) 0.2036(4)
C19_23 C -0.000000 0.6873(6) 0.2664(5)
H9_23 H -0.000000 0.644615 0.277994
O13_11 O -0.000000 0.5964(2) 0.1737(3)
C20_23 C 0.000000 0.7664(5) 0.1873(6)
H10_23 H 0.000000 0.777994 0.144615
O14_23 O -0.000000 0.9036(2) 0.3263(3)
C21_23 C 0.000000 0.8465(4) 0.3465(4)
C22_23 C -0.000000 0.7964(4) 0.2964(4)
C23_23 C -0.000000 0.7336(5) 0.3127(6)
H11_23 H 0.000000 0.722006 0.355385
O15_23 O 0.000000 0.8263(3) 0.4036(2)
C24_23 C 0.000000 0.8127(6) 0.2336(5)
H12_23 H 0.000000 0.855385 0.222006
C17_24 C 1.000000 0.6535(4) 0.1535(4)
C18_24 C 1.000000 0.7036(4) 0.2036(4)
C19_24 C 1.000000 0.6873(6) 0.2664(5)
H9_24 H 1.000000 0.644615 0.277994
O13_12 O 1.000000 0.5964(2) 0.1737(3)
C20_24 C 1.000000 0.7664(5) 0.1873(6)
H10_24 H 1.000000 0.777994 0.144615
O14_24 O 1.000000 0.9036(2) 0.3263(3)
C21_24 C 1.000000 0.8465(4) 0.3465(4)
C22_24 C 1.000000 0.7964(4) 0.2964(4)
C23_24 C 1.000000 0.7336(5) 0.3127(6)
H11_24 H 1.000000 0.722006 0.355385
O15_24 O 1.000000 0.8263(3) 0.4036(2)
C24_24 C 1.000000 0.8127(6) 0.2336(5)
H12_24 H 1.000000 0.855385 0.222006
O16_4 O 0.05915(17) 0.05915(17) 0.44085(17)
O19_4 O 0.05915(17) 0.05915(17) 0.55915(17)
O11_4 O 0.05915(17) 0.94085(17) 0.55915(17)
O17_4 O 0.05915(17) 0.94085(17) 0.44085(17)
O1_4 O 0.94085(17) 0.05915(17) 0.55915(17)
O18_4 O 0.94085(17) 0.05915(17) 0.44085(17)
O6_4 O 0.94085(17) 0.94085(17) 0.44085(17)
O20_4 O 0.94085(17) 0.94085(17) 0.55915(17)
loop_
_geom_bond_atom_site_label_1
_geom_bond_atom_site_label_2
_geom_bond_site_symmetry_1
_geom_bond_site_symmetry_2
Tm1 O1 1_555 1_555
O1 Tm3 1_555 1_555
O2 Tm1 1_555 1_555
C1 O2 1_555 1_555
C2 C1 1_555 1_555
C3 C2 1_555 1_555
H1 C3 1_555 1_555
O3 C1 1_555 1_555
C4 C2 1_555 1_555
H2 C4 1_555 1_555
O4 C5 1_555 1_555
C5 C6 1_555 1_555
C6 C7 1_555 1_555
C7 C3 1_555 1_555
H3 C7 1_555 1_555
O5 C5 1_555 1_555
C8 C4 1_555 1_555
H4 C8 1_555 1_555
O6 Tm1 1_555 1_555
O7 Tm1 1_555 1_555
C9 O7 1_555 1_555
C10 C9 1_555 1_555
C11 C10 1_555 1_555
H5 C11 1_555 1_555
O8 C9 1_555 1_555
C12 C10 1_555 1_555
H6 C12 1_555 1_555
O9 C13 1_555 1_555
C13 C14 1_555 1_555
C14 C15 1_555 1_555
C15 C11 1_555 1_555
H7 C15 1_555 1_555
O10 C13 1_555 1_555
C16 C12 1_555 1_555
H8 C16 1_555 1_555
Tm2 O3 1_555 1_555
O11 Tm2 1_555 1_555
O12 Tm2 1_555 1_555
C17 O12 1_555 1_555
C18 C17 1_555 1_555
C19 C18 1_555 1_555
H9 C19 1_555 1_555
O13 C17 1_555 1_555
C20 C18 1_555 1_555
H10 C20 1_555 1_555
O14 C21 1_555 1_555
C21 C22 1_555 1_555
C22 C23 1_555 1_555
C23 C19 1_555 1_555
H11 C23 1_555 1_555
O15 C21 1_555 1_555
C24 C20 1_555 1_555
H12 C24 1_555 1_555
Tm3 O8 1_555 1_555
O16 Tm3 1_555 1_555
Tm4 O11 1_555 1_555
Tm5 O6 1_555 1_555
Tm6 O1 1_555 1_555
Tm7 O15 1_555 1_555
Tm8 O14 1_555 1_555
Tm10 O5 1_555 1_555
Tm10_2 O10 1_555 1_555
Tm11 O9 1_555 1_555
Tm12 O4 1_555 1_555
O17 Tm2 1_555 1_555
O18 Tm1 1_555 1_555
O19 Tm3 1_555 1_555
O20 Tm1 1_555 1_555
O21 Tm3 1_555 1_555
O22 Tm3 1_555 1_555
O23 Tm2 1_555 1_555
O24 Tm3 1_555 1_555
O25 Tm2 1_555 1_555
O26 Tm1 1_555 1_555
O27 Tm1 1_555 1_555
C6 C8 1_555 1_555
O6 Tm2 1_555 1_555
C14 C16 1_555 1_555
Tm2 O20 1_555 1_555
O11 Tm6 1_555 1_555
O13 Tm5 1_555 1_555
C22 C24 1_555 1_555
Tm3 O18 1_555 1_555
O16 Tm4 1_555 1_555
O16 Tm5 1_555 1_555
Tm4 O17 1_555 1_555
Tm4 O19 1_555 1_555
Tm5 O17 1_555 1_555
Tm5 O18 1_555 1_555
Tm6 O19 1_555 1_555
Tm6 O20 1_555 1_555
O2_2 Tm4 1_555 1_555
C1_2 O2_2 1_555 1_555
C2_2 C1_2 1_555 1_555
C3_2 C2_2 1_555 1_555
H1_2 C3_2 1_555 1_555
O24 C1_2 1_555 1_555
C4_2 C2_2 1_555 1_555
H2_2 C4_2 1_555 1_555
O4_2 C5_2 1_555 1_555
C5_2 C6_2 1_555 1_555
C6_2 C7_2 1_555 1_555
C7_2 C3_2 1_555 1_555
H3_2 C7_2 1_555 1_555
O5_2 C5_2 1_555 1_555
C8_2 C4_2 1_555 1_555
H4_2 C8_2 1_555 1_555
O7_2 Tm4 1_555 1_555
C9_2 O7_2 1_555 1_555
C10_2 C9_2 1_555 1_555
C11_2 C10_2 1_555 1_555
H5_2 C11_2 1_555 1_555
O25 C9_2 1_555 1_555
C12_2 C10_2 1_555 1_555
H6_2 C12_2 1_555 1_555
O9_2 C13_2 1_555 1_555
C13_2 C14_2 1_555 1_555
C14_2 C15_2 1_555 1_555
C15_2 C11_2 1_555 1_555
H7_2 C15_2 1_555 1_555
O10_2 C13_2 1_555 1_555
C16_2 C12_2 1_555 1_555
H8_2 C16_2 1_555 1_555
C17_2 O22 1_555 1_555
C18_2 C17_2 1_555 1_555
C19_2 C18_2 1_555 1_555
H9_2 C19_2 1_555 1_555
O13_2 C17_2 1_555 1_555
C20_2 C18_2 1_555 1_555
H10_2 C20_2 1_555 1_555
O14_2 C21_2 1_555 1_555
C21_2 C22_2 1_555 1_555
C22_2 C23_2 1_555 1_555
C23_2 C19_2 1_555 1_555
H11_2 C23_2 1_555 1_555
O15_2 C21_2 1_555 1_555
C24_2 C20_2 1_555 1_555
H12_2 C24_2 1_555 1_555
Tm7_3 O15_2 1_555 1_555
Tm8_2 O14_2 1_555 1_555
Tm9_2 O5_2 1_555 1_555
Tm9 O10_2 1_555 1_555
Tm12_2 O9_2 1_555 1_555
Tm11_2 O4_2 1_555 1_555
O26_2 Tm4 1_555 1_555
O27_2 Tm4 1_555 1_555
C6_2 C8_2 1_555 1_555
C14_2 C16_2 1_555 1_555
O13_2 Tm5 1_555 1_555
C22_2 C24_2 1_555 1_555
C17_3 O23 1_555 1_555
C18_3 C17_3 1_555 1_555
C19_3 C18_3 1_555 1_555
H9_3 C19_3 1_555 1_555
O13_3 C17_3 1_555 1_555
C20_3 C18_3 1_555 1_555
H10_3 C20_3 1_555 1_555
O14_3 C21_3 1_555 1_555
C21_3 C22_3 1_555 1_555
C22_3 C23_3 1_555 1_555
C23_3 C19_3 1_555 1_555
H11_3 C23_3 1_555 1_555
O15_3 C21_3 1_555 1_555
C24_3 C20_3 1_555 1_555
H12_3 C24_3 1_555 1_555
Tm7_2 O15_3 1_555 1_555
Tm8_3 O14_3 1_555 1_555
O13_3 Tm6 1_555 1_555
C22_3 C24_3 1_555 1_555
C17_4 O21 1_555 1_555
C18_4 C17_4 1_555 1_555
C19_4 C18_4 1_555 1_555
H9_4 C19_4 1_555 1_555
O13_4 C17_4 1_555 1_555
C20_4 C18_4 1_555 1_555
H10_4 C20_4 1_555 1_555
O14_4 C21_4 1_555 1_555
C21_4 C22_4 1_555 1_555
C22_4 C23_4 1_555 1_555
C23_4 C19_4 1_555 1_555
H11_4 C23_4 1_555 1_555
O15_4 C21_4 1_555 1_555
C24_4 C20_4 1_555 1_555
H12_4 C24_4 1_555 1_555
Tm7_4 O15_4 1_555 1_555
Tm8_4 O14_4 1_555 1_555
O13_4 Tm6 1_555 1_555
C22_4 C24_4 1_555 1_555
O12_2 Tm5 1_555 1_555
C17_5 O12_2 1_555 1_555
C18_5 C17_5 1_555 1_555
C19_5 C18_5 1_555 1_555
H9_5 C19_5 1_555 1_555
O27 C17_5 1_555 1_555
C20_5 C18_5 1_555 1_555
H10_5 C20_5 1_555 1_555
O14_5 C21_5 1_555 1_555
C21_5 C22_5 1_555 1_555
C22_5 C23_5 1_555 1_555
C23_5 C19_5 1_555 1_555
H11_5 C23_5 1_555 1_555
O15_5 C21_5 1_555 1_555
C24_5 C20_5 1_555 1_555
H12_5 C24_5 1_555 1_555
Tm7_5 O15_5 1_555 1_555
Tm8_5 O14_5 1_555 1_555
O21_2 Tm6 1_555 1_555
O22_2 Tm6 1_555 1_555
O23_2 Tm5 1_555 1_555
C22_5 C24_5 1_555 1_555
C17_6 O22_2 1_555 1_555
C18_6 C17_6 1_555 1_555
C19_6 C18_6 1_555 1_555
H9_6 C19_6 1_555 1_555
O26 C17_6 1_555 1_555
C20_6 C18_6 1_555 1_555
H10_6 C20_6 1_555 1_555
O14_6 C21_6 1_555 1_555
C21_6 C22_6 1_555 1_555
C22_6 C23_6 1_555 1_555
C23_6 C19_6 1_555 1_555
H11_6 C23_6 1_555 1_555
O15_6 C21_6 1_555 1_555
C24_6 C20_6 1_555 1_555
H12_6 C24_6 1_555 1_555
Tm7_7 O15_6 1_555 1_555
Tm8_6 O14_6 1_555 1_555
C22_6 C24_6 1_555 1_555
C17_7 O23_2 1_555 1_555
C18_7 C17_7 1_555 1_555
C19_7 C18_7 1_555 1_555
H9_7 C19_7 1_555 1_555
O27_2 C17_7 1_555 1_555
C20_7 C18_7 1_555 1_555
H10_7 C20_7 1_555 1_555
O14_7 C21_7 1_555 1_555
C21_7 C22_7 1_555 1_555
C22_7 C23_7 1_555 1_555
C23_7 C19_7 1_555 1_555
H11_7 C23_7 1_555 1_555
O15_7 C21_7 1_555 1_555
C24_7 C20_7 1_555 1_555
H12_7 C24_7 1_555 1_555
Tm7_6 O15_7 1_555 1_555
Tm8_7 O14_7 1_555 1_555
C22_7 C24_7 1_555 1_555
C17_8 O21_2 1_555 1_555
C18_8 C17_8 1_555 1_555
C19_8 C18_8 1_555 1_555
H9_8 C19_8 1_555 1_555
O26_2 C17_8 1_555 1_555
C20_8 C18_8 1_555 1_555
H10_8 C20_8 1_555 1_555
O14_8 C21_8 1_555 1_555
C21_8 C22_8 1_555 1_555
C22_8 C23_8 1_555 1_555
C23_8 C19_8 1_555 1_555
H11_8 C23_8 1_555 1_555
O15_8 C21_8 1_555 1_555
C24_8 C20_8 1_555 1_555
H12_8 C24_8 1_555 1_555
Tm7_8 O15_8 1_555 1_555
Tm8_8 O14_8 1_555 1_555
C22_8 C24_8 1_555 1_555
Tm1_2 O1_2 1_555 1_555
O1_2 Tm7 1_555 1_555
O7_3 Tm1_2 1_555 1_555
C9_3 O7_3 1_555 1_555
C10_3 C9_3 1_555 1_555
C11_3 C10_3 1_555 1_555
H5_3 C11_3 1_555 1_555
O8_2 C9_3 1_555 1_555
C12_3 C10_3 1_555 1_555
H6_3 C12_3 1_555 1_555
O9_3 C13_3 1_555 1_555
C13_3 C14_3 1_555 1_555
C14_3 C15_3 1_555 1_555
C15_3 C11_3 1_555 1_555
H7_3 C15_3 1_555 1_555
O10_3 C13_3 1_555 1_555
C16_3 C12_3 1_555 1_555
H8_3 C16_3 1_555 1_555
Tm7 O8_2 1_555 1_555
Tm8 O1_2 1_555 1_555
Tm8_5 O10_3 1_555 1_555
Tm11_3 O9_3 1_555 1_555
O19_2 Tm7 1_555 1_555
O24_2 Tm7 1_555 1_555
O26_3 Tm1_2 1_555 1_555
C14_3 C16_3 1_555 1_555
Tm4_2 O19_2 1_555 1_555
Tm8 O19_2 1_555 1_555
O7_4 Tm1_3 1_555 1_555
C9_4 O7_4 1_555 1_555
C10_4 C9_4 1_555 1_555
C11_4 C10_4 1_555 1_555
H5_4 C11_4 1_555 1_555
O8_3 C9_4 1_555 1_555
C12_4 C10_4 1_555 1_555
H6_4 C12_4 1_555 1_555
O9_4 C13_4 1_555 1_555
C13_4 C14_4 1_555 1_555
C14_4 C15_4 1_555 1_555
C15_4 C11_4 1_555 1_555
H7_4 C15_4 1_555 1_555
O10_4 C13_4 1_555 1_555
C16_4 C12_4 1_555 1_555
H8_4 C16_4 1_555 1_555
Tm7_2 O8_3 1_555 1_555
O16_2 Tm7_2 1_555 1_555
Tm8_6 O10_4 1_555 1_555
Tm11_4 O9_4 1_555 1_555
O18_2 Tm1_3 1_555 1_555
O24_3 Tm7_2 1_555 1_555
O27_3 Tm1_3 1_555 1_555
C14_4 C16_4 1_555 1_555
Tm7_2 O18_2 1_555 1_555
O16_2 Tm4_3 1_555 1_555
O16_2 Tm8_3 1_555 1_555
Tm8_3 O18_2 1_555 1_555
O2_3 Tm1_4 1_555 1_555
C1_3 O2_3 1_555 1_555
C2_3 C1_3 1_555 1_555
C3_3 C2_3 1_555 1_555
H1_3 C3_3 1_555 1_555
O3_2 C1_3 1_555 1_555
C4_3 C2_3 1_555 1_555
H2_3 C4_3 1_555 1_555
O4_3 C5_3 1_555 1_555
C5_3 C6_3 1_555 1_555
C6_3 C7_3 1_555 1_555
C7_3 C3_3 1_555 1_555
H3_3 C7_3 1_555 1_555
O5_3 C5_3 1_555 1_555
C8_3 C4_3 1_555 1_555
H4_3 C8_3 1_555 1_555
Tm7_3 O3_2 1_555 1_555
O11_2 Tm7_3 1_555 1_555
Tm4_4 O11_2 1_555 1_555
Tm8_5 O5_3 1_555 1_555
Tm12_3 O4_3 1_555 1_555
O20_2 Tm1_4 1_555 1_555
O25_2 Tm7_3 1_555 1_555
O26_4 Tm1_4 1_555 1_555
C6_3 C8_3 1_555 1_555
Tm7_3 O20_2 1_555 1_555
O11_2 Tm8_2 1_555 1_555
Tm8_2 O20_2 1_555 1_555
O2_4 Tm1_5 1_555 1_555
C1_4 O2_4 1_555 1_555
C2_4 C1_4 1_555 1_555
C3_4 C2_4 1_555 1_555
H1_4 C3_4 1_555 1_555
O3_3 C1_4 1_555 1_555
C4_4 C2_4 1_555 1_555
H2_4 C4_4 1_555 1_555
O4_4 C5_4 1_555 1_555
C5_4 C6_4 1_555 1_555
C6_4 C7_4 1_555 1_555
C7_4 C3_4 1_555 1_555
H3_4 C7_4 1_555 1_555
O5_4 C5_4 1_555 1_555
C8_4 C4_4 1_555 1_555
H4_4 C8_4 1_555 1_555
O6_2 Tm1_5 1_555 1_555
Tm7_4 O3_3 1_555 1_555
Tm8_4 O6_2 1_555 1_555
Tm8_6 O5_4 1_555 1_555
Tm12_4 O4_4 1_555 1_555
O17_2 Tm7_4 1_555 1_555
O25_3 Tm7_4 1_555 1_555
O27_4 Tm1_5 1_555 1_555
C6_4 C8_4 1_555 1_555
O6_2 Tm7_4 1_555 1_555
Tm4_5 O17_2 1_555 1_555
Tm8_4 O17_2 1_555 1_555
O2_5 Tm4_2 1_555 1_555
C1_5 O2_5 1_555 1_555
C2_5 C1_5 1_555 1_555
C3_5 C2_5 1_555 1_555
H1_5 C3_5 1_555 1_555
O24_2 C1_5 1_555 1_555
C4_5 C2_5 1_555 1_555
H2_5 C4_5 1_555 1_555
O4_5 C5_5 1_555 1_555
C5_5 C6_5 1_555 1_555
C6_5 C7_5 1_555 1_555
C7_5 C3_5 1_555 1_555
H3_5 C7_5 1_555 1_555
O5_5 C5_5 1_555 1_555
C8_5 C4_5 1_555 1_555
H4_5 C8_5 1_555 1_555
Tm8_7 O5_5 1_555 1_555
Tm11_5 O4_5 1_555 1_555
O26_5 Tm4_2 1_555 1_555
C6_5 C8_5 1_555 1_555
O2_6 Tm4_3 1_555 1_555
C1_6 O2_6 1_555 1_555
C2_6 C1_6 1_555 1_555
C3_6 C2_6 1_555 1_555
H1_6 C3_6 1_555 1_555
O24_3 C1_6 1_555 1_555
C4_6 C2_6 1_555 1_555
H2_6 C4_6 1_555 1_555
O4_6 C5_6 1_555 1_555
C5_6 C6_6 1_555 1_555
C6_6 C7_6 1_555 1_555
C7_6 C3_6 1_555 1_555
H3_6 C7_6 1_555 1_555
O5_6 C5_6 1_555 1_555
C8_6 C4_6 1_555 1_555
H4_6 C8_6 1_555 1_555
Tm8_8 O5_6 1_555 1_555
Tm11_6 O4_6 1_555 1_555
O27_5 Tm4_3 1_555 1_555
C6_6 C8_6 1_555 1_555
O7_5 Tm4_4 1_555 1_555
C9_5 O7_5 1_555 1_555
C10_5 C9_5 1_555 1_555
C11_5 C10_5 1_555 1_555
H5_5 C11_5 1_555 1_555
O25_2 C9_5 1_555 1_555
C12_5 C10_5 1_555 1_555
H6_5 C12_5 1_555 1_555
O9_5 C13_5 1_555 1_555
C13_5 C14_5 1_555 1_555
C14_5 C15_5 1_555 1_555
C15_5 C11_5 1_555 1_555
H7_5 C15_5 1_555 1_555
O10_5 C13_5 1_555 1_555
C16_5 C12_5 1_555 1_555
H8_5 C16_5 1_555 1_555
Tm8_7 O10_5 1_555 1_555
Tm12_5 O9_5 1_555 1_555
O26_6 Tm4_4 1_555 1_555
C14_5 C16_5 1_555 1_555
O7_6 Tm4_5 1_555 1_555
C9_6 O7_6 1_555 1_555
C10_6 C9_6 1_555 1_555
C11_6 C10_6 1_555 1_555
H5_6 C11_6 1_555 1_555
O25_3 C9_6 1_555 1_555
C12_6 C10_6 1_555 1_555
H6_6 C12_6 1_555 1_555
O9_6 C13_6 1_555 1_555
C13_6 C14_6 1_555 1_555
C14_6 C15_6 1_555 1_555
C15_6 C11_6 1_555 1_555
H7_6 C15_6 1_555 1_555
O10_6 C13_6 1_555 1_555
C16_6 C12_6 1_555 1_555
H8_6 C16_6 1_555 1_555
Tm8_8 O10_6 1_555 1_555
Tm12_6 O9_6 1_555 1_555
O27_6 Tm4_5 1_555 1_555
C14_6 C16_6 1_555 1_555
O21_3 Tm8 1_555 1_555
O22_3 Tm8 1_555 1_555
O12_3 Tm8_3 1_555 1_555
C17_9 O12_3 1_555 1_555
C18_9 C17_9 1_555 1_555
C19_9 C18_9 1_555 1_555
H9_9 C19_9 1_555 1_555
O27_3 C17_9 1_555 1_555
C20_9 C18_9 1_555 1_555
H10_9 C20_9 1_555 1_555
O14_9 C21_9 1_555 1_555
C21_9 C22_9 1_555 1_555
C22_9 C23_9 1_555 1_555
C23_9 C19_9 1_555 1_555
H11_9 C23_9 1_555 1_555
O15_9 C21_9 1_555 1_555
C24_9 C20_9 1_555 1_555
H12_9 C24_9 1_555 1_555
Tm7_9 O15_9 1_555 1_555
Tm10 O14_9 1_555 1_555
O23_3 Tm8_3 1_555 1_555
C22_9 C24_9 1_555 1_555
O21_4 Tm8_2 1_555 1_555
O22_4 Tm8_2 1_555 1_555
O12_4 Tm8_4 1_555 1_555
C17_10 O12_4 1_555 1_555
C18_10 C17_10 1_555 1_555
C19_10 C18_10 1_555 1_555
H9_10 C19_10 1_555 1_555
O27_4 C17_10 1_555 1_555
C20_10 C18_10 1_555 1_555
H10_10 C20_10 1_555 1_555
O14_10 C21_10 1_555 1_555
C21_10 C22_10 1_555 1_555
C22_10 C23_10 1_555 1_555
C23_10 C19_10 1_555 1_555
H11_10 C23_10 1_555 1_555
O15_10 C21_10 1_555 1_555
C24_10 C20_10 1_555 1_555
H12_10 C24_10 1_555 1_555
Tm7_10 O15_10 1_555 1_555
Tm10_2 O14_10 1_555 1_555
O23_4 Tm8_4 1_555 1_555
C22_10 C24_10 1_555 1_555
C17_11 O22_3 1_555 1_555
C18_11 C17_11 1_555 1_555
C19_11 C18_11 1_555 1_555
H9_11 C19_11 1_555 1_555
O26_3 C17_11 1_555 1_555
C20_11 C18_11 1_555 1_555
H10_11 C20_11 1_555 1_555
O14_11 C21_11 1_555 1_555
C21_11 C22_11 1_555 1_555
C22_11 C23_11 1_555 1_555
C23_11 C19_11 1_555 1_555
H11_11 C23_11 1_555 1_555
O15_11 C21_11 1_555 1_555
C24_11 C20_11 1_555 1_555
H12_11 C24_11 1_555 1_555
Tm7_13 O15_11 1_555 1_555
Tm10 O14_11 1_555 1_555
C22_11 C24_11 1_555 1_555
C17_12 O22_4 1_555 1_555
C18_12 C17_12 1_555 1_555
C19_12 C18_12 1_555 1_555
H9_12 C19_12 1_555 1_555
O26_4 C17_12 1_555 1_555
C20_12 C18_12 1_555 1_555
H10_12 C20_12 1_555 1_555
O14_12 C21_12 1_555 1_555
C21_12 C22_12 1_555 1_555
C22_12 C23_12 1_555 1_555
C23_12 C19_12 1_555 1_555
H11_12 C23_12 1_555 1_555
O15_12 C21_12 1_555 1_555
C24_12 C20_12 1_555 1_555
H12_12 C24_12 1_555 1_555
Tm7_14 O15_12 1_555 1_555
Tm10_2 O14_12 1_555 1_555
C22_12 C24_12 1_555 1_555
C17_13 O23_3 1_555 1_555
C18_13 C17_13 1_555 1_555
C19_13 C18_13 1_555 1_555
H9_13 C19_13 1_555 1_555
O27_5 C17_13 1_555 1_555
C20_13 C18_13 1_555 1_555
H10_13 C20_13 1_555 1_555
O14_13 C21_13 1_555 1_555
C21_13 C22_13 1_555 1_555
C22_13 C23_13 1_555 1_555
C23_13 C19_13 1_555 1_555
H11_13 C23_13 1_555 1_555
O15_13 C21_13 1_555 1_555
C24_13 C20_13 1_555 1_555
H12_13 C24_13 1_555 1_555
Tm7_11 O15_13 1_555 1_555
Tm9 O14_13 1_555 1_555
C22_13 C24_13 1_555 1_555
C17_14 O23_4 1_555 1_555
C18_14 C17_14 1_555 1_555
C19_14 C18_14 1_555 1_555
H9_14 C19_14 1_555 1_555
O27_6 C17_14 1_555 1_555
C20_14 C18_14 1_555 1_555
H10_14 C20_14 1_555 1_555
O14_14 C21_14 1_555 1_555
C21_14 C22_14 1_555 1_555
C22_14 C23_14 1_555 1_555
C23_14 C19_14 1_555 1_555
H11_14 C23_14 1_555 1_555
O15_14 C21_14 1_555 1_555
C24_14 C20_14 1_555 1_555
H12_14 C24_14 1_555 1_555
Tm7_12 O15_14 1_555 1_555
Tm9_2 O14_14 1_555 1_555
C22_14 C24_14 1_555 1_555
C17_15 O21_3 1_555 1_555
C18_15 C17_15 1_555 1_555
C19_15 C18_15 1_555 1_555
H9_15 C19_15 1_555 1_555
O26_5 C17_15 1_555 1_555
C20_15 C18_15 1_555 1_555
H10_15 C20_15 1_555 1_555
O14_15 C21_15 1_555 1_555
C21_15 C22_15 1_555 1_555
C22_15 C23_15 1_555 1_555
C23_15 C19_15 1_555 1_555
H11_15 C23_15 1_555 1_555
O15_15 C21_15 1_555 1_555
C24_15 C20_15 1_555 1_555
H12_15 C24_15 1_555 1_555
Tm7_15 O15_15 1_555 1_555
Tm9 O14_15 1_555 1_555
C22_15 C24_15 1_555 1_555
C17_16 O21_4 1_555 1_555
C18_16 C17_16 1_555 1_555
C19_16 C18_16 1_555 1_555
H9_16 C19_16 1_555 1_555
O26_6 C17_16 1_555 1_555
C20_16 C18_16 1_555 1_555
H10_16 C20_16 1_555 1_555
O14_16 C21_16 1_555 1_555
C21_16 C22_16 1_555 1_555
C22_16 C23_16 1_555 1_555
C23_16 C19_16 1_555 1_555
H11_16 C23_16 1_555 1_555
O15_16 C21_16 1_555 1_555
C24_16 C20_16 1_555 1_555
H12_16 C24_16 1_555 1_555
Tm7_16 O15_16 1_555 1_555
Tm9_2 O14_16 1_555 1_555
C22_16 C24_16 1_555 1_555
O11_3 Tm11_3 1_555 1_555
Tm8_5 O11_3 1_555 1_555
O19_3 Tm12_3 1_555 1_555
O21_5 Tm12_3 1_555 1_555
O23_5 Tm11_3 1_555 1_555
O11_3 Tm7_5 1_555 1_555
Tm8_5 O19_3 1_555 1_555
Tm7_5 O19_3 1_555 1_555
O12_5 Tm11_4 1_555 1_555
C17_17 O12_5 1_555 1_555
C18_17 C17_17 1_555 1_555
C19_17 C18_17 1_555 1_555
H9_17 C19_17 1_555 1_555
O13_5 C17_17 1_555 1_555
C20_17 C18_17 1_555 1_555
H10_17 C20_17 1_555 1_555
O14_17 C21_17 1_555 1_555
C21_17 C22_17 1_555 1_555
C22_17 C23_17 1_555 1_555
C23_17 C19_17 1_555 1_555
H11_17 C23_17 1_555 1_555
O15_17 C21_17 1_555 1_555
C24_17 C20_17 1_555 1_555
H12_17 C24_17 1_555 1_555
O16_3 Tm12_4 1_555 1_555
Tm12 O15_17 1_555 1_555
Tm7_9 O14_17 1_555 1_555
O17_3 Tm11_4 1_555 1_555
O22_5 Tm12_4 1_555 1_555
O13_5 Tm7_7 1_555 1_555
C22_17 C24_17 1_555 1_555
O16_3 Tm8_6 1_555 1_555
O16_3 Tm7_7 1_555 1_555
Tm8_6 O17_3 1_555 1_555
Tm7_7 O17_3 1_555 1_555
Tm8_7 O1_3 1_555 1_555
O1_3 Tm12_5 1_555 1_555
Tm7_6 O1_3 1_555 1_555
O20_3 Tm8_7 1_555 1_555
O21_6 Tm12_5 1_555 1_555
O23_6 Tm11_5 1_555 1_555
Tm11_5 O20_3 1_555 1_555
Tm7_6 O20_3 1_555 1_555
O6_3 Tm8_8 1_555 1_555
O12_6 Tm11_6 1_555 1_555
C17_18 O12_6 1_555 1_555
C18_18 C17_18 1_555 1_555
C19_18 C18_18 1_555 1_555
H9_18 C19_18 1_555 1_555
O13_6 C17_18 1_555 1_555
C20_18 C18_18 1_555 1_555
H10_18 C20_18 1_555 1_555
O14_18 C21_18 1_555 1_555
C21_18 C22_18 1_555 1_555
C22_18 C23_18 1_555 1_555
C23_18 C19_18 1_555 1_555
H11_18 C23_18 1_555 1_555
O15_18 C21_18 1_555 1_555
C24_18 C20_18 1_555 1_555
H12_18 C24_18 1_555 1_555
Tm7_8 O6_3 1_555 1_555
Tm12_2 O15_18 1_555 1_555
Tm7_11 O14_18 1_555 1_555
O18_3 Tm8_8 1_555 1_555
O22_6 Tm12_6 1_555 1_555
O6_3 Tm11_6 1_555 1_555
O13_6 Tm7_8 1_555 1_555
C22_18 C24_18 1_555 1_555
Tm12_6 O18_3 1_555 1_555
Tm7_8 O18_3 1_555 1_555
C17_19 O22_5 1_555 1_555
C18_19 C17_19 1_555 1_555
C19_19 C18_19 1_555 1_555
H9_19 C19_19 1_555 1_555
O13_7 C17_19 1_555 1_555
C20_19 C18_19 1_555 1_555
H10_19 C20_19 1_555 1_555
O14_19 C21_19 1_555 1_555
C21_19 C22_19 1_555 1_555
C22_19 C23_19 1_555 1_555
C23_19 C19_19 1_555 1_555
H11_19 C23_19 1_555 1_555
O15_19 C21_19 1_555 1_555
C24_19 C20_19 1_555 1_555
H12_19 C24_19 1_555 1_555
Tm11 O15_19 1_555 1_555
Tm7_10 O14_19 1_555 1_555
O13_7 Tm7_7 1_555 1_555
C22_19 C24_19 1_555 1_555
C17_20 O22_6 1_555 1_555
C18_20 C17_20 1_555 1_555
C19_20 C18_20 1_555 1_555
H9_20 C19_20 1_555 1_555
O13_8 C17_20 1_555 1_555
C20_20 C18_20 1_555 1_555
H10_20 C20_20 1_555 1_555
O14_20 C21_20 1_555 1_555
C21_20 C22_20 1_555 1_555
C22_20 C23_20 1_555 1_555
C23_20 C19_20 1_555 1_555
H11_20 C23_20 1_555 1_555
O15_20 C21_20 1_555 1_555
C24_20 C20_20 1_555 1_555
H12_20 C24_20 1_555 1_555
Tm11_2 O15_20 1_555 1_555
Tm7_12 O14_20 1_555 1_555
O13_8 Tm7_8 1_555 1_555
C22_20 C24_20 1_555 1_555
C17_21 O23_5 1_555 1_555
C18_21 C17_21 1_555 1_555
C19_21 C18_21 1_555 1_555
H9_21 C19_21 1_555 1_555
O13_9 C17_21 1_555 1_555
C20_21 C18_21 1_555 1_555
H10_21 C20_21 1_555 1_555
O14_21 C21_21 1_555 1_555
C21_21 C22_21 1_555 1_555
C22_21 C23_21 1_555 1_555
C23_21 C19_21 1_555 1_555
H11_21 C23_21 1_555 1_555
O15_21 C21_21 1_555 1_555
C24_21 C20_21 1_555 1_555
H12_21 C24_21 1_555 1_555
Tm12 O15_21 1_555 1_555
Tm7_13 O14_21 1_555 1_555
O13_9 Tm7_5 1_555 1_555
C22_21 C24_21 1_555 1_555
C17_22 O23_6 1_555 1_555
C18_22 C17_22 1_555 1_555
C19_22 C18_22 1_555 1_555
H9_22 C19_22 1_555 1_555
O13_10 C17_22 1_555 1_555
C20_22 C18_22 1_555 1_555
H10_22 C20_22 1_555 1_555
O14_22 C21_22 1_555 1_555
C21_22 C22_22 1_555 1_555
C22_22 C23_22 1_555 1_555
C23_22 C19_22 1_555 1_555
H11_22 C23_22 1_555 1_555
O15_22 C21_22 1_555 1_555
C24_22 C20_22 1_555 1_555
H12_22 C24_22 1_555 1_555
Tm12_2 O15_22 1_555 1_555
Tm7_15 O14_22 1_555 1_555
O13_10 Tm7_6 1_555 1_555
C22_22 C24_22 1_555 1_555
C17_23 O21_5 1_555 1_555
C18_23 C17_23 1_555 1_555
C19_23 C18_23 1_555 1_555
H9_23 C19_23 1_555 1_555
O13_11 C17_23 1_555 1_555
C20_23 C18_23 1_555 1_555
H10_23 C20_23 1_555 1_555
O14_23 C21_23 1_555 1_555
C21_23 C22_23 1_555 1_555
C22_23 C23_23 1_555 1_555
C23_23 C19_23 1_555 1_555
H11_23 C23_23 1_555 1_555
O15_23 C21_23 1_555 1_555
C24_23 C20_23 1_555 1_555
H12_23 C24_23 1_555 1_555
Tm11 O15_23 1_555 1_555
Tm7_14 O14_23 1_555 1_555
O13_11 Tm7_5 1_555 1_555
C22_23 C24_23 1_555 1_555
C17_24 O21_6 1_555 1_555
C18_24 C17_24 1_555 1_555
C19_24 C18_24 1_555 1_555
H9_24 C19_24 1_555 1_555
O13_12 C17_24 1_555 1_555
C20_24 C18_24 1_555 1_555
H10_24 C20_24 1_555 1_555
O14_24 C21_24 1_555 1_555
C21_24 C22_24 1_555 1_555
C22_24 C23_24 1_555 1_555
C23_24 C19_24 1_555 1_555
H11_24 C23_24 1_555 1_555
O15_24 C21_24 1_555 1_555
C24_24 C20_24 1_555 1_555
H12_24 C24_24 1_555 1_555
Tm11_2 O15_24 1_555 1_555
Tm7_16 O14_24 1_555 1_555
O13_12 Tm7_6 1_555 1_555
C22_24 C24_24 1_555 1_555
O16_4 Tm12 1_555 1_555
O19_4 Tm12 1_555 1_555
O16_4 Tm10 1_555 1_555
O16_4 Tm7_13 1_555 1_555
Tm10 O19_4 1_555 1_555
Tm7_9 O19_4 1_555 1_555
O11_4 Tm11 1_555 1_555
Tm10_2 O11_4 1_555 1_555
O17_4 Tm11 1_555 1_555
O11_4 Tm7_10 1_555 1_555
Tm10_2 O17_4 1_555 1_555
Tm7_14 O17_4 1_555 1_555
Tm9 O1_4 1_555 1_555
O1_4 Tm12_2 1_555 1_555
Tm7_11 O1_4 1_555 1_555
O18_4 Tm9 1_555 1_555
Tm12_2 O18_4 1_555 1_555
Tm7_15 O18_4 1_555 1_555
O6_4 Tm9_2 1_555 1_555
Tm7_16 O6_4 1_555 1_555
O20_4 Tm9_2 1_555 1_555
O6_4 Tm11_2 1_555 1_555
Tm11_2 O20_4 1_555 1_555
Tm7_12 O20_4 1_555 1_555

#END
