
###############################################################################
#
# This file contains modified crystal structure data generated from the
# MOF subset of the Cambridge Structural Database (CSD) v543 
# hosted by the Cambridge Crystallographic Data Centre (CCDC).
#
# This work is licensed under the Creative Commons
# Attribution-NonCommercial-ShareAlike 4.0 International License.
# To view a copy of this license, visit
# http://creativecommons.org/licenses/by-nc-sa/4.0/
# or send a letter to
# Creative Commons, PO Box 1866, Mountain View, CA 94042, USA.
#
# CIF created using the CSD Python API on 29 September 2022
# The structure has been converted into the P1 space group
# The structure has a 3D framework
# The original CSD entry ETEMIB is in the monoclinic crystal system
# The framework has been calculated to contain at least 10.0% void space
# The void calculation uses a probe of radius 1.32A, grid spacing 0.4
#
###############################################################################

data_ETEMIB
_chemical_formula_moiety         '(C60 H48 Co8 N11 O32)n'
_symmetry_cell_setting           triclinic
_symmetry_space_group_name_H-M   'P 1'
_symmetry_Int_Tables_number      1
_space_group_name_Hall           'P 1'
loop_
_symmetry_equiv_pos_site_id
_symmetry_equiv_pos_as_xyz
1 x,y,z
_cell_length_a                   10.1845(4)
_cell_length_b                   20.8747(8)
_cell_length_c                   10.7070(6)
_cell_angle_alpha                90
_cell_angle_beta                 101.876(5)
_cell_angle_gamma                90
_cell_volume                     2227.57
loop_
_atom_site_label
_atom_site_type_symbol
_atom_site_fract_x
_atom_site_fract_y
_atom_site_fract_z
N5 N 0.0012(2) 0.45640(11) 0.2203(2)
Co6 Co 0.08538(3) 0.55065(2) 0.44022(4)
Co8 Co 0.07706(3) 0.38594(2) 0.36418(4)
C1 C 0.3742(3) 0.49194(18) 0.0290(3)
C2 C 0.4269(3) 0.55221(19) 0.0237(4)
H4 H 0.3773 0.5881 0.0400
C3 C 0.4481(3) 0.43930(18) 0.0054(4)
H5 H 0.4134 0.3978 0.0091
C4 C 0.2349(3) 0.4834(2) 0.0539(3)
H6 H 0.2248 0.4399 0.0847
H7 H 0.2207 0.5136 0.1200
N4 N 0.9894(2) 0.51984(11) 0.2546(2)
N6 N 0.8661(2) 0.50516(13) 0.0645(3)
C20 C 0.9085(3) 0.54749(15) 0.1596(3)
H17 H 0.8832 0.5908 0.1577
C21 C 0.9256(3) 0.44917(15) 0.1064(3)
H18 H 0.9143 0.4105 0.0605
Co7 Co 0.41462(3) 0.05065(2) 0.05978(4)
O2 O 0.10913(17) 0.31866(9) 0.5149(2)
O5 O 0.29205(17) 0.07902(9) 0.8823(2)
O6 O 0.39639(16) 0.15909(9) 0.8050(2)
O7 O 0.09379(16) 0.45603(8) 0.49290(19)
H1 H 0.161(2) 0.4538(13) 0.558(2)
N1 N 0.0106(2) 0.48016(11) 0.7454(2)
N3 N 0.1339(2) 0.49484(13) 0.9355(3)
C5 C 0.0915(3) 0.45251(15) 0.8404(3)
H8 H 0.1168 0.4092 0.8423
C6 C 0.0744(3) 0.55083(15) 0.8936(3)
H9 H 0.0857 0.5895 0.9395
C7 C 0.0326(2) 0.25089(13) 0.6611(3)
C10 C 0.0427(2) 0.13911(13) 0.8031(3)
H11 H 0.0463 0.1017 0.8526
C11 C 0.1602(2) 0.16287(13) 0.7718(3)
C12 C 0.1533(2) 0.21792(13) 0.6986(3)
H12 H 0.2309 0.2332 0.6738
C13 C 0.0295(2) 0.31279(13) 0.5896(3)
C15 C 0.2922(2) 0.13113(13) 0.8233(3)
C16 C 0.6258(3) 0.50806(18) 0.9710(3)
C17 C 0.5731(3) 0.44779(19) 0.9763(4)
H13 H 0.6227 0.4119 0.9600
C18 C 0.5519(3) 0.56070(18) 0.9946(4)
H14 H 0.5866 0.6022 0.9909
C19 C 0.7651(3) 0.5166(2) 0.9461(3)
H15 H 0.7752 0.5601 0.9153
H16 H 0.7793 0.4864 0.8800
O9 O 0.05291(17) 0.64552(9) 0.3869(2)
O11 O 0.31655(17) 0.83280(10) 0.2517(2)
O12 O 0.19461(18) 0.90033(10) 0.1224(2)
O16 O 0.26765(19) 0.54250(12) 0.3718(2)
H20 H 0.327(3) 0.5760(10) 0.378(3)
H21 H 0.315(3) 0.5082(9) 0.385(4)
C23 C 0.0835(2) 0.77362(13) 0.3069(3)
H22 H 0.1654 0.7518 0.3323
C24 C 0.0785(2) 0.82999(13) 0.2377(3)
C29 C 0.2036(3) 0.85604(13) 0.2018(3)
Co10 Co 0.42294(3) 0.88594(2) 0.13582(4)
Co12 Co 0.57706(3) 0.11406(2) 0.86418(4)
O18 O 0.18345(17) 0.33280(10) 0.2483(2)
O20 O 0.30539(18) 0.40033(10) 0.3776(2)
O21 O 0.20795(17) 0.57902(9) 0.6177(2)
O23 O 0.10361(16) 0.65909(9) 0.6950(2)
Co1 Co 0.91462(3) 0.44935(2) 0.55978(4)
O1 O 0.94709(17) 0.35448(9) 0.6131(2)
O3 O 0.68345(17) 0.16720(10) 0.7483(2)
O4 O 0.80539(18) 0.09967(10) 0.8776(2)
O8 O 0.73235(19) 0.45750(12) 0.6282(2)
H2 H 0.673(3) 0.4240(10) 0.622(3)
H3 H 0.685(3) 0.4918(9) 0.615(4)
N2 N 0.9988(2) 0.54360(11) 0.7797(2)
C8 C 0.9165(2) 0.22638(13) 0.6931(3)
H10 H 0.8346 0.2482 0.6677
C9 C 0.9215(2) 0.17001(13) 0.7623(3)
C14 C 0.7964(3) 0.14396(13) 0.7982(3)
Co4 Co 0.92294(3) 0.61406(2) 0.63582(4)
O10 O 0.89087(17) 0.68134(9) 0.4851(2)
O13 O 0.70795(17) 0.92098(9) 0.1177(2)
O14 O 0.60361(16) 0.84091(9) 0.1950(2)
O15 O 0.90621(16) 0.54397(8) 0.50710(19)
H19 H 0.839(2) 0.5462(13) 0.442(2)
C22 C 0.9674(2) 0.74911(13) 0.3389(3)
C25 C 0.9573(2) 0.86089(13) 0.1969(3)
H23 H 0.9537 0.8983 0.1474
C26 C 0.8398(2) 0.83713(13) 0.2282(3)
C27 C 0.8467(2) 0.78208(13) 0.3014(3)
H24 H 0.7691 0.7668 0.3262
C28 C 0.9705(2) 0.68721(13) 0.4104(3)
C30 C 0.7078(2) 0.86887(13) 0.1767(3)
O17 O 0.81655(17) 0.66720(10) 0.7517(2)
O19 O 0.69461(18) 0.59967(10) 0.6224(2)
O22 O 0.79205(17) 0.42098(9) 0.3823(2)
O24 O 0.89639(16) 0.34091(9) 0.3050(2)
Co5 Co 0.58538(3) 0.94935(2) 0.94022(4)
O9_2 O 0.44709(17) 0.14552(9) 0.1131(2)
O10_2 O 0.60913(17) 0.18134(9) 0.0149(2)
H19_2 H 0.661(2) 0.0462(13) 0.058(2)
O16_2 O 0.23235(19) 0.04250(12) 0.1282(2)
H20_2 H 0.173(3) 0.0760(10) 0.122(3)
H21_2 H 0.185(3) 0.0082(9) 0.115(4)
C22_2 C 0.5326(2) 0.24911(13) 0.1611(3)
C23_2 C 0.4165(2) 0.27362(13) 0.1931(3)
H22_2 H 0.3346 0.2518 0.1677
C24_2 C 0.4215(2) 0.32999(13) 0.2623(3)
C25_2 C 0.5427(2) 0.36089(13) 0.3031(3)
H23_2 H 0.5463 0.3983 0.3526
C26_2 C 0.6602(2) 0.33713(13) 0.2718(3)
C27_2 C 0.6533(2) 0.28208(13) 0.1986(3)
H24_2 H 0.7309 0.2668 0.1738
C28_2 C 0.5295(2) 0.18721(13) 0.0896(3)
C29_2 C 0.2964(3) 0.35604(13) 0.2982(3)
C30_2 C 0.7922(2) 0.36887(13) 0.3233(3)
N7 N 0.5106(2) 0.01984(11) 0.2454(2)
N2_2 N 0.5012(2) 0.04360(11) 0.7203(2)
C2_2 C 0.0731(3) 0.05221(19) 0.4763(4)
H4_2 H 0.1227 0.0881 0.4600
H7_2 H 0.2793 0.0136 0.3800
C6_2 C 0.4256(3) 0.05083(15) 0.6064(3)
H9_2 H 0.4143 0.0895 0.5605
O15_2 O 0.59379(16) 0.04397(8) 0.99290(19)
O7_2 O 0.40621(16) 0.95603(8) 0.00710(19)
N8 N 0.4988(2) 0.95640(11) 0.2797(2)
O1_2 O 0.55291(17) 0.85448(9) 0.8869(2)
O2_2 O 0.39087(17) 0.81866(9) 0.9851(2)
H1_2 H 0.339(2) 0.9538(13) 0.942(2)
O8_2 O 0.76765(19) 0.95750(12) 0.8718(2)
H2_2 H 0.827(3) 0.9240(10) 0.878(3)
H3_2 H 0.815(3) 0.9918(9) 0.885(4)
N1_2 N 0.4894(2) 0.98016(11) 0.7546(2)
N3_2 N 0.3661(2) 0.99484(13) 0.5645(3)
C1_2 C 0.1258(3) 0.99194(18) 0.4710(3)
C3_2 C 0.0519(3) 0.93930(18) 0.4946(4)
H5_2 H 0.0866 0.8978 0.4909
C4_2 C 0.2651(3) 0.9834(2) 0.4461(3)
H6_2 H 0.2752 0.9399 0.4153
C5_2 C 0.4085(3) 0.95251(15) 0.6596(3)
H8_2 H 0.3832 0.9092 0.6577
C7_2 C 0.4674(2) 0.75089(13) 0.8389(3)
C8_2 C 0.5835(2) 0.72638(13) 0.8069(3)
H10_2 H 0.6654 0.7482 0.8323
C9_2 C 0.5785(2) 0.67001(13) 0.7377(3)
C10_2 C 0.4573(2) 0.63911(13) 0.6969(3)
H11_2 H 0.4537 0.6017 0.6474
C11_2 C 0.3398(2) 0.66287(13) 0.7282(3)
C12_2 C 0.3467(2) 0.71792(13) 0.8014(3)
H12_2 H 0.2691 0.7332 0.8262
C13_2 C 0.4705(2) 0.81279(13) 0.9104(3)
C14_2 C 0.7036(3) 0.64396(13) 0.7018(3)
C15_2 C 0.2078(2) 0.63113(13) 0.6767(3)
N6_2 N 0.6339(2) 0.00516(13) 0.4355(3)
C16_2 C 0.8742(3) 0.00806(18) 0.5290(3)
C18_2 C 0.9481(3) 0.06070(18) 0.5054(4)
H14_2 H 0.9134 0.1022 0.5091
C19_2 C 0.7349(3) 0.0166(2) 0.5539(3)
H15_2 H 0.7248 0.0601 0.5847
C20_2 C 0.5915(3) 0.04749(15) 0.3404(3)
H17_2 H 0.6168 0.0908 0.3423
C17_2 C 0.9269(3) 0.94779(19) 0.5237(4)
H13_2 H 0.8773 0.9119 0.5400
H16_2 H 0.7207 0.9864 0.6200
C21_2 C 0.5744(3) 0.94917(15) 0.3936(3)
H18_2 H 0.5857 0.9105 0.4395
loop_
_geom_bond_atom_site_label_1
_geom_bond_atom_site_label_2
_geom_bond_site_symmetry_1
_geom_bond_site_symmetry_2
Co8 N5 1_555 1_555
C1 C2 1_555 1_555
C2 H4 1_555 1_555
C3 C1 1_555 1_555
H5 C3 1_555 1_555
C4 C1 1_555 1_555
H6 C4 1_555 1_555
H7 C4 1_555 1_555
C20 N4 1_555 1_555
H17 C20 1_555 1_555
C21 N6 1_555 1_555
H18 C21 1_555 1_555
N6 C20 1_555 1_555
Co8 O2 1_555 1_555
O2 C13 1_555 1_555
O5 C15 1_555 1_555
O6 C15 1_555 1_555
H1 O7 1_555 1_555
C5 N1 1_555 1_555
H8 C5 1_555 1_555
H9 C6 1_555 1_555
H11 C10 1_555 1_555
C11 C10 1_555 1_555
C12 C7 1_555 1_555
H12 C12 1_555 1_555
C13 C7 1_555 1_555
C15 C11 1_555 1_555
C16 C17 1_555 1_555
H13 C17 1_555 1_555
H14 C18 1_555 1_555
C19 C16 1_555 1_555
H15 C19 1_555 1_555
H16 C19 1_555 1_555
Co6 O7 1_555 1_555
O9 Co6 1_555 1_555
O11 C29 1_555 1_555
O12 C29 1_555 1_555
O16 Co6 1_555 1_555
H20 O16 1_555 1_555
H21 O16 1_555 1_555
C23 H22 1_555 1_555
C24 C23 1_555 1_555
C29 C24 1_555 1_555
Co10 O11 1_555 1_555
Co12 O6 1_555 1_555
O18 Co8 1_555 1_555
O20 Co8 1_555 1_555
O21 Co6 1_555 1_555
Co8 O7 1_555 1_555
N3 C5 1_555 1_555
N3 C6 1_555 1_555
C11 C12 1_555 1_555
C16 C18 1_555 1_555
O12 Co10 1_555 1_555
Co1 O1 1_555 1_555
O3 C14 1_555 1_555
O4 C14 1_555 1_555
O8 Co1 1_555 1_555
H2 O8 1_555 1_555
H3 O8 1_555 1_555
C8 H10 1_555 1_555
C9 C8 1_555 1_555
C14 C9 1_555 1_555
Co4 N2 1_555 1_555
O10 Co4 1_555 1_555
O13 C30 1_555 1_555
O14 C30 1_555 1_555
O15 Co1 1_555 1_555
H19 O15 1_555 1_555
H23 C25 1_555 1_555
C26 C25 1_555 1_555
C27 C22 1_555 1_555
H24 C27 1_555 1_555
C30 C26 1_555 1_555
Co10 O14 1_555 1_555
Co12 O3 1_555 1_555
O17 Co4 1_555 1_555
O19 Co4 1_555 1_555
O22 Co1 1_555 1_555
O4 Co12 1_555 1_555
Co4 O15 1_555 1_555
O10 C28 1_555 1_555
C22 C28 1_555 1_555
C26 C27 1_555 1_555
O9_2 Co7 1_555 1_555
O18 C29_2 1_555 1_555
O20 C29_2 1_555 1_555
O22 C30_2 1_555 1_555
O24 C30_2 1_555 1_555
O16_2 Co7 1_555 1_555
H20_2 O16_2 1_555 1_555
H21_2 O16_2 1_555 1_555
C22_2 C23_2 1_555 1_555
C23_2 H22_2 1_555 1_555
C24_2 C23_2 1_555 1_555
C25_2 C24_2 1_555 1_555
H23_2 C25_2 1_555 1_555
C26_2 C25_2 1_555 1_555
C27_2 C22_2 1_555 1_555
H24_2 C27_2 1_555 1_555
C28_2 O9_2 1_555 1_555
C29_2 C24_2 1_555 1_555
C30_2 C26_2 1_555 1_555
N7 Co7 1_555 1_555
O10_2 C28_2 1_555 1_555
C22_2 C28_2 1_555 1_555
C26_2 C27_2 1_555 1_555
C2_2 H4_2 1_555 1_555
C6_2 N2_2 1_555 1_555
H9_2 C6_2 1_555 1_555
Co12 N2_2 1_555 1_555
Co12 O15_2 1_555 1_555
N8 Co10 1_555 1_555
Co10 O7_2 1_555 1_555
Co5 O1_2 1_555 1_555
O1_2 C13_2 1_555 1_555
O2_2 C13_2 1_555 1_555
O17 C14_2 1_555 1_555
O19 C14_2 1_555 1_555
O21 C15_2 1_555 1_555
O23 C15_2 1_555 1_555
O8_2 Co5 1_555 1_555
H2_2 O8_2 1_555 1_555
H3_2 O8_2 1_555 1_555
N1_2 Co5 1_555 1_555
N3_2 C4_2 1_555 1_555
C3_2 C1_2 1_555 1_555
H5_2 C3_2 1_555 1_555
C4_2 C1_2 1_555 1_555
H6_2 C4_2 1_555 1_555
C5_2 N1_2 1_555 1_555
H8_2 C5_2 1_555 1_555
C7_2 C8_2 1_555 1_555
C8_2 H10_2 1_555 1_555
C9_2 C8_2 1_555 1_555
C10_2 C9_2 1_555 1_555
H11_2 C10_2 1_555 1_555
C11_2 C10_2 1_555 1_555
C12_2 C7_2 1_555 1_555
H12_2 C12_2 1_555 1_555
C13_2 C7_2 1_555 1_555
C14_2 C9_2 1_555 1_555
C15_2 C11_2 1_555 1_555
N3_2 C5_2 1_555 1_555
C11_2 C12_2 1_555 1_555
N6_2 C19_2 1_555 1_555
H14_2 C18_2 1_555 1_555
C19_2 C16_2 1_555 1_555
H15_2 C19_2 1_555 1_555
C20_2 N7 1_555 1_555
H17_2 C20_2 1_555 1_555
N6_2 C20_2 1_555 1_555
C16_2 C18_2 1_555 1_555
N8 C21_2 1_555 1_555
H13_2 C17_2 1_555 1_555
H18_2 C21_2 1_555 1_555

#END
