
###############################################################################
#
# This file contains modified crystal structure data generated from the
# MOF subset of the Cambridge Structural Database (CSD) v543 
# hosted by the Cambridge Crystallographic Data Centre (CCDC).
#
# This work is licensed under the Creative Commons
# Attribution-NonCommercial-ShareAlike 4.0 International License.
# To view a copy of this license, visit
# http://creativecommons.org/licenses/by-nc-sa/4.0/
# or send a letter to
# Creative Commons, PO Box 1866, Mountain View, CA 94042, USA.
#
# CIF created using the CSD Python API on 29 September 2022
# The structure has been converted into the P1 space group
# The structure has a 3D framework
# The original CSD entry ETESIG is in the monoclinic crystal system
# The framework has been calculated to contain at least 10.0% void space
# The void calculation uses a probe of radius 1.32A, grid spacing 0.4
#
###############################################################################

data_ETESIG
_chemical_formula_moiety         '(C128 H116 Cd8 N12 O34 S4)n'
_symmetry_cell_setting           triclinic
_symmetry_space_group_name_H-M   'P 1'
_symmetry_Int_Tables_number      1
_space_group_name_Hall           'P 1'
loop_
_symmetry_equiv_pos_site_id
_symmetry_equiv_pos_as_xyz
1 x,y,z
_cell_length_a                   11.166(2)
_cell_length_b                   17.710(4)
_cell_length_c                   19.669(4)
_cell_angle_alpha                90
_cell_angle_beta                 97.07(3)
_cell_angle_gamma                90
_cell_volume                     3859.97
loop_
_atom_site_label
_atom_site_type_symbol
_atom_site_fract_x
_atom_site_fract_y
_atom_site_fract_z
Cd1 Cd 0.39395(5) 0.38763(3) 0.44130(3)
Cd2 Cd 0.43559(5) 0.44073(3) 0.62264(3)
S1 S 0.66895(16) 0.44473(12) 0.51668(10)
O1 O 0.3939(5) 0.3390(3) 0.5506(2)
O2 O 0.4195(5) 0.2472(3) 0.4771(3)
O3 O 0.5430(5) 0.0442(3) 0.8061(3)
O4 O 0.4143(5) 0.1336(4) 0.8335(3)
O5 O 0.2562(5) 0.4130(4) 0.6625(3)
O6 O 0.5947(4) 0.3840(3) 0.4801(3)
O7 O 0.6001(4) 0.4792(3) 0.5708(3)
O8 O 0.7832(4) 0.4163(3) 0.5485(3)
O9 O 0.6871(5) 0.5074(3) 0.4684(3)
N1 N 0.1912(5) 0.3584(4) 0.4207(3)
C1 C 0.4150(6) 0.2698(5) 0.5369(4)
C2 C 0.4333(7) 0.2176(4) 0.5972(4)
C3 C 0.5492(7) 0.2044(4) 0.6303(4)
C4 C 0.6532(7) 0.2367(5) 0.6051(4)
H1 H 0.6435 0.2662 0.5658
C5 C 0.7658(8) 0.2246(6) 0.6382(5)
H2 H 0.8327 0.2448 0.6208
C6 C 0.7815(8) 0.1809(6) 0.6998(5)
H3 H 0.8590 0.1720 0.7216
C7 C 0.6852(8) 0.1520(5) 0.7271(4)
H4 H 0.6979 0.1256 0.7682
C8 C 0.5648(7) 0.1614(5) 0.6940(4)
C9 C 0.4616(7) 0.1338(4) 0.7210(4)
C10 C 0.3461(7) 0.1429(4) 0.6851(4)
C11 C 0.2377(8) 0.1113(6) 0.7067(5)
H5 H 0.2437 0.0834 0.7471
C12 C 0.1284(9) 0.1206(6) 0.6707(5)
H6 H 0.0612 0.0991 0.6867
C13 C 0.1136(9) 0.1625(7) 0.6087(5)
H7 H 0.0378 0.1676 0.5837
C14 C 0.2117(8) 0.1949(5) 0.5866(5)
H8 H 0.2011 0.2246 0.5473
C15 C 0.3314(7) 0.1853(5) 0.6215(4)
C16 C 0.4754(8) 0.1005(5) 0.7933(4)
C17 C 0.1115(8) 0.3797(5) 0.4628(4)
H9 H 0.1372 0.4131 0.4981
C20 C 0.0336(8) 0.2805(6) 0.3642(5)
H11 H 0.0098 0.2457 0.3298
C21 C 0.1516(8) 0.3081(6) 0.3720(5)
H12 H 0.2046 0.2909 0.3425
C30 C 0.1734(9) 0.4563(6) 0.6656(5)
H23 H 0.1885 0.5074 0.6600
N3 N 0.0634(6) 0.4368(5) 0.6764(4)
H24 H 0.0049 0.5447 0.6796
C32 C 0.0297(11) 0.3595(7) 0.6829(8)
H27 H 0.0978 0.3281 0.6773
H28 H 0.0046 0.3506 0.7272
Cd3 Cd 0.39395(5) 0.11237(3) 0.94130(3)
Cd4 Cd 0.60605(5) 0.61237(3) 0.55870(3)
Cd6 Cd 0.56441(5) 0.55927(3) 0.37736(3)
O10 O 0.4570(5) 0.5442(3) 0.6939(3)
O11 O 0.4143(5) 0.3664(4) 0.3335(3)
O12 O 0.3999(4) 0.5208(3) 0.4292(3)
O13 O 0.3129(5) 0.4926(3) 0.5316(3)
N4 N 0.5394(6) 0.3801(4) 0.7155(3)
Cd5 Cd 0.56441(5) 0.94073(3) 0.87736(3)
N2 N 0.5394(6) 0.1199(4) 0.2155(3)
C18 C 0.9928(8) 0.3548(6) 0.4566(5)
H10 H 0.9410 0.3725 0.4865
C19 C 0.9519(8) 0.3043(5) 0.4067(5)
C22 C 0.8234(8) 0.2737(6) 0.4000(6)
H13 H 0.7722 0.3093 0.4203
H14 H 0.7931 0.2687 0.3518
C23 C 0.8169(8) 0.1983(7) 0.4344(5)
H15 H 0.8443 0.2035 0.4829
H16 H 0.8703 0.1630 0.4153
C24 C 0.6871(8) 0.1665(7) 0.4249(5)
H17 H 0.6345 0.2016 0.4448
H18 H 0.6860 0.1192 0.4498
C25 C 0.6485(9) 0.0952(6) 0.2407(5)
H19 H 0.6922 0.0671 0.2123
C26 C 0.7004(8) 0.1093(6) 0.3076(5)
H20 H 0.7761 0.0902 0.3238
C27 C 0.6364(9) 0.1525(6) 0.3492(4)
C28 C 0.5262(9) 0.1804(5) 0.3236(5)
H21 H 0.4819 0.2105 0.3501
C29 C 0.4827(8) 0.1621(5) 0.2568(5)
H22 H 0.4074 0.1811 0.2395
C31 C 0.9704(9) 0.4957(7) 0.6844(6)
H25 H 0.9033 0.4887 0.6496
H26 H 0.9433 0.4916 0.7288
H29 H 0.9645 0.3477 0.6480
Cd7 Cd 0.43559(5) 0.05927(3) 0.12264(3)
N2_2 N 0.4606(6) 0.6199(4) 0.2845(3)
C18_2 C 0.0072(8) 0.8548(6) 0.0434(5)
H10_2 H 0.0590 0.8725 0.0135
C19_2 C 0.0481(8) 0.8043(5) 0.0933(5)
C22_2 C 0.1766(8) 0.7737(6) 0.1000(6)
H13_2 H 0.2278 0.8093 0.0797
H14_2 H 0.2069 0.7687 0.1482
C23_2 C 0.1831(8) 0.6983(7) 0.0656(5)
H15_2 H 0.1557 0.7035 0.0171
H16_2 H 0.1297 0.6630 0.0847
C24_2 C 0.3129(8) 0.6665(7) 0.0751(5)
H17_2 H 0.3655 0.7016 0.0552
H18_2 H 0.3140 0.6192 0.0502
C25_2 C 0.3515(9) 0.5952(6) 0.2593(5)
H19_2 H 0.3078 0.5671 0.2877
C26_2 C 0.2996(8) 0.6093(6) 0.1924(5)
H20_2 H 0.2239 0.5902 0.1762
C27_2 C 0.3636(9) 0.6525(6) 0.1508(4)
C28_2 C 0.4738(9) 0.6804(5) 0.1764(5)
H21_2 H 0.5181 0.7105 0.1499
C29_2 C 0.5173(8) 0.6621(5) 0.2432(5)
H22_2 H 0.5926 0.6811 0.2605
O9_2 O 0.3129(5) 0.0074(3) 0.0316(3)
O12_2 O 0.6001(4) 0.0208(3) 0.0708(3)
H23_2 H 0.8115 0.0074 0.8400
H24_2 H 0.9951 0.0447 0.8204
Cd1_2 Cd 0.60605(5) 0.88763(3) 0.05870(3)
O2_2 O 0.5805(5) 0.7472(3) 0.0229(3)
O6_2 O 0.4053(4) 0.8840(3) 0.0199(3)
N1_2 N 0.8088(5) 0.8584(4) 0.0793(3)
C17_2 C 0.8885(8) 0.8797(5) 0.0372(4)
H9_2 H 0.8628 0.9131 0.0019
C20_2 C 0.9664(8) 0.7805(6) 0.1358(5)
H11_2 H 0.9902 0.7457 0.1702
C21_2 C 0.8484(8) 0.8081(6) 0.1280(5)
H12_2 H 0.7954 0.7909 0.1575
O11_2 O 0.5857(5) 0.8664(4) 0.1665(3)
S1_2 S 0.33105(16) 0.94473(12) 0.98332(10)
O1_2 O 0.6061(5) 0.8390(3) 0.9494(2)
O4_2 O 0.5857(5) 0.6336(4) 0.6665(3)
O5_2 O 0.7438(5) 0.9130(4) 0.8375(3)
O7_2 O 0.3999(4) 0.9792(3) 0.9292(3)
O8_2 O 0.2168(4) 0.9163(3) 0.9515(3)
C1_2 C 0.5850(6) 0.7698(5) 0.9631(4)
C2_2 C 0.5667(7) 0.7176(4) 0.9028(4)
C3_2 C 0.4508(7) 0.7044(4) 0.8697(4)
C4_2 C 0.3468(7) 0.7367(5) 0.8949(4)
H1_2 H 0.3565 0.7662 0.9342
C5_2 C 0.2342(8) 0.7246(6) 0.8618(5)
H2_2 H 0.1673 0.7448 0.8792
C6_2 C 0.2185(8) 0.6809(6) 0.8002(5)
H3_2 H 0.1410 0.6720 0.7784
C7_2 C 0.3148(8) 0.6520(5) 0.7729(4)
H4_2 H 0.3021 0.6256 0.7318
C8_2 C 0.4352(7) 0.6614(5) 0.8060(4)
C9_2 C 0.5384(7) 0.6338(4) 0.7790(4)
C10_2 C 0.6539(7) 0.6429(4) 0.8149(4)
C11_2 C 0.7623(8) 0.6113(6) 0.7933(5)
H5_2 H 0.7563 0.5834 0.7529
C12_2 C 0.8716(9) 0.6206(6) 0.8293(5)
H6_2 H 0.9388 0.5991 0.8133
C13_2 C 0.8864(9) 0.6625(7) 0.8913(5)
H7_2 H 0.9622 0.6676 0.9163
C14_2 C 0.7883(8) 0.6949(5) 0.9134(5)
H8_2 H 0.7989 0.7246 0.9527
C15_2 C 0.6686(7) 0.6853(5) 0.8785(4)
C16_2 C 0.5246(8) 0.6005(5) 0.7067(4)
C30_2 C 0.8266(9) 0.9563(6) 0.8344(5)
N3_2 N 0.9366(6) 0.9368(5) 0.8236(4)
C32_2 C 0.9703(11) 0.8595(7) 0.8171(8)
H27_2 H 0.9022 0.8281 0.8227
H28_2 H 0.9954 0.8506 0.7728
O13_2 O 0.6871(5) 0.9926(3) 0.9684(3)
N4_2 N 0.4606(6) 0.8801(4) 0.7845(3)
C18_3 C 0.0072(8) 0.6452(6) 0.5434(5)
H10_3 H 0.0590 0.6275 0.5135
C19_3 C 0.0481(8) 0.6957(5) 0.5933(5)
C22_3 C 0.1766(8) 0.7263(6) 0.6000(6)
H13_3 H 0.2278 0.6907 0.5797
H14_3 H 0.2069 0.7313 0.6482
C23_3 C 0.1831(8) 0.8017(7) 0.5656(5)
H15_3 H 0.1557 0.7965 0.5171
H16_3 H 0.1297 0.8370 0.5847
C24_3 C 0.3129(8) 0.8335(7) 0.5751(5)
H17_3 H 0.3655 0.7984 0.5552
H18_3 H 0.3140 0.8808 0.5502
C25_3 C 0.3515(9) 0.9048(6) 0.7593(5)
H19_3 H 0.3078 0.9329 0.7877
C26_3 C 0.2996(8) 0.8907(6) 0.6924(5)
H20_3 H 0.2239 0.9098 0.6762
C27_3 C 0.3636(9) 0.8475(6) 0.6508(4)
C28_3 C 0.4738(9) 0.8196(5) 0.6764(5)
H21_3 H 0.5181 0.7895 0.6499
C29_3 C 0.5173(8) 0.8379(5) 0.7432(5)
H22_3 H 0.5926 0.8189 0.7605
C31_2 C 0.0296(9) 0.5043(7) 0.3156(6)
H25_2 H 0.0967 0.5113 0.3504
H26_2 H 0.0567 0.5084 0.2712
H29_2 H 0.0355 0.6523 0.3520
S1_3 S 0.33105(16) 0.55527(12) 0.48332(10)
O1_3 O 0.6061(5) 0.6610(3) 0.4494(2)
O2_3 O 0.5805(5) 0.7528(3) 0.5229(3)
O3_2 O 0.4570(5) 0.9558(3) 0.1939(3)
O5_3 O 0.7438(5) 0.5870(4) 0.3375(3)
O6_3 O 0.4053(4) 0.6160(3) 0.5199(3)
O8_3 O 0.2168(4) 0.5837(3) 0.4515(3)
N1_3 N 0.8088(5) 0.6416(4) 0.5793(3)
C1_3 C 0.5850(6) 0.7302(5) 0.4631(4)
C2_3 C 0.5667(7) 0.7824(4) 0.4028(4)
C3_3 C 0.4508(7) 0.7956(4) 0.3697(4)
C4_3 C 0.3468(7) 0.7633(5) 0.3949(4)
H1_3 H 0.3565 0.7338 0.4342
C5_3 C 0.2342(8) 0.7754(6) 0.3618(5)
H2_3 H 0.1673 0.7552 0.3792
C6_3 C 0.2185(8) 0.8191(6) 0.3002(5)
H3_3 H 0.1410 0.8280 0.2784
C7_3 C 0.3148(8) 0.8480(5) 0.2729(4)
H4_3 H 0.3021 0.8744 0.2318
C8_3 C 0.4352(7) 0.8386(5) 0.3060(4)
C9_3 C 0.5384(7) 0.8662(4) 0.2790(4)
C10_3 C 0.6539(7) 0.8571(4) 0.3149(4)
C11_3 C 0.7623(8) 0.8887(6) 0.2933(5)
H5_3 H 0.7563 0.9166 0.2529
C12_3 C 0.8716(9) 0.8794(6) 0.3293(5)
H6_3 H 0.9388 0.9009 0.3133
C13_3 C 0.8864(9) 0.8375(7) 0.3913(5)
H7_3 H 0.9622 0.8324 0.4163
C14_3 C 0.7883(8) 0.8051(5) 0.4134(5)
H8_3 H 0.7989 0.7754 0.4527
C15_3 C 0.6686(7) 0.8147(5) 0.3785(4)
C16_3 C 0.5246(8) 0.8995(5) 0.2067(4)
C17_3 C 0.8885(8) 0.6203(5) 0.5372(4)
H9_3 H 0.8628 0.5869 0.5019
C20_3 C 0.9664(8) 0.7195(6) 0.6358(5)
H11_3 H 0.9902 0.7543 0.6702
C21_3 C 0.8484(8) 0.6919(6) 0.6280(5)
H12_3 H 0.7954 0.7091 0.6575
C30_3 C 0.8266(9) 0.5437(6) 0.3344(5)
H23_3 H 0.8115 0.4926 0.3400
N3_3 N 0.9366(6) 0.5632(5) 0.3236(4)
H24_3 H 0.9951 0.4553 0.3204
C32_3 C 0.9703(11) 0.6405(7) 0.3171(8)
H27_3 H 0.9022 0.6719 0.3227
H28_3 H 0.9954 0.6494 0.2728
O10_2 O 0.5430(5) 0.4558(3) 0.3061(3)
S1_4 S 0.66895(16) 0.05527(12) 0.01668(10)
O1_4 O 0.3939(5) 0.1610(3) 0.0506(2)
O5_4 O 0.2562(5) 0.0870(4) 0.1625(3)
O8_4 O 0.7832(4) 0.0837(3) 0.0485(3)
C1_4 C 0.4150(6) 0.2302(5) 0.0369(4)
C2_4 C 0.4333(7) 0.2824(4) 0.0972(4)
C3_4 C 0.5492(7) 0.2956(4) 0.1303(4)
C4_4 C 0.6532(7) 0.2633(5) 0.1051(4)
H1_4 H 0.6435 0.2338 0.0658
C5_4 C 0.7658(8) 0.2754(6) 0.1382(5)
H2_4 H 0.8327 0.2552 0.1208
C6_4 C 0.7815(8) 0.3191(6) 0.1998(5)
H3_4 H 0.8590 0.3280 0.2216
C7_4 C 0.6852(8) 0.3480(5) 0.2271(4)
H4_4 H 0.6979 0.3744 0.2682
C8_4 C 0.5648(7) 0.3386(5) 0.1940(4)
C9_4 C 0.4616(7) 0.3662(4) 0.2210(4)
C10_4 C 0.3461(7) 0.3571(4) 0.1851(4)
C11_4 C 0.2377(8) 0.3887(6) 0.2067(5)
H5_4 H 0.2437 0.4166 0.2471
C12_4 C 0.1284(9) 0.3794(6) 0.1707(5)
H6_4 H 0.0612 0.4009 0.1867
C13_4 C 0.1136(9) 0.3375(7) 0.1087(5)
H7_4 H 0.0378 0.3324 0.0837
C14_4 C 0.2117(8) 0.3051(5) 0.0866(5)
H8_4 H 0.2011 0.2754 0.0473
C15_4 C 0.3314(7) 0.3147(5) 0.1215(4)
C16_4 C 0.4754(8) 0.3995(5) 0.2933(4)
C30_4 C 0.1734(9) 0.0437(6) 0.1656(5)
N3_4 N 0.0634(6) 0.0632(5) 0.1764(4)
C32_4 C 0.0297(11) 0.1405(7) 0.1829(8)
H27_4 H 0.0978 0.1719 0.1773
H28_4 H 0.0046 0.1494 0.2272
O2_4 O 0.4195(5) 0.2528(3) 0.9771(3)
O6_4 O 0.5947(4) 0.1160(3) 0.9801(3)
N1_4 N 0.1912(5) 0.1416(4) 0.9207(3)
C17_4 C 0.1115(8) 0.1203(5) 0.9628(4)
H9_4 H 0.1372 0.0869 0.9981
C20_4 C 0.0336(8) 0.2195(6) 0.8642(5)
H11_4 H 0.0098 0.2543 0.8298
C21_4 C 0.1516(8) 0.1919(6) 0.8720(5)
H12_4 H 0.2046 0.2091 0.8425
H23_4 H 0.1885 0.9926 0.1600
H24_4 H 0.0049 0.9553 0.1796
C18_4 C 0.9928(8) 0.1452(6) 0.9566(5)
H10_4 H 0.9410 0.1275 0.9865
C19_4 C 0.9519(8) 0.1957(5) 0.9067(5)
C22_4 C 0.8234(8) 0.2263(6) 0.9000(6)
H13_4 H 0.7722 0.1907 0.9203
H14_4 H 0.7931 0.2313 0.8518
C23_4 C 0.8169(8) 0.3017(7) 0.9344(5)
H15_4 H 0.8443 0.2965 0.9829
H16_4 H 0.8703 0.3370 0.9153
C24_4 C 0.6871(8) 0.3335(7) 0.9249(5)
H17_4 H 0.6345 0.2984 0.9448
H18_4 H 0.6860 0.3808 0.9498
C25_4 C 0.6485(9) 0.4048(6) 0.7407(5)
H19_4 H 0.6922 0.4329 0.7123
C26_4 C 0.7004(8) 0.3907(6) 0.8076(5)
H20_4 H 0.7761 0.4098 0.8238
C27_4 C 0.6364(9) 0.3475(6) 0.8492(4)
C28_4 C 0.5262(9) 0.3196(5) 0.8236(5)
H21_4 H 0.4819 0.2895 0.8501
C29_4 C 0.4827(8) 0.3379(5) 0.7568(5)
H22_4 H 0.4074 0.3189 0.7395
C31_3 C 0.0296(9) 0.9957(7) 0.8156(6)
H25_3 H 0.0967 0.9887 0.8504
H26_3 H 0.0567 0.9916 0.7712
H29_3 H 0.0355 0.8477 0.8520
C31_4 C 0.9704(9) 0.0043(7) 0.1844(6)
H25_4 H 0.9033 0.0113 0.1496
H26_4 H 0.9433 0.0084 0.2288
H29_4 H 0.9645 0.1523 0.1480
loop_
_geom_bond_atom_site_label_1
_geom_bond_atom_site_label_2
_geom_bond_site_symmetry_1
_geom_bond_site_symmetry_2
Cd1 O1 1_555 1_555
Cd2 O1 1_555 1_555
S1 O6 1_555 1_555
O1 C1 1_555 1_555
O2 Cd1 1_555 1_555
O3 C16 1_555 1_555
O4 C16 1_555 1_555
O5 Cd2 1_555 1_555
O6 Cd1 1_555 1_555
O7 Cd2 1_555 1_555
O8 S1 1_555 1_555
O9 S1 1_555 1_555
N1 Cd1 1_555 1_555
C1 O2 1_555 1_555
C2 C1 1_555 1_555
C3 C2 1_555 1_555
C4 C3 1_555 1_555
H1 C4 1_555 1_555
C5 C4 1_555 1_555
H2 C5 1_555 1_555
C6 C5 1_555 1_555
H3 C6 1_555 1_555
C7 C6 1_555 1_555
H4 C7 1_555 1_555
C8 C3 1_555 1_555
C9 C8 1_555 1_555
C10 C9 1_555 1_555
C11 C10 1_555 1_555
H5 C11 1_555 1_555
C12 C11 1_555 1_555
H6 C12 1_555 1_555
C13 C12 1_555 1_555
H7 C13 1_555 1_555
C14 C13 1_555 1_555
H8 C14 1_555 1_555
C15 C2 1_555 1_555
C16 C9 1_555 1_555
C17 N1 1_555 1_555
H9 C17 1_555 1_555
H11 C20 1_555 1_555
C21 N1 1_555 1_555
H12 C21 1_555 1_555
C30 O5 1_555 1_555
H23 C30 1_555 1_555
N3 C30 1_555 1_555
C32 N3 1_555 1_555
H27 C32 1_555 1_555
H28 C32 1_555 1_555
Cd3 O4 1_555 1_555
Cd4 O7 1_555 1_555
Cd6 O9 1_555 1_555
O10 Cd2 1_555 1_555
O11 Cd1 1_555 1_555
O12 Cd1 1_555 1_555
O13 Cd2 1_555 1_555
N4 Cd2 1_555 1_555
S1 O7 1_555 1_555
C7 C8 1_555 1_555
C10 C15 1_555 1_555
C14 C15 1_555 1_555
C20 C21 1_555 1_555
Cd6 O12 1_555 1_555
N2 C25 1_555 1_555
H10 C18 1_555 1_555
C19 C18 1_555 1_555
C22 C19 1_555 1_555
H13 C22 1_555 1_555
H14 C22 1_555 1_555
C23 C22 1_555 1_555
H15 C23 1_555 1_555
H16 C23 1_555 1_555
C24 C23 1_555 1_555
H17 C24 1_555 1_555
H18 C24 1_555 1_555
C25 H19 1_555 1_555
C26 C25 1_555 1_555
H20 C26 1_555 1_555
C27 C24 1_555 1_555
C28 C27 1_555 1_555
H21 C28 1_555 1_555
C29 N2 1_555 1_555
H22 C29 1_555 1_555
H25 C31 1_555 1_555
H26 C31 1_555 1_555
Cd7 N2 1_555 1_555
C26 C27 1_555 1_555
C28 C29 1_555 1_555
N2_2 C25_2 1_555 1_555
H10_2 C18_2 1_555 1_555
C19_2 C18_2 1_555 1_555
C22_2 C19_2 1_555 1_555
H13_2 C22_2 1_555 1_555
H14_2 C22_2 1_555 1_555
C23_2 C22_2 1_555 1_555
H15_2 C23_2 1_555 1_555
H16_2 C23_2 1_555 1_555
C24_2 C23_2 1_555 1_555
H17_2 C24_2 1_555 1_555
H18_2 C24_2 1_555 1_555
C25_2 H19_2 1_555 1_555
C26_2 C25_2 1_555 1_555
H20_2 C26_2 1_555 1_555
C27_2 C24_2 1_555 1_555
C28_2 C27_2 1_555 1_555
H21_2 C28_2 1_555 1_555
C29_2 N2_2 1_555 1_555
H22_2 C29_2 1_555 1_555
Cd6 N2_2 1_555 1_555
C26_2 C27_2 1_555 1_555
C28_2 C29_2 1_555 1_555
Cd7 O9_2 1_555 1_555
Cd7 O12_2 1_555 1_555
O2_2 Cd1_2 1_555 1_555
O6_2 Cd1_2 1_555 1_555
N1_2 Cd1_2 1_555 1_555
C17_2 N1_2 1_555 1_555
H9_2 C17_2 1_555 1_555
H11_2 C20_2 1_555 1_555
C21_2 N1_2 1_555 1_555
H12_2 C21_2 1_555 1_555
O11_2 Cd1_2 1_555 1_555
C20_2 C21_2 1_555 1_555
Cd5 O1_2 1_555 1_555
O1_2 C1_2 1_555 1_555
O10 C16_2 1_555 1_555
O4_2 C16_2 1_555 1_555
O5_2 Cd5 1_555 1_555
O7_2 Cd5 1_555 1_555
O8_2 S1_2 1_555 1_555
C2_2 C1_2 1_555 1_555
C3_2 C2_2 1_555 1_555
C4_2 C3_2 1_555 1_555
H1_2 C4_2 1_555 1_555
C5_2 C4_2 1_555 1_555
H2_2 C5_2 1_555 1_555
C6_2 C5_2 1_555 1_555
H3_2 C6_2 1_555 1_555
C7_2 C6_2 1_555 1_555
H4_2 C7_2 1_555 1_555
C8_2 C3_2 1_555 1_555
C9_2 C8_2 1_555 1_555
C10_2 C9_2 1_555 1_555
C11_2 C10_2 1_555 1_555
H5_2 C11_2 1_555 1_555
C12_2 C11_2 1_555 1_555
H6_2 C12_2 1_555 1_555
C13_2 C12_2 1_555 1_555
H7_2 C13_2 1_555 1_555
C14_2 C13_2 1_555 1_555
H8_2 C14_2 1_555 1_555
C15_2 C2_2 1_555 1_555
C16_2 C9_2 1_555 1_555
C30_2 O5_2 1_555 1_555
N3_2 C30_2 1_555 1_555
C32_2 N3_2 1_555 1_555
H27_2 C32_2 1_555 1_555
H28_2 C32_2 1_555 1_555
Cd4 O4_2 1_555 1_555
O13_2 Cd5 1_555 1_555
N4_2 Cd5 1_555 1_555
S1_2 O7_2 1_555 1_555
C7_2 C8_2 1_555 1_555
C10_2 C15_2 1_555 1_555
C14_2 C15_2 1_555 1_555
N4_2 C25_3 1_555 1_555
H10_3 C18_3 1_555 1_555
C19_3 C18_3 1_555 1_555
C22_3 C19_3 1_555 1_555
H13_3 C22_3 1_555 1_555
H14_3 C22_3 1_555 1_555
C23_3 C22_3 1_555 1_555
H15_3 C23_3 1_555 1_555
H16_3 C23_3 1_555 1_555
C24_3 C23_3 1_555 1_555
H17_3 C24_3 1_555 1_555
H18_3 C24_3 1_555 1_555
C25_3 H19_3 1_555 1_555
C26_3 C25_3 1_555 1_555
H20_3 C26_3 1_555 1_555
C27_3 C24_3 1_555 1_555
C28_3 C27_3 1_555 1_555
H21_3 C28_3 1_555 1_555
C29_3 N4_2 1_555 1_555
H22_3 C29_3 1_555 1_555
H25_2 C31_2 1_555 1_555
H26_2 C31_2 1_555 1_555
C26_3 C27_3 1_555 1_555
C28_3 C29_3 1_555 1_555
Cd4 O1_3 1_555 1_555
Cd6 O1_3 1_555 1_555
S1_3 O6_3 1_555 1_555
O1_3 C1_3 1_555 1_555
O2_3 Cd4 1_555 1_555
O3_2 C16_3 1_555 1_555
O11_2 C16_3 1_555 1_555
O5_3 Cd6 1_555 1_555
O6_3 Cd4 1_555 1_555
O8_3 S1_3 1_555 1_555
O13 S1_3 1_555 1_555
N1_3 Cd4 1_555 1_555
C1_3 O2_3 1_555 1_555
C2_3 C1_3 1_555 1_555
C3_3 C2_3 1_555 1_555
C4_3 C3_3 1_555 1_555
H1_3 C4_3 1_555 1_555
C5_3 C4_3 1_555 1_555
H2_3 C5_3 1_555 1_555
C6_3 C5_3 1_555 1_555
H3_3 C6_3 1_555 1_555
C7_3 C6_3 1_555 1_555
H4_3 C7_3 1_555 1_555
C8_3 C3_3 1_555 1_555
C9_3 C8_3 1_555 1_555
C10_3 C9_3 1_555 1_555
C11_3 C10_3 1_555 1_555
H5_3 C11_3 1_555 1_555
C12_3 C11_3 1_555 1_555
H6_3 C12_3 1_555 1_555
C13_3 C12_3 1_555 1_555
H7_3 C13_3 1_555 1_555
C14_3 C13_3 1_555 1_555
H8_3 C14_3 1_555 1_555
C15_3 C2_3 1_555 1_555
C16_3 C9_3 1_555 1_555
C17_3 N1_3 1_555 1_555
H9_3 C17_3 1_555 1_555
H11_3 C20_3 1_555 1_555
C21_3 N1_3 1_555 1_555
H12_3 C21_3 1_555 1_555
C30_3 O5_3 1_555 1_555
H23_3 C30_3 1_555 1_555
N3_3 C30_3 1_555 1_555
C32_3 N3_3 1_555 1_555
H27_3 C32_3 1_555 1_555
H28_3 C32_3 1_555 1_555
O10_2 Cd6 1_555 1_555
S1_3 O12 1_555 1_555
C7_3 C8_3 1_555 1_555
C10_3 C15_3 1_555 1_555
C14_3 C15_3 1_555 1_555
C20_3 C21_3 1_555 1_555
Cd7 O1_4 1_555 1_555
O1_4 C1_4 1_555 1_555
O10_2 C16_4 1_555 1_555
O11 C16_4 1_555 1_555
O5_4 Cd7 1_555 1_555
O8_4 S1_4 1_555 1_555
C2_4 C1_4 1_555 1_555
C3_4 C2_4 1_555 1_555
C4_4 C3_4 1_555 1_555
H1_4 C4_4 1_555 1_555
C5_4 C4_4 1_555 1_555
H2_4 C5_4 1_555 1_555
C6_4 C5_4 1_555 1_555
H3_4 C6_4 1_555 1_555
C7_4 C6_4 1_555 1_555
H4_4 C7_4 1_555 1_555
C8_4 C3_4 1_555 1_555
C9_4 C8_4 1_555 1_555
C10_4 C9_4 1_555 1_555
C11_4 C10_4 1_555 1_555
H5_4 C11_4 1_555 1_555
C12_4 C11_4 1_555 1_555
H6_4 C12_4 1_555 1_555
C13_4 C12_4 1_555 1_555
H7_4 C13_4 1_555 1_555
C14_4 C13_4 1_555 1_555
H8_4 C14_4 1_555 1_555
C15_4 C2_4 1_555 1_555
C16_4 C9_4 1_555 1_555
C30_4 O5_4 1_555 1_555
N3_4 C30_4 1_555 1_555
C32_4 N3_4 1_555 1_555
H27_4 C32_4 1_555 1_555
H28_4 C32_4 1_555 1_555
S1_4 O12_2 1_555 1_555
C7_4 C8_4 1_555 1_555
C10_4 C15_4 1_555 1_555
C14_4 C15_4 1_555 1_555
O2_4 Cd3 1_555 1_555
O6_4 Cd3 1_555 1_555
N1_4 Cd3 1_555 1_555
C17_4 N1_4 1_555 1_555
H9_4 C17_4 1_555 1_555
H11_4 C20_4 1_555 1_555
C21_4 N1_4 1_555 1_555
H12_4 C21_4 1_555 1_555
C20_4 C21_4 1_555 1_555
N4 C25_4 1_555 1_555
H10_4 C18_4 1_555 1_555
C19_4 C18_4 1_555 1_555
C22_4 C19_4 1_555 1_555
H13_4 C22_4 1_555 1_555
H14_4 C22_4 1_555 1_555
C23_4 C22_4 1_555 1_555
H15_4 C23_4 1_555 1_555
H16_4 C23_4 1_555 1_555
C24_4 C23_4 1_555 1_555
H17_4 C24_4 1_555 1_555
H18_4 C24_4 1_555 1_555
C25_4 H19_4 1_555 1_555
C26_4 C25_4 1_555 1_555
H20_4 C26_4 1_555 1_555
C27_4 C24_4 1_555 1_555
C28_4 C27_4 1_555 1_555
H21_4 C28_4 1_555 1_555
C29_4 N4 1_555 1_555
H22_4 C29_4 1_555 1_555
C26_4 C27_4 1_555 1_555
C28_4 C29_4 1_555 1_555
H25_3 C31_3 1_555 1_555
H26_3 C31_3 1_555 1_555
H25_4 C31_4 1_555 1_555
H26_4 C31_4 1_555 1_555

#END
