
###############################################################################
#
# This file contains modified crystal structure data generated from the
# MOF subset of the Cambridge Structural Database (CSD) v543 
# hosted by the Cambridge Crystallographic Data Centre (CCDC).
#
# This work is licensed under the Creative Commons
# Attribution-NonCommercial-ShareAlike 4.0 International License.
# To view a copy of this license, visit
# http://creativecommons.org/licenses/by-nc-sa/4.0/
# or send a letter to
# Creative Commons, PO Box 1866, Mountain View, CA 94042, USA.
#
# CIF created using the CSD Python API on 29 September 2022
# The structure has been converted into the P1 space group
# The structure has a 3D framework
# The original CSD entry ETETAB is in the triclinic crystal system
# The framework has been calculated to contain at least 10.0% void space
# The void calculation uses a probe of radius 1.32A, grid spacing 0.4
# The framework is charged, counterions have been retained in the structure
# H atom positions have been added when not included in the experimental data
# Generated hydrogen atom positions removed from atoms on special positions
#
###############################################################################

data_ETETAB
_chemical_formula_moiety         '(C76 H86 Co7 O42 4-)n'
_symmetry_cell_setting           triclinic
_symmetry_space_group_name_H-M   'P 1'
_symmetry_Int_Tables_number      1
_space_group_name_Hall           'P 1'
loop_
_symmetry_equiv_pos_site_id
_symmetry_equiv_pos_as_xyz
1 x,y,z
_cell_length_a                   10.5320(6)
_cell_length_b                   13.2619(7)
_cell_length_c                   18.1118(10)
_cell_angle_alpha                70.883(5)
_cell_angle_beta                 74.056(5)
_cell_angle_gamma                85.860(4)
_cell_volume                     2297.85
loop_
_atom_site_label
_atom_site_type_symbol
_atom_site_fract_x
_atom_site_fract_y
_atom_site_fract_z
H49 H 0.0299 0.1107 0.1027
H52 H 0.0055 0.0597 0.2310
Co6 Co 0.0000 0.0000 0.5000
H50 H -0.0000 0.1182 0.9803
O36 O 0.0307(4) 0.6000(3) 0.6795(2)
Co12 Co 0.07679(8) 0.69129(6) 0.74292(5)
Co6_2 Co 0.0000 1.0000 0.5000
Co14 Co 0.12980(9) 0.56314(7) 0.43011(5)
O47 O 0.0719(4) 0.4093(3) 0.5247(2)
O49 O 0.0981(4) 0.3029(3) 0.1744(3)
O50 O 0.1805(5) 0.5707(5) 0.8213(3)
O51 O 0.2897(5) 0.6675(4) 0.7036(4)
O55 O 0.1372(4) 0.8377(3) 0.7792(2)
O57 O 0.0862(4) 0.8251(3) 0.6499(2)
C49 C 0.2600(4) 0.0404(4) 0.0048(3)
C52 C 0.2726(5) 0.0756(4) 0.1441(3)
H35 H 0.2784 0.0876 0.1909
C53 C 0.2930(5) 0.1594(4) 0.0707(3)
C56 C 0.3300(6) 0.2840(5) 0.1336(3)
H38 H 0.3867 0.2311 0.1591
H39 H 0.3732 0.3532 0.1164
C57 C 0.1995(7) 0.2838(5) 0.1969(4)
C70 C 0.7106(6) 0.1877(5) 0.0577(3)
H47 H 0.6288 0.2059 0.0473
C71 C 0.7288(6) 0.1864(5) 0.1306(3)
H48 H 0.6596 0.2041 0.1687
C72 C 0.8485(6) 0.1593(4) 0.1472(3)
C73 C 0.9493(6) 0.1316(5) 0.0914(3)
C74 C 0.9301(5) 0.1350(5) 0.0183(3)
C75 C 0.9198(7) 0.0711(4) 0.2642(3)
H51 H 0.8641 0.0090 0.2782
C76 C 0.9355(6) 0.0858(5) 0.3405(3)
O29 O 0.3188(4) 0.2627(3) 0.0644(2)
O30 O 0.2092(6) 0.2694(5) 0.2652(3)
O38 O 0.8628(4) 0.1623(3) 0.2208(2)
O39 O 0.9138(4) 0.1749(3) 0.3501(2)
O40 O 0.9736(5) 0.0063(3) 0.3889(2)
Co6_3 Co 1.0000 0.0000 0.5000
Co9 Co 0.92321(8) 0.30871(6) 0.25708(5)
C12 C 0.7634(5) 0.0454(4) 0.9236(3)
C13 C 0.7563(5) 0.0256(4) 0.8543(3)
C16 C 0.7477(6) 0.1023(4) 0.7170(3)
H10 H 0.6564 0.0779 0.7334
H11 H 0.8025 0.0492 0.6978
C17 C 0.7645(6) 0.2074(5) 0.6481(3)
O3 O 0.0443(5) 0.1664(3) 0.4610(3)
O6 O 0.7817(4) 0.1109(3) 0.7846(2)
O8 O 0.7337(5) 0.2021(4) 0.5866(2)
O10 O 0.8031(4) 0.2870(3) 0.6567(2)
C39 C 0.1519(7) 0.3461(5) 0.5588(4)
C40 C 0.0987(6) 0.2383(5) 0.6165(4)
H27 H 0.0665 0.1999 0.5878
H28 H 0.0249 0.2476 0.6594
C41 C 0.2192(6) 0.1945(4) 0.7174(3)
C42 C 0.3238(7) 0.1396(5) 0.7444(4)
H29 H 0.3722 0.0937 0.7184
C43 C 0.3565(6) 0.1528(5) 0.8096(3)
H30 H 0.4290 0.1181 0.8257
C44 C 0.2821(5) 0.2172(4) 0.8511(3)
C45 C 0.1780(6) 0.2693(5) 0.8240(3)
H31 H 0.1270 0.3132 0.8511
C46 C 0.1468(6) 0.2584(5) 0.7573(3)
H32 H 0.0761 0.2951 0.7401
C47 C 0.3170(5) 0.2381(4) 0.9211(3)
H33 H 0.2622 0.2970 0.9324
C48 C 0.2876(5) 0.1433(4) 0.9998(3)
H34 H 0.2569 0.0279 0.9576
C58 C 0.4613(5) 0.2757(4) 0.8964(3)
C59 C 0.5599(5) 0.2067(4) 0.9153(3)
H40 H 0.5363 0.1360 0.9458
C60 C 0.6904(5) 0.2355(4) 0.8921(3)
C61 C 0.7245(5) 0.3410(4) 0.8446(3)
C62 C 0.6277(6) 0.4134(4) 0.8231(3)
H41 H 0.6509 0.4834 0.7907
C63 C 0.4969(5) 0.3798(4) 0.8506(3)
C64 C 0.4160(7) 0.5452(5) 0.7786(4)
H42 H 0.4646 0.5894 0.7952
H43 H 0.4684 0.5394 0.7270
C65 C 0.2842(8) 0.5957(5) 0.7697(5)
C66 C 0.9048(6) 0.4706(5) 0.7923(3)
H44 H 0.8339 0.5144 0.8114
H45 H 0.9749 0.4735 0.8169
C67 C 0.9555(6) 0.5197(5) 0.7043(4)
C68 C 0.7951(5) 0.1587(4) 0.9192(3)
H46 H 0.8793 0.1817 0.8781
C69 C 0.8116(5) 0.1623(4) 0.9996(3)
H50_2 H 1.0000 0.1182 0.9803
O23 O 0.2716(6) 0.3661(5) 0.5447(4)
O25 O 0.1982(4) 0.1767(3) 0.6513(2)
O32 O 0.3931(4) 0.4464(3) 0.8353(3)
O35 O 0.8575(4) 0.3657(3) 0.8212(2)
O37 O 0.9231(5) 0.4771(4) 0.6592(3)
Co16 Co 0.87020(9) 0.43686(7) 0.56989(5)
H57 H 0.0870442 0.19137 0.40179
C1 C 0.8481(7) 0.6539(5) 0.4412(4)
C2 C 0.9013(6) 0.7617(5) 0.3835(4)
H1 H 0.9335 0.8001 0.4122
H2 H 0.9751 0.7524 0.3406
C3 C 0.7808(6) 0.8055(4) 0.2826(3)
C4 C 0.6762(7) 0.8604(5) 0.2556(4)
H3 H 0.6278 0.9063 0.2816
C5 C 0.6435(6) 0.8472(5) 0.1904(3)
H4 H 0.5710 0.8819 0.1743
C6 C 0.7179(5) 0.7828(4) 0.1489(3)
C7 C 0.8220(6) 0.7307(5) 0.1760(3)
H5 H 0.8730 0.6868 0.1489
C8 C 0.8532(6) 0.7416(5) 0.2427(3)
H6 H 0.9239 0.7049 0.2599
C9 C 0.6830(5) 0.7619(4) 0.0789(3)
H7 H 0.7378 0.7030 0.0676
C10 C 0.7124(5) 0.8567(4) 0.0002(3)
H8 H 0.7431 0.9721 0.0424
C20 C 0.5387(5) 0.7243(4) 0.1036(3)
C21 C 0.4401(5) 0.7933(4) 0.0847(3)
H14 H 0.4637 0.8640 0.0542
C22 C 0.3096(5) 0.7645(4) 0.1079(3)
C23 C 0.2755(5) 0.6590(4) 0.1554(3)
C24 C 0.3723(6) 0.5866(4) 0.1769(3)
H15 H 0.3491 0.5166 0.2093
C25 C 0.5031(5) 0.6202(4) 0.1494(3)
C26 C 0.5840(7) 0.4548(5) 0.2214(4)
H16 H 0.5354 0.4106 0.2048
H17 H 0.5316 0.4606 0.2730
C27 C 0.7158(8) 0.4043(5) 0.2303(5)
C28 C 0.0952(6) 0.5294(5) 0.2077(3)
H18 H 0.1661 0.4856 0.1886
H19 H 0.0251 0.5265 0.1831
C29 C 0.0445(6) 0.4803(5) 0.2957(4)
C30 C 0.2049(5) 0.8413(4) 0.0808(3)
H20 H 0.1207 0.8183 0.1219
C31 C 0.1884(5) 0.8377(4) 0.0004(3)
H24 H 0.0000 0.8818 0.0197
O1 O 0.7284(6) 0.6339(5) 0.4553(4)
O2 O 0.9281(4) 0.5907(3) 0.4753(2)
O4 O 0.8018(4) 0.8233(3) 0.3487(2)
O7 O 0.3191(5) 0.5087(4) 0.3955(3)
O9 O 0.1760(5) 0.6120(4) 0.5189(2)
O14 O 0.6069(4) 0.5536(3) 0.1647(3)
O15 O 0.8195(5) 0.4293(5) 0.1787(3)
O16 O 0.7103(5) 0.3325(4) 0.2964(4)
O17 O 0.1425(4) 0.6343(3) 0.1788(2)
O19 O 0.0769(5) 0.5229(4) 0.3408(3)
C50 C 0.2366(5) 0.9546(4) 0.0764(3)
C51 C 0.2437(5) 0.9744(4) 0.1457(3)
C54 C 0.2523(6) 0.8977(4) 0.2830(3)
H36 H 0.3436 0.9221 0.2666
H37 H 0.1975 0.9508 0.3022
C55 C 0.2355(6) 0.7926(5) 0.3519(3)
O26 O 0.2183(4) 0.8891(3) 0.2154(2)
O27 O 0.2663(5) 0.7979(4) 0.4134(2)
O28 O 0.1969(4) 0.7130(3) 0.3433(2)
O43 O 0.6809(5) 0.4913(4) 0.6045(3)
O44 O 0.8240(5) 0.3880(4) 0.4811(2)
Co6_4 Co 1.0000 1.0000 0.5000
O52 O 0.9693(4) 0.4000(3) 0.3205(2)
C11 C 0.7400(4) 0.9596(4) 0.9952(3)
C14 C 0.7274(5) 0.9244(4) 0.8559(3)
H9 H 0.7216 0.9124 0.8091
C15 C 0.7070(5) 0.8406(4) 0.9293(3)
C18 C 0.6700(6) 0.7160(5) 0.8664(3)
H12 H 0.6133 0.7689 0.8409
H13 H 0.6268 0.6468 0.8836
C19 C 0.8005(7) 0.7162(5) 0.8031(4)
C32 C 0.2894(6) 0.8123(5) 0.9423(3)
H21 H 0.3712 0.7941 0.9527
C33 C 0.2712(6) 0.8136(5) 0.8694(3)
H22 H 0.3404 0.7959 0.8313
C34 C 0.1515(6) 0.8407(4) 0.8528(3)
C35 C 0.0507(6) 0.8684(5) 0.9086(3)
C36 C 0.0699(5) 0.8650(5) 0.9817(3)
C37 C 0.0802(7) 0.9289(4) 0.7358(3)
H25 H 0.1359 0.9910 0.7218
C38 C 0.0645(6) 0.9142(5) 0.6595(3)
O5 O 0.2017(5) 0.9720(4) 0.4596(3)
O11 O 0.6812(4) 0.7373(3) 0.9356(2)
O12 O 0.7908(6) 0.7306(5) 0.7348(3)
O13 O 0.9019(4) 0.6971(3) 0.8256(3)
O22 O 0.0264(5) 0.9937(3) 0.6111(2)
H61 H 0.00274241 0.795052 0.580421
O42 O 0.7983(5) 0.0280(4) 0.5404(3)
H58 H 0.9614 0.205848 0.472726
H24_2 H 1.0000 0.8818 0.0197
H23 H 0.9701 0.8893 0.8973
H26 H 0.9945 0.9403 0.7690
O41 O 0.9557(5) 0.8336(3) 0.5390(3)
H62 H 0.859026 0.82131 0.562853
H64 H 0.748299 0.95906 0.563664
H62_2 H 0.140974 0.17869 0.437147
H64_2 H 0.251701 0.0409404 0.436336
H58_2 H 0.0385996 0.794152 0.527274
H61_2 H 0.997258 0.204948 0.419579
H57_2 H 0.912956 0.80863 0.59821
loop_
_geom_bond_atom_site_label_1
_geom_bond_atom_site_label_2
_geom_bond_site_symmetry_1
_geom_bond_site_symmetry_2
Co12 O36 1_555 1_555
Co14 O47 1_555 1_555
O50 Co12 1_555 1_555
O51 Co12 1_555 1_555
O55 Co12 1_555 1_555
O57 Co12 1_555 1_555
H35 C52 1_555 1_555
C56 H38 1_555 1_555
H39 C56 1_555 1_555
C57 C56 1_555 1_555
H47 C70 1_555 1_555
C71 C70 1_555 1_555
H48 C71 1_555 1_555
C72 C71 1_555 1_555
C73 C72 1_555 1_555
C75 H51 1_555 1_555
C76 C75 1_555 1_555
O29 C53 1_555 1_555
O30 C57 1_555 1_555
O49 C57 1_555 1_555
O38 C72 1_555 1_555
O39 C76 1_555 1_555
O40 C76 1_555 1_555
Co6_3 O40 1_555 1_555
Co9 O38 1_555 1_555
C52 C53 1_555 1_555
C56 O29 1_555 1_555
C73 C74 1_555 1_555
C75 O38 1_555 1_555
O39 Co9 1_555 1_555
Co6 O3 1_555 1_555
C13 C12 1_555 1_555
C16 H10 1_555 1_555
H11 C16 1_555 1_555
C17 C16 1_555 1_555
O6 C13 1_555 1_555
O8 C17 1_555 1_555
O10 C17 1_555 1_555
C39 C40 1_555 1_555
C40 H27 1_555 1_555
H28 C40 1_555 1_555
C41 C42 1_555 1_555
C42 H29 1_555 1_555
C43 C42 1_555 1_555
H30 C43 1_555 1_555
C44 C43 1_555 1_555
C45 C44 1_555 1_555
H31 C45 1_555 1_555
C46 C41 1_555 1_555
H32 C46 1_555 1_555
C47 C44 1_555 1_555
H33 C47 1_555 1_555
C48 C47 1_555 1_555
C58 C47 1_555 1_555
C59 C58 1_555 1_555
H40 C59 1_555 1_555
C60 C59 1_555 1_555
C61 C60 1_555 1_555
C62 C61 1_555 1_555
H41 C62 1_555 1_555
C63 C58 1_555 1_555
C64 H42 1_555 1_555
H43 C64 1_555 1_555
C65 C64 1_555 1_555
C66 H44 1_555 1_555
H45 C66 1_555 1_555
C67 C66 1_555 1_555
C68 C12 1_555 1_555
H46 C68 1_555 1_555
C69 C68 1_555 1_555
O23 C39 1_555 1_555
O47 C39 1_555 1_555
O25 C40 1_555 1_555
O32 C63 1_555 1_555
O50 C65 1_555 1_555
O51 C65 1_555 1_555
O35 C61 1_555 1_555
O37 C67 1_555 1_555
Co16 O10 1_555 1_555
C16 O6 1_555 1_555
C41 O25 1_555 1_555
C45 C46 1_555 1_555
C60 C68 1_555 1_555
C62 C63 1_555 1_555
C64 O32 1_555 1_555
C66 O35 1_555 1_555
O37 Co16 1_555 1_555
O3 H57 1_555 1_555
Co9 O15 1_555 1_555
Co14 O7 1_555 1_555
C1 C2 1_555 1_555
C2 H1 1_555 1_555
H2 C2 1_555 1_555
C3 C4 1_555 1_555
C4 H3 1_555 1_555
C5 C4 1_555 1_555
H4 C5 1_555 1_555
C6 C5 1_555 1_555
C7 C6 1_555 1_555
H5 C7 1_555 1_555
C8 C3 1_555 1_555
H6 C8 1_555 1_555
C9 C6 1_555 1_555
H7 C9 1_555 1_555
C10 C9 1_555 1_555
C20 C9 1_555 1_555
C21 C20 1_555 1_555
H14 C21 1_555 1_555
C22 C21 1_555 1_555
C23 C22 1_555 1_555
C24 C23 1_555 1_555
H15 C24 1_555 1_555
C25 C20 1_555 1_555
C26 H16 1_555 1_555
H17 C26 1_555 1_555
C27 C26 1_555 1_555
C28 H18 1_555 1_555
H19 C28 1_555 1_555
C29 C28 1_555 1_555
C30 C22 1_555 1_555
H20 C30 1_555 1_555
C31 C30 1_555 1_555
O1 C1 1_555 1_555
O2 C1 1_555 1_555
O4 C2 1_555 1_555
O9 Co14 1_555 1_555
O14 C25 1_555 1_555
O15 C27 1_555 1_555
O16 Co9 1_555 1_555
O17 C23 1_555 1_555
O19 Co14 1_555 1_555
C50 C30 1_555 1_555
C51 C50 1_555 1_555
C54 H36 1_555 1_555
H37 C54 1_555 1_555
C55 C54 1_555 1_555
O26 C51 1_555 1_555
O27 C55 1_555 1_555
O28 Co14 1_555 1_555
Co16 O2 1_555 1_555
O43 Co16 1_555 1_555
O44 Co16 1_555 1_555
O52 Co9 1_555 1_555
C3 O4 1_555 1_555
C7 C8 1_555 1_555
C24 C25 1_555 1_555
C26 O14 1_555 1_555
C27 O16 1_555 1_555
C28 O17 1_555 1_555
C29 O19 1_555 1_555
C54 O26 1_555 1_555
C55 O28 1_555 1_555
H9 C14 1_555 1_555
C18 H12 1_555 1_555
H13 C18 1_555 1_555
C19 C18 1_555 1_555
H21 C32 1_555 1_555
C33 C32 1_555 1_555
H22 C33 1_555 1_555
C34 C33 1_555 1_555
C35 C34 1_555 1_555
C37 H25 1_555 1_555
C38 C37 1_555 1_555
O5 Co6_2 1_555 1_555
O11 C15 1_555 1_555
O12 C19 1_555 1_555
O13 C19 1_555 1_555
O55 C34 1_555 1_555
O57 C38 1_555 1_555
O22 Co6_2 1_555 1_555
C14 C15 1_555 1_555
C18 O11 1_555 1_555
C35 C36 1_555 1_555
C37 O55 1_555 1_555
C38 O22 1_555 1_555
O42 Co6_3 1_555 1_555
O41 Co6_4 1_555 1_555
O41 H62 1_555 1_555
O3 H62_2 1_555 1_555
O41 H57_2 1_555 1_555

#END
