
###############################################################################
#
# This file contains modified crystal structure data generated from the
# MOF subset of the Cambridge Structural Database (CSD) v543 
# hosted by the Cambridge Crystallographic Data Centre (CCDC).
#
# This work is licensed under the Creative Commons
# Attribution-NonCommercial-ShareAlike 4.0 International License.
# To view a copy of this license, visit
# http://creativecommons.org/licenses/by-nc-sa/4.0/
# or send a letter to
# Creative Commons, PO Box 1866, Mountain View, CA 94042, USA.
#
# CIF created using the CSD Python API on 29 September 2022
# The structure has been converted into the P1 space group
# The structure has a 3D framework
# The original CSD entry ETICIV is in the monoclinic crystal system
# The framework has been calculated to contain at least 10.0% void space
# The void calculation uses a probe of radius 1.32A, grid spacing 0.4
#
###############################################################################

data_ETICIV
_chemical_formula_moiety         '(C216 H152 Cd8 N56 O28)n'
_symmetry_cell_setting           triclinic
_symmetry_space_group_name_H-M   'P 1'
_symmetry_Int_Tables_number      1
_space_group_name_Hall           'P 1'
loop_
_symmetry_equiv_pos_site_id
_symmetry_equiv_pos_as_xyz
1 x,y,z
_cell_length_a                   14.475(4)
_cell_length_b                   16.613(4)
_cell_length_c                   24.839(6)
_cell_angle_alpha                90
_cell_angle_beta                 95.062(7)
_cell_angle_gamma                90
_cell_volume                     5949.82
loop_
_atom_site_label
_atom_site_type_symbol
_atom_site_fract_x
_atom_site_fract_y
_atom_site_fract_z
Cd1 Cd 0.37597(2) 0.26026(2) 0.48663(2)
H2 H 0.1223 0.0079 0.2427
N3 N 0.02711(18) 0.03127(15) 0.15274(10)
N6 N 0.21791(17) 0.03750(15) 0.33135(10)
N7 N 0.33654(18) 0.13596(15) 0.45082(9)
C13 C 0.2685(2) 0.05706(18) 0.37927(11)
C16 C 0.3693(2) 0.0681(2) 0.47607(12)
H10 H 0.4035 0.0734 0.5094
C17 C 0.2882(2) 0.13136(18) 0.40306(12)
H11 H 0.2673 0.1782 0.3854
O2 O 0.04123(19) 0.70653(19) 0.50337(10)
O3 O 0.1385(2) 0.29037(18) 0.43099(10)
O4 O 0.28585(19) 0.32604(16) 0.42198(11)
C18 C 0.0565(2) 0.72790(18) 0.45699(14)
C19 C 0.1452(3) 0.7076(2) 0.4348(2)
H12 H 0.1953 0.7138 0.4631
H13 H 0.1558 0.7455 0.4062
C20 C 0.1478(2) 0.62245(19) 0.41228(14)
C21 C 0.0703(2) 0.5750(2) 0.40415(14)
H14 H 0.0128 0.5961 0.4107
C22 C 0.0759(2) 0.4955(2) 0.38614(13)
H15 H 0.0225 0.4642 0.3815
C23 C 0.1601(2) 0.46295(18) 0.37513(11)
C24 C 0.2372(2) 0.5124(2) 0.38091(15)
H16 H 0.2940 0.4923 0.3724
C25 C 0.2320(2) 0.5908(2) 0.39901(16)
H17 H 0.2850 0.6227 0.4023
C26 C 0.1684(2) 0.37610(19) 0.35926(12)
H18 H 0.2128 0.3711 0.3324
H19 H 0.1089 0.3566 0.3435
C27 C 0.1998(2) 0.32646(18) 0.40816(12)
Cd3 Cd 0.12403(2) 0.23974(2) 0.51337(2)
N8 N 0.40509(17) 0.38117(15) 0.52997(10)
O5 O 0.49589(19) 0.26540(13) 0.42801(11)
O6 O 0.54123(19) 0.20653(19) 0.50337(10)
O7 O 0.3615(2) 0.20963(18) 0.56901(10)
N4 N 0.90509(17) 0.11883(15) 0.02997(10)
C7 C 0.9765(2) 0.04635(18) 0.10403(11)
C10 C 0.8779(2) 0.04829(19) 0.00600(12)
C11 C 0.9525(2) 0.11831(18) 0.07777(12)
H7 H 0.9703 0.1669 0.0942
O1 O 0.99589(19) 0.76540(13) 0.42801(11)
Cd2 Cd 0.87597(2) 0.76026(2) 0.48663(2)
H6 H 0.8438 0.0503 0.9725
Cd4 Cd 0.87597(2) 0.23974(2) 0.98663(2)
N4_2 N 0.09491(17) 0.11883(15) 0.47003(10)
C7_2 C 0.0235(2) 0.04635(18) 0.39597(11)
C10_2 C 0.1221(2) 0.04829(19) 0.49400(12)
H6_2 H 0.1562 0.0503 0.5275
C11_2 C 0.0475(2) 0.11831(18) 0.42223(12)
H7_2 H 0.0297 0.1669 0.4058
O1_2 O 0.00411(19) 0.76540(13) 0.07199(11)
Cd2_2 Cd 0.12403(2) 0.76026(2) 0.01337(2)
Cd1_2 Cd 0.62403(2) 0.26026(2) 0.01337(2)
H2_2 H 0.8777 0.0079 0.2573
N3_2 N 0.97289(18) 0.03127(15) 0.34726(10)
N6_2 N 0.78209(17) 0.03750(15) 0.16865(10)
N7_2 N 0.66346(18) 0.13596(15) 0.04918(9)
C13_2 C 0.7315(2) 0.05706(18) 0.12073(11)
C16_2 C 0.6307(2) 0.0681(2) 0.02393(12)
C17_2 C 0.7118(2) 0.13136(18) 0.09694(12)
H11_2 H 0.7327 0.1782 0.1146
O3_2 O 0.8615(2) 0.29037(18) 0.06901(10)
O4_2 O 0.71415(19) 0.32604(16) 0.07802(11)
C18_2 C 0.9435(2) 0.72790(18) 0.04301(14)
C19_2 C 0.8548(3) 0.7076(2) 0.0652(2)
H12_2 H 0.8047 0.7138 0.0369
H13_2 H 0.8442 0.7455 0.0938
C20_2 C 0.8522(2) 0.62245(19) 0.08772(14)
C21_2 C 0.9297(2) 0.5750(2) 0.09585(14)
H14_2 H 0.9872 0.5961 0.0893
C22_2 C 0.9241(2) 0.4955(2) 0.11386(13)
H15_2 H 0.9775 0.4642 0.1185
C23_2 C 0.8399(2) 0.46295(18) 0.12487(11)
C24_2 C 0.7628(2) 0.5124(2) 0.11909(15)
H16_2 H 0.7060 0.4923 0.1276
C25_2 C 0.7680(2) 0.5908(2) 0.10099(16)
H17_2 H 0.7150 0.6227 0.0977
C26_2 C 0.8316(2) 0.37610(19) 0.14074(12)
H18_2 H 0.7872 0.3711 0.1676
H19_2 H 0.8911 0.3566 0.1565
C27_2 C 0.8002(2) 0.32646(18) 0.09184(12)
O5_2 O 0.50411(19) 0.26540(13) 0.07199(11)
H10_2 H 0.5965 0.0734 0.9906
O2_2 O 0.95877(19) 0.70653(19) 0.99663(10)
N8_2 N 0.59491(17) 0.38117(15) 0.97003(10)
O6_2 O 0.45877(19) 0.20653(19) 0.99663(10)
O7_2 O 0.6385(2) 0.20963(18) 0.93099(10)
C18_3 C 0.5565(2) 0.22790(18) 0.45699(14)
C19_3 C 0.6452(3) 0.2076(2) 0.4348(2)
H12_3 H 0.6953 0.2138 0.4631
H13_3 H 0.6558 0.2455 0.4062
C20_3 C 0.6478(2) 0.12245(19) 0.41228(14)
C21_3 C 0.5703(2) 0.0750(2) 0.40415(14)
H14_3 H 0.5128 0.0961 0.4107
C24_3 C 0.7372(2) 0.0124(2) 0.38091(15)
C25_3 C 0.7320(2) 0.0908(2) 0.39901(16)
H17_3 H 0.7850 0.1227 0.4023
N1 N 0.6421(3) 0.28632(19) 0.23975(13)
C1 C 0.5916(3) 0.32542(19) 0.20068(13)
H1 H 0.5609 0.2957 0.1729
C2 C 0.58297(19) 0.40802(17) 0.19959(11)
C3 C 0.62695(18) 0.45212(18) 0.24222(11)
H2_3 H 0.6223 0.5079 0.2427
C4 C 0.6781(2) 0.41163(18) 0.28427(11)
C5 C 0.6819(3) 0.3289(2) 0.28056(13)
H3 H 0.7147 0.3010 0.3086
N2 N 0.48466(17) 0.41517(14) 0.11213(9)
H4 H 0.4786 0.3641 0.1073
N3_3 N 0.52711(18) 0.53127(15) 0.15274(10)
N4_3 N 0.40509(17) 0.61883(15) 0.02997(10)
C6 C 0.53143(19) 0.45229(17) 0.15551(11)
C7_3 C 0.4765(2) 0.54635(18) 0.10403(11)
C8 C 0.44980(19) 0.47351(17) 0.07832(11)
C9 C 0.3980(2) 0.47372(19) 0.02847(12)
H5 H 0.3780 0.4263 0.0113
C10_3 C 0.3779(2) 0.54829(19) 0.00600(12)
C11_3 C 0.4525(2) 0.61831(18) 0.07777(12)
H7_3 H 0.4703 0.6669 0.0942
N5 N 0.77379(18) 0.42489(15) 0.37251(9)
H8 H 0.7849 0.3746 0.3783
N6_3 N 0.71791(17) 0.53750(15) 0.33135(10)
N7_3 N 0.83654(18) 0.63596(15) 0.45082(9)
C12 C 0.7236(2) 0.45698(17) 0.32893(11)
C13_3 C 0.7685(2) 0.55706(18) 0.37927(11)
C14 C 0.8032(2) 0.48722(17) 0.40526(11)
C15 C 0.8550(2) 0.49164(19) 0.45531(12)
H9 H 0.8783 0.4460 0.4735
C16_3 C 0.8693(2) 0.5681(2) 0.47607(12)
H10_3 H 0.9035 0.5734 0.5094
C17_3 C 0.7882(2) 0.63136(18) 0.40306(12)
H11_3 H 0.7673 0.6782 0.3854
O3_3 O 0.6385(2) 0.79037(18) 0.43099(10)
O4_3 O 0.78585(19) 0.82604(16) 0.42198(11)
C22_3 C 0.5759(2) 0.9955(2) 0.38614(13)
H15_3 H 0.5225 0.9642 0.3815
C23_3 C 0.6601(2) 0.96295(18) 0.37513(11)
H16_3 H 0.7940 0.9923 0.3724
C26_3 C 0.6684(2) 0.87610(19) 0.35926(12)
H18_3 H 0.7128 0.8711 0.3324
H19_3 H 0.6089 0.8566 0.3435
C27_3 C 0.6998(2) 0.82646(18) 0.40816(12)
Cd3_2 Cd 0.62403(2) 0.73974(2) 0.51337(2)
N8_3 N 0.90509(17) 0.88117(15) 0.52997(10)
O7_3 O 0.8615(2) 0.70963(18) 0.56901(10)
H6_3 H 0.3438 0.5503 0.9725
Cd4_2 Cd 0.37597(2) 0.73974(2) 0.98663(2)
C18_4 C 0.4435(2) 0.22790(18) 0.04301(14)
C19_4 C 0.3548(3) 0.2076(2) 0.0652(2)
H12_4 H 0.3047 0.2138 0.0369
H13_4 H 0.3442 0.2455 0.0938
C20_4 C 0.3522(2) 0.12245(19) 0.08772(14)
C21_4 C 0.4297(2) 0.0750(2) 0.09585(14)
H14_4 H 0.4872 0.0961 0.0893
C24_4 C 0.2628(2) 0.0124(2) 0.11909(15)
C25_4 C 0.2680(2) 0.0908(2) 0.10099(16)
H17_4 H 0.2150 0.1227 0.0977
N1_2 N 0.3579(3) 0.28632(19) 0.26025(13)
C1_2 C 0.4084(3) 0.32542(19) 0.29932(13)
H1_2 H 0.4391 0.2957 0.3271
C2_2 C 0.41703(19) 0.40802(17) 0.30041(11)
C3_2 C 0.37305(18) 0.45212(18) 0.25778(11)
H2_4 H 0.3777 0.5079 0.2573
C4_2 C 0.3219(2) 0.41163(18) 0.21573(11)
C5_2 C 0.3181(3) 0.3289(2) 0.21944(13)
H3_2 H 0.2853 0.3010 0.1914
N2_2 N 0.51534(17) 0.41517(14) 0.38787(9)
H4_2 H 0.5214 0.3641 0.3927
N3_4 N 0.47289(18) 0.53127(15) 0.34726(10)
N4_4 N 0.59491(17) 0.61883(15) 0.47003(10)
C6_2 C 0.46857(19) 0.45229(17) 0.34449(11)
C7_4 C 0.5235(2) 0.54635(18) 0.39597(11)
C8_2 C 0.55020(19) 0.47351(17) 0.42168(11)
C9_2 C 0.6020(2) 0.47372(19) 0.47153(12)
H5_2 H 0.6220 0.4263 0.4887
C10_4 C 0.6221(2) 0.54829(19) 0.49400(12)
H6_4 H 0.6562 0.5503 0.5275
C11_4 C 0.5475(2) 0.61831(18) 0.42223(12)
H7_4 H 0.5297 0.6669 0.4058
N5_2 N 0.22621(18) 0.42489(15) 0.12749(9)
H8_2 H 0.2151 0.3746 0.1217
N6_4 N 0.28209(17) 0.53750(15) 0.16865(10)
N7_4 N 0.16346(18) 0.63596(15) 0.04918(9)
C12_2 C 0.2764(2) 0.45698(17) 0.17107(11)
C13_4 C 0.2315(2) 0.55706(18) 0.12073(11)
C14_2 C 0.1968(2) 0.48722(17) 0.09474(11)
C15_2 C 0.1450(2) 0.49164(19) 0.04469(12)
H9_2 H 0.1217 0.4460 0.0265
C16_4 C 0.1307(2) 0.5681(2) 0.02393(12)
C17_4 C 0.2118(2) 0.63136(18) 0.09694(12)
H11_4 H 0.2327 0.6782 0.1146
O3_4 O 0.3615(2) 0.79037(18) 0.06901(10)
O4_4 O 0.21415(19) 0.82604(16) 0.07802(11)
C22_4 C 0.4241(2) 0.9955(2) 0.11386(13)
H15_4 H 0.4775 0.9642 0.1185
C23_4 C 0.3399(2) 0.96295(18) 0.12487(11)
H16_4 H 0.2060 0.9923 0.1276
C26_4 C 0.3316(2) 0.87610(19) 0.14074(12)
H18_4 H 0.2872 0.8711 0.1676
H19_4 H 0.3911 0.8566 0.1565
C27_4 C 0.3002(2) 0.82646(18) 0.09184(12)
H10_4 H 0.0965 0.5734 0.9906
N8_4 N 0.09491(17) 0.88117(15) 0.97003(10)
O7_4 O 0.1385(2) 0.70963(18) 0.93099(10)
H6_5 H 0.1562 0.9497 0.0275
C7_5 C 0.0235(2) 0.95365(18) 0.89597(11)
C10_5 C 0.1221(2) 0.95171(19) 0.99400(12)
C11_5 C 0.0475(2) 0.88169(18) 0.92223(12)
H7_5 H 0.0297 0.8331 0.9058
O1_3 O 0.00411(19) 0.23460(13) 0.57199(11)
H2_5 H 0.8777 0.9921 0.7573
N3_5 N 0.97289(18) 0.96873(15) 0.84726(10)
N6_5 N 0.78209(17) 0.96250(15) 0.66865(10)
N7_5 N 0.66346(18) 0.86404(15) 0.54918(9)
C13_5 C 0.7315(2) 0.94294(18) 0.62073(11)
C16_5 C 0.6307(2) 0.9319(2) 0.52393(12)
H10_5 H 0.5965 0.9266 0.4906
C17_5 C 0.7118(2) 0.86864(18) 0.59694(12)
H11_5 H 0.7327 0.8218 0.6146
O2_3 O 0.95877(19) 0.29347(19) 0.49663(10)
O4_5 O 0.71415(19) 0.67396(16) 0.57802(11)
C18_5 C 0.9435(2) 0.27210(18) 0.54301(14)
C19_5 C 0.8548(3) 0.2924(2) 0.5652(2)
H12_5 H 0.8047 0.2862 0.5369
H13_5 H 0.8442 0.2545 0.5938
C20_5 C 0.8522(2) 0.37755(19) 0.58772(14)
C21_5 C 0.9297(2) 0.4250(2) 0.59585(14)
H14_5 H 0.9872 0.4039 0.5893
C22_5 C 0.9241(2) 0.5045(2) 0.61386(13)
H15_5 H 0.9775 0.5358 0.6185
C23_5 C 0.8399(2) 0.53705(18) 0.62487(11)
C24_5 C 0.7628(2) 0.4876(2) 0.61909(15)
H16_5 H 0.7060 0.5077 0.6276
C25_5 C 0.7680(2) 0.4092(2) 0.60099(16)
H17_5 H 0.7150 0.3773 0.5977
C26_5 C 0.8316(2) 0.62390(19) 0.64074(12)
H18_5 H 0.7872 0.6289 0.6676
H19_5 H 0.8911 0.6434 0.6565
C27_5 C 0.8002(2) 0.67354(18) 0.59184(12)
O5_3 O 0.50411(19) 0.73460(13) 0.57199(11)
O6_3 O 0.45877(19) 0.79347(19) 0.49663(10)
H10_6 H 0.4035 0.9266 0.0094
O2_4 O 0.04123(19) 0.29347(19) 0.00337(10)
O6_4 O 0.54123(19) 0.79347(19) 0.00337(10)
H2_6 H 0.1223 0.9921 0.7427
N3_6 N 0.02711(18) 0.96873(15) 0.65274(10)
N6_6 N 0.21791(17) 0.96250(15) 0.83135(10)
N7_6 N 0.33654(18) 0.86404(15) 0.95082(9)
C13_6 C 0.2685(2) 0.94294(18) 0.87927(11)
C16_6 C 0.3693(2) 0.9319(2) 0.97607(12)
C17_6 C 0.2882(2) 0.86864(18) 0.90306(12)
H11_6 H 0.2673 0.8218 0.8854
O4_6 O 0.28585(19) 0.67396(16) 0.92198(11)
C18_6 C 0.0565(2) 0.27210(18) 0.95699(14)
C19_6 C 0.1452(3) 0.2924(2) 0.9348(2)
H12_6 H 0.1953 0.2862 0.9631
H13_6 H 0.1558 0.2545 0.9062
C20_6 C 0.1478(2) 0.37755(19) 0.91228(14)
C21_6 C 0.0703(2) 0.4250(2) 0.90415(14)
H14_6 H 0.0128 0.4039 0.9107
C22_6 C 0.0759(2) 0.5045(2) 0.88614(13)
H15_6 H 0.0225 0.5358 0.8815
C23_6 C 0.1601(2) 0.53705(18) 0.87513(11)
C24_6 C 0.2372(2) 0.4876(2) 0.88091(15)
H16_6 H 0.2940 0.5077 0.8724
C25_6 C 0.2320(2) 0.4092(2) 0.89901(16)
H17_6 H 0.2850 0.3773 0.9023
C26_6 C 0.1684(2) 0.62390(19) 0.85926(12)
H18_6 H 0.2128 0.6289 0.8324
H19_6 H 0.1089 0.6434 0.8435
C27_6 C 0.1998(2) 0.67354(18) 0.90816(12)
O5_4 O 0.49589(19) 0.73460(13) 0.92801(11)
C7_6 C 0.9765(2) 0.95365(18) 0.60403(11)
C10_6 C 0.8779(2) 0.95171(19) 0.50600(12)
H6_6 H 0.8438 0.9497 0.4725
C11_6 C 0.9525(2) 0.88169(18) 0.57777(12)
H7_6 H 0.9703 0.8331 0.5942
O1_4 O 0.99589(19) 0.23460(13) 0.92801(11)
H6_7 H 0.6562 0.4497 0.0275
N1_3 N 0.3579(3) 0.71368(19) 0.76025(13)
C1_3 C 0.4084(3) 0.67458(19) 0.79932(13)
H1_3 H 0.4391 0.7043 0.8271
C2_3 C 0.41703(19) 0.59198(17) 0.80041(11)
C3_3 C 0.37305(18) 0.54788(18) 0.75778(11)
H2_7 H 0.3777 0.4921 0.7573
C4_3 C 0.3219(2) 0.58837(18) 0.71573(11)
C5_3 C 0.3181(3) 0.6711(2) 0.71944(13)
H3_3 H 0.2853 0.6990 0.6914
N2_3 N 0.51534(17) 0.58483(14) 0.88787(9)
H4_3 H 0.5214 0.6359 0.8927
N3_7 N 0.47289(18) 0.46873(15) 0.84726(10)
C6_3 C 0.46857(19) 0.54771(17) 0.84449(11)
C7_7 C 0.5235(2) 0.45365(18) 0.89597(11)
C8_3 C 0.55020(19) 0.52649(17) 0.92168(11)
C9_3 C 0.6020(2) 0.52628(19) 0.97153(12)
H5_3 H 0.6220 0.5737 0.9887
C10_7 C 0.6221(2) 0.45171(19) 0.99400(12)
C11_7 C 0.5475(2) 0.38169(18) 0.92223(12)
H7_7 H 0.5297 0.3331 0.9058
N5_3 N 0.22621(18) 0.57511(15) 0.62749(9)
H8_3 H 0.2151 0.6254 0.6217
N6_7 N 0.28209(17) 0.46250(15) 0.66865(10)
N7_7 N 0.16346(18) 0.36404(15) 0.54918(9)
C12_3 C 0.2764(2) 0.54302(17) 0.67107(11)
C13_7 C 0.2315(2) 0.44294(18) 0.62073(11)
C14_3 C 0.1968(2) 0.51278(17) 0.59474(11)
C15_3 C 0.1450(2) 0.50836(19) 0.54469(12)
H9_3 H 0.1217 0.5540 0.5265
C16_7 C 0.1307(2) 0.4319(2) 0.52393(12)
H10_7 H 0.0965 0.4266 0.4906
C17_7 C 0.2118(2) 0.36864(18) 0.59694(12)
H11_7 H 0.2327 0.3218 0.6146
O4_7 O 0.21415(19) 0.17396(16) 0.57802(11)
C22_7 C 0.4241(2) 0.0045(2) 0.61386(13)
H15_7 H 0.4775 0.0358 0.6185
C23_7 C 0.3399(2) 0.03705(18) 0.62487(11)
H16_7 H 0.2060 0.0077 0.6276
C26_7 C 0.3316(2) 0.12390(19) 0.64074(12)
H18_7 H 0.2872 0.1289 0.6676
H19_7 H 0.3911 0.1434 0.6565
C27_7 C 0.3002(2) 0.17354(18) 0.59184(12)
C18_7 C 0.4435(2) 0.77210(18) 0.54301(14)
C19_7 C 0.3548(3) 0.7924(2) 0.5652(2)
H12_7 H 0.3047 0.7862 0.5369
H13_7 H 0.3442 0.7545 0.5938
C20_7 C 0.3522(2) 0.87755(19) 0.58772(14)
C21_7 C 0.4297(2) 0.9250(2) 0.59585(14)
H14_7 H 0.4872 0.9039 0.5893
C24_7 C 0.2628(2) 0.9876(2) 0.61909(15)
C25_7 C 0.2680(2) 0.9092(2) 0.60099(16)
H17_7 H 0.2150 0.8773 0.5977
H10_8 H 0.9035 0.4266 0.0094
N1_4 N 0.6421(3) 0.71368(19) 0.73975(13)
C1_4 C 0.5916(3) 0.67458(19) 0.70068(13)
H1_4 H 0.5609 0.7043 0.6729
C2_4 C 0.58297(19) 0.59198(17) 0.69959(11)
C3_4 C 0.62695(18) 0.54788(18) 0.74222(11)
H2_8 H 0.6223 0.4921 0.7427
C4_4 C 0.6781(2) 0.58837(18) 0.78427(11)
C5_4 C 0.6819(3) 0.6711(2) 0.78056(13)
H3_4 H 0.7147 0.6990 0.8086
N2_4 N 0.48466(17) 0.58483(14) 0.61213(9)
H4_4 H 0.4786 0.6359 0.6073
N3_8 N 0.52711(18) 0.46873(15) 0.65274(10)
C6_4 C 0.53143(19) 0.54771(17) 0.65551(11)
C7_8 C 0.4765(2) 0.45365(18) 0.60403(11)
C8_4 C 0.44980(19) 0.52649(17) 0.57832(11)
C9_4 C 0.3980(2) 0.52628(19) 0.52847(12)
H5_4 H 0.3780 0.5737 0.5113
C10_8 C 0.3779(2) 0.45171(19) 0.50600(12)
H6_8 H 0.3438 0.4497 0.4725
C11_8 C 0.4525(2) 0.38169(18) 0.57777(12)
H7_8 H 0.4703 0.3331 0.5942
N5_4 N 0.77379(18) 0.57511(15) 0.87251(9)
H8_4 H 0.7849 0.6254 0.8783
N6_8 N 0.71791(17) 0.46250(15) 0.83135(10)
N7_8 N 0.83654(18) 0.36404(15) 0.95082(9)
C12_4 C 0.7236(2) 0.54302(17) 0.82893(11)
C13_8 C 0.7685(2) 0.44294(18) 0.87927(11)
C14_4 C 0.8032(2) 0.51278(17) 0.90526(11)
C15_4 C 0.8550(2) 0.50836(19) 0.95531(12)
H9_4 H 0.8783 0.5540 0.9735
C16_8 C 0.8693(2) 0.4319(2) 0.97607(12)
C17_8 C 0.7882(2) 0.36864(18) 0.90306(12)
H11_8 H 0.7673 0.3218 0.8854
O4_8 O 0.78585(19) 0.17396(16) 0.92198(11)
C22_8 C 0.5759(2) 0.0045(2) 0.88614(13)
H15_8 H 0.5225 0.0358 0.8815
C23_8 C 0.6601(2) 0.03705(18) 0.87513(11)
H16_8 H 0.7940 0.0077 0.8724
C26_8 C 0.6684(2) 0.12390(19) 0.85926(12)
H18_8 H 0.7128 0.1289 0.8324
H19_8 H 0.6089 0.1434 0.8435
C27_8 C 0.6998(2) 0.17354(18) 0.90816(12)
C18_8 C 0.5565(2) 0.77210(18) 0.95699(14)
C19_8 C 0.6452(3) 0.7924(2) 0.9348(2)
H12_8 H 0.6953 0.7862 0.9631
H13_8 H 0.6558 0.7545 0.9062
C20_8 C 0.6478(2) 0.87755(19) 0.91228(14)
C21_8 C 0.5703(2) 0.9250(2) 0.90415(14)
H14_8 H 0.5128 0.9039 0.9107
C24_8 C 0.7372(2) 0.9876(2) 0.88091(15)
C25_8 C 0.7320(2) 0.9092(2) 0.89901(16)
H17_8 H 0.7850 0.8773 0.9023
N1_5 N 0.1421(3) 0.78632(19) 0.23975(13)
C1_5 C 0.0916(3) 0.82542(19) 0.20068(13)
H1_5 H 0.0609 0.7957 0.1729
C2_5 C 0.08297(19) 0.90802(17) 0.19959(11)
C3_5 C 0.12695(18) 0.95212(18) 0.24222(11)
C4_5 C 0.1781(2) 0.91163(18) 0.28427(11)
C5_5 C 0.1819(3) 0.8289(2) 0.28056(13)
H3_5 H 0.2147 0.8010 0.3086
C6_5 C 0.03143(19) 0.95229(17) 0.15551(11)
N5_5 N 0.27379(18) 0.92489(15) 0.37251(9)
H8_5 H 0.2849 0.8746 0.3783
C12_5 C 0.2236(2) 0.95698(17) 0.32893(11)
C14_5 C 0.3032(2) 0.98722(17) 0.40526(11)
C15_5 C 0.3550(2) 0.99164(19) 0.45531(12)
H9_5 H 0.3783 0.9460 0.4735
N2_5 N 0.98466(17) 0.91517(14) 0.11213(9)
H4_5 H 0.9786 0.8641 0.1073
C8_5 C 0.94980(19) 0.97351(17) 0.07832(11)
C9_5 C 0.8980(2) 0.97372(19) 0.02847(12)
H5_5 H 0.8780 0.9263 0.0113
N2_6 N 0.01534(17) 0.91517(14) 0.38787(9)
H4_6 H 0.0214 0.8641 0.3927
C8_6 C 0.05020(19) 0.97351(17) 0.42168(11)
C9_6 C 0.1020(2) 0.97372(19) 0.47153(12)
H5_6 H 0.1220 0.9263 0.4887
N1_6 N 0.8579(3) 0.78632(19) 0.26025(13)
C1_6 C 0.9084(3) 0.82542(19) 0.29932(13)
H1_6 H 0.9391 0.7957 0.3271
C2_6 C 0.91703(19) 0.90802(17) 0.30041(11)
C3_6 C 0.87305(18) 0.95212(18) 0.25778(11)
C4_6 C 0.8219(2) 0.91163(18) 0.21573(11)
C5_6 C 0.8181(3) 0.8289(2) 0.21944(13)
H3_6 H 0.7853 0.8010 0.1914
C6_6 C 0.96857(19) 0.95229(17) 0.34449(11)
N5_6 N 0.72621(18) 0.92489(15) 0.12749(9)
H8_6 H 0.7151 0.8746 0.1217
C12_6 C 0.7764(2) 0.95698(17) 0.17107(11)
C14_6 C 0.6968(2) 0.98722(17) 0.09474(11)
C15_6 C 0.6450(2) 0.99164(19) 0.04469(12)
H9_6 H 0.6217 0.9460 0.0265
N2_7 N 0.01534(17) 0.08483(14) 0.88787(9)
H4_7 H 0.0214 0.1359 0.8927
C8_7 C 0.05020(19) 0.02649(17) 0.92168(11)
C9_7 C 0.1020(2) 0.02628(19) 0.97153(12)
H5_7 H 0.1220 0.0737 0.9887
N1_7 N 0.8579(3) 0.21368(19) 0.76025(13)
C1_7 C 0.9084(3) 0.17458(19) 0.79932(13)
H1_7 H 0.9391 0.2043 0.8271
C2_7 C 0.91703(19) 0.09198(17) 0.80041(11)
C3_7 C 0.87305(18) 0.04788(18) 0.75778(11)
C4_7 C 0.8219(2) 0.08837(18) 0.71573(11)
C5_7 C 0.8181(3) 0.1711(2) 0.71944(13)
H3_7 H 0.7853 0.1990 0.6914
C6_7 C 0.96857(19) 0.04771(17) 0.84449(11)
N5_7 N 0.72621(18) 0.07511(15) 0.62749(9)
H8_7 H 0.7151 0.1254 0.6217
C12_7 C 0.7764(2) 0.04302(17) 0.67107(11)
C14_7 C 0.6968(2) 0.01278(17) 0.59474(11)
C15_7 C 0.6450(2) 0.00836(19) 0.54469(12)
H9_7 H 0.6217 0.0540 0.5265
N1_8 N 0.1421(3) 0.21368(19) 0.73975(13)
C1_8 C 0.0916(3) 0.17458(19) 0.70068(13)
H1_8 H 0.0609 0.2043 0.6729
C2_8 C 0.08297(19) 0.09198(17) 0.69959(11)
C3_8 C 0.12695(18) 0.04788(18) 0.74222(11)
C4_8 C 0.1781(2) 0.08837(18) 0.78427(11)
C5_8 C 0.1819(3) 0.1711(2) 0.78056(13)
H3_8 H 0.2147 0.1990 0.8086
C6_8 C 0.03143(19) 0.04771(17) 0.65551(11)
N5_8 N 0.27379(18) 0.07511(15) 0.87251(9)
H8_8 H 0.2849 0.1254 0.8783
C12_8 C 0.2236(2) 0.04302(17) 0.82893(11)
C14_8 C 0.3032(2) 0.01278(17) 0.90526(11)
C15_8 C 0.3550(2) 0.00836(19) 0.95531(12)
H9_8 H 0.3783 0.0540 0.9735
N2_8 N 0.98466(17) 0.08483(14) 0.61213(9)
H4_8 H 0.9786 0.1359 0.6073
C8_8 C 0.94980(19) 0.02649(17) 0.57832(11)
C9_8 C 0.8980(2) 0.02628(19) 0.52847(12)
H5_8 H 0.8780 0.0737 0.5113
loop_
_geom_bond_atom_site_label_1
_geom_bond_atom_site_label_2
_geom_bond_site_symmetry_1
_geom_bond_site_symmetry_2
Cd1 N7 1_555 1_555
N7 C16 1_555 1_555
C13 N6 1_555 1_555
H10 C16 1_555 1_555
C17 N7 1_555 1_555
H11 C17 1_555 1_555
O2 C18 1_555 1_555
O3 C27 1_555 1_555
O4 Cd1 1_555 1_555
C18 C19 1_555 1_555
C19 H12 1_555 1_555
H13 C19 1_555 1_555
C20 C19 1_555 1_555
C21 C20 1_555 1_555
H14 C21 1_555 1_555
C22 C21 1_555 1_555
H15 C22 1_555 1_555
C23 C22 1_555 1_555
C24 C23 1_555 1_555
H16 C24 1_555 1_555
C25 C20 1_555 1_555
H17 C25 1_555 1_555
C26 C23 1_555 1_555
H18 C26 1_555 1_555
H19 C26 1_555 1_555
C27 O4 1_555 1_555
Cd3 O3 1_555 1_555
N8 Cd1 1_555 1_555
O5 Cd1 1_555 1_555
O6 Cd1 1_555 1_555
O7 Cd1 1_555 1_555
C13 C17 1_555 1_555
C24 C25 1_555 1_555
C26 C27 1_555 1_555
N4 C10 1_555 1_555
C11 N4 1_555 1_555
H7 C11 1_555 1_555
Cd2 O1 1_555 1_555
C7 C11 1_555 1_555
N4_2 C10_2 1_555 1_555
H6_2 C10_2 1_555 1_555
C11_2 N4_2 1_555 1_555
H7_2 C11_2 1_555 1_555
Cd2_2 O1_2 1_555 1_555
Cd3 N4_2 1_555 1_555
C7_2 C11_2 1_555 1_555
Cd1_2 N7_2 1_555 1_555
N7_2 C16_2 1_555 1_555
C13_2 N6_2 1_555 1_555
C17_2 N7_2 1_555 1_555
H11_2 C17_2 1_555 1_555
O3_2 C27_2 1_555 1_555
O4_2 Cd1_2 1_555 1_555
C18_2 C19_2 1_555 1_555
C19_2 H12_2 1_555 1_555
H13_2 C19_2 1_555 1_555
C20_2 C19_2 1_555 1_555
C21_2 C20_2 1_555 1_555
H14_2 C21_2 1_555 1_555
C22_2 C21_2 1_555 1_555
H15_2 C22_2 1_555 1_555
C23_2 C22_2 1_555 1_555
C24_2 C23_2 1_555 1_555
H16_2 C24_2 1_555 1_555
C25_2 C20_2 1_555 1_555
H17_2 C25_2 1_555 1_555
C26_2 C23_2 1_555 1_555
H18_2 C26_2 1_555 1_555
H19_2 C26_2 1_555 1_555
C27_2 O4_2 1_555 1_555
O5_2 Cd1_2 1_555 1_555
C13_2 C17_2 1_555 1_555
C24_2 C25_2 1_555 1_555
C26_2 C27_2 1_555 1_555
O5 C18_3 1_555 1_555
O6 C18_3 1_555 1_555
C18_3 C19_3 1_555 1_555
C19_3 H12_3 1_555 1_555
H13_3 C19_3 1_555 1_555
C20_3 C19_3 1_555 1_555
C21_3 C20_3 1_555 1_555
H14_3 C21_3 1_555 1_555
C25_3 C20_3 1_555 1_555
H17_3 C25_3 1_555 1_555
C24_3 C25_3 1_555 1_555
Cd2 N7_3 1_555 1_555
N1 C1 1_555 1_555
C1 H1 1_555 1_555
C2 C1 1_555 1_555
C3 C2 1_555 1_555
H2_3 C3 1_555 1_555
C4 C3 1_555 1_555
C5 N1 1_555 1_555
H3 C5 1_555 1_555
N2 H4 1_555 1_555
N3_3 C6 1_555 1_555
N4_3 C10_3 1_555 1_555
C6 C2 1_555 1_555
C7_3 N3_3 1_555 1_555
C8 N2 1_555 1_555
C9 C8 1_555 1_555
H5 C9 1_555 1_555
C10_3 C9 1_555 1_555
C11_3 N4_3 1_555 1_555
H7_3 C11_3 1_555 1_555
N5 H8 1_555 1_555
N6_3 C12 1_555 1_555
N7_3 C16_3 1_555 1_555
C12 C4 1_555 1_555
C13_3 N6_3 1_555 1_555
C14 N5 1_555 1_555
C15 C14 1_555 1_555
H9 C15 1_555 1_555
C16_3 C15 1_555 1_555
H10_3 C16_3 1_555 1_555
C17_3 N7_3 1_555 1_555
H11_3 C17_3 1_555 1_555
O3_3 C27_3 1_555 1_555
O4_3 Cd2 1_555 1_555
H15_3 C22_3 1_555 1_555
C23_3 C22_3 1_555 1_555
C26_3 C23_3 1_555 1_555
H18_3 C26_3 1_555 1_555
H19_3 C26_3 1_555 1_555
C27_3 O4_3 1_555 1_555
Cd3_2 O3_3 1_555 1_555
N8_3 Cd2 1_555 1_555
O7_3 Cd2 1_555 1_555
C4 C5 1_555 1_555
N2 C6 1_555 1_555
C7_3 C8 1_555 1_555
C7_3 C11_3 1_555 1_555
N5 C12 1_555 1_555
C13_3 C14 1_555 1_555
C13_3 C17_3 1_555 1_555
C26_3 C27_3 1_555 1_555
O5_2 C18_4 1_555 1_555
C18_4 C19_4 1_555 1_555
C19_4 H12_4 1_555 1_555
H13_4 C19_4 1_555 1_555
C20_4 C19_4 1_555 1_555
C21_4 C20_4 1_555 1_555
H14_4 C21_4 1_555 1_555
C25_4 C20_4 1_555 1_555
H17_4 C25_4 1_555 1_555
C24_4 C25_4 1_555 1_555
Cd2_2 N7_4 1_555 1_555
N1_2 C1_2 1_555 1_555
C1_2 H1_2 1_555 1_555
C2_2 C1_2 1_555 1_555
C3_2 C2_2 1_555 1_555
H2_4 C3_2 1_555 1_555
C4_2 C3_2 1_555 1_555
C5_2 N1_2 1_555 1_555
H3_2 C5_2 1_555 1_555
N2_2 H4_2 1_555 1_555
N3_4 C6_2 1_555 1_555
N4_4 C10_4 1_555 1_555
C6_2 C2_2 1_555 1_555
C7_4 N3_4 1_555 1_555
C8_2 N2_2 1_555 1_555
C9_2 C8_2 1_555 1_555
H5_2 C9_2 1_555 1_555
C10_4 C9_2 1_555 1_555
H6_4 C10_4 1_555 1_555
C11_4 N4_4 1_555 1_555
H7_4 C11_4 1_555 1_555
N5_2 H8_2 1_555 1_555
N6_4 C12_2 1_555 1_555
N7_4 C16_4 1_555 1_555
C12_2 C4_2 1_555 1_555
C13_4 N6_4 1_555 1_555
C14_2 N5_2 1_555 1_555
C15_2 C14_2 1_555 1_555
H9_2 C15_2 1_555 1_555
C16_4 C15_2 1_555 1_555
C17_4 N7_4 1_555 1_555
H11_4 C17_4 1_555 1_555
O3_4 C27_4 1_555 1_555
O4_4 Cd2_2 1_555 1_555
H15_4 C22_4 1_555 1_555
C23_4 C22_4 1_555 1_555
C26_4 C23_4 1_555 1_555
H18_4 C26_4 1_555 1_555
H19_4 C26_4 1_555 1_555
C27_4 O4_4 1_555 1_555
Cd3_2 N4_4 1_555 1_555
C4_2 C5_2 1_555 1_555
N2_2 C6_2 1_555 1_555
C7_4 C8_2 1_555 1_555
C7_4 C11_4 1_555 1_555
N5_2 C12_2 1_555 1_555
C13_4 C14_2 1_555 1_555
C13_4 C17_4 1_555 1_555
C26_4 C27_4 1_555 1_555
N8_4 C10_5 1_555 1_555
C11_5 N8_4 1_555 1_555
H7_5 C11_5 1_555 1_555
Cd3 O1_3 1_555 1_555
C7_5 C11_5 1_555 1_555
Cd3_2 N7_5 1_555 1_555
N7_5 C16_5 1_555 1_555
C13_5 N6_5 1_555 1_555
H10_5 C16_5 1_555 1_555
C17_5 N7_5 1_555 1_555
H11_5 C17_5 1_555 1_555
O2_3 C18_5 1_555 1_555
O7_3 C27_5 1_555 1_555
O4_5 Cd3_2 1_555 1_555
C18_5 C19_5 1_555 1_555
C19_5 H12_5 1_555 1_555
H13_5 C19_5 1_555 1_555
C20_5 C19_5 1_555 1_555
C21_5 C20_5 1_555 1_555
H14_5 C21_5 1_555 1_555
C22_5 C21_5 1_555 1_555
H15_5 C22_5 1_555 1_555
C23_5 C22_5 1_555 1_555
C24_5 C23_5 1_555 1_555
H16_5 C24_5 1_555 1_555
C25_5 C20_5 1_555 1_555
H17_5 C25_5 1_555 1_555
C26_5 C23_5 1_555 1_555
H18_5 C26_5 1_555 1_555
H19_5 C26_5 1_555 1_555
C27_5 O4_5 1_555 1_555
O5_3 Cd3_2 1_555 1_555
O6_3 Cd3_2 1_555 1_555
C13_5 C17_5 1_555 1_555
C24_5 C25_5 1_555 1_555
C26_5 C27_5 1_555 1_555
Cd4_2 N7_6 1_555 1_555
N7_6 C16_6 1_555 1_555
C13_6 N6_6 1_555 1_555
C17_6 N7_6 1_555 1_555
H11_6 C17_6 1_555 1_555
O7_4 C27_6 1_555 1_555
O4_6 Cd4_2 1_555 1_555
C18_6 C19_6 1_555 1_555
C19_6 H12_6 1_555 1_555
H13_6 C19_6 1_555 1_555
C20_6 C19_6 1_555 1_555
C21_6 C20_6 1_555 1_555
H14_6 C21_6 1_555 1_555
C22_6 C21_6 1_555 1_555
H15_6 C22_6 1_555 1_555
C23_6 C22_6 1_555 1_555
C24_6 C23_6 1_555 1_555
H16_6 C24_6 1_555 1_555
C25_6 C20_6 1_555 1_555
H17_6 C25_6 1_555 1_555
C26_6 C23_6 1_555 1_555
H18_6 C26_6 1_555 1_555
H19_6 C26_6 1_555 1_555
C27_6 O4_6 1_555 1_555
O5_4 Cd4_2 1_555 1_555
C13_6 C17_6 1_555 1_555
C24_6 C25_6 1_555 1_555
C26_6 C27_6 1_555 1_555
N8_3 C10_6 1_555 1_555
H6_6 C10_6 1_555 1_555
C11_6 N8_3 1_555 1_555
H7_6 C11_6 1_555 1_555
Cd4 O1_4 1_555 1_555
C7_6 C11_6 1_555 1_555
Cd3 N7_7 1_555 1_555
N1_3 C1_3 1_555 1_555
C1_3 H1_3 1_555 1_555
C2_3 C1_3 1_555 1_555
C3_3 C2_3 1_555 1_555
H2_7 C3_3 1_555 1_555
C4_3 C3_3 1_555 1_555
C5_3 N1_3 1_555 1_555
H3_3 C5_3 1_555 1_555
N2_3 H4_3 1_555 1_555
N3_7 C6_3 1_555 1_555
N8_2 C10_7 1_555 1_555
C6_3 C2_3 1_555 1_555
C7_7 N3_7 1_555 1_555
C8_3 N2_3 1_555 1_555
C9_3 C8_3 1_555 1_555
H5_3 C9_3 1_555 1_555
C10_7 C9_3 1_555 1_555
C11_7 N8_2 1_555 1_555
H7_7 C11_7 1_555 1_555
N5_3 H8_3 1_555 1_555
N6_7 C12_3 1_555 1_555
N7_7 C16_7 1_555 1_555
C12_3 C4_3 1_555 1_555
C13_7 N6_7 1_555 1_555
C14_3 N5_3 1_555 1_555
C15_3 C14_3 1_555 1_555
H9_3 C15_3 1_555 1_555
C16_7 C15_3 1_555 1_555
H10_7 C16_7 1_555 1_555
C17_7 N7_7 1_555 1_555
H11_7 C17_7 1_555 1_555
O7 C27_7 1_555 1_555
O4_7 Cd3 1_555 1_555
H15_7 C22_7 1_555 1_555
C23_7 C22_7 1_555 1_555
C26_7 C23_7 1_555 1_555
H18_7 C26_7 1_555 1_555
H19_7 C26_7 1_555 1_555
C27_7 O4_7 1_555 1_555
C4_3 C5_3 1_555 1_555
N2_3 C6_3 1_555 1_555
C7_7 C8_3 1_555 1_555
C7_7 C11_7 1_555 1_555
N5_3 C12_3 1_555 1_555
C13_7 C14_3 1_555 1_555
C13_7 C17_7 1_555 1_555
C26_7 C27_7 1_555 1_555
O5_3 C18_7 1_555 1_555
O6_3 C18_7 1_555 1_555
C18_7 C19_7 1_555 1_555
C19_7 H12_7 1_555 1_555
H13_7 C19_7 1_555 1_555
C20_7 C19_7 1_555 1_555
C21_7 C20_7 1_555 1_555
H14_7 C21_7 1_555 1_555
C25_7 C20_7 1_555 1_555
H17_7 C25_7 1_555 1_555
C24_7 C25_7 1_555 1_555
Cd4 N7_8 1_555 1_555
N1_4 C1_4 1_555 1_555
C1_4 H1_4 1_555 1_555
C2_4 C1_4 1_555 1_555
C3_4 C2_4 1_555 1_555
H2_8 C3_4 1_555 1_555
C4_4 C3_4 1_555 1_555
C5_4 N1_4 1_555 1_555
H3_4 C5_4 1_555 1_555
N2_4 H4_4 1_555 1_555
N3_8 C6_4 1_555 1_555
N8 C10_8 1_555 1_555
C6_4 C2_4 1_555 1_555
C7_8 N3_8 1_555 1_555
C8_4 N2_4 1_555 1_555
C9_4 C8_4 1_555 1_555
H5_4 C9_4 1_555 1_555
C10_8 C9_4 1_555 1_555
H6_8 C10_8 1_555 1_555
C11_8 N8 1_555 1_555
H7_8 C11_8 1_555 1_555
N5_4 H8_4 1_555 1_555
N6_8 C12_4 1_555 1_555
N7_8 C16_8 1_555 1_555
C12_4 C4_4 1_555 1_555
C13_8 N6_8 1_555 1_555
C14_4 N5_4 1_555 1_555
C15_4 C14_4 1_555 1_555
H9_4 C15_4 1_555 1_555
C16_8 C15_4 1_555 1_555
C17_8 N7_8 1_555 1_555
H11_8 C17_8 1_555 1_555
O7_2 C27_8 1_555 1_555
O4_8 Cd4 1_555 1_555
H15_8 C22_8 1_555 1_555
C23_8 C22_8 1_555 1_555
C26_8 C23_8 1_555 1_555
H18_8 C26_8 1_555 1_555
H19_8 C26_8 1_555 1_555
C27_8 O4_8 1_555 1_555
C4_4 C5_4 1_555 1_555
N2_4 C6_4 1_555 1_555
C7_8 C8_4 1_555 1_555
C7_8 C11_8 1_555 1_555
N5_4 C12_4 1_555 1_555
C13_8 C14_4 1_555 1_555
C13_8 C17_8 1_555 1_555
C26_8 C27_8 1_555 1_555
O5_4 C18_8 1_555 1_555
C18_8 C19_8 1_555 1_555
C19_8 H12_8 1_555 1_555
H13_8 C19_8 1_555 1_555
C20_8 C19_8 1_555 1_555
C21_8 C20_8 1_555 1_555
H14_8 C21_8 1_555 1_555
C25_8 C20_8 1_555 1_555
H17_8 C25_8 1_555 1_555
C24_8 C25_8 1_555 1_555
N1_5 C1_5 1_555 1_555
C1_5 H1_5 1_555 1_555
C2_5 C1_5 1_555 1_555
C3_5 C2_5 1_555 1_555
C4_5 C3_5 1_555 1_555
C5_5 N1_5 1_555 1_555
H3_5 C5_5 1_555 1_555
C6_5 C2_5 1_555 1_555
N5_5 H8_5 1_555 1_555
C12_5 C4_5 1_555 1_555
C14_5 N5_5 1_555 1_555
C15_5 C14_5 1_555 1_555
H9_5 C15_5 1_555 1_555
C4_5 C5_5 1_555 1_555
N5_5 C12_5 1_555 1_555
N2_5 H4_5 1_555 1_555
C8_5 N2_5 1_555 1_555
C9_5 C8_5 1_555 1_555
H5_5 C9_5 1_555 1_555
N2_6 H4_6 1_555 1_555
C8_6 N2_6 1_555 1_555
C9_6 C8_6 1_555 1_555
H5_6 C9_6 1_555 1_555
N1_6 C1_6 1_555 1_555
C1_6 H1_6 1_555 1_555
C2_6 C1_6 1_555 1_555
C3_6 C2_6 1_555 1_555
C4_6 C3_6 1_555 1_555
C5_6 N1_6 1_555 1_555
H3_6 C5_6 1_555 1_555
C6_6 C2_6 1_555 1_555
N5_6 H8_6 1_555 1_555
C12_6 C4_6 1_555 1_555
C14_6 N5_6 1_555 1_555
C15_6 C14_6 1_555 1_555
H9_6 C15_6 1_555 1_555
C4_6 C5_6 1_555 1_555
N5_6 C12_6 1_555 1_555
N2_7 H4_7 1_555 1_555
C8_7 N2_7 1_555 1_555
C9_7 C8_7 1_555 1_555
H5_7 C9_7 1_555 1_555
N1_7 C1_7 1_555 1_555
C1_7 H1_7 1_555 1_555
C2_7 C1_7 1_555 1_555
C3_7 C2_7 1_555 1_555
C4_7 C3_7 1_555 1_555
C5_7 N1_7 1_555 1_555
H3_7 C5_7 1_555 1_555
C6_7 C2_7 1_555 1_555
N5_7 H8_7 1_555 1_555
C12_7 C4_7 1_555 1_555
C14_7 N5_7 1_555 1_555
C15_7 C14_7 1_555 1_555
H9_7 C15_7 1_555 1_555
C4_7 C5_7 1_555 1_555
N5_7 C12_7 1_555 1_555
N1_8 C1_8 1_555 1_555
C1_8 H1_8 1_555 1_555
C2_8 C1_8 1_555 1_555
C3_8 C2_8 1_555 1_555
C4_8 C3_8 1_555 1_555
C5_8 N1_8 1_555 1_555
H3_8 C5_8 1_555 1_555
C6_8 C2_8 1_555 1_555
N5_8 H8_8 1_555 1_555
C12_8 C4_8 1_555 1_555
C14_8 N5_8 1_555 1_555
C15_8 C14_8 1_555 1_555
H9_8 C15_8 1_555 1_555
C4_8 C5_8 1_555 1_555
N5_8 C12_8 1_555 1_555
N2_8 H4_8 1_555 1_555
C8_8 N2_8 1_555 1_555
C9_8 C8_8 1_555 1_555
H5_8 C9_8 1_555 1_555

#END
