
###############################################################################
#
# This file contains modified crystal structure data generated from the
# MOF subset of the Cambridge Structural Database (CSD) v543 
# hosted by the Cambridge Crystallographic Data Centre (CCDC).
#
# This work is licensed under the Creative Commons
# Attribution-NonCommercial-ShareAlike 4.0 International License.
# To view a copy of this license, visit
# http://creativecommons.org/licenses/by-nc-sa/4.0/
# or send a letter to
# Creative Commons, PO Box 1866, Mountain View, CA 94042, USA.
#
# CIF created using the CSD Python API on 29 September 2022
# The structure has been converted into the P1 space group
# The structure has a 3D framework
# The original CSD entry ETIJUP is in the monoclinic crystal system
# The framework has been calculated to contain at least 10.0% void space
# The void calculation uses a probe of radius 1.32A, grid spacing 0.4
#
###############################################################################

data_ETIJUP
_chemical_formula_moiety         '(C600 H416 Cd24 N48 O108)n'
_symmetry_cell_setting           triclinic
_symmetry_space_group_name_H-M   'P 1'
_symmetry_Int_Tables_number      1
_space_group_name_Hall           'P 1'
loop_
_symmetry_equiv_pos_site_id
_symmetry_equiv_pos_as_xyz
1 x,y,z
_cell_length_a                   37.209(2)
_cell_length_b                   26.8586(16)
_cell_length_c                   22.6033(14)
_cell_angle_alpha                90
_cell_angle_beta                 111.5580(10)
_cell_angle_gamma                90
_cell_volume                     21009.1
loop_
_atom_site_label
_atom_site_type_symbol
_atom_site_fract_x
_atom_site_fract_y
_atom_site_fract_z
N6 N 0.2024(2) 0.1997(3) 0.0891(4)
C71 C 0.1637(3) 0.1978(5) 0.0688(6)
H46 H 0.1514 0.1816 0.0936
C73 C 0.1423(3) 0.2194(6) 0.0123(7)
C74 C 0.1972(4) 0.2521(5) 0.0019(7)
C75 C 0.2174(4) 0.2246(9) 0.0544(9)
H50 H 0.2447 0.2236 0.0667
Cd9 Cd 0.24119(2) 0.15735(2) 0.17597(3)
Cd3 Cd 0.25881(2) 0.34265(2) 0.82403(3)
O3 O 0.00016(13) 0.25259(15) 0.3155(2)
C1 C 0.0530(2) 0.5557(3) 0.7608(4)
O4 O 0.3101(2) 0.3574(3) 0.7929(5)
H1 H 0.3166 0.3304 0.7801
H2 H 0.3291 0.3687 0.8242
N1 N 0.09272(17) 0.1491(2) 0.5818(3)
C3 C 0.16755(18) 0.2469(2) 0.6455(3)
H3 H 0.1813 0.2699 0.6297
N3 N 0.05037(16) 0.6593(2) 0.7721(3)
C6 C 0.06097(18) 0.2143(2) 0.5053(3)
H5 H 0.0727 0.2388 0.5368
C7 C 0.09356(19) 0.0982(2) 0.6014(3)
C9 C 0.0284(3) 0.2462(3) 0.6244(4)
H7 H 0.0366 0.2144 0.6161
C11 C 0.01829(17) 0.1936(2) 0.3993(3)
C12 C 0.03748(18) 0.2290(2) 0.4447(3)
H8 H 0.0345 0.2634 0.4342
C15 C 0.04907(19) 0.1290(2) 0.4740(3)
H10 H 0.0536 0.0946 0.4831
C16 C 0.06778(19) 0.1640(2) 0.5209(3)
O9 O 0.22416(18) 0.3065(2) 0.7319(3)
C17 C 0.12026(18) 0.1820(2) 0.6245(3)
C18 C 0.1277(2) 0.0719(3) 0.6222(4)
H11 H 0.1511 0.0881 0.6258
C19 C 0.14119(19) 0.2154(2) 0.6033(3)
H12 H 0.1374 0.2166 0.5594
C21 C 0.0246(2) 0.1433(2) 0.4156(4)
H14 H 0.0115 0.1187 0.3852
C22 C 0.17459(19) 0.2461(3) 0.7093(4)
C24 C 0.2044(2) 0.2811(3) 0.7524(4)
C25 C 0.0596(3) 0.4706(3) 0.8088(4)
H15 H 0.0610 0.4853 0.8478
C31 C 0.0600(2) 0.0253(3) 0.6148(4)
H19 H 0.0367 0.0095 0.6126
C32 C 0.0596(2) 0.0751(3) 0.5988(4)
H20 H 0.0361 0.0935 0.5861
C35 C 0.0513(3) 0.2722(3) 0.6763(4)
H22 H 0.0756 0.2589 0.7026
C37 C 0.1282(2) 0.0218(3) 0.6381(4)
H24 H 0.1518 0.0036 0.6516
O10 O 0.20851(18) 0.2815(3) 0.8107(3)
C40 C 0.0972(4) 0.2539(4) 0.8770(5)
H27 H 0.0871 0.2257 0.8909
C41 C 0.0395(2) 0.3181(3) 0.6911(4)
C44 C 0.0544(2) 0.5007(3) 0.7573(4)
C46 C 0.0630(3) 0.4195(3) 0.8056(5)
H29 H 0.0674 0.3999 0.8426
C47 C 0.0600(2) 0.3967(3) 0.7499(4)
C49 C 0.1266(2) 0.1810(3) 0.6890(3)
H30 H 0.1124 0.1586 0.7044
C50 C 0.0745(3) 0.2776(4) 0.8234(5)
H31 H 0.0491 0.2655 0.8005
N5 N 0.0632(2) 0.3446(2) 0.7455(4)
C51 C 0.0040(3) 0.3369(3) 0.6521(5)
C52 C 0.0509(3) 0.4776(3) 0.6997(5)
H33 H 0.0466 0.4973 0.6628
C53 C 0.1536(2) 0.2124(3) 0.7311(4)
H34 H 0.1578 0.2109 0.7752
C56 C 0.1575(3) 0.2450(4) 0.9726(6)
C57 C 0.0873(3) 0.3177(3) 0.8025(4)
C62 C 0.0539(3) 0.4267(3) 0.6967(5)
H38 H 0.0516 0.4116 0.6575
C63 C 0.0636(3) 0.6299(3) 0.8217(4)
H39 H 0.0726 0.6450 0.8626
C64 C 0.1338(3) 0.2686(4) 0.9118(5)
C66 C 0.0655(3) 0.5788(3) 0.8192(5)
H41 H 0.0753 0.5598 0.8572
C68 C 0.0383(4) 0.6367(4) 0.7151(5)
H43 H 0.0302 0.6566 0.6778
C69 C 0.1485(3) 0.3073(5) 0.8866(6)
H44 H 0.1748 0.3166 0.9067
C70 C 0.0371(4) 0.5861(4) 0.7088(5)
H45 H 0.0251 0.5717 0.6679
C72 C 0.1251(4) 0.3329(4) 0.8319(6)
H47 H 0.1350 0.3601 0.8157
H48 H 0.1150 0.2169 0.9987
H49 H 0.2100 0.2758 0.9856
Cd4 Cd 0.05295(2) 0.25633(2) 0.28056(2)
Cd5 Cd 0.05295(2) 0.74367(2) 0.78056(2)
N8 N 0.2976(2) 0.3003(3) 0.9109(4)
O20 O 0.2509(3) 0.4254(3) 0.8023(4)
O21 O 0.2539(3) 0.4048(3) 0.8963(4)
O7 O 0.12417(15) 0.91932(18) 0.6671(3)
O8 O 0.06175(15) 0.92526(17) 0.6460(2)
C23 C 0.09403(19) 0.9984(2) 0.6340(3)
C59 C 0.0935(2) 0.9437(3) 0.6503(3)
Cd7 Cd 0.08785(2) 0.84988(2) 0.68806(3)
Cd1 Cd 0.94705(2) 0.25633(2) 0.21944(2)
Cd2 Cd 0.91215(2) 0.15012(2) 0.31194(3)
O1 O 0.90033(13) 0.2583(2) 0.2634(3)
O2 O 0.96665(12) 0.18265(17) 0.2988(2)
C2 C 0.99341(18) 0.2099(2) 0.3354(3)
N2 N 0.74080(17) 0.3566(2) 0.0842(3)
C8 C 0.70967(18) 0.2883(2) 0.0145(3)
H6 H 0.7326 0.2690 0.0316
C10 C 0.77141(19) 0.3273(2) 0.1258(3)
C13 C 0.7425(2) 0.4087(2) 0.0977(4)
N4 N 0.93065(19) 0.1886(2) 0.4096(3)
C20 C 0.8092(2) 0.3430(2) 0.1403(3)
H13 H 0.8143 0.3730 0.1225
C26 C 0.67500(19) 0.3642(2) 0.0080(3)
H16 H 0.6736 0.3969 0.0229
C27 C 0.8669(2) 0.2419(3) 0.2490(4)
C28 C 0.8332(2) 0.2717(2) 0.2079(3)
C29 C 0.9814(3) 0.3112(3) 0.5983(5)
H17 H 0.9576 0.3250 0.5709
C30 C 0.9495(3) 0.2642(3) 0.4696(4)
H18 H 0.9483 0.2996 0.4704
C33 C 0.70884(19) 0.3363(2) 0.0364(3)
C34 C 0.7438(3) 0.4237(3) 0.1556(4)
H21 H 0.7439 0.3996 0.1865
C36 C 0.83947(19) 0.3151(3) 0.1807(3)
H23 H 0.8652 0.3261 0.1901
C38 C 0.9503(2) 0.1639(3) 0.4623(4)
H25 H 0.9507 0.1285 0.4604
C39 C 0.7648(2) 0.2840(3) 0.1542(4)
H26 H 0.7390 0.2735 0.1461
C42 C 0.9705(2) 0.1872(3) 0.5212(3)
H28 H 0.9839 0.1678 0.5578
C43 C 0.9706(2) 0.2381(3) 0.5249(4)
C45 C 0.7452(3) 0.5094(3) 0.1255(5)
C48 C 0.7464(3) 0.5625(3) 0.1432(6)
H32 H 0.9951 0.3677 0.6624
C54 C 0.7430(3) 0.4431(3) 0.0519(4)
H35 H 0.7428 0.4327 0.0115
C55 C 0.9307(3) 0.2393(3) 0.4148(4)
H36 H 0.9167 0.2582 0.3780
O11 O 0.85995(17) 0.2002(2) 0.2689(3)
C60 C 0.7952(2) 0.2563(3) 0.1939(4)
H37 H 0.7902 0.2264 0.2119
C61 C 0.9935(2) 0.2647(3) 0.5839(4)
O12 O 0.7491(3) 0.5746(3) 0.1977(4)
O13 O 0.7461(3) 0.5952(3) 0.1037(4)
C65 C 0.7438(3) 0.4934(3) 0.0678(5)
H40 H 0.7434 0.5176 0.0368
C67 C 0.7448(3) 0.4744(3) 0.1701(5)
H42 H 0.7453 0.4848 0.2106
O14 O 0.89847(19) 0.1183(2) 0.2130(3)
H51 H 0.8981 0.1417 0.1874
H52 H 0.8765 0.1043 0.2006
Cd8 Cd 0.74119(2) 0.65735(2) 0.17597(3)
O15 O 0.99984(13) 0.25259(15) 0.1845(2)
O16 O 0.89512(13) 0.27123(17) 0.1157(2)
O17 O 0.91289(13) 0.19585(17) 0.1523(2)
O18 O 0.87583(15) 0.08068(18) 0.3329(3)
N7 N 0.94963(16) 0.3407(2) 0.2279(3)
O19 O 0.93825(15) 0.07474(17) 0.3540(2)
O5 O 0.60488(13) 0.22877(17) 0.8843(2)
O6 O 0.58711(13) 0.30415(17) 0.8477(2)
C4 C 0.67722(19) 0.2680(2) 0.9676(3)
H4 H 0.6778 0.2344 0.9550
C5 C 0.61007(19) 0.2745(2) 0.8880(3)
C14 C 0.64373(19) 0.3452(2) 0.9588(3)
H9 H 0.6218 0.3656 0.9384
C58 C 0.64418(18) 0.2958(2) 0.9390(3)
Cd6 Cd 0.55295(2) 0.24367(2) 0.78056(2)
Cd2_2 Cd 0.08785(2) 0.15012(2) 0.18806(3)
O1_2 O 0.09967(13) 0.2583(2) 0.2366(3)
O2_2 O 0.03335(12) 0.18265(17) 0.2012(2)
O5_2 O 0.39512(13) 0.22877(17) 0.6157(2)
C2_2 C 0.00659(18) 0.2099(2) 0.1646(3)
O6_2 O 0.41289(13) 0.30415(17) 0.6523(2)
C4_2 C 0.32278(19) 0.2680(2) 0.5324(3)
H4_2 H 0.3222 0.2344 0.5450
N2_2 N 0.25920(17) 0.3566(2) 0.4158(3)
C5_2 C 0.38993(19) 0.2745(2) 0.6120(3)
C8_2 C 0.29033(18) 0.2883(2) 0.4855(3)
H6_2 H 0.2674 0.2690 0.4684
C10_2 C 0.22859(19) 0.3273(2) 0.3742(3)
C13_2 C 0.2575(2) 0.4087(2) 0.4023(4)
C14_2 C 0.35627(19) 0.3452(2) 0.5412(3)
H9_2 H 0.3782 0.3656 0.5616
N4_2 N 0.06935(19) 0.1886(2) 0.0904(3)
C20_2 C 0.1908(2) 0.3430(2) 0.3597(3)
H13_2 H 0.1857 0.3730 0.3775
C26_2 C 0.32500(19) 0.3642(2) 0.4920(3)
H16_2 H 0.3264 0.3969 0.4771
C27_2 C 0.1331(2) 0.2419(3) 0.2510(4)
C28_2 C 0.1668(2) 0.2717(2) 0.2921(3)
C30_2 C 0.0505(3) 0.2642(3) 0.0304(4)
H18_2 H 0.0517 0.2996 0.0296
C33_2 C 0.29116(19) 0.3363(2) 0.4636(3)
C34_2 C 0.2562(3) 0.4237(3) 0.3444(4)
H21_2 H 0.2561 0.3996 0.3135
C36_2 C 0.16053(19) 0.3151(3) 0.3193(3)
H23_2 H 0.1348 0.3261 0.3099
C38_2 C 0.0497(2) 0.1639(3) 0.0377(4)
H25_2 H 0.0493 0.1285 0.0396
C39_2 C 0.2352(2) 0.2840(3) 0.3458(4)
H26_2 H 0.2610 0.2735 0.3539
C45_2 C 0.2548(3) 0.5094(3) 0.3745(5)
C48_2 C 0.2536(3) 0.5625(3) 0.3568(6)
C54_2 C 0.2570(3) 0.4431(3) 0.4481(4)
H35_2 H 0.2572 0.4327 0.4885
C55_2 C 0.0693(3) 0.2393(3) 0.0852(4)
H36_2 H 0.0833 0.2582 0.1220
O11_2 O 0.14005(17) 0.2002(2) 0.2311(3)
C58_2 C 0.35582(18) 0.2958(2) 0.5610(3)
C60_2 C 0.2048(2) 0.2563(3) 0.3061(4)
H37_2 H 0.2098 0.2264 0.2881
O12_2 O 0.2509(3) 0.5746(3) 0.3023(4)
O13_2 O 0.2539(3) 0.5952(3) 0.3963(4)
C65_2 C 0.2562(3) 0.4934(3) 0.4322(5)
H40_2 H 0.2566 0.5176 0.4632
C67_2 C 0.2552(3) 0.4744(3) 0.3299(5)
H42_2 H 0.2547 0.4848 0.2894
O14_2 O 0.10153(19) 0.1183(2) 0.2870(3)
H51_2 H 0.1019 0.1417 0.3126
H52_2 H 0.1235 0.1043 0.2994
Cd6_2 Cd 0.44705(2) 0.24367(2) 0.71944(2)
Cd8_2 Cd 0.25881(2) 0.65735(2) 0.32403(3)
O16_2 O 0.10488(13) 0.27123(17) 0.3843(2)
O17_2 O 0.08711(13) 0.19585(17) 0.3477(2)
O18_2 O 0.12417(15) 0.08068(18) 0.1671(3)
N7_2 N 0.05037(16) 0.3407(2) 0.2721(3)
O19_2 O 0.06175(15) 0.07474(17) 0.1460(2)
C11_2 C 0.98171(17) 0.1936(2) 0.1007(3)
C12_2 C 0.96252(18) 0.2290(2) 0.0553(3)
H8_2 H 0.9655 0.2634 0.0658
C15_2 C 0.95093(19) 0.1290(2) 0.0260(3)
H10_2 H 0.9464 0.0946 0.0169
C21_2 C 0.9754(2) 0.1433(2) 0.0844(4)
H14_2 H 0.9885 0.1187 0.1148
Cd3_2 Cd 0.74119(2) 0.34265(2) 0.67597(3)
C1_2 C 0.9470(2) 0.5557(3) 0.7392(4)
O4_2 O 0.6899(2) 0.3574(3) 0.7071(5)
H1_2 H 0.6834 0.3304 0.7199
H2_2 H 0.6709 0.3687 0.6758
N1_2 N 0.90728(17) 0.1491(2) 0.9182(3)
C3_2 C 0.83245(18) 0.2469(2) 0.8545(3)
H3_2 H 0.8187 0.2699 0.8703
N3_2 N 0.94963(16) 0.6593(2) 0.7279(3)
C6_2 C 0.93903(18) 0.2143(2) 0.9947(3)
H5_2 H 0.9273 0.2388 0.9632
C7_2 C 0.90644(19) 0.0982(2) 0.8986(3)
C9_2 C 0.9716(3) 0.2462(3) 0.8756(4)
H7_2 H 0.9634 0.2144 0.8839
C16_2 C 0.93222(19) 0.1640(2) 0.9791(3)
O9_2 O 0.77584(18) 0.3065(2) 0.7681(3)
C17_2 C 0.87974(18) 0.1820(2) 0.8755(3)
C18_2 C 0.8723(2) 0.0719(3) 0.8778(4)
H11_2 H 0.8489 0.0881 0.8742
C19_2 C 0.85881(19) 0.2154(2) 0.8967(3)
H12_2 H 0.8626 0.2166 0.9406
C22_2 C 0.82541(19) 0.2461(3) 0.7907(4)
C24_2 C 0.7956(2) 0.2811(3) 0.7476(4)
C25_2 C 0.9404(3) 0.4706(3) 0.6912(4)
H15_2 H 0.9390 0.4853 0.6522
C31_2 C 0.9400(2) 0.0253(3) 0.8852(4)
H19_2 H 0.9633 0.0095 0.8874
C32_2 C 0.9404(2) 0.0751(3) 0.9012(4)
H20_2 H 0.9639 0.0935 0.9139
C35_2 C 0.9487(3) 0.2722(3) 0.8237(4)
H22_2 H 0.9244 0.2589 0.7974
C37_2 C 0.8718(2) 0.0218(3) 0.8619(4)
H24_2 H 0.8482 0.0036 0.8484
O10_2 O 0.79149(18) 0.2815(3) 0.6893(3)
C40_2 C 0.9028(4) 0.2539(4) 0.6230(5)
H27_2 H 0.9129 0.2257 0.6091
C41_2 C 0.9605(2) 0.3181(3) 0.8089(4)
C44_2 C 0.9456(2) 0.5007(3) 0.7427(4)
C46_2 C 0.9370(3) 0.4195(3) 0.6944(5)
H29_2 H 0.9326 0.3999 0.6574
C47_2 C 0.9400(2) 0.3967(3) 0.7501(4)
C49_2 C 0.8734(2) 0.1810(3) 0.8110(3)
H30_2 H 0.8876 0.1586 0.7956
C50_2 C 0.9255(3) 0.2776(4) 0.6766(5)
H31_2 H 0.9509 0.2655 0.6995
N5_2 N 0.9368(2) 0.3446(2) 0.7545(4)
C51_2 C 0.9960(3) 0.3369(3) 0.8479(5)
C52_2 C 0.9491(3) 0.4776(3) 0.8003(5)
H33_2 H 0.9534 0.4973 0.8372
C53_2 C 0.8464(2) 0.2124(3) 0.7689(4)
H34_2 H 0.8422 0.2109 0.7248
N6_2 N 0.7976(2) 0.1997(3) 0.4109(4)
C56_2 C 0.8425(3) 0.2450(4) 0.5274(6)
C57_2 C 0.9127(3) 0.3177(3) 0.6975(4)
C62_2 C 0.9461(3) 0.4267(3) 0.8033(5)
H38_2 H 0.9484 0.4116 0.8425
C63_2 C 0.9364(3) 0.6299(3) 0.6783(4)
H39_2 H 0.9274 0.6450 0.6374
C64_2 C 0.8662(3) 0.2686(4) 0.5882(5)
C66_2 C 0.9345(3) 0.5788(3) 0.6808(5)
H41_2 H 0.9247 0.5598 0.6428
C68_2 C 0.9617(4) 0.6367(4) 0.7849(5)
H43_2 H 0.9698 0.6566 0.8222
C69_2 C 0.8515(3) 0.3073(5) 0.6134(6)
H44_2 H 0.8252 0.3166 0.5933
C70_2 C 0.9629(4) 0.5861(4) 0.7912(5)
H45_2 H 0.9749 0.5717 0.8321
C71_2 C 0.8363(3) 0.1978(5) 0.4312(6)
H46_2 H 0.8486 0.1816 0.4064
C72_2 C 0.8749(4) 0.3329(4) 0.6681(6)
H47_2 H 0.8650 0.3601 0.6843
C73_2 C 0.8577(3) 0.2194(6) 0.4877(7)
H48_2 H 0.8850 0.2169 0.5013
C74_2 C 0.8028(4) 0.2521(5) 0.4981(7)
H49_2 H 0.7900 0.2758 0.5144
C75_2 C 0.7826(4) 0.2246(9) 0.4456(9)
H50_2 H 0.7553 0.2236 0.4333
Cd5_2 Cd 0.94705(2) 0.74367(2) 0.71944(2)
Cd9_2 Cd 0.75881(2) 0.15735(2) 0.32403(3)
N8_2 N 0.7024(2) 0.3003(3) 0.5891(4)
O20_2 O 0.7491(3) 0.4254(3) 0.6977(4)
O21_2 O 0.7461(3) 0.4048(3) 0.6037(4)
O7_2 O 0.87583(15) 0.91932(18) 0.8329(3)
O8_2 O 0.93825(15) 0.92526(17) 0.8540(2)
C23_2 C 0.90597(19) 0.9984(2) 0.8660(3)
C59_2 C 0.9065(2) 0.9437(3) 0.8497(3)
Cd7_2 Cd 0.91215(2) 0.84988(2) 0.81194(3)
C1_3 C 0.5530(2) 0.0557(3) 0.7608(4)
N3_3 N 0.55037(16) 0.1593(2) 0.7721(3)
C44_3 C 0.5544(2) 0.0007(3) 0.7573(4)
C45_3 C 0.2452(3) 0.0094(3) 0.1255(5)
C48_3 C 0.2464(3) 0.0625(3) 0.1432(6)
O12_3 O 0.2491(3) 0.0746(3) 0.1977(4)
O13_3 O 0.2461(3) 0.0952(3) 0.1037(4)
C63_3 C 0.5636(3) 0.1299(3) 0.8217(4)
H39_3 H 0.5726 0.1450 0.8626
H40_3 H 0.2434 0.0176 0.0368
C66_3 C 0.5655(3) 0.0788(3) 0.8192(5)
H41_3 H 0.5753 0.0598 0.8572
C68_3 C 0.5383(4) 0.1367(4) 0.7151(5)
H43_3 H 0.5302 0.1566 0.6778
C70_3 C 0.5371(4) 0.0861(4) 0.7088(5)
H45_3 H 0.5251 0.0717 0.6679
N6_3 N 0.7024(2) 0.6997(3) 0.0891(4)
C71_3 C 0.6637(3) 0.6978(5) 0.0688(6)
H46_3 H 0.6514 0.6816 0.0936
C73_3 C 0.6423(3) 0.7194(6) 0.0123(7)
C74_3 C 0.6972(4) 0.7521(5) 0.0019(7)
C75_3 C 0.7174(4) 0.7246(9) 0.0544(9)
H50_3 H 0.7447 0.7236 0.0667
Cd1_2 Cd 0.44705(2) 0.75633(2) 0.21944(2)
Cd2_3 Cd 0.41215(2) 0.65012(2) 0.31194(3)
Cd3_3 Cd 0.75881(2) 0.84265(2) 0.82403(3)
O1_3 O 0.40033(13) 0.7583(2) 0.2634(3)
O2_3 O 0.46665(12) 0.68265(17) 0.2988(2)
O3_2 O 0.50016(13) 0.75259(15) 0.3155(2)
O4_3 O 0.8101(2) 0.8574(3) 0.7929(5)
H1_3 H 0.8166 0.8304 0.7801
H2_3 H 0.8291 0.8687 0.8242
C2_3 C 0.49341(18) 0.7099(2) 0.3354(3)
N1_3 N 0.59272(17) 0.6491(2) 0.5818(3)
O7_3 O 0.62417(15) 0.41932(18) 0.6671(3)
C3_3 C 0.66755(18) 0.7469(2) 0.6455(3)
H3_3 H 0.6813 0.7699 0.6297
N2_3 N 0.24080(17) 0.8566(2) 0.0842(3)
C6_3 C 0.56097(18) 0.7143(2) 0.5053(3)
H5_3 H 0.5727 0.7388 0.5368
C7_3 C 0.59356(19) 0.5982(2) 0.6014(3)
O8_3 O 0.56175(15) 0.42526(17) 0.6460(2)
C8_3 C 0.20967(18) 0.7883(2) 0.0145(3)
H6_3 H 0.2326 0.7690 0.0316
C9_3 C 0.5284(3) 0.7462(3) 0.6244(4)
H7_3 H 0.5366 0.7144 0.6161
C10_3 C 0.27141(19) 0.8273(2) 0.1258(3)
C11_3 C 0.51829(17) 0.6936(2) 0.3993(3)
C12_3 C 0.53748(18) 0.7290(2) 0.4447(3)
H8_3 H 0.5345 0.7634 0.4342
C13_3 C 0.2425(2) 0.9087(2) 0.0977(4)
C15_3 C 0.54907(19) 0.6290(2) 0.4740(3)
H10_3 H 0.5536 0.5946 0.4831
C16_3 C 0.56778(19) 0.6640(2) 0.5209(3)
O9_3 O 0.72416(18) 0.8065(2) 0.7319(3)
C17_3 C 0.62026(18) 0.6820(2) 0.6245(3)
C18_3 C 0.6277(2) 0.5719(3) 0.6222(4)
H11_3 H 0.6511 0.5881 0.6258
N4_3 N 0.43065(19) 0.6886(2) 0.4096(3)
C19_3 C 0.64119(19) 0.7154(2) 0.6033(3)
H12_3 H 0.6374 0.7166 0.5594
C20_3 C 0.3092(2) 0.8430(2) 0.1403(3)
H13_3 H 0.3143 0.8730 0.1225
C21_3 C 0.5246(2) 0.6433(2) 0.4156(4)
H14_3 H 0.5115 0.6187 0.3852
C22_3 C 0.67459(19) 0.7461(3) 0.7093(4)
C23_3 C 0.59403(19) 0.4984(2) 0.6340(3)
C24_3 C 0.7044(2) 0.7811(3) 0.7524(4)
C25_3 C 0.5596(3) 0.9706(3) 0.8088(4)
H15_3 H 0.5610 0.9853 0.8478
C26_3 C 0.17500(19) 0.8642(2) 0.0080(3)
H16_3 H 0.1736 0.8969 0.0229
C27_3 C 0.3669(2) 0.7419(3) 0.2490(4)
C28_3 C 0.3332(2) 0.7717(2) 0.2079(3)
C29_2 C 0.4814(3) 0.8112(3) 0.5983(5)
H17_2 H 0.4576 0.8250 0.5709
C30_3 C 0.4495(3) 0.7642(3) 0.4696(4)
H18_3 H 0.4483 0.7996 0.4704
C31_3 C 0.5600(2) 0.5253(3) 0.6148(4)
H19_3 H 0.5367 0.5095 0.6126
C32_3 C 0.5596(2) 0.5751(3) 0.5988(4)
H20_3 H 0.5361 0.5935 0.5861
C33_3 C 0.20884(19) 0.8363(2) 0.0364(3)
C34_3 C 0.2438(3) 0.9237(3) 0.1556(4)
H21_3 H 0.2439 0.8996 0.1865
C35_3 C 0.5513(3) 0.7722(3) 0.6763(4)
H22_3 H 0.5756 0.7589 0.7026
C36_3 C 0.33947(19) 0.8151(3) 0.1807(3)
H23_3 H 0.3652 0.8261 0.1901
C37_3 C 0.6282(2) 0.5218(3) 0.6381(4)
H24_3 H 0.6518 0.5036 0.6516
O10_3 O 0.70851(18) 0.7815(3) 0.8107(3)
C38_3 C 0.4503(2) 0.6639(3) 0.4623(4)
H25_3 H 0.4507 0.6285 0.4604
C39_3 C 0.2648(2) 0.7840(3) 0.1542(4)
H26_3 H 0.2390 0.7735 0.1461
C40_3 C 0.5972(4) 0.7539(4) 0.8770(5)
H27_3 H 0.5871 0.7257 0.8909
C41_3 C 0.5395(2) 0.8181(3) 0.6911(4)
C42_2 C 0.4705(2) 0.6872(3) 0.5212(3)
H28_2 H 0.4839 0.6678 0.5578
C43_2 C 0.4706(2) 0.7381(3) 0.5249(4)
C46_3 C 0.5630(3) 0.9195(3) 0.8056(5)
H29_3 H 0.5674 0.8999 0.8426
C47_3 C 0.5600(2) 0.8967(3) 0.7499(4)
C49_3 C 0.6266(2) 0.6810(3) 0.6890(3)
H30_3 H 0.6124 0.6586 0.7044
C50_3 C 0.5745(3) 0.7776(4) 0.8234(5)
H31_3 H 0.5491 0.7655 0.8005
N5_3 N 0.5632(2) 0.8446(2) 0.7455(4)
C51_3 C 0.5040(3) 0.8369(3) 0.6521(5)
H32_2 H 0.4951 0.8677 0.6624
C52_3 C 0.5509(3) 0.9776(3) 0.6997(5)
H33_3 H 0.5466 0.9973 0.6628
C53_3 C 0.6536(2) 0.7124(3) 0.7311(4)
H34_3 H 0.6578 0.7109 0.7752
C54_3 C 0.2430(3) 0.9431(3) 0.0519(4)
H35_3 H 0.2428 0.9327 0.0115
C55_3 C 0.4307(3) 0.7393(3) 0.4148(4)
H36_3 H 0.4167 0.7582 0.3780
C56_3 C 0.6575(3) 0.7450(4) 0.9726(6)
C57_3 C 0.5873(3) 0.8177(3) 0.8025(4)
O11_3 O 0.35995(17) 0.7002(2) 0.2689(3)
C59_3 C 0.5935(2) 0.4437(3) 0.6503(3)
C60_3 C 0.2952(2) 0.7563(3) 0.1939(4)
H37_3 H 0.2902 0.7264 0.2119
C61_2 C 0.4935(2) 0.7647(3) 0.5839(4)
C62_3 C 0.5539(3) 0.9267(3) 0.6967(5)
H38_3 H 0.5516 0.9116 0.6575
C64_3 C 0.6338(3) 0.7686(4) 0.9118(5)
C65_3 C 0.2438(3) 0.9934(3) 0.0678(5)
C67_3 C 0.2448(3) 0.9744(3) 0.1701(5)
H42_3 H 0.2453 0.9848 0.2106
C69_3 C 0.6485(3) 0.8073(5) 0.8866(6)
H44_3 H 0.6748 0.8166 0.9067
C72_3 C 0.6251(4) 0.8329(4) 0.8319(6)
H47_3 H 0.6350 0.8601 0.8157
H48_3 H 0.6150 0.7169 0.9987
H49_3 H 0.7100 0.7758 0.9856
O14_3 O 0.39847(19) 0.6183(2) 0.2130(3)
H51_3 H 0.3981 0.6417 0.1874
H52_3 H 0.3765 0.6043 0.2006
Cd4_2 Cd 0.55295(2) 0.75633(2) 0.28056(2)
Cd7_3 Cd 0.58785(2) 0.34988(2) 0.68806(3)
O15_2 O 0.49984(13) 0.75259(15) 0.1845(2)
O16_3 O 0.39512(13) 0.77123(17) 0.1157(2)
O17_3 O 0.41289(13) 0.69585(17) 0.1523(2)
O18_3 O 0.37583(15) 0.58068(18) 0.3329(3)
N7_3 N 0.44963(16) 0.8407(2) 0.2279(3)
O19_3 O 0.43825(15) 0.57474(17) 0.3540(2)
N8_3 N 0.7976(2) 0.8003(3) 0.9109(4)
O20_3 O 0.7509(3) 0.9254(3) 0.8023(4)
O21_3 O 0.7539(3) 0.9048(3) 0.8963(4)
O5_3 O 0.10488(13) 0.72877(17) 0.8843(2)
O6_3 O 0.08711(13) 0.80415(17) 0.8477(2)
C4_3 C 0.17722(19) 0.7680(2) 0.9676(3)
H4_3 H 0.1778 0.7344 0.9550
C5_3 C 0.11007(19) 0.7745(2) 0.8880(3)
C14_3 C 0.14373(19) 0.8452(2) 0.9588(3)
H9_3 H 0.1218 0.8656 0.9384
C58_3 C 0.14418(18) 0.7958(2) 0.9390(3)
C45_4 C 0.7548(3) 0.0094(3) 0.3745(5)
C48_4 C 0.7536(3) 0.0625(3) 0.3568(6)
O12_4 O 0.7509(3) 0.0746(3) 0.3023(4)
O13_4 O 0.7539(3) 0.0952(3) 0.3963(4)
H40_4 H 0.7566 0.0176 0.4632
C1_4 C 0.4470(2) 0.0557(3) 0.7392(4)
N3_4 N 0.44963(16) 0.1593(2) 0.7279(3)
C44_4 C 0.4456(2) 0.0007(3) 0.7427(4)
C63_4 C 0.4364(3) 0.1299(3) 0.6783(4)
H39_4 H 0.4274 0.1450 0.6374
C66_4 C 0.4345(3) 0.0788(3) 0.6808(5)
H41_4 H 0.4247 0.0598 0.6428
C68_4 C 0.4617(4) 0.1367(4) 0.7849(5)
H43_4 H 0.4698 0.1566 0.8222
C70_4 C 0.4629(4) 0.0861(4) 0.7912(5)
H45_4 H 0.4749 0.0717 0.8321
Cd2_4 Cd 0.58785(2) 0.65012(2) 0.18806(3)
O1_4 O 0.59967(13) 0.7583(2) 0.2366(3)
O2_4 O 0.53335(12) 0.68265(17) 0.2012(2)
O5_4 O 0.89512(13) 0.72877(17) 0.6157(2)
C2_4 C 0.50659(18) 0.7099(2) 0.1646(3)
O6_4 O 0.91289(13) 0.80415(17) 0.6523(2)
C4_4 C 0.82278(19) 0.7680(2) 0.5324(3)
H4_4 H 0.8222 0.7344 0.5450
N2_4 N 0.75920(17) 0.8566(2) 0.4158(3)
C5_4 C 0.88993(19) 0.7745(2) 0.6120(3)
C8_4 C 0.79033(18) 0.7883(2) 0.4855(3)
H6_4 H 0.7674 0.7690 0.4684
C10_4 C 0.72859(19) 0.8273(2) 0.3742(3)
C11_4 C 0.48171(17) 0.6936(2) 0.1007(3)
C12_4 C 0.46252(18) 0.7290(2) 0.0553(3)
H8_4 H 0.4655 0.7634 0.0658
C13_4 C 0.7575(2) 0.9087(2) 0.4023(4)
C14_4 C 0.85627(19) 0.8452(2) 0.5412(3)
H9_4 H 0.8782 0.8656 0.5616
C15_4 C 0.45093(19) 0.6290(2) 0.0260(3)
H10_4 H 0.4464 0.5946 0.0169
N4_4 N 0.56935(19) 0.6886(2) 0.0904(3)
C20_4 C 0.6908(2) 0.8430(2) 0.3597(3)
H13_4 H 0.6857 0.8730 0.3775
C21_4 C 0.4754(2) 0.6433(2) 0.0844(4)
H14_4 H 0.4885 0.6187 0.1148
C26_4 C 0.82500(19) 0.8642(2) 0.4920(3)
H16_4 H 0.8264 0.8969 0.4771
C27_4 C 0.6331(2) 0.7419(3) 0.2510(4)
C28_4 C 0.6668(2) 0.7717(2) 0.2921(3)
C30_4 C 0.5505(3) 0.7642(3) 0.0304(4)
H18_4 H 0.5517 0.7996 0.0296
C33_4 C 0.79116(19) 0.8363(2) 0.4636(3)
C34_4 C 0.7562(3) 0.9237(3) 0.3444(4)
H21_4 H 0.7561 0.8996 0.3135
C36_4 C 0.66053(19) 0.8151(3) 0.3193(3)
H23_4 H 0.6348 0.8261 0.3099
C38_4 C 0.5497(2) 0.6639(3) 0.0377(4)
H25_4 H 0.5493 0.6285 0.0396
C39_4 C 0.7352(2) 0.7840(3) 0.3458(4)
H26_4 H 0.7610 0.7735 0.3539
C54_4 C 0.7570(3) 0.9431(3) 0.4481(4)
H35_4 H 0.7572 0.9327 0.4885
C55_4 C 0.5693(3) 0.7393(3) 0.0852(4)
H36_4 H 0.5833 0.7582 0.1220
O11_4 O 0.64005(17) 0.7002(2) 0.2311(3)
C58_4 C 0.85582(18) 0.7958(2) 0.5610(3)
C60_4 C 0.7048(2) 0.7563(3) 0.3061(4)
H37_4 H 0.7098 0.7264 0.2881
C65_4 C 0.7562(3) 0.9934(3) 0.4322(5)
C67_4 C 0.7552(3) 0.9744(3) 0.3299(5)
H42_4 H 0.7547 0.9848 0.2894
O14_4 O 0.60153(19) 0.6183(2) 0.2870(3)
H51_4 H 0.6019 0.6417 0.3126
H52_4 H 0.6235 0.6043 0.2994
O16_4 O 0.60488(13) 0.77123(17) 0.3843(2)
O17_4 O 0.58711(13) 0.69585(17) 0.3477(2)
O18_4 O 0.62417(15) 0.58068(18) 0.1671(3)
N7_4 N 0.55037(16) 0.8407(2) 0.2721(3)
O19_4 O 0.56175(15) 0.57474(17) 0.1460(2)
Cd3_4 Cd 0.24119(2) 0.84265(2) 0.67597(3)
O4_4 O 0.1899(2) 0.8574(3) 0.7071(5)
H1_4 H 0.1834 0.8304 0.7199
H2_4 H 0.1709 0.8687 0.6758
N1_4 N 0.40728(17) 0.6491(2) 0.9182(3)
O7_4 O 0.37583(15) 0.41932(18) 0.8329(3)
C3_4 C 0.33245(18) 0.7469(2) 0.8545(3)
H3_4 H 0.3187 0.7699 0.8703
C6_4 C 0.43903(18) 0.7143(2) 0.9947(3)
H5_4 H 0.4273 0.7388 0.9632
C7_4 C 0.40644(19) 0.5982(2) 0.8986(3)
O8_4 O 0.43825(15) 0.42526(17) 0.8540(2)
C9_4 C 0.4716(3) 0.7462(3) 0.8756(4)
H7_4 H 0.4634 0.7144 0.8839
C16_4 C 0.43222(19) 0.6640(2) 0.9791(3)
O9_4 O 0.27584(18) 0.8065(2) 0.7681(3)
C17_4 C 0.37974(18) 0.6820(2) 0.8755(3)
C18_4 C 0.3723(2) 0.5719(3) 0.8778(4)
H11_4 H 0.3489 0.5881 0.8742
C19_4 C 0.35881(19) 0.7154(2) 0.8967(3)
H12_4 H 0.3626 0.7166 0.9406
C22_4 C 0.32541(19) 0.7461(3) 0.7907(4)
C23_4 C 0.40597(19) 0.4984(2) 0.8660(3)
C24_4 C 0.2956(2) 0.7811(3) 0.7476(4)
C25_4 C 0.4404(3) 0.9706(3) 0.6912(4)
H15_4 H 0.4390 0.9853 0.6522
C29_3 C 0.5186(3) 0.8112(3) 0.9017(5)
H17_3 H 0.5424 0.8250 0.9291
C31_4 C 0.4400(2) 0.5253(3) 0.8852(4)
H19_4 H 0.4633 0.5095 0.8874
C32_4 C 0.4404(2) 0.5751(3) 0.9012(4)
H20_4 H 0.4639 0.5935 0.9139
C35_4 C 0.4487(3) 0.7722(3) 0.8237(4)
H22_4 H 0.4244 0.7589 0.7974
C37_4 C 0.3718(2) 0.5218(3) 0.8619(4)
H24_4 H 0.3482 0.5036 0.8484
O10_4 O 0.29149(18) 0.7815(3) 0.6893(3)
C40_4 C 0.4028(4) 0.7539(4) 0.6230(5)
H27_4 H 0.4129 0.7257 0.6091
C41_4 C 0.4605(2) 0.8181(3) 0.8089(4)
C42_3 C 0.5295(2) 0.6872(3) 0.9788(3)
H28_3 H 0.5161 0.6678 0.9422
C43_3 C 0.5294(2) 0.7381(3) 0.9751(4)
C46_4 C 0.4370(3) 0.9195(3) 0.6944(5)
H29_4 H 0.4326 0.8999 0.6574
C47_4 C 0.4400(2) 0.8967(3) 0.7501(4)
C49_4 C 0.3734(2) 0.6810(3) 0.8110(3)
H30_4 H 0.3876 0.6586 0.7956
C50_4 C 0.4255(3) 0.7776(4) 0.6766(5)
H31_4 H 0.4509 0.7655 0.6995
N5_4 N 0.4368(2) 0.8446(2) 0.7545(4)
C51_4 C 0.4960(3) 0.8369(3) 0.8479(5)
H32_3 H 0.5049 0.8677 0.8376
C52_4 C 0.4491(3) 0.9776(3) 0.8003(5)
H33_4 H 0.4534 0.9973 0.8372
C53_4 C 0.3464(2) 0.7124(3) 0.7689(4)
H34_4 H 0.3422 0.7109 0.7248
N6_4 N 0.2976(2) 0.6997(3) 0.4109(4)
C56_4 C 0.3425(3) 0.7450(4) 0.5274(6)
C57_4 C 0.4127(3) 0.8177(3) 0.6975(4)
C59_4 C 0.4065(2) 0.4437(3) 0.8497(3)
C61_3 C 0.5065(2) 0.7647(3) 0.9161(4)
C62_4 C 0.4461(3) 0.9267(3) 0.8033(5)
H38_4 H 0.4484 0.9116 0.8425
C64_4 C 0.3662(3) 0.7686(4) 0.5882(5)
C69_4 C 0.3515(3) 0.8073(5) 0.6134(6)
H44_4 H 0.3252 0.8166 0.5933
C71_4 C 0.3363(3) 0.6978(5) 0.4312(6)
H46_4 H 0.3486 0.6816 0.4064
C72_4 C 0.3749(4) 0.8329(4) 0.6681(6)
H47_4 H 0.3650 0.8601 0.6843
C73_4 C 0.3577(3) 0.7194(6) 0.4877(7)
H48_4 H 0.3850 0.7169 0.5013
C74_4 C 0.3028(4) 0.7521(5) 0.4981(7)
H49_4 H 0.2900 0.7758 0.5144
C75_4 C 0.2826(4) 0.7246(9) 0.4456(9)
H50_4 H 0.2553 0.7236 0.4333
Cd7_4 Cd 0.41215(2) 0.34988(2) 0.81194(3)
N8_4 N 0.2024(2) 0.8003(3) 0.5891(4)
O20_4 O 0.2491(3) 0.9254(3) 0.6977(4)
O21_4 O 0.2461(3) 0.9048(3) 0.6037(4)
C4_5 C 0.32278(19) 0.7320(2) 0.0324(3)
H4_5 H 0.3222 0.7656 0.0450
C5_5 C 0.38993(19) 0.7255(2) 0.1120(3)
C14_5 C 0.35627(19) 0.6548(2) 0.0412(3)
H9_5 H 0.3782 0.6344 0.0616
C58_5 C 0.35582(18) 0.7042(2) 0.0610(3)
O1_5 O 0.09967(13) 0.7417(2) 0.7366(3)
O2_5 O 0.03335(12) 0.81735(17) 0.7012(2)
C2_5 C 0.00659(18) 0.7901(2) 0.6646(3)
N2_5 N 0.25920(17) 0.6434(2) 0.9158(3)
C8_5 C 0.29033(18) 0.7117(2) 0.9855(3)
H6_5 H 0.2674 0.7310 0.9684
C10_5 C 0.22859(19) 0.6727(2) 0.8742(3)
C13_5 C 0.2575(2) 0.5913(2) 0.9023(4)
N4_5 N 0.06935(19) 0.8114(2) 0.5904(3)
C20_5 C 0.1908(2) 0.6570(2) 0.8597(3)
H13_5 H 0.1857 0.6270 0.8775
C26_5 C 0.32500(19) 0.6358(2) 0.9920(3)
H16_5 H 0.3264 0.6031 0.9771
C27_5 C 0.1331(2) 0.7581(3) 0.7510(4)
C28_5 C 0.1668(2) 0.7283(2) 0.7921(3)
C29_4 C 0.0186(3) 0.6888(3) 0.4017(5)
H17_4 H 0.0424 0.6750 0.4291
C30_5 C 0.0505(3) 0.7358(3) 0.5304(4)
H18_5 H 0.0517 0.7004 0.5296
C33_5 C 0.29116(19) 0.6637(2) 0.9636(3)
C34_5 C 0.2562(3) 0.5763(3) 0.8444(4)
H21_5 H 0.2561 0.6004 0.8135
C36_5 C 0.16053(19) 0.6849(3) 0.8193(3)
H23_5 H 0.1348 0.6739 0.8099
C38_5 C 0.0497(2) 0.8361(3) 0.5377(4)
H25_5 H 0.0493 0.8715 0.5396
C39_5 C 0.2352(2) 0.7160(3) 0.8458(4)
H26_5 H 0.2610 0.7265 0.8539
C42_4 C 0.0295(2) 0.8128(3) 0.4788(3)
H28_4 H 0.0161 0.8322 0.4422
C43_4 C 0.0294(2) 0.7619(3) 0.4751(4)
C45_5 C 0.2548(3) 0.4906(3) 0.8745(5)
C48_5 C 0.2536(3) 0.4375(3) 0.8568(6)
H32_4 H 0.0049 0.6323 0.3376
C54_5 C 0.2570(3) 0.5569(3) 0.9481(4)
H35_5 H 0.2572 0.5673 0.9885
C55_5 C 0.0693(3) 0.7607(3) 0.5852(4)
H36_5 H 0.0833 0.7418 0.6220
O11_5 O 0.14005(17) 0.7998(2) 0.7311(3)
C60_5 C 0.2048(2) 0.7437(3) 0.8061(4)
H37_5 H 0.2098 0.7736 0.7881
C61_4 C 0.0065(2) 0.7353(3) 0.4161(4)
C65_5 C 0.2562(3) 0.5066(3) 0.9322(5)
H40_5 H 0.2566 0.4824 0.9632
C67_5 C 0.2552(3) 0.5256(3) 0.8299(5)
H42_5 H 0.2547 0.5152 0.7894
O14_5 O 0.10153(19) 0.8817(2) 0.7870(3)
H51_5 H 0.1019 0.8583 0.8126
H52_5 H 0.1235 0.8957 0.7994
O15_3 O 0.00016(13) 0.74741(15) 0.8155(2)
C23_5 C 0.90597(19) 0.0016(2) 0.3660(3)
C59_5 C 0.9065(2) 0.0563(3) 0.3497(3)
O3_3 O 0.99984(13) 0.74741(15) 0.6845(2)
C1_5 C 0.9470(2) 0.4443(3) 0.2392(4)
O4_5 O 0.6899(2) 0.6426(3) 0.2071(5)
H1_5 H 0.6834 0.6696 0.2199
H2_5 H 0.6709 0.6313 0.1758
N1_5 N 0.90728(17) 0.8509(2) 0.4182(3)
C3_5 C 0.83245(18) 0.7531(2) 0.3545(3)
H3_5 H 0.8187 0.7301 0.3703
C6_5 C 0.93903(18) 0.7857(2) 0.4947(3)
H5_5 H 0.9273 0.7612 0.4632
C7_5 C 0.90644(19) 0.9018(2) 0.3986(3)
C9_5 C 0.9716(3) 0.7538(3) 0.3756(4)
H7_5 H 0.9634 0.7856 0.3839
C11_5 C 0.98171(17) 0.8064(2) 0.6007(3)
C12_5 C 0.96252(18) 0.7710(2) 0.5553(3)
H8_5 H 0.9655 0.7366 0.5658
C15_5 C 0.95093(19) 0.8710(2) 0.5260(3)
H10_5 H 0.9464 0.9054 0.5169
C16_5 C 0.93222(19) 0.8360(2) 0.4791(3)
O9_5 O 0.77584(18) 0.6935(2) 0.2681(3)
C17_5 C 0.87974(18) 0.8180(2) 0.3755(3)
C18_5 C 0.8723(2) 0.9281(3) 0.3778(4)
H11_5 H 0.8489 0.9119 0.3742
C19_5 C 0.85881(19) 0.7846(2) 0.3967(3)
H12_5 H 0.8626 0.7834 0.4406
C21_5 C 0.9754(2) 0.8567(2) 0.5844(4)
H14_5 H 0.9885 0.8813 0.6148
C22_5 C 0.82541(19) 0.7539(3) 0.2907(4)
C24_5 C 0.7956(2) 0.7189(3) 0.2476(4)
C25_5 C 0.9404(3) 0.5294(3) 0.1912(4)
H15_5 H 0.9390 0.5147 0.1522
C31_5 C 0.9400(2) 0.9747(3) 0.3852(4)
H19_5 H 0.9633 0.9905 0.3874
C32_5 C 0.9404(2) 0.9249(3) 0.4012(4)
H20_5 H 0.9639 0.9065 0.4139
C35_5 C 0.9487(3) 0.7278(3) 0.3237(4)
H22_5 H 0.9244 0.7411 0.2974
C37_5 C 0.8718(2) 0.9782(3) 0.3619(4)
H24_5 H 0.8482 0.9964 0.3484
O10_5 O 0.79149(18) 0.7185(3) 0.1893(3)
C40_5 C 0.9028(4) 0.7461(4) 0.1230(5)
H27_5 H 0.9129 0.7743 0.1091
C41_5 C 0.9605(2) 0.6819(3) 0.3089(4)
C44_5 C 0.9456(2) 0.4993(3) 0.2427(4)
C46_5 C 0.9370(3) 0.5805(3) 0.1944(5)
H29_5 H 0.9326 0.6001 0.1574
C47_5 C 0.9400(2) 0.6033(3) 0.2501(4)
C49_5 C 0.8734(2) 0.8190(3) 0.3110(3)
H30_5 H 0.8876 0.8414 0.2956
C50_5 C 0.9255(3) 0.7224(4) 0.1766(5)
H31_5 H 0.9509 0.7345 0.1995
N5_5 N 0.9368(2) 0.6554(2) 0.2545(4)
C51_5 C 0.9960(3) 0.6631(3) 0.3479(5)
C52_5 C 0.9491(3) 0.5224(3) 0.3003(5)
H33_5 H 0.9534 0.5027 0.3372
C53_5 C 0.8464(2) 0.7876(3) 0.2689(4)
H34_5 H 0.8422 0.7891 0.2248
C56_5 C 0.8425(3) 0.7550(4) 0.0274(6)
C57_5 C 0.9127(3) 0.6823(3) 0.1975(4)
C62_5 C 0.9461(3) 0.5733(3) 0.3033(5)
H38_5 H 0.9484 0.5884 0.3425
C63_5 C 0.9364(3) 0.3701(3) 0.1783(4)
H39_5 H 0.9274 0.3550 0.1374
C64_5 C 0.8662(3) 0.7314(4) 0.0882(5)
C66_5 C 0.9345(3) 0.4212(3) 0.1808(5)
H41_5 H 0.9247 0.4402 0.1428
C68_5 C 0.9617(4) 0.3633(4) 0.2849(5)
H43_5 H 0.9698 0.3434 0.3222
C69_5 C 0.8515(3) 0.6927(5) 0.1134(6)
H44_5 H 0.8252 0.6834 0.0933
C70_5 C 0.9629(4) 0.4139(4) 0.2912(5)
H45_5 H 0.9749 0.4283 0.3321
C72_5 C 0.8749(4) 0.6671(4) 0.1681(6)
H47_5 H 0.8650 0.6399 0.1843
H48_5 H 0.8850 0.7831 0.0013
H49_5 H 0.7900 0.7242 0.0144
C71_5 C 0.8363(3) 0.8022(5) 0.9312(6)
H46_5 H 0.8486 0.8184 0.9064
C73_5 C 0.8577(3) 0.7806(6) 0.9877(7)
C74_5 C 0.8028(4) 0.7479(5) 0.9981(7)
C75_5 C 0.7826(4) 0.7754(9) 0.9456(9)
H50_5 H 0.7553 0.7764 0.9333
C23_6 C 0.09403(19) 0.0016(2) 0.1340(3)
C59_6 C 0.0935(2) 0.0563(3) 0.1503(3)
C1_6 C 0.0530(2) 0.4443(3) 0.2608(4)
O4_6 O 0.3101(2) 0.6426(3) 0.2929(5)
H1_6 H 0.3166 0.6696 0.2801
H2_6 H 0.3291 0.6313 0.3242
N1_6 N 0.09272(17) 0.8509(2) 0.0818(3)
C3_6 C 0.16755(18) 0.7531(2) 0.1455(3)
H3_6 H 0.1813 0.7301 0.1297
C6_6 C 0.06097(18) 0.7857(2) 0.0053(3)
H5_6 H 0.0727 0.7612 0.0368
C7_6 C 0.09356(19) 0.9018(2) 0.1014(3)
C9_6 C 0.0284(3) 0.7538(3) 0.1244(4)
H7_6 H 0.0366 0.7856 0.1161
C16_6 C 0.06778(19) 0.8360(2) 0.0209(3)
O9_6 O 0.22416(18) 0.6935(2) 0.2319(3)
C17_6 C 0.12026(18) 0.8180(2) 0.1245(3)
C18_6 C 0.1277(2) 0.9281(3) 0.1222(4)
H11_6 H 0.1511 0.9119 0.1258
C19_6 C 0.14119(19) 0.7846(2) 0.1033(3)
H12_6 H 0.1374 0.7834 0.0594
C22_6 C 0.17459(19) 0.7539(3) 0.2093(4)
C24_6 C 0.2044(2) 0.7189(3) 0.2524(4)
C25_6 C 0.0596(3) 0.5294(3) 0.3088(4)
H15_6 H 0.0610 0.5147 0.3478
C31_6 C 0.0600(2) 0.9747(3) 0.1148(4)
H19_6 H 0.0367 0.9905 0.1126
C32_6 C 0.0596(2) 0.9249(3) 0.0988(4)
H20_6 H 0.0361 0.9065 0.0861
C35_6 C 0.0513(3) 0.7278(3) 0.1763(4)
H22_6 H 0.0756 0.7411 0.2026
C37_6 C 0.1282(2) 0.9782(3) 0.1381(4)
H24_6 H 0.1518 0.9964 0.1516
O10_6 O 0.20851(18) 0.7185(3) 0.3107(3)
C40_6 C 0.0972(4) 0.7461(4) 0.3770(5)
H27_6 H 0.0871 0.7743 0.3909
C41_6 C 0.0395(2) 0.6819(3) 0.1911(4)
C44_6 C 0.0544(2) 0.4993(3) 0.2573(4)
C46_6 C 0.0630(3) 0.5805(3) 0.3056(5)
H29_6 H 0.0674 0.6001 0.3426
C47_6 C 0.0600(2) 0.6033(3) 0.2499(4)
C49_6 C 0.1266(2) 0.8190(3) 0.1890(3)
H30_6 H 0.1124 0.8414 0.2044
C50_6 C 0.0745(3) 0.7224(4) 0.3234(5)
H31_6 H 0.0491 0.7345 0.3005
N5_6 N 0.0632(2) 0.6554(2) 0.2455(4)
C51_6 C 0.0040(3) 0.6631(3) 0.1521(5)
C52_6 C 0.0509(3) 0.5224(3) 0.1997(5)
H33_6 H 0.0466 0.5027 0.1628
C53_6 C 0.1536(2) 0.7876(3) 0.2311(4)
H34_6 H 0.1578 0.7891 0.2752
C56_6 C 0.1575(3) 0.7550(4) 0.4726(6)
C57_6 C 0.0873(3) 0.6823(3) 0.3025(4)
C62_6 C 0.0539(3) 0.5733(3) 0.1967(5)
H38_6 H 0.0516 0.5884 0.1575
C63_6 C 0.0636(3) 0.3701(3) 0.3217(4)
H39_6 H 0.0726 0.3550 0.3626
C64_6 C 0.1338(3) 0.7314(4) 0.4118(5)
C66_6 C 0.0655(3) 0.4212(3) 0.3192(5)
H41_6 H 0.0753 0.4402 0.3572
C68_6 C 0.0383(4) 0.3633(4) 0.2151(5)
H43_6 H 0.0302 0.3434 0.1778
C69_6 C 0.1485(3) 0.6927(5) 0.3866(6)
H44_6 H 0.1748 0.6834 0.4067
C70_6 C 0.0371(4) 0.4139(4) 0.2088(5)
H45_6 H 0.0251 0.4283 0.1679
C71_6 C 0.1637(3) 0.8022(5) 0.5688(6)
H46_6 H 0.1514 0.8184 0.5936
C72_6 C 0.1251(4) 0.6671(4) 0.3319(6)
H47_6 H 0.1350 0.6399 0.3157
C73_6 C 0.1423(3) 0.7806(6) 0.5123(7)
H48_6 H 0.1150 0.7831 0.4987
C74_6 C 0.1972(4) 0.7479(5) 0.5019(7)
H49_6 H 0.2100 0.7242 0.4856
C75_6 C 0.2174(4) 0.7754(9) 0.5544(9)
H50_6 H 0.2447 0.7764 0.5667
C11_6 C 0.01829(17) 0.8064(2) 0.8993(3)
C12_6 C 0.03748(18) 0.7710(2) 0.9447(3)
H8_6 H 0.0345 0.7366 0.9342
C15_6 C 0.04907(19) 0.8710(2) 0.9740(3)
H10_6 H 0.0536 0.9054 0.9831
C21_6 C 0.0246(2) 0.8567(2) 0.9156(4)
H14_6 H 0.0115 0.8813 0.8852
O1_6 O 0.90033(13) 0.7417(2) 0.7634(3)
O2_6 O 0.96665(12) 0.81735(17) 0.7988(2)
C2_6 C 0.99341(18) 0.7901(2) 0.8354(3)
C4_6 C 0.67722(19) 0.7320(2) 0.4676(3)
H4_6 H 0.6778 0.7656 0.4550
N2_6 N 0.74080(17) 0.6434(2) 0.5842(3)
C5_6 C 0.61007(19) 0.7255(2) 0.3880(3)
C8_6 C 0.70967(18) 0.7117(2) 0.5145(3)
H6_6 H 0.7326 0.7310 0.5316
C10_6 C 0.77141(19) 0.6727(2) 0.6258(3)
C13_6 C 0.7425(2) 0.5913(2) 0.5977(4)
C14_6 C 0.64373(19) 0.6548(2) 0.4588(3)
H9_6 H 0.6218 0.6344 0.4384
N4_6 N 0.93065(19) 0.8114(2) 0.9096(3)
C20_6 C 0.8092(2) 0.6570(2) 0.6403(3)
H13_6 H 0.8143 0.6270 0.6225
C26_6 C 0.67500(19) 0.6358(2) 0.5080(3)
H16_6 H 0.6736 0.6031 0.5229
C27_6 C 0.8669(2) 0.7581(3) 0.7490(4)
C28_6 C 0.8332(2) 0.7283(2) 0.7079(3)
C30_6 C 0.9495(3) 0.7358(3) 0.9696(4)
H18_6 H 0.9483 0.7004 0.9704
C33_6 C 0.70884(19) 0.6637(2) 0.5364(3)
C34_6 C 0.7438(3) 0.5763(3) 0.6556(4)
H21_6 H 0.7439 0.6004 0.6865
C36_6 C 0.83947(19) 0.6849(3) 0.6807(3)
H23_6 H 0.8652 0.6739 0.6901
C38_6 C 0.9503(2) 0.8361(3) 0.9623(4)
H25_6 H 0.9507 0.8715 0.9604
C39_6 C 0.7648(2) 0.7160(3) 0.6542(4)
H26_6 H 0.7390 0.7265 0.6461
C45_6 C 0.7452(3) 0.4906(3) 0.6255(5)
C48_6 C 0.7464(3) 0.4375(3) 0.6432(6)
C54_6 C 0.7430(3) 0.5569(3) 0.5519(4)
H35_6 H 0.7428 0.5673 0.5115
C55_6 C 0.9307(3) 0.7607(3) 0.9148(4)
H36_6 H 0.9167 0.7418 0.8780
O11_6 O 0.85995(17) 0.7998(2) 0.7689(3)
C58_6 C 0.64418(18) 0.7042(2) 0.4390(3)
C60_6 C 0.7952(2) 0.7437(3) 0.6939(4)
H37_6 H 0.7902 0.7736 0.7119
C65_6 C 0.7438(3) 0.5066(3) 0.5678(5)
H40_6 H 0.7434 0.4824 0.5368
C67_6 C 0.7448(3) 0.5256(3) 0.6701(5)
H42_6 H 0.7453 0.5152 0.7106
O14_6 O 0.89847(19) 0.8817(2) 0.7130(3)
H51_6 H 0.8981 0.8583 0.6874
H52_6 H 0.8765 0.8957 0.7006
C4_7 C 0.82278(19) 0.2320(2) 0.0324(3)
H4_7 H 0.8222 0.2656 0.0450
C5_7 C 0.88993(19) 0.2255(2) 0.1120(3)
C14_7 C 0.85627(19) 0.1548(2) 0.0412(3)
H9_7 H 0.8782 0.1344 0.0616
C58_7 C 0.85582(18) 0.2042(2) 0.0610(3)
O1_7 O 0.59967(13) 0.2417(2) 0.7366(3)
O2_7 O 0.53335(12) 0.31735(17) 0.7012(2)
O3_4 O 0.49984(13) 0.24741(15) 0.6845(2)
O4_7 O 0.1899(2) 0.1426(3) 0.2071(5)
H1_7 H 0.1834 0.1696 0.2199
H2_7 H 0.1709 0.1313 0.1758
C2_7 C 0.50659(18) 0.2901(2) 0.6646(3)
N1_7 N 0.40728(17) 0.3509(2) 0.4182(3)
C3_7 C 0.33245(18) 0.2531(2) 0.3545(3)
H3_7 H 0.3187 0.2301 0.3703
N2_7 N 0.75920(17) 0.1434(2) 0.9158(3)
C6_7 C 0.43903(18) 0.2857(2) 0.4947(3)
H5_7 H 0.4273 0.2612 0.4632
C7_7 C 0.40644(19) 0.4018(2) 0.3986(3)
C8_7 C 0.79033(18) 0.2117(2) 0.9855(3)
H6_7 H 0.7674 0.2310 0.9684
C9_7 C 0.4716(3) 0.2538(3) 0.3756(4)
H7_7 H 0.4634 0.2856 0.3839
C10_7 C 0.72859(19) 0.1727(2) 0.8742(3)
C11_7 C 0.48171(17) 0.3064(2) 0.6007(3)
C12_7 C 0.46252(18) 0.2710(2) 0.5553(3)
H8_7 H 0.4655 0.2366 0.5658
C13_7 C 0.7575(2) 0.0913(2) 0.9023(4)
C15_7 C 0.45093(19) 0.3710(2) 0.5260(3)
H10_7 H 0.4464 0.4054 0.5169
C16_7 C 0.43222(19) 0.3360(2) 0.4791(3)
O9_7 O 0.27584(18) 0.1935(2) 0.2681(3)
C17_7 C 0.37974(18) 0.3180(2) 0.3755(3)
C18_7 C 0.3723(2) 0.4281(3) 0.3778(4)
H11_7 H 0.3489 0.4119 0.3742
N4_7 N 0.56935(19) 0.3114(2) 0.5904(3)
C19_7 C 0.35881(19) 0.2846(2) 0.3967(3)
H12_7 H 0.3626 0.2834 0.4406
C20_7 C 0.6908(2) 0.1570(2) 0.8597(3)
H13_7 H 0.6857 0.1270 0.8775
C21_7 C 0.4754(2) 0.3567(2) 0.5844(4)
H14_7 H 0.4885 0.3813 0.6148
C22_7 C 0.32541(19) 0.2539(3) 0.2907(4)
C23_7 C 0.40597(19) 0.5016(2) 0.3660(3)
C24_7 C 0.2956(2) 0.2189(3) 0.2476(4)
C25_7 C 0.4404(3) 0.0294(3) 0.1912(4)
H15_7 H 0.4390 0.0147 0.1522
C26_7 C 0.82500(19) 0.1358(2) 0.9920(3)
H16_7 H 0.8264 0.1031 0.9771
C27_7 C 0.6331(2) 0.2581(3) 0.7510(4)
C28_7 C 0.6668(2) 0.2283(2) 0.7921(3)
C29_5 C 0.5186(3) 0.1888(3) 0.4017(5)
H17_5 H 0.5424 0.1750 0.4291
C30_7 C 0.5505(3) 0.2358(3) 0.5304(4)
H18_7 H 0.5517 0.2004 0.5296
C31_7 C 0.4400(2) 0.4747(3) 0.3852(4)
H19_7 H 0.4633 0.4905 0.3874
C32_7 C 0.4404(2) 0.4249(3) 0.4012(4)
H20_7 H 0.4639 0.4065 0.4139
C33_7 C 0.79116(19) 0.1637(2) 0.9636(3)
C34_7 C 0.7562(3) 0.0763(3) 0.8444(4)
H21_7 H 0.7561 0.1004 0.8135
C35_7 C 0.4487(3) 0.2278(3) 0.3237(4)
H22_7 H 0.4244 0.2411 0.2974
C36_7 C 0.66053(19) 0.1849(3) 0.8193(3)
H23_7 H 0.6348 0.1739 0.8099
C37_7 C 0.3718(2) 0.4782(3) 0.3619(4)
H24_7 H 0.3482 0.4964 0.3484
O10_7 O 0.29149(18) 0.2185(3) 0.1893(3)
C38_7 C 0.5497(2) 0.3361(3) 0.5377(4)
H25_7 H 0.5493 0.3715 0.5396
C39_7 C 0.7352(2) 0.2160(3) 0.8458(4)
H26_7 H 0.7610 0.2265 0.8539
C40_7 C 0.4028(4) 0.2461(4) 0.1230(5)
H27_7 H 0.4129 0.2743 0.1091
C41_7 C 0.4605(2) 0.1819(3) 0.3089(4)
C42_5 C 0.5295(2) 0.3128(3) 0.4788(3)
H28_5 H 0.5161 0.3322 0.4422
C43_5 C 0.5294(2) 0.2619(3) 0.4751(4)
C46_7 C 0.4370(3) 0.0805(3) 0.1944(5)
H29_7 H 0.4326 0.1001 0.1574
C47_7 C 0.4400(2) 0.1033(3) 0.2501(4)
C49_7 C 0.3734(2) 0.3190(3) 0.3110(3)
H30_7 H 0.3876 0.3414 0.2956
C50_7 C 0.4255(3) 0.2224(4) 0.1766(5)
H31_7 H 0.4509 0.2345 0.1995
N5_7 N 0.4368(2) 0.1554(2) 0.2545(4)
C51_7 C 0.4960(3) 0.1631(3) 0.3479(5)
H32_5 H 0.5049 0.1323 0.3376
C52_7 C 0.4491(3) 0.0224(3) 0.3003(5)
H33_7 H 0.4534 0.0027 0.3372
C53_7 C 0.3464(2) 0.2876(3) 0.2689(4)
H34_7 H 0.3422 0.2891 0.2248
C54_7 C 0.7570(3) 0.0569(3) 0.9481(4)
H35_7 H 0.7572 0.0673 0.9885
C55_7 C 0.5693(3) 0.2607(3) 0.5852(4)
H36_7 H 0.5833 0.2418 0.6220
C56_7 C 0.3425(3) 0.2550(4) 0.0274(6)
C57_7 C 0.4127(3) 0.1823(3) 0.1975(4)
O11_7 O 0.64005(17) 0.2998(2) 0.7311(3)
C59_7 C 0.4065(2) 0.5563(3) 0.3497(3)
C60_7 C 0.7048(2) 0.2437(3) 0.8061(4)
H37_7 H 0.7098 0.2736 0.7881
C61_5 C 0.5065(2) 0.2353(3) 0.4161(4)
C62_7 C 0.4461(3) 0.0733(3) 0.3033(5)
H38_7 H 0.4484 0.0884 0.3425
C64_7 C 0.3662(3) 0.2314(4) 0.0882(5)
C65_7 C 0.7562(3) 0.0066(3) 0.9322(5)
C67_7 C 0.7552(3) 0.0256(3) 0.8299(5)
H42_7 H 0.7547 0.0152 0.7894
C69_7 C 0.3515(3) 0.1927(5) 0.1134(6)
H44_7 H 0.3252 0.1834 0.0933
C72_7 C 0.3749(4) 0.1671(4) 0.1681(6)
H47_7 H 0.3650 0.1399 0.1843
H48_7 H 0.3850 0.2831 0.0013
H49_7 H 0.2900 0.2242 0.0144
O14_7 O 0.60153(19) 0.3817(2) 0.7870(3)
H51_7 H 0.6019 0.3583 0.8126
H52_7 H 0.6235 0.3957 0.7994
O15_4 O 0.50016(13) 0.24741(15) 0.8155(2)
C71_7 C 0.3363(3) 0.3022(5) 0.9312(6)
H46_7 H 0.3486 0.3184 0.9064
C73_7 C 0.3577(3) 0.2806(6) 0.9877(7)
C74_7 C 0.3028(4) 0.2479(5) 0.9981(7)
C75_7 C 0.2826(4) 0.2754(9) 0.9456(9)
H50_7 H 0.2553 0.2764 0.9333
C1_7 C 0.4470(2) 0.9443(3) 0.2392(4)
C44_7 C 0.4456(2) 0.9993(3) 0.2427(4)
C45_7 C 0.7548(3) 0.9906(3) 0.8745(5)
C48_7 C 0.7536(3) 0.9375(3) 0.8568(6)
C63_7 C 0.4364(3) 0.8701(3) 0.1783(4)
H39_7 H 0.4274 0.8550 0.1374
H40_7 H 0.7566 0.9824 0.9632
C66_7 C 0.4345(3) 0.9212(3) 0.1808(5)
H41_7 H 0.4247 0.9402 0.1428
C68_7 C 0.4617(4) 0.8633(4) 0.2849(5)
H43_7 H 0.4698 0.8434 0.3222
C70_7 C 0.4629(4) 0.9139(4) 0.2912(5)
H45_7 H 0.4749 0.9283 0.3321
O4_8 O 0.8101(2) 0.1426(3) 0.2929(5)
H1_8 H 0.8166 0.1696 0.2801
H2_8 H 0.8291 0.1313 0.3242
N1_8 N 0.59272(17) 0.3509(2) 0.0818(3)
C3_8 C 0.66755(18) 0.2531(2) 0.1455(3)
H3_8 H 0.6813 0.2301 0.1297
C6_8 C 0.56097(18) 0.2857(2) 0.0053(3)
H5_8 H 0.5727 0.2612 0.0368
C7_8 C 0.59356(19) 0.4018(2) 0.1014(3)
C9_8 C 0.5284(3) 0.2538(3) 0.1244(4)
H7_8 H 0.5366 0.2856 0.1161
C16_8 C 0.56778(19) 0.3360(2) 0.0209(3)
O9_8 O 0.72416(18) 0.1935(2) 0.2319(3)
C17_8 C 0.62026(18) 0.3180(2) 0.1245(3)
C18_8 C 0.6277(2) 0.4281(3) 0.1222(4)
H11_8 H 0.6511 0.4119 0.1258
C19_8 C 0.64119(19) 0.2846(2) 0.1033(3)
H12_8 H 0.6374 0.2834 0.0594
C22_8 C 0.67459(19) 0.2539(3) 0.2093(4)
C23_8 C 0.59403(19) 0.5016(2) 0.1340(3)
C24_8 C 0.7044(2) 0.2189(3) 0.2524(4)
C25_8 C 0.5596(3) 0.0294(3) 0.3088(4)
H15_8 H 0.5610 0.0147 0.3478
C29_6 C 0.4814(3) 0.1888(3) 0.0983(5)
H17_6 H 0.4576 0.1750 0.0709
C31_8 C 0.5600(2) 0.4747(3) 0.1148(4)
H19_8 H 0.5367 0.4905 0.1126
C32_8 C 0.5596(2) 0.4249(3) 0.0988(4)
H20_8 H 0.5361 0.4065 0.0861
C35_8 C 0.5513(3) 0.2278(3) 0.1763(4)
H22_8 H 0.5756 0.2411 0.2026
C37_8 C 0.6282(2) 0.4782(3) 0.1381(4)
H24_8 H 0.6518 0.4964 0.1516
O10_8 O 0.70851(18) 0.2185(3) 0.3107(3)
C40_8 C 0.5972(4) 0.2461(4) 0.3770(5)
H27_8 H 0.5871 0.2743 0.3909
C41_8 C 0.5395(2) 0.1819(3) 0.1911(4)
C42_6 C 0.4705(2) 0.3128(3) 0.0212(3)
H28_6 H 0.4839 0.3322 0.0578
C43_6 C 0.4706(2) 0.2619(3) 0.0249(4)
C46_8 C 0.5630(3) 0.0805(3) 0.3056(5)
H29_8 H 0.5674 0.1001 0.3426
C47_8 C 0.5600(2) 0.1033(3) 0.2499(4)
C49_8 C 0.6266(2) 0.3190(3) 0.1890(3)
H30_8 H 0.6124 0.3414 0.2044
C50_8 C 0.5745(3) 0.2224(4) 0.3234(5)
H31_8 H 0.5491 0.2345 0.3005
N5_8 N 0.5632(2) 0.1554(2) 0.2455(4)
C51_8 C 0.5040(3) 0.1631(3) 0.1521(5)
H32_6 H 0.4951 0.1323 0.1624
C52_8 C 0.5509(3) 0.0224(3) 0.1997(5)
H33_8 H 0.5466 0.0027 0.1628
C53_8 C 0.6536(2) 0.2876(3) 0.2311(4)
H34_8 H 0.6578 0.2891 0.2752
C56_8 C 0.6575(3) 0.2550(4) 0.4726(6)
C57_8 C 0.5873(3) 0.1823(3) 0.3025(4)
C59_8 C 0.5935(2) 0.5563(3) 0.1503(3)
C61_6 C 0.4935(2) 0.2353(3) 0.0839(4)
C62_8 C 0.5539(3) 0.0733(3) 0.1967(5)
H38_8 H 0.5516 0.0884 0.1575
C64_8 C 0.6338(3) 0.2314(4) 0.4118(5)
C69_8 C 0.6485(3) 0.1927(5) 0.3866(6)
H44_8 H 0.6748 0.1834 0.4067
C71_8 C 0.6637(3) 0.3022(5) 0.5688(6)
H46_8 H 0.6514 0.3184 0.5936
C72_8 C 0.6251(4) 0.1671(4) 0.3319(6)
H47_8 H 0.6350 0.1399 0.3157
C73_8 C 0.6423(3) 0.2806(6) 0.5123(7)
H48_8 H 0.6150 0.2831 0.4987
C74_8 C 0.6972(4) 0.2479(5) 0.5019(7)
H49_8 H 0.7100 0.2242 0.4856
C75_8 C 0.7174(4) 0.2754(9) 0.5544(9)
H50_8 H 0.7447 0.2764 0.5667
O1_8 O 0.40033(13) 0.2417(2) 0.7634(3)
O2_8 O 0.46665(12) 0.31735(17) 0.7988(2)
C2_8 C 0.49341(18) 0.2901(2) 0.8354(3)
C4_8 C 0.17722(19) 0.2320(2) 0.4676(3)
H4_8 H 0.1778 0.2656 0.4550
N2_8 N 0.24080(17) 0.1434(2) 0.5842(3)
C5_8 C 0.11007(19) 0.2255(2) 0.3880(3)
C8_8 C 0.20967(18) 0.2117(2) 0.5145(3)
H6_8 H 0.2326 0.2310 0.5316
C10_8 C 0.27141(19) 0.1727(2) 0.6258(3)
C11_8 C 0.51829(17) 0.3064(2) 0.8993(3)
C12_8 C 0.53748(18) 0.2710(2) 0.9447(3)
H8_8 H 0.5345 0.2366 0.9342
C13_8 C 0.2425(2) 0.0913(2) 0.5977(4)
C14_8 C 0.14373(19) 0.1548(2) 0.4588(3)
H9_8 H 0.1218 0.1344 0.4384
C15_8 C 0.54907(19) 0.3710(2) 0.9740(3)
H10_8 H 0.5536 0.4054 0.9831
N4_8 N 0.43065(19) 0.3114(2) 0.9096(3)
C20_8 C 0.3092(2) 0.1570(2) 0.6403(3)
H13_8 H 0.3143 0.1270 0.6225
C21_8 C 0.5246(2) 0.3567(2) 0.9156(4)
H14_8 H 0.5115 0.3813 0.8852
C26_8 C 0.17500(19) 0.1358(2) 0.5080(3)
H16_8 H 0.1736 0.1031 0.5229
C27_8 C 0.3669(2) 0.2581(3) 0.7490(4)
C28_8 C 0.3332(2) 0.2283(2) 0.7079(3)
C30_8 C 0.4495(3) 0.2358(3) 0.9696(4)
H18_8 H 0.4483 0.2004 0.9704
C33_8 C 0.20884(19) 0.1637(2) 0.5364(3)
C34_8 C 0.2438(3) 0.0763(3) 0.6556(4)
H21_8 H 0.2439 0.1004 0.6865
C36_8 C 0.33947(19) 0.1849(3) 0.6807(3)
H23_8 H 0.3652 0.1739 0.6901
C38_8 C 0.4503(2) 0.3361(3) 0.9623(4)
H25_8 H 0.4507 0.3715 0.9604
C39_8 C 0.2648(2) 0.2160(3) 0.6542(4)
H26_8 H 0.2390 0.2265 0.6461
C54_8 C 0.2430(3) 0.0569(3) 0.5519(4)
H35_8 H 0.2428 0.0673 0.5115
C55_8 C 0.4307(3) 0.2607(3) 0.9148(4)
H36_8 H 0.4167 0.2418 0.8780
O11_8 O 0.35995(17) 0.2998(2) 0.7689(3)
C58_8 C 0.14418(18) 0.2042(2) 0.4390(3)
C60_8 C 0.2952(2) 0.2437(3) 0.6939(4)
H37_8 H 0.2902 0.2736 0.7119
C65_8 C 0.2438(3) 0.0066(3) 0.5678(5)
C67_8 C 0.2448(3) 0.0256(3) 0.6701(5)
H42_8 H 0.2453 0.0152 0.7106
O14_8 O 0.39847(19) 0.3817(2) 0.7130(3)
H51_8 H 0.3981 0.3583 0.6874
H52_8 H 0.3765 0.3957 0.7006
C1_8 C 0.5530(2) 0.9443(3) 0.2608(4)
C44_8 C 0.5544(2) 0.9993(3) 0.2573(4)
C63_8 C 0.5636(3) 0.8701(3) 0.3217(4)
H39_8 H 0.5726 0.8550 0.3626
C66_8 C 0.5655(3) 0.9212(3) 0.3192(5)
H41_8 H 0.5753 0.9402 0.3572
C68_8 C 0.5383(4) 0.8633(4) 0.2151(5)
H43_8 H 0.5302 0.8434 0.1778
C70_8 C 0.5371(4) 0.9139(4) 0.2088(5)
H45_8 H 0.5251 0.9283 0.1679
C45_8 C 0.2452(3) 0.9906(3) 0.6255(5)
C48_8 C 0.2464(3) 0.9375(3) 0.6432(6)
H40_8 H 0.2434 0.9824 0.5368
C29_7 C 0.0186(3) 0.3112(3) 0.9017(5)
H17_7 H 0.0424 0.3250 0.9291
C42_7 C 0.0295(2) 0.1872(3) 0.9788(3)
H28_7 H 0.0161 0.1678 0.9422
C43_7 C 0.0294(2) 0.2381(3) 0.9751(4)
H32_7 H 0.0049 0.3677 0.8376
C61_7 C 0.0065(2) 0.2647(3) 0.9161(4)
C29_8 C 0.9814(3) 0.6888(3) 0.0983(5)
H17_8 H 0.9576 0.6750 0.0709
C42_8 C 0.9705(2) 0.8128(3) 0.0212(3)
H28_8 H 0.9839 0.8322 0.0578
C43_8 C 0.9706(2) 0.7619(3) 0.0249(4)
H32_8 H 0.9951 0.6323 0.1624
C61_8 C 0.9935(2) 0.7353(3) 0.0839(4)
loop_
_geom_bond_atom_site_label_1
_geom_bond_atom_site_label_2
_geom_bond_site_symmetry_1
_geom_bond_site_symmetry_2
N6 C71 1_555 1_555
C71 H46 1_555 1_555
C75 N6 1_555 1_555
H50 C75 1_555 1_555
Cd9 N6 1_555 1_555
C71 C73 1_555 1_555
C74 C75 1_555 1_555
Cd3 O4 1_555 1_555
C1 C44 1_555 1_555
O4 H1 1_555 1_555
H2 O4 1_555 1_555
N1 C7 1_555 1_555
C3 H3 1_555 1_555
N3 C63 1_555 1_555
C6 H5 1_555 1_555
C7 C18 1_555 1_555
C9 H7 1_555 1_555
C12 C6 1_555 1_555
H8 C12 1_555 1_555
C15 H10 1_555 1_555
C16 N1 1_555 1_555
O9 Cd3 1_555 1_555
C17 N1 1_555 1_555
C18 H11 1_555 1_555
C19 C3 1_555 1_555
H12 C19 1_555 1_555
C21 C11 1_555 1_555
H14 C21 1_555 1_555
C22 C3 1_555 1_555
C24 O9 1_555 1_555
C25 H15 1_555 1_555
C31 H19 1_555 1_555
C32 C7 1_555 1_555
H20 C32 1_555 1_555
C35 C9 1_555 1_555
H22 C35 1_555 1_555
C37 C18 1_555 1_555
H24 C37 1_555 1_555
O10 Cd3 1_555 1_555
C40 H27 1_555 1_555
C41 C35 1_555 1_555
C44 C25 1_555 1_555
C46 C25 1_555 1_555
H29 C46 1_555 1_555
C47 C46 1_555 1_555
C49 C17 1_555 1_555
H30 C49 1_555 1_555
C50 C40 1_555 1_555
H31 C50 1_555 1_555
N5 C41 1_555 1_555
C52 C44 1_555 1_555
H33 C52 1_555 1_555
C53 C22 1_555 1_555
H34 C53 1_555 1_555
C56 C64 1_555 1_555
C57 C50 1_555 1_555
C62 C47 1_555 1_555
H38 C62 1_555 1_555
C63 H39 1_555 1_555
C64 C40 1_555 1_555
C66 C1 1_555 1_555
H41 C66 1_555 1_555
C68 N3 1_555 1_555
H43 C68 1_555 1_555
C69 C64 1_555 1_555
H44 C69 1_555 1_555
C70 C1 1_555 1_555
H45 C70 1_555 1_555
C72 C57 1_555 1_555
H47 C72 1_555 1_555
Cd4 O3 1_555 1_555
Cd5 N3 1_555 1_555
N8 Cd3 1_555 1_555
O20 Cd3 1_555 1_555
O21 Cd3 1_555 1_555
C6 C16 1_555 1_555
C11 C12 1_555 1_555
C15 C16 1_555 1_555
C15 C21 1_555 1_555
C17 C19 1_555 1_555
C22 C24 1_555 1_555
C24 O10 1_555 1_555
C31 C32 1_555 1_555
C41 C51 1_555 1_555
C47 N5 1_555 1_555
C49 C53 1_555 1_555
N5 C57 1_555 1_555
C52 C62 1_555 1_555
C63 C66 1_555 1_555
C68 C70 1_555 1_555
C69 C72 1_555 1_555
O7 C59 1_555 1_555
O8 C59 1_555 1_555
C59 C23 1_555 1_555
Cd7 O7 1_555 1_555
O8 Cd7 1_555 1_555
Cd1 O1 1_555 1_555
Cd2 O2 1_555 1_555
O1 C27 1_555 1_555
O2 Cd1 1_555 1_555
C2 O2 1_555 1_555
N2 C10 1_555 1_555
H6 C8 1_555 1_555
C10 C20 1_555 1_555
C13 N2 1_555 1_555
N4 Cd2 1_555 1_555
C20 H13 1_555 1_555
H16 C26 1_555 1_555
C27 C28 1_555 1_555
C28 C36 1_555 1_555
C29 H17 1_555 1_555
C30 H18 1_555 1_555
C33 N2 1_555 1_555
C34 C13 1_555 1_555
H21 C34 1_555 1_555
C36 C20 1_555 1_555
H23 C36 1_555 1_555
C38 N4 1_555 1_555
H25 C38 1_555 1_555
C39 C10 1_555 1_555
H26 C39 1_555 1_555
C42 C38 1_555 1_555
H28 C42 1_555 1_555
C43 C30 1_555 1_555
C45 C48 1_555 1_555
C48 O12 1_555 1_555
C54 C13 1_555 1_555
H35 C54 1_555 1_555
C55 N4 1_555 1_555
H36 C55 1_555 1_555
O11 Cd2 1_555 1_555
C60 C28 1_555 1_555
H37 C60 1_555 1_555
O12 Cd8 1_555 1_555
O13 C48 1_555 1_555
C65 C45 1_555 1_555
H40 C65 1_555 1_555
C67 C34 1_555 1_555
H42 C67 1_555 1_555
O14 Cd2 1_555 1_555
H51 O14 1_555 1_555
H52 O14 1_555 1_555
Cd8 O13 1_555 1_555
O15 Cd1 1_555 1_555
O16 Cd1 1_555 1_555
O17 Cd1 1_555 1_555
O18 Cd2 1_555 1_555
N7 Cd1 1_555 1_555
O19 Cd2 1_555 1_555
C8 C33 1_555 1_555
C26 C33 1_555 1_555
C27 O11 1_555 1_555
C29 C61 1_555 1_555
C30 C55 1_555 1_555
C39 C60 1_555 1_555
C42 C43 1_555 1_555
C43 C61 1_555 1_555
C45 C67 1_555 1_555
C54 C65 1_555 1_555
O5 C5 1_555 1_555
O6 C5 1_555 1_555
C4 H4 1_555 1_555
C5 C58 1_555 1_555
C14 H9 1_555 1_555
C58 C4 1_555 1_555
Cd6 O5 1_555 1_555
O6 Cd6 1_555 1_555
C14 C58 1_555 1_555
Cd4 O1_2 1_555 1_555
Cd2_2 O2_2 1_555 1_555
O1_2 C27_2 1_555 1_555
O2_2 Cd4 1_555 1_555
O5_2 C5_2 1_555 1_555
C2_2 O2_2 1_555 1_555
O6_2 C5_2 1_555 1_555
C4_2 H4_2 1_555 1_555
N2_2 C10_2 1_555 1_555
C5_2 C58_2 1_555 1_555
C8_2 C4_2 1_555 1_555
H6_2 C8_2 1_555 1_555
C10_2 C20_2 1_555 1_555
C13_2 N2_2 1_555 1_555
C14_2 H9_2 1_555 1_555
N4_2 Cd2_2 1_555 1_555
C20_2 H13_2 1_555 1_555
C26_2 C14_2 1_555 1_555
H16_2 C26_2 1_555 1_555
C27_2 C28_2 1_555 1_555
C28_2 C36_2 1_555 1_555
C30_2 H18_2 1_555 1_555
C33_2 N2_2 1_555 1_555
C34_2 C13_2 1_555 1_555
H21_2 C34_2 1_555 1_555
C36_2 C20_2 1_555 1_555
H23_2 C36_2 1_555 1_555
C38_2 N4_2 1_555 1_555
H25_2 C38_2 1_555 1_555
C39_2 C10_2 1_555 1_555
H26_2 C39_2 1_555 1_555
C45_2 C48_2 1_555 1_555
C48_2 O12_2 1_555 1_555
C54_2 C13_2 1_555 1_555
H35_2 C54_2 1_555 1_555
C55_2 N4_2 1_555 1_555
H36_2 C55_2 1_555 1_555
O11_2 Cd2_2 1_555 1_555
C58_2 C4_2 1_555 1_555
C60_2 C28_2 1_555 1_555
H37_2 C60_2 1_555 1_555
O12_2 Cd8_2 1_555 1_555
O13_2 C48_2 1_555 1_555
C65_2 C45_2 1_555 1_555
H40_2 C65_2 1_555 1_555
C67_2 C34_2 1_555 1_555
H42_2 C67_2 1_555 1_555
O14_2 Cd2_2 1_555 1_555
H51_2 O14_2 1_555 1_555
H52_2 O14_2 1_555 1_555
Cd6_2 O5_2 1_555 1_555
Cd8_2 O13_2 1_555 1_555
O16_2 Cd4 1_555 1_555
O17_2 Cd4 1_555 1_555
O18_2 Cd2_2 1_555 1_555
N7_2 Cd4 1_555 1_555
O19_2 Cd2_2 1_555 1_555
O6_2 Cd6_2 1_555 1_555
C8_2 C33_2 1_555 1_555
C14_2 C58_2 1_555 1_555
C26_2 C33_2 1_555 1_555
C27_2 O11_2 1_555 1_555
C30_2 C55_2 1_555 1_555
C39_2 C60_2 1_555 1_555
C45_2 C67_2 1_555 1_555
C54_2 C65_2 1_555 1_555
H8_2 C12_2 1_555 1_555
C15_2 H10_2 1_555 1_555
C21_2 C11_2 1_555 1_555
H14_2 C21_2 1_555 1_555
C11_2 C12_2 1_555 1_555
C15_2 C21_2 1_555 1_555
Cd3_2 O4_2 1_555 1_555
C1_2 C44_2 1_555 1_555
O4_2 H1_2 1_555 1_555
H2_2 O4_2 1_555 1_555
N1_2 C7_2 1_555 1_555
C3_2 H3_2 1_555 1_555
N3_2 C63_2 1_555 1_555
C6_2 H5_2 1_555 1_555
C7_2 C18_2 1_555 1_555
C9_2 H7_2 1_555 1_555
C16_2 N1_2 1_555 1_555
O9_2 Cd3_2 1_555 1_555
C17_2 N1_2 1_555 1_555
C18_2 H11_2 1_555 1_555
C19_2 C3_2 1_555 1_555
H12_2 C19_2 1_555 1_555
C22_2 C3_2 1_555 1_555
C24_2 O9_2 1_555 1_555
C25_2 H15_2 1_555 1_555
C31_2 H19_2 1_555 1_555
C32_2 C7_2 1_555 1_555
H20_2 C32_2 1_555 1_555
C35_2 C9_2 1_555 1_555
H22_2 C35_2 1_555 1_555
C37_2 C18_2 1_555 1_555
H24_2 C37_2 1_555 1_555
O10_2 Cd3_2 1_555 1_555
C40_2 H27_2 1_555 1_555
C41_2 C35_2 1_555 1_555
C44_2 C25_2 1_555 1_555
C46_2 C25_2 1_555 1_555
H29_2 C46_2 1_555 1_555
C47_2 C46_2 1_555 1_555
C49_2 C17_2 1_555 1_555
H30_2 C49_2 1_555 1_555
C50_2 C40_2 1_555 1_555
H31_2 C50_2 1_555 1_555
N5_2 C41_2 1_555 1_555
C52_2 C44_2 1_555 1_555
H33_2 C52_2 1_555 1_555
C53_2 C22_2 1_555 1_555
H34_2 C53_2 1_555 1_555
N6_2 C71_2 1_555 1_555
C56_2 C64_2 1_555 1_555
C57_2 C50_2 1_555 1_555
C62_2 C47_2 1_555 1_555
H38_2 C62_2 1_555 1_555
C63_2 H39_2 1_555 1_555
C64_2 C40_2 1_555 1_555
C66_2 C1_2 1_555 1_555
H41_2 C66_2 1_555 1_555
C68_2 N3_2 1_555 1_555
H43_2 C68_2 1_555 1_555
C69_2 C64_2 1_555 1_555
H44_2 C69_2 1_555 1_555
C70_2 C1_2 1_555 1_555
H45_2 C70_2 1_555 1_555
C71_2 H46_2 1_555 1_555
C72_2 C57_2 1_555 1_555
H47_2 C72_2 1_555 1_555
C73_2 C56_2 1_555 1_555
H48_2 C73_2 1_555 1_555
C74_2 C56_2 1_555 1_555
H49_2 C74_2 1_555 1_555
C75_2 N6_2 1_555 1_555
H50_2 C75_2 1_555 1_555
Cd5_2 N3_2 1_555 1_555
Cd9_2 N6_2 1_555 1_555
N8_2 Cd3_2 1_555 1_555
O20_2 Cd3_2 1_555 1_555
O21_2 Cd3_2 1_555 1_555
C6_2 C16_2 1_555 1_555
C17_2 C19_2 1_555 1_555
C22_2 C24_2 1_555 1_555
C24_2 O10_2 1_555 1_555
C31_2 C32_2 1_555 1_555
C41_2 C51_2 1_555 1_555
C47_2 N5_2 1_555 1_555
C49_2 C53_2 1_555 1_555
N5_2 C57_2 1_555 1_555
C52_2 C62_2 1_555 1_555
C63_2 C66_2 1_555 1_555
C68_2 C70_2 1_555 1_555
C69_2 C72_2 1_555 1_555
C71_2 C73_2 1_555 1_555
C74_2 C75_2 1_555 1_555
O7_2 C59_2 1_555 1_555
O8_2 C59_2 1_555 1_555
C59_2 C23_2 1_555 1_555
Cd7_2 O7_2 1_555 1_555
O8_2 Cd7_2 1_555 1_555
C1_3 C44_3 1_555 1_555
N3_3 C63_3 1_555 1_555
C45_3 C48_3 1_555 1_555
C48_3 O12_3 1_555 1_555
O12_3 Cd9 1_555 1_555
O13_3 C48_3 1_555 1_555
C63_3 H39_3 1_555 1_555
C66_3 C1_3 1_555 1_555
H41_3 C66_3 1_555 1_555
C68_3 N3_3 1_555 1_555
H43_3 C68_3 1_555 1_555
C70_3 C1_3 1_555 1_555
H45_3 C70_3 1_555 1_555
Cd6 N3_3 1_555 1_555
Cd9 O13_3 1_555 1_555
C63_3 C66_3 1_555 1_555
C68_3 C70_3 1_555 1_555
N6_3 C71_3 1_555 1_555
C71_3 H46_3 1_555 1_555
C75_3 N6_3 1_555 1_555
H50_3 C75_3 1_555 1_555
Cd8 N6_3 1_555 1_555
C71_3 C73_3 1_555 1_555
C74_3 C75_3 1_555 1_555
Cd1_2 O1_3 1_555 1_555
Cd2_3 O2_3 1_555 1_555
Cd3_3 O4_3 1_555 1_555
O1_3 C27_3 1_555 1_555
O2_3 Cd1_2 1_555 1_555
O3_2 Cd1_2 1_555 1_555
O4_3 H1_3 1_555 1_555
H2_3 O4_3 1_555 1_555
C2_3 O2_3 1_555 1_555
N1_3 C7_3 1_555 1_555
O7_3 C59_3 1_555 1_555
C3_3 H3_3 1_555 1_555
N2_3 C10_3 1_555 1_555
C6_3 H5_3 1_555 1_555
C7_3 C18_3 1_555 1_555
O8_3 C59_3 1_555 1_555
H6_3 C8_3 1_555 1_555
C9_3 H7_3 1_555 1_555
C10_3 C20_3 1_555 1_555
C11_3 C2_3 1_555 1_555
C12_3 C6_3 1_555 1_555
H8_3 C12_3 1_555 1_555
C13_3 N2_3 1_555 1_555
C15_3 H10_3 1_555 1_555
C16_3 N1_3 1_555 1_555
O9_3 Cd3_3 1_555 1_555
C17_3 N1_3 1_555 1_555
C18_3 H11_3 1_555 1_555
N4_3 Cd2_3 1_555 1_555
C19_3 C3_3 1_555 1_555
H12_3 C19_3 1_555 1_555
C20_3 H13_3 1_555 1_555
C21_3 C11_3 1_555 1_555
H14_3 C21_3 1_555 1_555
C22_3 C3_3 1_555 1_555
C23_3 C31_3 1_555 1_555
C24_3 O9_3 1_555 1_555
C25_3 H15_3 1_555 1_555
H16_3 C26_3 1_555 1_555
C27_3 C28_3 1_555 1_555
C28_3 C36_3 1_555 1_555
C29_2 H17_2 1_555 1_555
C30_3 H18_3 1_555 1_555
C31_3 H19_3 1_555 1_555
C32_3 C7_3 1_555 1_555
H20_3 C32_3 1_555 1_555
C33_3 N2_3 1_555 1_555
C34_3 C13_3 1_555 1_555
H21_3 C34_3 1_555 1_555
C35_3 C9_3 1_555 1_555
H22_3 C35_3 1_555 1_555
C36_3 C20_3 1_555 1_555
H23_3 C36_3 1_555 1_555
C37_3 C18_3 1_555 1_555
H24_3 C37_3 1_555 1_555
O10_3 Cd3_3 1_555 1_555
C38_3 N4_3 1_555 1_555
H25_3 C38_3 1_555 1_555
C39_3 C10_3 1_555 1_555
H26_3 C39_3 1_555 1_555
C40_3 H27_3 1_555 1_555
C41_3 C35_3 1_555 1_555
C42_2 C38_3 1_555 1_555
H28_2 C42_2 1_555 1_555
C43_2 C30_3 1_555 1_555
C46_3 C25_3 1_555 1_555
H29_3 C46_3 1_555 1_555
C47_3 C46_3 1_555 1_555
C49_3 C17_3 1_555 1_555
H30_3 C49_3 1_555 1_555
C50_3 C40_3 1_555 1_555
H31_3 C50_3 1_555 1_555
N5_3 C41_3 1_555 1_555
C51_3 C29_2 1_555 1_555
H32_2 C51_3 1_555 1_555
H33_3 C52_3 1_555 1_555
C53_3 C22_3 1_555 1_555
H34_3 C53_3 1_555 1_555
C54_3 C13_3 1_555 1_555
H35_3 C54_3 1_555 1_555
C55_3 N4_3 1_555 1_555
H36_3 C55_3 1_555 1_555
C56_3 C64_3 1_555 1_555
C57_3 C50_3 1_555 1_555
O11_3 Cd2_3 1_555 1_555
C59_3 C23_3 1_555 1_555
C60_3 C28_3 1_555 1_555
H37_3 C60_3 1_555 1_555
C61_2 C9_3 1_555 1_555
C62_3 C47_3 1_555 1_555
H38_3 C62_3 1_555 1_555
C64_3 C40_3 1_555 1_555
C67_3 C34_3 1_555 1_555
H42_3 C67_3 1_555 1_555
C69_3 C64_3 1_555 1_555
H44_3 C69_3 1_555 1_555
C72_3 C57_3 1_555 1_555
H47_3 C72_3 1_555 1_555
O14_3 Cd2_3 1_555 1_555
H51_3 O14_3 1_555 1_555
H52_3 O14_3 1_555 1_555
Cd4_2 O3_2 1_555 1_555
Cd7_3 O7_3 1_555 1_555
O15_2 Cd1_2 1_555 1_555
O16_3 Cd1_2 1_555 1_555
O17_3 Cd1_2 1_555 1_555
O18_3 Cd2_3 1_555 1_555
N7_3 Cd1_2 1_555 1_555
O19_3 Cd2_3 1_555 1_555
N8_3 Cd3_3 1_555 1_555
O20_3 Cd3_3 1_555 1_555
O21_3 Cd3_3 1_555 1_555
O3_2 C2_3 1_555 1_555
C6_3 C16_3 1_555 1_555
O8_3 Cd7_3 1_555 1_555
C8_3 C33_3 1_555 1_555
C11_3 C12_3 1_555 1_555
C15_3 C16_3 1_555 1_555
C15_3 C21_3 1_555 1_555
C17_3 C19_3 1_555 1_555
C22_3 C24_3 1_555 1_555
C23_3 C37_3 1_555 1_555
C24_3 O10_3 1_555 1_555
C26_3 C33_3 1_555 1_555
C27_3 O11_3 1_555 1_555
C29_2 C61_2 1_555 1_555
C30_3 C55_3 1_555 1_555
C31_3 C32_3 1_555 1_555
C39_3 C60_3 1_555 1_555
C41_3 C51_3 1_555 1_555
C42_2 C43_2 1_555 1_555
C43_2 C61_2 1_555 1_555
C47_3 N5_3 1_555 1_555
C49_3 C53_3 1_555 1_555
N5_3 C57_3 1_555 1_555
C52_3 C62_3 1_555 1_555
C54_3 C65_3 1_555 1_555
C69_3 C72_3 1_555 1_555
Cd4_2 O15_2 1_555 1_555
O5_3 C5_3 1_555 1_555
O6_3 C5_3 1_555 1_555
C4_3 H4_3 1_555 1_555
C5_3 C58_3 1_555 1_555
C14_3 H9_3 1_555 1_555
C58_3 C4_3 1_555 1_555
Cd5 O5_3 1_555 1_555
O6_3 Cd5 1_555 1_555
C14_3 C58_3 1_555 1_555
C45_4 C48_4 1_555 1_555
C48_4 O12_4 1_555 1_555
O12_4 Cd9_2 1_555 1_555
O13_4 C48_4 1_555 1_555
Cd9_2 O13_4 1_555 1_555
C1_4 C44_4 1_555 1_555
N3_4 C63_4 1_555 1_555
C63_4 H39_4 1_555 1_555
C66_4 C1_4 1_555 1_555
H41_4 C66_4 1_555 1_555
C68_4 N3_4 1_555 1_555
H43_4 C68_4 1_555 1_555
C70_4 C1_4 1_555 1_555
H45_4 C70_4 1_555 1_555
Cd6_2 N3_4 1_555 1_555
C63_4 C66_4 1_555 1_555
C68_4 C70_4 1_555 1_555
Cd4_2 O1_4 1_555 1_555
Cd2_4 O2_4 1_555 1_555
O1_4 C27_4 1_555 1_555
O2_4 Cd4_2 1_555 1_555
O5_4 C5_4 1_555 1_555
C2_4 O2_4 1_555 1_555
O6_4 C5_4 1_555 1_555
C4_4 H4_4 1_555 1_555
N2_4 C10_4 1_555 1_555
C5_4 C58_4 1_555 1_555
C8_4 C4_4 1_555 1_555
H6_4 C8_4 1_555 1_555
C10_4 C20_4 1_555 1_555
C11_4 C2_4 1_555 1_555
H8_4 C12_4 1_555 1_555
C13_4 N2_4 1_555 1_555
C14_4 H9_4 1_555 1_555
C15_4 H10_4 1_555 1_555
N4_4 Cd2_4 1_555 1_555
C20_4 H13_4 1_555 1_555
C21_4 C11_4 1_555 1_555
H14_4 C21_4 1_555 1_555
C26_4 C14_4 1_555 1_555
H16_4 C26_4 1_555 1_555
C27_4 C28_4 1_555 1_555
C28_4 C36_4 1_555 1_555
C30_4 H18_4 1_555 1_555
C33_4 N2_4 1_555 1_555
C34_4 C13_4 1_555 1_555
H21_4 C34_4 1_555 1_555
C36_4 C20_4 1_555 1_555
H23_4 C36_4 1_555 1_555
C38_4 N4_4 1_555 1_555
H25_4 C38_4 1_555 1_555
C39_4 C10_4 1_555 1_555
H26_4 C39_4 1_555 1_555
C54_4 C13_4 1_555 1_555
H35_4 C54_4 1_555 1_555
C55_4 N4_4 1_555 1_555
H36_4 C55_4 1_555 1_555
O11_4 Cd2_4 1_555 1_555
C58_4 C4_4 1_555 1_555
C60_4 C28_4 1_555 1_555
H37_4 C60_4 1_555 1_555
C67_4 C34_4 1_555 1_555
H42_4 C67_4 1_555 1_555
O14_4 Cd2_4 1_555 1_555
H51_4 O14_4 1_555 1_555
H52_4 O14_4 1_555 1_555
Cd5_2 O5_4 1_555 1_555
O16_4 Cd4_2 1_555 1_555
O17_4 Cd4_2 1_555 1_555
O18_4 Cd2_4 1_555 1_555
N7_4 Cd4_2 1_555 1_555
O19_4 Cd2_4 1_555 1_555
O15_2 C2_4 1_555 1_555
O6_4 Cd5_2 1_555 1_555
C8_4 C33_4 1_555 1_555
C11_4 C12_4 1_555 1_555
C14_4 C58_4 1_555 1_555
C15_4 C21_4 1_555 1_555
C26_4 C33_4 1_555 1_555
C27_4 O11_4 1_555 1_555
C30_4 C55_4 1_555 1_555
C39_4 C60_4 1_555 1_555
C54_4 C65_4 1_555 1_555
Cd3_4 O4_4 1_555 1_555
O4_4 H1_4 1_555 1_555
H2_4 O4_4 1_555 1_555
N1_4 C7_4 1_555 1_555
O7_4 C59_4 1_555 1_555
C3_4 H3_4 1_555 1_555
C6_4 H5_4 1_555 1_555
C7_4 C18_4 1_555 1_555
O8_4 C59_4 1_555 1_555
C9_4 H7_4 1_555 1_555
C16_4 N1_4 1_555 1_555
O9_4 Cd3_4 1_555 1_555
C17_4 N1_4 1_555 1_555
C18_4 H11_4 1_555 1_555
C19_4 C3_4 1_555 1_555
H12_4 C19_4 1_555 1_555
C22_4 C3_4 1_555 1_555
C23_4 C31_4 1_555 1_555
C24_4 O9_4 1_555 1_555
C25_4 H15_4 1_555 1_555
C29_3 H17_3 1_555 1_555
C31_4 H19_4 1_555 1_555
C32_4 C7_4 1_555 1_555
H20_4 C32_4 1_555 1_555
C35_4 C9_4 1_555 1_555
H22_4 C35_4 1_555 1_555
C37_4 C18_4 1_555 1_555
H24_4 C37_4 1_555 1_555
O10_4 Cd3_4 1_555 1_555
C40_4 H27_4 1_555 1_555
C41_4 C35_4 1_555 1_555
H28_3 C42_3 1_555 1_555
C46_4 C25_4 1_555 1_555
H29_4 C46_4 1_555 1_555
C47_4 C46_4 1_555 1_555
C49_4 C17_4 1_555 1_555
H30_4 C49_4 1_555 1_555
C50_4 C40_4 1_555 1_555
H31_4 C50_4 1_555 1_555
N5_4 C41_4 1_555 1_555
C51_4 C29_3 1_555 1_555
H32_3 C51_4 1_555 1_555
H33_4 C52_4 1_555 1_555
C53_4 C22_4 1_555 1_555
H34_4 C53_4 1_555 1_555
N6_4 C71_4 1_555 1_555
C56_4 C64_4 1_555 1_555
C57_4 C50_4 1_555 1_555
C59_4 C23_4 1_555 1_555
C61_3 C9_4 1_555 1_555
C62_4 C47_4 1_555 1_555
H38_4 C62_4 1_555 1_555
C64_4 C40_4 1_555 1_555
C69_4 C64_4 1_555 1_555
H44_4 C69_4 1_555 1_555
C71_4 H46_4 1_555 1_555
C72_4 C57_4 1_555 1_555
H47_4 C72_4 1_555 1_555
C73_4 C56_4 1_555 1_555
H48_4 C73_4 1_555 1_555
C74_4 C56_4 1_555 1_555
H49_4 C74_4 1_555 1_555
C75_4 N6_4 1_555 1_555
H50_4 C75_4 1_555 1_555
Cd7_4 O7_4 1_555 1_555
Cd8_2 N6_4 1_555 1_555
N8_4 Cd3_4 1_555 1_555
O20_4 Cd3_4 1_555 1_555
O21_4 Cd3_4 1_555 1_555
C6_4 C16_4 1_555 1_555
O8_4 Cd7_4 1_555 1_555
C17_4 C19_4 1_555 1_555
C22_4 C24_4 1_555 1_555
C23_4 C37_4 1_555 1_555
C24_4 O10_4 1_555 1_555
C29_3 C61_3 1_555 1_555
C31_4 C32_4 1_555 1_555
C41_4 C51_4 1_555 1_555
C42_3 C43_3 1_555 1_555
C43_3 C61_3 1_555 1_555
C47_4 N5_4 1_555 1_555
C49_4 C53_4 1_555 1_555
N5_4 C57_4 1_555 1_555
C52_4 C62_4 1_555 1_555
C69_4 C72_4 1_555 1_555
C71_4 C73_4 1_555 1_555
C74_4 C75_4 1_555 1_555
O16_3 C5_5 1_555 1_555
O17_3 C5_5 1_555 1_555
C4_5 H4_5 1_555 1_555
C5_5 C58_5 1_555 1_555
C14_5 H9_5 1_555 1_555
C58_5 C4_5 1_555 1_555
C14_5 C58_5 1_555 1_555
Cd5 O1_5 1_555 1_555
Cd7 O2_5 1_555 1_555
O1_5 C27_5 1_555 1_555
O2_5 Cd5 1_555 1_555
C2_5 O2_5 1_555 1_555
N2_5 C10_5 1_555 1_555
H6_5 C8_5 1_555 1_555
C10_5 C20_5 1_555 1_555
C13_5 N2_5 1_555 1_555
N4_5 Cd7 1_555 1_555
C20_5 H13_5 1_555 1_555
H16_5 C26_5 1_555 1_555
C27_5 C28_5 1_555 1_555
C28_5 C36_5 1_555 1_555
C29_4 H17_4 1_555 1_555
C30_5 H18_5 1_555 1_555
C33_5 N2_5 1_555 1_555
C34_5 C13_5 1_555 1_555
H21_5 C34_5 1_555 1_555
C36_5 C20_5 1_555 1_555
H23_5 C36_5 1_555 1_555
C38_5 N4_5 1_555 1_555
H25_5 C38_5 1_555 1_555
C39_5 C10_5 1_555 1_555
H26_5 C39_5 1_555 1_555
C42_4 C38_5 1_555 1_555
H28_4 C42_4 1_555 1_555
C43_4 C30_5 1_555 1_555
C45_5 C48_5 1_555 1_555
C48_5 O20 1_555 1_555
C54_5 C13_5 1_555 1_555
H35_5 C54_5 1_555 1_555
C55_5 N4_5 1_555 1_555
H36_5 C55_5 1_555 1_555
O11_5 Cd7 1_555 1_555
C60_5 C28_5 1_555 1_555
H37_5 C60_5 1_555 1_555
O21 C48_5 1_555 1_555
C65_5 C45_5 1_555 1_555
H40_5 C65_5 1_555 1_555
C67_5 C34_5 1_555 1_555
H42_5 C67_5 1_555 1_555
O14_5 Cd7 1_555 1_555
H51_5 O14_5 1_555 1_555
H52_5 O14_5 1_555 1_555
O15_3 Cd5 1_555 1_555
C8_5 C33_5 1_555 1_555
C26_5 C33_5 1_555 1_555
C27_5 O11_5 1_555 1_555
C29_4 C61_4 1_555 1_555
C30_5 C55_5 1_555 1_555
C39_5 C60_5 1_555 1_555
C42_4 C43_4 1_555 1_555
C43_4 C61_4 1_555 1_555
C45_5 C67_5 1_555 1_555
C54_5 C65_5 1_555 1_555
O18 C59_5 1_555 1_555
O19 C59_5 1_555 1_555
C59_5 C23_5 1_555 1_555
Cd8 O4_5 1_555 1_555
C1_5 C44_5 1_555 1_555
O4_5 H1_5 1_555 1_555
H2_5 O4_5 1_555 1_555
N1_5 C7_5 1_555 1_555
C3_5 H3_5 1_555 1_555
N7 C63_5 1_555 1_555
C6_5 H5_5 1_555 1_555
C7_5 C18_5 1_555 1_555
C9_5 H7_5 1_555 1_555
C12_5 C6_5 1_555 1_555
H8_5 C12_5 1_555 1_555
C15_5 H10_5 1_555 1_555
C16_5 N1_5 1_555 1_555
O9_5 Cd8 1_555 1_555
C17_5 N1_5 1_555 1_555
C18_5 H11_5 1_555 1_555
C19_5 C3_5 1_555 1_555
H12_5 C19_5 1_555 1_555
C21_5 C11_5 1_555 1_555
H14_5 C21_5 1_555 1_555
C22_5 C3_5 1_555 1_555
C24_5 O9_5 1_555 1_555
C25_5 H15_5 1_555 1_555
C31_5 H19_5 1_555 1_555
C32_5 C7_5 1_555 1_555
H20_5 C32_5 1_555 1_555
C35_5 C9_5 1_555 1_555
H22_5 C35_5 1_555 1_555
C37_5 C18_5 1_555 1_555
H24_5 C37_5 1_555 1_555
O10_5 Cd8 1_555 1_555
C40_5 H27_5 1_555 1_555
C41_5 C35_5 1_555 1_555
C44_5 C25_5 1_555 1_555
C46_5 C25_5 1_555 1_555
H29_5 C46_5 1_555 1_555
C47_5 C46_5 1_555 1_555
C49_5 C17_5 1_555 1_555
H30_5 C49_5 1_555 1_555
C50_5 C40_5 1_555 1_555
H31_5 C50_5 1_555 1_555
N5_5 C41_5 1_555 1_555
C52_5 C44_5 1_555 1_555
H33_5 C52_5 1_555 1_555
C53_5 C22_5 1_555 1_555
H34_5 C53_5 1_555 1_555
C56_5 C64_5 1_555 1_555
C57_5 C50_5 1_555 1_555
C62_5 C47_5 1_555 1_555
H38_5 C62_5 1_555 1_555
C63_5 H39_5 1_555 1_555
C64_5 C40_5 1_555 1_555
C66_5 C1_5 1_555 1_555
H41_5 C66_5 1_555 1_555
C68_5 N7 1_555 1_555
H43_5 C68_5 1_555 1_555
C69_5 C64_5 1_555 1_555
H44_5 C69_5 1_555 1_555
C70_5 C1_5 1_555 1_555
H45_5 C70_5 1_555 1_555
C72_5 C57_5 1_555 1_555
H47_5 C72_5 1_555 1_555
Cd5_2 O3_3 1_555 1_555
C6_5 C16_5 1_555 1_555
C11_5 C12_5 1_555 1_555
C15_5 C16_5 1_555 1_555
C15_5 C21_5 1_555 1_555
C17_5 C19_5 1_555 1_555
C22_5 C24_5 1_555 1_555
C24_5 O10_5 1_555 1_555
C31_5 C32_5 1_555 1_555
C41_5 C51_5 1_555 1_555
C47_5 N5_5 1_555 1_555
C49_5 C53_5 1_555 1_555
N5_5 C57_5 1_555 1_555
C52_5 C62_5 1_555 1_555
C63_5 C66_5 1_555 1_555
C68_5 C70_5 1_555 1_555
C69_5 C72_5 1_555 1_555
N8_3 C71_5 1_555 1_555
C71_5 H46_5 1_555 1_555
C75_5 N8_3 1_555 1_555
H50_5 C75_5 1_555 1_555
C71_5 C73_5 1_555 1_555
C74_5 C75_5 1_555 1_555
O18_2 C59_6 1_555 1_555
O19_2 C59_6 1_555 1_555
C59_6 C23_6 1_555 1_555
Cd8_2 O4_6 1_555 1_555
C1_6 C44_6 1_555 1_555
O4_6 H1_6 1_555 1_555
H2_6 O4_6 1_555 1_555
N1_6 C7_6 1_555 1_555
C3_6 H3_6 1_555 1_555
N7_2 C63_6 1_555 1_555
C6_6 H5_6 1_555 1_555
C7_6 C18_6 1_555 1_555
C9_6 H7_6 1_555 1_555
C16_6 N1_6 1_555 1_555
O9_6 Cd8_2 1_555 1_555
C17_6 N1_6 1_555 1_555
C18_6 H11_6 1_555 1_555
C19_6 C3_6 1_555 1_555
H12_6 C19_6 1_555 1_555
C22_6 C3_6 1_555 1_555
C24_6 O9_6 1_555 1_555
C25_6 H15_6 1_555 1_555
C31_6 H19_6 1_555 1_555
C32_6 C7_6 1_555 1_555
H20_6 C32_6 1_555 1_555
C35_6 C9_6 1_555 1_555
H22_6 C35_6 1_555 1_555
C37_6 C18_6 1_555 1_555
H24_6 C37_6 1_555 1_555
O10_6 Cd8_2 1_555 1_555
C40_6 H27_6 1_555 1_555
C41_6 C35_6 1_555 1_555
C44_6 C25_6 1_555 1_555
C46_6 C25_6 1_555 1_555
H29_6 C46_6 1_555 1_555
C47_6 C46_6 1_555 1_555
C49_6 C17_6 1_555 1_555
H30_6 C49_6 1_555 1_555
C50_6 C40_6 1_555 1_555
H31_6 C50_6 1_555 1_555
N5_6 C41_6 1_555 1_555
C52_6 C44_6 1_555 1_555
H33_6 C52_6 1_555 1_555
C53_6 C22_6 1_555 1_555
H34_6 C53_6 1_555 1_555
N8_4 C71_6 1_555 1_555
C56_6 C64_6 1_555 1_555
C57_6 C50_6 1_555 1_555
C62_6 C47_6 1_555 1_555
H38_6 C62_6 1_555 1_555
C63_6 H39_6 1_555 1_555
C64_6 C40_6 1_555 1_555
C66_6 C1_6 1_555 1_555
H41_6 C66_6 1_555 1_555
C68_6 N7_2 1_555 1_555
H43_6 C68_6 1_555 1_555
C69_6 C64_6 1_555 1_555
H44_6 C69_6 1_555 1_555
C70_6 C1_6 1_555 1_555
H45_6 C70_6 1_555 1_555
C71_6 H46_6 1_555 1_555
C72_6 C57_6 1_555 1_555
H47_6 C72_6 1_555 1_555
C73_6 C56_6 1_555 1_555
H48_6 C73_6 1_555 1_555
C74_6 C56_6 1_555 1_555
H49_6 C74_6 1_555 1_555
C75_6 N8_4 1_555 1_555
H50_6 C75_6 1_555 1_555
C6_6 C16_6 1_555 1_555
C17_6 C19_6 1_555 1_555
C22_6 C24_6 1_555 1_555
C24_6 O10_6 1_555 1_555
C31_6 C32_6 1_555 1_555
C41_6 C51_6 1_555 1_555
C47_6 N5_6 1_555 1_555
C49_6 C53_6 1_555 1_555
N5_6 C57_6 1_555 1_555
C52_6 C62_6 1_555 1_555
C63_6 C66_6 1_555 1_555
C68_6 C70_6 1_555 1_555
C69_6 C72_6 1_555 1_555
C71_6 C73_6 1_555 1_555
C74_6 C75_6 1_555 1_555
H8_6 C12_6 1_555 1_555
C15_6 H10_6 1_555 1_555
C21_6 C11_6 1_555 1_555
H14_6 C21_6 1_555 1_555
C11_6 C12_6 1_555 1_555
C15_6 C21_6 1_555 1_555
Cd5_2 O1_6 1_555 1_555
Cd7_2 O2_6 1_555 1_555
O1_6 C27_6 1_555 1_555
O2_6 Cd5_2 1_555 1_555
O16_4 C5_6 1_555 1_555
C2_6 O2_6 1_555 1_555
O17_4 C5_6 1_555 1_555
C4_6 H4_6 1_555 1_555
N2_6 C10_6 1_555 1_555
C5_6 C58_6 1_555 1_555
C8_6 C4_6 1_555 1_555
H6_6 C8_6 1_555 1_555
C10_6 C20_6 1_555 1_555
C13_6 N2_6 1_555 1_555
C14_6 H9_6 1_555 1_555
N4_6 Cd7_2 1_555 1_555
C20_6 H13_6 1_555 1_555
C26_6 C14_6 1_555 1_555
H16_6 C26_6 1_555 1_555
C27_6 C28_6 1_555 1_555
C28_6 C36_6 1_555 1_555
C30_6 H18_6 1_555 1_555
C33_6 N2_6 1_555 1_555
C34_6 C13_6 1_555 1_555
H21_6 C34_6 1_555 1_555
C36_6 C20_6 1_555 1_555
H23_6 C36_6 1_555 1_555
C38_6 N4_6 1_555 1_555
H25_6 C38_6 1_555 1_555
C39_6 C10_6 1_555 1_555
H26_6 C39_6 1_555 1_555
C45_6 C48_6 1_555 1_555
C48_6 O20_2 1_555 1_555
C54_6 C13_6 1_555 1_555
H35_6 C54_6 1_555 1_555
C55_6 N4_6 1_555 1_555
H36_6 C55_6 1_555 1_555
O11_6 Cd7_2 1_555 1_555
C58_6 C4_6 1_555 1_555
C60_6 C28_6 1_555 1_555
H37_6 C60_6 1_555 1_555
O21_2 C48_6 1_555 1_555
C65_6 C45_6 1_555 1_555
H40_6 C65_6 1_555 1_555
C67_6 C34_6 1_555 1_555
H42_6 C67_6 1_555 1_555
O14_6 Cd7_2 1_555 1_555
H51_6 O14_6 1_555 1_555
H52_6 O14_6 1_555 1_555
C8_6 C33_6 1_555 1_555
C14_6 C58_6 1_555 1_555
C26_6 C33_6 1_555 1_555
C27_6 O11_6 1_555 1_555
C30_6 C55_6 1_555 1_555
C39_6 C60_6 1_555 1_555
C45_6 C67_6 1_555 1_555
C54_6 C65_6 1_555 1_555
O16 C5_7 1_555 1_555
O17 C5_7 1_555 1_555
C4_7 H4_7 1_555 1_555
C5_7 C58_7 1_555 1_555
C14_7 H9_7 1_555 1_555
C58_7 C4_7 1_555 1_555
C14_7 C58_7 1_555 1_555
Cd6 O1_7 1_555 1_555
Cd7_3 O2_7 1_555 1_555
Cd9 O4_7 1_555 1_555
O1_7 C27_7 1_555 1_555
O2_7 Cd6 1_555 1_555
O3_4 Cd6 1_555 1_555
O4_7 H1_7 1_555 1_555
H2_7 O4_7 1_555 1_555
C2_7 O2_7 1_555 1_555
N1_7 C7_7 1_555 1_555
O18_3 C59_7 1_555 1_555
C3_7 H3_7 1_555 1_555
N2_7 C10_7 1_555 1_555
C6_7 H5_7 1_555 1_555
C7_7 C18_7 1_555 1_555
O19_3 C59_7 1_555 1_555
H6_7 C8_7 1_555 1_555
C9_7 H7_7 1_555 1_555
C10_7 C20_7 1_555 1_555
C11_7 C2_7 1_555 1_555
C12_7 C6_7 1_555 1_555
H8_7 C12_7 1_555 1_555
C13_7 N2_7 1_555 1_555
C15_7 H10_7 1_555 1_555
C16_7 N1_7 1_555 1_555
O9_7 Cd9 1_555 1_555
C17_7 N1_7 1_555 1_555
C18_7 H11_7 1_555 1_555
N4_7 Cd7_3 1_555 1_555
C19_7 C3_7 1_555 1_555
H12_7 C19_7 1_555 1_555
C20_7 H13_7 1_555 1_555
C21_7 C11_7 1_555 1_555
H14_7 C21_7 1_555 1_555
C22_7 C3_7 1_555 1_555
C23_7 C31_7 1_555 1_555
C24_7 O9_7 1_555 1_555
C25_7 H15_7 1_555 1_555
H16_7 C26_7 1_555 1_555
C27_7 C28_7 1_555 1_555
C28_7 C36_7 1_555 1_555
C29_5 H17_5 1_555 1_555
C30_7 H18_7 1_555 1_555
C31_7 H19_7 1_555 1_555
C32_7 C7_7 1_555 1_555
H20_7 C32_7 1_555 1_555
C33_7 N2_7 1_555 1_555
C34_7 C13_7 1_555 1_555
H21_7 C34_7 1_555 1_555
C35_7 C9_7 1_555 1_555
H22_7 C35_7 1_555 1_555
C36_7 C20_7 1_555 1_555
H23_7 C36_7 1_555 1_555
C37_7 C18_7 1_555 1_555
H24_7 C37_7 1_555 1_555
O10_7 Cd9 1_555 1_555
C38_7 N4_7 1_555 1_555
H25_7 C38_7 1_555 1_555
C39_7 C10_7 1_555 1_555
H26_7 C39_7 1_555 1_555
C40_7 H27_7 1_555 1_555
C41_7 C35_7 1_555 1_555
C42_5 C38_7 1_555 1_555
H28_5 C42_5 1_555 1_555
C43_5 C30_7 1_555 1_555
C46_7 C25_7 1_555 1_555
H29_7 C46_7 1_555 1_555
C47_7 C46_7 1_555 1_555
C49_7 C17_7 1_555 1_555
H30_7 C49_7 1_555 1_555
C50_7 C40_7 1_555 1_555
H31_7 C50_7 1_555 1_555
N5_7 C41_7 1_555 1_555
C51_7 C29_5 1_555 1_555
H32_5 C51_7 1_555 1_555
H33_7 C52_7 1_555 1_555
C53_7 C22_7 1_555 1_555
H34_7 C53_7 1_555 1_555
C54_7 C13_7 1_555 1_555
H35_7 C54_7 1_555 1_555
C55_7 N4_7 1_555 1_555
H36_7 C55_7 1_555 1_555
C56_7 C64_7 1_555 1_555
C57_7 C50_7 1_555 1_555
O11_7 Cd7_3 1_555 1_555
C59_7 C23_7 1_555 1_555
C60_7 C28_7 1_555 1_555
H37_7 C60_7 1_555 1_555
C61_5 C9_7 1_555 1_555
C62_7 C47_7 1_555 1_555
H38_7 C62_7 1_555 1_555
C64_7 C40_7 1_555 1_555
C67_7 C34_7 1_555 1_555
H42_7 C67_7 1_555 1_555
C69_7 C64_7 1_555 1_555
H44_7 C69_7 1_555 1_555
C72_7 C57_7 1_555 1_555
H47_7 C72_7 1_555 1_555
O14_7 Cd7_3 1_555 1_555
H51_7 O14_7 1_555 1_555
H52_7 O14_7 1_555 1_555
Cd6_2 O3_4 1_555 1_555
O15_4 Cd6 1_555 1_555
O3_4 C2_7 1_555 1_555
C6_7 C16_7 1_555 1_555
C8_7 C33_7 1_555 1_555
C11_7 C12_7 1_555 1_555
C15_7 C16_7 1_555 1_555
C15_7 C21_7 1_555 1_555
C17_7 C19_7 1_555 1_555
C22_7 C24_7 1_555 1_555
C23_7 C37_7 1_555 1_555
C24_7 O10_7 1_555 1_555
C26_7 C33_7 1_555 1_555
C27_7 O11_7 1_555 1_555
C29_5 C61_5 1_555 1_555
C30_7 C55_7 1_555 1_555
C31_7 C32_7 1_555 1_555
C39_7 C60_7 1_555 1_555
C41_7 C51_7 1_555 1_555
C42_5 C43_5 1_555 1_555
C43_5 C61_5 1_555 1_555
C47_7 N5_7 1_555 1_555
C49_7 C53_7 1_555 1_555
N5_7 C57_7 1_555 1_555
C52_7 C62_7 1_555 1_555
C54_7 C65_7 1_555 1_555
C69_7 C72_7 1_555 1_555
Cd6_2 O15_4 1_555 1_555
N8 C71_7 1_555 1_555
C71_7 H46_7 1_555 1_555
C75_7 N8 1_555 1_555
H50_7 C75_7 1_555 1_555
C71_7 C73_7 1_555 1_555
C74_7 C75_7 1_555 1_555
C1_7 C44_7 1_555 1_555
N7_3 C63_7 1_555 1_555
C45_7 C48_7 1_555 1_555
C48_7 O20_3 1_555 1_555
O21_3 C48_7 1_555 1_555
C63_7 H39_7 1_555 1_555
C66_7 C1_7 1_555 1_555
H41_7 C66_7 1_555 1_555
C68_7 N7_3 1_555 1_555
H43_7 C68_7 1_555 1_555
C70_7 C1_7 1_555 1_555
H45_7 C70_7 1_555 1_555
C63_7 C66_7 1_555 1_555
C68_7 C70_7 1_555 1_555
Cd9_2 O4_8 1_555 1_555
O4_8 H1_8 1_555 1_555
H2_8 O4_8 1_555 1_555
N1_8 C7_8 1_555 1_555
O18_4 C59_8 1_555 1_555
C3_8 H3_8 1_555 1_555
C6_8 H5_8 1_555 1_555
C7_8 C18_8 1_555 1_555
O19_4 C59_8 1_555 1_555
C9_8 H7_8 1_555 1_555
C16_8 N1_8 1_555 1_555
O9_8 Cd9_2 1_555 1_555
C17_8 N1_8 1_555 1_555
C18_8 H11_8 1_555 1_555
C19_8 C3_8 1_555 1_555
H12_8 C19_8 1_555 1_555
C22_8 C3_8 1_555 1_555
C23_8 C31_8 1_555 1_555
C24_8 O9_8 1_555 1_555
C25_8 H15_8 1_555 1_555
C29_6 H17_6 1_555 1_555
C31_8 H19_8 1_555 1_555
C32_8 C7_8 1_555 1_555
H20_8 C32_8 1_555 1_555
C35_8 C9_8 1_555 1_555
H22_8 C35_8 1_555 1_555
C37_8 C18_8 1_555 1_555
H24_8 C37_8 1_555 1_555
O10_8 Cd9_2 1_555 1_555
C40_8 H27_8 1_555 1_555
C41_8 C35_8 1_555 1_555
H28_6 C42_6 1_555 1_555
C46_8 C25_8 1_555 1_555
H29_8 C46_8 1_555 1_555
C47_8 C46_8 1_555 1_555
C49_8 C17_8 1_555 1_555
H30_8 C49_8 1_555 1_555
C50_8 C40_8 1_555 1_555
H31_8 C50_8 1_555 1_555
N5_8 C41_8 1_555 1_555
C51_8 C29_6 1_555 1_555
H32_6 C51_8 1_555 1_555
H33_8 C52_8 1_555 1_555
C53_8 C22_8 1_555 1_555
H34_8 C53_8 1_555 1_555
N8_2 C71_8 1_555 1_555
C56_8 C64_8 1_555 1_555
C57_8 C50_8 1_555 1_555
C59_8 C23_8 1_555 1_555
C61_6 C9_8 1_555 1_555
C62_8 C47_8 1_555 1_555
H38_8 C62_8 1_555 1_555
C64_8 C40_8 1_555 1_555
C69_8 C64_8 1_555 1_555
H44_8 C69_8 1_555 1_555
C71_8 H46_8 1_555 1_555
C72_8 C57_8 1_555 1_555
H47_8 C72_8 1_555 1_555
C73_8 C56_8 1_555 1_555
H48_8 C73_8 1_555 1_555
C74_8 C56_8 1_555 1_555
H49_8 C74_8 1_555 1_555
C75_8 N8_2 1_555 1_555
H50_8 C75_8 1_555 1_555
C6_8 C16_8 1_555 1_555
C17_8 C19_8 1_555 1_555
C22_8 C24_8 1_555 1_555
C23_8 C37_8 1_555 1_555
C24_8 O10_8 1_555 1_555
C29_6 C61_6 1_555 1_555
C31_8 C32_8 1_555 1_555
C41_8 C51_8 1_555 1_555
C42_6 C43_6 1_555 1_555
C43_6 C61_6 1_555 1_555
C47_8 N5_8 1_555 1_555
C49_8 C53_8 1_555 1_555
N5_8 C57_8 1_555 1_555
C52_8 C62_8 1_555 1_555
C69_8 C72_8 1_555 1_555
C71_8 C73_8 1_555 1_555
C74_8 C75_8 1_555 1_555
Cd6_2 O1_8 1_555 1_555
Cd7_4 O2_8 1_555 1_555
O1_8 C27_8 1_555 1_555
O2_8 Cd6_2 1_555 1_555
O16_2 C5_8 1_555 1_555
C2_8 O2_8 1_555 1_555
O17_2 C5_8 1_555 1_555
C4_8 H4_8 1_555 1_555
N2_8 C10_8 1_555 1_555
C5_8 C58_8 1_555 1_555
C8_8 C4_8 1_555 1_555
H6_8 C8_8 1_555 1_555
C10_8 C20_8 1_555 1_555
C11_8 C2_8 1_555 1_555
H8_8 C12_8 1_555 1_555
C13_8 N2_8 1_555 1_555
C14_8 H9_8 1_555 1_555
C15_8 H10_8 1_555 1_555
N4_8 Cd7_4 1_555 1_555
C20_8 H13_8 1_555 1_555
C21_8 C11_8 1_555 1_555
H14_8 C21_8 1_555 1_555
C26_8 C14_8 1_555 1_555
H16_8 C26_8 1_555 1_555
C27_8 C28_8 1_555 1_555
C28_8 C36_8 1_555 1_555
C30_8 H18_8 1_555 1_555
C33_8 N2_8 1_555 1_555
C34_8 C13_8 1_555 1_555
H21_8 C34_8 1_555 1_555
C36_8 C20_8 1_555 1_555
H23_8 C36_8 1_555 1_555
C38_8 N4_8 1_555 1_555
H25_8 C38_8 1_555 1_555
C39_8 C10_8 1_555 1_555
H26_8 C39_8 1_555 1_555
C54_8 C13_8 1_555 1_555
H35_8 C54_8 1_555 1_555
C55_8 N4_8 1_555 1_555
H36_8 C55_8 1_555 1_555
O11_8 Cd7_4 1_555 1_555
C58_8 C4_8 1_555 1_555
C60_8 C28_8 1_555 1_555
H37_8 C60_8 1_555 1_555
C67_8 C34_8 1_555 1_555
H42_8 C67_8 1_555 1_555
O14_8 Cd7_4 1_555 1_555
H51_8 O14_8 1_555 1_555
H52_8 O14_8 1_555 1_555
O15_4 C2_8 1_555 1_555
C8_8 C33_8 1_555 1_555
C11_8 C12_8 1_555 1_555
C14_8 C58_8 1_555 1_555
C15_8 C21_8 1_555 1_555
C26_8 C33_8 1_555 1_555
C27_8 O11_8 1_555 1_555
C30_8 C55_8 1_555 1_555
C39_8 C60_8 1_555 1_555
C54_8 C65_8 1_555 1_555
C1_8 C44_8 1_555 1_555
N7_4 C63_8 1_555 1_555
C63_8 H39_8 1_555 1_555
C66_8 C1_8 1_555 1_555
H41_8 C66_8 1_555 1_555
C68_8 N7_4 1_555 1_555
H43_8 C68_8 1_555 1_555
C70_8 C1_8 1_555 1_555
H45_8 C70_8 1_555 1_555
C63_8 C66_8 1_555 1_555
C68_8 C70_8 1_555 1_555
C45_8 C48_8 1_555 1_555
C48_8 O20_4 1_555 1_555
O21_4 C48_8 1_555 1_555
C29_7 H17_7 1_555 1_555
H28_7 C42_7 1_555 1_555
C29_7 C61_7 1_555 1_555
C42_7 C43_7 1_555 1_555
C43_7 C61_7 1_555 1_555
C29_8 H17_8 1_555 1_555
H28_8 C42_8 1_555 1_555
C29_8 C61_8 1_555 1_555
C42_8 C43_8 1_555 1_555
C43_8 C61_8 1_555 1_555

#END
