
###############################################################################
#
# This file contains modified crystal structure data generated from the
# MOF subset of the Cambridge Structural Database (CSD) v543 
# hosted by the Cambridge Crystallographic Data Centre (CCDC).
#
# This work is licensed under the Creative Commons
# Attribution-NonCommercial-ShareAlike 4.0 International License.
# To view a copy of this license, visit
# http://creativecommons.org/licenses/by-nc-sa/4.0/
# or send a letter to
# Creative Commons, PO Box 1866, Mountain View, CA 94042, USA.
#
# CIF created using the CSD Python API on 29 September 2022
# The structure has been converted into the P1 space group
# The structure has a 3D framework
# The original CSD entry ETIKAW is in the monoclinic crystal system
# The framework has been calculated to contain at least 10.0% void space
# The void calculation uses a probe of radius 1.32A, grid spacing 0.4
# H atom positions have been added when not included in the experimental data
#
###############################################################################

data_ETIKAW
_chemical_formula_moiety         '(C600 H416 Cd24 N48 O112)n'
_symmetry_cell_setting           triclinic
_symmetry_space_group_name_H-M   'P 1'
_symmetry_Int_Tables_number      1
_space_group_name_Hall           'P 1'
loop_
_symmetry_equiv_pos_site_id
_symmetry_equiv_pos_as_xyz
1 x,y,z
_cell_length_a                   37.221(2)
_cell_length_b                   26.9129(16)
_cell_length_c                   22.3987(14)
_cell_angle_alpha                90
_cell_angle_beta                 111.1300(10)
_cell_angle_gamma                90
_cell_volume                     20928.8
loop_
_atom_site_label
_atom_site_type_symbol
_atom_site_fract_x
_atom_site_fract_y
_atom_site_fract_z
Cd1 Cd 0.08768(2) 0.65051(2) 0.18684(2)
Cd3 Cd 0.25856(2) 0.15652(2) 0.32121(2)
N1 N 0.09270(11) 0.35106(13) 0.08309(19)
O4 O 0.30967(12) 0.14093(15) 0.2894(2)
C3 C 0.16752(13) 0.25309(17) 0.1437(2)
H2 H 0.181197 0.230460 0.127205
N2 N 0.24085(11) 0.35643(14) 0.0851(2)
O5 O 0.22420(11) 0.19459(14) 0.22914(19)
C6 C 0.06781(13) 0.33607(17) 0.0214(2)
O6 O 0.10235(12) 0.61913(13) 0.28696(17)
H3 H 0.102898 0.642555 0.312696
H4 H 0.124318 0.605225 0.298586
C7 C 0.24415(16) 0.4226(2) 0.1591(3)
H5 H 0.244541 0.398264 0.190086
C8 C 0.12026(13) 0.31794(16) 0.1248(2)
N3 N 0.06901(12) 0.68911(14) 0.08848(19)
C9 C 0.06090(13) 0.28576(17) 0.0062(2)
H6 H 0.072597 0.261169 0.037639
C12 C 0.09336(14) 0.40193(17) 0.1026(2)
C14 C 0.20954(13) 0.28808(17) 0.0153(2)
H9 H 0.232099 0.268429 0.033169
C15 C 0.27153(13) 0.32675(17) 0.1259(2)
C17 C 0.04994(16) 0.66425(19) 0.0349(3)
H11 H 0.050045 0.628965 0.036138
C20 C 0.24225(13) 0.40847(18) 0.0987(3)
C22 C 0.30958(14) 0.34280(17) 0.1390(2)
H13 H 0.314464 0.372104 0.119477
C23 C 0.04878(16) 0.76456(19) 0.0291(3)
H14 H 0.049383 0.799848 0.028762
C25 C 0.20395(15) 0.21900(19) 0.2520(3)
C26 C 0.20904(13) 0.33594(17) 0.0367(2)
C27 C 0.12707(14) 0.42875(18) 0.1213(2)
H16 H 0.150374 0.413058 0.123451
C28 C 0.17444(14) 0.25350(18) 0.2086(2)
C33 C 0.17545(13) 0.36431(17) 0.0081(2)
H19 H 0.174289 0.397362 0.022190
C34 C 0.14074(13) 0.28538(16) 0.1020(2)
H20 H 0.136653 0.284848 0.057594
O7 O 0.20814(12) 0.21634(16) 0.3096(2)
C40 C 0.06009(15) 0.42501(19) 0.1013(3)
H25 H 0.036721 0.406746 0.089629
C45 C 0.06813(16) 0.73905(19) 0.0843(3)
H29 H 0.081668 0.757623 0.121771
C48 C 0.15392(15) 0.28665(19) 0.2312(3)
H31 H 0.158325 0.287484 0.275689
C49 C 0.12702(15) 0.3188(2) 0.1902(2)
H32 H 0.113234 0.341238 0.206655
C52 C 0.24152(17) 0.44346(19) 0.0532(3)
H34 H 0.240558 0.433449 0.011972
C62 C 0.09316(16) 0.55604(18) 0.1497(2)
C63 C 0.09409(14) 0.50174(17) 0.1344(2)
O8 O 0.12396(10) 0.58108(12) 0.16585(19)
O9 O 0.06161(10) 0.57523(12) 0.14597(18)
C64 C 0.12717(14) 0.47845(18) 0.1369(2)
H43 H 0.150603 0.496646 0.149631
C65 C 0.06066(15) 0.47408(18) 0.1169(3)
H44 H 0.037478 0.489588 0.115693
C66 C 0.24460(15) 0.5084(2) 0.1293(3)
C67 C 0.24625(17) 0.5617(2) 0.1470(4)
O10 O 0.24250(17) 0.59417(16) 0.1059(3)
O11 O 0.25123(16) 0.57418(16) 0.2015(2)
C68 C 0.24548(17) 0.4733(2) 0.1739(3)
H45 H 0.247015 0.483435 0.215338
C69 C 0.24219(18) 0.4933(2) 0.0685(3)
H46 H 0.240998 0.517639 0.037132
C70 C 0.29550(14) 0.25648(18) 0.1950(3)
H47 H 0.290655 0.226731 0.213677
O12 O 0.40024(9) 0.25892(13) 0.26405(17)
O13 O 0.36038(10) 0.20111(13) 0.2712(2)
C71 C 0.33333(13) 0.27184(17) 0.2082(2)
C72 C 0.33959(13) 0.31574(17) 0.1801(2)
H48 H 0.365218 0.327123 0.189628
C73 C 0.26513(14) 0.28387(19) 0.1554(2)
H49 H 0.239495 0.273434 0.147934
C74 C 0.36741(15) 0.24234(18) 0.2502(2)
Cd4 Cd 0.41232(2) 0.15051(2) 0.31316(2)
Cd8 Cd 0.44705(2) 0.25662(2) 0.21865(2)
Cd10 Cd 0.24144(2) 0.65652(2) 0.17879(2)
N8 N 0.29729(14) 0.20117(18) 0.4074(2)
O16 O 0.25750(17) 0.09417(16) 0.3941(3)
O17 O 0.24877(16) 0.07418(16) 0.2985(2)
O19 O 0.13962(10) 0.70111(13) 0.2288(2)
O21 O 0.03347(8) 0.68261(11) 0.20107(15)
H51 H 0.320022 0.172839 0.280176
H52 H 0.330147 0.123154 0.324069
Cd2 Cd 0.05295(2) 0.24338(2) 0.78135(2)
O2 O 0.10453(9) 0.22851(12) 0.88660(15)
O3 O 0.08726(9) 0.30364(12) 0.84805(16)
C4 C 0.14405(12) 0.29574(16) 0.9396(2)
C10 C 0.14414(14) 0.34446(17) 0.9597(2)
H7 H 0.122145 0.364676 0.939771
C11 C 0.01812(12) 0.30661(17) 0.8992(2)
C13 C 0.04913(13) 0.37117(17) 0.9744(2)
H8 H 0.053827 0.405534 0.983614
C18 C 0.17750(14) 0.26835(17) 0.9681(2)
H12 H 0.178404 0.235005 0.954847
C21 C 0.11024(13) 0.27419(18) 0.8895(2)
C24 C 0.03703(12) 0.27169(17) 0.9453(2)
H15 H 0.033523 0.237361 0.934994
C29 C 0.01570(16) 0.8120(2) 0.9006(3)
H17 H 0.039050 0.826261 0.928440
C30 C 0.02816(14) 0.73853(19) 0.9731(3)
C32 C 0.02992(15) 0.68780(18) 0.9772(2)
H18 H 0.017270 0.668414 0.940117
H21 H 0.001756 0.868945 0.838200
C38 C 0.02404(13) 0.35675(17) 0.9150(2)
H23 H 0.010631 0.381243 0.884634
C46 C 0.00464(15) 0.76532(18) 0.9143(2)
O15 O 0.00038(9) 0.24785(11) 0.68446(15)
N7 N 0.05043(11) 0.15954(14) 0.77411(19)
O18 O 0.09976(9) 0.24108(13) 0.73595(17)
O20 O 0.03347(8) 0.31739(11) 0.70107(15)
C1 C 0.94753(13) 0.05592(17) 0.7348(2)
C35 C 0.94543(15) 0.00055(18) 0.7402(3)
C47 C 0.93389(16) 0.07938(19) 0.6766(3)
H30 H 0.923112 0.060612 0.638331
C54 C 0.96307(17) 0.08575(19) 0.7895(3)
H35 H 0.973550 0.071021 0.830751
N5 N 0.94957(11) 0.15954(14) 0.72589(19)
C57 C 0.96293(17) 0.13626(19) 0.7828(3)
H38 H 0.972835 0.155973 0.820340
C58 C 0.93593(16) 0.13035(19) 0.6740(3)
H39 H 0.927155 0.145767 0.633120
Cd7 Cd 0.94705(2) 0.24338(2) 0.71865(2)
O1 O 0.99962(9) 0.24785(11) 0.81554(15)
C2 C 0.97043(16) 0.74591(18) 0.8722(3)
H1 H 0.962625 0.713691 0.879920
C5 C 0.99319(13) 0.29046(17) 0.8344(2)
N4 N 0.93483(14) 0.84485(15) 0.7522(2)
C16 C 0.94230(15) 0.96987(18) 0.6882(3)
H10 H 0.942612 0.984232 0.649611
C19 C 0.95846(15) 0.81840(18) 0.8062(3)
C31 C 0.93825(15) 0.89744(18) 0.7479(3)
C36 C 0.99331(17) 0.8375(2) 0.8473(3)
C37 C 0.94520(17) 0.97826(19) 0.7972(3)
H22 H 0.947617 0.998376 0.833279
C39 C 0.94756(15) 0.77192(19) 0.8198(2)
H24 H 0.923946 0.757878 0.792412
C41 C 0.92543(17) 0.7791(2) 0.6728(3)
H26 H 0.950926 0.767738 0.695225
C42 C 0.93880(16) 0.91937(19) 0.6920(3)
H27 H 0.936721 0.899161 0.656123
C43 C 0.91150(16) 0.8189(2) 0.6960(3)
C44 C 0.90282(18) 0.7553(2) 0.6172(3)
H28 H 0.913207 0.728073 0.601736
C50 C 0.84180(17) 0.7468(2) 0.5219(3)
C51 C 0.94150(17) 0.9275(2) 0.8007(3)
H33 H 0.941142 0.912856 0.839041
C53 C 0.86512(17) 0.7705(2) 0.5832(3)
C55 C 0.85107(18) 0.8097(3) 0.6095(3)
H36 H 0.825028 0.819717 0.589102
C56 C 0.8736(2) 0.8339(2) 0.6635(3)
H37 H 0.863316 0.861190 0.679038
N6 N 0.79729(14) 0.70117(18) 0.4074(2)
C59 C 0.8344(2) 0.6987(3) 0.4301(4)
H40 H 0.846577 0.681198 0.405675
C60 C 0.8573(2) 0.7190(3) 0.4859(4)
H41 H 0.884344 0.714018 0.500324
C61 C 0.7824(2) 0.7286(4) 0.4395(5)
H42 H 0.755251 0.732613 0.423199
O14 O 0.96653(8) 0.31739(11) 0.79893(15)
H50 H 0.789287 0.772227 0.513902
C75 C 0.8025(2) 0.7518(4) 0.4939(5)
Cd5 Cd 0.91232(2) 0.34949(2) 0.81316(2)
Cd9 Cd 0.75856(2) 0.65652(2) 0.32121(2)
C1_2 C 0.05247(13) 0.05592(17) 0.7652(2)
C35_2 C 0.05457(15) 0.00055(18) 0.7598(3)
C47_2 C 0.06611(16) 0.07938(19) 0.8234(3)
H30_2 H 0.076888 0.060612 0.861669
C54_2 C 0.03693(17) 0.08575(19) 0.7105(3)
H35_2 H 0.026450 0.071021 0.669249
C57_2 C 0.03707(17) 0.13626(19) 0.7172(3)
H38_2 H 0.027165 0.155973 0.679660
C58_2 C 0.06407(16) 0.13035(19) 0.8260(3)
H39_2 H 0.072845 0.145767 0.866880
N6_2 N 0.20271(14) 0.70117(18) 0.0926(2)
C59_2 C 0.1656(2) 0.6987(3) 0.0699(4)
H40_2 H 0.153423 0.681198 0.094325
C60_2 C 0.1427(2) 0.7190(3) 0.0141(4)
C61_2 C 0.2176(2) 0.7286(4) 0.0605(5)
H42_2 H 0.244749 0.732613 0.076801
C75_2 C 0.1975(2) 0.7518(4) 0.0061(5)
C2_2 C 0.02957(16) 0.74591(18) 0.6278(3)
H1_2 H 0.037375 0.713691 0.620080
C5_2 C 0.00681(13) 0.29046(17) 0.6656(2)
N4_2 N 0.06517(14) 0.84485(15) 0.7478(2)
C16_2 C 0.05770(15) 0.96987(18) 0.8118(3)
H10_2 H 0.057388 0.984232 0.850389
C19_2 C 0.04154(15) 0.81840(18) 0.6938(3)
C31_2 C 0.06175(15) 0.89744(18) 0.7521(3)
C36_2 C 0.00669(17) 0.8375(2) 0.6527(3)
C37_2 C 0.05480(17) 0.97826(19) 0.7028(3)
H22_2 H 0.052383 0.998376 0.666721
C39_2 C 0.05244(15) 0.77192(19) 0.6802(2)
H24_2 H 0.076054 0.757878 0.707588
C41_2 C 0.07457(17) 0.7791(2) 0.8272(3)
H26_2 H 0.049074 0.767738 0.804775
C42_2 C 0.06120(16) 0.91937(19) 0.8080(3)
H27_2 H 0.063279 0.899161 0.843877
C43_2 C 0.08850(16) 0.8189(2) 0.8040(3)
C44_2 C 0.09718(18) 0.7553(2) 0.8828(3)
H28_2 H 0.086793 0.728073 0.898264
C50_2 C 0.15820(17) 0.7468(2) 0.9781(3)
C51_2 C 0.05850(17) 0.9275(2) 0.6993(3)
H33_2 H 0.058858 0.912856 0.660959
C53_2 C 0.13488(17) 0.7705(2) 0.9168(3)
C55_2 C 0.14893(18) 0.8097(3) 0.8905(3)
H36_2 H 0.174972 0.819717 0.910898
C56_2 C 0.1264(2) 0.8339(2) 0.8365(3)
H37_2 H 0.136684 0.861190 0.820962
H41_2 H 0.115656 0.714018 0.999676
H50_2 H 0.210713 0.772227 0.986098
Cd5_2 Cd 0.08768(2) 0.34949(2) 0.68684(2)
Cd1_2 Cd 0.91232(2) 0.65051(2) 0.31316(2)
Cd3_2 Cd 0.74144(2) 0.15652(2) 0.17879(2)
O2_2 O 0.89547(9) 0.22851(12) 0.61340(15)
O3_2 O 0.91274(9) 0.30364(12) 0.65195(16)
N1_2 N 0.90730(11) 0.35106(13) 0.41691(19)
O4_2 O 0.69033(12) 0.14093(15) 0.2106(2)
C3_2 C 0.83248(13) 0.25309(17) 0.3563(2)
H2_2 H 0.818803 0.230460 0.372795
C4_2 C 0.85595(12) 0.29574(16) 0.5604(2)
N2_2 N 0.75915(11) 0.35643(14) 0.4149(2)
O5_2 O 0.77580(11) 0.19459(14) 0.27086(19)
C6_2 C 0.93219(13) 0.33607(17) 0.4786(2)
O6_2 O 0.89765(12) 0.61913(13) 0.21304(17)
H3_2 H 0.897102 0.642555 0.187304
H4_2 H 0.875682 0.605225 0.201414
C7_2 C 0.75585(16) 0.4226(2) 0.3409(3)
H5_2 H 0.755459 0.398264 0.309914
C8_2 C 0.87974(13) 0.31794(16) 0.3752(2)
N3_2 N 0.93099(12) 0.68911(14) 0.41152(19)
C9_2 C 0.93910(13) 0.28576(17) 0.4938(2)
H6_2 H 0.927403 0.261169 0.462361
C10_2 C 0.85586(14) 0.34446(17) 0.5403(2)
H7_2 H 0.877855 0.364676 0.560229
C11_2 C 0.98188(12) 0.30661(17) 0.6008(2)
C12_2 C 0.90664(14) 0.40193(17) 0.3974(2)
C13_2 C 0.95087(13) 0.37117(17) 0.5256(2)
H8_2 H 0.946173 0.405534 0.516386
C14_2 C 0.79046(13) 0.28808(17) 0.4847(2)
H9_2 H 0.767901 0.268429 0.466831
C15_2 C 0.72847(13) 0.32675(17) 0.3741(2)
C17_2 C 0.95006(16) 0.66425(19) 0.4651(3)
H11_2 H 0.949955 0.628965 0.463862
C18_2 C 0.82250(14) 0.26835(17) 0.5319(2)
H12_2 H 0.821596 0.235005 0.545153
C20_2 C 0.75775(13) 0.40847(18) 0.4013(3)
C21_2 C 0.88976(13) 0.27419(18) 0.6105(2)
C22_2 C 0.69042(14) 0.34280(17) 0.3610(2)
H13_2 H 0.685536 0.372104 0.380523
C23_2 C 0.95122(16) 0.76456(19) 0.4709(3)
H14_2 H 0.950617 0.799848 0.471238
C24_2 C 0.96297(12) 0.27169(17) 0.5547(2)
H15_2 H 0.966477 0.237361 0.565006
C25_2 C 0.79605(15) 0.21900(19) 0.2480(3)
C26_2 C 0.79096(13) 0.33594(17) 0.4633(2)
C27_2 C 0.87293(14) 0.42875(18) 0.3787(2)
H16_2 H 0.849626 0.413058 0.376549
C28_2 C 0.82556(14) 0.25350(18) 0.2914(2)
C29_2 C 0.98430(16) 0.8120(2) 0.5994(3)
H17_2 H 0.960950 0.826261 0.571560
C30_2 C 0.97184(14) 0.73853(19) 0.5269(3)
C32_2 C 0.97008(15) 0.68780(18) 0.5228(2)
H18_2 H 0.982730 0.668414 0.559883
C33_2 C 0.82455(13) 0.36431(17) 0.4919(2)
H19_2 H 0.825711 0.397362 0.477810
C34_2 C 0.85926(13) 0.28538(16) 0.3980(2)
H20_2 H 0.863347 0.284848 0.442406
H21_2 H 0.998244 0.868945 0.661800
C38_2 C 0.97596(13) 0.35675(17) 0.5850(2)
H23_2 H 0.989369 0.381243 0.615366
O7_2 O 0.79186(12) 0.21634(16) 0.1904(2)
C40_2 C 0.93991(15) 0.42501(19) 0.3987(3)
H25_2 H 0.963279 0.406746 0.410371
C45_2 C 0.93187(16) 0.73905(19) 0.4157(3)
H29_2 H 0.918332 0.757623 0.378229
C46_2 C 0.99536(15) 0.76532(18) 0.5857(2)
C48_2 C 0.84608(15) 0.28665(19) 0.2688(3)
H31_2 H 0.841675 0.287484 0.224311
C49_2 C 0.87298(15) 0.3188(2) 0.3098(2)
H32_2 H 0.886766 0.341238 0.293345
C52_2 C 0.75848(17) 0.44346(19) 0.4468(3)
H34_2 H 0.759442 0.433449 0.488028
C62_2 C 0.90684(16) 0.55604(18) 0.3503(2)
C63_2 C 0.90591(14) 0.50174(17) 0.3656(2)
O8_2 O 0.87604(10) 0.58108(12) 0.33415(19)
O9_2 O 0.93839(10) 0.57523(12) 0.35403(18)
C64_2 C 0.87283(14) 0.47845(18) 0.3631(2)
H43_2 H 0.849397 0.496646 0.350369
C65_2 C 0.93934(15) 0.47408(18) 0.3831(3)
H44_2 H 0.962522 0.489588 0.384307
C66_2 C 0.75540(15) 0.5084(2) 0.3707(3)
C67_2 C 0.75375(17) 0.5617(2) 0.3530(4)
O10_2 O 0.75750(17) 0.59417(16) 0.3941(3)
O11_2 O 0.74877(16) 0.57418(16) 0.2985(2)
C68_2 C 0.75452(17) 0.4733(2) 0.3261(3)
H45_2 H 0.752985 0.483435 0.284662
C69_2 C 0.75781(18) 0.4933(2) 0.4315(3)
H46_2 H 0.759002 0.517639 0.462868
C70_2 C 0.70450(14) 0.25648(18) 0.3050(3)
H47_2 H 0.709345 0.226731 0.286323
O12_2 O 0.59976(9) 0.25892(13) 0.23595(17)
O13_2 O 0.63962(10) 0.20111(13) 0.2288(2)
C71_2 C 0.66667(13) 0.27184(17) 0.2918(2)
C72_2 C 0.66041(13) 0.31574(17) 0.3199(2)
H48_2 H 0.634782 0.327123 0.310372
C73_2 C 0.73487(14) 0.28387(19) 0.3446(2)
H49_2 H 0.760505 0.273434 0.352066
C74_2 C 0.63259(15) 0.24234(18) 0.2498(2)
Cd4_2 Cd 0.58768(2) 0.15051(2) 0.18684(2)
Cd8_2 Cd 0.55295(2) 0.25662(2) 0.28135(2)
N8_2 N 0.70271(14) 0.20117(18) 0.0926(2)
O16_2 O 0.74250(17) 0.09417(16) 0.1059(3)
O17_2 O 0.75123(16) 0.07418(16) 0.2015(2)
O18_2 O 0.90024(9) 0.24108(13) 0.76405(17)
O19_2 O 0.86038(10) 0.70111(13) 0.2712(2)
O21_2 O 0.96653(8) 0.68261(11) 0.29893(15)
H51_2 H 0.679978 0.172839 0.219824
H52_2 H 0.669853 0.123154 0.175931
O6_3 O 0.60235(12) 0.11913(13) 0.28696(17)
H3_3 H 0.602898 0.142555 0.312696
H4_3 H 0.624318 0.105225 0.298586
N3_3 N 0.56901(12) 0.18911(14) 0.08848(19)
C17_3 C 0.54994(16) 0.16425(19) 0.0349(3)
H11_3 H 0.550045 0.128965 0.036138
C23_3 C 0.54878(16) 0.26456(19) 0.0291(3)
H14_3 H 0.549383 0.299848 0.028762
C45_3 C 0.56813(16) 0.23905(19) 0.0843(3)
H29_3 H 0.581668 0.257623 0.121771
C62_3 C 0.59316(16) 0.05604(18) 0.1497(2)
C63_3 C 0.59409(14) 0.00174(17) 0.1344(2)
O8_3 O 0.62396(10) 0.08108(12) 0.16585(19)
O9_3 O 0.56161(10) 0.07523(12) 0.14597(18)
C66_3 C 0.74460(15) 0.0084(2) 0.1293(3)
C67_3 C 0.74625(17) 0.0617(2) 0.1470(4)
H46_3 H 0.740998 0.017639 0.037132
O21_3 O 0.53347(8) 0.18261(11) 0.20107(15)
C1_3 C 0.44753(13) 0.55592(17) 0.7348(2)
C2_3 C 0.47043(16) 0.24591(18) 0.8722(3)
H1_3 H 0.462625 0.213691 0.879920
N4_3 N 0.43483(14) 0.34485(15) 0.7522(2)
C16_3 C 0.44230(15) 0.46987(18) 0.6882(3)
H10_3 H 0.442612 0.484232 0.649611
C19_3 C 0.45846(15) 0.31840(18) 0.8062(3)
C29_3 C 0.51570(16) 0.3120(2) 0.9006(3)
H17_3 H 0.539050 0.326261 0.928440
C30_3 C 0.52816(14) 0.23853(19) 0.9731(3)
C31_3 C 0.43825(15) 0.39744(18) 0.7479(3)
C32_3 C 0.52992(15) 0.18780(18) 0.9772(2)
H18_3 H 0.517270 0.168414 0.940117
C35_3 C 0.44543(15) 0.50055(18) 0.7402(3)
C36_3 C 0.49331(17) 0.3375(2) 0.8473(3)
H21_3 H 0.501756 0.368945 0.838200
C37_3 C 0.44520(17) 0.47826(19) 0.7972(3)
H22_3 H 0.447617 0.498376 0.833279
C39_3 C 0.44756(15) 0.27192(19) 0.8198(2)
H24_3 H 0.423946 0.257878 0.792412
C41_3 C 0.42543(17) 0.2791(2) 0.6728(3)
H26_3 H 0.450926 0.267738 0.695225
C42_3 C 0.43880(16) 0.41937(19) 0.6920(3)
H27_3 H 0.436721 0.399161 0.656123
C43_3 C 0.41150(16) 0.3189(2) 0.6960(3)
C44_3 C 0.40282(18) 0.2553(2) 0.6172(3)
H28_3 H 0.413207 0.228073 0.601736
C46_3 C 0.50464(15) 0.26532(18) 0.9143(2)
C47_3 C 0.43389(16) 0.57938(19) 0.6766(3)
H30_3 H 0.423112 0.560612 0.638331
C50_3 C 0.34180(17) 0.2468(2) 0.5219(3)
C51_3 C 0.44150(17) 0.4275(2) 0.8007(3)
H33_3 H 0.441142 0.412856 0.839041
C53_3 C 0.36512(17) 0.2705(2) 0.5832(3)
C54_3 C 0.46307(17) 0.58575(19) 0.7895(3)
H35_3 H 0.473550 0.571021 0.830751
C55_3 C 0.35107(18) 0.3097(3) 0.6095(3)
H36_3 H 0.325028 0.319717 0.589102
C56_3 C 0.3736(2) 0.3339(2) 0.6635(3)
H37_3 H 0.363316 0.361190 0.679038
N5_2 N 0.44957(11) 0.65954(14) 0.72589(19)
C57_3 C 0.46293(17) 0.63626(19) 0.7828(3)
H38_3 H 0.472835 0.655973 0.820340
C58_3 C 0.43593(16) 0.63035(19) 0.6740(3)
H39_3 H 0.427155 0.645767 0.633120
C59_3 C 0.3344(2) 0.1987(3) 0.4301(4)
H40_3 H 0.346577 0.181198 0.405675
C60_3 C 0.3573(2) 0.2190(3) 0.4859(4)
H41_3 H 0.384344 0.214018 0.500324
C61_3 C 0.2824(2) 0.2286(4) 0.4395(5)
H42_3 H 0.255251 0.232613 0.423199
H50_3 H 0.289287 0.272227 0.513902
C75_3 C 0.3025(2) 0.2518(4) 0.4939(5)
Cd7_2 Cd 0.44705(2) 0.74338(2) 0.71865(2)
N1_3 N 0.59270(11) 0.85106(13) 0.08309(19)
O4_3 O 0.80967(12) 0.64093(15) 0.2894(2)
C3_3 C 0.66752(13) 0.75309(17) 0.1437(2)
H2_3 H 0.681197 0.730460 0.127205
N2_3 N 0.74085(11) 0.85643(14) 0.0851(2)
O5_3 O 0.72420(11) 0.69459(14) 0.22914(19)
C6_3 C 0.56781(13) 0.83607(17) 0.0214(2)
C7_3 C 0.74415(16) 0.9226(2) 0.1591(3)
H5_3 H 0.744541 0.898264 0.190086
C8_3 C 0.62026(13) 0.81794(16) 0.1248(2)
C9_3 C 0.56090(13) 0.78576(17) 0.0062(2)
H6_3 H 0.572597 0.761169 0.037639
C12_3 C 0.59336(14) 0.90193(17) 0.1026(2)
C14_3 C 0.70954(13) 0.78808(17) 0.0153(2)
H9_3 H 0.732099 0.768429 0.033169
C15_3 C 0.77153(13) 0.82675(17) 0.1259(2)
C20_3 C 0.74225(13) 0.90847(18) 0.0987(3)
C22_3 C 0.80958(14) 0.84280(17) 0.1390(2)
H13_3 H 0.814464 0.872104 0.119477
C25_3 C 0.70395(15) 0.71900(19) 0.2520(3)
C26_3 C 0.70904(13) 0.83594(17) 0.0367(2)
C27_3 C 0.62707(14) 0.92875(18) 0.1213(2)
H16_3 H 0.650374 0.913058 0.123451
C28_3 C 0.67444(14) 0.75350(18) 0.2086(2)
C33_3 C 0.67545(13) 0.86431(17) 0.0081(2)
H19_3 H 0.674289 0.897362 0.022190
C34_3 C 0.64074(13) 0.78538(16) 0.1020(2)
H20_3 H 0.636653 0.784848 0.057594
O7_3 O 0.70814(12) 0.71634(16) 0.3096(2)
C40_3 C 0.56009(15) 0.92501(19) 0.1013(3)
H25_3 H 0.536721 0.906746 0.089629
C48_3 C 0.65392(15) 0.78665(19) 0.2312(3)
H31_3 H 0.658325 0.787484 0.275689
C49_3 C 0.62702(15) 0.8188(2) 0.1902(2)
H32_3 H 0.613234 0.841238 0.206655
C52_3 C 0.74152(17) 0.94346(19) 0.0532(3)
H34_3 H 0.740558 0.933449 0.011972
C64_3 C 0.62717(14) 0.97845(18) 0.1369(2)
H43_3 H 0.650603 0.996646 0.149631
C65_3 C 0.56066(15) 0.97408(18) 0.1169(3)
H44_3 H 0.537478 0.989588 0.115693
C68_3 C 0.74548(17) 0.9733(2) 0.1739(3)
H45_3 H 0.747015 0.983435 0.215338
C69_3 C 0.74219(18) 0.9933(2) 0.0685(3)
C70_3 C 0.79550(14) 0.75648(18) 0.1950(3)
H47_3 H 0.790655 0.726731 0.213677
O12_3 O 0.90024(9) 0.75892(13) 0.26405(17)
C71_3 C 0.83333(13) 0.77184(17) 0.2082(2)
C72_3 C 0.83959(13) 0.81574(17) 0.1801(2)
H48_3 H 0.865218 0.827123 0.189628
C73_3 C 0.76513(14) 0.78387(19) 0.1554(2)
H49_3 H 0.739495 0.773434 0.147934
C74_3 C 0.86741(15) 0.74234(18) 0.2502(2)
Cd8_3 Cd 0.94705(2) 0.75662(2) 0.21865(2)
H51_3 H 0.820022 0.672839 0.280176
H52_3 H 0.830147 0.623154 0.324069
Cd2_2 Cd 0.55295(2) 0.74338(2) 0.78135(2)
O1_2 O 0.49962(9) 0.74785(11) 0.81554(15)
O2_3 O 0.60453(9) 0.72851(12) 0.88660(15)
O3_3 O 0.58726(9) 0.80364(12) 0.84805(16)
C4_3 C 0.64405(12) 0.79574(16) 0.9396(2)
C5_3 C 0.49319(13) 0.79046(17) 0.8344(2)
C10_3 C 0.64414(14) 0.84446(17) 0.9597(2)
H7_3 H 0.622145 0.864676 0.939771
C11_3 C 0.51812(12) 0.80661(17) 0.8992(2)
C13_3 C 0.54913(13) 0.87117(17) 0.9744(2)
H8_3 H 0.553827 0.905534 0.983614
C18_3 C 0.67750(14) 0.76835(17) 0.9681(2)
H12_3 H 0.678404 0.735005 0.954847
C21_3 C 0.61024(13) 0.77419(18) 0.8895(2)
C24_3 C 0.53703(12) 0.77169(17) 0.9453(2)
H15_3 H 0.533523 0.737361 0.934994
C38_3 C 0.52404(13) 0.85675(17) 0.9150(2)
H23_3 H 0.510631 0.881243 0.884634
O14_2 O 0.46653(8) 0.81739(11) 0.79893(15)
Cd5_3 Cd 0.41232(2) 0.84949(2) 0.81316(2)
O15_2 O 0.50038(9) 0.74785(11) 0.68446(15)
N7_2 N 0.55043(11) 0.65954(14) 0.77411(19)
O18_3 O 0.59976(9) 0.74108(13) 0.73595(17)
O20_2 O 0.53347(8) 0.81739(11) 0.70107(15)
C59_4 C 0.6656(2) 0.1987(3) 0.0699(4)
H40_4 H 0.653423 0.181198 0.094325
C60_4 C 0.6427(2) 0.2190(3) 0.0141(4)
C61_4 C 0.7176(2) 0.2286(4) 0.0605(5)
H42_4 H 0.744749 0.232613 0.076801
C75_4 C 0.6975(2) 0.2518(4) 0.0061(5)
C1_4 C 0.55247(13) 0.55592(17) 0.7652(2)
C2_4 C 0.52957(16) 0.24591(18) 0.6278(3)
H1_4 H 0.537375 0.213691 0.620080
O6_4 O 0.39765(12) 0.11913(13) 0.21304(17)
H3_4 H 0.397102 0.142555 0.187304
H4_4 H 0.375682 0.105225 0.201414
N3_4 N 0.43099(12) 0.18911(14) 0.41152(19)
N4_4 N 0.56517(14) 0.34485(15) 0.7478(2)
C16_4 C 0.55770(15) 0.46987(18) 0.8118(3)
H10_4 H 0.557388 0.484232 0.850389
C17_4 C 0.45006(16) 0.16425(19) 0.4651(3)
H11_4 H 0.449955 0.128965 0.463862
C19_4 C 0.54154(15) 0.31840(18) 0.6938(3)
C23_4 C 0.45122(16) 0.26456(19) 0.4709(3)
H14_4 H 0.450617 0.299848 0.471238
C29_4 C 0.48430(16) 0.3120(2) 0.5994(3)
H17_4 H 0.460950 0.326261 0.571560
C30_4 C 0.47184(14) 0.23853(19) 0.5269(3)
C31_4 C 0.56175(15) 0.39744(18) 0.7521(3)
C32_4 C 0.47008(15) 0.18780(18) 0.5228(2)
H18_4 H 0.482730 0.168414 0.559883
C35_4 C 0.55457(15) 0.50055(18) 0.7598(3)
C36_4 C 0.50669(17) 0.3375(2) 0.6527(3)
H21_4 H 0.498244 0.368945 0.661800
C37_4 C 0.55480(17) 0.47826(19) 0.7028(3)
H22_4 H 0.552383 0.498376 0.666721
C39_4 C 0.55244(15) 0.27192(19) 0.6802(2)
H24_4 H 0.576054 0.257878 0.707588
C41_4 C 0.57457(17) 0.2791(2) 0.8272(3)
H26_4 H 0.549074 0.267738 0.804775
C42_4 C 0.56120(16) 0.41937(19) 0.8080(3)
H27_4 H 0.563279 0.399161 0.843877
C43_4 C 0.58850(16) 0.3189(2) 0.8040(3)
C44_4 C 0.59718(18) 0.2553(2) 0.8828(3)
H28_4 H 0.586793 0.228073 0.898264
C45_4 C 0.43187(16) 0.23905(19) 0.4157(3)
H29_4 H 0.418332 0.257623 0.378229
C46_4 C 0.49536(15) 0.26532(18) 0.5857(2)
C47_4 C 0.56611(16) 0.57938(19) 0.8234(3)
H30_4 H 0.576888 0.560612 0.861669
C50_4 C 0.65820(17) 0.2468(2) 0.9781(3)
C51_4 C 0.55850(17) 0.4275(2) 0.6993(3)
H33_4 H 0.558858 0.412856 0.660959
C53_4 C 0.63488(17) 0.2705(2) 0.9168(3)
C54_4 C 0.53693(17) 0.58575(19) 0.7105(3)
H35_4 H 0.526450 0.571021 0.669249
C55_4 C 0.64893(18) 0.3097(3) 0.8905(3)
H36_4 H 0.674972 0.319717 0.910898
C56_4 C 0.6264(2) 0.3339(2) 0.8365(3)
H37_4 H 0.636684 0.361190 0.820962
C57_4 C 0.53707(17) 0.63626(19) 0.7172(3)
H38_4 H 0.527165 0.655973 0.679660
C58_4 C 0.56407(16) 0.63035(19) 0.8260(3)
H39_4 H 0.572845 0.645767 0.866880
H41_4 H 0.615656 0.214018 0.999676
C62_4 C 0.40684(16) 0.05604(18) 0.3503(2)
C63_4 C 0.40591(14) 0.00174(17) 0.3656(2)
O8_4 O 0.37604(10) 0.08108(12) 0.33415(19)
O9_4 O 0.43839(10) 0.07523(12) 0.35403(18)
C66_4 C 0.25540(15) 0.0084(2) 0.3707(3)
C67_4 C 0.25375(17) 0.0617(2) 0.3530(4)
H46_4 H 0.259002 0.017639 0.462868
H50_4 H 0.710713 0.272227 0.986098
O21_4 O 0.46653(8) 0.18261(11) 0.29893(15)
O2_4 O 0.39547(9) 0.72851(12) 0.61340(15)
O3_4 O 0.41274(9) 0.80364(12) 0.65195(16)
N1_4 N 0.40730(11) 0.85106(13) 0.41691(19)
O4_4 O 0.19033(12) 0.64093(15) 0.2106(2)
C3_4 C 0.33248(13) 0.75309(17) 0.3563(2)
H2_4 H 0.318803 0.730460 0.372795
C4_4 C 0.35595(12) 0.79574(16) 0.5604(2)
N2_4 N 0.25915(11) 0.85643(14) 0.4149(2)
C5_4 C 0.50681(13) 0.79046(17) 0.6656(2)
O5_4 O 0.27580(11) 0.69459(14) 0.27086(19)
C6_4 C 0.43219(13) 0.83607(17) 0.4786(2)
C7_4 C 0.25585(16) 0.9226(2) 0.3409(3)
H5_4 H 0.255459 0.898264 0.309914
C8_4 C 0.37974(13) 0.81794(16) 0.3752(2)
C9_4 C 0.43910(13) 0.78576(17) 0.4938(2)
H6_4 H 0.427403 0.761169 0.462361
C10_4 C 0.35586(14) 0.84446(17) 0.5403(2)
H7_4 H 0.377855 0.864676 0.560229
C11_4 C 0.48188(12) 0.80661(17) 0.6008(2)
C12_4 C 0.40664(14) 0.90193(17) 0.3974(2)
C13_4 C 0.45087(13) 0.87117(17) 0.5256(2)
H8_4 H 0.446173 0.905534 0.516386
C14_4 C 0.29046(13) 0.78808(17) 0.4847(2)
H9_4 H 0.267901 0.768429 0.466831
C15_4 C 0.22847(13) 0.82675(17) 0.3741(2)
C18_4 C 0.32250(14) 0.76835(17) 0.5319(2)
H12_4 H 0.321596 0.735005 0.545153
C20_4 C 0.25775(13) 0.90847(18) 0.4013(3)
C21_4 C 0.38976(13) 0.77419(18) 0.6105(2)
C22_4 C 0.19042(14) 0.84280(17) 0.3610(2)
H13_4 H 0.185536 0.872104 0.380523
C24_4 C 0.46297(12) 0.77169(17) 0.5547(2)
H15_4 H 0.466477 0.737361 0.565006
C25_4 C 0.29605(15) 0.71900(19) 0.2480(3)
C26_4 C 0.29096(13) 0.83594(17) 0.4633(2)
C27_4 C 0.37293(14) 0.92875(18) 0.3787(2)
H16_4 H 0.349626 0.913058 0.376549
C28_4 C 0.32556(14) 0.75350(18) 0.2914(2)
C33_4 C 0.32455(13) 0.86431(17) 0.4919(2)
H19_4 H 0.325711 0.897362 0.477810
C34_4 C 0.35926(13) 0.78538(16) 0.3980(2)
H20_4 H 0.363347 0.784848 0.442406
C38_4 C 0.47596(13) 0.85675(17) 0.5850(2)
H23_4 H 0.489369 0.881243 0.615366
O7_4 O 0.29186(12) 0.71634(16) 0.1904(2)
C40_4 C 0.43991(15) 0.92501(19) 0.3987(3)
H25_4 H 0.463279 0.906746 0.410371
C48_4 C 0.34608(15) 0.78665(19) 0.2688(3)
H31_4 H 0.341675 0.787484 0.224311
C49_4 C 0.37298(15) 0.8188(2) 0.3098(2)
H32_4 H 0.386766 0.841238 0.293345
C52_4 C 0.25848(17) 0.94346(19) 0.4468(3)
H34_4 H 0.259442 0.933449 0.488028
C64_4 C 0.37283(14) 0.97845(18) 0.3631(2)
H43_4 H 0.349397 0.996646 0.350369
C65_4 C 0.43934(15) 0.97408(18) 0.3831(3)
H44_4 H 0.462522 0.989588 0.384307
C68_4 C 0.25452(17) 0.9733(2) 0.3261(3)
H45_4 H 0.252985 0.983435 0.284662
C69_4 C 0.25781(18) 0.9933(2) 0.4315(3)
C70_4 C 0.20450(14) 0.75648(18) 0.3050(3)
H47_4 H 0.209345 0.726731 0.286323
O12_4 O 0.09976(9) 0.75892(13) 0.23595(17)
C71_4 C 0.16667(13) 0.77184(17) 0.2918(2)
C72_4 C 0.16041(13) 0.81574(17) 0.3199(2)
H48_4 H 0.134782 0.827123 0.310372
C73_4 C 0.23487(14) 0.78387(19) 0.3446(2)
H49_4 H 0.260505 0.773434 0.352066
C74_4 C 0.13259(15) 0.74234(18) 0.2498(2)
Cd5_4 Cd 0.58768(2) 0.84949(2) 0.68684(2)
Cd8_4 Cd 0.05295(2) 0.75662(2) 0.28135(2)
O18_4 O 0.40024(9) 0.74108(13) 0.76405(17)
H51_4 H 0.179978 0.672839 0.219824
H52_4 H 0.169853 0.623154 0.175931
O1_3 O 0.00038(9) 0.75215(11) 0.18446(15)
C2_5 C 0.02957(16) 0.25409(18) 0.1278(3)
H1_5 H 0.037375 0.286309 0.120080
C5_5 C 0.00681(13) 0.70954(17) 0.1656(2)
N4_5 N 0.06517(14) 0.15515(15) 0.2478(2)
C16_5 C 0.05770(15) 0.03013(18) 0.3118(3)
H10_5 H 0.057388 0.015768 0.350389
C19_5 C 0.04154(15) 0.18160(18) 0.1938(3)
C31_5 C 0.06175(15) 0.10256(18) 0.2521(3)
C36_5 C 0.00669(17) 0.1625(2) 0.1527(3)
C37_5 C 0.05480(17) 0.02174(19) 0.2028(3)
H22_5 H 0.052383 0.001624 0.166721
C39_5 C 0.05244(15) 0.22808(19) 0.1802(2)
H24_5 H 0.076054 0.242122 0.207588
C41_5 C 0.07457(17) 0.2209(2) 0.3272(3)
H26_5 H 0.049074 0.232262 0.304775
C42_5 C 0.06120(16) 0.08063(19) 0.3080(3)
H27_5 H 0.063279 0.100839 0.343877
C43_5 C 0.08850(16) 0.1811(2) 0.3040(3)
C44_5 C 0.09718(18) 0.2447(2) 0.3828(3)
H28_5 H 0.086793 0.271927 0.398264
C50_5 C 0.15820(17) 0.2532(2) 0.4781(3)
C51_5 C 0.05850(17) 0.0725(2) 0.1993(3)
H33_5 H 0.058858 0.087144 0.160959
C53_5 C 0.13488(17) 0.2295(2) 0.4168(3)
C55_5 C 0.14893(18) 0.1903(3) 0.3905(3)
H36_5 H 0.174972 0.180283 0.410898
C56_5 C 0.1264(2) 0.1661(2) 0.3365(3)
H37_5 H 0.136684 0.138810 0.320962
N6_3 N 0.20271(14) 0.29883(18) 0.5926(2)
C59_5 C 0.1656(2) 0.3013(3) 0.5699(4)
H40_5 H 0.153423 0.318802 0.594325
C60_5 C 0.1427(2) 0.2810(3) 0.5141(4)
H41_5 H 0.115656 0.285982 0.499676
C61_5 C 0.2176(2) 0.2714(4) 0.5605(5)
H42_5 H 0.244749 0.267387 0.576801
H50_5 H 0.210713 0.227773 0.486098
C75_5 C 0.1975(2) 0.2482(4) 0.5061(5)
Cd9_2 Cd 0.24144(2) 0.34348(2) 0.67879(2)
C1_5 C 0.05247(13) 0.94408(17) 0.2652(2)
C35_5 C 0.05457(15) 0.99945(18) 0.2598(3)
C47_5 C 0.06611(16) 0.92062(19) 0.3234(3)
H30_5 H 0.076888 0.939388 0.361669
C54_5 C 0.03693(17) 0.91425(19) 0.2105(3)
H35_5 H 0.026450 0.928979 0.169249
N5_3 N 0.05043(11) 0.84046(14) 0.27411(19)
C57_5 C 0.03707(17) 0.86374(19) 0.2172(3)
H38_5 H 0.027165 0.844027 0.179660
C58_5 C 0.06407(16) 0.86965(19) 0.3260(3)
H39_5 H 0.072845 0.854233 0.366880
O2_5 O 0.89547(9) 0.77149(12) 0.11340(15)
O3_5 O 0.91274(9) 0.69636(12) 0.15195(16)
C4_5 C 0.85595(12) 0.70426(16) 0.0604(2)
C10_5 C 0.85586(14) 0.65554(17) 0.0403(2)
H7_5 H 0.877855 0.635324 0.060229
C11_5 C 0.98188(12) 0.69339(17) 0.1008(2)
C13_5 C 0.95087(13) 0.62883(17) 0.0256(2)
H8_5 H 0.946173 0.594466 0.016386
C18_5 C 0.82250(14) 0.73165(17) 0.0319(2)
H12_5 H 0.821596 0.764995 0.045153
C21_5 C 0.88976(13) 0.72581(18) 0.1105(2)
C24_5 C 0.96297(12) 0.72831(17) 0.0547(2)
H15_5 H 0.966477 0.762639 0.065006
C29_5 C 0.98430(16) 0.1880(2) 0.0994(3)
H17_5 H 0.960950 0.173739 0.071560
C30_5 C 0.97184(14) 0.26147(19) 0.0269(3)
C32_5 C 0.97008(15) 0.31220(18) 0.0228(2)
H18_5 H 0.982730 0.331586 0.059883
H21_5 H 0.998244 0.131055 0.161800
C38_5 C 0.97596(13) 0.64325(17) 0.0850(2)
H23_5 H 0.989369 0.618757 0.115366
C46_5 C 0.99536(15) 0.23468(18) 0.0857(2)
O15_3 O 0.99962(9) 0.75215(11) 0.31554(15)
N7_3 N 0.94957(11) 0.84046(14) 0.22589(19)
Cd3_3 Cd 0.74144(2) 0.84348(2) 0.67879(2)
N1_5 N 0.90730(11) 0.64894(13) 0.91691(19)
O4_5 O 0.69033(12) 0.85907(15) 0.7106(2)
C3_5 C 0.83248(13) 0.74691(17) 0.8563(2)
H2_5 H 0.818803 0.769540 0.872795
N2_5 N 0.75915(11) 0.64357(14) 0.9149(2)
O5_5 O 0.77580(11) 0.80541(14) 0.77086(19)
C6_5 C 0.93219(13) 0.66393(17) 0.9786(2)
O6_5 O 0.89765(12) 0.38087(13) 0.71304(17)
H3_5 H 0.897102 0.357445 0.687304
H4_5 H 0.875682 0.394775 0.701414
C7_5 C 0.75585(16) 0.5774(2) 0.8409(3)
H5_5 H 0.755459 0.601736 0.809914
C8_5 C 0.87974(13) 0.68206(16) 0.8752(2)
N3_5 N 0.93099(12) 0.31089(14) 0.91152(19)
C9_5 C 0.93910(13) 0.71424(17) 0.9938(2)
H6_5 H 0.927403 0.738831 0.962361
C12_5 C 0.90664(14) 0.59807(17) 0.8974(2)
C14_5 C 0.79046(13) 0.71192(17) 0.9847(2)
H9_5 H 0.767901 0.731571 0.966831
C15_5 C 0.72847(13) 0.67325(17) 0.8741(2)
C17_5 C 0.95006(16) 0.33575(19) 0.9651(3)
H11_5 H 0.949955 0.371035 0.963862
C20_5 C 0.75775(13) 0.59153(18) 0.9013(3)
C22_5 C 0.69042(14) 0.65720(17) 0.8610(2)
H13_5 H 0.685536 0.627896 0.880523
C23_5 C 0.95122(16) 0.23544(19) 0.9709(3)
H14_5 H 0.950617 0.200152 0.971238
C25_5 C 0.79605(15) 0.78100(19) 0.7480(3)
C26_5 C 0.79096(13) 0.66406(17) 0.9633(2)
C27_5 C 0.87293(14) 0.57125(18) 0.8787(2)
H16_5 H 0.849626 0.586942 0.876549
C28_5 C 0.82556(14) 0.74650(18) 0.7914(2)
C33_5 C 0.82455(13) 0.63569(17) 0.9919(2)
H19_5 H 0.825711 0.602638 0.977810
C34_5 C 0.85926(13) 0.71462(16) 0.8980(2)
H20_5 H 0.863347 0.715152 0.942406
O7_5 O 0.79186(12) 0.78366(16) 0.6904(2)
C40_5 C 0.93991(15) 0.57499(19) 0.8987(3)
H25_5 H 0.963279 0.593254 0.910371
C45_5 C 0.93187(16) 0.26095(19) 0.9157(3)
H29_5 H 0.918332 0.242377 0.878229
C48_5 C 0.84608(15) 0.71335(19) 0.7688(3)
H31_5 H 0.841675 0.712516 0.724311
C49_5 C 0.87298(15) 0.6812(2) 0.8098(2)
H32_5 H 0.886766 0.658762 0.793345
C52_5 C 0.75848(17) 0.55654(19) 0.9468(3)
H34_5 H 0.759442 0.566551 0.988028
C62_5 C 0.90684(16) 0.44396(18) 0.8503(2)
C63_5 C 0.90591(14) 0.49826(17) 0.8656(2)
O8_5 O 0.87604(10) 0.41892(12) 0.83415(19)
O9_5 O 0.93839(10) 0.42477(12) 0.85403(18)
C64_5 C 0.87283(14) 0.52155(18) 0.8631(2)
H43_5 H 0.849397 0.503354 0.850369
C65_5 C 0.93934(15) 0.52592(18) 0.8831(3)
H44_5 H 0.962522 0.510412 0.884307
C66_5 C 0.75540(15) 0.4916(2) 0.8707(3)
C67_5 C 0.75375(17) 0.4383(2) 0.8530(4)
O10_3 O 0.75750(17) 0.40583(16) 0.8941(3)
O11_3 O 0.74877(16) 0.42582(16) 0.7985(2)
C68_5 C 0.75452(17) 0.5267(2) 0.8261(3)
H45_5 H 0.752985 0.516565 0.784662
C69_5 C 0.75781(18) 0.5067(2) 0.9315(3)
H46_5 H 0.759002 0.482361 0.962868
C70_5 C 0.70450(14) 0.74352(18) 0.8050(3)
H47_5 H 0.709345 0.773269 0.786323
O13_3 O 0.63962(10) 0.79889(13) 0.7288(2)
C71_5 C 0.66667(13) 0.72816(17) 0.7918(2)
C72_5 C 0.66041(13) 0.68426(17) 0.8199(2)
H48_5 H 0.634782 0.672877 0.810372
C73_5 C 0.73487(14) 0.71613(19) 0.8446(2)
H49_5 H 0.760505 0.726566 0.852066
C74_5 C 0.63259(15) 0.75766(18) 0.7498(2)
Cd10_2 Cd 0.75856(2) 0.34348(2) 0.82121(2)
N8_3 N 0.70271(14) 0.79883(18) 0.5926(2)
O16_3 O 0.74250(17) 0.90583(16) 0.6059(3)
O17_3 O 0.75123(16) 0.92582(16) 0.7015(2)
O19_3 O 0.86038(10) 0.29889(13) 0.7712(2)
H51_5 H 0.679978 0.827161 0.719824
H52_5 H 0.669853 0.876846 0.675931
Cd3_4 Cd 0.25856(2) 0.84348(2) 0.82121(2)
O2_6 O 0.10453(9) 0.77149(12) 0.38660(15)
O3_6 O 0.08726(9) 0.69636(12) 0.34805(16)
N1_6 N 0.09270(11) 0.64894(13) 0.58309(19)
O4_6 O 0.30967(12) 0.85907(15) 0.7894(2)
C3_6 C 0.16752(13) 0.74691(17) 0.6437(2)
H2_6 H 0.181197 0.769540 0.627205
C4_6 C 0.14405(12) 0.70426(16) 0.4396(2)
N2_6 N 0.24085(11) 0.64357(14) 0.5851(2)
O5_6 O 0.22420(11) 0.80541(14) 0.72914(19)
C6_6 C 0.06781(13) 0.66393(17) 0.5214(2)
O6_6 O 0.10235(12) 0.38087(13) 0.78696(17)
H3_6 H 0.102898 0.357445 0.812696
H4_6 H 0.124318 0.394775 0.798586
C7_6 C 0.24415(16) 0.5774(2) 0.6591(3)
H5_6 H 0.244541 0.601736 0.690086
C8_6 C 0.12026(13) 0.68206(16) 0.6248(2)
N3_6 N 0.06901(12) 0.31089(14) 0.58848(19)
C9_6 C 0.06090(13) 0.71424(17) 0.5062(2)
H6_6 H 0.072597 0.738831 0.537639
C10_6 C 0.14414(14) 0.65554(17) 0.4597(2)
H7_6 H 0.122145 0.635324 0.439771
C11_6 C 0.01812(12) 0.69339(17) 0.3992(2)
C12_6 C 0.09336(14) 0.59807(17) 0.6026(2)
C13_6 C 0.04913(13) 0.62883(17) 0.4744(2)
H8_6 H 0.053827 0.594466 0.483614
C14_6 C 0.20954(13) 0.71192(17) 0.5153(2)
H9_6 H 0.232099 0.731571 0.533169
C15_6 C 0.27153(13) 0.67325(17) 0.6259(2)
C17_6 C 0.04994(16) 0.33575(19) 0.5349(3)
H11_6 H 0.050045 0.371035 0.536138
C18_6 C 0.17750(14) 0.73165(17) 0.4681(2)
H12_6 H 0.178404 0.764995 0.454847
C20_6 C 0.24225(13) 0.59153(18) 0.5987(3)
C21_6 C 0.11024(13) 0.72581(18) 0.3895(2)
C22_6 C 0.30958(14) 0.65720(17) 0.6390(2)
H13_6 H 0.314464 0.627896 0.619477
C23_6 C 0.04878(16) 0.23544(19) 0.5291(3)
H14_6 H 0.049383 0.200152 0.528762
C24_6 C 0.03703(12) 0.72831(17) 0.4453(2)
H15_6 H 0.033523 0.762639 0.434994
C25_6 C 0.20395(15) 0.78100(19) 0.7520(3)
C26_6 C 0.20904(13) 0.66406(17) 0.5367(2)
C27_6 C 0.12707(14) 0.57125(18) 0.6213(2)
H16_6 H 0.150374 0.586942 0.623451
C28_6 C 0.17444(14) 0.74650(18) 0.7086(2)
C29_6 C 0.01570(16) 0.1880(2) 0.4006(3)
H17_6 H 0.039050 0.173739 0.428440
C30_6 C 0.02816(14) 0.26147(19) 0.4731(3)
C32_6 C 0.02992(15) 0.31220(18) 0.4772(2)
H18_6 H 0.017270 0.331586 0.440117
C33_6 C 0.17545(13) 0.63569(17) 0.5081(2)
H19_6 H 0.174289 0.602638 0.522190
C34_6 C 0.14074(13) 0.71462(16) 0.6020(2)
H20_6 H 0.136653 0.715152 0.557594
H21_6 H 0.001756 0.131055 0.338200
C38_6 C 0.02404(13) 0.64325(17) 0.4150(2)
H23_6 H 0.010631 0.618757 0.384634
O7_6 O 0.20814(12) 0.78366(16) 0.8096(2)
C40_6 C 0.06009(15) 0.57499(19) 0.6013(3)
H25_6 H 0.036721 0.593254 0.589629
C45_6 C 0.06813(16) 0.26095(19) 0.5843(3)
H29_6 H 0.081668 0.242377 0.621771
C46_6 C 0.00464(15) 0.23468(18) 0.4143(2)
C48_6 C 0.15392(15) 0.71335(19) 0.7312(3)
H31_6 H 0.158325 0.712516 0.775689
C49_6 C 0.12702(15) 0.6812(2) 0.6902(2)
H32_6 H 0.113234 0.658762 0.706655
C52_6 C 0.24152(17) 0.55654(19) 0.5532(3)
H34_6 H 0.240558 0.566551 0.511972
C62_6 C 0.09316(16) 0.44396(18) 0.6497(2)
C63_6 C 0.09409(14) 0.49826(17) 0.6344(2)
O8_6 O 0.12396(10) 0.41892(12) 0.66585(19)
O9_6 O 0.06161(10) 0.42477(12) 0.64597(18)
C64_6 C 0.12717(14) 0.52155(18) 0.6369(2)
H43_6 H 0.150603 0.503354 0.649631
C65_6 C 0.06066(15) 0.52592(18) 0.6169(3)
H44_6 H 0.037478 0.510412 0.615693
C66_6 C 0.24460(15) 0.4916(2) 0.6293(3)
C67_6 C 0.24625(17) 0.4383(2) 0.6470(4)
O10_4 O 0.24250(17) 0.40583(16) 0.6059(3)
O11_4 O 0.25123(16) 0.42582(16) 0.7015(2)
C68_6 C 0.24548(17) 0.5267(2) 0.6739(3)
H45_6 H 0.247015 0.516565 0.715338
C69_6 C 0.24219(18) 0.5067(2) 0.5685(3)
H46_6 H 0.240998 0.482361 0.537132
C70_6 C 0.29550(14) 0.74352(18) 0.6950(3)
H47_6 H 0.290655 0.773269 0.713677
O13_4 O 0.36038(10) 0.79889(13) 0.7712(2)
C71_6 C 0.33333(13) 0.72816(17) 0.7082(2)
C72_6 C 0.33959(13) 0.68426(17) 0.6801(2)
H48_6 H 0.365218 0.672877 0.689628
C73_6 C 0.26513(14) 0.71613(19) 0.6554(2)
H49_6 H 0.239495 0.726566 0.647934
C74_6 C 0.36741(15) 0.75766(18) 0.7502(2)
N8_4 N 0.29729(14) 0.79883(18) 0.9074(2)
O16_4 O 0.25750(17) 0.90583(16) 0.8941(3)
O17_4 O 0.24877(16) 0.92582(16) 0.7985(2)
O19_4 O 0.13962(10) 0.29889(13) 0.7288(2)
H51_6 H 0.320022 0.827161 0.780176
H52_6 H 0.330147 0.876846 0.824069
C2_6 C 0.97043(16) 0.25409(18) 0.3722(3)
H1_6 H 0.962625 0.286309 0.379920
C5_6 C 0.99319(13) 0.70954(17) 0.3344(2)
N4_6 N 0.93483(14) 0.15515(15) 0.2522(2)
C16_6 C 0.94230(15) 0.03013(18) 0.1882(3)
H10_6 H 0.942612 0.015768 0.149611
C19_6 C 0.95846(15) 0.18160(18) 0.3062(3)
C31_6 C 0.93825(15) 0.10256(18) 0.2479(3)
C36_6 C 0.99331(17) 0.1625(2) 0.3473(3)
C37_6 C 0.94520(17) 0.02174(19) 0.2972(3)
H22_6 H 0.947617 0.001624 0.333279
C39_6 C 0.94756(15) 0.22808(19) 0.3198(2)
H24_6 H 0.923946 0.242122 0.292412
C41_6 C 0.92543(17) 0.2209(2) 0.1728(3)
H26_6 H 0.950926 0.232262 0.195225
C42_6 C 0.93880(16) 0.08063(19) 0.1920(3)
H27_6 H 0.936721 0.100839 0.156123
C43_6 C 0.91150(16) 0.1811(2) 0.1960(3)
C44_6 C 0.90282(18) 0.2447(2) 0.1172(3)
H28_6 H 0.913207 0.271927 0.101736
C50_6 C 0.84180(17) 0.2532(2) 0.0219(3)
C51_6 C 0.94150(17) 0.0725(2) 0.3007(3)
H33_6 H 0.941142 0.087144 0.339041
C53_6 C 0.86512(17) 0.2295(2) 0.0832(3)
C55_6 C 0.85107(18) 0.1903(3) 0.1095(3)
H36_6 H 0.825028 0.180283 0.089102
C56_6 C 0.8736(2) 0.1661(2) 0.1635(3)
H37_6 H 0.863316 0.138810 0.179038
H41_6 H 0.884344 0.285982 0.000324
H50_6 H 0.789287 0.227773 0.013902
N6_4 N 0.79729(14) 0.29883(18) 0.9074(2)
C59_6 C 0.8344(2) 0.3013(3) 0.9301(4)
H40_6 H 0.846577 0.318802 0.905675
C60_6 C 0.8573(2) 0.2810(3) 0.9859(4)
C61_6 C 0.7824(2) 0.2714(4) 0.9395(5)
H42_6 H 0.755251 0.267387 0.923199
C75_6 C 0.8025(2) 0.2482(4) 0.9939(5)
C1_6 C 0.94753(13) 0.94408(17) 0.2348(2)
C35_6 C 0.94543(15) 0.99945(18) 0.2402(3)
C47_6 C 0.93389(16) 0.92062(19) 0.1766(3)
H30_6 H 0.923112 0.939388 0.138331
C54_6 C 0.96307(17) 0.91425(19) 0.2895(3)
H35_6 H 0.973550 0.928979 0.330751
C57_6 C 0.96293(17) 0.86374(19) 0.2828(3)
H38_6 H 0.972835 0.844027 0.320340
C58_6 C 0.93593(16) 0.86965(19) 0.1740(3)
H39_6 H 0.927155 0.854233 0.133120
O1_4 O 0.50038(9) 0.25215(11) 0.18446(15)
O2_7 O 0.39547(9) 0.27149(12) 0.11340(15)
O3_7 O 0.41274(9) 0.19636(12) 0.15195(16)
C4_7 C 0.35595(12) 0.20426(16) 0.0604(2)
C5_7 C 0.50681(13) 0.20954(17) 0.1656(2)
C10_7 C 0.35586(14) 0.15554(17) 0.0403(2)
H7_7 H 0.377855 0.135324 0.060229
C11_7 C 0.48188(12) 0.19339(17) 0.1008(2)
C13_7 C 0.45087(13) 0.12883(17) 0.0256(2)
H8_7 H 0.446173 0.094466 0.016386
C18_7 C 0.32250(14) 0.23165(17) 0.0319(2)
H12_7 H 0.321596 0.264995 0.045153
C21_7 C 0.38976(13) 0.22581(18) 0.1105(2)
C24_7 C 0.46297(12) 0.22831(17) 0.0547(2)
H15_7 H 0.466477 0.262639 0.065006
C38_7 C 0.47596(13) 0.14325(17) 0.0850(2)
H23_7 H 0.489369 0.118757 0.115366
O15_4 O 0.49962(9) 0.25215(11) 0.31554(15)
N7_4 N 0.44957(11) 0.34046(14) 0.22589(19)
N1_7 N 0.40730(11) 0.14894(13) 0.91691(19)
O4_7 O 0.19033(12) 0.35907(15) 0.7106(2)
C3_7 C 0.33248(13) 0.24691(17) 0.8563(2)
H2_7 H 0.318803 0.269540 0.872795
N2_7 N 0.25915(11) 0.14357(14) 0.9149(2)
O5_7 O 0.27580(11) 0.30541(14) 0.77086(19)
C6_7 C 0.43219(13) 0.16393(17) 0.9786(2)
C7_7 C 0.25585(16) 0.0774(2) 0.8409(3)
H5_7 H 0.255459 0.101736 0.809914
C8_7 C 0.37974(13) 0.18206(16) 0.8752(2)
C9_7 C 0.43910(13) 0.21424(17) 0.9938(2)
H6_7 H 0.427403 0.238831 0.962361
C12_7 C 0.40664(14) 0.09807(17) 0.8974(2)
C14_7 C 0.29046(13) 0.21192(17) 0.9847(2)
H9_7 H 0.267901 0.231571 0.966831
C15_7 C 0.22847(13) 0.17325(17) 0.8741(2)
C20_7 C 0.25775(13) 0.09153(18) 0.9013(3)
C22_7 C 0.19042(14) 0.15720(17) 0.8610(2)
H13_7 H 0.185536 0.127896 0.880523
C25_7 C 0.29605(15) 0.28100(19) 0.7480(3)
C26_7 C 0.29096(13) 0.16406(17) 0.9633(2)
C27_7 C 0.37293(14) 0.07125(18) 0.8787(2)
H16_7 H 0.349626 0.086942 0.876549
C28_7 C 0.32556(14) 0.24650(18) 0.7914(2)
C33_7 C 0.32455(13) 0.13569(17) 0.9919(2)
H19_7 H 0.325711 0.102638 0.977810
C34_7 C 0.35926(13) 0.21462(16) 0.8980(2)
H20_7 H 0.363347 0.215152 0.942406
O7_7 O 0.29186(12) 0.28366(16) 0.6904(2)
C40_7 C 0.43991(15) 0.07499(19) 0.8987(3)
H25_7 H 0.463279 0.093254 0.910371
C48_7 C 0.34608(15) 0.21335(19) 0.7688(3)
H31_7 H 0.341675 0.212516 0.724311
C49_7 C 0.37298(15) 0.1812(2) 0.8098(2)
H32_7 H 0.386766 0.158762 0.793345
C52_7 C 0.25848(17) 0.05654(19) 0.9468(3)
H34_7 H 0.259442 0.066551 0.988028
C64_7 C 0.37283(14) 0.02155(18) 0.8631(2)
H43_7 H 0.349397 0.003354 0.850369
C65_7 C 0.43934(15) 0.02592(18) 0.8831(3)
H44_7 H 0.462522 0.010412 0.884307
C68_7 C 0.25452(17) 0.0267(2) 0.8261(3)
H45_7 H 0.252985 0.016565 0.784662
C69_7 C 0.25781(18) 0.0067(2) 0.9315(3)
C70_7 C 0.20450(14) 0.24352(18) 0.8050(3)
H47_7 H 0.209345 0.273269 0.786323
C71_7 C 0.16667(13) 0.22816(17) 0.7918(2)
C72_7 C 0.16041(13) 0.18426(17) 0.8199(2)
H48_7 H 0.134782 0.172877 0.810372
C73_7 C 0.23487(14) 0.21613(19) 0.8446(2)
H49_7 H 0.260505 0.226566 0.852066
C74_7 C 0.13259(15) 0.25766(18) 0.7498(2)
H51_7 H 0.179978 0.327161 0.719824
H52_7 H 0.169853 0.376846 0.675931
C1_7 C 0.55247(13) 0.44408(17) 0.2652(2)
C2_7 C 0.52957(16) 0.75409(18) 0.1278(3)
H1_7 H 0.537375 0.786309 0.120080
N4_7 N 0.56517(14) 0.65515(15) 0.2478(2)
C16_7 C 0.55770(15) 0.53013(18) 0.3118(3)
H10_7 H 0.557388 0.515768 0.350389
C19_7 C 0.54154(15) 0.68160(18) 0.1938(3)
C29_7 C 0.48430(16) 0.6880(2) 0.0994(3)
H17_7 H 0.460950 0.673739 0.071560
C30_7 C 0.47184(14) 0.76147(19) 0.0269(3)
C31_7 C 0.56175(15) 0.60256(18) 0.2521(3)
C32_7 C 0.47008(15) 0.81220(18) 0.0228(2)
H18_7 H 0.482730 0.831586 0.059883
C35_7 C 0.55457(15) 0.49945(18) 0.2598(3)
C36_7 C 0.50669(17) 0.6625(2) 0.1527(3)
H21_7 H 0.498244 0.631055 0.161800
C37_7 C 0.55480(17) 0.52174(19) 0.2028(3)
H22_7 H 0.552383 0.501624 0.166721
C39_7 C 0.55244(15) 0.72808(19) 0.1802(2)
H24_7 H 0.576054 0.742122 0.207588
C41_7 C 0.57457(17) 0.7209(2) 0.3272(3)
H26_7 H 0.549074 0.732262 0.304775
C42_7 C 0.56120(16) 0.58063(19) 0.3080(3)
H27_7 H 0.563279 0.600839 0.343877
C43_7 C 0.58850(16) 0.6811(2) 0.3040(3)
C44_7 C 0.59718(18) 0.7447(2) 0.3828(3)
H28_7 H 0.586793 0.771927 0.398264
C46_7 C 0.49536(15) 0.73468(18) 0.0857(2)
C47_7 C 0.56611(16) 0.42062(19) 0.3234(3)
H30_7 H 0.576888 0.439388 0.361669
C50_7 C 0.65820(17) 0.7532(2) 0.4781(3)
C51_7 C 0.55850(17) 0.5725(2) 0.1993(3)
H33_7 H 0.558858 0.587144 0.160959
C53_7 C 0.63488(17) 0.7295(2) 0.4168(3)
C54_7 C 0.53693(17) 0.41425(19) 0.2105(3)
H35_7 H 0.526450 0.428979 0.169249
C55_7 C 0.64893(18) 0.6903(3) 0.3905(3)
H36_7 H 0.674972 0.680283 0.410898
C56_7 C 0.6264(2) 0.6661(2) 0.3365(3)
H37_7 H 0.636684 0.638810 0.320962
N5_4 N 0.55043(11) 0.34046(14) 0.27411(19)
C57_7 C 0.53707(17) 0.36374(19) 0.2172(3)
H38_7 H 0.527165 0.344027 0.179660
C58_7 C 0.56407(16) 0.36965(19) 0.3260(3)
H39_7 H 0.572845 0.354233 0.366880
C59_7 C 0.6656(2) 0.8013(3) 0.5699(4)
H40_7 H 0.653423 0.818802 0.594325
C60_7 C 0.6427(2) 0.7810(3) 0.5141(4)
H41_7 H 0.615656 0.785982 0.499676
C61_7 C 0.7176(2) 0.7714(4) 0.5605(5)
H42_7 H 0.744749 0.767387 0.576801
H50_7 H 0.710713 0.727773 0.486098
C75_7 C 0.6975(2) 0.7482(4) 0.5061(5)
O6_7 O 0.39765(12) 0.88087(13) 0.71304(17)
H3_7 H 0.397102 0.857445 0.687304
H4_7 H 0.375682 0.894775 0.701414
N3_7 N 0.43099(12) 0.81089(14) 0.91152(19)
C17_7 C 0.45006(16) 0.83575(19) 0.9651(3)
H11_7 H 0.449955 0.871035 0.963862
C23_7 C 0.45122(16) 0.73544(19) 0.9709(3)
H14_7 H 0.450617 0.700152 0.971238
C45_7 C 0.43187(16) 0.76095(19) 0.9157(3)
H29_7 H 0.418332 0.742377 0.878229
C62_7 C 0.40684(16) 0.94396(18) 0.8503(2)
C63_7 C 0.40591(14) 0.99826(17) 0.8656(2)
O8_7 O 0.37604(10) 0.91892(12) 0.83415(19)
O9_7 O 0.43839(10) 0.92477(12) 0.85403(18)
C66_7 C 0.25540(15) 0.9916(2) 0.8707(3)
C67_7 C 0.25375(17) 0.9383(2) 0.8530(4)
H46_7 H 0.259002 0.982361 0.962868
O2_8 O 0.60453(9) 0.27149(12) 0.38660(15)
O3_8 O 0.58726(9) 0.19636(12) 0.34805(16)
N1_8 N 0.59270(11) 0.14894(13) 0.58309(19)
O4_8 O 0.80967(12) 0.35907(15) 0.7894(2)
C3_8 C 0.66752(13) 0.24691(17) 0.6437(2)
H2_8 H 0.681197 0.269540 0.627205
C4_8 C 0.64405(12) 0.20426(16) 0.4396(2)
N2_8 N 0.74085(11) 0.14357(14) 0.5851(2)
C5_8 C 0.49319(13) 0.20954(17) 0.3344(2)
O5_8 O 0.72420(11) 0.30541(14) 0.72914(19)
C6_8 C 0.56781(13) 0.16393(17) 0.5214(2)
C7_8 C 0.74415(16) 0.0774(2) 0.6591(3)
H5_8 H 0.744541 0.101736 0.690086
C8_8 C 0.62026(13) 0.18206(16) 0.6248(2)
C9_8 C 0.56090(13) 0.21424(17) 0.5062(2)
H6_8 H 0.572597 0.238831 0.537639
C10_8 C 0.64414(14) 0.15554(17) 0.4597(2)
H7_8 H 0.622145 0.135324 0.439771
C11_8 C 0.51812(12) 0.19339(17) 0.3992(2)
C12_8 C 0.59336(14) 0.09807(17) 0.6026(2)
C13_8 C 0.54913(13) 0.12883(17) 0.4744(2)
H8_8 H 0.553827 0.094466 0.483614
C14_8 C 0.70954(13) 0.21192(17) 0.5153(2)
H9_8 H 0.732099 0.231571 0.533169
C15_8 C 0.77153(13) 0.17325(17) 0.6259(2)
C18_8 C 0.67750(14) 0.23165(17) 0.4681(2)
H12_8 H 0.678404 0.264995 0.454847
C20_8 C 0.74225(13) 0.09153(18) 0.5987(3)
C21_8 C 0.61024(13) 0.22581(18) 0.3895(2)
C22_8 C 0.80958(14) 0.15720(17) 0.6390(2)
H13_8 H 0.814464 0.127896 0.619477
C24_8 C 0.53703(12) 0.22831(17) 0.4453(2)
H15_8 H 0.533523 0.262639 0.434994
C25_8 C 0.70395(15) 0.28100(19) 0.7520(3)
C26_8 C 0.70904(13) 0.16406(17) 0.5367(2)
C27_8 C 0.62707(14) 0.07125(18) 0.6213(2)
H16_8 H 0.650374 0.086942 0.623451
C28_8 C 0.67444(14) 0.24650(18) 0.7086(2)
C33_8 C 0.67545(13) 0.13569(17) 0.5081(2)
H19_8 H 0.674289 0.102638 0.522190
C34_8 C 0.64074(13) 0.21462(16) 0.6020(2)
H20_8 H 0.636653 0.215152 0.557594
C38_8 C 0.52404(13) 0.14325(17) 0.4150(2)
H23_8 H 0.510631 0.118757 0.384634
O7_8 O 0.70814(12) 0.28366(16) 0.8096(2)
C40_8 C 0.56009(15) 0.07499(19) 0.6013(3)
H25_8 H 0.536721 0.093254 0.589629
C48_8 C 0.65392(15) 0.21335(19) 0.7312(3)
H31_8 H 0.658325 0.212516 0.775689
C49_8 C 0.62702(15) 0.1812(2) 0.6902(2)
H32_8 H 0.613234 0.158762 0.706655
C52_8 C 0.74152(17) 0.05654(19) 0.5532(3)
H34_8 H 0.740558 0.066551 0.511972
C64_8 C 0.62717(14) 0.02155(18) 0.6369(2)
H43_8 H 0.650603 0.003354 0.649631
C65_8 C 0.56066(15) 0.02592(18) 0.6169(3)
H44_8 H 0.537478 0.010412 0.615693
C68_8 C 0.74548(17) 0.0267(2) 0.6739(3)
H45_8 H 0.747015 0.016565 0.715338
C69_8 C 0.74219(18) 0.0067(2) 0.5685(3)
C70_8 C 0.79550(14) 0.24352(18) 0.6950(3)
H47_8 H 0.790655 0.273269 0.713677
C71_8 C 0.83333(13) 0.22816(17) 0.7082(2)
C72_8 C 0.83959(13) 0.18426(17) 0.6801(2)
H48_8 H 0.865218 0.172877 0.689628
C73_8 C 0.76513(14) 0.21613(19) 0.6554(2)
H49_8 H 0.739495 0.226566 0.647934
C74_8 C 0.86741(15) 0.25766(18) 0.7502(2)
H51_8 H 0.820022 0.327161 0.780176
H52_8 H 0.830147 0.376846 0.824069
C1_8 C 0.44753(13) 0.44408(17) 0.2348(2)
C2_8 C 0.47043(16) 0.75409(18) 0.3722(3)
H1_8 H 0.462625 0.786309 0.379920
O6_8 O 0.60235(12) 0.88087(13) 0.78696(17)
H3_8 H 0.602898 0.857445 0.812696
H4_8 H 0.624318 0.894775 0.798586
N3_8 N 0.56901(12) 0.81089(14) 0.58848(19)
N4_8 N 0.43483(14) 0.65515(15) 0.2522(2)
C16_8 C 0.44230(15) 0.53013(18) 0.1882(3)
H10_8 H 0.442612 0.515768 0.149611
C17_8 C 0.54994(16) 0.83575(19) 0.5349(3)
H11_8 H 0.550045 0.871035 0.536138
C19_8 C 0.45846(15) 0.68160(18) 0.3062(3)
C23_8 C 0.54878(16) 0.73544(19) 0.5291(3)
H14_8 H 0.549383 0.700152 0.528762
C29_8 C 0.51570(16) 0.6880(2) 0.4006(3)
H17_8 H 0.539050 0.673739 0.428440
C30_8 C 0.52816(14) 0.76147(19) 0.4731(3)
C31_8 C 0.43825(15) 0.60256(18) 0.2479(3)
C32_8 C 0.52992(15) 0.81220(18) 0.4772(2)
H18_8 H 0.517270 0.831586 0.440117
C35_8 C 0.44543(15) 0.49945(18) 0.2402(3)
C36_8 C 0.49331(17) 0.6625(2) 0.3473(3)
H21_8 H 0.501756 0.631055 0.338200
C37_8 C 0.44520(17) 0.52174(19) 0.2972(3)
H22_8 H 0.447617 0.501624 0.333279
C39_8 C 0.44756(15) 0.72808(19) 0.3198(2)
H24_8 H 0.423946 0.742122 0.292412
C41_8 C 0.42543(17) 0.7209(2) 0.1728(3)
H26_8 H 0.450926 0.732262 0.195225
C42_8 C 0.43880(16) 0.58063(19) 0.1920(3)
H27_8 H 0.436721 0.600839 0.156123
C43_8 C 0.41150(16) 0.6811(2) 0.1960(3)
C44_8 C 0.40282(18) 0.7447(2) 0.1172(3)
H28_8 H 0.413207 0.771927 0.101736
C45_8 C 0.56813(16) 0.76095(19) 0.5843(3)
H29_8 H 0.581668 0.742377 0.621771
C46_8 C 0.50464(15) 0.73468(18) 0.4143(2)
C47_8 C 0.43389(16) 0.42062(19) 0.1766(3)
H30_8 H 0.423112 0.439388 0.138331
C50_8 C 0.34180(17) 0.7532(2) 0.0219(3)
C51_8 C 0.44150(17) 0.5725(2) 0.3007(3)
H33_8 H 0.441142 0.587144 0.339041
C53_8 C 0.36512(17) 0.7295(2) 0.0832(3)
C54_8 C 0.46307(17) 0.41425(19) 0.2895(3)
H35_8 H 0.473550 0.428979 0.330751
C55_8 C 0.35107(18) 0.6903(3) 0.1095(3)
H36_8 H 0.325028 0.680283 0.089102
C56_8 C 0.3736(2) 0.6661(2) 0.1635(3)
H37_8 H 0.363316 0.638810 0.179038
C57_8 C 0.46293(17) 0.36374(19) 0.2828(3)
H38_8 H 0.472835 0.344027 0.320340
C58_8 C 0.43593(16) 0.36965(19) 0.1740(3)
H39_8 H 0.427155 0.354233 0.133120
H41_8 H 0.384344 0.785982 0.000324
C62_8 C 0.59316(16) 0.94396(18) 0.6497(2)
C63_8 C 0.59409(14) 0.99826(17) 0.6344(2)
O8_8 O 0.62396(10) 0.91892(12) 0.66585(19)
O9_8 O 0.56161(10) 0.92477(12) 0.64597(18)
C66_8 C 0.74460(15) 0.9916(2) 0.6293(3)
C67_8 C 0.74625(17) 0.9383(2) 0.6470(4)
H46_8 H 0.740998 0.982361 0.537132
H50_8 H 0.289287 0.727773 0.013902
C59_8 C 0.3344(2) 0.8013(3) 0.9301(4)
H40_8 H 0.346577 0.818802 0.905675
C60_8 C 0.3573(2) 0.7810(3) 0.9859(4)
C61_8 C 0.2824(2) 0.7714(4) 0.9395(5)
H42_8 H 0.255251 0.767387 0.923199
C75_8 C 0.3025(2) 0.7482(4) 0.9939(5)
loop_
_geom_bond_atom_site_label_1
_geom_bond_atom_site_label_2
_geom_bond_site_symmetry_1
_geom_bond_site_symmetry_2
Cd1 O6 1_555 1_555
Cd3 O4 1_555 1_555
N1 C6 1_555 1_555
C3 H2 1_555 1_555
N2 C15 1_555 1_555
O5 Cd3 1_555 1_555
C6 C9 1_555 1_555
O6 H3 1_555 1_555
H4 O6 1_555 1_555
C7 H5 1_555 1_555
C8 N1 1_555 1_555
N3 Cd1 1_555 1_555
C9 H6 1_555 1_555
C12 N1 1_555 1_555
C14 H9 1_555 1_555
C15 C22 1_555 1_555
C17 N3 1_555 1_555
H11 C17 1_555 1_555
C20 N2 1_555 1_555
C22 H13 1_555 1_555
C23 H14 1_555 1_555
C25 O5 1_555 1_555
C26 N2 1_555 1_555
C27 C12 1_555 1_555
H16 C27 1_555 1_555
C28 C3 1_555 1_555
H19 C33 1_555 1_555
C34 C3 1_555 1_555
H20 C34 1_555 1_555
O7 Cd3 1_555 1_555
C40 C12 1_555 1_555
H25 C40 1_555 1_555
C45 N3 1_555 1_555
H29 C45 1_555 1_555
C48 C28 1_555 1_555
H31 C48 1_555 1_555
C49 C8 1_555 1_555
H32 C49 1_555 1_555
C52 C20 1_555 1_555
H34 C52 1_555 1_555
C62 C63 1_555 1_555
C63 C64 1_555 1_555
O8 Cd1 1_555 1_555
O9 Cd1 1_555 1_555
C64 C27 1_555 1_555
H43 C64 1_555 1_555
C65 C40 1_555 1_555
H44 C65 1_555 1_555
C66 C67 1_555 1_555
C67 O10 1_555 1_555
O10 Cd10 1_555 1_555
O11 C67 1_555 1_555
C68 C7 1_555 1_555
H45 C68 1_555 1_555
C69 C52 1_555 1_555
H46 C69 1_555 1_555
C70 H47 1_555 1_555
O12 C74 1_555 1_555
O13 C74 1_555 1_555
C71 C70 1_555 1_555
C72 C22 1_555 1_555
H48 C72 1_555 1_555
C73 C15 1_555 1_555
H49 C73 1_555 1_555
C74 C71 1_555 1_555
Cd4 O13 1_555 1_555
Cd8 O12 1_555 1_555
Cd10 O11 1_555 1_555
N8 Cd3 1_555 1_555
O16 Cd3 1_555 1_555
O17 Cd3 1_555 1_555
O19 Cd1 1_555 1_555
O21 Cd1 1_555 1_555
C7 C20 1_555 1_555
C8 C34 1_555 1_555
C14 C26 1_555 1_555
C23 C45 1_555 1_555
C25 C28 1_555 1_555
C25 O7 1_555 1_555
C26 C33 1_555 1_555
C48 C49 1_555 1_555
C62 O8 1_555 1_555
C62 O9 1_555 1_555
C63 C65 1_555 1_555
C66 C68 1_555 1_555
C66 C69 1_555 1_555
C70 C73 1_555 1_555
C71 C72 1_555 1_555
O4 H51 1_555 1_555
O4 H52 1_555 1_555
O2 Cd2 1_555 1_555
O3 Cd2 1_555 1_555
C4 C10 1_555 1_555
C10 H7 1_555 1_555
C11 C24 1_555 1_555
H8 C13 1_555 1_555
C18 C4 1_555 1_555
H12 C18 1_555 1_555
C21 O2 1_555 1_555
H15 C24 1_555 1_555
C29 H17 1_555 1_555
H18 C32 1_555 1_555
C38 C11 1_555 1_555
H23 C38 1_555 1_555
O15 Cd2 1_555 1_555
N7 Cd2 1_555 1_555
O18 Cd2 1_555 1_555
O20 Cd2 1_555 1_555
O3 C21 1_555 1_555
C4 C21 1_555 1_555
C13 C38 1_555 1_555
C29 C46 1_555 1_555
C30 C32 1_555 1_555
C30 C46 1_555 1_555
C1 C35 1_555 1_555
C47 C1 1_555 1_555
H30 C47 1_555 1_555
C54 C1 1_555 1_555
H35 C54 1_555 1_555
N5 C57 1_555 1_555
C57 C54 1_555 1_555
H38 C57 1_555 1_555
C58 C47 1_555 1_555
H39 C58 1_555 1_555
Cd7 N5 1_555 1_555
N5 C58 1_555 1_555
O1 C5 1_555 1_555
C2 H1 1_555 1_555
N4 C19 1_555 1_555
C16 H10 1_555 1_555
C19 C36 1_555 1_555
C31 N4 1_555 1_555
H22 C37 1_555 1_555
C39 C2 1_555 1_555
H24 C39 1_555 1_555
C41 H26 1_555 1_555
C42 C16 1_555 1_555
H27 C42 1_555 1_555
C43 N4 1_555 1_555
C44 C41 1_555 1_555
H28 C44 1_555 1_555
C50 C53 1_555 1_555
C51 C31 1_555 1_555
H33 C51 1_555 1_555
C53 C44 1_555 1_555
C55 C53 1_555 1_555
H36 C55 1_555 1_555
C56 C43 1_555 1_555
H37 C56 1_555 1_555
N6 C59 1_555 1_555
C59 H40 1_555 1_555
C60 C50 1_555 1_555
H41 C60 1_555 1_555
C61 N6 1_555 1_555
H42 C61 1_555 1_555
O14 C5 1_555 1_555
H50 C75 1_555 1_555
C75 C50 1_555 1_555
Cd5 O14 1_555 1_555
Cd7 O1 1_555 1_555
Cd9 N6 1_555 1_555
C19 C39 1_555 1_555
C31 C42 1_555 1_555
C37 C51 1_555 1_555
C41 C43 1_555 1_555
C55 C56 1_555 1_555
C59 C60 1_555 1_555
C61 C75 1_555 1_555
O14 Cd7 1_555 1_555
C1_2 C35_2 1_555 1_555
C47_2 C1_2 1_555 1_555
H30_2 C47_2 1_555 1_555
C54_2 C1_2 1_555 1_555
H35_2 C54_2 1_555 1_555
N7 C57_2 1_555 1_555
C57_2 C54_2 1_555 1_555
H38_2 C57_2 1_555 1_555
C58_2 C47_2 1_555 1_555
H39_2 C58_2 1_555 1_555
N7 C58_2 1_555 1_555
N6_2 C59_2 1_555 1_555
C59_2 H40_2 1_555 1_555
C61_2 N6_2 1_555 1_555
H42_2 C61_2 1_555 1_555
Cd10 N6_2 1_555 1_555
C59_2 C60_2 1_555 1_555
C61_2 C75_2 1_555 1_555
O15 C5_2 1_555 1_555
C2_2 H1_2 1_555 1_555
N4_2 C19_2 1_555 1_555
C16_2 H10_2 1_555 1_555
C19_2 C36_2 1_555 1_555
C31_2 N4_2 1_555 1_555
H22_2 C37_2 1_555 1_555
C39_2 C2_2 1_555 1_555
H24_2 C39_2 1_555 1_555
C41_2 H26_2 1_555 1_555
C42_2 C16_2 1_555 1_555
H27_2 C42_2 1_555 1_555
C43_2 N4_2 1_555 1_555
C44_2 C41_2 1_555 1_555
H28_2 C44_2 1_555 1_555
C50_2 C53_2 1_555 1_555
C51_2 C31_2 1_555 1_555
H33_2 C51_2 1_555 1_555
C53_2 C44_2 1_555 1_555
C55_2 C53_2 1_555 1_555
H36_2 C55_2 1_555 1_555
C56_2 C43_2 1_555 1_555
H37_2 C56_2 1_555 1_555
O20 C5_2 1_555 1_555
Cd5_2 O20 1_555 1_555
C19_2 C39_2 1_555 1_555
C31_2 C42_2 1_555 1_555
C37_2 C51_2 1_555 1_555
C41_2 C43_2 1_555 1_555
C55_2 C56_2 1_555 1_555
Cd1_2 O6_2 1_555 1_555
Cd3_2 O4_2 1_555 1_555
O2_2 Cd7 1_555 1_555
O3_2 Cd7 1_555 1_555
N1_2 C6_2 1_555 1_555
C3_2 H2_2 1_555 1_555
C4_2 C10_2 1_555 1_555
N2_2 C15_2 1_555 1_555
O5_2 Cd3_2 1_555 1_555
C6_2 C9_2 1_555 1_555
O6_2 H3_2 1_555 1_555
H4_2 O6_2 1_555 1_555
C7_2 H5_2 1_555 1_555
C8_2 N1_2 1_555 1_555
N3_2 Cd1_2 1_555 1_555
C9_2 H6_2 1_555 1_555
C10_2 H7_2 1_555 1_555
C11_2 C24_2 1_555 1_555
C12_2 N1_2 1_555 1_555
C13_2 C6_2 1_555 1_555
H8_2 C13_2 1_555 1_555
C14_2 H9_2 1_555 1_555
C15_2 C22_2 1_555 1_555
C17_2 N3_2 1_555 1_555
H11_2 C17_2 1_555 1_555
C18_2 C4_2 1_555 1_555
H12_2 C18_2 1_555 1_555
C20_2 N2_2 1_555 1_555
C21_2 O2_2 1_555 1_555
C22_2 H13_2 1_555 1_555
C23_2 H14_2 1_555 1_555
C24_2 C9_2 1_555 1_555
H15_2 C24_2 1_555 1_555
C25_2 O5_2 1_555 1_555
C26_2 N2_2 1_555 1_555
C27_2 C12_2 1_555 1_555
H16_2 C27_2 1_555 1_555
C28_2 C3_2 1_555 1_555
C29_2 H17_2 1_555 1_555
C30_2 C23_2 1_555 1_555
C32_2 C17_2 1_555 1_555
H18_2 C32_2 1_555 1_555
C33_2 C10_2 1_555 1_555
H19_2 C33_2 1_555 1_555
C34_2 C3_2 1_555 1_555
H20_2 C34_2 1_555 1_555
C38_2 C11_2 1_555 1_555
H23_2 C38_2 1_555 1_555
O7_2 Cd3_2 1_555 1_555
C40_2 C12_2 1_555 1_555
H25_2 C40_2 1_555 1_555
C45_2 N3_2 1_555 1_555
H29_2 C45_2 1_555 1_555
C48_2 C28_2 1_555 1_555
H31_2 C48_2 1_555 1_555
C49_2 C8_2 1_555 1_555
H32_2 C49_2 1_555 1_555
C52_2 C20_2 1_555 1_555
H34_2 C52_2 1_555 1_555
C62_2 C63_2 1_555 1_555
C63_2 C64_2 1_555 1_555
O8_2 Cd1_2 1_555 1_555
O9_2 Cd1_2 1_555 1_555
C64_2 C27_2 1_555 1_555
H43_2 C64_2 1_555 1_555
C65_2 C40_2 1_555 1_555
H44_2 C65_2 1_555 1_555
C66_2 C67_2 1_555 1_555
C67_2 O10_2 1_555 1_555
O10_2 Cd9 1_555 1_555
O11_2 C67_2 1_555 1_555
C68_2 C7_2 1_555 1_555
H45_2 C68_2 1_555 1_555
C69_2 C52_2 1_555 1_555
H46_2 C69_2 1_555 1_555
C70_2 H47_2 1_555 1_555
O12_2 C74_2 1_555 1_555
O13_2 C74_2 1_555 1_555
C71_2 C70_2 1_555 1_555
C72_2 C22_2 1_555 1_555
H48_2 C72_2 1_555 1_555
C73_2 C15_2 1_555 1_555
H49_2 C73_2 1_555 1_555
C74_2 C71_2 1_555 1_555
Cd4_2 O13_2 1_555 1_555
Cd8_2 O12_2 1_555 1_555
Cd9 O11_2 1_555 1_555
N8_2 Cd3_2 1_555 1_555
O16_2 Cd3_2 1_555 1_555
O17_2 Cd3_2 1_555 1_555
O18_2 Cd7 1_555 1_555
O19_2 Cd1_2 1_555 1_555
O21_2 Cd1_2 1_555 1_555
O3_2 C21_2 1_555 1_555
C4_2 C21_2 1_555 1_555
C7_2 C20_2 1_555 1_555
C8_2 C34_2 1_555 1_555
C13_2 C38_2 1_555 1_555
C14_2 C18_2 1_555 1_555
C14_2 C26_2 1_555 1_555
C23_2 C45_2 1_555 1_555
C25_2 C28_2 1_555 1_555
C25_2 O7_2 1_555 1_555
C26_2 C33_2 1_555 1_555
C29_2 C46_2 1_555 1_555
C30_2 C32_2 1_555 1_555
C30_2 C46_2 1_555 1_555
C48_2 C49_2 1_555 1_555
C62_2 O8_2 1_555 1_555
C62_2 O9_2 1_555 1_555
C63_2 C65_2 1_555 1_555
C66_2 C68_2 1_555 1_555
C66_2 C69_2 1_555 1_555
C70_2 C73_2 1_555 1_555
C71_2 C72_2 1_555 1_555
O4_2 H51_2 1_555 1_555
O4_2 H52_2 1_555 1_555
Cd4_2 O6_3 1_555 1_555
O6_3 H3_3 1_555 1_555
H4_3 O6_3 1_555 1_555
N3_3 Cd4_2 1_555 1_555
C17_3 N3_3 1_555 1_555
H11_3 C17_3 1_555 1_555
C23_3 H14_3 1_555 1_555
C45_3 N3_3 1_555 1_555
H29_3 C45_3 1_555 1_555
C62_3 C63_3 1_555 1_555
O8_3 Cd4_2 1_555 1_555
O9_3 Cd4_2 1_555 1_555
C66_3 C67_3 1_555 1_555
C67_3 O16_2 1_555 1_555
O17_2 C67_3 1_555 1_555
O21_3 Cd4_2 1_555 1_555
C23_3 C45_3 1_555 1_555
C62_3 O8_3 1_555 1_555
C62_3 O9_3 1_555 1_555
C1_3 C35_3 1_555 1_555
C2_3 H1_3 1_555 1_555
N4_3 C19_3 1_555 1_555
C16_3 H10_3 1_555 1_555
C19_3 C36_3 1_555 1_555
C29_3 H17_3 1_555 1_555
C31_3 N4_3 1_555 1_555
H18_3 C32_3 1_555 1_555
C35_3 C16_3 1_555 1_555
C36_3 C29_3 1_555 1_555
H21_3 C36_3 1_555 1_555
C37_3 C35_3 1_555 1_555
H22_3 C37_3 1_555 1_555
C39_3 C2_3 1_555 1_555
H24_3 C39_3 1_555 1_555
C41_3 H26_3 1_555 1_555
C42_3 C16_3 1_555 1_555
H27_3 C42_3 1_555 1_555
C43_3 N4_3 1_555 1_555
C44_3 C41_3 1_555 1_555
H28_3 C44_3 1_555 1_555
C46_3 C2_3 1_555 1_555
C47_3 C1_3 1_555 1_555
H30_3 C47_3 1_555 1_555
C50_3 C53_3 1_555 1_555
C51_3 C31_3 1_555 1_555
H33_3 C51_3 1_555 1_555
C53_3 C44_3 1_555 1_555
C54_3 C1_3 1_555 1_555
H35_3 C54_3 1_555 1_555
C55_3 C53_3 1_555 1_555
H36_3 C55_3 1_555 1_555
C56_3 C43_3 1_555 1_555
H37_3 C56_3 1_555 1_555
N5_2 C57_3 1_555 1_555
C57_3 C54_3 1_555 1_555
H38_3 C57_3 1_555 1_555
C58_3 C47_3 1_555 1_555
H39_3 C58_3 1_555 1_555
N8 C59_3 1_555 1_555
C59_3 H40_3 1_555 1_555
C60_3 C50_3 1_555 1_555
H41_3 C60_3 1_555 1_555
C61_3 N8 1_555 1_555
H42_3 C61_3 1_555 1_555
H50_3 C75_3 1_555 1_555
C75_3 C50_3 1_555 1_555
Cd7_2 N5_2 1_555 1_555
C19_3 C39_3 1_555 1_555
C29_3 C46_3 1_555 1_555
C30_3 C32_3 1_555 1_555
C30_3 C46_3 1_555 1_555
C31_3 C42_3 1_555 1_555
C37_3 C51_3 1_555 1_555
C41_3 C43_3 1_555 1_555
C55_3 C56_3 1_555 1_555
N5_2 C58_3 1_555 1_555
C59_3 C60_3 1_555 1_555
C61_3 C75_3 1_555 1_555
Cd9 O4_3 1_555 1_555
N1_3 C6_3 1_555 1_555
C3_3 H2_3 1_555 1_555
N2_3 C15_3 1_555 1_555
O5_3 Cd9 1_555 1_555
C6_3 C9_3 1_555 1_555
C7_3 H5_3 1_555 1_555
C8_3 N1_3 1_555 1_555
C9_3 H6_3 1_555 1_555
C12_3 N1_3 1_555 1_555
C14_3 H9_3 1_555 1_555
C15_3 C22_3 1_555 1_555
C20_3 N2_3 1_555 1_555
C22_3 H13_3 1_555 1_555
C25_3 O5_3 1_555 1_555
C26_3 N2_3 1_555 1_555
C27_3 C12_3 1_555 1_555
H16_3 C27_3 1_555 1_555
C28_3 C3_3 1_555 1_555
H19_3 C33_3 1_555 1_555
C34_3 C3_3 1_555 1_555
H20_3 C34_3 1_555 1_555
O7_3 Cd9 1_555 1_555
C40_3 C12_3 1_555 1_555
H25_3 C40_3 1_555 1_555
C48_3 C28_3 1_555 1_555
H31_3 C48_3 1_555 1_555
C49_3 C8_3 1_555 1_555
H32_3 C49_3 1_555 1_555
C52_3 C20_3 1_555 1_555
H34_3 C52_3 1_555 1_555
C64_3 C27_3 1_555 1_555
H43_3 C64_3 1_555 1_555
C65_3 C40_3 1_555 1_555
H44_3 C65_3 1_555 1_555
C68_3 C7_3 1_555 1_555
H45_3 C68_3 1_555 1_555
C69_3 C52_3 1_555 1_555
C70_3 H47_3 1_555 1_555
O12_3 C74_3 1_555 1_555
O19_2 C74_3 1_555 1_555
C71_3 C70_3 1_555 1_555
C72_3 C22_3 1_555 1_555
H48_3 C72_3 1_555 1_555
C73_3 C15_3 1_555 1_555
H49_3 C73_3 1_555 1_555
C74_3 C71_3 1_555 1_555
Cd8_3 O12_3 1_555 1_555
C7_3 C20_3 1_555 1_555
C8_3 C34_3 1_555 1_555
C14_3 C26_3 1_555 1_555
C25_3 C28_3 1_555 1_555
C25_3 O7_3 1_555 1_555
C26_3 C33_3 1_555 1_555
C48_3 C49_3 1_555 1_555
C70_3 C73_3 1_555 1_555
C71_3 C72_3 1_555 1_555
O4_3 H51_3 1_555 1_555
O4_3 H52_3 1_555 1_555
Cd2_2 O1_2 1_555 1_555
O1_2 C5_3 1_555 1_555
O2_3 Cd2_2 1_555 1_555
O3_3 Cd2_2 1_555 1_555
C4_3 C10_3 1_555 1_555
C5_3 C11_3 1_555 1_555
C10_3 H7_3 1_555 1_555
C11_3 C24_3 1_555 1_555
H8_3 C13_3 1_555 1_555
C18_3 C4_3 1_555 1_555
H12_3 C18_3 1_555 1_555
C21_3 O2_3 1_555 1_555
H15_3 C24_3 1_555 1_555
C38_3 C11_3 1_555 1_555
H23_3 C38_3 1_555 1_555
O14_2 C5_3 1_555 1_555
Cd5_3 O14_2 1_555 1_555
Cd7_2 O1_2 1_555 1_555
O15_2 Cd2_2 1_555 1_555
N7_2 Cd2_2 1_555 1_555
O18_3 Cd2_2 1_555 1_555
O20_2 Cd2_2 1_555 1_555
O3_3 C21_3 1_555 1_555
C4_3 C21_3 1_555 1_555
C13_3 C38_3 1_555 1_555
O14_2 Cd7_2 1_555 1_555
Cd7_2 O15_2 1_555 1_555
N8_2 C59_4 1_555 1_555
C59_4 H40_4 1_555 1_555
C61_4 N8_2 1_555 1_555
H42_4 C61_4 1_555 1_555
C59_4 C60_4 1_555 1_555
C61_4 C75_4 1_555 1_555
Cd4 O6_4 1_555 1_555
C1_4 C35_4 1_555 1_555
C2_4 H1_4 1_555 1_555
O6_4 H3_4 1_555 1_555
H4_4 O6_4 1_555 1_555
N3_4 Cd4 1_555 1_555
N4_4 C19_4 1_555 1_555
C16_4 H10_4 1_555 1_555
C17_4 N3_4 1_555 1_555
H11_4 C17_4 1_555 1_555
C19_4 C36_4 1_555 1_555
C23_4 H14_4 1_555 1_555
C29_4 H17_4 1_555 1_555
C30_4 C23_4 1_555 1_555
C31_4 N4_4 1_555 1_555
C32_4 C17_4 1_555 1_555
H18_4 C32_4 1_555 1_555
C35_4 C16_4 1_555 1_555
C36_4 C29_4 1_555 1_555
H21_4 C36_4 1_555 1_555
C37_4 C35_4 1_555 1_555
H22_4 C37_4 1_555 1_555
C39_4 C2_4 1_555 1_555
H24_4 C39_4 1_555 1_555
C41_4 H26_4 1_555 1_555
C42_4 C16_4 1_555 1_555
H27_4 C42_4 1_555 1_555
C43_4 N4_4 1_555 1_555
C44_4 C41_4 1_555 1_555
H28_4 C44_4 1_555 1_555
C45_4 N3_4 1_555 1_555
H29_4 C45_4 1_555 1_555
C46_4 C2_4 1_555 1_555
C47_4 C1_4 1_555 1_555
H30_4 C47_4 1_555 1_555
C50_4 C53_4 1_555 1_555
C51_4 C31_4 1_555 1_555
H33_4 C51_4 1_555 1_555
C53_4 C44_4 1_555 1_555
C54_4 C1_4 1_555 1_555
H35_4 C54_4 1_555 1_555
C55_4 C53_4 1_555 1_555
H36_4 C55_4 1_555 1_555
C56_4 C43_4 1_555 1_555
H37_4 C56_4 1_555 1_555
N7_2 C57_4 1_555 1_555
C57_4 C54_4 1_555 1_555
H38_4 C57_4 1_555 1_555
C58_4 C47_4 1_555 1_555
H39_4 C58_4 1_555 1_555
C62_4 C63_4 1_555 1_555
O8_4 Cd4 1_555 1_555
O9_4 Cd4 1_555 1_555
C66_4 C67_4 1_555 1_555
C67_4 O16 1_555 1_555
O17 C67_4 1_555 1_555
O21_4 Cd4 1_555 1_555
C19_4 C39_4 1_555 1_555
C23_4 C45_4 1_555 1_555
C29_4 C46_4 1_555 1_555
C30_4 C32_4 1_555 1_555
C30_4 C46_4 1_555 1_555
C31_4 C42_4 1_555 1_555
C37_4 C51_4 1_555 1_555
C41_4 C43_4 1_555 1_555
C55_4 C56_4 1_555 1_555
N7_2 C58_4 1_555 1_555
C62_4 O8_4 1_555 1_555
C62_4 O9_4 1_555 1_555
Cd10 O4_4 1_555 1_555
O15_2 C5_4 1_555 1_555
O2_4 Cd7_2 1_555 1_555
O3_4 Cd7_2 1_555 1_555
N1_4 C6_4 1_555 1_555
C3_4 H2_4 1_555 1_555
C4_4 C10_4 1_555 1_555
N2_4 C15_4 1_555 1_555
C5_4 C11_4 1_555 1_555
O5_4 Cd10 1_555 1_555
C6_4 C9_4 1_555 1_555
C7_4 H5_4 1_555 1_555
C8_4 N1_4 1_555 1_555
C9_4 H6_4 1_555 1_555
C10_4 H7_4 1_555 1_555
C11_4 C24_4 1_555 1_555
C12_4 N1_4 1_555 1_555
C13_4 C6_4 1_555 1_555
H8_4 C13_4 1_555 1_555
C14_4 H9_4 1_555 1_555
C15_4 C22_4 1_555 1_555
C18_4 C4_4 1_555 1_555
H12_4 C18_4 1_555 1_555
C20_4 N2_4 1_555 1_555
C21_4 O2_4 1_555 1_555
C22_4 H13_4 1_555 1_555
C24_4 C9_4 1_555 1_555
H15_4 C24_4 1_555 1_555
C25_4 O5_4 1_555 1_555
C26_4 N2_4 1_555 1_555
C27_4 C12_4 1_555 1_555
H16_4 C27_4 1_555 1_555
C28_4 C3_4 1_555 1_555
C33_4 C10_4 1_555 1_555
H19_4 C33_4 1_555 1_555
C34_4 C3_4 1_555 1_555
H20_4 C34_4 1_555 1_555
C38_4 C11_4 1_555 1_555
H23_4 C38_4 1_555 1_555
O7_4 Cd10 1_555 1_555
C40_4 C12_4 1_555 1_555
H25_4 C40_4 1_555 1_555
C48_4 C28_4 1_555 1_555
H31_4 C48_4 1_555 1_555
C49_4 C8_4 1_555 1_555
H32_4 C49_4 1_555 1_555
C52_4 C20_4 1_555 1_555
H34_4 C52_4 1_555 1_555
C64_4 C27_4 1_555 1_555
H43_4 C64_4 1_555 1_555
C65_4 C40_4 1_555 1_555
H44_4 C65_4 1_555 1_555
C68_4 C7_4 1_555 1_555
H45_4 C68_4 1_555 1_555
C69_4 C52_4 1_555 1_555
C70_4 H47_4 1_555 1_555
O12_4 C74_4 1_555 1_555
O19 C74_4 1_555 1_555
C71_4 C70_4 1_555 1_555
C72_4 C22_4 1_555 1_555
H48_4 C72_4 1_555 1_555
C73_4 C15_4 1_555 1_555
H49_4 C73_4 1_555 1_555
C74_4 C71_4 1_555 1_555
O20_2 C5_4 1_555 1_555
Cd5_4 O20_2 1_555 1_555
Cd8_4 O12_4 1_555 1_555
O18_4 Cd7_2 1_555 1_555
O3_4 C21_4 1_555 1_555
C4_4 C21_4 1_555 1_555
C7_4 C20_4 1_555 1_555
C8_4 C34_4 1_555 1_555
C13_4 C38_4 1_555 1_555
C14_4 C18_4 1_555 1_555
C14_4 C26_4 1_555 1_555
C25_4 C28_4 1_555 1_555
C25_4 O7_4 1_555 1_555
C26_4 C33_4 1_555 1_555
C48_4 C49_4 1_555 1_555
C70_4 C73_4 1_555 1_555
C71_4 C72_4 1_555 1_555
O4_4 H51_4 1_555 1_555
O4_4 H52_4 1_555 1_555
O1_3 C5_5 1_555 1_555
C2_5 H1_5 1_555 1_555
N4_5 C19_5 1_555 1_555
C16_5 H10_5 1_555 1_555
C19_5 C36_5 1_555 1_555
C31_5 N4_5 1_555 1_555
H22_5 C37_5 1_555 1_555
C39_5 C2_5 1_555 1_555
H24_5 C39_5 1_555 1_555
C41_5 H26_5 1_555 1_555
C42_5 C16_5 1_555 1_555
H27_5 C42_5 1_555 1_555
C43_5 N4_5 1_555 1_555
C44_5 C41_5 1_555 1_555
H28_5 C44_5 1_555 1_555
C50_5 C53_5 1_555 1_555
C51_5 C31_5 1_555 1_555
H33_5 C51_5 1_555 1_555
C53_5 C44_5 1_555 1_555
C55_5 C53_5 1_555 1_555
H36_5 C55_5 1_555 1_555
C56_5 C43_5 1_555 1_555
H37_5 C56_5 1_555 1_555
N6_3 C59_5 1_555 1_555
C59_5 H40_5 1_555 1_555
C60_5 C50_5 1_555 1_555
H41_5 C60_5 1_555 1_555
C61_5 N6_3 1_555 1_555
H42_5 C61_5 1_555 1_555
O21 C5_5 1_555 1_555
H50_5 C75_5 1_555 1_555
C75_5 C50_5 1_555 1_555
Cd8_4 O1_3 1_555 1_555
Cd9_2 N6_3 1_555 1_555
C19_5 C39_5 1_555 1_555
C31_5 C42_5 1_555 1_555
C37_5 C51_5 1_555 1_555
C41_5 C43_5 1_555 1_555
C55_5 C56_5 1_555 1_555
C59_5 C60_5 1_555 1_555
C61_5 C75_5 1_555 1_555
O21 Cd8_4 1_555 1_555
C1_5 C35_5 1_555 1_555
C47_5 C1_5 1_555 1_555
H30_5 C47_5 1_555 1_555
C54_5 C1_5 1_555 1_555
H35_5 C54_5 1_555 1_555
N5_3 C57_5 1_555 1_555
C57_5 C54_5 1_555 1_555
H38_5 C57_5 1_555 1_555
C58_5 C47_5 1_555 1_555
H39_5 C58_5 1_555 1_555
Cd8_4 N5_3 1_555 1_555
N5_3 C58_5 1_555 1_555
O2_5 Cd8_3 1_555 1_555
O3_5 Cd8_3 1_555 1_555
C4_5 C10_5 1_555 1_555
C10_5 H7_5 1_555 1_555
C11_5 C24_5 1_555 1_555
H8_5 C13_5 1_555 1_555
C18_5 C4_5 1_555 1_555
H12_5 C18_5 1_555 1_555
C21_5 O2_5 1_555 1_555
H15_5 C24_5 1_555 1_555
C29_5 H17_5 1_555 1_555
H18_5 C32_5 1_555 1_555
C38_5 C11_5 1_555 1_555
H23_5 C38_5 1_555 1_555
O15_3 Cd8_3 1_555 1_555
N7_3 Cd8_3 1_555 1_555
O21_2 Cd8_3 1_555 1_555
O3_5 C21_5 1_555 1_555
C4_5 C21_5 1_555 1_555
C13_5 C38_5 1_555 1_555
C29_5 C46_5 1_555 1_555
C30_5 C32_5 1_555 1_555
C30_5 C46_5 1_555 1_555
Cd5 O6_5 1_555 1_555
Cd3_3 O4_5 1_555 1_555
N1_5 C6_5 1_555 1_555
C3_5 H2_5 1_555 1_555
N2_5 C15_5 1_555 1_555
O5_5 Cd3_3 1_555 1_555
C6_5 C9_5 1_555 1_555
O6_5 H3_5 1_555 1_555
H4_5 O6_5 1_555 1_555
C7_5 H5_5 1_555 1_555
C8_5 N1_5 1_555 1_555
N3_5 Cd5 1_555 1_555
C9_5 H6_5 1_555 1_555
C12_5 N1_5 1_555 1_555
C14_5 H9_5 1_555 1_555
C15_5 C22_5 1_555 1_555
C17_5 N3_5 1_555 1_555
H11_5 C17_5 1_555 1_555
C20_5 N2_5 1_555 1_555
C22_5 H13_5 1_555 1_555
C23_5 H14_5 1_555 1_555
C25_5 O5_5 1_555 1_555
C26_5 N2_5 1_555 1_555
C27_5 C12_5 1_555 1_555
H16_5 C27_5 1_555 1_555
C28_5 C3_5 1_555 1_555
H19_5 C33_5 1_555 1_555
C34_5 C3_5 1_555 1_555
H20_5 C34_5 1_555 1_555
O7_5 Cd3_3 1_555 1_555
C40_5 C12_5 1_555 1_555
H25_5 C40_5 1_555 1_555
C45_5 N3_5 1_555 1_555
H29_5 C45_5 1_555 1_555
C48_5 C28_5 1_555 1_555
H31_5 C48_5 1_555 1_555
C49_5 C8_5 1_555 1_555
H32_5 C49_5 1_555 1_555
C52_5 C20_5 1_555 1_555
H34_5 C52_5 1_555 1_555
C62_5 C63_5 1_555 1_555
C63_5 C64_5 1_555 1_555
O8_5 Cd5 1_555 1_555
O9_5 Cd5 1_555 1_555
C64_5 C27_5 1_555 1_555
H43_5 C64_5 1_555 1_555
C65_5 C40_5 1_555 1_555
H44_5 C65_5 1_555 1_555
C66_5 C67_5 1_555 1_555
C67_5 O10_3 1_555 1_555
O10_3 Cd10_2 1_555 1_555
O11_3 C67_5 1_555 1_555
C68_5 C7_5 1_555 1_555
H45_5 C68_5 1_555 1_555
C69_5 C52_5 1_555 1_555
H46_5 C69_5 1_555 1_555
C70_5 H47_5 1_555 1_555
O18_3 C74_5 1_555 1_555
O13_3 C74_5 1_555 1_555
C71_5 C70_5 1_555 1_555
C72_5 C22_5 1_555 1_555
H48_5 C72_5 1_555 1_555
C73_5 C15_5 1_555 1_555
H49_5 C73_5 1_555 1_555
C74_5 C71_5 1_555 1_555
Cd5_4 O13_3 1_555 1_555
Cd10_2 O11_3 1_555 1_555
N8_3 Cd3_3 1_555 1_555
O16_3 Cd3_3 1_555 1_555
O17_3 Cd3_3 1_555 1_555
O19_3 Cd5 1_555 1_555
C7_5 C20_5 1_555 1_555
C8_5 C34_5 1_555 1_555
C14_5 C26_5 1_555 1_555
C23_5 C45_5 1_555 1_555
C25_5 C28_5 1_555 1_555
C25_5 O7_5 1_555 1_555
C26_5 C33_5 1_555 1_555
C48_5 C49_5 1_555 1_555
C62_5 O8_5 1_555 1_555
C62_5 O9_5 1_555 1_555
C63_5 C65_5 1_555 1_555
C66_5 C68_5 1_555 1_555
C66_5 C69_5 1_555 1_555
C70_5 C73_5 1_555 1_555
C71_5 C72_5 1_555 1_555
O4_5 H51_5 1_555 1_555
O4_5 H52_5 1_555 1_555
Cd5_2 O6_6 1_555 1_555
Cd3_4 O4_6 1_555 1_555
O2_6 Cd8_4 1_555 1_555
O3_6 Cd8_4 1_555 1_555
N1_6 C6_6 1_555 1_555
C3_6 H2_6 1_555 1_555
C4_6 C10_6 1_555 1_555
N2_6 C15_6 1_555 1_555
O5_6 Cd3_4 1_555 1_555
C6_6 C9_6 1_555 1_555
O6_6 H3_6 1_555 1_555
H4_6 O6_6 1_555 1_555
C7_6 H5_6 1_555 1_555
C8_6 N1_6 1_555 1_555
N3_6 Cd5_2 1_555 1_555
C9_6 H6_6 1_555 1_555
C10_6 H7_6 1_555 1_555
C11_6 C24_6 1_555 1_555
C12_6 N1_6 1_555 1_555
C13_6 C6_6 1_555 1_555
H8_6 C13_6 1_555 1_555
C14_6 H9_6 1_555 1_555
C15_6 C22_6 1_555 1_555
C17_6 N3_6 1_555 1_555
H11_6 C17_6 1_555 1_555
C18_6 C4_6 1_555 1_555
H12_6 C18_6 1_555 1_555
C20_6 N2_6 1_555 1_555
C21_6 O2_6 1_555 1_555
C22_6 H13_6 1_555 1_555
C23_6 H14_6 1_555 1_555
C24_6 C9_6 1_555 1_555
H15_6 C24_6 1_555 1_555
C25_6 O5_6 1_555 1_555
C26_6 N2_6 1_555 1_555
C27_6 C12_6 1_555 1_555
H16_6 C27_6 1_555 1_555
C28_6 C3_6 1_555 1_555
C29_6 H17_6 1_555 1_555
C30_6 C23_6 1_555 1_555
C32_6 C17_6 1_555 1_555
H18_6 C32_6 1_555 1_555
C33_6 C10_6 1_555 1_555
H19_6 C33_6 1_555 1_555
C34_6 C3_6 1_555 1_555
H20_6 C34_6 1_555 1_555
C38_6 C11_6 1_555 1_555
H23_6 C38_6 1_555 1_555
O7_6 Cd3_4 1_555 1_555
C40_6 C12_6 1_555 1_555
H25_6 C40_6 1_555 1_555
C45_6 N3_6 1_555 1_555
H29_6 C45_6 1_555 1_555
C48_6 C28_6 1_555 1_555
H31_6 C48_6 1_555 1_555
C49_6 C8_6 1_555 1_555
H32_6 C49_6 1_555 1_555
C52_6 C20_6 1_555 1_555
H34_6 C52_6 1_555 1_555
C62_6 C63_6 1_555 1_555
C63_6 C64_6 1_555 1_555
O8_6 Cd5_2 1_555 1_555
O9_6 Cd5_2 1_555 1_555
C64_6 C27_6 1_555 1_555
H43_6 C64_6 1_555 1_555
C65_6 C40_6 1_555 1_555
H44_6 C65_6 1_555 1_555
C66_6 C67_6 1_555 1_555
C67_6 O10_4 1_555 1_555
O10_4 Cd9_2 1_555 1_555
O11_4 C67_6 1_555 1_555
C68_6 C7_6 1_555 1_555
H45_6 C68_6 1_555 1_555
C69_6 C52_6 1_555 1_555
H46_6 C69_6 1_555 1_555
C70_6 H47_6 1_555 1_555
O18_4 C74_6 1_555 1_555
O13_4 C74_6 1_555 1_555
C71_6 C70_6 1_555 1_555
C72_6 C22_6 1_555 1_555
H48_6 C72_6 1_555 1_555
C73_6 C15_6 1_555 1_555
H49_6 C73_6 1_555 1_555
C74_6 C71_6 1_555 1_555
Cd5_3 O13_4 1_555 1_555
Cd9_2 O11_4 1_555 1_555
N8_4 Cd3_4 1_555 1_555
O16_4 Cd3_4 1_555 1_555
O17_4 Cd3_4 1_555 1_555
O19_4 Cd5_2 1_555 1_555
O3_6 C21_6 1_555 1_555
C4_6 C21_6 1_555 1_555
C7_6 C20_6 1_555 1_555
C8_6 C34_6 1_555 1_555
C13_6 C38_6 1_555 1_555
C14_6 C18_6 1_555 1_555
C14_6 C26_6 1_555 1_555
C23_6 C45_6 1_555 1_555
C25_6 C28_6 1_555 1_555
C25_6 O7_6 1_555 1_555
C26_6 C33_6 1_555 1_555
C29_6 C46_6 1_555 1_555
C30_6 C32_6 1_555 1_555
C30_6 C46_6 1_555 1_555
C48_6 C49_6 1_555 1_555
C62_6 O8_6 1_555 1_555
C62_6 O9_6 1_555 1_555
C63_6 C65_6 1_555 1_555
C66_6 C68_6 1_555 1_555
C66_6 C69_6 1_555 1_555
C70_6 C73_6 1_555 1_555
C71_6 C72_6 1_555 1_555
O4_6 H51_6 1_555 1_555
O4_6 H52_6 1_555 1_555
O15_3 C5_6 1_555 1_555
C2_6 H1_6 1_555 1_555
N4_6 C19_6 1_555 1_555
C16_6 H10_6 1_555 1_555
C19_6 C36_6 1_555 1_555
C31_6 N4_6 1_555 1_555
H22_6 C37_6 1_555 1_555
C39_6 C2_6 1_555 1_555
H24_6 C39_6 1_555 1_555
C41_6 H26_6 1_555 1_555
C42_6 C16_6 1_555 1_555
H27_6 C42_6 1_555 1_555
C43_6 N4_6 1_555 1_555
C44_6 C41_6 1_555 1_555
H28_6 C44_6 1_555 1_555
C50_6 C53_6 1_555 1_555
C51_6 C31_6 1_555 1_555
H33_6 C51_6 1_555 1_555
C53_6 C44_6 1_555 1_555
C55_6 C53_6 1_555 1_555
H36_6 C55_6 1_555 1_555
C56_6 C43_6 1_555 1_555
H37_6 C56_6 1_555 1_555
O21_2 C5_6 1_555 1_555
C19_6 C39_6 1_555 1_555
C31_6 C42_6 1_555 1_555
C37_6 C51_6 1_555 1_555
C41_6 C43_6 1_555 1_555
C55_6 C56_6 1_555 1_555
N6_4 C59_6 1_555 1_555
C59_6 H40_6 1_555 1_555
C61_6 N6_4 1_555 1_555
H42_6 C61_6 1_555 1_555
Cd10_2 N6_4 1_555 1_555
C59_6 C60_6 1_555 1_555
C61_6 C75_6 1_555 1_555
C1_6 C35_6 1_555 1_555
C47_6 C1_6 1_555 1_555
H30_6 C47_6 1_555 1_555
C54_6 C1_6 1_555 1_555
H35_6 C54_6 1_555 1_555
N7_3 C57_6 1_555 1_555
C57_6 C54_6 1_555 1_555
H38_6 C57_6 1_555 1_555
C58_6 C47_6 1_555 1_555
H39_6 C58_6 1_555 1_555
N7_3 C58_6 1_555 1_555
Cd8 O1_4 1_555 1_555
O1_4 C5_7 1_555 1_555
O2_7 Cd8 1_555 1_555
O3_7 Cd8 1_555 1_555
C4_7 C10_7 1_555 1_555
C5_7 C11_7 1_555 1_555
C10_7 H7_7 1_555 1_555
C11_7 C24_7 1_555 1_555
H8_7 C13_7 1_555 1_555
C18_7 C4_7 1_555 1_555
H12_7 C18_7 1_555 1_555
C21_7 O2_7 1_555 1_555
H15_7 C24_7 1_555 1_555
C38_7 C11_7 1_555 1_555
H23_7 C38_7 1_555 1_555
O21_3 C5_7 1_555 1_555
Cd8_2 O1_4 1_555 1_555
O15_4 Cd8 1_555 1_555
N7_4 Cd8 1_555 1_555
O21_4 Cd8 1_555 1_555
O3_7 C21_7 1_555 1_555
C4_7 C21_7 1_555 1_555
C13_7 C38_7 1_555 1_555
O21_3 Cd8_2 1_555 1_555
Cd8_2 O15_4 1_555 1_555
Cd9_2 O4_7 1_555 1_555
N1_7 C6_7 1_555 1_555
C3_7 H2_7 1_555 1_555
N2_7 C15_7 1_555 1_555
O5_7 Cd9_2 1_555 1_555
C6_7 C9_7 1_555 1_555
C7_7 H5_7 1_555 1_555
C8_7 N1_7 1_555 1_555
C9_7 H6_7 1_555 1_555
C12_7 N1_7 1_555 1_555
C14_7 H9_7 1_555 1_555
C15_7 C22_7 1_555 1_555
C20_7 N2_7 1_555 1_555
C22_7 H13_7 1_555 1_555
C25_7 O5_7 1_555 1_555
C26_7 N2_7 1_555 1_555
C27_7 C12_7 1_555 1_555
H16_7 C27_7 1_555 1_555
C28_7 C3_7 1_555 1_555
H19_7 C33_7 1_555 1_555
C34_7 C3_7 1_555 1_555
H20_7 C34_7 1_555 1_555
O7_7 Cd9_2 1_555 1_555
C40_7 C12_7 1_555 1_555
H25_7 C40_7 1_555 1_555
C48_7 C28_7 1_555 1_555
H31_7 C48_7 1_555 1_555
C49_7 C8_7 1_555 1_555
H32_7 C49_7 1_555 1_555
C52_7 C20_7 1_555 1_555
H34_7 C52_7 1_555 1_555
C64_7 C27_7 1_555 1_555
H43_7 C64_7 1_555 1_555
C65_7 C40_7 1_555 1_555
H44_7 C65_7 1_555 1_555
C68_7 C7_7 1_555 1_555
H45_7 C68_7 1_555 1_555
C69_7 C52_7 1_555 1_555
C70_7 H47_7 1_555 1_555
O18 C74_7 1_555 1_555
O19_4 C74_7 1_555 1_555
C71_7 C70_7 1_555 1_555
C72_7 C22_7 1_555 1_555
H48_7 C72_7 1_555 1_555
C73_7 C15_7 1_555 1_555
H49_7 C73_7 1_555 1_555
C74_7 C71_7 1_555 1_555
C7_7 C20_7 1_555 1_555
C8_7 C34_7 1_555 1_555
C14_7 C26_7 1_555 1_555
C25_7 C28_7 1_555 1_555
C25_7 O7_7 1_555 1_555
C26_7 C33_7 1_555 1_555
C48_7 C49_7 1_555 1_555
C70_7 C73_7 1_555 1_555
C71_7 C72_7 1_555 1_555
O4_7 H51_7 1_555 1_555
O4_7 H52_7 1_555 1_555
C1_7 C35_7 1_555 1_555
C2_7 H1_7 1_555 1_555
N4_7 C19_7 1_555 1_555
C16_7 H10_7 1_555 1_555
C19_7 C36_7 1_555 1_555
C29_7 H17_7 1_555 1_555
C31_7 N4_7 1_555 1_555
H18_7 C32_7 1_555 1_555
C35_7 C16_7 1_555 1_555
C36_7 C29_7 1_555 1_555
H21_7 C36_7 1_555 1_555
C37_7 C35_7 1_555 1_555
H22_7 C37_7 1_555 1_555
C39_7 C2_7 1_555 1_555
H24_7 C39_7 1_555 1_555
C41_7 H26_7 1_555 1_555
C42_7 C16_7 1_555 1_555
H27_7 C42_7 1_555 1_555
C43_7 N4_7 1_555 1_555
C44_7 C41_7 1_555 1_555
H28_7 C44_7 1_555 1_555
C46_7 C2_7 1_555 1_555
C47_7 C1_7 1_555 1_555
H30_7 C47_7 1_555 1_555
C50_7 C53_7 1_555 1_555
C51_7 C31_7 1_555 1_555
H33_7 C51_7 1_555 1_555
C53_7 C44_7 1_555 1_555
C54_7 C1_7 1_555 1_555
H35_7 C54_7 1_555 1_555
C55_7 C53_7 1_555 1_555
H36_7 C55_7 1_555 1_555
C56_7 C43_7 1_555 1_555
H37_7 C56_7 1_555 1_555
N5_4 C57_7 1_555 1_555
C57_7 C54_7 1_555 1_555
H38_7 C57_7 1_555 1_555
C58_7 C47_7 1_555 1_555
H39_7 C58_7 1_555 1_555
N8_3 C59_7 1_555 1_555
C59_7 H40_7 1_555 1_555
C60_7 C50_7 1_555 1_555
H41_7 C60_7 1_555 1_555
C61_7 N8_3 1_555 1_555
H42_7 C61_7 1_555 1_555
H50_7 C75_7 1_555 1_555
C75_7 C50_7 1_555 1_555
Cd8_2 N5_4 1_555 1_555
C19_7 C39_7 1_555 1_555
C29_7 C46_7 1_555 1_555
C30_7 C32_7 1_555 1_555
C30_7 C46_7 1_555 1_555
C31_7 C42_7 1_555 1_555
C37_7 C51_7 1_555 1_555
C41_7 C43_7 1_555 1_555
C55_7 C56_7 1_555 1_555
N5_4 C58_7 1_555 1_555
C59_7 C60_7 1_555 1_555
C61_7 C75_7 1_555 1_555
Cd5_3 O6_7 1_555 1_555
O6_7 H3_7 1_555 1_555
H4_7 O6_7 1_555 1_555
N3_7 Cd5_3 1_555 1_555
C17_7 N3_7 1_555 1_555
H11_7 C17_7 1_555 1_555
C23_7 H14_7 1_555 1_555
C45_7 N3_7 1_555 1_555
H29_7 C45_7 1_555 1_555
C62_7 C63_7 1_555 1_555
O8_7 Cd5_3 1_555 1_555
O9_7 Cd5_3 1_555 1_555
C66_7 C67_7 1_555 1_555
C67_7 O16_4 1_555 1_555
O17_4 C67_7 1_555 1_555
C23_7 C45_7 1_555 1_555
C62_7 O8_7 1_555 1_555
C62_7 O9_7 1_555 1_555
Cd10_2 O4_8 1_555 1_555
O15_4 C5_8 1_555 1_555
O2_8 Cd8_2 1_555 1_555
O3_8 Cd8_2 1_555 1_555
N1_8 C6_8 1_555 1_555
C3_8 H2_8 1_555 1_555
C4_8 C10_8 1_555 1_555
N2_8 C15_8 1_555 1_555
C5_8 C11_8 1_555 1_555
O5_8 Cd10_2 1_555 1_555
C6_8 C9_8 1_555 1_555
C7_8 H5_8 1_555 1_555
C8_8 N1_8 1_555 1_555
C9_8 H6_8 1_555 1_555
C10_8 H7_8 1_555 1_555
C11_8 C24_8 1_555 1_555
C12_8 N1_8 1_555 1_555
C13_8 C6_8 1_555 1_555
H8_8 C13_8 1_555 1_555
C14_8 H9_8 1_555 1_555
C15_8 C22_8 1_555 1_555
C18_8 C4_8 1_555 1_555
H12_8 C18_8 1_555 1_555
C20_8 N2_8 1_555 1_555
C21_8 O2_8 1_555 1_555
C22_8 H13_8 1_555 1_555
C24_8 C9_8 1_555 1_555
H15_8 C24_8 1_555 1_555
C25_8 O5_8 1_555 1_555
C26_8 N2_8 1_555 1_555
C27_8 C12_8 1_555 1_555
H16_8 C27_8 1_555 1_555
C28_8 C3_8 1_555 1_555
C33_8 C10_8 1_555 1_555
H19_8 C33_8 1_555 1_555
C34_8 C3_8 1_555 1_555
H20_8 C34_8 1_555 1_555
C38_8 C11_8 1_555 1_555
H23_8 C38_8 1_555 1_555
O7_8 Cd10_2 1_555 1_555
C40_8 C12_8 1_555 1_555
H25_8 C40_8 1_555 1_555
C48_8 C28_8 1_555 1_555
H31_8 C48_8 1_555 1_555
C49_8 C8_8 1_555 1_555
H32_8 C49_8 1_555 1_555
C52_8 C20_8 1_555 1_555
H34_8 C52_8 1_555 1_555
C64_8 C27_8 1_555 1_555
H43_8 C64_8 1_555 1_555
C65_8 C40_8 1_555 1_555
H44_8 C65_8 1_555 1_555
C68_8 C7_8 1_555 1_555
H45_8 C68_8 1_555 1_555
C69_8 C52_8 1_555 1_555
C70_8 H47_8 1_555 1_555
O18_2 C74_8 1_555 1_555
O19_3 C74_8 1_555 1_555
C71_8 C70_8 1_555 1_555
C72_8 C22_8 1_555 1_555
H48_8 C72_8 1_555 1_555
C73_8 C15_8 1_555 1_555
H49_8 C73_8 1_555 1_555
C74_8 C71_8 1_555 1_555
O21_4 C5_8 1_555 1_555
O3_8 C21_8 1_555 1_555
C4_8 C21_8 1_555 1_555
C7_8 C20_8 1_555 1_555
C8_8 C34_8 1_555 1_555
C13_8 C38_8 1_555 1_555
C14_8 C18_8 1_555 1_555
C14_8 C26_8 1_555 1_555
C25_8 C28_8 1_555 1_555
C25_8 O7_8 1_555 1_555
C26_8 C33_8 1_555 1_555
C48_8 C49_8 1_555 1_555
C70_8 C73_8 1_555 1_555
C71_8 C72_8 1_555 1_555
O4_8 H51_8 1_555 1_555
O4_8 H52_8 1_555 1_555
Cd5_4 O6_8 1_555 1_555
C1_8 C35_8 1_555 1_555
C2_8 H1_8 1_555 1_555
O6_8 H3_8 1_555 1_555
H4_8 O6_8 1_555 1_555
N3_8 Cd5_4 1_555 1_555
N4_8 C19_8 1_555 1_555
C16_8 H10_8 1_555 1_555
C17_8 N3_8 1_555 1_555
H11_8 C17_8 1_555 1_555
C19_8 C36_8 1_555 1_555
C23_8 H14_8 1_555 1_555
C29_8 H17_8 1_555 1_555
C30_8 C23_8 1_555 1_555
C31_8 N4_8 1_555 1_555
C32_8 C17_8 1_555 1_555
H18_8 C32_8 1_555 1_555
C35_8 C16_8 1_555 1_555
C36_8 C29_8 1_555 1_555
H21_8 C36_8 1_555 1_555
C37_8 C35_8 1_555 1_555
H22_8 C37_8 1_555 1_555
C39_8 C2_8 1_555 1_555
H24_8 C39_8 1_555 1_555
C41_8 H26_8 1_555 1_555
C42_8 C16_8 1_555 1_555
H27_8 C42_8 1_555 1_555
C43_8 N4_8 1_555 1_555
C44_8 C41_8 1_555 1_555
H28_8 C44_8 1_555 1_555
C45_8 N3_8 1_555 1_555
H29_8 C45_8 1_555 1_555
C46_8 C2_8 1_555 1_555
C47_8 C1_8 1_555 1_555
H30_8 C47_8 1_555 1_555
C50_8 C53_8 1_555 1_555
C51_8 C31_8 1_555 1_555
H33_8 C51_8 1_555 1_555
C53_8 C44_8 1_555 1_555
C54_8 C1_8 1_555 1_555
H35_8 C54_8 1_555 1_555
C55_8 C53_8 1_555 1_555
H36_8 C55_8 1_555 1_555
C56_8 C43_8 1_555 1_555
H37_8 C56_8 1_555 1_555
N7_4 C57_8 1_555 1_555
C57_8 C54_8 1_555 1_555
H38_8 C57_8 1_555 1_555
C58_8 C47_8 1_555 1_555
H39_8 C58_8 1_555 1_555
C62_8 C63_8 1_555 1_555
O8_8 Cd5_4 1_555 1_555
O9_8 Cd5_4 1_555 1_555
C66_8 C67_8 1_555 1_555
C67_8 O16_3 1_555 1_555
O17_3 C67_8 1_555 1_555
C19_8 C39_8 1_555 1_555
C23_8 C45_8 1_555 1_555
C29_8 C46_8 1_555 1_555
C30_8 C32_8 1_555 1_555
C30_8 C46_8 1_555 1_555
C31_8 C42_8 1_555 1_555
C37_8 C51_8 1_555 1_555
C41_8 C43_8 1_555 1_555
C55_8 C56_8 1_555 1_555
N7_4 C58_8 1_555 1_555
C62_8 O8_8 1_555 1_555
C62_8 O9_8 1_555 1_555
N8_4 C59_8 1_555 1_555
C59_8 H40_8 1_555 1_555
C61_8 N8_4 1_555 1_555
H42_8 C61_8 1_555 1_555
C59_8 C60_8 1_555 1_555
C61_8 C75_8 1_555 1_555

#END
