
###############################################################################
#
# This file contains modified crystal structure data generated from the
# MOF subset of the Cambridge Structural Database (CSD) v543 
# hosted by the Cambridge Crystallographic Data Centre (CCDC).
#
# This work is licensed under the Creative Commons
# Attribution-NonCommercial-ShareAlike 4.0 International License.
# To view a copy of this license, visit
# http://creativecommons.org/licenses/by-nc-sa/4.0/
# or send a letter to
# Creative Commons, PO Box 1866, Mountain View, CA 94042, USA.
#
# CIF created using the CSD Python API on 29 September 2022
# The structure has been converted into the P1 space group
# The structure has a 3D framework
# The original CSD entry ETIKIE is in the monoclinic crystal system
# The framework has been calculated to contain at least 10.0% void space
# The void calculation uses a probe of radius 1.32A, grid spacing 0.4
# H atom positions have been added when not included in the experimental data
#
###############################################################################

data_ETIKIE
_chemical_formula_moiety         '(C600 H416 Cd24 N48 O112)n'
_symmetry_cell_setting           triclinic
_symmetry_space_group_name_H-M   'P 1'
_symmetry_Int_Tables_number      1
_space_group_name_Hall           'P 1'
loop_
_symmetry_equiv_pos_site_id
_symmetry_equiv_pos_as_xyz
1 x,y,z
_cell_length_a                   37.379(2)
_cell_length_b                   26.8868(14)
_cell_length_c                   22.4538(12)
_cell_angle_alpha                90
_cell_angle_beta                 111.4061(11)
_cell_angle_gamma                90
_cell_volume                     21009.4
loop_
_atom_site_label
_atom_site_type_symbol
_atom_site_fract_x
_atom_site_fract_y
_atom_site_fract_z
Cd3 Cd 0.25951(2) 0.34468(2) 0.32055(2)
C1 C 0.05238(17) 0.5539(2) 0.2646(3)
N1 N 0.09363(14) 0.15016(17) 0.0829(2)
C4 C 0.16797(17) 0.2491(2) 0.1428(3)
H2 H 0.1815 0.2720 0.1266
C5 C 0.02920(19) 0.2438(2) 0.1263(3)
H3 H 0.0370 0.2115 0.1186
O7 O 0.31091(15) 0.35980(19) 0.2899(3)
H4 H 0.3175 0.3329 0.2769
C7 C 0.06118(15) 0.2155(2) 0.0062(3)
H5 H 0.0726 0.2401 0.0378
C9 C 0.09410(16) 0.0996(2) 0.1018(3)
C14 C 0.06869(16) 0.1652(2) 0.0210(3)
C15 C 0.12128(15) 0.1834(2) 0.1243(3)
O10 O 0.22536(13) 0.30682(17) 0.2287(2)
C19 C 0.05468(18) 0.4986(2) 0.2593(3)
C21 C 0.17484(16) 0.2481(2) 0.2081(3)
C24 C 0.14134(16) 0.2166(2) 0.1011(3)
H12 H 0.1370 0.2172 0.0567
C27 C 0.20459(18) 0.2824(2) 0.2514(3)
O11 O 0.20878(14) 0.28557(19) 0.3092(2)
C28 C 0.12847(18) 0.0228(2) 0.1387(3)
H13 H 0.1520 0.0049 0.1535
C32 C 0.0521(2) 0.2704(2) 0.1792(3)
H16 H 0.0759 0.2567 0.2064
C33 C 0.06160(19) 0.3949(2) 0.2514(3)
C38 C 0.04099(18) 0.3162(2) 0.1930(3)
C40 C 0.06115(18) 0.0269(2) 0.1143(3)
H20 H 0.0378 0.0111 0.1111
N4 N 0.06474(18) 0.34281(18) 0.2472(3)
C43 C 0.0616(2) 0.4174(2) 0.3075(3)
H22 H 0.0640 0.3973 0.3435
N5 N 0.20201(16) 0.1993(2) 0.5927(3)
C48 C 0.0582(2) 0.4679(2) 0.3113(3)
H25 H 0.0583 0.4823 0.3499
C50 C 0.0744(2) 0.2773(3) 0.3266(3)
H27 H 0.0487 0.2665 0.3044
C51 C 0.12805(18) 0.1823(2) 0.1891(3)
H28 H 0.1143 0.1598 0.2054
C52 C 0.06058(18) 0.0766(2) 0.0993(3)
C53 C 0.03516(19) 0.6345(2) 0.2174(3)
H29 H 0.0237 0.6543 0.1803
C54 C 0.0541(2) 0.4761(2) 0.2023(3)
H30 H 0.0511 0.4961 0.1659
C55 C 0.0886(2) 0.3160(2) 0.3026(3)
C56 C 0.1345(2) 0.2682(3) 0.4155(3)
C57 C 0.0968(2) 0.2532(3) 0.3831(3)
H31 H 0.0862 0.2267 0.3993
C58 C 0.06603(19) 0.6290(2) 0.3254(3)
C59 C 0.1581(2) 0.2437(3) 0.4766(4)
C61 C 0.15513(18) 0.2143(2) 0.2302(3)
H33 H 0.1601 0.2127 0.2748
C62 C 0.0061(2) 0.3355(2) 0.1523(3)
C63 C 0.0680(2) 0.5778(2) 0.3225(3)
H35 H 0.0800 0.5592 0.3605
C64 C 0.12831(18) 0.0730(2) 0.1222(3)
H36 H 0.1516 0.0888 0.1249
C65 C 0.0580(2) 0.4249(2) 0.1990(3)
H37 H 0.0583 0.4102 0.1606
C67 C 0.0352(2) 0.5833(2) 0.2101(3)
C69 C 0.1484(2) 0.3061(3) 0.3904(4)
H40 H 0.1741 0.3170 0.4120
C70 C 0.1260(2) 0.3296(3) 0.3338(4)
H41 H 0.1368 0.3553 0.3167
N6 N 0.05039(13) 0.65729(17) 0.2737(2)
C71 C 0.1422(2) 0.2183(4) 0.5125(4)
H42 H 0.1151 0.2144 0.4972
C72 C 0.1644(2) 0.1976(4) 0.5715(4)
H43 H 0.1520 0.1819 0.5966
C73 C 0.1975(3) 0.2452(6) 0.5006(7)
C74 C 0.2169(3) 0.2224(6) 0.5559(7)
H44 H 0.2441 0.2230 0.5698
Cd5 Cd 0.05294(2) 0.74184(2) 0.28139(2)
Cd9 Cd 0.24049(2) 0.15532(2) 0.67945(2)
N7 N 0.29799(16) 0.3007(2) 0.4073(3)
O20 O 0.2505(2) 0.42743(18) 0.2995(3)
O21 O 0.2568(2) 0.40643(19) 0.3941(3)
H47 H 0.0338768 0.0976143 0.0855622
H48 H 0.0221668 0.56633 0.16305
H49 H 0.0777769 0.647 0.371985
H50 H 0.212852 0.264816 0.474794
H52 H 0.332788 0.372795 0.326939
C11 C 0.03719(15) 0.2296(2) 0.9454(3)
H7 H 0.0333 0.2639 0.9351
C12 C 0.05061(16) 0.1300(2) 0.9736(3)
H8 H 0.0561 0.0956 0.9823
C26 C 0.01855(15) 0.19392(19) 0.8991(3)
C46 C 0.02515(17) 0.1443(2) 0.9148(3)
H24 H 0.0118 0.1197 0.8845
Cd4 Cd 0.05294(2) 0.25816(2) 0.78139(2)
O15 O 0.00076(11) 0.25378(14) 0.68454(18)
O6 O 0.12384(13) 0.91987(15) 0.1671(2)
C8 C 0.09371(18) 0.9450(2) 0.1490(3)
O9 O 0.06181(13) 0.92632(15) 0.1432(2)
C22 C 0.09469(17) 0.9989(2) 0.1338(3)
Cd7 Cd 0.08656(2) 0.85109(2) 0.18854(2)
Cd1 Cd 0.94706(2) 0.25816(2) 0.71861(2)
Cd2 Cd 0.91344(2) 0.14891(2) 0.81146(2)
O1 O 0.90041(11) 0.25962(16) 0.7646(2)
O2 O 0.99924(11) 0.25378(14) 0.81546(18)
C2 C 0.79601(16) 0.2552(2) 0.6953(3)
H1 H 0.7915 0.2255 0.7144
O3 O 0.96749(11) 0.18339(15) 0.79838(19)
O4 O 0.60514(12) 0.22607(15) 0.38657(19)
C3 C 0.61037(16) 0.2716(2) 0.3894(3)
O5 O 0.58728(11) 0.30096(15) 0.34837(19)
C6 C 0.99344(15) 0.2107(2) 0.8341(3)
N2 N 0.74046(14) 0.35532(17) 0.5852(2)
O8 O 0.86178(12) 0.19960(16) 0.7692(2)
C10 C 0.64417(16) 0.3430(2) 0.4596(3)
H6 H 0.6222 0.3632 0.4393
C13 C 0.67781(16) 0.2663(2) 0.4675(3)
H9 H 0.6788 0.2331 0.4538
N3 N 0.93174(14) 0.18765(18) 0.9097(2)
C16 C 0.74161(16) 0.4068(2) 0.5986(3)
C17 C 0.77148(16) 0.3261(2) 0.6266(3)
C18 C 0.64428(16) 0.2939(2) 0.4397(3)
C20 C 0.67542(16) 0.3627(2) 0.5083(3)
H10 H 0.6741 0.3956 0.5228
C23 C 0.70961(16) 0.2865(2) 0.5148(3)
H11 H 0.7323 0.2671 0.5327
C25 C 0.86773(16) 0.2417(2) 0.7495(3)
C29 C 0.7434(2) 0.4216(2) 0.6589(3)
H14 H 0.7432 0.3977 0.6900
C30 C 0.80922(17) 0.3429(2) 0.6409(3)
H15 H 0.8138 0.3731 0.6227
C31 C 0.74571(19) 0.5609(2) 0.6469(4)
C34 C 0.76537(17) 0.2828(2) 0.6549(3)
H17 H 0.7398 0.2718 0.6465
C35 C 0.74476(19) 0.5074(2) 0.6292(3)
C36 C 0.83392(16) 0.2716(2) 0.7078(3)
C39 C 0.95113(19) 0.2631(2) 0.9697(3)
H19 H 0.9504 0.2984 0.9700
C42 C 0.83961(16) 0.3158(2) 0.6810(3)
H21 H 0.8650 0.3276 0.6906
C45 C 0.70884(16) 0.3348(2) 0.5364(3)
C49 C 0.95034(19) 0.1624(2) 0.9635(3)
H26 H 0.9501 0.1271 0.9616
C60 C 0.93202(18) 0.2374(2) 0.9140(3)
H32 H 0.9183 0.2560 0.8766
O12 O 0.7495(2) 0.57257(18) 0.7005(3)
O13 O 0.7432(2) 0.59357(19) 0.6059(3)
C66 C 0.7411(2) 0.4418(2) 0.5535(3)
H38 H 0.7398 0.4319 0.5122
C68 C 0.7425(2) 0.4922(2) 0.5696(4)
H39 H 0.7418 0.5165 0.5385
C75 C 0.7454(2) 0.4728(3) 0.6730(3)
H45 H 0.7473 0.4832 0.7145
O14 O 0.90041(17) 0.11603(19) 0.7127(2)
H46 H 0.9008 0.1391 0.6871
Cd6 Cd 0.55294(2) 0.24184(2) 0.28139(2)
Cd8 Cd 0.74049(2) 0.65532(2) 0.67945(2)
O16 O 0.89486(12) 0.27393(15) 0.61343(19)
O17 O 0.91272(11) 0.19904(15) 0.65163(19)
O18 O 0.87616(13) 0.08013(15) 0.8329(2)
O19 O 0.93819(13) 0.07368(15) 0.8568(2)
N8 N 0.94961(13) 0.34271(17) 0.7263(2)
H51 H 0.874607 0.100271 0.697608
O4_2 O 0.39486(12) 0.22607(15) 0.11343(19)
C3_2 C 0.38963(16) 0.2716(2) 0.1106(3)
O5_2 O 0.41272(11) 0.30096(15) 0.15163(19)
C10_2 C 0.35583(16) 0.3430(2) 0.0404(3)
H6_2 H 0.3778 0.3632 0.0607
C13_2 C 0.32219(16) 0.2663(2) 0.0325(3)
H9_2 H 0.3212 0.2331 0.0462
C18_2 C 0.35572(16) 0.2939(2) 0.0603(3)
Cd6_2 Cd 0.44706(2) 0.24184(2) 0.21861(2)
Cd2_2 Cd 0.08656(2) 0.14891(2) 0.68854(2)
O1_2 O 0.09959(11) 0.25962(16) 0.7354(2)
C2_2 C 0.20399(16) 0.2552(2) 0.8047(3)
H1_2 H 0.2085 0.2255 0.7856
O3_2 O 0.03251(11) 0.18339(15) 0.70162(19)
C6_2 C 0.00656(15) 0.2107(2) 0.6659(3)
N2_2 N 0.25954(14) 0.35532(17) 0.9148(2)
O8_2 O 0.13822(12) 0.19960(16) 0.7308(2)
N3_2 N 0.06826(14) 0.18765(18) 0.5903(2)
C16_2 C 0.25839(16) 0.4068(2) 0.9014(3)
C17_2 C 0.22852(16) 0.3261(2) 0.8734(3)
C20_2 C 0.32458(16) 0.3627(2) 0.9917(3)
H10_2 H 0.3259 0.3956 0.9772
C23_2 C 0.29039(16) 0.2865(2) 0.9852(3)
H11_2 H 0.2677 0.2671 0.9673
C25_2 C 0.13227(16) 0.2417(2) 0.7505(3)
C29_2 C 0.2566(2) 0.4216(2) 0.8411(3)
H14_2 H 0.2568 0.3977 0.8100
C30_2 C 0.19078(17) 0.3429(2) 0.8591(3)
H15_2 H 0.1862 0.3731 0.8773
C31_2 C 0.25429(19) 0.5609(2) 0.8531(4)
C34_2 C 0.23463(17) 0.2828(2) 0.8451(3)
H17_2 H 0.2602 0.2718 0.8535
C35_2 C 0.25524(19) 0.5074(2) 0.8708(3)
C36_2 C 0.16608(16) 0.2716(2) 0.7922(3)
C37 C 0.01622(19) 0.3100(2) 0.4010(3)
H18 H 0.0397 0.3242 0.4286
C39_2 C 0.04887(19) 0.2631(2) 0.5303(3)
H19_2 H 0.0496 0.2984 0.5300
C41 C 0.02844(17) 0.2374(2) 0.4742(3)
C42_2 C 0.16039(16) 0.3158(2) 0.8190(3)
H21_2 H 0.1350 0.3276 0.8094
C44 C 0.03010(19) 0.1851(2) 0.4783(3)
H23 H 0.0178 0.1654 0.4413
C45_2 C 0.29116(16) 0.3348(2) 0.9636(3)
C47 C 0.00510(18) 0.2637(2) 0.4157(3)
C49_2 C 0.04966(19) 0.1624(2) 0.5365(3)
H26_2 H 0.0499 0.1271 0.5384
C60_2 C 0.06798(18) 0.2374(2) 0.5860(3)
H32_2 H 0.0817 0.2560 0.6234
H34 H 0.0023 0.3669 0.3383
O12_2 O 0.2505(2) 0.57257(18) 0.7995(3)
O13_2 O 0.2568(2) 0.59357(19) 0.8941(3)
C66_2 C 0.2589(2) 0.4418(2) 0.9465(3)
H38_2 H 0.2602 0.4319 0.9878
C68_2 C 0.2575(2) 0.4922(2) 0.9304(4)
H39_2 H 0.2582 0.5165 0.9615
C75_2 C 0.2546(2) 0.4728(3) 0.8270(3)
H45_2 H 0.2527 0.4832 0.7855
O14_2 O 0.09959(17) 0.11603(19) 0.7873(2)
H46_2 H 0.0992 0.1391 0.8129
Cd8_2 Cd 0.25951(2) 0.65532(2) 0.82055(2)
O16_2 O 0.10514(12) 0.27393(15) 0.88657(19)
O17_2 O 0.08728(11) 0.19904(15) 0.84837(19)
O18_2 O 0.12384(13) 0.08013(15) 0.6671(2)
O19_2 O 0.06181(13) 0.07368(15) 0.6432(2)
N8_2 N 0.05039(13) 0.34271(17) 0.7737(2)
H51_2 H 0.125393 0.100271 0.802392
Cd3_2 Cd 0.74049(2) 0.34468(2) 0.17945(2)
C1_2 C 0.94762(17) 0.5539(2) 0.2354(3)
N1_2 N 0.90637(14) 0.15016(17) 0.4171(2)
C4_2 C 0.83203(17) 0.2491(2) 0.3572(3)
H2_2 H 0.8185 0.2720 0.3734
C5_2 C 0.97080(19) 0.2438(2) 0.3737(3)
H3_2 H 0.9630 0.2115 0.3814
O7_2 O 0.68909(15) 0.35980(19) 0.2101(3)
H4_2 H 0.6825 0.3329 0.2231
C7_2 C 0.93882(15) 0.2155(2) 0.4938(3)
H5_2 H 0.9274 0.2401 0.4622
C9_2 C 0.90590(16) 0.0996(2) 0.3982(3)
C11_2 C 0.96281(15) 0.2296(2) 0.5546(3)
H7_2 H 0.9667 0.2639 0.5649
C12_2 C 0.94939(16) 0.1300(2) 0.5264(3)
H8_2 H 0.9439 0.0956 0.5177
C14_2 C 0.93131(16) 0.1652(2) 0.4790(3)
C15_2 C 0.87872(15) 0.1834(2) 0.3757(3)
O10_2 O 0.77464(13) 0.30682(17) 0.2713(2)
C19_2 C 0.94532(18) 0.4986(2) 0.2407(3)
C21_2 C 0.82516(16) 0.2481(2) 0.2919(3)
C24_2 C 0.85866(16) 0.2166(2) 0.3989(3)
H12_2 H 0.8630 0.2172 0.4433
C26_2 C 0.98145(15) 0.19392(19) 0.6009(3)
C27_2 C 0.79541(18) 0.2824(2) 0.2486(3)
O11_2 O 0.79122(14) 0.28557(19) 0.1908(2)
C28_2 C 0.87153(18) 0.0228(2) 0.3613(3)
H13_2 H 0.8480 0.0049 0.3465
C32_2 C 0.9479(2) 0.2704(2) 0.3208(3)
H16_2 H 0.9241 0.2567 0.2936
C33_2 C 0.93840(19) 0.3949(2) 0.2486(3)
C38_2 C 0.95901(18) 0.3162(2) 0.3070(3)
C40_2 C 0.93885(18) 0.0269(2) 0.3857(3)
H20_2 H 0.9622 0.0111 0.3889
N4_2 N 0.93526(18) 0.34281(18) 0.2528(3)
C43_2 C 0.9384(2) 0.4174(2) 0.1925(3)
H22_2 H 0.9360 0.3973 0.1565
C46_2 C 0.97485(17) 0.1443(2) 0.5852(3)
H24_2 H 0.9882 0.1197 0.6155
C48_2 C 0.9418(2) 0.4679(2) 0.1887(3)
H25_2 H 0.9417 0.4823 0.1501
C50_2 C 0.9256(2) 0.2773(3) 0.1734(3)
H27_2 H 0.9513 0.2665 0.1956
C51_2 C 0.87195(18) 0.1823(2) 0.3109(3)
H28_2 H 0.8857 0.1598 0.2946
C52_2 C 0.93942(18) 0.0766(2) 0.4007(3)
C53_2 C 0.96484(19) 0.6345(2) 0.2826(3)
H29_2 H 0.9763 0.6543 0.3197
C54_2 C 0.9459(2) 0.4761(2) 0.2977(3)
H30_2 H 0.9489 0.4961 0.3341
C55_2 C 0.9114(2) 0.3160(2) 0.1974(3)
C56_2 C 0.8655(2) 0.2682(3) 0.0845(3)
C57_2 C 0.9032(2) 0.2532(3) 0.1169(3)
H31_2 H 0.9138 0.2267 0.1007
C58_2 C 0.93397(19) 0.6290(2) 0.1746(3)
C59_2 C 0.8419(2) 0.2437(3) 0.0234(4)
C61_2 C 0.84487(18) 0.2143(2) 0.2698(3)
H33_2 H 0.8399 0.2127 0.2252
C62_2 C 0.9939(2) 0.3355(2) 0.3477(3)
C63_2 C 0.9320(2) 0.5778(2) 0.1775(3)
H35_2 H 0.9200 0.5592 0.1395
C64_2 C 0.87169(18) 0.0730(2) 0.3778(3)
H36_2 H 0.8484 0.0888 0.3751
C65_2 C 0.9420(2) 0.4249(2) 0.3010(3)
H37_2 H 0.9417 0.4102 0.3394
C67_2 C 0.9648(2) 0.5833(2) 0.2899(3)
C69_2 C 0.8516(2) 0.3061(3) 0.1096(4)
H40_2 H 0.8259 0.3170 0.0880
C70_2 C 0.8740(2) 0.3296(3) 0.1662(4)
H41_2 H 0.8632 0.3553 0.1833
N6_2 N 0.94961(13) 0.65729(17) 0.2263(2)
H42_2 H 0.8849 0.2144 0.0028
Cd5_2 Cd 0.94706(2) 0.74184(2) 0.21861(2)
N7_2 N 0.70201(16) 0.3007(2) 0.0927(3)
O20_2 O 0.7495(2) 0.42743(18) 0.2005(3)
O21_2 O 0.7432(2) 0.40643(19) 0.1059(3)
H47_2 H 0.966123 0.0976143 0.414438
H48_2 H 0.977833 0.56633 0.33695
H49_2 H 0.922223 0.647 0.128015
H50_2 H 0.787148 0.264816 0.0252057
H52_2 H 0.667212 0.372795 0.173061
N5_2 N 0.79799(16) 0.1993(2) 0.9073(3)
C71_2 C 0.8578(2) 0.2183(4) 0.9875(4)
C72_2 C 0.8356(2) 0.1976(4) 0.9285(4)
H43_2 H 0.8480 0.1819 0.9034
C73_2 C 0.8025(3) 0.2452(6) 0.9994(7)
C74_2 C 0.7831(3) 0.2224(6) 0.9441(7)
H44_2 H 0.7559 0.2230 0.9302
Cd9_2 Cd 0.75951(2) 0.15532(2) 0.82055(2)
O6_2 O 0.87616(13) 0.91987(15) 0.3329(2)
C8_2 C 0.90629(18) 0.9450(2) 0.3510(3)
O9_2 O 0.93819(13) 0.92632(15) 0.3568(2)
C22_2 C 0.90531(17) 0.9989(2) 0.3662(3)
Cd7_2 Cd 0.91344(2) 0.85109(2) 0.31146(2)
C1_3 C 0.55238(17) 0.0539(2) 0.2646(3)
C53_3 C 0.53516(19) 0.1345(2) 0.2174(3)
H29_3 H 0.5237 0.1543 0.1803
C58_3 C 0.56603(19) 0.1290(2) 0.3254(3)
C63_3 C 0.5680(2) 0.0778(2) 0.3225(3)
H35_3 H 0.5800 0.0592 0.3605
C67_3 C 0.5352(2) 0.0833(2) 0.2101(3)
N6_3 N 0.55039(13) 0.15729(17) 0.2737(2)
H48_3 H 0.522167 0.0663296 0.16305
H49_3 H 0.577777 0.147 0.371985
C31_3 C 0.24571(19) 0.0609(2) 0.6469(4)
C35_3 C 0.24476(19) 0.0074(2) 0.6292(3)
O12_3 O 0.2495(2) 0.07257(18) 0.7005(3)
O13_3 O 0.2432(2) 0.09357(19) 0.6059(3)
H39_3 H 0.2418 0.0165 0.5385
Cd3_3 Cd 0.75951(2) 0.84468(2) 0.32055(2)
N1_3 N 0.59363(14) 0.65016(17) 0.0829(2)
C4_3 C 0.66797(17) 0.7491(2) 0.1428(3)
H2_3 H 0.6815 0.7720 0.1266
C5_3 C 0.52920(19) 0.7438(2) 0.1263(3)
H3_3 H 0.5370 0.7115 0.1186
O6_3 O 0.62384(13) 0.41987(15) 0.1671(2)
O7_3 O 0.81091(15) 0.85980(19) 0.2899(3)
H4_3 H 0.8175 0.8329 0.2769
C7_3 C 0.56118(15) 0.7155(2) 0.0062(3)
H5_3 H 0.5726 0.7401 0.0378
C8_3 C 0.59371(18) 0.4450(2) 0.1490(3)
C9_3 C 0.59410(16) 0.5996(2) 0.1018(3)
O9_3 O 0.56181(13) 0.42632(15) 0.1432(2)
C14_3 C 0.56869(16) 0.6652(2) 0.0210(3)
C15_3 C 0.62128(15) 0.6834(2) 0.1243(3)
O10_3 O 0.72536(13) 0.80682(17) 0.2287(2)
C19_3 C 0.55468(18) 0.9986(2) 0.2593(3)
C21_3 C 0.67484(16) 0.7481(2) 0.2081(3)
C22_3 C 0.59469(17) 0.4989(2) 0.1338(3)
C24_3 C 0.64134(16) 0.7166(2) 0.1011(3)
H12_3 H 0.6370 0.7172 0.0567
C27_3 C 0.70459(18) 0.7824(2) 0.2514(3)
O11_3 O 0.70878(14) 0.78557(19) 0.3092(2)
C28_3 C 0.62847(18) 0.5228(2) 0.1387(3)
H13_3 H 0.6520 0.5049 0.1535
C32_3 C 0.5521(2) 0.7704(2) 0.1792(3)
H16_3 H 0.5759 0.7567 0.2064
C33_3 C 0.56160(19) 0.8949(2) 0.2514(3)
C37_2 C 0.48378(19) 0.8100(2) 0.0990(3)
H18_2 H 0.4603 0.8242 0.0714
C38_3 C 0.54099(18) 0.8162(2) 0.1930(3)
C40_3 C 0.56115(18) 0.5269(2) 0.1143(3)
H20_3 H 0.5378 0.5111 0.1111
C41_2 C 0.47156(17) 0.7374(2) 0.0258(3)
N4_3 N 0.56474(18) 0.84281(18) 0.2472(3)
C43_3 C 0.5616(2) 0.9174(2) 0.3075(3)
H22_3 H 0.5640 0.8973 0.3435
C44_2 C 0.46990(19) 0.6851(2) 0.0217(3)
H23_2 H 0.4822 0.6654 0.0587
C47_2 C 0.49490(18) 0.7637(2) 0.0843(3)
N5_3 N 0.70201(16) 0.6993(2) 0.5927(3)
C48_3 C 0.5582(2) 0.9679(2) 0.3113(3)
H25_3 H 0.5583 0.9823 0.3499
C50_3 C 0.5744(2) 0.7773(3) 0.3266(3)
H27_3 H 0.5487 0.7665 0.3044
C51_3 C 0.62805(18) 0.6823(2) 0.1891(3)
H28_3 H 0.6143 0.6598 0.2054
C52_3 C 0.56058(18) 0.5766(2) 0.0993(3)
C54_3 C 0.5541(2) 0.9761(2) 0.2023(3)
H30_3 H 0.5511 0.9961 0.1659
C55_3 C 0.5886(2) 0.8160(2) 0.3026(3)
C56_3 C 0.6345(2) 0.7682(3) 0.4155(3)
C57_3 C 0.5968(2) 0.7532(3) 0.3831(3)
H31_3 H 0.5862 0.7267 0.3993
C59_3 C 0.6581(2) 0.7437(3) 0.4766(4)
C61_3 C 0.65513(18) 0.7143(2) 0.2302(3)
H33_3 H 0.6601 0.7127 0.2748
C62_3 C 0.5061(2) 0.8355(2) 0.1523(3)
H34_2 H 0.4977 0.8669 0.1617
C64_3 C 0.62831(18) 0.5730(2) 0.1222(3)
H36_3 H 0.6516 0.5888 0.1249
C65_3 C 0.5580(2) 0.9249(2) 0.1990(3)
H37_3 H 0.5583 0.9102 0.1606
C69_3 C 0.6484(2) 0.8061(3) 0.3904(4)
H40_3 H 0.6741 0.8170 0.4120
C70_3 C 0.6260(2) 0.8296(3) 0.3338(4)
H41_3 H 0.6368 0.8553 0.3167
C71_3 C 0.6422(2) 0.7183(4) 0.5125(4)
H42_3 H 0.6151 0.7144 0.4972
C72_3 C 0.6644(2) 0.6976(4) 0.5715(4)
H43_3 H 0.6520 0.6819 0.5966
C73_3 C 0.6975(3) 0.7452(6) 0.5006(7)
C74_3 C 0.7169(3) 0.7224(6) 0.5559(7)
H44_3 H 0.7441 0.7230 0.5698
Cd7_3 Cd 0.58656(2) 0.35109(2) 0.18854(2)
N7_3 N 0.79799(16) 0.8007(2) 0.4073(3)
O20_3 O 0.7505(2) 0.92743(18) 0.2995(3)
O21_3 O 0.7568(2) 0.90643(19) 0.3941(3)
H47_3 H 0.533877 0.597614 0.0855622
H50_3 H 0.712852 0.764816 0.474794
H52_3 H 0.832788 0.872795 0.326939
Cd1_2 Cd 0.44706(2) 0.75816(2) 0.71861(2)
Cd2_3 Cd 0.41344(2) 0.64891(2) 0.81146(2)
O1_3 O 0.40041(11) 0.75962(16) 0.7646(2)
O2_2 O 0.49924(11) 0.75378(14) 0.81546(18)
C2_3 C 0.29601(16) 0.7552(2) 0.6953(3)
H1_3 H 0.2915 0.7255 0.7144
O3_3 O 0.46749(11) 0.68339(15) 0.79838(19)
O4_3 O 0.10514(12) 0.72607(15) 0.38657(19)
C3_3 C 0.11037(16) 0.7716(2) 0.3894(3)
O5_3 O 0.08728(11) 0.80096(15) 0.34837(19)
C6_3 C 0.49344(15) 0.7107(2) 0.8341(3)
N2_3 N 0.24046(14) 0.85532(17) 0.5852(2)
O8_3 O 0.36178(12) 0.69960(16) 0.7692(2)
C10_3 C 0.14417(16) 0.8430(2) 0.4596(3)
H6_3 H 0.1222 0.8632 0.4393
C11_3 C 0.53719(15) 0.7296(2) 0.9454(3)
H7_3 H 0.5333 0.7639 0.9351
C12_3 C 0.55061(16) 0.6300(2) 0.9736(3)
H8_3 H 0.5561 0.5956 0.9823
C13_3 C 0.17781(16) 0.7663(2) 0.4675(3)
H9_3 H 0.1788 0.7331 0.4538
N3_3 N 0.43174(14) 0.68765(18) 0.9097(2)
C16_3 C 0.24161(16) 0.9068(2) 0.5986(3)
C17_3 C 0.27148(16) 0.8261(2) 0.6266(3)
C18_3 C 0.14428(16) 0.7939(2) 0.4397(3)
C20_3 C 0.17542(16) 0.8627(2) 0.5083(3)
H10_3 H 0.1741 0.8956 0.5228
C23_3 C 0.20961(16) 0.7865(2) 0.5148(3)
H11_3 H 0.2323 0.7671 0.5327
C25_3 C 0.36773(16) 0.7417(2) 0.7495(3)
C26_3 C 0.51855(15) 0.69392(19) 0.8991(3)
C29_3 C 0.2434(2) 0.9216(2) 0.6589(3)
H14_3 H 0.2432 0.8977 0.6900
C30_3 C 0.30922(17) 0.8429(2) 0.6409(3)
H15_3 H 0.3138 0.8731 0.6227
C34_3 C 0.26537(17) 0.7828(2) 0.6549(3)
H17_3 H 0.2398 0.7718 0.6465
C36_3 C 0.33392(16) 0.7716(2) 0.7078(3)
C39_3 C 0.45113(19) 0.7631(2) 0.9697(3)
H19_3 H 0.4504 0.7984 0.9700
C42_3 C 0.33961(16) 0.8158(2) 0.6810(3)
H21_3 H 0.3650 0.8276 0.6906
C45_3 C 0.20884(16) 0.8348(2) 0.5364(3)
C46_3 C 0.52515(17) 0.6443(2) 0.9148(3)
H24_3 H 0.5118 0.6197 0.8845
C49_3 C 0.45034(19) 0.6624(2) 0.9635(3)
H26_3 H 0.4501 0.6271 0.9616
C60_3 C 0.43202(18) 0.7374(2) 0.9140(3)
H32_3 H 0.4183 0.7560 0.8766
C66_3 C 0.2411(2) 0.9418(2) 0.5535(3)
H38_3 H 0.2398 0.9319 0.5122
C68_3 C 0.2425(2) 0.9922(2) 0.5696(4)
C75_3 C 0.2454(2) 0.9728(3) 0.6730(3)
H45_3 H 0.2473 0.9832 0.7145
O14_3 O 0.40041(17) 0.61603(19) 0.7127(2)
H46_3 H 0.4008 0.6391 0.6871
Cd4_2 Cd 0.55294(2) 0.75816(2) 0.78139(2)
O15_2 O 0.50076(11) 0.75378(14) 0.68454(18)
O16_3 O 0.39486(12) 0.77393(15) 0.61343(19)
O17_3 O 0.41272(11) 0.69904(15) 0.65163(19)
O18_3 O 0.37616(13) 0.58013(15) 0.8329(2)
O19_3 O 0.43819(13) 0.57368(15) 0.8568(2)
N8_3 N 0.44961(13) 0.84271(17) 0.7263(2)
H51_3 H 0.374607 0.600271 0.697608
C1_4 C 0.44762(17) 0.0539(2) 0.2354(3)
C31_4 C 0.75429(19) 0.0609(2) 0.8531(4)
C35_4 C 0.75524(19) 0.0074(2) 0.8708(3)
C53_4 C 0.46484(19) 0.1345(2) 0.2826(3)
H29_4 H 0.4763 0.1543 0.3197
C58_4 C 0.43397(19) 0.1290(2) 0.1746(3)
C63_4 C 0.4320(2) 0.0778(2) 0.1775(3)
H35_4 H 0.4200 0.0592 0.1395
O12_4 O 0.7505(2) 0.07257(18) 0.7995(3)
O13_4 O 0.7568(2) 0.09357(19) 0.8941(3)
C67_4 C 0.4648(2) 0.0833(2) 0.2899(3)
H39_4 H 0.7582 0.0165 0.9615
N6_4 N 0.44961(13) 0.15729(17) 0.2263(2)
H48_4 H 0.477833 0.0663296 0.33695
H49_4 H 0.422223 0.147 0.128015
O4_4 O 0.89486(12) 0.72607(15) 0.11343(19)
C3_4 C 0.88963(16) 0.7716(2) 0.1106(3)
O5_4 O 0.91272(11) 0.80096(15) 0.15163(19)
C10_4 C 0.85583(16) 0.8430(2) 0.0404(3)
H6_4 H 0.8778 0.8632 0.0607
C13_4 C 0.82219(16) 0.7663(2) 0.0325(3)
H9_4 H 0.8212 0.7331 0.0462
C18_4 C 0.85572(16) 0.7939(2) 0.0603(3)
Cd2_4 Cd 0.58656(2) 0.64891(2) 0.68854(2)
Cd3_4 Cd 0.24049(2) 0.84468(2) 0.17945(2)
O1_4 O 0.59959(11) 0.75962(16) 0.7354(2)
C2_4 C 0.70399(16) 0.7552(2) 0.8047(3)
H1_4 H 0.7085 0.7255 0.7856
O3_4 O 0.53251(11) 0.68339(15) 0.70162(19)
N1_4 N 0.40637(14) 0.65016(17) 0.4171(2)
C4_4 C 0.33203(17) 0.7491(2) 0.3572(3)
H2_4 H 0.3185 0.7720 0.3734
C5_4 C 0.47080(19) 0.7438(2) 0.3737(3)
H3_4 H 0.4630 0.7115 0.3814
C6_4 C 0.50656(15) 0.7107(2) 0.6659(3)
N2_4 N 0.75954(14) 0.85532(17) 0.9148(2)
O6_4 O 0.37616(13) 0.41987(15) 0.3329(2)
O7_4 O 0.18909(15) 0.85980(19) 0.2101(3)
H4_4 H 0.1825 0.8329 0.2231
C7_4 C 0.43882(15) 0.7155(2) 0.4938(3)
H5_4 H 0.4274 0.7401 0.4622
C8_4 C 0.40629(18) 0.4450(2) 0.3510(3)
O8_4 O 0.63822(12) 0.69960(16) 0.7308(2)
C9_4 C 0.40590(16) 0.5996(2) 0.3982(3)
C11_4 C 0.46281(15) 0.7296(2) 0.5546(3)
H7_4 H 0.4667 0.7639 0.5649
O9_4 O 0.43819(13) 0.42632(15) 0.3568(2)
C12_4 C 0.44939(16) 0.6300(2) 0.5264(3)
H8_4 H 0.4439 0.5956 0.5177
C14_4 C 0.43131(16) 0.6652(2) 0.4790(3)
N3_4 N 0.56826(14) 0.68765(18) 0.5903(2)
C15_4 C 0.37872(15) 0.6834(2) 0.3757(3)
C16_4 C 0.75839(16) 0.9068(2) 0.9014(3)
C17_4 C 0.72852(16) 0.8261(2) 0.8734(3)
O10_4 O 0.27464(13) 0.80682(17) 0.2713(2)
C19_4 C 0.44532(18) 0.9986(2) 0.2407(3)
C20_4 C 0.82458(16) 0.8627(2) 0.9917(3)
H10_4 H 0.8259 0.8956 0.9772
C21_4 C 0.32516(16) 0.7481(2) 0.2919(3)
C22_4 C 0.40531(17) 0.4989(2) 0.3662(3)
C23_4 C 0.79039(16) 0.7865(2) 0.9852(3)
H11_4 H 0.7677 0.7671 0.9673
C24_4 C 0.35866(16) 0.7166(2) 0.3989(3)
H12_4 H 0.3630 0.7172 0.4433
C25_4 C 0.63227(16) 0.7417(2) 0.7505(3)
C26_4 C 0.48145(15) 0.69392(19) 0.6009(3)
C27_4 C 0.29541(18) 0.7824(2) 0.2486(3)
O11_4 O 0.29122(14) 0.78557(19) 0.1908(2)
C28_4 C 0.37153(18) 0.5228(2) 0.3613(3)
H13_4 H 0.3480 0.5049 0.3465
C29_4 C 0.7566(2) 0.9216(2) 0.8411(3)
H14_4 H 0.7568 0.8977 0.8100
C30_4 C 0.69078(17) 0.8429(2) 0.8591(3)
H15_4 H 0.6862 0.8731 0.8773
C32_4 C 0.4479(2) 0.7704(2) 0.3208(3)
H16_4 H 0.4241 0.7567 0.2936
C33_4 C 0.43840(19) 0.8949(2) 0.2486(3)
C34_4 C 0.73463(17) 0.7828(2) 0.8451(3)
H17_4 H 0.7602 0.7718 0.8535
C36_4 C 0.66608(16) 0.7716(2) 0.7922(3)
C37_3 C 0.51622(19) 0.8100(2) 0.4010(3)
H18_3 H 0.5397 0.8242 0.4286
C38_4 C 0.45901(18) 0.8162(2) 0.3070(3)
C39_4 C 0.54887(19) 0.7631(2) 0.5303(3)
H19_4 H 0.5496 0.7984 0.5300
C40_4 C 0.43885(18) 0.5269(2) 0.3857(3)
H20_4 H 0.4622 0.5111 0.3889
C41_3 C 0.52844(17) 0.7374(2) 0.4742(3)
C42_4 C 0.66039(16) 0.8158(2) 0.8190(3)
H21_4 H 0.6350 0.8276 0.8094
N4_4 N 0.43526(18) 0.84281(18) 0.2528(3)
C43_4 C 0.4384(2) 0.9174(2) 0.1925(3)
H22_4 H 0.4360 0.8973 0.1565
C44_3 C 0.53010(19) 0.6851(2) 0.4783(3)
H23_3 H 0.5178 0.6654 0.4413
C45_4 C 0.79116(16) 0.8348(2) 0.9636(3)
C46_4 C 0.47485(17) 0.6443(2) 0.5852(3)
H24_4 H 0.4882 0.6197 0.6155
C47_3 C 0.50510(18) 0.7637(2) 0.4157(3)
C48_4 C 0.4418(2) 0.9679(2) 0.1887(3)
H25_4 H 0.4417 0.9823 0.1501
C49_4 C 0.54966(19) 0.6624(2) 0.5365(3)
H26_4 H 0.5499 0.6271 0.5384
C50_4 C 0.4256(2) 0.7773(3) 0.1734(3)
H27_4 H 0.4513 0.7665 0.1956
C51_4 C 0.37195(18) 0.6823(2) 0.3109(3)
H28_4 H 0.3857 0.6598 0.2946
C52_4 C 0.43942(18) 0.5766(2) 0.4007(3)
C54_4 C 0.4459(2) 0.9761(2) 0.2977(3)
H30_4 H 0.4489 0.9961 0.3341
C55_4 C 0.4114(2) 0.8160(2) 0.1974(3)
C56_4 C 0.3655(2) 0.7682(3) 0.0845(3)
C57_4 C 0.4032(2) 0.7532(3) 0.1169(3)
H31_4 H 0.4138 0.7267 0.1007
C59_4 C 0.3419(2) 0.7437(3) 0.0234(4)
C60_4 C 0.56798(18) 0.7374(2) 0.5860(3)
H32_4 H 0.5817 0.7560 0.6234
C61_4 C 0.34487(18) 0.7143(2) 0.2698(3)
H33_4 H 0.3399 0.7127 0.2252
C62_4 C 0.4939(2) 0.8355(2) 0.3477(3)
H34_3 H 0.5023 0.8669 0.3383
C64_4 C 0.37169(18) 0.5730(2) 0.3778(3)
H36_4 H 0.3484 0.5888 0.3751
C65_4 C 0.4420(2) 0.9249(2) 0.3010(3)
H37_4 H 0.4417 0.9102 0.3394
C66_4 C 0.7589(2) 0.9418(2) 0.9465(3)
H38_4 H 0.7602 0.9319 0.9878
C68_4 C 0.7575(2) 0.9922(2) 0.9304(4)
C69_4 C 0.3516(2) 0.8061(3) 0.1096(4)
H40_4 H 0.3259 0.8170 0.0880
C70_4 C 0.3740(2) 0.8296(3) 0.1662(4)
H41_4 H 0.3632 0.8553 0.1833
H42_4 H 0.3849 0.7144 0.0028
C75_4 C 0.7546(2) 0.9728(3) 0.8270(3)
H45_4 H 0.7527 0.9832 0.7855
O14_4 O 0.59959(17) 0.61603(19) 0.7873(2)
H46_4 H 0.5992 0.6391 0.8129
Cd7_4 Cd 0.41344(2) 0.35109(2) 0.31146(2)
O16_4 O 0.60514(12) 0.77393(15) 0.88657(19)
O17_4 O 0.58728(11) 0.69904(15) 0.84837(19)
O18_4 O 0.62384(13) 0.58013(15) 0.6671(2)
O19_4 O 0.56181(13) 0.57368(15) 0.6432(2)
N7_4 N 0.20201(16) 0.8007(2) 0.0927(3)
O20_4 O 0.2495(2) 0.92743(18) 0.2005(3)
O21_4 O 0.2432(2) 0.90643(19) 0.1059(3)
N8_4 N 0.55039(13) 0.84271(17) 0.7737(2)
H47_4 H 0.466123 0.597614 0.414438
H50_4 H 0.287148 0.764816 0.0252057
H51_4 H 0.625393 0.600271 0.802392
H52_4 H 0.167212 0.872795 0.173061
N5_4 N 0.29799(16) 0.6993(2) 0.9073(3)
C71_4 C 0.3578(2) 0.7183(4) 0.9875(4)
C72_4 C 0.3356(2) 0.6976(4) 0.9285(4)
H43_4 H 0.3480 0.6819 0.9034
C73_4 C 0.3025(3) 0.7452(6) 0.9994(7)
C74_4 C 0.2831(3) 0.7224(6) 0.9441(7)
H44_4 H 0.2559 0.7230 0.9302
O1_5 O 0.09959(11) 0.74038(16) 0.2354(2)
O2_3 O 0.00076(11) 0.74622(14) 0.18454(18)
C2_5 C 0.20399(16) 0.7448(2) 0.3047(3)
H1_5 H 0.2085 0.7745 0.2856
O3_5 O 0.03251(11) 0.81661(15) 0.20162(19)
C3_5 C 0.38963(16) 0.7284(2) 0.6106(3)
C6_5 C 0.00656(15) 0.7893(2) 0.1659(3)
N2_5 N 0.25954(14) 0.64468(17) 0.4148(2)
O8_5 O 0.13822(12) 0.80040(16) 0.2308(2)
C10_5 C 0.35583(16) 0.6570(2) 0.5404(3)
H6_5 H 0.3778 0.6368 0.5607
C13_5 C 0.32219(16) 0.7337(2) 0.5325(3)
H9_5 H 0.3212 0.7669 0.5462
N3_5 N 0.06826(14) 0.81235(18) 0.0903(2)
C16_5 C 0.25839(16) 0.5932(2) 0.4014(3)
C17_5 C 0.22852(16) 0.6739(2) 0.3734(3)
C18_5 C 0.35572(16) 0.7061(2) 0.5603(3)
C20_5 C 0.32458(16) 0.6373(2) 0.4917(3)
H10_5 H 0.3259 0.6044 0.4772
C23_5 C 0.29039(16) 0.7135(2) 0.4852(3)
H11_5 H 0.2677 0.7329 0.4673
C25_5 C 0.13227(16) 0.7583(2) 0.2505(3)
C29_5 C 0.2566(2) 0.5784(2) 0.3411(3)
H14_5 H 0.2568 0.6023 0.3100
C30_5 C 0.19078(17) 0.6571(2) 0.3591(3)
H15_5 H 0.1862 0.6269 0.3773
C31_5 C 0.25429(19) 0.4391(2) 0.3531(4)
C34_5 C 0.23463(17) 0.7172(2) 0.3451(3)
H17_5 H 0.2602 0.7282 0.3535
C35_5 C 0.25524(19) 0.4926(2) 0.3708(3)
C36_5 C 0.16608(16) 0.7284(2) 0.2922(3)
C39_5 C 0.04887(19) 0.7369(2) 0.0303(3)
H19_5 H 0.0496 0.7016 0.0300
C42_5 C 0.16039(16) 0.6842(2) 0.3190(3)
H21_5 H 0.1350 0.6724 0.3094
C45_5 C 0.29116(16) 0.6652(2) 0.4636(3)
C49_5 C 0.04966(19) 0.8376(2) 0.0365(3)
H26_5 H 0.0499 0.8729 0.0384
C60_5 C 0.06798(18) 0.7626(2) 0.0860(3)
H32_5 H 0.0817 0.7440 0.1234
C66_5 C 0.2589(2) 0.5582(2) 0.4465(3)
H38_5 H 0.2602 0.5681 0.4878
C68_5 C 0.2575(2) 0.5078(2) 0.4304(4)
H39_5 H 0.2582 0.4835 0.4615
C75_5 C 0.2546(2) 0.5272(3) 0.3270(3)
H45_5 H 0.2527 0.5168 0.2855
O14_5 O 0.09959(17) 0.88397(19) 0.2873(2)
H46_5 H 0.0992 0.8609 0.3129
H51_5 H 0.125393 0.899729 0.302392
C8_5 C 0.90629(18) 0.0550(2) 0.8510(3)
C22_5 C 0.90531(17) 0.0011(2) 0.8662(3)
C11_5 C 0.96281(15) 0.7704(2) 0.0546(3)
H7_5 H 0.9667 0.7361 0.0649
C12_5 C 0.94939(16) 0.8700(2) 0.0264(3)
H8_5 H 0.9439 0.9044 0.0177
C26_5 C 0.98145(15) 0.80608(19) 0.1009(3)
C46_5 C 0.97485(17) 0.8557(2) 0.0852(3)
H24_5 H 0.9882 0.8803 0.1155
O15_3 O 0.99924(11) 0.74622(14) 0.31546(18)
C1_5 C 0.94762(17) 0.4461(2) 0.7354(3)
N1_5 N 0.90637(14) 0.84984(17) 0.9171(2)
C4_5 C 0.83203(17) 0.7509(2) 0.8572(3)
H2_5 H 0.8185 0.7280 0.8734
C5_5 C 0.97080(19) 0.7562(2) 0.8737(3)
H3_5 H 0.9630 0.7885 0.8814
O7_5 O 0.68909(15) 0.64020(19) 0.7101(3)
H4_5 H 0.6825 0.6671 0.7231
C7_5 C 0.93882(15) 0.7845(2) 0.9938(3)
H5_5 H 0.9274 0.7599 0.9622
C9_5 C 0.90590(16) 0.9004(2) 0.8982(3)
C14_5 C 0.93131(16) 0.8348(2) 0.9790(3)
C15_5 C 0.87872(15) 0.8166(2) 0.8757(3)
O10_5 O 0.77464(13) 0.69318(17) 0.7713(2)
C19_5 C 0.94532(18) 0.5014(2) 0.7407(3)
C21_5 C 0.82516(16) 0.7519(2) 0.7919(3)
C24_5 C 0.85866(16) 0.7834(2) 0.8989(3)
H12_5 H 0.8630 0.7828 0.9433
C27_5 C 0.79541(18) 0.7176(2) 0.7486(3)
O11_5 O 0.79122(14) 0.71443(19) 0.6908(2)
C28_5 C 0.87153(18) 0.9772(2) 0.8613(3)
H13_5 H 0.8480 0.9951 0.8465
C32_5 C 0.9479(2) 0.7296(2) 0.8208(3)
H16_5 H 0.9241 0.7433 0.7936
C33_5 C 0.93840(19) 0.6051(2) 0.7486(3)
C38_5 C 0.95901(18) 0.6838(2) 0.8070(3)
C40_5 C 0.93885(18) 0.9731(2) 0.8857(3)
H20_5 H 0.9622 0.9889 0.8889
N4_5 N 0.93526(18) 0.65719(18) 0.7528(3)
C43_5 C 0.9384(2) 0.5826(2) 0.6925(3)
H22_5 H 0.9360 0.6027 0.6565
C48_5 C 0.9418(2) 0.5321(2) 0.6887(3)
H25_5 H 0.9417 0.5177 0.6501
C50_5 C 0.9256(2) 0.7227(3) 0.6734(3)
H27_5 H 0.9513 0.7335 0.6956
C51_5 C 0.87195(18) 0.8177(2) 0.8109(3)
H28_5 H 0.8857 0.8402 0.7946
C52_5 C 0.93942(18) 0.9234(2) 0.9007(3)
C53_5 C 0.96484(19) 0.3655(2) 0.7826(3)
H29_5 H 0.9763 0.3457 0.8197
C54_5 C 0.9459(2) 0.5239(2) 0.7977(3)
H30_5 H 0.9489 0.5039 0.8341
C55_5 C 0.9114(2) 0.6840(2) 0.6974(3)
C56_5 C 0.8655(2) 0.7318(3) 0.5845(3)
C57_5 C 0.9032(2) 0.7468(3) 0.6169(3)
H31_5 H 0.9138 0.7733 0.6007
C58_5 C 0.93397(19) 0.3710(2) 0.6746(3)
C59_5 C 0.8419(2) 0.7563(3) 0.5234(4)
C61_5 C 0.84487(18) 0.7857(2) 0.7698(3)
H33_5 H 0.8399 0.7873 0.7252
C62_5 C 0.9939(2) 0.6645(2) 0.8477(3)
C63_5 C 0.9320(2) 0.4222(2) 0.6775(3)
H35_5 H 0.9200 0.4408 0.6395
C64_5 C 0.87169(18) 0.9270(2) 0.8778(3)
H36_5 H 0.8484 0.9112 0.8751
C65_5 C 0.9420(2) 0.5751(2) 0.8010(3)
H37_5 H 0.9417 0.5898 0.8394
C67_5 C 0.9648(2) 0.4167(2) 0.7899(3)
C69_5 C 0.8516(2) 0.6939(3) 0.6096(4)
H40_5 H 0.8259 0.6830 0.5880
C70_5 C 0.8740(2) 0.6704(3) 0.6662(4)
H41_5 H 0.8632 0.6447 0.6833
C71_5 C 0.8578(2) 0.7817(4) 0.4875(4)
H42_5 H 0.8849 0.7856 0.5028
C72_5 C 0.8356(2) 0.8024(4) 0.4285(4)
H43_5 H 0.8480 0.8181 0.4034
C73_5 C 0.8025(3) 0.7548(6) 0.4994(7)
C74_5 C 0.7831(3) 0.7776(6) 0.4441(7)
H44_5 H 0.7559 0.7770 0.4302
H47_5 H 0.966123 0.902386 0.914438
H48_5 H 0.977833 0.43367 0.83695
H49_5 H 0.922223 0.353 0.628015
H50_5 H 0.787148 0.735184 0.525206
H52_5 H 0.667212 0.627205 0.673061
C8_6 C 0.09371(18) 0.0550(2) 0.6490(3)
C22_6 C 0.09469(17) 0.0011(2) 0.6338(3)
C71_6 C 0.1422(2) 0.7817(4) 0.0125(4)
C72_6 C 0.1644(2) 0.8024(4) 0.0715(4)
H43_6 H 0.1520 0.8181 0.0966
C73_6 C 0.1975(3) 0.7548(6) 0.0006(7)
C74_6 C 0.2169(3) 0.7776(6) 0.0559(7)
H44_6 H 0.2441 0.7770 0.0698
C1_6 C 0.05238(17) 0.4461(2) 0.7646(3)
N1_6 N 0.09363(14) 0.84984(17) 0.5829(2)
C4_6 C 0.16797(17) 0.7509(2) 0.6428(3)
H2_6 H 0.1815 0.7280 0.6266
C5_6 C 0.02920(19) 0.7562(2) 0.6263(3)
H3_6 H 0.0370 0.7885 0.6186
O7_6 O 0.31091(15) 0.64020(19) 0.7899(3)
H4_6 H 0.3175 0.6671 0.7769
C7_6 C 0.06118(15) 0.7845(2) 0.5062(3)
H5_6 H 0.0726 0.7599 0.5378
C9_6 C 0.09410(16) 0.9004(2) 0.6018(3)
C11_6 C 0.03719(15) 0.7704(2) 0.4454(3)
H7_6 H 0.0333 0.7361 0.4351
C12_6 C 0.05061(16) 0.8700(2) 0.4736(3)
H8_6 H 0.0561 0.9044 0.4823
C14_6 C 0.06869(16) 0.8348(2) 0.5210(3)
C15_6 C 0.12128(15) 0.8166(2) 0.6243(3)
O10_6 O 0.22536(13) 0.69318(17) 0.7287(2)
C19_6 C 0.05468(18) 0.5014(2) 0.7593(3)
C21_6 C 0.17484(16) 0.7519(2) 0.7081(3)
C24_6 C 0.14134(16) 0.7834(2) 0.6011(3)
H12_6 H 0.1370 0.7828 0.5567
C26_6 C 0.01855(15) 0.80608(19) 0.3991(3)
C27_6 C 0.20459(18) 0.7176(2) 0.7514(3)
O11_6 O 0.20878(14) 0.71443(19) 0.8092(2)
C28_6 C 0.12847(18) 0.9772(2) 0.6387(3)
H13_6 H 0.1520 0.9951 0.6535
C32_6 C 0.0521(2) 0.7296(2) 0.6792(3)
H16_6 H 0.0759 0.7433 0.7064
C33_6 C 0.06160(19) 0.6051(2) 0.7514(3)
C38_6 C 0.04099(18) 0.6838(2) 0.6930(3)
C40_6 C 0.06115(18) 0.9731(2) 0.6143(3)
H20_6 H 0.0378 0.9889 0.6111
N4_6 N 0.06474(18) 0.65719(18) 0.7472(3)
C43_6 C 0.0616(2) 0.5826(2) 0.8075(3)
H22_6 H 0.0640 0.6027 0.8435
C46_6 C 0.02515(17) 0.8557(2) 0.4148(3)
H24_6 H 0.0118 0.8803 0.3845
C48_6 C 0.0582(2) 0.5321(2) 0.8113(3)
H25_6 H 0.0583 0.5177 0.8499
C50_6 C 0.0744(2) 0.7227(3) 0.8266(3)
H27_6 H 0.0487 0.7335 0.8044
C51_6 C 0.12805(18) 0.8177(2) 0.6891(3)
H28_6 H 0.1143 0.8402 0.7054
C52_6 C 0.06058(18) 0.9234(2) 0.5993(3)
C53_6 C 0.03516(19) 0.3655(2) 0.7174(3)
H29_6 H 0.0237 0.3457 0.6803
C54_6 C 0.0541(2) 0.5239(2) 0.7023(3)
H30_6 H 0.0511 0.5039 0.6659
C55_6 C 0.0886(2) 0.6840(2) 0.8026(3)
C56_6 C 0.1345(2) 0.7318(3) 0.9155(3)
C57_6 C 0.0968(2) 0.7468(3) 0.8831(3)
H31_6 H 0.0862 0.7733 0.8993
C58_6 C 0.06603(19) 0.3710(2) 0.8254(3)
C59_6 C 0.1581(2) 0.7563(3) 0.9766(4)
C61_6 C 0.15513(18) 0.7857(2) 0.7302(3)
H33_6 H 0.1601 0.7873 0.7748
C62_6 C 0.0061(2) 0.6645(2) 0.6523(3)
C63_6 C 0.0680(2) 0.4222(2) 0.8225(3)
H35_6 H 0.0800 0.4408 0.8605
C64_6 C 0.12831(18) 0.9270(2) 0.6222(3)
H36_6 H 0.1516 0.9112 0.6249
C65_6 C 0.0580(2) 0.5751(2) 0.6990(3)
H37_6 H 0.0583 0.5898 0.6606
C67_6 C 0.0352(2) 0.4167(2) 0.7101(3)
C69_6 C 0.1484(2) 0.6939(3) 0.8904(4)
H40_6 H 0.1741 0.6830 0.9120
C70_6 C 0.1260(2) 0.6704(3) 0.8338(4)
H41_6 H 0.1368 0.6447 0.8167
H42_6 H 0.1151 0.7856 0.9972
H47_6 H 0.0338768 0.902386 0.585562
H48_6 H 0.0221668 0.43367 0.66305
H49_6 H 0.0777769 0.353 0.871985
H50_6 H 0.212852 0.735184 0.974794
H52_6 H 0.332788 0.627205 0.826939
O1_6 O 0.90041(11) 0.74038(16) 0.2646(2)
C2_6 C 0.79601(16) 0.7448(2) 0.1953(3)
H1_6 H 0.7915 0.7745 0.2144
O3_6 O 0.96749(11) 0.81661(15) 0.29838(19)
C6_6 C 0.99344(15) 0.7893(2) 0.3341(3)
N2_6 N 0.74046(14) 0.64468(17) 0.0852(2)
O8_6 O 0.86178(12) 0.80040(16) 0.2692(2)
N3_6 N 0.93174(14) 0.81235(18) 0.4097(2)
C16_6 C 0.74161(16) 0.5932(2) 0.0986(3)
C17_6 C 0.77148(16) 0.6739(2) 0.1266(3)
C20_6 C 0.67542(16) 0.6373(2) 0.0083(3)
H10_6 H 0.6741 0.6044 0.0228
C23_6 C 0.70961(16) 0.7135(2) 0.0148(3)
H11_6 H 0.7323 0.7329 0.0327
C25_6 C 0.86773(16) 0.7583(2) 0.2495(3)
C29_6 C 0.7434(2) 0.5784(2) 0.1589(3)
H14_6 H 0.7432 0.6023 0.1900
C30_6 C 0.80922(17) 0.6571(2) 0.1409(3)
H15_6 H 0.8138 0.6269 0.1227
C31_6 C 0.74571(19) 0.4391(2) 0.1469(4)
C34_6 C 0.76537(17) 0.7172(2) 0.1549(3)
H17_6 H 0.7398 0.7282 0.1465
C35_6 C 0.74476(19) 0.4926(2) 0.1292(3)
C36_6 C 0.83392(16) 0.7284(2) 0.2078(3)
C37_4 C 0.98378(19) 0.6900(2) 0.5990(3)
H18_4 H 0.9603 0.6758 0.5714
C39_6 C 0.95113(19) 0.7369(2) 0.4697(3)
H19_6 H 0.9504 0.7016 0.4700
C41_4 C 0.97156(17) 0.7626(2) 0.5258(3)
C42_6 C 0.83961(16) 0.6842(2) 0.1810(3)
H21_6 H 0.8650 0.6724 0.1906
C44_4 C 0.96990(19) 0.8149(2) 0.5217(3)
H23_4 H 0.9822 0.8346 0.5587
C45_6 C 0.70884(16) 0.6652(2) 0.0364(3)
C47_4 C 0.99490(18) 0.7363(2) 0.5843(3)
C49_6 C 0.95034(19) 0.8376(2) 0.4635(3)
H26_6 H 0.9501 0.8729 0.4616
C60_6 C 0.93202(18) 0.7626(2) 0.4140(3)
H32_6 H 0.9183 0.7440 0.3766
H34_4 H 0.9977 0.6331 0.6617
C66_6 C 0.7411(2) 0.5582(2) 0.0535(3)
H38_6 H 0.7398 0.5681 0.0122
C68_6 C 0.7425(2) 0.5078(2) 0.0696(4)
H39_6 H 0.7418 0.4835 0.0385
C75_6 C 0.7454(2) 0.5272(3) 0.1730(3)
H45_6 H 0.7473 0.5168 0.2145
O14_6 O 0.90041(17) 0.88397(19) 0.2127(2)
H46_6 H 0.9008 0.8609 0.1871
H51_6 H 0.874607 0.899729 0.197608
C3_6 C 0.61037(16) 0.7284(2) 0.8894(3)
C10_6 C 0.64417(16) 0.6570(2) 0.9596(3)
H6_6 H 0.6222 0.6368 0.9393
C13_6 C 0.67781(16) 0.7337(2) 0.9675(3)
H9_6 H 0.6788 0.7669 0.9538
C18_6 C 0.64428(16) 0.7061(2) 0.9397(3)
O1_7 O 0.59959(11) 0.24038(16) 0.2354(2)
O2_4 O 0.50076(11) 0.24622(14) 0.18454(18)
C2_7 C 0.70399(16) 0.2448(2) 0.3047(3)
H1_7 H 0.7085 0.2745 0.2856
O3_7 O 0.53251(11) 0.31661(15) 0.20162(19)
C3_7 C 0.88963(16) 0.2284(2) 0.6106(3)
C6_7 C 0.50656(15) 0.2893(2) 0.1659(3)
N2_7 N 0.75954(14) 0.14468(17) 0.4148(2)
O8_7 O 0.63822(12) 0.30040(16) 0.2308(2)
C10_7 C 0.85583(16) 0.1570(2) 0.5404(3)
H6_7 H 0.8778 0.1368 0.5607
C11_7 C 0.46281(15) 0.2704(2) 0.0546(3)
H7_7 H 0.4667 0.2361 0.0649
C12_7 C 0.44939(16) 0.3700(2) 0.0264(3)
H8_7 H 0.4439 0.4044 0.0177
C13_7 C 0.82219(16) 0.2337(2) 0.5325(3)
H9_7 H 0.8212 0.2669 0.5462
N3_7 N 0.56826(14) 0.31235(18) 0.0903(2)
C16_7 C 0.75839(16) 0.0932(2) 0.4014(3)
C17_7 C 0.72852(16) 0.1739(2) 0.3734(3)
C18_7 C 0.85572(16) 0.2061(2) 0.5603(3)
C20_7 C 0.82458(16) 0.1373(2) 0.4917(3)
H10_7 H 0.8259 0.1044 0.4772
C23_7 C 0.79039(16) 0.2135(2) 0.4852(3)
H11_7 H 0.7677 0.2329 0.4673
C25_7 C 0.63227(16) 0.2583(2) 0.2505(3)
C26_7 C 0.48145(15) 0.30608(19) 0.1009(3)
C29_7 C 0.7566(2) 0.0784(2) 0.3411(3)
H14_7 H 0.7568 0.1023 0.3100
C30_7 C 0.69078(17) 0.1571(2) 0.3591(3)
H15_7 H 0.6862 0.1269 0.3773
C34_7 C 0.73463(17) 0.2172(2) 0.3451(3)
H17_7 H 0.7602 0.2282 0.3535
C36_7 C 0.66608(16) 0.2284(2) 0.2922(3)
C39_7 C 0.54887(19) 0.2369(2) 0.0303(3)
H19_7 H 0.5496 0.2016 0.0300
C42_7 C 0.66039(16) 0.1842(2) 0.3190(3)
H21_7 H 0.6350 0.1724 0.3094
C45_7 C 0.79116(16) 0.1652(2) 0.4636(3)
C46_7 C 0.47485(17) 0.3557(2) 0.0852(3)
H24_7 H 0.4882 0.3803 0.1155
C49_7 C 0.54966(19) 0.3376(2) 0.0365(3)
H26_7 H 0.5499 0.3729 0.0384
C60_7 C 0.56798(18) 0.2626(2) 0.0860(3)
H32_7 H 0.5817 0.2440 0.1234
C66_7 C 0.7589(2) 0.0582(2) 0.4465(3)
H38_7 H 0.7602 0.0681 0.4878
C68_7 C 0.7575(2) 0.0078(2) 0.4304(4)
C75_7 C 0.7546(2) 0.0272(3) 0.3270(3)
H45_7 H 0.7527 0.0168 0.2855
O14_7 O 0.59959(17) 0.38397(19) 0.2873(2)
H46_7 H 0.5992 0.3609 0.3129
O15_4 O 0.49924(11) 0.24622(14) 0.31546(18)
H51_7 H 0.625393 0.399729 0.302392
N1_7 N 0.40637(14) 0.34984(17) 0.9171(2)
C4_7 C 0.33203(17) 0.2509(2) 0.8572(3)
H2_7 H 0.3185 0.2280 0.8734
C5_7 C 0.47080(19) 0.2562(2) 0.8737(3)
H3_7 H 0.4630 0.2885 0.8814
O7_7 O 0.18909(15) 0.14020(19) 0.7101(3)
H4_7 H 0.1825 0.1671 0.7231
C7_7 C 0.43882(15) 0.2845(2) 0.9938(3)
H5_7 H 0.4274 0.2599 0.9622
C8_7 C 0.40629(18) 0.5550(2) 0.8510(3)
C9_7 C 0.40590(16) 0.4004(2) 0.8982(3)
C14_7 C 0.43131(16) 0.3348(2) 0.9790(3)
C15_7 C 0.37872(15) 0.3166(2) 0.8757(3)
O10_7 O 0.27464(13) 0.19318(17) 0.7713(2)
C19_7 C 0.44532(18) 0.0014(2) 0.7407(3)
C21_7 C 0.32516(16) 0.2519(2) 0.7919(3)
C22_7 C 0.40531(17) 0.5011(2) 0.8662(3)
C24_7 C 0.35866(16) 0.2834(2) 0.8989(3)
H12_7 H 0.3630 0.2828 0.9433
C27_7 C 0.29541(18) 0.2176(2) 0.7486(3)
O11_7 O 0.29122(14) 0.21443(19) 0.6908(2)
C28_7 C 0.37153(18) 0.4772(2) 0.8613(3)
H13_7 H 0.3480 0.4951 0.8465
C32_7 C 0.4479(2) 0.2296(2) 0.8208(3)
H16_7 H 0.4241 0.2433 0.7936
C33_7 C 0.43840(19) 0.1051(2) 0.7486(3)
C37_5 C 0.51622(19) 0.1900(2) 0.9010(3)
H18_5 H 0.5397 0.1758 0.9286
C38_7 C 0.45901(18) 0.1838(2) 0.8070(3)
C40_7 C 0.43885(18) 0.4731(2) 0.8857(3)
H20_7 H 0.4622 0.4889 0.8889
C41_5 C 0.52844(17) 0.2626(2) 0.9742(3)
N4_7 N 0.43526(18) 0.15719(18) 0.7528(3)
C43_7 C 0.4384(2) 0.0826(2) 0.6925(3)
H22_7 H 0.4360 0.1027 0.6565
C44_5 C 0.53010(19) 0.3149(2) 0.9783(3)
H23_5 H 0.5178 0.3346 0.9413
C47_5 C 0.50510(18) 0.2363(2) 0.9157(3)
C48_7 C 0.4418(2) 0.0321(2) 0.6887(3)
H25_7 H 0.4417 0.0177 0.6501
C50_7 C 0.4256(2) 0.2227(3) 0.6734(3)
H27_7 H 0.4513 0.2335 0.6956
C51_7 C 0.37195(18) 0.3177(2) 0.8109(3)
H28_7 H 0.3857 0.3402 0.7946
C52_7 C 0.43942(18) 0.4234(2) 0.9007(3)
C54_7 C 0.4459(2) 0.0239(2) 0.7977(3)
H30_7 H 0.4489 0.0039 0.8341
C55_7 C 0.4114(2) 0.1840(2) 0.6974(3)
C56_7 C 0.3655(2) 0.2318(3) 0.5845(3)
C57_7 C 0.4032(2) 0.2468(3) 0.6169(3)
H31_7 H 0.4138 0.2733 0.6007
C59_7 C 0.3419(2) 0.2563(3) 0.5234(4)
C61_7 C 0.34487(18) 0.2857(2) 0.7698(3)
H33_7 H 0.3399 0.2873 0.7252
C62_7 C 0.4939(2) 0.1645(2) 0.8477(3)
H34_5 H 0.5023 0.1331 0.8383
C64_7 C 0.37169(18) 0.4270(2) 0.8778(3)
H36_7 H 0.3484 0.4112 0.8751
C65_7 C 0.4420(2) 0.0751(2) 0.8010(3)
H37_7 H 0.4417 0.0898 0.8394
C69_7 C 0.3516(2) 0.1939(3) 0.6096(4)
H40_7 H 0.3259 0.1830 0.5880
C70_7 C 0.3740(2) 0.1704(3) 0.6662(4)
H41_7 H 0.3632 0.1447 0.6833
C71_7 C 0.3578(2) 0.2817(4) 0.4875(4)
H42_7 H 0.3849 0.2856 0.5028
C72_7 C 0.3356(2) 0.3024(4) 0.4285(4)
H43_7 H 0.3480 0.3181 0.4034
C73_7 C 0.3025(3) 0.2548(6) 0.4994(7)
C74_7 C 0.2831(3) 0.2776(6) 0.4441(7)
H44_7 H 0.2559 0.2770 0.4302
H47_7 H 0.466123 0.402386 0.914438
H50_7 H 0.287148 0.235184 0.525206
H52_7 H 0.167212 0.127205 0.673061
C31_7 C 0.75429(19) 0.9391(2) 0.3531(4)
C35_7 C 0.75524(19) 0.9926(2) 0.3708(3)
H39_7 H 0.7582 0.9835 0.4615
C1_7 C 0.44762(17) 0.9461(2) 0.7354(3)
C53_7 C 0.46484(19) 0.8655(2) 0.7826(3)
H29_7 H 0.4763 0.8457 0.8197
C58_7 C 0.43397(19) 0.8710(2) 0.6746(3)
C63_7 C 0.4320(2) 0.9222(2) 0.6775(3)
H35_7 H 0.4200 0.9408 0.6395
C67_7 C 0.4648(2) 0.9167(2) 0.7899(3)
H48_7 H 0.477833 0.93367 0.83695
H49_7 H 0.422223 0.853 0.628015
C71_8 C 0.6422(2) 0.2817(4) 0.0125(4)
C72_8 C 0.6644(2) 0.3024(4) 0.0715(4)
H43_8 H 0.6520 0.3181 0.0966
C73_8 C 0.6975(3) 0.2548(6) 0.0006(7)
C74_8 C 0.7169(3) 0.2776(6) 0.0559(7)
H44_8 H 0.7441 0.2770 0.0698
O1_8 O 0.40041(11) 0.24038(16) 0.2646(2)
C2_8 C 0.29601(16) 0.2448(2) 0.1953(3)
H1_8 H 0.2915 0.2745 0.2144
O3_8 O 0.46749(11) 0.31661(15) 0.29838(19)
N1_8 N 0.59363(14) 0.34984(17) 0.5829(2)
C4_8 C 0.66797(17) 0.2509(2) 0.6428(3)
H2_8 H 0.6815 0.2280 0.6266
C5_8 C 0.52920(19) 0.2562(2) 0.6263(3)
H3_8 H 0.5370 0.2885 0.6186
C6_8 C 0.49344(15) 0.2893(2) 0.3341(3)
N2_8 N 0.24046(14) 0.14468(17) 0.0852(2)
O7_8 O 0.81091(15) 0.14020(19) 0.7899(3)
H4_8 H 0.8175 0.1671 0.7769
C7_8 C 0.56118(15) 0.2845(2) 0.5062(3)
H5_8 H 0.5726 0.2599 0.5378
C8_8 C 0.59371(18) 0.5550(2) 0.6490(3)
O8_8 O 0.36178(12) 0.30040(16) 0.2692(2)
C9_8 C 0.59410(16) 0.4004(2) 0.6018(3)
C11_8 C 0.53719(15) 0.2704(2) 0.4454(3)
H7_8 H 0.5333 0.2361 0.4351
C12_8 C 0.55061(16) 0.3700(2) 0.4736(3)
H8_8 H 0.5561 0.4044 0.4823
C14_8 C 0.56869(16) 0.3348(2) 0.5210(3)
N3_8 N 0.43174(14) 0.31235(18) 0.4097(2)
C15_8 C 0.62128(15) 0.3166(2) 0.6243(3)
C16_8 C 0.24161(16) 0.0932(2) 0.0986(3)
C17_8 C 0.27148(16) 0.1739(2) 0.1266(3)
O10_8 O 0.72536(13) 0.19318(17) 0.7287(2)
C19_8 C 0.55468(18) 0.0014(2) 0.7593(3)
C20_8 C 0.17542(16) 0.1373(2) 0.0083(3)
H10_8 H 0.1741 0.1044 0.0228
C21_8 C 0.67484(16) 0.2519(2) 0.7081(3)
C22_8 C 0.59469(17) 0.5011(2) 0.6338(3)
C23_8 C 0.20961(16) 0.2135(2) 0.0148(3)
H11_8 H 0.2323 0.2329 0.0327
C24_8 C 0.64134(16) 0.2834(2) 0.6011(3)
H12_8 H 0.6370 0.2828 0.5567
C25_8 C 0.36773(16) 0.2583(2) 0.2495(3)
C26_8 C 0.51855(15) 0.30608(19) 0.3991(3)
C27_8 C 0.70459(18) 0.2176(2) 0.7514(3)
O11_8 O 0.70878(14) 0.21443(19) 0.8092(2)
C28_8 C 0.62847(18) 0.4772(2) 0.6387(3)
H13_8 H 0.6520 0.4951 0.6535
C29_8 C 0.2434(2) 0.0784(2) 0.1589(3)
H14_8 H 0.2432 0.1023 0.1900
C30_8 C 0.30922(17) 0.1571(2) 0.1409(3)
H15_8 H 0.3138 0.1269 0.1227
C32_8 C 0.5521(2) 0.2296(2) 0.6792(3)
H16_8 H 0.5759 0.2433 0.7064
C33_8 C 0.56160(19) 0.1051(2) 0.7514(3)
C34_8 C 0.26537(17) 0.2172(2) 0.1549(3)
H17_8 H 0.2398 0.2282 0.1465
C36_8 C 0.33392(16) 0.2284(2) 0.2078(3)
C37_6 C 0.48378(19) 0.1900(2) 0.5990(3)
H18_6 H 0.4603 0.1758 0.5714
C38_8 C 0.54099(18) 0.1838(2) 0.6930(3)
C39_8 C 0.45113(19) 0.2369(2) 0.4697(3)
H19_8 H 0.4504 0.2016 0.4700
C40_8 C 0.56115(18) 0.4731(2) 0.6143(3)
H20_8 H 0.5378 0.4889 0.6111
C41_6 C 0.47156(17) 0.2626(2) 0.5258(3)
C42_8 C 0.33961(16) 0.1842(2) 0.1810(3)
H21_8 H 0.3650 0.1724 0.1906
N4_8 N 0.56474(18) 0.15719(18) 0.7472(3)
C43_8 C 0.5616(2) 0.0826(2) 0.8075(3)
H22_8 H 0.5640 0.1027 0.8435
C44_6 C 0.46990(19) 0.3149(2) 0.5217(3)
H23_6 H 0.4822 0.3346 0.5587
C45_8 C 0.20884(16) 0.1652(2) 0.0364(3)
C46_8 C 0.52515(17) 0.3557(2) 0.4148(3)
H24_8 H 0.5118 0.3803 0.3845
C47_6 C 0.49490(18) 0.2363(2) 0.5843(3)
C48_8 C 0.5582(2) 0.0321(2) 0.8113(3)
H25_8 H 0.5583 0.0177 0.8499
C49_8 C 0.45034(19) 0.3376(2) 0.4635(3)
H26_8 H 0.4501 0.3729 0.4616
C50_8 C 0.5744(2) 0.2227(3) 0.8266(3)
H27_8 H 0.5487 0.2335 0.8044
C51_8 C 0.62805(18) 0.3177(2) 0.6891(3)
H28_8 H 0.6143 0.3402 0.7054
C52_8 C 0.56058(18) 0.4234(2) 0.5993(3)
C54_8 C 0.5541(2) 0.0239(2) 0.7023(3)
H30_8 H 0.5511 0.0039 0.6659
C55_8 C 0.5886(2) 0.1840(2) 0.8026(3)
C56_8 C 0.6345(2) 0.2318(3) 0.9155(3)
C57_8 C 0.5968(2) 0.2468(3) 0.8831(3)
H31_8 H 0.5862 0.2733 0.8993
C59_8 C 0.6581(2) 0.2563(3) 0.9766(4)
C60_8 C 0.43202(18) 0.2626(2) 0.4140(3)
H32_8 H 0.4183 0.2440 0.3766
C61_8 C 0.65513(18) 0.2857(2) 0.7302(3)
H33_8 H 0.6601 0.2873 0.7748
C62_8 C 0.5061(2) 0.1645(2) 0.6523(3)
H34_6 H 0.4977 0.1331 0.6617
C64_8 C 0.62831(18) 0.4270(2) 0.6222(3)
H36_8 H 0.6516 0.4112 0.6249
C65_8 C 0.5580(2) 0.0751(2) 0.6990(3)
H37_8 H 0.5583 0.0898 0.6606
C66_8 C 0.2411(2) 0.0582(2) 0.0535(3)
H38_8 H 0.2398 0.0681 0.0122
C68_8 C 0.2425(2) 0.0078(2) 0.0696(4)
C69_8 C 0.6484(2) 0.1939(3) 0.8904(4)
H40_8 H 0.6741 0.1830 0.9120
C70_8 C 0.6260(2) 0.1704(3) 0.8338(4)
H41_8 H 0.6368 0.1447 0.8167
H42_8 H 0.6151 0.2856 0.9972
C75_8 C 0.2454(2) 0.0272(3) 0.1730(3)
H45_8 H 0.2473 0.0168 0.2145
O14_8 O 0.40041(17) 0.38397(19) 0.2127(2)
H46_8 H 0.4008 0.3609 0.1871
H47_8 H 0.533877 0.402386 0.585562
H50_8 H 0.712852 0.235184 0.974794
H51_8 H 0.374607 0.399729 0.197608
H52_8 H 0.832788 0.127205 0.826939
C3_8 C 0.11037(16) 0.2284(2) 0.8894(3)
C10_8 C 0.14417(16) 0.1570(2) 0.9596(3)
H6_8 H 0.1222 0.1368 0.9393
C13_8 C 0.17781(16) 0.2337(2) 0.9675(3)
H9_8 H 0.1788 0.2669 0.9538
C18_8 C 0.14428(16) 0.2061(2) 0.9397(3)
C1_8 C 0.55238(17) 0.9461(2) 0.7646(3)
C31_8 C 0.24571(19) 0.9391(2) 0.1469(4)
C35_8 C 0.24476(19) 0.9926(2) 0.1292(3)
C53_8 C 0.53516(19) 0.8655(2) 0.7174(3)
H29_8 H 0.5237 0.8457 0.6803
C58_8 C 0.56603(19) 0.8710(2) 0.8254(3)
C63_8 C 0.5680(2) 0.9222(2) 0.8225(3)
H35_8 H 0.5800 0.9408 0.8605
C67_8 C 0.5352(2) 0.9167(2) 0.7101(3)
H39_8 H 0.2418 0.9835 0.0385
H48_8 H 0.522167 0.93367 0.66305
H49_8 H 0.577777 0.853 0.871985
C37_7 C 0.98378(19) 0.3100(2) 0.0990(3)
H18_7 H 0.9603 0.3242 0.0714
C41_7 C 0.97156(17) 0.2374(2) 0.0258(3)
C44_7 C 0.96990(19) 0.1851(2) 0.0217(3)
H23_7 H 0.9822 0.1654 0.0587
C47_7 C 0.99490(18) 0.2637(2) 0.0843(3)
H34_7 H 0.9977 0.3669 0.1617
C37_8 C 0.01622(19) 0.6900(2) 0.9010(3)
H18_8 H 0.0397 0.6758 0.9286
C41_8 C 0.02844(17) 0.7626(2) 0.9742(3)
C44_8 C 0.03010(19) 0.8149(2) 0.9783(3)
H23_8 H 0.0178 0.8346 0.9413
C47_8 C 0.00510(18) 0.7363(2) 0.9157(3)
H34_8 H 0.0023 0.6331 0.8383
loop_
_geom_bond_atom_site_label_1
_geom_bond_atom_site_label_2
_geom_bond_site_symmetry_1
_geom_bond_site_symmetry_2
Cd3 O7 1_555 1_555
C1 C19 1_555 1_555
N1 C9 1_555 1_555
C4 H2 1_555 1_555
C5 H3 1_555 1_555
O7 H4 1_555 1_555
C7 H5 1_555 1_555
C9 C52 1_555 1_555
C14 N1 1_555 1_555
C15 N1 1_555 1_555
O10 Cd3 1_555 1_555
C19 C48 1_555 1_555
C21 C4 1_555 1_555
C24 C4 1_555 1_555
H12 C24 1_555 1_555
C27 O10 1_555 1_555
O11 Cd3 1_555 1_555
H13 C28 1_555 1_555
C32 C5 1_555 1_555
H16 C32 1_555 1_555
C33 N4 1_555 1_555
C38 C32 1_555 1_555
H20 C40 1_555 1_555
N4 C38 1_555 1_555
C43 C33 1_555 1_555
H22 C43 1_555 1_555
N5 C72 1_555 1_555
C48 C43 1_555 1_555
H25 C48 1_555 1_555
C50 H27 1_555 1_555
C51 C15 1_555 1_555
H28 C51 1_555 1_555
C52 C40 1_555 1_555
C53 H29 1_555 1_555
C54 C19 1_555 1_555
H30 C54 1_555 1_555
C55 N4 1_555 1_555
C56 C57 1_555 1_555
C57 C50 1_555 1_555
H31 C57 1_555 1_555
C58 C63 1_555 1_555
C59 C56 1_555 1_555
C61 C21 1_555 1_555
H33 C61 1_555 1_555
C63 C1 1_555 1_555
H35 C63 1_555 1_555
C64 C9 1_555 1_555
H36 C64 1_555 1_555
C65 C33 1_555 1_555
H37 C65 1_555 1_555
C67 C1 1_555 1_555
C69 C56 1_555 1_555
H40 C69 1_555 1_555
C70 C55 1_555 1_555
H41 C70 1_555 1_555
N6 C53 1_555 1_555
C71 C59 1_555 1_555
H42 C71 1_555 1_555
C72 C71 1_555 1_555
H43 C72 1_555 1_555
C73 C59 1_555 1_555
C74 N5 1_555 1_555
H44 C74 1_555 1_555
Cd5 N6 1_555 1_555
Cd9 N5 1_555 1_555
N7 Cd3 1_555 1_555
O20 Cd3 1_555 1_555
O21 Cd3 1_555 1_555
C7 C14 1_555 1_555
C15 C24 1_555 1_555
C21 C27 1_555 1_555
C27 O11 1_555 1_555
C28 C64 1_555 1_555
C38 C62 1_555 1_555
C50 C55 1_555 1_555
C51 C61 1_555 1_555
C53 C67 1_555 1_555
C54 C65 1_555 1_555
C58 N6 1_555 1_555
C69 C70 1_555 1_555
C73 C74 1_555 1_555
C52 H47 1_555 1_555
C67 H48 1_555 1_555
C58 H49 1_555 1_555
C73 H50 1_555 1_555
O7 H52 1_555 1_555
H7 C11 1_555 1_555
C12 H8 1_555 1_555
C46 C12 1_555 1_555
H24 C46 1_555 1_555
C11 C26 1_555 1_555
C26 C46 1_555 1_555
Cd4 O15 1_555 1_555
O6 C8 1_555 1_555
C8 O9 1_555 1_555
O9 Cd7 1_555 1_555
C22 C8 1_555 1_555
Cd7 O6 1_555 1_555
Cd1 O1 1_555 1_555
Cd2 O3 1_555 1_555
O1 C25 1_555 1_555
O2 Cd1 1_555 1_555
C2 H1 1_555 1_555
O3 Cd1 1_555 1_555
O4 C3 1_555 1_555
C3 O5 1_555 1_555
O5 Cd6 1_555 1_555
C6 O2 1_555 1_555
N2 C16 1_555 1_555
O8 Cd2 1_555 1_555
C10 H6 1_555 1_555
C13 H9 1_555 1_555
N3 Cd2 1_555 1_555
C16 C29 1_555 1_555
C17 N2 1_555 1_555
C18 C3 1_555 1_555
C20 C10 1_555 1_555
H10 C20 1_555 1_555
C23 C13 1_555 1_555
H11 C23 1_555 1_555
C25 O8 1_555 1_555
C29 H14 1_555 1_555
C30 C17 1_555 1_555
H15 C30 1_555 1_555
C31 C35 1_555 1_555
C34 C2 1_555 1_555
H17 C34 1_555 1_555
C35 C68 1_555 1_555
C36 C2 1_555 1_555
C39 H19 1_555 1_555
C42 C30 1_555 1_555
H21 C42 1_555 1_555
C45 N2 1_555 1_555
C49 N3 1_555 1_555
H26 C49 1_555 1_555
C60 N3 1_555 1_555
H32 C60 1_555 1_555
O12 C31 1_555 1_555
O13 C31 1_555 1_555
C66 C16 1_555 1_555
H38 C66 1_555 1_555
C68 C66 1_555 1_555
H39 C68 1_555 1_555
C75 C29 1_555 1_555
H45 C75 1_555 1_555
O14 Cd2 1_555 1_555
H46 O14 1_555 1_555
Cd6 O4 1_555 1_555
Cd8 O12 1_555 1_555
O16 Cd1 1_555 1_555
O17 Cd1 1_555 1_555
O18 Cd2 1_555 1_555
O19 Cd2 1_555 1_555
N8 Cd1 1_555 1_555
O3 C6 1_555 1_555
C10 C18 1_555 1_555
C13 C18 1_555 1_555
C17 C34 1_555 1_555
C20 C45 1_555 1_555
C23 C45 1_555 1_555
C25 C36 1_555 1_555
C35 C75 1_555 1_555
C36 C42 1_555 1_555
C39 C60 1_555 1_555
O13 Cd8 1_555 1_555
O14 H51 1_555 1_555
O4_2 C3_2 1_555 1_555
C3_2 O5_2 1_555 1_555
O5_2 Cd6_2 1_555 1_555
C10_2 H6_2 1_555 1_555
C13_2 H9_2 1_555 1_555
C18_2 C3_2 1_555 1_555
Cd6_2 O4_2 1_555 1_555
C10_2 C18_2 1_555 1_555
C13_2 C18_2 1_555 1_555
Cd4 O1_2 1_555 1_555
Cd2_2 O3_2 1_555 1_555
O1_2 C25_2 1_555 1_555
C2_2 H1_2 1_555 1_555
O3_2 Cd4 1_555 1_555
C6_2 O15 1_555 1_555
N2_2 C16_2 1_555 1_555
O8_2 Cd2_2 1_555 1_555
N3_2 Cd2_2 1_555 1_555
C16_2 C29_2 1_555 1_555
C17_2 N2_2 1_555 1_555
H10_2 C20_2 1_555 1_555
H11_2 C23_2 1_555 1_555
C25_2 O8_2 1_555 1_555
C29_2 H14_2 1_555 1_555
C30_2 C17_2 1_555 1_555
H15_2 C30_2 1_555 1_555
C31_2 C35_2 1_555 1_555
C34_2 C2_2 1_555 1_555
H17_2 C34_2 1_555 1_555
C35_2 C68_2 1_555 1_555
C36_2 C2_2 1_555 1_555
C37 H18 1_555 1_555
C39_2 H19_2 1_555 1_555
C41 C39_2 1_555 1_555
C42_2 C30_2 1_555 1_555
H21_2 C42_2 1_555 1_555
C44 C41 1_555 1_555
H23 C44 1_555 1_555
C45_2 N2_2 1_555 1_555
C49_2 N3_2 1_555 1_555
H26_2 C49_2 1_555 1_555
C60_2 N3_2 1_555 1_555
H32_2 C60_2 1_555 1_555
O12_2 C31_2 1_555 1_555
O13_2 C31_2 1_555 1_555
C66_2 C16_2 1_555 1_555
H38_2 C66_2 1_555 1_555
C68_2 C66_2 1_555 1_555
H39_2 C68_2 1_555 1_555
C75_2 C29_2 1_555 1_555
H45_2 C75_2 1_555 1_555
O14_2 Cd2_2 1_555 1_555
H46_2 O14_2 1_555 1_555
Cd8_2 O12_2 1_555 1_555
O16_2 Cd4 1_555 1_555
O17_2 Cd4 1_555 1_555
O18_2 Cd2_2 1_555 1_555
O19_2 Cd2_2 1_555 1_555
N8_2 Cd4 1_555 1_555
O3_2 C6_2 1_555 1_555
C17_2 C34_2 1_555 1_555
C20_2 C45_2 1_555 1_555
C23_2 C45_2 1_555 1_555
C25_2 C36_2 1_555 1_555
C35_2 C75_2 1_555 1_555
C36_2 C42_2 1_555 1_555
C37 C47 1_555 1_555
C39_2 C60_2 1_555 1_555
C41 C47 1_555 1_555
C44 C49_2 1_555 1_555
O13_2 Cd8_2 1_555 1_555
O14_2 H51_2 1_555 1_555
Cd3_2 O7_2 1_555 1_555
C1_2 C19_2 1_555 1_555
N1_2 C9_2 1_555 1_555
C4_2 H2_2 1_555 1_555
C5_2 H3_2 1_555 1_555
O7_2 H4_2 1_555 1_555
C7_2 H5_2 1_555 1_555
C9_2 C52_2 1_555 1_555
C11_2 C7_2 1_555 1_555
H7_2 C11_2 1_555 1_555
C12_2 H8_2 1_555 1_555
C14_2 N1_2 1_555 1_555
C15_2 N1_2 1_555 1_555
O10_2 Cd3_2 1_555 1_555
C19_2 C48_2 1_555 1_555
C21_2 C4_2 1_555 1_555
C24_2 C4_2 1_555 1_555
H12_2 C24_2 1_555 1_555
C27_2 O10_2 1_555 1_555
O11_2 Cd3_2 1_555 1_555
H13_2 C28_2 1_555 1_555
C32_2 C5_2 1_555 1_555
H16_2 C32_2 1_555 1_555
C33_2 N4_2 1_555 1_555
C38_2 C32_2 1_555 1_555
H20_2 C40_2 1_555 1_555
N4_2 C38_2 1_555 1_555
C43_2 C33_2 1_555 1_555
H22_2 C43_2 1_555 1_555
C46_2 C12_2 1_555 1_555
H24_2 C46_2 1_555 1_555
C48_2 C43_2 1_555 1_555
H25_2 C48_2 1_555 1_555
C50_2 H27_2 1_555 1_555
C51_2 C15_2 1_555 1_555
H28_2 C51_2 1_555 1_555
C52_2 C40_2 1_555 1_555
C53_2 H29_2 1_555 1_555
C54_2 C19_2 1_555 1_555
H30_2 C54_2 1_555 1_555
C55_2 N4_2 1_555 1_555
C56_2 C57_2 1_555 1_555
C57_2 C50_2 1_555 1_555
H31_2 C57_2 1_555 1_555
C58_2 C63_2 1_555 1_555
C59_2 C56_2 1_555 1_555
C61_2 C21_2 1_555 1_555
H33_2 C61_2 1_555 1_555
C63_2 C1_2 1_555 1_555
H35_2 C63_2 1_555 1_555
C64_2 C9_2 1_555 1_555
H36_2 C64_2 1_555 1_555
C65_2 C33_2 1_555 1_555
H37_2 C65_2 1_555 1_555
C67_2 C1_2 1_555 1_555
C69_2 C56_2 1_555 1_555
H40_2 C69_2 1_555 1_555
C70_2 C55_2 1_555 1_555
H41_2 C70_2 1_555 1_555
N6_2 C53_2 1_555 1_555
Cd5_2 N6_2 1_555 1_555
N7_2 Cd3_2 1_555 1_555
O20_2 Cd3_2 1_555 1_555
O21_2 Cd3_2 1_555 1_555
C7_2 C14_2 1_555 1_555
C11_2 C26_2 1_555 1_555
C12_2 C14_2 1_555 1_555
C15_2 C24_2 1_555 1_555
C21_2 C27_2 1_555 1_555
C26_2 C46_2 1_555 1_555
C27_2 O11_2 1_555 1_555
C28_2 C64_2 1_555 1_555
C38_2 C62_2 1_555 1_555
C50_2 C55_2 1_555 1_555
C51_2 C61_2 1_555 1_555
C53_2 C67_2 1_555 1_555
C54_2 C65_2 1_555 1_555
C58_2 N6_2 1_555 1_555
C69_2 C70_2 1_555 1_555
C52_2 H47_2 1_555 1_555
C67_2 H48_2 1_555 1_555
C58_2 H49_2 1_555 1_555
O7_2 H52_2 1_555 1_555
N5_2 C72_2 1_555 1_555
C72_2 C71_2 1_555 1_555
H43_2 C72_2 1_555 1_555
C74_2 N5_2 1_555 1_555
H44_2 C74_2 1_555 1_555
Cd9_2 N5_2 1_555 1_555
C73_2 C74_2 1_555 1_555
O6_2 C8_2 1_555 1_555
C8_2 O9_2 1_555 1_555
O9_2 Cd7_2 1_555 1_555
C22_2 C8_2 1_555 1_555
Cd7_2 O6_2 1_555 1_555
C53_3 H29_3 1_555 1_555
C58_3 C63_3 1_555 1_555
C63_3 C1_3 1_555 1_555
H35_3 C63_3 1_555 1_555
C67_3 C1_3 1_555 1_555
N6_3 C53_3 1_555 1_555
Cd6 N6_3 1_555 1_555
C53_3 C67_3 1_555 1_555
C58_3 N6_3 1_555 1_555
C67_3 H48_3 1_555 1_555
C58_3 H49_3 1_555 1_555
C31_3 C35_3 1_555 1_555
O12_3 C31_3 1_555 1_555
O13_3 C31_3 1_555 1_555
Cd9 O12_3 1_555 1_555
O13_3 Cd9 1_555 1_555
Cd3_3 O7_3 1_555 1_555
N1_3 C9_3 1_555 1_555
C4_3 H2_3 1_555 1_555
C5_3 H3_3 1_555 1_555
O6_3 C8_3 1_555 1_555
O7_3 H4_3 1_555 1_555
C7_3 H5_3 1_555 1_555
C8_3 O9_3 1_555 1_555
C9_3 C52_3 1_555 1_555
O9_3 Cd7_3 1_555 1_555
C14_3 N1_3 1_555 1_555
C15_3 N1_3 1_555 1_555
O10_3 Cd3_3 1_555 1_555
C19_3 C48_3 1_555 1_555
C21_3 C4_3 1_555 1_555
C22_3 C8_3 1_555 1_555
C24_3 C4_3 1_555 1_555
H12_3 C24_3 1_555 1_555
C27_3 O10_3 1_555 1_555
O11_3 Cd3_3 1_555 1_555
C28_3 C22_3 1_555 1_555
H13_3 C28_3 1_555 1_555
C32_3 C5_3 1_555 1_555
H16_3 C32_3 1_555 1_555
C33_3 N4_3 1_555 1_555
C37_2 H18_2 1_555 1_555
C38_3 C32_3 1_555 1_555
C40_3 C22_3 1_555 1_555
H20_3 C40_3 1_555 1_555
N4_3 C38_3 1_555 1_555
C43_3 C33_3 1_555 1_555
H22_3 C43_3 1_555 1_555
C44_2 C41_2 1_555 1_555
H23_2 C44_2 1_555 1_555
C47_2 C5_3 1_555 1_555
N5_3 C72_3 1_555 1_555
C48_3 C43_3 1_555 1_555
H25_3 C48_3 1_555 1_555
C50_3 H27_3 1_555 1_555
C51_3 C15_3 1_555 1_555
H28_3 C51_3 1_555 1_555
C52_3 C40_3 1_555 1_555
C54_3 C19_3 1_555 1_555
H30_3 C54_3 1_555 1_555
C55_3 N4_3 1_555 1_555
C56_3 C57_3 1_555 1_555
C57_3 C50_3 1_555 1_555
H31_3 C57_3 1_555 1_555
C59_3 C56_3 1_555 1_555
C61_3 C21_3 1_555 1_555
H33_3 C61_3 1_555 1_555
C62_3 C37_2 1_555 1_555
H34_2 C62_3 1_555 1_555
C64_3 C9_3 1_555 1_555
H36_3 C64_3 1_555 1_555
C65_3 C33_3 1_555 1_555
H37_3 C65_3 1_555 1_555
C69_3 C56_3 1_555 1_555
H40_3 C69_3 1_555 1_555
C70_3 C55_3 1_555 1_555
H41_3 C70_3 1_555 1_555
C71_3 C59_3 1_555 1_555
H42_3 C71_3 1_555 1_555
C72_3 C71_3 1_555 1_555
H43_3 C72_3 1_555 1_555
C73_3 C59_3 1_555 1_555
C74_3 N5_3 1_555 1_555
H44_3 C74_3 1_555 1_555
Cd7_3 O6_3 1_555 1_555
Cd8 N5_3 1_555 1_555
N7_3 Cd3_3 1_555 1_555
O20_3 Cd3_3 1_555 1_555
O21_3 Cd3_3 1_555 1_555
C7_3 C14_3 1_555 1_555
C15_3 C24_3 1_555 1_555
C21_3 C27_3 1_555 1_555
C27_3 O11_3 1_555 1_555
C28_3 C64_3 1_555 1_555
C37_2 C47_2 1_555 1_555
C38_3 C62_3 1_555 1_555
C41_2 C47_2 1_555 1_555
C50_3 C55_3 1_555 1_555
C51_3 C61_3 1_555 1_555
C54_3 C65_3 1_555 1_555
C69_3 C70_3 1_555 1_555
C73_3 C74_3 1_555 1_555
C52_3 H47_3 1_555 1_555
C73_3 H50_3 1_555 1_555
O7_3 H52_3 1_555 1_555
Cd1_2 O1_3 1_555 1_555
Cd2_3 O3_3 1_555 1_555
O1_3 C25_3 1_555 1_555
O2_2 Cd1_2 1_555 1_555
C2_3 H1_3 1_555 1_555
O3_3 Cd1_2 1_555 1_555
O4_3 C3_3 1_555 1_555
C3_3 O5_3 1_555 1_555
O5_3 Cd5 1_555 1_555
C6_3 O2_2 1_555 1_555
N2_3 C16_3 1_555 1_555
O8_3 Cd2_3 1_555 1_555
C10_3 H6_3 1_555 1_555
H7_3 C11_3 1_555 1_555
C12_3 H8_3 1_555 1_555
C13_3 H9_3 1_555 1_555
N3_3 Cd2_3 1_555 1_555
C16_3 C29_3 1_555 1_555
C17_3 N2_3 1_555 1_555
C18_3 C3_3 1_555 1_555
C20_3 C10_3 1_555 1_555
H10_3 C20_3 1_555 1_555
C23_3 C13_3 1_555 1_555
H11_3 C23_3 1_555 1_555
C25_3 O8_3 1_555 1_555
C26_3 C6_3 1_555 1_555
C29_3 H14_3 1_555 1_555
C30_3 C17_3 1_555 1_555
H15_3 C30_3 1_555 1_555
C34_3 C2_3 1_555 1_555
H17_3 C34_3 1_555 1_555
C36_3 C2_3 1_555 1_555
C39_3 H19_3 1_555 1_555
C42_3 C30_3 1_555 1_555
H21_3 C42_3 1_555 1_555
C45_3 N2_3 1_555 1_555
C46_3 C12_3 1_555 1_555
H24_3 C46_3 1_555 1_555
C49_3 N3_3 1_555 1_555
H26_3 C49_3 1_555 1_555
C60_3 N3_3 1_555 1_555
H32_3 C60_3 1_555 1_555
C66_3 C16_3 1_555 1_555
H38_3 C66_3 1_555 1_555
C68_3 C66_3 1_555 1_555
C75_3 C29_3 1_555 1_555
H45_3 C75_3 1_555 1_555
O14_3 Cd2_3 1_555 1_555
H46_3 O14_3 1_555 1_555
Cd4_2 O2_2 1_555 1_555
Cd5 O4_3 1_555 1_555
O15_2 Cd1_2 1_555 1_555
O16_3 Cd1_2 1_555 1_555
O17_3 Cd1_2 1_555 1_555
O18_3 Cd2_3 1_555 1_555
O19_3 Cd2_3 1_555 1_555
N8_3 Cd1_2 1_555 1_555
O3_3 C6_3 1_555 1_555
C10_3 C18_3 1_555 1_555
C11_3 C26_3 1_555 1_555
C13_3 C18_3 1_555 1_555
C17_3 C34_3 1_555 1_555
C20_3 C45_3 1_555 1_555
C23_3 C45_3 1_555 1_555
C25_3 C36_3 1_555 1_555
C26_3 C46_3 1_555 1_555
C36_3 C42_3 1_555 1_555
C39_3 C60_3 1_555 1_555
Cd4_2 O15_2 1_555 1_555
O14_3 H51_3 1_555 1_555
C31_4 C35_4 1_555 1_555
C53_4 H29_4 1_555 1_555
C58_4 C63_4 1_555 1_555
C63_4 C1_4 1_555 1_555
H35_4 C63_4 1_555 1_555
O12_4 C31_4 1_555 1_555
O13_4 C31_4 1_555 1_555
C67_4 C1_4 1_555 1_555
N6_4 C53_4 1_555 1_555
Cd6_2 N6_4 1_555 1_555
Cd9_2 O12_4 1_555 1_555
C53_4 C67_4 1_555 1_555
C58_4 N6_4 1_555 1_555
O13_4 Cd9_2 1_555 1_555
C67_4 H48_4 1_555 1_555
C58_4 H49_4 1_555 1_555
O4_4 C3_4 1_555 1_555
C3_4 O5_4 1_555 1_555
O5_4 Cd5_2 1_555 1_555
C10_4 H6_4 1_555 1_555
C13_4 H9_4 1_555 1_555
C18_4 C3_4 1_555 1_555
Cd5_2 O4_4 1_555 1_555
C10_4 C18_4 1_555 1_555
C13_4 C18_4 1_555 1_555
Cd4_2 O1_4 1_555 1_555
Cd2_4 O3_4 1_555 1_555
Cd3_4 O7_4 1_555 1_555
O1_4 C25_4 1_555 1_555
C2_4 H1_4 1_555 1_555
O3_4 Cd4_2 1_555 1_555
N1_4 C9_4 1_555 1_555
C4_4 H2_4 1_555 1_555
C5_4 H3_4 1_555 1_555
C6_4 O15_2 1_555 1_555
N2_4 C16_4 1_555 1_555
O6_4 C8_4 1_555 1_555
O7_4 H4_4 1_555 1_555
C7_4 H5_4 1_555 1_555
C8_4 O9_4 1_555 1_555
O8_4 Cd2_4 1_555 1_555
C9_4 C52_4 1_555 1_555
C11_4 C7_4 1_555 1_555
H7_4 C11_4 1_555 1_555
O9_4 Cd7_4 1_555 1_555
C12_4 H8_4 1_555 1_555
C14_4 N1_4 1_555 1_555
N3_4 Cd2_4 1_555 1_555
C15_4 N1_4 1_555 1_555
C16_4 C29_4 1_555 1_555
C17_4 N2_4 1_555 1_555
O10_4 Cd3_4 1_555 1_555
C19_4 C48_4 1_555 1_555
H10_4 C20_4 1_555 1_555
C21_4 C4_4 1_555 1_555
C22_4 C8_4 1_555 1_555
H11_4 C23_4 1_555 1_555
C24_4 C4_4 1_555 1_555
H12_4 C24_4 1_555 1_555
C25_4 O8_4 1_555 1_555
C26_4 C6_4 1_555 1_555
C27_4 O10_4 1_555 1_555
O11_4 Cd3_4 1_555 1_555
C28_4 C22_4 1_555 1_555
H13_4 C28_4 1_555 1_555
C29_4 H14_4 1_555 1_555
C30_4 C17_4 1_555 1_555
H15_4 C30_4 1_555 1_555
C32_4 C5_4 1_555 1_555
H16_4 C32_4 1_555 1_555
C33_4 N4_4 1_555 1_555
C34_4 C2_4 1_555 1_555
H17_4 C34_4 1_555 1_555
C36_4 C2_4 1_555 1_555
C37_3 H18_3 1_555 1_555
C38_4 C32_4 1_555 1_555
C39_4 H19_4 1_555 1_555
C40_4 C22_4 1_555 1_555
H20_4 C40_4 1_555 1_555
C41_3 C39_4 1_555 1_555
C42_4 C30_4 1_555 1_555
H21_4 C42_4 1_555 1_555
N4_4 C38_4 1_555 1_555
C43_4 C33_4 1_555 1_555
H22_4 C43_4 1_555 1_555
C44_3 C41_3 1_555 1_555
H23_3 C44_3 1_555 1_555
C45_4 N2_4 1_555 1_555
C46_4 C12_4 1_555 1_555
H24_4 C46_4 1_555 1_555
C47_3 C5_4 1_555 1_555
C48_4 C43_4 1_555 1_555
H25_4 C48_4 1_555 1_555
C49_4 N3_4 1_555 1_555
H26_4 C49_4 1_555 1_555
C50_4 H27_4 1_555 1_555
C51_4 C15_4 1_555 1_555
H28_4 C51_4 1_555 1_555
C52_4 C40_4 1_555 1_555
C54_4 C19_4 1_555 1_555
H30_4 C54_4 1_555 1_555
C55_4 N4_4 1_555 1_555
C56_4 C57_4 1_555 1_555
C57_4 C50_4 1_555 1_555
H31_4 C57_4 1_555 1_555
C59_4 C56_4 1_555 1_555
C60_4 N3_4 1_555 1_555
H32_4 C60_4 1_555 1_555
C61_4 C21_4 1_555 1_555
H33_4 C61_4 1_555 1_555
C62_4 C37_3 1_555 1_555
H34_3 C62_4 1_555 1_555
C64_4 C9_4 1_555 1_555
H36_4 C64_4 1_555 1_555
C65_4 C33_4 1_555 1_555
H37_4 C65_4 1_555 1_555
C66_4 C16_4 1_555 1_555
H38_4 C66_4 1_555 1_555
C68_4 C66_4 1_555 1_555
C69_4 C56_4 1_555 1_555
H40_4 C69_4 1_555 1_555
C70_4 C55_4 1_555 1_555
H41_4 C70_4 1_555 1_555
C75_4 C29_4 1_555 1_555
H45_4 C75_4 1_555 1_555
O14_4 Cd2_4 1_555 1_555
H46_4 O14_4 1_555 1_555
Cd7_4 O6_4 1_555 1_555
O16_4 Cd4_2 1_555 1_555
O17_4 Cd4_2 1_555 1_555
O18_4 Cd2_4 1_555 1_555
O19_4 Cd2_4 1_555 1_555
N7_4 Cd3_4 1_555 1_555
O20_4 Cd3_4 1_555 1_555
O21_4 Cd3_4 1_555 1_555
N8_4 Cd4_2 1_555 1_555
O3_4 C6_4 1_555 1_555
C7_4 C14_4 1_555 1_555
C11_4 C26_4 1_555 1_555
C12_4 C14_4 1_555 1_555
C15_4 C24_4 1_555 1_555
C17_4 C34_4 1_555 1_555
C20_4 C45_4 1_555 1_555
C21_4 C27_4 1_555 1_555
C23_4 C45_4 1_555 1_555
C25_4 C36_4 1_555 1_555
C26_4 C46_4 1_555 1_555
C27_4 O11_4 1_555 1_555
C28_4 C64_4 1_555 1_555
C36_4 C42_4 1_555 1_555
C37_3 C47_3 1_555 1_555
C38_4 C62_4 1_555 1_555
C39_4 C60_4 1_555 1_555
C41_3 C47_3 1_555 1_555
C44_3 C49_4 1_555 1_555
C50_4 C55_4 1_555 1_555
C51_4 C61_4 1_555 1_555
C54_4 C65_4 1_555 1_555
C69_4 C70_4 1_555 1_555
C52_4 H47_4 1_555 1_555
O14_4 H51_4 1_555 1_555
O7_4 H52_4 1_555 1_555
N5_4 C72_4 1_555 1_555
C72_4 C71_4 1_555 1_555
H43_4 C72_4 1_555 1_555
C74_4 N5_4 1_555 1_555
H44_4 C74_4 1_555 1_555
Cd8_2 N5_4 1_555 1_555
C73_4 C74_4 1_555 1_555
Cd5 O1_5 1_555 1_555
Cd7 O3_5 1_555 1_555
O1_5 C25_5 1_555 1_555
O2_3 Cd5 1_555 1_555
C2_5 H1_5 1_555 1_555
O3_5 Cd5 1_555 1_555
O16_3 C3_5 1_555 1_555
C3_5 O17_3 1_555 1_555
C6_5 O2_3 1_555 1_555
N2_5 C16_5 1_555 1_555
O8_5 Cd7 1_555 1_555
C10_5 H6_5 1_555 1_555
C13_5 H9_5 1_555 1_555
N3_5 Cd7 1_555 1_555
C16_5 C29_5 1_555 1_555
C17_5 N2_5 1_555 1_555
C18_5 C3_5 1_555 1_555
C20_5 C10_5 1_555 1_555
H10_5 C20_5 1_555 1_555
C23_5 C13_5 1_555 1_555
H11_5 C23_5 1_555 1_555
C25_5 O8_5 1_555 1_555
C29_5 H14_5 1_555 1_555
C30_5 C17_5 1_555 1_555
H15_5 C30_5 1_555 1_555
C31_5 C35_5 1_555 1_555
C34_5 C2_5 1_555 1_555
H17_5 C34_5 1_555 1_555
C35_5 C68_5 1_555 1_555
C36_5 C2_5 1_555 1_555
C39_5 H19_5 1_555 1_555
C42_5 C30_5 1_555 1_555
H21_5 C42_5 1_555 1_555
C45_5 N2_5 1_555 1_555
C49_5 N3_5 1_555 1_555
H26_5 C49_5 1_555 1_555
C60_5 N3_5 1_555 1_555
H32_5 C60_5 1_555 1_555
O20 C31_5 1_555 1_555
O21 C31_5 1_555 1_555
C66_5 C16_5 1_555 1_555
H38_5 C66_5 1_555 1_555
C68_5 C66_5 1_555 1_555
H39_5 C68_5 1_555 1_555
C75_5 C29_5 1_555 1_555
H45_5 C75_5 1_555 1_555
O14_5 Cd7 1_555 1_555
H46_5 O14_5 1_555 1_555
O3_5 C6_5 1_555 1_555
C10_5 C18_5 1_555 1_555
C13_5 C18_5 1_555 1_555
C17_5 C34_5 1_555 1_555
C20_5 C45_5 1_555 1_555
C23_5 C45_5 1_555 1_555
C25_5 C36_5 1_555 1_555
C35_5 C75_5 1_555 1_555
C36_5 C42_5 1_555 1_555
C39_5 C60_5 1_555 1_555
O14_5 H51_5 1_555 1_555
O18 C8_5 1_555 1_555
C8_5 O19 1_555 1_555
C22_5 C8_5 1_555 1_555
H7_5 C11_5 1_555 1_555
C12_5 H8_5 1_555 1_555
C46_5 C12_5 1_555 1_555
H24_5 C46_5 1_555 1_555
C11_5 C26_5 1_555 1_555
C26_5 C46_5 1_555 1_555
Cd5_2 O15_3 1_555 1_555
Cd8 O7_5 1_555 1_555
C1_5 C19_5 1_555 1_555
N1_5 C9_5 1_555 1_555
C4_5 H2_5 1_555 1_555
C5_5 H3_5 1_555 1_555
O7_5 H4_5 1_555 1_555
C7_5 H5_5 1_555 1_555
C9_5 C52_5 1_555 1_555
C14_5 N1_5 1_555 1_555
C15_5 N1_5 1_555 1_555
O10_5 Cd8 1_555 1_555
C19_5 C48_5 1_555 1_555
C21_5 C4_5 1_555 1_555
C24_5 C4_5 1_555 1_555
H12_5 C24_5 1_555 1_555
C27_5 O10_5 1_555 1_555
O11_5 Cd8 1_555 1_555
H13_5 C28_5 1_555 1_555
C32_5 C5_5 1_555 1_555
H16_5 C32_5 1_555 1_555
C33_5 N4_5 1_555 1_555
C38_5 C32_5 1_555 1_555
H20_5 C40_5 1_555 1_555
N4_5 C38_5 1_555 1_555
C43_5 C33_5 1_555 1_555
H22_5 C43_5 1_555 1_555
N7_3 C72_5 1_555 1_555
C48_5 C43_5 1_555 1_555
H25_5 C48_5 1_555 1_555
C50_5 H27_5 1_555 1_555
C51_5 C15_5 1_555 1_555
H28_5 C51_5 1_555 1_555
C52_5 C40_5 1_555 1_555
C53_5 H29_5 1_555 1_555
C54_5 C19_5 1_555 1_555
H30_5 C54_5 1_555 1_555
C55_5 N4_5 1_555 1_555
C56_5 C57_5 1_555 1_555
C57_5 C50_5 1_555 1_555
H31_5 C57_5 1_555 1_555
C58_5 C63_5 1_555 1_555
C59_5 C56_5 1_555 1_555
C61_5 C21_5 1_555 1_555
H33_5 C61_5 1_555 1_555
C63_5 C1_5 1_555 1_555
H35_5 C63_5 1_555 1_555
C64_5 C9_5 1_555 1_555
H36_5 C64_5 1_555 1_555
C65_5 C33_5 1_555 1_555
H37_5 C65_5 1_555 1_555
C67_5 C1_5 1_555 1_555
C69_5 C56_5 1_555 1_555
H40_5 C69_5 1_555 1_555
C70_5 C55_5 1_555 1_555
H41_5 C70_5 1_555 1_555
N8 C53_5 1_555 1_555
C71_5 C59_5 1_555 1_555
H42_5 C71_5 1_555 1_555
C72_5 C71_5 1_555 1_555
H43_5 C72_5 1_555 1_555
C73_5 C59_5 1_555 1_555
C74_5 N7_3 1_555 1_555
H44_5 C74_5 1_555 1_555
C7_5 C14_5 1_555 1_555
C15_5 C24_5 1_555 1_555
C21_5 C27_5 1_555 1_555
C27_5 O11_5 1_555 1_555
C28_5 C64_5 1_555 1_555
C38_5 C62_5 1_555 1_555
C50_5 C55_5 1_555 1_555
C51_5 C61_5 1_555 1_555
C53_5 C67_5 1_555 1_555
C54_5 C65_5 1_555 1_555
C58_5 N8 1_555 1_555
C69_5 C70_5 1_555 1_555
C73_5 C74_5 1_555 1_555
C52_5 H47_5 1_555 1_555
C67_5 H48_5 1_555 1_555
C58_5 H49_5 1_555 1_555
C73_5 H50_5 1_555 1_555
O7_5 H52_5 1_555 1_555
O18_2 C8_6 1_555 1_555
C8_6 O19_2 1_555 1_555
C22_6 C8_6 1_555 1_555
N7_4 C72_6 1_555 1_555
C72_6 C71_6 1_555 1_555
H43_6 C72_6 1_555 1_555
C74_6 N7_4 1_555 1_555
H44_6 C74_6 1_555 1_555
C73_6 C74_6 1_555 1_555
Cd8_2 O7_6 1_555 1_555
C1_6 C19_6 1_555 1_555
N1_6 C9_6 1_555 1_555
C4_6 H2_6 1_555 1_555
C5_6 H3_6 1_555 1_555
O7_6 H4_6 1_555 1_555
C7_6 H5_6 1_555 1_555
C9_6 C52_6 1_555 1_555
C11_6 C7_6 1_555 1_555
H7_6 C11_6 1_555 1_555
C12_6 H8_6 1_555 1_555
C14_6 N1_6 1_555 1_555
C15_6 N1_6 1_555 1_555
O10_6 Cd8_2 1_555 1_555
C19_6 C48_6 1_555 1_555
C21_6 C4_6 1_555 1_555
C24_6 C4_6 1_555 1_555
H12_6 C24_6 1_555 1_555
C27_6 O10_6 1_555 1_555
O11_6 Cd8_2 1_555 1_555
H13_6 C28_6 1_555 1_555
C32_6 C5_6 1_555 1_555
H16_6 C32_6 1_555 1_555
C33_6 N4_6 1_555 1_555
C38_6 C32_6 1_555 1_555
H20_6 C40_6 1_555 1_555
N4_6 C38_6 1_555 1_555
C43_6 C33_6 1_555 1_555
H22_6 C43_6 1_555 1_555
C46_6 C12_6 1_555 1_555
H24_6 C46_6 1_555 1_555
C48_6 C43_6 1_555 1_555
H25_6 C48_6 1_555 1_555
C50_6 H27_6 1_555 1_555
C51_6 C15_6 1_555 1_555
H28_6 C51_6 1_555 1_555
C52_6 C40_6 1_555 1_555
C53_6 H29_6 1_555 1_555
C54_6 C19_6 1_555 1_555
H30_6 C54_6 1_555 1_555
C55_6 N4_6 1_555 1_555
C56_6 C57_6 1_555 1_555
C57_6 C50_6 1_555 1_555
H31_6 C57_6 1_555 1_555
C58_6 C63_6 1_555 1_555
C59_6 C56_6 1_555 1_555
C61_6 C21_6 1_555 1_555
H33_6 C61_6 1_555 1_555
C63_6 C1_6 1_555 1_555
H35_6 C63_6 1_555 1_555
C64_6 C9_6 1_555 1_555
H36_6 C64_6 1_555 1_555
C65_6 C33_6 1_555 1_555
H37_6 C65_6 1_555 1_555
C67_6 C1_6 1_555 1_555
C69_6 C56_6 1_555 1_555
H40_6 C69_6 1_555 1_555
C70_6 C55_6 1_555 1_555
H41_6 C70_6 1_555 1_555
N8_2 C53_6 1_555 1_555
C7_6 C14_6 1_555 1_555
C11_6 C26_6 1_555 1_555
C12_6 C14_6 1_555 1_555
C15_6 C24_6 1_555 1_555
C21_6 C27_6 1_555 1_555
C26_6 C46_6 1_555 1_555
C27_6 O11_6 1_555 1_555
C28_6 C64_6 1_555 1_555
C38_6 C62_6 1_555 1_555
C50_6 C55_6 1_555 1_555
C51_6 C61_6 1_555 1_555
C53_6 C67_6 1_555 1_555
C54_6 C65_6 1_555 1_555
C58_6 N8_2 1_555 1_555
C69_6 C70_6 1_555 1_555
C52_6 H47_6 1_555 1_555
C67_6 H48_6 1_555 1_555
C58_6 H49_6 1_555 1_555
O7_6 H52_6 1_555 1_555
Cd5_2 O1_6 1_555 1_555
Cd7_2 O3_6 1_555 1_555
O1_6 C25_6 1_555 1_555
C2_6 H1_6 1_555 1_555
O3_6 Cd5_2 1_555 1_555
C6_6 O15_3 1_555 1_555
N2_6 C16_6 1_555 1_555
O8_6 Cd7_2 1_555 1_555
N3_6 Cd7_2 1_555 1_555
C16_6 C29_6 1_555 1_555
C17_6 N2_6 1_555 1_555
H10_6 C20_6 1_555 1_555
H11_6 C23_6 1_555 1_555
C25_6 O8_6 1_555 1_555
C29_6 H14_6 1_555 1_555
C30_6 C17_6 1_555 1_555
H15_6 C30_6 1_555 1_555
C31_6 C35_6 1_555 1_555
C34_6 C2_6 1_555 1_555
H17_6 C34_6 1_555 1_555
C35_6 C68_6 1_555 1_555
C36_6 C2_6 1_555 1_555
C37_4 H18_4 1_555 1_555
C39_6 H19_6 1_555 1_555
C41_4 C39_6 1_555 1_555
C42_6 C30_6 1_555 1_555
H21_6 C42_6 1_555 1_555
C44_4 C41_4 1_555 1_555
H23_4 C44_4 1_555 1_555
C45_6 N2_6 1_555 1_555
C49_6 N3_6 1_555 1_555
H26_6 C49_6 1_555 1_555
C60_6 N3_6 1_555 1_555
H32_6 C60_6 1_555 1_555
O20_2 C31_6 1_555 1_555
O21_2 C31_6 1_555 1_555
C66_6 C16_6 1_555 1_555
H38_6 C66_6 1_555 1_555
C68_6 C66_6 1_555 1_555
H39_6 C68_6 1_555 1_555
C75_6 C29_6 1_555 1_555
H45_6 C75_6 1_555 1_555
O14_6 Cd7_2 1_555 1_555
H46_6 O14_6 1_555 1_555
O3_6 C6_6 1_555 1_555
C17_6 C34_6 1_555 1_555
C20_6 C45_6 1_555 1_555
C23_6 C45_6 1_555 1_555
C25_6 C36_6 1_555 1_555
C35_6 C75_6 1_555 1_555
C36_6 C42_6 1_555 1_555
C37_4 C47_4 1_555 1_555
C39_6 C60_6 1_555 1_555
C41_4 C47_4 1_555 1_555
C44_4 C49_6 1_555 1_555
O14_6 H51_6 1_555 1_555
O16_4 C3_6 1_555 1_555
C3_6 O17_4 1_555 1_555
C10_6 H6_6 1_555 1_555
C13_6 H9_6 1_555 1_555
C18_6 C3_6 1_555 1_555
C10_6 C18_6 1_555 1_555
C13_6 C18_6 1_555 1_555
Cd6 O1_7 1_555 1_555
Cd7_3 O3_7 1_555 1_555
O1_7 C25_7 1_555 1_555
O2_4 Cd6 1_555 1_555
C2_7 H1_7 1_555 1_555
O3_7 Cd6 1_555 1_555
O16 C3_7 1_555 1_555
C3_7 O17 1_555 1_555
C6_7 O2_4 1_555 1_555
N2_7 C16_7 1_555 1_555
O8_7 Cd7_3 1_555 1_555
C10_7 H6_7 1_555 1_555
H7_7 C11_7 1_555 1_555
C12_7 H8_7 1_555 1_555
C13_7 H9_7 1_555 1_555
N3_7 Cd7_3 1_555 1_555
C16_7 C29_7 1_555 1_555
C17_7 N2_7 1_555 1_555
C18_7 C3_7 1_555 1_555
C20_7 C10_7 1_555 1_555
H10_7 C20_7 1_555 1_555
C23_7 C13_7 1_555 1_555
H11_7 C23_7 1_555 1_555
C25_7 O8_7 1_555 1_555
C26_7 C6_7 1_555 1_555
C29_7 H14_7 1_555 1_555
C30_7 C17_7 1_555 1_555
H15_7 C30_7 1_555 1_555
C34_7 C2_7 1_555 1_555
H17_7 C34_7 1_555 1_555
C36_7 C2_7 1_555 1_555
C39_7 H19_7 1_555 1_555
C42_7 C30_7 1_555 1_555
H21_7 C42_7 1_555 1_555
C45_7 N2_7 1_555 1_555
C46_7 C12_7 1_555 1_555
H24_7 C46_7 1_555 1_555
C49_7 N3_7 1_555 1_555
H26_7 C49_7 1_555 1_555
C60_7 N3_7 1_555 1_555
H32_7 C60_7 1_555 1_555
C66_7 C16_7 1_555 1_555
H38_7 C66_7 1_555 1_555
C68_7 C66_7 1_555 1_555
C75_7 C29_7 1_555 1_555
H45_7 C75_7 1_555 1_555
O14_7 Cd7_3 1_555 1_555
H46_7 O14_7 1_555 1_555
Cd6_2 O2_4 1_555 1_555
O15_4 Cd6 1_555 1_555
O3_7 C6_7 1_555 1_555
C10_7 C18_7 1_555 1_555
C11_7 C26_7 1_555 1_555
C13_7 C18_7 1_555 1_555
C17_7 C34_7 1_555 1_555
C20_7 C45_7 1_555 1_555
C23_7 C45_7 1_555 1_555
C25_7 C36_7 1_555 1_555
C26_7 C46_7 1_555 1_555
C36_7 C42_7 1_555 1_555
C39_7 C60_7 1_555 1_555
Cd6_2 O15_4 1_555 1_555
O14_7 H51_7 1_555 1_555
Cd9 O7_7 1_555 1_555
N1_7 C9_7 1_555 1_555
C4_7 H2_7 1_555 1_555
C5_7 H3_7 1_555 1_555
O18_3 C8_7 1_555 1_555
O7_7 H4_7 1_555 1_555
C7_7 H5_7 1_555 1_555
C8_7 O19_3 1_555 1_555
C9_7 C52_7 1_555 1_555
C14_7 N1_7 1_555 1_555
C15_7 N1_7 1_555 1_555
O10_7 Cd9 1_555 1_555
C19_7 C48_7 1_555 1_555
C21_7 C4_7 1_555 1_555
C22_7 C8_7 1_555 1_555
C24_7 C4_7 1_555 1_555
H12_7 C24_7 1_555 1_555
C27_7 O10_7 1_555 1_555
O11_7 Cd9 1_555 1_555
C28_7 C22_7 1_555 1_555
H13_7 C28_7 1_555 1_555
C32_7 C5_7 1_555 1_555
H16_7 C32_7 1_555 1_555
C33_7 N4_7 1_555 1_555
C37_5 H18_5 1_555 1_555
C38_7 C32_7 1_555 1_555
C40_7 C22_7 1_555 1_555
H20_7 C40_7 1_555 1_555
N4_7 C38_7 1_555 1_555
C43_7 C33_7 1_555 1_555
H22_7 C43_7 1_555 1_555
C44_5 C41_5 1_555 1_555
H23_5 C44_5 1_555 1_555
C47_5 C5_7 1_555 1_555
N7 C72_7 1_555 1_555
C48_7 C43_7 1_555 1_555
H25_7 C48_7 1_555 1_555
C50_7 H27_7 1_555 1_555
C51_7 C15_7 1_555 1_555
H28_7 C51_7 1_555 1_555
C52_7 C40_7 1_555 1_555
C54_7 C19_7 1_555 1_555
H30_7 C54_7 1_555 1_555
C55_7 N4_7 1_555 1_555
C56_7 C57_7 1_555 1_555
C57_7 C50_7 1_555 1_555
H31_7 C57_7 1_555 1_555
C59_7 C56_7 1_555 1_555
C61_7 C21_7 1_555 1_555
H33_7 C61_7 1_555 1_555
C62_7 C37_5 1_555 1_555
H34_5 C62_7 1_555 1_555
C64_7 C9_7 1_555 1_555
H36_7 C64_7 1_555 1_555
C65_7 C33_7 1_555 1_555
H37_7 C65_7 1_555 1_555
C69_7 C56_7 1_555 1_555
H40_7 C69_7 1_555 1_555
C70_7 C55_7 1_555 1_555
H41_7 C70_7 1_555 1_555
C71_7 C59_7 1_555 1_555
H42_7 C71_7 1_555 1_555
C72_7 C71_7 1_555 1_555
H43_7 C72_7 1_555 1_555
C73_7 C59_7 1_555 1_555
C74_7 N7 1_555 1_555
H44_7 C74_7 1_555 1_555
C7_7 C14_7 1_555 1_555
C15_7 C24_7 1_555 1_555
C21_7 C27_7 1_555 1_555
C27_7 O11_7 1_555 1_555
C28_7 C64_7 1_555 1_555
C37_5 C47_5 1_555 1_555
C38_7 C62_7 1_555 1_555
C41_5 C47_5 1_555 1_555
C50_7 C55_7 1_555 1_555
C51_7 C61_7 1_555 1_555
C54_7 C65_7 1_555 1_555
C69_7 C70_7 1_555 1_555
C73_7 C74_7 1_555 1_555
C52_7 H47_7 1_555 1_555
C73_7 H50_7 1_555 1_555
O7_7 H52_7 1_555 1_555
C31_7 C35_7 1_555 1_555
O20_3 C31_7 1_555 1_555
O21_3 C31_7 1_555 1_555
C53_7 H29_7 1_555 1_555
C58_7 C63_7 1_555 1_555
C63_7 C1_7 1_555 1_555
H35_7 C63_7 1_555 1_555
C67_7 C1_7 1_555 1_555
N8_3 C53_7 1_555 1_555
C53_7 C67_7 1_555 1_555
C58_7 N8_3 1_555 1_555
C67_7 H48_7 1_555 1_555
C58_7 H49_7 1_555 1_555
N7_2 C72_8 1_555 1_555
C72_8 C71_8 1_555 1_555
H43_8 C72_8 1_555 1_555
C74_8 N7_2 1_555 1_555
H44_8 C74_8 1_555 1_555
C73_8 C74_8 1_555 1_555
Cd6_2 O1_8 1_555 1_555
Cd7_4 O3_8 1_555 1_555
Cd9_2 O7_8 1_555 1_555
O1_8 C25_8 1_555 1_555
C2_8 H1_8 1_555 1_555
O3_8 Cd6_2 1_555 1_555
N1_8 C9_8 1_555 1_555
C4_8 H2_8 1_555 1_555
C5_8 H3_8 1_555 1_555
C6_8 O15_4 1_555 1_555
N2_8 C16_8 1_555 1_555
O18_4 C8_8 1_555 1_555
O7_8 H4_8 1_555 1_555
C7_8 H5_8 1_555 1_555
C8_8 O19_4 1_555 1_555
O8_8 Cd7_4 1_555 1_555
C9_8 C52_8 1_555 1_555
C11_8 C7_8 1_555 1_555
H7_8 C11_8 1_555 1_555
C12_8 H8_8 1_555 1_555
C14_8 N1_8 1_555 1_555
N3_8 Cd7_4 1_555 1_555
C15_8 N1_8 1_555 1_555
C16_8 C29_8 1_555 1_555
C17_8 N2_8 1_555 1_555
O10_8 Cd9_2 1_555 1_555
C19_8 C48_8 1_555 1_555
H10_8 C20_8 1_555 1_555
C21_8 C4_8 1_555 1_555
C22_8 C8_8 1_555 1_555
H11_8 C23_8 1_555 1_555
C24_8 C4_8 1_555 1_555
H12_8 C24_8 1_555 1_555
C25_8 O8_8 1_555 1_555
C26_8 C6_8 1_555 1_555
C27_8 O10_8 1_555 1_555
O11_8 Cd9_2 1_555 1_555
C28_8 C22_8 1_555 1_555
H13_8 C28_8 1_555 1_555
C29_8 H14_8 1_555 1_555
C30_8 C17_8 1_555 1_555
H15_8 C30_8 1_555 1_555
C32_8 C5_8 1_555 1_555
H16_8 C32_8 1_555 1_555
C33_8 N4_8 1_555 1_555
C34_8 C2_8 1_555 1_555
H17_8 C34_8 1_555 1_555
C36_8 C2_8 1_555 1_555
C37_6 H18_6 1_555 1_555
C38_8 C32_8 1_555 1_555
C39_8 H19_8 1_555 1_555
C40_8 C22_8 1_555 1_555
H20_8 C40_8 1_555 1_555
C41_6 C39_8 1_555 1_555
C42_8 C30_8 1_555 1_555
H21_8 C42_8 1_555 1_555
N4_8 C38_8 1_555 1_555
C43_8 C33_8 1_555 1_555
H22_8 C43_8 1_555 1_555
C44_6 C41_6 1_555 1_555
H23_6 C44_6 1_555 1_555
C45_8 N2_8 1_555 1_555
C46_8 C12_8 1_555 1_555
H24_8 C46_8 1_555 1_555
C47_6 C5_8 1_555 1_555
C48_8 C43_8 1_555 1_555
H25_8 C48_8 1_555 1_555
C49_8 N3_8 1_555 1_555
H26_8 C49_8 1_555 1_555
C50_8 H27_8 1_555 1_555
C51_8 C15_8 1_555 1_555
H28_8 C51_8 1_555 1_555
C52_8 C40_8 1_555 1_555
C54_8 C19_8 1_555 1_555
H30_8 C54_8 1_555 1_555
C55_8 N4_8 1_555 1_555
C56_8 C57_8 1_555 1_555
C57_8 C50_8 1_555 1_555
H31_8 C57_8 1_555 1_555
C59_8 C56_8 1_555 1_555
C60_8 N3_8 1_555 1_555
H32_8 C60_8 1_555 1_555
C61_8 C21_8 1_555 1_555
H33_8 C61_8 1_555 1_555
C62_8 C37_6 1_555 1_555
H34_6 C62_8 1_555 1_555
C64_8 C9_8 1_555 1_555
H36_8 C64_8 1_555 1_555
C65_8 C33_8 1_555 1_555
H37_8 C65_8 1_555 1_555
C66_8 C16_8 1_555 1_555
H38_8 C66_8 1_555 1_555
C68_8 C66_8 1_555 1_555
C69_8 C56_8 1_555 1_555
H40_8 C69_8 1_555 1_555
C70_8 C55_8 1_555 1_555
H41_8 C70_8 1_555 1_555
C75_8 C29_8 1_555 1_555
H45_8 C75_8 1_555 1_555
O14_8 Cd7_4 1_555 1_555
H46_8 O14_8 1_555 1_555
O3_8 C6_8 1_555 1_555
C7_8 C14_8 1_555 1_555
C11_8 C26_8 1_555 1_555
C12_8 C14_8 1_555 1_555
C15_8 C24_8 1_555 1_555
C17_8 C34_8 1_555 1_555
C20_8 C45_8 1_555 1_555
C21_8 C27_8 1_555 1_555
C23_8 C45_8 1_555 1_555
C25_8 C36_8 1_555 1_555
C26_8 C46_8 1_555 1_555
C27_8 O11_8 1_555 1_555
C28_8 C64_8 1_555 1_555
C36_8 C42_8 1_555 1_555
C37_6 C47_6 1_555 1_555
C38_8 C62_8 1_555 1_555
C39_8 C60_8 1_555 1_555
C41_6 C47_6 1_555 1_555
C44_6 C49_8 1_555 1_555
C50_8 C55_8 1_555 1_555
C51_8 C61_8 1_555 1_555
C54_8 C65_8 1_555 1_555
C69_8 C70_8 1_555 1_555
C52_8 H47_8 1_555 1_555
O14_8 H51_8 1_555 1_555
O7_8 H52_8 1_555 1_555
O16_2 C3_8 1_555 1_555
C3_8 O17_2 1_555 1_555
C10_8 H6_8 1_555 1_555
C13_8 H9_8 1_555 1_555
C18_8 C3_8 1_555 1_555
C10_8 C18_8 1_555 1_555
C13_8 C18_8 1_555 1_555
C31_8 C35_8 1_555 1_555
C53_8 H29_8 1_555 1_555
C58_8 C63_8 1_555 1_555
C63_8 C1_8 1_555 1_555
H35_8 C63_8 1_555 1_555
O20_4 C31_8 1_555 1_555
O21_4 C31_8 1_555 1_555
C67_8 C1_8 1_555 1_555
N8_4 C53_8 1_555 1_555
C53_8 C67_8 1_555 1_555
C58_8 N8_4 1_555 1_555
C67_8 H48_8 1_555 1_555
C58_8 H49_8 1_555 1_555
C37_7 H18_7 1_555 1_555
C44_7 C41_7 1_555 1_555
H23_7 C44_7 1_555 1_555
C37_7 C47_7 1_555 1_555
C41_7 C47_7 1_555 1_555
C37_8 H18_8 1_555 1_555
C44_8 C41_8 1_555 1_555
H23_8 C44_8 1_555 1_555
C37_8 C47_8 1_555 1_555
C41_8 C47_8 1_555 1_555

#END
