
###############################################################################
#
# This file contains modified crystal structure data generated from the
# MOF subset of the Cambridge Structural Database (CSD) v543 
# hosted by the Cambridge Crystallographic Data Centre (CCDC).
#
# This work is licensed under the Creative Commons
# Attribution-NonCommercial-ShareAlike 4.0 International License.
# To view a copy of this license, visit
# http://creativecommons.org/licenses/by-nc-sa/4.0/
# or send a letter to
# Creative Commons, PO Box 1866, Mountain View, CA 94042, USA.
#
# CIF created using the CSD Python API on 29 September 2022
# The structure has been converted into the P1 space group
# The structure has a 3D framework
# The original CSD entry ETIKOK is in the triclinic crystal system
# The framework has been calculated to contain at least 10.0% void space
# The void calculation uses a probe of radius 1.32A, grid spacing 0.4
# The framework is charged, counterions have been retained in the structure
#
###############################################################################

data_ETIKOK
_chemical_formula_moiety         '(C126 H162 N36 O34 Pb4 2-)n'
_symmetry_cell_setting           triclinic
_symmetry_space_group_name_H-M   'P 1'
_symmetry_Int_Tables_number      1
_space_group_name_Hall           'P 1'
loop_
_symmetry_equiv_pos_site_id
_symmetry_equiv_pos_as_xyz
1 x,y,z
_cell_length_a                   16.2132(8)
_cell_length_b                   18.0795(9)
_cell_length_c                   18.3043(9)
_cell_angle_alpha                110.7200(10)
_cell_angle_beta                 113.2980(10)
_cell_angle_gamma                91.8370(10)
_cell_volume                     4515.92
loop_
_atom_site_label
_atom_site_type_symbol
_atom_site_fract_x
_atom_site_fract_y
_atom_site_fract_z
Pb2 Pb 0.02570(2) 0.60585(2) 0.08996(2)
Pb14 Pb 0.06807(2) 0.84827(2) 0.12616(2)
O22 O 0.1137(3) 0.4669(3) 0.0561(4)
O29 O 0.1499(3) 0.7328(3) 0.1961(3)
O20 O 0.0513(4) 0.6593(4) 0.9852(4)
Pb11 Pb 0.12735(2) 0.05849(2) 0.09124(2)
O3 O 0.0330(3) 0.0449(3) 0.9263(3)
O4 O 0.0228(3) 0.0744(3) 0.8161(3)
O12 O 0.8327(3) 0.0119(3) 0.7972(3)
O13 O 0.7477(3) 0.0007(3) 0.9201(3)
O14 O 0.8427(3) 0.1165(3) 0.9707(3)
N10 N 0.3706(4) 0.0076(3) 0.7902(3)
N12 N 0.4862(4) 0.0837(4) 0.7878(4)
C43 C 0.7635(4) 0.0731(4) 0.9312(4)
C44 C 0.6812(4) 0.1079(4) 0.8935(4)
H55 H 0.702282 0.165455 0.910365
C45 C 0.6371(4) 0.0661(4) 0.7937(4)
H56 H 0.680784 0.076666 0.772859
H57 H 0.622337 0.008187 0.776238
C46 C 0.5508(4) 0.0949(4) 0.7523(5)
H58 H 0.565991 0.151499 0.763956
H59 H 0.522616 0.064545 0.689920
C47 C 0.5235(5) 0.1281(4) 0.8816(5)
H60 H 0.477892 0.119542 0.901177
H61 H 0.538463 0.185427 0.896093
C48 C 0.6099(4) 0.0996(4) 0.9275(4)
H62 H 0.593635 0.043670 0.917581
H63 H 0.636049 0.131599 0.989482
C49 C 0.4150(4) 0.0188(4) 0.7451(4)
C61 C 0.2131(4) 0.0284(4) 0.8950(4)
H78 H 0.230732 0.052268 0.956853
H79 H 0.215485 0.071853 0.875952
H80 H 0.340520 0.008445 0.902843
C63 C 0.0520(4) 0.0358(4) 0.8633(4)
Pb12 Pb 0.93193(2) 0.15173(2) 0.87384(2)
O32 O 0.0616(3) 0.2756(3) 0.9169(3)
O21 O 0.9670(3) 0.9551(3) 0.0737(3)
Pb1 Pb 0.14829(2) 0.31629(2) 0.09780(2)
Pb3 Pb 0.87265(2) 0.94151(2) 0.90876(2)
O1 O 0.0743(5) 0.5375(4) 0.9228(5)
O5 O 0.2337(5) 0.3694(5) 0.2538(5)
O6 O 0.1363(5) 0.4472(4) 0.2275(5)
O7 O 0.2394(4) 0.4210(3) 0.0974(4)
O9 O 0.7092(4) 0.7269(3) 0.9009(4)
O10 O 0.7849(3) 0.8207(3) 0.8923(4)
O11 O 0.7752(4) 0.8846(3) 0.7506(3)
O15 O 0.1380(5) 0.8549(4) 0.2668(3)
O17 O 0.9150(5) 0.6537(4) 0.1507(5)
O18 O 0.9384(3) 0.7244(3) 0.0831(3)
N1 N 0.1957(5) 0.6649(5) 0.7821(4)
N2 N 0.2168(5) 0.6285(4) 0.6574(4)
N3 N 0.2470(5) 0.5949(4) 0.5381(4)
N4 N 0.3399(4) 0.7053(4) 0.6592(4)
N5 N 0.3165(4) 0.7417(4) 0.7869(4)
N6 N 0.4337(4) 0.8143(4) 0.7844(4)
N7 N 0.2954(4) 0.8649(4) 0.5389(4)
N8 N 0.3943(4) 0.9732(3) 0.6619(3)
N9 N 0.2664(4) 0.9013(3) 0.6584(3)
N11 N 0.2500(4) 0.9324(4) 0.7839(4)
N13 N 0.6929(4) 0.7787(3) 0.2086(3)
N14 N 0.5596(3) 0.7220(3) 0.2029(3)
N15 N 0.5398(3) 0.7656(3) 0.3335(3)
N16 N 0.6781(3) 0.8192(3) 0.3358(3)
N17 N 0.4293(3) 0.6713(3) 0.2043(3)
N18 N 0.6562(3) 0.8582(3) 0.4594(3)
C1 C 0.0684(6) 0.6086(5) 0.9285(6)
C2 C 0.0947(6) 0.6356(5) 0.8710(5)
H1 H 0.051014 0.668844 0.852526
C3 C 0.0886(7) 0.5714(6) 0.7887(6)
H2 H 0.132677 0.537785 0.802950
H3 H 0.027835 0.537338 0.756345
C4 C 0.1072(7) 0.6082(7) 0.7337(6)
H4 H 0.107077 0.565778 0.683172
H5 H 0.058716 0.636391 0.713676
C5 C 0.2079(7) 0.7258(6) 0.8649(6)
H6 H 0.167975 0.763504 0.854541
H7 H 0.270649 0.755794 0.896574
C6 C 0.1871(6) 0.6899(5) 0.9182(5)
H8 H 0.190236 0.732816 0.969904
H9 H 0.233464 0.659264 0.936510
C7 C 0.2445(5) 0.6793(5) 0.7406(5)
C8 C 0.2700(5) 0.6456(5) 0.6223(5)
C9 C 0.3605(4) 0.7519(4) 0.7422(5)
C10 C 0.1916(7) 0.5162(6) 0.5036(6)
H10 H 0.140802 0.521442 0.519146
H11 H 0.228127 0.483360 0.530255
C11 C 0.1538(7) 0.4730(6) 0.4056(6)
H12 H 0.109425 0.500909 0.378115
H13 H 0.122672 0.418490 0.387286
C12 C 0.2301(7) 0.4701(5) 0.3765(5)
H14 H 0.274945 0.442694 0.405467
C13 C 0.2761(7) 0.5570(6) 0.4080(5)
H15 H 0.324434 0.558386 0.389664
H16 H 0.231588 0.585829 0.382385
C14 C 0.3161(6) 0.5981(6) 0.5060(5)
H17 H 0.364492 0.572068 0.531306
H18 H 0.343099 0.654016 0.524533
C15 C 0.1949(6) 0.4251(6) 0.2804(6)
C16 C 0.1991(5) 0.4755(4) 0.0857(4)
C17 C 0.2563(4) 0.5575(4) 0.1136(4)
H19 H 0.215159 0.591166 0.091970
C18 C 0.3276(4) 0.5506(4) 0.0770(4)
H20 H 0.365794 0.513805 0.093873
H21 H 0.296481 0.528687 0.014134
C19 C 0.3867(5) 0.6317(4) 0.1101(4)
H22 H 0.434204 0.625027 0.090022
H23 H 0.349570 0.665848 0.086280
C20 C 0.3632(4) 0.6792(4) 0.2418(4)
H24 H 0.324440 0.715591 0.224805
H25 H 0.396031 0.702337 0.304632
C21 C 0.3041(4) 0.5982(4) 0.2118(4)
H26 H 0.258644 0.605676 0.234412
H27 H 0.342032 0.563860 0.234503
C22 C 0.5124(4) 0.7219(3) 0.2488(4)
C23 C 0.6416(4) 0.7731(4) 0.2507(4)
C24 C 0.6229(4) 0.8131(4) 0.3736(3)
C25 C 0.7770(5) 0.8384(4) 0.2508(5)
H28 H 0.795590 0.862764 0.312833
H29 H 0.766801 0.880724 0.229074
C26 C 0.8525(5) 0.7984(4) 0.2328(4)
H30 H 0.868134 0.761376 0.261528
H31 H 0.906907 0.839385 0.256912
C27 C 0.8229(4) 0.7520(4) 0.1352(4)
H32 H 0.815801 0.790394 0.107521
C28 C 0.7317(5) 0.6937(4) 0.0947(4)
H33 H 0.710372 0.668443 0.032351
H34 H 0.740462 0.651558 0.116703
C29 C 0.6600(5) 0.7364(5) 0.1149(4)
H35 H 0.646398 0.774816 0.087908
H36 H 0.604056 0.697453 0.091390
C30 C 0.8968(5) 0.7062(5) 0.1230(5)
C31 C 0.7429(5) 0.9168(4) 0.5058(4)
H37 H 0.731047 0.969084 0.506010
H38 H 0.781537 0.899910 0.476259
C32 C 0.7919(4) 0.9235(4) 0.5983(4)
H39 H 0.846799 0.965424 0.629347
H40 H 0.810455 0.872944 0.597896
C33 C 0.7306(4) 0.9435(4) 0.6458(3)
H41 H 0.717317 0.996948 0.650215
C34 C 0.6404(5) 0.8829(5) 0.5937(4)
H42 H 0.651308 0.830353 0.593149
H43 H 0.599774 0.899207 0.621066
C35 C 0.5948(4) 0.8769(5) 0.5013(4)
H44 H 0.539703 0.835100 0.468476
H45 H 0.577010 0.927672 0.501363
C36 C 0.7832(4) 0.9478(4) 0.7372(4)
C37 C 0.4896(5) 0.8282(5) 0.7426(5)
H46 H 0.507066 0.885714 0.759679
H47 H 0.453881 0.803588 0.680067
C38 C 0.5750(5) 0.7929(4) 0.7676(4)
H48 H 0.612672 0.805268 0.741799
H49 H 0.557797 0.734624 0.745620
C39 C 0.6302(4) 0.8279(4) 0.8670(4)
H50 H 0.651191 0.885937 0.886782
C40 C 0.5683(4) 0.8169(5) 0.9083(5)
H51 H 0.602076 0.843614 0.970859
H52 H 0.550935 0.759856 0.893525
C41 C 0.4823(5) 0.8509(5) 0.8787(5)
H53 H 0.442918 0.839640 0.903511
H54 H 0.498658 0.908996 0.898538
C42 C 0.7139(5) 0.7906(4) 0.8889(4)
C50 C 0.3206(5) 0.9147(4) 0.6232(4)
C51 C 0.2972(4) 0.9478(4) 0.7424(4)
C52 C 0.3568(5) 0.8603(5) 0.4976(4)
H64 H 0.384201 0.813232 0.496431
H65 H 0.405613 0.907796 0.531053
C53 C 0.3050(5) 0.8548(4) 0.4062(4)
H66 H 0.345993 0.846909 0.378423
H67 H 0.285793 0.905481 0.408479
C54 C 0.2214(5) 0.7867(4) 0.3515(4)
H68 H 0.241825 0.735083 0.341408
C55 C 0.1623(5) 0.7919(4) 0.4008(4)
H69 H 0.135008 0.839225 0.404168
H70 H 0.113112 0.744732 0.369151
C56 C 0.2182(5) 0.7968(5) 0.4913(4)
H71 H 0.179845 0.802968 0.521654
H72 H 0.240625 0.747181 0.488214
C57 C 0.1656(5) 0.7904(4) 0.2652(4)
C58 C 0.1592(5) 0.8800(5) 0.7387(5)
H73 H 0.159213 0.839387 0.761955
H74 H 0.143264 0.852774 0.677386
C59 C 0.0887(4) 0.9323(4) 0.7515(4)
H75 H 0.085126 0.969650 0.723751
H76 H 0.028610 0.897945 0.724506
C60 C 0.1162(4) 0.9792(4) 0.8478(4)
H77 H 0.113419 0.940302 0.873285
C62 C 0.2800(5) 0.9752(5) 0.8769(4)
H81 H 0.283999 0.936502 0.903195
Pb6 Pb 0.85171(2) 0.68371(2) 0.90220(2)
O19 O 0.9257(5) 0.4625(4) 0.0772(5)
O24 O 0.2908(4) 0.2731(3) 0.0991(4)
O25 O 0.2151(3) 0.1793(3) 0.1077(4)
O23 O 0.8863(3) 0.5331(3) 0.9439(4)
O28 O 0.8620(5) 0.1451(4) 0.7332(3)
O30 O 0.8501(3) 0.2672(3) 0.8039(3)
Pb10 Pb 0.97430(2) 0.39415(2) 0.91004(2)
O26 O 0.1673(3) 0.9881(3) 0.2028(3)
O27 O 0.1573(3) 0.8835(3) 0.0293(3)
O2 O 0.9487(4) 0.3407(4) 0.0148(4)
O5_2 O 0.7663(5) 0.6306(5) 0.7462(5)
O6_2 O 0.8637(5) 0.5528(4) 0.7725(5)
O7_2 O 0.7606(4) 0.5790(3) 0.9026(4)
O11_2 O 0.2248(4) 0.1154(3) 0.2494(3)
O17_2 O 0.0850(5) 0.3463(4) 0.8493(5)
N1_2 N 0.8043(5) 0.3351(5) 0.2179(4)
N2_2 N 0.7832(5) 0.3715(4) 0.3426(4)
N3_2 N 0.7530(5) 0.4051(4) 0.4619(4)
N4_2 N 0.6601(4) 0.2947(4) 0.3408(4)
N5_2 N 0.6835(4) 0.2583(4) 0.2131(4)
N6_2 N 0.5663(4) 0.1857(4) 0.2156(4)
N7_2 N 0.7046(4) 0.1351(4) 0.4611(4)
N8_2 N 0.6057(4) 0.0268(3) 0.3381(3)
N9_2 N 0.7336(4) 0.0987(3) 0.3416(3)
N11_2 N 0.7500(4) 0.0676(4) 0.2161(4)
N13_2 N 0.3071(4) 0.2213(3) 0.7914(3)
N14_2 N 0.4404(3) 0.2780(3) 0.7971(3)
N15_2 N 0.4602(3) 0.2344(3) 0.6665(3)
N16_2 N 0.3219(3) 0.1808(3) 0.6642(3)
N17_2 N 0.5707(3) 0.3287(3) 0.7957(3)
N18_2 N 0.3438(3) 0.1418(3) 0.5406(3)
C1_2 C 0.9316(6) 0.3914(5) 0.0715(6)
C2_2 C 0.9053(6) 0.3644(5) 0.1290(5)
H1_2 H 0.948986 0.331156 0.147474
C3_2 C 0.9114(7) 0.4286(6) 0.2113(6)
H2_2 H 0.867323 0.462215 0.197050
H3_2 H 0.972165 0.462662 0.243655
C4_2 C 0.8928(7) 0.3918(7) 0.2663(6)
H4_2 H 0.892923 0.434222 0.316828
H5_2 H 0.941284 0.363609 0.286324
C5_2 C 0.7921(7) 0.2742(6) 0.1351(6)
H6_2 H 0.832025 0.236496 0.145459
H7_2 H 0.729351 0.244206 0.103426
C6_2 C 0.8129(6) 0.3101(5) 0.0818(5)
H8_2 H 0.809764 0.267184 0.030096
H9_2 H 0.766536 0.340736 0.063490
C7_2 C 0.7555(5) 0.3207(5) 0.2594(5)
C8_2 C 0.7300(5) 0.3544(5) 0.3777(5)
C9_2 C 0.6395(4) 0.2481(4) 0.2578(5)
C10_2 C 0.8084(7) 0.4838(6) 0.4964(6)
H10_2 H 0.859198 0.478558 0.480854
H11_2 H 0.771873 0.516640 0.469745
C11_2 C 0.8462(7) 0.5270(6) 0.5944(6)
H12_2 H 0.890575 0.499091 0.621885
H13_2 H 0.877328 0.581510 0.612714
C12_2 C 0.7699(7) 0.5299(5) 0.6235(5)
H14_2 H 0.725055 0.557306 0.594533
C13_2 C 0.7239(7) 0.4430(6) 0.5920(5)
H15_2 H 0.675566 0.441614 0.610336
H16_2 H 0.768412 0.414171 0.617615
C14_2 C 0.6839(6) 0.4019(6) 0.4940(5)
H17_2 H 0.635508 0.427932 0.468694
H18_2 H 0.656901 0.345984 0.475467
C15_2 C 0.8051(6) 0.5749(6) 0.7196(6)
C16_2 C 0.8009(5) 0.5245(4) 0.9143(4)
C17_2 C 0.7437(4) 0.4425(4) 0.8864(4)
H19_2 H 0.784841 0.408834 0.908030
C18_2 C 0.6724(4) 0.4494(4) 0.9230(4)
H20_2 H 0.634206 0.486195 0.906127
H21_2 H 0.703519 0.471313 0.985866
C19_2 C 0.6133(5) 0.3683(4) 0.8899(4)
H22_2 H 0.565796 0.374973 0.909978
H23_2 H 0.650430 0.334152 0.913720
C20_2 C 0.6368(4) 0.3208(4) 0.7582(4)
H24_2 H 0.675560 0.284409 0.775195
H25_2 H 0.603969 0.297663 0.695368
C21_2 C 0.6959(4) 0.4018(4) 0.7882(4)
H26_2 H 0.741356 0.394324 0.765588
H27_2 H 0.657968 0.436140 0.765497
C22_2 C 0.4876(4) 0.2781(3) 0.7512(4)
C23_2 C 0.3584(4) 0.2269(4) 0.7493(4)
C24_2 C 0.3771(4) 0.1869(4) 0.6264(3)
C25_2 C 0.2230(5) 0.1616(4) 0.7492(5)
H28_2 H 0.204410 0.137236 0.687167
H29_2 H 0.233199 0.119276 0.770926
C26_2 C 0.1475(5) 0.2016(4) 0.7672(4)
H30_2 H 0.131866 0.238624 0.738472
H31_2 H 0.093093 0.160615 0.743088
C27_2 C 0.1771(4) 0.2480(4) 0.8648(4)
H32_2 H 0.184199 0.209606 0.892479
C28_2 C 0.2683(5) 0.3063(4) 0.9053(4)
H33_2 H 0.289628 0.331557 0.967649
H34_2 H 0.259538 0.348442 0.883297
C29_2 C 0.3400(5) 0.2636(5) 0.8851(4)
H35_2 H 0.353602 0.225184 0.912092
H36_2 H 0.395944 0.302547 0.908610
C30_2 C 0.1032(5) 0.2938(5) 0.8770(5)
C31_2 C 0.2571(5) 0.0832(4) 0.4942(4)
H37_2 H 0.268953 0.030916 0.493990
H38_2 H 0.218463 0.100090 0.523741
C32_2 C 0.2081(4) 0.0765(4) 0.4017(4)
H39_2 H 0.153201 0.034576 0.370653
H40_2 H 0.189545 0.127056 0.402104
C33_2 C 0.2694(4) 0.0565(4) 0.3542(3)
H41_2 H 0.282683 0.003052 0.349785
C34_2 C 0.3596(5) 0.1171(5) 0.4063(4)
H42_2 H 0.348692 0.169647 0.406851
H43_2 H 0.400226 0.100793 0.378934
C35_2 C 0.4052(4) 0.1231(5) 0.4987(4)
H44_2 H 0.460297 0.164900 0.531524
H45_2 H 0.422990 0.072328 0.498637
C36_2 C 0.2168(4) 0.0522(4) 0.2628(4)
C37_2 C 0.5104(5) 0.1718(5) 0.2574(5)
H46_2 H 0.492934 0.114286 0.240321
H47_2 H 0.546119 0.196412 0.319933
C38_2 C 0.4250(5) 0.2071(4) 0.2324(4)
H48_2 H 0.387328 0.194732 0.258201
H49_2 H 0.442203 0.265376 0.254380
C39_2 C 0.3698(4) 0.1721(4) 0.1330(4)
H50_2 H 0.348809 0.114063 0.113218
C40_2 C 0.4317(4) 0.1831(5) 0.0917(5)
H51_2 H 0.397924 0.156386 0.029141
H52_2 H 0.449065 0.240144 0.106475
C41_2 C 0.5177(5) 0.1491(5) 0.1213(5)
H53_2 H 0.557082 0.160360 0.096489
H54_2 H 0.501342 0.091004 0.101462
C42_2 C 0.2861(5) 0.2094(4) 0.1111(4)
C50_2 C 0.6794(5) 0.0853(4) 0.3768(4)
C51_2 C 0.7028(4) 0.0522(4) 0.2576(4)
C52_2 C 0.6432(5) 0.1397(5) 0.5024(4)
H64_2 H 0.615799 0.186768 0.503569
H65_2 H 0.594387 0.092204 0.468947
C53_2 C 0.6950(5) 0.1452(4) 0.5938(4)
H66_2 H 0.654007 0.153091 0.621577
H67_2 H 0.714207 0.094519 0.591521
C54_2 C 0.7786(5) 0.2133(4) 0.6485(4)
H68_2 H 0.758175 0.264917 0.658592
C55_2 C 0.8377(5) 0.2081(4) 0.5992(4)
H69_2 H 0.864992 0.160775 0.595832
H70_2 H 0.886888 0.255268 0.630849
C56_2 C 0.7818(5) 0.2032(5) 0.5087(4)
H71_2 H 0.820155 0.197032 0.478346
H72_2 H 0.759375 0.252819 0.511786
C57_2 C 0.8344(5) 0.2096(4) 0.7348(4)
C58_2 C 0.8408(5) 0.1200(5) 0.2613(5)
H73_2 H 0.840787 0.160613 0.238045
H74_2 H 0.856736 0.147226 0.322614
C59_2 C 0.9113(4) 0.0677(4) 0.2485(4)
H75_2 H 0.914874 0.030350 0.276249
H76_2 H 0.971390 0.102055 0.275494
C60_2 C 0.8838(4) 0.0208(4) 0.1522(4)
H77_2 H 0.886581 0.059698 0.126715
C62_2 C 0.7200(5) 0.0248(5) 0.1231(4)
H81_2 H 0.716001 0.063498 0.096805
O4_2 O 0.9772(3) 0.9256(3) 0.1839(3)
O13_2 O 0.2523(3) 0.9993(3) 0.0799(3)
N10_2 N 0.6294(4) 0.9924(3) 0.2098(3)
N12_2 N 0.5138(4) 0.9163(4) 0.2122(4)
C43_2 C 0.2365(4) 0.9269(4) 0.0688(4)
C44_2 C 0.3188(4) 0.8921(4) 0.1065(4)
H55_2 H 0.297718 0.834545 0.089635
C45_2 C 0.3629(4) 0.9339(4) 0.2063(4)
H56_2 H 0.319216 0.923334 0.227141
H57_2 H 0.377663 0.991813 0.223762
C46_2 C 0.4492(4) 0.9051(4) 0.2477(5)
H58_2 H 0.434009 0.848501 0.236044
H59_2 H 0.477384 0.935455 0.310080
C47_2 C 0.4765(5) 0.8719(4) 0.1184(5)
H60_2 H 0.522108 0.880458 0.098823
H61_2 H 0.461537 0.814573 0.103907
C48_2 C 0.3901(4) 0.9004(4) 0.0725(4)
H62_2 H 0.406365 0.956330 0.082419
H63_2 H 0.363951 0.868401 0.010518
C49_2 C 0.5850(4) 0.9812(4) 0.2549(4)
C61_2 C 0.7869(4) 0.9716(4) 0.1050(4)
H78_2 H 0.769268 0.947732 0.043147
H79_2 H 0.784515 0.928147 0.124048
H80_2 H 0.659480 0.991555 0.097157
C63_2 C 0.9480(4) 0.9642(4) 0.1367(4)
loop_
_geom_bond_atom_site_label_1
_geom_bond_atom_site_label_2
_geom_bond_site_symmetry_1
_geom_bond_site_symmetry_2
O22 Pb2 1_555 1_555
O29 Pb2 1_555 1_555
Pb14 O29 1_555 1_555
O3 C63 1_555 1_555
O14 C43 1_555 1_555
N10 C49 1_555 1_555
N12 C46 1_555 1_555
C43 O13 1_555 1_555
C44 C43 1_555 1_555
H55 C44 1_555 1_555
C45 C44 1_555 1_555
H56 C45 1_555 1_555
H57 C45 1_555 1_555
C46 C45 1_555 1_555
H58 C46 1_555 1_555
H59 C46 1_555 1_555
C47 N12 1_555 1_555
H60 C47 1_555 1_555
H61 C47 1_555 1_555
C48 C44 1_555 1_555
H62 C48 1_555 1_555
H63 C48 1_555 1_555
C49 N12 1_555 1_555
H78 C61 1_555 1_555
H79 C61 1_555 1_555
C63 O4 1_555 1_555
Pb12 O12 1_555 1_555
O14 Pb12 1_555 1_555
C47 C48 1_555 1_555
Pb1 O5 1_555 1_555
Pb3 O10 1_555 1_555
O1 C1 1_555 1_555
O20 C1 1_555 1_555
O5 C15 1_555 1_555
O6 Pb1 1_555 1_555
O7 Pb1 1_555 1_555
O22 C16 1_555 1_555
O9 C42 1_555 1_555
O10 C42 1_555 1_555
O11 Pb3 1_555 1_555
O15 C57 1_555 1_555
O29 C57 1_555 1_555
O17 C30 1_555 1_555
N1 C4 1_555 1_555
N2 C7 1_555 1_555
N3 C8 1_555 1_555
N4 C8 1_555 1_555
N5 C7 1_555 1_555
N6 C9 1_555 1_555
N7 C50 1_555 1_555
N9 C50 1_555 1_555
N11 C51 1_555 1_555
N13 C23 1_555 1_555
N14 C22 1_555 1_555
N15 C22 1_555 1_555
N16 C23 1_555 1_555
N17 C19 1_555 1_555
N18 C24 1_555 1_555
C1 C2 1_555 1_555
C2 H1 1_555 1_555
C3 C2 1_555 1_555
H2 C3 1_555 1_555
H3 C3 1_555 1_555
C4 C3 1_555 1_555
H4 C4 1_555 1_555
H5 C4 1_555 1_555
C5 N1 1_555 1_555
H6 C5 1_555 1_555
H7 C5 1_555 1_555
C6 C2 1_555 1_555
H8 C6 1_555 1_555
H9 C6 1_555 1_555
C7 N1 1_555 1_555
C8 N2 1_555 1_555
C9 N4 1_555 1_555
C10 N3 1_555 1_555
H10 C10 1_555 1_555
H11 C10 1_555 1_555
C11 C10 1_555 1_555
H12 C11 1_555 1_555
H13 C11 1_555 1_555
C12 C11 1_555 1_555
H14 C12 1_555 1_555
C13 C12 1_555 1_555
H15 C13 1_555 1_555
H16 C13 1_555 1_555
C14 N3 1_555 1_555
H17 C14 1_555 1_555
H18 C14 1_555 1_555
C15 O6 1_555 1_555
C16 O7 1_555 1_555
C17 C16 1_555 1_555
H19 C17 1_555 1_555
C18 C17 1_555 1_555
H20 C18 1_555 1_555
H21 C18 1_555 1_555
C19 C18 1_555 1_555
H22 C19 1_555 1_555
H23 C19 1_555 1_555
C20 N17 1_555 1_555
H24 C20 1_555 1_555
H25 C20 1_555 1_555
C21 C17 1_555 1_555
H26 C21 1_555 1_555
H27 C21 1_555 1_555
C22 N17 1_555 1_555
C23 N14 1_555 1_555
C24 N15 1_555 1_555
C25 N13 1_555 1_555
H28 C25 1_555 1_555
H29 C25 1_555 1_555
C26 C25 1_555 1_555
H30 C26 1_555 1_555
H31 C26 1_555 1_555
C27 C26 1_555 1_555
H32 C27 1_555 1_555
C28 C27 1_555 1_555
H33 C28 1_555 1_555
H34 C28 1_555 1_555
C29 N13 1_555 1_555
H35 C29 1_555 1_555
H36 C29 1_555 1_555
C30 O18 1_555 1_555
C31 N18 1_555 1_555
H37 C31 1_555 1_555
H38 C31 1_555 1_555
C32 C31 1_555 1_555
H39 C32 1_555 1_555
H40 C32 1_555 1_555
C33 C32 1_555 1_555
H41 C33 1_555 1_555
C34 C33 1_555 1_555
H42 C34 1_555 1_555
H43 C34 1_555 1_555
C35 N18 1_555 1_555
H44 C35 1_555 1_555
H45 C35 1_555 1_555
C36 O11 1_555 1_555
C37 N6 1_555 1_555
H46 C37 1_555 1_555
H47 C37 1_555 1_555
C38 C37 1_555 1_555
H48 C38 1_555 1_555
H49 C38 1_555 1_555
C39 C38 1_555 1_555
H50 C39 1_555 1_555
C40 C39 1_555 1_555
H51 C40 1_555 1_555
H52 C40 1_555 1_555
C41 N6 1_555 1_555
H53 C41 1_555 1_555
H54 C41 1_555 1_555
C42 C39 1_555 1_555
C50 N8 1_555 1_555
C51 N9 1_555 1_555
C52 N7 1_555 1_555
H64 C52 1_555 1_555
H65 C52 1_555 1_555
C53 C52 1_555 1_555
H66 C53 1_555 1_555
H67 C53 1_555 1_555
C54 C53 1_555 1_555
H68 C54 1_555 1_555
C55 C54 1_555 1_555
H69 C55 1_555 1_555
H70 C55 1_555 1_555
C56 N7 1_555 1_555
H71 C56 1_555 1_555
H72 C56 1_555 1_555
C57 C54 1_555 1_555
C58 N11 1_555 1_555
H73 C58 1_555 1_555
H74 C58 1_555 1_555
C59 C58 1_555 1_555
H75 C59 1_555 1_555
H76 C59 1_555 1_555
C60 C59 1_555 1_555
H77 C60 1_555 1_555
C62 N11 1_555 1_555
H81 C62 1_555 1_555
Pb6 O9 1_555 1_555
Pb14 O15 1_555 1_555
O24 Pb1 1_555 1_555
O25 Pb1 1_555 1_555
O10 Pb6 1_555 1_555
N5 C9 1_555 1_555
N16 C24 1_555 1_555
C5 C6 1_555 1_555
C12 C15 1_555 1_555
C13 C14 1_555 1_555
C20 C21 1_555 1_555
C27 C30 1_555 1_555
C28 C29 1_555 1_555
C33 C36 1_555 1_555
C34 C35 1_555 1_555
C40 C41 1_555 1_555
C55 C56 1_555 1_555
O28 Pb12 1_555 1_555
O30 Pb12 1_555 1_555
O26 Pb14 1_555 1_555
O27 Pb14 1_555 1_555
Pb6 O5_2 1_555 1_555
Pb11 O25 1_555 1_555
O19 C1_2 1_555 1_555
O2 C1_2 1_555 1_555
O5_2 C15_2 1_555 1_555
O6_2 Pb6 1_555 1_555
O7_2 Pb6 1_555 1_555
O23 C16_2 1_555 1_555
O24 C42_2 1_555 1_555
O25 C42_2 1_555 1_555
O11_2 Pb11 1_555 1_555
O28 C57_2 1_555 1_555
O30 C57_2 1_555 1_555
O17_2 C30_2 1_555 1_555
N1_2 C4_2 1_555 1_555
N2_2 C7_2 1_555 1_555
N3_2 C8_2 1_555 1_555
N4_2 C8_2 1_555 1_555
N5_2 C7_2 1_555 1_555
N6_2 C9_2 1_555 1_555
N7_2 C50_2 1_555 1_555
N9_2 C50_2 1_555 1_555
N11_2 C51_2 1_555 1_555
N13_2 C23_2 1_555 1_555
N14_2 C22_2 1_555 1_555
N15_2 C22_2 1_555 1_555
N16_2 C23_2 1_555 1_555
N17_2 C19_2 1_555 1_555
N18_2 C24_2 1_555 1_555
C1_2 C2_2 1_555 1_555
C2_2 H1_2 1_555 1_555
C3_2 C2_2 1_555 1_555
H2_2 C3_2 1_555 1_555
H3_2 C3_2 1_555 1_555
C4_2 C3_2 1_555 1_555
H4_2 C4_2 1_555 1_555
H5_2 C4_2 1_555 1_555
C5_2 N1_2 1_555 1_555
H6_2 C5_2 1_555 1_555
H7_2 C5_2 1_555 1_555
C6_2 C2_2 1_555 1_555
H8_2 C6_2 1_555 1_555
H9_2 C6_2 1_555 1_555
C7_2 N1_2 1_555 1_555
C8_2 N2_2 1_555 1_555
C9_2 N4_2 1_555 1_555
C10_2 N3_2 1_555 1_555
H10_2 C10_2 1_555 1_555
H11_2 C10_2 1_555 1_555
C11_2 C10_2 1_555 1_555
H12_2 C11_2 1_555 1_555
H13_2 C11_2 1_555 1_555
C12_2 C11_2 1_555 1_555
H14_2 C12_2 1_555 1_555
C13_2 C12_2 1_555 1_555
H15_2 C13_2 1_555 1_555
H16_2 C13_2 1_555 1_555
C14_2 N3_2 1_555 1_555
H17_2 C14_2 1_555 1_555
H18_2 C14_2 1_555 1_555
C15_2 O6_2 1_555 1_555
C16_2 O7_2 1_555 1_555
C17_2 C16_2 1_555 1_555
H19_2 C17_2 1_555 1_555
C18_2 C17_2 1_555 1_555
H20_2 C18_2 1_555 1_555
H21_2 C18_2 1_555 1_555
C19_2 C18_2 1_555 1_555
H22_2 C19_2 1_555 1_555
H23_2 C19_2 1_555 1_555
C20_2 N17_2 1_555 1_555
H24_2 C20_2 1_555 1_555
H25_2 C20_2 1_555 1_555
C21_2 C17_2 1_555 1_555
H26_2 C21_2 1_555 1_555
H27_2 C21_2 1_555 1_555
C22_2 N17_2 1_555 1_555
C23_2 N14_2 1_555 1_555
C24_2 N15_2 1_555 1_555
C25_2 N13_2 1_555 1_555
H28_2 C25_2 1_555 1_555
H29_2 C25_2 1_555 1_555
C26_2 C25_2 1_555 1_555
H30_2 C26_2 1_555 1_555
H31_2 C26_2 1_555 1_555
C27_2 C26_2 1_555 1_555
H32_2 C27_2 1_555 1_555
C28_2 C27_2 1_555 1_555
H33_2 C28_2 1_555 1_555
H34_2 C28_2 1_555 1_555
C29_2 N13_2 1_555 1_555
H35_2 C29_2 1_555 1_555
H36_2 C29_2 1_555 1_555
C30_2 O32 1_555 1_555
C31_2 N18_2 1_555 1_555
H37_2 C31_2 1_555 1_555
H38_2 C31_2 1_555 1_555
C32_2 C31_2 1_555 1_555
H39_2 C32_2 1_555 1_555
H40_2 C32_2 1_555 1_555
C33_2 C32_2 1_555 1_555
H41_2 C33_2 1_555 1_555
C34_2 C33_2 1_555 1_555
H42_2 C34_2 1_555 1_555
H43_2 C34_2 1_555 1_555
C35_2 N18_2 1_555 1_555
H44_2 C35_2 1_555 1_555
H45_2 C35_2 1_555 1_555
C36_2 O11_2 1_555 1_555
C37_2 N6_2 1_555 1_555
H46_2 C37_2 1_555 1_555
H47_2 C37_2 1_555 1_555
C38_2 C37_2 1_555 1_555
H48_2 C38_2 1_555 1_555
H49_2 C38_2 1_555 1_555
C39_2 C38_2 1_555 1_555
H50_2 C39_2 1_555 1_555
C40_2 C39_2 1_555 1_555
H51_2 C40_2 1_555 1_555
H52_2 C40_2 1_555 1_555
C41_2 N6_2 1_555 1_555
H53_2 C41_2 1_555 1_555
H54_2 C41_2 1_555 1_555
C42_2 C39_2 1_555 1_555
C50_2 N8_2 1_555 1_555
C51_2 N9_2 1_555 1_555
C52_2 N7_2 1_555 1_555
H64_2 C52_2 1_555 1_555
H65_2 C52_2 1_555 1_555
C53_2 C52_2 1_555 1_555
H66_2 C53_2 1_555 1_555
H67_2 C53_2 1_555 1_555
C54_2 C53_2 1_555 1_555
H68_2 C54_2 1_555 1_555
C55_2 C54_2 1_555 1_555
H69_2 C55_2 1_555 1_555
H70_2 C55_2 1_555 1_555
C56_2 N7_2 1_555 1_555
H71_2 C56_2 1_555 1_555
H72_2 C56_2 1_555 1_555
C57_2 C54_2 1_555 1_555
C58_2 N11_2 1_555 1_555
H73_2 C58_2 1_555 1_555
H74_2 C58_2 1_555 1_555
C59_2 C58_2 1_555 1_555
H75_2 C59_2 1_555 1_555
H76_2 C59_2 1_555 1_555
C60_2 C59_2 1_555 1_555
H77_2 C60_2 1_555 1_555
C62_2 N11_2 1_555 1_555
H81_2 C62_2 1_555 1_555
Pb10 O23 1_555 1_555
O30 Pb10 1_555 1_555
N5_2 C9_2 1_555 1_555
N16_2 C24_2 1_555 1_555
C5_2 C6_2 1_555 1_555
C12_2 C15_2 1_555 1_555
C13_2 C14_2 1_555 1_555
C20_2 C21_2 1_555 1_555
C27_2 C30_2 1_555 1_555
C28_2 C29_2 1_555 1_555
C33_2 C36_2 1_555 1_555
C34_2 C35_2 1_555 1_555
C40_2 C41_2 1_555 1_555
C55_2 C56_2 1_555 1_555
O21 C63_2 1_555 1_555
O27 C43_2 1_555 1_555
N10_2 C49_2 1_555 1_555
N12_2 C46_2 1_555 1_555
C43_2 O13_2 1_555 1_555
C44_2 C43_2 1_555 1_555
H55_2 C44_2 1_555 1_555
C45_2 C44_2 1_555 1_555
H56_2 C45_2 1_555 1_555
H57_2 C45_2 1_555 1_555
C46_2 C45_2 1_555 1_555
H58_2 C46_2 1_555 1_555
H59_2 C46_2 1_555 1_555
C47_2 N12_2 1_555 1_555
H60_2 C47_2 1_555 1_555
H61_2 C47_2 1_555 1_555
C48_2 C44_2 1_555 1_555
H62_2 C48_2 1_555 1_555
H63_2 C48_2 1_555 1_555
C49_2 N12_2 1_555 1_555
H78_2 C61_2 1_555 1_555
H79_2 C61_2 1_555 1_555
C63_2 O4_2 1_555 1_555
C47_2 C48_2 1_555 1_555

#END
