
###############################################################################
#
# This file contains modified crystal structure data generated from the
# MOF subset of the Cambridge Structural Database (CSD) v543 
# hosted by the Cambridge Crystallographic Data Centre (CCDC).
#
# This work is licensed under the Creative Commons
# Attribution-NonCommercial-ShareAlike 4.0 International License.
# To view a copy of this license, visit
# http://creativecommons.org/licenses/by-nc-sa/4.0/
# or send a letter to
# Creative Commons, PO Box 1866, Mountain View, CA 94042, USA.
#
# CIF created using the CSD Python API on 29 September 2022
# The structure has been converted into the P1 space group
# The structure has a 3D framework
# The original CSD entry ETIXIQ is in the monoclinic crystal system
# The framework has been calculated to contain at least 10.0% void space
# The void calculation uses a probe of radius 1.32A, grid spacing 0.4
#
###############################################################################

data_ETIXIQ
_chemical_formula_moiety         '(C312 H176 N8 O32 Zn8)n'
_symmetry_cell_setting           triclinic
_symmetry_space_group_name_H-M   'P 1'
_symmetry_Int_Tables_number      1
_space_group_name_Hall           'P 1'
loop_
_symmetry_equiv_pos_site_id
_symmetry_equiv_pos_as_xyz
1 x,y,z
_cell_length_a                   44.26(3)
_cell_length_b                   15.016(9)
_cell_length_c                   14.974(9)
_cell_angle_alpha                90
_cell_angle_beta                 94.012(9)
_cell_angle_gamma                90
_cell_volume                     9927.45
loop_
_atom_site_label
_atom_site_type_symbol
_atom_site_fract_x
_atom_site_fract_y
_atom_site_fract_z
O1 O 0.22433(7) 0.33005(18) 0.10173(18)
O2 O 0.23090(7) 0.64876(18) 0.41842(18)
O3 O 0.27410(7) 0.33068(18) 0.10691(18)
O4 O 0.28066(7) 0.64441(18) 0.42330(18)
C1 C 0.27969(9) 0.4694(2) 0.3479(3)
C2 C 0.25355(9) 0.5717(2) 0.2431(2)
C3 C 0.25347(9) 0.5354(2) 0.3380(2)
C4 C 0.25070(9) 0.4128(2) 0.2159(2)
C5 C 0.25246(9) 0.5069(2) 0.1792(2)
C6 C 0.22367(9) 0.4116(3) 0.2733(2)
C7 C 0.22532(9) 0.4770(2) 0.3397(2)
C8 C 0.20347(10) 0.4814(3) 0.4000(3)
H1 H 0.2046 0.5253 0.4457
C9 C 0.27796(9) 0.4030(3) 0.2832(2)
C10 C 0.25390(11) 0.6184(3) 0.0664(3)
H2 H 0.2542 0.6344 0.0051
C11 C 0.25483(10) 0.6598(3) 0.2194(3)
H3 H 0.2557 0.7046 0.2643
C12 C 0.30232(10) 0.4674(3) 0.4153(3)
H4 H 0.3038 0.5133 0.4591
C13 C 0.25480(11) 0.6833(3) 0.1308(3)
H5 H 0.2554 0.7444 0.1142
C14 C 0.29852(10) 0.3348(3) 0.2879(3)
H6 H 0.2973 0.2889 0.2440
C15 C 0.32088(11) 0.3327(3) 0.3556(3)
H7 H 0.3351 0.2852 0.3588
C16 C 0.24957(9) 0.3508(2) 0.1358(2)
C17 C 0.25516(10) 0.6152(2) 0.4000(2)
C18 C 0.32294(10) 0.3985(3) 0.4190(3)
H8 H 0.3386 0.3967 0.4657
C19 C 0.20007(10) 0.3521(3) 0.2682(3)
H9 H 0.1990 0.3071 0.2236
C21 C 0.25261(10) 0.5302(3) 0.0904(3)
H11 H 0.2518 0.4854 0.0456
C22 C 0.17790(11) 0.3580(3) 0.3281(3)
H12 H 0.1613 0.3179 0.3237
C24 C 0.17971(11) 0.4214(3) 0.3938(3)
H14 H 0.1645 0.4243 0.4355
H15 H 0.1081 0.1814 0.0042
C26 C 0.15209(12) 0.2170(4) 0.0037(3)
H16 H 0.1580 0.1897 0.0594
Zn4 Zn 0.28313(2) 0.75056(3) 0.50436(3)
Zn6 Zn 0.21687(2) 0.74944(3) 0.49564(3)
Zn7 Zn 0.28313(2) 0.24944(3) 0.00436(3)
O14 O 0.21934(7) 0.14441(18) 0.07670(18)
Zn1 Zn 0.21687(2) 0.25056(3) 0.99564(3)
N1 N 0.17294(8) 0.2591(2) 0.9600(2)
C20 C 0.16424(11) 0.2976(3) 0.8817(3)
H10 H 0.1790 0.3287 0.8505
C23 C 0.13534(11) 0.2943(3) 0.8448(3)
H13 H 0.1301 0.3216 0.7886
C25 C 0.12253(12) 0.2117(4) 0.9713(4)
C27 C 0.08344(12) 0.2460(4) 0.8522(5)
C28 C 0.05888(12) 0.2459(4) 0.8195(5)
C29 C 0.02780(12) 0.2461(4) 0.7817(5)
C30 C 0.02319(12) 0.2933(4) 0.6924(5)
C31 C 0.00674(12) 0.2937(4) 0.8421(5)
C32 C 0.11386(11) 0.2509(4) 0.8901(4)
C33 C 0.02958(14) 0.0760(5) 0.7846(5)
H17 H 0.0500 0.0764 0.8086
C34 C 0.04485(13) 0.3326(4) 0.6451(5)
H18 H 0.0655 0.3310 0.6670
C35 C 0.03653(16) 0.3747(5) 0.5654(5)
H19 H 0.0516 0.4030 0.5333
C36 C 0.00704(15) 0.3767(5) 0.5314(5)
H20 H 0.0016 0.4060 0.4764
C38 C 0.01474(14) 0.3348(5) 0.9211(5)
H22 H 0.0353 0.3350 0.9439
C39 C 0.01492(12) 0.1529(4) 0.7674(4)
O10 O 0.23090(7) 0.35124(18) 0.91842(18)
O11 O 0.22590(7) 0.16932(18) 0.89309(18)
N2 N 0.82706(8) 0.2591(2) 0.5400(2)
C40 C 0.83576(11) 0.2976(3) 0.6183(3)
H23 H 0.8210 0.3287 0.6495
C41 C 0.86466(11) 0.2943(3) 0.6552(3)
H24 H 0.8699 0.3216 0.7114
C42 C 0.87747(12) 0.2117(4) 0.5287(4)
H25 H 0.8919 0.1814 0.4958
C43 C 0.84791(12) 0.2170(4) 0.4963(3)
H26 H 0.8420 0.1897 0.4406
C44 C 0.91656(12) 0.2460(4) 0.6478(5)
C45 C 0.94112(12) 0.2459(4) 0.6805(5)
C46 C 0.97220(12) 0.2461(4) 0.7183(5)
C47 C 0.97681(12) 0.2933(4) 0.8076(5)
C48 C 0.99326(12) 0.2937(4) 0.6579(5)
C49 C 0.88614(11) 0.2509(4) 0.6099(4)
C50 C 0.97042(14) 0.0760(5) 0.7154(5)
H27 H 0.9500 0.0764 0.6914
C51 C 0.95515(13) 0.3326(4) 0.8549(5)
H28 H 0.9345 0.3310 0.8330
C52 C 0.96347(16) 0.3747(5) 0.9346(5)
H29 H 0.9484 0.4030 0.9667
C53 C 0.99296(15) 0.3767(5) 0.9686(5)
C55 C 0.98526(14) 0.3348(5) 0.5789(5)
H32 H 0.9647 0.3350 0.5561
C56 C 0.98508(12) 0.1529(4) 0.7326(4)
Zn2 Zn 0.78313(2) 0.25056(3) 0.50436(3)
O5 O 0.77567(7) 0.33005(18) 0.39827(18)
O6 O 0.76910(7) 0.64876(18) 0.08158(18)
O7 O 0.72590(7) 0.33068(18) 0.39309(18)
O8 O 0.71934(7) 0.64441(18) 0.07670(18)
C57 C 0.72031(9) 0.4694(2) 0.1521(3)
C58 C 0.74645(9) 0.5717(2) 0.2569(2)
C59 C 0.74653(9) 0.5354(2) 0.1620(2)
C60 C 0.74930(9) 0.4128(2) 0.2841(2)
C61 C 0.74754(9) 0.5069(2) 0.3208(2)
C62 C 0.77633(9) 0.4116(3) 0.2267(2)
C63 C 0.77468(9) 0.4770(2) 0.1603(2)
C64 C 0.79653(10) 0.4814(3) 0.1000(3)
H33 H 0.7954 0.5253 0.0543
C65 C 0.72204(9) 0.4030(3) 0.2168(2)
C66 C 0.74610(11) 0.6184(3) 0.4336(3)
H34 H 0.7458 0.6344 0.4949
C67 C 0.74517(10) 0.6598(3) 0.2806(3)
H35 H 0.7443 0.7046 0.2357
C68 C 0.69768(10) 0.4674(3) 0.0847(3)
H36 H 0.6962 0.5133 0.0409
C69 C 0.74520(11) 0.6833(3) 0.3692(3)
H37 H 0.7446 0.7444 0.3858
C70 C 0.70148(10) 0.3348(3) 0.2121(3)
H38 H 0.7027 0.2889 0.2560
C71 C 0.67912(11) 0.3327(3) 0.1444(3)
H39 H 0.6649 0.2852 0.1412
C72 C 0.75043(9) 0.3508(2) 0.3642(2)
C73 C 0.74484(10) 0.6152(2) 0.1000(2)
C74 C 0.67706(10) 0.3985(3) 0.0810(3)
H40 H 0.6614 0.3967 0.0343
C75 C 0.79993(10) 0.3521(3) 0.2318(3)
H41 H 0.8010 0.3071 0.2764
C76 C 0.74739(10) 0.5302(3) 0.4096(3)
H42 H 0.7482 0.4854 0.4544
C77 C 0.82210(11) 0.3580(3) 0.1719(3)
H43 H 0.8387 0.3179 0.1763
C78 C 0.82029(11) 0.4214(3) 0.1062(3)
H44 H 0.8355 0.4243 0.0645
Zn5 Zn 0.78313(2) 0.74944(3) 0.00436(3)
Zn8 Zn 0.71687(2) 0.24944(3) 0.49564(3)
O9 O 0.76910(7) 0.35124(18) 0.58158(18)
O12 O 0.77410(7) 0.16932(18) 0.60691(18)
O13 O 0.78066(7) 0.14441(18) 0.42330(18)
Zn3 Zn 0.71687(2) 0.75056(3) 0.99564(3)
O2_2 O 0.73090(7) 0.14876(18) 0.41842(18)
C2_2 C 0.75355(9) 0.0717(2) 0.2431(2)
C3_2 C 0.75347(9) 0.0354(2) 0.3380(2)
C5_2 C 0.75246(9) 0.0069(2) 0.1792(2)
H1_2 H 0.7046 0.0253 0.4457
C10_2 C 0.75390(11) 0.1184(3) 0.0664(3)
H2_2 H 0.7542 0.1344 0.0051
C11_2 C 0.75483(10) 0.1598(3) 0.2194(3)
H3_2 H 0.7557 0.2046 0.2643
H4_2 H 0.8038 0.0133 0.4591
C13_2 C 0.75480(11) 0.1833(3) 0.1308(3)
H5_2 H 0.7554 0.2444 0.1142
C17_2 C 0.75516(10) 0.1152(2) 0.4000(2)
C21_2 C 0.75261(10) 0.0302(3) 0.0904(3)
O6_2 O 0.26910(7) 0.14876(18) 0.08158(18)
C58_2 C 0.24645(9) 0.0717(2) 0.2569(2)
C59_2 C 0.24653(9) 0.0354(2) 0.1620(2)
C61_2 C 0.24754(9) 0.0069(2) 0.3208(2)
H33_2 H 0.2954 0.0253 0.0543
C66_2 C 0.24610(11) 0.1184(3) 0.4336(3)
H34_2 H 0.2458 0.1344 0.4949
C67_2 C 0.24517(10) 0.1598(3) 0.2806(3)
H35_2 H 0.2443 0.2046 0.2357
H36_2 H 0.1962 0.0133 0.0409
C69_2 C 0.24520(11) 0.1833(3) 0.3692(3)
H37_2 H 0.2446 0.2444 0.3858
C73_2 C 0.24484(10) 0.1152(2) 0.1000(2)
C76_2 C 0.24739(10) 0.0302(3) 0.4096(3)
O1_2 O 0.72433(7) 0.83005(18) 0.10173(18)
O3_2 O 0.77410(7) 0.83068(18) 0.10691(18)
C1_2 C 0.77969(9) 0.9694(2) 0.3479(3)
C4_2 C 0.75070(9) 0.9128(2) 0.2159(2)
C6_2 C 0.72367(9) 0.9116(3) 0.2733(2)
C7_2 C 0.72532(9) 0.9770(2) 0.3397(2)
C8_2 C 0.70347(10) 0.9814(3) 0.4000(3)
C9_2 C 0.77796(9) 0.9030(3) 0.2832(2)
C12_2 C 0.80232(10) 0.9674(3) 0.4153(3)
C14_2 C 0.79852(10) 0.8348(3) 0.2879(3)
H6_2 H 0.7973 0.7889 0.2440
C15_2 C 0.82088(11) 0.8327(3) 0.3556(3)
H7_2 H 0.8351 0.7852 0.3588
C16_2 C 0.74957(9) 0.8508(2) 0.1358(2)
C18_2 C 0.82294(10) 0.8985(3) 0.4190(3)
H8_2 H 0.8386 0.8967 0.4657
C19_2 C 0.70007(10) 0.8521(3) 0.2682(3)
H9_2 H 0.6990 0.8071 0.2236
H11_2 H 0.7518 0.9854 0.0456
C22_2 C 0.67790(11) 0.8580(3) 0.3281(3)
H12_2 H 0.6613 0.8179 0.3237
C24_2 C 0.67971(11) 0.9214(3) 0.3938(3)
H14_2 H 0.6645 0.9243 0.4355
H15_2 H 0.6081 0.6814 0.0042
C26_2 C 0.65209(12) 0.7170(4) 0.0037(3)
H16_2 H 0.6580 0.6897 0.0594
H30 H 0.4984 0.9060 0.0236
N1_2 N 0.67294(8) 0.7591(2) 0.9600(2)
C20_2 C 0.66424(11) 0.7976(3) 0.8817(3)
H10_2 H 0.6790 0.8287 0.8505
C23_2 C 0.63534(11) 0.7943(3) 0.8448(3)
H13_2 H 0.6301 0.8216 0.7886
C25_2 C 0.62253(12) 0.7117(4) 0.9713(4)
C27_2 C 0.58344(12) 0.7460(4) 0.8522(5)
C28_2 C 0.55888(12) 0.7459(4) 0.8195(5)
C29_2 C 0.52780(12) 0.7461(4) 0.7817(5)
C30_2 C 0.52319(12) 0.7933(4) 0.6924(5)
C31_2 C 0.50674(12) 0.7937(4) 0.8421(5)
C32_2 C 0.61386(11) 0.7509(4) 0.8901(4)
C33_2 C 0.52958(14) 0.5760(5) 0.7846(5)
H17_2 H 0.5500 0.5764 0.8086
C34_2 C 0.54485(13) 0.8326(4) 0.6451(5)
H18_2 H 0.5655 0.8310 0.6670
C35_2 C 0.53653(16) 0.8747(5) 0.5654(5)
H19_2 H 0.5516 0.9030 0.5333
C36_2 C 0.50704(15) 0.8767(5) 0.5314(5)
H20_2 H 0.5016 0.9060 0.4764
C37 C 0.51496(15) 0.4967(5) 0.7674(5)
H21 H 0.5252 0.4420 0.7793
C38_2 C 0.51474(14) 0.8348(5) 0.9211(5)
H22_2 H 0.5353 0.8350 0.9439
C39_2 C 0.51492(12) 0.6529(4) 0.7674(4)
N2_2 N 0.32706(8) 0.7591(2) 0.5400(2)
C40_2 C 0.33576(11) 0.7976(3) 0.6183(3)
H23_2 H 0.3210 0.8287 0.6495
C41_2 C 0.36466(11) 0.7943(3) 0.6552(3)
H24_2 H 0.3699 0.8216 0.7114
C42_2 C 0.37747(12) 0.7117(4) 0.5287(4)
H25_2 H 0.3919 0.6814 0.4958
C43_2 C 0.34791(12) 0.7170(4) 0.4963(3)
H26_2 H 0.3420 0.6897 0.4406
C44_2 C 0.41656(12) 0.7460(4) 0.6478(5)
C45_2 C 0.44112(12) 0.7459(4) 0.6805(5)
C46_2 C 0.47220(12) 0.7461(4) 0.7183(5)
C47_2 C 0.47681(12) 0.7933(4) 0.8076(5)
C48_2 C 0.49326(12) 0.7937(4) 0.6579(5)
C49_2 C 0.38614(11) 0.7509(4) 0.6099(4)
C50_2 C 0.47042(14) 0.5760(5) 0.7154(5)
H27_2 H 0.4500 0.5764 0.6914
C51_2 C 0.45515(13) 0.8326(4) 0.8549(5)
H28_2 H 0.4345 0.8310 0.8330
C52_2 C 0.46347(16) 0.8747(5) 0.9346(5)
H29_2 H 0.4484 0.9030 0.9667
C53_2 C 0.49296(15) 0.8767(5) 0.9686(5)
C54 C 0.48504(15) 0.4967(5) 0.7326(5)
H31 H 0.4748 0.4420 0.7207
C55_2 C 0.48526(14) 0.8348(5) 0.5789(5)
H32_2 H 0.4647 0.8350 0.5561
C56_2 C 0.48508(12) 0.6529(4) 0.7326(4)
O5_2 O 0.27567(7) 0.83005(18) 0.39827(18)
O7_2 O 0.22590(7) 0.83068(18) 0.39309(18)
C57_2 C 0.22031(9) 0.9694(2) 0.1521(3)
C60_2 C 0.24930(9) 0.9128(2) 0.2841(2)
C62_2 C 0.27633(9) 0.9116(3) 0.2267(2)
C63_2 C 0.27468(9) 0.9770(2) 0.1603(2)
C64_2 C 0.29653(10) 0.9814(3) 0.1000(3)
C65_2 C 0.22204(9) 0.9030(3) 0.2168(2)
C68_2 C 0.19768(10) 0.9674(3) 0.0847(3)
C70_2 C 0.20148(10) 0.8348(3) 0.2121(3)
H38_2 H 0.2027 0.7889 0.2560
C71_2 C 0.17912(11) 0.8327(3) 0.1444(3)
H39_2 H 0.1649 0.7852 0.1412
C72_2 C 0.25043(9) 0.8508(2) 0.3642(2)
C74_2 C 0.17706(10) 0.8985(3) 0.0810(3)
H40_2 H 0.1614 0.8967 0.0343
C75_2 C 0.29993(10) 0.8521(3) 0.2318(3)
H41_2 H 0.3010 0.8071 0.2764
H42_2 H 0.2482 0.9854 0.4544
C77_2 C 0.32210(11) 0.8580(3) 0.1719(3)
H43_2 H 0.3387 0.8179 0.1763
C78_2 C 0.32029(11) 0.9214(3) 0.1062(3)
H44_2 H 0.3355 0.9243 0.0645
O9_2 O 0.26910(7) 0.85124(18) 0.58158(18)
O10_2 O 0.73090(7) 0.85124(18) 0.91842(18)
O11_2 O 0.72590(7) 0.66932(18) 0.89309(18)
O12_2 O 0.27410(7) 0.66932(18) 0.60691(18)
N2_3 N 0.17294(8) 0.7409(2) 0.4600(2)
C40_3 C 0.16424(11) 0.7024(3) 0.3817(3)
H23_3 H 0.1790 0.6713 0.3505
C41_3 C 0.13534(11) 0.7057(3) 0.3448(3)
H24_3 H 0.1301 0.6784 0.2886
C42_3 C 0.12253(12) 0.7883(4) 0.4713(4)
H25_3 H 0.1081 0.8186 0.5042
C43_3 C 0.15209(12) 0.7830(4) 0.5037(3)
H26_3 H 0.1580 0.8103 0.5594
C44_3 C 0.08344(12) 0.7540(4) 0.3522(5)
C45_3 C 0.05888(12) 0.7541(4) 0.3195(5)
C46_3 C 0.02780(12) 0.7539(4) 0.2817(5)
C47_3 C 0.02319(12) 0.7067(4) 0.1924(5)
C48_3 C 0.00674(12) 0.7063(4) 0.3421(5)
C49_3 C 0.11386(11) 0.7491(4) 0.3901(4)
C50_3 C 0.02958(14) 0.9240(5) 0.2846(5)
H27_3 H 0.0500 0.9236 0.3086
C51_3 C 0.04485(13) 0.6674(4) 0.1451(5)
H28_3 H 0.0655 0.6690 0.1670
C52_3 C 0.03653(16) 0.6253(5) 0.0654(5)
H29_3 H 0.0516 0.5970 0.0333
C53_3 C 0.00704(15) 0.6233(5) 0.0314(5)
C55_3 C 0.01474(14) 0.6652(5) 0.4211(5)
H32_3 H 0.0353 0.6650 0.4439
C56_3 C 0.01492(12) 0.8471(4) 0.2674(4)
O5_3 O 0.22433(7) 0.66995(18) 0.60173(18)
O8_2 O 0.28066(7) 0.35559(18) 0.92330(18)
C57_3 C 0.27969(9) 0.5306(2) 0.8479(3)
C58_3 C 0.25355(9) 0.4283(2) 0.7431(2)
C59_3 C 0.25347(9) 0.4646(2) 0.8380(2)
C60_3 C 0.25070(9) 0.5872(2) 0.7159(2)
C61_3 C 0.25246(9) 0.4931(2) 0.6792(2)
C62_3 C 0.22367(9) 0.5884(3) 0.7733(2)
C63_3 C 0.22532(9) 0.5230(2) 0.8397(2)
C64_3 C 0.20347(10) 0.5186(3) 0.9000(3)
H33_3 H 0.2046 0.4747 0.9457
C65_3 C 0.27796(9) 0.5970(3) 0.7832(2)
C66_3 C 0.25390(11) 0.3816(3) 0.5664(3)
H34_3 H 0.2542 0.3656 0.5051
C67_3 C 0.25483(10) 0.3402(3) 0.7194(3)
H35_3 H 0.2557 0.2954 0.7643
C68_3 C 0.30232(10) 0.5326(3) 0.9153(3)
H36_3 H 0.3038 0.4867 0.9591
C69_3 C 0.25480(11) 0.3167(3) 0.6308(3)
H37_3 H 0.2554 0.2556 0.6142
C70_3 C 0.29852(10) 0.6652(3) 0.7879(3)
H38_3 H 0.2973 0.7111 0.7440
C71_3 C 0.32088(11) 0.6673(3) 0.8556(3)
H39_3 H 0.3351 0.7148 0.8588
C72_3 C 0.24957(9) 0.6492(2) 0.6358(2)
C73_3 C 0.25516(10) 0.3848(2) 0.9000(2)
C74_3 C 0.32294(10) 0.6015(3) 0.9190(3)
H40_3 H 0.3386 0.6033 0.9657
C75_3 C 0.20007(10) 0.6479(3) 0.7682(3)
H41_3 H 0.1990 0.6929 0.7236
C76_3 C 0.25261(10) 0.4698(3) 0.5904(3)
H42_3 H 0.2518 0.5146 0.5456
C77_3 C 0.17790(11) 0.6420(3) 0.8281(3)
H43_3 H 0.1613 0.6821 0.8237
C78_3 C 0.17971(11) 0.5786(3) 0.8938(3)
H44_3 H 0.1645 0.5757 0.9355
O13_2 O 0.21934(7) 0.85559(18) 0.57670(18)
N1_3 N 0.82706(8) 0.7409(2) 0.0400(2)
C20_3 C 0.83576(11) 0.7024(3) 0.1183(3)
H10_3 H 0.8210 0.6713 0.1495
C23_3 C 0.86466(11) 0.7057(3) 0.1552(3)
H13_3 H 0.8699 0.6784 0.2114
C25_3 C 0.87747(12) 0.7883(4) 0.0287(4)
C27_3 C 0.91656(12) 0.7540(4) 0.1478(5)
C28_3 C 0.94112(12) 0.7541(4) 0.1805(5)
C29_3 C 0.97220(12) 0.7539(4) 0.2183(5)
C30_3 C 0.97681(12) 0.7067(4) 0.3076(5)
C31_3 C 0.99326(12) 0.7063(4) 0.1579(5)
C32_3 C 0.88614(11) 0.7491(4) 0.1099(4)
C33_3 C 0.97042(14) 0.9240(5) 0.2154(5)
H17_3 H 0.9500 0.9236 0.1914
C34_3 C 0.95515(13) 0.6674(4) 0.3549(5)
H18_3 H 0.9345 0.6690 0.3330
C35_3 C 0.96347(16) 0.6253(5) 0.4346(5)
H19_3 H 0.9484 0.5970 0.4667
C36_3 C 0.99296(15) 0.6233(5) 0.4686(5)
H20_3 H 0.9984 0.5940 0.5236
C38_3 C 0.98526(14) 0.6652(5) 0.0789(5)
H22_3 H 0.9647 0.6650 0.0561
C39_3 C 0.98508(12) 0.8471(4) 0.2326(4)
O1_3 O 0.77567(7) 0.66995(18) 0.89827(18)
O4_2 O 0.71934(7) 0.35559(18) 0.57670(18)
C1_3 C 0.72031(9) 0.5306(2) 0.6521(3)
C2_3 C 0.74645(9) 0.4283(2) 0.7569(2)
C3_3 C 0.74653(9) 0.4646(2) 0.6620(2)
C4_3 C 0.74930(9) 0.5872(2) 0.7841(2)
C5_3 C 0.74754(9) 0.4931(2) 0.8208(2)
C6_3 C 0.77633(9) 0.5884(3) 0.7267(2)
C7_3 C 0.77468(9) 0.5230(2) 0.6603(2)
C8_3 C 0.79653(10) 0.5186(3) 0.6000(3)
H1_3 H 0.7954 0.4747 0.5543
C9_3 C 0.72204(9) 0.5970(3) 0.7168(2)
C10_3 C 0.74610(11) 0.3816(3) 0.9336(3)
H2_3 H 0.7458 0.3656 0.9949
C11_3 C 0.74517(10) 0.3402(3) 0.7806(3)
H3_3 H 0.7443 0.2954 0.7357
C12_3 C 0.69768(10) 0.5326(3) 0.5847(3)
H4_3 H 0.6962 0.4867 0.5409
C13_3 C 0.74520(11) 0.3167(3) 0.8692(3)
H5_3 H 0.7446 0.2556 0.8858
C14_3 C 0.70148(10) 0.6652(3) 0.7121(3)
H6_3 H 0.7027 0.7111 0.7560
C15_3 C 0.67912(11) 0.6673(3) 0.6444(3)
H7_3 H 0.6649 0.7148 0.6412
C16_3 C 0.75043(9) 0.6492(2) 0.8642(2)
C17_3 C 0.74484(10) 0.3848(2) 0.6000(2)
C18_3 C 0.67706(10) 0.6015(3) 0.5810(3)
H8_3 H 0.6614 0.6033 0.5343
C19_3 C 0.79993(10) 0.6479(3) 0.7318(3)
H9_3 H 0.8010 0.6929 0.7764
C21_3 C 0.74739(10) 0.4698(3) 0.9096(3)
H11_3 H 0.7482 0.5146 0.9544
C22_3 C 0.82210(11) 0.6420(3) 0.6719(3)
H12_3 H 0.8387 0.6821 0.6763
C24_3 C 0.82029(11) 0.5786(3) 0.6062(3)
H14_3 H 0.8355 0.5757 0.5645
H15_3 H 0.8919 0.8186 0.9958
C26_3 C 0.84791(12) 0.7830(4) 0.9963(3)
H16_3 H 0.8420 0.8103 0.9406
O14_2 O 0.78066(7) 0.85559(18) 0.92330(18)
N1_4 N 0.32706(8) 0.2409(2) 0.0400(2)
C20_4 C 0.33576(11) 0.2024(3) 0.1183(3)
H10_4 H 0.3210 0.1713 0.1495
C23_4 C 0.36466(11) 0.2057(3) 0.1552(3)
H13_4 H 0.3699 0.1784 0.2114
C25_4 C 0.37747(12) 0.2883(4) 0.0287(4)
C27_4 C 0.41656(12) 0.2540(4) 0.1478(5)
C28_4 C 0.44112(12) 0.2541(4) 0.1805(5)
C29_4 C 0.47220(12) 0.2539(4) 0.2183(5)
C30_4 C 0.47681(12) 0.2067(4) 0.3076(5)
C31_4 C 0.49326(12) 0.2063(4) 0.1579(5)
C32_4 C 0.38614(11) 0.2491(4) 0.1099(4)
C33_4 C 0.47042(14) 0.4240(5) 0.2154(5)
H17_4 H 0.4500 0.4236 0.1914
C34_4 C 0.45515(13) 0.1674(4) 0.3549(5)
H18_4 H 0.4345 0.1690 0.3330
C35_4 C 0.46347(16) 0.1253(5) 0.4346(5)
H19_4 H 0.4484 0.0970 0.4667
C36_4 C 0.49296(15) 0.1233(5) 0.4686(5)
H20_4 H 0.4984 0.0940 0.5236
C37_2 C 0.48504(15) 0.5033(5) 0.2326(5)
H21_2 H 0.4748 0.5580 0.2207
C38_4 C 0.48526(14) 0.1652(5) 0.0789(5)
H22_4 H 0.4647 0.1650 0.0561
C39_4 C 0.48508(12) 0.3471(4) 0.2326(4)
N2_4 N 0.67294(8) 0.2409(2) 0.4600(2)
C40_4 C 0.66424(11) 0.2024(3) 0.3817(3)
H23_4 H 0.6790 0.1713 0.3505
C41_4 C 0.63534(11) 0.2057(3) 0.3448(3)
H24_4 H 0.6301 0.1784 0.2886
C42_4 C 0.62253(12) 0.2883(4) 0.4713(4)
H25_4 H 0.6081 0.3186 0.5042
C43_4 C 0.65209(12) 0.2830(4) 0.5037(3)
H26_4 H 0.6580 0.3103 0.5594
C44_4 C 0.58344(12) 0.2540(4) 0.3522(5)
C45_4 C 0.55888(12) 0.2541(4) 0.3195(5)
C46_4 C 0.52780(12) 0.2539(4) 0.2817(5)
C47_4 C 0.52319(12) 0.2067(4) 0.1924(5)
C48_4 C 0.50674(12) 0.2063(4) 0.3421(5)
C49_4 C 0.61386(11) 0.2491(4) 0.3901(4)
C50_4 C 0.52958(14) 0.4240(5) 0.2846(5)
H27_4 H 0.5500 0.4236 0.3086
C51_4 C 0.54485(13) 0.1674(4) 0.1451(5)
H28_4 H 0.5655 0.1690 0.1670
C52_4 C 0.53653(16) 0.1253(5) 0.0654(5)
H29_4 H 0.5516 0.0970 0.0333
C53_4 C 0.50704(15) 0.1233(5) 0.0314(5)
C54_2 C 0.51496(15) 0.5033(5) 0.2674(5)
H31_2 H 0.5252 0.5580 0.2793
C55_4 C 0.51474(14) 0.1652(5) 0.4211(5)
H32_4 H 0.5353 0.1650 0.4439
C56_4 C 0.51492(12) 0.3471(4) 0.2674(4)
O5_4 O 0.72433(7) 0.16995(18) 0.60173(18)
C57_4 C 0.77969(9) 0.0306(2) 0.8479(3)
C60_4 C 0.75070(9) 0.0872(2) 0.7159(2)
C62_4 C 0.72367(9) 0.0884(3) 0.7733(2)
C63_4 C 0.72532(9) 0.0230(2) 0.8397(2)
C64_4 C 0.70347(10) 0.0186(3) 0.9000(3)
C65_4 C 0.77796(9) 0.0970(3) 0.7832(2)
C68_4 C 0.80232(10) 0.0326(3) 0.9153(3)
C70_4 C 0.79852(10) 0.1652(3) 0.7879(3)
H38_4 H 0.7973 0.2111 0.7440
C71_4 C 0.82088(11) 0.1673(3) 0.8556(3)
H39_4 H 0.8351 0.2148 0.8588
C72_4 C 0.74957(9) 0.1492(2) 0.6358(2)
C74_4 C 0.82294(10) 0.1015(3) 0.9190(3)
H40_4 H 0.8386 0.1033 0.9657
C75_4 C 0.70007(10) 0.1479(3) 0.7682(3)
H41_4 H 0.6990 0.1929 0.7236
H42_4 H 0.7518 0.0146 0.5456
C77_4 C 0.67790(11) 0.1420(3) 0.8281(3)
H43_4 H 0.6613 0.1821 0.8237
C78_4 C 0.67971(11) 0.0786(3) 0.8938(3)
H44_4 H 0.6645 0.0757 0.9355
O1_4 O 0.27567(7) 0.16995(18) 0.89827(18)
C1_4 C 0.22031(9) 0.0306(2) 0.6521(3)
C4_4 C 0.24930(9) 0.0872(2) 0.7841(2)
C6_4 C 0.27633(9) 0.0884(3) 0.7267(2)
C7_4 C 0.27468(9) 0.0230(2) 0.6603(2)
C8_4 C 0.29653(10) 0.0186(3) 0.6000(3)
C9_4 C 0.22204(9) 0.0970(3) 0.7168(2)
C12_4 C 0.19768(10) 0.0326(3) 0.5847(3)
C14_4 C 0.20148(10) 0.1652(3) 0.7121(3)
H6_4 H 0.2027 0.2111 0.7560
C15_4 C 0.17912(11) 0.1673(3) 0.6444(3)
H7_4 H 0.1649 0.2148 0.6412
C16_4 C 0.25043(9) 0.1492(2) 0.8642(2)
C18_4 C 0.17706(10) 0.1015(3) 0.5810(3)
H8_4 H 0.1614 0.1033 0.5343
C19_4 C 0.29993(10) 0.1479(3) 0.7318(3)
H9_4 H 0.3010 0.1929 0.7764
H11_4 H 0.2482 0.0146 0.9544
C22_4 C 0.32210(11) 0.1420(3) 0.6719(3)
H12_4 H 0.3387 0.1821 0.6763
C24_4 C 0.32029(11) 0.0786(3) 0.6062(3)
H14_4 H 0.3355 0.0757 0.5645
H15_4 H 0.3919 0.3186 0.9958
C26_4 C 0.34791(12) 0.2830(4) 0.9963(3)
H16_4 H 0.3420 0.3103 0.9406
H30_2 H 0.5016 0.0940 0.9764
C58_4 C 0.75355(9) 0.9283(2) 0.7431(2)
C59_4 C 0.75347(9) 0.9646(2) 0.8380(2)
C61_4 C 0.75246(9) 0.9931(2) 0.6792(2)
H33_4 H 0.7046 0.9747 0.9457
C66_4 C 0.75390(11) 0.8816(3) 0.5664(3)
H34_4 H 0.7542 0.8656 0.5051
C67_4 C 0.75483(10) 0.8402(3) 0.7194(3)
H35_4 H 0.7557 0.7954 0.7643
H36_4 H 0.8038 0.9867 0.9591
C69_4 C 0.75480(11) 0.8167(3) 0.6308(3)
H37_4 H 0.7554 0.7556 0.6142
C73_4 C 0.75516(10) 0.8848(2) 0.9000(2)
C76_4 C 0.75261(10) 0.9698(3) 0.5904(3)
C2_4 C 0.24645(9) 0.9283(2) 0.7569(2)
C3_4 C 0.24653(9) 0.9646(2) 0.6620(2)
C5_4 C 0.24754(9) 0.9931(2) 0.8208(2)
H1_4 H 0.2954 0.9747 0.5543
C10_4 C 0.24610(11) 0.8816(3) 0.9336(3)
H2_4 H 0.2458 0.8656 0.9949
C11_4 C 0.24517(10) 0.8402(3) 0.7806(3)
H3_4 H 0.2443 0.7954 0.7357
H4_4 H 0.1962 0.9867 0.5409
C13_4 C 0.24520(11) 0.8167(3) 0.8692(3)
H5_4 H 0.2446 0.7556 0.8858
C17_4 C 0.24484(10) 0.8848(2) 0.6000(2)
C21_4 C 0.24739(10) 0.9698(3) 0.9096(3)
C37_3 C 0.01496(15) 0.9967(5) 0.7674(5)
H21_3 H 0.0252 0.9420 0.7793
H30_3 H 0.9984 0.4060 0.0236
C54_3 C 0.98504(15) 0.9967(5) 0.7326(5)
H31_3 H 0.9748 0.9420 0.7207
C54_4 C 0.01496(15) 0.0033(5) 0.2674(5)
H31_4 H 0.0252 0.0580 0.2793
H30_4 H 0.0016 0.5940 0.9764
C37_4 C 0.98504(15) 0.0033(5) 0.2326(5)
H21_4 H 0.9748 0.0580 0.2207
loop_
_geom_bond_atom_site_label_1
_geom_bond_atom_site_label_2
_geom_bond_site_symmetry_1
_geom_bond_site_symmetry_2
O1 C16 1_555 1_555
O2 C17 1_555 1_555
O3 C16 1_555 1_555
O4 C17 1_555 1_555
C1 C3 1_555 1_555
C2 C3 1_555 1_555
C3 C7 1_555 1_555
C4 C5 1_555 1_555
C5 C2 1_555 1_555
C6 C4 1_555 1_555
C7 C6 1_555 1_555
C8 C7 1_555 1_555
H1 C8 1_555 1_555
C9 C1 1_555 1_555
C10 H2 1_555 1_555
C11 C2 1_555 1_555
H3 C11 1_555 1_555
C12 C1 1_555 1_555
H4 C12 1_555 1_555
C13 C10 1_555 1_555
H5 C13 1_555 1_555
C14 C9 1_555 1_555
H6 C14 1_555 1_555
C15 C14 1_555 1_555
H7 C15 1_555 1_555
C16 C4 1_555 1_555
C17 C3 1_555 1_555
C18 C12 1_555 1_555
H8 C18 1_555 1_555
C19 C6 1_555 1_555
H9 C19 1_555 1_555
C21 C5 1_555 1_555
H11 C21 1_555 1_555
C22 C19 1_555 1_555
H12 C22 1_555 1_555
C24 C8 1_555 1_555
H14 C24 1_555 1_555
H16 C26 1_555 1_555
Zn4 O4 1_555 1_555
Zn6 O2 1_555 1_555
Zn7 O3 1_555 1_555
C4 C9 1_555 1_555
C10 C21 1_555 1_555
C11 C13 1_555 1_555
C15 C18 1_555 1_555
C22 C24 1_555 1_555
N1 Zn1 1_555 1_555
C20 N1 1_555 1_555
H10 C20 1_555 1_555
C23 C20 1_555 1_555
H13 C23 1_555 1_555
C27 C28 1_555 1_555
C28 C29 1_555 1_555
C29 C30 1_555 1_555
C30 C34 1_555 1_555
C31 C29 1_555 1_555
C32 C23 1_555 1_555
C33 H17 1_555 1_555
C34 H18 1_555 1_555
C35 C34 1_555 1_555
H19 C35 1_555 1_555
C36 C35 1_555 1_555
H20 C36 1_555 1_555
C38 C31 1_555 1_555
H22 C38 1_555 1_555
C39 C29 1_555 1_555
O10 Zn1 1_555 1_555
O11 Zn1 1_555 1_555
C25 C32 1_555 1_555
C27 C32 1_555 1_555
C33 C39 1_555 1_555
N2 C40 1_555 1_555
C40 H23 1_555 1_555
C41 C40 1_555 1_555
H24 C41 1_555 1_555
C42 H25 1_555 1_555
C43 N2 1_555 1_555
H26 C43 1_555 1_555
C44 C45 1_555 1_555
C45 C46 1_555 1_555
C46 C47 1_555 1_555
C49 C41 1_555 1_555
C50 H27 1_555 1_555
C51 C47 1_555 1_555
H28 C51 1_555 1_555
C52 C51 1_555 1_555
H29 C52 1_555 1_555
H32 C55 1_555 1_555
Zn2 N2 1_555 1_555
O5 Zn2 1_555 1_555
O6 C73 1_555 1_555
O7 C72 1_555 1_555
O8 C73 1_555 1_555
C57 C59 1_555 1_555
C58 C59 1_555 1_555
C59 C63 1_555 1_555
C60 C61 1_555 1_555
C61 C58 1_555 1_555
C62 C60 1_555 1_555
C63 C62 1_555 1_555
C64 C63 1_555 1_555
H33 C64 1_555 1_555
C65 C57 1_555 1_555
C66 H34 1_555 1_555
C67 C58 1_555 1_555
H35 C67 1_555 1_555
C68 C57 1_555 1_555
H36 C68 1_555 1_555
C69 C66 1_555 1_555
H37 C69 1_555 1_555
C70 C65 1_555 1_555
H38 C70 1_555 1_555
C71 C70 1_555 1_555
H39 C71 1_555 1_555
C72 O5 1_555 1_555
C73 C59 1_555 1_555
C74 C68 1_555 1_555
H40 C74 1_555 1_555
C75 C62 1_555 1_555
H41 C75 1_555 1_555
C76 C61 1_555 1_555
H42 C76 1_555 1_555
C77 C75 1_555 1_555
H43 C77 1_555 1_555
C78 C64 1_555 1_555
H44 C78 1_555 1_555
Zn5 O6 1_555 1_555
Zn8 O7 1_555 1_555
O9 Zn2 1_555 1_555
O12 Zn2 1_555 1_555
O13 Zn2 1_555 1_555
C42 C43 1_555 1_555
C42 C49 1_555 1_555
C44 C49 1_555 1_555
C46 C48 1_555 1_555
C46 C56 1_555 1_555
C48 C55 1_555 1_555
C50 C56 1_555 1_555
C52 C53 1_555 1_555
C60 C65 1_555 1_555
C60 C72 1_555 1_555
C66 C76 1_555 1_555
C67 C69 1_555 1_555
C71 C74 1_555 1_555
C77 C78 1_555 1_555
O2_2 C17_2 1_555 1_555
O13 C17_2 1_555 1_555
C2_2 C3_2 1_555 1_555
C5_2 C2_2 1_555 1_555
C10_2 H2_2 1_555 1_555
C11_2 C2_2 1_555 1_555
H3_2 C11_2 1_555 1_555
C13_2 C10_2 1_555 1_555
H5_2 C13_2 1_555 1_555
C17_2 C3_2 1_555 1_555
C21_2 C5_2 1_555 1_555
Zn8 O2_2 1_555 1_555
C10_2 C21_2 1_555 1_555
C11_2 C13_2 1_555 1_555
O6_2 C73_2 1_555 1_555
O14 C73_2 1_555 1_555
C58_2 C59_2 1_555 1_555
C61_2 C58_2 1_555 1_555
C66_2 H34_2 1_555 1_555
C67_2 C58_2 1_555 1_555
H35_2 C67_2 1_555 1_555
C69_2 C66_2 1_555 1_555
H37_2 C69_2 1_555 1_555
C73_2 C59_2 1_555 1_555
C76_2 C61_2 1_555 1_555
Zn7 O6_2 1_555 1_555
C66_2 C76_2 1_555 1_555
C67_2 C69_2 1_555 1_555
O1_2 C16_2 1_555 1_555
O3_2 C16_2 1_555 1_555
C6_2 C4_2 1_555 1_555
C7_2 C6_2 1_555 1_555
C8_2 C7_2 1_555 1_555
C9_2 C1_2 1_555 1_555
C12_2 C1_2 1_555 1_555
C14_2 C9_2 1_555 1_555
H6_2 C14_2 1_555 1_555
C15_2 C14_2 1_555 1_555
H7_2 C15_2 1_555 1_555
C16_2 C4_2 1_555 1_555
C18_2 C12_2 1_555 1_555
H8_2 C18_2 1_555 1_555
C19_2 C6_2 1_555 1_555
H9_2 C19_2 1_555 1_555
C22_2 C19_2 1_555 1_555
H12_2 C22_2 1_555 1_555
C24_2 C8_2 1_555 1_555
H14_2 C24_2 1_555 1_555
H16_2 C26_2 1_555 1_555
Zn5 O3_2 1_555 1_555
C4_2 C9_2 1_555 1_555
C15_2 C18_2 1_555 1_555
C22_2 C24_2 1_555 1_555
N1_2 Zn3 1_555 1_555
C20_2 N1_2 1_555 1_555
H10_2 C20_2 1_555 1_555
C23_2 C20_2 1_555 1_555
H13_2 C23_2 1_555 1_555
C27_2 C28_2 1_555 1_555
C28_2 C29_2 1_555 1_555
C29_2 C30_2 1_555 1_555
C30_2 C34_2 1_555 1_555
C31_2 C29_2 1_555 1_555
C32_2 C23_2 1_555 1_555
C33_2 H17_2 1_555 1_555
C34_2 H18_2 1_555 1_555
C35_2 C34_2 1_555 1_555
H19_2 C35_2 1_555 1_555
C36_2 C35_2 1_555 1_555
H20_2 C36_2 1_555 1_555
C37 C33_2 1_555 1_555
H21 C37 1_555 1_555
C38_2 C31_2 1_555 1_555
H22_2 C38_2 1_555 1_555
C39_2 C29_2 1_555 1_555
N2_2 C40_2 1_555 1_555
C40_2 H23_2 1_555 1_555
C41_2 C40_2 1_555 1_555
H24_2 C41_2 1_555 1_555
C42_2 H25_2 1_555 1_555
C43_2 N2_2 1_555 1_555
H26_2 C43_2 1_555 1_555
C44_2 C45_2 1_555 1_555
C45_2 C46_2 1_555 1_555
C46_2 C47_2 1_555 1_555
C47_2 C31_2 1_555 1_555
C48_2 C30_2 1_555 1_555
C49_2 C41_2 1_555 1_555
C50_2 H27_2 1_555 1_555
C51_2 C47_2 1_555 1_555
H28_2 C51_2 1_555 1_555
C52_2 C51_2 1_555 1_555
H29_2 C52_2 1_555 1_555
C53_2 C38_2 1_555 1_555
C54 C37 1_555 1_555
H31 C54 1_555 1_555
C55_2 C36_2 1_555 1_555
H32_2 C55_2 1_555 1_555
C56_2 C39_2 1_555 1_555
Zn4 N2_2 1_555 1_555
O5_2 Zn4 1_555 1_555
O7_2 C72_2 1_555 1_555
C62_2 C60_2 1_555 1_555
C63_2 C62_2 1_555 1_555
C64_2 C63_2 1_555 1_555
C65_2 C57_2 1_555 1_555
C68_2 C57_2 1_555 1_555
C70_2 C65_2 1_555 1_555
H38_2 C70_2 1_555 1_555
C71_2 C70_2 1_555 1_555
H39_2 C71_2 1_555 1_555
C72_2 O5_2 1_555 1_555
C74_2 C68_2 1_555 1_555
H40_2 C74_2 1_555 1_555
C75_2 C62_2 1_555 1_555
H41_2 C75_2 1_555 1_555
C77_2 C75_2 1_555 1_555
H43_2 C77_2 1_555 1_555
C78_2 C64_2 1_555 1_555
H44_2 C78_2 1_555 1_555
Zn6 O7_2 1_555 1_555
O9_2 Zn4 1_555 1_555
O10_2 Zn3 1_555 1_555
O11_2 Zn3 1_555 1_555
O12_2 Zn4 1_555 1_555
C25_2 C32_2 1_555 1_555
C27_2 C32_2 1_555 1_555
C33_2 C39_2 1_555 1_555
C42_2 C43_2 1_555 1_555
C42_2 C49_2 1_555 1_555
C44_2 C49_2 1_555 1_555
C46_2 C48_2 1_555 1_555
C46_2 C56_2 1_555 1_555
C48_2 C55_2 1_555 1_555
C50_2 C54 1_555 1_555
C50_2 C56_2 1_555 1_555
C52_2 C53_2 1_555 1_555
C60_2 C65_2 1_555 1_555
C60_2 C72_2 1_555 1_555
C71_2 C74_2 1_555 1_555
C77_2 C78_2 1_555 1_555
N2_3 C40_3 1_555 1_555
C40_3 H23_3 1_555 1_555
C41_3 C40_3 1_555 1_555
H24_3 C41_3 1_555 1_555
C42_3 H25_3 1_555 1_555
C43_3 N2_3 1_555 1_555
H26_3 C43_3 1_555 1_555
C44_3 C45_3 1_555 1_555
C45_3 C46_3 1_555 1_555
C46_3 C47_3 1_555 1_555
C49_3 C41_3 1_555 1_555
C50_3 H27_3 1_555 1_555
C51_3 C47_3 1_555 1_555
H28_3 C51_3 1_555 1_555
C52_3 C51_3 1_555 1_555
H29_3 C52_3 1_555 1_555
H32_3 C55_3 1_555 1_555
Zn6 N2_3 1_555 1_555
O5_3 Zn6 1_555 1_555
O10 C73_3 1_555 1_555
O12_2 C72_3 1_555 1_555
O8_2 C73_3 1_555 1_555
C57_3 C59_3 1_555 1_555
C58_3 C59_3 1_555 1_555
C59_3 C63_3 1_555 1_555
C60_3 C61_3 1_555 1_555
C61_3 C58_3 1_555 1_555
C62_3 C60_3 1_555 1_555
C63_3 C62_3 1_555 1_555
C64_3 C63_3 1_555 1_555
H33_3 C64_3 1_555 1_555
C65_3 C57_3 1_555 1_555
C66_3 H34_3 1_555 1_555
C67_3 C58_3 1_555 1_555
H35_3 C67_3 1_555 1_555
C68_3 C57_3 1_555 1_555
H36_3 C68_3 1_555 1_555
C69_3 C66_3 1_555 1_555
H37_3 C69_3 1_555 1_555
C70_3 C65_3 1_555 1_555
H38_3 C70_3 1_555 1_555
C71_3 C70_3 1_555 1_555
H39_3 C71_3 1_555 1_555
C72_3 O5_3 1_555 1_555
C73_3 C59_3 1_555 1_555
C74_3 C68_3 1_555 1_555
H40_3 C74_3 1_555 1_555
C75_3 C62_3 1_555 1_555
H41_3 C75_3 1_555 1_555
C76_3 C61_3 1_555 1_555
H42_3 C76_3 1_555 1_555
C77_3 C75_3 1_555 1_555
H43_3 C77_3 1_555 1_555
C78_3 C64_3 1_555 1_555
H44_3 C78_3 1_555 1_555
O13_2 Zn6 1_555 1_555
C42_3 C43_3 1_555 1_555
C42_3 C49_3 1_555 1_555
C44_3 C49_3 1_555 1_555
C46_3 C48_3 1_555 1_555
C46_3 C56_3 1_555 1_555
C48_3 C55_3 1_555 1_555
C50_3 C56_3 1_555 1_555
C52_3 C53_3 1_555 1_555
C60_3 C65_3 1_555 1_555
C60_3 C72_3 1_555 1_555
C66_3 C76_3 1_555 1_555
C67_3 C69_3 1_555 1_555
C71_3 C74_3 1_555 1_555
C77_3 C78_3 1_555 1_555
N1_3 Zn5 1_555 1_555
C20_3 N1_3 1_555 1_555
H10_3 C20_3 1_555 1_555
C23_3 C20_3 1_555 1_555
H13_3 C23_3 1_555 1_555
C27_3 C28_3 1_555 1_555
C28_3 C29_3 1_555 1_555
C29_3 C30_3 1_555 1_555
C30_3 C34_3 1_555 1_555
C31_3 C29_3 1_555 1_555
C32_3 C23_3 1_555 1_555
C33_3 H17_3 1_555 1_555
C34_3 H18_3 1_555 1_555
C35_3 C34_3 1_555 1_555
H19_3 C35_3 1_555 1_555
C36_3 C35_3 1_555 1_555
H20_3 C36_3 1_555 1_555
C38_3 C31_3 1_555 1_555
H22_3 C38_3 1_555 1_555
C39_3 C29_3 1_555 1_555
C25_3 C32_3 1_555 1_555
C27_3 C32_3 1_555 1_555
C33_3 C39_3 1_555 1_555
O1_3 C16_3 1_555 1_555
O9 C17_3 1_555 1_555
O11_2 C16_3 1_555 1_555
O4_2 C17_3 1_555 1_555
C1_3 C3_3 1_555 1_555
C2_3 C3_3 1_555 1_555
C3_3 C7_3 1_555 1_555
C4_3 C5_3 1_555 1_555
C5_3 C2_3 1_555 1_555
C6_3 C4_3 1_555 1_555
C7_3 C6_3 1_555 1_555
C8_3 C7_3 1_555 1_555
H1_3 C8_3 1_555 1_555
C9_3 C1_3 1_555 1_555
C10_3 H2_3 1_555 1_555
C11_3 C2_3 1_555 1_555
H3_3 C11_3 1_555 1_555
C12_3 C1_3 1_555 1_555
H4_3 C12_3 1_555 1_555
C13_3 C10_3 1_555 1_555
H5_3 C13_3 1_555 1_555
C14_3 C9_3 1_555 1_555
H6_3 C14_3 1_555 1_555
C15_3 C14_3 1_555 1_555
H7_3 C15_3 1_555 1_555
C16_3 C4_3 1_555 1_555
C17_3 C3_3 1_555 1_555
C18_3 C12_3 1_555 1_555
H8_3 C18_3 1_555 1_555
C19_3 C6_3 1_555 1_555
H9_3 C19_3 1_555 1_555
C21_3 C5_3 1_555 1_555
H11_3 C21_3 1_555 1_555
C22_3 C19_3 1_555 1_555
H12_3 C22_3 1_555 1_555
C24_3 C8_3 1_555 1_555
H14_3 C24_3 1_555 1_555
H16_3 C26_3 1_555 1_555
Zn8 O4_2 1_555 1_555
C4_3 C9_3 1_555 1_555
C10_3 C21_3 1_555 1_555
C11_3 C13_3 1_555 1_555
C15_3 C18_3 1_555 1_555
C22_3 C24_3 1_555 1_555
N1_4 Zn7 1_555 1_555
C20_4 N1_4 1_555 1_555
H10_4 C20_4 1_555 1_555
C23_4 C20_4 1_555 1_555
H13_4 C23_4 1_555 1_555
C27_4 C28_4 1_555 1_555
C28_4 C29_4 1_555 1_555
C29_4 C30_4 1_555 1_555
C30_4 C34_4 1_555 1_555
C31_4 C29_4 1_555 1_555
C32_4 C23_4 1_555 1_555
C33_4 H17_4 1_555 1_555
C34_4 H18_4 1_555 1_555
C35_4 C34_4 1_555 1_555
H19_4 C35_4 1_555 1_555
C36_4 C35_4 1_555 1_555
H20_4 C36_4 1_555 1_555
C37_2 C33_4 1_555 1_555
H21_2 C37_2 1_555 1_555
C38_4 C31_4 1_555 1_555
H22_4 C38_4 1_555 1_555
C39_4 C29_4 1_555 1_555
N2_4 C40_4 1_555 1_555
C40_4 H23_4 1_555 1_555
C41_4 C40_4 1_555 1_555
H24_4 C41_4 1_555 1_555
C42_4 H25_4 1_555 1_555
C43_4 N2_4 1_555 1_555
H26_4 C43_4 1_555 1_555
C44_4 C45_4 1_555 1_555
C45_4 C46_4 1_555 1_555
C46_4 C47_4 1_555 1_555
C47_4 C31_4 1_555 1_555
C48_4 C30_4 1_555 1_555
C49_4 C41_4 1_555 1_555
C50_4 H27_4 1_555 1_555
C51_4 C47_4 1_555 1_555
H28_4 C51_4 1_555 1_555
C52_4 C51_4 1_555 1_555
H29_4 C52_4 1_555 1_555
C53_4 C38_4 1_555 1_555
C54_2 C37_2 1_555 1_555
H31_2 C54_2 1_555 1_555
C55_4 C36_4 1_555 1_555
H32_4 C55_4 1_555 1_555
C56_4 C39_4 1_555 1_555
Zn8 N2_4 1_555 1_555
O5_4 Zn8 1_555 1_555
O12 C72_4 1_555 1_555
C62_4 C60_4 1_555 1_555
C63_4 C62_4 1_555 1_555
C64_4 C63_4 1_555 1_555
C65_4 C57_4 1_555 1_555
C68_4 C57_4 1_555 1_555
C70_4 C65_4 1_555 1_555
H38_4 C70_4 1_555 1_555
C71_4 C70_4 1_555 1_555
H39_4 C71_4 1_555 1_555
C72_4 O5_4 1_555 1_555
C74_4 C68_4 1_555 1_555
H40_4 C74_4 1_555 1_555
C75_4 C62_4 1_555 1_555
H41_4 C75_4 1_555 1_555
C77_4 C75_4 1_555 1_555
H43_4 C77_4 1_555 1_555
C78_4 C64_4 1_555 1_555
H44_4 C78_4 1_555 1_555
C25_4 C32_4 1_555 1_555
C27_4 C32_4 1_555 1_555
C33_4 C39_4 1_555 1_555
C42_4 C43_4 1_555 1_555
C42_4 C49_4 1_555 1_555
C44_4 C49_4 1_555 1_555
C46_4 C48_4 1_555 1_555
C46_4 C56_4 1_555 1_555
C48_4 C55_4 1_555 1_555
C50_4 C54_2 1_555 1_555
C50_4 C56_4 1_555 1_555
C52_4 C53_4 1_555 1_555
C60_4 C65_4 1_555 1_555
C60_4 C72_4 1_555 1_555
C71_4 C74_4 1_555 1_555
C77_4 C78_4 1_555 1_555
O1_4 C16_4 1_555 1_555
O11 C16_4 1_555 1_555
C6_4 C4_4 1_555 1_555
C7_4 C6_4 1_555 1_555
C8_4 C7_4 1_555 1_555
C9_4 C1_4 1_555 1_555
C12_4 C1_4 1_555 1_555
C14_4 C9_4 1_555 1_555
H6_4 C14_4 1_555 1_555
C15_4 C14_4 1_555 1_555
H7_4 C15_4 1_555 1_555
C16_4 C4_4 1_555 1_555
C18_4 C12_4 1_555 1_555
H8_4 C18_4 1_555 1_555
C19_4 C6_4 1_555 1_555
H9_4 C19_4 1_555 1_555
C22_4 C19_4 1_555 1_555
H12_4 C22_4 1_555 1_555
C24_4 C8_4 1_555 1_555
H14_4 C24_4 1_555 1_555
H16_4 C26_4 1_555 1_555
C4_4 C9_4 1_555 1_555
C15_4 C18_4 1_555 1_555
C22_4 C24_4 1_555 1_555
O10_2 C73_4 1_555 1_555
O14_2 C73_4 1_555 1_555
C58_4 C59_4 1_555 1_555
C61_4 C58_4 1_555 1_555
C66_4 H34_4 1_555 1_555
C67_4 C58_4 1_555 1_555
H35_4 C67_4 1_555 1_555
C69_4 C66_4 1_555 1_555
H37_4 C69_4 1_555 1_555
C73_4 C59_4 1_555 1_555
C76_4 C61_4 1_555 1_555
C66_4 C76_4 1_555 1_555
C67_4 C69_4 1_555 1_555
O9_2 C17_4 1_555 1_555
O13_2 C17_4 1_555 1_555
C2_4 C3_4 1_555 1_555
C5_4 C2_4 1_555 1_555
C10_4 H2_4 1_555 1_555
C11_4 C2_4 1_555 1_555
H3_4 C11_4 1_555 1_555
C13_4 C10_4 1_555 1_555
H5_4 C13_4 1_555 1_555
C17_4 C3_4 1_555 1_555
C21_4 C5_4 1_555 1_555
C10_4 C21_4 1_555 1_555
C11_4 C13_4 1_555 1_555
H21_3 C37_3 1_555 1_555
H31_3 C54_3 1_555 1_555
H31_4 C54_4 1_555 1_555
H21_4 C37_4 1_555 1_555

#END
