
###############################################################################
#
# This file contains modified crystal structure data generated from the
# MOF subset of the Cambridge Structural Database (CSD) v543 
# hosted by the Cambridge Crystallographic Data Centre (CCDC).
#
# This work is licensed under the Creative Commons
# Attribution-NonCommercial-ShareAlike 4.0 International License.
# To view a copy of this license, visit
# http://creativecommons.org/licenses/by-nc-sa/4.0/
# or send a letter to
# Creative Commons, PO Box 1866, Mountain View, CA 94042, USA.
#
# CIF created using the CSD Python API on 29 September 2022
# The structure has been converted into the P1 space group
# The structure has a 3D framework
# The original CSD entry ETIXEM is in the monoclinic crystal system
# The framework has been calculated to contain at least 10.0% void space
# The void calculation uses a probe of radius 1.32A, grid spacing 0.4
#
###############################################################################

data_ETIXEM
_chemical_formula_moiety         '(C248 H144 N8 O32 Zn8)n'
_symmetry_cell_setting           triclinic
_symmetry_space_group_name_H-M   'P 1'
_symmetry_Int_Tables_number      1
_space_group_name_Hall           'P 1'
loop_
_symmetry_equiv_pos_site_id
_symmetry_equiv_pos_as_xyz
1 x,y,z
_cell_length_a                   15.6390(19)
_cell_length_b                   21.426(3)
_cell_length_c                   15.9981(19)
_cell_angle_alpha                90
_cell_angle_beta                 94.5887(16)
_cell_angle_gamma                90
_cell_volume                     5343.48
loop_
_atom_site_label
_atom_site_type_symbol
_atom_site_fract_x
_atom_site_fract_y
_atom_site_fract_z
N2 N 0.58213(13) 0.74895(11) 0.15004(14)
C2 C 0.03746(18) 0.81092(16) 0.83565(19)
H2 H 0.0893 0.8315 0.8543
C3 C 0.02520(18) 0.78759(15) 0.75503(19)
C6 C 0.09119(19) 0.78875(16) 0.69789(19)
C7 C 0.14207(19) 0.78514(16) 0.64656(19)
C8 C 0.20058(18) 0.77962(15) 0.58075(19)
C9 C 0.23224(18) 0.71287(16) 0.5690(2)
C10 C 0.2138(2) 0.66175(17) 0.6169(2)
H5 H 0.1747 0.6654 0.6591
C11 C 0.2528(2) 0.6050(2) 0.6028(3)
H6 H 0.2413 0.5699 0.6364
C12 C 0.3086(3) 0.59910(19) 0.5400(3)
H7 H 0.3353 0.5601 0.5309
C13 C 0.3255(2) 0.65034(18) 0.4903(3)
H8 H 0.3625 0.6462 0.4464
C14 C 0.28789(19) 0.70719(16) 0.5053(2)
C15 C 0.30429(18) 0.76906(16) 0.46101(19)
C16 C 0.21546(18) 0.79546(15) 0.43130(19)
C17 C 0.16039(18) 0.80074(15) 0.49495(19)
C18 C 0.07887(19) 0.82435(16) 0.4791(2)
H9 H 0.0409 0.8266 0.5225
C19 C 0.0530(2) 0.84496(17) 0.3986(2)
C20 C 0.1076(2) 0.83970(17) 0.3355(2)
H11 H 0.0892 0.8533 0.2805
C21 C 0.1895(2) 0.81477(16) 0.3513(2)
H12 H 0.2268 0.8112 0.3075
C22 C 0.28331(18) 0.81843(16) 0.59652(19)
C23 C 0.3052(2) 0.85541(17) 0.6655(2)
H13 H 0.2672 0.8597 0.7085
C24 C 0.3830(2) 0.88607(18) 0.6711(2)
H14 H 0.3983 0.9122 0.7179
C25 C 0.4386(2) 0.87914(18) 0.6093(2)
H15 H 0.4923 0.9001 0.6141
C26 C 0.4168(2) 0.84158(17) 0.5396(2)
H16 H 0.4556 0.8363 0.4975
C27 C 0.33864(19) 0.81242(15) 0.53285(19)
C28 C 0.36135(19) 0.76342(16) 0.3937(2)
C29 C 0.40623(19) 0.75932(16) 0.3371(2)
C30 C 0.46401(18) 0.75493(14) 0.27143(19)
C31 C 0.53841(19) 0.72021(15) 0.28428(18)
H17 H 0.5502 0.6974 0.3348
C32 C 0.59550(17) 0.71908(14) 0.22265(18)
H18 H 0.6469 0.6957 0.2327
C33 C 0.50836(17) 0.78147(14) 0.13749(18)
H19 H 0.4973 0.8028 0.0857
C34 C 0.44775(18) 0.78556(15) 0.19605(19)
H20 H 0.3965 0.8088 0.1845
Zn7 Zn 0.67436(2) 0.75657(2) 0.06776(2)
O11 O 0.83863(12) 0.68214(9) 0.00971(12)
O12 O 0.86871(11) 0.81049(9) 0.04220(12)
O8 O 0.75877(12) 0.82513(10) 0.12102(12)
C56 C 0.98481(18) 0.97587(16) 0.2389(2)
C57 C 0.9013(2) 0.9630(2) 0.2574(3)
H33 H 0.8774 0.9855 0.3011
C58 C 0.8522(2) 0.9183(2) 0.2136(3)
H34 H 0.7953 0.9103 0.2277
C59 C 0.88501(18) 0.88511(16) 0.14966(19)
C60 C 0.96843(18) 0.89755(15) 0.13018(19)
H35 H 0.9921 0.8751 0.0863
C62 C 0.83268(17) 0.83679(14) 0.10066(17)
O5 O 0.75706(12) 0.69222(9) 0.11798(12)
C49 C 0.81632(16) 0.66713(13) 0.08053(17)
C50 C 0.86466(17) 0.61526(13) 0.12558(18)
C51 C 0.92563(18) 0.58177(14) 0.08658(19)
H29 H 0.9349 0.5903 0.0297
C52 C 0.97342(19) 0.53587(15) 0.1297(2)
C53 C 0.96222(18) 0.52334(15) 0.2135(2)
C54 C 0.90006(18) 0.55671(14) 0.25232(19)
H31 H 0.8910 0.5485 0.3093
C55 C 0.85132(17) 0.60173(14) 0.20871(18)
H32 H 0.8084 0.6236 0.2357
C61 C 0.98285(18) 0.44224(15) 0.32577(19)
H36 H 0.9260 0.4501 0.3400
Zn1 Zn 0.80710(2) 0.76332(2) 0.94616(2)
Zn2 Zn 0.32564(2) 0.25657(2) 0.43224(2)
O1 O 0.72282(11) 0.71338(9) 0.87196(11)
O2 O 0.63603(11) 0.69417(9) 0.97352(11)
O3 O 0.38087(12) 0.32679(9) 0.50054(12)
O4 O 0.26803(12) 0.34162(9) 0.57603(12)
O5_2 O 0.24294(12) 0.19222(9) 0.38202(12)
O6 O 0.16137(12) 0.18214(9) 0.49029(12)
N1 N 0.89871(13) 0.77527(11) 0.86520(13)
C1 C 0.97260(18) 0.80366(15) 0.88832(19)
H1 H 0.9810 0.8197 0.9437
C4 C 0.94791(19) 0.75929(16) 0.73036(19)
H3 H 0.9371 0.7439 0.6748
C5 C 0.88666(19) 0.75361(15) 0.78728(18)
H4 H 0.8340 0.7335 0.7702
H10 H 0.9976 0.8627 0.3870
C35 C 0.66146(15) 0.68536(12) 0.90192(16)
C36 C 0.61507(16) 0.63752(12) 0.84668(16)
C37 C 0.63563(16) 0.62890(12) 0.76463(16)
H21 H 0.6805 0.6527 0.7438
C38 C 0.59137(17) 0.58593(13) 0.71285(17)
H22 H 0.6065 0.5805 0.6570
C39 C 0.52501(17) 0.55055(13) 0.74168(17)
C40 C 0.50583(18) 0.55901(14) 0.82458(18)
H23 H 0.4613 0.5350 0.8458
C41 C 0.55003(18) 0.60147(14) 0.87632(18)
H24 H 0.5360 0.6061 0.9327
C42 C 0.47574(17) 0.50444(13) 0.68797(17)
C43 C 0.51168(18) 0.47446(13) 0.62176(18)
H25 H 0.5674 0.4860 0.6077
C44 C 0.46723(17) 0.42824(13) 0.57641(18)
H26 H 0.4927 0.4084 0.5315
C45 C 0.38541(16) 0.41046(12) 0.59586(17)
C46 C 0.34792(17) 0.44210(13) 0.65887(18)
H27 H 0.2913 0.4317 0.6713
C47 C 0.39185(17) 0.48874(14) 0.70401(18)
H28 H 0.3647 0.5104 0.7464
C48 C 0.34071(16) 0.35569(12) 0.55361(17)
C49_2 C 0.18368(16) 0.16713(13) 0.41947(17)
C50_2 C 0.13534(17) 0.11526(13) 0.37442(18)
C51_2 C 0.07437(18) 0.08177(14) 0.41342(19)
H29_2 H 0.0651 0.0903 0.4703
C52_2 C 0.02658(19) 0.03587(15) 0.3703(2)
C53_2 C 0.03778(18) 0.02334(15) 0.2865(2)
C54_2 C 0.09994(18) 0.05671(14) 0.24768(19)
H31_2 H 0.1090 0.0485 0.1907
C55_2 C 0.14868(17) 0.10173(14) 0.29129(18)
H32_2 H 0.1916 0.1236 0.2643
Zn4 Zn 0.19290(2) 0.26332(2) 0.55384(2)
O9 O 0.36397(11) 0.19417(9) 0.52648(11)
O10 O 0.73197(12) 0.84162(9) 0.92397(12)
O13 O 0.24123(12) 0.32513(10) 0.37898(12)
N3 N 0.41787(13) 0.24895(11) 0.34996(14)
O7 O 0.13129(11) 0.31049(9) 0.45780(12)
H30 H 0.0143 0.5127 0.1017
C56_2 C 0.01519(18) 0.47587(16) 0.2611(2)
C57_2 C 0.0987(2) 0.4630(2) 0.2426(3)
H33_2 H 0.1226 0.4855 0.1989
C58_2 C 0.1478(2) 0.4183(2) 0.2864(3)
H34_2 H 0.2047 0.4103 0.2723
C59_2 C 0.11499(18) 0.38511(16) 0.35034(19)
C60_2 C 0.03157(18) 0.39755(15) 0.36982(19)
H35_2 H 0.0079 0.3751 0.4137
C62_2 C 0.16732(17) 0.33679(14) 0.39934(17)
O1_2 O 0.27718(11) 0.21338(9) 0.62804(11)
N1_2 N 0.10129(13) 0.27527(11) 0.63480(13)
C1_2 C 0.02740(18) 0.30366(15) 0.61168(19)
H1_2 H 0.0190 0.3197 0.5563
C4_2 C 0.05209(19) 0.25929(16) 0.76964(19)
H3_2 H 0.0629 0.2439 0.8252
C5_2 C 0.11334(19) 0.25361(15) 0.71272(18)
H4_2 H 0.1660 0.2335 0.7298
C35_2 C 0.33854(15) 0.18536(12) 0.59808(16)
C36_2 C 0.38493(16) 0.13752(12) 0.65332(16)
C37_2 C 0.36437(16) 0.12890(12) 0.73537(16)
H21_2 H 0.3195 0.1527 0.7562
C38_2 C 0.40863(17) 0.08593(13) 0.78715(17)
H22_2 H 0.3935 0.0805 0.8430
C39_2 C 0.47499(17) 0.05055(13) 0.75832(17)
C40_2 C 0.49417(18) 0.05901(14) 0.67542(18)
H23_2 H 0.5387 0.0350 0.6542
C41_2 C 0.44997(18) 0.10147(14) 0.62368(18)
H24_2 H 0.4640 0.1061 0.5673
C42_2 C 0.52426(17) 0.00444(13) 0.81203(17)
H28_2 H 0.6353 0.0104 0.7536
O3_2 O 0.61913(12) 0.82679(9) 0.99946(12)
C43_2 C 0.48832(18) 0.97446(13) 0.87824(18)
H25_2 H 0.4326 0.9860 0.8923
C44_2 C 0.53277(17) 0.92824(13) 0.92359(18)
H26_2 H 0.5073 0.9084 0.9685
C45_2 C 0.61459(16) 0.91046(12) 0.90414(17)
C46_2 C 0.65208(17) 0.94210(13) 0.84113(18)
H27_2 H 0.7087 0.9317 0.8287
C47_2 C 0.60815(17) 0.98874(14) 0.79599(18)
C48_2 C 0.65929(16) 0.85569(12) 0.94639(17)
C13_2 C 0.6745(2) 0.15034(18) 0.0097(3)
H8_2 H 0.6375 0.1462 0.0536
C15_2 C 0.69571(18) 0.26906(16) 0.03899(19)
C16_2 C 0.78454(18) 0.29546(15) 0.06870(19)
C17_2 C 0.83961(18) 0.30074(15) 0.00505(19)
C18_2 C 0.92113(19) 0.32435(16) 0.0209(2)
C19_2 C 0.9470(2) 0.34496(17) 0.1014(2)
C20_2 C 0.8924(2) 0.33970(17) 0.1645(2)
H11_2 H 0.9108 0.3533 0.2195
C21_2 C 0.8105(2) 0.31477(16) 0.1487(2)
H12_2 H 0.7732 0.3112 0.1925
H16_2 H 0.5444 0.3363 0.0025
C28_2 C 0.63865(19) 0.26342(16) 0.1063(2)
C29_2 C 0.59377(19) 0.25932(16) 0.1629(2)
C30_2 C 0.53599(18) 0.25493(14) 0.22857(19)
C31_2 C 0.46159(19) 0.22021(15) 0.21572(18)
H17_2 H 0.4498 0.1974 0.1652
C32_2 C 0.40450(17) 0.21908(14) 0.27735(18)
H18_2 H 0.3531 0.1957 0.2673
C33_2 C 0.49164(17) 0.28147(14) 0.36251(18)
H19_2 H 0.5027 0.3028 0.4143
C34_2 C 0.55225(18) 0.28556(15) 0.30395(19)
H20_2 H 0.6035 0.3088 0.3155
C61_2 C 0.01715(18) 0.94224(15) 0.17423(19)
H36_2 H 0.0740 0.9501 0.1600
H30_2 H 0.9857 0.0127 0.3983
H10_2 H 0.0024 0.3627 0.1130
C2_2 C 0.96254(18) 0.31092(16) 0.66435(19)
H2_2 H 0.9107 0.3315 0.6457
C3_2 C 0.97480(18) 0.28759(15) 0.74497(19)
C6_2 C 0.90881(19) 0.28875(16) 0.80211(19)
C7_2 C 0.85793(19) 0.28514(16) 0.85344(19)
C8_2 C 0.79942(18) 0.27962(15) 0.91925(19)
C9_2 C 0.76776(18) 0.21287(16) 0.9310(2)
C10_2 C 0.7862(2) 0.16175(17) 0.8831(2)
H5_2 H 0.8253 0.1654 0.8409
C11_2 C 0.7472(2) 0.1050(2) 0.8972(3)
H6_2 H 0.7587 0.0699 0.8636
C12_2 C 0.6914(3) 0.09910(19) 0.9600(3)
H7_2 H 0.6647 0.0601 0.9691
C14_2 C 0.71211(19) 0.20719(16) 0.9947(2)
H9_2 H 0.9591 0.3266 0.9775
C22_2 C 0.71669(18) 0.31843(16) 0.90348(19)
C23_2 C 0.6948(2) 0.35541(17) 0.8345(2)
H13_2 H 0.7328 0.3597 0.7915
C24_2 C 0.6170(2) 0.38607(18) 0.8289(2)
H14_2 H 0.6017 0.4122 0.7821
C25_2 C 0.5614(2) 0.37914(18) 0.8907(2)
H15_2 H 0.5077 0.4001 0.8859
C26_2 C 0.5832(2) 0.34158(17) 0.9604(2)
C27_2 C 0.66136(19) 0.31242(15) 0.96715(19)
Zn3 Zn 0.19290(2) 0.23668(2) 0.05384(2)
Zn2_2 Zn 0.67436(2) 0.74343(2) 0.56776(2)
O1_3 O 0.27718(11) 0.28662(9) 0.12804(11)
O2_2 O 0.36397(11) 0.30583(9) 0.02648(11)
O3_3 O 0.61913(12) 0.67321(9) 0.49946(12)
O4_2 O 0.73197(12) 0.65838(9) 0.42397(12)
O5_3 O 0.75706(12) 0.80778(9) 0.61798(12)
O6_2 O 0.83863(12) 0.81786(9) 0.50971(12)
N1_3 N 0.10129(13) 0.22473(11) 0.13480(13)
C1_3 C 0.02740(18) 0.19634(15) 0.11168(19)
H1_3 H 0.0190 0.1803 0.0563
C4_3 C 0.05209(19) 0.24071(16) 0.26964(19)
H3_3 H 0.0629 0.2561 0.3252
C5_3 C 0.11334(19) 0.24639(15) 0.21272(18)
H4_3 H 0.1660 0.2665 0.2298
H10_3 H 0.0024 0.1373 0.6130
C35_3 C 0.33854(15) 0.31464(12) 0.09808(16)
C36_3 C 0.38493(16) 0.36248(12) 0.15332(16)
C37_3 C 0.36437(16) 0.37110(12) 0.23537(16)
H21_3 H 0.3195 0.3473 0.2562
C38_3 C 0.40863(17) 0.41407(13) 0.28715(17)
H22_3 H 0.3935 0.4195 0.3430
C39_3 C 0.47499(17) 0.44945(13) 0.25832(17)
C40_3 C 0.49417(18) 0.44099(14) 0.17542(18)
H23_3 H 0.5387 0.4650 0.1542
C41_3 C 0.44997(18) 0.39853(14) 0.12368(18)
H24_3 H 0.4640 0.3939 0.0673
C42_3 C 0.52426(17) 0.49556(13) 0.31203(17)
C43_3 C 0.48832(18) 0.52554(13) 0.37824(18)
H25_3 H 0.4326 0.5140 0.3923
C44_3 C 0.53277(17) 0.57176(13) 0.42359(18)
H26_3 H 0.5073 0.5916 0.4685
C45_3 C 0.61459(16) 0.58954(12) 0.40414(17)
C46_3 C 0.65208(17) 0.55790(13) 0.34113(18)
H27_3 H 0.7087 0.5683 0.3287
C47_3 C 0.60815(17) 0.51126(14) 0.29599(18)
H28_3 H 0.6353 0.4896 0.2536
C48_3 C 0.65929(16) 0.64431(12) 0.44639(17)
C49_3 C 0.81632(16) 0.83287(13) 0.58053(17)
C50_3 C 0.86466(17) 0.88474(13) 0.62558(18)
C51_3 C 0.92563(18) 0.91823(14) 0.58658(19)
H29_3 H 0.9349 0.9097 0.5297
C52_3 C 0.97342(19) 0.96413(15) 0.6297(2)
C53_3 C 0.96222(18) 0.97666(15) 0.7135(2)
C54_3 C 0.90006(18) 0.94329(14) 0.75232(19)
H31_3 H 0.8910 0.9515 0.8093
C55_3 C 0.85132(17) 0.89827(14) 0.70871(18)
H32_3 H 0.8084 0.8764 0.7357
Zn4_2 Zn 0.80710(2) 0.73668(2) 0.44616(2)
O9_2 O 0.63603(11) 0.80583(9) 0.47352(11)
O10_2 O 0.26803(12) 0.15838(9) 0.07603(12)
O13_2 O 0.75877(12) 0.67487(10) 0.62102(12)
N3_2 N 0.58213(13) 0.75105(11) 0.65004(14)
C13_3 C 0.3255(2) 0.84966(18) 0.9903(3)
H8_3 H 0.3625 0.8538 0.9464
C15_3 C 0.30429(18) 0.73094(16) 0.96101(19)
C16_3 C 0.21546(18) 0.70454(15) 0.93130(19)
C17_3 C 0.16039(18) 0.69926(15) 0.99495(19)
C18_3 C 0.07887(19) 0.67565(16) 0.9791(2)
C19_3 C 0.0530(2) 0.65504(17) 0.8986(2)
C20_3 C 0.1076(2) 0.66030(17) 0.8355(2)
H11_3 H 0.0892 0.6467 0.7805
C21_3 C 0.1895(2) 0.68523(16) 0.8513(2)
H12_3 H 0.2268 0.6888 0.8075
H16_3 H 0.4556 0.6637 0.9975
C28_3 C 0.36135(19) 0.73658(16) 0.8937(2)
C29_3 C 0.40623(19) 0.74068(16) 0.8371(2)
C30_3 C 0.46401(18) 0.74507(14) 0.77143(19)
C31_3 C 0.53841(19) 0.77979(15) 0.78428(18)
H17_3 H 0.5502 0.8026 0.8348
C32_3 C 0.59550(17) 0.78092(14) 0.72265(18)
H18_3 H 0.6469 0.8043 0.7327
C33_3 C 0.50836(17) 0.71853(14) 0.63749(18)
H19_3 H 0.4973 0.6972 0.5857
C34_3 C 0.44775(18) 0.71444(15) 0.69605(19)
H20_3 H 0.3965 0.6912 0.6845
O3_4 O 0.38087(12) 0.17321(9) 0.00054(12)
C43_4 C 0.51168(18) 0.02554(13) 0.12176(18)
H25_4 H 0.5674 0.0140 0.1077
C44_4 C 0.46723(17) 0.07176(13) 0.07641(18)
H26_4 H 0.4927 0.0916 0.0315
C45_4 C 0.38541(16) 0.08954(12) 0.09586(17)
C46_4 C 0.34792(17) 0.05790(13) 0.15887(18)
H27_4 H 0.2913 0.0683 0.1713
C47_4 C 0.39185(17) 0.01126(14) 0.20401(18)
C48_4 C 0.34071(16) 0.14431(12) 0.05361(17)
O1_4 O 0.72282(11) 0.78662(9) 0.37196(11)
N1_4 N 0.89871(13) 0.72473(11) 0.36520(13)
C1_4 C 0.97260(18) 0.69634(15) 0.38832(19)
H1_4 H 0.9810 0.6803 0.4437
C4_4 C 0.94791(19) 0.74071(16) 0.23036(19)
H3_4 H 0.9371 0.7561 0.1748
C5_4 C 0.88666(19) 0.74639(15) 0.28728(18)
H4_4 H 0.8340 0.7665 0.2702
C35_4 C 0.66146(15) 0.81464(12) 0.40192(16)
C36_4 C 0.61507(16) 0.86248(12) 0.34668(16)
C37_4 C 0.63563(16) 0.87110(12) 0.26463(16)
H21_4 H 0.6805 0.8473 0.2438
C38_4 C 0.59137(17) 0.91407(13) 0.21285(17)
H22_4 H 0.6065 0.9195 0.1570
C39_4 C 0.52501(17) 0.94945(13) 0.24168(17)
C40_4 C 0.50583(18) 0.94099(14) 0.32458(18)
H23_4 H 0.4613 0.9650 0.3458
C41_4 C 0.55003(18) 0.89853(14) 0.37632(18)
H24_4 H 0.5360 0.8939 0.4327
C42_4 C 0.47574(17) 0.99556(13) 0.18797(17)
H28_4 H 0.3647 0.9896 0.2464
O12_2 O 0.86871(11) 0.68951(9) 0.54220(12)
H30_3 H 0.9857 0.4873 0.8983
C56_3 C 0.98481(18) 0.52413(16) 0.7389(2)
C57_3 C 0.9013(2) 0.5370(2) 0.7574(3)
H33_3 H 0.8774 0.5145 0.8011
C58_3 C 0.8522(2) 0.5817(2) 0.7136(3)
H34_3 H 0.7953 0.5897 0.7277
C59_3 C 0.88501(18) 0.61489(16) 0.64966(19)
C60_3 C 0.96843(18) 0.60245(15) 0.63018(19)
H35_3 H 0.9921 0.6249 0.5863
C62_3 C 0.83268(17) 0.66321(14) 0.60066(17)
O7_2 O 0.13129(11) 0.18951(9) 0.95780(12)
O8_2 O 0.24123(12) 0.17487(10) 0.87898(12)
C56_4 C 0.01519(18) 0.02413(16) 0.7611(2)
C57_4 C 0.0987(2) 0.0370(2) 0.7426(3)
H33_4 H 0.1226 0.0145 0.6989
C58_4 C 0.1478(2) 0.0817(2) 0.7864(3)
H34_4 H 0.2047 0.0897 0.7723
C59_4 C 0.11499(18) 0.11489(16) 0.85034(19)
C60_4 C 0.03157(18) 0.10245(15) 0.86982(19)
H35_4 H 0.0079 0.1249 0.9137
C62_4 C 0.16732(17) 0.16321(14) 0.89934(17)
Zn5 Zn 0.32564(2) 0.24343(2) 0.93224(2)
O11_2 O 0.16137(12) 0.31786(9) 0.99029(12)
N2_2 N 0.41787(13) 0.25105(11) 0.84996(14)
C2_3 C 0.96254(18) 0.18908(16) 0.16435(19)
H2_3 H 0.9107 0.1685 0.1457
C3_3 C 0.97480(18) 0.21241(15) 0.24497(19)
C6_3 C 0.90881(19) 0.21125(16) 0.30211(19)
C7_3 C 0.85793(19) 0.21486(16) 0.35344(19)
C8_3 C 0.79942(18) 0.22038(15) 0.41925(19)
C9_3 C 0.76776(18) 0.28713(16) 0.4310(2)
C10_3 C 0.7862(2) 0.33825(17) 0.3831(2)
H5_3 H 0.8253 0.3346 0.3409
C11_3 C 0.7472(2) 0.3950(2) 0.3972(3)
H6_3 H 0.7587 0.4301 0.3636
C12_3 C 0.6914(3) 0.40090(19) 0.4600(3)
H7_3 H 0.6647 0.4399 0.4691
C13_4 C 0.6745(2) 0.34966(18) 0.5097(3)
H8_4 H 0.6375 0.3538 0.5536
C14_3 C 0.71211(19) 0.29281(16) 0.4947(2)
C15_4 C 0.69571(18) 0.23094(16) 0.53899(19)
C16_4 C 0.78454(18) 0.20454(15) 0.56870(19)
C17_4 C 0.83961(18) 0.19926(15) 0.50505(19)
C18_4 C 0.92113(19) 0.17565(16) 0.5209(2)
H9_3 H 0.9591 0.1734 0.4775
C19_4 C 0.9470(2) 0.15504(17) 0.6014(2)
C20_4 C 0.8924(2) 0.16030(17) 0.6645(2)
H11_4 H 0.9108 0.1467 0.7195
C21_4 C 0.8105(2) 0.18523(16) 0.6487(2)
H12_4 H 0.7732 0.1888 0.6925
C22_3 C 0.71669(18) 0.18157(16) 0.40348(19)
C23_3 C 0.6948(2) 0.14459(17) 0.3345(2)
H13_3 H 0.7328 0.1403 0.2915
C24_3 C 0.6170(2) 0.11393(18) 0.3289(2)
H14_3 H 0.6017 0.0878 0.2821
C25_3 C 0.5614(2) 0.12086(18) 0.3907(2)
H15_3 H 0.5077 0.0999 0.3859
C26_3 C 0.5832(2) 0.15842(17) 0.4604(2)
H16_4 H 0.5444 0.1637 0.5025
C27_3 C 0.66136(19) 0.18758(15) 0.46715(19)
C28_4 C 0.63865(19) 0.23658(16) 0.6063(2)
C29_4 C 0.59377(19) 0.24068(16) 0.6629(2)
C30_4 C 0.53599(18) 0.24507(14) 0.72857(19)
C31_4 C 0.46159(19) 0.27979(15) 0.71572(18)
H17_4 H 0.4498 0.3026 0.6652
C32_4 C 0.40450(17) 0.28092(14) 0.77735(18)
H18_4 H 0.3531 0.3043 0.7673
C33_4 C 0.49164(17) 0.21853(14) 0.86251(18)
H19_4 H 0.5027 0.1972 0.9143
C34_4 C 0.55225(18) 0.21444(15) 0.80395(19)
H20_4 H 0.6035 0.1912 0.8155
O5_4 O 0.24294(12) 0.30778(9) 0.88202(12)
C49_4 C 0.18368(16) 0.33287(13) 0.91947(17)
C50_4 C 0.13534(17) 0.38474(13) 0.87442(18)
C51_4 C 0.07437(18) 0.41823(14) 0.91342(19)
H29_4 H 0.0651 0.4097 0.9703
C52_4 C 0.02658(19) 0.46413(15) 0.8703(2)
C53_4 C 0.03778(18) 0.47666(15) 0.7865(2)
C54_4 C 0.09994(18) 0.44329(14) 0.74768(19)
H31_4 H 0.1090 0.4515 0.6907
C55_4 C 0.14868(17) 0.39827(14) 0.79129(18)
H32_4 H 0.1916 0.3764 0.7643
C61_3 C 0.01715(18) 0.55776(15) 0.67423(19)
H36_3 H 0.0740 0.5499 0.6600
H30_4 H 0.0143 0.9873 0.6017
C61_4 C 0.98285(18) 0.05776(15) 0.82577(19)
H36_4 H 0.9260 0.0499 0.8400
C2_4 C 0.03746(18) 0.68908(16) 0.33565(19)
H2_4 H 0.0893 0.6685 0.3543
C3_4 C 0.02520(18) 0.71241(15) 0.25503(19)
C6_4 C 0.09119(19) 0.71125(16) 0.19789(19)
C7_4 C 0.14207(19) 0.71486(16) 0.14656(19)
C8_4 C 0.20058(18) 0.72038(15) 0.08075(19)
C9_4 C 0.23224(18) 0.78713(16) 0.0690(2)
C10_4 C 0.2138(2) 0.83825(17) 0.1169(2)
H5_4 H 0.1747 0.8346 0.1591
C11_4 C 0.2528(2) 0.8950(2) 0.1028(3)
H6_4 H 0.2413 0.9301 0.1364
C12_4 C 0.3086(3) 0.90090(19) 0.0400(3)
H7_4 H 0.3353 0.9399 0.0309
C14_4 C 0.28789(19) 0.79281(16) 0.0053(2)
H9_4 H 0.0409 0.6734 0.0225
C22_4 C 0.28331(18) 0.68157(16) 0.09652(19)
C23_4 C 0.3052(2) 0.64459(17) 0.1655(2)
H13_4 H 0.2672 0.6403 0.2085
C24_4 C 0.3830(2) 0.61393(18) 0.1711(2)
H14_4 H 0.3983 0.5878 0.2179
C25_4 C 0.4386(2) 0.62086(18) 0.1093(2)
H15_4 H 0.4923 0.5999 0.1141
C26_4 C 0.4168(2) 0.65842(17) 0.0396(2)
C27_4 C 0.33864(19) 0.68758(15) 0.03285(19)
H10_4 H 0.9976 0.6373 0.8870
loop_
_geom_bond_atom_site_label_1
_geom_bond_atom_site_label_2
_geom_bond_site_symmetry_1
_geom_bond_site_symmetry_2
N2 C32 1_555 1_555
H2 C2 1_555 1_555
C3 C2 1_555 1_555
C6 C3 1_555 1_555
C7 C6 1_555 1_555
C8 C7 1_555 1_555
C9 C8 1_555 1_555
C10 C9 1_555 1_555
H5 C10 1_555 1_555
C11 C10 1_555 1_555
H6 C11 1_555 1_555
C12 C11 1_555 1_555
H7 C12 1_555 1_555
C13 C12 1_555 1_555
H8 C13 1_555 1_555
C14 C9 1_555 1_555
C15 C14 1_555 1_555
C16 C15 1_555 1_555
C17 C8 1_555 1_555
C18 C17 1_555 1_555
H9 C18 1_555 1_555
C19 C18 1_555 1_555
C20 C19 1_555 1_555
H11 C20 1_555 1_555
C21 C16 1_555 1_555
H12 C21 1_555 1_555
C22 C8 1_555 1_555
C23 C22 1_555 1_555
H13 C23 1_555 1_555
C24 C23 1_555 1_555
H14 C24 1_555 1_555
C25 C24 1_555 1_555
H15 C25 1_555 1_555
C26 C25 1_555 1_555
H16 C26 1_555 1_555
C27 C15 1_555 1_555
C28 C15 1_555 1_555
C29 C28 1_555 1_555
C30 C29 1_555 1_555
C31 C30 1_555 1_555
H17 C31 1_555 1_555
C32 C31 1_555 1_555
H18 C32 1_555 1_555
C33 N2 1_555 1_555
H19 C33 1_555 1_555
C34 C30 1_555 1_555
H20 C34 1_555 1_555
Zn7 N2 1_555 1_555
C13 C14 1_555 1_555
C16 C17 1_555 1_555
C20 C21 1_555 1_555
C22 C27 1_555 1_555
C26 C27 1_555 1_555
C33 C34 1_555 1_555
O12 C62 1_555 1_555
O8 C62 1_555 1_555
C57 C56 1_555 1_555
H33 C57 1_555 1_555
C58 C57 1_555 1_555
H34 C58 1_555 1_555
C59 C58 1_555 1_555
C60 C59 1_555 1_555
H35 C60 1_555 1_555
C62 C59 1_555 1_555
Zn7 O8 1_555 1_555
O5 Zn7 1_555 1_555
O11 C49 1_555 1_555
C49 O5 1_555 1_555
C50 C49 1_555 1_555
C51 C50 1_555 1_555
H29 C51 1_555 1_555
C52 C51 1_555 1_555
C53 C52 1_555 1_555
C54 C53 1_555 1_555
H31 C54 1_555 1_555
C55 C50 1_555 1_555
H32 C55 1_555 1_555
H36 C61 1_555 1_555
C54 C55 1_555 1_555
Zn1 O1 1_555 1_555
Zn2 O3 1_555 1_555
O1 C35 1_555 1_555
O2 C35 1_555 1_555
O3 C48 1_555 1_555
O4 C48 1_555 1_555
O5_2 Zn2 1_555 1_555
O6 C49_2 1_555 1_555
N1 Zn1 1_555 1_555
C1 N1 1_555 1_555
H1 C1 1_555 1_555
H3 C4 1_555 1_555
C5 N1 1_555 1_555
H4 C5 1_555 1_555
C35 C36 1_555 1_555
C36 C37 1_555 1_555
C37 H21 1_555 1_555
C38 C37 1_555 1_555
H22 C38 1_555 1_555
C39 C38 1_555 1_555
C40 C39 1_555 1_555
H23 C40 1_555 1_555
C41 C36 1_555 1_555
H24 C41 1_555 1_555
C42 C39 1_555 1_555
C43 C42 1_555 1_555
H25 C43 1_555 1_555
C44 C43 1_555 1_555
H26 C44 1_555 1_555
C45 C44 1_555 1_555
C46 C45 1_555 1_555
H27 C46 1_555 1_555
C47 C42 1_555 1_555
H28 C47 1_555 1_555
C48 C45 1_555 1_555
C49_2 O5_2 1_555 1_555
C50_2 C49_2 1_555 1_555
C51_2 C50_2 1_555 1_555
H29_2 C51_2 1_555 1_555
C52_2 C51_2 1_555 1_555
C53_2 C52_2 1_555 1_555
C54_2 C53_2 1_555 1_555
H31_2 C54_2 1_555 1_555
C55_2 C50_2 1_555 1_555
H32_2 C55_2 1_555 1_555
Zn4 O4 1_555 1_555
O9 Zn2 1_555 1_555
O10 Zn1 1_555 1_555
O13 Zn2 1_555 1_555
N3 Zn2 1_555 1_555
O6 Zn4 1_555 1_555
C4 C5 1_555 1_555
C40 C41 1_555 1_555
C46 C47 1_555 1_555
C54_2 C55_2 1_555 1_555
O7 C62_2 1_555 1_555
O13 C62_2 1_555 1_555
C57_2 C56_2 1_555 1_555
H33_2 C57_2 1_555 1_555
C58_2 C57_2 1_555 1_555
H34_2 C58_2 1_555 1_555
C59_2 C58_2 1_555 1_555
C60_2 C59_2 1_555 1_555
H35_2 C60_2 1_555 1_555
C62_2 C59_2 1_555 1_555
Zn4 O7 1_555 1_555
Zn4 O1_2 1_555 1_555
O1_2 C35_2 1_555 1_555
O9 C35_2 1_555 1_555
N1_2 Zn4 1_555 1_555
C1_2 N1_2 1_555 1_555
H1_2 C1_2 1_555 1_555
H3_2 C4_2 1_555 1_555
C5_2 N1_2 1_555 1_555
H4_2 C5_2 1_555 1_555
C35_2 C36_2 1_555 1_555
C36_2 C37_2 1_555 1_555
C37_2 H21_2 1_555 1_555
C38_2 C37_2 1_555 1_555
H22_2 C38_2 1_555 1_555
C39_2 C38_2 1_555 1_555
C40_2 C39_2 1_555 1_555
H23_2 C40_2 1_555 1_555
C41_2 C36_2 1_555 1_555
H24_2 C41_2 1_555 1_555
C42_2 C39_2 1_555 1_555
C4_2 C5_2 1_555 1_555
C40_2 C41_2 1_555 1_555
O3_2 C48_2 1_555 1_555
O10 C48_2 1_555 1_555
H25_2 C43_2 1_555 1_555
C44_2 C43_2 1_555 1_555
H26_2 C44_2 1_555 1_555
C45_2 C44_2 1_555 1_555
C46_2 C45_2 1_555 1_555
H27_2 C46_2 1_555 1_555
C48_2 C45_2 1_555 1_555
C46_2 C47_2 1_555 1_555
N3 C32_2 1_555 1_555
H8_2 C13_2 1_555 1_555
C16_2 C15_2 1_555 1_555
C18_2 C17_2 1_555 1_555
C19_2 C18_2 1_555 1_555
C20_2 C19_2 1_555 1_555
H11_2 C20_2 1_555 1_555
C21_2 C16_2 1_555 1_555
H12_2 C21_2 1_555 1_555
C28_2 C15_2 1_555 1_555
C29_2 C28_2 1_555 1_555
C30_2 C29_2 1_555 1_555
C31_2 C30_2 1_555 1_555
H17_2 C31_2 1_555 1_555
C32_2 C31_2 1_555 1_555
H18_2 C32_2 1_555 1_555
C33_2 N3 1_555 1_555
H19_2 C33_2 1_555 1_555
C34_2 C30_2 1_555 1_555
H20_2 C34_2 1_555 1_555
C16_2 C17_2 1_555 1_555
C20_2 C21_2 1_555 1_555
C33_2 C34_2 1_555 1_555
H36_2 C61_2 1_555 1_555
H2_2 C2_2 1_555 1_555
C3_2 C2_2 1_555 1_555
C6_2 C3_2 1_555 1_555
C7_2 C6_2 1_555 1_555
C8_2 C7_2 1_555 1_555
C9_2 C8_2 1_555 1_555
C10_2 C9_2 1_555 1_555
H5_2 C10_2 1_555 1_555
C11_2 C10_2 1_555 1_555
H6_2 C11_2 1_555 1_555
C12_2 C11_2 1_555 1_555
H7_2 C12_2 1_555 1_555
C14_2 C9_2 1_555 1_555
C22_2 C8_2 1_555 1_555
C23_2 C22_2 1_555 1_555
H13_2 C23_2 1_555 1_555
C24_2 C23_2 1_555 1_555
H14_2 C24_2 1_555 1_555
C25_2 C24_2 1_555 1_555
H15_2 C25_2 1_555 1_555
C26_2 C25_2 1_555 1_555
C22_2 C27_2 1_555 1_555
C26_2 C27_2 1_555 1_555
Zn3 O1_3 1_555 1_555
Zn2_2 O3_3 1_555 1_555
O1_3 C35_3 1_555 1_555
O2_2 C35_3 1_555 1_555
O3_3 C48_3 1_555 1_555
O4_2 C48_3 1_555 1_555
O5_3 Zn2_2 1_555 1_555
O6_2 C49_3 1_555 1_555
N1_3 Zn3 1_555 1_555
C1_3 N1_3 1_555 1_555
H1_3 C1_3 1_555 1_555
H3_3 C4_3 1_555 1_555
C5_3 N1_3 1_555 1_555
H4_3 C5_3 1_555 1_555
C35_3 C36_3 1_555 1_555
C36_3 C37_3 1_555 1_555
C37_3 H21_3 1_555 1_555
C38_3 C37_3 1_555 1_555
H22_3 C38_3 1_555 1_555
C39_3 C38_3 1_555 1_555
C40_3 C39_3 1_555 1_555
H23_3 C40_3 1_555 1_555
C41_3 C36_3 1_555 1_555
H24_3 C41_3 1_555 1_555
C42_3 C39_3 1_555 1_555
C43_3 C42_3 1_555 1_555
H25_3 C43_3 1_555 1_555
C44_3 C43_3 1_555 1_555
H26_3 C44_3 1_555 1_555
C45_3 C44_3 1_555 1_555
C46_3 C45_3 1_555 1_555
H27_3 C46_3 1_555 1_555
C47_3 C42_3 1_555 1_555
H28_3 C47_3 1_555 1_555
C48_3 C45_3 1_555 1_555
C49_3 O5_3 1_555 1_555
C50_3 C49_3 1_555 1_555
C51_3 C50_3 1_555 1_555
H29_3 C51_3 1_555 1_555
C52_3 C51_3 1_555 1_555
C53_3 C52_3 1_555 1_555
C54_3 C53_3 1_555 1_555
H31_3 C54_3 1_555 1_555
C55_3 C50_3 1_555 1_555
H32_3 C55_3 1_555 1_555
Zn4_2 O4_2 1_555 1_555
O9_2 Zn2_2 1_555 1_555
O10_2 Zn3 1_555 1_555
O13_2 Zn2_2 1_555 1_555
N3_2 Zn2_2 1_555 1_555
O6_2 Zn4_2 1_555 1_555
C4_3 C5_3 1_555 1_555
C40_3 C41_3 1_555 1_555
C46_3 C47_3 1_555 1_555
C54_3 C55_3 1_555 1_555
N3_2 C32_3 1_555 1_555
H8_3 C13_3 1_555 1_555
C16_3 C15_3 1_555 1_555
C18_3 C17_3 1_555 1_555
C19_3 C18_3 1_555 1_555
C20_3 C19_3 1_555 1_555
H11_3 C20_3 1_555 1_555
C21_3 C16_3 1_555 1_555
H12_3 C21_3 1_555 1_555
C28_3 C15_3 1_555 1_555
C29_3 C28_3 1_555 1_555
C30_3 C29_3 1_555 1_555
C31_3 C30_3 1_555 1_555
H17_3 C31_3 1_555 1_555
C32_3 C31_3 1_555 1_555
H18_3 C32_3 1_555 1_555
C33_3 N3_2 1_555 1_555
H19_3 C33_3 1_555 1_555
C34_3 C30_3 1_555 1_555
H20_3 C34_3 1_555 1_555
C16_3 C17_3 1_555 1_555
C20_3 C21_3 1_555 1_555
C33_3 C34_3 1_555 1_555
O3_4 C48_4 1_555 1_555
O10_2 C48_4 1_555 1_555
H25_4 C43_4 1_555 1_555
C44_4 C43_4 1_555 1_555
H26_4 C44_4 1_555 1_555
C45_4 C44_4 1_555 1_555
C46_4 C45_4 1_555 1_555
H27_4 C46_4 1_555 1_555
C48_4 C45_4 1_555 1_555
C46_4 C47_4 1_555 1_555
Zn4_2 O1_4 1_555 1_555
O1_4 C35_4 1_555 1_555
O9_2 C35_4 1_555 1_555
N1_4 Zn4_2 1_555 1_555
C1_4 N1_4 1_555 1_555
H1_4 C1_4 1_555 1_555
H3_4 C4_4 1_555 1_555
C5_4 N1_4 1_555 1_555
H4_4 C5_4 1_555 1_555
C35_4 C36_4 1_555 1_555
C36_4 C37_4 1_555 1_555
C37_4 H21_4 1_555 1_555
C38_4 C37_4 1_555 1_555
H22_4 C38_4 1_555 1_555
C39_4 C38_4 1_555 1_555
C40_4 C39_4 1_555 1_555
H23_4 C40_4 1_555 1_555
C41_4 C36_4 1_555 1_555
H24_4 C41_4 1_555 1_555
C42_4 C39_4 1_555 1_555
O12_2 Zn4_2 1_555 1_555
C4_4 C5_4 1_555 1_555
C40_4 C41_4 1_555 1_555
O12_2 C62_3 1_555 1_555
O13_2 C62_3 1_555 1_555
C57_3 C56_3 1_555 1_555
H33_3 C57_3 1_555 1_555
C58_3 C57_3 1_555 1_555
H34_3 C58_3 1_555 1_555
C59_3 C58_3 1_555 1_555
C60_3 C59_3 1_555 1_555
H35_3 C60_3 1_555 1_555
C62_3 C59_3 1_555 1_555
O7_2 C62_4 1_555 1_555
O8_2 C62_4 1_555 1_555
C57_4 C56_4 1_555 1_555
H33_4 C57_4 1_555 1_555
C58_4 C57_4 1_555 1_555
H34_4 C58_4 1_555 1_555
C59_4 C58_4 1_555 1_555
C60_4 C59_4 1_555 1_555
H35_4 C60_4 1_555 1_555
C62_4 C59_4 1_555 1_555
Zn5 O8_2 1_555 1_555
N2_2 C32_4 1_555 1_555
H2_3 C2_3 1_555 1_555
C3_3 C2_3 1_555 1_555
C6_3 C3_3 1_555 1_555
C7_3 C6_3 1_555 1_555
C8_3 C7_3 1_555 1_555
C9_3 C8_3 1_555 1_555
C10_3 C9_3 1_555 1_555
H5_3 C10_3 1_555 1_555
C11_3 C10_3 1_555 1_555
H6_3 C11_3 1_555 1_555
C12_3 C11_3 1_555 1_555
H7_3 C12_3 1_555 1_555
C13_4 C12_3 1_555 1_555
H8_4 C13_4 1_555 1_555
C14_3 C9_3 1_555 1_555
C15_4 C14_3 1_555 1_555
C16_4 C15_4 1_555 1_555
C17_4 C8_3 1_555 1_555
C18_4 C17_4 1_555 1_555
H9_3 C18_4 1_555 1_555
C19_4 C18_4 1_555 1_555
C20_4 C19_4 1_555 1_555
H11_4 C20_4 1_555 1_555
C21_4 C16_4 1_555 1_555
H12_4 C21_4 1_555 1_555
C22_3 C8_3 1_555 1_555
C23_3 C22_3 1_555 1_555
H13_3 C23_3 1_555 1_555
C24_3 C23_3 1_555 1_555
H14_3 C24_3 1_555 1_555
C25_3 C24_3 1_555 1_555
H15_3 C25_3 1_555 1_555
C26_3 C25_3 1_555 1_555
H16_4 C26_3 1_555 1_555
C27_3 C15_4 1_555 1_555
C28_4 C15_4 1_555 1_555
C29_4 C28_4 1_555 1_555
C30_4 C29_4 1_555 1_555
C31_4 C30_4 1_555 1_555
H17_4 C31_4 1_555 1_555
C32_4 C31_4 1_555 1_555
H18_4 C32_4 1_555 1_555
C33_4 N2_2 1_555 1_555
H19_4 C33_4 1_555 1_555
C34_4 C30_4 1_555 1_555
H20_4 C34_4 1_555 1_555
Zn5 N2_2 1_555 1_555
C13_4 C14_3 1_555 1_555
C16_4 C17_4 1_555 1_555
C20_4 C21_4 1_555 1_555
C22_3 C27_3 1_555 1_555
C26_3 C27_3 1_555 1_555
C33_4 C34_4 1_555 1_555
O5_4 Zn5 1_555 1_555
O11_2 C49_4 1_555 1_555
C49_4 O5_4 1_555 1_555
C50_4 C49_4 1_555 1_555
C51_4 C50_4 1_555 1_555
H29_4 C51_4 1_555 1_555
C52_4 C51_4 1_555 1_555
C53_4 C52_4 1_555 1_555
C54_4 C53_4 1_555 1_555
H31_4 C54_4 1_555 1_555
C55_4 C50_4 1_555 1_555
H32_4 C55_4 1_555 1_555
H36_3 C61_3 1_555 1_555
C54_4 C55_4 1_555 1_555
H36_4 C61_4 1_555 1_555
H2_4 C2_4 1_555 1_555
C3_4 C2_4 1_555 1_555
C6_4 C3_4 1_555 1_555
C7_4 C6_4 1_555 1_555
C8_4 C7_4 1_555 1_555
C9_4 C8_4 1_555 1_555
C10_4 C9_4 1_555 1_555
H5_4 C10_4 1_555 1_555
C11_4 C10_4 1_555 1_555
H6_4 C11_4 1_555 1_555
C12_4 C11_4 1_555 1_555
H7_4 C12_4 1_555 1_555
C14_4 C9_4 1_555 1_555
C22_4 C8_4 1_555 1_555
C23_4 C22_4 1_555 1_555
H13_4 C23_4 1_555 1_555
C24_4 C23_4 1_555 1_555
H14_4 C24_4 1_555 1_555
C25_4 C24_4 1_555 1_555
H15_4 C25_4 1_555 1_555
C26_4 C25_4 1_555 1_555
C22_4 C27_4 1_555 1_555
C26_4 C27_4 1_555 1_555

#END
