
###############################################################################
#
# This file contains modified crystal structure data generated from the
# MOF subset of the Cambridge Structural Database (CSD) v543 
# hosted by the Cambridge Crystallographic Data Centre (CCDC).
#
# This work is licensed under the Creative Commons
# Attribution-NonCommercial-ShareAlike 4.0 International License.
# To view a copy of this license, visit
# http://creativecommons.org/licenses/by-nc-sa/4.0/
# or send a letter to
# Creative Commons, PO Box 1866, Mountain View, CA 94042, USA.
#
# CIF created using the CSD Python API on 29 September 2022
# The structure has been converted into the P1 space group
# The structure has a 3D framework
# The original CSD entry ETUJOU is in the orthorhombic crystal system
# The original CSD entry ETUJOU is in a Sohncke space group
# The framework has been calculated to contain at least 10.0% void space
# The void calculation uses a probe of radius 1.32A, grid spacing 0.4
# The framework is charged, counterions have been retained in the structure
#
###############################################################################

data_ETUJOU
_chemical_formula_moiety         '(C192 H160 Cu32 I32 N28 Na17 O80 Pr8 9+)n'
_symmetry_cell_setting           triclinic
_symmetry_space_group_name_H-M   'P 1'
_symmetry_Int_Tables_number      1
_space_group_name_Hall           'P 1'
loop_
_symmetry_equiv_pos_site_id
_symmetry_equiv_pos_as_xyz
1 x,y,z
_cell_length_a                   17.8961(19)
_cell_length_b                   31.932(3)
_cell_length_c                   25.078(3)
_cell_angle_alpha                90
_cell_angle_beta                 90
_cell_angle_gamma                90
_cell_volume                     14331
loop_
_atom_site_label
_atom_site_type_symbol
_atom_site_fract_x
_atom_site_fract_y
_atom_site_fract_z
Cu1 Cu 0.82951(15) 0.11097(7) 0.11373(13)
Cu2 Cu 0.81403(17) 0.05872(9) 0.19474(11)
Cu3 Cu 0.87351(13) 0.03256(8) 0.10675(14)
Cu4 Cu 0.73259(13) 0.05158(9) 0.10636(14)
I1 I 0.81692(8) 0.06941(4) 0.02141(6)
I2 I 0.94519(7) 0.09365(4) 0.17325(7)
I3 I 0.69434(8) 0.11157(5) 0.17179(7)
C4 C 0.0962(5) 0.0011(4) 0.0638(7)
H7 H 0.1395 0.0162 0.0534
C5 C 0.0289(6) 0.0221(3) 0.0713(7)
H8 H 0.0264 0.0516 0.0660
N3 N 0.6395(5) 0.0216(3) 0.0821(6)
C13 C 0.5687(6) 0.0381(3) 0.0905(6)
H13 H 0.5633 0.0661 0.1029
C14 C 0.5057(4) 0.0138(3) 0.0808(6)
H14 H 0.4573 0.0251 0.0866
N5 N 0.9655(5) 0.0001(3) 0.0866(6)
N6 N 0.8027(7) 0.0598(4) 0.2748(4)
N7 N 0.8353(8) 0.1722(3) 0.0939(7)
Pr1 Pr 0.31542(6) 0.89231(3) 0.04219(6)
I4 I 0.78992(7) 0.98112(4) 0.16465(7)
O1 O 0.1758(9) 0.8960(4) 0.0732(8)
O2 O 0.2256(7) 0.9546(3) 0.0453(7)
O5 O 0.3835(7) 0.9624(4) 0.0553(7)
O6 O 0.4542(8) 0.9077(5) 0.0487(8)
O7 O 0.2637(9) 0.8195(5) 0.0452(10)
O8 O 0.3690(12) 0.8288(5) 0.0892(11)
O10 O 0.3129(14) 0.9068(7) 0.1394(9)
H3 H 0.3147 0.8838 0.1564
H4 H 0.3505 0.9218 0.1475
C2 C 0.0364(7) 0.9360(3) 0.0869(8)
H6 H 0.0389 0.9066 0.0922
C3 C 0.0999(6) 0.9581(4) 0.0716(7)
C6 C 0.1733(10) 0.9328(7) 0.0629(9)
C15 C 0.5136(5) 0.9729(3) 0.0627(6)
C16 C 0.5845(6) 0.9563(3) 0.0543(6)
H15 H 0.5899 0.9284 0.0419
C17 C 0.6474(5) 0.9807(4) 0.0640(6)
H16 H 0.6959 0.9694 0.0582
C18 C 0.4458(11) 0.9444(6) 0.0588(8)
N4 N 0.3353(8) 0.6722(3) 0.0939(7)
C19 C 0.2802(7) 0.6882(3) 0.0605(6)
H17 H 0.2468 0.6697 0.0429
C20 C 0.2742(8) 0.7312(4) 0.0529(6)
H18 H 0.2365 0.7421 0.0301
C21 C 0.3231(9) 0.7582(3) 0.0788(7)
C22 C 0.3782(10) 0.7422(4) 0.1122(8)
H19 H 0.4117 0.7607 0.1298
C23 C 0.3843(9) 0.6992(4) 0.1197(8)
H20 H 0.4219 0.6883 0.1425
C24 C 0.3157(14) 0.8050(8) 0.0707(12)
Cu5 Cu 0.32951(15) 0.61097(7) 0.11373(13)
O3 O 0.3213(7) 0.9352(4) 0.9544(6)
O4 O 0.2321(8) 0.8869(5) 0.9608(7)
O9 O 0.3823(12) 0.8496(6) 0.9720(12)
H1 H 0.3843 0.8242 0.9819
H2 H 0.3586 0.8512 0.9427
N2 N 0.1973(7) 0.9402(4) 0.7748(4)
C7 C 0.2503(7) 0.9659(4) 0.7987(6)
H9 H 0.2720 0.9883 0.7791
C8 C 0.2717(7) 0.9588(4) 0.8512(5)
H10 H 0.3080 0.9763 0.8675
C9 C 0.2400(8) 0.9260(5) 0.8798(4)
C10 C 0.1869(8) 0.9004(4) 0.8560(5)
H11 H 0.1652 0.8780 0.8755
C11 C 0.1655(7) 0.9075(4) 0.8034(5)
H12 H 0.1293 0.8899 0.7871
C12 C 0.2624(12) 0.9157(6) 0.9355(11)
Cu6 Cu 0.18597(17) 0.94128(9) 0.69474(11)
N1 N 0.0345(5) 0.9999(3) 0.5866(6)
Cu7 Cu 0.12649(13) 0.96744(8) 0.60675(14)
Pr1_2 Pr 0.68458(6) 0.10769(3) 0.54219(6)
I4_2 I 0.21008(7) 0.01888(4) 0.66465(7)
O1_2 O 0.8242(9) 0.1040(4) 0.5732(8)
O2_2 O 0.7744(7) 0.0454(3) 0.5453(7)
O3_2 O 0.6787(7) 0.0648(4) 0.4544(6)
O4_2 O 0.7679(8) 0.1131(5) 0.4608(7)
O5_2 O 0.6165(7) 0.0376(4) 0.5553(7)
O6_2 O 0.5458(8) 0.0923(5) 0.5487(8)
O7_2 O 0.7363(9) 0.1805(5) 0.5452(10)
O8_2 O 0.6310(12) 0.1712(5) 0.5892(11)
O9_2 O 0.6177(12) 0.1504(6) 0.4720(12)
H1_2 H 0.6157 0.1758 0.4819
H2_2 H 0.6414 0.1488 0.4427
O10_2 O 0.6871(14) 0.0932(7) 0.6394(9)
H3_2 H 0.6853 0.1162 0.6564
H4_2 H 0.6495 0.0782 0.6475
C2_2 C 0.9636(7) 0.0640(3) 0.5869(8)
H6_2 H 0.9611 0.0934 0.5922
C3_2 C 0.9001(6) 0.0419(4) 0.5716(7)
C6_2 C 0.8267(10) 0.0672(7) 0.5629(9)
C7_2 C 0.7497(7) 0.0341(4) 0.2987(6)
H9_2 H 0.7280 0.0117 0.2791
C8_2 C 0.7283(7) 0.0412(4) 0.3512(5)
H10_2 H 0.6920 0.0237 0.3675
C9_2 C 0.7600(8) 0.0740(5) 0.3798(4)
C10_2 C 0.8131(8) 0.0996(4) 0.3560(5)
H11_2 H 0.8348 0.1220 0.3755
C11_2 C 0.8345(7) 0.0925(4) 0.3034(5)
H12_2 H 0.8707 0.1101 0.2871
C12_2 C 0.7376(12) 0.0843(6) 0.4355(11)
C15_2 C 0.4864(5) 0.0271(3) 0.5627(6)
C16_2 C 0.4155(6) 0.0437(3) 0.5543(6)
H15_2 H 0.4101 0.0716 0.5419
C17_2 C 0.3526(5) 0.0193(4) 0.5640(6)
H16_2 H 0.3041 0.0306 0.5582
C18_2 C 0.5542(11) 0.0556(6) 0.5588(8)
N4_2 N 0.6647(8) 0.3278(3) 0.5939(7)
C19_2 C 0.7198(7) 0.3118(3) 0.5605(6)
H17_2 H 0.7532 0.3303 0.5429
C20_2 C 0.7258(8) 0.2688(4) 0.5529(6)
H18_2 H 0.7635 0.2579 0.5301
C21_2 C 0.6769(9) 0.2418(3) 0.5788(7)
C22_2 C 0.6218(10) 0.2578(4) 0.6122(8)
H19_2 H 0.5883 0.2393 0.6298
C23_2 C 0.6157(9) 0.3008(4) 0.6197(8)
H20_2 H 0.5781 0.3117 0.6425
C24_2 C 0.6843(14) 0.1950(8) 0.5707(12)
Cu5_2 Cu 0.67049(15) 0.38903(7) 0.61373(13)
Cu1_2 Cu 0.17049(15) 0.88903(7) 0.61373(13)
Cu4_2 Cu 0.26741(13) 0.94842(9) 0.60636(14)
I1_2 I 0.18308(8) 0.93059(4) 0.52141(6)
I2_2 I 0.05481(7) 0.90635(4) 0.67325(7)
I3_2 I 0.30566(8) 0.88843(5) 0.67179(7)
C4_2 C 0.9038(5) 0.9989(4) 0.5638(7)
H7_2 H 0.8605 0.9838 0.5534
C5_2 C 0.9711(6) 0.9779(3) 0.5713(7)
H8_2 H 0.9736 0.9484 0.5660
N3_2 N 0.3605(5) 0.9784(3) 0.5821(6)
C13_2 C 0.4313(6) 0.9619(3) 0.5905(6)
H13_2 H 0.4367 0.9339 0.6029
C14_2 C 0.4943(4) 0.9862(3) 0.5808(6)
H14_2 H 0.5427 0.9749 0.5866
N7_2 N 0.1647(8) 0.8278(3) 0.5939(7)
Cu2_2 Cu 0.31403(17) 0.55872(9) 0.19474(11)
Cu3_2 Cu 0.37351(13) 0.53256(8) 0.10675(14)
Cu4_3 Cu 0.23259(13) 0.55158(9) 0.10636(14)
I1_3 I 0.31692(8) 0.56941(4) 0.02141(6)
I2_3 I 0.44519(7) 0.59365(4) 0.17325(7)
I3_3 I 0.19434(8) 0.61157(5) 0.17179(7)
I4_3 I 0.28992(7) 0.48112(4) 0.16465(7)
N3_3 N 0.1395(5) 0.5216(3) 0.0821(6)
C13_3 C 0.0687(6) 0.5381(3) 0.0905(6)
H13_3 H 0.0633 0.5661 0.1029
C14_3 C 0.0057(4) 0.5138(3) 0.0808(6)
C15_3 C 0.0136(5) 0.4729(3) 0.0627(6)
C16_3 C 0.0845(6) 0.4563(3) 0.0543(6)
H15_3 H 0.0899 0.4284 0.0419
C17_3 C 0.1474(5) 0.4807(4) 0.0640(6)
H16_3 H 0.1959 0.4694 0.0582
N5_2 N 0.4655(5) 0.5001(3) 0.0866(6)
N6_2 N 0.3027(7) 0.5598(4) 0.2748(4)
Pr1_3 Pr 0.81542(6) 0.39231(3) 0.04219(6)
O1_3 O 0.6758(9) 0.3960(4) 0.0732(8)
O2_3 O 0.7256(7) 0.4546(3) 0.0453(7)
O5_3 O 0.8835(7) 0.4624(4) 0.0553(7)
O6_3 O 0.9542(8) 0.4077(5) 0.0487(8)
O7_3 O 0.7637(9) 0.3195(5) 0.0452(10)
O8_3 O 0.8690(12) 0.3288(5) 0.0892(11)
O10_3 O 0.8129(14) 0.4068(7) 0.1394(9)
H3_3 H 0.8147 0.3838 0.1564
H4_3 H 0.8505 0.4218 0.1475
C1 C 0.4692(6) 0.4571(3) 0.0943(7)
H5 H 0.4258 0.4420 0.1048
C2_3 C 0.5364(7) 0.4360(3) 0.0869(8)
H6_3 H 0.5389 0.4066 0.0922
C3_3 C 0.5999(6) 0.4581(4) 0.0716(7)
C4_3 C 0.5962(5) 0.5011(4) 0.0638(7)
H7_3 H 0.6395 0.5162 0.0534
C5_3 C 0.5289(6) 0.5221(3) 0.0713(7)
H8_3 H 0.5264 0.5516 0.0660
C6_3 C 0.6733(10) 0.4328(7) 0.0629(9)
H14_3 H 0.9573 0.5251 0.0866
C18_3 C 0.9458(11) 0.4444(6) 0.0588(8)
C19_3 C 0.7802(7) 0.1882(3) 0.0605(6)
H17_3 H 0.7468 0.1697 0.0429
C20_3 C 0.7742(8) 0.2312(4) 0.0529(6)
H18_3 H 0.7365 0.2421 0.0301
C21_3 C 0.8231(9) 0.2582(3) 0.0788(7)
C22_3 C 0.8782(10) 0.2422(4) 0.1122(8)
H19_3 H 0.9117 0.2607 0.1298
C23_3 C 0.8843(9) 0.1992(4) 0.1197(8)
H20_3 H 0.9219 0.1883 0.1425
C24_3 C 0.8157(14) 0.3050(8) 0.0707(12)
O3_3 O 0.8213(7) 0.4352(4) 0.9544(6)
O4_3 O 0.7321(8) 0.3869(5) 0.9608(7)
O9_3 O 0.8823(12) 0.3496(6) 0.9720(12)
H1_3 H 0.8843 0.3242 0.9819
H2_3 H 0.8586 0.3512 0.9427
N2_2 N 0.6973(7) 0.4402(4) 0.7748(4)
C7_3 C 0.7503(7) 0.4659(4) 0.7987(6)
H9_3 H 0.7720 0.4883 0.7791
C8_3 C 0.7717(7) 0.4588(4) 0.8512(5)
H10_3 H 0.8080 0.4763 0.8675
C9_3 C 0.7400(8) 0.4260(5) 0.8798(4)
C10_3 C 0.6869(8) 0.4004(4) 0.8560(5)
H11_3 H 0.6652 0.3780 0.8755
C11_3 C 0.6655(7) 0.4075(4) 0.8034(5)
H12_3 H 0.6293 0.3899 0.7871
C12_3 C 0.7624(12) 0.4157(6) 0.9355(11)
Cu6_2 Cu 0.68597(17) 0.44128(9) 0.69474(11)
Pr1_4 Pr 0.18458(6) 0.60769(3) 0.54219(6)
O1_4 O 0.3242(9) 0.6040(4) 0.5732(8)
O2_4 O 0.2744(7) 0.5454(3) 0.5453(7)
O3_4 O 0.1787(7) 0.5648(4) 0.4544(6)
O4_4 O 0.2679(8) 0.6131(5) 0.4608(7)
O5_4 O 0.1165(7) 0.5376(4) 0.5553(7)
O6_4 O 0.0458(8) 0.5923(5) 0.5487(8)
O7_4 O 0.2363(9) 0.6805(5) 0.5452(10)
O8_4 O 0.1310(12) 0.6712(5) 0.5892(11)
O9_4 O 0.1177(12) 0.6504(6) 0.4720(12)
H1_4 H 0.1157 0.6758 0.4819
H2_4 H 0.1414 0.6488 0.4427
O10_4 O 0.1871(14) 0.5932(7) 0.6394(9)
H3_4 H 0.1853 0.6162 0.6564
H4_4 H 0.1495 0.5782 0.6475
N1_2 N 0.5345(5) 0.4999(3) 0.5866(6)
C1_2 C 0.5308(6) 0.5429(3) 0.5943(7)
H5_2 H 0.5742 0.5580 0.6048
C2_4 C 0.4636(7) 0.5640(3) 0.5869(8)
H6_4 H 0.4611 0.5934 0.5922
C3_4 C 0.4001(6) 0.5419(4) 0.5716(7)
C4_4 C 0.4038(5) 0.4989(4) 0.5638(7)
H7_4 H 0.3605 0.4838 0.5534
C5_4 C 0.4711(6) 0.4779(3) 0.5713(7)
H8_4 H 0.4736 0.4484 0.5660
C6_4 C 0.3267(10) 0.5672(7) 0.5629(9)
C7_4 C 0.2497(7) 0.5341(4) 0.2987(6)
H9_4 H 0.2280 0.5117 0.2791
C8_4 C 0.2283(7) 0.5412(4) 0.3512(5)
H10_4 H 0.1920 0.5237 0.3675
C9_4 C 0.2600(8) 0.5740(5) 0.3798(4)
C10_4 C 0.3131(8) 0.5996(4) 0.3560(5)
H11_4 H 0.3348 0.6220 0.3755
C11_4 C 0.3345(7) 0.5925(4) 0.3034(5)
H12_4 H 0.3707 0.6101 0.2871
C12_4 C 0.2376(12) 0.5843(6) 0.4355(11)
H14_4 H 0.0427 0.4749 0.5866
C18_4 C 0.0542(11) 0.5556(6) 0.5588(8)
C19_4 C 0.2198(7) 0.8118(3) 0.5605(6)
H17_4 H 0.2532 0.8303 0.5429
C20_4 C 0.2258(8) 0.7688(4) 0.5529(6)
H18_4 H 0.2635 0.7579 0.5301
C21_4 C 0.1769(9) 0.7418(3) 0.5788(7)
C22_4 C 0.1218(10) 0.7578(4) 0.6122(8)
H19_4 H 0.0883 0.7393 0.6298
C23_4 C 0.1157(9) 0.8008(4) 0.6197(8)
H20_4 H 0.0781 0.8117 0.6425
C24_4 C 0.1843(14) 0.6950(8) 0.5707(12)
Cu7_2 Cu 0.62649(13) 0.46744(8) 0.60675(14)
Cu4_4 Cu 0.76741(13) 0.44842(9) 0.60636(14)
I1_4 I 0.68308(8) 0.43059(4) 0.52141(6)
I2_4 I 0.55481(7) 0.40635(4) 0.67325(7)
I3_4 I 0.80566(8) 0.38843(5) 0.67179(7)
I4_4 I 0.71008(7) 0.51888(4) 0.66465(7)
N3_4 N 0.8605(5) 0.4784(3) 0.5821(6)
C13_4 C 0.9313(6) 0.4619(3) 0.5905(6)
H13_4 H 0.9367 0.4339 0.6029
C14_4 C 0.9943(4) 0.4862(3) 0.5808(6)
C15_4 C 0.9864(5) 0.5271(3) 0.5627(6)
C16_4 C 0.9155(6) 0.5437(3) 0.5543(6)
H15_4 H 0.9101 0.5716 0.5419
C17_4 C 0.8526(5) 0.5193(4) 0.5640(6)
H16_4 H 0.8041 0.5306 0.5582
C1_3 C 0.9692(6) 0.9571(3) 0.0943(7)
H5_3 H 0.9258 0.9420 0.1048
C1_4 C 0.0308(6) 0.0429(3) 0.5943(7)
H5_4 H 0.0742 0.0580 0.6048
N1_3 N 0.0345(5) 0.0001(3) 0.4134(6)
Cu7_3 Cu 0.12649(13) 0.03256(8) 0.39325(14)
Cu1_3 Cu 0.17049(15) 0.11097(7) 0.38627(13)
Cu2_3 Cu 0.18597(17) 0.05872(9) 0.30526(11)
Cu4_5 Cu 0.26741(13) 0.05158(9) 0.39364(14)
I1_5 I 0.18308(8) 0.06941(4) 0.47859(6)
I2_5 I 0.05481(7) 0.09365(4) 0.32675(7)
I3_5 I 0.30566(8) 0.11157(5) 0.32821(7)
C4_5 C 0.9038(5) 0.0011(4) 0.4362(7)
H7_5 H 0.8605 0.0162 0.4466
C5_5 C 0.9711(6) 0.0221(3) 0.4287(7)
H8_5 H 0.9736 0.0516 0.4340
N3_5 N 0.3605(5) 0.0216(3) 0.4179(6)
C13_5 C 0.4313(6) 0.0381(3) 0.4095(6)
H13_5 H 0.4367 0.0661 0.3971
C14_5 C 0.4943(4) 0.0138(3) 0.4192(6)
H14_5 H 0.5427 0.0251 0.4134
N6_3 N 0.1973(7) 0.0598(4) 0.2252(4)
N7_3 N 0.1647(8) 0.1722(3) 0.4061(7)
Pr1_5 Pr 0.68458(6) 0.89231(3) 0.45781(6)
I4_5 I 0.21008(7) 0.98112(4) 0.33535(7)
O1_5 O 0.8242(9) 0.8960(4) 0.4268(8)
O2_5 O 0.7744(7) 0.9546(3) 0.4547(7)
O3_5 O 0.6787(7) 0.9352(4) 0.5456(6)
O4_5 O 0.7679(8) 0.8869(5) 0.5392(7)
O5_5 O 0.6165(7) 0.9624(4) 0.4447(7)
O6_5 O 0.5458(8) 0.9077(5) 0.4513(8)
O7_5 O 0.7363(9) 0.8195(5) 0.4548(10)
O8_5 O 0.6310(12) 0.8288(5) 0.4108(11)
O9_5 O 0.6177(12) 0.8496(6) 0.5280(12)
H1_5 H 0.6157 0.8242 0.5181
H2_5 H 0.6414 0.8512 0.5573
O10_5 O 0.6871(14) 0.9068(7) 0.3606(9)
H3_5 H 0.6853 0.8838 0.3436
H4_5 H 0.6495 0.9218 0.3525
C2_5 C 0.9636(7) 0.9360(3) 0.4131(8)
H6_5 H 0.9611 0.9066 0.4078
C3_5 C 0.9001(6) 0.9581(4) 0.4284(7)
C6_5 C 0.8267(10) 0.9328(7) 0.4371(9)
N2_3 N 0.8027(7) 0.9402(4) 0.7252(4)
C7_5 C 0.7497(7) 0.9659(4) 0.7013(6)
H9_5 H 0.7280 0.9883 0.7209
C8_5 C 0.7283(7) 0.9588(4) 0.6488(5)
H10_5 H 0.6920 0.9763 0.6325
C9_5 C 0.7600(8) 0.9260(5) 0.6202(4)
C10_5 C 0.8131(8) 0.9004(4) 0.6440(5)
H11_5 H 0.8348 0.8780 0.6245
C11_5 C 0.8345(7) 0.9075(4) 0.6966(5)
H12_5 H 0.8707 0.8899 0.7129
C12_5 C 0.7376(12) 0.9157(6) 0.5645(11)
C15_5 C 0.4864(5) 0.9729(3) 0.4373(6)
C16_5 C 0.4155(6) 0.9563(3) 0.4457(6)
H15_5 H 0.4101 0.9284 0.4581
C17_5 C 0.3526(5) 0.9807(4) 0.4360(6)
H16_5 H 0.3041 0.9694 0.4418
C18_5 C 0.5542(11) 0.9444(6) 0.4412(8)
N4_3 N 0.6647(8) 0.6722(3) 0.4061(7)
C19_5 C 0.7198(7) 0.6882(3) 0.4395(6)
H17_5 H 0.7532 0.6697 0.4571
C20_5 C 0.7258(8) 0.7312(4) 0.4471(6)
H18_5 H 0.7635 0.7421 0.4699
C21_5 C 0.6769(9) 0.7582(3) 0.4212(7)
C22_5 C 0.6218(10) 0.7422(4) 0.3878(8)
H19_5 H 0.5883 0.7607 0.3702
C23_5 C 0.6157(9) 0.6992(4) 0.3803(8)
H20_5 H 0.5781 0.6883 0.3575
C24_5 C 0.6843(14) 0.8050(8) 0.4293(12)
Cu5_3 Cu 0.67049(15) 0.61097(7) 0.38627(13)
Cu6_3 Cu 0.81403(17) 0.94128(9) 0.80526(11)
O3_6 O 0.3213(7) 0.0648(4) 0.0456(6)
O4_6 O 0.2321(8) 0.1131(5) 0.0392(7)
O9_6 O 0.3823(12) 0.1504(6) 0.0280(12)
H1_6 H 0.3843 0.1758 0.0181
H2_6 H 0.3586 0.1488 0.0573
C7_6 C 0.2503(7) 0.0341(4) 0.2013(6)
H9_6 H 0.2720 0.0117 0.2209
C8_6 C 0.2717(7) 0.0412(4) 0.1488(5)
H10_6 H 0.3080 0.0237 0.1325
C9_6 C 0.2400(8) 0.0740(5) 0.1202(4)
C10_6 C 0.1869(8) 0.0996(4) 0.1440(5)
H11_6 H 0.1652 0.1220 0.1245
C11_6 C 0.1655(7) 0.0925(4) 0.1966(5)
H12_6 H 0.1293 0.1101 0.2129
C12_6 C 0.2624(12) 0.0843(6) 0.0645(11)
Pr1_6 Pr 0.31542(6) 0.10769(3) 0.95781(6)
I4_6 I 0.78992(7) 0.01888(4) 0.83535(7)
O1_6 O 0.1758(9) 0.1040(4) 0.9268(8)
O2_6 O 0.2256(7) 0.0454(3) 0.9547(7)
O5_6 O 0.3835(7) 0.0376(4) 0.9447(7)
O6_6 O 0.4542(8) 0.0923(5) 0.9513(8)
O7_6 O 0.2637(9) 0.1805(5) 0.9548(10)
O8_6 O 0.3690(12) 0.1712(5) 0.9108(11)
O10_6 O 0.3129(14) 0.0932(7) 0.8606(9)
H3_6 H 0.3147 0.1162 0.8436
H4_6 H 0.3505 0.0782 0.8525
C2_6 C 0.0364(7) 0.0640(3) 0.9131(8)
H6_6 H 0.0389 0.0934 0.9078
C3_6 C 0.0999(6) 0.0419(4) 0.9284(7)
C6_6 C 0.1733(10) 0.0672(7) 0.9371(9)
C15_6 C 0.5136(5) 0.0271(3) 0.9373(6)
C16_6 C 0.5845(6) 0.0437(3) 0.9457(6)
H15_6 H 0.5899 0.0716 0.9581
C17_6 C 0.6474(5) 0.0193(4) 0.9360(6)
H16_6 H 0.6959 0.0306 0.9418
C18_6 C 0.4458(11) 0.0556(6) 0.9412(8)
N4_4 N 0.3353(8) 0.3278(3) 0.9061(7)
C19_6 C 0.2802(7) 0.3118(3) 0.9395(6)
H17_6 H 0.2468 0.3303 0.9571
C20_6 C 0.2742(8) 0.2688(4) 0.9471(6)
H18_6 H 0.2365 0.2579 0.9699
C21_6 C 0.3231(9) 0.2418(3) 0.9212(7)
C22_6 C 0.3782(10) 0.2578(4) 0.8878(8)
H19_6 H 0.4117 0.2393 0.8702
C23_6 C 0.3843(9) 0.3008(4) 0.8803(8)
H20_6 H 0.4219 0.3117 0.8575
C24_6 C 0.3157(14) 0.1950(8) 0.9293(12)
Cu5_4 Cu 0.32951(15) 0.38903(7) 0.88627(13)
Cu1_4 Cu 0.82951(15) 0.88903(7) 0.88627(13)
Cu3_3 Cu 0.87351(13) 0.96744(8) 0.89325(14)
Cu4_6 Cu 0.73259(13) 0.94842(9) 0.89364(14)
I1_6 I 0.81692(8) 0.93059(4) 0.97859(6)
I2_6 I 0.94519(7) 0.90635(4) 0.82675(7)
I3_6 I 0.69434(8) 0.88843(5) 0.82821(7)
C4_6 C 0.0962(5) 0.9989(4) 0.9362(7)
H7_6 H 0.1395 0.9838 0.9466
C5_6 C 0.0289(6) 0.9779(3) 0.9287(7)
H8_6 H 0.0264 0.9484 0.9340
N3_6 N 0.6395(5) 0.9784(3) 0.9179(6)
C13_6 C 0.5687(6) 0.9619(3) 0.9095(6)
H13_6 H 0.5633 0.9339 0.8971
C14_6 C 0.5057(4) 0.9862(3) 0.9192(6)
H14_6 H 0.4573 0.9749 0.9134
N5_3 N 0.9655(5) 0.9999(3) 0.9134(6)
N7_4 N 0.8353(8) 0.8278(3) 0.9061(7)
Pr1_7 Pr 0.18458(6) 0.39231(3) 0.45781(6)
O1_7 O 0.3242(9) 0.3960(4) 0.4268(8)
O2_7 O 0.2744(7) 0.4546(3) 0.4547(7)
O3_7 O 0.1787(7) 0.4352(4) 0.5456(6)
O4_7 O 0.2679(8) 0.3869(5) 0.5392(7)
O5_7 O 0.1165(7) 0.4624(4) 0.4447(7)
O6_7 O 0.0458(8) 0.4077(5) 0.4513(8)
O7_7 O 0.2363(9) 0.3195(5) 0.4548(10)
O8_7 O 0.1310(12) 0.3288(5) 0.4108(11)
O9_7 O 0.1177(12) 0.3496(6) 0.5280(12)
H1_7 H 0.1157 0.3242 0.5181
H2_7 H 0.1414 0.3512 0.5573
O10_7 O 0.1871(14) 0.4068(7) 0.3606(9)
H3_7 H 0.1853 0.3838 0.3436
H4_7 H 0.1495 0.4218 0.3525
N1_4 N 0.5345(5) 0.5001(3) 0.4134(6)
C1_5 C 0.5308(6) 0.4571(3) 0.4057(7)
H5_5 H 0.5742 0.4420 0.3952
C2_7 C 0.4636(7) 0.4360(3) 0.4131(8)
H6_7 H 0.4611 0.4066 0.4078
C3_7 C 0.4001(6) 0.4581(4) 0.4284(7)
C4_7 C 0.4038(5) 0.5011(4) 0.4362(7)
H7_7 H 0.3605 0.5162 0.4466
C5_7 C 0.4711(6) 0.5221(3) 0.4287(7)
H8_7 H 0.4736 0.5516 0.4340
C6_7 C 0.3267(10) 0.4328(7) 0.4371(9)
N2_4 N 0.3027(7) 0.4402(4) 0.7252(4)
C7_7 C 0.2497(7) 0.4659(4) 0.7013(6)
H9_7 H 0.2280 0.4883 0.7209
C8_7 C 0.2283(7) 0.4588(4) 0.6488(5)
H10_7 H 0.1920 0.4763 0.6325
C9_7 C 0.2600(8) 0.4260(5) 0.6202(4)
C10_7 C 0.3131(8) 0.4004(4) 0.6440(5)
H11_7 H 0.3348 0.3780 0.6245
C11_7 C 0.3345(7) 0.4075(4) 0.6966(5)
H12_7 H 0.3707 0.3899 0.7129
C12_7 C 0.2376(12) 0.4157(6) 0.5645(11)
H14_7 H 0.0427 0.5251 0.4134
C18_7 C 0.0542(11) 0.4444(6) 0.4412(8)
C19_7 C 0.2198(7) 0.1882(3) 0.4395(6)
H17_7 H 0.2532 0.1697 0.4571
C20_7 C 0.2258(8) 0.2312(4) 0.4471(6)
H18_7 H 0.2635 0.2421 0.4699
C21_7 C 0.1769(9) 0.2582(3) 0.4212(7)
C22_7 C 0.1218(10) 0.2422(4) 0.3878(8)
H19_7 H 0.0883 0.2607 0.3702
C23_7 C 0.1157(9) 0.1992(4) 0.3803(8)
H20_7 H 0.0781 0.1883 0.3575
C24_7 C 0.1843(14) 0.3050(8) 0.4293(12)
Cu6_4 Cu 0.31403(17) 0.44128(9) 0.80526(11)
Cu7_4 Cu 0.62649(13) 0.53256(8) 0.39325(14)
Cu2_4 Cu 0.68597(17) 0.55872(9) 0.30526(11)
Cu4_7 Cu 0.76741(13) 0.55158(9) 0.39364(14)
I1_7 I 0.68308(8) 0.56941(4) 0.47859(6)
I2_7 I 0.55481(7) 0.59365(4) 0.32675(7)
I3_7 I 0.80566(8) 0.61157(5) 0.32821(7)
I4_7 I 0.71008(7) 0.48112(4) 0.33535(7)
N3_7 N 0.8605(5) 0.5216(3) 0.4179(6)
C13_7 C 0.9313(6) 0.5381(3) 0.4095(6)
H13_7 H 0.9367 0.5661 0.3971
C14_7 C 0.9943(4) 0.5138(3) 0.4192(6)
C15_7 C 0.9864(5) 0.4729(3) 0.4373(6)
C16_7 C 0.9155(6) 0.4563(3) 0.4457(6)
H15_7 H 0.9101 0.4284 0.4581
C17_7 C 0.8526(5) 0.4807(4) 0.4360(6)
H16_7 H 0.8041 0.4694 0.4418
N6_4 N 0.6973(7) 0.5598(4) 0.2252(4)
Cu3_4 Cu 0.37351(13) 0.46744(8) 0.89325(14)
Cu4_8 Cu 0.23259(13) 0.44842(9) 0.89364(14)
I1_8 I 0.31692(8) 0.43059(4) 0.97859(6)
I2_8 I 0.44519(7) 0.40635(4) 0.82675(7)
I3_8 I 0.19434(8) 0.38843(5) 0.82821(7)
I4_8 I 0.28992(7) 0.51888(4) 0.83535(7)
N3_8 N 0.1395(5) 0.4784(3) 0.9179(6)
C13_8 C 0.0687(6) 0.4619(3) 0.9095(6)
H13_8 H 0.0633 0.4339 0.8971
C14_8 C 0.0057(4) 0.4862(3) 0.9192(6)
C15_8 C 0.0136(5) 0.5271(3) 0.9373(6)
C16_8 C 0.0845(6) 0.5437(3) 0.9457(6)
H15_8 H 0.0899 0.5716 0.9581
C17_8 C 0.1474(5) 0.5193(4) 0.9360(6)
H16_8 H 0.1959 0.5306 0.9418
N5_4 N 0.4655(5) 0.4999(3) 0.9134(6)
O3_8 O 0.8213(7) 0.5648(4) 0.0456(6)
O4_8 O 0.7321(8) 0.6131(5) 0.0392(7)
O9_8 O 0.8823(12) 0.6504(6) 0.0280(12)
H1_8 H 0.8843 0.6758 0.0181
H2_8 H 0.8586 0.6488 0.0573
C7_8 C 0.7503(7) 0.5341(4) 0.2013(6)
H9_8 H 0.7720 0.5117 0.2209
C8_8 C 0.7717(7) 0.5412(4) 0.1488(5)
H10_8 H 0.8080 0.5237 0.1325
C9_8 C 0.7400(8) 0.5740(5) 0.1202(4)
C10_8 C 0.6869(8) 0.5996(4) 0.1440(5)
H11_8 H 0.6652 0.6220 0.1245
C11_8 C 0.6655(7) 0.5925(4) 0.1966(5)
H12_8 H 0.6293 0.6101 0.2129
C12_8 C 0.7624(12) 0.5843(6) 0.0645(11)
Pr1_8 Pr 0.81542(6) 0.60769(3) 0.95781(6)
O1_8 O 0.6758(9) 0.6040(4) 0.9268(8)
O2_8 O 0.7256(7) 0.5454(3) 0.9547(7)
O5_8 O 0.8835(7) 0.5376(4) 0.9447(7)
O6_8 O 0.9542(8) 0.5923(5) 0.9513(8)
O7_8 O 0.7637(9) 0.6805(5) 0.9548(10)
O8_8 O 0.8690(12) 0.6712(5) 0.9108(11)
O10_8 O 0.8129(14) 0.5932(7) 0.8606(9)
H3_8 H 0.8147 0.6162 0.8436
H4_8 H 0.8505 0.5782 0.8525
C1_6 C 0.4692(6) 0.5429(3) 0.9057(7)
H5_6 H 0.4258 0.5580 0.8952
C2_8 C 0.5364(7) 0.5640(3) 0.9131(8)
H6_8 H 0.5389 0.5934 0.9078
C3_8 C 0.5999(6) 0.5419(4) 0.9284(7)
C4_8 C 0.5962(5) 0.4989(4) 0.9362(7)
H7_8 H 0.6395 0.4838 0.9466
C5_8 C 0.5289(6) 0.4779(3) 0.9287(7)
H8_8 H 0.5264 0.4484 0.9340
C6_8 C 0.6733(10) 0.5672(7) 0.9371(9)
H14_8 H 0.9573 0.4749 0.9134
C18_8 C 0.9458(11) 0.5556(6) 0.9412(8)
C19_8 C 0.7802(7) 0.8118(3) 0.9395(6)
H17_8 H 0.7468 0.8303 0.9571
C20_8 C 0.7742(8) 0.7688(4) 0.9471(6)
H18_8 H 0.7365 0.7579 0.9699
C21_8 C 0.8231(9) 0.7418(3) 0.9212(7)
C22_8 C 0.8782(10) 0.7578(4) 0.8878(8)
H19_8 H 0.9117 0.7393 0.8702
C23_8 C 0.8843(9) 0.8008(4) 0.8803(8)
H20_8 H 0.9219 0.8117 0.8575
C24_8 C 0.8157(14) 0.6950(8) 0.9293(12)
C1_7 C 0.0308(6) 0.9571(3) 0.4057(7)
H5_7 H 0.0742 0.9420 0.3952
C1_8 C 0.9692(6) 0.0429(3) 0.9057(7)
H5_8 H 0.9258 0.0580 0.8952
Na1 Na 0.3070(5) 0.0000 0.0000
Na1_2 Na 0.3070(5) -0.0000 1.0000
Na1_3 Na 0.3070(5) 1.0000 0.0000
Na1_4 Na 0.3070(5) 1.0000 1.0000
Na1_5 Na 0.6930(5) -0.0000 0.5000
Na1_6 Na 0.6930(5) 1.0000 0.5000
Na1_7 Na 0.8070(5) 0.5000 0.0000
Na1_8 Na 0.8070(5) 0.5000 1.0000
Na1_9 Na 0.1930(5) 0.5000 0.5000
Na2 Na 0.057(4) 0.845(2) 0.974(3)
Na2_2 Na 0.943(4) 0.155(2) 0.474(3)
Na2_3 Na 0.943(4) 0.845(2) 0.526(3)
Na2_4 Na 0.057(4) 0.155(2) 0.026(3)
Na2_5 Na 0.557(4) 0.345(2) 0.974(3)
Na2_6 Na 0.443(4) 0.655(2) 0.474(3)
Na2_7 Na 0.443(4) 0.345(2) 0.526(3)
Na2_8 Na 0.557(4) 0.655(2) 0.026(3)
loop_
_geom_bond_atom_site_label_1
_geom_bond_atom_site_label_2
_geom_bond_site_symmetry_1
_geom_bond_site_symmetry_2
Cu1 I1 1_555 1_555
Cu2 I2 1_555 1_555
Cu3 I1 1_555 1_555
Cu4 I1 1_555 1_555
I2 Cu1 1_555 1_555
I3 Cu1 1_555 1_555
H7 C4 1_555 1_555
H8 C5 1_555 1_555
N3 Cu4 1_555 1_555
C13 N3 1_555 1_555
H13 C13 1_555 1_555
C14 C13 1_555 1_555
H14 C14 1_555 1_555
N5 Cu3 1_555 1_555
N6 Cu2 1_555 1_555
N7 Cu1 1_555 1_555
Cu2 I3 1_555 1_555
Cu3 I2 1_555 1_555
Cu4 I3 1_555 1_555
C4 C5 1_555 1_555
Pr1 O1 1_555 1_555
O1 C6 1_555 1_555
O2 Pr1 1_555 1_555
O5 Pr1 1_555 1_555
O6 Pr1 1_555 1_555
O7 Pr1 1_555 1_555
O8 Pr1 1_555 1_555
O10 Pr1 1_555 1_555
H3 O10 1_555 1_555
H4 O10 1_555 1_555
H6 C2 1_555 1_555
C3 C2 1_555 1_555
C6 O2 1_555 1_555
C16 C15 1_555 1_555
H15 C16 1_555 1_555
H16 C17 1_555 1_555
C18 O5 1_555 1_555
N4 C19 1_555 1_555
C19 H17 1_555 1_555
C20 C19 1_555 1_555
H18 C20 1_555 1_555
C21 C20 1_555 1_555
C22 C21 1_555 1_555
H19 C22 1_555 1_555
C23 N4 1_555 1_555
H20 C23 1_555 1_555
C24 O7 1_555 1_555
Cu5 N4 1_555 1_555
O6 C18 1_555 1_555
O8 C24 1_555 1_555
C3 C6 1_555 1_555
C15 C18 1_555 1_555
C16 C17 1_555 1_555
C21 C24 1_555 1_555
C22 C23 1_555 1_555
H1 O9 1_555 1_555
H2 O9 1_555 1_555
N2 C7 1_555 1_555
C7 H9 1_555 1_555
C8 C7 1_555 1_555
H10 C8 1_555 1_555
C9 C8 1_555 1_555
C10 C9 1_555 1_555
H11 C10 1_555 1_555
C11 N2 1_555 1_555
H12 C11 1_555 1_555
C12 O3 1_555 1_555
Cu6 N2 1_555 1_555
O4 C12 1_555 1_555
C9 C12 1_555 1_555
C10 C11 1_555 1_555
Cu7 N1 1_555 1_555
Pr1_2 O1_2 1_555 1_555
O1_2 C6_2 1_555 1_555
O2_2 Pr1_2 1_555 1_555
O3_2 Pr1_2 1_555 1_555
O4_2 Pr1_2 1_555 1_555
O5_2 Pr1_2 1_555 1_555
O6_2 Pr1_2 1_555 1_555
O7_2 Pr1_2 1_555 1_555
O8_2 Pr1_2 1_555 1_555
O9_2 Pr1_2 1_555 1_555
H1_2 O9_2 1_555 1_555
H2_2 O9_2 1_555 1_555
O10_2 Pr1_2 1_555 1_555
H3_2 O10_2 1_555 1_555
H4_2 O10_2 1_555 1_555
H6_2 C2_2 1_555 1_555
C3_2 C2_2 1_555 1_555
C6_2 O2_2 1_555 1_555
N6 C7_2 1_555 1_555
C7_2 H9_2 1_555 1_555
C8_2 C7_2 1_555 1_555
H10_2 C8_2 1_555 1_555
C9_2 C8_2 1_555 1_555
C10_2 C9_2 1_555 1_555
H11_2 C10_2 1_555 1_555
C11_2 N6 1_555 1_555
H12_2 C11_2 1_555 1_555
C12_2 O3_2 1_555 1_555
C16_2 C15_2 1_555 1_555
H15_2 C16_2 1_555 1_555
H16_2 C17_2 1_555 1_555
C18_2 O5_2 1_555 1_555
N4_2 C19_2 1_555 1_555
C19_2 H17_2 1_555 1_555
C20_2 C19_2 1_555 1_555
H18_2 C20_2 1_555 1_555
C21_2 C20_2 1_555 1_555
C22_2 C21_2 1_555 1_555
H19_2 C22_2 1_555 1_555
C23_2 N4_2 1_555 1_555
H20_2 C23_2 1_555 1_555
C24_2 O7_2 1_555 1_555
Cu5_2 N4_2 1_555 1_555
O4_2 C12_2 1_555 1_555
O6_2 C18_2 1_555 1_555
O8_2 C24_2 1_555 1_555
C3_2 C6_2 1_555 1_555
C9_2 C12_2 1_555 1_555
C10_2 C11_2 1_555 1_555
C15_2 C18_2 1_555 1_555
C16_2 C17_2 1_555 1_555
C21_2 C24_2 1_555 1_555
C22_2 C23_2 1_555 1_555
Cu1_2 I1_2 1_555 1_555
Cu6 I2_2 1_555 1_555
Cu7 I1_2 1_555 1_555
Cu4_2 I1_2 1_555 1_555
I2_2 Cu1_2 1_555 1_555
I3_2 Cu1_2 1_555 1_555
H7_2 C4_2 1_555 1_555
H8_2 C5_2 1_555 1_555
N3_2 Cu4_2 1_555 1_555
C13_2 N3_2 1_555 1_555
H13_2 C13_2 1_555 1_555
C14_2 C13_2 1_555 1_555
H14_2 C14_2 1_555 1_555
N7_2 Cu1_2 1_555 1_555
Cu6 I3_2 1_555 1_555
Cu7 I2_2 1_555 1_555
Cu4_2 I3_2 1_555 1_555
C4_2 C5_2 1_555 1_555
Cu5 I1_3 1_555 1_555
Cu2_2 I2_3 1_555 1_555
Cu3_2 I1_3 1_555 1_555
Cu4_3 I1_3 1_555 1_555
I2_3 Cu5 1_555 1_555
I3_3 Cu5 1_555 1_555
I4_3 Cu2_2 1_555 1_555
N3_3 Cu4_3 1_555 1_555
C13_3 N3_3 1_555 1_555
H13_3 C13_3 1_555 1_555
C14_3 C13_3 1_555 1_555
C15_3 C14_3 1_555 1_555
C16_3 C15_3 1_555 1_555
H15_3 C16_3 1_555 1_555
C17_3 N3_3 1_555 1_555
H16_3 C17_3 1_555 1_555
N5_2 Cu3_2 1_555 1_555
N6_2 Cu2_2 1_555 1_555
Cu2_2 I3_3 1_555 1_555
Cu3_2 I2_3 1_555 1_555
Cu3_2 I4_3 1_555 1_555
Cu4_3 I3_3 1_555 1_555
Cu4_3 I4_3 1_555 1_555
C16_3 C17_3 1_555 1_555
Pr1_3 O1_3 1_555 1_555
O1_3 C6_3 1_555 1_555
O2_3 Pr1_3 1_555 1_555
O5_3 Pr1_3 1_555 1_555
O6_3 Pr1_3 1_555 1_555
O7_3 Pr1_3 1_555 1_555
O8_3 Pr1_3 1_555 1_555
O10_3 Pr1_3 1_555 1_555
H3_3 O10_3 1_555 1_555
H4_3 O10_3 1_555 1_555
N5_2 C1 1_555 1_555
C1 H5 1_555 1_555
C2_3 C1 1_555 1_555
H6_3 C2_3 1_555 1_555
C3_3 C2_3 1_555 1_555
C4_3 C3_3 1_555 1_555
H7_3 C4_3 1_555 1_555
C5_3 N5_2 1_555 1_555
H8_3 C5_3 1_555 1_555
C6_3 O2_3 1_555 1_555
C18_3 O5_3 1_555 1_555
N7 C19_3 1_555 1_555
C19_3 H17_3 1_555 1_555
C20_3 C19_3 1_555 1_555
H18_3 C20_3 1_555 1_555
C21_3 C20_3 1_555 1_555
C22_3 C21_3 1_555 1_555
H19_3 C22_3 1_555 1_555
C23_3 N7 1_555 1_555
H20_3 C23_3 1_555 1_555
C24_3 O7_3 1_555 1_555
O6_3 C18_3 1_555 1_555
O8_3 C24_3 1_555 1_555
C3_3 C6_3 1_555 1_555
C4_3 C5_3 1_555 1_555
C21_3 C24_3 1_555 1_555
C22_3 C23_3 1_555 1_555
H1_3 O9_3 1_555 1_555
H2_3 O9_3 1_555 1_555
N2_2 C7_3 1_555 1_555
C7_3 H9_3 1_555 1_555
C8_3 C7_3 1_555 1_555
H10_3 C8_3 1_555 1_555
C9_3 C8_3 1_555 1_555
C10_3 C9_3 1_555 1_555
H11_3 C10_3 1_555 1_555
C11_3 N2_2 1_555 1_555
H12_3 C11_3 1_555 1_555
C12_3 O3_3 1_555 1_555
Cu6_2 N2_2 1_555 1_555
O4_3 C12_3 1_555 1_555
C9_3 C12_3 1_555 1_555
C10_3 C11_3 1_555 1_555
Pr1_4 O1_4 1_555 1_555
O1_4 C6_4 1_555 1_555
O2_4 Pr1_4 1_555 1_555
O3_4 Pr1_4 1_555 1_555
O4_4 Pr1_4 1_555 1_555
O5_4 Pr1_4 1_555 1_555
O6_4 Pr1_4 1_555 1_555
O7_4 Pr1_4 1_555 1_555
O8_4 Pr1_4 1_555 1_555
O9_4 Pr1_4 1_555 1_555
H1_4 O9_4 1_555 1_555
H2_4 O9_4 1_555 1_555
O10_4 Pr1_4 1_555 1_555
H3_4 O10_4 1_555 1_555
H4_4 O10_4 1_555 1_555
N1_2 C1_2 1_555 1_555
C1_2 H5_2 1_555 1_555
C2_4 C1_2 1_555 1_555
H6_4 C2_4 1_555 1_555
C3_4 C2_4 1_555 1_555
C4_4 C3_4 1_555 1_555
H7_4 C4_4 1_555 1_555
C5_4 N1_2 1_555 1_555
H8_4 C5_4 1_555 1_555
C6_4 O2_4 1_555 1_555
N6_2 C7_4 1_555 1_555
C7_4 H9_4 1_555 1_555
C8_4 C7_4 1_555 1_555
H10_4 C8_4 1_555 1_555
C9_4 C8_4 1_555 1_555
C10_4 C9_4 1_555 1_555
H11_4 C10_4 1_555 1_555
C11_4 N6_2 1_555 1_555
H12_4 C11_4 1_555 1_555
C12_4 O3_4 1_555 1_555
C18_4 O5_4 1_555 1_555
N7_2 C19_4 1_555 1_555
C19_4 H17_4 1_555 1_555
C20_4 C19_4 1_555 1_555
H18_4 C20_4 1_555 1_555
C21_4 C20_4 1_555 1_555
C22_4 C21_4 1_555 1_555
H19_4 C22_4 1_555 1_555
C23_4 N7_2 1_555 1_555
H20_4 C23_4 1_555 1_555
C24_4 O7_4 1_555 1_555
Cu7_2 N1_2 1_555 1_555
O4_4 C12_4 1_555 1_555
O6_4 C18_4 1_555 1_555
O8_4 C24_4 1_555 1_555
C3_4 C6_4 1_555 1_555
C4_4 C5_4 1_555 1_555
C9_4 C12_4 1_555 1_555
C10_4 C11_4 1_555 1_555
C21_4 C24_4 1_555 1_555
C22_4 C23_4 1_555 1_555
Cu5_2 I1_4 1_555 1_555
Cu6_2 I2_4 1_555 1_555
Cu7_2 I1_4 1_555 1_555
Cu4_4 I1_4 1_555 1_555
I2_4 Cu5_2 1_555 1_555
I3_4 Cu5_2 1_555 1_555
I4_4 Cu6_2 1_555 1_555
N3_4 Cu4_4 1_555 1_555
C13_4 N3_4 1_555 1_555
H13_4 C13_4 1_555 1_555
C14_4 C13_4 1_555 1_555
C15_4 C14_4 1_555 1_555
C16_4 C15_4 1_555 1_555
H15_4 C16_4 1_555 1_555
C17_4 N3_4 1_555 1_555
H16_4 C17_4 1_555 1_555
Cu6_2 I3_4 1_555 1_555
Cu7_2 I2_4 1_555 1_555
Cu7_2 I4_4 1_555 1_555
Cu4_4 I3_4 1_555 1_555
Cu4_4 I4_4 1_555 1_555
C16_4 C17_4 1_555 1_555
C1_3 H5_3 1_555 1_555
C1_4 H5_4 1_555 1_555
Cu7_3 N1_3 1_555 1_555
Cu1_3 I1_5 1_555 1_555
Cu2_3 I2_5 1_555 1_555
Cu7_3 I1_5 1_555 1_555
Cu4_5 I1_5 1_555 1_555
I2_5 Cu1_3 1_555 1_555
I3_5 Cu1_3 1_555 1_555
H7_5 C4_5 1_555 1_555
H8_5 C5_5 1_555 1_555
N3_5 Cu4_5 1_555 1_555
C13_5 N3_5 1_555 1_555
H13_5 C13_5 1_555 1_555
C14_5 C13_5 1_555 1_555
H14_5 C14_5 1_555 1_555
N6_3 Cu2_3 1_555 1_555
N7_3 Cu1_3 1_555 1_555
Cu2_3 I3_5 1_555 1_555
Cu7_3 I2_5 1_555 1_555
Cu4_5 I3_5 1_555 1_555
C4_5 C5_5 1_555 1_555
Pr1_5 O1_5 1_555 1_555
O1_5 C6_5 1_555 1_555
O2_5 Pr1_5 1_555 1_555
O3_5 Pr1_5 1_555 1_555
O4_5 Pr1_5 1_555 1_555
O5_5 Pr1_5 1_555 1_555
O6_5 Pr1_5 1_555 1_555
O7_5 Pr1_5 1_555 1_555
O8_5 Pr1_5 1_555 1_555
O9_5 Pr1_5 1_555 1_555
H1_5 O9_5 1_555 1_555
H2_5 O9_5 1_555 1_555
O10_5 Pr1_5 1_555 1_555
H3_5 O10_5 1_555 1_555
H4_5 O10_5 1_555 1_555
H6_5 C2_5 1_555 1_555
C3_5 C2_5 1_555 1_555
C6_5 O2_5 1_555 1_555
N2_3 C7_5 1_555 1_555
C7_5 H9_5 1_555 1_555
C8_5 C7_5 1_555 1_555
H10_5 C8_5 1_555 1_555
C9_5 C8_5 1_555 1_555
C10_5 C9_5 1_555 1_555
H11_5 C10_5 1_555 1_555
C11_5 N2_3 1_555 1_555
H12_5 C11_5 1_555 1_555
C12_5 O3_5 1_555 1_555
C16_5 C15_5 1_555 1_555
H15_5 C16_5 1_555 1_555
H16_5 C17_5 1_555 1_555
C18_5 O5_5 1_555 1_555
N4_3 C19_5 1_555 1_555
C19_5 H17_5 1_555 1_555
C20_5 C19_5 1_555 1_555
H18_5 C20_5 1_555 1_555
C21_5 C20_5 1_555 1_555
C22_5 C21_5 1_555 1_555
H19_5 C22_5 1_555 1_555
C23_5 N4_3 1_555 1_555
H20_5 C23_5 1_555 1_555
C24_5 O7_5 1_555 1_555
Cu5_3 N4_3 1_555 1_555
Cu6_3 N2_3 1_555 1_555
O4_5 C12_5 1_555 1_555
O6_5 C18_5 1_555 1_555
O8_5 C24_5 1_555 1_555
C3_5 C6_5 1_555 1_555
C9_5 C12_5 1_555 1_555
C10_5 C11_5 1_555 1_555
C15_5 C18_5 1_555 1_555
C16_5 C17_5 1_555 1_555
C21_5 C24_5 1_555 1_555
C22_5 C23_5 1_555 1_555
H1_6 O9_6 1_555 1_555
H2_6 O9_6 1_555 1_555
N6_3 C7_6 1_555 1_555
C7_6 H9_6 1_555 1_555
C8_6 C7_6 1_555 1_555
H10_6 C8_6 1_555 1_555
C9_6 C8_6 1_555 1_555
C10_6 C9_6 1_555 1_555
H11_6 C10_6 1_555 1_555
C11_6 N6_3 1_555 1_555
H12_6 C11_6 1_555 1_555
C12_6 O3_6 1_555 1_555
O4_6 C12_6 1_555 1_555
C9_6 C12_6 1_555 1_555
C10_6 C11_6 1_555 1_555
Pr1_6 O1_6 1_555 1_555
O1_6 C6_6 1_555 1_555
O2_6 Pr1_6 1_555 1_555
O5_6 Pr1_6 1_555 1_555
O6_6 Pr1_6 1_555 1_555
O7_6 Pr1_6 1_555 1_555
O8_6 Pr1_6 1_555 1_555
O10_6 Pr1_6 1_555 1_555
H3_6 O10_6 1_555 1_555
H4_6 O10_6 1_555 1_555
H6_6 C2_6 1_555 1_555
C3_6 C2_6 1_555 1_555
C6_6 O2_6 1_555 1_555
C16_6 C15_6 1_555 1_555
H15_6 C16_6 1_555 1_555
H16_6 C17_6 1_555 1_555
C18_6 O5_6 1_555 1_555
N4_4 C19_6 1_555 1_555
C19_6 H17_6 1_555 1_555
C20_6 C19_6 1_555 1_555
H18_6 C20_6 1_555 1_555
C21_6 C20_6 1_555 1_555
C22_6 C21_6 1_555 1_555
H19_6 C22_6 1_555 1_555
C23_6 N4_4 1_555 1_555
H20_6 C23_6 1_555 1_555
C24_6 O7_6 1_555 1_555
Cu5_4 N4_4 1_555 1_555
O6_6 C18_6 1_555 1_555
O8_6 C24_6 1_555 1_555
C3_6 C6_6 1_555 1_555
C15_6 C18_6 1_555 1_555
C16_6 C17_6 1_555 1_555
C21_6 C24_6 1_555 1_555
C22_6 C23_6 1_555 1_555
Cu1_4 I1_6 1_555 1_555
Cu6_3 I2_6 1_555 1_555
Cu3_3 I1_6 1_555 1_555
Cu4_6 I1_6 1_555 1_555
I2_6 Cu1_4 1_555 1_555
I3_6 Cu1_4 1_555 1_555
H7_6 C4_6 1_555 1_555
H8_6 C5_6 1_555 1_555
N3_6 Cu4_6 1_555 1_555
C13_6 N3_6 1_555 1_555
H13_6 C13_6 1_555 1_555
C14_6 C13_6 1_555 1_555
H14_6 C14_6 1_555 1_555
N5_3 Cu3_3 1_555 1_555
N7_4 Cu1_4 1_555 1_555
Cu6_3 I3_6 1_555 1_555
Cu3_3 I2_6 1_555 1_555
Cu4_6 I3_6 1_555 1_555
C4_6 C5_6 1_555 1_555
Pr1_7 O1_7 1_555 1_555
O1_7 C6_7 1_555 1_555
O2_7 Pr1_7 1_555 1_555
O3_7 Pr1_7 1_555 1_555
O4_7 Pr1_7 1_555 1_555
O5_7 Pr1_7 1_555 1_555
O6_7 Pr1_7 1_555 1_555
O7_7 Pr1_7 1_555 1_555
O8_7 Pr1_7 1_555 1_555
O9_7 Pr1_7 1_555 1_555
H1_7 O9_7 1_555 1_555
H2_7 O9_7 1_555 1_555
O10_7 Pr1_7 1_555 1_555
H3_7 O10_7 1_555 1_555
H4_7 O10_7 1_555 1_555
N1_4 C1_5 1_555 1_555
C1_5 H5_5 1_555 1_555
C2_7 C1_5 1_555 1_555
H6_7 C2_7 1_555 1_555
C3_7 C2_7 1_555 1_555
C4_7 C3_7 1_555 1_555
H7_7 C4_7 1_555 1_555
C5_7 N1_4 1_555 1_555
H8_7 C5_7 1_555 1_555
C6_7 O2_7 1_555 1_555
N2_4 C7_7 1_555 1_555
C7_7 H9_7 1_555 1_555
C8_7 C7_7 1_555 1_555
H10_7 C8_7 1_555 1_555
C9_7 C8_7 1_555 1_555
C10_7 C9_7 1_555 1_555
H11_7 C10_7 1_555 1_555
C11_7 N2_4 1_555 1_555
H12_7 C11_7 1_555 1_555
C12_7 O3_7 1_555 1_555
C18_7 O5_7 1_555 1_555
N7_3 C19_7 1_555 1_555
C19_7 H17_7 1_555 1_555
C20_7 C19_7 1_555 1_555
H18_7 C20_7 1_555 1_555
C21_7 C20_7 1_555 1_555
C22_7 C21_7 1_555 1_555
H19_7 C22_7 1_555 1_555
C23_7 N7_3 1_555 1_555
H20_7 C23_7 1_555 1_555
C24_7 O7_7 1_555 1_555
Cu6_4 N2_4 1_555 1_555
Cu7_4 N1_4 1_555 1_555
O4_7 C12_7 1_555 1_555
O6_7 C18_7 1_555 1_555
O8_7 C24_7 1_555 1_555
C3_7 C6_7 1_555 1_555
C4_7 C5_7 1_555 1_555
C9_7 C12_7 1_555 1_555
C10_7 C11_7 1_555 1_555
C21_7 C24_7 1_555 1_555
C22_7 C23_7 1_555 1_555
Cu5_3 I1_7 1_555 1_555
Cu2_4 I2_7 1_555 1_555
Cu7_4 I1_7 1_555 1_555
Cu4_7 I1_7 1_555 1_555
I2_7 Cu5_3 1_555 1_555
I3_7 Cu5_3 1_555 1_555
I4_7 Cu2_4 1_555 1_555
N3_7 Cu4_7 1_555 1_555
C13_7 N3_7 1_555 1_555
H13_7 C13_7 1_555 1_555
C14_7 C13_7 1_555 1_555
C15_7 C14_7 1_555 1_555
C16_7 C15_7 1_555 1_555
H15_7 C16_7 1_555 1_555
C17_7 N3_7 1_555 1_555
H16_7 C17_7 1_555 1_555
N6_4 Cu2_4 1_555 1_555
Cu2_4 I3_7 1_555 1_555
Cu7_4 I2_7 1_555 1_555
Cu7_4 I4_7 1_555 1_555
Cu4_7 I3_7 1_555 1_555
Cu4_7 I4_7 1_555 1_555
C16_7 C17_7 1_555 1_555
Cu5_4 I1_8 1_555 1_555
Cu6_4 I2_8 1_555 1_555
Cu3_4 I1_8 1_555 1_555
Cu4_8 I1_8 1_555 1_555
I2_8 Cu5_4 1_555 1_555
I3_8 Cu5_4 1_555 1_555
I4_8 Cu6_4 1_555 1_555
N3_8 Cu4_8 1_555 1_555
C13_8 N3_8 1_555 1_555
H13_8 C13_8 1_555 1_555
C14_8 C13_8 1_555 1_555
C15_8 C14_8 1_555 1_555
C16_8 C15_8 1_555 1_555
H15_8 C16_8 1_555 1_555
C17_8 N3_8 1_555 1_555
H16_8 C17_8 1_555 1_555
N5_4 Cu3_4 1_555 1_555
Cu6_4 I3_8 1_555 1_555
Cu3_4 I2_8 1_555 1_555
Cu3_4 I4_8 1_555 1_555
Cu4_8 I3_8 1_555 1_555
Cu4_8 I4_8 1_555 1_555
C16_8 C17_8 1_555 1_555
H1_8 O9_8 1_555 1_555
H2_8 O9_8 1_555 1_555
N6_4 C7_8 1_555 1_555
C7_8 H9_8 1_555 1_555
C8_8 C7_8 1_555 1_555
H10_8 C8_8 1_555 1_555
C9_8 C8_8 1_555 1_555
C10_8 C9_8 1_555 1_555
H11_8 C10_8 1_555 1_555
C11_8 N6_4 1_555 1_555
H12_8 C11_8 1_555 1_555
C12_8 O3_8 1_555 1_555
O4_8 C12_8 1_555 1_555
C9_8 C12_8 1_555 1_555
C10_8 C11_8 1_555 1_555
Pr1_8 O1_8 1_555 1_555
O1_8 C6_8 1_555 1_555
O2_8 Pr1_8 1_555 1_555
O5_8 Pr1_8 1_555 1_555
O6_8 Pr1_8 1_555 1_555
O7_8 Pr1_8 1_555 1_555
O8_8 Pr1_8 1_555 1_555
O10_8 Pr1_8 1_555 1_555
H3_8 O10_8 1_555 1_555
H4_8 O10_8 1_555 1_555
N5_4 C1_6 1_555 1_555
C1_6 H5_6 1_555 1_555
C2_8 C1_6 1_555 1_555
H6_8 C2_8 1_555 1_555
C3_8 C2_8 1_555 1_555
C4_8 C3_8 1_555 1_555
H7_8 C4_8 1_555 1_555
C5_8 N5_4 1_555 1_555
H8_8 C5_8 1_555 1_555
C6_8 O2_8 1_555 1_555
C18_8 O5_8 1_555 1_555
N7_4 C19_8 1_555 1_555
C19_8 H17_8 1_555 1_555
C20_8 C19_8 1_555 1_555
H18_8 C20_8 1_555 1_555
C21_8 C20_8 1_555 1_555
C22_8 C21_8 1_555 1_555
H19_8 C22_8 1_555 1_555
C23_8 N7_4 1_555 1_555
H20_8 C23_8 1_555 1_555
C24_8 O7_8 1_555 1_555
O6_8 C18_8 1_555 1_555
O8_8 C24_8 1_555 1_555
C3_8 C6_8 1_555 1_555
C4_8 C5_8 1_555 1_555
C21_8 C24_8 1_555 1_555
C22_8 C23_8 1_555 1_555
C1_7 H5_7 1_555 1_555
C1_8 H5_8 1_555 1_555

#END
