
###############################################################################
#
# This file contains modified crystal structure data generated from the
# MOF subset of the Cambridge Structural Database (CSD) v543 
# hosted by the Cambridge Crystallographic Data Centre (CCDC).
#
# This work is licensed under the Creative Commons
# Attribution-NonCommercial-ShareAlike 4.0 International License.
# To view a copy of this license, visit
# http://creativecommons.org/licenses/by-nc-sa/4.0/
# or send a letter to
# Creative Commons, PO Box 1866, Mountain View, CA 94042, USA.
#
# CIF created using the CSD Python API on 29 September 2022
# The structure has been converted into the P1 space group
# The structure has a 3D framework
# The original CSD entry ETUJUA is in the orthorhombic crystal system
# The original CSD entry ETUJUA is in a Sohncke space group
# The framework has been calculated to contain at least 10.0% void space
# The void calculation uses a probe of radius 1.32A, grid spacing 0.4
# The framework is charged, counterions have been retained in the structure
#
###############################################################################

data_ETUJUA
_chemical_formula_moiety         '(C192 H160 Cu32 I32 N28 Na17 Nd8 O80 9+)n'
_symmetry_cell_setting           triclinic
_symmetry_space_group_name_H-M   'P 1'
_symmetry_Int_Tables_number      1
_space_group_name_Hall           'P 1'
loop_
_symmetry_equiv_pos_site_id
_symmetry_equiv_pos_as_xyz
1 x,y,z
_cell_length_a                   17.889(2)
_cell_length_b                   31.835(4)
_cell_length_c                   24.831(3)
_cell_angle_alpha                90
_cell_angle_beta                 90
_cell_angle_gamma                90
_cell_volume                     14141.2
loop_
_atom_site_label
_atom_site_type_symbol
_atom_site_fract_x
_atom_site_fract_y
_atom_site_fract_z
N2 N 0.0357(5) 0.0013(3) 0.5842(6)
Cu6 Cu 0.12662(13) 0.03364(8) 0.60614(15)
I2 I 0.30618(8) 0.11143(5) 0.67267(8)
I3 I 0.18472(8) 0.07032(4) 0.52058(7)
I4 I 0.05507(7) 0.09470(4) 0.67307(7)
Cu1 Cu 0.26790(13) 0.05164(9) 0.60623(15)
Cu2 Cu 0.18508(17) 0.05902(9) 0.69508(13)
Cu4 Cu 0.17187(15) 0.11162(7) 0.61376(14)
C6 C 0.9717(6) 0.0233(3) 0.5695(7)
H9 H 0.9741 0.0528 0.5641
C7 C 0.9044(5) 0.0022(3) 0.5628(7)
H10 H 0.8607 0.0172 0.5527
N3 N 0.3601(4) 0.0212(4) 0.5832(5)
C11 C 0.4305(5) 0.0387(3) 0.5907(5)
H13 H 0.4351 0.0671 0.6020
C12 C 0.4942(4) 0.0147(3) 0.5817(5)
H14 H 0.5423 0.0267 0.5869
N5 N 0.1954(7) 0.0599(4) 0.7748(5)
N7 N 0.1670(7) 0.1730(3) 0.5948(7)
Nd1 Nd 0.68555(6) 0.89305(3) 0.54507(6)
I1 I 0.20926(7) 0.98154(4) 0.66492(8)
O1 O 0.7664(8) 0.8858(5) 0.4634(8)
O2 O 0.6792(7) 0.9348(4) 0.4573(6)
O3 O 0.7726(7) 0.9550(4) 0.5465(7)
O4 O 0.8221(8) 0.8979(5) 0.5762(8)
O5 O 0.6177(6) 0.9630(4) 0.5578(7)
O6 O 0.5472(8) 0.9070(4) 0.5513(8)
O7 O 0.7379(9) 0.8214(5) 0.5490(9)
O8 O 0.6307(9) 0.8301(5) 0.5937(9)
O9 O 0.6894(14) 0.9057(8) 0.6403(9)
H1 H 0.7303 0.9178 0.6484
H2 H 0.6529 0.9214 0.6490
O10 O 0.6183(12) 0.8485(7) 0.4757(12)
H3 H 0.6435 0.8479 0.4467
H4 H 0.5755 0.8590 0.4695
N1 N 0.8046(7) 0.9401(4) 0.2748(5)
C1 C 0.8354(7) 0.9068(4) 0.3033(6)
H5 H 0.8716 0.8892 0.2867
C2 C 0.8134(8) 0.8991(4) 0.3561(6)
H6 H 0.8345 0.8764 0.3755
C3 C 0.7604(7) 0.9249(5) 0.3804(5)
C4 C 0.7295(7) 0.9582(4) 0.3519(6)
H7 H 0.6934 0.9758 0.3685
C5 C 0.7516(7) 0.9659(4) 0.2991(6)
H8 H 0.7305 0.9886 0.2797
C8 C 0.9010(5) 0.9590(3) 0.5707(7)
C9 C 0.9649(6) 0.9370(3) 0.5853(7)
H11 H 0.9626 0.9074 0.5908
C13 C 0.4875(5) 0.9732(3) 0.5651(6)
C14 C 0.4171(6) 0.9556(3) 0.5576(6)
H15 H 0.4125 0.9272 0.5463
C15 C 0.3534(4) 0.9796(4) 0.5666(6)
H16 H 0.3053 0.9677 0.5615
N4 N 0.6670(7) 0.6730(3) 0.5948(7)
C16 C 0.7236(8) 0.6898(4) 0.5631(7)
H17 H 0.7588 0.6718 0.5463
C17 C 0.7287(8) 0.7330(4) 0.5561(8)
H18 H 0.7674 0.7445 0.5345
C18 C 0.6772(9) 0.7595(3) 0.5808(9)
C19 C 0.6205(9) 0.7426(4) 0.6125(8)
H19 H 0.5853 0.7607 0.6293
C20 C 0.6154(7) 0.6994(4) 0.6195(7)
H20 H 0.5767 0.6879 0.6412
C21 C 0.7354(11) 0.9142(6) 0.4334(14)
C22 C 0.8266(10) 0.9339(7) 0.5650(9)
C23 C 0.5552(10) 0.9440(7) 0.5588(9)
C24 C 0.6844(16) 0.8076(7) 0.5760(14)
Cu5 Cu 0.81492(17) 0.94098(9) 0.19508(13)
Cu7 Cu 0.67187(15) 0.61162(7) 0.61376(14)
Nd1_2 Nd 0.31445(6) 0.10695(3) 0.04507(6)
I1_2 I 0.79074(7) 0.01846(4) 0.16492(8)
O3_2 O 0.2274(7) 0.0450(4) 0.0465(7)
O4_2 O 0.1779(8) 0.1021(5) 0.0762(8)
O5_2 O 0.3823(6) 0.0370(4) 0.0578(7)
O6_2 O 0.4528(8) 0.0930(4) 0.0513(8)
O7_2 O 0.2621(9) 0.1786(5) 0.0490(9)
O8_2 O 0.3693(9) 0.1699(5) 0.0937(9)
O9_2 O 0.3106(14) 0.0943(8) 0.1403(9)
H1_2 H 0.2697 0.0822 0.1484
H2_2 H 0.3471 0.0786 0.1490
C8_2 C 0.0990(5) 0.0410(3) 0.0707(7)
C9_2 C 0.0351(6) 0.0630(3) 0.0853(7)
H11_2 H 0.0374 0.0926 0.0908
C13_2 C 0.5125(5) 0.0268(3) 0.0651(6)
C14_2 C 0.5829(6) 0.0444(3) 0.0576(6)
H15_2 H 0.5875 0.0728 0.0463
C15_2 C 0.6466(4) 0.0204(4) 0.0666(6)
H16_2 H 0.6947 0.0323 0.0615
N4_2 N 0.3330(7) 0.3270(3) 0.0948(7)
C16_2 C 0.2764(8) 0.3102(4) 0.0631(7)
H17_2 H 0.2412 0.3282 0.0463
C17_2 C 0.2713(8) 0.2670(4) 0.0561(8)
H18_2 H 0.2326 0.2555 0.0345
C18_2 C 0.3228(9) 0.2405(3) 0.0808(9)
C19_2 C 0.3795(9) 0.2574(4) 0.1125(8)
H19_2 H 0.4147 0.2393 0.1293
C20_2 C 0.3846(7) 0.3006(4) 0.1195(7)
H20_2 H 0.4233 0.3121 0.1412
C22_2 C 0.1734(10) 0.0661(7) 0.0650(9)
C23_2 C 0.4448(10) 0.0560(7) 0.0588(9)
C24_2 C 0.3156(16) 0.1924(7) 0.0760(14)
Cu7_2 Cu 0.32813(15) 0.38838(7) 0.11376(14)
O1_2 O 0.2336(8) 0.1142(5) 0.9634(8)
O2_2 O 0.3208(7) 0.0652(4) 0.9573(6)
O10_2 O 0.3817(12) 0.1515(7) 0.9757(12)
H3_2 H 0.3565 0.1521 0.9467
H4_2 H 0.4245 0.1410 0.9695
C1_2 C 0.1646(7) 0.0932(4) 0.8033(6)
H5_2 H 0.1284 0.1108 0.7867
C2_2 C 0.1866(8) 0.1009(4) 0.8561(6)
H6_2 H 0.1655 0.1236 0.8755
C3_2 C 0.2396(7) 0.0751(5) 0.8804(5)
C4_2 C 0.2705(7) 0.0418(4) 0.8519(6)
H7_2 H 0.3066 0.0242 0.8685
C5_2 C 0.2484(7) 0.0341(4) 0.7991(6)
H8_2 H 0.2695 0.0114 0.7797
C21_2 C 0.2646(11) 0.0858(6) 0.9334(14)
I2_2 I 0.69382(8) 0.88857(5) 0.17267(8)
I3_2 I 0.81528(8) 0.92968(4) 0.02058(7)
I4_2 I 0.94493(7) 0.90530(4) 0.17307(7)
Cu1_2 Cu 0.73210(13) 0.94836(9) 0.10623(15)
Cu3 Cu 0.87338(13) 0.96636(8) 0.10614(15)
Cu4_2 Cu 0.82813(15) 0.88838(7) 0.11376(14)
C6_2 C 0.0283(6) 0.9767(3) 0.0695(7)
H9_2 H 0.0259 0.9472 0.0641
C7_2 C 0.0956(5) 0.9978(3) 0.0628(7)
H10_2 H 0.1393 0.9828 0.0527
N3_2 N 0.6399(4) 0.9788(4) 0.0832(5)
C11_2 C 0.5695(5) 0.9613(3) 0.0907(5)
H13_2 H 0.5649 0.9329 0.1020
C12_2 C 0.5058(4) 0.9853(3) 0.0817(5)
H14_2 H 0.4577 0.9733 0.0869
N6 N 0.9643(5) 0.9987(3) 0.0842(6)
N7_2 N 0.8330(7) 0.8270(3) 0.0948(7)
Nd1_3 Nd 0.18555(6) 0.39305(3) 0.54507(6)
O1_3 O 0.2664(8) 0.3858(5) 0.4634(8)
O2_3 O 0.1792(7) 0.4348(4) 0.4573(6)
O3_3 O 0.2726(7) 0.4550(4) 0.5465(7)
O4_3 O 0.3221(8) 0.3979(5) 0.5762(8)
O5_3 O 0.1177(6) 0.4630(4) 0.5578(7)
O6_3 O 0.0472(8) 0.4070(4) 0.5513(8)
O7_3 O 0.2379(9) 0.3214(5) 0.5490(9)
O8_3 O 0.1307(9) 0.3301(5) 0.5937(9)
O9_3 O 0.1894(14) 0.4057(8) 0.6403(9)
H1_3 H 0.2303 0.4178 0.6484
H2_3 H 0.1529 0.4214 0.6490
O10_3 O 0.1183(12) 0.3485(7) 0.4757(12)
H3_3 H 0.1435 0.3479 0.4467
H4_3 H 0.0755 0.3590 0.4695
N1_2 N 0.3046(7) 0.4401(4) 0.2748(5)
C1_3 C 0.3354(7) 0.4068(4) 0.3033(6)
H5_3 H 0.3716 0.3892 0.2867
C2_3 C 0.3134(8) 0.3991(4) 0.3561(6)
H6_3 H 0.3345 0.3764 0.3755
C3_3 C 0.2604(7) 0.4249(5) 0.3804(5)
C4_3 C 0.2295(7) 0.4582(4) 0.3519(6)
H7_3 H 0.1934 0.4758 0.3685
C5_3 C 0.2516(7) 0.4659(4) 0.2991(6)
H8_3 H 0.2305 0.4886 0.2797
N2_2 N 0.5357(5) 0.5013(3) 0.5842(6)
C6_3 C 0.4717(6) 0.5233(3) 0.5695(7)
H9_3 H 0.4741 0.5528 0.5641
C7_3 C 0.4044(5) 0.5022(3) 0.5628(7)
H10_3 H 0.3607 0.5172 0.5527
C8_3 C 0.4010(5) 0.4590(3) 0.5707(7)
C9_3 C 0.4649(6) 0.4370(3) 0.5853(7)
H11_3 H 0.4626 0.4074 0.5908
C10 C 0.5323(5) 0.4581(3) 0.5921(6)
H12 H 0.5760 0.4431 0.6021
H14_3 H 0.0423 0.5267 0.5869
C16_3 C 0.2236(8) 0.1898(4) 0.5631(7)
H17_3 H 0.2588 0.1718 0.5463
C17_3 C 0.2287(8) 0.2330(4) 0.5561(8)
H18_3 H 0.2674 0.2445 0.5345
C18_3 C 0.1772(9) 0.2595(3) 0.5808(9)
C19_3 C 0.1205(9) 0.2426(4) 0.6125(8)
H19_3 H 0.0853 0.2607 0.6293
C20_3 C 0.1154(7) 0.1994(4) 0.6195(7)
H20_3 H 0.0767 0.1879 0.6412
C21_3 C 0.2354(11) 0.4142(6) 0.4334(14)
C22_3 C 0.3266(10) 0.4339(7) 0.5650(9)
C23_3 C 0.0552(10) 0.4440(7) 0.5588(9)
C24_3 C 0.1844(16) 0.3076(7) 0.5760(14)
Cu5_2 Cu 0.31492(17) 0.44098(9) 0.19508(13)
Cu6_2 Cu 0.62662(13) 0.53364(8) 0.60614(15)
I1_3 I 0.70926(7) 0.48154(4) 0.66492(8)
I2_3 I 0.80618(8) 0.61143(5) 0.67267(8)
I3_3 I 0.68472(8) 0.57032(4) 0.52058(7)
I4_3 I 0.55507(7) 0.59470(4) 0.67307(7)
Cu1_3 Cu 0.76790(13) 0.55164(9) 0.60623(15)
Cu2_2 Cu 0.68508(17) 0.55902(9) 0.69508(13)
N3_3 N 0.8601(4) 0.5212(4) 0.5832(5)
C11_3 C 0.9305(5) 0.5387(3) 0.5907(5)
H13_3 H 0.9351 0.5671 0.6020
C12_3 C 0.9942(4) 0.5147(3) 0.5817(5)
C13_3 C 0.9875(5) 0.4732(3) 0.5651(6)
C14_3 C 0.9171(6) 0.4556(3) 0.5576(6)
H15_3 H 0.9125 0.4272 0.5463
C15_3 C 0.8534(4) 0.4796(4) 0.5666(6)
H16_3 H 0.8053 0.4677 0.5615
N5_2 N 0.6954(7) 0.5599(4) 0.7748(5)
I1_4 I 0.29074(7) 0.51846(4) 0.16492(8)
I2_4 I 0.19382(8) 0.38857(5) 0.17267(8)
I3_4 I 0.31528(8) 0.42968(4) 0.02058(7)
I4_4 I 0.44493(7) 0.40530(4) 0.17307(7)
Cu1_4 Cu 0.23210(13) 0.44836(9) 0.10623(15)
Cu3_2 Cu 0.37338(13) 0.46636(8) 0.10614(15)
N3_4 N 0.1399(4) 0.4788(4) 0.0832(5)
C11_4 C 0.0695(5) 0.4613(3) 0.0907(5)
H13_4 H 0.0649 0.4329 0.1020
C12_4 C 0.0058(4) 0.4853(3) 0.0817(5)
C13_4 C 0.0125(5) 0.5268(3) 0.0651(6)
C14_4 C 0.0829(6) 0.5444(3) 0.0576(6)
H15_4 H 0.0875 0.5728 0.0463
C15_4 C 0.1466(4) 0.5204(4) 0.0666(6)
H16_4 H 0.1947 0.5323 0.0615
N6_2 N 0.4643(5) 0.4987(3) 0.0842(6)
Nd1_4 Nd 0.81445(6) 0.60695(3) 0.04507(6)
O3_4 O 0.7274(7) 0.5450(4) 0.0465(7)
O4_4 O 0.6779(8) 0.6021(5) 0.0762(8)
O5_4 O 0.8823(6) 0.5370(4) 0.0578(7)
O6_4 O 0.9528(8) 0.5930(4) 0.0513(8)
O7_4 O 0.7621(9) 0.6786(5) 0.0490(9)
O8_4 O 0.8693(9) 0.6699(5) 0.0937(9)
O9_4 O 0.8106(14) 0.5943(8) 0.1403(9)
H1_4 H 0.7697 0.5822 0.1484
H2_4 H 0.8471 0.5786 0.1490
C6_4 C 0.5283(6) 0.4767(3) 0.0695(7)
H9_4 H 0.5259 0.4472 0.0641
C7_4 C 0.5956(5) 0.4978(3) 0.0628(7)
H10_4 H 0.6393 0.4828 0.0527
C8_4 C 0.5990(5) 0.5410(3) 0.0707(7)
C9_4 C 0.5351(6) 0.5630(3) 0.0853(7)
H11_4 H 0.5374 0.5926 0.0908
C10_2 C 0.4677(5) 0.5419(3) 0.0921(6)
H12_2 H 0.4240 0.5569 0.1021
H14_4 H 0.9577 0.4733 0.0869
C16_4 C 0.7764(8) 0.8102(4) 0.0631(7)
H17_4 H 0.7412 0.8282 0.0463
C17_4 C 0.7713(8) 0.7670(4) 0.0561(8)
H18_4 H 0.7326 0.7555 0.0345
C18_4 C 0.8228(9) 0.7405(3) 0.0808(9)
C19_4 C 0.8795(9) 0.7574(4) 0.1125(8)
H19_4 H 0.9147 0.7393 0.1293
C20_4 C 0.8846(7) 0.8006(4) 0.1195(7)
H20_4 H 0.9233 0.8121 0.1412
C22_4 C 0.6734(10) 0.5661(7) 0.0650(9)
C23_4 C 0.9448(10) 0.5560(7) 0.0588(9)
C24_4 C 0.8156(16) 0.6924(7) 0.0760(14)
O1_4 O 0.7336(8) 0.6142(5) 0.9634(8)
O2_4 O 0.8208(7) 0.5652(4) 0.9573(6)
O10_4 O 0.8817(12) 0.6515(7) 0.9757(12)
H3_4 H 0.8565 0.6521 0.9467
H4_4 H 0.9245 0.6410 0.9695
C1_4 C 0.6646(7) 0.5932(4) 0.8033(6)
H5_4 H 0.6284 0.6108 0.7867
C2_4 C 0.6866(8) 0.6009(4) 0.8561(6)
H6_4 H 0.6655 0.6236 0.8755
C3_4 C 0.7396(7) 0.5751(5) 0.8804(5)
C4_4 C 0.7705(7) 0.5418(4) 0.8519(6)
H7_4 H 0.8066 0.5242 0.8685
C5_4 C 0.7484(7) 0.5341(4) 0.7991(6)
H8_4 H 0.7695 0.5114 0.7797
C21_4 C 0.7646(11) 0.5858(6) 0.9334(14)
C10_3 C 0.0323(5) 0.9581(3) 0.5921(6)
H12_3 H 0.0760 0.9431 0.6021
C10_4 C 0.9677(5) 0.0419(3) 0.0921(6)
H12_4 H 0.9240 0.0569 0.1021
C10_5 C 0.0323(5) 0.0419(3) 0.4079(6)
H12_5 H 0.0760 0.0569 0.3979
N2_3 N 0.0357(5) 0.9987(3) 0.4158(6)
Cu6_3 Cu 0.12662(13) 0.96636(8) 0.39386(15)
Nd1_5 Nd 0.68555(6) 0.10695(3) 0.45493(6)
I1_5 I 0.20926(7) 0.01846(4) 0.33508(8)
O1_5 O 0.7664(8) 0.1142(5) 0.5366(8)
O2_5 O 0.6792(7) 0.0652(4) 0.5427(6)
O3_5 O 0.7726(7) 0.0450(4) 0.4535(7)
O4_5 O 0.8221(8) 0.1021(5) 0.4238(8)
O5_5 O 0.6177(6) 0.0370(4) 0.4422(7)
O6_5 O 0.5472(8) 0.0930(4) 0.4487(8)
O7_5 O 0.7379(9) 0.1786(5) 0.4510(9)
O8_5 O 0.6307(9) 0.1699(5) 0.4063(9)
O9_5 O 0.6894(14) 0.0943(8) 0.3597(9)
H1_5 H 0.7303 0.0822 0.3516
H2_5 H 0.6529 0.0786 0.3510
O10_5 O 0.6183(12) 0.1515(7) 0.5243(12)
H3_5 H 0.6435 0.1521 0.5533
H4_5 H 0.5755 0.1410 0.5305
N1_3 N 0.8046(7) 0.0599(4) 0.7252(5)
C1_5 C 0.8354(7) 0.0932(4) 0.6967(6)
H5_5 H 0.8716 0.1108 0.7133
C2_5 C 0.8134(8) 0.1009(4) 0.6439(6)
H6_5 H 0.8345 0.1236 0.6245
C3_5 C 0.7604(7) 0.0751(5) 0.6196(5)
C4_5 C 0.7295(7) 0.0418(4) 0.6481(6)
H7_5 H 0.6934 0.0242 0.6315
C5_5 C 0.7516(7) 0.0341(4) 0.7009(6)
H8_5 H 0.7305 0.0114 0.7203
C8_5 C 0.9010(5) 0.0410(3) 0.4293(7)
C9_5 C 0.9649(6) 0.0630(3) 0.4147(7)
H11_5 H 0.9626 0.0926 0.4092
C13_5 C 0.4875(5) 0.0268(3) 0.4349(6)
C14_5 C 0.4171(6) 0.0444(3) 0.4424(6)
H15_5 H 0.4125 0.0728 0.4537
C15_5 C 0.3534(4) 0.0204(4) 0.4334(6)
H16_5 H 0.3053 0.0323 0.4385
N4_3 N 0.6670(7) 0.3270(3) 0.4052(7)
C16_5 C 0.7236(8) 0.3102(4) 0.4369(7)
H17_5 H 0.7588 0.3282 0.4537
C17_5 C 0.7287(8) 0.2670(4) 0.4439(8)
H18_5 H 0.7674 0.2555 0.4655
C18_5 C 0.6772(9) 0.2405(3) 0.4192(9)
C19_5 C 0.6205(9) 0.2574(4) 0.3875(8)
H19_5 H 0.5853 0.2393 0.3707
C20_5 C 0.6154(7) 0.3006(4) 0.3805(7)
H20_5 H 0.5767 0.3121 0.3588
C21_5 C 0.7354(11) 0.0858(6) 0.5666(14)
C22_5 C 0.8266(10) 0.0661(7) 0.4350(9)
C23_5 C 0.5552(10) 0.0560(7) 0.4412(9)
C24_5 C 0.6844(16) 0.1924(7) 0.4240(14)
Cu5_3 Cu 0.81492(17) 0.05902(9) 0.80492(13)
Cu7_3 Cu 0.67187(15) 0.38838(7) 0.38624(14)
I2_5 I 0.30618(8) 0.88857(5) 0.32733(8)
I3_5 I 0.18472(8) 0.92968(4) 0.47942(7)
I4_5 I 0.05507(7) 0.90530(4) 0.32693(7)
Cu1_5 Cu 0.26790(13) 0.94836(9) 0.39377(15)
Cu2_3 Cu 0.18508(17) 0.94098(9) 0.30492(13)
Cu4_3 Cu 0.17187(15) 0.88838(7) 0.38624(14)
C6_5 C 0.9717(6) 0.9767(3) 0.4305(7)
H9_5 H 0.9741 0.9472 0.4359
C7_5 C 0.9044(5) 0.9978(3) 0.4372(7)
H10_5 H 0.8607 0.9828 0.4473
N3_5 N 0.3601(4) 0.9788(4) 0.4168(5)
C11_5 C 0.4305(5) 0.9613(3) 0.4093(5)
H13_5 H 0.4351 0.9329 0.3980
C12_5 C 0.4942(4) 0.9853(3) 0.4183(5)
H14_5 H 0.5423 0.9733 0.4131
N5_3 N 0.1954(7) 0.9401(4) 0.2252(5)
N7_3 N 0.1670(7) 0.8270(3) 0.4052(7)
I2_6 I 0.69382(8) 0.11143(5) 0.82733(8)
I3_6 I 0.81528(8) 0.07032(4) 0.97942(7)
I4_6 I 0.94493(7) 0.09470(4) 0.82693(7)
Cu1_6 Cu 0.73210(13) 0.05164(9) 0.89377(15)
Cu3_3 Cu 0.87338(13) 0.03364(8) 0.89386(15)
Cu4_4 Cu 0.82813(15) 0.11162(7) 0.88624(14)
C6_6 C 0.0283(6) 0.0233(3) 0.9305(7)
H9_6 H 0.0259 0.0528 0.9359
C7_6 C 0.0956(5) 0.0022(3) 0.9372(7)
H10_6 H 0.1393 0.0172 0.9473
N3_6 N 0.6399(4) 0.0212(4) 0.9168(5)
C11_6 C 0.5695(5) 0.0387(3) 0.9093(5)
H13_6 H 0.5649 0.0671 0.8980
C12_6 C 0.5058(4) 0.0147(3) 0.9183(5)
H14_6 H 0.4577 0.0267 0.9131
N6_3 N 0.9643(5) 0.0013(3) 0.9158(6)
N7_4 N 0.8330(7) 0.1730(3) 0.9052(7)
O1_6 O 0.2336(8) 0.8858(5) 0.0366(8)
O2_6 O 0.3208(7) 0.9348(4) 0.0427(6)
O10_6 O 0.3817(12) 0.8485(7) 0.0243(12)
H3_6 H 0.3565 0.8479 0.0533
H4_6 H 0.4245 0.8590 0.0305
C1_6 C 0.1646(7) 0.9068(4) 0.1967(6)
H5_6 H 0.1284 0.8892 0.2133
C2_6 C 0.1866(8) 0.8991(4) 0.1439(6)
H6_6 H 0.1655 0.8764 0.1245
C3_6 C 0.2396(7) 0.9249(5) 0.1196(5)
C4_6 C 0.2705(7) 0.9582(4) 0.1481(6)
H7_6 H 0.3066 0.9758 0.1315
C5_6 C 0.2484(7) 0.9659(4) 0.2009(6)
H8_6 H 0.2695 0.9886 0.2203
C21_6 C 0.2646(11) 0.9142(6) 0.0666(14)
Nd1_6 Nd 0.31445(6) 0.89305(3) 0.95493(6)
I1_6 I 0.79074(7) 0.98154(4) 0.83508(8)
O3_6 O 0.2274(7) 0.9550(4) 0.9535(7)
O4_6 O 0.1779(8) 0.8979(5) 0.9238(8)
O5_6 O 0.3823(6) 0.9630(4) 0.9422(7)
O6_6 O 0.4528(8) 0.9070(4) 0.9487(8)
O7_6 O 0.2621(9) 0.8214(5) 0.9510(9)
O8_6 O 0.3693(9) 0.8301(5) 0.9063(9)
O9_6 O 0.3106(14) 0.9057(8) 0.8597(9)
H1_6 H 0.2697 0.9178 0.8516
H2_6 H 0.3471 0.9214 0.8510
C8_6 C 0.0990(5) 0.9590(3) 0.9293(7)
C9_6 C 0.0351(6) 0.9370(3) 0.9147(7)
H11_6 H 0.0374 0.9074 0.9092
C13_6 C 0.5125(5) 0.9732(3) 0.9349(6)
C14_6 C 0.5829(6) 0.9556(3) 0.9424(6)
H15_6 H 0.5875 0.9272 0.9537
C15_6 C 0.6466(4) 0.9796(4) 0.9334(6)
H16_6 H 0.6947 0.9677 0.9385
N4_4 N 0.3330(7) 0.6730(3) 0.9052(7)
C16_6 C 0.2764(8) 0.6898(4) 0.9369(7)
H17_6 H 0.2412 0.6718 0.9537
C17_6 C 0.2713(8) 0.7330(4) 0.9439(8)
H18_6 H 0.2326 0.7445 0.9655
C18_6 C 0.3228(9) 0.7595(3) 0.9192(9)
C19_6 C 0.3795(9) 0.7426(4) 0.8875(8)
H19_6 H 0.4147 0.7607 0.8707
C20_6 C 0.3846(7) 0.6994(4) 0.8805(7)
H20_6 H 0.4233 0.6879 0.8588
C22_6 C 0.1734(10) 0.9339(7) 0.9350(9)
C23_6 C 0.4448(10) 0.9440(7) 0.9412(9)
C24_6 C 0.3156(16) 0.8076(7) 0.9240(14)
Cu7_4 Cu 0.32813(15) 0.61162(7) 0.88624(14)
Nd1_7 Nd 0.18555(6) 0.60695(3) 0.45493(6)
O1_7 O 0.2664(8) 0.6142(5) 0.5366(8)
O2_7 O 0.1792(7) 0.5652(4) 0.5427(6)
O3_7 O 0.2726(7) 0.5450(4) 0.4535(7)
O4_7 O 0.3221(8) 0.6021(5) 0.4238(8)
O5_7 O 0.1177(6) 0.5370(4) 0.4422(7)
O6_7 O 0.0472(8) 0.5930(4) 0.4487(8)
O7_7 O 0.2379(9) 0.6786(5) 0.4510(9)
O8_7 O 0.1307(9) 0.6699(5) 0.4063(9)
O9_7 O 0.1894(14) 0.5943(8) 0.3597(9)
H1_7 H 0.2303 0.5822 0.3516
H2_7 H 0.1529 0.5786 0.3510
O10_7 O 0.1183(12) 0.6515(7) 0.5243(12)
H3_7 H 0.1435 0.6521 0.5533
H4_7 H 0.0755 0.6410 0.5305
N1_4 N 0.3046(7) 0.5599(4) 0.7252(5)
C1_7 C 0.3354(7) 0.5932(4) 0.6967(6)
H5_7 H 0.3716 0.6108 0.7133
C2_7 C 0.3134(8) 0.6009(4) 0.6439(6)
H6_7 H 0.3345 0.6236 0.6245
C3_7 C 0.2604(7) 0.5751(5) 0.6196(5)
C4_7 C 0.2295(7) 0.5418(4) 0.6481(6)
H7_7 H 0.1934 0.5242 0.6315
C5_7 C 0.2516(7) 0.5341(4) 0.7009(6)
H8_7 H 0.2305 0.5114 0.7203
N2_4 N 0.5357(5) 0.4987(3) 0.4158(6)
C6_7 C 0.4717(6) 0.4767(3) 0.4305(7)
H9_7 H 0.4741 0.4472 0.4359
C7_7 C 0.4044(5) 0.4978(3) 0.4372(7)
H10_7 H 0.3607 0.4828 0.4473
C8_7 C 0.4010(5) 0.5410(3) 0.4293(7)
C9_7 C 0.4649(6) 0.5630(3) 0.4147(7)
H11_7 H 0.4626 0.5926 0.4092
C10_6 C 0.5323(5) 0.5419(3) 0.4079(6)
H12_6 H 0.5760 0.5569 0.3979
H14_7 H 0.0423 0.4733 0.4131
C16_7 C 0.2236(8) 0.8102(4) 0.4369(7)
H17_7 H 0.2588 0.8282 0.4537
C17_7 C 0.2287(8) 0.7670(4) 0.4439(8)
H18_7 H 0.2674 0.7555 0.4655
C18_7 C 0.1772(9) 0.7405(3) 0.4192(9)
C19_7 C 0.1205(9) 0.7574(4) 0.3875(8)
H19_7 H 0.0853 0.7393 0.3707
C20_7 C 0.1154(7) 0.8006(4) 0.3805(7)
H20_7 H 0.0767 0.8121 0.3588
C21_7 C 0.2354(11) 0.5858(6) 0.5666(14)
C22_7 C 0.3266(10) 0.5661(7) 0.4350(9)
C23_7 C 0.0552(10) 0.5560(7) 0.4412(9)
C24_7 C 0.1844(16) 0.6924(7) 0.4240(14)
Cu5_4 Cu 0.31492(17) 0.55902(9) 0.80492(13)
Cu6_4 Cu 0.62662(13) 0.46636(8) 0.39386(15)
I1_7 I 0.70926(7) 0.51846(4) 0.33508(8)
I2_7 I 0.80618(8) 0.38857(5) 0.32733(8)
I3_7 I 0.68472(8) 0.42968(4) 0.47942(7)
I4_7 I 0.55507(7) 0.40530(4) 0.32693(7)
Cu1_7 Cu 0.76790(13) 0.44836(9) 0.39377(15)
Cu2_4 Cu 0.68508(17) 0.44098(9) 0.30492(13)
N3_7 N 0.8601(4) 0.4788(4) 0.4168(5)
C11_7 C 0.9305(5) 0.4613(3) 0.4093(5)
H13_7 H 0.9351 0.4329 0.3980
C12_7 C 0.9942(4) 0.4853(3) 0.4183(5)
C13_7 C 0.9875(5) 0.5268(3) 0.4349(6)
C14_7 C 0.9171(6) 0.5444(3) 0.4424(6)
H15_7 H 0.9125 0.5728 0.4537
C15_7 C 0.8534(4) 0.5204(4) 0.4334(6)
H16_7 H 0.8053 0.5323 0.4385
N5_4 N 0.6954(7) 0.4401(4) 0.2252(5)
I1_8 I 0.29074(7) 0.48154(4) 0.83508(8)
I2_8 I 0.19382(8) 0.61143(5) 0.82733(8)
I3_8 I 0.31528(8) 0.57032(4) 0.97942(7)
I4_8 I 0.44493(7) 0.59470(4) 0.82693(7)
Cu1_8 Cu 0.23210(13) 0.55164(9) 0.89377(15)
Cu3_4 Cu 0.37338(13) 0.53364(8) 0.89386(15)
N3_8 N 0.1399(4) 0.5212(4) 0.9168(5)
C11_8 C 0.0695(5) 0.5387(3) 0.9093(5)
H13_8 H 0.0649 0.5671 0.8980
C12_8 C 0.0058(4) 0.5147(3) 0.9183(5)
C13_8 C 0.0125(5) 0.4732(3) 0.9349(6)
C14_8 C 0.0829(6) 0.4556(3) 0.9424(6)
H15_8 H 0.0875 0.4272 0.9537
C15_8 C 0.1466(4) 0.4796(4) 0.9334(6)
H16_8 H 0.1947 0.4677 0.9385
N6_4 N 0.4643(5) 0.5013(3) 0.9158(6)
O1_8 O 0.7336(8) 0.3858(5) 0.0366(8)
O2_8 O 0.8208(7) 0.4348(4) 0.0427(6)
O10_8 O 0.8817(12) 0.3485(7) 0.0243(12)
H3_8 H 0.8565 0.3479 0.0533
H4_8 H 0.9245 0.3590 0.0305
C1_8 C 0.6646(7) 0.4068(4) 0.1967(6)
H5_8 H 0.6284 0.3892 0.2133
C2_8 C 0.6866(8) 0.3991(4) 0.1439(6)
H6_8 H 0.6655 0.3764 0.1245
C3_8 C 0.7396(7) 0.4249(5) 0.1196(5)
C4_8 C 0.7705(7) 0.4582(4) 0.1481(6)
H7_8 H 0.8066 0.4758 0.1315
C5_8 C 0.7484(7) 0.4659(4) 0.2009(6)
H8_8 H 0.7695 0.4886 0.2203
C21_8 C 0.7646(11) 0.4142(6) 0.0666(14)
Nd1_8 Nd 0.81445(6) 0.39305(3) 0.95493(6)
O3_8 O 0.7274(7) 0.4550(4) 0.9535(7)
O4_8 O 0.6779(8) 0.3979(5) 0.9238(8)
O5_8 O 0.8823(6) 0.4630(4) 0.9422(7)
O6_8 O 0.9528(8) 0.4070(4) 0.9487(8)
O7_8 O 0.7621(9) 0.3214(5) 0.9510(9)
O8_8 O 0.8693(9) 0.3301(5) 0.9063(9)
O9_8 O 0.8106(14) 0.4057(8) 0.8597(9)
H1_8 H 0.7697 0.4178 0.8516
H2_8 H 0.8471 0.4214 0.8510
C6_8 C 0.5283(6) 0.5233(3) 0.9305(7)
H9_8 H 0.5259 0.5528 0.9359
C7_8 C 0.5956(5) 0.5022(3) 0.9372(7)
H10_8 H 0.6393 0.5172 0.9473
C8_8 C 0.5990(5) 0.4590(3) 0.9293(7)
C9_8 C 0.5351(6) 0.4370(3) 0.9147(7)
H11_8 H 0.5374 0.4074 0.9092
C10_7 C 0.4677(5) 0.4581(3) 0.9079(6)
H12_7 H 0.4240 0.4431 0.8979
H14_8 H 0.9577 0.5267 0.9131
C16_8 C 0.7764(8) 0.1898(4) 0.9369(7)
H17_8 H 0.7412 0.1718 0.9537
C17_8 C 0.7713(8) 0.2330(4) 0.9439(8)
H18_8 H 0.7326 0.2445 0.9655
C18_8 C 0.8228(9) 0.2595(3) 0.9192(9)
C19_8 C 0.8795(9) 0.2426(4) 0.8875(8)
H19_8 H 0.9147 0.2607 0.8707
C20_8 C 0.8846(7) 0.1994(4) 0.8805(7)
H20_8 H 0.9233 0.1879 0.8588
C22_8 C 0.6734(10) 0.4339(7) 0.9350(9)
C23_8 C 0.9448(10) 0.4440(7) 0.9412(9)
C24_8 C 0.8156(16) 0.3076(7) 0.9240(14)
C10_8 C 0.9677(5) 0.9581(3) 0.9079(6)
H12_8 H 0.9240 0.9431 0.8979
Na1 Na 0.6928(5) 0.0000 0.5000
Na1_2 Na 0.6928(5) 1.0000 0.5000
Na1_3 Na 0.3072(5) -0.0000 0.0000
Na1_4 Na 0.3072(5) -0.0000 1.0000
Na1_5 Na 0.3072(5) 1.0000 0.0000
Na1_6 Na 0.3072(5) 1.0000 1.0000
Na1_7 Na 0.1928(5) 0.5000 0.5000
Na1_8 Na 0.8072(5) 0.5000 0.0000
Na1_9 Na 0.8072(5) 0.5000 1.0000
Na2 Na 0.4913(16) 0.8496(7) 0.6145(12)
Na2_2 Na 0.5087(16) 0.1504(7) 0.1145(12)
Na2_3 Na 0.4913(16) 0.1504(7) 0.3855(12)
Na2_4 Na 0.5087(16) 0.8496(7) 0.8855(12)
Na2_5 Na 0.9913(16) 0.3496(7) 0.6145(12)
Na2_6 Na 0.0087(16) 0.6504(7) 0.1145(12)
Na2_7 Na 0.9913(16) 0.6504(7) 0.3855(12)
Na2_8 Na 0.0087(16) 0.3496(7) 0.8855(12)
loop_
_geom_bond_atom_site_label_1
_geom_bond_atom_site_label_2
_geom_bond_site_symmetry_1
_geom_bond_site_symmetry_2
Cu6 N2 1_555 1_555
I2 Cu1 1_555 1_555
I3 Cu1 1_555 1_555
I4 Cu2 1_555 1_555
Cu1 N3 1_555 1_555
Cu4 I2 1_555 1_555
C6 H9 1_555 1_555
C7 C6 1_555 1_555
H10 C7 1_555 1_555
N3 C11 1_555 1_555
C11 H13 1_555 1_555
C12 C11 1_555 1_555
H14 C12 1_555 1_555
N5 Cu2 1_555 1_555
N7 Cu4 1_555 1_555
I2 Cu2 1_555 1_555
I3 Cu6 1_555 1_555
I3 Cu4 1_555 1_555
I4 Cu6 1_555 1_555
I4 Cu4 1_555 1_555
Nd1 O1 1_555 1_555
O1 C21 1_555 1_555
O2 Nd1 1_555 1_555
O3 Nd1 1_555 1_555
O4 Nd1 1_555 1_555
O5 Nd1 1_555 1_555
O6 Nd1 1_555 1_555
O7 Nd1 1_555 1_555
O8 Nd1 1_555 1_555
O9 Nd1 1_555 1_555
H1 O9 1_555 1_555
H2 O9 1_555 1_555
O10 Nd1 1_555 1_555
H3 O10 1_555 1_555
H4 O10 1_555 1_555
N1 C1 1_555 1_555
C1 H5 1_555 1_555
C2 C1 1_555 1_555
H6 C2 1_555 1_555
C3 C2 1_555 1_555
C4 C3 1_555 1_555
H7 C4 1_555 1_555
C5 N1 1_555 1_555
H8 C5 1_555 1_555
C9 C8 1_555 1_555
H11 C9 1_555 1_555
C14 C13 1_555 1_555
H15 C14 1_555 1_555
H16 C15 1_555 1_555
N4 C16 1_555 1_555
C16 H17 1_555 1_555
C17 C16 1_555 1_555
H18 C17 1_555 1_555
C18 C17 1_555 1_555
C19 C18 1_555 1_555
H19 C19 1_555 1_555
C20 N4 1_555 1_555
H20 C20 1_555 1_555
C21 O2 1_555 1_555
C22 O3 1_555 1_555
C23 O5 1_555 1_555
C24 O7 1_555 1_555
Cu5 N1 1_555 1_555
Cu7 N4 1_555 1_555
O4 C22 1_555 1_555
O6 C23 1_555 1_555
O8 C24 1_555 1_555
C3 C21 1_555 1_555
C4 C5 1_555 1_555
C8 C22 1_555 1_555
C13 C23 1_555 1_555
C14 C15 1_555 1_555
C18 C24 1_555 1_555
C19 C20 1_555 1_555
O3_2 Nd1_2 1_555 1_555
O4_2 Nd1_2 1_555 1_555
O5_2 Nd1_2 1_555 1_555
O6_2 Nd1_2 1_555 1_555
O7_2 Nd1_2 1_555 1_555
O8_2 Nd1_2 1_555 1_555
O9_2 Nd1_2 1_555 1_555
H1_2 O9_2 1_555 1_555
H2_2 O9_2 1_555 1_555
C9_2 C8_2 1_555 1_555
H11_2 C9_2 1_555 1_555
C14_2 C13_2 1_555 1_555
H15_2 C14_2 1_555 1_555
H16_2 C15_2 1_555 1_555
N4_2 C16_2 1_555 1_555
C16_2 H17_2 1_555 1_555
C17_2 C16_2 1_555 1_555
H18_2 C17_2 1_555 1_555
C18_2 C17_2 1_555 1_555
C19_2 C18_2 1_555 1_555
H19_2 C19_2 1_555 1_555
C20_2 N4_2 1_555 1_555
H20_2 C20_2 1_555 1_555
C22_2 O3_2 1_555 1_555
C23_2 O5_2 1_555 1_555
C24_2 O7_2 1_555 1_555
Cu7_2 N4_2 1_555 1_555
O4_2 C22_2 1_555 1_555
O6_2 C23_2 1_555 1_555
O8_2 C24_2 1_555 1_555
C8_2 C22_2 1_555 1_555
C13_2 C23_2 1_555 1_555
C14_2 C15_2 1_555 1_555
C18_2 C24_2 1_555 1_555
C19_2 C20_2 1_555 1_555
O1_2 C21_2 1_555 1_555
H3_2 O10_2 1_555 1_555
H4_2 O10_2 1_555 1_555
N5 C1_2 1_555 1_555
C1_2 H5_2 1_555 1_555
C2_2 C1_2 1_555 1_555
H6_2 C2_2 1_555 1_555
C3_2 C2_2 1_555 1_555
C4_2 C3_2 1_555 1_555
H7_2 C4_2 1_555 1_555
C5_2 N5 1_555 1_555
H8_2 C5_2 1_555 1_555
C21_2 O2_2 1_555 1_555
C3_2 C21_2 1_555 1_555
C4_2 C5_2 1_555 1_555
I2_2 Cu1_2 1_555 1_555
I3_2 Cu1_2 1_555 1_555
I4_2 Cu5 1_555 1_555
Cu1_2 N3_2 1_555 1_555
Cu4_2 I2_2 1_555 1_555
C6_2 H9_2 1_555 1_555
C7_2 C6_2 1_555 1_555
H10_2 C7_2 1_555 1_555
N3_2 C11_2 1_555 1_555
C11_2 H13_2 1_555 1_555
C12_2 C11_2 1_555 1_555
H14_2 C12_2 1_555 1_555
N6 Cu3 1_555 1_555
N7_2 Cu4_2 1_555 1_555
I2_2 Cu5 1_555 1_555
I3_2 Cu3 1_555 1_555
I3_2 Cu4_2 1_555 1_555
I4_2 Cu3 1_555 1_555
I4_2 Cu4_2 1_555 1_555
Nd1_3 O1_3 1_555 1_555
O1_3 C21_3 1_555 1_555
O2_3 Nd1_3 1_555 1_555
O3_3 Nd1_3 1_555 1_555
O4_3 Nd1_3 1_555 1_555
O5_3 Nd1_3 1_555 1_555
O6_3 Nd1_3 1_555 1_555
O7_3 Nd1_3 1_555 1_555
O8_3 Nd1_3 1_555 1_555
O9_3 Nd1_3 1_555 1_555
H1_3 O9_3 1_555 1_555
H2_3 O9_3 1_555 1_555
O10_3 Nd1_3 1_555 1_555
H3_3 O10_3 1_555 1_555
H4_3 O10_3 1_555 1_555
N1_2 C1_3 1_555 1_555
C1_3 H5_3 1_555 1_555
C2_3 C1_3 1_555 1_555
H6_3 C2_3 1_555 1_555
C3_3 C2_3 1_555 1_555
C4_3 C3_3 1_555 1_555
H7_3 C4_3 1_555 1_555
C5_3 N1_2 1_555 1_555
H8_3 C5_3 1_555 1_555
N2_2 C6_3 1_555 1_555
C6_3 H9_3 1_555 1_555
C7_3 C6_3 1_555 1_555
H10_3 C7_3 1_555 1_555
C8_3 C7_3 1_555 1_555
C9_3 C8_3 1_555 1_555
H11_3 C9_3 1_555 1_555
C10 N2_2 1_555 1_555
H12 C10 1_555 1_555
N7 C16_3 1_555 1_555
C16_3 H17_3 1_555 1_555
C17_3 C16_3 1_555 1_555
H18_3 C17_3 1_555 1_555
C18_3 C17_3 1_555 1_555
C19_3 C18_3 1_555 1_555
H19_3 C19_3 1_555 1_555
C20_3 N7 1_555 1_555
H20_3 C20_3 1_555 1_555
C21_3 O2_3 1_555 1_555
C22_3 O3_3 1_555 1_555
C23_3 O5_3 1_555 1_555
C24_3 O7_3 1_555 1_555
Cu5_2 N1_2 1_555 1_555
Cu6_2 N2_2 1_555 1_555
O4_3 C22_3 1_555 1_555
O6_3 C23_3 1_555 1_555
O8_3 C24_3 1_555 1_555
C3_3 C21_3 1_555 1_555
C4_3 C5_3 1_555 1_555
C8_3 C22_3 1_555 1_555
C9_3 C10 1_555 1_555
C18_3 C24_3 1_555 1_555
C19_3 C20_3 1_555 1_555
I1_3 Cu1_3 1_555 1_555
I2_3 Cu1_3 1_555 1_555
I3_3 Cu1_3 1_555 1_555
I4_3 Cu2_2 1_555 1_555
Cu1_3 N3_3 1_555 1_555
Cu2_2 I1_3 1_555 1_555
Cu6_2 I1_3 1_555 1_555
Cu7 I2_3 1_555 1_555
N3_3 C11_3 1_555 1_555
C11_3 H13_3 1_555 1_555
C12_3 C11_3 1_555 1_555
C13_3 C12_3 1_555 1_555
C14_3 C13_3 1_555 1_555
H15_3 C14_3 1_555 1_555
C15_3 N3_3 1_555 1_555
H16_3 C15_3 1_555 1_555
N5_2 Cu2_2 1_555 1_555
I2_3 Cu2_2 1_555 1_555
I3_3 Cu6_2 1_555 1_555
I3_3 Cu7 1_555 1_555
I4_3 Cu6_2 1_555 1_555
I4_3 Cu7 1_555 1_555
C14_3 C15_3 1_555 1_555
I1_4 Cu1_4 1_555 1_555
I2_4 Cu1_4 1_555 1_555
I3_4 Cu1_4 1_555 1_555
I4_4 Cu5_2 1_555 1_555
Cu1_4 N3_4 1_555 1_555
Cu5_2 I1_4 1_555 1_555
Cu3_2 I1_4 1_555 1_555
Cu7_2 I2_4 1_555 1_555
N3_4 C11_4 1_555 1_555
C11_4 H13_4 1_555 1_555
C12_4 C11_4 1_555 1_555
C13_4 C12_4 1_555 1_555
C14_4 C13_4 1_555 1_555
H15_4 C14_4 1_555 1_555
C15_4 N3_4 1_555 1_555
H16_4 C15_4 1_555 1_555
N6_2 Cu3_2 1_555 1_555
I2_4 Cu5_2 1_555 1_555
I3_4 Cu3_2 1_555 1_555
I3_4 Cu7_2 1_555 1_555
I4_4 Cu3_2 1_555 1_555
I4_4 Cu7_2 1_555 1_555
C14_4 C15_4 1_555 1_555
O3_4 Nd1_4 1_555 1_555
O4_4 Nd1_4 1_555 1_555
O5_4 Nd1_4 1_555 1_555
O6_4 Nd1_4 1_555 1_555
O7_4 Nd1_4 1_555 1_555
O8_4 Nd1_4 1_555 1_555
O9_4 Nd1_4 1_555 1_555
H1_4 O9_4 1_555 1_555
H2_4 O9_4 1_555 1_555
N6_2 C6_4 1_555 1_555
C6_4 H9_4 1_555 1_555
C7_4 C6_4 1_555 1_555
H10_4 C7_4 1_555 1_555
C8_4 C7_4 1_555 1_555
C9_4 C8_4 1_555 1_555
H11_4 C9_4 1_555 1_555
C10_2 N6_2 1_555 1_555
H12_2 C10_2 1_555 1_555
N7_2 C16_4 1_555 1_555
C16_4 H17_4 1_555 1_555
C17_4 C16_4 1_555 1_555
H18_4 C17_4 1_555 1_555
C18_4 C17_4 1_555 1_555
C19_4 C18_4 1_555 1_555
H19_4 C19_4 1_555 1_555
C20_4 N7_2 1_555 1_555
H20_4 C20_4 1_555 1_555
C22_4 O3_4 1_555 1_555
C23_4 O5_4 1_555 1_555
C24_4 O7_4 1_555 1_555
O4_4 C22_4 1_555 1_555
O6_4 C23_4 1_555 1_555
O8_4 C24_4 1_555 1_555
C8_4 C22_4 1_555 1_555
C9_4 C10_2 1_555 1_555
C18_4 C24_4 1_555 1_555
C19_4 C20_4 1_555 1_555
O1_4 C21_4 1_555 1_555
H3_4 O10_4 1_555 1_555
H4_4 O10_4 1_555 1_555
N5_2 C1_4 1_555 1_555
C1_4 H5_4 1_555 1_555
C2_4 C1_4 1_555 1_555
H6_4 C2_4 1_555 1_555
C3_4 C2_4 1_555 1_555
C4_4 C3_4 1_555 1_555
H7_4 C4_4 1_555 1_555
C5_4 N5_2 1_555 1_555
H8_4 C5_4 1_555 1_555
C21_4 O2_4 1_555 1_555
C3_4 C21_4 1_555 1_555
C4_4 C5_4 1_555 1_555
H12_3 C10_3 1_555 1_555
H12_4 C10_4 1_555 1_555
H12_5 C10_5 1_555 1_555
Cu6_3 N2_3 1_555 1_555
Nd1_5 O1_5 1_555 1_555
O1_5 C21_5 1_555 1_555
O2_5 Nd1_5 1_555 1_555
O3_5 Nd1_5 1_555 1_555
O4_5 Nd1_5 1_555 1_555
O5_5 Nd1_5 1_555 1_555
O6_5 Nd1_5 1_555 1_555
O7_5 Nd1_5 1_555 1_555
O8_5 Nd1_5 1_555 1_555
O9_5 Nd1_5 1_555 1_555
H1_5 O9_5 1_555 1_555
H2_5 O9_5 1_555 1_555
O10_5 Nd1_5 1_555 1_555
H3_5 O10_5 1_555 1_555
H4_5 O10_5 1_555 1_555
N1_3 C1_5 1_555 1_555
C1_5 H5_5 1_555 1_555
C2_5 C1_5 1_555 1_555
H6_5 C2_5 1_555 1_555
C3_5 C2_5 1_555 1_555
C4_5 C3_5 1_555 1_555
H7_5 C4_5 1_555 1_555
C5_5 N1_3 1_555 1_555
H8_5 C5_5 1_555 1_555
C9_5 C8_5 1_555 1_555
H11_5 C9_5 1_555 1_555
C14_5 C13_5 1_555 1_555
H15_5 C14_5 1_555 1_555
H16_5 C15_5 1_555 1_555
N4_3 C16_5 1_555 1_555
C16_5 H17_5 1_555 1_555
C17_5 C16_5 1_555 1_555
H18_5 C17_5 1_555 1_555
C18_5 C17_5 1_555 1_555
C19_5 C18_5 1_555 1_555
H19_5 C19_5 1_555 1_555
C20_5 N4_3 1_555 1_555
H20_5 C20_5 1_555 1_555
C21_5 O2_5 1_555 1_555
C22_5 O3_5 1_555 1_555
C23_5 O5_5 1_555 1_555
C24_5 O7_5 1_555 1_555
Cu5_3 N1_3 1_555 1_555
Cu7_3 N4_3 1_555 1_555
O4_5 C22_5 1_555 1_555
O6_5 C23_5 1_555 1_555
O8_5 C24_5 1_555 1_555
C3_5 C21_5 1_555 1_555
C4_5 C5_5 1_555 1_555
C8_5 C22_5 1_555 1_555
C13_5 C23_5 1_555 1_555
C14_5 C15_5 1_555 1_555
C18_5 C24_5 1_555 1_555
C19_5 C20_5 1_555 1_555
I2_5 Cu1_5 1_555 1_555
I3_5 Cu1_5 1_555 1_555
I4_5 Cu2_3 1_555 1_555
Cu1_5 N3_5 1_555 1_555
Cu4_3 I2_5 1_555 1_555
C6_5 H9_5 1_555 1_555
C7_5 C6_5 1_555 1_555
H10_5 C7_5 1_555 1_555
N3_5 C11_5 1_555 1_555
C11_5 H13_5 1_555 1_555
C12_5 C11_5 1_555 1_555
H14_5 C12_5 1_555 1_555
N5_3 Cu2_3 1_555 1_555
N7_3 Cu4_3 1_555 1_555
I2_5 Cu2_3 1_555 1_555
I3_5 Cu6_3 1_555 1_555
I3_5 Cu4_3 1_555 1_555
I4_5 Cu6_3 1_555 1_555
I4_5 Cu4_3 1_555 1_555
I2_6 Cu1_6 1_555 1_555
I3_6 Cu1_6 1_555 1_555
I4_6 Cu5_3 1_555 1_555
Cu1_6 N3_6 1_555 1_555
Cu4_4 I2_6 1_555 1_555
C6_6 H9_6 1_555 1_555
C7_6 C6_6 1_555 1_555
H10_6 C7_6 1_555 1_555
N3_6 C11_6 1_555 1_555
C11_6 H13_6 1_555 1_555
C12_6 C11_6 1_555 1_555
H14_6 C12_6 1_555 1_555
N6_3 Cu3_3 1_555 1_555
N7_4 Cu4_4 1_555 1_555
I2_6 Cu5_3 1_555 1_555
I3_6 Cu3_3 1_555 1_555
I3_6 Cu4_4 1_555 1_555
I4_6 Cu3_3 1_555 1_555
I4_6 Cu4_4 1_555 1_555
O1_6 C21_6 1_555 1_555
H3_6 O10_6 1_555 1_555
H4_6 O10_6 1_555 1_555
N5_3 C1_6 1_555 1_555
C1_6 H5_6 1_555 1_555
C2_6 C1_6 1_555 1_555
H6_6 C2_6 1_555 1_555
C3_6 C2_6 1_555 1_555
C4_6 C3_6 1_555 1_555
H7_6 C4_6 1_555 1_555
C5_6 N5_3 1_555 1_555
H8_6 C5_6 1_555 1_555
C21_6 O2_6 1_555 1_555
C3_6 C21_6 1_555 1_555
C4_6 C5_6 1_555 1_555
O3_6 Nd1_6 1_555 1_555
O4_6 Nd1_6 1_555 1_555
O5_6 Nd1_6 1_555 1_555
O6_6 Nd1_6 1_555 1_555
O7_6 Nd1_6 1_555 1_555
O8_6 Nd1_6 1_555 1_555
O9_6 Nd1_6 1_555 1_555
H1_6 O9_6 1_555 1_555
H2_6 O9_6 1_555 1_555
C9_6 C8_6 1_555 1_555
H11_6 C9_6 1_555 1_555
C14_6 C13_6 1_555 1_555
H15_6 C14_6 1_555 1_555
H16_6 C15_6 1_555 1_555
N4_4 C16_6 1_555 1_555
C16_6 H17_6 1_555 1_555
C17_6 C16_6 1_555 1_555
H18_6 C17_6 1_555 1_555
C18_6 C17_6 1_555 1_555
C19_6 C18_6 1_555 1_555
H19_6 C19_6 1_555 1_555
C20_6 N4_4 1_555 1_555
H20_6 C20_6 1_555 1_555
C22_6 O3_6 1_555 1_555
C23_6 O5_6 1_555 1_555
C24_6 O7_6 1_555 1_555
Cu7_4 N4_4 1_555 1_555
O4_6 C22_6 1_555 1_555
O6_6 C23_6 1_555 1_555
O8_6 C24_6 1_555 1_555
C8_6 C22_6 1_555 1_555
C13_6 C23_6 1_555 1_555
C14_6 C15_6 1_555 1_555
C18_6 C24_6 1_555 1_555
C19_6 C20_6 1_555 1_555
Nd1_7 O1_7 1_555 1_555
O1_7 C21_7 1_555 1_555
O2_7 Nd1_7 1_555 1_555
O3_7 Nd1_7 1_555 1_555
O4_7 Nd1_7 1_555 1_555
O5_7 Nd1_7 1_555 1_555
O6_7 Nd1_7 1_555 1_555
O7_7 Nd1_7 1_555 1_555
O8_7 Nd1_7 1_555 1_555
O9_7 Nd1_7 1_555 1_555
H1_7 O9_7 1_555 1_555
H2_7 O9_7 1_555 1_555
O10_7 Nd1_7 1_555 1_555
H3_7 O10_7 1_555 1_555
H4_7 O10_7 1_555 1_555
N1_4 C1_7 1_555 1_555
C1_7 H5_7 1_555 1_555
C2_7 C1_7 1_555 1_555
H6_7 C2_7 1_555 1_555
C3_7 C2_7 1_555 1_555
C4_7 C3_7 1_555 1_555
H7_7 C4_7 1_555 1_555
C5_7 N1_4 1_555 1_555
H8_7 C5_7 1_555 1_555
N2_4 C6_7 1_555 1_555
C6_7 H9_7 1_555 1_555
C7_7 C6_7 1_555 1_555
H10_7 C7_7 1_555 1_555
C8_7 C7_7 1_555 1_555
C9_7 C8_7 1_555 1_555
H11_7 C9_7 1_555 1_555
C10_6 N2_4 1_555 1_555
H12_6 C10_6 1_555 1_555
N7_3 C16_7 1_555 1_555
C16_7 H17_7 1_555 1_555
C17_7 C16_7 1_555 1_555
H18_7 C17_7 1_555 1_555
C18_7 C17_7 1_555 1_555
C19_7 C18_7 1_555 1_555
H19_7 C19_7 1_555 1_555
C20_7 N7_3 1_555 1_555
H20_7 C20_7 1_555 1_555
C21_7 O2_7 1_555 1_555
C22_7 O3_7 1_555 1_555
C23_7 O5_7 1_555 1_555
C24_7 O7_7 1_555 1_555
Cu5_4 N1_4 1_555 1_555
Cu6_4 N2_4 1_555 1_555
O4_7 C22_7 1_555 1_555
O6_7 C23_7 1_555 1_555
O8_7 C24_7 1_555 1_555
C3_7 C21_7 1_555 1_555
C4_7 C5_7 1_555 1_555
C8_7 C22_7 1_555 1_555
C9_7 C10_6 1_555 1_555
C18_7 C24_7 1_555 1_555
C19_7 C20_7 1_555 1_555
I1_7 Cu1_7 1_555 1_555
I2_7 Cu1_7 1_555 1_555
I3_7 Cu1_7 1_555 1_555
I4_7 Cu2_4 1_555 1_555
Cu1_7 N3_7 1_555 1_555
Cu2_4 I1_7 1_555 1_555
Cu6_4 I1_7 1_555 1_555
Cu7_3 I2_7 1_555 1_555
N3_7 C11_7 1_555 1_555
C11_7 H13_7 1_555 1_555
C12_7 C11_7 1_555 1_555
C13_7 C12_7 1_555 1_555
C14_7 C13_7 1_555 1_555
H15_7 C14_7 1_555 1_555
C15_7 N3_7 1_555 1_555
H16_7 C15_7 1_555 1_555
N5_4 Cu2_4 1_555 1_555
I2_7 Cu2_4 1_555 1_555
I3_7 Cu6_4 1_555 1_555
I3_7 Cu7_3 1_555 1_555
I4_7 Cu6_4 1_555 1_555
I4_7 Cu7_3 1_555 1_555
C14_7 C15_7 1_555 1_555
I1_8 Cu1_8 1_555 1_555
I2_8 Cu1_8 1_555 1_555
I3_8 Cu1_8 1_555 1_555
I4_8 Cu5_4 1_555 1_555
Cu1_8 N3_8 1_555 1_555
Cu5_4 I1_8 1_555 1_555
Cu3_4 I1_8 1_555 1_555
Cu7_4 I2_8 1_555 1_555
N3_8 C11_8 1_555 1_555
C11_8 H13_8 1_555 1_555
C12_8 C11_8 1_555 1_555
C13_8 C12_8 1_555 1_555
C14_8 C13_8 1_555 1_555
H15_8 C14_8 1_555 1_555
C15_8 N3_8 1_555 1_555
H16_8 C15_8 1_555 1_555
N6_4 Cu3_4 1_555 1_555
I2_8 Cu5_4 1_555 1_555
I3_8 Cu3_4 1_555 1_555
I3_8 Cu7_4 1_555 1_555
I4_8 Cu3_4 1_555 1_555
I4_8 Cu7_4 1_555 1_555
C14_8 C15_8 1_555 1_555
O1_8 C21_8 1_555 1_555
H3_8 O10_8 1_555 1_555
H4_8 O10_8 1_555 1_555
N5_4 C1_8 1_555 1_555
C1_8 H5_8 1_555 1_555
C2_8 C1_8 1_555 1_555
H6_8 C2_8 1_555 1_555
C3_8 C2_8 1_555 1_555
C4_8 C3_8 1_555 1_555
H7_8 C4_8 1_555 1_555
C5_8 N5_4 1_555 1_555
H8_8 C5_8 1_555 1_555
C21_8 O2_8 1_555 1_555
C3_8 C21_8 1_555 1_555
C4_8 C5_8 1_555 1_555
O3_8 Nd1_8 1_555 1_555
O4_8 Nd1_8 1_555 1_555
O5_8 Nd1_8 1_555 1_555
O6_8 Nd1_8 1_555 1_555
O7_8 Nd1_8 1_555 1_555
O8_8 Nd1_8 1_555 1_555
O9_8 Nd1_8 1_555 1_555
H1_8 O9_8 1_555 1_555
H2_8 O9_8 1_555 1_555
N6_4 C6_8 1_555 1_555
C6_8 H9_8 1_555 1_555
C7_8 C6_8 1_555 1_555
H10_8 C7_8 1_555 1_555
C8_8 C7_8 1_555 1_555
C9_8 C8_8 1_555 1_555
H11_8 C9_8 1_555 1_555
C10_7 N6_4 1_555 1_555
H12_7 C10_7 1_555 1_555
N7_4 C16_8 1_555 1_555
C16_8 H17_8 1_555 1_555
C17_8 C16_8 1_555 1_555
H18_8 C17_8 1_555 1_555
C18_8 C17_8 1_555 1_555
C19_8 C18_8 1_555 1_555
H19_8 C19_8 1_555 1_555
C20_8 N7_4 1_555 1_555
H20_8 C20_8 1_555 1_555
C22_8 O3_8 1_555 1_555
C23_8 O5_8 1_555 1_555
C24_8 O7_8 1_555 1_555
O4_8 C22_8 1_555 1_555
O6_8 C23_8 1_555 1_555
O8_8 C24_8 1_555 1_555
C8_8 C22_8 1_555 1_555
C9_8 C10_7 1_555 1_555
C18_8 C24_8 1_555 1_555
C19_8 C20_8 1_555 1_555
H12_8 C10_8 1_555 1_555

#END
