
###############################################################################
#
# This file contains modified crystal structure data generated from the
# MOF subset of the Cambridge Structural Database (CSD) v543 
# hosted by the Cambridge Crystallographic Data Centre (CCDC).
#
# This work is licensed under the Creative Commons
# Attribution-NonCommercial-ShareAlike 4.0 International License.
# To view a copy of this license, visit
# http://creativecommons.org/licenses/by-nc-sa/4.0/
# or send a letter to
# Creative Commons, PO Box 1866, Mountain View, CA 94042, USA.
#
# CIF created using the CSD Python API on 29 September 2022
# The structure has been converted into the P1 space group
# The structure has a 3D framework
# The original CSD entry ETUWEW is in the monoclinic crystal system
# The framework has been calculated to contain at least 10.0% void space
# The void calculation uses a probe of radius 1.32A, grid spacing 0.4
# The framework is charged, counterions have been retained in the structure
#
###############################################################################

data_ETUWEW
_chemical_formula_moiety         '(C24 H40 N4 O30 Sm4 2+)n'
_symmetry_cell_setting           triclinic
_symmetry_space_group_name_H-M   'P 1'
_symmetry_Int_Tables_number      1
_space_group_name_Hall           'P 1'
loop_
_symmetry_equiv_pos_site_id
_symmetry_equiv_pos_as_xyz
1 x,y,z
_cell_length_a                   9.6711(3)
_cell_length_b                   11.7849(3)
_cell_length_c                   14.3863(4)
_cell_angle_alpha                90
_cell_angle_beta                 122.276(2)
_cell_angle_gamma                90
_cell_volume                     1386.3
loop_
_atom_site_label
_atom_site_type_symbol
_atom_site_fract_x
_atom_site_fract_y
_atom_site_fract_z
O8 O 0.1585(3) 0.0124(2) 0.4772(2)
Sm5 Sm 0.38320(2) 0.016418(14) 0.669636(15)
O20 O 0.1088(3) 0.0153(2) 0.6428(2)
C4 C 0.0168(4) 0.9999(3) 0.4541(3)
H1 H 0.608(6) 0.033(2) 0.121(3)
Sm2 Sm 0.38320(2) 0.483582(14) 0.169636(15)
O10 O 0.2964(3) 0.2832(2) 0.1565(2)
O11 O 0.3844(3) 0.1045(2) 0.1986(2)
O12 O 0.6156(3) 0.6045(2) 0.3014(2)
O13 O 0.6937(3) 0.1799(2) 0.3268(2)
O14 O 0.3063(3) 0.6799(2) 0.1732(2)
O15 O 0.6022(3) 0.3576(2) 0.2953(2)
O16 O 0.4828(3) 0.1183(2) 0.5657(2)
O17 O 0.4828(3) 0.3817(2) 0.0657(2)
O18 O 0.5330(4) 0.1081(2) 0.4324(3)
O19 O 0.4670(4) 0.6081(2) 0.0676(3)
O21 O 0.1088(3) 0.4847(2) 0.1428(2)
O24 O 0.3916(4) 0.4755(3) 0.3470(2)
H3 H 0.392(6) 0.533(2) 0.379(3)
H4 H 0.456(5) 0.432(3) 0.397(3)
C5 C 0.4042(4) 0.2095(3) 0.2051(3)
C6 C 0.5828(4) 0.2536(3) 0.2827(3)
C7 C 0.5050(4) 0.0652(3) 0.4996(3)
C8 C 0.9832(4) 0.0001(3) 0.5459(3)
O23 O 0.1585(3) 0.4876(2) 0.9772(2)
Sm1 Sm 0.61680(2) 0.983582(14) 0.330364(15)
O1 O 0.7036(3) 0.7832(2) 0.3435(2)
O4 O 0.3978(3) 0.8576(2) 0.2047(2)
O5 O 0.5172(3) 0.8817(2) 0.4343(2)
O6 O 0.4670(4) 0.8919(2) 0.5676(3)
O7 O 0.8912(3) 0.9847(2) 0.3572(2)
O9 O 0.6084(4) 0.9755(3) 0.1530(2)
H2 H 0.544(5) 0.932(3) 0.103(3)
C1 C 0.5958(4) 0.7095(3) 0.2949(3)
C2 C 0.4172(4) 0.7536(3) 0.2173(3)
C3 C 0.4950(4) 0.9348(3) 0.5004(3)
O22 O 0.8415(3) 0.9876(2) 0.5228(2)
C7_2 C 0.4950(4) 0.5652(3) 0.0004(3)
O6_2 O 0.5330(4) 0.3919(2) 0.9324(3)
C3_2 C 0.5050(4) 0.4348(3) 0.9996(3)
Sm4 Sm 0.61680(2) 0.516418(14) 0.830364(15)
O16_2 O 0.5172(3) 0.6183(2) 0.9343(2)
C8_2 C 0.0168(4) 0.5001(3) 0.9541(3)
O8_2 O 0.8415(3) 0.5124(2) 0.0228(2)
C4_2 C 0.9832(4) 0.4999(3) 0.0459(3)
O20_2 O 0.8912(3) 0.5153(2) 0.8572(2)
O1_2 O 0.2964(3) 0.2168(2) 0.6565(2)
O2 O 0.3844(3) 0.3955(2) 0.6986(2)
O3 O 0.6937(3) 0.3201(2) 0.8268(2)
O4_2 O 0.6022(3) 0.1424(2) 0.7953(2)
O9_2 O 0.3916(4) 0.0245(3) 0.8470(2)
H2_2 H 0.456(5) 0.068(3) 0.897(3)
C1_2 C 0.4042(4) 0.2905(3) 0.7051(3)
C2_2 C 0.5828(4) 0.2464(3) 0.7827(3)
H1_2 H 0.392(6) 0.967(2) 0.879(3)
O10_2 O 0.7036(3) 0.7168(2) 0.8435(2)
O11_2 O 0.6156(3) 0.8955(2) 0.8014(2)
O13_2 O 0.3063(3) 0.8201(2) 0.6732(2)
O15_2 O 0.3978(3) 0.6424(2) 0.7047(2)
O24_2 O 0.6084(4) 0.5245(3) 0.6530(2)
H3_2 H 0.608(6) 0.467(2) 0.621(3)
H4_2 H 0.544(5) 0.568(3) 0.603(3)
C5_2 C 0.5958(4) 0.7905(3) 0.7949(3)
C6_2 C 0.4172(4) 0.7464(3) 0.7173(3)
C9 C 0.1056(7) 0.6231(7) 0.7555(5)
H7 H 0.1392 0.5450 0.7687
H8 H 0.1514 0.6621 0.8243
H9 H 0.1433 0.6579 0.7126
N1 N 0.9284(5) 0.6293(4) 0.6960(3)
H5 H 0.8867 0.5890 0.6334
H6 H 0.8947 0.5962 0.7369
C10 C 0.8628(9) 0.7443(6) 0.6685(6)
H10 H 0.7455 0.7414 0.6256
H11 H 0.9012 0.7813 0.6269
H12 H 0.8987 0.7861 0.7349
N1_2 N 0.0716(5) 0.1293(4) 0.8040(3)
H5_2 H 0.1133 0.0890 0.8666
H6_2 H 0.1053 0.0962 0.7631
C10_2 C 0.1372(9) 0.2443(6) 0.8315(6)
H10_2 H 0.2545 0.2414 0.8744
H11_2 H 0.0988 0.2813 0.8731
H12_2 H 0.1013 0.2861 0.7651
C9_2 C 0.8944(7) 0.1231(7) 0.7445(5)
H7_2 H 0.8608 0.0450 0.7313
H8_2 H 0.8486 0.1621 0.6757
H9_2 H 0.8567 0.1579 0.7874
N1_3 N 0.0716(5) 0.3707(4) 0.3040(3)
H5_3 H 0.1133 0.4110 0.3666
H6_3 H 0.1053 0.4038 0.2631
C10_3 C 0.1372(9) 0.2557(6) 0.3315(6)
H10_3 H 0.2545 0.2586 0.3744
H11_3 H 0.0988 0.2187 0.3731
H12_3 H 0.1013 0.2139 0.2651
C9_3 C 0.8944(7) 0.3769(7) 0.2445(5)
H7_3 H 0.8608 0.4550 0.2313
H8_3 H 0.8486 0.3379 0.1757
H9_3 H 0.8567 0.3421 0.2874
C9_4 C 0.1056(7) 0.8769(7) 0.2555(5)
H7_4 H 0.1392 0.9550 0.2687
H8_4 H 0.1514 0.8379 0.3243
H9_4 H 0.1433 0.8421 0.2126
N1_4 N 0.9284(5) 0.8707(4) 0.1960(3)
H5_4 H 0.8867 0.9110 0.1334
H6_4 H 0.8947 0.9038 0.2369
C10_4 C 0.8628(9) 0.7557(6) 0.1685(6)
H10_4 H 0.7455 0.7586 0.1256
H11_4 H 0.9012 0.7187 0.1269
H12_4 H 0.8987 0.7139 0.2349
loop_
_geom_bond_atom_site_label_1
_geom_bond_atom_site_label_2
_geom_bond_site_symmetry_1
_geom_bond_site_symmetry_2
Sm5 O8 1_555 1_555
O20 Sm5 1_555 1_555
Sm2 O10 1_555 1_555
O10 C5 1_555 1_555
O12 Sm2 1_555 1_555
O14 Sm2 1_555 1_555
O15 Sm2 1_555 1_555
O16 Sm5 1_555 1_555
O17 Sm2 1_555 1_555
O19 Sm2 1_555 1_555
O21 Sm2 1_555 1_555
O24 Sm2 1_555 1_555
H3 O24 1_555 1_555
H4 O24 1_555 1_555
C5 O11 1_555 1_555
C6 O13 1_555 1_555
O15 C6 1_555 1_555
O16 C7 1_555 1_555
O18 C7 1_555 1_555
C5 C6 1_555 1_555
Sm1 O1 1_555 1_555
O1 C1 1_555 1_555
O12 C1 1_555 1_555
O14 C2 1_555 1_555
O4 Sm1 1_555 1_555
O5 Sm1 1_555 1_555
O6 C3 1_555 1_555
O7 Sm1 1_555 1_555
O9 Sm1 1_555 1_555
H2 O9 1_555 1_555
C1 C2 1_555 1_555
C2 O4 1_555 1_555
C3 O5 1_555 1_555
O22 Sm1 1_555 1_555
O19 C7_2 1_555 1_555
O6_2 C3_2 1_555 1_555
Sm4 O6_2 1_555 1_555
O16_2 Sm4 1_555 1_555
O23 C8_2 1_555 1_555
O8_2 C4_2 1_555 1_555
O20_2 Sm4 1_555 1_555
Sm5 O1_2 1_555 1_555
O1_2 C1_2 1_555 1_555
O2 C1_2 1_555 1_555
O3 C2_2 1_555 1_555
O4_2 Sm5 1_555 1_555
O9_2 Sm5 1_555 1_555
H2_2 O9_2 1_555 1_555
C1_2 C2_2 1_555 1_555
C2_2 O4_2 1_555 1_555
Sm4 O2 1_555 1_555
O3 Sm4 1_555 1_555
Sm4 O10_2 1_555 1_555
O10_2 C5_2 1_555 1_555
O15_2 Sm4 1_555 1_555
O24_2 Sm4 1_555 1_555
H3_2 O24_2 1_555 1_555
H4_2 O24_2 1_555 1_555
C5_2 O11_2 1_555 1_555
C6_2 O13_2 1_555 1_555
O15_2 C6_2 1_555 1_555
C5_2 C6_2 1_555 1_555
H7 C9 1_555 1_555
H8 C9 1_555 1_555
H9 C9 1_555 1_555
N1 H5 1_555 1_555
H6 N1 1_555 1_555
C10 N1 1_555 1_555
H10 C10 1_555 1_555
H11 C10 1_555 1_555
H12 C10 1_555 1_555
N1_2 H5_2 1_555 1_555
H6_2 N1_2 1_555 1_555
C10_2 N1_2 1_555 1_555
H10_2 C10_2 1_555 1_555
H11_2 C10_2 1_555 1_555
H12_2 C10_2 1_555 1_555
H7_2 C9_2 1_555 1_555
H8_2 C9_2 1_555 1_555
H9_2 C9_2 1_555 1_555
N1_3 H5_3 1_555 1_555
H6_3 N1_3 1_555 1_555
C10_3 N1_3 1_555 1_555
H10_3 C10_3 1_555 1_555
H11_3 C10_3 1_555 1_555
H12_3 C10_3 1_555 1_555
H7_3 C9_3 1_555 1_555
H8_3 C9_3 1_555 1_555
H9_3 C9_3 1_555 1_555
H7_4 C9_4 1_555 1_555
H8_4 C9_4 1_555 1_555
H9_4 C9_4 1_555 1_555
N1_4 H5_4 1_555 1_555
H6_4 N1_4 1_555 1_555
C10_4 N1_4 1_555 1_555
H10_4 C10_4 1_555 1_555
H11_4 C10_4 1_555 1_555
H12_4 C10_4 1_555 1_555

#END
