
###############################################################################
#
# This file contains modified crystal structure data generated from the
# MOF subset of the Cambridge Structural Database (CSD) v543 
# hosted by the Cambridge Crystallographic Data Centre (CCDC).
#
# This work is licensed under the Creative Commons
# Attribution-NonCommercial-ShareAlike 4.0 International License.
# To view a copy of this license, visit
# http://creativecommons.org/licenses/by-nc-sa/4.0/
# or send a letter to
# Creative Commons, PO Box 1866, Mountain View, CA 94042, USA.
#
# CIF created using the CSD Python API on 29 September 2022
# The structure has been converted into the P1 space group
# The structure has a 3D framework
# The original CSD entry ETUWOG is in the triclinic crystal system
# The framework has been calculated to contain at least 10.0% void space
# The void calculation uses a probe of radius 1.32A, grid spacing 0.4
#
###############################################################################

data_ETUWOG
_chemical_formula_moiety         '(C48 H28 Co8 O24)n'
_symmetry_cell_setting           triclinic
_symmetry_space_group_name_H-M   'P 1'
_symmetry_Int_Tables_number      1
_space_group_name_Hall           'P 1'
loop_
_symmetry_equiv_pos_site_id
_symmetry_equiv_pos_as_xyz
1 x,y,z
_cell_length_a                   9.8456(11)
_cell_length_b                   12.0753(15)
_cell_length_c                   13.0039(16)
_cell_angle_alpha                91.842(2)
_cell_angle_beta                 100.9250(10)
_cell_angle_gamma                101.7450(10)
_cell_volume                     1482.19
loop_
_atom_site_label
_atom_site_type_symbol
_atom_site_fract_x
_atom_site_fract_y
_atom_site_fract_z
Co15 Co 0.0000 0.0000 -0.0000
Co15_2 Co 0.0000 0.0000 1.0000
Co15_3 Co -0.0000 1.0000 -0.0000
Co15_4 Co -0.0000 1.0000 1.0000
O8 O 0.0366(3) 0.1244(3) 0.2642(2)
Co10 Co 0.15981(5) 0.21536(4) 0.17863(4)
O33 O 0.2079(3) 0.0796(2) 0.0968(2)
C21 C 0.3134(4) 0.1321(4) 0.0668(4)
C23 C 0.4218(5) 0.0740(3) 0.0374(3)
O4 O 0.0326(3) 0.2841(2) 0.0748(2)
O12 O 0.3470(3) 0.2378(3) 0.0664(2)
Co15_5 Co 1.0000 0.0000 -0.0000
O15 O 0.3169(3) 0.3722(3) 0.2463(2)
C22 C 0.5397(5) 0.1132(4) 0.9919(3)
H11 H 0.5718 0.1927 0.9901
C48 C 0.6091(5) 0.0434(4) 0.9507(4)
H26 H 0.6801 0.0738 0.9129
Co15_6 Co 1.0000 0.0000 1.0000
O20 O 0.0300(3) 0.8510(2) 0.0585(2)
O25 O 0.0972(3) 0.9799(2) 0.8783(2)
C24 C 0.3909(5) 0.9566(4) 0.0493(4)
H12 H 0.3199 0.9262 0.0871
C46 C 0.4603(5) 0.8868(4) 0.0081(3)
H25 H 0.4282 0.8073 0.0099
Co15_7 Co 1.0000 1.0000 -0.0000
C45 C 0.6866(4) 0.8679(4) 0.9332(4)
C47 C 0.5782(5) 0.9260(3) 0.9626(3)
Co11 Co 0.84019(5) 0.78464(4) 0.82137(4)
Co15_8 Co 1.0000 1.0000 1.0000
O32 O 0.7921(3) 0.9204(2) 0.9032(2)
O36 O 0.6530(3) 0.7622(3) 0.9336(2)
C13 C 0.8770(5) 0.0004(4) 0.3927(4)
H7 H 0.9324 0.0721 0.4222
C16 C 0.9373(4) 0.0442(4) 0.2203(3)
O7 O 0.9028(3) 0.0201(2) 0.1217(2)
O19 O 0.9700(3) 0.1490(2) 0.9415(2)
H3 H 0.9157 0.4461 0.0315
C1 C 0.7655(4) 0.4662(3) 0.7910(3)
C2 C 0.7907(5) 0.3680(4) 0.7456(4)
H1 H 0.7628 0.3508 0.6719
C3 C 0.8574(5) 0.2946(4) 0.8090(4)
H2 H 0.8717 0.2262 0.7790
C4 C 0.9021(5) 0.3234(3) 0.9161(3)
C5 C 0.8818(5) 0.4247(4) 0.9588(4)
C6 C 0.8129(5) 0.4934(4) 0.8958(3)
H4 H 0.7980 0.5615 0.9261
C7 C 0.6950(5) 0.5449(4) 0.7247(4)
C8 C 0.9731(5) 0.2503(3) 0.9811(4)
C9 C 0.7203(4) 0.8267(3) 0.4169(3)
C10 C 0.6962(5) 0.7946(4) 0.3063(4)
H5 H 0.6323 0.7266 0.2758
C11 C 0.7716(5) 0.8688(4) 0.2457(4)
H6 H 0.7599 0.8486 0.1728
C12 C 0.8616(5) 0.9694(3) 0.2872(3)
C14 C 0.8078(5) 0.9223(4) 0.4566(3)
H8 H 0.8257 0.9401 0.5302
C15 C 0.6447(4) 0.7483(3) 0.4814(3)
C17 C 0.2859(4) 0.6297(4) 0.5711(3)
C18 C 0.1060(5) 0.4418(4) 0.5392(4)
H9 H 0.1803 0.4042 0.5644
C19 C 0.1364(4) 0.5612(4) 0.5314(3)
C20 C 0.0241(4) 0.6157(4) 0.4882(3)
H10 H 0.0448 0.6948 0.4795
Co1 Co 0.53756(6) 0.71571(5) 0.67841(4)
Co2 Co 0.5000 0.5000 0.5000
O1 O 0.6831(3) 0.6278(3) 0.7537(2)
O2 O 0.6588(3) 0.5129(3) 0.6183(2)
O5 O 0.6481(3) 0.7837(3) 0.5886(3)
O6 O 0.5728(3) 0.6495(2) 0.4424(2)
O9 O 0.3832(3) 0.5818(2) 0.6010(2)
O10 O 0.3048(3) 0.7359(3) 0.5713(3)
O13 O 0.4003(3) 0.7587(3) 0.7928(3)
H13 H 0.3246 0.7899 0.7555
H14 H 0.4577 0.8130 0.8474
C25 C 0.2345(4) 0.5338(3) 0.2090(3)
C26 C 0.2093(5) 0.6320(4) 0.2544(4)
H15 H 0.2372 0.6492 0.3281
C27 C 0.1426(5) 0.7054(4) 0.1910(4)
H16 H 0.1283 0.7738 0.2210
C28 C 0.0979(5) 0.6766(3) 0.0839(3)
C29 C 0.1182(5) 0.5753(4) 0.0412(4)
C30 C 0.1871(5) 0.5066(4) 0.1042(3)
H18 H 0.2020 0.4385 0.0739
C31 C 0.3050(5) 0.4551(4) 0.2753(4)
C32 C 0.0269(5) 0.7497(3) 0.0189(4)
C33 C 0.2797(4) 0.1733(3) 0.5831(3)
C34 C 0.3038(5) 0.2054(4) 0.6937(4)
H19 H 0.3677 0.2734 0.7242
C35 C 0.2284(5) 0.1312(4) 0.7543(4)
H20 H 0.2401 0.1514 0.8272
C36 C 0.1384(5) 0.0306(3) 0.7128(3)
C38 C 0.1922(5) 0.0777(4) 0.5434(3)
H22 H 0.1743 0.0599 0.4698
C39 C 0.3553(4) 0.2517(3) 0.5186(3)
Co5 Co 0.46244(6) 0.28429(5) 0.32159(4)
O17 O 0.3412(3) 0.4871(3) 0.3817(2)
O22 O 0.3519(3) 0.2163(3) 0.4114(3)
O23 O 0.4272(3) 0.3505(2) 0.5576(2)
O30 O 0.6168(3) 0.4182(2) 0.3990(2)
O37 O 0.5997(3) 0.2413(3) 0.2072(3)
H27 H 0.6754 0.2101 0.2445
H28 H 0.5423 0.1870 0.1526
H17 H 0.0843 0.5539 0.9685
C37 C 0.1230(5) 0.9996(4) 0.6073(4)
H21 H 0.0676 0.9279 0.5778
C40 C 0.0627(4) 0.9558(4) 0.7797(3)
C41 C 0.7141(4) 0.3703(4) 0.4289(3)
C42 C 0.8940(5) 0.5582(4) 0.4608(4)
H23 H 0.8197 0.5958 0.4356
C43 C 0.8636(4) 0.4388(4) 0.4686(3)
C44 C 0.9759(4) 0.3843(4) 0.5118(3)
H24 H 0.9552 0.3052 0.5205
O31 O 0.6952(3) 0.2641(3) 0.4287(3)
O21 O 0.9674(3) 0.7159(2) 0.9252(2)
O28 O 0.9634(3) 0.8756(3) 0.7358(2)
loop_
_geom_bond_atom_site_label_1
_geom_bond_atom_site_label_2
_geom_bond_site_symmetry_1
_geom_bond_site_symmetry_2
Co10 O8 1_555 1_555
O33 Co15 1_555 1_555
Co10 O33 1_555 1_555
C21 C23 1_555 1_555
Co10 O4 1_555 1_555
O33 C21 1_555 1_555
O12 C21 1_555 1_555
O15 Co10 1_555 1_555
C22 H11 1_555 1_555
C48 C22 1_555 1_555
H26 C48 1_555 1_555
O20 Co15_3 1_555 1_555
O25 Co15_4 1_555 1_555
H12 C24 1_555 1_555
C46 C24 1_555 1_555
H25 C46 1_555 1_555
C45 C47 1_555 1_555
Co11 O32 1_555 1_555
Co15_8 O32 1_555 1_555
O32 C45 1_555 1_555
O36 C45 1_555 1_555
H7 C13 1_555 1_555
Co15_5 O7 1_555 1_555
O7 C16 1_555 1_555
O19 Co15_6 1_555 1_555
C1 C2 1_555 1_555
C2 H1 1_555 1_555
C3 C2 1_555 1_555
H2 C3 1_555 1_555
C4 C3 1_555 1_555
C5 C4 1_555 1_555
C6 C1 1_555 1_555
H4 C6 1_555 1_555
C7 C1 1_555 1_555
C8 C4 1_555 1_555
C9 C10 1_555 1_555
C10 H5 1_555 1_555
C11 C10 1_555 1_555
H6 C11 1_555 1_555
C12 C11 1_555 1_555
C14 C9 1_555 1_555
H8 C14 1_555 1_555
C15 C9 1_555 1_555
C17 C19 1_555 1_555
C18 H9 1_555 1_555
C19 C18 1_555 1_555
C20 C19 1_555 1_555
H10 C20 1_555 1_555
Co1 O1 1_555 1_555
Co2 O2 1_555 1_555
O1 C7 1_555 1_555
O2 C7 1_555 1_555
O19 C8 1_555 1_555
O5 C15 1_555 1_555
O6 C15 1_555 1_555
O9 C17 1_555 1_555
O10 C17 1_555 1_555
O13 Co1 1_555 1_555
H13 O13 1_555 1_555
H14 O13 1_555 1_555
C25 C26 1_555 1_555
C26 H15 1_555 1_555
C27 C26 1_555 1_555
H16 C27 1_555 1_555
C28 C27 1_555 1_555
C29 C28 1_555 1_555
C30 C25 1_555 1_555
H18 C30 1_555 1_555
C31 C25 1_555 1_555
C32 C28 1_555 1_555
C33 C34 1_555 1_555
C34 H19 1_555 1_555
C35 C34 1_555 1_555
H20 C35 1_555 1_555
C36 C35 1_555 1_555
C38 C33 1_555 1_555
H22 C38 1_555 1_555
C39 C33 1_555 1_555
Co5 O15 1_555 1_555
Co11 O1 1_555 1_555
O15 C31 1_555 1_555
O17 Co2 1_555 1_555
O20 C32 1_555 1_555
O22 C39 1_555 1_555
O23 Co2 1_555 1_555
O30 Co2 1_555 1_555
O37 Co5 1_555 1_555
H27 O37 1_555 1_555
H28 O37 1_555 1_555
C5 C6 1_555 1_555
Co1 O5 1_555 1_555
Co1 O9 1_555 1_555
Co2 O6 1_555 1_555
Co2 O9 1_555 1_555
C29 C30 1_555 1_555
C31 O17 1_555 1_555
C39 O23 1_555 1_555
Co5 O22 1_555 1_555
Co5 O30 1_555 1_555
H21 C37 1_555 1_555
O25 C40 1_555 1_555
C41 C43 1_555 1_555
H23 C42 1_555 1_555
C43 C42 1_555 1_555
H24 C44 1_555 1_555
O30 C41 1_555 1_555
O31 C41 1_555 1_555
C43 C44 1_555 1_555
O28 Co11 1_555 1_555
Co11 O21 1_555 1_555

#END
