
###############################################################################
#
# This file contains modified crystal structure data generated from the
# MOF subset of the Cambridge Structural Database (CSD) v543 
# hosted by the Cambridge Crystallographic Data Centre (CCDC).
#
# This work is licensed under the Creative Commons
# Attribution-NonCommercial-ShareAlike 4.0 International License.
# To view a copy of this license, visit
# http://creativecommons.org/licenses/by-nc-sa/4.0/
# or send a letter to
# Creative Commons, PO Box 1866, Mountain View, CA 94042, USA.
#
# CIF created using the CSD Python API on 29 September 2022
# The structure has been converted into the P1 space group
# The structure has a 3D framework
# The original CSD entry EVADIQ is in the triclinic crystal system
# The framework has been calculated to contain at least 10.0% void space
# The void calculation uses a probe of radius 1.32A, grid spacing 0.4
#
###############################################################################

data_EVADIQ
_chemical_formula_moiety         '(C78 H58 Dy4 N14 O28)n'
_symmetry_cell_setting           triclinic
_symmetry_space_group_name_H-M   'P 1'
_symmetry_Int_Tables_number      1
_space_group_name_Hall           'P 1'
loop_
_symmetry_equiv_pos_site_id
_symmetry_equiv_pos_as_xyz
1 x,y,z
_cell_length_a                   13.6605(10)
_cell_length_b                   15.0103(11)
_cell_length_c                   18.5345(14)
_cell_angle_alpha                69.051(2)
_cell_angle_beta                 71.145(2)
_cell_angle_gamma                65.014(2)
_cell_volume                     3149.85
loop_
_atom_site_label
_atom_site_type_symbol
_atom_site_fract_x
_atom_site_fract_y
_atom_site_fract_z
N6 N 0.0646(6) 0.1296(5) 0.4478(4)
C26 C 0.1521(7) 0.0934(6) 0.3928(5)
C29 C 0.0902(7) 0.2430(6) 0.2893(5)
H18 H 0.1001 0.2807 0.2370
C30 C 0.1668(7) 0.1482(6) 0.3147(5)
H19 H 0.2290 0.1212 0.2788
O18 O 0.0114(5) 0.3724(4) 0.1031(3)
N2 N 0.1873(6) 0.0642(5) 0.1463(4)
C1 C 0.0757(7) 0.3423(6) 0.0442(5)
C8 C 0.2756(7) 0.0304(6) 0.0910(5)
C9 C 0.1240(7) 0.1628(6) 0.1280(5)
H8 H 0.0623 0.1866 0.1655
C10 C 0.1445(7) 0.2299(6) 0.0578(5)
C11 C 0.2325(7) 0.1936(6) 0.0004(5)
C12 C 0.2996(7) 0.0916(6) 0.0169(5)
O2 O 0.4066(5) 0.6136(4) 0.5144(3)
O3 O 0.5173(4) 0.6596(4) 0.4018(3)
N5 N 0.3236(6) 0.9608(5) 0.3682(4)
C31 C 0.2282(7) 0.9882(6) 0.4185(5)
C32 C 0.3881(7) 0.8636(6) 0.3840(5)
H20 H 0.4557 0.8446 0.3497
C33 C 0.3618(6) 0.7895(6) 0.4475(5)
C34 C 0.2652(7) 0.8200(6) 0.5018(5)
H21 H 0.2465 0.7737 0.5480
C35 C 0.1977(7) 0.9208(6) 0.4859(5)
H22 H 0.1317 0.9428 0.5208
C36 C 0.4353(6) 0.6783(6) 0.4560(5)
Dy7 Dy 0.62999(3) 0.50384(2) 0.36986(2)
Dy8 Dy 0.37001(3) 0.49616(2) 0.63014(2)
O8 O 0.0911(5) 0.3972(4) 0.9765(3)
H9 H 0.2469 0.2371 0.9511
H10 H 0.3589 0.0655 0.9790
Dy5 Dy 0.15214(3) 0.50291(3) 0.86236(2)
Dy1 Dy 0.84786(3) 0.49709(3) 0.13764(2)
O1 O 0.4412(5) 0.5216(5) 0.3830(4)
H1 H 0.4352 0.5124 0.3422
H2 H 0.3991 0.5811 0.3873
O4 O 0.6474(5) 0.3658(4) 0.3247(3)
O6 O 0.9228(5) 0.4295(4) 0.2492(3)
O7 O 0.7710(5) 0.3792(4) 0.2126(3)
O9 O 0.6940(5) 0.5215(4) 0.4721(3)
H3 H 0.7626 0.5121 0.4573
H4 H 0.6588 0.5809 0.4789
O11 O 0.6701(5) 0.6056(4) 0.1205(4)
O12 O 0.5875(5) 0.5828(4) 0.2460(3)
O14 O 0.8143(4) 0.3913(4) 0.3661(4)
O15 O 0.8159(6) 0.4459(5) 0.0433(4)
N1 N 0.4294(6) 0.8845(5) 0.0576(4)
N3 N 0.8121(8) 0.0955(6) 0.1984(5)
C2 C 0.5941(6) 0.6327(6) 0.1761(5)
C3 C 0.3515(7) 0.9245(6) 0.1152(5)
C4 C 0.5031(7) 0.7908(6) 0.0777(5)
H5 H 0.5552 0.7623 0.0378
C5 C 0.5048(7) 0.7345(6) 0.1557(5)
C6 C 0.4225(8) 0.7754(6) 0.2160(5)
H6 H 0.4198 0.7386 0.2685
C7 C 0.3459(8) 0.8712(7) 0.1954(5)
H7 H 0.2912 0.9003 0.2340
C13 C 0.7140(7) 0.3340(6) 0.2675(5)
C14 C 0.7550(7) 0.0397(6) 0.2601(5)
C15 C 0.7976(8) 0.1917(7) 0.2012(6)
H11 H 0.8342 0.2309 0.1596
C16 C 0.7296(7) 0.2301(6) 0.2647(5)
C17 C 0.6772(8) 0.1691(6) 0.3276(5)
H12 H 0.6338 0.1932 0.3716
C18 C 0.6885(7) 0.0744(6) 0.3259(5)
H13 H 0.6526 0.0348 0.3676
C25 C 0.9039(6) 0.3751(6) 0.3182(5)
C27 C 0.9906(7) 0.2220(7) 0.4228(5)
H17 H 0.9306 0.2490 0.4600
C28 C 0.9988(7) 0.2792(6) 0.3444(5)
O16 O 0.5934(5) 0.3864(4) 0.4856(3)
O19 O 0.9089(5) 0.6028(4) 0.0235(3)
O20 O 0.8228(6) 0.6379(4) 0.1770(3)
O21 O 0.7332(5) 0.6088(4) 0.3012(4)
N4 N 0.7047(7) 0.8872(6) 0.3188(5)
C19 C 0.7628(7) 0.9417(6) 0.2562(5)
C20 C 0.7102(7) 0.7962(6) 0.3129(5)
H14 H 0.6726 0.7579 0.3544
C21 C 0.7705(7) 0.7602(6) 0.2464(5)
C22 C 0.8284(8) 0.8183(6) 0.1844(6)
H15 H 0.8691 0.7954 0.1395
C23 C 0.8253(7) 0.9088(6) 0.1896(5)
H16 H 0.8644 0.9467 0.1491
C24 C 0.7758(6) 0.6606(6) 0.2412(5)
O10 O 0.1772(6) 0.3621(4) 0.8230(3)
O13 O 0.2668(5) 0.3912(4) 0.6988(4)
N4_2 N 0.2953(7) 0.1128(6) 0.6812(5)
C19_2 C 0.2372(7) 0.0583(6) 0.7438(5)
C20_2 C 0.2898(7) 0.2038(6) 0.6871(5)
H14_2 H 0.3274 0.2421 0.6456
C21_2 C 0.2295(7) 0.2398(6) 0.7536(5)
C22_2 C 0.1716(8) 0.1817(6) 0.8156(6)
H15_2 H 0.1309 0.2046 0.8605
C23_2 C 0.1747(7) 0.0912(6) 0.8104(5)
H16_2 H 0.1356 0.0533 0.8509
C24_2 C 0.2242(6) 0.3394(6) 0.7588(5)
O1_2 O 0.5588(5) 0.4784(5) 0.6170(4)
H1_2 H 0.5648 0.4876 0.6578
H2_2 H 0.6009 0.4189 0.6127
O4_2 O 0.3526(5) 0.6342(4) 0.6753(3)
O6_2 O 0.0772(5) 0.5705(4) 0.7508(3)
O7_2 O 0.2290(5) 0.6208(4) 0.7874(3)
O9_2 O 0.3060(5) 0.4785(4) 0.5279(3)
H3_2 H 0.2374 0.4879 0.5427
H4_2 H 0.3412 0.4191 0.5211
O11_2 O 0.3299(5) 0.3944(4) 0.8795(4)
O12_2 O 0.4125(5) 0.4172(4) 0.7540(3)
O14_2 O 0.1857(4) 0.6087(4) 0.6339(4)
O15_2 O 0.1841(6) 0.5541(5) 0.9567(4)
N1_2 N 0.5706(6) 0.1155(5) 0.9424(4)
N3_2 N 0.1879(8) 0.9045(6) 0.8016(5)
C2_2 C 0.4059(6) 0.3673(6) 0.8239(5)
C3_2 C 0.6485(7) 0.0755(6) 0.8848(5)
C4_2 C 0.4969(7) 0.2092(6) 0.9223(5)
H5_2 H 0.4448 0.2377 0.9622
C5_2 C 0.4952(7) 0.2655(6) 0.8443(5)
C6_2 C 0.5775(8) 0.2246(6) 0.7840(5)
H6_2 H 0.5802 0.2614 0.7315
C7_2 C 0.6541(8) 0.1288(7) 0.8046(5)
H7_2 H 0.7088 0.0997 0.7660
C13_2 C 0.2860(7) 0.6660(6) 0.7325(5)
C14_2 C 0.2450(7) 0.9603(6) 0.7399(5)
C15_2 C 0.2024(8) 0.8083(7) 0.7988(6)
H11_2 H 0.1658 0.7691 0.8404
C16_2 C 0.2704(7) 0.7699(6) 0.7353(5)
C17_2 C 0.3228(8) 0.8309(6) 0.6724(5)
H12_2 H 0.3662 0.8068 0.6284
C18_2 C 0.3115(7) 0.9256(6) 0.6741(5)
H13_2 H 0.3474 0.9652 0.6324
C25_2 C 0.0961(6) 0.6249(6) 0.6818(5)
C27_2 C 0.0094(7) 0.7780(7) 0.5772(5)
H17_2 H 0.0694 0.7510 0.5400
C28_2 C 0.0012(7) 0.7208(6) 0.6556(5)
O17 O 0.4827(4) 0.3404(4) 0.5982(3)
H9_2 H 0.7531 0.7629 0.0489
H10_2 H 0.6411 0.9345 0.0210
N5_2 N 0.6764(6) 0.0392(5) 0.6318(4)
C31_2 C 0.7718(7) 0.0118(6) 0.5815(5)
C32_2 C 0.6119(7) 0.1364(6) 0.6160(5)
H20_2 H 0.5443 0.1554 0.6503
C33_2 C 0.6382(6) 0.2105(6) 0.5525(5)
C34_2 C 0.7348(7) 0.1800(6) 0.4982(5)
H21_2 H 0.7535 0.2263 0.4520
C35_2 C 0.8023(7) 0.0792(6) 0.5141(5)
H22_2 H 0.8683 0.0572 0.4792
C36_2 C 0.5647(6) 0.3217(6) 0.5440(5)
N7 N 0.8349(8) 0.4614(7) 0.9136(5)
C37 C 0.8005(9) 0.4959(8) 0.9776(7)
H23 H 0.7609 0.5652 0.9713
C38 C 0.9026(12) 0.3526(11) 0.9210(8)
H24 H 0.9217 0.3378 0.8709
H25 H 0.9687 0.3377 0.9377
H26 H 0.8615 0.3115 0.9593
C39 C 0.8211(11) 0.5290(11) 0.8332(7)
H27 H 0.8516 0.4885 0.7959
H28 H 0.7441 0.5658 0.8332
H29 H 0.8589 0.5761 0.8189
N7_2 N 0.1651(8) 0.5386(7) 0.0864(5)
C37_2 C 0.1995(9) 0.5041(8) 0.0224(7)
H23_2 H 0.2391 0.4348 0.0287
C38_2 C 0.0974(12) 0.6474(11) 0.0790(8)
H24_2 H 0.0783 0.6622 0.1291
H25_2 H 0.0313 0.6623 0.0623
H26_2 H 0.1385 0.6885 0.0407
C39_2 C 0.1789(11) 0.4710(11) 0.1668(7)
H27_2 H 0.1484 0.5115 0.2041
H28_2 H 0.2559 0.4342 0.1668
H29_2 H 0.1411 0.4239 0.1811
O5 O 0.9886(5) 0.6276(4) 0.8969(3)
N2_2 N 0.8127(6) 0.9358(5) 0.8537(4)
C1_2 C 0.9243(7) 0.6577(6) 0.9558(5)
C8_2 C 0.7244(7) 0.9696(6) 0.9090(5)
C9_2 C 0.8760(7) 0.8372(6) 0.8720(5)
H8_2 H 0.9377 0.8134 0.8345
C10_2 C 0.8555(7) 0.7701(6) 0.9422(5)
C11_2 C 0.7675(7) 0.8064(6) 0.9996(5)
C12_2 C 0.7004(7) 0.9084(6) 0.9831(5)
N6_2 N 0.9354(6) 0.8704(5) 0.5522(4)
C26_2 C 0.8479(7) 0.9066(6) 0.6072(5)
C29_2 C 0.9098(7) 0.7570(6) 0.7107(5)
H18_2 H 0.8999 0.7193 0.7630
C30_2 C 0.8332(7) 0.8518(6) 0.6853(5)
H19_2 H 0.7710 0.8788 0.7212
loop_
_geom_bond_atom_site_label_1
_geom_bond_atom_site_label_2
_geom_bond_site_symmetry_1
_geom_bond_site_symmetry_2
N6 C26 1_555 1_555
C26 C30 1_555 1_555
H18 C29 1_555 1_555
C30 C29 1_555 1_555
H19 C30 1_555 1_555
O18 C1 1_555 1_555
N2 C8 1_555 1_555
C1 C10 1_555 1_555
C9 N2 1_555 1_555
H8 C9 1_555 1_555
C10 C9 1_555 1_555
C11 C10 1_555 1_555
C12 C8 1_555 1_555
C11 C12 1_555 1_555
O2 C36 1_555 1_555
O3 C36 1_555 1_555
N5 C31 1_555 1_555
C32 N5 1_555 1_555
H20 C32 1_555 1_555
C33 C32 1_555 1_555
C34 C33 1_555 1_555
H21 C34 1_555 1_555
C35 C31 1_555 1_555
H22 C35 1_555 1_555
C36 C33 1_555 1_555
Dy7 O3 1_555 1_555
Dy8 O2 1_555 1_555
C34 C35 1_555 1_555
Dy5 O8 1_555 1_555
Dy1 O6 1_555 1_555
Dy7 O1 1_555 1_555
O1 H1 1_555 1_555
H2 O1 1_555 1_555
O4 Dy7 1_555 1_555
O6 C25 1_555 1_555
O7 Dy1 1_555 1_555
O9 Dy7 1_555 1_555
H3 O9 1_555 1_555
H4 O9 1_555 1_555
O11 Dy1 1_555 1_555
O12 Dy7 1_555 1_555
O14 Dy7 1_555 1_555
O15 Dy1 1_555 1_555
N1 C3 1_555 1_555
N3 C14 1_555 1_555
C2 O11 1_555 1_555
C3 C7 1_555 1_555
C4 N1 1_555 1_555
H5 C4 1_555 1_555
C5 C2 1_555 1_555
C6 C5 1_555 1_555
H6 C6 1_555 1_555
C7 C6 1_555 1_555
H7 C7 1_555 1_555
C13 O4 1_555 1_555
C14 C18 1_555 1_555
C15 N3 1_555 1_555
H11 C15 1_555 1_555
C16 C13 1_555 1_555
C17 C16 1_555 1_555
H12 C17 1_555 1_555
C18 C17 1_555 1_555
H13 C18 1_555 1_555
C25 O14 1_555 1_555
H17 C27 1_555 1_555
C28 C25 1_555 1_555
O16 Dy7 1_555 1_555
O19 Dy1 1_555 1_555
O20 Dy1 1_555 1_555
O21 Dy7 1_555 1_555
O7 C13 1_555 1_555
O12 C2 1_555 1_555
C4 C5 1_555 1_555
C15 C16 1_555 1_555
C27 C28 1_555 1_555
O20 C24 1_555 1_555
O21 C24 1_555 1_555
N4 C19 1_555 1_555
C20 N4 1_555 1_555
H14 C20 1_555 1_555
C21 C20 1_555 1_555
C22 C21 1_555 1_555
H15 C22 1_555 1_555
C23 C19 1_555 1_555
H16 C23 1_555 1_555
C24 C21 1_555 1_555
C22 C23 1_555 1_555
O10 C24_2 1_555 1_555
O13 C24_2 1_555 1_555
N4_2 C19_2 1_555 1_555
C20_2 N4_2 1_555 1_555
H14_2 C20_2 1_555 1_555
C21_2 C20_2 1_555 1_555
C22_2 C21_2 1_555 1_555
H15_2 C22_2 1_555 1_555
C23_2 C19_2 1_555 1_555
H16_2 C23_2 1_555 1_555
C24_2 C21_2 1_555 1_555
Dy5 O10 1_555 1_555
Dy8 O13 1_555 1_555
C22_2 C23_2 1_555 1_555
Dy5 O6_2 1_555 1_555
Dy8 O1_2 1_555 1_555
O1_2 H1_2 1_555 1_555
H2_2 O1_2 1_555 1_555
O4_2 Dy8 1_555 1_555
O6_2 C25_2 1_555 1_555
O7_2 Dy5 1_555 1_555
O9_2 Dy8 1_555 1_555
H3_2 O9_2 1_555 1_555
H4_2 O9_2 1_555 1_555
O11_2 Dy5 1_555 1_555
O12_2 Dy8 1_555 1_555
O14_2 Dy8 1_555 1_555
O15_2 Dy5 1_555 1_555
N1_2 C3_2 1_555 1_555
N3_2 C14_2 1_555 1_555
C2_2 O11_2 1_555 1_555
C3_2 C7_2 1_555 1_555
C4_2 N1_2 1_555 1_555
H5_2 C4_2 1_555 1_555
C5_2 C2_2 1_555 1_555
C6_2 C5_2 1_555 1_555
H6_2 C6_2 1_555 1_555
C7_2 C6_2 1_555 1_555
H7_2 C7_2 1_555 1_555
C13_2 O4_2 1_555 1_555
C14_2 C18_2 1_555 1_555
C15_2 N3_2 1_555 1_555
H11_2 C15_2 1_555 1_555
C16_2 C13_2 1_555 1_555
C17_2 C16_2 1_555 1_555
H12_2 C17_2 1_555 1_555
C18_2 C17_2 1_555 1_555
H13_2 C18_2 1_555 1_555
C25_2 O14_2 1_555 1_555
H17_2 C27_2 1_555 1_555
C28_2 C25_2 1_555 1_555
O17 Dy8 1_555 1_555
O7_2 C13_2 1_555 1_555
O12_2 C2_2 1_555 1_555
C4_2 C5_2 1_555 1_555
C15_2 C16_2 1_555 1_555
C27_2 C28_2 1_555 1_555
O16 C36_2 1_555 1_555
O17 C36_2 1_555 1_555
N5_2 C31_2 1_555 1_555
C32_2 N5_2 1_555 1_555
H20_2 C32_2 1_555 1_555
C33_2 C32_2 1_555 1_555
C34_2 C33_2 1_555 1_555
H21_2 C34_2 1_555 1_555
C35_2 C31_2 1_555 1_555
H22_2 C35_2 1_555 1_555
C36_2 C33_2 1_555 1_555
C34_2 C35_2 1_555 1_555
N7 C37 1_555 1_555
H23 C37 1_555 1_555
C38 N7 1_555 1_555
H24 C38 1_555 1_555
H25 C38 1_555 1_555
H26 C38 1_555 1_555
C39 N7 1_555 1_555
H27 C39 1_555 1_555
H28 C39 1_555 1_555
H29 C39 1_555 1_555
N7_2 C37_2 1_555 1_555
H23_2 C37_2 1_555 1_555
C38_2 N7_2 1_555 1_555
H24_2 C38_2 1_555 1_555
H25_2 C38_2 1_555 1_555
H26_2 C38_2 1_555 1_555
C39_2 N7_2 1_555 1_555
H27_2 C39_2 1_555 1_555
H28_2 C39_2 1_555 1_555
H29_2 C39_2 1_555 1_555
O5 C1_2 1_555 1_555
N2_2 C8_2 1_555 1_555
C1_2 C10_2 1_555 1_555
C9_2 N2_2 1_555 1_555
H8_2 C9_2 1_555 1_555
C10_2 C9_2 1_555 1_555
C11_2 C10_2 1_555 1_555
C12_2 C8_2 1_555 1_555
C11_2 C12_2 1_555 1_555
N6_2 C26_2 1_555 1_555
C26_2 C30_2 1_555 1_555
H18_2 C29_2 1_555 1_555
C30_2 C29_2 1_555 1_555
H19_2 C30_2 1_555 1_555

#END
