
###############################################################################
#
# This file contains modified crystal structure data generated from the
# MOF subset of the Cambridge Structural Database (CSD) v543 
# hosted by the Cambridge Crystallographic Data Centre (CCDC).
#
# This work is licensed under the Creative Commons
# Attribution-NonCommercial-ShareAlike 4.0 International License.
# To view a copy of this license, visit
# http://creativecommons.org/licenses/by-nc-sa/4.0/
# or send a letter to
# Creative Commons, PO Box 1866, Mountain View, CA 94042, USA.
#
# CIF created using the CSD Python API on 29 September 2022
# The structure has been converted into the P1 space group
# The structure has a 3D framework
# The original CSD entry EVAJIX is in the orthorhombic crystal system
# The framework has been calculated to contain at least 10.0% void space
# The void calculation uses a probe of radius 1.32A, grid spacing 0.4
#
###############################################################################

data_EVAJIX
_chemical_formula_moiety         '(C344 H248 Cu16 N32 O72)n'
_symmetry_cell_setting           triclinic
_symmetry_space_group_name_H-M   'P 1'
_symmetry_Int_Tables_number      1
_space_group_name_Hall           'P 1'
loop_
_symmetry_equiv_pos_site_id
_symmetry_equiv_pos_as_xyz
1 x,y,z
_cell_length_a                   25.7247(17)
_cell_length_b                   22.2653(13)
_cell_length_c                   16.7381(10)
_cell_angle_alpha                90
_cell_angle_beta                 90
_cell_angle_gamma                90
_cell_volume                     9587.05
loop_
_atom_site_label
_atom_site_type_symbol
_atom_site_fract_x
_atom_site_fract_y
_atom_site_fract_z
C1 C 0.19568(17) 0.30744(18) 0.1017(3)
C2 C 0.16695(16) 0.34529(18) 0.1605(2)
C3 C 0.18087(17) 0.3433(2) 0.2408(2)
H1 H 0.2074 0.3166 0.2579
C4 C 0.15639(19) 0.3799(2) 0.2961(3)
H2 H 0.1648 0.3774 0.3513
C5 C 0.11934(18) 0.4202(2) 0.2689(3)
C6 C 0.1042(2) 0.4218(2) 0.1904(3)
H3 H 0.0777 0.4487 0.1736
C7 C 0.12788(19) 0.3838(2) 0.1357(3)
H4 H 0.1173 0.3843 0.0813
C8 C 0.12451(18) 0.5049(2) 0.3555(3)
C9 C 0.10069(18) 0.5387(2) 0.4133(3)
H5 H 0.0660 0.5300 0.4292
C10 C 0.12781(17) 0.58613(19) 0.4488(3)
H6 H 0.1118 0.6091 0.4898
C11 C 0.17828(16) 0.60004(19) 0.4244(3)
C12 C 0.20145(19) 0.5660(2) 0.3658(3)
H7 H 0.2359 0.5752 0.3494
C13 C 0.17536(19) 0.5184(2) 0.3304(3)
H8 H 0.1916 0.4953 0.2897
C14 C 0.20586(17) 0.65357(19) 0.4575(2)
O1 O 0.23885(11) 0.28585(13) 0.12124(17)
O2 O 0.17445(12) 0.30065(16) 0.03353(18)
O3 O 0.09502(13) 0.45896(14) 0.3231(2)
O4 O 0.24832(12) 0.66722(14) 0.4258(2)
O5 O 0.18398(11) 0.68201(13) 0.51383(18)
Cu4 Cu 0.28822(2) 0.74114(2) 0.44676(3)
Cu6 Cu 0.21178(2) 0.75886(2) 0.55324(3)
Cu7 Cu 0.28822(2) 0.24114(2) 0.05324(3)
C15 C 0.17426(17) 0.3106(2) 0.7867(3)
H9 H 0.2074 0.3288 0.7803
C16 C 0.13529(17) 0.3116(2) 0.7313(3)
H10 H 0.1362 0.3299 0.6801
C17 C 0.10940(16) 0.2615(2) 0.8385(3)
C18 C 0.04649(15) 0.2687(2) 0.7250(3)
C19 C 0.0000 0.2813(3) 0.7640(4)
H11 H 0.0000 0.2981 0.8162
C20 C 0.04654(18) 0.2478(2) 0.6483(3)
H12 H 0.0786 0.2409 0.6218
C21 C -0.0000 0.2366(4) 0.6087(5)
H13 H 0.0000 0.2217 0.5555
C22 C 0.07684(17) 0.2257(2) 0.8939(3)
H14 H 0.0989 0.2076 0.9350
H15 H 0.0590 0.1939 0.8640
H16 H 0.0510 0.2519 0.9192
Cu1 Cu 0.21178(2) 0.25886(2) 0.94676(3)
N1 N 0.15819(13) 0.27933(17) 0.8531(2)
N2 N 0.09449(13) 0.28053(18) 0.7649(2)
O12 O 0.26115(11) 0.21415(13) 0.87876(17)
O13 O 0.25168(12) 0.33278(14) 0.9258(2)
O16 O 0.18398(11) 0.18201(13) 0.98617(18)
C29 C 0.80432(17) 0.30744(18) 0.1017(3)
C30 C 0.83305(16) 0.34529(18) 0.1605(2)
C31 C 0.81913(17) 0.3433(2) 0.2408(2)
H23 H 0.7926 0.3166 0.2579
C32 C 0.84361(19) 0.3799(2) 0.2961(3)
H24 H 0.8352 0.3774 0.3513
C33 C 0.88066(18) 0.4202(2) 0.2689(3)
C34 C 0.8958(2) 0.4218(2) 0.1904(3)
H25 H 0.9223 0.4487 0.1736
C35 C 0.87212(19) 0.3838(2) 0.1357(3)
H26 H 0.8827 0.3843 0.0813
C36 C 0.87549(18) 0.5049(2) 0.3555(3)
C37 C 0.89931(18) 0.5387(2) 0.4133(3)
H27 H 0.9340 0.5300 0.4292
C38 C 0.87219(17) 0.58613(19) 0.4488(3)
H28 H 0.8882 0.6091 0.4898
C39 C 0.82172(16) 0.60004(19) 0.4244(3)
C40 C 0.79855(19) 0.5660(2) 0.3658(3)
H29 H 0.7641 0.5752 0.3494
C41 C 0.82464(19) 0.5184(2) 0.3304(3)
H30 H 0.8084 0.4953 0.2897
C42 C 0.79414(17) 0.65357(19) 0.4575(2)
O6 O 0.76115(11) 0.28585(13) 0.12124(17)
O7 O 0.82555(12) 0.30065(16) 0.03353(18)
O8 O 0.90498(13) 0.45896(14) 0.3231(2)
O9 O 0.75168(12) 0.66722(14) 0.4258(2)
O10 O 0.81602(11) 0.68201(13) 0.51383(18)
Cu3 Cu 0.78822(2) 0.75886(2) 0.55324(3)
Cu5 Cu 0.71178(2) 0.24114(2) 0.05324(3)
Cu8 Cu 0.71178(2) 0.74114(2) 0.44676(3)
C19_2 C 1.0000 0.2813(3) 0.7640(4)
H11_2 H 1.0000 0.2981 0.8162
C21_2 C 1.0000 0.2366(4) 0.6087(5)
H13_2 H 1.0000 0.2217 0.5555
C23 C 0.82574(17) 0.3106(2) 0.7867(3)
H17 H 0.7926 0.3288 0.7803
C24 C 0.86471(17) 0.3116(2) 0.7313(3)
H18 H 0.8638 0.3299 0.6801
C25 C 0.89060(16) 0.2615(2) 0.8385(3)
C26 C 0.95351(15) 0.2687(2) 0.7250(3)
C27 C 0.95346(18) 0.2478(2) 0.6483(3)
H19 H 0.9214 0.2409 0.6218
C28 C 0.92316(17) 0.2257(2) 0.8939(3)
H20 H 0.9011 0.2076 0.9350
H21 H 0.9410 0.1939 0.8640
H22 H 0.9490 0.2519 0.9192
N3 N 0.84181(13) 0.27933(17) 0.8531(2)
N4 N 0.90551(13) 0.28053(18) 0.7649(2)
Cu2 Cu 0.78822(2) 0.25886(2) 0.94676(3)
O11 O 0.73885(11) 0.21415(13) 0.87876(17)
O14 O 0.74832(12) 0.33278(14) 0.9258(2)
O15 O 0.81602(11) 0.18201(13) 0.98617(18)
C36_2 C 0.12451(18) 0.0049(2) 0.1445(3)
C37_2 C 0.10069(18) 0.0387(2) 0.0867(3)
H27_2 H 0.0660 0.0300 0.0708
C38_2 C 0.12781(17) 0.08613(19) 0.0512(3)
H28_2 H 0.1118 0.1091 0.0102
C39_2 C 0.17828(16) 0.10004(19) 0.0756(3)
C40_2 C 0.20145(19) 0.0660(2) 0.1342(3)
H29_2 H 0.2359 0.0752 0.1506
C41_2 C 0.17536(19) 0.0184(2) 0.1696(3)
C42_2 C 0.20586(17) 0.15357(19) 0.0425(2)
O9_2 O 0.24832(12) 0.16722(14) 0.0742(2)
C19_3 C 0.0000 0.7813(3) 0.7360(4)
H11_3 H 0.0000 0.7981 0.6838
C21_3 C -0.0000 0.7366(4) 0.8913(5)
H13_3 H 0.0000 0.7217 0.9445
C23_2 C 0.17426(17) 0.8106(2) 0.7133(3)
H17_2 H 0.2074 0.8288 0.7197
C24_2 C 0.13529(17) 0.8116(2) 0.7687(3)
H18_2 H 0.1362 0.8299 0.8199
C25_2 C 0.10940(16) 0.7615(2) 0.6615(3)
C26_2 C 0.04649(15) 0.7687(2) 0.7750(3)
C27_2 C 0.04654(18) 0.7478(2) 0.8517(3)
H19_2 H 0.0786 0.7409 0.8782
C28_2 C 0.07684(17) 0.7257(2) 0.6061(3)
H20_2 H 0.0989 0.7076 0.5650
H21_2 H 0.0590 0.6939 0.6360
H22_2 H 0.0510 0.7519 0.5808
N3_2 N 0.15819(13) 0.77933(17) 0.6469(2)
N4_2 N 0.09449(13) 0.78053(18) 0.7351(2)
C29_2 C 0.19568(17) 0.80744(18) 0.3983(3)
C30_2 C 0.16695(16) 0.84529(18) 0.3395(2)
C31_2 C 0.18087(17) 0.8433(2) 0.2592(2)
H23_2 H 0.2074 0.8166 0.2421
C32_2 C 0.15639(19) 0.8799(2) 0.2039(3)
H24_2 H 0.1648 0.8774 0.1487
C33_2 C 0.11934(18) 0.9202(2) 0.2311(3)
C34_2 C 0.1042(2) 0.9218(2) 0.3096(3)
H25_2 H 0.0777 0.9487 0.3264
C35_2 C 0.12788(19) 0.8838(2) 0.3643(3)
H26_2 H 0.1173 0.8843 0.4187
H30_2 H 0.1916 0.9953 0.2103
O6_2 O 0.23885(11) 0.78585(13) 0.37876(17)
O7_2 O 0.17445(12) 0.80065(16) 0.46647(18)
O8_2 O 0.09502(13) 0.95896(14) 0.1769(2)
O11_2 O 0.26115(11) 0.71415(13) 0.62124(17)
O14_2 O 0.25168(12) 0.83278(14) 0.5742(2)
C8_2 C 0.87549(18) 0.0049(2) 0.1445(3)
C9_2 C 0.89931(18) 0.0387(2) 0.0867(3)
H5_2 H 0.9340 0.0300 0.0708
C10_2 C 0.87219(17) 0.08613(19) 0.0512(3)
H6_2 H 0.8882 0.1091 0.0102
C11_2 C 0.82172(16) 0.10004(19) 0.0756(3)
C12_2 C 0.79855(19) 0.0660(2) 0.1342(3)
H7_2 H 0.7641 0.0752 0.1506
C13_2 C 0.82464(19) 0.0184(2) 0.1696(3)
C14_2 C 0.79414(17) 0.15357(19) 0.0425(2)
O4_2 O 0.75168(12) 0.16722(14) 0.0742(2)
C1_2 C 0.80432(17) 0.80744(18) 0.3983(3)
C2_2 C 0.83305(16) 0.84529(18) 0.3395(2)
C3_2 C 0.81913(17) 0.8433(2) 0.2592(2)
H1_2 H 0.7926 0.8166 0.2421
C4_2 C 0.84361(19) 0.8799(2) 0.2039(3)
H2_2 H 0.8352 0.8774 0.1487
C5_2 C 0.88066(18) 0.9202(2) 0.2311(3)
C6_2 C 0.8958(2) 0.9218(2) 0.3096(3)
H3_2 H 0.9223 0.9487 0.3264
C7_2 C 0.87212(19) 0.8838(2) 0.3643(3)
H4_2 H 0.8827 0.8843 0.4187
H8_2 H 0.8084 0.9953 0.2103
C15_2 C 0.82574(17) 0.8106(2) 0.7133(3)
H9_2 H 0.7926 0.8288 0.7197
C16_2 C 0.86471(17) 0.8116(2) 0.7687(3)
H10_2 H 0.8638 0.8299 0.8199
C17_2 C 0.89060(16) 0.7615(2) 0.6615(3)
C18_2 C 0.95351(15) 0.7687(2) 0.7750(3)
C19_4 C 1.0000 0.7813(3) 0.7360(4)
H11_4 H 1.0000 0.7981 0.6838
C20_2 C 0.95346(18) 0.7478(2) 0.8517(3)
H12_2 H 0.9214 0.7409 0.8782
C21_4 C 1.0000 0.7366(4) 0.8913(5)
H13_4 H 1.0000 0.7217 0.9445
C22_2 C 0.92316(17) 0.7257(2) 0.6061(3)
H14_2 H 0.9011 0.7076 0.5650
H15_2 H 0.9410 0.6939 0.6360
H16_2 H 0.9490 0.7519 0.5808
N1_2 N 0.84181(13) 0.77933(17) 0.6469(2)
N2_2 N 0.90551(13) 0.78053(18) 0.7351(2)
O1_2 O 0.76115(11) 0.78585(13) 0.37876(17)
O2_2 O 0.82555(12) 0.80065(16) 0.46647(18)
O3_2 O 0.90498(13) 0.95896(14) 0.1769(2)
O12_2 O 0.73885(11) 0.71415(13) 0.62124(17)
O13_2 O 0.74832(12) 0.83278(14) 0.5742(2)
O5_2 O 0.31602(11) 0.31799(13) 0.01383(18)
O10_2 O 0.68398(11) 0.31799(13) 0.01383(18)
C1_3 C 0.30432(17) 0.69256(18) 0.6017(3)
C2_3 C 0.33305(16) 0.65471(18) 0.6605(2)
C3_3 C 0.31913(17) 0.6567(2) 0.7408(2)
H1_3 H 0.2926 0.6834 0.7579
C4_3 C 0.34361(19) 0.6201(2) 0.7961(3)
H2_3 H 0.3352 0.6226 0.8513
C5_3 C 0.38066(18) 0.5798(2) 0.7689(3)
C6_3 C 0.3958(2) 0.5782(2) 0.6904(3)
H3_3 H 0.4223 0.5513 0.6736
C7_3 C 0.37212(19) 0.6162(2) 0.6357(3)
H4_3 H 0.3827 0.6157 0.5813
C8_3 C 0.37549(18) 0.4951(2) 0.8555(3)
C9_3 C 0.39931(18) 0.4613(2) 0.9133(3)
H5_3 H 0.4340 0.4700 0.9292
C10_3 C 0.37219(17) 0.41387(19) 0.9488(3)
H6_3 H 0.3882 0.3909 0.9898
C11_3 C 0.32172(16) 0.39996(19) 0.9244(3)
C12_3 C 0.29855(19) 0.4340(2) 0.8658(3)
H7_3 H 0.2641 0.4248 0.8494
C13_3 C 0.32464(19) 0.4816(2) 0.8304(3)
H8_3 H 0.3084 0.5047 0.7897
C14_3 C 0.29414(17) 0.34643(19) 0.9575(2)
C15_3 C 0.32574(17) 0.6894(2) 0.2867(3)
H9_3 H 0.2926 0.6712 0.2803
C16_3 C 0.36471(17) 0.6884(2) 0.2313(3)
H10_3 H 0.3638 0.6701 0.1801
C17_3 C 0.39060(16) 0.7385(2) 0.3385(3)
C18_3 C 0.45351(15) 0.7313(2) 0.2250(3)
C19_5 C 0.5000 0.7187(3) 0.2640(4)
H11_5 H 0.5000 0.7019 0.3162
C20_3 C 0.45346(18) 0.7522(2) 0.1483(3)
H12_3 H 0.4214 0.7591 0.1218
C21_5 C 0.5000 0.7634(4) 0.1087(5)
H13_5 H 0.5000 0.7783 0.0555
C22_3 C 0.42316(17) 0.7743(2) 0.3939(3)
H14_3 H 0.4011 0.7924 0.4350
H15_3 H 0.4410 0.8061 0.3640
H16_3 H 0.4490 0.7481 0.4192
N1_3 N 0.34181(13) 0.72067(17) 0.3531(2)
N2_3 N 0.40551(13) 0.71947(18) 0.2649(2)
O2_3 O 0.32555(12) 0.69935(16) 0.53353(18)
O3_3 O 0.40498(13) 0.54104(14) 0.8231(2)
C23_3 C 0.67426(17) 0.6894(2) 0.2867(3)
H17_3 H 0.7074 0.6712 0.2803
C24_3 C 0.63529(17) 0.6884(2) 0.2313(3)
H18_3 H 0.6362 0.6701 0.1801
C25_3 C 0.60940(16) 0.7385(2) 0.3385(3)
C26_3 C 0.54649(15) 0.7313(2) 0.2250(3)
C27_3 C 0.54654(18) 0.7522(2) 0.1483(3)
H19_3 H 0.5786 0.7591 0.1218
C28_3 C 0.57684(17) 0.7743(2) 0.3939(3)
H20_3 H 0.5989 0.7924 0.4350
H21_3 H 0.5590 0.8061 0.3640
H22_3 H 0.5510 0.7481 0.4192
N3_3 N 0.65819(13) 0.72067(17) 0.3531(2)
N4_3 N 0.59449(13) 0.71947(18) 0.2649(2)
C29_3 C 0.69568(17) 0.69256(18) 0.6017(3)
C30_3 C 0.66695(16) 0.65471(18) 0.6605(2)
C31_3 C 0.68087(17) 0.6567(2) 0.7408(2)
H23_3 H 0.7074 0.6834 0.7579
C32_3 C 0.65639(19) 0.6201(2) 0.7961(3)
H24_3 H 0.6648 0.6226 0.8513
C33_3 C 0.61934(18) 0.5798(2) 0.7689(3)
C34_3 C 0.6042(2) 0.5782(2) 0.6904(3)
H25_3 H 0.5777 0.5513 0.6736
C35_3 C 0.62788(19) 0.6162(2) 0.6357(3)
H26_3 H 0.6173 0.6157 0.5813
C36_3 C 0.62451(18) 0.4951(2) 0.8555(3)
C37_3 C 0.60069(18) 0.4613(2) 0.9133(3)
H27_3 H 0.5660 0.4700 0.9292
C38_3 C 0.62781(17) 0.41387(19) 0.9488(3)
H28_3 H 0.6118 0.3909 0.9898
C39_3 C 0.67828(16) 0.39996(19) 0.9244(3)
C40_3 C 0.70145(19) 0.4340(2) 0.8658(3)
H29_3 H 0.7359 0.4248 0.8494
C41_3 C 0.67536(19) 0.4816(2) 0.8304(3)
H30_3 H 0.6916 0.5047 0.7897
C42_3 C 0.70586(17) 0.34643(19) 0.9575(2)
O7_3 O 0.67445(12) 0.69935(16) 0.53353(18)
O8_3 O 0.59502(13) 0.54104(14) 0.8231(2)
O15_2 O 0.68398(11) 0.81799(13) 0.48617(18)
O16_2 O 0.31602(11) 0.81799(13) 0.48617(18)
C15_4 C 0.67426(17) 0.1894(2) 0.2133(3)
H9_4 H 0.7074 0.1712 0.2197
C16_4 C 0.63529(17) 0.1884(2) 0.2687(3)
H10_4 H 0.6362 0.1701 0.3199
C17_4 C 0.60940(16) 0.2385(2) 0.1615(3)
C18_4 C 0.54649(15) 0.2313(2) 0.2750(3)
C19_6 C 0.5000 0.2187(3) 0.2360(4)
H11_6 H 0.5000 0.2019 0.1838
C20_4 C 0.54654(18) 0.2522(2) 0.3517(3)
H12_4 H 0.5786 0.2591 0.3782
C21_6 C 0.5000 0.2634(4) 0.3913(5)
H13_6 H 0.5000 0.2783 0.4445
C22_4 C 0.57684(17) 0.2743(2) 0.1061(3)
H14_4 H 0.5989 0.2924 0.0650
H15_4 H 0.5590 0.3061 0.1360
H16_4 H 0.5510 0.2481 0.0808
N1_4 N 0.65819(13) 0.22067(17) 0.1469(2)
N2_4 N 0.59449(13) 0.21947(18) 0.2351(2)
C23_4 C 0.32574(17) 0.1894(2) 0.2133(3)
H17_4 H 0.2926 0.1712 0.2197
C24_4 C 0.36471(17) 0.1884(2) 0.2687(3)
H18_4 H 0.3638 0.1701 0.3199
C25_4 C 0.39060(16) 0.2385(2) 0.1615(3)
C26_4 C 0.45351(15) 0.2313(2) 0.2750(3)
C27_4 C 0.45346(18) 0.2522(2) 0.3517(3)
H19_4 H 0.4214 0.2591 0.3782
C28_4 C 0.42316(17) 0.2743(2) 0.1061(3)
H20_4 H 0.4011 0.2924 0.0650
H21_4 H 0.4410 0.3061 0.1360
H22_4 H 0.4490 0.2481 0.0808
N3_4 N 0.34181(13) 0.22067(17) 0.1469(2)
N4_4 N 0.40551(13) 0.21947(18) 0.2351(2)
C1_4 C 0.69568(17) 0.19256(18) 0.8983(3)
C2_4 C 0.66695(16) 0.15471(18) 0.8395(2)
C3_4 C 0.68087(17) 0.1567(2) 0.7592(2)
H1_4 H 0.7074 0.1834 0.7421
C4_4 C 0.65639(19) 0.1201(2) 0.7039(3)
H2_4 H 0.6648 0.1226 0.6487
C5_4 C 0.61934(18) 0.0798(2) 0.7311(3)
C6_4 C 0.6042(2) 0.0782(2) 0.8096(3)
H3_4 H 0.5777 0.0513 0.8264
C7_4 C 0.62788(19) 0.1162(2) 0.8643(3)
H4_4 H 0.6173 0.1157 0.9187
H8_4 H 0.6916 0.0047 0.7103
O2_4 O 0.67445(12) 0.19935(16) 0.96647(18)
O3_4 O 0.59502(13) 0.04104(14) 0.6769(2)
C29_4 C 0.30432(17) 0.19256(18) 0.8983(3)
C30_4 C 0.33305(16) 0.15471(18) 0.8395(2)
C31_4 C 0.31913(17) 0.1567(2) 0.7592(2)
H23_4 H 0.2926 0.1834 0.7421
C32_4 C 0.34361(19) 0.1201(2) 0.7039(3)
H24_4 H 0.3352 0.1226 0.6487
C33_4 C 0.38066(18) 0.0798(2) 0.7311(3)
C34_4 C 0.3958(2) 0.0782(2) 0.8096(3)
H25_4 H 0.4223 0.0513 0.8264
C35_4 C 0.37212(19) 0.1162(2) 0.8643(3)
H26_4 H 0.3827 0.1157 0.9187
H30_4 H 0.3084 0.0047 0.7103
O7_4 O 0.32555(12) 0.19935(16) 0.96647(18)
O8_4 O 0.40498(13) 0.04104(14) 0.6769(2)
C8_4 C 0.62451(18) 0.9951(2) 0.6445(3)
C9_4 C 0.60069(18) 0.9613(2) 0.5867(3)
H5_4 H 0.5660 0.9700 0.5708
C10_4 C 0.62781(17) 0.91387(19) 0.5512(3)
H6_4 H 0.6118 0.8909 0.5102
C11_4 C 0.67828(16) 0.89996(19) 0.5756(3)
C12_4 C 0.70145(19) 0.9340(2) 0.6342(3)
H7_4 H 0.7359 0.9248 0.6506
C13_4 C 0.67536(19) 0.9816(2) 0.6696(3)
C14_4 C 0.70586(17) 0.84643(19) 0.5425(2)
C36_4 C 0.37549(18) 0.9951(2) 0.6445(3)
C37_4 C 0.39931(18) 0.9613(2) 0.5867(3)
H27_4 H 0.4340 0.9700 0.5708
C38_4 C 0.37219(17) 0.91387(19) 0.5512(3)
H28_4 H 0.3882 0.8909 0.5102
C39_4 C 0.32172(16) 0.89996(19) 0.5756(3)
C40_4 C 0.29855(19) 0.9340(2) 0.6342(3)
H29_4 H 0.2641 0.9248 0.6506
C41_4 C 0.32464(19) 0.9816(2) 0.6696(3)
C42_4 C 0.29414(17) 0.84643(19) 0.5425(2)
C19_7 C -0.0000 0.2187(3) 0.2640(4)
H11_7 H 0.0000 0.2019 0.3162
C21_7 C 0.0000 0.2634(4) 0.1087(5)
H13_7 H -0.0000 0.2783 0.0555
C23_5 C 0.17426(17) 0.1894(2) 0.2867(3)
H17_5 H 0.2074 0.1712 0.2803
C24_5 C 0.13529(17) 0.1884(2) 0.2313(3)
H18_5 H 0.1362 0.1701 0.1801
C25_5 C 0.10940(16) 0.2385(2) 0.3385(3)
C26_5 C 0.04649(15) 0.2313(2) 0.2250(3)
C27_5 C 0.04654(18) 0.2522(2) 0.1483(3)
H19_5 H 0.0786 0.2591 0.1218
C28_5 C 0.07684(17) 0.2743(2) 0.3939(3)
H20_5 H 0.0989 0.2924 0.4350
H21_5 H 0.0590 0.3061 0.3640
H22_5 H 0.0510 0.2481 0.4192
N3_5 N 0.15819(13) 0.22067(17) 0.3531(2)
N4_5 N 0.09449(13) 0.21947(18) 0.2649(2)
C29_5 C 0.19568(17) 0.19256(18) 0.6017(3)
C30_5 C 0.16695(16) 0.15471(18) 0.6605(2)
C31_5 C 0.18087(17) 0.1567(2) 0.7408(2)
H23_5 H 0.2074 0.1834 0.7579
C32_5 C 0.15639(19) 0.1201(2) 0.7961(3)
H24_5 H 0.1648 0.1226 0.8513
C33_5 C 0.11934(18) 0.0798(2) 0.7689(3)
C34_5 C 0.1042(2) 0.0782(2) 0.6904(3)
H25_5 H 0.0777 0.0513 0.6736
C35_5 C 0.12788(19) 0.1162(2) 0.6357(3)
H26_5 H 0.1173 0.1157 0.5813
H30_5 H 0.1916 0.0047 0.7897
Cu2_2 Cu 0.21178(2) 0.24114(2) 0.44676(3)
O6_3 O 0.23885(11) 0.21415(13) 0.62124(17)
O7_5 O 0.17445(12) 0.19935(16) 0.53353(18)
O8_5 O 0.09502(13) 0.04104(14) 0.8231(2)
Cu5_2 Cu 0.28822(2) 0.25886(2) 0.55324(3)
O11_3 O 0.26115(11) 0.28585(13) 0.37876(17)
O14_3 O 0.25168(12) 0.16722(14) 0.4258(2)
O15_3 O 0.18398(11) 0.31799(13) 0.48617(18)
O10_3 O 0.18398(11) 0.81799(13) 0.01383(18)
Cu3_2 Cu 0.21178(2) 0.74114(2) 0.05324(3)
C36_5 C 0.12451(18) 0.9951(2) 0.8555(3)
C37_5 C 0.10069(18) 0.9613(2) 0.9133(3)
H27_5 H 0.0660 0.9700 0.9292
C38_5 C 0.12781(17) 0.91387(19) 0.9488(3)
H28_5 H 0.1118 0.8909 0.9898
C39_5 C 0.17828(16) 0.89996(19) 0.9244(3)
C40_5 C 0.20145(19) 0.9340(2) 0.8658(3)
H29_5 H 0.2359 0.9248 0.8494
C41_5 C 0.17536(19) 0.9816(2) 0.8304(3)
C42_5 C 0.20586(17) 0.84643(19) 0.9575(2)
O9_3 O 0.24832(12) 0.83278(14) 0.9258(2)
Cu8_2 Cu 0.28822(2) 0.75886(2) 0.94676(3)
C1_5 C 0.80432(17) 0.19256(18) 0.6017(3)
C2_5 C 0.83305(16) 0.15471(18) 0.6605(2)
C3_5 C 0.81913(17) 0.1567(2) 0.7408(2)
H1_5 H 0.7926 0.1834 0.7579
C4_5 C 0.84361(19) 0.1201(2) 0.7961(3)
H2_5 H 0.8352 0.1226 0.8513
C5_5 C 0.88066(18) 0.0798(2) 0.7689(3)
C6_5 C 0.8958(2) 0.0782(2) 0.6904(3)
H3_5 H 0.9223 0.0513 0.6736
C7_5 C 0.87212(19) 0.1162(2) 0.6357(3)
H4_5 H 0.8827 0.1157 0.5813
H8_5 H 0.8084 0.0047 0.7897
C15_5 C 0.82574(17) 0.1894(2) 0.2867(3)
H9_5 H 0.7926 0.1712 0.2803
C16_5 C 0.86471(17) 0.1884(2) 0.2313(3)
H10_5 H 0.8638 0.1701 0.1801
C17_5 C 0.89060(16) 0.2385(2) 0.3385(3)
C18_5 C 0.95351(15) 0.2313(2) 0.2250(3)
C19_8 C 1.0000 0.2187(3) 0.2640(4)
H11_8 H 1.0000 0.2019 0.3162
C20_5 C 0.95346(18) 0.2522(2) 0.1483(3)
H12_5 H 0.9214 0.2591 0.1218
C21_8 C 1.0000 0.2634(4) 0.1087(5)
H13_8 H 1.0000 0.2783 0.0555
C22_5 C 0.92316(17) 0.2743(2) 0.3939(3)
H14_5 H 0.9011 0.2924 0.4350
H15_5 H 0.9410 0.3061 0.3640
H16_5 H 0.9490 0.2481 0.4192
Cu1_2 Cu 0.78822(2) 0.24114(2) 0.44676(3)
N1_5 N 0.84181(13) 0.22067(17) 0.3531(2)
N2_5 N 0.90551(13) 0.21947(18) 0.2649(2)
O1_3 O 0.76115(11) 0.21415(13) 0.62124(17)
O2_5 O 0.82555(12) 0.19935(16) 0.53353(18)
O3_5 O 0.90498(13) 0.04104(14) 0.8231(2)
Cu7_2 Cu 0.71178(2) 0.25886(2) 0.55324(3)
O12_3 O 0.73885(11) 0.28585(13) 0.37876(17)
O13_3 O 0.74832(12) 0.16722(14) 0.4258(2)
O16_3 O 0.81602(11) 0.31799(13) 0.48617(18)
O5_3 O 0.81602(11) 0.81799(13) 0.01383(18)
Cu6_2 Cu 0.78822(2) 0.74114(2) 0.05324(3)
C8_5 C 0.87549(18) 0.9951(2) 0.8555(3)
C9_5 C 0.89931(18) 0.9613(2) 0.9133(3)
H5_5 H 0.9340 0.9700 0.9292
C10_5 C 0.87219(17) 0.91387(19) 0.9488(3)
H6_5 H 0.8882 0.8909 0.9898
C11_5 C 0.82172(16) 0.89996(19) 0.9244(3)
C12_5 C 0.79855(19) 0.9340(2) 0.8658(3)
H7_5 H 0.7641 0.9248 0.8494
C13_5 C 0.82464(19) 0.9816(2) 0.8304(3)
C14_5 C 0.79414(17) 0.84643(19) 0.9575(2)
O4_3 O 0.75168(12) 0.83278(14) 0.9258(2)
Cu4_2 Cu 0.71178(2) 0.75886(2) 0.94676(3)
C15_6 C 0.17426(17) 0.6894(2) 0.2133(3)
H9_6 H 0.2074 0.6712 0.2197
C16_6 C 0.13529(17) 0.6884(2) 0.2687(3)
H10_6 H 0.1362 0.6701 0.3199
C17_6 C 0.10940(16) 0.7385(2) 0.1615(3)
C18_6 C 0.04649(15) 0.7313(2) 0.2750(3)
C19_9 C 0.0000 0.7187(3) 0.2360(4)
H11_9 H 0.0000 0.7019 0.1838
C20_6 C 0.04654(18) 0.7522(2) 0.3517(3)
H12_6 H 0.0786 0.7591 0.3782
C21_9 C -0.0000 0.7634(4) 0.3913(5)
H13_9 H 0.0000 0.7783 0.4445
C22_6 C 0.07684(17) 0.7743(2) 0.1061(3)
H14_6 H 0.0989 0.7924 0.0650
H15_6 H 0.0590 0.8061 0.1360
H16_6 H 0.0510 0.7481 0.0808
N1_6 N 0.15819(13) 0.72067(17) 0.1469(2)
N2_6 N 0.09449(13) 0.71947(18) 0.2351(2)
O12_4 O 0.26115(11) 0.78585(13) 0.12124(17)
O13_4 O 0.25168(12) 0.66722(14) 0.0742(2)
C1_6 C 0.19568(17) 0.69256(18) 0.8983(3)
C2_6 C 0.16695(16) 0.65471(18) 0.8395(2)
C3_6 C 0.18087(17) 0.6567(2) 0.7592(2)
H1_6 H 0.2074 0.6834 0.7421
C4_6 C 0.15639(19) 0.6201(2) 0.7039(3)
H2_6 H 0.1648 0.6226 0.6487
C5_6 C 0.11934(18) 0.5798(2) 0.7311(3)
C6_6 C 0.1042(2) 0.5782(2) 0.8096(3)
H3_6 H 0.0777 0.5513 0.8264
C7_6 C 0.12788(19) 0.6162(2) 0.8643(3)
H4_6 H 0.1173 0.6157 0.9187
C8_6 C 0.12451(18) 0.4951(2) 0.6445(3)
C9_6 C 0.10069(18) 0.4613(2) 0.5867(3)
H5_6 H 0.0660 0.4700 0.5708
C10_6 C 0.12781(17) 0.41387(19) 0.5512(3)
H6_6 H 0.1118 0.3909 0.5102
C11_6 C 0.17828(16) 0.39996(19) 0.5756(3)
C12_6 C 0.20145(19) 0.4340(2) 0.6342(3)
H7_6 H 0.2359 0.4248 0.6506
C13_6 C 0.17536(19) 0.4816(2) 0.6696(3)
H8_6 H 0.1916 0.5047 0.7103
C14_6 C 0.20586(17) 0.34643(19) 0.5425(2)
O1_4 O 0.23885(11) 0.71415(13) 0.87876(17)
O2_6 O 0.17445(12) 0.69935(16) 0.96647(18)
O3_6 O 0.09502(13) 0.54104(14) 0.6769(2)
O4_4 O 0.24832(12) 0.33278(14) 0.5742(2)
C19_10 C 1.0000 0.7187(3) 0.2360(4)
H11_10 H 1.0000 0.7019 0.1838
C21_10 C 1.0000 0.7634(4) 0.3913(5)
H13_10 H 1.0000 0.7783 0.4445
C23_6 C 0.82574(17) 0.6894(2) 0.2133(3)
H17_6 H 0.7926 0.6712 0.2197
C24_6 C 0.86471(17) 0.6884(2) 0.2687(3)
H18_6 H 0.8638 0.6701 0.3199
C25_6 C 0.89060(16) 0.7385(2) 0.1615(3)
C26_6 C 0.95351(15) 0.7313(2) 0.2750(3)
C27_6 C 0.95346(18) 0.7522(2) 0.3517(3)
H19_6 H 0.9214 0.7591 0.3782
C28_6 C 0.92316(17) 0.7743(2) 0.1061(3)
H20_6 H 0.9011 0.7924 0.0650
H21_6 H 0.9410 0.8061 0.1360
H22_6 H 0.9490 0.7481 0.0808
N3_6 N 0.84181(13) 0.72067(17) 0.1469(2)
N4_6 N 0.90551(13) 0.71947(18) 0.2351(2)
O11_4 O 0.73885(11) 0.78585(13) 0.12124(17)
O14_4 O 0.74832(12) 0.66722(14) 0.0742(2)
C29_6 C 0.80432(17) 0.69256(18) 0.8983(3)
C30_6 C 0.83305(16) 0.65471(18) 0.8395(2)
C31_6 C 0.81913(17) 0.6567(2) 0.7592(2)
H23_6 H 0.7926 0.6834 0.7421
C32_6 C 0.84361(19) 0.6201(2) 0.7039(3)
H24_6 H 0.8352 0.6226 0.6487
C33_6 C 0.88066(18) 0.5798(2) 0.7311(3)
C34_6 C 0.8958(2) 0.5782(2) 0.8096(3)
H25_6 H 0.9223 0.5513 0.8264
C35_6 C 0.87212(19) 0.6162(2) 0.8643(3)
H26_6 H 0.8827 0.6157 0.9187
C36_6 C 0.87549(18) 0.4951(2) 0.6445(3)
C37_6 C 0.89931(18) 0.4613(2) 0.5867(3)
H27_6 H 0.9340 0.4700 0.5708
C38_6 C 0.87219(17) 0.41387(19) 0.5512(3)
H28_6 H 0.8882 0.3909 0.5102
C39_6 C 0.82172(16) 0.39996(19) 0.5756(3)
C40_6 C 0.79855(19) 0.4340(2) 0.6342(3)
H29_6 H 0.7641 0.4248 0.6506
C41_6 C 0.82464(19) 0.4816(2) 0.6696(3)
H30_6 H 0.8084 0.5047 0.7103
C42_6 C 0.79414(17) 0.34643(19) 0.5425(2)
O6_4 O 0.76115(11) 0.71415(13) 0.87876(17)
O7_6 O 0.82555(12) 0.69935(16) 0.96647(18)
O8_6 O 0.90498(13) 0.54104(14) 0.6769(2)
O9_4 O 0.75168(12) 0.33278(14) 0.5742(2)
C8_7 C 0.62451(18) 0.0049(2) 0.3555(3)
C9_7 C 0.60069(18) 0.0387(2) 0.4133(3)
H5_7 H 0.5660 0.0300 0.4292
C10_7 C 0.62781(17) 0.08613(19) 0.4488(3)
H6_7 H 0.6118 0.1091 0.4898
C11_7 C 0.67828(16) 0.10004(19) 0.4244(3)
C12_7 C 0.70145(19) 0.0660(2) 0.3658(3)
H7_7 H 0.7359 0.0752 0.3494
C13_7 C 0.67536(19) 0.0184(2) 0.3304(3)
C14_7 C 0.70586(17) 0.15357(19) 0.4575(2)
O5_4 O 0.68398(11) 0.18201(13) 0.51383(18)
C36_7 C 0.37549(18) 0.0049(2) 0.3555(3)
C37_7 C 0.39931(18) 0.0387(2) 0.4133(3)
H27_7 H 0.4340 0.0300 0.4292
C38_7 C 0.37219(17) 0.08613(19) 0.4488(3)
H28_7 H 0.3882 0.1091 0.4898
C39_7 C 0.32172(16) 0.10004(19) 0.4244(3)
C40_7 C 0.29855(19) 0.0660(2) 0.3658(3)
H29_7 H 0.2641 0.0752 0.3494
C41_7 C 0.32464(19) 0.0184(2) 0.3304(3)
C42_7 C 0.29414(17) 0.15357(19) 0.4575(2)
O10_4 O 0.31602(11) 0.18201(13) 0.51383(18)
C1_7 C 0.69568(17) 0.80744(18) 0.1017(3)
C2_7 C 0.66695(16) 0.84529(18) 0.1605(2)
C3_7 C 0.68087(17) 0.8433(2) 0.2408(2)
H1_7 H 0.7074 0.8166 0.2579
C4_7 C 0.65639(19) 0.8799(2) 0.2961(3)
H2_7 H 0.6648 0.8774 0.3513
C5_7 C 0.61934(18) 0.9202(2) 0.2689(3)
C6_7 C 0.6042(2) 0.9218(2) 0.1904(3)
H3_7 H 0.5777 0.9487 0.1736
C7_7 C 0.62788(19) 0.8838(2) 0.1357(3)
H4_7 H 0.6173 0.8843 0.0813
H8_7 H 0.6916 0.9953 0.2897
O2_7 O 0.67445(12) 0.80065(16) 0.03353(18)
O3_7 O 0.59502(13) 0.95896(14) 0.3231(2)
C29_7 C 0.30432(17) 0.80744(18) 0.1017(3)
C30_7 C 0.33305(16) 0.84529(18) 0.1605(2)
C31_7 C 0.31913(17) 0.8433(2) 0.2408(2)
H23_7 H 0.2926 0.8166 0.2579
C32_7 C 0.34361(19) 0.8799(2) 0.2961(3)
H24_7 H 0.3352 0.8774 0.3513
C33_7 C 0.38066(18) 0.9202(2) 0.2689(3)
C34_7 C 0.3958(2) 0.9218(2) 0.1904(3)
H25_7 H 0.4223 0.9487 0.1736
C35_7 C 0.37212(19) 0.8838(2) 0.1357(3)
H26_7 H 0.3827 0.8843 0.0813
H30_7 H 0.3084 0.9953 0.2897
O7_7 O 0.32555(12) 0.80065(16) 0.03353(18)
O8_7 O 0.40498(13) 0.95896(14) 0.3231(2)
C15_7 C 0.67426(17) 0.8106(2) 0.7867(3)
H9_7 H 0.7074 0.8288 0.7803
C16_7 C 0.63529(17) 0.8116(2) 0.7313(3)
H10_7 H 0.6362 0.8299 0.6801
C17_7 C 0.60940(16) 0.7615(2) 0.8385(3)
C18_7 C 0.54649(15) 0.7687(2) 0.7250(3)
C19_11 C 0.5000 0.7813(3) 0.7640(4)
H11_11 H 0.5000 0.7981 0.8162
C20_7 C 0.54654(18) 0.7478(2) 0.6483(3)
H12_7 H 0.5786 0.7409 0.6218
C21_11 C 0.5000 0.7366(4) 0.6087(5)
H13_11 H 0.5000 0.7217 0.5555
C22_7 C 0.57684(17) 0.7257(2) 0.8939(3)
H14_7 H 0.5989 0.7076 0.9350
H15_7 H 0.5590 0.6939 0.8640
H16_7 H 0.5510 0.7519 0.9192
N1_7 N 0.65819(13) 0.77933(17) 0.8531(2)
N2_7 N 0.59449(13) 0.78053(18) 0.7649(2)
C23_7 C 0.32574(17) 0.8106(2) 0.7867(3)
H17_7 H 0.2926 0.8288 0.7803
C24_7 C 0.36471(17) 0.8116(2) 0.7313(3)
H18_7 H 0.3638 0.8299 0.6801
C25_7 C 0.39060(16) 0.7615(2) 0.8385(3)
C26_7 C 0.45351(15) 0.7687(2) 0.7250(3)
C27_7 C 0.45346(18) 0.7478(2) 0.6483(3)
H19_7 H 0.4214 0.7409 0.6218
C28_7 C 0.42316(17) 0.7257(2) 0.8939(3)
H20_7 H 0.4011 0.7076 0.9350
H21_7 H 0.4410 0.6939 0.8640
H22_7 H 0.4490 0.7519 0.9192
N3_7 N 0.34181(13) 0.77933(17) 0.8531(2)
N4_7 N 0.40551(13) 0.78053(18) 0.7649(2)
O15_4 O 0.31602(11) 0.68201(13) 0.98617(18)
O16_4 O 0.68398(11) 0.68201(13) 0.98617(18)
C1_8 C 0.30432(17) 0.30744(18) 0.3983(3)
C2_8 C 0.33305(16) 0.34529(18) 0.3395(2)
C3_8 C 0.31913(17) 0.3433(2) 0.2592(2)
H1_8 H 0.2926 0.3166 0.2421
C4_8 C 0.34361(19) 0.3799(2) 0.2039(3)
H2_8 H 0.3352 0.3774 0.1487
C5_8 C 0.38066(18) 0.4202(2) 0.2311(3)
C6_8 C 0.3958(2) 0.4218(2) 0.3096(3)
H3_8 H 0.4223 0.4487 0.3264
C7_8 C 0.37212(19) 0.3838(2) 0.3643(3)
H4_8 H 0.3827 0.3843 0.4187
C8_8 C 0.37549(18) 0.5049(2) 0.1445(3)
C9_8 C 0.39931(18) 0.5387(2) 0.0867(3)
H5_8 H 0.4340 0.5300 0.0708
C10_8 C 0.37219(17) 0.58613(19) 0.0512(3)
H6_8 H 0.3882 0.6091 0.0102
C11_8 C 0.32172(16) 0.60004(19) 0.0756(3)
C12_8 C 0.29855(19) 0.5660(2) 0.1342(3)
H7_8 H 0.2641 0.5752 0.1506
C13_8 C 0.32464(19) 0.5184(2) 0.1696(3)
H8_8 H 0.3084 0.4953 0.2103
C14_8 C 0.29414(17) 0.65357(19) 0.0425(2)
C15_8 C 0.32574(17) 0.3106(2) 0.7133(3)
H9_8 H 0.2926 0.3288 0.7197
C16_8 C 0.36471(17) 0.3116(2) 0.7687(3)
H10_8 H 0.3638 0.3299 0.8199
C17_8 C 0.39060(16) 0.2615(2) 0.6615(3)
C18_8 C 0.45351(15) 0.2687(2) 0.7750(3)
C19_12 C 0.5000 0.2813(3) 0.7360(4)
H11_12 H 0.5000 0.2981 0.6838
C20_8 C 0.45346(18) 0.2478(2) 0.8517(3)
H12_8 H 0.4214 0.2409 0.8782
C21_12 C 0.5000 0.2366(4) 0.8913(5)
H13_12 H 0.5000 0.2217 0.9445
C22_8 C 0.42316(17) 0.2257(2) 0.6061(3)
H14_8 H 0.4011 0.2076 0.5650
H15_8 H 0.4410 0.1939 0.6360
H16_8 H 0.4490 0.2519 0.5808
N1_8 N 0.34181(13) 0.27933(17) 0.6469(2)
N2_8 N 0.40551(13) 0.28053(18) 0.7351(2)
O2_8 O 0.32555(12) 0.30065(16) 0.46647(18)
O3_8 O 0.40498(13) 0.45896(14) 0.1769(2)
C23_8 C 0.67426(17) 0.3106(2) 0.7133(3)
H17_8 H 0.7074 0.3288 0.7197
C24_8 C 0.63529(17) 0.3116(2) 0.7687(3)
H18_8 H 0.6362 0.3299 0.8199
C25_8 C 0.60940(16) 0.2615(2) 0.6615(3)
C26_8 C 0.54649(15) 0.2687(2) 0.7750(3)
C27_8 C 0.54654(18) 0.2478(2) 0.8517(3)
H19_8 H 0.5786 0.2409 0.8782
C28_8 C 0.57684(17) 0.2257(2) 0.6061(3)
H20_8 H 0.5989 0.2076 0.5650
H21_8 H 0.5590 0.1939 0.6360
H22_8 H 0.5510 0.2519 0.5808
N3_8 N 0.65819(13) 0.27933(17) 0.6469(2)
N4_8 N 0.59449(13) 0.28053(18) 0.7351(2)
C29_8 C 0.69568(17) 0.30744(18) 0.3983(3)
C30_8 C 0.66695(16) 0.34529(18) 0.3395(2)
C31_8 C 0.68087(17) 0.3433(2) 0.2592(2)
H23_8 H 0.7074 0.3166 0.2421
C32_8 C 0.65639(19) 0.3799(2) 0.2039(3)
H24_8 H 0.6648 0.3774 0.1487
C33_8 C 0.61934(18) 0.4202(2) 0.2311(3)
C34_8 C 0.6042(2) 0.4218(2) 0.3096(3)
H25_8 H 0.5777 0.4487 0.3264
C35_8 C 0.62788(19) 0.3838(2) 0.3643(3)
H26_8 H 0.6173 0.3843 0.4187
C36_8 C 0.62451(18) 0.5049(2) 0.1445(3)
C37_8 C 0.60069(18) 0.5387(2) 0.0867(3)
H27_8 H 0.5660 0.5300 0.0708
C38_8 C 0.62781(17) 0.58613(19) 0.0512(3)
H28_8 H 0.6118 0.6091 0.0102
C39_8 C 0.67828(16) 0.60004(19) 0.0756(3)
C40_8 C 0.70145(19) 0.5660(2) 0.1342(3)
H29_8 H 0.7359 0.5752 0.1506
C41_8 C 0.67536(19) 0.5184(2) 0.1696(3)
H30_8 H 0.6916 0.4953 0.2103
C42_8 C 0.70586(17) 0.65357(19) 0.0425(2)
O7_8 O 0.67445(12) 0.30065(16) 0.46647(18)
O8_8 O 0.59502(13) 0.45896(14) 0.1769(2)
loop_
_geom_bond_atom_site_label_1
_geom_bond_atom_site_label_2
_geom_bond_site_symmetry_1
_geom_bond_site_symmetry_2
C1 C2 1_555 1_555
C2 C3 1_555 1_555
C3 H1 1_555 1_555
C4 C3 1_555 1_555
H2 C4 1_555 1_555
C5 C4 1_555 1_555
C6 C5 1_555 1_555
H3 C6 1_555 1_555
C7 C2 1_555 1_555
H4 C7 1_555 1_555
C8 C9 1_555 1_555
C9 H5 1_555 1_555
C10 C9 1_555 1_555
H6 C10 1_555 1_555
C11 C10 1_555 1_555
C12 C11 1_555 1_555
H7 C12 1_555 1_555
C13 C8 1_555 1_555
H8 C13 1_555 1_555
C14 C11 1_555 1_555
O1 C1 1_555 1_555
O2 C1 1_555 1_555
O3 C5 1_555 1_555
O4 C14 1_555 1_555
O5 C14 1_555 1_555
Cu4 O4 1_555 1_555
Cu6 O5 1_555 1_555
Cu7 O1 1_555 1_555
C6 C7 1_555 1_555
C8 O3 1_555 1_555
C12 C13 1_555 1_555
C15 H9 1_555 1_555
C16 C15 1_555 1_555
H10 C16 1_555 1_555
C17 C22 1_555 1_555
C18 C19 1_555 1_555
C19 H11 1_555 1_555
C20 C18 1_555 1_555
H12 C20 1_555 1_555
C21 C20 1_555 1_555
H13 C21 1_555 1_555
C22 H14 1_555 1_555
H15 C22 1_555 1_555
H16 C22 1_555 1_555
Cu1 N1 1_555 1_555
N1 C15 1_555 1_555
N2 C16 1_555 1_555
O12 Cu1 1_555 1_555
O13 Cu1 1_555 1_555
O16 Cu1 1_555 1_555
C17 N1 1_555 1_555
C17 N2 1_555 1_555
C18 N2 1_555 1_555
C29 C30 1_555 1_555
C30 C31 1_555 1_555
C31 H23 1_555 1_555
C32 C31 1_555 1_555
H24 C32 1_555 1_555
C33 C32 1_555 1_555
C34 C33 1_555 1_555
H25 C34 1_555 1_555
C35 C30 1_555 1_555
H26 C35 1_555 1_555
C36 C37 1_555 1_555
C37 H27 1_555 1_555
C38 C37 1_555 1_555
H28 C38 1_555 1_555
C39 C38 1_555 1_555
C40 C39 1_555 1_555
H29 C40 1_555 1_555
C41 C36 1_555 1_555
H30 C41 1_555 1_555
C42 C39 1_555 1_555
O6 C29 1_555 1_555
O7 C29 1_555 1_555
O8 C33 1_555 1_555
O9 C42 1_555 1_555
O10 C42 1_555 1_555
Cu3 O10 1_555 1_555
Cu5 O6 1_555 1_555
Cu8 O9 1_555 1_555
C34 C35 1_555 1_555
C36 O8 1_555 1_555
C40 C41 1_555 1_555
C19_2 H11_2 1_555 1_555
H13_2 C21_2 1_555 1_555
C23 H17 1_555 1_555
C24 C23 1_555 1_555
H18 C24 1_555 1_555
C25 C28 1_555 1_555
C26 C19_2 1_555 1_555
C27 C21_2 1_555 1_555
H19 C27 1_555 1_555
C28 H20 1_555 1_555
H21 C28 1_555 1_555
H22 C28 1_555 1_555
N3 C23 1_555 1_555
N4 C24 1_555 1_555
Cu2 N3 1_555 1_555
O11 Cu2 1_555 1_555
O14 Cu2 1_555 1_555
O15 Cu2 1_555 1_555
C25 N3 1_555 1_555
C25 N4 1_555 1_555
C26 C27 1_555 1_555
C26 N4 1_555 1_555
C36_2 C37_2 1_555 1_555
C37_2 H27_2 1_555 1_555
C38_2 C37_2 1_555 1_555
H28_2 C38_2 1_555 1_555
C39_2 C38_2 1_555 1_555
C40_2 C39_2 1_555 1_555
H29_2 C40_2 1_555 1_555
C41_2 C36_2 1_555 1_555
C42_2 C39_2 1_555 1_555
O9_2 C42_2 1_555 1_555
Cu7 O9_2 1_555 1_555
C40_2 C41_2 1_555 1_555
C19_3 H11_3 1_555 1_555
H13_3 C21_3 1_555 1_555
C23_2 H17_2 1_555 1_555
C24_2 C23_2 1_555 1_555
H18_2 C24_2 1_555 1_555
C25_2 C28_2 1_555 1_555
C26_2 C19_3 1_555 1_555
C27_2 C21_3 1_555 1_555
H19_2 C27_2 1_555 1_555
C28_2 H20_2 1_555 1_555
H21_2 C28_2 1_555 1_555
H22_2 C28_2 1_555 1_555
N3_2 C23_2 1_555 1_555
N4_2 C24_2 1_555 1_555
C29_2 C30_2 1_555 1_555
C30_2 C31_2 1_555 1_555
C31_2 H23_2 1_555 1_555
C32_2 C31_2 1_555 1_555
H24_2 C32_2 1_555 1_555
C33_2 C32_2 1_555 1_555
C34_2 C33_2 1_555 1_555
H25_2 C34_2 1_555 1_555
C35_2 C30_2 1_555 1_555
H26_2 C35_2 1_555 1_555
Cu6 N3_2 1_555 1_555
O6_2 C29_2 1_555 1_555
O7_2 C29_2 1_555 1_555
O8_2 C33_2 1_555 1_555
Cu4 O6_2 1_555 1_555
O11_2 Cu6 1_555 1_555
O14_2 Cu6 1_555 1_555
C25_2 N3_2 1_555 1_555
C25_2 N4_2 1_555 1_555
C26_2 C27_2 1_555 1_555
C26_2 N4_2 1_555 1_555
C34_2 C35_2 1_555 1_555
Cu6 O7_2 1_555 1_555
C8_2 C9_2 1_555 1_555
C9_2 H5_2 1_555 1_555
C10_2 C9_2 1_555 1_555
H6_2 C10_2 1_555 1_555
C11_2 C10_2 1_555 1_555
C12_2 C11_2 1_555 1_555
H7_2 C12_2 1_555 1_555
C13_2 C8_2 1_555 1_555
C14_2 C11_2 1_555 1_555
O4_2 C14_2 1_555 1_555
Cu5 O4_2 1_555 1_555
C12_2 C13_2 1_555 1_555
C1_2 C2_2 1_555 1_555
C2_2 C3_2 1_555 1_555
C3_2 H1_2 1_555 1_555
C4_2 C3_2 1_555 1_555
H2_2 C4_2 1_555 1_555
C5_2 C4_2 1_555 1_555
C6_2 C5_2 1_555 1_555
H3_2 C6_2 1_555 1_555
C7_2 C2_2 1_555 1_555
H4_2 C7_2 1_555 1_555
C15_2 H9_2 1_555 1_555
C16_2 C15_2 1_555 1_555
H10_2 C16_2 1_555 1_555
C17_2 C22_2 1_555 1_555
C18_2 C19_4 1_555 1_555
C19_4 H11_4 1_555 1_555
C20_2 C18_2 1_555 1_555
H12_2 C20_2 1_555 1_555
C21_4 C20_2 1_555 1_555
H13_4 C21_4 1_555 1_555
C22_2 H14_2 1_555 1_555
H15_2 C22_2 1_555 1_555
H16_2 C22_2 1_555 1_555
Cu3 N1_2 1_555 1_555
N1_2 C15_2 1_555 1_555
N2_2 C16_2 1_555 1_555
O1_2 C1_2 1_555 1_555
O2_2 C1_2 1_555 1_555
O3_2 C5_2 1_555 1_555
Cu8 O1_2 1_555 1_555
O12_2 Cu3 1_555 1_555
O13_2 Cu3 1_555 1_555
C6_2 C7_2 1_555 1_555
C17_2 N1_2 1_555 1_555
C17_2 N2_2 1_555 1_555
C18_2 N2_2 1_555 1_555
Cu3 O2_2 1_555 1_555
Cu5 O10_2 1_555 1_555
Cu7 O5_2 1_555 1_555
C1_3 C2_3 1_555 1_555
C2_3 C3_3 1_555 1_555
C3_3 H1_3 1_555 1_555
C4_3 C3_3 1_555 1_555
H2_3 C4_3 1_555 1_555
C5_3 C4_3 1_555 1_555
C6_3 C5_3 1_555 1_555
H3_3 C6_3 1_555 1_555
C7_3 C2_3 1_555 1_555
H4_3 C7_3 1_555 1_555
C8_3 C9_3 1_555 1_555
C9_3 H5_3 1_555 1_555
C10_3 C9_3 1_555 1_555
H6_3 C10_3 1_555 1_555
C11_3 C10_3 1_555 1_555
C12_3 C11_3 1_555 1_555
H7_3 C12_3 1_555 1_555
C13_3 C8_3 1_555 1_555
H8_3 C13_3 1_555 1_555
C14_3 C11_3 1_555 1_555
C15_3 H9_3 1_555 1_555
C16_3 C15_3 1_555 1_555
H10_3 C16_3 1_555 1_555
C17_3 C22_3 1_555 1_555
C18_3 C19_5 1_555 1_555
C19_5 H11_5 1_555 1_555
C20_3 C18_3 1_555 1_555
H12_3 C20_3 1_555 1_555
C21_5 C20_3 1_555 1_555
H13_5 C21_5 1_555 1_555
C22_3 H14_3 1_555 1_555
H15_3 C22_3 1_555 1_555
H16_3 C22_3 1_555 1_555
Cu4 N1_3 1_555 1_555
N1_3 C15_3 1_555 1_555
N2_3 C16_3 1_555 1_555
O11_2 C1_3 1_555 1_555
O2_3 C1_3 1_555 1_555
O3_3 C5_3 1_555 1_555
O13 C14_3 1_555 1_555
C23_3 H17_3 1_555 1_555
C24_3 C23_3 1_555 1_555
H18_3 C24_3 1_555 1_555
C25_3 C28_3 1_555 1_555
C26_3 C19_5 1_555 1_555
C27_3 C21_5 1_555 1_555
H19_3 C27_3 1_555 1_555
C28_3 H20_3 1_555 1_555
H21_3 C28_3 1_555 1_555
H22_3 C28_3 1_555 1_555
N3_3 C23_3 1_555 1_555
N4_3 C24_3 1_555 1_555
C29_3 C30_3 1_555 1_555
C30_3 C31_3 1_555 1_555
C31_3 H23_3 1_555 1_555
C32_3 C31_3 1_555 1_555
H24_3 C32_3 1_555 1_555
C33_3 C32_3 1_555 1_555
C34_3 C33_3 1_555 1_555
H25_3 C34_3 1_555 1_555
C35_3 C30_3 1_555 1_555
H26_3 C35_3 1_555 1_555
C36_3 C37_3 1_555 1_555
C37_3 H27_3 1_555 1_555
C38_3 C37_3 1_555 1_555
H28_3 C38_3 1_555 1_555
C39_3 C38_3 1_555 1_555
C40_3 C39_3 1_555 1_555
H29_3 C40_3 1_555 1_555
C41_3 C36_3 1_555 1_555
H30_3 C41_3 1_555 1_555
C42_3 C39_3 1_555 1_555
Cu8 N3_3 1_555 1_555
O12_2 C29_3 1_555 1_555
O7_3 C29_3 1_555 1_555
O8_3 C33_3 1_555 1_555
O14 C42_3 1_555 1_555
O15_2 Cu8 1_555 1_555
O16_2 Cu4 1_555 1_555
C6_3 C7_3 1_555 1_555
C8_3 O3_3 1_555 1_555
C12_3 C13_3 1_555 1_555
C17_3 N1_3 1_555 1_555
C17_3 N2_3 1_555 1_555
C18_3 N2_3 1_555 1_555
Cu4 O2_3 1_555 1_555
C25_3 N3_3 1_555 1_555
C25_3 N4_3 1_555 1_555
C26_3 C27_3 1_555 1_555
C26_3 N4_3 1_555 1_555
C34_3 C35_3 1_555 1_555
C36_3 O8_3 1_555 1_555
C40_3 C41_3 1_555 1_555
Cu8 O7_3 1_555 1_555
C15_4 H9_4 1_555 1_555
C16_4 C15_4 1_555 1_555
H10_4 C16_4 1_555 1_555
C17_4 C22_4 1_555 1_555
C18_4 C19_6 1_555 1_555
C19_6 H11_6 1_555 1_555
C20_4 C18_4 1_555 1_555
H12_4 C20_4 1_555 1_555
C21_6 C20_4 1_555 1_555
H13_6 C21_6 1_555 1_555
C22_4 H14_4 1_555 1_555
H15_4 C22_4 1_555 1_555
H16_4 C22_4 1_555 1_555
Cu5 N1_4 1_555 1_555
N1_4 C15_4 1_555 1_555
N2_4 C16_4 1_555 1_555
C23_4 H17_4 1_555 1_555
C24_4 C23_4 1_555 1_555
H18_4 C24_4 1_555 1_555
C25_4 C28_4 1_555 1_555
C26_4 C19_6 1_555 1_555
C27_4 C21_6 1_555 1_555
H19_4 C27_4 1_555 1_555
C28_4 H20_4 1_555 1_555
H21_4 C28_4 1_555 1_555
H22_4 C28_4 1_555 1_555
N3_4 C23_4 1_555 1_555
N4_4 C24_4 1_555 1_555
Cu7 N3_4 1_555 1_555
C17_4 N1_4 1_555 1_555
C17_4 N2_4 1_555 1_555
C18_4 N2_4 1_555 1_555
C25_4 N3_4 1_555 1_555
C25_4 N4_4 1_555 1_555
C26_4 C27_4 1_555 1_555
C26_4 N4_4 1_555 1_555
C1_4 C2_4 1_555 1_555
C2_4 C3_4 1_555 1_555
C3_4 H1_4 1_555 1_555
C4_4 C3_4 1_555 1_555
H2_4 C4_4 1_555 1_555
C5_4 C4_4 1_555 1_555
C6_4 C5_4 1_555 1_555
H3_4 C6_4 1_555 1_555
C7_4 C2_4 1_555 1_555
H4_4 C7_4 1_555 1_555
O11 C1_4 1_555 1_555
O2_4 C1_4 1_555 1_555
O3_4 C5_4 1_555 1_555
C29_4 C30_4 1_555 1_555
C30_4 C31_4 1_555 1_555
C31_4 H23_4 1_555 1_555
C32_4 C31_4 1_555 1_555
H24_4 C32_4 1_555 1_555
C33_4 C32_4 1_555 1_555
C34_4 C33_4 1_555 1_555
H25_4 C34_4 1_555 1_555
C35_4 C30_4 1_555 1_555
H26_4 C35_4 1_555 1_555
O12 C29_4 1_555 1_555
O7_4 C29_4 1_555 1_555
O8_4 C33_4 1_555 1_555
C6_4 C7_4 1_555 1_555
C34_4 C35_4 1_555 1_555
C8_4 C9_4 1_555 1_555
C9_4 H5_4 1_555 1_555
C10_4 C9_4 1_555 1_555
H6_4 C10_4 1_555 1_555
C11_4 C10_4 1_555 1_555
C12_4 C11_4 1_555 1_555
H7_4 C12_4 1_555 1_555
C13_4 C8_4 1_555 1_555
C14_4 C11_4 1_555 1_555
O13_2 C14_4 1_555 1_555
O15_2 C14_4 1_555 1_555
C36_4 C37_4 1_555 1_555
C37_4 H27_4 1_555 1_555
C38_4 C37_4 1_555 1_555
H28_4 C38_4 1_555 1_555
C39_4 C38_4 1_555 1_555
C40_4 C39_4 1_555 1_555
H29_4 C40_4 1_555 1_555
C41_4 C36_4 1_555 1_555
C42_4 C39_4 1_555 1_555
O14_2 C42_4 1_555 1_555
O16_2 C42_4 1_555 1_555
C12_4 C13_4 1_555 1_555
C40_4 C41_4 1_555 1_555
C19_7 H11_7 1_555 1_555
H13_7 C21_7 1_555 1_555
C23_5 H17_5 1_555 1_555
C24_5 C23_5 1_555 1_555
H18_5 C24_5 1_555 1_555
C25_5 C28_5 1_555 1_555
C26_5 C19_7 1_555 1_555
C27_5 C21_7 1_555 1_555
H19_5 C27_5 1_555 1_555
C28_5 H20_5 1_555 1_555
H21_5 C28_5 1_555 1_555
H22_5 C28_5 1_555 1_555
N3_5 C23_5 1_555 1_555
N4_5 C24_5 1_555 1_555
C29_5 C30_5 1_555 1_555
C30_5 C31_5 1_555 1_555
C31_5 H23_5 1_555 1_555
C32_5 C31_5 1_555 1_555
H24_5 C32_5 1_555 1_555
C33_5 C32_5 1_555 1_555
C34_5 C33_5 1_555 1_555
H25_5 C34_5 1_555 1_555
C35_5 C30_5 1_555 1_555
H26_5 C35_5 1_555 1_555
Cu2_2 N3_5 1_555 1_555
O6_3 C29_5 1_555 1_555
O7_5 C29_5 1_555 1_555
O8_5 C33_5 1_555 1_555
Cu5_2 O6_3 1_555 1_555
O11_3 Cu2_2 1_555 1_555
O14_3 Cu2_2 1_555 1_555
O15_3 Cu2_2 1_555 1_555
C25_5 N3_5 1_555 1_555
C25_5 N4_5 1_555 1_555
C26_5 C27_5 1_555 1_555
C26_5 N4_5 1_555 1_555
C34_5 C35_5 1_555 1_555
Cu2_2 O7_5 1_555 1_555
Cu3_2 O10_3 1_555 1_555
C36_5 C37_5 1_555 1_555
C37_5 H27_5 1_555 1_555
C38_5 C37_5 1_555 1_555
H28_5 C38_5 1_555 1_555
C39_5 C38_5 1_555 1_555
C40_5 C39_5 1_555 1_555
H29_5 C40_5 1_555 1_555
C41_5 C36_5 1_555 1_555
C42_5 C39_5 1_555 1_555
O9_3 C42_5 1_555 1_555
Cu8_2 O9_3 1_555 1_555
C40_5 C41_5 1_555 1_555
C1_5 C2_5 1_555 1_555
C2_5 C3_5 1_555 1_555
C3_5 H1_5 1_555 1_555
C4_5 C3_5 1_555 1_555
H2_5 C4_5 1_555 1_555
C5_5 C4_5 1_555 1_555
C6_5 C5_5 1_555 1_555
H3_5 C6_5 1_555 1_555
C7_5 C2_5 1_555 1_555
H4_5 C7_5 1_555 1_555
C15_5 H9_5 1_555 1_555
C16_5 C15_5 1_555 1_555
H10_5 C16_5 1_555 1_555
C17_5 C22_5 1_555 1_555
C18_5 C19_8 1_555 1_555
C19_8 H11_8 1_555 1_555
C20_5 C18_5 1_555 1_555
H12_5 C20_5 1_555 1_555
C21_8 C20_5 1_555 1_555
H13_8 C21_8 1_555 1_555
C22_5 H14_5 1_555 1_555
H15_5 C22_5 1_555 1_555
H16_5 C22_5 1_555 1_555
Cu1_2 N1_5 1_555 1_555
N1_5 C15_5 1_555 1_555
N2_5 C16_5 1_555 1_555
O1_3 C1_5 1_555 1_555
O2_5 C1_5 1_555 1_555
O3_5 C5_5 1_555 1_555
Cu7_2 O1_3 1_555 1_555
O12_3 Cu1_2 1_555 1_555
O13_3 Cu1_2 1_555 1_555
O16_3 Cu1_2 1_555 1_555
C6_5 C7_5 1_555 1_555
C17_5 N1_5 1_555 1_555
C17_5 N2_5 1_555 1_555
C18_5 N2_5 1_555 1_555
Cu1_2 O2_5 1_555 1_555
Cu6_2 O5_3 1_555 1_555
C8_5 C9_5 1_555 1_555
C9_5 H5_5 1_555 1_555
C10_5 C9_5 1_555 1_555
H6_5 C10_5 1_555 1_555
C11_5 C10_5 1_555 1_555
C12_5 C11_5 1_555 1_555
H7_5 C12_5 1_555 1_555
C13_5 C8_5 1_555 1_555
C14_5 C11_5 1_555 1_555
O4_3 C14_5 1_555 1_555
Cu4_2 O4_3 1_555 1_555
C12_5 C13_5 1_555 1_555
C15_6 H9_6 1_555 1_555
C16_6 C15_6 1_555 1_555
H10_6 C16_6 1_555 1_555
C17_6 C22_6 1_555 1_555
C18_6 C19_9 1_555 1_555
C19_9 H11_9 1_555 1_555
C20_6 C18_6 1_555 1_555
H12_6 C20_6 1_555 1_555
C21_9 C20_6 1_555 1_555
H13_9 C21_9 1_555 1_555
C22_6 H14_6 1_555 1_555
H15_6 C22_6 1_555 1_555
H16_6 C22_6 1_555 1_555
Cu3_2 N1_6 1_555 1_555
N1_6 C15_6 1_555 1_555
N2_6 C16_6 1_555 1_555
O12_4 Cu3_2 1_555 1_555
O13_4 Cu3_2 1_555 1_555
C17_6 N1_6 1_555 1_555
C17_6 N2_6 1_555 1_555
C18_6 N2_6 1_555 1_555
C1_6 C2_6 1_555 1_555
C2_6 C3_6 1_555 1_555
C3_6 H1_6 1_555 1_555
C4_6 C3_6 1_555 1_555
H2_6 C4_6 1_555 1_555
C5_6 C4_6 1_555 1_555
C6_6 C5_6 1_555 1_555
H3_6 C6_6 1_555 1_555
C7_6 C2_6 1_555 1_555
H4_6 C7_6 1_555 1_555
C8_6 C9_6 1_555 1_555
C9_6 H5_6 1_555 1_555
C10_6 C9_6 1_555 1_555
H6_6 C10_6 1_555 1_555
C11_6 C10_6 1_555 1_555
C12_6 C11_6 1_555 1_555
H7_6 C12_6 1_555 1_555
C13_6 C8_6 1_555 1_555
H8_6 C13_6 1_555 1_555
C14_6 C11_6 1_555 1_555
O1_4 C1_6 1_555 1_555
O2_6 C1_6 1_555 1_555
O3_6 C5_6 1_555 1_555
O4_4 C14_6 1_555 1_555
O15_3 C14_6 1_555 1_555
Cu5_2 O4_4 1_555 1_555
Cu8_2 O1_4 1_555 1_555
C6_6 C7_6 1_555 1_555
C8_6 O3_6 1_555 1_555
C12_6 C13_6 1_555 1_555
C19_10 H11_10 1_555 1_555
H13_10 C21_10 1_555 1_555
C23_6 H17_6 1_555 1_555
C24_6 C23_6 1_555 1_555
H18_6 C24_6 1_555 1_555
C25_6 C28_6 1_555 1_555
C26_6 C19_10 1_555 1_555
C27_6 C21_10 1_555 1_555
H19_6 C27_6 1_555 1_555
C28_6 H20_6 1_555 1_555
H21_6 C28_6 1_555 1_555
H22_6 C28_6 1_555 1_555
N3_6 C23_6 1_555 1_555
N4_6 C24_6 1_555 1_555
Cu6_2 N3_6 1_555 1_555
O11_4 Cu6_2 1_555 1_555
O14_4 Cu6_2 1_555 1_555
C25_6 N3_6 1_555 1_555
C25_6 N4_6 1_555 1_555
C26_6 C27_6 1_555 1_555
C26_6 N4_6 1_555 1_555
C29_6 C30_6 1_555 1_555
C30_6 C31_6 1_555 1_555
C31_6 H23_6 1_555 1_555
C32_6 C31_6 1_555 1_555
H24_6 C32_6 1_555 1_555
C33_6 C32_6 1_555 1_555
C34_6 C33_6 1_555 1_555
H25_6 C34_6 1_555 1_555
C35_6 C30_6 1_555 1_555
H26_6 C35_6 1_555 1_555
C36_6 C37_6 1_555 1_555
C37_6 H27_6 1_555 1_555
C38_6 C37_6 1_555 1_555
H28_6 C38_6 1_555 1_555
C39_6 C38_6 1_555 1_555
C40_6 C39_6 1_555 1_555
H29_6 C40_6 1_555 1_555
C41_6 C36_6 1_555 1_555
H30_6 C41_6 1_555 1_555
C42_6 C39_6 1_555 1_555
O6_4 C29_6 1_555 1_555
O7_6 C29_6 1_555 1_555
O8_6 C33_6 1_555 1_555
O9_4 C42_6 1_555 1_555
O16_3 C42_6 1_555 1_555
Cu4_2 O6_4 1_555 1_555
Cu7_2 O9_4 1_555 1_555
C34_6 C35_6 1_555 1_555
C36_6 O8_6 1_555 1_555
C40_6 C41_6 1_555 1_555
C8_7 C9_7 1_555 1_555
C9_7 H5_7 1_555 1_555
C10_7 C9_7 1_555 1_555
H6_7 C10_7 1_555 1_555
C11_7 C10_7 1_555 1_555
C12_7 C11_7 1_555 1_555
H7_7 C12_7 1_555 1_555
C13_7 C8_7 1_555 1_555
C14_7 C11_7 1_555 1_555
O13_3 C14_7 1_555 1_555
O5_4 C14_7 1_555 1_555
C36_7 C37_7 1_555 1_555
C37_7 H27_7 1_555 1_555
C38_7 C37_7 1_555 1_555
H28_7 C38_7 1_555 1_555
C39_7 C38_7 1_555 1_555
C40_7 C39_7 1_555 1_555
H29_7 C40_7 1_555 1_555
C41_7 C36_7 1_555 1_555
C42_7 C39_7 1_555 1_555
O14_3 C42_7 1_555 1_555
O10_4 C42_7 1_555 1_555
Cu5_2 O10_4 1_555 1_555
Cu7_2 O5_4 1_555 1_555
C12_7 C13_7 1_555 1_555
C40_7 C41_7 1_555 1_555
C1_7 C2_7 1_555 1_555
C2_7 C3_7 1_555 1_555
C3_7 H1_7 1_555 1_555
C4_7 C3_7 1_555 1_555
H2_7 C4_7 1_555 1_555
C5_7 C4_7 1_555 1_555
C6_7 C5_7 1_555 1_555
H3_7 C6_7 1_555 1_555
C7_7 C2_7 1_555 1_555
H4_7 C7_7 1_555 1_555
O11_4 C1_7 1_555 1_555
O2_7 C1_7 1_555 1_555
O3_7 C5_7 1_555 1_555
C29_7 C30_7 1_555 1_555
C30_7 C31_7 1_555 1_555
C31_7 H23_7 1_555 1_555
C32_7 C31_7 1_555 1_555
H24_7 C32_7 1_555 1_555
C33_7 C32_7 1_555 1_555
C34_7 C33_7 1_555 1_555
H25_7 C34_7 1_555 1_555
C35_7 C30_7 1_555 1_555
H26_7 C35_7 1_555 1_555
O12_4 C29_7 1_555 1_555
O7_7 C29_7 1_555 1_555
O8_7 C33_7 1_555 1_555
C6_7 C7_7 1_555 1_555
C34_7 C35_7 1_555 1_555
C15_7 H9_7 1_555 1_555
C16_7 C15_7 1_555 1_555
H10_7 C16_7 1_555 1_555
C17_7 C22_7 1_555 1_555
C18_7 C19_11 1_555 1_555
C19_11 H11_11 1_555 1_555
C20_7 C18_7 1_555 1_555
H12_7 C20_7 1_555 1_555
C21_11 C20_7 1_555 1_555
H13_11 C21_11 1_555 1_555
C22_7 H14_7 1_555 1_555
H15_7 C22_7 1_555 1_555
H16_7 C22_7 1_555 1_555
Cu4_2 N1_7 1_555 1_555
N1_7 C15_7 1_555 1_555
N2_7 C16_7 1_555 1_555
C23_7 H17_7 1_555 1_555
C24_7 C23_7 1_555 1_555
H18_7 C24_7 1_555 1_555
C25_7 C28_7 1_555 1_555
C26_7 C19_11 1_555 1_555
C27_7 C21_11 1_555 1_555
H19_7 C27_7 1_555 1_555
C28_7 H20_7 1_555 1_555
H21_7 C28_7 1_555 1_555
H22_7 C28_7 1_555 1_555
N3_7 C23_7 1_555 1_555
N4_7 C24_7 1_555 1_555
Cu8_2 N3_7 1_555 1_555
O15_4 Cu8_2 1_555 1_555
O16_4 Cu4_2 1_555 1_555
C17_7 N1_7 1_555 1_555
C17_7 N2_7 1_555 1_555
C18_7 N2_7 1_555 1_555
C25_7 N3_7 1_555 1_555
C25_7 N4_7 1_555 1_555
C26_7 C27_7 1_555 1_555
C26_7 N4_7 1_555 1_555
C1_8 C2_8 1_555 1_555
C2_8 C3_8 1_555 1_555
C3_8 H1_8 1_555 1_555
C4_8 C3_8 1_555 1_555
H2_8 C4_8 1_555 1_555
C5_8 C4_8 1_555 1_555
C6_8 C5_8 1_555 1_555
H3_8 C6_8 1_555 1_555
C7_8 C2_8 1_555 1_555
H4_8 C7_8 1_555 1_555
C8_8 C9_8 1_555 1_555
C9_8 H5_8 1_555 1_555
C10_8 C9_8 1_555 1_555
H6_8 C10_8 1_555 1_555
C11_8 C10_8 1_555 1_555
C12_8 C11_8 1_555 1_555
H7_8 C12_8 1_555 1_555
C13_8 C8_8 1_555 1_555
H8_8 C13_8 1_555 1_555
C14_8 C11_8 1_555 1_555
C15_8 H9_8 1_555 1_555
C16_8 C15_8 1_555 1_555
H10_8 C16_8 1_555 1_555
C17_8 C22_8 1_555 1_555
C18_8 C19_12 1_555 1_555
C19_12 H11_12 1_555 1_555
C20_8 C18_8 1_555 1_555
H12_8 C20_8 1_555 1_555
C21_12 C20_8 1_555 1_555
H13_12 C21_12 1_555 1_555
C22_8 H14_8 1_555 1_555
H15_8 C22_8 1_555 1_555
H16_8 C22_8 1_555 1_555
Cu5_2 N1_8 1_555 1_555
N1_8 C15_8 1_555 1_555
N2_8 C16_8 1_555 1_555
O11_3 C1_8 1_555 1_555
O2_8 C1_8 1_555 1_555
O3_8 C5_8 1_555 1_555
O13_4 C14_8 1_555 1_555
C23_8 H17_8 1_555 1_555
C24_8 C23_8 1_555 1_555
H18_8 C24_8 1_555 1_555
C25_8 C28_8 1_555 1_555
C26_8 C19_12 1_555 1_555
C27_8 C21_12 1_555 1_555
H19_8 C27_8 1_555 1_555
C28_8 H20_8 1_555 1_555
H21_8 C28_8 1_555 1_555
H22_8 C28_8 1_555 1_555
N3_8 C23_8 1_555 1_555
N4_8 C24_8 1_555 1_555
C29_8 C30_8 1_555 1_555
C30_8 C31_8 1_555 1_555
C31_8 H23_8 1_555 1_555
C32_8 C31_8 1_555 1_555
H24_8 C32_8 1_555 1_555
C33_8 C32_8 1_555 1_555
C34_8 C33_8 1_555 1_555
H25_8 C34_8 1_555 1_555
C35_8 C30_8 1_555 1_555
H26_8 C35_8 1_555 1_555
C36_8 C37_8 1_555 1_555
C37_8 H27_8 1_555 1_555
C38_8 C37_8 1_555 1_555
H28_8 C38_8 1_555 1_555
C39_8 C38_8 1_555 1_555
C40_8 C39_8 1_555 1_555
H29_8 C40_8 1_555 1_555
C41_8 C36_8 1_555 1_555
H30_8 C41_8 1_555 1_555
C42_8 C39_8 1_555 1_555
Cu7_2 N3_8 1_555 1_555
O12_3 C29_8 1_555 1_555
O7_8 C29_8 1_555 1_555
O8_8 C33_8 1_555 1_555
O14_4 C42_8 1_555 1_555
C6_8 C7_8 1_555 1_555
C8_8 O3_8 1_555 1_555
C12_8 C13_8 1_555 1_555
C17_8 N1_8 1_555 1_555
C17_8 N2_8 1_555 1_555
C18_8 N2_8 1_555 1_555
Cu5_2 O2_8 1_555 1_555
C25_8 N3_8 1_555 1_555
C25_8 N4_8 1_555 1_555
C26_8 C27_8 1_555 1_555
C26_8 N4_8 1_555 1_555
C34_8 C35_8 1_555 1_555
C36_8 O8_8 1_555 1_555
C40_8 C41_8 1_555 1_555
Cu7_2 O7_8 1_555 1_555

#END
