
###############################################################################
#
# This file contains modified crystal structure data generated from the
# MOF subset of the Cambridge Structural Database (CSD) v543 
# hosted by the Cambridge Crystallographic Data Centre (CCDC).
#
# This work is licensed under the Creative Commons
# Attribution-NonCommercial-ShareAlike 4.0 International License.
# To view a copy of this license, visit
# http://creativecommons.org/licenses/by-nc-sa/4.0/
# or send a letter to
# Creative Commons, PO Box 1866, Mountain View, CA 94042, USA.
#
# CIF created using the CSD Python API on 29 September 2022
# The structure has been converted into the P1 space group
# The structure has a 3D framework
# The original CSD entry EVEGUH is in the cubic crystal system
# The framework has been calculated to contain at least 10.0% void space
# The void calculation uses a probe of radius 1.32A, grid spacing 0.4
# The framework is charged, counterions have been retained in the structure
# H atom positions have been added when not included in the experimental data
#
###############################################################################

data_EVEGUH
_chemical_formula_moiety         '(C96 H72 Cu15 N48 O24 6+)n'
_symmetry_cell_setting           triclinic
_symmetry_space_group_name_H-M   'P 1'
_symmetry_Int_Tables_number      1
_space_group_name_Hall           'P 1'
loop_
_symmetry_equiv_pos_site_id
_symmetry_equiv_pos_as_xyz
1 x,y,z
_cell_length_a                   15.6475(5)
_cell_length_b                   15.6475(5)
_cell_length_c                   15.6475(5)
_cell_angle_alpha                90
_cell_angle_beta                 90
_cell_angle_gamma                90
_cell_volume                     3831.2
loop_
_atom_site_label
_atom_site_type_symbol
_atom_site_fract_x
_atom_site_fract_y
_atom_site_fract_z
Cu5 Cu 0.7500 -0.0000 0.2500
H3 H 0.31186 0.0133658 0.18814
Cu1 Cu 0.5000 0.7500 0.2500
N1 N 0.41159(19) 0.82247(19) 0.1952(2)
C1 C 0.3721(2) 0.7829(4) 0.1279(2)
C2 C 0.3269(3) 0.9471(4) 0.1731(3)
O1 O 0.3962(2) 0.7123(3) 0.1038(2)
C3 C 0.3899(3) 0.9026(3) 0.2159(3)
N2 N 0.3048(2) 0.82247(19) 0.08841(19)
C4 C 0.2841(3) 0.9026(3) 0.1101(3)
N3 N 0.58841(19) 0.6952(2) 0.32247(19)
C5 C 0.6279(2) 0.6279(2) 0.2829(4)
C6 C 0.6731(3) 0.6731(3) 0.4471(4)
O2 O 0.6038(2) 0.6038(2) 0.2123(3)
C7 C 0.6101(3) 0.7159(3) 0.4026(3)
N4 N 0.6952(2) 0.58841(19) 0.32247(19)
C8 C 0.7159(3) 0.6101(3) 0.4026(3)
N5 N 0.41159(19) 0.67753(19) 0.3048(2)
C9 C 0.3721(2) 0.7171(4) 0.3721(2)
C10 C 0.3269(3) 0.5529(4) 0.3269(3)
O3 O 0.3962(2) 0.7877(3) 0.3962(2)
C11 C 0.3899(3) 0.5974(3) 0.2841(3)
N6 N 0.3048(2) 0.67753(19) 0.41159(19)
C12 C 0.2841(3) 0.5974(3) 0.3899(3)
N7 N 0.58841(19) 0.8048(2) 0.17753(19)
C13 C 0.6279(2) 0.8721(2) 0.2171(4)
C14 C 0.6731(3) 0.8269(3) 0.0529(4)
O4 O 0.6038(2) 0.8962(2) 0.2877(3)
C15 C 0.6101(3) 0.7841(3) 0.0974(3)
N8 N 0.6952(2) 0.91159(19) 0.17753(19)
C16 C 0.7159(3) 0.8899(3) 0.0974(3)
Cu2 Cu 0.2500 0.7500 0.0000
Cu3 Cu 0.7500 0.5000 0.2500
N11 N 0.1952(2) 0.67753(19) 0.08841(19)
C21 C 0.1279(2) 0.7171(4) 0.1279(2)
C22 C 0.1731(3) 0.5529(4) 0.1731(3)
O6 O 0.1038(2) 0.7877(3) 0.1038(2)
C23 C 0.2159(3) 0.5974(3) 0.1101(3)
N12 N 0.08841(19) 0.67753(19) 0.1952(2)
C24 C 0.1101(3) 0.5974(3) 0.2159(3)
Cu4 Cu 0.2500 0.7500 0.5000
Cu5_2 Cu 0.7500 1.0000 0.2500
N14 N 0.82247(19) 0.41159(19) 0.1952(2)
N15 N 0.8048(2) 0.58841(19) 0.17753(19)
N16 N 0.67753(19) 0.41159(19) 0.3048(2)
Cu7 Cu -0.0000 0.7500 0.2500
H1 H 0.231558 0.933823 0.0768125
H2 H 0.68814 0.68814 0.513366
H4 H 0.423188 0.933823 0.268442
H6 H 0.423188 0.566177 0.231558
H7 H 0.18814 0.486634 0.18814
H8 H 0.231558 0.566177 0.423188
H9 H 0.576812 0.768442 0.433823
H11 H 0.768442 0.923188 0.0661771
H13 H 0.768442 0.576812 0.433823
H14 H 0.31186 0.486634 0.31186
H15 H 0.576812 0.731558 0.0661771
H16 H 0.268442 0.566177 0.0768125
H18 H 0.0768125 0.566177 0.268442
Cu2_2 Cu 0.2500 0.7500 1.0000
N9 N 0.17753(19) 0.6952(2) 0.91159(19)
C17 C 0.2171(4) 0.6279(2) 0.8721(2)
C18 C 0.0529(4) 0.6731(3) 0.8269(3)
O5 O 0.2877(3) 0.6038(2) 0.8962(2)
C19 C 0.0974(3) 0.7159(3) 0.8899(3)
N10 N 0.17753(19) 0.58841(19) 0.8048(2)
C20 C 0.0974(3) 0.6101(3) 0.7841(3)
N13 N 0.32247(19) 0.8048(2) 0.91159(19)
Cu6 Cu 0.2500 0.5000 0.7500
H10 H 0.68814 0.81186 0.986634
H12 H 0.0661771 0.768442 0.923188
H17 H 0.0661771 0.576812 0.731558
Cu7_2 Cu 1.0000 0.7500 0.2500
H5 H 0.986634 0.68814 0.81186
H3_2 H 0.18814 0.31186 0.0133658
N1_2 N 0.1952(2) 0.41159(19) 0.82247(19)
C1_2 C 0.1279(2) 0.3721(2) 0.7829(4)
C2_2 C 0.1731(3) 0.3269(3) 0.9471(4)
O1_2 O 0.1038(2) 0.3962(2) 0.7123(3)
C3_2 C 0.2159(3) 0.3899(3) 0.9026(3)
N2_2 N 0.08841(19) 0.3048(2) 0.82247(19)
C4_2 C 0.1101(3) 0.2841(3) 0.9026(3)
N3_2 N 0.32247(19) 0.58841(19) 0.6952(2)
C5_2 C 0.2829(4) 0.6279(2) 0.6279(2)
C6_2 C 0.4471(4) 0.6731(3) 0.6731(3)
O2_2 O 0.2123(3) 0.6038(2) 0.6038(2)
C7_2 C 0.4026(3) 0.6101(3) 0.7159(3)
N4_2 N 0.32247(19) 0.6952(2) 0.58841(19)
C8_2 C 0.4026(3) 0.7159(3) 0.6101(3)
N5_2 N 0.3048(2) 0.41159(19) 0.67753(19)
C9_2 C 0.3721(2) 0.3721(2) 0.7171(4)
C10_2 C 0.3269(3) 0.3269(3) 0.5529(4)
O3_2 O 0.3962(2) 0.3962(2) 0.7877(3)
C11_2 C 0.2841(3) 0.3899(3) 0.5974(3)
N6_2 N 0.41159(19) 0.3048(2) 0.67753(19)
C12_2 C 0.3899(3) 0.2841(3) 0.5974(3)
Cu2_3 Cu -0.0000 0.2500 0.7500
N11_2 N 0.08841(19) 0.1952(2) 0.67753(19)
C21_2 C 0.1279(2) 0.1279(2) 0.7171(4)
C22_2 C 0.1731(3) 0.1731(3) 0.5529(4)
O6_2 O 0.1038(2) 0.1038(2) 0.7877(3)
C23_2 C 0.1101(3) 0.2159(3) 0.5974(3)
N12_2 N 0.1952(2) 0.08841(19) 0.67753(19)
C24_2 C 0.2159(3) 0.1101(3) 0.5974(3)
Cu4_2 Cu 0.5000 0.2500 0.7500
N14_2 N 0.1952(2) 0.82247(19) 0.41159(19)
N15_2 N 0.17753(19) 0.8048(2) 0.58841(19)
Cu7_3 Cu 0.2500 -0.0000 0.7500
H1_2 H 0.0768125 0.231558 0.933823
H2_2 H 0.513366 0.68814 0.68814
H4_2 H 0.268442 0.423188 0.933823
H6_2 H 0.231558 0.423188 0.566177
H7_2 H 0.18814 0.18814 0.486634
H8_2 H 0.423188 0.231558 0.566177
H9_2 H 0.433823 0.576812 0.768442
H13_2 H 0.433823 0.768442 0.576812
H14_2 H 0.31186 0.31186 0.486634
H16_2 H 0.0768125 0.268442 0.566177
H18_2 H 0.268442 0.0768125 0.566177
Cu7_4 Cu 0.2500 1.0000 0.7500
Cu2_4 Cu 1.0000 0.2500 0.7500
N9_2 N 0.91159(19) 0.17753(19) 0.6952(2)
C17_2 C 0.8721(2) 0.2171(4) 0.6279(2)
C18_2 C 0.8269(3) 0.0529(4) 0.6731(3)
O5_2 O 0.8962(2) 0.2877(3) 0.6038(2)
C19_2 C 0.8899(3) 0.0974(3) 0.7159(3)
N10_2 N 0.8048(2) 0.17753(19) 0.58841(19)
C20_2 C 0.7841(3) 0.0974(3) 0.6101(3)
N13_2 N 0.91159(19) 0.32247(19) 0.8048(2)
Cu6_2 Cu 0.7500 0.2500 0.5000
H12_2 H 0.923188 0.0661771 0.768442
H17_2 H 0.731558 0.0661771 0.576812
H5_2 H 0.81186 0.986634 0.68814
H3_3 H 0.0133658 0.18814 0.31186
N1_3 N 0.82247(19) 0.1952(2) 0.41159(19)
C1_3 C 0.7829(4) 0.1279(2) 0.3721(2)
C2_3 C 0.9471(4) 0.1731(3) 0.3269(3)
O1_3 O 0.7123(3) 0.1038(2) 0.3962(2)
C3_3 C 0.9026(3) 0.2159(3) 0.3899(3)
N2_3 N 0.82247(19) 0.08841(19) 0.3048(2)
C4_3 C 0.9026(3) 0.1101(3) 0.2841(3)
N3_3 N 0.6952(2) 0.32247(19) 0.58841(19)
C5_3 C 0.6279(2) 0.2829(4) 0.6279(2)
C6_3 C 0.6731(3) 0.4471(4) 0.6731(3)
O2_3 O 0.6038(2) 0.2123(3) 0.6038(2)
C7_3 C 0.7159(3) 0.4026(3) 0.6101(3)
N4_3 N 0.58841(19) 0.32247(19) 0.6952(2)
C8_3 C 0.6101(3) 0.4026(3) 0.7159(3)
N5_3 N 0.67753(19) 0.3048(2) 0.41159(19)
C9_3 C 0.7171(4) 0.3721(2) 0.3721(2)
C10_3 C 0.5529(4) 0.3269(3) 0.3269(3)
O3_3 O 0.7877(3) 0.3962(2) 0.3962(2)
C11_3 C 0.5974(3) 0.2841(3) 0.3899(3)
C12_3 C 0.5974(3) 0.3899(3) 0.2841(3)
N11_3 N 0.67753(19) 0.08841(19) 0.1952(2)
C21_3 C 0.7171(4) 0.1279(2) 0.1279(2)
C22_3 C 0.5529(4) 0.1731(3) 0.1731(3)
O6_3 O 0.7877(3) 0.1038(2) 0.1038(2)
C23_3 C 0.5974(3) 0.1101(3) 0.2159(3)
N12_3 N 0.67753(19) 0.1952(2) 0.08841(19)
C24_3 C 0.5974(3) 0.2159(3) 0.1101(3)
N14_3 N 0.41159(19) 0.1952(2) 0.82247(19)
N15_3 N 0.58841(19) 0.17753(19) 0.8048(2)
Cu7_5 Cu 0.7500 0.2500 -0.0000
H1_3 H 0.933823 0.0768125 0.231558
H2_3 H 0.68814 0.513366 0.68814
H4_3 H 0.933823 0.268442 0.423188
H6_3 H 0.566177 0.231558 0.423188
H7_3 H 0.486634 0.18814 0.18814
H8_3 H 0.566177 0.423188 0.231558
H9_3 H 0.768442 0.433823 0.576812
H13_3 H 0.576812 0.433823 0.768442
H14_3 H 0.486634 0.31186 0.31186
H16_3 H 0.566177 0.0768125 0.268442
H18_3 H 0.566177 0.268442 0.0768125
Cu7_6 Cu 0.7500 0.2500 1.0000
N13_3 N 0.8048(2) 0.91159(19) 0.32247(19)
H10_2 H 0.31186 0.18814 0.0133658
N7_2 N 0.3048(2) 0.08841(19) 0.82247(19)
C13_2 C 0.3721(2) 0.1279(2) 0.7829(4)
C14_2 C 0.3269(3) 0.1731(3) 0.9471(4)
O4_2 O 0.3962(2) 0.1038(2) 0.7123(3)
C15_2 C 0.2841(3) 0.1101(3) 0.9026(3)
C16_2 C 0.3899(3) 0.2159(3) 0.9026(3)
H11_2 H 0.423188 0.268442 0.933823
H15_2 H 0.231558 0.0768125 0.933823
N1_4 N 0.32247(19) 0.91159(19) 0.8048(2)
C1_4 C 0.2829(4) 0.8721(2) 0.8721(2)
C2_4 C 0.4471(4) 0.8269(3) 0.8269(3)
O1_4 O 0.2123(3) 0.8962(2) 0.8962(2)
C3_4 C 0.4026(3) 0.8899(3) 0.7841(3)
C4_4 C 0.4026(3) 0.7841(3) 0.8899(3)
N5_4 N 0.17753(19) 0.91159(19) 0.6952(2)
C9_4 C 0.2171(4) 0.8721(2) 0.6279(2)
C10_4 C 0.0529(4) 0.8269(3) 0.6731(3)
O3_4 O 0.2877(3) 0.8962(2) 0.6038(2)
C11_4 C 0.0974(3) 0.8899(3) 0.7159(3)
C12_4 C 0.0974(3) 0.7841(3) 0.6101(3)
H1_4 H 0.433823 0.731558 0.923188
H3_4 H 0.513366 0.81186 0.81186
H4_4 H 0.433823 0.923188 0.731558
H6_4 H 0.0661771 0.923188 0.768442
H8_4 H 0.0661771 0.731558 0.576812
H14_4 H 0.986634 0.81186 0.68814
H5_3 H 0.18814 0.0133658 0.31186
C17_3 C 0.1279(2) 0.7829(4) 0.3721(2)
C18_3 C 0.1731(3) 0.9471(4) 0.3269(3)
O5_3 O 0.1038(2) 0.7123(3) 0.3962(2)
C19_3 C 0.2159(3) 0.9026(3) 0.3899(3)
N10_3 N 0.08841(19) 0.82247(19) 0.3048(2)
C20_3 C 0.1101(3) 0.9026(3) 0.2841(3)
H12_3 H 0.268442 0.933823 0.423188
H17_3 H 0.0768125 0.933823 0.231558
N1_5 N 0.91159(19) 0.6952(2) 0.17753(19)
C1_5 C 0.8721(2) 0.6279(2) 0.2171(4)
C2_5 C 0.8269(3) 0.6731(3) 0.0529(4)
O1_5 O 0.8962(2) 0.6038(2) 0.2877(3)
C3_5 C 0.8899(3) 0.7159(3) 0.0974(3)
C4_5 C 0.7841(3) 0.6101(3) 0.0974(3)
N5_5 N 0.91159(19) 0.8048(2) 0.32247(19)
C9_5 C 0.8721(2) 0.8721(2) 0.2829(4)
C10_5 C 0.8269(3) 0.8269(3) 0.4471(4)
O3_5 O 0.8962(2) 0.8962(2) 0.2123(3)
C11_5 C 0.8899(3) 0.7841(3) 0.4026(3)
C12_5 C 0.7841(3) 0.8899(3) 0.4026(3)
H1_5 H 0.731558 0.576812 0.0661771
H4_5 H 0.923188 0.768442 0.0661771
H6_5 H 0.923188 0.731558 0.433823
H8_5 H 0.731558 0.923188 0.433823
H14_5 H 0.81186 0.81186 0.513366
H3_5 H 0.81186 0.68814 0.986634
H5_4 H 0.0133658 0.31186 0.18814
C17_4 C 0.7829(4) 0.3721(2) 0.1279(2)
C18_4 C 0.9471(4) 0.3269(3) 0.1731(3)
O5_4 O 0.7123(3) 0.3962(2) 0.1038(2)
C19_4 C 0.9026(3) 0.3899(3) 0.2159(3)
N10_4 N 0.82247(19) 0.3048(2) 0.08841(19)
C20_4 C 0.9026(3) 0.2841(3) 0.1101(3)
H12_4 H 0.933823 0.423188 0.268442
H17_4 H 0.933823 0.231558 0.0768125
C21_4 C 0.6279(2) 0.2171(4) 0.8721(2)
C22_4 C 0.6731(3) 0.0529(4) 0.8269(3)
O6_4 O 0.6038(2) 0.2877(3) 0.8962(2)
C23_4 C 0.6101(3) 0.0974(3) 0.7841(3)
N12_4 N 0.6952(2) 0.17753(19) 0.91159(19)
C24_4 C 0.7159(3) 0.0974(3) 0.8899(3)
H16_4 H 0.576812 0.0661771 0.731558
H18_4 H 0.768442 0.0661771 0.923188
H7_4 H 0.68814 0.986634 0.81186
N5_6 N 0.8048(2) 0.32247(19) 0.91159(19)
C9_6 C 0.8721(2) 0.2829(4) 0.8721(2)
C10_6 C 0.8269(3) 0.4471(4) 0.8269(3)
O3_6 O 0.8962(2) 0.2123(3) 0.8962(2)
C11_6 C 0.7841(3) 0.4026(3) 0.8899(3)
C12_6 C 0.8899(3) 0.4026(3) 0.7841(3)
H6_6 H 0.731558 0.433823 0.923188
H8_6 H 0.923188 0.433823 0.731558
H14_6 H 0.81186 0.513366 0.81186
loop_
_geom_bond_atom_site_label_1
_geom_bond_atom_site_label_2
_geom_bond_site_symmetry_1
_geom_bond_site_symmetry_2
Cu1 N1 1_555 1_555
N1 C1 1_555 1_555
C1 O1 1_555 1_555
C2 C3 1_555 1_555
C3 N1 1_555 1_555
N2 C1 1_555 1_555
C4 C2 1_555 1_555
N3 Cu1 1_555 1_555
C5 N3 1_555 1_555
C6 C7 1_555 1_555
O2 C5 1_555 1_555
C7 N3 1_555 1_555
N4 C5 1_555 1_555
C8 C6 1_555 1_555
N5 Cu1 1_555 1_555
C9 N5 1_555 1_555
C10 C11 1_555 1_555
O3 C9 1_555 1_555
C11 N5 1_555 1_555
N6 C9 1_555 1_555
C12 C10 1_555 1_555
N7 Cu1 1_555 1_555
C13 N7 1_555 1_555
C14 C15 1_555 1_555
O4 C13 1_555 1_555
C15 N7 1_555 1_555
N8 C13 1_555 1_555
C16 C14 1_555 1_555
Cu2 N2 1_555 1_555
Cu3 N4 1_555 1_555
N11 Cu2 1_555 1_555
C21 N11 1_555 1_555
C22 C23 1_555 1_555
O6 C21 1_555 1_555
C23 N11 1_555 1_555
N12 C21 1_555 1_555
C24 C22 1_555 1_555
Cu4 N6 1_555 1_555
Cu5_2 N8 1_555 1_555
N14 Cu3 1_555 1_555
N15 Cu3 1_555 1_555
N16 Cu3 1_555 1_555
Cu7 N12 1_555 1_555
N2 C4 1_555 1_555
N4 C8 1_555 1_555
N6 C12 1_555 1_555
N8 C16 1_555 1_555
N12 C24 1_555 1_555
C4 H1 1_555 1_555
C6 H2 1_555 1_555
C3 H4 1_555 1_555
C11 H6 1_555 1_555
C22 H7 1_555 1_555
C12 H8 1_555 1_555
C7 H9 1_555 1_555
C16 H11 1_555 1_555
C8 H13 1_555 1_555
C10 H14 1_555 1_555
C15 H15 1_555 1_555
C23 H16 1_555 1_555
C24 H18 1_555 1_555
N9 Cu2_2 1_555 1_555
C17 N9 1_555 1_555
C18 C19 1_555 1_555
O5 C17 1_555 1_555
C19 N9 1_555 1_555
N10 C17 1_555 1_555
C20 C18 1_555 1_555
N13 Cu2_2 1_555 1_555
Cu6 N10 1_555 1_555
N10 C20 1_555 1_555
C19 H12 1_555 1_555
C20 H17 1_555 1_555
Cu6 N1_2 1_555 1_555
N1_2 C1_2 1_555 1_555
C1_2 O1_2 1_555 1_555
C2_2 C3_2 1_555 1_555
C3_2 N1_2 1_555 1_555
N2_2 C1_2 1_555 1_555
C4_2 C2_2 1_555 1_555
N3_2 Cu6 1_555 1_555
C5_2 N3_2 1_555 1_555
C6_2 C7_2 1_555 1_555
O2_2 C5_2 1_555 1_555
C7_2 N3_2 1_555 1_555
N4_2 C5_2 1_555 1_555
C8_2 C6_2 1_555 1_555
N5_2 Cu6 1_555 1_555
C9_2 N5_2 1_555 1_555
C10_2 C11_2 1_555 1_555
O3_2 C9_2 1_555 1_555
C11_2 N5_2 1_555 1_555
N6_2 C9_2 1_555 1_555
C12_2 C10_2 1_555 1_555
Cu2_3 N2_2 1_555 1_555
Cu4 N4_2 1_555 1_555
N11_2 Cu2_3 1_555 1_555
C21_2 N11_2 1_555 1_555
C22_2 C23_2 1_555 1_555
O6_2 C21_2 1_555 1_555
C23_2 N11_2 1_555 1_555
N12_2 C21_2 1_555 1_555
C24_2 C22_2 1_555 1_555
Cu4_2 N6_2 1_555 1_555
N14_2 Cu4 1_555 1_555
N15_2 Cu4 1_555 1_555
Cu7_3 N12_2 1_555 1_555
N2_2 C4_2 1_555 1_555
N4_2 C8_2 1_555 1_555
N6_2 C12_2 1_555 1_555
N12_2 C24_2 1_555 1_555
C4_2 H1_2 1_555 1_555
C6_2 H2_2 1_555 1_555
C3_2 H4_2 1_555 1_555
C11_2 H6_2 1_555 1_555
C22_2 H7_2 1_555 1_555
C12_2 H8_2 1_555 1_555
C7_2 H9_2 1_555 1_555
C8_2 H13_2 1_555 1_555
C10_2 H14_2 1_555 1_555
C23_2 H16_2 1_555 1_555
C24_2 H18_2 1_555 1_555
N9_2 Cu2_4 1_555 1_555
C17_2 N9_2 1_555 1_555
C18_2 C19_2 1_555 1_555
O5_2 C17_2 1_555 1_555
C19_2 N9_2 1_555 1_555
N10_2 C17_2 1_555 1_555
C20_2 C18_2 1_555 1_555
N13_2 Cu2_4 1_555 1_555
Cu6_2 N10_2 1_555 1_555
N10_2 C20_2 1_555 1_555
C19_2 H12_2 1_555 1_555
C20_2 H17_2 1_555 1_555
Cu6_2 N1_3 1_555 1_555
N1_3 C1_3 1_555 1_555
C1_3 O1_3 1_555 1_555
C2_3 C3_3 1_555 1_555
C3_3 N1_3 1_555 1_555
N2_3 C1_3 1_555 1_555
C4_3 C2_3 1_555 1_555
N3_3 Cu6_2 1_555 1_555
C5_3 N3_3 1_555 1_555
C6_3 C7_3 1_555 1_555
O2_3 C5_3 1_555 1_555
C7_3 N3_3 1_555 1_555
N4_3 C5_3 1_555 1_555
C8_3 C6_3 1_555 1_555
N5_3 Cu6_2 1_555 1_555
C9_3 N5_3 1_555 1_555
C10_3 C11_3 1_555 1_555
O3_3 C9_3 1_555 1_555
C11_3 N5_3 1_555 1_555
N16 C9_3 1_555 1_555
C12_3 C10_3 1_555 1_555
Cu5 N2_3 1_555 1_555
Cu4_2 N4_3 1_555 1_555
N11_3 Cu5 1_555 1_555
C21_3 N11_3 1_555 1_555
C22_3 C23_3 1_555 1_555
O6_3 C21_3 1_555 1_555
C23_3 N11_3 1_555 1_555
N12_3 C21_3 1_555 1_555
C24_3 C22_3 1_555 1_555
N14_3 Cu4_2 1_555 1_555
N15_3 Cu4_2 1_555 1_555
Cu7_5 N12_3 1_555 1_555
N2_3 C4_3 1_555 1_555
N4_3 C8_3 1_555 1_555
N16 C12_3 1_555 1_555
N12_3 C24_3 1_555 1_555
C4_3 H1_3 1_555 1_555
C6_3 H2_3 1_555 1_555
C3_3 H4_3 1_555 1_555
C11_3 H6_3 1_555 1_555
C22_3 H7_3 1_555 1_555
C12_3 H8_3 1_555 1_555
C7_3 H9_3 1_555 1_555
C8_3 H13_3 1_555 1_555
C10_3 H14_3 1_555 1_555
C23_3 H16_3 1_555 1_555
C24_3 H18_3 1_555 1_555
N13_3 Cu5_2 1_555 1_555
N7_2 Cu7_3 1_555 1_555
C13_2 N7_2 1_555 1_555
C14_2 C15_2 1_555 1_555
O4_2 C13_2 1_555 1_555
C15_2 N7_2 1_555 1_555
N14_3 C13_2 1_555 1_555
C16_2 C14_2 1_555 1_555
N14_3 C16_2 1_555 1_555
C16_2 H11_2 1_555 1_555
C15_2 H15_2 1_555 1_555
Cu7_4 N1_4 1_555 1_555
N1_4 C1_4 1_555 1_555
C1_4 O1_4 1_555 1_555
C2_4 C3_4 1_555 1_555
C3_4 N1_4 1_555 1_555
N13 C1_4 1_555 1_555
C4_4 C2_4 1_555 1_555
N5_4 Cu7_4 1_555 1_555
C9_4 N5_4 1_555 1_555
C10_4 C11_4 1_555 1_555
O3_4 C9_4 1_555 1_555
C11_4 N5_4 1_555 1_555
N15_2 C9_4 1_555 1_555
C12_4 C10_4 1_555 1_555
N13 C4_4 1_555 1_555
N15_2 C12_4 1_555 1_555
C4_4 H1_4 1_555 1_555
C2_4 H3_4 1_555 1_555
C3_4 H4_4 1_555 1_555
C11_4 H6_4 1_555 1_555
C12_4 H8_4 1_555 1_555
C17_3 N14_2 1_555 1_555
C18_3 C19_3 1_555 1_555
O5_3 C17_3 1_555 1_555
C19_3 N14_2 1_555 1_555
N10_3 C17_3 1_555 1_555
C20_3 C18_3 1_555 1_555
Cu7 N10_3 1_555 1_555
N10_3 C20_3 1_555 1_555
C19_3 H12_3 1_555 1_555
C20_3 H17_3 1_555 1_555
Cu7_2 N1_5 1_555 1_555
N1_5 C1_5 1_555 1_555
C1_5 O1_5 1_555 1_555
C2_5 C3_5 1_555 1_555
C3_5 N1_5 1_555 1_555
N15 C1_5 1_555 1_555
C4_5 C2_5 1_555 1_555
N5_5 Cu7_2 1_555 1_555
C9_5 N5_5 1_555 1_555
C10_5 C11_5 1_555 1_555
O3_5 C9_5 1_555 1_555
C11_5 N5_5 1_555 1_555
N13_3 C9_5 1_555 1_555
C12_5 C10_5 1_555 1_555
N15 C4_5 1_555 1_555
N13_3 C12_5 1_555 1_555
C4_5 H1_5 1_555 1_555
C3_5 H4_5 1_555 1_555
C11_5 H6_5 1_555 1_555
C12_5 H8_5 1_555 1_555
C10_5 H14_5 1_555 1_555
C17_4 N14 1_555 1_555
C18_4 C19_4 1_555 1_555
O5_4 C17_4 1_555 1_555
C19_4 N14 1_555 1_555
N10_4 C17_4 1_555 1_555
C20_4 C18_4 1_555 1_555
Cu7_5 N10_4 1_555 1_555
N10_4 C20_4 1_555 1_555
C19_4 H12_4 1_555 1_555
C20_4 H17_4 1_555 1_555
C21_4 N15_3 1_555 1_555
C22_4 C23_4 1_555 1_555
O6_4 C21_4 1_555 1_555
C23_4 N15_3 1_555 1_555
N12_4 C21_4 1_555 1_555
C24_4 C22_4 1_555 1_555
Cu7_6 N12_4 1_555 1_555
N12_4 C24_4 1_555 1_555
C23_4 H16_4 1_555 1_555
C24_4 H18_4 1_555 1_555
N5_6 Cu7_6 1_555 1_555
C9_6 N5_6 1_555 1_555
C10_6 C11_6 1_555 1_555
O3_6 C9_6 1_555 1_555
C11_6 N5_6 1_555 1_555
N13_2 C9_6 1_555 1_555
C12_6 C10_6 1_555 1_555
N13_2 C12_6 1_555 1_555
C11_6 H6_6 1_555 1_555
C12_6 H8_6 1_555 1_555
C10_6 H14_6 1_555 1_555

#END
