
###############################################################################
#
# This file contains modified crystal structure data generated from the
# MOF subset of the Cambridge Structural Database (CSD) v543 
# hosted by the Cambridge Crystallographic Data Centre (CCDC).
#
# This work is licensed under the Creative Commons
# Attribution-NonCommercial-ShareAlike 4.0 International License.
# To view a copy of this license, visit
# http://creativecommons.org/licenses/by-nc-sa/4.0/
# or send a letter to
# Creative Commons, PO Box 1866, Mountain View, CA 94042, USA.
#
# CIF created using the CSD Python API on 29 September 2022
# The structure has been converted into the P1 space group
# The structure has a 3D framework
# The original CSD entry EVEGIV is in the rhombohedral crystal system
# The framework has been calculated to contain at least 10.0% void space
# The void calculation uses a probe of radius 1.32A, grid spacing 0.4
# The framework is charged, counterions have been retained in the structure
#
###############################################################################

data_EVEGIV
_chemical_formula_moiety         '(C288 H234 Cu42 N144 O72 12+)n'
_symmetry_cell_setting           triclinic
_symmetry_space_group_name_H-M   'P 1'
_symmetry_Int_Tables_number      1
_space_group_name_Hall           'P 1'
loop_
_symmetry_equiv_pos_site_id
_symmetry_equiv_pos_as_xyz
1 x,y,z
_cell_length_a                   23.0400(15)
_cell_length_b                   23.0400(15)
_cell_length_c                   25.1398(18)
_cell_angle_alpha                90
_cell_angle_beta                 90
_cell_angle_gamma                120
_cell_volume                     11557.3
loop_
_atom_site_label
_atom_site_type_symbol
_atom_site_fract_x
_atom_site_fract_y
_atom_site_fract_z
H9 H 0.011890 0.164350 0.38861
Cu3 Cu -0.00000 0.23253(78) 0.50000
Cu1 Cu 0.76747(78) 0.00000 0.50000
N2 N 0.848220 0.046690 0.453700
C4 C 0.865530 0.029580 0.405190
C5 C 0.892250 0.107790 0.478090
C6 C 0.926880 0.073580 0.381070
H4 H 0.938620 0.061950 0.348140
O2 O 0.876810 0.123090 0.521430
N6 N 0.953310 0.151780 0.453700
C12 C 0.970420 0.134470 0.405190
N7 N 0.724790 0.052430 0.477520
C13 C 0.693310 0.142790 0.429300
H10 H 0.682630 0.173450 0.412930
C14 C 0.724700 0.103470 0.507650
H11 H 0.735320 0.107460 0.544480
C15 C 0.709140 0.046570 0.423280
C16 C 0.708960 0.148650 0.483540
H12 H 0.708900 0.183300 0.504000
N8 N 0.693400 0.091750 0.399170
O4 O 0.709220 0.000980 0.396350
Cu3_2 Cu 1.00000 0.23253(78) 0.50000
Cu4 Cu 0.66667(68) 0.08680(68) 0.33334
Cu1_2 Cu 0.76747(78) 1.00000 0.50000
Cu2 Cu 0.57987(68) 0.91321 0.66667
N1 N 0.632370 0.868740 0.680600
C1 C 0.695190 0.900230 0.705600
H1 H 0.716510 0.946580 0.714080
C2 C 0.601120 0.800650 0.668080
C3 C 0.726440 0.863230 0.718120
H2 H 0.768990 0.884440 0.735100
O1 O 0.545130 0.772420 0.645730
H3 H 0.835650 0.988110 0.38861
N3 N 0.672360 0.947570 0.522480
C7 C 0.550520 0.857210 0.570700
H5 H 0.509180 0.826550 0.587070
C8 C 0.621230 0.896530 0.492350
H6 H 0.627860 0.892540 0.455520
C9 C 0.662570 0.953430 0.576720
C10 C 0.560310 0.851350 0.516460
H7 H 0.525600 0.816700 0.496000
N4 N 0.601650 0.908250 0.600830
O3 O 0.708240 0.999020 0.603650
N5 N 0.632370 0.763630 0.680600
C11 C 0.695190 0.794960 0.705600
H8 H 0.716510 0.769930 0.714080
Cu5 Cu 0.57988 0.66667(68) 0.66666
N9 N 0.535407 0.965703 0.652733
N10 N 0.801530 0.953310 0.546300
N11 N 0.574917 0.934983 0.732503
H9_2 H 0.164350 0.011890 0.61139
Cu3_3 Cu 0.23253(78) -0.00000 0.50000
Cu1_3 Cu -0.00000 0.76747(78) 0.50000
N2_2 N 0.046690 0.848220 0.546300
C4_2 C 0.029580 0.865530 0.594810
C5_2 C 0.107790 0.892250 0.521910
C6_2 C 0.073580 0.926880 0.618930
H4_2 H 0.061950 0.938620 0.651860
O2_2 O 0.123090 0.876810 0.478570
N6_2 N 0.151780 0.953310 0.546300
C12_2 C 0.134470 0.970420 0.594810
N7_2 N 0.052430 0.724790 0.522480
C13_2 C 0.142790 0.693310 0.570700
H10_2 H 0.173450 0.682630 0.587070
C14_2 C 0.103470 0.724700 0.492350
H11_2 H 0.107460 0.735320 0.455520
C15_2 C 0.046570 0.709140 0.576720
C16_2 C 0.148650 0.708960 0.516460
H12_2 H 0.183300 0.708900 0.496000
N8_2 N 0.091750 0.693400 0.600830
O4_2 O 0.000980 0.709220 0.603650
Cu3_4 Cu 0.23253(78) 1.00000 0.50000
Cu4_2 Cu 0.08680(68) 0.66667(68) 0.66666
Cu1_4 Cu 1.00000 0.76747(78) 0.50000
Cu2_2 Cu 0.91321 0.57987(68) 0.33333
N1_2 N 0.868740 0.632370 0.319400
C1_2 C 0.900230 0.695190 0.294400
H1_2 H 0.946580 0.716510 0.285920
C2_2 C 0.800650 0.601120 0.331920
C3_2 C 0.863230 0.726440 0.281880
H2_2 H 0.884440 0.768990 0.264900
O1_2 O 0.772420 0.545130 0.354270
H3_2 H 0.988110 0.835650 0.61139
N3_2 N 0.947570 0.672360 0.477520
C7_2 C 0.857210 0.550520 0.429300
H5_2 H 0.826550 0.509180 0.412930
C8_2 C 0.896530 0.621230 0.507650
H6_2 H 0.892540 0.627860 0.544480
C9_2 C 0.953430 0.662570 0.423280
C10_2 C 0.851350 0.560310 0.483540
H7_2 H 0.816700 0.525600 0.504000
N4_2 N 0.908250 0.601650 0.399170
O3_2 O 0.999020 0.708240 0.396350
N5_2 N 0.763630 0.632370 0.319400
C11_2 C 0.794960 0.695190 0.294400
H8_2 H 0.769930 0.716510 0.285920
Cu5_2 Cu 0.66667(68) 0.57988 0.33334
N9_2 N 0.965703 0.535407 0.347267
N10_2 N 0.953310 0.801530 0.453700
N11_2 N 0.934983 0.574917 0.267497
N1_3 N 0.131260 0.763630 0.680600
C1_3 C 0.099770 0.794960 0.705600
H1_3 H 0.053420 0.769930 0.714080
C2_3 C 0.199350 0.800470 0.668080
C3_3 C 0.136770 0.863210 0.718120
H2_3 H 0.115560 0.884550 0.735100
O1_3 O 0.227580 0.772710 0.645730
H3_3 H 0.011890 0.847540 0.38861
N5_3 N 0.236370 0.868740 0.680600
C11_3 C 0.205040 0.900230 0.705600
H8_3 H 0.230070 0.946580 0.714080
Cu5_3 Cu 0.33333(68) 0.91320(68) 0.66666
N9_3 N 0.034297 0.569703 0.652733
N11_3 N 0.065017 0.639933 0.732503
C4_3 C 0.970420 0.835950 0.405190
C5_3 C 0.892210 0.784460 0.478090
C6_3 C 0.926420 0.853300 0.381070
H4_3 H 0.938050 0.876670 0.348140
O2_3 O 0.876910 0.753720 0.521430
N6_3 N 0.848220 0.801530 0.453700
C12_3 C 0.865530 0.835950 0.405190
H9_3 H 0.835650 0.847540 0.38861
Cu3_5 Cu 0.76747(78) 0.76747(78) 0.50000
Cu1_5 Cu 0.23253(78) 0.23253(78) 0.50000
Cu2_3 Cu 0.33334(68) 0.42013(68) 0.66667
N1_4 N 0.236370 0.367630 0.680600
C1_4 C 0.205040 0.304810 0.705600
H1_4 H 0.230070 0.283490 0.714080
C2_4 C 0.199530 0.398880 0.668080
C3_4 C 0.136790 0.273560 0.718120
H2_4 H 0.115450 0.231010 0.735100
O1_4 O 0.227290 0.454870 0.645730
N2_3 N 0.198470 0.151780 0.453700
C4_4 C 0.164050 0.134470 0.405190
H3_4 H 0.152460 0.164350 0.38861
C5_4 C 0.215540 0.107750 0.478090
C6_4 C 0.146700 0.073120 0.381070
H4_4 H 0.123330 0.061380 0.348140
O2_4 O 0.246280 0.123190 0.521430
N3_3 N 0.275210 0.327640 0.522480
C7_3 C 0.306690 0.449480 0.570700
H5_3 H 0.317370 0.490820 0.587070
C8_3 C 0.275300 0.378770 0.492350
H6_3 H 0.264680 0.372140 0.455520
C9_3 C 0.290860 0.337430 0.576720
C10_3 C 0.291040 0.439690 0.516460
H7_3 H 0.291100 0.474400 0.496000
N4_3 N 0.306600 0.398350 0.600830
O3_3 O 0.290780 0.291760 0.603650
N5_4 N 0.131260 0.367630 0.680600
C11_4 C 0.099770 0.304810 0.705600
H8_4 H 0.053420 0.283490 0.714080
N6_4 N 0.198470 0.046690 0.453700
C12_4 C 0.164050 0.029580 0.405190
N7_3 N 0.327640 0.275210 0.477520
C13_3 C 0.449480 0.306690 0.429300
H10_3 H 0.490820 0.317370 0.412930
C14_3 C 0.378770 0.275300 0.507650
H11_3 H 0.372140 0.264680 0.544480
C15_3 C 0.337430 0.290860 0.423280
C16_3 C 0.439690 0.291040 0.483540
H12_3 H 0.474400 0.291100 0.504000
N8_3 N 0.398350 0.306600 0.399170
O4_3 O 0.291760 0.290780 0.396350
Cu4_3 Cu 0.42012(96) 0.33333(68) 0.33334
Cu5_4 Cu 0.08680(68) 0.42012 0.66666
N9_4 N 0.430297 0.464593 0.652733
N10_3 N 0.151780 0.198470 0.546300
N11_4 N 0.360067 0.425083 0.732503
H9_4 H 0.152460 0.988110 0.38861
Cu1_6 Cu 0.10080(78) 0.66667 0.16667
C1_5 C 0.028523 0.566897 0.372267
H1_5 H 0.049843 0.613247 0.380747
C3_5 C 0.059773 0.529897 0.384787
H2_5 H 0.102323 0.551107 0.401767
N2_4 N 0.181553 0.713357 0.120367
C4_5 C 0.198863 0.696247 0.071857
H3_5 H 0.168983 0.654777 0.05528
C5_5 C 0.225583 0.774457 0.144757
C6_5 C 0.260213 0.740247 0.047737
H4_5 H 0.271953 0.728617 0.014807
O2_5 O 0.210143 0.789757 0.188097
N3_4 N 0.005693 0.614237 0.189147
O3_4 O 0.041573 0.665687 0.270317
C11_5 C 0.028523 0.461627 0.372267
H8_5 H 0.049843 0.436597 0.380747
N6_5 N 0.286643 0.818447 0.120367
C12_5 C 0.303753 0.801137 0.071857
H9_5 H 0.345223 0.831017 0.05528
N7_4 N 0.058123 0.719097 0.144187
C13_4 C 0.026643 0.809457 0.095967
H10_4 H 0.015963 0.840117 0.079597
C14_4 C 0.058033 0.770137 0.174317
H11_4 H 0.068653 0.774127 0.211147
C15_4 C 0.042473 0.713237 0.089947
C16_4 C 0.042293 0.815317 0.150207
H12_4 H 0.042233 0.849967 0.170667
N8_4 N 0.026733 0.758417 0.065837
O4_4 O 0.042553 0.667647 0.063017
Cu3_6 Cu 0.33333 0.89920(78) 0.16667
Cu4_4 Cu 0.00001(68) 0.75346(68) 0.00000
N10_4 N 0.134863 0.619977 0.212967
Cu4_5 Cu 0.00001(68) 0.75346(68) 1.00000
C2_5 C 0.934453 0.467317 0.334747
O1_5 O 0.878463 0.439087 0.312397
C7_4 C 0.883853 0.523877 0.237367
H5_4 H 0.842513 0.493217 0.253737
C8_4 C 0.954563 0.563197 0.159017
H6_4 H 0.961193 0.559207 0.122187
C9_4 C 0.995903 0.620097 0.243387
C10_4 C 0.893643 0.518017 0.183127
H7_4 H 0.858933 0.483367 0.162667
N5_5 N 0.965703 0.430297 0.347267
Cu4_6 Cu 1.00001(68) 0.75346(68) 0.00000
Cu5_5 Cu 0.91321 0.33334(68) 0.33333
Cu4_7 Cu 1.00001(68) 0.75346(68) 1.00000
Cu1_7 Cu 0.33333 0.43414(78) 0.16667
N1_5 N 0.464593 0.430297 0.347267
C1_6 C 0.433103 0.461627 0.372267
H1_6 H 0.386753 0.436597 0.380747
C2_6 C 0.532683 0.467137 0.334747
C3_6 C 0.470103 0.529877 0.384787
H2_6 H 0.448893 0.551217 0.401767
O1_6 O 0.560913 0.439377 0.312397
N2_5 N 0.286643 0.468197 0.120367
C4_6 C 0.303753 0.502617 0.071857
H3_6 H 0.345223 0.514207 0.05528
C5_6 C 0.225543 0.451127 0.144757
C6_6 C 0.259753 0.519967 0.047737
H4_6 H 0.271383 0.543337 0.014807
O2_6 O 0.210243 0.420387 0.188097
N3_5 N 0.385763 0.391457 0.189147
C7_5 C 0.476123 0.359977 0.237367
H5_5 H 0.506783 0.349297 0.253737
C8_5 C 0.436803 0.391367 0.159017
H6_5 H 0.440793 0.401987 0.122187
C9_5 C 0.379903 0.375807 0.243387
C10_5 C 0.481983 0.375627 0.183127
H7_5 H 0.516633 0.375567 0.162667
N4_4 N 0.425083 0.360067 0.267497
O3_5 O 0.334313 0.375887 0.270317
N5_6 N 0.569703 0.535407 0.347267
C11_6 C 0.538373 0.566897 0.372267
H8_6 H 0.563403 0.613247 0.380747
N6_6 N 0.181553 0.468197 0.120367
C12_6 C 0.198863 0.502617 0.071857
H9_6 H 0.168983 0.514207 0.05528
N7_5 N 0.280903 0.339027 0.144187
C13_5 C 0.190543 0.217187 0.095967
H10_5 H 0.159883 0.175847 0.079597
C14_5 C 0.229863 0.287897 0.174317
H11_5 H 0.225873 0.294527 0.211147
C15_5 C 0.286763 0.329237 0.089947
C16_5 C 0.184683 0.226977 0.150207
H12_5 H 0.150033 0.192267 0.170667
N8_5 N 0.241583 0.268317 0.065837
O4_5 O 0.332353 0.374907 0.063017
Cu3_7 Cu 0.10080(78) 0.43414(78) 0.16667
Cu4_8 Cu 0.24654(68) 0.24654(96) 0.00000
N9_5 N 0.367630 0.236370 0.319400
N10_5 N 0.380023 0.514887 0.212967
Cu4_9 Cu 0.24654(68) 0.24654(96) 1.00000
N1_6 N 0.569703 0.034297 0.347267
C2_7 C 0.532863 0.065547 0.334747
O1_7 O 0.560623 0.121537 0.312397
C7_6 C 0.640023 0.116147 0.237367
H5_6 H 0.650703 0.157487 0.253737
C8_6 C 0.608633 0.045437 0.159017
H6_6 H 0.598013 0.038807 0.122187
C9_6 C 0.624193 0.004097 0.243387
C10_6 C 0.624373 0.106357 0.183127
H7_6 H 0.624433 0.141067 0.162667
N4_5 N 0.639933 0.065017 0.267497
N5_7 N 0.464593 0.034297 0.347267
Cu4_10 Cu 0.75346(96) -0.00001(68) 0.00000
Cu5_6 Cu 0.42013(68) 0.08679 0.33333
N9_6 N 0.763630 0.131260 0.319400
Cu4_11 Cu 0.75346(96) -0.00001(68) 1.00000
Cu1_8 Cu 0.56586(78) 0.89920(78) 0.16667
C1_7 C 0.538373 0.971477 0.372267
H1_7 H 0.563403 0.950157 0.380747
C3_7 C 0.470123 0.940227 0.384787
H2_7 H 0.448783 0.897677 0.401767
N2_6 N 0.531803 0.818447 0.120367
C4_7 C 0.497383 0.801137 0.071857
H3_7 H 0.485793 0.831017 0.05528
C5_7 C 0.548873 0.774417 0.144757
C6_7 C 0.480033 0.739787 0.047737
H4_7 H 0.456663 0.728047 0.014807
O2_7 O 0.579613 0.789857 0.188097
N3_6 N 0.608543 0.994307 0.189147
O3_6 O 0.624113 0.958427 0.270317
C11_7 C 0.433103 0.971477 0.372267
H8_7 H 0.386753 0.950157 0.380747
N6_7 N 0.531803 0.713357 0.120367
C12_7 C 0.497383 0.696247 0.071857
H9_7 H 0.485793 0.654777 0.05528
N7_6 N 0.660973 0.941877 0.144187
C13_6 C 0.782813 0.973357 0.095967
H10_6 H 0.824153 0.984037 0.079597
C14_6 C 0.712103 0.941967 0.174317
H11_6 H 0.705473 0.931347 0.211147
C15_6 C 0.670763 0.957527 0.089947
C16_6 C 0.773023 0.957707 0.150207
H12_6 H 0.807733 0.957767 0.170667
N8_6 N 0.731683 0.973267 0.065837
O4_6 O 0.625093 0.957447 0.063017
Cu3_8 Cu 0.56586(78) 0.66667 0.16667
Cu4_12 Cu 0.75346(96) 0.99999(68) 0.00000
N10_6 N 0.485113 0.865137 0.212967
Cu4_13 Cu 0.75346(96) 0.99999(68) 1.00000
N1_7 N 0.299037 0.202073 0.013933
C1_8 C 0.361857 0.233563 0.038933
H1_8 H 0.383177 0.279913 0.047413
C2_8 C 0.267787 0.133983 0.001413
C3_8 C 0.393107 0.196563 0.051453
H2_8 H 0.435657 0.217773 0.068433
N5_8 N 0.299037 0.096963 0.013933
C11_8 C 0.361857 0.128293 0.038933
H8_8 H 0.383177 0.103263 0.047413
Cu5_7 Cu 0.24654 0.00001(68) -0.00000
Cu1_9 Cu 0.43414(78) 0.33333 0.83333
O1_8 O 0.211797 0.105753 0.979063
N2_7 N 0.514887 0.380023 0.787033
C4_8 C 0.532197 0.362913 0.738523
H3_8 H 0.502317 0.321443 0.72194
C5_8 C 0.558917 0.441123 0.811423
C6_8 C 0.593547 0.406913 0.714403
H4_8 H 0.605287 0.395283 0.681473
O2_8 O 0.543477 0.456423 0.854763
N3_7 N 0.339027 0.280903 0.855813
C7_7 C 0.217187 0.190543 0.904033
H5_7 H 0.175847 0.159883 0.920403
C8_7 C 0.287897 0.229863 0.825683
H6_7 H 0.294527 0.225873 0.788853
C9_7 C 0.329237 0.286763 0.910053
C10_7 C 0.226977 0.184683 0.849793
H7_7 H 0.192267 0.150033 0.829333
N4_6 N 0.268317 0.241583 0.934163
O3_7 O 0.374907 0.332353 0.936983
N6_8 N 0.619977 0.485113 0.787033
C12_8 C 0.637087 0.467803 0.738523
H9_8 H 0.678557 0.497683 0.72194
N7_7 N 0.391457 0.385763 0.810853
C13_7 C 0.359977 0.476123 0.762633
H10_7 H 0.349297 0.506783 0.746263
C14_7 C 0.391367 0.436803 0.840983
H11_7 H 0.401987 0.440793 0.877813
C15_7 C 0.375807 0.379903 0.756613
C16_7 C 0.375627 0.481983 0.816873
H12_7 H 0.375567 0.516633 0.837333
O4_7 O 0.375887 0.334313 0.729683
Cu3_9 Cu 0.66667 0.56586(78) 0.83333
Cu5_8 Cu 0.24654 0.00001(68) 1.00000
N9_7 N 0.202073 0.299037 0.986067
N10_7 N 0.468197 0.286643 0.879633
Cu5_9 Cu 0.24654 1.00001(68) -0.00000
Cu5_10 Cu 0.24654 1.00001(68) 1.00000
Cu5_11 Cu -0.00001(68) 0.24654(68) -0.00000
Cu5_12 Cu -0.00001(68) 0.24654(68) 1.00000
N1_8 N 0.797927 0.096963 0.013933
C1_9 C 0.766437 0.128293 0.038933
H1_9 H 0.720087 0.103263 0.047413
C2_9 C 0.866017 0.133803 0.001413
C3_9 C 0.803437 0.196543 0.051453
H2_9 H 0.782227 0.217883 0.068433
N5_9 N 0.903037 0.202073 0.013933
C11_9 C 0.871707 0.233563 0.038933
H8_9 H 0.896737 0.279913 0.047413
Cu5_13 Cu 0.99999(68) 0.24654(68) -0.00000
Cu1_10 Cu 0.66667 0.10080(78) 0.83333
O1_9 O 0.894247 0.106043 0.979063
N2_8 N 0.619977 0.134863 0.787033
C4_9 C 0.637087 0.169283 0.738523
H3_9 H 0.678557 0.180873 0.72194
C5_9 C 0.558877 0.117793 0.811423
C6_9 C 0.593087 0.186633 0.714403
H4_9 H 0.604717 0.210003 0.681473
O2_9 O 0.543577 0.087053 0.854763
N3_8 N 0.719097 0.058123 0.855813
C7_8 C 0.809457 0.026643 0.904033
H5_8 H 0.840117 0.015963 0.920403
C8_8 C 0.770137 0.058033 0.825683
H6_8 H 0.774127 0.068653 0.788853
C9_8 C 0.713237 0.042473 0.910053
C10_8 C 0.815317 0.042293 0.849793
H7_8 H 0.849967 0.042233 0.829333
N4_7 N 0.758417 0.026733 0.934163
O3_8 O 0.667647 0.042553 0.936983
N6_9 N 0.514887 0.134863 0.787033
C12_9 C 0.532197 0.169283 0.738523
H9_9 H 0.502317 0.180873 0.72194
N7_8 N 0.614237 0.005693 0.810853
O4_8 O 0.665687 0.041573 0.729683
Cu3_10 Cu 0.43414(78) 0.10080(78) 0.83333
Cu5_14 Cu 0.99999(68) 0.24654(68) 1.00000
N10_8 N 0.713357 0.181553 0.879633
C13_8 C 0.523877 0.883853 0.762633
H10_8 H 0.493217 0.842513 0.746263
C14_8 C 0.563197 0.954563 0.840983
H11_8 H 0.559207 0.961193 0.877813
C15_8 C 0.620097 0.995903 0.756613
C16_8 C 0.518017 0.893643 0.816873
H12_8 H 0.483367 0.858933 0.837333
N9_8 N 0.700963 0.903037 0.986067
C13_9 C 0.116147 0.640023 0.762633
H10_9 H 0.157487 0.650703 0.746263
C14_9 C 0.045437 0.608633 0.840983
H11_9 H 0.038807 0.598013 0.877813
C15_9 C 0.004097 0.624193 0.756613
C16_9 C 0.106357 0.624373 0.816873
H12_9 H 0.141067 0.624433 0.837333
N9_9 N 0.096963 0.797927 0.986067
N1_9 N 0.903037 0.700963 0.013933
C1_10 C 0.871707 0.638143 0.038933
H1_10 H 0.896737 0.616823 0.047413
C2_10 C 0.866197 0.732213 0.001413
C3_10 C 0.803457 0.606893 0.051453
H2_10 H 0.782117 0.564343 0.068433
N5_10 N 0.797927 0.700963 0.013933
C11_10 C 0.766437 0.638143 0.038933
H8_10 H 0.720087 0.616823 0.047413
Cu5_15 Cu 0.75346(68) 0.75346 -0.00000
Cu1_11 Cu 0.89920(78) 0.56586(78) 0.83333
O1_10 O 0.893957 0.788203 0.979063
N2_9 N 0.865137 0.485113 0.787033
C4_10 C 0.830717 0.467803 0.738523
H3_10 H 0.819127 0.497683 0.72194
C5_10 C 0.882207 0.441083 0.811423
C6_10 C 0.813367 0.406453 0.714403
H4_10 H 0.789997 0.394713 0.681473
O2_10 O 0.912947 0.456523 0.854763
N3_9 N 0.941877 0.660973 0.855813
C7_9 C 0.973357 0.782813 0.904033
H5_9 H 0.984037 0.824153 0.920403
C8_9 C 0.941967 0.712103 0.825683
H6_9 H 0.931347 0.705473 0.788853
C9_9 C 0.957527 0.670763 0.910053
C10_9 C 0.957707 0.773023 0.849793
H7_9 H 0.957767 0.807733 0.829333
N4_8 N 0.973267 0.731683 0.934163
O3_9 O 0.957447 0.625093 0.936983
N6_10 N 0.865137 0.380023 0.787033
C12_10 C 0.830717 0.362913 0.738523
H9_10 H 0.819127 0.321443 0.72194
N7_9 N 0.994307 0.608543 0.810853
O4_9 O 0.958427 0.624113 0.729683
Cu3_11 Cu 0.89920(78) 0.33333 0.83333
Cu5_16 Cu 0.75346(68) 0.75346 1.00000
N10_9 N 0.818447 0.531803 0.879633
C1_11 C 0.304810 0.205040 0.294400
H1_11 H 0.283490 0.230070 0.285920
C2_11 C 0.398880 0.199530 0.331920
C3_11 C 0.273560 0.136790 0.281880
H2_11 H 0.231010 0.115450 0.264900
O1_11 O 0.454870 0.227290 0.354270
C4_11 C 0.134470 0.164050 0.594810
H3_11 H 0.164350 0.152460 0.61139
C5_11 C 0.107750 0.215540 0.521910
C6_11 C 0.073120 0.146700 0.618930
H4_11 H 0.061380 0.123330 0.651860
O2_11 O 0.123190 0.246280 0.478570
N5_11 N 0.367630 0.131260 0.319400
C11_11 C 0.304810 0.099770 0.294400
H8_11 H 0.283490 0.053420 0.285920
N6_11 N 0.046690 0.198470 0.546300
C12_11 C 0.029580 0.164050 0.594810
H9_11 H 0.988110 0.152460 0.61139
C1_12 C 0.794960 0.099770 0.294400
H1_12 H 0.769930 0.053420 0.285920
C2_12 C 0.800470 0.199350 0.331920
C3_12 C 0.863210 0.136770 0.281880
H2_12 H 0.884550 0.115560 0.264900
O1_12 O 0.772710 0.227580 0.354270
H3_12 H 0.847540 0.011890 0.61139
N5_12 N 0.868740 0.236370 0.319400
C11_12 C 0.900230 0.205040 0.294400
H8_12 H 0.946580 0.230070 0.285920
C4_12 C 0.835950 0.970420 0.594810
C5_12 C 0.784460 0.892210 0.521910
C6_12 C 0.853300 0.926420 0.618930
H4_12 H 0.876670 0.938050 0.651860
O2_12 O 0.753720 0.876910 0.478570
N6_12 N 0.801530 0.848220 0.546300
C12_12 C 0.835950 0.865530 0.594810
H9_12 H 0.847540 0.835650 0.61139
O1_13 O 0.105753 0.211797 0.020937
C4_13 C 0.362913 0.532197 0.261477
H3_13 H 0.321443 0.502317 0.27806
C5_13 C 0.441123 0.558917 0.188577
C6_13 C 0.406913 0.593547 0.285597
H4_13 H 0.395283 0.605287 0.318527
O2_13 O 0.456423 0.543477 0.145237
N6_13 N 0.485113 0.619977 0.212967
C12_13 C 0.467803 0.637087 0.261477
H9_13 H 0.497683 0.678557 0.27806
C1_13 C 0.233563 0.361857 0.961067
H1_13 H 0.279913 0.383177 0.952587
C2_13 C 0.133983 0.267787 0.998587
C3_13 C 0.196563 0.393107 0.948547
H2_13 H 0.217773 0.435657 0.931567
N5_13 N 0.096963 0.299037 0.986067
C11_13 C 0.128293 0.361857 0.961067
H8_13 H 0.103263 0.383177 0.952587
O1_14 O 0.788203 0.893957 0.020937
C4_14 C 0.467803 0.830717 0.261477
H3_14 H 0.497683 0.819127 0.27806
C5_14 C 0.441083 0.882207 0.188577
C6_14 C 0.406453 0.813367 0.285597
H4_14 H 0.394713 0.789997 0.318527
O2_14 O 0.456523 0.912947 0.145237
N6_14 N 0.380023 0.865137 0.212967
C12_14 C 0.362913 0.830717 0.261477
H9_14 H 0.321443 0.819127 0.27806
C1_14 C 0.638143 0.871707 0.961067
H1_14 H 0.616823 0.896737 0.952587
C2_14 C 0.732213 0.866197 0.998587
C3_14 C 0.606893 0.803457 0.948547
H2_14 H 0.564343 0.782117 0.931567
N5_14 N 0.700963 0.797927 0.986067
C11_14 C 0.638143 0.766437 0.961067
H8_14 H 0.616823 0.720087 0.952587
O1_15 O 0.106043 0.894247 0.020937
C4_15 C 0.169283 0.637087 0.261477
H3_15 H 0.180873 0.678557 0.27806
C5_15 C 0.117793 0.558877 0.188577
C6_15 C 0.186633 0.593087 0.285597
H4_15 H 0.210003 0.604717 0.318527
O2_15 O 0.087053 0.543577 0.145237
N6_15 N 0.134863 0.514887 0.212967
C12_15 C 0.169283 0.532197 0.261477
H9_15 H 0.180873 0.502317 0.27806
C1_15 C 0.128293 0.766437 0.961067
H1_15 H 0.103263 0.720087 0.952587
C2_15 C 0.133803 0.866017 0.998587
C3_15 C 0.196543 0.803437 0.948547
H2_15 H 0.217883 0.782227 0.931567
N5_15 N 0.202073 0.903037 0.986067
C11_15 C 0.233563 0.871707 0.961067
H8_15 H 0.279913 0.896737 0.952587
C1_16 C 0.566897 0.028523 0.627733
H1_16 H 0.613247 0.049843 0.619253
C3_16 C 0.529897 0.059773 0.615213
H2_16 H 0.551107 0.102323 0.598233
C4_16 C 0.696247 0.198863 0.928143
H3_16 H 0.654777 0.168983 0.94472
C5_16 C 0.774457 0.225583 0.855243
C6_16 C 0.740247 0.260213 0.952263
H4_16 H 0.728617 0.271953 0.985193
O2_16 O 0.789757 0.210143 0.811903
C11_16 C 0.461627 0.028523 0.627733
H8_16 H 0.436597 0.049843 0.619253
N6_16 N 0.818447 0.286643 0.879633
C12_16 C 0.801137 0.303753 0.928143
H9_16 H 0.831017 0.345223 0.94472
C2_16 C 0.467317 0.934453 0.665253
O1_16 O 0.439087 0.878463 0.687603
N5_16 N 0.430297 0.965703 0.652733
C2_17 C 0.065547 0.532863 0.665253
O1_17 O 0.121537 0.560623 0.687603
N5_17 N 0.034297 0.464593 0.652733
C1_17 C 0.971477 0.538373 0.627733
H1_17 H 0.950157 0.563403 0.619253
C3_17 C 0.940227 0.470123 0.615213
H2_17 H 0.897677 0.448783 0.598233
C4_17 C 0.801137 0.497383 0.928143
H3_17 H 0.831017 0.485793 0.94472
C5_17 C 0.774417 0.548873 0.855243
C6_17 C 0.739787 0.480033 0.952263
H4_17 H 0.728047 0.456663 0.985193
O2_17 O 0.789857 0.579613 0.811903
C11_17 C 0.971477 0.433103 0.627733
H8_17 H 0.950157 0.386753 0.619253
N6_17 N 0.713357 0.531803 0.879633
C12_17 C 0.696247 0.497383 0.928143
H9_17 H 0.654777 0.485793 0.94472
C1_18 C 0.461627 0.433103 0.627733
H1_18 H 0.436597 0.386753 0.619253
C2_18 C 0.467137 0.532683 0.665253
C3_18 C 0.529877 0.470103 0.615213
H2_18 H 0.551217 0.448893 0.598233
O1_18 O 0.439377 0.560913 0.687603
C4_18 C 0.502617 0.303753 0.928143
H3_18 H 0.514207 0.345223 0.94472
C5_18 C 0.451127 0.225543 0.855243
C6_18 C 0.519967 0.259753 0.952263
H4_18 H 0.543337 0.271383 0.985193
O2_18 O 0.420387 0.210243 0.811903
N5_18 N 0.535407 0.569703 0.652733
C11_18 C 0.566897 0.538373 0.627733
H8_18 H 0.613247 0.563403 0.619253
N6_18 N 0.468197 0.181553 0.879633
C12_18 C 0.502617 0.198863 0.928143
H9_18 H 0.514207 0.168983 0.94472
N3_10 N 0.327640 0.052430 0.477520
C7_10 C 0.449480 0.142790 0.429300
H5_10 H 0.490820 0.173450 0.412930
C8_10 C 0.378770 0.103470 0.507650
H6_10 H 0.372140 0.107460 0.544480
C9_10 C 0.337430 0.046570 0.423280
C10_10 C 0.439690 0.148650 0.483540
H7_10 H 0.474400 0.183300 0.504000
N4_9 N 0.398350 0.091750 0.399170
O3_10 O 0.291760 0.000980 0.396350
N11_5 N 0.425083 0.065017 0.267497
H4_19 H 0.061380 0.938050 0.651860
N7_10 N 0.275210 0.947570 0.522480
C13_10 C 0.306690 0.857210 0.570700
H10_10 H 0.317370 0.826550 0.587070
C14_10 C 0.275300 0.896530 0.492350
H11_10 H 0.264680 0.892540 0.455520
C15_10 C 0.290860 0.953430 0.576720
C16_10 C 0.291040 0.851350 0.516460
H12_10 H 0.291100 0.816700 0.496000
N8_7 N 0.306600 0.908250 0.600830
O4_10 O 0.290780 0.999020 0.603650
N3_11 N 0.052430 0.327640 0.522480
C7_11 C 0.142790 0.449480 0.570700
H5_11 H 0.173450 0.490820 0.587070
C8_11 C 0.103470 0.378770 0.492350
H6_11 H 0.107460 0.372140 0.455520
C9_11 C 0.046570 0.337430 0.576720
C10_11 C 0.148650 0.439690 0.516460
H7_11 H 0.183300 0.474400 0.496000
N4_10 N 0.091750 0.398350 0.600830
O3_11 O 0.000980 0.291760 0.603650
N11_6 N 0.065017 0.425083 0.732503
H4_20 H 0.938050 0.061380 0.348140
N7_11 N 0.947570 0.275210 0.477520
C13_11 C 0.857210 0.306690 0.429300
H10_11 H 0.826550 0.317370 0.412930
C14_11 C 0.896530 0.275300 0.507650
H11_11 H 0.892540 0.264680 0.544480
C15_11 C 0.953430 0.290860 0.423280
C16_11 C 0.851350 0.291040 0.483540
H12_11 H 0.816700 0.291100 0.504000
N8_8 N 0.908250 0.306600 0.399170
O4_11 O 0.999020 0.290780 0.396350
H4_21 H 0.061950 0.123330 0.651860
N11_7 N 0.934983 0.360067 0.267497
H4_22 H 0.876670 0.938620 0.651860
N3_12 N 0.724790 0.672360 0.477520
C7_12 C 0.693310 0.550520 0.429300
H5_12 H 0.682630 0.509180 0.412930
C8_12 C 0.724700 0.621230 0.507650
H6_12 H 0.735320 0.627860 0.544480
C9_12 C 0.709140 0.662570 0.423280
C10_12 C 0.708960 0.560310 0.483540
H7_12 H 0.708900 0.525600 0.504000
N4_11 N 0.693400 0.601650 0.399170
O3_12 O 0.709220 0.708240 0.396350
N7_12 N 0.672360 0.724790 0.522480
C13_12 C 0.550520 0.693310 0.570700
H10_12 H 0.509180 0.682630 0.587070
C14_12 C 0.621230 0.724700 0.492350
H11_12 H 0.627860 0.735320 0.455520
C15_12 C 0.662570 0.709140 0.576720
C16_12 C 0.560310 0.708960 0.516460
H12_12 H 0.525600 0.708900 0.496000
N8_9 N 0.601650 0.693400 0.600830
O4_12 O 0.708240 0.709220 0.603650
N11_8 N 0.639933 0.574917 0.267497
C7_13 C 0.116147 0.476123 0.762633
H5_13 H 0.157487 0.506783 0.746263
C8_13 C 0.045437 0.436803 0.840983
H6_13 H 0.038807 0.440793 0.877813
C9_13 C 0.004097 0.379903 0.756613
C10_13 C 0.106357 0.481983 0.816873
H7_13 H 0.141067 0.516633 0.837333
H4_23 H 0.728047 0.271383 0.985193
N3_13 N 0.994307 0.385763 0.810853
O3_13 O 0.958427 0.334313 0.729683
N7_13 N 0.941877 0.280903 0.855813
C13_13 C 0.973357 0.190543 0.904033
H10_13 H 0.984037 0.159883 0.920403
C14_13 C 0.941967 0.229863 0.825683
H11_13 H 0.931347 0.225873 0.788853
C15_13 C 0.957527 0.286763 0.910053
C16_13 C 0.957707 0.184683 0.849793
H12_13 H 0.957767 0.150033 0.829333
N8_10 N 0.973267 0.241583 0.934163
O4_13 O 0.957447 0.332353 0.936983
H4_24 H 0.728617 0.456663 0.985193
N3_14 N 0.614237 0.608543 0.810853
C7_14 C 0.523877 0.640023 0.762633
H5_14 H 0.493217 0.650703 0.746263
C8_14 C 0.563197 0.608633 0.840983
H6_14 H 0.559207 0.598013 0.877813
C9_14 C 0.620097 0.624193 0.756613
C10_14 C 0.518017 0.624373 0.816873
H7_14 H 0.483367 0.624433 0.837333
N4_12 N 0.574917 0.639933 0.732503
O3_14 O 0.665687 0.624113 0.729683
N7_14 N 0.719097 0.660973 0.855813
C13_14 C 0.809457 0.782813 0.904033
H10_14 H 0.840117 0.824153 0.920403
C14_14 C 0.770137 0.712103 0.825683
H11_14 H 0.774127 0.705473 0.788853
C15_14 C 0.713237 0.670763 0.910053
C16_14 C 0.815317 0.773023 0.849793
H12_14 H 0.849967 0.807733 0.829333
N8_11 N 0.758417 0.731683 0.934163
O4_14 O 0.667647 0.625093 0.936983
H4_25 H 0.543337 0.271953 0.985193
N3_15 N 0.391457 0.005693 0.810853
O3_15 O 0.375887 0.041573 0.729683
N7_15 N 0.339027 0.058123 0.855813
C13_15 C 0.217187 0.026643 0.904033
H10_15 H 0.175847 0.015963 0.920403
C14_15 C 0.287897 0.058033 0.825683
H11_15 H 0.294527 0.068653 0.788853
C15_15 C 0.329237 0.042473 0.910053
C16_15 C 0.226977 0.042293 0.849793
H12_15 H 0.192267 0.042233 0.829333
N8_12 N 0.268317 0.026733 0.934163
O4_15 O 0.374907 0.042553 0.936983
C7_15 C 0.359977 0.883853 0.762633
H5_15 H 0.349297 0.842513 0.746263
C8_15 C 0.391367 0.954563 0.840983
H6_15 H 0.401987 0.961193 0.877813
C9_15 C 0.375807 0.995903 0.756613
C10_15 C 0.375627 0.893643 0.816873
H7_15 H 0.375567 0.858933 0.837333
N4_13 N 0.360067 0.934983 0.732503
H4_26 H 0.394713 0.604717 0.318527
N3_16 N 0.660973 0.719097 0.144187
C7_16 C 0.782813 0.809457 0.095967
H5_16 H 0.824153 0.840117 0.079597
C8_16 C 0.712103 0.770137 0.174317
H6_16 H 0.705473 0.774127 0.211147
C9_16 C 0.670763 0.713237 0.089947
C10_16 C 0.773023 0.815317 0.150207
H7_16 H 0.807733 0.849967 0.170667
N4_14 N 0.731683 0.758417 0.065837
O3_16 O 0.625093 0.667647 0.063017
N7_16 N 0.608543 0.614237 0.189147
C13_16 C 0.640023 0.523877 0.237367
H10_16 H 0.650703 0.493217 0.253737
C14_16 C 0.608633 0.563197 0.159017
H11_16 H 0.598013 0.559207 0.122187
C15_16 C 0.624193 0.620097 0.243387
C16_16 C 0.624373 0.518017 0.183127
H12_16 H 0.624433 0.483367 0.162667
O4_16 O 0.624113 0.665687 0.270317
C13_17 C 0.476123 0.116147 0.237367
H10_17 H 0.506783 0.157487 0.253737
C14_17 C 0.436803 0.045437 0.159017
H11_17 H 0.440793 0.038807 0.122187
C15_17 C 0.379903 0.004097 0.243387
C16_17 C 0.481983 0.106357 0.183127
H12_17 H 0.516633 0.141067 0.162667
H4_27 H 0.395283 0.789997 0.318527
N3_17 N 0.280903 0.941877 0.144187
C7_17 C 0.190543 0.973357 0.095967
H5_17 H 0.159883 0.984037 0.079597
C8_17 C 0.229863 0.941967 0.174317
H6_17 H 0.225873 0.931347 0.211147
C9_17 C 0.286763 0.957527 0.089947
C10_17 C 0.184683 0.957707 0.150207
H7_17 H 0.150033 0.957767 0.170667
N4_15 N 0.241583 0.973267 0.065837
O3_17 O 0.332353 0.957447 0.063017
N7_17 N 0.385763 0.994307 0.189147
O4_17 O 0.334313 0.958427 0.270317
H4_28 H 0.210003 0.605287 0.318527
N3_18 N 0.058123 0.339027 0.144187
C7_18 C 0.026643 0.217187 0.095967
H5_18 H 0.015963 0.175847 0.079597
C8_18 C 0.058033 0.287897 0.174317
H6_18 H 0.068653 0.294527 0.211147
C9_18 C 0.042473 0.329237 0.089947
C10_18 C 0.042293 0.226977 0.150207
H7_18 H 0.042233 0.192267 0.170667
N4_16 N 0.026733 0.268317 0.065837
O3_18 O 0.042553 0.374907 0.063017
N7_18 N 0.005693 0.391457 0.189147
O4_18 O 0.041573 0.375887 0.270317
C13_18 C 0.883853 0.359977 0.237367
H10_18 H 0.842513 0.349297 0.253737
C14_18 C 0.954563 0.391367 0.159017
H11_18 H 0.961193 0.401987 0.122187
C15_18 C 0.995903 0.375807 0.243387
C16_18 C 0.893643 0.375627 0.183127
H12_18 H 0.858933 0.375567 0.162667
H4_29 H 0.938620 0.876670 0.348140
H4_30 H 0.123330 0.061950 0.348140
H4_31 H 0.604717 0.394713 0.681473
H4_32 H 0.605287 0.210003 0.681473
H4_33 H 0.789997 0.395283 0.681473
H4_34 H 0.271383 0.728047 0.014807
H4_35 H 0.271953 0.543337 0.014807
H4_36 H 0.456663 0.728617 0.014807
loop_
_geom_bond_atom_site_label_1
_geom_bond_atom_site_label_2
_geom_bond_site_symmetry_1
_geom_bond_site_symmetry_2
Cu1 N2 1_555 1_555
N2 C4 1_555 1_555
C5 N2 1_555 1_555
C6 C4 1_555 1_555
H4 C6 1_555 1_555
O2 C5 1_555 1_555
N6 C5 1_555 1_555
C12 C6 1_555 1_555
N7 Cu1 1_555 1_555
C13 H10 1_555 1_555
C14 N7 1_555 1_555
H11 C14 1_555 1_555
C15 N7 1_555 1_555
C16 C13 1_555 1_555
H12 C16 1_555 1_555
N8 C13 1_555 1_555
O4 C15 1_555 1_555
Cu3_2 N6 1_555 1_555
Cu4 N8 1_555 1_555
N6 C12 1_555 1_555
C14 C16 1_555 1_555
C15 N8 1_555 1_555
Cu2 N1 1_555 1_555
N1 C1 1_555 1_555
C1 H1 1_555 1_555
C2 N1 1_555 1_555
C3 C1 1_555 1_555
H2 C3 1_555 1_555
O1 C2 1_555 1_555
N3 Cu1_2 1_555 1_555
C7 H5 1_555 1_555
C8 N3 1_555 1_555
H6 C8 1_555 1_555
C9 N3 1_555 1_555
C10 C7 1_555 1_555
H7 C10 1_555 1_555
N4 Cu2 1_555 1_555
O3 C9 1_555 1_555
N5 C2 1_555 1_555
C11 C3 1_555 1_555
H8 C11 1_555 1_555
Cu5 N5 1_555 1_555
N9 Cu2 1_555 1_555
N10 Cu1_2 1_555 1_555
N11 Cu2 1_555 1_555
C7 N4 1_555 1_555
C8 C10 1_555 1_555
C9 N4 1_555 1_555
N5 C11 1_555 1_555
Cu1_3 N2_2 1_555 1_555
N2_2 C4_2 1_555 1_555
C5_2 N2_2 1_555 1_555
C6_2 C4_2 1_555 1_555
H4_2 C6_2 1_555 1_555
O2_2 C5_2 1_555 1_555
N6_2 C5_2 1_555 1_555
C12_2 C6_2 1_555 1_555
N7_2 Cu1_3 1_555 1_555
C13_2 H10_2 1_555 1_555
C14_2 N7_2 1_555 1_555
H11_2 C14_2 1_555 1_555
C15_2 N7_2 1_555 1_555
C16_2 C13_2 1_555 1_555
H12_2 C16_2 1_555 1_555
N8_2 C13_2 1_555 1_555
O4_2 C15_2 1_555 1_555
Cu3_4 N6_2 1_555 1_555
Cu4_2 N8_2 1_555 1_555
N6_2 C12_2 1_555 1_555
C14_2 C16_2 1_555 1_555
C15_2 N8_2 1_555 1_555
Cu2_2 N1_2 1_555 1_555
N1_2 C1_2 1_555 1_555
C1_2 H1_2 1_555 1_555
C2_2 N1_2 1_555 1_555
C3_2 C1_2 1_555 1_555
H2_2 C3_2 1_555 1_555
O1_2 C2_2 1_555 1_555
N3_2 Cu1_4 1_555 1_555
C7_2 H5_2 1_555 1_555
C8_2 N3_2 1_555 1_555
H6_2 C8_2 1_555 1_555
C9_2 N3_2 1_555 1_555
C10_2 C7_2 1_555 1_555
H7_2 C10_2 1_555 1_555
N4_2 Cu2_2 1_555 1_555
O3_2 C9_2 1_555 1_555
N5_2 C2_2 1_555 1_555
C11_2 C3_2 1_555 1_555
H8_2 C11_2 1_555 1_555
Cu5_2 N5_2 1_555 1_555
N9_2 Cu2_2 1_555 1_555
N10_2 Cu1_4 1_555 1_555
N11_2 Cu2_2 1_555 1_555
C7_2 N4_2 1_555 1_555
C8_2 C10_2 1_555 1_555
C9_2 N4_2 1_555 1_555
N5_2 C11_2 1_555 1_555
Cu4_2 N1_3 1_555 1_555
N1_3 C1_3 1_555 1_555
C1_3 H1_3 1_555 1_555
C2_3 N1_3 1_555 1_555
C3_3 C1_3 1_555 1_555
H2_3 C3_3 1_555 1_555
O1_3 C2_3 1_555 1_555
N5_3 C2_3 1_555 1_555
C11_3 C3_3 1_555 1_555
H8_3 C11_3 1_555 1_555
Cu5_3 N5_3 1_555 1_555
N9_3 Cu4_2 1_555 1_555
N11_3 Cu4_2 1_555 1_555
N5_3 C11_3 1_555 1_555
N10_2 C4_3 1_555 1_555
C5_3 N10_2 1_555 1_555
C6_3 C4_3 1_555 1_555
H4_3 C6_3 1_555 1_555
O2_3 C5_3 1_555 1_555
N6_3 C5_3 1_555 1_555
C12_3 C6_3 1_555 1_555
H9_3 C12_3 1_555 1_555
Cu3_5 N6_3 1_555 1_555
N6_3 C12_3 1_555 1_555
Cu1_5 N2_3 1_555 1_555
Cu2_3 N1_4 1_555 1_555
N1_4 C1_4 1_555 1_555
C1_4 H1_4 1_555 1_555
C2_4 N1_4 1_555 1_555
C3_4 C1_4 1_555 1_555
H2_4 C3_4 1_555 1_555
O1_4 C2_4 1_555 1_555
N2_3 C4_4 1_555 1_555
C4_4 H3_4 1_555 1_555
C5_4 N2_3 1_555 1_555
C6_4 C4_4 1_555 1_555
H4_4 C6_4 1_555 1_555
O2_4 C5_4 1_555 1_555
N3_3 Cu1_5 1_555 1_555
C7_3 H5_3 1_555 1_555
C8_3 N3_3 1_555 1_555
H6_3 C8_3 1_555 1_555
C9_3 N3_3 1_555 1_555
C10_3 C7_3 1_555 1_555
H7_3 C10_3 1_555 1_555
N4_3 Cu2_3 1_555 1_555
O3_3 C9_3 1_555 1_555
N5_4 C2_4 1_555 1_555
C11_4 C3_4 1_555 1_555
H8_4 C11_4 1_555 1_555
N6_4 C5_4 1_555 1_555
C12_4 C6_4 1_555 1_555
N7_3 Cu1_5 1_555 1_555
C13_3 H10_3 1_555 1_555
C14_3 N7_3 1_555 1_555
H11_3 C14_3 1_555 1_555
C15_3 N7_3 1_555 1_555
C16_3 C13_3 1_555 1_555
H12_3 C16_3 1_555 1_555
N8_3 C13_3 1_555 1_555
O4_3 C15_3 1_555 1_555
Cu3_3 N6_4 1_555 1_555
Cu4_3 N8_3 1_555 1_555
Cu5_4 N5_4 1_555 1_555
N9_4 Cu2_3 1_555 1_555
N10_3 Cu1_5 1_555 1_555
N11_4 Cu2_3 1_555 1_555
C7_3 N4_3 1_555 1_555
C8_3 C10_3 1_555 1_555
C9_3 N4_3 1_555 1_555
N5_4 C11_4 1_555 1_555
N6_4 C12_4 1_555 1_555
C14_3 C16_3 1_555 1_555
C15_3 N8_3 1_555 1_555
Cu1_6 N2_4 1_555 1_555
C1_5 H1_5 1_555 1_555
C3_5 C1_5 1_555 1_555
H2_5 C3_5 1_555 1_555
N2_4 C4_5 1_555 1_555
C4_5 H3_5 1_555 1_555
C5_5 N2_4 1_555 1_555
C6_5 C4_5 1_555 1_555
H4_5 C6_5 1_555 1_555
O2_5 C5_5 1_555 1_555
N3_4 Cu1_6 1_555 1_555
C11_5 C3_5 1_555 1_555
H8_5 C11_5 1_555 1_555
N6_5 C5_5 1_555 1_555
C12_5 C6_5 1_555 1_555
H9_5 C12_5 1_555 1_555
N7_4 Cu1_6 1_555 1_555
C13_4 H10_4 1_555 1_555
C14_4 N7_4 1_555 1_555
H11_4 C14_4 1_555 1_555
C15_4 N7_4 1_555 1_555
C16_4 C13_4 1_555 1_555
H12_4 C16_4 1_555 1_555
N8_4 C13_4 1_555 1_555
O4_4 C15_4 1_555 1_555
Cu3_6 N6_5 1_555 1_555
Cu4_4 N8_4 1_555 1_555
N10_4 Cu1_6 1_555 1_555
N6_5 C12_5 1_555 1_555
C14_4 C16_4 1_555 1_555
C15_4 N8_4 1_555 1_555
C2_5 N9_2 1_555 1_555
O1_5 C2_5 1_555 1_555
C7_4 H5_4 1_555 1_555
H6_4 C8_4 1_555 1_555
C10_4 C7_4 1_555 1_555
H7_4 C10_4 1_555 1_555
N5_5 C2_5 1_555 1_555
Cu5_5 N5_5 1_555 1_555
C7_4 N11_2 1_555 1_555
C8_4 C10_4 1_555 1_555
C9_4 N11_2 1_555 1_555
Cu1_7 N2_5 1_555 1_555
Cu4_3 N1_5 1_555 1_555
N1_5 C1_6 1_555 1_555
C1_6 H1_6 1_555 1_555
C2_6 N1_5 1_555 1_555
C3_6 C1_6 1_555 1_555
H2_6 C3_6 1_555 1_555
O1_6 C2_6 1_555 1_555
N2_5 C4_6 1_555 1_555
C4_6 H3_6 1_555 1_555
C5_6 N2_5 1_555 1_555
C6_6 C4_6 1_555 1_555
H4_6 C6_6 1_555 1_555
O2_6 C5_6 1_555 1_555
N3_5 Cu1_7 1_555 1_555
C7_5 H5_5 1_555 1_555
C8_5 N3_5 1_555 1_555
H6_5 C8_5 1_555 1_555
C9_5 N3_5 1_555 1_555
C10_5 C7_5 1_555 1_555
H7_5 C10_5 1_555 1_555
N4_4 Cu4_3 1_555 1_555
O3_5 C9_5 1_555 1_555
N5_6 C2_6 1_555 1_555
C11_6 C3_6 1_555 1_555
H8_6 C11_6 1_555 1_555
N6_6 C5_6 1_555 1_555
C12_6 C6_6 1_555 1_555
H9_6 C12_6 1_555 1_555
N7_5 Cu1_7 1_555 1_555
C13_5 H10_5 1_555 1_555
C14_5 N7_5 1_555 1_555
H11_5 C14_5 1_555 1_555
C15_5 N7_5 1_555 1_555
C16_5 C13_5 1_555 1_555
H12_5 C16_5 1_555 1_555
N8_5 C13_5 1_555 1_555
O4_5 C15_5 1_555 1_555
Cu3_7 N6_6 1_555 1_555
Cu4_8 N8_5 1_555 1_555
Cu5_2 N5_6 1_555 1_555
N9_5 Cu4_3 1_555 1_555
N10_5 Cu1_7 1_555 1_555
C7_5 N4_4 1_555 1_555
C8_5 C10_5 1_555 1_555
C9_5 N4_4 1_555 1_555
N5_6 C11_6 1_555 1_555
N6_6 C12_6 1_555 1_555
C14_5 C16_5 1_555 1_555
C15_5 N8_5 1_555 1_555
Cu4 N1_6 1_555 1_555
C2_7 N1_6 1_555 1_555
O1_7 C2_7 1_555 1_555
C7_6 H5_6 1_555 1_555
H6_6 C8_6 1_555 1_555
C10_6 C7_6 1_555 1_555
H7_6 C10_6 1_555 1_555
N4_5 Cu4 1_555 1_555
N5_7 C2_7 1_555 1_555
Cu5_6 N5_7 1_555 1_555
N9_6 Cu4 1_555 1_555
C7_6 N4_5 1_555 1_555
C8_6 C10_6 1_555 1_555
C9_6 N4_5 1_555 1_555
Cu1_8 N2_6 1_555 1_555
C1_7 H1_7 1_555 1_555
C3_7 C1_7 1_555 1_555
H2_7 C3_7 1_555 1_555
N2_6 C4_7 1_555 1_555
C4_7 H3_7 1_555 1_555
C5_7 N2_6 1_555 1_555
C6_7 C4_7 1_555 1_555
H4_7 C6_7 1_555 1_555
O2_7 C5_7 1_555 1_555
N3_6 Cu1_8 1_555 1_555
C11_7 C3_7 1_555 1_555
H8_7 C11_7 1_555 1_555
N6_7 C5_7 1_555 1_555
C12_7 C6_7 1_555 1_555
H9_7 C12_7 1_555 1_555
N7_6 Cu1_8 1_555 1_555
C13_6 H10_6 1_555 1_555
C14_6 N7_6 1_555 1_555
H11_6 C14_6 1_555 1_555
C15_6 N7_6 1_555 1_555
C16_6 C13_6 1_555 1_555
H12_6 C16_6 1_555 1_555
N8_6 C13_6 1_555 1_555
O4_6 C15_6 1_555 1_555
Cu3_8 N6_7 1_555 1_555
Cu4_12 N8_6 1_555 1_555
N10_6 Cu1_8 1_555 1_555
N6_7 C12_7 1_555 1_555
C14_6 C16_6 1_555 1_555
C15_6 N8_6 1_555 1_555
Cu4_8 N1_7 1_555 1_555
N1_7 C1_8 1_555 1_555
C1_8 H1_8 1_555 1_555
C2_8 N1_7 1_555 1_555
C3_8 C1_8 1_555 1_555
H2_8 C3_8 1_555 1_555
N5_8 C2_8 1_555 1_555
C11_8 C3_8 1_555 1_555
H8_8 C11_8 1_555 1_555
Cu5_7 N5_8 1_555 1_555
N5_8 C11_8 1_555 1_555
Cu1_9 N2_7 1_555 1_555
N2_7 C4_8 1_555 1_555
C4_8 H3_8 1_555 1_555
C5_8 N2_7 1_555 1_555
C6_8 C4_8 1_555 1_555
H4_8 C6_8 1_555 1_555
O2_8 C5_8 1_555 1_555
N3_7 Cu1_9 1_555 1_555
C7_7 H5_7 1_555 1_555
C8_7 N3_7 1_555 1_555
H6_7 C8_7 1_555 1_555
C9_7 N3_7 1_555 1_555
C10_7 C7_7 1_555 1_555
H7_7 C10_7 1_555 1_555
N4_6 Cu4_9 1_555 1_555
O3_7 C9_7 1_555 1_555
N6_8 C5_8 1_555 1_555
C12_8 C6_8 1_555 1_555
H9_8 C12_8 1_555 1_555
N7_7 Cu1_9 1_555 1_555
C13_7 H10_7 1_555 1_555
C14_7 N7_7 1_555 1_555
H11_7 C14_7 1_555 1_555
C15_7 N7_7 1_555 1_555
C16_7 C13_7 1_555 1_555
H12_7 C16_7 1_555 1_555
N11_4 C13_7 1_555 1_555
O4_7 C15_7 1_555 1_555
Cu3_9 N6_8 1_555 1_555
N9_7 Cu4_9 1_555 1_555
N10_7 Cu1_9 1_555 1_555
C7_7 N4_6 1_555 1_555
C8_7 C10_7 1_555 1_555
C9_7 N4_6 1_555 1_555
N6_8 C12_8 1_555 1_555
C14_7 C16_7 1_555 1_555
C15_7 N11_4 1_555 1_555
Cu4_10 N1_8 1_555 1_555
N1_8 C1_9 1_555 1_555
C1_9 H1_9 1_555 1_555
C2_9 N1_8 1_555 1_555
C3_9 C1_9 1_555 1_555
H2_9 C3_9 1_555 1_555
N5_9 C2_9 1_555 1_555
C11_9 C3_9 1_555 1_555
H8_9 C11_9 1_555 1_555
Cu5_13 N5_9 1_555 1_555
N5_9 C11_9 1_555 1_555
Cu1_10 N2_8 1_555 1_555
N2_8 C4_9 1_555 1_555
C4_9 H3_9 1_555 1_555
C5_9 N2_8 1_555 1_555
C6_9 C4_9 1_555 1_555
H4_9 C6_9 1_555 1_555
O2_9 C5_9 1_555 1_555
N3_8 Cu1_10 1_555 1_555
C7_8 H5_8 1_555 1_555
C8_8 N3_8 1_555 1_555
H6_8 C8_8 1_555 1_555
C9_8 N3_8 1_555 1_555
C10_8 C7_8 1_555 1_555
H7_8 C10_8 1_555 1_555
N4_7 Cu4_11 1_555 1_555
O3_8 C9_8 1_555 1_555
N6_9 C5_9 1_555 1_555
C12_9 C6_9 1_555 1_555
H9_9 C12_9 1_555 1_555
N7_8 Cu1_10 1_555 1_555
Cu3_10 N6_9 1_555 1_555
N10_8 Cu1_10 1_555 1_555
C7_8 N4_7 1_555 1_555
C8_8 C10_8 1_555 1_555
C9_8 N4_7 1_555 1_555
N6_9 C12_9 1_555 1_555
C13_8 H10_8 1_555 1_555
H11_8 C14_8 1_555 1_555
C16_8 C13_8 1_555 1_555
H12_8 C16_8 1_555 1_555
N11 C13_8 1_555 1_555
N9_8 Cu4_13 1_555 1_555
C14_8 C16_8 1_555 1_555
C15_8 N11 1_555 1_555
C13_9 H10_9 1_555 1_555
H11_9 C14_9 1_555 1_555
C16_9 C13_9 1_555 1_555
H12_9 C16_9 1_555 1_555
N11_3 C13_9 1_555 1_555
N9_9 Cu4_5 1_555 1_555
C14_9 C16_9 1_555 1_555
C15_9 N11_3 1_555 1_555
Cu4_6 N1_9 1_555 1_555
N1_9 C1_10 1_555 1_555
C1_10 H1_10 1_555 1_555
C2_10 N1_9 1_555 1_555
C3_10 C1_10 1_555 1_555
H2_10 C3_10 1_555 1_555
N5_10 C2_10 1_555 1_555
C11_10 C3_10 1_555 1_555
H8_10 C11_10 1_555 1_555
Cu5_15 N5_10 1_555 1_555
N5_10 C11_10 1_555 1_555
Cu1_11 N2_9 1_555 1_555
N2_9 C4_10 1_555 1_555
C4_10 H3_10 1_555 1_555
C5_10 N2_9 1_555 1_555
C6_10 C4_10 1_555 1_555
H4_10 C6_10 1_555 1_555
O2_10 C5_10 1_555 1_555
N3_9 Cu1_11 1_555 1_555
C7_9 H5_9 1_555 1_555
C8_9 N3_9 1_555 1_555
H6_9 C8_9 1_555 1_555
C9_9 N3_9 1_555 1_555
C10_9 C7_9 1_555 1_555
H7_9 C10_9 1_555 1_555
N4_8 Cu4_7 1_555 1_555
O3_9 C9_9 1_555 1_555
N6_10 C5_10 1_555 1_555
C12_10 C6_10 1_555 1_555
H9_10 C12_10 1_555 1_555
N7_9 Cu1_11 1_555 1_555
Cu3_11 N6_10 1_555 1_555
N10_9 Cu1_11 1_555 1_555
C7_9 N4_8 1_555 1_555
C8_9 C10_9 1_555 1_555
C9_9 N4_8 1_555 1_555
N6_10 C12_10 1_555 1_555
N9_5 C1_11 1_555 1_555
C1_11 H1_11 1_555 1_555
C2_11 N9_5 1_555 1_555
C3_11 C1_11 1_555 1_555
H2_11 C3_11 1_555 1_555
O1_11 C2_11 1_555 1_555
N10_3 C4_11 1_555 1_555
C4_11 H3_11 1_555 1_555
C5_11 N10_3 1_555 1_555
C6_11 C4_11 1_555 1_555
H4_11 C6_11 1_555 1_555
O2_11 C5_11 1_555 1_555
N5_11 C2_11 1_555 1_555
C11_11 C3_11 1_555 1_555
H8_11 C11_11 1_555 1_555
N6_11 C5_11 1_555 1_555
C12_11 C6_11 1_555 1_555
Cu3 N6_11 1_555 1_555
Cu5_6 N5_11 1_555 1_555
N5_11 C11_11 1_555 1_555
N6_11 C12_11 1_555 1_555
N9_6 C1_12 1_555 1_555
C1_12 H1_12 1_555 1_555
C2_12 N9_6 1_555 1_555
C3_12 C1_12 1_555 1_555
H2_12 C3_12 1_555 1_555
O1_12 C2_12 1_555 1_555
N5_12 C2_12 1_555 1_555
C11_12 C3_12 1_555 1_555
H8_12 C11_12 1_555 1_555
Cu5_5 N5_12 1_555 1_555
N5_12 C11_12 1_555 1_555
N10 C4_12 1_555 1_555
C5_12 N10 1_555 1_555
C6_12 C4_12 1_555 1_555
H4_12 C6_12 1_555 1_555
O2_12 C5_12 1_555 1_555
N6_12 C5_12 1_555 1_555
C12_12 C6_12 1_555 1_555
H9_12 C12_12 1_555 1_555
Cu3_5 N6_12 1_555 1_555
N6_12 C12_12 1_555 1_555
N10_5 C4_13 1_555 1_555
C4_13 H3_13 1_555 1_555
C5_13 N10_5 1_555 1_555
C6_13 C4_13 1_555 1_555
H4_13 C6_13 1_555 1_555
O2_13 C5_13 1_555 1_555
N6_13 C5_13 1_555 1_555
C12_13 C6_13 1_555 1_555
H9_13 C12_13 1_555 1_555
Cu3_8 N6_13 1_555 1_555
N6_13 C12_13 1_555 1_555
N9_7 C1_13 1_555 1_555
C1_13 H1_13 1_555 1_555
C2_13 N9_7 1_555 1_555
C3_13 C1_13 1_555 1_555
H2_13 C3_13 1_555 1_555
N5_13 C2_13 1_555 1_555
C11_13 C3_13 1_555 1_555
H8_13 C11_13 1_555 1_555
Cu5_12 N5_13 1_555 1_555
N5_13 C11_13 1_555 1_555
N10_6 C4_14 1_555 1_555
C4_14 H3_14 1_555 1_555
C5_14 N10_6 1_555 1_555
C6_14 C4_14 1_555 1_555
H4_14 C6_14 1_555 1_555
O2_14 C5_14 1_555 1_555
N6_14 C5_14 1_555 1_555
C12_14 C6_14 1_555 1_555
H9_14 C12_14 1_555 1_555
Cu3_6 N6_14 1_555 1_555
N6_14 C12_14 1_555 1_555
N9_8 C1_14 1_555 1_555
C1_14 H1_14 1_555 1_555
C2_14 N9_8 1_555 1_555
C3_14 C1_14 1_555 1_555
H2_14 C3_14 1_555 1_555
N5_14 C2_14 1_555 1_555
C11_14 C3_14 1_555 1_555
H8_14 C11_14 1_555 1_555
Cu5_16 N5_14 1_555 1_555
N5_14 C11_14 1_555 1_555
N10_4 C4_15 1_555 1_555
C4_15 H3_15 1_555 1_555
C5_15 N10_4 1_555 1_555
C6_15 C4_15 1_555 1_555
H4_15 C6_15 1_555 1_555
O2_15 C5_15 1_555 1_555
N6_15 C5_15 1_555 1_555
C12_15 C6_15 1_555 1_555
H9_15 C12_15 1_555 1_555
Cu3_7 N6_15 1_555 1_555
N6_15 C12_15 1_555 1_555
N9_9 C1_15 1_555 1_555
C1_15 H1_15 1_555 1_555
C2_15 N9_9 1_555 1_555
C3_15 C1_15 1_555 1_555
H2_15 C3_15 1_555 1_555
N5_15 C2_15 1_555 1_555
C11_15 C3_15 1_555 1_555
H8_15 C11_15 1_555 1_555
Cu5_10 N5_15 1_555 1_555
N5_15 C11_15 1_555 1_555
C1_16 H1_16 1_555 1_555
C3_16 C1_16 1_555 1_555
H2_16 C3_16 1_555 1_555
N10_8 C4_16 1_555 1_555
C4_16 H3_16 1_555 1_555
C5_16 N10_8 1_555 1_555
C6_16 C4_16 1_555 1_555
H4_16 C6_16 1_555 1_555
O2_16 C5_16 1_555 1_555
C11_16 C3_16 1_555 1_555
H8_16 C11_16 1_555 1_555
N6_16 C5_16 1_555 1_555
C12_16 C6_16 1_555 1_555
H9_16 C12_16 1_555 1_555
Cu3_11 N6_16 1_555 1_555
N6_16 C12_16 1_555 1_555
C2_16 N9 1_555 1_555
O1_16 C2_16 1_555 1_555
N5_16 C2_16 1_555 1_555
Cu5_3 N5_16 1_555 1_555
C2_17 N9_3 1_555 1_555
O1_17 C2_17 1_555 1_555
N5_17 C2_17 1_555 1_555
Cu5_4 N5_17 1_555 1_555
C1_17 H1_17 1_555 1_555
C3_17 C1_17 1_555 1_555
H2_17 C3_17 1_555 1_555
N10_9 C4_17 1_555 1_555
C4_17 H3_17 1_555 1_555
C5_17 N10_9 1_555 1_555
C6_17 C4_17 1_555 1_555
H4_17 C6_17 1_555 1_555
O2_17 C5_17 1_555 1_555
C11_17 C3_17 1_555 1_555
H8_17 C11_17 1_555 1_555
N6_17 C5_17 1_555 1_555
C12_17 C6_17 1_555 1_555
H9_17 C12_17 1_555 1_555
Cu3_9 N6_17 1_555 1_555
N6_17 C12_17 1_555 1_555
N9_4 C1_18 1_555 1_555
C1_18 H1_18 1_555 1_555
C2_18 N9_4 1_555 1_555
C3_18 C1_18 1_555 1_555
H2_18 C3_18 1_555 1_555
O1_18 C2_18 1_555 1_555
N10_7 C4_18 1_555 1_555
C4_18 H3_18 1_555 1_555
C5_18 N10_7 1_555 1_555
C6_18 C4_18 1_555 1_555
H4_18 C6_18 1_555 1_555
O2_18 C5_18 1_555 1_555
N5_18 C2_18 1_555 1_555
C11_18 C3_18 1_555 1_555
H8_18 C11_18 1_555 1_555
N6_18 C5_18 1_555 1_555
C12_18 C6_18 1_555 1_555
H9_18 C12_18 1_555 1_555
Cu3_10 N6_18 1_555 1_555
Cu5 N5_18 1_555 1_555
N5_18 C11_18 1_555 1_555
N6_18 C12_18 1_555 1_555
N3_10 Cu3_3 1_555 1_555
C7_10 H5_10 1_555 1_555
C8_10 N3_10 1_555 1_555
H6_10 C8_10 1_555 1_555
C9_10 N3_10 1_555 1_555
C10_10 C7_10 1_555 1_555
H7_10 C10_10 1_555 1_555
N4_9 Cu5_6 1_555 1_555
O3_10 C9_10 1_555 1_555
N11_5 Cu5_6 1_555 1_555
C7_10 N4_9 1_555 1_555
C8_10 C10_10 1_555 1_555
C9_10 N4_9 1_555 1_555
H4_19 C6_2 1_555 1_555
N7_10 Cu3_4 1_555 1_555
C13_10 H10_10 1_555 1_555
C14_10 N7_10 1_555 1_555
H11_10 C14_10 1_555 1_555
C15_10 N7_10 1_555 1_555
C16_10 C13_10 1_555 1_555
H12_10 C16_10 1_555 1_555
N8_7 C13_10 1_555 1_555
O4_10 C15_10 1_555 1_555
Cu5_3 N8_7 1_555 1_555
C14_10 C16_10 1_555 1_555
C15_10 N8_7 1_555 1_555
N3_11 Cu3 1_555 1_555
C7_11 H5_11 1_555 1_555
C8_11 N3_11 1_555 1_555
H6_11 C8_11 1_555 1_555
C9_11 N3_11 1_555 1_555
C10_11 C7_11 1_555 1_555
H7_11 C10_11 1_555 1_555
N4_10 Cu5_4 1_555 1_555
O3_11 C9_11 1_555 1_555
N11_6 Cu5_4 1_555 1_555
C7_11 N4_10 1_555 1_555
C8_11 C10_11 1_555 1_555
C9_11 N4_10 1_555 1_555
H4_20 C6 1_555 1_555
N7_11 Cu3_2 1_555 1_555
C13_11 H10_11 1_555 1_555
C14_11 N7_11 1_555 1_555
H11_11 C14_11 1_555 1_555
C15_11 N7_11 1_555 1_555
C16_11 C13_11 1_555 1_555
H12_11 C16_11 1_555 1_555
N8_8 C13_11 1_555 1_555
O4_11 C15_11 1_555 1_555
Cu5_5 N8_8 1_555 1_555
C14_11 C16_11 1_555 1_555
C15_11 N8_8 1_555 1_555
H4_21 C6_11 1_555 1_555
N11_7 Cu5_5 1_555 1_555
H4_22 C6_12 1_555 1_555
N3_12 Cu3_5 1_555 1_555
C7_12 H5_12 1_555 1_555
C8_12 N3_12 1_555 1_555
H6_12 C8_12 1_555 1_555
C9_12 N3_12 1_555 1_555
C10_12 C7_12 1_555 1_555
H7_12 C10_12 1_555 1_555
N4_11 Cu5_2 1_555 1_555
O3_12 C9_12 1_555 1_555
N7_12 Cu3_5 1_555 1_555
C13_12 H10_12 1_555 1_555
C14_12 N7_12 1_555 1_555
H11_12 C14_12 1_555 1_555
C15_12 N7_12 1_555 1_555
C16_12 C13_12 1_555 1_555
H12_12 C16_12 1_555 1_555
N8_9 C13_12 1_555 1_555
O4_12 C15_12 1_555 1_555
Cu5 N8_9 1_555 1_555
N11_8 Cu5_2 1_555 1_555
C7_12 N4_11 1_555 1_555
C8_12 C10_12 1_555 1_555
C9_12 N4_11 1_555 1_555
C14_12 C16_12 1_555 1_555
C15_12 N8_9 1_555 1_555
C7_13 H5_13 1_555 1_555
H6_13 C8_13 1_555 1_555
C10_13 C7_13 1_555 1_555
H7_13 C10_13 1_555 1_555
C7_13 N11_6 1_555 1_555
C8_13 C10_13 1_555 1_555
C9_13 N11_6 1_555 1_555
H4_23 C6_16 1_555 1_555
N3_13 Cu3_11 1_555 1_555
N7_13 Cu3_11 1_555 1_555
C13_13 H10_13 1_555 1_555
C14_13 N7_13 1_555 1_555
H11_13 C14_13 1_555 1_555
C15_13 N7_13 1_555 1_555
C16_13 C13_13 1_555 1_555
H12_13 C16_13 1_555 1_555
N8_10 C13_13 1_555 1_555
O4_13 C15_13 1_555 1_555
Cu5_14 N8_10 1_555 1_555
C14_13 C16_13 1_555 1_555
C15_13 N8_10 1_555 1_555
H4_24 C6_17 1_555 1_555
N3_14 Cu3_9 1_555 1_555
C7_14 H5_14 1_555 1_555
C8_14 N3_14 1_555 1_555
H6_14 C8_14 1_555 1_555
C9_14 N3_14 1_555 1_555
C10_14 C7_14 1_555 1_555
H7_14 C10_14 1_555 1_555
N4_12 Cu5 1_555 1_555
O3_14 C9_14 1_555 1_555
N7_14 Cu3_9 1_555 1_555
C13_14 H10_14 1_555 1_555
C14_14 N7_14 1_555 1_555
H11_14 C14_14 1_555 1_555
C15_14 N7_14 1_555 1_555
C16_14 C13_14 1_555 1_555
H12_14 C16_14 1_555 1_555
N8_11 C13_14 1_555 1_555
O4_14 C15_14 1_555 1_555
Cu5_16 N8_11 1_555 1_555
C7_14 N4_12 1_555 1_555
C8_14 C10_14 1_555 1_555
C9_14 N4_12 1_555 1_555
C14_14 C16_14 1_555 1_555
C15_14 N8_11 1_555 1_555
H4_25 C6_18 1_555 1_555
N3_15 Cu3_10 1_555 1_555
N7_15 Cu3_10 1_555 1_555
C13_15 H10_15 1_555 1_555
C14_15 N7_15 1_555 1_555
H11_15 C14_15 1_555 1_555
C15_15 N7_15 1_555 1_555
C16_15 C13_15 1_555 1_555
H12_15 C16_15 1_555 1_555
N8_12 C13_15 1_555 1_555
O4_15 C15_15 1_555 1_555
Cu5_8 N8_12 1_555 1_555
C14_15 C16_15 1_555 1_555
C15_15 N8_12 1_555 1_555
C7_15 H5_15 1_555 1_555
H6_15 C8_15 1_555 1_555
C10_15 C7_15 1_555 1_555
H7_15 C10_15 1_555 1_555
N4_13 Cu5_3 1_555 1_555
C7_15 N4_13 1_555 1_555
C8_15 C10_15 1_555 1_555
C9_15 N4_13 1_555 1_555
H4_26 C6_13 1_555 1_555
N3_16 Cu3_8 1_555 1_555
C7_16 H5_16 1_555 1_555
C8_16 N3_16 1_555 1_555
H6_16 C8_16 1_555 1_555
C9_16 N3_16 1_555 1_555
C10_16 C7_16 1_555 1_555
H7_16 C10_16 1_555 1_555
N4_14 Cu5_15 1_555 1_555
O3_16 C9_16 1_555 1_555
N7_16 Cu3_8 1_555 1_555
C13_16 H10_16 1_555 1_555
C14_16 N7_16 1_555 1_555
H11_16 C14_16 1_555 1_555
C15_16 N7_16 1_555 1_555
C16_16 C13_16 1_555 1_555
H12_16 C16_16 1_555 1_555
N11_8 C13_16 1_555 1_555
O4_16 C15_16 1_555 1_555
C7_16 N4_14 1_555 1_555
C8_16 C10_16 1_555 1_555
C9_16 N4_14 1_555 1_555
C14_16 C16_16 1_555 1_555
C15_16 N11_8 1_555 1_555
C13_17 H10_17 1_555 1_555
H11_17 C14_17 1_555 1_555
C16_17 C13_17 1_555 1_555
H12_17 C16_17 1_555 1_555
N11_5 C13_17 1_555 1_555
C14_17 C16_17 1_555 1_555
C15_17 N11_5 1_555 1_555
H4_27 C6_14 1_555 1_555
N3_17 Cu3_6 1_555 1_555
C7_17 H5_17 1_555 1_555
C8_17 N3_17 1_555 1_555
H6_17 C8_17 1_555 1_555
C9_17 N3_17 1_555 1_555
C10_17 C7_17 1_555 1_555
H7_17 C10_17 1_555 1_555
N4_15 Cu5_9 1_555 1_555
O3_17 C9_17 1_555 1_555
N7_17 Cu3_6 1_555 1_555
C7_17 N4_15 1_555 1_555
C8_17 C10_17 1_555 1_555
C9_17 N4_15 1_555 1_555
H4_28 C6_15 1_555 1_555
N3_18 Cu3_7 1_555 1_555
C7_18 H5_18 1_555 1_555
C8_18 N3_18 1_555 1_555
H6_18 C8_18 1_555 1_555
C9_18 N3_18 1_555 1_555
C10_18 C7_18 1_555 1_555
H7_18 C10_18 1_555 1_555
N4_16 Cu5_11 1_555 1_555
O3_18 C9_18 1_555 1_555
N7_18 Cu3_7 1_555 1_555
C7_18 N4_16 1_555 1_555
C8_18 C10_18 1_555 1_555
C9_18 N4_16 1_555 1_555
C13_18 H10_18 1_555 1_555
H11_18 C14_18 1_555 1_555
C16_18 C13_18 1_555 1_555
H12_18 C16_18 1_555 1_555
N11_7 C13_18 1_555 1_555
C14_18 C16_18 1_555 1_555
C15_18 N11_7 1_555 1_555
H4_29 C6_3 1_555 1_555
H4_30 C6_4 1_555 1_555
H4_31 C6_8 1_555 1_555
H4_32 C6_9 1_555 1_555
H4_33 C6_10 1_555 1_555
H4_34 C6_5 1_555 1_555
H4_35 C6_6 1_555 1_555
H4_36 C6_7 1_555 1_555

#END
