
###############################################################################
#
# This file contains modified crystal structure data generated from the
# MOF subset of the Cambridge Structural Database (CSD) v543 
# hosted by the Cambridge Crystallographic Data Centre (CCDC).
#
# This work is licensed under the Creative Commons
# Attribution-NonCommercial-ShareAlike 4.0 International License.
# To view a copy of this license, visit
# http://creativecommons.org/licenses/by-nc-sa/4.0/
# or send a letter to
# Creative Commons, PO Box 1866, Mountain View, CA 94042, USA.
#
# CIF created using the CSD Python API on 29 September 2022
# The structure has been converted into the P1 space group
# The structure has a 3D framework
# The original CSD entry EVEGER is in the hexagonal crystal system
# The framework has been calculated to contain at least 10.0% void space
# The void calculation uses a probe of radius 1.32A, grid spacing 0.4
#
###############################################################################

data_EVEGER
_chemical_formula_moiety         '(C84 H60 Mn15 N12 O66 Yb2)n'
_symmetry_cell_setting           triclinic
_symmetry_space_group_name_H-M   'P 1'
_symmetry_Int_Tables_number      1
_space_group_name_Hall           'P 1'
loop_
_symmetry_equiv_pos_site_id
_symmetry_equiv_pos_as_xyz
1 x,y,z
_cell_length_a                   15.440(5)
_cell_length_b                   15.440(5)
_cell_length_c                   16.254(12)
_cell_angle_alpha                90
_cell_angle_beta                 90
_cell_angle_gamma                120
_cell_volume                     3355.72
loop_
_atom_site_label
_atom_site_type_symbol
_atom_site_fract_x
_atom_site_fract_y
_atom_site_fract_z
Mn8 Mn -0.0000 0.5000 0.5000
Mn2 Mn 0.5000 -0.0000 0.0000
O8 O 0.4884(8) 0.1432(11) 0.0000
H6 H 0.4467 0.1476 0.0314
Yb2 Yb 0.6667 0.3334 0.2500
O16 O 0.6104(5) 0.2017(8) 0.1459(3)
O17 O 0.6165(6) 0.0675(8) 0.0927(4)
N4 N 0.7595(4) 0.2405(9) 0.2500
C22 C 0.8638(5) 0.1361(11) 0.2500
H17 H 0.8986 0.1014 0.2500
C23 C 0.7854(9) 0.1106(12) 0.1943(7)
H18 H 0.7680 0.0595 0.1563
C24 C 0.7344(7) 0.1631(10) 0.1972(5)
C25 C 0.6468(8) 0.1426(11) 0.1396(5)
O19 O 0.7983(8) 0.3896(5) 0.3541(3)
O20 O 0.9325(8) 0.3835(6) 0.4073(4)
C26 C 0.8894(12) 0.2146(9) 0.3057(7)
H19 H 0.9405 0.2320 0.3437
C27 C 0.8369(10) 0.2656(7) 0.3028(5)
C28 C 0.8574(11) 0.3532(8) 0.3604(5)
Mn8_2 Mn 1.0000 0.5000 0.5000
Mn9 Mn 0.5000 -0.0000 0.5000
O31 O 0.7983(8) 0.4087(6) 0.1459(3)
O32 O 0.6104(5) 0.4087(6) 0.3541(3)
O33 O 0.5913(6) 0.3896(5) 0.1459(3)
O34 O 0.5913(6) 0.2017(8) 0.3541(3)
N7 N 0.7595(9) 0.5190(8) 0.2500
N8 N 0.4810(8) 0.2405(4) 0.2500
Mn2_2 Mn 0.5000 -0.0000 1.0000
O8_2 O 0.4884(8) 0.1432(11) 1.0000
H10 H 0.4467 0.1476 0.9686
O27 O 0.6104(5) 0.2017(8) 0.8541(3)
O28 O 0.6165(6) 0.0675(8) 0.9073(4)
N6 N 0.7595(4) 0.2405(9) 0.7500
C36 C 0.8638(5) 0.1361(11) 0.7500
H28 H 0.8986 0.1014 0.7500
C37 C 0.7854(9) 0.1106(12) 0.8057(7)
H29 H 0.7680 0.0595 0.8437
C38 C 0.7344(7) 0.1631(10) 0.8028(5)
C39 C 0.6468(8) 0.1426(11) 0.8604(5)
O29 O 0.7983(8) 0.3896(5) 0.6459(3)
O30 O 0.9325(8) 0.3835(6) 0.5927(4)
C40 C 0.8894(12) 0.2146(9) 0.6943(7)
H30 H 0.9405 0.2320 0.6563
C41 C 0.8369(10) 0.2656(7) 0.6972(5)
C42 C 0.8574(11) 0.3532(8) 0.6396(5)
Yb4 Yb 0.6667 0.3333 0.7500
Yb1 Yb 0.3333 0.6667 0.2500
Mn1 Mn 0.5000 0.5000 0.0000
O1 O 0.4087(6) 0.6104(5) 0.1459(3)
O2 O 0.5490(6) 0.6165(6) 0.0927(4)
O3 O 0.6548(7) 0.5116(8) 0.0000
H1 H 0.7009 0.5533 0.0314
N1 N 0.5190(8) 0.7595(4) 0.2500
C1 C 0.7277(10) 0.8638(5) 0.2500
H2 H 0.7972 0.8986 0.2500
C2 C 0.6748(8) 0.7854(9) 0.1943(7)
H3 H 0.7085 0.7680 0.1563
C3 C 0.5713(7) 0.7344(7) 0.1972(5)
C4 C 0.5042(8) 0.6468(8) 0.1396(5)
O4 O 0.4087(6) 0.7983(8) 0.3541(3)
O5 O 0.5490(6) 0.9325(8) 0.4073(4)
C5 C 0.6748(8) 0.8894(12) 0.3057(7)
H4 H 0.7085 0.9405 0.3437
C6 C 0.5713(7) 0.8369(10) 0.3028(5)
C7 C 0.5042(8) 0.8574(11) 0.3604(5)
Mn2_3 Mn 0.5000 1.0000 0.0000
O6 O 0.3896(5) 0.7983(8) 0.1459(3)
O7 O 0.3835(6) 0.9325(8) 0.0927(4)
N2 N 0.2405(4) 0.7595(9) 0.2500
C8 C 0.1362(5) 0.8639(11) 0.2500
H7 H 0.1014 0.8986 0.2500
C9 C 0.2146(9) 0.8894(12) 0.1943(7)
H8 H 0.2320 0.9405 0.1563
C10 C 0.2656(7) 0.8369(10) 0.1972(5)
C11 C 0.3532(8) 0.8574(11) 0.1396(5)
O9 O 0.2017(8) 0.6104(5) 0.3541(3)
O10 O 0.0675(8) 0.6165(6) 0.4073(4)
C12 C 0.1106(12) 0.7854(9) 0.3057(7)
H9 H 0.0595 0.7680 0.3437
C13 C 0.1631(10) 0.7344(7) 0.3028(5)
C14 C 0.1426(11) 0.6468(8) 0.3604(5)
Mn3 Mn 0.0000 0.5000 0.0000
O11 O 0.2017(8) 0.5913(6) 0.1459(3)
O12 O 0.0675(8) 0.4510(6) 0.0927(4)
N3 N 0.2405(9) 0.4810(8) 0.2500
C15 C 0.1361(11) 0.2723(10) 0.2500
H12 H 0.1014 0.2028 0.2500
C16 C 0.1106(12) 0.3252(8) 0.1943(7)
H13 H 0.0595 0.2915 0.1563
C17 C 0.1631(10) 0.4287(7) 0.1972(5)
C18 C 0.1426(11) 0.4958(8) 0.1396(5)
O14 O 0.3896(5) 0.5913(6) 0.3541(3)
O15 O 0.3835(6) 0.4510(6) 0.4073(4)
C19 C 0.2146(9) 0.3252(8) 0.3057(7)
H14 H 0.2320 0.2915 0.3437
C20 C 0.2656(7) 0.4287(7) 0.3028(5)
C21 C 0.3532(8) 0.4958(8) 0.3604(5)
O18 O 0.5116(8) 0.8568(11) 0.0000
H16 H 0.5533 0.8524 0.0314
O23 O 0.1432(11) 0.6548(7) 0.0000
H21 H 0.1476 0.7009 0.0314
O26 O 0.3452(7) 0.4884(8) 0.0000
H27 H 0.2991 0.4467 0.0314
Mn5 Mn 0.5000 0.5000 0.5000
Mn9_2 Mn 0.5000 1.0000 0.5000
O40 O 0.4510(6) 0.3835(6) 0.0927(4)
Mn1_2 Mn 0.5000 0.5000 1.0000
O3_2 O 0.6548(7) 0.5116(8) 1.0000
H5 H 0.7009 0.5533 0.9686
Mn2_4 Mn 0.5000 1.0000 1.0000
Mn3_2 Mn -0.0000 0.5000 1.0000
O18_2 O 0.5116(8) 0.8568(11) 1.0000
H20 H 0.5533 0.8524 0.9686
O23_2 O 0.1432(11) 0.6548(7) 1.0000
H25 H 0.1476 0.7009 0.9686
O26_2 O 0.3452(7) 0.4884(8) 1.0000
H26 H 0.2991 0.4467 0.9686
O35 O 0.5490(6) 0.6165(6) 0.9073(4)
O36 O 0.4510(6) 0.3835(6) 0.9073(4)
O38 O 0.3835(6) 0.9325(8) 0.9073(4)
O39 O 0.0675(8) 0.4510(6) 0.9073(4)
Mn3_3 Mn 1.0000 0.5000 0.0000
O13 O 0.8568(11) 0.3452(7) 0.0000
H11 H 0.8524 0.2991 0.0314
O22 O 0.9325(8) 0.5490(6) 0.0927(4)
C29 C 0.8639(11) 0.7277(10) 0.2500
H22 H 0.8986 0.7972 0.2500
C30 C 0.8894(12) 0.6748(8) 0.1943(7)
H23 H 0.9405 0.7085 0.1563
C31 C 0.8369(10) 0.5713(7) 0.1972(5)
C32 C 0.8574(11) 0.5042(8) 0.1396(5)
O25 O 0.6165(6) 0.5490(6) 0.4073(4)
C33 C 0.7854(9) 0.6748(8) 0.3057(7)
H24 H 0.7680 0.7085 0.3437
C34 C 0.7344(7) 0.5713(7) 0.3028(5)
C35 C 0.6468(8) 0.5042(8) 0.3604(5)
Mn3_4 Mn 1.0000 0.5000 1.0000
O13_2 O 0.8568(11) 0.3452(7) 1.0000
H15 H 0.8524 0.2991 0.9686
O37 O 0.9325(8) 0.5490(6) 0.9073(4)
C29_2 C 0.2723(10) 0.1362(15) 0.2500
H22_2 H 0.2028 0.1014 0.2500
C30_2 C 0.3252(8) 0.2146(14) 0.1943(7)
H23_2 H 0.2915 0.2320 0.1563
C31_2 C 0.4287(7) 0.2656(12) 0.1972(5)
C32_2 C 0.4958(8) 0.3532(14) 0.1396(5)
O25_2 O 0.4510(6) 0.0675(8) 0.4073(4)
C33_2 C 0.3252(8) 0.1106(12) 0.3057(7)
H24_2 H 0.2915 0.0595 0.3437
C34_2 C 0.4287(7) 0.1631(10) 0.3028(5)
C35_2 C 0.4958(8) 0.1426(11) 0.3604(5)
O27_2 O 0.7983(8) 0.4087(9) 0.8541(3)
N6_2 N 0.7595(9) 0.5190(10) 0.7500
C36_2 C 0.8639(11) 0.7277(12) 0.7500
H28_2 H 0.8986 0.7972 0.7500
C37_2 C 0.8894(12) 0.6748(15) 0.8057(7)
H29_2 H 0.9405 0.7085 0.8437
C38_2 C 0.8369(10) 0.5713(12) 0.8028(5)
C39_2 C 0.8574(11) 0.5042(14) 0.8604(5)
O29_2 O 0.6104(5) 0.4087(9) 0.6459(3)
O30_2 O 0.6165(6) 0.5490(10) 0.5927(4)
C40_2 C 0.7854(9) 0.6748(15) 0.6943(7)
H30_2 H 0.7680 0.7085 0.6563
C41_2 C 0.7344(7) 0.5713(12) 0.6972(5)
C42_2 C 0.6468(8) 0.5042(14) 0.6396(5)
O27_3 O 0.5913(9) 0.3896(5) 0.8541(3)
N6_3 N 0.4810(10) 0.2405(4) 0.7500
C36_3 C 0.2723(12) 0.1362(5) 0.7500
H28_3 H 0.2028 0.1014 0.7500
C37_3 C 0.3252(15) 0.2146(9) 0.8057(7)
H29_3 H 0.2915 0.2320 0.8437
C38_3 C 0.4287(12) 0.2656(7) 0.8028(5)
C39_3 C 0.4958(14) 0.3532(8) 0.8604(5)
O29_3 O 0.5913(9) 0.2017(8) 0.6459(3)
O30_3 O 0.4510(10) 0.0675(8) 0.5927(4)
C40_3 C 0.3252(15) 0.1106(12) 0.6943(7)
H30_3 H 0.2915 0.0595 0.6563
C41_3 C 0.4287(12) 0.1631(10) 0.6972(5)
C42_3 C 0.4958(14) 0.1426(11) 0.6396(5)
O27_4 O 0.2017(8) 0.5913(9) 0.8541(3)
N6_4 N 0.2405(9) 0.4810(10) 0.7500
C36_4 C 0.1361(11) 0.2723(12) 0.7500
H28_4 H 0.1014 0.2028 0.7500
C37_4 C 0.1106(12) 0.3252(15) 0.8057(7)
H29_4 H 0.0595 0.2915 0.8437
C38_4 C 0.1631(10) 0.4287(12) 0.8028(5)
C39_4 C 0.1426(11) 0.4958(14) 0.8604(5)
O29_4 O 0.3896(5) 0.5913(9) 0.6459(3)
O30_4 O 0.3835(6) 0.4510(10) 0.5927(4)
C40_4 C 0.2146(9) 0.3252(15) 0.6943(7)
H30_4 H 0.2320 0.2915 0.6563
C41_4 C 0.2656(7) 0.4287(12) 0.6972(5)
C42_4 C 0.3532(8) 0.4958(14) 0.6396(5)
Yb4_2 Yb 0.3333 0.6666 0.7500
O27_5 O 0.4087(9) 0.6104(5) 0.8541(3)
N6_5 N 0.5190(10) 0.7595(4) 0.7500
C36_5 C 0.7277(12) 0.8638(5) 0.7500
H28_5 H 0.7972 0.8986 0.7500
C37_5 C 0.6748(15) 0.7854(9) 0.8057(7)
H29_5 H 0.7085 0.7680 0.8437
C38_5 C 0.5713(12) 0.7344(7) 0.8028(5)
C39_5 C 0.5042(14) 0.6468(8) 0.8604(5)
O29_5 O 0.4087(9) 0.7983(8) 0.6459(3)
O30_5 O 0.5490(10) 0.9325(8) 0.5927(4)
C40_5 C 0.6748(15) 0.8894(12) 0.6943(7)
H30_5 H 0.7085 0.9405 0.6563
C41_5 C 0.5713(12) 0.8369(10) 0.6972(5)
C42_5 C 0.5042(14) 0.8574(11) 0.6396(5)
O8_3 O 0.1432(11) 0.4884(8) 0.5000
H6_2 H 0.1476 0.4467 0.4686
H10_2 H 0.1476 0.4467 0.5314
O27_6 O 0.2017(8) 0.6104(5) 0.6459(3)
O28_2 O 0.0675(8) 0.6165(6) 0.5927(4)
N6_6 N 0.2405(9) 0.7595(4) 0.7500
C36_6 C 0.1361(11) 0.8638(5) 0.7500
H28_6 H 0.1014 0.8986 0.7500
C37_6 C 0.1106(12) 0.7854(9) 0.6943(7)
H29_6 H 0.0595 0.7680 0.6563
C38_6 C 0.1631(10) 0.7344(7) 0.6972(5)
C39_6 C 0.1426(11) 0.6468(8) 0.6396(5)
O29_6 O 0.3896(5) 0.7983(8) 0.8541(3)
C40_6 C 0.2146(9) 0.8894(12) 0.8057(7)
H30_6 H 0.2320 0.9405 0.8437
C41_6 C 0.2656(7) 0.8369(10) 0.8028(5)
C42_6 C 0.3532(8) 0.8574(11) 0.8604(5)
O3_3 O 0.5116(8) 0.6548(7) 0.5000
H1_2 H 0.5533 0.7009 0.4686
H5_2 H 0.5533 0.7009 0.5314
O18_3 O 0.8568(11) 0.5116(8) 0.5000
H16_2 H 0.8524 0.5533 0.4686
H20_2 H 0.8524 0.5533 0.5314
O23_3 O 0.6548(7) 0.1432(11) 0.5000
H21_2 H 0.7009 0.1476 0.4686
H25_2 H 0.7009 0.1476 0.5314
O26_3 O 0.4884(8) 0.3452(7) 0.5000
H26_2 H 0.4467 0.2991 0.5314
H27_2 H 0.4467 0.2991 0.4686
O13_3 O 0.3452(7) 0.8568(11) 0.5000
H11_2 H 0.2991 0.8524 0.4686
H15_2 H 0.2991 0.8524 0.5314
loop_
_geom_bond_atom_site_label_1
_geom_bond_atom_site_label_2
_geom_bond_site_symmetry_1
_geom_bond_site_symmetry_2
O8 Mn2 1_555 1_555
H6 O8 1_555 1_555
Yb2 O16 1_555 1_555
O16 C25 1_555 1_555
O17 Mn2 1_555 1_555
N4 Yb2 1_555 1_555
C22 H17 1_555 1_555
C23 C22 1_555 1_555
H18 C23 1_555 1_555
C24 N4 1_555 1_555
C25 O17 1_555 1_555
O19 Yb2 1_555 1_555
O20 C28 1_555 1_555
C26 C22 1_555 1_555
H19 C26 1_555 1_555
C27 N4 1_555 1_555
C28 O19 1_555 1_555
Mn8_2 O20 1_555 1_555
O31 Yb2 1_555 1_555
O32 Yb2 1_555 1_555
O33 Yb2 1_555 1_555
O34 Yb2 1_555 1_555
N7 Yb2 1_555 1_555
N8 Yb2 1_555 1_555
C23 C24 1_555 1_555
C24 C25 1_555 1_555
C26 C27 1_555 1_555
C27 C28 1_555 1_555
O8_2 Mn2_2 1_555 1_555
H10 O8_2 1_555 1_555
O27 C39 1_555 1_555
O28 Mn2_2 1_555 1_555
N6 C38 1_555 1_555
C36 H28 1_555 1_555
C37 C36 1_555 1_555
H29 C37 1_555 1_555
C38 C37 1_555 1_555
C39 O28 1_555 1_555
O29 C42 1_555 1_555
O30 C42 1_555 1_555
C40 C36 1_555 1_555
H30 C40 1_555 1_555
C41 N6 1_555 1_555
C42 C41 1_555 1_555
Yb4 O27 1_555 1_555
Mn8_2 O30 1_555 1_555
N6 Yb4 1_555 1_555
C38 C39 1_555 1_555
O29 Yb4 1_555 1_555
C40 C41 1_555 1_555
Yb1 O1 1_555 1_555
Mn1 O2 1_555 1_555
O1 C4 1_555 1_555
O2 C4 1_555 1_555
O3 Mn1 1_555 1_555
H1 O3 1_555 1_555
N1 Yb1 1_555 1_555
C1 H2 1_555 1_555
C2 C1 1_555 1_555
H3 C2 1_555 1_555
C3 N1 1_555 1_555
C4 C3 1_555 1_555
O4 Yb1 1_555 1_555
O5 C7 1_555 1_555
C5 C1 1_555 1_555
H4 C5 1_555 1_555
C6 N1 1_555 1_555
C7 O4 1_555 1_555
Mn2_3 O7 1_555 1_555
O6 Yb1 1_555 1_555
O7 C11 1_555 1_555
N2 Yb1 1_555 1_555
C8 H7 1_555 1_555
C9 C8 1_555 1_555
H8 C9 1_555 1_555
C10 N2 1_555 1_555
C11 O6 1_555 1_555
O9 Yb1 1_555 1_555
O10 C14 1_555 1_555
C12 C8 1_555 1_555
H9 C12 1_555 1_555
C13 N2 1_555 1_555
C14 O9 1_555 1_555
Mn3 O12 1_555 1_555
O11 Yb1 1_555 1_555
O12 C18 1_555 1_555
N3 Yb1 1_555 1_555
C15 H12 1_555 1_555
C16 C15 1_555 1_555
H13 C16 1_555 1_555
C17 N3 1_555 1_555
C18 O11 1_555 1_555
O14 Yb1 1_555 1_555
O15 C21 1_555 1_555
C19 C15 1_555 1_555
H14 C19 1_555 1_555
C20 N3 1_555 1_555
C21 O14 1_555 1_555
O18 Mn2_3 1_555 1_555
H16 O18 1_555 1_555
O23 Mn3 1_555 1_555
H21 O23 1_555 1_555
O26 Mn1 1_555 1_555
H27 O26 1_555 1_555
Mn5 O15 1_555 1_555
Mn8 O10 1_555 1_555
Mn9_2 O5 1_555 1_555
O40 Mn1 1_555 1_555
C2 C3 1_555 1_555
C5 C6 1_555 1_555
C6 C7 1_555 1_555
C9 C10 1_555 1_555
C10 C11 1_555 1_555
C12 C13 1_555 1_555
C13 C14 1_555 1_555
C16 C17 1_555 1_555
C17 C18 1_555 1_555
C19 C20 1_555 1_555
C20 C21 1_555 1_555
O3_2 Mn1_2 1_555 1_555
H5 O3_2 1_555 1_555
O18_2 Mn2_4 1_555 1_555
H20 O18_2 1_555 1_555
O23_2 Mn3_2 1_555 1_555
H25 O23_2 1_555 1_555
O26_2 Mn1_2 1_555 1_555
H26 O26_2 1_555 1_555
O35 Mn1_2 1_555 1_555
O36 Mn1_2 1_555 1_555
O38 Mn2_4 1_555 1_555
O39 Mn3_2 1_555 1_555
O13 Mn3_3 1_555 1_555
H11 O13 1_555 1_555
O31 C32 1_555 1_555
O22 Mn3_3 1_555 1_555
N7 C31 1_555 1_555
C29 H22 1_555 1_555
C30 C29 1_555 1_555
H23 C30 1_555 1_555
C31 C30 1_555 1_555
C32 O22 1_555 1_555
O32 C35 1_555 1_555
O25 C35 1_555 1_555
C33 C29 1_555 1_555
H24 C33 1_555 1_555
C34 N7 1_555 1_555
C35 C34 1_555 1_555
Mn5 O25 1_555 1_555
C31 C32 1_555 1_555
C33 C34 1_555 1_555
O13_2 Mn3_4 1_555 1_555
H15 O13_2 1_555 1_555
O37 Mn3_4 1_555 1_555
O33 C32_2 1_555 1_555
N8 C31_2 1_555 1_555
C29_2 H22_2 1_555 1_555
C30_2 C29_2 1_555 1_555
H23_2 C30_2 1_555 1_555
C31_2 C30_2 1_555 1_555
C32_2 O40 1_555 1_555
O34 C35_2 1_555 1_555
O25_2 C35_2 1_555 1_555
C33_2 C29_2 1_555 1_555
H24_2 C33_2 1_555 1_555
C34_2 N8 1_555 1_555
C35_2 C34_2 1_555 1_555
Mn9 O25_2 1_555 1_555
C31_2 C32_2 1_555 1_555
C33_2 C34_2 1_555 1_555
O27_2 C39_2 1_555 1_555
N6_2 C38_2 1_555 1_555
C36_2 H28_2 1_555 1_555
C37_2 C36_2 1_555 1_555
H29_2 C37_2 1_555 1_555
C38_2 C37_2 1_555 1_555
C39_2 O37 1_555 1_555
O29_2 C42_2 1_555 1_555
O30_2 C42_2 1_555 1_555
C40_2 C36_2 1_555 1_555
H30_2 C40_2 1_555 1_555
C41_2 N6_2 1_555 1_555
C42_2 C41_2 1_555 1_555
Yb4 O27_2 1_555 1_555
Mn5 O30_2 1_555 1_555
N6_2 Yb4 1_555 1_555
C38_2 C39_2 1_555 1_555
O29_2 Yb4 1_555 1_555
C40_2 C41_2 1_555 1_555
O27_3 C39_3 1_555 1_555
N6_3 C38_3 1_555 1_555
C36_3 H28_3 1_555 1_555
C37_3 C36_3 1_555 1_555
H29_3 C37_3 1_555 1_555
C38_3 C37_3 1_555 1_555
C39_3 O36 1_555 1_555
O29_3 C42_3 1_555 1_555
O30_3 C42_3 1_555 1_555
C40_3 C36_3 1_555 1_555
H30_3 C40_3 1_555 1_555
C41_3 N6_3 1_555 1_555
C42_3 C41_3 1_555 1_555
Yb4 O27_3 1_555 1_555
Mn9 O30_3 1_555 1_555
N6_3 Yb4 1_555 1_555
C38_3 C39_3 1_555 1_555
O29_3 Yb4 1_555 1_555
C40_3 C41_3 1_555 1_555
O27_4 C39_4 1_555 1_555
N6_4 C38_4 1_555 1_555
C36_4 H28_4 1_555 1_555
C37_4 C36_4 1_555 1_555
H29_4 C37_4 1_555 1_555
C38_4 C37_4 1_555 1_555
C39_4 O39 1_555 1_555
O29_4 C42_4 1_555 1_555
O30_4 C42_4 1_555 1_555
C40_4 C36_4 1_555 1_555
H30_4 C40_4 1_555 1_555
C41_4 N6_4 1_555 1_555
C42_4 C41_4 1_555 1_555
Yb4_2 O27_4 1_555 1_555
Mn5 O30_4 1_555 1_555
N6_4 Yb4_2 1_555 1_555
C38_4 C39_4 1_555 1_555
O29_4 Yb4_2 1_555 1_555
C40_4 C41_4 1_555 1_555
O27_5 C39_5 1_555 1_555
N6_5 C38_5 1_555 1_555
C36_5 H28_5 1_555 1_555
C37_5 C36_5 1_555 1_555
H29_5 C37_5 1_555 1_555
C38_5 C37_5 1_555 1_555
C39_5 O35 1_555 1_555
O29_5 C42_5 1_555 1_555
O30_5 C42_5 1_555 1_555
C40_5 C36_5 1_555 1_555
H30_5 C40_5 1_555 1_555
C41_5 N6_5 1_555 1_555
C42_5 C41_5 1_555 1_555
Yb4_2 O27_5 1_555 1_555
Mn9_2 O30_5 1_555 1_555
N6_5 Yb4_2 1_555 1_555
C38_5 C39_5 1_555 1_555
O29_5 Yb4_2 1_555 1_555
C40_5 C41_5 1_555 1_555
O8_3 Mn8 1_555 1_555
H6_2 O8_3 1_555 1_555
H10_2 O8_3 1_555 1_555
O27_6 C39_6 1_555 1_555
O28_2 Mn8 1_555 1_555
N6_6 C38_6 1_555 1_555
C36_6 H28_6 1_555 1_555
C37_6 C36_6 1_555 1_555
H29_6 C37_6 1_555 1_555
C38_6 C37_6 1_555 1_555
C39_6 O28_2 1_555 1_555
O29_6 C42_6 1_555 1_555
O38 C42_6 1_555 1_555
C40_6 C36_6 1_555 1_555
H30_6 C40_6 1_555 1_555
C41_6 N6_6 1_555 1_555
C42_6 C41_6 1_555 1_555
Yb4_2 O27_6 1_555 1_555
N6_6 Yb4_2 1_555 1_555
C38_6 C39_6 1_555 1_555
O29_6 Yb4_2 1_555 1_555
C40_6 C41_6 1_555 1_555
O3_3 Mn5 1_555 1_555
H1_2 O3_3 1_555 1_555
H5_2 O3_3 1_555 1_555
O18_3 Mn8_2 1_555 1_555
H16_2 O18_3 1_555 1_555
H20_2 O18_3 1_555 1_555
O23_3 Mn9 1_555 1_555
H21_2 O23_3 1_555 1_555
H25_2 O23_3 1_555 1_555
O26_3 Mn5 1_555 1_555
H26_2 O26_3 1_555 1_555
H27_2 O26_3 1_555 1_555
O13_3 Mn9_2 1_555 1_555
H11_2 O13_3 1_555 1_555
H15_2 O13_3 1_555 1_555

#END
