
###############################################################################
#
# This file contains modified crystal structure data generated from the
# MOF subset of the Cambridge Structural Database (CSD) v543 
# hosted by the Cambridge Crystallographic Data Centre (CCDC).
#
# This work is licensed under the Creative Commons
# Attribution-NonCommercial-ShareAlike 4.0 International License.
# To view a copy of this license, visit
# http://creativecommons.org/licenses/by-nc-sa/4.0/
# or send a letter to
# Creative Commons, PO Box 1866, Mountain View, CA 94042, USA.
#
# CIF created using the CSD Python API on 29 September 2022
# The structure has been converted into the P1 space group
# The structure has a 3D framework
# The original CSD entry EVINIJ is in the monoclinic crystal system
# The framework has been calculated to contain at least 10.0% void space
# The void calculation uses a probe of radius 1.32A, grid spacing 0.4
#
###############################################################################

data_EVINIJ
_chemical_formula_moiety         '(C716 H700 Ca28 N108 O272)n'
_symmetry_cell_setting           triclinic
_symmetry_space_group_name_H-M   'P 1'
_symmetry_Int_Tables_number      1
_space_group_name_Hall           'P 1'
loop_
_symmetry_equiv_pos_site_id
_symmetry_equiv_pos_as_xyz
1 x,y,z
_cell_length_a                   25.4952(2)
_cell_length_b                   28.4700(3)
_cell_length_c                   28.2642(3)
_cell_angle_alpha                90
_cell_angle_beta                 96.2820(10)
_cell_angle_gamma                90
_cell_volume                     20392.3
loop_
_atom_site_label
_atom_site_type_symbol
_atom_site_fract_x
_atom_site_fract_y
_atom_site_fract_z
Ca14 Ca 0.02964(5) 0.70416(8) 0.90608(5)
H20 H 0.7563 0.0904 0.9795
H105 H 0.6598 0.0097 0.7548
C66 C 0.6988(7) 0.0074(5) 0.6755(4)
H110 H 0.6633 0.0159 0.6612
H111 H 0.7179 0.0358 0.6868
O5 O 0.7575(2) 0.02172(18) 0.98679(17)
O75 O 0.59837(16) 0.01279(14) 0.85595(18)
O78 O 0.71814(15) 0.02466(13) 0.86020(15)
C1 C 0.6481(4) 0.5258(5) 0.8305(6)
H1 H 0.6519 0.5186 0.7971
H2 H 0.6438 0.4965 0.8479
H3 H 0.6795 0.5424 0.8448
C2 C 0.5490(3) 0.5299(3) 0.8443(4)
C3 C 0.6015(3) 0.5555(3) 0.8330(4)
H4 H 0.6111 0.5762 0.8612
N1 N 0.5897(2) 0.5888(3) 0.7925(3)
C4 C 0.4758(2) 0.7780(5) 0.5373(3)
H5 H 0.4710 0.7531 0.5133
H6 H 0.4676 0.8085 0.5222
H7 H 0.4521 0.7724 0.5618
C5 C 0.5743(3) 0.7701(3) 0.5262(2)
C6 C 0.5323(2) 0.7780(3) 0.5599(2)
H8 H 0.5389 0.8101 0.5736
N2 N 0.54008(19) 0.7451(2) 0.6005(2)
C7 C 0.8659(3) 0.7599(5) 0.4913(4)
H9 H 0.8799 0.7842 0.5138
H10 H 0.8511 0.7748 0.4615
H11 H 0.8943 0.7385 0.4849
C8 C 0.7670(3) 0.7463(3) 0.4980(3)
C9 C 0.8242(3) 0.7334(4) 0.5118(3)
H12 H 0.8267 0.7017 0.4969
N3 N 0.8341(2) 0.7231(3) 0.5610(2)
C10 C 0.8293(4) 0.6569(5) 0.8846(4)
H13 H 0.8268 0.6889 0.8970
H14 H 0.8332 0.6346 0.9111
H15 H 0.7972 0.6496 0.8636
C11 C 0.9282(3) 0.6773(4) 0.8759(3)
C12 C 0.8788(3) 0.6533(4) 0.8557(3)
H16 H 0.8878 0.6191 0.8558
N4 N 0.8637(2) 0.6650(3) 0.8058(2)
C13 C 0.6501(11) 0.8753(12) 0.5839(10)
H17 H 0.6513 0.8950 0.6124
H18 H 0.6252 0.8889 0.5587
H19 H 0.6385 0.8436 0.5914
O1 O 0.5509(4) 0.8732(4) 0.4146(4)
C19 C 0.5573(8) 0.9004(6) 0.3777(5)
H31 H 0.5443 0.8906 0.3465
N7 N 0.5817(8) 0.9414(5) 0.3843(5)
C20 C 0.6099(11) 0.9537(7) 0.4305(7)
H32 H 0.6254 0.9851 0.4286
H33 H 0.5853 0.9536 0.4548
H34 H 0.6380 0.9308 0.4390
C21 C 0.5933(9) 0.9686(6) 0.3429(7)
H35 H 0.6113 0.9977 0.3535
H36 H 0.6160 0.9501 0.3241
H37 H 0.5602 0.9761 0.3232
C26 C 0.7542(11) 0.8954(10) 0.5934(13)
H48 H 0.7428 0.9127 0.6205
H49 H 0.7798 0.8713 0.6050
H50 H 0.7705 0.9173 0.5726
C29 C 0.2496(4) 0.4984(4) 0.8228(5)
H57 H 0.2174 0.5042 0.8013
H58 H 0.2482 0.4668 0.8363
H59 H 0.2522 0.5217 0.8486
C30 C 0.3282(4) 0.8245(4) 0.6036(5)
H60 H 0.3262 0.8521 0.5827
H61 H 0.3534 0.8019 0.5930
H62 H 0.3399 0.8342 0.6363
H65 H 0.5679 0.9611 0.0033
C32 C 0.7162(6) 0.8196(10) 0.3675(6)
H66 H 0.7387 0.7944 0.3822
H67 H 0.7024 0.8383 0.3925
H68 H 0.7370 0.8398 0.3486
H80 H 0.8360 0.8420 0.0025
H83 H 0.8552 0.7558 0.0187
C52 C 0.4865(4) 0.4478(4) 0.7454(5)
H89 H 0.4573 0.4637 0.7288
C54 C 0.5703(4) 0.4092(4) 0.7449(4)
H90 H 0.5932 0.3997 0.7209
H91 H 0.5893 0.4312 0.7674
H92 H 0.5601 0.3814 0.7622
C56 C 0.5196(4) 0.4416(4) 0.6707(4)
H94 H 0.5501 0.4272 0.6581
H95 H 0.4870 0.4282 0.6545
H96 H 0.5200 0.4756 0.6652
O3 O 0.4496(4) 0.5193(4) 0.9239(4)
C57 C 0.4097(9) 0.5485(9) 0.9125(8)
H97 H 0.3870 0.5428 0.8841
N9 N 0.3998(12) 0.5856(10) 0.9392(10)
C58 C 0.3534(13) 0.6169(11) 0.9389(11)
H98 H 0.3602 0.6407 0.9639
H99 H 0.3469 0.6324 0.9079
H100 H 0.3224 0.5983 0.9447
C59 C 0.4303(16) 0.5762(12) 0.9860(11)
H102 H 0.4180 0.5468 0.9991
H103 H 0.4678 0.5735 0.9820
C65 C 0.2715(3) 0.7140(3) 0.6083(4)
C67 C 0.2731(2) 0.6701(3) 0.6364(3)
C68 C 0.4598(7) 0.6958(6) 0.3892(8)
H112 H 0.4376 0.7119 0.3653
C69 C 0.2685(3) 0.6272(3) 0.6141(3)
H113 H 0.2622 0.6252 0.5804
C70 C 0.4595(7) 0.6312(7) 0.4435(5)
H114 H 0.4339 0.6058 0.4459
H115 H 0.4937 0.6177 0.4381
H116 H 0.4632 0.6493 0.4731
C71 C 0.2730(3) 0.5857(3) 0.6421(4)
H117 H 0.2707 0.5561 0.6266
C72 C 0.3839(5) 0.6442(6) 0.3812(8)
H118 H 0.3585 0.6480 0.4046
H119 H 0.3859 0.6111 0.3723
H120 H 0.3724 0.6629 0.3528
C73 C 0.2804(2) 0.5870(2) 0.6886(4)
C74 C 0.2839(3) 0.5419(3) 0.7174(4)
C75 C 0.3011(3) 0.5878(3) 0.7905(4)
C76 C 0.2967(2) 0.6321(2) 0.7632(3)
C77 C 0.6252(3) 0.6516(5) 0.4787(4)
H121 H 0.6181 0.6610 0.5096
C78 C 0.3004(3) 0.6760(3) 0.7848(3)
H122 H 0.3059 0.6779 0.8186
C79 C 0.5946(5) 0.5734(4) 0.5054(4)
H123 H 0.5886 0.5428 0.4899
H124 H 0.6214 0.5702 0.5329
H125 H 0.5616 0.5847 0.5161
C80 C 0.2964(3) 0.7167(3) 0.7585(3)
H126 H 0.3005 0.7460 0.7747
C81 C 0.6164(9) 0.5880(6) 0.4250(5)
H127 H 0.6062 0.5548 0.4246
H128 H 0.5925 0.6053 0.4016
H129 H 0.6527 0.5909 0.4170
C82 C 0.2866(2) 0.7166(3) 0.7090(3)
C83 C 0.7125(11) 0.8465(11) 0.5267(11)
H130 H 0.7471 0.8361 0.5228
C84 C 0.2830(3) 0.7596(3) 0.6809(3)
C85 C 0.2867(2) 0.6310(2) 0.7122(3)
C86 C 0.2825(2) 0.6727(2) 0.6853(3)
C87 C 0.3834(5) 0.3648(4) 0.7618(4)
H131 H 0.4062 0.3409 0.7755
C88 C 0.2744(3) 0.8020(3) 0.6018(4)
H132 H 0.2630 0.7930 0.5680
C89 C 0.3562(7) 0.4087(5) 0.6903(6)
H133 H 0.3625 0.4082 0.6567
H134 H 0.3184 0.4044 0.6927
H135 H 0.3676 0.4390 0.7043
C90 C 0.4134(5) 0.3389(4) 0.6867(5)
H136 H 0.4105 0.3496 0.6535
H137 H 0.4507 0.3376 0.6995
H138 H 0.3977 0.3075 0.6881
C91 C 0.2321(3) 0.8334(3) 0.6186(4)
C92 C 0.2967(3) 0.5024(3) 0.7958(4)
H139 H 0.2923 0.4764 0.7720
C93 C 0.3504(3) 0.4950(3) 0.8212(3)
C94 C 0.5400(2) 0.6970(3) 0.5905(3)
C95 C 0.5492(2) 0.6636(3) 0.6326(2)
C96 C 0.5465(3) 0.6174(3) 0.6268(3)
H140 H 0.5399 0.6051 0.5955
C97 C 0.5530(3) 0.5864(3) 0.6645(4)
H141 H 0.5493 0.5535 0.6592
C98 C 0.5644(2) 0.6030(2) 0.7083(3)
C99 C 0.5741(3) 0.5713(3) 0.7501(4)
C100 C 0.5922(3) 0.6382(3) 0.8048(4)
C101 C 0.5796(2) 0.6707(3) 0.7623(2)
C102 C 0.5821(3) 0.7176(3) 0.7698(2)
H142 H 0.5908 0.7297 0.8010
C103 C 0.5715(3) 0.7483(2) 0.7308(3)
H143 H 0.5707 0.7812 0.7362
C104 C 0.5625(2) 0.7317(2) 0.6855(2)
C105 C 0.5520(3) 0.7638(3) 0.6450(3)
C106 C 0.5675(2) 0.6524(2) 0.7164(2)
C107 C 0.55897(18) 0.6836(2) 0.6771(2)
C108 C 0.5155(3) 0.2769(3) 0.8053(4)
C109 C 0.5129(2) 0.2277(3) 0.8024(3)
C110 C 0.5059(3) 0.2051(3) 0.7571(3)
H144 H 0.5036 0.2237 0.7290
C111 C 0.5024(3) 0.1581(3) 0.7534(3)
H145 H 0.4980 0.1439 0.7228
C112 C 0.5050(3) 0.1299(3) 0.7940(3)
C113 C 0.5018(3) 0.0774(3) 0.7909(4)
C114 C 0.5100(3) 0.0701(2) 0.8771(3)
C115 C 0.5123(2) 0.1225(2) 0.8816(3)
C116 C 0.5178(3) 0.1420(3) 0.9243(3)
H146 H 0.5191 0.1225 0.9518
C117 C 0.5218(3) 0.1918(3) 0.9298(3)
H147 H 0.5261 0.2059 0.9605
C118 C 0.5189(2) 0.2198(2) 0.8877(3)
C119 C 0.5201(3) 0.2723(3) 0.8929(3)
C120 C 0.5109(2) 0.1503(2) 0.8400(2)
C121 C 0.5148(2) 0.1996(2) 0.8444(3)
C124 C 0.5167(3) 0.3495(3) 0.8537(3)
H149 H 0.5135 0.3608 0.8200
C125 C 0.5651(3) 0.3739(3) 0.8784(4)
H150 H 0.5734 0.3608 0.9104
H151 H 0.5580 0.4076 0.8808
H152 H 0.5951 0.3691 0.8600
C126 C 0.4632(3) 0.3629(3) 0.8730(3)
C127 C 0.8329(2) 0.7606(3) 0.5947(3)
C128 C 0.8402(2) 0.7482(3) 0.6460(3)
C129 C 0.8419(3) 0.7850(3) 0.6796(3)
H153 H 0.8388 0.8169 0.6699
C130 C 0.8481(3) 0.7729(3) 0.7269(3)
H154 H 0.8509 0.7972 0.7502
C131 C 0.8506(2) 0.7255(3) 0.7423(3)
C132 C 0.8592(3) 0.7149(3) 0.7942(3)
C133 C 0.8622(3) 0.6281(3) 0.7729(3)
C134 C 0.8544(2) 0.6428(3) 0.7216(3)
C135 C 0.8518(3) 0.6069(3) 0.6877(3)
H155 H 0.8537 0.5749 0.6970
C136 C 0.8463(3) 0.6195(3) 0.6411(3)
H156 H 0.8458 0.5953 0.6178
C137 C 0.8415(2) 0.6658(3) 0.6254(3)
C138 C 0.8345(3) 0.6773(3) 0.5744(3)
C139 C 0.8498(2) 0.6911(2) 0.7082(3)
C140 C 0.8438(2) 0.7031(2) 0.6597(3)
C159 C 0.6267(3) 0.9264(4) 0.0838(4)
C160 C 0.6338(3) 0.9103(4) 0.1365(3)
C161 C 0.6437(3) 0.9410(4) 0.1715(4)
H163 H 0.6464 0.9734 0.1643
C162 C 0.6503(3) 0.9261(4) 0.2196(4)
H164 H 0.6558 0.9483 0.2447
C163 C 0.6488(3) 0.8802(4) 0.2290(3)
C164 C 0.6582(4) 0.8615(6) 0.2802(4)
C165 C 0.6463(4) 0.7801(5) 0.2510(4)
C166 C 0.6381(3) 0.7987(3) 0.2017(3)
C167 C 0.6279(4) 0.7668(4) 0.1651(4)
H165 H 0.6265 0.7343 0.1728
C168 C 0.6195(4) 0.7800(4) 0.1174(4)
H166 H 0.6124 0.7576 0.0927
C169 C 0.6218(3) 0.8274(4) 0.1082(3)
C170 C 0.6119(4) 0.8416(5) 0.0579(4)
C171 C 0.6397(2) 0.8470(3) 0.1931(2)
C172 C 0.6312(2) 0.8630(3) 0.1451(3)
C175 C 0.6715(4) 0.7986(6) 0.3362(3)
H168 H 0.6829 0.7653 0.3329
C176 C 0.6199(3) 0.7939(5) 0.3573(3)
Ca4 Ca 0.46022(6) 0.48095(5) 0.85504(7)
Ca5 Ca 0.35587(7) 0.38636(6) 0.87277(8)
Ca6 Ca 0.52964(5) 0.79584(8) 0.40608(5)
Ca7 Ca 0.66254(5) 0.76343(9) 0.47399(6)
N13 N 0.2771(2) 0.7557(2) 0.6328(3)
N14 N 0.2930(2) 0.5468(2) 0.7661(3)
N15 N 0.5220(3) 0.4325(3) 0.7210(3)
N16 N 0.5197(2) 0.2977(2) 0.8509(3)
N18 N 0.5056(2) 0.0526(2) 0.8316(3)
N19 N 0.4410(4) 0.6619(4) 0.4039(4)
N20 N 0.6130(3) 0.6071(4) 0.4715(2)
N22 N 0.7077(12) 0.8728(11) 0.5663(10)
N24 N 0.3853(4) 0.3718(3) 0.7150(4)
N25 N 0.6141(3) 0.8868(4) 0.0491(3)
N26 N 0.6602(3) 0.8142(5) 0.2867(3)
O12 O 0.4870(3) 0.4435(2) 0.7892(3)
O17 O 0.5030(3) 0.7142(4) 0.3994(4)
O18 O 0.2648(3) 0.7130(2) 0.5644(3)
O19 O 0.2755(2) 0.50369(19) 0.6984(3)
O20 O 0.6426(3) 0.6839(3) 0.4582(2)
O21 O 0.3113(3) 0.5871(2) 0.8338(3)
O22 O 0.6746(5) 0.8335(7) 0.4926(5)
O23 O 0.2888(2) 0.79833(19) 0.6999(3)
O24 O 0.3549(3) 0.3861(2) 0.7918(3)
O25 O 0.2377(2) 0.8768(2) 0.6167(3)
O26 O 0.3751(8) 0.3881(9) 0.9537(5)
C177 C 0.4166(14) 0.3655(13) 0.9737(9)
H169 H 0.4300 0.3428 0.9536
O27 O 0.1904(2) 0.8134(2) 0.6271(3)
O28 O 0.38882(19) 0.51495(19) 0.8063(2)
O29 O 0.3563(2) 0.4663(2) 0.8548(3)
O30 O 0.53265(18) 0.6829(2) 0.55033(18)
O31 O 0.5688(3) 0.5283(2) 0.7435(3)
O32 O 0.6047(3) 0.6516(3) 0.8443(2)
O33 O 0.5540(3) 0.8068(2) 0.6508(2)
O34 O 0.5051(2) 0.54680(18) 0.8283(2)
O35 O 0.5563(2) 0.4943(2) 0.8705(3)
O36 O 0.56424(18) 0.7829(3) 0.4840(2)
O37 O 0.61906(18) 0.7550(2) 0.54314(17)
O38 O 0.5161(2) 0.3034(2) 0.7710(3)
O39 O 0.4958(4) 0.0576(2) 0.7511(3)
O40 O 0.5118(3) 0.04490(19) 0.9115(3)
O41 O 0.5214(2) 0.2913(2) 0.9313(3)
O44 O 0.45688(19) 0.40486(17) 0.88292(19)
O45 O 0.42733(18) 0.33353(17) 0.8692(2)
O46 O 0.8280(2) 0.8007(2) 0.5808(2)
O47 O 0.8591(2) 0.7431(2) 0.8245(2)
O48 O 0.8671(4) 0.5880(3) 0.7849(2)
O49 O 0.8285(3) 0.6465(2) 0.5448(2)
O50 O 0.73533(18) 0.7421(2) 0.52869(19)
O51 O 0.7547(2) 0.7605(3) 0.4570(2)
O52 O 0.95947(19) 0.6880(3) 0.84682(18)
O53 O 0.9383(2) 0.6836(3) 0.9193(2)
O62 O 0.6310(3) 0.9660(3) 0.0758(3)
O63 O 0.6653(4) 0.8870(5) 0.3132(3)
O64 O 0.6422(5) 0.7407(4) 0.2608(4)
O65 O 0.6004(4) 0.8160(4) 0.0249(3)
O66 O 0.70624(18) 0.9155(2) 0.01785(18)
O68 O 0.5771(2) 0.8034(3) 0.33568(19)
O69 O 0.62484(18) 0.7808(3) 0.4000(2)
Ca13 Ca 0.14413(7) 0.88636(6) 0.62723(8)
O71 O 0.82459(17) 0.93846(17) 0.04813(16)
O72 O 0.2623(2) 0.3768(2) 0.8833(3)
O73 O 0.3096(2) 0.3134(2) 0.8729(3)
O76 O 0.45947(19) 0.8120(3) 0.34682(18)
O77 O 0.4383(2) 0.8164(3) 0.4193(2)
C27 C 0.6404(3) 0.5036(3) 0.6276(4)
H51 H 0.6456 0.4899 0.6596
H52 H 0.6353 0.4784 0.6040
H53 H 0.6092 0.5239 0.6249
C28 C 0.7681(3) 0.8512(3) 0.8221(4)
H54 H 0.7616 0.8560 0.8553
H55 H 0.7838 0.8797 0.8102
H56 H 0.7924 0.8248 0.8202
C31 C 0.5666(3) 0.9331(5) 0.9831(3)
H63 H 0.5340 0.9156 0.9864
H64 H 0.5672 0.9425 0.9498
C40 C 0.8143(5) 0.8332(4) 0.9744(4)
C42 C 0.8573(10) 0.7576(6) 0.9843(9)
H81 H 0.8517 0.7264 0.9702
H82 H 0.8922 0.7693 0.9785
C44 C 0.8062(10) 0.7732(7) 0.9153(7)
H84 H 0.8392 0.7630 0.9037
H85 H 0.7905 0.7986 0.8951
H86 H 0.7816 0.7467 0.9145
C63 C 0.6754(7) 0.9797(4) 0.7518(4)
C64 C 0.7408(9) 0.9452(6) 0.7151(8)
H106 H 0.7505 0.9344 0.7478
H107 H 0.7706 0.9620 0.7039
H108 H 0.7318 0.9180 0.6945
H109 H 0.7179 0.9918 0.6515
C141 C 0.7036(2) 0.5743(2) 0.6955(3)
C142 C 0.7091(2) 0.6235(2) 0.7218(3)
C143 C 0.7172(3) 0.6239(3) 0.7713(3)
H157 H 0.7218 0.5953 0.7887
C144 C 0.7183(3) 0.6659(3) 0.7943(3)
H158 H 0.7204 0.6666 0.8281
C145 C 0.7165(2) 0.7075(2) 0.7689(3)
C146 C 0.7174(3) 0.7556(3) 0.7945(3)
C147 C 0.7118(3) 0.7949(3) 0.7184(4)
C148 C 0.7075(2) 0.7485(2) 0.6928(3)
C149 C 0.6999(3) 0.7472(2) 0.6440(3)
H159 H 0.6977 0.7754 0.6260
C150 C 0.6955(3) 0.7042(2) 0.6217(2)
H160 H 0.6905 0.7032 0.5879
C151 C 0.6981(2) 0.6631(2) 0.6467(2)
C152 C 0.6913(2) 0.6175(2) 0.6202(3)
C153 C 0.7094(2) 0.7079(2) 0.7195(2)
C154 C 0.70597(19) 0.6632(2) 0.6953(2)
C155 C 0.6885(2) 0.5322(2) 0.6190(3)
H161 H 0.6829 0.5418 0.5847
C156 C 0.7411(2) 0.5052(2) 0.6249(2)
C157 C 0.7166(3) 0.8407(3) 0.7922(3)
H162 H 0.7137 0.8652 0.7667
C158 C 0.6664(3) 0.8453(2) 0.8155(3)
C173 C 0.6125(3) 0.9030(4) 0.9977(3)
H167 H 0.6078 0.8741 0.9777
C174 C 0.6676(3) 0.9240(3) 0.9892(3)
Ca1 Ca 0.66611(4) 0.95461(4) 0.86794(4)
Ca2 Ca 0.77202(4) 0.94412(4) 0.97281(4)
N12 N 0.8169(5) 0.7896(3) 0.9628(3)
N17 N 0.6952(7) 0.9767(4) 0.7138(4)
N21 N 0.69327(18) 0.57674(17) 0.6467(2)
N23 N 0.7164(2) 0.7945(2) 0.7659(3)
O7 O 0.7873(3) 0.86596(19) 0.95380(19)
O15 O 0.6701(4) 0.9558(2) 0.7861(2)
O54 O 0.7070(2) 0.53832(17) 0.7166(2)
O55 O 0.7179(2) 0.7574(2) 0.8371(2)
O56 O 0.7123(2) 0.83226(19) 0.6935(2)
O57 O 0.6846(2) 0.61665(18) 0.5769(2)
O58 O 0.78186(15) 0.52466(13) 0.63980(15)
O59 O 0.73843(13) 0.46313(12) 0.60907(13)
O60 O 0.6283(2) 0.8231(2) 0.8001(2)
O61 O 0.66479(17) 0.87621(15) 0.84851(18)
O67 O 0.66997(15) 0.94104(14) 0.94838(15)
Ca9 Ca 0.83389(4) 0.45461(4) 0.63206(4)
Ca10 Ca 0.72798(4) 0.44412(4) 0.52719(4)
Ca12 Ca 0.56171(5) 0.86293(5) 0.83527(6)
O70 O 0.86582(17) 0.95870(19) 0.98566(19)
O74 O 0.56872(15) 0.94057(13) 0.85781(15)
O79 O 0.76157(13) 0.96313(12) 0.89093(13)
C16 C 0.5085(5) 0.8841(5) 0.7256(5)
H24 H 0.4893 0.8562 0.7301
N6 N 0.4963(6) 0.9004(4) 0.6842(6)
C18 C 0.4540(9) 0.8834(6) 0.6493(6)
H28 H 0.4531 0.9023 0.6202
H29 H 0.4604 0.8505 0.6419
H30 H 0.4201 0.8862 0.6624
C22 C 0.5438(10) 0.9213(10) 0.6605(10)
H38 H 0.5313 0.9331 0.6287
H39 H 0.5597 0.9471 0.6801
H40 H 0.5703 0.8967 0.6579
O2 O 0.5831(4) 0.8240(3) 0.9065(3)
C23 C 0.5982(7) 0.7794(5) 0.9106(9)
H41 H 0.5734 0.7551 0.9021
N8 N 0.6479(6) 0.7686(5) 0.9267(9)
C24 C 0.6671(9) 0.7203(6) 0.9247(15)
H42 H 0.7042 0.7191 0.9379
H43 H 0.6462 0.6999 0.9433
H44 H 0.6637 0.7096 0.8915
C25 C 0.6874(8) 0.8067(7) 0.9250(11)
H45 H 0.7223 0.7950 0.9375
H46 H 0.6881 0.8170 0.8920
H47 H 0.6777 0.8332 0.9444
C33 C 0.4661(3) 0.5438(4) 0.5413(3)
H69 H 0.4830 0.5746 0.5464
H70 H 0.4592 0.5377 0.5071
H71 H 0.4895 0.5195 0.5562
C34 C 0.3749(4) 0.7952(4) 0.8390(4)
H72 H 0.3788 0.8148 0.8677
H73 H 0.3503 0.7694 0.8432
H74 H 0.3613 0.8143 0.8115
C35 C 0.4624(4) 0.9764(4) 0.8312(8)
H75 H 0.4656 0.9440 0.8203
H76 H 0.4342 0.9924 0.8111
H77 H 0.4541 0.9764 0.8643
C36 C 0.4226(3) 0.7584(3) 0.7464(4)
C37 C 0.4213(2) 0.7239(2) 0.7060(3)
C38 C 0.4152(2) 0.7393(3) 0.6587(3)
H78 H 0.4135 0.7720 0.6520
C39 C 0.4117(2) 0.7076(2) 0.6217(3)
H79 H 0.4068 0.7182 0.5897
C41 C 0.4154(2) 0.6601(2) 0.6318(3)
C43 C 0.4126(2) 0.6251(3) 0.5911(3)
C45 C 0.4209(2) 0.5609(3) 0.6498(3)
C46 C 0.4244(2) 0.5944(2) 0.6885(3)
C47 C 0.4309(2) 0.5790(2) 0.7355(3)
H87 H 0.4342 0.5465 0.7425
C48 C 0.4325(3) 0.6128(3) 0.7731(3)
H88 H 0.4355 0.6025 0.8053
C49 C 0.4298(2) 0.6598(2) 0.7632(3)
C50 C 0.4312(3) 0.6918(3) 0.8042(4)
C51 C 0.4203(2) 0.6425(2) 0.6782(2)
C53 C 0.42353(19) 0.6754(2) 0.7169(3)
C55 C 0.4153(3) 0.5434(3) 0.5629(3)
H93 H 0.4129 0.5115 0.5774
C60 C 0.3646(3) 0.5496(3) 0.5301(3)
C61 C 0.4281(3) 0.7751(3) 0.8307(4)
H104 H 0.4379 0.7550 0.8593
C62 C 0.4740(3) 0.8088(3) 0.8306(4)
C122 C 0.5082(3) 0.9992(2) 0.8286(4)
H148 H 0.5115 0.9954 0.7939
C123 C 0.5627(2) 0.9840(2) 0.8487(2)
N10 N 0.4259(3) 0.7422(3) 0.7908(3)
N11 N 0.41786(18) 0.5778(2) 0.6042(2)
O4 O 0.4173(2) 0.8002(2) 0.7372(3)
O6 O 0.40939(17) 0.63695(18) 0.5509(2)
O8 O 0.4226(2) 0.51833(19) 0.6567(2)
O9 O 0.4361(3) 0.6804(2) 0.8446(3)
O10 O 0.5392(5) 0.8944(3) 0.7635(4)
O11 O 0.36582(17) 0.54130(19) 0.48566(19)
O13 O 0.32459(17) 0.56154(17) 0.54813(16)
O14 O 0.4703(2) 0.8499(2) 0.8452(3)
O16 O 0.5128(2) 0.79545(19) 0.8090(2)
Ca11 Ca 0.27202(4) 0.55588(4) 0.47281(4)
C68_2 C 0.0402(7) 0.1958(6) 0.1108(8)
H112_2 H 0.0624 0.2119 0.1347
C70_2 C 0.0405(7) 0.1312(7) 0.0565(5)
H114_2 H 0.0661 0.1058 0.0541
H115_2 H 0.0063 0.1177 0.0619
H116_2 H 0.0368 0.1493 0.0269
C72_2 C 0.1161(5) 0.1442(6) 0.1188(8)
H118_2 H 0.1415 0.1480 0.0954
H119_2 H 0.1141 0.1111 0.1277
H120_2 H 0.1276 0.1629 0.1472
N19_2 N 0.0590(4) 0.1619(4) 0.0961(4)
O76_2 O 0.04053(19) 0.3120(3) 0.15318(18)
O77_2 O 0.0617(2) 0.3164(3) 0.0807(2)
C4_2 C 0.0242(2) 0.2780(5) 0.9627(3)
H5_2 H 0.0290 0.2531 0.9867
H6_2 H 0.0324 0.3085 0.9778
H7_2 H 0.0479 0.2724 0.9382
H57_2 H 0.2826 0.0042 0.6987
H59_2 H 0.2478 0.0217 0.6514
C30_2 C 0.1718(4) 0.3245(4) 0.8964(5)
H60_2 H 0.1738 0.3521 0.9173
H61_2 H 0.1466 0.3019 0.9070
H62_2 H 0.1601 0.3342 0.8637
O3_2 O 0.0504(4) 0.0193(4) 0.5761(4)
C57_2 C 0.0903(9) 0.0485(9) 0.5875(8)
H97_2 H 0.1130 0.0428 0.6159
N9_2 N 0.1002(12) 0.0856(10) 0.5608(10)
C58_2 C 0.1466(13) 0.1169(11) 0.5611(11)
H98_2 H 0.1398 0.1407 0.5361
H99_2 H 0.1531 0.1324 0.5921
H100_2 H 0.1776 0.0983 0.5553
C59_2 C 0.0697(16) 0.0762(12) 0.5140(11)
H101 H 0.0749 0.1021 0.4921
H102_2 H 0.0820 0.0468 0.5009
H103_2 H 0.0322 0.0735 0.5180
C65_2 C 0.2285(3) 0.2140(3) 0.8917(4)
C67_2 C 0.2269(2) 0.1701(3) 0.8636(3)
C69_2 C 0.2315(3) 0.1272(3) 0.8859(3)
H113_2 H 0.2378 0.1252 0.9196
C71_2 C 0.2270(3) 0.0857(3) 0.8579(4)
H117_2 H 0.2293 0.0561 0.8734
C73_2 C 0.2196(2) 0.0870(2) 0.8114(4)
C74_2 C 0.2161(3) 0.0419(3) 0.7826(4)
C75_2 C 0.1989(3) 0.0878(3) 0.7095(4)
C76_2 C 0.2033(2) 0.1321(2) 0.7368(3)
C78_2 C 0.1996(3) 0.1760(3) 0.7152(3)
H122_2 H 0.1941 0.1779 0.6814
C80_2 C 0.2036(3) 0.2167(3) 0.7415(3)
H126_2 H 0.1995 0.2460 0.7253
C82_2 C 0.2134(2) 0.2166(3) 0.7910(3)
C84_2 C 0.2170(3) 0.2596(3) 0.8191(3)
C85_2 C 0.2133(2) 0.1310(2) 0.7878(3)
C86_2 C 0.2175(2) 0.1727(2) 0.8147(3)
C88_2 C 0.2256(3) 0.3020(3) 0.8982(4)
H132_2 H 0.2370 0.2930 0.9320
C91_2 C 0.2679(3) 0.3334(3) 0.8814(4)
C92_2 C 0.2033(3) 0.0024(3) 0.7042(4)
N13_2 N 0.2229(2) 0.2557(2) 0.8672(3)
N14_2 N 0.2070(2) 0.0468(2) 0.7339(3)
O18_2 O 0.2352(3) 0.2130(2) 0.9356(3)
O19_2 O 0.2245(2) 0.00369(19) 0.8016(3)
O21_2 O 0.1887(3) 0.0871(2) 0.6662(3)
O23_2 O 0.2112(2) 0.29833(19) 0.8001(3)
O28_2 O 0.11118(19) 0.01495(19) 0.6937(2)
O11_2 O 0.13418(17) 0.04130(19) 0.01434(19)
Ca11_2 Ca 0.22798(4) 0.05588(4) 0.02719(4)
H24_2 H 0.0107 0.3562 0.7699
N6_2 N 0.0037(6) 0.4004(4) 0.8158(6)
C18_2 C 0.0460(9) 0.3834(6) 0.8507(6)
H28_2 H 0.0469 0.4023 0.8798
H29_2 H 0.0396 0.3505 0.8581
H30_2 H 0.0799 0.3862 0.8376
C29_2 C 0.2504(4) 0.9984(4) 0.6772(5)
H58_2 H 0.2518 0.9668 0.6637
C33_2 C 0.0339(3) 0.0438(4) 0.9587(3)
H69_2 H 0.0170 0.0746 0.9536
H70_2 H 0.0408 0.0377 0.9929
H71_2 H 0.0105 0.0195 0.9438
C34_2 C 0.1251(4) 0.2952(4) 0.6610(4)
H72_2 H 0.1212 0.3148 0.6323
H73_2 H 0.1497 0.2694 0.6568
H74_2 H 0.1387 0.3143 0.6885
C35_2 C 0.0376(4) 0.4764(4) 0.6688(8)
H75_2 H 0.0344 0.4440 0.6797
H76_2 H 0.0658 0.4924 0.6889
H77_2 H 0.0459 0.4764 0.6357
C36_2 C 0.0774(3) 0.2584(3) 0.7536(4)
C37_2 C 0.0787(2) 0.2239(2) 0.7940(3)
C38_2 C 0.0848(2) 0.2393(3) 0.8413(3)
H78_2 H 0.0865 0.2720 0.8480
C39_2 C 0.0883(2) 0.2076(2) 0.8783(3)
H79_2 H 0.0932 0.2182 0.9103
C41_2 C 0.0846(2) 0.1601(2) 0.8682(3)
C43_2 C 0.0874(2) 0.1251(3) 0.9089(3)
C45_2 C 0.0791(2) 0.0609(3) 0.8502(3)
C46_2 C 0.0756(2) 0.0944(2) 0.8115(3)
C47_2 C 0.0691(2) 0.0790(2) 0.7645(3)
H87_2 H 0.0658 0.0465 0.7575
C48_2 C 0.0675(3) 0.1128(3) 0.7269(3)
H88_2 H 0.0645 0.1025 0.6947
C49_2 C 0.0702(2) 0.1598(2) 0.7368(3)
C50_2 C 0.0688(3) 0.1918(3) 0.6958(4)
C51_2 C 0.0797(2) 0.1425(2) 0.8218(2)
C52_2 C 0.0135(4) 0.9478(4) 0.7546(5)
H89_2 H 0.0427 0.9637 0.7712
C53_2 C 0.07647(19) 0.1754(2) 0.7831(3)
C55_2 C 0.0847(3) 0.0434(3) 0.9371(3)
H93_2 H 0.0871 0.0115 0.9226
H95_2 H 0.0130 0.9282 0.8455
C60_2 C 0.1354(3) 0.0496(3) 0.9699(3)
C61_2 C 0.0719(3) 0.2751(3) 0.6693(4)
H104_2 H 0.0621 0.2550 0.6407
C62_2 C 0.0260(3) 0.3088(3) 0.6694(4)
C87_2 C 0.1166(5) 0.8648(4) 0.7382(4)
H131_2 H 0.0938 0.8409 0.7245
C89_2 C 0.1438(7) 0.9087(5) 0.8097(6)
H133_2 H 0.1375 0.9082 0.8433
H134_2 H 0.1816 0.9044 0.8073
H135_2 H 0.1324 0.9390 0.7957
C90_2 C 0.0866(5) 0.8389(4) 0.8133(5)
H136_2 H 0.0895 0.8496 0.8465
H137_2 H 0.0493 0.8376 0.8005
H138_2 H 0.1023 0.8075 0.8119
H139_2 H 0.2077 0.9764 0.7280
C93_2 C 0.1496(3) 0.9950(3) 0.6788(3)
H145_2 H 0.0020 0.6439 0.7772
C126_2 C 0.0368(3) 0.8629(3) 0.6270(3)
Ca4_2 Ca 0.03978(6) 0.98095(5) 0.64496(7)
N10_2 N 0.0741(3) 0.2422(3) 0.7092(3)
N11_2 N 0.08214(18) 0.0778(2) 0.8958(2)
N24_2 N 0.1147(4) 0.8718(3) 0.7850(4)
O4_2 O 0.0827(2) 0.3002(2) 0.7628(3)
O6_2 O 0.09061(17) 0.13695(18) 0.9491(2)
O8_2 O 0.0774(2) 0.01833(19) 0.8433(2)
O9_2 O 0.0639(3) 0.1804(2) 0.6554(3)
O12_2 O 0.0130(3) 0.9435(2) 0.7108(3)
O13_2 O 0.17541(17) 0.06154(17) 0.95187(16)
O14_2 O 0.0297(2) 0.3499(2) 0.6548(3)
O24_2 O 0.1451(3) 0.8861(2) 0.7082(3)
O26_2 O 0.1249(8) 0.8881(9) 0.5463(5)
C177_2 C 0.0834(14) 0.8655(13) 0.5263(9)
H169_2 H 0.0700 0.8428 0.5464
N27 N 0.0561(11) 0.8684(11) 0.4828(9)
C178 C 0.0293(17) 0.8253(15) 0.4614(11)
H170 H 0.0112 0.8330 0.4299
H171 H 0.0556 0.8008 0.4582
H172 H 0.0034 0.8141 0.4820
C179 C 0.0836(14) 0.8948(11) 0.4495(12)
H173 H 0.0622 0.8959 0.4186
H174 H 0.0899 0.9269 0.4615
H175 H 0.1175 0.8797 0.4460
O29_2 O 0.1437(2) 0.9663(2) 0.6452(3)
O39_2 O 0.0042(4) 0.5576(2) 0.7489(3)
O44_2 O 0.04312(19) 0.90486(17) 0.61708(19)
O45_2 O 0.07267(18) 0.83353(17) 0.6308(2)
C7_2 C 0.6341(3) 0.2599(5) 0.0087(4)
H10_2 H 0.6489 0.2748 0.0385
H11_2 H 0.6057 0.2385 0.0151
C8_2 C 0.7330(3) 0.2463(3) 0.0020(3)
H12_2 H 0.6733 0.2017 0.0031
N5 N 0.7531(3) 0.5749(2) 0.4540(3)
C14 C 0.7461(3) 0.5653(3) 0.4987(3)
H20_2 H 0.7437 0.5904 0.5205
C15 C 0.7565(5) 0.5365(3) 0.4204(3)
H21 H 0.7617 0.5493 0.3891
H22 H 0.7864 0.5162 0.4315
H23 H 0.7238 0.5181 0.4180
C17 C 0.7644(5) 0.6224(3) 0.4386(4)
H25 H 0.7682 0.6222 0.4045
H26 H 0.7354 0.6433 0.4446
H27 H 0.7973 0.6335 0.4563
O1_2 O 0.9491(4) 0.3732(4) 0.0854(4)
C19_2 C 0.9427(8) 0.4004(6) 0.1223(5)
H31_2 H 0.9557 0.3906 0.1535
N7_2 N 0.9183(8) 0.4414(5) 0.1157(5)
C20_2 C 0.8901(11) 0.4537(7) 0.0695(7)
H32_2 H 0.8746 0.4851 0.0714
H33_2 H 0.9147 0.4536 0.0452
H34_2 H 0.8620 0.4308 0.0610
C21_2 C 0.9067(9) 0.4686(6) 0.1571(7)
H35_2 H 0.8887 0.4977 0.1465
H36_2 H 0.8840 0.4501 0.1759
H37_2 H 0.9398 0.4761 0.1768
C27_2 C 0.8596(3) 0.0036(3) 0.8724(4)
H53_2 H 0.8908 0.0239 0.8751
C28_2 C 0.7319(3) 0.3512(3) 0.6779(4)
H54_2 H 0.7384 0.3560 0.6447
H55_2 H 0.7162 0.3797 0.6898
H56_2 H 0.7076 0.3248 0.6798
C31_2 C 0.9334(3) 0.4331(5) 0.5169(3)
H63_2 H 0.9660 0.4156 0.5136
H64_2 H 0.9328 0.4425 0.5502
H65_2 H 0.9321 0.4611 0.4967
C32_2 C 0.7838(6) 0.3196(10) 0.1325(6)
H66_2 H 0.7613 0.2944 0.1178
H67_2 H 0.7976 0.3383 0.1075
H68_2 H 0.7630 0.3398 0.1514
C40_2 C 0.6857(5) 0.3332(4) 0.5256(4)
H80_2 H 0.6640 0.3420 0.4975
C42_2 C 0.6427(10) 0.2576(6) 0.5157(9)
H81_2 H 0.6483 0.2264 0.5298
H82_2 H 0.6078 0.2693 0.5215
H83_2 H 0.6448 0.2558 0.4813
C44_2 C 0.6938(10) 0.2732(7) 0.5847(7)
H84_2 H 0.6608 0.2630 0.5963
H85_2 H 0.7095 0.2986 0.6049
H86_2 H 0.7184 0.2467 0.5855
C63_2 C 0.8246(7) 0.4797(4) 0.7482(4)
H105_2 H 0.8402 0.5097 0.7452
C64_2 C 0.7592(9) 0.4452(6) 0.7849(8)
H106_2 H 0.7495 0.4344 0.7522
H107_2 H 0.7294 0.4620 0.7961
H108_2 H 0.7682 0.4180 0.8055
C66_2 C 0.8012(7) 0.5074(5) 0.8245(4)
H109_2 H 0.7821 0.4918 0.8485
H110_2 H 0.8367 0.5159 0.8388
H111_2 H 0.7821 0.5358 0.8132
C77_2 C 0.8748(3) 0.1516(5) 0.0213(4)
H123_2 H 0.9114 0.0428 0.0101
C81_2 C 0.8836(9) 0.0880(6) 0.0750(5)
H127_2 H 0.8938 0.0548 0.0754
H128_2 H 0.9075 0.1053 0.0984
H129_2 H 0.8473 0.0909 0.0830
C141_2 C 0.7964(2) 0.0743(2) 0.8045(3)
C142_2 C 0.7909(2) 0.1235(2) 0.7782(3)
C143_2 C 0.7828(3) 0.1239(3) 0.7287(3)
H157_2 H 0.7782 0.0953 0.7113
C144_2 C 0.7817(3) 0.1659(3) 0.7057(3)
H158_2 H 0.7796 0.1666 0.6719
C145_2 C 0.7835(2) 0.2075(2) 0.7311(3)
C146_2 C 0.7826(3) 0.2556(3) 0.7055(3)
C147_2 C 0.7882(3) 0.2949(3) 0.7816(4)
C148_2 C 0.7925(2) 0.2485(2) 0.8072(3)
C149_2 C 0.8001(3) 0.2472(2) 0.8560(3)
H159_2 H 0.8023 0.2754 0.8740
C150_2 C 0.8045(3) 0.2042(2) 0.8783(2)
H160_2 H 0.8095 0.2032 0.9121
C151_2 C 0.8019(2) 0.1631(2) 0.8533(2)
C152_2 C 0.8087(2) 0.1175(2) 0.8798(3)
C153_2 C 0.7906(2) 0.2079(2) 0.7805(2)
C154_2 C 0.79403(19) 0.1632(2) 0.8047(2)
C155_2 C 0.8115(2) 0.0322(2) 0.8810(3)
H161_2 H 0.8171 0.0418 0.9153
C156_2 C 0.7589(2) 0.0052(2) 0.8751(2)
C157_2 C 0.7834(3) 0.3407(3) 0.7078(3)
H162_2 H 0.7863 0.3652 0.7333
C158_2 C 0.8336(3) 0.3453(2) 0.6845(3)
C159_2 C 0.8733(3) 0.4264(4) 0.4162(4)
C160_2 C 0.8662(3) 0.4103(4) 0.3635(3)
C161_2 C 0.8563(3) 0.4410(4) 0.3285(4)
H163_2 H 0.8536 0.4734 0.3357
C162_2 C 0.8497(3) 0.4261(4) 0.2804(4)
H164_2 H 0.8442 0.4483 0.2553
C163_2 C 0.8512(3) 0.3802(4) 0.2710(3)
C164_2 C 0.8418(4) 0.3615(6) 0.2198(4)
C165_2 C 0.8537(4) 0.2801(5) 0.2490(4)
C166_2 C 0.8619(3) 0.2987(3) 0.2983(3)
C167_2 C 0.8721(4) 0.2668(4) 0.3349(4)
H165_2 H 0.8735 0.2343 0.3272
C168_2 C 0.8805(4) 0.2800(4) 0.3826(4)
H166_2 H 0.8876 0.2576 0.4073
C169_2 C 0.8782(3) 0.3274(4) 0.3918(3)
C170_2 C 0.8881(4) 0.3416(5) 0.4421(4)
C171_2 C 0.8603(2) 0.3470(3) 0.3069(2)
C172_2 C 0.8688(2) 0.3630(3) 0.3549(3)
C173_2 C 0.8875(3) 0.4030(4) 0.5023(3)
H167_2 H 0.8922 0.3741 0.5223
C174_2 C 0.8324(3) 0.4240(3) 0.5108(3)
C175_2 C 0.8285(4) 0.2986(6) 0.1638(3)
H168_2 H 0.8171 0.2653 0.1671
C176_2 C 0.8801(3) 0.2939(5) 0.1427(3)
Ca6_2 Ca 0.97036(5) 0.29584(8) 0.09392(5)
Ca7_2 Ca 0.83746(5) 0.26343(9) 0.02601(6)
N12_2 N 0.6831(5) 0.2896(3) 0.5372(3)
N17_2 N 0.8048(7) 0.4767(4) 0.7862(4)
N20_2 N 0.8870(3) 0.1071(4) 0.0285(2)
N21_2 N 0.80673(18) 0.07674(17) 0.8533(2)
N23_2 N 0.7836(2) 0.2945(2) 0.7341(3)
N25_2 N 0.8859(3) 0.3868(4) 0.4509(3)
N26_2 N 0.8398(3) 0.3142(5) 0.2133(3)
O5_2 O 0.7425(2) 0.52172(18) 0.51321(17)
O7_2 O 0.7127(3) 0.36596(19) 0.54620(19)
O15_2 O 0.8299(4) 0.4558(2) 0.7139(2)
O17_2 O 0.9970(3) 0.2142(4) 0.1006(4)
O20_2 O 0.8574(3) 0.1839(3) 0.0418(2)
O22_2 O 0.8254(5) 0.3335(7) 0.0074(5)
O36_2 O 0.93576(18) 0.2829(3) 0.0160(2)
O51_2 O 0.7453(2) 0.2605(3) 0.0430(2)
O54_2 O 0.7930(2) 0.03832(17) 0.7834(2)
O55_2 O 0.7821(2) 0.2574(2) 0.6629(2)
O56_2 O 0.7877(2) 0.33226(19) 0.8065(2)
O57_2 O 0.8154(2) 0.11665(18) 0.9231(2)
O60_2 O 0.8717(2) 0.3231(2) 0.6999(2)
O61_2 O 0.83521(17) 0.37621(15) 0.65149(18)
O62_2 O 0.8690(3) 0.4660(3) 0.4242(3)
O63_2 O 0.8347(4) 0.3870(5) 0.1868(3)
O64_2 O 0.8578(5) 0.2407(4) 0.2392(4)
O65_2 O 0.8996(4) 0.3160(4) 0.4751(3)
O66_2 O 0.79376(18) 0.4155(2) 0.48215(18)
O67_2 O 0.83003(15) 0.44104(14) 0.55162(15)
O68_2 O 0.9229(2) 0.3034(3) 0.16432(19)
O69_2 O 0.87516(18) 0.2808(3) 0.1000(2)
Ca12_2 Ca 0.93829(5) 0.36293(5) 0.66473(6)
O70_2 O 0.63418(17) 0.45870(19) 0.51434(19)
O71_2 O 0.67541(17) 0.43846(17) 0.45187(16)
O74_2 O 0.93128(15) 0.44057(13) 0.64219(15)
O75_2 O 0.90163(16) 0.51279(14) 0.64405(18)
C1_2 C 0.8519(4) 0.0258(5) 0.6695(6)
H1_2 H 0.8481 0.0186 0.7029
H3_2 H 0.8205 0.0424 0.6552
C2_2 C 0.9510(3) 0.0299(3) 0.6557(4)
C3_2 C 0.8985(3) 0.0555(3) 0.6670(4)
H4_2 H 0.8889 0.0762 0.6388
N1_2 N 0.9103(2) 0.0888(3) 0.7075(3)
C5_2 C 0.9257(3) 0.2701(3) 0.9738(2)
C6_2 C 0.9677(2) 0.2780(3) 0.9401(2)
H8_2 H 0.9611 0.3101 0.9264
N2_2 N 0.95992(19) 0.2451(2) 0.8995(2)
H9_2 H 0.6201 0.2842 0.9862
C9_2 C 0.6758(3) 0.2334(4) 0.9882(3)
N3_2 N 0.6659(2) 0.2231(3) 0.9390(2)
C10_2 C 0.6707(4) 0.1569(5) 0.6154(4)
H13_2 H 0.6732 0.1889 0.6030
H14_2 H 0.6668 0.1346 0.5889
H15_2 H 0.7028 0.1496 0.6364
C11_2 C 0.5718(3) 0.1773(4) 0.6241(3)
C12_2 C 0.6212(3) 0.1533(4) 0.6443(3)
H16_2 H 0.6122 0.1191 0.6442
N4_2 N 0.6363(2) 0.1650(3) 0.6942(2)
C13_2 C 0.8499(11) 0.3753(12) 0.9161(10)
H17_2 H 0.8487 0.3950 0.8876
H18_2 H 0.8748 0.3889 0.9413
H19_2 H 0.8615 0.3436 0.9086
C26_2 C 0.7458(11) 0.3954(10) 0.9066(13)
H48_2 H 0.7572 0.4127 0.8795
H49_2 H 0.7202 0.3713 0.8950
H50_2 H 0.7295 0.4173 0.9274
H121_2 H 0.8819 0.1610 0.9904
C79_2 C 0.9054(5) 0.0734(4) 0.9946(4)
H124_2 H 0.8786 0.0702 0.9671
H125_2 H 0.9384 0.0847 0.9839
C83_2 C 0.7875(11) 0.3465(11) 0.9733(11)
H130_2 H 0.7529 0.3361 0.9772
C94_2 C 0.9600(2) 0.1970(3) 0.9095(3)
C95_2 C 0.9508(2) 0.1636(3) 0.8674(2)
C96_2 C 0.9535(3) 0.1174(3) 0.8732(3)
H140_2 H 0.9601 0.1051 0.9045
C97_2 C 0.9470(3) 0.0864(3) 0.8355(4)
H141_2 H 0.9507 0.0535 0.8408
C98_2 C 0.9356(2) 0.1030(2) 0.7917(3)
C99_2 C 0.9259(3) 0.0713(3) 0.7499(4)
C100_2 C 0.9078(3) 0.1382(3) 0.6952(4)
C101_2 C 0.9204(2) 0.1707(3) 0.7377(2)
C102_2 C 0.9179(3) 0.2176(3) 0.7302(2)
H142_2 H 0.9092 0.2297 0.6990
C103_2 C 0.9285(3) 0.2483(2) 0.7692(3)
H143_2 H 0.9293 0.2812 0.7638
C104_2 C 0.9375(2) 0.2317(2) 0.8145(2)
C105_2 C 0.9480(3) 0.2638(3) 0.8550(3)
C106_2 C 0.9325(2) 0.1524(2) 0.7836(2)
C107_2 C 0.94103(18) 0.1836(2) 0.8229(2)
C127_2 C 0.6671(2) 0.2606(3) 0.9053(3)
C128_2 C 0.6598(2) 0.2482(3) 0.8540(3)
C129_2 C 0.6581(3) 0.2850(3) 0.8204(3)
H153_2 H 0.6612 0.3169 0.8301
C130_2 C 0.6519(3) 0.2729(3) 0.7731(3)
H154_2 H 0.6491 0.2972 0.7498
C131_2 C 0.6494(2) 0.2255(3) 0.7577(3)
C132_2 C 0.6408(3) 0.2149(3) 0.7058(3)
C133_2 C 0.6378(3) 0.1281(3) 0.7271(3)
C134_2 C 0.6456(2) 0.1428(3) 0.7784(3)
C135_2 C 0.6482(3) 0.1069(3) 0.8123(3)
H155_2 H 0.6463 0.0749 0.8030
C136_2 C 0.6537(3) 0.1195(3) 0.8589(3)
H156_2 H 0.6542 0.0953 0.8822
C137_2 C 0.6585(2) 0.1658(3) 0.8746(3)
C138_2 C 0.6655(3) 0.1773(3) 0.9256(3)
C139_2 C 0.6502(2) 0.1911(2) 0.7918(3)
C140_2 C 0.6562(2) 0.2031(2) 0.8403(3)
N22_2 N 0.7923(12) 0.3728(11) 0.9337(10)
O30_2 O 0.96735(18) 0.1829(2) 0.94967(18)
O31_2 O 0.9312(3) 0.0283(2) 0.7565(3)
O32_2 O 0.8953(3) 0.1516(3) 0.6557(2)
O33_2 O 0.9460(3) 0.3068(2) 0.8492(2)
O34_2 O 0.9949(2) 0.04680(18) 0.6717(2)
O37_2 O 0.88094(18) 0.2550(2) 0.95686(17)
O46_2 O 0.6720(2) 0.3007(2) 0.9192(2)
O47_2 O 0.6409(2) 0.2431(2) 0.6755(2)
O48_2 O 0.6329(4) 0.0880(3) 0.7151(2)
O49_2 O 0.6715(3) 0.1465(2) 0.9552(2)
O50_2 O 0.76467(18) 0.2421(2) 0.97131(19)
O52_2 O 0.54053(19) 0.1880(3) 0.65318(18)
O53_2 O 0.5617(2) 0.1836(3) 0.5807(2)
Ca14_2 Ca 0.47036(5) 0.20416(8) 0.59392(5)
H51_2 H 0.8544 0.9899 0.8404
H52_2 H 0.8647 0.9784 0.8960
H2_2 H 0.8562 0.9965 0.6521
C16_2 C 0.9915(5) 0.3841(5) 0.7744(5)
C22_2 C 0.9562(10) 0.4213(10) 0.8395(10)
H38_2 H 0.9687 0.4331 0.8713
H39_2 H 0.9403 0.4471 0.8199
H40_2 H 0.9297 0.3967 0.8421
O2_2 O 0.9169(4) 0.3240(3) 0.5935(3)
C23_2 C 0.9018(7) 0.2794(5) 0.5894(9)
H41_2 H 0.9266 0.2551 0.5979
N8_2 N 0.8521(6) 0.2686(5) 0.5733(9)
C24_2 C 0.8329(9) 0.2203(6) 0.5753(15)
H42_2 H 0.7958 0.2191 0.5621
H43_2 H 0.8538 0.1999 0.5567
H44_2 H 0.8363 0.2096 0.6085
C25_2 C 0.8126(8) 0.3067(7) 0.5750(11)
H45_2 H 0.7777 0.2950 0.5625
H46_2 H 0.8119 0.3170 0.6080
H47_2 H 0.8223 0.3332 0.5556
C54_2 C 0.9297(4) 0.9092(4) 0.7551(4)
H90_2 H 0.9068 0.8997 0.7791
H91_2 H 0.9107 0.9312 0.7326
H92_2 H 0.9399 0.8814 0.7378
C56_2 C 0.9804(4) 0.9416(4) 0.8293(4)
H94_2 H 0.9499 0.9272 0.8419
H96_2 H 0.9800 0.9756 0.8348
C108_2 C 0.9845(3) 0.7769(3) 0.6947(4)
C109_2 C 0.9871(2) 0.7277(3) 0.6976(3)
C110_2 C 0.9941(3) 0.7051(3) 0.7429(3)
H144_2 H 0.9964 0.7237 0.7710
C111_2 C 0.9976(3) 0.6581(3) 0.7466(3)
C112_2 C 0.9950(3) 0.6299(3) 0.7060(3)
C113_2 C 0.9982(3) 0.5774(3) 0.7091(4)
C114_2 C 0.9900(3) 0.5701(2) 0.6229(3)
C115_2 C 0.9877(2) 0.6225(2) 0.6184(3)
C116_2 C 0.9822(3) 0.6420(3) 0.5757(3)
H146_2 H 0.9809 0.6225 0.5482
C117_2 C 0.9782(3) 0.6918(3) 0.5702(3)
H147_2 H 0.9739 0.7059 0.5395
C118_2 C 0.9811(2) 0.7198(2) 0.6123(3)
C119_2 C 0.9799(3) 0.7723(3) 0.6071(3)
C120_2 C 0.9891(2) 0.6503(2) 0.6600(2)
C121_2 C 0.9852(2) 0.6996(2) 0.6556(3)
C122_2 C 0.9918(3) 0.4992(2) 0.6714(4)
H148_2 H 0.9885 0.4954 0.7061
C123_2 C 0.9373(2) 0.4840(2) 0.6513(2)
C124_2 C 0.9833(3) 0.8495(3) 0.6463(3)
H149_2 H 0.9865 0.8608 0.6800
C125_2 C 0.9349(3) 0.8739(3) 0.6216(4)
H150_2 H 0.9266 0.8608 0.5896
H151_2 H 0.9420 0.9076 0.6192
H152_2 H 0.9049 0.8691 0.6400
N15_2 N 0.9780(3) 0.9325(3) 0.7790(3)
N16_2 N 0.9803(2) 0.7977(2) 0.6491(3)
N18_2 N 0.9944(2) 0.5526(2) 0.6684(3)
O10_2 O 0.9608(5) 0.3944(3) 0.7365(4)
O16_2 O 0.9872(2) 0.29545(19) 0.6910(2)
O35_2 O 0.9437(2) 0.9943(2) 0.6295(3)
O38_2 O 0.9839(2) 0.8034(2) 0.7290(3)
O40_2 O 0.9882(3) 0.54490(19) 0.5885(3)
O41_2 O 0.9786(2) 0.7913(2) 0.5687(3)
C16_3 C 0.4915(5) 0.1159(5) 0.2744(5)
H24_3 H 0.5107 0.1438 0.2699
N6_3 N 0.5037(6) 0.0996(4) 0.3158(6)
C18_3 C 0.5460(9) 0.1166(6) 0.3507(6)
H28_3 H 0.5469 0.0977 0.3798
H29_3 H 0.5396 0.1495 0.3581
H30_3 H 0.5799 0.1138 0.3376
C22_3 C 0.4562(10) 0.0787(10) 0.3395(10)
H38_3 H 0.4687 0.0669 0.3713
H39_3 H 0.4403 0.0529 0.3199
H40_3 H 0.4297 0.1033 0.3421
O2_3 O 0.4169(4) 0.1760(3) 0.0935(3)
C23_3 C 0.4018(7) 0.2206(5) 0.0894(9)
H41_3 H 0.4266 0.2449 0.0979
N8_3 N 0.3521(6) 0.2314(5) 0.0733(9)
C24_3 C 0.3329(9) 0.2797(6) 0.0753(15)
H42_3 H 0.2958 0.2809 0.0621
H43_3 H 0.3538 0.3001 0.0567
H44_3 H 0.3363 0.2904 0.1085
C25_3 C 0.3126(8) 0.1933(7) 0.0750(11)
H45_3 H 0.2777 0.2050 0.0625
H46_3 H 0.3119 0.1830 0.1080
H47_3 H 0.3223 0.1668 0.0556
C33_3 C 0.5339(3) 0.4562(4) 0.4587(3)
H69_3 H 0.5170 0.4254 0.4536
H70_3 H 0.5408 0.4623 0.4929
H71_3 H 0.5105 0.4805 0.4438
C34_3 C 0.6251(4) 0.2048(4) 0.1610(4)
H72_3 H 0.6212 0.1852 0.1323
H73_3 H 0.6497 0.2306 0.1568
H74_3 H 0.6387 0.1857 0.1885
C35_3 C 0.5376(4) 0.0236(4) 0.1688(8)
H75_3 H 0.5344 0.0560 0.1797
H76_3 H 0.5658 0.0076 0.1889
H77_3 H 0.5459 0.0236 0.1357
C36_3 C 0.5774(3) 0.2416(3) 0.2536(4)
C37_3 C 0.5787(2) 0.2761(2) 0.2940(3)
C38_3 C 0.5848(2) 0.2607(3) 0.3413(3)
H78_3 H 0.5865 0.2280 0.3480
C39_3 C 0.5883(2) 0.2924(2) 0.3783(3)
H79_3 H 0.5932 0.2818 0.4103
C41_3 C 0.5846(2) 0.3399(2) 0.3682(3)
C43_3 C 0.5874(2) 0.3749(3) 0.4089(3)
C45_3 C 0.5791(2) 0.4391(3) 0.3502(3)
C46_3 C 0.5756(2) 0.4056(2) 0.3115(3)
C47_3 C 0.5691(2) 0.4210(2) 0.2645(3)
H87_3 H 0.5658 0.4535 0.2575
C48_3 C 0.5675(3) 0.3872(3) 0.2269(3)
H88_3 H 0.5645 0.3975 0.1947
C49_3 C 0.5702(2) 0.3402(2) 0.2368(3)
C50_3 C 0.5688(3) 0.3082(3) 0.1958(4)
C51_3 C 0.5797(2) 0.3575(2) 0.3218(2)
C53_3 C 0.57647(19) 0.3246(2) 0.2831(3)
C55_3 C 0.5847(3) 0.4566(3) 0.4371(3)
H93_3 H 0.5871 0.4885 0.4226
C60_3 C 0.6354(3) 0.4504(3) 0.4699(3)
C61_3 C 0.5719(3) 0.2249(3) 0.1693(4)
H104_3 H 0.5621 0.2450 0.1407
C62_3 C 0.5260(3) 0.1912(3) 0.1694(4)
C122_3 C 0.4918(3) 0.0008(2) 0.1714(4)
H148_3 H 0.4885 0.0046 0.2061
C123_3 C 0.4373(2) 0.0160(2) 0.1513(2)
Ca3 Ca 0.43829(5) 0.13707(5) 0.16473(6)
N10_3 N 0.5741(3) 0.2578(3) 0.2092(3)
N11_3 N 0.58214(18) 0.4222(2) 0.3958(2)
O4_3 O 0.5827(2) 0.1998(2) 0.2628(3)
O6_3 O 0.59061(17) 0.36305(18) 0.4491(2)
O8_3 O 0.5774(2) 0.48167(19) 0.3433(2)
O9_3 O 0.5639(3) 0.3196(2) 0.1554(3)
O10_3 O 0.4608(5) 0.1056(3) 0.2365(4)
O14_3 O 0.5297(2) 0.1501(2) 0.1548(3)
O16_3 O 0.4872(2) 0.20455(19) 0.1910(2)
O42 O 0.43128(15) 0.05943(13) 0.14219(15)
Ca8 Ca 0.33389(4) 0.04539(4) 0.13206(4)
O80 O 0.3717(2) 0.1769(2) 0.1999(2)
O81 O 0.33521(17) 0.12379(15) 0.15149(18)
C27_3 C 0.3596(3) 0.4964(3) 0.3724(4)
H51_3 H 0.3544 0.5101 0.3404
H52_3 H 0.3647 0.5216 0.3960
H53_3 H 0.3908 0.4761 0.3751
C28_3 C 0.2319(3) 0.1488(3) 0.1779(4)
H54_3 H 0.2384 0.1440 0.1447
H55_3 H 0.2162 0.1203 0.1898
H56_3 H 0.2076 0.1752 0.1798
C31_3 C 0.4334(3) 0.0669(5) 0.0169(3)
H63_3 H 0.4660 0.0844 0.0136
H64_3 H 0.4328 0.0575 0.0502
C40_3 C 0.1857(5) 0.1668(4) 0.0256(4)
C42_3 C 0.1427(10) 0.2424(6) 0.0157(9)
H81_3 H 0.1483 0.2736 0.0298
H82_3 H 0.1078 0.2307 0.0215
C44_3 C 0.1938(10) 0.2268(7) 0.0847(7)
H84_3 H 0.1608 0.2370 0.0963
H85_3 H 0.2095 0.2014 0.1049
H86_3 H 0.2184 0.2533 0.0855
C63_3 C 0.3246(7) 0.0203(4) 0.2482(4)
C64_3 C 0.2592(9) 0.0548(6) 0.2849(8)
H106_3 H 0.2495 0.0656 0.2522
H107_3 H 0.2294 0.0380 0.2961
H108_3 H 0.2682 0.0820 0.3055
H109_3 H 0.2821 0.0082 0.3485
C141_3 C 0.2964(2) 0.4257(2) 0.3045(3)
C142_3 C 0.2909(2) 0.3765(2) 0.2782(3)
C143_3 C 0.2828(3) 0.3761(3) 0.2287(3)
H157_3 H 0.2782 0.4047 0.2113
C144_3 C 0.2817(3) 0.3341(3) 0.2057(3)
H158_3 H 0.2796 0.3334 0.1719
C145_3 C 0.2835(2) 0.2925(2) 0.2311(3)
C146_3 C 0.2826(3) 0.2444(3) 0.2055(3)
C147_3 C 0.2882(3) 0.2051(3) 0.2816(4)
C148_3 C 0.2925(2) 0.2515(2) 0.3072(3)
C149_3 C 0.3001(3) 0.2528(2) 0.3560(3)
H159_3 H 0.3023 0.2246 0.3740
C150_3 C 0.3045(3) 0.2958(2) 0.3783(2)
H160_3 H 0.3095 0.2968 0.4121
C151_3 C 0.3019(2) 0.3369(2) 0.3533(2)
C152_3 C 0.3087(2) 0.3825(2) 0.3798(3)
C153_3 C 0.2906(2) 0.2921(2) 0.2805(2)
C154_3 C 0.29403(19) 0.3368(2) 0.3047(2)
C155_3 C 0.3115(2) 0.4678(2) 0.3810(3)
H161_3 H 0.3171 0.4582 0.4153
C156_3 C 0.2589(2) 0.4948(2) 0.3751(2)
C157_3 C 0.2834(3) 0.1593(3) 0.2078(3)
H162_3 H 0.2863 0.1348 0.2333
C158_3 C 0.3336(3) 0.1547(2) 0.1845(3)
C173_3 C 0.3875(3) 0.0970(4) 0.0023(3)
H167_3 H 0.3922 0.1259 0.0223
C174_3 C 0.3324(3) 0.0760(3) 0.0108(3)
N12_3 N 0.1831(5) 0.2104(3) 0.0372(3)
N17_3 N 0.3048(7) 0.0233(4) 0.2862(4)
N21_3 N 0.30673(18) 0.42326(17) 0.3533(2)
N23_3 N 0.2836(2) 0.2055(2) 0.2341(3)
O7_3 O 0.2127(3) 0.13404(19) 0.04620(19)
O15_3 O 0.3299(4) 0.0442(2) 0.2139(2)
O54_3 O 0.2930(2) 0.46168(17) 0.2834(2)
O55_3 O 0.2821(2) 0.2426(2) 0.1629(2)
O56_3 O 0.2877(2) 0.16774(19) 0.3065(2)
O57_3 O 0.3154(2) 0.38335(18) 0.4231(2)
O58_2 O 0.21814(15) 0.47534(13) 0.36020(15)
O59_2 O 0.26157(13) 0.53687(12) 0.39093(13)
O67_3 O 0.33003(15) 0.05896(14) 0.05162(15)
Ca9_2 Ca 0.16611(4) 0.54539(4) 0.36794(4)
O79_2 O 0.23843(13) 0.03687(12) 0.10907(13)
C1_3 C 0.3519(4) 0.4742(5) 0.1695(6)
H1_3 H 0.3481 0.4814 0.2029
H2_3 H 0.3562 0.5035 0.1521
H3_3 H 0.3205 0.4576 0.1552
C2_3 C 0.4510(3) 0.4701(3) 0.1557(4)
C3_3 C 0.3985(3) 0.4445(3) 0.1670(4)
H4_3 H 0.3889 0.4238 0.1388
N1_3 N 0.4103(2) 0.4112(3) 0.2075(3)
C4_3 C 0.5242(2) 0.2220(5) 0.4627(3)
H5_3 H 0.5290 0.2469 0.4867
H6_3 H 0.5324 0.1915 0.4778
H7_3 H 0.5479 0.2276 0.4382
C5_3 C 0.4257(3) 0.2299(3) 0.4738(2)
C6_3 C 0.4677(2) 0.2220(3) 0.4401(2)
H8_3 H 0.4611 0.1899 0.4264
N2_3 N 0.45992(19) 0.2549(2) 0.3995(2)
C7_3 C 0.1341(3) 0.2401(5) 0.5087(4)
H9_3 H 0.1201 0.2158 0.4862
H10_3 H 0.1489 0.2252 0.5385
H11_3 H 0.1057 0.2615 0.5151
C8_3 C 0.2330(3) 0.2537(3) 0.5020(3)
C9_3 C 0.1758(3) 0.2666(4) 0.4882(3)
H12_3 H 0.1733 0.2983 0.5031
N3_3 N 0.1659(2) 0.2769(3) 0.4390(2)
C10_3 C 0.1707(4) 0.3431(5) 0.1154(4)
H13_3 H 0.1732 0.3111 0.1030
H14_3 H 0.1668 0.3654 0.0889
H15_3 H 0.2028 0.3504 0.1364
C11_3 C 0.0718(3) 0.3227(4) 0.1241(3)
C12_3 C 0.1212(3) 0.3467(4) 0.1443(3)
H16_3 H 0.1122 0.3809 0.1442
N4_3 N 0.1363(2) 0.3350(3) 0.1942(2)
C13_3 C 0.3499(11) 0.1247(12) 0.4161(10)
H17_3 H 0.3487 0.1050 0.3876
H18_3 H 0.3748 0.1111 0.4413
H19_3 H 0.3615 0.1564 0.4086
O1_3 O 0.4491(4) 0.1268(4) 0.5854(4)
C19_3 C 0.4427(8) 0.0996(6) 0.6223(5)
H31_3 H 0.4557 0.1094 0.6535
N7_3 N 0.4183(8) 0.0586(5) 0.6157(5)
C20_3 C 0.3901(11) 0.0463(7) 0.5695(7)
H32_3 H 0.3746 0.0149 0.5714
H33_3 H 0.4147 0.0464 0.5452
H34_3 H 0.3620 0.0692 0.5610
C21_3 C 0.4067(9) 0.0314(6) 0.6571(7)
H35_3 H 0.3887 0.0023 0.6465
H36_3 H 0.3840 0.0499 0.6759
H37_3 H 0.4398 0.0239 0.6768
C26_3 C 0.2458(11) 0.1046(10) 0.4066(13)
H48_3 H 0.2572 0.0873 0.3795
H49_3 H 0.2202 0.1287 0.3950
H50_3 H 0.2295 0.0827 0.4274
C29_3 C 0.7504(4) 0.5016(4) 0.1772(5)
H57_3 H 0.7826 0.4958 0.1987
H58_3 H 0.7518 0.5332 0.1637
H59_3 H 0.7478 0.4783 0.1514
C30_3 C 0.6718(4) 0.1755(4) 0.3964(5)
H60_3 H 0.6738 0.1479 0.4173
H61_3 H 0.6466 0.1981 0.4070
H62_3 H 0.6601 0.1658 0.3637
H65_3 H 0.4321 0.0389 0.9967
C32_3 C 0.2838(6) 0.1804(10) 0.6325(6)
H66_3 H 0.2613 0.2056 0.6178
H67_3 H 0.2976 0.1617 0.6075
H68_3 H 0.2630 0.1602 0.6514
H80_3 H 0.1640 0.1580 0.9975
H83_3 H 0.1448 0.2442 0.9813
C52_3 C 0.5135(4) 0.5522(4) 0.2546(5)
H89_3 H 0.5427 0.5363 0.2712
C54_3 C 0.4297(4) 0.5908(4) 0.2551(4)
H90_3 H 0.4068 0.6003 0.2791
H91_3 H 0.4107 0.5688 0.2326
H92_3 H 0.4399 0.6186 0.2378
C56_3 C 0.4804(4) 0.5584(4) 0.3293(4)
H94_3 H 0.4499 0.5728 0.3419
H95_3 H 0.5130 0.5718 0.3455
H96_3 H 0.4800 0.5244 0.3348
O3_3 O 0.5504(4) 0.4807(4) 0.0761(4)
C57_3 C 0.5903(9) 0.4515(9) 0.0875(8)
H97_3 H 0.6130 0.4572 0.1159
N9_3 N 0.6002(12) 0.4144(10) 0.0608(10)
C58_3 C 0.6466(13) 0.3831(11) 0.0611(11)
H98_3 H 0.6398 0.3593 0.0361
H99_3 H 0.6531 0.3676 0.0921
H100_3 H 0.6776 0.4017 0.0553
C59_3 C 0.5697(16) 0.4238(12) 0.0140(11)
H102_3 H 0.5820 0.4532 0.0009
H103_3 H 0.5322 0.4265 0.0180
C65_3 C 0.7285(3) 0.2860(3) 0.3917(4)
C67_3 C 0.7269(2) 0.3299(3) 0.3636(3)
C68_3 C 0.5402(7) 0.3042(6) 0.6108(8)
H112_3 H 0.5624 0.2881 0.6347
C69_3 C 0.7315(3) 0.3728(3) 0.3859(3)
H113_3 H 0.7378 0.3748 0.4196
C70_3 C 0.5405(7) 0.3688(7) 0.5565(5)
H114_3 H 0.5661 0.3942 0.5541
H115_3 H 0.5063 0.3823 0.5619
H116_3 H 0.5368 0.3507 0.5269
C71_3 C 0.7270(3) 0.4143(3) 0.3579(4)
H117_3 H 0.7293 0.4439 0.3734
C72_3 C 0.6161(5) 0.3558(6) 0.6188(8)
H118_3 H 0.6415 0.3520 0.5954
H119_3 H 0.6141 0.3889 0.6277
H120_3 H 0.6276 0.3371 0.6472
C73_3 C 0.7196(2) 0.4130(2) 0.3114(4)
C74_3 C 0.7161(3) 0.4581(3) 0.2826(4)
C75_3 C 0.6989(3) 0.4122(3) 0.2095(4)
C76_3 C 0.7033(2) 0.3679(2) 0.2368(3)
C77_3 C 0.3748(3) 0.3484(5) 0.5213(4)
H121_3 H 0.3819 0.3390 0.4904
C78_3 C 0.6996(3) 0.3240(3) 0.2152(3)
H122_3 H 0.6941 0.3221 0.1814
C79_3 C 0.4054(5) 0.4266(4) 0.4946(4)
H123_3 H 0.4114 0.4572 0.5101
H124_3 H 0.3786 0.4298 0.4671
H125_3 H 0.4384 0.4153 0.4839
C80_3 C 0.7036(3) 0.2833(3) 0.2415(3)
H126_3 H 0.6995 0.2540 0.2253
C81_3 C 0.3836(9) 0.4120(6) 0.5750(5)
H127_3 H 0.3938 0.4452 0.5754
H128_3 H 0.4075 0.3947 0.5984
H129_3 H 0.3473 0.4091 0.5830
C82_3 C 0.7134(2) 0.2834(3) 0.2910(3)
C83_3 C 0.2875(11) 0.1535(11) 0.4733(11)
H130_3 H 0.2529 0.1639 0.4772
C84_3 C 0.7170(3) 0.2404(3) 0.3191(3)
C85_3 C 0.7133(2) 0.3690(2) 0.2878(3)
C86_3 C 0.7175(2) 0.3273(2) 0.3147(3)
C87_3 C 0.6166(5) 0.6352(4) 0.2382(4)
H131_3 H 0.5938 0.6591 0.2245
C88_3 C 0.7256(3) 0.1980(3) 0.3982(4)
H132_3 H 0.7370 0.2070 0.4320
C89_3 C 0.6438(7) 0.5913(5) 0.3097(6)
H133_3 H 0.6375 0.5918 0.3433
H134_3 H 0.6816 0.5956 0.3073
H135_3 H 0.6324 0.5610 0.2957
C90_3 C 0.5866(5) 0.6611(4) 0.3133(5)
H136_3 H 0.5895 0.6504 0.3465
H137_3 H 0.5493 0.6624 0.3005
H138_3 H 0.6023 0.6925 0.3119
C91_3 C 0.7679(3) 0.1666(3) 0.3814(4)
C92_3 C 0.7033(3) 0.4976(3) 0.2042(4)
H139_3 H 0.7077 0.5236 0.2280
C93_3 C 0.6496(3) 0.5050(3) 0.1788(3)
C94_3 C 0.4600(2) 0.3030(3) 0.4095(3)
C95_3 C 0.4508(2) 0.3364(3) 0.3674(2)
C96_3 C 0.4535(3) 0.3826(3) 0.3732(3)
H140_3 H 0.4601 0.3949 0.4045
C97_3 C 0.4470(3) 0.4136(3) 0.3355(4)
H141_3 H 0.4507 0.4465 0.3408
C98_3 C 0.4356(2) 0.3970(2) 0.2917(3)
C99_3 C 0.4259(3) 0.4287(3) 0.2499(4)
C100_3 C 0.4078(3) 0.3618(3) 0.1952(4)
C101_3 C 0.4204(2) 0.3293(3) 0.2377(2)
C102_3 C 0.4179(3) 0.2824(3) 0.2302(2)
H142_3 H 0.4092 0.2703 0.1990
C103_3 C 0.4285(3) 0.2517(2) 0.2692(3)
H143_3 H 0.4293 0.2188 0.2638
C104_3 C 0.4375(2) 0.2683(2) 0.3145(2)
C105_3 C 0.4480(3) 0.2362(3) 0.3550(3)
C106_3 C 0.4325(2) 0.3476(2) 0.2836(2)
C107_3 C 0.44103(18) 0.3164(2) 0.3229(2)
C108_3 C 0.4845(3) 0.7231(3) 0.1947(4)
C109_3 C 0.4871(2) 0.7723(3) 0.1976(3)
C110_3 C 0.4941(3) 0.7949(3) 0.2429(3)
H144_3 H 0.4964 0.7763 0.2710
C111_3 C 0.4976(3) 0.8419(3) 0.2466(3)
H145_3 H 0.5020 0.8561 0.2772
C112_3 C 0.4950(3) 0.8701(3) 0.2060(3)
C113_3 C 0.4982(3) 0.9226(3) 0.2091(4)
C114_3 C 0.4900(3) 0.9299(2) 0.1229(3)
C115_3 C 0.4877(2) 0.8775(2) 0.1184(3)
C116_3 C 0.4822(3) 0.8580(3) 0.0757(3)
H146_3 H 0.4809 0.8775 0.0482
C117_3 C 0.4782(3) 0.8082(3) 0.0702(3)
H147_3 H 0.4739 0.7941 0.0395
C118_3 C 0.4811(2) 0.7802(2) 0.1123(3)
C119_3 C 0.4799(3) 0.7277(3) 0.1071(3)
C120_3 C 0.4891(2) 0.8497(2) 0.1600(2)
C121_3 C 0.4852(2) 0.8004(2) 0.1556(3)
C124_3 C 0.4833(3) 0.6505(3) 0.1463(3)
H149_3 H 0.4865 0.6392 0.1800
C125_3 C 0.4349(3) 0.6261(3) 0.1216(4)
H150_3 H 0.4266 0.6392 0.0896
H151_3 H 0.4420 0.5924 0.1192
H152_3 H 0.4049 0.6309 0.1400
C126_3 C 0.5368(3) 0.6371(3) 0.1270(3)
C127_3 C 0.1671(2) 0.2394(3) 0.4053(3)
C128_3 C 0.1598(2) 0.2518(3) 0.3540(3)
C129_3 C 0.1581(3) 0.2150(3) 0.3204(3)
H153_3 H 0.1612 0.1831 0.3301
C130_3 C 0.1519(3) 0.2271(3) 0.2731(3)
H154_3 H 0.1491 0.2028 0.2498
C131_3 C 0.1494(2) 0.2745(3) 0.2577(3)
C132_3 C 0.1408(3) 0.2851(3) 0.2058(3)
C133_3 C 0.1378(3) 0.3719(3) 0.2271(3)
C134_3 C 0.1456(2) 0.3572(3) 0.2784(3)
C135_3 C 0.1482(3) 0.3931(3) 0.3123(3)
H155_3 H 0.1463 0.4251 0.3030
C136_3 C 0.1537(3) 0.3805(3) 0.3589(3)
H156_3 H 0.1542 0.4047 0.3822
C137_3 C 0.1585(2) 0.3342(3) 0.3746(3)
C138_3 C 0.1655(3) 0.3227(3) 0.4256(3)
C139_3 C 0.1502(2) 0.3089(2) 0.2918(3)
C140_3 C 0.1562(2) 0.2969(2) 0.3403(3)
C159_3 C 0.3733(3) 0.0736(4) 0.9162(4)
C160_3 C 0.3662(3) 0.0897(4) 0.8635(3)
C161_3 C 0.3563(3) 0.0590(4) 0.8285(4)
H163_3 H 0.3536 0.0266 0.8357
C162_3 C 0.3497(3) 0.0739(4) 0.7804(4)
H164_3 H 0.3442 0.0517 0.7553
C163_3 C 0.3512(3) 0.1198(4) 0.7710(3)
C164_3 C 0.3418(4) 0.1385(6) 0.7198(4)
C165_3 C 0.3537(4) 0.2199(5) 0.7490(4)
C166_3 C 0.3619(3) 0.2013(3) 0.7983(3)
C167_3 C 0.3721(4) 0.2332(4) 0.8349(4)
H165_3 H 0.3735 0.2657 0.8272
C168_3 C 0.3805(4) 0.2200(4) 0.8826(4)
H166_3 H 0.3876 0.2424 0.9073
C169_3 C 0.3782(3) 0.1726(4) 0.8918(3)
C170_3 C 0.3881(4) 0.1584(5) 0.9421(4)
C171_3 C 0.3603(2) 0.1530(3) 0.8069(2)
C172_3 C 0.3688(2) 0.1370(3) 0.8549(3)
C175_3 C 0.3285(4) 0.2014(6) 0.6638(3)
H168_3 H 0.3171 0.2347 0.6671
C176_3 C 0.3801(3) 0.2061(5) 0.6427(3)
Ca4_3 Ca 0.53978(6) 0.51905(5) 0.14496(7)
Ca5_2 Ca 0.64413(7) 0.61364(6) 0.12723(8)
Ca7_3 Ca 0.33746(5) 0.23657(9) 0.52601(6)
N13_3 N 0.7229(2) 0.2443(2) 0.3672(3)
N14_3 N 0.7070(2) 0.4532(2) 0.2339(3)
N15_3 N 0.4780(3) 0.5675(3) 0.2790(3)
N16_3 N 0.4803(2) 0.7023(2) 0.1491(3)
N18_3 N 0.4944(2) 0.9474(2) 0.1684(3)
N19_3 N 0.5590(4) 0.3381(4) 0.5961(4)
N20_3 N 0.3870(3) 0.3929(4) 0.5285(2)
N22_3 N 0.2923(12) 0.1272(11) 0.4337(10)
N24_3 N 0.6147(4) 0.6282(3) 0.2850(4)
N25_3 N 0.3859(3) 0.1132(4) 0.9509(3)
N26_3 N 0.3398(3) 0.1858(5) 0.7133(3)
O12_3 O 0.5130(3) 0.5565(2) 0.2108(3)
O17_3 O 0.4970(3) 0.2858(4) 0.6006(4)
O18_3 O 0.7352(3) 0.2870(2) 0.4356(3)
O19_3 O 0.7245(2) 0.49631(19) 0.3016(3)
O20_3 O 0.3574(3) 0.3161(3) 0.5418(2)
O21_3 O 0.6887(3) 0.4129(2) 0.1662(3)
O22_3 O 0.3254(5) 0.1665(7) 0.5074(5)
O23_3 O 0.7112(2) 0.20167(19) 0.3001(3)
O24_3 O 0.6451(3) 0.6139(2) 0.2082(3)
O25_2 O 0.7623(2) 0.1232(2) 0.3833(3)
O26_3 O 0.6249(8) 0.6119(9) 0.0463(5)
C177_3 C 0.5834(14) 0.6345(13) 0.0263(9)
H169_3 H 0.5700 0.6572 0.0464
O27_2 O 0.8096(2) 0.1866(2) 0.3729(3)
O28_3 O 0.61118(19) 0.48505(19) 0.1937(2)
O29_3 O 0.6437(2) 0.5337(2) 0.1452(3)
O30_3 O 0.46735(18) 0.3171(2) 0.44967(18)
O31_3 O 0.4312(3) 0.4717(2) 0.2565(3)
O32_3 O 0.3953(3) 0.3484(3) 0.1557(2)
O33_3 O 0.4460(3) 0.1932(2) 0.3492(2)
O34_3 O 0.4949(2) 0.45320(18) 0.1717(2)
O35_3 O 0.4437(2) 0.5057(2) 0.1295(3)
O36_3 O 0.43576(18) 0.2171(3) 0.5160(2)
O37_3 O 0.38094(18) 0.2450(2) 0.45686(17)
O38_3 O 0.4839(2) 0.6966(2) 0.2290(3)
O39_3 O 0.5042(4) 0.9424(2) 0.2489(3)
O40_3 O 0.4882(3) 0.95510(19) 0.0885(3)
O41_3 O 0.4786(2) 0.7087(2) 0.0687(3)
O43 O 0.40163(16) 0.98721(14) 0.14405(18)
O44_3 O 0.54312(19) 0.59514(17) 0.11708(19)
O45_3 O 0.57267(18) 0.66647(17) 0.1308(2)
O46_3 O 0.1720(2) 0.1993(2) 0.4192(2)
O47_3 O 0.1409(2) 0.2569(2) 0.1755(2)
O48_3 O 0.1329(4) 0.4120(3) 0.2151(2)
O49_3 O 0.1715(3) 0.3535(2) 0.4552(2)
O50_3 O 0.26467(18) 0.2579(2) 0.47131(19)
O51_3 O 0.2453(2) 0.2395(3) 0.5430(2)
O62_3 O 0.3690(3) 0.0340(3) 0.9242(3)
O63_3 O 0.3347(4) 0.1130(5) 0.6868(3)
O64_3 O 0.3578(5) 0.2593(4) 0.7392(4)
O65_3 O 0.3996(4) 0.1840(4) 0.9751(3)
O66_3 O 0.29376(18) 0.0845(2) 0.98215(18)
O68_3 O 0.4229(2) 0.1966(3) 0.66432(19)
O69_3 O 0.37516(18) 0.2192(3) 0.6000(2)
Ca13_2 Ca 0.85587(7) 0.11364(6) 0.37277(8)
O72_2 O 0.7377(2) 0.6232(2) 0.1167(3)
O73_2 O 0.6904(2) 0.6866(2) 0.1271(3)
H20_3 H 0.2437 0.9096 0.0205
H105_3 H 0.3402 0.9903 0.2452
C66_3 C 0.3012(7) 0.9926(5) 0.3245(4)
H110_3 H 0.3367 0.9841 0.3388
H111_3 H 0.2821 0.9642 0.3132
O5_3 O 0.2425(2) 0.97828(18) 0.01321(17)
O78_2 O 0.28186(15) 0.97534(13) 0.13980(15)
H2_4 H 0.1438 0.0035 0.3479
C16_4 C 0.0085(5) 0.6159(5) 0.2256(5)
C22_4 C 0.0438(10) 0.5787(10) 0.1605(10)
H38_4 H 0.0313 0.5669 0.1287
H39_4 H 0.0597 0.5529 0.1801
H40_4 H 0.0703 0.6033 0.1579
O2_4 O 0.0831(4) 0.6760(3) 0.4065(3)
C23_4 C 0.0982(7) 0.7206(5) 0.4106(9)
H41_4 H 0.0734 0.7449 0.4021
N8_4 N 0.1479(6) 0.7314(5) 0.4267(9)
C24_4 C 0.1671(9) 0.7797(6) 0.4247(15)
H42_4 H 0.2042 0.7809 0.4379
H43_4 H 0.1462 0.8001 0.4433
H44_4 H 0.1637 0.7904 0.3915
C25_4 C 0.1874(8) 0.6933(7) 0.4250(11)
H45_4 H 0.2223 0.7050 0.4375
H46_4 H 0.1881 0.6830 0.3920
H47_4 H 0.1777 0.6668 0.4444
C54_4 C 0.0703(4) 0.0908(4) 0.2449(4)
H90_4 H 0.0932 0.1003 0.2209
H91_4 H 0.0893 0.0688 0.2674
H92_4 H 0.0601 0.1186 0.2622
C56_4 C 0.0196(4) 0.0584(4) 0.1707(4)
H94_4 H 0.0501 0.0728 0.1581
H96_4 H 0.0200 0.0244 0.1652
C108_4 C 0.0155(3) 0.2231(3) 0.3053(4)
C109_4 C 0.0129(2) 0.2723(3) 0.3024(3)
C110_4 C 0.0059(3) 0.2949(3) 0.2571(3)
H144_4 H 0.0036 0.2763 0.2290
C111_4 C 0.0024(3) 0.3419(3) 0.2534(3)
C112_4 C 0.0050(3) 0.3701(3) 0.2940(3)
C113_4 C 0.0018(3) 0.4226(3) 0.2909(4)
C114_4 C 0.0100(3) 0.4299(2) 0.3771(3)
C115_4 C 0.0123(2) 0.3775(2) 0.3816(3)
C116_4 C 0.0178(3) 0.3580(3) 0.4243(3)
H146_4 H 0.0191 0.3775 0.4518
C117_4 C 0.0218(3) 0.3082(3) 0.4298(3)
H147_4 H 0.0261 0.2941 0.4605
C118_4 C 0.0189(2) 0.2802(2) 0.3877(3)
C119_4 C 0.0201(3) 0.2277(3) 0.3929(3)
C120_4 C 0.0109(2) 0.3497(2) 0.3400(2)
C121_4 C 0.0148(2) 0.3004(2) 0.3444(3)
C122_4 C 0.0082(3) 0.5008(2) 0.3286(4)
H148_4 H 0.0115 0.5046 0.2939
C123_4 C 0.0627(2) 0.5160(2) 0.3487(2)
C124_4 C 0.0167(3) 0.1505(3) 0.3537(3)
H149_4 H 0.0135 0.1392 0.3200
C125_4 C 0.0651(3) 0.1261(3) 0.3784(4)
H150_4 H 0.0734 0.1392 0.4104
H151_4 H 0.0580 0.0924 0.3808
H152_4 H 0.0951 0.1309 0.3600
Ca3_2 Ca 0.06171(5) 0.63707(5) 0.33527(6)
N15_4 N 0.0220(3) 0.0675(3) 0.2210(3)
N16_4 N 0.0197(2) 0.2023(2) 0.3509(3)
N18_4 N 0.0056(2) 0.4474(2) 0.3316(3)
O10_4 O 0.0392(5) 0.6056(3) 0.2635(4)
O16_4 O 0.0128(2) 0.70455(19) 0.3090(2)
O35_4 O 0.0563(2) 0.0057(2) 0.3705(3)
O38_4 O 0.0161(2) 0.1966(2) 0.2710(3)
O40_4 O 0.0118(3) 0.45510(19) 0.4115(3)
O41_4 O 0.0214(2) 0.2087(2) 0.4313(3)
O42_2 O 0.06872(15) 0.55943(13) 0.35781(15)
O43_2 O 0.09837(16) 0.48721(14) 0.35595(18)
O80_2 O 0.1283(2) 0.6769(2) 0.3001(2)
O81_2 O 0.16479(17) 0.62379(15) 0.34851(18)
H51_4 H 0.1456 0.0101 0.1596
H52_4 H 0.1353 0.0216 0.1040
C1_4 C 0.1481(4) 0.9742(5) 0.3305(6)
H1_4 H 0.1519 0.9814 0.2971
H3_4 H 0.1795 0.9576 0.3448
C2_4 C 0.0490(3) 0.9701(3) 0.3443(4)
C3_4 C 0.1015(3) 0.9445(3) 0.3330(4)
H4_4 H 0.1111 0.9238 0.3612
N1_4 N 0.0897(2) 0.9112(3) 0.2925(3)
C5_4 C 0.0743(3) 0.7299(3) 0.0262(2)
C6_4 C 0.0323(2) 0.7220(3) 0.0599(2)
H8_4 H 0.0389 0.6899 0.0736
N2_4 N 0.04008(19) 0.7549(2) 0.1005(2)
H9_4 H 0.3799 0.7158 0.0138
C9_4 C 0.3242(3) 0.7666(4) 0.0118(3)
N3_4 N 0.3341(2) 0.7769(3) 0.0610(2)
C10_4 C 0.3293(4) 0.8431(5) 0.3846(4)
H13_4 H 0.3268 0.8111 0.3970
H14_4 H 0.3332 0.8654 0.4111
H15_4 H 0.2972 0.8504 0.3636
C11_4 C 0.4282(3) 0.8227(4) 0.3759(3)
C12_4 C 0.3788(3) 0.8467(4) 0.3557(3)
H16_4 H 0.3878 0.8809 0.3558
N4_4 N 0.3637(2) 0.8350(3) 0.3058(2)
C13_4 C 0.1501(11) 0.6247(12) 0.0839(10)
H17_4 H 0.1513 0.6050 0.1124
H18_4 H 0.1252 0.6111 0.0587
H19_4 H 0.1385 0.6564 0.0914
C26_4 C 0.2542(11) 0.6046(10) 0.0934(13)
H48_4 H 0.2428 0.5873 0.1205
H49_4 H 0.2798 0.6287 0.1050
H50_4 H 0.2705 0.5827 0.0726
H121_4 H 0.1181 0.8390 0.0096
C79_4 C 0.0946(5) 0.9266(4) 0.0054(4)
H124_4 H 0.1214 0.9298 0.0329
H125_4 H 0.0616 0.9153 0.0161
C83_4 C 0.2125(11) 0.6535(11) 0.0267(11)
H130_4 H 0.2471 0.6639 0.0228
C94_4 C 0.0400(2) 0.8030(3) 0.0905(3)
C95_4 C 0.0492(2) 0.8364(3) 0.1326(2)
C96_4 C 0.0465(3) 0.8826(3) 0.1268(3)
H140_4 H 0.0399 0.8949 0.0955
C97_4 C 0.0530(3) 0.9136(3) 0.1645(4)
H141_4 H 0.0493 0.9465 0.1592
C98_4 C 0.0644(2) 0.8970(2) 0.2083(3)
C99_4 C 0.0741(3) 0.9287(3) 0.2501(4)
C100_4 C 0.0922(3) 0.8618(3) 0.3048(4)
C101_4 C 0.0796(2) 0.8293(3) 0.2623(2)
C102_4 C 0.0821(3) 0.7824(3) 0.2698(2)
H142_4 H 0.0908 0.7703 0.3010
C103_4 C 0.0715(3) 0.7517(2) 0.2308(3)
H143_4 H 0.0707 0.7188 0.2362
C104_4 C 0.0625(2) 0.7683(2) 0.1855(2)
C105_4 C 0.0520(3) 0.7362(3) 0.1450(3)
C106_4 C 0.0675(2) 0.8476(2) 0.2164(2)
C107_4 C 0.05897(18) 0.8164(2) 0.1771(2)
C127_4 C 0.3329(2) 0.7394(3) 0.0947(3)
C128_4 C 0.3402(2) 0.7518(3) 0.1460(3)
C129_4 C 0.3419(3) 0.7150(3) 0.1796(3)
H153_4 H 0.3388 0.6831 0.1699
C130_4 C 0.3481(3) 0.7271(3) 0.2269(3)
H154_4 H 0.3509 0.7028 0.2502
C131_4 C 0.3506(2) 0.7745(3) 0.2423(3)
C132_4 C 0.3592(3) 0.7851(3) 0.2942(3)
C133_4 C 0.3622(3) 0.8719(3) 0.2729(3)
C134_4 C 0.3544(2) 0.8572(3) 0.2216(3)
C135_4 C 0.3518(3) 0.8931(3) 0.1877(3)
H155_4 H 0.3537 0.9251 0.1970
C136_4 C 0.3463(3) 0.8805(3) 0.1411(3)
H156_4 H 0.3458 0.9047 0.1178
C137_4 C 0.3415(2) 0.8342(3) 0.1254(3)
C138_4 C 0.3345(3) 0.8227(3) 0.0744(3)
C139_4 C 0.3498(2) 0.8089(2) 0.2082(3)
C140_4 C 0.3438(2) 0.7969(2) 0.1597(3)
N22_4 N 0.2077(12) 0.6272(11) 0.0663(10)
O30_4 O 0.03265(18) 0.8171(2) 0.05033(18)
O31_4 O 0.0688(3) 0.9717(2) 0.2435(3)
O32_4 O 0.1047(3) 0.8484(3) 0.3443(2)
O33_4 O 0.0540(3) 0.6932(2) 0.1508(2)
O34_4 O 0.0051(2) 0.95320(18) 0.3283(2)
O37_4 O 0.11906(18) 0.7450(2) 0.04314(17)
O46_4 O 0.3280(2) 0.6993(2) 0.0808(2)
O47_4 O 0.3591(2) 0.7569(2) 0.3245(2)
O48_4 O 0.3671(4) 0.9120(3) 0.2849(2)
O49_4 O 0.3285(3) 0.8535(2) 0.0448(2)
O50_4 O 0.23533(18) 0.7579(2) 0.02869(19)
C7_4 C 0.3659(3) 0.7401(5) 0.9913(4)
H10_4 H 0.3511 0.7252 0.9615
H11_4 H 0.3943 0.7615 0.9849
C8_4 C 0.2670(3) 0.7537(3) 0.9980(3)
H12_4 H 0.3267 0.7983 0.9969
N5_2 N 0.2469(3) 0.4251(2) 0.5460(3)
C14_2 C 0.2539(3) 0.4347(3) 0.5013(3)
H20_4 H 0.2563 0.4096 0.4795
C15_2 C 0.2435(5) 0.4635(3) 0.5796(3)
H21_2 H 0.2383 0.4507 0.6109
H22_2 H 0.2136 0.4838 0.5685
H23_2 H 0.2762 0.4819 0.5820
C17_2 C 0.2356(5) 0.3776(3) 0.5614(4)
H25_2 H 0.2318 0.3778 0.5955
H26_2 H 0.2646 0.3567 0.5554
H27_2 H 0.2027 0.3665 0.5437
O1_4 O 0.0509(4) 0.6268(4) 0.9146(4)
C19_4 C 0.0573(8) 0.5996(6) 0.8777(5)
H31_4 H 0.0443 0.6094 0.8465
N7_4 N 0.0817(8) 0.5586(5) 0.8843(5)
C20_4 C 0.1099(11) 0.5463(7) 0.9305(7)
H32_4 H 0.1254 0.5149 0.9286
H33_4 H 0.0853 0.5464 0.9548
H34_4 H 0.1380 0.5692 0.9390
C21_4 C 0.0933(9) 0.5314(6) 0.8429(7)
H35_4 H 0.1113 0.5023 0.8535
H36_4 H 0.1160 0.5499 0.8241
H37_4 H 0.0602 0.5239 0.8232
C27_4 C 0.1404(3) 0.9964(3) 0.1276(4)
H53_4 H 0.1092 0.9761 0.1249
C28_4 C 0.2681(3) 0.6488(3) 0.3221(4)
H54_4 H 0.2616 0.6440 0.3553
H55_4 H 0.2838 0.6203 0.3102
H56_4 H 0.2924 0.6752 0.3202
C31_4 C 0.0666(3) 0.5669(5) 0.4831(3)
H63_4 H 0.0340 0.5844 0.4864
H64_4 H 0.0672 0.5575 0.4498
H65_4 H 0.0679 0.5389 0.5033
C32_4 C 0.2162(6) 0.6804(10) 0.8675(6)
H66_4 H 0.2387 0.7056 0.8822
H67_4 H 0.2024 0.6617 0.8925
H68_4 H 0.2370 0.6602 0.8486
C40_4 C 0.3143(5) 0.6668(4) 0.4744(4)
H80_4 H 0.3360 0.6580 0.5025
C42_4 C 0.3573(10) 0.7424(6) 0.4843(9)
H81_4 H 0.3517 0.7736 0.4702
H82_4 H 0.3922 0.7307 0.4785
H83_4 H 0.3552 0.7442 0.5187
C44_4 C 0.3062(10) 0.7268(7) 0.4153(7)
H84_4 H 0.3392 0.7370 0.4037
H85_4 H 0.2905 0.7014 0.3951
H86_4 H 0.2816 0.7533 0.4145
C63_4 C 0.1754(7) 0.5203(4) 0.2518(4)
H105_4 H 0.1598 0.4903 0.2548
C64_4 C 0.2408(9) 0.5548(6) 0.2151(8)
H106_4 H 0.2505 0.5656 0.2478
H107_4 H 0.2706 0.5380 0.2039
H108_4 H 0.2318 0.5820 0.1945
C66_4 C 0.1988(7) 0.4926(5) 0.1755(4)
H109_4 H 0.2179 0.5082 0.1515
H110_4 H 0.1633 0.4841 0.1612
H111_4 H 0.2179 0.4642 0.1868
C77_4 C 0.1252(3) 0.8484(5) 0.9787(4)
H123_4 H 0.0886 0.9572 0.9899
C81_4 C 0.1164(9) 0.9120(6) 0.9250(5)
H127_4 H 0.1062 0.9452 0.9246
H128_4 H 0.0925 0.8947 0.9016
H129_4 H 0.1527 0.9091 0.9170
C141_4 C 0.2036(2) 0.9257(2) 0.1955(3)
C142_4 C 0.2091(2) 0.8765(2) 0.2218(3)
C143_4 C 0.2172(3) 0.8761(3) 0.2713(3)
H157_4 H 0.2218 0.9047 0.2887
C144_4 C 0.2183(3) 0.8341(3) 0.2943(3)
H158_4 H 0.2204 0.8334 0.3281
C145_4 C 0.2165(2) 0.7925(2) 0.2689(3)
C146_4 C 0.2174(3) 0.7444(3) 0.2945(3)
C147_4 C 0.2118(3) 0.7051(3) 0.2184(4)
C148_4 C 0.2075(2) 0.7515(2) 0.1928(3)
C149_4 C 0.1999(3) 0.7528(2) 0.1440(3)
H159_4 H 0.1977 0.7246 0.1260
C150_4 C 0.1955(3) 0.7958(2) 0.1217(2)
H160_4 H 0.1905 0.7968 0.0879
C151_4 C 0.1981(2) 0.8369(2) 0.1467(2)
C152_4 C 0.1913(2) 0.8825(2) 0.1202(3)
C153_4 C 0.2094(2) 0.7921(2) 0.2195(2)
C154_4 C 0.20597(19) 0.8368(2) 0.1953(2)
C155_4 C 0.1885(2) 0.9678(2) 0.1190(3)
H161_4 H 0.1829 0.9582 0.0847
C156_4 C 0.2411(2) 0.9948(2) 0.1249(2)
C157_4 C 0.2166(3) 0.6593(3) 0.2922(3)
H162_4 H 0.2137 0.6348 0.2667
C158_4 C 0.1664(3) 0.6547(2) 0.3155(3)
C159_4 C 0.1267(3) 0.5736(4) 0.5838(4)
C160_4 C 0.1338(3) 0.5897(4) 0.6365(3)
C161_4 C 0.1437(3) 0.5590(4) 0.6715(4)
H163_4 H 0.1464 0.5266 0.6643
C162_4 C 0.1503(3) 0.5739(4) 0.7196(4)
H164_4 H 0.1558 0.5517 0.7447
C163_4 C 0.1488(3) 0.6198(4) 0.7290(3)
C164_4 C 0.1582(4) 0.6385(6) 0.7802(4)
C165_4 C 0.1463(4) 0.7199(5) 0.7510(4)
C166_4 C 0.1381(3) 0.7013(3) 0.7017(3)
C167_4 C 0.1279(4) 0.7332(4) 0.6651(4)
H165_4 H 0.1265 0.7657 0.6728
C168_4 C 0.1195(4) 0.7200(4) 0.6174(4)
H166_4 H 0.1124 0.7424 0.5927
C169_4 C 0.1218(3) 0.6726(4) 0.6082(3)
C170_4 C 0.1119(4) 0.6584(5) 0.5579(4)
C171_4 C 0.1397(2) 0.6530(3) 0.6931(2)
C172_4 C 0.1312(2) 0.6370(3) 0.6451(3)
C173_4 C 0.1125(3) 0.5970(4) 0.4977(3)
H167_4 H 0.1078 0.6259 0.4777
C174_4 C 0.1676(3) 0.5760(3) 0.4892(3)
C175_4 C 0.1715(4) 0.7014(6) 0.8362(3)
H168_4 H 0.1829 0.7347 0.8329
C176_4 C 0.1199(3) 0.7061(5) 0.8573(3)
Ca7_4 Ca 0.16254(5) 0.73657(9) 0.97399(6)
N12_4 N 0.3169(5) 0.7104(3) 0.4628(3)
N17_4 N 0.1952(7) 0.5233(4) 0.2138(4)
N20_4 N 0.1130(3) 0.8929(4) 0.9715(2)
N21_4 N 0.19327(18) 0.92326(17) 0.1467(2)
N23_4 N 0.2164(2) 0.7055(2) 0.2659(3)
N25_4 N 0.1141(3) 0.6132(4) 0.5491(3)
N26_4 N 0.1602(3) 0.6858(5) 0.7867(3)
O5_4 O 0.2575(2) 0.47828(18) 0.48679(17)
O7_4 O 0.2873(3) 0.63404(19) 0.45380(19)
O15_4 O 0.1701(4) 0.5442(2) 0.2861(2)
O17_4 O 0.0030(3) 0.7858(4) 0.8994(4)
O20_4 O 0.1426(3) 0.8161(3) 0.9582(2)
O22_4 O 0.1746(5) 0.6665(7) 0.9926(5)
O36_4 O 0.06424(18) 0.7171(3) 0.9840(2)
O51_4 O 0.2547(2) 0.7395(3) 0.9570(2)
O54_4 O 0.2070(2) 0.96168(17) 0.2166(2)
O55_4 O 0.2179(2) 0.7426(2) 0.3371(2)
O56_4 O 0.2123(2) 0.66774(19) 0.1935(2)
O57_4 O 0.1846(2) 0.88335(18) 0.0769(2)
O62_4 O 0.1310(3) 0.5340(3) 0.5758(3)
O63_4 O 0.1653(4) 0.6130(5) 0.8132(3)
O64_4 O 0.1422(5) 0.7593(4) 0.7608(4)
O65_4 O 0.1004(4) 0.6840(4) 0.5249(3)
O66_4 O 0.20624(18) 0.5845(2) 0.51785(18)
O67_4 O 0.16997(15) 0.55896(14) 0.44838(15)
O68_4 O 0.0771(2) 0.6966(3) 0.83568(19)
O69_4 O 0.12484(18) 0.7192(3) 0.9000(2)
H24_4 H 0.9893 0.6438 0.2301
N6_4 N 0.9963(6) 0.5996(4) 0.1842(6)
C18_4 C 0.9540(9) 0.6166(6) 0.1493(6)
H28_4 H 0.9531 0.5977 0.1202
H29_4 H 0.9604 0.6495 0.1419
H30_4 H 0.9201 0.6138 0.1624
C29_4 C 0.7496(4) 0.0016(4) 0.3228(5)
H58_4 H 0.7482 0.0332 0.3363
C33_4 C 0.9661(3) 0.9562(4) 0.0413(3)
H69_4 H 0.9830 0.9254 0.0464
H70_4 H 0.9592 0.9623 0.0071
H71_4 H 0.9895 0.9805 0.0562
C34_4 C 0.8749(4) 0.7048(4) 0.3390(4)
H72_4 H 0.8788 0.6852 0.3677
H73_4 H 0.8503 0.7306 0.3432
H74_4 H 0.8613 0.6857 0.3115
C35_4 C 0.9624(4) 0.5236(4) 0.3312(8)
H75_4 H 0.9656 0.5560 0.3203
H76_4 H 0.9342 0.5076 0.3111
H77_4 H 0.9541 0.5236 0.3643
C36_4 C 0.9226(3) 0.7416(3) 0.2464(4)
C37_4 C 0.9213(2) 0.7761(2) 0.2060(3)
C38_4 C 0.9152(2) 0.7607(3) 0.1587(3)
H78_4 H 0.9135 0.7280 0.1520
C39_4 C 0.9117(2) 0.7924(2) 0.1217(3)
H79_4 H 0.9068 0.7818 0.0897
C41_4 C 0.9154(2) 0.8399(2) 0.1318(3)
C43_4 C 0.9126(2) 0.8749(3) 0.0911(3)
C45_4 C 0.9209(2) 0.9391(3) 0.1498(3)
C46_4 C 0.9244(2) 0.9056(2) 0.1885(3)
C47_4 C 0.9309(2) 0.9210(2) 0.2355(3)
H87_4 H 0.9342 0.9535 0.2425
C48_4 C 0.9325(3) 0.8872(3) 0.2731(3)
H88_4 H 0.9355 0.8975 0.3053
C49_4 C 0.9298(2) 0.8402(2) 0.2632(3)
C50_4 C 0.9312(3) 0.8082(3) 0.3042(4)
C51_4 C 0.9203(2) 0.8575(2) 0.1782(2)
C52_4 C 0.9865(4) 0.0522(4) 0.2454(5)
H89_4 H 0.9573 0.0363 0.2288
C53_4 C 0.92353(19) 0.8246(2) 0.2169(3)
C55_4 C 0.9153(3) 0.9566(3) 0.0629(3)
H93_4 H 0.9129 0.9885 0.0774
H95_4 H 0.9870 0.0718 0.1545
C60_4 C 0.8646(3) 0.9504(3) 0.0301(3)
C61_4 C 0.9281(3) 0.7249(3) 0.3307(4)
H104_4 H 0.9379 0.7450 0.3593
C62_4 C 0.9740(3) 0.6912(3) 0.3306(4)
C87_4 C 0.8834(5) 0.1352(4) 0.2618(4)
H131_4 H 0.9062 0.1591 0.2755
C89_4 C 0.8562(7) 0.0913(5) 0.1903(6)
H133_4 H 0.8625 0.0918 0.1567
H134_4 H 0.8184 0.0956 0.1927
H135_4 H 0.8676 0.0610 0.2043
C90_4 C 0.9134(5) 0.1611(4) 0.1867(5)
H136_4 H 0.9105 0.1504 0.1535
H137_4 H 0.9507 0.1624 0.1995
H138_4 H 0.8977 0.1925 0.1881
H139_4 H 0.7923 0.0236 0.2720
C93_4 C 0.8504(3) 0.0050(3) 0.3212(3)
H145_4 H 0.9980 0.3561 0.2228
C126_4 C 0.9632(3) 0.1371(3) 0.3730(3)
Ca4_4 Ca 0.96022(6) 0.01905(5) 0.35504(7)
N10_4 N 0.9259(3) 0.7578(3) 0.2908(3)
N11_4 N 0.91786(18) 0.9222(2) 0.1042(2)
N24_4 N 0.8853(4) 0.1282(3) 0.2150(4)
O4_4 O 0.9173(2) 0.6998(2) 0.2372(3)
O6_4 O 0.90939(17) 0.86305(18) 0.0509(2)
O8_4 O 0.9226(2) 0.98167(19) 0.1567(2)
O9_4 O 0.9361(3) 0.8196(2) 0.3446(3)
O12_4 O 0.9870(3) 0.0565(2) 0.2892(3)
O14_4 O 0.9703(2) 0.6501(2) 0.3452(3)
O24_4 O 0.8549(3) 0.1139(2) 0.2918(3)
O26_4 O 0.8751(8) 0.1119(9) 0.4537(5)
C177_4 C 0.9166(14) 0.1345(13) 0.4737(9)
H169_4 H 0.9300 0.1572 0.4536
N27_2 N 0.9439(11) 0.1316(11) 0.5172(9)
C178_2 C 0.9707(17) 0.1747(15) 0.5386(11)
H170_2 H 0.9888 0.1670 0.5701
H171_2 H 0.9444 0.1992 0.5418
H172_2 H 0.9966 0.1859 0.5180
C179_2 C 0.9164(14) 0.1052(11) 0.5505(12)
H173_2 H 0.9378 0.1041 0.5814
H174_2 H 0.9101 0.0731 0.5385
H175_2 H 0.8825 0.1203 0.5540
O29_4 O 0.8563(2) 0.0337(2) 0.3548(3)
O39_4 O 0.9958(4) 0.4424(2) 0.2511(3)
O44_4 O 0.95688(19) 0.09514(17) 0.38292(19)
O45_4 O 0.92733(18) 0.16647(17) 0.3692(2)
C4_4 C 0.9758(2) 0.7220(5) 0.0373(3)
H5_4 H 0.9710 0.7469 0.0133
H6_4 H 0.9676 0.6915 0.0222
H7_4 H 0.9521 0.7276 0.0618
H57_4 H 0.7174 0.9958 0.3013
H59_4 H 0.7522 0.9783 0.3486
C30_4 C 0.8282(4) 0.6755(4) 0.1036(5)
H60_4 H 0.8262 0.6479 0.0827
H61_4 H 0.8534 0.6981 0.0930
H62_4 H 0.8399 0.6658 0.1363
O3_4 O 0.9496(4) 0.9807(4) 0.4239(4)
C57_4 C 0.9097(9) 0.9515(9) 0.4125(8)
H97_4 H 0.8870 0.9572 0.3841
N9_4 N 0.8998(12) 0.9144(10) 0.4392(10)
C58_4 C 0.8534(13) 0.8831(11) 0.4389(11)
H98_4 H 0.8602 0.8593 0.4639
H99_4 H 0.8469 0.8676 0.4079
H100_4 H 0.8224 0.9017 0.4447
C59_4 C 0.9303(16) 0.9238(12) 0.4860(11)
H101_2 H 0.9251 0.8979 0.5079
H102_4 H 0.9180 0.9532 0.4991
H103_4 H 0.9678 0.9265 0.4820
C65_4 C 0.7715(3) 0.7860(3) 0.1083(4)
C67_4 C 0.7731(2) 0.8299(3) 0.1364(3)
C69_4 C 0.7685(3) 0.8728(3) 0.1141(3)
H113_4 H 0.7622 0.8748 0.0804
C71_4 C 0.7730(3) 0.9143(3) 0.1421(4)
H117_4 H 0.7707 0.9439 0.1266
C73_4 C 0.7804(2) 0.9130(2) 0.1886(4)
C74_4 C 0.7839(3) 0.9581(3) 0.2174(4)
C75_4 C 0.8011(3) 0.9122(3) 0.2905(4)
C76_4 C 0.7967(2) 0.8679(2) 0.2632(3)
C78_4 C 0.8004(3) 0.8240(3) 0.2848(3)
H122_4 H 0.8059 0.8221 0.3186
C80_4 C 0.7964(3) 0.7833(3) 0.2585(3)
H126_4 H 0.8005 0.7540 0.2747
C82_4 C 0.7866(2) 0.7834(3) 0.2090(3)
C84_4 C 0.7830(3) 0.7404(3) 0.1809(3)
C85_4 C 0.7867(2) 0.8690(2) 0.2122(3)
C86_4 C 0.7825(2) 0.8273(2) 0.1853(3)
C88_4 C 0.7744(3) 0.6980(3) 0.1018(4)
H132_4 H 0.7630 0.7070 0.0680
C91_4 C 0.7321(3) 0.6666(3) 0.1186(4)
C92_4 C 0.7967(3) 0.9976(3) 0.2958(4)
N13_4 N 0.7771(2) 0.7443(2) 0.1328(3)
N14_4 N 0.7930(2) 0.9532(2) 0.2661(3)
O18_4 O 0.7648(3) 0.7870(2) 0.0644(3)
O19_4 O 0.7755(2) 0.99631(19) 0.1984(3)
O21_4 O 0.8113(3) 0.9129(2) 0.3338(3)
O23_4 O 0.7888(2) 0.70167(19) 0.1999(3)
O28_4 O 0.88882(19) 0.98505(19) 0.3063(2)
C68_4 C 0.9598(7) 0.8042(6) 0.8892(8)
H112_4 H 0.9376 0.7881 0.8653
C70_4 C 0.9595(7) 0.8688(7) 0.9435(5)
H114_4 H 0.9339 0.8942 0.9459
H115_4 H 0.9937 0.8823 0.9381
H116_4 H 0.9632 0.8507 0.9731
C72_4 C 0.8839(5) 0.8558(6) 0.8812(8)
H118_4 H 0.8585 0.8520 0.9046
H119_4 H 0.8859 0.8889 0.8723
H120_4 H 0.8724 0.8371 0.8528
N19_4 N 0.9410(4) 0.8381(4) 0.9039(4)
N5_3 N 0.7469(3) 0.0749(2) 0.0460(3)
C14_3 C 0.7539(3) 0.0653(3) 0.0013(3)
C15_3 C 0.7435(5) 0.0365(3) 0.0796(3)
H21_3 H 0.7383 0.0493 0.1109
H22_3 H 0.7136 0.0162 0.0685
H23_3 H 0.7762 0.0181 0.0820
C17_3 C 0.7356(5) 0.1224(3) 0.0614(4)
H25_3 H 0.7318 0.1222 0.0955
H26_3 H 0.7646 0.1433 0.0554
H27_3 H 0.7027 0.1335 0.0437
H101_3 H 0.4251 0.6021 0.0079
N27_3 N 0.4439(11) 0.3684(11) 0.0172(9)
C178_3 C 0.4707(17) 0.3253(15) 0.0386(11)
H170_3 H 0.4888 0.3330 0.0701
H171_3 H 0.4444 0.3008 0.0418
H172_3 H 0.4966 0.3141 0.0180
C179_3 C 0.4164(14) 0.3948(11) 0.0505(12)
H173_3 H 0.4378 0.3959 0.0814
H174_3 H 0.4101 0.4269 0.0385
H175_3 H 0.3825 0.3797 0.0540
H101_4 H 0.5749 0.3979 0.9921
N27_4 N 0.5561(11) 0.6316(11) 0.9828(9)
C178_4 C 0.5293(17) 0.6747(15) 0.9614(11)
H170_4 H 0.5112 0.6670 0.9299
H171_4 H 0.5556 0.6992 0.9582
H172_4 H 0.5034 0.6859 0.9820
C179_4 C 0.5836(14) 0.6052(11) 0.9495(12)
H173_4 H 0.5622 0.6041 0.9186
H174_4 H 0.5899 0.5731 0.9615
H175_4 H 0.6175 0.6203 0.9460
N5_4 N 0.2531(3) 0.9251(2) 0.9540(3)
C14_4 C 0.2461(3) 0.9347(3) 0.9987(3)
C15_4 C 0.2565(5) 0.9635(3) 0.9204(3)
H21_4 H 0.2617 0.9507 0.8891
H22_4 H 0.2864 0.9838 0.9315
H23_4 H 0.2238 0.9819 0.9180
C17_4 C 0.2644(5) 0.8776(3) 0.9386(4)
H25_4 H 0.2682 0.8778 0.9045
H26_4 H 0.2354 0.8567 0.9446
H27_4 H 0.2973 0.8665 0.9563
loop_
_geom_bond_atom_site_label_1
_geom_bond_atom_site_label_2
_geom_bond_site_symmetry_1
_geom_bond_site_symmetry_2
H110 C66 1_555 1_555
H111 C66 1_555 1_555
C1 H1 1_555 1_555
H2 C1 1_555 1_555
H3 C1 1_555 1_555
C2 C3 1_555 1_555
C3 C1 1_555 1_555
H4 C3 1_555 1_555
N1 C3 1_555 1_555
C4 H5 1_555 1_555
H6 C4 1_555 1_555
H7 C4 1_555 1_555
C5 C6 1_555 1_555
C6 C4 1_555 1_555
H8 C6 1_555 1_555
N2 C6 1_555 1_555
C7 H9 1_555 1_555
H10 C7 1_555 1_555
H11 C7 1_555 1_555
C8 C9 1_555 1_555
C9 C7 1_555 1_555
H12 C9 1_555 1_555
N3 C9 1_555 1_555
C10 H13 1_555 1_555
H14 C10 1_555 1_555
H15 C10 1_555 1_555
C11 C12 1_555 1_555
C12 C10 1_555 1_555
H16 C12 1_555 1_555
N4 C12 1_555 1_555
C13 H17 1_555 1_555
H18 C13 1_555 1_555
H19 C13 1_555 1_555
O1 C19 1_555 1_555
C19 H31 1_555 1_555
N7 C19 1_555 1_555
C20 N7 1_555 1_555
H32 C20 1_555 1_555
H33 C20 1_555 1_555
H34 C20 1_555 1_555
C21 N7 1_555 1_555
H35 C21 1_555 1_555
H36 C21 1_555 1_555
H37 C21 1_555 1_555
C26 H48 1_555 1_555
H49 C26 1_555 1_555
H50 C26 1_555 1_555
C29 H57 1_555 1_555
H58 C29 1_555 1_555
H59 C29 1_555 1_555
C30 H60 1_555 1_555
H61 C30 1_555 1_555
H62 C30 1_555 1_555
C32 H66 1_555 1_555
H67 C32 1_555 1_555
H68 C32 1_555 1_555
C52 H89 1_555 1_555
C54 H90 1_555 1_555
H91 C54 1_555 1_555
H92 C54 1_555 1_555
C56 H94 1_555 1_555
H95 C56 1_555 1_555
H96 C56 1_555 1_555
O3 C57 1_555 1_555
C57 H97 1_555 1_555
N9 C57 1_555 1_555
C58 N9 1_555 1_555
H98 C58 1_555 1_555
H99 C58 1_555 1_555
H100 C58 1_555 1_555
C59 N9 1_555 1_555
H102 C59 1_555 1_555
H103 C59 1_555 1_555
C65 C67 1_555 1_555
C67 C69 1_555 1_555
C68 H112 1_555 1_555
C69 H113 1_555 1_555
C70 H114 1_555 1_555
H115 C70 1_555 1_555
H116 C70 1_555 1_555
C71 C69 1_555 1_555
H117 C71 1_555 1_555
C72 H118 1_555 1_555
H119 C72 1_555 1_555
H120 C72 1_555 1_555
C73 C71 1_555 1_555
C74 C73 1_555 1_555
C75 C76 1_555 1_555
C76 C78 1_555 1_555
C77 H121 1_555 1_555
C78 H122 1_555 1_555
C79 H123 1_555 1_555
H124 C79 1_555 1_555
H125 C79 1_555 1_555
C80 C78 1_555 1_555
H126 C80 1_555 1_555
C81 H127 1_555 1_555
H128 C81 1_555 1_555
H129 C81 1_555 1_555
C82 C80 1_555 1_555
C83 H130 1_555 1_555
C84 C82 1_555 1_555
C85 C73 1_555 1_555
C86 C67 1_555 1_555
C87 H131 1_555 1_555
C88 C30 1_555 1_555
H132 C88 1_555 1_555
C89 H133 1_555 1_555
H134 C89 1_555 1_555
H135 C89 1_555 1_555
C90 H136 1_555 1_555
H137 C90 1_555 1_555
H138 C90 1_555 1_555
C91 C88 1_555 1_555
C92 C29 1_555 1_555
H139 C92 1_555 1_555
C93 C92 1_555 1_555
C94 N2 1_555 1_555
C95 C94 1_555 1_555
C96 C95 1_555 1_555
H140 C96 1_555 1_555
C97 C96 1_555 1_555
H141 C97 1_555 1_555
C98 C97 1_555 1_555
C99 N1 1_555 1_555
C100 N1 1_555 1_555
C101 C100 1_555 1_555
C102 C101 1_555 1_555
H142 C102 1_555 1_555
C103 C102 1_555 1_555
H143 C103 1_555 1_555
C104 C103 1_555 1_555
C105 N2 1_555 1_555
C106 C98 1_555 1_555
C107 C95 1_555 1_555
C108 C109 1_555 1_555
C109 C110 1_555 1_555
C110 H144 1_555 1_555
C111 C110 1_555 1_555
H145 C111 1_555 1_555
C112 C111 1_555 1_555
C113 C112 1_555 1_555
C114 C115 1_555 1_555
C115 C116 1_555 1_555
C116 H146 1_555 1_555
C117 C116 1_555 1_555
H147 C117 1_555 1_555
C118 C117 1_555 1_555
C119 C118 1_555 1_555
C120 C112 1_555 1_555
C121 C109 1_555 1_555
C124 H149 1_555 1_555
C125 C124 1_555 1_555
H150 C125 1_555 1_555
H151 C125 1_555 1_555
H152 C125 1_555 1_555
C126 C124 1_555 1_555
C127 N3 1_555 1_555
C128 C127 1_555 1_555
C129 C128 1_555 1_555
H153 C129 1_555 1_555
C130 C129 1_555 1_555
H154 C130 1_555 1_555
C131 C130 1_555 1_555
C132 N4 1_555 1_555
C133 N4 1_555 1_555
C134 C133 1_555 1_555
C135 C134 1_555 1_555
H155 C135 1_555 1_555
C136 C135 1_555 1_555
H156 C136 1_555 1_555
C137 C136 1_555 1_555
C138 N3 1_555 1_555
C139 C131 1_555 1_555
C140 C128 1_555 1_555
C159 C160 1_555 1_555
C160 C161 1_555 1_555
C161 H163 1_555 1_555
C162 C161 1_555 1_555
H164 C162 1_555 1_555
C163 C162 1_555 1_555
C164 C163 1_555 1_555
C165 C166 1_555 1_555
C166 C167 1_555 1_555
C167 H165 1_555 1_555
C168 C167 1_555 1_555
H166 C168 1_555 1_555
C169 C168 1_555 1_555
C170 C169 1_555 1_555
C171 C163 1_555 1_555
C172 C160 1_555 1_555
C175 C32 1_555 1_555
H168 C175 1_555 1_555
C176 C175 1_555 1_555
Ca4 O3 1_555 1_555
Ca5 O24 1_555 1_555
Ca6 O1 1_555 1_555
Ca7 O20 1_555 1_555
N13 C65 1_555 1_555
N14 C74 1_555 1_555
N15 C52 1_555 1_555
N16 C108 1_555 1_555
N18 C113 1_555 1_555
N19 C68 1_555 1_555
N20 C77 1_555 1_555
N22 C13 1_555 1_555
N24 C87 1_555 1_555
N25 C159 1_555 1_555
N26 C164 1_555 1_555
O12 C52 1_555 1_555
O17 C68 1_555 1_555
O18 C65 1_555 1_555
O19 C74 1_555 1_555
O20 C77 1_555 1_555
O21 C75 1_555 1_555
O22 C83 1_555 1_555
O23 C84 1_555 1_555
O24 C87 1_555 1_555
O25 C91 1_555 1_555
O26 Ca5 1_555 1_555
C177 O26 1_555 1_555
H169 C177 1_555 1_555
O27 C91 1_555 1_555
O28 C93 1_555 1_555
O29 C93 1_555 1_555
O30 C94 1_555 1_555
O31 C99 1_555 1_555
O32 C100 1_555 1_555
O33 C105 1_555 1_555
O34 C2 1_555 1_555
O35 C2 1_555 1_555
O36 C5 1_555 1_555
O37 C5 1_555 1_555
O38 C108 1_555 1_555
O39 C113 1_555 1_555
O40 C114 1_555 1_555
O41 C119 1_555 1_555
O44 C126 1_555 1_555
O45 C126 1_555 1_555
O46 C127 1_555 1_555
O47 C132 1_555 1_555
O48 C133 1_555 1_555
O49 C138 1_555 1_555
O50 C8 1_555 1_555
O51 C8 1_555 1_555
O52 C11 1_555 1_555
O53 C11 1_555 1_555
O62 C159 1_555 1_555
O63 C164 1_555 1_555
O64 C165 1_555 1_555
O65 C170 1_555 1_555
O68 C176 1_555 1_555
O69 C176 1_555 1_555
Ca13 O25 1_555 1_555
O72 Ca5 1_555 1_555
O73 Ca5 1_555 1_555
O76 Ca6 1_555 1_555
O77 Ca6 1_555 1_555
C26 N22 1_555 1_555
C54 N15 1_555 1_555
C56 N15 1_555 1_555
C70 N19 1_555 1_555
C72 N19 1_555 1_555
C75 N14 1_555 1_555
C76 C85 1_555 1_555
C79 N20 1_555 1_555
C81 N20 1_555 1_555
C82 C86 1_555 1_555
C83 N22 1_555 1_555
C84 N13 1_555 1_555
C85 C86 1_555 1_555
C88 N13 1_555 1_555
C89 N24 1_555 1_555
C90 N24 1_555 1_555
C92 N14 1_555 1_555
C98 C99 1_555 1_555
C101 C106 1_555 1_555
C104 C105 1_555 1_555
C104 C107 1_555 1_555
C106 C107 1_555 1_555
C114 N18 1_555 1_555
C115 C120 1_555 1_555
C118 C121 1_555 1_555
C119 N16 1_555 1_555
C120 C121 1_555 1_555
C124 N16 1_555 1_555
C131 C132 1_555 1_555
C134 C139 1_555 1_555
C137 C138 1_555 1_555
C137 C140 1_555 1_555
C139 C140 1_555 1_555
C165 N26 1_555 1_555
C166 C171 1_555 1_555
C169 C172 1_555 1_555
C170 N25 1_555 1_555
C171 C172 1_555 1_555
C175 N26 1_555 1_555
Ca4 O12 1_555 1_555
Ca4 O28 1_555 1_555
Ca4 O29 1_555 1_555
Ca4 O34 1_555 1_555
Ca4 O35 1_555 1_555
Ca4 O44 1_555 1_555
Ca5 O29 1_555 1_555
Ca5 O44 1_555 1_555
Ca5 O45 1_555 1_555
Ca6 O17 1_555 1_555
Ca6 O36 1_555 1_555
Ca6 O68 1_555 1_555
Ca6 O69 1_555 1_555
Ca7 O22 1_555 1_555
Ca7 O36 1_555 1_555
Ca7 O37 1_555 1_555
Ca7 O50 1_555 1_555
Ca7 O51 1_555 1_555
Ca7 O69 1_555 1_555
O27 Ca13 1_555 1_555
C27 H51 1_555 1_555
H52 C27 1_555 1_555
H53 C27 1_555 1_555
C28 H54 1_555 1_555
H55 C28 1_555 1_555
H56 C28 1_555 1_555
C31 H63 1_555 1_555
H64 C31 1_555 1_555
C42 H81 1_555 1_555
H82 C42 1_555 1_555
C44 H84 1_555 1_555
H85 C44 1_555 1_555
H86 C44 1_555 1_555
C64 H106 1_555 1_555
H107 C64 1_555 1_555
H108 C64 1_555 1_555
C141 C142 1_555 1_555
C142 C143 1_555 1_555
C143 H157 1_555 1_555
C144 C143 1_555 1_555
H158 C144 1_555 1_555
C145 C144 1_555 1_555
C146 C145 1_555 1_555
C147 C148 1_555 1_555
C148 C149 1_555 1_555
C149 H159 1_555 1_555
C150 C149 1_555 1_555
H160 C150 1_555 1_555
C151 C150 1_555 1_555
C152 C151 1_555 1_555
C153 C145 1_555 1_555
C154 C142 1_555 1_555
C155 C27 1_555 1_555
H161 C155 1_555 1_555
C156 C155 1_555 1_555
C157 C28 1_555 1_555
H162 C157 1_555 1_555
C158 C157 1_555 1_555
C173 C31 1_555 1_555
H167 C173 1_555 1_555
C174 C173 1_555 1_555
Ca1 O15 1_555 1_555
N12 C40 1_555 1_555
N17 C63 1_555 1_555
N21 C141 1_555 1_555
N23 C146 1_555 1_555
O7 C40 1_555 1_555
O15 C63 1_555 1_555
O54 C141 1_555 1_555
O55 C146 1_555 1_555
O56 C147 1_555 1_555
O57 C152 1_555 1_555
O58 C156 1_555 1_555
O59 C156 1_555 1_555
O60 C158 1_555 1_555
O61 C158 1_555 1_555
O67 C174 1_555 1_555
Ca9 O58 1_555 1_555
Ca10 O59 1_555 1_555
Ca12 O60 1_555 1_555
O70 Ca2 1_555 1_555
O74 Ca1 1_555 1_555
O79 Ca1 1_555 1_555
C42 N12 1_555 1_555
C44 N12 1_555 1_555
C64 N17 1_555 1_555
C147 N23 1_555 1_555
C148 C153 1_555 1_555
C151 C154 1_555 1_555
C152 N21 1_555 1_555
C153 C154 1_555 1_555
C155 N21 1_555 1_555
C157 N23 1_555 1_555
Ca1 O61 1_555 1_555
Ca1 O67 1_555 1_555
Ca2 O7 1_555 1_555
Ca2 O67 1_555 1_555
Ca2 O79 1_555 1_555
O59 Ca9 1_555 1_555
O61 Ca12 1_555 1_555
Ca12 O74 1_555 1_555
C16 H24 1_555 1_555
N6 C16 1_555 1_555
C18 N6 1_555 1_555
H28 C18 1_555 1_555
H29 C18 1_555 1_555
H30 C18 1_555 1_555
C22 N6 1_555 1_555
H38 C22 1_555 1_555
H39 C22 1_555 1_555
H40 C22 1_555 1_555
O2 C23 1_555 1_555
C23 H41 1_555 1_555
N8 C23 1_555 1_555
C24 N8 1_555 1_555
H42 C24 1_555 1_555
H43 C24 1_555 1_555
H44 C24 1_555 1_555
C25 N8 1_555 1_555
H45 C25 1_555 1_555
H46 C25 1_555 1_555
H47 C25 1_555 1_555
C33 H69 1_555 1_555
H70 C33 1_555 1_555
H71 C33 1_555 1_555
C34 H72 1_555 1_555
H73 C34 1_555 1_555
H74 C34 1_555 1_555
C35 H75 1_555 1_555
H76 C35 1_555 1_555
H77 C35 1_555 1_555
C36 C37 1_555 1_555
C37 C38 1_555 1_555
C38 H78 1_555 1_555
C39 C38 1_555 1_555
H79 C39 1_555 1_555
C41 C39 1_555 1_555
C43 C41 1_555 1_555
C45 C46 1_555 1_555
C46 C47 1_555 1_555
C47 H87 1_555 1_555
C48 C47 1_555 1_555
H88 C48 1_555 1_555
C49 C48 1_555 1_555
C50 C49 1_555 1_555
C51 C41 1_555 1_555
C53 C37 1_555 1_555
C55 C33 1_555 1_555
H93 C55 1_555 1_555
C60 C55 1_555 1_555
C61 C34 1_555 1_555
H104 C61 1_555 1_555
C62 C61 1_555 1_555
C122 C35 1_555 1_555
H148 C122 1_555 1_555
C123 C122 1_555 1_555
Ca12 O2 1_555 1_555
N10 C36 1_555 1_555
N11 C43 1_555 1_555
O4 C36 1_555 1_555
O6 C43 1_555 1_555
O8 C45 1_555 1_555
O9 C50 1_555 1_555
O10 C16 1_555 1_555
O11 C60 1_555 1_555
O13 C60 1_555 1_555
O14 C62 1_555 1_555
O16 C62 1_555 1_555
O74 C123 1_555 1_555
Ca11 O11 1_555 1_555
C45 N11 1_555 1_555
C46 C51 1_555 1_555
C49 C53 1_555 1_555
C50 N10 1_555 1_555
C51 C53 1_555 1_555
C55 N11 1_555 1_555
C61 N10 1_555 1_555
Ca12 O10 1_555 1_555
Ca12 O14 1_555 1_555
Ca12 O16 1_555 1_555
O13 Ca11 1_555 1_555
C68_2 H112_2 1_555 1_555
C70_2 H114_2 1_555 1_555
H115_2 C70_2 1_555 1_555
H116_2 C70_2 1_555 1_555
C72_2 H118_2 1_555 1_555
H119_2 C72_2 1_555 1_555
H120_2 C72_2 1_555 1_555
N19_2 C68_2 1_555 1_555
C70_2 N19_2 1_555 1_555
C72_2 N19_2 1_555 1_555
C4_2 H5_2 1_555 1_555
H6_2 C4_2 1_555 1_555
H7_2 C4_2 1_555 1_555
C30_2 H60_2 1_555 1_555
H61_2 C30_2 1_555 1_555
H62_2 C30_2 1_555 1_555
O3_2 C57_2 1_555 1_555
C57_2 H97_2 1_555 1_555
N9_2 C57_2 1_555 1_555
C58_2 N9_2 1_555 1_555
H98_2 C58_2 1_555 1_555
H99_2 C58_2 1_555 1_555
H100_2 C58_2 1_555 1_555
C59_2 N9_2 1_555 1_555
H101 C59_2 1_555 1_555
H102_2 C59_2 1_555 1_555
H103_2 C59_2 1_555 1_555
C65_2 C67_2 1_555 1_555
C67_2 C69_2 1_555 1_555
C69_2 H113_2 1_555 1_555
C71_2 C69_2 1_555 1_555
H117_2 C71_2 1_555 1_555
C73_2 C71_2 1_555 1_555
C74_2 C73_2 1_555 1_555
C75_2 C76_2 1_555 1_555
C76_2 C78_2 1_555 1_555
C78_2 H122_2 1_555 1_555
C80_2 C78_2 1_555 1_555
H126_2 C80_2 1_555 1_555
C82_2 C80_2 1_555 1_555
C84_2 C82_2 1_555 1_555
C85_2 C73_2 1_555 1_555
C86_2 C67_2 1_555 1_555
C88_2 C30_2 1_555 1_555
H132_2 C88_2 1_555 1_555
C91_2 C88_2 1_555 1_555
N13_2 C65_2 1_555 1_555
N14_2 C74_2 1_555 1_555
O18_2 C65_2 1_555 1_555
O19_2 C74_2 1_555 1_555
O21_2 C75_2 1_555 1_555
O23_2 C84_2 1_555 1_555
O72 C91_2 1_555 1_555
O73 C91_2 1_555 1_555
C75_2 N14_2 1_555 1_555
C76_2 C85_2 1_555 1_555
C82_2 C86_2 1_555 1_555
C84_2 N13_2 1_555 1_555
C85_2 C86_2 1_555 1_555
C88_2 N13_2 1_555 1_555
C92_2 N14_2 1_555 1_555
Ca11_2 O11_2 1_555 1_555
C18_2 N6_2 1_555 1_555
H28_2 C18_2 1_555 1_555
H29_2 C18_2 1_555 1_555
H30_2 C18_2 1_555 1_555
H58_2 C29_2 1_555 1_555
C33_2 H69_2 1_555 1_555
H70_2 C33_2 1_555 1_555
H71_2 C33_2 1_555 1_555
C34_2 H72_2 1_555 1_555
H73_2 C34_2 1_555 1_555
H74_2 C34_2 1_555 1_555
C35_2 H75_2 1_555 1_555
H76_2 C35_2 1_555 1_555
H77_2 C35_2 1_555 1_555
C36_2 C37_2 1_555 1_555
C37_2 C38_2 1_555 1_555
C38_2 H78_2 1_555 1_555
C39_2 C38_2 1_555 1_555
H79_2 C39_2 1_555 1_555
C41_2 C39_2 1_555 1_555
C43_2 C41_2 1_555 1_555
C45_2 C46_2 1_555 1_555
C46_2 C47_2 1_555 1_555
C47_2 H87_2 1_555 1_555
C48_2 C47_2 1_555 1_555
H88_2 C48_2 1_555 1_555
C49_2 C48_2 1_555 1_555
C50_2 C49_2 1_555 1_555
C51_2 C41_2 1_555 1_555
C52_2 H89_2 1_555 1_555
C53_2 C37_2 1_555 1_555
C55_2 C33_2 1_555 1_555
H93_2 C55_2 1_555 1_555
C60_2 C55_2 1_555 1_555
C61_2 C34_2 1_555 1_555
H104_2 C61_2 1_555 1_555
C62_2 C61_2 1_555 1_555
C87_2 H131_2 1_555 1_555
C89_2 H133_2 1_555 1_555
H134_2 C89_2 1_555 1_555
H135_2 C89_2 1_555 1_555
C90_2 H136_2 1_555 1_555
H137_2 C90_2 1_555 1_555
H138_2 C90_2 1_555 1_555
Ca13 O24_2 1_555 1_555
N10_2 C36_2 1_555 1_555
N11_2 C43_2 1_555 1_555
N24_2 C87_2 1_555 1_555
O4_2 C36_2 1_555 1_555
O6_2 C43_2 1_555 1_555
O8_2 C45_2 1_555 1_555
O9_2 C50_2 1_555 1_555
O12_2 C52_2 1_555 1_555
O13_2 C60_2 1_555 1_555
O14_2 C62_2 1_555 1_555
O24_2 C87_2 1_555 1_555
O26_2 Ca13 1_555 1_555
C177_2 O26_2 1_555 1_555
H169_2 C177_2 1_555 1_555
N27 C177_2 1_555 1_555
C178 N27 1_555 1_555
H170 C178 1_555 1_555
H171 C178 1_555 1_555
H172 C178 1_555 1_555
C179 N27 1_555 1_555
H173 C179 1_555 1_555
H174 C179 1_555 1_555
H175 C179 1_555 1_555
O29_2 C93_2 1_555 1_555
O44_2 C126_2 1_555 1_555
O45_2 C126_2 1_555 1_555
C45_2 N11_2 1_555 1_555
C46_2 C51_2 1_555 1_555
C49_2 C53_2 1_555 1_555
C50_2 N10_2 1_555 1_555
C51_2 C53_2 1_555 1_555
C55_2 N11_2 1_555 1_555
C61_2 N10_2 1_555 1_555
C89_2 N24_2 1_555 1_555
C90_2 N24_2 1_555 1_555
Ca4_2 O12_2 1_555 1_555
Ca4_2 O29_2 1_555 1_555
Ca4_2 O44_2 1_555 1_555
Ca13 O29_2 1_555 1_555
Ca13 O44_2 1_555 1_555
Ca13 O45_2 1_555 1_555
H10_2 C7_2 1_555 1_555
H11_2 C7_2 1_555 1_555
N5 C14 1_555 1_555
C14 H20_2 1_555 1_555
C15 N5 1_555 1_555
H21 C15 1_555 1_555
H22 C15 1_555 1_555
H23 C15 1_555 1_555
C17 N5 1_555 1_555
H25 C17 1_555 1_555
H26 C17 1_555 1_555
H27 C17 1_555 1_555
O1_2 C19_2 1_555 1_555
C19_2 H31_2 1_555 1_555
N7_2 C19_2 1_555 1_555
C20_2 N7_2 1_555 1_555
H32_2 C20_2 1_555 1_555
H33_2 C20_2 1_555 1_555
H34_2 C20_2 1_555 1_555
C21_2 N7_2 1_555 1_555
H35_2 C21_2 1_555 1_555
H36_2 C21_2 1_555 1_555
H37_2 C21_2 1_555 1_555
H53_2 C27_2 1_555 1_555
C28_2 H54_2 1_555 1_555
H55_2 C28_2 1_555 1_555
H56_2 C28_2 1_555 1_555
C31_2 H63_2 1_555 1_555
H64_2 C31_2 1_555 1_555
H65_2 C31_2 1_555 1_555
C32_2 H66_2 1_555 1_555
H67_2 C32_2 1_555 1_555
H68_2 C32_2 1_555 1_555
C40_2 H80_2 1_555 1_555
C42_2 H81_2 1_555 1_555
H82_2 C42_2 1_555 1_555
H83_2 C42_2 1_555 1_555
C44_2 H84_2 1_555 1_555
H85_2 C44_2 1_555 1_555
H86_2 C44_2 1_555 1_555
C63_2 H105_2 1_555 1_555
C64_2 H106_2 1_555 1_555
H107_2 C64_2 1_555 1_555
H108_2 C64_2 1_555 1_555
C66_2 H109_2 1_555 1_555
H110_2 C66_2 1_555 1_555
H111_2 C66_2 1_555 1_555
C81_2 H127_2 1_555 1_555
H128_2 C81_2 1_555 1_555
H129_2 C81_2 1_555 1_555
C141_2 C142_2 1_555 1_555
C142_2 C143_2 1_555 1_555
C143_2 H157_2 1_555 1_555
C144_2 C143_2 1_555 1_555
H158_2 C144_2 1_555 1_555
C145_2 C144_2 1_555 1_555
C146_2 C145_2 1_555 1_555
C147_2 C148_2 1_555 1_555
C148_2 C149_2 1_555 1_555
C149_2 H159_2 1_555 1_555
C150_2 C149_2 1_555 1_555
H160_2 C150_2 1_555 1_555
C151_2 C150_2 1_555 1_555
C152_2 C151_2 1_555 1_555
C153_2 C145_2 1_555 1_555
C154_2 C142_2 1_555 1_555
C155_2 C27_2 1_555 1_555
H161_2 C155_2 1_555 1_555
C156_2 C155_2 1_555 1_555
C157_2 C28_2 1_555 1_555
H162_2 C157_2 1_555 1_555
C158_2 C157_2 1_555 1_555
C159_2 C160_2 1_555 1_555
C160_2 C161_2 1_555 1_555
C161_2 H163_2 1_555 1_555
C162_2 C161_2 1_555 1_555
H164_2 C162_2 1_555 1_555
C163_2 C162_2 1_555 1_555
C164_2 C163_2 1_555 1_555
C165_2 C166_2 1_555 1_555
C166_2 C167_2 1_555 1_555
C167_2 H165_2 1_555 1_555
C168_2 C167_2 1_555 1_555
H166_2 C168_2 1_555 1_555
C169_2 C168_2 1_555 1_555
C170_2 C169_2 1_555 1_555
C171_2 C163_2 1_555 1_555
C172_2 C160_2 1_555 1_555
C173_2 C31_2 1_555 1_555
H167_2 C173_2 1_555 1_555
C174_2 C173_2 1_555 1_555
C175_2 C32_2 1_555 1_555
H168_2 C175_2 1_555 1_555
C176_2 C175_2 1_555 1_555
Ca9 O15_2 1_555 1_555
Ca10 O5_2 1_555 1_555
Ca6_2 O1_2 1_555 1_555
Ca7_2 O20_2 1_555 1_555
N12_2 C40_2 1_555 1_555
N17_2 C63_2 1_555 1_555
N20_2 C77_2 1_555 1_555
N21_2 C141_2 1_555 1_555
N23_2 C146_2 1_555 1_555
N25_2 C159_2 1_555 1_555
N26_2 C164_2 1_555 1_555
O5_2 C14 1_555 1_555
O7_2 C40_2 1_555 1_555
O15_2 C63_2 1_555 1_555
O20_2 C77_2 1_555 1_555
O51_2 C8_2 1_555 1_555
O54_2 C141_2 1_555 1_555
O55_2 C146_2 1_555 1_555
O56_2 C147_2 1_555 1_555
O57_2 C152_2 1_555 1_555
O78 C156_2 1_555 1_555
O60_2 C158_2 1_555 1_555
O61_2 C158_2 1_555 1_555
O62_2 C159_2 1_555 1_555
O63_2 C164_2 1_555 1_555
O64_2 C165_2 1_555 1_555
O65_2 C170_2 1_555 1_555
O66_2 C174_2 1_555 1_555
O67_2 C174_2 1_555 1_555
O68_2 C176_2 1_555 1_555
O69_2 C176_2 1_555 1_555
Ca12_2 O60_2 1_555 1_555
O70_2 Ca10 1_555 1_555
O71_2 Ca10 1_555 1_555
O74_2 Ca9 1_555 1_555
O75_2 Ca9 1_555 1_555
C42_2 N12_2 1_555 1_555
C44_2 N12_2 1_555 1_555
C64_2 N17_2 1_555 1_555
C66_2 N17_2 1_555 1_555
C81_2 N20_2 1_555 1_555
C147_2 N23_2 1_555 1_555
C148_2 C153_2 1_555 1_555
C151_2 C154_2 1_555 1_555
C152_2 N21_2 1_555 1_555
C153_2 C154_2 1_555 1_555
C155_2 N21_2 1_555 1_555
C157_2 N23_2 1_555 1_555
C165_2 N26_2 1_555 1_555
C166_2 C171_2 1_555 1_555
C169_2 C172_2 1_555 1_555
C170_2 N25_2 1_555 1_555
C171_2 C172_2 1_555 1_555
C173_2 N25_2 1_555 1_555
C175_2 N26_2 1_555 1_555
Ca9 O61_2 1_555 1_555
Ca9 O67_2 1_555 1_555
Ca10 O7_2 1_555 1_555
Ca10 O66_2 1_555 1_555
Ca10 O67_2 1_555 1_555
Ca6_2 O17_2 1_555 1_555
Ca6_2 O36_2 1_555 1_555
Ca6_2 O68_2 1_555 1_555
Ca6_2 O69_2 1_555 1_555
Ca7_2 O22_2 1_555 1_555
Ca7_2 O36_2 1_555 1_555
Ca7_2 O51_2 1_555 1_555
Ca7_2 O69_2 1_555 1_555
O61_2 Ca12_2 1_555 1_555
Ca12_2 O74_2 1_555 1_555
C1_2 H1_2 1_555 1_555
H3_2 C1_2 1_555 1_555
C2_2 C3_2 1_555 1_555
C3_2 C1_2 1_555 1_555
H4_2 C3_2 1_555 1_555
N1_2 C3_2 1_555 1_555
C5_2 C6_2 1_555 1_555
H8_2 C6_2 1_555 1_555
N2_2 C6_2 1_555 1_555
N3_2 C9_2 1_555 1_555
C10_2 H13_2 1_555 1_555
H14_2 C10_2 1_555 1_555
H15_2 C10_2 1_555 1_555
C11_2 C12_2 1_555 1_555
C12_2 C10_2 1_555 1_555
H16_2 C12_2 1_555 1_555
N4_2 C12_2 1_555 1_555
C13_2 H17_2 1_555 1_555
H18_2 C13_2 1_555 1_555
H19_2 C13_2 1_555 1_555
C26_2 H48_2 1_555 1_555
H49_2 C26_2 1_555 1_555
H50_2 C26_2 1_555 1_555
H124_2 C79_2 1_555 1_555
H125_2 C79_2 1_555 1_555
C83_2 H130_2 1_555 1_555
C94_2 N2_2 1_555 1_555
C95_2 C94_2 1_555 1_555
C96_2 C95_2 1_555 1_555
H140_2 C96_2 1_555 1_555
C97_2 C96_2 1_555 1_555
H141_2 C97_2 1_555 1_555
C98_2 C97_2 1_555 1_555
C99_2 N1_2 1_555 1_555
C100_2 N1_2 1_555 1_555
C101_2 C100_2 1_555 1_555
C102_2 C101_2 1_555 1_555
H142_2 C102_2 1_555 1_555
C103_2 C102_2 1_555 1_555
H143_2 C103_2 1_555 1_555
C104_2 C103_2 1_555 1_555
C105_2 N2_2 1_555 1_555
C106_2 C98_2 1_555 1_555
C107_2 C95_2 1_555 1_555
C127_2 N3_2 1_555 1_555
C128_2 C127_2 1_555 1_555
C129_2 C128_2 1_555 1_555
H153_2 C129_2 1_555 1_555
C130_2 C129_2 1_555 1_555
H154_2 C130_2 1_555 1_555
C131_2 C130_2 1_555 1_555
C132_2 N4_2 1_555 1_555
C133_2 N4_2 1_555 1_555
C134_2 C133_2 1_555 1_555
C135_2 C134_2 1_555 1_555
H155_2 C135_2 1_555 1_555
C136_2 C135_2 1_555 1_555
H156_2 C136_2 1_555 1_555
C137_2 C136_2 1_555 1_555
C138_2 N3_2 1_555 1_555
C139_2 C131_2 1_555 1_555
C140_2 C128_2 1_555 1_555
N22_2 C13_2 1_555 1_555
O30_2 C94_2 1_555 1_555
O31_2 C99_2 1_555 1_555
O32_2 C100_2 1_555 1_555
O33_2 C105_2 1_555 1_555
O34_2 C2_2 1_555 1_555
O37_2 C5_2 1_555 1_555
O46_2 C127_2 1_555 1_555
O47_2 C132_2 1_555 1_555
O48_2 C133_2 1_555 1_555
O49_2 C138_2 1_555 1_555
O52_2 C11_2 1_555 1_555
O53_2 C11_2 1_555 1_555
Ca14_2 O52_2 1_555 1_555
C26_2 N22_2 1_555 1_555
C83_2 N22_2 1_555 1_555
C98_2 C99_2 1_555 1_555
C101_2 C106_2 1_555 1_555
C104_2 C105_2 1_555 1_555
C104_2 C107_2 1_555 1_555
C106_2 C107_2 1_555 1_555
C131_2 C132_2 1_555 1_555
C134_2 C139_2 1_555 1_555
C137_2 C138_2 1_555 1_555
C137_2 C140_2 1_555 1_555
C139_2 C140_2 1_555 1_555
O53_2 Ca14_2 1_555 1_555
H38_2 C22_2 1_555 1_555
H39_2 C22_2 1_555 1_555
H40_2 C22_2 1_555 1_555
O2_2 C23_2 1_555 1_555
C23_2 H41_2 1_555 1_555
N8_2 C23_2 1_555 1_555
C24_2 N8_2 1_555 1_555
H42_2 C24_2 1_555 1_555
H43_2 C24_2 1_555 1_555
H44_2 C24_2 1_555 1_555
C25_2 N8_2 1_555 1_555
H45_2 C25_2 1_555 1_555
H46_2 C25_2 1_555 1_555
H47_2 C25_2 1_555 1_555
C54_2 H90_2 1_555 1_555
H91_2 C54_2 1_555 1_555
H92_2 C54_2 1_555 1_555
C56_2 H94_2 1_555 1_555
H96_2 C56_2 1_555 1_555
C108_2 C109_2 1_555 1_555
C109_2 C110_2 1_555 1_555
C110_2 H144_2 1_555 1_555
C111_2 C110_2 1_555 1_555
C112_2 C111_2 1_555 1_555
C113_2 C112_2 1_555 1_555
C114_2 C115_2 1_555 1_555
C115_2 C116_2 1_555 1_555
C116_2 H146_2 1_555 1_555
C117_2 C116_2 1_555 1_555
H147_2 C117_2 1_555 1_555
C118_2 C117_2 1_555 1_555
C119_2 C118_2 1_555 1_555
C120_2 C112_2 1_555 1_555
C121_2 C109_2 1_555 1_555
H148_2 C122_2 1_555 1_555
C123_2 C122_2 1_555 1_555
C124_2 H149_2 1_555 1_555
C125_2 C124_2 1_555 1_555
H150_2 C125_2 1_555 1_555
H151_2 C125_2 1_555 1_555
H152_2 C125_2 1_555 1_555
Ca12_2 O2_2 1_555 1_555
N16_2 C108_2 1_555 1_555
N18_2 C113_2 1_555 1_555
O10_2 C16_2 1_555 1_555
O38_2 C108_2 1_555 1_555
O40_2 C114_2 1_555 1_555
O41_2 C119_2 1_555 1_555
O74_2 C123_2 1_555 1_555
O75_2 C123_2 1_555 1_555
C54_2 N15_2 1_555 1_555
C56_2 N15_2 1_555 1_555
C114_2 N18_2 1_555 1_555
C115_2 C120_2 1_555 1_555
C118_2 C121_2 1_555 1_555
C119_2 N16_2 1_555 1_555
C120_2 C121_2 1_555 1_555
C122_2 N18_2 1_555 1_555
C124_2 N16_2 1_555 1_555
Ca12_2 O10_2 1_555 1_555
Ca12_2 O16_2 1_555 1_555
C16_3 H24_3 1_555 1_555
N6_3 C16_3 1_555 1_555
C18_3 N6_3 1_555 1_555
H28_3 C18_3 1_555 1_555
H29_3 C18_3 1_555 1_555
H30_3 C18_3 1_555 1_555
C22_3 N6_3 1_555 1_555
H38_3 C22_3 1_555 1_555
H39_3 C22_3 1_555 1_555
H40_3 C22_3 1_555 1_555
O2_3 C23_3 1_555 1_555
C23_3 H41_3 1_555 1_555
N8_3 C23_3 1_555 1_555
C24_3 N8_3 1_555 1_555
H42_3 C24_3 1_555 1_555
H43_3 C24_3 1_555 1_555
H44_3 C24_3 1_555 1_555
C25_3 N8_3 1_555 1_555
H45_3 C25_3 1_555 1_555
H46_3 C25_3 1_555 1_555
H47_3 C25_3 1_555 1_555
C33_3 H69_3 1_555 1_555
H70_3 C33_3 1_555 1_555
H71_3 C33_3 1_555 1_555
C34_3 H72_3 1_555 1_555
H73_3 C34_3 1_555 1_555
H74_3 C34_3 1_555 1_555
C35_3 H75_3 1_555 1_555
H76_3 C35_3 1_555 1_555
H77_3 C35_3 1_555 1_555
C36_3 C37_3 1_555 1_555
C37_3 C38_3 1_555 1_555
C38_3 H78_3 1_555 1_555
C39_3 C38_3 1_555 1_555
H79_3 C39_3 1_555 1_555
C41_3 C39_3 1_555 1_555
C43_3 C41_3 1_555 1_555
C45_3 C46_3 1_555 1_555
C46_3 C47_3 1_555 1_555
C47_3 H87_3 1_555 1_555
C48_3 C47_3 1_555 1_555
H88_3 C48_3 1_555 1_555
C49_3 C48_3 1_555 1_555
C50_3 C49_3 1_555 1_555
C51_3 C41_3 1_555 1_555
C53_3 C37_3 1_555 1_555
C55_3 C33_3 1_555 1_555
H93_3 C55_3 1_555 1_555
C60_3 C55_3 1_555 1_555
C61_3 C34_3 1_555 1_555
H104_3 C61_3 1_555 1_555
C62_3 C61_3 1_555 1_555
C122_3 C35_3 1_555 1_555
H148_3 C122_3 1_555 1_555
C123_3 C122_3 1_555 1_555
Ca3 O2_3 1_555 1_555
N10_3 C36_3 1_555 1_555
N11_3 C43_3 1_555 1_555
O4_3 C36_3 1_555 1_555
O6_3 C43_3 1_555 1_555
O8_3 C45_3 1_555 1_555
O9_3 C50_3 1_555 1_555
O10_3 C16_3 1_555 1_555
O70_2 C60_3 1_555 1_555
O71_2 C60_3 1_555 1_555
O14_3 C62_3 1_555 1_555
O16_3 C62_3 1_555 1_555
O42 C123_3 1_555 1_555
Ca8 O42 1_555 1_555
O80 Ca3 1_555 1_555
O81 Ca3 1_555 1_555
C45_3 N11_3 1_555 1_555
C46_3 C51_3 1_555 1_555
C49_3 C53_3 1_555 1_555
C50_3 N10_3 1_555 1_555
C51_3 C53_3 1_555 1_555
C55_3 N11_3 1_555 1_555
C61_3 N10_3 1_555 1_555
Ca3 O10_3 1_555 1_555
Ca3 O14_3 1_555 1_555
Ca3 O16_3 1_555 1_555
Ca3 O42 1_555 1_555
Ca8 O81 1_555 1_555
C27_3 H51_3 1_555 1_555
H52_3 C27_3 1_555 1_555
H53_3 C27_3 1_555 1_555
C28_3 H54_3 1_555 1_555
H55_3 C28_3 1_555 1_555
H56_3 C28_3 1_555 1_555
C31_3 H63_3 1_555 1_555
H64_3 C31_3 1_555 1_555
C42_3 H81_3 1_555 1_555
H82_3 C42_3 1_555 1_555
C44_3 H84_3 1_555 1_555
H85_3 C44_3 1_555 1_555
H86_3 C44_3 1_555 1_555
C64_3 H106_3 1_555 1_555
H107_3 C64_3 1_555 1_555
H108_3 C64_3 1_555 1_555
C141_3 C142_3 1_555 1_555
C142_3 C143_3 1_555 1_555
C143_3 H157_3 1_555 1_555
C144_3 C143_3 1_555 1_555
H158_3 C144_3 1_555 1_555
C145_3 C144_3 1_555 1_555
C146_3 C145_3 1_555 1_555
C147_3 C148_3 1_555 1_555
C148_3 C149_3 1_555 1_555
C149_3 H159_3 1_555 1_555
C150_3 C149_3 1_555 1_555
H160_3 C150_3 1_555 1_555
C151_3 C150_3 1_555 1_555
C152_3 C151_3 1_555 1_555
C153_3 C145_3 1_555 1_555
C154_3 C142_3 1_555 1_555
C155_3 C27_3 1_555 1_555
H161_3 C155_3 1_555 1_555
C156_3 C155_3 1_555 1_555
C157_3 C28_3 1_555 1_555
H162_3 C157_3 1_555 1_555
C158_3 C157_3 1_555 1_555
C173_3 C31_3 1_555 1_555
H167_3 C173_3 1_555 1_555
C174_3 C173_3 1_555 1_555
Ca8 O15_3 1_555 1_555
N12_3 C40_3 1_555 1_555
N17_3 C63_3 1_555 1_555
N21_3 C141_3 1_555 1_555
N23_3 C146_3 1_555 1_555
O7_3 C40_3 1_555 1_555
O15_3 C63_3 1_555 1_555
O54_3 C141_3 1_555 1_555
O55_3 C146_3 1_555 1_555
O56_3 C147_3 1_555 1_555
O57_3 C152_3 1_555 1_555
O58_2 C156_3 1_555 1_555
O59_2 C156_3 1_555 1_555
O80 C158_3 1_555 1_555
O81 C158_3 1_555 1_555
O67_3 C174_3 1_555 1_555
Ca9_2 O58_2 1_555 1_555
Ca11 O59_2 1_555 1_555
O79_2 Ca8 1_555 1_555
C42_3 N12_3 1_555 1_555
C44_3 N12_3 1_555 1_555
C64_3 N17_3 1_555 1_555
C147_3 N23_3 1_555 1_555
C148_3 C153_3 1_555 1_555
C151_3 C154_3 1_555 1_555
C152_3 N21_3 1_555 1_555
C153_3 C154_3 1_555 1_555
C155_3 N21_3 1_555 1_555
C157_3 N23_3 1_555 1_555
Ca8 O67_3 1_555 1_555
Ca11_2 O7_3 1_555 1_555
Ca11_2 O67_3 1_555 1_555
Ca11_2 O79_2 1_555 1_555
O59_2 Ca9_2 1_555 1_555
C1_3 H1_3 1_555 1_555
H2_3 C1_3 1_555 1_555
H3_3 C1_3 1_555 1_555
C2_3 C3_3 1_555 1_555
C3_3 C1_3 1_555 1_555
H4_3 C3_3 1_555 1_555
N1_3 C3_3 1_555 1_555
C4_3 H5_3 1_555 1_555
H6_3 C4_3 1_555 1_555
H7_3 C4_3 1_555 1_555
C5_3 C6_3 1_555 1_555
C6_3 C4_3 1_555 1_555
H8_3 C6_3 1_555 1_555
N2_3 C6_3 1_555 1_555
C7_3 H9_3 1_555 1_555
H10_3 C7_3 1_555 1_555
H11_3 C7_3 1_555 1_555
C8_3 C9_3 1_555 1_555
C9_3 C7_3 1_555 1_555
H12_3 C9_3 1_555 1_555
N3_3 C9_3 1_555 1_555
C10_3 H13_3 1_555 1_555
H14_3 C10_3 1_555 1_555
H15_3 C10_3 1_555 1_555
C11_3 C12_3 1_555 1_555
C12_3 C10_3 1_555 1_555
H16_3 C12_3 1_555 1_555
N4_3 C12_3 1_555 1_555
C13_3 H17_3 1_555 1_555
H18_3 C13_3 1_555 1_555
H19_3 C13_3 1_555 1_555
O1_3 C19_3 1_555 1_555
C19_3 H31_3 1_555 1_555
N7_3 C19_3 1_555 1_555
C20_3 N7_3 1_555 1_555
H32_3 C20_3 1_555 1_555
H33_3 C20_3 1_555 1_555
H34_3 C20_3 1_555 1_555
C21_3 N7_3 1_555 1_555
H35_3 C21_3 1_555 1_555
H36_3 C21_3 1_555 1_555
H37_3 C21_3 1_555 1_555
C26_3 H48_3 1_555 1_555
H49_3 C26_3 1_555 1_555
H50_3 C26_3 1_555 1_555
C29_3 H57_3 1_555 1_555
H58_3 C29_3 1_555 1_555
H59_3 C29_3 1_555 1_555
C30_3 H60_3 1_555 1_555
H61_3 C30_3 1_555 1_555
H62_3 C30_3 1_555 1_555
C32_3 H66_3 1_555 1_555
H67_3 C32_3 1_555 1_555
H68_3 C32_3 1_555 1_555
C52_3 H89_3 1_555 1_555
C54_3 H90_3 1_555 1_555
H91_3 C54_3 1_555 1_555
H92_3 C54_3 1_555 1_555
C56_3 H94_3 1_555 1_555
H95_3 C56_3 1_555 1_555
H96_3 C56_3 1_555 1_555
O3_3 C57_3 1_555 1_555
C57_3 H97_3 1_555 1_555
N9_3 C57_3 1_555 1_555
C58_3 N9_3 1_555 1_555
H98_3 C58_3 1_555 1_555
H99_3 C58_3 1_555 1_555
H100_3 C58_3 1_555 1_555
C59_3 N9_3 1_555 1_555
H102_3 C59_3 1_555 1_555
H103_3 C59_3 1_555 1_555
C65_3 C67_3 1_555 1_555
C67_3 C69_3 1_555 1_555
C68_3 H112_3 1_555 1_555
C69_3 H113_3 1_555 1_555
C70_3 H114_3 1_555 1_555
H115_3 C70_3 1_555 1_555
H116_3 C70_3 1_555 1_555
C71_3 C69_3 1_555 1_555
H117_3 C71_3 1_555 1_555
C72_3 H118_3 1_555 1_555
H119_3 C72_3 1_555 1_555
H120_3 C72_3 1_555 1_555
C73_3 C71_3 1_555 1_555
C74_3 C73_3 1_555 1_555
C75_3 C76_3 1_555 1_555
C76_3 C78_3 1_555 1_555
C77_3 H121_3 1_555 1_555
C78_3 H122_3 1_555 1_555
C79_3 H123_3 1_555 1_555
H124_3 C79_3 1_555 1_555
H125_3 C79_3 1_555 1_555
C80_3 C78_3 1_555 1_555
H126_3 C80_3 1_555 1_555
C81_3 H127_3 1_555 1_555
H128_3 C81_3 1_555 1_555
H129_3 C81_3 1_555 1_555
C82_3 C80_3 1_555 1_555
C83_3 H130_3 1_555 1_555
C84_3 C82_3 1_555 1_555
C85_3 C73_3 1_555 1_555
C86_3 C67_3 1_555 1_555
C87_3 H131_3 1_555 1_555
C88_3 C30_3 1_555 1_555
H132_3 C88_3 1_555 1_555
C89_3 H133_3 1_555 1_555
H134_3 C89_3 1_555 1_555
H135_3 C89_3 1_555 1_555
C90_3 H136_3 1_555 1_555
H137_3 C90_3 1_555 1_555
H138_3 C90_3 1_555 1_555
C91_3 C88_3 1_555 1_555
C92_3 C29_3 1_555 1_555
H139_3 C92_3 1_555 1_555
C93_3 C92_3 1_555 1_555
C94_3 N2_3 1_555 1_555
C95_3 C94_3 1_555 1_555
C96_3 C95_3 1_555 1_555
H140_3 C96_3 1_555 1_555
C97_3 C96_3 1_555 1_555
H141_3 C97_3 1_555 1_555
C98_3 C97_3 1_555 1_555
C99_3 N1_3 1_555 1_555
C100_3 N1_3 1_555 1_555
C101_3 C100_3 1_555 1_555
C102_3 C101_3 1_555 1_555
H142_3 C102_3 1_555 1_555
C103_3 C102_3 1_555 1_555
H143_3 C103_3 1_555 1_555
C104_3 C103_3 1_555 1_555
C105_3 N2_3 1_555 1_555
C106_3 C98_3 1_555 1_555
C107_3 C95_3 1_555 1_555
C108_3 C109_3 1_555 1_555
C109_3 C110_3 1_555 1_555
C110_3 H144_3 1_555 1_555
C111_3 C110_3 1_555 1_555
H145_3 C111_3 1_555 1_555
C112_3 C111_3 1_555 1_555
C113_3 C112_3 1_555 1_555
C114_3 C115_3 1_555 1_555
C115_3 C116_3 1_555 1_555
C116_3 H146_3 1_555 1_555
C117_3 C116_3 1_555 1_555
H147_3 C117_3 1_555 1_555
C118_3 C117_3 1_555 1_555
C119_3 C118_3 1_555 1_555
C120_3 C112_3 1_555 1_555
C121_3 C109_3 1_555 1_555
C124_3 H149_3 1_555 1_555
C125_3 C124_3 1_555 1_555
H150_3 C125_3 1_555 1_555
H151_3 C125_3 1_555 1_555
H152_3 C125_3 1_555 1_555
C126_3 C124_3 1_555 1_555
C127_3 N3_3 1_555 1_555
C128_3 C127_3 1_555 1_555
C129_3 C128_3 1_555 1_555
H153_3 C129_3 1_555 1_555
C130_3 C129_3 1_555 1_555
H154_3 C130_3 1_555 1_555
C131_3 C130_3 1_555 1_555
C132_3 N4_3 1_555 1_555
C133_3 N4_3 1_555 1_555
C134_3 C133_3 1_555 1_555
C135_3 C134_3 1_555 1_555
H155_3 C135_3 1_555 1_555
C136_3 C135_3 1_555 1_555
H156_3 C136_3 1_555 1_555
C137_3 C136_3 1_555 1_555
C138_3 N3_3 1_555 1_555
C139_3 C131_3 1_555 1_555
C140_3 C128_3 1_555 1_555
C159_3 C160_3 1_555 1_555
C160_3 C161_3 1_555 1_555
C161_3 H163_3 1_555 1_555
C162_3 C161_3 1_555 1_555
H164_3 C162_3 1_555 1_555
C163_3 C162_3 1_555 1_555
C164_3 C163_3 1_555 1_555
C165_3 C166_3 1_555 1_555
C166_3 C167_3 1_555 1_555
C167_3 H165_3 1_555 1_555
C168_3 C167_3 1_555 1_555
H166_3 C168_3 1_555 1_555
C169_3 C168_3 1_555 1_555
C170_3 C169_3 1_555 1_555
C171_3 C163_3 1_555 1_555
C172_3 C160_3 1_555 1_555
C175_3 C32_3 1_555 1_555
H168_3 C175_3 1_555 1_555
C176_3 C175_3 1_555 1_555
Ca4_3 O3_3 1_555 1_555
Ca5_2 O24_3 1_555 1_555
Ca14_2 O1_3 1_555 1_555
Ca7_3 O20_3 1_555 1_555
N13_3 C65_3 1_555 1_555
N14_3 C74_3 1_555 1_555
N15_3 C52_3 1_555 1_555
N16_3 C108_3 1_555 1_555
N18_3 C113_3 1_555 1_555
N19_3 C68_3 1_555 1_555
N20_3 C77_3 1_555 1_555
N22_3 C13_3 1_555 1_555
N24_3 C87_3 1_555 1_555
N25_3 C159_3 1_555 1_555
N26_3 C164_3 1_555 1_555
O12_3 C52_3 1_555 1_555
O17_3 C68_3 1_555 1_555
O18_3 C65_3 1_555 1_555
O19_3 C74_3 1_555 1_555
O20_3 C77_3 1_555 1_555
O21_3 C75_3 1_555 1_555
O22_3 C83_3 1_555 1_555
O23_3 C84_3 1_555 1_555
O24_3 C87_3 1_555 1_555
O25_2 C91_3 1_555 1_555
O26_3 Ca5_2 1_555 1_555
C177_3 O26_3 1_555 1_555
H169_3 C177_3 1_555 1_555
O27_2 C91_3 1_555 1_555
O28_3 C93_3 1_555 1_555
O29_3 C93_3 1_555 1_555
O30_3 C94_3 1_555 1_555
O31_3 C99_3 1_555 1_555
O32_3 C100_3 1_555 1_555
O33_3 C105_3 1_555 1_555
O34_3 C2_3 1_555 1_555
O35_3 C2_3 1_555 1_555
O36_3 C5_3 1_555 1_555
O37_3 C5_3 1_555 1_555
O38_3 C108_3 1_555 1_555
O39_3 C113_3 1_555 1_555
O40_3 C114_3 1_555 1_555
O41_3 C119_3 1_555 1_555
O44_3 C126_3 1_555 1_555
O45_3 C126_3 1_555 1_555
O46_3 C127_3 1_555 1_555
O47_3 C132_3 1_555 1_555
O48_3 C133_3 1_555 1_555
O49_3 C138_3 1_555 1_555
O50_3 C8_3 1_555 1_555
O51_3 C8_3 1_555 1_555
O76_2 C11_3 1_555 1_555
O77_2 C11_3 1_555 1_555
O62_3 C159_3 1_555 1_555
O63_3 C164_3 1_555 1_555
O64_3 C165_3 1_555 1_555
O65_3 C170_3 1_555 1_555
O68_3 C176_3 1_555 1_555
O69_3 C176_3 1_555 1_555
Ca13_2 O25_2 1_555 1_555
O72_2 Ca5_2 1_555 1_555
O73_2 Ca5_2 1_555 1_555
C26_3 N22_3 1_555 1_555
C54_3 N15_3 1_555 1_555
C56_3 N15_3 1_555 1_555
C70_3 N19_3 1_555 1_555
C72_3 N19_3 1_555 1_555
C75_3 N14_3 1_555 1_555
C76_3 C85_3 1_555 1_555
C79_3 N20_3 1_555 1_555
C81_3 N20_3 1_555 1_555
C82_3 C86_3 1_555 1_555
C83_3 N22_3 1_555 1_555
C84_3 N13_3 1_555 1_555
C85_3 C86_3 1_555 1_555
C88_3 N13_3 1_555 1_555
C89_3 N24_3 1_555 1_555
C90_3 N24_3 1_555 1_555
C92_3 N14_3 1_555 1_555
C98_3 C99_3 1_555 1_555
C101_3 C106_3 1_555 1_555
C104_3 C105_3 1_555 1_555
C104_3 C107_3 1_555 1_555
C106_3 C107_3 1_555 1_555
C114_3 N18_3 1_555 1_555
C115_3 C120_3 1_555 1_555
C118_3 C121_3 1_555 1_555
C119_3 N16_3 1_555 1_555
C120_3 C121_3 1_555 1_555
C124_3 N16_3 1_555 1_555
C131_3 C132_3 1_555 1_555
C134_3 C139_3 1_555 1_555
C137_3 C138_3 1_555 1_555
C137_3 C140_3 1_555 1_555
C139_3 C140_3 1_555 1_555
C165_3 N26_3 1_555 1_555
C166_3 C171_3 1_555 1_555
C169_3 C172_3 1_555 1_555
C170_3 N25_3 1_555 1_555
C171_3 C172_3 1_555 1_555
C175_3 N26_3 1_555 1_555
Ca4_3 O12_3 1_555 1_555
Ca4_3 O28_3 1_555 1_555
Ca4_3 O29_3 1_555 1_555
Ca4_3 O34_3 1_555 1_555
Ca4_3 O35_3 1_555 1_555
Ca4_3 O44_3 1_555 1_555
Ca5_2 O29_3 1_555 1_555
Ca5_2 O44_3 1_555 1_555
Ca5_2 O45_3 1_555 1_555
Ca14_2 O17_3 1_555 1_555
Ca14_2 O36_3 1_555 1_555
Ca14_2 O68_3 1_555 1_555
Ca14_2 O69_3 1_555 1_555
Ca7_3 O22_3 1_555 1_555
Ca7_3 O36_3 1_555 1_555
Ca7_3 O37_3 1_555 1_555
Ca7_3 O50_3 1_555 1_555
Ca7_3 O51_3 1_555 1_555
Ca7_3 O69_3 1_555 1_555
O27_2 Ca13_2 1_555 1_555
H110_3 C66_3 1_555 1_555
H111_3 C66_3 1_555 1_555
H38_4 C22_4 1_555 1_555
H39_4 C22_4 1_555 1_555
H40_4 C22_4 1_555 1_555
O2_4 C23_4 1_555 1_555
C23_4 H41_4 1_555 1_555
N8_4 C23_4 1_555 1_555
C24_4 N8_4 1_555 1_555
H42_4 C24_4 1_555 1_555
H43_4 C24_4 1_555 1_555
H44_4 C24_4 1_555 1_555
C25_4 N8_4 1_555 1_555
H45_4 C25_4 1_555 1_555
H46_4 C25_4 1_555 1_555
H47_4 C25_4 1_555 1_555
C54_4 H90_4 1_555 1_555
H91_4 C54_4 1_555 1_555
H92_4 C54_4 1_555 1_555
C56_4 H94_4 1_555 1_555
H96_4 C56_4 1_555 1_555
C108_4 C109_4 1_555 1_555
C109_4 C110_4 1_555 1_555
C110_4 H144_4 1_555 1_555
C111_4 C110_4 1_555 1_555
C112_4 C111_4 1_555 1_555
C113_4 C112_4 1_555 1_555
C114_4 C115_4 1_555 1_555
C115_4 C116_4 1_555 1_555
C116_4 H146_4 1_555 1_555
C117_4 C116_4 1_555 1_555
H147_4 C117_4 1_555 1_555
C118_4 C117_4 1_555 1_555
C119_4 C118_4 1_555 1_555
C120_4 C112_4 1_555 1_555
C121_4 C109_4 1_555 1_555
H148_4 C122_4 1_555 1_555
C123_4 C122_4 1_555 1_555
C124_4 H149_4 1_555 1_555
C125_4 C124_4 1_555 1_555
H150_4 C125_4 1_555 1_555
H151_4 C125_4 1_555 1_555
H152_4 C125_4 1_555 1_555
Ca3_2 O2_4 1_555 1_555
N16_4 C108_4 1_555 1_555
N18_4 C113_4 1_555 1_555
O10_4 C16_4 1_555 1_555
O38_4 C108_4 1_555 1_555
O40_4 C114_4 1_555 1_555
O41_4 C119_4 1_555 1_555
O42_2 C123_4 1_555 1_555
O43_2 C123_4 1_555 1_555
Ca9_2 O42_2 1_555 1_555
O80_2 Ca3_2 1_555 1_555
O81_2 Ca3_2 1_555 1_555
C54_4 N15_4 1_555 1_555
C56_4 N15_4 1_555 1_555
C114_4 N18_4 1_555 1_555
C115_4 C120_4 1_555 1_555
C118_4 C121_4 1_555 1_555
C119_4 N16_4 1_555 1_555
C120_4 C121_4 1_555 1_555
C122_4 N18_4 1_555 1_555
C124_4 N16_4 1_555 1_555
Ca3_2 O10_4 1_555 1_555
Ca3_2 O16_4 1_555 1_555
Ca3_2 O42_2 1_555 1_555
O43_2 Ca9_2 1_555 1_555
Ca9_2 O81_2 1_555 1_555
C1_4 H1_4 1_555 1_555
H3_4 C1_4 1_555 1_555
C2_4 C3_4 1_555 1_555
C3_4 C1_4 1_555 1_555
H4_4 C3_4 1_555 1_555
N1_4 C3_4 1_555 1_555
C5_4 C6_4 1_555 1_555
H8_4 C6_4 1_555 1_555
N2_4 C6_4 1_555 1_555
N3_4 C9_4 1_555 1_555
C10_4 H13_4 1_555 1_555
H14_4 C10_4 1_555 1_555
H15_4 C10_4 1_555 1_555
C11_4 C12_4 1_555 1_555
C12_4 C10_4 1_555 1_555
H16_4 C12_4 1_555 1_555
N4_4 C12_4 1_555 1_555
C13_4 H17_4 1_555 1_555
H18_4 C13_4 1_555 1_555
H19_4 C13_4 1_555 1_555
C26_4 H48_4 1_555 1_555
H49_4 C26_4 1_555 1_555
H50_4 C26_4 1_555 1_555
H124_4 C79_4 1_555 1_555
H125_4 C79_4 1_555 1_555
C83_4 H130_4 1_555 1_555
C94_4 N2_4 1_555 1_555
C95_4 C94_4 1_555 1_555
C96_4 C95_4 1_555 1_555
H140_4 C96_4 1_555 1_555
C97_4 C96_4 1_555 1_555
H141_4 C97_4 1_555 1_555
C98_4 C97_4 1_555 1_555
C99_4 N1_4 1_555 1_555
C100_4 N1_4 1_555 1_555
C101_4 C100_4 1_555 1_555
C102_4 C101_4 1_555 1_555
H142_4 C102_4 1_555 1_555
C103_4 C102_4 1_555 1_555
H143_4 C103_4 1_555 1_555
C104_4 C103_4 1_555 1_555
C105_4 N2_4 1_555 1_555
C106_4 C98_4 1_555 1_555
C107_4 C95_4 1_555 1_555
C127_4 N3_4 1_555 1_555
C128_4 C127_4 1_555 1_555
C129_4 C128_4 1_555 1_555
H153_4 C129_4 1_555 1_555
C130_4 C129_4 1_555 1_555
H154_4 C130_4 1_555 1_555
C131_4 C130_4 1_555 1_555
C132_4 N4_4 1_555 1_555
C133_4 N4_4 1_555 1_555
C134_4 C133_4 1_555 1_555
C135_4 C134_4 1_555 1_555
H155_4 C135_4 1_555 1_555
C136_4 C135_4 1_555 1_555
H156_4 C136_4 1_555 1_555
C137_4 C136_4 1_555 1_555
C138_4 N3_4 1_555 1_555
C139_4 C131_4 1_555 1_555
C140_4 C128_4 1_555 1_555
N22_4 C13_4 1_555 1_555
O30_4 C94_4 1_555 1_555
O31_4 C99_4 1_555 1_555
O32_4 C100_4 1_555 1_555
O33_4 C105_4 1_555 1_555
O34_4 C2_4 1_555 1_555
O37_4 C5_4 1_555 1_555
O46_4 C127_4 1_555 1_555
O47_4 C132_4 1_555 1_555
O48_4 C133_4 1_555 1_555
O49_4 C138_4 1_555 1_555
O76 C11_4 1_555 1_555
O77 C11_4 1_555 1_555
C26_4 N22_4 1_555 1_555
C83_4 N22_4 1_555 1_555
C98_4 C99_4 1_555 1_555
C101_4 C106_4 1_555 1_555
C104_4 C105_4 1_555 1_555
C104_4 C107_4 1_555 1_555
C106_4 C107_4 1_555 1_555
C131_4 C132_4 1_555 1_555
C134_4 C139_4 1_555 1_555
C137_4 C138_4 1_555 1_555
C137_4 C140_4 1_555 1_555
C139_4 C140_4 1_555 1_555
H10_4 C7_4 1_555 1_555
H11_4 C7_4 1_555 1_555
N5_2 C14_2 1_555 1_555
C14_2 H20_4 1_555 1_555
C15_2 N5_2 1_555 1_555
H21_2 C15_2 1_555 1_555
H22_2 C15_2 1_555 1_555
H23_2 C15_2 1_555 1_555
C17_2 N5_2 1_555 1_555
H25_2 C17_2 1_555 1_555
H26_2 C17_2 1_555 1_555
H27_2 C17_2 1_555 1_555
O1_4 C19_4 1_555 1_555
C19_4 H31_4 1_555 1_555
N7_4 C19_4 1_555 1_555
C20_4 N7_4 1_555 1_555
H32_4 C20_4 1_555 1_555
H33_4 C20_4 1_555 1_555
H34_4 C20_4 1_555 1_555
C21_4 N7_4 1_555 1_555
H35_4 C21_4 1_555 1_555
H36_4 C21_4 1_555 1_555
H37_4 C21_4 1_555 1_555
H53_4 C27_4 1_555 1_555
C28_4 H54_4 1_555 1_555
H55_4 C28_4 1_555 1_555
H56_4 C28_4 1_555 1_555
C31_4 H63_4 1_555 1_555
H64_4 C31_4 1_555 1_555
H65_4 C31_4 1_555 1_555
C32_4 H66_4 1_555 1_555
H67_4 C32_4 1_555 1_555
H68_4 C32_4 1_555 1_555
C40_4 H80_4 1_555 1_555
C42_4 H81_4 1_555 1_555
H82_4 C42_4 1_555 1_555
H83_4 C42_4 1_555 1_555
C44_4 H84_4 1_555 1_555
H85_4 C44_4 1_555 1_555
H86_4 C44_4 1_555 1_555
C63_4 H105_4 1_555 1_555
C64_4 H106_4 1_555 1_555
H107_4 C64_4 1_555 1_555
H108_4 C64_4 1_555 1_555
C66_4 H109_4 1_555 1_555
H110_4 C66_4 1_555 1_555
H111_4 C66_4 1_555 1_555
C81_4 H127_4 1_555 1_555
H128_4 C81_4 1_555 1_555
H129_4 C81_4 1_555 1_555
C141_4 C142_4 1_555 1_555
C142_4 C143_4 1_555 1_555
C143_4 H157_4 1_555 1_555
C144_4 C143_4 1_555 1_555
H158_4 C144_4 1_555 1_555
C145_4 C144_4 1_555 1_555
C146_4 C145_4 1_555 1_555
C147_4 C148_4 1_555 1_555
C148_4 C149_4 1_555 1_555
C149_4 H159_4 1_555 1_555
C150_4 C149_4 1_555 1_555
H160_4 C150_4 1_555 1_555
C151_4 C150_4 1_555 1_555
C152_4 C151_4 1_555 1_555
C153_4 C145_4 1_555 1_555
C154_4 C142_4 1_555 1_555
C155_4 C27_4 1_555 1_555
H161_4 C155_4 1_555 1_555
C156_4 C155_4 1_555 1_555
C157_4 C28_4 1_555 1_555
H162_4 C157_4 1_555 1_555
C158_4 C157_4 1_555 1_555
C159_4 C160_4 1_555 1_555
C160_4 C161_4 1_555 1_555
C161_4 H163_4 1_555 1_555
C162_4 C161_4 1_555 1_555
H164_4 C162_4 1_555 1_555
C163_4 C162_4 1_555 1_555
C164_4 C163_4 1_555 1_555
C165_4 C166_4 1_555 1_555
C166_4 C167_4 1_555 1_555
C167_4 H165_4 1_555 1_555
C168_4 C167_4 1_555 1_555
H166_4 C168_4 1_555 1_555
C169_4 C168_4 1_555 1_555
C170_4 C169_4 1_555 1_555
C171_4 C163_4 1_555 1_555
C172_4 C160_4 1_555 1_555
C173_4 C31_4 1_555 1_555
H167_4 C173_4 1_555 1_555
C174_4 C173_4 1_555 1_555
C175_4 C32_4 1_555 1_555
H168_4 C175_4 1_555 1_555
C176_4 C175_4 1_555 1_555
Ca9_2 O15_4 1_555 1_555
Ca11 O5_4 1_555 1_555
Ca14 O1_4 1_555 1_555
Ca7_4 O20_4 1_555 1_555
N12_4 C40_4 1_555 1_555
N17_4 C63_4 1_555 1_555
N20_4 C77_4 1_555 1_555
N21_4 C141_4 1_555 1_555
N23_4 C146_4 1_555 1_555
N25_4 C159_4 1_555 1_555
N26_4 C164_4 1_555 1_555
O5_4 C14_2 1_555 1_555
O7_4 C40_4 1_555 1_555
O15_4 C63_4 1_555 1_555
O20_4 C77_4 1_555 1_555
O51_4 C8_4 1_555 1_555
O54_4 C141_4 1_555 1_555
O55_4 C146_4 1_555 1_555
O56_4 C147_4 1_555 1_555
O57_4 C152_4 1_555 1_555
O78_2 C156_4 1_555 1_555
O80_2 C158_4 1_555 1_555
O81_2 C158_4 1_555 1_555
O62_4 C159_4 1_555 1_555
O63_4 C164_4 1_555 1_555
O64_4 C165_4 1_555 1_555
O65_4 C170_4 1_555 1_555
O66_4 C174_4 1_555 1_555
O67_4 C174_4 1_555 1_555
O68_4 C176_4 1_555 1_555
O69_4 C176_4 1_555 1_555
C42_4 N12_4 1_555 1_555
C44_4 N12_4 1_555 1_555
C64_4 N17_4 1_555 1_555
C66_4 N17_4 1_555 1_555
C81_4 N20_4 1_555 1_555
C147_4 N23_4 1_555 1_555
C148_4 C153_4 1_555 1_555
C151_4 C154_4 1_555 1_555
C152_4 N21_4 1_555 1_555
C153_4 C154_4 1_555 1_555
C155_4 N21_4 1_555 1_555
C157_4 N23_4 1_555 1_555
C165_4 N26_4 1_555 1_555
C166_4 C171_4 1_555 1_555
C169_4 C172_4 1_555 1_555
C170_4 N25_4 1_555 1_555
C171_4 C172_4 1_555 1_555
C173_4 N25_4 1_555 1_555
C175_4 N26_4 1_555 1_555
Ca9_2 O67_4 1_555 1_555
Ca11 O7_4 1_555 1_555
Ca11 O66_4 1_555 1_555
Ca11 O67_4 1_555 1_555
Ca14 O17_4 1_555 1_555
Ca14 O36_4 1_555 1_555
Ca14 O68_4 1_555 1_555
Ca14 O69_4 1_555 1_555
Ca7_4 O22_4 1_555 1_555
Ca7_4 O36_4 1_555 1_555
Ca7_4 O51_4 1_555 1_555
Ca7_4 O69_4 1_555 1_555
C18_4 N6_4 1_555 1_555
H28_4 C18_4 1_555 1_555
H29_4 C18_4 1_555 1_555
H30_4 C18_4 1_555 1_555
H58_4 C29_4 1_555 1_555
C33_4 H69_4 1_555 1_555
H70_4 C33_4 1_555 1_555
H71_4 C33_4 1_555 1_555
C34_4 H72_4 1_555 1_555
H73_4 C34_4 1_555 1_555
H74_4 C34_4 1_555 1_555
C35_4 H75_4 1_555 1_555
H76_4 C35_4 1_555 1_555
H77_4 C35_4 1_555 1_555
C36_4 C37_4 1_555 1_555
C37_4 C38_4 1_555 1_555
C38_4 H78_4 1_555 1_555
C39_4 C38_4 1_555 1_555
H79_4 C39_4 1_555 1_555
C41_4 C39_4 1_555 1_555
C43_4 C41_4 1_555 1_555
C45_4 C46_4 1_555 1_555
C46_4 C47_4 1_555 1_555
C47_4 H87_4 1_555 1_555
C48_4 C47_4 1_555 1_555
H88_4 C48_4 1_555 1_555
C49_4 C48_4 1_555 1_555
C50_4 C49_4 1_555 1_555
C51_4 C41_4 1_555 1_555
C52_4 H89_4 1_555 1_555
C53_4 C37_4 1_555 1_555
C55_4 C33_4 1_555 1_555
H93_4 C55_4 1_555 1_555
C60_4 C55_4 1_555 1_555
C61_4 C34_4 1_555 1_555
H104_4 C61_4 1_555 1_555
C62_4 C61_4 1_555 1_555
C87_4 H131_4 1_555 1_555
C89_4 H133_4 1_555 1_555
H134_4 C89_4 1_555 1_555
H135_4 C89_4 1_555 1_555
C90_4 H136_4 1_555 1_555
H137_4 C90_4 1_555 1_555
H138_4 C90_4 1_555 1_555
Ca13_2 O24_4 1_555 1_555
N10_4 C36_4 1_555 1_555
N11_4 C43_4 1_555 1_555
N24_4 C87_4 1_555 1_555
O4_4 C36_4 1_555 1_555
O6_4 C43_4 1_555 1_555
O8_4 C45_4 1_555 1_555
O9_4 C50_4 1_555 1_555
O12_4 C52_4 1_555 1_555
O71 C60_4 1_555 1_555
O14_4 C62_4 1_555 1_555
O24_4 C87_4 1_555 1_555
O26_4 Ca13_2 1_555 1_555
C177_4 O26_4 1_555 1_555
H169_4 C177_4 1_555 1_555
N27_2 C177_4 1_555 1_555
C178_2 N27_2 1_555 1_555
H170_2 C178_2 1_555 1_555
H171_2 C178_2 1_555 1_555
H172_2 C178_2 1_555 1_555
C179_2 N27_2 1_555 1_555
H173_2 C179_2 1_555 1_555
H174_2 C179_2 1_555 1_555
H175_2 C179_2 1_555 1_555
O29_4 C93_4 1_555 1_555
O44_4 C126_4 1_555 1_555
O45_4 C126_4 1_555 1_555
C45_4 N11_4 1_555 1_555
C46_4 C51_4 1_555 1_555
C49_4 C53_4 1_555 1_555
C50_4 N10_4 1_555 1_555
C51_4 C53_4 1_555 1_555
C55_4 N11_4 1_555 1_555
C61_4 N10_4 1_555 1_555
C89_4 N24_4 1_555 1_555
C90_4 N24_4 1_555 1_555
Ca4_4 O12_4 1_555 1_555
Ca4_4 O29_4 1_555 1_555
Ca4_4 O44_4 1_555 1_555
Ca13_2 O29_4 1_555 1_555
Ca13_2 O44_4 1_555 1_555
Ca13_2 O45_4 1_555 1_555
C4_4 H5_4 1_555 1_555
H6_4 C4_4 1_555 1_555
H7_4 C4_4 1_555 1_555
C30_4 H60_4 1_555 1_555
H61_4 C30_4 1_555 1_555
H62_4 C30_4 1_555 1_555
O3_4 C57_4 1_555 1_555
C57_4 H97_4 1_555 1_555
N9_4 C57_4 1_555 1_555
C58_4 N9_4 1_555 1_555
H98_4 C58_4 1_555 1_555
H99_4 C58_4 1_555 1_555
H100_4 C58_4 1_555 1_555
C59_4 N9_4 1_555 1_555
H101_2 C59_4 1_555 1_555
H102_4 C59_4 1_555 1_555
H103_4 C59_4 1_555 1_555
C65_4 C67_4 1_555 1_555
C67_4 C69_4 1_555 1_555
C69_4 H113_4 1_555 1_555
C71_4 C69_4 1_555 1_555
H117_4 C71_4 1_555 1_555
C73_4 C71_4 1_555 1_555
C74_4 C73_4 1_555 1_555
C75_4 C76_4 1_555 1_555
C76_4 C78_4 1_555 1_555
C78_4 H122_4 1_555 1_555
C80_4 C78_4 1_555 1_555
H126_4 C80_4 1_555 1_555
C82_4 C80_4 1_555 1_555
C84_4 C82_4 1_555 1_555
C85_4 C73_4 1_555 1_555
C86_4 C67_4 1_555 1_555
C88_4 C30_4 1_555 1_555
H132_4 C88_4 1_555 1_555
C91_4 C88_4 1_555 1_555
N13_4 C65_4 1_555 1_555
N14_4 C74_4 1_555 1_555
O18_4 C65_4 1_555 1_555
O19_4 C74_4 1_555 1_555
O21_4 C75_4 1_555 1_555
O23_4 C84_4 1_555 1_555
O72_2 C91_4 1_555 1_555
O73_2 C91_4 1_555 1_555
C75_4 N14_4 1_555 1_555
C76_4 C85_4 1_555 1_555
C82_4 C86_4 1_555 1_555
C84_4 N13_4 1_555 1_555
C85_4 C86_4 1_555 1_555
C88_4 N13_4 1_555 1_555
C92_4 N14_4 1_555 1_555
C68_4 H112_4 1_555 1_555
C70_4 H114_4 1_555 1_555
H115_4 C70_4 1_555 1_555
H116_4 C70_4 1_555 1_555
C72_4 H118_4 1_555 1_555
H119_4 C72_4 1_555 1_555
H120_4 C72_4 1_555 1_555
N19_4 C68_4 1_555 1_555
C70_4 N19_4 1_555 1_555
C72_4 N19_4 1_555 1_555
N5_3 C14_3 1_555 1_555
C15_3 N5_3 1_555 1_555
H21_3 C15_3 1_555 1_555
H22_3 C15_3 1_555 1_555
H23_3 C15_3 1_555 1_555
C17_3 N5_3 1_555 1_555
H25_3 C17_3 1_555 1_555
H26_3 C17_3 1_555 1_555
H27_3 C17_3 1_555 1_555
C178_3 N27_3 1_555 1_555
H170_3 C178_3 1_555 1_555
H171_3 C178_3 1_555 1_555
H172_3 C178_3 1_555 1_555
C179_3 N27_3 1_555 1_555
H173_3 C179_3 1_555 1_555
H174_3 C179_3 1_555 1_555
H175_3 C179_3 1_555 1_555
C178_4 N27_4 1_555 1_555
H170_4 C178_4 1_555 1_555
H171_4 C178_4 1_555 1_555
H172_4 C178_4 1_555 1_555
C179_4 N27_4 1_555 1_555
H173_4 C179_4 1_555 1_555
H174_4 C179_4 1_555 1_555
H175_4 C179_4 1_555 1_555
N5_4 C14_4 1_555 1_555
C15_4 N5_4 1_555 1_555
H21_4 C15_4 1_555 1_555
H22_4 C15_4 1_555 1_555
H23_4 C15_4 1_555 1_555
C17_4 N5_4 1_555 1_555
H25_4 C17_4 1_555 1_555
H26_4 C17_4 1_555 1_555
H27_4 C17_4 1_555 1_555

#END
