
###############################################################################
#
# This file contains modified crystal structure data generated from the
# MOF subset of the Cambridge Structural Database (CSD) v543 
# hosted by the Cambridge Crystallographic Data Centre (CCDC).
#
# This work is licensed under the Creative Commons
# Attribution-NonCommercial-ShareAlike 4.0 International License.
# To view a copy of this license, visit
# http://creativecommons.org/licenses/by-nc-sa/4.0/
# or send a letter to
# Creative Commons, PO Box 1866, Mountain View, CA 94042, USA.
#
# CIF created using the CSD Python API on 29 September 2022
# The structure has been converted into the P1 space group
# The structure has a 3D framework
# The original CSD entry EVOHOM is in the monoclinic crystal system
# The framework has been calculated to contain at least 10.0% void space
# The void calculation uses a probe of radius 1.32A, grid spacing 0.4
# H atom positions have been added when not included in the experimental data
# Generated hydrogen atom positions removed from atoms on special positions
#
###############################################################################

data_EVOHOM
_chemical_formula_moiety         '(C32 H48 Ba11 O73 Zr6)n'
_symmetry_cell_setting           triclinic
_symmetry_space_group_name_H-M   'P 1'
_symmetry_Int_Tables_number      1
_space_group_name_Hall           'P 1'
loop_
_symmetry_equiv_pos_site_id
_symmetry_equiv_pos_as_xyz
1 x,y,z
_cell_length_a                   9.2010(12)
_cell_length_b                   29.032(5)
_cell_length_c                   9.2079(17)
_cell_angle_alpha                90
_cell_angle_beta                 115.45(3)
_cell_angle_gamma                90
_cell_volume                     2220.96
loop_
_atom_site_label
_atom_site_type_symbol
_atom_site_fract_x
_atom_site_fract_y
_atom_site_fract_z
O18 O 0.1188(10) 0.7157(3) 0.1711(9)
C8 C 0.0133(13) 0.6876(4) 0.0952(13)
Ba6 Ba 0.2500 0.77090(3) 0.0000
Ba7 Ba 0.2500 0.72910(3) 0.5000
O19 O 0.0490(14) 0.6961(4) 0.8547(11)
Ba6_2 Ba 0.2500 0.77090(3) 1.0000
Zr1 Zr 0.7500 0.61548(4) 0.0000
O5 O 0.6468(8) 0.6503(2) 0.1474(8)
O8 O 0.4510(14) 0.6961(4) 0.1453(11)
C3 C 0.5273(13) 0.6773(4) 0.0819(13)
O17 O 0.9303(9) 0.6645(3) 0.1506(8)
O24 O 0.3812(10) 0.7843(3) 0.3289(9)
O28 O 0.8216(8) 0.5766(2) 0.2216(8)
O29 O 0.9692(8) 0.5753(3) 0.0431(8)
Ba1 Ba 0.2500 0.47133(3) 0.5000
Zr1_2 Zr 0.7500 0.61548(4) 1.0000
O1 O 0.3250(8) 0.5349(3) 0.7752(9)
O2 O 0.4825(9) 0.5407(3) 0.5776(8)
O3 O 0.6784(8) 0.5766(2) 0.7784(8)
O4 O 0.5308(8) 0.5753(3) 0.9569(8)
O6 O 0.5697(9) 0.6645(3) 0.8494(8)
O7 O 0.3812(10) 0.7157(3) 0.8289(9)
O10 O 0.2500 0.3756(5) 0.5000
C1 C 0.4527(12) 0.5545(3) 0.8221(12)
C2 C 0.5432(12) 0.5568(3) 0.7134(12)
C4 C 0.4867(13) 0.6876(4) 0.9048(13)
O11 O 0.1750(8) 0.5349(3) 0.2248(9)
O12 O 0.0175(9) 0.5407(3) 0.4224(8)
C5 C 0.0473(12) 0.5545(3) 0.1779(12)
O15 O 0.5259(10) 0.4438(4) 0.7667(10)
O16 O 0.8532(8) 0.6503(2) 0.8526(8)
C7 C 0.9727(13) 0.6773(4) 0.9181(13)
O21 O 0.5175(9) 0.4593(3) 0.4224(8)
O22 O 0.1784(8) 0.4234(2) 0.7784(8)
O23 O 0.3216(8) 0.4234(2) 0.2216(8)
O25 O 0.1188(10) 0.7843(3) 0.6711(9)
Ba3 Ba 0.7500 0.52867(3) 0.5000
H4 H 0.00366937 0.421205 0.169559
O9 O 0.9741(10) 0.4438(4) 0.2333(10)
C6 C 0.9568(12) 0.5568(3) 0.2866(12)
O20 O 0.9825(9) 0.4593(3) 0.5776(8)
H3 H 0.922584 0.471062 0.16556
Ba7_2 Ba 0.7500 0.22910(3) 0.0000
Zr1_3 Zr 0.2500 0.11548(4) 0.5000
O3_2 O 0.1784(8) 0.0766(2) 0.2784(8)
O4_2 O 0.0308(8) 0.0753(3) 0.4569(8)
O5_2 O 0.1468(8) 0.1503(2) 0.6474(8)
O6_2 O 0.0697(9) 0.1645(3) 0.3494(8)
C2_2 C 0.0432(12) 0.0568(3) 0.2134(12)
C3_2 C 0.0273(13) 0.1773(4) 0.5819(13)
O16_2 O 0.3532(8) 0.1503(2) 0.3526(8)
O17_2 O 0.4303(9) 0.1645(3) 0.6506(8)
O18_2 O 0.6188(10) 0.2157(3) 0.6711(9)
O19_2 O 0.5490(14) 0.1961(4) 0.3547(11)
C7_2 C 0.4727(13) 0.1773(4) 0.4181(13)
C8_2 C 0.5133(13) 0.1876(4) 0.5952(13)
O28_2 O 0.3216(8) 0.0766(2) 0.7216(8)
O29_2 O 0.4692(8) 0.0753(3) 0.5431(8)
Ba3_2 Ba 0.2500 0.02867(3) 0.0000
Ba6_3 Ba 0.7500 0.27090(3) 0.5000
Ba7_3 Ba 0.7500 0.22910(3) 1.0000
Ba3_3 Ba 0.2500 0.02867(3) 1.0000
O21_2 O 0.0175(9) 0.9593(3) 0.9224(8)
O1_2 O 0.8250(8) 0.0349(3) 0.2752(9)
O2_2 O 0.9825(9) 0.0407(3) 0.0776(8)
O7_2 O 0.8812(10) 0.2157(3) 0.3289(9)
O8_2 O 0.9510(14) 0.1961(4) 0.6453(11)
C1_2 C 0.9527(12) 0.0545(3) 0.3221(12)
C4_2 C 0.9867(13) 0.1876(4) 0.4048(13)
O24_2 O 0.8812(10) 0.2843(3) 0.8289(9)
O25_2 O 0.6188(10) 0.2843(3) 0.1711(9)
O11_2 O 0.6750(8) 0.0349(3) 0.7248(9)
O12_2 O 0.5175(9) 0.0407(3) 0.9224(8)
C5_2 C 0.5473(12) 0.0545(3) 0.6779(12)
C6_2 C 0.4568(12) 0.0568(3) 0.7866(12)
Ba1_2 Ba 0.7500 0.97133(3) 0.0000
O10_2 O 0.7500 0.8756(5) 0.0000
O20_2 O 0.4825(9) 0.9593(3) 0.0776(8)
O22_2 O 0.6784(8) 0.9234(2) 0.2784(8)
H1 H 0.671104 0.864199 0.0387185
H5 H 0.998651 0.937579 0.358153
Ba1_3 Ba 0.7500 0.97133(3) 1.0000
O9_2 O 0.4741(10) 0.9438(4) 0.7333(10)
O10_3 O 0.7500 0.8756(5) 1.0000
O23_2 O 0.8216(8) 0.9234(2) 0.7216(8)
H2 H 0.719769 0.864199 0.889071
H5_2 H 0.00134896 0.437579 0.141847
H6 H 0.930476 0.415372 0.259811
H2_2 H 0.780231 0.864199 0.110929
H4_2 H 0.996331 0.921205 0.330441
H1_2 H 0.828896 0.864199 0.961281
Zr2 Zr 0.2500 0.38452(4) 0.0000
O9_3 O 0.0259(10) 0.5562(4) 0.7667(10)
O14 O 0.0308(8) 0.4247(3) 0.9569(8)
C6_3 C 0.0432(12) 0.4432(3) 0.7134(12)
Zr2_2 Zr 0.2500 0.38452(4) 1.0000
H3_2 H 0.077416 0.528938 0.83444
O1_3 O 0.6750(8) 0.4651(3) 0.2248(9)
O4_3 O 0.4692(8) 0.4247(3) 0.0431(8)
O6_3 O 0.4303(9) 0.3355(3) 0.1506(8)
O10_4 O 0.7500 0.6244(5) 0.5000
C1_3 C 0.5473(12) 0.4455(3) 0.1779(12)
C2_3 C 0.4568(12) 0.4432(3) 0.2866(12)
C4_3 C 0.5133(13) 0.3124(4) 0.0952(13)
O11_3 O 0.8250(8) 0.4651(3) 0.7752(9)
C5_3 C 0.9527(12) 0.4455(3) 0.8221(12)
O15_2 O 0.4741(10) 0.5562(4) 0.2333(10)
O16_3 O 0.1468(8) 0.3497(2) 0.1474(8)
C7_3 C 0.0273(13) 0.3227(4) 0.0819(13)
O27 O 0.9510(14) 0.3039(4) 0.1453(11)
H4_3 H 0.996331 0.578795 0.830441
O5_3 O 0.3532(8) 0.3497(2) 0.8526(8)
O8_3 O 0.5490(14) 0.3039(4) 0.8547(11)
C3_3 C 0.4727(13) 0.3227(4) 0.9181(13)
O17_3 O 0.0697(9) 0.3355(3) 0.8494(8)
C8_3 C 0.9867(13) 0.3124(4) 0.9048(13)
O9_4 O 0.5259(10) 0.0562(4) 0.2667(10)
O10_5 O 0.2500 0.1244(5) 0.0000
H2_3 H 0.280231 0.135801 0.110929
O10_6 O 0.2500 0.1244(5) 1.0000
H1_3 H 0.328896 0.135801 0.961281
H5_3 H 0.00134896 0.0624211 0.641847
O11_4 O 0.3250(8) 0.9651(3) 0.2752(9)
O14_2 O 0.5308(8) 0.9247(3) 0.4569(8)
C5_4 C 0.4527(12) 0.9455(3) 0.3221(12)
C6_4 C 0.5432(12) 0.9432(3) 0.2134(12)
Zr2_3 Zr 0.7500 0.88452(4) 0.5000
O1_4 O 0.1750(8) 0.9651(3) 0.7248(9)
O8_4 O 0.0490(14) 0.8039(4) 0.3547(11)
C1_4 C 0.0473(12) 0.9455(3) 0.6779(12)
C4_4 C 0.0133(13) 0.8124(4) 0.5952(13)
O27_2 O 0.4510(14) 0.8039(4) 0.6453(11)
O4_4 O 0.9692(8) 0.9247(3) 0.5431(8)
O5_4 O 0.8532(8) 0.8497(2) 0.3526(8)
O6_4 O 0.9303(9) 0.8355(3) 0.6506(8)
C2_4 C 0.9568(12) 0.9432(3) 0.7866(12)
C3_4 C 0.9727(13) 0.8227(4) 0.4181(13)
O16_4 O 0.6468(8) 0.8497(2) 0.6474(8)
O17_4 O 0.5697(9) 0.8355(3) 0.3494(8)
C7_4 C 0.5273(13) 0.8227(4) 0.5819(13)
C8_4 C 0.4867(13) 0.8124(4) 0.4048(13)
H6_2 H 0.0695241 0.584628 0.740189
H5_4 H 0.998651 0.562421 0.858153
H1_4 H 0.171104 0.135801 0.0387185
H2_4 H 0.219769 0.135801 0.889071
H4_4 H 0.00366937 0.0787952 0.669559
O15_3 O 0.0259(10) 0.9438(4) 0.2667(10)
H6_3 H 0.0695241 0.915372 0.240189
H3_3 H 0.077416 0.971062 0.33444
O15_4 O 0.9741(10) 0.0562(4) 0.7333(10)
H6_4 H 0.930476 0.0846277 0.759811
H3_4 H 0.922584 0.0289382 0.66556
loop_
_geom_bond_atom_site_label_1
_geom_bond_atom_site_label_2
_geom_bond_site_symmetry_1
_geom_bond_site_symmetry_2
O18 C8 1_555 1_555
Ba6 O18 1_555 1_555
Ba7 O18 1_555 1_555
O19 Ba6_2 1_555 1_555
O5 Zr1 1_555 1_555
O8 Ba6 1_555 1_555
C3 O5 1_555 1_555
O17 Zr1 1_555 1_555
O24 Ba6 1_555 1_555
O28 Zr1 1_555 1_555
O29 Zr1 1_555 1_555
O8 C3 1_555 1_555
Ba1 O1 1_555 1_555
Ba6_2 O7 1_555 1_555
Zr1_2 O3 1_555 1_555
O1 C1 1_555 1_555
O2 Ba1 1_555 1_555
O3 C2 1_555 1_555
O4 Zr1_2 1_555 1_555
O6 Zr1_2 1_555 1_555
O7 C4 1_555 1_555
O10 Ba1 1_555 1_555
C1 O4 1_555 1_555
C2 O2 1_555 1_555
C4 O6 1_555 1_555
O11 Ba1 1_555 1_555
O12 Ba1 1_555 1_555
C5 O11 1_555 1_555
O15 Ba1 1_555 1_555
O16 Zr1_2 1_555 1_555
C7 O16 1_555 1_555
O21 Ba1 1_555 1_555
O22 Ba1 1_555 1_555
O23 Ba1 1_555 1_555
O25 Ba6_2 1_555 1_555
Ba3 O2 1_555 1_555
Ba7 O7 1_555 1_555
O3 Ba3 1_555 1_555
C1 C2 1_555 1_555
O21 Ba3 1_555 1_555
O25 Ba7 1_555 1_555
O28 C6 1_555 1_555
O28 Ba3 1_555 1_555
O20 Ba3 1_555 1_555
O9 H3 1_555 1_555
Zr1_3 O3_2 1_555 1_555
O3_2 C2_2 1_555 1_555
O4_2 Zr1_3 1_555 1_555
O5_2 Zr1_3 1_555 1_555
O6_2 Zr1_3 1_555 1_555
C3_2 O5_2 1_555 1_555
O16_2 Zr1_3 1_555 1_555
O17_2 Zr1_3 1_555 1_555
O18_2 C8_2 1_555 1_555
O19_2 C7_2 1_555 1_555
C7_2 O16_2 1_555 1_555
C8_2 O17_2 1_555 1_555
O28_2 Zr1_3 1_555 1_555
O29_2 Zr1_3 1_555 1_555
Ba6_3 O18_2 1_555 1_555
Ba7_3 O18_2 1_555 1_555
O3_2 Ba3_2 1_555 1_555
O19_2 Ba6_3 1_555 1_555
C7_2 C8_2 1_555 1_555
Ba6_3 O7_2 1_555 1_555
O1_2 C1_2 1_555 1_555
O7_2 C4_2 1_555 1_555
O8_2 Ba6_3 1_555 1_555
O24_2 Ba6_3 1_555 1_555
O25_2 Ba6_3 1_555 1_555
Ba7_2 O7_2 1_555 1_555
O25_2 Ba7_2 1_555 1_555
O28_2 C6_2 1_555 1_555
O29_2 C5_2 1_555 1_555
C5_2 O11_2 1_555 1_555
C6_2 O12_2 1_555 1_555
Ba3_3 O12_2 1_555 1_555
O28_2 Ba3_3 1_555 1_555
C5_2 C6_2 1_555 1_555
O10_2 Ba1_2 1_555 1_555
O20_2 Ba1_2 1_555 1_555
O22_2 Ba1_2 1_555 1_555
O10_2 H1 1_555 1_555
O9_2 Ba1_3 1_555 1_555
O10_3 Ba1_3 1_555 1_555
O23_2 Ba1_3 1_555 1_555
O10_3 H2 1_555 1_555
O24 Ba7 1_555 1_555
O9 H6 1_555 1_555
O24_2 Ba7_3 1_555 1_555
O10_2 H2_2 1_555 1_555
O10_3 H1_2 1_555 1_555
O22 C6_3 1_555 1_555
Zr2_2 O22 1_555 1_555
O14 Zr2_2 1_555 1_555
O9_3 H3_2 1_555 1_555
Ba3 O1_3 1_555 1_555
Zr2 O23 1_555 1_555
O1_3 C1_3 1_555 1_555
O23 C2_3 1_555 1_555
O4_3 Zr2 1_555 1_555
O6_3 Zr2 1_555 1_555
O25_2 C4_3 1_555 1_555
O10_4 Ba3 1_555 1_555
C1_3 O4_3 1_555 1_555
C2_3 O21 1_555 1_555
C4_3 O6_3 1_555 1_555
O11_3 Ba3 1_555 1_555
C5_3 O11_3 1_555 1_555
O15_2 Ba3 1_555 1_555
O16_3 Zr2 1_555 1_555
C7_3 O16_3 1_555 1_555
O27 Ba7_2 1_555 1_555
C1_3 C2_3 1_555 1_555
O5_3 Zr2_2 1_555 1_555
O8_3 Ba7_3 1_555 1_555
C3_3 O5_3 1_555 1_555
O17_3 Zr2_2 1_555 1_555
O8_3 C3_3 1_555 1_555
O24_2 C8_3 1_555 1_555
O9_4 Ba3_2 1_555 1_555
O10_5 Ba3_2 1_555 1_555
O10_5 H2_3 1_555 1_555
O10_6 Ba3_3 1_555 1_555
O10_6 H1_3 1_555 1_555
O22_2 C6_4 1_555 1_555
O14_2 C5_4 1_555 1_555
C5_4 O11_4 1_555 1_555
C6_4 O20_2 1_555 1_555
Zr2_3 O22_2 1_555 1_555
O14_2 Zr2_3 1_555 1_555
C5_4 C6_4 1_555 1_555
O1_4 C1_4 1_555 1_555
O25 C4_4 1_555 1_555
O8_4 Ba7 1_555 1_555
O27_2 Ba7 1_555 1_555
Zr2_3 O23_2 1_555 1_555
O23_2 C2_4 1_555 1_555
O4_4 Zr2_3 1_555 1_555
O5_4 Zr2_3 1_555 1_555
O6_4 Zr2_3 1_555 1_555
C3_4 O5_4 1_555 1_555
O16_4 Zr2_3 1_555 1_555
O17_4 Zr2_3 1_555 1_555
O24 C8_4 1_555 1_555
O27_2 C7_4 1_555 1_555
C7_4 O16_4 1_555 1_555
C8_4 O17_4 1_555 1_555
C7_4 C8_4 1_555 1_555
O9_3 H6_2 1_555 1_555
O10_5 H1_4 1_555 1_555
O10_6 H2_4 1_555 1_555
O15_3 H6_3 1_555 1_555
O15_3 H3_3 1_555 1_555
O15_4 H6_4 1_555 1_555
O15_4 H3_4 1_555 1_555

#END
