
###############################################################################
#
# This file contains modified crystal structure data generated from the
# MOF subset of the Cambridge Structural Database (CSD) v543 
# hosted by the Cambridge Crystallographic Data Centre (CCDC).
#
# This work is licensed under the Creative Commons
# Attribution-NonCommercial-ShareAlike 4.0 International License.
# To view a copy of this license, visit
# http://creativecommons.org/licenses/by-nc-sa/4.0/
# or send a letter to
# Creative Commons, PO Box 1866, Mountain View, CA 94042, USA.
#
# CIF created using the CSD Python API on 29 September 2022
# The structure has been converted into the P1 space group
# The structure has a 3D framework
# The original CSD entry EVOMOR01 is in the monoclinic crystal system
# The framework has been calculated to contain at least 10.0% void space
# The void calculation uses a probe of radius 1.32A, grid spacing 0.4
#
###############################################################################

data_EVOMOR01
_chemical_formula_moiety         '(C56 H56 Mn4 N8 O19)n'
_symmetry_cell_setting           triclinic
_symmetry_space_group_name_H-M   'P 1'
_symmetry_Int_Tables_number      1
_space_group_name_Hall           'P 1'
loop_
_symmetry_equiv_pos_site_id
_symmetry_equiv_pos_as_xyz
1 x,y,z
_cell_length_a                   11.686(2)
_cell_length_b                   17.847(2)
_cell_length_c                   8.8520(10)
_cell_angle_alpha                90
_cell_angle_beta                 99.670(10)
_cell_angle_gamma                90
_cell_volume                     1819.94
loop_
_atom_site_label
_atom_site_type_symbol
_atom_site_fract_x
_atom_site_fract_y
_atom_site_fract_z
H2 H 0.0073 0.7629 0.0163
C3 C 0.0543(3) 0.82784(19) 0.2004(4)
C4 C 0.0049(3) 0.8666(3) 0.3077(5)
H3 H 0.0516 0.8938 0.3839
C6 C 0.3523(3) 0.7849(2) 0.1134(4)
H5 H 0.3848 0.7531 0.0490
C7 C 0.2342(3) 0.7826(2) 0.1086(5)
H6 H 0.1892 0.7498 0.0417
C8 C 0.1819(3) 0.82885(19) 0.2029(4)
C9 C 0.2554(3) 0.8759(2) 0.2985(5)
H7 H 0.2253 0.9083 0.3642
C10 C 0.3735(3) 0.8749(2) 0.2965(4)
H8 H 0.4211 0.9069 0.3621
N2 N 0.4222(2) 0.83013(16) 0.2052(3)
Mn3 Mn 0.61873(4) 0.82985(3) 0.20588(6)
C11 C 0.6173(3) 0.00293(19) 0.2788(5)
C12 C 0.5761(3) 0.0793(2) 0.2141(5)
H9 H 0.6138 0.1183 0.2810
H10 H 0.5986 0.0856 0.1143
C13 C 0.4460(3) 0.08772(17) 0.1989(4)
H11 H 0.4081 0.0561 0.1162
H12 H 0.4212 0.0716 0.2929
C14 C 0.4110(3) 0.16833(18) 0.1664(4)
O3 O 0.3879(2) 0.20769(12) 0.2743(3)
O4 O 0.4120(2) 0.19366(13) 0.0346(3)
Mn4 Mn 0.38127(4) 0.32985(3) 0.29412(6)
Mn5 Mn 0.38127(4) 0.17015(3) 0.79412(6)
N1 N 0.8141(2) 0.82763(16) 0.1983(4)
C1 C 0.8616(3) 0.7908(3) 0.0945(6)
H1 H 0.8130 0.7643 0.0191
C2 C 0.9789(3) 0.7897(3) 0.0921(6)
C5 C 0.8867(3) 0.8650(3) 0.3023(5)
H4 H 0.8559 0.8918 0.3762
O1 O 0.6142(2) 0.95044(13) 0.1838(3)
O2 O 0.6491(3) 0.99745(15) 0.4183(3)
O5 O 0.6586(2) 0.85262(16) 0.4501(3)
H13 H 0.628(3) 0.8305(17) 0.520(4)
H14 H 0.647(3) 0.896(2) 0.452(5)
O6 O 0.3858(2) 0.45044(13) 0.3162(3)
O7 O 0.3509(3) 0.49745(15) 0.0817(3)
C25 C 0.3827(3) 0.50293(19) 0.2212(5)
C26 C 0.4239(3) 0.5793(2) 0.2859(5)
H23 H 0.3862 0.6183 0.2190
H24 H 0.4014 0.5856 0.3857
C27 C 0.5540(3) 0.58772(17) 0.3011(4)
H25 H 0.5919 0.5561 0.3838
H26 H 0.5788 0.5716 0.2071
C28 C 0.5890(3) 0.66833(18) 0.3336(4)
O8 O 0.6121(2) 0.70769(12) 0.2257(3)
O9 O 0.5880(2) 0.69366(13) 0.4654(3)
Mn7 Mn 0.61873(4) 0.67015(3) 0.70588(6)
O11 O 0.5880(2) 0.80634(13) 0.9654(3)
H2_2 H 0.0073 0.7371 0.5163
C3_2 C 0.0543(3) 0.67216(19) 0.7004(4)
C4_2 C 0.0049(3) 0.6334(3) 0.8077(5)
H3_2 H 0.0516 0.6062 0.8839
C6_2 C 0.3523(3) 0.7151(2) 0.6134(4)
H5_2 H 0.3848 0.7469 0.5490
C7_2 C 0.2342(3) 0.7174(2) 0.6086(5)
H6_2 H 0.1892 0.7502 0.5417
C8_2 C 0.1819(3) 0.67115(19) 0.7029(4)
C9_2 C 0.2554(3) 0.6241(2) 0.7985(5)
H7_2 H 0.2253 0.5917 0.8642
C10_2 C 0.3735(3) 0.6251(2) 0.7965(4)
H8_2 H 0.4211 0.5931 0.8621
N2_2 N 0.4222(2) 0.66987(16) 0.7052(3)
O6_2 O 0.3858(2) 0.04956(13) 0.8162(3)
O7_2 O 0.3509(3) 0.00255(15) 0.5817(3)
H13_2 H 0.628(3) 0.6695(17) 0.020(4)
N1_2 N 0.8141(2) 0.67237(16) 0.6983(4)
C1_2 C 0.8616(3) 0.7092(3) 0.5945(6)
H1_2 H 0.8130 0.7357 0.5191
C2_2 C 0.9789(3) 0.7103(3) 0.5921(6)
C5_2 C 0.8867(3) 0.6350(3) 0.8023(5)
H4_2 H 0.8559 0.6082 0.8762
O1_2 O 0.6142(2) 0.54956(13) 0.6838(3)
O2_2 O 0.6491(3) 0.50255(15) 0.9183(3)
C11_2 C 0.6173(3) 0.49707(19) 0.7788(5)
C12_2 C 0.5761(3) 0.4207(2) 0.7141(5)
H9_2 H 0.6138 0.3817 0.7810
H10_2 H 0.5986 0.4144 0.6143
C13_2 C 0.4460(3) 0.41228(17) 0.6989(4)
H11_2 H 0.4081 0.4439 0.6162
H12_2 H 0.4212 0.4284 0.7929
C14_2 C 0.4110(3) 0.33167(18) 0.6664(4)
O3_2 O 0.3879(2) 0.29231(12) 0.7743(3)
O4_2 O 0.4120(2) 0.30634(13) 0.5346(3)
O5_2 O 0.6586(2) 0.64738(16) 0.9501(3)
H14_2 H 0.647(3) 0.604(2) 0.952(5)
C25_2 C 0.3827(3) 0.99707(19) 0.7212(5)
C26_2 C 0.4239(3) 0.9207(2) 0.7859(5)
H23_2 H 0.3862 0.8817 0.7190
H24_2 H 0.4014 0.9144 0.8857
C27_2 C 0.5540(3) 0.91228(17) 0.8011(4)
H25_2 H 0.5919 0.9439 0.8838
H26_2 H 0.5788 0.9284 0.7071
C28_2 C 0.5890(3) 0.83167(18) 0.8336(4)
O8_2 O 0.6121(2) 0.79231(12) 0.7257(3)
N3 N 0.1859(2) 0.17237(16) 0.8017(4)
C15 C 0.1384(3) 0.2092(3) 0.9055(6)
H15 H 0.1870 0.2357 0.9809
C16 C 0.0211(3) 0.2103(3) 0.9079(6)
C19 C 0.1133(3) 0.1350(3) 0.6977(5)
H18 H 0.1441 0.1082 0.6238
O10 O 0.3414(2) 0.14738(16) 0.5499(3)
H27 H 0.372(3) 0.1695(17) 0.480(4)
H28 H 0.353(3) 0.104(2) 0.548(5)
N5 N 0.5778(2) 0.16987(16) 0.7948(3)
H16 H 0.9927 0.2371 0.9837
C17 C 0.9457(3) 0.17216(19) 0.7996(4)
C18 C 0.9951(3) 0.1334(3) 0.6923(5)
H17 H 0.9484 0.1062 0.6161
C20 C 0.6477(3) 0.2151(2) 0.8866(4)
H19 H 0.6152 0.2469 0.9510
C21 C 0.7658(3) 0.2174(2) 0.8914(5)
H20 H 0.8108 0.2502 0.9583
C22 C 0.8181(3) 0.17115(19) 0.7971(4)
C23 C 0.7446(3) 0.1241(2) 0.7015(5)
H21 H 0.7747 0.0917 0.6358
C24 C 0.6265(3) 0.1251(2) 0.7035(4)
H22 H 0.5789 0.0931 0.6379
N3_2 N 0.1859(2) 0.32763(16) 0.3017(4)
C15_2 C 0.1384(3) 0.2908(3) 0.4055(6)
H15_2 H 0.1870 0.2643 0.4809
C16_2 C 0.0211(3) 0.2897(3) 0.4079(6)
C19_2 C 0.1133(3) 0.3650(3) 0.1977(5)
H18_2 H 0.1441 0.3918 0.1238
O10_2 O 0.3414(2) 0.35262(16) 0.0499(3)
H28_2 H 0.353(3) 0.396(2) 0.048(5)
N5_2 N 0.5778(2) 0.33013(16) 0.2948(3)
H27_2 H 0.372(3) 0.3305(17) 0.980(4)
H16_2 H 0.9927 0.2629 0.4837
C17_2 C 0.9457(3) 0.32784(19) 0.2996(4)
C18_2 C 0.9951(3) 0.3666(3) 0.1923(5)
H17_2 H 0.9484 0.3938 0.1161
C20_2 C 0.6477(3) 0.2849(2) 0.3866(4)
H19_2 H 0.6152 0.2531 0.4510
C21_2 C 0.7658(3) 0.2826(2) 0.3914(5)
H20_2 H 0.8108 0.2498 0.4583
C22_2 C 0.8181(3) 0.32885(19) 0.2971(4)
C23_2 C 0.7446(3) 0.3759(2) 0.2015(5)
H21_2 H 0.7747 0.4083 0.1358
C24_2 C 0.6265(3) 0.3749(2) 0.2035(4)
H22_2 H 0.5789 0.4069 0.1379
loop_
_geom_bond_atom_site_label_1
_geom_bond_atom_site_label_2
_geom_bond_site_symmetry_1
_geom_bond_site_symmetry_2
C4 C3 1_555 1_555
H3 C4 1_555 1_555
C6 H5 1_555 1_555
C7 C6 1_555 1_555
H6 C7 1_555 1_555
C8 C3 1_555 1_555
C9 C8 1_555 1_555
H7 C9 1_555 1_555
C10 C9 1_555 1_555
H8 C10 1_555 1_555
N2 C6 1_555 1_555
Mn3 N2 1_555 1_555
C7 C8 1_555 1_555
C10 N2 1_555 1_555
C12 C11 1_555 1_555
H9 C12 1_555 1_555
H10 C12 1_555 1_555
C13 C12 1_555 1_555
H11 C13 1_555 1_555
H12 C13 1_555 1_555
C14 C13 1_555 1_555
O3 C14 1_555 1_555
O4 C14 1_555 1_555
Mn4 O3 1_555 1_555
Mn3 N1 1_555 1_555
N1 C1 1_555 1_555
C1 H1 1_555 1_555
C2 C1 1_555 1_555
C5 N1 1_555 1_555
H4 C5 1_555 1_555
O1 Mn3 1_555 1_555
O5 Mn3 1_555 1_555
H13 O5 1_555 1_555
H14 O5 1_555 1_555
O6 C25 1_555 1_555
O7 C25 1_555 1_555
C25 C26 1_555 1_555
C26 H23 1_555 1_555
H24 C26 1_555 1_555
C27 C26 1_555 1_555
H25 C27 1_555 1_555
H26 C27 1_555 1_555
C28 C27 1_555 1_555
O8 Mn3 1_555 1_555
O9 C28 1_555 1_555
Mn4 O6 1_555 1_555
Mn7 O9 1_555 1_555
C28 O8 1_555 1_555
C4_2 C3_2 1_555 1_555
H3_2 C4_2 1_555 1_555
C6_2 H5_2 1_555 1_555
C7_2 C6_2 1_555 1_555
H6_2 C7_2 1_555 1_555
C8_2 C3_2 1_555 1_555
C9_2 C8_2 1_555 1_555
H7_2 C9_2 1_555 1_555
C10_2 C9_2 1_555 1_555
H8_2 C10_2 1_555 1_555
N2_2 C6_2 1_555 1_555
Mn7 N2_2 1_555 1_555
C7_2 C8_2 1_555 1_555
C10_2 N2_2 1_555 1_555
Mn5 O6_2 1_555 1_555
Mn7 N1_2 1_555 1_555
N1_2 C1_2 1_555 1_555
C1_2 H1_2 1_555 1_555
C2_2 C1_2 1_555 1_555
C5_2 N1_2 1_555 1_555
H4_2 C5_2 1_555 1_555
O1_2 Mn7 1_555 1_555
O2_2 C11_2 1_555 1_555
C11_2 O1_2 1_555 1_555
C12_2 C11_2 1_555 1_555
H9_2 C12_2 1_555 1_555
H10_2 C12_2 1_555 1_555
C13_2 C12_2 1_555 1_555
H11_2 C13_2 1_555 1_555
H12_2 C13_2 1_555 1_555
C14_2 C13_2 1_555 1_555
O3_2 C14_2 1_555 1_555
O4_2 C14_2 1_555 1_555
O5_2 Mn7 1_555 1_555
H14_2 O5_2 1_555 1_555
C25_2 C26_2 1_555 1_555
C26_2 H23_2 1_555 1_555
H24_2 C26_2 1_555 1_555
C27_2 C26_2 1_555 1_555
H25_2 C27_2 1_555 1_555
H26_2 C27_2 1_555 1_555
C28_2 C27_2 1_555 1_555
O8_2 Mn7 1_555 1_555
O11 C28_2 1_555 1_555
Mn5 O3_2 1_555 1_555
Mn4 O4_2 1_555 1_555
C28_2 O8_2 1_555 1_555
N3 C15 1_555 1_555
C15 H15 1_555 1_555
C16 C15 1_555 1_555
C19 N3 1_555 1_555
H18 C19 1_555 1_555
Mn5 N3 1_555 1_555
O10 Mn5 1_555 1_555
H27 O10 1_555 1_555
H28 O10 1_555 1_555
N5 Mn5 1_555 1_555
C18 C17 1_555 1_555
H17 C18 1_555 1_555
C20 H19 1_555 1_555
C21 C20 1_555 1_555
H20 C21 1_555 1_555
C22 C17 1_555 1_555
C23 C22 1_555 1_555
H21 C23 1_555 1_555
C24 C23 1_555 1_555
H22 C24 1_555 1_555
C20 N5 1_555 1_555
C21 C22 1_555 1_555
C24 N5 1_555 1_555
N3_2 C15_2 1_555 1_555
C15_2 H15_2 1_555 1_555
C16_2 C15_2 1_555 1_555
C19_2 N3_2 1_555 1_555
H18_2 C19_2 1_555 1_555
Mn4 N3_2 1_555 1_555
O10_2 Mn4 1_555 1_555
H28_2 O10_2 1_555 1_555
N5_2 Mn4 1_555 1_555
C18_2 C17_2 1_555 1_555
H17_2 C18_2 1_555 1_555
C20_2 H19_2 1_555 1_555
C21_2 C20_2 1_555 1_555
H20_2 C21_2 1_555 1_555
C22_2 C17_2 1_555 1_555
C23_2 C22_2 1_555 1_555
H21_2 C23_2 1_555 1_555
C24_2 C23_2 1_555 1_555
H22_2 C24_2 1_555 1_555
C20_2 N5_2 1_555 1_555
C21_2 C22_2 1_555 1_555
C24_2 N5_2 1_555 1_555

#END
