
###############################################################################
#
# This file contains modified crystal structure data generated from the
# MOF subset of the Cambridge Structural Database (CSD) v543 
# hosted by the Cambridge Crystallographic Data Centre (CCDC).
#
# This work is licensed under the Creative Commons
# Attribution-NonCommercial-ShareAlike 4.0 International License.
# To view a copy of this license, visit
# http://creativecommons.org/licenses/by-nc-sa/4.0/
# or send a letter to
# Creative Commons, PO Box 1866, Mountain View, CA 94042, USA.
#
# CIF created using the CSD Python API on 29 September 2022
# The structure has been converted into the P1 space group
# The structure has a 3D framework
# The original CSD entry EVOMOR is in the monoclinic crystal system
# The framework has been calculated to contain at least 10.0% void space
# The void calculation uses a probe of radius 1.32A, grid spacing 0.4
#
###############################################################################

data_EVOMOR
_chemical_formula_moiety         '(C56 H56 Mn4 N8 O20)n'
_symmetry_cell_setting           triclinic
_symmetry_space_group_name_H-M   'P 1'
_symmetry_Int_Tables_number      1
_space_group_name_Hall           'P 1'
loop_
_symmetry_equiv_pos_site_id
_symmetry_equiv_pos_as_xyz
1 x,y,z
_cell_length_a                   11.7070(11)
_cell_length_b                   17.8824(16)
_cell_length_c                   8.8647(8)
_cell_angle_alpha                90
_cell_angle_beta                 99.713(2)
_cell_angle_gamma                90
_cell_volume                     1829.22
loop_
_atom_site_label
_atom_site_type_symbol
_atom_site_fract_x
_atom_site_fract_y
_atom_site_fract_z
N2 N 0.4227(3) 0.8306(2) 0.2053(4)
H4 H 0.0076 0.7632 0.0166
C3 C 0.0548(4) 0.8281(2) 0.2007(5)
C4 C 0.0051(4) 0.8661(3) 0.3071(6)
H5 H 0.0519 0.8929 0.3837
C6 C 0.1820(3) 0.8289(2) 0.2026(5)
C7 C 0.2336(4) 0.7825(3) 0.1086(6)
H7 H 0.1885 0.7496 0.0424
C8 C 0.3521(4) 0.7851(3) 0.1132(5)
H8 H 0.3845 0.7534 0.0487
C9 C 0.3733(4) 0.8753(3) 0.2967(5)
H9 H 0.4205 0.9075 0.3622
C10 C 0.2558(4) 0.8760(3) 0.2985(5)
H10 H 0.2257 0.9082 0.3642
Mn4 Mn 0.61880(5) 0.82992(3) 0.20599(7)
O3 O 0.4120(3) 0.19403(16) 0.0346(3)
O4 O 0.3876(3) 0.20767(15) 0.2746(3)
C11 C 0.6170(4) 0.0031(2) 0.2783(6)
C12 C 0.5766(4) 0.0794(3) 0.2152(7)
H11 H 0.6141 0.1179 0.2831
H12 H 0.5997 0.0862 0.1160
C13 C 0.4466(4) 0.0881(2) 0.1986(5)
H13 H 0.4090 0.0567 0.1156
H14 H 0.4213 0.0719 0.2921
C14 C 0.4118(3) 0.1682(2) 0.1665(4)
Mn3 Mn 0.38120(5) 0.32992(3) 0.29401(7)
O6 O 0.3854(3) 0.04949(17) 0.8154(3)
O7 O 0.3511(4) 0.00260(19) 0.5819(4)
Mn2 Mn 0.38120(5) 0.17008(3) 0.79401(7)
O10 O 0.3410(3) 0.14722(18) 0.5500(3)
H27 H 0.359(4) 0.170(2) 0.475(4)
H28 H 0.348(6) 0.1002(13) 0.541(8)
O12 O 0.3876(3) 0.29233(15) 0.7746(3)
N5 N 0.1853(3) 0.1724(2) 0.8012(4)
N6 N 0.5773(3) 0.1694(2) 0.7947(4)
O1 O 0.6146(3) 0.95051(17) 0.1846(3)
O2 O 0.6489(4) 0.99740(19) 0.4181(4)
O5 O 0.6590(3) 0.85278(18) 0.4500(3)
H1 H 0.641(4) 0.830(2) 0.525(4)
H2 H 0.652(6) 0.8998(13) 0.459(8)
N1 N 0.8147(3) 0.8276(2) 0.1988(4)
C1 C 0.8624(4) 0.7909(3) 0.0939(7)
H3 H 0.8139 0.7646 0.0183
C2 C 0.9791(4) 0.7900(3) 0.0922(7)
C5 C 0.8870(4) 0.8651(3) 0.3023(6)
H6 H 0.8565 0.8923 0.3756
O11 O 0.6124(3) 0.70767(15) 0.2254(3)
O8 O 0.5880(3) 0.80597(16) 0.9654(3)
O9 O 0.6124(3) 0.79233(15) 0.7254(3)
C15 C 0.3830(4) 0.9969(2) 0.7217(6)
C16 C 0.4234(4) 0.9206(3) 0.7848(7)
H15 H 0.3859 0.8821 0.7169
H16 H 0.4003 0.9138 0.8840
C17 C 0.5534(4) 0.9119(2) 0.8014(5)
H17 H 0.5910 0.9433 0.8844
H18 H 0.5787 0.9281 0.7079
C18 C 0.5882(3) 0.8318(2) 0.8335(4)
Mn5 Mn 0.61880(5) 0.67008(3) 0.70599(7)
N2_2 N 0.4227(3) 0.6694(2) 0.7053(4)
H4_2 H 0.0076 0.7368 0.5166
C3_2 C 0.0548(4) 0.6719(2) 0.7007(5)
C4_2 C 0.0051(4) 0.6339(3) 0.8071(6)
H5_2 H 0.0519 0.6071 0.8837
C6_2 C 0.1820(3) 0.6711(2) 0.7026(5)
C7_2 C 0.2336(4) 0.7175(3) 0.6086(6)
H7_2 H 0.1885 0.7504 0.5424
C8_2 C 0.3521(4) 0.7149(3) 0.6132(5)
H8_2 H 0.3845 0.7466 0.5487
C9_2 C 0.3733(4) 0.6247(3) 0.7967(5)
H9_2 H 0.4205 0.5925 0.8622
C10_2 C 0.2558(4) 0.6240(3) 0.7985(5)
H10_2 H 0.2257 0.5918 0.8642
O1_2 O 0.6146(3) 0.54949(17) 0.6846(3)
O2_2 O 0.6489(4) 0.50260(19) 0.9181(4)
O3_2 O 0.4120(3) 0.30597(16) 0.5346(3)
O5_2 O 0.6590(3) 0.64722(18) 0.9500(3)
H2_2 H 0.652(6) 0.6002(13) 0.959(8)
N1_2 N 0.8147(3) 0.6724(2) 0.6988(4)
C1_2 C 0.8624(4) 0.7091(3) 0.5939(7)
H3_2 H 0.8139 0.7354 0.5183
C2_2 C 0.9791(4) 0.7100(3) 0.5922(7)
C5_2 C 0.8870(4) 0.6349(3) 0.8023(6)
H6_2 H 0.8565 0.6077 0.8756
C11_2 C 0.6170(4) 0.4969(2) 0.7783(6)
C12_2 C 0.5766(4) 0.4206(3) 0.7152(7)
H11_2 H 0.6141 0.3821 0.7831
H12_2 H 0.5997 0.4138 0.6160
C13_2 C 0.4466(4) 0.4119(2) 0.6986(5)
H13_2 H 0.4090 0.4433 0.6156
H14_2 H 0.4213 0.4281 0.7921
C14_2 C 0.4118(3) 0.3318(2) 0.6665(4)
O6_2 O 0.3854(3) 0.45051(17) 0.3154(3)
O7_2 O 0.3511(4) 0.49740(19) 0.0819(4)
O8_2 O 0.5880(3) 0.69403(16) 0.4654(3)
C15_2 C 0.3830(4) 0.5031(2) 0.2217(6)
C16_2 C 0.4234(4) 0.5794(3) 0.2848(7)
H15_2 H 0.3859 0.6179 0.2169
H16_2 H 0.4003 0.5862 0.3840
C17_2 C 0.5534(4) 0.5881(2) 0.3014(5)
H17_2 H 0.5910 0.5567 0.3844
H18_2 H 0.5787 0.5719 0.2079
C18_2 C 0.5882(3) 0.6682(2) 0.3335(4)
O10_2 O 0.3410(3) 0.35278(18) 0.0500(3)
H28_2 H 0.348(6) 0.3998(13) 0.041(8)
N5_2 N 0.1853(3) 0.3276(2) 0.3012(4)
N6_2 N 0.5773(3) 0.3306(2) 0.2947(4)
C19 C 0.1376(4) 0.2091(3) 0.9061(7)
H19 H 0.1861 0.2354 0.9817
C20 C 0.0209(4) 0.2100(3) 0.9078(7)
C23 C 0.1130(4) 0.1349(3) 0.6977(6)
H22 H 0.1435 0.1077 0.6244
H20 H 0.9924 0.2368 0.9834
C21 C 0.9452(4) 0.1719(2) 0.7993(5)
C22 C 0.9949(4) 0.1339(3) 0.6929(6)
H21 H 0.9481 0.1071 0.6163
C24 C 0.8180(3) 0.1711(2) 0.7974(5)
C25 C 0.7664(4) 0.2175(3) 0.8914(6)
H23 H 0.8115 0.2504 0.9576
C26 C 0.6479(4) 0.2149(3) 0.8868(5)
H24 H 0.6155 0.2466 0.9513
C27 C 0.6267(4) 0.1247(3) 0.7033(5)
H25 H 0.5795 0.0925 0.6378
C28 C 0.7442(4) 0.1240(3) 0.7015(5)
H26 H 0.7743 0.0918 0.6358
C19_2 C 0.1376(4) 0.2909(3) 0.4061(7)
H19_2 H 0.1861 0.2646 0.4817
C20_2 C 0.0209(4) 0.2900(3) 0.4078(7)
C23_2 C 0.1130(4) 0.3651(3) 0.1977(6)
H22_2 H 0.1435 0.3923 0.1244
H20_2 H 0.9924 0.2632 0.4834
C21_2 C 0.9452(4) 0.3281(2) 0.2993(5)
C22_2 C 0.9949(4) 0.3661(3) 0.1929(6)
H21_2 H 0.9481 0.3929 0.1163
C24_2 C 0.8180(3) 0.3289(2) 0.2974(5)
C25_2 C 0.7664(4) 0.2825(3) 0.3914(6)
H23_2 H 0.8115 0.2496 0.4576
C26_2 C 0.6479(4) 0.2851(3) 0.3868(5)
H24_2 H 0.6155 0.2534 0.4513
C27_2 C 0.6267(4) 0.3753(3) 0.2033(5)
H25_2 H 0.5795 0.4075 0.1378
C28_2 C 0.7442(4) 0.3760(3) 0.2015(5)
H26_2 H 0.7743 0.4082 0.1358
H1_2 H 0.641(4) 0.670(2) 0.025(4)
H27_2 H 0.359(4) 0.330(2) 0.975(4)
loop_
_geom_bond_atom_site_label_1
_geom_bond_atom_site_label_2
_geom_bond_site_symmetry_1
_geom_bond_site_symmetry_2
N2 C8 1_555 1_555
C4 C3 1_555 1_555
H5 C4 1_555 1_555
C6 C3 1_555 1_555
C7 C6 1_555 1_555
H7 C7 1_555 1_555
C8 C7 1_555 1_555
H8 C8 1_555 1_555
C9 N2 1_555 1_555
H9 C9 1_555 1_555
C10 C6 1_555 1_555
H10 C10 1_555 1_555
Mn4 N2 1_555 1_555
C9 C10 1_555 1_555
O3 C14 1_555 1_555
O4 C14 1_555 1_555
C11 C12 1_555 1_555
C12 H11 1_555 1_555
H12 C12 1_555 1_555
C13 C12 1_555 1_555
H13 C13 1_555 1_555
H14 C13 1_555 1_555
C14 C13 1_555 1_555
Mn3 O4 1_555 1_555
O10 Mn2 1_555 1_555
H27 O10 1_555 1_555
H28 O10 1_555 1_555
O12 Mn2 1_555 1_555
N5 Mn2 1_555 1_555
N6 Mn2 1_555 1_555
O6 Mn2 1_555 1_555
Mn4 O1 1_555 1_555
O5 Mn4 1_555 1_555
H1 O5 1_555 1_555
H2 O5 1_555 1_555
N1 Mn4 1_555 1_555
C1 N1 1_555 1_555
H3 C1 1_555 1_555
C2 C1 1_555 1_555
C5 N1 1_555 1_555
H6 C5 1_555 1_555
O11 Mn4 1_555 1_555
O9 C18 1_555 1_555
C15 C16 1_555 1_555
C16 H15 1_555 1_555
H16 C16 1_555 1_555
C17 C16 1_555 1_555
H17 C17 1_555 1_555
H18 C17 1_555 1_555
C18 O8 1_555 1_555
Mn5 O9 1_555 1_555
C17 C18 1_555 1_555
N2_2 C8_2 1_555 1_555
C4_2 C3_2 1_555 1_555
H5_2 C4_2 1_555 1_555
C6_2 C3_2 1_555 1_555
C7_2 C6_2 1_555 1_555
H7_2 C7_2 1_555 1_555
C8_2 C7_2 1_555 1_555
H8_2 C8_2 1_555 1_555
C9_2 N2_2 1_555 1_555
H9_2 C9_2 1_555 1_555
C10_2 C6_2 1_555 1_555
H10_2 C10_2 1_555 1_555
Mn5 N2_2 1_555 1_555
C9_2 C10_2 1_555 1_555
Mn5 O1_2 1_555 1_555
O1_2 C11_2 1_555 1_555
O2_2 C11_2 1_555 1_555
O3_2 C14_2 1_555 1_555
O12 C14_2 1_555 1_555
O5_2 Mn5 1_555 1_555
H2_2 O5_2 1_555 1_555
N1_2 Mn5 1_555 1_555
C1_2 N1_2 1_555 1_555
H3_2 C1_2 1_555 1_555
C2_2 C1_2 1_555 1_555
C5_2 N1_2 1_555 1_555
H6_2 C5_2 1_555 1_555
C11_2 C12_2 1_555 1_555
C12_2 H11_2 1_555 1_555
H12_2 C12_2 1_555 1_555
C13_2 C12_2 1_555 1_555
H13_2 C13_2 1_555 1_555
H14_2 C13_2 1_555 1_555
C14_2 C13_2 1_555 1_555
O6_2 C15_2 1_555 1_555
O7_2 C15_2 1_555 1_555
O8_2 Mn5 1_555 1_555
O11 C18_2 1_555 1_555
C15_2 C16_2 1_555 1_555
C16_2 H15_2 1_555 1_555
H16_2 C16_2 1_555 1_555
C17_2 C16_2 1_555 1_555
H17_2 C17_2 1_555 1_555
H18_2 C17_2 1_555 1_555
C18_2 O8_2 1_555 1_555
Mn3 O3_2 1_555 1_555
O10_2 Mn3 1_555 1_555
H28_2 O10_2 1_555 1_555
N5_2 Mn3 1_555 1_555
N6_2 Mn3 1_555 1_555
O6_2 Mn3 1_555 1_555
C17_2 C18_2 1_555 1_555
N5 C19 1_555 1_555
C19 H19 1_555 1_555
C20 C19 1_555 1_555
C23 N5 1_555 1_555
H22 C23 1_555 1_555
C22 C21 1_555 1_555
H21 C22 1_555 1_555
C24 C21 1_555 1_555
C25 C24 1_555 1_555
H23 C25 1_555 1_555
C26 N6 1_555 1_555
H24 C26 1_555 1_555
C27 N6 1_555 1_555
H25 C27 1_555 1_555
C28 C24 1_555 1_555
H26 C28 1_555 1_555
C25 C26 1_555 1_555
C27 C28 1_555 1_555
N5_2 C19_2 1_555 1_555
C19_2 H19_2 1_555 1_555
C20_2 C19_2 1_555 1_555
C23_2 N5_2 1_555 1_555
H22_2 C23_2 1_555 1_555
C22_2 C21_2 1_555 1_555
H21_2 C22_2 1_555 1_555
C24_2 C21_2 1_555 1_555
C25_2 C24_2 1_555 1_555
H23_2 C25_2 1_555 1_555
C26_2 N6_2 1_555 1_555
H24_2 C26_2 1_555 1_555
C27_2 N6_2 1_555 1_555
H25_2 C27_2 1_555 1_555
C28_2 C24_2 1_555 1_555
H26_2 C28_2 1_555 1_555
C25_2 C26_2 1_555 1_555
C27_2 C28_2 1_555 1_555

#END
