
###############################################################################
#
# This file contains modified crystal structure data generated from the
# MOF subset of the Cambridge Structural Database (CSD) v543 
# hosted by the Cambridge Crystallographic Data Centre (CCDC).
#
# This work is licensed under the Creative Commons
# Attribution-NonCommercial-ShareAlike 4.0 International License.
# To view a copy of this license, visit
# http://creativecommons.org/licenses/by-nc-sa/4.0/
# or send a letter to
# Creative Commons, PO Box 1866, Mountain View, CA 94042, USA.
#
# CIF created using the CSD Python API on 29 September 2022
# The structure has been converted into the P1 space group
# The structure has a 3D framework
# The original CSD entry EVUNOY is in the orthorhombic crystal system
# The framework has been calculated to contain at least 10.0% void space
# The void calculation uses a probe of radius 1.32A, grid spacing 0.4
#
###############################################################################

data_EVUNOY
_chemical_formula_moiety         '(C52 H48 Cd14 N40)n'
_symmetry_cell_setting           triclinic
_symmetry_space_group_name_H-M   'P 1'
_symmetry_Int_Tables_number      1
_space_group_name_Hall           'P 1'
loop_
_symmetry_equiv_pos_site_id
_symmetry_equiv_pos_as_xyz
1 x,y,z
_cell_length_a                   13.237(3)
_cell_length_b                   14.870(3)
_cell_length_c                   14.698(3)
_cell_angle_alpha                90
_cell_angle_beta                 90
_cell_angle_gamma                90
_cell_volume                     2893.07
loop_
_atom_site_label
_atom_site_type_symbol
_atom_site_fract_x
_atom_site_fract_y
_atom_site_fract_z
Cd1 Cd -0.0000 0.35115(6) 0.2500
C8 C 0.1504(8) 0.3529(6) 0.4407(7)
N6 N 0.1029(7) 0.3449(6) 0.3787(6)
C9 C 0.1622(7) 0.2001(6) 0.1418(6)
N7 N 0.1053(7) 0.2428(6) 0.1804(6)
C10 C 0.1456(8) 0.5176(6) 0.1507(7)
N8 N 0.1015(7) 0.4645(6) 0.1874(6)
Cd3 Cd 0.23831(5) 0.38990(5) 0.56321(5)
N9 N 0.4225(10) 0.6192(8) 0.4866(10)
H7 H 0.4560 0.6667 0.5009
C11 C 0.3830(9) 0.5613(8) 0.5464(9)
N10 N 0.3396(7) 0.4968(6) 0.5002(6)
C12 C 0.3514(9) 0.5157(9) 0.4096(8)
H8 H 0.3280 0.4809 0.3614
C13 C 0.4028(11) 0.5933(11) 0.4028(11)
H9 H 0.4208 0.6228 0.3494
C14 C 0.3870(12) 0.5728(11) 0.6470(9)
H10 H 0.3535 0.5231 0.6759
H11 H 0.3539 0.6278 0.6636
H12 H 0.4562 0.5748 0.6665
Cd6 Cd 0.26169(5) 0.11010(5) 0.06321(5)
Cd7 Cd 0.23831(5) 0.61010(5) 0.06321(5)
C17 C 0.3378(7) 0.2999(6) 0.6418(6)
C18 C 0.1456(8) 0.4824(6) 0.6507(7)
Cd1_2 Cd 1.0000 0.35115(6) 0.2500
C1 C 0.8496(8) 0.3529(6) 0.0593(7)
N1 N 0.8971(7) 0.3449(6) 0.1213(6)
C2 C 0.8378(7) 0.2001(6) 0.3582(6)
N2 N 0.8947(7) 0.2428(6) 0.3196(6)
C3 C 0.8544(8) 0.5176(6) 0.3493(7)
N3 N 0.8985(7) 0.4645(6) 0.3126(6)
N4 N 0.5775(10) 0.6192(8) 0.0134(10)
C5 C 0.6486(9) 0.5157(9) 0.0904(8)
H2 H 0.6720 0.4809 0.1386
C6 C 0.5972(11) 0.5933(11) 0.0972(11)
H3 H 0.5792 0.6228 0.1506
Cd4 Cd 0.73831(5) 0.11010(5) 0.43679(5)
Cd5 Cd 0.76169(5) 0.61010(5) 0.43679(5)
Cd2 Cd 0.76169(5) 0.38990(5) 0.93679(5)
H1 H 0.5440 0.6667 0.9991
C4 C 0.6170(9) 0.5613(8) 0.9536(9)
N5 N 0.6604(7) 0.4968(6) 0.9998(6)
C7 C 0.6130(12) 0.5728(11) 0.8530(9)
H4 H 0.6465 0.5231 0.8241
H5 H 0.6461 0.6278 0.8364
H6 H 0.5438 0.5748 0.8335
C15 C 0.6622(7) 0.2999(6) 0.8582(6)
C16 C 0.8544(8) 0.4824(6) 0.8493(7)
C3_2 C 0.3544(8) 0.0176(6) 0.1507(7)
N4_2 N 0.0775(10) 0.1192(8) 0.4866(10)
H1_2 H 0.0440 0.1667 0.5009
C4_2 C 0.1170(9) 0.0613(8) 0.5464(9)
C5_2 C 0.1486(9) 0.0157(9) 0.4096(8)
C6_2 C 0.0972(11) 0.0933(11) 0.4028(11)
H3_2 H 0.0792 0.1228 0.3494
C7_2 C 0.1130(12) 0.0728(11) 0.6470(9)
H4_2 H 0.1465 0.0231 0.6759
H5_2 H 0.1461 0.1278 0.6636
H6_2 H 0.0438 0.0748 0.6665
C10_2 C 0.6456(8) 0.0176(6) 0.3493(7)
N9_2 N 0.9225(10) 0.1192(8) 0.0134(10)
C12_2 C 0.8514(9) 0.0157(9) 0.0904(8)
C13_2 C 0.9028(11) 0.0933(11) 0.0972(11)
H9_2 H 0.9208 0.1228 0.1506
Cd1_3 Cd 0.5000 0.85115(6) 0.2500
Cd2_2 Cd 0.26169(5) 0.88990(5) 0.56321(5)
C1_2 C 0.3496(8) 0.8529(6) 0.4407(7)
N1_2 N 0.3971(7) 0.8449(6) 0.3787(6)
C2_2 C 0.3378(7) 0.7001(6) 0.1418(6)
N2_2 N 0.3947(7) 0.7428(6) 0.1804(6)
N3_2 N 0.3985(7) 0.9645(6) 0.1874(6)
N5_2 N 0.1604(7) 0.9968(6) 0.5002(6)
H2_2 H 0.1720 0.9809 0.3614
C8_2 C 0.6504(8) 0.8529(6) 0.0593(7)
N6_2 N 0.6029(7) 0.8449(6) 0.1213(6)
C9_2 C 0.6622(7) 0.7001(6) 0.3582(6)
N7_2 N 0.6053(7) 0.7428(6) 0.3196(6)
N8_2 N 0.6015(7) 0.9645(6) 0.3126(6)
H8_2 H 0.8280 0.9809 0.1386
C15_2 C 0.1622(7) 0.7999(6) 0.6418(6)
C16_2 C 0.3544(8) 0.9824(6) 0.6507(7)
Cd3_2 Cd 0.73831(5) 0.88990(5) 0.93679(5)
N10_2 N 0.8396(7) 0.9968(6) 0.9998(6)
C17_2 C 0.8378(7) 0.7999(6) 0.8582(6)
C18_2 C 0.6456(8) 0.9824(6) 0.8493(7)
H7_2 H 0.4560 0.3333 0.0009
C11_2 C 0.3830(9) 0.4387(8) 0.0464(9)
N10_3 N 0.3396(7) 0.5032(6) 0.0002(6)
C14_2 C 0.3870(12) 0.4272(11) 0.1470(9)
H10_2 H 0.3535 0.4769 0.1759
H11_2 H 0.3539 0.3722 0.1636
H12_2 H 0.4562 0.4252 0.1665
Cd1_4 Cd 0.0000 0.64885(6) 0.7500
C8_3 C 0.1504(8) 0.6471(6) 0.9407(7)
N6_3 N 0.1029(7) 0.6551(6) 0.8787(6)
N7_3 N 0.1053(7) 0.7572(6) 0.6804(6)
N8_3 N 0.1015(7) 0.5355(6) 0.6874(6)
N9_3 N 0.4225(10) 0.3808(8) 0.9866(10)
C12_3 C 0.3514(9) 0.4843(9) 0.9096(8)
H8_3 H 0.3280 0.5191 0.8614
C13_3 C 0.4028(11) 0.4067(11) 0.9028(11)
H9_3 H 0.4208 0.3772 0.8494
Cd1_5 Cd 1.0000 0.64885(6) 0.7500
C1_3 C 0.8496(8) 0.6471(6) 0.5593(7)
N1_3 N 0.8971(7) 0.6551(6) 0.6213(6)
N2_3 N 0.8947(7) 0.7572(6) 0.8196(6)
N3_3 N 0.8985(7) 0.5355(6) 0.8126(6)
N4_3 N 0.5775(10) 0.3808(8) 0.5134(10)
H1_3 H 0.5440 0.3333 0.4991
C4_3 C 0.6170(9) 0.4387(8) 0.4536(9)
N5_3 N 0.6604(7) 0.5032(6) 0.4998(6)
C5_3 C 0.6486(9) 0.4843(9) 0.5904(8)
H2_3 H 0.6720 0.5191 0.6386
C6_3 C 0.5972(11) 0.4067(11) 0.5972(11)
H3_3 H 0.5792 0.3772 0.6506
C7_3 C 0.6130(12) 0.4272(11) 0.3530(9)
H4_3 H 0.6465 0.4769 0.3241
H5_3 H 0.6461 0.3722 0.3364
H6_3 H 0.5438 0.4252 0.3335
N10_4 N 0.1604(7) 0.0032(6) 0.0002(6)
Cd1_6 Cd 0.5000 0.14885(6) 0.7500
C1_4 C 0.6504(8) 0.1471(6) 0.5593(7)
N1_4 N 0.6029(7) 0.1551(6) 0.6213(6)
N2_4 N 0.6053(7) 0.2572(6) 0.8196(6)
N3_4 N 0.6015(7) 0.0355(6) 0.8126(6)
N5_4 N 0.8396(7) 0.0032(6) 0.4998(6)
H2_4 H 0.8280 0.0191 0.6386
C8_4 C 0.3496(8) 0.1471(6) 0.9407(7)
N6_4 N 0.3971(7) 0.1551(6) 0.8787(6)
N7_4 N 0.3947(7) 0.2572(6) 0.6804(6)
N8_4 N 0.3985(7) 0.0355(6) 0.6874(6)
H8_4 H 0.1720 0.0191 0.8614
N4_4 N 0.9225(10) 0.8808(8) 0.5134(10)
H1_4 H 0.9560 0.8333 0.4991
C4_4 C 0.8830(9) 0.9387(8) 0.4536(9)
C5_4 C 0.8514(9) 0.9843(9) 0.5904(8)
C6_4 C 0.9028(11) 0.9067(11) 0.5972(11)
H3_4 H 0.9208 0.8772 0.6506
C7_4 C 0.8870(12) 0.9272(11) 0.3530(9)
H4_4 H 0.8535 0.9769 0.3241
H5_4 H 0.8539 0.8722 0.3364
H6_4 H 0.9562 0.9252 0.3335
N9_4 N 0.0775(10) 0.8808(8) 0.9866(10)
C12_4 C 0.1486(9) 0.9843(9) 0.9096(8)
C13_4 C 0.0972(11) 0.9067(11) 0.9028(11)
H9_4 H 0.0792 0.8772 0.8494
H7_3 H 0.9560 0.1667 0.9991
C11_3 C 0.8830(9) 0.0613(8) 0.9536(9)
C14_3 C 0.8870(12) 0.0728(11) 0.8530(9)
H10_3 H 0.8535 0.0231 0.8241
H11_3 H 0.8539 0.1278 0.8364
H12_3 H 0.9562 0.0748 0.8335
H7_4 H 0.0440 0.8333 0.0009
C11_4 C 0.1170(9) 0.9387(8) 0.0464(9)
C14_4 C 0.1130(12) 0.9272(11) 0.1470(9)
H10_4 H 0.1465 0.9769 0.1759
H11_4 H 0.1461 0.8722 0.1636
H12_4 H 0.0438 0.9252 0.1665
loop_
_geom_bond_atom_site_label_1
_geom_bond_atom_site_label_2
_geom_bond_site_symmetry_1
_geom_bond_site_symmetry_2
C8 N6 1_555 1_555
N6 Cd1 1_555 1_555
C9 N7 1_555 1_555
N7 Cd1 1_555 1_555
C10 N8 1_555 1_555
N8 Cd1 1_555 1_555
Cd3 C8 1_555 1_555
N9 H7 1_555 1_555
C11 N9 1_555 1_555
N10 Cd3 1_555 1_555
C12 N10 1_555 1_555
H8 C12 1_555 1_555
C13 N9 1_555 1_555
H9 C13 1_555 1_555
C14 C11 1_555 1_555
H10 C14 1_555 1_555
H11 C14 1_555 1_555
H12 C14 1_555 1_555
Cd6 C9 1_555 1_555
Cd7 C10 1_555 1_555
C17 Cd3 1_555 1_555
C18 Cd3 1_555 1_555
C11 N10 1_555 1_555
C12 C13 1_555 1_555
Cd1_2 N1 1_555 1_555
C1 N1 1_555 1_555
C2 N2 1_555 1_555
N2 Cd1_2 1_555 1_555
C3 N3 1_555 1_555
N3 Cd1_2 1_555 1_555
H2 C5 1_555 1_555
C6 N4 1_555 1_555
H3 C6 1_555 1_555
Cd4 C2 1_555 1_555
Cd5 C3 1_555 1_555
C5 C6 1_555 1_555
N5 Cd2 1_555 1_555
C7 C4 1_555 1_555
H4 C7 1_555 1_555
H5 C7 1_555 1_555
H6 C7 1_555 1_555
C15 Cd2 1_555 1_555
C16 Cd2 1_555 1_555
C4 N5 1_555 1_555
N4_2 H1_2 1_555 1_555
C4_2 N4_2 1_555 1_555
C6_2 N4_2 1_555 1_555
H3_2 C6_2 1_555 1_555
C7_2 C4_2 1_555 1_555
H4_2 C7_2 1_555 1_555
H5_2 C7_2 1_555 1_555
H6_2 C7_2 1_555 1_555
C13_2 N9_2 1_555 1_555
H9_2 C13_2 1_555 1_555
Cd6 C3_2 1_555 1_555
Cd4 C10_2 1_555 1_555
C5_2 C6_2 1_555 1_555
C12_2 C13_2 1_555 1_555
Cd1_3 N1_2 1_555 1_555
Cd2_2 C1_2 1_555 1_555
C1_2 N1_2 1_555 1_555
C2_2 N2_2 1_555 1_555
N2_2 Cd1_3 1_555 1_555
N3_2 Cd1_3 1_555 1_555
N5_2 Cd2_2 1_555 1_555
C8_2 N6_2 1_555 1_555
N6_2 Cd1_3 1_555 1_555
C9_2 N7_2 1_555 1_555
N7_2 Cd1_3 1_555 1_555
N8_2 Cd1_3 1_555 1_555
C15_2 Cd2_2 1_555 1_555
C16_2 Cd2_2 1_555 1_555
Cd7 C2_2 1_555 1_555
Cd5 C9_2 1_555 1_555
N10_2 Cd3_2 1_555 1_555
C17_2 Cd3_2 1_555 1_555
C18_2 Cd3_2 1_555 1_555
N10_3 Cd7 1_555 1_555
C14_2 C11_2 1_555 1_555
H10_2 C14_2 1_555 1_555
H11_2 C14_2 1_555 1_555
H12_2 C14_2 1_555 1_555
C11_2 N10_3 1_555 1_555
C8_3 N6_3 1_555 1_555
N6_3 Cd1_4 1_555 1_555
C15_2 N7_3 1_555 1_555
N7_3 Cd1_4 1_555 1_555
C18 N8_3 1_555 1_555
N8_3 Cd1_4 1_555 1_555
H8_3 C12_3 1_555 1_555
C13_3 N9_3 1_555 1_555
H9_3 C13_3 1_555 1_555
C12_3 C13_3 1_555 1_555
Cd1_5 N1_3 1_555 1_555
Cd5 C1_3 1_555 1_555
C1_3 N1_3 1_555 1_555
C17_2 N2_3 1_555 1_555
N2_3 Cd1_5 1_555 1_555
C16 N3_3 1_555 1_555
N3_3 Cd1_5 1_555 1_555
N4_3 H1_3 1_555 1_555
C4_3 N4_3 1_555 1_555
N5_3 Cd5 1_555 1_555
C5_3 N5_3 1_555 1_555
H2_3 C5_3 1_555 1_555
C6_3 N4_3 1_555 1_555
H3_3 C6_3 1_555 1_555
C7_3 C4_3 1_555 1_555
H4_3 C7_3 1_555 1_555
H5_3 C7_3 1_555 1_555
H6_3 C7_3 1_555 1_555
C4_3 N5_3 1_555 1_555
C5_3 C6_3 1_555 1_555
N10_4 Cd6 1_555 1_555
Cd1_6 N1_4 1_555 1_555
Cd4 C1_4 1_555 1_555
C1_4 N1_4 1_555 1_555
C15 N2_4 1_555 1_555
N2_4 Cd1_6 1_555 1_555
N3_4 Cd1_6 1_555 1_555
N5_4 Cd4 1_555 1_555
C8_4 N6_4 1_555 1_555
N6_4 Cd1_6 1_555 1_555
C17 N7_4 1_555 1_555
N7_4 Cd1_6 1_555 1_555
N8_4 Cd1_6 1_555 1_555
N4_4 H1_4 1_555 1_555
C4_4 N4_4 1_555 1_555
C6_4 N4_4 1_555 1_555
H3_4 C6_4 1_555 1_555
C7_4 C4_4 1_555 1_555
H4_4 C7_4 1_555 1_555
H5_4 C7_4 1_555 1_555
H6_4 C7_4 1_555 1_555
C13_4 N9_4 1_555 1_555
H9_4 C13_4 1_555 1_555
C5_4 C6_4 1_555 1_555
C12_4 C13_4 1_555 1_555
C14_3 C11_3 1_555 1_555
H10_3 C14_3 1_555 1_555
H11_3 C14_3 1_555 1_555
H12_3 C14_3 1_555 1_555
C14_4 C11_4 1_555 1_555
H10_4 C14_4 1_555 1_555
H11_4 C14_4 1_555 1_555
H12_4 C14_4 1_555 1_555

#END
