
###############################################################################
#
# This file contains modified crystal structure data generated from the
# MOF subset of the Cambridge Structural Database (CSD) v543 
# hosted by the Cambridge Crystallographic Data Centre (CCDC).
#
# This work is licensed under the Creative Commons
# Attribution-NonCommercial-ShareAlike 4.0 International License.
# To view a copy of this license, visit
# http://creativecommons.org/licenses/by-nc-sa/4.0/
# or send a letter to
# Creative Commons, PO Box 1866, Mountain View, CA 94042, USA.
#
# CIF created using the CSD Python API on 29 September 2022
# The structure has been converted into the P1 space group
# The structure has a 3D framework
# The original CSD entry EVUQUI is in the triclinic crystal system
# The framework has been calculated to contain at least 10.0% void space
# The void calculation uses a probe of radius 1.32A, grid spacing 0.4
#
###############################################################################

data_EVUQUI
_chemical_formula_moiety         '(C30 H24 N2 Nd2 O16)n'
_symmetry_cell_setting           triclinic
_symmetry_space_group_name_H-M   'P 1'
_symmetry_Int_Tables_number      1
_space_group_name_Hall           'P 1'
loop_
_symmetry_equiv_pos_site_id
_symmetry_equiv_pos_as_xyz
1 x,y,z
_cell_length_a                   9.5211(4)
_cell_length_b                   9.9835(4)
_cell_length_c                   11.4843(5)
_cell_angle_alpha                96.342(2)
_cell_angle_beta                 97.063(2)
_cell_angle_gamma                111.7635(19)
_cell_volume                     991.599
loop_
_atom_site_label
_atom_site_type_symbol
_atom_site_fract_x
_atom_site_fract_y
_atom_site_fract_z
Nd4 Nd 0.28629(2) 0.04512(2) 0.990790(19)
O1 O 0.4554(4) 0.2391(4) 0.8896(3)
O2 O 0.8804(4) 0.0127(4) 0.2150(3)
C1 C 0.9224(5) 0.7476(5) 0.9747(4)
C2 C 0.8883(5) 0.5928(5) 0.9183(4)
C3 C 0.7524(5) 0.4816(5) 0.9302(4)
H1 H 0.6809 0.5039 0.9713
C4 C 0.7218(5) 0.3370(5) 0.8815(4)
C5 C 0.5776(5) 0.2173(5) 0.8988(4)
O5 O 0.5835(3) 0.0977(3) 0.9232(3)
C6 C 0.8238(5) 0.3050(5) 0.8176(4)
H2 H 0.8057 0.2067 0.7866
C7 C 0.9516(5) 0.4190(5) 0.8001(4)
C8 C 0.9876(5) 0.5618(5) 0.8523(4)
C9 C 0.9926(5) 0.3241(5) 0.6145(4)
C10 C 0.8741(6) 0.3470(5) 0.5466(4)
H4 H 0.8288 0.4087 0.5805
C11 C 0.8235(5) 0.2780(5) 0.4286(4)
H5 H 0.7431 0.2931 0.3814
C12 C 0.8889(5) 0.1873(5) 0.3789(4)
C13 C 0.8282(5) 0.1058(5) 0.2554(4)
O7 O 0.7226(3) 0.1263(4) 0.1903(3)
O11 O 0.1852(4) 0.2277(3) 0.9877(3)
O12 O 0.9456(4) 0.1588(3) 0.0188(3)
O8 O 0.8061(4) 0.9413(4) 0.8111(3)
H9 H 0.7518 0.9133 0.7362
H10 H 0.9024 0.9557 0.8037
O9 O 0.5045(4) 0.7757(3) 0.8520(3)
H11 H 0.4849 0.6788 0.8283
H12 H 0.4283 0.8085 0.8376
H3 H 0.9204 0.3622 0.1571
O6 O 0.9467(4) 0.6097(4) 0.2679(3)
C14 C 0.9918(5) 0.8332(6) 0.5522(4)
H6 H 0.9467 0.8949 0.5862
C15 C 0.9383(5) 0.7642(5) 0.4343(4)
N1 N 0.8117(6) 0.7760(6) 0.3647(4)
H7 H 0.8322 0.8473 0.3185
H8 H 0.7379 0.6962 0.3154
O4 O 0.0544(4) 0.8412(3) 0.9812(3)
H3_2 H 0.0796 0.6378 0.8429
O6_2 O 0.0533(4) 0.3903(4) 0.7321(3)
C14_2 C 0.0082(5) 0.1668(6) 0.4478(4)
H6_2 H 0.0533 0.1051 0.4138
C15_2 C 0.0617(5) 0.2358(5) 0.5657(4)
N1_2 N 0.1883(6) 0.2240(6) 0.6353(4)
H7_2 H 0.1678 0.1527 0.6815
H8_2 H 0.2621 0.3038 0.6846
O3 O 0.8148(4) 0.7723(3) 0.0123(3)
O8_2 O 0.1939(4) 0.0587(4) 0.1889(3)
H9_2 H 0.2482 0.0867 0.2638
H10_2 H 0.0976 0.0443 0.1963
O9_2 O 0.4955(4) 0.2243(3) 0.1480(3)
H11_2 H 0.5151 0.3212 0.1717
H12_2 H 0.5717 0.1915 0.1624
Nd3 Nd 0.71371(2) 0.95488(2) 0.009210(19)
O13 O 0.4165(3) 0.9023(3) 0.0768(3)
O10 O 0.1196(4) 0.9873(4) 0.7850(3)
O14 O 0.2774(3) 0.8737(4) 0.8097(3)
O1_2 O 0.5446(4) 0.7609(4) 0.1104(3)
C1_2 C 0.0776(5) 0.2524(5) 0.0253(4)
C2_2 C 0.1117(5) 0.4072(5) 0.0817(4)
C3_2 C 0.2476(5) 0.5184(5) 0.0698(4)
H1_2 H 0.3191 0.4961 0.0287
C4_2 C 0.2782(5) 0.6630(5) 0.1185(4)
C5_2 C 0.4224(5) 0.7827(5) 0.1012(4)
C6_2 C 0.1762(5) 0.6950(5) 0.1824(4)
H2_2 H 0.1943 0.7933 0.2134
C7_2 C 0.0484(5) 0.5810(5) 0.1999(4)
C8_2 C 0.0124(5) 0.4382(5) 0.1477(4)
C9_2 C 0.0074(5) 0.6759(5) 0.3855(4)
C10_2 C 0.1259(6) 0.6530(5) 0.4534(4)
H4_2 H 0.1712 0.5913 0.4195
C11_2 C 0.1765(5) 0.7220(5) 0.5714(4)
H5_2 H 0.2569 0.7069 0.6186
C12_2 C 0.1111(5) 0.8127(5) 0.6211(4)
C13_2 C 0.1718(5) 0.8942(5) 0.7446(4)
loop_
_geom_bond_atom_site_label_1
_geom_bond_atom_site_label_2
_geom_bond_site_symmetry_1
_geom_bond_site_symmetry_2
Nd4 O1 1_555 1_555
O1 C5 1_555 1_555
O2 C13 1_555 1_555
C1 C2 1_555 1_555
C2 C3 1_555 1_555
C3 H1 1_555 1_555
C4 C3 1_555 1_555
C5 C4 1_555 1_555
O5 Nd4 1_555 1_555
C6 C4 1_555 1_555
H2 C6 1_555 1_555
C7 C6 1_555 1_555
C8 C2 1_555 1_555
C10 C9 1_555 1_555
H4 C10 1_555 1_555
C11 C10 1_555 1_555
H5 C11 1_555 1_555
C12 C11 1_555 1_555
C13 C12 1_555 1_555
O7 C13 1_555 1_555
O11 Nd4 1_555 1_555
C5 O5 1_555 1_555
C7 C8 1_555 1_555
H9 O8 1_555 1_555
H10 O8 1_555 1_555
H11 O9 1_555 1_555
H12 O9 1_555 1_555
H6 C14 1_555 1_555
N1 C15 1_555 1_555
H7 N1 1_555 1_555
H8 N1 1_555 1_555
C14 C15 1_555 1_555
H6_2 C14_2 1_555 1_555
N1_2 C15_2 1_555 1_555
H7_2 N1_2 1_555 1_555
H8_2 N1_2 1_555 1_555
C14_2 C15_2 1_555 1_555
H9_2 O8_2 1_555 1_555
H10_2 O8_2 1_555 1_555
H11_2 O9_2 1_555 1_555
H12_2 O9_2 1_555 1_555
Nd3 O3 1_555 1_555
Nd3 O13 1_555 1_555
Nd3 O1_2 1_555 1_555
O1_2 C5_2 1_555 1_555
O10 C13_2 1_555 1_555
C1_2 C2_2 1_555 1_555
C2_2 C3_2 1_555 1_555
C3_2 H1_2 1_555 1_555
C4_2 C3_2 1_555 1_555
C5_2 C4_2 1_555 1_555
C6_2 C4_2 1_555 1_555
H2_2 C6_2 1_555 1_555
C7_2 C6_2 1_555 1_555
C8_2 C2_2 1_555 1_555
C10_2 C9_2 1_555 1_555
H4_2 C10_2 1_555 1_555
C11_2 C10_2 1_555 1_555
H5_2 C11_2 1_555 1_555
C12_2 C11_2 1_555 1_555
C13_2 C12_2 1_555 1_555
O14 C13_2 1_555 1_555
C5_2 O13 1_555 1_555
C7_2 C8_2 1_555 1_555

#END
