
###############################################################################
#
# This file contains modified crystal structure data generated from the
# MOF subset of the Cambridge Structural Database (CSD) v543 
# hosted by the Cambridge Crystallographic Data Centre (CCDC).
#
# This work is licensed under the Creative Commons
# Attribution-NonCommercial-ShareAlike 4.0 International License.
# To view a copy of this license, visit
# http://creativecommons.org/licenses/by-nc-sa/4.0/
# or send a letter to
# Creative Commons, PO Box 1866, Mountain View, CA 94042, USA.
#
# CIF created using the CSD Python API on 29 September 2022
# The structure has been converted into the P1 space group
# The structure has a 3D framework
# The original CSD entry EWALUK is in the rhombohedral crystal system
# The framework has been calculated to contain at least 10.0% void space
# The void calculation uses a probe of radius 1.32A, grid spacing 0.4
#
###############################################################################

data_EWALUK
_chemical_formula_moiety         '(C648 H576 O168 Zn56)n'
_symmetry_cell_setting           triclinic
_symmetry_space_group_name_H-M   'P 1'
_symmetry_Int_Tables_number      1
_space_group_name_Hall           'P 1'
loop_
_symmetry_equiv_pos_site_id
_symmetry_equiv_pos_as_xyz
1 x,y,z
_cell_length_a                   22.6523(6)
_cell_length_b                   22.6523(6)
_cell_length_c                   65.9502(16)
_cell_angle_alpha                90
_cell_angle_beta                 90
_cell_angle_gamma                120
_cell_volume                     29307
loop_
_atom_site_label
_atom_site_type_symbol
_atom_site_fract_x
_atom_site_fract_y
_atom_site_fract_z
Zn1 Zn -0.0000 -0.0000 0.545577(15)
O5 O -0.0000 -0.0000 0.57469(8)
Zn8 Zn 0.09439(4) 0.05152(3) 0.583602(9)
O15 O 0.0875(2) 0.0614(4) 0.53556(6)
Zn1_2 Zn -0.0000 1.0000 0.545577(15)
O5_2 O -0.0000 1.0000 0.57469(8)
Zn1_3 Zn 1.0000 -0.0000 0.545577(15)
O5_3 O 1.0000 -0.0000 0.57469(8)
Zn11 Zn 0.94848(3) 0.04288(3) 0.583602(9)
O16 O 0.9386(4) 0.0261(3) 0.53556(6)
Zn1_4 Zn 1.0000 1.0000 0.545577(15)
Zn2 Zn 0.62379(3) 0.38485(3) 0.416935(9)
O1 O 0.68593(18) 0.45920(16) 0.43373(5)
O2 O 0.92839(15) 0.84144(17) 0.56150(6)
O3 O 0.9739(3) 0.9125(2) 0.53556(6)
O4 O 0.78226(15) 0.45355(15) 0.43412(5)
O5_4 O 1.0000 1.0000 0.57469(8)
C1 C 0.8315(5) 0.6361(3) 0.48463(11)
C2 C 0.7742(3) 0.5321(3) 0.45604(9)
C3 C 0.8622(4) 0.6914(3) 0.49989(12)
C4 C 0.8671(4) 0.6062(3) 0.47750(10)
C5 C 0.8377(3) 0.5540(3) 0.46349(9)
H1 H 0.8620 0.5333 0.4591
C6 C 0.7402(4) 0.5617(3) 0.46293(9)
H2 H 0.6962 0.5464 0.4582
C7 C 0.7675(5) 0.6140(4) 0.47682(11)
C8 C 0.7440(3) 0.4773(3) 0.43975(9)
C9 C 0.9137(4) 0.7964(3) 0.52814(10)
C10 C 0.8772(3) 0.7298(3) 0.53419(11)
H3 H 0.8703 0.7200 0.5480
C11 C 0.8504(4) 0.6766(3) 0.52036(12)
C12 C 0.9015(5) 0.7579(4) 0.49293(11)
C13 C 0.9261(4) 0.8104(4) 0.50816(12)
H4 H 0.9516 0.8556 0.5041
C14 C 0.9398(3) 0.8537(3) 0.54327(12)
C15 C 0.8140(4) 0.6047(4) 0.52726(12)
H5 H 0.7661 0.5889 0.5282
H6 H 0.8308 0.6016 0.5403
H7 H 0.8216 0.5771 0.5177
C16 C 0.9153(5) 0.7773(4) 0.47049(11)
H8 H 0.9550 0.7755 0.4662
H9 H 0.9230 0.8226 0.4686
H10 H 0.8768 0.7458 0.4626
C17 C 0.9391(5) 0.6297(4) 0.48634(14)
H11 H 0.9726 0.6678 0.4787
H12 H 0.9485 0.5929 0.4856
H13 H 0.9406 0.6430 0.5002
C18 C 0.7285(5) 0.6477(4) 0.48478(12)
H14 H 0.7012 0.6224 0.4962
H15 H 0.6995 0.6484 0.4743
H16 H 0.7601 0.6935 0.4889
Zn5 Zn 0.61515(3) 0.23894(4) 0.416935(9)
Zn6 Zn 0.76106(4) 0.37621(3) 0.416935(9)
Zn9 Zn 0.95712(3) 0.90561(4) 0.583602(9)
O6 O 0.54080(16) 0.22673(24) 0.43373(5)
O7 O 0.77327(24) 0.31407(18) 0.43373(5)
O8 O 0.15856(17) 0.08695(23) 0.56150(6)
O9 O 0.91305(23) 0.07161(15) 0.56150(6)
O10 O 0.57972(23) 0.17477(17) 0.39483(6)
O11 O 0.59506(15) 0.42028(23) 0.39483(6)
O12 O 0.82523(17) 0.40494(15) 0.39483(6)
O17 O 0.54645(15) 0.32871(21) 0.43412(5)
O18 O 0.67129(21) 0.21774(15) 0.43412(5)
O19 O 0.6667 0.3333 0.40802(8)
C19 C 0.3639(3) 0.1954(6) 0.48463(11)
C20 C 0.8046(6) 0.1685(5) 0.48463(11)
C21 C 0.4679(3) 0.2421(4) 0.45604(9)
C22 C 0.7579(4) 0.2258(3) 0.45604(9)
C23 C 0.3086(3) 0.1708(5) 0.49989(12)
C24 C 0.8292(5) 0.1378(4) 0.49989(12)
C25 C 0.3938(3) 0.2609(5) 0.47750(10)
C26 C 0.7391(5) 0.1329(4) 0.47750(10)
C27 C 0.4460(3) 0.2837(4) 0.46349(9)
C28 C 0.7163(4) 0.1623(3) 0.46349(9)
H17 H 0.4667 0.3287 0.4591
H18 H 0.6713 0.1380 0.4591
C29 C 0.4383(3) 0.1785(5) 0.46293(9)
C30 C 0.8215(5) 0.2598(4) 0.46293(9)
H19 H 0.4536 0.1498 0.4582
H20 H 0.8502 0.3038 0.4582
C31 C 0.3860(4) 0.1535(6) 0.47682(11)
C32 C 0.8465(6) 0.2325(5) 0.47682(11)
C33 C 0.5227(3) 0.2667(4) 0.43975(9)
C34 C 0.7333(4) 0.2560(3) 0.43975(9)
C35 C 0.2036(3) 0.1173(5) 0.52814(10)
C36 C 0.8827(5) 0.0863(4) 0.52814(10)
C37 C 0.2702(3) 0.1474(4) 0.53419(11)
C38 C 0.8526(4) 0.1228(3) 0.53419(11)
H21 H 0.2800 0.1503 0.5480
H22 H 0.8497 0.1297 0.5480
C39 C 0.3234(3) 0.1738(5) 0.52036(12)
C40 C 0.8262(5) 0.1496(4) 0.52036(12)
C41 C 0.2421(4) 0.1436(6) 0.49293(11)
C42 C 0.8564(6) 0.0985(5) 0.49293(11)
C43 C 0.1896(4) 0.1157(6) 0.50816(12)
C44 C 0.8843(6) 0.0739(4) 0.50816(12)
H23 H 0.1444 0.0960 0.5041
H24 H 0.9040 0.0484 0.5041
C45 C 0.1463(3) 0.0861(4) 0.54327(12)
C46 C 0.9139(4) 0.0602(3) 0.54327(12)
C47 C 0.3953(4) 0.2093(6) 0.52726(12)
C48 C 0.7907(6) 0.1860(4) 0.52726(12)
H25 H 0.4111 0.1772 0.5282
H26 H 0.8228 0.2339 0.5282
H27 H 0.3984 0.2292 0.5403
H28 H 0.7708 0.1692 0.5403
H29 H 0.4229 0.2445 0.5177
H30 H 0.7555 0.1784 0.5177
C49 C 0.2227(4) 0.1380(6) 0.47049(11)
C50 C 0.8620(6) 0.0847(5) 0.47049(11)
H31 H 0.2245 0.1795 0.4662
H32 H 0.8205 0.0450 0.4662
H33 H 0.1774 0.1004 0.4686
H34 H 0.8996 0.0770 0.4686
H35 H 0.2542 0.1310 0.4626
H36 H 0.8690 0.1232 0.4626
C51 C 0.3703(4) 0.3094(6) 0.48634(14)
C52 C 0.6906(6) 0.0609(5) 0.48634(14)
H37 H 0.3322 0.3048 0.4787
H38 H 0.6952 0.0274 0.4787
H39 H 0.4071 0.3556 0.4856
H40 H 0.6444 0.0515 0.4856
H41 H 0.3570 0.2976 0.5002
H42 H 0.7024 0.0594 0.5002
C53 C 0.3523(4) 0.0808(6) 0.48478(12)
C54 C 0.9192(6) 0.2715(5) 0.48478(12)
H43 H 0.3776 0.0788 0.4962
H44 H 0.9212 0.2988 0.4962
H45 H 0.3516 0.0511 0.4743
H46 H 0.9489 0.3005 0.4743
H47 H 0.3065 0.0666 0.4889
H48 H 0.9334 0.2399 0.4889
Zn1_5 Zn 0.6667 0.3333 0.878910(15)
O2_2 O 0.59506(15) 0.17477(17) 0.89483(6)
O3_2 O 0.6406(3) 0.2458(2) 0.86889(6)
O5_5 O 0.6667 0.3333 0.90802(8)
C3_2 C 0.5289(4) 0.0247(3) 0.83322(12)
C9_2 C 0.5804(4) 0.1297(3) 0.86147(10)
C10_2 C 0.5439(3) 0.0631(3) 0.86752(11)
H3_2 H 0.5370 0.0533 0.8813
C11_2 C 0.5171(4) 0.0099(3) 0.85369(12)
C12_2 C 0.5682(5) 0.0912(4) 0.82626(11)
C13_2 C 0.5928(4) 0.1437(4) 0.84149(12)
H4_2 H 0.6183 0.1889 0.8374
C14_2 C 0.6065(3) 0.1870(3) 0.87660(12)
C16_2 C 0.5820(5) 0.1106(4) 0.80382(11)
H8_2 H 0.6217 0.1088 0.7995
H9_2 H 0.5897 0.1559 0.8019
H10_2 H 0.5435 0.0791 0.7959
H11_2 H 0.6393 0.0011 0.8120
H16_2 H 0.4268 0.0268 0.8222
Zn8_2 Zn 0.76106(4) 0.38485(3) 0.916935(9)
Zn9_2 Zn 0.62379(3) 0.23894(4) 0.916935(9)
Zn11_2 Zn 0.61515(3) 0.37621(3) 0.916935(9)
O15_2 O 0.7542(2) 0.3947(4) 0.86889(6)
O16_2 O 0.6053(4) 0.3594(3) 0.86889(6)
Zn2_2 Zn 0.29046(3) 0.71818(3) 0.750268(9)
O1_2 O 0.35260(18) 0.79253(16) 0.76706(5)
O4_2 O 0.44893(15) 0.78688(15) 0.76745(5)
C1_2 C 0.4982(5) 0.9694(3) 0.81796(11)
C2_2 C 0.4409(3) 0.8654(3) 0.78937(9)
C4_2 C 0.5338(4) 0.9395(3) 0.81083(10)
C5_2 C 0.5044(3) 0.8873(3) 0.79682(9)
H1_2 H 0.5287 0.8666 0.7924
C6_2 C 0.4069(4) 0.8950(3) 0.79626(9)
H2_2 H 0.3629 0.8797 0.7915
C7_2 C 0.4342(5) 0.9473(4) 0.81015(11)
C8_2 C 0.4107(3) 0.8106(3) 0.77308(9)
C15_2 C 0.4807(4) 0.9380(4) 0.86059(12)
H5_2 H 0.4328 0.9222 0.8615
H6_2 H 0.4975 0.9349 0.8736
H7_2 H 0.4883 0.9104 0.8510
C17_2 C 0.6058(5) 0.9630(4) 0.81967(14)
H12_2 H 0.6152 0.9262 0.8189
H13_2 H 0.6073 0.9763 0.8335
C18_2 C 0.3952(5) 0.9810(4) 0.81811(12)
H14_2 H 0.3679 0.9557 0.8295
H15_2 H 0.3662 0.9817 0.8076
Zn5_2 Zn 0.28182(3) 0.57227(4) 0.750268(9)
Zn6_2 Zn 0.42773(4) 0.70954(3) 0.750268(9)
O6_2 O 0.20747(16) 0.56006(24) 0.76706(5)
O7_2 O 0.43994(24) 0.64740(18) 0.76706(5)
O9_2 O 0.57972(23) 0.40494(15) 0.89483(6)
O10_2 O 0.24638(23) 0.50811(17) 0.72817(6)
O11_2 O 0.26172(15) 0.75362(23) 0.72817(6)
O12_2 O 0.49189(17) 0.73828(15) 0.72817(6)
O17_2 O 0.21312(15) 0.66204(21) 0.76745(5)
O18_2 O 0.33796(21) 0.55107(15) 0.76745(5)
O19_2 O 0.3333 0.6667 0.74136(8)
C19_2 C 0.0306(3) 0.5287(6) 0.81796(11)
C20_2 C 0.4713(6) 0.5018(5) 0.81796(11)
C21_2 C 0.1346(3) 0.5754(4) 0.78937(9)
C22_2 C 0.4246(4) 0.5591(3) 0.78937(9)
C24_2 C 0.4959(5) 0.4711(4) 0.83322(12)
C25_2 C 0.0605(3) 0.5942(5) 0.81083(10)
C26_2 C 0.4058(5) 0.4662(4) 0.81083(10)
C27_2 C 0.1127(3) 0.6170(4) 0.79682(9)
C28_2 C 0.3830(4) 0.4956(3) 0.79682(9)
H17_2 H 0.1334 0.6620 0.7924
H18_2 H 0.3380 0.4713 0.7924
C29_2 C 0.1050(3) 0.5118(5) 0.79626(9)
C30_2 C 0.4882(5) 0.5931(4) 0.79626(9)
H19_2 H 0.1203 0.4831 0.7915
H20_2 H 0.5169 0.6371 0.7915
C31_2 C 0.0527(4) 0.4868(6) 0.81015(11)
C32_2 C 0.5132(6) 0.5658(5) 0.81015(11)
C33_2 C 0.1894(3) 0.6000(4) 0.77308(9)
C34_2 C 0.4000(4) 0.5893(3) 0.77308(9)
C36_2 C 0.5494(5) 0.4196(4) 0.86147(10)
C38_2 C 0.5193(4) 0.4561(3) 0.86752(11)
H22_2 H 0.5164 0.4630 0.8813
C40_2 C 0.4929(5) 0.4829(4) 0.85369(12)
C42_2 C 0.5231(6) 0.4318(5) 0.82626(11)
C44_2 C 0.5510(6) 0.4072(4) 0.84149(12)
H24_2 H 0.5707 0.3817 0.8374
C46_2 C 0.5806(4) 0.3935(3) 0.87660(12)
C47_2 C 0.0620(4) 0.5426(6) 0.86059(12)
C48_2 C 0.4574(6) 0.5193(4) 0.86059(12)
H25_2 H 0.0778 0.5105 0.8615
H26_2 H 0.4895 0.5672 0.8615
H27_2 H 0.0651 0.5625 0.8736
H28_2 H 0.4375 0.5025 0.8736
H29_2 H 0.0896 0.5778 0.8510
H30_2 H 0.4222 0.5117 0.8510
C50_2 C 0.5287(6) 0.4180(5) 0.80382(11)
H32_2 H 0.4872 0.3783 0.7995
H34_2 H 0.5663 0.4103 0.8019
H36_2 H 0.5357 0.4565 0.7959
C51_2 C 0.0370(4) 0.6427(6) 0.81967(14)
C52_2 C 0.3573(6) 0.3942(5) 0.81967(14)
H38_2 H 0.3619 0.3607 0.8120
H39_2 H 0.0738 0.6889 0.8189
H40_2 H 0.3111 0.3848 0.8189
H41_2 H 0.0237 0.6309 0.8335
H42_2 H 0.3691 0.3927 0.8335
C53_2 C 0.0190(4) 0.4141(6) 0.81811(12)
C54_2 C 0.5859(6) 0.6048(5) 0.81811(12)
H43_2 H 0.0443 0.4121 0.8295
H44_2 H 0.5879 0.6321 0.8295
H45_2 H 0.0183 0.3844 0.8076
H46_2 H 0.6156 0.6338 0.8076
H48_2 H 0.6001 0.5732 0.8222
O8_2 O 0.82523(17) 0.42028(23) 0.89483(6)
C23_2 C 0.9753(3) 0.5041(5) 0.83322(12)
C35_2 C 0.8703(3) 0.4506(5) 0.86147(10)
C37_2 C 0.9369(3) 0.4807(4) 0.86752(11)
H21_2 H 0.9467 0.4836 0.8813
C39_2 C 0.9901(3) 0.5071(5) 0.85369(12)
C41_2 C 0.9088(4) 0.4769(6) 0.82626(11)
C43_2 C 0.8563(4) 0.4490(6) 0.84149(12)
H23_2 H 0.8111 0.4293 0.8374
C45_2 C 0.8130(3) 0.4194(4) 0.87660(12)
C49_2 C 0.8894(4) 0.4713(6) 0.80382(11)
H31_2 H 0.8912 0.5128 0.7995
H33_2 H 0.8441 0.4337 0.8019
H35_2 H 0.9209 0.4643 0.7959
H37_2 H 0.9989 0.6381 0.8120
H47_2 H 0.9732 0.3999 0.8222
Zn1_6 Zn 0.3333 0.6667 0.212244(15)
O1_3 O 0.01926(18) 0.12587(16) 0.10040(5)
O2_3 O 0.26172(15) 0.50811(17) 0.22817(6)
O3_3 O 0.3072(3) 0.5792(2) 0.20223(6)
O4_3 O 0.11559(15) 0.12022(15) 0.10079(5)
O5_6 O 0.3333 0.6667 0.24136(8)
C1_3 C 0.1648(5) 0.3028(3) 0.15130(11)
C2_3 C 0.1075(3) 0.1988(3) 0.12271(9)
C3_3 C 0.1955(4) 0.3581(3) 0.16656(12)
C4_3 C 0.2004(4) 0.2729(3) 0.14417(10)
C5_3 C 0.1710(3) 0.2207(3) 0.13016(9)
H1_3 H 0.1953 0.2000 0.1258
C6_3 C 0.0735(4) 0.2284(3) 0.12960(9)
H2_3 H 0.0295 0.2131 0.1249
C7_3 C 0.1008(5) 0.2807(4) 0.14349(11)
C8_3 C 0.0773(3) 0.1440(3) 0.10642(9)
C9_3 C 0.2470(4) 0.4631(3) 0.19481(10)
C10_3 C 0.2105(3) 0.3965(3) 0.20086(11)
H3_3 H 0.2036 0.3867 0.2147
C11_3 C 0.1837(4) 0.3433(3) 0.18703(12)
C12_3 C 0.2348(5) 0.4246(4) 0.15960(11)
C13_3 C 0.2594(4) 0.4771(4) 0.17483(12)
H4_3 H 0.2849 0.5223 0.1708
C14_3 C 0.2731(3) 0.5204(3) 0.20994(12)
C15_3 C 0.1473(4) 0.2714(4) 0.19393(12)
H5_3 H 0.0994 0.2556 0.1949
H6_3 H 0.1641 0.2683 0.2070
H7_3 H 0.1549 0.2438 0.1844
C16_3 C 0.2486(5) 0.4440(4) 0.13716(11)
H8_3 H 0.2883 0.4422 0.1329
H9_3 H 0.2563 0.4893 0.1353
H10_3 H 0.2101 0.4125 0.1293
C17_3 C 0.2724(5) 0.2964(4) 0.15301(14)
H11_3 H 0.3059 0.3345 0.1454
H12_3 H 0.2818 0.2596 0.1523
H13_3 H 0.2739 0.3097 0.1669
C18_3 C 0.0618(5) 0.3144(4) 0.15145(12)
H14_3 H 0.0345 0.2891 0.1629
H15_3 H 0.0328 0.3151 0.1410
H16_3 H 0.0934 0.3602 0.1556
Zn6_3 Zn 0.09439(4) 0.04288(3) 0.083602(9)
Zn8_3 Zn 0.42773(4) 0.71818(3) 0.250268(9)
Zn9_3 Zn 0.29046(3) 0.57227(4) 0.250268(9)
Zn11_3 Zn 0.28182(3) 0.70954(3) 0.250268(9)
O12_3 O 0.15856(17) 0.07161(15) 0.06150(6)
O15_3 O 0.4208(2) 0.7281(4) 0.20223(6)
O16_3 O 0.2719(4) 0.6928(3) 0.20223(6)
O19_3 O 0.0000 -0.0000 0.07469(8)
O7_3 O 0.10660(24) 0.98074(18) 0.10040(5)
O9_3 O 0.24638(23) 0.73828(15) 0.22817(6)
O18_3 O 0.00462(21) 0.88441(15) 0.10079(5)
O19_4 O -0.0000 1.0000 0.07469(8)
C20_3 C 0.1379(6) 0.8352(5) 0.15130(11)
C22_3 C 0.0912(4) 0.8925(3) 0.12271(9)
C24_3 C 0.1625(5) 0.8045(4) 0.16656(12)
C26_3 C 0.0724(5) 0.7996(4) 0.14417(10)
C28_3 C 0.0496(4) 0.8290(3) 0.13016(9)
H18_3 H 0.0046 0.8047 0.1258
C30_3 C 0.1548(5) 0.9265(4) 0.12960(9)
H20_3 H 0.1835 0.9705 0.1249
C32_3 C 0.1798(6) 0.8992(5) 0.14349(11)
C34_3 C 0.0666(4) 0.9227(3) 0.10642(9)
C36_3 C 0.2160(5) 0.7530(4) 0.19481(10)
C38_3 C 0.1859(4) 0.7895(3) 0.20086(11)
H22_3 H 0.1830 0.7964 0.2147
C40_3 C 0.1595(5) 0.8163(4) 0.18703(12)
C42_3 C 0.1897(6) 0.7652(5) 0.15960(11)
C44_3 C 0.2176(6) 0.7406(4) 0.17483(12)
H24_3 H 0.2373 0.7151 0.1708
C46_3 C 0.2472(4) 0.7269(3) 0.20994(12)
C48_3 C 0.1240(6) 0.8527(4) 0.19393(12)
H26_3 H 0.1561 0.9006 0.1949
H28_3 H 0.1041 0.8359 0.2070
H30_3 H 0.0888 0.8451 0.1844
C50_3 C 0.1953(6) 0.7514(5) 0.13716(11)
H32_3 H 0.1538 0.7117 0.1329
H34_3 H 0.2329 0.7437 0.1353
H36_3 H 0.2023 0.7899 0.1293
C52_3 C 0.0239(6) 0.7276(5) 0.15301(14)
H38_3 H 0.0285 0.6941 0.1454
H42_3 H 0.0357 0.7261 0.1669
C54_3 C 0.2525(6) 0.9382(5) 0.15145(12)
H44_3 H 0.2545 0.9655 0.1629
H46_3 H 0.2822 0.9672 0.1410
H48_3 H 0.2667 0.9066 0.1556
Zn2_3 Zn 0.95712(3) 0.05152(3) 0.083602(9)
O11_3 O 0.92839(15) 0.08695(23) 0.06150(6)
O19_5 O 1.0000 -0.0000 0.07469(8)
H39_3 H 0.7404 0.0223 0.1523
Zn5_3 Zn 0.94848(3) 0.90561(4) 0.083602(9)
O6_3 O 0.87413(16) 0.89340(24) 0.10040(5)
O8_3 O 0.49189(17) 0.75362(23) 0.22817(6)
O10_3 O 0.91305(23) 0.84144(17) 0.06150(6)
O17_3 O 0.87978(15) 0.99538(21) 0.10079(5)
O19_6 O 1.0000 1.0000 0.07469(8)
C19_3 C 0.6972(3) 0.8621(6) 0.15130(11)
C21_3 C 0.8012(3) 0.9088(4) 0.12271(9)
C23_3 C 0.6419(3) 0.8375(5) 0.16656(12)
C25_3 C 0.7271(3) 0.9276(5) 0.14417(10)
C27_3 C 0.7793(3) 0.9504(4) 0.13016(9)
H17_3 H 0.8000 0.9954 0.1258
C29_3 C 0.7716(3) 0.8452(5) 0.12960(9)
H19_3 H 0.7869 0.8165 0.1249
C31_3 C 0.7193(4) 0.8202(6) 0.14349(11)
C33_3 C 0.8560(3) 0.9334(4) 0.10642(9)
C35_3 C 0.5369(3) 0.7840(5) 0.19481(10)
C37_3 C 0.6035(3) 0.8141(4) 0.20086(11)
H21_3 H 0.6133 0.8170 0.2147
C39_3 C 0.6567(3) 0.8405(5) 0.18703(12)
C41_3 C 0.5754(4) 0.8103(6) 0.15960(11)
C43_3 C 0.5229(4) 0.7824(6) 0.17483(12)
H23_3 H 0.4777 0.7627 0.1708
C45_3 C 0.4796(3) 0.7528(4) 0.20994(12)
C47_3 C 0.7286(4) 0.8760(6) 0.19393(12)
H25_3 H 0.7444 0.8439 0.1949
H27_3 H 0.7317 0.8959 0.2070
H29_3 H 0.7562 0.9112 0.1844
C49_3 C 0.5560(4) 0.8047(6) 0.13716(11)
H31_3 H 0.5578 0.8462 0.1329
H33_3 H 0.5107 0.7671 0.1353
H35_3 H 0.5875 0.7977 0.1293
C51_3 C 0.7036(4) 0.9761(6) 0.15301(14)
H37_3 H 0.6655 0.9715 0.1454
H40_3 H 0.9777 0.7182 0.1523
H41_3 H 0.6903 0.9643 0.1669
C53_3 C 0.6856(4) 0.7475(6) 0.15145(12)
H43_3 H 0.7109 0.7455 0.1629
H45_3 H 0.6849 0.7178 0.1410
H47_3 H 0.6398 0.7333 0.1556
Zn1_7 Zn 0.0000 -0.0000 0.045577(15)
O16_4 O 0.0875(5) 0.0261(3) 0.03556(6)
Zn1_8 Zn -0.0000 1.0000 0.045577(15)
Zn1_9 Zn 1.0000 -0.0000 0.045577(15)
O15_4 O 0.9739(4) 0.0614(4) 0.03556(6)
Zn1_10 Zn 1.0000 1.0000 0.045577(15)
O3_4 O 0.9386(4) 0.9125(2) 0.03556(6)
C9_4 C 0.8827(5) 0.7964(3) 0.02814(10)
C10_4 C 0.8526(4) 0.7298(3) 0.03419(11)
H3_4 H 0.8497 0.7200 0.0480
C11_4 C 0.8262(5) 0.6766(3) 0.02036(12)
C13_4 C 0.8843(6) 0.8104(4) 0.00816(12)
H4_4 H 0.9040 0.8556 0.0041
C14_4 C 0.9139(4) 0.8537(3) 0.04327(12)
C15_4 C 0.7907(6) 0.6047(4) 0.02726(12)
H5_4 H 0.8228 0.5889 0.0282
H6_4 H 0.7708 0.6016 0.0403
H7_4 H 0.7555 0.5771 0.0177
H13_4 H 0.7024 0.6430 0.0002
C35_4 C 0.9137(6) 0.1173(5) 0.02814(10)
C36_4 C 0.2036(6) 0.0863(4) 0.02814(10)
C37_4 C 0.8772(5) 0.1474(4) 0.03419(11)
C38_4 C 0.2702(5) 0.1228(3) 0.03419(11)
H21_4 H 0.8703 0.1503 0.0480
H22_4 H 0.2800 0.1297 0.0480
C39_4 C 0.8504(6) 0.1738(5) 0.02036(12)
C40_4 C 0.3234(6) 0.1496(4) 0.02036(12)
C43_4 C 0.9261(7) 0.1157(6) 0.00816(12)
C44_4 C 0.1896(7) 0.0739(4) 0.00816(12)
H23_4 H 0.9516 0.0960 0.0041
H24_4 H 0.1444 0.0484 0.0041
C45_4 C 0.9398(5) 0.0861(4) 0.04327(12)
C46_4 C 0.1463(5) 0.0602(3) 0.04327(12)
C47_4 C 0.8140(7) 0.2093(6) 0.02726(12)
C48_4 C 0.3953(7) 0.1860(4) 0.02726(12)
H25_4 H 0.7661 0.1772 0.0282
H26_4 H 0.4111 0.2339 0.0282
H27_4 H 0.8308 0.2292 0.0403
H28_4 H 0.3984 0.1692 0.0403
H29_4 H 0.8216 0.2445 0.0177
H30_4 H 0.4229 0.1784 0.0177
H41_4 H 0.9406 0.2976 0.0002
H42_4 H 0.3570 0.0594 0.0002
O1_4 O 0.77327(24) 0.45920(16) 0.93373(5)
O4_4 O 0.67129(21) 0.45355(15) 0.93412(5)
C1_4 C 0.8046(6) 0.6361(3) 0.98463(11)
C2_4 C 0.7579(4) 0.5321(3) 0.95604(9)
C3_4 C 0.8292(5) 0.6914(3) 0.99989(12)
C4_4 C 0.7391(5) 0.6062(3) 0.97750(10)
C5_4 C 0.7163(4) 0.5540(3) 0.96349(9)
H1_4 H 0.6713 0.5333 0.9591
C6_4 C 0.8215(5) 0.5617(3) 0.96293(9)
H2_4 H 0.8502 0.5464 0.9582
C7_4 C 0.8465(6) 0.6140(4) 0.97682(11)
C8_4 C 0.7333(4) 0.4773(3) 0.93975(9)
C12_4 C 0.8564(6) 0.7579(4) 0.99293(11)
C16_4 C 0.8620(6) 0.7773(4) 0.97049(11)
H8_4 H 0.8205 0.7755 0.9662
H9_4 H 0.8996 0.8226 0.9686
H10_4 H 0.8690 0.7458 0.9626
C17_4 C 0.6906(6) 0.6297(4) 0.98634(14)
H11_4 H 0.6952 0.6678 0.9787
H12_4 H 0.6444 0.5929 0.9856
C18_4 C 0.9192(6) 0.6477(4) 0.98478(12)
H14_4 H 0.9212 0.6224 0.9962
H15_4 H 0.9489 0.6484 0.9743
H16_4 H 0.9334 0.6935 0.9889
O6_4 O 0.68593(29) 0.22673(24) 0.93373(5)
O7_4 O 0.54080(30) 0.31407(18) 0.93373(5)
O17_4 O 0.78226(26) 0.32871(21) 0.93412(5)
O18_4 O 0.54645(26) 0.21774(15) 0.93412(5)
C19_4 C 0.8315(7) 0.1954(6) 0.98463(11)
C20_4 C 0.3639(8) 0.1685(5) 0.98463(11)
C21_4 C 0.7742(5) 0.2421(4) 0.95604(9)
C22_4 C 0.4679(5) 0.2258(3) 0.95604(9)
C23_4 C 0.8622(6) 0.1708(5) 0.99989(12)
C24_4 C 0.3086(6) 0.1378(4) 0.99989(12)
C25_4 C 0.8671(6) 0.2609(5) 0.97750(10)
C26_4 C 0.3938(6) 0.1329(4) 0.97750(10)
C27_4 C 0.8377(5) 0.2837(4) 0.96349(9)
C28_4 C 0.4460(5) 0.1623(3) 0.96349(9)
H17_4 H 0.8620 0.3287 0.9591
H18_4 H 0.4667 0.1380 0.9591
C29_4 C 0.7402(6) 0.1785(5) 0.96293(9)
C30_4 C 0.4383(6) 0.2598(4) 0.96293(9)
H19_4 H 0.6962 0.1498 0.9582
H20_4 H 0.4536 0.3038 0.9582
C31_4 C 0.7675(7) 0.1535(6) 0.97682(11)
C32_4 C 0.3860(8) 0.2325(5) 0.97682(11)
C33_4 C 0.7440(5) 0.2667(4) 0.93975(9)
C34_4 C 0.5227(5) 0.2560(3) 0.93975(9)
C41_4 C 0.9015(7) 0.1436(6) 0.99293(11)
C42_4 C 0.2421(8) 0.0985(5) 0.99293(11)
C49_4 C 0.9153(7) 0.1380(6) 0.97049(11)
C50_4 C 0.2227(8) 0.0847(5) 0.97049(11)
H31_4 H 0.9550 0.1795 0.9662
H32_4 H 0.2245 0.0450 0.9662
H33_4 H 0.9230 0.1004 0.9686
H34_4 H 0.1774 0.0770 0.9686
H35_4 H 0.8768 0.1310 0.9626
H36_4 H 0.2542 0.1232 0.9626
C51_4 C 0.9391(7) 0.3094(6) 0.98634(14)
C52_4 C 0.3703(8) 0.0609(5) 0.98634(14)
H37_4 H 0.9726 0.3048 0.9787
H38_4 H 0.3322 0.0274 0.9787
H39_4 H 0.9485 0.3556 0.9856
H40_4 H 0.4071 0.0515 0.9856
C53_4 C 0.7285(7) 0.0808(6) 0.98478(12)
C54_4 C 0.3523(8) 0.2715(5) 0.98478(12)
H43_4 H 0.7012 0.0788 0.9962
H44_4 H 0.3776 0.2988 0.9962
H45_4 H 0.6995 0.0511 0.9743
H46_4 H 0.3516 0.3005 0.9743
H47_4 H 0.7601 0.0666 0.9889
H48_4 H 0.3065 0.2399 0.9889
Zn1_11 Zn 0.3333 0.6667 0.712244(15)
O1_5 O 0.10660(24) 0.12587(16) 0.60040(5)
O3_5 O 0.2719(4) 0.5792(2) 0.70223(6)
O4_5 O 0.00462(21) 0.12022(15) 0.60079(5)
C1_5 C 0.1379(6) 0.3028(3) 0.65130(11)
C2_5 C 0.0912(4) 0.1988(3) 0.62271(9)
C3_5 C 0.1625(5) 0.3581(3) 0.66656(12)
C4_5 C 0.0724(5) 0.2729(3) 0.64417(10)
C5_5 C 0.0496(4) 0.2207(3) 0.63016(9)
H1_5 H 0.0046 0.2000 0.6258
C6_5 C 0.1548(5) 0.2284(3) 0.62960(9)
H2_5 H 0.1835 0.2131 0.6249
C7_5 C 0.1798(6) 0.2807(4) 0.64349(11)
C8_5 C 0.0666(4) 0.1440(3) 0.60642(9)
C9_5 C 0.2160(5) 0.4631(3) 0.69481(10)
C10_5 C 0.1859(4) 0.3965(3) 0.70086(11)
H3_5 H 0.1830 0.3867 0.7147
C11_5 C 0.1595(5) 0.3433(3) 0.68703(12)
C12_5 C 0.1897(6) 0.4246(4) 0.65960(11)
C13_5 C 0.2176(6) 0.4771(4) 0.67483(12)
H4_5 H 0.2373 0.5223 0.6708
C14_5 C 0.2472(4) 0.5204(3) 0.70994(12)
C15_5 C 0.1240(6) 0.2714(4) 0.69393(12)
H5_5 H 0.1561 0.2556 0.6949
H6_5 H 0.1041 0.2683 0.7070
H7_5 H 0.0888 0.2438 0.6844
C16_5 C 0.1953(6) 0.4440(4) 0.63716(11)
H8_5 H 0.1538 0.4422 0.6329
H9_5 H 0.2329 0.4893 0.6353
H10_5 H 0.2023 0.4125 0.6293
C17_5 C 0.0239(6) 0.2964(4) 0.65301(14)
H11_5 H 0.0285 0.3345 0.6454
H13_5 H 0.0357 0.3097 0.6669
C18_5 C 0.2525(6) 0.3144(4) 0.65145(12)
H14_5 H 0.2545 0.2891 0.6629
H15_5 H 0.2822 0.3151 0.6410
H16_5 H 0.2667 0.3602 0.6556
O15_5 O 0.3072(4) 0.7281(4) 0.70223(6)
O16_5 O 0.4208(5) 0.6928(3) 0.70223(6)
H39_5 H 0.2818 0.0223 0.6523
O6_5 O 0.01926(29) 0.89340(24) 0.60040(5)
O17_5 O 0.11559(26) 0.99538(21) 0.60079(5)
C19_5 C 0.1648(7) 0.8621(6) 0.65130(11)
C21_5 C 0.1075(5) 0.9088(4) 0.62271(9)
C23_5 C 0.1955(6) 0.8375(5) 0.66656(12)
C25_5 C 0.2004(6) 0.9276(5) 0.64417(10)
C27_5 C 0.1710(5) 0.9504(4) 0.63016(9)
H17_5 H 0.1953 0.9954 0.6258
C29_5 C 0.0735(6) 0.8452(5) 0.62960(9)
H19_5 H 0.0295 0.8165 0.6249
C31_5 C 0.1008(7) 0.8202(6) 0.64349(11)
C33_5 C 0.0773(5) 0.9334(4) 0.60642(9)
C35_5 C 0.2470(6) 0.7840(5) 0.69481(10)
C37_5 C 0.2105(5) 0.8141(4) 0.70086(11)
H21_5 H 0.2036 0.8170 0.7147
C39_5 C 0.1837(6) 0.8405(5) 0.68703(12)
C41_5 C 0.2348(7) 0.8103(6) 0.65960(11)
C43_5 C 0.2594(7) 0.7824(6) 0.67483(12)
H23_5 H 0.2849 0.7627 0.6708
C45_5 C 0.2731(5) 0.7528(4) 0.70994(12)
C47_5 C 0.1473(7) 0.8760(6) 0.69393(12)
H25_5 H 0.0994 0.8439 0.6949
H27_5 H 0.1641 0.8959 0.7070
H29_5 H 0.1549 0.9112 0.6844
C49_5 C 0.2486(7) 0.8047(6) 0.63716(11)
H31_5 H 0.2883 0.8462 0.6329
H33_5 H 0.2563 0.7671 0.6353
H35_5 H 0.2101 0.7977 0.6293
C51_5 C 0.2724(7) 0.9761(6) 0.65301(14)
H37_5 H 0.3059 0.9715 0.6454
H41_5 H 0.2739 0.9643 0.6669
C53_5 C 0.0618(7) 0.7475(6) 0.65145(12)
H43_5 H 0.0345 0.7455 0.6629
H45_5 H 0.0328 0.7178 0.6410
H47_5 H 0.0934 0.7333 0.6556
H12_5 H 0.9777 0.2596 0.6523
O7_5 O 0.87413(30) 0.98074(18) 0.60040(5)
O18_5 O 0.87978(26) 0.88441(15) 0.60079(5)
C20_5 C 0.6972(8) 0.8352(5) 0.65130(11)
C22_5 C 0.8012(5) 0.8925(3) 0.62271(9)
C24_5 C 0.6419(6) 0.8045(4) 0.66656(12)
C26_5 C 0.7271(6) 0.7996(4) 0.64417(10)
C28_5 C 0.7793(5) 0.8290(3) 0.63016(9)
H18_5 H 0.8000 0.8047 0.6258
C30_5 C 0.7716(6) 0.9265(4) 0.62960(9)
H20_5 H 0.7869 0.9705 0.6249
C32_5 C 0.7193(8) 0.8992(5) 0.64349(11)
C34_5 C 0.8560(5) 0.9227(3) 0.60642(9)
C36_5 C 0.5369(6) 0.7530(4) 0.69481(10)
C38_5 C 0.6035(5) 0.7895(3) 0.70086(11)
H22_5 H 0.6133 0.7964 0.7147
C40_5 C 0.6567(6) 0.8163(4) 0.68703(12)
C42_5 C 0.5754(8) 0.7652(5) 0.65960(11)
C44_5 C 0.5229(7) 0.7406(4) 0.67483(12)
H24_5 H 0.4777 0.7151 0.6708
C46_5 C 0.4796(5) 0.7269(3) 0.70994(12)
C48_5 C 0.7286(7) 0.8527(4) 0.69393(12)
H26_5 H 0.7444 0.9006 0.6949
H28_5 H 0.7317 0.8359 0.7070
H30_5 H 0.7562 0.8451 0.6844
C50_5 C 0.5560(8) 0.7514(5) 0.63716(11)
H32_5 H 0.5578 0.7117 0.6329
H34_5 H 0.5107 0.7437 0.6353
H36_5 H 0.5875 0.7899 0.6293
C52_5 C 0.7036(8) 0.7276(5) 0.65301(14)
H38_5 H 0.6655 0.6941 0.6454
H40_5 H 0.7404 0.7182 0.6523
H42_5 H 0.6903 0.7261 0.6669
C54_5 C 0.6856(8) 0.9382(5) 0.65145(12)
H44_5 H 0.7109 0.9655 0.6629
H46_5 H 0.6849 0.9672 0.6410
H48_5 H 0.6398 0.9066 0.6556
Zn1_12 Zn 0.6667 0.3333 0.378910(15)
O3_6 O 0.6053(4) 0.2458(2) 0.36889(6)
C3_6 C 0.4959(5) 0.0247(3) 0.33322(12)
C9_6 C 0.5494(5) 0.1297(3) 0.36147(10)
C10_6 C 0.5193(4) 0.0631(3) 0.36752(11)
H3_6 H 0.5164 0.0533 0.3813
C11_6 C 0.4929(5) 0.0099(3) 0.35369(12)
C12_6 C 0.5231(6) 0.0912(4) 0.32626(11)
C13_6 C 0.5510(6) 0.1437(4) 0.34149(12)
H4_6 H 0.5707 0.1889 0.3374
C14_6 C 0.5806(4) 0.1870(3) 0.37660(12)
C16_6 C 0.5287(6) 0.1106(4) 0.30382(11)
H8_6 H 0.4872 0.1088 0.2995
H9_6 H 0.5663 0.1559 0.3019
H10_6 H 0.5357 0.0791 0.2959
H11_6 H 0.3619 0.0011 0.3120
H16_6 H 0.6001 0.0268 0.3222
O15_6 O 0.6406(4) 0.3947(4) 0.36889(6)
O16_6 O 0.7542(5) 0.3594(3) 0.36889(6)
O1_6 O 0.43994(24) 0.79253(16) 0.26706(5)
O4_6 O 0.33796(21) 0.78688(15) 0.26745(5)
C1_6 C 0.4713(6) 0.9694(3) 0.31796(11)
C2_6 C 0.4246(4) 0.8654(3) 0.28937(9)
C4_6 C 0.4058(5) 0.9395(3) 0.31083(10)
C5_6 C 0.3830(4) 0.8873(3) 0.29682(9)
H1_6 H 0.3380 0.8666 0.2924
C6_6 C 0.4882(5) 0.8950(3) 0.29626(9)
H2_6 H 0.5169 0.8797 0.2915
C7_6 C 0.5132(6) 0.9473(4) 0.31015(11)
C8_6 C 0.4000(4) 0.8106(3) 0.27308(9)
C15_6 C 0.4574(6) 0.9380(4) 0.36059(12)
H5_6 H 0.4895 0.9222 0.3615
H6_6 H 0.4375 0.9349 0.3736
H7_6 H 0.4222 0.9104 0.3510
C17_6 C 0.3573(6) 0.9630(4) 0.31967(14)
H12_6 H 0.3111 0.9262 0.3189
H13_6 H 0.3691 0.9763 0.3335
C18_6 C 0.5859(6) 0.9810(4) 0.31811(12)
H14_6 H 0.5879 0.9557 0.3295
H15_6 H 0.6156 0.9817 0.3076
O6_6 O 0.35260(29) 0.56006(24) 0.26706(5)
O7_6 O 0.20747(30) 0.64740(18) 0.26706(5)
O17_6 O 0.44893(26) 0.66204(21) 0.26745(5)
O18_6 O 0.21312(26) 0.55107(15) 0.26745(5)
C19_6 C 0.4982(7) 0.5287(6) 0.31796(11)
C20_6 C 0.0306(8) 0.5018(5) 0.31796(11)
C21_6 C 0.4409(5) 0.5754(4) 0.28937(9)
C22_6 C 0.1346(5) 0.5591(3) 0.28937(9)
C23_6 C 0.5289(6) 0.5041(5) 0.33322(12)
C25_6 C 0.5338(6) 0.5942(5) 0.31083(10)
C26_6 C 0.0605(6) 0.4662(4) 0.31083(10)
C27_6 C 0.5044(5) 0.6170(4) 0.29682(9)
C28_6 C 0.1127(5) 0.4956(3) 0.29682(9)
H17_6 H 0.5287 0.6620 0.2924
H18_6 H 0.1334 0.4713 0.2924
C29_6 C 0.4069(6) 0.5118(5) 0.29626(9)
C30_6 C 0.1050(6) 0.5931(4) 0.29626(9)
H19_6 H 0.3629 0.4831 0.2915
H20_6 H 0.1203 0.6371 0.2915
C31_6 C 0.4342(7) 0.4868(6) 0.31015(11)
C32_6 C 0.0527(8) 0.5658(5) 0.31015(11)
C33_6 C 0.4107(5) 0.6000(4) 0.27308(9)
C34_6 C 0.1894(5) 0.5893(3) 0.27308(9)
C35_6 C 0.5804(6) 0.4506(5) 0.36147(10)
C37_6 C 0.5439(5) 0.4807(4) 0.36752(11)
H21_6 H 0.5370 0.4836 0.3813
C39_6 C 0.5171(6) 0.5071(5) 0.35369(12)
C41_6 C 0.5682(7) 0.4769(6) 0.32626(11)
C43_6 C 0.5928(7) 0.4490(6) 0.34149(12)
H23_6 H 0.6183 0.4293 0.3374
C45_6 C 0.6065(5) 0.4194(4) 0.37660(12)
C47_6 C 0.4807(7) 0.5426(6) 0.36059(12)
C48_6 C 0.0620(7) 0.5193(4) 0.36059(12)
H25_6 H 0.4328 0.5105 0.3615
H26_6 H 0.0778 0.5672 0.3615
H27_6 H 0.4975 0.5625 0.3736
H28_6 H 0.0651 0.5025 0.3736
H29_6 H 0.4883 0.5778 0.3510
H30_6 H 0.0896 0.5117 0.3510
C49_6 C 0.5820(7) 0.4713(6) 0.30382(11)
H31_6 H 0.6217 0.5128 0.2995
H33_6 H 0.5897 0.4337 0.3019
H35_6 H 0.5435 0.4643 0.2959
C51_6 C 0.6058(7) 0.6427(6) 0.31967(14)
C52_6 C 0.0370(8) 0.3942(5) 0.31967(14)
H37_6 H 0.6393 0.6381 0.3120
H39_6 H 0.6152 0.6889 0.3189
H40_6 H 0.0738 0.3848 0.3189
H41_6 H 0.6073 0.6309 0.3335
H42_6 H 0.0237 0.3927 0.3335
C53_6 C 0.3952(7) 0.4141(6) 0.31811(12)
C54_6 C 0.0190(8) 0.6048(5) 0.31811(12)
H43_6 H 0.3679 0.4121 0.3295
H44_6 H 0.0443 0.6321 0.3295
H45_6 H 0.3662 0.3844 0.3076
H46_6 H 0.0183 0.6338 0.3076
H47_6 H 0.4268 0.3999 0.3222
C24_6 C 0.9753(6) 0.4711(4) 0.33322(12)
C36_6 C 0.8703(6) 0.4196(4) 0.36147(10)
C38_6 C 0.9369(5) 0.4561(3) 0.36752(11)
H22_6 H 0.9467 0.4630 0.3813
C40_6 C 0.9901(6) 0.4829(4) 0.35369(12)
C42_6 C 0.9088(8) 0.4318(5) 0.32626(11)
C44_6 C 0.8563(7) 0.4072(4) 0.34149(12)
H24_6 H 0.8111 0.3817 0.3374
C46_6 C 0.8130(5) 0.3935(3) 0.37660(12)
C50_6 C 0.8894(8) 0.4180(5) 0.30382(11)
H32_6 H 0.8912 0.3783 0.2995
H34_6 H 0.8441 0.4103 0.3019
H36_6 H 0.9209 0.4565 0.2959
H38_6 H 0.9989 0.3607 0.3120
H48_6 H 0.9732 0.5732 0.3222
Zn4 Zn -0.0000 0.0000 0.954423(15)
Zn4_2 Zn -0.0000 1.0000 0.954423(15)
Zn4_3 Zn 1.0000 0.0000 0.954423(15)
Zn2_4 Zn 0.23894(4) 0.61515(3) 0.083065(9)
O1_7 O 0.22673(24) 0.54080(16) 0.06627(5)
O4_7 O 0.32871(21) 0.54645(15) 0.06588(5)
C1_7 C 0.1954(6) 0.3639(3) 0.01537(11)
C2_7 C 0.2421(4) 0.4679(3) 0.04396(9)
C3_7 C 0.1708(5) 0.3086(3) 0.00011(12)
C4_7 C 0.2609(5) 0.3938(3) 0.02250(10)
C5_7 C 0.2837(4) 0.4460(3) 0.03651(9)
H1_7 H 0.3287 0.4667 0.0409
C6_7 C 0.1785(5) 0.4383(3) 0.03707(9)
H2_7 H 0.1498 0.4536 0.0418
C7_7 C 0.1535(6) 0.3860(4) 0.02318(11)
C8_7 C 0.2667(4) 0.5227(3) 0.06025(9)
C12_7 C 0.1436(6) 0.2421(4) 0.00707(11)
C16_7 C 0.1380(6) 0.2227(4) 0.02951(11)
H8_7 H 0.1795 0.2245 0.0338
H9_7 H 0.1004 0.1774 0.0314
H10_7 H 0.1310 0.2542 0.0374
C17_7 C 0.3094(6) 0.3703(4) 0.01366(14)
H11_7 H 0.3048 0.3322 0.0213
H12_7 H 0.3556 0.4071 0.0144
C18_7 C 0.0808(6) 0.3523(4) 0.01522(12)
H14_7 H 0.0788 0.3776 0.0038
H15_7 H 0.0511 0.3516 0.0257
H16_7 H 0.0666 0.3065 0.0111
Zn5_4 Zn 0.37621(5) 0.76106(4) 0.083065(9)
Zn6_4 Zn 0.38485(5) 0.62379(3) 0.083065(9)
O6_7 O 0.31407(29) 0.77327(24) 0.06627(5)
O7_7 O 0.45920(30) 0.68593(18) 0.06627(5)
O10_4 O 0.40494(29) 0.82523(17) 0.10517(6)
O11_4 O 0.17477(27) 0.57972(23) 0.10517(6)
O12_4 O 0.42028(23) 0.59506(15) 0.10517(6)
O17_7 O 0.21774(26) 0.67129(21) 0.06588(5)
O18_7 O 0.45355(26) 0.78226(15) 0.06588(5)
O19_7 O 0.3333 0.6667 0.09198(8)
C19_7 C 0.1685(7) 0.8046(6) 0.01537(11)
C20_7 C 0.6361(8) 0.8315(5) 0.01537(11)
C21_7 C 0.2258(5) 0.7579(4) 0.04396(9)
C22_7 C 0.5321(5) 0.7742(3) 0.04396(9)
C23_7 C 0.1378(6) 0.8292(5) 0.00011(12)
C24_7 C 0.6914(6) 0.8622(4) 0.00011(12)
C25_7 C 0.1329(6) 0.7391(5) 0.02250(10)
C26_7 C 0.6062(6) 0.8671(4) 0.02250(10)
C27_7 C 0.1623(5) 0.7163(4) 0.03651(9)
C28_7 C 0.5540(5) 0.8377(3) 0.03651(9)
H17_7 H 0.1380 0.6713 0.0409
H18_7 H 0.5333 0.8620 0.0409
C29_7 C 0.2598(6) 0.8215(5) 0.03707(9)
C30_7 C 0.5617(6) 0.7402(4) 0.03707(9)
H19_7 H 0.3038 0.8502 0.0418
H20_7 H 0.5464 0.6962 0.0418
C31_7 C 0.2325(7) 0.8465(6) 0.02318(11)
C32_7 C 0.6140(8) 0.7675(5) 0.02318(11)
C33_7 C 0.2560(5) 0.7333(4) 0.06025(9)
C34_7 C 0.4773(5) 0.7440(3) 0.06025(9)
C41_7 C 0.0985(7) 0.8564(6) 0.00707(11)
C42_7 C 0.7579(8) 0.9015(5) 0.00707(11)
C49_7 C 0.0847(7) 0.8620(6) 0.02951(11)
C50_7 C 0.7773(8) 0.9153(5) 0.02951(11)
H31_7 H 0.0450 0.8205 0.0338
H32_7 H 0.7755 0.9550 0.0338
H33_7 H 0.0770 0.8996 0.0314
H34_7 H 0.8226 0.9230 0.0314
H35_7 H 0.1232 0.8690 0.0374
H36_7 H 0.7458 0.8768 0.0374
C51_7 C 0.0609(7) 0.6906(6) 0.01366(14)
C52_7 C 0.6297(8) 0.9391(5) 0.01366(14)
H37_7 H 0.0274 0.6952 0.0213
H38_7 H 0.6678 0.9726 0.0213
H39_7 H 0.0515 0.6444 0.0144
H40_7 H 0.5929 0.9485 0.0144
C53_7 C 0.2715(7) 0.9192(6) 0.01522(12)
C54_7 C 0.6477(8) 0.7285(5) 0.01522(12)
H43_7 H 0.2988 0.9212 0.0038
H44_7 H 0.6224 0.7012 0.0038
H45_7 H 0.3005 0.9489 0.0257
H46_7 H 0.6484 0.6995 0.0257
H47_7 H 0.2399 0.9334 0.0111
H48_7 H 0.6935 0.7601 0.0111
O2_4 O 0.08695(23) 0.15856(17) 0.93850(6)
O3_7 O 0.0614(4) 0.0875(2) 0.96444(6)
O5_7 O 0.0000 0.0000 0.92531(8)
C9_7 C 0.1173(5) 0.2036(3) 0.97186(10)
C10_7 C 0.1474(4) 0.2702(3) 0.96581(11)
H3_7 H 0.1503 0.2800 0.9520
C11_7 C 0.1738(5) 0.3234(3) 0.97964(12)
C13_7 C 0.1157(6) 0.1896(4) 0.99184(12)
H4_7 H 0.0960 0.1444 0.9959
C14_7 C 0.0861(4) 0.1463(3) 0.95673(12)
C15_7 C 0.2093(6) 0.3953(4) 0.97274(12)
H5_7 H 0.1772 0.4111 0.9718
H6_7 H 0.2292 0.3984 0.9597
H7_7 H 0.2445 0.4229 0.9823
H13_7 H 0.2976 0.3570 0.9998
Zn4_4 Zn 1.0000 1.0000 0.954423(15)
Zn7 Zn 0.04288(5) 0.94848(3) 0.916398(9)
Zn9_4 Zn 0.05152(5) 0.09439(4) 0.916398(9)
Zn10 Zn 0.90561(4) 0.95712(3) 0.916398(9)
O8_4 O 0.07161(29) 0.91305(23) 0.93850(6)
O9_4 O 0.84144(27) 0.92839(15) 0.93850(6)
O13 O 0.0261(4) 0.9386(4) 0.96444(6)
O14 O 0.9125(5) 0.9739(3) 0.96444(6)
C35_7 C 0.0863(6) 0.8827(5) 0.97186(10)
C36_7 C 0.7964(6) 0.9137(4) 0.97186(10)
C37_7 C 0.1228(5) 0.8526(4) 0.96581(11)
C38_7 C 0.7298(5) 0.8772(3) 0.96581(11)
H21_7 H 0.1297 0.8497 0.9520
H22_7 H 0.7200 0.8703 0.9520
C39_7 C 0.1496(6) 0.8262(5) 0.97964(12)
C40_7 C 0.6766(6) 0.8504(4) 0.97964(12)
C43_7 C 0.0739(7) 0.8843(6) 0.99184(12)
C44_7 C 0.8104(7) 0.9261(4) 0.99184(12)
H23_7 H 0.0484 0.9040 0.9959
H24_7 H 0.8556 0.9516 0.9959
C45_7 C 0.0602(5) 0.9139(4) 0.95673(12)
C46_7 C 0.8537(5) 0.9398(3) 0.95673(12)
C47_7 C 0.1860(7) 0.7907(6) 0.97274(12)
C48_7 C 0.6047(7) 0.8140(4) 0.97274(12)
H25_7 H 0.2339 0.8228 0.9718
H26_7 H 0.5889 0.7661 0.9718
H27_7 H 0.1692 0.7708 0.9597
H28_7 H 0.6016 0.8308 0.9597
H29_7 H 0.1784 0.7555 0.9823
H30_7 H 0.5771 0.8216 0.9823
H41_7 H 0.0594 0.7024 0.9998
H42_7 H 0.6430 0.9406 0.9998
O5_8 O -0.0000 1.0000 0.92531(8)
O5_9 O 1.0000 0.0000 0.92531(8)
O5_10 O 1.0000 1.0000 0.92531(8)
Zn4_5 Zn 0.6667 0.3333 0.287756(15)
Zn5_5 Zn 0.04288(5) 0.09439(4) 0.416398(9)
Zn10_2 Zn 0.57227(4) 0.29046(3) 0.249732(9)
O7_8 O 0.12587(30) 0.01926(18) 0.39960(5)
O9_5 O 0.50811(27) 0.26172(15) 0.27183(6)
O10_5 O 0.07161(29) 0.15856(17) 0.43850(6)
O14_2 O 0.5792(5) 0.3072(3) 0.29777(6)
O18_8 O 0.12022(26) 0.11559(15) 0.39921(5)
O19_8 O 0.0000 0.0000 0.42531(8)
C20_8 C 0.3028(8) 0.1648(5) 0.34870(11)
C22_8 C 0.1988(5) 0.1075(3) 0.37729(9)
C24_8 C 0.3581(6) 0.1955(4) 0.33344(12)
C26_8 C 0.2729(6) 0.2004(4) 0.35583(10)
C28_8 C 0.2207(5) 0.1710(3) 0.36984(9)
H18_8 H 0.2000 0.1953 0.3742
C30_8 C 0.2284(6) 0.0735(4) 0.37040(9)
H20_8 H 0.2131 0.0295 0.3751
C32_8 C 0.2807(8) 0.1008(5) 0.35651(11)
C34_8 C 0.1440(5) 0.0773(3) 0.39358(9)
C36_8 C 0.4631(6) 0.2470(4) 0.30519(10)
C38_8 C 0.3965(5) 0.2105(3) 0.29914(11)
H22_8 H 0.3867 0.2036 0.2853
C40_8 C 0.3433(6) 0.1837(4) 0.31297(12)
C42_8 C 0.4246(8) 0.2348(5) 0.34040(11)
C44_8 C 0.4771(7) 0.2594(4) 0.32517(12)
H24_8 H 0.5223 0.2849 0.3292
C46_8 C 0.5204(5) 0.2731(3) 0.29006(12)
C48_8 C 0.2714(7) 0.1473(4) 0.30607(12)
H26_8 H 0.2556 0.0994 0.3051
H28_8 H 0.2683 0.1641 0.2930
H30_8 H 0.2438 0.1549 0.3156
C50_8 C 0.4440(8) 0.2486(5) 0.36284(11)
H32_8 H 0.4422 0.2883 0.3671
H34_8 H 0.4893 0.2563 0.3647
H36_8 H 0.4125 0.2101 0.3707
C52_8 C 0.2964(8) 0.2724(5) 0.34699(14)
H38_8 H 0.3345 0.3059 0.3546
H40_8 H 0.2596 0.2818 0.3477
H42_8 H 0.3097 0.2739 0.3331
C54_8 C 0.3144(8) 0.0618(5) 0.34855(12)
H44_8 H 0.2891 0.0345 0.3371
H46_8 H 0.3151 0.0328 0.3590
H48_8 H 0.3602 0.0934 0.3444
H12_8 H 0.0223 0.7404 0.3477
Zn6_5 Zn 0.05152(5) 0.95712(3) 0.416398(9)
O12_5 O 0.08695(23) 0.92839(15) 0.43850(6)
O19_9 O 0.0000 1.0000 0.42531(8)
Zn7_2 Zn 0.70954(5) 0.28182(3) 0.249732(9)
O6_8 O 0.98074(29) 0.10660(24) 0.39960(5)
O8_5 O 0.73828(29) 0.24638(23) 0.27183(6)
O13_2 O 0.6928(4) 0.2719(4) 0.29777(6)
O17_8 O 0.88441(26) 0.00462(21) 0.39921(5)
O19_10 O 1.0000 0.0000 0.42531(8)
C19_8 C 0.8352(7) 0.1379(6) 0.34870(11)
C21_8 C 0.8925(5) 0.0912(4) 0.37729(9)
C23_8 C 0.8045(6) 0.1625(5) 0.33344(12)
C25_8 C 0.7996(6) 0.0724(5) 0.35583(10)
C27_8 C 0.8290(5) 0.0496(4) 0.36984(9)
H17_8 H 0.8047 0.0046 0.3742
C29_8 C 0.9265(6) 0.1548(5) 0.37040(9)
H19_8 H 0.9705 0.1835 0.3751
C31_8 C 0.8992(7) 0.1798(6) 0.35651(11)
C33_8 C 0.9227(5) 0.0666(4) 0.39358(9)
C35_8 C 0.7530(6) 0.2160(5) 0.30519(10)
C37_8 C 0.7895(5) 0.1859(4) 0.29914(11)
H21_8 H 0.7964 0.1830 0.2853
C39_8 C 0.8163(6) 0.1595(5) 0.31297(12)
C41_8 C 0.7652(7) 0.1897(6) 0.34040(11)
C43_8 C 0.7406(7) 0.2176(6) 0.32517(12)
H23_8 H 0.7151 0.2373 0.3292
C45_8 C 0.7269(5) 0.2472(4) 0.29006(12)
C47_8 C 0.8527(7) 0.1240(6) 0.30607(12)
H25_8 H 0.9006 0.1561 0.3051
H27_8 H 0.8359 0.1041 0.2930
H29_8 H 0.8451 0.0888 0.3156
C49_8 C 0.7514(7) 0.1953(6) 0.36284(11)
H31_8 H 0.7117 0.1538 0.3671
H33_8 H 0.7437 0.2329 0.3647
H35_8 H 0.7899 0.2023 0.3707
C51_8 C 0.7276(7) 0.0239(6) 0.34699(14)
H37_8 H 0.6941 0.0285 0.3546
H41_8 H 0.7261 0.0357 0.3331
C53_8 C 0.9382(7) 0.2525(6) 0.34855(12)
H43_8 H 0.9655 0.2545 0.3371
H45_8 H 0.9672 0.2822 0.3590
H47_8 H 0.9066 0.2667 0.3444
Zn2_5 Zn 0.90561(4) 0.94848(3) 0.416398(9)
O1_8 O 0.89340(24) 0.87413(16) 0.39960(5)
O2_5 O 0.75362(23) 0.49189(17) 0.27183(6)
O3_8 O 0.7281(4) 0.4208(2) 0.29777(6)
O4_8 O 0.99538(21) 0.87978(15) 0.39921(5)
O5_11 O 0.6667 0.3333 0.25864(8)
C1_8 C 0.8621(6) 0.6972(3) 0.34870(11)
C2_8 C 0.9088(4) 0.8012(3) 0.37729(9)
C3_8 C 0.8375(5) 0.6419(3) 0.33344(12)
C4_8 C 0.9276(5) 0.7271(3) 0.35583(10)
C5_8 C 0.9504(4) 0.7793(3) 0.36984(9)
H1_8 H 0.9954 0.8000 0.3742
C6_8 C 0.8452(5) 0.7716(3) 0.37040(9)
H2_8 H 0.8165 0.7869 0.3751
C7_8 C 0.8202(6) 0.7193(4) 0.35651(11)
C8_8 C 0.9334(4) 0.8560(3) 0.39358(9)
C9_8 C 0.7840(5) 0.5369(3) 0.30519(10)
C10_8 C 0.8141(4) 0.6035(3) 0.29914(11)
H3_8 H 0.8170 0.6133 0.2853
C11_8 C 0.8405(5) 0.6567(3) 0.31297(12)
C12_8 C 0.8103(6) 0.5754(4) 0.34040(11)
C13_8 C 0.7824(6) 0.5229(4) 0.32517(12)
H4_8 H 0.7627 0.4777 0.3292
C14_8 C 0.7528(4) 0.4796(3) 0.29006(12)
C15_8 C 0.8760(6) 0.7286(4) 0.30607(12)
H5_8 H 0.8439 0.7444 0.3051
H6_8 H 0.8959 0.7317 0.2930
H7_8 H 0.9112 0.7562 0.3156
C16_8 C 0.8047(6) 0.5560(4) 0.36284(11)
H8_8 H 0.8462 0.5578 0.3671
H9_8 H 0.7671 0.5107 0.3647
H10_8 H 0.7977 0.5875 0.3707
C17_8 C 0.9761(6) 0.7036(4) 0.34699(14)
H11_8 H 0.9715 0.6655 0.3546
H13_8 H 0.9643 0.6903 0.3331
C18_8 C 0.7475(6) 0.6856(4) 0.34855(12)
H14_8 H 0.7455 0.7109 0.3371
H15_8 H 0.7178 0.6849 0.3590
H16_8 H 0.7333 0.6398 0.3444
Zn9_5 Zn 0.71818(5) 0.42773(4) 0.249732(9)
O11_5 O 0.84144(27) 0.91305(23) 0.43850(6)
O19_11 O 1.0000 1.0000 0.42531(8)
H39_8 H 0.7182 0.9777 0.3477
Zn4_6 Zn 0.3333 0.6667 0.621090(15)
Zn10_3 Zn 0.23894(4) 0.62379(3) 0.583065(9)
O9_6 O 0.17477(27) 0.59506(15) 0.60517(6)
O14_3 O 0.2458(5) 0.6406(3) 0.63111(6)
C24_9 C 0.0247(6) 0.5289(4) 0.66678(12)
C36_9 C 0.1297(6) 0.5804(4) 0.63853(10)
C38_9 C 0.0631(5) 0.5439(3) 0.63248(11)
H22_9 H 0.0533 0.5370 0.6187
C40_9 C 0.0099(6) 0.5171(4) 0.64631(12)
C42_9 C 0.0912(8) 0.5682(5) 0.67374(11)
C44_9 C 0.1437(7) 0.5928(4) 0.65851(12)
H24_9 H 0.1889 0.6183 0.6626
C46_9 C 0.1870(5) 0.6065(3) 0.62340(12)
C50_9 C 0.1106(8) 0.5820(5) 0.69618(11)
H32_9 H 0.1088 0.6217 0.7005
H34_9 H 0.1559 0.5897 0.6981
H36_9 H 0.0791 0.5435 0.7041
H38_9 H 0.0011 0.6393 0.6880
H48_9 H 0.0268 0.4268 0.6778
Zn2_6 Zn 0.57227(4) 0.28182(3) 0.749732(9)
O1_9 O 0.56006(24) 0.20747(16) 0.73294(5)
O4_9 O 0.66204(21) 0.21312(15) 0.73255(5)
C1_9 C 0.5287(6) 0.0306(3) 0.68204(11)
C2_9 C 0.5754(4) 0.1346(3) 0.71063(9)
C4_9 C 0.5942(5) 0.0605(3) 0.68917(10)
C5_9 C 0.6170(4) 0.1127(3) 0.70318(9)
H1_9 H 0.6620 0.1334 0.7076
C6_9 C 0.5118(5) 0.1050(3) 0.70374(9)
H2_9 H 0.4831 0.1203 0.7085
C7_9 C 0.4868(6) 0.0527(4) 0.68985(11)
C8_9 C 0.6000(4) 0.1894(3) 0.72692(9)
C15_9 C 0.5426(6) 0.0620(4) 0.63941(12)
H5_9 H 0.5105 0.0778 0.6385
H6_9 H 0.5625 0.0651 0.6264
H7_9 H 0.5778 0.0896 0.6490
C17_9 C 0.6427(6) 0.0370(4) 0.68033(14)
H12_9 H 0.6889 0.0738 0.6811
H13_9 H 0.6309 0.0237 0.6665
C18_9 C 0.4141(6) 0.0190(4) 0.68189(12)
H14_9 H 0.4121 0.0443 0.6705
H15_9 H 0.3844 0.0183 0.6924
Zn5_6 Zn 0.70954(5) 0.42773(4) 0.749732(9)
Zn6_6 Zn 0.71818(5) 0.29046(3) 0.749732(9)
Zn7_3 Zn 0.37621(5) 0.61515(3) 0.583065(9)
O6_9 O 0.64740(29) 0.43994(24) 0.73294(5)
O7_9 O 0.79253(30) 0.35260(18) 0.73294(5)
O8_6 O 0.40494(29) 0.57972(23) 0.60517(6)
O10_6 O 0.73828(29) 0.49189(17) 0.77183(6)
O11_6 O 0.50811(27) 0.24638(23) 0.77183(6)
O12_6 O 0.75362(23) 0.26172(15) 0.77183(6)
O13_3 O 0.3594(4) 0.6053(4) 0.63111(6)
O17_9 O 0.55107(26) 0.33796(21) 0.73255(5)
O18_9 O 0.78688(26) 0.44893(15) 0.73255(5)
O19_12 O 0.6667 0.3333 0.75864(8)
C19_9 C 0.5018(7) 0.4713(6) 0.68204(11)
C20_9 C 0.9694(8) 0.4982(5) 0.68204(11)
C21_9 C 0.5591(5) 0.4246(4) 0.71063(9)
C22_9 C 0.8654(5) 0.4409(3) 0.71063(9)
C23_9 C 0.4711(6) 0.4959(5) 0.66678(12)
C25_9 C 0.4662(6) 0.4058(5) 0.68917(10)
C26_9 C 0.9395(6) 0.5338(4) 0.68917(10)
C27_9 C 0.4956(5) 0.3830(4) 0.70318(9)
C28_9 C 0.8873(5) 0.5044(3) 0.70318(9)
H17_9 H 0.4713 0.3380 0.7076
H18_9 H 0.8666 0.5287 0.7076
C29_9 C 0.5931(6) 0.4882(5) 0.70374(9)
C30_9 C 0.8950(6) 0.4069(4) 0.70374(9)
H19_9 H 0.6371 0.5169 0.7085
H20_9 H 0.8797 0.3629 0.7085
C31_9 C 0.5658(7) 0.5132(6) 0.68985(11)
C32_9 C 0.9473(8) 0.4342(5) 0.68985(11)
C33_9 C 0.5893(5) 0.4000(4) 0.72692(9)
C34_9 C 0.8106(5) 0.4107(3) 0.72692(9)
C35_9 C 0.4196(6) 0.5494(5) 0.63853(10)
C37_9 C 0.4561(5) 0.5193(4) 0.63248(11)
H21_9 H 0.4630 0.5164 0.6187
C39_9 C 0.4829(6) 0.4929(5) 0.64631(12)
C41_9 C 0.4318(7) 0.5231(6) 0.67374(11)
C43_9 C 0.4072(7) 0.5510(6) 0.65851(12)
H23_9 H 0.3817 0.5707 0.6626
C45_9 C 0.3935(5) 0.5806(4) 0.62340(12)
C47_9 C 0.5193(7) 0.4574(6) 0.63941(12)
C48_9 C 0.9380(7) 0.4807(4) 0.63941(12)
H25_9 H 0.5672 0.4895 0.6385
H26_9 H 0.9222 0.4328 0.6385
H27_9 H 0.5025 0.4375 0.6264
H28_9 H 0.9349 0.4975 0.6264
H29_9 H 0.5117 0.4222 0.6490
H30_9 H 0.9104 0.4883 0.6490
C49_9 C 0.4180(7) 0.5287(6) 0.69618(11)
H31_9 H 0.3783 0.4872 0.7005
H33_9 H 0.4103 0.5663 0.6981
H35_9 H 0.4565 0.5357 0.7041
C51_9 C 0.3942(7) 0.3573(6) 0.68033(14)
C52_9 C 0.9630(8) 0.6058(5) 0.68033(14)
H37_9 H 0.3607 0.3619 0.6880
H39_9 H 0.3848 0.3111 0.6811
H40_9 H 0.9262 0.6152 0.6811
H41_9 H 0.3927 0.3691 0.6665
H42_9 H 0.9763 0.6073 0.6665
C53_9 C 0.6048(7) 0.5859(6) 0.68189(12)
C54_9 C 0.9810(8) 0.3952(5) 0.68189(12)
H43_9 H 0.6321 0.5879 0.6705
H44_9 H 0.9557 0.3679 0.6705
H45_9 H 0.6338 0.6156 0.6924
H46_9 H 0.9817 0.3662 0.6924
H47_9 H 0.5732 0.6001 0.6778
O2_6 O 0.42028(23) 0.82523(17) 0.60517(6)
O3_9 O 0.3947(4) 0.7542(2) 0.63111(6)
O5_12 O 0.3333 0.6667 0.59198(8)
C3_9 C 0.5041(5) 0.9753(3) 0.66678(12)
C9_9 C 0.4506(5) 0.8703(3) 0.63853(10)
C10_9 C 0.4807(4) 0.9369(3) 0.63248(11)
H3_9 H 0.4836 0.9467 0.6187
C11_9 C 0.5071(5) 0.9901(3) 0.64631(12)
C12_9 C 0.4769(6) 0.9088(4) 0.67374(11)
C13_9 C 0.4490(6) 0.8563(4) 0.65851(12)
H4_9 H 0.4293 0.8111 0.6626
C14_9 C 0.4194(4) 0.8130(3) 0.62340(12)
C16_9 C 0.4713(6) 0.8894(4) 0.69618(11)
H8_9 H 0.5128 0.8912 0.7005
H9_9 H 0.4337 0.8441 0.6981
H10_9 H 0.4643 0.9209 0.7041
H11_9 H 0.6381 0.9989 0.6880
H16_9 H 0.3999 0.9732 0.6778
Zn9_6 Zn 0.38485(5) 0.76106(4) 0.583065(9)
Zn3 Zn 0.0000 0.0000 0.454423(15)
Zn3_2 Zn -0.0000 1.0000 0.454423(15)
Zn3_3 Zn 1.0000 0.0000 0.454423(15)
O1_10 O 0.31407(18) 0.54080(16) 0.56627(5)
O3_10 O 0.0261(3) 0.0875(2) 0.46444(6)
O4_10 O 0.21774(15) 0.54645(15) 0.56588(5)
C1_10 C 0.1685(5) 0.3639(3) 0.51537(11)
C2_10 C 0.2258(3) 0.4679(3) 0.54396(9)
C3_10 C 0.1378(4) 0.3086(3) 0.50011(12)
C4_10 C 0.1329(4) 0.3938(3) 0.52250(10)
C5_10 C 0.1623(3) 0.4460(3) 0.53651(9)
H1_10 H 0.1380 0.4667 0.5409
C6_10 C 0.2598(4) 0.4383(3) 0.53707(9)
H2_10 H 0.3038 0.4536 0.5418
C7_10 C 0.2325(5) 0.3860(4) 0.52318(11)
C8_10 C 0.2560(3) 0.5227(3) 0.56025(9)
C9_10 C 0.0863(4) 0.2036(3) 0.47186(10)
C10_10 C 0.1228(3) 0.2702(3) 0.46581(11)
H3_10 H 0.1297 0.2800 0.4520
C11_10 C 0.1496(4) 0.3234(3) 0.47964(12)
C12_10 C 0.0985(5) 0.2421(4) 0.50707(11)
C13_10 C 0.0739(4) 0.1896(4) 0.49184(12)
H4_10 H 0.0484 0.1444 0.4959
C14_10 C 0.0602(3) 0.1463(3) 0.45673(12)
C15_10 C 0.1860(4) 0.3953(4) 0.47274(12)
H5_10 H 0.2339 0.4111 0.4718
H6_10 H 0.1692 0.3984 0.4597
H7_10 H 0.1784 0.4229 0.4823
C16_10 C 0.0847(5) 0.2227(4) 0.52951(11)
H8_10 H 0.0450 0.2245 0.5338
H9_10 H 0.0770 0.1774 0.5314
H10_10 H 0.1232 0.2542 0.5374
C17_10 C 0.0609(5) 0.3703(4) 0.51366(14)
H11_10 H 0.0274 0.3322 0.5213
H12_10 H 0.0515 0.4071 0.5144
H13_10 H 0.0594 0.3570 0.4998
C18_10 C 0.2715(5) 0.3523(4) 0.51522(12)
H14_10 H 0.2988 0.3776 0.5038
H15_10 H 0.3005 0.3516 0.5257
H16_10 H 0.2399 0.3065 0.5111
Zn3_4 Zn 1.0000 1.0000 0.454423(15)
O6_10 O 0.45920(16) 0.77327(24) 0.56627(5)
O7_10 O 0.22673(24) 0.68593(18) 0.56627(5)
O13_4 O 0.9125(2) 0.9386(4) 0.46444(6)
O14_4 O 0.0614(4) 0.9739(3) 0.46444(6)
O17_10 O 0.45355(15) 0.67129(21) 0.56588(5)
O18_10 O 0.32871(21) 0.78226(15) 0.56588(5)
C19_10 C 0.6361(3) 0.8046(6) 0.51537(11)
C20_10 C 0.1954(6) 0.8315(5) 0.51537(11)
C21_10 C 0.5321(3) 0.7579(4) 0.54396(9)
C22_10 C 0.2421(4) 0.7742(3) 0.54396(9)
C23_10 C 0.6914(3) 0.8292(5) 0.50011(12)
C24_10 C 0.1708(5) 0.8622(4) 0.50011(12)
C25_10 C 0.6062(3) 0.7391(5) 0.52250(10)
C26_10 C 0.2609(5) 0.8671(4) 0.52250(10)
C27_10 C 0.5540(3) 0.7163(4) 0.53651(9)
C28_10 C 0.2837(4) 0.8377(3) 0.53651(9)
H17_10 H 0.5333 0.6713 0.5409
H18_10 H 0.3287 0.8620 0.5409
C29_10 C 0.5617(3) 0.8215(5) 0.53707(9)
C30_10 C 0.1785(5) 0.7402(4) 0.53707(9)
H19_10 H 0.5464 0.8502 0.5418
H20_10 H 0.1498 0.6962 0.5418
C31_10 C 0.6140(4) 0.8465(6) 0.52318(11)
C32_10 C 0.1535(6) 0.7675(5) 0.52318(11)
C33_10 C 0.4773(3) 0.7333(4) 0.56025(9)
C34_10 C 0.2667(4) 0.7440(3) 0.56025(9)
C35_10 C 0.7964(3) 0.8827(5) 0.47186(10)
C36_10 C 0.1173(5) 0.9137(4) 0.47186(10)
C37_10 C 0.7298(3) 0.8526(4) 0.46581(11)
C38_10 C 0.1474(4) 0.8772(3) 0.46581(11)
H21_10 H 0.7200 0.8497 0.4520
H22_10 H 0.1503 0.8703 0.4520
C39_10 C 0.6766(3) 0.8262(5) 0.47964(12)
C40_10 C 0.1738(5) 0.8504(4) 0.47964(12)
C41_10 C 0.7579(4) 0.8564(6) 0.50707(11)
C42_10 C 0.1436(6) 0.9015(5) 0.50707(11)
C43_10 C 0.8104(4) 0.8843(6) 0.49184(12)
C44_10 C 0.1157(6) 0.9261(4) 0.49184(12)
H23_10 H 0.8556 0.9040 0.4959
H24_10 H 0.0960 0.9516 0.4959
C45_10 C 0.8537(3) 0.9139(4) 0.45673(12)
C46_10 C 0.0861(4) 0.9398(3) 0.45673(12)
C47_10 C 0.6047(4) 0.7907(6) 0.47274(12)
C48_10 C 0.2093(6) 0.8140(4) 0.47274(12)
H25_10 H 0.5889 0.8228 0.4718
H26_10 H 0.1772 0.7661 0.4718
H27_10 H 0.6016 0.7708 0.4597
H28_10 H 0.2292 0.8308 0.4597
H29_10 H 0.5771 0.7555 0.4823
H30_10 H 0.2445 0.8216 0.4823
C49_10 C 0.7773(4) 0.8620(6) 0.52951(11)
C50_10 C 0.1380(6) 0.9153(5) 0.52951(11)
H31_10 H 0.7755 0.8205 0.5338
H32_10 H 0.1795 0.9550 0.5338
H33_10 H 0.8226 0.8996 0.5314
H34_10 H 0.1004 0.9230 0.5314
H35_10 H 0.7458 0.8690 0.5374
H36_10 H 0.1310 0.8768 0.5374
C51_10 C 0.6297(4) 0.6906(6) 0.51366(14)
C52_10 C 0.3094(6) 0.9391(5) 0.51366(14)
H37_10 H 0.6678 0.6952 0.5213
H38_10 H 0.3048 0.9726 0.5213
H39_10 H 0.5929 0.6444 0.5144
H40_10 H 0.3556 0.9485 0.5144
H41_10 H 0.6430 0.7024 0.4998
H42_10 H 0.2976 0.9406 0.4998
C53_10 C 0.6477(4) 0.9192(6) 0.51522(12)
C54_10 C 0.0808(6) 0.7285(5) 0.51522(12)
H43_10 H 0.6224 0.9212 0.5038
H44_10 H 0.0788 0.7012 0.5038
H45_10 H 0.6484 0.9489 0.5257
H46_10 H 0.0511 0.6995 0.5257
H47_10 H 0.6935 0.9334 0.5111
H48_10 H 0.0666 0.7601 0.5111
Zn3_5 Zn 0.3333 0.6667 0.121090(15)
O13_5 O 0.2458(2) 0.6053(4) 0.13111(6)
C23_11 C 0.0247(3) 0.4959(5) 0.16678(12)
C35_11 C 0.1297(3) 0.5494(5) 0.13853(10)
C37_11 C 0.0631(3) 0.5193(4) 0.13248(11)
H21_11 H 0.0533 0.5164 0.1187
C39_11 C 0.0099(3) 0.4929(5) 0.14631(12)
C41_11 C 0.0912(4) 0.5231(6) 0.17374(11)
C43_11 C 0.1437(4) 0.5510(6) 0.15851(12)
H23_11 H 0.1889 0.5707 0.1626
C45_11 C 0.1870(3) 0.5806(4) 0.12340(12)
C49_11 C 0.1106(4) 0.5287(6) 0.19618(11)
H31_11 H 0.1088 0.4872 0.2005
H33_11 H 0.1559 0.5663 0.1981
H35_11 H 0.0791 0.5357 0.2041
H37_11 H 0.0011 0.3619 0.1880
H47_11 H 0.0268 0.6001 0.1778
O1_11 O 0.64740(18) 0.20747(16) 0.23294(5)
O4_11 O 0.55107(15) 0.21312(15) 0.23255(5)
C1_11 C 0.5018(5) 0.0306(3) 0.18204(11)
C2_11 C 0.5591(3) 0.1346(3) 0.21063(9)
C4_11 C 0.4662(4) 0.0605(3) 0.18917(10)
C5_11 C 0.4956(3) 0.1127(3) 0.20318(9)
H1_11 H 0.4713 0.1334 0.2076
C6_11 C 0.5931(4) 0.1050(3) 0.20374(9)
H2_11 H 0.6371 0.1203 0.2085
C7_11 C 0.5658(5) 0.0527(4) 0.18985(11)
C8_11 C 0.5893(3) 0.1894(3) 0.22692(9)
C15_11 C 0.5193(4) 0.0620(4) 0.13941(12)
H5_11 H 0.5672 0.0778 0.1385
H6_11 H 0.5025 0.0651 0.1264
H7_11 H 0.5117 0.0896 0.1490
C17_11 C 0.3942(5) 0.0370(4) 0.18033(14)
H12_11 H 0.3848 0.0738 0.1811
H13_11 H 0.3927 0.0237 0.1665
C18_11 C 0.6048(5) 0.0190(4) 0.18189(12)
H14_11 H 0.6321 0.0443 0.1705
H15_11 H 0.6338 0.0183 0.1924
O6_11 O 0.79253(16) 0.43994(24) 0.23294(5)
O7_11 O 0.56006(24) 0.35260(18) 0.23294(5)
O14_5 O 0.3947(4) 0.6406(3) 0.13111(6)
O17_11 O 0.78688(15) 0.33796(21) 0.23255(5)
O18_11 O 0.66204(21) 0.44893(15) 0.23255(5)
C19_11 C 0.9694(3) 0.4713(6) 0.18204(11)
C20_11 C 0.5287(6) 0.4982(5) 0.18204(11)
C21_11 C 0.8654(3) 0.4246(4) 0.21063(9)
C22_11 C 0.5754(4) 0.4409(3) 0.21063(9)
C24_11 C 0.5041(5) 0.5289(4) 0.16678(12)
C25_11 C 0.9395(3) 0.4058(5) 0.18917(10)
C26_11 C 0.5942(5) 0.5338(4) 0.18917(10)
C27_11 C 0.8873(3) 0.3830(4) 0.20318(9)
C28_11 C 0.6170(4) 0.5044(3) 0.20318(9)
H17_11 H 0.8666 0.3380 0.2076
H18_11 H 0.6620 0.5287 0.2076
C29_11 C 0.8950(3) 0.4882(5) 0.20374(9)
C30_11 C 0.5118(5) 0.4069(4) 0.20374(9)
H19_11 H 0.8797 0.5169 0.2085
H20_11 H 0.4831 0.3629 0.2085
C31_11 C 0.9473(4) 0.5132(6) 0.18985(11)
C32_11 C 0.4868(6) 0.4342(5) 0.18985(11)
C33_11 C 0.8106(3) 0.4000(4) 0.22692(9)
C34_11 C 0.6000(4) 0.4107(3) 0.22692(9)
C36_11 C 0.4506(5) 0.5804(4) 0.13853(10)
C38_11 C 0.4807(4) 0.5439(3) 0.13248(11)
H22_11 H 0.4836 0.5370 0.1187
C40_11 C 0.5071(5) 0.5171(4) 0.14631(12)
C42_11 C 0.4769(6) 0.5682(5) 0.17374(11)
C44_11 C 0.4490(6) 0.5928(4) 0.15851(12)
H24_11 H 0.4293 0.6183 0.1626
C46_11 C 0.4194(4) 0.6065(3) 0.12340(12)
C47_11 C 0.9380(4) 0.4574(6) 0.13941(12)
C48_11 C 0.5426(6) 0.4807(4) 0.13941(12)
H25_11 H 0.9222 0.4895 0.1385
H26_11 H 0.5105 0.4328 0.1385
H27_11 H 0.9349 0.4375 0.1264
H28_11 H 0.5625 0.4975 0.1264
H29_11 H 0.9104 0.4222 0.1490
H30_11 H 0.5778 0.4883 0.1490
C50_11 C 0.4713(6) 0.5820(5) 0.19618(11)
H32_11 H 0.5128 0.6217 0.2005
H34_11 H 0.4337 0.5897 0.1981
H36_11 H 0.4643 0.5435 0.2041
C51_11 C 0.9630(4) 0.3573(6) 0.18033(14)
C52_11 C 0.6427(6) 0.6058(5) 0.18033(14)
H38_11 H 0.6381 0.6393 0.1880
H39_11 H 0.9262 0.3111 0.1811
H40_11 H 0.6889 0.6152 0.1811
H41_11 H 0.9763 0.3691 0.1665
H42_11 H 0.6309 0.6073 0.1665
C53_11 C 0.9810(4) 0.5859(6) 0.18189(12)
C54_11 C 0.4141(6) 0.3952(5) 0.18189(12)
H43_11 H 0.9557 0.5879 0.1705
H44_11 H 0.4121 0.3679 0.1705
H45_11 H 0.9817 0.6156 0.1924
H46_11 H 0.3844 0.3662 0.1924
H48_11 H 0.3999 0.4268 0.1778
O3_11 O 0.3594(3) 0.7542(2) 0.13111(6)
C3_11 C 0.4711(4) 0.9753(3) 0.16678(12)
C9_11 C 0.4196(4) 0.8703(3) 0.13853(10)
C10_11 C 0.4561(3) 0.9369(3) 0.13248(11)
H3_11 H 0.4630 0.9467 0.1187
C11_11 C 0.4829(4) 0.9901(3) 0.14631(12)
C12_11 C 0.4318(5) 0.9088(4) 0.17374(11)
C13_11 C 0.4072(4) 0.8563(4) 0.15851(12)
H4_11 H 0.3817 0.8111 0.1626
C14_11 C 0.3935(3) 0.8130(3) 0.12340(12)
C16_11 C 0.4180(5) 0.8894(4) 0.19618(11)
H8_11 H 0.3783 0.8912 0.2005
H9_11 H 0.4103 0.8441 0.1981
H10_11 H 0.4565 0.9209 0.2041
H11_11 H 0.3607 0.9989 0.1880
H16_11 H 0.5732 0.9732 0.1778
Zn3_6 Zn 0.6667 0.3333 0.787756(15)
O6_12 O 0.12587(16) 0.10660(24) 0.89960(5)
O13_6 O 0.5792(2) 0.2719(4) 0.79777(6)
O17_12 O 0.12022(15) 0.00462(21) 0.89921(5)
C19_12 C 0.3028(3) 0.1379(6) 0.84870(11)
C21_12 C 0.1988(3) 0.0912(4) 0.87729(9)
C23_12 C 0.3581(3) 0.1625(5) 0.83344(12)
C25_12 C 0.2729(3) 0.0724(5) 0.85583(10)
C27_12 C 0.2207(3) 0.0496(4) 0.86984(9)
H17_12 H 0.2000 0.0046 0.8742
C29_12 C 0.2284(3) 0.1548(5) 0.87040(9)
H19_12 H 0.2131 0.1835 0.8751
C31_12 C 0.2807(4) 0.1798(6) 0.85651(11)
C33_12 C 0.1440(3) 0.0666(4) 0.89358(9)
C35_12 C 0.4631(3) 0.2160(5) 0.80519(10)
C37_12 C 0.3965(3) 0.1859(4) 0.79914(11)
H21_12 H 0.3867 0.1830 0.7853
C39_12 C 0.3433(3) 0.1595(5) 0.81297(12)
C41_12 C 0.4246(4) 0.1897(6) 0.84040(11)
C43_12 C 0.4771(4) 0.2176(6) 0.82517(12)
H23_12 H 0.5223 0.2373 0.8292
C45_12 C 0.5204(3) 0.2472(4) 0.79006(12)
C47_12 C 0.2714(4) 0.1240(6) 0.80607(12)
H25_12 H 0.2556 0.1561 0.8051
H27_12 H 0.2683 0.1041 0.7930
H29_12 H 0.2438 0.0888 0.8156
C49_12 C 0.4440(4) 0.1953(6) 0.86284(11)
H31_12 H 0.4422 0.1538 0.8671
H33_12 H 0.4893 0.2329 0.8647
H35_12 H 0.4125 0.2023 0.8707
C51_12 C 0.2964(4) 0.0239(6) 0.84699(14)
H37_12 H 0.3345 0.0285 0.8546
H40_12 H 0.0223 0.2818 0.8477
H41_12 H 0.3097 0.0357 0.8331
C53_12 C 0.3144(4) 0.2525(6) 0.84855(12)
H43_12 H 0.2891 0.2545 0.8371
H45_12 H 0.3151 0.2822 0.8590
H47_12 H 0.3602 0.2667 0.8444
H39_12 H 0.2596 0.9777 0.8477
O7_12 O 0.89340(24) 0.01926(18) 0.89960(5)
O14_6 O 0.7281(4) 0.3072(3) 0.79777(6)
O18_12 O 0.99538(21) 0.11559(15) 0.89921(5)
C20_12 C 0.8621(6) 0.1648(5) 0.84870(11)
C22_12 C 0.9088(4) 0.1075(3) 0.87729(9)
C24_12 C 0.8375(5) 0.1955(4) 0.83344(12)
C26_12 C 0.9276(5) 0.2004(4) 0.85583(10)
C28_12 C 0.9504(4) 0.1710(3) 0.86984(9)
H18_12 H 0.9954 0.1953 0.8742
C30_12 C 0.8452(5) 0.0735(4) 0.87040(9)
H20_12 H 0.8165 0.0295 0.8751
C32_12 C 0.8202(6) 0.1008(5) 0.85651(11)
C34_12 C 0.9334(4) 0.0773(3) 0.89358(9)
C36_12 C 0.7840(5) 0.2470(4) 0.80519(10)
C38_12 C 0.8141(4) 0.2105(3) 0.79914(11)
H22_12 H 0.8170 0.2036 0.7853
C40_12 C 0.8405(5) 0.1837(4) 0.81297(12)
C42_12 C 0.8103(6) 0.2348(5) 0.84040(11)
C44_12 C 0.7824(6) 0.2594(4) 0.82517(12)
H24_12 H 0.7627 0.2849 0.8292
C46_12 C 0.7528(4) 0.2731(3) 0.79006(12)
C48_12 C 0.8760(6) 0.1473(4) 0.80607(12)
H26_12 H 0.8439 0.0994 0.8051
H28_12 H 0.8959 0.1641 0.7930
H30_12 H 0.9112 0.1549 0.8156
C50_12 C 0.8047(6) 0.2486(5) 0.86284(11)
H32_12 H 0.8462 0.2883 0.8671
H34_12 H 0.7671 0.2563 0.8647
H36_12 H 0.7977 0.2101 0.8707
C52_12 C 0.9761(6) 0.2724(5) 0.84699(14)
H38_12 H 0.9715 0.3059 0.8546
H42_12 H 0.9643 0.2739 0.8331
C54_12 C 0.7475(6) 0.0618(5) 0.84855(12)
H44_12 H 0.7455 0.0345 0.8371
H46_12 H 0.7178 0.0328 0.8590
H48_12 H 0.7333 0.0934 0.8444
O1_12 O 0.98074(18) 0.87413(16) 0.89960(5)
O3_12 O 0.6928(3) 0.4208(2) 0.79777(6)
O4_12 O 0.88441(15) 0.87978(15) 0.89921(5)
C1_12 C 0.8352(5) 0.6972(3) 0.84870(11)
C2_12 C 0.8925(3) 0.8012(3) 0.87729(9)
C3_12 C 0.8045(4) 0.6419(3) 0.83344(12)
C4_12 C 0.7996(4) 0.7271(3) 0.85583(10)
C5_12 C 0.8290(3) 0.7793(3) 0.86984(9)
H1_12 H 0.8047 0.8000 0.8742
C6_12 C 0.9265(4) 0.7716(3) 0.87040(9)
H2_12 H 0.9705 0.7869 0.8751
C7_12 C 0.8992(5) 0.7193(4) 0.85651(11)
C8_12 C 0.9227(3) 0.8560(3) 0.89358(9)
C9_12 C 0.7530(4) 0.5369(3) 0.80519(10)
C10_12 C 0.7895(3) 0.6035(3) 0.79914(11)
H3_12 H 0.7964 0.6133 0.7853
C11_12 C 0.8163(4) 0.6567(3) 0.81297(12)
C12_12 C 0.7652(5) 0.5754(4) 0.84040(11)
C13_12 C 0.7406(4) 0.5229(4) 0.82517(12)
H4_12 H 0.7151 0.4777 0.8292
C14_12 C 0.7269(3) 0.4796(3) 0.79006(12)
C15_12 C 0.8527(4) 0.7286(4) 0.80607(12)
H5_12 H 0.9006 0.7444 0.8051
H6_12 H 0.8359 0.7317 0.7930
H7_12 H 0.8451 0.7562 0.8156
C16_12 C 0.7514(5) 0.5560(4) 0.86284(11)
H8_12 H 0.7117 0.5578 0.8671
H9_12 H 0.7437 0.5107 0.8647
H10_12 H 0.7899 0.5875 0.8707
C17_12 C 0.7276(5) 0.7036(4) 0.84699(14)
H11_12 H 0.6941 0.6655 0.8546
H12_12 H 0.7182 0.7404 0.8477
H13_12 H 0.7261 0.6903 0.8331
C18_12 C 0.9382(5) 0.6856(4) 0.84855(12)
H14_12 H 0.9655 0.7109 0.8371
H15_12 H 0.9672 0.6849 0.8590
H16_12 H 0.9066 0.6398 0.8444
loop_
_geom_bond_atom_site_label_1
_geom_bond_atom_site_label_2
_geom_bond_site_symmetry_1
_geom_bond_site_symmetry_2
O5 Zn1 1_555 1_555
Zn8 O5 1_555 1_555
O15 Zn1 1_555 1_555
O5_2 Zn1_2 1_555 1_555
O5_3 Zn1_3 1_555 1_555
Zn11 O5_3 1_555 1_555
O16 Zn1_3 1_555 1_555
Zn1_4 O3 1_555 1_555
Zn2 O1 1_555 1_555
O1 C8 1_555 1_555
O2 C14 1_555 1_555
O3 C14 1_555 1_555
O4 C8 1_555 1_555
O5_4 Zn1_4 1_555 1_555
C1 C3 1_555 1_555
C2 C5 1_555 1_555
C3 C11 1_555 1_555
C4 C1 1_555 1_555
C5 C4 1_555 1_555
H1 C5 1_555 1_555
C6 C2 1_555 1_555
H2 C6 1_555 1_555
C7 C1 1_555 1_555
C8 C2 1_555 1_555
C9 C10 1_555 1_555
C10 H3 1_555 1_555
C11 C10 1_555 1_555
C12 C3 1_555 1_555
C13 C9 1_555 1_555
H4 C13 1_555 1_555
C14 C9 1_555 1_555
C15 C11 1_555 1_555
H5 C15 1_555 1_555
H6 C15 1_555 1_555
H7 C15 1_555 1_555
C16 C12 1_555 1_555
H8 C16 1_555 1_555
H9 C16 1_555 1_555
H10 C16 1_555 1_555
C17 C4 1_555 1_555
H11 C17 1_555 1_555
H12 C17 1_555 1_555
H13 C17 1_555 1_555
C18 C7 1_555 1_555
H14 C18 1_555 1_555
H15 C18 1_555 1_555
H16 C18 1_555 1_555
Zn5 O6 1_555 1_555
Zn6 O4 1_555 1_555
Zn8 O8 1_555 1_555
Zn9 O2 1_555 1_555
Zn11 O9 1_555 1_555
O6 C33 1_555 1_555
O7 Zn6 1_555 1_555
O8 C45 1_555 1_555
O9 C46 1_555 1_555
O10 Zn5 1_555 1_555
O11 Zn2 1_555 1_555
O12 Zn6 1_555 1_555
O15 C45 1_555 1_555
O16 C46 1_555 1_555
O17 Zn2 1_555 1_555
O18 Zn5 1_555 1_555
O19 Zn2 1_555 1_555
C19 C23 1_555 1_555
C20 C24 1_555 1_555
C21 C27 1_555 1_555
C22 C28 1_555 1_555
C23 C39 1_555 1_555
C24 C40 1_555 1_555
C25 C19 1_555 1_555
C26 C20 1_555 1_555
C27 C25 1_555 1_555
C28 C26 1_555 1_555
H17 C27 1_555 1_555
H18 C28 1_555 1_555
C29 C21 1_555 1_555
C30 C22 1_555 1_555
H19 C29 1_555 1_555
H20 C30 1_555 1_555
C31 C19 1_555 1_555
C32 C20 1_555 1_555
C33 O17 1_555 1_555
C34 O7 1_555 1_555
C35 C37 1_555 1_555
C36 C38 1_555 1_555
C37 H21 1_555 1_555
C38 H22 1_555 1_555
C39 C37 1_555 1_555
C40 C38 1_555 1_555
C41 C23 1_555 1_555
C42 C24 1_555 1_555
C43 C35 1_555 1_555
C44 C36 1_555 1_555
H23 C43 1_555 1_555
H24 C44 1_555 1_555
C45 C35 1_555 1_555
C46 C36 1_555 1_555
C47 C39 1_555 1_555
C48 C40 1_555 1_555
H25 C47 1_555 1_555
H26 C48 1_555 1_555
H27 C47 1_555 1_555
H28 C48 1_555 1_555
H29 C47 1_555 1_555
H30 C48 1_555 1_555
C49 C41 1_555 1_555
C50 C42 1_555 1_555
H31 C49 1_555 1_555
H32 C50 1_555 1_555
H33 C49 1_555 1_555
H34 C50 1_555 1_555
H35 C49 1_555 1_555
H36 C50 1_555 1_555
C51 C25 1_555 1_555
C52 C26 1_555 1_555
H37 C51 1_555 1_555
H38 C52 1_555 1_555
H39 C51 1_555 1_555
H40 C52 1_555 1_555
H41 C51 1_555 1_555
H42 C52 1_555 1_555
C53 C31 1_555 1_555
C54 C32 1_555 1_555
H43 C53 1_555 1_555
H44 C54 1_555 1_555
H45 C53 1_555 1_555
H46 C54 1_555 1_555
H47 C53 1_555 1_555
H48 C54 1_555 1_555
O5_4 Zn9 1_555 1_555
C6 C7 1_555 1_555
C12 C13 1_555 1_555
Zn5 O19 1_555 1_555
Zn6 O19 1_555 1_555
O18 C34 1_555 1_555
C21 C33 1_555 1_555
C22 C34 1_555 1_555
C29 C31 1_555 1_555
C30 C32 1_555 1_555
C41 C43 1_555 1_555
C42 C44 1_555 1_555
Zn1_5 O3_2 1_555 1_555
O2_2 C14_2 1_555 1_555
O3_2 C14_2 1_555 1_555
O5_5 Zn1_5 1_555 1_555
C3_2 C11_2 1_555 1_555
C9_2 C10_2 1_555 1_555
C10_2 H3_2 1_555 1_555
C11_2 C10_2 1_555 1_555
C12_2 C3_2 1_555 1_555
C13_2 C9_2 1_555 1_555
H4_2 C13_2 1_555 1_555
C14_2 C9_2 1_555 1_555
C16_2 C12_2 1_555 1_555
H8_2 C16_2 1_555 1_555
H9_2 C16_2 1_555 1_555
H10_2 C16_2 1_555 1_555
Zn8_2 O5_5 1_555 1_555
Zn9_2 O2_2 1_555 1_555
Zn11_2 O5_5 1_555 1_555
O15_2 Zn1_5 1_555 1_555
O16_2 Zn1_5 1_555 1_555
O5_5 Zn9_2 1_555 1_555
C12_2 C13_2 1_555 1_555
Zn2_2 O1_2 1_555 1_555
O1_2 C8_2 1_555 1_555
O4_2 C8_2 1_555 1_555
C2_2 C5_2 1_555 1_555
C4_2 C1_2 1_555 1_555
C5_2 C4_2 1_555 1_555
H1_2 C5_2 1_555 1_555
C6_2 C2_2 1_555 1_555
H2_2 C6_2 1_555 1_555
C7_2 C1_2 1_555 1_555
C8_2 C2_2 1_555 1_555
H5_2 C15_2 1_555 1_555
H6_2 C15_2 1_555 1_555
H7_2 C15_2 1_555 1_555
C17_2 C4_2 1_555 1_555
H12_2 C17_2 1_555 1_555
H13_2 C17_2 1_555 1_555
C18_2 C7_2 1_555 1_555
H14_2 C18_2 1_555 1_555
H15_2 C18_2 1_555 1_555
Zn5_2 O6_2 1_555 1_555
Zn6_2 O4_2 1_555 1_555
Zn11_2 O9_2 1_555 1_555
O6_2 C33_2 1_555 1_555
O7_2 Zn6_2 1_555 1_555
O9_2 C46_2 1_555 1_555
O10_2 Zn5_2 1_555 1_555
O11_2 Zn2_2 1_555 1_555
O12_2 Zn6_2 1_555 1_555
O16_2 C46_2 1_555 1_555
O17_2 Zn2_2 1_555 1_555
O18_2 Zn5_2 1_555 1_555
O19_2 Zn2_2 1_555 1_555
C20_2 C24_2 1_555 1_555
C21_2 C27_2 1_555 1_555
C22_2 C28_2 1_555 1_555
C24_2 C40_2 1_555 1_555
C25_2 C19_2 1_555 1_555
C26_2 C20_2 1_555 1_555
C27_2 C25_2 1_555 1_555
C28_2 C26_2 1_555 1_555
H17_2 C27_2 1_555 1_555
H18_2 C28_2 1_555 1_555
C29_2 C21_2 1_555 1_555
C30_2 C22_2 1_555 1_555
H19_2 C29_2 1_555 1_555
H20_2 C30_2 1_555 1_555
C31_2 C19_2 1_555 1_555
C32_2 C20_2 1_555 1_555
C33_2 O17_2 1_555 1_555
C34_2 O7_2 1_555 1_555
C36_2 C38_2 1_555 1_555
C38_2 H22_2 1_555 1_555
C40_2 C38_2 1_555 1_555
C42_2 C24_2 1_555 1_555
C44_2 C36_2 1_555 1_555
H24_2 C44_2 1_555 1_555
C46_2 C36_2 1_555 1_555
C48_2 C40_2 1_555 1_555
H25_2 C47_2 1_555 1_555
H26_2 C48_2 1_555 1_555
H27_2 C47_2 1_555 1_555
H28_2 C48_2 1_555 1_555
H29_2 C47_2 1_555 1_555
H30_2 C48_2 1_555 1_555
C50_2 C42_2 1_555 1_555
H32_2 C50_2 1_555 1_555
H34_2 C50_2 1_555 1_555
H36_2 C50_2 1_555 1_555
C51_2 C25_2 1_555 1_555
C52_2 C26_2 1_555 1_555
H38_2 C52_2 1_555 1_555
H39_2 C51_2 1_555 1_555
H40_2 C52_2 1_555 1_555
H41_2 C51_2 1_555 1_555
H42_2 C52_2 1_555 1_555
C53_2 C31_2 1_555 1_555
C54_2 C32_2 1_555 1_555
H43_2 C53_2 1_555 1_555
H44_2 C54_2 1_555 1_555
H45_2 C53_2 1_555 1_555
H46_2 C54_2 1_555 1_555
H48_2 C54_2 1_555 1_555
C6_2 C7_2 1_555 1_555
Zn5_2 O19_2 1_555 1_555
Zn6_2 O19_2 1_555 1_555
O18_2 C34_2 1_555 1_555
C21_2 C33_2 1_555 1_555
C22_2 C34_2 1_555 1_555
C29_2 C31_2 1_555 1_555
C30_2 C32_2 1_555 1_555
C42_2 C44_2 1_555 1_555
Zn8_2 O8_2 1_555 1_555
O8_2 C45_2 1_555 1_555
O15_2 C45_2 1_555 1_555
C23_2 C39_2 1_555 1_555
C35_2 C37_2 1_555 1_555
C37_2 H21_2 1_555 1_555
C39_2 C37_2 1_555 1_555
C41_2 C23_2 1_555 1_555
C43_2 C35_2 1_555 1_555
H23_2 C43_2 1_555 1_555
C45_2 C35_2 1_555 1_555
C49_2 C41_2 1_555 1_555
H31_2 C49_2 1_555 1_555
H33_2 C49_2 1_555 1_555
H35_2 C49_2 1_555 1_555
C41_2 C43_2 1_555 1_555
Zn1_6 O3_3 1_555 1_555
O1_3 C8_3 1_555 1_555
O2_3 C14_3 1_555 1_555
O3_3 C14_3 1_555 1_555
O4_3 C8_3 1_555 1_555
O5_6 Zn1_6 1_555 1_555
C1_3 C3_3 1_555 1_555
C2_3 C5_3 1_555 1_555
C3_3 C11_3 1_555 1_555
C4_3 C1_3 1_555 1_555
C5_3 C4_3 1_555 1_555
H1_3 C5_3 1_555 1_555
C6_3 C2_3 1_555 1_555
H2_3 C6_3 1_555 1_555
C7_3 C1_3 1_555 1_555
C8_3 C2_3 1_555 1_555
C9_3 C10_3 1_555 1_555
C10_3 H3_3 1_555 1_555
C11_3 C10_3 1_555 1_555
C12_3 C3_3 1_555 1_555
C13_3 C9_3 1_555 1_555
H4_3 C13_3 1_555 1_555
C14_3 C9_3 1_555 1_555
C15_3 C11_3 1_555 1_555
H5_3 C15_3 1_555 1_555
H6_3 C15_3 1_555 1_555
H7_3 C15_3 1_555 1_555
C16_3 C12_3 1_555 1_555
H8_3 C16_3 1_555 1_555
H9_3 C16_3 1_555 1_555
H10_3 C16_3 1_555 1_555
C17_3 C4_3 1_555 1_555
H11_3 C17_3 1_555 1_555
H12_3 C17_3 1_555 1_555
H13_3 C17_3 1_555 1_555
C18_3 C7_3 1_555 1_555
H14_3 C18_3 1_555 1_555
H15_3 C18_3 1_555 1_555
H16_3 C18_3 1_555 1_555
Zn6_3 O4_3 1_555 1_555
Zn8_3 O5_6 1_555 1_555
Zn9_3 O2_3 1_555 1_555
Zn11_3 O5_6 1_555 1_555
O12_3 Zn6_3 1_555 1_555
O15_3 Zn1_6 1_555 1_555
O16_3 Zn1_6 1_555 1_555
O5_6 Zn9_3 1_555 1_555
C6_3 C7_3 1_555 1_555
C12_3 C13_3 1_555 1_555
Zn6_3 O19_3 1_555 1_555
Zn11_3 O9_3 1_555 1_555
O9_3 C46_3 1_555 1_555
O16_3 C46_3 1_555 1_555
C20_3 C24_3 1_555 1_555
C22_3 C28_3 1_555 1_555
C24_3 C40_3 1_555 1_555
C26_3 C20_3 1_555 1_555
C28_3 C26_3 1_555 1_555
H18_3 C28_3 1_555 1_555
C30_3 C22_3 1_555 1_555
H20_3 C30_3 1_555 1_555
C32_3 C20_3 1_555 1_555
C34_3 O7_3 1_555 1_555
C36_3 C38_3 1_555 1_555
C38_3 H22_3 1_555 1_555
C40_3 C38_3 1_555 1_555
C42_3 C24_3 1_555 1_555
C44_3 C36_3 1_555 1_555
H24_3 C44_3 1_555 1_555
C46_3 C36_3 1_555 1_555
C48_3 C40_3 1_555 1_555
H26_3 C48_3 1_555 1_555
H28_3 C48_3 1_555 1_555
H30_3 C48_3 1_555 1_555
C50_3 C42_3 1_555 1_555
H32_3 C50_3 1_555 1_555
H34_3 C50_3 1_555 1_555
H36_3 C50_3 1_555 1_555
C52_3 C26_3 1_555 1_555
H38_3 C52_3 1_555 1_555
H42_3 C52_3 1_555 1_555
C54_3 C32_3 1_555 1_555
H44_3 C54_3 1_555 1_555
H46_3 C54_3 1_555 1_555
H48_3 C54_3 1_555 1_555
O18_3 C34_3 1_555 1_555
C22_3 C34_3 1_555 1_555
C30_3 C32_3 1_555 1_555
C42_3 C44_3 1_555 1_555
O11_3 Zn2_3 1_555 1_555
O19_5 Zn2_3 1_555 1_555
Zn5_3 O6_3 1_555 1_555
Zn8_3 O8_3 1_555 1_555
O6_3 C33_3 1_555 1_555
O8_3 C45_3 1_555 1_555
O10_3 Zn5_3 1_555 1_555
O15_3 C45_3 1_555 1_555
C19_3 C23_3 1_555 1_555
C21_3 C27_3 1_555 1_555
C23_3 C39_3 1_555 1_555
C25_3 C19_3 1_555 1_555
C27_3 C25_3 1_555 1_555
H17_3 C27_3 1_555 1_555
C29_3 C21_3 1_555 1_555
H19_3 C29_3 1_555 1_555
C31_3 C19_3 1_555 1_555
C33_3 O17_3 1_555 1_555
C35_3 C37_3 1_555 1_555
C37_3 H21_3 1_555 1_555
C39_3 C37_3 1_555 1_555
C41_3 C23_3 1_555 1_555
C43_3 C35_3 1_555 1_555
H23_3 C43_3 1_555 1_555
C45_3 C35_3 1_555 1_555
C47_3 C39_3 1_555 1_555
H25_3 C47_3 1_555 1_555
H27_3 C47_3 1_555 1_555
H29_3 C47_3 1_555 1_555
C49_3 C41_3 1_555 1_555
H31_3 C49_3 1_555 1_555
H33_3 C49_3 1_555 1_555
H35_3 C49_3 1_555 1_555
C51_3 C25_3 1_555 1_555
H37_3 C51_3 1_555 1_555
H41_3 C51_3 1_555 1_555
C53_3 C31_3 1_555 1_555
H43_3 C53_3 1_555 1_555
H45_3 C53_3 1_555 1_555
H47_3 C53_3 1_555 1_555
Zn5_3 O19_6 1_555 1_555
C21_3 C33_3 1_555 1_555
C29_3 C31_3 1_555 1_555
C41_3 C43_3 1_555 1_555
O19_3 Zn1_7 1_555 1_555
O16_4 Zn1_7 1_555 1_555
O19_4 Zn1_8 1_555 1_555
O19_5 Zn1_9 1_555 1_555
O15_4 Zn1_9 1_555 1_555
Zn1_10 O3_4 1_555 1_555
O10_3 C14_4 1_555 1_555
O3_4 C14_4 1_555 1_555
O19_6 Zn1_10 1_555 1_555
C9_4 C10_4 1_555 1_555
C10_4 H3_4 1_555 1_555
C11_4 C10_4 1_555 1_555
C13_4 C9_4 1_555 1_555
H4_4 C13_4 1_555 1_555
C14_4 C9_4 1_555 1_555
C15_4 C11_4 1_555 1_555
H5_4 C15_4 1_555 1_555
H6_4 C15_4 1_555 1_555
H7_4 C15_4 1_555 1_555
O11_3 C45_4 1_555 1_555
O12_3 C46_4 1_555 1_555
O15_4 C45_4 1_555 1_555
O16_4 C46_4 1_555 1_555
C35_4 C37_4 1_555 1_555
C36_4 C38_4 1_555 1_555
C37_4 H21_4 1_555 1_555
C38_4 H22_4 1_555 1_555
C39_4 C37_4 1_555 1_555
C40_4 C38_4 1_555 1_555
C43_4 C35_4 1_555 1_555
C44_4 C36_4 1_555 1_555
H23_4 C43_4 1_555 1_555
H24_4 C44_4 1_555 1_555
C45_4 C35_4 1_555 1_555
C46_4 C36_4 1_555 1_555
C47_4 C39_4 1_555 1_555
C48_4 C40_4 1_555 1_555
H25_4 C47_4 1_555 1_555
H26_4 C48_4 1_555 1_555
H27_4 C47_4 1_555 1_555
H28_4 C48_4 1_555 1_555
H29_4 C47_4 1_555 1_555
H30_4 C48_4 1_555 1_555
Zn8_2 O1_4 1_555 1_555
O1_4 C8_4 1_555 1_555
O4_4 C8_4 1_555 1_555
C1_4 C3_4 1_555 1_555
C2_4 C5_4 1_555 1_555
C4_4 C1_4 1_555 1_555
C5_4 C4_4 1_555 1_555
H1_4 C5_4 1_555 1_555
C6_4 C2_4 1_555 1_555
H2_4 C6_4 1_555 1_555
C7_4 C1_4 1_555 1_555
C8_4 C2_4 1_555 1_555
C12_4 C3_4 1_555 1_555
C16_4 C12_4 1_555 1_555
H8_4 C16_4 1_555 1_555
H9_4 C16_4 1_555 1_555
H10_4 C16_4 1_555 1_555
C17_4 C4_4 1_555 1_555
H11_4 C17_4 1_555 1_555
H12_4 C17_4 1_555 1_555
C18_4 C7_4 1_555 1_555
H14_4 C18_4 1_555 1_555
H15_4 C18_4 1_555 1_555
H16_4 C18_4 1_555 1_555
Zn9_2 O6_4 1_555 1_555
Zn11_2 O4_4 1_555 1_555
O6_4 C33_4 1_555 1_555
O7_4 Zn11_2 1_555 1_555
O17_4 Zn8_2 1_555 1_555
O18_4 Zn9_2 1_555 1_555
C19_4 C23_4 1_555 1_555
C20_4 C24_4 1_555 1_555
C21_4 C27_4 1_555 1_555
C22_4 C28_4 1_555 1_555
C25_4 C19_4 1_555 1_555
C26_4 C20_4 1_555 1_555
C27_4 C25_4 1_555 1_555
C28_4 C26_4 1_555 1_555
H17_4 C27_4 1_555 1_555
H18_4 C28_4 1_555 1_555
C29_4 C21_4 1_555 1_555
C30_4 C22_4 1_555 1_555
H19_4 C29_4 1_555 1_555
H20_4 C30_4 1_555 1_555
C31_4 C19_4 1_555 1_555
C32_4 C20_4 1_555 1_555
C33_4 O17_4 1_555 1_555
C34_4 O7_4 1_555 1_555
C41_4 C23_4 1_555 1_555
C42_4 C24_4 1_555 1_555
C49_4 C41_4 1_555 1_555
C50_4 C42_4 1_555 1_555
H31_4 C49_4 1_555 1_555
H32_4 C50_4 1_555 1_555
H33_4 C49_4 1_555 1_555
H34_4 C50_4 1_555 1_555
H35_4 C49_4 1_555 1_555
H36_4 C50_4 1_555 1_555
C51_4 C25_4 1_555 1_555
C52_4 C26_4 1_555 1_555
H37_4 C51_4 1_555 1_555
H38_4 C52_4 1_555 1_555
H39_4 C51_4 1_555 1_555
H40_4 C52_4 1_555 1_555
C53_4 C31_4 1_555 1_555
C54_4 C32_4 1_555 1_555
H43_4 C53_4 1_555 1_555
H44_4 C54_4 1_555 1_555
H45_4 C53_4 1_555 1_555
H46_4 C54_4 1_555 1_555
H47_4 C53_4 1_555 1_555
H48_4 C54_4 1_555 1_555
C6_4 C7_4 1_555 1_555
O18_4 C34_4 1_555 1_555
C21_4 C33_4 1_555 1_555
C22_4 C34_4 1_555 1_555
C29_4 C31_4 1_555 1_555
C30_4 C32_4 1_555 1_555
Zn1_11 O3_5 1_555 1_555
Zn8 O1_5 1_555 1_555
O1_5 C8_5 1_555 1_555
O10_2 C14_5 1_555 1_555
O3_5 C14_5 1_555 1_555
O4_5 C8_5 1_555 1_555
O19_2 Zn1_11 1_555 1_555
C1_5 C3_5 1_555 1_555
C2_5 C5_5 1_555 1_555
C3_5 C11_5 1_555 1_555
C4_5 C1_5 1_555 1_555
C5_5 C4_5 1_555 1_555
H1_5 C5_5 1_555 1_555
C6_5 C2_5 1_555 1_555
H2_5 C6_5 1_555 1_555
C7_5 C1_5 1_555 1_555
C8_5 C2_5 1_555 1_555
C9_5 C10_5 1_555 1_555
C10_5 H3_5 1_555 1_555
C11_5 C10_5 1_555 1_555
C12_5 C3_5 1_555 1_555
C13_5 C9_5 1_555 1_555
H4_5 C13_5 1_555 1_555
C14_5 C9_5 1_555 1_555
C15_5 C11_5 1_555 1_555
H5_5 C15_5 1_555 1_555
H6_5 C15_5 1_555 1_555
H7_5 C15_5 1_555 1_555
C16_5 C12_5 1_555 1_555
H8_5 C16_5 1_555 1_555
H9_5 C16_5 1_555 1_555
H10_5 C16_5 1_555 1_555
C17_5 C4_5 1_555 1_555
H11_5 C17_5 1_555 1_555
H13_5 C17_5 1_555 1_555
C18_5 C7_5 1_555 1_555
H14_5 C18_5 1_555 1_555
H15_5 C18_5 1_555 1_555
H16_5 C18_5 1_555 1_555
O15_5 Zn1_11 1_555 1_555
O16_5 Zn1_11 1_555 1_555
C6_5 C7_5 1_555 1_555
C12_5 C13_5 1_555 1_555
O6_5 C33_5 1_555 1_555
O11_2 C45_5 1_555 1_555
O15_5 C45_5 1_555 1_555
C19_5 C23_5 1_555 1_555
C21_5 C27_5 1_555 1_555
C23_5 C39_5 1_555 1_555
C25_5 C19_5 1_555 1_555
C27_5 C25_5 1_555 1_555
H17_5 C27_5 1_555 1_555
C29_5 C21_5 1_555 1_555
H19_5 C29_5 1_555 1_555
C31_5 C19_5 1_555 1_555
C33_5 O17_5 1_555 1_555
C35_5 C37_5 1_555 1_555
C37_5 H21_5 1_555 1_555
C39_5 C37_5 1_555 1_555
C41_5 C23_5 1_555 1_555
C43_5 C35_5 1_555 1_555
H23_5 C43_5 1_555 1_555
C45_5 C35_5 1_555 1_555
C47_5 C39_5 1_555 1_555
H25_5 C47_5 1_555 1_555
H27_5 C47_5 1_555 1_555
H29_5 C47_5 1_555 1_555
C49_5 C41_5 1_555 1_555
H31_5 C49_5 1_555 1_555
H33_5 C49_5 1_555 1_555
H35_5 C49_5 1_555 1_555
C51_5 C25_5 1_555 1_555
H37_5 C51_5 1_555 1_555
H41_5 C51_5 1_555 1_555
C53_5 C31_5 1_555 1_555
H43_5 C53_5 1_555 1_555
H45_5 C53_5 1_555 1_555
H47_5 C53_5 1_555 1_555
C21_5 C33_5 1_555 1_555
C29_5 C31_5 1_555 1_555
C41_5 C43_5 1_555 1_555
O12_2 C46_5 1_555 1_555
O16_5 C46_5 1_555 1_555
O18_5 Zn9 1_555 1_555
C20_5 C24_5 1_555 1_555
C22_5 C28_5 1_555 1_555
C24_5 C40_5 1_555 1_555
C26_5 C20_5 1_555 1_555
C28_5 C26_5 1_555 1_555
H18_5 C28_5 1_555 1_555
C30_5 C22_5 1_555 1_555
H20_5 C30_5 1_555 1_555
C32_5 C20_5 1_555 1_555
C34_5 O7_5 1_555 1_555
C36_5 C38_5 1_555 1_555
C38_5 H22_5 1_555 1_555
C40_5 C38_5 1_555 1_555
C42_5 C24_5 1_555 1_555
C44_5 C36_5 1_555 1_555
H24_5 C44_5 1_555 1_555
C46_5 C36_5 1_555 1_555
C48_5 C40_5 1_555 1_555
H26_5 C48_5 1_555 1_555
H28_5 C48_5 1_555 1_555
H30_5 C48_5 1_555 1_555
C50_5 C42_5 1_555 1_555
H32_5 C50_5 1_555 1_555
H34_5 C50_5 1_555 1_555
H36_5 C50_5 1_555 1_555
C52_5 C26_5 1_555 1_555
H38_5 C52_5 1_555 1_555
H40_5 C52_5 1_555 1_555
H42_5 C52_5 1_555 1_555
C54_5 C32_5 1_555 1_555
H44_5 C54_5 1_555 1_555
H46_5 C54_5 1_555 1_555
H48_5 C54_5 1_555 1_555
O18_5 C34_5 1_555 1_555
C22_5 C34_5 1_555 1_555
C30_5 C32_5 1_555 1_555
C42_5 C44_5 1_555 1_555
Zn1_12 O3_6 1_555 1_555
O10 C14_6 1_555 1_555
O3_6 C14_6 1_555 1_555
O19 Zn1_12 1_555 1_555
C3_6 C11_6 1_555 1_555
C9_6 C10_6 1_555 1_555
C10_6 H3_6 1_555 1_555
C11_6 C10_6 1_555 1_555
C12_6 C3_6 1_555 1_555
C13_6 C9_6 1_555 1_555
H4_6 C13_6 1_555 1_555
C14_6 C9_6 1_555 1_555
C16_6 C12_6 1_555 1_555
H8_6 C16_6 1_555 1_555
H9_6 C16_6 1_555 1_555
H10_6 C16_6 1_555 1_555
O15_6 Zn1_12 1_555 1_555
O16_6 Zn1_12 1_555 1_555
C12_6 C13_6 1_555 1_555
Zn8_3 O1_6 1_555 1_555
O1_6 C8_6 1_555 1_555
O4_6 C8_6 1_555 1_555
C2_6 C5_6 1_555 1_555
C4_6 C1_6 1_555 1_555
C5_6 C4_6 1_555 1_555
H1_6 C5_6 1_555 1_555
C6_6 C2_6 1_555 1_555
H2_6 C6_6 1_555 1_555
C7_6 C1_6 1_555 1_555
C8_6 C2_6 1_555 1_555
H5_6 C15_6 1_555 1_555
H6_6 C15_6 1_555 1_555
H7_6 C15_6 1_555 1_555
C17_6 C4_6 1_555 1_555
H12_6 C17_6 1_555 1_555
H13_6 C17_6 1_555 1_555
C18_6 C7_6 1_555 1_555
H14_6 C18_6 1_555 1_555
H15_6 C18_6 1_555 1_555
Zn9_3 O6_6 1_555 1_555
Zn11_3 O4_6 1_555 1_555
O6_6 C33_6 1_555 1_555
O7_6 Zn11_3 1_555 1_555
O11 C45_6 1_555 1_555
O15_6 C45_6 1_555 1_555
O17_6 Zn8_3 1_555 1_555
O18_6 Zn9_3 1_555 1_555
C19_6 C23_6 1_555 1_555
C21_6 C27_6 1_555 1_555
C22_6 C28_6 1_555 1_555
C23_6 C39_6 1_555 1_555
C25_6 C19_6 1_555 1_555
C26_6 C20_6 1_555 1_555
C27_6 C25_6 1_555 1_555
C28_6 C26_6 1_555 1_555
H17_6 C27_6 1_555 1_555
H18_6 C28_6 1_555 1_555
C29_6 C21_6 1_555 1_555
C30_6 C22_6 1_555 1_555
H19_6 C29_6 1_555 1_555
H20_6 C30_6 1_555 1_555
C31_6 C19_6 1_555 1_555
C32_6 C20_6 1_555 1_555
C33_6 O17_6 1_555 1_555
C34_6 O7_6 1_555 1_555
C35_6 C37_6 1_555 1_555
C37_6 H21_6 1_555 1_555
C39_6 C37_6 1_555 1_555
C41_6 C23_6 1_555 1_555
C43_6 C35_6 1_555 1_555
H23_6 C43_6 1_555 1_555
C45_6 C35_6 1_555 1_555
C47_6 C39_6 1_555 1_555
H25_6 C47_6 1_555 1_555
H26_6 C48_6 1_555 1_555
H27_6 C47_6 1_555 1_555
H28_6 C48_6 1_555 1_555
H29_6 C47_6 1_555 1_555
H30_6 C48_6 1_555 1_555
C49_6 C41_6 1_555 1_555
H31_6 C49_6 1_555 1_555
H33_6 C49_6 1_555 1_555
H35_6 C49_6 1_555 1_555
C51_6 C25_6 1_555 1_555
C52_6 C26_6 1_555 1_555
H37_6 C51_6 1_555 1_555
H39_6 C51_6 1_555 1_555
H40_6 C52_6 1_555 1_555
H41_6 C51_6 1_555 1_555
H42_6 C52_6 1_555 1_555
C53_6 C31_6 1_555 1_555
C54_6 C32_6 1_555 1_555
H43_6 C53_6 1_555 1_555
H44_6 C54_6 1_555 1_555
H45_6 C53_6 1_555 1_555
H46_6 C54_6 1_555 1_555
H47_6 C53_6 1_555 1_555
C6_6 C7_6 1_555 1_555
O18_6 C34_6 1_555 1_555
C21_6 C33_6 1_555 1_555
C22_6 C34_6 1_555 1_555
C29_6 C31_6 1_555 1_555
C30_6 C32_6 1_555 1_555
C41_6 C43_6 1_555 1_555
O12 C46_6 1_555 1_555
O16_6 C46_6 1_555 1_555
C24_6 C40_6 1_555 1_555
C36_6 C38_6 1_555 1_555
C38_6 H22_6 1_555 1_555
C40_6 C38_6 1_555 1_555
C42_6 C24_6 1_555 1_555
C44_6 C36_6 1_555 1_555
H24_6 C44_6 1_555 1_555
C46_6 C36_6 1_555 1_555
C50_6 C42_6 1_555 1_555
H32_6 C50_6 1_555 1_555
H34_6 C50_6 1_555 1_555
H36_6 C50_6 1_555 1_555
C42_6 C44_6 1_555 1_555
Zn2_4 O1_7 1_555 1_555
O1_7 C8_7 1_555 1_555
O4_7 C8_7 1_555 1_555
C1_7 C3_7 1_555 1_555
C2_7 C5_7 1_555 1_555
C4_7 C1_7 1_555 1_555
C5_7 C4_7 1_555 1_555
H1_7 C5_7 1_555 1_555
C6_7 C2_7 1_555 1_555
H2_7 C6_7 1_555 1_555
C7_7 C1_7 1_555 1_555
C8_7 C2_7 1_555 1_555
C12_7 C3_7 1_555 1_555
C16_7 C12_7 1_555 1_555
H8_7 C16_7 1_555 1_555
H9_7 C16_7 1_555 1_555
H10_7 C16_7 1_555 1_555
C17_7 C4_7 1_555 1_555
H11_7 C17_7 1_555 1_555
H12_7 C17_7 1_555 1_555
C18_7 C7_7 1_555 1_555
H14_7 C18_7 1_555 1_555
H15_7 C18_7 1_555 1_555
H16_7 C18_7 1_555 1_555
Zn5_4 O6_7 1_555 1_555
Zn6_4 O4_7 1_555 1_555
O6_7 C33_7 1_555 1_555
O7_7 Zn6_4 1_555 1_555
O10_4 Zn5_4 1_555 1_555
O11_4 Zn2_4 1_555 1_555
O12_4 Zn6_4 1_555 1_555
O17_7 Zn2_4 1_555 1_555
O18_7 Zn5_4 1_555 1_555
O19_7 Zn2_4 1_555 1_555
C19_7 C23_7 1_555 1_555
C20_7 C24_7 1_555 1_555
C21_7 C27_7 1_555 1_555
C22_7 C28_7 1_555 1_555
C25_7 C19_7 1_555 1_555
C26_7 C20_7 1_555 1_555
C27_7 C25_7 1_555 1_555
C28_7 C26_7 1_555 1_555
H17_7 C27_7 1_555 1_555
H18_7 C28_7 1_555 1_555
C29_7 C21_7 1_555 1_555
C30_7 C22_7 1_555 1_555
H19_7 C29_7 1_555 1_555
H20_7 C30_7 1_555 1_555
C31_7 C19_7 1_555 1_555
C32_7 C20_7 1_555 1_555
C33_7 O17_7 1_555 1_555
C34_7 O7_7 1_555 1_555
C41_7 C23_7 1_555 1_555
C42_7 C24_7 1_555 1_555
C49_7 C41_7 1_555 1_555
C50_7 C42_7 1_555 1_555
H31_7 C49_7 1_555 1_555
H32_7 C50_7 1_555 1_555
H33_7 C49_7 1_555 1_555
H34_7 C50_7 1_555 1_555
H35_7 C49_7 1_555 1_555
H36_7 C50_7 1_555 1_555
C51_7 C25_7 1_555 1_555
C52_7 C26_7 1_555 1_555
H37_7 C51_7 1_555 1_555
H38_7 C52_7 1_555 1_555
H39_7 C51_7 1_555 1_555
H40_7 C52_7 1_555 1_555
C53_7 C31_7 1_555 1_555
C54_7 C32_7 1_555 1_555
H43_7 C53_7 1_555 1_555
H44_7 C54_7 1_555 1_555
H45_7 C53_7 1_555 1_555
H46_7 C54_7 1_555 1_555
H47_7 C53_7 1_555 1_555
H48_7 C54_7 1_555 1_555
C6_7 C7_7 1_555 1_555
Zn5_4 O19_7 1_555 1_555
Zn6_4 O19_7 1_555 1_555
O18_7 C34_7 1_555 1_555
C21_7 C33_7 1_555 1_555
C22_7 C34_7 1_555 1_555
C29_7 C31_7 1_555 1_555
C30_7 C32_7 1_555 1_555
Zn4 O3_7 1_555 1_555
O2_4 C14_7 1_555 1_555
O3_7 C14_7 1_555 1_555
O5_7 Zn4 1_555 1_555
C9_7 C10_7 1_555 1_555
C10_7 H3_7 1_555 1_555
C11_7 C10_7 1_555 1_555
C13_7 C9_7 1_555 1_555
H4_7 C13_7 1_555 1_555
C14_7 C9_7 1_555 1_555
C15_7 C11_7 1_555 1_555
H5_7 C15_7 1_555 1_555
H6_7 C15_7 1_555 1_555
H7_7 C15_7 1_555 1_555
Zn4_2 O13 1_555 1_555
Zn4_4 O14 1_555 1_555
Zn7 O8_4 1_555 1_555
Zn9_4 O2_4 1_555 1_555
Zn10 O9_4 1_555 1_555
O8_4 C45_7 1_555 1_555
O9_4 C46_7 1_555 1_555
O13 C45_7 1_555 1_555
O14 C46_7 1_555 1_555
C35_7 C37_7 1_555 1_555
C36_7 C38_7 1_555 1_555
C37_7 H21_7 1_555 1_555
C38_7 H22_7 1_555 1_555
C39_7 C37_7 1_555 1_555
C40_7 C38_7 1_555 1_555
C43_7 C35_7 1_555 1_555
C44_7 C36_7 1_555 1_555
H23_7 C43_7 1_555 1_555
H24_7 C44_7 1_555 1_555
C45_7 C35_7 1_555 1_555
C46_7 C36_7 1_555 1_555
C47_7 C39_7 1_555 1_555
C48_7 C40_7 1_555 1_555
H25_7 C47_7 1_555 1_555
H26_7 C48_7 1_555 1_555
H27_7 C47_7 1_555 1_555
H28_7 C48_7 1_555 1_555
H29_7 C47_7 1_555 1_555
H30_7 C48_7 1_555 1_555
O5_7 Zn9_4 1_555 1_555
O5_8 Zn4_2 1_555 1_555
Zn7 O5_8 1_555 1_555
O5_9 Zn4_3 1_555 1_555
O5_10 Zn4_4 1_555 1_555
Zn10 O5_10 1_555 1_555
Zn4_5 O14_2 1_555 1_555
Zn10_2 O9_5 1_555 1_555
O9_5 C46_8 1_555 1_555
O10_5 Zn5_5 1_555 1_555
O14_2 C46_8 1_555 1_555
O18_8 Zn5_5 1_555 1_555
C20_8 C24_8 1_555 1_555
C22_8 C28_8 1_555 1_555
C24_8 C40_8 1_555 1_555
C26_8 C20_8 1_555 1_555
C28_8 C26_8 1_555 1_555
H18_8 C28_8 1_555 1_555
C30_8 C22_8 1_555 1_555
H20_8 C30_8 1_555 1_555
C32_8 C20_8 1_555 1_555
C34_8 O7_8 1_555 1_555
C36_8 C38_8 1_555 1_555
C38_8 H22_8 1_555 1_555
C40_8 C38_8 1_555 1_555
C42_8 C24_8 1_555 1_555
C44_8 C36_8 1_555 1_555
H24_8 C44_8 1_555 1_555
C46_8 C36_8 1_555 1_555
C48_8 C40_8 1_555 1_555
H26_8 C48_8 1_555 1_555
H28_8 C48_8 1_555 1_555
H30_8 C48_8 1_555 1_555
C50_8 C42_8 1_555 1_555
H32_8 C50_8 1_555 1_555
H34_8 C50_8 1_555 1_555
H36_8 C50_8 1_555 1_555
C52_8 C26_8 1_555 1_555
H38_8 C52_8 1_555 1_555
H40_8 C52_8 1_555 1_555
H42_8 C52_8 1_555 1_555
C54_8 C32_8 1_555 1_555
H44_8 C54_8 1_555 1_555
H46_8 C54_8 1_555 1_555
H48_8 C54_8 1_555 1_555
Zn5_5 O19_8 1_555 1_555
O18_8 C34_8 1_555 1_555
C22_8 C34_8 1_555 1_555
C30_8 C32_8 1_555 1_555
C42_8 C44_8 1_555 1_555
O12_5 Zn6_5 1_555 1_555
Zn6_5 O19_9 1_555 1_555
Zn4_5 O13_2 1_555 1_555
Zn7_2 O8_5 1_555 1_555
O6_8 C33_8 1_555 1_555
O8_5 C45_8 1_555 1_555
O13_2 C45_8 1_555 1_555
C19_8 C23_8 1_555 1_555
C21_8 C27_8 1_555 1_555
C23_8 C39_8 1_555 1_555
C25_8 C19_8 1_555 1_555
C27_8 C25_8 1_555 1_555
H17_8 C27_8 1_555 1_555
C29_8 C21_8 1_555 1_555
H19_8 C29_8 1_555 1_555
C31_8 C19_8 1_555 1_555
C33_8 O17_8 1_555 1_555
C35_8 C37_8 1_555 1_555
C37_8 H21_8 1_555 1_555
C39_8 C37_8 1_555 1_555
C41_8 C23_8 1_555 1_555
C43_8 C35_8 1_555 1_555
H23_8 C43_8 1_555 1_555
C45_8 C35_8 1_555 1_555
C47_8 C39_8 1_555 1_555
H25_8 C47_8 1_555 1_555
H27_8 C47_8 1_555 1_555
H29_8 C47_8 1_555 1_555
C49_8 C41_8 1_555 1_555
H31_8 C49_8 1_555 1_555
H33_8 C49_8 1_555 1_555
H35_8 C49_8 1_555 1_555
C51_8 C25_8 1_555 1_555
H37_8 C51_8 1_555 1_555
H41_8 C51_8 1_555 1_555
C53_8 C31_8 1_555 1_555
H43_8 C53_8 1_555 1_555
H45_8 C53_8 1_555 1_555
H47_8 C53_8 1_555 1_555
C21_8 C33_8 1_555 1_555
C29_8 C31_8 1_555 1_555
C41_8 C43_8 1_555 1_555
Zn4_5 O3_8 1_555 1_555
Zn2_5 O1_8 1_555 1_555
O1_8 C8_8 1_555 1_555
O2_5 C14_8 1_555 1_555
O3_8 C14_8 1_555 1_555
O4_8 C8_8 1_555 1_555
O5_11 Zn4_5 1_555 1_555
C1_8 C3_8 1_555 1_555
C2_8 C5_8 1_555 1_555
C3_8 C11_8 1_555 1_555
C4_8 C1_8 1_555 1_555
C5_8 C4_8 1_555 1_555
H1_8 C5_8 1_555 1_555
C6_8 C2_8 1_555 1_555
H2_8 C6_8 1_555 1_555
C7_8 C1_8 1_555 1_555
C8_8 C2_8 1_555 1_555
C9_8 C10_8 1_555 1_555
C10_8 H3_8 1_555 1_555
C11_8 C10_8 1_555 1_555
C12_8 C3_8 1_555 1_555
C13_8 C9_8 1_555 1_555
H4_8 C13_8 1_555 1_555
C14_8 C9_8 1_555 1_555
C15_8 C11_8 1_555 1_555
H5_8 C15_8 1_555 1_555
H6_8 C15_8 1_555 1_555
H7_8 C15_8 1_555 1_555
C16_8 C12_8 1_555 1_555
H8_8 C16_8 1_555 1_555
H9_8 C16_8 1_555 1_555
H10_8 C16_8 1_555 1_555
C17_8 C4_8 1_555 1_555
H11_8 C17_8 1_555 1_555
H13_8 C17_8 1_555 1_555
C18_8 C7_8 1_555 1_555
H14_8 C18_8 1_555 1_555
H15_8 C18_8 1_555 1_555
H16_8 C18_8 1_555 1_555
Zn7_2 O5_11 1_555 1_555
Zn9_5 O2_5 1_555 1_555
Zn10_2 O5_11 1_555 1_555
O11_5 Zn2_5 1_555 1_555
O19_11 Zn2_5 1_555 1_555
O5_11 Zn9_5 1_555 1_555
C6_8 C7_8 1_555 1_555
C12_8 C13_8 1_555 1_555
Zn4_6 O14_3 1_555 1_555
Zn10_3 O9_6 1_555 1_555
O9_6 C46_9 1_555 1_555
O14_3 C46_9 1_555 1_555
C24_9 C40_9 1_555 1_555
C36_9 C38_9 1_555 1_555
C38_9 H22_9 1_555 1_555
C40_9 C38_9 1_555 1_555
C42_9 C24_9 1_555 1_555
C44_9 C36_9 1_555 1_555
H24_9 C44_9 1_555 1_555
C46_9 C36_9 1_555 1_555
C50_9 C42_9 1_555 1_555
H32_9 C50_9 1_555 1_555
H34_9 C50_9 1_555 1_555
H36_9 C50_9 1_555 1_555
C42_9 C44_9 1_555 1_555
Zn2_6 O1_9 1_555 1_555
O1_9 C8_9 1_555 1_555
O4_9 C8_9 1_555 1_555
C2_9 C5_9 1_555 1_555
C4_9 C1_9 1_555 1_555
C5_9 C4_9 1_555 1_555
H1_9 C5_9 1_555 1_555
C6_9 C2_9 1_555 1_555
H2_9 C6_9 1_555 1_555
C7_9 C1_9 1_555 1_555
C8_9 C2_9 1_555 1_555
H5_9 C15_9 1_555 1_555
H6_9 C15_9 1_555 1_555
H7_9 C15_9 1_555 1_555
C17_9 C4_9 1_555 1_555
H12_9 C17_9 1_555 1_555
H13_9 C17_9 1_555 1_555
C18_9 C7_9 1_555 1_555
H14_9 C18_9 1_555 1_555
H15_9 C18_9 1_555 1_555
Zn4_6 O13_3 1_555 1_555
Zn5_6 O6_9 1_555 1_555
Zn6_6 O4_9 1_555 1_555
Zn7_3 O8_6 1_555 1_555
O6_9 C33_9 1_555 1_555
O7_9 Zn6_6 1_555 1_555
O8_6 C45_9 1_555 1_555
O10_6 Zn5_6 1_555 1_555
O11_6 Zn2_6 1_555 1_555
O12_6 Zn6_6 1_555 1_555
O13_3 C45_9 1_555 1_555
O17_9 Zn2_6 1_555 1_555
O18_9 Zn5_6 1_555 1_555
O19_12 Zn2_6 1_555 1_555
C19_9 C23_9 1_555 1_555
C21_9 C27_9 1_555 1_555
C22_9 C28_9 1_555 1_555
C23_9 C39_9 1_555 1_555
C25_9 C19_9 1_555 1_555
C26_9 C20_9 1_555 1_555
C27_9 C25_9 1_555 1_555
C28_9 C26_9 1_555 1_555
H17_9 C27_9 1_555 1_555
H18_9 C28_9 1_555 1_555
C29_9 C21_9 1_555 1_555
C30_9 C22_9 1_555 1_555
H19_9 C29_9 1_555 1_555
H20_9 C30_9 1_555 1_555
C31_9 C19_9 1_555 1_555
C32_9 C20_9 1_555 1_555
C33_9 O17_9 1_555 1_555
C34_9 O7_9 1_555 1_555
C35_9 C37_9 1_555 1_555
C37_9 H21_9 1_555 1_555
C39_9 C37_9 1_555 1_555
C41_9 C23_9 1_555 1_555
C43_9 C35_9 1_555 1_555
H23_9 C43_9 1_555 1_555
C45_9 C35_9 1_555 1_555
C47_9 C39_9 1_555 1_555
H25_9 C47_9 1_555 1_555
H26_9 C48_9 1_555 1_555
H27_9 C47_9 1_555 1_555
H28_9 C48_9 1_555 1_555
H29_9 C47_9 1_555 1_555
H30_9 C48_9 1_555 1_555
C49_9 C41_9 1_555 1_555
H31_9 C49_9 1_555 1_555
H33_9 C49_9 1_555 1_555
H35_9 C49_9 1_555 1_555
C51_9 C25_9 1_555 1_555
C52_9 C26_9 1_555 1_555
H37_9 C51_9 1_555 1_555
H39_9 C51_9 1_555 1_555
H40_9 C52_9 1_555 1_555
H41_9 C51_9 1_555 1_555
H42_9 C52_9 1_555 1_555
C53_9 C31_9 1_555 1_555
C54_9 C32_9 1_555 1_555
H43_9 C53_9 1_555 1_555
H44_9 C54_9 1_555 1_555
H45_9 C53_9 1_555 1_555
H46_9 C54_9 1_555 1_555
H47_9 C53_9 1_555 1_555
C6_9 C7_9 1_555 1_555
Zn5_6 O19_12 1_555 1_555
Zn6_6 O19_12 1_555 1_555
O18_9 C34_9 1_555 1_555
C21_9 C33_9 1_555 1_555
C22_9 C34_9 1_555 1_555
C29_9 C31_9 1_555 1_555
C30_9 C32_9 1_555 1_555
C41_9 C43_9 1_555 1_555
Zn4_6 O3_9 1_555 1_555
O2_6 C14_9 1_555 1_555
O3_9 C14_9 1_555 1_555
O5_12 Zn4_6 1_555 1_555
C3_9 C11_9 1_555 1_555
C9_9 C10_9 1_555 1_555
C10_9 H3_9 1_555 1_555
C11_9 C10_9 1_555 1_555
C12_9 C3_9 1_555 1_555
C13_9 C9_9 1_555 1_555
H4_9 C13_9 1_555 1_555
C14_9 C9_9 1_555 1_555
C16_9 C12_9 1_555 1_555
H8_9 C16_9 1_555 1_555
H9_9 C16_9 1_555 1_555
H10_9 C16_9 1_555 1_555
Zn7_3 O5_12 1_555 1_555
Zn9_6 O2_6 1_555 1_555
Zn10_3 O5_12 1_555 1_555
O5_12 Zn9_6 1_555 1_555
C12_9 C13_9 1_555 1_555
Zn3 O3_10 1_555 1_555
Zn7_3 O1_10 1_555 1_555
O1_10 C8_10 1_555 1_555
O10_5 C14_10 1_555 1_555
O3_10 C14_10 1_555 1_555
O4_10 C8_10 1_555 1_555
O19_8 Zn3 1_555 1_555
C1_10 C3_10 1_555 1_555
C2_10 C5_10 1_555 1_555
C3_10 C11_10 1_555 1_555
C4_10 C1_10 1_555 1_555
C5_10 C4_10 1_555 1_555
H1_10 C5_10 1_555 1_555
C6_10 C2_10 1_555 1_555
H2_10 C6_10 1_555 1_555
C7_10 C1_10 1_555 1_555
C8_10 C2_10 1_555 1_555
C9_10 C10_10 1_555 1_555
C10_10 H3_10 1_555 1_555
C11_10 C10_10 1_555 1_555
C12_10 C3_10 1_555 1_555
C13_10 C9_10 1_555 1_555
H4_10 C13_10 1_555 1_555
C14_10 C9_10 1_555 1_555
C15_10 C11_10 1_555 1_555
H5_10 C15_10 1_555 1_555
H6_10 C15_10 1_555 1_555
H7_10 C15_10 1_555 1_555
C16_10 C12_10 1_555 1_555
H8_10 C16_10 1_555 1_555
H9_10 C16_10 1_555 1_555
H10_10 C16_10 1_555 1_555
C17_10 C4_10 1_555 1_555
H11_10 C17_10 1_555 1_555
H12_10 C17_10 1_555 1_555
H13_10 C17_10 1_555 1_555
C18_10 C7_10 1_555 1_555
H14_10 C18_10 1_555 1_555
H15_10 C18_10 1_555 1_555
H16_10 C18_10 1_555 1_555
Zn3_4 O13_4 1_555 1_555
Zn3_2 O14_4 1_555 1_555
Zn9_6 O6_10 1_555 1_555
Zn10_3 O4_10 1_555 1_555
O6_10 C33_10 1_555 1_555
O7_10 Zn10_3 1_555 1_555
O11_5 C45_10 1_555 1_555
O12_5 C46_10 1_555 1_555
O13_4 C45_10 1_555 1_555
O14_4 C46_10 1_555 1_555
O17_10 Zn7_3 1_555 1_555
O18_10 Zn9_6 1_555 1_555
C19_10 C23_10 1_555 1_555
C20_10 C24_10 1_555 1_555
C21_10 C27_10 1_555 1_555
C22_10 C28_10 1_555 1_555
C23_10 C39_10 1_555 1_555
C24_10 C40_10 1_555 1_555
C25_10 C19_10 1_555 1_555
C26_10 C20_10 1_555 1_555
C27_10 C25_10 1_555 1_555
C28_10 C26_10 1_555 1_555
H17_10 C27_10 1_555 1_555
H18_10 C28_10 1_555 1_555
C29_10 C21_10 1_555 1_555
C30_10 C22_10 1_555 1_555
H19_10 C29_10 1_555 1_555
H20_10 C30_10 1_555 1_555
C31_10 C19_10 1_555 1_555
C32_10 C20_10 1_555 1_555
C33_10 O17_10 1_555 1_555
C34_10 O7_10 1_555 1_555
C35_10 C37_10 1_555 1_555
C36_10 C38_10 1_555 1_555
C37_10 H21_10 1_555 1_555
C38_10 H22_10 1_555 1_555
C39_10 C37_10 1_555 1_555
C40_10 C38_10 1_555 1_555
C41_10 C23_10 1_555 1_555
C42_10 C24_10 1_555 1_555
C43_10 C35_10 1_555 1_555
C44_10 C36_10 1_555 1_555
H23_10 C43_10 1_555 1_555
H24_10 C44_10 1_555 1_555
C45_10 C35_10 1_555 1_555
C46_10 C36_10 1_555 1_555
C47_10 C39_10 1_555 1_555
C48_10 C40_10 1_555 1_555
H25_10 C47_10 1_555 1_555
H26_10 C48_10 1_555 1_555
H27_10 C47_10 1_555 1_555
H28_10 C48_10 1_555 1_555
H29_10 C47_10 1_555 1_555
H30_10 C48_10 1_555 1_555
C49_10 C41_10 1_555 1_555
C50_10 C42_10 1_555 1_555
H31_10 C49_10 1_555 1_555
H32_10 C50_10 1_555 1_555
H33_10 C49_10 1_555 1_555
H34_10 C50_10 1_555 1_555
H35_10 C49_10 1_555 1_555
H36_10 C50_10 1_555 1_555
C51_10 C25_10 1_555 1_555
C52_10 C26_10 1_555 1_555
H37_10 C51_10 1_555 1_555
H38_10 C52_10 1_555 1_555
H39_10 C51_10 1_555 1_555
H40_10 C52_10 1_555 1_555
H41_10 C51_10 1_555 1_555
H42_10 C52_10 1_555 1_555
C53_10 C31_10 1_555 1_555
C54_10 C32_10 1_555 1_555
H43_10 C53_10 1_555 1_555
H44_10 C54_10 1_555 1_555
H45_10 C53_10 1_555 1_555
H46_10 C54_10 1_555 1_555
H47_10 C53_10 1_555 1_555
H48_10 C54_10 1_555 1_555
C6_10 C7_10 1_555 1_555
C12_10 C13_10 1_555 1_555
O18_10 C34_10 1_555 1_555
C21_10 C33_10 1_555 1_555
C22_10 C34_10 1_555 1_555
C29_10 C31_10 1_555 1_555
C30_10 C32_10 1_555 1_555
C41_10 C43_10 1_555 1_555
C42_10 C44_10 1_555 1_555
O19_9 Zn3_2 1_555 1_555
O19_10 Zn3_3 1_555 1_555
O19_11 Zn3_4 1_555 1_555
Zn3_5 O13_5 1_555 1_555
O11_4 C45_11 1_555 1_555
O13_5 C45_11 1_555 1_555
C23_11 C39_11 1_555 1_555
C35_11 C37_11 1_555 1_555
C37_11 H21_11 1_555 1_555
C39_11 C37_11 1_555 1_555
C41_11 C23_11 1_555 1_555
C43_11 C35_11 1_555 1_555
H23_11 C43_11 1_555 1_555
C45_11 C35_11 1_555 1_555
C49_11 C41_11 1_555 1_555
H31_11 C49_11 1_555 1_555
H33_11 C49_11 1_555 1_555
H35_11 C49_11 1_555 1_555
C41_11 C43_11 1_555 1_555
Zn7_2 O1_11 1_555 1_555
O1_11 C8_11 1_555 1_555
O4_11 C8_11 1_555 1_555
C2_11 C5_11 1_555 1_555
C4_11 C1_11 1_555 1_555
C5_11 C4_11 1_555 1_555
H1_11 C5_11 1_555 1_555
C6_11 C2_11 1_555 1_555
H2_11 C6_11 1_555 1_555
C7_11 C1_11 1_555 1_555
C8_11 C2_11 1_555 1_555
H5_11 C15_11 1_555 1_555
H6_11 C15_11 1_555 1_555
H7_11 C15_11 1_555 1_555
C17_11 C4_11 1_555 1_555
H12_11 C17_11 1_555 1_555
H13_11 C17_11 1_555 1_555
C18_11 C7_11 1_555 1_555
H14_11 C18_11 1_555 1_555
H15_11 C18_11 1_555 1_555
Zn3_5 O14_5 1_555 1_555
Zn9_5 O6_11 1_555 1_555
Zn10_2 O4_11 1_555 1_555
O6_11 C33_11 1_555 1_555
O7_11 Zn10_2 1_555 1_555
O12_4 C46_11 1_555 1_555
O14_5 C46_11 1_555 1_555
O17_11 Zn7_2 1_555 1_555
O18_11 Zn9_5 1_555 1_555
C20_11 C24_11 1_555 1_555
C21_11 C27_11 1_555 1_555
C22_11 C28_11 1_555 1_555
C24_11 C40_11 1_555 1_555
C25_11 C19_11 1_555 1_555
C26_11 C20_11 1_555 1_555
C27_11 C25_11 1_555 1_555
C28_11 C26_11 1_555 1_555
H17_11 C27_11 1_555 1_555
H18_11 C28_11 1_555 1_555
C29_11 C21_11 1_555 1_555
C30_11 C22_11 1_555 1_555
H19_11 C29_11 1_555 1_555
H20_11 C30_11 1_555 1_555
C31_11 C19_11 1_555 1_555
C32_11 C20_11 1_555 1_555
C33_11 O17_11 1_555 1_555
C34_11 O7_11 1_555 1_555
C36_11 C38_11 1_555 1_555
C38_11 H22_11 1_555 1_555
C40_11 C38_11 1_555 1_555
C42_11 C24_11 1_555 1_555
C44_11 C36_11 1_555 1_555
H24_11 C44_11 1_555 1_555
C46_11 C36_11 1_555 1_555
C48_11 C40_11 1_555 1_555
H25_11 C47_11 1_555 1_555
H26_11 C48_11 1_555 1_555
H27_11 C47_11 1_555 1_555
H28_11 C48_11 1_555 1_555
H29_11 C47_11 1_555 1_555
H30_11 C48_11 1_555 1_555
C50_11 C42_11 1_555 1_555
H32_11 C50_11 1_555 1_555
H34_11 C50_11 1_555 1_555
H36_11 C50_11 1_555 1_555
C51_11 C25_11 1_555 1_555
C52_11 C26_11 1_555 1_555
H38_11 C52_11 1_555 1_555
H39_11 C51_11 1_555 1_555
H40_11 C52_11 1_555 1_555
H41_11 C51_11 1_555 1_555
H42_11 C52_11 1_555 1_555
C53_11 C31_11 1_555 1_555
C54_11 C32_11 1_555 1_555
H43_11 C53_11 1_555 1_555
H44_11 C54_11 1_555 1_555
H45_11 C53_11 1_555 1_555
H46_11 C54_11 1_555 1_555
H48_11 C54_11 1_555 1_555
C6_11 C7_11 1_555 1_555
O18_11 C34_11 1_555 1_555
C21_11 C33_11 1_555 1_555
C22_11 C34_11 1_555 1_555
C29_11 C31_11 1_555 1_555
C30_11 C32_11 1_555 1_555
C42_11 C44_11 1_555 1_555
Zn3_5 O3_11 1_555 1_555
O10_4 C14_11 1_555 1_555
O3_11 C14_11 1_555 1_555
O19_7 Zn3_5 1_555 1_555
C3_11 C11_11 1_555 1_555
C9_11 C10_11 1_555 1_555
C10_11 H3_11 1_555 1_555
C11_11 C10_11 1_555 1_555
C12_11 C3_11 1_555 1_555
C13_11 C9_11 1_555 1_555
H4_11 C13_11 1_555 1_555
C14_11 C9_11 1_555 1_555
C16_11 C12_11 1_555 1_555
H8_11 C16_11 1_555 1_555
H9_11 C16_11 1_555 1_555
H10_11 C16_11 1_555 1_555
C12_11 C13_11 1_555 1_555
Zn3_6 O13_6 1_555 1_555
Zn9_4 O6_12 1_555 1_555
O6_12 C33_12 1_555 1_555
O11_6 C45_12 1_555 1_555
O13_6 C45_12 1_555 1_555
C19_12 C23_12 1_555 1_555
C21_12 C27_12 1_555 1_555
C23_12 C39_12 1_555 1_555
C25_12 C19_12 1_555 1_555
C27_12 C25_12 1_555 1_555
H17_12 C27_12 1_555 1_555
C29_12 C21_12 1_555 1_555
H19_12 C29_12 1_555 1_555
C31_12 C19_12 1_555 1_555
C33_12 O17_12 1_555 1_555
C35_12 C37_12 1_555 1_555
C37_12 H21_12 1_555 1_555
C39_12 C37_12 1_555 1_555
C41_12 C23_12 1_555 1_555
C43_12 C35_12 1_555 1_555
H23_12 C43_12 1_555 1_555
C45_12 C35_12 1_555 1_555
C47_12 C39_12 1_555 1_555
H25_12 C47_12 1_555 1_555
H27_12 C47_12 1_555 1_555
H29_12 C47_12 1_555 1_555
C49_12 C41_12 1_555 1_555
H31_12 C49_12 1_555 1_555
H33_12 C49_12 1_555 1_555
H35_12 C49_12 1_555 1_555
C51_12 C25_12 1_555 1_555
H37_12 C51_12 1_555 1_555
H41_12 C51_12 1_555 1_555
C53_12 C31_12 1_555 1_555
H43_12 C53_12 1_555 1_555
H45_12 C53_12 1_555 1_555
H47_12 C53_12 1_555 1_555
C21_12 C33_12 1_555 1_555
C29_12 C31_12 1_555 1_555
C41_12 C43_12 1_555 1_555
Zn3_6 O14_6 1_555 1_555
O12_6 C46_12 1_555 1_555
O14_6 C46_12 1_555 1_555
C20_12 C24_12 1_555 1_555
C22_12 C28_12 1_555 1_555
C24_12 C40_12 1_555 1_555
C26_12 C20_12 1_555 1_555
C28_12 C26_12 1_555 1_555
H18_12 C28_12 1_555 1_555
C30_12 C22_12 1_555 1_555
H20_12 C30_12 1_555 1_555
C32_12 C20_12 1_555 1_555
C34_12 O7_12 1_555 1_555
C36_12 C38_12 1_555 1_555
C38_12 H22_12 1_555 1_555
C40_12 C38_12 1_555 1_555
C42_12 C24_12 1_555 1_555
C44_12 C36_12 1_555 1_555
H24_12 C44_12 1_555 1_555
C46_12 C36_12 1_555 1_555
C48_12 C40_12 1_555 1_555
H26_12 C48_12 1_555 1_555
H28_12 C48_12 1_555 1_555
H30_12 C48_12 1_555 1_555
C50_12 C42_12 1_555 1_555
H32_12 C50_12 1_555 1_555
H34_12 C50_12 1_555 1_555
H36_12 C50_12 1_555 1_555
C52_12 C26_12 1_555 1_555
H38_12 C52_12 1_555 1_555
H42_12 C52_12 1_555 1_555
C54_12 C32_12 1_555 1_555
H44_12 C54_12 1_555 1_555
H46_12 C54_12 1_555 1_555
H48_12 C54_12 1_555 1_555
O18_12 C34_12 1_555 1_555
C22_12 C34_12 1_555 1_555
C30_12 C32_12 1_555 1_555
C42_12 C44_12 1_555 1_555
Zn3_6 O3_12 1_555 1_555
O1_12 C8_12 1_555 1_555
O10_6 C14_12 1_555 1_555
O3_12 C14_12 1_555 1_555
O4_12 C8_12 1_555 1_555
O19_12 Zn3_6 1_555 1_555
C1_12 C3_12 1_555 1_555
C2_12 C5_12 1_555 1_555
C3_12 C11_12 1_555 1_555
C4_12 C1_12 1_555 1_555
C5_12 C4_12 1_555 1_555
H1_12 C5_12 1_555 1_555
C6_12 C2_12 1_555 1_555
H2_12 C6_12 1_555 1_555
C7_12 C1_12 1_555 1_555
C8_12 C2_12 1_555 1_555
C9_12 C10_12 1_555 1_555
C10_12 H3_12 1_555 1_555
C11_12 C10_12 1_555 1_555
C12_12 C3_12 1_555 1_555
C13_12 C9_12 1_555 1_555
H4_12 C13_12 1_555 1_555
C14_12 C9_12 1_555 1_555
C15_12 C11_12 1_555 1_555
H5_12 C15_12 1_555 1_555
H6_12 C15_12 1_555 1_555
H7_12 C15_12 1_555 1_555
C16_12 C12_12 1_555 1_555
H8_12 C16_12 1_555 1_555
H9_12 C16_12 1_555 1_555
H10_12 C16_12 1_555 1_555
C17_12 C4_12 1_555 1_555
H11_12 C17_12 1_555 1_555
H12_12 C17_12 1_555 1_555
H13_12 C17_12 1_555 1_555
C18_12 C7_12 1_555 1_555
H14_12 C18_12 1_555 1_555
H15_12 C18_12 1_555 1_555
H16_12 C18_12 1_555 1_555
Zn10 O4_12 1_555 1_555
C6_12 C7_12 1_555 1_555
C12_12 C13_12 1_555 1_555

#END
