
###############################################################################
#
# This file contains modified crystal structure data generated from the
# MOF subset of the Cambridge Structural Database (CSD) v543 
# hosted by the Cambridge Crystallographic Data Centre (CCDC).
#
# This work is licensed under the Creative Commons
# Attribution-NonCommercial-ShareAlike 4.0 International License.
# To view a copy of this license, visit
# http://creativecommons.org/licenses/by-nc-sa/4.0/
# or send a letter to
# Creative Commons, PO Box 1866, Mountain View, CA 94042, USA.
#
# CIF created using the CSD Python API on 29 September 2022
# The structure has been converted into the P1 space group
# The structure has a 3D framework
# The original CSD entry EWAXUV is in the monoclinic crystal system
# The framework has been calculated to contain at least 10.0% void space
# The void calculation uses a probe of radius 1.32A, grid spacing 0.4
#
###############################################################################

data_EWAXUV
_chemical_formula_moiety         '(C224 H224 Cu12 N64 O30 S8)n'
_symmetry_cell_setting           triclinic
_symmetry_space_group_name_H-M   'P 1'
_symmetry_Int_Tables_number      1
_space_group_name_Hall           'P 1'
loop_
_symmetry_equiv_pos_site_id
_symmetry_equiv_pos_as_xyz
1 x,y,z
_cell_length_a                   23.548(11)
_cell_length_b                   18.524(8)
_cell_length_c                   16.469(8)
_cell_angle_alpha                90
_cell_angle_beta                 102.008(17)
_cell_angle_gamma                90
_cell_volume                     7026.64
loop_
_atom_site_label
_atom_site_type_symbol
_atom_site_fract_x
_atom_site_fract_y
_atom_site_fract_z
Cu4 Cu 0.2500 0.7500 0.0000
Cu1 Cu 0.0000 0.23705(9) 0.2500
N1 N 0.0486(3) 0.3148(4) 0.2167(6)
N2 N 0.0989(4) 0.4157(5) 0.2201(6)
N3 N 0.4493(3) 0.6584(4) 0.2802(6)
N4 N 0.3989(4) 0.5579(5) 0.2640(6)
C1 C 0.0737(4) 0.3684(6) 0.2626(7)
H1 H 0.0740 0.3729 0.3190
C2 C 0.0894(6) 0.3910(7) 0.1404(8)
H2 H 0.1016 0.4122 0.0958
C3 C 0.0592(5) 0.3293(7) 0.1404(8)
H3 H 0.0469 0.3002 0.0941
C4 C 0.4224(4) 0.6109(6) 0.2258(8)
H4 H 0.4203 0.6135 0.1688
C5 C 0.4124(5) 0.5718(7) 0.3472(8)
H5 H 0.4023 0.5443 0.3893
C6 C 0.4428(5) 0.6337(6) 0.3551(7)
H6 H 0.4578 0.6564 0.4053
C7 C 0.1285(5) 0.4832(6) 0.2509(9)
H7 H 0.1269 0.4890 0.3089
H8 H 0.1081 0.5237 0.2206
C8 C 0.3684(5) 0.4943(7) 0.2249(10)
H9 H 0.3699 0.4938 0.1665
H10 H 0.3880 0.4513 0.2503
C9 C 0.1904(5) 0.4848(6) 0.2428(6)
C10 C 0.2116(5) 0.5433(6) 0.2049(7)
H11 H 0.1868 0.5810 0.1837
C11 C 0.2285(5) 0.4300(6) 0.2760(7)
H12 H 0.2152 0.3902 0.3012
C12 C 0.3059(5) 0.4925(6) 0.2325(7)
C13 C 0.2674(5) 0.5461(6) 0.1990(7)
H13 H 0.2807 0.5846 0.1719
C14 C 0.2844(5) 0.4344(6) 0.2710(8)
H14 H 0.3096 0.3976 0.2938
Cu2 Cu 0.2500 0.2500 0.5000
N5 N 0.2351(4) 0.3570(4) 0.4928(5)
N6 N 0.2445(4) 0.4733(4) 0.4735(5)
N7 N 0.2347(3) 0.7548(4) 0.8775(4)
N8 N 0.2457(4) 0.7685(4) 0.7492(5)
C15 C 0.2719(6) 0.4085(5) 0.4844(6)
H15 H 0.3110 0.4013 0.4851
C16 C 0.1890(6) 0.4620(6) 0.4777(8)
H16 H 0.1599 0.4967 0.4730
C17 C 0.1830(5) 0.3904(6) 0.4893(7)
H17 H 0.1490 0.3672 0.4948
C18 C 0.2734(4) 0.7614(5) 0.8303(6)
H18 H 0.3134 0.7609 0.8493
C19 C 0.1818(5) 0.7585(5) 0.8280(6)
H19 H 0.1468 0.7547 0.8453
C20 C 0.1872(5) 0.7688(5) 0.7469(6)
H20 H 0.1575 0.7746 0.7003
C21 C 0.2710(7) 0.5417(6) 0.4519(8)
H21 H 0.3111 0.5322 0.4493
H22 H 0.2509 0.5571 0.3971
C22 C 0.2734(6) 0.7828(6) 0.6776(7)
H23 H 0.3136 0.7967 0.6980
H24 H 0.2537 0.8228 0.6455
C23 C 0.2713(6) 0.6022(5) 0.5126(7)
C24 C 0.2196(6) 0.6381(6) 0.5169(7)
H25 H 0.1845 0.6231 0.4841
C25 C 0.2210(6) 0.6967(6) 0.5726(7)
H26 H 0.1868 0.7211 0.5740
C26 C 0.2715(5) 0.7178(6) 0.6223(6)
C27 C 0.3215(6) 0.6836(6) 0.6166(7)
H27 H 0.3567 0.6991 0.6488
C28 C 0.3210(6) 0.6254(6) 0.5617(8)
H28 H 0.3555 0.6019 0.5592
O1 O 0.1454(3) 0.2271(4) 0.5040(5)
O2 O 0.0627(4) 0.1563(5) 0.5129(6)
O3 O 0.0598(3) 0.2386(5) 0.4011(4)
O4 O 0.0627(4) 0.2816(5) 0.5376(6)
S1 S 0.08307(13) 0.22479(16) 0.48808(18)
N13 N 0.2649(4) 0.1430(4) 0.5072(5)
N14 N 0.2555(4) 0.0267(4) 0.5265(5)
C43 C 0.2281(6) 0.0915(5) 0.5156(6)
H43 H 0.1890 0.0987 0.5149
C44 C 0.3110(6) 0.0380(6) 0.5223(8)
H44 H 0.3401 0.0033 0.5270
C45 C 0.3170(5) 0.1096(6) 0.5107(7)
H45 H 0.3510 0.1328 0.5052
N18 N 0.0507(3) 0.1584(4) 0.2198(6)
Cu3 Cu 0.5000 0.73705(9) 0.2500
N19 N 0.2347(3) 0.2452(4) 0.3775(4)
N20 N 0.2653(3) 0.2548(4) 0.6225(4)
O9 O 0.3546(3) 0.2729(4) 0.4960(5)
Cu4_2 Cu 0.2500 0.7500 1.0000
N15 N 0.2653(3) 0.7452(4) 0.1225(4)
N16 N 0.2543(4) 0.7315(4) 0.2508(5)
C46 C 0.2266(4) 0.7386(5) 0.1697(6)
H46 H 0.1866 0.7391 0.1507
C47 C 0.3182(5) 0.7415(5) 0.1720(6)
H47 H 0.3532 0.7453 0.1547
C48 C 0.3128(5) 0.7312(5) 0.2531(6)
H48 H 0.3425 0.7254 0.2997
C49 C 0.2290(7) 0.9583(6) 0.5481(8)
H49 H 0.1889 0.9678 0.5507
H50 H 0.2491 0.9429 0.6029
C50 C 0.2266(6) 0.7172(6) 0.3224(7)
H51 H 0.1864 0.7033 0.3020
H52 H 0.2463 0.6772 0.3545
C51 C 0.2287(6) 0.8978(5) 0.4874(7)
C52 C 0.2804(6) 0.8619(6) 0.4831(7)
H53 H 0.3155 0.8769 0.5159
C53 C 0.2790(6) 0.8033(6) 0.4274(7)
H54 H 0.3132 0.7789 0.4260
C54 C 0.2285(5) 0.7822(6) 0.3777(6)
C55 C 0.1785(6) 0.8164(6) 0.3834(7)
H55 H 0.1433 0.8009 0.3512
C56 C 0.1790(6) 0.8746(6) 0.4383(8)
H56 H 0.1445 0.8981 0.4408
Cu1_2 Cu 1.0000 0.23705(9) 0.2500
N9 N 0.9514(3) 0.3148(4) 0.2833(6)
N10 N 0.9011(4) 0.4157(5) 0.2799(6)
N11 N 0.5507(3) 0.6584(4) 0.2198(6)
N12 N 0.6011(4) 0.5579(5) 0.2360(6)
C29 C 0.9263(4) 0.3684(6) 0.2374(7)
H29 H 0.9260 0.3729 0.1810
C30 C 0.9106(6) 0.3910(7) 0.3596(8)
H30 H 0.8984 0.4122 0.4042
C31 C 0.9408(5) 0.3293(7) 0.3596(8)
H31 H 0.9531 0.3002 0.4059
C32 C 0.5776(4) 0.6109(6) 0.2742(8)
H32 H 0.5797 0.6135 0.3312
C33 C 0.5876(5) 0.5718(7) 0.1528(8)
H33 H 0.5977 0.5443 0.1107
C34 C 0.5572(5) 0.6337(6) 0.1449(7)
H34 H 0.5422 0.6564 0.0947
C35 C 0.8715(5) 0.4832(6) 0.2491(9)
H35 H 0.8731 0.4890 0.1911
H36 H 0.8919 0.5237 0.2794
C36 C 0.6316(5) 0.4943(7) 0.2751(10)
H37 H 0.6301 0.4938 0.3335
H38 H 0.6120 0.4513 0.2497
C37 C 0.8096(5) 0.4848(6) 0.2572(6)
C38 C 0.7884(5) 0.5433(6) 0.2951(7)
H39 H 0.8132 0.5810 0.3163
C39 C 0.7715(5) 0.4300(6) 0.2240(7)
H40 H 0.7848 0.3902 0.1988
C40 C 0.6941(5) 0.4925(6) 0.2675(7)
C41 C 0.7326(5) 0.5461(6) 0.3010(7)
H41 H 0.7193 0.5846 0.3281
C42 C 0.7156(5) 0.4344(6) 0.2290(8)
H42 H 0.6904 0.3976 0.2062
O7 O 0.9402(3) 0.2386(5) 0.0989(4)
S2 S 0.91693(13) 0.22479(16) 0.01192(18)
N17 N 0.9493(3) 0.1584(4) 0.2802(6)
Cu6 Cu 0.7500 0.2500 0.0000
O5 O 0.8546(3) 0.2271(4) 0.9960(5)
O6 O 0.9373(4) 0.1563(5) 0.9871(6)
O8 O 0.9373(4) 0.2816(5) 0.9624(6)
Cu6_2 Cu 0.7500 0.2500 1.0000
N4_2 N 0.8989(4) 0.0579(5) 0.2640(6)
C4_2 C 0.9224(4) 0.1109(6) 0.2258(8)
H4_2 H 0.9203 0.1135 0.1688
C5_2 C 0.9124(5) 0.0718(7) 0.3472(8)
H5_2 H 0.9023 0.0443 0.3893
C6_2 C 0.9428(5) 0.1337(6) 0.3551(7)
H6_2 H 0.9578 0.1564 0.4053
H8_2 H 0.6081 0.0237 0.2206
C10_2 C 0.7116(5) 0.0433(6) 0.2049(7)
H11_2 H 0.6868 0.0810 0.1837
C13_2 C 0.7674(5) 0.0461(6) 0.1990(7)
H13_2 H 0.7807 0.0846 0.1719
N7_2 N 0.7347(3) 0.2548(4) 0.8775(4)
N8_2 N 0.7457(4) 0.2685(4) 0.7492(5)
C18_2 C 0.7734(4) 0.2614(5) 0.8303(6)
H18_2 H 0.8134 0.2609 0.8493
C19_2 C 0.6818(5) 0.2585(5) 0.8280(6)
H19_2 H 0.6468 0.2547 0.8453
C20_2 C 0.6872(5) 0.2688(5) 0.7469(6)
H20_2 H 0.6575 0.2746 0.7003
C21_2 C 0.7710(7) 0.0417(6) 0.4519(8)
H21_2 H 0.8111 0.0322 0.4493
H22_2 H 0.7509 0.0571 0.3971
C22_2 C 0.7734(6) 0.2828(6) 0.6776(7)
H23_2 H 0.8136 0.2967 0.6980
H24_2 H 0.7537 0.3228 0.6455
C23_2 C 0.7713(6) 0.1022(5) 0.5126(7)
C24_2 C 0.7196(6) 0.1381(6) 0.5169(7)
H25_2 H 0.6845 0.1231 0.4841
C25_2 C 0.7210(6) 0.1967(6) 0.5726(7)
H26_2 H 0.6868 0.2211 0.5740
C26_2 C 0.7715(5) 0.2178(6) 0.6223(6)
C27_2 C 0.8215(6) 0.1836(6) 0.6166(7)
H27_2 H 0.8567 0.1991 0.6488
C28_2 C 0.8210(6) 0.1254(6) 0.5617(8)
H28_2 H 0.8555 0.1019 0.5592
N12_2 N 0.1011(4) 0.0579(5) 0.2360(6)
C32_2 C 0.0776(4) 0.1109(6) 0.2742(8)
H32_2 H 0.0797 0.1135 0.3312
C33_2 C 0.0876(5) 0.0718(7) 0.1528(8)
H33_2 H 0.0977 0.0443 0.1107
C34_2 C 0.0572(5) 0.1337(6) 0.1449(7)
H34_2 H 0.0422 0.1564 0.0947
H36_2 H 0.3919 0.0237 0.2794
C38_2 C 0.2884(5) 0.0433(6) 0.2951(7)
H39_2 H 0.3132 0.0810 0.3163
C41_2 C 0.2326(5) 0.0461(6) 0.3010(7)
H41_2 H 0.2193 0.0846 0.3281
N1_2 N 0.5486(3) 0.8148(4) 0.2167(6)
N2_2 N 0.5989(4) 0.9157(5) 0.2201(6)
C1_2 C 0.5737(4) 0.8684(6) 0.2626(7)
H1_2 H 0.5740 0.8729 0.3190
C2_2 C 0.5894(6) 0.8910(7) 0.1404(8)
H2_2 H 0.6016 0.9122 0.0958
C3_2 C 0.5592(5) 0.8293(7) 0.1404(8)
H3_2 H 0.5469 0.8002 0.0941
C7_2 C 0.6285(5) 0.9832(6) 0.2509(9)
H7_2 H 0.6269 0.9890 0.3089
C8_2 C 0.8684(5) 0.9943(7) 0.2249(10)
H9_2 H 0.8699 0.9938 0.1665
H10_2 H 0.8880 0.9513 0.2503
C9_2 C 0.6904(5) 0.9848(6) 0.2428(6)
C11_2 C 0.7285(5) 0.9300(6) 0.2760(7)
H12_2 H 0.7152 0.8902 0.3012
C12_2 C 0.8059(5) 0.9925(6) 0.2325(7)
C14_2 C 0.7844(5) 0.9344(6) 0.2710(8)
H14_2 H 0.8096 0.8976 0.2938
Cu2_2 Cu 0.7500 0.7500 0.5000
N5_2 N 0.7351(4) 0.8570(4) 0.4928(5)
N6_2 N 0.7445(4) 0.9733(4) 0.4735(5)
C15_2 C 0.7719(6) 0.9085(5) 0.4844(6)
H15_2 H 0.8110 0.9013 0.4851
C16_2 C 0.6890(6) 0.9620(6) 0.4777(8)
H16_2 H 0.6599 0.9967 0.4730
C17_2 C 0.6830(5) 0.8904(6) 0.4893(7)
H17_2 H 0.6490 0.8672 0.4948
O1_2 O 0.6454(3) 0.7271(4) 0.5040(5)
O2_2 O 0.5627(4) 0.6563(5) 0.5129(6)
O3_2 O 0.5598(3) 0.7386(5) 0.4011(4)
O4_2 O 0.5627(4) 0.7816(5) 0.5376(6)
S1_2 S 0.58307(13) 0.72479(16) 0.48808(18)
N9_2 N 0.4514(3) 0.8148(4) 0.2833(6)
N10_2 N 0.4011(4) 0.9157(5) 0.2799(6)
C29_2 C 0.4263(4) 0.8684(6) 0.2374(7)
H29_2 H 0.4260 0.8729 0.1810
C30_2 C 0.4106(6) 0.8910(7) 0.3596(8)
H30_2 H 0.3984 0.9122 0.4042
C31_2 C 0.4408(5) 0.8293(7) 0.3596(8)
H31_2 H 0.4531 0.8002 0.4059
C35_2 C 0.3715(5) 0.9832(6) 0.2491(9)
H35_2 H 0.3731 0.9890 0.1911
C36_2 C 0.1316(5) 0.9943(7) 0.2751(10)
H37_2 H 0.1301 0.9938 0.3335
H38_2 H 0.1120 0.9513 0.2497
C37_2 C 0.3096(5) 0.9848(6) 0.2572(6)
C39_2 C 0.2715(5) 0.9300(6) 0.2240(7)
H40_2 H 0.2848 0.8902 0.1988
C40_2 C 0.1941(5) 0.9925(6) 0.2675(7)
C42_2 C 0.2156(5) 0.9344(6) 0.2290(8)
H42_2 H 0.1904 0.8976 0.2062
O7_2 O 0.4402(3) 0.7386(5) 0.0989(4)
S2_2 S 0.41693(13) 0.72479(16) 0.01192(18)
N13_2 N 0.7649(4) 0.6430(4) 0.5072(5)
N14_2 N 0.7555(4) 0.5267(4) 0.5265(5)
N15_2 N 0.7653(3) 0.2452(4) 0.1225(4)
N16_2 N 0.7543(4) 0.2315(4) 0.2508(5)
C43_2 C 0.7281(6) 0.5915(5) 0.5156(6)
H43_2 H 0.6890 0.5987 0.5149
C44_2 C 0.8110(6) 0.5380(6) 0.5223(8)
H44_2 H 0.8401 0.5033 0.5270
C45_2 C 0.8170(5) 0.6096(6) 0.5107(7)
H45_2 H 0.8510 0.6328 0.5052
C46_2 C 0.7266(4) 0.2386(5) 0.1697(6)
H46_2 H 0.6866 0.2391 0.1507
C47_2 C 0.8182(5) 0.2415(5) 0.1720(6)
H47_2 H 0.8532 0.2453 0.1547
C48_2 C 0.8128(5) 0.2312(5) 0.2531(6)
H48_2 H 0.8425 0.2254 0.2997
C49_2 C 0.7290(7) 0.4583(6) 0.5481(8)
H49_2 H 0.6889 0.4678 0.5507
H50_2 H 0.7491 0.4429 0.6029
C50_2 C 0.7266(6) 0.2172(6) 0.3224(7)
H51_2 H 0.6864 0.2033 0.3020
H52_2 H 0.7463 0.1772 0.3545
C51_2 C 0.7287(6) 0.3978(5) 0.4874(7)
C52_2 C 0.7804(6) 0.3619(6) 0.4831(7)
H53_2 H 0.8155 0.3769 0.5159
C53_2 C 0.7790(6) 0.3033(6) 0.4274(7)
H54_2 H 0.8132 0.2789 0.4260
C54_2 C 0.7285(5) 0.2822(6) 0.3777(6)
C55_2 C 0.6785(6) 0.3164(6) 0.3834(7)
H55_2 H 0.6433 0.3009 0.3512
C56_2 C 0.6790(6) 0.3746(6) 0.4383(8)
H56_2 H 0.6445 0.3981 0.4408
N19_2 N 0.7347(3) 0.7452(4) 0.3775(4)
N20_2 N 0.7653(3) 0.7548(4) 0.6225(4)
O9_2 O 0.8546(3) 0.7729(4) 0.4960(5)
O5_2 O 0.3546(3) 0.7271(4) 0.9960(5)
O6_2 O 0.4373(4) 0.6563(5) 0.9871(6)
O8_2 O 0.4373(4) 0.7816(5) 0.9624(6)
C49_3 C 0.2290(7) 0.0417(6) 0.0481(8)
H49_3 H 0.1889 0.0322 0.0507
H50_3 H 0.2491 0.0571 0.1029
H53_3 H 0.3155 0.1231 0.0159
N16_3 N 0.2543(4) 0.2685(4) 0.7508(5)
C46_3 C 0.2266(4) 0.2614(5) 0.6697(6)
H46_3 H 0.1866 0.2609 0.6507
C47_3 C 0.3182(5) 0.2585(5) 0.6720(6)
H47_3 H 0.3532 0.2547 0.6547
C48_3 C 0.3128(5) 0.2688(5) 0.7531(6)
H48_3 H 0.3425 0.2746 0.7997
C50_3 C 0.2266(6) 0.2828(6) 0.8224(7)
H51_3 H 0.1864 0.2967 0.8020
H52_3 H 0.2463 0.3228 0.8545
C51_3 C 0.2287(6) 0.1022(5) 0.9874(7)
C52_3 C 0.2804(6) 0.1381(6) 0.9831(7)
C53_3 C 0.2790(6) 0.1967(6) 0.9274(7)
H54_3 H 0.3132 0.2211 0.9260
C54_3 C 0.2285(5) 0.2178(6) 0.8777(6)
C55_3 C 0.1785(6) 0.1836(6) 0.8834(7)
H55_3 H 0.1433 0.1991 0.8512
C56_3 C 0.1790(6) 0.1254(6) 0.9383(8)
H56_3 H 0.1445 0.1019 0.9408
N8_3 N 0.2457(4) 0.2315(4) 0.2492(5)
C18_3 C 0.2734(4) 0.2386(5) 0.3303(6)
H18_3 H 0.3134 0.2391 0.3493
C19_3 C 0.1818(5) 0.2415(5) 0.3280(6)
H19_3 H 0.1468 0.2453 0.3453
C20_3 C 0.1872(5) 0.2312(5) 0.2469(6)
H20_3 H 0.1575 0.2254 0.2003
C22_3 C 0.2734(6) 0.2172(6) 0.1776(7)
H23_3 H 0.3136 0.2033 0.1980
H24_3 H 0.2537 0.1772 0.1455
C23_3 C 0.2713(6) 0.3978(5) 0.0126(7)
C24_3 C 0.2196(6) 0.3619(6) 0.0169(7)
C25_3 C 0.2210(6) 0.3033(6) 0.0726(7)
H26_3 H 0.1868 0.2789 0.0740
C26_3 C 0.2715(5) 0.2822(6) 0.1223(6)
C27_3 C 0.3215(6) 0.3164(6) 0.1166(7)
H27_3 H 0.3567 0.3009 0.1488
C28_3 C 0.3210(6) 0.3746(6) 0.0617(8)
H28_3 H 0.3555 0.3981 0.0592
O1_3 O 0.1454(3) 0.7729(4) 0.0040(5)
O2_3 O 0.0627(4) 0.8437(5) 0.0129(6)
O4_3 O 0.0627(4) 0.7184(5) 0.0376(6)
N13_3 N 0.2649(4) 0.8570(4) 0.0072(5)
N14_3 N 0.2555(4) 0.9733(4) 0.0265(5)
C43_3 C 0.2281(6) 0.9085(5) 0.0156(6)
H43_3 H 0.1890 0.9013 0.0149
C44_3 C 0.3110(6) 0.9620(6) 0.0223(8)
H44_3 H 0.3401 0.9967 0.0270
C45_3 C 0.3170(5) 0.8904(6) 0.0107(7)
H45_3 H 0.3510 0.8672 0.0052
Cu1_3 Cu 0.0000 0.76295(9) 0.7500
N1_3 N 0.0486(3) 0.6852(4) 0.7167(6)
N2_3 N 0.0989(4) 0.5843(5) 0.7201(6)
N3_2 N 0.4493(3) 0.3416(4) 0.7802(6)
N4_3 N 0.3989(4) 0.4421(5) 0.7640(6)
C1_3 C 0.0737(4) 0.6316(6) 0.7626(7)
H1_3 H 0.0740 0.6271 0.8190
C2_3 C 0.0894(6) 0.6090(7) 0.6404(8)
H2_3 H 0.1016 0.5878 0.5958
C3_3 C 0.0592(5) 0.6707(7) 0.6404(8)
H3_3 H 0.0469 0.6998 0.5941
C4_3 C 0.4224(4) 0.3891(6) 0.7258(8)
H4_3 H 0.4203 0.3865 0.6688
C5_3 C 0.4124(5) 0.4282(7) 0.8472(8)
H5_3 H 0.4023 0.4557 0.8893
C6_3 C 0.4428(5) 0.3663(6) 0.8551(7)
H6_3 H 0.4578 0.3436 0.9053
C7_3 C 0.1285(5) 0.5168(6) 0.7509(9)
H7_3 H 0.1269 0.5110 0.8089
H8_3 H 0.1081 0.4763 0.7206
C8_3 C 0.3684(5) 0.5057(7) 0.7249(10)
H9_3 H 0.3699 0.5062 0.6665
H10_3 H 0.3880 0.5487 0.7503
C9_3 C 0.1904(5) 0.5152(6) 0.7428(6)
C10_3 C 0.2116(5) 0.4567(6) 0.7049(7)
H11_3 H 0.1868 0.4190 0.6837
C11_3 C 0.2285(5) 0.5700(6) 0.7760(7)
H12_3 H 0.2152 0.6098 0.8012
C12_3 C 0.3059(5) 0.5075(6) 0.7325(7)
C13_3 C 0.2674(5) 0.4539(6) 0.6990(7)
H13_3 H 0.2807 0.4154 0.6719
C14_3 C 0.2844(5) 0.5656(6) 0.7710(8)
H14_3 H 0.3096 0.6024 0.7938
N5_3 N 0.2351(4) 0.6430(4) 0.9928(5)
N6_3 N 0.2445(4) 0.5267(4) 0.9735(5)
C15_3 C 0.2719(6) 0.5915(5) 0.9844(6)
H15_3 H 0.3110 0.5987 0.9851
C16_3 C 0.1890(6) 0.5380(6) 0.9777(8)
H16_3 H 0.1599 0.5033 0.9730
C17_3 C 0.1830(5) 0.6096(6) 0.9893(7)
H17_3 H 0.1490 0.6328 0.9948
C21_3 C 0.2710(7) 0.4583(6) 0.9519(8)
H21_3 H 0.3111 0.4678 0.9493
H22_3 H 0.2509 0.4429 0.8971
H25_3 H 0.1845 0.3769 0.9841
O3_3 O 0.0598(3) 0.7614(5) 0.9011(4)
S1_3 S 0.08307(13) 0.77521(16) 0.98808(18)
N18_2 N 0.0507(3) 0.8416(4) 0.7198(6)
Cu3_2 Cu 0.5000 0.26295(9) 0.7500
Cu1_4 Cu 1.0000 0.76295(9) 0.7500
N9_3 N 0.9514(3) 0.6852(4) 0.7833(6)
N10_3 N 0.9011(4) 0.5843(5) 0.7799(6)
N11_2 N 0.5507(3) 0.3416(4) 0.7198(6)
N12_3 N 0.6011(4) 0.4421(5) 0.7360(6)
C29_3 C 0.9263(4) 0.6316(6) 0.7374(7)
H29_3 H 0.9260 0.6271 0.6810
C30_3 C 0.9106(6) 0.6090(7) 0.8596(8)
H30_3 H 0.8984 0.5878 0.9042
C31_3 C 0.9408(5) 0.6707(7) 0.8596(8)
H31_3 H 0.9531 0.6998 0.9059
C32_3 C 0.5776(4) 0.3891(6) 0.7742(8)
H32_3 H 0.5797 0.3865 0.8312
C33_3 C 0.5876(5) 0.4282(7) 0.6528(8)
H33_3 H 0.5977 0.4557 0.6107
C34_3 C 0.5572(5) 0.3663(6) 0.6449(7)
H34_3 H 0.5422 0.3436 0.5947
C35_3 C 0.8715(5) 0.5168(6) 0.7491(9)
H35_3 H 0.8731 0.5110 0.6911
H36_3 H 0.8919 0.4763 0.7794
C36_3 C 0.6316(5) 0.5057(7) 0.7751(10)
H37_3 H 0.6301 0.5062 0.8335
H38_3 H 0.6120 0.5487 0.7497
C37_3 C 0.8096(5) 0.5152(6) 0.7572(6)
C38_3 C 0.7884(5) 0.4567(6) 0.7951(7)
H39_3 H 0.8132 0.4190 0.8163
C39_3 C 0.7715(5) 0.5700(6) 0.7240(7)
H40_3 H 0.7848 0.6098 0.6988
C40_3 C 0.6941(5) 0.5075(6) 0.7675(7)
C41_3 C 0.7326(5) 0.4539(6) 0.8010(7)
H41_3 H 0.7193 0.4154 0.8281
C42_3 C 0.7156(5) 0.5656(6) 0.7290(8)
H42_3 H 0.6904 0.6024 0.7062
O6_3 O 0.9373(4) 0.8437(5) 0.4871(6)
O7_3 O 0.9402(3) 0.7614(5) 0.5989(4)
O8_3 O 0.9373(4) 0.7184(5) 0.4624(6)
S2_3 S 0.91693(13) 0.77521(16) 0.51192(18)
N17_2 N 0.9493(3) 0.8416(4) 0.7802(6)
O1_4 O 0.6454(3) 0.2729(4) 0.0040(5)
O2_4 O 0.5627(4) 0.3437(5) 0.0129(6)
O4_4 O 0.5627(4) 0.2184(5) 0.0376(6)
N13_4 N 0.7649(4) 0.3570(4) 0.0072(5)
N14_4 N 0.7555(4) 0.4733(4) 0.0265(5)
C43_4 C 0.7281(6) 0.4085(5) 0.0156(6)
H43_4 H 0.6890 0.4013 0.0149
C44_4 C 0.8110(6) 0.4620(6) 0.0223(8)
H44_4 H 0.8401 0.4967 0.0270
C45_4 C 0.8170(5) 0.3904(6) 0.0107(7)
H45_4 H 0.8510 0.3672 0.0052
C49_4 C 0.7290(7) 0.5417(6) 0.0481(8)
H49_4 H 0.6889 0.5322 0.0507
H50_4 H 0.7491 0.5571 0.1029
H53_4 H 0.8155 0.6231 0.0159
N1_4 N 0.5486(3) 0.1852(4) 0.7167(6)
N2_4 N 0.5989(4) 0.0843(5) 0.7201(6)
C1_4 C 0.5737(4) 0.1316(6) 0.7626(7)
H1_4 H 0.5740 0.1271 0.8190
C2_4 C 0.5894(6) 0.1090(7) 0.6404(8)
H2_4 H 0.6016 0.0878 0.5958
C3_4 C 0.5592(5) 0.1707(7) 0.6404(8)
H3_4 H 0.5469 0.1998 0.5941
C7_4 C 0.6285(5) 0.0168(6) 0.7509(9)
H7_4 H 0.6269 0.0110 0.8089
C8_4 C 0.8684(5) 0.0057(7) 0.7249(10)
H9_4 H 0.8699 0.0062 0.6665
H10_4 H 0.8880 0.0487 0.7503
C9_4 C 0.6904(5) 0.0152(6) 0.7428(6)
C11_4 C 0.7285(5) 0.0700(6) 0.7760(7)
H12_4 H 0.7152 0.1098 0.8012
C12_4 C 0.8059(5) 0.0075(6) 0.7325(7)
C14_4 C 0.7844(5) 0.0656(6) 0.7710(8)
H14_4 H 0.8096 0.1024 0.7938
N5_4 N 0.7351(4) 0.1430(4) 0.9928(5)
N6_4 N 0.7445(4) 0.0267(4) 0.9735(5)
C15_4 C 0.7719(6) 0.0915(5) 0.9844(6)
H15_4 H 0.8110 0.0987 0.9851
C16_4 C 0.6890(6) 0.0380(6) 0.9777(8)
H16_4 H 0.6599 0.0033 0.9730
C17_4 C 0.6830(5) 0.1096(6) 0.9893(7)
H17_4 H 0.6490 0.1328 0.9948
O3_4 O 0.5598(3) 0.2614(5) 0.9011(4)
S1_4 S 0.58307(13) 0.27521(16) 0.98808(18)
N9_4 N 0.4514(3) 0.1852(4) 0.7833(6)
N10_4 N 0.4011(4) 0.0843(5) 0.7799(6)
C29_4 C 0.4263(4) 0.1316(6) 0.7374(7)
H29_4 H 0.4260 0.1271 0.6810
C30_4 C 0.4106(6) 0.1090(7) 0.8596(8)
H30_4 H 0.3984 0.0878 0.9042
C31_4 C 0.4408(5) 0.1707(7) 0.8596(8)
H31_4 H 0.4531 0.1998 0.9059
C35_4 C 0.3715(5) 0.0168(6) 0.7491(9)
H35_4 H 0.3731 0.0110 0.6911
C36_4 C 0.1316(5) 0.0057(7) 0.7751(10)
H37_4 H 0.1301 0.0062 0.8335
H38_4 H 0.1120 0.0487 0.7497
C37_4 C 0.3096(5) 0.0152(6) 0.7572(6)
C39_4 C 0.2715(5) 0.0700(6) 0.7240(7)
H40_4 H 0.2848 0.1098 0.6988
C40_4 C 0.1941(5) 0.0075(6) 0.7675(7)
C42_4 C 0.2156(5) 0.0656(6) 0.7290(8)
H42_4 H 0.1904 0.1024 0.7062
O6_4 O 0.4373(4) 0.3437(5) 0.4871(6)
O7_4 O 0.4402(3) 0.2614(5) 0.5989(4)
O8_4 O 0.4373(4) 0.2184(5) 0.4624(6)
S2_4 S 0.41693(13) 0.27521(16) 0.51192(18)
N16_4 N 0.7543(4) 0.7685(4) 0.7508(5)
C46_4 C 0.7266(4) 0.7614(5) 0.6697(6)
H46_4 H 0.6866 0.7609 0.6507
C47_4 C 0.8182(5) 0.7585(5) 0.6720(6)
H47_4 H 0.8532 0.7547 0.6547
C48_4 C 0.8128(5) 0.7688(5) 0.7531(6)
H48_4 H 0.8425 0.7746 0.7997
C50_4 C 0.7266(6) 0.7828(6) 0.8224(7)
H51_4 H 0.6864 0.7967 0.8020
H52_4 H 0.7463 0.8228 0.8545
C51_4 C 0.7287(6) 0.6022(5) 0.9874(7)
C52_4 C 0.7804(6) 0.6381(6) 0.9831(7)
C53_4 C 0.7790(6) 0.6967(6) 0.9274(7)
H54_4 H 0.8132 0.7211 0.9260
C54_4 C 0.7285(5) 0.7178(6) 0.8777(6)
C55_4 C 0.6785(6) 0.6836(6) 0.8834(7)
H55_4 H 0.6433 0.6991 0.8512
C56_4 C 0.6790(6) 0.6254(6) 0.9383(8)
H56_4 H 0.6445 0.6019 0.9408
N8_4 N 0.7457(4) 0.7315(4) 0.2492(5)
C18_4 C 0.7734(4) 0.7386(5) 0.3303(6)
H18_4 H 0.8134 0.7391 0.3493
C19_4 C 0.6818(5) 0.7415(5) 0.3280(6)
H19_4 H 0.6468 0.7453 0.3453
C20_4 C 0.6872(5) 0.7312(5) 0.2469(6)
H20_4 H 0.6575 0.7254 0.2003
C22_4 C 0.7734(6) 0.7172(6) 0.1776(7)
H23_4 H 0.8136 0.7033 0.1980
H24_4 H 0.7537 0.6772 0.1455
C23_4 C 0.7713(6) 0.8978(5) 0.0126(7)
C24_4 C 0.7196(6) 0.8619(6) 0.0169(7)
C25_4 C 0.7210(6) 0.8033(6) 0.0726(7)
H26_4 H 0.6868 0.7789 0.0740
C26_4 C 0.7715(5) 0.7822(6) 0.1223(6)
C27_4 C 0.8215(6) 0.8164(6) 0.1166(7)
H27_4 H 0.8567 0.8009 0.1488
C28_4 C 0.8210(6) 0.8746(6) 0.0617(8)
H28_4 H 0.8555 0.8981 0.0592
N4_4 N 0.8989(4) 0.9421(5) 0.7640(6)
C4_4 C 0.9224(4) 0.8891(6) 0.7258(8)
H4_4 H 0.9203 0.8865 0.6688
C5_4 C 0.9124(5) 0.9282(7) 0.8472(8)
H5_4 H 0.9023 0.9557 0.8893
C6_4 C 0.9428(5) 0.8663(6) 0.8551(7)
H6_4 H 0.9578 0.8436 0.9053
H8_4 H 0.6081 0.9763 0.7206
C10_4 C 0.7116(5) 0.9567(6) 0.7049(7)
H11_4 H 0.6868 0.9190 0.6837
C13_4 C 0.7674(5) 0.9539(6) 0.6990(7)
H13_4 H 0.7807 0.9154 0.6719
C21_4 C 0.7710(7) 0.9583(6) 0.9519(8)
H21_4 H 0.8111 0.9678 0.9493
H22_4 H 0.7509 0.9429 0.8971
H25_4 H 0.6845 0.8769 0.9841
N12_4 N 0.1011(4) 0.9421(5) 0.7360(6)
C32_4 C 0.0776(4) 0.8891(6) 0.7742(8)
H32_4 H 0.0797 0.8865 0.8312
C33_4 C 0.0876(5) 0.9282(7) 0.6528(8)
H33_4 H 0.0977 0.9557 0.6107
C34_4 C 0.0572(5) 0.8663(6) 0.6449(7)
H34_4 H 0.0422 0.8436 0.5947
H36_4 H 0.3919 0.9763 0.7794
C38_4 C 0.2884(5) 0.9567(6) 0.7951(7)
H39_4 H 0.3132 0.9190 0.8163
C41_4 C 0.2326(5) 0.9539(6) 0.8010(7)
H41_4 H 0.2193 0.9154 0.8281
loop_
_geom_bond_atom_site_label_1
_geom_bond_atom_site_label_2
_geom_bond_site_symmetry_1
_geom_bond_site_symmetry_2
Cu1 N1 1_555 1_555
N1 C1 1_555 1_555
N2 C1 1_555 1_555
N3 C4 1_555 1_555
N4 C4 1_555 1_555
C1 H1 1_555 1_555
C2 N2 1_555 1_555
H2 C2 1_555 1_555
C3 N1 1_555 1_555
H3 C3 1_555 1_555
C4 H4 1_555 1_555
C5 N4 1_555 1_555
H5 C5 1_555 1_555
C6 N3 1_555 1_555
H6 C6 1_555 1_555
C7 N2 1_555 1_555
H7 C7 1_555 1_555
H8 C7 1_555 1_555
C8 N4 1_555 1_555
H9 C8 1_555 1_555
H10 C8 1_555 1_555
C9 C7 1_555 1_555
C10 C9 1_555 1_555
H11 C10 1_555 1_555
C11 C9 1_555 1_555
H12 C11 1_555 1_555
C12 C8 1_555 1_555
C13 C10 1_555 1_555
H13 C13 1_555 1_555
C14 C11 1_555 1_555
H14 C14 1_555 1_555
Cu2 N5 1_555 1_555
N5 C15 1_555 1_555
N6 C15 1_555 1_555
N7 C18 1_555 1_555
N8 C18 1_555 1_555
C15 H15 1_555 1_555
C16 N6 1_555 1_555
H16 C16 1_555 1_555
C17 N5 1_555 1_555
H17 C17 1_555 1_555
C18 H18 1_555 1_555
C19 N7 1_555 1_555
H19 C19 1_555 1_555
C20 N8 1_555 1_555
H20 C20 1_555 1_555
C21 N6 1_555 1_555
H21 C21 1_555 1_555
H22 C21 1_555 1_555
C22 N8 1_555 1_555
H23 C22 1_555 1_555
H24 C22 1_555 1_555
C23 C21 1_555 1_555
C24 C23 1_555 1_555
H25 C24 1_555 1_555
C25 C24 1_555 1_555
H26 C25 1_555 1_555
C26 C22 1_555 1_555
C27 C26 1_555 1_555
H27 C27 1_555 1_555
C28 C23 1_555 1_555
H28 C28 1_555 1_555
O1 Cu2 1_555 1_555
O2 S1 1_555 1_555
O3 Cu1 1_555 1_555
O4 S1 1_555 1_555
S1 O1 1_555 1_555
N13 Cu2 1_555 1_555
N14 C43 1_555 1_555
C43 N13 1_555 1_555
H43 C43 1_555 1_555
C44 N14 1_555 1_555
H44 C44 1_555 1_555
C45 N13 1_555 1_555
H45 C45 1_555 1_555
N18 Cu1 1_555 1_555
Cu3 N3 1_555 1_555
N19 Cu2 1_555 1_555
N20 Cu2 1_555 1_555
O9 Cu2 1_555 1_555
Cu4_2 N7 1_555 1_555
C2 C3 1_555 1_555
C5 C6 1_555 1_555
C12 C13 1_555 1_555
C12 C14 1_555 1_555
C16 C17 1_555 1_555
C19 C20 1_555 1_555
C25 C26 1_555 1_555
C27 C28 1_555 1_555
O3 S1 1_555 1_555
C44 C45 1_555 1_555
N15 C46 1_555 1_555
N16 C46 1_555 1_555
C46 H46 1_555 1_555
C47 N15 1_555 1_555
H47 C47 1_555 1_555
C48 N16 1_555 1_555
H48 C48 1_555 1_555
H49 C49 1_555 1_555
H50 C49 1_555 1_555
C50 N16 1_555 1_555
H51 C50 1_555 1_555
H52 C50 1_555 1_555
C51 C49 1_555 1_555
C52 C51 1_555 1_555
H53 C52 1_555 1_555
C53 C52 1_555 1_555
H54 C53 1_555 1_555
C54 C50 1_555 1_555
C55 C54 1_555 1_555
H55 C55 1_555 1_555
C56 C51 1_555 1_555
H56 C56 1_555 1_555
Cu4 N15 1_555 1_555
C47 C48 1_555 1_555
C53 C54 1_555 1_555
C55 C56 1_555 1_555
N9 Cu1_2 1_555 1_555
N10 C29 1_555 1_555
N11 C32 1_555 1_555
N12 C32 1_555 1_555
C29 N9 1_555 1_555
H29 C29 1_555 1_555
C30 N10 1_555 1_555
H30 C30 1_555 1_555
C31 N9 1_555 1_555
H31 C31 1_555 1_555
C32 H32 1_555 1_555
C33 N12 1_555 1_555
H33 C33 1_555 1_555
C34 N11 1_555 1_555
H34 C34 1_555 1_555
C35 N10 1_555 1_555
H35 C35 1_555 1_555
H36 C35 1_555 1_555
C36 N12 1_555 1_555
H37 C36 1_555 1_555
H38 C36 1_555 1_555
C37 C35 1_555 1_555
C38 C37 1_555 1_555
H39 C38 1_555 1_555
C39 C37 1_555 1_555
H40 C39 1_555 1_555
C40 C36 1_555 1_555
C41 C38 1_555 1_555
H41 C41 1_555 1_555
C42 C39 1_555 1_555
H42 C42 1_555 1_555
O7 Cu1_2 1_555 1_555
S2 O7 1_555 1_555
N17 Cu1_2 1_555 1_555
Cu3 N11 1_555 1_555
C30 C31 1_555 1_555
C33 C34 1_555 1_555
C40 C41 1_555 1_555
C40 C42 1_555 1_555
Cu6_2 O5 1_555 1_555
N17 C4_2 1_555 1_555
N4_2 C4_2 1_555 1_555
C4_2 H4_2 1_555 1_555
C5_2 N4_2 1_555 1_555
H5_2 C5_2 1_555 1_555
C6_2 N17 1_555 1_555
H6_2 C6_2 1_555 1_555
H11_2 C10_2 1_555 1_555
C13_2 C10_2 1_555 1_555
H13_2 C13_2 1_555 1_555
N7_2 C18_2 1_555 1_555
N8_2 C18_2 1_555 1_555
C18_2 H18_2 1_555 1_555
C19_2 N7_2 1_555 1_555
H19_2 C19_2 1_555 1_555
C20_2 N8_2 1_555 1_555
H20_2 C20_2 1_555 1_555
H21_2 C21_2 1_555 1_555
H22_2 C21_2 1_555 1_555
C22_2 N8_2 1_555 1_555
H23_2 C22_2 1_555 1_555
H24_2 C22_2 1_555 1_555
C23_2 C21_2 1_555 1_555
C24_2 C23_2 1_555 1_555
H25_2 C24_2 1_555 1_555
C25_2 C24_2 1_555 1_555
H26_2 C25_2 1_555 1_555
C26_2 C22_2 1_555 1_555
C27_2 C26_2 1_555 1_555
H27_2 C27_2 1_555 1_555
C28_2 C23_2 1_555 1_555
H28_2 C28_2 1_555 1_555
N18 C32_2 1_555 1_555
N12_2 C32_2 1_555 1_555
C32_2 H32_2 1_555 1_555
C33_2 N12_2 1_555 1_555
H33_2 C33_2 1_555 1_555
C34_2 N18 1_555 1_555
H34_2 C34_2 1_555 1_555
H39_2 C38_2 1_555 1_555
C41_2 C38_2 1_555 1_555
H41_2 C41_2 1_555 1_555
Cu6_2 N7_2 1_555 1_555
C5_2 C6_2 1_555 1_555
C19_2 C20_2 1_555 1_555
C25_2 C26_2 1_555 1_555
C27_2 C28_2 1_555 1_555
C33_2 C34_2 1_555 1_555
Cu3 N1_2 1_555 1_555
N1_2 C1_2 1_555 1_555
N2_2 C1_2 1_555 1_555
C1_2 H1_2 1_555 1_555
C2_2 N2_2 1_555 1_555
H2_2 C2_2 1_555 1_555
C3_2 N1_2 1_555 1_555
H3_2 C3_2 1_555 1_555
C7_2 N2_2 1_555 1_555
H7_2 C7_2 1_555 1_555
H9_2 C8_2 1_555 1_555
H10_2 C8_2 1_555 1_555
C9_2 C7_2 1_555 1_555
C11_2 C9_2 1_555 1_555
H12_2 C11_2 1_555 1_555
C12_2 C8_2 1_555 1_555
C14_2 C11_2 1_555 1_555
H14_2 C14_2 1_555 1_555
Cu2_2 N5_2 1_555 1_555
N5_2 C15_2 1_555 1_555
N6_2 C15_2 1_555 1_555
C15_2 H15_2 1_555 1_555
C16_2 N6_2 1_555 1_555
H16_2 C16_2 1_555 1_555
C17_2 N5_2 1_555 1_555
H17_2 C17_2 1_555 1_555
O1_2 Cu2_2 1_555 1_555
O2_2 S1_2 1_555 1_555
O3_2 Cu3 1_555 1_555
O4_2 S1_2 1_555 1_555
S1_2 O1_2 1_555 1_555
N9_2 Cu3 1_555 1_555
N10_2 C29_2 1_555 1_555
C29_2 N9_2 1_555 1_555
H29_2 C29_2 1_555 1_555
C30_2 N10_2 1_555 1_555
H30_2 C30_2 1_555 1_555
C31_2 N9_2 1_555 1_555
H31_2 C31_2 1_555 1_555
C35_2 N10_2 1_555 1_555
H35_2 C35_2 1_555 1_555
H37_2 C36_2 1_555 1_555
H38_2 C36_2 1_555 1_555
C37_2 C35_2 1_555 1_555
C39_2 C37_2 1_555 1_555
H40_2 C39_2 1_555 1_555
C40_2 C36_2 1_555 1_555
C42_2 C39_2 1_555 1_555
H42_2 C42_2 1_555 1_555
O7_2 Cu3 1_555 1_555
S2_2 O7_2 1_555 1_555
N13_2 Cu2_2 1_555 1_555
N14_2 C43_2 1_555 1_555
N15_2 C46_2 1_555 1_555
N16_2 C46_2 1_555 1_555
C43_2 N13_2 1_555 1_555
H43_2 C43_2 1_555 1_555
C44_2 N14_2 1_555 1_555
H44_2 C44_2 1_555 1_555
C45_2 N13_2 1_555 1_555
H45_2 C45_2 1_555 1_555
C46_2 H46_2 1_555 1_555
C47_2 N15_2 1_555 1_555
H47_2 C47_2 1_555 1_555
C48_2 N16_2 1_555 1_555
H48_2 C48_2 1_555 1_555
C49_2 N14_2 1_555 1_555
H49_2 C49_2 1_555 1_555
H50_2 C49_2 1_555 1_555
C50_2 N16_2 1_555 1_555
H51_2 C50_2 1_555 1_555
H52_2 C50_2 1_555 1_555
C51_2 C49_2 1_555 1_555
C52_2 C51_2 1_555 1_555
H53_2 C52_2 1_555 1_555
C53_2 C52_2 1_555 1_555
H54_2 C53_2 1_555 1_555
C54_2 C50_2 1_555 1_555
C55_2 C54_2 1_555 1_555
H55_2 C55_2 1_555 1_555
C56_2 C51_2 1_555 1_555
H56_2 C56_2 1_555 1_555
N19_2 Cu2_2 1_555 1_555
N20_2 Cu2_2 1_555 1_555
O9_2 Cu2_2 1_555 1_555
Cu6 N15_2 1_555 1_555
C2_2 C3_2 1_555 1_555
C12_2 C14_2 1_555 1_555
C16_2 C17_2 1_555 1_555
O3_2 S1_2 1_555 1_555
C30_2 C31_2 1_555 1_555
C40_2 C42_2 1_555 1_555
C44_2 C45_2 1_555 1_555
C47_2 C48_2 1_555 1_555
C53_2 C54_2 1_555 1_555
C55_2 C56_2 1_555 1_555
Cu4_2 O5_2 1_555 1_555
H49_3 C49_3 1_555 1_555
H50_3 C49_3 1_555 1_555
N20 C46_3 1_555 1_555
N16_3 C46_3 1_555 1_555
C46_3 H46_3 1_555 1_555
C47_3 N20 1_555 1_555
H47_3 C47_3 1_555 1_555
C48_3 N16_3 1_555 1_555
H48_3 C48_3 1_555 1_555
C50_3 N16_3 1_555 1_555
H51_3 C50_3 1_555 1_555
H52_3 C50_3 1_555 1_555
C52_3 C51_3 1_555 1_555
C53_3 C52_3 1_555 1_555
H54_3 C53_3 1_555 1_555
C54_3 C50_3 1_555 1_555
C55_3 C54_3 1_555 1_555
H55_3 C55_3 1_555 1_555
C56_3 C51_3 1_555 1_555
H56_3 C56_3 1_555 1_555
C47_3 C48_3 1_555 1_555
C53_3 C54_3 1_555 1_555
C55_3 C56_3 1_555 1_555
N19 C18_3 1_555 1_555
N8_3 C18_3 1_555 1_555
C18_3 H18_3 1_555 1_555
C19_3 N19 1_555 1_555
H19_3 C19_3 1_555 1_555
C20_3 N8_3 1_555 1_555
H20_3 C20_3 1_555 1_555
C22_3 N8_3 1_555 1_555
H23_3 C22_3 1_555 1_555
H24_3 C22_3 1_555 1_555
C24_3 C23_3 1_555 1_555
C25_3 C24_3 1_555 1_555
H26_3 C25_3 1_555 1_555
C26_3 C22_3 1_555 1_555
C27_3 C26_3 1_555 1_555
H27_3 C27_3 1_555 1_555
C28_3 C23_3 1_555 1_555
H28_3 C28_3 1_555 1_555
O1_3 Cu4 1_555 1_555
N13_3 Cu4 1_555 1_555
N14_3 C43_3 1_555 1_555
C43_3 N13_3 1_555 1_555
H43_3 C43_3 1_555 1_555
C44_3 N14_3 1_555 1_555
H44_3 C44_3 1_555 1_555
C45_3 N13_3 1_555 1_555
H45_3 C45_3 1_555 1_555
C19_3 C20_3 1_555 1_555
C25_3 C26_3 1_555 1_555
C27_3 C28_3 1_555 1_555
C44_3 C45_3 1_555 1_555
Cu1_3 N1_3 1_555 1_555
N1_3 C1_3 1_555 1_555
N2_3 C1_3 1_555 1_555
N3_2 C4_3 1_555 1_555
N4_3 C4_3 1_555 1_555
C1_3 H1_3 1_555 1_555
C2_3 N2_3 1_555 1_555
H2_3 C2_3 1_555 1_555
C3_3 N1_3 1_555 1_555
H3_3 C3_3 1_555 1_555
C4_3 H4_3 1_555 1_555
C5_3 N4_3 1_555 1_555
H5_3 C5_3 1_555 1_555
C6_3 N3_2 1_555 1_555
H6_3 C6_3 1_555 1_555
C7_3 N2_3 1_555 1_555
H7_3 C7_3 1_555 1_555
H8_3 C7_3 1_555 1_555
C8_3 N4_3 1_555 1_555
H9_3 C8_3 1_555 1_555
H10_3 C8_3 1_555 1_555
C9_3 C7_3 1_555 1_555
C10_3 C9_3 1_555 1_555
H11_3 C10_3 1_555 1_555
C11_3 C9_3 1_555 1_555
H12_3 C11_3 1_555 1_555
C12_3 C8_3 1_555 1_555
C13_3 C10_3 1_555 1_555
H13_3 C13_3 1_555 1_555
C14_3 C11_3 1_555 1_555
H14_3 C14_3 1_555 1_555
Cu4_2 N5_3 1_555 1_555
N5_3 C15_3 1_555 1_555
N6_3 C15_3 1_555 1_555
C15_3 H15_3 1_555 1_555
C16_3 N6_3 1_555 1_555
H16_3 C16_3 1_555 1_555
C17_3 N5_3 1_555 1_555
H17_3 C17_3 1_555 1_555
C21_3 N6_3 1_555 1_555
H21_3 C21_3 1_555 1_555
H22_3 C21_3 1_555 1_555
O3_3 Cu1_3 1_555 1_555
N18_2 Cu1_3 1_555 1_555
Cu3_2 N3_2 1_555 1_555
C2_3 C3_3 1_555 1_555
C5_3 C6_3 1_555 1_555
C12_3 C13_3 1_555 1_555
C12_3 C14_3 1_555 1_555
C16_3 C17_3 1_555 1_555
O3_3 S1_3 1_555 1_555
N9_3 Cu1_4 1_555 1_555
N10_3 C29_3 1_555 1_555
N11_2 C32_3 1_555 1_555
N12_3 C32_3 1_555 1_555
C29_3 N9_3 1_555 1_555
H29_3 C29_3 1_555 1_555
C30_3 N10_3 1_555 1_555
H30_3 C30_3 1_555 1_555
C31_3 N9_3 1_555 1_555
H31_3 C31_3 1_555 1_555
C32_3 H32_3 1_555 1_555
C33_3 N12_3 1_555 1_555
H33_3 C33_3 1_555 1_555
C34_3 N11_2 1_555 1_555
H34_3 C34_3 1_555 1_555
C35_3 N10_3 1_555 1_555
H35_3 C35_3 1_555 1_555
H36_3 C35_3 1_555 1_555
C36_3 N12_3 1_555 1_555
H37_3 C36_3 1_555 1_555
H38_3 C36_3 1_555 1_555
C37_3 C35_3 1_555 1_555
C38_3 C37_3 1_555 1_555
H39_3 C38_3 1_555 1_555
C39_3 C37_3 1_555 1_555
H40_3 C39_3 1_555 1_555
C40_3 C36_3 1_555 1_555
C41_3 C38_3 1_555 1_555
H41_3 C41_3 1_555 1_555
C42_3 C39_3 1_555 1_555
H42_3 C42_3 1_555 1_555
O9_2 S2_3 1_555 1_555
O6_3 S2_3 1_555 1_555
O7_3 Cu1_4 1_555 1_555
O8_3 S2_3 1_555 1_555
S2_3 O7_3 1_555 1_555
N17_2 Cu1_4 1_555 1_555
Cu3_2 N11_2 1_555 1_555
C30_3 C31_3 1_555 1_555
C33_3 C34_3 1_555 1_555
C40_3 C41_3 1_555 1_555
C40_3 C42_3 1_555 1_555
O1_4 Cu6 1_555 1_555
N13_4 Cu6 1_555 1_555
N14_4 C43_4 1_555 1_555
C43_4 N13_4 1_555 1_555
H43_4 C43_4 1_555 1_555
C44_4 N14_4 1_555 1_555
H44_4 C44_4 1_555 1_555
C45_4 N13_4 1_555 1_555
H45_4 C45_4 1_555 1_555
C49_4 N14_4 1_555 1_555
H49_4 C49_4 1_555 1_555
H50_4 C49_4 1_555 1_555
C44_4 C45_4 1_555 1_555
Cu3_2 N1_4 1_555 1_555
N1_4 C1_4 1_555 1_555
N2_4 C1_4 1_555 1_555
C1_4 H1_4 1_555 1_555
C2_4 N2_4 1_555 1_555
H2_4 C2_4 1_555 1_555
C3_4 N1_4 1_555 1_555
H3_4 C3_4 1_555 1_555
C7_4 N2_4 1_555 1_555
H7_4 C7_4 1_555 1_555
H9_4 C8_4 1_555 1_555
H10_4 C8_4 1_555 1_555
C9_4 C7_4 1_555 1_555
C11_4 C9_4 1_555 1_555
H12_4 C11_4 1_555 1_555
C12_4 C8_4 1_555 1_555
C14_4 C11_4 1_555 1_555
H14_4 C14_4 1_555 1_555
Cu6_2 N5_4 1_555 1_555
N5_4 C15_4 1_555 1_555
N6_4 C15_4 1_555 1_555
C15_4 H15_4 1_555 1_555
C16_4 N6_4 1_555 1_555
H16_4 C16_4 1_555 1_555
C17_4 N5_4 1_555 1_555
H17_4 C17_4 1_555 1_555
O3_4 Cu3_2 1_555 1_555
N9_4 Cu3_2 1_555 1_555
N10_4 C29_4 1_555 1_555
C29_4 N9_4 1_555 1_555
H29_4 C29_4 1_555 1_555
C30_4 N10_4 1_555 1_555
H30_4 C30_4 1_555 1_555
C31_4 N9_4 1_555 1_555
H31_4 C31_4 1_555 1_555
C35_4 N10_4 1_555 1_555
H35_4 C35_4 1_555 1_555
H37_4 C36_4 1_555 1_555
H38_4 C36_4 1_555 1_555
C37_4 C35_4 1_555 1_555
C39_4 C37_4 1_555 1_555
H40_4 C39_4 1_555 1_555
C40_4 C36_4 1_555 1_555
C42_4 C39_4 1_555 1_555
H42_4 C42_4 1_555 1_555
O9 S2_4 1_555 1_555
O6_4 S2_4 1_555 1_555
O7_4 Cu3_2 1_555 1_555
O8_4 S2_4 1_555 1_555
S2_4 O7_4 1_555 1_555
N20_2 C46_4 1_555 1_555
N16_4 C46_4 1_555 1_555
C46_4 H46_4 1_555 1_555
C47_4 N20_2 1_555 1_555
H47_4 C47_4 1_555 1_555
C48_4 N16_4 1_555 1_555
H48_4 C48_4 1_555 1_555
C50_4 N16_4 1_555 1_555
H51_4 C50_4 1_555 1_555
H52_4 C50_4 1_555 1_555
C52_4 C51_4 1_555 1_555
C53_4 C52_4 1_555 1_555
H54_4 C53_4 1_555 1_555
C54_4 C50_4 1_555 1_555
C55_4 C54_4 1_555 1_555
H55_4 C55_4 1_555 1_555
C56_4 C51_4 1_555 1_555
H56_4 C56_4 1_555 1_555
C2_4 C3_4 1_555 1_555
C12_4 C14_4 1_555 1_555
C16_4 C17_4 1_555 1_555
O3_4 S1_4 1_555 1_555
C30_4 C31_4 1_555 1_555
C40_4 C42_4 1_555 1_555
C47_4 C48_4 1_555 1_555
C53_4 C54_4 1_555 1_555
C55_4 C56_4 1_555 1_555
N19_2 C18_4 1_555 1_555
N8_4 C18_4 1_555 1_555
C18_4 H18_4 1_555 1_555
C19_4 N19_2 1_555 1_555
H19_4 C19_4 1_555 1_555
C20_4 N8_4 1_555 1_555
H20_4 C20_4 1_555 1_555
C22_4 N8_4 1_555 1_555
H23_4 C22_4 1_555 1_555
H24_4 C22_4 1_555 1_555
C24_4 C23_4 1_555 1_555
C25_4 C24_4 1_555 1_555
H26_4 C25_4 1_555 1_555
C26_4 C22_4 1_555 1_555
C27_4 C26_4 1_555 1_555
H27_4 C27_4 1_555 1_555
C28_4 C23_4 1_555 1_555
H28_4 C28_4 1_555 1_555
C19_4 C20_4 1_555 1_555
C25_4 C26_4 1_555 1_555
C27_4 C28_4 1_555 1_555
N17_2 C4_4 1_555 1_555
N4_4 C4_4 1_555 1_555
C4_4 H4_4 1_555 1_555
C5_4 N4_4 1_555 1_555
H5_4 C5_4 1_555 1_555
C6_4 N17_2 1_555 1_555
H6_4 C6_4 1_555 1_555
H11_4 C10_4 1_555 1_555
C13_4 C10_4 1_555 1_555
H13_4 C13_4 1_555 1_555
H21_4 C21_4 1_555 1_555
H22_4 C21_4 1_555 1_555
N18_2 C32_4 1_555 1_555
N12_4 C32_4 1_555 1_555
C32_4 H32_4 1_555 1_555
C33_4 N12_4 1_555 1_555
H33_4 C33_4 1_555 1_555
C34_4 N18_2 1_555 1_555
H34_4 C34_4 1_555 1_555
H39_4 C38_4 1_555 1_555
C41_4 C38_4 1_555 1_555
H41_4 C41_4 1_555 1_555
C5_4 C6_4 1_555 1_555
C33_4 C34_4 1_555 1_555

#END
