
###############################################################################
#
# This file contains modified crystal structure data generated from the
# MOF subset of the Cambridge Structural Database (CSD) v543 
# hosted by the Cambridge Crystallographic Data Centre (CCDC).
#
# This work is licensed under the Creative Commons
# Attribution-NonCommercial-ShareAlike 4.0 International License.
# To view a copy of this license, visit
# http://creativecommons.org/licenses/by-nc-sa/4.0/
# or send a letter to
# Creative Commons, PO Box 1866, Mountain View, CA 94042, USA.
#
# CIF created using the CSD Python API on 29 September 2022
# The structure has been converted into the P1 space group
# The structure has a 3D framework
# The original CSD entry EWESIJ is in the orthorhombic crystal system
# The framework has been calculated to contain at least 10.0% void space
# The void calculation uses a probe of radius 1.32A, grid spacing 0.4
#
###############################################################################

data_EWESIJ
_chemical_formula_moiety         '(C288 H192 Cu32 I16 N144 S32 W12)n'
_symmetry_cell_setting           triclinic
_symmetry_space_group_name_H-M   'P 1'
_symmetry_Int_Tables_number      1
_space_group_name_Hall           'P 1'
loop_
_symmetry_equiv_pos_site_id
_symmetry_equiv_pos_as_xyz
1 x,y,z
_cell_length_a                   26.860(6)
_cell_length_b                   31.492(7)
_cell_length_c                   13.905(5)
_cell_angle_alpha                90
_cell_angle_beta                 90
_cell_angle_gamma                90
_cell_volume                     11761.9
loop_
_atom_site_label
_atom_site_type_symbol
_atom_site_fract_x
_atom_site_fract_y
_atom_site_fract_z
C31 C 0.6048(4) 0.3914(3) 0.0385(7)
H21 H 0.6086 0.3685 0.0801
H24 H 0.6438 0.4823 0.0050
Cu7 Cu 0.68565(4) 0.43401(4) 0.15766(8)
N18 N 0.6319(3) 0.4260(2) 0.0543(5)
C31_2 C 0.8952(4) 0.6086(3) 0.0385(7)
H21_2 H 0.8914 0.6315 0.0801
H24_2 H 0.8562 0.5177 0.0050
Cu7_2 Cu 0.81435(4) 0.56599(4) 0.15766(8)
N18_2 N 0.8681(3) 0.5740(2) 0.0543(5)
C1 C 0.8468(5) 0.3555(3) 0.2297(6)
H1 H 0.8623 0.3536 0.1701
C2 C 0.8468(5) 0.3194(3) 0.2878(7)
H2 H 0.8628 0.2947 0.2685
C3 C 0.8220(5) 0.3217(3) 0.3761(7)
C4 C 0.8018(4) 0.3605(3) 0.4019(6)
H3 H 0.7869 0.3636 0.4619
C5 C 0.8033(4) 0.3948(3) 0.3395(6)
H4 H 0.7882 0.4202 0.3577
C6 C 0.8196(5) 0.2843(3) 0.4398(7)
C7 C 0.8166(6) 0.2203(4) 0.5527(7)
C8 C 0.8179(5) 0.1837(3) 0.6205(7)
C9 C 0.8353(4) 0.1447(3) 0.5941(7)
H5 H 0.8475 0.1405 0.5322
C10 C 0.8350(4) 0.1117(4) 0.6581(7)
H6 H 0.8476 0.0855 0.6391
C11 C 0.7995(5) 0.1530(3) 0.7733(6)
H7 H 0.7874 0.1560 0.8356
C12 C 0.7977(6) 0.1885(3) 0.7132(7)
H8 H 0.7839 0.2140 0.7335
Cu1 Cu 0.82780(5) 0.44425(4) 0.15841(8)
I1 I 0.90797(3) 0.43123(3) 0.06289(5)
N1 N 0.8259(3) 0.3926(2) 0.2534(5)
N2 N 0.8363(6) 0.2478(3) 0.4071(7)
N3 N 0.8357(5) 0.2147(3) 0.4647(7)
N4 N 0.7949(6) 0.2566(3) 0.5834(6)
N5 N 0.7967(5) 0.2896(3) 0.5243(6)
N6 N 0.8168(3) 0.1160(2) 0.7484(5)
S1 S 0.75670(9) 0.44219(8) 0.06522(16)
S2 S 0.81812(9) 0.50521(7) 0.24865(17)
W1 W 0.7500 0.5000 0.15738(3)
C19 C 0.6532(5) 0.1445(3) 0.7703(6)
H13 H 0.6377 0.1464 0.8299
C20 C 0.6532(5) 0.1806(3) 0.7122(7)
H14 H 0.6372 0.2053 0.7315
C21 C 0.6780(5) 0.1783(3) 0.6239(7)
C22 C 0.6982(4) 0.1395(3) 0.5981(6)
H15 H 0.7131 0.1364 0.5381
C23 C 0.6967(4) 0.1052(3) 0.6605(6)
H16 H 0.7118 0.0798 0.6423
C24 C 0.6804(5) 0.2157(3) 0.5602(7)
C25 C 0.6834(6) 0.2797(4) 0.4473(7)
C26 C 0.6821(5) 0.3163(3) 0.3795(7)
C27 C 0.6647(4) 0.3553(3) 0.4059(7)
H17 H 0.6525 0.3595 0.4678
C28 C 0.6650(4) 0.3883(4) 0.3419(7)
H18 H 0.6524 0.4145 0.3609
C29 C 0.7005(5) 0.3470(3) 0.2267(6)
H19 H 0.7126 0.3440 0.1644
C30 C 0.7023(6) 0.3115(3) 0.2868(7)
H20 H 0.7161 0.2860 0.2665
Cu3 Cu 0.67220(5) 0.55575(4) 0.15841(8)
Cu4 Cu 0.67220(5) 0.05575(4) 0.84159(8)
Cu6 Cu 0.81435(4) 0.06599(4) 0.84234(8)
I2 I 0.59203(3) 0.56877(3) 0.06289(5)
N10 N 0.6741(3) 0.1074(2) 0.7466(5)
N11 N 0.6741(3) 0.6074(2) 0.2534(5)
N12 N 0.6637(6) 0.2522(3) 0.5929(7)
N13 N 0.6643(5) 0.2853(3) 0.5353(7)
N14 N 0.7051(6) 0.2434(3) 0.4166(6)
N15 N 0.7033(5) 0.2104(3) 0.4757(6)
N16 N 0.6832(3) 0.3840(2) 0.2516(5)
N17 N 0.8168(3) 0.6160(2) 0.2516(5)
S3 S 0.74330(9) 0.55781(8) 0.06522(16)
S4 S 0.68188(9) 0.49479(7) 0.24865(17)
C1_2 C 0.6532(5) 0.6445(3) 0.2297(6)
H1_2 H 0.6377 0.6464 0.1701
C2_2 C 0.6532(5) 0.6806(3) 0.2878(7)
H2_2 H 0.6372 0.7053 0.2685
C3_2 C 0.6780(5) 0.6783(3) 0.3761(7)
C4_2 C 0.6982(4) 0.6395(3) 0.4019(6)
H3_2 H 0.7131 0.6364 0.4619
C5_2 C 0.6967(4) 0.6052(3) 0.3395(6)
H4_2 H 0.7118 0.5798 0.3577
C6_2 C 0.6804(5) 0.7157(3) 0.4398(7)
C7_2 C 0.6834(6) 0.7797(4) 0.5527(7)
C8_2 C 0.6821(5) 0.8163(3) 0.6205(7)
C9_2 C 0.6647(4) 0.8553(3) 0.5941(7)
H5_2 H 0.6525 0.8595 0.5322
C10_2 C 0.6650(4) 0.8883(4) 0.6581(7)
H6_2 H 0.6524 0.9145 0.6391
C11_2 C 0.7005(5) 0.8470(3) 0.7733(6)
H7_2 H 0.7126 0.8440 0.8356
C12_2 C 0.7023(6) 0.8115(3) 0.7132(7)
H8_2 H 0.7161 0.7860 0.7335
N2_2 N 0.6637(6) 0.7522(3) 0.4071(7)
N3_2 N 0.6643(5) 0.7853(3) 0.4647(7)
N4_2 N 0.7051(6) 0.7434(3) 0.5834(6)
N5_2 N 0.7033(5) 0.7104(3) 0.5243(6)
N6_2 N 0.6832(3) 0.8840(2) 0.7484(5)
C19_2 C 0.8468(5) 0.8555(3) 0.7703(6)
H13_2 H 0.8623 0.8536 0.8299
C20_2 C 0.8468(5) 0.8194(3) 0.7122(7)
H14_2 H 0.8628 0.7947 0.7315
C21_2 C 0.8220(5) 0.8217(3) 0.6239(7)
C22_2 C 0.8018(4) 0.8605(3) 0.5981(6)
H15_2 H 0.7869 0.8636 0.5381
C23_2 C 0.8033(4) 0.8948(3) 0.6605(6)
H16_2 H 0.7882 0.9202 0.6423
C24_2 C 0.8196(5) 0.7843(3) 0.5602(7)
C25_2 C 0.8166(6) 0.7203(4) 0.4473(7)
C26_2 C 0.8179(5) 0.6837(3) 0.3795(7)
C27_2 C 0.8353(4) 0.6447(3) 0.4059(7)
H17_2 H 0.8475 0.6405 0.4678
C28_2 C 0.8350(4) 0.6117(4) 0.3419(7)
H18_2 H 0.8476 0.5855 0.3609
C29_2 C 0.7995(5) 0.6530(3) 0.2267(6)
H19_2 H 0.7874 0.6560 0.1644
C30_2 C 0.7977(6) 0.6885(3) 0.2868(7)
H20_2 H 0.7839 0.7140 0.2665
Cu4_2 Cu 0.82780(5) 0.94425(4) 0.84159(8)
Cu6_2 Cu 0.68565(4) 0.93401(4) 0.84234(8)
N10_2 N 0.8259(3) 0.8926(2) 0.7466(5)
N12_2 N 0.8363(6) 0.7478(3) 0.5929(7)
N13_2 N 0.8357(5) 0.7147(3) 0.5353(7)
N14_2 N 0.7949(6) 0.7566(3) 0.4166(6)
N15_2 N 0.7967(5) 0.7896(3) 0.4757(6)
C31_3 C 0.8952(4) 0.1086(3) 0.9615(7)
H21_3 H 0.8914 0.1315 0.9199
H24_3 H 0.8562 0.0177 0.9950
N18_3 N 0.8681(3) 0.0740(2) 0.9457(5)
C31_4 C 0.6048(4) 0.8914(3) 0.9615(7)
H21_4 H 0.6086 0.8685 0.9199
H24_4 H 0.6438 0.9823 0.9950
N18_4 N 0.6319(3) 0.9260(2) 0.9457(5)
I1_2 I 0.59203(3) 0.06877(3) 0.93711(5)
S1_2 S 0.74330(9) 0.05781(8) 0.93478(16)
W1_2 W 0.7500 -0.0000 0.84262(3)
S4_2 S 0.81812(9) 0.00521(7) 0.75135(17)
S2_2 S 0.68188(9) 0.99479(7) 0.75135(17)
W1_3 W 0.7500 1.0000 0.84262(3)
I2_2 I 0.90797(3) 0.93123(3) 0.93711(5)
S3_2 S 0.75670(9) 0.94219(8) 0.93478(16)
C1_3 C 0.1532(5) 0.3555(3) 0.2703(6)
H1_3 H 0.1377 0.3536 0.3299
C2_3 C 0.1532(5) 0.3194(3) 0.2122(7)
H2_3 H 0.1372 0.2947 0.2315
C3_3 C 0.1780(5) 0.3217(3) 0.1239(7)
C4_3 C 0.1982(4) 0.3605(3) 0.0981(6)
H3_3 H 0.2131 0.3636 0.0381
C5_3 C 0.1967(4) 0.3948(3) 0.1605(6)
H4_3 H 0.2118 0.4202 0.1423
C6_3 C 0.1804(5) 0.2843(3) 0.0602(7)
C13 C 0.3952(4) 0.3914(3) 0.4615(7)
H9 H 0.3914 0.3685 0.4199
C14 C 0.4287(4) 0.3875(3) 0.5365(7)
H10 H 0.4467 0.3626 0.5454
C15 C 0.4346(4) 0.4213(3) 0.5974(6)
C16 C 0.4067(4) 0.4586(4) 0.5817(6)
H11 H 0.4098 0.4823 0.6211
C17 C 0.3749(4) 0.4579(3) 0.5058(7)
H12 H 0.3562 0.4823 0.4950
C18 C 0.4692(3) 0.4203(3) 0.6794(7)
Cu1_2 Cu 0.17220(5) 0.44425(4) 0.34159(8)
Cu2 Cu 0.31435(4) 0.43401(4) 0.34234(8)
I1_3 I 0.09203(3) 0.43123(3) 0.43711(5)
N1_2 N 0.1741(3) 0.3926(2) 0.2466(5)
N2_3 N 0.1637(6) 0.2478(3) 0.0929(7)
N3_3 N 0.1643(5) 0.2147(3) 0.0353(7)
N7 N 0.3681(3) 0.4260(2) 0.4457(5)
N8 N 0.4844(3) 0.3827(3) 0.7132(6)
N9 N 0.4836(3) 0.4580(3) 0.7125(6)
S1_3 S 0.24330(9) 0.44219(8) 0.43478(16)
S2_3 S 0.18188(9) 0.50521(7) 0.25135(17)
W1_4 W 0.2500 0.5000 0.34262(3)
C25_3 C 0.3166(6) 0.2797(4) 0.0527(7)
C26_3 C 0.3179(5) 0.3163(3) 0.1205(7)
C27_3 C 0.3353(4) 0.3553(3) 0.0941(7)
H17_3 H 0.3475 0.3595 0.0322
C28_3 C 0.3350(4) 0.3883(4) 0.1581(7)
H18_3 H 0.3476 0.4145 0.1391
C29_3 C 0.2995(5) 0.3470(3) 0.2733(6)
H19_3 H 0.2874 0.3440 0.3356
C30_3 C 0.2977(6) 0.3115(3) 0.2132(7)
H20_3 H 0.2839 0.2860 0.2335
C32 C 0.5713(4) 0.3875(3) 0.9635(7)
H22 H 0.5533 0.3626 0.9546
C33 C 0.5654(4) 0.4213(3) 0.9026(6)
C34 C 0.5933(4) 0.4586(4) 0.9183(6)
H23 H 0.5902 0.4823 0.8789
C35 C 0.6251(4) 0.4579(3) 0.9942(7)
C36 C 0.5308(3) 0.4203(3) 0.8206(7)
Cu3_2 Cu 0.32780(5) 0.55575(4) 0.34159(8)
Cu5 Cu 0.18565(4) 0.56599(4) 0.34234(8)
I2_3 I 0.40797(3) 0.56877(3) 0.43711(5)
N11_2 N 0.3259(3) 0.6074(2) 0.2466(5)
N14_3 N 0.2949(6) 0.2434(3) 0.0834(6)
N15_3 N 0.2967(5) 0.2104(3) 0.0243(6)
N16_2 N 0.3168(3) 0.3840(2) 0.2484(5)
N17_2 N 0.1832(3) 0.6160(2) 0.2484(5)
N19 N 0.1319(3) 0.5740(2) 0.4457(5)
N20 N 0.5156(3) 0.3827(3) 0.7868(6)
N21 N 0.5164(3) 0.4580(3) 0.7875(6)
S3_3 S 0.25670(9) 0.55781(8) 0.43478(16)
S4_3 S 0.31812(9) 0.49479(7) 0.25135(17)
C1_4 C 0.3468(5) 0.6445(3) 0.2703(6)
H1_4 H 0.3623 0.6464 0.3299
C2_4 C 0.3468(5) 0.6806(3) 0.2122(7)
H2_4 H 0.3628 0.7053 0.2315
C3_4 C 0.3220(5) 0.6783(3) 0.1239(7)
C4_4 C 0.3018(4) 0.6395(3) 0.0981(6)
H3_4 H 0.2869 0.6364 0.0381
C5_4 C 0.3033(4) 0.6052(3) 0.1605(6)
H4_4 H 0.2882 0.5798 0.1423
C6_4 C 0.3196(5) 0.7157(3) 0.0602(7)
C13_2 C 0.1048(4) 0.6086(3) 0.4615(7)
H9_2 H 0.1086 0.6315 0.4199
C14_2 C 0.0713(4) 0.6125(3) 0.5365(7)
H10_2 H 0.0533 0.6374 0.5454
C15_2 C 0.0654(4) 0.5787(3) 0.5974(6)
C16_2 C 0.0933(4) 0.5414(4) 0.5817(6)
H11_2 H 0.0902 0.5177 0.6211
C17_2 C 0.1251(4) 0.5421(3) 0.5058(7)
H12_2 H 0.1438 0.5177 0.4950
C18_2 C 0.0308(3) 0.5797(3) 0.6794(7)
N2_4 N 0.3363(6) 0.7522(3) 0.0929(7)
N3_4 N 0.3357(5) 0.7853(3) 0.0353(7)
N8_2 N 0.0156(3) 0.6173(3) 0.7132(6)
N9_2 N 0.0164(3) 0.5420(3) 0.7125(6)
C25_4 C 0.1834(6) 0.7203(4) 0.0527(7)
C26_4 C 0.1821(5) 0.6837(3) 0.1205(7)
C27_4 C 0.1647(4) 0.6447(3) 0.0941(7)
H17_4 H 0.1525 0.6405 0.0322
C28_4 C 0.1650(4) 0.6117(4) 0.1581(7)
H18_4 H 0.1524 0.5855 0.1391
C29_4 C 0.2005(5) 0.6530(3) 0.2733(6)
H19_4 H 0.2126 0.6560 0.3356
C30_4 C 0.2023(6) 0.6885(3) 0.2132(7)
H20_4 H 0.2161 0.7140 0.2335
N14_4 N 0.2051(6) 0.7566(3) 0.0834(6)
N15_4 N 0.2033(5) 0.7896(3) 0.0243(6)
C7_3 C 0.1834(6) 0.2203(4) 0.9473(7)
C8_3 C 0.1821(5) 0.1837(3) 0.8795(7)
C9_3 C 0.1647(4) 0.1447(3) 0.9059(7)
H5_3 H 0.1525 0.1405 0.9678
C10_3 C 0.1650(4) 0.1117(4) 0.8419(7)
H6_3 H 0.1524 0.0855 0.8609
C11_3 C 0.2005(5) 0.1530(3) 0.7267(6)
H7_3 H 0.2126 0.1560 0.6644
C12_3 C 0.2023(6) 0.1885(3) 0.7868(7)
H8_3 H 0.2161 0.2140 0.7665
N4_3 N 0.2051(6) 0.2566(3) 0.9166(6)
N5_3 N 0.2033(5) 0.2896(3) 0.9757(6)
N6_3 N 0.1832(3) 0.1160(2) 0.7516(5)
C19_3 C 0.3468(5) 0.1445(3) 0.7297(6)
H13_3 H 0.3623 0.1464 0.6701
C20_3 C 0.3468(5) 0.1806(3) 0.7878(7)
H14_3 H 0.3628 0.2053 0.7685
C21_3 C 0.3220(5) 0.1783(3) 0.8761(7)
C22_3 C 0.3018(4) 0.1395(3) 0.9019(6)
H15_3 H 0.2869 0.1364 0.9619
C23_3 C 0.3033(4) 0.1052(3) 0.8395(6)
H16_3 H 0.2882 0.0798 0.8577
C24_3 C 0.3196(5) 0.2157(3) 0.9398(7)
Cu4_3 Cu 0.32780(5) 0.05575(4) 0.65841(8)
Cu6_3 Cu 0.18565(4) 0.06599(4) 0.65766(8)
N10_3 N 0.3259(3) 0.1074(2) 0.7534(5)
N12_3 N 0.3363(6) 0.2522(3) 0.9071(7)
N13_3 N 0.3357(5) 0.2853(3) 0.9647(7)
C13_3 C 0.1048(4) 0.1086(3) 0.5385(7)
H9_3 H 0.1086 0.1315 0.5801
C14_3 C 0.0713(4) 0.1125(3) 0.4635(7)
H10_3 H 0.0533 0.1374 0.4546
C15_3 C 0.0654(4) 0.0787(3) 0.4026(6)
C16_3 C 0.0933(4) 0.0414(4) 0.4183(6)
H11_3 H 0.0902 0.0177 0.3789
C17_3 C 0.1251(4) 0.0421(3) 0.4942(7)
H12_3 H 0.1438 0.0177 0.5050
C18_3 C 0.0308(3) 0.0797(3) 0.3206(7)
I1_4 I 0.40797(3) 0.06877(3) 0.56289(5)
N7_2 N 0.1319(3) 0.0740(2) 0.5543(5)
N8_3 N 0.0156(3) 0.1173(3) 0.2868(6)
N9_3 N 0.0164(3) 0.0420(3) 0.2875(6)
S1_4 S 0.25670(9) 0.05781(8) 0.56522(16)
W1_5 W 0.2500 -0.0000 0.65738(3)
S4_4 S 0.18188(9) 0.00521(7) 0.74865(17)
C7_4 C 0.3166(6) 0.7797(4) 0.9473(7)
C8_4 C 0.3179(5) 0.8163(3) 0.8795(7)
C9_4 C 0.3353(4) 0.8553(3) 0.9059(7)
H5_4 H 0.3475 0.8595 0.9678
C10_4 C 0.3350(4) 0.8883(4) 0.8419(7)
H6_4 H 0.3476 0.9145 0.8609
C11_4 C 0.2995(5) 0.8470(3) 0.7267(6)
H7_4 H 0.2874 0.8440 0.6644
C12_4 C 0.2977(6) 0.8115(3) 0.7868(7)
H8_4 H 0.2839 0.7860 0.7665
N4_4 N 0.2949(6) 0.7434(3) 0.9166(6)
N5_4 N 0.2967(5) 0.7104(3) 0.9757(6)
N6_4 N 0.3168(3) 0.8840(2) 0.7516(5)
C19_4 C 0.1532(5) 0.8555(3) 0.7297(6)
H13_4 H 0.1377 0.8536 0.6701
C20_4 C 0.1532(5) 0.8194(3) 0.7878(7)
H14_4 H 0.1372 0.7947 0.7685
C21_4 C 0.1780(5) 0.8217(3) 0.8761(7)
C22_4 C 0.1982(4) 0.8605(3) 0.9019(6)
H15_4 H 0.2131 0.8636 0.9619
C23_4 C 0.1967(4) 0.8948(3) 0.8395(6)
H16_4 H 0.2118 0.9202 0.8577
C24_4 C 0.1804(5) 0.7843(3) 0.9398(7)
Cu4_4 Cu 0.17220(5) 0.94425(4) 0.65841(8)
Cu6_4 Cu 0.31435(4) 0.93401(4) 0.65766(8)
N10_4 N 0.1741(3) 0.8926(2) 0.7534(5)
N12_4 N 0.1637(6) 0.7478(3) 0.9071(7)
N13_4 N 0.1643(5) 0.7147(3) 0.9647(7)
S2_4 S 0.31812(9) 0.99479(7) 0.74865(17)
W1_6 W 0.2500 1.0000 0.65738(3)
I2_4 I 0.09203(3) 0.93123(3) 0.56289(5)
N19_2 N 0.3681(3) 0.9260(2) 0.5543(5)
S3_4 S 0.24330(9) 0.94219(8) 0.56522(16)
C13_4 C 0.3952(4) 0.8914(3) 0.5385(7)
H9_4 H 0.3914 0.8685 0.5801
C14_4 C 0.4287(4) 0.8875(3) 0.4635(7)
H10_4 H 0.4467 0.8626 0.4546
C15_4 C 0.4346(4) 0.9213(3) 0.4026(6)
C16_4 C 0.4067(4) 0.9586(4) 0.4183(6)
H11_4 H 0.4098 0.9823 0.3789
C17_4 C 0.3749(4) 0.9579(3) 0.4942(7)
H12_4 H 0.3562 0.9823 0.5050
C18_4 C 0.4692(3) 0.9203(3) 0.3206(7)
N8_4 N 0.4844(3) 0.8827(3) 0.2868(6)
N9_4 N 0.4836(3) 0.9580(3) 0.2875(6)
C32_2 C 0.5713(4) 0.8875(3) 0.0365(7)
H22_2 H 0.5533 0.8626 0.0454
C33_2 C 0.5654(4) 0.9213(3) 0.0974(6)
C34_2 C 0.5933(4) 0.9586(4) 0.0817(6)
H23_2 H 0.5902 0.9823 0.1211
C35_2 C 0.6251(4) 0.9579(3) 0.0058(7)
C36_2 C 0.5308(3) 0.9203(3) 0.1794(7)
N20_2 N 0.5156(3) 0.8827(3) 0.2132(6)
N21_2 N 0.5164(3) 0.9580(3) 0.2125(6)
C32_3 C 0.9287(4) 0.6125(3) 0.9635(7)
H22_3 H 0.9467 0.6374 0.9546
C33_3 C 0.9346(4) 0.5787(3) 0.9026(6)
C34_3 C 0.9067(4) 0.5414(4) 0.9183(6)
H23_3 H 0.9098 0.5177 0.8789
C35_3 C 0.8749(4) 0.5421(3) 0.9942(7)
C36_3 C 0.9692(3) 0.5797(3) 0.8206(7)
N20_3 N 0.9844(3) 0.6173(3) 0.7868(6)
N21_3 N 0.9836(3) 0.5420(3) 0.7875(6)
C31_5 C 0.1048(4) 0.8914(3) 0.0385(7)
H21_5 H 0.1086 0.8685 0.0801
H24_5 H 0.1438 0.9823 0.0050
Cu7_3 Cu 0.18565(4) 0.93401(4) 0.15766(8)
N18_5 N 0.1319(3) 0.9260(2) 0.0543(5)
C31_6 C 0.3952(4) 0.1086(3) 0.0385(7)
H21_6 H 0.3914 0.1315 0.0801
H24_6 H 0.3562 0.0177 0.0050
Cu7_4 Cu 0.31435(4) 0.06599(4) 0.15766(8)
N18_6 N 0.3681(3) 0.0740(2) 0.0543(5)
S2_5 S 0.31812(9) 0.00521(7) 0.24865(17)
W1_7 W 0.2500 -0.0000 0.15738(3)
Cu3_3 Cu 0.17220(5) 0.05575(4) 0.15841(8)
I2_5 I 0.09203(3) 0.06877(3) 0.06289(5)
N11_3 N 0.1741(3) 0.1074(2) 0.2534(5)
N17_3 N 0.3168(3) 0.1160(2) 0.2516(5)
S3_5 S 0.24330(9) 0.05781(8) 0.06522(16)
C1_5 C 0.3468(5) 0.8555(3) 0.2297(6)
H1_5 H 0.3623 0.8536 0.1701
C2_5 C 0.3468(5) 0.8194(3) 0.2878(7)
H2_5 H 0.3628 0.7947 0.2685
C3_5 C 0.3220(5) 0.8217(3) 0.3761(7)
C4_5 C 0.3018(4) 0.8605(3) 0.4019(6)
H3_5 H 0.2869 0.8636 0.4619
C5_5 C 0.3033(4) 0.8948(3) 0.3395(6)
H4_5 H 0.2882 0.9202 0.3577
C6_5 C 0.3196(5) 0.7843(3) 0.4398(7)
C7_5 C 0.3166(6) 0.7203(4) 0.5527(7)
C8_5 C 0.3179(5) 0.6837(3) 0.6205(7)
C9_5 C 0.3353(4) 0.6447(3) 0.5941(7)
H5_5 H 0.3475 0.6405 0.5322
C10_5 C 0.3350(4) 0.6117(4) 0.6581(7)
H6_5 H 0.3476 0.5855 0.6391
C11_5 C 0.2995(5) 0.6530(3) 0.7733(6)
H7_5 H 0.2874 0.6560 0.8356
C12_5 C 0.2977(6) 0.6885(3) 0.7132(7)
H8_5 H 0.2839 0.7140 0.7335
Cu1_3 Cu 0.32780(5) 0.94425(4) 0.15841(8)
I1_5 I 0.40797(3) 0.93123(3) 0.06289(5)
N1_3 N 0.3259(3) 0.8926(2) 0.2534(5)
N2_5 N 0.3363(6) 0.7478(3) 0.4071(7)
N3_5 N 0.3357(5) 0.7147(3) 0.4647(7)
N4_5 N 0.2949(6) 0.7566(3) 0.5834(6)
N5_5 N 0.2967(5) 0.7896(3) 0.5243(6)
N6_5 N 0.3168(3) 0.6160(2) 0.7484(5)
S1_5 S 0.25670(9) 0.94219(8) 0.06522(16)
W1_8 W 0.2500 1.0000 0.15738(3)
C19_5 C 0.1532(5) 0.6445(3) 0.7703(6)
H13_5 H 0.1377 0.6464 0.8299
C20_5 C 0.1532(5) 0.6806(3) 0.7122(7)
H14_5 H 0.1372 0.7053 0.7315
C21_5 C 0.1780(5) 0.6783(3) 0.6239(7)
C22_5 C 0.1982(4) 0.6395(3) 0.5981(6)
H15_5 H 0.2131 0.6364 0.5381
C23_5 C 0.1967(4) 0.6052(3) 0.6605(6)
H16_5 H 0.2118 0.5798 0.6423
C24_5 C 0.1804(5) 0.7157(3) 0.5602(7)
C25_5 C 0.1834(6) 0.7797(4) 0.4473(7)
C26_5 C 0.1821(5) 0.8163(3) 0.3795(7)
C27_5 C 0.1647(4) 0.8553(3) 0.4059(7)
H17_5 H 0.1525 0.8595 0.4678
C28_5 C 0.1650(4) 0.8883(4) 0.3419(7)
H18_5 H 0.1524 0.9145 0.3609
C29_5 C 0.2005(5) 0.8470(3) 0.2267(6)
H19_5 H 0.2126 0.8440 0.1644
C30_5 C 0.2023(6) 0.8115(3) 0.2868(7)
H20_5 H 0.2161 0.7860 0.2665
Cu4_5 Cu 0.17220(5) 0.55575(4) 0.84159(8)
Cu6_5 Cu 0.31435(4) 0.56599(4) 0.84234(8)
N10_5 N 0.1741(3) 0.6074(2) 0.7466(5)
N12_5 N 0.1637(6) 0.7522(3) 0.5929(7)
N13_5 N 0.1643(5) 0.7853(3) 0.5353(7)
N14_5 N 0.2051(6) 0.7434(3) 0.4166(6)
N15_5 N 0.2033(5) 0.7104(3) 0.4757(6)
N16_3 N 0.1832(3) 0.8840(2) 0.2516(5)
S4_5 S 0.18188(9) 0.99479(7) 0.24865(17)
C1_6 C 0.1532(5) 0.1445(3) 0.2297(6)
H1_6 H 0.1377 0.1464 0.1701
C2_6 C 0.1532(5) 0.1806(3) 0.2878(7)
H2_6 H 0.1372 0.2053 0.2685
C3_6 C 0.1780(5) 0.1783(3) 0.3761(7)
C4_6 C 0.1982(4) 0.1395(3) 0.4019(6)
H3_6 H 0.2131 0.1364 0.4619
C5_6 C 0.1967(4) 0.1052(3) 0.3395(6)
H4_6 H 0.2118 0.0798 0.3577
C6_6 C 0.1804(5) 0.2157(3) 0.4398(7)
C7_6 C 0.1834(6) 0.2797(4) 0.5527(7)
C8_6 C 0.1821(5) 0.3163(3) 0.6205(7)
C9_6 C 0.1647(4) 0.3553(3) 0.5941(7)
H5_6 H 0.1525 0.3595 0.5322
C10_6 C 0.1650(4) 0.3883(4) 0.6581(7)
H6_6 H 0.1524 0.4145 0.6391
C11_6 C 0.2005(5) 0.3470(3) 0.7733(6)
H7_6 H 0.2126 0.3440 0.8356
C12_6 C 0.2023(6) 0.3115(3) 0.7132(7)
H8_6 H 0.2161 0.2860 0.7335
N2_6 N 0.1637(6) 0.2522(3) 0.4071(7)
N3_6 N 0.1643(5) 0.2853(3) 0.4647(7)
N4_6 N 0.2051(6) 0.2434(3) 0.5834(6)
N5_6 N 0.2033(5) 0.2104(3) 0.5243(6)
N6_6 N 0.1832(3) 0.3840(2) 0.7484(5)
C19_6 C 0.3468(5) 0.3555(3) 0.7703(6)
H13_6 H 0.3623 0.3536 0.8299
C20_6 C 0.3468(5) 0.3194(3) 0.7122(7)
H14_6 H 0.3628 0.2947 0.7315
C21_6 C 0.3220(5) 0.3217(3) 0.6239(7)
C22_6 C 0.3018(4) 0.3605(3) 0.5981(6)
H15_6 H 0.2869 0.3636 0.5381
C23_6 C 0.3033(4) 0.3948(3) 0.6605(6)
H16_6 H 0.2882 0.4202 0.6423
C24_6 C 0.3196(5) 0.2843(3) 0.5602(7)
C25_6 C 0.3166(6) 0.2203(4) 0.4473(7)
C26_6 C 0.3179(5) 0.1837(3) 0.3795(7)
C27_6 C 0.3353(4) 0.1447(3) 0.4059(7)
H17_6 H 0.3475 0.1405 0.4678
C28_6 C 0.3350(4) 0.1117(4) 0.3419(7)
H18_6 H 0.3476 0.0855 0.3609
C29_6 C 0.2995(5) 0.1530(3) 0.2267(6)
H19_6 H 0.2874 0.1560 0.1644
C30_6 C 0.2977(6) 0.1885(3) 0.2868(7)
H20_6 H 0.2839 0.2140 0.2665
Cu4_6 Cu 0.32780(5) 0.44425(4) 0.84159(8)
Cu6_6 Cu 0.18565(4) 0.43401(4) 0.84234(8)
N10_6 N 0.3259(3) 0.3926(2) 0.7466(5)
N12_6 N 0.3363(6) 0.2478(3) 0.5929(7)
N13_6 N 0.3357(5) 0.2147(3) 0.5353(7)
N14_6 N 0.2949(6) 0.2566(3) 0.4166(6)
N15_6 N 0.2967(5) 0.2896(3) 0.4757(6)
C31_7 C 0.3952(4) 0.6086(3) 0.9615(7)
H21_7 H 0.3914 0.6315 0.9199
H24_7 H 0.3562 0.5177 0.9950
N18_7 N 0.3681(3) 0.5740(2) 0.9457(5)
C31_8 C 0.1048(4) 0.3914(3) 0.9615(7)
H21_8 H 0.1086 0.3685 0.9199
H24_8 H 0.1438 0.4823 0.9950
N18_8 N 0.1319(3) 0.4260(2) 0.9457(5)
I1_6 I 0.09203(3) 0.56877(3) 0.93711(5)
S1_6 S 0.24330(9) 0.55781(8) 0.93478(16)
S2_6 S 0.18188(9) 0.49479(7) 0.75135(17)
W1_9 W 0.2500 0.5000 0.84262(3)
I2_6 I 0.40797(3) 0.43123(3) 0.93711(5)
S3_6 S 0.25670(9) 0.44219(8) 0.93478(16)
S4_6 S 0.31812(9) 0.50521(7) 0.75135(17)
C32_4 C 0.0713(4) 0.8875(3) 0.9635(7)
H22_4 H 0.0533 0.8626 0.9546
C33_4 C 0.0654(4) 0.9213(3) 0.9026(6)
C34_4 C 0.0933(4) 0.9586(4) 0.9183(6)
H23_4 H 0.0902 0.9823 0.8789
C35_4 C 0.1251(4) 0.9579(3) 0.9942(7)
C36_4 C 0.0308(3) 0.9203(3) 0.8206(7)
N20_4 N 0.0156(3) 0.8827(3) 0.7868(6)
N21_4 N 0.0164(3) 0.9580(3) 0.7875(6)
S2_7 S 0.68188(9) 0.00521(7) 0.25135(17)
W1_10 W 0.7500 -0.0000 0.34262(3)
Cu3_4 Cu 0.82780(5) 0.05575(4) 0.34159(8)
Cu5_2 Cu 0.68565(4) 0.06599(4) 0.34234(8)
I2_7 I 0.90797(3) 0.06877(3) 0.43711(5)
N11_4 N 0.8259(3) 0.1074(2) 0.2466(5)
N17_4 N 0.6832(3) 0.1160(2) 0.2484(5)
N19_3 N 0.6319(3) 0.0740(2) 0.4457(5)
S3_7 S 0.75670(9) 0.05781(8) 0.43478(16)
C1_7 C 0.8468(5) 0.1445(3) 0.2703(6)
H1_7 H 0.8623 0.1464 0.3299
C2_7 C 0.8468(5) 0.1806(3) 0.2122(7)
H2_7 H 0.8628 0.2053 0.2315
C3_7 C 0.8220(5) 0.1783(3) 0.1239(7)
C4_7 C 0.8018(4) 0.1395(3) 0.0981(6)
H3_7 H 0.7869 0.1364 0.0381
C5_7 C 0.8033(4) 0.1052(3) 0.1605(6)
H4_7 H 0.7882 0.0798 0.1423
C6_7 C 0.8196(5) 0.2157(3) 0.0602(7)
C13_5 C 0.6048(4) 0.1086(3) 0.4615(7)
H9_5 H 0.6086 0.1315 0.4199
C14_5 C 0.5713(4) 0.1125(3) 0.5365(7)
H10_5 H 0.5533 0.1374 0.5454
C15_5 C 0.5654(4) 0.0787(3) 0.5974(6)
C16_5 C 0.5933(4) 0.0414(4) 0.5817(6)
H11_5 H 0.5902 0.0177 0.6211
C17_5 C 0.6251(4) 0.0421(3) 0.5058(7)
H12_5 H 0.6438 0.0177 0.4950
C18_5 C 0.5308(3) 0.0797(3) 0.6794(7)
N2_7 N 0.8363(6) 0.2522(3) 0.0929(7)
N3_7 N 0.8357(5) 0.2853(3) 0.0353(7)
N8_5 N 0.5156(3) 0.1173(3) 0.7132(6)
N9_5 N 0.5164(3) 0.0420(3) 0.7125(6)
C25_7 C 0.6834(6) 0.2203(4) 0.0527(7)
C26_7 C 0.6821(5) 0.1837(3) 0.1205(7)
C27_7 C 0.6647(4) 0.1447(3) 0.0941(7)
H17_7 H 0.6525 0.1405 0.0322
C28_7 C 0.6650(4) 0.1117(4) 0.1581(7)
H18_7 H 0.6524 0.0855 0.1391
C29_7 C 0.7005(5) 0.1530(3) 0.2733(6)
H19_7 H 0.7126 0.1560 0.3356
C30_7 C 0.7023(6) 0.1885(3) 0.2132(7)
H20_7 H 0.7161 0.2140 0.2335
C32_5 C 0.4287(4) 0.1125(3) 0.9635(7)
H22_5 H 0.4467 0.1374 0.9546
C33_5 C 0.4346(4) 0.0787(3) 0.9026(6)
C34_5 C 0.4067(4) 0.0414(4) 0.9183(6)
H23_5 H 0.4098 0.0177 0.8789
C35_5 C 0.3749(4) 0.0421(3) 0.9942(7)
C36_5 C 0.4692(3) 0.0797(3) 0.8206(7)
N14_7 N 0.7051(6) 0.2566(3) 0.0834(6)
N15_7 N 0.7033(5) 0.2896(3) 0.0243(6)
N20_5 N 0.4844(3) 0.1173(3) 0.7868(6)
N21_5 N 0.4836(3) 0.0420(3) 0.7875(6)
C1_8 C 0.6532(5) 0.8555(3) 0.2703(6)
H1_8 H 0.6377 0.8536 0.3299
C2_8 C 0.6532(5) 0.8194(3) 0.2122(7)
H2_8 H 0.6372 0.7947 0.2315
C3_8 C 0.6780(5) 0.8217(3) 0.1239(7)
C4_8 C 0.6982(4) 0.8605(3) 0.0981(6)
H3_8 H 0.7131 0.8636 0.0381
C5_8 C 0.6967(4) 0.8948(3) 0.1605(6)
H4_8 H 0.7118 0.9202 0.1423
C6_8 C 0.6804(5) 0.7843(3) 0.0602(7)
C13_6 C 0.8952(4) 0.8914(3) 0.4615(7)
H9_6 H 0.8914 0.8685 0.4199
C14_6 C 0.9287(4) 0.8875(3) 0.5365(7)
H10_6 H 0.9467 0.8626 0.5454
C15_6 C 0.9346(4) 0.9213(3) 0.5974(6)
C16_6 C 0.9067(4) 0.9586(4) 0.5817(6)
H11_6 H 0.9098 0.9823 0.6211
C17_6 C 0.8749(4) 0.9579(3) 0.5058(7)
H12_6 H 0.8562 0.9823 0.4950
C18_6 C 0.9692(3) 0.9203(3) 0.6794(7)
Cu1_4 Cu 0.67220(5) 0.94425(4) 0.34159(8)
Cu2_2 Cu 0.81435(4) 0.93401(4) 0.34234(8)
I1_7 I 0.59203(3) 0.93123(3) 0.43711(5)
N1_4 N 0.6741(3) 0.8926(2) 0.2466(5)
N2_8 N 0.6637(6) 0.7478(3) 0.0929(7)
N3_8 N 0.6643(5) 0.7147(3) 0.0353(7)
N7_3 N 0.8681(3) 0.9260(2) 0.4457(5)
N8_6 N 0.9844(3) 0.8827(3) 0.7132(6)
N9_6 N 0.9836(3) 0.9580(3) 0.7125(6)
S1_7 S 0.74330(9) 0.94219(8) 0.43478(16)
W1_11 W 0.7500 1.0000 0.34262(3)
C25_8 C 0.8166(6) 0.7797(4) 0.0527(7)
C26_8 C 0.8179(5) 0.8163(3) 0.1205(7)
C27_8 C 0.8353(4) 0.8553(3) 0.0941(7)
H17_8 H 0.8475 0.8595 0.0322
C28_8 C 0.8350(4) 0.8883(4) 0.1581(7)
H18_8 H 0.8476 0.9145 0.1391
C29_8 C 0.7995(5) 0.8470(3) 0.2733(6)
H19_8 H 0.7874 0.8440 0.3356
C30_8 C 0.7977(6) 0.8115(3) 0.2132(7)
H20_8 H 0.7839 0.7860 0.2335
N14_8 N 0.7949(6) 0.7434(3) 0.0834(6)
N15_8 N 0.7967(5) 0.7104(3) 0.0243(6)
N16_4 N 0.8168(3) 0.8840(2) 0.2484(5)
S4_7 S 0.81812(9) 0.99479(7) 0.25135(17)
C7_7 C 0.6834(6) 0.7203(4) 0.9473(7)
C8_7 C 0.6821(5) 0.6837(3) 0.8795(7)
C9_7 C 0.6647(4) 0.6447(3) 0.9059(7)
H5_7 H 0.6525 0.6405 0.9678
C10_7 C 0.6650(4) 0.6117(4) 0.8419(7)
H6_7 H 0.6524 0.5855 0.8609
C11_7 C 0.7005(5) 0.6530(3) 0.7267(6)
H7_7 H 0.7126 0.6560 0.6644
C12_7 C 0.7023(6) 0.6885(3) 0.7868(7)
H8_7 H 0.7161 0.7140 0.7665
N4_7 N 0.7051(6) 0.7566(3) 0.9166(6)
N5_7 N 0.7033(5) 0.7896(3) 0.9757(6)
N6_7 N 0.6832(3) 0.6160(2) 0.7516(5)
C19_7 C 0.8468(5) 0.6445(3) 0.7297(6)
H13_7 H 0.8623 0.6464 0.6701
C20_7 C 0.8468(5) 0.6806(3) 0.7878(7)
H14_7 H 0.8628 0.7053 0.7685
C21_7 C 0.8220(5) 0.6783(3) 0.8761(7)
C22_7 C 0.8018(4) 0.6395(3) 0.9019(6)
H15_7 H 0.7869 0.6364 0.9619
C23_7 C 0.8033(4) 0.6052(3) 0.8395(6)
H16_7 H 0.7882 0.5798 0.8577
C24_7 C 0.8196(5) 0.7157(3) 0.9398(7)
Cu4_7 Cu 0.82780(5) 0.55575(4) 0.65841(8)
Cu6_7 Cu 0.68565(4) 0.56599(4) 0.65766(8)
N10_7 N 0.8259(3) 0.6074(2) 0.7534(5)
N12_7 N 0.8363(6) 0.7522(3) 0.9071(7)
N13_7 N 0.8357(5) 0.7853(3) 0.9647(7)
C7_8 C 0.8166(6) 0.2797(4) 0.9473(7)
C8_8 C 0.8179(5) 0.3163(3) 0.8795(7)
C9_8 C 0.8353(4) 0.3553(3) 0.9059(7)
H5_8 H 0.8475 0.3595 0.9678
C10_8 C 0.8350(4) 0.3883(4) 0.8419(7)
H6_8 H 0.8476 0.4145 0.8609
C11_8 C 0.7995(5) 0.3470(3) 0.7267(6)
H7_8 H 0.7874 0.3440 0.6644
C12_8 C 0.7977(6) 0.3115(3) 0.7868(7)
H8_8 H 0.7839 0.2860 0.7665
N4_8 N 0.7949(6) 0.2434(3) 0.9166(6)
N5_8 N 0.7967(5) 0.2104(3) 0.9757(6)
N6_8 N 0.8168(3) 0.3840(2) 0.7516(5)
C19_8 C 0.6532(5) 0.3555(3) 0.7297(6)
H13_8 H 0.6377 0.3536 0.6701
C20_8 C 0.6532(5) 0.3194(3) 0.7878(7)
H14_8 H 0.6372 0.2947 0.7685
C21_8 C 0.6780(5) 0.3217(3) 0.8761(7)
C22_8 C 0.6982(4) 0.3605(3) 0.9019(6)
H15_8 H 0.7131 0.3636 0.9619
C23_8 C 0.6967(4) 0.3948(3) 0.8395(6)
H16_8 H 0.7118 0.4202 0.8577
C24_8 C 0.6804(5) 0.2843(3) 0.9398(7)
Cu4_8 Cu 0.67220(5) 0.44425(4) 0.65841(8)
Cu6_8 Cu 0.81435(4) 0.43401(4) 0.65766(8)
N10_8 N 0.6741(3) 0.3926(2) 0.7534(5)
N12_8 N 0.6637(6) 0.2478(3) 0.9071(7)
N13_8 N 0.6643(5) 0.2147(3) 0.9647(7)
C13_7 C 0.6048(4) 0.6086(3) 0.5385(7)
H9_7 H 0.6086 0.6315 0.5801
C14_7 C 0.5713(4) 0.6125(3) 0.4635(7)
H10_7 H 0.5533 0.6374 0.4546
C15_7 C 0.5654(4) 0.5787(3) 0.4026(6)
C16_7 C 0.5933(4) 0.5414(4) 0.4183(6)
H11_7 H 0.5902 0.5177 0.3789
C17_7 C 0.6251(4) 0.5421(3) 0.4942(7)
H12_7 H 0.6438 0.5177 0.5050
C18_7 C 0.5308(3) 0.5797(3) 0.3206(7)
I1_8 I 0.90797(3) 0.56877(3) 0.56289(5)
N7_4 N 0.6319(3) 0.5740(2) 0.5543(5)
N8_7 N 0.5156(3) 0.6173(3) 0.2868(6)
N9_7 N 0.5164(3) 0.5420(3) 0.2875(6)
S1_8 S 0.75670(9) 0.55781(8) 0.56522(16)
S2_8 S 0.81812(9) 0.49479(7) 0.74865(17)
W1_12 W 0.7500 0.5000 0.65738(3)
C32_6 C 0.4287(4) 0.6125(3) 0.0365(7)
H22_6 H 0.4467 0.6374 0.0454
C33_6 C 0.4346(4) 0.5787(3) 0.0974(6)
C34_6 C 0.4067(4) 0.5414(4) 0.0817(6)
H23_6 H 0.4098 0.5177 0.1211
C35_6 C 0.3749(4) 0.5421(3) 0.0058(7)
C36_6 C 0.4692(3) 0.5797(3) 0.1794(7)
I2_8 I 0.59203(3) 0.43123(3) 0.56289(5)
N19_4 N 0.8681(3) 0.4260(2) 0.5543(5)
N20_6 N 0.4844(3) 0.6173(3) 0.2132(6)
N21_6 N 0.4836(3) 0.5420(3) 0.2125(6)
S3_8 S 0.74330(9) 0.44219(8) 0.56522(16)
S4_8 S 0.68188(9) 0.50521(7) 0.74865(17)
C13_8 C 0.8952(4) 0.3914(3) 0.5385(7)
H9_8 H 0.8914 0.3685 0.5801
C14_8 C 0.9287(4) 0.3875(3) 0.4635(7)
H10_8 H 0.9467 0.3626 0.4546
C15_8 C 0.9346(4) 0.4213(3) 0.4026(6)
C16_8 C 0.9067(4) 0.4586(4) 0.4183(6)
H11_8 H 0.9098 0.4823 0.3789
C17_8 C 0.8749(4) 0.4579(3) 0.4942(7)
H12_8 H 0.8562 0.4823 0.5050
C18_8 C 0.9692(3) 0.4203(3) 0.3206(7)
N8_8 N 0.9844(3) 0.3827(3) 0.2868(6)
N9_8 N 0.9836(3) 0.4580(3) 0.2875(6)
C32_7 C 0.0713(4) 0.3875(3) 0.0365(7)
H22_7 H 0.0533 0.3626 0.0454
C33_7 C 0.0654(4) 0.4213(3) 0.0974(6)
C34_7 C 0.0933(4) 0.4586(4) 0.0817(6)
H23_7 H 0.0902 0.4823 0.1211
C35_7 C 0.1251(4) 0.4579(3) 0.0058(7)
C36_7 C 0.0308(3) 0.4203(3) 0.1794(7)
N20_7 N 0.0156(3) 0.3827(3) 0.2132(6)
N21_7 N 0.0164(3) 0.4580(3) 0.2125(6)
C32_8 C 0.9287(4) 0.1125(3) 0.0365(7)
H22_8 H 0.9467 0.1374 0.0454
C33_8 C 0.9346(4) 0.0787(3) 0.0974(6)
C34_8 C 0.9067(4) 0.0414(4) 0.0817(6)
H23_8 H 0.9098 0.0177 0.1211
C35_8 C 0.8749(4) 0.0421(3) 0.0058(7)
C36_8 C 0.9692(3) 0.0797(3) 0.1794(7)
N20_8 N 0.9844(3) 0.1173(3) 0.2132(6)
N21_8 N 0.9836(3) 0.0420(3) 0.2125(6)
loop_
_geom_bond_atom_site_label_1
_geom_bond_atom_site_label_2
_geom_bond_site_symmetry_1
_geom_bond_site_symmetry_2
C31 H21 1_555 1_555
Cu7 N18 1_555 1_555
N18 C31 1_555 1_555
C31_2 H21_2 1_555 1_555
Cu7_2 N18_2 1_555 1_555
N18_2 C31_2 1_555 1_555
C1 H1 1_555 1_555
C2 C1 1_555 1_555
H2 C2 1_555 1_555
C3 C2 1_555 1_555
C4 C3 1_555 1_555
H3 C4 1_555 1_555
C5 C4 1_555 1_555
H4 C5 1_555 1_555
C6 C3 1_555 1_555
C7 C8 1_555 1_555
C8 C9 1_555 1_555
C9 H5 1_555 1_555
C10 C9 1_555 1_555
H6 C10 1_555 1_555
C11 H7 1_555 1_555
C12 C8 1_555 1_555
H8 C12 1_555 1_555
Cu1 I1 1_555 1_555
N1 C1 1_555 1_555
N2 C6 1_555 1_555
N3 C7 1_555 1_555
N4 C7 1_555 1_555
N5 C6 1_555 1_555
N6 C10 1_555 1_555
S1 Cu1 1_555 1_555
S2 Cu1 1_555 1_555
W1 S1 1_555 1_555
C19 H13 1_555 1_555
C20 C19 1_555 1_555
H14 C20 1_555 1_555
C21 C20 1_555 1_555
C22 C21 1_555 1_555
H15 C22 1_555 1_555
C23 C22 1_555 1_555
H16 C23 1_555 1_555
C24 C21 1_555 1_555
C25 C26 1_555 1_555
C26 C27 1_555 1_555
C27 H17 1_555 1_555
C28 C27 1_555 1_555
H18 C28 1_555 1_555
C29 H19 1_555 1_555
C30 C26 1_555 1_555
H20 C30 1_555 1_555
Cu3 I2 1_555 1_555
Cu4 N10 1_555 1_555
Cu7_2 S2 1_555 1_555
Cu6 N6 1_555 1_555
N10 C19 1_555 1_555
N11 Cu3 1_555 1_555
N12 C24 1_555 1_555
N13 C25 1_555 1_555
N14 C25 1_555 1_555
N15 C24 1_555 1_555
N16 Cu7 1_555 1_555
N17 Cu7_2 1_555 1_555
S3 W1 1_555 1_555
S4 Cu7 1_555 1_555
C5 N1 1_555 1_555
C11 C12 1_555 1_555
C11 N6 1_555 1_555
Cu1 N1 1_555 1_555
Cu7 S1 1_555 1_555
N2 N3 1_555 1_555
N4 N5 1_555 1_555
S2 W1 1_555 1_555
W1 S4 1_555 1_555
C23 N10 1_555 1_555
C28 N16 1_555 1_555
C29 C30 1_555 1_555
C29 N16 1_555 1_555
Cu3 S3 1_555 1_555
Cu3 S4 1_555 1_555
Cu7_2 S3 1_555 1_555
N12 N13 1_555 1_555
N14 N15 1_555 1_555
C1_2 H1_2 1_555 1_555
C2_2 C1_2 1_555 1_555
H2_2 C2_2 1_555 1_555
C3_2 C2_2 1_555 1_555
C4_2 C3_2 1_555 1_555
H3_2 C4_2 1_555 1_555
C5_2 C4_2 1_555 1_555
H4_2 C5_2 1_555 1_555
C6_2 C3_2 1_555 1_555
C7_2 C8_2 1_555 1_555
C8_2 C9_2 1_555 1_555
C9_2 H5_2 1_555 1_555
C10_2 C9_2 1_555 1_555
H6_2 C10_2 1_555 1_555
C11_2 H7_2 1_555 1_555
C12_2 C8_2 1_555 1_555
H8_2 C12_2 1_555 1_555
N11 C1_2 1_555 1_555
N2_2 C6_2 1_555 1_555
N3_2 C7_2 1_555 1_555
N4_2 C7_2 1_555 1_555
N5_2 C6_2 1_555 1_555
N6_2 C10_2 1_555 1_555
C19_2 H13_2 1_555 1_555
C20_2 C19_2 1_555 1_555
H14_2 C20_2 1_555 1_555
C21_2 C20_2 1_555 1_555
C22_2 C21_2 1_555 1_555
H15_2 C22_2 1_555 1_555
C23_2 C22_2 1_555 1_555
H16_2 C23_2 1_555 1_555
C24_2 C21_2 1_555 1_555
C25_2 C26_2 1_555 1_555
C26_2 C27_2 1_555 1_555
C27_2 H17_2 1_555 1_555
C28_2 C27_2 1_555 1_555
H18_2 C28_2 1_555 1_555
C29_2 H19_2 1_555 1_555
C30_2 C26_2 1_555 1_555
H20_2 C30_2 1_555 1_555
Cu4_2 N10_2 1_555 1_555
Cu6_2 N6_2 1_555 1_555
N10_2 C19_2 1_555 1_555
N12_2 C24_2 1_555 1_555
N13_2 C25_2 1_555 1_555
N14_2 C25_2 1_555 1_555
N15_2 C24_2 1_555 1_555
C5_2 N11 1_555 1_555
C11_2 C12_2 1_555 1_555
C11_2 N6_2 1_555 1_555
N2_2 N3_2 1_555 1_555
N4_2 N5_2 1_555 1_555
C23_2 N10_2 1_555 1_555
C28_2 N17 1_555 1_555
C29_2 C30_2 1_555 1_555
C29_2 N17 1_555 1_555
N12_2 N13_2 1_555 1_555
N14_2 N15_2 1_555 1_555
C31_3 H21_3 1_555 1_555
Cu6 N18_3 1_555 1_555
N18_3 C31_3 1_555 1_555
C31_4 H21_4 1_555 1_555
Cu6_2 N18_4 1_555 1_555
N18_4 C31_4 1_555 1_555
Cu4 I1_2 1_555 1_555
S1_2 Cu4 1_555 1_555
W1_2 S1_2 1_555 1_555
S4_2 Cu6 1_555 1_555
Cu6 S1_2 1_555 1_555
W1_2 S4_2 1_555 1_555
Cu4_2 I2_2 1_555 1_555
Cu6_2 S2_2 1_555 1_555
S3_2 W1_3 1_555 1_555
S2_2 W1_3 1_555 1_555
Cu4_2 S3_2 1_555 1_555
Cu6_2 S3_2 1_555 1_555
C1_3 H1_3 1_555 1_555
C2_3 C1_3 1_555 1_555
H2_3 C2_3 1_555 1_555
C3_3 C2_3 1_555 1_555
C4_3 C3_3 1_555 1_555
H3_3 C4_3 1_555 1_555
C5_3 C4_3 1_555 1_555
H4_3 C5_3 1_555 1_555
C6_3 C3_3 1_555 1_555
C13 H9 1_555 1_555
C14 C13 1_555 1_555
H10 C14 1_555 1_555
C15 C14 1_555 1_555
C16 C15 1_555 1_555
H11 C16 1_555 1_555
C17 C16 1_555 1_555
H12 C17 1_555 1_555
C18 C15 1_555 1_555
Cu1_2 I1_3 1_555 1_555
Cu2 N7 1_555 1_555
N1_2 C1_3 1_555 1_555
N2_3 C6_3 1_555 1_555
N7 C13 1_555 1_555
N8 C18 1_555 1_555
N9 C18 1_555 1_555
S1_3 Cu1_2 1_555 1_555
S2_3 Cu1_2 1_555 1_555
W1_4 S1_3 1_555 1_555
C25_3 C26_3 1_555 1_555
C26_3 C27_3 1_555 1_555
C27_3 H17_3 1_555 1_555
C28_3 C27_3 1_555 1_555
H18_3 C28_3 1_555 1_555
C29_3 H19_3 1_555 1_555
C30_3 C26_3 1_555 1_555
H20_3 C30_3 1_555 1_555
H22 C32 1_555 1_555
C33 C32 1_555 1_555
C34 C33 1_555 1_555
H23 C34 1_555 1_555
C35 C34 1_555 1_555
C36 C33 1_555 1_555
Cu3_2 I2_3 1_555 1_555
Cu5 S2_3 1_555 1_555
N11_2 Cu3_2 1_555 1_555
N14_3 C25_3 1_555 1_555
N16_2 Cu2 1_555 1_555
N17_2 Cu5 1_555 1_555
N19 Cu5 1_555 1_555
N20 N8 1_555 1_555
N21 N9 1_555 1_555
S3_3 W1_4 1_555 1_555
S4_3 Cu2 1_555 1_555
C5_3 N1_2 1_555 1_555
C17 N7 1_555 1_555
Cu1_2 N1_2 1_555 1_555
Cu2 S1_3 1_555 1_555
N2_3 N3_3 1_555 1_555
S2_3 W1_4 1_555 1_555
W1_4 S4_3 1_555 1_555
C28_3 N16_2 1_555 1_555
C29_3 C30_3 1_555 1_555
C29_3 N16_2 1_555 1_555
C36 N20 1_555 1_555
C36 N21 1_555 1_555
Cu3_2 S3_3 1_555 1_555
Cu3_2 S4_3 1_555 1_555
Cu5 S3_3 1_555 1_555
N14_3 N15_3 1_555 1_555
C1_4 H1_4 1_555 1_555
C2_4 C1_4 1_555 1_555
H2_4 C2_4 1_555 1_555
C3_4 C2_4 1_555 1_555
C4_4 C3_4 1_555 1_555
H3_4 C4_4 1_555 1_555
C5_4 C4_4 1_555 1_555
H4_4 C5_4 1_555 1_555
C6_4 C3_4 1_555 1_555
C13_2 H9_2 1_555 1_555
C14_2 C13_2 1_555 1_555
H10_2 C14_2 1_555 1_555
C15_2 C14_2 1_555 1_555
C16_2 C15_2 1_555 1_555
H11_2 C16_2 1_555 1_555
C17_2 C16_2 1_555 1_555
H12_2 C17_2 1_555 1_555
C18_2 C15_2 1_555 1_555
N11_2 C1_4 1_555 1_555
N2_4 C6_4 1_555 1_555
N19 C13_2 1_555 1_555
N8_2 C18_2 1_555 1_555
N9_2 C18_2 1_555 1_555
C25_4 C26_4 1_555 1_555
C26_4 C27_4 1_555 1_555
C27_4 H17_4 1_555 1_555
C28_4 C27_4 1_555 1_555
H18_4 C28_4 1_555 1_555
C29_4 H19_4 1_555 1_555
C30_4 C26_4 1_555 1_555
H20_4 C30_4 1_555 1_555
N14_4 C25_4 1_555 1_555
C5_4 N11_2 1_555 1_555
C17_2 N19 1_555 1_555
N2_4 N3_4 1_555 1_555
C28_4 N17_2 1_555 1_555
C29_4 C30_4 1_555 1_555
C29_4 N17_2 1_555 1_555
N14_4 N15_4 1_555 1_555
C7_3 C8_3 1_555 1_555
C8_3 C9_3 1_555 1_555
C9_3 H5_3 1_555 1_555
C10_3 C9_3 1_555 1_555
H6_3 C10_3 1_555 1_555
C11_3 H7_3 1_555 1_555
C12_3 C8_3 1_555 1_555
H8_3 C12_3 1_555 1_555
N4_3 C7_3 1_555 1_555
N6_3 C10_3 1_555 1_555
C19_3 H13_3 1_555 1_555
C20_3 C19_3 1_555 1_555
H14_3 C20_3 1_555 1_555
C21_3 C20_3 1_555 1_555
C22_3 C21_3 1_555 1_555
H15_3 C22_3 1_555 1_555
C23_3 C22_3 1_555 1_555
H16_3 C23_3 1_555 1_555
C24_3 C21_3 1_555 1_555
Cu4_3 N10_3 1_555 1_555
Cu6_3 N6_3 1_555 1_555
N10_3 C19_3 1_555 1_555
N12_3 C24_3 1_555 1_555
C11_3 C12_3 1_555 1_555
C11_3 N6_3 1_555 1_555
N4_3 N5_3 1_555 1_555
C23_3 N10_3 1_555 1_555
N12_3 N13_3 1_555 1_555
C13_3 H9_3 1_555 1_555
C14_3 C13_3 1_555 1_555
H10_3 C14_3 1_555 1_555
C15_3 C14_3 1_555 1_555
C16_3 C15_3 1_555 1_555
H11_3 C16_3 1_555 1_555
C17_3 C16_3 1_555 1_555
H12_3 C17_3 1_555 1_555
C18_3 C15_3 1_555 1_555
Cu4_3 I1_4 1_555 1_555
Cu6_3 N7_2 1_555 1_555
N7_2 C13_3 1_555 1_555
N8_3 C18_3 1_555 1_555
N9_3 C18_3 1_555 1_555
S1_4 Cu4_3 1_555 1_555
W1_5 S1_4 1_555 1_555
S4_4 Cu6_3 1_555 1_555
C17_3 N7_2 1_555 1_555
Cu6_3 S1_4 1_555 1_555
W1_5 S4_4 1_555 1_555
C7_4 C8_4 1_555 1_555
C8_4 C9_4 1_555 1_555
C9_4 H5_4 1_555 1_555
C10_4 C9_4 1_555 1_555
H6_4 C10_4 1_555 1_555
C11_4 H7_4 1_555 1_555
C12_4 C8_4 1_555 1_555
H8_4 C12_4 1_555 1_555
N4_4 C7_4 1_555 1_555
N6_4 C10_4 1_555 1_555
C19_4 H13_4 1_555 1_555
C20_4 C19_4 1_555 1_555
H14_4 C20_4 1_555 1_555
C21_4 C20_4 1_555 1_555
C22_4 C21_4 1_555 1_555
H15_4 C22_4 1_555 1_555
C23_4 C22_4 1_555 1_555
H16_4 C23_4 1_555 1_555
C24_4 C21_4 1_555 1_555
Cu4_4 N10_4 1_555 1_555
Cu6_4 N6_4 1_555 1_555
N10_4 C19_4 1_555 1_555
N12_4 C24_4 1_555 1_555
C11_4 C12_4 1_555 1_555
C11_4 N6_4 1_555 1_555
N4_4 N5_4 1_555 1_555
C23_4 N10_4 1_555 1_555
N12_4 N13_4 1_555 1_555
Cu4_4 I2_4 1_555 1_555
Cu6_4 S2_4 1_555 1_555
N19_2 Cu6_4 1_555 1_555
S3_4 W1_6 1_555 1_555
S2_4 W1_6 1_555 1_555
Cu4_4 S3_4 1_555 1_555
Cu6_4 S3_4 1_555 1_555
C13_4 H9_4 1_555 1_555
C14_4 C13_4 1_555 1_555
H10_4 C14_4 1_555 1_555
C15_4 C14_4 1_555 1_555
C16_4 C15_4 1_555 1_555
H11_4 C16_4 1_555 1_555
C17_4 C16_4 1_555 1_555
H12_4 C17_4 1_555 1_555
C18_4 C15_4 1_555 1_555
N19_2 C13_4 1_555 1_555
N8_4 C18_4 1_555 1_555
N9_4 C18_4 1_555 1_555
H22_2 C32_2 1_555 1_555
C33_2 C32_2 1_555 1_555
C34_2 C33_2 1_555 1_555
H23_2 C34_2 1_555 1_555
C35_2 C34_2 1_555 1_555
C36_2 C33_2 1_555 1_555
N20_2 N8_4 1_555 1_555
N21_2 N9_4 1_555 1_555
C17_4 N19_2 1_555 1_555
C36_2 N20_2 1_555 1_555
C36_2 N21_2 1_555 1_555
H22_3 C32_3 1_555 1_555
C33_3 C32_3 1_555 1_555
C34_3 C33_3 1_555 1_555
H23_3 C34_3 1_555 1_555
C35_3 C34_3 1_555 1_555
C36_3 C33_3 1_555 1_555
C36_3 N20_3 1_555 1_555
C36_3 N21_3 1_555 1_555
C31_5 H21_5 1_555 1_555
Cu7_3 N18_5 1_555 1_555
N18_5 C31_5 1_555 1_555
C31_6 H21_6 1_555 1_555
Cu7_4 N18_6 1_555 1_555
N18_6 C31_6 1_555 1_555
Cu3_3 I2_5 1_555 1_555
Cu7_4 S2_5 1_555 1_555
N11_3 Cu3_3 1_555 1_555
N17_3 Cu7_4 1_555 1_555
S3_5 W1_7 1_555 1_555
S2_5 W1_7 1_555 1_555
Cu3_3 S3_5 1_555 1_555
Cu7_4 S3_5 1_555 1_555
C1_5 H1_5 1_555 1_555
C2_5 C1_5 1_555 1_555
H2_5 C2_5 1_555 1_555
C3_5 C2_5 1_555 1_555
C4_5 C3_5 1_555 1_555
H3_5 C4_5 1_555 1_555
C5_5 C4_5 1_555 1_555
H4_5 C5_5 1_555 1_555
C6_5 C3_5 1_555 1_555
C7_5 C8_5 1_555 1_555
C8_5 C9_5 1_555 1_555
C9_5 H5_5 1_555 1_555
C10_5 C9_5 1_555 1_555
H6_5 C10_5 1_555 1_555
C11_5 H7_5 1_555 1_555
C12_5 C8_5 1_555 1_555
H8_5 C12_5 1_555 1_555
Cu1_3 I1_5 1_555 1_555
N1_3 C1_5 1_555 1_555
N2_5 C6_5 1_555 1_555
N3_5 C7_5 1_555 1_555
N4_5 C7_5 1_555 1_555
N5_5 C6_5 1_555 1_555
N6_5 C10_5 1_555 1_555
S1_5 Cu1_3 1_555 1_555
W1_8 S1_5 1_555 1_555
C19_5 H13_5 1_555 1_555
C20_5 C19_5 1_555 1_555
H14_5 C20_5 1_555 1_555
C21_5 C20_5 1_555 1_555
C22_5 C21_5 1_555 1_555
H15_5 C22_5 1_555 1_555
C23_5 C22_5 1_555 1_555
H16_5 C23_5 1_555 1_555
C24_5 C21_5 1_555 1_555
C25_5 C26_5 1_555 1_555
C26_5 C27_5 1_555 1_555
C27_5 H17_5 1_555 1_555
C28_5 C27_5 1_555 1_555
H18_5 C28_5 1_555 1_555
C29_5 H19_5 1_555 1_555
C30_5 C26_5 1_555 1_555
H20_5 C30_5 1_555 1_555
Cu4_5 N10_5 1_555 1_555
Cu6_5 N6_5 1_555 1_555
N10_5 C19_5 1_555 1_555
N12_5 C24_5 1_555 1_555
N13_5 C25_5 1_555 1_555
N14_5 C25_5 1_555 1_555
N15_5 C24_5 1_555 1_555
N16_3 Cu7_3 1_555 1_555
S4_5 Cu7_3 1_555 1_555
C5_5 N1_3 1_555 1_555
C11_5 C12_5 1_555 1_555
C11_5 N6_5 1_555 1_555
Cu1_3 N1_3 1_555 1_555
Cu7_3 S1_5 1_555 1_555
N2_5 N3_5 1_555 1_555
N4_5 N5_5 1_555 1_555
W1_8 S4_5 1_555 1_555
C23_5 N10_5 1_555 1_555
C28_5 N16_3 1_555 1_555
C29_5 C30_5 1_555 1_555
C29_5 N16_3 1_555 1_555
N12_5 N13_5 1_555 1_555
N14_5 N15_5 1_555 1_555
C1_6 H1_6 1_555 1_555
C2_6 C1_6 1_555 1_555
H2_6 C2_6 1_555 1_555
C3_6 C2_6 1_555 1_555
C4_6 C3_6 1_555 1_555
H3_6 C4_6 1_555 1_555
C5_6 C4_6 1_555 1_555
H4_6 C5_6 1_555 1_555
C6_6 C3_6 1_555 1_555
C7_6 C8_6 1_555 1_555
C8_6 C9_6 1_555 1_555
C9_6 H5_6 1_555 1_555
C10_6 C9_6 1_555 1_555
H6_6 C10_6 1_555 1_555
C11_6 H7_6 1_555 1_555
C12_6 C8_6 1_555 1_555
H8_6 C12_6 1_555 1_555
N11_3 C1_6 1_555 1_555
N2_6 C6_6 1_555 1_555
N3_6 C7_6 1_555 1_555
N4_6 C7_6 1_555 1_555
N5_6 C6_6 1_555 1_555
N6_6 C10_6 1_555 1_555
C19_6 H13_6 1_555 1_555
C20_6 C19_6 1_555 1_555
H14_6 C20_6 1_555 1_555
C21_6 C20_6 1_555 1_555
C22_6 C21_6 1_555 1_555
H15_6 C22_6 1_555 1_555
C23_6 C22_6 1_555 1_555
H16_6 C23_6 1_555 1_555
C24_6 C21_6 1_555 1_555
C25_6 C26_6 1_555 1_555
C26_6 C27_6 1_555 1_555
C27_6 H17_6 1_555 1_555
C28_6 C27_6 1_555 1_555
H18_6 C28_6 1_555 1_555
C29_6 H19_6 1_555 1_555
C30_6 C26_6 1_555 1_555
H20_6 C30_6 1_555 1_555
Cu4_6 N10_6 1_555 1_555
Cu6_6 N6_6 1_555 1_555
N10_6 C19_6 1_555 1_555
N12_6 C24_6 1_555 1_555
N13_6 C25_6 1_555 1_555
N14_6 C25_6 1_555 1_555
N15_6 C24_6 1_555 1_555
C5_6 N11_3 1_555 1_555
C11_6 C12_6 1_555 1_555
C11_6 N6_6 1_555 1_555
N2_6 N3_6 1_555 1_555
N4_6 N5_6 1_555 1_555
C23_6 N10_6 1_555 1_555
C28_6 N17_3 1_555 1_555
C29_6 C30_6 1_555 1_555
C29_6 N17_3 1_555 1_555
N12_6 N13_6 1_555 1_555
N14_6 N15_6 1_555 1_555
C31_7 H21_7 1_555 1_555
Cu6_5 N18_7 1_555 1_555
N18_7 C31_7 1_555 1_555
C31_8 H21_8 1_555 1_555
Cu6_6 N18_8 1_555 1_555
N18_8 C31_8 1_555 1_555
Cu4_5 I1_6 1_555 1_555
S1_6 Cu4_5 1_555 1_555
S2_6 Cu4_5 1_555 1_555
W1_9 S1_6 1_555 1_555
Cu4_6 I2_6 1_555 1_555
Cu6_6 S2_6 1_555 1_555
S3_6 W1_9 1_555 1_555
S4_6 Cu6_5 1_555 1_555
Cu6_5 S1_6 1_555 1_555
S2_6 W1_9 1_555 1_555
W1_9 S4_6 1_555 1_555
Cu4_6 S3_6 1_555 1_555
Cu4_6 S4_6 1_555 1_555
Cu6_6 S3_6 1_555 1_555
H22_4 C32_4 1_555 1_555
C33_4 C32_4 1_555 1_555
C34_4 C33_4 1_555 1_555
H23_4 C34_4 1_555 1_555
C35_4 C34_4 1_555 1_555
C36_4 C33_4 1_555 1_555
C36_4 N20_4 1_555 1_555
C36_4 N21_4 1_555 1_555
Cu3_4 I2_7 1_555 1_555
Cu5_2 S2_7 1_555 1_555
N11_4 Cu3_4 1_555 1_555
N17_4 Cu5_2 1_555 1_555
N19_3 Cu5_2 1_555 1_555
S3_7 W1_10 1_555 1_555
S2_7 W1_10 1_555 1_555
Cu3_4 S3_7 1_555 1_555
Cu5_2 S3_7 1_555 1_555
C1_7 H1_7 1_555 1_555
C2_7 C1_7 1_555 1_555
H2_7 C2_7 1_555 1_555
C3_7 C2_7 1_555 1_555
C4_7 C3_7 1_555 1_555
H3_7 C4_7 1_555 1_555
C5_7 C4_7 1_555 1_555
H4_7 C5_7 1_555 1_555
C6_7 C3_7 1_555 1_555
C13_5 H9_5 1_555 1_555
C14_5 C13_5 1_555 1_555
H10_5 C14_5 1_555 1_555
C15_5 C14_5 1_555 1_555
C16_5 C15_5 1_555 1_555
H11_5 C16_5 1_555 1_555
C17_5 C16_5 1_555 1_555
H12_5 C17_5 1_555 1_555
C18_5 C15_5 1_555 1_555
N11_4 C1_7 1_555 1_555
N2_7 C6_7 1_555 1_555
N19_3 C13_5 1_555 1_555
N8_5 C18_5 1_555 1_555
N9_5 C18_5 1_555 1_555
C25_7 C26_7 1_555 1_555
C26_7 C27_7 1_555 1_555
C27_7 H17_7 1_555 1_555
C28_7 C27_7 1_555 1_555
H18_7 C28_7 1_555 1_555
C29_7 H19_7 1_555 1_555
C30_7 C26_7 1_555 1_555
H20_7 C30_7 1_555 1_555
H22_5 C32_5 1_555 1_555
C33_5 C32_5 1_555 1_555
C34_5 C33_5 1_555 1_555
H23_5 C34_5 1_555 1_555
C35_5 C34_5 1_555 1_555
C36_5 C33_5 1_555 1_555
N14_7 C25_7 1_555 1_555
N20_5 N8_5 1_555 1_555
N21_5 N9_5 1_555 1_555
C5_7 N11_4 1_555 1_555
C17_5 N19_3 1_555 1_555
N2_7 N3_7 1_555 1_555
C28_7 N17_4 1_555 1_555
C29_7 C30_7 1_555 1_555
C29_7 N17_4 1_555 1_555
C36_5 N20_5 1_555 1_555
C36_5 N21_5 1_555 1_555
N14_7 N15_7 1_555 1_555
C1_8 H1_8 1_555 1_555
C2_8 C1_8 1_555 1_555
H2_8 C2_8 1_555 1_555
C3_8 C2_8 1_555 1_555
C4_8 C3_8 1_555 1_555
H3_8 C4_8 1_555 1_555
C5_8 C4_8 1_555 1_555
H4_8 C5_8 1_555 1_555
C6_8 C3_8 1_555 1_555
C13_6 H9_6 1_555 1_555
C14_6 C13_6 1_555 1_555
H10_6 C14_6 1_555 1_555
C15_6 C14_6 1_555 1_555
C16_6 C15_6 1_555 1_555
H11_6 C16_6 1_555 1_555
C17_6 C16_6 1_555 1_555
H12_6 C17_6 1_555 1_555
C18_6 C15_6 1_555 1_555
Cu1_4 I1_7 1_555 1_555
Cu2_2 N7_3 1_555 1_555
N1_4 C1_8 1_555 1_555
N2_8 C6_8 1_555 1_555
N7_3 C13_6 1_555 1_555
N8_6 C18_6 1_555 1_555
N9_6 C18_6 1_555 1_555
S1_7 Cu1_4 1_555 1_555
W1_11 S1_7 1_555 1_555
C25_8 C26_8 1_555 1_555
C26_8 C27_8 1_555 1_555
C27_8 H17_8 1_555 1_555
C28_8 C27_8 1_555 1_555
H18_8 C28_8 1_555 1_555
C29_8 H19_8 1_555 1_555
C30_8 C26_8 1_555 1_555
H20_8 C30_8 1_555 1_555
N14_8 C25_8 1_555 1_555
N16_4 Cu2_2 1_555 1_555
S4_7 Cu2_2 1_555 1_555
C5_8 N1_4 1_555 1_555
C17_6 N7_3 1_555 1_555
Cu1_4 N1_4 1_555 1_555
Cu2_2 S1_7 1_555 1_555
N2_8 N3_8 1_555 1_555
W1_11 S4_7 1_555 1_555
C28_8 N16_4 1_555 1_555
C29_8 C30_8 1_555 1_555
C29_8 N16_4 1_555 1_555
N14_8 N15_8 1_555 1_555
C7_7 C8_7 1_555 1_555
C8_7 C9_7 1_555 1_555
C9_7 H5_7 1_555 1_555
C10_7 C9_7 1_555 1_555
H6_7 C10_7 1_555 1_555
C11_7 H7_7 1_555 1_555
C12_7 C8_7 1_555 1_555
H8_7 C12_7 1_555 1_555
N4_7 C7_7 1_555 1_555
N6_7 C10_7 1_555 1_555
C19_7 H13_7 1_555 1_555
C20_7 C19_7 1_555 1_555
H14_7 C20_7 1_555 1_555
C21_7 C20_7 1_555 1_555
C22_7 C21_7 1_555 1_555
H15_7 C22_7 1_555 1_555
C23_7 C22_7 1_555 1_555
H16_7 C23_7 1_555 1_555
C24_7 C21_7 1_555 1_555
Cu4_7 N10_7 1_555 1_555
Cu6_7 N6_7 1_555 1_555
N10_7 C19_7 1_555 1_555
N12_7 C24_7 1_555 1_555
C11_7 C12_7 1_555 1_555
C11_7 N6_7 1_555 1_555
N4_7 N5_7 1_555 1_555
C23_7 N10_7 1_555 1_555
N12_7 N13_7 1_555 1_555
C7_8 C8_8 1_555 1_555
C8_8 C9_8 1_555 1_555
C9_8 H5_8 1_555 1_555
C10_8 C9_8 1_555 1_555
H6_8 C10_8 1_555 1_555
C11_8 H7_8 1_555 1_555
C12_8 C8_8 1_555 1_555
H8_8 C12_8 1_555 1_555
N4_8 C7_8 1_555 1_555
N6_8 C10_8 1_555 1_555
C19_8 H13_8 1_555 1_555
C20_8 C19_8 1_555 1_555
H14_8 C20_8 1_555 1_555
C21_8 C20_8 1_555 1_555
C22_8 C21_8 1_555 1_555
H15_8 C22_8 1_555 1_555
C23_8 C22_8 1_555 1_555
H16_8 C23_8 1_555 1_555
C24_8 C21_8 1_555 1_555
Cu4_8 N10_8 1_555 1_555
Cu6_8 N6_8 1_555 1_555
N10_8 C19_8 1_555 1_555
N12_8 C24_8 1_555 1_555
C11_8 C12_8 1_555 1_555
C11_8 N6_8 1_555 1_555
N4_8 N5_8 1_555 1_555
C23_8 N10_8 1_555 1_555
N12_8 N13_8 1_555 1_555
C13_7 H9_7 1_555 1_555
C14_7 C13_7 1_555 1_555
H10_7 C14_7 1_555 1_555
C15_7 C14_7 1_555 1_555
C16_7 C15_7 1_555 1_555
H11_7 C16_7 1_555 1_555
C17_7 C16_7 1_555 1_555
H12_7 C17_7 1_555 1_555
C18_7 C15_7 1_555 1_555
Cu4_7 I1_8 1_555 1_555
Cu6_7 N7_4 1_555 1_555
N7_4 C13_7 1_555 1_555
N8_7 C18_7 1_555 1_555
N9_7 C18_7 1_555 1_555
S1_8 Cu4_7 1_555 1_555
S2_8 Cu4_7 1_555 1_555
W1_12 S1_8 1_555 1_555
H22_6 C32_6 1_555 1_555
C33_6 C32_6 1_555 1_555
C34_6 C33_6 1_555 1_555
H23_6 C34_6 1_555 1_555
C35_6 C34_6 1_555 1_555
C36_6 C33_6 1_555 1_555
Cu4_8 I2_8 1_555 1_555
Cu6_8 S2_8 1_555 1_555
N19_4 Cu6_8 1_555 1_555
N20_6 N8_7 1_555 1_555
N21_6 N9_7 1_555 1_555
S3_8 W1_12 1_555 1_555
S4_8 Cu6_7 1_555 1_555
C17_7 N7_4 1_555 1_555
Cu6_7 S1_8 1_555 1_555
S2_8 W1_12 1_555 1_555
W1_12 S4_8 1_555 1_555
C36_6 N20_6 1_555 1_555
C36_6 N21_6 1_555 1_555
Cu4_8 S3_8 1_555 1_555
Cu4_8 S4_8 1_555 1_555
Cu6_8 S3_8 1_555 1_555
C13_8 H9_8 1_555 1_555
C14_8 C13_8 1_555 1_555
H10_8 C14_8 1_555 1_555
C15_8 C14_8 1_555 1_555
C16_8 C15_8 1_555 1_555
H11_8 C16_8 1_555 1_555
C17_8 C16_8 1_555 1_555
H12_8 C17_8 1_555 1_555
C18_8 C15_8 1_555 1_555
N19_4 C13_8 1_555 1_555
N8_8 C18_8 1_555 1_555
N9_8 C18_8 1_555 1_555
C17_8 N19_4 1_555 1_555
H22_7 C32_7 1_555 1_555
C33_7 C32_7 1_555 1_555
C34_7 C33_7 1_555 1_555
H23_7 C34_7 1_555 1_555
C35_7 C34_7 1_555 1_555
C36_7 C33_7 1_555 1_555
C36_7 N20_7 1_555 1_555
C36_7 N21_7 1_555 1_555
H22_8 C32_8 1_555 1_555
C33_8 C32_8 1_555 1_555
C34_8 C33_8 1_555 1_555
H23_8 C34_8 1_555 1_555
C35_8 C34_8 1_555 1_555
C36_8 C33_8 1_555 1_555
C36_8 N20_8 1_555 1_555
C36_8 N21_8 1_555 1_555

#END
