
###############################################################################
#
# This file contains modified crystal structure data generated from the
# MOF subset of the Cambridge Structural Database (CSD) v543 
# hosted by the Cambridge Crystallographic Data Centre (CCDC).
#
# This work is licensed under the Creative Commons
# Attribution-NonCommercial-ShareAlike 4.0 International License.
# To view a copy of this license, visit
# http://creativecommons.org/licenses/by-nc-sa/4.0/
# or send a letter to
# Creative Commons, PO Box 1866, Mountain View, CA 94042, USA.
#
# CIF created using the CSD Python API on 29 September 2022
# The structure has been converted into the P1 space group
# The structure has a 3D framework
# The original CSD entry EWESAC is in the orthorhombic crystal system
# The framework has been calculated to contain at least 10.0% void space
# The void calculation uses a probe of radius 1.32A, grid spacing 0.4
#
###############################################################################

data_EWESAC
_chemical_formula_moiety         '(C320 H224 N64 O80 Zn16)n'
_symmetry_cell_setting           triclinic
_symmetry_space_group_name_H-M   'P 1'
_symmetry_Int_Tables_number      1
_space_group_name_Hall           'P 1'
loop_
_symmetry_equiv_pos_site_id
_symmetry_equiv_pos_as_xyz
1 x,y,z
_cell_length_a                   15.1123(3)
_cell_length_b                   19.9069(3)
_cell_length_c                   31.2591(6)
_cell_angle_alpha                90
_cell_angle_beta                 90
_cell_angle_gamma                90
_cell_volume                     9403.96
loop_
_atom_site_label
_atom_site_type_symbol
_atom_site_fract_x
_atom_site_fract_y
_atom_site_fract_z
Zn1 Zn 0.10911(3) 0.19556(2) 0.14187(2)
N1 N 0.0994(3) 0.19330(19) 0.21284(13)
C1 C 0.1335(4) 0.2412(3) 0.23728(17)
H1 H 0.161 0.2773 0.2238
C2 C 0.1307(4) 0.2409(3) 0.28154(18)
H2 H 0.1559 0.2759 0.2971
C3 C 0.0902(3) 0.1884(2) 0.30225(16)
C4 C 0.0559(4) 0.1377(3) 0.27717(18)
H3 H 0.029 0.1008 0.2899
C5 C 0.0616(4) 0.1416(3) 0.23321(18)
H4 H 0.038 0.1067 0.217
C6 C 0.0810(3) 0.1824(3) 0.35020(16)
O1 O 0.0486(3) 0.1326(2) 0.36638(12)
N2 N 0.1105(3) 0.2355(2) 0.37256(14)
N3 N 0.1083(3) 0.2326(2) 0.41670(14)
C7 C 0.1220(4) 0.2879(3) 0.43576(18)
H5 H 0.1326 0.3267 0.42
C8 C 0.1212(4) 0.2909(3) 0.48236(17)
C9 C 0.1157(7) 0.3505(4) 0.5043(2)
H6 H 0.1137 0.3907 0.4892
C10 C 0.1131(6) 0.3515(3) 0.5488(2)
H7 H 0.1064 0.3926 0.5625
N4 N 0.1197(3) 0.2976(2) 0.57186(14)
C11 C 0.1275(6) 0.2397(3) 0.5508(2)
H8 H 0.1323 0.2004 0.5668
C12 C 0.1287(6) 0.2346(3) 0.5069(2)
H9 H 0.1347 0.1927 0.494
C16 C 0.2842(4) 0.0339(2) 0.14194(17)
C17 C 0.3753(3) 0.0282(2) 0.14184(17)
H12 H 0.4103 0.0666 0.1424
C19 C 0.2405(5) 0.1019(2) 0.14458(16)
O2 O 0.1567(3) 0.10236(19) 0.14123(13)
O3 O 0.2854(4) 0.15330(19) 0.14983(15)
H14 H 0.129(3) 0.275(3) 0.3642(16)
Zn2 Zn 0.10911(3) 0.30444(2) 0.64187(2)
N5 N 0.1197(3) 0.2024(2) 0.07186(14)
O7 O 0.1499(3) 0.29043(17) 0.14664(12)
C13 C 0.3633(3) 0.9083(2) 0.14042(15)
C14 C 0.2716(3) 0.9144(2) 0.1387(2)
H10 H 0.2366 0.876 0.1371
C15 C 0.2322(4) 0.9768(3) 0.1393(2)
H11 H 0.1709 0.9805 0.1379
C18 C 0.4146(3) 0.9651(2) 0.14093(16)
H13 H 0.4759 0.9614 0.1407
C20 C 0.4028(3) 0.8395(3) 0.14146(14)
O4 O 0.4831(3) 0.8342(2) 0.13677(14)
O5 O 0.3501(3) 0.79043(17) 0.14664(12)
Zn3 Zn 0.39089(3) 0.69556(2) 0.14187(2)
Zn4 Zn 0.60911(3) 0.80444(2) 0.14187(2)
O6 O 0.9831(3) 0.1658(2) 0.13677(14)
C13_2 C 0.1367(3) 0.0917(2) 0.64042(15)
C14_2 C 0.2284(3) 0.0856(2) 0.6387(2)
H10_2 H 0.2634 0.124 0.6371
C15_2 C 0.2678(4) 0.0232(3) 0.6393(2)
H11_2 H 0.3291 0.0195 0.6379
C18_2 C 0.0854(3) 0.0349(2) 0.64093(16)
H13_2 H 0.0241 0.0386 0.6407
C20_2 C 0.0972(3) 0.1605(3) 0.64146(14)
O4_2 O 0.0169(3) 0.1658(2) 0.63677(14)
O5_2 O 0.1499(3) 0.20957(17) 0.64664(12)
C9_2 C 0.3843(7) 0.6495(4) 0.0043(2)
C10_2 C 0.3869(6) 0.6485(3) 0.0488(2)
H7_2 H 0.3936 0.6074 0.0625
N4_2 N 0.3803(3) 0.7024(2) 0.07186(14)
C11_2 C 0.3725(6) 0.7603(3) 0.0508(2)
H8_2 H 0.3677 0.7996 0.0668
C12_2 C 0.3713(6) 0.7654(3) 0.0069(2)
Zn1_2 Zn 0.39089(3) 0.80444(2) 0.64187(2)
N1_2 N 0.4006(3) 0.80670(19) 0.71284(13)
C1_2 C 0.3665(4) 0.7588(3) 0.73728(17)
H1_2 H 0.339 0.7227 0.7238
C2_2 C 0.3693(4) 0.7591(3) 0.78154(18)
H2_2 H 0.3441 0.7241 0.7971
C3_2 C 0.4098(3) 0.8116(2) 0.80225(16)
C4_2 C 0.4441(4) 0.8623(3) 0.77717(18)
H3_2 H 0.471 0.8992 0.7899
C5_2 C 0.4384(4) 0.8584(3) 0.73321(18)
H4_2 H 0.462 0.8933 0.717
C6_2 C 0.4190(3) 0.8176(3) 0.85020(16)
O1_2 O 0.4514(3) 0.8674(2) 0.86638(12)
N2_2 N 0.3895(3) 0.7645(2) 0.87256(14)
N3_2 N 0.3917(3) 0.7674(2) 0.91670(14)
C7_2 C 0.3780(4) 0.7121(3) 0.93576(18)
H5_2 H 0.3674 0.6733 0.92
C8_2 C 0.3788(4) 0.7091(3) 0.98236(17)
H6_2 H 0.3863 0.6093 0.9892
H9_2 H 0.3653 0.8073 0.994
C16_2 C 0.2158(4) 0.9661(2) 0.64194(17)
C17_2 C 0.1247(3) 0.9718(2) 0.64184(17)
H12_2 H 0.0897 0.9334 0.6424
C19_2 C 0.2595(5) 0.8981(2) 0.64458(16)
O2_2 O 0.3433(3) 0.89764(19) 0.64123(13)
O3_2 O 0.2146(4) 0.84670(19) 0.64983(15)
H14_2 H 0.371(3) 0.725(3) 0.8642(16)
N5_2 N 0.3803(3) 0.7976(2) 0.57186(14)
O6_2 O 0.5169(3) 0.8342(2) 0.63677(14)
O7_2 O 0.3501(3) 0.70957(17) 0.64664(12)
Zn4_2 Zn 0.89089(3) 0.19556(2) 0.64187(2)
C9_3 C 0.6157(7) 0.8505(4) 0.0043(2)
C10_3 C 0.6131(6) 0.8515(3) 0.0488(2)
H7_3 H 0.6064 0.8926 0.0625
N4_3 N 0.6197(3) 0.7976(2) 0.07186(14)
C11_3 C 0.6275(6) 0.7397(3) 0.0508(2)
H8_3 H 0.6323 0.7004 0.0668
C12_3 C 0.6287(6) 0.7346(3) 0.0069(2)
Zn1_3 Zn 0.60911(3) 0.69556(2) 0.64187(2)
N1_3 N 0.5994(3) 0.69330(19) 0.71284(13)
C1_3 C 0.6335(4) 0.7412(3) 0.73728(17)
H1_3 H 0.661 0.7773 0.7238
C2_3 C 0.6307(4) 0.7409(3) 0.78154(18)
H2_3 H 0.6559 0.7759 0.7971
C3_3 C 0.5902(3) 0.6884(2) 0.80225(16)
C4_3 C 0.5559(4) 0.6377(3) 0.77717(18)
H3_3 H 0.529 0.6008 0.7899
C5_3 C 0.5616(4) 0.6416(3) 0.73321(18)
H4_3 H 0.538 0.6067 0.717
C6_3 C 0.5810(3) 0.6824(3) 0.85020(16)
O1_3 O 0.5486(3) 0.6326(2) 0.86638(12)
N2_3 N 0.6105(3) 0.7355(2) 0.87256(14)
N3_3 N 0.6083(3) 0.7326(2) 0.91670(14)
C7_3 C 0.6220(4) 0.7879(3) 0.93576(18)
H5_3 H 0.6326 0.8267 0.92
C8_3 C 0.6212(4) 0.7909(3) 0.98236(17)
H6_3 H 0.6137 0.8907 0.9892
H9_3 H 0.6347 0.6927 0.994
C13_3 C 0.8633(3) 0.4083(2) 0.64042(15)
C14_3 C 0.7716(3) 0.4144(2) 0.6387(2)
H10_3 H 0.7366 0.376 0.6371
C15_3 C 0.7322(4) 0.4768(3) 0.6393(2)
H11_3 H 0.6709 0.4805 0.6379
C16_3 C 0.7842(4) 0.5339(2) 0.64194(17)
C17_3 C 0.8753(3) 0.5282(2) 0.64184(17)
H12_3 H 0.9103 0.5666 0.6424
C18_3 C 0.9146(3) 0.4651(2) 0.64093(16)
H13_3 H 0.9759 0.4614 0.6407
C19_3 C 0.7405(5) 0.6019(2) 0.64458(16)
O2_3 O 0.6567(3) 0.60236(19) 0.64123(13)
O3_3 O 0.7854(4) 0.65330(19) 0.64983(15)
C20_3 C 0.9028(3) 0.3395(3) 0.64146(14)
O4_3 O 0.9831(3) 0.3342(2) 0.63677(14)
O5_3 O 0.8501(3) 0.29043(17) 0.64664(12)
H14_3 H 0.629(3) 0.775(3) 0.8642(16)
N5_3 N 0.6197(3) 0.7024(2) 0.57186(14)
O6_3 O 0.4831(3) 0.6658(2) 0.63677(14)
O7_3 O 0.6499(3) 0.79043(17) 0.64664(12)
O6_4 O 0.0169(3) 0.3342(2) 0.13677(14)
Zn1_4 Zn 0.89089(3) 0.30444(2) 0.14187(2)
N1_4 N 0.9006(3) 0.30670(19) 0.21284(13)
C1_4 C 0.8665(4) 0.2588(3) 0.23728(17)
H1_4 H 0.839 0.2227 0.2238
C2_4 C 0.8693(4) 0.2591(3) 0.28154(18)
H2_4 H 0.8441 0.2241 0.2971
C3_4 C 0.9098(3) 0.3116(2) 0.30225(16)
C4_4 C 0.9441(4) 0.3623(3) 0.27717(18)
H3_4 H 0.971 0.3992 0.2899
C5_4 C 0.9384(4) 0.3584(3) 0.23321(18)
H4_4 H 0.962 0.3933 0.217
C6_4 C 0.9190(3) 0.3176(3) 0.35020(16)
O1_4 O 0.9514(3) 0.3674(2) 0.36638(12)
N2_4 N 0.8895(3) 0.2645(2) 0.37256(14)
N3_4 N 0.8917(3) 0.2674(2) 0.41670(14)
C7_4 C 0.8780(4) 0.2121(3) 0.43576(18)
H5_4 H 0.8674 0.1733 0.42
C8_4 C 0.8788(4) 0.2091(3) 0.48236(17)
C9_4 C 0.8843(7) 0.1495(4) 0.5043(2)
H6_4 H 0.8863 0.1093 0.4892
C10_4 C 0.8869(6) 0.1485(3) 0.5488(2)
H7_4 H 0.8936 0.1074 0.5625
N4_4 N 0.8803(3) 0.2024(2) 0.57186(14)
C11_4 C 0.8725(6) 0.2603(3) 0.5508(2)
H8_4 H 0.8677 0.2996 0.5668
C12_4 C 0.8713(6) 0.2654(3) 0.5069(2)
H9_4 H 0.8653 0.3073 0.494
C13_4 C 0.6367(3) 0.5917(2) 0.14042(15)
C14_4 C 0.7284(3) 0.5856(2) 0.1387(2)
H10_4 H 0.7634 0.624 0.1371
C15_4 C 0.7678(4) 0.5232(3) 0.1393(2)
H11_4 H 0.8291 0.5195 0.1379
C16_4 C 0.7158(4) 0.4661(2) 0.14194(17)
C17_4 C 0.6247(3) 0.4718(2) 0.14184(17)
H12_4 H 0.5897 0.4334 0.1424
C18_4 C 0.5854(3) 0.5349(2) 0.14093(16)
H13_4 H 0.5241 0.5386 0.1407
C19_4 C 0.7595(5) 0.3981(2) 0.14458(16)
O2_4 O 0.8433(3) 0.39764(19) 0.14123(13)
O3_4 O 0.7146(4) 0.34670(19) 0.14983(15)
C20_4 C 0.5972(3) 0.6605(3) 0.14146(14)
O4_4 O 0.5169(3) 0.6658(2) 0.13677(14)
O5_4 O 0.6499(3) 0.70957(17) 0.14664(12)
H14_4 H 0.871(3) 0.225(3) 0.3642(16)
N5_4 N 0.8803(3) 0.2976(2) 0.07186(14)
O7_4 O 0.8501(3) 0.20957(17) 0.14664(12)
C9_5 C 0.1157(7) 0.1495(4) 0.0043(2)
C10_5 C 0.1131(6) 0.1485(3) 0.0488(2)
H7_5 H 0.1064 0.1074 0.0625
C11_5 C 0.1275(6) 0.2603(3) 0.0508(2)
H8_5 H 0.1323 0.2996 0.0668
C12_5 C 0.1287(6) 0.2654(3) 0.0069(2)
N1_5 N 0.0994(3) 0.30670(19) 0.71284(13)
C1_5 C 0.1335(4) 0.2588(3) 0.73728(17)
H1_5 H 0.161 0.2227 0.7238
C2_5 C 0.1307(4) 0.2591(3) 0.78154(18)
H2_5 H 0.1559 0.2241 0.7971
C3_5 C 0.0902(3) 0.3116(2) 0.80225(16)
C4_5 C 0.0559(4) 0.3623(3) 0.77717(18)
H3_5 H 0.029 0.3992 0.7899
C5_5 C 0.0616(4) 0.3584(3) 0.73321(18)
H4_5 H 0.038 0.3933 0.717
C6_5 C 0.0810(3) 0.3176(3) 0.85020(16)
O1_5 O 0.0486(3) 0.3674(2) 0.86638(12)
N2_5 N 0.1105(3) 0.2645(2) 0.87256(14)
N3_5 N 0.1083(3) 0.2674(2) 0.91670(14)
C7_5 C 0.1220(4) 0.2121(3) 0.93576(18)
H5_5 H 0.1326 0.1733 0.92
C8_5 C 0.1212(4) 0.2091(3) 0.98236(17)
H6_5 H 0.1137 0.1093 0.9892
H9_5 H 0.1347 0.3073 0.994
C13_5 C 0.3633(3) 0.5917(2) 0.64042(15)
C14_5 C 0.2716(3) 0.5856(2) 0.6387(2)
H10_5 H 0.2366 0.624 0.6371
C15_5 C 0.2322(4) 0.5232(3) 0.6393(2)
H11_5 H 0.1709 0.5195 0.6379
C16_5 C 0.2842(4) 0.4661(2) 0.64194(17)
C17_5 C 0.3753(3) 0.4718(2) 0.64184(17)
H12_5 H 0.4103 0.4334 0.6424
C18_5 C 0.4146(3) 0.5349(2) 0.64093(16)
H13_5 H 0.4759 0.5386 0.6407
C19_5 C 0.2405(5) 0.3981(2) 0.64458(16)
O2_5 O 0.1567(3) 0.39764(19) 0.64123(13)
O3_5 O 0.2854(4) 0.34670(19) 0.64983(15)
C20_5 C 0.4028(3) 0.6605(3) 0.64146(14)
H14_5 H 0.129(3) 0.225(3) 0.8642(16)
N1_6 N 0.4006(3) 0.69330(19) 0.21284(13)
C1_6 C 0.3665(4) 0.7412(3) 0.23728(17)
H1_6 H 0.339 0.7773 0.2238
C2_6 C 0.3693(4) 0.7409(3) 0.28154(18)
H2_6 H 0.3441 0.7759 0.2971
C3_6 C 0.4098(3) 0.6884(2) 0.30225(16)
C4_6 C 0.4441(4) 0.6377(3) 0.27717(18)
H3_6 H 0.471 0.6008 0.2899
C5_6 C 0.4384(4) 0.6416(3) 0.23321(18)
H4_6 H 0.462 0.6067 0.217
C6_6 C 0.4190(3) 0.6824(3) 0.35020(16)
O1_6 O 0.4514(3) 0.6326(2) 0.36638(12)
N2_6 N 0.3895(3) 0.7355(2) 0.37256(14)
N3_6 N 0.3917(3) 0.7326(2) 0.41670(14)
C7_6 C 0.3780(4) 0.7879(3) 0.43576(18)
H5_6 H 0.3674 0.8267 0.42
C8_6 C 0.3788(4) 0.7909(3) 0.48236(17)
C9_6 C 0.3843(7) 0.8505(4) 0.5043(2)
H6_6 H 0.3863 0.8907 0.4892
C10_6 C 0.3869(6) 0.8515(3) 0.5488(2)
H7_6 H 0.3936 0.8926 0.5625
C11_6 C 0.3725(6) 0.7397(3) 0.5508(2)
H8_6 H 0.3677 0.7004 0.5668
C12_6 C 0.3713(6) 0.7346(3) 0.5069(2)
H9_6 H 0.3653 0.6927 0.494
C13_6 C 0.1367(3) 0.4083(2) 0.14042(15)
C14_6 C 0.2284(3) 0.4144(2) 0.1387(2)
H10_6 H 0.2634 0.376 0.1371
C15_6 C 0.2678(4) 0.4768(3) 0.1393(2)
H11_6 H 0.3291 0.4805 0.1379
C16_6 C 0.2158(4) 0.5339(2) 0.14194(17)
C17_6 C 0.1247(3) 0.5282(2) 0.14184(17)
H12_6 H 0.0897 0.5666 0.1424
C18_6 C 0.0854(3) 0.4651(2) 0.14093(16)
H13_6 H 0.0241 0.4614 0.1407
C19_6 C 0.2595(5) 0.6019(2) 0.14458(16)
O2_6 O 0.3433(3) 0.60236(19) 0.14123(13)
O3_6 O 0.2146(4) 0.65330(19) 0.14983(15)
C20_6 C 0.0972(3) 0.3395(3) 0.14146(14)
H14_6 H 0.371(3) 0.775(3) 0.3642(16)
C13_7 C 0.8633(3) 0.0917(2) 0.14042(15)
C14_7 C 0.7716(3) 0.0856(2) 0.1387(2)
H10_7 H 0.7366 0.124 0.1371
C15_7 C 0.7322(4) 0.0232(3) 0.1393(2)
H11_7 H 0.6709 0.0195 0.1379
C18_7 C 0.9146(3) 0.0349(2) 0.14093(16)
H13_7 H 0.9759 0.0386 0.1407
C20_7 C 0.9028(3) 0.1605(3) 0.14146(14)
N1_7 N 0.5994(3) 0.80670(19) 0.21284(13)
C1_7 C 0.6335(4) 0.7588(3) 0.23728(17)
H1_7 H 0.661 0.7227 0.2238
C2_7 C 0.6307(4) 0.7591(3) 0.28154(18)
H2_7 H 0.6559 0.7241 0.2971
C3_7 C 0.5902(3) 0.8116(2) 0.30225(16)
C4_7 C 0.5559(4) 0.8623(3) 0.27717(18)
H3_7 H 0.529 0.8992 0.2899
C5_7 C 0.5616(4) 0.8584(3) 0.23321(18)
H4_7 H 0.538 0.8933 0.217
C6_7 C 0.5810(3) 0.8176(3) 0.35020(16)
O1_7 O 0.5486(3) 0.8674(2) 0.36638(12)
N2_7 N 0.6105(3) 0.7645(2) 0.37256(14)
N3_7 N 0.6083(3) 0.7674(2) 0.41670(14)
C7_7 C 0.6220(4) 0.7121(3) 0.43576(18)
H5_7 H 0.6326 0.6733 0.42
C8_7 C 0.6212(4) 0.7091(3) 0.48236(17)
C9_7 C 0.6157(7) 0.6495(4) 0.5043(2)
H6_7 H 0.6137 0.6093 0.4892
C10_7 C 0.6131(6) 0.6485(3) 0.5488(2)
H7_7 H 0.6064 0.6074 0.5625
C11_7 C 0.6275(6) 0.7603(3) 0.5508(2)
H8_7 H 0.6323 0.7996 0.5668
C12_7 C 0.6287(6) 0.7654(3) 0.5069(2)
H9_7 H 0.6347 0.8073 0.494
C16_7 C 0.7842(4) 0.9661(2) 0.14194(17)
C17_7 C 0.8753(3) 0.9718(2) 0.14184(17)
H12_7 H 0.9103 0.9334 0.1424
C19_7 C 0.7405(5) 0.8981(2) 0.14458(16)
O2_7 O 0.6567(3) 0.89764(19) 0.14123(13)
O3_7 O 0.7854(4) 0.84670(19) 0.14983(15)
H14_7 H 0.629(3) 0.725(3) 0.3642(16)
C9_8 C 0.8843(7) 0.3505(4) 0.0043(2)
C10_8 C 0.8869(6) 0.3515(3) 0.0488(2)
H7_8 H 0.8936 0.3926 0.0625
C11_8 C 0.8725(6) 0.2397(3) 0.0508(2)
H8_8 H 0.8677 0.2004 0.0668
C12_8 C 0.8713(6) 0.2346(3) 0.0069(2)
N1_8 N 0.9006(3) 0.19330(19) 0.71284(13)
C1_8 C 0.8665(4) 0.2412(3) 0.73728(17)
H1_8 H 0.839 0.2773 0.7238
C2_8 C 0.8693(4) 0.2409(3) 0.78154(18)
H2_8 H 0.8441 0.2759 0.7971
C3_8 C 0.9098(3) 0.1884(2) 0.80225(16)
C4_8 C 0.9441(4) 0.1377(3) 0.77717(18)
H3_8 H 0.971 0.1008 0.7899
C5_8 C 0.9384(4) 0.1416(3) 0.73321(18)
H4_8 H 0.962 0.1067 0.717
C6_8 C 0.9190(3) 0.1824(3) 0.85020(16)
O1_8 O 0.9514(3) 0.1326(2) 0.86638(12)
N2_8 N 0.8895(3) 0.2355(2) 0.87256(14)
N3_8 N 0.8917(3) 0.2326(2) 0.91670(14)
C7_8 C 0.8780(4) 0.2879(3) 0.93576(18)
H5_8 H 0.8674 0.3267 0.92
C8_8 C 0.8788(4) 0.2909(3) 0.98236(17)
H6_8 H 0.8863 0.3907 0.9892
H9_8 H 0.8653 0.1927 0.994
C16_8 C 0.7158(4) 0.0339(2) 0.64194(17)
C17_8 C 0.6247(3) 0.0282(2) 0.64184(17)
H12_8 H 0.5897 0.0666 0.6424
C19_8 C 0.7595(5) 0.1019(2) 0.64458(16)
O2_8 O 0.8433(3) 0.10236(19) 0.64123(13)
O3_8 O 0.7146(4) 0.15330(19) 0.64983(15)
H14_8 H 0.871(3) 0.275(3) 0.8642(16)
C13_8 C 0.6367(3) 0.9083(2) 0.64042(15)
C14_8 C 0.7284(3) 0.9144(2) 0.6387(2)
H10_8 H 0.7634 0.876 0.6371
C15_8 C 0.7678(4) 0.9768(3) 0.6393(2)
H11_8 H 0.8291 0.9805 0.6379
C18_8 C 0.5854(3) 0.9651(2) 0.64093(16)
H13_8 H 0.5241 0.9614 0.6407
C20_8 C 0.5972(3) 0.8395(3) 0.64146(14)
O6_5 O 0.0169(3) 0.6658(2) 0.36323(14)
Zn1_5 Zn 0.89089(3) 0.69556(2) 0.35813(2)
N1_9 N 0.9006(3) 0.69330(19) 0.28716(13)
C1_9 C 0.8665(4) 0.7412(3) 0.26272(17)
H1_9 H 0.839 0.7773 0.2762
C2_9 C 0.8693(4) 0.7409(3) 0.21846(18)
H2_9 H 0.8441 0.7759 0.2029
C3_9 C 0.9098(3) 0.6884(2) 0.19775(16)
C4_9 C 0.9441(4) 0.6377(3) 0.22283(18)
H3_9 H 0.971 0.6008 0.2101
C5_9 C 0.9384(4) 0.6416(3) 0.26679(18)
H4_9 H 0.962 0.6067 0.283
C6_9 C 0.9190(3) 0.6824(3) 0.14980(16)
O1_9 O 0.9514(3) 0.6326(2) 0.13362(12)
N2_9 N 0.8895(3) 0.7355(2) 0.12744(14)
N3_9 N 0.8917(3) 0.7326(2) 0.08330(14)
C7_9 C 0.8780(4) 0.7879(3) 0.06424(18)
H5_9 H 0.8674 0.8267 0.08
C8_9 C 0.8788(4) 0.7909(3) 0.01764(17)
H6_9 H 0.8863 0.8907 0.0108
H9_9 H 0.8653 0.6927 0.006
C13_9 C 0.6367(3) 0.4083(2) 0.35958(15)
C14_9 C 0.7284(3) 0.4144(2) 0.3613(2)
H10_9 H 0.7634 0.376 0.3629
C15_9 C 0.7678(4) 0.4768(3) 0.3607(2)
H11_9 H 0.8291 0.4805 0.3621
C16_9 C 0.7158(4) 0.5339(2) 0.35806(17)
C17_9 C 0.6247(3) 0.5282(2) 0.35816(17)
H12_9 H 0.5897 0.5666 0.3576
C18_9 C 0.5854(3) 0.4651(2) 0.35907(16)
H13_9 H 0.5241 0.4614 0.3593
C19_9 C 0.7595(5) 0.6019(2) 0.35542(16)
O2_9 O 0.8433(3) 0.60236(19) 0.35877(13)
O3_9 O 0.7146(4) 0.65330(19) 0.35017(15)
C20_9 C 0.5972(3) 0.3395(3) 0.35854(14)
O4_5 O 0.5169(3) 0.3342(2) 0.36323(14)
O5_5 O 0.6499(3) 0.29043(17) 0.35336(12)
H14_9 H 0.871(3) 0.775(3) 0.1358(16)
Zn3_2 Zn 0.60911(3) 0.19556(2) 0.35813(2)
Zn4_3 Zn 0.39089(3) 0.30444(2) 0.35813(2)
N5_5 N 0.8803(3) 0.7024(2) 0.42814(14)
O7_5 O 0.8501(3) 0.79043(17) 0.35336(12)
C9_9 C 0.8843(7) 0.8505(4) 0.9957(2)
C10_9 C 0.8869(6) 0.8515(3) 0.9512(2)
H7_9 H 0.8936 0.8926 0.9375
N4_5 N 0.8803(3) 0.7976(2) 0.92814(14)
C11_9 C 0.8725(6) 0.7397(3) 0.9492(2)
H8_9 H 0.8677 0.7004 0.9332
C12_9 C 0.8713(6) 0.7346(3) 0.9931(2)
Zn2_2 Zn 0.89089(3) 0.80444(2) 0.85813(2)
Zn4_4 Zn 0.10911(3) 0.69556(2) 0.85813(2)
Zn1_6 Zn 0.60911(3) 0.30444(2) 0.85813(2)
N1_10 N 0.5994(3) 0.30670(19) 0.78716(13)
C1_10 C 0.6335(4) 0.2588(3) 0.76272(17)
H1_10 H 0.661 0.2227 0.7762
C2_10 C 0.6307(4) 0.2591(3) 0.71846(18)
H2_10 H 0.6559 0.2241 0.7029
C3_10 C 0.5902(3) 0.3116(2) 0.69775(16)
C4_10 C 0.5559(4) 0.3623(3) 0.72283(18)
H3_10 H 0.529 0.3992 0.7101
C5_10 C 0.5616(4) 0.3584(3) 0.76679(18)
H4_10 H 0.538 0.3933 0.783
C6_10 C 0.5810(3) 0.3176(3) 0.64980(16)
O1_10 O 0.5486(3) 0.3674(2) 0.63362(12)
N2_10 N 0.6105(3) 0.2645(2) 0.62744(14)
N3_10 N 0.6083(3) 0.2674(2) 0.58330(14)
C7_10 C 0.6220(4) 0.2121(3) 0.56424(18)
H5_10 H 0.6326 0.1733 0.58
C8_10 C 0.6212(4) 0.2091(3) 0.51764(17)
C9_10 C 0.6157(7) 0.1495(4) 0.4957(2)
H6_10 H 0.6137 0.1093 0.5108
C10_10 C 0.6131(6) 0.1485(3) 0.4512(2)
H7_10 H 0.6064 0.1074 0.4375
N4_6 N 0.6197(3) 0.2024(2) 0.42814(14)
C11_10 C 0.6275(6) 0.2603(3) 0.4492(2)
H8_10 H 0.6323 0.2996 0.4332
C12_10 C 0.6287(6) 0.2654(3) 0.4931(2)
H9_10 H 0.6347 0.3073 0.506
C13_10 C 0.8633(3) 0.5917(2) 0.85958(15)
C14_10 C 0.7716(3) 0.5856(2) 0.8613(2)
H10_10 H 0.7366 0.624 0.8629
C15_10 C 0.7322(4) 0.5232(3) 0.8607(2)
H11_10 H 0.6709 0.5195 0.8621
C16_10 C 0.7842(4) 0.4661(2) 0.85806(17)
C17_10 C 0.8753(3) 0.4718(2) 0.85816(17)
H12_10 H 0.9103 0.4334 0.8576
C18_10 C 0.9146(3) 0.5349(2) 0.85907(16)
H13_10 H 0.9759 0.5386 0.8593
C19_10 C 0.7405(5) 0.3981(2) 0.85542(16)
O2_10 O 0.6567(3) 0.39764(19) 0.85877(13)
O3_10 O 0.7854(4) 0.34670(19) 0.85017(15)
C20_10 C 0.9028(3) 0.6605(3) 0.85854(14)
O4_6 O 0.9831(3) 0.6658(2) 0.86323(14)
O5_6 O 0.8501(3) 0.70957(17) 0.85336(12)
H14_10 H 0.629(3) 0.225(3) 0.6358(16)
N5_6 N 0.6197(3) 0.2976(2) 0.92814(14)
O6_6 O 0.4831(3) 0.3342(2) 0.86323(14)
O7_6 O 0.6499(3) 0.20957(17) 0.85336(12)
Zn1_7 Zn 0.39089(3) 0.19556(2) 0.85813(2)
N1_11 N 0.4006(3) 0.19330(19) 0.78716(13)
C1_11 C 0.3665(4) 0.2412(3) 0.76272(17)
H1_11 H 0.339 0.2773 0.7762
C2_11 C 0.3693(4) 0.2409(3) 0.71846(18)
H2_11 H 0.3441 0.2759 0.7029
C3_11 C 0.4098(3) 0.1884(2) 0.69775(16)
C4_11 C 0.4441(4) 0.1377(3) 0.72283(18)
H3_11 H 0.471 0.1008 0.7101
C5_11 C 0.4384(4) 0.1416(3) 0.76679(18)
H4_11 H 0.462 0.1067 0.783
C6_11 C 0.4190(3) 0.1824(3) 0.64980(16)
O1_11 O 0.4514(3) 0.1326(2) 0.63362(12)
N2_11 N 0.3895(3) 0.2355(2) 0.62744(14)
N3_11 N 0.3917(3) 0.2326(2) 0.58330(14)
C7_11 C 0.3780(4) 0.2879(3) 0.56424(18)
H5_11 H 0.3674 0.3267 0.58
C8_11 C 0.3788(4) 0.2909(3) 0.51764(17)
C9_11 C 0.3843(7) 0.3505(4) 0.4957(2)
H6_11 H 0.3863 0.3907 0.5108
C10_11 C 0.3869(6) 0.3515(3) 0.4512(2)
H7_11 H 0.3936 0.3926 0.4375
N4_7 N 0.3803(3) 0.2976(2) 0.42814(14)
C11_11 C 0.3725(6) 0.2397(3) 0.4492(2)
H8_11 H 0.3677 0.2004 0.4332
C12_11 C 0.3713(6) 0.2346(3) 0.4931(2)
H9_11 H 0.3653 0.1927 0.506
C16_11 C 0.2158(4) 0.0339(2) 0.85806(17)
C17_11 C 0.1247(3) 0.0282(2) 0.85816(17)
H12_11 H 0.0897 0.0666 0.8576
C19_11 C 0.2595(5) 0.1019(2) 0.85542(16)
O2_11 O 0.3433(3) 0.10236(19) 0.85877(13)
O3_11 O 0.2146(4) 0.15330(19) 0.85017(15)
H14_11 H 0.371(3) 0.275(3) 0.6358(16)
N5_7 N 0.3803(3) 0.2024(2) 0.92814(14)
O6_7 O 0.5169(3) 0.1658(2) 0.86323(14)
O7_7 O 0.3501(3) 0.29043(17) 0.85336(12)
C13_11 C 0.1367(3) 0.9083(2) 0.85958(15)
C14_11 C 0.2284(3) 0.9144(2) 0.8613(2)
H10_11 H 0.2634 0.876 0.8629
C15_11 C 0.2678(4) 0.9768(3) 0.8607(2)
H11_11 H 0.3291 0.9805 0.8621
C18_11 C 0.0854(3) 0.9651(2) 0.85907(16)
H13_11 H 0.0241 0.9614 0.8593
C20_11 C 0.0972(3) 0.8395(3) 0.85854(14)
O4_7 O 0.0169(3) 0.8342(2) 0.86323(14)
O5_7 O 0.1499(3) 0.79043(17) 0.85336(12)
C13_12 C 0.3633(3) 0.0917(2) 0.35958(15)
C14_12 C 0.2716(3) 0.0856(2) 0.3613(2)
H10_12 H 0.2366 0.124 0.3629
C15_12 C 0.2322(4) 0.0232(3) 0.3607(2)
H11_12 H 0.1709 0.0195 0.3621
C18_12 C 0.4146(3) 0.0349(2) 0.35907(16)
H13_12 H 0.4759 0.0386 0.3593
C20_12 C 0.4028(3) 0.1605(3) 0.35854(14)
O4_8 O 0.4831(3) 0.1658(2) 0.36323(14)
O5_8 O 0.3501(3) 0.20957(17) 0.35336(12)
Zn1_8 Zn 0.10911(3) 0.80444(2) 0.35813(2)
N1_12 N 0.0994(3) 0.80670(19) 0.28716(13)
C1_12 C 0.1335(4) 0.7588(3) 0.26272(17)
H1_12 H 0.161 0.7227 0.2762
C2_12 C 0.1307(4) 0.7591(3) 0.21846(18)
H2_12 H 0.1559 0.7241 0.2029
C3_12 C 0.0902(3) 0.8116(2) 0.19775(16)
C4_12 C 0.0559(4) 0.8623(3) 0.22283(18)
H3_12 H 0.029 0.8992 0.2101
C5_12 C 0.0616(4) 0.8584(3) 0.26679(18)
H4_12 H 0.038 0.8933 0.283
C6_12 C 0.0810(3) 0.8176(3) 0.14980(16)
O1_12 O 0.0486(3) 0.8674(2) 0.13362(12)
N2_12 N 0.1105(3) 0.7645(2) 0.12744(14)
N3_12 N 0.1083(3) 0.7674(2) 0.08330(14)
C7_12 C 0.1220(4) 0.7121(3) 0.06424(18)
H5_12 H 0.1326 0.6733 0.08
C8_12 C 0.1212(4) 0.7091(3) 0.01764(17)
H6_12 H 0.1137 0.6093 0.0108
H9_12 H 0.1347 0.8073 0.006
C16_12 C 0.2842(4) 0.9661(2) 0.35806(17)
C17_12 C 0.3753(3) 0.9718(2) 0.35816(17)
H12_12 H 0.4103 0.9334 0.3576
C19_12 C 0.2405(5) 0.8981(2) 0.35542(16)
O2_12 O 0.1567(3) 0.89764(19) 0.35877(13)
O3_12 O 0.2854(4) 0.84670(19) 0.35017(15)
H14_12 H 0.129(3) 0.725(3) 0.1358(16)
N5_8 N 0.1197(3) 0.7976(2) 0.42814(14)
O7_8 O 0.1499(3) 0.70957(17) 0.35336(12)
C9_12 C 0.1157(7) 0.6495(4) 0.9957(2)
C10_12 C 0.1131(6) 0.6485(3) 0.9512(2)
H7_12 H 0.1064 0.6074 0.9375
N4_8 N 0.1197(3) 0.7024(2) 0.92814(14)
C11_12 C 0.1275(6) 0.7603(3) 0.9492(2)
H8_12 H 0.1323 0.7996 0.9332
C12_12 C 0.1287(6) 0.7654(3) 0.9931(2)
O6_8 O 0.9831(3) 0.8342(2) 0.36323(14)
C13_13 C 0.6367(3) 0.0917(2) 0.85958(15)
C14_13 C 0.7284(3) 0.0856(2) 0.8613(2)
H10_13 H 0.7634 0.124 0.8629
C15_13 C 0.7678(4) 0.0232(3) 0.8607(2)
H11_13 H 0.8291 0.0195 0.8621
C18_13 C 0.5854(3) 0.0349(2) 0.85907(16)
H13_13 H 0.5241 0.0386 0.8593
C20_13 C 0.5972(3) 0.1605(3) 0.85854(14)
N1_13 N 0.9006(3) 0.80670(19) 0.78716(13)
C1_13 C 0.8665(4) 0.7588(3) 0.76272(17)
H1_13 H 0.839 0.7227 0.7762
C2_13 C 0.8693(4) 0.7591(3) 0.71846(18)
H2_13 H 0.8441 0.7241 0.7029
C3_13 C 0.9098(3) 0.8116(2) 0.69775(16)
C4_13 C 0.9441(4) 0.8623(3) 0.72283(18)
H3_13 H 0.971 0.8992 0.7101
C5_13 C 0.9384(4) 0.8584(3) 0.76679(18)
H4_13 H 0.962 0.8933 0.783
C6_13 C 0.9190(3) 0.8176(3) 0.64980(16)
O1_13 O 0.9514(3) 0.8674(2) 0.63362(12)
N2_13 N 0.8895(3) 0.7645(2) 0.62744(14)
N3_13 N 0.8917(3) 0.7674(2) 0.58330(14)
C7_13 C 0.8780(4) 0.7121(3) 0.56424(18)
H5_13 H 0.8674 0.6733 0.58
C8_13 C 0.8788(4) 0.7091(3) 0.51764(17)
C9_13 C 0.8843(7) 0.6495(4) 0.4957(2)
H6_13 H 0.8863 0.6093 0.5108
C10_13 C 0.8869(6) 0.6485(3) 0.4512(2)
H7_13 H 0.8936 0.6074 0.4375
C11_13 C 0.8725(6) 0.7603(3) 0.4492(2)
H8_13 H 0.8677 0.7996 0.4332
C12_13 C 0.8713(6) 0.7654(3) 0.4931(2)
H9_13 H 0.8653 0.8073 0.506
C16_13 C 0.7158(4) 0.9661(2) 0.85806(17)
C17_13 C 0.6247(3) 0.9718(2) 0.85816(17)
H12_13 H 0.5897 0.9334 0.8576
C19_13 C 0.7595(5) 0.8981(2) 0.85542(16)
O2_13 O 0.8433(3) 0.89764(19) 0.85877(13)
O3_13 O 0.7146(4) 0.84670(19) 0.85017(15)
H14_13 H 0.871(3) 0.725(3) 0.6358(16)
N1_14 N 0.5994(3) 0.19330(19) 0.28716(13)
C1_14 C 0.6335(4) 0.2412(3) 0.26272(17)
H1_14 H 0.661 0.2773 0.2762
C2_14 C 0.6307(4) 0.2409(3) 0.21846(18)
H2_14 H 0.6559 0.2759 0.2029
C3_14 C 0.5902(3) 0.1884(2) 0.19775(16)
C4_14 C 0.5559(4) 0.1377(3) 0.22283(18)
H3_14 H 0.529 0.1008 0.2101
C5_14 C 0.5616(4) 0.1416(3) 0.26679(18)
H4_14 H 0.538 0.1067 0.283
C6_14 C 0.5810(3) 0.1824(3) 0.14980(16)
O1_14 O 0.5486(3) 0.1326(2) 0.13362(12)
N2_14 N 0.6105(3) 0.2355(2) 0.12744(14)
N3_14 N 0.6083(3) 0.2326(2) 0.08330(14)
C7_14 C 0.6220(4) 0.2879(3) 0.06424(18)
H5_14 H 0.6326 0.3267 0.08
C8_14 C 0.6212(4) 0.2909(3) 0.01764(17)
H6_14 H 0.6137 0.3907 0.0108
H9_14 H 0.6347 0.1927 0.006
C16_14 C 0.7842(4) 0.0339(2) 0.35806(17)
C17_14 C 0.8753(3) 0.0282(2) 0.35816(17)
H12_14 H 0.9103 0.0666 0.3576
C19_14 C 0.7405(5) 0.1019(2) 0.35542(16)
O2_14 O 0.6567(3) 0.10236(19) 0.35877(13)
O3_14 O 0.7854(4) 0.15330(19) 0.35017(15)
H14_14 H 0.629(3) 0.275(3) 0.1358(16)
C9_14 C 0.6157(7) 0.3505(4) 0.9957(2)
C10_14 C 0.6131(6) 0.3515(3) 0.9512(2)
H7_14 H 0.6064 0.3926 0.9375
C11_14 C 0.6275(6) 0.2397(3) 0.9492(2)
H8_14 H 0.6323 0.2004 0.9332
C12_14 C 0.6287(6) 0.2346(3) 0.9931(2)
C13_14 C 0.8633(3) 0.9083(2) 0.35958(15)
C14_14 C 0.7716(3) 0.9144(2) 0.3613(2)
H10_14 H 0.7366 0.876 0.3629
C15_14 C 0.7322(4) 0.9768(3) 0.3607(2)
H11_14 H 0.6709 0.9805 0.3621
C18_14 C 0.9146(3) 0.9651(2) 0.35907(16)
H13_14 H 0.9759 0.9614 0.3593
C20_14 C 0.9028(3) 0.8395(3) 0.35854(14)
N1_15 N 0.4006(3) 0.30670(19) 0.28716(13)
C1_15 C 0.3665(4) 0.2588(3) 0.26272(17)
H1_15 H 0.339 0.2227 0.2762
C2_15 C 0.3693(4) 0.2591(3) 0.21846(18)
H2_15 H 0.3441 0.2241 0.2029
C3_15 C 0.4098(3) 0.3116(2) 0.19775(16)
C4_15 C 0.4441(4) 0.3623(3) 0.22283(18)
H3_15 H 0.471 0.3992 0.2101
C5_15 C 0.4384(4) 0.3584(3) 0.26679(18)
H4_15 H 0.462 0.3933 0.283
C6_15 C 0.4190(3) 0.3176(3) 0.14980(16)
O1_15 O 0.4514(3) 0.3674(2) 0.13362(12)
N2_15 N 0.3895(3) 0.2645(2) 0.12744(14)
N3_15 N 0.3917(3) 0.2674(2) 0.08330(14)
C7_15 C 0.3780(4) 0.2121(3) 0.06424(18)
H5_15 H 0.3674 0.1733 0.08
C8_15 C 0.3788(4) 0.2091(3) 0.01764(17)
H6_15 H 0.3863 0.1093 0.0108
H9_15 H 0.3653 0.3073 0.006
C13_15 C 0.1367(3) 0.5917(2) 0.35958(15)
C14_15 C 0.2284(3) 0.5856(2) 0.3613(2)
H10_15 H 0.2634 0.624 0.3629
C15_15 C 0.2678(4) 0.5232(3) 0.3607(2)
H11_15 H 0.3291 0.5195 0.3621
C16_15 C 0.2158(4) 0.4661(2) 0.35806(17)
C17_15 C 0.1247(3) 0.4718(2) 0.35816(17)
H12_15 H 0.0897 0.4334 0.3576
C18_15 C 0.0854(3) 0.5349(2) 0.35907(16)
H13_15 H 0.0241 0.5386 0.3593
C19_15 C 0.2595(5) 0.3981(2) 0.35542(16)
O2_15 O 0.3433(3) 0.39764(19) 0.35877(13)
O3_15 O 0.2146(4) 0.34670(19) 0.35017(15)
C20_15 C 0.0972(3) 0.6605(3) 0.35854(14)
H14_15 H 0.371(3) 0.225(3) 0.1358(16)
C9_15 C 0.3843(7) 0.1495(4) 0.9957(2)
C10_15 C 0.3869(6) 0.1485(3) 0.9512(2)
H7_15 H 0.3936 0.1074 0.9375
C11_15 C 0.3725(6) 0.2603(3) 0.9492(2)
H8_15 H 0.3677 0.2996 0.9332
C12_15 C 0.3713(6) 0.2654(3) 0.9931(2)
N1_16 N 0.0994(3) 0.69330(19) 0.78716(13)
C1_16 C 0.1335(4) 0.7412(3) 0.76272(17)
H1_16 H 0.161 0.7773 0.7762
C2_16 C 0.1307(4) 0.7409(3) 0.71846(18)
H2_16 H 0.1559 0.7759 0.7029
C3_16 C 0.0902(3) 0.6884(2) 0.69775(16)
C4_16 C 0.0559(4) 0.6377(3) 0.72283(18)
H3_16 H 0.029 0.6008 0.7101
C5_16 C 0.0616(4) 0.6416(3) 0.76679(18)
H4_16 H 0.038 0.6067 0.783
C6_16 C 0.0810(3) 0.6824(3) 0.64980(16)
O1_16 O 0.0486(3) 0.6326(2) 0.63362(12)
N2_16 N 0.1105(3) 0.7355(2) 0.62744(14)
N3_16 N 0.1083(3) 0.7326(2) 0.58330(14)
C7_16 C 0.1220(4) 0.7879(3) 0.56424(18)
H5_16 H 0.1326 0.8267 0.58
C8_16 C 0.1212(4) 0.7909(3) 0.51764(17)
C9_16 C 0.1157(7) 0.8505(4) 0.4957(2)
H6_16 H 0.1137 0.8907 0.5108
C10_16 C 0.1131(6) 0.8515(3) 0.4512(2)
H7_16 H 0.1064 0.8926 0.4375
C11_16 C 0.1275(6) 0.7397(3) 0.4492(2)
H8_16 H 0.1323 0.7004 0.4332
C12_16 C 0.1287(6) 0.7346(3) 0.4931(2)
H9_16 H 0.1347 0.6927 0.506
C13_16 C 0.3633(3) 0.4083(2) 0.85958(15)
C14_16 C 0.2716(3) 0.4144(2) 0.8613(2)
H10_16 H 0.2366 0.376 0.8629
C15_16 C 0.2322(4) 0.4768(3) 0.8607(2)
H11_16 H 0.1709 0.4805 0.8621
C16_16 C 0.2842(4) 0.5339(2) 0.85806(17)
C17_16 C 0.3753(3) 0.5282(2) 0.85816(17)
H12_16 H 0.4103 0.5666 0.8576
C18_16 C 0.4146(3) 0.4651(2) 0.85907(16)
H13_16 H 0.4759 0.4614 0.8593
C19_16 C 0.2405(5) 0.6019(2) 0.85542(16)
O2_16 O 0.1567(3) 0.60236(19) 0.85877(13)
O3_16 O 0.2854(4) 0.65330(19) 0.85017(15)
C20_16 C 0.4028(3) 0.3395(3) 0.85854(14)
H14_16 H 0.129(3) 0.775(3) 0.6358(16)
loop_
_geom_bond_atom_site_label_1
_geom_bond_atom_site_label_2
_geom_bond_site_symmetry_1
_geom_bond_site_symmetry_2
Zn1 N1 1_555 1_555
N1 C1 1_555 1_555
C1 H1 1_555 1_555
C2 C1 1_555 1_555
H2 C2 1_555 1_555
C3 C2 1_555 1_555
C4 C3 1_555 1_555
H3 C4 1_555 1_555
C5 N1 1_555 1_555
H4 C5 1_555 1_555
C6 C3 1_555 1_555
O1 C6 1_555 1_555
N2 C6 1_555 1_555
N3 N2 1_555 1_555
C7 N3 1_555 1_555
H5 C7 1_555 1_555
C8 C7 1_555 1_555
C9 C8 1_555 1_555
H6 C9 1_555 1_555
C10 C9 1_555 1_555
H7 C10 1_555 1_555
N4 C10 1_555 1_555
C11 N4 1_555 1_555
H8 C11 1_555 1_555
C12 C8 1_555 1_555
H9 C12 1_555 1_555
C17 C16 1_555 1_555
H12 C17 1_555 1_555
C19 C16 1_555 1_555
O2 Zn1 1_555 1_555
O3 C19 1_555 1_555
H14 N2 1_555 1_555
Zn2 N4 1_555 1_555
N5 Zn1 1_555 1_555
O7 Zn1 1_555 1_555
C4 C5 1_555 1_555
C11 C12 1_555 1_555
C19 O2 1_555 1_555
C13 C14 1_555 1_555
C14 H10 1_555 1_555
C15 C14 1_555 1_555
H11 C15 1_555 1_555
C18 C13 1_555 1_555
H13 C18 1_555 1_555
C20 C13 1_555 1_555
O4 C20 1_555 1_555
O5 C20 1_555 1_555
Zn3 O5 1_555 1_555
Zn4 O4 1_555 1_555
C13_2 C14_2 1_555 1_555
C14_2 H10_2 1_555 1_555
C15_2 C14_2 1_555 1_555
H11_2 C15_2 1_555 1_555
C18_2 C13_2 1_555 1_555
H13_2 C18_2 1_555 1_555
C20_2 C13_2 1_555 1_555
O4_2 C20_2 1_555 1_555
O5_2 C20_2 1_555 1_555
Zn2 O5_2 1_555 1_555
C10_2 C9_2 1_555 1_555
H7_2 C10_2 1_555 1_555
N4_2 C10_2 1_555 1_555
C11_2 N4_2 1_555 1_555
H8_2 C11_2 1_555 1_555
Zn3 N4_2 1_555 1_555
C11_2 C12_2 1_555 1_555
Zn1_2 N1_2 1_555 1_555
N1_2 C1_2 1_555 1_555
C1_2 H1_2 1_555 1_555
C2_2 C1_2 1_555 1_555
H2_2 C2_2 1_555 1_555
C3_2 C2_2 1_555 1_555
C4_2 C3_2 1_555 1_555
H3_2 C4_2 1_555 1_555
C5_2 N1_2 1_555 1_555
H4_2 C5_2 1_555 1_555
C6_2 C3_2 1_555 1_555
O1_2 C6_2 1_555 1_555
N2_2 C6_2 1_555 1_555
N3_2 N2_2 1_555 1_555
C7_2 N3_2 1_555 1_555
H5_2 C7_2 1_555 1_555
C8_2 C7_2 1_555 1_555
C17_2 C16_2 1_555 1_555
H12_2 C17_2 1_555 1_555
C19_2 C16_2 1_555 1_555
O2_2 Zn1_2 1_555 1_555
O3_2 C19_2 1_555 1_555
H14_2 N2_2 1_555 1_555
N5_2 Zn1_2 1_555 1_555
O6_2 Zn1_2 1_555 1_555
O7_2 Zn1_2 1_555 1_555
C4_2 C5_2 1_555 1_555
C19_2 O2_2 1_555 1_555
C10_3 C9_3 1_555 1_555
H7_3 C10_3 1_555 1_555
N4_3 C10_3 1_555 1_555
C11_3 N4_3 1_555 1_555
H8_3 C11_3 1_555 1_555
Zn4 N4_3 1_555 1_555
C11_3 C12_3 1_555 1_555
Zn1_3 N1_3 1_555 1_555
N1_3 C1_3 1_555 1_555
C1_3 H1_3 1_555 1_555
C2_3 C1_3 1_555 1_555
H2_3 C2_3 1_555 1_555
C3_3 C2_3 1_555 1_555
C4_3 C3_3 1_555 1_555
H3_3 C4_3 1_555 1_555
C5_3 N1_3 1_555 1_555
H4_3 C5_3 1_555 1_555
C6_3 C3_3 1_555 1_555
O1_3 C6_3 1_555 1_555
N2_3 C6_3 1_555 1_555
N3_3 N2_3 1_555 1_555
C7_3 N3_3 1_555 1_555
H5_3 C7_3 1_555 1_555
C8_3 C7_3 1_555 1_555
C13_3 C14_3 1_555 1_555
C14_3 H10_3 1_555 1_555
C15_3 C14_3 1_555 1_555
H11_3 C15_3 1_555 1_555
C16_3 C15_3 1_555 1_555
C17_3 C16_3 1_555 1_555
H12_3 C17_3 1_555 1_555
C18_3 C13_3 1_555 1_555
H13_3 C18_3 1_555 1_555
C19_3 C16_3 1_555 1_555
O2_3 Zn1_3 1_555 1_555
O3_3 C19_3 1_555 1_555
C20_3 C13_3 1_555 1_555
O4_3 C20_3 1_555 1_555
O5_3 C20_3 1_555 1_555
H14_3 N2_3 1_555 1_555
Zn4_2 O5_3 1_555 1_555
N5_3 Zn1_3 1_555 1_555
O6_3 Zn1_3 1_555 1_555
O7_3 Zn1_3 1_555 1_555
C4_3 C5_3 1_555 1_555
C17_3 C18_3 1_555 1_555
C19_3 O2_3 1_555 1_555
Zn1_4 N1_4 1_555 1_555
N1_4 C1_4 1_555 1_555
C1_4 H1_4 1_555 1_555
C2_4 C1_4 1_555 1_555
H2_4 C2_4 1_555 1_555
C3_4 C2_4 1_555 1_555
C4_4 C3_4 1_555 1_555
H3_4 C4_4 1_555 1_555
C5_4 N1_4 1_555 1_555
H4_4 C5_4 1_555 1_555
C6_4 C3_4 1_555 1_555
O1_4 C6_4 1_555 1_555
N2_4 C6_4 1_555 1_555
N3_4 N2_4 1_555 1_555
C7_4 N3_4 1_555 1_555
H5_4 C7_4 1_555 1_555
C8_4 C7_4 1_555 1_555
C9_4 C8_4 1_555 1_555
H6_4 C9_4 1_555 1_555
C10_4 C9_4 1_555 1_555
H7_4 C10_4 1_555 1_555
N4_4 C10_4 1_555 1_555
C11_4 N4_4 1_555 1_555
H8_4 C11_4 1_555 1_555
C12_4 C8_4 1_555 1_555
H9_4 C12_4 1_555 1_555
C13_4 C14_4 1_555 1_555
C14_4 H10_4 1_555 1_555
C15_4 C14_4 1_555 1_555
H11_4 C15_4 1_555 1_555
C16_4 C15_4 1_555 1_555
C17_4 C16_4 1_555 1_555
H12_4 C17_4 1_555 1_555
C18_4 C13_4 1_555 1_555
H13_4 C18_4 1_555 1_555
C19_4 C16_4 1_555 1_555
O2_4 Zn1_4 1_555 1_555
O3_4 C19_4 1_555 1_555
C20_4 C13_4 1_555 1_555
O4_4 C20_4 1_555 1_555
O5_4 C20_4 1_555 1_555
H14_4 N2_4 1_555 1_555
Zn4_2 N4_4 1_555 1_555
Zn4 O5_4 1_555 1_555
Zn3 O4_4 1_555 1_555
N5_4 Zn1_4 1_555 1_555
O7_4 Zn1_4 1_555 1_555
C4_4 C5_4 1_555 1_555
C11_4 C12_4 1_555 1_555
C17_4 C18_4 1_555 1_555
C19_4 O2_4 1_555 1_555
C10_5 C9_5 1_555 1_555
H7_5 C10_5 1_555 1_555
N5 C10_5 1_555 1_555
C11_5 N5 1_555 1_555
H8_5 C11_5 1_555 1_555
C11_5 C12_5 1_555 1_555
Zn2 N1_5 1_555 1_555
N1_5 C1_5 1_555 1_555
C1_5 H1_5 1_555 1_555
C2_5 C1_5 1_555 1_555
H2_5 C2_5 1_555 1_555
C3_5 C2_5 1_555 1_555
C4_5 C3_5 1_555 1_555
H3_5 C4_5 1_555 1_555
C5_5 N1_5 1_555 1_555
H4_5 C5_5 1_555 1_555
C6_5 C3_5 1_555 1_555
O1_5 C6_5 1_555 1_555
N2_5 C6_5 1_555 1_555
N3_5 N2_5 1_555 1_555
C7_5 N3_5 1_555 1_555
H5_5 C7_5 1_555 1_555
C8_5 C7_5 1_555 1_555
C13_5 C14_5 1_555 1_555
C14_5 H10_5 1_555 1_555
C15_5 C14_5 1_555 1_555
H11_5 C15_5 1_555 1_555
C16_5 C15_5 1_555 1_555
C17_5 C16_5 1_555 1_555
H12_5 C17_5 1_555 1_555
C18_5 C13_5 1_555 1_555
H13_5 C18_5 1_555 1_555
C19_5 C16_5 1_555 1_555
O2_5 Zn2 1_555 1_555
O3_5 C19_5 1_555 1_555
C20_5 C13_5 1_555 1_555
O6_3 C20_5 1_555 1_555
O7_2 C20_5 1_555 1_555
H14_5 N2_5 1_555 1_555
C4_5 C5_5 1_555 1_555
C17_5 C18_5 1_555 1_555
C19_5 O2_5 1_555 1_555
Zn3 N1_6 1_555 1_555
N1_6 C1_6 1_555 1_555
C1_6 H1_6 1_555 1_555
C2_6 C1_6 1_555 1_555
H2_6 C2_6 1_555 1_555
C3_6 C2_6 1_555 1_555
C4_6 C3_6 1_555 1_555
H3_6 C4_6 1_555 1_555
C5_6 N1_6 1_555 1_555
H4_6 C5_6 1_555 1_555
C6_6 C3_6 1_555 1_555
O1_6 C6_6 1_555 1_555
N2_6 C6_6 1_555 1_555
N3_6 N2_6 1_555 1_555
C7_6 N3_6 1_555 1_555
H5_6 C7_6 1_555 1_555
C8_6 C7_6 1_555 1_555
C9_6 C8_6 1_555 1_555
H6_6 C9_6 1_555 1_555
C10_6 C9_6 1_555 1_555
H7_6 C10_6 1_555 1_555
N5_2 C10_6 1_555 1_555
C11_6 N5_2 1_555 1_555
H8_6 C11_6 1_555 1_555
C12_6 C8_6 1_555 1_555
H9_6 C12_6 1_555 1_555
C13_6 C14_6 1_555 1_555
C14_6 H10_6 1_555 1_555
C15_6 C14_6 1_555 1_555
H11_6 C15_6 1_555 1_555
C16_6 C15_6 1_555 1_555
C17_6 C16_6 1_555 1_555
H12_6 C17_6 1_555 1_555
C18_6 C13_6 1_555 1_555
H13_6 C18_6 1_555 1_555
C19_6 C16_6 1_555 1_555
O2_6 Zn3 1_555 1_555
O3_6 C19_6 1_555 1_555
C20_6 C13_6 1_555 1_555
O6_4 C20_6 1_555 1_555
O7 C20_6 1_555 1_555
H14_6 N2_6 1_555 1_555
C4_6 C5_6 1_555 1_555
C11_6 C12_6 1_555 1_555
C17_6 C18_6 1_555 1_555
C19_6 O2_6 1_555 1_555
C13_7 C14_7 1_555 1_555
C14_7 H10_7 1_555 1_555
C15_7 C14_7 1_555 1_555
H11_7 C15_7 1_555 1_555
C18_7 C13_7 1_555 1_555
H13_7 C18_7 1_555 1_555
C20_7 C13_7 1_555 1_555
O6 C20_7 1_555 1_555
O7_4 C20_7 1_555 1_555
Zn4 N1_7 1_555 1_555
N1_7 C1_7 1_555 1_555
C1_7 H1_7 1_555 1_555
C2_7 C1_7 1_555 1_555
H2_7 C2_7 1_555 1_555
C3_7 C2_7 1_555 1_555
C4_7 C3_7 1_555 1_555
H3_7 C4_7 1_555 1_555
C5_7 N1_7 1_555 1_555
H4_7 C5_7 1_555 1_555
C6_7 C3_7 1_555 1_555
O1_7 C6_7 1_555 1_555
N2_7 C6_7 1_555 1_555
N3_7 N2_7 1_555 1_555
C7_7 N3_7 1_555 1_555
H5_7 C7_7 1_555 1_555
C8_7 C7_7 1_555 1_555
C9_7 C8_7 1_555 1_555
H6_7 C9_7 1_555 1_555
C10_7 C9_7 1_555 1_555
H7_7 C10_7 1_555 1_555
N5_3 C10_7 1_555 1_555
C11_7 N5_3 1_555 1_555
H8_7 C11_7 1_555 1_555
C12_7 C8_7 1_555 1_555
H9_7 C12_7 1_555 1_555
C17_7 C16_7 1_555 1_555
H12_7 C17_7 1_555 1_555
C19_7 C16_7 1_555 1_555
O2_7 Zn4 1_555 1_555
O3_7 C19_7 1_555 1_555
H14_7 N2_7 1_555 1_555
C4_7 C5_7 1_555 1_555
C11_7 C12_7 1_555 1_555
C19_7 O2_7 1_555 1_555
C10_8 C9_8 1_555 1_555
H7_8 C10_8 1_555 1_555
N5_4 C10_8 1_555 1_555
C11_8 N5_4 1_555 1_555
H8_8 C11_8 1_555 1_555
C11_8 C12_8 1_555 1_555
Zn4_2 N1_8 1_555 1_555
N1_8 C1_8 1_555 1_555
C1_8 H1_8 1_555 1_555
C2_8 C1_8 1_555 1_555
H2_8 C2_8 1_555 1_555
C3_8 C2_8 1_555 1_555
C4_8 C3_8 1_555 1_555
H3_8 C4_8 1_555 1_555
C5_8 N1_8 1_555 1_555
H4_8 C5_8 1_555 1_555
C6_8 C3_8 1_555 1_555
O1_8 C6_8 1_555 1_555
N2_8 C6_8 1_555 1_555
N3_8 N2_8 1_555 1_555
C7_8 N3_8 1_555 1_555
H5_8 C7_8 1_555 1_555
C8_8 C7_8 1_555 1_555
C17_8 C16_8 1_555 1_555
H12_8 C17_8 1_555 1_555
C19_8 C16_8 1_555 1_555
O2_8 Zn4_2 1_555 1_555
O3_8 C19_8 1_555 1_555
H14_8 N2_8 1_555 1_555
C4_8 C5_8 1_555 1_555
C19_8 O2_8 1_555 1_555
C13_8 C14_8 1_555 1_555
C14_8 H10_8 1_555 1_555
C15_8 C14_8 1_555 1_555
H11_8 C15_8 1_555 1_555
C18_8 C13_8 1_555 1_555
H13_8 C18_8 1_555 1_555
C20_8 C13_8 1_555 1_555
O6_2 C20_8 1_555 1_555
O7_3 C20_8 1_555 1_555
Zn1_5 N1_9 1_555 1_555
N1_9 C1_9 1_555 1_555
C1_9 H1_9 1_555 1_555
C2_9 C1_9 1_555 1_555
H2_9 C2_9 1_555 1_555
C3_9 C2_9 1_555 1_555
C4_9 C3_9 1_555 1_555
H3_9 C4_9 1_555 1_555
C5_9 N1_9 1_555 1_555
H4_9 C5_9 1_555 1_555
C6_9 C3_9 1_555 1_555
O1_9 C6_9 1_555 1_555
N2_9 C6_9 1_555 1_555
N3_9 N2_9 1_555 1_555
C7_9 N3_9 1_555 1_555
H5_9 C7_9 1_555 1_555
C8_9 C7_9 1_555 1_555
C13_9 C14_9 1_555 1_555
C14_9 H10_9 1_555 1_555
C15_9 C14_9 1_555 1_555
H11_9 C15_9 1_555 1_555
C16_9 C15_9 1_555 1_555
C17_9 C16_9 1_555 1_555
H12_9 C17_9 1_555 1_555
C18_9 C13_9 1_555 1_555
H13_9 C18_9 1_555 1_555
C19_9 C16_9 1_555 1_555
O2_9 Zn1_5 1_555 1_555
O3_9 C19_9 1_555 1_555
C20_9 C13_9 1_555 1_555
O4_5 C20_9 1_555 1_555
O5_5 C20_9 1_555 1_555
H14_9 N2_9 1_555 1_555
Zn3_2 O5_5 1_555 1_555
Zn4_3 O4_5 1_555 1_555
N5_5 Zn1_5 1_555 1_555
O7_5 Zn1_5 1_555 1_555
C4_9 C5_9 1_555 1_555
C17_9 C18_9 1_555 1_555
C19_9 O2_9 1_555 1_555
C10_9 C9_9 1_555 1_555
H7_9 C10_9 1_555 1_555
N4_5 C10_9 1_555 1_555
C11_9 N4_5 1_555 1_555
H8_9 C11_9 1_555 1_555
Zn2_2 N4_5 1_555 1_555
C11_9 C12_9 1_555 1_555
Zn1_6 N1_10 1_555 1_555
N1_10 C1_10 1_555 1_555
C1_10 H1_10 1_555 1_555
C2_10 C1_10 1_555 1_555
H2_10 C2_10 1_555 1_555
C3_10 C2_10 1_555 1_555
C4_10 C3_10 1_555 1_555
H3_10 C4_10 1_555 1_555
C5_10 N1_10 1_555 1_555
H4_10 C5_10 1_555 1_555
C6_10 C3_10 1_555 1_555
O1_10 C6_10 1_555 1_555
N2_10 C6_10 1_555 1_555
N3_10 N2_10 1_555 1_555
C7_10 N3_10 1_555 1_555
H5_10 C7_10 1_555 1_555
C8_10 C7_10 1_555 1_555
C9_10 C8_10 1_555 1_555
H6_10 C9_10 1_555 1_555
C10_10 C9_10 1_555 1_555
H7_10 C10_10 1_555 1_555
N4_6 C10_10 1_555 1_555
C11_10 N4_6 1_555 1_555
H8_10 C11_10 1_555 1_555
C12_10 C8_10 1_555 1_555
H9_10 C12_10 1_555 1_555
C13_10 C14_10 1_555 1_555
C14_10 H10_10 1_555 1_555
C15_10 C14_10 1_555 1_555
H11_10 C15_10 1_555 1_555
C16_10 C15_10 1_555 1_555
C17_10 C16_10 1_555 1_555
H12_10 C17_10 1_555 1_555
C18_10 C13_10 1_555 1_555
H13_10 C18_10 1_555 1_555
C19_10 C16_10 1_555 1_555
O2_10 Zn1_6 1_555 1_555
O3_10 C19_10 1_555 1_555
C20_10 C13_10 1_555 1_555
O4_6 C20_10 1_555 1_555
O5_6 C20_10 1_555 1_555
H14_10 N2_10 1_555 1_555
Zn3_2 N4_6 1_555 1_555
Zn2_2 O5_6 1_555 1_555
N5_6 Zn1_6 1_555 1_555
O6_6 Zn1_6 1_555 1_555
O7_6 Zn1_6 1_555 1_555
C4_10 C5_10 1_555 1_555
C11_10 C12_10 1_555 1_555
C17_10 C18_10 1_555 1_555
C19_10 O2_10 1_555 1_555
Zn1_7 N1_11 1_555 1_555
N1_11 C1_11 1_555 1_555
C1_11 H1_11 1_555 1_555
C2_11 C1_11 1_555 1_555
H2_11 C2_11 1_555 1_555
C3_11 C2_11 1_555 1_555
C4_11 C3_11 1_555 1_555
H3_11 C4_11 1_555 1_555
C5_11 N1_11 1_555 1_555
H4_11 C5_11 1_555 1_555
C6_11 C3_11 1_555 1_555
O1_11 C6_11 1_555 1_555
N2_11 C6_11 1_555 1_555
N3_11 N2_11 1_555 1_555
C7_11 N3_11 1_555 1_555
H5_11 C7_11 1_555 1_555
C8_11 C7_11 1_555 1_555
C9_11 C8_11 1_555 1_555
H6_11 C9_11 1_555 1_555
C10_11 C9_11 1_555 1_555
H7_11 C10_11 1_555 1_555
N4_7 C10_11 1_555 1_555
C11_11 N4_7 1_555 1_555
H8_11 C11_11 1_555 1_555
C12_11 C8_11 1_555 1_555
H9_11 C12_11 1_555 1_555
C17_11 C16_11 1_555 1_555
H12_11 C17_11 1_555 1_555
C19_11 C16_11 1_555 1_555
O2_11 Zn1_7 1_555 1_555
O3_11 C19_11 1_555 1_555
H14_11 N2_11 1_555 1_555
Zn4_3 N4_7 1_555 1_555
N5_7 Zn1_7 1_555 1_555
O6_7 Zn1_7 1_555 1_555
O7_7 Zn1_7 1_555 1_555
C4_11 C5_11 1_555 1_555
C11_11 C12_11 1_555 1_555
C19_11 O2_11 1_555 1_555
C13_11 C14_11 1_555 1_555
C14_11 H10_11 1_555 1_555
C15_11 C14_11 1_555 1_555
H11_11 C15_11 1_555 1_555
C18_11 C13_11 1_555 1_555
H13_11 C18_11 1_555 1_555
C20_11 C13_11 1_555 1_555
O4_7 C20_11 1_555 1_555
O5_7 C20_11 1_555 1_555
Zn4_4 O5_7 1_555 1_555
C13_12 C14_12 1_555 1_555
C14_12 H10_12 1_555 1_555
C15_12 C14_12 1_555 1_555
H11_12 C15_12 1_555 1_555
C18_12 C13_12 1_555 1_555
H13_12 C18_12 1_555 1_555
C20_12 C13_12 1_555 1_555
O4_8 C20_12 1_555 1_555
O5_8 C20_12 1_555 1_555
Zn4_3 O5_8 1_555 1_555
Zn3_2 O4_8 1_555 1_555
Zn1_8 N1_12 1_555 1_555
N1_12 C1_12 1_555 1_555
C1_12 H1_12 1_555 1_555
C2_12 C1_12 1_555 1_555
H2_12 C2_12 1_555 1_555
C3_12 C2_12 1_555 1_555
C4_12 C3_12 1_555 1_555
H3_12 C4_12 1_555 1_555
C5_12 N1_12 1_555 1_555
H4_12 C5_12 1_555 1_555
C6_12 C3_12 1_555 1_555
O1_12 C6_12 1_555 1_555
N2_12 C6_12 1_555 1_555
N3_12 N2_12 1_555 1_555
C7_12 N3_12 1_555 1_555
H5_12 C7_12 1_555 1_555
C8_12 C7_12 1_555 1_555
C17_12 C16_12 1_555 1_555
H12_12 C17_12 1_555 1_555
C19_12 C16_12 1_555 1_555
O2_12 Zn1_8 1_555 1_555
O3_12 C19_12 1_555 1_555
H14_12 N2_12 1_555 1_555
N5_8 Zn1_8 1_555 1_555
O7_8 Zn1_8 1_555 1_555
C4_12 C5_12 1_555 1_555
C19_12 O2_12 1_555 1_555
C10_12 C9_12 1_555 1_555
H7_12 C10_12 1_555 1_555
N4_8 C10_12 1_555 1_555
C11_12 N4_8 1_555 1_555
H8_12 C11_12 1_555 1_555
Zn4_4 N4_8 1_555 1_555
C11_12 C12_12 1_555 1_555
C13_13 C14_13 1_555 1_555
C14_13 H10_13 1_555 1_555
C15_13 C14_13 1_555 1_555
H11_13 C15_13 1_555 1_555
C18_13 C13_13 1_555 1_555
H13_13 C18_13 1_555 1_555
C20_13 C13_13 1_555 1_555
O6_7 C20_13 1_555 1_555
O7_6 C20_13 1_555 1_555
Zn2_2 N1_13 1_555 1_555
N1_13 C1_13 1_555 1_555
C1_13 H1_13 1_555 1_555
C2_13 C1_13 1_555 1_555
H2_13 C2_13 1_555 1_555
C3_13 C2_13 1_555 1_555
C4_13 C3_13 1_555 1_555
H3_13 C4_13 1_555 1_555
C5_13 N1_13 1_555 1_555
H4_13 C5_13 1_555 1_555
C6_13 C3_13 1_555 1_555
O1_13 C6_13 1_555 1_555
N2_13 C6_13 1_555 1_555
N3_13 N2_13 1_555 1_555
C7_13 N3_13 1_555 1_555
H5_13 C7_13 1_555 1_555
C8_13 C7_13 1_555 1_555
C9_13 C8_13 1_555 1_555
H6_13 C9_13 1_555 1_555
C10_13 C9_13 1_555 1_555
H7_13 C10_13 1_555 1_555
N5_5 C10_13 1_555 1_555
C11_13 N5_5 1_555 1_555
H8_13 C11_13 1_555 1_555
C12_13 C8_13 1_555 1_555
H9_13 C12_13 1_555 1_555
C17_13 C16_13 1_555 1_555
H12_13 C17_13 1_555 1_555
C19_13 C16_13 1_555 1_555
O2_13 Zn2_2 1_555 1_555
O3_13 C19_13 1_555 1_555
H14_13 N2_13 1_555 1_555
C4_13 C5_13 1_555 1_555
C11_13 C12_13 1_555 1_555
C19_13 O2_13 1_555 1_555
Zn3_2 N1_14 1_555 1_555
N1_14 C1_14 1_555 1_555
C1_14 H1_14 1_555 1_555
C2_14 C1_14 1_555 1_555
H2_14 C2_14 1_555 1_555
C3_14 C2_14 1_555 1_555
C4_14 C3_14 1_555 1_555
H3_14 C4_14 1_555 1_555
C5_14 N1_14 1_555 1_555
H4_14 C5_14 1_555 1_555
C6_14 C3_14 1_555 1_555
O1_14 C6_14 1_555 1_555
N2_14 C6_14 1_555 1_555
N3_14 N2_14 1_555 1_555
C7_14 N3_14 1_555 1_555
H5_14 C7_14 1_555 1_555
C8_14 C7_14 1_555 1_555
C17_14 C16_14 1_555 1_555
H12_14 C17_14 1_555 1_555
C19_14 C16_14 1_555 1_555
O2_14 Zn3_2 1_555 1_555
O3_14 C19_14 1_555 1_555
H14_14 N2_14 1_555 1_555
C4_14 C5_14 1_555 1_555
C19_14 O2_14 1_555 1_555
C10_14 C9_14 1_555 1_555
H7_14 C10_14 1_555 1_555
N5_6 C10_14 1_555 1_555
C11_14 N5_6 1_555 1_555
H8_14 C11_14 1_555 1_555
C11_14 C12_14 1_555 1_555
C13_14 C14_14 1_555 1_555
C14_14 H10_14 1_555 1_555
C15_14 C14_14 1_555 1_555
H11_14 C15_14 1_555 1_555
C18_14 C13_14 1_555 1_555
H13_14 C18_14 1_555 1_555
C20_14 C13_14 1_555 1_555
O6_8 C20_14 1_555 1_555
O7_5 C20_14 1_555 1_555
Zn4_3 N1_15 1_555 1_555
N1_15 C1_15 1_555 1_555
C1_15 H1_15 1_555 1_555
C2_15 C1_15 1_555 1_555
H2_15 C2_15 1_555 1_555
C3_15 C2_15 1_555 1_555
C4_15 C3_15 1_555 1_555
H3_15 C4_15 1_555 1_555
C5_15 N1_15 1_555 1_555
H4_15 C5_15 1_555 1_555
C6_15 C3_15 1_555 1_555
O1_15 C6_15 1_555 1_555
N2_15 C6_15 1_555 1_555
N3_15 N2_15 1_555 1_555
C7_15 N3_15 1_555 1_555
H5_15 C7_15 1_555 1_555
C8_15 C7_15 1_555 1_555
C13_15 C14_15 1_555 1_555
C14_15 H10_15 1_555 1_555
C15_15 C14_15 1_555 1_555
H11_15 C15_15 1_555 1_555
C16_15 C15_15 1_555 1_555
C17_15 C16_15 1_555 1_555
H12_15 C17_15 1_555 1_555
C18_15 C13_15 1_555 1_555
H13_15 C18_15 1_555 1_555
C19_15 C16_15 1_555 1_555
O2_15 Zn4_3 1_555 1_555
O3_15 C19_15 1_555 1_555
C20_15 C13_15 1_555 1_555
O6_5 C20_15 1_555 1_555
O7_8 C20_15 1_555 1_555
H14_15 N2_15 1_555 1_555
C4_15 C5_15 1_555 1_555
C17_15 C18_15 1_555 1_555
C19_15 O2_15 1_555 1_555
C10_15 C9_15 1_555 1_555
H7_15 C10_15 1_555 1_555
N5_7 C10_15 1_555 1_555
C11_15 N5_7 1_555 1_555
H8_15 C11_15 1_555 1_555
C11_15 C12_15 1_555 1_555
Zn4_4 N1_16 1_555 1_555
N1_16 C1_16 1_555 1_555
C1_16 H1_16 1_555 1_555
C2_16 C1_16 1_555 1_555
H2_16 C2_16 1_555 1_555
C3_16 C2_16 1_555 1_555
C4_16 C3_16 1_555 1_555
H3_16 C4_16 1_555 1_555
C5_16 N1_16 1_555 1_555
H4_16 C5_16 1_555 1_555
C6_16 C3_16 1_555 1_555
O1_16 C6_16 1_555 1_555
N2_16 C6_16 1_555 1_555
N3_16 N2_16 1_555 1_555
C7_16 N3_16 1_555 1_555
H5_16 C7_16 1_555 1_555
C8_16 C7_16 1_555 1_555
C9_16 C8_16 1_555 1_555
H6_16 C9_16 1_555 1_555
C10_16 C9_16 1_555 1_555
H7_16 C10_16 1_555 1_555
N5_8 C10_16 1_555 1_555
C11_16 N5_8 1_555 1_555
H8_16 C11_16 1_555 1_555
C12_16 C8_16 1_555 1_555
H9_16 C12_16 1_555 1_555
C13_16 C14_16 1_555 1_555
C14_16 H10_16 1_555 1_555
C15_16 C14_16 1_555 1_555
H11_16 C15_16 1_555 1_555
C16_16 C15_16 1_555 1_555
C17_16 C16_16 1_555 1_555
H12_16 C17_16 1_555 1_555
C18_16 C13_16 1_555 1_555
H13_16 C18_16 1_555 1_555
C19_16 C16_16 1_555 1_555
O2_16 Zn4_4 1_555 1_555
O3_16 C19_16 1_555 1_555
C20_16 C13_16 1_555 1_555
O6_6 C20_16 1_555 1_555
O7_7 C20_16 1_555 1_555
H14_16 N2_16 1_555 1_555
C4_16 C5_16 1_555 1_555
C11_16 C12_16 1_555 1_555
C17_16 C18_16 1_555 1_555
C19_16 O2_16 1_555 1_555

#END
