
###############################################################################
#
# This file contains modified crystal structure data generated from the
# MOF subset of the Cambridge Structural Database (CSD) v543 
# hosted by the Cambridge Crystallographic Data Centre (CCDC).
#
# This work is licensed under the Creative Commons
# Attribution-NonCommercial-ShareAlike 4.0 International License.
# To view a copy of this license, visit
# http://creativecommons.org/licenses/by-nc-sa/4.0/
# or send a letter to
# Creative Commons, PO Box 1866, Mountain View, CA 94042, USA.
#
# CIF created using the CSD Python API on 29 September 2022
# The structure has been converted into the P1 space group
# The structure has a 3D framework
# The original CSD entry EWETUW is in the triclinic crystal system
# The framework has been calculated to contain at least 10.0% void space
# The void calculation uses a probe of radius 1.32A, grid spacing 0.4
#
###############################################################################

data_EWETUW
_chemical_formula_moiety         '(C48 H38 N4 O10 Tb2)n'
_symmetry_cell_setting           triclinic
_symmetry_space_group_name_H-M   'P 1'
_symmetry_Int_Tables_number      1
_space_group_name_Hall           'P 1'
loop_
_symmetry_equiv_pos_site_id
_symmetry_equiv_pos_as_xyz
1 x,y,z
_cell_length_a                   8.257(6)
_cell_length_b                   13.163(10)
_cell_length_c                   14.238(11)
_cell_angle_alpha                114.261(8)
_cell_angle_beta                 96.493(9)
_cell_angle_gamma                101.699(9)
_cell_volume                     1347.66
loop_
_atom_site_label
_atom_site_type_symbol
_atom_site_fract_x
_atom_site_fract_y
_atom_site_fract_z
O3 O 0.4480(4) 0.4784(3) 0.3868(2)
O4 O 0.5196(4) 0.3154(3) 0.3474(3)
C8 C 0.4485(6) 0.3792(5) 0.3220(4)
C9 C 0.3641(6) 0.3320(4) 0.2075(4)
C10 C 0.3463(7) 0.2173(4) 0.1392(4)
H5 H 0.3853 0.1700 0.1647
C11 C 0.2716(7) 0.1728(4) 0.0343(4)
C13 C 0.2338(7) 0.3557(4) 0.0609(4)
H7 H 0.1981 0.4038 0.0351
C14 C 0.3031(6) 0.3986(4) 0.1666(4)
H8 H 0.3089 0.4748 0.2118
Tb3 Tb 0.26933(4) 0.54978(2) 0.49918(2)
Tb4 Tb 0.73067(4) 0.45022(2) 0.50082(2)
O1 O 0.1967(4) 0.4954(3) 0.6281(3)
N1 N 0.1411(6) 0.1951(3) 0.8848(3)
C1 C 0.0718(7) 0.4613(4) 0.6592(4)
C2 C 0.0910(6) 0.3948(4) 0.7228(4)
C3 C 0.2488(7) 0.3944(4) 0.7644(4)
H1 H 0.3448 0.4371 0.7552
C4 C 0.2661(7) 0.3307(5) 0.8200(4)
H2 H 0.3736 0.3306 0.8475
C5 C 0.1262(7) 0.2680(4) 0.8349(4)
H6 H 0.2575 0.0949 0.9903
C12 C 0.2168(7) 0.2412(4) 0.9925(4)
C18 C 0.2314(7) 0.0259(4) 0.7739(4)
H10 H 0.3414 0.0730 0.7913
C19 C 0.1064(8) 0.0735(4) 0.8166(4)
C22 C 0.5448(7) 0.7535(5) 0.4709(4)
H13 H 0.6235 0.7308 0.5045
N2 N 0.6060(6) 0.8330(4) 0.4418(4)
C23 C 0.7873(7) 0.8828(6) 0.4598(5)
H14 H 0.8476 0.8534 0.5000
H15 H 0.8140 0.9657 0.4982
H16 H 0.8199 0.8624 0.3932
C24 C 0.4912(9) 0.8660(5) 0.3823(6)
H17 H 0.3764 0.8261 0.3760
H18 H 0.5141 0.8457 0.3133
H19 H 0.5067 0.9482 0.4183
O7 O 0.3964(4) 0.7061(3) 0.4589(3)
O8 O 0.0704(4) 0.5241(3) 0.3584(3)
O10 O 0.5520(4) 0.5216(3) 0.6132(2)
O11 O 0.4804(4) 0.6846(3) 0.6526(3)
O12 O 0.1132(4) 0.6727(3) 0.5754(3)
O13 O 0.1594(4) 0.3459(3) 0.4133(3)
C16 C 0.0349(6) 0.8403(4) 0.6801(4)
C17 C 0.1954(7) 0.9102(4) 0.7061(4)
H9 H 0.2806 0.8795 0.6779
O2 O 0.9296(4) 0.4759(3) 0.6416(3)
C6 C 0.9686(7) 0.2694(4) 0.7939(4)
H3 H 0.8724 0.2270 0.8032
C7 C 0.9522(7) 0.3335(5) 0.7390(4)
H4 H 0.8448 0.3348 0.7126
C20 C 0.9432(7) 0.0049(4) 0.7904(4)
H11 H 0.8578 0.0356 0.8183
O6 O 0.8406(4) 0.6541(3) 0.5867(3)
C15 C 0.9937(7) 0.7124(4) 0.6091(4)
C21 C 0.9093(7) 0.8880(5) 0.7207(4)
H12 H 0.7989 0.8408 0.7010
C15_2 C 0.0063(7) 0.2876(4) 0.3909(4)
C21_2 C 0.0907(7) 0.1120(5) 0.2793(4)
H12_2 H 0.2011 0.1592 0.2990
C6_2 C 0.0314(7) 0.7306(4) 0.2061(4)
H3_2 H 0.1276 0.7730 0.1968
C7_2 C 0.0478(7) 0.6665(5) 0.2610(4)
H4_2 H 0.1552 0.6652 0.2874
C20_2 C 0.0568(7) 0.9951(4) 0.2096(4)
H11_2 H 0.1422 0.9644 0.1817
O5 O 0.8868(4) 0.3273(3) 0.4246(3)
C16_2 C 0.9651(6) 0.1597(4) 0.3199(4)
C17_2 C 0.8046(7) 0.0898(4) 0.2939(4)
H9_2 H 0.7194 0.1205 0.3221
O1_2 O 0.8033(4) 0.5046(3) 0.3719(3)
N1_2 N 0.8589(6) 0.8049(3) 0.1152(3)
C1_2 C 0.9282(7) 0.5387(4) 0.3408(4)
C2_2 C 0.9090(6) 0.6052(4) 0.2772(4)
C3_2 C 0.7512(7) 0.6056(4) 0.2356(4)
H1_2 H 0.6552 0.5629 0.2448
C4_2 C 0.7339(7) 0.6693(5) 0.1800(4)
H2_2 H 0.6264 0.6694 0.1525
C5_2 C 0.8738(7) 0.7320(4) 0.1651(4)
H6_2 H 0.7425 0.9051 0.0097
C12_2 C 0.7832(7) 0.7588(4) 0.0075(4)
C18_2 C 0.7686(7) 0.9741(4) 0.2261(4)
H10_2 H 0.6586 0.9270 0.2087
C19_2 C 0.8936(8) 0.9265(4) 0.1834(4)
C22_2 C 0.4552(7) 0.2465(5) 0.5291(4)
H13_2 H 0.3765 0.2692 0.4955
N2_2 N 0.3940(6) 0.1670(4) 0.5582(4)
C23_2 C 0.2127(7) 0.1172(6) 0.5402(5)
H14_2 H 0.1524 0.1466 0.5000
H15_2 H 0.1860 0.0343 0.5018
H16_2 H 0.1801 0.1376 0.6068
C24_2 C 0.5088(9) 0.1340(5) 0.6177(6)
H17_2 H 0.6236 0.1739 0.6240
H18_2 H 0.4859 0.1543 0.6867
H19_2 H 0.4933 0.0518 0.5817
O7_2 O 0.6036(4) 0.2939(3) 0.5411(3)
C8_2 C 0.5515(6) 0.6208(5) 0.6780(4)
C9_2 C 0.6359(6) 0.6680(4) 0.7925(4)
C10_2 C 0.6537(7) 0.7827(4) 0.8608(4)
H5_2 H 0.6147 0.8300 0.8353
C11_2 C 0.7284(7) 0.8272(4) 0.9657(4)
C13_2 C 0.7662(7) 0.6443(4) 0.9391(4)
H7_2 H 0.8019 0.5962 0.9649
C14_2 C 0.6969(6) 0.6014(4) 0.8334(4)
H8_2 H 0.6911 0.5252 0.7882
loop_
_geom_bond_atom_site_label_1
_geom_bond_atom_site_label_2
_geom_bond_site_symmetry_1
_geom_bond_site_symmetry_2
O3 C8 1_555 1_555
O4 C8 1_555 1_555
C8 C9 1_555 1_555
C9 C10 1_555 1_555
C10 H5 1_555 1_555
C11 C10 1_555 1_555
H7 C13 1_555 1_555
C14 C9 1_555 1_555
H8 C14 1_555 1_555
Tb3 O3 1_555 1_555
Tb4 O3 1_555 1_555
O4 Tb4 1_555 1_555
C13 C14 1_555 1_555
Tb3 O1 1_555 1_555
O1 C1 1_555 1_555
N1 C5 1_555 1_555
C1 C2 1_555 1_555
C2 C3 1_555 1_555
C3 H1 1_555 1_555
C4 C3 1_555 1_555
H2 C4 1_555 1_555
C5 C4 1_555 1_555
C12 N1 1_555 1_555
H10 C18 1_555 1_555
C19 N1 1_555 1_555
C22 H13 1_555 1_555
N2 C22 1_555 1_555
C23 N2 1_555 1_555
H14 C23 1_555 1_555
H15 C23 1_555 1_555
H16 C23 1_555 1_555
C24 N2 1_555 1_555
H17 C24 1_555 1_555
H18 C24 1_555 1_555
H19 C24 1_555 1_555
O7 Tb3 1_555 1_555
O8 Tb3 1_555 1_555
O10 Tb3 1_555 1_555
O11 Tb3 1_555 1_555
O12 Tb3 1_555 1_555
O13 Tb3 1_555 1_555
C18 C19 1_555 1_555
C22 O7 1_555 1_555
C16 C17 1_555 1_555
C17 H9 1_555 1_555
H3 C6 1_555 1_555
H4 C7 1_555 1_555
H11 C20 1_555 1_555
Tb4 O2 1_555 1_555
C6 C7 1_555 1_555
O6 C15 1_555 1_555
H12 C21 1_555 1_555
Tb4 O6 1_555 1_555
O13 C15_2 1_555 1_555
H12_2 C21_2 1_555 1_555
H3_2 C6_2 1_555 1_555
H4_2 C7_2 1_555 1_555
H11_2 C20_2 1_555 1_555
C6_2 C7_2 1_555 1_555
C16_2 C17_2 1_555 1_555
C17_2 H9_2 1_555 1_555
Tb4 O5 1_555 1_555
Tb4 O1_2 1_555 1_555
O1_2 C1_2 1_555 1_555
N1_2 C5_2 1_555 1_555
C1_2 C2_2 1_555 1_555
C2_2 C3_2 1_555 1_555
C3_2 H1_2 1_555 1_555
C4_2 C3_2 1_555 1_555
H2_2 C4_2 1_555 1_555
C5_2 C4_2 1_555 1_555
C12_2 N1_2 1_555 1_555
H10_2 C18_2 1_555 1_555
C19_2 N1_2 1_555 1_555
C22_2 H13_2 1_555 1_555
N2_2 C22_2 1_555 1_555
C23_2 N2_2 1_555 1_555
H14_2 C23_2 1_555 1_555
H15_2 C23_2 1_555 1_555
H16_2 C23_2 1_555 1_555
C24_2 N2_2 1_555 1_555
H17_2 C24_2 1_555 1_555
H18_2 C24_2 1_555 1_555
H19_2 C24_2 1_555 1_555
O7_2 Tb4 1_555 1_555
O10 Tb4 1_555 1_555
C18_2 C19_2 1_555 1_555
C22_2 O7_2 1_555 1_555
O10 C8_2 1_555 1_555
O11 C8_2 1_555 1_555
C8_2 C9_2 1_555 1_555
C9_2 C10_2 1_555 1_555
C10_2 H5_2 1_555 1_555
C11_2 C10_2 1_555 1_555
H7_2 C13_2 1_555 1_555
C14_2 C9_2 1_555 1_555
H8_2 C14_2 1_555 1_555
C13_2 C14_2 1_555 1_555

#END
