
###############################################################################
#
# This file contains modified crystal structure data generated from the
# MOF subset of the Cambridge Structural Database (CSD) v543 
# hosted by the Cambridge Crystallographic Data Centre (CCDC).
#
# This work is licensed under the Creative Commons
# Attribution-NonCommercial-ShareAlike 4.0 International License.
# To view a copy of this license, visit
# http://creativecommons.org/licenses/by-nc-sa/4.0/
# or send a letter to
# Creative Commons, PO Box 1866, Mountain View, CA 94042, USA.
#
# CIF created using the CSD Python API on 29 September 2022
# The structure has been converted into the P1 space group
# The structure has a 3D framework
# The original CSD entry EWEWUZ is in the monoclinic crystal system
# The framework has been calculated to contain at least 10.0% void space
# The void calculation uses a probe of radius 1.32A, grid spacing 0.4
# The framework is charged, counterions have been retained in the structure
# H atom positions have been added when not included in the experimental data
#
###############################################################################

data_EWEWUZ
_chemical_formula_moiety         '(C108 H92 Ag8 Cl8 Fe8 N40 O76)n'
_symmetry_cell_setting           triclinic
_symmetry_space_group_name_H-M   'P 1'
_symmetry_Int_Tables_number      1
_space_group_name_Hall           'P 1'
loop_
_symmetry_equiv_pos_site_id
_symmetry_equiv_pos_as_xyz
1 x,y,z
_cell_length_a                   36.781(3)
_cell_length_b                   8.0506(6)
_cell_length_c                   18.6868(13)
_cell_angle_alpha                90
_cell_angle_beta                 119.938(5)
_cell_angle_gamma                90
_cell_volume                     4795
loop_
_atom_site_label
_atom_site_type_symbol
_atom_site_fract_x
_atom_site_fract_y
_atom_site_fract_z
O5 O 0.1809(7) 0.093(3) 0.0634(14)
Ag7 Ag 0.1848(3) 0.3780(4) 0.1055(7)
N3 N 0.0509(5) 0.614(2) 0.6122(12)
C6 C 0.0832(6) 0.516(2) 0.6617(13)
C7 C 0.1228(6) 0.532(3) 0.6688(14)
H4 H 0.1445 0.4593 0.7050
N4 N 0.1314(7) 0.646(3) 0.6271(14)
C8 C 0.0983(7) 0.743(3) 0.5775(14)
H5 H 0.1022 0.8259 0.5460
C9 C 0.0599(6) 0.728(2) 0.5700(13)
H6 H 0.0383 0.8016 0.5337
C10 C 0.0745(9) 0.386(4) 0.7092(18)
C15 C 0.1652(8) 0.057(2) 0.9855(15)
N7 N 0.0507(5) 0.111(2) 0.8156(12)
C16 C 0.0187(6) 0.010(2) 0.7708(12)
C18 C 0.0074(6) 0.244(2) 0.8581(13)
H11 H 0.0043 0.3285 0.8899
C19 C 0.0447(6) 0.230(2) 0.8601(13)
H12 H 0.0669 0.3050 0.8929
C27 C 0.1541(10) 0.064(4) 0.7109(16)
H19 H 0.1263 0.1058 0.6702
H21 H 0.1746 0.1548 0.7285
O3 O 0.0382(8) 0.396(3) 0.7075(16)
O4 O 0.1069(7) 0.298(3) 0.7620(14)
O6 O 0.1438(8) 0.149(3) 0.9250(15)
Fe1 Fe 0.1066(3) 0.0587(6) 0.8118(7)
Ag2 Ag 0.1848(3) 0.6220(4) 0.6055(7)
N11 N 0.2552(5) 0.630(2) 0.6745(12)
N12 N 0.1709(6) 0.408(2) 0.5103(13)
O13 O 0.1809(7) 0.907(3) 0.5634(14)
C12 C 0.1754(3) 0.752(3) 0.0284(9)
H7 H 0.1927 0.7852 0.0843
N6 N 0.1709(6) 0.592(2) 0.0103(13)
N1 N 0.8432(4) 0.1397(17) 0.7405(10)
C1 C 0.8197(5) 0.0262(17) 0.6883(11)
C2 C 0.7761(5) 0.0224(18) 0.6559(11)
N2 N 0.7552(5) 0.130(2) 0.6745(12)
C3 C 0.7789(6) 0.251(3) 0.7254(15)
H2 H 0.7657 0.3394 0.7376
C4 C 0.8216(6) 0.252(2) 0.7601(13)
H3 H 0.8371 0.3354 0.8000
C17 C 0.9808(6) 0.026(2) 0.7698(12)
N8 N 0.9746(5) 0.142(2) 0.8130(12)
N9 N 0.97093(19) 0.348(2) 0.5405(6)
C21 C 0.9439(2) 0.3790(19) 0.4609(6)
C22 C 0.9245(3) 0.250(2) 0.4043(8)
H13 H 0.9054 0.2760 0.3481
N10 N 0.9322(5) 0.090(2) 0.4275(12)
C23 C 0.9594(6) 0.059(2) 0.5074(12)
C24 C 0.9782(5) 0.184(2) 0.5622(11)
H15 H 0.9972 0.1573 0.6182
C25 C 0.9386(7) 0.560(2) 0.4384(13)
C26 C 0.9456(14) 0.559(5) 0.731(2)
H16 H 0.9718 0.6048 0.7763
H17 H 0.9349 0.4733 0.7535
H18 H 0.9248 0.6477 0.7062
O9 O 0.9561(6) 0.661(2) 0.4985(13)
O10 O 0.9128(7) 0.599(3) 0.3675(13)
O11 O 0.9536(7) 0.485(3) 0.6689(15)
H22 H 0.9304 0.4430 0.6331
Fe2 Fe 0.9942(4) 0.5599(6) 0.6207(7)
Ag1 Ag 0.9157(3) 0.1199(3) 0.8306(7)
O14 O 0.9997(6) 0.783(2) 0.6826(13)
O15 O 0.9128(7) 0.401(3) 0.8675(13)
Ag4 Ag 0.9157(3) 0.8801(3) 0.3306(7)
Ag5 Ag 0.6848(3) 0.1220(4) 0.6055(7)
H1 H 0.7607 0.9363 0.6181
C5 C 0.8432(6) 0.898(2) 0.6693(15)
H10 H 0.9587 0.9513 0.7370
H14 H 0.9656 0.9473 0.5259
O1 O 0.8129(7) 0.833(2) 0.5967(13)
O2 O 0.8806(5) 0.896(2) 0.7054(12)
N13 N 0.9322(5) 0.910(2) 0.9275(12)
H23 H 0.891224 0.880634 0.765349
N5 N 0.13101(19) 0.162(2) 0.3886(6)
C11 C 0.1559(3) 0.126(2) 0.4689(7)
C12_2 C 0.1754(3) 0.248(3) 0.5284(9)
H7_2 H 0.1927 0.2148 0.5843
C13 C 0.1460(7) 0.444(2) 0.4298(14)
H8 H 0.1417 0.5572 0.4135
C14 C 0.1266(6) 0.326(2) 0.3708(12)
H9 H 0.1094 0.3597 0.3150
C20 C 0.0257(8) 0.109(3) 0.2161(17)
H20 H 0.1624 0.0245 0.1860
O7 O 0.0603(6) 0.099(2) 0.2230(13)
O12 O 0.1527(7) 0.002(3) 0.2825(13)
N3_2 N 0.0509(5) 0.386(2) 0.1122(12)
C6_2 C 0.0832(6) 0.484(2) 0.1617(13)
C7_2 C 0.1228(6) 0.468(3) 0.1688(14)
H4_2 H 0.1445 0.5407 0.2050
N4_2 N 0.1314(7) 0.354(3) 0.1271(14)
C8_2 C 0.0983(7) 0.257(3) 0.0775(14)
H5_2 H 0.1022 0.1741 0.0460
C9_2 C 0.0599(6) 0.272(2) 0.0700(13)
H6_2 H 0.0383 0.1984 0.0337
C10_2 C 0.0745(9) 0.614(4) 0.2092(18)
C15_2 C 0.1652(8) 0.943(2) 0.4855(15)
N7_2 N 0.0507(5) 0.889(2) 0.3156(12)
C16_2 C 0.0187(6) 0.990(2) 0.2708(12)
C18_2 C 0.0074(6) 0.756(2) 0.3581(13)
H11_2 H 0.0043 0.6715 0.3899
C19_2 C 0.0447(6) 0.770(2) 0.3601(13)
H12_2 H 0.0669 0.6950 0.3929
C27_2 C 0.1541(10) 0.936(4) 0.2109(16)
H19_2 H 0.1263 0.8942 0.1702
H21_2 H 0.1746 0.8452 0.2285
O3_2 O 0.0382(8) 0.604(3) 0.2075(16)
O4_2 O 0.1069(7) 0.702(3) 0.2620(14)
O6_2 O 0.1438(8) 0.851(3) 0.4250(15)
Fe1_2 Fe 0.1066(3) 0.9413(6) 0.3118(7)
N11_2 N 0.2552(5) 0.370(2) 0.1745(12)
H1_2 H 0.7607 0.0637 0.1181
C5_2 C 0.8432(6) 0.102(2) 0.1693(15)
H10_2 H 0.9587 0.0487 0.2370
H14_2 H 0.9656 0.0527 0.0259
O1_2 O 0.8129(7) 0.167(2) 0.0967(13)
O2_2 O 0.8806(5) 0.104(2) 0.2054(12)
O8 O 0.9997(6) 0.217(2) 0.1826(13)
Fe3 Fe 0.9942(4) 0.4401(6) 0.1207(7)
H23_2 H 0.891224 0.119366 0.265349
N1_2 N 0.8432(4) 0.8603(17) 0.2405(10)
C1_2 C 0.8197(5) 0.9738(17) 0.1883(11)
C2_2 C 0.7761(5) 0.9776(18) 0.1559(11)
N2_2 N 0.7552(5) 0.870(2) 0.1745(12)
C3_2 C 0.7789(6) 0.749(3) 0.2254(15)
H2_2 H 0.7657 0.6606 0.2376
C4_2 C 0.8216(6) 0.748(2) 0.2601(13)
H3_2 H 0.8371 0.6646 0.3000
C17_2 C 0.9808(6) 0.974(2) 0.2698(12)
N8_2 N 0.9746(5) 0.858(2) 0.3130(12)
N9_2 N 0.97093(19) 0.652(2) 0.0405(6)
C23_2 C 0.9594(6) 0.941(2) 0.0074(12)
C24_2 C 0.9782(5) 0.816(2) 0.0622(11)
H15_2 H 0.9972 0.8427 0.1182
C26_2 C 0.9456(14) 0.441(5) 0.231(2)
H16_2 H 0.9718 0.3952 0.2763
H17_2 H 0.9349 0.5267 0.2535
H18_2 H 0.9248 0.3523 0.2062
O11_2 O 0.9536(7) 0.515(3) 0.1689(15)
H22_2 H 0.9304 0.5570 0.1331
Ag5_2 Ag 0.6848(3) 0.8780(4) 0.1055(7)
C21_2 C 0.9439(2) 0.6210(19) 0.9609(6)
C22_2 C 0.9245(3) 0.750(2) 0.9043(8)
H13_2 H 0.9054 0.7240 0.8481
C25_2 C 0.9386(7) 0.440(2) 0.9384(13)
O9_2 O 0.9561(6) 0.339(2) 0.9985(13)
N3_3 N 0.5509(5) 0.114(2) 0.6122(12)
C6_3 C 0.5832(6) 0.016(2) 0.6617(13)
C7_3 C 0.6228(6) 0.032(3) 0.6688(14)
N4_3 N 0.6314(7) 0.146(3) 0.6271(14)
C8_3 C 0.5983(7) 0.243(3) 0.5775(14)
H5_3 H 0.6022 0.3259 0.5460
C9_3 C 0.5599(6) 0.228(2) 0.5700(13)
H6_3 H 0.5383 0.3016 0.5337
C25_3 C 0.4386(7) 0.060(2) 0.4384(13)
C26_3 C 0.4456(14) 0.059(5) 0.731(2)
H16_3 H 0.4718 0.1048 0.7763
H18_3 H 0.4248 0.1477 0.7062
O9_3 O 0.4561(6) 0.161(2) 0.4985(13)
O10_2 O 0.4128(7) 0.099(3) 0.3675(13)
Fe2_2 Fe 0.4942(4) 0.0599(6) 0.6207(7)
O13_2 O 0.6809(7) 0.407(3) 0.5634(14)
O14_2 O 0.4997(6) 0.283(2) 0.6826(13)
Ag4_2 Ag 0.4157(3) 0.3801(3) 0.3306(7)
C12_3 C 0.6754(3) 0.252(3) 0.0284(9)
H7_3 H 0.6927 0.2852 0.0843
N6_2 N 0.6709(6) 0.092(2) 0.0103(13)
O5_2 O 0.6809(7) 0.593(3) 0.0634(14)
N1_3 N 0.3432(4) 0.6397(17) 0.7405(10)
C1_3 C 0.3197(5) 0.5262(17) 0.6883(11)
C2_3 C 0.2761(5) 0.5224(18) 0.6559(11)
H1_3 H 0.2607 0.4363 0.6181
C3_3 C 0.2789(6) 0.751(3) 0.7254(15)
H2_3 H 0.2657 0.8394 0.7376
C4_3 C 0.3216(6) 0.752(2) 0.7601(13)
H3_3 H 0.3371 0.8354 0.8000
C5_3 C 0.3432(6) 0.398(2) 0.6693(15)
H4_3 H 0.6445 0.9593 0.7050
C10_3 C 0.5745(9) 0.886(4) 0.7092(18)
N5_2 N 0.63101(19) 0.338(2) 0.8886(6)
C11_2 C 0.6559(3) 0.374(2) 0.9689(7)
C13_2 C 0.6460(7) 0.056(2) 0.9298(14)
C14_2 C 0.6266(6) 0.174(2) 0.8708(12)
H9_2 H 0.6094 0.1403 0.8150
C15_3 C 0.6652(8) 0.557(2) 0.9855(15)
N7_3 N 0.5507(5) 0.611(2) 0.8156(12)
C16_3 C 0.5187(6) 0.510(2) 0.7708(12)
C17_3 C 0.4808(6) 0.526(2) 0.7698(12)
H10_3 H 0.4587 0.4513 0.7370
N8_3 N 0.4746(5) 0.642(2) 0.8130(12)
C18_3 C 0.5074(6) 0.744(2) 0.8581(13)
H11_3 H 0.5043 0.8285 0.8899
C19_3 C 0.5447(6) 0.730(2) 0.8601(13)
H12_3 H 0.5669 0.8050 0.8929
C20_2 C 0.5257(8) 0.391(3) 0.7161(17)
N9_3 N 0.47093(19) 0.848(2) 0.5405(6)
C21_3 C 0.4439(2) 0.8790(19) 0.4609(6)
C22_3 C 0.4245(3) 0.750(2) 0.4043(8)
H13_3 H 0.4054 0.7760 0.3481
N10_2 N 0.4322(5) 0.590(2) 0.4275(12)
C23_3 C 0.4594(6) 0.559(2) 0.5074(12)
H14_3 H 0.4656 0.4473 0.5259
C24_3 C 0.4782(5) 0.684(2) 0.5622(11)
H15_3 H 0.4972 0.6573 0.6182
H17_3 H 0.4349 0.9733 0.7535
C27_3 C 0.6541(10) 0.564(4) 0.7109(16)
H19_3 H 0.6263 0.6058 0.6702
H20_2 H 0.6624 0.4755 0.6860
H21_3 H 0.6746 0.6548 0.7285
O1_3 O 0.3129(7) 0.333(2) 0.5967(13)
O2_3 O 0.3806(5) 0.396(2) 0.7054(12)
O3_3 O 0.5382(8) 0.896(3) 0.7075(16)
O4_3 O 0.6069(7) 0.798(3) 0.7620(14)
O6_3 O 0.6438(8) 0.649(3) 0.9250(15)
O7_2 O 0.5603(6) 0.401(2) 0.7230(13)
O11_3 O 0.4536(7) 0.985(3) 0.6689(15)
H22_3 H 0.4304 0.9430 0.6331
O12_2 O 0.6527(7) 0.498(3) 0.7825(13)
Fe1_3 Fe 0.6066(3) 0.5587(6) 0.8118(7)
Ag1_2 Ag 0.4157(3) 0.6199(3) 0.8306(7)
N12_2 N 0.6709(6) 0.908(2) 0.5103(13)
N13_2 N 0.4322(5) 0.410(2) 0.9275(12)
O15_2 O 0.4128(7) 0.901(3) 0.8675(13)
H23_3 H 0.391224 0.380634 0.765349
H8_2 H 0.6417 0.0572 0.4135
N1_4 N 0.3432(4) 0.3603(17) 0.2405(10)
C1_4 C 0.3197(5) 0.4738(17) 0.1883(11)
C2_4 C 0.2761(5) 0.4776(18) 0.1559(11)
H1_4 H 0.2607 0.5637 0.1181
C3_4 C 0.2789(6) 0.249(3) 0.2254(15)
H2_4 H 0.2657 0.1606 0.2376
C4_4 C 0.3216(6) 0.248(2) 0.2601(13)
H3_4 H 0.3371 0.1646 0.3000
C5_4 C 0.3432(6) 0.602(2) 0.1693(15)
H4_4 H 0.6445 0.0407 0.2050
C10_4 C 0.5745(9) 0.114(4) 0.2092(18)
N5_3 N 0.63101(19) 0.662(2) 0.3886(6)
C11_3 C 0.6559(3) 0.626(2) 0.4689(7)
C12_4 C 0.6754(3) 0.748(3) 0.5284(9)
H7_4 H 0.6927 0.7148 0.5843
C13_3 C 0.6460(7) 0.944(2) 0.4298(14)
C14_3 C 0.6266(6) 0.826(2) 0.3708(12)
H9_3 H 0.6094 0.8597 0.3150
C15_4 C 0.6652(8) 0.443(2) 0.4855(15)
N7_4 N 0.5507(5) 0.389(2) 0.3156(12)
C16_4 C 0.5187(6) 0.490(2) 0.2708(12)
C17_4 C 0.4808(6) 0.474(2) 0.2698(12)
H10_4 H 0.4587 0.5487 0.2370
N8_4 N 0.4746(5) 0.358(2) 0.3130(12)
C18_4 C 0.5074(6) 0.256(2) 0.3581(13)
H11_4 H 0.5043 0.1715 0.3899
C19_4 C 0.5447(6) 0.270(2) 0.3601(13)
H12_4 H 0.5669 0.1950 0.3929
C20_3 C 0.5257(8) 0.609(3) 0.2161(17)
N9_4 N 0.47093(19) 0.152(2) 0.0405(6)
C23_4 C 0.4594(6) 0.441(2) 0.0074(12)
H14_4 H 0.4656 0.5527 0.0259
C24_4 C 0.4782(5) 0.316(2) 0.0622(11)
H15_4 H 0.4972 0.3427 0.1182
H17_4 H 0.4349 0.0267 0.2535
C27_4 C 0.6541(10) 0.436(4) 0.2109(16)
H19_4 H 0.6263 0.3942 0.1702
H20_3 H 0.6624 0.5245 0.1860
H21_4 H 0.6746 0.3452 0.2285
O1_4 O 0.3129(7) 0.667(2) 0.0967(13)
O2_4 O 0.3806(5) 0.604(2) 0.2054(12)
O3_4 O 0.5382(8) 0.104(3) 0.2075(16)
O4_4 O 0.6069(7) 0.202(3) 0.2620(14)
O6_4 O 0.6438(8) 0.351(3) 0.4250(15)
O7_3 O 0.5603(6) 0.599(2) 0.2230(13)
O8_2 O 0.4997(6) 0.717(2) 0.1826(13)
O11_4 O 0.4536(7) 0.015(3) 0.1689(15)
H22_4 H 0.4304 0.0570 0.1331
O12_3 O 0.6527(7) 0.502(3) 0.2825(13)
Fe1_4 Fe 0.6066(3) 0.4413(6) 0.3118(7)
Fe3_2 Fe 0.4942(4) 0.9401(6) 0.1207(7)
H23_4 H 0.391224 0.619366 0.265349
C21_4 C 0.4439(2) 0.1210(19) 0.9609(6)
C22_4 C 0.4245(3) 0.250(2) 0.9043(8)
H13_4 H 0.4054 0.2240 0.8481
N3_4 N 0.5509(5) 0.886(2) 0.1122(12)
C6_4 C 0.5832(6) 0.984(2) 0.1617(13)
C7_4 C 0.6228(6) 0.968(3) 0.1688(14)
N4_4 N 0.6314(7) 0.854(3) 0.1271(14)
C8_4 C 0.5983(7) 0.757(3) 0.0775(14)
H5_4 H 0.6022 0.6741 0.0460
C9_4 C 0.5599(6) 0.772(2) 0.0700(13)
H6_4 H 0.5383 0.6984 0.0337
C26_4 C 0.4456(14) 0.941(5) 0.231(2)
H16_4 H 0.4718 0.8952 0.2763
H18_4 H 0.4248 0.8523 0.2062
C25_4 C 0.4386(7) 0.940(2) 0.9384(13)
O9_4 O 0.4561(6) 0.839(2) 0.9985(13)
N5_4 N 0.13101(19) 0.838(2) 0.8886(6)
C11_4 C 0.1559(3) 0.874(2) 0.9689(7)
C13_4 C 0.1460(7) 0.556(2) 0.9298(14)
H8_3 H 0.1417 0.4428 0.9135
C14_4 C 0.1266(6) 0.674(2) 0.8708(12)
H9_4 H 0.1094 0.6403 0.8150
C20_4 C 0.0257(8) 0.891(3) 0.7161(17)
H20_4 H 0.1624 0.9755 0.6860
O7_4 O 0.0603(6) 0.901(2) 0.7230(13)
O12_4 O 0.1527(7) 0.998(3) 0.7825(13)
H8_4 H 0.6417 0.9428 0.9135
O16 O 0.5468(6) 0.7924(19) 0.3738(11)
O17 O 0.5312(6) 0.610(2) 0.4542(12)
O18 O 0.5273(5) 0.8895(18) 0.4698(11)
O19 O 0.5912(6) 0.767(2) 0.5142(12)
Cl1 Cl 0.5523(5) 0.749(2) 0.4661(12)
O19_2 O 0.5912(6) 0.233(2) 0.0142(12)
O16_2 O 0.5468(6) 0.2076(19) 0.8738(11)
O17_2 O 0.5312(6) 0.390(2) 0.9542(12)
O18_2 O 0.5273(5) 0.1105(18) 0.9698(11)
Cl1_2 Cl 0.5523(5) 0.251(2) 0.9661(12)
O16_3 O 0.0468(6) 0.2924(19) 0.3738(11)
O17_3 O 0.0312(6) 0.110(2) 0.4542(12)
O18_3 O 0.0273(5) 0.3895(18) 0.4698(11)
O19_3 O 0.0912(6) 0.267(2) 0.5142(12)
Cl1_3 Cl 0.0523(5) 0.249(2) 0.4661(12)
O19_4 O 0.0912(6) 0.733(2) 0.0142(12)
O16_4 O 0.0468(6) 0.7076(19) 0.8738(11)
O17_4 O 0.0312(6) 0.890(2) 0.9542(12)
O18_4 O 0.0273(5) 0.6105(18) 0.9698(11)
Cl1_4 Cl 0.0523(5) 0.751(2) 0.9661(12)
O20 O 0.3227(6) 0.817(2) 0.2618(13)
O21 O 0.2602(7) 0.823(3) 0.2666(16)
O22 O 0.3140(9) 0.913(4) 0.3720(18)
O23 O 0.3141(10) 0.623(4) 0.3498(19)
Cl2 Cl 0.3000(4) 0.7943(8) 0.3107(8)
O20_2 O 0.3227(6) 0.183(2) 0.7618(13)
O21_2 O 0.2602(7) 0.177(3) 0.7666(16)
O22_2 O 0.3140(9) 0.087(4) 0.8720(18)
O23_2 O 0.3141(10) 0.377(4) 0.8498(19)
Cl2_2 Cl 0.3000(4) 0.2057(8) 0.8107(8)
O20_3 O 0.8227(6) 0.317(2) 0.2618(13)
O21_3 O 0.7602(7) 0.323(3) 0.2666(16)
O22_3 O 0.8140(9) 0.413(4) 0.3720(18)
O23_3 O 0.8141(10) 0.123(4) 0.3498(19)
Cl2_3 Cl 0.8000(4) 0.2943(8) 0.3107(8)
O20_4 O 0.8227(6) 0.683(2) 0.7618(13)
O21_4 O 0.7602(7) 0.677(3) 0.7666(16)
O22_4 O 0.8140(9) 0.587(4) 0.8720(18)
O23_4 O 0.8141(10) 0.877(4) 0.8498(19)
Cl2_4 Cl 0.8000(4) 0.7057(8) 0.8107(8)
loop_
_geom_bond_atom_site_label_1
_geom_bond_atom_site_label_2
_geom_bond_site_symmetry_1
_geom_bond_site_symmetry_2
Ag7 O5 1_555 1_555
N3 C6 1_555 1_555
C6 C7 1_555 1_555
C7 H4 1_555 1_555
N4 C7 1_555 1_555
C8 N4 1_555 1_555
H5 C8 1_555 1_555
C9 N3 1_555 1_555
H6 C9 1_555 1_555
C10 C6 1_555 1_555
N7 C16 1_555 1_555
H11 C18 1_555 1_555
C19 N7 1_555 1_555
H12 C19 1_555 1_555
C27 H19 1_555 1_555
H21 C27 1_555 1_555
O3 C10 1_555 1_555
O4 C10 1_555 1_555
O6 C15 1_555 1_555
Ag2 N4 1_555 1_555
N11 Ag2 1_555 1_555
N12 Ag2 1_555 1_555
O13 Ag2 1_555 1_555
C8 C9 1_555 1_555
N7 Fe1 1_555 1_555
C18 C19 1_555 1_555
O4 Fe1 1_555 1_555
O6 Fe1 1_555 1_555
C12 H7 1_555 1_555
N6 C12 1_555 1_555
Ag7 N6 1_555 1_555
N1 C1 1_555 1_555
C1 C2 1_555 1_555
N2 C2 1_555 1_555
C3 N2 1_555 1_555
H2 C3 1_555 1_555
C4 N1 1_555 1_555
H3 C4 1_555 1_555
N8 C17 1_555 1_555
N9 C21 1_555 1_555
C21 C22 1_555 1_555
C22 H13 1_555 1_555
N10 C22 1_555 1_555
C23 N10 1_555 1_555
C24 N9 1_555 1_555
H15 C24 1_555 1_555
C25 C21 1_555 1_555
C26 H16 1_555 1_555
H17 C26 1_555 1_555
H18 C26 1_555 1_555
O9 C25 1_555 1_555
O10 C25 1_555 1_555
O11 C26 1_555 1_555
H22 O11 1_555 1_555
Ag1 N1 1_555 1_555
O14 Fe2 1_555 1_555
O15 Ag1 1_555 1_555
Ag4 O10 1_555 1_555
Ag5 N2 1_555 1_555
C3 C4 1_555 1_555
N8 Ag1 1_555 1_555
N9 Fe2 1_555 1_555
C23 C24 1_555 1_555
O9 Fe2 1_555 1_555
O11 Fe2 1_555 1_555
O1 C5 1_555 1_555
O2 C5 1_555 1_555
O2 H23 1_555 1_555
N5 C11 1_555 1_555
C11 C12_2 1_555 1_555
C12_2 H7_2 1_555 1_555
N12 C12_2 1_555 1_555
C13 N12 1_555 1_555
H8 C13 1_555 1_555
C14 N5 1_555 1_555
H9 C14 1_555 1_555
O7 C20 1_555 1_555
C13 C14 1_555 1_555
N3_2 C6_2 1_555 1_555
C6_2 C7_2 1_555 1_555
C7_2 H4_2 1_555 1_555
N4_2 C7_2 1_555 1_555
C8_2 N4_2 1_555 1_555
H5_2 C8_2 1_555 1_555
C9_2 N3_2 1_555 1_555
H6_2 C9_2 1_555 1_555
C10_2 C6_2 1_555 1_555
N7_2 C16_2 1_555 1_555
H11_2 C18_2 1_555 1_555
C19_2 N7_2 1_555 1_555
H12_2 C19_2 1_555 1_555
C27_2 H19_2 1_555 1_555
H21_2 C27_2 1_555 1_555
O3_2 C10_2 1_555 1_555
O4_2 C10_2 1_555 1_555
O13 C15_2 1_555 1_555
O6_2 C15_2 1_555 1_555
Ag7 N4_2 1_555 1_555
N11_2 Ag7 1_555 1_555
C8_2 C9_2 1_555 1_555
N7_2 Fe1_2 1_555 1_555
C18_2 C19_2 1_555 1_555
O4_2 Fe1_2 1_555 1_555
O6_2 Fe1_2 1_555 1_555
O1_2 C5_2 1_555 1_555
O2_2 C5_2 1_555 1_555
Fe3 O8 1_555 1_555
O2_2 H23_2 1_555 1_555
N1_2 C1_2 1_555 1_555
C1_2 C2_2 1_555 1_555
N2_2 C2_2 1_555 1_555
C3_2 N2_2 1_555 1_555
H2_2 C3_2 1_555 1_555
C4_2 N1_2 1_555 1_555
H3_2 C4_2 1_555 1_555
N8_2 C17_2 1_555 1_555
C24_2 N9_2 1_555 1_555
H15_2 C24_2 1_555 1_555
C26_2 H16_2 1_555 1_555
H17_2 C26_2 1_555 1_555
H18_2 C26_2 1_555 1_555
O11_2 C26_2 1_555 1_555
H22_2 O11_2 1_555 1_555
Ag4 N1_2 1_555 1_555
Ag5_2 N2_2 1_555 1_555
C3_2 C4_2 1_555 1_555
N8_2 Ag4 1_555 1_555
N9_2 Fe3 1_555 1_555
C23_2 C24_2 1_555 1_555
O11_2 Fe3 1_555 1_555
C21_2 C22_2 1_555 1_555
C22_2 H13_2 1_555 1_555
N13 C22_2 1_555 1_555
C25_2 C21_2 1_555 1_555
O9_2 C25_2 1_555 1_555
O15 C25_2 1_555 1_555
N3_3 C6_3 1_555 1_555
C6_3 C7_3 1_555 1_555
N4_3 C7_3 1_555 1_555
C8_3 N4_3 1_555 1_555
H5_3 C8_3 1_555 1_555
C9_3 N3_3 1_555 1_555
H6_3 C9_3 1_555 1_555
C26_3 H16_3 1_555 1_555
H18_3 C26_3 1_555 1_555
O9_3 C25_3 1_555 1_555
O10_2 C25_3 1_555 1_555
Fe2_2 N3_3 1_555 1_555
Ag5 N4_3 1_555 1_555
O13_2 Ag5 1_555 1_555
O14_2 Fe2_2 1_555 1_555
Ag4_2 O10_2 1_555 1_555
C8_3 C9_3 1_555 1_555
O9_3 Fe2_2 1_555 1_555
C12_3 H7_3 1_555 1_555
N6_2 C12_3 1_555 1_555
Ag5_2 O5_2 1_555 1_555
N1_3 C1_3 1_555 1_555
C1_3 C2_3 1_555 1_555
C2_3 H1_3 1_555 1_555
N11 C2_3 1_555 1_555
C3_3 N11 1_555 1_555
H2_3 C3_3 1_555 1_555
C4_3 N1_3 1_555 1_555
H3_3 C4_3 1_555 1_555
C5_3 C1_3 1_555 1_555
N5_2 C11_2 1_555 1_555
C14_2 N5_2 1_555 1_555
H9_2 C14_2 1_555 1_555
C15_3 C11_2 1_555 1_555
N7_3 C16_3 1_555 1_555
C16_3 C17_3 1_555 1_555
C17_3 H10_3 1_555 1_555
N8_3 C17_3 1_555 1_555
C18_3 N8_3 1_555 1_555
H11_3 C18_3 1_555 1_555
C19_3 N7_3 1_555 1_555
H12_3 C19_3 1_555 1_555
C20_2 C16_3 1_555 1_555
N9_3 C21_3 1_555 1_555
C21_3 C22_3 1_555 1_555
C22_3 H13_3 1_555 1_555
N10_2 C22_3 1_555 1_555
C23_3 N10_2 1_555 1_555
H14_3 C23_3 1_555 1_555
C24_3 N9_3 1_555 1_555
H15_3 C24_3 1_555 1_555
C27_3 H19_3 1_555 1_555
H20_2 C27_3 1_555 1_555
H21_3 C27_3 1_555 1_555
O1_3 C5_3 1_555 1_555
O2_3 C5_3 1_555 1_555
O3_3 C10_3 1_555 1_555
O4_3 C10_3 1_555 1_555
O6_3 C15_3 1_555 1_555
O7_2 C20_2 1_555 1_555
O14_2 C20_2 1_555 1_555
H22_3 O11_3 1_555 1_555
O12_2 C27_3 1_555 1_555
Fe1_3 N5_2 1_555 1_555
Ag1_2 N1_3 1_555 1_555
N13_2 Ag1_2 1_555 1_555
O15_2 Ag1_2 1_555 1_555
Ag4_2 N10_2 1_555 1_555
C3_3 C4_3 1_555 1_555
C13_2 C14_2 1_555 1_555
N7_3 Fe1_3 1_555 1_555
N8_3 Ag1_2 1_555 1_555
C18_3 C19_3 1_555 1_555
C23_3 C24_3 1_555 1_555
O4_3 Fe1_3 1_555 1_555
O6_3 Fe1_3 1_555 1_555
O7_2 Fe1_3 1_555 1_555
O12_2 Fe1_3 1_555 1_555
O2_3 H23_3 1_555 1_555
N1_4 C1_4 1_555 1_555
C1_4 C2_4 1_555 1_555
C2_4 H1_4 1_555 1_555
N11_2 C2_4 1_555 1_555
C3_4 N11_2 1_555 1_555
H2_4 C3_4 1_555 1_555
C4_4 N1_4 1_555 1_555
H3_4 C4_4 1_555 1_555
C5_4 C1_4 1_555 1_555
N5_3 C11_3 1_555 1_555
C11_3 C12_4 1_555 1_555
C12_4 H7_4 1_555 1_555
N12_2 C12_4 1_555 1_555
C13_3 N12_2 1_555 1_555
C14_3 N5_3 1_555 1_555
H9_3 C14_3 1_555 1_555
C15_4 C11_3 1_555 1_555
N7_4 C16_4 1_555 1_555
C16_4 C17_4 1_555 1_555
C17_4 H10_4 1_555 1_555
N8_4 C17_4 1_555 1_555
C18_4 N8_4 1_555 1_555
H11_4 C18_4 1_555 1_555
C19_4 N7_4 1_555 1_555
H12_4 C19_4 1_555 1_555
C20_3 C16_4 1_555 1_555
H14_4 C23_4 1_555 1_555
C24_4 N9_4 1_555 1_555
H15_4 C24_4 1_555 1_555
C27_4 H19_4 1_555 1_555
H20_3 C27_4 1_555 1_555
H21_4 C27_4 1_555 1_555
O1_4 C5_4 1_555 1_555
O2_4 C5_4 1_555 1_555
O3_4 C10_4 1_555 1_555
O4_4 C10_4 1_555 1_555
O13_2 C15_4 1_555 1_555
O6_4 C15_4 1_555 1_555
O7_3 C20_3 1_555 1_555
O8_2 C20_3 1_555 1_555
H22_4 O11_4 1_555 1_555
O12_3 C27_4 1_555 1_555
Fe1_4 N5_3 1_555 1_555
Ag4_2 N1_4 1_555 1_555
Fe3_2 O8_2 1_555 1_555
C3_4 C4_4 1_555 1_555
C13_3 C14_3 1_555 1_555
N7_4 Fe1_4 1_555 1_555
N8_4 Ag4_2 1_555 1_555
C18_4 C19_4 1_555 1_555
C23_4 C24_4 1_555 1_555
O4_4 Fe1_4 1_555 1_555
O6_4 Fe1_4 1_555 1_555
O7_3 Fe1_4 1_555 1_555
O12_3 Fe1_4 1_555 1_555
O2_4 H23_4 1_555 1_555
C21_4 C22_4 1_555 1_555
C22_4 H13_4 1_555 1_555
N13_2 C22_4 1_555 1_555
N3_4 C6_4 1_555 1_555
C6_4 C7_4 1_555 1_555
N4_4 C7_4 1_555 1_555
C8_4 N4_4 1_555 1_555
H5_4 C8_4 1_555 1_555
C9_4 N3_4 1_555 1_555
H6_4 C9_4 1_555 1_555
C26_4 H16_4 1_555 1_555
H18_4 C26_4 1_555 1_555
Fe3_2 N3_4 1_555 1_555
Ag5_2 N4_4 1_555 1_555
C8_4 C9_4 1_555 1_555
O9_4 C25_4 1_555 1_555
O15_2 C25_4 1_555 1_555
N5_4 C11_4 1_555 1_555
H8_3 C13_4 1_555 1_555
C14_4 N5_4 1_555 1_555
H9_4 C14_4 1_555 1_555
O7_4 C20_4 1_555 1_555
C13_4 C14_4 1_555 1_555
O16 Cl1 1_555 1_555
O17 Cl1 1_555 1_555
O18 Cl1 1_555 1_555
O19 Cl1 1_555 1_555
O16_2 Cl1_2 1_555 1_555
O17_2 Cl1_2 1_555 1_555
O18_2 Cl1_2 1_555 1_555
O16_3 Cl1_3 1_555 1_555
O17_3 Cl1_3 1_555 1_555
O18_3 Cl1_3 1_555 1_555
O19_3 Cl1_3 1_555 1_555
O16_4 Cl1_4 1_555 1_555
O17_4 Cl1_4 1_555 1_555
O18_4 Cl1_4 1_555 1_555
O20 Cl2 1_555 1_555
O21 Cl2 1_555 1_555
O22 Cl2 1_555 1_555
O23 Cl2 1_555 1_555
O20_2 Cl2_2 1_555 1_555
O21_2 Cl2_2 1_555 1_555
O22_2 Cl2_2 1_555 1_555
O23_2 Cl2_2 1_555 1_555
O20_3 Cl2_3 1_555 1_555
O21_3 Cl2_3 1_555 1_555
O22_3 Cl2_3 1_555 1_555
O23_3 Cl2_3 1_555 1_555
O20_4 Cl2_4 1_555 1_555
O21_4 Cl2_4 1_555 1_555
O22_4 Cl2_4 1_555 1_555
O23_4 Cl2_4 1_555 1_555

#END
