
###############################################################################
#
# This file contains modified crystal structure data generated from the
# MOF subset of the Cambridge Structural Database (CSD) v543 
# hosted by the Cambridge Crystallographic Data Centre (CCDC).
#
# This work is licensed under the Creative Commons
# Attribution-NonCommercial-ShareAlike 4.0 International License.
# To view a copy of this license, visit
# http://creativecommons.org/licenses/by-nc-sa/4.0/
# or send a letter to
# Creative Commons, PO Box 1866, Mountain View, CA 94042, USA.
#
# CIF created using the CSD Python API on 29 September 2022
# The structure has been converted into the P1 space group
# The structure has a 3D framework
# The original CSD entry EWOBAV is in the orthorhombic crystal system
# The original CSD entry EWOBAV is in a Sohncke space group
# The framework has been calculated to contain at least 10.0% void space
# The void calculation uses a probe of radius 1.32A, grid spacing 0.4
#
###############################################################################

data_EWOBAV
_chemical_formula_moiety         '(C360 H240 Cu26 N43)n'
_symmetry_cell_setting           triclinic
_symmetry_space_group_name_H-M   'P 1'
_symmetry_Int_Tables_number      1
_space_group_name_Hall           'P 1'
loop_
_symmetry_equiv_pos_site_id
_symmetry_equiv_pos_as_xyz
1 x,y,z
_cell_length_a                   18.0922(15)
_cell_length_b                   28.182(2)
_cell_length_c                   16.7188(12)
_cell_angle_alpha                90
_cell_angle_beta                 90
_cell_angle_gamma                90
_cell_volume                     8524.49
loop_
_atom_site_label
_atom_site_type_symbol
_atom_site_fract_x
_atom_site_fract_y
_atom_site_fract_z
Cu1 Cu 0.09792(14) 0.54848(8) 0.09719(12)
Cu2 Cu 0.0000 0.5000 0.24272(18)
Cu3 Cu 0.40025(14) 0.31010(8) 0.20826(14)
Cu4 Cu 0.43946(15) 0.35859(9) 0.37121(15)
Cu5 Cu 0.36827(11) 0.28553(9) 0.48763(13)
Cu6 Cu 0.5000 0.0000 0.03133(17)
Cu7 Cu 0.84348(12) 0.26515(9) 0.67122(12)
N1 N 0.1432(9) 0.5107(5) 0.1742(7)
N2 N 0.0972(9) 0.4921(5) 0.2375(7)
N3 N 0.3578(9) 0.3656(5) 0.2283(8)
N4 N 0.3704(9) 0.3883(6) 0.3044(8)
N5 N 0.4362(8) 0.2511(5) 0.1952(7)
N6 N 0.4094(8) 0.2163(5) 0.2492(7)
N7 N 0.4672(7) 0.2979(5) 0.4955(8)
N8 N 0.5009(7) 0.3260(5) 0.4355(8)
N9 N 0.7625(7) 0.2602(6) 0.5998(8)
N10 N 0.7740(7) 0.2354(6) 0.5257(8)
N12 N 0.4911(8) 0.0645(5) 0.0336(7)
C1 C 0.2131(16) 0.4924(9) 0.1704(12)
C2 C 0.2128(16) 0.4577(8) 0.2373(11)
C3 C 0.1464(15) 0.4623(8) 0.2747(10)
C4 C 0.2732(17) 0.4272(9) 0.2528(13)
C5 C 0.3274(17) 0.4259(9) 0.3203(13)
C6 C 0.3059(19) 0.3923(11) 0.2037(16)
C7 C 0.4555(13) 0.2219(8) 0.1303(12)
C8 C 0.4172(13) 0.1738(7) 0.2196(12)
C9 C 0.4573(13) 0.1349(7) 0.0908(12)
C10 C 0.4170(13) 0.1252(7) 0.0208(11)
C11 C 0.5010(14) 0.0943(8) 0.0992(13)
C12 C 0.5760(10) 0.3212(7) 0.4450(12)
C13 C 0.5903(9) 0.2920(7) 0.5103(10)
C14 C 0.5197(10) 0.2752(8) 0.5349(11)
C15 C 0.6628(9) 0.2707(7) 0.5298(10)
C16 C 0.7144(9) 0.2461(7) 0.4872(10)
C17 C 0.6998(9) 0.2784(8) 0.6049(11)
C18 C 0.1211(14) 0.4384(6) 0.3534(10)
C19 C 0.1413(14) 0.3908(7) 0.3653(11)
H1 H 0.1617 0.3735 0.3234
C20 C 0.1309(14) 0.3693(8) 0.4401(10)
H2 H 0.1525 0.3402 0.4523
C21 C 0.0867(15) 0.3934(7) 0.4957(12)
H3 H 0.0687 0.3778 0.5407
C22 C 0.0703(15) 0.4410(7) 0.4826(11)
H4 H 0.0459 0.4572 0.5232
C23 C 0.0878(9) 0.4666(5) 0.4129(7)
H5 H 0.0782 0.4988 0.4067
C24 C 0.4492(9) 0.1751(5) 0.1422(7)
C25 C 0.2565(10) 0.5050(6) 0.1136(9)
C26 C 0.3294(11) 0.5129(6) 0.1364(8)
H6 H 0.3429 0.5103 0.1899
C27 C 0.3821(9) 0.5245(6) 0.0792(11)
H7 H 0.4309 0.5298 0.0944
C30 C 0.2364(9) 0.5088(6) 0.0336(10)
H10 H 0.1876 0.5036 0.0184
C31 C 0.3128(12) 0.4432(6) 0.3976(7)
C32 C 0.3100(12) 0.4144(5) 0.4650(10)
H11 H 0.3094 0.3815 0.4593
C33 C 0.3079(12) 0.4346(6) 0.5407(8)
H12 H 0.3060 0.4153 0.5858
C34 C 0.3088(13) 0.4837(7) 0.5492(8)
H13 H 0.3074 0.4972 0.5999
C35 C 0.3116(12) 0.5125(5) 0.4818(11)
H14 H 0.3122 0.5453 0.4874
C36 C 0.3137(12) 0.4923(6) 0.4060(9)
H15 H 0.3156 0.5116 0.3609
C37 C 0.2678(15) 0.3743(8) 0.1264(10)
C38 C 0.3181(11) 0.3635(8) 0.0662(14)
H16 H 0.3685 0.3667 0.0755
C41 C 0.1673(11) 0.3540(8) 0.0384(15)
H19 H 0.1169 0.3508 0.0291
C42 C 0.1924(14) 0.3695(8) 0.1125(12)
H20 H 0.1588 0.3767 0.1528
C43 C 0.4804(11) 0.2442(7) 0.0531(8)
C44 C 0.4353(10) 0.2775(7) 0.0158(11)
H21 H 0.3939 0.2892 0.0421
C48 C 0.5423(10) 0.2267(6) 0.0138(11)
H25 H 0.5725 0.2044 0.0388
C49 C 0.3928(9) 0.1334(5) 0.2702(8)
C50 C 0.4170(9) 0.1308(5) 0.3490(9)
H26 H 0.4492 0.1536 0.3689
C51 C 0.3930(10) 0.0940(6) 0.3980(7)
H27 H 0.4092 0.0923 0.4507
C52 C 0.3447(10) 0.0599(5) 0.3682(10)
H28 H 0.3287 0.0354 0.4010
C53 C 0.3205(9) 0.0626(5) 0.2894(10)
H29 H 0.2883 0.0398 0.2695
C54 C 0.3445(9) 0.0993(6) 0.2404(7)
H30 H 0.3283 0.1011 0.1877
H34 H 0.2184 0.2212 0.0119
C60 C 0.3086(10) 0.1792(6) 0.0219(7)
H35 H 0.3085 0.1773 0.0775
C61 C 0.5709(10) 0.0888(6) 0.1485(10)
C62 C 0.6363(12) 0.0747(7) 0.1120(8)
H36 H 0.6395 0.0736 0.0565
C63 C 0.6969(9) 0.0620(6) 0.1585(12)
H37 H 0.7407 0.0525 0.1340
C64 C 0.6921(9) 0.0635(7) 0.2414(12)
H38 H 0.7327 0.0551 0.2725
C65 C 0.6267(12) 0.0777(7) 0.2779(8)
H39 H 0.6235 0.0787 0.3334
C66 C 0.5661(9) 0.0903(6) 0.2315(11)
H40 H 0.5223 0.0998 0.2559
C67 C 0.7037(6) 0.2295(5) 0.4003(5)
C68 C 0.7630(5) 0.2296(5) 0.3475(7)
H41 H 0.8100 0.2375 0.3656
C69 C 0.7521(6) 0.2179(5) 0.2676(6)
H42 H 0.7918 0.2180 0.2322
C70 C 0.6818(7) 0.2061(5) 0.2405(5)
H43 H 0.6745 0.1983 0.1870
C71 C 0.6225(5) 0.2060(5) 0.2933(7)
H44 H 0.5755 0.1981 0.2752
C72 C 0.6334(5) 0.2177(5) 0.3732(6)
H45 H 0.5937 0.2176 0.4085
C73 C 0.6778(8) 0.3062(6) 0.6725(7)
C74 C 0.6464(8) 0.3506(6) 0.6595(7)
H46 H 0.6348 0.3602 0.6078
C75 C 0.6325(9) 0.3806(5) 0.7238(10)
H47 H 0.6115 0.4103 0.7151
C76 C 0.6500(9) 0.3662(6) 0.8010(8)
H48 H 0.6406 0.3863 0.8440
C77 C 0.6813(9) 0.3219(7) 0.8140(7)
H49 H 0.6930 0.3123 0.8657
C78 C 0.6952(8) 0.2919(5) 0.7498(9)
H50 H 0.7162 0.2622 0.7585
C79 C 0.6275(7) 0.3476(5) 0.3961(8)
C80 C 0.6934(8) 0.3655(5) 0.4263(7)
H51 H 0.7041 0.3626 0.4804
C81 C 0.7433(7) 0.3878(5) 0.3754(9)
H52 H 0.7874 0.3998 0.3956
C82 C 0.7273(8) 0.3922(5) 0.2945(9)
H53 H 0.7607 0.4071 0.2605
C83 C 0.6614(9) 0.3743(6) 0.2643(7)
H54 H 0.6507 0.3772 0.2101
C84 C 0.6114(7) 0.3520(5) 0.3151(9)
H55 H 0.5673 0.3400 0.2949
C85 C 0.4968(8) 0.2352(5) 0.5919(8)
C86 C 0.5209(8) 0.2371(5) 0.6707(9)
H56 H 0.5488 0.2628 0.6883
C87 C 0.5034(10) 0.2007(7) 0.7234(7)
H57 H 0.5195 0.2020 0.7762
C88 C 0.4617(10) 0.1623(5) 0.6972(9)
H58 H 0.4499 0.1379 0.7324
C89 C 0.4376(9) 0.1603(5) 0.6183(10)
H59 H 0.4097 0.1346 0.6008
C90 C 0.4552(9) 0.1968(6) 0.5656(7)
H60 H 0.4390 0.1955 0.5129
Cu16 Cu 0.86827(11) 0.21447(9) 0.51237(13)
Cu19 Cu 0.34348(12) 0.23485(9) 0.32878(12)
N26 N 0.9094(8) 0.2837(5) 0.7508(7)
N28 N 0.2740(7) 0.2646(6) 0.4743(8)
N29 N 0.0606(8) 0.5848(5) 0.0092(7)
N11 N 0.4394(8) 0.0848(5) 0.9908(7)
C28 C 0.3620(10) 0.5284(6) 0.9992(10)
H8 H 0.3972 0.5362 0.9610
C29 C 0.2891(11) 0.5205(6) 0.9764(7)
H9 H 0.2756 0.5231 0.9229
C39 C 0.2930(14) 0.3480(8) 0.9921(12)
H17 H 0.3266 0.3408 0.9519
C40 C 0.2176(15) 0.3432(8) 0.9782(11)
H18 H 0.2008 0.3328 0.9287
C45 C 0.4523(11) 0.2933(6) 0.9392(11)
H22 H 0.4222 0.3156 0.9143
C46 C 0.5143(12) 0.2758(7) 0.9000(8)
H23 H 0.5257 0.2864 0.8487
C47 C 0.5593(10) 0.2425(7) 0.9372(11)
H24 H 0.6008 0.2308 0.9110
C55 C 0.3627(8) 0.1556(5) 0.9782(9)
C56 C 0.3628(9) 0.1584(6) 0.8952(8)
H31 H 0.3990 0.1426 0.8659
C57 C 0.3088(10) 0.1846(6) 0.8559(7)
H32 H 0.3089 0.1865 0.8004
C58 C 0.2547(9) 0.2082(6) 0.8996(10)
H33 H 0.2186 0.2257 0.8734
C59 C 0.2546(8) 0.2054(5) 0.9826(10)
Cu13 Cu 0.40208(14) 0.04848(8) 0.90281(12)
Cu6_2 Cu 0.5000 1.0000 0.03133(17)
N31 N 0.5089(8) 0.9355(5) 0.0336(7)
Cu2_2 Cu 1.0000 0.5000 0.24272(18)
Cu8 Cu 0.90208(14) 0.45152(8) 0.09719(12)
Cu9 Cu 0.59975(14) 0.68990(8) 0.20826(14)
Cu10 Cu 0.56054(15) 0.64141(9) 0.37121(15)
Cu11 Cu 0.63173(11) 0.71447(9) 0.48763(13)
Cu12 Cu 0.15652(12) 0.73485(9) 0.67122(12)
N13 N 0.8568(9) 0.4893(5) 0.1742(7)
N14 N 0.9028(9) 0.5079(5) 0.2375(7)
N15 N 0.6422(9) 0.6344(5) 0.2283(8)
N16 N 0.6296(9) 0.6117(6) 0.3044(8)
N17 N 0.5638(8) 0.7489(5) 0.1952(7)
N18 N 0.5906(8) 0.7837(5) 0.2492(7)
N19 N 0.5328(7) 0.7021(5) 0.4955(8)
N20 N 0.4991(7) 0.6740(5) 0.4355(8)
N21 N 0.2375(7) 0.7398(6) 0.5998(8)
N22 N 0.2260(7) 0.7646(6) 0.5257(8)
C91 C 0.7869(16) 0.5076(9) 0.1704(12)
C92 C 0.7872(16) 0.5423(8) 0.2373(11)
C93 C 0.8536(15) 0.5377(8) 0.2747(10)
C94 C 0.7268(17) 0.5728(9) 0.2528(13)
C95 C 0.6726(17) 0.5741(9) 0.3203(13)
C96 C 0.6941(19) 0.6077(11) 0.2037(16)
C97 C 0.5445(13) 0.7781(8) 0.1303(12)
C98 C 0.5828(13) 0.8262(7) 0.2196(12)
C99 C 0.5427(13) 0.8651(7) 0.0908(12)
C100 C 0.5830(13) 0.8748(7) 0.0208(11)
C101 C 0.4990(14) 0.9057(8) 0.0992(13)
C102 C 0.4240(10) 0.6788(7) 0.4450(12)
C103 C 0.4097(9) 0.7080(7) 0.5103(10)
C104 C 0.4803(10) 0.7248(8) 0.5349(11)
C105 C 0.3372(9) 0.7293(7) 0.5298(10)
C106 C 0.2856(9) 0.7539(7) 0.4872(10)
C107 C 0.3002(9) 0.7216(8) 0.6049(11)
C108 C 0.8789(14) 0.5616(6) 0.3534(10)
C109 C 0.8587(14) 0.6092(7) 0.3653(11)
H61 H 0.8383 0.6265 0.3234
C110 C 0.8691(14) 0.6307(8) 0.4401(10)
H62 H 0.8475 0.6598 0.4523
C111 C 0.9133(15) 0.6066(7) 0.4957(12)
H63 H 0.9313 0.6222 0.5407
C112 C 0.9297(15) 0.5590(7) 0.4826(11)
H64 H 0.9541 0.5428 0.5232
C113 C 0.9122(9) 0.5334(5) 0.4129(7)
H65 H 0.9218 0.5012 0.4067
C114 C 0.5508(9) 0.8249(5) 0.1422(7)
C115 C 0.7435(10) 0.4950(6) 0.1136(9)
C116 C 0.6706(11) 0.4871(6) 0.1364(8)
H66 H 0.6571 0.4897 0.1899
C117 C 0.6179(9) 0.4755(6) 0.0792(11)
H67 H 0.5691 0.4702 0.0944
C120 C 0.7636(9) 0.4912(6) 0.0336(10)
H70 H 0.8124 0.4964 0.0184
C121 C 0.6872(12) 0.5568(6) 0.3976(7)
C122 C 0.6900(12) 0.5856(5) 0.4650(10)
H71 H 0.6906 0.6185 0.4593
C123 C 0.6921(12) 0.5654(6) 0.5407(8)
H72 H 0.6940 0.5847 0.5858
C124 C 0.6912(13) 0.5163(7) 0.5492(8)
H73 H 0.6926 0.5028 0.5999
C125 C 0.6884(12) 0.4875(5) 0.4818(11)
H74 H 0.6878 0.4547 0.4874
C126 C 0.6863(12) 0.5077(6) 0.4060(9)
H75 H 0.6844 0.4884 0.3609
C127 C 0.7322(15) 0.6257(8) 0.1264(10)
C128 C 0.6819(11) 0.6365(8) 0.0662(14)
H76 H 0.6315 0.6333 0.0755
C131 C 0.8327(11) 0.6460(8) 0.0384(15)
H79 H 0.8831 0.6492 0.0291
C132 C 0.8076(14) 0.6305(8) 0.1125(12)
H80 H 0.8412 0.6233 0.1528
C133 C 0.5196(11) 0.7558(7) 0.0531(8)
C134 C 0.5647(10) 0.7225(7) 0.0158(11)
H81 H 0.6061 0.7108 0.0421
C138 C 0.4577(10) 0.7733(6) 0.0138(11)
H85 H 0.4275 0.7956 0.0388
C139 C 0.6072(9) 0.8666(5) 0.2702(8)
C140 C 0.5830(9) 0.8692(5) 0.3490(9)
H86 H 0.5508 0.8464 0.3689
C141 C 0.6070(10) 0.9060(6) 0.3980(7)
H87 H 0.5908 0.9077 0.4507
C142 C 0.6553(10) 0.9401(5) 0.3682(10)
H88 H 0.6713 0.9646 0.4010
C143 C 0.6795(9) 0.9374(5) 0.2894(10)
H89 H 0.7117 0.9602 0.2695
C144 C 0.6555(9) 0.9007(6) 0.2404(7)
H90 H 0.6717 0.8989 0.1877
H94 H 0.7816 0.7788 0.0119
C150 C 0.6914(10) 0.8208(6) 0.0219(7)
H95 H 0.6915 0.8227 0.0775
C151 C 0.4291(10) 0.9112(6) 0.1485(10)
C152 C 0.3637(12) 0.9253(7) 0.1120(8)
H96 H 0.3605 0.9264 0.0565
C153 C 0.3031(9) 0.9380(6) 0.1585(12)
H97 H 0.2593 0.9475 0.1340
C154 C 0.3079(9) 0.9365(7) 0.2414(12)
H98 H 0.2673 0.9449 0.2725
C155 C 0.3733(12) 0.9223(7) 0.2779(8)
H99 H 0.3765 0.9213 0.3334
C156 C 0.4339(9) 0.9097(6) 0.2315(11)
H100 H 0.4777 0.9002 0.2559
C157 C 0.2963(6) 0.7705(5) 0.4003(5)
C158 C 0.2370(5) 0.7704(5) 0.3475(7)
H101 H 0.1900 0.7625 0.3656
C159 C 0.2479(6) 0.7821(5) 0.2676(6)
H102 H 0.2082 0.7820 0.2322
C160 C 0.3182(7) 0.7939(5) 0.2405(5)
H103 H 0.3255 0.8017 0.1870
C161 C 0.3775(5) 0.7940(5) 0.2933(7)
H104 H 0.4245 0.8019 0.2752
C162 C 0.3666(5) 0.7823(5) 0.3732(6)
H105 H 0.4063 0.7824 0.4085
C163 C 0.3222(8) 0.6938(6) 0.6725(7)
C164 C 0.3536(8) 0.6494(6) 0.6595(7)
H106 H 0.3652 0.6398 0.6078
C165 C 0.3675(9) 0.6194(5) 0.7238(10)
H107 H 0.3885 0.5897 0.7151
C166 C 0.3500(9) 0.6338(6) 0.8010(8)
H108 H 0.3594 0.6137 0.8440
C167 C 0.3187(9) 0.6781(7) 0.8140(7)
H109 H 0.3070 0.6877 0.8657
C168 C 0.3048(8) 0.7081(5) 0.7498(9)
H110 H 0.2838 0.7378 0.7585
C169 C 0.3725(7) 0.6524(5) 0.3961(8)
C170 C 0.3066(8) 0.6345(5) 0.4263(7)
H111 H 0.2959 0.6374 0.4804
C171 C 0.2567(7) 0.6122(5) 0.3754(9)
H112 H 0.2126 0.6002 0.3956
C172 C 0.2727(8) 0.6078(5) 0.2945(9)
H113 H 0.2393 0.5929 0.2605
C173 C 0.3386(9) 0.6257(6) 0.2643(7)
H114 H 0.3493 0.6228 0.2101
C174 C 0.3886(7) 0.6480(5) 0.3151(9)
H115 H 0.4327 0.6600 0.2949
C175 C 0.5032(8) 0.7648(5) 0.5919(8)
C176 C 0.4791(8) 0.7629(5) 0.6707(9)
H116 H 0.4512 0.7372 0.6883
C177 C 0.4966(10) 0.7993(7) 0.7234(7)
H117 H 0.4805 0.7980 0.7762
C178 C 0.5383(10) 0.8377(5) 0.6972(9)
H118 H 0.5501 0.8621 0.7324
C179 C 0.5624(9) 0.8397(5) 0.6183(10)
H119 H 0.5903 0.8654 0.6008
C180 C 0.5448(9) 0.8032(6) 0.5656(7)
H120 H 0.5610 0.8045 0.5129
Cu15 Cu 0.13173(11) 0.78553(9) 0.51237(13)
Cu18 Cu 0.65652(12) 0.76515(9) 0.32878(12)
N25 N 0.0906(8) 0.7163(5) 0.7508(7)
N27 N 0.7260(7) 0.7354(6) 0.4743(8)
N30 N 0.9394(8) 0.4152(5) 0.0092(7)
N23 N 0.5606(8) 0.9152(5) 0.9908(7)
C118 C 0.6380(10) 0.4716(6) 0.9992(10)
H68 H 0.6028 0.4638 0.9610
C119 C 0.7109(11) 0.4795(6) 0.9764(7)
H69 H 0.7244 0.4769 0.9229
C129 C 0.7070(14) 0.6520(8) 0.9921(12)
H77 H 0.6734 0.6592 0.9519
C130 C 0.7824(15) 0.6568(8) 0.9782(11)
H78 H 0.7992 0.6672 0.9287
C135 C 0.5477(11) 0.7067(6) 0.9392(11)
H82 H 0.5778 0.6844 0.9143
C136 C 0.4857(12) 0.7242(7) 0.9000(8)
H83 H 0.4743 0.7136 0.8487
C137 C 0.4407(10) 0.7575(7) 0.9372(11)
H84 H 0.3992 0.7692 0.9110
C145 C 0.6373(8) 0.8444(5) 0.9782(9)
C146 C 0.6372(9) 0.8416(6) 0.8952(8)
H91 H 0.6010 0.8574 0.8659
C147 C 0.6912(10) 0.8154(6) 0.8559(7)
H92 H 0.6911 0.8135 0.8004
C148 C 0.7453(9) 0.7918(6) 0.8996(10)
H93 H 0.7814 0.7743 0.8734
C149 C 0.7454(8) 0.7946(5) 0.9826(10)
Cu14 Cu 0.59792(14) 0.95152(8) 0.90281(12)
N20_2 N 0.0009(7) 0.1740(5) 0.5645(8)
N21_2 N 0.2625(7) 0.2398(6) 0.4002(8)
C101_2 C 0.0010(14) 0.4057(8) 0.9008(13)
C102_2 C 0.0760(10) 0.1788(7) 0.5550(12)
C103_2 C 0.0903(9) 0.2080(7) 0.4897(10)
C104_2 C 0.0197(10) 0.2248(8) 0.4651(11)
C105_2 C 0.1628(9) 0.2293(7) 0.4702(10)
C106_2 C 0.2144(9) 0.2539(7) 0.5128(10)
C107_2 C 0.1998(9) 0.2216(8) 0.3951(11)
C138_2 C 0.0423(10) 0.2733(6) 0.9862(11)
H85_2 H 0.0725 0.2956 0.9612
C151_2 C 0.0709(10) 0.4112(6) 0.8515(10)
C152_2 C 0.1363(12) 0.4253(7) 0.8880(8)
H96_2 H 0.1395 0.4264 0.9435
C153_2 C 0.1969(9) 0.4380(6) 0.8415(12)
H97_2 H 0.2407 0.4475 0.8660
C154_2 C 0.1921(9) 0.4365(7) 0.7586(12)
H98_2 H 0.2327 0.4449 0.7275
C155_2 C 0.1267(12) 0.4223(7) 0.7221(8)
H99_2 H 0.1235 0.4213 0.6666
C156_2 C 0.0661(9) 0.4097(6) 0.7685(11)
H100_2 H 0.0223 0.4002 0.7441
C157_2 C 0.2037(6) 0.2705(5) 0.5997(5)
C158_2 C 0.2630(5) 0.2704(5) 0.6525(7)
H101_2 H 0.3100 0.2625 0.6344
C159_2 C 0.2521(6) 0.2821(5) 0.7324(6)
H102_2 H 0.2918 0.2820 0.7678
C160_2 C 0.1818(7) 0.2939(5) 0.7595(5)
H103_2 H 0.1745 0.3017 0.8130
C161_2 C 0.1225(5) 0.2940(5) 0.7067(7)
H104_2 H 0.0755 0.3019 0.7248
C162_2 C 0.1334(5) 0.2823(5) 0.6268(6)
H105_2 H 0.0937 0.2824 0.5915
C163_2 C 0.1778(8) 0.1938(6) 0.3275(7)
C164_2 C 0.1464(8) 0.1494(6) 0.3405(7)
H106_2 H 0.1348 0.1398 0.3922
C165_2 C 0.1325(9) 0.1194(5) 0.2762(10)
H107_2 H 0.1115 0.0897 0.2849
C166_2 C 0.1500(9) 0.1338(6) 0.1990(8)
H108_2 H 0.1406 0.1137 0.1560
C167_2 C 0.1813(9) 0.1781(7) 0.1860(7)
H109_2 H 0.1930 0.1877 0.1343
C168_2 C 0.1952(8) 0.2081(5) 0.2502(9)
H110_2 H 0.2162 0.2378 0.2415
C169_2 C 0.1275(7) 0.1524(5) 0.6039(8)
C170_2 C 0.1934(8) 0.1345(5) 0.5737(7)
H111_2 H 0.2041 0.1374 0.5196
C171_2 C 0.2433(7) 0.1122(5) 0.6246(9)
H112_2 H 0.2874 0.1002 0.6044
C172_2 C 0.2273(8) 0.1078(5) 0.7055(9)
H113_2 H 0.2607 0.0929 0.7395
C173_2 C 0.1614(9) 0.1257(6) 0.7357(7)
H114_2 H 0.1507 0.1228 0.7899
C174_2 C 0.1114(7) 0.1480(5) 0.6849(9)
H115_2 H 0.0673 0.1600 0.7051
C176_2 C 0.0209(8) 0.2629(5) 0.3293(9)
H116_2 H 0.0488 0.2372 0.3117
C177_2 C 0.0034(10) 0.2993(7) 0.2766(7)
H117_2 H 0.0195 0.2980 0.2238
Cu17 Cu 0.0000 0.5000 0.96867(17)
C28_2 C 0.1380(10) 0.0284(6) 0.0008(10)
H8_2 H 0.1028 0.0362 0.0390
C29_2 C 0.2109(11) 0.0205(6) 0.0236(7)
H9_2 H 0.2244 0.0231 0.0771
C129_2 C 0.7930(14) 0.1520(8) 0.0079(12)
H77_2 H 0.8266 0.1592 0.0481
C130_2 C 0.7176(15) 0.1568(8) 0.0218(11)
H78_2 H 0.7008 0.1672 0.0713
C135_2 C 0.9523(11) 0.2067(6) 0.0608(11)
H82_2 H 0.9222 0.1844 0.0857
C145_2 C 0.8627(8) 0.3444(5) 0.0218(9)
C146_2 C 0.8628(9) 0.3416(6) 0.1048(8)
H91_2 H 0.8990 0.3574 0.1341
C147_2 C 0.8088(10) 0.3154(6) 0.1441(7)
H92_2 H 0.8089 0.3135 0.1996
C148_2 C 0.7547(9) 0.2918(6) 0.1004(10)
H93_2 H 0.7186 0.2743 0.1266
C149_2 C 0.7546(8) 0.2946(5) 0.0174(10)
Cu2_3 Cu 0.5000 0.0000 0.75728(18)
N1_2 N 0.3568(9) 0.0107(5) 0.8258(7)
C25_2 C 0.2435(10) 0.0050(6) 0.8864(9)
C26_2 C 0.1706(11) 0.0129(6) 0.8636(8)
H6_2 H 0.1571 0.0103 0.8101
C27_2 C 0.1179(9) 0.0245(6) 0.9208(11)
H7_2 H 0.0691 0.0298 0.9056
C30_2 C 0.2636(9) 0.0088(6) 0.9664(10)
H10_2 H 0.3124 0.0036 0.9816
C35_2 C 0.1884(12) 0.0125(5) 0.5182(11)
H14_2 H 0.1878 0.0453 0.5126
H15_2 H 0.1844 0.0116 0.6391
Cu9_2 Cu 0.90025(14) 0.18990(8) 0.79174(14)
Cu10_2 Cu 0.93946(15) 0.14141(9) 0.62879(15)
N14_2 N 0.5972(9) 0.0079(5) 0.7625(7)
N15_2 N 0.8578(9) 0.1344(5) 0.7717(8)
N16_2 N 0.8704(9) 0.1117(6) 0.6956(8)
N17_2 N 0.9362(8) 0.2489(5) 0.8048(7)
N19_2 N 0.9672(7) 0.2021(5) 0.5045(8)
N24 N 0.9911(8) 0.4355(5) 0.9664(7)
C91_2 C 0.7131(16) 0.0076(9) 0.8296(12)
C92_2 C 0.7128(16) 0.0423(8) 0.7627(11)
C93_2 C 0.6464(15) 0.0377(8) 0.7253(10)
C94_2 C 0.7732(17) 0.0728(9) 0.7472(13)
C95_2 C 0.8274(17) 0.0741(9) 0.6797(13)
C96_2 C 0.8059(19) 0.1077(11) 0.7963(16)
C97_2 C 0.9555(13) 0.2781(8) 0.8697(12)
C98_2 C 0.9172(13) 0.3262(7) 0.7804(12)
C99_2 C 0.9573(13) 0.3651(7) 0.9092(12)
C100_2 C 0.9170(13) 0.3748(7) 0.9792(11)
C108_2 C 0.6211(14) 0.0616(6) 0.6466(10)
C109_2 C 0.6413(14) 0.1092(7) 0.6347(11)
H61_2 H 0.6617 0.1265 0.6766
C110_2 C 0.6309(14) 0.1307(8) 0.5599(10)
H62_2 H 0.6525 0.1598 0.5477
C111_2 C 0.5867(15) 0.1066(7) 0.5043(12)
H63_2 H 0.5687 0.1222 0.4593
C112_2 C 0.5703(15) 0.0590(7) 0.5174(11)
H64_2 H 0.5459 0.0428 0.4768
C113_2 C 0.5878(9) 0.0334(5) 0.5871(7)
H65_2 H 0.5782 0.0012 0.5933
C114_2 C 0.9492(9) 0.3249(5) 0.8578(7)
C121_2 C 0.8128(12) 0.0568(6) 0.6024(7)
C122_2 C 0.8100(12) 0.0856(5) 0.5350(10)
H71_2 H 0.8094 0.1185 0.5407
C123_2 C 0.8079(12) 0.0654(6) 0.4593(8)
H72_2 H 0.8060 0.0847 0.4142
C124_2 C 0.8088(13) 0.0163(7) 0.4508(8)
H73_2 H 0.8074 0.0028 0.4001
C126_2 C 0.8137(12) 0.0077(6) 0.5940(9)
C127_2 C 0.7678(15) 0.1257(8) 0.8736(10)
C128_2 C 0.8181(11) 0.1365(8) 0.9338(14)
H76_2 H 0.8685 0.1333 0.9245
C131_2 C 0.6673(11) 0.1460(8) 0.9616(15)
H79_2 H 0.6169 0.1492 0.9709
C132_2 C 0.6924(14) 0.1305(8) 0.8875(12)
H80_2 H 0.6588 0.1233 0.8472
C133_2 C 0.9804(11) 0.2558(7) 0.9469(8)
C134_2 C 0.9353(10) 0.2225(7) 0.9842(11)
H81_2 H 0.8939 0.2108 0.9579
C139_2 C 0.8928(9) 0.3666(5) 0.7298(8)
C140_2 C 0.9170(9) 0.3692(5) 0.6510(9)
H86_2 H 0.9492 0.3464 0.6311
C141_2 C 0.8930(10) 0.4060(6) 0.6020(7)
H87_2 H 0.9092 0.4077 0.5493
C142_2 C 0.8447(10) 0.4401(5) 0.6318(10)
H88_2 H 0.8287 0.4646 0.5990
C143_2 C 0.8205(9) 0.4374(5) 0.7106(10)
H89_2 H 0.7883 0.4602 0.7305
C144_2 C 0.8445(9) 0.4007(6) 0.7596(7)
H90_2 H 0.8283 0.3989 0.8123
H94_2 H 0.7184 0.2788 0.9881
C150_2 C 0.8086(10) 0.3208(6) 0.9781(7)
H95_2 H 0.8085 0.3227 0.9225
C175_2 C 0.9968(8) 0.2648(5) 0.4081(8)
C178_2 C 0.9617(10) 0.3377(5) 0.3028(9)
H118_2 H 0.9499 0.3621 0.2676
C179_2 C 0.9376(9) 0.3397(5) 0.3817(10)
H119_2 H 0.9097 0.3654 0.3992
C180_2 C 0.9552(9) 0.3032(6) 0.4344(7)
H120_2 H 0.9390 0.3045 0.4871
Cu17_2 Cu 1.0000 0.5000 0.96867(17)
C39_2 C 0.2070(14) 0.8480(8) 0.0079(12)
H17_2 H 0.1734 0.8408 0.0481
C40_2 C 0.2824(15) 0.8432(8) 0.0218(11)
H18_2 H 0.2992 0.8328 0.0713
C45_2 C 0.0477(11) 0.7933(6) 0.0608(11)
H22_2 H 0.0778 0.8156 0.0857
C55_2 C 0.1373(8) 0.6556(5) 0.0218(9)
C56_2 C 0.1372(9) 0.6584(6) 0.1048(8)
H31_2 H 0.1010 0.6426 0.1341
C57_2 C 0.1912(10) 0.6846(6) 0.1441(7)
H32_2 H 0.1911 0.6865 0.1996
C58_2 C 0.2453(9) 0.7082(6) 0.1004(10)
H33_2 H 0.2814 0.7257 0.1266
C59_2 C 0.2454(8) 0.7054(5) 0.0174(10)
C118_2 C 0.8620(10) 0.9716(6) 0.0008(10)
H68_2 H 0.8972 0.9638 0.0390
C119_2 C 0.7891(11) 0.9795(6) 0.0236(7)
H69_2 H 0.7756 0.9769 0.0771
Cu2_4 Cu 0.5000 1.0000 0.75728(18)
Cu3_2 Cu 0.09975(14) 0.81010(8) 0.79174(14)
Cu4_2 Cu 0.06054(15) 0.85859(9) 0.62879(15)
N2_2 N 0.4028(9) 0.9921(5) 0.7625(7)
N3_2 N 0.1422(9) 0.8656(5) 0.7717(8)
N4_2 N 0.1296(9) 0.8883(6) 0.6956(8)
N5_2 N 0.0638(8) 0.7511(5) 0.8048(7)
N7_2 N 0.0328(7) 0.7979(5) 0.5045(8)
N12_2 N 0.0089(8) 0.5645(5) 0.9664(7)
C1_2 C 0.2869(16) 0.9924(9) 0.8296(12)
C2_2 C 0.2872(16) 0.9577(8) 0.7627(11)
C3_2 C 0.3536(15) 0.9623(8) 0.7253(10)
C4_2 C 0.2268(17) 0.9272(9) 0.7472(13)
C5_2 C 0.1726(17) 0.9259(9) 0.6797(13)
C6_2 C 0.1941(19) 0.8923(11) 0.7963(16)
C7_2 C 0.0445(13) 0.7219(8) 0.8697(12)
C8_2 C 0.0828(13) 0.6738(7) 0.7804(12)
C9_2 C 0.0427(13) 0.6349(7) 0.9092(12)
C10_2 C 0.0830(13) 0.6252(7) 0.9792(11)
C18_2 C 0.3789(14) 0.9384(6) 0.6466(10)
C19_2 C 0.3587(14) 0.8908(7) 0.6347(11)
H1_2 H 0.3383 0.8735 0.6766
C20_2 C 0.3691(14) 0.8693(8) 0.5599(10)
H2_2 H 0.3475 0.8402 0.5477
C21_2 C 0.4133(15) 0.8934(7) 0.5043(12)
H3_2 H 0.4313 0.8778 0.4593
C22_2 C 0.4297(15) 0.9410(7) 0.5174(11)
H4_2 H 0.4541 0.9572 0.4768
C23_2 C 0.4122(9) 0.9666(5) 0.5871(7)
H5_2 H 0.4218 0.9988 0.5933
C24_2 C 0.0508(9) 0.6751(5) 0.8578(7)
C31_2 C 0.1872(12) 0.9432(6) 0.6024(7)
C32_2 C 0.1900(12) 0.9144(5) 0.5350(10)
H11_2 H 0.1906 0.8815 0.5407
C33_2 C 0.1921(12) 0.9346(6) 0.4593(8)
H12_2 H 0.1940 0.9153 0.4142
C34_2 C 0.1912(13) 0.9837(7) 0.4508(8)
H13_2 H 0.1926 0.9972 0.4001
C36_2 C 0.1863(12) 0.9923(6) 0.5940(9)
C37_2 C 0.2322(15) 0.8743(8) 0.8736(10)
C38_2 C 0.1819(11) 0.8635(8) 0.9338(14)
H16_2 H 0.1315 0.8667 0.9245
C41_2 C 0.3327(11) 0.8540(8) 0.9616(15)
H19_2 H 0.3831 0.8508 0.9709
C42_2 C 0.3076(14) 0.8695(8) 0.8875(12)
H20_2 H 0.3412 0.8767 0.8472
C43_2 C 0.0196(11) 0.7442(7) 0.9469(8)
C44_2 C 0.0647(10) 0.7775(7) 0.9842(11)
H21_2 H 0.1061 0.7892 0.9579
C49_2 C 0.1072(9) 0.6334(5) 0.7298(8)
C50_2 C 0.0830(9) 0.6308(5) 0.6510(9)
H26_2 H 0.0508 0.6536 0.6311
C51_2 C 0.1070(10) 0.5940(6) 0.6020(7)
H27_2 H 0.0908 0.5923 0.5493
C52_2 C 0.1553(10) 0.5599(5) 0.6318(10)
H28_2 H 0.1713 0.5354 0.5990
C53_2 C 0.1795(9) 0.5626(5) 0.7106(10)
H29_2 H 0.2117 0.5398 0.7305
C54_2 C 0.1555(9) 0.5993(6) 0.7596(7)
H30_2 H 0.1717 0.6011 0.8123
H34_2 H 0.2816 0.7212 0.9881
C60_2 C 0.1914(10) 0.6792(6) 0.9781(7)
H35_2 H 0.1915 0.6773 0.9225
C85_2 C 0.0032(8) 0.7352(5) 0.4081(8)
C88_2 C 0.0383(10) 0.6623(5) 0.3028(9)
H58_2 H 0.0501 0.6379 0.2676
C89_2 C 0.0624(9) 0.6603(5) 0.3817(10)
H59_2 H 0.0903 0.6346 0.3992
C90_2 C 0.0448(9) 0.6968(6) 0.4344(7)
H60_2 H 0.0610 0.6955 0.4871
N13_2 N 0.6432(9) 0.9893(5) 0.8258(7)
C115_2 C 0.7565(10) 0.9950(6) 0.8864(9)
C116_2 C 0.8294(11) 0.9871(6) 0.8636(8)
H66_2 H 0.8429 0.9897 0.8101
C117_2 C 0.8821(9) 0.9755(6) 0.9208(11)
H67_2 H 0.9309 0.9702 0.9056
C120_2 C 0.7364(9) 0.9912(6) 0.9664(10)
H70_2 H 0.6876 0.9964 0.9816
C125_2 C 0.8116(12) 0.9875(5) 0.5182(11)
H74_2 H 0.8122 0.9547 0.5126
H75_2 H 0.8156 0.9884 0.6391
N8_2 N 0.9991(7) 0.8260(5) 0.5645(8)
N9_2 N 0.7375(7) 0.7602(6) 0.4002(8)
C11_2 C 0.9990(14) 0.5943(8) 0.9008(13)
C12_2 C 0.9240(10) 0.8212(7) 0.5550(12)
C13_2 C 0.9097(9) 0.7920(7) 0.4897(10)
C14_2 C 0.9803(10) 0.7752(8) 0.4651(11)
C15_2 C 0.8372(9) 0.7707(7) 0.4702(10)
C16_2 C 0.7856(9) 0.7461(7) 0.5128(10)
C17_2 C 0.8002(9) 0.7784(8) 0.3951(11)
C48_2 C 0.9577(10) 0.7267(6) 0.9862(11)
H25_2 H 0.9275 0.7044 0.9612
C61_2 C 0.9291(10) 0.5888(6) 0.8515(10)
C62_2 C 0.8637(12) 0.5747(7) 0.8880(8)
H36_2 H 0.8605 0.5736 0.9435
C63_2 C 0.8031(9) 0.5620(6) 0.8415(12)
H37_2 H 0.7593 0.5525 0.8660
C64_2 C 0.8079(9) 0.5635(7) 0.7586(12)
H38_2 H 0.7673 0.5551 0.7275
C65_2 C 0.8733(12) 0.5777(7) 0.7221(8)
H39_2 H 0.8765 0.5787 0.6666
C66_2 C 0.9339(9) 0.5903(6) 0.7685(11)
H40_2 H 0.9777 0.5998 0.7441
C67_2 C 0.7963(6) 0.7295(5) 0.5997(5)
C68_2 C 0.7370(5) 0.7296(5) 0.6525(7)
H41_2 H 0.6900 0.7375 0.6344
C69_2 C 0.7479(6) 0.7179(5) 0.7324(6)
H42_2 H 0.7082 0.7180 0.7678
C70_2 C 0.8182(7) 0.7061(5) 0.7595(5)
H43_2 H 0.8255 0.6983 0.8130
C71_2 C 0.8775(5) 0.7060(5) 0.7067(7)
H44_2 H 0.9245 0.6981 0.7248
C72_2 C 0.8666(5) 0.7177(5) 0.6268(6)
H45_2 H 0.9063 0.7176 0.5915
C73_2 C 0.8222(8) 0.8062(6) 0.3275(7)
C74_2 C 0.8536(8) 0.8506(6) 0.3405(7)
H46_2 H 0.8652 0.8602 0.3922
C75_2 C 0.8675(9) 0.8806(5) 0.2762(10)
H47_2 H 0.8885 0.9103 0.2849
C76_2 C 0.8500(9) 0.8662(6) 0.1990(8)
H48_2 H 0.8594 0.8863 0.1560
C77_2 C 0.8187(9) 0.8219(7) 0.1860(7)
H49_2 H 0.8070 0.8123 0.1343
C78_2 C 0.8048(8) 0.7919(5) 0.2502(9)
H50_2 H 0.7838 0.7622 0.2415
C79_2 C 0.8725(7) 0.8476(5) 0.6039(8)
C80_2 C 0.8066(8) 0.8655(5) 0.5737(7)
H51_2 H 0.7959 0.8626 0.5196
C81_2 C 0.7567(7) 0.8878(5) 0.6246(9)
H52_2 H 0.7126 0.8998 0.6044
C82_2 C 0.7727(8) 0.8922(5) 0.7055(9)
H53_2 H 0.7393 0.9071 0.7395
C83_2 C 0.8386(9) 0.8743(6) 0.7357(7)
H54_2 H 0.8493 0.8772 0.7899
C84_2 C 0.8886(7) 0.8520(5) 0.6849(9)
H55_2 H 0.9327 0.8400 0.7051
C86_2 C 0.9791(8) 0.7371(5) 0.3293(9)
H56_2 H 0.9512 0.7628 0.3117
C87_2 C 0.9966(10) 0.7007(7) 0.2766(7)
H57_2 H 0.9805 0.7020 0.2238
C136_2 C 0.0143(12) 0.2242(7) 0.1000(8)
H83_2 H 0.0257 0.2136 0.1513
C137_2 C 0.0593(10) 0.2575(7) 0.0628(11)
H84_2 H 0.1008 0.2692 0.0890
C46_2 C 0.9857(12) 0.7758(7) 0.1000(8)
H23_2 H 0.9743 0.7864 0.1513
C47_2 C 0.9407(10) 0.7425(7) 0.0628(11)
H24_2 H 0.8992 0.7308 0.0890
loop_
_geom_bond_atom_site_label_1
_geom_bond_atom_site_label_2
_geom_bond_site_symmetry_1
_geom_bond_site_symmetry_2
Cu1 N1 1_555 1_555
Cu2 N2 1_555 1_555
Cu3 N3 1_555 1_555
Cu4 N4 1_555 1_555
Cu5 N7 1_555 1_555
Cu6 N12 1_555 1_555
Cu7 N9 1_555 1_555
N1 N2 1_555 1_555
N2 C3 1_555 1_555
N3 N4 1_555 1_555
N4 C5 1_555 1_555
N5 Cu3 1_555 1_555
N6 N5 1_555 1_555
N7 N8 1_555 1_555
N8 Cu4 1_555 1_555
N9 N10 1_555 1_555
N10 C16 1_555 1_555
N12 C11 1_555 1_555
C1 N1 1_555 1_555
C2 C1 1_555 1_555
C3 C2 1_555 1_555
C4 C2 1_555 1_555
C5 C4 1_555 1_555
C6 N3 1_555 1_555
C7 N5 1_555 1_555
C8 N6 1_555 1_555
C9 C10 1_555 1_555
C11 C9 1_555 1_555
C12 N8 1_555 1_555
C13 C12 1_555 1_555
C14 N7 1_555 1_555
C15 C13 1_555 1_555
C16 C15 1_555 1_555
C17 N9 1_555 1_555
C18 C3 1_555 1_555
C19 C18 1_555 1_555
H1 C19 1_555 1_555
C20 C19 1_555 1_555
H2 C20 1_555 1_555
C21 C20 1_555 1_555
H3 C21 1_555 1_555
C22 C21 1_555 1_555
H4 C22 1_555 1_555
C23 C18 1_555 1_555
H5 C23 1_555 1_555
C24 C7 1_555 1_555
C25 C1 1_555 1_555
C26 C25 1_555 1_555
H6 C26 1_555 1_555
C27 C26 1_555 1_555
H7 C27 1_555 1_555
C30 C25 1_555 1_555
H10 C30 1_555 1_555
C31 C5 1_555 1_555
C32 C31 1_555 1_555
H11 C32 1_555 1_555
C33 C32 1_555 1_555
H12 C33 1_555 1_555
C34 C33 1_555 1_555
H13 C34 1_555 1_555
C35 C34 1_555 1_555
H14 C35 1_555 1_555
C36 C31 1_555 1_555
H15 C36 1_555 1_555
C37 C6 1_555 1_555
C38 C37 1_555 1_555
H16 C38 1_555 1_555
H19 C41 1_555 1_555
C42 C37 1_555 1_555
H20 C42 1_555 1_555
C43 C7 1_555 1_555
C44 C43 1_555 1_555
H21 C44 1_555 1_555
C48 C43 1_555 1_555
H25 C48 1_555 1_555
C49 C8 1_555 1_555
C50 C49 1_555 1_555
H26 C50 1_555 1_555
C51 C50 1_555 1_555
H27 C51 1_555 1_555
C52 C51 1_555 1_555
H28 C52 1_555 1_555
C53 C52 1_555 1_555
H29 C53 1_555 1_555
C54 C49 1_555 1_555
H30 C54 1_555 1_555
H35 C60 1_555 1_555
C61 C11 1_555 1_555
C62 C61 1_555 1_555
H36 C62 1_555 1_555
C63 C62 1_555 1_555
H37 C63 1_555 1_555
C64 C63 1_555 1_555
H38 C64 1_555 1_555
C65 C64 1_555 1_555
H39 C65 1_555 1_555
C66 C61 1_555 1_555
H40 C66 1_555 1_555
C67 C16 1_555 1_555
C68 C67 1_555 1_555
H41 C68 1_555 1_555
C69 C68 1_555 1_555
H42 C69 1_555 1_555
C70 C69 1_555 1_555
H43 C70 1_555 1_555
C71 C70 1_555 1_555
H44 C71 1_555 1_555
C72 C67 1_555 1_555
H45 C72 1_555 1_555
C73 C17 1_555 1_555
C74 C73 1_555 1_555
H46 C74 1_555 1_555
C75 C74 1_555 1_555
H47 C75 1_555 1_555
C76 C75 1_555 1_555
H48 C76 1_555 1_555
C77 C76 1_555 1_555
H49 C77 1_555 1_555
C78 C73 1_555 1_555
H50 C78 1_555 1_555
C79 C12 1_555 1_555
C80 C79 1_555 1_555
H51 C80 1_555 1_555
C81 C80 1_555 1_555
H52 C81 1_555 1_555
C82 C81 1_555 1_555
H53 C82 1_555 1_555
C83 C82 1_555 1_555
H54 C83 1_555 1_555
C84 C79 1_555 1_555
H55 C84 1_555 1_555
C85 C14 1_555 1_555
C86 C85 1_555 1_555
H56 C86 1_555 1_555
C87 C86 1_555 1_555
H57 C87 1_555 1_555
C88 C87 1_555 1_555
H58 C88 1_555 1_555
C89 C88 1_555 1_555
H59 C89 1_555 1_555
C90 C85 1_555 1_555
H60 C90 1_555 1_555
Cu16 N10 1_555 1_555
Cu19 N6 1_555 1_555
N26 Cu7 1_555 1_555
N28 Cu5 1_555 1_555
N29 Cu1 1_555 1_555
C4 C6 1_555 1_555
C8 C24 1_555 1_555
C9 C24 1_555 1_555
C13 C14 1_555 1_555
C15 C17 1_555 1_555
C22 C23 1_555 1_555
C35 C36 1_555 1_555
C41 C42 1_555 1_555
C53 C54 1_555 1_555
C65 C66 1_555 1_555
C71 C72 1_555 1_555
C77 C78 1_555 1_555
C83 C84 1_555 1_555
C89 C90 1_555 1_555
H8 C28 1_555 1_555
C29 C28 1_555 1_555
H9 C29 1_555 1_555
H17 C39 1_555 1_555
C40 C39 1_555 1_555
H18 C40 1_555 1_555
H22 C45 1_555 1_555
C46 C45 1_555 1_555
H23 C46 1_555 1_555
C47 C46 1_555 1_555
H24 C47 1_555 1_555
C56 C55 1_555 1_555
H31 C56 1_555 1_555
C57 C56 1_555 1_555
H32 C57 1_555 1_555
C58 C57 1_555 1_555
H33 C58 1_555 1_555
C59 C58 1_555 1_555
Cu13 N11 1_555 1_555
N31 Cu6_2 1_555 1_555
Cu8 N13 1_555 1_555
Cu9 N15 1_555 1_555
Cu10 N16 1_555 1_555
Cu11 N19 1_555 1_555
Cu12 N21 1_555 1_555
N13 N14 1_555 1_555
N14 Cu2_2 1_555 1_555
N15 N16 1_555 1_555
N16 C95 1_555 1_555
N17 Cu9 1_555 1_555
N18 N17 1_555 1_555
N19 N20 1_555 1_555
N20 Cu10 1_555 1_555
N21 N22 1_555 1_555
N22 C106 1_555 1_555
N31 C101 1_555 1_555
C91 N13 1_555 1_555
C92 C91 1_555 1_555
C93 N14 1_555 1_555
C94 C92 1_555 1_555
C95 C94 1_555 1_555
C96 N15 1_555 1_555
C97 N17 1_555 1_555
C98 N18 1_555 1_555
C99 C100 1_555 1_555
C101 C99 1_555 1_555
C102 N20 1_555 1_555
C103 C102 1_555 1_555
C104 N19 1_555 1_555
C105 C103 1_555 1_555
C106 C105 1_555 1_555
C107 N21 1_555 1_555
C108 C93 1_555 1_555
C109 C108 1_555 1_555
H61 C109 1_555 1_555
C110 C109 1_555 1_555
H62 C110 1_555 1_555
C111 C110 1_555 1_555
H63 C111 1_555 1_555
C112 C111 1_555 1_555
H64 C112 1_555 1_555
C113 C108 1_555 1_555
H65 C113 1_555 1_555
C114 C97 1_555 1_555
C115 C91 1_555 1_555
C116 C115 1_555 1_555
H66 C116 1_555 1_555
C117 C116 1_555 1_555
H67 C117 1_555 1_555
C120 C115 1_555 1_555
H70 C120 1_555 1_555
C121 C95 1_555 1_555
C122 C121 1_555 1_555
H71 C122 1_555 1_555
C123 C122 1_555 1_555
H72 C123 1_555 1_555
C124 C123 1_555 1_555
H73 C124 1_555 1_555
C125 C124 1_555 1_555
H74 C125 1_555 1_555
C126 C121 1_555 1_555
H75 C126 1_555 1_555
C127 C96 1_555 1_555
C128 C127 1_555 1_555
H76 C128 1_555 1_555
H79 C131 1_555 1_555
C132 C127 1_555 1_555
H80 C132 1_555 1_555
C133 C97 1_555 1_555
C134 C133 1_555 1_555
H81 C134 1_555 1_555
C138 C133 1_555 1_555
H85 C138 1_555 1_555
C139 C98 1_555 1_555
C140 C139 1_555 1_555
H86 C140 1_555 1_555
C141 C140 1_555 1_555
H87 C141 1_555 1_555
C142 C141 1_555 1_555
H88 C142 1_555 1_555
C143 C142 1_555 1_555
H89 C143 1_555 1_555
C144 C139 1_555 1_555
H90 C144 1_555 1_555
H95 C150 1_555 1_555
C151 C101 1_555 1_555
C152 C151 1_555 1_555
H96 C152 1_555 1_555
C153 C152 1_555 1_555
H97 C153 1_555 1_555
C154 C153 1_555 1_555
H98 C154 1_555 1_555
C155 C154 1_555 1_555
H99 C155 1_555 1_555
C156 C151 1_555 1_555
H100 C156 1_555 1_555
C157 C106 1_555 1_555
C158 C157 1_555 1_555
H101 C158 1_555 1_555
C159 C158 1_555 1_555
H102 C159 1_555 1_555
C160 C159 1_555 1_555
H103 C160 1_555 1_555
C161 C160 1_555 1_555
H104 C161 1_555 1_555
C162 C157 1_555 1_555
H105 C162 1_555 1_555
C163 C107 1_555 1_555
C164 C163 1_555 1_555
H106 C164 1_555 1_555
C165 C164 1_555 1_555
H107 C165 1_555 1_555
C166 C165 1_555 1_555
H108 C166 1_555 1_555
C167 C166 1_555 1_555
H109 C167 1_555 1_555
C168 C163 1_555 1_555
H110 C168 1_555 1_555
C169 C102 1_555 1_555
C170 C169 1_555 1_555
H111 C170 1_555 1_555
C171 C170 1_555 1_555
H112 C171 1_555 1_555
C172 C171 1_555 1_555
H113 C172 1_555 1_555
C173 C172 1_555 1_555
H114 C173 1_555 1_555
C174 C169 1_555 1_555
H115 C174 1_555 1_555
C175 C104 1_555 1_555
C176 C175 1_555 1_555
H116 C176 1_555 1_555
C177 C176 1_555 1_555
H117 C177 1_555 1_555
C178 C177 1_555 1_555
H118 C178 1_555 1_555
C179 C178 1_555 1_555
H119 C179 1_555 1_555
C180 C175 1_555 1_555
H120 C180 1_555 1_555
Cu15 N22 1_555 1_555
Cu18 N18 1_555 1_555
N25 Cu12 1_555 1_555
N27 Cu11 1_555 1_555
N30 Cu8 1_555 1_555
C92 C93 1_555 1_555
C94 C96 1_555 1_555
C98 C114 1_555 1_555
C99 C114 1_555 1_555
C103 C104 1_555 1_555
C105 C107 1_555 1_555
C112 C113 1_555 1_555
C125 C126 1_555 1_555
C131 C132 1_555 1_555
C143 C144 1_555 1_555
C155 C156 1_555 1_555
C161 C162 1_555 1_555
C167 C168 1_555 1_555
C173 C174 1_555 1_555
C179 C180 1_555 1_555
H68 C118 1_555 1_555
C119 C118 1_555 1_555
H69 C119 1_555 1_555
H77 C129 1_555 1_555
C130 C129 1_555 1_555
H78 C130 1_555 1_555
H82 C135 1_555 1_555
C136 C135 1_555 1_555
H83 C136 1_555 1_555
C137 C136 1_555 1_555
H84 C137 1_555 1_555
C146 C145 1_555 1_555
H91 C146 1_555 1_555
C147 C146 1_555 1_555
H92 C147 1_555 1_555
C148 C147 1_555 1_555
H93 C148 1_555 1_555
C149 C148 1_555 1_555
Cu14 N23 1_555 1_555
Cu19 N21_2 1_555 1_555
N21_2 N28 1_555 1_555
N28 C106_2 1_555 1_555
C102_2 N20_2 1_555 1_555
C103_2 C102_2 1_555 1_555
C105_2 C103_2 1_555 1_555
C106_2 C105_2 1_555 1_555
C107_2 N21_2 1_555 1_555
H85_2 C138_2 1_555 1_555
C151_2 C101_2 1_555 1_555
C152_2 C151_2 1_555 1_555
H96_2 C152_2 1_555 1_555
C153_2 C152_2 1_555 1_555
H97_2 C153_2 1_555 1_555
C154_2 C153_2 1_555 1_555
H98_2 C154_2 1_555 1_555
C155_2 C154_2 1_555 1_555
H99_2 C155_2 1_555 1_555
C156_2 C151_2 1_555 1_555
H100_2 C156_2 1_555 1_555
C157_2 C106_2 1_555 1_555
C158_2 C157_2 1_555 1_555
H101_2 C158_2 1_555 1_555
C159_2 C158_2 1_555 1_555
H102_2 C159_2 1_555 1_555
C160_2 C159_2 1_555 1_555
H103_2 C160_2 1_555 1_555
C161_2 C160_2 1_555 1_555
H104_2 C161_2 1_555 1_555
C162_2 C157_2 1_555 1_555
H105_2 C162_2 1_555 1_555
C163_2 C107_2 1_555 1_555
C164_2 C163_2 1_555 1_555
H106_2 C164_2 1_555 1_555
C165_2 C164_2 1_555 1_555
H107_2 C165_2 1_555 1_555
C166_2 C165_2 1_555 1_555
H108_2 C166_2 1_555 1_555
C167_2 C166_2 1_555 1_555
H109_2 C167_2 1_555 1_555
C168_2 C163_2 1_555 1_555
H110_2 C168_2 1_555 1_555
C169_2 C102_2 1_555 1_555
C170_2 C169_2 1_555 1_555
H111_2 C170_2 1_555 1_555
C171_2 C170_2 1_555 1_555
H112_2 C171_2 1_555 1_555
C172_2 C171_2 1_555 1_555
H113_2 C172_2 1_555 1_555
C173_2 C172_2 1_555 1_555
H114_2 C173_2 1_555 1_555
C174_2 C169_2 1_555 1_555
H115_2 C174_2 1_555 1_555
H116_2 C176_2 1_555 1_555
C177_2 C176_2 1_555 1_555
H117_2 C177_2 1_555 1_555
C103_2 C104_2 1_555 1_555
C105_2 C107_2 1_555 1_555
C155_2 C156_2 1_555 1_555
C161_2 C162_2 1_555 1_555
C167_2 C168_2 1_555 1_555
C173_2 C174_2 1_555 1_555
H8_2 C28_2 1_555 1_555
C29_2 C28_2 1_555 1_555
H9_2 C29_2 1_555 1_555
H77_2 C129_2 1_555 1_555
C130_2 C129_2 1_555 1_555
H78_2 C130_2 1_555 1_555
H82_2 C135_2 1_555 1_555
C146_2 C145_2 1_555 1_555
H91_2 C146_2 1_555 1_555
C147_2 C146_2 1_555 1_555
H92_2 C147_2 1_555 1_555
C148_2 C147_2 1_555 1_555
H93_2 C148_2 1_555 1_555
C149_2 C148_2 1_555 1_555
Cu13 N1_2 1_555 1_555
C26_2 C25_2 1_555 1_555
H6_2 C26_2 1_555 1_555
C27_2 C26_2 1_555 1_555
H7_2 C27_2 1_555 1_555
C30_2 C25_2 1_555 1_555
H10_2 C30_2 1_555 1_555
H14_2 C35_2 1_555 1_555
Cu9_2 N15_2 1_555 1_555
Cu10_2 N16_2 1_555 1_555
Cu16 N19_2 1_555 1_555
N14_2 Cu2_3 1_555 1_555
N15_2 N16_2 1_555 1_555
N16_2 C95_2 1_555 1_555
N17_2 Cu9_2 1_555 1_555
N26 N17_2 1_555 1_555
C92_2 C91_2 1_555 1_555
C93_2 N14_2 1_555 1_555
C94_2 C92_2 1_555 1_555
C95_2 C94_2 1_555 1_555
C96_2 N15_2 1_555 1_555
C97_2 N17_2 1_555 1_555
C98_2 N26 1_555 1_555
C99_2 C100_2 1_555 1_555
C108_2 C93_2 1_555 1_555
C109_2 C108_2 1_555 1_555
H61_2 C109_2 1_555 1_555
C110_2 C109_2 1_555 1_555
H62_2 C110_2 1_555 1_555
C111_2 C110_2 1_555 1_555
H63_2 C111_2 1_555 1_555
C112_2 C111_2 1_555 1_555
H64_2 C112_2 1_555 1_555
C113_2 C108_2 1_555 1_555
H65_2 C113_2 1_555 1_555
C114_2 C97_2 1_555 1_555
C121_2 C95_2 1_555 1_555
C122_2 C121_2 1_555 1_555
H71_2 C122_2 1_555 1_555
C123_2 C122_2 1_555 1_555
H72_2 C123_2 1_555 1_555
C124_2 C123_2 1_555 1_555
H73_2 C124_2 1_555 1_555
C126_2 C121_2 1_555 1_555
C127_2 C96_2 1_555 1_555
C128_2 C127_2 1_555 1_555
H76_2 C128_2 1_555 1_555
H79_2 C131_2 1_555 1_555
C132_2 C127_2 1_555 1_555
H80_2 C132_2 1_555 1_555
C133_2 C97_2 1_555 1_555
C134_2 C133_2 1_555 1_555
H81_2 C134_2 1_555 1_555
C139_2 C98_2 1_555 1_555
C140_2 C139_2 1_555 1_555
H86_2 C140_2 1_555 1_555
C141_2 C140_2 1_555 1_555
H87_2 C141_2 1_555 1_555
C142_2 C141_2 1_555 1_555
H88_2 C142_2 1_555 1_555
C143_2 C142_2 1_555 1_555
H89_2 C143_2 1_555 1_555
C144_2 C139_2 1_555 1_555
H90_2 C144_2 1_555 1_555
H95_2 C150_2 1_555 1_555
H118_2 C178_2 1_555 1_555
C179_2 C178_2 1_555 1_555
H119_2 C179_2 1_555 1_555
C180_2 C175_2 1_555 1_555
H120_2 C180_2 1_555 1_555
Cu17_2 N24 1_555 1_555
C92_2 C93_2 1_555 1_555
C94_2 C96_2 1_555 1_555
C98_2 C114_2 1_555 1_555
C99_2 C114_2 1_555 1_555
C112_2 C113_2 1_555 1_555
C131_2 C132_2 1_555 1_555
C143_2 C144_2 1_555 1_555
C179_2 C180_2 1_555 1_555
H17_2 C39_2 1_555 1_555
C40_2 C39_2 1_555 1_555
H18_2 C40_2 1_555 1_555
H22_2 C45_2 1_555 1_555
C56_2 C55_2 1_555 1_555
H31_2 C56_2 1_555 1_555
C57_2 C56_2 1_555 1_555
H32_2 C57_2 1_555 1_555
C58_2 C57_2 1_555 1_555
H33_2 C58_2 1_555 1_555
C59_2 C58_2 1_555 1_555
H68_2 C118_2 1_555 1_555
C119_2 C118_2 1_555 1_555
H69_2 C119_2 1_555 1_555
Cu2_4 N2_2 1_555 1_555
Cu3_2 N3_2 1_555 1_555
Cu4_2 N4_2 1_555 1_555
Cu15 N7_2 1_555 1_555
Cu17 N12_2 1_555 1_555
N2_2 C3_2 1_555 1_555
N3_2 N4_2 1_555 1_555
N4_2 C5_2 1_555 1_555
N5_2 Cu3_2 1_555 1_555
N25 N5_2 1_555 1_555
C2_2 C1_2 1_555 1_555
C3_2 C2_2 1_555 1_555
C4_2 C2_2 1_555 1_555
C5_2 C4_2 1_555 1_555
C6_2 N3_2 1_555 1_555
C7_2 N5_2 1_555 1_555
C8_2 N25 1_555 1_555
C9_2 C10_2 1_555 1_555
C18_2 C3_2 1_555 1_555
C19_2 C18_2 1_555 1_555
H1_2 C19_2 1_555 1_555
C20_2 C19_2 1_555 1_555
H2_2 C20_2 1_555 1_555
C21_2 C20_2 1_555 1_555
H3_2 C21_2 1_555 1_555
C22_2 C21_2 1_555 1_555
H4_2 C22_2 1_555 1_555
C23_2 C18_2 1_555 1_555
H5_2 C23_2 1_555 1_555
C24_2 C7_2 1_555 1_555
C31_2 C5_2 1_555 1_555
C32_2 C31_2 1_555 1_555
H11_2 C32_2 1_555 1_555
C33_2 C32_2 1_555 1_555
H12_2 C33_2 1_555 1_555
C34_2 C33_2 1_555 1_555
H13_2 C34_2 1_555 1_555
C36_2 C31_2 1_555 1_555
C37_2 C6_2 1_555 1_555
C38_2 C37_2 1_555 1_555
H16_2 C38_2 1_555 1_555
H19_2 C41_2 1_555 1_555
C42_2 C37_2 1_555 1_555
H20_2 C42_2 1_555 1_555
C43_2 C7_2 1_555 1_555
C44_2 C43_2 1_555 1_555
H21_2 C44_2 1_555 1_555
C49_2 C8_2 1_555 1_555
C50_2 C49_2 1_555 1_555
H26_2 C50_2 1_555 1_555
C51_2 C50_2 1_555 1_555
H27_2 C51_2 1_555 1_555
C52_2 C51_2 1_555 1_555
H28_2 C52_2 1_555 1_555
C53_2 C52_2 1_555 1_555
H29_2 C53_2 1_555 1_555
C54_2 C49_2 1_555 1_555
H30_2 C54_2 1_555 1_555
H35_2 C60_2 1_555 1_555
H58_2 C88_2 1_555 1_555
C89_2 C88_2 1_555 1_555
H59_2 C89_2 1_555 1_555
C90_2 C85_2 1_555 1_555
H60_2 C90_2 1_555 1_555
Cu14 N13_2 1_555 1_555
C116_2 C115_2 1_555 1_555
H66_2 C116_2 1_555 1_555
C117_2 C116_2 1_555 1_555
H67_2 C117_2 1_555 1_555
C120_2 C115_2 1_555 1_555
H70_2 C120_2 1_555 1_555
H74_2 C125_2 1_555 1_555
C4_2 C6_2 1_555 1_555
C8_2 C24_2 1_555 1_555
C9_2 C24_2 1_555 1_555
C22_2 C23_2 1_555 1_555
C41_2 C42_2 1_555 1_555
C53_2 C54_2 1_555 1_555
C89_2 C90_2 1_555 1_555
Cu18 N9_2 1_555 1_555
N9_2 N27 1_555 1_555
N27 C16_2 1_555 1_555
C12_2 N8_2 1_555 1_555
C13_2 C12_2 1_555 1_555
C15_2 C13_2 1_555 1_555
C16_2 C15_2 1_555 1_555
C17_2 N9_2 1_555 1_555
H25_2 C48_2 1_555 1_555
C61_2 C11_2 1_555 1_555
C62_2 C61_2 1_555 1_555
H36_2 C62_2 1_555 1_555
C63_2 C62_2 1_555 1_555
H37_2 C63_2 1_555 1_555
C64_2 C63_2 1_555 1_555
H38_2 C64_2 1_555 1_555
C65_2 C64_2 1_555 1_555
H39_2 C65_2 1_555 1_555
C66_2 C61_2 1_555 1_555
H40_2 C66_2 1_555 1_555
C67_2 C16_2 1_555 1_555
C68_2 C67_2 1_555 1_555
H41_2 C68_2 1_555 1_555
C69_2 C68_2 1_555 1_555
H42_2 C69_2 1_555 1_555
C70_2 C69_2 1_555 1_555
H43_2 C70_2 1_555 1_555
C71_2 C70_2 1_555 1_555
H44_2 C71_2 1_555 1_555
C72_2 C67_2 1_555 1_555
H45_2 C72_2 1_555 1_555
C73_2 C17_2 1_555 1_555
C74_2 C73_2 1_555 1_555
H46_2 C74_2 1_555 1_555
C75_2 C74_2 1_555 1_555
H47_2 C75_2 1_555 1_555
C76_2 C75_2 1_555 1_555
H48_2 C76_2 1_555 1_555
C77_2 C76_2 1_555 1_555
H49_2 C77_2 1_555 1_555
C78_2 C73_2 1_555 1_555
H50_2 C78_2 1_555 1_555
C79_2 C12_2 1_555 1_555
C80_2 C79_2 1_555 1_555
H51_2 C80_2 1_555 1_555
C81_2 C80_2 1_555 1_555
H52_2 C81_2 1_555 1_555
C82_2 C81_2 1_555 1_555
H53_2 C82_2 1_555 1_555
C83_2 C82_2 1_555 1_555
H54_2 C83_2 1_555 1_555
C84_2 C79_2 1_555 1_555
H55_2 C84_2 1_555 1_555
H56_2 C86_2 1_555 1_555
C87_2 C86_2 1_555 1_555
H57_2 C87_2 1_555 1_555
C13_2 C14_2 1_555 1_555
C15_2 C17_2 1_555 1_555
C65_2 C66_2 1_555 1_555
C71_2 C72_2 1_555 1_555
C77_2 C78_2 1_555 1_555
C83_2 C84_2 1_555 1_555
H83_2 C136_2 1_555 1_555
C137_2 C136_2 1_555 1_555
H84_2 C137_2 1_555 1_555
H23_2 C46_2 1_555 1_555
C47_2 C46_2 1_555 1_555
H24_2 C47_2 1_555 1_555

#END
