
###############################################################################
#
# This file contains modified crystal structure data generated from the
# MOF subset of the Cambridge Structural Database (CSD) v543 
# hosted by the Cambridge Crystallographic Data Centre (CCDC).
#
# This work is licensed under the Creative Commons
# Attribution-NonCommercial-ShareAlike 4.0 International License.
# To view a copy of this license, visit
# http://creativecommons.org/licenses/by-nc-sa/4.0/
# or send a letter to
# Creative Commons, PO Box 1866, Mountain View, CA 94042, USA.
#
# CIF created using the CSD Python API on 29 September 2022
# The structure has been converted into the P1 space group
# The structure has a 3D framework
# The original CSD entry EWOVET is in the trigonal crystal system
# The original CSD entry EWOVET is in a Sohncke space group
# The framework has been calculated to contain at least 10.0% void space
# The void calculation uses a probe of radius 1.32A, grid spacing 0.4
#
###############################################################################

data_EWOVET
_chemical_formula_moiety         '(C156 H102 N36 O24 Zn11)n'
_symmetry_cell_setting           triclinic
_symmetry_space_group_name_H-M   'P 1'
_symmetry_Int_Tables_number      1
_space_group_name_Hall           'P 1'
loop_
_symmetry_equiv_pos_site_id
_symmetry_equiv_pos_as_xyz
1 x,y,z
_cell_length_a                   21.027(2)
_cell_length_b                   21.027(2)
_cell_length_c                   20.5274(10)
_cell_angle_alpha                90
_cell_angle_beta                 90
_cell_angle_gamma                120
_cell_volume                     7859.94
loop_
_atom_site_label
_atom_site_type_symbol
_atom_site_fract_x
_atom_site_fract_y
_atom_site_fract_z
Zn1 Zn 0.23710(8) 0.0000 0.8333
O1 O 0.3131(5) 0.0372(5) 0.7667(3)
N1 N 0.4146(5) 0.0927(6) 0.4234(3)
O2 O 0.2388(5) 0.1368(5) 0.1558(4)
C3 C 0.3460(7) 0.0806(7) 0.6578(4)
C4 C 0.3020(8) 0.0727(7) 0.7211(5)
C5 C 0.5078(8) 0.0746(8) 0.4721(5)
H2 H 0.5261 0.0642 0.5094
N6 N 0.7316(5) 0.0599(5) 0.3975(3)
C6 C 0.4126(7) 0.0843(7) 0.5407(5)
C7 C 0.6837(7) 0.0263(8) 0.4418(5)
C8 C 0.5048(8) 0.0862(7) 0.3595(4)
H6 H 0.5218 0.0850 0.3180
O3 O 0.3066(6) 0.1145(5) 0.0898(3)
C9 C 0.4434(6) 0.0941(7) 0.3657(4)
C10 C 0.7154(7) 0.0985(7) 0.3559(5)
H7 H 0.7477 0.1212 0.3215
O4 O 0.2616(7) 0.0981(6) 0.7217(4)
C11 C 0.6198(9) 0.0272(8) 0.4488(5)
C12 C 0.3821(8) 0.0992(9) 0.1934(4)
H9 H 0.3956 0.0960 0.1509
C13 C 0.3419(8) 0.1035(10) 0.3189(5)
H10 H 0.3261 0.1043 0.3611
C14 C 0.4490(7) 0.0838(7) 0.4774(4)
C15 C 0.5420(6) 0.0800(7) 0.4132(4)
C16 C 0.3949(9) 0.0550(9) 0.6551(5)
H11 H 0.4041 0.0352 0.6920
C17 C 0.2866(8) 0.1191(8) 0.1457(6)
C18 C 0.6053(7) 0.0718(7) 0.4065(4)
C19 C 0.3246(7) 0.1090(7) 0.2030(5)
C20 C 0.4033(8) 0.0979(8) 0.3080(4)
C21 C 0.4225(9) 0.0934(10) 0.2447(5)
H12 H 0.4622 0.0867 0.2363
C22 C 0.6594(7) 0.1071(7) 0.3592(5)
H13 H 0.6546 0.1377 0.3292
C23 C 0.4309(8) 0.0589(9) 0.5957(4)
H14 H 0.4662 0.0447 0.5936
C24 C 0.3345(12) 0.1066(10) 0.6044(5)
H15 H 0.3041 0.1270 0.6070
C25 C 0.3639(10) 0.1065(12) 0.5435(5)
H16 H 0.3498 0.1215 0.5063
C26 C 0.3021(8) 0.1082(9) 0.2629(6)
H17 H 0.2597 0.1107 0.2696
Zn3 Zn 0.23275(11) 0.16870(8) 0.06505(5)
H22 H 0.6942 0.0010 0.1949
H25 H 0.5871 0.0010 0.1858
Zn8 Zn 0.83130(8) 0.06405(8) 0.39838(5)
N13 N 0.2245(4) 0.0741(3) 0.8853(2)
N14 N 0.1521(4) 0.1934(5) 0.0759(2)
N16 N 0.3283(7) 0.2684(5) 0.0642(3)
C27 C 0.2390(4) 0.0816(3) 0.9501(2)
H18 H 0.2587 0.0579 0.9739
N9 N 0.2198(4) 0.1298(3) 0.9741(2)
N10 N 0.1934(5) 0.1521(4) 0.9241(2)
C28 C 0.1964(5) 0.1177(4) 0.8692(2)
N11 N 0.1740(8) 0.1234(6) 0.8110(3)
H20 H 0.1553 0.1511 0.8050
H21 H 0.1780 0.0994 0.7789
Zn5 Zn 0.16870(8) 0.23275(11) 0.93495(5)
Zn1_2 Zn 0.23710(8) 1.0000 0.8333
Zn2 Zn 0.06405(8) 0.83130(8) 0.60162(5)
N2 N 0.1504(3) 0.9259(3) 0.7814(2)
C1 C 0.1574(3) 0.9184(3) 0.7166(2)
H1 H 0.2008 0.9421 0.6928
N3 N 0.0900(3) 0.8702(3) 0.6926(2)
N4 N 0.0413(3) 0.8479(4) 0.7426(2)
C2 C 0.0787(3) 0.8823(4) 0.7975(2)
N5 N 0.0506(6) 0.8766(6) 0.8557(3)
H3 H 0.0042 0.8489 0.8617
H4 H 0.0786 0.9006 0.8878
H5 H 0.6932 0.9990 0.4718
H8 H 0.5861 0.9990 0.4809
N7 N 0.3219(8) 0.9073(6) 0.2433(3)
O6 O 0.1020(7) 0.8632(5) 0.5109(4)
C29 C 0.2654(10) 0.9194(7) 0.0089(4)
C31 C 0.4332(11) 0.9254(8) 0.1946(5)
H19 H 0.4619 0.9358 0.1573
N12 N 0.6717(7) 0.9401(5) 0.2692(3)
C32 C 0.3283(10) 0.9157(7) 0.1260(5)
C33 C 0.6574(11) 0.9737(8) 0.2249(5)
C34 C 0.4186(11) 0.9138(7) 0.3072(4)
H23 H 0.4368 0.9150 0.3487
O7 O 0.1921(8) 0.8855(5) 0.5769(3)
C35 C 0.3493(9) 0.9059(7) 0.3010(4)
C36 C 0.6169(10) 0.9015(7) 0.3108(5)
H24 H 0.6265 0.8788 0.3452
C37 C 0.5926(12) 0.9728(8) 0.2179(5)
C38 C 0.2829(12) 0.9008(9) 0.4733(4)
H26 H 0.2996 0.9040 0.5158
C39 C 0.2384(13) 0.8965(10) 0.3478(5)
H27 H 0.2218 0.8957 0.3056
C40 C 0.3652(10) 0.9162(7) 0.1893(4)
C41 C 0.4620(9) 0.9200(7) 0.2535(4)
C42 C 0.3399(13) 0.9450(9) 0.0116(5)
C43 C 0.1675(11) 0.8809(8) 0.5210(6)
C44 C 0.5335(10) 0.9282(7) 0.2602(4)
C45 C 0.2156(10) 0.8910(7) 0.4637(5)
C46 C 0.3054(11) 0.9021(8) 0.3587(4)
C47 C 0.3291(13) 0.9066(10) 0.4220(5)
H29 H 0.3755 0.9133 0.4304
C48 C 0.5523(10) 0.8929(7) 0.3075(5)
H30 H 0.5169 0.8623 0.3375
C49 C 0.3720(12) 0.9411(9) 0.0710(4)
H31 H 0.4215 0.9553 0.0731
C50 C 0.2279(16) 0.8934(10) 0.0623(5)
H32 H 0.1771 0.8730 0.0597
C51 C 0.2574(16) 0.8935(12) 0.1232(5)
H33 H 0.2283 0.8785 0.1604
C52 C 0.1939(12) 0.8918(9) 0.4038(6)
H34 H 0.1490 0.8893 0.3971
Zn6 Zn 0.76725(11) 0.93595(8) 0.26829(5)
O9 O 0.2759(7) 0.9628(5) 0.9000(3)
N17 N 0.0599(5) 0.7316(5) 0.6025(3)
C30 C 0.2293(11) 0.9273(7) 0.9456(5)
O8 O 0.1635(9) 0.9019(6) 0.9450(4)
H28 H 0.3689 0.9648 0.9747
Zn7 Zn 0.93595(8) 0.76725(11) 0.73171(5)
N15 N 0.9587(3) 0.8066(5) 0.5907(2)
Zn1_3 Zn -0.0000 0.23710(8) 0.1666
N2_2 N 0.0741(3) 0.2245(4) 0.1147(2)
C1_2 C 0.0816(3) 0.2390(4) 0.0499(2)
H1_2 H 0.0579 0.2587 0.0261
N3_2 N 0.1298(3) 0.2198(4) 0.0259(2)
C2_2 C 0.1177(4) 0.1964(5) 0.1308(2)
N5_2 N 0.1234(6) 0.1740(8) 0.1890(3)
H3_2 H 0.1511 0.1553 0.1950
H4_2 H 0.0994 0.1780 0.2211
O9_2 O 0.0372(5) 0.3131(9) 0.2333(3)
H5_2 H 0.0010 0.6942 0.8051
H8_2 H 0.0010 0.5871 0.8142
N7_2 N 0.0927(6) 0.4146(10) 0.5766(3)
O6_2 O 0.1368(5) 0.2388(9) 0.8442(4)
C29_2 C 0.0806(7) 0.3460(12) 0.3422(4)
C30_2 C 0.0727(7) 0.3020(13) 0.2789(5)
C31_2 C 0.0746(8) 0.5078(14) 0.5279(5)
H19_2 H 0.0642 0.5261 0.4906
C32_2 C 0.0843(7) 0.4126(12) 0.4593(5)
C33_2 C 0.0263(8) 0.6837(14) 0.5582(5)
C34_2 C 0.0862(7) 0.5048(13) 0.6405(4)
H23_2 H 0.0850 0.5218 0.6820
O7_2 O 0.1145(5) 0.3066(9) 0.9102(3)
C35_2 C 0.0941(7) 0.4434(11) 0.6343(4)
C36_2 C 0.0985(7) 0.7154(12) 0.6441(5)
H24_2 H 0.1212 0.7477 0.6785
O8_2 O 0.0981(6) 0.2616(11) 0.2783(4)
C37_2 C 0.0272(8) 0.6198(14) 0.5512(5)
C38_2 C 0.0992(9) 0.3821(15) 0.8066(4)
H26_2 H 0.0960 0.3956 0.8491
C39_2 C 0.1035(10) 0.3419(16) 0.6811(5)
H27_2 H 0.1043 0.3261 0.6389
C40_2 C 0.0838(7) 0.4490(12) 0.5226(4)
C41_2 C 0.0800(7) 0.5420(11) 0.5868(4)
C42_2 C 0.0550(9) 0.3949(16) 0.3449(5)
H28_2 H 0.0352 0.4041 0.3080
C43_2 C 0.1191(8) 0.2866(14) 0.8543(6)
C44_2 C 0.0718(7) 0.6053(12) 0.5935(4)
C45_2 C 0.1090(7) 0.3246(12) 0.7970(5)
C46_2 C 0.0979(8) 0.4033(14) 0.6920(4)
C47_2 C 0.0934(10) 0.4225(16) 0.7553(5)
H29_2 H 0.0867 0.4622 0.7637
C48_2 C 0.1071(7) 0.6594(12) 0.6408(5)
H30_2 H 0.1377 0.6546 0.6708
C49_2 C 0.0589(9) 0.4309(15) 0.4043(4)
H31_2 H 0.0447 0.4662 0.4064
C50_2 C 0.1066(10) 0.3345(19) 0.3956(5)
H32_2 H 0.1270 0.3041 0.3930
C51_2 C 0.1065(12) 0.3639(20) 0.4565(5)
H33_2 H 0.1215 0.3498 0.4937
C52_2 C 0.1082(9) 0.3021(15) 0.7371(6)
H34_2 H 0.1107 0.2597 0.7304
N17_2 N 0.2684(5) 0.3283(7) 0.9358(3)
Zn1_4 Zn 1.0000 0.23710(8) 0.1666
O1_2 O 0.9628(5) 0.2759(7) 0.1000(3)
C4_2 C 0.9273(7) 0.2293(11) 0.0544(5)
O4_2 O 0.9019(6) 0.1635(9) 0.0550(4)
H11_2 H 0.9648 0.3689 0.0253
N13_2 N 0.9259(3) 0.1504(5) 0.2186(2)
N1_2 N 0.9073(6) 0.3219(8) 0.7567(3)
O2_2 O 0.8632(5) 0.1020(7) 0.4891(4)
C3_2 C 0.9194(7) 0.2654(10) 0.9911(4)
C5_2 C 0.9254(8) 0.4332(11) 0.8054(5)
H2_2 H 0.9358 0.4619 0.8427
N6_2 N 0.9401(5) 0.6717(7) 0.7308(3)
C6_2 C 0.9157(7) 0.3283(10) 0.8740(5)
C7_2 C 0.9737(8) 0.6574(11) 0.7751(5)
C8_2 C 0.9138(7) 0.4186(11) 0.6928(4)
H6_2 H 0.9150 0.4368 0.6513
O3_2 O 0.8855(5) 0.1921(8) 0.4231(3)
C9_2 C 0.9059(7) 0.3493(9) 0.6990(4)
C10_2 C 0.9015(7) 0.6169(10) 0.6892(5)
H7_2 H 0.8788 0.6265 0.6548
C11_2 C 0.9728(8) 0.5926(12) 0.7821(5)
C12_2 C 0.9008(9) 0.2829(12) 0.5267(4)
H9_2 H 0.9040 0.2996 0.4842
C13_2 C 0.8965(10) 0.2384(13) 0.6522(5)
H10_2 H 0.8957 0.2218 0.6944
C14_2 C 0.9162(7) 0.3652(10) 0.8107(4)
C15_2 C 0.9200(7) 0.4620(9) 0.7465(4)
C16_2 C 0.9450(9) 0.3399(13) 0.9884(5)
C17_2 C 0.8809(8) 0.1675(11) 0.4790(6)
C18_2 C 0.9282(7) 0.5335(10) 0.7398(4)
C19_2 C 0.8910(7) 0.2156(10) 0.5363(5)
C20_2 C 0.9021(8) 0.3054(11) 0.6413(4)
C21_2 C 0.9066(10) 0.3291(13) 0.5780(5)
H12_2 H 0.9133 0.3755 0.5696
C22_2 C 0.8929(7) 0.5523(10) 0.6925(5)
H13_2 H 0.8623 0.5169 0.6625
C23_2 C 0.9411(9) 0.3720(12) 0.9290(4)
H14_2 H 0.9553 0.4215 0.9269
C24_2 C 0.8934(10) 0.2279(16) 0.9377(5)
H15_2 H 0.8730 0.1771 0.9403
C25_2 C 0.8935(12) 0.2574(16) 0.8768(5)
H16_2 H 0.8785 0.2283 0.8396
C26_2 C 0.8918(9) 0.1939(12) 0.5962(6)
H17_2 H 0.8893 0.1490 0.6029
C27_2 C 0.9184(3) 0.1574(5) 0.2834(2)
H18_2 H 0.9421 0.2008 0.3072
N9_2 N 0.8702(3) 0.0900(5) 0.3074(2)
N10_2 N 0.8479(4) 0.0413(6) 0.2574(2)
C28_2 C 0.8823(4) 0.0787(6) 0.2025(2)
N11_2 N 0.8766(6) 0.0506(10) 0.1443(3)
H20_2 H 0.8489 0.0042 0.1383
H21_2 H 0.9006 0.0786 0.1122
H22_2 H 0.9990 0.6932 0.5282
H25_2 H 0.9990 0.5861 0.5191
N14_2 N 0.8066(5) 0.9587(6) 0.4093(2)
Zn1_5 Zn 0.76290(8) 0.76290(8) 0.5000
O1_3 O 0.7241(7) 0.6869(5) 0.4334(3)
N1_3 N 0.6781(8) 0.5854(5) 0.0901(3)
N2_3 N 0.7755(4) 0.8496(3) 0.4481(2)
C1_3 C 0.7610(4) 0.8426(3) 0.3833(2)
H1_3 H 0.7413 0.7992 0.3595
N3_3 N 0.7802(4) 0.9100(3) 0.3593(2)
C2_3 C 0.8036(5) 0.9213(3) 0.4642(2)
C3_3 C 0.7346(10) 0.6540(7) 0.3245(4)
C4_3 C 0.7707(11) 0.6980(8) 0.3878(5)
C5_3 C 0.5668(11) 0.4922(8) 0.1388(5)
H2_3 H 0.5381 0.4739 0.1761
N5_3 N 0.8260(8) 0.9494(6) 0.5224(3)
H3_3 H 0.8447 0.9958 0.5284
H4_3 H 0.8220 0.9214 0.5545
C6_3 C 0.6717(10) 0.5874(7) 0.2074(5)
C7_3 C 0.3426(11) 0.3163(7) 0.1085(5)
H5_3 H 0.3058 0.3068 0.1385
C8_3 C 0.5814(11) 0.4952(8) 0.0262(4)
C9_3 C 0.6507(9) 0.5566(6) 0.0324(4)
C10_3 C 0.3831(10) 0.2846(7) 0.0226(5)
O4_3 O 0.8365(9) 0.7384(7) 0.3884(4)
C11_3 C 0.4074(12) 0.3802(9) 0.1155(5)
H8_3 H 0.4129 0.4139 0.1476
H10_3 H 0.7782 0.6739 0.0278
C14_3 C 0.6348(10) 0.5510(7) 0.1441(4)
C15_3 C 0.5380(9) 0.4580(6) 0.0799(4)
C16_3 C 0.6601(13) 0.6051(9) 0.3218(5)
H11_3 H 0.6311 0.5959 0.3587
C18_3 C 0.4665(10) 0.3947(7) 0.0732(4)
C22_3 C 0.4477(10) 0.3406(7) 0.0259(5)
C23_3 C 0.6280(12) 0.5691(8) 0.2624(4)
H14_3 H 0.5785 0.5338 0.2603
C24_3 C 0.7721(16) 0.6655(12) 0.2711(5)
H15_3 H 0.8229 0.6959 0.2737
C25_3 C 0.7426(16) 0.6361(10) 0.2102(5)
H16_3 H 0.7717 0.6502 0.1730
O6_3 O 0.7612(9) 0.8980(7) 0.1775(4)
H23_3 H 0.4782 0.5632 0.0153
O7_3 O 0.6934(9) 0.8079(8) 0.2435(3)
H24_3 H 0.2523 0.3735 0.0118
C38_3 C 0.6179(15) 0.7171(12) 0.1399(4)
H26_3 H 0.6044 0.7004 0.1824
C39_3 C 0.6581(16) 0.7616(13) 0.0144(5)
C43_3 C 0.7134(14) 0.8325(11) 0.1876(6)
C45_3 C 0.6754(12) 0.7844(10) 0.1303(5)
C46_3 C 0.5967(14) 0.6946(11) 0.0253(4)
C47_3 C 0.5775(16) 0.6709(13) 0.0886(5)
H29_3 H 0.5378 0.6245 0.0970
H30_3 H 0.3454 0.4831 0.0041
C52_3 C 0.6979(15) 0.8061(12) 0.0704(6)
H34_3 H 0.7403 0.8510 0.0637
O9_3 O 0.6869(9) 0.7241(7) 0.5666(3)
N13_3 N 0.8496(5) 0.7755(4) 0.5519(2)
O2_3 O 0.8980(7) 0.7612(5) 0.8225(4)
H6_3 H 0.5632 0.4782 0.9847
O3_3 O 0.8079(8) 0.6934(6) 0.7565(3)
H7_3 H 0.3735 0.2523 0.9882
C12_3 C 0.7171(12) 0.6179(8) 0.8601(4)
H9_3 H 0.7004 0.6044 0.8176
C13_3 C 0.7616(13) 0.6581(8) 0.9856(5)
C17_3 C 0.8325(11) 0.7134(8) 0.8124(6)
C19_3 C 0.7844(10) 0.6754(7) 0.8697(5)
C20_3 C 0.6946(11) 0.5967(8) 0.9747(4)
C21_3 C 0.6709(13) 0.5775(9) 0.9114(5)
H12_3 H 0.6245 0.5378 0.9030
H13_3 H 0.4831 0.3454 0.9959
C26_3 C 0.8061(12) 0.6979(8) 0.9296(6)
H17_3 H 0.8510 0.7403 0.9363
N7_3 N 0.5854(10) 0.6781(8) 0.9099(3)
C27_3 C 0.8426(5) 0.7610(4) 0.6167(2)
H18_3 H 0.7992 0.7413 0.6405
N9_3 N 0.9100(5) 0.7802(4) 0.6407(2)
C28_3 C 0.9213(6) 0.8036(5) 0.5358(2)
C29_3 C 0.6540(12) 0.7346(10) 0.6755(4)
C30_3 C 0.6980(13) 0.7707(11) 0.6122(5)
C31_3 C 0.4922(14) 0.5668(11) 0.8612(5)
H19_3 H 0.4739 0.5381 0.8239
N11_3 N 0.9494(10) 0.8260(8) 0.4776(3)
H20_3 H 0.9958 0.8447 0.4716
H21_3 H 0.9214 0.8220 0.4455
C32_3 C 0.5874(12) 0.6717(10) 0.7926(5)
C33_3 C 0.3163(14) 0.3426(11) 0.8915(5)
H22_3 H 0.3068 0.3058 0.8615
C34_3 C 0.4952(13) 0.5814(11) 0.9738(4)
C35_3 C 0.5566(11) 0.6507(9) 0.9676(4)
C36_3 C 0.2846(12) 0.3831(10) 0.9774(5)
O8_3 O 0.7384(11) 0.8365(9) 0.6116(4)
C37_3 C 0.3802(14) 0.4074(12) 0.8845(5)
H25_3 H 0.4139 0.4129 0.8524
H27_3 H 0.6739 0.7782 0.9722
C40_3 C 0.5510(12) 0.6348(10) 0.8559(4)
C41_3 C 0.4580(11) 0.5380(9) 0.9201(4)
C42_3 C 0.6051(16) 0.6601(13) 0.6782(5)
H28_3 H 0.5959 0.6311 0.6413
C44_3 C 0.3947(12) 0.4665(10) 0.9268(4)
C48_3 C 0.3406(12) 0.4477(10) 0.9741(5)
C49_3 C 0.5691(15) 0.6280(12) 0.7376(4)
H31_3 H 0.5338 0.5785 0.7397
C50_3 C 0.6655(19) 0.7721(16) 0.7289(5)
H32_3 H 0.6959 0.8229 0.7263
C51_3 C 0.6361(20) 0.7426(16) 0.7898(5)
H33_3 H 0.6502 0.7717 0.8270
loop_
_geom_bond_atom_site_label_1
_geom_bond_atom_site_label_2
_geom_bond_site_symmetry_1
_geom_bond_site_symmetry_2
Zn1 O1 1_555 1_555
O1 C4 1_555 1_555
N1 C9 1_555 1_555
O2 C17 1_555 1_555
C3 C4 1_555 1_555
C4 O4 1_555 1_555
C5 H2 1_555 1_555
N6 C7 1_555 1_555
C6 C14 1_555 1_555
C8 H6 1_555 1_555
O3 C17 1_555 1_555
C9 C8 1_555 1_555
C10 N6 1_555 1_555
H7 C10 1_555 1_555
C11 C7 1_555 1_555
C12 H9 1_555 1_555
C13 H10 1_555 1_555
C14 N1 1_555 1_555
C15 C5 1_555 1_555
C16 C3 1_555 1_555
H11 C16 1_555 1_555
C17 C19 1_555 1_555
C18 C11 1_555 1_555
C19 C12 1_555 1_555
C20 C9 1_555 1_555
C21 C12 1_555 1_555
H12 C21 1_555 1_555
C22 C10 1_555 1_555
H13 C22 1_555 1_555
C23 C6 1_555 1_555
H14 C23 1_555 1_555
C24 C3 1_555 1_555
H15 C24 1_555 1_555
C25 C6 1_555 1_555
H16 C25 1_555 1_555
C26 C13 1_555 1_555
H17 C26 1_555 1_555
Zn3 O2 1_555 1_555
Zn8 N6 1_555 1_555
N13 Zn1 1_555 1_555
N14 Zn3 1_555 1_555
N16 Zn3 1_555 1_555
C5 C14 1_555 1_555
C8 C15 1_555 1_555
O3 Zn3 1_555 1_555
C13 C20 1_555 1_555
C15 C18 1_555 1_555
C16 C23 1_555 1_555
C18 C22 1_555 1_555
C19 C26 1_555 1_555
C20 C21 1_555 1_555
C24 C25 1_555 1_555
N13 C27 1_555 1_555
C27 H18 1_555 1_555
N10 N9 1_555 1_555
C28 N13 1_555 1_555
N11 C28 1_555 1_555
H20 N11 1_555 1_555
H21 N11 1_555 1_555
Zn5 N10 1_555 1_555
C27 N9 1_555 1_555
N10 C28 1_555 1_555
Zn2 N3 1_555 1_555
N2 Zn1_2 1_555 1_555
C1 N2 1_555 1_555
H1 C1 1_555 1_555
N3 C1 1_555 1_555
N4 N3 1_555 1_555
C2 N2 1_555 1_555
N5 C2 1_555 1_555
H3 N5 1_555 1_555
H4 N5 1_555 1_555
N7 C35 1_555 1_555
O6 Zn2 1_555 1_555
C31 H19 1_555 1_555
N12 C33 1_555 1_555
C32 C40 1_555 1_555
C34 H23 1_555 1_555
O7 Zn2 1_555 1_555
C35 C34 1_555 1_555
C36 N12 1_555 1_555
H24 C36 1_555 1_555
C37 C33 1_555 1_555
C38 H26 1_555 1_555
C39 H27 1_555 1_555
C40 N7 1_555 1_555
C41 C31 1_555 1_555
C42 C29 1_555 1_555
C43 O6 1_555 1_555
C44 C37 1_555 1_555
C45 C38 1_555 1_555
C46 C35 1_555 1_555
C47 C38 1_555 1_555
H29 C47 1_555 1_555
C48 C36 1_555 1_555
H30 C48 1_555 1_555
C49 C32 1_555 1_555
H31 C49 1_555 1_555
C50 C29 1_555 1_555
H32 C50 1_555 1_555
C51 C32 1_555 1_555
H33 C51 1_555 1_555
C52 C39 1_555 1_555
H34 C52 1_555 1_555
Zn6 N12 1_555 1_555
O9 Zn1_2 1_555 1_555
N17 Zn2 1_555 1_555
N4 C2 1_555 1_555
C31 C40 1_555 1_555
C34 C41 1_555 1_555
O7 C43 1_555 1_555
C39 C46 1_555 1_555
C41 C44 1_555 1_555
C42 C49 1_555 1_555
C43 C45 1_555 1_555
C44 C48 1_555 1_555
C45 C52 1_555 1_555
C46 C47 1_555 1_555
C50 C51 1_555 1_555
O9 C30 1_555 1_555
C30 O8 1_555 1_555
N2_2 Zn1_3 1_555 1_555
C1_2 N2_2 1_555 1_555
H1_2 C1_2 1_555 1_555
N3_2 C1_2 1_555 1_555
N14 N3_2 1_555 1_555
C2_2 N2_2 1_555 1_555
N5_2 C2_2 1_555 1_555
H3_2 N5_2 1_555 1_555
H4_2 N5_2 1_555 1_555
O9_2 Zn1_3 1_555 1_555
N14 C2_2 1_555 1_555
O9_2 C30_2 1_555 1_555
N7_2 C35_2 1_555 1_555
O6_2 Zn5 1_555 1_555
C29_2 C30_2 1_555 1_555
C30_2 O8_2 1_555 1_555
C31_2 H19_2 1_555 1_555
N17 C33_2 1_555 1_555
C32_2 C40_2 1_555 1_555
C34_2 H23_2 1_555 1_555
O7_2 Zn5 1_555 1_555
C35_2 C34_2 1_555 1_555
C36_2 N17 1_555 1_555
H24_2 C36_2 1_555 1_555
C37_2 C33_2 1_555 1_555
C38_2 H26_2 1_555 1_555
C39_2 H27_2 1_555 1_555
C40_2 N7_2 1_555 1_555
C41_2 C31_2 1_555 1_555
C42_2 C29_2 1_555 1_555
H28_2 C42_2 1_555 1_555
C43_2 O6_2 1_555 1_555
C44_2 C37_2 1_555 1_555
C45_2 C38_2 1_555 1_555
C46_2 C35_2 1_555 1_555
C47_2 C38_2 1_555 1_555
H29_2 C47_2 1_555 1_555
C48_2 C36_2 1_555 1_555
H30_2 C48_2 1_555 1_555
C49_2 C32_2 1_555 1_555
H31_2 C49_2 1_555 1_555
C50_2 C29_2 1_555 1_555
H32_2 C50_2 1_555 1_555
C51_2 C32_2 1_555 1_555
H33_2 C51_2 1_555 1_555
C52_2 C39_2 1_555 1_555
H34_2 C52_2 1_555 1_555
N17_2 Zn5 1_555 1_555
C31_2 C40_2 1_555 1_555
C34_2 C41_2 1_555 1_555
O7_2 C43_2 1_555 1_555
C39_2 C46_2 1_555 1_555
C41_2 C44_2 1_555 1_555
C42_2 C49_2 1_555 1_555
C43_2 C45_2 1_555 1_555
C44_2 C48_2 1_555 1_555
C45_2 C52_2 1_555 1_555
C46_2 C47_2 1_555 1_555
C50_2 C51_2 1_555 1_555
Zn1_4 O1_2 1_555 1_555
O1_2 C4_2 1_555 1_555
C4_2 O4_2 1_555 1_555
N13_2 Zn1_4 1_555 1_555
N1_2 C9_2 1_555 1_555
O2_2 C17_2 1_555 1_555
C5_2 H2_2 1_555 1_555
N6_2 C7_2 1_555 1_555
C6_2 C14_2 1_555 1_555
C8_2 H6_2 1_555 1_555
O3_2 C17_2 1_555 1_555
C9_2 C8_2 1_555 1_555
C10_2 N6_2 1_555 1_555
H7_2 C10_2 1_555 1_555
C11_2 C7_2 1_555 1_555
C12_2 H9_2 1_555 1_555
C13_2 H10_2 1_555 1_555
C14_2 N1_2 1_555 1_555
C15_2 C5_2 1_555 1_555
C16_2 C3_2 1_555 1_555
C17_2 C19_2 1_555 1_555
C18_2 C11_2 1_555 1_555
C19_2 C12_2 1_555 1_555
C20_2 C9_2 1_555 1_555
C21_2 C12_2 1_555 1_555
H12_2 C21_2 1_555 1_555
C22_2 C10_2 1_555 1_555
H13_2 C22_2 1_555 1_555
C23_2 C6_2 1_555 1_555
H14_2 C23_2 1_555 1_555
C24_2 C3_2 1_555 1_555
H15_2 C24_2 1_555 1_555
C25_2 C6_2 1_555 1_555
H16_2 C25_2 1_555 1_555
C26_2 C13_2 1_555 1_555
H17_2 C26_2 1_555 1_555
Zn8 O2_2 1_555 1_555
N13_2 C27_2 1_555 1_555
C27_2 H18_2 1_555 1_555
N9_2 Zn8 1_555 1_555
N10_2 N9_2 1_555 1_555
C28_2 N13_2 1_555 1_555
N11_2 C28_2 1_555 1_555
H20_2 N11_2 1_555 1_555
H21_2 N11_2 1_555 1_555
Zn7 N6_2 1_555 1_555
C5_2 C14_2 1_555 1_555
C8_2 C15_2 1_555 1_555
O3_2 Zn8 1_555 1_555
C13_2 C20_2 1_555 1_555
C15_2 C18_2 1_555 1_555
C16_2 C23_2 1_555 1_555
C18_2 C22_2 1_555 1_555
C19_2 C26_2 1_555 1_555
C20_2 C21_2 1_555 1_555
C24_2 C25_2 1_555 1_555
C27_2 N9_2 1_555 1_555
N10_2 C28_2 1_555 1_555
Zn1_5 O1_3 1_555 1_555
Zn6 N3_3 1_555 1_555
O1_3 C4_3 1_555 1_555
N1_3 C9_3 1_555 1_555
N2_3 Zn1_5 1_555 1_555
C1_3 N2_3 1_555 1_555
H1_3 C1_3 1_555 1_555
N3_3 C1_3 1_555 1_555
N14_2 N3_3 1_555 1_555
C2_3 N2_3 1_555 1_555
C3_3 C4_3 1_555 1_555
C4_3 O4_3 1_555 1_555
C5_3 H2_3 1_555 1_555
N5_3 C2_3 1_555 1_555
H3_3 N5_3 1_555 1_555
H4_3 N5_3 1_555 1_555
N16 C7_3 1_555 1_555
C6_3 C14_3 1_555 1_555
C7_3 H5_3 1_555 1_555
C9_3 C8_3 1_555 1_555
C10_3 N16 1_555 1_555
C11_3 C7_3 1_555 1_555
H8_3 C11_3 1_555 1_555
C14_3 N1_3 1_555 1_555
C15_3 C5_3 1_555 1_555
C16_3 C3_3 1_555 1_555
H11_3 C16_3 1_555 1_555
C18_3 C11_3 1_555 1_555
C22_3 C10_3 1_555 1_555
C23_3 C6_3 1_555 1_555
H14_3 C23_3 1_555 1_555
C24_3 C3_3 1_555 1_555
H15_3 C24_3 1_555 1_555
C25_3 C6_3 1_555 1_555
H16_3 C25_3 1_555 1_555
O6_3 Zn6 1_555 1_555
O7_3 Zn6 1_555 1_555
C38_3 H26_3 1_555 1_555
C43_3 O6_3 1_555 1_555
C45_3 C38_3 1_555 1_555
C47_3 C38_3 1_555 1_555
H29_3 C47_3 1_555 1_555
C52_3 C39_3 1_555 1_555
H34_3 C52_3 1_555 1_555
O9_3 Zn1_5 1_555 1_555
N13_3 Zn1_5 1_555 1_555
N14_2 C2_3 1_555 1_555
C5_3 C14_3 1_555 1_555
C8_3 C15_3 1_555 1_555
C15_3 C18_3 1_555 1_555
C16_3 C23_3 1_555 1_555
C18_3 C22_3 1_555 1_555
C24_3 C25_3 1_555 1_555
O7_3 C43_3 1_555 1_555
C39_3 C46_3 1_555 1_555
C43_3 C45_3 1_555 1_555
C45_3 C52_3 1_555 1_555
C46_3 C47_3 1_555 1_555
O2_3 C17_3 1_555 1_555
O3_3 C17_3 1_555 1_555
C12_3 H9_3 1_555 1_555
C17_3 C19_3 1_555 1_555
C19_3 C12_3 1_555 1_555
C21_3 C12_3 1_555 1_555
H12_3 C21_3 1_555 1_555
C26_3 C13_3 1_555 1_555
H17_3 C26_3 1_555 1_555
Zn7 O2_3 1_555 1_555
O9_3 C30_3 1_555 1_555
N7_3 C35_3 1_555 1_555
N13_3 C27_3 1_555 1_555
C27_3 H18_3 1_555 1_555
N9_3 Zn7 1_555 1_555
N15 N9_3 1_555 1_555
C28_3 N13_3 1_555 1_555
C29_3 C30_3 1_555 1_555
C30_3 O8_3 1_555 1_555
C31_3 H19_3 1_555 1_555
N11_3 C28_3 1_555 1_555
H20_3 N11_3 1_555 1_555
H21_3 N11_3 1_555 1_555
N17_2 C33_3 1_555 1_555
C32_3 C40_3 1_555 1_555
C33_3 H22_3 1_555 1_555
C35_3 C34_3 1_555 1_555
C36_3 N17_2 1_555 1_555
C37_3 C33_3 1_555 1_555
H25_3 C37_3 1_555 1_555
C40_3 N7_3 1_555 1_555
C41_3 C31_3 1_555 1_555
C42_3 C29_3 1_555 1_555
H28_3 C42_3 1_555 1_555
C44_3 C37_3 1_555 1_555
C48_3 C36_3 1_555 1_555
C49_3 C32_3 1_555 1_555
H31_3 C49_3 1_555 1_555
C50_3 C29_3 1_555 1_555
H32_3 C50_3 1_555 1_555
C51_3 C32_3 1_555 1_555
H33_3 C51_3 1_555 1_555
O3_3 Zn7 1_555 1_555
C13_3 C20_3 1_555 1_555
C19_3 C26_3 1_555 1_555
C20_3 C21_3 1_555 1_555
C27_3 N9_3 1_555 1_555
N15 C28_3 1_555 1_555
C31_3 C40_3 1_555 1_555
C34_3 C41_3 1_555 1_555
C41_3 C44_3 1_555 1_555
C42_3 C49_3 1_555 1_555
C44_3 C48_3 1_555 1_555
C50_3 C51_3 1_555 1_555

#END
