
###############################################################################
#
# This file contains modified crystal structure data generated from the
# MOF subset of the Cambridge Structural Database (CSD) v543 
# hosted by the Cambridge Crystallographic Data Centre (CCDC).
#
# This work is licensed under the Creative Commons
# Attribution-NonCommercial-ShareAlike 4.0 International License.
# To view a copy of this license, visit
# http://creativecommons.org/licenses/by-nc-sa/4.0/
# or send a letter to
# Creative Commons, PO Box 1866, Mountain View, CA 94042, USA.
#
# CIF created using the CSD Python API on 29 September 2022
# The structure has been converted into the P1 space group
# The structure has a 3D framework
# The original CSD entry EWUCOP is in the monoclinic crystal system
# The framework has been calculated to contain at least 10.0% void space
# The void calculation uses a probe of radius 1.32A, grid spacing 0.4
#
###############################################################################

data_EWUCOP
_chemical_formula_moiety         '(C36 H16 Cu4 N16 O16)n'
_symmetry_cell_setting           triclinic
_symmetry_space_group_name_H-M   'P 1'
_symmetry_Int_Tables_number      1
_space_group_name_Hall           'P 1'
loop_
_symmetry_equiv_pos_site_id
_symmetry_equiv_pos_as_xyz
1 x,y,z
_cell_length_a                   10.922(2)
_cell_length_b                   11.402(2)
_cell_length_c                   14.654(3)
_cell_angle_alpha                90
_cell_angle_beta                 109.30(3)
_cell_angle_gamma                90
_cell_volume                     1722.34
loop_
_atom_site_label
_atom_site_type_symbol
_atom_site_fract_x
_atom_site_fract_y
_atom_site_fract_z
Cu6 Cu 0.40685(11) 0.41843(9) 0.97658(7)
N5 N 0.0376(8) 0.2519(6) 0.8812(6)
N6 N 0.1093(9) 0.1541(8) 0.8923(9)
N7 N 0.2297(9) 0.1876(7) 0.9238(8)
N8 N 0.2393(8) 0.3026(6) 0.9347(5)
C18 C 0.1176(9) 0.3439(8) 0.9074(6)
H8 H 0.0932 0.4221 0.9068
Cu5 Cu 0.40685(11) 0.08157(9) 0.47658(7)
Cu1 Cu 0.59315(11) 0.58157(9) 0.02342(7)
O1 O 0.4825(7) 0.6471(7) 0.0926(5)
O2 O 0.3224(8) 0.5163(6) 0.0505(6)
O3 O 0.4839(7) 0.8475(7) 0.4024(5)
O4 O 0.3216(7) 0.9798(6) 0.3644(5)
C1 C 0.3746(11) 0.6083(8) 0.0907(7)
C2 C 0.3005(10) 0.6753(10) 0.1410(7)
C3 C 0.1678(11) 0.6756(10) 0.1091(7)
H1 H 0.1216 0.6271 0.0584
C4 C 0.1027(9) 0.7492(7) 0.1531(7)
C5 C 0.1653(11) 0.8200(10) 0.2326(7)
H2 H 0.1196 0.8660 0.2627
C6 C 0.3007(10) 0.8175(9) 0.2642(7)
C7 C 0.3683(9) 0.7465(6) 0.2191(6)
H3 H 0.4585 0.7466 0.2411
C8 C 0.3731(11) 0.8878(9) 0.3509(7)
Cu8 Cu 0.59315(11) 0.91843(9) 0.52342(7)
O8 O 0.5161(7) 0.3475(7) 0.0976(5)
O11 O 0.6784(7) 0.4798(6) 0.1356(5)
N9 N 0.7607(8) 0.6974(6) 0.0653(5)
O5 O 0.5175(7) 0.3529(7) 0.9074(5)
O6 O 0.6776(8) 0.4837(6) 0.9495(6)
O7 O 0.5161(7) 0.1525(7) 0.5976(5)
O9 O 0.4839(7) 0.6525(7) 0.9024(5)
O10 O 0.6784(7) 0.0202(6) 0.6356(5)
O12 O 0.3216(7) 0.5202(6) 0.8644(5)
C10 C 0.6254(11) 0.3917(8) 0.9093(7)
C11 C 0.6995(10) 0.3247(10) 0.8590(7)
C12 C 0.8322(11) 0.3244(10) 0.8909(7)
H5 H 0.8784 0.3729 0.9416
C13 C 0.8973(9) 0.2508(7) 0.8469(7)
C14 C 0.8347(11) 0.1800(10) 0.7674(7)
H6 H 0.8804 0.1340 0.7373
C15 C 0.6993(10) 0.1825(9) 0.7358(7)
C16 C 0.6317(9) 0.2535(6) 0.7809(6)
H7 H 0.5415 0.2534 0.7589
C17 C 0.6269(11) 0.1122(9) 0.6491(7)
N1 N 0.9624(8) 0.7481(6) 0.1188(6)
N2 N 0.8907(9) 0.8459(8) 0.1077(9)
N3 N 0.7703(9) 0.8124(7) 0.0762(8)
C9 C 0.8824(9) 0.6561(8) 0.0926(6)
H4 H 0.9068 0.5779 0.0932
N1_2 N 0.0376(8) 0.2481(6) 0.3812(6)
N2_2 N 0.1093(9) 0.3459(8) 0.3923(9)
N3_2 N 0.2297(9) 0.3124(7) 0.4238(8)
N4 N 0.2393(8) 0.1974(6) 0.4347(5)
C9_2 C 0.1176(9) 0.1561(8) 0.4074(6)
H4_2 H 0.0932 0.0779 0.4068
O1_2 O 0.5175(7) 0.1471(7) 0.4074(5)
O2_2 O 0.6776(8) 0.0163(6) 0.4495(6)
C1_2 C 0.6254(11) 0.1083(8) 0.4093(7)
C2_2 C 0.6995(10) 0.1753(10) 0.3590(7)
C3_2 C 0.8322(11) 0.1756(10) 0.3909(7)
H1_2 H 0.8784 0.1271 0.4416
C4_2 C 0.8973(9) 0.2492(7) 0.3469(7)
C5_2 C 0.8347(11) 0.3200(10) 0.2674(7)
H2_2 H 0.8804 0.3660 0.2373
C6_2 C 0.6993(10) 0.3175(9) 0.2358(7)
C7_2 C 0.6317(9) 0.2465(6) 0.2809(6)
H3_2 H 0.5415 0.2466 0.2589
C8_2 C 0.6269(11) 0.3878(9) 0.1491(7)
O5_2 O 0.4825(7) 0.8529(7) 0.5926(5)
O6_2 O 0.3224(8) 0.9837(6) 0.5505(6)
N10 N 0.7607(8) 0.8026(6) 0.5653(5)
C10_2 C 0.3746(11) 0.8917(8) 0.5907(7)
C11_2 C 0.3005(10) 0.8247(10) 0.6410(7)
C12_2 C 0.1678(11) 0.8244(10) 0.6091(7)
H5_2 H 0.1216 0.8729 0.5584
C13_2 C 0.1027(9) 0.7508(7) 0.6531(7)
C14_2 C 0.1653(11) 0.6800(10) 0.7326(7)
H6_2 H 0.1196 0.6340 0.7627
C15_2 C 0.3007(10) 0.6825(9) 0.7642(7)
C16_2 C 0.3683(9) 0.7535(6) 0.7191(6)
H7_2 H 0.4585 0.7534 0.7411
C17_2 C 0.3731(11) 0.6122(9) 0.8509(7)
N5_2 N 0.9624(8) 0.7519(6) 0.6188(6)
N6_2 N 0.8907(9) 0.6541(8) 0.6077(9)
N7_2 N 0.7703(9) 0.6876(7) 0.5762(8)
C18_2 C 0.8824(9) 0.8439(8) 0.5926(6)
H8_2 H 0.9068 0.9221 0.5932
loop_
_geom_bond_atom_site_label_1
_geom_bond_atom_site_label_2
_geom_bond_site_symmetry_1
_geom_bond_site_symmetry_2
Cu6 N8 1_555 1_555
N5 N6 1_555 1_555
N6 N7 1_555 1_555
N7 N8 1_555 1_555
N8 C18 1_555 1_555
C18 N5 1_555 1_555
H8 C18 1_555 1_555
Cu1 O1 1_555 1_555
O1 C1 1_555 1_555
O2 C1 1_555 1_555
O3 C8 1_555 1_555
O4 C8 1_555 1_555
C1 C2 1_555 1_555
C2 C3 1_555 1_555
C3 H1 1_555 1_555
C5 C4 1_555 1_555
H2 C5 1_555 1_555
C6 C5 1_555 1_555
C7 C2 1_555 1_555
H3 C7 1_555 1_555
C8 C6 1_555 1_555
Cu8 O3 1_555 1_555
O11 Cu1 1_555 1_555
N9 Cu1 1_555 1_555
C3 C4 1_555 1_555
C6 C7 1_555 1_555
O5 Cu6 1_555 1_555
O7 Cu5 1_555 1_555
O10 C17 1_555 1_555
O12 Cu6 1_555 1_555
C10 O5 1_555 1_555
C11 C10 1_555 1_555
C12 C11 1_555 1_555
H5 C12 1_555 1_555
C14 C13 1_555 1_555
H6 C14 1_555 1_555
C15 C14 1_555 1_555
C16 C11 1_555 1_555
H7 C16 1_555 1_555
C17 O7 1_555 1_555
O6 C10 1_555 1_555
C12 C13 1_555 1_555
C15 C16 1_555 1_555
C15 C17 1_555 1_555
N1 N2 1_555 1_555
N2 N3 1_555 1_555
N3 N9 1_555 1_555
N9 C9 1_555 1_555
C9 N1 1_555 1_555
H4 C9 1_555 1_555
N1_2 N2_2 1_555 1_555
N2_2 N3_2 1_555 1_555
N3_2 N4 1_555 1_555
N4 C9_2 1_555 1_555
C9_2 N1_2 1_555 1_555
H4_2 C9_2 1_555 1_555
Cu5 N4 1_555 1_555
Cu5 O1_2 1_555 1_555
O1_2 C1_2 1_555 1_555
O2_2 C1_2 1_555 1_555
O8 C8_2 1_555 1_555
O11 C8_2 1_555 1_555
C1_2 C2_2 1_555 1_555
C2_2 C3_2 1_555 1_555
C3_2 H1_2 1_555 1_555
C5_2 C4_2 1_555 1_555
H2_2 C5_2 1_555 1_555
C6_2 C5_2 1_555 1_555
C7_2 C2_2 1_555 1_555
H3_2 C7_2 1_555 1_555
C8_2 C6_2 1_555 1_555
C3_2 C4_2 1_555 1_555
C6_2 C7_2 1_555 1_555
O5_2 Cu8 1_555 1_555
O12 C17_2 1_555 1_555
N10 Cu8 1_555 1_555
C10_2 O5_2 1_555 1_555
C11_2 C10_2 1_555 1_555
C12_2 C11_2 1_555 1_555
H5_2 C12_2 1_555 1_555
C14_2 C13_2 1_555 1_555
H6_2 C14_2 1_555 1_555
C15_2 C14_2 1_555 1_555
C16_2 C11_2 1_555 1_555
H7_2 C16_2 1_555 1_555
C17_2 O9 1_555 1_555
O6_2 C10_2 1_555 1_555
C12_2 C13_2 1_555 1_555
C15_2 C16_2 1_555 1_555
C15_2 C17_2 1_555 1_555
N5_2 N6_2 1_555 1_555
N6_2 N7_2 1_555 1_555
N7_2 N10 1_555 1_555
N10 C18_2 1_555 1_555
C18_2 N5_2 1_555 1_555
H8_2 C18_2 1_555 1_555

#END
