
###############################################################################
#
# This file contains modified crystal structure data generated from the
# MOF subset of the Cambridge Structural Database (CSD) v543 
# hosted by the Cambridge Crystallographic Data Centre (CCDC).
#
# This work is licensed under the Creative Commons
# Attribution-NonCommercial-ShareAlike 4.0 International License.
# To view a copy of this license, visit
# http://creativecommons.org/licenses/by-nc-sa/4.0/
# or send a letter to
# Creative Commons, PO Box 1866, Mountain View, CA 94042, USA.
#
# CIF created using the CSD Python API on 29 September 2022
# The structure has been converted into the P1 space group
# The structure has a 3D framework
# The original CSD entry EWUKOZ is in the monoclinic crystal system
# The framework has been calculated to contain at least 10.0% void space
# The void calculation uses a probe of radius 1.32A, grid spacing 0.4
# H atom positions have been added when not included in the experimental data
#
###############################################################################

data_EWUKOZ
_chemical_formula_moiety         '(C328 H296 B4 Cu4 F16 Mn10 N48 O48)n'
_symmetry_cell_setting           triclinic
_symmetry_space_group_name_H-M   'P 1'
_symmetry_Int_Tables_number      1
_space_group_name_Hall           'P 1'
loop_
_symmetry_equiv_pos_site_id
_symmetry_equiv_pos_as_xyz
1 x,y,z
_cell_length_a                   12.356(3)
_cell_length_b                   34.639(7)
_cell_length_c                   25.985(5)
_cell_angle_alpha                90
_cell_angle_beta                 96.94(3)
_cell_angle_gamma                90
_cell_volume                     11040.1
loop_
_atom_site_label
_atom_site_type_symbol
_atom_site_fract_x
_atom_site_fract_y
_atom_site_fract_z
C40 C 0.0142(3) 0.57548(11) 0.30815(14)
C43 C 0.0971(3) 0.59755(11) 0.33552(14)
C46 C 0.0456(3) 0.62195(10) 0.36702(14)
C49 C 0.0225(3) 0.54446(13) 0.26901(17)
H37 H 0.028616 0.519314 0.286408
H38 H 0.087209 0.548888 0.251383
C52 C 0.0924(3) 0.65031(13) 0.40675(16)
H46 H 0.062214 0.675982 0.398056
H47 H 0.171834 0.651032 0.407430
H48 H 0.073897 0.642569 0.440901
C55 C 0.2152(3) 0.59464(11) 0.33270(15)
C58 C 0.2654(3) 0.55867(12) 0.33706(17)
H55 H 0.224346 0.536735 0.345014
C61 C 0.3743(3) 0.55414(12) 0.33004(16)
H58 H 0.406240 0.529165 0.332040
C64 C 0.4368(3) 0.58620(12) 0.32006(16)
C67 C 0.3886(3) 0.62272(12) 0.31802(16)
H61 H 0.430881 0.644848 0.312162
C70 C 0.2789(3) 0.62694(12) 0.32450(16)
H64 H 0.247184 0.651943 0.323350
C73 C 0.5513(3) 0.58010(12) 0.30953(14)
O7 O 0.58264(19) 0.54550(8) 0.30322(9)
O10 O 0.61559(18) 0.60819(8) 0.30813(11)
Mn7 Mn 0.53455(3) 0.49542(2) 0.25097(2)
Mn11 Mn 0.75613(4) 0.55516(2) 0.30588(2)
C44 C 0.0169(2) 0.61188(11) 0.82404(14)
H41 H 0.017505 0.548364 0.762217
C53 C 0.0088(3) 0.67445(13) 0.87860(19)
H50 H 0.088475 0.674695 0.880418
C56 C 0.1363(2) 0.60786(11) 0.82058(14)
C59 C 0.1865(3) 0.57252(12) 0.83239(14)
H56 H 0.145676 0.552054 0.844902
C62 C 0.2956(3) 0.56658(12) 0.82622(14)
H59 H 0.328473 0.542177 0.834182
C65 C 0.3558(2) 0.59631(12) 0.80846(14)
C68 C 0.3067(3) 0.63243(12) 0.79740(16)
H62 H 0.348276 0.653203 0.786207
C71 C 0.1968(3) 0.63775(13) 0.80288(16)
H65 H 0.163233 0.661974 0.794456
C74 C 0.4719(3) 0.58945(12) 0.79988(13)
O8 O 0.50550(17) 0.55428(7) 0.80220(9)
O11 O 0.53519(18) 0.61663(8) 0.79321(10)
Mn6 Mn 0.67763(4) 0.56753(2) 0.80335(2)
Mn10 Mn 0.46545(3) 0.50458(2) 0.74903(2)
Mn12 Mn 0.24387(4) 0.05516(2) 0.19412(2)
Mn1 Mn 0.32237(4) 0.43247(2) 0.19665(2)
C1 C 0.8474(2) 0.62784(10) 0.38216(13)
H1 H 0.786722 0.635079 0.355453
H2 H 0.869665 0.651214 0.402662
N1 N 0.8095(2) 0.59867(8) 0.41616(11)
N4 N 0.7526(2) 0.56842(9) 0.39367(11)
C4 C 0.7160(3) 0.54898(11) 0.43293(13)
C7 C 0.7490(3) 0.56764(11) 0.48035(13)
C9 C 0.0232(3) 0.65020(13) 0.13803(19)
C10 C 0.8105(3) 0.59895(11) 0.46852(13)
C12 C 0.0195(3) 0.67648(12) 0.09747(18)
C13 C 0.6496(3) 0.51361(13) 0.42357(16)
H7 H 0.575190 0.518680 0.431279
H8 H 0.681777 0.492830 0.446018
H9 H 0.647754 0.505859 0.387201
C16 C 0.8687(4) 0.62863(13) 0.50249(16)
H16 H 0.946429 0.622134 0.508645
H17 H 0.838473 0.629425 0.535637
H18 H 0.859814 0.653925 0.485630
H20 H 0.787035 0.658186 0.020710
C18 C 0.0873(4) 0.67916(15) 0.05468(19)
H22 H 0.040585 0.683810 0.022047
H23 H 0.127365 0.654939 0.052206
H24 H 0.139174 0.700509 0.061352
C19 C 0.7213(3) 0.55826(12) 0.53256(14)
C20 C 0.6974(3) 0.58151(11) 0.03028(13)
C21 C 0.0983(3) 0.61744(13) 0.14782(18)
C22 C 0.8012(3) 0.55505(12) 0.57513(14)
H25 H 0.875957 0.554974 0.569864
C23 C 0.7891(3) 0.58618(12) 0.06664(14)
H26 H 0.853492 0.596873 0.055834
C24 C 0.1750(4) 0.61759(14) 0.1912(2)
H27 H 0.180512 0.639446 0.213409
C25 C 0.7728(3) 0.55195(12) 0.62534(15)
H28 H 0.827964 0.550926 0.654127
C26 C 0.7891(3) 0.57573(13) 0.11778(15)
H29 H 0.852025 0.579977 0.141951
C27 C 0.2436(4) 0.58665(14) 0.20274(19)
H30 H 0.297344 0.587694 0.232123
C28 C 0.6638(3) 0.55038(11) 0.63312(13)
C29 C 0.6957(3) 0.55876(11) 0.13411(14)
C30 C 0.2346(3) 0.55365(12) 0.17136(15)
C31 C 0.5845(3) 0.55024(12) 0.59048(14)
H31 H 0.510066 0.547412 0.595570
C32 C 0.6041(3) 0.55398(12) 0.09788(14)
H32 H 0.540261 0.542666 0.108425
C33 C 0.1604(3) 0.55358(14) 0.12875(19)
H33 H 0.153518 0.531365 0.107151
C34 C 0.6118(3) 0.55411(12) 0.54106(15)
H34 H 0.556228 0.553990 0.512407
C35 C 0.6040(3) 0.56520(12) 0.04753(14)
H35 H 0.539857 0.561956 0.023793
C36 C 0.0925(4) 0.58594(14) 0.1155(2)
H36 H 0.043185 0.585831 0.084509
C37 C 0.6321(3) 0.54823(11) 0.68747(14)
C38 C 0.6912(3) 0.54641(11) 0.18897(13)
C39 C 0.3030(3) 0.51882(11) 0.18765(14)
O1 O 0.5427(2) 0.53359(8) 0.69149(10)
O2 O 0.7581(2) 0.56148(8) 0.22436(10)
O3 O 0.3892(2) 0.52392(8) 0.21715(11)
O4 O 0.6974(2) 0.56149(9) 0.72373(10)
O5 O 0.6205(2) 0.52236(8) 0.19590(10)
O6 O 0.2656(2) 0.48695(8) 0.17053(10)
N7 N 0.9379(2) 0.61422(8) 0.35713(11)
N10 N 0.9164(2) 0.58575(8) 0.32088(11)
C45 C 0.0067(4) 0.82509(13) 0.13839(18)
C48 C 0.0116(3) 0.79855(13) 0.10044(17)
H39 H 0.957253 0.544787 0.243512
C54 C 0.0807(4) 0.79874(14) 0.05754(19)
H52 H 0.145215 0.782621 0.067009
H53 H 0.103548 0.825236 0.051235
H54 H 0.038927 0.788475 0.026047
C57 C 0.0676(3) 0.86135(12) 0.14854(17)
C60 C 0.1796(4) 0.86238(14) 0.1608(2)
H57 H 0.220384 0.839137 0.160622
C63 C 0.2330(3) 0.89679(13) 0.17342(17)
H60 H 0.309895 0.896711 0.182282
C66 C 0.1766(3) 0.93147(11) 0.17337(14)
C69 C 0.0641(3) 0.93013(12) 0.15981(16)
H63 H 0.023356 0.953455 0.158228
C72 C 0.0110(3) 0.89599(13) 0.14875(19)
C75 C 0.2332(3) 0.96830(12) 0.18938(13)
O9 O 0.3277(2) 0.96551(9) 0.21101(11)
O12 O 0.1805(2) 0.99958(8) 0.18059(10)
Mn8 Mn 0.46545(3) 0.99542(2) 0.24903(2)
N13 N 0.3214(2) 0.41144(9) 0.11165(10)
O13 O 0.4573(2) 0.46641(8) 0.30851(10)
O14 O 0.3026(2) 0.43851(9) 0.27627(10)
N14 N 0.1612(2) 0.40243(9) 0.18538(10)
O16 O 0.49450(17) 0.44572(7) 0.19780(9)
O17 O 0.6723(2) 0.46551(9) 0.28899(11)
O18 O 0.46481(18) 0.38337(8) 0.20679(10)
O19 O 0.8195(2) 0.49958(8) 0.31941(10)
C2 C 0.7641(3) 0.64695(10) 0.86486(13)
H3 H 0.784198 0.672550 0.880040
H4 H 0.702285 0.650592 0.837276
N2 N 0.73090(19) 0.62213(8) 0.90430(10)
N5 N 0.6786(2) 0.58856(9) 0.88835(10)
C5 C 0.6585(3) 0.57046(10) 0.93078(12)
C8 C 0.6992(2) 0.59263(10) 0.97556(13)
C11 C 0.7433(2) 0.62538(10) 0.95619(13)
C14 C 0.6014(3) 0.53299(12) 0.92865(15)
H10 H 0.547057 0.533133 0.953186
H11 H 0.654213 0.512282 0.937846
H12 H 0.564911 0.528677 0.893493
C17 C 0.7943(4) 0.66002(13) 0.98365(15)
H19 H 0.871677 0.661163 0.978871
H21 H 0.757516 0.683421 0.969344
N8 N 0.8570(2) 0.63074(8) 0.84225(11)
N11 N 0.8388(2) 0.59757(9) 0.81462(10)
C41 C 0.9357(2) 0.58536(11) 0.80418(13)
C47 C 0.9644(2) 0.63978(11) 0.84827(14)
C50 C 0.9476(3) 0.54856(12) 0.77644(16)
H40 H 0.945122 0.526943 0.800606
H42 H 0.887963 0.546004 0.748135
H49 H 0.979101 0.698006 0.861406
H51 H 0.987760 0.673244 0.913737
C1_2 C 0.1526(2) 0.12784(10) 0.11784(13)
H1_2 H 0.213278 0.135079 0.144547
H2_2 H 0.130335 0.151214 0.097338
C2_2 C 0.2359(3) 0.14695(10) 0.63514(13)
H3_2 H 0.215802 0.172550 0.619960
H4_2 H 0.297715 0.150592 0.662724
N1_2 N 0.1905(2) 0.09867(8) 0.08384(11)
N2_2 N 0.26910(19) 0.12213(8) 0.59570(10)
N4_2 N 0.2474(2) 0.06842(9) 0.10633(11)
N5_2 N 0.3214(2) 0.08856(9) 0.61165(10)
C4_2 C 0.2840(3) 0.04898(11) 0.06707(13)
C5_2 C 0.3415(3) 0.07046(10) 0.56922(12)
C7_2 C 0.2510(3) 0.06764(11) 0.01965(13)
C8_2 C 0.3008(2) 0.09263(10) 0.52444(13)
C9_2 C 0.9768(3) 0.15020(13) 0.36197(19)
C10_2 C 0.1895(3) 0.09895(11) 0.03148(13)
C11_2 C 0.2567(2) 0.12538(10) 0.54381(13)
C12_2 C 0.9805(3) 0.17648(12) 0.40253(18)
C13_2 C 0.3504(3) 0.01361(13) 0.07643(16)
H7_2 H 0.424810 0.018680 0.068721
H9_2 H 0.352246 0.005859 0.112799
C14_2 C 0.3986(3) 0.03299(12) 0.57135(15)
H10_2 H 0.452943 0.033133 0.546814
H11_2 H 0.345787 0.012282 0.562154
H12_2 H 0.435089 0.028677 0.606507
H18_2 H 0.140186 0.153925 0.014370
C17_2 C 0.2057(4) 0.16002(13) 0.51635(15)
H19_2 H 0.128323 0.161163 0.521129
H20_2 H 0.212965 0.158186 0.479290
H21_2 H 0.242484 0.183421 0.530656
C18_2 C 0.9127(4) 0.17916(15) 0.44532(19)
H22_2 H 0.959415 0.183810 0.477953
H23_2 H 0.872635 0.154939 0.447794
H24_2 H 0.860826 0.200509 0.438648
C20_2 C 0.3026(3) 0.08151(11) 0.46972(13)
C21_2 C 0.9017(3) 0.11744(13) 0.35218(18)
C23_2 C 0.2109(3) 0.08618(12) 0.43336(14)
H26_2 H 0.146508 0.096873 0.444166
C24_2 C 0.8250(4) 0.11759(14) 0.3088(2)
H27_2 H 0.819488 0.139446 0.286591
C26_2 C 0.2109(3) 0.07573(13) 0.38222(15)
H29_2 H 0.147975 0.079977 0.358049
C27_2 C 0.7564(4) 0.08665(14) 0.29726(19)
H30_2 H 0.702656 0.087694 0.267877
C29_2 C 0.3043(3) 0.05876(11) 0.36589(14)
C30_2 C 0.7654(3) 0.05365(12) 0.32864(15)
C32_2 C 0.3959(3) 0.05398(12) 0.40212(14)
H32_2 H 0.459739 0.042666 0.391575
C33_2 C 0.8396(3) 0.05358(14) 0.37125(19)
H33_2 H 0.846482 0.031365 0.392849
C35_2 C 0.3960(3) 0.06520(12) 0.45247(14)
H35_2 H 0.460143 0.061956 0.476207
C36_2 C 0.9075(4) 0.08594(14) 0.3845(2)
H36_2 H 0.956815 0.085831 0.415491
C38_2 C 0.3088(3) 0.04641(11) 0.31103(13)
C39_2 C 0.6970(3) 0.01882(11) 0.31235(14)
O2_2 O 0.2419(2) 0.06148(8) 0.27564(10)
O3_2 O 0.6108(2) 0.02392(8) 0.28285(11)
O5_2 O 0.3795(2) 0.02236(8) 0.30410(10)
N7_2 N 0.0621(2) 0.11422(8) 0.14287(11)
N8_2 N 0.1430(2) 0.13074(8) 0.65775(11)
N10_2 N 0.0836(2) 0.08575(8) 0.17912(11)
N11_2 N 0.1612(2) 0.09757(9) 0.68538(10)
C41_2 C 0.0643(2) 0.08536(11) 0.69582(13)
C45_2 C 0.9933(4) 0.32509(13) 0.36161(18)
C47_2 C 0.0356(2) 0.13978(11) 0.65173(14)
C48_2 C 0.9884(3) 0.29855(13) 0.39956(17)
H39_2 H 0.042747 0.044787 0.256488
C50_2 C 0.0524(3) 0.04856(12) 0.72356(16)
H40_2 H 0.054878 0.026943 0.699394
H42_2 H 0.112037 0.046004 0.751865
H49_2 H 0.020899 0.198006 0.638594
H51_2 H 0.012240 0.173244 0.586263
C54_2 C 0.9193(4) 0.29874(14) 0.44246(19)
H52_2 H 0.854785 0.282621 0.432991
H53_2 H 0.896452 0.325236 0.448765
H54_2 H 0.961073 0.288475 0.473953
C57_2 C 0.9324(3) 0.36135(12) 0.35146(17)
C60_2 C 0.8204(4) 0.36238(14) 0.3392(2)
H57_2 H 0.779616 0.339137 0.339378
C63_2 C 0.7670(3) 0.39679(13) 0.32658(17)
H60_2 H 0.690105 0.396711 0.317718
C66_2 C 0.8234(3) 0.43147(11) 0.32663(14)
C69_2 C 0.9359(3) 0.43013(12) 0.34019(16)
H63_2 H 0.976644 0.453455 0.341772
C72_2 C 0.9890(3) 0.39599(13) 0.35125(19)
C75_2 C 0.7668(3) 0.46830(12) 0.31062(13)
Mn4 Mn 0.32237(4) 0.06753(2) 0.69665(2)
O15 O 0.41736(19) 0.04550(8) 0.19678(9)
C16_2 C 0.1313(4) 0.12863(13) 0.99751(16)
H16_2 H 0.053571 0.122134 0.991355
H17_2 H 0.161527 0.129425 0.964363
C19_2 C 0.2787(3) 0.05826(12) 0.96744(14)
C22_2 C 0.1988(3) 0.05505(12) 0.92487(14)
H25_2 H 0.124043 0.054974 0.930136
C25_2 C 0.2272(3) 0.05195(12) 0.87466(15)
H28_2 H 0.172036 0.050926 0.845873
C28_2 C 0.3362(3) 0.05038(11) 0.86688(13)
C31_2 C 0.4155(3) 0.05024(12) 0.90952(14)
H31_2 H 0.489934 0.047412 0.904430
C34_2 C 0.3882(3) 0.05411(12) 0.95894(15)
H34_2 H 0.443772 0.053990 0.987593
C37_2 C 0.3679(3) 0.04823(11) 0.81253(14)
O1_2 O 0.4573(2) 0.03359(8) 0.80851(10)
O4_2 O 0.3026(2) 0.06149(9) 0.77627(10)
Mn9 Mn 0.53455(3) 0.00458(2) 0.75097(2)
Mn1_2 Mn 0.67763(4) 0.93247(2) 0.30335(2)
H8_2 H 0.318223 0.992830 0.053982
O6_2 O 0.7344(2) 0.98695(8) 0.32947(10)
N13_2 N 0.6786(2) 0.91144(9) 0.38835(10)
O13_2 O 0.5427(2) 0.96641(8) 0.19149(10)
O14_2 O 0.6974(2) 0.93851(9) 0.22373(10)
N14_2 N 0.8388(2) 0.90243(9) 0.31462(10)
O16_2 O 0.50550(17) 0.94572(7) 0.30220(9)
O18_2 O 0.53519(18) 0.88337(8) 0.29321(10)
C40_2 C 0.9858(3) 0.07548(11) 0.19185(14)
C43_2 C 0.9029(3) 0.09755(11) 0.16448(14)
C44_2 C 0.9831(2) 0.11188(11) 0.67596(14)
C46_2 C 0.9544(3) 0.12195(10) 0.13298(14)
C49_2 C 0.9775(3) 0.04446(13) 0.23099(17)
H37_2 H 0.971384 0.019314 0.213592
H38_2 H 0.912791 0.048888 0.248617
H41_2 H 0.982495 0.048364 0.737783
C52_2 C 0.9076(3) 0.15031(13) 0.09325(16)
H46_2 H 0.937786 0.175982 0.101944
H47_2 H 0.828166 0.151032 0.092570
H48_2 H 0.926103 0.142569 0.059099
C53_2 C 0.9912(3) 0.17445(13) 0.62140(19)
H50_2 H 0.911525 0.174695 0.619582
C55_2 C 0.7848(3) 0.09464(11) 0.16730(15)
C56_2 C 0.8637(2) 0.10786(11) 0.67942(14)
C58_2 C 0.7346(3) 0.05867(12) 0.16294(17)
H55_2 H 0.775654 0.036735 0.154986
C59_2 C 0.8135(3) 0.07252(12) 0.66761(14)
H56_2 H 0.854324 0.052054 0.655098
C61_2 C 0.6257(3) 0.05414(12) 0.16996(16)
H58_2 H 0.593760 0.029165 0.167960
C62_2 C 0.7044(3) 0.06658(12) 0.67378(14)
H59_2 H 0.671527 0.042177 0.665818
C64_2 C 0.5632(3) 0.08620(12) 0.17994(16)
C65_2 C 0.6442(2) 0.09631(12) 0.69154(14)
C67_2 C 0.6114(3) 0.12272(12) 0.18198(16)
H61_2 H 0.569119 0.144848 0.187838
C68_2 C 0.6933(3) 0.13243(12) 0.70260(16)
H62_2 H 0.651724 0.153203 0.713793
C70_2 C 0.7211(3) 0.12694(12) 0.17550(16)
H64_2 H 0.752816 0.151943 0.176650
C71_2 C 0.8032(3) 0.13775(13) 0.69712(16)
H65_2 H 0.836767 0.161974 0.705544
C73_2 C 0.4487(3) 0.08010(12) 0.19047(14)
C74_2 C 0.5281(3) 0.08945(12) 0.70012(13)
O8_2 O 0.49450(17) 0.05428(7) 0.69780(9)
O10_2 O 0.38441(18) 0.10819(8) 0.19187(11)
O11_2 O 0.46481(18) 0.11663(8) 0.70679(10)
C2_3 C 0.2359(3) 0.35305(10) 0.13514(13)
H3_3 H 0.215802 0.327450 0.119960
H4_3 H 0.297715 0.349408 0.162724
N2_3 N 0.26910(19) 0.37787(8) 0.09570(10)
C5_3 C 0.3415(3) 0.42954(10) 0.06922(12)
C8_3 C 0.3008(2) 0.40737(10) 0.02444(13)
C11_3 C 0.2567(2) 0.37462(10) 0.04381(13)
C14_3 C 0.3986(3) 0.46701(12) 0.07135(15)
H10_3 H 0.452943 0.466867 0.046814
H11_3 H 0.345787 0.487718 0.062154
H12_3 H 0.435089 0.471323 0.106507
C17_3 C 0.2057(4) 0.33998(13) 0.01635(15)
H19_3 H 0.128323 0.338837 0.021129
H21_3 H 0.242484 0.316579 0.030656
N8_3 N 0.1430(2) 0.36926(8) 0.15775(11)
C41_3 C 0.0643(2) 0.41464(11) 0.19582(13)
C47_3 C 0.0356(2) 0.36022(11) 0.15173(14)
C50_3 C 0.0524(3) 0.45144(12) 0.22356(16)
H40_3 H 0.054878 0.473057 0.199394
H42_3 H 0.112037 0.453996 0.251865
H49_3 H 0.020899 0.301994 0.138594
H51_3 H 0.012240 0.326756 0.086263
C1_3 C 0.1526(2) 0.37216(10) 0.61784(13)
H1_3 H 0.213278 0.364921 0.644547
H2_3 H 0.130335 0.348786 0.597338
Mn3 Mn 0.24387(4) 0.44484(2) 0.69412(2)
N1_3 N 0.1905(2) 0.40133(8) 0.58384(11)
N4_3 N 0.2474(2) 0.43158(9) 0.60633(11)
C4_3 C 0.2840(3) 0.45102(11) 0.56707(13)
C7_3 C 0.2510(3) 0.43236(11) 0.51965(13)
C9_3 C 0.9768(3) 0.34980(13) 0.86197(19)
C10_3 C 0.1895(3) 0.40105(11) 0.53148(13)
C12_3 C 0.9805(3) 0.32352(12) 0.90253(18)
C13_3 C 0.3504(3) 0.48639(13) 0.57643(16)
H7_3 H 0.424810 0.481320 0.568721
H8_3 H 0.318223 0.507170 0.553982
H9_3 H 0.352246 0.494141 0.612799
C16_3 C 0.1313(4) 0.37137(13) 0.49751(16)
H16_3 H 0.053571 0.377866 0.491355
H17_3 H 0.161527 0.370575 0.464363
H18_3 H 0.140186 0.346075 0.514370
H20_3 H 0.212965 0.341814 0.979290
C18_3 C 0.9127(4) 0.32084(15) 0.94532(19)
H22_3 H 0.959415 0.316190 0.977953
H23_3 H 0.872635 0.345061 0.947794
H24_3 H 0.860826 0.299491 0.938648
C19_3 C 0.2787(3) 0.44174(12) 0.46744(14)
C20_3 C 0.3026(3) 0.41849(11) 0.96972(13)
C21_3 C 0.9017(3) 0.38256(13) 0.85218(18)
C22_3 C 0.1988(3) 0.44495(12) 0.42487(14)
H25_3 H 0.124043 0.445026 0.430136
C23_3 C 0.2109(3) 0.41382(12) 0.93336(14)
H26_3 H 0.146508 0.403127 0.944166
C24_3 C 0.8250(4) 0.38241(14) 0.8088(2)
H27_3 H 0.819488 0.360554 0.786591
C25_3 C 0.2272(3) 0.44805(12) 0.37466(15)
H28_3 H 0.172036 0.449074 0.345873
C26_3 C 0.2109(3) 0.42427(13) 0.88222(15)
H29_3 H 0.147975 0.420023 0.858049
C27_3 C 0.7564(4) 0.41335(14) 0.79726(19)
H30_3 H 0.702656 0.412306 0.767877
C28_3 C 0.3362(3) 0.44962(11) 0.36688(13)
C29_3 C 0.3043(3) 0.44124(11) 0.86589(14)
C30_3 C 0.7654(3) 0.44635(12) 0.82864(15)
C31_3 C 0.4155(3) 0.44976(12) 0.40952(14)
H31_3 H 0.489934 0.452588 0.404430
C32_3 C 0.3959(3) 0.44602(12) 0.90212(14)
H32_3 H 0.459739 0.457334 0.891575
C33_3 C 0.8396(3) 0.44642(14) 0.87125(19)
H33_3 H 0.846482 0.468635 0.892849
C34_3 C 0.3882(3) 0.44589(12) 0.45894(15)
H34_3 H 0.443772 0.446010 0.487593
C35_3 C 0.3960(3) 0.43480(12) 0.95247(14)
H35_3 H 0.460143 0.438044 0.976207
C36_3 C 0.9075(4) 0.41406(14) 0.8845(2)
H36_3 H 0.956815 0.414169 0.915491
C37_3 C 0.3679(3) 0.45177(11) 0.31253(14)
C38_3 C 0.3088(3) 0.45359(11) 0.81103(13)
C39_3 C 0.6970(3) 0.48118(11) 0.81235(14)
O2_3 O 0.2419(2) 0.43852(8) 0.77564(10)
O3_3 O 0.6108(2) 0.47608(8) 0.78285(11)
O5_3 O 0.3795(2) 0.47764(8) 0.80410(10)
O6_3 O 0.7344(2) 0.51305(8) 0.82947(10)
N7_3 N 0.0621(2) 0.38578(8) 0.64287(11)
N10_3 N 0.0836(2) 0.41425(8) 0.67912(11)
C45_3 C 0.9933(4) 0.17491(13) 0.86161(18)
C48_3 C 0.9884(3) 0.20145(13) 0.89956(17)
H39_3 H 0.042747 0.455213 0.756488
C54_3 C 0.9193(4) 0.20126(14) 0.94246(19)
H52_3 H 0.854785 0.217379 0.932991
H53_3 H 0.896452 0.174764 0.948765
H54_3 H 0.961073 0.211525 0.973953
C57_3 C 0.9324(3) 0.13865(12) 0.85146(17)
C60_3 C 0.8204(4) 0.13762(14) 0.8392(2)
H57_3 H 0.779616 0.160863 0.839378
C63_3 C 0.7670(3) 0.10321(13) 0.82658(17)
H60_3 H 0.690105 0.103289 0.817718
C66_3 C 0.8234(3) 0.06853(11) 0.82663(14)
C69_3 C 0.9359(3) 0.06987(12) 0.84019(16)
H63_3 H 0.976644 0.046545 0.841772
C72_3 C 0.9890(3) 0.10401(13) 0.85125(19)
C75_3 C 0.7668(3) 0.03170(12) 0.81062(13)
O9_2 O 0.6723(2) 0.03449(9) 0.78899(11)
O12_2 O 0.8195(2) 0.00042(8) 0.81941(10)
O15_2 O 0.41736(19) 0.45450(8) 0.69678(9)
O17_2 O 0.3277(2) 0.53449(9) 0.71101(11)
O19_2 O 0.1805(2) 0.50042(8) 0.68059(10)
Mn12_2 Mn 0.75613(4) 0.94484(2) 0.80588(2)
C44_3 C 0.9831(2) 0.38812(11) 0.17596(14)
H41_3 H 0.982495 0.451636 0.237783
C53_3 C 0.9912(3) 0.32555(13) 0.12140(19)
H50_3 H 0.911525 0.325305 0.119582
C56_3 C 0.8637(2) 0.39214(11) 0.17942(14)
C59_3 C 0.8135(3) 0.42748(12) 0.16761(14)
H56_3 H 0.854324 0.447946 0.155098
C62_3 C 0.7044(3) 0.43342(12) 0.17378(14)
H59_3 H 0.671527 0.457823 0.165818
C65_3 C 0.6442(2) 0.40369(12) 0.19154(14)
C68_3 C 0.6933(3) 0.36757(12) 0.20260(16)
H62_3 H 0.651724 0.346797 0.213793
C71_3 C 0.8032(3) 0.36225(13) 0.19712(16)
H65_3 H 0.836767 0.338026 0.205544
C74_3 C 0.5281(3) 0.41055(12) 0.20012(13)
C40_3 C 0.9858(3) 0.42452(11) 0.69185(14)
C43_3 C 0.9029(3) 0.40245(11) 0.66448(14)
C46_3 C 0.9544(3) 0.37805(10) 0.63298(14)
C49_3 C 0.9775(3) 0.45554(13) 0.73099(17)
H37_3 H 0.971384 0.480686 0.713592
H38_3 H 0.912791 0.451112 0.748617
C52_3 C 0.9076(3) 0.34969(13) 0.59325(16)
H46_3 H 0.937786 0.324018 0.601944
H47_3 H 0.828166 0.348968 0.592570
H48_3 H 0.926103 0.357431 0.559099
C55_3 C 0.7848(3) 0.40536(11) 0.66730(15)
C58_3 C 0.7346(3) 0.44133(12) 0.66294(17)
H55_3 H 0.775654 0.463265 0.654986
C61_3 C 0.6257(3) 0.44586(12) 0.66996(16)
H58_3 H 0.593760 0.470835 0.667960
C64_3 C 0.5632(3) 0.41380(12) 0.67994(16)
C67_3 C 0.6114(3) 0.37728(12) 0.68198(16)
H61_3 H 0.569119 0.355152 0.687838
C70_3 C 0.7211(3) 0.37306(12) 0.67550(16)
H64_3 H 0.752816 0.348057 0.676650
C73_3 C 0.4487(3) 0.41990(12) 0.69047(14)
O10_3 O 0.38441(18) 0.39181(8) 0.69187(11)
C40_4 C 0.0142(3) 0.92452(11) 0.80815(14)
C43_4 C 0.0971(3) 0.90245(11) 0.83552(14)
C44_4 C 0.0169(2) 0.88812(11) 0.32404(14)
C46_4 C 0.0456(3) 0.87805(10) 0.86702(14)
C49_4 C 0.0225(3) 0.95554(13) 0.76901(17)
H37_4 H 0.028616 0.980686 0.786408
H38_4 H 0.087209 0.951112 0.751383
H41_4 H 0.017505 0.951636 0.262217
C52_4 C 0.0924(3) 0.84969(13) 0.90675(16)
H46_4 H 0.062214 0.824018 0.898056
H47_4 H 0.171834 0.848968 0.907430
H48_4 H 0.073897 0.857431 0.940901
C53_4 C 0.0088(3) 0.82555(13) 0.37860(19)
H50_4 H 0.088475 0.825305 0.380418
C55_4 C 0.2152(3) 0.90536(11) 0.83270(15)
C56_4 C 0.1363(2) 0.89214(11) 0.32058(14)
C58_4 C 0.2654(3) 0.94133(12) 0.83706(17)
H55_4 H 0.224346 0.963265 0.845014
C59_4 C 0.1865(3) 0.92748(12) 0.33239(14)
H56_4 H 0.145676 0.947946 0.344902
C61_4 C 0.3743(3) 0.94586(12) 0.83004(16)
H58_4 H 0.406240 0.970835 0.832040
C62_4 C 0.2956(3) 0.93342(12) 0.32622(14)
H59_4 H 0.328473 0.957823 0.334182
C64_4 C 0.4368(3) 0.91380(12) 0.82006(16)
C65_4 C 0.3558(2) 0.90369(12) 0.30846(14)
C67_4 C 0.3886(3) 0.87728(12) 0.81802(16)
H61_4 H 0.430881 0.855152 0.812162
C68_4 C 0.3067(3) 0.86757(12) 0.29740(16)
H62_4 H 0.348276 0.846797 0.286207
C70_4 C 0.2789(3) 0.87306(12) 0.82450(16)
H64_4 H 0.247184 0.848057 0.823350
C71_4 C 0.1968(3) 0.86225(13) 0.30288(16)
H65_4 H 0.163233 0.838026 0.294456
C73_4 C 0.5513(3) 0.91990(12) 0.80953(14)
C74_4 C 0.4719(3) 0.91055(12) 0.29988(13)
O7_2 O 0.58264(19) 0.95450(8) 0.80322(9)
O10_4 O 0.61559(18) 0.89181(8) 0.80813(11)
H8_4 H 0.681777 0.007170 0.946018
O6_4 O 0.2656(2) 0.01305(8) 0.67053(10)
C16_4 C 0.8687(4) 0.87137(13) 0.00249(16)
H16_4 H 0.946429 0.877866 0.008645
H17_4 H 0.838473 0.870575 0.035637
C19_4 C 0.7213(3) 0.94174(12) 0.03256(14)
C22_4 C 0.8012(3) 0.94495(12) 0.07513(14)
H25_4 H 0.875957 0.945026 0.069864
C25_4 C 0.7728(3) 0.94805(12) 0.12534(15)
H28_4 H 0.827964 0.949074 0.154127
C28_4 C 0.6638(3) 0.94962(11) 0.13312(13)
C31_4 C 0.5845(3) 0.94976(12) 0.09048(14)
H31_4 H 0.510066 0.952588 0.095570
C34_4 C 0.6118(3) 0.94589(12) 0.04106(15)
H34_4 H 0.556228 0.946010 0.012407
C37_4 C 0.6321(3) 0.95177(11) 0.18747(14)
C1_4 C 0.8474(2) 0.87216(10) 0.88216(13)
H1_4 H 0.786722 0.864921 0.855453
H2_4 H 0.869665 0.848786 0.902662
C2_4 C 0.7641(3) 0.85305(10) 0.36486(13)
H3_4 H 0.784198 0.827450 0.380040
H4_4 H 0.702285 0.849408 0.337276
N1_4 N 0.8095(2) 0.90133(8) 0.91616(11)
N2_4 N 0.73090(19) 0.87787(8) 0.40430(10)
N4_4 N 0.7526(2) 0.93158(9) 0.89367(11)
C4_4 C 0.7160(3) 0.95102(11) 0.93293(13)
C5_4 C 0.6585(3) 0.92954(10) 0.43078(12)
C7_4 C 0.7490(3) 0.93236(11) 0.98035(13)
C8_4 C 0.6992(2) 0.90737(10) 0.47556(13)
C9_4 C 0.0232(3) 0.84980(13) 0.63803(19)
C10_4 C 0.8105(3) 0.90105(11) 0.96852(13)
C11_4 C 0.7433(2) 0.87462(10) 0.45619(13)
C12_4 C 0.0195(3) 0.82352(12) 0.59747(18)
C13_4 C 0.6496(3) 0.98639(13) 0.92357(16)
H7_4 H 0.575190 0.981320 0.931279
H9_4 H 0.647754 0.994141 0.887201
C14_4 C 0.6014(3) 0.96701(12) 0.42865(15)
H10_4 H 0.547057 0.966867 0.453186
H11_4 H 0.654213 0.987718 0.437846
H12_4 H 0.564911 0.971323 0.393493
H18_4 H 0.859814 0.846075 0.985630
C17_4 C 0.7943(4) 0.83998(13) 0.48365(15)
H19_4 H 0.871677 0.838837 0.478871
H20_4 H 0.787035 0.841814 0.520710
H21_4 H 0.757516 0.816579 0.469344
C18_4 C 0.0873(4) 0.82084(15) 0.55468(19)
H22_4 H 0.040585 0.816190 0.522047
H23_4 H 0.127365 0.845061 0.552206
H24_4 H 0.139174 0.799491 0.561352
C20_4 C 0.6974(3) 0.91849(11) 0.53028(13)
C21_4 C 0.0983(3) 0.88256(13) 0.64782(18)
C23_4 C 0.7891(3) 0.91382(12) 0.56664(14)
H26_4 H 0.853492 0.903127 0.555834
C24_4 C 0.1750(4) 0.88241(14) 0.6912(2)
H27_4 H 0.180512 0.860554 0.713409
C26_4 C 0.7891(3) 0.92427(13) 0.61778(15)
H29_4 H 0.852025 0.920023 0.641951
C27_4 C 0.2436(4) 0.91335(14) 0.70274(19)
H30_4 H 0.297344 0.912306 0.732123
C29_4 C 0.6957(3) 0.94124(11) 0.63411(14)
C30_4 C 0.2346(3) 0.94635(12) 0.67136(15)
C32_4 C 0.6041(3) 0.94602(12) 0.59788(14)
H32_4 H 0.540261 0.957334 0.608425
C33_4 C 0.1604(3) 0.94642(14) 0.62875(19)
H33_4 H 0.153518 0.968635 0.607151
C35_4 C 0.6040(3) 0.93480(12) 0.54753(14)
H35_4 H 0.539857 0.938044 0.523793
C36_4 C 0.0925(4) 0.91406(14) 0.6155(2)
H36_4 H 0.043185 0.914169 0.584509
C38_4 C 0.6912(3) 0.95359(11) 0.68897(13)
C39_4 C 0.3030(3) 0.98118(11) 0.68765(14)
O2_4 O 0.7581(2) 0.93852(8) 0.72436(10)
O3_4 O 0.3892(2) 0.97608(8) 0.71715(11)
O5_4 O 0.6205(2) 0.97764(8) 0.69590(10)
N7_4 N 0.9379(2) 0.88578(8) 0.85713(11)
N8_4 N 0.8570(2) 0.86926(8) 0.34225(11)
N10_4 N 0.9164(2) 0.91425(8) 0.82088(11)
C41_4 C 0.9357(2) 0.91464(11) 0.30418(13)
C45_4 C 0.0067(4) 0.67491(13) 0.63839(18)
C47_4 C 0.9644(2) 0.86022(11) 0.34827(14)
C48_4 C 0.0116(3) 0.70145(13) 0.60044(17)
H39_4 H 0.957253 0.955213 0.743512
C50_4 C 0.9476(3) 0.95144(12) 0.27644(16)
H40_4 H 0.945122 0.973057 0.300606
H42_4 H 0.887963 0.953996 0.248135
H49_4 H 0.979101 0.801994 0.361406
H51_4 H 0.987760 0.826756 0.413737
C54_4 C 0.0807(4) 0.70126(14) 0.55754(19)
H52_4 H 0.145215 0.717379 0.567009
H53_4 H 0.103548 0.674764 0.551235
H54_4 H 0.038927 0.711525 0.526047
C57_4 C 0.0676(3) 0.63865(12) 0.64854(17)
C60_4 C 0.1796(4) 0.63762(14) 0.6608(2)
H57_4 H 0.220384 0.660863 0.660622
C63_4 C 0.2330(3) 0.60321(13) 0.67342(17)
H60_4 H 0.309895 0.603289 0.682282
C66_4 C 0.1766(3) 0.56853(11) 0.67337(14)
C69_4 C 0.0641(3) 0.56987(12) 0.65981(16)
H63_4 H 0.023356 0.546545 0.658228
C72_4 C 0.0110(3) 0.60401(13) 0.64875(19)
C75_4 C 0.2332(3) 0.53170(12) 0.68938(13)
C3 C 0.9052(4) 0.73696(12) 0.0765(2)
H5 H 0.938023 0.737728 0.043611
H6 H 0.824911 0.736802 0.067847
Cu1 Cu 0.80288(6) 0.73473(2) 0.17738(3)
N3 N 0.9388(3) 0.70215(10) 0.10416(15)
N6 N 0.8911(3) 0.69335(11) 0.14799(16)
C6 C 0.9421(3) 0.66260(13) 0.1690(2)
C15 C 0.9138(4) 0.64416(17) 0.2165(2)
H13 H 0.961671 0.621944 0.225066
H14 H 0.922885 0.662782 0.245070
H15 H 0.837766 0.635450 0.211006
N9 N 0.9370(3) 0.77075(10) 0.10625(16)
N12 N 0.8838(4) 0.77817(13) 0.1487(2)
C42 C 0.9242(5) 0.81107(15) 0.1685(2)
C51 C 0.8897(6) 0.82897(19) 0.2168(3)
H43 H 0.929752 0.853119 0.224457
H44 H 0.811282 0.834333 0.211427
H45 H 0.905657 0.811089 0.245976
H66 H 0.933894 0.895926 0.141036
C76 C 0.6729(9) 0.7174(3) 0.2122(5)
H67 H 0.659752 0.703484 0.180553
C77 C 0.6783(11) 0.7569(3) 0.2138(5)
H68 H 0.660731 0.776339 0.188423
C78 C 0.7264(12) 0.7585(4) 0.2757(6)
H69 H 0.769378 0.782021 0.287404
C79 C 0.6344(15) 0.7488(4) 0.3050(7)
C80 C 0.6157(13) 0.7102(4) 0.2997(5)
H70 H 0.564209 0.695215 0.315370
C81 C 0.6898(10) 0.6973(4) 0.2658(4)
H71 H 0.704648 0.668904 0.265732
C82 C 0.7769(13) 0.7216(4) 0.2905(6)
H72 H 0.589806 0.768908 0.326826
H73 H 0.790186 0.717654 0.332365
H74 H 0.853414 0.717329 0.274413
C3_2 C 0.0948(4) 0.23696(12) 0.4235(2)
H5_2 H 0.061977 0.237728 0.456389
H6_2 H 0.175089 0.236802 0.432153
Cu1_2 Cu 0.19712(6) 0.23473(2) 0.32262(3)
N3_2 N 0.0612(3) 0.20215(10) 0.39584(15)
N6_2 N 0.1089(3) 0.19335(11) 0.35201(16)
C6_2 C 0.0579(3) 0.16260(13) 0.3310(2)
C15_2 C 0.0862(4) 0.14416(17) 0.2835(2)
H13_2 H 0.038329 0.121944 0.274934
H14_2 H 0.077115 0.162782 0.254930
H15_2 H 0.162234 0.135450 0.288994
N9_2 N 0.0630(3) 0.27075(10) 0.39375(16)
N12_2 N 0.1162(4) 0.27817(13) 0.3513(2)
C42_2 C 0.0758(5) 0.31107(15) 0.3315(2)
C51_2 C 0.1103(6) 0.32897(19) 0.2832(3)
H43_2 H 0.070248 0.353119 0.275543
H44_2 H 0.188718 0.334333 0.288573
H45_2 H 0.094343 0.311089 0.254024
H66_2 H 0.066106 0.395926 0.358964
C76_2 C 0.3271(9) 0.2174(3) 0.2878(5)
H67_2 H 0.340248 0.203484 0.319447
C77_2 C 0.3217(11) 0.2569(3) 0.2862(5)
H68_2 H 0.339269 0.276339 0.311577
C78_2 C 0.2736(12) 0.2585(4) 0.2243(6)
H69_2 H 0.230622 0.282021 0.212596
C79_2 C 0.3656(15) 0.2488(4) 0.1950(7)
C80_2 C 0.3843(13) 0.2102(4) 0.2003(5)
H70_2 H 0.435791 0.195215 0.184630
C81_2 C 0.3102(10) 0.1973(4) 0.2342(4)
H71_2 H 0.295352 0.168904 0.234268
C82_2 C 0.2231(13) 0.2216(4) 0.2095(6)
H72_2 H 0.410194 0.268908 0.173174
H73_2 H 0.209814 0.217654 0.167635
H74_2 H 0.146586 0.217329 0.225587
C3_3 C 0.0948(4) 0.26304(12) 0.9235(2)
H5_3 H 0.061977 0.262272 0.956389
H6_3 H 0.175089 0.263198 0.932153
Cu1_3 Cu 0.19712(6) 0.26527(2) 0.82262(3)
N3_3 N 0.0612(3) 0.29785(10) 0.89584(15)
N6_3 N 0.1089(3) 0.30665(11) 0.85201(16)
C6_3 C 0.0579(3) 0.33740(13) 0.8310(2)
C15_3 C 0.0862(4) 0.35584(17) 0.7835(2)
H13_3 H 0.038329 0.378056 0.774934
H14_3 H 0.077115 0.337218 0.754930
H15_3 H 0.162234 0.364550 0.788994
N9_3 N 0.0630(3) 0.22925(10) 0.89375(16)
N12_3 N 0.1162(4) 0.22183(13) 0.8513(2)
C42_3 C 0.0758(5) 0.18893(15) 0.8315(2)
C51_3 C 0.1103(6) 0.17103(19) 0.7832(3)
H43_3 H 0.070248 0.146881 0.775543
H44_3 H 0.188718 0.165667 0.788573
H45_3 H 0.094343 0.188911 0.754024
H66_3 H 0.066106 0.104074 0.858964
C76_3 C 0.3271(9) 0.2826(3) 0.7878(5)
H67_3 H 0.340248 0.296516 0.819447
C77_3 C 0.3217(11) 0.2431(3) 0.7862(5)
H68_3 H 0.339269 0.223661 0.811577
C78_3 C 0.2736(12) 0.2415(4) 0.7243(6)
H69_3 H 0.230622 0.217979 0.712596
C79_3 C 0.3656(15) 0.2512(4) 0.6950(7)
C80_3 C 0.3843(13) 0.2898(4) 0.7003(5)
H70_3 H 0.435791 0.304785 0.684630
C81_3 C 0.3102(10) 0.3027(4) 0.7342(4)
H71_3 H 0.295352 0.331096 0.734268
C82_3 C 0.2231(13) 0.2784(4) 0.7095(6)
H72_3 H 0.410194 0.231092 0.673174
H73_3 H 0.209814 0.282346 0.667635
H74_3 H 0.146586 0.282671 0.725587
C3_4 C 0.9052(4) 0.76304(12) 0.5765(2)
H5_4 H 0.938023 0.762272 0.543611
H6_4 H 0.824911 0.763198 0.567847
Cu1_4 Cu 0.80288(6) 0.76527(2) 0.67738(3)
N3_4 N 0.9388(3) 0.79785(10) 0.60416(15)
N6_4 N 0.8911(3) 0.80665(11) 0.64799(16)
C6_4 C 0.9421(3) 0.83740(13) 0.6690(2)
C15_4 C 0.9138(4) 0.85584(17) 0.7165(2)
H13_4 H 0.961671 0.878056 0.725066
H14_4 H 0.922885 0.837218 0.745070
H15_4 H 0.837766 0.864550 0.711006
N9_4 N 0.9370(3) 0.72925(10) 0.60625(16)
N12_4 N 0.8838(4) 0.72183(13) 0.6487(2)
C42_4 C 0.9242(5) 0.68893(15) 0.6685(2)
C51_4 C 0.8897(6) 0.67103(19) 0.7168(3)
H43_4 H 0.929752 0.646881 0.724457
H44_4 H 0.811282 0.665667 0.711427
H45_4 H 0.905657 0.688911 0.745976
H66_4 H 0.933894 0.604074 0.641036
C76_4 C 0.6729(9) 0.7826(3) 0.7122(5)
H67_4 H 0.659752 0.796516 0.680553
C77_4 C 0.6783(11) 0.7431(3) 0.7138(5)
H68_4 H 0.660731 0.723661 0.688423
C78_4 C 0.7264(12) 0.7415(4) 0.7757(6)
H69_4 H 0.769378 0.717979 0.787404
C79_4 C 0.6344(15) 0.7512(4) 0.8050(7)
C80_4 C 0.6157(13) 0.7898(4) 0.7997(5)
H70_4 H 0.564209 0.804785 0.815370
C81_4 C 0.6898(10) 0.8027(4) 0.7658(4)
H71_4 H 0.704648 0.831096 0.765732
C82_4 C 0.7769(13) 0.7784(4) 0.7905(6)
H72_4 H 0.589806 0.731092 0.826826
H73_4 H 0.790186 0.782346 0.832365
H74_4 H 0.853414 0.782671 0.774413
B1 B 0.8755(7) 0.74190(19) 0.4364(3)
F1 F 0.8171(6) 0.7248(2) 0.4723(2)
F2 F 0.9119(4) 0.71515(15) 0.4048(3)
F3 F 0.9619(3) 0.76250(10) 0.46153(14)
F4 F 0.8068(3) 0.76596(8) 0.40711(13)
B1_2 B 0.1245(7) 0.24190(19) 0.0636(3)
F1_2 F 0.1829(6) 0.2248(2) 0.0277(2)
F2_2 F 0.0881(4) 0.21515(15) 0.0952(3)
F3_2 F 0.0381(3) 0.26250(10) 0.03847(14)
F4_2 F 0.1932(3) 0.26596(8) 0.09289(13)
B1_3 B 0.1245(7) 0.25810(19) 0.5636(3)
F1_3 F 0.1829(6) 0.2752(2) 0.5277(2)
F2_3 F 0.0881(4) 0.28485(15) 0.5952(3)
F3_3 F 0.0381(3) 0.23750(10) 0.53847(14)
F4_3 F 0.1932(3) 0.23404(8) 0.59289(13)
B1_4 B 0.8755(7) 0.75810(19) 0.9364(3)
F1_4 F 0.8171(6) 0.7752(2) 0.9723(2)
F2_4 F 0.9119(4) 0.78485(15) 0.9048(3)
F3_4 F 0.9619(3) 0.73750(10) 0.96153(14)
F4_4 F 0.8068(3) 0.73404(8) 0.90711(13)
loop_
_geom_bond_atom_site_label_1
_geom_bond_atom_site_label_2
_geom_bond_site_symmetry_1
_geom_bond_site_symmetry_2
C43 C40 1_555 1_555
C49 C40 1_555 1_555
H37 C49 1_555 1_555
H38 C49 1_555 1_555
C52 C46 1_555 1_555
H46 C52 1_555 1_555
H47 C52 1_555 1_555
H48 C52 1_555 1_555
C55 C43 1_555 1_555
C58 C55 1_555 1_555
H55 C58 1_555 1_555
C61 C58 1_555 1_555
H58 C61 1_555 1_555
C64 C61 1_555 1_555
C67 C64 1_555 1_555
H61 C67 1_555 1_555
C70 C55 1_555 1_555
H64 C70 1_555 1_555
C73 C64 1_555 1_555
O7 C73 1_555 1_555
O10 C73 1_555 1_555
Mn7 O7 1_555 1_555
Mn11 O7 1_555 1_555
C43 C46 1_555 1_555
C67 C70 1_555 1_555
H50 C53 1_555 1_555
C56 C44 1_555 1_555
C59 C56 1_555 1_555
H56 C59 1_555 1_555
C62 C59 1_555 1_555
H59 C62 1_555 1_555
C65 C62 1_555 1_555
C68 C65 1_555 1_555
H62 C68 1_555 1_555
C71 C56 1_555 1_555
H65 C71 1_555 1_555
C74 C65 1_555 1_555
O8 C74 1_555 1_555
O11 C74 1_555 1_555
Mn6 O8 1_555 1_555
Mn10 O8 1_555 1_555
C68 C71 1_555 1_555
O11 Mn6 1_555 1_555
Mn1 O6 1_555 1_555
C1 H1 1_555 1_555
H2 C1 1_555 1_555
Mn7 O3 1_555 1_555
Mn11 N4 1_555 1_555
N1 C1 1_555 1_555
N4 N1 1_555 1_555
C4 N4 1_555 1_555
C7 C4 1_555 1_555
C10 N1 1_555 1_555
C13 C4 1_555 1_555
H7 C13 1_555 1_555
H8 C13 1_555 1_555
H9 C13 1_555 1_555
C16 C10 1_555 1_555
H16 C16 1_555 1_555
H17 C16 1_555 1_555
H18 C16 1_555 1_555
C18 C12 1_555 1_555
H22 C18 1_555 1_555
H23 C18 1_555 1_555
H24 C18 1_555 1_555
C19 C7 1_555 1_555
C21 C9 1_555 1_555
C22 C19 1_555 1_555
H25 C22 1_555 1_555
C23 C20 1_555 1_555
H26 C23 1_555 1_555
C24 C21 1_555 1_555
H27 C24 1_555 1_555
C25 C22 1_555 1_555
H28 C25 1_555 1_555
C26 C23 1_555 1_555
H29 C26 1_555 1_555
C27 C24 1_555 1_555
H30 C27 1_555 1_555
C28 C25 1_555 1_555
C29 C26 1_555 1_555
C30 C27 1_555 1_555
C31 C28 1_555 1_555
H31 C31 1_555 1_555
C32 C29 1_555 1_555
H32 C32 1_555 1_555
C33 C30 1_555 1_555
H33 C33 1_555 1_555
C34 C19 1_555 1_555
H34 C34 1_555 1_555
C35 C20 1_555 1_555
H35 C35 1_555 1_555
C36 C21 1_555 1_555
H36 C36 1_555 1_555
C37 C28 1_555 1_555
C38 C29 1_555 1_555
C39 C30 1_555 1_555
O1 C37 1_555 1_555
O2 Mn11 1_555 1_555
O3 C39 1_555 1_555
O4 C37 1_555 1_555
O5 Mn7 1_555 1_555
O6 C39 1_555 1_555
N7 C1 1_555 1_555
N10 Mn11 1_555 1_555
C54 C48 1_555 1_555
H52 C54 1_555 1_555
H53 C54 1_555 1_555
H54 C54 1_555 1_555
C57 C45 1_555 1_555
C60 C57 1_555 1_555
H57 C60 1_555 1_555
C63 C60 1_555 1_555
H60 C63 1_555 1_555
C66 C63 1_555 1_555
C69 C66 1_555 1_555
H63 C69 1_555 1_555
C72 C57 1_555 1_555
C75 C66 1_555 1_555
O9 C75 1_555 1_555
O12 C75 1_555 1_555
Mn6 O4 1_555 1_555
Mn8 O9 1_555 1_555
Mn10 O1 1_555 1_555
N13 Mn1 1_555 1_555
O13 Mn7 1_555 1_555
O14 Mn1 1_555 1_555
N14 Mn1 1_555 1_555
O16 Mn1 1_555 1_555
O17 Mn7 1_555 1_555
O18 Mn1 1_555 1_555
O19 Mn11 1_555 1_555
Mn7 O16 1_555 1_555
C7 C10 1_555 1_555
C9 C12 1_555 1_555
C31 C34 1_555 1_555
C32 C35 1_555 1_555
C33 C36 1_555 1_555
C38 O2 1_555 1_555
C38 O5 1_555 1_555
N7 N10 1_555 1_555
C45 C48 1_555 1_555
C69 C72 1_555 1_555
C2 H3 1_555 1_555
H4 C2 1_555 1_555
N2 C2 1_555 1_555
N5 N2 1_555 1_555
C5 N5 1_555 1_555
C8 C5 1_555 1_555
C11 N2 1_555 1_555
C14 C5 1_555 1_555
H10 C14 1_555 1_555
H11 C14 1_555 1_555
H12 C14 1_555 1_555
C17 C11 1_555 1_555
H19 C17 1_555 1_555
H21 C17 1_555 1_555
N8 C2 1_555 1_555
N11 N8 1_555 1_555
C41 N11 1_555 1_555
C47 N8 1_555 1_555
C50 C41 1_555 1_555
H40 C50 1_555 1_555
H42 C50 1_555 1_555
Mn6 N5 1_555 1_555
C8 C11 1_555 1_555
N11 Mn6 1_555 1_555
C1_2 H1_2 1_555 1_555
H2_2 C1_2 1_555 1_555
C2_2 H3_2 1_555 1_555
H4_2 C2_2 1_555 1_555
Mn12 N4_2 1_555 1_555
N1_2 C1_2 1_555 1_555
N2_2 C2_2 1_555 1_555
N4_2 N1_2 1_555 1_555
N5_2 N2_2 1_555 1_555
C4_2 N4_2 1_555 1_555
C5_2 N5_2 1_555 1_555
C7_2 C4_2 1_555 1_555
C8_2 C5_2 1_555 1_555
C10_2 N1_2 1_555 1_555
C11_2 N2_2 1_555 1_555
C13_2 C4_2 1_555 1_555
H7_2 C13_2 1_555 1_555
H9_2 C13_2 1_555 1_555
C14_2 C5_2 1_555 1_555
H10_2 C14_2 1_555 1_555
H11_2 C14_2 1_555 1_555
H12_2 C14_2 1_555 1_555
C17_2 C11_2 1_555 1_555
H19_2 C17_2 1_555 1_555
H20_2 C17_2 1_555 1_555
H21_2 C17_2 1_555 1_555
C18_2 C12_2 1_555 1_555
H22_2 C18_2 1_555 1_555
H23_2 C18_2 1_555 1_555
H24_2 C18_2 1_555 1_555
C20_2 C8_2 1_555 1_555
C21_2 C9_2 1_555 1_555
C23_2 C20_2 1_555 1_555
H26_2 C23_2 1_555 1_555
C24_2 C21_2 1_555 1_555
H27_2 C24_2 1_555 1_555
C26_2 C23_2 1_555 1_555
H29_2 C26_2 1_555 1_555
C27_2 C24_2 1_555 1_555
H30_2 C27_2 1_555 1_555
C29_2 C26_2 1_555 1_555
C30_2 C27_2 1_555 1_555
C32_2 C29_2 1_555 1_555
H32_2 C32_2 1_555 1_555
C33_2 C30_2 1_555 1_555
H33_2 C33_2 1_555 1_555
C35_2 C20_2 1_555 1_555
H35_2 C35_2 1_555 1_555
C36_2 C21_2 1_555 1_555
H36_2 C36_2 1_555 1_555
C38_2 C29_2 1_555 1_555
C39_2 C30_2 1_555 1_555
O2_2 Mn12 1_555 1_555
O3_2 C39_2 1_555 1_555
N7_2 C1_2 1_555 1_555
N8_2 C2_2 1_555 1_555
N10_2 Mn12 1_555 1_555
N11_2 N8_2 1_555 1_555
C41_2 N11_2 1_555 1_555
C47_2 N8_2 1_555 1_555
C50_2 C41_2 1_555 1_555
H40_2 C50_2 1_555 1_555
H42_2 C50_2 1_555 1_555
C54_2 C48_2 1_555 1_555
H52_2 C54_2 1_555 1_555
H53_2 C54_2 1_555 1_555
H54_2 C54_2 1_555 1_555
C57_2 C45_2 1_555 1_555
C60_2 C57_2 1_555 1_555
H57_2 C60_2 1_555 1_555
C63_2 C60_2 1_555 1_555
H60_2 C63_2 1_555 1_555
C66_2 C63_2 1_555 1_555
C69_2 C66_2 1_555 1_555
H63_2 C69_2 1_555 1_555
C72_2 C57_2 1_555 1_555
C75_2 C66_2 1_555 1_555
O17 C75_2 1_555 1_555
O19 C75_2 1_555 1_555
Mn4 N5_2 1_555 1_555
Mn12 O15 1_555 1_555
C7_2 C10_2 1_555 1_555
C8_2 C11_2 1_555 1_555
C9_2 C12_2 1_555 1_555
C32_2 C35_2 1_555 1_555
C33_2 C36_2 1_555 1_555
C38_2 O2_2 1_555 1_555
C38_2 O5_2 1_555 1_555
N7_2 N10_2 1_555 1_555
N11_2 Mn4 1_555 1_555
C45_2 C48_2 1_555 1_555
C69_2 C72_2 1_555 1_555
H16_2 C16_2 1_555 1_555
H17_2 C16_2 1_555 1_555
C22_2 C19_2 1_555 1_555
H25_2 C22_2 1_555 1_555
C25_2 C22_2 1_555 1_555
H28_2 C25_2 1_555 1_555
C28_2 C25_2 1_555 1_555
C31_2 C28_2 1_555 1_555
H31_2 C31_2 1_555 1_555
C34_2 C19_2 1_555 1_555
H34_2 C34_2 1_555 1_555
C37_2 C28_2 1_555 1_555
O1_2 C37_2 1_555 1_555
O4_2 C37_2 1_555 1_555
Mn4 O4_2 1_555 1_555
Mn9 O1_2 1_555 1_555
C31_2 C34_2 1_555 1_555
Mn1_2 O6_2 1_555 1_555
N13_2 Mn1_2 1_555 1_555
O13_2 Mn8 1_555 1_555
O14_2 Mn1_2 1_555 1_555
N14_2 Mn1_2 1_555 1_555
O16_2 Mn1_2 1_555 1_555
O18_2 Mn1_2 1_555 1_555
Mn8 O16_2 1_555 1_555
C43_2 C40_2 1_555 1_555
C49_2 C40_2 1_555 1_555
H37_2 C49_2 1_555 1_555
H38_2 C49_2 1_555 1_555
C52_2 C46_2 1_555 1_555
H46_2 C52_2 1_555 1_555
H47_2 C52_2 1_555 1_555
H48_2 C52_2 1_555 1_555
H50_2 C53_2 1_555 1_555
C55_2 C43_2 1_555 1_555
C56_2 C44_2 1_555 1_555
C58_2 C55_2 1_555 1_555
H55_2 C58_2 1_555 1_555
C59_2 C56_2 1_555 1_555
H56_2 C59_2 1_555 1_555
C61_2 C58_2 1_555 1_555
H58_2 C61_2 1_555 1_555
C62_2 C59_2 1_555 1_555
H59_2 C62_2 1_555 1_555
C64_2 C61_2 1_555 1_555
C65_2 C62_2 1_555 1_555
C67_2 C64_2 1_555 1_555
H61_2 C67_2 1_555 1_555
C68_2 C65_2 1_555 1_555
H62_2 C68_2 1_555 1_555
C70_2 C55_2 1_555 1_555
H64_2 C70_2 1_555 1_555
C71_2 C56_2 1_555 1_555
H65_2 C71_2 1_555 1_555
C73_2 C64_2 1_555 1_555
C74_2 C65_2 1_555 1_555
O15 C73_2 1_555 1_555
O8_2 C74_2 1_555 1_555
O10_2 C73_2 1_555 1_555
O11_2 C74_2 1_555 1_555
Mn4 O8_2 1_555 1_555
Mn9 O8_2 1_555 1_555
C43_2 C46_2 1_555 1_555
C67_2 C70_2 1_555 1_555
C68_2 C71_2 1_555 1_555
O11_2 Mn4 1_555 1_555
C2_3 H3_3 1_555 1_555
H4_3 C2_3 1_555 1_555
N2_3 C2_3 1_555 1_555
N13 N2_3 1_555 1_555
C5_3 N13 1_555 1_555
C8_3 C5_3 1_555 1_555
C11_3 N2_3 1_555 1_555
C14_3 C5_3 1_555 1_555
H10_3 C14_3 1_555 1_555
H11_3 C14_3 1_555 1_555
H12_3 C14_3 1_555 1_555
C17_3 C11_3 1_555 1_555
H19_3 C17_3 1_555 1_555
H21_3 C17_3 1_555 1_555
N8_3 C2_3 1_555 1_555
N14 N8_3 1_555 1_555
C41_3 N14 1_555 1_555
C47_3 N8_3 1_555 1_555
C50_3 C41_3 1_555 1_555
H40_3 C50_3 1_555 1_555
H42_3 C50_3 1_555 1_555
C8_3 C11_3 1_555 1_555
Mn6 O6_3 1_555 1_555
C1_3 H1_3 1_555 1_555
H2_3 C1_3 1_555 1_555
Mn10 O3_3 1_555 1_555
Mn3 N4_3 1_555 1_555
N1_3 C1_3 1_555 1_555
N4_3 N1_3 1_555 1_555
C4_3 N4_3 1_555 1_555
C7_3 C4_3 1_555 1_555
C10_3 N1_3 1_555 1_555
C13_3 C4_3 1_555 1_555
H7_3 C13_3 1_555 1_555
H8_3 C13_3 1_555 1_555
H9_3 C13_3 1_555 1_555
C16_3 C10_3 1_555 1_555
H16_3 C16_3 1_555 1_555
H17_3 C16_3 1_555 1_555
H18_3 C16_3 1_555 1_555
C18_3 C12_3 1_555 1_555
H22_3 C18_3 1_555 1_555
H23_3 C18_3 1_555 1_555
H24_3 C18_3 1_555 1_555
C19_3 C7_3 1_555 1_555
C21_3 C9_3 1_555 1_555
C22_3 C19_3 1_555 1_555
H25_3 C22_3 1_555 1_555
C23_3 C20_3 1_555 1_555
H26_3 C23_3 1_555 1_555
C24_3 C21_3 1_555 1_555
H27_3 C24_3 1_555 1_555
C25_3 C22_3 1_555 1_555
H28_3 C25_3 1_555 1_555
C26_3 C23_3 1_555 1_555
H29_3 C26_3 1_555 1_555
C27_3 C24_3 1_555 1_555
H30_3 C27_3 1_555 1_555
C28_3 C25_3 1_555 1_555
C29_3 C26_3 1_555 1_555
C30_3 C27_3 1_555 1_555
C31_3 C28_3 1_555 1_555
H31_3 C31_3 1_555 1_555
C32_3 C29_3 1_555 1_555
H32_3 C32_3 1_555 1_555
C33_3 C30_3 1_555 1_555
H33_3 C33_3 1_555 1_555
C34_3 C19_3 1_555 1_555
H34_3 C34_3 1_555 1_555
C35_3 C20_3 1_555 1_555
H35_3 C35_3 1_555 1_555
C36_3 C21_3 1_555 1_555
H36_3 C36_3 1_555 1_555
C37_3 C28_3 1_555 1_555
C38_3 C29_3 1_555 1_555
C39_3 C30_3 1_555 1_555
O13 C37_3 1_555 1_555
O2_3 Mn3 1_555 1_555
O3_3 C39_3 1_555 1_555
O14 C37_3 1_555 1_555
O5_3 Mn10 1_555 1_555
O6_3 C39_3 1_555 1_555
N7_3 C1_3 1_555 1_555
N10_3 Mn3 1_555 1_555
C54_3 C48_3 1_555 1_555
H52_3 C54_3 1_555 1_555
H53_3 C54_3 1_555 1_555
H54_3 C54_3 1_555 1_555
C57_3 C45_3 1_555 1_555
C60_3 C57_3 1_555 1_555
H57_3 C60_3 1_555 1_555
C63_3 C60_3 1_555 1_555
H60_3 C63_3 1_555 1_555
C66_3 C63_3 1_555 1_555
C69_3 C66_3 1_555 1_555
H63_3 C69_3 1_555 1_555
C72_3 C57_3 1_555 1_555
C75_3 C66_3 1_555 1_555
O9_2 C75_3 1_555 1_555
O12_2 C75_3 1_555 1_555
Mn9 O9_2 1_555 1_555
O15_2 Mn10 1_555 1_555
O17_2 Mn10 1_555 1_555
O19_2 Mn3 1_555 1_555
Mn3 O15_2 1_555 1_555
C7_3 C10_3 1_555 1_555
C9_3 C12_3 1_555 1_555
C31_3 C34_3 1_555 1_555
C32_3 C35_3 1_555 1_555
C33_3 C36_3 1_555 1_555
C38_3 O2_3 1_555 1_555
C38_3 O5_3 1_555 1_555
N7_3 N10_3 1_555 1_555
C45_3 C48_3 1_555 1_555
C69_3 C72_3 1_555 1_555
H50_3 C53_3 1_555 1_555
C56_3 C44_3 1_555 1_555
C59_3 C56_3 1_555 1_555
H56_3 C59_3 1_555 1_555
C62_3 C59_3 1_555 1_555
H59_3 C62_3 1_555 1_555
C65_3 C62_3 1_555 1_555
C68_3 C65_3 1_555 1_555
H62_3 C68_3 1_555 1_555
C71_3 C56_3 1_555 1_555
H65_3 C71_3 1_555 1_555
C74_3 C65_3 1_555 1_555
O16 C74_3 1_555 1_555
O18 C74_3 1_555 1_555
C68_3 C71_3 1_555 1_555
C43_3 C40_3 1_555 1_555
C49_3 C40_3 1_555 1_555
H37_3 C49_3 1_555 1_555
H38_3 C49_3 1_555 1_555
C52_3 C46_3 1_555 1_555
H46_3 C52_3 1_555 1_555
H47_3 C52_3 1_555 1_555
H48_3 C52_3 1_555 1_555
C55_3 C43_3 1_555 1_555
C58_3 C55_3 1_555 1_555
H55_3 C58_3 1_555 1_555
C61_3 C58_3 1_555 1_555
H58_3 C61_3 1_555 1_555
C64_3 C61_3 1_555 1_555
C67_3 C64_3 1_555 1_555
H61_3 C67_3 1_555 1_555
C70_3 C55_3 1_555 1_555
H64_3 C70_3 1_555 1_555
C73_3 C64_3 1_555 1_555
O15_2 C73_3 1_555 1_555
O10_3 C73_3 1_555 1_555
C43_3 C46_3 1_555 1_555
C67_3 C70_3 1_555 1_555
C43_4 C40_4 1_555 1_555
C49_4 C40_4 1_555 1_555
H37_4 C49_4 1_555 1_555
H38_4 C49_4 1_555 1_555
C52_4 C46_4 1_555 1_555
H46_4 C52_4 1_555 1_555
H47_4 C52_4 1_555 1_555
H48_4 C52_4 1_555 1_555
H50_4 C53_4 1_555 1_555
C55_4 C43_4 1_555 1_555
C56_4 C44_4 1_555 1_555
C58_4 C55_4 1_555 1_555
H55_4 C58_4 1_555 1_555
C59_4 C56_4 1_555 1_555
H56_4 C59_4 1_555 1_555
C61_4 C58_4 1_555 1_555
H58_4 C61_4 1_555 1_555
C62_4 C59_4 1_555 1_555
H59_4 C62_4 1_555 1_555
C64_4 C61_4 1_555 1_555
C65_4 C62_4 1_555 1_555
C67_4 C64_4 1_555 1_555
H61_4 C67_4 1_555 1_555
C68_4 C65_4 1_555 1_555
H62_4 C68_4 1_555 1_555
C70_4 C55_4 1_555 1_555
H64_4 C70_4 1_555 1_555
C71_4 C56_4 1_555 1_555
H65_4 C71_4 1_555 1_555
C73_4 C64_4 1_555 1_555
C74_4 C65_4 1_555 1_555
O7_2 C73_4 1_555 1_555
O16_2 C74_4 1_555 1_555
O10_4 C73_4 1_555 1_555
O18_2 C74_4 1_555 1_555
Mn12_2 O7_2 1_555 1_555
C43_4 C46_4 1_555 1_555
C67_4 C70_4 1_555 1_555
C68_4 C71_4 1_555 1_555
Mn4 O6_4 1_555 1_555
H16_4 C16_4 1_555 1_555
H17_4 C16_4 1_555 1_555
C22_4 C19_4 1_555 1_555
H25_4 C22_4 1_555 1_555
C25_4 C22_4 1_555 1_555
H28_4 C25_4 1_555 1_555
C28_4 C25_4 1_555 1_555
C31_4 C28_4 1_555 1_555
H31_4 C31_4 1_555 1_555
C34_4 C19_4 1_555 1_555
H34_4 C34_4 1_555 1_555
C37_4 C28_4 1_555 1_555
O13_2 C37_4 1_555 1_555
O14_2 C37_4 1_555 1_555
C31_4 C34_4 1_555 1_555
C1_4 H1_4 1_555 1_555
H2_4 C1_4 1_555 1_555
C2_4 H3_4 1_555 1_555
H4_4 C2_4 1_555 1_555
Mn12_2 N4_4 1_555 1_555
N1_4 C1_4 1_555 1_555
N2_4 C2_4 1_555 1_555
N4_4 N1_4 1_555 1_555
N13_2 N2_4 1_555 1_555
C4_4 N4_4 1_555 1_555
C5_4 N13_2 1_555 1_555
C7_4 C4_4 1_555 1_555
C8_4 C5_4 1_555 1_555
C10_4 N1_4 1_555 1_555
C11_4 N2_4 1_555 1_555
C13_4 C4_4 1_555 1_555
H7_4 C13_4 1_555 1_555
H9_4 C13_4 1_555 1_555
C14_4 C5_4 1_555 1_555
H10_4 C14_4 1_555 1_555
H11_4 C14_4 1_555 1_555
H12_4 C14_4 1_555 1_555
C17_4 C11_4 1_555 1_555
H19_4 C17_4 1_555 1_555
H20_4 C17_4 1_555 1_555
H21_4 C17_4 1_555 1_555
C18_4 C12_4 1_555 1_555
H22_4 C18_4 1_555 1_555
H23_4 C18_4 1_555 1_555
H24_4 C18_4 1_555 1_555
C20_4 C8_4 1_555 1_555
C21_4 C9_4 1_555 1_555
C23_4 C20_4 1_555 1_555
H26_4 C23_4 1_555 1_555
C24_4 C21_4 1_555 1_555
H27_4 C24_4 1_555 1_555
C26_4 C23_4 1_555 1_555
H29_4 C26_4 1_555 1_555
C27_4 C24_4 1_555 1_555
H30_4 C27_4 1_555 1_555
C29_4 C26_4 1_555 1_555
C30_4 C27_4 1_555 1_555
C32_4 C29_4 1_555 1_555
H32_4 C32_4 1_555 1_555
C33_4 C30_4 1_555 1_555
H33_4 C33_4 1_555 1_555
C35_4 C20_4 1_555 1_555
H35_4 C35_4 1_555 1_555
C36_4 C21_4 1_555 1_555
H36_4 C36_4 1_555 1_555
C38_4 C29_4 1_555 1_555
C39_4 C30_4 1_555 1_555
O2_4 Mn12_2 1_555 1_555
O3_4 C39_4 1_555 1_555
N7_4 C1_4 1_555 1_555
N8_4 C2_4 1_555 1_555
N10_4 Mn12_2 1_555 1_555
N14_2 N8_4 1_555 1_555
C41_4 N14_2 1_555 1_555
C47_4 N8_4 1_555 1_555
C50_4 C41_4 1_555 1_555
H40_4 C50_4 1_555 1_555
H42_4 C50_4 1_555 1_555
C54_4 C48_4 1_555 1_555
H52_4 C54_4 1_555 1_555
H53_4 C54_4 1_555 1_555
H54_4 C54_4 1_555 1_555
C57_4 C45_4 1_555 1_555
C60_4 C57_4 1_555 1_555
H57_4 C60_4 1_555 1_555
C63_4 C60_4 1_555 1_555
H60_4 C63_4 1_555 1_555
C66_4 C63_4 1_555 1_555
C69_4 C66_4 1_555 1_555
H63_4 C69_4 1_555 1_555
C72_4 C57_4 1_555 1_555
C75_4 C66_4 1_555 1_555
O17_2 C75_4 1_555 1_555
O19_2 C75_4 1_555 1_555
C7_4 C10_4 1_555 1_555
C8_4 C11_4 1_555 1_555
C9_4 C12_4 1_555 1_555
C32_4 C35_4 1_555 1_555
C33_4 C36_4 1_555 1_555
C38_4 O2_4 1_555 1_555
C38_4 O5_4 1_555 1_555
N7_4 N10_4 1_555 1_555
C45_4 C48_4 1_555 1_555
C69_4 C72_4 1_555 1_555
C3 H5 1_555 1_555
H6 C3 1_555 1_555
Cu1 N6 1_555 1_555
N3 C3 1_555 1_555
N6 N3 1_555 1_555
C6 N6 1_555 1_555
C15 C6 1_555 1_555
H13 C15 1_555 1_555
H14 C15 1_555 1_555
H15 C15 1_555 1_555
N9 C3 1_555 1_555
N12 Cu1 1_555 1_555
C42 N12 1_555 1_555
C51 C42 1_555 1_555
H43 C51 1_555 1_555
H44 C51 1_555 1_555
H45 C51 1_555 1_555
C76 Cu1 1_555 1_555
H67 C76 1_555 1_555
C77 Cu1 1_555 1_555
H68 C77 1_555 1_555
C78 C77 1_555 1_555
H69 C78 1_555 1_555
C79 C78 1_555 1_555
C80 C79 1_555 1_555
H70 C80 1_555 1_555
C81 C76 1_555 1_555
H71 C81 1_555 1_555
C82 C78 1_555 1_555
N9 N12 1_555 1_555
C76 C77 1_555 1_555
C80 C81 1_555 1_555
C81 C82 1_555 1_555
C79 H72 1_555 1_555
C82 H73 1_555 1_555
C82 H74 1_555 1_555
C3_2 H5_2 1_555 1_555
H6_2 C3_2 1_555 1_555
Cu1_2 N6_2 1_555 1_555
N3_2 C3_2 1_555 1_555
N6_2 N3_2 1_555 1_555
C6_2 N6_2 1_555 1_555
C15_2 C6_2 1_555 1_555
H13_2 C15_2 1_555 1_555
H14_2 C15_2 1_555 1_555
H15_2 C15_2 1_555 1_555
N9_2 C3_2 1_555 1_555
N12_2 Cu1_2 1_555 1_555
C42_2 N12_2 1_555 1_555
C51_2 C42_2 1_555 1_555
H43_2 C51_2 1_555 1_555
H44_2 C51_2 1_555 1_555
H45_2 C51_2 1_555 1_555
C76_2 Cu1_2 1_555 1_555
H67_2 C76_2 1_555 1_555
C77_2 Cu1_2 1_555 1_555
H68_2 C77_2 1_555 1_555
C78_2 C77_2 1_555 1_555
H69_2 C78_2 1_555 1_555
C79_2 C78_2 1_555 1_555
C80_2 C79_2 1_555 1_555
H70_2 C80_2 1_555 1_555
C81_2 C76_2 1_555 1_555
H71_2 C81_2 1_555 1_555
C82_2 C78_2 1_555 1_555
N9_2 N12_2 1_555 1_555
C76_2 C77_2 1_555 1_555
C80_2 C81_2 1_555 1_555
C81_2 C82_2 1_555 1_555
C79_2 H72_2 1_555 1_555
C82_2 H73_2 1_555 1_555
C82_2 H74_2 1_555 1_555
C3_3 H5_3 1_555 1_555
H6_3 C3_3 1_555 1_555
Cu1_3 N6_3 1_555 1_555
N3_3 C3_3 1_555 1_555
N6_3 N3_3 1_555 1_555
C6_3 N6_3 1_555 1_555
C15_3 C6_3 1_555 1_555
H13_3 C15_3 1_555 1_555
H14_3 C15_3 1_555 1_555
H15_3 C15_3 1_555 1_555
N9_3 C3_3 1_555 1_555
N12_3 Cu1_3 1_555 1_555
C42_3 N12_3 1_555 1_555
C51_3 C42_3 1_555 1_555
H43_3 C51_3 1_555 1_555
H44_3 C51_3 1_555 1_555
H45_3 C51_3 1_555 1_555
C76_3 Cu1_3 1_555 1_555
H67_3 C76_3 1_555 1_555
C77_3 Cu1_3 1_555 1_555
H68_3 C77_3 1_555 1_555
C78_3 C77_3 1_555 1_555
H69_3 C78_3 1_555 1_555
C79_3 C78_3 1_555 1_555
C80_3 C79_3 1_555 1_555
H70_3 C80_3 1_555 1_555
C81_3 C76_3 1_555 1_555
H71_3 C81_3 1_555 1_555
C82_3 C78_3 1_555 1_555
N9_3 N12_3 1_555 1_555
C76_3 C77_3 1_555 1_555
C80_3 C81_3 1_555 1_555
C81_3 C82_3 1_555 1_555
C79_3 H72_3 1_555 1_555
C82_3 H73_3 1_555 1_555
C82_3 H74_3 1_555 1_555
C3_4 H5_4 1_555 1_555
H6_4 C3_4 1_555 1_555
Cu1_4 N6_4 1_555 1_555
N3_4 C3_4 1_555 1_555
N6_4 N3_4 1_555 1_555
C6_4 N6_4 1_555 1_555
C15_4 C6_4 1_555 1_555
H13_4 C15_4 1_555 1_555
H14_4 C15_4 1_555 1_555
H15_4 C15_4 1_555 1_555
N9_4 C3_4 1_555 1_555
N12_4 Cu1_4 1_555 1_555
C42_4 N12_4 1_555 1_555
C51_4 C42_4 1_555 1_555
H43_4 C51_4 1_555 1_555
H44_4 C51_4 1_555 1_555
H45_4 C51_4 1_555 1_555
C76_4 Cu1_4 1_555 1_555
H67_4 C76_4 1_555 1_555
C77_4 Cu1_4 1_555 1_555
H68_4 C77_4 1_555 1_555
C78_4 C77_4 1_555 1_555
H69_4 C78_4 1_555 1_555
C79_4 C78_4 1_555 1_555
C80_4 C79_4 1_555 1_555
H70_4 C80_4 1_555 1_555
C81_4 C76_4 1_555 1_555
H71_4 C81_4 1_555 1_555
C82_4 C78_4 1_555 1_555
N9_4 N12_4 1_555 1_555
C76_4 C77_4 1_555 1_555
C80_4 C81_4 1_555 1_555
C81_4 C82_4 1_555 1_555
C79_4 H72_4 1_555 1_555
C82_4 H73_4 1_555 1_555
C82_4 H74_4 1_555 1_555
B1 F1 1_555 1_555
F2 B1 1_555 1_555
F3 B1 1_555 1_555
F4 B1 1_555 1_555
B1_2 F1_2 1_555 1_555
F2_2 B1_2 1_555 1_555
F3_2 B1_2 1_555 1_555
F4_2 B1_2 1_555 1_555
B1_3 F1_3 1_555 1_555
F2_3 B1_3 1_555 1_555
F3_3 B1_3 1_555 1_555
F4_3 B1_3 1_555 1_555
B1_4 F1_4 1_555 1_555
F2_4 B1_4 1_555 1_555
F3_4 B1_4 1_555 1_555
F4_4 B1_4 1_555 1_555

#END
