
###############################################################################
#
# This file contains modified crystal structure data generated from the
# MOF subset of the Cambridge Structural Database (CSD) v543 
# hosted by the Cambridge Crystallographic Data Centre (CCDC).
#
# This work is licensed under the Creative Commons
# Attribution-NonCommercial-ShareAlike 4.0 International License.
# To view a copy of this license, visit
# http://creativecommons.org/licenses/by-nc-sa/4.0/
# or send a letter to
# Creative Commons, PO Box 1866, Mountain View, CA 94042, USA.
#
# CIF created using the CSD Python API on 29 September 2022
# The structure has been converted into the P1 space group
# The structure has a 3D framework
# The original CSD entry EWULIU is in the monoclinic crystal system
# The framework has been calculated to contain at least 10.0% void space
# The void calculation uses a probe of radius 1.32A, grid spacing 0.4
#
###############################################################################

data_EWULIU
_chemical_formula_moiety         '(C304 H264 B4 Cu4 F16 Mn10 N48 O52)n'
_symmetry_cell_setting           triclinic
_symmetry_space_group_name_H-M   'P 1'
_symmetry_Int_Tables_number      1
_space_group_name_Hall           'P 1'
loop_
_symmetry_equiv_pos_site_id
_symmetry_equiv_pos_as_xyz
1 x,y,z
_cell_length_a                   12.379(3)
_cell_length_b                   34.724(7)
_cell_length_c                   25.893(5)
_cell_angle_alpha                90
_cell_angle_beta                 97.79(3)
_cell_angle_gamma                90
_cell_volume                     11027.4
loop_
_atom_site_label
_atom_site_type_symbol
_atom_site_fract_x
_atom_site_fract_y
_atom_site_fract_z
B1 B 0.1299(9) 0.7590(2) 0.0676(5)
F1 F 0.1867(6) 0.7768(3) 0.0294(3)
F2 F 0.0888(5) 0.78556(19) 0.0953(4)
F3 F 0.1963(4) 0.73549(11) 0.09713(18)
F4 F 0.0463(4) 0.73757(13) 0.03838(18)
B1_2 B 0.8701(9) 0.2590(2) 0.4324(5)
F1_2 F 0.8133(6) 0.2768(3) 0.4706(3)
F2_2 F 0.9112(5) 0.28556(19) 0.4047(4)
F3_2 F 0.8037(4) 0.23549(11) 0.40287(18)
F4_2 F 0.9537(4) 0.23757(13) 0.46162(18)
B1_3 B 0.8701(9) 0.2410(2) 0.9324(5)
F1_3 F 0.8133(6) 0.2232(3) 0.9706(3)
F2_3 F 0.9112(5) 0.21444(19) 0.9047(4)
F3_3 F 0.8037(4) 0.26451(11) 0.90287(18)
F4_3 F 0.9537(4) 0.26243(13) 0.96162(18)
B1_4 B 0.1299(9) 0.7410(2) 0.5676(5)
F1_4 F 0.1867(6) 0.7232(3) 0.5294(3)
F2_4 F 0.0888(5) 0.71444(19) 0.5953(4)
F3_4 F 0.1963(4) 0.76451(11) 0.59713(18)
F4_4 F 0.0463(4) 0.76243(13) 0.53838(18)
C2 C 0.1463(4) 0.62731(15) 0.6163(2)
H3 H 0.205771 0.634849 0.642711
H4 H 0.123104 0.649870 0.595639
C3 C 0.0976(5) 0.73616(17) 0.9216(3)
H5 H 0.063565 0.737218 0.953215
H6 H 0.175918 0.735413 0.931750
Cu1 Cu 0.18572(9) 0.73326(3) 0.81342(5)
N2 N 0.0565(3) 0.61298(13) 0.64115(15)
N3 N 0.0635(4) 0.70124(14) 0.8935(2)
N5 N 0.0789(3) 0.58485(13) 0.67780(16)
N6 N 0.1076(5) 0.69345(17) 0.8489(2)
C6 C 0.0539(5) 0.66134(18) 0.8293(3)
H12 H 0.033383 0.545493 0.757098
C15 C 0.0820(6) 0.6439(2) 0.7807(3)
H13 H 0.019604 0.644798 0.754327
H14 H 0.103507 0.617574 0.787211
H15 H 0.140997 0.657944 0.769166
N8 N 0.1842(3) 0.59769(13) 0.58274(15)
N9 N 0.0702(5) 0.76987(15) 0.8920(2)
N11 N 0.2409(3) 0.56693(12) 0.60589(15)
N12 N 0.1235(6) 0.77718(18) 0.8502(3)
C41 C 0.2786(4) 0.54831(16) 0.5666(2)
C42 C 0.0827(7) 0.8103(2) 0.8293(3)
C44 C 0.2478(4) 0.56700(17) 0.51892(19)
C45 C 0.0014(5) 0.82418(19) 0.8598(3)
C47 C 0.1856(4) 0.59840(16) 0.53033(19)
C50 C 0.3473(5) 0.51233(18) 0.5768(2)
H40 H 0.348779 0.504628 0.612461
H41 H 0.420201 0.517521 0.569951
H42 H 0.316428 0.492019 0.554284
C51 C 0.1211(10) 0.8269(3) 0.7840(4)
H43 H 0.126973 0.807151 0.758634
H44 H 0.191306 0.838455 0.794024
H45 H 0.070573 0.846237 0.769275
C53 C 0.1303(5) 0.62916(19) 0.4960(2)
H49 H 0.052679 0.625998 0.493467
H50 H 0.152199 0.627282 0.461965
H51 H 0.150360 0.653964 0.510677
C56 C 0.2797(4) 0.55743(17) 0.4674(2)
C59 C 0.2002(5) 0.55411(16) 0.4223(2)
H56 H 0.126412 0.554013 0.425842
C62 C 0.2318(5) 0.55108(17) 0.3742(2)
H59 H 0.178945 0.549406 0.345113
C65 C 0.3401(4) 0.55043(16) 0.36759(19)
C68 C 0.4184(4) 0.55091(17) 0.4110(2)
H62 H 0.491823 0.548566 0.407343
C71 C 0.3865(5) 0.55498(18) 0.4609(2)
H65 H 0.439572 0.556014 0.489997
H66 H 0.072164 0.894673 0.858789
C74 C 0.3735(4) 0.54922(16) 0.31423(19)
O8 O 0.3078(3) 0.56278(13) 0.27681(14)
O11 O 0.4624(3) 0.53348(12) 0.31019(13)
C76 C 0.258(2) 0.7263(7) 0.7593(9)
O13 O 0.348(2) 0.7227(9) 0.7391(10)
Mn4 Mn 0.23922(6) 0.55430(2) 0.69339(3)
Mn8 Mn 0.53758(6) 0.50478(2) 0.25174(3)
Mn11 Mn 0.32719(6) 0.56834(2) 0.19703(3)
Mn5 Mn 0.76078(6) 0.05430(2) 0.80661(3)
C1 C 0.2390(4) 0.64825(16) 0.1362(2)
H1 H 0.219036 0.673405 0.121607
H2 H 0.298203 0.651652 0.164426
N1 N 0.2748(3) 0.62401(12) 0.09645(14)
N4 N 0.3251(3) 0.58958(12) 0.11259(15)
C4 C 0.3472(4) 0.57246(15) 0.06908(19)
C7 C 0.3097(4) 0.59453(15) 0.02442(18)
C10 C 0.2643(4) 0.62813(16) 0.04398(17)
C13 C 0.4045(5) 0.53428(17) 0.0716(2)
H7 H 0.478136 0.537841 0.064706
H8 H 0.367043 0.517218 0.046029
H9 H 0.405096 0.523360 0.105704
C16 C 0.2168(6) 0.66259(19) 0.0176(2)
H16 H 0.138914 0.661811 0.016260
H18 H 0.244782 0.685063 0.036491
N7 N 0.1448(3) 0.63102(13) 0.15659(16)
N10 N 0.1652(3) 0.59767(13) 0.18547(16)
C40 C 0.0682(4) 0.58523(17) 0.19471(19)
C46 C 0.0387(4) 0.63998(17) 0.1489(2)
C49 C 0.0557(5) 0.54858(18) 0.2231(2)
H37 H 0.052714 0.527392 0.199132
H39 H 0.116753 0.545301 0.249853
H46 H 0.019232 0.697410 0.134175
H48 H 0.016781 0.672919 0.083168
Mn2 Mn 0.46242(6) 0.49522(2) 0.74826(3)
Mn3 Mn 0.67281(6) 0.43166(2) 0.80297(3)
C5 C 0.9807(4) 0.57452(16) 0.6906(2)
C8 C 0.8974(4) 0.59686(16) 0.6629(2)
C9 C 0.9772(5) 0.64944(16) 0.8607(2)
C11 C 0.9490(4) 0.62136(16) 0.6309(2)
C12 C 0.9840(5) 0.67525(18) 0.9017(3)
C14 C 0.9720(5) 0.54390(18) 0.7302(2)
H10 H 0.970989 0.519074 0.713850
H11 H 0.905903 0.547424 0.745263
H17 H 0.235364 0.663535 0.982850
C17 C 0.9017(5) 0.65002(18) 0.5915(2)
H19 H 0.924896 0.675411 0.602701
H20 H 0.823526 0.648630 0.587752
H21 H 0.926002 0.644514 0.558631
C18 C 0.9157(7) 0.6782(2) 0.9448(3)
H22 H 0.961937 0.677765 0.977729
H23 H 0.865990 0.656892 0.942933
H24 H 0.875356 0.701892 0.941509
C19 C 0.3107(4) 0.58462(17) 0.96938(18)
C20 C 0.7791(4) 0.59474(17) 0.6662(2)
C21 C 0.8998(5) 0.61649(18) 0.8513(2)
C22 C 0.2188(5) 0.5901(2) 0.9331(2)
H25 H 0.157600 0.602050 0.943110
C23 C 0.7276(4) 0.55808(17) 0.6619(2)
H26 H 0.767227 0.536443 0.654622
C24 C 0.8176(6) 0.6176(2) 0.8104(3)
H27 H 0.807212 0.639528 0.789661
C25 C 0.2176(5) 0.5778(2) 0.8812(2)
H28 H 0.155087 0.581040 0.857258
C26 C 0.6198(4) 0.55435(18) 0.6682(2)
H29 H 0.587381 0.530139 0.665586
C27 C 0.7501(5) 0.5862(2) 0.7999(3)
H30 H 0.692814 0.587811 0.772757
C28 C 0.3093(4) 0.56071(18) 0.86567(19)
C29 C 0.5584(4) 0.58629(17) 0.6787(2)
C30 C 0.7640(4) 0.55275(16) 0.8277(2)
C31 C 0.4008(5) 0.55580(17) 0.9020(2)
H31 H 0.462369 0.544125 0.892001
C32 C 0.6066(4) 0.62270(18) 0.6810(2)
H32 H 0.565459 0.644352 0.686567
C33 C 0.8496(5) 0.55123(19) 0.8691(2)
H33 H 0.862089 0.528878 0.888810
C34 C 0.4026(4) 0.56798(18) 0.9531(2)
H34 H 0.465714 0.565002 0.976702
C35 C 0.7170(4) 0.62672(17) 0.6752(2)
H35 H 0.748816 0.651021 0.677275
C36 C 0.9140(5) 0.5826(2) 0.8803(3)
H36 H 0.969551 0.581392 0.908249
C37 C 0.3104(4) 0.54743(17) 0.81052(19)
C38 C 0.4447(4) 0.58041(17) 0.6896(2)
C39 C 0.6949(4) 0.51829(17) 0.8115(2)
O1 O 0.2409(3) 0.56186(12) 0.77524(13)
O2 O 0.4136(3) 0.54508(12) 0.69631(14)
O3 O 0.6086(3) 0.52288(12) 0.78221(16)
O4 O 0.3798(3) 0.52265(12) 0.80374(14)
O5 O 0.3798(3) 0.60805(12) 0.69172(16)
O6 O 0.7318(3) 0.48573(12) 0.82911(15)
C48 C 0.9943(5) 0.79808(17) 0.8972(2)
C54 C 0.9240(5) 0.79742(19) 0.9404(2)
H52 H 0.875499 0.775748 0.935783
H53 H 0.882237 0.820762 0.939567
H54 H 0.969481 0.795328 0.973409
C57 C 0.9390(5) 0.86064(17) 0.8487(2)
C60 C 0.8274(6) 0.86210(19) 0.8361(2)
H57 H 0.787391 0.839438 0.835989
C63 C 0.7738(5) 0.89614(17) 0.8237(2)
H60 H 0.698555 0.896158 0.814346
C66 C 0.8308(5) 0.93030(17) 0.82516(19)
C69 C 0.9433(4) 0.93045(17) 0.8396(2)
H63 H 0.982249 0.953432 0.841948
C72 C 0.9967(5) 0.89507(18) 0.8504(3)
C75 C 0.7724(4) 0.96795(16) 0.8097(2)
O9 O 0.6758(3) 0.96555(12) 0.78949(15)
O12 O 0.8258(3) 0.99868(12) 0.81894(14)
Mn6 Mn 0.53758(6) 0.99522(2) 0.75174(3)
N13 N 0.6749(3) 0.41042(12) 0.88741(15)
N15 N 0.8348(3) 0.40233(13) 0.81453(16)
O14 O 0.5018(3) 0.44515(11) 0.80194(13)
O15 O 0.6922(3) 0.43722(13) 0.72319(14)
O16 O 0.3242(3) 0.46555(12) 0.71051(15)
O17 O 0.5291(3) 0.38275(12) 0.79279(14)
O18 O 0.5376(3) 0.46652(12) 0.68981(13)
O19 O 0.1742(3) 0.49868(12) 0.68106(14)
C43 C 0.9841(4) 0.61113(17) 0.1734(2)
H38 H 0.989615 0.549402 0.238642
C52 C 0.9934(5) 0.67402(19) 0.1170(3)
H47 H 0.915161 0.673409 0.113299
C55 C 0.8661(4) 0.60711(18) 0.1772(2)
C58 C 0.8156(4) 0.57222(19) 0.1679(2)
H55 H 0.855393 0.551791 0.156893
C61 C 0.7082(4) 0.56620(18) 0.1741(2)
H58 H 0.676218 0.542185 0.167075
C64 C 0.6476(4) 0.59657(17) 0.19098(19)
C67 C 0.6983(4) 0.63242(18) 0.1989(2)
H61 H 0.658533 0.653359 0.208450
C70 C 0.8035(5) 0.63707(19) 0.1929(2)
H64 H 0.835489 0.661120 0.199364
C73 C 0.5327(4) 0.59000(17) 0.19919(19)
O7 O 0.4982(3) 0.55485(11) 0.19806(13)
O10 O 0.4709(3) 0.61725(12) 0.20721(14)
C43_2 C 0.0159(4) 0.11113(17) 0.3266(2)
H38_2 H 0.010385 0.049402 0.261358
C52_2 C 0.0066(5) 0.17402(19) 0.3830(3)
H47_2 H 0.084839 0.173409 0.386701
C55_2 C 0.1339(4) 0.10711(18) 0.3228(2)
C58_2 C 0.1844(4) 0.07222(19) 0.3321(2)
H55_2 H 0.144607 0.051791 0.343107
C61_2 C 0.2918(4) 0.06620(18) 0.3259(2)
H58_2 H 0.323782 0.042185 0.332925
C64_2 C 0.3524(4) 0.09657(17) 0.30902(19)
C67_2 C 0.3017(4) 0.13242(18) 0.3011(2)
H61_2 H 0.341467 0.153359 0.291550
C70_2 C 0.1965(5) 0.13707(19) 0.3071(2)
H64_2 H 0.164511 0.161120 0.300636
C73_2 C 0.4673(4) 0.09000(17) 0.30081(19)
O7_2 O 0.5018(3) 0.05485(11) 0.30194(13)
O10_2 O 0.5291(3) 0.11725(12) 0.29279(14)
Mn7 Mn 0.46242(6) 0.00478(2) 0.24826(3)
Mn9 Mn 0.67281(6) 0.06834(2) 0.30297(3)
C1_2 C 0.7610(4) 0.14825(16) 0.3638(2)
H1_2 H 0.780964 0.173405 0.378393
H2_2 H 0.701797 0.151652 0.335574
N1_2 N 0.7252(3) 0.12401(12) 0.40355(14)
N4_2 N 0.6749(3) 0.08958(12) 0.38741(15)
C4_2 C 0.6528(4) 0.07246(15) 0.43092(19)
C5_2 C 0.0193(4) 0.07452(16) 0.8094(2)
C7_2 C 0.6903(4) 0.09453(15) 0.47558(18)
C8_2 C 0.1026(4) 0.09686(16) 0.8371(2)
C9_2 C 0.0228(5) 0.14944(16) 0.6393(2)
C10_2 C 0.7357(4) 0.12813(16) 0.45602(17)
C11_2 C 0.0510(4) 0.12136(16) 0.8691(2)
C12_2 C 0.0160(5) 0.17525(18) 0.5983(3)
C13_2 C 0.5955(5) 0.03428(17) 0.4284(2)
H7_2 H 0.521864 0.037841 0.435294
H8_2 H 0.632957 0.017218 0.453971
H9_2 H 0.594904 0.023360 0.394296
C14_2 C 0.0280(5) 0.04390(18) 0.7698(2)
H10_2 H 0.029011 0.019074 0.786150
H11_2 H 0.094097 0.047424 0.754737
C16_2 C 0.7832(6) 0.16259(19) 0.4824(2)
H16_2 H 0.861086 0.161811 0.483740
H17_2 H 0.764636 0.163535 0.517150
H18_2 H 0.755218 0.185063 0.463509
C17_2 C 0.0983(5) 0.15002(18) 0.9085(2)
H19_2 H 0.075104 0.175411 0.897299
H20_2 H 0.176474 0.148630 0.912248
H21_2 H 0.073998 0.144514 0.941369
C18_2 C 0.0843(7) 0.1782(2) 0.5552(3)
H22_2 H 0.038063 0.177765 0.522271
H23_2 H 0.134010 0.156892 0.557067
H24_2 H 0.124644 0.201892 0.558491
C19_2 C 0.6893(4) 0.08462(17) 0.53062(18)
C20_2 C 0.2209(4) 0.09474(17) 0.8338(2)
C21_2 C 0.1002(5) 0.11649(18) 0.6487(2)
C22_2 C 0.7812(5) 0.0901(2) 0.5669(2)
H25_2 H 0.842400 0.102050 0.556890
C23_2 C 0.2724(4) 0.05808(17) 0.8381(2)
H26_2 H 0.232773 0.036443 0.845378
C24_2 C 0.1824(6) 0.1176(2) 0.6896(3)
H27_2 H 0.192788 0.139528 0.710339
C25_2 C 0.7824(5) 0.0778(2) 0.6188(2)
H28_2 H 0.844913 0.081040 0.642742
C26_2 C 0.3802(4) 0.05435(18) 0.8318(2)
H29_2 H 0.412619 0.030139 0.834414
C27_2 C 0.2499(5) 0.0862(2) 0.7001(3)
H30_2 H 0.307186 0.087811 0.727243
C28_2 C 0.6907(4) 0.06071(18) 0.63433(19)
C29_2 C 0.4416(4) 0.08629(17) 0.8213(2)
C30_2 C 0.2360(4) 0.05275(16) 0.6723(2)
C31_2 C 0.5992(5) 0.05580(17) 0.5980(2)
H31_2 H 0.537631 0.044125 0.607999
C32_2 C 0.3934(4) 0.12270(18) 0.8190(2)
H32_2 H 0.434541 0.144352 0.813433
C33_2 C 0.1504(5) 0.05123(19) 0.6309(2)
H33_2 H 0.137911 0.028878 0.611190
C34_2 C 0.5974(4) 0.06798(18) 0.5469(2)
H34_2 H 0.534286 0.065002 0.523298
C35_2 C 0.2830(4) 0.12672(17) 0.8248(2)
H35_2 H 0.251184 0.151021 0.822725
C36_2 C 0.0860(5) 0.0826(2) 0.6197(3)
H36_2 H 0.030449 0.081392 0.591751
C37_2 C 0.6896(4) 0.04743(17) 0.68948(19)
C38_2 C 0.5553(4) 0.08041(17) 0.8104(2)
C39_2 C 0.3051(4) 0.01829(17) 0.6885(2)
O1_2 O 0.7591(3) 0.06186(12) 0.72476(13)
O2_2 O 0.5864(3) 0.04508(12) 0.80369(14)
O3_2 O 0.3914(3) 0.02288(12) 0.71779(16)
O4_2 O 0.6202(3) 0.02265(12) 0.69626(14)
O5_2 O 0.6202(3) 0.10805(12) 0.80828(16)
N7_2 N 0.8552(3) 0.13102(13) 0.34341(16)
N10_2 N 0.8348(3) 0.09767(13) 0.31453(16)
C40_2 C 0.9318(4) 0.08523(17) 0.30529(19)
C46_2 C 0.9613(4) 0.13998(17) 0.3511(2)
C48_2 C 0.0057(5) 0.29808(17) 0.6028(2)
C49_2 C 0.9443(5) 0.04858(18) 0.2769(2)
H37_2 H 0.947286 0.027392 0.300868
H39_2 H 0.883247 0.045301 0.250147
H46_2 H 0.980768 0.197410 0.365825
H48_2 H 0.983219 0.172919 0.416832
C54_2 C 0.0760(5) 0.29742(19) 0.5596(2)
H52_2 H 0.124501 0.275748 0.564217
H53_2 H 0.117763 0.320762 0.560433
H54_2 H 0.030519 0.295328 0.526591
C57_2 C 0.0610(5) 0.36064(17) 0.6513(2)
C60_2 C 0.1726(6) 0.36210(19) 0.6639(2)
H57_2 H 0.212609 0.339438 0.664011
C63_2 C 0.2262(5) 0.39614(17) 0.6763(2)
H60_2 H 0.301445 0.396158 0.685654
C66_2 C 0.1692(5) 0.43030(17) 0.67484(19)
C69_2 C 0.0567(4) 0.43045(17) 0.6604(2)
H63_2 H 0.017751 0.453432 0.658052
C72_2 C 0.0033(5) 0.39507(18) 0.6496(3)
C75_2 C 0.2276(4) 0.46795(16) 0.6903(2)
N14 N 0.9211(3) 0.08485(13) 0.82220(16)
N16 N 0.7591(3) 0.06693(12) 0.89411(15)
Mn3_2 Mn 0.32719(6) 0.93166(2) 0.69703(3)
O6_2 O 0.2682(3) 0.98573(12) 0.67089(15)
N13_2 N 0.3251(3) 0.91042(12) 0.61259(15)
N15_2 N 0.1652(3) 0.90233(13) 0.68547(16)
O14_2 O 0.4982(3) 0.94515(11) 0.69806(13)
O15_2 O 0.3078(3) 0.93722(13) 0.77681(14)
O17_2 O 0.4709(3) 0.88275(12) 0.70721(14)
O18_2 O 0.4624(3) 0.96652(12) 0.81019(13)
C53_2 C 0.8697(5) 0.12916(19) 0.0040(2)
H49_2 H 0.947321 0.125998 0.006533
H50_2 H 0.847801 0.127282 0.038035
C56_2 C 0.7203(4) 0.05743(17) 0.0326(2)
C59_2 C 0.7998(5) 0.05411(16) 0.0777(2)
H56_2 H 0.873588 0.054013 0.074158
C62_2 C 0.7682(5) 0.05108(17) 0.1258(2)
H59_2 H 0.821055 0.049406 0.154887
C65_2 C 0.6599(4) 0.05043(16) 0.13241(19)
C68_2 C 0.5816(4) 0.05091(17) 0.0890(2)
H62_2 H 0.508177 0.048566 0.092657
C71_2 C 0.6135(5) 0.05498(18) 0.0391(2)
H65_2 H 0.560428 0.056014 0.010003
C74_2 C 0.6265(4) 0.04922(16) 0.18577(19)
O8_2 O 0.6922(3) 0.06278(13) 0.22319(14)
O11_2 O 0.5376(3) 0.03348(12) 0.18981(13)
C2_2 C 0.8537(4) 0.12731(15) 0.8837(2)
H3_2 H 0.794229 0.134849 0.857289
H4_2 H 0.876896 0.149870 0.904361
C3_2 C 0.9024(5) 0.23616(17) 0.5784(3)
H5_2 H 0.936435 0.237218 0.546785
H6_2 H 0.824082 0.235413 0.568250
Cu1_2 Cu 0.81428(9) 0.23326(3) 0.68658(5)
N2_2 N 0.9435(3) 0.11298(13) 0.85885(15)
N3_2 N 0.9365(4) 0.20124(14) 0.6065(2)
N6_2 N 0.8924(5) 0.19345(17) 0.6511(2)
C6_2 C 0.9461(5) 0.16134(18) 0.6707(3)
H12_2 H 0.966617 0.045493 0.742902
C15_2 C 0.9180(6) 0.1439(2) 0.7193(3)
H13_2 H 0.980396 0.144798 0.745673
H14_2 H 0.896493 0.117574 0.712789
H15_2 H 0.859003 0.157944 0.730834
N8_2 N 0.8158(3) 0.09769(13) 0.91726(15)
N9_2 N 0.9298(5) 0.26987(15) 0.6080(2)
N12_2 N 0.8765(6) 0.27718(18) 0.6498(3)
C41_2 C 0.7214(4) 0.04831(16) 0.9334(2)
C42_2 C 0.9173(7) 0.3103(2) 0.6707(3)
C44_2 C 0.7522(4) 0.06700(17) 0.98108(19)
C45_2 C 0.9986(5) 0.32418(19) 0.6402(3)
C47_2 C 0.8144(4) 0.09840(16) 0.96967(19)
C50_2 C 0.6527(5) 0.01233(18) 0.9232(2)
H40_2 H 0.651221 0.004628 0.887539
H41_2 H 0.579799 0.017521 0.930049
C51_2 C 0.8789(10) 0.3269(3) 0.7160(4)
H43_2 H 0.873027 0.307151 0.741366
H44_2 H 0.808694 0.338455 0.705976
H45_2 H 0.929427 0.346237 0.730725
H51_2 H 0.849640 0.153964 0.989323
H66_2 H 0.927836 0.394673 0.641211
C76_2 C 0.742(2) 0.2263(7) 0.7407(9)
O13_2 O 0.652(2) 0.2227(9) 0.7609(10)
C43_3 C 0.0159(4) 0.38887(17) 0.8266(2)
H38_3 H 0.010385 0.450598 0.761358
C52_3 C 0.0066(5) 0.32598(19) 0.8830(3)
H47_3 H 0.084839 0.326591 0.886701
C55_3 C 0.1339(4) 0.39289(18) 0.8228(2)
C58_3 C 0.1844(4) 0.42778(19) 0.8321(2)
H55_3 H 0.144607 0.448209 0.843107
C61_3 C 0.2918(4) 0.43380(18) 0.8259(2)
H58_3 H 0.323782 0.457815 0.832925
C64_3 C 0.3524(4) 0.40343(17) 0.80902(19)
C67_3 C 0.3017(4) 0.36758(18) 0.8011(2)
H61_3 H 0.341467 0.346641 0.791550
C70_3 C 0.1965(5) 0.36293(19) 0.8071(2)
H64_3 H 0.164511 0.338880 0.800636
C73_3 C 0.4673(4) 0.41000(17) 0.80081(19)
Mn1 Mn 0.76078(6) 0.44570(2) 0.30661(3)
C5_3 C 0.0193(4) 0.42548(16) 0.3094(2)
C8_3 C 0.1026(4) 0.40314(16) 0.3371(2)
C9_3 C 0.0228(5) 0.35056(16) 0.1393(2)
C11_3 C 0.0510(4) 0.37864(16) 0.3691(2)
C12_3 C 0.0160(5) 0.32475(18) 0.0983(3)
C14_3 C 0.0280(5) 0.45610(18) 0.2698(2)
H10_3 H 0.029011 0.480926 0.286150
H11_3 H 0.094097 0.452576 0.254737
H17_3 H 0.764636 0.336465 0.017150
C17_3 C 0.0983(5) 0.34998(18) 0.4085(2)
H19_3 H 0.075104 0.324589 0.397299
H20_3 H 0.176474 0.351370 0.412248
H21_3 H 0.073998 0.355486 0.441369
C18_3 C 0.0843(7) 0.3218(2) 0.0552(3)
H22_3 H 0.038063 0.322235 0.022271
H23_3 H 0.134010 0.343108 0.057067
H24_3 H 0.124644 0.298108 0.058491
C19_3 C 0.6893(4) 0.41538(17) 0.03062(18)
C20_3 C 0.2209(4) 0.40526(17) 0.3338(2)
C21_3 C 0.1002(5) 0.38351(18) 0.1487(2)
C22_3 C 0.7812(5) 0.4099(2) 0.0669(2)
H25_3 H 0.842400 0.397950 0.056890
C23_3 C 0.2724(4) 0.44192(17) 0.3381(2)
H26_3 H 0.232773 0.463557 0.345378
C24_3 C 0.1824(6) 0.3824(2) 0.1896(3)
H27_3 H 0.192788 0.360472 0.210339
C25_3 C 0.7824(5) 0.4222(2) 0.1188(2)
H28_3 H 0.844913 0.418960 0.142742
C26_3 C 0.3802(4) 0.44565(18) 0.3318(2)
H29_3 H 0.412619 0.469861 0.334414
C27_3 C 0.2499(5) 0.4138(2) 0.2001(3)
H30_3 H 0.307186 0.412189 0.227243
C28_3 C 0.6907(4) 0.43929(18) 0.13433(19)
C29_3 C 0.4416(4) 0.41371(17) 0.3213(2)
C30_3 C 0.2360(4) 0.44725(16) 0.1723(2)
C31_3 C 0.5992(5) 0.44420(17) 0.0980(2)
H31_3 H 0.537631 0.455875 0.107999
C32_3 C 0.3934(4) 0.37730(18) 0.3190(2)
H32_3 H 0.434541 0.355648 0.313433
C33_3 C 0.1504(5) 0.44877(19) 0.1309(2)
H33_3 H 0.137911 0.471122 0.111190
C34_3 C 0.5974(4) 0.43202(18) 0.0469(2)
H34_3 H 0.534286 0.434998 0.023298
C35_3 C 0.2830(4) 0.37328(17) 0.3248(2)
H35_3 H 0.251184 0.348979 0.322725
C36_3 C 0.0860(5) 0.4174(2) 0.1197(3)
H36_3 H 0.030449 0.418608 0.091751
C37_3 C 0.6896(4) 0.45257(17) 0.18948(19)
C38_3 C 0.5553(4) 0.41959(17) 0.3104(2)
C39_3 C 0.3051(4) 0.48171(17) 0.1885(2)
O1_3 O 0.7591(3) 0.43814(12) 0.22476(13)
O2_3 O 0.5864(3) 0.45492(12) 0.30369(14)
O3_3 O 0.3914(3) 0.47712(12) 0.21779(16)
O4_3 O 0.6202(3) 0.47735(12) 0.19626(14)
O5_3 O 0.6202(3) 0.39195(12) 0.30828(16)
O6_3 O 0.2682(3) 0.51427(12) 0.17089(15)
C48_3 C 0.0057(5) 0.20192(17) 0.1028(2)
C54_3 C 0.0760(5) 0.20258(19) 0.0596(2)
H52_3 H 0.124501 0.224252 0.064217
H53_3 H 0.117763 0.179238 0.060433
H54_3 H 0.030519 0.204672 0.026591
C57_3 C 0.0610(5) 0.13936(17) 0.1513(2)
C60_3 C 0.1726(6) 0.13790(19) 0.1639(2)
H57_3 H 0.212609 0.160562 0.164011
C63_3 C 0.2262(5) 0.10386(17) 0.1763(2)
H60_3 H 0.301445 0.103842 0.185654
C66_3 C 0.1692(5) 0.06970(17) 0.17484(19)
C69_3 C 0.0567(4) 0.06955(17) 0.1604(2)
H63_3 H 0.017751 0.046568 0.158052
C72_3 C 0.0033(5) 0.10493(18) 0.1496(3)
C75_3 C 0.2276(4) 0.03205(16) 0.1903(2)
O9_2 O 0.3242(3) 0.03445(12) 0.21051(15)
O12_2 O 0.1742(3) 0.00132(12) 0.18106(14)
N14_2 N 0.9211(3) 0.41515(13) 0.32220(16)
N16_2 N 0.7591(3) 0.43307(12) 0.39411(15)
O16_2 O 0.6758(3) 0.53445(12) 0.28949(15)
O19_2 O 0.8258(3) 0.50132(12) 0.31894(14)
C1_3 C 0.7610(4) 0.35175(16) 0.8638(2)
H1_3 H 0.780964 0.326595 0.878393
H2_3 H 0.701797 0.348348 0.835574
N1_3 N 0.7252(3) 0.37599(12) 0.90355(14)
C4_3 C 0.6528(4) 0.42754(15) 0.93092(19)
C7_3 C 0.6903(4) 0.40547(15) 0.97558(18)
C10_3 C 0.7357(4) 0.37187(16) 0.95602(17)
C13_3 C 0.5955(5) 0.46572(17) 0.9284(2)
H7_3 H 0.521864 0.462159 0.935294
H8_3 H 0.632957 0.482782 0.953971
H9_3 H 0.594904 0.476640 0.894296
C16_3 C 0.7832(6) 0.33741(19) 0.9824(2)
H16_3 H 0.861086 0.338189 0.983740
H18_3 H 0.755218 0.314937 0.963509
N7_3 N 0.8552(3) 0.36898(13) 0.84341(16)
C40_3 C 0.9318(4) 0.41477(17) 0.80529(19)
C46_3 C 0.9613(4) 0.36002(17) 0.8511(2)
C49_3 C 0.9443(5) 0.45142(18) 0.7769(2)
H37_3 H 0.947286 0.472608 0.800868
H39_3 H 0.883247 0.454699 0.750147
H46_3 H 0.980768 0.302590 0.865825
H48_3 H 0.983219 0.327081 0.916832
Mn5_2 Mn 0.23922(6) 0.94570(2) 0.19339(3)
C2_3 C 0.8537(4) 0.37269(15) 0.3837(2)
H3_3 H 0.794229 0.365151 0.357289
H4_3 H 0.876896 0.350130 0.404361
C3_3 C 0.9024(5) 0.26384(17) 0.0784(3)
H5_3 H 0.936435 0.262782 0.046785
H6_3 H 0.824082 0.264587 0.068250
Cu1_3 Cu 0.81428(9) 0.26674(3) 0.18658(5)
N2_3 N 0.9435(3) 0.38702(13) 0.35885(15)
N3_3 N 0.9365(4) 0.29876(14) 0.1065(2)
N6_3 N 0.8924(5) 0.30655(17) 0.1511(2)
C6_3 C 0.9461(5) 0.33866(18) 0.1707(3)
H12_3 H 0.966617 0.454507 0.242902
C15_3 C 0.9180(6) 0.3561(2) 0.2193(3)
H13_3 H 0.980396 0.355202 0.245673
H14_3 H 0.896493 0.382426 0.212789
H15_3 H 0.859003 0.342056 0.230834
N8_3 N 0.8158(3) 0.40231(13) 0.41726(15)
N9_3 N 0.9298(5) 0.23013(15) 0.1080(2)
N12_3 N 0.8765(6) 0.22282(18) 0.1498(3)
C41_3 C 0.7214(4) 0.45169(16) 0.4334(2)
C42_3 C 0.9173(7) 0.1897(2) 0.1707(3)
C44_3 C 0.7522(4) 0.43300(17) 0.48108(19)
C45_3 C 0.9986(5) 0.17582(19) 0.1402(3)
C47_3 C 0.8144(4) 0.40160(16) 0.46967(19)
C50_3 C 0.6527(5) 0.48767(18) 0.4232(2)
H40_3 H 0.651221 0.495372 0.387539
H41_3 H 0.579799 0.482479 0.430049
H42_2 H 0.683572 0.507981 0.445716
C51_3 C 0.8789(10) 0.1731(3) 0.2160(4)
H43_3 H 0.873027 0.192849 0.241366
H44_3 H 0.808694 0.161545 0.205976
H45_3 H 0.929427 0.153763 0.230725
C53_3 C 0.8697(5) 0.37084(19) 0.5040(2)
H49_3 H 0.947321 0.374002 0.506533
H50_3 H 0.847801 0.372718 0.538035
H51_3 H 0.849640 0.346036 0.489323
C56_3 C 0.7203(4) 0.44257(17) 0.5326(2)
C59_3 C 0.7998(5) 0.44589(16) 0.5777(2)
H56_3 H 0.873588 0.445987 0.574158
C62_3 C 0.7682(5) 0.44892(17) 0.6258(2)
H59_3 H 0.821055 0.450594 0.654887
C65_3 C 0.6599(4) 0.44957(16) 0.63241(19)
C68_3 C 0.5816(4) 0.44909(17) 0.5890(2)
H62_3 H 0.508177 0.451434 0.592657
C71_3 C 0.6135(5) 0.44502(18) 0.5391(2)
H65_3 H 0.560428 0.443986 0.510003
H66_3 H 0.927836 0.105327 0.141211
C74_3 C 0.6265(4) 0.45078(16) 0.68577(19)
C76_3 C 0.742(2) 0.2737(7) 0.2407(9)
O13_3 O 0.652(2) 0.2773(9) 0.2609(10)
C2_4 C 0.1463(4) 0.87269(15) 0.1163(2)
H3_4 H 0.205771 0.865151 0.142711
H4_4 H 0.123104 0.850130 0.095639
C3_4 C 0.0976(5) 0.76384(17) 0.4216(3)
H5_4 H 0.063565 0.762782 0.453215
H6_4 H 0.175918 0.764587 0.431750
Cu1_4 Cu 0.18572(9) 0.76674(3) 0.31342(5)
N2_4 N 0.0565(3) 0.88702(13) 0.14115(15)
N3_4 N 0.0635(4) 0.79876(14) 0.3935(2)
N5_2 N 0.0789(3) 0.91515(13) 0.17780(16)
N6_4 N 0.1076(5) 0.80655(17) 0.3489(2)
C6_4 C 0.0539(5) 0.83866(18) 0.3293(3)
H12_4 H 0.033383 0.954507 0.257098
C15_4 C 0.0820(6) 0.8561(2) 0.2807(3)
H13_4 H 0.019604 0.855202 0.254327
H14_4 H 0.103507 0.882426 0.287211
H15_4 H 0.140997 0.842056 0.269166
N8_4 N 0.1842(3) 0.90231(13) 0.08274(15)
N9_4 N 0.0702(5) 0.73013(15) 0.3920(2)
N11_2 N 0.2409(3) 0.93307(12) 0.10589(15)
N12_4 N 0.1235(6) 0.72282(18) 0.3502(3)
C41_4 C 0.2786(4) 0.95169(16) 0.0666(2)
C42_4 C 0.0827(7) 0.6897(2) 0.3293(3)
C44_4 C 0.2478(4) 0.93300(17) 0.01892(19)
C45_4 C 0.0014(5) 0.67582(19) 0.3598(3)
C47_4 C 0.1856(4) 0.90160(16) 0.03033(19)
C50_4 C 0.3473(5) 0.98767(18) 0.0768(2)
H40_4 H 0.348779 0.995372 0.112461
H41_4 H 0.420201 0.982479 0.069951
C51_4 C 0.1211(10) 0.6731(3) 0.2840(4)
H43_4 H 0.126973 0.692849 0.258634
H44_4 H 0.191306 0.661545 0.294024
H45_4 H 0.070573 0.653763 0.269275
H51_4 H 0.150360 0.846036 0.010677
H66_4 H 0.072164 0.605327 0.358789
C76_4 C 0.258(2) 0.7737(7) 0.2593(9)
O13_4 O 0.348(2) 0.7773(9) 0.2391(10)
C53_4 C 0.1303(5) 0.87084(19) 0.9960(2)
H49_4 H 0.052679 0.874002 0.993467
H50_4 H 0.152199 0.872718 0.961965
C56_4 C 0.2797(4) 0.94257(17) 0.9674(2)
C59_4 C 0.2002(5) 0.94589(16) 0.9223(2)
H56_4 H 0.126412 0.945987 0.925842
C62_4 C 0.2318(5) 0.94892(17) 0.8742(2)
H59_4 H 0.178945 0.950594 0.845113
C65_4 C 0.3401(4) 0.94957(16) 0.86759(19)
C68_4 C 0.4184(4) 0.94909(17) 0.9110(2)
H62_4 H 0.491823 0.951434 0.907343
C71_4 C 0.3865(5) 0.94502(18) 0.9609(2)
H65_4 H 0.439572 0.943986 0.989997
C74_4 C 0.3735(4) 0.95078(16) 0.81423(19)
O6_4 O 0.7318(3) 0.01427(12) 0.32911(15)
C1_4 C 0.2390(4) 0.85175(16) 0.6362(2)
H1_4 H 0.219036 0.826595 0.621607
H2_4 H 0.298203 0.848348 0.664426
N1_4 N 0.2748(3) 0.87599(12) 0.59645(14)
C4_4 C 0.3472(4) 0.92754(15) 0.56908(19)
C5_4 C 0.9807(4) 0.92548(16) 0.1906(2)
C7_4 C 0.3097(4) 0.90547(15) 0.52442(18)
C8_4 C 0.8974(4) 0.90314(16) 0.1629(2)
C9_4 C 0.9772(5) 0.85056(16) 0.3607(2)
C10_4 C 0.2643(4) 0.87187(16) 0.54398(17)
C11_4 C 0.9490(4) 0.87864(16) 0.1309(2)
C12_4 C 0.9840(5) 0.82475(18) 0.4017(3)
C13_4 C 0.4045(5) 0.96572(17) 0.5716(2)
H7_4 H 0.478136 0.962159 0.564706
H8_4 H 0.367043 0.982782 0.546029
H9_4 H 0.405096 0.976640 0.605704
C14_4 C 0.9720(5) 0.95610(18) 0.2302(2)
H10_4 H 0.970989 0.980926 0.213850
H11_4 H 0.905903 0.952576 0.245263
C16_4 C 0.2168(6) 0.83741(19) 0.5176(2)
H16_4 H 0.138914 0.838189 0.516260
H17_4 H 0.235364 0.836465 0.482850
H18_4 H 0.244782 0.814937 0.536491
C17_4 C 0.9017(5) 0.84998(18) 0.0915(2)
H19_4 H 0.924896 0.824589 0.102701
H20_4 H 0.823526 0.851370 0.087752
H21_4 H 0.926002 0.855486 0.058631
C18_4 C 0.9157(7) 0.8218(2) 0.4448(3)
H22_4 H 0.961937 0.822235 0.477729
H23_4 H 0.865990 0.843108 0.442933
H24_4 H 0.875356 0.798108 0.441509
C19_4 C 0.3107(4) 0.91538(17) 0.46938(18)
C20_4 C 0.7791(4) 0.90526(17) 0.1662(2)
C21_4 C 0.8998(5) 0.88351(18) 0.3513(2)
C22_4 C 0.2188(5) 0.9099(2) 0.4331(2)
H25_4 H 0.157600 0.897950 0.443110
C23_4 C 0.7276(4) 0.94192(17) 0.1619(2)
H26_4 H 0.767227 0.963557 0.154622
C24_4 C 0.8176(6) 0.8824(2) 0.3104(3)
H27_4 H 0.807212 0.860472 0.289661
C25_4 C 0.2176(5) 0.9222(2) 0.3812(2)
H28_4 H 0.155087 0.918960 0.357258
C26_4 C 0.6198(4) 0.94565(18) 0.1682(2)
H29_4 H 0.587381 0.969861 0.165586
C27_4 C 0.7501(5) 0.9138(2) 0.2999(3)
H30_4 H 0.692814 0.912189 0.272757
C28_4 C 0.3093(4) 0.93929(18) 0.36567(19)
C29_4 C 0.5584(4) 0.91371(17) 0.1787(2)
C30_4 C 0.7640(4) 0.94725(16) 0.3277(2)
C31_4 C 0.4008(5) 0.94420(17) 0.4020(2)
H31_4 H 0.462369 0.955875 0.392001
C32_4 C 0.6066(4) 0.87730(18) 0.1810(2)
H32_4 H 0.565459 0.855648 0.186567
C33_4 C 0.8496(5) 0.94877(19) 0.3691(2)
H33_4 H 0.862089 0.971122 0.388810
C34_4 C 0.4026(4) 0.93202(18) 0.4531(2)
H34_4 H 0.465714 0.934998 0.476702
C35_4 C 0.7170(4) 0.87328(17) 0.1752(2)
H35_4 H 0.748816 0.848979 0.177275
C36_4 C 0.9140(5) 0.9174(2) 0.3803(3)
H36_4 H 0.969551 0.918608 0.408249
C37_4 C 0.3104(4) 0.95257(17) 0.31052(19)
C38_4 C 0.4447(4) 0.91959(17) 0.1896(2)
C39_4 C 0.6949(4) 0.98171(17) 0.3115(2)
O1_4 O 0.2409(3) 0.93814(12) 0.27524(13)
O2_4 O 0.4136(3) 0.95492(12) 0.19631(14)
O3_4 O 0.6086(3) 0.97712(12) 0.28221(16)
O4_4 O 0.3798(3) 0.97735(12) 0.30374(14)
O5_4 O 0.3798(3) 0.89195(12) 0.19172(16)
N7_4 N 0.1448(3) 0.86898(13) 0.65659(16)
C40_4 C 0.0682(4) 0.91477(17) 0.69471(19)
C46_4 C 0.0387(4) 0.86002(17) 0.6489(2)
C48_4 C 0.9943(5) 0.70192(17) 0.3972(2)
C49_4 C 0.0557(5) 0.95142(18) 0.7231(2)
H37_4 H 0.052714 0.972608 0.699132
H39_4 H 0.116753 0.954699 0.749853
H46_4 H 0.019232 0.802590 0.634175
H48_4 H 0.016781 0.827081 0.583168
C54_4 C 0.9240(5) 0.70258(19) 0.4404(2)
H52_4 H 0.875499 0.724252 0.435783
H53_4 H 0.882237 0.679238 0.439567
H54_4 H 0.969481 0.704672 0.473409
C57_4 C 0.9390(5) 0.63936(17) 0.3487(2)
C60_4 C 0.8274(6) 0.63790(19) 0.3361(2)
H57_4 H 0.787391 0.660562 0.335989
C63_4 C 0.7738(5) 0.60386(17) 0.3237(2)
H60_4 H 0.698555 0.603842 0.314346
C66_4 C 0.8308(5) 0.56970(17) 0.32516(19)
C69_4 C 0.9433(4) 0.56955(17) 0.3396(2)
H63_4 H 0.982249 0.546568 0.341948
C72_4 C 0.9967(5) 0.60493(18) 0.3504(3)
C75_4 C 0.7724(4) 0.53205(16) 0.3097(2)
C43_4 C 0.9841(4) 0.88887(17) 0.6734(2)
H38_4 H 0.989615 0.950598 0.738642
C52_4 C 0.9934(5) 0.82598(19) 0.6170(3)
H47_4 H 0.915161 0.826591 0.613299
C55_4 C 0.8661(4) 0.89289(18) 0.6772(2)
C58_4 C 0.8156(4) 0.92778(19) 0.6679(2)
H55_4 H 0.855393 0.948209 0.656893
C61_4 C 0.7082(4) 0.93380(18) 0.6741(2)
H58_4 H 0.676218 0.957815 0.667075
C64_4 C 0.6476(4) 0.90343(17) 0.69098(19)
C67_4 C 0.6983(4) 0.86758(18) 0.6989(2)
H61_4 H 0.658533 0.846641 0.708450
C70_4 C 0.8035(5) 0.86293(19) 0.6929(2)
H64_4 H 0.835489 0.838880 0.699364
C73_4 C 0.5327(4) 0.91000(17) 0.69919(19)
H42_3 H 0.683572 0.992019 0.945716
H42_4 H 0.316428 0.007981 0.054284
loop_
_geom_bond_atom_site_label_1
_geom_bond_atom_site_label_2
_geom_bond_site_symmetry_1
_geom_bond_site_symmetry_2
B1 F1 1_555 1_555
F2 B1 1_555 1_555
F3 B1 1_555 1_555
F4 B1 1_555 1_555
B1_2 F1_2 1_555 1_555
F2_2 B1_2 1_555 1_555
F3_2 B1_2 1_555 1_555
F4_2 B1_2 1_555 1_555
B1_3 F1_3 1_555 1_555
F2_3 B1_3 1_555 1_555
F3_3 B1_3 1_555 1_555
F4_3 B1_3 1_555 1_555
B1_4 F1_4 1_555 1_555
F2_4 B1_4 1_555 1_555
F3_4 B1_4 1_555 1_555
F4_4 B1_4 1_555 1_555
C2 H3 1_555 1_555
H4 C2 1_555 1_555
C3 H5 1_555 1_555
H6 C3 1_555 1_555
Cu1 N6 1_555 1_555
N2 C2 1_555 1_555
N3 C3 1_555 1_555
N5 N2 1_555 1_555
N6 N3 1_555 1_555
C6 N6 1_555 1_555
C15 C6 1_555 1_555
H13 C15 1_555 1_555
H14 C15 1_555 1_555
H15 C15 1_555 1_555
N8 C2 1_555 1_555
N9 C3 1_555 1_555
N11 N8 1_555 1_555
N12 Cu1 1_555 1_555
C41 N11 1_555 1_555
C42 N12 1_555 1_555
C44 C41 1_555 1_555
C45 C42 1_555 1_555
C47 N8 1_555 1_555
C50 C41 1_555 1_555
H40 C50 1_555 1_555
H41 C50 1_555 1_555
H42 C50 1_555 1_555
C51 C42 1_555 1_555
H43 C51 1_555 1_555
H44 C51 1_555 1_555
H45 C51 1_555 1_555
C53 C47 1_555 1_555
H49 C53 1_555 1_555
H50 C53 1_555 1_555
H51 C53 1_555 1_555
C56 C44 1_555 1_555
C59 C56 1_555 1_555
H56 C59 1_555 1_555
C62 C59 1_555 1_555
H59 C62 1_555 1_555
C65 C62 1_555 1_555
C68 C65 1_555 1_555
H62 C68 1_555 1_555
C71 C56 1_555 1_555
H65 C71 1_555 1_555
C74 C65 1_555 1_555
O8 C74 1_555 1_555
O11 C74 1_555 1_555
C76 Cu1 1_555 1_555
O13 C76 1_555 1_555
Mn4 N5 1_555 1_555
Mn8 O11 1_555 1_555
Mn11 O8 1_555 1_555
N9 N12 1_555 1_555
N11 Mn4 1_555 1_555
C44 C47 1_555 1_555
C68 C71 1_555 1_555
C1 H1 1_555 1_555
H2 C1 1_555 1_555
N1 C1 1_555 1_555
N4 N1 1_555 1_555
C4 N4 1_555 1_555
C7 C4 1_555 1_555
C10 N1 1_555 1_555
C13 C4 1_555 1_555
H7 C13 1_555 1_555
H8 C13 1_555 1_555
H9 C13 1_555 1_555
C16 C10 1_555 1_555
H16 C16 1_555 1_555
H18 C16 1_555 1_555
N7 C1 1_555 1_555
N10 N7 1_555 1_555
C40 N10 1_555 1_555
C46 N7 1_555 1_555
C49 C40 1_555 1_555
H37 C49 1_555 1_555
H39 C49 1_555 1_555
Mn11 N4 1_555 1_555
C7 C10 1_555 1_555
N10 Mn11 1_555 1_555
Mn4 O1 1_555 1_555
Mn2 O2 1_555 1_555
Mn3 O6 1_555 1_555
C8 C5 1_555 1_555
C14 C5 1_555 1_555
H10 C14 1_555 1_555
H11 C14 1_555 1_555
C17 C11 1_555 1_555
H19 C17 1_555 1_555
H20 C17 1_555 1_555
H21 C17 1_555 1_555
C18 C12 1_555 1_555
H22 C18 1_555 1_555
H23 C18 1_555 1_555
H24 C18 1_555 1_555
C20 C8 1_555 1_555
C21 C9 1_555 1_555
C22 C19 1_555 1_555
H25 C22 1_555 1_555
C23 C20 1_555 1_555
H26 C23 1_555 1_555
C24 C21 1_555 1_555
H27 C24 1_555 1_555
C25 C22 1_555 1_555
H28 C25 1_555 1_555
C26 C23 1_555 1_555
H29 C26 1_555 1_555
C27 C24 1_555 1_555
H30 C27 1_555 1_555
C28 C25 1_555 1_555
C29 C26 1_555 1_555
C30 C27 1_555 1_555
C31 C28 1_555 1_555
H31 C31 1_555 1_555
C32 C29 1_555 1_555
H32 C32 1_555 1_555
C33 C30 1_555 1_555
H33 C33 1_555 1_555
C34 C19 1_555 1_555
H34 C34 1_555 1_555
C35 C20 1_555 1_555
H35 C35 1_555 1_555
C36 C21 1_555 1_555
H36 C36 1_555 1_555
C37 C28 1_555 1_555
C38 C29 1_555 1_555
C39 C30 1_555 1_555
O1 C37 1_555 1_555
O2 Mn4 1_555 1_555
O3 Mn2 1_555 1_555
O4 Mn2 1_555 1_555
O5 C38 1_555 1_555
O6 C39 1_555 1_555
C54 C48 1_555 1_555
H52 C54 1_555 1_555
H53 C54 1_555 1_555
H54 C54 1_555 1_555
C60 C57 1_555 1_555
H57 C60 1_555 1_555
C63 C60 1_555 1_555
H60 C63 1_555 1_555
C66 C63 1_555 1_555
C69 C66 1_555 1_555
H63 C69 1_555 1_555
C72 C57 1_555 1_555
C75 C66 1_555 1_555
O9 C75 1_555 1_555
O12 C75 1_555 1_555
Mn6 O9 1_555 1_555
N13 Mn3 1_555 1_555
N15 Mn3 1_555 1_555
O14 Mn2 1_555 1_555
O15 Mn3 1_555 1_555
O16 Mn2 1_555 1_555
O17 Mn3 1_555 1_555
O18 Mn2 1_555 1_555
O19 Mn4 1_555 1_555
Mn3 O14 1_555 1_555
C8 C11 1_555 1_555
C9 C12 1_555 1_555
C31 C34 1_555 1_555
C32 C35 1_555 1_555
C33 C36 1_555 1_555
C37 O4 1_555 1_555
C38 O2 1_555 1_555
C39 O3 1_555 1_555
C69 C72 1_555 1_555
H47 C52 1_555 1_555
C55 C43 1_555 1_555
C58 C55 1_555 1_555
H55 C58 1_555 1_555
C61 C58 1_555 1_555
H58 C61 1_555 1_555
C64 C61 1_555 1_555
C67 C64 1_555 1_555
H61 C67 1_555 1_555
C70 C55 1_555 1_555
H64 C70 1_555 1_555
C73 C64 1_555 1_555
O7 C73 1_555 1_555
O10 C73 1_555 1_555
Mn8 O7 1_555 1_555
Mn11 O7 1_555 1_555
C67 C70 1_555 1_555
O10 Mn11 1_555 1_555
H47_2 C52_2 1_555 1_555
C55_2 C43_2 1_555 1_555
C58_2 C55_2 1_555 1_555
H55_2 C58_2 1_555 1_555
C61_2 C58_2 1_555 1_555
H58_2 C61_2 1_555 1_555
C64_2 C61_2 1_555 1_555
C67_2 C64_2 1_555 1_555
H61_2 C67_2 1_555 1_555
C70_2 C55_2 1_555 1_555
H64_2 C70_2 1_555 1_555
C73_2 C64_2 1_555 1_555
O7_2 C73_2 1_555 1_555
O10_2 C73_2 1_555 1_555
Mn7 O7_2 1_555 1_555
Mn9 O7_2 1_555 1_555
C67_2 C70_2 1_555 1_555
O10_2 Mn9 1_555 1_555
Mn5 O1_2 1_555 1_555
C1_2 H1_2 1_555 1_555
H2_2 C1_2 1_555 1_555
N1_2 C1_2 1_555 1_555
N4_2 N1_2 1_555 1_555
C4_2 N4_2 1_555 1_555
C7_2 C4_2 1_555 1_555
C8_2 C5_2 1_555 1_555
C10_2 N1_2 1_555 1_555
C13_2 C4_2 1_555 1_555
H7_2 C13_2 1_555 1_555
H8_2 C13_2 1_555 1_555
H9_2 C13_2 1_555 1_555
C14_2 C5_2 1_555 1_555
H10_2 C14_2 1_555 1_555
H11_2 C14_2 1_555 1_555
C16_2 C10_2 1_555 1_555
H16_2 C16_2 1_555 1_555
H17_2 C16_2 1_555 1_555
H18_2 C16_2 1_555 1_555
C17_2 C11_2 1_555 1_555
H19_2 C17_2 1_555 1_555
H20_2 C17_2 1_555 1_555
H21_2 C17_2 1_555 1_555
C18_2 C12_2 1_555 1_555
H22_2 C18_2 1_555 1_555
H23_2 C18_2 1_555 1_555
H24_2 C18_2 1_555 1_555
C19_2 C7_2 1_555 1_555
C20_2 C8_2 1_555 1_555
C21_2 C9_2 1_555 1_555
C22_2 C19_2 1_555 1_555
H25_2 C22_2 1_555 1_555
C23_2 C20_2 1_555 1_555
H26_2 C23_2 1_555 1_555
C24_2 C21_2 1_555 1_555
H27_2 C24_2 1_555 1_555
C25_2 C22_2 1_555 1_555
H28_2 C25_2 1_555 1_555
C26_2 C23_2 1_555 1_555
H29_2 C26_2 1_555 1_555
C27_2 C24_2 1_555 1_555
H30_2 C27_2 1_555 1_555
C28_2 C25_2 1_555 1_555
C29_2 C26_2 1_555 1_555
C30_2 C27_2 1_555 1_555
C31_2 C28_2 1_555 1_555
H31_2 C31_2 1_555 1_555
C32_2 C29_2 1_555 1_555
H32_2 C32_2 1_555 1_555
C33_2 C30_2 1_555 1_555
H33_2 C33_2 1_555 1_555
C34_2 C19_2 1_555 1_555
H34_2 C34_2 1_555 1_555
C35_2 C20_2 1_555 1_555
H35_2 C35_2 1_555 1_555
C36_2 C21_2 1_555 1_555
H36_2 C36_2 1_555 1_555
C37_2 C28_2 1_555 1_555
C38_2 C29_2 1_555 1_555
C39_2 C30_2 1_555 1_555
O1_2 C37_2 1_555 1_555
O2_2 Mn5 1_555 1_555
O5_2 C38_2 1_555 1_555
N7_2 C1_2 1_555 1_555
N10_2 N7_2 1_555 1_555
C40_2 N10_2 1_555 1_555
C46_2 N7_2 1_555 1_555
C49_2 C40_2 1_555 1_555
H37_2 C49_2 1_555 1_555
H39_2 C49_2 1_555 1_555
C54_2 C48_2 1_555 1_555
H52_2 C54_2 1_555 1_555
H53_2 C54_2 1_555 1_555
H54_2 C54_2 1_555 1_555
C60_2 C57_2 1_555 1_555
H57_2 C60_2 1_555 1_555
C63_2 C60_2 1_555 1_555
H60_2 C63_2 1_555 1_555
C66_2 C63_2 1_555 1_555
C69_2 C66_2 1_555 1_555
H63_2 C69_2 1_555 1_555
C72_2 C57_2 1_555 1_555
C75_2 C66_2 1_555 1_555
O16 C75_2 1_555 1_555
O19 C75_2 1_555 1_555
Mn9 N4_2 1_555 1_555
N14 Mn5 1_555 1_555
N16 Mn5 1_555 1_555
C7_2 C10_2 1_555 1_555
C8_2 C11_2 1_555 1_555
C9_2 C12_2 1_555 1_555
C31_2 C34_2 1_555 1_555
C32_2 C35_2 1_555 1_555
C33_2 C36_2 1_555 1_555
C37_2 O4_2 1_555 1_555
C38_2 O2_2 1_555 1_555
C39_2 O3_2 1_555 1_555
N10_2 Mn9 1_555 1_555
C69_2 C72_2 1_555 1_555
Mn3_2 O6_2 1_555 1_555
N13_2 Mn3_2 1_555 1_555
N15_2 Mn3_2 1_555 1_555
O14_2 Mn6 1_555 1_555
O15_2 Mn3_2 1_555 1_555
O17_2 Mn3_2 1_555 1_555
O18_2 Mn6 1_555 1_555
Mn3_2 O14_2 1_555 1_555
H49_2 C53_2 1_555 1_555
H50_2 C53_2 1_555 1_555
C59_2 C56_2 1_555 1_555
H56_2 C59_2 1_555 1_555
C62_2 C59_2 1_555 1_555
H59_2 C62_2 1_555 1_555
C65_2 C62_2 1_555 1_555
C68_2 C65_2 1_555 1_555
H62_2 C68_2 1_555 1_555
C71_2 C56_2 1_555 1_555
H65_2 C71_2 1_555 1_555
C74_2 C65_2 1_555 1_555
O8_2 C74_2 1_555 1_555
O11_2 C74_2 1_555 1_555
Mn7 O11_2 1_555 1_555
Mn9 O8_2 1_555 1_555
C68_2 C71_2 1_555 1_555
C2_2 H3_2 1_555 1_555
H4_2 C2_2 1_555 1_555
C3_2 H5_2 1_555 1_555
H6_2 C3_2 1_555 1_555
Cu1_2 N6_2 1_555 1_555
N2_2 C2_2 1_555 1_555
N3_2 C3_2 1_555 1_555
N14 N2_2 1_555 1_555
N6_2 N3_2 1_555 1_555
C6_2 N6_2 1_555 1_555
C15_2 C6_2 1_555 1_555
H13_2 C15_2 1_555 1_555
H14_2 C15_2 1_555 1_555
H15_2 C15_2 1_555 1_555
N8_2 C2_2 1_555 1_555
N9_2 C3_2 1_555 1_555
N16 N8_2 1_555 1_555
N12_2 Cu1_2 1_555 1_555
C41_2 N16 1_555 1_555
C42_2 N12_2 1_555 1_555
C44_2 C41_2 1_555 1_555
C45_2 C42_2 1_555 1_555
C47_2 N8_2 1_555 1_555
C50_2 C41_2 1_555 1_555
H40_2 C50_2 1_555 1_555
H41_2 C50_2 1_555 1_555
C51_2 C42_2 1_555 1_555
H43_2 C51_2 1_555 1_555
H44_2 C51_2 1_555 1_555
H45_2 C51_2 1_555 1_555
C76_2 Cu1_2 1_555 1_555
O13_2 C76_2 1_555 1_555
N9_2 N12_2 1_555 1_555
C44_2 C47_2 1_555 1_555
H47_3 C52_3 1_555 1_555
C55_3 C43_3 1_555 1_555
C58_3 C55_3 1_555 1_555
H55_3 C58_3 1_555 1_555
C61_3 C58_3 1_555 1_555
H58_3 C61_3 1_555 1_555
C64_3 C61_3 1_555 1_555
C67_3 C64_3 1_555 1_555
H61_3 C67_3 1_555 1_555
C70_3 C55_3 1_555 1_555
H64_3 C70_3 1_555 1_555
C73_3 C64_3 1_555 1_555
O14 C73_3 1_555 1_555
O17 C73_3 1_555 1_555
C67_3 C70_3 1_555 1_555
Mn1 O1_3 1_555 1_555
Mn8 O2_3 1_555 1_555
Mn11 O6_3 1_555 1_555
C8_3 C5_3 1_555 1_555
C14_3 C5_3 1_555 1_555
H10_3 C14_3 1_555 1_555
H11_3 C14_3 1_555 1_555
C17_3 C11_3 1_555 1_555
H19_3 C17_3 1_555 1_555
H20_3 C17_3 1_555 1_555
H21_3 C17_3 1_555 1_555
C18_3 C12_3 1_555 1_555
H22_3 C18_3 1_555 1_555
H23_3 C18_3 1_555 1_555
H24_3 C18_3 1_555 1_555
C20_3 C8_3 1_555 1_555
C21_3 C9_3 1_555 1_555
C22_3 C19_3 1_555 1_555
H25_3 C22_3 1_555 1_555
C23_3 C20_3 1_555 1_555
H26_3 C23_3 1_555 1_555
C24_3 C21_3 1_555 1_555
H27_3 C24_3 1_555 1_555
C25_3 C22_3 1_555 1_555
H28_3 C25_3 1_555 1_555
C26_3 C23_3 1_555 1_555
H29_3 C26_3 1_555 1_555
C27_3 C24_3 1_555 1_555
H30_3 C27_3 1_555 1_555
C28_3 C25_3 1_555 1_555
C29_3 C26_3 1_555 1_555
C30_3 C27_3 1_555 1_555
C31_3 C28_3 1_555 1_555
H31_3 C31_3 1_555 1_555
C32_3 C29_3 1_555 1_555
H32_3 C32_3 1_555 1_555
C33_3 C30_3 1_555 1_555
H33_3 C33_3 1_555 1_555
C34_3 C19_3 1_555 1_555
H34_3 C34_3 1_555 1_555
C35_3 C20_3 1_555 1_555
H35_3 C35_3 1_555 1_555
C36_3 C21_3 1_555 1_555
H36_3 C36_3 1_555 1_555
C37_3 C28_3 1_555 1_555
C38_3 C29_3 1_555 1_555
C39_3 C30_3 1_555 1_555
O1_3 C37_3 1_555 1_555
O2_3 Mn1 1_555 1_555
O3_3 Mn8 1_555 1_555
O4_3 Mn8 1_555 1_555
O5_3 C38_3 1_555 1_555
O6_3 C39_3 1_555 1_555
C54_3 C48_3 1_555 1_555
H52_3 C54_3 1_555 1_555
H53_3 C54_3 1_555 1_555
H54_3 C54_3 1_555 1_555
C60_3 C57_3 1_555 1_555
H57_3 C60_3 1_555 1_555
C63_3 C60_3 1_555 1_555
H60_3 C63_3 1_555 1_555
C66_3 C63_3 1_555 1_555
C69_3 C66_3 1_555 1_555
H63_3 C69_3 1_555 1_555
C72_3 C57_3 1_555 1_555
C75_3 C66_3 1_555 1_555
O9_2 C75_3 1_555 1_555
O12_2 C75_3 1_555 1_555
Mn7 O9_2 1_555 1_555
N14_2 Mn1 1_555 1_555
N16_2 Mn1 1_555 1_555
O16_2 Mn8 1_555 1_555
O19_2 Mn1 1_555 1_555
C8_3 C11_3 1_555 1_555
C9_3 C12_3 1_555 1_555
C31_3 C34_3 1_555 1_555
C32_3 C35_3 1_555 1_555
C33_3 C36_3 1_555 1_555
C37_3 O4_3 1_555 1_555
C38_3 O2_3 1_555 1_555
C39_3 O3_3 1_555 1_555
C69_3 C72_3 1_555 1_555
C1_3 H1_3 1_555 1_555
H2_3 C1_3 1_555 1_555
N1_3 C1_3 1_555 1_555
N13 N1_3 1_555 1_555
C4_3 N13 1_555 1_555
C7_3 C4_3 1_555 1_555
C10_3 N1_3 1_555 1_555
C13_3 C4_3 1_555 1_555
H7_3 C13_3 1_555 1_555
H8_3 C13_3 1_555 1_555
H9_3 C13_3 1_555 1_555
C16_3 C10_3 1_555 1_555
H16_3 C16_3 1_555 1_555
H18_3 C16_3 1_555 1_555
N7_3 C1_3 1_555 1_555
N15 N7_3 1_555 1_555
C40_3 N15 1_555 1_555
C46_3 N7_3 1_555 1_555
C49_3 C40_3 1_555 1_555
H37_3 C49_3 1_555 1_555
H39_3 C49_3 1_555 1_555
C7_3 C10_3 1_555 1_555
C2_3 H3_3 1_555 1_555
H4_3 C2_3 1_555 1_555
C3_3 H5_3 1_555 1_555
H6_3 C3_3 1_555 1_555
Cu1_3 N6_3 1_555 1_555
N2_3 C2_3 1_555 1_555
N3_3 C3_3 1_555 1_555
N14_2 N2_3 1_555 1_555
N6_3 N3_3 1_555 1_555
C6_3 N6_3 1_555 1_555
C15_3 C6_3 1_555 1_555
H13_3 C15_3 1_555 1_555
H14_3 C15_3 1_555 1_555
H15_3 C15_3 1_555 1_555
N8_3 C2_3 1_555 1_555
N9_3 C3_3 1_555 1_555
N16_2 N8_3 1_555 1_555
N12_3 Cu1_3 1_555 1_555
C41_3 N16_2 1_555 1_555
C42_3 N12_3 1_555 1_555
C44_3 C41_3 1_555 1_555
C45_3 C42_3 1_555 1_555
C47_3 N8_3 1_555 1_555
C50_3 C41_3 1_555 1_555
H40_3 C50_3 1_555 1_555
H41_3 C50_3 1_555 1_555
H42_2 C50_3 1_555 1_555
C51_3 C42_3 1_555 1_555
H43_3 C51_3 1_555 1_555
H44_3 C51_3 1_555 1_555
H45_3 C51_3 1_555 1_555
C53_3 C47_3 1_555 1_555
H49_3 C53_3 1_555 1_555
H50_3 C53_3 1_555 1_555
H51_3 C53_3 1_555 1_555
C56_3 C44_3 1_555 1_555
C59_3 C56_3 1_555 1_555
H56_3 C59_3 1_555 1_555
C62_3 C59_3 1_555 1_555
H59_3 C62_3 1_555 1_555
C65_3 C62_3 1_555 1_555
C68_3 C65_3 1_555 1_555
H62_3 C68_3 1_555 1_555
C71_3 C56_3 1_555 1_555
H65_3 C71_3 1_555 1_555
C74_3 C65_3 1_555 1_555
O15 C74_3 1_555 1_555
O18 C74_3 1_555 1_555
C76_3 Cu1_3 1_555 1_555
O13_3 C76_3 1_555 1_555
N9_3 N12_3 1_555 1_555
C44_3 C47_3 1_555 1_555
C68_3 C71_3 1_555 1_555
C2_4 H3_4 1_555 1_555
H4_4 C2_4 1_555 1_555
C3_4 H5_4 1_555 1_555
H6_4 C3_4 1_555 1_555
Cu1_4 N6_4 1_555 1_555
N2_4 C2_4 1_555 1_555
N3_4 C3_4 1_555 1_555
N5_2 N2_4 1_555 1_555
N6_4 N3_4 1_555 1_555
C6_4 N6_4 1_555 1_555
C15_4 C6_4 1_555 1_555
H13_4 C15_4 1_555 1_555
H14_4 C15_4 1_555 1_555
H15_4 C15_4 1_555 1_555
N8_4 C2_4 1_555 1_555
N9_4 C3_4 1_555 1_555
N11_2 N8_4 1_555 1_555
N12_4 Cu1_4 1_555 1_555
C41_4 N11_2 1_555 1_555
C42_4 N12_4 1_555 1_555
C44_4 C41_4 1_555 1_555
C45_4 C42_4 1_555 1_555
C47_4 N8_4 1_555 1_555
C50_4 C41_4 1_555 1_555
H40_4 C50_4 1_555 1_555
H41_4 C50_4 1_555 1_555
C51_4 C42_4 1_555 1_555
H43_4 C51_4 1_555 1_555
H44_4 C51_4 1_555 1_555
H45_4 C51_4 1_555 1_555
C76_4 Cu1_4 1_555 1_555
O13_4 C76_4 1_555 1_555
Mn5_2 N5_2 1_555 1_555
N9_4 N12_4 1_555 1_555
N11_2 Mn5_2 1_555 1_555
C44_4 C47_4 1_555 1_555
H49_4 C53_4 1_555 1_555
H50_4 C53_4 1_555 1_555
C59_4 C56_4 1_555 1_555
H56_4 C59_4 1_555 1_555
C62_4 C59_4 1_555 1_555
H59_4 C62_4 1_555 1_555
C65_4 C62_4 1_555 1_555
C68_4 C65_4 1_555 1_555
H62_4 C68_4 1_555 1_555
C71_4 C56_4 1_555 1_555
H65_4 C71_4 1_555 1_555
C74_4 C65_4 1_555 1_555
O15_2 C74_4 1_555 1_555
O18_2 C74_4 1_555 1_555
C68_4 C71_4 1_555 1_555
Mn9 O6_4 1_555 1_555
Mn5_2 O1_4 1_555 1_555
C1_4 H1_4 1_555 1_555
H2_4 C1_4 1_555 1_555
N1_4 C1_4 1_555 1_555
N13_2 N1_4 1_555 1_555
C4_4 N13_2 1_555 1_555
C7_4 C4_4 1_555 1_555
C8_4 C5_4 1_555 1_555
C10_4 N1_4 1_555 1_555
C13_4 C4_4 1_555 1_555
H7_4 C13_4 1_555 1_555
H8_4 C13_4 1_555 1_555
H9_4 C13_4 1_555 1_555
C14_4 C5_4 1_555 1_555
H10_4 C14_4 1_555 1_555
H11_4 C14_4 1_555 1_555
C16_4 C10_4 1_555 1_555
H16_4 C16_4 1_555 1_555
H17_4 C16_4 1_555 1_555
H18_4 C16_4 1_555 1_555
C17_4 C11_4 1_555 1_555
H19_4 C17_4 1_555 1_555
H20_4 C17_4 1_555 1_555
H21_4 C17_4 1_555 1_555
C18_4 C12_4 1_555 1_555
H22_4 C18_4 1_555 1_555
H23_4 C18_4 1_555 1_555
H24_4 C18_4 1_555 1_555
C19_4 C7_4 1_555 1_555
C20_4 C8_4 1_555 1_555
C21_4 C9_4 1_555 1_555
C22_4 C19_4 1_555 1_555
H25_4 C22_4 1_555 1_555
C23_4 C20_4 1_555 1_555
H26_4 C23_4 1_555 1_555
C24_4 C21_4 1_555 1_555
H27_4 C24_4 1_555 1_555
C25_4 C22_4 1_555 1_555
H28_4 C25_4 1_555 1_555
C26_4 C23_4 1_555 1_555
H29_4 C26_4 1_555 1_555
C27_4 C24_4 1_555 1_555
H30_4 C27_4 1_555 1_555
C28_4 C25_4 1_555 1_555
C29_4 C26_4 1_555 1_555
C30_4 C27_4 1_555 1_555
C31_4 C28_4 1_555 1_555
H31_4 C31_4 1_555 1_555
C32_4 C29_4 1_555 1_555
H32_4 C32_4 1_555 1_555
C33_4 C30_4 1_555 1_555
H33_4 C33_4 1_555 1_555
C34_4 C19_4 1_555 1_555
H34_4 C34_4 1_555 1_555
C35_4 C20_4 1_555 1_555
H35_4 C35_4 1_555 1_555
C36_4 C21_4 1_555 1_555
H36_4 C36_4 1_555 1_555
C37_4 C28_4 1_555 1_555
C38_4 C29_4 1_555 1_555
C39_4 C30_4 1_555 1_555
O1_4 C37_4 1_555 1_555
O2_4 Mn5_2 1_555 1_555
O5_4 C38_4 1_555 1_555
N7_4 C1_4 1_555 1_555
N15_2 N7_4 1_555 1_555
C40_4 N15_2 1_555 1_555
C46_4 N7_4 1_555 1_555
C49_4 C40_4 1_555 1_555
H37_4 C49_4 1_555 1_555
H39_4 C49_4 1_555 1_555
C54_4 C48_4 1_555 1_555
H52_4 C54_4 1_555 1_555
H53_4 C54_4 1_555 1_555
H54_4 C54_4 1_555 1_555
C60_4 C57_4 1_555 1_555
H57_4 C60_4 1_555 1_555
C63_4 C60_4 1_555 1_555
H60_4 C63_4 1_555 1_555
C66_4 C63_4 1_555 1_555
C69_4 C66_4 1_555 1_555
H63_4 C69_4 1_555 1_555
C72_4 C57_4 1_555 1_555
C75_4 C66_4 1_555 1_555
O16_2 C75_4 1_555 1_555
O19_2 C75_4 1_555 1_555
C7_4 C10_4 1_555 1_555
C8_4 C11_4 1_555 1_555
C9_4 C12_4 1_555 1_555
C31_4 C34_4 1_555 1_555
C32_4 C35_4 1_555 1_555
C33_4 C36_4 1_555 1_555
C37_4 O4_4 1_555 1_555
C38_4 O2_4 1_555 1_555
C39_4 O3_4 1_555 1_555
C69_4 C72_4 1_555 1_555
H47_4 C52_4 1_555 1_555
C55_4 C43_4 1_555 1_555
C58_4 C55_4 1_555 1_555
H55_4 C58_4 1_555 1_555
C61_4 C58_4 1_555 1_555
H58_4 C61_4 1_555 1_555
C64_4 C61_4 1_555 1_555
C67_4 C64_4 1_555 1_555
H61_4 C67_4 1_555 1_555
C70_4 C55_4 1_555 1_555
H64_4 C70_4 1_555 1_555
C73_4 C64_4 1_555 1_555
O14_2 C73_4 1_555 1_555
O17_2 C73_4 1_555 1_555
C67_4 C70_4 1_555 1_555

#END
