
###############################################################################
#
# This file contains modified crystal structure data generated from the
# MOF subset of the Cambridge Structural Database (CSD) v543 
# hosted by the Cambridge Crystallographic Data Centre (CCDC).
#
# This work is licensed under the Creative Commons
# Attribution-NonCommercial-ShareAlike 4.0 International License.
# To view a copy of this license, visit
# http://creativecommons.org/licenses/by-nc-sa/4.0/
# or send a letter to
# Creative Commons, PO Box 1866, Mountain View, CA 94042, USA.
#
# CIF created using the CSD Python API on 29 September 2022
# The structure has been converted into the P1 space group
# The structure has a 3D framework
# The original CSD entry EWULOA is in the triclinic crystal system
# The framework has been calculated to contain at least 10.0% void space
# The void calculation uses a probe of radius 1.32A, grid spacing 0.4
# The framework is charged, counterions have been retained in the structure
#
###############################################################################

data_EWULOA
_chemical_formula_moiety         '(C166 H144 Cu2 Mn7 N24 O18 2+)n'
_symmetry_cell_setting           triclinic
_symmetry_space_group_name_H-M   'P 1'
_symmetry_Int_Tables_number      1
_space_group_name_Hall           'P 1'
loop_
_symmetry_equiv_pos_site_id
_symmetry_equiv_pos_as_xyz
1 x,y,z
_cell_length_a                   12.325(3)
_cell_length_b                   12.935(3)
_cell_length_c                   34.437(7)
_cell_angle_alpha                90.50(3)
_cell_angle_beta                 92.33(3)
_cell_angle_gamma                99.98(3)
_cell_volume                     5401.84
loop_
_atom_site_label
_atom_site_type_symbol
_atom_site_fract_x
_atom_site_fract_y
_atom_site_fract_z
Mn2 Mn 0.000000 0.500000 0.500000
Mn3 Mn 0.2342(3) 0.62015(16) 0.05771(8)
Mn4 Mn 0.000000 0.500000 0.000000
C75 C 0.0340(19) 0.6254(14) 0.0865(7)
O9 O 0.0581(9) 0.6134(6) 0.0492(3)
O12 O 0.0969(14) 0.6059(11) 0.1105(4)
N26 N 0.2378(15) 0.7968(10) 0.0766(4)
O25 O 0.0948(6) 0.3862(5) 0.4805(3)
O26 O 0.1383(7) 0.5980(6) 0.5221(3)
O27 O 0.2420(10) 0.4611(9) 0.0569(4)
O29 O 0.0803(10) 0.3913(8) 0.0276(4)
N29 N 0.3998(12) 0.6585(9) 0.0880(4)
O36 O 0.0242(6) 0.5841(6) 0.4447(3)
O38 O 0.2890(12) 0.6451(8) 0.0015(4)
Mn4_2 Mn 0.000000 0.500000 1.000000
O32 O 0.1367(9) 0.5613(7) 0.9677(3)
C1 C 0.7079(9) 0.2527(9) 0.6447(3)
H1 H 0.772292 0.304567 0.654363
H2 H 0.678433 0.210444 0.666930
N1 N 0.7425(7) 0.1843(7) 0.6155(3)
N4 N 0.8076(7) 0.2264(9) 0.5853(3)
C4 C 0.8377(10) 0.1467(11) 0.5669(4)
C7 C 0.7894(10) 0.0532(8) 0.5845(4)
C10 C 0.7286(9) 0.0756(9) 0.6157(4)
C13 C 0.9074(11) 0.1616(9) 0.5344(4)
H7 H 0.969903 0.124971 0.538865
H8 H 0.934724 0.236760 0.531330
H9 H 0.865216 0.133344 0.510775
C16 C 0.6591(10) 0.0153(9) 0.6427(4)
H17 H 0.595389 0.049218 0.647263
H18 H 0.700763 0.011199 0.667341
C18 C 0.3736(16) 0.0077(19) 0.1424(7)
H22 H 0.371420 0.081580 0.136936
C21 C 0.2268(11) 0.0681(10) 0.0635(5)
C24 C 0.3168(11) 0.1577(10) 0.0631(5)
H27 H 0.390767 0.146958 0.066944
C27 C 0.2953(11) 0.2602(10) 0.0571(5)
H30 H 0.355397 0.317227 0.057597
C30 C 0.1911(11) 0.2797(10) 0.0505(5)
C33 C 0.1070(11) 0.1908(10) 0.0495(5)
H33 H 0.033867 0.200743 0.043068
C36 C 0.1232(10) 0.0934(10) 0.0569(5)
H36 H 0.060740 0.039055 0.057728
C39 C 0.1708(13) 0.3885(11) 0.0442(5)
N7 N 0.6225(7) 0.3082(7) 0.6280(3)
N10 N 0.6538(8) 0.3795(7) 0.5981(3)
C40 C 0.5551(10) 0.4061(9) 0.5892(4)
C43 C 0.4723(10) 0.3633(9) 0.6115(4)
C46 C 0.5124(9) 0.2943(8) 0.6358(4)
C49 C 0.5482(9) 0.4817(9) 0.5533(4)
H37 H 0.603203 0.545775 0.557364
H38 H 0.474398 0.500085 0.551058
H39 H 0.562922 0.445852 0.529402
C52 C 0.4674(10) 0.2186(9) 0.6672(4)
H46 H 0.431758 0.151794 0.655181
H47 H 0.413450 0.248732 0.681846
H48 H 0.528120 0.206631 0.684955
C55 C 0.3538(10) 0.3797(9) 0.6056(5)
C57 C 0.2950(11) 0.3983(9) 0.6413(5)
H55 H 0.330996 0.404869 0.666301
C58 C 0.1832(11) 0.4056(10) 0.6357(4)
H56 H 0.141017 0.413398 0.657652
C61 C 0.1306(9) 0.4014(8) 0.5971(4)
C63 C 0.1974(10) 0.3811(9) 0.5652(4)
H59 H 0.165812 0.376491 0.539496
C65 C 0.3008(10) 0.3688(10) 0.5708(4)
H61 H 0.339518 0.351347 0.549036
C67 C 0.0169(8) 0.4097(9) 0.5910(5)
H76 H 0.829394 0.106711 0.002701
Mn9 Mn 0.80712(13) 0.39868(13) 0.56946(6)
C84 C 0.6690(16) 0.2376(15) 0.8641(4)
H73 H 0.731498 0.293714 0.858415
H74 H 0.643233 0.198233 0.839735
N13 N 0.7030(17) 0.1673(11) 0.8933(4)
N14 N 0.7622(15) 0.2032(10) 0.9234(4)
C85 C 0.7931(14) 0.1290(11) 0.9463(5)
C86 C 0.7510(12) 0.0340(10) 0.9258(4)
C87 C 0.6932(15) 0.0671(19) 0.8931(6)
C88 C 0.8620(12) 0.1514(10) 0.9818(4)
H75 H 0.866701 0.225310 0.989353
H77 H 0.936014 0.137062 0.977388
H79 H 0.661433 0.011164 0.833019
H80 H 0.549536 0.002887 0.855695
N15 N 0.5788(13) 0.2829(10) 0.8805(4)
N16 N 0.6002(12) 0.3415(9) 0.9120(4)
C97 C 0.4966(17) 0.3670(11) 0.9235(5)
C98 C 0.4175(19) 0.3193(14) 0.8980(5)
C99 C 0.4715(16) 0.2674(14) 0.8723(5)
C100 C 0.5070(15) 0.4313(11) 0.9611(5)
H85 H 0.494691 0.383959 0.983154
H86 H 0.580970 0.473666 0.963876
H87 H 0.451874 0.477610 0.960467
C101 C 0.4209(18) 0.204(2) 0.8354(6)
H88 H 0.368935 0.242521 0.821871
H89 H 0.479785 0.195217 0.818073
H90 H 0.381889 0.135271 0.842931
C102 C 0.2978(9) 0.3193(9) 0.9009(4)
C103 C 0.2519(11) 0.3082(9) 0.9371(3)
H91 H 0.293451 0.288332 0.958798
C104 C 0.1451(11) 0.3261(9) 0.9417(3)
H92 H 0.113686 0.318443 0.966476
C105 C 0.0843(9) 0.3551(9) 0.9100(4)
C106 C 0.1302(11) 0.3662(11) 0.8738(3)
H93 H 0.088642 0.386067 0.852111
C107 C 0.2370(11) 0.3483(11) 0.8692(3)
H94 H 0.268406 0.355956 0.844432
Mn17 Mn 0.7658(3) 0.37985(16) 0.94229(8)
C2 C 0.4133(11) 0.1391(10) 0.2483(4)
H3 H 0.452686 0.078674 0.247423
H4 H 0.334091 0.112823 0.242225
C3 C 0.3310(16) 0.7624(15) 0.1359(4)
H5 H 0.268502 0.706286 0.141585
H6 H 0.356767 0.801767 0.160265
Mn2_2 Mn 1.000000 0.500000 0.500000
Mn4_3 Mn 1.000000 0.500000 0.000000
Cu1 Cu 0.29037(12) 0.32144(12) 0.25057(5)
N2 N 0.4273(9) 0.1872(8) 0.2881(4)
N3 N 0.2970(17) 0.8327(11) 0.1067(4)
N5 N 0.3603(8) 0.2591(9) 0.2933(3)
C5 C 0.3991(10) 0.2969(10) 0.3292(4)
C6 C 0.2069(14) 0.8710(11) 0.0537(5)
C8 C 0.4853(10) 0.2562(11) 0.3432(4)
C9 C 0.2490(12) 0.9660(10) 0.0742(4)
C11 C 0.5050(10) 0.1823(10) 0.3154(4)
C12 C 0.3068(15) 0.9329(19) 0.1069(6)
C14 C 0.3505(10) 0.3935(10) 0.3460(4)
H10 H 0.348122 0.388834 0.374337
H11 H 0.275748 0.392011 0.334855
H12 H 0.397595 0.459306 0.339112
C15 C 0.1380(12) 0.8486(10) 0.0182(4)
H13 H 0.133299 0.774690 0.010647
H15 H 0.063986 0.862938 0.022612
H16 H 0.633504 0.944410 0.632060
C17 C 0.5869(10) 0.1112(10) 0.3154(4)
H19 H 0.550626 0.040831 0.306697
H20 H 0.619182 0.107762 0.341692
H21 H 0.645223 0.137883 0.297656
H23 H 0.338567 0.988836 0.166981
H24 H 0.450464 0.997113 0.144305
C19 C 0.8041(9) 0.9420(7) 0.5750(4)
C20 C 0.5525(10) 0.2756(9) 0.3813(4)
C22 C 0.8061(9) 0.9078(9) 0.5351(4)
H25 H 0.793212 0.952132 0.514175
C23 C 0.6664(12) 0.3165(11) 0.3794(6)
H26 H 0.698953 0.325548 0.354874
C25 C 0.8279(10) 0.8068(10) 0.5284(4)
H28 H 0.833621 0.783695 0.502462
C26 C 0.7305(12) 0.3434(9) 0.4129(4)
H29 H 0.807290 0.368308 0.411115
C28 C 0.8409(9) 0.7408(9) 0.5580(4)
C29 C 0.6843(10) 0.3345(8) 0.4497(4)
C31 C 0.8379(10) 0.7729(9) 0.5967(4)
H31 H 0.849487 0.725914 0.616893
C32 C 0.5733(11) 0.2883(10) 0.4528(5)
H32 H 0.542134 0.273772 0.477334
C34 C 0.8176(9) 0.8747(9) 0.6064(4)
H34 H 0.813277 0.896532 0.632624
C35 C 0.5083(13) 0.2639(10) 0.4168(5)
H35 H 0.431422 0.238613 0.418152
C37 C 0.8593(9) 0.6323(8) 0.5507(4)
C38 C 0.7610(11) 0.3680(9) 0.4853(4)
O1 O 0.9052(6) 0.6138(5) 0.5195(3)
O2 O 0.8617(7) 0.4020(6) 0.4779(3)
O4 O 0.8192(6) 0.5601(7) 0.5743(3)
O5 O 0.7202(6) 0.3553(6) 0.5180(3)
N8 N 0.4547(9) 0.2127(9) 0.2204(3)
N9 N 0.4212(13) 0.7171(10) 0.1195(4)
N11 N 0.3957(7) 0.2949(8) 0.2133(3)
C41 C 0.4513(10) 0.3452(10) 0.1822(4)
C42 C 0.5034(17) 0.6330(11) 0.0765(5)
C44 C 0.5335(9) 0.2906(9) 0.1683(4)
C45 C 0.5825(19) 0.6807(14) 0.1020(5)
C47 C 0.5343(11) 0.2113(10) 0.1956(4)
C48 C 0.5285(16) 0.7326(14) 0.1277(5)
C50 C 0.4135(11) 0.4378(10) 0.1669(4)
H40 H 0.390624 0.425690 0.139380
H41 H 0.473636 0.498280 0.169401
H42 H 0.350892 0.451948 0.181453
C51 C 0.4930(15) 0.5687(11) 0.0389(5)
H43 H 0.505309 0.616041 0.016846
H44 H 0.419030 0.526334 0.036124
H45 H 0.548126 0.522390 0.039533
C53 C 0.6098(10) 0.1339(11) 0.1944(4)
H49 H 0.667723 0.150915 0.214962
H50 H 0.643451 0.136173 0.169060
H51 H 0.568223 0.063340 0.198441
C54 C 0.5791(18) 0.796(2) 0.1646(6)
H52 H 0.631065 0.757479 0.178129
H53 H 0.520215 0.804783 0.181927
H54 H 0.618111 0.864729 0.157069
C56 C 0.5906(15) 0.3214(11) 0.1336(6)
C59 C 0.5357(16) 0.3170(11) 0.0987(6)
H57 H 0.457694 0.297485 0.097585
C60 C 0.5822(17) 0.3367(11) 0.0693(7)
H58 H 0.537894 0.337823 0.046168
C62 C 0.7055(14) 0.3601(10) 0.0659(5)
C64 C 0.7550(13) 0.3861(16) 0.1002(4)
H60 H 0.829333 0.421387 0.102375
C66 C 0.6965(12) 0.3610(16) 0.1320(5)
H62 H 0.736347 0.373368 0.156231
C68 C 0.7753(17) 0.3879(12) 0.0301(5)
C69 C 0.7022(9) 0.6807(9) 0.0991(4)
C70 C 0.7481(11) 0.6918(9) 0.0629(3)
H63 H 0.706549 0.711668 0.041202
C71 C 0.8549(11) 0.6739(9) 0.0583(3)
H64 H 0.886314 0.681557 0.033524
C72 C 0.9157(9) 0.6449(9) 0.0900(4)
C73 C 0.8698(11) 0.6338(11) 0.1262(3)
H65 H 0.911358 0.613933 0.147889
C74 C 0.7630(11) 0.6517(11) 0.1308(3)
H66 H 0.731594 0.644044 0.155568
O8 O 0.8633(9) 0.4387(7) 0.0323(3)
C76 C 0.0725(10) 0.3172(10) 0.2914(4)
C77 C 0.0373(10) 0.3844(10) 0.3180(4)
H67 H 0.063273 0.457989 0.317658
C81 C 0.0352(10) 0.2065(10) 0.2965(4)
H71 H 0.065925 0.157665 0.281472
C82 C 0.1486(12) 0.3582(12) 0.2625(4)
C83 C 0.1831(10) 0.3999(13) 0.2335(5)
H72 H 0.210519 0.433082 0.210529
O31 O 0.9538(6) 0.4159(6) 0.6193(3)
O35 O 0.9758(6) 0.4159(6) 0.5553(3)
Mn4_4 Mn 1.000000 0.500000 1.000000
H14 H 0.170606 0.893289 0.997299
O11 O 0.7110(12) 0.3549(8) 0.9985(4)
C89 C 0.6264(16) 0.9923(19) 0.8576(7)
H78 H 0.628580 0.918420 0.863064
C90 C 0.7732(11) 0.9319(10) 0.9365(5)
C91 C 0.6832(11) 0.8423(10) 0.9369(5)
H81 H 0.609233 0.853042 0.933056
C92 C 0.7047(11) 0.7398(10) 0.9429(5)
H82 H 0.644603 0.682773 0.942403
C93 C 0.8089(11) 0.7203(10) 0.9495(5)
C94 C 0.8930(11) 0.8092(10) 0.9505(5)
H83 H 0.966133 0.799257 0.956932
C95 C 0.8768(10) 0.9066(10) 0.9431(5)
H84 H 0.939260 0.960945 0.942272
C96 C 0.8292(13) 0.6115(11) 0.9558(5)
O13 O 0.7580(10) 0.5389(9) 0.9431(4)
O14 O 0.9197(10) 0.6087(8) 0.9724(4)
O33 O 0.9419(9) 0.3866(6) 0.9508(3)
C108 C 0.9660(19) 0.3746(14) 0.9135(7)
O16 O 0.9031(14) 0.3941(11) 0.8895(4)
C78 C 0.9609(11) 0.3391(11) 0.3457(4)
H68 H 0.936741 0.383870 0.364264
C79 C 0.9223(10) 0.2368(11) 0.3465(4)
H69 H 0.869091 0.210108 0.364767
C80 C 0.9584(13) 0.1708(12) 0.3217(5)
H70 H 0.928861 0.097968 0.322051
C161 C 0.0391(11) 0.6609(11) 0.6543(4)
H140 H 0.063259 0.616130 0.635736
C162 C 0.0777(10) 0.7632(11) 0.6535(4)
H141 H 0.130909 0.789892 0.635233
C163 C 0.0416(13) 0.8292(12) 0.6783(5)
H142 H 0.071139 0.902032 0.677949
O21 O 0.0462(6) 0.5841(6) 0.3807(3)
Mn7 Mn 0.19288(13) 0.60132(13) 0.43054(6)
C110 C 0.5867(11) 0.8609(10) 0.7517(4)
H97 H 0.547314 0.921326 0.752577
H98 H 0.665909 0.887177 0.757775
Cu2 Cu 0.70963(12) 0.67856(12) 0.74943(5)
N18 N 0.5727(9) 0.8128(8) 0.7119(4)
N20 N 0.6397(8) 0.7409(9) 0.7067(3)
C112 C 0.6009(10) 0.7031(10) 0.6708(4)
C114 C 0.5147(10) 0.7438(11) 0.6568(4)
C116 C 0.4950(10) 0.8177(10) 0.6846(4)
C118 C 0.6495(10) 0.6065(10) 0.6540(4)
H102 H 0.651878 0.611166 0.625663
H103 H 0.724252 0.607989 0.665145
H104 H 0.602405 0.540694 0.660888
H105 H 0.366496 0.055590 0.367940
C120 C 0.4131(10) 0.8888(10) 0.6846(4)
H108 H 0.449374 0.959169 0.693303
H109 H 0.380818 0.892238 0.658308
H110 H 0.354777 0.862117 0.702344
C121 C 0.1959(9) 0.0580(7) 0.4250(4)
C122 C 0.4475(10) 0.7244(9) 0.6187(4)
C123 C 0.1939(9) 0.0922(9) 0.4649(4)
H111 H 0.206788 0.047868 0.485825
C124 C 0.3336(12) 0.6835(11) 0.6206(6)
H112 H 0.301047 0.674452 0.645126
C125 C 0.1721(10) 0.1932(10) 0.4716(4)
H113 H 0.166379 0.216305 0.497538
C126 C 0.2695(12) 0.6566(9) 0.5871(4)
H114 H 0.192710 0.631692 0.588885
C127 C 0.1591(9) 0.2592(9) 0.4420(4)
C128 C 0.3157(10) 0.6655(8) 0.5503(4)
C129 C 0.1621(10) 0.2271(9) 0.4033(4)
H115 H 0.150513 0.274086 0.383107
C130 C 0.4267(11) 0.7117(10) 0.5472(5)
H116 H 0.457866 0.726228 0.522666
C131 C 0.1824(9) 0.1253(9) 0.3936(4)
H117 H 0.186723 0.103468 0.367376
C132 C 0.4917(13) 0.7361(10) 0.5832(5)
H118 H 0.568578 0.761387 0.581848
C133 C 0.1407(9) 0.3677(8) 0.4493(4)
C134 C 0.2390(11) 0.6320(9) 0.5147(4)
O19 O 0.1808(6) 0.4399(7) 0.4257(3)
O20 O 0.2798(6) 0.6447(6) 0.4820(3)
N22 N 0.5453(9) 0.7873(9) 0.7796(3)
N24 N 0.6043(7) 0.7051(8) 0.7867(3)
C136 C 0.5487(10) 0.6548(10) 0.8178(4)
C138 C 0.4665(9) 0.7094(9) 0.8317(4)
C140 C 0.4657(11) 0.7887(10) 0.8044(4)
C142 C 0.5865(11) 0.5622(10) 0.8331(4)
H122 H 0.609376 0.574310 0.860620
H123 H 0.526364 0.501720 0.830599
H124 H 0.649108 0.548052 0.818547
C144 C 0.3902(10) 0.8661(11) 0.8056(4)
H128 H 0.332277 0.849085 0.785038
H129 H 0.356549 0.863827 0.830940
H130 H 0.431777 0.936660 0.801559
C146 C 0.4094(15) 0.6786(11) 0.8664(6)
C149 C 0.4643(16) 0.6830(11) 0.9013(6)
H133 H 0.542306 0.702515 0.902415
C150 C 0.4178(17) 0.6633(11) 0.9307(7)
H134 H 0.462106 0.662177 0.953832
C152 C 0.2945(14) 0.6399(10) 0.9341(5)
C154 C 0.2450(13) 0.6139(16) 0.8998(4)
H136 H 0.170667 0.578613 0.897625
C156 C 0.3035(12) 0.6390(16) 0.8680(5)
H138 H 0.263653 0.626632 0.843769
C158 C 0.2247(17) 0.6121(12) 0.9699(5)
C159 C 0.9275(10) 0.6828(10) 0.7086(4)
C160 C 0.9627(10) 0.6156(10) 0.6820(4)
H139 H 0.936727 0.542011 0.682342
C164 C 0.9648(10) 0.7935(10) 0.7035(4)
H143 H 0.934075 0.842335 0.718528
C165 C 0.8514(12) 0.6418(12) 0.7375(4)
C166 C 0.8169(10) 0.6001(13) 0.7665(5)
H144 H 0.789481 0.566918 0.789471
N25 N 0.1924(7) 0.7736(9) 0.4147(3)
N28 N 0.3462(8) 0.6205(7) 0.4019(3)
C109 C 0.2921(9) 0.7473(9) 0.3553(3)
H95 H 0.227708 0.695433 0.345637
H96 H 0.321567 0.789556 0.333070
N17 N 0.2575(7) 0.8157(7) 0.3845(3)
C111 C 0.1623(10) 0.8533(11) 0.4331(4)
C113 C 0.2106(10) 0.9468(8) 0.4155(4)
C115 C 0.2714(9) 0.9244(9) 0.3843(4)
C117 C 0.0926(11) 0.8384(9) 0.4656(4)
H99 H 0.030097 0.875029 0.461135
H100 H 0.065276 0.763240 0.468670
H101 H 0.134784 0.866656 0.489225
C119 C 0.3409(10) 0.9847(9) 0.3573(4)
H106 H 0.404611 0.950782 0.352737
H107 H 0.299237 0.988801 0.332659
N21 N 0.3775(7) 0.6918(7) 0.3720(3)
C135 C 0.4449(10) 0.5939(9) 0.4108(4)
C137 C 0.5277(10) 0.6367(9) 0.3885(4)
C139 C 0.4876(9) 0.7057(8) 0.3642(4)
C141 C 0.4518(9) 0.5183(9) 0.4467(4)
H119 H 0.396797 0.454225 0.442636
H120 H 0.525602 0.499915 0.448942
H121 H 0.437078 0.554148 0.470598
C143 C 0.5326(10) 0.7814(9) 0.3328(4)
H125 H 0.568242 0.848206 0.344819
H126 H 0.586550 0.751268 0.318154
H127 H 0.471880 0.793369 0.315045
C145 C 0.6462(10) 0.6203(9) 0.3944(5)
C147 C 0.7050(11) 0.6017(9) 0.3587(5)
H131 H 0.669004 0.595131 0.333699
C148 C 0.8168(11) 0.5944(10) 0.3643(4)
H132 H 0.858983 0.586602 0.342348
C151 C 0.8694(9) 0.5986(8) 0.4029(4)
C153 C 0.8026(10) 0.6189(9) 0.4348(4)
H135 H 0.834188 0.623509 0.460504
C155 C 0.6992(10) 0.6312(10) 0.4292(4)
H137 H 0.660482 0.648653 0.450964
C157 C 0.9831(8) 0.5903(9) 0.4090(5)
loop_
_geom_bond_atom_site_label_1
_geom_bond_atom_site_label_2
_geom_bond_site_symmetry_1
_geom_bond_site_symmetry_2
Mn3 O9 1_555 1_555
O9 Mn4 1_555 1_555
O12 C75 1_555 1_555
N26 Mn3 1_555 1_555
O25 Mn2 1_555 1_555
O26 Mn2 1_555 1_555
O27 Mn3 1_555 1_555
O29 Mn4 1_555 1_555
N29 Mn3 1_555 1_555
O36 Mn2 1_555 1_555
O38 Mn3 1_555 1_555
C75 O9 1_555 1_555
O32 Mn4_2 1_555 1_555
C1 H1 1_555 1_555
H2 C1 1_555 1_555
N1 C1 1_555 1_555
N4 N1 1_555 1_555
C4 N4 1_555 1_555
C7 C4 1_555 1_555
C10 N1 1_555 1_555
C13 C4 1_555 1_555
H7 C13 1_555 1_555
H8 C13 1_555 1_555
H9 C13 1_555 1_555
C16 C10 1_555 1_555
H17 C16 1_555 1_555
H18 C16 1_555 1_555
H22 C18 1_555 1_555
C24 C21 1_555 1_555
H27 C24 1_555 1_555
C27 C24 1_555 1_555
H30 C27 1_555 1_555
C30 C27 1_555 1_555
C33 C30 1_555 1_555
H33 C33 1_555 1_555
C36 C21 1_555 1_555
H36 C36 1_555 1_555
C39 C30 1_555 1_555
O27 C39 1_555 1_555
O29 C39 1_555 1_555
N7 C1 1_555 1_555
N10 N7 1_555 1_555
C40 N10 1_555 1_555
C43 C40 1_555 1_555
C46 N7 1_555 1_555
C49 C40 1_555 1_555
H37 C49 1_555 1_555
H38 C49 1_555 1_555
H39 C49 1_555 1_555
C52 C46 1_555 1_555
H46 C52 1_555 1_555
H47 C52 1_555 1_555
H48 C52 1_555 1_555
C55 C43 1_555 1_555
C57 C55 1_555 1_555
H55 C57 1_555 1_555
C58 C57 1_555 1_555
H56 C58 1_555 1_555
C61 C58 1_555 1_555
C63 C61 1_555 1_555
H59 C63 1_555 1_555
C65 C55 1_555 1_555
H61 C65 1_555 1_555
C67 C61 1_555 1_555
Mn9 N4 1_555 1_555
C7 C10 1_555 1_555
C33 C36 1_555 1_555
N10 Mn9 1_555 1_555
C43 C46 1_555 1_555
C63 C65 1_555 1_555
C84 H73 1_555 1_555
H74 C84 1_555 1_555
N13 C84 1_555 1_555
N14 N13 1_555 1_555
C85 N14 1_555 1_555
C86 C85 1_555 1_555
C87 N13 1_555 1_555
C88 C85 1_555 1_555
H75 C88 1_555 1_555
H77 C88 1_555 1_555
N15 C84 1_555 1_555
N16 N15 1_555 1_555
C97 N16 1_555 1_555
C98 C97 1_555 1_555
C99 N15 1_555 1_555
C100 C97 1_555 1_555
H85 C100 1_555 1_555
H86 C100 1_555 1_555
H87 C100 1_555 1_555
C101 C99 1_555 1_555
H88 C101 1_555 1_555
H89 C101 1_555 1_555
H90 C101 1_555 1_555
C102 C98 1_555 1_555
C103 C102 1_555 1_555
H91 C103 1_555 1_555
C104 C103 1_555 1_555
H92 C104 1_555 1_555
C105 C104 1_555 1_555
C106 C105 1_555 1_555
H93 C106 1_555 1_555
C107 C102 1_555 1_555
H94 C107 1_555 1_555
Mn17 N14 1_555 1_555
C86 C87 1_555 1_555
N16 Mn17 1_555 1_555
C98 C99 1_555 1_555
C106 C107 1_555 1_555
Mn9 O4 1_555 1_555
C2 H3 1_555 1_555
H4 C2 1_555 1_555
C3 H5 1_555 1_555
H6 C3 1_555 1_555
Mn2_2 O1 1_555 1_555
Mn4_3 O8 1_555 1_555
Cu1 N5 1_555 1_555
N2 C2 1_555 1_555
N3 C3 1_555 1_555
N5 N2 1_555 1_555
N26 N3 1_555 1_555
C5 N5 1_555 1_555
C6 N26 1_555 1_555
C8 C5 1_555 1_555
C9 C6 1_555 1_555
C11 N2 1_555 1_555
C12 N3 1_555 1_555
C14 C5 1_555 1_555
H10 C14 1_555 1_555
H11 C14 1_555 1_555
H12 C14 1_555 1_555
C15 C6 1_555 1_555
H13 C15 1_555 1_555
H15 C15 1_555 1_555
C17 C11 1_555 1_555
H19 C17 1_555 1_555
H20 C17 1_555 1_555
H21 C17 1_555 1_555
C20 C8 1_555 1_555
C22 C19 1_555 1_555
H25 C22 1_555 1_555
C23 C20 1_555 1_555
H26 C23 1_555 1_555
C25 C22 1_555 1_555
H28 C25 1_555 1_555
C26 C23 1_555 1_555
H29 C26 1_555 1_555
C28 C25 1_555 1_555
C29 C26 1_555 1_555
C31 C28 1_555 1_555
H31 C31 1_555 1_555
C32 C29 1_555 1_555
H32 C32 1_555 1_555
C34 C19 1_555 1_555
H34 C34 1_555 1_555
C35 C20 1_555 1_555
H35 C35 1_555 1_555
C37 C28 1_555 1_555
C38 C29 1_555 1_555
O1 C37 1_555 1_555
O2 Mn2_2 1_555 1_555
O4 C37 1_555 1_555
O5 Mn9 1_555 1_555
N8 C2 1_555 1_555
N9 C3 1_555 1_555
N11 Cu1 1_555 1_555
N29 N9 1_555 1_555
C41 N11 1_555 1_555
C42 N29 1_555 1_555
C44 C41 1_555 1_555
C45 C42 1_555 1_555
C47 N8 1_555 1_555
C48 N9 1_555 1_555
C50 C41 1_555 1_555
H40 C50 1_555 1_555
H41 C50 1_555 1_555
H42 C50 1_555 1_555
C51 C42 1_555 1_555
H43 C51 1_555 1_555
H44 C51 1_555 1_555
H45 C51 1_555 1_555
C53 C47 1_555 1_555
H49 C53 1_555 1_555
H50 C53 1_555 1_555
H51 C53 1_555 1_555
C54 C48 1_555 1_555
H52 C54 1_555 1_555
H53 C54 1_555 1_555
H54 C54 1_555 1_555
C56 C44 1_555 1_555
C59 C56 1_555 1_555
H57 C59 1_555 1_555
C60 C59 1_555 1_555
H58 C60 1_555 1_555
C62 C60 1_555 1_555
C64 C62 1_555 1_555
H60 C64 1_555 1_555
C66 C56 1_555 1_555
H62 C66 1_555 1_555
C68 C62 1_555 1_555
C69 C45 1_555 1_555
C70 C69 1_555 1_555
H63 C70 1_555 1_555
C71 C70 1_555 1_555
H64 C71 1_555 1_555
C72 C71 1_555 1_555
C73 C72 1_555 1_555
H65 C73 1_555 1_555
C74 C69 1_555 1_555
H66 C74 1_555 1_555
O8 C68 1_555 1_555
C76 C77 1_555 1_555
C77 H67 1_555 1_555
C81 C76 1_555 1_555
H71 C81 1_555 1_555
C82 Cu1 1_555 1_555
C83 Cu1 1_555 1_555
H72 C83 1_555 1_555
O31 Mn9 1_555 1_555
O35 Mn9 1_555 1_555
Mn2_2 O35 1_555 1_555
C8 C11 1_555 1_555
C9 C12 1_555 1_555
C31 C34 1_555 1_555
C32 C35 1_555 1_555
C38 O2 1_555 1_555
C38 O5 1_555 1_555
N8 N11 1_555 1_555
C44 C47 1_555 1_555
C45 C48 1_555 1_555
C64 C66 1_555 1_555
C73 C74 1_555 1_555
C76 C82 1_555 1_555
C82 C83 1_555 1_555
H78 C89 1_555 1_555
C91 C90 1_555 1_555
H81 C91 1_555 1_555
C92 C91 1_555 1_555
H82 C92 1_555 1_555
C93 C92 1_555 1_555
C94 C93 1_555 1_555
H83 C94 1_555 1_555
C95 C90 1_555 1_555
H84 C95 1_555 1_555
C96 C93 1_555 1_555
O13 C96 1_555 1_555
O14 Mn4_4 1_555 1_555
Mn17 O11 1_555 1_555
O33 Mn4_4 1_555 1_555
C94 C95 1_555 1_555
C96 O14 1_555 1_555
O13 Mn17 1_555 1_555
Mn17 O33 1_555 1_555
O33 C108 1_555 1_555
O16 C108 1_555 1_555
H68 C78 1_555 1_555
C79 C78 1_555 1_555
H69 C79 1_555 1_555
C80 C79 1_555 1_555
H70 C80 1_555 1_555
H140 C161 1_555 1_555
C162 C161 1_555 1_555
H141 C162 1_555 1_555
C163 C162 1_555 1_555
H142 C163 1_555 1_555
Mn7 O21 1_555 1_555
O36 Mn7 1_555 1_555
Mn7 O19 1_555 1_555
C110 H97 1_555 1_555
H98 C110 1_555 1_555
Cu2 N20 1_555 1_555
N18 C110 1_555 1_555
N20 N18 1_555 1_555
C112 N20 1_555 1_555
C114 C112 1_555 1_555
C116 N18 1_555 1_555
C118 C112 1_555 1_555
H102 C118 1_555 1_555
H103 C118 1_555 1_555
H104 C118 1_555 1_555
C120 C116 1_555 1_555
H108 C120 1_555 1_555
H109 C120 1_555 1_555
H110 C120 1_555 1_555
C122 C114 1_555 1_555
C123 C121 1_555 1_555
H111 C123 1_555 1_555
C124 C122 1_555 1_555
H112 C124 1_555 1_555
C125 C123 1_555 1_555
H113 C125 1_555 1_555
C126 C124 1_555 1_555
H114 C126 1_555 1_555
C127 C125 1_555 1_555
C128 C126 1_555 1_555
C129 C127 1_555 1_555
H115 C129 1_555 1_555
C130 C128 1_555 1_555
H116 C130 1_555 1_555
C131 C121 1_555 1_555
H117 C131 1_555 1_555
C132 C122 1_555 1_555
H118 C132 1_555 1_555
C133 C127 1_555 1_555
C134 C128 1_555 1_555
O25 C133 1_555 1_555
O26 C134 1_555 1_555
O19 C133 1_555 1_555
O20 Mn7 1_555 1_555
N22 C110 1_555 1_555
N24 Cu2 1_555 1_555
C136 N24 1_555 1_555
C138 C136 1_555 1_555
C140 N22 1_555 1_555
C142 C136 1_555 1_555
H122 C142 1_555 1_555
H123 C142 1_555 1_555
H124 C142 1_555 1_555
C144 C140 1_555 1_555
H128 C144 1_555 1_555
H129 C144 1_555 1_555
H130 C144 1_555 1_555
C146 C138 1_555 1_555
C149 C146 1_555 1_555
H133 C149 1_555 1_555
C150 C149 1_555 1_555
H134 C150 1_555 1_555
C152 C150 1_555 1_555
C154 C152 1_555 1_555
H136 C154 1_555 1_555
C156 C146 1_555 1_555
H138 C156 1_555 1_555
C158 C152 1_555 1_555
O32 C158 1_555 1_555
C159 C160 1_555 1_555
C160 H139 1_555 1_555
C164 C159 1_555 1_555
H143 C164 1_555 1_555
C165 Cu2 1_555 1_555
C166 Cu2 1_555 1_555
H144 C166 1_555 1_555
N25 Mn7 1_555 1_555
N28 Mn7 1_555 1_555
C114 C116 1_555 1_555
C129 C131 1_555 1_555
C130 C132 1_555 1_555
C134 O20 1_555 1_555
N22 N24 1_555 1_555
C138 C140 1_555 1_555
C154 C156 1_555 1_555
C159 C165 1_555 1_555
C165 C166 1_555 1_555
C109 H95 1_555 1_555
H96 C109 1_555 1_555
N17 C109 1_555 1_555
C111 N25 1_555 1_555
C113 C111 1_555 1_555
C115 N17 1_555 1_555
C117 C111 1_555 1_555
H99 C117 1_555 1_555
H100 C117 1_555 1_555
H101 C117 1_555 1_555
C119 C115 1_555 1_555
H106 C119 1_555 1_555
H107 C119 1_555 1_555
N21 C109 1_555 1_555
C135 N28 1_555 1_555
C137 C135 1_555 1_555
C139 N21 1_555 1_555
C141 C135 1_555 1_555
H119 C141 1_555 1_555
H120 C141 1_555 1_555
H121 C141 1_555 1_555
C143 C139 1_555 1_555
H125 C143 1_555 1_555
H126 C143 1_555 1_555
H127 C143 1_555 1_555
C145 C137 1_555 1_555
C147 C145 1_555 1_555
H131 C147 1_555 1_555
C148 C147 1_555 1_555
H132 C148 1_555 1_555
C151 C148 1_555 1_555
C153 C151 1_555 1_555
H135 C153 1_555 1_555
C155 C145 1_555 1_555
H137 C155 1_555 1_555
C157 C151 1_555 1_555
N17 N25 1_555 1_555
C113 C115 1_555 1_555
N21 N28 1_555 1_555
C137 C139 1_555 1_555
C153 C155 1_555 1_555

#END
