
###############################################################################
#
# This file contains modified crystal structure data generated from the
# MOF subset of the Cambridge Structural Database (CSD) v543 
# hosted by the Cambridge Crystallographic Data Centre (CCDC).
#
# This work is licensed under the Creative Commons
# Attribution-NonCommercial-ShareAlike 4.0 International License.
# To view a copy of this license, visit
# http://creativecommons.org/licenses/by-nc-sa/4.0/
# or send a letter to
# Creative Commons, PO Box 1866, Mountain View, CA 94042, USA.
#
# CIF created using the CSD Python API on 29 September 2022
# The structure has been converted into the P1 space group
# The structure has a 3D framework
# The original CSD entry EWULAM is in the monoclinic crystal system
# The framework has been calculated to contain at least 10.0% void space
# The void calculation uses a probe of radius 1.32A, grid spacing 0.4
#
###############################################################################

data_EWULAM
_chemical_formula_moiety         '(C304 H264 Cu4 F24 Mn11 N48 O51 P4)n'
_symmetry_cell_setting           triclinic
_symmetry_space_group_name_H-M   'P 1'
_symmetry_Int_Tables_number      1
_space_group_name_Hall           'P 1'
loop_
_symmetry_equiv_pos_site_id
_symmetry_equiv_pos_as_xyz
1 x,y,z
_cell_length_a                   12.373(3)
_cell_length_b                   35.910(7)
_cell_length_c                   25.894(5)
_cell_angle_alpha                90
_cell_angle_beta                 97.46(3)
_cell_angle_gamma                90
_cell_volume                     11407.7
loop_
_atom_site_label
_atom_site_type_symbol
_atom_site_fract_x
_atom_site_fract_y
_atom_site_fract_z
P1 P 0.8517(6) 0.750000 0.4377(3)
F1 F 0.9153(13) 0.750000 0.3908(5)
F2 F 0.9336(7) 0.7177(3) 0.4664(4)
F3 F 0.7778(8) 0.7184(3) 0.4085(4)
F4 F 0.7822(6) 0.750000 0.4847(4)
F5 F 0.9336(7) 0.7823(3) 0.4664(4)
F6 F 0.7778(8) 0.7816(3) 0.4085(4)
P1_2 P 0.1483(6) 0.250000 0.5623(3)
F1_2 F 0.0847(13) 0.250000 0.6092(5)
F2_2 F 0.0664(7) 0.2177(3) 0.5336(4)
F3_2 F 0.2222(8) 0.2184(3) 0.5915(4)
F4_2 F 0.2178(6) 0.250000 0.5153(4)
F5_2 F 0.0664(7) 0.2823(3) 0.5336(4)
F6_2 F 0.2222(8) 0.2816(3) 0.5915(4)
P2 P 0.8803(4) 0.750000 0.9153(2)
F7 F 0.9689(11) 0.750000 0.8743(4)
F8 F 0.8089(7) 0.7824(3) 0.8850(3)
F9 F 0.9489(6) 0.7811(2) 0.9492(3)
F10 F 0.7946(8) 0.750000 0.9579(4)
F11 F 0.8089(7) 0.7176(3) 0.8850(3)
F12 F 0.9489(6) 0.7189(2) 0.9492(3)
P2_2 P 0.1197(4) 0.250000 0.0847(2)
F7_2 F 0.0311(11) 0.250000 0.1257(4)
F8_2 F 0.1911(7) 0.2824(3) 0.1150(3)
F9_2 F 0.0511(6) 0.2811(2) 0.0508(3)
F10_2 F 0.2054(8) 0.250000 0.0421(4)
F11_2 F 0.1911(7) 0.2176(3) 0.1150(3)
F12_2 F 0.0511(6) 0.2189(2) 0.0508(3)
C3 C 0.0720(16) 0.250000 0.9176(8)
H5 H 0.031974 0.250001 0.947394
H6 H 0.148666 0.250000 0.931589
N1 N 0.0518(9) 0.2855(3) 0.8934(4)
Cu1 Cu 0.1817(2) 0.250000 0.81526(10)
N4 N 0.0983(8) 0.2890(4) 0.8458(4)
C5 C 0.0629(8) 0.3231(4) 0.8302(5)
C10 C 0.0379(8) 0.5946(4) 0.8204(4)
C16 C 0.0909(10) 0.3405(3) 0.7800(5)
H9 H 0.059779 0.325817 0.750848
H10 H 0.168687 0.341337 0.780828
H11 H 0.062038 0.365314 0.776754
H13 H 0.026199 0.529072 0.755864
C22 C 0.0268(9) 0.6513(4) 0.8764(5)
H25 H 0.104873 0.651119 0.878927
H26 H 0.005157 0.648760 0.910461
C25 C 0.1563(8) 0.5877(5) 0.8202(5)
C29 C 0.2100(8) 0.5556(5) 0.8294(4)
H33 H 0.173644 0.534955 0.840389
C33 C 0.3165(8) 0.5526(5) 0.8229(4)
H37 H 0.351416 0.530044 0.831463
C38 C 0.3745(9) 0.5800(5) 0.8050(4)
C41 C 0.3272(8) 0.6158(5) 0.7979(4)
H41 H 0.367654 0.636109 0.788950
C45 C 0.2189(8) 0.6196(5) 0.8047(4)
H45 H 0.185141 0.642669 0.799462
H47 H 0.001153 0.405007 0.893615
C49 C 0.4927(9) 0.5748(6) 0.7997(4)
O1 O 0.5220(6) 0.5390(3) 0.7992(2)
O5 O 0.5517(5) 0.5987(3) 0.7893(2)
C54 C 0.0028(9) 0.5866(4) 0.3093(4)
C56 C 0.0832(8) 0.6093(4) 0.3355(5)
C58 C 0.0271(8) 0.6355(4) 0.3657(5)
C60 C 0.0148(10) 0.5560(4) 0.2719(4)
H52 H 0.087452 0.556147 0.262630
H54 H 0.001300 0.532524 0.287717
C62 C 0.0710(9) 0.6625(4) 0.4050(5)
H58 H 0.053321 0.687266 0.392593
H59 H 0.148696 0.659838 0.411791
H60 H 0.039681 0.658270 0.436541
C64 C 0.2001(9) 0.6074(4) 0.3336(5)
C66 C 0.2506(8) 0.5718(4) 0.3391(4)
H62 H 0.210412 0.551089 0.346670
C68 C 0.3628(8) 0.5679(4) 0.3331(4)
H64 H 0.396472 0.544792 0.337510
C70 C 0.4224(9) 0.5992(5) 0.3205(5)
C72 C 0.3766(8) 0.6345(4) 0.3191(5)
H66 H 0.417443 0.655802 0.315415
C74 C 0.2628(8) 0.6360(5) 0.3237(5)
H68 H 0.229425 0.659225 0.319369
C76 C 0.5376(8) 0.5908(5) 0.3116(4)
O10 O 0.5707(6) 0.5574(3) 0.3059(3)
O12 O 0.6013(6) 0.6199(3) 0.3076(3)
C77 C 0.266(2) 0.250000 0.7643(7)
O13 O 0.296(2) 0.250000 0.7270(7)
N13 N 0.0518(9) 0.2145(3) 0.8934(4)
N14 N 0.0983(8) 0.2110(4) 0.8458(4)
C79 C 0.0629(8) 0.1769(4) 0.8302(5)
C82 C 0.0909(10) 0.1595(3) 0.7800(5)
H69 H 0.059779 0.174183 0.750848
H70 H 0.168687 0.158663 0.780828
H71 H 0.062038 0.134686 0.776754
H78 H 0.001153 0.094993 0.893615
Mn7 Mn 0.69728(12) 0.55128(7) 0.80229(6)
Mn12 Mn 0.48595(11) 0.49120(6) 0.74607(5)
Mn15 Mn 0.51405(11) 0.50880(6) 0.25393(5)
Mn21 Mn 0.74235(13) 0.56455(6) 0.30616(6)
O18 O 0.1950(6) 0.0122(3) 0.6810(3)
Mn17 Mn 0.48595(11) 0.00880(6) 0.74607(5)
Mn22 Mn 0.25765(13) 0.06455(6) 0.69384(6)
H55 H 0.762469 0.654472 0.007518
C63 C 0.6983(7) 0.5775(4) 0.0270(4)
C65 C 0.7843(7) 0.5830(4) 0.0656(4)
H61 H 0.850368 0.589926 0.054892
C67 C 0.7829(8) 0.5792(4) 0.1205(4)
H63 H 0.838843 0.587336 0.145461
C69 C 0.6835(7) 0.5610(4) 0.1332(4)
C71 C 0.5978(8) 0.5542(4) 0.0961(4)
H65 H 0.533412 0.545285 0.106483
C73 C 0.6020(8) 0.5600(4) 0.0444(4)
H67 H 0.543762 0.552826 0.020046
C75 C 0.6715(9) 0.5544(4) 0.1899(5)
O9 O 0.7422(6) 0.5675(3) 0.2252(3)
O11 O 0.5936(6) 0.5359(3) 0.1996(3)
C1 C 0.7832(8) 0.6280(4) 0.8580(4)
H1 H 0.800627 0.653060 0.870256
H2 H 0.724673 0.629605 0.829229
C2 C 0.8294(8) 0.6367(3) 0.3811(4)
H3 H 0.771663 0.643803 0.353858
H4 H 0.849468 0.658638 0.402075
H7 H 0.006415 0.750000 0.561745
Mn3 Mn 0.25765(13) 0.43545(6) 0.69384(6)
N2 N 0.8769(7) 0.6117(4) 0.8400(4)
N3 N 0.7887(7) 0.6084(3) 0.4135(3)
N6 N 0.8548(7) 0.5819(4) 0.8099(4)
N7 N 0.7407(7) 0.5774(3) 0.3915(3)
C6 C 0.9587(8) 0.5709(4) 0.7997(4)
C7 C 0.7044(8) 0.5619(3) 0.4315(4)
C8 C 0.9784(10) 0.3293(4) 0.8600(5)
C11 C 0.7282(9) 0.5782(3) 0.4779(4)
C12 C 0.9773(11) 0.3097(5) 0.8999(5)
C13 C 0.0452(8) 0.6639(4) 0.6465(5)
C14 C 0.9829(8) 0.6208(4) 0.8439(4)
C15 C 0.7870(8) 0.6106(4) 0.4652(4)
C17 C 0.0537(10) 0.6886(4) 0.6060(5)
C18 C 0.9681(9) 0.5299(5) 0.7770(5)
H12 H 0.982862 0.512574 0.805333
H14 H 0.900732 0.523309 0.756314
C19 C 0.6470(9) 0.5211(4) 0.4210(4)
H15 H 0.676479 0.504134 0.447863
H16 H 0.661095 0.511846 0.387767
H17 H 0.569795 0.523392 0.421321
C20 C 0.9077(10) 0.3065(5) 0.9411(4)
H18 H 0.859657 0.327601 0.939749
H19 H 0.952217 0.305852 0.974340
H20 H 0.865519 0.284078 0.936312
H24 H 0.999484 0.674460 0.861244
C23 C 0.8330(12) 0.6450(4) 0.4995(5)
H27 H 0.911004 0.645634 0.501361
H28 H 0.813001 0.642609 0.533907
H29 H 0.802950 0.667601 0.483873
C24 C 0.1214(9) 0.6911(3) 0.5651(5)
H30 H 0.090439 0.676395 0.535927
H31 H 0.193080 0.682101 0.577474
H32 H 0.125839 0.716651 0.554473
C26 C 0.7090(7) 0.5661(4) 0.5281(4)
C27 C 0.9101(8) 0.3669(4) 0.8483(4)
C28 C 0.0940(8) 0.6265(4) 0.6539(3)
C30 C 0.7912(8) 0.5656(4) 0.5706(4)
H34 H 0.862835 0.568756 0.564127
C31 C 0.8170(11) 0.3683(5) 0.8101(6)
H35 H 0.793431 0.347494 0.790522
C32 C 0.2096(8) 0.6216(4) 0.6642(4)
H36 H 0.255014 0.642168 0.663701
C34 C 0.7717(8) 0.5603(4) 0.6232(4)
H38 H 0.825878 0.564256 0.651058
C35 C 0.7625(13) 0.4022(5) 0.8031(7)
H39 H 0.702153 0.401177 0.777595
C36 C 0.2564(11) 0.5859(4) 0.6752(4)
H40 H 0.331909 0.584077 0.681913
C37 C 0.6649(7) 0.5488(4) 0.6305(4)
C39 C 0.7768(10) 0.4334(4) 0.8233(4)
C40 C 0.1972(8) 0.5550(4) 0.6762(3)
C42 C 0.5874(7) 0.5460(4) 0.5880(4)
H42 H 0.519711 0.536697 0.593537
C43 C 0.8742(11) 0.4344(5) 0.8609(5)
H43 H 0.894462 0.456371 0.878450
C44 C 0.0838(8) 0.5578(4) 0.6618(4)
H44 H 0.038618 0.536975 0.658897
C46 C 0.5998(7) 0.5556(4) 0.5391(4)
H46 H 0.540855 0.555465 0.512830
C47 C 0.9369(9) 0.4029(4) 0.8708(4)
C48 C 0.0448(8) 0.5928(4) 0.6525(4)
C50 C 0.6426(7) 0.5397(4) 0.6843(4)
C51 C 0.7244(10) 0.4666(4) 0.8128(5)
C52 C 0.2422(10) 0.5173(4) 0.6879(4)
O2 O 0.7067(6) 0.5495(3) 0.7225(3)
O3 O 0.6284(6) 0.4656(3) 0.7783(3)
O4 O 0.3501(6) 0.5192(2) 0.7116(3)
O6 O 0.5599(5) 0.5197(3) 0.6877(3)
O7 O 0.7540(7) 0.4985(3) 0.8248(3)
O8 O 0.1950(6) 0.4878(3) 0.6810(3)
N9 N 0.7477(6) 0.6069(3) 0.8986(3)
N10 N 0.9208(7) 0.6246(3) 0.3579(4)
N11 N 0.7011(7) 0.5732(3) 0.8857(3)
N12 N 0.8999(7) 0.5957(3) 0.3208(3)
C53 C 0.6720(7) 0.5595(3) 0.9292(4)
C55 C 0.7061(7) 0.5812(3) 0.9704(4)
C57 C 0.7530(8) 0.6142(3) 0.9525(4)
C59 C 0.6239(11) 0.5215(4) 0.9281(4)
H49 H 0.551055 0.522953 0.936966
H50 H 0.667346 0.505987 0.952894
H51 H 0.622387 0.511166 0.893892
H53 H 0.963384 0.559397 0.241165
C61 C 0.8003(13) 0.6486(4) 0.9784(5)
H56 H 0.792707 0.668895 0.954075
H57 H 0.876102 0.644653 0.990454
C80 C 0.9784(10) 0.1707(4) 0.8600(5)
C81 C 0.9773(11) 0.1903(5) 0.8999(5)
C83 C 0.9077(10) 0.1935(5) 0.9411(4)
H72 H 0.859657 0.172399 0.939749
H73 H 0.952217 0.194148 0.974340
H74 H 0.865519 0.215922 0.936312
C84 C 0.9101(8) 0.1331(4) 0.8483(4)
C85 C 0.8170(11) 0.1317(5) 0.8101(6)
H75 H 0.793431 0.152506 0.790522
C86 C 0.7625(13) 0.0978(5) 0.8031(7)
H76 H 0.702153 0.098823 0.777595
C87 C 0.7768(10) 0.0666(4) 0.8233(4)
C88 C 0.8742(11) 0.0656(5) 0.8609(5)
H77 H 0.894462 0.043629 0.878450
C89 C 0.9369(9) 0.0971(4) 0.8708(4)
C90 C 0.7244(10) 0.0334(4) 0.8128(5)
O15 O 0.6284(6) 0.0344(3) 0.7783(3)
O16 O 0.7540(7) 0.0015(3) 0.8248(3)
C92 C 0.0452(8) 0.8361(4) 0.6465(5)
C93 C 0.0537(10) 0.8114(4) 0.6060(5)
C95 C 0.1214(9) 0.8089(3) 0.5651(5)
H82 H 0.090439 0.823605 0.535927
H83 H 0.193080 0.817899 0.577474
H84 H 0.125839 0.783349 0.554473
C96 C 0.0940(8) 0.8735(4) 0.6539(3)
C97 C 0.2096(8) 0.8784(4) 0.6642(4)
H85 H 0.255014 0.857832 0.663701
C98 C 0.2564(11) 0.9141(4) 0.6752(4)
H86 H 0.331909 0.915923 0.681913
C99 C 0.1972(8) 0.9450(4) 0.6762(3)
C100 C 0.0838(8) 0.9422(4) 0.6618(4)
H87 H 0.038618 0.963025 0.658897
C101 C 0.0448(8) 0.9072(4) 0.6525(4)
C102 C 0.2422(10) 0.9827(4) 0.6879(4)
O17 O 0.3501(6) 0.9808(2) 0.7116(3)
Mn4 Mn 0.30272(12) 0.44872(7) 0.19771(6)
C103 C 0.2168(8) 0.3720(4) 0.1420(4)
H89 H 0.199373 0.346940 0.129744
H90 H 0.275327 0.370395 0.170771
C104 C 0.1706(8) 0.3633(3) 0.6189(4)
H91 H 0.228337 0.356197 0.646142
H92 H 0.150532 0.341362 0.597925
N17 N 0.1231(7) 0.3883(4) 0.1600(4)
N18 N 0.2113(7) 0.3916(3) 0.5865(3)
N19 N 0.1452(7) 0.4181(4) 0.1901(4)
N20 N 0.2593(7) 0.4226(3) 0.6085(3)
C105 C 0.0413(8) 0.4291(4) 0.2003(4)
C106 C 0.2956(8) 0.4381(3) 0.5685(4)
C108 C 0.2718(9) 0.4218(3) 0.5221(4)
C109 C 0.0171(8) 0.3792(4) 0.1561(4)
C110 C 0.2130(8) 0.3894(4) 0.5348(4)
C111 C 0.0319(9) 0.4701(5) 0.2230(5)
H93 H 0.017138 0.487426 0.194667
H95 H 0.099268 0.476691 0.243686
C112 C 0.3530(9) 0.4789(4) 0.5790(4)
H96 H 0.323521 0.495866 0.552137
H97 H 0.338905 0.488154 0.612233
H98 H 0.430205 0.476608 0.578679
H99 H 0.000516 0.325540 0.138756
C114 C 0.1670(12) 0.3550(4) 0.5005(5)
H102 H 0.088996 0.354366 0.498639
H103 H 0.186999 0.357391 0.466093
H104 H 0.197050 0.332399 0.516127
C116 C 0.2910(7) 0.4339(4) 0.4719(4)
C118 C 0.2088(8) 0.4344(4) 0.4294(4)
H106 H 0.137165 0.431244 0.435873
C120 C 0.2283(8) 0.4397(4) 0.3768(4)
H108 H 0.174122 0.435744 0.348942
C121 C 0.3351(7) 0.4512(4) 0.3695(4)
C124 C 0.4126(7) 0.4540(4) 0.4120(4)
H110 H 0.480289 0.463303 0.406463
C126 C 0.4002(7) 0.4444(4) 0.4609(4)
H112 H 0.459145 0.444535 0.487170
C128 C 0.3574(7) 0.4603(4) 0.3157(4)
O20 O 0.2933(6) 0.4505(3) 0.2775(3)
O22 O 0.4401(5) 0.4803(3) 0.3123(3)
N21 N 0.2523(6) 0.3931(3) 0.1014(3)
N22 N 0.0792(7) 0.3754(3) 0.6421(4)
N23 N 0.2989(7) 0.4268(3) 0.1143(3)
N24 N 0.1001(7) 0.4043(3) 0.6792(3)
C129 C 0.3280(7) 0.4405(3) 0.0708(4)
C131 C 0.2939(7) 0.4188(3) 0.0296(4)
C133 C 0.2470(8) 0.3858(3) 0.0475(4)
C135 C 0.3761(11) 0.4785(4) 0.0719(4)
H113 H 0.448945 0.477047 0.063034
H114 H 0.332654 0.494013 0.047106
H115 H 0.377613 0.488834 0.106108
H117 H 0.036616 0.440603 0.758835
C137 C 0.1997(13) 0.3514(4) 0.0216(5)
H120 H 0.207293 0.331105 0.045925
H121 H 0.123898 0.355347 0.009546
O28 O 0.4780(6) 0.4610(3) 0.2008(2)
O29 O 0.3716(6) 0.5344(3) 0.2217(3)
O30 O 0.6499(6) 0.4808(2) 0.2884(3)
O32 O 0.4483(5) 0.4013(3) 0.2107(2)
O33 O 0.2460(7) 0.5015(3) 0.1752(3)
O34 O 0.8050(6) 0.5122(3) 0.3190(3)
O36 O 0.2578(6) 0.4325(3) 0.7748(3)
O38 O 0.4293(6) 0.4426(3) 0.6941(3)
O40 O 0.4064(6) 0.4641(3) 0.8004(3)
H119 H 0.237531 0.345528 0.992482
C139 C 0.3017(7) 0.4225(4) 0.9730(4)
C141 C 0.2157(7) 0.4170(4) 0.9344(4)
H125 H 0.149632 0.410074 0.945108
C143 C 0.2171(8) 0.4208(4) 0.8795(4)
H127 H 0.161157 0.412664 0.854539
C145 C 0.3165(7) 0.4390(4) 0.8668(4)
C147 C 0.4022(8) 0.4458(4) 0.9039(4)
H129 H 0.466588 0.454715 0.893517
C149 C 0.3980(8) 0.4400(4) 0.9556(4)
H131 H 0.456238 0.447174 0.979954
C151 C 0.3285(9) 0.4456(4) 0.8101(5)
Mn9 Mn 0.69728(12) 0.94872(7) 0.80229(6)
C4 C 0.9681(13) 0.750000 0.5921(7)
H8 H 0.891226 0.750000 0.578613
Cu2 Cu 0.8525(2) 0.750000 0.68953(10)
N5 N 0.9863(8) 0.7146(3) 0.6129(4)
N8 N 0.9287(7) 0.7116(3) 0.6576(4)
C9 C 0.9568(8) 0.6758(3) 0.6711(4)
C21 C 0.9179(10) 0.6596(4) 0.7219(5)
H21 H 0.947640 0.635089 0.728331
H22 H 0.839728 0.658277 0.717497
H23 H 0.942441 0.675481 0.750844
H48 H 0.969619 0.593821 0.643336
C78 C 0.7594(14) 0.750000 0.7389(7)
O14 O 0.7008(14) 0.750000 0.7702(6)
N15 N 0.9863(8) 0.7854(3) 0.6129(4)
N16 N 0.9287(7) 0.7884(3) 0.6576(4)
C91 C 0.9568(8) 0.8242(3) 0.6711(4)
C94 C 0.9179(10) 0.8404(4) 0.7219(5)
H79 H 0.947640 0.864911 0.728331
H80 H 0.839728 0.841723 0.717497
H81 H 0.942441 0.824519 0.750844
H88 H 0.969619 0.906179 0.643336
C107 C 0.9621(8) 0.4054(4) 0.1796(4)
H94 H 0.973801 0.470928 0.244136
C113 C 0.9732(9) 0.3487(4) 0.1236(5)
H100 H 0.895127 0.348881 0.121073
H101 H 0.994843 0.351240 0.089539
C115 C 0.8437(8) 0.4123(5) 0.1798(5)
C117 C 0.7900(8) 0.4444(5) 0.1706(4)
H105 H 0.826356 0.465045 0.159611
C119 C 0.6835(8) 0.4474(5) 0.1771(4)
H107 H 0.648584 0.469956 0.168537
C122 C 0.6255(9) 0.4200(5) 0.1950(4)
C123 C 0.6728(8) 0.3842(5) 0.2021(4)
H109 H 0.632346 0.363891 0.211050
C125 C 0.7811(8) 0.3804(5) 0.1953(4)
H111 H 0.814859 0.357331 0.200538
C127 C 0.5073(9) 0.4252(6) 0.2003(4)
C130 C 0.9972(9) 0.4134(4) 0.6907(4)
C132 C 0.9168(8) 0.3907(4) 0.6645(5)
C134 C 0.9729(8) 0.3645(4) 0.6343(5)
C136 C 0.9852(10) 0.4440(4) 0.7281(4)
H116 H 0.912548 0.443853 0.737370
H118 H 0.998700 0.467476 0.712283
C138 C 0.9290(9) 0.3375(4) 0.5950(5)
H122 H 0.946679 0.312734 0.607407
H123 H 0.851304 0.340162 0.588209
H124 H 0.960319 0.341730 0.563459
C140 C 0.7999(9) 0.3926(4) 0.6664(5)
C142 C 0.7494(8) 0.4282(4) 0.6609(4)
H126 H 0.789588 0.448911 0.653330
C144 C 0.6372(8) 0.4321(4) 0.6669(4)
H128 H 0.603528 0.455208 0.662490
C146 C 0.5776(9) 0.4008(5) 0.6795(5)
C148 C 0.6234(8) 0.3655(4) 0.6809(5)
H130 H 0.582557 0.344198 0.684585
C150 C 0.7372(8) 0.3640(5) 0.6763(5)
H132 H 0.770575 0.340775 0.680631
C152 C 0.4624(8) 0.4092(5) 0.6884(4)
O26 O 0.3987(6) 0.3801(3) 0.6924(3)
C4_2 C 0.0319(13) 0.250000 0.4079(7)
H8_2 H 0.108774 0.250000 0.421387
Cu2_2 Cu 0.1475(2) 0.250000 0.31047(10)
N5_2 N 0.0137(8) 0.2146(3) 0.3871(4)
N8_2 N 0.0713(7) 0.2116(3) 0.3424(4)
C9_2 C 0.0432(8) 0.1758(3) 0.3289(4)
C21_2 C 0.0821(10) 0.1596(4) 0.2781(5)
H21_2 H 0.052360 0.135089 0.271669
H22_2 H 0.160272 0.158277 0.282503
H23_2 H 0.057559 0.175481 0.249156
H48_2 H 0.030381 0.093821 0.356664
C78_2 C 0.2406(14) 0.250000 0.2611(7)
O14_2 O 0.2992(14) 0.250000 0.2298(6)
N15_2 N 0.0137(8) 0.2854(3) 0.3871(4)
N16_2 N 0.0713(7) 0.2884(3) 0.3424(4)
C91_2 C 0.0432(8) 0.3242(3) 0.3289(4)
C94_2 C 0.0821(10) 0.3404(4) 0.2781(5)
H79_2 H 0.052360 0.364911 0.271669
H80_2 H 0.160272 0.341723 0.282503
H81_2 H 0.057559 0.324519 0.249156
H88_2 H 0.030381 0.406179 0.356664
C107_2 C 0.0379(8) 0.9054(4) 0.8204(4)
H94_2 H 0.026199 0.970928 0.755864
C113_2 C 0.0268(9) 0.8487(4) 0.8764(5)
H100_2 H 0.104873 0.848881 0.878927
H101_2 H 0.005157 0.851240 0.910461
C115_2 C 0.1563(8) 0.9123(5) 0.8202(5)
C117_2 C 0.2100(8) 0.9444(5) 0.8294(4)
H105_2 H 0.173644 0.965045 0.840389
C119_2 C 0.3165(8) 0.9474(5) 0.8229(4)
H107_2 H 0.351416 0.969956 0.831463
C122_2 C 0.3745(9) 0.9200(5) 0.8050(4)
C123_2 C 0.3272(8) 0.8842(5) 0.7979(4)
H109_2 H 0.367654 0.863891 0.788950
C125_2 C 0.2189(8) 0.8804(5) 0.8047(4)
H111_2 H 0.185141 0.857331 0.799462
C127_2 C 0.4927(9) 0.9252(6) 0.7997(4)
O19 O 0.5220(6) 0.9610(3) 0.7992(2)
O21 O 0.5517(5) 0.9013(3) 0.7893(2)
C130_2 C 0.0028(9) 0.9134(4) 0.3093(4)
C132_2 C 0.0832(8) 0.8907(4) 0.3355(5)
C134_2 C 0.0271(8) 0.8645(4) 0.3657(5)
C136_2 C 0.0148(10) 0.9440(4) 0.2719(4)
H116_2 H 0.087452 0.943853 0.262630
H118_2 H 0.001300 0.967476 0.287717
C138_2 C 0.0710(9) 0.8375(4) 0.4050(5)
H122_2 H 0.053321 0.812734 0.392593
H123_2 H 0.148696 0.840162 0.411791
H124_2 H 0.039681 0.841730 0.436541
C140_2 C 0.2001(9) 0.8926(4) 0.3336(5)
C142_2 C 0.2506(8) 0.9282(4) 0.3391(4)
H126_2 H 0.210412 0.948911 0.346670
C144_2 C 0.3628(8) 0.9321(4) 0.3331(4)
H128_2 H 0.396472 0.955208 0.337510
C146_2 C 0.4224(9) 0.9008(5) 0.3205(5)
C148_2 C 0.3766(8) 0.8655(4) 0.3191(5)
H130_2 H 0.417443 0.844198 0.315415
C150_2 C 0.2628(8) 0.8640(5) 0.3237(5)
H132_2 H 0.229425 0.840775 0.319369
C152_2 C 0.5376(8) 0.9092(5) 0.3116(4)
O24 O 0.5707(6) 0.9426(3) 0.3059(3)
O26_2 O 0.6013(6) 0.8801(3) 0.3076(3)
Mn10 Mn 0.51405(11) 0.99120(6) 0.25393(5)
Mn18 Mn 0.74235(13) 0.93545(6) 0.30616(6)
Mn1 Mn 0.30272(12) 0.05128(7) 0.19771(6)
C1_2 C 0.2168(8) 0.1280(4) 0.1420(4)
H1_2 H 0.199373 0.153060 0.129744
H2_2 H 0.275327 0.129605 0.170771
C2_2 C 0.1706(8) 0.1367(3) 0.6189(4)
H3_2 H 0.228337 0.143803 0.646142
H4_2 H 0.150532 0.158638 0.597925
H7_2 H 0.993585 0.250000 0.438255
N2_2 N 0.1231(7) 0.1117(4) 0.1600(4)
N3_2 N 0.2113(7) 0.1084(3) 0.5865(3)
N6_2 N 0.1452(7) 0.0819(4) 0.1901(4)
N7_2 N 0.2593(7) 0.0774(3) 0.6085(3)
C6_2 C 0.0413(8) 0.0709(4) 0.2003(4)
C7_2 C 0.2956(8) 0.0619(3) 0.5685(4)
C11_2 C 0.2718(9) 0.0782(3) 0.5221(4)
C13_2 C 0.9548(8) 0.1639(4) 0.3535(5)
C14_2 C 0.0171(8) 0.1208(4) 0.1561(4)
C15_2 C 0.2130(8) 0.1106(4) 0.5348(4)
C17_2 C 0.9463(10) 0.1886(4) 0.3940(5)
C18_2 C 0.0319(9) 0.0299(5) 0.2230(5)
H12_2 H 0.017138 0.012574 0.194667
H14_2 H 0.099268 0.023309 0.243686
C19_2 C 0.3530(9) 0.0211(4) 0.5790(4)
H15_2 H 0.323521 0.004134 0.552137
H16_2 H 0.338905 0.011846 0.612233
H17_2 H 0.430205 0.023392 0.578679
H24_2 H 0.000516 0.174460 0.138756
C23_2 C 0.1670(12) 0.1450(4) 0.5005(5)
H27_2 H 0.088996 0.145634 0.498639
H28_2 H 0.186999 0.142609 0.466093
H29_2 H 0.197050 0.167601 0.516127
C24_2 C 0.8786(9) 0.1911(3) 0.4349(5)
H30_2 H 0.909561 0.176395 0.464073
H31_2 H 0.806920 0.182101 0.422526
H32_2 H 0.874161 0.216651 0.445527
C26_2 C 0.2910(7) 0.0661(4) 0.4719(4)
C28_2 C 0.9060(8) 0.1265(4) 0.3461(3)
C30_2 C 0.2088(8) 0.0656(4) 0.4294(4)
H34_2 H 0.137165 0.068756 0.435873
C32_2 C 0.7904(8) 0.1216(4) 0.3358(4)
H36_2 H 0.744986 0.142168 0.336299
C34_2 C 0.2283(8) 0.0603(4) 0.3768(4)
H38_2 H 0.174122 0.064256 0.348942
C36_2 C 0.7436(11) 0.0859(4) 0.3248(4)
H40_2 H 0.668091 0.084077 0.318087
C37_2 C 0.3351(7) 0.0488(4) 0.3695(4)
C40_2 C 0.8028(8) 0.0550(4) 0.3238(3)
C42_2 C 0.4126(7) 0.0460(4) 0.4120(4)
H42_2 H 0.480289 0.036697 0.406463
C44_2 C 0.9162(8) 0.0578(4) 0.3382(4)
H44_2 H 0.961382 0.036975 0.341103
C46_2 C 0.4002(7) 0.0556(4) 0.4609(4)
H46_2 H 0.459145 0.055465 0.487170
C48_2 C 0.9552(8) 0.0928(4) 0.3475(4)
C50_2 C 0.3574(7) 0.0397(4) 0.3157(4)
C52_2 C 0.7578(10) 0.0173(4) 0.3121(4)
O2_2 O 0.2933(6) 0.0495(3) 0.2775(3)
O4_2 O 0.6499(6) 0.0192(2) 0.2884(3)
O6_2 O 0.4401(5) 0.0197(3) 0.3123(3)
N9_2 N 0.2523(6) 0.1069(3) 0.1014(3)
N10_2 N 0.0792(7) 0.1246(3) 0.6421(4)
N11_2 N 0.2989(7) 0.0732(3) 0.1143(3)
N12_2 N 0.1001(7) 0.0957(3) 0.6792(3)
C53_2 C 0.3280(7) 0.0595(3) 0.0708(4)
C55_2 C 0.2939(7) 0.0812(3) 0.0296(4)
C57_2 C 0.2470(8) 0.1142(3) 0.0475(4)
C59_2 C 0.3761(11) 0.0215(4) 0.0719(4)
H49_2 H 0.448945 0.022953 0.063034
H50_2 H 0.332654 0.005987 0.047106
H51_2 H 0.377613 0.011166 0.106108
H53_2 H 0.036616 0.059397 0.758835
C61_2 C 0.1997(13) 0.1486(4) 0.0216(5)
H56_2 H 0.207293 0.168895 0.045925
H57_2 H 0.123898 0.144653 0.009546
C92_2 C 0.9548(8) 0.3361(4) 0.3535(5)
C93_2 C 0.9463(10) 0.3114(4) 0.3940(5)
C95_2 C 0.8786(9) 0.3089(3) 0.4349(5)
H82_2 H 0.909561 0.323605 0.464073
H83_2 H 0.806920 0.317899 0.422526
H84_2 H 0.874161 0.283349 0.445527
C96_2 C 0.9060(8) 0.3735(4) 0.3461(3)
C97_2 C 0.7904(8) 0.3784(4) 0.3358(4)
H85_2 H 0.744986 0.357832 0.336299
C98_2 C 0.7436(11) 0.4141(4) 0.3248(4)
H86_2 H 0.668091 0.415923 0.318087
C99_2 C 0.8028(8) 0.4450(4) 0.3238(3)
C100_2 C 0.9162(8) 0.4422(4) 0.3382(4)
H87_2 H 0.961382 0.463025 0.341103
C101_2 C 0.9552(8) 0.4072(4) 0.3475(4)
C102_2 C 0.7578(10) 0.4827(4) 0.3121(4)
O27 O 0.4780(6) 0.0390(3) 0.2008(2)
O31 O 0.4483(5) 0.0987(3) 0.2107(2)
O35 O 0.2578(6) 0.0675(3) 0.7748(3)
O37 O 0.4293(6) 0.0574(3) 0.6941(3)
O39 O 0.4064(6) 0.0359(3) 0.8004(3)
H55_2 H 0.237531 0.154472 0.992482
C63_2 C 0.3017(7) 0.0775(4) 0.9730(4)
C65_2 C 0.2157(7) 0.0830(4) 0.9344(4)
H61_2 H 0.149632 0.089926 0.945108
C67_2 C 0.2171(8) 0.0792(4) 0.8795(4)
H63_2 H 0.161157 0.087336 0.854539
C69_2 C 0.3165(7) 0.0610(4) 0.8668(4)
C71_2 C 0.4022(8) 0.0542(4) 0.9039(4)
H65_2 H 0.466588 0.045285 0.893517
C73_2 C 0.3980(8) 0.0600(4) 0.9556(4)
H67_2 H 0.456238 0.052826 0.979954
C75_2 C 0.3285(9) 0.0544(4) 0.8101(5)
H119_2 H 0.762469 0.845528 0.007518
C139_2 C 0.6983(7) 0.9225(4) 0.0270(4)
C141_2 C 0.7843(7) 0.9170(4) 0.0656(4)
H125_2 H 0.850368 0.910074 0.054892
C143_2 C 0.7829(8) 0.9208(4) 0.1205(4)
H127_2 H 0.838843 0.912664 0.145461
C145_2 C 0.6835(7) 0.9390(4) 0.1332(4)
C147_2 C 0.5978(8) 0.9458(4) 0.0961(4)
H129_2 H 0.533412 0.954715 0.106483
C149_2 C 0.6020(8) 0.9400(4) 0.0444(4)
H131_2 H 0.543762 0.947174 0.020046
C151_2 C 0.6715(9) 0.9456(4) 0.1899(5)
O23 O 0.7422(6) 0.9325(3) 0.2252(3)
O25 O 0.5936(6) 0.9641(3) 0.1996(3)
C8_2 C 0.0216(10) 0.8293(4) 0.1400(5)
C12_2 C 0.0227(11) 0.8097(5) 0.1001(5)
C20_2 C 0.0923(10) 0.8065(5) 0.0589(4)
H18_2 H 0.140343 0.827601 0.060251
H19_2 H 0.047783 0.805852 0.025660
H20_2 H 0.134481 0.784078 0.063688
C27_2 C 0.0899(8) 0.8669(4) 0.1517(4)
C31_2 C 0.1830(11) 0.8683(5) 0.1899(6)
H35_2 H 0.206569 0.847494 0.209478
C35_2 C 0.2375(13) 0.9022(5) 0.1969(7)
H39_2 H 0.297847 0.901177 0.222405
C39_2 C 0.2232(10) 0.9334(4) 0.1767(4)
C43_2 C 0.1258(11) 0.9344(5) 0.1391(5)
H43_2 H 0.105538 0.956371 0.121550
C47_2 C 0.0631(9) 0.9029(4) 0.1292(4)
C51_2 C 0.2756(10) 0.9666(4) 0.1872(5)
O3_2 O 0.3716(6) 0.9656(3) 0.2217(3)
O7_2 O 0.2460(7) 0.9985(3) 0.1752(3)
O8_2 O 0.8050(6) 0.9878(3) 0.3190(3)
C80_2 C 0.0216(10) 0.6707(4) 0.1400(5)
C81_2 C 0.0227(11) 0.6903(5) 0.1001(5)
C83_2 C 0.0923(10) 0.6935(5) 0.0589(4)
H72_2 H 0.140343 0.672399 0.060251
H73_2 H 0.047783 0.694148 0.025660
H74_2 H 0.134481 0.715922 0.063688
C84_2 C 0.0899(8) 0.6331(4) 0.1517(4)
C85_2 C 0.1830(11) 0.6317(5) 0.1899(6)
H75_2 H 0.206569 0.652506 0.209478
C86_2 C 0.2375(13) 0.5978(5) 0.1969(7)
H76_2 H 0.297847 0.598823 0.222405
C87_2 C 0.2232(10) 0.5666(4) 0.1767(4)
C88_2 C 0.1258(11) 0.5656(5) 0.1391(5)
H77_2 H 0.105538 0.543629 0.121550
C89_2 C 0.0631(9) 0.5971(4) 0.1292(4)
C90_2 C 0.2756(10) 0.5334(4) 0.1872(5)
C103_2 C 0.7832(8) 0.8720(4) 0.8580(4)
H89_2 H 0.800627 0.846940 0.870256
H90_2 H 0.724673 0.870395 0.829229
C104_2 C 0.8294(8) 0.8633(3) 0.3811(4)
H91_2 H 0.771663 0.856197 0.353858
H92_2 H 0.849468 0.841362 0.402075
N17_2 N 0.8769(7) 0.8883(4) 0.8400(4)
N18_2 N 0.7887(7) 0.8916(3) 0.4135(3)
N19_2 N 0.8548(7) 0.9181(4) 0.8099(4)
N20_2 N 0.7407(7) 0.9226(3) 0.3915(3)
C105_2 C 0.9587(8) 0.9291(4) 0.7997(4)
C106_2 C 0.7044(8) 0.9381(3) 0.4315(4)
C108_2 C 0.7282(9) 0.9218(3) 0.4779(4)
C109_2 C 0.9829(8) 0.8792(4) 0.8439(4)
C110_2 C 0.7870(8) 0.8894(4) 0.4652(4)
C111_2 C 0.9681(9) 0.9701(5) 0.7770(5)
H93_2 H 0.982862 0.987426 0.805333
H95_2 H 0.900732 0.976691 0.756314
C112_2 C 0.6470(9) 0.9789(4) 0.4210(4)
H96_2 H 0.676479 0.995866 0.447863
H97_2 H 0.661095 0.988154 0.387767
H98_2 H 0.569795 0.976608 0.421321
H99_2 H 0.999484 0.825540 0.861244
C114_2 C 0.8330(12) 0.8550(4) 0.4995(5)
H102_2 H 0.911004 0.854366 0.501361
H103_2 H 0.813001 0.857391 0.533907
H104_2 H 0.802950 0.832399 0.483873
C116_2 C 0.7090(7) 0.9339(4) 0.5281(4)
C118_2 C 0.7912(8) 0.9344(4) 0.5706(4)
H106_2 H 0.862835 0.931244 0.564127
C120_2 C 0.7717(8) 0.9397(4) 0.6232(4)
H108_2 H 0.825878 0.935744 0.651058
C121_2 C 0.6649(7) 0.9512(4) 0.6305(4)
C124_2 C 0.5874(7) 0.9540(4) 0.5880(4)
H110_2 H 0.519711 0.963303 0.593537
C126_2 C 0.5998(7) 0.9444(4) 0.5391(4)
H112_2 H 0.540855 0.944535 0.512830
C128_2 C 0.6426(7) 0.9603(4) 0.6843(4)
O20_2 O 0.7067(6) 0.9505(3) 0.7225(3)
O22_2 O 0.5599(5) 0.9803(3) 0.6877(3)
N21_2 N 0.7477(6) 0.8931(3) 0.8986(3)
N22_2 N 0.9208(7) 0.8754(3) 0.3579(4)
N23_2 N 0.7011(7) 0.9268(3) 0.8857(3)
N24_2 N 0.8999(7) 0.9043(3) 0.3208(3)
C129_2 C 0.6720(7) 0.9405(3) 0.9292(4)
C131_2 C 0.7061(7) 0.9188(3) 0.9704(4)
C133_2 C 0.7530(8) 0.8858(3) 0.9525(4)
C135_2 C 0.6239(11) 0.9785(4) 0.9281(4)
H113_2 H 0.551055 0.977047 0.936966
H114_2 H 0.667346 0.994013 0.952894
H115_2 H 0.622387 0.988834 0.893892
H117_2 H 0.963384 0.940603 0.241165
C137_2 C 0.8003(13) 0.8514(4) 0.9784(5)
H120_2 H 0.792707 0.831105 0.954075
H121_2 H 0.876102 0.855347 0.990454
C10_2 C 0.9621(8) 0.0946(4) 0.1796(4)
H13_2 H 0.973801 0.029072 0.244136
C22_2 C 0.9732(9) 0.1513(4) 0.1236(5)
H25_2 H 0.895127 0.151119 0.121073
H26_2 H 0.994843 0.148760 0.089539
C25_2 C 0.8437(8) 0.0877(5) 0.1798(5)
C29_2 C 0.7900(8) 0.0556(5) 0.1706(4)
H33_2 H 0.826356 0.034955 0.159611
C33_2 C 0.6835(8) 0.0526(5) 0.1771(4)
H37_2 H 0.648584 0.030044 0.168537
C38_2 C 0.6255(9) 0.0800(5) 0.1950(4)
C41_2 C 0.6728(8) 0.1158(5) 0.2021(4)
H41_2 H 0.632346 0.136109 0.211050
C45_2 C 0.7811(8) 0.1196(5) 0.1953(4)
H45_2 H 0.814859 0.142669 0.200538
C49_2 C 0.5073(9) 0.0748(6) 0.2003(4)
C54_2 C 0.9972(9) 0.0866(4) 0.6907(4)
C56_2 C 0.9168(8) 0.1093(4) 0.6645(5)
C58_2 C 0.9729(8) 0.1355(4) 0.6343(5)
C60_2 C 0.9852(10) 0.0560(4) 0.7281(4)
H52_2 H 0.912548 0.056147 0.737370
H54_2 H 0.998700 0.032524 0.712283
C62_2 C 0.9290(9) 0.1625(4) 0.5950(5)
H58_2 H 0.946679 0.187266 0.607407
H59_2 H 0.851304 0.159838 0.588209
H60_2 H 0.960319 0.158270 0.563459
C64_2 C 0.7999(9) 0.1074(4) 0.6664(5)
C66_2 C 0.7494(8) 0.0718(4) 0.6609(4)
H62_2 H 0.789588 0.051089 0.653330
C68_2 C 0.6372(8) 0.0679(4) 0.6669(4)
H64_2 H 0.603528 0.044792 0.662490
C70_2 C 0.5776(9) 0.0992(5) 0.6795(5)
C72_2 C 0.6234(8) 0.1345(4) 0.6809(5)
H66_2 H 0.582557 0.155802 0.684585
C74_2 C 0.7372(8) 0.1360(5) 0.6763(5)
H68_2 H 0.770575 0.159225 0.680631
C76_2 C 0.4624(8) 0.0908(5) 0.6884(4)
O12_2 O 0.3987(6) 0.1199(3) 0.6924(3)
C3_2 C 0.9280(16) 0.750000 0.0824(8)
H5_2 H 0.968026 0.750001 0.052606
H6_2 H 0.851334 0.750000 0.068411
N1_2 N 0.9482(9) 0.7855(3) 0.1066(4)
Cu1_2 Cu 0.8183(2) 0.750000 0.18474(10)
N4_2 N 0.9017(8) 0.7890(4) 0.1542(4)
C5_2 C 0.9371(8) 0.8231(4) 0.1698(5)
C16_2 C 0.9091(10) 0.8405(3) 0.2200(5)
H9_2 H 0.940221 0.825817 0.249152
H10_2 H 0.831313 0.841337 0.219172
H11_2 H 0.937962 0.865314 0.223246
H47_2 H 0.998847 0.905007 0.106385
C77_2 C 0.734(2) 0.750000 0.2357(7)
O13_2 O 0.704(2) 0.750000 0.2730(7)
N13_2 N 0.9482(9) 0.7145(3) 0.1066(4)
N14_2 N 0.9017(8) 0.7110(4) 0.1542(4)
C79_2 C 0.9371(8) 0.6769(4) 0.1698(5)
C82_2 C 0.9091(10) 0.6595(3) 0.2200(5)
H69_2 H 0.940221 0.674183 0.249152
H70_2 H 0.831313 0.658663 0.219172
H71_2 H 0.937962 0.634686 0.223246
H78_2 H 0.998847 0.594993 0.106385
loop_
_geom_bond_atom_site_label_1
_geom_bond_atom_site_label_2
_geom_bond_site_symmetry_1
_geom_bond_site_symmetry_2
P1 F1 1_555 1_555
F2 P1 1_555 1_555
F3 P1 1_555 1_555
F4 P1 1_555 1_555
F5 P1 1_555 1_555
F6 P1 1_555 1_555
P1_2 F1_2 1_555 1_555
F2_2 P1_2 1_555 1_555
F3_2 P1_2 1_555 1_555
F4_2 P1_2 1_555 1_555
F5_2 P1_2 1_555 1_555
F6_2 P1_2 1_555 1_555
P2 F7 1_555 1_555
F8 P2 1_555 1_555
F9 P2 1_555 1_555
F10 P2 1_555 1_555
F11 P2 1_555 1_555
F12 P2 1_555 1_555
P2_2 F7_2 1_555 1_555
F8_2 P2_2 1_555 1_555
F9_2 P2_2 1_555 1_555
F10_2 P2_2 1_555 1_555
F11_2 P2_2 1_555 1_555
F12_2 P2_2 1_555 1_555
C3 H5 1_555 1_555
H6 C3 1_555 1_555
N1 C3 1_555 1_555
Cu1 N4 1_555 1_555
N4 N1 1_555 1_555
C5 N4 1_555 1_555
C16 C5 1_555 1_555
H9 C16 1_555 1_555
H10 C16 1_555 1_555
H11 C16 1_555 1_555
H25 C22 1_555 1_555
H26 C22 1_555 1_555
C25 C10 1_555 1_555
C29 C25 1_555 1_555
H33 C29 1_555 1_555
C33 C29 1_555 1_555
H37 C33 1_555 1_555
C38 C33 1_555 1_555
C41 C38 1_555 1_555
H41 C41 1_555 1_555
C45 C25 1_555 1_555
H45 C45 1_555 1_555
C49 C38 1_555 1_555
O1 C49 1_555 1_555
O5 C49 1_555 1_555
C56 C54 1_555 1_555
C60 C54 1_555 1_555
H52 C60 1_555 1_555
H54 C60 1_555 1_555
C62 C58 1_555 1_555
H58 C62 1_555 1_555
H59 C62 1_555 1_555
H60 C62 1_555 1_555
C64 C56 1_555 1_555
C66 C64 1_555 1_555
H62 C66 1_555 1_555
C68 C66 1_555 1_555
H64 C68 1_555 1_555
C70 C68 1_555 1_555
C72 C70 1_555 1_555
H66 C72 1_555 1_555
C74 C64 1_555 1_555
H68 C74 1_555 1_555
C76 C70 1_555 1_555
O10 C76 1_555 1_555
O12 C76 1_555 1_555
C77 Cu1 1_555 1_555
O13 C77 1_555 1_555
N13 C3 1_555 1_555
N14 Cu1 1_555 1_555
C79 N14 1_555 1_555
C82 C79 1_555 1_555
H69 C82 1_555 1_555
H70 C82 1_555 1_555
H71 C82 1_555 1_555
Mn7 O1 1_555 1_555
Mn12 O1 1_555 1_555
Mn15 O10 1_555 1_555
Mn21 O10 1_555 1_555
C41 C45 1_555 1_555
O5 Mn7 1_555 1_555
C56 C58 1_555 1_555
C72 C74 1_555 1_555
N13 N14 1_555 1_555
Mn22 O18 1_555 1_555
C65 C63 1_555 1_555
H61 C65 1_555 1_555
C67 C65 1_555 1_555
H63 C67 1_555 1_555
C69 C67 1_555 1_555
C71 C69 1_555 1_555
H65 C71 1_555 1_555
C73 C63 1_555 1_555
H67 C73 1_555 1_555
C75 C69 1_555 1_555
O9 C75 1_555 1_555
O11 C75 1_555 1_555
Mn15 O11 1_555 1_555
Mn21 O9 1_555 1_555
C71 C73 1_555 1_555
Mn7 N6 1_555 1_555
C1 H1 1_555 1_555
H2 C1 1_555 1_555
C2 H3 1_555 1_555
H4 C2 1_555 1_555
Mn12 O3 1_555 1_555
Mn3 O8 1_555 1_555
N2 C1 1_555 1_555
N3 C2 1_555 1_555
N6 N2 1_555 1_555
N7 N3 1_555 1_555
C6 N6 1_555 1_555
C7 N7 1_555 1_555
C11 C7 1_555 1_555
C14 N2 1_555 1_555
C15 N3 1_555 1_555
C18 C6 1_555 1_555
H12 C18 1_555 1_555
H14 C18 1_555 1_555
C19 C7 1_555 1_555
H15 C19 1_555 1_555
H16 C19 1_555 1_555
H17 C19 1_555 1_555
C20 C12 1_555 1_555
H18 C20 1_555 1_555
H19 C20 1_555 1_555
H20 C20 1_555 1_555
C23 C15 1_555 1_555
H27 C23 1_555 1_555
H28 C23 1_555 1_555
H29 C23 1_555 1_555
C24 C17 1_555 1_555
H30 C24 1_555 1_555
H31 C24 1_555 1_555
H32 C24 1_555 1_555
C26 C11 1_555 1_555
C27 C8 1_555 1_555
C28 C13 1_555 1_555
C30 C26 1_555 1_555
H34 C30 1_555 1_555
C31 C27 1_555 1_555
H35 C31 1_555 1_555
C32 C28 1_555 1_555
H36 C32 1_555 1_555
C34 C30 1_555 1_555
H38 C34 1_555 1_555
C35 C31 1_555 1_555
H39 C35 1_555 1_555
C36 C32 1_555 1_555
H40 C36 1_555 1_555
C37 C34 1_555 1_555
C39 C35 1_555 1_555
C40 C36 1_555 1_555
C42 C37 1_555 1_555
H42 C42 1_555 1_555
C43 C39 1_555 1_555
H43 C43 1_555 1_555
C44 C40 1_555 1_555
H44 C44 1_555 1_555
C46 C26 1_555 1_555
H46 C46 1_555 1_555
C47 C27 1_555 1_555
C48 C28 1_555 1_555
C50 C37 1_555 1_555
C51 C39 1_555 1_555
C52 C40 1_555 1_555
O2 Mn7 1_555 1_555
O3 C51 1_555 1_555
O4 Mn12 1_555 1_555
O6 Mn12 1_555 1_555
O7 Mn7 1_555 1_555
O8 C52 1_555 1_555
N9 C1 1_555 1_555
N10 C2 1_555 1_555
N11 Mn7 1_555 1_555
N12 N10 1_555 1_555
C53 N11 1_555 1_555
C55 C53 1_555 1_555
C57 N9 1_555 1_555
C59 C53 1_555 1_555
H49 C59 1_555 1_555
H50 C59 1_555 1_555
H51 C59 1_555 1_555
C61 C57 1_555 1_555
H56 C61 1_555 1_555
H57 C61 1_555 1_555
C83 C81 1_555 1_555
H72 C83 1_555 1_555
H73 C83 1_555 1_555
H74 C83 1_555 1_555
C84 C80 1_555 1_555
C85 C84 1_555 1_555
H75 C85 1_555 1_555
C86 C85 1_555 1_555
H76 C86 1_555 1_555
C87 C86 1_555 1_555
C88 C87 1_555 1_555
H77 C88 1_555 1_555
C89 C84 1_555 1_555
C90 C87 1_555 1_555
O15 C90 1_555 1_555
O16 C90 1_555 1_555
C95 C93 1_555 1_555
H82 C95 1_555 1_555
H83 C95 1_555 1_555
H84 C95 1_555 1_555
C96 C92 1_555 1_555
C97 C96 1_555 1_555
H85 C97 1_555 1_555
C98 C97 1_555 1_555
H86 C98 1_555 1_555
C99 C98 1_555 1_555
C100 C99 1_555 1_555
H87 C100 1_555 1_555
C101 C96 1_555 1_555
C102 C99 1_555 1_555
O17 C102 1_555 1_555
Mn4 N19 1_555 1_555
C103 H89 1_555 1_555
H90 C103 1_555 1_555
C104 H91 1_555 1_555
H92 C104 1_555 1_555
Mn15 O22 1_555 1_555
Mn21 N7 1_555 1_555
N17 C103 1_555 1_555
N18 C104 1_555 1_555
N19 N17 1_555 1_555
N20 Mn3 1_555 1_555
C105 N19 1_555 1_555
C106 N20 1_555 1_555
C108 C106 1_555 1_555
C109 N17 1_555 1_555
C110 N18 1_555 1_555
C111 C105 1_555 1_555
H93 C111 1_555 1_555
H95 C111 1_555 1_555
C112 C106 1_555 1_555
H96 C112 1_555 1_555
H97 C112 1_555 1_555
H98 C112 1_555 1_555
C114 C110 1_555 1_555
H102 C114 1_555 1_555
H103 C114 1_555 1_555
H104 C114 1_555 1_555
C116 C108 1_555 1_555
C118 C116 1_555 1_555
H106 C118 1_555 1_555
C120 C118 1_555 1_555
H108 C120 1_555 1_555
C121 C120 1_555 1_555
C124 C121 1_555 1_555
H110 C124 1_555 1_555
C126 C116 1_555 1_555
H112 C126 1_555 1_555
C128 C121 1_555 1_555
O20 Mn4 1_555 1_555
O22 C128 1_555 1_555
N21 C103 1_555 1_555
N22 C104 1_555 1_555
N23 Mn4 1_555 1_555
N24 Mn3 1_555 1_555
C129 N23 1_555 1_555
C131 C129 1_555 1_555
C133 N21 1_555 1_555
C135 C129 1_555 1_555
H113 C135 1_555 1_555
H114 C135 1_555 1_555
H115 C135 1_555 1_555
C137 C133 1_555 1_555
H120 C137 1_555 1_555
H121 C137 1_555 1_555
Mn17 O15 1_555 1_555
O28 Mn4 1_555 1_555
O29 Mn15 1_555 1_555
O30 Mn15 1_555 1_555
O32 Mn4 1_555 1_555
O33 Mn4 1_555 1_555
O34 Mn21 1_555 1_555
O36 Mn3 1_555 1_555
O38 Mn12 1_555 1_555
O40 Mn12 1_555 1_555
Mn3 O38 1_555 1_555
C8 C12 1_555 1_555
C11 C15 1_555 1_555
C13 C17 1_555 1_555
C42 C46 1_555 1_555
C43 C47 1_555 1_555
C44 C48 1_555 1_555
C50 O2 1_555 1_555
C50 O6 1_555 1_555
C51 O7 1_555 1_555
C52 O4 1_555 1_555
N9 N11 1_555 1_555
N12 Mn21 1_555 1_555
C55 C57 1_555 1_555
C80 C81 1_555 1_555
C88 C89 1_555 1_555
C92 C93 1_555 1_555
C100 C101 1_555 1_555
Mn15 O28 1_555 1_555
N18 N20 1_555 1_555
C108 C110 1_555 1_555
C124 C126 1_555 1_555
C128 O20 1_555 1_555
N21 N23 1_555 1_555
N22 N24 1_555 1_555
C131 C133 1_555 1_555
C141 C139 1_555 1_555
H125 C141 1_555 1_555
C143 C141 1_555 1_555
H127 C143 1_555 1_555
C145 C143 1_555 1_555
C147 C145 1_555 1_555
H129 C147 1_555 1_555
C149 C139 1_555 1_555
H131 C149 1_555 1_555
C151 C145 1_555 1_555
O36 C151 1_555 1_555
O40 C151 1_555 1_555
C147 C149 1_555 1_555
H8 C4 1_555 1_555
Cu2 N8 1_555 1_555
N5 C4 1_555 1_555
N8 N5 1_555 1_555
C9 N8 1_555 1_555
C21 C9 1_555 1_555
H21 C21 1_555 1_555
H22 C21 1_555 1_555
H23 C21 1_555 1_555
C78 Cu2 1_555 1_555
O14 C78 1_555 1_555
N15 C4 1_555 1_555
N16 Cu2 1_555 1_555
C91 N16 1_555 1_555
C94 C91 1_555 1_555
H79 C94 1_555 1_555
H80 C94 1_555 1_555
H81 C94 1_555 1_555
H100 C113 1_555 1_555
H101 C113 1_555 1_555
C115 C107 1_555 1_555
C117 C115 1_555 1_555
H105 C117 1_555 1_555
C119 C117 1_555 1_555
H107 C119 1_555 1_555
C122 C119 1_555 1_555
C123 C122 1_555 1_555
H109 C123 1_555 1_555
C125 C115 1_555 1_555
H111 C125 1_555 1_555
C127 C122 1_555 1_555
O28 C127 1_555 1_555
O32 C127 1_555 1_555
C132 C130 1_555 1_555
C136 C130 1_555 1_555
H116 C136 1_555 1_555
H118 C136 1_555 1_555
C138 C134 1_555 1_555
H122 C138 1_555 1_555
H123 C138 1_555 1_555
H124 C138 1_555 1_555
C140 C132 1_555 1_555
C142 C140 1_555 1_555
H126 C142 1_555 1_555
C144 C142 1_555 1_555
H128 C144 1_555 1_555
C146 C144 1_555 1_555
C148 C146 1_555 1_555
H130 C148 1_555 1_555
C150 C140 1_555 1_555
H132 C150 1_555 1_555
C152 C146 1_555 1_555
O38 C152 1_555 1_555
O26 C152 1_555 1_555
N15 N16 1_555 1_555
C123 C125 1_555 1_555
C132 C134 1_555 1_555
C148 C150 1_555 1_555
H8_2 C4_2 1_555 1_555
Cu2_2 N8_2 1_555 1_555
N5_2 C4_2 1_555 1_555
N8_2 N5_2 1_555 1_555
C9_2 N8_2 1_555 1_555
C21_2 C9_2 1_555 1_555
H21_2 C21_2 1_555 1_555
H22_2 C21_2 1_555 1_555
H23_2 C21_2 1_555 1_555
C78_2 Cu2_2 1_555 1_555
O14_2 C78_2 1_555 1_555
N15_2 C4_2 1_555 1_555
N16_2 Cu2_2 1_555 1_555
C91_2 N16_2 1_555 1_555
C94_2 C91_2 1_555 1_555
H79_2 C94_2 1_555 1_555
H80_2 C94_2 1_555 1_555
H81_2 C94_2 1_555 1_555
N15_2 N16_2 1_555 1_555
H100_2 C113_2 1_555 1_555
H101_2 C113_2 1_555 1_555
C115_2 C107_2 1_555 1_555
C117_2 C115_2 1_555 1_555
H105_2 C117_2 1_555 1_555
C119_2 C117_2 1_555 1_555
H107_2 C119_2 1_555 1_555
C122_2 C119_2 1_555 1_555
C123_2 C122_2 1_555 1_555
H109_2 C123_2 1_555 1_555
C125_2 C115_2 1_555 1_555
H111_2 C125_2 1_555 1_555
C127_2 C122_2 1_555 1_555
O19 C127_2 1_555 1_555
O21 C127_2 1_555 1_555
C132_2 C130_2 1_555 1_555
C136_2 C130_2 1_555 1_555
H116_2 C136_2 1_555 1_555
H118_2 C136_2 1_555 1_555
C138_2 C134_2 1_555 1_555
H122_2 C138_2 1_555 1_555
H123_2 C138_2 1_555 1_555
H124_2 C138_2 1_555 1_555
C140_2 C132_2 1_555 1_555
C142_2 C140_2 1_555 1_555
H126_2 C142_2 1_555 1_555
C144_2 C142_2 1_555 1_555
H128_2 C144_2 1_555 1_555
C146_2 C144_2 1_555 1_555
C148_2 C146_2 1_555 1_555
H130_2 C148_2 1_555 1_555
C150_2 C140_2 1_555 1_555
H132_2 C150_2 1_555 1_555
C152_2 C146_2 1_555 1_555
O24 C152_2 1_555 1_555
O26_2 C152_2 1_555 1_555
Mn9 O19 1_555 1_555
Mn10 O24 1_555 1_555
Mn18 O24 1_555 1_555
C123_2 C125_2 1_555 1_555
O21 Mn9 1_555 1_555
C132_2 C134_2 1_555 1_555
C148_2 C150_2 1_555 1_555
Mn1 N6_2 1_555 1_555
C1_2 H1_2 1_555 1_555
H2_2 C1_2 1_555 1_555
C2_2 H3_2 1_555 1_555
H4_2 C2_2 1_555 1_555
N2_2 C1_2 1_555 1_555
N3_2 C2_2 1_555 1_555
N6_2 N2_2 1_555 1_555
N7_2 N3_2 1_555 1_555
C6_2 N6_2 1_555 1_555
C7_2 N7_2 1_555 1_555
C11_2 C7_2 1_555 1_555
C14_2 N2_2 1_555 1_555
C15_2 N3_2 1_555 1_555
C18_2 C6_2 1_555 1_555
H12_2 C18_2 1_555 1_555
H14_2 C18_2 1_555 1_555
C19_2 C7_2 1_555 1_555
H15_2 C19_2 1_555 1_555
H16_2 C19_2 1_555 1_555
H17_2 C19_2 1_555 1_555
C23_2 C15_2 1_555 1_555
H27_2 C23_2 1_555 1_555
H28_2 C23_2 1_555 1_555
H29_2 C23_2 1_555 1_555
C24_2 C17_2 1_555 1_555
H30_2 C24_2 1_555 1_555
H31_2 C24_2 1_555 1_555
H32_2 C24_2 1_555 1_555
C26_2 C11_2 1_555 1_555
C28_2 C13_2 1_555 1_555
C30_2 C26_2 1_555 1_555
H34_2 C30_2 1_555 1_555
C32_2 C28_2 1_555 1_555
H36_2 C32_2 1_555 1_555
C34_2 C30_2 1_555 1_555
H38_2 C34_2 1_555 1_555
C36_2 C32_2 1_555 1_555
H40_2 C36_2 1_555 1_555
C37_2 C34_2 1_555 1_555
C40_2 C36_2 1_555 1_555
C42_2 C37_2 1_555 1_555
H42_2 C42_2 1_555 1_555
C44_2 C40_2 1_555 1_555
H44_2 C44_2 1_555 1_555
C46_2 C26_2 1_555 1_555
H46_2 C46_2 1_555 1_555
C48_2 C28_2 1_555 1_555
C50_2 C37_2 1_555 1_555
C52_2 C40_2 1_555 1_555
O2_2 Mn1 1_555 1_555
N9_2 C1_2 1_555 1_555
N10_2 C2_2 1_555 1_555
N11_2 Mn1 1_555 1_555
N12_2 N10_2 1_555 1_555
C53_2 N11_2 1_555 1_555
C55_2 C53_2 1_555 1_555
C57_2 N9_2 1_555 1_555
C59_2 C53_2 1_555 1_555
H49_2 C59_2 1_555 1_555
H50_2 C59_2 1_555 1_555
H51_2 C59_2 1_555 1_555
C61_2 C57_2 1_555 1_555
H56_2 C61_2 1_555 1_555
H57_2 C61_2 1_555 1_555
C95_2 C93_2 1_555 1_555
H82_2 C95_2 1_555 1_555
H83_2 C95_2 1_555 1_555
H84_2 C95_2 1_555 1_555
C96_2 C92_2 1_555 1_555
C97_2 C96_2 1_555 1_555
H85_2 C97_2 1_555 1_555
C98_2 C97_2 1_555 1_555
H86_2 C98_2 1_555 1_555
C99_2 C98_2 1_555 1_555
C100_2 C99_2 1_555 1_555
H87_2 C100_2 1_555 1_555
C101_2 C96_2 1_555 1_555
C102_2 C99_2 1_555 1_555
O30 C102_2 1_555 1_555
O34 C102_2 1_555 1_555
Mn22 N7_2 1_555 1_555
O27 Mn1 1_555 1_555
O31 Mn1 1_555 1_555
O35 Mn22 1_555 1_555
O37 Mn17 1_555 1_555
O39 Mn17 1_555 1_555
C11_2 C15_2 1_555 1_555
C13_2 C17_2 1_555 1_555
C42_2 C46_2 1_555 1_555
C44_2 C48_2 1_555 1_555
C50_2 O2_2 1_555 1_555
C50_2 O6_2 1_555 1_555
C52_2 O4_2 1_555 1_555
N9_2 N11_2 1_555 1_555
N12_2 Mn22 1_555 1_555
C55_2 C57_2 1_555 1_555
C92_2 C93_2 1_555 1_555
C100_2 C101_2 1_555 1_555
Mn22 O37 1_555 1_555
C65_2 C63_2 1_555 1_555
H61_2 C65_2 1_555 1_555
C67_2 C65_2 1_555 1_555
H63_2 C67_2 1_555 1_555
C69_2 C67_2 1_555 1_555
C71_2 C69_2 1_555 1_555
H65_2 C71_2 1_555 1_555
C73_2 C63_2 1_555 1_555
H67_2 C73_2 1_555 1_555
C75_2 C69_2 1_555 1_555
O35 C75_2 1_555 1_555
O39 C75_2 1_555 1_555
C71_2 C73_2 1_555 1_555
C141_2 C139_2 1_555 1_555
H125_2 C141_2 1_555 1_555
C143_2 C141_2 1_555 1_555
H127_2 C143_2 1_555 1_555
C145_2 C143_2 1_555 1_555
C147_2 C145_2 1_555 1_555
H129_2 C147_2 1_555 1_555
C149_2 C139_2 1_555 1_555
H131_2 C149_2 1_555 1_555
C151_2 C145_2 1_555 1_555
O23 C151_2 1_555 1_555
O25 C151_2 1_555 1_555
Mn10 O25 1_555 1_555
Mn18 O23 1_555 1_555
C147_2 C149_2 1_555 1_555
Mn10 O3_2 1_555 1_555
Mn18 O8_2 1_555 1_555
C20_2 C12_2 1_555 1_555
H18_2 C20_2 1_555 1_555
H19_2 C20_2 1_555 1_555
H20_2 C20_2 1_555 1_555
C27_2 C8_2 1_555 1_555
C31_2 C27_2 1_555 1_555
H35_2 C31_2 1_555 1_555
C35_2 C31_2 1_555 1_555
H39_2 C35_2 1_555 1_555
C39_2 C35_2 1_555 1_555
C43_2 C39_2 1_555 1_555
H43_2 C43_2 1_555 1_555
C47_2 C27_2 1_555 1_555
C51_2 C39_2 1_555 1_555
O3_2 C51_2 1_555 1_555
C83_2 C81_2 1_555 1_555
H72_2 C83_2 1_555 1_555
H73_2 C83_2 1_555 1_555
H74_2 C83_2 1_555 1_555
C84_2 C80_2 1_555 1_555
C85_2 C84_2 1_555 1_555
H75_2 C85_2 1_555 1_555
C86_2 C85_2 1_555 1_555
H76_2 C86_2 1_555 1_555
C87_2 C86_2 1_555 1_555
C88_2 C87_2 1_555 1_555
H77_2 C88_2 1_555 1_555
C89_2 C84_2 1_555 1_555
C90_2 C87_2 1_555 1_555
O29 C90_2 1_555 1_555
O33 C90_2 1_555 1_555
Mn9 N19_2 1_555 1_555
C103_2 H89_2 1_555 1_555
H90_2 C103_2 1_555 1_555
C104_2 H91_2 1_555 1_555
H92_2 C104_2 1_555 1_555
N17_2 C103_2 1_555 1_555
N18_2 C104_2 1_555 1_555
N19_2 N17_2 1_555 1_555
N20_2 Mn18 1_555 1_555
C105_2 N19_2 1_555 1_555
C106_2 N20_2 1_555 1_555
C108_2 C106_2 1_555 1_555
C109_2 N17_2 1_555 1_555
C110_2 N18_2 1_555 1_555
C111_2 C105_2 1_555 1_555
H93_2 C111_2 1_555 1_555
H95_2 C111_2 1_555 1_555
C112_2 C106_2 1_555 1_555
H96_2 C112_2 1_555 1_555
H97_2 C112_2 1_555 1_555
H98_2 C112_2 1_555 1_555
C114_2 C110_2 1_555 1_555
H102_2 C114_2 1_555 1_555
H103_2 C114_2 1_555 1_555
H104_2 C114_2 1_555 1_555
C116_2 C108_2 1_555 1_555
C118_2 C116_2 1_555 1_555
H106_2 C118_2 1_555 1_555
C120_2 C118_2 1_555 1_555
H108_2 C120_2 1_555 1_555
C121_2 C120_2 1_555 1_555
C124_2 C121_2 1_555 1_555
H110_2 C124_2 1_555 1_555
C126_2 C116_2 1_555 1_555
H112_2 C126_2 1_555 1_555
C128_2 C121_2 1_555 1_555
O20_2 Mn9 1_555 1_555
O22_2 C128_2 1_555 1_555
N21_2 C103_2 1_555 1_555
N22_2 C104_2 1_555 1_555
N23_2 Mn9 1_555 1_555
N24_2 Mn18 1_555 1_555
C129_2 N23_2 1_555 1_555
C131_2 C129_2 1_555 1_555
C133_2 N21_2 1_555 1_555
C135_2 C129_2 1_555 1_555
H113_2 C135_2 1_555 1_555
H114_2 C135_2 1_555 1_555
H115_2 C135_2 1_555 1_555
C137_2 C133_2 1_555 1_555
H120_2 C137_2 1_555 1_555
H121_2 C137_2 1_555 1_555
C8_2 C12_2 1_555 1_555
C43_2 C47_2 1_555 1_555
C51_2 O7_2 1_555 1_555
C80_2 C81_2 1_555 1_555
C88_2 C89_2 1_555 1_555
N18_2 N20_2 1_555 1_555
C108_2 C110_2 1_555 1_555
C124_2 C126_2 1_555 1_555
C128_2 O20_2 1_555 1_555
N21_2 N23_2 1_555 1_555
N22_2 N24_2 1_555 1_555
C131_2 C133_2 1_555 1_555
H25_2 C22_2 1_555 1_555
H26_2 C22_2 1_555 1_555
C25_2 C10_2 1_555 1_555
C29_2 C25_2 1_555 1_555
H33_2 C29_2 1_555 1_555
C33_2 C29_2 1_555 1_555
H37_2 C33_2 1_555 1_555
C38_2 C33_2 1_555 1_555
C41_2 C38_2 1_555 1_555
H41_2 C41_2 1_555 1_555
C45_2 C25_2 1_555 1_555
H45_2 C45_2 1_555 1_555
C49_2 C38_2 1_555 1_555
O27 C49_2 1_555 1_555
O31 C49_2 1_555 1_555
C56_2 C54_2 1_555 1_555
C60_2 C54_2 1_555 1_555
H52_2 C60_2 1_555 1_555
H54_2 C60_2 1_555 1_555
C62_2 C58_2 1_555 1_555
H58_2 C62_2 1_555 1_555
H59_2 C62_2 1_555 1_555
H60_2 C62_2 1_555 1_555
C64_2 C56_2 1_555 1_555
C66_2 C64_2 1_555 1_555
H62_2 C66_2 1_555 1_555
C68_2 C66_2 1_555 1_555
H64_2 C68_2 1_555 1_555
C70_2 C68_2 1_555 1_555
C72_2 C70_2 1_555 1_555
H66_2 C72_2 1_555 1_555
C74_2 C64_2 1_555 1_555
H68_2 C74_2 1_555 1_555
C76_2 C70_2 1_555 1_555
O37 C76_2 1_555 1_555
O12_2 C76_2 1_555 1_555
C41_2 C45_2 1_555 1_555
C56_2 C58_2 1_555 1_555
C72_2 C74_2 1_555 1_555
C3_2 H5_2 1_555 1_555
H6_2 C3_2 1_555 1_555
N1_2 C3_2 1_555 1_555
Cu1_2 N4_2 1_555 1_555
N4_2 N1_2 1_555 1_555
C5_2 N4_2 1_555 1_555
C16_2 C5_2 1_555 1_555
H9_2 C16_2 1_555 1_555
H10_2 C16_2 1_555 1_555
H11_2 C16_2 1_555 1_555
C77_2 Cu1_2 1_555 1_555
O13_2 C77_2 1_555 1_555
N13_2 C3_2 1_555 1_555
N14_2 Cu1_2 1_555 1_555
C79_2 N14_2 1_555 1_555
C82_2 C79_2 1_555 1_555
H69_2 C82_2 1_555 1_555
H70_2 C82_2 1_555 1_555
H71_2 C82_2 1_555 1_555
N13_2 N14_2 1_555 1_555

#END
