
###############################################################################
#
# This file contains modified crystal structure data generated from the
# MOF subset of the Cambridge Structural Database (CSD) v543 
# hosted by the Cambridge Crystallographic Data Centre (CCDC).
#
# This work is licensed under the Creative Commons
# Attribution-NonCommercial-ShareAlike 4.0 International License.
# To view a copy of this license, visit
# http://creativecommons.org/licenses/by-nc-sa/4.0/
# or send a letter to
# Creative Commons, PO Box 1866, Mountain View, CA 94042, USA.
#
# CIF created using the CSD Python API on 29 September 2022
# The structure has been converted into the P1 space group
# The structure has a 3D framework
# The original CSD entry EWUMAN is in the monoclinic crystal system
# The framework has been calculated to contain at least 10.0% void space
# The void calculation uses a probe of radius 1.32A, grid spacing 0.4
#
###############################################################################

data_EWUMAN
_chemical_formula_moiety         '(C328 H296 B4 Cu4 F16 Mn12 N48 O46)n'
_symmetry_cell_setting           triclinic
_symmetry_space_group_name_H-M   'P 1'
_symmetry_Int_Tables_number      1
_space_group_name_Hall           'P 1'
loop_
_symmetry_equiv_pos_site_id
_symmetry_equiv_pos_as_xyz
1 x,y,z
_cell_length_a                   12.367(3)
_cell_length_b                   34.582(7)
_cell_length_c                   25.915(5)
_cell_angle_alpha                90
_cell_angle_beta                 97.89(3)
_cell_angle_gamma                90
_cell_volume                     10978.3
loop_
_atom_site_label
_atom_site_type_symbol
_atom_site_fract_x
_atom_site_fract_y
_atom_site_fract_z
C40 C 0.0182(2) 0.42468(8) 0.80776(9)
C43 C 0.1037(2) 0.40314(8) 0.83647(9)
C46 C 0.0533(2) 0.37981(7) 0.86949(9)
C49 C 0.0244(2) 0.45419(9) 0.76628(11)
H38 H 0.087302 0.448665 0.748217
H39 H 0.032619 0.479951 0.782085
C52 C 0.1017(2) 0.35212(8) 0.91077(10)
H46 H 0.072942 0.357721 0.943388
H47 H 0.181266 0.354918 0.916166
H48 H 0.082390 0.325600 0.899778
C55 C 0.2209(2) 0.40611(8) 0.83307(10)
C58 C 0.2695(2) 0.44311(8) 0.83500(10)
H55 H 0.226396 0.465286 0.839398
C61 C 0.3780(2) 0.44751(8) 0.83061(10)
H58 H 0.409525 0.472617 0.832705
C64 C 0.4434(2) 0.41518(8) 0.82303(10)
C67 C 0.3958(2) 0.37844(8) 0.82237(11)
H61 H 0.439216 0.356240 0.818573
C70 C 0.2866(2) 0.37395(8) 0.82714(11)
H64 H 0.255899 0.348743 0.826393
C73 C 0.5574(2) 0.42139(8) 0.81334(9)
O7 O 0.62345(16) 0.39385(6) 0.81353(7)
O10 O 0.58800(15) 0.45615(5) 0.80572(7)
Mn6 Mn 0.53672(3) 0.50517(2) 0.75176(2)
Mn8 Mn 0.76163(3) 0.44582(2) 0.80708(2)
Mn1 Mn 0.46328(3) 0.49483(2) 0.24824(2)
C2 C 0.2349(2) 0.64824(7) 0.63449(9)
H3 H 0.295112 0.652876 0.663177
H4 H 0.212355 0.673521 0.618614
Mn2 Mn 0.23837(3) 0.55418(2) 0.19292(2)
Mn3 Mn 0.67531(3) 0.43182(2) 0.30336(2)
N2 N 0.27358(17) 0.62347(6) 0.59551(7)
N5 N 0.32041(17) 0.58885(6) 0.61107(8)
C5 C 0.3442(2) 0.57187(7) 0.56809(9)
C8 C 0.3110(2) 0.59552(7) 0.52391(9)
C11 C 0.2670(2) 0.62818(8) 0.54318(9)
C12 C 0.0054(2) 0.29749(8) 0.10022(10)
C14 C 0.3956(3) 0.53290(8) 0.57022(11)
H10 H 0.474136 0.535566 0.569229
H11 H 0.362845 0.517564 0.540289
H12 H 0.383491 0.519895 0.602538
C16 C 0.8707(3) 0.37260(9) 0.00588(10)
H17 H 0.844664 0.374034 0.039872
H18 H 0.949957 0.376533 0.010365
C17 C 0.2255(3) 0.66477(9) 0.51665(11)
H19 H 0.145650 0.665450 0.513814
H20 H 0.247389 0.665784 0.481741
H21 H 0.256172 0.687025 0.537023
C18 C 0.0784(3) 0.29637(9) 0.05903(11)
H22 H 0.131409 0.275336 0.066447
H23 H 0.117255 0.321039 0.058510
H24 H 0.034678 0.291986 0.025055
C19 C 0.7230(2) 0.44419(8) 0.03335(9)
C20 C 0.3150(2) 0.58557(7) 0.46884(9)
C21 C 0.0600(2) 0.36039(8) 0.15029(10)
C22 C 0.6146(2) 0.44627(8) 0.03954(10)
H25 H 0.560603 0.445449 0.009708
C23 C 0.4043(2) 0.56689(8) 0.45283(9)
H26 H 0.467399 0.562229 0.477376
C24 C 0.1725(2) 0.36067(8) 0.16512(10)
H27 H 0.212163 0.337087 0.166524
C25 C 0.5825(2) 0.44958(8) 0.08885(9)
H28 H 0.507259 0.451534 0.092508
C26 C 0.4029(2) 0.55502(8) 0.40189(9)
H29 H 0.464360 0.541905 0.391986
C27 C 0.2269(2) 0.39507(8) 0.17787(10)
H30 H 0.303643 0.394888 0.188193
C28 C 0.6619(2) 0.45000(7) 0.13299(9)
C29 C 0.3123(2) 0.56206(7) 0.36483(9)
C30 C 0.1701(2) 0.43000(8) 0.17567(9)
C31 C 0.7707(2) 0.44995(8) 0.12651(10)
H31 H 0.824938 0.451497 0.156189
C32 C 0.2235(2) 0.58128(9) 0.37977(10)
H32 H 0.161732 0.586631 0.354752
C33 C 0.0582(2) 0.42997(8) 0.15970(10)
H33 H 0.018991 0.453672 0.156784
C34 C 0.8020(2) 0.44766(8) 0.07727(10)
H34 H 0.877220 0.448453 0.073302
C35 C 0.2243(2) 0.59279(9) 0.43104(10)
H35 H 0.162508 0.605772 0.440835
C36 C 0.0035(2) 0.39527(8) 0.14796(11)
C37 C 0.6263(2) 0.45071(8) 0.18638(9)
C38 C 0.3126(2) 0.54824(7) 0.30981(9)
C39 C 0.2283(2) 0.46704(7) 0.19152(9)
O1 O 0.69298(16) 0.43659(6) 0.22327(7)
O2 O 0.38087(16) 0.52275(6) 0.30342(7)
O3 O 0.32471(15) 0.46433(6) 0.21225(7)
O4 O 0.53663(16) 0.46519(6) 0.19005(7)
O5 O 0.24451(15) 0.56318(6) 0.27449(6)
O6 O 0.17493(15) 0.49830(5) 0.18311(7)
N8 N 0.14328(17) 0.63075(6) 0.65537(8)
N11 N 0.16369(17) 0.59828(6) 0.68510(8)
C41 C 0.0659(2) 0.58589(8) 0.69483(9)
C45 C 0.0193(2) 0.15056(8) 0.14031(11)
C47 C 0.0352(2) 0.63919(7) 0.64659(10)
C48 C 0.0134(2) 0.17547(8) 0.09795(11)
C50 C 0.0560(2) 0.54953(8) 0.72444(10)
H40 H 0.046866 0.527637 0.700229
H42 H 0.122186 0.545763 0.749442
H49 H 0.006062 0.696445 0.632346
H51 H 0.022971 0.672508 0.581211
C54 C 0.0787(3) 0.17621(10) 0.05400(12)
H52 H 0.029614 0.177111 0.020957
H53 H 0.123956 0.152876 0.055043
H54 H 0.125782 0.199128 0.056983
C57 C 0.0944(2) 0.11710(8) 0.15094(11)
C60 C 0.0751(2) 0.08231(8) 0.12443(11)
H57 H 0.014662 0.080286 0.097686
C63 C 0.1421(2) 0.05056(8) 0.13615(10)
H60 H 0.126308 0.026843 0.118195
C66 C 0.2332(2) 0.05344(8) 0.17449(10)
C69 C 0.2550(2) 0.08845(8) 0.19991(11)
H63 H 0.317825 0.090861 0.225243
C72 C 0.1865(2) 0.11997(8) 0.18895(11)
H66 H 0.201859 0.143577 0.207225
C75 C 0.3027(2) 0.01851(8) 0.18983(9)
O12 O 0.39074(16) 0.02381(6) 0.21870(7)
Mn11 Mn 0.32469(3) 0.56818(2) 0.69664(2)
N13 N 0.23374(18) 0.56476(6) 0.10450(8)
N14 N 0.67959(17) 0.41115(6) 0.38893(8)
N15 N 0.07808(17) 0.58516(6) 0.17830(8)
N16 N 0.83631(17) 0.40172(6) 0.31490(8)
O13 O 0.53223(15) 0.38254(6) 0.29421(7)
O14 O 0.73477(15) 0.48631(5) 0.32712(7)
O15 O 0.41200(15) 0.54385(5) 0.19428(7)
O16 O 0.50371(14) 0.44507(5) 0.30236(7)
O17 O 0.60926(16) 0.52381(6) 0.28130(7)
C1 C 0.8568(2) 0.37421(7) 0.88587(9)
H1 H 0.881106 0.351390 0.907462
H2 H 0.794921 0.366138 0.859748
N1 N 0.82033(17) 0.40411(6) 0.91885(8)
N4 N 0.76626(18) 0.43524(6) 0.89550(8)
C4 C 0.7267(2) 0.45439(8) 0.93370(9)
C7 C 0.7563(2) 0.43515(8) 0.98197(9)
C10 C 0.8162(2) 0.40334(8) 0.97081(9)
C13 C 0.6622(3) 0.49066(9) 0.92332(10)
H7 H 0.699009 0.507756 0.901104
H8 H 0.656065 0.503706 0.956362
H9 H 0.589107 0.484342 0.905673
H16 H 0.853311 0.347133 0.990357
N7 N 0.94522(17) 0.38737(6) 0.85941(8)
N10 N 0.92192(17) 0.41484(6) 0.82170(8)
H37 H 0.957371 0.453333 0.741288
O9 O 0.26523(15) 0.98631(5) 0.17288(7)
Mn4 Mn 0.53672(3) 0.99483(2) 0.25176(2)
Mn9 Mn 0.32469(3) 0.93182(2) 0.19664(2)
C3 C 0.8990(2) 0.23582(8) 0.07452(11)
H5 H 0.934286 0.236432 0.042467
H6 H 0.819015 0.235047 0.064026
Cu1 Cu 0.78741(3) 0.23385(2) 0.17123(2)
N3 N 0.9277(2) 0.27059(6) 0.10467(9)
N6 N 0.8698(2) 0.27868(7) 0.14476(10)
C6 C 0.9125(3) 0.31156(8) 0.16545(11)
C9 C 0.9972(2) 0.32444(8) 0.13886(10)
C15 C 0.8718(3) 0.32970(10) 0.21171(13)
H13 H 0.806346 0.345029 0.200036
H14 H 0.928539 0.346518 0.229791
H15 H 0.853853 0.309393 0.235516
H36 H 0.926591 0.395380 0.138239
N9 N 0.9333(2) 0.20126(7) 0.10416(9)
N12 N 0.8879(2) 0.19433(7) 0.14860(9)
C42 C 0.9418(2) 0.16352(8) 0.17096(12)
C44 C 0.9825(2) 0.61098(7) 0.67227(9)
H41 H 0.992547 0.551233 0.743177
C51 C 0.9168(3) 0.14859(9) 0.22216(13)
H43 H 0.870822 0.167296 0.237466
H44 H 0.985020 0.144829 0.245717
H45 H 0.878103 0.123874 0.216869
C53 C 0.9898(2) 0.67212(9) 0.61346(12)
H50 H 0.910595 0.669090 0.605012
C56 C 0.8653(2) 0.60727(8) 0.67604(9)
C59 C 0.8150(2) 0.57097(8) 0.66876(10)
H56 H 0.855798 0.549589 0.658865
C62 C 0.7073(2) 0.56572(8) 0.67570(10)
H59 H 0.675031 0.540834 0.670742
C65 C 0.6454(2) 0.59677(8) 0.68998(9)
C68 C 0.6937(2) 0.63327(8) 0.69577(11)
H62 H 0.651924 0.654889 0.704088
C71 C 0.8024(2) 0.63810(8) 0.68941(11)
H65 H 0.834693 0.662996 0.694297
C74 C 0.5303(2) 0.59001(8) 0.69891(9)
O8 O 0.46777(15) 0.61746(6) 0.70579(7)
O11 O 0.49629(14) 0.55493(5) 0.69764(7)
C76 C 0.6267(3) 0.18511(11) 0.21521(15)
C77 C 0.6244(3) 0.21971(12) 0.18429(15)
H67 H 0.600805 0.218451 0.147862
C78 C 0.6561(3) 0.25465(12) 0.20702(18)
H68 H 0.651359 0.277564 0.186621
C79 C 0.6961(4) 0.25631(13) 0.26141(18)
H69 H 0.718217 0.280176 0.277691
C80 C 0.7017(4) 0.22270(15) 0.28941(18)
H70 H 0.732167 0.222996 0.325115
C81 C 0.6639(3) 0.18840(12) 0.26661(16)
H71 H 0.663984 0.166058 0.287943
C82 C 0.5870(4) 0.14784(13) 0.19106(18)
H72 H 0.623651 0.126356 0.211014
H73 H 0.603248 0.146797 0.155122
H74 H 0.507997 0.145797 0.191127
C44_2 C 0.0175(2) 0.11098(7) 0.82773(9)
H41_2 H 0.007453 0.051233 0.756823
C53_2 C 0.0102(2) 0.17212(9) 0.88654(12)
H50_2 H 0.089405 0.169090 0.894988
C56_2 C 0.1347(2) 0.10727(8) 0.82396(9)
C59_2 C 0.1850(2) 0.07097(8) 0.83124(10)
H56_2 H 0.144202 0.049589 0.841135
C62_2 C 0.2927(2) 0.06572(8) 0.82430(10)
H59_2 H 0.324969 0.040834 0.829258
C65_2 C 0.3546(2) 0.09677(8) 0.81002(9)
C68_2 C 0.3063(2) 0.13327(8) 0.80423(11)
H62_2 H 0.348076 0.154889 0.795912
C71_2 C 0.1976(2) 0.13810(8) 0.81059(11)
H65_2 H 0.165307 0.162996 0.805703
C74_2 C 0.4697(2) 0.09001(8) 0.80109(9)
O8_2 O 0.53223(15) 0.11746(6) 0.79421(7)
O11_2 O 0.50371(14) 0.05493(5) 0.80236(7)
Mn5 Mn 0.46328(3) 0.00517(2) 0.74824(2)
Mn10 Mn 0.67531(3) 0.06818(2) 0.80336(2)
Mn2_2 Mn 0.76163(3) 0.05418(2) 0.30708(2)
H7_2 H 0.300991 0.007756 0.598896
H8_2 H 0.343935 0.003706 0.543638
H20_2 H 0.752611 0.165784 0.018259
C20_2 C 0.6850(2) 0.08557(7) 0.03116(9)
C23_2 C 0.5957(2) 0.06689(8) 0.04717(9)
H26_2 H 0.532601 0.062229 0.022624
C26_2 C 0.5971(2) 0.05502(8) 0.09811(9)
H29_2 H 0.535640 0.041905 0.108014
C29_2 C 0.6877(2) 0.06206(7) 0.13517(9)
C32_2 C 0.7765(2) 0.08128(9) 0.12023(10)
H32_2 H 0.838268 0.086631 0.145248
C35_2 C 0.7757(2) 0.09279(9) 0.06896(10)
H35_2 H 0.837492 0.105772 0.059165
C38_2 C 0.6874(2) 0.04824(7) 0.19019(9)
O2_2 O 0.61913(16) 0.02275(6) 0.19658(7)
O5_2 O 0.75549(15) 0.06318(6) 0.22551(6)
N13_2 N 0.76626(18) 0.06476(6) 0.39550(8)
N15_2 N 0.92192(17) 0.08516(6) 0.32170(8)
O15_2 O 0.58800(15) 0.04385(5) 0.30572(7)
C2_2 C 0.7651(2) 0.14824(7) 0.86551(9)
H3_2 H 0.704888 0.152876 0.836823
H4_2 H 0.787645 0.173521 0.881386
N2_2 N 0.72642(17) 0.12347(6) 0.90449(7)
N5_2 N 0.67959(17) 0.08885(6) 0.88893(8)
C5_2 C 0.6558(2) 0.07187(7) 0.93191(9)
C8_2 C 0.6890(2) 0.09552(7) 0.97609(9)
C11_2 C 0.7330(2) 0.12818(8) 0.95682(9)
C14_2 C 0.6044(3) 0.03290(8) 0.92978(11)
H10_2 H 0.525864 0.035566 0.930771
H11_2 H 0.637155 0.017564 0.959711
H12_2 H 0.616509 0.019895 0.897462
C17_2 C 0.7745(3) 0.16477(9) 0.98335(11)
H19_2 H 0.854350 0.165450 0.986186
H21_2 H 0.743828 0.187025 0.962977
N8_2 N 0.85672(17) 0.13075(6) 0.84463(8)
N11_2 N 0.83631(17) 0.09828(6) 0.81490(8)
C41_2 C 0.9341(2) 0.08589(8) 0.80517(9)
C47_2 C 0.9648(2) 0.13919(7) 0.85341(10)
C50_2 C 0.9440(2) 0.04953(8) 0.77556(10)
H40_2 H 0.953134 0.027637 0.799771
H42_2 H 0.877814 0.045763 0.750558
H49_2 H 0.993938 0.196445 0.867654
H51_2 H 0.977029 0.172508 0.918789
C1_2 C 0.1432(2) 0.87421(7) 0.61413(9)
H1_2 H 0.118894 0.851390 0.592538
H2_2 H 0.205079 0.866138 0.640252
N1_2 N 0.17967(17) 0.90411(6) 0.58115(8)
N4_2 N 0.23374(18) 0.93524(6) 0.60450(8)
C4_2 C 0.2733(2) 0.95439(8) 0.56630(9)
C7_2 C 0.2437(2) 0.93515(8) 0.51803(9)
C10_2 C 0.1838(2) 0.90334(8) 0.52919(9)
C12_2 C 0.9946(2) 0.79749(8) 0.39978(10)
C13_2 C 0.3378(3) 0.99066(9) 0.57668(10)
H9_2 H 0.410893 0.984342 0.594327
C16_2 C 0.1293(3) 0.87260(9) 0.49412(10)
H16_2 H 0.146689 0.847133 0.509643
H17_2 H 0.155336 0.874034 0.460128
H18_2 H 0.050043 0.876533 0.489635
C18_2 C 0.9216(3) 0.79637(9) 0.44097(11)
H22_2 H 0.868591 0.775336 0.433553
H23_2 H 0.882745 0.821039 0.441490
H24_2 H 0.965322 0.791986 0.474945
C19_2 C 0.2770(2) 0.94419(8) 0.46665(9)
C21_2 C 0.9400(2) 0.86039(8) 0.34971(10)
C22_2 C 0.3854(2) 0.94627(8) 0.46046(10)
H25_2 H 0.439397 0.945449 0.490292
C24_2 C 0.8275(2) 0.86067(8) 0.33488(10)
H27_2 H 0.787837 0.837087 0.333476
C25_2 C 0.4175(2) 0.94958(8) 0.41115(9)
H28_2 H 0.492741 0.951534 0.407492
C27_2 C 0.7731(2) 0.89507(8) 0.32213(10)
H30_2 H 0.696357 0.894888 0.311807
C28_2 C 0.3381(2) 0.95000(7) 0.36701(9)
C30_2 C 0.8299(2) 0.93000(8) 0.32433(9)
C31_2 C 0.2293(2) 0.94995(8) 0.37349(10)
H31_2 H 0.175062 0.951497 0.343811
C33_2 C 0.9418(2) 0.92997(8) 0.34030(10)
H33_2 H 0.981009 0.953672 0.343216
C34_2 C 0.1980(2) 0.94766(8) 0.42273(10)
H34_2 H 0.122780 0.948453 0.426698
C36_2 C 0.9965(2) 0.89527(8) 0.35204(11)
C37_2 C 0.3737(2) 0.95071(8) 0.31362(9)
C39_2 C 0.7717(2) 0.96704(7) 0.30848(9)
O1_2 O 0.30702(16) 0.93659(6) 0.27673(7)
O3_2 O 0.67529(15) 0.96433(6) 0.28775(7)
O4_2 O 0.46337(16) 0.96519(6) 0.30995(7)
O6_2 O 0.82507(15) 0.99830(5) 0.31689(7)
N7_2 N 0.05478(17) 0.88737(6) 0.64059(8)
N10_2 N 0.07808(17) 0.91484(6) 0.67830(8)
C45_2 C 0.9807(2) 0.65056(8) 0.35969(11)
C48_2 C 0.9866(2) 0.67547(8) 0.40205(11)
H37_2 H 0.042629 0.953333 0.758712
C54_2 C 0.9213(3) 0.67621(10) 0.44600(12)
H52_2 H 0.970386 0.677111 0.479043
H53_2 H 0.876044 0.652876 0.444957
H54_2 H 0.874218 0.699128 0.443017
C57_2 C 0.9056(2) 0.61710(8) 0.34906(11)
C60_2 C 0.9249(2) 0.58231(8) 0.37557(11)
H57_2 H 0.985338 0.580286 0.402314
C63_2 C 0.8579(2) 0.55056(8) 0.36385(10)
H60_2 H 0.873692 0.526843 0.381805
C66_2 C 0.7668(2) 0.55344(8) 0.32551(10)
C69_2 C 0.7450(2) 0.58845(8) 0.30009(11)
H63_2 H 0.682175 0.590861 0.274757
C72_2 C 0.8135(2) 0.61997(8) 0.31105(11)
H66_2 H 0.798141 0.643577 0.292775
C75_2 C 0.6973(2) 0.51851(8) 0.31017(9)
Mn7 Mn 0.23837(3) 0.94582(2) 0.69292(2)
N14_2 N 0.32041(17) 0.91115(6) 0.11107(8)
N16_2 N 0.16369(17) 0.90172(6) 0.18510(8)
O13_2 O 0.46777(15) 0.88254(6) 0.20579(7)
O16_2 O 0.49629(14) 0.94507(5) 0.19764(7)
C40_2 C 0.9818(2) 0.92468(8) 0.69224(9)
C43_2 C 0.8963(2) 0.90314(8) 0.66353(9)
C46_2 C 0.9467(2) 0.87981(7) 0.63051(9)
C49_2 C 0.9756(2) 0.95419(9) 0.73372(11)
H38_2 H 0.912698 0.948665 0.751783
H39_2 H 0.967381 0.979951 0.717915
C52_2 C 0.8983(2) 0.85212(8) 0.58923(10)
H46_2 H 0.927058 0.857721 0.556612
H47_2 H 0.818734 0.854918 0.583834
H48_2 H 0.917610 0.825600 0.600222
C55_2 C 0.7791(2) 0.90611(8) 0.66693(10)
C58_2 C 0.7305(2) 0.94311(8) 0.66500(10)
H55_2 H 0.773604 0.965286 0.660602
C61_2 C 0.6220(2) 0.94751(8) 0.66939(10)
H58_2 H 0.590475 0.972617 0.667295
C64_2 C 0.5566(2) 0.91518(8) 0.67697(10)
C67_2 C 0.6042(2) 0.87844(8) 0.67763(11)
H61_2 H 0.560784 0.856240 0.681427
C70_2 C 0.7134(2) 0.87395(8) 0.67286(11)
H64_2 H 0.744101 0.848743 0.673607
C73_2 C 0.4426(2) 0.92139(8) 0.68666(9)
O7_2 O 0.37655(16) 0.89385(6) 0.68647(7)
O10_2 O 0.41200(15) 0.95615(5) 0.69428(7)
C3_2 C 0.1010(2) 0.76418(8) 0.92548(11)
H5_2 H 0.065714 0.763568 0.957533
H6_2 H 0.180985 0.764953 0.935974
Cu1_2 Cu 0.21259(3) 0.76615(2) 0.82877(2)
N3_2 N 0.0723(2) 0.72941(6) 0.89533(9)
N6_2 N 0.1302(2) 0.72132(7) 0.85524(10)
C6_2 C 0.0875(3) 0.68844(8) 0.83455(11)
C9_2 C 0.0028(2) 0.67556(8) 0.86114(10)
C15_2 C 0.1282(3) 0.67030(10) 0.78829(13)
H13_2 H 0.193654 0.654971 0.799964
H14_2 H 0.071461 0.653482 0.770209
H15_2 H 0.146147 0.690607 0.764484
H36_2 H 0.073409 0.604620 0.861761
N9_2 N 0.0667(2) 0.79874(7) 0.89584(9)
N12_2 N 0.1121(2) 0.80567(7) 0.85140(9)
C42_2 C 0.0582(2) 0.83648(8) 0.82904(12)
C44_3 C 0.0175(2) 0.38902(7) 0.32773(9)
H41_3 H 0.007453 0.448767 0.256823
C51_2 C 0.0832(3) 0.85141(9) 0.77784(13)
H43_2 H 0.129178 0.832704 0.762534
H44_2 H 0.014980 0.855171 0.754283
H45_2 H 0.121897 0.876126 0.783131
C53_3 C 0.0102(2) 0.32788(9) 0.38654(12)
H50_3 H 0.089405 0.330910 0.394988
C56_3 C 0.1347(2) 0.39273(8) 0.32396(9)
C59_3 C 0.1850(2) 0.42903(8) 0.33124(10)
H56_3 H 0.144202 0.450411 0.341135
C62_3 C 0.2927(2) 0.43428(8) 0.32430(10)
H59_3 H 0.324969 0.459166 0.329258
C65_3 C 0.3546(2) 0.40323(8) 0.31002(9)
C68_3 C 0.3063(2) 0.36673(8) 0.30423(11)
H62_3 H 0.348076 0.345111 0.295912
C71_3 C 0.1976(2) 0.36190(8) 0.31059(11)
H65_3 H 0.165307 0.337004 0.305703
C74_3 C 0.4697(2) 0.40999(8) 0.30109(9)
C76_2 C 0.3733(3) 0.81489(11) 0.78479(15)
C77_2 C 0.3756(3) 0.78029(12) 0.81571(15)
H67_2 H 0.399195 0.781549 0.852138
C78_2 C 0.3439(3) 0.74535(12) 0.79298(18)
H68_2 H 0.348641 0.722436 0.813379
C79_2 C 0.3039(4) 0.74369(13) 0.73859(18)
H69_2 H 0.281783 0.719824 0.722309
C80_2 C 0.2983(4) 0.77730(15) 0.71059(18)
H70_2 H 0.267833 0.777004 0.674885
C81_2 C 0.3361(3) 0.81160(12) 0.73339(16)
H71_2 H 0.336016 0.833942 0.712057
C82_2 C 0.4130(4) 0.85216(13) 0.80894(18)
H72_2 H 0.376349 0.873644 0.788986
H73_2 H 0.396752 0.853203 0.844878
H74_2 H 0.492003 0.854203 0.808873
O9_2 O 0.73477(15) 0.01369(5) 0.82712(7)
C1_3 C 0.1432(2) 0.62579(7) 0.11413(9)
H1_3 H 0.118894 0.648610 0.092538
H2_3 H 0.205079 0.633862 0.140252
N1_3 N 0.17967(17) 0.59589(6) 0.08115(8)
C4_3 C 0.2733(2) 0.54561(8) 0.06630(9)
C7_3 C 0.2437(2) 0.56485(8) 0.01803(9)
C10_3 C 0.1838(2) 0.59666(8) 0.02919(9)
C13_3 C 0.3378(3) 0.50934(9) 0.07668(10)
H7_3 H 0.300991 0.492244 0.098896
H8_3 H 0.343935 0.496294 0.043638
H9_3 H 0.410893 0.515658 0.094327
H16_3 H 0.146689 0.652867 0.009643
N7_3 N 0.05478(17) 0.61263(6) 0.14059(8)
H37_3 H 0.042629 0.546667 0.258712
C2_3 C 0.7651(2) 0.35176(7) 0.36551(9)
H3_3 H 0.704888 0.347124 0.336823
H4_3 H 0.787645 0.326479 0.381386
N2_3 N 0.72642(17) 0.37653(6) 0.40449(7)
C5_3 C 0.6558(2) 0.42813(7) 0.43191(9)
C8_3 C 0.6890(2) 0.40448(7) 0.47609(9)
C11_3 C 0.7330(2) 0.37182(8) 0.45682(9)
C12_3 C 0.9946(2) 0.70251(8) 0.89978(10)
C14_3 C 0.6044(3) 0.46710(8) 0.42978(11)
H10_3 H 0.525864 0.464434 0.430771
H11_3 H 0.637155 0.482436 0.459711
H12_3 H 0.616509 0.480105 0.397462
C16_3 C 0.1293(3) 0.62740(9) 0.99412(10)
H17_3 H 0.155336 0.625966 0.960128
H18_3 H 0.050043 0.623467 0.989635
C17_3 C 0.7745(3) 0.33523(9) 0.48335(11)
H19_3 H 0.854350 0.334550 0.486186
H20_3 H 0.752611 0.334216 0.518259
H21_3 H 0.743828 0.312975 0.462977
C18_3 C 0.9216(3) 0.70363(9) 0.94097(11)
H22_3 H 0.868591 0.724664 0.933553
H23_3 H 0.882745 0.678961 0.941490
H24_3 H 0.965322 0.708014 0.974945
C19_3 C 0.2770(2) 0.55581(8) 0.96665(9)
C20_3 C 0.6850(2) 0.41443(7) 0.53116(9)
C21_3 C 0.9400(2) 0.63961(8) 0.84971(10)
C22_3 C 0.3854(2) 0.55373(8) 0.96046(10)
H25_3 H 0.439397 0.554551 0.990292
C23_3 C 0.5957(2) 0.43311(8) 0.54717(9)
H26_3 H 0.532601 0.437771 0.522624
C24_3 C 0.8275(2) 0.63933(8) 0.83488(10)
H27_3 H 0.787837 0.662913 0.833476
C25_3 C 0.4175(2) 0.55042(8) 0.91115(9)
H28_3 H 0.492741 0.548466 0.907492
C26_3 C 0.5971(2) 0.44498(8) 0.59811(9)
H29_3 H 0.535640 0.458095 0.608014
C27_3 C 0.7731(2) 0.60493(8) 0.82213(10)
H30_3 H 0.696357 0.605112 0.811807
C28_3 C 0.3381(2) 0.55000(7) 0.86701(9)
C29_3 C 0.6877(2) 0.43794(7) 0.63517(9)
C30_3 C 0.8299(2) 0.57000(8) 0.82433(9)
C31_3 C 0.2293(2) 0.55005(8) 0.87349(10)
H31_3 H 0.175062 0.548503 0.843811
C32_3 C 0.7765(2) 0.41872(9) 0.62023(10)
H32_3 H 0.838268 0.413369 0.645248
C33_3 C 0.9418(2) 0.57003(8) 0.84030(10)
H33_3 H 0.981009 0.546328 0.843216
C34_3 C 0.1980(2) 0.55234(8) 0.92273(10)
H34_3 H 0.122780 0.551547 0.926698
C35_3 C 0.7757(2) 0.40721(9) 0.56896(10)
H35_3 H 0.837492 0.394228 0.559165
C36_3 C 0.9965(2) 0.60473(8) 0.85204(11)
C37_3 C 0.3737(2) 0.54929(8) 0.81362(9)
C38_3 C 0.6874(2) 0.45176(7) 0.69019(9)
C39_3 C 0.7717(2) 0.53296(7) 0.80848(9)
O1_3 O 0.30702(16) 0.56341(6) 0.77673(7)
O2_3 O 0.61913(16) 0.47725(6) 0.69658(7)
O3_3 O 0.67529(15) 0.53567(6) 0.78775(7)
O4_3 O 0.46337(16) 0.53481(6) 0.80995(7)
O5_3 O 0.75549(15) 0.43682(6) 0.72551(6)
O6_3 O 0.82507(15) 0.50170(5) 0.81689(7)
N8_3 N 0.85672(17) 0.36925(6) 0.34463(8)
C41_3 C 0.9341(2) 0.41411(8) 0.30517(9)
C45_3 C 0.9807(2) 0.84944(8) 0.85969(11)
C47_3 C 0.9648(2) 0.36081(7) 0.35341(10)
C48_3 C 0.9866(2) 0.82453(8) 0.90205(11)
C50_3 C 0.9440(2) 0.45047(8) 0.27556(10)
H40_3 H 0.953134 0.472363 0.299771
H42_3 H 0.877814 0.454237 0.250558
H49_3 H 0.993938 0.303555 0.367654
H51_3 H 0.977029 0.327492 0.418789
C54_3 C 0.9213(3) 0.82379(10) 0.94600(12)
H52_3 H 0.970386 0.822889 0.979043
H53_3 H 0.876044 0.847124 0.944957
H54_3 H 0.874218 0.800872 0.943017
C57_3 C 0.9056(2) 0.88290(8) 0.84906(11)
C60_3 C 0.9249(2) 0.91769(8) 0.87557(11)
H57_3 H 0.985338 0.919714 0.902314
C63_3 C 0.8579(2) 0.94944(8) 0.86385(10)
H60_3 H 0.873692 0.973157 0.881805
C66_3 C 0.7668(2) 0.94656(8) 0.82551(10)
C69_3 C 0.7450(2) 0.91155(8) 0.80009(11)
H63_3 H 0.682175 0.909139 0.774757
C72_3 C 0.8135(2) 0.88003(8) 0.81105(11)
H66_3 H 0.798141 0.856423 0.792775
C75_3 C 0.6973(2) 0.98149(8) 0.81017(9)
O12_2 O 0.60926(16) 0.97619(6) 0.78130(7)
O14_2 O 0.26523(15) 0.51369(5) 0.67288(7)
O17_2 O 0.39074(16) 0.47619(6) 0.71870(7)
C40_3 C 0.9818(2) 0.57532(8) 0.19224(9)
C43_3 C 0.8963(2) 0.59686(8) 0.16353(9)
C46_3 C 0.9467(2) 0.62019(7) 0.13051(9)
C49_3 C 0.9756(2) 0.54581(9) 0.23372(11)
H38_3 H 0.912698 0.551335 0.251783
H39_3 H 0.967381 0.520049 0.217915
C52_3 C 0.8983(2) 0.64788(8) 0.08923(10)
H46_3 H 0.927058 0.642279 0.056612
H47_3 H 0.818734 0.645082 0.083834
H48_3 H 0.917610 0.674400 0.100222
C55_3 C 0.7791(2) 0.59389(8) 0.16693(10)
C58_3 C 0.7305(2) 0.55689(8) 0.16500(10)
H55_3 H 0.773604 0.534714 0.160602
C61_3 C 0.6220(2) 0.55249(8) 0.16939(10)
H58_3 H 0.590475 0.527383 0.167295
C64_3 C 0.5566(2) 0.58482(8) 0.17697(10)
C67_3 C 0.6042(2) 0.62156(8) 0.17763(11)
H61_3 H 0.560784 0.643760 0.181427
C70_3 C 0.7134(2) 0.62605(8) 0.17286(11)
H64_3 H 0.744101 0.651257 0.173607
C73_3 C 0.4426(2) 0.57861(8) 0.18666(9)
O7_3 O 0.37655(16) 0.60615(6) 0.18647(7)
C40_4 C 0.0182(2) 0.07532(8) 0.30776(9)
C43_4 C 0.1037(2) 0.09686(8) 0.33647(9)
C46_4 C 0.0533(2) 0.12019(7) 0.36949(9)
C49_4 C 0.0244(2) 0.04581(9) 0.26628(11)
H38_4 H 0.087302 0.051335 0.248217
H39_4 H 0.032619 0.020049 0.282085
C52_4 C 0.1017(2) 0.14788(8) 0.41077(10)
H46_4 H 0.072942 0.142279 0.443388
H47_4 H 0.181266 0.145082 0.416166
H48_4 H 0.082390 0.174400 0.399778
C55_4 C 0.2209(2) 0.09389(8) 0.33307(10)
C58_4 C 0.2695(2) 0.05689(8) 0.33500(10)
H55_4 H 0.226396 0.034714 0.339398
C61_4 C 0.3780(2) 0.05249(8) 0.33061(10)
H58_4 H 0.409525 0.027383 0.332705
C64_4 C 0.4434(2) 0.08482(8) 0.32303(10)
C67_4 C 0.3958(2) 0.12156(8) 0.32237(11)
H61_4 H 0.439216 0.143760 0.318573
C70_4 C 0.2866(2) 0.12605(8) 0.32714(11)
H64_4 H 0.255899 0.151257 0.326393
C73_4 C 0.5574(2) 0.07861(8) 0.31334(9)
O7_4 O 0.62345(16) 0.10615(6) 0.31353(7)
C1_4 C 0.8568(2) 0.12579(7) 0.38587(9)
H1_4 H 0.881106 0.148610 0.407462
H2_4 H 0.794921 0.133862 0.359748
N1_4 N 0.82033(17) 0.09589(6) 0.41885(8)
C4_4 C 0.7267(2) 0.04561(8) 0.43370(9)
C7_4 C 0.7563(2) 0.06485(8) 0.48197(9)
C10_4 C 0.8162(2) 0.09666(8) 0.47081(9)
C12_4 C 0.0054(2) 0.20251(8) 0.60022(10)
C13_4 C 0.6622(3) 0.00934(9) 0.42332(10)
H9_4 H 0.589107 0.015658 0.405673
C16_4 C 0.8707(3) 0.12740(9) 0.50588(10)
H16_4 H 0.853311 0.152867 0.490357
H17_4 H 0.844664 0.125966 0.539872
H18_4 H 0.949957 0.123467 0.510365
C18_4 C 0.0784(3) 0.20363(9) 0.55903(11)
H22_4 H 0.131409 0.224664 0.566447
H23_4 H 0.117255 0.178961 0.558510
H24_4 H 0.034678 0.208014 0.525055
C19_4 C 0.7230(2) 0.05581(8) 0.53335(9)
C21_4 C 0.0600(2) 0.13961(8) 0.65029(10)
C22_4 C 0.6146(2) 0.05373(8) 0.53954(10)
H25_4 H 0.560603 0.054551 0.509708
C24_4 C 0.1725(2) 0.13933(8) 0.66512(10)
H27_4 H 0.212163 0.162913 0.666524
C25_4 C 0.5825(2) 0.05042(8) 0.58885(9)
H28_4 H 0.507259 0.048466 0.592508
C27_4 C 0.2269(2) 0.10493(8) 0.67787(10)
H30_4 H 0.303643 0.105112 0.688193
C28_4 C 0.6619(2) 0.05000(7) 0.63299(9)
C30_4 C 0.1701(2) 0.07000(8) 0.67567(9)
C31_4 C 0.7707(2) 0.05005(8) 0.62651(10)
H31_4 H 0.824938 0.048503 0.656189
C33_4 C 0.0582(2) 0.07003(8) 0.65970(10)
H33_4 H 0.018991 0.046328 0.656784
C34_4 C 0.8020(2) 0.05234(8) 0.57727(10)
H34_4 H 0.877220 0.051547 0.573302
C36_4 C 0.0035(2) 0.10473(8) 0.64796(11)
C37_4 C 0.6263(2) 0.04929(8) 0.68638(9)
C39_4 C 0.2283(2) 0.03296(7) 0.69152(9)
O1_4 O 0.69298(16) 0.06341(6) 0.72327(7)
O3_4 O 0.32471(15) 0.03567(6) 0.71225(7)
O4_4 O 0.53663(16) 0.03481(6) 0.69005(7)
O6_4 O 0.17493(15) 0.00170(5) 0.68311(7)
N7_4 N 0.94522(17) 0.11263(6) 0.35941(8)
C45_4 C 0.0193(2) 0.34944(8) 0.64031(11)
C48_4 C 0.0134(2) 0.32453(8) 0.59795(11)
H37_4 H 0.957371 0.046667 0.241288
C54_4 C 0.0787(3) 0.32379(10) 0.55400(12)
H52_4 H 0.029614 0.322889 0.520957
H53_4 H 0.123956 0.347124 0.555043
H54_4 H 0.125782 0.300872 0.556983
C57_4 C 0.0944(2) 0.38290(8) 0.65094(11)
C60_4 C 0.0751(2) 0.41769(8) 0.62443(11)
H57_4 H 0.014662 0.419714 0.597686
C63_4 C 0.1421(2) 0.44944(8) 0.63615(10)
H60_4 H 0.126308 0.473157 0.618195
C66_4 C 0.2332(2) 0.44656(8) 0.67449(10)
C69_4 C 0.2550(2) 0.41155(8) 0.69991(11)
H63_4 H 0.317825 0.409139 0.725243
C72_4 C 0.1865(2) 0.38003(8) 0.68895(11)
H66_4 H 0.201859 0.356423 0.707225
C75_4 C 0.3027(2) 0.48149(8) 0.68983(9)
C2_4 C 0.2349(2) 0.85176(7) 0.13449(9)
H3_4 H 0.295112 0.847124 0.163177
H4_4 H 0.212355 0.826479 0.118614
N2_4 N 0.27358(17) 0.87653(6) 0.09551(7)
C5_4 C 0.3442(2) 0.92813(7) 0.06809(9)
C8_4 C 0.3110(2) 0.90448(7) 0.02391(9)
C11_4 C 0.2670(2) 0.87182(8) 0.04318(9)
C14_4 C 0.3956(3) 0.96710(8) 0.07022(11)
H10_4 H 0.474136 0.964434 0.069229
H11_4 H 0.362845 0.982436 0.040289
H12_4 H 0.383491 0.980105 0.102538
C17_4 C 0.2255(3) 0.83523(9) 0.01665(11)
H19_4 H 0.145650 0.834550 0.013814
H21_4 H 0.256172 0.812975 0.037023
N8_4 N 0.14328(17) 0.86925(6) 0.15537(8)
C41_4 C 0.0659(2) 0.91411(8) 0.19483(9)
C47_4 C 0.0352(2) 0.86081(7) 0.14659(10)
C50_4 C 0.0560(2) 0.95047(8) 0.22444(10)
H40_4 H 0.046866 0.972363 0.200229
H42_4 H 0.122186 0.954237 0.249442
H49_4 H 0.006062 0.803555 0.132346
H51_4 H 0.022971 0.827492 0.081211
H7_4 H 0.699009 0.992244 0.401104
H8_4 H 0.656065 0.996294 0.456362
H20_4 H 0.247389 0.834216 0.981741
C20_4 C 0.3150(2) 0.91443(7) 0.96884(9)
C23_4 C 0.4043(2) 0.93311(8) 0.95283(9)
H26_4 H 0.467399 0.937771 0.977376
C26_4 C 0.4029(2) 0.94498(8) 0.90189(9)
H29_4 H 0.464360 0.958095 0.891986
C29_4 C 0.3123(2) 0.93794(7) 0.86483(9)
C32_4 C 0.2235(2) 0.91872(9) 0.87977(10)
H32_4 H 0.161732 0.913369 0.854752
C35_4 C 0.2243(2) 0.90721(9) 0.93104(10)
H35_4 H 0.162508 0.894228 0.940835
C38_4 C 0.3126(2) 0.95176(7) 0.80981(9)
O2_4 O 0.38087(16) 0.97725(6) 0.80342(7)
O5_4 O 0.24451(15) 0.93682(6) 0.77449(6)
C44_4 C 0.9825(2) 0.88902(7) 0.17227(9)
H41_4 H 0.992547 0.948767 0.243177
C53_4 C 0.9898(2) 0.82788(9) 0.11346(12)
H50_4 H 0.910595 0.830910 0.105012
C56_4 C 0.8653(2) 0.89273(8) 0.17604(9)
C59_4 C 0.8150(2) 0.92903(8) 0.16876(10)
H56_4 H 0.855798 0.950411 0.158865
C62_4 C 0.7073(2) 0.93428(8) 0.17570(10)
H59_4 H 0.675031 0.959166 0.170742
C65_4 C 0.6454(2) 0.90323(8) 0.18998(9)
C68_4 C 0.6937(2) 0.86673(8) 0.19577(11)
H62_4 H 0.651924 0.845111 0.204088
C71_4 C 0.8024(2) 0.86190(8) 0.18941(11)
H65_4 H 0.834693 0.837004 0.194297
C74_4 C 0.5303(2) 0.90999(8) 0.19891(9)
C3_3 C 0.1010(2) 0.73582(8) 0.42548(11)
H5_3 H 0.065714 0.736432 0.457533
H6_3 H 0.180985 0.735047 0.435974
Cu1_3 Cu 0.21259(3) 0.73385(2) 0.32877(2)
N3_3 N 0.0723(2) 0.77059(6) 0.39533(9)
N6_3 N 0.1302(2) 0.77868(7) 0.35524(10)
C6_3 C 0.0875(3) 0.81156(8) 0.33455(11)
C9_3 C 0.0028(2) 0.82444(8) 0.36114(10)
C15_3 C 0.1282(3) 0.82970(10) 0.28829(13)
H13_3 H 0.193654 0.845029 0.299964
H14_3 H 0.071461 0.846518 0.270209
H15_3 H 0.146147 0.809393 0.264484
H36_3 H 0.073409 0.895380 0.361761
N9_3 N 0.0667(2) 0.70126(7) 0.39584(9)
N12_3 N 0.1121(2) 0.69433(7) 0.35140(9)
C42_3 C 0.0582(2) 0.66352(8) 0.32904(12)
C51_3 C 0.0832(3) 0.64859(9) 0.27784(13)
H43_3 H 0.129178 0.667296 0.262534
H44_3 H 0.014980 0.644829 0.254283
H45_3 H 0.121897 0.623874 0.283131
C76_3 C 0.3733(3) 0.68511(11) 0.28479(15)
C77_3 C 0.3756(3) 0.71971(12) 0.31571(15)
H67_3 H 0.399195 0.718451 0.352138
C78_3 C 0.3439(3) 0.75465(12) 0.29298(18)
H68_3 H 0.348641 0.777564 0.313379
C79_3 C 0.3039(4) 0.75631(13) 0.23859(18)
H69_3 H 0.281783 0.780176 0.222309
C80_3 C 0.2983(4) 0.72270(15) 0.21059(18)
H70_3 H 0.267833 0.722996 0.174885
C81_3 C 0.3361(3) 0.68840(12) 0.23339(16)
H71_3 H 0.336016 0.666058 0.212057
C82_3 C 0.4130(4) 0.64784(13) 0.30894(18)
H72_3 H 0.376349 0.626356 0.288986
H73_3 H 0.396752 0.646797 0.344878
H74_3 H 0.492003 0.645797 0.308873
C3_4 C 0.8990(2) 0.26418(8) 0.57452(11)
H5_4 H 0.934286 0.263568 0.542467
H6_4 H 0.819015 0.264953 0.564026
Cu1_4 Cu 0.78741(3) 0.26615(2) 0.67123(2)
N3_4 N 0.9277(2) 0.22941(6) 0.60467(9)
N6_4 N 0.8698(2) 0.22132(7) 0.64476(10)
C6_4 C 0.9125(3) 0.18844(8) 0.66545(11)
C9_4 C 0.9972(2) 0.17556(8) 0.63886(10)
C15_4 C 0.8718(3) 0.17030(10) 0.71171(13)
H13_4 H 0.806346 0.154971 0.700036
H14_4 H 0.928539 0.153482 0.729791
H15_4 H 0.853853 0.190607 0.735516
H36_4 H 0.926591 0.104620 0.638239
N9_4 N 0.9333(2) 0.29874(7) 0.60416(9)
N12_4 N 0.8879(2) 0.30567(7) 0.64860(9)
C42_4 C 0.9418(2) 0.33648(8) 0.67096(12)
C51_4 C 0.9168(3) 0.35141(9) 0.72216(13)
H43_4 H 0.870822 0.332704 0.737466
H44_4 H 0.985020 0.355171 0.745717
H45_4 H 0.878103 0.376126 0.716869
C76_4 C 0.6267(3) 0.31489(11) 0.71521(15)
C77_4 C 0.6244(3) 0.28029(12) 0.68429(15)
H67_4 H 0.600805 0.281549 0.647862
C78_4 C 0.6561(3) 0.24535(12) 0.70702(18)
H68_4 H 0.651359 0.222436 0.686621
C79_4 C 0.6961(4) 0.24369(13) 0.76141(18)
H69_4 H 0.718217 0.219824 0.777691
C80_4 C 0.7017(4) 0.27730(15) 0.78941(18)
H70_4 H 0.732167 0.277004 0.825115
C81_4 C 0.6639(3) 0.31160(12) 0.76661(16)
H71_4 H 0.663984 0.333942 0.787943
C82_4 C 0.5870(4) 0.35216(13) 0.69106(18)
H72_4 H 0.623651 0.373644 0.711014
H73_4 H 0.603248 0.353203 0.655122
H74_4 H 0.507997 0.354203 0.691127
B1 B 0.8756(3) 0.26013(11) 0.93275(16)
F1 F 0.9143(2) 0.28673(7) 0.90039(13)
F2 F 0.96117(18) 0.23913(6) 0.95959(8)
F3 F 0.8209(3) 0.27854(10) 0.96892(11)
F4 F 0.80563(18) 0.23540(5) 0.90273(8)
B1_2 B 0.1244(3) 0.76013(11) 0.56725(16)
F1_2 F 0.0857(2) 0.78673(7) 0.59961(13)
F2_2 F 0.03883(18) 0.73913(6) 0.54041(8)
F3_2 F 0.1791(3) 0.77854(10) 0.53108(11)
F4_2 F 0.19437(18) 0.73540(5) 0.59727(8)
B1_3 B 0.1244(3) 0.73987(11) 0.06725(16)
F1_3 F 0.0857(2) 0.71327(7) 0.09961(13)
F2_3 F 0.03883(18) 0.76087(6) 0.04041(8)
F3_3 F 0.1791(3) 0.72146(10) 0.03108(11)
F4_3 F 0.19437(18) 0.76460(5) 0.09727(8)
B1_4 B 0.8756(3) 0.23987(11) 0.43275(16)
F1_4 F 0.9143(2) 0.21327(7) 0.40039(13)
F2_4 F 0.96117(18) 0.26087(6) 0.45959(8)
F3_4 F 0.8209(3) 0.22146(10) 0.46892(11)
F4_4 F 0.80563(18) 0.26460(5) 0.40273(8)
loop_
_geom_bond_atom_site_label_1
_geom_bond_atom_site_label_2
_geom_bond_site_symmetry_1
_geom_bond_site_symmetry_2
C43 C40 1_555 1_555
C49 C40 1_555 1_555
H38 C49 1_555 1_555
H39 C49 1_555 1_555
C52 C46 1_555 1_555
H46 C52 1_555 1_555
H47 C52 1_555 1_555
H48 C52 1_555 1_555
C55 C43 1_555 1_555
C58 C55 1_555 1_555
H55 C58 1_555 1_555
C61 C58 1_555 1_555
H58 C61 1_555 1_555
C64 C61 1_555 1_555
C67 C64 1_555 1_555
H61 C67 1_555 1_555
C70 C55 1_555 1_555
H64 C70 1_555 1_555
C73 C64 1_555 1_555
O7 C73 1_555 1_555
O10 C73 1_555 1_555
Mn6 O10 1_555 1_555
Mn8 O10 1_555 1_555
C43 C46 1_555 1_555
C67 C70 1_555 1_555
Mn1 O2 1_555 1_555
C2 H3 1_555 1_555
H4 C2 1_555 1_555
Mn2 O5 1_555 1_555
Mn3 O1 1_555 1_555
N2 C2 1_555 1_555
N5 N2 1_555 1_555
C5 N5 1_555 1_555
C8 C5 1_555 1_555
C11 N2 1_555 1_555
C14 C5 1_555 1_555
H10 C14 1_555 1_555
H11 C14 1_555 1_555
H12 C14 1_555 1_555
H17 C16 1_555 1_555
H18 C16 1_555 1_555
C17 C11 1_555 1_555
H19 C17 1_555 1_555
H20 C17 1_555 1_555
H21 C17 1_555 1_555
C18 C12 1_555 1_555
H22 C18 1_555 1_555
H23 C18 1_555 1_555
H24 C18 1_555 1_555
C20 C8 1_555 1_555
C22 C19 1_555 1_555
H25 C22 1_555 1_555
C23 C20 1_555 1_555
H26 C23 1_555 1_555
C24 C21 1_555 1_555
H27 C24 1_555 1_555
C25 C22 1_555 1_555
H28 C25 1_555 1_555
C26 C23 1_555 1_555
H29 C26 1_555 1_555
C27 C24 1_555 1_555
H30 C27 1_555 1_555
C28 C25 1_555 1_555
C29 C26 1_555 1_555
C30 C27 1_555 1_555
C31 C28 1_555 1_555
H31 C31 1_555 1_555
C32 C29 1_555 1_555
H32 C32 1_555 1_555
C33 C30 1_555 1_555
H33 C33 1_555 1_555
C34 C19 1_555 1_555
H34 C34 1_555 1_555
C35 C20 1_555 1_555
H35 C35 1_555 1_555
C36 C21 1_555 1_555
C37 C28 1_555 1_555
C38 C29 1_555 1_555
C39 C30 1_555 1_555
O1 C37 1_555 1_555
O2 C38 1_555 1_555
O3 Mn1 1_555 1_555
O4 Mn1 1_555 1_555
O5 C38 1_555 1_555
O6 Mn2 1_555 1_555
N8 C2 1_555 1_555
N11 N8 1_555 1_555
C41 N11 1_555 1_555
C47 N8 1_555 1_555
C50 C41 1_555 1_555
H40 C50 1_555 1_555
H42 C50 1_555 1_555
C54 C48 1_555 1_555
H52 C54 1_555 1_555
H53 C54 1_555 1_555
H54 C54 1_555 1_555
C57 C45 1_555 1_555
C60 C57 1_555 1_555
H57 C60 1_555 1_555
C63 C60 1_555 1_555
H60 C63 1_555 1_555
C66 C63 1_555 1_555
C69 C66 1_555 1_555
H63 C69 1_555 1_555
C72 C57 1_555 1_555
H66 C72 1_555 1_555
C75 C66 1_555 1_555
O12 C75 1_555 1_555
Mn11 N5 1_555 1_555
N13 Mn2 1_555 1_555
N14 Mn3 1_555 1_555
N15 Mn2 1_555 1_555
N16 Mn3 1_555 1_555
O13 Mn3 1_555 1_555
O14 Mn3 1_555 1_555
O15 Mn1 1_555 1_555
O16 Mn1 1_555 1_555
O17 Mn1 1_555 1_555
Mn2 O15 1_555 1_555
Mn3 O16 1_555 1_555
C8 C11 1_555 1_555
C31 C34 1_555 1_555
C32 C35 1_555 1_555
C33 C36 1_555 1_555
C37 O4 1_555 1_555
C39 O3 1_555 1_555
C39 O6 1_555 1_555
N11 Mn11 1_555 1_555
C45 C48 1_555 1_555
C69 C72 1_555 1_555
C1 H1 1_555 1_555
H2 C1 1_555 1_555
N1 C1 1_555 1_555
N4 N1 1_555 1_555
C4 N4 1_555 1_555
C7 C4 1_555 1_555
C10 N1 1_555 1_555
C13 C4 1_555 1_555
H7 C13 1_555 1_555
H8 C13 1_555 1_555
H9 C13 1_555 1_555
N7 C1 1_555 1_555
N10 N7 1_555 1_555
Mn8 N4 1_555 1_555
C7 C10 1_555 1_555
N10 Mn8 1_555 1_555
Mn9 O9 1_555 1_555
C3 H5 1_555 1_555
H6 C3 1_555 1_555
Cu1 N6 1_555 1_555
N3 C3 1_555 1_555
N6 N3 1_555 1_555
C6 N6 1_555 1_555
C9 C6 1_555 1_555
C15 C6 1_555 1_555
H13 C15 1_555 1_555
H14 C15 1_555 1_555
H15 C15 1_555 1_555
N9 C3 1_555 1_555
N12 Cu1 1_555 1_555
C42 N12 1_555 1_555
C51 C42 1_555 1_555
H43 C51 1_555 1_555
H44 C51 1_555 1_555
H45 C51 1_555 1_555
H50 C53 1_555 1_555
C56 C44 1_555 1_555
C59 C56 1_555 1_555
H56 C59 1_555 1_555
C62 C59 1_555 1_555
H59 C62 1_555 1_555
C65 C62 1_555 1_555
C68 C65 1_555 1_555
H62 C68 1_555 1_555
C71 C56 1_555 1_555
H65 C71 1_555 1_555
C74 C65 1_555 1_555
O8 C74 1_555 1_555
O11 C74 1_555 1_555
C76 C77 1_555 1_555
C77 Cu1 1_555 1_555
H67 C77 1_555 1_555
C78 Cu1 1_555 1_555
H68 C78 1_555 1_555
C79 C78 1_555 1_555
H69 C79 1_555 1_555
C80 C79 1_555 1_555
H70 C80 1_555 1_555
C81 C76 1_555 1_555
H71 C81 1_555 1_555
C82 C76 1_555 1_555
H72 C82 1_555 1_555
H73 C82 1_555 1_555
H74 C82 1_555 1_555
Mn6 O11 1_555 1_555
Mn11 O8 1_555 1_555
N9 N12 1_555 1_555
C68 C71 1_555 1_555
O11 Mn11 1_555 1_555
C77 C78 1_555 1_555
C80 C81 1_555 1_555
H50_2 C53_2 1_555 1_555
C56_2 C44_2 1_555 1_555
C59_2 C56_2 1_555 1_555
H56_2 C59_2 1_555 1_555
C62_2 C59_2 1_555 1_555
H59_2 C62_2 1_555 1_555
C65_2 C62_2 1_555 1_555
C68_2 C65_2 1_555 1_555
H62_2 C68_2 1_555 1_555
C71_2 C56_2 1_555 1_555
H65_2 C71_2 1_555 1_555
C74_2 C65_2 1_555 1_555
O8_2 C74_2 1_555 1_555
O11_2 C74_2 1_555 1_555
Mn5 O11_2 1_555 1_555
Mn10 O8_2 1_555 1_555
C68_2 C71_2 1_555 1_555
O11_2 Mn10 1_555 1_555
Mn2_2 O5_2 1_555 1_555
C23_2 C20_2 1_555 1_555
H26_2 C23_2 1_555 1_555
C26_2 C23_2 1_555 1_555
H29_2 C26_2 1_555 1_555
C29_2 C26_2 1_555 1_555
C32_2 C29_2 1_555 1_555
H32_2 C32_2 1_555 1_555
C35_2 C20_2 1_555 1_555
H35_2 C35_2 1_555 1_555
C38_2 C29_2 1_555 1_555
O2_2 C38_2 1_555 1_555
O5_2 C38_2 1_555 1_555
N13_2 Mn2_2 1_555 1_555
N15_2 Mn2_2 1_555 1_555
Mn2_2 O15_2 1_555 1_555
C32_2 C35_2 1_555 1_555
C2_2 H3_2 1_555 1_555
H4_2 C2_2 1_555 1_555
N2_2 C2_2 1_555 1_555
N5_2 N2_2 1_555 1_555
C5_2 N5_2 1_555 1_555
C8_2 C5_2 1_555 1_555
C11_2 N2_2 1_555 1_555
C14_2 C5_2 1_555 1_555
H10_2 C14_2 1_555 1_555
H11_2 C14_2 1_555 1_555
H12_2 C14_2 1_555 1_555
C17_2 C11_2 1_555 1_555
H19_2 C17_2 1_555 1_555
H21_2 C17_2 1_555 1_555
N8_2 C2_2 1_555 1_555
N11_2 N8_2 1_555 1_555
C41_2 N11_2 1_555 1_555
C47_2 N8_2 1_555 1_555
C50_2 C41_2 1_555 1_555
H40_2 C50_2 1_555 1_555
H42_2 C50_2 1_555 1_555
Mn10 N5_2 1_555 1_555
C8_2 C11_2 1_555 1_555
N11_2 Mn10 1_555 1_555
C1_2 H1_2 1_555 1_555
H2_2 C1_2 1_555 1_555
Mn9 O1_2 1_555 1_555
N1_2 C1_2 1_555 1_555
N4_2 N1_2 1_555 1_555
C4_2 N4_2 1_555 1_555
C7_2 C4_2 1_555 1_555
C10_2 N1_2 1_555 1_555
C13_2 C4_2 1_555 1_555
H9_2 C13_2 1_555 1_555
C16_2 C10_2 1_555 1_555
H16_2 C16_2 1_555 1_555
H17_2 C16_2 1_555 1_555
H18_2 C16_2 1_555 1_555
C18_2 C12_2 1_555 1_555
H22_2 C18_2 1_555 1_555
H23_2 C18_2 1_555 1_555
H24_2 C18_2 1_555 1_555
C19_2 C7_2 1_555 1_555
C22_2 C19_2 1_555 1_555
H25_2 C22_2 1_555 1_555
C24_2 C21_2 1_555 1_555
H27_2 C24_2 1_555 1_555
C25_2 C22_2 1_555 1_555
H28_2 C25_2 1_555 1_555
C27_2 C24_2 1_555 1_555
H30_2 C27_2 1_555 1_555
C28_2 C25_2 1_555 1_555
C30_2 C27_2 1_555 1_555
C31_2 C28_2 1_555 1_555
H31_2 C31_2 1_555 1_555
C33_2 C30_2 1_555 1_555
H33_2 C33_2 1_555 1_555
C34_2 C19_2 1_555 1_555
H34_2 C34_2 1_555 1_555
C36_2 C21_2 1_555 1_555
C37_2 C28_2 1_555 1_555
C39_2 C30_2 1_555 1_555
O1_2 C37_2 1_555 1_555
O3_2 Mn4 1_555 1_555
O4_2 Mn4 1_555 1_555
N7_2 C1_2 1_555 1_555
N10_2 N7_2 1_555 1_555
C54_2 C48_2 1_555 1_555
H52_2 C54_2 1_555 1_555
H53_2 C54_2 1_555 1_555
H54_2 C54_2 1_555 1_555
C57_2 C45_2 1_555 1_555
C60_2 C57_2 1_555 1_555
H57_2 C60_2 1_555 1_555
C63_2 C60_2 1_555 1_555
H60_2 C63_2 1_555 1_555
C66_2 C63_2 1_555 1_555
C69_2 C66_2 1_555 1_555
H63_2 C69_2 1_555 1_555
C72_2 C57_2 1_555 1_555
H66_2 C72_2 1_555 1_555
C75_2 C66_2 1_555 1_555
O14 C75_2 1_555 1_555
O17 C75_2 1_555 1_555
Mn7 N4_2 1_555 1_555
N14_2 Mn9 1_555 1_555
N16_2 Mn9 1_555 1_555
O13_2 Mn9 1_555 1_555
O16_2 Mn4 1_555 1_555
Mn9 O16_2 1_555 1_555
C7_2 C10_2 1_555 1_555
C31_2 C34_2 1_555 1_555
C33_2 C36_2 1_555 1_555
C37_2 O4_2 1_555 1_555
C39_2 O3_2 1_555 1_555
C39_2 O6_2 1_555 1_555
N10_2 Mn7 1_555 1_555
C45_2 C48_2 1_555 1_555
C69_2 C72_2 1_555 1_555
C43_2 C40_2 1_555 1_555
C49_2 C40_2 1_555 1_555
H38_2 C49_2 1_555 1_555
H39_2 C49_2 1_555 1_555
C52_2 C46_2 1_555 1_555
H46_2 C52_2 1_555 1_555
H47_2 C52_2 1_555 1_555
H48_2 C52_2 1_555 1_555
C55_2 C43_2 1_555 1_555
C58_2 C55_2 1_555 1_555
H55_2 C58_2 1_555 1_555
C61_2 C58_2 1_555 1_555
H58_2 C61_2 1_555 1_555
C64_2 C61_2 1_555 1_555
C67_2 C64_2 1_555 1_555
H61_2 C67_2 1_555 1_555
C70_2 C55_2 1_555 1_555
H64_2 C70_2 1_555 1_555
C73_2 C64_2 1_555 1_555
O7_2 C73_2 1_555 1_555
O10_2 C73_2 1_555 1_555
Mn7 O10_2 1_555 1_555
C43_2 C46_2 1_555 1_555
C67_2 C70_2 1_555 1_555
C3_2 H5_2 1_555 1_555
H6_2 C3_2 1_555 1_555
Cu1_2 N6_2 1_555 1_555
N3_2 C3_2 1_555 1_555
N6_2 N3_2 1_555 1_555
C6_2 N6_2 1_555 1_555
C9_2 C6_2 1_555 1_555
C15_2 C6_2 1_555 1_555
H13_2 C15_2 1_555 1_555
H14_2 C15_2 1_555 1_555
H15_2 C15_2 1_555 1_555
N9_2 C3_2 1_555 1_555
N12_2 Cu1_2 1_555 1_555
C42_2 N12_2 1_555 1_555
C51_2 C42_2 1_555 1_555
H43_2 C51_2 1_555 1_555
H44_2 C51_2 1_555 1_555
H45_2 C51_2 1_555 1_555
H50_3 C53_3 1_555 1_555
C56_3 C44_3 1_555 1_555
C59_3 C56_3 1_555 1_555
H56_3 C59_3 1_555 1_555
C62_3 C59_3 1_555 1_555
H59_3 C62_3 1_555 1_555
C65_3 C62_3 1_555 1_555
C68_3 C65_3 1_555 1_555
H62_3 C68_3 1_555 1_555
C71_3 C56_3 1_555 1_555
H65_3 C71_3 1_555 1_555
C74_3 C65_3 1_555 1_555
O13 C74_3 1_555 1_555
O16 C74_3 1_555 1_555
C76_2 C77_2 1_555 1_555
C77_2 Cu1_2 1_555 1_555
H67_2 C77_2 1_555 1_555
C78_2 Cu1_2 1_555 1_555
H68_2 C78_2 1_555 1_555
C79_2 C78_2 1_555 1_555
H69_2 C79_2 1_555 1_555
C80_2 C79_2 1_555 1_555
H70_2 C80_2 1_555 1_555
C81_2 C76_2 1_555 1_555
H71_2 C81_2 1_555 1_555
C82_2 C76_2 1_555 1_555
H72_2 C82_2 1_555 1_555
H73_2 C82_2 1_555 1_555
H74_2 C82_2 1_555 1_555
N9_2 N12_2 1_555 1_555
C68_3 C71_3 1_555 1_555
C77_2 C78_2 1_555 1_555
C80_2 C81_2 1_555 1_555
Mn10 O9_2 1_555 1_555
C1_3 H1_3 1_555 1_555
H2_3 C1_3 1_555 1_555
N1_3 C1_3 1_555 1_555
N13 N1_3 1_555 1_555
C4_3 N13 1_555 1_555
C7_3 C4_3 1_555 1_555
C10_3 N1_3 1_555 1_555
C13_3 C4_3 1_555 1_555
H7_3 C13_3 1_555 1_555
H8_3 C13_3 1_555 1_555
H9_3 C13_3 1_555 1_555
N7_3 C1_3 1_555 1_555
N15 N7_3 1_555 1_555
C7_3 C10_3 1_555 1_555
Mn6 O2_3 1_555 1_555
C2_3 H3_3 1_555 1_555
H4_3 C2_3 1_555 1_555
Mn8 O5_3 1_555 1_555
Mn11 O1_3 1_555 1_555
N2_3 C2_3 1_555 1_555
N14 N2_3 1_555 1_555
C5_3 N14 1_555 1_555
C8_3 C5_3 1_555 1_555
C11_3 N2_3 1_555 1_555
C14_3 C5_3 1_555 1_555
H10_3 C14_3 1_555 1_555
H11_3 C14_3 1_555 1_555
H12_3 C14_3 1_555 1_555
H17_3 C16_3 1_555 1_555
H18_3 C16_3 1_555 1_555
C17_3 C11_3 1_555 1_555
H19_3 C17_3 1_555 1_555
H20_3 C17_3 1_555 1_555
H21_3 C17_3 1_555 1_555
C18_3 C12_3 1_555 1_555
H22_3 C18_3 1_555 1_555
H23_3 C18_3 1_555 1_555
H24_3 C18_3 1_555 1_555
C20_3 C8_3 1_555 1_555
C22_3 C19_3 1_555 1_555
H25_3 C22_3 1_555 1_555
C23_3 C20_3 1_555 1_555
H26_3 C23_3 1_555 1_555
C24_3 C21_3 1_555 1_555
H27_3 C24_3 1_555 1_555
C25_3 C22_3 1_555 1_555
H28_3 C25_3 1_555 1_555
C26_3 C23_3 1_555 1_555
H29_3 C26_3 1_555 1_555
C27_3 C24_3 1_555 1_555
H30_3 C27_3 1_555 1_555
C28_3 C25_3 1_555 1_555
C29_3 C26_3 1_555 1_555
C30_3 C27_3 1_555 1_555
C31_3 C28_3 1_555 1_555
H31_3 C31_3 1_555 1_555
C32_3 C29_3 1_555 1_555
H32_3 C32_3 1_555 1_555
C33_3 C30_3 1_555 1_555
H33_3 C33_3 1_555 1_555
C34_3 C19_3 1_555 1_555
H34_3 C34_3 1_555 1_555
C35_3 C20_3 1_555 1_555
H35_3 C35_3 1_555 1_555
C36_3 C21_3 1_555 1_555
C37_3 C28_3 1_555 1_555
C38_3 C29_3 1_555 1_555
C39_3 C30_3 1_555 1_555
O1_3 C37_3 1_555 1_555
O2_3 C38_3 1_555 1_555
O3_3 Mn6 1_555 1_555
O4_3 Mn6 1_555 1_555
O5_3 C38_3 1_555 1_555
O6_3 Mn8 1_555 1_555
N8_3 C2_3 1_555 1_555
N16 N8_3 1_555 1_555
C41_3 N16 1_555 1_555
C47_3 N8_3 1_555 1_555
C50_3 C41_3 1_555 1_555
H40_3 C50_3 1_555 1_555
H42_3 C50_3 1_555 1_555
C54_3 C48_3 1_555 1_555
H52_3 C54_3 1_555 1_555
H53_3 C54_3 1_555 1_555
H54_3 C54_3 1_555 1_555
C57_3 C45_3 1_555 1_555
C60_3 C57_3 1_555 1_555
H57_3 C60_3 1_555 1_555
C63_3 C60_3 1_555 1_555
H60_3 C63_3 1_555 1_555
C66_3 C63_3 1_555 1_555
C69_3 C66_3 1_555 1_555
H63_3 C69_3 1_555 1_555
C72_3 C57_3 1_555 1_555
H66_3 C72_3 1_555 1_555
C75_3 C66_3 1_555 1_555
O12_2 C75_3 1_555 1_555
O14_2 Mn11 1_555 1_555
O17_2 Mn6 1_555 1_555
C8_3 C11_3 1_555 1_555
C31_3 C34_3 1_555 1_555
C32_3 C35_3 1_555 1_555
C33_3 C36_3 1_555 1_555
C37_3 O4_3 1_555 1_555
C39_3 O3_3 1_555 1_555
C39_3 O6_3 1_555 1_555
C45_3 C48_3 1_555 1_555
C69_3 C72_3 1_555 1_555
C43_3 C40_3 1_555 1_555
C49_3 C40_3 1_555 1_555
H38_3 C49_3 1_555 1_555
H39_3 C49_3 1_555 1_555
C52_3 C46_3 1_555 1_555
H46_3 C52_3 1_555 1_555
H47_3 C52_3 1_555 1_555
H48_3 C52_3 1_555 1_555
C55_3 C43_3 1_555 1_555
C58_3 C55_3 1_555 1_555
H55_3 C58_3 1_555 1_555
C61_3 C58_3 1_555 1_555
H58_3 C61_3 1_555 1_555
C64_3 C61_3 1_555 1_555
C67_3 C64_3 1_555 1_555
H61_3 C67_3 1_555 1_555
C70_3 C55_3 1_555 1_555
H64_3 C70_3 1_555 1_555
C73_3 C64_3 1_555 1_555
O7_3 C73_3 1_555 1_555
O15 C73_3 1_555 1_555
C43_3 C46_3 1_555 1_555
C67_3 C70_3 1_555 1_555
C43_4 C40_4 1_555 1_555
C49_4 C40_4 1_555 1_555
H38_4 C49_4 1_555 1_555
H39_4 C49_4 1_555 1_555
C52_4 C46_4 1_555 1_555
H46_4 C52_4 1_555 1_555
H47_4 C52_4 1_555 1_555
H48_4 C52_4 1_555 1_555
C55_4 C43_4 1_555 1_555
C58_4 C55_4 1_555 1_555
H55_4 C58_4 1_555 1_555
C61_4 C58_4 1_555 1_555
H58_4 C61_4 1_555 1_555
C64_4 C61_4 1_555 1_555
C67_4 C64_4 1_555 1_555
H61_4 C67_4 1_555 1_555
C70_4 C55_4 1_555 1_555
H64_4 C70_4 1_555 1_555
C73_4 C64_4 1_555 1_555
O7_4 C73_4 1_555 1_555
O15_2 C73_4 1_555 1_555
C43_4 C46_4 1_555 1_555
C67_4 C70_4 1_555 1_555
C1_4 H1_4 1_555 1_555
H2_4 C1_4 1_555 1_555
Mn10 O1_4 1_555 1_555
N1_4 C1_4 1_555 1_555
N13_2 N1_4 1_555 1_555
C4_4 N13_2 1_555 1_555
C7_4 C4_4 1_555 1_555
C10_4 N1_4 1_555 1_555
C13_4 C4_4 1_555 1_555
H9_4 C13_4 1_555 1_555
C16_4 C10_4 1_555 1_555
H16_4 C16_4 1_555 1_555
H17_4 C16_4 1_555 1_555
H18_4 C16_4 1_555 1_555
C18_4 C12_4 1_555 1_555
H22_4 C18_4 1_555 1_555
H23_4 C18_4 1_555 1_555
H24_4 C18_4 1_555 1_555
C19_4 C7_4 1_555 1_555
C22_4 C19_4 1_555 1_555
H25_4 C22_4 1_555 1_555
C24_4 C21_4 1_555 1_555
H27_4 C24_4 1_555 1_555
C25_4 C22_4 1_555 1_555
H28_4 C25_4 1_555 1_555
C27_4 C24_4 1_555 1_555
H30_4 C27_4 1_555 1_555
C28_4 C25_4 1_555 1_555
C30_4 C27_4 1_555 1_555
C31_4 C28_4 1_555 1_555
H31_4 C31_4 1_555 1_555
C33_4 C30_4 1_555 1_555
H33_4 C33_4 1_555 1_555
C34_4 C19_4 1_555 1_555
H34_4 C34_4 1_555 1_555
C36_4 C21_4 1_555 1_555
C37_4 C28_4 1_555 1_555
C39_4 C30_4 1_555 1_555
O1_4 C37_4 1_555 1_555
O3_4 Mn5 1_555 1_555
O4_4 Mn5 1_555 1_555
N7_4 C1_4 1_555 1_555
N15_2 N7_4 1_555 1_555
C54_4 C48_4 1_555 1_555
H52_4 C54_4 1_555 1_555
H53_4 C54_4 1_555 1_555
H54_4 C54_4 1_555 1_555
C57_4 C45_4 1_555 1_555
C60_4 C57_4 1_555 1_555
H57_4 C60_4 1_555 1_555
C63_4 C60_4 1_555 1_555
H60_4 C63_4 1_555 1_555
C66_4 C63_4 1_555 1_555
C69_4 C66_4 1_555 1_555
H63_4 C69_4 1_555 1_555
C72_4 C57_4 1_555 1_555
H66_4 C72_4 1_555 1_555
C75_4 C66_4 1_555 1_555
O14_2 C75_4 1_555 1_555
O17_2 C75_4 1_555 1_555
C7_4 C10_4 1_555 1_555
C31_4 C34_4 1_555 1_555
C33_4 C36_4 1_555 1_555
C37_4 O4_4 1_555 1_555
C39_4 O3_4 1_555 1_555
C39_4 O6_4 1_555 1_555
C45_4 C48_4 1_555 1_555
C69_4 C72_4 1_555 1_555
C2_4 H3_4 1_555 1_555
H4_4 C2_4 1_555 1_555
N2_4 C2_4 1_555 1_555
N14_2 N2_4 1_555 1_555
C5_4 N14_2 1_555 1_555
C8_4 C5_4 1_555 1_555
C11_4 N2_4 1_555 1_555
C14_4 C5_4 1_555 1_555
H10_4 C14_4 1_555 1_555
H11_4 C14_4 1_555 1_555
H12_4 C14_4 1_555 1_555
C17_4 C11_4 1_555 1_555
H19_4 C17_4 1_555 1_555
H21_4 C17_4 1_555 1_555
N8_4 C2_4 1_555 1_555
N16_2 N8_4 1_555 1_555
C41_4 N16_2 1_555 1_555
C47_4 N8_4 1_555 1_555
C50_4 C41_4 1_555 1_555
H40_4 C50_4 1_555 1_555
H42_4 C50_4 1_555 1_555
C8_4 C11_4 1_555 1_555
Mn7 O5_4 1_555 1_555
C23_4 C20_4 1_555 1_555
H26_4 C23_4 1_555 1_555
C26_4 C23_4 1_555 1_555
H29_4 C26_4 1_555 1_555
C29_4 C26_4 1_555 1_555
C32_4 C29_4 1_555 1_555
H32_4 C32_4 1_555 1_555
C35_4 C20_4 1_555 1_555
H35_4 C35_4 1_555 1_555
C38_4 C29_4 1_555 1_555
O2_4 C38_4 1_555 1_555
O5_4 C38_4 1_555 1_555
C32_4 C35_4 1_555 1_555
H50_4 C53_4 1_555 1_555
C56_4 C44_4 1_555 1_555
C59_4 C56_4 1_555 1_555
H56_4 C59_4 1_555 1_555
C62_4 C59_4 1_555 1_555
H59_4 C62_4 1_555 1_555
C65_4 C62_4 1_555 1_555
C68_4 C65_4 1_555 1_555
H62_4 C68_4 1_555 1_555
C71_4 C56_4 1_555 1_555
H65_4 C71_4 1_555 1_555
C74_4 C65_4 1_555 1_555
O13_2 C74_4 1_555 1_555
O16_2 C74_4 1_555 1_555
C68_4 C71_4 1_555 1_555
C3_3 H5_3 1_555 1_555
H6_3 C3_3 1_555 1_555
Cu1_3 N6_3 1_555 1_555
N3_3 C3_3 1_555 1_555
N6_3 N3_3 1_555 1_555
C6_3 N6_3 1_555 1_555
C9_3 C6_3 1_555 1_555
C15_3 C6_3 1_555 1_555
H13_3 C15_3 1_555 1_555
H14_3 C15_3 1_555 1_555
H15_3 C15_3 1_555 1_555
N9_3 C3_3 1_555 1_555
N12_3 Cu1_3 1_555 1_555
C42_3 N12_3 1_555 1_555
C51_3 C42_3 1_555 1_555
H43_3 C51_3 1_555 1_555
H44_3 C51_3 1_555 1_555
H45_3 C51_3 1_555 1_555
C76_3 C77_3 1_555 1_555
C77_3 Cu1_3 1_555 1_555
H67_3 C77_3 1_555 1_555
C78_3 Cu1_3 1_555 1_555
H68_3 C78_3 1_555 1_555
C79_3 C78_3 1_555 1_555
H69_3 C79_3 1_555 1_555
C80_3 C79_3 1_555 1_555
H70_3 C80_3 1_555 1_555
C81_3 C76_3 1_555 1_555
H71_3 C81_3 1_555 1_555
C82_3 C76_3 1_555 1_555
H72_3 C82_3 1_555 1_555
H73_3 C82_3 1_555 1_555
H74_3 C82_3 1_555 1_555
N9_3 N12_3 1_555 1_555
C77_3 C78_3 1_555 1_555
C80_3 C81_3 1_555 1_555
C3_4 H5_4 1_555 1_555
H6_4 C3_4 1_555 1_555
Cu1_4 N6_4 1_555 1_555
N3_4 C3_4 1_555 1_555
N6_4 N3_4 1_555 1_555
C6_4 N6_4 1_555 1_555
C9_4 C6_4 1_555 1_555
C15_4 C6_4 1_555 1_555
H13_4 C15_4 1_555 1_555
H14_4 C15_4 1_555 1_555
H15_4 C15_4 1_555 1_555
N9_4 C3_4 1_555 1_555
N12_4 Cu1_4 1_555 1_555
C42_4 N12_4 1_555 1_555
C51_4 C42_4 1_555 1_555
H43_4 C51_4 1_555 1_555
H44_4 C51_4 1_555 1_555
H45_4 C51_4 1_555 1_555
C76_4 C77_4 1_555 1_555
C77_4 Cu1_4 1_555 1_555
H67_4 C77_4 1_555 1_555
C78_4 Cu1_4 1_555 1_555
H68_4 C78_4 1_555 1_555
C79_4 C78_4 1_555 1_555
H69_4 C79_4 1_555 1_555
C80_4 C79_4 1_555 1_555
H70_4 C80_4 1_555 1_555
C81_4 C76_4 1_555 1_555
H71_4 C81_4 1_555 1_555
C82_4 C76_4 1_555 1_555
H72_4 C82_4 1_555 1_555
H73_4 C82_4 1_555 1_555
H74_4 C82_4 1_555 1_555
N9_4 N12_4 1_555 1_555
C77_4 C78_4 1_555 1_555
C80_4 C81_4 1_555 1_555
B1 F1 1_555 1_555
F2 B1 1_555 1_555
F3 B1 1_555 1_555
F4 B1 1_555 1_555
B1_2 F1_2 1_555 1_555
F2_2 B1_2 1_555 1_555
F3_2 B1_2 1_555 1_555
F4_2 B1_2 1_555 1_555
B1_3 F1_3 1_555 1_555
F2_3 B1_3 1_555 1_555
F3_3 B1_3 1_555 1_555
F4_3 B1_3 1_555 1_555
B1_4 F1_4 1_555 1_555
F2_4 B1_4 1_555 1_555
F3_4 B1_4 1_555 1_555
F4_4 B1_4 1_555 1_555

#END
