
###############################################################################
#
# This file contains modified crystal structure data generated from the
# MOF subset of the Cambridge Structural Database (CSD) v543 
# hosted by the Cambridge Crystallographic Data Centre (CCDC).
#
# This work is licensed under the Creative Commons
# Attribution-NonCommercial-ShareAlike 4.0 International License.
# To view a copy of this license, visit
# http://creativecommons.org/licenses/by-nc-sa/4.0/
# or send a letter to
# Creative Commons, PO Box 1866, Mountain View, CA 94042, USA.
#
# CIF created using the CSD Python API on 29 September 2022
# The structure has been converted into the P1 space group
# The structure has a 3D framework
# The original CSD entry EWUSUL is in the orthorhombic crystal system
# The framework has been calculated to contain at least 10.0% void space
# The void calculation uses a probe of radius 1.32A, grid spacing 0.4
#
###############################################################################

data_EWUSUL
_chemical_formula_moiety         '(C640 H512 Cl32 Cu96 N127 O32 S96 W32)n'
_symmetry_cell_setting           triclinic
_symmetry_space_group_name_H-M   'P 1'
_symmetry_Int_Tables_number      1
_space_group_name_Hall           'P 1'
loop_
_symmetry_equiv_pos_site_id
_symmetry_equiv_pos_as_xyz
1 x,y,z
_cell_length_a                   25.569(4)
_cell_length_b                   29.638(4)
_cell_length_c                   58.594(9)
_cell_angle_alpha                90
_cell_angle_beta                 90
_cell_angle_gamma                90
_cell_volume                     44403.4
loop_
_atom_site_label
_atom_site_type_symbol
_atom_site_fract_x
_atom_site_fract_y
_atom_site_fract_z
Cu2 Cu 0.00437(10) 0.29226(7) 0.01875(4)
S1 S 0.00937(19) 0.21598(14) 0.01884(8)
W1 W 0.03549(2) 0.240000(18) 0.984440(12)
O1 O 0.0990(4) 0.2241(4) 0.9790(2)
S3 S 0.02868(15) 0.31582(12) 0.98371(7)
C16 C 0.0127(8) 0.0998(5) 0.9871(6)
H13 H 0.0364 0.1194 0.9803
C17 C 0.0264(7) 0.0547(6) 0.9897(5)
H14 H 0.0596 0.0455 0.9852
Cu5 Cu 0.04554(7) 0.81517(5) 0.00754(4)
N9 N 0.0321(4) 0.8847(3) 0.0060(3)
C38 C 0.0070(5) 0.9763(4) 0.0016(3)
C39 C 0.0542(5) 0.9584(4) 0.9951(3)
H31 H 0.0796 0.9778 0.9893
C40 C 0.0655(6) 0.9142(5) 0.9968(3)
H32 H 0.0975 0.9039 0.9914
N1 N 0.6094(4) 0.2011(4) 0.0313(2)
N2 N 0.8778(4) 0.1907(4) 0.0001(2)
Cl1 Cl 0.9543(3) 0.3336(2) 0.04385(10)
C1 C 0.6482(7) 0.2164(6) 0.0438(3)
H1 H 0.6388 0.2303 0.0574
C2 C 0.7003(6) 0.2146(7) 0.0393(3)
H2 H 0.7245 0.2258 0.0497
C3 C 0.7169(5) 0.1950(4) 0.0183(3)
C4 C 0.6760(6) 0.1803(7) 0.0045(4)
C5 C 0.6249(6) 0.1826(6) 0.0114(3)
H4 H 0.5995 0.1708 0.0017
C6 C 0.7711(5) 0.1934(4) 0.0119(3)
C7 C 0.8095(9) 0.2053(8) 0.0274(4)
H5 H 0.8012 0.2132 0.0423
C8 C 0.8636(10) 0.2050(8) 0.0193(4)
H6 H 0.8892 0.2162 0.0290
C19 C 0.9458(5) 0.0416(4) 0.0049(3)
H15 H 0.9204 0.0222 0.0107
C20 C 0.9345(6) 0.0858(5) 0.0032(3)
H16 H 0.9025 0.0961 0.0086
W2 W 0.46451(2) 0.260000(18) 0.015560(12)
Cu4 Cu 0.54554(7) 0.31517(5) 0.00754(4)
Cu7 Cu 0.53226(7) 0.21271(5) 0.04103(3)
N8 N 0.5337(5) 0.1827(4) 0.0719(2)
N10 N 0.5321(4) 0.3847(3) 0.0060(3)
O2 O 0.4010(4) 0.2759(4) 0.0210(2)
S5 S 0.51852(14) 0.28904(11) 0.04204(7)
S6 S 0.47132(15) 0.18418(12) 0.01629(7)
H19 H 0.8163 0.3315 0.0098
C29 C 0.6601(7) 0.3229(6) 0.0133(3)
H23 H 0.6506 0.3341 0.0276
C30 C 0.7121(7) 0.3222(6) 0.0083(3)
H24 H 0.7361 0.3326 0.0190
Cu1 Cu 0.95446(7) 0.18483(5) 0.99246(4)
Cu3 Cu 0.96774(7) 0.28729(5) 0.95897(3)
N3 N 0.9663(5) 0.3173(4) 0.9281(2)
N4 N 0.9679(4) 0.1153(3) 0.9940(3)
S2 S 0.98148(14) 0.21096(11) 0.95796(7)
H3 H 0.6837 0.1685 0.9902
C9 C 0.8399(7) 0.1771(6) 0.9867(3)
H7 H 0.8494 0.1659 0.9724
C10 C 0.7879(7) 0.1778(6) 0.9917(3)
H8 H 0.7639 0.1674 0.9810
C11 C 0.9605(8) 0.3602(9) 0.9273(4)
H9 H 0.9568 0.3761 0.9409
C12 C 0.9596(8) 0.3855(9) 0.9053(4)
H10 H 0.9561 0.4168 0.9055
C13 C 0.9635(8) 0.3649(9) 0.8857(4)
C14 C 0.9674(8) 0.3199(8) 0.8885(4)
H11 H 0.9667 0.3026 0.8752
C15 C 0.9724(9) 0.2959(9) 0.9091(4)
H12 H 0.9799 0.2653 0.9091
C18 C 0.9930(5) 0.0237(4) 0.9984(3)
Cu6 Cu 0.49563(10) 0.20774(7) 0.98125(4)
Cu8 Cu 0.96774(7) 0.46271(5) 0.79103(3)
N5 N 0.8906(4) 0.2989(4) 0.9687(2)
N6 N 0.6222(4) 0.3093(4) 0.9999(2)
N7 N 0.9663(5) 0.4327(4) 0.8219(2)
S4 S 0.49063(19) 0.28402(14) 0.98116(8)
Cl2 Cl 0.5457(3) 0.1664(2) 0.95615(10)
C21 C 0.8518(7) 0.2836(6) 0.9562(3)
H17 H 0.8612 0.2697 0.9426
C22 C 0.7997(6) 0.2854(7) 0.9607(3)
H18 H 0.7755 0.2742 0.9503
C23 C 0.7831(5) 0.3050(4) 0.9817(3)
C24 C 0.8240(6) 0.3197(7) 0.9955(4)
C25 C 0.8751(6) 0.3174(6) 0.9886(3)
H20 H 0.9005 0.3292 0.9983
C26 C 0.7289(5) 0.3066(4) 0.9881(3)
C27 C 0.6905(9) 0.2947(8) 0.9726(4)
H21 H 0.6988 0.2868 0.9577
C28 C 0.6364(10) 0.2950(8) 0.9807(4)
H22 H 0.6108 0.2838 0.9710
C31 C 0.9605(8) 0.3898(9) 0.8227(4)
H25 H 0.9568 0.3739 0.8091
C32 C 0.9596(8) 0.3645(9) 0.8447(4)
H26 H 0.9561 0.3332 0.8445
C33 C 0.9635(8) 0.3851(9) 0.8643(4)
C34 C 0.9674(8) 0.4301(8) 0.8615(4)
H27 H 0.9667 0.4474 0.8748
C35 C 0.9724(9) 0.4541(9) 0.8409(4)
H28 H 0.9799 0.4847 0.8409
W1_2 W 0.03549(2) 0.510000(18) 0.765560(12)
Cu2_2 Cu 0.00437(10) 0.45774(7) 0.73125(4)
O1_2 O 0.0990(4) 0.5259(4) 0.7710(2)
S1_2 S 0.00937(19) 0.53402(14) 0.73116(8)
S3_2 S 0.02868(15) 0.43418(12) 0.76629(7)
C16_2 C 0.0127(8) 0.6502(5) 0.7629(6)
H13_2 H 0.0364 0.6306 0.7697
C17_2 C 0.0264(7) 0.6953(6) 0.7603(5)
H14_2 H 0.0596 0.7045 0.7648
Cu5_2 Cu 0.04554(7) 0.93483(5) 0.74246(4)
N9_2 N 0.0321(4) 0.8653(3) 0.7440(3)
C38_2 C 0.0070(5) 0.7737(4) 0.7484(3)
C39_2 C 0.0542(5) 0.7916(4) 0.7549(3)
H31_2 H 0.0796 0.7722 0.7607
C40_2 C 0.0655(6) 0.8358(5) 0.7532(3)
H32_2 H 0.0975 0.8461 0.7586
Cu1_2 Cu 0.95446(7) 0.56517(5) 0.75754(4)
N1_2 N 0.6094(4) 0.5489(4) 0.7187(2)
N2_2 N 0.8778(4) 0.5593(4) 0.7499(2)
N4_2 N 0.9679(4) 0.6347(3) 0.7560(3)
S2_2 S 0.98148(14) 0.53904(11) 0.79204(7)
Cl1_2 Cl 0.9543(3) 0.4164(2) 0.70615(10)
C1_2 C 0.6482(7) 0.5336(6) 0.7062(3)
H1_2 H 0.6388 0.5197 0.6926
C2_2 C 0.7003(6) 0.5354(7) 0.7107(3)
H2_2 H 0.7245 0.5242 0.7003
C3_2 C 0.7169(5) 0.5550(4) 0.7317(3)
C4_2 C 0.6760(6) 0.5697(7) 0.7455(4)
H3_2 H 0.6837 0.5815 0.7598
C5_2 C 0.6249(6) 0.5674(6) 0.7386(3)
H4_2 H 0.5995 0.5792 0.7483
C6_2 C 0.7711(5) 0.5566(4) 0.7381(3)
C7_2 C 0.8095(9) 0.5447(8) 0.7226(4)
H5_2 H 0.8012 0.5368 0.7077
C8_2 C 0.8636(10) 0.5450(8) 0.7307(4)
H6_2 H 0.8892 0.5338 0.7210
C9_2 C 0.8399(7) 0.5729(6) 0.7633(3)
H7_2 H 0.8494 0.5841 0.7776
C10_2 C 0.7879(7) 0.5722(6) 0.7583(3)
H8_2 H 0.7639 0.5826 0.7690
C18_2 C 0.9930(5) 0.7263(4) 0.7516(3)
C19_2 C 0.9458(5) 0.7084(4) 0.7451(3)
H15_2 H 0.9204 0.7278 0.7393
C20_2 C 0.9345(6) 0.6642(5) 0.7468(3)
H16_2 H 0.9025 0.6539 0.7414
W2_2 W 0.46451(2) 0.490000(18) 0.734440(12)
Cu4_2 Cu 0.54554(7) 0.43483(5) 0.74246(4)
Cu6_2 Cu 0.49563(10) 0.54226(7) 0.76875(4)
Cu7_2 Cu 0.53226(7) 0.53729(5) 0.70897(3)
N5_2 N 0.8906(4) 0.4511(4) 0.7813(2)
N6_2 N 0.6222(4) 0.4407(4) 0.7501(2)
N8_2 N 0.5337(5) 0.5673(4) 0.6781(2)
N10_2 N 0.5321(4) 0.3653(3) 0.7440(3)
O2_2 O 0.4010(4) 0.4741(4) 0.7290(2)
S4_2 S 0.49063(19) 0.46598(14) 0.76884(8)
S5_2 S 0.51852(14) 0.46096(11) 0.70796(7)
S6_2 S 0.47132(15) 0.56582(12) 0.73371(7)
Cl2_2 Cl 0.5457(3) 0.5836(2) 0.79385(10)
C21_2 C 0.8518(7) 0.4664(6) 0.7938(3)
H17_2 H 0.8612 0.4803 0.8074
C22_2 C 0.7997(6) 0.4646(7) 0.7893(3)
H18_2 H 0.7755 0.4758 0.7997
C23_2 C 0.7831(5) 0.4450(4) 0.7683(3)
C24_2 C 0.8240(6) 0.4303(7) 0.7545(4)
H19_2 H 0.8163 0.4185 0.7402
C25_2 C 0.8751(6) 0.4326(6) 0.7614(3)
H20_2 H 0.9005 0.4208 0.7517
C26_2 C 0.7289(5) 0.4434(4) 0.7619(3)
C27_2 C 0.6905(9) 0.4553(8) 0.7774(4)
H21_2 H 0.6988 0.4632 0.7923
C28_2 C 0.6364(10) 0.4550(8) 0.7693(4)
H22_2 H 0.6108 0.4662 0.7790
C29_2 C 0.6601(7) 0.4271(6) 0.7367(3)
H23_2 H 0.6506 0.4159 0.7224
C30_2 C 0.7121(7) 0.4278(6) 0.7417(3)
H24_2 H 0.7361 0.4174 0.7310
C36 C 0.9873(8) 0.8498(5) 0.7371(6)
H29 H 0.9636 0.8694 0.7303
C37 C 0.9736(7) 0.8047(6) 0.7397(5)
H30 H 0.9404 0.7955 0.7352
W1_3 W 0.03549(2) 0.740000(18) 0.484440(12)
Cu2_3 Cu 0.00437(10) 0.79226(7) 0.51875(4)
O1_3 O 0.0990(4) 0.7241(4) 0.4790(2)
S1_3 S 0.00937(19) 0.71598(14) 0.51884(8)
S3_3 S 0.02868(15) 0.81582(12) 0.48371(7)
C16_3 C 0.0127(8) 0.5998(5) 0.4871(6)
H13_3 H 0.0364 0.6194 0.4803
C17_3 C 0.0264(7) 0.5547(6) 0.4897(5)
H14_3 H 0.0596 0.5455 0.4852
Cu5_3 Cu 0.04554(7) 0.31517(5) 0.50754(4)
N9_3 N 0.0321(4) 0.3847(3) 0.5060(3)
C38_3 C 0.0070(5) 0.4763(4) 0.5016(3)
C39_3 C 0.0542(5) 0.4584(4) 0.4951(3)
H31_3 H 0.0796 0.4778 0.4893
C40_3 C 0.0655(6) 0.4142(5) 0.4968(3)
H32_3 H 0.0975 0.4039 0.4914
Cu1_3 Cu 0.95446(7) 0.68483(5) 0.49246(4)
Cu3_2 Cu 0.96774(7) 0.78729(5) 0.45897(3)
N1_3 N 0.6094(4) 0.7011(4) 0.5313(2)
N2_3 N 0.8778(4) 0.6907(4) 0.5001(2)
N3_2 N 0.9663(5) 0.8173(4) 0.4281(2)
N4_3 N 0.9679(4) 0.6153(3) 0.4940(3)
S2_3 S 0.98148(14) 0.71096(11) 0.45796(7)
Cl1_3 Cl 0.9543(3) 0.8336(2) 0.54385(10)
C1_3 C 0.6482(7) 0.7164(6) 0.5438(3)
H1_3 H 0.6388 0.7303 0.5574
C2_3 C 0.7003(6) 0.7146(7) 0.5393(3)
H2_3 H 0.7245 0.7258 0.5497
C3_3 C 0.7169(5) 0.6950(4) 0.5183(3)
C4_3 C 0.6760(6) 0.6803(7) 0.5045(4)
H3_3 H 0.6837 0.6685 0.4902
C5_3 C 0.6249(6) 0.6826(6) 0.5114(3)
H4_3 H 0.5995 0.6708 0.5017
C6_3 C 0.7711(5) 0.6934(4) 0.5119(3)
C7_3 C 0.8095(9) 0.7053(8) 0.5274(4)
H5_3 H 0.8012 0.7132 0.5423
C8_3 C 0.8636(10) 0.7050(8) 0.5193(4)
H6_3 H 0.8892 0.7162 0.5290
C9_3 C 0.8399(7) 0.6771(6) 0.4867(3)
H7_3 H 0.8494 0.6659 0.4724
C10_3 C 0.7879(7) 0.6778(6) 0.4917(3)
H8_3 H 0.7639 0.6674 0.4810
C11_2 C 0.9605(8) 0.8602(9) 0.4273(4)
H9_2 H 0.9568 0.8761 0.4409
C12_2 C 0.9596(8) 0.8855(9) 0.4053(4)
H10_2 H 0.9561 0.9168 0.4055
C13_2 C 0.9635(8) 0.8649(9) 0.3857(4)
C14_2 C 0.9674(8) 0.8199(8) 0.3885(4)
H11_2 H 0.9667 0.8026 0.3752
C15_2 C 0.9724(9) 0.7959(9) 0.4091(4)
H12_2 H 0.9799 0.7653 0.4091
C18_3 C 0.9930(5) 0.5237(4) 0.4984(3)
C19_3 C 0.9458(5) 0.5416(4) 0.5049(3)
H15_3 H 0.9204 0.5222 0.5107
C20_3 C 0.9345(6) 0.5858(5) 0.5032(3)
H16_3 H 0.9025 0.5961 0.5086
W2_3 W 0.46451(2) 0.760000(18) 0.515560(12)
Cu4_3 Cu 0.54554(7) 0.81517(5) 0.50754(4)
Cu6_3 Cu 0.49563(10) 0.70774(7) 0.48125(4)
Cu7_3 Cu 0.53226(7) 0.71271(5) 0.54103(3)
Cu8_2 Cu 0.96774(7) 0.96271(5) 0.29103(3)
N5_3 N 0.8906(4) 0.7989(4) 0.4687(2)
N6_3 N 0.6222(4) 0.8093(4) 0.4999(2)
N7_2 N 0.9663(5) 0.9327(4) 0.3219(2)
N8_3 N 0.5337(5) 0.6827(4) 0.5719(2)
N10_3 N 0.5321(4) 0.8847(3) 0.5060(3)
O2_3 O 0.4010(4) 0.7759(4) 0.5210(2)
S4_3 S 0.49063(19) 0.78402(14) 0.48116(8)
S5_3 S 0.51852(14) 0.78904(11) 0.54204(7)
S6_3 S 0.47132(15) 0.68418(12) 0.51629(7)
Cl2_3 Cl 0.5457(3) 0.6664(2) 0.45615(10)
C21_3 C 0.8518(7) 0.7836(6) 0.4562(3)
H17_3 H 0.8612 0.7697 0.4426
C22_3 C 0.7997(6) 0.7854(7) 0.4607(3)
H18_3 H 0.7755 0.7742 0.4503
C23_3 C 0.7831(5) 0.8050(4) 0.4817(3)
C24_3 C 0.8240(6) 0.8197(7) 0.4955(4)
H19_3 H 0.8163 0.8315 0.5098
C25_3 C 0.8751(6) 0.8174(6) 0.4886(3)
H20_3 H 0.9005 0.8292 0.4983
C26_3 C 0.7289(5) 0.8066(4) 0.4881(3)
C27_3 C 0.6905(9) 0.7947(8) 0.4726(4)
H21_3 H 0.6988 0.7868 0.4577
C28_3 C 0.6364(10) 0.7950(8) 0.4807(4)
H22_3 H 0.6108 0.7838 0.4710
C29_3 C 0.6601(7) 0.8229(6) 0.5133(3)
H23_3 H 0.6506 0.8341 0.5276
C30_3 C 0.7121(7) 0.8222(6) 0.5083(3)
H24_3 H 0.7361 0.8326 0.5190
C31_2 C 0.9605(8) 0.8898(9) 0.3227(4)
H25_2 H 0.9568 0.8739 0.3091
C32_2 C 0.9596(8) 0.8645(9) 0.3447(4)
H26_2 H 0.9561 0.8332 0.3445
C33_2 C 0.9635(8) 0.8851(9) 0.3643(4)
C34_2 C 0.9674(8) 0.9301(8) 0.3615(4)
H27_2 H 0.9667 0.9474 0.3748
C35_2 C 0.9724(9) 0.9541(9) 0.3409(4)
H28_2 H 0.9799 0.9847 0.3409
C36_2 C 0.9873(8) 0.4002(5) 0.5129(6)
H29_2 H 0.9636 0.3806 0.5197
C37_2 C 0.9736(7) 0.4453(6) 0.5103(5)
H30_2 H 0.9404 0.4545 0.5148
W1_4 W 0.03549(2) 0.010000(18) 0.265560(12)
O1_4 O 0.0990(4) 0.0259(4) 0.2710(2)
S1_4 S 0.00937(19) 0.03402(14) 0.23116(8)
C16_4 C 0.0127(8) 0.1502(5) 0.2629(6)
H13_4 H 0.0364 0.1306 0.2697
C17_4 C 0.0264(7) 0.1953(6) 0.2603(5)
H14_4 H 0.0596 0.2045 0.2648
Cu5_4 Cu 0.04554(7) 0.43483(5) 0.24246(4)
N9_4 N 0.0321(4) 0.3653(3) 0.2440(3)
C38_4 C 0.0070(5) 0.2737(4) 0.2484(3)
C39_4 C 0.0542(5) 0.2916(4) 0.2549(3)
H31_4 H 0.0796 0.2722 0.2607
C40_4 C 0.0655(6) 0.3358(5) 0.2532(3)
H32_4 H 0.0975 0.3461 0.2586
Cu1_4 Cu 0.95446(7) 0.06517(5) 0.25754(4)
N1_4 N 0.6094(4) 0.0489(4) 0.2187(2)
N2_4 N 0.8778(4) 0.0593(4) 0.2499(2)
N4_4 N 0.9679(4) 0.1347(3) 0.2560(3)
S2_4 S 0.98148(14) 0.03904(11) 0.29204(7)
C1_4 C 0.6482(7) 0.0336(6) 0.2062(3)
H1_4 H 0.6388 0.0197 0.1926
C2_4 C 0.7003(6) 0.0354(7) 0.2107(3)
H2_4 H 0.7245 0.0242 0.2003
C3_4 C 0.7169(5) 0.0550(4) 0.2317(3)
C4_4 C 0.6760(6) 0.0697(7) 0.2455(4)
H3_4 H 0.6837 0.0815 0.2598
C5_4 C 0.6249(6) 0.0674(6) 0.2386(3)
H4_4 H 0.5995 0.0792 0.2483
C6_4 C 0.7711(5) 0.0566(4) 0.2381(3)
C7_4 C 0.8095(9) 0.0447(8) 0.2226(4)
H5_4 H 0.8012 0.0368 0.2077
C8_4 C 0.8636(10) 0.0450(8) 0.2307(4)
H6_4 H 0.8892 0.0338 0.2210
C9_4 C 0.8399(7) 0.0729(6) 0.2633(3)
H7_4 H 0.8494 0.0841 0.2776
C10_4 C 0.7879(7) 0.0722(6) 0.2583(3)
H8_4 H 0.7639 0.0826 0.2690
C18_4 C 0.9930(5) 0.2263(4) 0.2516(3)
C19_4 C 0.9458(5) 0.2084(4) 0.2451(3)
H15_4 H 0.9204 0.2278 0.2393
C20_4 C 0.9345(6) 0.1642(5) 0.2468(3)
H16_4 H 0.9025 0.1539 0.2414
Cu6_4 Cu 0.49563(10) 0.04226(7) 0.26875(4)
Cu7_4 Cu 0.53226(7) 0.03729(5) 0.20897(3)
N8_4 N 0.5337(5) 0.0673(4) 0.1781(2)
S6_4 S 0.47132(15) 0.06582(12) 0.23371(7)
Cl2_4 Cl 0.5457(3) 0.0836(2) 0.29385(10)
C36_3 C 0.9873(8) 0.3498(5) 0.2371(6)
H29_3 H 0.9636 0.3694 0.2303
C37_3 C 0.9736(7) 0.3047(6) 0.2397(5)
H30_3 H 0.9404 0.2955 0.2352
Cl1_4 Cl 0.9543(3) 0.9164(2) 0.20615(10)
W2_4 W 0.46451(2) 0.990000(18) 0.234440(12)
Cu4_4 Cu 0.54554(7) 0.93483(5) 0.24246(4)
N5_4 N 0.8906(4) 0.9511(4) 0.2813(2)
N6_4 N 0.6222(4) 0.9407(4) 0.2501(2)
N10_4 N 0.5321(4) 0.8653(3) 0.2440(3)
O2_4 O 0.4010(4) 0.9741(4) 0.2290(2)
S4_4 S 0.49063(19) 0.96598(14) 0.26884(8)
S5_4 S 0.51852(14) 0.96096(11) 0.20796(7)
C21_4 C 0.8518(7) 0.9664(6) 0.2938(3)
H17_4 H 0.8612 0.9803 0.3074
C22_4 C 0.7997(6) 0.9646(7) 0.2893(3)
H18_4 H 0.7755 0.9758 0.2997
C23_4 C 0.7831(5) 0.9450(4) 0.2683(3)
C24_4 C 0.8240(6) 0.9303(7) 0.2545(4)
H19_4 H 0.8163 0.9185 0.2402
C25_4 C 0.8751(6) 0.9326(6) 0.2614(3)
H20_4 H 0.9005 0.9208 0.2517
C26_4 C 0.7289(5) 0.9434(4) 0.2619(3)
C27_4 C 0.6905(9) 0.9553(8) 0.2774(4)
H21_4 H 0.6988 0.9632 0.2923
C28_4 C 0.6364(10) 0.9550(8) 0.2693(4)
H22_4 H 0.6108 0.9662 0.2790
C29_4 C 0.6601(7) 0.9271(6) 0.2367(3)
H23_4 H 0.6506 0.9159 0.2224
C30_4 C 0.7121(7) 0.9278(6) 0.2417(3)
H24_4 H 0.7361 0.9174 0.2310
W1_5 W 0.53549(2) 0.240000(18) 0.484440(12)
Cu1_5 Cu 0.45446(7) 0.18483(5) 0.49246(4)
Cu2_4 Cu 0.50437(10) 0.29226(7) 0.51875(4)
Cu3_3 Cu 0.46774(7) 0.28729(5) 0.45897(3)
N1_5 N 0.1094(4) 0.2011(4) 0.5313(2)
N2_5 N 0.3778(4) 0.1907(4) 0.5001(2)
N3_3 N 0.4663(5) 0.3173(4) 0.4281(2)
N4_5 N 0.4679(4) 0.1153(3) 0.4940(3)
O1_5 O 0.5990(4) 0.2241(4) 0.4790(2)
S1_5 S 0.50937(19) 0.21598(14) 0.51884(8)
S2_5 S 0.48148(14) 0.21096(11) 0.45796(7)
S3_4 S 0.52868(15) 0.31582(12) 0.48371(7)
Cl1_5 Cl 0.4543(3) 0.3336(2) 0.54385(10)
C1_5 C 0.1482(7) 0.2164(6) 0.5438(3)
H1_5 H 0.1388 0.2303 0.5574
C2_5 C 0.2003(6) 0.2146(7) 0.5393(3)
H2_5 H 0.2245 0.2258 0.5497
C3_5 C 0.2169(5) 0.1950(4) 0.5183(3)
C4_5 C 0.1760(6) 0.1803(7) 0.5045(4)
H3_5 H 0.1837 0.1685 0.4902
C5_5 C 0.1249(6) 0.1826(6) 0.5114(3)
H4_5 H 0.0995 0.1708 0.5017
C6_5 C 0.2711(5) 0.1934(4) 0.5119(3)
C7_5 C 0.3095(9) 0.2053(8) 0.5274(4)
H5_5 H 0.3012 0.2132 0.5423
C8_5 C 0.3636(10) 0.2050(8) 0.5193(4)
H6_5 H 0.3892 0.2162 0.5290
C9_5 C 0.3399(7) 0.1771(6) 0.4867(3)
H7_5 H 0.3494 0.1659 0.4724
C10_5 C 0.2879(7) 0.1778(6) 0.4917(3)
H8_5 H 0.2639 0.1674 0.4810
C11_3 C 0.4605(8) 0.3602(9) 0.4273(4)
H9_3 H 0.4568 0.3761 0.4409
C12_3 C 0.4596(8) 0.3855(9) 0.4053(4)
H10_3 H 0.4561 0.4168 0.4055
C13_3 C 0.4635(8) 0.3649(9) 0.3857(4)
C14_3 C 0.4674(8) 0.3199(8) 0.3885(4)
H11_3 H 0.4667 0.3026 0.3752
C15_3 C 0.4724(9) 0.2959(9) 0.4091(4)
H12_3 H 0.4799 0.2653 0.4091
C16_5 C 0.5127(8) 0.0998(5) 0.4871(6)
H13_5 H 0.5364 0.1194 0.4803
C17_5 C 0.5264(7) 0.0547(6) 0.4897(5)
H14_5 H 0.5596 0.0455 0.4852
C18_5 C 0.4930(5) 0.0237(4) 0.4984(3)
C19_5 C 0.4458(5) 0.0416(4) 0.5049(3)
H15_5 H 0.4204 0.0222 0.5107
C20_5 C 0.4345(6) 0.0858(5) 0.5032(3)
H16_5 H 0.4025 0.0961 0.5086
Cu7_5 Cu 0.03226(7) 0.21271(5) 0.54103(3)
Cu8_3 Cu 0.46774(7) 0.46271(5) 0.29103(3)
N5_5 N 0.3906(4) 0.2989(4) 0.4687(2)
N6_5 N 0.1222(4) 0.3093(4) 0.4999(2)
N7_3 N 0.4663(5) 0.4327(4) 0.3219(2)
N8_5 N 0.0337(5) 0.1827(4) 0.5719(2)
S5_5 S 0.01852(14) 0.28904(11) 0.54204(7)
Cl2_5 Cl 0.0457(3) 0.1664(2) 0.45615(10)
C21_5 C 0.3518(7) 0.2836(6) 0.4562(3)
H17_5 H 0.3612 0.2697 0.4426
C22_5 C 0.2997(6) 0.2854(7) 0.4607(3)
H18_5 H 0.2755 0.2742 0.4503
C23_5 C 0.2831(5) 0.3050(4) 0.4817(3)
C24_5 C 0.3240(6) 0.3197(7) 0.4955(4)
H19_5 H 0.3163 0.3315 0.5098
C25_5 C 0.3751(6) 0.3174(6) 0.4886(3)
H20_5 H 0.4005 0.3292 0.4983
C26_5 C 0.2289(5) 0.3066(4) 0.4881(3)
C27_5 C 0.1905(9) 0.2947(8) 0.4726(4)
H21_5 H 0.1988 0.2868 0.4577
C28_5 C 0.1364(10) 0.2950(8) 0.4807(4)
H22_5 H 0.1108 0.2838 0.4710
C29_5 C 0.1601(7) 0.3229(6) 0.5133(3)
H23_5 H 0.1506 0.3341 0.5276
C30_5 C 0.2121(7) 0.3222(6) 0.5083(3)
H24_5 H 0.2361 0.3326 0.5190
C31_3 C 0.4605(8) 0.3898(9) 0.3227(4)
H25_3 H 0.4568 0.3739 0.3091
C32_3 C 0.4596(8) 0.3645(9) 0.3447(4)
H26_3 H 0.4561 0.3332 0.3445
C33_3 C 0.4635(8) 0.3851(9) 0.3643(4)
C34_3 C 0.4674(8) 0.4301(8) 0.3615(4)
H27_3 H 0.4667 0.4474 0.3748
C35_3 C 0.4724(9) 0.4541(9) 0.3409(4)
H28_3 H 0.4799 0.4847 0.3409
C36_4 C 0.4873(8) 0.9002(5) 0.5129(6)
H29_4 H 0.4636 0.8806 0.5197
C37_4 C 0.4736(7) 0.9453(6) 0.5103(5)
H30_4 H 0.4404 0.9545 0.5148
C38_5 C 0.5070(5) 0.9763(4) 0.5016(3)
C39_5 C 0.5542(5) 0.9584(4) 0.4951(3)
H31_5 H 0.5796 0.9778 0.4893
C40_5 C 0.5655(6) 0.9142(5) 0.4968(3)
H32_5 H 0.5975 0.9039 0.4914
W2_5 W 0.96451(2) 0.260000(18) 0.515560(12)
Cu6_5 Cu 0.99563(10) 0.20774(7) 0.48125(4)
O2_5 O 0.9010(4) 0.2759(4) 0.5210(2)
S4_5 S 0.99063(19) 0.28402(14) 0.48116(8)
S6_5 S 0.97132(15) 0.18418(12) 0.51629(7)
W1_6 W 0.53549(2) 0.510000(18) 0.265560(12)
Cu1_6 Cu 0.45446(7) 0.56517(5) 0.25754(4)
Cu2_5 Cu 0.50437(10) 0.45774(7) 0.23125(4)
N1_6 N 0.1094(4) 0.5489(4) 0.2187(2)
N2_6 N 0.3778(4) 0.5593(4) 0.2499(2)
N4_6 N 0.4679(4) 0.6347(3) 0.2560(3)
O1_6 O 0.5990(4) 0.5259(4) 0.2710(2)
S1_6 S 0.50937(19) 0.53402(14) 0.23116(8)
S2_6 S 0.48148(14) 0.53904(11) 0.29204(7)
S3_5 S 0.52868(15) 0.43418(12) 0.26629(7)
Cl1_6 Cl 0.4543(3) 0.4164(2) 0.20615(10)
C1_6 C 0.1482(7) 0.5336(6) 0.2062(3)
H1_6 H 0.1388 0.5197 0.1926
C2_6 C 0.2003(6) 0.5354(7) 0.2107(3)
H2_6 H 0.2245 0.5242 0.2003
C3_6 C 0.2169(5) 0.5550(4) 0.2317(3)
C4_6 C 0.1760(6) 0.5697(7) 0.2455(4)
H3_6 H 0.1837 0.5815 0.2598
C5_6 C 0.1249(6) 0.5674(6) 0.2386(3)
H4_6 H 0.0995 0.5792 0.2483
C6_6 C 0.2711(5) 0.5566(4) 0.2381(3)
C7_6 C 0.3095(9) 0.5447(8) 0.2226(4)
H5_6 H 0.3012 0.5368 0.2077
C8_6 C 0.3636(10) 0.5450(8) 0.2307(4)
H6_6 H 0.3892 0.5338 0.2210
C9_6 C 0.3399(7) 0.5729(6) 0.2633(3)
H7_6 H 0.3494 0.5841 0.2776
C10_6 C 0.2879(7) 0.5722(6) 0.2583(3)
H8_6 H 0.2639 0.5826 0.2690
C16_6 C 0.5127(8) 0.6502(5) 0.2629(6)
H13_6 H 0.5364 0.6306 0.2697
C17_6 C 0.5264(7) 0.6953(6) 0.2603(5)
H14_6 H 0.5596 0.7045 0.2648
C18_6 C 0.4930(5) 0.7263(4) 0.2516(3)
C19_6 C 0.4458(5) 0.7084(4) 0.2451(3)
H15_6 H 0.4204 0.7278 0.2393
C20_6 C 0.4345(6) 0.6642(5) 0.2468(3)
H16_6 H 0.4025 0.6539 0.2414
Cu7_6 Cu 0.03226(7) 0.53729(5) 0.20897(3)
N5_6 N 0.3906(4) 0.4511(4) 0.2813(2)
N6_6 N 0.1222(4) 0.4407(4) 0.2501(2)
N8_6 N 0.0337(5) 0.5673(4) 0.1781(2)
S5_6 S 0.01852(14) 0.46096(11) 0.20796(7)
Cl2_6 Cl 0.0457(3) 0.5836(2) 0.29385(10)
C21_6 C 0.3518(7) 0.4664(6) 0.2938(3)
H17_6 H 0.3612 0.4803 0.3074
C22_6 C 0.2997(6) 0.4646(7) 0.2893(3)
H18_6 H 0.2755 0.4758 0.2997
C23_6 C 0.2831(5) 0.4450(4) 0.2683(3)
C24_6 C 0.3240(6) 0.4303(7) 0.2545(4)
H19_6 H 0.3163 0.4185 0.2402
C25_6 C 0.3751(6) 0.4326(6) 0.2614(3)
H20_6 H 0.4005 0.4208 0.2517
C26_6 C 0.2289(5) 0.4434(4) 0.2619(3)
C27_6 C 0.1905(9) 0.4553(8) 0.2774(4)
H21_6 H 0.1988 0.4632 0.2923
C28_6 C 0.1364(10) 0.4550(8) 0.2693(4)
H22_6 H 0.1108 0.4662 0.2790
C29_6 C 0.1601(7) 0.4271(6) 0.2367(3)
H23_6 H 0.1506 0.4159 0.2224
C30_6 C 0.2121(7) 0.4278(6) 0.2417(3)
H24_6 H 0.2361 0.4174 0.2310
C36_5 C 0.4873(8) 0.8498(5) 0.2371(6)
H29_5 H 0.4636 0.8694 0.2303
C37_5 C 0.4736(7) 0.8047(6) 0.2397(5)
H30_5 H 0.4404 0.7955 0.2352
C38_6 C 0.5070(5) 0.7737(4) 0.2484(3)
C39_6 C 0.5542(5) 0.7916(4) 0.2549(3)
H31_6 H 0.5796 0.7722 0.2607
C40_6 C 0.5655(6) 0.8358(5) 0.2532(3)
H32_6 H 0.5975 0.8461 0.2586
W2_6 W 0.96451(2) 0.490000(18) 0.234440(12)
Cu6_6 Cu 0.99563(10) 0.54226(7) 0.26875(4)
O2_6 O 0.9010(4) 0.4741(4) 0.2290(2)
S4_6 S 0.99063(19) 0.46598(14) 0.26884(8)
S6_6 S 0.97132(15) 0.56582(12) 0.23371(7)
Cu2_6 Cu 0.50437(10) 0.79226(7) 0.01875(4)
N1_7 N 0.1094(4) 0.7011(4) 0.0313(2)
N2_7 N 0.3778(4) 0.6907(4) 0.0001(2)
S1_7 S 0.50937(19) 0.71598(14) 0.01884(8)
Cl1_7 Cl 0.4543(3) 0.8336(2) 0.04385(10)
C1_7 C 0.1482(7) 0.7164(6) 0.0438(3)
H1_7 H 0.1388 0.7303 0.0574
C2_7 C 0.2003(6) 0.7146(7) 0.0393(3)
H2_7 H 0.2245 0.7258 0.0497
C3_7 C 0.2169(5) 0.6950(4) 0.0183(3)
C4_7 C 0.1760(6) 0.6803(7) 0.0045(4)
C5_7 C 0.1249(6) 0.6826(6) 0.0114(3)
H4_7 H 0.0995 0.6708 0.0017
C6_7 C 0.2711(5) 0.6934(4) 0.0119(3)
C7_7 C 0.3095(9) 0.7053(8) 0.0274(4)
H5_7 H 0.3012 0.7132 0.0423
C8_7 C 0.3636(10) 0.7050(8) 0.0193(4)
H6_7 H 0.3892 0.7162 0.0290
C19_7 C 0.4458(5) 0.5416(4) 0.0049(3)
H15_7 H 0.4204 0.5222 0.0107
C20_7 C 0.4345(6) 0.5858(5) 0.0032(3)
H16_7 H 0.4025 0.5961 0.0086
Cu7_7 Cu 0.03226(7) 0.71271(5) 0.04103(3)
N8_7 N 0.0337(5) 0.6827(4) 0.0719(2)
S5_7 S 0.01852(14) 0.78904(11) 0.04204(7)
H19_7 H 0.3163 0.8315 0.0098
C29_7 C 0.1601(7) 0.8229(6) 0.0133(3)
H23_7 H 0.1506 0.8341 0.0276
C30_7 C 0.2121(7) 0.8222(6) 0.0083(3)
H24_7 H 0.2361 0.8326 0.0190
C36_6 C 0.4873(8) 0.4002(5) 0.0129(6)
H29_6 H 0.4636 0.3806 0.0197
C37_6 C 0.4736(7) 0.4453(6) 0.0103(5)
H30_6 H 0.4404 0.4545 0.0148
C38_7 C 0.5070(5) 0.4763(4) 0.0016(3)
W1_7 W 0.53549(2) 0.740000(18) 0.984440(12)
Cu1_7 Cu 0.45446(7) 0.68483(5) 0.99246(4)
Cu3_4 Cu 0.46774(7) 0.78729(5) 0.95897(3)
N3_4 N 0.4663(5) 0.8173(4) 0.9281(2)
N4_7 N 0.4679(4) 0.6153(3) 0.9940(3)
O1_7 O 0.5990(4) 0.7241(4) 0.9790(2)
S2_7 S 0.48148(14) 0.71096(11) 0.95796(7)
S3_6 S 0.52868(15) 0.81582(12) 0.98371(7)
H3_7 H 0.1837 0.6685 0.9902
C9_7 C 0.3399(7) 0.6771(6) 0.9867(3)
H7_7 H 0.3494 0.6659 0.9724
C10_7 C 0.2879(7) 0.6778(6) 0.9917(3)
H8_7 H 0.2639 0.6674 0.9810
C11_4 C 0.4605(8) 0.8602(9) 0.9273(4)
H9_4 H 0.4568 0.8761 0.9409
C12_4 C 0.4596(8) 0.8855(9) 0.9053(4)
H10_4 H 0.4561 0.9168 0.9055
C13_4 C 0.4635(8) 0.8649(9) 0.8857(4)
C14_4 C 0.4674(8) 0.8199(8) 0.8885(4)
H11_4 H 0.4667 0.8026 0.8752
C15_4 C 0.4724(9) 0.7959(9) 0.9091(4)
H12_4 H 0.4799 0.7653 0.9091
C16_7 C 0.5127(8) 0.5998(5) 0.9871(6)
H13_7 H 0.5364 0.6194 0.9803
C17_7 C 0.5264(7) 0.5547(6) 0.9897(5)
H14_7 H 0.5596 0.5455 0.9852
C18_7 C 0.4930(5) 0.5237(4) 0.9984(3)
Cu8_4 Cu 0.46774(7) 0.96271(5) 0.79103(3)
N5_7 N 0.3906(4) 0.7989(4) 0.9687(2)
N6_7 N 0.1222(4) 0.8093(4) 0.9999(2)
N7_4 N 0.4663(5) 0.9327(4) 0.8219(2)
Cl2_7 Cl 0.0457(3) 0.6664(2) 0.95615(10)
C21_7 C 0.3518(7) 0.7836(6) 0.9562(3)
H17_7 H 0.3612 0.7697 0.9426
C22_7 C 0.2997(6) 0.7854(7) 0.9607(3)
H18_7 H 0.2755 0.7742 0.9503
C23_7 C 0.2831(5) 0.8050(4) 0.9817(3)
C24_7 C 0.3240(6) 0.8197(7) 0.9955(4)
C25_7 C 0.3751(6) 0.8174(6) 0.9886(3)
H20_7 H 0.4005 0.8292 0.9983
C26_7 C 0.2289(5) 0.8066(4) 0.9881(3)
C27_7 C 0.1905(9) 0.7947(8) 0.9726(4)
H21_7 H 0.1988 0.7868 0.9577
C28_7 C 0.1364(10) 0.7950(8) 0.9807(4)
H22_7 H 0.1108 0.7838 0.9710
C31_4 C 0.4605(8) 0.8898(9) 0.8227(4)
H25_4 H 0.4568 0.8739 0.8091
C32_4 C 0.4596(8) 0.8645(9) 0.8447(4)
H26_4 H 0.4561 0.8332 0.8445
C33_4 C 0.4635(8) 0.8851(9) 0.8643(4)
C34_4 C 0.4674(8) 0.9301(8) 0.8615(4)
H27_4 H 0.4667 0.9474 0.8748
C35_4 C 0.4724(9) 0.9541(9) 0.8409(4)
H28_4 H 0.4799 0.9847 0.8409
C39_7 C 0.5542(5) 0.4584(4) 0.9951(3)
H31_7 H 0.5796 0.4778 0.9893
C40_7 C 0.5655(6) 0.4142(5) 0.9968(3)
H32_7 H 0.5975 0.4039 0.9914
W1_8 W 0.53549(2) 0.010000(18) 0.765560(12)
Cu1_8 Cu 0.45446(7) 0.06517(5) 0.75754(4)
N1_8 N 0.1094(4) 0.0489(4) 0.7187(2)
N2_8 N 0.3778(4) 0.0593(4) 0.7499(2)
N4_8 N 0.4679(4) 0.1347(3) 0.7560(3)
O1_8 O 0.5990(4) 0.0259(4) 0.7710(2)
S1_8 S 0.50937(19) 0.03402(14) 0.73116(8)
S2_8 S 0.48148(14) 0.03904(11) 0.79204(7)
C1_8 C 0.1482(7) 0.0336(6) 0.7062(3)
H1_8 H 0.1388 0.0197 0.6926
C2_8 C 0.2003(6) 0.0354(7) 0.7107(3)
H2_8 H 0.2245 0.0242 0.7003
C3_8 C 0.2169(5) 0.0550(4) 0.7317(3)
C4_8 C 0.1760(6) 0.0697(7) 0.7455(4)
H3_8 H 0.1837 0.0815 0.7598
C5_8 C 0.1249(6) 0.0674(6) 0.7386(3)
H4_8 H 0.0995 0.0792 0.7483
C6_8 C 0.2711(5) 0.0566(4) 0.7381(3)
C7_8 C 0.3095(9) 0.0447(8) 0.7226(4)
H5_8 H 0.3012 0.0368 0.7077
C8_8 C 0.3636(10) 0.0450(8) 0.7307(4)
H6_8 H 0.3892 0.0338 0.7210
C9_8 C 0.3399(7) 0.0729(6) 0.7633(3)
H7_8 H 0.3494 0.0841 0.7776
C10_8 C 0.2879(7) 0.0722(6) 0.7583(3)
H8_8 H 0.2639 0.0826 0.7690
C16_8 C 0.5127(8) 0.1502(5) 0.7629(6)
H13_8 H 0.5364 0.1306 0.7697
C17_8 C 0.5264(7) 0.1953(6) 0.7603(5)
H14_8 H 0.5596 0.2045 0.7648
C18_8 C 0.4930(5) 0.2263(4) 0.7516(3)
C19_8 C 0.4458(5) 0.2084(4) 0.7451(3)
H15_8 H 0.4204 0.2278 0.7393
C20_8 C 0.4345(6) 0.1642(5) 0.7468(3)
H16_8 H 0.4025 0.1539 0.7414
Cu7_8 Cu 0.03226(7) 0.03729(5) 0.70897(3)
N8_8 N 0.0337(5) 0.0673(4) 0.6781(2)
Cl2_8 Cl 0.0457(3) 0.0836(2) 0.79385(10)
C36_7 C 0.4873(8) 0.3498(5) 0.7371(6)
H29_7 H 0.4636 0.3694 0.7303
C37_7 C 0.4736(7) 0.3047(6) 0.7397(5)
H30_7 H 0.4404 0.2955 0.7352
C38_8 C 0.5070(5) 0.2737(4) 0.7484(3)
C39_8 C 0.5542(5) 0.2916(4) 0.7549(3)
H31_8 H 0.5796 0.2722 0.7607
C40_8 C 0.5655(6) 0.3358(5) 0.7532(3)
H32_8 H 0.5975 0.3461 0.7586
Cu2_7 Cu 0.50437(10) 0.95774(7) 0.73125(4)
S3_7 S 0.52868(15) 0.93418(12) 0.76629(7)
Cl1_8 Cl 0.4543(3) 0.9164(2) 0.70615(10)
N5_8 N 0.3906(4) 0.9511(4) 0.7813(2)
N6_8 N 0.1222(4) 0.9407(4) 0.7501(2)
S5_8 S 0.01852(14) 0.96096(11) 0.70796(7)
C21_8 C 0.3518(7) 0.9664(6) 0.7938(3)
H17_8 H 0.3612 0.9803 0.8074
C22_8 C 0.2997(6) 0.9646(7) 0.7893(3)
H18_8 H 0.2755 0.9758 0.7997
C23_8 C 0.2831(5) 0.9450(4) 0.7683(3)
C24_8 C 0.3240(6) 0.9303(7) 0.7545(4)
H19_8 H 0.3163 0.9185 0.7402
C25_8 C 0.3751(6) 0.9326(6) 0.7614(3)
H20_8 H 0.4005 0.9208 0.7517
C26_8 C 0.2289(5) 0.9434(4) 0.7619(3)
C27_8 C 0.1905(9) 0.9553(8) 0.7774(4)
H21_8 H 0.1988 0.9632 0.7923
C28_8 C 0.1364(10) 0.9550(8) 0.7693(4)
H22_8 H 0.1108 0.9662 0.7790
C29_8 C 0.1601(7) 0.9271(6) 0.7367(3)
H23_8 H 0.1506 0.9159 0.7224
C30_8 C 0.2121(7) 0.9278(6) 0.7417(3)
H24_8 H 0.2361 0.9174 0.7310
W2_7 W 0.96451(2) 0.990000(18) 0.734440(12)
O2_7 O 0.9010(4) 0.9741(4) 0.7290(2)
S4_7 S 0.99063(19) 0.96598(14) 0.76884(8)
C11_5 C 0.0395(8) 0.6398(9) 0.0727(4)
H9_5 H 0.0432 0.6239 0.0591
C12_5 C 0.0404(8) 0.6145(9) 0.0947(4)
H10_5 H 0.0439 0.5832 0.0945
C13_5 C 0.0365(8) 0.6351(9) 0.1143(4)
C14_5 C 0.0326(8) 0.6801(8) 0.1115(4)
H11_5 H 0.0333 0.6974 0.1248
C15_5 C 0.0276(9) 0.7041(9) 0.0909(4)
H12_5 H 0.0201 0.7347 0.0909
C31_5 C 0.0395(8) 0.6102(9) 0.1773(4)
H25_5 H 0.0432 0.6261 0.1909
C32_5 C 0.0404(8) 0.6355(9) 0.1553(4)
H26_5 H 0.0439 0.6668 0.1555
C33_5 C 0.0365(8) 0.6149(9) 0.1357(4)
C34_5 C 0.0326(8) 0.5699(8) 0.1385(4)
H27_5 H 0.0333 0.5526 0.1252
C35_5 C 0.0276(9) 0.5459(9) 0.1591(4)
H28_5 H 0.0201 0.5153 0.1591
C11_6 C 0.0395(8) 0.1398(9) 0.5727(4)
H9_6 H 0.0432 0.1239 0.5591
C12_6 C 0.0404(8) 0.1145(9) 0.5947(4)
H10_6 H 0.0439 0.0832 0.5945
C13_6 C 0.0365(8) 0.1351(9) 0.6143(4)
C14_6 C 0.0326(8) 0.1801(8) 0.6115(4)
H11_6 H 0.0333 0.1974 0.6248
C15_6 C 0.0276(9) 0.2041(9) 0.5909(4)
H12_6 H 0.0201 0.2347 0.5909
C31_6 C 0.0395(8) 0.1102(9) 0.6773(4)
H25_6 H 0.0432 0.1261 0.6909
C32_6 C 0.0404(8) 0.1355(9) 0.6553(4)
H26_6 H 0.0439 0.1668 0.6555
C33_6 C 0.0365(8) 0.1149(9) 0.6357(4)
C34_6 C 0.0326(8) 0.0699(8) 0.6385(4)
H27_6 H 0.0333 0.0526 0.6252
C35_6 C 0.0276(9) 0.0459(9) 0.6591(4)
H28_6 H 0.0201 0.0153 0.6591
C11_7 C 0.5395(8) 0.6398(9) 0.5727(4)
H9_7 H 0.5432 0.6239 0.5591
C12_7 C 0.5404(8) 0.6145(9) 0.5947(4)
H10_7 H 0.5439 0.5832 0.5945
C13_7 C 0.5365(8) 0.6351(9) 0.6143(4)
C14_7 C 0.5326(8) 0.6801(8) 0.6115(4)
H11_7 H 0.5333 0.6974 0.6248
C15_7 C 0.5276(9) 0.7041(9) 0.5909(4)
H12_7 H 0.5201 0.7347 0.5909
C31_7 C 0.5395(8) 0.6102(9) 0.6773(4)
H25_7 H 0.5432 0.6261 0.6909
C32_7 C 0.5404(8) 0.6355(9) 0.6553(4)
H26_7 H 0.5439 0.6668 0.6555
C33_7 C 0.5365(8) 0.6149(9) 0.6357(4)
C34_7 C 0.5326(8) 0.5699(8) 0.6385(4)
H27_7 H 0.5333 0.5526 0.6252
C35_7 C 0.5276(9) 0.5459(9) 0.6591(4)
H28_7 H 0.5201 0.5153 0.6591
C11_8 C 0.5395(8) 0.1398(9) 0.0727(4)
H9_8 H 0.5432 0.1239 0.0591
C12_8 C 0.5404(8) 0.1145(9) 0.0947(4)
H10_8 H 0.5439 0.0832 0.0945
C13_8 C 0.5365(8) 0.1351(9) 0.1143(4)
C14_8 C 0.5326(8) 0.1801(8) 0.1115(4)
H11_8 H 0.5333 0.1974 0.1248
C15_8 C 0.5276(9) 0.2041(9) 0.0909(4)
H12_8 H 0.5201 0.2347 0.0909
C31_8 C 0.5395(8) 0.1102(9) 0.1773(4)
H25_8 H 0.5432 0.1261 0.1909
C32_8 C 0.5404(8) 0.1355(9) 0.1553(4)
H26_8 H 0.5439 0.1668 0.1555
C33_8 C 0.5365(8) 0.1149(9) 0.1357(4)
C34_8 C 0.5326(8) 0.0699(8) 0.1385(4)
H27_8 H 0.5333 0.0526 0.1252
C35_8 C 0.5276(9) 0.0459(9) 0.1591(4)
H28_8 H 0.5201 0.0153 0.1591
C36_8 C 0.9873(8) 0.9002(5) 0.0129(6)
H29_8 H 0.9636 0.8806 0.0197
C37_8 C 0.9736(7) 0.9453(6) 0.0103(5)
H30_8 H 0.9404 0.9545 0.0148
W2_8 W 0.96451(2) 0.760000(18) 0.015560(12)
O2_8 O 0.9010(4) 0.7759(4) 0.0210(2)
S6_7 S 0.97132(15) 0.68418(12) 0.01629(7)
N1_9 N 0.1406(4) 0.5489(4) 0.0313(2)
C1_9 C 0.1018(7) 0.5336(6) 0.0438(3)
H1_9 H 0.1112 0.5197 0.0574
C2_9 C 0.0497(6) 0.5354(7) 0.0393(3)
H2_9 H 0.0255 0.5242 0.0497
C3_9 C 0.0331(5) 0.5550(4) 0.0183(3)
C4_9 C 0.0740(6) 0.5697(7) 0.0045(4)
C5_9 C 0.1251(6) 0.5674(6) 0.0114(3)
H4_9 H 0.1505 0.5792 0.0017
W2_9 W 0.28549(2) 0.490000(18) 0.015560(12)
Cu4_5 Cu 0.20446(7) 0.43483(5) 0.00754(4)
Cu7_9 Cu 0.21774(7) 0.53729(5) 0.04103(3)
N8_9 N 0.2163(5) 0.5673(4) 0.0719(2)
N10_5 N 0.2179(4) 0.3653(3) 0.0060(3)
O2_9 O 0.3490(4) 0.4741(4) 0.0210(2)
S5_9 S 0.23148(14) 0.46096(11) 0.04204(7)
S6_8 S 0.27868(15) 0.56582(12) 0.01629(7)
C29_9 C 0.0899(7) 0.4271(6) 0.0133(3)
H23_9 H 0.0994 0.4159 0.0276
C30_9 C 0.0379(7) 0.4278(6) 0.0083(3)
H24_9 H 0.0139 0.4174 0.0190
W1_9 W 0.71451(2) 0.510000(18) 0.984440(12)
Cu1_9 Cu 0.79554(7) 0.56517(5) 0.99246(4)
Cu3_5 Cu 0.78226(7) 0.46271(5) 0.95897(3)
N3_5 N 0.7837(5) 0.4327(4) 0.9281(2)
N4_9 N 0.7821(4) 0.6347(3) 0.9940(3)
O1_9 O 0.6510(4) 0.5259(4) 0.9790(2)
S2_9 S 0.76852(14) 0.53904(11) 0.95796(7)
S3_8 S 0.72132(15) 0.43418(12) 0.98371(7)
C9_9 C 0.9101(7) 0.5729(6) 0.9867(3)
H7_9 H 0.9006 0.5841 0.9724
C10_9 C 0.9621(7) 0.5722(6) 0.9917(3)
H8_9 H 0.9861 0.5826 0.9810
C11_9 C 0.7895(8) 0.3898(9) 0.9273(4)
H9_9 H 0.7932 0.3739 0.9409
C12_9 C 0.7904(8) 0.3645(9) 0.9053(4)
H10_9 H 0.7939 0.3332 0.9055
C13_9 C 0.7865(8) 0.3851(9) 0.8857(4)
C14_9 C 0.7826(8) 0.4301(8) 0.8885(4)
H11_9 H 0.7833 0.4474 0.8752
C15_9 C 0.7776(9) 0.4541(9) 0.9091(4)
H12_9 H 0.7701 0.4847 0.9091
C16_9 C 0.7373(8) 0.6502(5) 0.9871(6)
H13_9 H 0.7136 0.6306 0.9803
C17_9 C 0.7236(7) 0.6953(6) 0.9897(5)
H14_9 H 0.6904 0.7045 0.9852
C18_9 C 0.7570(5) 0.7263(4) 0.9984(3)
Cu8_5 Cu 0.78226(7) 0.28729(5) 0.79103(3)
N5_9 N 0.8594(4) 0.4511(4) 0.9687(2)
N7_5 N 0.7837(5) 0.3173(4) 0.8219(2)
C21_9 C 0.8982(7) 0.4664(6) 0.9562(3)
H17_9 H 0.8888 0.4803 0.9426
C22_9 C 0.9503(6) 0.4646(7) 0.9607(3)
H18_9 H 0.9745 0.4758 0.9503
C23_9 C 0.9669(5) 0.4450(4) 0.9817(3)
C24_9 C 0.9260(6) 0.4303(7) 0.9955(4)
C25_9 C 0.8749(6) 0.4326(6) 0.9886(3)
H20_9 H 0.8495 0.4208 0.9983
C31_9 C 0.7895(8) 0.3602(9) 0.8227(4)
H25_9 H 0.7932 0.3761 0.8091
C32_9 C 0.7904(8) 0.3855(9) 0.8447(4)
H26_9 H 0.7939 0.4168 0.8445
C33_9 C 0.7865(8) 0.3649(9) 0.8643(4)
C34_9 C 0.7826(8) 0.3199(8) 0.8615(4)
H27_9 H 0.7833 0.3026 0.8748
C35_9 C 0.7776(9) 0.2959(9) 0.8409(4)
H28_9 H 0.7701 0.2653 0.8409
C39_9 C 0.6958(5) 0.7916(4) 0.9951(3)
H31_9 H 0.6704 0.7722 0.9893
C40_9 C 0.6845(6) 0.8358(5) 0.9968(3)
H32_9 H 0.6525 0.8461 0.9914
N1_10 N 0.1406(4) 0.2011(4) 0.7187(2)
C1_10 C 0.1018(7) 0.2164(6) 0.7062(3)
H1_10 H 0.1112 0.2303 0.6926
C2_10 C 0.0497(6) 0.2146(7) 0.7107(3)
H2_10 H 0.0255 0.2258 0.7003
C3_10 C 0.0331(5) 0.1950(4) 0.7317(3)
C4_10 C 0.0740(6) 0.1803(7) 0.7455(4)
H3_9 H 0.0663 0.1685 0.7598
C5_10 C 0.1251(6) 0.1826(6) 0.7386(3)
H4_10 H 0.1505 0.1708 0.7483
W2_10 W 0.28549(2) 0.260000(18) 0.734440(12)
Cu4_6 Cu 0.20446(7) 0.31517(5) 0.74246(4)
Cu6_7 Cu 0.25437(10) 0.20774(7) 0.76875(4)
Cu7_10 Cu 0.21774(7) 0.21271(5) 0.70897(3)
N6_9 N 0.1278(4) 0.3093(4) 0.7501(2)
N8_10 N 0.2163(5) 0.1827(4) 0.6781(2)
N10_6 N 0.2179(4) 0.3847(3) 0.7440(3)
O2_10 O 0.3490(4) 0.2759(4) 0.7290(2)
S4_8 S 0.25937(19) 0.28402(14) 0.76884(8)
S5_10 S 0.23148(14) 0.28904(11) 0.70796(7)
S6_9 S 0.27868(15) 0.18418(12) 0.73371(7)
Cl2_9 Cl 0.2043(3) 0.1664(2) 0.79385(10)
C26_9 C 0.0211(5) 0.3066(4) 0.7619(3)
C27_9 C 0.0595(9) 0.2947(8) 0.7774(4)
H21_9 H 0.0512 0.2868 0.7923
C28_9 C 0.1136(10) 0.2950(8) 0.7693(4)
H22_9 H 0.1392 0.2838 0.7790
C29_10 C 0.0899(7) 0.3229(6) 0.7367(3)
H23_10 H 0.0994 0.3341 0.7224
C30_10 C 0.0379(7) 0.3222(6) 0.7417(3)
H24_10 H 0.0139 0.3326 0.7310
W1_10 W 0.71451(2) 0.240000(18) 0.765560(12)
Cu1_10 Cu 0.79554(7) 0.18483(5) 0.75754(4)
Cu2_8 Cu 0.74563(10) 0.29226(7) 0.73125(4)
N2_9 N 0.8722(4) 0.1907(4) 0.7499(2)
N4_10 N 0.7821(4) 0.1153(3) 0.7560(3)
O1_10 O 0.6510(4) 0.2241(4) 0.7710(2)
S1_9 S 0.74063(19) 0.21598(14) 0.73116(8)
S2_10 S 0.76852(14) 0.21096(11) 0.79204(7)
S3_9 S 0.72132(15) 0.31582(12) 0.76629(7)
Cl1_9 Cl 0.7957(3) 0.3336(2) 0.70615(10)
C6_9 C 0.9789(5) 0.1934(4) 0.7381(3)
C7_9 C 0.9405(9) 0.2053(8) 0.7226(4)
H5_9 H 0.9488 0.2132 0.7077
C8_9 C 0.8864(10) 0.2050(8) 0.7307(4)
H6_9 H 0.8608 0.2162 0.7210
C9_10 C 0.9101(7) 0.1771(6) 0.7633(3)
H7_10 H 0.9006 0.1659 0.7776
C10_10 C 0.9621(7) 0.1778(6) 0.7583(3)
H8_10 H 0.9861 0.1674 0.7690
C16_10 C 0.7373(8) 0.0998(5) 0.7629(6)
H13_10 H 0.7136 0.1194 0.7697
C17_10 C 0.7236(7) 0.0547(6) 0.7603(5)
H14_10 H 0.6904 0.0455 0.7648
C18_10 C 0.7570(5) 0.0237(4) 0.7516(3)
C19_9 C 0.8042(5) 0.0416(4) 0.7451(3)
H15_9 H 0.8296 0.0222 0.7393
C20_9 C 0.8155(6) 0.0858(5) 0.7468(3)
H16_9 H 0.8475 0.0961 0.7414
N5_10 N 0.8594(4) 0.2989(4) 0.7813(2)
C21_10 C 0.8982(7) 0.2836(6) 0.7938(3)
H17_10 H 0.8888 0.2697 0.8074
C22_10 C 0.9503(6) 0.2854(7) 0.7893(3)
H18_10 H 0.9745 0.2742 0.7997
C23_10 C 0.9669(5) 0.3050(4) 0.7683(3)
C24_10 C 0.9260(6) 0.3197(7) 0.7545(4)
H19_9 H 0.9337 0.3315 0.7402
C25_10 C 0.8749(6) 0.3174(6) 0.7614(3)
H20_10 H 0.8495 0.3292 0.7517
Cu5_5 Cu 0.70446(7) 0.81517(5) 0.74246(4)
N9_5 N 0.7179(4) 0.8847(3) 0.7440(3)
C36_9 C 0.7627(8) 0.9002(5) 0.7371(6)
H29_9 H 0.7864 0.8806 0.7303
C37_9 C 0.7764(7) 0.9453(6) 0.7397(5)
H30_9 H 0.8096 0.9545 0.7352
C38_9 C 0.7430(5) 0.9763(4) 0.7484(3)
C39_10 C 0.6958(5) 0.9584(4) 0.7549(3)
H31_10 H 0.6704 0.9778 0.7607
C40_10 C 0.6845(6) 0.9142(5) 0.7532(3)
H32_10 H 0.6525 0.9039 0.7586
N1_11 N 0.1406(4) 0.0489(4) 0.5313(2)
C1_11 C 0.1018(7) 0.0336(6) 0.5438(3)
H1_11 H 0.1112 0.0197 0.5574
C2_11 C 0.0497(6) 0.0354(7) 0.5393(3)
H2_11 H 0.0255 0.0242 0.5497
C3_11 C 0.0331(5) 0.0550(4) 0.5183(3)
C4_11 C 0.0740(6) 0.0697(7) 0.5045(4)
H3_10 H 0.0663 0.0815 0.4902
C5_11 C 0.1251(6) 0.0674(6) 0.5114(3)
H4_11 H 0.1505 0.0792 0.5017
Cu6_8 Cu 0.25437(10) 0.04226(7) 0.48125(4)
Cu7_11 Cu 0.21774(7) 0.03729(5) 0.54103(3)
N8_11 N 0.2163(5) 0.0673(4) 0.5719(2)
S6_10 S 0.27868(15) 0.06582(12) 0.51629(7)
Cl2_10 Cl 0.2043(3) 0.0836(2) 0.45615(10)
W2_11 W 0.28549(2) 0.990000(18) 0.515560(12)
Cu4_7 Cu 0.20446(7) 0.93483(5) 0.50754(4)
N6_10 N 0.1278(4) 0.9407(4) 0.4999(2)
N10_7 N 0.2179(4) 0.8653(3) 0.5060(3)
O2_11 O 0.3490(4) 0.9741(4) 0.5210(2)
S4_9 S 0.25937(19) 0.96598(14) 0.48116(8)
S5_11 S 0.23148(14) 0.96096(11) 0.54204(7)
C26_10 C 0.0211(5) 0.9434(4) 0.4881(3)
C27_10 C 0.0595(9) 0.9553(8) 0.4726(4)
H21_10 H 0.0512 0.9632 0.4577
C28_10 C 0.1136(10) 0.9550(8) 0.4807(4)
H22_10 H 0.1392 0.9662 0.4710
C29_11 C 0.0899(7) 0.9271(6) 0.5133(3)
H23_11 H 0.0994 0.9159 0.5276
C30_11 C 0.0379(7) 0.9278(6) 0.5083(3)
H24_11 H 0.0139 0.9174 0.5190
W1_11 W 0.71451(2) 0.010000(18) 0.484440(12)
Cu1_11 Cu 0.79554(7) 0.06517(5) 0.49246(4)
N2_10 N 0.8722(4) 0.0593(4) 0.5001(2)
N4_11 N 0.7821(4) 0.1347(3) 0.4940(3)
O1_11 O 0.6510(4) 0.0259(4) 0.4790(2)
S1_10 S 0.74063(19) 0.03402(14) 0.51884(8)
S2_11 S 0.76852(14) 0.03904(11) 0.45796(7)
C6_10 C 0.9789(5) 0.0566(4) 0.5119(3)
C7_10 C 0.9405(9) 0.0447(8) 0.5274(4)
H5_10 H 0.9488 0.0368 0.5423
C8_10 C 0.8864(10) 0.0450(8) 0.5193(4)
H6_10 H 0.8608 0.0338 0.5290
C9_11 C 0.9101(7) 0.0729(6) 0.4867(3)
H7_11 H 0.9006 0.0841 0.4724
C10_11 C 0.9621(7) 0.0722(6) 0.4917(3)
H8_11 H 0.9861 0.0826 0.4810
C16_11 C 0.7373(8) 0.1502(5) 0.4871(6)
H13_11 H 0.7136 0.1306 0.4803
C17_11 C 0.7236(7) 0.1953(6) 0.4897(5)
H14_11 H 0.6904 0.2045 0.4852
C18_11 C 0.7570(5) 0.2263(4) 0.4984(3)
C19_10 C 0.8042(5) 0.2084(4) 0.5049(3)
H15_10 H 0.8296 0.2278 0.5107
C20_10 C 0.8155(6) 0.1642(5) 0.5032(3)
H16_10 H 0.8475 0.1539 0.5086
Cu5_6 Cu 0.70446(7) 0.43483(5) 0.50754(4)
N9_6 N 0.7179(4) 0.3653(3) 0.5060(3)
C36_10 C 0.7627(8) 0.3498(5) 0.5129(6)
H29_10 H 0.7864 0.3694 0.5197
C37_10 C 0.7764(7) 0.3047(6) 0.5103(5)
H30_10 H 0.8096 0.2955 0.5148
C38_10 C 0.7430(5) 0.2737(4) 0.5016(3)
C39_11 C 0.6958(5) 0.2916(4) 0.4951(3)
H31_11 H 0.6704 0.2722 0.4893
C40_11 C 0.6845(6) 0.3358(5) 0.4968(3)
H32_11 H 0.6525 0.3461 0.4914
Cu2_9 Cu 0.74563(10) 0.95774(7) 0.51875(4)
Cu3_6 Cu 0.78226(7) 0.96271(5) 0.45897(3)
N3_6 N 0.7837(5) 0.9327(4) 0.4281(2)
S3_10 S 0.72132(15) 0.93418(12) 0.48371(7)
Cl1_10 Cl 0.7957(3) 0.9164(2) 0.54385(10)
C11_10 C 0.7895(8) 0.8898(9) 0.4273(4)
H9_10 H 0.7932 0.8739 0.4409
C12_10 C 0.7904(8) 0.8645(9) 0.4053(4)
H10_10 H 0.7939 0.8332 0.4055
C13_10 C 0.7865(8) 0.8851(9) 0.3857(4)
C14_10 C 0.7826(8) 0.9301(8) 0.3885(4)
H11_10 H 0.7833 0.9474 0.3752
C15_10 C 0.7776(9) 0.9541(9) 0.4091(4)
H12_10 H 0.7701 0.9847 0.4091
Cu8_6 Cu 0.78226(7) 0.78729(5) 0.29103(3)
N5_11 N 0.8594(4) 0.9511(4) 0.4687(2)
N7_6 N 0.7837(5) 0.8173(4) 0.3219(2)
C21_11 C 0.8982(7) 0.9664(6) 0.4562(3)
H17_11 H 0.8888 0.9803 0.4426
C22_11 C 0.9503(6) 0.9646(7) 0.4607(3)
H18_11 H 0.9745 0.9758 0.4503
C23_11 C 0.9669(5) 0.9450(4) 0.4817(3)
C24_11 C 0.9260(6) 0.9303(7) 0.4955(4)
H19_10 H 0.9337 0.9185 0.5098
C25_11 C 0.8749(6) 0.9326(6) 0.4886(3)
H20_11 H 0.8495 0.9208 0.4983
C31_10 C 0.7895(8) 0.8602(9) 0.3227(4)
H25_10 H 0.7932 0.8761 0.3091
C32_10 C 0.7904(8) 0.8855(9) 0.3447(4)
H26_10 H 0.7939 0.9168 0.3445
C33_10 C 0.7865(8) 0.8649(9) 0.3643(4)
C34_10 C 0.7826(8) 0.8199(8) 0.3615(4)
H27_10 H 0.7833 0.8026 0.3748
C35_10 C 0.7776(9) 0.7959(9) 0.3409(4)
H28_10 H 0.7701 0.7653 0.3409
N1_12 N 0.1406(4) 0.7011(4) 0.2187(2)
C1_12 C 0.1018(7) 0.7164(6) 0.2062(3)
H1_12 H 0.1112 0.7303 0.1926
C2_12 C 0.0497(6) 0.7146(7) 0.2107(3)
H2_12 H 0.0255 0.7258 0.2003
C3_12 C 0.0331(5) 0.6950(4) 0.2317(3)
C4_12 C 0.0740(6) 0.6803(7) 0.2455(4)
H3_11 H 0.0663 0.6685 0.2598
C5_12 C 0.1251(6) 0.6826(6) 0.2386(3)
H4_12 H 0.1505 0.6708 0.2483
W2_12 W 0.28549(2) 0.760000(18) 0.234440(12)
Cu4_8 Cu 0.20446(7) 0.81517(5) 0.24246(4)
Cu6_9 Cu 0.25437(10) 0.70774(7) 0.26875(4)
Cu7_12 Cu 0.21774(7) 0.71271(5) 0.20897(3)
N6_11 N 0.1278(4) 0.8093(4) 0.2501(2)
N8_12 N 0.2163(5) 0.6827(4) 0.1781(2)
N10_8 N 0.2179(4) 0.8847(3) 0.2440(3)
O2_12 O 0.3490(4) 0.7759(4) 0.2290(2)
S4_10 S 0.25937(19) 0.78402(14) 0.26884(8)
S5_12 S 0.23148(14) 0.78904(11) 0.20796(7)
S6_11 S 0.27868(15) 0.68418(12) 0.23371(7)
Cl2_11 Cl 0.2043(3) 0.6664(2) 0.29385(10)
C26_11 C 0.0211(5) 0.8066(4) 0.2619(3)
C27_11 C 0.0595(9) 0.7947(8) 0.2774(4)
H21_11 H 0.0512 0.7868 0.2923
C28_11 C 0.1136(10) 0.7950(8) 0.2693(4)
H22_11 H 0.1392 0.7838 0.2790
C29_12 C 0.0899(7) 0.8229(6) 0.2367(3)
H23_12 H 0.0994 0.8341 0.2224
C30_12 C 0.0379(7) 0.8222(6) 0.2417(3)
H24_12 H 0.0139 0.8326 0.2310
W1_12 W 0.71451(2) 0.740000(18) 0.265560(12)
Cu1_12 Cu 0.79554(7) 0.68483(5) 0.25754(4)
Cu2_10 Cu 0.74563(10) 0.79226(7) 0.23125(4)
N2_11 N 0.8722(4) 0.6907(4) 0.2499(2)
N4_12 N 0.7821(4) 0.6153(3) 0.2560(3)
O1_12 O 0.6510(4) 0.7241(4) 0.2710(2)
S1_11 S 0.74063(19) 0.71598(14) 0.23116(8)
S2_12 S 0.76852(14) 0.71096(11) 0.29204(7)
S3_11 S 0.72132(15) 0.81582(12) 0.26629(7)
Cl1_11 Cl 0.7957(3) 0.8336(2) 0.20615(10)
C6_11 C 0.9789(5) 0.6934(4) 0.2381(3)
C7_11 C 0.9405(9) 0.7053(8) 0.2226(4)
H5_11 H 0.9488 0.7132 0.2077
C8_11 C 0.8864(10) 0.7050(8) 0.2307(4)
H6_11 H 0.8608 0.7162 0.2210
C9_12 C 0.9101(7) 0.6771(6) 0.2633(3)
H7_12 H 0.9006 0.6659 0.2776
C10_12 C 0.9621(7) 0.6778(6) 0.2583(3)
H8_12 H 0.9861 0.6674 0.2690
C16_12 C 0.7373(8) 0.5998(5) 0.2629(6)
H13_12 H 0.7136 0.6194 0.2697
C17_12 C 0.7236(7) 0.5547(6) 0.2603(5)
H14_12 H 0.6904 0.5455 0.2648
C18_12 C 0.7570(5) 0.5237(4) 0.2516(3)
C19_11 C 0.8042(5) 0.5416(4) 0.2451(3)
H15_11 H 0.8296 0.5222 0.2393
C20_11 C 0.8155(6) 0.5858(5) 0.2468(3)
H16_11 H 0.8475 0.5961 0.2414
Cu5_7 Cu 0.70446(7) 0.31517(5) 0.24246(4)
N5_12 N 0.8594(4) 0.7989(4) 0.2813(2)
N9_7 N 0.7179(4) 0.3847(3) 0.2440(3)
C21_12 C 0.8982(7) 0.7836(6) 0.2938(3)
H17_12 H 0.8888 0.7697 0.3074
C22_12 C 0.9503(6) 0.7854(7) 0.2893(3)
H18_12 H 0.9745 0.7742 0.2997
C23_12 C 0.9669(5) 0.8050(4) 0.2683(3)
C24_12 C 0.9260(6) 0.8197(7) 0.2545(4)
H19_11 H 0.9337 0.8315 0.2402
C25_12 C 0.8749(6) 0.8174(6) 0.2614(3)
H20_12 H 0.8495 0.8292 0.2517
C36_11 C 0.7627(8) 0.4002(5) 0.2371(6)
H29_11 H 0.7864 0.3806 0.2303
C37_11 C 0.7764(7) 0.4453(6) 0.2397(5)
H30_11 H 0.8096 0.4545 0.2352
C38_11 C 0.7430(5) 0.4763(4) 0.2484(3)
C39_12 C 0.6958(5) 0.4584(4) 0.2549(3)
H31_12 H 0.6704 0.4778 0.2607
C40_12 C 0.6845(6) 0.4142(5) 0.2532(3)
H32_12 H 0.6525 0.4039 0.2586
W1_13 W 0.21451(2) 0.510000(18) 0.484440(12)
Cu1_13 Cu 0.29554(7) 0.56517(5) 0.49246(4)
Cu2_11 Cu 0.24563(10) 0.45774(7) 0.51875(4)
Cu3_7 Cu 0.28226(7) 0.46271(5) 0.45897(3)
N1_13 N 0.6406(4) 0.5489(4) 0.5313(2)
N2_12 N 0.3722(4) 0.5593(4) 0.5001(2)
N3_7 N 0.2837(5) 0.4327(4) 0.4281(2)
N4_13 N 0.2821(4) 0.6347(3) 0.4940(3)
O1_13 O 0.1510(4) 0.5259(4) 0.4790(2)
S1_12 S 0.24063(19) 0.53402(14) 0.51884(8)
S2_13 S 0.26852(14) 0.53904(11) 0.45796(7)
S3_12 S 0.22132(15) 0.43418(12) 0.48371(7)
Cl1_12 Cl 0.2957(3) 0.4164(2) 0.54385(10)
C1_13 C 0.6018(7) 0.5336(6) 0.5438(3)
H1_13 H 0.6112 0.5197 0.5574
C2_13 C 0.5497(6) 0.5354(7) 0.5393(3)
H2_13 H 0.5255 0.5242 0.5497
C3_13 C 0.5331(5) 0.5550(4) 0.5183(3)
C4_13 C 0.5740(6) 0.5697(7) 0.5045(4)
H3_12 H 0.5663 0.5815 0.4902
C5_13 C 0.6251(6) 0.5674(6) 0.5114(3)
H4_13 H 0.6505 0.5792 0.5017
C6_12 C 0.4789(5) 0.5566(4) 0.5119(3)
C7_12 C 0.4405(9) 0.5447(8) 0.5274(4)
H5_12 H 0.4488 0.5368 0.5423
C8_12 C 0.3864(10) 0.5450(8) 0.5193(4)
H6_12 H 0.3608 0.5338 0.5290
C9_13 C 0.4101(7) 0.5729(6) 0.4867(3)
H7_13 H 0.4006 0.5841 0.4724
C10_13 C 0.4621(7) 0.5722(6) 0.4917(3)
H8_13 H 0.4861 0.5826 0.4810
C11_11 C 0.2895(8) 0.3898(9) 0.4273(4)
H9_11 H 0.2932 0.3739 0.4409
C12_11 C 0.2904(8) 0.3645(9) 0.4053(4)
H10_11 H 0.2939 0.3332 0.4055
C13_11 C 0.2865(8) 0.3851(9) 0.3857(4)
C14_11 C 0.2826(8) 0.4301(8) 0.3885(4)
H11_11 H 0.2833 0.4474 0.3752
C15_11 C 0.2776(9) 0.4541(9) 0.4091(4)
H12_11 H 0.2701 0.4847 0.4091
C16_13 C 0.2373(8) 0.6502(5) 0.4871(6)
H13_13 H 0.2136 0.6306 0.4803
C17_13 C 0.2236(7) 0.6953(6) 0.4897(5)
H14_13 H 0.1904 0.7045 0.4852
C18_13 C 0.2570(5) 0.7263(4) 0.4984(3)
C19_12 C 0.3042(5) 0.7084(4) 0.5049(3)
H15_12 H 0.3296 0.7278 0.5107
C20_12 C 0.3155(6) 0.6642(5) 0.5032(3)
H16_12 H 0.3475 0.6539 0.5086
W2_13 W 0.78549(2) 0.490000(18) 0.515560(12)
Cu6_10 Cu 0.75437(10) 0.54226(7) 0.48125(4)
Cu7_13 Cu 0.71774(7) 0.53729(5) 0.54103(3)
Cu8_7 Cu 0.28226(7) 0.28729(5) 0.29103(3)
N5_13 N 0.3594(4) 0.4511(4) 0.4687(2)
N6_12 N 0.6278(4) 0.4407(4) 0.4999(2)
N7_7 N 0.2837(5) 0.3173(4) 0.3219(2)
N8_13 N 0.7163(5) 0.5673(4) 0.5719(2)
O2_13 O 0.8490(4) 0.4741(4) 0.5210(2)
S4_11 S 0.75937(19) 0.46598(14) 0.48116(8)
S5_13 S 0.73148(14) 0.46096(11) 0.54204(7)
S6_12 S 0.77868(15) 0.56582(12) 0.51629(7)
Cl2_12 Cl 0.7043(3) 0.5836(2) 0.45615(10)
C21_13 C 0.3982(7) 0.4664(6) 0.4562(3)
H17_13 H 0.3888 0.4803 0.4426
C22_13 C 0.4503(6) 0.4646(7) 0.4607(3)
H18_13 H 0.4745 0.4758 0.4503
C23_13 C 0.4669(5) 0.4450(4) 0.4817(3)
C24_13 C 0.4260(6) 0.4303(7) 0.4955(4)
H19_12 H 0.4337 0.4185 0.5098
C25_13 C 0.3749(6) 0.4326(6) 0.4886(3)
H20_13 H 0.3495 0.4208 0.4983
C26_12 C 0.5211(5) 0.4434(4) 0.4881(3)
C27_12 C 0.5595(9) 0.4553(8) 0.4726(4)
H21_12 H 0.5512 0.4632 0.4577
C28_12 C 0.6136(10) 0.4550(8) 0.4807(4)
H22_12 H 0.6392 0.4662 0.4710
C29_13 C 0.5899(7) 0.4271(6) 0.5133(3)
H23_13 H 0.5994 0.4159 0.5276
C30_13 C 0.5379(7) 0.4278(6) 0.5083(3)
H24_13 H 0.5139 0.4174 0.5190
C31_11 C 0.2895(8) 0.3602(9) 0.3227(4)
H25_11 H 0.2932 0.3761 0.3091
C32_11 C 0.2904(8) 0.3855(9) 0.3447(4)
H26_11 H 0.2939 0.4168 0.3445
C33_11 C 0.2865(8) 0.3649(9) 0.3643(4)
C34_11 C 0.2826(8) 0.3199(8) 0.3615(4)
H27_11 H 0.2833 0.3026 0.3748
C35_11 C 0.2776(9) 0.2959(9) 0.3409(4)
H28_11 H 0.2701 0.2653 0.3409
C36_12 C 0.2627(8) 0.8498(5) 0.5129(6)
H29_12 H 0.2864 0.8694 0.5197
C37_12 C 0.2764(7) 0.8047(6) 0.5103(5)
H30_12 H 0.3096 0.7955 0.5148
C38_12 C 0.2430(5) 0.7737(4) 0.5016(3)
C39_13 C 0.1958(5) 0.7916(4) 0.4951(3)
H31_13 H 0.1704 0.7722 0.4893
C40_13 C 0.1845(6) 0.8358(5) 0.4968(3)
H32_13 H 0.1525 0.8461 0.4914
W1_14 W 0.21451(2) 0.240000(18) 0.265560(12)
Cu1_14 Cu 0.29554(7) 0.18483(5) 0.25754(4)
Cu2_12 Cu 0.24563(10) 0.29226(7) 0.23125(4)
N1_14 N 0.6406(4) 0.2011(4) 0.2187(2)
N2_13 N 0.3722(4) 0.1907(4) 0.2499(2)
N4_14 N 0.2821(4) 0.1153(3) 0.2560(3)
O1_14 O 0.1510(4) 0.2241(4) 0.2710(2)
S1_13 S 0.24063(19) 0.21598(14) 0.23116(8)
S2_14 S 0.26852(14) 0.21096(11) 0.29204(7)
S3_13 S 0.22132(15) 0.31582(12) 0.26629(7)
Cl1_13 Cl 0.2957(3) 0.3336(2) 0.20615(10)
C1_14 C 0.6018(7) 0.2164(6) 0.2062(3)
H1_14 H 0.6112 0.2303 0.1926
C2_14 C 0.5497(6) 0.2146(7) 0.2107(3)
H2_14 H 0.5255 0.2258 0.2003
C3_14 C 0.5331(5) 0.1950(4) 0.2317(3)
C4_14 C 0.5740(6) 0.1803(7) 0.2455(4)
H3_13 H 0.5663 0.1685 0.2598
C5_14 C 0.6251(6) 0.1826(6) 0.2386(3)
H4_14 H 0.6505 0.1708 0.2483
C6_13 C 0.4789(5) 0.1934(4) 0.2381(3)
C7_13 C 0.4405(9) 0.2053(8) 0.2226(4)
H5_13 H 0.4488 0.2132 0.2077
C8_13 C 0.3864(10) 0.2050(8) 0.2307(4)
H6_13 H 0.3608 0.2162 0.2210
C9_14 C 0.4101(7) 0.1771(6) 0.2633(3)
H7_14 H 0.4006 0.1659 0.2776
C10_14 C 0.4621(7) 0.1778(6) 0.2583(3)
H8_14 H 0.4861 0.1674 0.2690
C16_14 C 0.2373(8) 0.0998(5) 0.2629(6)
H13_14 H 0.2136 0.1194 0.2697
C17_14 C 0.2236(7) 0.0547(6) 0.2603(5)
H14_14 H 0.1904 0.0455 0.2648
C18_14 C 0.2570(5) 0.0237(4) 0.2516(3)
C19_13 C 0.3042(5) 0.0416(4) 0.2451(3)
H15_13 H 0.3296 0.0222 0.2393
C20_13 C 0.3155(6) 0.0858(5) 0.2468(3)
H16_13 H 0.3475 0.0961 0.2414
W2_14 W 0.78549(2) 0.260000(18) 0.234440(12)
Cu6_11 Cu 0.75437(10) 0.20774(7) 0.26875(4)
Cu7_14 Cu 0.71774(7) 0.21271(5) 0.20897(3)
N5_14 N 0.3594(4) 0.2989(4) 0.2813(2)
N6_13 N 0.6278(4) 0.3093(4) 0.2501(2)
N8_14 N 0.7163(5) 0.1827(4) 0.1781(2)
O2_14 O 0.8490(4) 0.2759(4) 0.2290(2)
S4_12 S 0.75937(19) 0.28402(14) 0.26884(8)
S5_14 S 0.73148(14) 0.28904(11) 0.20796(7)
S6_13 S 0.77868(15) 0.18418(12) 0.23371(7)
Cl2_13 Cl 0.7043(3) 0.1664(2) 0.29385(10)
C21_14 C 0.3982(7) 0.2836(6) 0.2938(3)
H17_14 H 0.3888 0.2697 0.3074
C22_14 C 0.4503(6) 0.2854(7) 0.2893(3)
H18_14 H 0.4745 0.2742 0.2997
C23_14 C 0.4669(5) 0.3050(4) 0.2683(3)
C24_14 C 0.4260(6) 0.3197(7) 0.2545(4)
H19_13 H 0.4337 0.3315 0.2402
C25_14 C 0.3749(6) 0.3174(6) 0.2614(3)
H20_14 H 0.3495 0.3292 0.2517
C26_13 C 0.5211(5) 0.3066(4) 0.2619(3)
C27_13 C 0.5595(9) 0.2947(8) 0.2774(4)
H21_13 H 0.5512 0.2868 0.2923
C28_13 C 0.6136(10) 0.2950(8) 0.2693(4)
H22_13 H 0.6392 0.2838 0.2790
C29_14 C 0.5899(7) 0.3229(6) 0.2367(3)
H23_14 H 0.5994 0.3341 0.2224
C30_14 C 0.5379(7) 0.3222(6) 0.2417(3)
H24_14 H 0.5139 0.3326 0.2310
C36_13 C 0.2627(8) 0.9002(5) 0.2371(6)
H29_13 H 0.2864 0.8806 0.2303
C37_13 C 0.2764(7) 0.9453(6) 0.2397(5)
H30_13 H 0.3096 0.9545 0.2352
C38_13 C 0.2430(5) 0.9763(4) 0.2484(3)
C39_14 C 0.1958(5) 0.9584(4) 0.2549(3)
H31_14 H 0.1704 0.9778 0.2607
C40_14 C 0.1845(6) 0.9142(5) 0.2532(3)
H32_14 H 0.1525 0.9039 0.2586
N1_15 N 0.6406(4) 0.0489(4) 0.0313(2)
N2_14 N 0.3722(4) 0.0593(4) 0.0001(2)
S1_14 S 0.24063(19) 0.03402(14) 0.01884(8)
C1_15 C 0.6018(7) 0.0336(6) 0.0438(3)
H1_15 H 0.6112 0.0197 0.0574
C2_15 C 0.5497(6) 0.0354(7) 0.0393(3)
H2_15 H 0.5255 0.0242 0.0497
C3_15 C 0.5331(5) 0.0550(4) 0.0183(3)
C4_15 C 0.5740(6) 0.0697(7) 0.0045(4)
C5_15 C 0.6251(6) 0.0674(6) 0.0114(3)
H4_15 H 0.6505 0.0792 0.0017
C6_14 C 0.4789(5) 0.0566(4) 0.0119(3)
C7_14 C 0.4405(9) 0.0447(8) 0.0274(4)
H5_14 H 0.4488 0.0368 0.0423
C8_14 C 0.3864(10) 0.0450(8) 0.0193(4)
H6_14 H 0.3608 0.0338 0.0290
C19_14 C 0.3042(5) 0.2084(4) 0.0049(3)
H15_14 H 0.3296 0.2278 0.0107
C20_14 C 0.3155(6) 0.1642(5) 0.0032(3)
H16_14 H 0.3475 0.1539 0.0086
Cu7_15 Cu 0.71774(7) 0.03729(5) 0.04103(3)
N8_15 N 0.7163(5) 0.0673(4) 0.0719(2)
S6_14 S 0.77868(15) 0.06582(12) 0.01629(7)
C36_14 C 0.2627(8) 0.3498(5) 0.0129(6)
H29_14 H 0.2864 0.3694 0.0197
C37_14 C 0.2764(7) 0.3047(6) 0.0103(5)
H30_14 H 0.3096 0.2955 0.0148
C38_14 C 0.2430(5) 0.2737(4) 0.0016(3)
Cu3_8 Cu 0.28226(7) 0.96271(5) 0.95897(3)
N3_8 N 0.2837(5) 0.9327(4) 0.9281(2)
S3_14 S 0.22132(15) 0.93418(12) 0.98371(7)
C11_12 C 0.2895(8) 0.8898(9) 0.9273(4)
H9_12 H 0.2932 0.8739 0.9409
C12_12 C 0.2904(8) 0.8645(9) 0.9053(4)
H10_12 H 0.2939 0.8332 0.9055
C13_12 C 0.2865(8) 0.8851(9) 0.8857(4)
C14_12 C 0.2826(8) 0.9301(8) 0.8885(4)
H11_12 H 0.2833 0.9474 0.8752
C15_12 C 0.2776(9) 0.9541(9) 0.9091(4)
H12_12 H 0.2701 0.9847 0.9091
Cu8_8 Cu 0.28226(7) 0.78729(5) 0.79103(3)
N5_15 N 0.3594(4) 0.9511(4) 0.9687(2)
N6_14 N 0.6278(4) 0.9407(4) 0.9999(2)
N7_8 N 0.2837(5) 0.8173(4) 0.8219(2)
S4_13 S 0.75937(19) 0.96598(14) 0.98116(8)
C21_15 C 0.3982(7) 0.9664(6) 0.9562(3)
H17_15 H 0.3888 0.9803 0.9426
C22_15 C 0.4503(6) 0.9646(7) 0.9607(3)
H18_15 H 0.4745 0.9758 0.9503
C23_15 C 0.4669(5) 0.9450(4) 0.9817(3)
C24_15 C 0.4260(6) 0.9303(7) 0.9955(4)
C25_15 C 0.3749(6) 0.9326(6) 0.9886(3)
H20_15 H 0.3495 0.9208 0.9983
C26_14 C 0.5211(5) 0.9434(4) 0.9881(3)
C27_14 C 0.5595(9) 0.9553(8) 0.9726(4)
H21_14 H 0.5512 0.9632 0.9577
C28_14 C 0.6136(10) 0.9550(8) 0.9807(4)
H22_14 H 0.6392 0.9662 0.9710
C31_12 C 0.2895(8) 0.8602(9) 0.8227(4)
H25_12 H 0.2932 0.8761 0.8091
C32_12 C 0.2904(8) 0.8855(9) 0.8447(4)
H26_12 H 0.2939 0.9168 0.8445
C33_12 C 0.2865(8) 0.8649(9) 0.8643(4)
C34_12 C 0.2826(8) 0.8199(8) 0.8615(4)
H27_12 H 0.2833 0.8026 0.8748
C35_12 C 0.2776(9) 0.7959(9) 0.8409(4)
H28_12 H 0.2701 0.7653 0.8409
W1_15 W 0.21451(2) 0.740000(18) 0.765560(12)
Cu1_15 Cu 0.29554(7) 0.68483(5) 0.75754(4)
Cu2_13 Cu 0.24563(10) 0.79226(7) 0.73125(4)
N1_16 N 0.6406(4) 0.7011(4) 0.7187(2)
N2_15 N 0.3722(4) 0.6907(4) 0.7499(2)
N4_15 N 0.2821(4) 0.6153(3) 0.7560(3)
O1_15 O 0.1510(4) 0.7241(4) 0.7710(2)
S1_15 S 0.24063(19) 0.71598(14) 0.73116(8)
S2_15 S 0.26852(14) 0.71096(11) 0.79204(7)
S3_15 S 0.22132(15) 0.81582(12) 0.76629(7)
Cl1_14 Cl 0.2957(3) 0.8336(2) 0.70615(10)
C1_16 C 0.6018(7) 0.7164(6) 0.7062(3)
H1_16 H 0.6112 0.7303 0.6926
C2_16 C 0.5497(6) 0.7146(7) 0.7107(3)
H2_16 H 0.5255 0.7258 0.7003
C3_16 C 0.5331(5) 0.6950(4) 0.7317(3)
C4_16 C 0.5740(6) 0.6803(7) 0.7455(4)
H3_14 H 0.5663 0.6685 0.7598
C5_16 C 0.6251(6) 0.6826(6) 0.7386(3)
H4_16 H 0.6505 0.6708 0.7483
C6_15 C 0.4789(5) 0.6934(4) 0.7381(3)
C7_15 C 0.4405(9) 0.7053(8) 0.7226(4)
H5_15 H 0.4488 0.7132 0.7077
C8_15 C 0.3864(10) 0.7050(8) 0.7307(4)
H6_15 H 0.3608 0.7162 0.7210
C9_15 C 0.4101(7) 0.6771(6) 0.7633(3)
H7_15 H 0.4006 0.6659 0.7776
C10_15 C 0.4621(7) 0.6778(6) 0.7583(3)
H8_15 H 0.4861 0.6674 0.7690
C16_15 C 0.2373(8) 0.5998(5) 0.7629(6)
H13_15 H 0.2136 0.6194 0.7697
C17_15 C 0.2236(7) 0.5547(6) 0.7603(5)
H14_15 H 0.1904 0.5455 0.7648
C18_15 C 0.2570(5) 0.5237(4) 0.7516(3)
C19_15 C 0.3042(5) 0.5416(4) 0.7451(3)
H15_15 H 0.3296 0.5222 0.7393
C20_15 C 0.3155(6) 0.5858(5) 0.7468(3)
H16_15 H 0.3475 0.5961 0.7414
W2_15 W 0.78549(2) 0.760000(18) 0.734440(12)
Cu6_12 Cu 0.75437(10) 0.70774(7) 0.76875(4)
Cu7_16 Cu 0.71774(7) 0.71271(5) 0.70897(3)
N5_16 N 0.3594(4) 0.7989(4) 0.7813(2)
N6_15 N 0.6278(4) 0.8093(4) 0.7501(2)
N8_16 N 0.7163(5) 0.6827(4) 0.6781(2)
O2_15 O 0.8490(4) 0.7759(4) 0.7290(2)
S4_14 S 0.75937(19) 0.78402(14) 0.76884(8)
S5_15 S 0.73148(14) 0.78904(11) 0.70796(7)
S6_15 S 0.77868(15) 0.68418(12) 0.73371(7)
Cl2_14 Cl 0.7043(3) 0.6664(2) 0.79385(10)
C21_16 C 0.3982(7) 0.7836(6) 0.7938(3)
H17_16 H 0.3888 0.7697 0.8074
C22_16 C 0.4503(6) 0.7854(7) 0.7893(3)
H18_16 H 0.4745 0.7742 0.7997
C23_16 C 0.4669(5) 0.8050(4) 0.7683(3)
C24_16 C 0.4260(6) 0.8197(7) 0.7545(4)
H19_14 H 0.4337 0.8315 0.7402
C25_16 C 0.3749(6) 0.8174(6) 0.7614(3)
H20_16 H 0.3495 0.8292 0.7517
C26_15 C 0.5211(5) 0.8066(4) 0.7619(3)
C27_15 C 0.5595(9) 0.7947(8) 0.7774(4)
H21_15 H 0.5512 0.7868 0.7923
C28_15 C 0.6136(10) 0.7950(8) 0.7693(4)
H22_15 H 0.6392 0.7838 0.7790
C29_15 C 0.5899(7) 0.8229(6) 0.7367(3)
H23_15 H 0.5994 0.8341 0.7224
C30_15 C 0.5379(7) 0.8222(6) 0.7417(3)
H24_15 H 0.5139 0.8326 0.7310
C36_15 C 0.2627(8) 0.4002(5) 0.7371(6)
H29_15 H 0.2864 0.3806 0.7303
C37_15 C 0.2764(7) 0.4453(6) 0.7397(5)
H30_15 H 0.3096 0.4545 0.7352
C38_15 C 0.2430(5) 0.4763(4) 0.7484(3)
C39_15 C 0.1958(5) 0.4584(4) 0.7549(3)
H31_15 H 0.1704 0.4778 0.7607
C40_15 C 0.1845(6) 0.4142(5) 0.7532(3)
H32_15 H 0.1525 0.4039 0.7586
C11_13 C 0.2105(8) 0.6102(9) 0.0727(4)
H9_13 H 0.2068 0.6261 0.0591
C12_13 C 0.2096(8) 0.6355(9) 0.0947(4)
H10_13 H 0.2061 0.6668 0.0945
C13_13 C 0.2135(8) 0.6149(9) 0.1143(4)
C14_13 C 0.2174(8) 0.5699(8) 0.1115(4)
H11_13 H 0.2167 0.5526 0.1248
C15_13 C 0.2224(9) 0.5459(9) 0.0909(4)
H12_13 H 0.2299 0.5153 0.0909
C31_13 C 0.2105(8) 0.6398(9) 0.1773(4)
H25_13 H 0.2068 0.6239 0.1909
C32_13 C 0.2096(8) 0.6145(9) 0.1553(4)
H26_13 H 0.2061 0.5832 0.1555
C33_13 C 0.2135(8) 0.6351(9) 0.1357(4)
C34_13 C 0.2174(8) 0.6801(8) 0.1385(4)
H27_13 H 0.2167 0.6974 0.1252
C35_13 C 0.2224(9) 0.7041(9) 0.1591(4)
H28_13 H 0.2299 0.7347 0.1591
C11_14 C 0.2105(8) 0.1102(9) 0.5727(4)
H9_14 H 0.2068 0.1261 0.5591
C12_14 C 0.2096(8) 0.1355(9) 0.5947(4)
H10_14 H 0.2061 0.1668 0.5945
C13_14 C 0.2135(8) 0.1149(9) 0.6143(4)
C14_14 C 0.2174(8) 0.0699(8) 0.6115(4)
H11_14 H 0.2167 0.0526 0.6248
C15_14 C 0.2224(9) 0.0459(9) 0.5909(4)
H12_14 H 0.2299 0.0153 0.5909
C31_14 C 0.2105(8) 0.1398(9) 0.6773(4)
H25_14 H 0.2068 0.1239 0.6909
C32_14 C 0.2096(8) 0.1145(9) 0.6553(4)
H26_14 H 0.2061 0.0832 0.6555
C33_14 C 0.2135(8) 0.1351(9) 0.6357(4)
C34_14 C 0.2174(8) 0.1801(8) 0.6385(4)
H27_14 H 0.2167 0.1974 0.6252
C35_14 C 0.2224(9) 0.2041(9) 0.6591(4)
H28_14 H 0.2299 0.2347 0.6591
C11_15 C 0.7105(8) 0.6102(9) 0.5727(4)
H9_15 H 0.7068 0.6261 0.5591
C12_15 C 0.7096(8) 0.6355(9) 0.5947(4)
H10_15 H 0.7061 0.6668 0.5945
C13_15 C 0.7135(8) 0.6149(9) 0.6143(4)
C14_15 C 0.7174(8) 0.5699(8) 0.6115(4)
H11_15 H 0.7167 0.5526 0.6248
C15_15 C 0.7224(9) 0.5459(9) 0.5909(4)
H12_15 H 0.7299 0.5153 0.5909
C31_15 C 0.7105(8) 0.6398(9) 0.6773(4)
H25_15 H 0.7068 0.6239 0.6909
C32_15 C 0.7096(8) 0.6145(9) 0.6553(4)
H26_15 H 0.7061 0.5832 0.6555
C33_15 C 0.7135(8) 0.6351(9) 0.6357(4)
C34_15 C 0.7174(8) 0.6801(8) 0.6385(4)
H27_15 H 0.7167 0.6974 0.6252
C35_15 C 0.7224(9) 0.7041(9) 0.6591(4)
H28_15 H 0.7299 0.7347 0.6591
C11_16 C 0.7105(8) 0.1102(9) 0.0727(4)
H9_16 H 0.7068 0.1261 0.0591
C12_16 C 0.7096(8) 0.1355(9) 0.0947(4)
H10_16 H 0.7061 0.1668 0.0945
C13_16 C 0.7135(8) 0.1149(9) 0.1143(4)
C14_16 C 0.7174(8) 0.0699(8) 0.1115(4)
H11_16 H 0.7167 0.0526 0.1248
C15_16 C 0.7224(9) 0.0459(9) 0.0909(4)
H12_16 H 0.7299 0.0153 0.0909
C31_16 C 0.7105(8) 0.1398(9) 0.1773(4)
H25_16 H 0.7068 0.1239 0.1909
C32_16 C 0.7096(8) 0.1145(9) 0.1553(4)
H26_16 H 0.7061 0.0832 0.1555
C33_16 C 0.7135(8) 0.1351(9) 0.1357(4)
C34_16 C 0.7174(8) 0.1801(8) 0.1385(4)
H27_16 H 0.7167 0.1974 0.1252
C35_16 C 0.7224(9) 0.2041(9) 0.1591(4)
H28_16 H 0.7299 0.2347 0.1591
H3_15 H 0.0663 0.5815 0.9902
Cu6_13 Cu 0.25437(10) 0.54226(7) 0.98125(4)
N6_16 N 0.1278(4) 0.4407(4) 0.9999(2)
S4_15 S 0.25937(19) 0.46598(14) 0.98116(8)
Cl2_15 Cl 0.2043(3) 0.5836(2) 0.95615(10)
C26_16 C 0.0211(5) 0.4434(4) 0.9881(3)
C27_16 C 0.0595(9) 0.4553(8) 0.9726(4)
H21_16 H 0.0512 0.4632 0.9577
C28_16 C 0.1136(10) 0.4550(8) 0.9807(4)
H22_16 H 0.1392 0.4662 0.9710
W1_16 W 0.21451(2) 0.010000(18) 0.984440(12)
Cu1_16 Cu 0.29554(7) 0.06517(5) 0.99246(4)
N4_16 N 0.2821(4) 0.1347(3) 0.9940(3)
O1_16 O 0.1510(4) 0.0259(4) 0.9790(2)
S2_16 S 0.26852(14) 0.03904(11) 0.95796(7)
H3_16 H 0.5663 0.0815 0.9902
C9_16 C 0.4101(7) 0.0729(6) 0.9867(3)
H7_16 H 0.4006 0.0841 0.9724
C10_16 C 0.4621(7) 0.0722(6) 0.9917(3)
H8_16 H 0.4861 0.0826 0.9810
C16_16 C 0.2373(8) 0.1502(5) 0.9871(6)
H13_16 H 0.2136 0.1306 0.9803
C17_16 C 0.2236(7) 0.1953(6) 0.9897(5)
H14_16 H 0.1904 0.2045 0.9852
C18_16 C 0.2570(5) 0.2263(4) 0.9984(3)
Cu6_14 Cu 0.75437(10) 0.04226(7) 0.98125(4)
Cl2_16 Cl 0.7043(3) 0.0836(2) 0.95615(10)
C39_16 C 0.1958(5) 0.2916(4) 0.9951(3)
H31_16 H 0.1704 0.2722 0.9893
C40_16 C 0.1845(6) 0.3358(5) 0.9968(3)
H32_16 H 0.1525 0.3461 0.9914
Cu2_14 Cu 0.74563(10) 0.45774(7) 0.01875(4)
N2_16 N 0.8722(4) 0.5593(4) 0.0001(2)
S1_16 S 0.74063(19) 0.53402(14) 0.01884(8)
Cl1_15 Cl 0.7957(3) 0.4164(2) 0.04385(10)
C6_16 C 0.9789(5) 0.5566(4) 0.0119(3)
C7_16 C 0.9405(9) 0.5447(8) 0.0274(4)
H5_16 H 0.9488 0.5368 0.0423
C8_16 C 0.8864(10) 0.5450(8) 0.0193(4)
H6_16 H 0.8608 0.5338 0.0290
C19_16 C 0.8042(5) 0.7084(4) 0.0049(3)
H15_16 H 0.8296 0.7278 0.0107
C20_16 C 0.8155(6) 0.6642(5) 0.0032(3)
H16_16 H 0.8475 0.6539 0.0086
Cu5_8 Cu 0.70446(7) 0.93483(5) 0.00754(4)
N9_8 N 0.7179(4) 0.8653(3) 0.0060(3)
H19_15 H 0.9337 0.4185 0.0098
C36_16 C 0.7627(8) 0.8498(5) 0.0129(6)
H29_16 H 0.7864 0.8694 0.0197
C37_16 C 0.7764(7) 0.8047(6) 0.0103(5)
H30_16 H 0.8096 0.7955 0.0148
C38_16 C 0.7430(5) 0.7737(4) 0.0016(3)
Cu2_15 Cu 0.24563(10) 0.95774(7) 0.01875(4)
Cl1_16 Cl 0.2957(3) 0.9164(2) 0.04385(10)
W2_16 W 0.78549(2) 0.990000(18) 0.015560(12)
O2_16 O 0.8490(4) 0.9741(4) 0.0210(2)
S5_16 S 0.73148(14) 0.96096(11) 0.04204(7)
H19_16 H 0.4337 0.9185 0.0098
C29_16 C 0.5899(7) 0.9271(6) 0.0133(3)
H23_16 H 0.5994 0.9159 0.0276
C30_16 C 0.5379(7) 0.9278(6) 0.0083(3)
H24_16 H 0.5139 0.9174 0.0190
Cu2_16 Cu 0.00437(10) 0.95774(7) 0.23125(4)
S3_16 S 0.02868(15) 0.93418(12) 0.26629(7)
Cu6_15 Cu 0.99563(10) 0.70774(7) 0.98125(4)
S4_16 S 0.99063(19) 0.78402(14) 0.98116(8)
Cu6_16 Cu 0.99563(10) 0.04226(7) 0.76875(4)
S6_16 S 0.97132(15) 0.06582(12) 0.73371(7)
loop_
_geom_bond_atom_site_label_1
_geom_bond_atom_site_label_2
_geom_bond_site_symmetry_1
_geom_bond_site_symmetry_2
Cu2 S1 1_555 1_555
O1 W1 1_555 1_555
S3 W1 1_555 1_555
H13 C16 1_555 1_555
C17 C16 1_555 1_555
H14 C17 1_555 1_555
Cu5 N9 1_555 1_555
H31 C39 1_555 1_555
H32 C40 1_555 1_555
C39 C40 1_555 1_555
N1 C1 1_555 1_555
N2 C8 1_555 1_555
C1 H1 1_555 1_555
C2 C1 1_555 1_555
H2 C2 1_555 1_555
C3 C2 1_555 1_555
C4 C3 1_555 1_555
C5 N1 1_555 1_555
H4 C5 1_555 1_555
C6 C3 1_555 1_555
C7 C6 1_555 1_555
H5 C7 1_555 1_555
C8 C7 1_555 1_555
H6 C8 1_555 1_555
H15 C19 1_555 1_555
H16 C20 1_555 1_555
W2 Cu4 1_555 1_555
Cu7 N1 1_555 1_555
N8 Cu7 1_555 1_555
N10 Cu4 1_555 1_555
O2 W2 1_555 1_555
S5 W2 1_555 1_555
S6 W2 1_555 1_555
H23 C29 1_555 1_555
H24 C30 1_555 1_555
C4 C5 1_555 1_555
C19 C20 1_555 1_555
W2 Cu7 1_555 1_555
Cu4 S5 1_555 1_555
Cu7 S5 1_555 1_555
Cu7 S6 1_555 1_555
C29 C30 1_555 1_555
N3 Cu3 1_555 1_555
N4 Cu1 1_555 1_555
H7 C9 1_555 1_555
H8 C10 1_555 1_555
C11 N3 1_555 1_555
H9 C11 1_555 1_555
C12 C11 1_555 1_555
H10 C12 1_555 1_555
C13 C12 1_555 1_555
C14 C13 1_555 1_555
H11 C14 1_555 1_555
C15 N3 1_555 1_555
H12 C15 1_555 1_555
Cu8 N7 1_555 1_555
N5 Cu3 1_555 1_555
N6 C28 1_555 1_555
N7 C31 1_555 1_555
Cl2 Cu6 1_555 1_555
C21 N5 1_555 1_555
H17 C21 1_555 1_555
C22 C21 1_555 1_555
H18 C22 1_555 1_555
C23 C22 1_555 1_555
C24 C23 1_555 1_555
C25 N5 1_555 1_555
H20 C25 1_555 1_555
C26 C23 1_555 1_555
C27 C26 1_555 1_555
H21 C27 1_555 1_555
C28 C27 1_555 1_555
H22 C28 1_555 1_555
C31 H25 1_555 1_555
C32 C31 1_555 1_555
H26 C32 1_555 1_555
C33 C13 1_555 1_555
C34 C33 1_555 1_555
H27 C34 1_555 1_555
C35 N7 1_555 1_555
H28 C35 1_555 1_555
Cu1 S2 1_555 1_555
Cu3 S2 1_555 1_555
C9 C10 1_555 1_555
C14 C15 1_555 1_555
Cu6 S4 1_555 1_555
C24 C25 1_555 1_555
C32 C33 1_555 1_555
C34 C35 1_555 1_555
Cu2_2 W1_2 1_555 1_555
O1_2 W1_2 1_555 1_555
S1_2 W1_2 1_555 1_555
S3_2 W1_2 1_555 1_555
H13_2 C16_2 1_555 1_555
C17_2 C16_2 1_555 1_555
H14_2 C17_2 1_555 1_555
Cu5_2 N9_2 1_555 1_555
C39_2 C38_2 1_555 1_555
H31_2 C39_2 1_555 1_555
C40_2 N9_2 1_555 1_555
H32_2 C40_2 1_555 1_555
Cu2_2 S1_2 1_555 1_555
Cu2_2 S3_2 1_555 1_555
C39_2 C40_2 1_555 1_555
Cu1_2 N2_2 1_555 1_555
N1_2 C1_2 1_555 1_555
N2_2 C8_2 1_555 1_555
N4_2 Cu1_2 1_555 1_555
C1_2 H1_2 1_555 1_555
C2_2 C1_2 1_555 1_555
H2_2 C2_2 1_555 1_555
C3_2 C2_2 1_555 1_555
C4_2 C3_2 1_555 1_555
H3_2 C4_2 1_555 1_555
C5_2 N1_2 1_555 1_555
H4_2 C5_2 1_555 1_555
C6_2 C3_2 1_555 1_555
C7_2 C6_2 1_555 1_555
H5_2 C7_2 1_555 1_555
C8_2 C7_2 1_555 1_555
H6_2 C8_2 1_555 1_555
C9_2 N2_2 1_555 1_555
H7_2 C9_2 1_555 1_555
C10_2 C6_2 1_555 1_555
H8_2 C10_2 1_555 1_555
C19_2 C18_2 1_555 1_555
H15_2 C19_2 1_555 1_555
C20_2 N4_2 1_555 1_555
H16_2 C20_2 1_555 1_555
W2_2 Cu4_2 1_555 1_555
Cu4_2 N6_2 1_555 1_555
Cu6_2 W2_2 1_555 1_555
Cu7_2 N1_2 1_555 1_555
N5_2 Cu8 1_555 1_555
N6_2 C28_2 1_555 1_555
N8_2 Cu7_2 1_555 1_555
N10_2 Cu4_2 1_555 1_555
O2_2 W2_2 1_555 1_555
S4_2 W2_2 1_555 1_555
S5_2 W2_2 1_555 1_555
S6_2 W2_2 1_555 1_555
Cl2_2 Cu6_2 1_555 1_555
C21_2 N5_2 1_555 1_555
H17_2 C21_2 1_555 1_555
C22_2 C21_2 1_555 1_555
H18_2 C22_2 1_555 1_555
C23_2 C22_2 1_555 1_555
C24_2 C23_2 1_555 1_555
H19_2 C24_2 1_555 1_555
C25_2 N5_2 1_555 1_555
H20_2 C25_2 1_555 1_555
C26_2 C23_2 1_555 1_555
C27_2 C26_2 1_555 1_555
H21_2 C27_2 1_555 1_555
C28_2 C27_2 1_555 1_555
H22_2 C28_2 1_555 1_555
C29_2 N6_2 1_555 1_555
H23_2 C29_2 1_555 1_555
C30_2 C26_2 1_555 1_555
H24_2 C30_2 1_555 1_555
C36 H29 1_555 1_555
C37 C36 1_555 1_555
H30 C37 1_555 1_555
Cu1_2 S2_2 1_555 1_555
Cu8 S2_2 1_555 1_555
C4_2 C5_2 1_555 1_555
C9_2 C10_2 1_555 1_555
C19_2 C20_2 1_555 1_555
W2_2 Cu7_2 1_555 1_555
Cu4_2 S4_2 1_555 1_555
Cu4_2 S5_2 1_555 1_555
Cu6_2 S4_2 1_555 1_555
Cu6_2 S6_2 1_555 1_555
Cu7_2 S5_2 1_555 1_555
Cu7_2 S6_2 1_555 1_555
C24_2 C25_2 1_555 1_555
C29_2 C30_2 1_555 1_555
Cu2_3 W1_3 1_555 1_555
O1_3 W1_3 1_555 1_555
S1_3 W1_3 1_555 1_555
S3_3 W1_3 1_555 1_555
H13_3 C16_3 1_555 1_555
C17_3 C16_3 1_555 1_555
H14_3 C17_3 1_555 1_555
Cu5_3 N9_3 1_555 1_555
C39_3 C38_3 1_555 1_555
H31_3 C39_3 1_555 1_555
C40_3 N9_3 1_555 1_555
H32_3 C40_3 1_555 1_555
Cu2_3 S1_3 1_555 1_555
Cu2_3 S3_3 1_555 1_555
C39_3 C40_3 1_555 1_555
Cu1_3 N2_3 1_555 1_555
N1_3 C1_3 1_555 1_555
N2_3 C8_3 1_555 1_555
N3_2 Cu3_2 1_555 1_555
N4_3 Cu1_3 1_555 1_555
C1_3 H1_3 1_555 1_555
C2_3 C1_3 1_555 1_555
H2_3 C2_3 1_555 1_555
C3_3 C2_3 1_555 1_555
C4_3 C3_3 1_555 1_555
H3_3 C4_3 1_555 1_555
C5_3 N1_3 1_555 1_555
H4_3 C5_3 1_555 1_555
C6_3 C3_3 1_555 1_555
C7_3 C6_3 1_555 1_555
H5_3 C7_3 1_555 1_555
C8_3 C7_3 1_555 1_555
H6_3 C8_3 1_555 1_555
C9_3 N2_3 1_555 1_555
H7_3 C9_3 1_555 1_555
C10_3 C6_3 1_555 1_555
H8_3 C10_3 1_555 1_555
C11_2 N3_2 1_555 1_555
H9_2 C11_2 1_555 1_555
C12_2 C11_2 1_555 1_555
H10_2 C12_2 1_555 1_555
C13_2 C12_2 1_555 1_555
C14_2 C13_2 1_555 1_555
H11_2 C14_2 1_555 1_555
C15_2 N3_2 1_555 1_555
H12_2 C15_2 1_555 1_555
C19_3 C18_3 1_555 1_555
H15_3 C19_3 1_555 1_555
C20_3 N4_3 1_555 1_555
H16_3 C20_3 1_555 1_555
W2_3 Cu4_3 1_555 1_555
Cu4_3 N6_3 1_555 1_555
Cu6_3 W2_3 1_555 1_555
Cu7_3 N1_3 1_555 1_555
Cu8_2 N7_2 1_555 1_555
N5_3 Cu3_2 1_555 1_555
N6_3 C28_3 1_555 1_555
N7_2 C31_2 1_555 1_555
N8_3 Cu7_3 1_555 1_555
N10_3 Cu4_3 1_555 1_555
O2_3 W2_3 1_555 1_555
S4_3 W2_3 1_555 1_555
S5_3 W2_3 1_555 1_555
S6_3 W2_3 1_555 1_555
Cl2_3 Cu6_3 1_555 1_555
C21_3 N5_3 1_555 1_555
H17_3 C21_3 1_555 1_555
C22_3 C21_3 1_555 1_555
H18_3 C22_3 1_555 1_555
C23_3 C22_3 1_555 1_555
C24_3 C23_3 1_555 1_555
H19_3 C24_3 1_555 1_555
C25_3 N5_3 1_555 1_555
H20_3 C25_3 1_555 1_555
C26_3 C23_3 1_555 1_555
C27_3 C26_3 1_555 1_555
H21_3 C27_3 1_555 1_555
C28_3 C27_3 1_555 1_555
H22_3 C28_3 1_555 1_555
C29_3 N6_3 1_555 1_555
H23_3 C29_3 1_555 1_555
C30_3 C26_3 1_555 1_555
H24_3 C30_3 1_555 1_555
C31_2 H25_2 1_555 1_555
C32_2 C31_2 1_555 1_555
H26_2 C32_2 1_555 1_555
C33_2 C13_2 1_555 1_555
C34_2 C33_2 1_555 1_555
H27_2 C34_2 1_555 1_555
C35_2 N7_2 1_555 1_555
H28_2 C35_2 1_555 1_555
C36_2 H29_2 1_555 1_555
C37_2 C36_2 1_555 1_555
H30_2 C37_2 1_555 1_555
Cu1_3 S2_3 1_555 1_555
Cu3_2 S2_3 1_555 1_555
C4_3 C5_3 1_555 1_555
C9_3 C10_3 1_555 1_555
C14_2 C15_2 1_555 1_555
C19_3 C20_3 1_555 1_555
W2_3 Cu7_3 1_555 1_555
Cu4_3 S4_3 1_555 1_555
Cu4_3 S5_3 1_555 1_555
Cu6_3 S4_3 1_555 1_555
Cu6_3 S6_3 1_555 1_555
Cu7_3 S5_3 1_555 1_555
Cu7_3 S6_3 1_555 1_555
C24_3 C25_3 1_555 1_555
C29_3 C30_3 1_555 1_555
C32_2 C33_2 1_555 1_555
C34_2 C35_2 1_555 1_555
O1_4 W1_4 1_555 1_555
S1_4 W1_4 1_555 1_555
H13_4 C16_4 1_555 1_555
C17_4 C16_4 1_555 1_555
H14_4 C17_4 1_555 1_555
Cu5_4 N9_4 1_555 1_555
C39_4 C38_4 1_555 1_555
H31_4 C39_4 1_555 1_555
C40_4 N9_4 1_555 1_555
H32_4 C40_4 1_555 1_555
C39_4 C40_4 1_555 1_555
Cu1_4 N2_4 1_555 1_555
N1_4 C1_4 1_555 1_555
N2_4 C8_4 1_555 1_555
N4_4 Cu1_4 1_555 1_555
C1_4 H1_4 1_555 1_555
C2_4 C1_4 1_555 1_555
H2_4 C2_4 1_555 1_555
C3_4 C2_4 1_555 1_555
C4_4 C3_4 1_555 1_555
H3_4 C4_4 1_555 1_555
C5_4 N1_4 1_555 1_555
H4_4 C5_4 1_555 1_555
C6_4 C3_4 1_555 1_555
C7_4 C6_4 1_555 1_555
H5_4 C7_4 1_555 1_555
C8_4 C7_4 1_555 1_555
H6_4 C8_4 1_555 1_555
C9_4 N2_4 1_555 1_555
H7_4 C9_4 1_555 1_555
C10_4 C6_4 1_555 1_555
H8_4 C10_4 1_555 1_555
C19_4 C18_4 1_555 1_555
H15_4 C19_4 1_555 1_555
C20_4 N4_4 1_555 1_555
H16_4 C20_4 1_555 1_555
Cu7_4 N1_4 1_555 1_555
N8_4 Cu7_4 1_555 1_555
Cl2_4 Cu6_4 1_555 1_555
C36_3 H29_3 1_555 1_555
C37_3 C36_3 1_555 1_555
H30_3 C37_3 1_555 1_555
Cu1_4 S2_4 1_555 1_555
C4_4 C5_4 1_555 1_555
C9_4 C10_4 1_555 1_555
C19_4 C20_4 1_555 1_555
Cu6_4 S6_4 1_555 1_555
Cu7_4 S6_4 1_555 1_555
W2_4 Cu4_4 1_555 1_555
Cu4_4 N6_4 1_555 1_555
N5_4 Cu8_2 1_555 1_555
N6_4 C28_4 1_555 1_555
N10_4 Cu4_4 1_555 1_555
O2_4 W2_4 1_555 1_555
S4_4 W2_4 1_555 1_555
S5_4 W2_4 1_555 1_555
C21_4 N5_4 1_555 1_555
H17_4 C21_4 1_555 1_555
C22_4 C21_4 1_555 1_555
H18_4 C22_4 1_555 1_555
C23_4 C22_4 1_555 1_555
C24_4 C23_4 1_555 1_555
H19_4 C24_4 1_555 1_555
C25_4 N5_4 1_555 1_555
H20_4 C25_4 1_555 1_555
C26_4 C23_4 1_555 1_555
C27_4 C26_4 1_555 1_555
H21_4 C27_4 1_555 1_555
C28_4 C27_4 1_555 1_555
H22_4 C28_4 1_555 1_555
C29_4 N6_4 1_555 1_555
H23_4 C29_4 1_555 1_555
C30_4 C26_4 1_555 1_555
H24_4 C30_4 1_555 1_555
Cu4_4 S4_4 1_555 1_555
Cu4_4 S5_4 1_555 1_555
C24_4 C25_4 1_555 1_555
C29_4 C30_4 1_555 1_555
W1_5 Cu1_5 1_555 1_555
Cu1_5 N2_5 1_555 1_555
Cu2_4 W1_5 1_555 1_555
Cu3_3 W1_5 1_555 1_555
N1_5 C1_5 1_555 1_555
N2_5 C8_5 1_555 1_555
N3_3 Cu3_3 1_555 1_555
N4_5 Cu1_5 1_555 1_555
O1_5 W1_5 1_555 1_555
S1_5 W1_5 1_555 1_555
S2_5 W1_5 1_555 1_555
S3_4 W1_5 1_555 1_555
Cl1_5 Cu2_4 1_555 1_555
C1_5 H1_5 1_555 1_555
C2_5 C1_5 1_555 1_555
H2_5 C2_5 1_555 1_555
C3_5 C2_5 1_555 1_555
C4_5 C3_5 1_555 1_555
H3_5 C4_5 1_555 1_555
C5_5 N1_5 1_555 1_555
H4_5 C5_5 1_555 1_555
C6_5 C3_5 1_555 1_555
C7_5 C6_5 1_555 1_555
H5_5 C7_5 1_555 1_555
C8_5 C7_5 1_555 1_555
H6_5 C8_5 1_555 1_555
C9_5 N2_5 1_555 1_555
H7_5 C9_5 1_555 1_555
C10_5 C6_5 1_555 1_555
H8_5 C10_5 1_555 1_555
C11_3 N3_3 1_555 1_555
H9_3 C11_3 1_555 1_555
C12_3 C11_3 1_555 1_555
H10_3 C12_3 1_555 1_555
C13_3 C12_3 1_555 1_555
C14_3 C13_3 1_555 1_555
H11_3 C14_3 1_555 1_555
C15_3 N3_3 1_555 1_555
H12_3 C15_3 1_555 1_555
C16_5 N4_5 1_555 1_555
H13_5 C16_5 1_555 1_555
C17_5 C16_5 1_555 1_555
H14_5 C17_5 1_555 1_555
C18_5 C17_5 1_555 1_555
C19_5 C18_5 1_555 1_555
H15_5 C19_5 1_555 1_555
C20_5 N4_5 1_555 1_555
H16_5 C20_5 1_555 1_555
Cu5_3 N6_5 1_555 1_555
Cu7_5 N1_5 1_555 1_555
Cu8_3 N7_3 1_555 1_555
N5_5 Cu3_3 1_555 1_555
N6_5 C28_5 1_555 1_555
N7_3 C31_3 1_555 1_555
N8_5 Cu7_5 1_555 1_555
C21_5 N5_5 1_555 1_555
H17_5 C21_5 1_555 1_555
C22_5 C21_5 1_555 1_555
H18_5 C22_5 1_555 1_555
C23_5 C22_5 1_555 1_555
C24_5 C23_5 1_555 1_555
H19_5 C24_5 1_555 1_555
C25_5 N5_5 1_555 1_555
H20_5 C25_5 1_555 1_555
C26_5 C23_5 1_555 1_555
C27_5 C26_5 1_555 1_555
H21_5 C27_5 1_555 1_555
C28_5 C27_5 1_555 1_555
H22_5 C28_5 1_555 1_555
C29_5 N6_5 1_555 1_555
H23_5 C29_5 1_555 1_555
C30_5 C26_5 1_555 1_555
H24_5 C30_5 1_555 1_555
C31_3 H25_3 1_555 1_555
C32_3 C31_3 1_555 1_555
H26_3 C32_3 1_555 1_555
C33_3 C13_3 1_555 1_555
C34_3 C33_3 1_555 1_555
H27_3 C34_3 1_555 1_555
C35_3 N7_3 1_555 1_555
H28_3 C35_3 1_555 1_555
Cu1_5 S1_5 1_555 1_555
Cu1_5 S2_5 1_555 1_555
Cu2_4 S1_5 1_555 1_555
Cu2_4 S3_4 1_555 1_555
Cu3_3 S2_5 1_555 1_555
Cu3_3 S3_4 1_555 1_555
C4_5 C5_5 1_555 1_555
C9_5 C10_5 1_555 1_555
C14_3 C15_3 1_555 1_555
C19_5 C20_5 1_555 1_555
Cu5_3 S5_5 1_555 1_555
Cu7_5 S5_5 1_555 1_555
C24_5 C25_5 1_555 1_555
C29_5 C30_5 1_555 1_555
C32_3 C33_3 1_555 1_555
C34_3 C35_3 1_555 1_555
N10_3 C36_4 1_555 1_555
C36_4 H29_4 1_555 1_555
C37_4 C36_4 1_555 1_555
H30_4 C37_4 1_555 1_555
C39_5 C38_5 1_555 1_555
H31_5 C39_5 1_555 1_555
C40_5 N10_3 1_555 1_555
H32_5 C40_5 1_555 1_555
C37_4 C38_5 1_555 1_555
C39_5 C40_5 1_555 1_555
Cu6_5 W2_5 1_555 1_555
O2_5 W2_5 1_555 1_555
S4_5 W2_5 1_555 1_555
S6_5 W2_5 1_555 1_555
Cu6_5 S4_5 1_555 1_555
Cu6_5 S6_5 1_555 1_555
W1_6 Cu1_6 1_555 1_555
Cu1_6 N2_6 1_555 1_555
Cu2_5 W1_6 1_555 1_555
Cu8_3 W1_6 1_555 1_555
N1_6 C1_6 1_555 1_555
N2_6 C8_6 1_555 1_555
N4_6 Cu1_6 1_555 1_555
O1_6 W1_6 1_555 1_555
S1_6 W1_6 1_555 1_555
S2_6 W1_6 1_555 1_555
S3_5 W1_6 1_555 1_555
Cl1_6 Cu2_5 1_555 1_555
C1_6 H1_6 1_555 1_555
C2_6 C1_6 1_555 1_555
H2_6 C2_6 1_555 1_555
C3_6 C2_6 1_555 1_555
C4_6 C3_6 1_555 1_555
H3_6 C4_6 1_555 1_555
C5_6 N1_6 1_555 1_555
H4_6 C5_6 1_555 1_555
C6_6 C3_6 1_555 1_555
C7_6 C6_6 1_555 1_555
H5_6 C7_6 1_555 1_555
C8_6 C7_6 1_555 1_555
H6_6 C8_6 1_555 1_555
C9_6 N2_6 1_555 1_555
H7_6 C9_6 1_555 1_555
C10_6 C6_6 1_555 1_555
H8_6 C10_6 1_555 1_555
C16_6 N4_6 1_555 1_555
H13_6 C16_6 1_555 1_555
C17_6 C16_6 1_555 1_555
H14_6 C17_6 1_555 1_555
C18_6 C17_6 1_555 1_555
C19_6 C18_6 1_555 1_555
H15_6 C19_6 1_555 1_555
C20_6 N4_6 1_555 1_555
H16_6 C20_6 1_555 1_555
Cu5_4 N6_6 1_555 1_555
Cu7_6 N1_6 1_555 1_555
N5_6 Cu8_3 1_555 1_555
N6_6 C28_6 1_555 1_555
N8_6 Cu7_6 1_555 1_555
N10_4 C36_5 1_555 1_555
C21_6 N5_6 1_555 1_555
H17_6 C21_6 1_555 1_555
C22_6 C21_6 1_555 1_555
H18_6 C22_6 1_555 1_555
C23_6 C22_6 1_555 1_555
C24_6 C23_6 1_555 1_555
H19_6 C24_6 1_555 1_555
C25_6 N5_6 1_555 1_555
H20_6 C25_6 1_555 1_555
C26_6 C23_6 1_555 1_555
C27_6 C26_6 1_555 1_555
H21_6 C27_6 1_555 1_555
C28_6 C27_6 1_555 1_555
H22_6 C28_6 1_555 1_555
C29_6 N6_6 1_555 1_555
H23_6 C29_6 1_555 1_555
C30_6 C26_6 1_555 1_555
H24_6 C30_6 1_555 1_555
C36_5 H29_5 1_555 1_555
C37_5 C36_5 1_555 1_555
H30_5 C37_5 1_555 1_555
C38_6 C18_6 1_555 1_555
C39_6 C38_6 1_555 1_555
H31_6 C39_6 1_555 1_555
C40_6 N10_4 1_555 1_555
H32_6 C40_6 1_555 1_555
Cu1_6 S1_6 1_555 1_555
Cu1_6 S2_6 1_555 1_555
Cu2_5 S1_6 1_555 1_555
Cu2_5 S3_5 1_555 1_555
Cu8_3 S2_6 1_555 1_555
Cu8_3 S3_5 1_555 1_555
C4_6 C5_6 1_555 1_555
C9_6 C10_6 1_555 1_555
C19_6 C20_6 1_555 1_555
Cu5_4 S5_6 1_555 1_555
Cu7_6 S5_6 1_555 1_555
C24_6 C25_6 1_555 1_555
C29_6 C30_6 1_555 1_555
C37_5 C38_6 1_555 1_555
C39_6 C40_6 1_555 1_555
Cu6_6 W2_6 1_555 1_555
O2_6 W2_6 1_555 1_555
S4_6 W2_6 1_555 1_555
S6_6 W2_6 1_555 1_555
Cu6_6 S4_6 1_555 1_555
Cu6_6 S6_6 1_555 1_555
N1_7 C1_7 1_555 1_555
N2_7 C8_7 1_555 1_555
Cl1_7 Cu2_6 1_555 1_555
C1_7 H1_7 1_555 1_555
C2_7 C1_7 1_555 1_555
H2_7 C2_7 1_555 1_555
C3_7 C2_7 1_555 1_555
C4_7 C3_7 1_555 1_555
C5_7 N1_7 1_555 1_555
H4_7 C5_7 1_555 1_555
C6_7 C3_7 1_555 1_555
C7_7 C6_7 1_555 1_555
H5_7 C7_7 1_555 1_555
C8_7 C7_7 1_555 1_555
H6_7 C8_7 1_555 1_555
H15_7 C19_7 1_555 1_555
H16_7 C20_7 1_555 1_555
Cu7_7 N1_7 1_555 1_555
N8_7 Cu7_7 1_555 1_555
N10 C36_6 1_555 1_555
H23_7 C29_7 1_555 1_555
H24_7 C30_7 1_555 1_555
C36_6 H29_6 1_555 1_555
C37_6 C36_6 1_555 1_555
H30_6 C37_6 1_555 1_555
Cu2_6 S1_7 1_555 1_555
C4_7 C5_7 1_555 1_555
C19_7 C20_7 1_555 1_555
Cu5 S5_7 1_555 1_555
Cu7_7 S5_7 1_555 1_555
C29_7 C30_7 1_555 1_555
C37_6 C38_7 1_555 1_555
W1_7 Cu1_7 1_555 1_555
Cu3_4 W1_7 1_555 1_555
N3_4 Cu3_4 1_555 1_555
N4_7 Cu1_7 1_555 1_555
O1_7 W1_7 1_555 1_555
S2_7 W1_7 1_555 1_555
S3_6 W1_7 1_555 1_555
H7_7 C9_7 1_555 1_555
H8_7 C10_7 1_555 1_555
C11_4 N3_4 1_555 1_555
H9_4 C11_4 1_555 1_555
C12_4 C11_4 1_555 1_555
H10_4 C12_4 1_555 1_555
C13_4 C12_4 1_555 1_555
C14_4 C13_4 1_555 1_555
H11_4 C14_4 1_555 1_555
C15_4 N3_4 1_555 1_555
H12_4 C15_4 1_555 1_555
C16_7 N4_7 1_555 1_555
H13_7 C16_7 1_555 1_555
C17_7 C16_7 1_555 1_555
H14_7 C17_7 1_555 1_555
C18_7 C17_7 1_555 1_555
Cu8_4 N7_4 1_555 1_555
N5_7 Cu3_4 1_555 1_555
N6_7 C28_7 1_555 1_555
N7_4 C31_4 1_555 1_555
C21_7 N5_7 1_555 1_555
H17_7 C21_7 1_555 1_555
C22_7 C21_7 1_555 1_555
H18_7 C22_7 1_555 1_555
C23_7 C22_7 1_555 1_555
C24_7 C23_7 1_555 1_555
C25_7 N5_7 1_555 1_555
H20_7 C25_7 1_555 1_555
C26_7 C23_7 1_555 1_555
C27_7 C26_7 1_555 1_555
H21_7 C27_7 1_555 1_555
C28_7 C27_7 1_555 1_555
H22_7 C28_7 1_555 1_555
C31_4 H25_4 1_555 1_555
C32_4 C31_4 1_555 1_555
H26_4 C32_4 1_555 1_555
C33_4 C13_4 1_555 1_555
C34_4 C33_4 1_555 1_555
H27_4 C34_4 1_555 1_555
C35_4 N7_4 1_555 1_555
H28_4 C35_4 1_555 1_555
H31_7 C39_7 1_555 1_555
H32_7 C40_7 1_555 1_555
Cu1_7 S2_7 1_555 1_555
Cu3_4 S2_7 1_555 1_555
Cu3_4 S3_6 1_555 1_555
C9_7 C10_7 1_555 1_555
C14_4 C15_4 1_555 1_555
C24_7 C25_7 1_555 1_555
C32_4 C33_4 1_555 1_555
C34_4 C35_4 1_555 1_555
C39_7 C40_7 1_555 1_555
W1_8 Cu1_8 1_555 1_555
Cu1_8 N2_8 1_555 1_555
N1_8 C1_8 1_555 1_555
N2_8 C8_8 1_555 1_555
N4_8 Cu1_8 1_555 1_555
O1_8 W1_8 1_555 1_555
S1_8 W1_8 1_555 1_555
S2_8 W1_8 1_555 1_555
C1_8 H1_8 1_555 1_555
C2_8 C1_8 1_555 1_555
H2_8 C2_8 1_555 1_555
C3_8 C2_8 1_555 1_555
C4_8 C3_8 1_555 1_555
H3_8 C4_8 1_555 1_555
C5_8 N1_8 1_555 1_555
H4_8 C5_8 1_555 1_555
C6_8 C3_8 1_555 1_555
C7_8 C6_8 1_555 1_555
H5_8 C7_8 1_555 1_555
C8_8 C7_8 1_555 1_555
H6_8 C8_8 1_555 1_555
C9_8 N2_8 1_555 1_555
H7_8 C9_8 1_555 1_555
C10_8 C6_8 1_555 1_555
H8_8 C10_8 1_555 1_555
C16_8 N4_8 1_555 1_555
H13_8 C16_8 1_555 1_555
C17_8 C16_8 1_555 1_555
H14_8 C17_8 1_555 1_555
C18_8 C17_8 1_555 1_555
C19_8 C18_8 1_555 1_555
H15_8 C19_8 1_555 1_555
C20_8 N4_8 1_555 1_555
H16_8 C20_8 1_555 1_555
Cu7_8 N1_8 1_555 1_555
N8_8 Cu7_8 1_555 1_555
N10_2 C36_7 1_555 1_555
C36_7 H29_7 1_555 1_555
C37_7 C36_7 1_555 1_555
H30_7 C37_7 1_555 1_555
C38_8 C18_8 1_555 1_555
C39_8 C38_8 1_555 1_555
H31_8 C39_8 1_555 1_555
C40_8 N10_2 1_555 1_555
H32_8 C40_8 1_555 1_555
Cu1_8 S1_8 1_555 1_555
Cu1_8 S2_8 1_555 1_555
C4_8 C5_8 1_555 1_555
C9_8 C10_8 1_555 1_555
C19_8 C20_8 1_555 1_555
C37_7 C38_8 1_555 1_555
C39_8 C40_8 1_555 1_555
Cl1_8 Cu2_7 1_555 1_555
Cu5_2 N6_8 1_555 1_555
N5_8 Cu8_4 1_555 1_555
N6_8 C28_8 1_555 1_555
C21_8 N5_8 1_555 1_555
H17_8 C21_8 1_555 1_555
C22_8 C21_8 1_555 1_555
H18_8 C22_8 1_555 1_555
C23_8 C22_8 1_555 1_555
C24_8 C23_8 1_555 1_555
H19_8 C24_8 1_555 1_555
C25_8 N5_8 1_555 1_555
H20_8 C25_8 1_555 1_555
C26_8 C23_8 1_555 1_555
C27_8 C26_8 1_555 1_555
H21_8 C27_8 1_555 1_555
C28_8 C27_8 1_555 1_555
H22_8 C28_8 1_555 1_555
C29_8 N6_8 1_555 1_555
H23_8 C29_8 1_555 1_555
C30_8 C26_8 1_555 1_555
H24_8 C30_8 1_555 1_555
Cu2_7 S3_7 1_555 1_555
Cu8_4 S3_7 1_555 1_555
Cu5_2 S5_8 1_555 1_555
C24_8 C25_8 1_555 1_555
C29_8 C30_8 1_555 1_555
O2_7 W2_7 1_555 1_555
S4_7 W2_7 1_555 1_555
C11_5 N8_7 1_555 1_555
H9_5 C11_5 1_555 1_555
C12_5 C11_5 1_555 1_555
H10_5 C12_5 1_555 1_555
C13_5 C12_5 1_555 1_555
C14_5 C13_5 1_555 1_555
H11_5 C14_5 1_555 1_555
C15_5 N8_7 1_555 1_555
H12_5 C15_5 1_555 1_555
N8_6 C31_5 1_555 1_555
C31_5 H25_5 1_555 1_555
C32_5 C31_5 1_555 1_555
H26_5 C32_5 1_555 1_555
C33_5 C13_5 1_555 1_555
C34_5 C33_5 1_555 1_555
H27_5 C34_5 1_555 1_555
C35_5 N8_6 1_555 1_555
H28_5 C35_5 1_555 1_555
C14_5 C15_5 1_555 1_555
C32_5 C33_5 1_555 1_555
C34_5 C35_5 1_555 1_555
C11_6 N8_5 1_555 1_555
H9_6 C11_6 1_555 1_555
C12_6 C11_6 1_555 1_555
H10_6 C12_6 1_555 1_555
C13_6 C12_6 1_555 1_555
C14_6 C13_6 1_555 1_555
H11_6 C14_6 1_555 1_555
C15_6 N8_5 1_555 1_555
H12_6 C15_6 1_555 1_555
N8_8 C31_6 1_555 1_555
C31_6 H25_6 1_555 1_555
C32_6 C31_6 1_555 1_555
H26_6 C32_6 1_555 1_555
C33_6 C13_6 1_555 1_555
C34_6 C33_6 1_555 1_555
H27_6 C34_6 1_555 1_555
C35_6 N8_8 1_555 1_555
H28_6 C35_6 1_555 1_555
C14_6 C15_6 1_555 1_555
C32_6 C33_6 1_555 1_555
C34_6 C35_6 1_555 1_555
C11_7 N8_3 1_555 1_555
H9_7 C11_7 1_555 1_555
C12_7 C11_7 1_555 1_555
H10_7 C12_7 1_555 1_555
C13_7 C12_7 1_555 1_555
C14_7 C13_7 1_555 1_555
H11_7 C14_7 1_555 1_555
C15_7 N8_3 1_555 1_555
H12_7 C15_7 1_555 1_555
N8_2 C31_7 1_555 1_555
C31_7 H25_7 1_555 1_555
C32_7 C31_7 1_555 1_555
H26_7 C32_7 1_555 1_555
C33_7 C13_7 1_555 1_555
C34_7 C33_7 1_555 1_555
H27_7 C34_7 1_555 1_555
C35_7 N8_2 1_555 1_555
H28_7 C35_7 1_555 1_555
C14_7 C15_7 1_555 1_555
C32_7 C33_7 1_555 1_555
C34_7 C35_7 1_555 1_555
C11_8 N8 1_555 1_555
H9_8 C11_8 1_555 1_555
C12_8 C11_8 1_555 1_555
H10_8 C12_8 1_555 1_555
C13_8 C12_8 1_555 1_555
C14_8 C13_8 1_555 1_555
H11_8 C14_8 1_555 1_555
C15_8 N8 1_555 1_555
H12_8 C15_8 1_555 1_555
N8_4 C31_8 1_555 1_555
C31_8 H25_8 1_555 1_555
C32_8 C31_8 1_555 1_555
H26_8 C32_8 1_555 1_555
C33_8 C13_8 1_555 1_555
C34_8 C33_8 1_555 1_555
H27_8 C34_8 1_555 1_555
C35_8 N8_4 1_555 1_555
H28_8 C35_8 1_555 1_555
C14_8 C15_8 1_555 1_555
C32_8 C33_8 1_555 1_555
C34_8 C35_8 1_555 1_555
C36_8 H29_8 1_555 1_555
C37_8 C36_8 1_555 1_555
H30_8 C37_8 1_555 1_555
O2_8 W2_8 1_555 1_555
S6_7 W2_8 1_555 1_555
N1_9 C1_9 1_555 1_555
C1_9 H1_9 1_555 1_555
C2_9 C1_9 1_555 1_555
H2_9 C2_9 1_555 1_555
C3_9 C2_9 1_555 1_555
C4_9 C3_9 1_555 1_555
C5_9 N1_9 1_555 1_555
H4_9 C5_9 1_555 1_555
W2_9 Cu4_5 1_555 1_555
Cu7_9 N1_9 1_555 1_555
N8_9 Cu7_9 1_555 1_555
N10_5 Cu4_5 1_555 1_555
O2_9 W2_9 1_555 1_555
S5_9 W2_9 1_555 1_555
S6_8 W2_9 1_555 1_555
H23_9 C29_9 1_555 1_555
H24_9 C30_9 1_555 1_555
C4_9 C5_9 1_555 1_555
W2_9 Cu7_9 1_555 1_555
Cu4_5 S5_9 1_555 1_555
Cu7_9 S5_9 1_555 1_555
Cu7_9 S6_8 1_555 1_555
C29_9 C30_9 1_555 1_555
W1_9 Cu1_9 1_555 1_555
Cu3_5 W1_9 1_555 1_555
N3_5 Cu3_5 1_555 1_555
N4_9 Cu1_9 1_555 1_555
O1_9 W1_9 1_555 1_555
S2_9 W1_9 1_555 1_555
S3_8 W1_9 1_555 1_555
H7_9 C9_9 1_555 1_555
H8_9 C10_9 1_555 1_555
C11_9 N3_5 1_555 1_555
H9_9 C11_9 1_555 1_555
C12_9 C11_9 1_555 1_555
H10_9 C12_9 1_555 1_555
C13_9 C12_9 1_555 1_555
C14_9 C13_9 1_555 1_555
H11_9 C14_9 1_555 1_555
C15_9 N3_5 1_555 1_555
H12_9 C15_9 1_555 1_555
C16_9 N4_9 1_555 1_555
H13_9 C16_9 1_555 1_555
C17_9 C16_9 1_555 1_555
H14_9 C17_9 1_555 1_555
C18_9 C17_9 1_555 1_555
Cu8_5 N7_5 1_555 1_555
N5_9 Cu3_5 1_555 1_555
N7_5 C31_9 1_555 1_555
C21_9 N5_9 1_555 1_555
H17_9 C21_9 1_555 1_555
C22_9 C21_9 1_555 1_555
H18_9 C22_9 1_555 1_555
C23_9 C22_9 1_555 1_555
C24_9 C23_9 1_555 1_555
C25_9 N5_9 1_555 1_555
H20_9 C25_9 1_555 1_555
C31_9 H25_9 1_555 1_555
C32_9 C31_9 1_555 1_555
H26_9 C32_9 1_555 1_555
C33_9 C13_9 1_555 1_555
C34_9 C33_9 1_555 1_555
H27_9 C34_9 1_555 1_555
C35_9 N7_5 1_555 1_555
H28_9 C35_9 1_555 1_555
H31_9 C39_9 1_555 1_555
H32_9 C40_9 1_555 1_555
Cu1_9 S2_9 1_555 1_555
Cu3_5 S2_9 1_555 1_555
Cu3_5 S3_8 1_555 1_555
C9_9 C10_9 1_555 1_555
C14_9 C15_9 1_555 1_555
C24_9 C25_9 1_555 1_555
C32_9 C33_9 1_555 1_555
C34_9 C35_9 1_555 1_555
C39_9 C40_9 1_555 1_555
N1_10 C1_10 1_555 1_555
C1_10 H1_10 1_555 1_555
C2_10 C1_10 1_555 1_555
H2_10 C2_10 1_555 1_555
C3_10 C2_10 1_555 1_555
C4_10 C3_10 1_555 1_555
H3_9 C4_10 1_555 1_555
C5_10 N1_10 1_555 1_555
H4_10 C5_10 1_555 1_555
W2_10 Cu4_6 1_555 1_555
Cu4_6 N6_9 1_555 1_555
Cu6_7 W2_10 1_555 1_555
Cu7_10 N1_10 1_555 1_555
N6_9 C28_9 1_555 1_555
N8_10 Cu7_10 1_555 1_555
N10_6 Cu4_6 1_555 1_555
O2_10 W2_10 1_555 1_555
S4_8 W2_10 1_555 1_555
S5_10 W2_10 1_555 1_555
S6_9 W2_10 1_555 1_555
Cl2_9 Cu6_7 1_555 1_555
C27_9 C26_9 1_555 1_555
H21_9 C27_9 1_555 1_555
C28_9 C27_9 1_555 1_555
H22_9 C28_9 1_555 1_555
C29_10 N6_9 1_555 1_555
H23_10 C29_10 1_555 1_555
C30_10 C26_9 1_555 1_555
H24_10 C30_10 1_555 1_555
C4_10 C5_10 1_555 1_555
W2_10 Cu7_10 1_555 1_555
Cu4_6 S4_8 1_555 1_555
Cu4_6 S5_10 1_555 1_555
Cu6_7 S4_8 1_555 1_555
Cu6_7 S6_9 1_555 1_555
Cu7_10 S5_10 1_555 1_555
Cu7_10 S6_9 1_555 1_555
C29_10 C30_10 1_555 1_555
W1_10 Cu1_10 1_555 1_555
Cu1_10 N2_9 1_555 1_555
Cu2_8 W1_10 1_555 1_555
Cu8_5 W1_10 1_555 1_555
N2_9 C8_9 1_555 1_555
N4_10 Cu1_10 1_555 1_555
O1_10 W1_10 1_555 1_555
S1_9 W1_10 1_555 1_555
S2_10 W1_10 1_555 1_555
S3_9 W1_10 1_555 1_555
Cl1_9 Cu2_8 1_555 1_555
C7_9 C6_9 1_555 1_555
H5_9 C7_9 1_555 1_555
C8_9 C7_9 1_555 1_555
H6_9 C8_9 1_555 1_555
C9_10 N2_9 1_555 1_555
H7_10 C9_10 1_555 1_555
C10_10 C6_9 1_555 1_555
H8_10 C10_10 1_555 1_555
C16_10 N4_10 1_555 1_555
H13_10 C16_10 1_555 1_555
C17_10 C16_10 1_555 1_555
H14_10 C17_10 1_555 1_555
C18_10 C17_10 1_555 1_555
C19_9 C18_10 1_555 1_555
H15_9 C19_9 1_555 1_555
C20_9 N4_10 1_555 1_555
H16_9 C20_9 1_555 1_555
N5_10 Cu8_5 1_555 1_555
C21_10 N5_10 1_555 1_555
H17_10 C21_10 1_555 1_555
C22_10 C21_10 1_555 1_555
H18_10 C22_10 1_555 1_555
C23_10 C22_10 1_555 1_555
C24_10 C23_10 1_555 1_555
H19_9 C24_10 1_555 1_555
C25_10 N5_10 1_555 1_555
H20_10 C25_10 1_555 1_555
Cu1_10 S1_9 1_555 1_555
Cu1_10 S2_10 1_555 1_555
Cu2_8 S1_9 1_555 1_555
Cu2_8 S3_9 1_555 1_555
Cu8_5 S2_10 1_555 1_555
Cu8_5 S3_9 1_555 1_555
C9_10 C10_10 1_555 1_555
C19_9 C20_9 1_555 1_555
C24_10 C25_10 1_555 1_555
Cu5_5 N9_5 1_555 1_555
N9_5 C36_9 1_555 1_555
C36_9 H29_9 1_555 1_555
C37_9 C36_9 1_555 1_555
H30_9 C37_9 1_555 1_555
C39_10 C38_9 1_555 1_555
H31_10 C39_10 1_555 1_555
C40_10 N9_5 1_555 1_555
H32_10 C40_10 1_555 1_555
C37_9 C38_9 1_555 1_555
C39_10 C40_10 1_555 1_555
N1_11 C1_11 1_555 1_555
C1_11 H1_11 1_555 1_555
C2_11 C1_11 1_555 1_555
H2_11 C2_11 1_555 1_555
C3_11 C2_11 1_555 1_555
C4_11 C3_11 1_555 1_555
H3_10 C4_11 1_555 1_555
C5_11 N1_11 1_555 1_555
H4_11 C5_11 1_555 1_555
Cu7_11 N1_11 1_555 1_555
N8_11 Cu7_11 1_555 1_555
Cl2_10 Cu6_8 1_555 1_555
C4_11 C5_11 1_555 1_555
Cu6_8 S6_10 1_555 1_555
Cu7_11 S6_10 1_555 1_555
W2_11 Cu4_7 1_555 1_555
Cu4_7 N6_10 1_555 1_555
N6_10 C28_10 1_555 1_555
N10_7 Cu4_7 1_555 1_555
O2_11 W2_11 1_555 1_555
S4_9 W2_11 1_555 1_555
S5_11 W2_11 1_555 1_555
C27_10 C26_10 1_555 1_555
H21_10 C27_10 1_555 1_555
C28_10 C27_10 1_555 1_555
H22_10 C28_10 1_555 1_555
C29_11 N6_10 1_555 1_555
H23_11 C29_11 1_555 1_555
C30_11 C26_10 1_555 1_555
H24_11 C30_11 1_555 1_555
Cu4_7 S4_9 1_555 1_555
Cu4_7 S5_11 1_555 1_555
C29_11 C30_11 1_555 1_555
W1_11 Cu1_11 1_555 1_555
Cu1_11 N2_10 1_555 1_555
N2_10 C8_10 1_555 1_555
N4_11 Cu1_11 1_555 1_555
O1_11 W1_11 1_555 1_555
S1_10 W1_11 1_555 1_555
S2_11 W1_11 1_555 1_555
C7_10 C6_10 1_555 1_555
H5_10 C7_10 1_555 1_555
C8_10 C7_10 1_555 1_555
H6_10 C8_10 1_555 1_555
C9_11 N2_10 1_555 1_555
H7_11 C9_11 1_555 1_555
C10_11 C6_10 1_555 1_555
H8_11 C10_11 1_555 1_555
C16_11 N4_11 1_555 1_555
H13_11 C16_11 1_555 1_555
C17_11 C16_11 1_555 1_555
H14_11 C17_11 1_555 1_555
C18_11 C17_11 1_555 1_555
C19_10 C18_11 1_555 1_555
H15_10 C19_10 1_555 1_555
C20_10 N4_11 1_555 1_555
H16_10 C20_10 1_555 1_555
Cu5_6 N9_6 1_555 1_555
N9_6 C36_10 1_555 1_555
C36_10 H29_10 1_555 1_555
C37_10 C36_10 1_555 1_555
H30_10 C37_10 1_555 1_555
C38_10 C18_11 1_555 1_555
C39_11 C38_10 1_555 1_555
H31_11 C39_11 1_555 1_555
C40_11 N9_6 1_555 1_555
H32_11 C40_11 1_555 1_555
Cu1_11 S1_10 1_555 1_555
Cu1_11 S2_11 1_555 1_555
C9_11 C10_11 1_555 1_555
C19_10 C20_10 1_555 1_555
C37_10 C38_10 1_555 1_555
C39_11 C40_11 1_555 1_555
N3_6 Cu3_6 1_555 1_555
Cl1_10 Cu2_9 1_555 1_555
C11_10 N3_6 1_555 1_555
H9_10 C11_10 1_555 1_555
C12_10 C11_10 1_555 1_555
H10_10 C12_10 1_555 1_555
C13_10 C12_10 1_555 1_555
C14_10 C13_10 1_555 1_555
H11_10 C14_10 1_555 1_555
C15_10 N3_6 1_555 1_555
H12_10 C15_10 1_555 1_555
Cu8_6 N7_6 1_555 1_555
N5_11 Cu3_6 1_555 1_555
N7_6 C31_10 1_555 1_555
C21_11 N5_11 1_555 1_555
H17_11 C21_11 1_555 1_555
C22_11 C21_11 1_555 1_555
H18_11 C22_11 1_555 1_555
C23_11 C22_11 1_555 1_555
C24_11 C23_11 1_555 1_555
H19_10 C24_11 1_555 1_555
C25_11 N5_11 1_555 1_555
H20_11 C25_11 1_555 1_555
C31_10 H25_10 1_555 1_555
C32_10 C31_10 1_555 1_555
H26_10 C32_10 1_555 1_555
C33_10 C13_10 1_555 1_555
C34_10 C33_10 1_555 1_555
H27_10 C34_10 1_555 1_555
C35_10 N7_6 1_555 1_555
H28_10 C35_10 1_555 1_555
Cu2_9 S3_10 1_555 1_555
Cu3_6 S3_10 1_555 1_555
C14_10 C15_10 1_555 1_555
C24_11 C25_11 1_555 1_555
C32_10 C33_10 1_555 1_555
C34_10 C35_10 1_555 1_555
N1_12 C1_12 1_555 1_555
C1_12 H1_12 1_555 1_555
C2_12 C1_12 1_555 1_555
H2_12 C2_12 1_555 1_555
C3_12 C2_12 1_555 1_555
C4_12 C3_12 1_555 1_555
H3_11 C4_12 1_555 1_555
C5_12 N1_12 1_555 1_555
H4_12 C5_12 1_555 1_555
W2_12 Cu4_8 1_555 1_555
Cu4_8 N6_11 1_555 1_555
Cu6_9 W2_12 1_555 1_555
Cu7_12 N1_12 1_555 1_555
N6_11 C28_11 1_555 1_555
N8_12 Cu7_12 1_555 1_555
N10_8 Cu4_8 1_555 1_555
O2_12 W2_12 1_555 1_555
S4_10 W2_12 1_555 1_555
S5_12 W2_12 1_555 1_555
S6_11 W2_12 1_555 1_555
Cl2_11 Cu6_9 1_555 1_555
C27_11 C26_11 1_555 1_555
H21_11 C27_11 1_555 1_555
C28_11 C27_11 1_555 1_555
H22_11 C28_11 1_555 1_555
C29_12 N6_11 1_555 1_555
H23_12 C29_12 1_555 1_555
C30_12 C26_11 1_555 1_555
H24_12 C30_12 1_555 1_555
C4_12 C5_12 1_555 1_555
W2_12 Cu7_12 1_555 1_555
Cu4_8 S4_10 1_555 1_555
Cu4_8 S5_12 1_555 1_555
Cu6_9 S4_10 1_555 1_555
Cu6_9 S6_11 1_555 1_555
Cu7_12 S5_12 1_555 1_555
Cu7_12 S6_11 1_555 1_555
C29_12 C30_12 1_555 1_555
W1_12 Cu1_12 1_555 1_555
Cu1_12 N2_11 1_555 1_555
Cu2_10 W1_12 1_555 1_555
Cu8_6 W1_12 1_555 1_555
N2_11 C8_11 1_555 1_555
N4_12 Cu1_12 1_555 1_555
O1_12 W1_12 1_555 1_555
S1_11 W1_12 1_555 1_555
S2_12 W1_12 1_555 1_555
S3_11 W1_12 1_555 1_555
Cl1_11 Cu2_10 1_555 1_555
C7_11 C6_11 1_555 1_555
H5_11 C7_11 1_555 1_555
C8_11 C7_11 1_555 1_555
H6_11 C8_11 1_555 1_555
C9_12 N2_11 1_555 1_555
H7_12 C9_12 1_555 1_555
C10_12 C6_11 1_555 1_555
H8_12 C10_12 1_555 1_555
C16_12 N4_12 1_555 1_555
H13_12 C16_12 1_555 1_555
C17_12 C16_12 1_555 1_555
H14_12 C17_12 1_555 1_555
C18_12 C17_12 1_555 1_555
C19_11 C18_12 1_555 1_555
H15_11 C19_11 1_555 1_555
C20_11 N4_12 1_555 1_555
H16_11 C20_11 1_555 1_555
Cu5_7 N9_7 1_555 1_555
N5_12 Cu8_6 1_555 1_555
N9_7 C36_11 1_555 1_555
C21_12 N5_12 1_555 1_555
H17_12 C21_12 1_555 1_555
C22_12 C21_12 1_555 1_555
H18_12 C22_12 1_555 1_555
C23_12 C22_12 1_555 1_555
C24_12 C23_12 1_555 1_555
H19_11 C24_12 1_555 1_555
C25_12 N5_12 1_555 1_555
H20_12 C25_12 1_555 1_555
C36_11 H29_11 1_555 1_555
C37_11 C36_11 1_555 1_555
H30_11 C37_11 1_555 1_555
C38_11 C18_12 1_555 1_555
C39_12 C38_11 1_555 1_555
H31_12 C39_12 1_555 1_555
C40_12 N9_7 1_555 1_555
H32_12 C40_12 1_555 1_555
Cu1_12 S1_11 1_555 1_555
Cu1_12 S2_12 1_555 1_555
Cu2_10 S1_11 1_555 1_555
Cu2_10 S3_11 1_555 1_555
Cu8_6 S2_12 1_555 1_555
Cu8_6 S3_11 1_555 1_555
C9_12 C10_12 1_555 1_555
C19_11 C20_11 1_555 1_555
C24_12 C25_12 1_555 1_555
C37_11 C38_11 1_555 1_555
C39_12 C40_12 1_555 1_555
W1_13 Cu1_13 1_555 1_555
Cu1_13 N2_12 1_555 1_555
Cu2_11 W1_13 1_555 1_555
Cu3_7 W1_13 1_555 1_555
N1_13 C1_13 1_555 1_555
N2_12 C8_12 1_555 1_555
N3_7 Cu3_7 1_555 1_555
N4_13 Cu1_13 1_555 1_555
O1_13 W1_13 1_555 1_555
S1_12 W1_13 1_555 1_555
S2_13 W1_13 1_555 1_555
S3_12 W1_13 1_555 1_555
Cl1_12 Cu2_11 1_555 1_555
C1_13 H1_13 1_555 1_555
C2_13 C1_13 1_555 1_555
H2_13 C2_13 1_555 1_555
C3_13 C2_13 1_555 1_555
C4_13 C3_13 1_555 1_555
H3_12 C4_13 1_555 1_555
C5_13 N1_13 1_555 1_555
H4_13 C5_13 1_555 1_555
C6_12 C3_13 1_555 1_555
C7_12 C6_12 1_555 1_555
H5_12 C7_12 1_555 1_555
C8_12 C7_12 1_555 1_555
H6_12 C8_12 1_555 1_555
C9_13 N2_12 1_555 1_555
H7_13 C9_13 1_555 1_555
C10_13 C6_12 1_555 1_555
H8_13 C10_13 1_555 1_555
C11_11 N3_7 1_555 1_555
H9_11 C11_11 1_555 1_555
C12_11 C11_11 1_555 1_555
H10_11 C12_11 1_555 1_555
C13_11 C12_11 1_555 1_555
C14_11 C13_11 1_555 1_555
H11_11 C14_11 1_555 1_555
C15_11 N3_7 1_555 1_555
H12_11 C15_11 1_555 1_555
C16_13 N4_13 1_555 1_555
H13_13 C16_13 1_555 1_555
C17_13 C16_13 1_555 1_555
H14_13 C17_13 1_555 1_555
C18_13 C17_13 1_555 1_555
C19_12 C18_13 1_555 1_555
H15_12 C19_12 1_555 1_555
C20_12 N4_13 1_555 1_555
H16_12 C20_12 1_555 1_555
W2_13 Cu5_6 1_555 1_555
Cu5_6 N6_12 1_555 1_555
Cu6_10 W2_13 1_555 1_555
Cu7_13 N1_13 1_555 1_555
Cu8_7 N7_7 1_555 1_555
N5_13 Cu3_7 1_555 1_555
N6_12 C28_12 1_555 1_555
N7_7 C31_11 1_555 1_555
N8_13 Cu7_13 1_555 1_555
N10_7 C36_12 1_555 1_555
O2_13 W2_13 1_555 1_555
S4_11 W2_13 1_555 1_555
S5_13 W2_13 1_555 1_555
S6_12 W2_13 1_555 1_555
Cl2_12 Cu6_10 1_555 1_555
C21_13 N5_13 1_555 1_555
H17_13 C21_13 1_555 1_555
C22_13 C21_13 1_555 1_555
H18_13 C22_13 1_555 1_555
C23_13 C22_13 1_555 1_555
C24_13 C23_13 1_555 1_555
H19_12 C24_13 1_555 1_555
C25_13 N5_13 1_555 1_555
H20_13 C25_13 1_555 1_555
C26_12 C23_13 1_555 1_555
C27_12 C26_12 1_555 1_555
H21_12 C27_12 1_555 1_555
C28_12 C27_12 1_555 1_555
H22_12 C28_12 1_555 1_555
C29_13 N6_12 1_555 1_555
H23_13 C29_13 1_555 1_555
C30_13 C26_12 1_555 1_555
H24_13 C30_13 1_555 1_555
C31_11 H25_11 1_555 1_555
C32_11 C31_11 1_555 1_555
H26_11 C32_11 1_555 1_555
C33_11 C13_11 1_555 1_555
C34_11 C33_11 1_555 1_555
H27_11 C34_11 1_555 1_555
C35_11 N7_7 1_555 1_555
H28_11 C35_11 1_555 1_555
C36_12 H29_12 1_555 1_555
C37_12 C36_12 1_555 1_555
H30_12 C37_12 1_555 1_555
C38_12 C18_13 1_555 1_555
C39_13 C38_12 1_555 1_555
H31_13 C39_13 1_555 1_555
C40_13 N10_7 1_555 1_555
H32_13 C40_13 1_555 1_555
Cu1_13 S1_12 1_555 1_555
Cu1_13 S2_13 1_555 1_555
Cu2_11 S1_12 1_555 1_555
Cu2_11 S3_12 1_555 1_555
Cu3_7 S2_13 1_555 1_555
Cu3_7 S3_12 1_555 1_555
C4_13 C5_13 1_555 1_555
C9_13 C10_13 1_555 1_555
C14_11 C15_11 1_555 1_555
C19_12 C20_12 1_555 1_555
W2_13 Cu7_13 1_555 1_555
Cu5_6 S4_11 1_555 1_555
Cu5_6 S5_13 1_555 1_555
Cu6_10 S4_11 1_555 1_555
Cu6_10 S6_12 1_555 1_555
Cu7_13 S5_13 1_555 1_555
Cu7_13 S6_12 1_555 1_555
C24_13 C25_13 1_555 1_555
C29_13 C30_13 1_555 1_555
C32_11 C33_11 1_555 1_555
C34_11 C35_11 1_555 1_555
C37_12 C38_12 1_555 1_555
C39_13 C40_13 1_555 1_555
W1_14 Cu1_14 1_555 1_555
Cu1_14 N2_13 1_555 1_555
Cu2_12 W1_14 1_555 1_555
Cu8_7 W1_14 1_555 1_555
N1_14 C1_14 1_555 1_555
N2_13 C8_13 1_555 1_555
N4_14 Cu1_14 1_555 1_555
O1_14 W1_14 1_555 1_555
S1_13 W1_14 1_555 1_555
S2_14 W1_14 1_555 1_555
S3_13 W1_14 1_555 1_555
Cl1_13 Cu2_12 1_555 1_555
C1_14 H1_14 1_555 1_555
C2_14 C1_14 1_555 1_555
H2_14 C2_14 1_555 1_555
C3_14 C2_14 1_555 1_555
C4_14 C3_14 1_555 1_555
H3_13 C4_14 1_555 1_555
C5_14 N1_14 1_555 1_555
H4_14 C5_14 1_555 1_555
C6_13 C3_14 1_555 1_555
C7_13 C6_13 1_555 1_555
H5_13 C7_13 1_555 1_555
C8_13 C7_13 1_555 1_555
H6_13 C8_13 1_555 1_555
C9_14 N2_13 1_555 1_555
H7_14 C9_14 1_555 1_555
C10_14 C6_13 1_555 1_555
H8_14 C10_14 1_555 1_555
C16_14 N4_14 1_555 1_555
H13_14 C16_14 1_555 1_555
C17_14 C16_14 1_555 1_555
H14_14 C17_14 1_555 1_555
C18_14 C17_14 1_555 1_555
C19_13 C18_14 1_555 1_555
H15_13 C19_13 1_555 1_555
C20_13 N4_14 1_555 1_555
H16_13 C20_13 1_555 1_555
W2_14 Cu5_7 1_555 1_555
Cu5_7 N6_13 1_555 1_555
Cu6_11 W2_14 1_555 1_555
Cu7_14 N1_14 1_555 1_555
N5_14 Cu8_7 1_555 1_555
N6_13 C28_13 1_555 1_555
N8_14 Cu7_14 1_555 1_555
O2_14 W2_14 1_555 1_555
S4_12 W2_14 1_555 1_555
S5_14 W2_14 1_555 1_555
S6_13 W2_14 1_555 1_555
Cl2_13 Cu6_11 1_555 1_555
C21_14 N5_14 1_555 1_555
H17_14 C21_14 1_555 1_555
C22_14 C21_14 1_555 1_555
H18_14 C22_14 1_555 1_555
C23_14 C22_14 1_555 1_555
C24_14 C23_14 1_555 1_555
H19_13 C24_14 1_555 1_555
C25_14 N5_14 1_555 1_555
H20_14 C25_14 1_555 1_555
C26_13 C23_14 1_555 1_555
C27_13 C26_13 1_555 1_555
H21_13 C27_13 1_555 1_555
C28_13 C27_13 1_555 1_555
H22_13 C28_13 1_555 1_555
C29_14 N6_13 1_555 1_555
H23_14 C29_14 1_555 1_555
C30_14 C26_13 1_555 1_555
H24_14 C30_14 1_555 1_555
Cu1_14 S1_13 1_555 1_555
Cu1_14 S2_14 1_555 1_555
Cu2_12 S1_13 1_555 1_555
Cu2_12 S3_13 1_555 1_555
Cu8_7 S2_14 1_555 1_555
Cu8_7 S3_13 1_555 1_555
C4_14 C5_14 1_555 1_555
C9_14 C10_14 1_555 1_555
C19_13 C20_13 1_555 1_555
W2_14 Cu7_14 1_555 1_555
Cu5_7 S4_12 1_555 1_555
Cu5_7 S5_14 1_555 1_555
Cu6_11 S4_12 1_555 1_555
Cu6_11 S6_13 1_555 1_555
Cu7_14 S5_14 1_555 1_555
Cu7_14 S6_13 1_555 1_555
C24_14 C25_14 1_555 1_555
C29_14 C30_14 1_555 1_555
N10_8 C36_13 1_555 1_555
C36_13 H29_13 1_555 1_555
C37_13 C36_13 1_555 1_555
H30_13 C37_13 1_555 1_555
C39_14 C38_13 1_555 1_555
H31_14 C39_14 1_555 1_555
C40_14 N10_8 1_555 1_555
H32_14 C40_14 1_555 1_555
C37_13 C38_13 1_555 1_555
C39_14 C40_14 1_555 1_555
N1_15 C1_15 1_555 1_555
N2_14 C8_14 1_555 1_555
C1_15 H1_15 1_555 1_555
C2_15 C1_15 1_555 1_555
H2_15 C2_15 1_555 1_555
C3_15 C2_15 1_555 1_555
C4_15 C3_15 1_555 1_555
C5_15 N1_15 1_555 1_555
H4_15 C5_15 1_555 1_555
C6_14 C3_15 1_555 1_555
C7_14 C6_14 1_555 1_555
H5_14 C7_14 1_555 1_555
C8_14 C7_14 1_555 1_555
H6_14 C8_14 1_555 1_555
H15_14 C19_14 1_555 1_555
H16_14 C20_14 1_555 1_555
Cu7_15 N1_15 1_555 1_555
N8_15 Cu7_15 1_555 1_555
N10_5 C36_14 1_555 1_555
C36_14 H29_14 1_555 1_555
C37_14 C36_14 1_555 1_555
H30_14 C37_14 1_555 1_555
C4_15 C5_15 1_555 1_555
C19_14 C20_14 1_555 1_555
Cu7_15 S6_14 1_555 1_555
C37_14 C38_14 1_555 1_555
N3_8 Cu3_8 1_555 1_555
C11_12 N3_8 1_555 1_555
H9_12 C11_12 1_555 1_555
C12_12 C11_12 1_555 1_555
H10_12 C12_12 1_555 1_555
C13_12 C12_12 1_555 1_555
C14_12 C13_12 1_555 1_555
H11_12 C14_12 1_555 1_555
C15_12 N3_8 1_555 1_555
H12_12 C15_12 1_555 1_555
Cu8_8 N7_8 1_555 1_555
N5_15 Cu3_8 1_555 1_555
N6_14 C28_14 1_555 1_555
N7_8 C31_12 1_555 1_555
C21_15 N5_15 1_555 1_555
H17_15 C21_15 1_555 1_555
C22_15 C21_15 1_555 1_555
H18_15 C22_15 1_555 1_555
C23_15 C22_15 1_555 1_555
C24_15 C23_15 1_555 1_555
C25_15 N5_15 1_555 1_555
H20_15 C25_15 1_555 1_555
C26_14 C23_15 1_555 1_555
C27_14 C26_14 1_555 1_555
H21_14 C27_14 1_555 1_555
C28_14 C27_14 1_555 1_555
H22_14 C28_14 1_555 1_555
C31_12 H25_12 1_555 1_555
C32_12 C31_12 1_555 1_555
H26_12 C32_12 1_555 1_555
C33_12 C13_12 1_555 1_555
C34_12 C33_12 1_555 1_555
H27_12 C34_12 1_555 1_555
C35_12 N7_8 1_555 1_555
H28_12 C35_12 1_555 1_555
Cu3_8 S3_14 1_555 1_555
C14_12 C15_12 1_555 1_555
C24_15 C25_15 1_555 1_555
C32_12 C33_12 1_555 1_555
C34_12 C35_12 1_555 1_555
W1_15 Cu1_15 1_555 1_555
Cu1_15 N2_15 1_555 1_555
Cu2_13 W1_15 1_555 1_555
Cu8_8 W1_15 1_555 1_555
N1_16 C1_16 1_555 1_555
N2_15 C8_15 1_555 1_555
N4_15 Cu1_15 1_555 1_555
O1_15 W1_15 1_555 1_555
S1_15 W1_15 1_555 1_555
S2_15 W1_15 1_555 1_555
S3_15 W1_15 1_555 1_555
Cl1_14 Cu2_13 1_555 1_555
C1_16 H1_16 1_555 1_555
C2_16 C1_16 1_555 1_555
H2_16 C2_16 1_555 1_555
C3_16 C2_16 1_555 1_555
C4_16 C3_16 1_555 1_555
H3_14 C4_16 1_555 1_555
C5_16 N1_16 1_555 1_555
H4_16 C5_16 1_555 1_555
C6_15 C3_16 1_555 1_555
C7_15 C6_15 1_555 1_555
H5_15 C7_15 1_555 1_555
C8_15 C7_15 1_555 1_555
H6_15 C8_15 1_555 1_555
C9_15 N2_15 1_555 1_555
H7_15 C9_15 1_555 1_555
C10_15 C6_15 1_555 1_555
H8_15 C10_15 1_555 1_555
C16_15 N4_15 1_555 1_555
H13_15 C16_15 1_555 1_555
C17_15 C16_15 1_555 1_555
H14_15 C17_15 1_555 1_555
C18_15 C17_15 1_555 1_555
C19_15 C18_15 1_555 1_555
H15_15 C19_15 1_555 1_555
C20_15 N4_15 1_555 1_555
H16_15 C20_15 1_555 1_555
W2_15 Cu5_5 1_555 1_555
Cu5_5 N6_15 1_555 1_555
Cu6_12 W2_15 1_555 1_555
Cu7_16 N1_16 1_555 1_555
N5_16 Cu8_8 1_555 1_555
N6_15 C28_15 1_555 1_555
N8_16 Cu7_16 1_555 1_555
N10_6 C36_15 1_555 1_555
O2_15 W2_15 1_555 1_555
S4_14 W2_15 1_555 1_555
S5_15 W2_15 1_555 1_555
S6_15 W2_15 1_555 1_555
Cl2_14 Cu6_12 1_555 1_555
C21_16 N5_16 1_555 1_555
H17_16 C21_16 1_555 1_555
C22_16 C21_16 1_555 1_555
H18_16 C22_16 1_555 1_555
C23_16 C22_16 1_555 1_555
C24_16 C23_16 1_555 1_555
H19_14 C24_16 1_555 1_555
C25_16 N5_16 1_555 1_555
H20_16 C25_16 1_555 1_555
C26_15 C23_16 1_555 1_555
C27_15 C26_15 1_555 1_555
H21_15 C27_15 1_555 1_555
C28_15 C27_15 1_555 1_555
H22_15 C28_15 1_555 1_555
C29_15 N6_15 1_555 1_555
H23_15 C29_15 1_555 1_555
C30_15 C26_15 1_555 1_555
H24_15 C30_15 1_555 1_555
C36_15 H29_15 1_555 1_555
C37_15 C36_15 1_555 1_555
H30_15 C37_15 1_555 1_555
C38_15 C18_15 1_555 1_555
C39_15 C38_15 1_555 1_555
H31_15 C39_15 1_555 1_555
C40_15 N10_6 1_555 1_555
H32_15 C40_15 1_555 1_555
Cu1_15 S1_15 1_555 1_555
Cu1_15 S2_15 1_555 1_555
Cu2_13 S1_15 1_555 1_555
Cu2_13 S3_15 1_555 1_555
Cu8_8 S2_15 1_555 1_555
Cu8_8 S3_15 1_555 1_555
C4_16 C5_16 1_555 1_555
C9_15 C10_15 1_555 1_555
C19_15 C20_15 1_555 1_555
W2_15 Cu7_16 1_555 1_555
Cu5_5 S4_14 1_555 1_555
Cu5_5 S5_15 1_555 1_555
Cu6_12 S4_14 1_555 1_555
Cu6_12 S6_15 1_555 1_555
Cu7_16 S5_15 1_555 1_555
Cu7_16 S6_15 1_555 1_555
C24_16 C25_16 1_555 1_555
C29_15 C30_15 1_555 1_555
C37_15 C38_15 1_555 1_555
C39_15 C40_15 1_555 1_555
C11_13 N8_9 1_555 1_555
H9_13 C11_13 1_555 1_555
C12_13 C11_13 1_555 1_555
H10_13 C12_13 1_555 1_555
C13_13 C12_13 1_555 1_555
C14_13 C13_13 1_555 1_555
H11_13 C14_13 1_555 1_555
C15_13 N8_9 1_555 1_555
H12_13 C15_13 1_555 1_555
N8_12 C31_13 1_555 1_555
C31_13 H25_13 1_555 1_555
C32_13 C31_13 1_555 1_555
H26_13 C32_13 1_555 1_555
C33_13 C13_13 1_555 1_555
C34_13 C33_13 1_555 1_555
H27_13 C34_13 1_555 1_555
C35_13 N8_12 1_555 1_555
H28_13 C35_13 1_555 1_555
C14_13 C15_13 1_555 1_555
C32_13 C33_13 1_555 1_555
C34_13 C35_13 1_555 1_555
C11_14 N8_11 1_555 1_555
H9_14 C11_14 1_555 1_555
C12_14 C11_14 1_555 1_555
H10_14 C12_14 1_555 1_555
C13_14 C12_14 1_555 1_555
C14_14 C13_14 1_555 1_555
H11_14 C14_14 1_555 1_555
C15_14 N8_11 1_555 1_555
H12_14 C15_14 1_555 1_555
N8_10 C31_14 1_555 1_555
C31_14 H25_14 1_555 1_555
C32_14 C31_14 1_555 1_555
H26_14 C32_14 1_555 1_555
C33_14 C13_14 1_555 1_555
C34_14 C33_14 1_555 1_555
H27_14 C34_14 1_555 1_555
C35_14 N8_10 1_555 1_555
H28_14 C35_14 1_555 1_555
C14_14 C15_14 1_555 1_555
C32_14 C33_14 1_555 1_555
C34_14 C35_14 1_555 1_555
C11_15 N8_13 1_555 1_555
H9_15 C11_15 1_555 1_555
C12_15 C11_15 1_555 1_555
H10_15 C12_15 1_555 1_555
C13_15 C12_15 1_555 1_555
C14_15 C13_15 1_555 1_555
H11_15 C14_15 1_555 1_555
C15_15 N8_13 1_555 1_555
H12_15 C15_15 1_555 1_555
N8_16 C31_15 1_555 1_555
C31_15 H25_15 1_555 1_555
C32_15 C31_15 1_555 1_555
H26_15 C32_15 1_555 1_555
C33_15 C13_15 1_555 1_555
C34_15 C33_15 1_555 1_555
H27_15 C34_15 1_555 1_555
C35_15 N8_16 1_555 1_555
H28_15 C35_15 1_555 1_555
C14_15 C15_15 1_555 1_555
C32_15 C33_15 1_555 1_555
C34_15 C35_15 1_555 1_555
C11_16 N8_15 1_555 1_555
H9_16 C11_16 1_555 1_555
C12_16 C11_16 1_555 1_555
H10_16 C12_16 1_555 1_555
C13_16 C12_16 1_555 1_555
C14_16 C13_16 1_555 1_555
H11_16 C14_16 1_555 1_555
C15_16 N8_15 1_555 1_555
H12_16 C15_16 1_555 1_555
N8_14 C31_16 1_555 1_555
C31_16 H25_16 1_555 1_555
C32_16 C31_16 1_555 1_555
H26_16 C32_16 1_555 1_555
C33_16 C13_16 1_555 1_555
C34_16 C33_16 1_555 1_555
H27_16 C34_16 1_555 1_555
C35_16 N8_14 1_555 1_555
H28_16 C35_16 1_555 1_555
C14_16 C15_16 1_555 1_555
C32_16 C33_16 1_555 1_555
C34_16 C35_16 1_555 1_555
N6_16 C28_16 1_555 1_555
Cl2_15 Cu6_13 1_555 1_555
C27_16 C26_16 1_555 1_555
H21_16 C27_16 1_555 1_555
C28_16 C27_16 1_555 1_555
H22_16 C28_16 1_555 1_555
Cu6_13 S4_15 1_555 1_555
W1_16 Cu1_16 1_555 1_555
N4_16 Cu1_16 1_555 1_555
O1_16 W1_16 1_555 1_555
S2_16 W1_16 1_555 1_555
H7_16 C9_16 1_555 1_555
H8_16 C10_16 1_555 1_555
C16_16 N4_16 1_555 1_555
H13_16 C16_16 1_555 1_555
C17_16 C16_16 1_555 1_555
H14_16 C17_16 1_555 1_555
C18_16 C17_16 1_555 1_555
Cl2_16 Cu6_14 1_555 1_555
H31_16 C39_16 1_555 1_555
H32_16 C40_16 1_555 1_555
Cu1_16 S2_16 1_555 1_555
C9_16 C10_16 1_555 1_555
C39_16 C40_16 1_555 1_555
N2_16 C8_16 1_555 1_555
Cl1_15 Cu2_14 1_555 1_555
C7_16 C6_16 1_555 1_555
H5_16 C7_16 1_555 1_555
C8_16 C7_16 1_555 1_555
H6_16 C8_16 1_555 1_555
H15_16 C19_16 1_555 1_555
H16_16 C20_16 1_555 1_555
Cu5_8 N9_8 1_555 1_555
N9_8 C36_16 1_555 1_555
C36_16 H29_16 1_555 1_555
C37_16 C36_16 1_555 1_555
H30_16 C37_16 1_555 1_555
Cu2_14 S1_16 1_555 1_555
C19_16 C20_16 1_555 1_555
C37_16 C38_16 1_555 1_555
Cl1_16 Cu2_15 1_555 1_555
W2_16 Cu5_8 1_555 1_555
O2_16 W2_16 1_555 1_555
S5_16 W2_16 1_555 1_555
H23_16 C29_16 1_555 1_555
H24_16 C30_16 1_555 1_555
Cu5_8 S5_16 1_555 1_555
C29_16 C30_16 1_555 1_555
Cu2_16 S3_16 1_555 1_555
Cu6_15 S4_16 1_555 1_555
Cu6_16 S6_16 1_555 1_555

#END
