
###############################################################################
#
# This file contains modified crystal structure data generated from the
# MOF subset of the Cambridge Structural Database (CSD) v543 
# hosted by the Cambridge Crystallographic Data Centre (CCDC).
#
# This work is licensed under the Creative Commons
# Attribution-NonCommercial-ShareAlike 4.0 International License.
# To view a copy of this license, visit
# http://creativecommons.org/licenses/by-nc-sa/4.0/
# or send a letter to
# Creative Commons, PO Box 1866, Mountain View, CA 94042, USA.
#
# CIF created using the CSD Python API on 29 September 2022
# The structure has been converted into the P1 space group
# The structure has a 3D framework
# The original CSD entry EWUSOF is in the orthorhombic crystal system
# The framework has been calculated to contain at least 10.0% void space
# The void calculation uses a probe of radius 1.32A, grid spacing 0.4
#
###############################################################################

data_EWUSOF
_chemical_formula_moiety         '(C640 H512 Cl32 Cu96 Mo32 N127 O32 S96)n'
_symmetry_cell_setting           triclinic
_symmetry_space_group_name_H-M   'P 1'
_symmetry_Int_Tables_number      1
_space_group_name_Hall           'P 1'
loop_
_symmetry_equiv_pos_site_id
_symmetry_equiv_pos_as_xyz
1 x,y,z
_cell_length_a                   25.5852(15)
_cell_length_b                   29.6200(18)
_cell_length_c                   58.413(4)
_cell_angle_alpha                90
_cell_angle_beta                 90
_cell_angle_gamma                90
_cell_volume                     44267.3
loop_
_atom_site_label
_atom_site_type_symbol
_atom_site_fract_x
_atom_site_fract_y
_atom_site_fract_z
Cu1 Cu 0.46841(5) 0.78676(4) 0.45921(2)
Mo1 Mo 0.53580(3) 0.73972(3) 0.484623(18)
Cu2 Cu 0.45475(5) 0.68551(4) 0.49291(3)
S1 S 0.52853(11) 0.81576(8) 0.48373(5)
S2 S 0.48096(10) 0.71085(8) 0.45811(5)
S3 S 0.50868(13) 0.71637(10) 0.51945(6)
O1 O 0.5985(3) 0.7236(3) 0.47904(16)
N1 N 0.3771(3) 0.6909(3) 0.50018(19)
N2 N 0.4683(3) 0.6159(3) 0.49477(19)
N3 N 0.3914(3) 0.7993(3) 0.46925(18)
N4 N 0.4675(3) 0.8176(3) 0.42846(17)
C1 C 0.4453(4) 0.5418(4) 0.5047(2)
H1 H 0.4198 0.5226 0.5106
C2 C 0.4921(4) 0.5245(3) 0.4983(2)
C3 C 0.4350(4) 0.5855(3) 0.5030(2)
H2 H 0.4023 0.5955 0.5078
C4 C 0.5265(5) 0.5550(4) 0.4910(3)
H3 H 0.5598 0.5456 0.4868
C5 C 0.5135(5) 0.6011(4) 0.4896(3)
H4 H 0.5389 0.6214 0.4848
C6 C 0.2152(4) 0.6956(3) 0.5190(2)
C7 C 0.2710(4) 0.6936(3) 0.5125(2)
C8 C 0.2887(4) 0.6786(4) 0.4917(2)
H5 H 0.2645 0.6686 0.4809
C9 C 0.4656(5) 0.8636(4) 0.3869(2)
C10 C 0.3395(4) 0.6780(4) 0.4863(2)
H6 H 0.3489 0.6677 0.4718
C11 C 0.3744(6) 0.8154(4) 0.4893(2)
H7 H 0.3995 0.8244 0.4999
C12 C 0.2018(4) 0.7135(5) 0.5394(2)
H8 H 0.2270 0.7247 0.5493
C13 C 0.1776(4) 0.6803(4) 0.5044(2)
H9 H 0.1867 0.6673 0.4905
C14 C 0.3501(6) 0.7852(5) 0.4551(2)
H10 H 0.3589 0.7741 0.4407
C15 C 0.3610(5) 0.7058(6) 0.5205(3)
H11 H 0.3864 0.7160 0.5306
C16 C 0.4695(7) 0.7975(5) 0.4095(3)
H12 H 0.4715 0.7662 0.4097
C17 C 0.4605(7) 0.8607(5) 0.4264(3)
H13 H 0.4555 0.8778 0.4396
C18 C 0.3102(5) 0.7074(5) 0.5276(3)
H14 H 0.3018 0.7174 0.5422
C19 C 0.4601(7) 0.8821(4) 0.4059(3)
H15 H 0.4553 0.9132 0.4060
C20 C 0.4691(8) 0.8180(5) 0.3887(3)
H16 H 0.4712 0.8005 0.3755
Cu3 Cu 0.50435(7) 0.79197(5) 0.51880(3)
Cl1 Cl 0.4561(2) 0.83377(15) 0.54336(7)
Cu4 Cu 0.03159(5) 0.71324(4) 0.54079(2)
Cu5 Cu 0.46841(5) 0.96324(4) 0.29079(2)
Cu6 Cu 0.54525(5) 0.31449(4) 0.50709(3)
Cu7 Cu 0.04525(5) 0.81449(4) 0.50709(3)
S5 S 0.01904(10) 0.78915(8) 0.54189(5)
N5 N 0.1229(3) 0.8091(3) 0.49982(19)
N6 N 0.5317(3) 0.3841(3) 0.50523(19)
N7 N 0.0317(3) 0.8841(3) 0.50523(19)
N8 N 0.1086(3) 0.7007(3) 0.53075(18)
N9 N 0.4675(3) 0.9324(3) 0.32154(17)
N10 N 0.0325(3) 0.6824(3) 0.57154(17)
C21 C 0.5547(4) 0.4582(4) 0.4953(2)
H17 H 0.5802 0.4774 0.4894
C22 C 0.5079(4) 0.4755(3) 0.5017(2)
C23 C 0.5650(4) 0.4145(3) 0.4970(2)
H18 H 0.5977 0.4045 0.4922
C24 C 0.4735(5) 0.4450(4) 0.5090(3)
H19 H 0.4402 0.4544 0.5132
C25 C 0.4865(5) 0.3989(4) 0.5104(3)
H20 H 0.4611 0.3786 0.5152
C26 C 0.2848(4) 0.8044(3) 0.4810(2)
C27 C 0.2290(4) 0.8064(3) 0.4875(2)
C28 C 0.2113(4) 0.8214(4) 0.5083(2)
H21 H 0.2355 0.8314 0.5191
C29 C 0.4656(5) 0.8864(4) 0.3631(2)
C30 C 0.1605(4) 0.8220(4) 0.5137(2)
H22 H 0.1511 0.8323 0.5282
C31 C 0.1256(6) 0.6846(4) 0.5107(2)
H23 H 0.1005 0.6756 0.5001
C32 C 0.2982(4) 0.7865(5) 0.4606(2)
H24 H 0.2730 0.7753 0.4507
C33 C 0.3224(4) 0.8197(4) 0.4956(2)
H25 H 0.3133 0.8327 0.5095
C34 C 0.1499(6) 0.7148(5) 0.5449(2)
H26 H 0.1411 0.7259 0.5593
C35 C 0.1390(5) 0.7942(6) 0.4795(3)
H27 H 0.1136 0.7840 0.4694
C36 C 0.4695(7) 0.9525(5) 0.3405(3)
H28 H 0.4715 0.9838 0.3403
C37 C 0.4605(7) 0.8893(5) 0.3236(3)
H29 H 0.4555 0.8722 0.3104
C38 C 0.1898(5) 0.7926(5) 0.4724(3)
H30 H 0.1982 0.7826 0.4578
C39 C 0.4601(7) 0.8679(4) 0.3441(3)
H31 H 0.4553 0.8368 0.3440
C40 C 0.4691(8) 0.9320(5) 0.3613(3)
H32 H 0.4712 0.9495 0.3745
Cl2 Cl 0.0439(2) 0.66623(15) 0.45664(7)
Mo1_2 Mo 0.53580(3) 0.01028(3) 0.265377(18)
Cu2_2 Cu 0.45475(5) 0.06449(4) 0.25709(3)
S2_2 S 0.48096(10) 0.03915(8) 0.29189(5)
S3_2 S 0.50868(13) 0.03363(10) 0.23055(6)
O1_2 O 0.5985(3) 0.0264(3) 0.27096(16)
N1_2 N 0.3771(3) 0.0591(3) 0.24982(19)
N2_2 N 0.4683(3) 0.1341(3) 0.25523(19)
C1_2 C 0.4453(4) 0.2082(4) 0.2453(2)
H1_2 H 0.4198 0.2274 0.2394
C2_2 C 0.4921(4) 0.2255(3) 0.2517(2)
C3_2 C 0.4350(4) 0.1645(3) 0.2470(2)
H2_2 H 0.4023 0.1545 0.2422
C4_2 C 0.5265(5) 0.1950(4) 0.2590(3)
H3_2 H 0.5598 0.2044 0.2632
C5_2 C 0.5135(5) 0.1489(4) 0.2604(3)
H4_2 H 0.5389 0.1286 0.2652
C6_2 C 0.2152(4) 0.0544(3) 0.2310(2)
C7_2 C 0.2710(4) 0.0564(3) 0.2375(2)
C8_2 C 0.2887(4) 0.0714(4) 0.2583(2)
H5_2 H 0.2645 0.0814 0.2691
C10_2 C 0.3395(4) 0.0720(4) 0.2637(2)
H6_2 H 0.3489 0.0823 0.2782
C12_2 C 0.2018(4) 0.0365(5) 0.2106(2)
H8_2 H 0.2270 0.0253 0.2007
C13_2 C 0.1776(4) 0.0697(4) 0.2456(2)
H9_2 H 0.1867 0.0827 0.2595
C15_2 C 0.3610(5) 0.0442(6) 0.2295(3)
H11_2 H 0.3864 0.0340 0.2194
C18_2 C 0.3102(5) 0.0426(5) 0.2224(3)
H14_2 H 0.3018 0.0326 0.2078
Cu4_2 Cu 0.03159(5) 0.03676(4) 0.20921(2)
Cu6_2 Cu 0.54525(5) 0.43551(4) 0.24291(3)
N6_2 N 0.5317(3) 0.3659(3) 0.24477(19)
N8_2 N 0.1086(3) 0.0493(3) 0.21925(18)
N10_2 N 0.0325(3) 0.0676(3) 0.17846(17)
C21_2 C 0.5547(4) 0.2918(4) 0.2547(2)
H17_2 H 0.5802 0.2726 0.2606
C22_2 C 0.5079(4) 0.2745(3) 0.2483(2)
C23_2 C 0.5650(4) 0.3355(3) 0.2530(2)
H18_2 H 0.5977 0.3455 0.2578
C24_2 C 0.4735(5) 0.3050(4) 0.2410(3)
H19_2 H 0.4402 0.2956 0.2368
C25_2 C 0.4865(5) 0.3511(4) 0.2396(3)
H20_2 H 0.4611 0.3714 0.2348
C31_2 C 0.1256(6) 0.0654(4) 0.2393(2)
H23_2 H 0.1005 0.0744 0.2499
C34_2 C 0.1499(6) 0.0352(5) 0.2051(2)
H26_2 H 0.1411 0.0241 0.1907
Cl2_2 Cl 0.0439(2) 0.08377(15) 0.29336(7)
S1_2 S 0.52853(11) 0.93424(8) 0.26627(5)
N3_2 N 0.3914(3) 0.9507(3) 0.28075(18)
C11_2 C 0.3744(6) 0.9346(4) 0.2607(2)
H7_2 H 0.3995 0.9256 0.2501
C14_2 C 0.3501(6) 0.9648(5) 0.2949(2)
H10_2 H 0.3589 0.9759 0.3093
Cu3_2 Cu 0.50435(7) 0.95803(5) 0.23120(3)
Cl1_2 Cl 0.4561(2) 0.91623(15) 0.20664(7)
Cu7_2 Cu 0.04525(5) 0.93551(4) 0.24291(3)
S5_2 S 0.01904(10) 0.96085(8) 0.20811(5)
N5_2 N 0.1229(3) 0.9409(3) 0.25018(19)
N7_2 N 0.0317(3) 0.8659(3) 0.24477(19)
C26_2 C 0.2848(4) 0.9456(3) 0.2690(2)
C27_2 C 0.2290(4) 0.9436(3) 0.2625(2)
C28_2 C 0.2113(4) 0.9286(4) 0.2417(2)
H21_2 H 0.2355 0.9186 0.2309
C30_2 C 0.1605(4) 0.9280(4) 0.2363(2)
H22_2 H 0.1511 0.9177 0.2218
C32_2 C 0.2982(4) 0.9635(5) 0.2894(2)
H24_2 H 0.2730 0.9747 0.2993
C33_2 C 0.3224(4) 0.9303(4) 0.2544(2)
H25_2 H 0.3133 0.9173 0.2405
C35_2 C 0.1390(5) 0.9558(6) 0.2705(3)
H27_2 H 0.1136 0.9660 0.2806
C38_2 C 0.1898(5) 0.9574(5) 0.2776(3)
H30_2 H 0.1982 0.9674 0.2922
Mo2 Mo 0.96420(3) 0.98972(3) 0.234623(18)
S6 S 0.99132(13) 0.96637(10) 0.26945(6)
O2 O 0.9015(3) 0.9736(3) 0.22904(16)
S3_3 S 0.50868(13) 0.21637(10) 0.01945(6)
N1_3 N 0.3771(3) 0.1909(3) 0.00018(19)
C1_3 C 0.4453(4) 0.0418(4) 0.0047(2)
H1_3 H 0.4198 0.0226 0.0106
C3_3 C 0.4350(4) 0.0855(3) 0.0030(2)
H2_3 H 0.4023 0.0955 0.0078
C6_3 C 0.2152(4) 0.1956(3) 0.0190(2)
C7_3 C 0.2710(4) 0.1936(3) 0.0125(2)
C12_3 C 0.2018(4) 0.2135(5) 0.0394(2)
H8_3 H 0.2270 0.2247 0.0493
C13_3 C 0.1776(4) 0.1803(4) 0.0044(2)
C15_3 C 0.3610(5) 0.2058(6) 0.0205(3)
H11_3 H 0.3864 0.2160 0.0306
C18_3 C 0.3102(5) 0.2074(5) 0.0276(3)
H14_3 H 0.3018 0.2174 0.0422
Cu3_3 Cu 0.50435(7) 0.29197(5) 0.01880(3)
Cl1_3 Cl 0.4561(2) 0.33377(15) 0.04336(7)
Cu4_3 Cu 0.03159(5) 0.21324(4) 0.04079(2)
Cu7_3 Cu 0.04525(5) 0.31449(4) 0.00709(3)
S5_3 S 0.01904(10) 0.28915(8) 0.04189(5)
N7_3 N 0.0317(3) 0.3841(3) 0.00523(19)
N8_3 N 0.1086(3) 0.2007(3) 0.03075(18)
N10_3 N 0.0325(3) 0.1824(3) 0.07154(17)
C28_3 C 0.2113(4) 0.3214(4) 0.0083(2)
H21_3 H 0.2355 0.3314 0.0191
C30_3 C 0.1605(4) 0.3220(4) 0.0137(2)
H22_3 H 0.1511 0.3323 0.0282
C31_3 C 0.1256(6) 0.1846(4) 0.0107(2)
H23_3 H 0.1005 0.1756 0.0001
H25_3 H 0.3133 0.3327 0.0095
C34_3 C 0.1499(6) 0.2148(5) 0.0449(2)
H26_3 H 0.1411 0.2259 0.0593
Cu1_2 Cu 0.46841(5) 0.28676(4) 0.95921(2)
Mo1_3 Mo 0.53580(3) 0.23972(3) 0.984623(18)
Cu2_3 Cu 0.45475(5) 0.18551(4) 0.99291(3)
S1_3 S 0.52853(11) 0.31576(8) 0.98373(5)
S2_3 S 0.48096(10) 0.21085(8) 0.95811(5)
O1_3 O 0.5985(3) 0.2236(3) 0.97904(16)
N2_3 N 0.4683(3) 0.1159(3) 0.99477(19)
N3_3 N 0.3914(3) 0.2993(3) 0.96925(18)
N4_2 N 0.4675(3) 0.3176(3) 0.92846(17)
C2_3 C 0.4921(4) 0.0245(3) 0.9983(2)
C4_3 C 0.5265(5) 0.0550(4) 0.9910(3)
H3_3 H 0.5598 0.0456 0.9868
C5_3 C 0.5135(5) 0.1011(4) 0.9896(3)
H4_3 H 0.5389 0.1214 0.9848
C8_3 C 0.2887(4) 0.1786(4) 0.9917(2)
H5_3 H 0.2645 0.1686 0.9809
C9_2 C 0.4656(5) 0.3636(4) 0.8869(2)
C10_3 C 0.3395(4) 0.1780(4) 0.9863(2)
H6_3 H 0.3489 0.1677 0.9718
C11_3 C 0.3744(6) 0.3154(4) 0.9893(2)
H7_3 H 0.3995 0.3244 0.9999
H9_3 H 0.1867 0.1673 0.9905
C14_3 C 0.3501(6) 0.2852(5) 0.9551(2)
H10_3 H 0.3589 0.2741 0.9407
C16_2 C 0.4695(7) 0.2975(5) 0.9095(3)
H12_2 H 0.4715 0.2662 0.9097
C17_2 C 0.4605(7) 0.3607(5) 0.9264(3)
H13_2 H 0.4555 0.3778 0.9396
C19_2 C 0.4601(7) 0.3821(4) 0.9059(3)
H15_2 H 0.4553 0.4132 0.9060
C20_2 C 0.4691(8) 0.3180(5) 0.8887(3)
H16_2 H 0.4712 0.3005 0.8755
Cu5_2 Cu 0.46841(5) 0.46324(4) 0.79079(2)
N5_3 N 0.1229(3) 0.3091(3) 0.99982(19)
N9_2 N 0.4675(3) 0.4324(3) 0.82154(17)
C26_3 C 0.2848(4) 0.3044(3) 0.9810(2)
C27_3 C 0.2290(4) 0.3064(3) 0.9875(2)
C29_2 C 0.4656(5) 0.3864(4) 0.8631(2)
C32_3 C 0.2982(4) 0.2865(5) 0.9606(2)
H24_3 H 0.2730 0.2753 0.9507
C33_3 C 0.3224(4) 0.3197(4) 0.9956(2)
C35_3 C 0.1390(5) 0.2942(6) 0.9795(3)
H27_3 H 0.1136 0.2840 0.9694
C36_2 C 0.4695(7) 0.4525(5) 0.8405(3)
H28_2 H 0.4715 0.4838 0.8403
C37_2 C 0.4605(7) 0.3893(5) 0.8236(3)
H29_2 H 0.4555 0.3722 0.8104
C38_3 C 0.1898(5) 0.2926(5) 0.9724(3)
H30_3 H 0.1982 0.2826 0.9578
C39_2 C 0.4601(7) 0.3679(4) 0.8441(3)
H31_2 H 0.4553 0.3368 0.8440
C40_2 C 0.4691(8) 0.4320(5) 0.8613(3)
H32_2 H 0.4712 0.4495 0.8745
Cl2_3 Cl 0.0439(2) 0.16623(15) 0.95664(7)
Cu6_3 Cu 0.54525(5) 0.81449(4) 0.00709(3)
N6_3 N 0.5317(3) 0.8841(3) 0.00523(19)
C22_3 C 0.5079(4) 0.9755(3) 0.0017(2)
C24_3 C 0.4735(5) 0.9450(4) 0.0090(3)
H19_3 H 0.4402 0.9544 0.0132
C25_3 C 0.4865(5) 0.8989(4) 0.0104(3)
H20_3 H 0.4611 0.8786 0.0152
C21_3 C 0.5547(4) 0.9582(4) 0.9953(2)
H17_3 H 0.5802 0.9774 0.9894
C23_3 C 0.5650(4) 0.9145(3) 0.9970(2)
H18_3 H 0.5977 0.9045 0.9922
Mo2_2 Mo 0.96420(3) 0.26028(3) 0.015377(18)
S4 S 0.97147(11) 0.18424(8) 0.01627(5)
O2_2 O 0.9015(3) 0.2764(3) 0.02096(16)
S6_2 S 0.99132(13) 0.28363(10) 0.98055(6)
Cu8 Cu 0.99565(7) 0.20803(5) 0.98120(3)
Mo1_4 Mo 0.53580(3) 0.51028(3) 0.765377(18)
Cu2_4 Cu 0.45475(5) 0.56449(4) 0.75709(3)
S1_4 S 0.52853(11) 0.43424(8) 0.76627(5)
S2_4 S 0.48096(10) 0.53915(8) 0.79189(5)
S3_4 S 0.50868(13) 0.53363(10) 0.73055(6)
O1_4 O 0.5985(3) 0.5264(3) 0.77096(16)
N1_4 N 0.3771(3) 0.5591(3) 0.74982(19)
N2_4 N 0.4683(3) 0.6341(3) 0.75523(19)
N3_4 N 0.3914(3) 0.4507(3) 0.78075(18)
C1_4 C 0.4453(4) 0.7082(4) 0.7453(2)
H1_4 H 0.4198 0.7274 0.7394
C2_4 C 0.4921(4) 0.7255(3) 0.7517(2)
C3_4 C 0.4350(4) 0.6645(3) 0.7470(2)
H2_4 H 0.4023 0.6545 0.7422
C4_4 C 0.5265(5) 0.6950(4) 0.7590(3)
H3_4 H 0.5598 0.7044 0.7632
C5_4 C 0.5135(5) 0.6489(4) 0.7604(3)
H4_4 H 0.5389 0.6286 0.7652
C6_4 C 0.2152(4) 0.5544(3) 0.7310(2)
C7_4 C 0.2710(4) 0.5564(3) 0.7375(2)
C8_4 C 0.2887(4) 0.5714(4) 0.7583(2)
H5_4 H 0.2645 0.5814 0.7691
C10_4 C 0.3395(4) 0.5720(4) 0.7637(2)
H6_4 H 0.3489 0.5823 0.7782
C11_4 C 0.3744(6) 0.4346(4) 0.7607(2)
H7_4 H 0.3995 0.4256 0.7501
C12_4 C 0.2018(4) 0.5365(5) 0.7106(2)
H8_4 H 0.2270 0.5253 0.7007
C13_4 C 0.1776(4) 0.5697(4) 0.7456(2)
H9_4 H 0.1867 0.5827 0.7595
C14_4 C 0.3501(6) 0.4648(5) 0.7949(2)
H10_4 H 0.3589 0.4759 0.8093
C15_4 C 0.3610(5) 0.5442(6) 0.7295(3)
H11_4 H 0.3864 0.5340 0.7194
C18_4 C 0.3102(5) 0.5426(5) 0.7224(3)
H14_4 H 0.3018 0.5326 0.7078
Cu3_4 Cu 0.50435(7) 0.45803(5) 0.73120(3)
Cl1_4 Cl 0.4561(2) 0.41623(15) 0.70664(7)
Cu4_4 Cu 0.03159(5) 0.53676(4) 0.70921(2)
Cu6_4 Cu 0.54525(5) 0.93551(4) 0.74291(3)
Cu7_4 Cu 0.04525(5) 0.43551(4) 0.74291(3)
S5_4 S 0.01904(10) 0.46085(8) 0.70811(5)
N5_4 N 0.1229(3) 0.4409(3) 0.75018(19)
N6_4 N 0.5317(3) 0.8659(3) 0.74477(19)
N7_4 N 0.0317(3) 0.3659(3) 0.74477(19)
N8_4 N 0.1086(3) 0.5493(3) 0.71925(18)
N10_4 N 0.0325(3) 0.5676(3) 0.67846(17)
C21_4 C 0.5547(4) 0.7918(4) 0.7547(2)
H17_4 H 0.5802 0.7726 0.7606
C22_4 C 0.5079(4) 0.7745(3) 0.7483(2)
C23_4 C 0.5650(4) 0.8355(3) 0.7530(2)
H18_4 H 0.5977 0.8455 0.7578
C24_4 C 0.4735(5) 0.8050(4) 0.7410(3)
H19_4 H 0.4402 0.7956 0.7368
C25_4 C 0.4865(5) 0.8511(4) 0.7396(3)
H20_4 H 0.4611 0.8714 0.7348
C26_4 C 0.2848(4) 0.4456(3) 0.7690(2)
C27_4 C 0.2290(4) 0.4436(3) 0.7625(2)
C28_4 C 0.2113(4) 0.4286(4) 0.7417(2)
H21_4 H 0.2355 0.4186 0.7309
C30_4 C 0.1605(4) 0.4280(4) 0.7363(2)
H22_4 H 0.1511 0.4177 0.7218
C31_4 C 0.1256(6) 0.5654(4) 0.7393(2)
H23_4 H 0.1005 0.5744 0.7499
C32_4 C 0.2982(4) 0.4635(5) 0.7894(2)
H24_4 H 0.2730 0.4747 0.7993
C33_4 C 0.3224(4) 0.4303(4) 0.7544(2)
H25_4 H 0.3133 0.4173 0.7405
C34_4 C 0.1499(6) 0.5352(5) 0.7051(2)
H26_4 H 0.1411 0.5241 0.6907
C35_4 C 0.1390(5) 0.4558(6) 0.7705(3)
H27_4 H 0.1136 0.4660 0.7806
C38_4 C 0.1898(5) 0.4574(5) 0.7776(3)
H30_4 H 0.1982 0.4674 0.7922
Cl2_4 Cl 0.0439(2) 0.58377(15) 0.79336(7)
Mo2_3 Mo 0.96420(3) 0.48972(3) 0.734623(18)
S4_2 S 0.97147(11) 0.56576(8) 0.73373(5)
S6_3 S 0.99132(13) 0.46637(10) 0.76945(6)
O2_3 O 0.9015(3) 0.4736(3) 0.72904(16)
Cu8_2 Cu 0.99565(7) 0.54197(5) 0.76880(3)
S3_5 S 0.00868(13) 0.71637(10) 0.01945(6)
Cu3_5 Cu 0.00435(7) 0.79197(5) 0.01880(3)
C22_5 C 0.0079(4) 0.4755(3) 0.0017(2)
Mo1_5 Mo 0.03580(3) 0.73972(3) 0.984623(18)
S1_5 S 0.02853(11) 0.81576(8) 0.98373(5)
O1_5 O 0.0985(3) 0.7236(3) 0.97904(16)
C4_5 C 0.0265(5) 0.5550(4) 0.9910(3)
H3_5 H 0.0598 0.5456 0.9868
C5_5 C 0.0135(5) 0.6011(4) 0.9896(3)
H4_5 H 0.0389 0.6214 0.9848
C21_5 C 0.0547(4) 0.4582(4) 0.9953(2)
H17_5 H 0.0802 0.4774 0.9894
C23_5 C 0.0650(4) 0.4145(3) 0.9970(2)
H18_5 H 0.0977 0.4045 0.9922
N1_5 N 0.8771(3) 0.6909(3) 0.00018(19)
C1_5 C 0.9453(4) 0.5418(4) 0.0047(2)
H1_5 H 0.9198 0.5226 0.0106
C3_5 C 0.9350(4) 0.5855(3) 0.0030(2)
H2_5 H 0.9023 0.5955 0.0078
C6_5 C 0.7152(4) 0.6956(3) 0.0190(2)
C7_5 C 0.7710(4) 0.6936(3) 0.0125(2)
C12_5 C 0.7018(4) 0.7135(5) 0.0394(2)
H8_5 H 0.7270 0.7247 0.0493
C13_5 C 0.6776(4) 0.6803(4) 0.0044(2)
C15_5 C 0.8610(5) 0.7058(6) 0.0205(3)
H11_5 H 0.8864 0.7160 0.0306
C18_5 C 0.8102(5) 0.7074(5) 0.0276(3)
H14_5 H 0.8018 0.7174 0.0422
Cl1_5 Cl 0.9561(2) 0.83377(15) 0.04336(7)
Cu4_5 Cu 0.53159(5) 0.71324(4) 0.04079(2)
Mo2_4 Mo 0.46420(3) 0.76028(3) 0.015377(18)
S4_3 S 0.47147(11) 0.68424(8) 0.01627(5)
S5_5 S 0.51904(10) 0.78915(8) 0.04189(5)
O2_4 O 0.4015(3) 0.7764(3) 0.02096(16)
N8_5 N 0.6086(3) 0.7007(3) 0.03075(18)
N10_5 N 0.5325(3) 0.6824(3) 0.07154(17)
C24_5 C 0.9735(5) 0.4450(4) 0.0090(3)
H19_5 H 0.9402 0.4544 0.0132
C25_5 C 0.9865(5) 0.3989(4) 0.0104(3)
H20_5 H 0.9611 0.3786 0.0152
C28_5 C 0.7113(4) 0.8214(4) 0.0083(2)
H21_5 H 0.7355 0.8314 0.0191
C30_5 C 0.6605(4) 0.8220(4) 0.0137(2)
H22_5 H 0.6511 0.8323 0.0282
C31_5 C 0.6256(6) 0.6846(4) 0.0107(2)
H23_5 H 0.6005 0.6756 0.0001
H25_5 H 0.8133 0.8327 0.0095
C34_5 C 0.6499(6) 0.7148(5) 0.0449(2)
H26_5 H 0.6411 0.7259 0.0593
Cu1_3 Cu 0.96841(5) 0.78676(4) 0.95921(2)
Cu2_5 Cu 0.95475(5) 0.68551(4) 0.99291(3)
S2_5 S 0.98096(10) 0.71085(8) 0.95811(5)
N2_5 N 0.9683(3) 0.6159(3) 0.99477(19)
N3_5 N 0.8914(3) 0.7993(3) 0.96925(18)
N4_3 N 0.9675(3) 0.8176(3) 0.92846(17)
C2_5 C 0.9921(4) 0.5245(3) 0.9983(2)
C8_5 C 0.7887(4) 0.6786(4) 0.9917(2)
H5_5 H 0.7645 0.6686 0.9809
C9_3 C 0.9656(5) 0.8636(4) 0.8869(2)
C10_5 C 0.8395(4) 0.6780(4) 0.9863(2)
H6_5 H 0.8489 0.6677 0.9718
C11_5 C 0.8744(6) 0.8154(4) 0.9893(2)
H7_5 H 0.8995 0.8244 0.9999
H9_5 H 0.6867 0.6673 0.9905
C14_5 C 0.8501(6) 0.7852(5) 0.9551(2)
H10_5 H 0.8589 0.7741 0.9407
C16_3 C 0.9695(7) 0.7975(5) 0.9095(3)
H12_3 H 0.9715 0.7662 0.9097
C17_3 C 0.9605(7) 0.8607(5) 0.9264(3)
H13_3 H 0.9555 0.8778 0.9396
C19_3 C 0.9601(7) 0.8821(4) 0.9059(3)
H15_3 H 0.9553 0.9132 0.9060
C20_3 C 0.9691(8) 0.8180(5) 0.8887(3)
H16_3 H 0.9712 0.8005 0.8755
Cu5_3 Cu 0.96841(5) 0.96324(4) 0.79079(2)
S6_4 S 0.49132(13) 0.78363(10) 0.98055(6)
N5_5 N 0.6229(3) 0.8091(3) 0.99982(19)
N9_3 N 0.9675(3) 0.9324(3) 0.82154(17)
C26_5 C 0.7848(4) 0.8044(3) 0.9810(2)
C27_5 C 0.7290(4) 0.8064(3) 0.9875(2)
C29_3 C 0.9656(5) 0.8864(4) 0.8631(2)
C32_5 C 0.7982(4) 0.7865(5) 0.9606(2)
H24_5 H 0.7730 0.7753 0.9507
C33_5 C 0.8224(4) 0.8197(4) 0.9956(2)
C35_5 C 0.6390(5) 0.7942(6) 0.9795(3)
H27_5 H 0.6136 0.7840 0.9694
C36_3 C 0.9695(7) 0.9525(5) 0.8405(3)
H28_3 H 0.9715 0.9838 0.8403
C37_3 C 0.9605(7) 0.8893(5) 0.8236(3)
H29_3 H 0.9555 0.8722 0.8104
C38_5 C 0.6898(5) 0.7926(5) 0.9724(3)
H30_5 H 0.6982 0.7826 0.9578
C39_3 C 0.9601(7) 0.8679(4) 0.8441(3)
H31_3 H 0.9553 0.8368 0.8440
C40_3 C 0.9691(8) 0.9320(5) 0.8613(3)
H32_3 H 0.9712 0.9495 0.8745
Cu8_3 Cu 0.49565(7) 0.70803(5) 0.98120(3)
Cl2_5 Cl 0.5439(2) 0.66623(15) 0.95664(7)
Mo1_6 Mo 0.03580(3) 0.01028(3) 0.765377(18)
S3_6 S 0.00868(13) 0.03363(10) 0.73055(6)
O1_6 O 0.0985(3) 0.0264(3) 0.77096(16)
C4_6 C 0.0265(5) 0.1950(4) 0.7590(3)
H3_6 H 0.0598 0.2044 0.7632
C5_6 C 0.0135(5) 0.1489(4) 0.7604(3)
H4_6 H 0.0389 0.1286 0.7652
C21_6 C 0.0547(4) 0.2918(4) 0.7547(2)
H17_6 H 0.0802 0.2726 0.7606
C22_6 C 0.0079(4) 0.2745(3) 0.7483(2)
C23_6 C 0.0650(4) 0.3355(3) 0.7530(2)
H18_6 H 0.0977 0.3455 0.7578
Cu2_6 Cu 0.95475(5) 0.06449(4) 0.75709(3)
S2_6 S 0.98096(10) 0.03915(8) 0.79189(5)
N1_6 N 0.8771(3) 0.0591(3) 0.74982(19)
N2_6 N 0.9683(3) 0.1341(3) 0.75523(19)
C1_6 C 0.9453(4) 0.2082(4) 0.7453(2)
H1_6 H 0.9198 0.2274 0.7394
C2_6 C 0.9921(4) 0.2255(3) 0.7517(2)
C3_6 C 0.9350(4) 0.1645(3) 0.7470(2)
H2_6 H 0.9023 0.1545 0.7422
C6_6 C 0.7152(4) 0.0544(3) 0.7310(2)
C7_6 C 0.7710(4) 0.0564(3) 0.7375(2)
C8_6 C 0.7887(4) 0.0714(4) 0.7583(2)
H5_6 H 0.7645 0.0814 0.7691
C10_6 C 0.8395(4) 0.0720(4) 0.7637(2)
H6_6 H 0.8489 0.0823 0.7782
C12_6 C 0.7018(4) 0.0365(5) 0.7106(2)
H8_6 H 0.7270 0.0253 0.7007
C13_6 C 0.6776(4) 0.0697(4) 0.7456(2)
H9_6 H 0.6867 0.0827 0.7595
C15_6 C 0.8610(5) 0.0442(6) 0.7295(3)
H11_6 H 0.8864 0.0340 0.7194
C18_6 C 0.8102(5) 0.0426(5) 0.7224(3)
H14_6 H 0.8018 0.0326 0.7078
Cu4_6 Cu 0.53159(5) 0.03676(4) 0.70921(2)
S4_4 S 0.47147(11) 0.06576(8) 0.73373(5)
N8_6 N 0.6086(3) 0.0493(3) 0.71925(18)
N10_6 N 0.5325(3) 0.0676(3) 0.67846(17)
C24_6 C 0.9735(5) 0.3050(4) 0.7410(3)
H19_6 H 0.9402 0.2956 0.7368
C25_6 C 0.9865(5) 0.3511(4) 0.7396(3)
H20_6 H 0.9611 0.3714 0.7348
C31_6 C 0.6256(6) 0.0654(4) 0.7393(2)
H23_6 H 0.6005 0.0744 0.7499
C34_6 C 0.6499(6) 0.0352(5) 0.7051(2)
H26_6 H 0.6411 0.0241 0.6907
Cu8_4 Cu 0.49565(7) 0.04197(5) 0.76880(3)
Cl2_6 Cl 0.5439(2) 0.08377(15) 0.79336(7)
N3_6 N 0.8914(3) 0.9507(3) 0.78075(18)
C11_6 C 0.8744(6) 0.9346(4) 0.7607(2)
H7_6 H 0.8995 0.9256 0.7501
C14_6 C 0.8501(6) 0.9648(5) 0.7949(2)
H10_6 H 0.8589 0.9759 0.8093
Cl1_6 Cl 0.9561(2) 0.91623(15) 0.70664(7)
Mo2_5 Mo 0.46420(3) 0.98972(3) 0.734623(18)
S5_6 S 0.51904(10) 0.96085(8) 0.70811(5)
S6_5 S 0.49132(13) 0.96637(10) 0.76945(6)
O2_5 O 0.4015(3) 0.9736(3) 0.72904(16)
N5_6 N 0.6229(3) 0.9409(3) 0.75018(19)
C26_6 C 0.7848(4) 0.9456(3) 0.7690(2)
C27_6 C 0.7290(4) 0.9436(3) 0.7625(2)
C28_6 C 0.7113(4) 0.9286(4) 0.7417(2)
H21_6 H 0.7355 0.9186 0.7309
C30_6 C 0.6605(4) 0.9280(4) 0.7363(2)
H22_6 H 0.6511 0.9177 0.7218
C32_6 C 0.7982(4) 0.9635(5) 0.7894(2)
H24_6 H 0.7730 0.9747 0.7993
C33_6 C 0.8224(4) 0.9303(4) 0.7544(2)
H25_6 H 0.8133 0.9173 0.7405
C35_6 C 0.6390(5) 0.9558(6) 0.7705(3)
H27_6 H 0.6136 0.9660 0.7806
C38_6 C 0.6898(5) 0.9574(5) 0.7776(3)
H30_6 H 0.6982 0.9674 0.7922
C21_7 C 0.0547(4) 0.9582(4) 0.4953(2)
H17_7 H 0.0802 0.9774 0.4894
C22_7 C 0.0079(4) 0.9755(3) 0.5017(2)
C23_7 C 0.0650(4) 0.9145(3) 0.4970(2)
H18_7 H 0.0977 0.9045 0.4922
Cu1_4 Cu 0.96841(5) 0.28676(4) 0.45921(2)
Cu2_7 Cu 0.95475(5) 0.18551(4) 0.49291(3)
S2_7 S 0.98096(10) 0.21085(8) 0.45811(5)
N1_7 N 0.8771(3) 0.1909(3) 0.50018(19)
N2_7 N 0.9683(3) 0.1159(3) 0.49477(19)
N3_7 N 0.8914(3) 0.2993(3) 0.46925(18)
N4_4 N 0.9675(3) 0.3176(3) 0.42846(17)
C1_7 C 0.9453(4) 0.0418(4) 0.5047(2)
H1_7 H 0.9198 0.0226 0.5106
C2_7 C 0.9921(4) 0.0245(3) 0.4983(2)
C3_7 C 0.9350(4) 0.0855(3) 0.5030(2)
H2_7 H 0.9023 0.0955 0.5078
C6_7 C 0.7152(4) 0.1956(3) 0.5190(2)
C7_7 C 0.7710(4) 0.1936(3) 0.5125(2)
C8_7 C 0.7887(4) 0.1786(4) 0.4917(2)
H5_7 H 0.7645 0.1686 0.4809
C9_4 C 0.9656(5) 0.3636(4) 0.3869(2)
C10_7 C 0.8395(4) 0.1780(4) 0.4863(2)
H6_7 H 0.8489 0.1677 0.4718
C11_7 C 0.8744(6) 0.3154(4) 0.4893(2)
H7_7 H 0.8995 0.3244 0.4999
C12_7 C 0.7018(4) 0.2135(5) 0.5394(2)
H8_7 H 0.7270 0.2247 0.5493
C13_7 C 0.6776(4) 0.1803(4) 0.5044(2)
H9_7 H 0.6867 0.1673 0.4905
C14_7 C 0.8501(6) 0.2852(5) 0.4551(2)
H10_7 H 0.8589 0.2741 0.4407
C15_7 C 0.8610(5) 0.2058(6) 0.5205(3)
H11_7 H 0.8864 0.2160 0.5306
C16_4 C 0.9695(7) 0.2975(5) 0.4095(3)
H12_4 H 0.9715 0.2662 0.4097
C17_4 C 0.9605(7) 0.3607(5) 0.4264(3)
H13_4 H 0.9555 0.3778 0.4396
C18_7 C 0.8102(5) 0.2074(5) 0.5276(3)
H14_7 H 0.8018 0.2174 0.5422
C19_4 C 0.9601(7) 0.3821(4) 0.4059(3)
H15_4 H 0.9553 0.4132 0.4060
C20_4 C 0.9691(8) 0.3180(5) 0.3887(3)
H16_4 H 0.9712 0.3005 0.3755
Cl1_7 Cl 0.9561(2) 0.33377(15) 0.54336(7)
Cu4_7 Cu 0.53159(5) 0.21324(4) 0.54079(2)
Cu5_4 Cu 0.96841(5) 0.46324(4) 0.29079(2)
Mo2_6 Mo 0.46420(3) 0.26028(3) 0.515377(18)
S4_5 S 0.47147(11) 0.18424(8) 0.51627(5)
S5_7 S 0.51904(10) 0.28915(8) 0.54189(5)
S6_6 S 0.49132(13) 0.28363(10) 0.48055(6)
O2_6 O 0.4015(3) 0.2764(3) 0.52096(16)
N5_7 N 0.6229(3) 0.3091(3) 0.49982(19)
N8_7 N 0.6086(3) 0.2007(3) 0.53075(18)
N9_4 N 0.9675(3) 0.4324(3) 0.32154(17)
N10_7 N 0.5325(3) 0.1824(3) 0.57154(17)
C26_7 C 0.7848(4) 0.3044(3) 0.4810(2)
C27_7 C 0.7290(4) 0.3064(3) 0.4875(2)
C28_7 C 0.7113(4) 0.3214(4) 0.5083(2)
H21_7 H 0.7355 0.3314 0.5191
C29_4 C 0.9656(5) 0.3864(4) 0.3631(2)
C30_7 C 0.6605(4) 0.3220(4) 0.5137(2)
H22_7 H 0.6511 0.3323 0.5282
C31_7 C 0.6256(6) 0.1846(4) 0.5107(2)
H23_7 H 0.6005 0.1756 0.5001
C32_7 C 0.7982(4) 0.2865(5) 0.4606(2)
H24_7 H 0.7730 0.2753 0.4507
C33_7 C 0.8224(4) 0.3197(4) 0.4956(2)
H25_7 H 0.8133 0.3327 0.5095
C34_7 C 0.6499(6) 0.2148(5) 0.5449(2)
H26_7 H 0.6411 0.2259 0.5593
C35_7 C 0.6390(5) 0.2942(6) 0.4795(3)
H27_7 H 0.6136 0.2840 0.4694
C36_4 C 0.9695(7) 0.4525(5) 0.3405(3)
H28_4 H 0.9715 0.4838 0.3403
C37_4 C 0.9605(7) 0.3893(5) 0.3236(3)
H29_4 H 0.9555 0.3722 0.3104
C38_7 C 0.6898(5) 0.2926(5) 0.4724(3)
H30_7 H 0.6982 0.2826 0.4578
C39_4 C 0.9601(7) 0.3679(4) 0.3441(3)
H31_4 H 0.9553 0.3368 0.3440
C40_4 C 0.9691(8) 0.4320(5) 0.3613(3)
H32_4 H 0.9712 0.4495 0.3745
Cu8_5 Cu 0.49565(7) 0.20803(5) 0.48120(3)
Cl2_7 Cl 0.5439(2) 0.16623(15) 0.45664(7)
Mo1_7 Mo 0.03580(3) 0.51028(3) 0.265377(18)
S1_6 S 0.02853(11) 0.43424(8) 0.26627(5)
S3_7 S 0.00868(13) 0.53363(10) 0.23055(6)
O1_7 O 0.0985(3) 0.5264(3) 0.27096(16)
C4_7 C 0.0265(5) 0.6950(4) 0.2590(3)
H3_7 H 0.0598 0.7044 0.2632
C5_7 C 0.0135(5) 0.6489(4) 0.2604(3)
H4_7 H 0.0389 0.6286 0.2652
Cu3_6 Cu 0.00435(7) 0.45803(5) 0.23120(3)
C21_8 C 0.0547(4) 0.7918(4) 0.2547(2)
H17_8 H 0.0802 0.7726 0.2606
C22_8 C 0.0079(4) 0.7745(3) 0.2483(2)
C23_8 C 0.0650(4) 0.8355(3) 0.2530(2)
H18_8 H 0.0977 0.8455 0.2578
Cu2_8 Cu 0.95475(5) 0.56449(4) 0.25709(3)
S2_8 S 0.98096(10) 0.53915(8) 0.29189(5)
N1_8 N 0.8771(3) 0.5591(3) 0.24982(19)
N2_8 N 0.9683(3) 0.6341(3) 0.25523(19)
N3_8 N 0.8914(3) 0.4507(3) 0.28075(18)
C1_8 C 0.9453(4) 0.7082(4) 0.2453(2)
H1_8 H 0.9198 0.7274 0.2394
C2_8 C 0.9921(4) 0.7255(3) 0.2517(2)
C3_8 C 0.9350(4) 0.6645(3) 0.2470(2)
H2_8 H 0.9023 0.6545 0.2422
C6_8 C 0.7152(4) 0.5544(3) 0.2310(2)
C7_8 C 0.7710(4) 0.5564(3) 0.2375(2)
C8_8 C 0.7887(4) 0.5714(4) 0.2583(2)
H5_8 H 0.7645 0.5814 0.2691
C10_8 C 0.8395(4) 0.5720(4) 0.2637(2)
H6_8 H 0.8489 0.5823 0.2782
C11_8 C 0.8744(6) 0.4346(4) 0.2607(2)
H7_8 H 0.8995 0.4256 0.2501
C12_8 C 0.7018(4) 0.5365(5) 0.2106(2)
H8_8 H 0.7270 0.5253 0.2007
C13_8 C 0.6776(4) 0.5697(4) 0.2456(2)
H9_8 H 0.6867 0.5827 0.2595
C14_8 C 0.8501(6) 0.4648(5) 0.2949(2)
H10_8 H 0.8589 0.4759 0.3093
C15_8 C 0.8610(5) 0.5442(6) 0.2295(3)
H11_8 H 0.8864 0.5340 0.2194
C18_8 C 0.8102(5) 0.5426(5) 0.2224(3)
H14_8 H 0.8018 0.5326 0.2078
Cl1_8 Cl 0.9561(2) 0.41623(15) 0.20664(7)
Cu4_8 Cu 0.53159(5) 0.53676(4) 0.20921(2)
Mo2_7 Mo 0.46420(3) 0.48972(3) 0.234623(18)
S4_6 S 0.47147(11) 0.56576(8) 0.23373(5)
S5_8 S 0.51904(10) 0.46085(8) 0.20811(5)
S6_7 S 0.49132(13) 0.46637(10) 0.26945(6)
O2_7 O 0.4015(3) 0.4736(3) 0.22904(16)
N5_8 N 0.6229(3) 0.4409(3) 0.25018(19)
N8_8 N 0.6086(3) 0.5493(3) 0.21925(18)
N10_8 N 0.5325(3) 0.5676(3) 0.17846(17)
C24_7 C 0.9735(5) 0.8050(4) 0.2410(3)
H19_7 H 0.9402 0.7956 0.2368
C25_7 C 0.9865(5) 0.8511(4) 0.2396(3)
H20_7 H 0.9611 0.8714 0.2348
C26_8 C 0.7848(4) 0.4456(3) 0.2690(2)
C27_8 C 0.7290(4) 0.4436(3) 0.2625(2)
C28_8 C 0.7113(4) 0.4286(4) 0.2417(2)
H21_8 H 0.7355 0.4186 0.2309
C30_8 C 0.6605(4) 0.4280(4) 0.2363(2)
H22_8 H 0.6511 0.4177 0.2218
C31_8 C 0.6256(6) 0.5654(4) 0.2393(2)
H23_8 H 0.6005 0.5744 0.2499
C32_8 C 0.7982(4) 0.4635(5) 0.2894(2)
H24_8 H 0.7730 0.4747 0.2993
C33_8 C 0.8224(4) 0.4303(4) 0.2544(2)
H25_8 H 0.8133 0.4173 0.2405
C34_8 C 0.6499(6) 0.5352(5) 0.2051(2)
H26_8 H 0.6411 0.5241 0.1907
C35_8 C 0.6390(5) 0.4558(6) 0.2705(3)
H27_8 H 0.6136 0.4660 0.2806
C38_8 C 0.6898(5) 0.4574(5) 0.2776(3)
H30_8 H 0.6982 0.4674 0.2922
Cu8_6 Cu 0.49565(7) 0.54197(5) 0.26880(3)
Cl2_8 Cl 0.5439(2) 0.58377(15) 0.29336(7)
C9_5 C 0.5344(5) 0.1364(4) 0.6131(2)
C16_5 C 0.5305(7) 0.2025(5) 0.5905(3)
H12_5 H 0.5285 0.2338 0.5903
C17_5 C 0.5395(7) 0.1393(5) 0.5736(3)
H13_5 H 0.5445 0.1222 0.5604
C19_5 C 0.5399(7) 0.1179(4) 0.5941(3)
H15_5 H 0.5447 0.0868 0.5940
C20_5 C 0.5309(8) 0.1820(5) 0.6113(3)
H16_5 H 0.5288 0.1995 0.6245
C29_5 C 0.5344(5) 0.1136(4) 0.6369(2)
C36_5 C 0.5305(7) 0.0475(5) 0.6595(3)
H28_5 H 0.5285 0.0162 0.6597
C37_5 C 0.5395(7) 0.1107(5) 0.6764(3)
H29_5 H 0.5445 0.1278 0.6896
C39_5 C 0.5399(7) 0.1321(4) 0.6559(3)
H31_5 H 0.5447 0.1632 0.6560
C40_5 C 0.5309(8) 0.0680(5) 0.6387(3)
H32_5 H 0.5288 0.0505 0.6255
C9_6 C 0.5344(5) 0.6364(4) 0.1131(2)
C16_6 C 0.5305(7) 0.7025(5) 0.0905(3)
H12_6 H 0.5285 0.7338 0.0903
C17_6 C 0.5395(7) 0.6393(5) 0.0736(3)
H13_6 H 0.5445 0.6222 0.0604
C19_6 C 0.5399(7) 0.6179(4) 0.0941(3)
H15_6 H 0.5447 0.5868 0.0940
C20_6 C 0.5309(8) 0.6820(5) 0.1113(3)
H16_6 H 0.5288 0.6995 0.1245
C29_6 C 0.5344(5) 0.6136(4) 0.1369(2)
C36_6 C 0.5305(7) 0.5475(5) 0.1595(3)
H28_6 H 0.5285 0.5162 0.1597
C37_6 C 0.5395(7) 0.6107(5) 0.1764(3)
H29_6 H 0.5445 0.6278 0.1896
C39_6 C 0.5399(7) 0.6321(4) 0.1559(3)
H31_6 H 0.5447 0.6632 0.1560
C40_6 C 0.5309(8) 0.5680(5) 0.1387(3)
H32_6 H 0.5288 0.5505 0.1255
C9_7 C 0.0344(5) 0.1364(4) 0.1131(2)
C16_7 C 0.0305(7) 0.2025(5) 0.0905(3)
H12_7 H 0.0285 0.2338 0.0903
C17_7 C 0.0395(7) 0.1393(5) 0.0736(3)
H13_7 H 0.0445 0.1222 0.0604
C19_7 C 0.0399(7) 0.1179(4) 0.0941(3)
H15_7 H 0.0447 0.0868 0.0940
C20_7 C 0.0309(8) 0.1820(5) 0.1113(3)
H16_7 H 0.0288 0.1995 0.1245
C29_7 C 0.0344(5) 0.1136(4) 0.1369(2)
C36_7 C 0.0305(7) 0.0475(5) 0.1595(3)
H28_7 H 0.0285 0.0162 0.1597
C37_7 C 0.0395(7) 0.1107(5) 0.1764(3)
H29_7 H 0.0445 0.1278 0.1896
C39_7 C 0.0399(7) 0.1321(4) 0.1559(3)
H31_7 H 0.0447 0.1632 0.1560
C40_7 C 0.0309(8) 0.0680(5) 0.1387(3)
H32_7 H 0.0288 0.0505 0.1255
C9_8 C 0.0344(5) 0.6364(4) 0.6131(2)
C16_8 C 0.0305(7) 0.7025(5) 0.5905(3)
H12_8 H 0.0285 0.7338 0.5903
C17_8 C 0.0395(7) 0.6393(5) 0.5736(3)
H13_8 H 0.0445 0.6222 0.5604
C19_8 C 0.0399(7) 0.6179(4) 0.5941(3)
H15_8 H 0.0447 0.5868 0.5940
C20_8 C 0.0309(8) 0.6820(5) 0.6113(3)
H16_8 H 0.0288 0.6995 0.6245
C29_8 C 0.0344(5) 0.6136(4) 0.6369(2)
C36_8 C 0.0305(7) 0.5475(5) 0.6595(3)
H28_8 H 0.0285 0.5162 0.6597
C37_8 C 0.0395(7) 0.6107(5) 0.6764(3)
H29_8 H 0.0445 0.6278 0.6896
C39_8 C 0.0399(7) 0.6321(4) 0.6559(3)
H31_8 H 0.0447 0.6632 0.6560
C40_8 C 0.0309(8) 0.5680(5) 0.6387(3)
H32_8 H 0.0288 0.5505 0.6255
Mo2_8 Mo 0.96420(3) 0.76028(3) 0.515377(18)
S4_7 S 0.97147(11) 0.68424(8) 0.51627(5)
S6_8 S 0.99132(13) 0.78363(10) 0.48055(6)
O2_8 O 0.9015(3) 0.7764(3) 0.52096(16)
Cu8_7 Cu 0.99565(7) 0.70803(5) 0.48120(3)
C24_8 C 0.9735(5) 0.9450(4) 0.5090(3)
H19_8 H 0.9402 0.9544 0.5132
C25_8 C 0.9865(5) 0.8989(4) 0.5104(3)
H20_8 H 0.9611 0.8786 0.5152
Mo1_8 Mo 0.21420(3) 0.01028(3) 0.484623(18)
Cu2_9 Cu 0.29525(5) 0.06449(4) 0.49291(3)
S2_9 S 0.26904(10) 0.03915(8) 0.45811(5)
S3_8 S 0.24132(13) 0.03363(10) 0.51945(6)
O1_8 O 0.1515(3) 0.0264(3) 0.47904(16)
N1_9 N 0.3729(3) 0.0591(3) 0.50018(19)
N2_9 N 0.2817(3) 0.1341(3) 0.49477(19)
C1_9 C 0.3047(4) 0.2082(4) 0.5047(2)
H1_9 H 0.3302 0.2274 0.5106
C2_9 C 0.2579(4) 0.2255(3) 0.4983(2)
C3_9 C 0.3150(4) 0.1645(3) 0.5030(2)
H2_9 H 0.3477 0.1545 0.5078
C4_8 C 0.2235(5) 0.1950(4) 0.4910(3)
H3_8 H 0.1902 0.2044 0.4868
C5_8 C 0.2365(5) 0.1489(4) 0.4896(3)
H4_8 H 0.2111 0.1286 0.4848
C6_9 C 0.5348(4) 0.0544(3) 0.5190(2)
C7_9 C 0.4790(4) 0.0564(3) 0.5125(2)
C8_9 C 0.4613(4) 0.0714(4) 0.4917(2)
H5_9 H 0.4855 0.0814 0.4809
C10_9 C 0.4105(4) 0.0720(4) 0.4863(2)
H6_9 H 0.4011 0.0823 0.4718
C12_9 C 0.5482(4) 0.0365(5) 0.5394(2)
H8_9 H 0.5230 0.0253 0.5493
C13_9 C 0.5724(4) 0.0697(4) 0.5044(2)
H9_9 H 0.5633 0.0827 0.4905
C15_9 C 0.3890(5) 0.0442(6) 0.5205(3)
H11_9 H 0.3636 0.0340 0.5306
C18_9 C 0.4398(5) 0.0426(5) 0.5276(3)
H14_9 H 0.4482 0.0326 0.5422
Cu4_9 Cu 0.71841(5) 0.03676(4) 0.54079(2)
Cu6_5 Cu 0.20475(5) 0.43551(4) 0.50709(3)
S4_8 S 0.77853(11) 0.06576(8) 0.51627(5)
N6_5 N 0.2183(3) 0.3659(3) 0.50523(19)
N8_9 N 0.6414(3) 0.0493(3) 0.53075(18)
N10_9 N 0.7175(3) 0.0676(3) 0.57154(17)
C21_9 C 0.1953(4) 0.2918(4) 0.4953(2)
H17_9 H 0.1698 0.2726 0.4894
C22_9 C 0.2421(4) 0.2745(3) 0.5017(2)
C23_9 C 0.1850(4) 0.3355(3) 0.4970(2)
H18_9 H 0.1523 0.3455 0.4922
C24_9 C 0.2765(5) 0.3050(4) 0.5090(3)
H19_9 H 0.3098 0.2956 0.5132
C25_9 C 0.2635(5) 0.3511(4) 0.5104(3)
H20_9 H 0.2889 0.3714 0.5152
C31_9 C 0.6244(6) 0.0654(4) 0.5107(2)
H23_9 H 0.6495 0.0744 0.5001
C34_9 C 0.6001(6) 0.0352(5) 0.5449(2)
H26_9 H 0.6089 0.0241 0.5593
Cu8_8 Cu 0.75435(7) 0.04197(5) 0.48120(3)
Cl2_9 Cl 0.7061(2) 0.08377(15) 0.45664(7)
Cu1_5 Cu 0.28159(5) 0.46324(4) 0.95921(2)
Mo1_9 Mo 0.21420(3) 0.51028(3) 0.984623(18)
Cu2_10 Cu 0.29525(5) 0.56449(4) 0.99291(3)
S1_7 S 0.22147(11) 0.43424(8) 0.98373(5)
S2_10 S 0.26904(10) 0.53915(8) 0.95811(5)
O1_9 O 0.1515(3) 0.5264(3) 0.97904(16)
N2_10 N 0.2817(3) 0.6341(3) 0.99477(19)
N3_9 N 0.3586(3) 0.4507(3) 0.96925(18)
N4_5 N 0.2825(3) 0.4324(3) 0.92846(17)
C2_10 C 0.2579(4) 0.7255(3) 0.9983(2)
C4_9 C 0.2235(5) 0.6950(4) 0.9910(3)
H3_9 H 0.1902 0.7044 0.9868
C5_9 C 0.2365(5) 0.6489(4) 0.9896(3)
H4_9 H 0.2111 0.6286 0.9848
C8_10 C 0.4613(4) 0.5714(4) 0.9917(2)
H5_10 H 0.4855 0.5814 0.9809
C9_9 C 0.2844(5) 0.3864(4) 0.8869(2)
C10_10 C 0.4105(4) 0.5720(4) 0.9863(2)
H6_10 H 0.4011 0.5823 0.9718
C11_9 C 0.3756(6) 0.4346(4) 0.9893(2)
H7_9 H 0.3505 0.4256 0.9999
H9_10 H 0.5633 0.5827 0.9905
C14_9 C 0.3999(6) 0.4648(5) 0.9551(2)
H10_9 H 0.3911 0.4759 0.9407
C16_9 C 0.2805(7) 0.4525(5) 0.9095(3)
H12_9 H 0.2785 0.4838 0.9097
C17_9 C 0.2895(7) 0.3893(5) 0.9264(3)
H13_9 H 0.2945 0.3722 0.9396
C19_9 C 0.2899(7) 0.3679(4) 0.9059(3)
H15_9 H 0.2947 0.3368 0.9060
C20_9 C 0.2809(8) 0.4320(5) 0.8887(3)
H16_9 H 0.2788 0.4495 0.8755
Cu5_5 Cu 0.28159(5) 0.28676(4) 0.79079(2)
S6_9 S 0.75868(13) 0.46637(10) 0.98055(6)
N5_9 N 0.6271(3) 0.4409(3) 0.99982(19)
N9_5 N 0.2825(3) 0.3176(3) 0.82154(17)
C21_10 C 0.1953(4) 0.7918(4) 0.9953(2)
H17_10 H 0.1698 0.7726 0.9894
C23_10 C 0.1850(4) 0.8355(3) 0.9970(2)
H18_10 H 0.1523 0.8455 0.9922
C26_9 C 0.4652(4) 0.4456(3) 0.9810(2)
C27_9 C 0.5210(4) 0.4436(3) 0.9875(2)
C29_9 C 0.2844(5) 0.3636(4) 0.8631(2)
C32_9 C 0.4518(4) 0.4635(5) 0.9606(2)
H24_9 H 0.4770 0.4747 0.9507
C33_9 C 0.4276(4) 0.4303(4) 0.9956(2)
C35_9 C 0.6110(5) 0.4558(6) 0.9795(3)
H27_9 H 0.6364 0.4660 0.9694
C36_9 C 0.2805(7) 0.2975(5) 0.8405(3)
H28_9 H 0.2785 0.2662 0.8403
C37_9 C 0.2895(7) 0.3607(5) 0.8236(3)
H29_9 H 0.2945 0.3778 0.8104
C38_9 C 0.5602(5) 0.4574(5) 0.9724(3)
H30_9 H 0.5518 0.4674 0.9578
C39_9 C 0.2899(7) 0.3821(4) 0.8441(3)
H31_9 H 0.2947 0.4132 0.8440
C40_9 C 0.2809(8) 0.3180(5) 0.8613(3)
H32_9 H 0.2788 0.3005 0.8745
Cu8_9 Cu 0.75435(7) 0.54197(5) 0.98120(3)
Cl2_10 Cl 0.7061(2) 0.58377(15) 0.95664(7)
Mo1_10 Mo 0.21420(3) 0.23972(3) 0.765377(18)
Cu2_11 Cu 0.29525(5) 0.18551(4) 0.75709(3)
S1_8 S 0.22147(11) 0.31576(8) 0.76627(5)
S2_11 S 0.26904(10) 0.21085(8) 0.79189(5)
S3_9 S 0.24132(13) 0.21637(10) 0.73055(6)
O1_10 O 0.1515(3) 0.2236(3) 0.77096(16)
N1_10 N 0.3729(3) 0.1909(3) 0.74982(19)
N2_11 N 0.2817(3) 0.1159(3) 0.75523(19)
N3_10 N 0.3586(3) 0.2993(3) 0.78075(18)
C1_10 C 0.3047(4) 0.0418(4) 0.7453(2)
H1_10 H 0.3302 0.0226 0.7394
C2_11 C 0.2579(4) 0.0245(3) 0.7517(2)
C3_10 C 0.3150(4) 0.0855(3) 0.7470(2)
H2_10 H 0.3477 0.0955 0.7422
C4_10 C 0.2235(5) 0.0550(4) 0.7590(3)
H3_10 H 0.1902 0.0456 0.7632
C5_10 C 0.2365(5) 0.1011(4) 0.7604(3)
H4_10 H 0.2111 0.1214 0.7652
C6_10 C 0.5348(4) 0.1956(3) 0.7310(2)
C7_10 C 0.4790(4) 0.1936(3) 0.7375(2)
C8_11 C 0.4613(4) 0.1786(4) 0.7583(2)
H5_11 H 0.4855 0.1686 0.7691
C10_11 C 0.4105(4) 0.1780(4) 0.7637(2)
H6_11 H 0.4011 0.1677 0.7782
C11_10 C 0.3756(6) 0.3154(4) 0.7607(2)
H7_10 H 0.3505 0.3244 0.7501
C12_10 C 0.5482(4) 0.2135(5) 0.7106(2)
H8_10 H 0.5230 0.2247 0.7007
C13_10 C 0.5724(4) 0.1803(4) 0.7456(2)
H9_11 H 0.5633 0.1673 0.7595
C14_10 C 0.3999(6) 0.2852(5) 0.7949(2)
H10_10 H 0.3911 0.2741 0.8093
C15_10 C 0.3890(5) 0.2058(6) 0.7295(3)
H11_10 H 0.3636 0.2160 0.7194
C18_10 C 0.4398(5) 0.2074(5) 0.7224(3)
H14_10 H 0.4482 0.2174 0.7078
Cu3_7 Cu 0.24565(7) 0.29197(5) 0.73120(3)
Cl1_9 Cl 0.2939(2) 0.33377(15) 0.70664(7)
Cu4_10 Cu 0.71841(5) 0.21324(4) 0.70921(2)
Mo2_9 Mo 0.78580(3) 0.26028(3) 0.734623(18)
Cu7_5 Cu 0.70475(5) 0.31449(4) 0.74291(3)
S4_9 S 0.77853(11) 0.18424(8) 0.73373(5)
S5_9 S 0.73096(10) 0.28915(8) 0.70811(5)
S6_10 S 0.75868(13) 0.28363(10) 0.76945(6)
O2_9 O 0.8485(3) 0.2764(3) 0.72904(16)
N5_10 N 0.6271(3) 0.3091(3) 0.75018(19)
N7_5 N 0.7183(3) 0.3841(3) 0.74477(19)
N8_10 N 0.6414(3) 0.2007(3) 0.71925(18)
N10_10 N 0.7175(3) 0.1824(3) 0.67846(17)
C26_10 C 0.4652(4) 0.3044(3) 0.7690(2)
C27_10 C 0.5210(4) 0.3064(3) 0.7625(2)
C28_9 C 0.5387(4) 0.3214(4) 0.7417(2)
H21_9 H 0.5145 0.3314 0.7309
C30_9 C 0.5895(4) 0.3220(4) 0.7363(2)
H22_9 H 0.5989 0.3323 0.7218
C31_10 C 0.6244(6) 0.1846(4) 0.7393(2)
H23_10 H 0.6495 0.1756 0.7499
C32_10 C 0.4518(4) 0.2865(5) 0.7894(2)
H24_10 H 0.4770 0.2753 0.7993
C33_10 C 0.4276(4) 0.3197(4) 0.7544(2)
H25_9 H 0.4367 0.3327 0.7405
C34_10 C 0.6001(6) 0.2148(5) 0.7051(2)
H26_10 H 0.6089 0.2259 0.6907
C35_10 C 0.6110(5) 0.2942(6) 0.7705(3)
H27_10 H 0.6364 0.2840 0.7806
C38_10 C 0.5602(5) 0.2926(5) 0.7776(3)
H30_10 H 0.5518 0.2826 0.7922
Cu8_10 Cu 0.75435(7) 0.20803(5) 0.76880(3)
Cl2_11 Cl 0.7061(2) 0.16623(15) 0.79336(7)
Cu6_6 Cu 0.20475(5) 0.81449(4) 0.74291(3)
N6_6 N 0.2183(3) 0.8841(3) 0.74477(19)
C21_11 C 0.1953(4) 0.9582(4) 0.7547(2)
H17_11 H 0.1698 0.9774 0.7606
C22_10 C 0.2421(4) 0.9755(3) 0.7483(2)
C23_11 C 0.1850(4) 0.9145(3) 0.7530(2)
H18_11 H 0.1523 0.9045 0.7578
C24_10 C 0.2765(5) 0.9450(4) 0.7410(3)
H19_10 H 0.3098 0.9544 0.7368
C25_10 C 0.2635(5) 0.8989(4) 0.7396(3)
H20_10 H 0.2889 0.8786 0.7348
S6_11 S 0.25868(13) 0.96637(10) 0.98055(6)
N5_11 N 0.1271(3) 0.9409(3) 0.99982(19)
C27_11 C 0.0210(4) 0.9436(3) 0.9875(2)
C35_11 C 0.1110(5) 0.9558(6) 0.9795(3)
H27_11 H 0.1364 0.9660 0.9694
C38_11 C 0.0602(5) 0.9574(5) 0.9724(3)
H30_11 H 0.0518 0.9674 0.9578
Mo1_11 Mo 0.71420(3) 0.01028(3) 0.984623(18)
Cu2_12 Cu 0.79525(5) 0.06449(4) 0.99291(3)
S2_12 S 0.76904(10) 0.03915(8) 0.95811(5)
O1_11 O 0.6515(3) 0.0264(3) 0.97904(16)
N2_12 N 0.7817(3) 0.1341(3) 0.99477(19)
C2_12 C 0.7579(4) 0.2255(3) 0.9983(2)
C4_11 C 0.7235(5) 0.1950(4) 0.9910(3)
H3_11 H 0.6902 0.2044 0.9868
C5_11 C 0.7365(5) 0.1489(4) 0.9896(3)
H4_11 H 0.7111 0.1286 0.9848
C8_12 C 0.9613(4) 0.0714(4) 0.9917(2)
H5_12 H 0.9855 0.0814 0.9809
C10_12 C 0.9105(4) 0.0720(4) 0.9863(2)
H6_12 H 0.9011 0.0823 0.9718
C21_12 C 0.6953(4) 0.2918(4) 0.9953(2)
H17_12 H 0.6698 0.2726 0.9894
C23_12 C 0.6850(4) 0.3355(3) 0.9970(2)
H18_12 H 0.6523 0.3455 0.9922
Cu1_6 Cu 0.78159(5) 0.96324(4) 0.95921(2)
S1_9 S 0.72147(11) 0.93424(8) 0.98373(5)
N3_11 N 0.8586(3) 0.9507(3) 0.96925(18)
N4_6 N 0.7825(3) 0.9324(3) 0.92846(17)
C9_10 C 0.7844(5) 0.8864(4) 0.8869(2)
C11_11 C 0.8756(6) 0.9346(4) 0.9893(2)
H7_11 H 0.8505 0.9256 0.9999
C14_11 C 0.8999(6) 0.9648(5) 0.9551(2)
H10_11 H 0.8911 0.9759 0.9407
C16_10 C 0.7805(7) 0.9525(5) 0.9095(3)
H12_10 H 0.7785 0.9838 0.9097
C17_10 C 0.7895(7) 0.8893(5) 0.9264(3)
H13_10 H 0.7945 0.8722 0.9396
C19_10 C 0.7899(7) 0.8679(4) 0.9059(3)
H15_10 H 0.7947 0.8368 0.9060
C20_10 C 0.7809(8) 0.9320(5) 0.8887(3)
H16_10 H 0.7788 0.9495 0.8755
Cu5_6 Cu 0.78159(5) 0.78676(4) 0.79079(2)
N9_6 N 0.7825(3) 0.8176(3) 0.82154(17)
C26_11 C 0.9652(4) 0.9456(3) 0.9810(2)
C29_10 C 0.7844(5) 0.8636(4) 0.8631(2)
C32_11 C 0.9518(4) 0.9635(5) 0.9606(2)
H24_11 H 0.9770 0.9747 0.9507
C33_11 C 0.9276(4) 0.9303(4) 0.9956(2)
C36_10 C 0.7805(7) 0.7975(5) 0.8405(3)
H28_10 H 0.7785 0.7662 0.8403
C37_10 C 0.7895(7) 0.8607(5) 0.8236(3)
H29_10 H 0.7945 0.8778 0.8104
C39_10 C 0.7899(7) 0.8821(4) 0.8441(3)
H31_10 H 0.7947 0.9132 0.8440
C40_10 C 0.7809(8) 0.8180(5) 0.8613(3)
H32_10 H 0.7788 0.8005 0.8745
C6_11 C 0.0348(4) 0.6956(3) 0.7310(2)
C12_11 C 0.0482(4) 0.7135(5) 0.7106(2)
H8_11 H 0.0230 0.7247 0.7007
C13_11 C 0.0724(4) 0.6803(4) 0.7456(2)
H9_12 H 0.0633 0.6673 0.7595
Cu4_11 Cu 0.21841(5) 0.71324(4) 0.70921(2)
Mo2_10 Mo 0.28580(3) 0.76028(3) 0.734623(18)
S4_10 S 0.27853(11) 0.68424(8) 0.73373(5)
S5_10 S 0.23096(10) 0.78915(8) 0.70811(5)
S6_12 S 0.25868(13) 0.78363(10) 0.76945(6)
O2_10 O 0.3485(3) 0.7764(3) 0.72904(16)
N5_12 N 0.1271(3) 0.8091(3) 0.75018(19)
N8_11 N 0.1414(3) 0.7007(3) 0.71925(18)
N10_11 N 0.2175(3) 0.6824(3) 0.67846(17)
C27_12 C 0.0210(4) 0.8064(3) 0.7625(2)
C28_10 C 0.0387(4) 0.8214(4) 0.7417(2)
H21_10 H 0.0145 0.8314 0.7309
C30_10 C 0.0895(4) 0.8220(4) 0.7363(2)
H22_10 H 0.0989 0.8323 0.7218
C31_11 C 0.1244(6) 0.6846(4) 0.7393(2)
H23_11 H 0.1495 0.6756 0.7499
C34_11 C 0.1001(6) 0.7148(5) 0.7051(2)
H26_11 H 0.1089 0.7259 0.6907
C35_12 C 0.1110(5) 0.7942(6) 0.7705(3)
H27_12 H 0.1364 0.7840 0.7806
C38_12 C 0.0602(5) 0.7926(5) 0.7776(3)
H30_12 H 0.0518 0.7826 0.7922
Cu8_11 Cu 0.25435(7) 0.70803(5) 0.76880(3)
Cl2_12 Cl 0.2061(2) 0.66623(15) 0.79336(7)
Mo1_12 Mo 0.71420(3) 0.73972(3) 0.765377(18)
Cu2_13 Cu 0.79525(5) 0.68551(4) 0.75709(3)
S1_10 S 0.72147(11) 0.81576(8) 0.76627(5)
S2_13 S 0.76904(10) 0.71085(8) 0.79189(5)
S3_10 S 0.74132(13) 0.71637(10) 0.73055(6)
O1_12 O 0.6515(3) 0.7236(3) 0.77096(16)
N1_11 N 0.8729(3) 0.6909(3) 0.74982(19)
N2_13 N 0.7817(3) 0.6159(3) 0.75523(19)
N3_12 N 0.8586(3) 0.7993(3) 0.78075(18)
C1_11 C 0.8047(4) 0.5418(4) 0.7453(2)
H1_11 H 0.8302 0.5226 0.7394
C2_13 C 0.7579(4) 0.5245(3) 0.7517(2)
C3_11 C 0.8150(4) 0.5855(3) 0.7470(2)
H2_11 H 0.8477 0.5955 0.7422
C4_12 C 0.7235(5) 0.5550(4) 0.7590(3)
H3_12 H 0.6902 0.5456 0.7632
C5_12 C 0.7365(5) 0.6011(4) 0.7604(3)
H4_12 H 0.7111 0.6214 0.7652
C7_11 C 0.9790(4) 0.6936(3) 0.7375(2)
C8_13 C 0.9613(4) 0.6786(4) 0.7583(2)
H5_13 H 0.9855 0.6686 0.7691
C10_13 C 0.9105(4) 0.6780(4) 0.7637(2)
H6_13 H 0.9011 0.6677 0.7782
C11_12 C 0.8756(6) 0.8154(4) 0.7607(2)
H7_12 H 0.8505 0.8244 0.7501
C14_12 C 0.8999(6) 0.7852(5) 0.7949(2)
H10_12 H 0.8911 0.7741 0.8093
C15_11 C 0.8890(5) 0.7058(6) 0.7295(3)
H11_11 H 0.8636 0.7160 0.7194
C18_11 C 0.9398(5) 0.7074(5) 0.7224(3)
H14_11 H 0.9482 0.7174 0.7078
Cu3_8 Cu 0.74565(7) 0.79197(5) 0.73120(3)
Cl1_10 Cl 0.7939(2) 0.83377(15) 0.70664(7)
C21_13 C 0.6953(4) 0.4582(4) 0.7547(2)
H17_13 H 0.6698 0.4774 0.7606
C22_11 C 0.7421(4) 0.4755(3) 0.7483(2)
C23_13 C 0.6850(4) 0.4145(3) 0.7530(2)
H18_13 H 0.6523 0.4045 0.7578
C24_11 C 0.7765(5) 0.4450(4) 0.7410(3)
H19_11 H 0.8098 0.4544 0.7368
C25_11 C 0.7635(5) 0.3989(4) 0.7396(3)
H20_11 H 0.7889 0.3786 0.7348
C26_12 C 0.9652(4) 0.8044(3) 0.7690(2)
C32_12 C 0.9518(4) 0.7865(5) 0.7894(2)
H24_12 H 0.9770 0.7753 0.7993
C33_12 C 0.9276(4) 0.8197(4) 0.7544(2)
H25_10 H 0.9367 0.8327 0.7405
C6_12 C 0.0348(4) 0.5544(3) 0.5190(2)
C12_12 C 0.0482(4) 0.5365(5) 0.5394(2)
H8_12 H 0.0230 0.5253 0.5493
C13_12 C 0.0724(4) 0.5697(4) 0.5044(2)
H9_13 H 0.0633 0.5827 0.4905
Cu4_12 Cu 0.21841(5) 0.53676(4) 0.54079(2)
Mo2_11 Mo 0.28580(3) 0.48972(3) 0.515377(18)
S4_11 S 0.27853(11) 0.56576(8) 0.51627(5)
S5_11 S 0.23096(10) 0.46085(8) 0.54189(5)
S6_13 S 0.25868(13) 0.46637(10) 0.48055(6)
O2_11 O 0.3485(3) 0.4736(3) 0.52096(16)
N5_13 N 0.1271(3) 0.4409(3) 0.49982(19)
N8_12 N 0.1414(3) 0.5493(3) 0.53075(18)
N10_12 N 0.2175(3) 0.5676(3) 0.57154(17)
C27_13 C 0.0210(4) 0.4436(3) 0.4875(2)
C28_11 C 0.0387(4) 0.4286(4) 0.5083(2)
H21_11 H 0.0145 0.4186 0.5191
C30_11 C 0.0895(4) 0.4280(4) 0.5137(2)
H22_11 H 0.0989 0.4177 0.5282
C31_12 C 0.1244(6) 0.5654(4) 0.5107(2)
H23_12 H 0.1495 0.5744 0.5001
C34_12 C 0.1001(6) 0.5352(5) 0.5449(2)
H26_12 H 0.1089 0.5241 0.5593
C35_13 C 0.1110(5) 0.4558(6) 0.4795(3)
H27_13 H 0.1364 0.4660 0.4694
C38_13 C 0.0602(5) 0.4574(5) 0.4724(3)
H30_13 H 0.0518 0.4674 0.4578
Cu8_12 Cu 0.25435(7) 0.54197(5) 0.48120(3)
Cl2_13 Cl 0.2061(2) 0.58377(15) 0.45664(7)
C9_11 C 0.7156(5) 0.1136(4) 0.6131(2)
C16_11 C 0.7195(7) 0.0475(5) 0.5905(3)
H12_11 H 0.7215 0.0162 0.5903
C17_11 C 0.7105(7) 0.1107(5) 0.5736(3)
H13_11 H 0.7055 0.1278 0.5604
C19_11 C 0.7101(7) 0.1321(4) 0.5941(3)
H15_11 H 0.7053 0.1632 0.5940
C20_11 C 0.7191(8) 0.0680(5) 0.6113(3)
H16_11 H 0.7212 0.0505 0.6245
C29_11 C 0.7156(5) 0.1364(4) 0.6369(2)
C36_11 C 0.7195(7) 0.2025(5) 0.6595(3)
H28_11 H 0.7215 0.2338 0.6597
C37_11 C 0.7105(7) 0.1393(5) 0.6764(3)
H29_11 H 0.7055 0.1222 0.6896
C39_11 C 0.7101(7) 0.1179(4) 0.6559(3)
H31_11 H 0.7053 0.0868 0.6560
C40_11 C 0.7191(8) 0.1820(5) 0.6387(3)
H32_11 H 0.7212 0.1995 0.6255
C9_12 C 0.2156(5) 0.6136(4) 0.6131(2)
C16_12 C 0.2195(7) 0.5475(5) 0.5905(3)
H12_12 H 0.2215 0.5162 0.5903
C17_12 C 0.2105(7) 0.6107(5) 0.5736(3)
H13_12 H 0.2055 0.6278 0.5604
C19_12 C 0.2101(7) 0.6321(4) 0.5941(3)
H15_12 H 0.2053 0.6632 0.5940
C20_12 C 0.2191(8) 0.5680(5) 0.6113(3)
H16_12 H 0.2212 0.5505 0.6245
C29_12 C 0.2156(5) 0.6364(4) 0.6369(2)
C36_12 C 0.2195(7) 0.7025(5) 0.6595(3)
H28_12 H 0.2215 0.7338 0.6597
C37_12 C 0.2105(7) 0.6393(5) 0.6764(3)
H29_12 H 0.2055 0.6222 0.6896
C39_12 C 0.2101(7) 0.6179(4) 0.6559(3)
H31_12 H 0.2053 0.5868 0.6560
C40_12 C 0.2191(8) 0.6820(5) 0.6387(3)
H32_12 H 0.2212 0.6995 0.6255
Cu1_7 Cu 0.28159(5) 0.96324(4) 0.45921(2)
S1_11 S 0.22147(11) 0.93424(8) 0.48373(5)
N3_13 N 0.3586(3) 0.9507(3) 0.46925(18)
N4_7 N 0.2825(3) 0.9324(3) 0.42846(17)
C9_13 C 0.2844(5) 0.8864(4) 0.3869(2)
C11_13 C 0.3756(6) 0.9346(4) 0.4893(2)
H7_13 H 0.3505 0.9256 0.4999
C14_13 C 0.3999(6) 0.9648(5) 0.4551(2)
H10_13 H 0.3911 0.9759 0.4407
C16_13 C 0.2805(7) 0.9525(5) 0.4095(3)
H12_13 H 0.2785 0.9838 0.4097
C17_13 C 0.2895(7) 0.8893(5) 0.4264(3)
H13_13 H 0.2945 0.8722 0.4396
C19_13 C 0.2899(7) 0.8679(4) 0.4059(3)
H15_13 H 0.2947 0.8368 0.4060
C20_13 C 0.2809(8) 0.9320(5) 0.3887(3)
H16_13 H 0.2788 0.9495 0.3755
Cu3_9 Cu 0.24565(7) 0.95803(5) 0.51880(3)
Cl1_11 Cl 0.2939(2) 0.91623(15) 0.54336(7)
Cu5_7 Cu 0.28159(5) 0.78676(4) 0.29079(2)
Mo2_12 Mo 0.78580(3) 0.98972(3) 0.515377(18)
Cu7_6 Cu 0.70475(5) 0.93551(4) 0.50709(3)
S5_12 S 0.73096(10) 0.96085(8) 0.54189(5)
S6_14 S 0.75868(13) 0.96637(10) 0.48055(6)
O2_12 O 0.8485(3) 0.9736(3) 0.52096(16)
N5_14 N 0.6271(3) 0.9409(3) 0.49982(19)
N7_6 N 0.7183(3) 0.8659(3) 0.50523(19)
N9_7 N 0.2825(3) 0.8176(3) 0.32154(17)
C26_13 C 0.4652(4) 0.9456(3) 0.4810(2)
C27_14 C 0.5210(4) 0.9436(3) 0.4875(2)
C28_12 C 0.5387(4) 0.9286(4) 0.5083(2)
H21_12 H 0.5145 0.9186 0.5191
C29_13 C 0.2844(5) 0.8636(4) 0.3631(2)
C30_12 C 0.5895(4) 0.9280(4) 0.5137(2)
H22_12 H 0.5989 0.9177 0.5282
C32_13 C 0.4518(4) 0.9635(5) 0.4606(2)
H24_13 H 0.4770 0.9747 0.4507
C33_13 C 0.4276(4) 0.9303(4) 0.4956(2)
H25_11 H 0.4367 0.9173 0.5095
C35_14 C 0.6110(5) 0.9558(6) 0.4795(3)
H27_14 H 0.6364 0.9660 0.4694
C36_13 C 0.2805(7) 0.7975(5) 0.3405(3)
H28_13 H 0.2785 0.7662 0.3403
C37_13 C 0.2895(7) 0.8607(5) 0.3236(3)
H29_13 H 0.2945 0.8778 0.3104
C38_14 C 0.5602(5) 0.9574(5) 0.4724(3)
H30_14 H 0.5518 0.9674 0.4578
C39_13 C 0.2899(7) 0.8821(4) 0.3441(3)
H31_13 H 0.2947 0.9132 0.3440
C40_13 C 0.2809(8) 0.8180(5) 0.3613(3)
H32_13 H 0.2788 0.8005 0.3745
Mo1_13 Mo 0.21420(3) 0.73972(3) 0.265377(18)
Cu2_14 Cu 0.29525(5) 0.68551(4) 0.25709(3)
S1_12 S 0.22147(11) 0.81576(8) 0.26627(5)
S2_14 S 0.26904(10) 0.71085(8) 0.29189(5)
S3_11 S 0.24132(13) 0.71637(10) 0.23055(6)
O1_13 O 0.1515(3) 0.7236(3) 0.27096(16)
N1_12 N 0.3729(3) 0.6909(3) 0.24982(19)
N2_14 N 0.2817(3) 0.6159(3) 0.25523(19)
N3_14 N 0.3586(3) 0.7993(3) 0.28075(18)
C1_12 C 0.3047(4) 0.5418(4) 0.2453(2)
H1_12 H 0.3302 0.5226 0.2394
C2_14 C 0.2579(4) 0.5245(3) 0.2517(2)
C3_12 C 0.3150(4) 0.5855(3) 0.2470(2)
H2_12 H 0.3477 0.5955 0.2422
C4_13 C 0.2235(5) 0.5550(4) 0.2590(3)
H3_13 H 0.1902 0.5456 0.2632
C5_13 C 0.2365(5) 0.6011(4) 0.2604(3)
H4_13 H 0.2111 0.6214 0.2652
C6_13 C 0.5348(4) 0.6956(3) 0.2310(2)
C7_12 C 0.4790(4) 0.6936(3) 0.2375(2)
C8_14 C 0.4613(4) 0.6786(4) 0.2583(2)
H5_14 H 0.4855 0.6686 0.2691
C10_14 C 0.4105(4) 0.6780(4) 0.2637(2)
H6_14 H 0.4011 0.6677 0.2782
C11_14 C 0.3756(6) 0.8154(4) 0.2607(2)
H7_14 H 0.3505 0.8244 0.2501
C12_13 C 0.5482(4) 0.7135(5) 0.2106(2)
H8_13 H 0.5230 0.7247 0.2007
C13_13 C 0.5724(4) 0.6803(4) 0.2456(2)
H9_14 H 0.5633 0.6673 0.2595
C14_14 C 0.3999(6) 0.7852(5) 0.2949(2)
H10_14 H 0.3911 0.7741 0.3093
C15_12 C 0.3890(5) 0.7058(6) 0.2295(3)
H11_12 H 0.3636 0.7160 0.2194
C18_12 C 0.4398(5) 0.7074(5) 0.2224(3)
H14_12 H 0.4482 0.7174 0.2078
Cu3_10 Cu 0.24565(7) 0.79197(5) 0.23120(3)
Cl1_12 Cl 0.2939(2) 0.83377(15) 0.20664(7)
Cu4_13 Cu 0.71841(5) 0.71324(4) 0.20921(2)
Mo2_13 Mo 0.78580(3) 0.76028(3) 0.234623(18)
Cu6_7 Cu 0.20475(5) 0.31449(4) 0.24291(3)
Cu7_7 Cu 0.70475(5) 0.81449(4) 0.24291(3)
S4_12 S 0.77853(11) 0.68424(8) 0.23373(5)
S5_13 S 0.73096(10) 0.78915(8) 0.20811(5)
S6_15 S 0.75868(13) 0.78363(10) 0.26945(6)
O2_13 O 0.8485(3) 0.7764(3) 0.22904(16)
N5_15 N 0.6271(3) 0.8091(3) 0.25018(19)
N6_7 N 0.2183(3) 0.3841(3) 0.24477(19)
N7_7 N 0.7183(3) 0.8841(3) 0.24477(19)
N8_13 N 0.6414(3) 0.7007(3) 0.21925(18)
N10_13 N 0.7175(3) 0.6824(3) 0.17846(17)
C21_14 C 0.1953(4) 0.4582(4) 0.2547(2)
H17_14 H 0.1698 0.4774 0.2606
C22_12 C 0.2421(4) 0.4755(3) 0.2483(2)
C23_14 C 0.1850(4) 0.4145(3) 0.2530(2)
H18_14 H 0.1523 0.4045 0.2578
C24_12 C 0.2765(5) 0.4450(4) 0.2410(3)
H19_12 H 0.3098 0.4544 0.2368
C25_12 C 0.2635(5) 0.3989(4) 0.2396(3)
H20_12 H 0.2889 0.3786 0.2348
C26_14 C 0.4652(4) 0.8044(3) 0.2690(2)
C27_15 C 0.5210(4) 0.8064(3) 0.2625(2)
C28_13 C 0.5387(4) 0.8214(4) 0.2417(2)
H21_13 H 0.5145 0.8314 0.2309
C30_13 C 0.5895(4) 0.8220(4) 0.2363(2)
H22_13 H 0.5989 0.8323 0.2218
C31_13 C 0.6244(6) 0.6846(4) 0.2393(2)
H23_13 H 0.6495 0.6756 0.2499
C32_14 C 0.4518(4) 0.7865(5) 0.2894(2)
H24_14 H 0.4770 0.7753 0.2993
C33_14 C 0.4276(4) 0.8197(4) 0.2544(2)
H25_12 H 0.4367 0.8327 0.2405
C34_13 C 0.6001(6) 0.7148(5) 0.2051(2)
H26_13 H 0.6089 0.7259 0.1907
C35_15 C 0.6110(5) 0.7942(6) 0.2705(3)
H27_15 H 0.6364 0.7840 0.2806
C38_15 C 0.5602(5) 0.7926(5) 0.2776(3)
H30_15 H 0.5518 0.7826 0.2922
Cu8_13 Cu 0.75435(7) 0.70803(5) 0.26880(3)
Cl2_14 Cl 0.7061(2) 0.66623(15) 0.29336(7)
S3_12 S 0.24132(13) 0.53363(10) 0.01945(6)
N1_13 N 0.3729(3) 0.5591(3) 0.00018(19)
C1_13 C 0.3047(4) 0.7082(4) 0.0047(2)
H1_13 H 0.3302 0.7274 0.0106
C3_13 C 0.3150(4) 0.6645(3) 0.0030(2)
H2_13 H 0.3477 0.6545 0.0078
C6_14 C 0.5348(4) 0.5544(3) 0.0190(2)
C7_13 C 0.4790(4) 0.5564(3) 0.0125(2)
C12_14 C 0.5482(4) 0.5365(5) 0.0394(2)
H8_14 H 0.5230 0.5253 0.0493
C13_14 C 0.5724(4) 0.5697(4) 0.0044(2)
C15_13 C 0.3890(5) 0.5442(6) 0.0205(3)
H11_13 H 0.3636 0.5340 0.0306
C18_13 C 0.4398(5) 0.5426(5) 0.0276(3)
H14_13 H 0.4482 0.5326 0.0422
Cu3_11 Cu 0.24565(7) 0.45803(5) 0.01880(3)
Cl1_13 Cl 0.2939(2) 0.41623(15) 0.04336(7)
Cu4_14 Cu 0.71841(5) 0.53676(4) 0.04079(2)
Mo2_14 Mo 0.78580(3) 0.48972(3) 0.015377(18)
Cu6_8 Cu 0.20475(5) 0.93551(4) 0.00709(3)
Cu7_8 Cu 0.70475(5) 0.43551(4) 0.00709(3)
S4_13 S 0.77853(11) 0.56576(8) 0.01627(5)
S5_14 S 0.73096(10) 0.46085(8) 0.04189(5)
O2_14 O 0.8485(3) 0.4736(3) 0.02096(16)
N6_8 N 0.2183(3) 0.8659(3) 0.00523(19)
N7_8 N 0.7183(3) 0.3659(3) 0.00523(19)
N8_14 N 0.6414(3) 0.5493(3) 0.03075(18)
N10_14 N 0.7175(3) 0.5676(3) 0.07154(17)
C22_13 C 0.2421(4) 0.7745(3) 0.0017(2)
C24_13 C 0.2765(5) 0.8050(4) 0.0090(3)
H19_13 H 0.3098 0.7956 0.0132
C25_13 C 0.2635(5) 0.8511(4) 0.0104(3)
H20_13 H 0.2889 0.8714 0.0152
C28_14 C 0.5387(4) 0.4286(4) 0.0083(2)
H21_14 H 0.5145 0.4186 0.0191
C30_14 C 0.5895(4) 0.4280(4) 0.0137(2)
H22_14 H 0.5989 0.4177 0.0282
C31_14 C 0.6244(6) 0.5654(4) 0.0107(2)
H23_14 H 0.6495 0.5744 0.0001
H25_13 H 0.4367 0.4173 0.0095
C34_14 C 0.6001(6) 0.5352(5) 0.0449(2)
H26_14 H 0.6089 0.5241 0.0593
C6_15 C 0.0348(4) 0.0544(3) 0.0190(2)
C12_15 C 0.0482(4) 0.0365(5) 0.0394(2)
H8_15 H 0.0230 0.0253 0.0493
C13_15 C 0.0724(4) 0.0697(4) 0.0044(2)
Cu4_15 Cu 0.21841(5) 0.03676(4) 0.04079(2)
S4_14 S 0.27853(11) 0.06576(8) 0.01627(5)
N8_15 N 0.1414(3) 0.0493(3) 0.03075(18)
N10_15 N 0.2175(3) 0.0676(3) 0.07154(17)
C31_15 C 0.1244(6) 0.0654(4) 0.0107(2)
H23_15 H 0.1495 0.0744 0.0001
C34_15 C 0.1001(6) 0.0352(5) 0.0449(2)
H26_15 H 0.1089 0.0241 0.0593
Mo2_15 Mo 0.28580(3) 0.98972(3) 0.015377(18)
S5_15 S 0.23096(10) 0.96085(8) 0.04189(5)
O2_15 O 0.3485(3) 0.9736(3) 0.02096(16)
C28_15 C 0.0387(4) 0.9286(4) 0.0083(2)
H21_15 H 0.0145 0.9186 0.0191
C30_15 C 0.0895(4) 0.9280(4) 0.0137(2)
H22_15 H 0.0989 0.9177 0.0282
S3_13 S 0.74132(13) 0.03363(10) 0.01945(6)
N1_14 N 0.8729(3) 0.0591(3) 0.00018(19)
C1_14 C 0.8047(4) 0.2082(4) 0.0047(2)
H1_14 H 0.8302 0.2274 0.0106
C3_14 C 0.8150(4) 0.1645(3) 0.0030(2)
H2_14 H 0.8477 0.1545 0.0078
C7_14 C 0.9790(4) 0.0564(3) 0.0125(2)
C15_14 C 0.8890(5) 0.0442(6) 0.0205(3)
H11_14 H 0.8636 0.0340 0.0306
C18_14 C 0.9398(5) 0.0426(5) 0.0276(3)
H14_14 H 0.9482 0.0326 0.0422
C22_14 C 0.7421(4) 0.2745(3) 0.0017(2)
C24_14 C 0.7765(5) 0.3050(4) 0.0090(3)
H19_14 H 0.8098 0.2956 0.0132
C25_14 C 0.7635(5) 0.3511(4) 0.0104(3)
H20_14 H 0.7889 0.3714 0.0152
Cu1_8 Cu 0.78159(5) 0.46324(4) 0.45921(2)
Mo1_14 Mo 0.71420(3) 0.51028(3) 0.484623(18)
Cu2_15 Cu 0.79525(5) 0.56449(4) 0.49291(3)
S1_13 S 0.72147(11) 0.43424(8) 0.48373(5)
S2_15 S 0.76904(10) 0.53915(8) 0.45811(5)
S3_14 S 0.74132(13) 0.53363(10) 0.51945(6)
O1_14 O 0.6515(3) 0.5264(3) 0.47904(16)
N1_15 N 0.8729(3) 0.5591(3) 0.50018(19)
N2_15 N 0.7817(3) 0.6341(3) 0.49477(19)
N3_15 N 0.8586(3) 0.4507(3) 0.46925(18)
N4_8 N 0.7825(3) 0.4324(3) 0.42846(17)
C1_15 C 0.8047(4) 0.7082(4) 0.5047(2)
H1_15 H 0.8302 0.7274 0.5106
C2_15 C 0.7579(4) 0.7255(3) 0.4983(2)
C3_15 C 0.8150(4) 0.6645(3) 0.5030(2)
H2_15 H 0.8477 0.6545 0.5078
C4_14 C 0.7235(5) 0.6950(4) 0.4910(3)
H3_14 H 0.6902 0.7044 0.4868
C5_14 C 0.7365(5) 0.6489(4) 0.4896(3)
H4_14 H 0.7111 0.6286 0.4848
C7_15 C 0.9790(4) 0.5564(3) 0.5125(2)
C8_15 C 0.9613(4) 0.5714(4) 0.4917(2)
H5_15 H 0.9855 0.5814 0.4809
C9_14 C 0.7844(5) 0.3864(4) 0.3869(2)
C10_15 C 0.9105(4) 0.5720(4) 0.4863(2)
H6_15 H 0.9011 0.5823 0.4718
C11_15 C 0.8756(6) 0.4346(4) 0.4893(2)
H7_15 H 0.8505 0.4256 0.4999
C14_15 C 0.8999(6) 0.4648(5) 0.4551(2)
H10_15 H 0.8911 0.4759 0.4407
C15_15 C 0.8890(5) 0.5442(6) 0.5205(3)
H11_15 H 0.8636 0.5340 0.5306
C16_14 C 0.7805(7) 0.4525(5) 0.4095(3)
H12_14 H 0.7785 0.4838 0.4097
C17_14 C 0.7895(7) 0.3893(5) 0.4264(3)
H13_14 H 0.7945 0.3722 0.4396
C18_15 C 0.9398(5) 0.5426(5) 0.5276(3)
H14_15 H 0.9482 0.5326 0.5422
C19_14 C 0.7899(7) 0.3679(4) 0.4059(3)
H15_14 H 0.7947 0.3368 0.4060
C20_14 C 0.7809(8) 0.4320(5) 0.3887(3)
H16_14 H 0.7788 0.4495 0.3755
Cu3_12 Cu 0.74565(7) 0.45803(5) 0.51880(3)
Cl1_14 Cl 0.7939(2) 0.41623(15) 0.54336(7)
Cu5_8 Cu 0.78159(5) 0.28676(4) 0.29079(2)
N9_8 N 0.7825(3) 0.3176(3) 0.32154(17)
C21_15 C 0.6953(4) 0.7918(4) 0.4953(2)
H17_15 H 0.6698 0.7726 0.4894
C22_15 C 0.7421(4) 0.7745(3) 0.5017(2)
C23_15 C 0.6850(4) 0.8355(3) 0.4970(2)
H18_15 H 0.6523 0.8455 0.4922
C24_15 C 0.7765(5) 0.8050(4) 0.5090(3)
H19_15 H 0.8098 0.7956 0.5132
C25_15 C 0.7635(5) 0.8511(4) 0.5104(3)
H20_15 H 0.7889 0.8714 0.5152
C26_15 C 0.9652(4) 0.4456(3) 0.4810(2)
C29_14 C 0.7844(5) 0.3636(4) 0.3631(2)
C32_15 C 0.9518(4) 0.4635(5) 0.4606(2)
H24_15 H 0.9770 0.4747 0.4507
C33_15 C 0.9276(4) 0.4303(4) 0.4956(2)
H25_14 H 0.9367 0.4173 0.5095
C36_14 C 0.7805(7) 0.2975(5) 0.3405(3)
H28_14 H 0.7785 0.2662 0.3403
C37_14 C 0.7895(7) 0.3607(5) 0.3236(3)
H29_14 H 0.7945 0.3778 0.3104
C39_14 C 0.7899(7) 0.3821(4) 0.3441(3)
H31_14 H 0.7947 0.4132 0.3440
C40_14 C 0.7809(8) 0.3180(5) 0.3613(3)
H32_14 H 0.7788 0.3005 0.3745
C6_16 C 0.0348(4) 0.1956(3) 0.2310(2)
C12_16 C 0.0482(4) 0.2135(5) 0.2106(2)
H8_16 H 0.0230 0.2247 0.2007
C13_16 C 0.0724(4) 0.1803(4) 0.2456(2)
H9_15 H 0.0633 0.1673 0.2595
Cu4_16 Cu 0.21841(5) 0.21324(4) 0.20921(2)
Mo2_16 Mo 0.28580(3) 0.26028(3) 0.234623(18)
S4_15 S 0.27853(11) 0.18424(8) 0.23373(5)
S5_16 S 0.23096(10) 0.28915(8) 0.20811(5)
S6_16 S 0.25868(13) 0.28363(10) 0.26945(6)
O2_16 O 0.3485(3) 0.2764(3) 0.22904(16)
N5_16 N 0.1271(3) 0.3091(3) 0.25018(19)
N8_16 N 0.1414(3) 0.2007(3) 0.21925(18)
N10_16 N 0.2175(3) 0.1824(3) 0.17846(17)
C27_16 C 0.0210(4) 0.3064(3) 0.2625(2)
C28_16 C 0.0387(4) 0.3214(4) 0.2417(2)
H21_16 H 0.0145 0.3314 0.2309
C30_16 C 0.0895(4) 0.3220(4) 0.2363(2)
H22_16 H 0.0989 0.3323 0.2218
C31_16 C 0.1244(6) 0.1846(4) 0.2393(2)
H23_16 H 0.1495 0.1756 0.2499
C34_16 C 0.1001(6) 0.2148(5) 0.2051(2)
H26_16 H 0.1089 0.2259 0.1907
C35_16 C 0.1110(5) 0.2942(6) 0.2705(3)
H27_16 H 0.1364 0.2840 0.2806
C38_16 C 0.0602(5) 0.2926(5) 0.2776(3)
H30_16 H 0.0518 0.2826 0.2922
Cu8_14 Cu 0.25435(7) 0.20803(5) 0.26880(3)
Cl2_15 Cl 0.2061(2) 0.16623(15) 0.29336(7)
Mo1_15 Mo 0.71420(3) 0.23972(3) 0.265377(18)
Cu2_16 Cu 0.79525(5) 0.18551(4) 0.25709(3)
S1_14 S 0.72147(11) 0.31576(8) 0.26627(5)
S2_16 S 0.76904(10) 0.21085(8) 0.29189(5)
S3_15 S 0.74132(13) 0.21637(10) 0.23055(6)
O1_15 O 0.6515(3) 0.2236(3) 0.27096(16)
N1_16 N 0.8729(3) 0.1909(3) 0.24982(19)
N2_16 N 0.7817(3) 0.1159(3) 0.25523(19)
N3_16 N 0.8586(3) 0.2993(3) 0.28075(18)
C1_16 C 0.8047(4) 0.0418(4) 0.2453(2)
H1_16 H 0.8302 0.0226 0.2394
C2_16 C 0.7579(4) 0.0245(3) 0.2517(2)
C3_16 C 0.8150(4) 0.0855(3) 0.2470(2)
H2_16 H 0.8477 0.0955 0.2422
C4_15 C 0.7235(5) 0.0550(4) 0.2590(3)
H3_15 H 0.6902 0.0456 0.2632
C5_15 C 0.7365(5) 0.1011(4) 0.2604(3)
H4_15 H 0.7111 0.1214 0.2652
C7_16 C 0.9790(4) 0.1936(3) 0.2375(2)
C8_16 C 0.9613(4) 0.1786(4) 0.2583(2)
H5_16 H 0.9855 0.1686 0.2691
C10_16 C 0.9105(4) 0.1780(4) 0.2637(2)
H6_16 H 0.9011 0.1677 0.2782
C11_16 C 0.8756(6) 0.3154(4) 0.2607(2)
H7_16 H 0.8505 0.3244 0.2501
C14_16 C 0.8999(6) 0.2852(5) 0.2949(2)
H10_16 H 0.8911 0.2741 0.3093
C15_16 C 0.8890(5) 0.2058(6) 0.2295(3)
H11_16 H 0.8636 0.2160 0.2194
C18_16 C 0.9398(5) 0.2074(5) 0.2224(3)
H14_16 H 0.9482 0.2174 0.2078
Cu3_13 Cu 0.74565(7) 0.29197(5) 0.23120(3)
Cl1_15 Cl 0.7939(2) 0.33377(15) 0.20664(7)
C26_16 C 0.9652(4) 0.3044(3) 0.2690(2)
C32_16 C 0.9518(4) 0.2865(5) 0.2894(2)
H24_16 H 0.9770 0.2753 0.2993
C33_16 C 0.9276(4) 0.3197(4) 0.2544(2)
H25_15 H 0.9367 0.3327 0.2405
C21_16 C 0.6953(4) 0.9582(4) 0.2547(2)
H17_16 H 0.6698 0.9774 0.2606
C22_16 C 0.7421(4) 0.9755(3) 0.2483(2)
C23_16 C 0.6850(4) 0.9145(3) 0.2530(2)
H18_16 H 0.6523 0.9045 0.2578
C24_16 C 0.7765(5) 0.9450(4) 0.2410(3)
H19_16 H 0.8098 0.9544 0.2368
C25_16 C 0.7635(5) 0.8989(4) 0.2396(3)
H20_16 H 0.7889 0.8786 0.2348
C9_15 C 0.7156(5) 0.6136(4) 0.1131(2)
C16_15 C 0.7195(7) 0.5475(5) 0.0905(3)
H12_15 H 0.7215 0.5162 0.0903
C17_15 C 0.7105(7) 0.6107(5) 0.0736(3)
H13_15 H 0.7055 0.6278 0.0604
C19_15 C 0.7101(7) 0.6321(4) 0.0941(3)
H15_15 H 0.7053 0.6632 0.0940
C20_15 C 0.7191(8) 0.5680(5) 0.1113(3)
H16_15 H 0.7212 0.5505 0.1245
C29_15 C 0.7156(5) 0.6364(4) 0.1369(2)
C36_15 C 0.7195(7) 0.7025(5) 0.1595(3)
H28_15 H 0.7215 0.7338 0.1597
C37_15 C 0.7105(7) 0.6393(5) 0.1764(3)
H29_15 H 0.7055 0.6222 0.1896
C39_15 C 0.7101(7) 0.6179(4) 0.1559(3)
H31_15 H 0.7053 0.5868 0.1560
C40_15 C 0.7191(8) 0.6820(5) 0.1387(3)
H32_15 H 0.7212 0.6995 0.1255
C9_16 C 0.2156(5) 0.1136(4) 0.1131(2)
C16_16 C 0.2195(7) 0.0475(5) 0.0905(3)
H12_16 H 0.2215 0.0162 0.0903
C17_16 C 0.2105(7) 0.1107(5) 0.0736(3)
H13_16 H 0.2055 0.1278 0.0604
C19_16 C 0.2101(7) 0.1321(4) 0.0941(3)
H15_16 H 0.2053 0.1632 0.0940
C20_16 C 0.2191(8) 0.0680(5) 0.1113(3)
H16_16 H 0.2212 0.0505 0.1245
C29_16 C 0.2156(5) 0.1364(4) 0.1369(2)
C36_16 C 0.2195(7) 0.2025(5) 0.1595(3)
H28_16 H 0.2215 0.2338 0.1597
C37_16 C 0.2105(7) 0.1393(5) 0.1764(3)
H29_16 H 0.2055 0.1222 0.1896
C39_16 C 0.2101(7) 0.1179(4) 0.1559(3)
H31_16 H 0.2053 0.0868 0.1560
C40_16 C 0.2191(8) 0.1820(5) 0.1387(3)
H32_16 H 0.2212 0.1995 0.1255
S4_16 S 0.97147(11) 0.06576(8) 0.23373(5)
Cu8_15 Cu 0.99565(7) 0.04197(5) 0.26880(3)
H9_16 H 0.0633 0.0827 0.9905
Cu8_16 Cu 0.25435(7) 0.04197(5) 0.98120(3)
Cl2_16 Cl 0.2061(2) 0.08377(15) 0.95664(7)
Cu3_14 Cu 0.74565(7) 0.95803(5) 0.01880(3)
Cl1_16 Cl 0.7939(2) 0.91623(15) 0.04336(7)
H25_16 H 0.9367 0.9173 0.0095
S1_15 S 0.02853(11) 0.93424(8) 0.76627(5)
Cu3_15 Cu 0.00435(7) 0.95803(5) 0.73120(3)
Mo1_16 Mo 0.03580(3) 0.23972(3) 0.484623(18)
S1_16 S 0.02853(11) 0.31576(8) 0.48373(5)
S3_16 S 0.00868(13) 0.21637(10) 0.51945(6)
O1_16 O 0.0985(3) 0.2236(3) 0.47904(16)
C4_16 C 0.0265(5) 0.0550(4) 0.4910(3)
H3_16 H 0.0598 0.0456 0.4868
C5_16 C 0.0135(5) 0.1011(4) 0.4896(3)
H4_16 H 0.0389 0.1214 0.4848
Cu3_16 Cu 0.00435(7) 0.29197(5) 0.51880(3)
loop_
_geom_bond_atom_site_label_1
_geom_bond_atom_site_label_2
_geom_bond_site_symmetry_1
_geom_bond_site_symmetry_2
Cu1 Mo1 1_555 1_555
Mo1 Cu2 1_555 1_555
Cu2 S2 1_555 1_555
S1 Cu1 1_555 1_555
S2 Cu1 1_555 1_555
S3 Mo1 1_555 1_555
O1 Mo1 1_555 1_555
N1 Cu2 1_555 1_555
N2 Cu2 1_555 1_555
N3 Cu1 1_555 1_555
N4 Cu1 1_555 1_555
C1 H1 1_555 1_555
C2 C1 1_555 1_555
C3 N2 1_555 1_555
H2 C3 1_555 1_555
C4 C2 1_555 1_555
H3 C4 1_555 1_555
C5 N2 1_555 1_555
H4 C5 1_555 1_555
C6 C7 1_555 1_555
C7 C8 1_555 1_555
C8 H5 1_555 1_555
C9 C19 1_555 1_555
C10 N1 1_555 1_555
H6 C10 1_555 1_555
C11 N3 1_555 1_555
H7 C11 1_555 1_555
C12 C6 1_555 1_555
H8 C12 1_555 1_555
C13 C6 1_555 1_555
H9 C13 1_555 1_555
C14 N3 1_555 1_555
H10 C14 1_555 1_555
C15 N1 1_555 1_555
H11 C15 1_555 1_555
C16 N4 1_555 1_555
H12 C16 1_555 1_555
C17 N4 1_555 1_555
H13 C17 1_555 1_555
C18 C7 1_555 1_555
H14 C18 1_555 1_555
C19 C17 1_555 1_555
H15 C19 1_555 1_555
C20 C9 1_555 1_555
H16 C20 1_555 1_555
Cu3 Mo1 1_555 1_555
Cl1 Cu3 1_555 1_555
Cu5 N9 1_555 1_555
Cu6 N6 1_555 1_555
Cu7 S5 1_555 1_555
S5 Cu4 1_555 1_555
N5 Cu7 1_555 1_555
N6 C23 1_555 1_555
N7 Cu7 1_555 1_555
N8 Cu4 1_555 1_555
N9 C36 1_555 1_555
N10 Cu4 1_555 1_555
C21 H17 1_555 1_555
C22 C2 1_555 1_555
C23 C21 1_555 1_555
H18 C23 1_555 1_555
C24 C22 1_555 1_555
H19 C24 1_555 1_555
C25 N6 1_555 1_555
H20 C25 1_555 1_555
C26 C27 1_555 1_555
C27 C28 1_555 1_555
C28 H21 1_555 1_555
C29 C9 1_555 1_555
C30 N5 1_555 1_555
H22 C30 1_555 1_555
C31 C13 1_555 1_555
H23 C31 1_555 1_555
C32 C14 1_555 1_555
H24 C32 1_555 1_555
C33 C11 1_555 1_555
H25 C33 1_555 1_555
C34 C12 1_555 1_555
H26 C34 1_555 1_555
C35 N5 1_555 1_555
H27 C35 1_555 1_555
C36 H28 1_555 1_555
C37 N9 1_555 1_555
H29 C37 1_555 1_555
C38 C27 1_555 1_555
H30 C38 1_555 1_555
C39 C29 1_555 1_555
H31 C39 1_555 1_555
C40 C29 1_555 1_555
H32 C40 1_555 1_555
Mo1 S1 1_555 1_555
Mo1 S2 1_555 1_555
Cu2 S3 1_555 1_555
S1 Cu3 1_555 1_555
S3 Cu3 1_555 1_555
C1 C3 1_555 1_555
C4 C5 1_555 1_555
C8 C10 1_555 1_555
C15 C18 1_555 1_555
C16 C20 1_555 1_555
N8 C31 1_555 1_555
N8 C34 1_555 1_555
C21 C22 1_555 1_555
C24 C25 1_555 1_555
C26 C32 1_555 1_555
C26 C33 1_555 1_555
C28 C30 1_555 1_555
C35 C38 1_555 1_555
C36 C40 1_555 1_555
C37 C39 1_555 1_555
Mo1_2 Cu2_2 1_555 1_555
Cu2_2 S2_2 1_555 1_555
S3_2 Mo1_2 1_555 1_555
O1_2 Mo1_2 1_555 1_555
N1_2 Cu2_2 1_555 1_555
N2_2 Cu2_2 1_555 1_555
C1_2 H1_2 1_555 1_555
C2_2 C1_2 1_555 1_555
C3_2 N2_2 1_555 1_555
H2_2 C3_2 1_555 1_555
C4_2 C2_2 1_555 1_555
H3_2 C4_2 1_555 1_555
C5_2 N2_2 1_555 1_555
H4_2 C5_2 1_555 1_555
C6_2 C7_2 1_555 1_555
C7_2 C8_2 1_555 1_555
C8_2 H5_2 1_555 1_555
C10_2 N1_2 1_555 1_555
H6_2 C10_2 1_555 1_555
C12_2 C6_2 1_555 1_555
H8_2 C12_2 1_555 1_555
C13_2 C6_2 1_555 1_555
H9_2 C13_2 1_555 1_555
C15_2 N1_2 1_555 1_555
H11_2 C15_2 1_555 1_555
C18_2 C7_2 1_555 1_555
H14_2 C18_2 1_555 1_555
Cu6_2 N6_2 1_555 1_555
N6_2 C23_2 1_555 1_555
N8_2 Cu4_2 1_555 1_555
N10_2 Cu4_2 1_555 1_555
C21_2 H17_2 1_555 1_555
C22_2 C2_2 1_555 1_555
C23_2 C21_2 1_555 1_555
H18_2 C23_2 1_555 1_555
C24_2 C22_2 1_555 1_555
H19_2 C24_2 1_555 1_555
C25_2 N6_2 1_555 1_555
H20_2 C25_2 1_555 1_555
C31_2 C13_2 1_555 1_555
H23_2 C31_2 1_555 1_555
C34_2 C12_2 1_555 1_555
H26_2 C34_2 1_555 1_555
Mo1_2 S2_2 1_555 1_555
Cu2_2 S3_2 1_555 1_555
C1_2 C3_2 1_555 1_555
C4_2 C5_2 1_555 1_555
C8_2 C10_2 1_555 1_555
C15_2 C18_2 1_555 1_555
N8_2 C31_2 1_555 1_555
N8_2 C34_2 1_555 1_555
C21_2 C22_2 1_555 1_555
C24_2 C25_2 1_555 1_555
S1_2 Cu5 1_555 1_555
N3_2 Cu5 1_555 1_555
C11_2 N3_2 1_555 1_555
H7_2 C11_2 1_555 1_555
C14_2 N3_2 1_555 1_555
H10_2 C14_2 1_555 1_555
Cl1_2 Cu3_2 1_555 1_555
Cu7_2 S5_2 1_555 1_555
N5_2 Cu7_2 1_555 1_555
N7_2 Cu7_2 1_555 1_555
C26_2 C27_2 1_555 1_555
C27_2 C28_2 1_555 1_555
C28_2 H21_2 1_555 1_555
C30_2 N5_2 1_555 1_555
H22_2 C30_2 1_555 1_555
C32_2 C14_2 1_555 1_555
H24_2 C32_2 1_555 1_555
C33_2 C11_2 1_555 1_555
H25_2 C33_2 1_555 1_555
C35_2 N5_2 1_555 1_555
H27_2 C35_2 1_555 1_555
C38_2 C27_2 1_555 1_555
H30_2 C38_2 1_555 1_555
S1_2 Cu3_2 1_555 1_555
C26_2 C32_2 1_555 1_555
C26_2 C33_2 1_555 1_555
C28_2 C30_2 1_555 1_555
C35_2 C38_2 1_555 1_555
S6 Mo2 1_555 1_555
O2 Mo2 1_555 1_555
C1_3 H1_3 1_555 1_555
H2_3 C3_3 1_555 1_555
C6_3 C7_3 1_555 1_555
C12_3 C6_3 1_555 1_555
H8_3 C12_3 1_555 1_555
C13_3 C6_3 1_555 1_555
C15_3 N1_3 1_555 1_555
H11_3 C15_3 1_555 1_555
C18_3 C7_3 1_555 1_555
H14_3 C18_3 1_555 1_555
Cl1_3 Cu3_3 1_555 1_555
Cu7_3 S5_3 1_555 1_555
S5_3 Cu4_3 1_555 1_555
N7_3 Cu7_3 1_555 1_555
N8_3 Cu4_3 1_555 1_555
N10_3 Cu4_3 1_555 1_555
C28_3 H21_3 1_555 1_555
H22_3 C30_3 1_555 1_555
C31_3 C13_3 1_555 1_555
H23_3 C31_3 1_555 1_555
C34_3 C12_3 1_555 1_555
H26_3 C34_3 1_555 1_555
S3_3 Cu3_3 1_555 1_555
C1_3 C3_3 1_555 1_555
C15_3 C18_3 1_555 1_555
N8_3 C31_3 1_555 1_555
N8_3 C34_3 1_555 1_555
C28_3 C30_3 1_555 1_555
Cu1_2 Mo1_3 1_555 1_555
Mo1_3 Cu2_3 1_555 1_555
Cu2_3 S2_3 1_555 1_555
S1_3 Cu1_2 1_555 1_555
S2_3 Cu1_2 1_555 1_555
O1_3 Mo1_3 1_555 1_555
N2_3 Cu2_3 1_555 1_555
N3_3 Cu1_2 1_555 1_555
N4_2 Cu1_2 1_555 1_555
C4_3 C2_3 1_555 1_555
H3_3 C4_3 1_555 1_555
C5_3 N2_3 1_555 1_555
H4_3 C5_3 1_555 1_555
C8_3 H5_3 1_555 1_555
C9_2 C19_2 1_555 1_555
H6_3 C10_3 1_555 1_555
C11_3 N3_3 1_555 1_555
H7_3 C11_3 1_555 1_555
C14_3 N3_3 1_555 1_555
H10_3 C14_3 1_555 1_555
C16_2 N4_2 1_555 1_555
H12_2 C16_2 1_555 1_555
C17_2 N4_2 1_555 1_555
H13_2 C17_2 1_555 1_555
C19_2 C17_2 1_555 1_555
H15_2 C19_2 1_555 1_555
C20_2 C9_2 1_555 1_555
H16_2 C20_2 1_555 1_555
Cu5_2 N9_2 1_555 1_555
N9_2 C36_2 1_555 1_555
C26_3 C27_3 1_555 1_555
C29_2 C9_2 1_555 1_555
C32_3 C14_3 1_555 1_555
H24_3 C32_3 1_555 1_555
C33_3 C11_3 1_555 1_555
C35_3 N5_3 1_555 1_555
H27_3 C35_3 1_555 1_555
C36_2 H28_2 1_555 1_555
C37_2 N9_2 1_555 1_555
H29_2 C37_2 1_555 1_555
C38_3 C27_3 1_555 1_555
H30_3 C38_3 1_555 1_555
C39_2 C29_2 1_555 1_555
H31_2 C39_2 1_555 1_555
C40_2 C29_2 1_555 1_555
H32_2 C40_2 1_555 1_555
Mo1_3 S1_3 1_555 1_555
Mo1_3 S2_3 1_555 1_555
C4_3 C5_3 1_555 1_555
C8_3 C10_3 1_555 1_555
C16_2 C20_2 1_555 1_555
C26_3 C32_3 1_555 1_555
C26_3 C33_3 1_555 1_555
C35_3 C38_3 1_555 1_555
C36_2 C40_2 1_555 1_555
C37_2 C39_2 1_555 1_555
Cu6_3 N6_3 1_555 1_555
C24_3 C22_3 1_555 1_555
H19_3 C24_3 1_555 1_555
C25_3 N6_3 1_555 1_555
H20_3 C25_3 1_555 1_555
C24_3 C25_3 1_555 1_555
C21_3 H17_3 1_555 1_555
C23_3 C21_3 1_555 1_555
H18_3 C23_3 1_555 1_555
O2_2 Mo2_2 1_555 1_555
Mo2_2 S4 1_555 1_555
S6_2 Cu8 1_555 1_555
Cu5_2 Mo1_4 1_555 1_555
Mo1_4 Cu2_4 1_555 1_555
Cu2_4 S2_4 1_555 1_555
S1_4 Cu5_2 1_555 1_555
S2_4 Cu5_2 1_555 1_555
S3_4 Mo1_4 1_555 1_555
O1_4 Mo1_4 1_555 1_555
N1_4 Cu2_4 1_555 1_555
N2_4 Cu2_4 1_555 1_555
N3_4 Cu5_2 1_555 1_555
C1_4 H1_4 1_555 1_555
C2_4 C1_4 1_555 1_555
C3_4 N2_4 1_555 1_555
H2_4 C3_4 1_555 1_555
C4_4 C2_4 1_555 1_555
H3_4 C4_4 1_555 1_555
C5_4 N2_4 1_555 1_555
H4_4 C5_4 1_555 1_555
C6_4 C7_4 1_555 1_555
C7_4 C8_4 1_555 1_555
C8_4 H5_4 1_555 1_555
C10_4 N1_4 1_555 1_555
H6_4 C10_4 1_555 1_555
C11_4 N3_4 1_555 1_555
H7_4 C11_4 1_555 1_555
C12_4 C6_4 1_555 1_555
H8_4 C12_4 1_555 1_555
C13_4 C6_4 1_555 1_555
H9_4 C13_4 1_555 1_555
C14_4 N3_4 1_555 1_555
H10_4 C14_4 1_555 1_555
C15_4 N1_4 1_555 1_555
H11_4 C15_4 1_555 1_555
C18_4 C7_4 1_555 1_555
H14_4 C18_4 1_555 1_555
Cu3_4 Mo1_4 1_555 1_555
Cl1_4 Cu3_4 1_555 1_555
Cu6_4 N6_4 1_555 1_555
Cu7_4 S5_4 1_555 1_555
S5_4 Cu4_4 1_555 1_555
N5_4 Cu7_4 1_555 1_555
N6_4 C23_4 1_555 1_555
N7_4 Cu7_4 1_555 1_555
N8_4 Cu4_4 1_555 1_555
N10_4 Cu4_4 1_555 1_555
C21_4 H17_4 1_555 1_555
C22_4 C2_4 1_555 1_555
C23_4 C21_4 1_555 1_555
H18_4 C23_4 1_555 1_555
C24_4 C22_4 1_555 1_555
H19_4 C24_4 1_555 1_555
C25_4 N6_4 1_555 1_555
H20_4 C25_4 1_555 1_555
C26_4 C27_4 1_555 1_555
C27_4 C28_4 1_555 1_555
C28_4 H21_4 1_555 1_555
C30_4 N5_4 1_555 1_555
H22_4 C30_4 1_555 1_555
C31_4 C13_4 1_555 1_555
H23_4 C31_4 1_555 1_555
C32_4 C14_4 1_555 1_555
H24_4 C32_4 1_555 1_555
C33_4 C11_4 1_555 1_555
H25_4 C33_4 1_555 1_555
C34_4 C12_4 1_555 1_555
H26_4 C34_4 1_555 1_555
C35_4 N5_4 1_555 1_555
H27_4 C35_4 1_555 1_555
C38_4 C27_4 1_555 1_555
H30_4 C38_4 1_555 1_555
Mo1_4 S1_4 1_555 1_555
Mo1_4 S2_4 1_555 1_555
Cu2_4 S3_4 1_555 1_555
S1_4 Cu3_4 1_555 1_555
S3_4 Cu3_4 1_555 1_555
C1_4 C3_4 1_555 1_555
C4_4 C5_4 1_555 1_555
C8_4 C10_4 1_555 1_555
C15_4 C18_4 1_555 1_555
N8_4 C31_4 1_555 1_555
N8_4 C34_4 1_555 1_555
C21_4 C22_4 1_555 1_555
C24_4 C25_4 1_555 1_555
C26_4 C32_4 1_555 1_555
C26_4 C33_4 1_555 1_555
C28_4 C30_4 1_555 1_555
C35_4 C38_4 1_555 1_555
S6_3 Mo2_3 1_555 1_555
O2_3 Mo2_3 1_555 1_555
Cu8_2 Mo2_3 1_555 1_555
Mo2_3 S4_2 1_555 1_555
S4_2 Cu8_2 1_555 1_555
S6_3 Cu8_2 1_555 1_555
S3_5 Cu3_5 1_555 1_555
O1_5 Mo1_5 1_555 1_555
H3_5 C4_5 1_555 1_555
H4_5 C5_5 1_555 1_555
C21_5 H17_5 1_555 1_555
C23_5 C21_5 1_555 1_555
H18_5 C23_5 1_555 1_555
Mo1_5 S1_5 1_555 1_555
C4_5 C5_5 1_555 1_555
C1_5 H1_5 1_555 1_555
H2_5 C3_5 1_555 1_555
C6_5 C7_5 1_555 1_555
C12_5 C6_5 1_555 1_555
H8_5 C12_5 1_555 1_555
C13_5 C6_5 1_555 1_555
C15_5 N1_5 1_555 1_555
H11_5 C15_5 1_555 1_555
C18_5 C7_5 1_555 1_555
H14_5 C18_5 1_555 1_555
Cu4_5 Mo2_4 1_555 1_555
Mo2_4 Cu6_3 1_555 1_555
Cu6_3 S5_5 1_555 1_555
S4_3 Cu4_5 1_555 1_555
S5_5 Cu4_5 1_555 1_555
O2_4 Mo2_4 1_555 1_555
N8_5 Cu4_5 1_555 1_555
N10_5 Cu4_5 1_555 1_555
H19_5 C24_5 1_555 1_555
H20_5 C25_5 1_555 1_555
C28_5 H21_5 1_555 1_555
H22_5 C30_5 1_555 1_555
C31_5 C13_5 1_555 1_555
H23_5 C31_5 1_555 1_555
C34_5 C12_5 1_555 1_555
H26_5 C34_5 1_555 1_555
C1_5 C3_5 1_555 1_555
C15_5 C18_5 1_555 1_555
Mo2_4 S4_3 1_555 1_555
Mo2_4 S5_5 1_555 1_555
N8_5 C31_5 1_555 1_555
N8_5 C34_5 1_555 1_555
C24_5 C25_5 1_555 1_555
C28_5 C30_5 1_555 1_555
Cu2_5 S2_5 1_555 1_555
S2_5 Cu1_3 1_555 1_555
N2_5 Cu2_5 1_555 1_555
N3_5 Cu1_3 1_555 1_555
N4_3 Cu1_3 1_555 1_555
C8_5 H5_5 1_555 1_555
C9_3 C19_3 1_555 1_555
H6_5 C10_5 1_555 1_555
C11_5 N3_5 1_555 1_555
H7_5 C11_5 1_555 1_555
C14_5 N3_5 1_555 1_555
H10_5 C14_5 1_555 1_555
C16_3 N4_3 1_555 1_555
H12_3 C16_3 1_555 1_555
C17_3 N4_3 1_555 1_555
H13_3 C17_3 1_555 1_555
C19_3 C17_3 1_555 1_555
H15_3 C19_3 1_555 1_555
C20_3 C9_3 1_555 1_555
H16_3 C20_3 1_555 1_555
Cu5_3 N9_3 1_555 1_555
N9_3 C36_3 1_555 1_555
C26_5 C27_5 1_555 1_555
C29_3 C9_3 1_555 1_555
C32_5 C14_5 1_555 1_555
H24_5 C32_5 1_555 1_555
C33_5 C11_5 1_555 1_555
C35_5 N5_5 1_555 1_555
H27_5 C35_5 1_555 1_555
C36_3 H28_3 1_555 1_555
C37_3 N9_3 1_555 1_555
H29_3 C37_3 1_555 1_555
C38_5 C27_5 1_555 1_555
H30_5 C38_5 1_555 1_555
C39_3 C29_3 1_555 1_555
H31_3 C39_3 1_555 1_555
C40_3 C29_3 1_555 1_555
H32_3 C40_3 1_555 1_555
Cl2_5 Cu8_3 1_555 1_555
C8_5 C10_5 1_555 1_555
C16_3 C20_3 1_555 1_555
S6_4 Cu8_3 1_555 1_555
C26_5 C32_5 1_555 1_555
C26_5 C33_5 1_555 1_555
C35_5 C38_5 1_555 1_555
C36_3 C40_3 1_555 1_555
C37_3 C39_3 1_555 1_555
S3_6 Mo1_6 1_555 1_555
O1_6 Mo1_6 1_555 1_555
H3_6 C4_6 1_555 1_555
H4_6 C5_6 1_555 1_555
N7_4 C23_6 1_555 1_555
C21_6 H17_6 1_555 1_555
C23_6 C21_6 1_555 1_555
H18_6 C23_6 1_555 1_555
C4_6 C5_6 1_555 1_555
C21_6 C22_6 1_555 1_555
Cu2_6 S2_6 1_555 1_555
N1_6 Cu2_6 1_555 1_555
N2_6 Cu2_6 1_555 1_555
C1_6 H1_6 1_555 1_555
C2_6 C1_6 1_555 1_555
C3_6 N2_6 1_555 1_555
H2_6 C3_6 1_555 1_555
C6_6 C7_6 1_555 1_555
C7_6 C8_6 1_555 1_555
C8_6 H5_6 1_555 1_555
C10_6 N1_6 1_555 1_555
H6_6 C10_6 1_555 1_555
C12_6 C6_6 1_555 1_555
H8_6 C12_6 1_555 1_555
C13_6 C6_6 1_555 1_555
H9_6 C13_6 1_555 1_555
C15_6 N1_6 1_555 1_555
H11_6 C15_6 1_555 1_555
C18_6 C7_6 1_555 1_555
H14_6 C18_6 1_555 1_555
S4_4 Cu4_6 1_555 1_555
N8_6 Cu4_6 1_555 1_555
N10_6 Cu4_6 1_555 1_555
H19_6 C24_6 1_555 1_555
H20_6 C25_6 1_555 1_555
C31_6 C13_6 1_555 1_555
H23_6 C31_6 1_555 1_555
C34_6 C12_6 1_555 1_555
H26_6 C34_6 1_555 1_555
Cl2_6 Cu8_4 1_555 1_555
C1_6 C3_6 1_555 1_555
C8_6 C10_6 1_555 1_555
C15_6 C18_6 1_555 1_555
S4_4 Cu8_4 1_555 1_555
N8_6 C31_6 1_555 1_555
N8_6 C34_6 1_555 1_555
C24_6 C25_6 1_555 1_555
N3_6 Cu5_3 1_555 1_555
C11_6 N3_6 1_555 1_555
H7_6 C11_6 1_555 1_555
C14_6 N3_6 1_555 1_555
H10_6 C14_6 1_555 1_555
Mo2_5 Cu6_4 1_555 1_555
Cu6_4 S5_6 1_555 1_555
S6_5 Mo2_5 1_555 1_555
O2_5 Mo2_5 1_555 1_555
N5_6 Cu6_4 1_555 1_555
C26_6 C27_6 1_555 1_555
C27_6 C28_6 1_555 1_555
C28_6 H21_6 1_555 1_555
C30_6 N5_6 1_555 1_555
H22_6 C30_6 1_555 1_555
C32_6 C14_6 1_555 1_555
H24_6 C32_6 1_555 1_555
C33_6 C11_6 1_555 1_555
H25_6 C33_6 1_555 1_555
C35_6 N5_6 1_555 1_555
H27_6 C35_6 1_555 1_555
C38_6 C27_6 1_555 1_555
H30_6 C38_6 1_555 1_555
Mo2_5 S5_6 1_555 1_555
Cu6_4 S6_5 1_555 1_555
C26_6 C32_6 1_555 1_555
C26_6 C33_6 1_555 1_555
C28_6 C30_6 1_555 1_555
C35_6 C38_6 1_555 1_555
N7 C23_7 1_555 1_555
C21_7 H17_7 1_555 1_555
C23_7 C21_7 1_555 1_555
H18_7 C23_7 1_555 1_555
C21_7 C22_7 1_555 1_555
Cu2_7 S2_7 1_555 1_555
S2_7 Cu1_4 1_555 1_555
N1_7 Cu2_7 1_555 1_555
N2_7 Cu2_7 1_555 1_555
N3_7 Cu1_4 1_555 1_555
N4_4 Cu1_4 1_555 1_555
C1_7 H1_7 1_555 1_555
C2_7 C1_7 1_555 1_555
C3_7 N2_7 1_555 1_555
H2_7 C3_7 1_555 1_555
C6_7 C7_7 1_555 1_555
C7_7 C8_7 1_555 1_555
C8_7 H5_7 1_555 1_555
C9_4 C19_4 1_555 1_555
C10_7 N1_7 1_555 1_555
H6_7 C10_7 1_555 1_555
C11_7 N3_7 1_555 1_555
H7_7 C11_7 1_555 1_555
C12_7 C6_7 1_555 1_555
H8_7 C12_7 1_555 1_555
C13_7 C6_7 1_555 1_555
H9_7 C13_7 1_555 1_555
C14_7 N3_7 1_555 1_555
H10_7 C14_7 1_555 1_555
C15_7 N1_7 1_555 1_555
H11_7 C15_7 1_555 1_555
C16_4 N4_4 1_555 1_555
H12_4 C16_4 1_555 1_555
C17_4 N4_4 1_555 1_555
H13_4 C17_4 1_555 1_555
C18_7 C7_7 1_555 1_555
H14_7 C18_7 1_555 1_555
C19_4 C17_4 1_555 1_555
H15_4 C19_4 1_555 1_555
C20_4 C9_4 1_555 1_555
H16_4 C20_4 1_555 1_555
Cu4_7 Mo2_6 1_555 1_555
Cu5_4 N9_4 1_555 1_555
Mo2_6 Cu6 1_555 1_555
Cu6 S5_7 1_555 1_555
S4_5 Cu4_7 1_555 1_555
S5_7 Cu4_7 1_555 1_555
S6_6 Mo2_6 1_555 1_555
O2_6 Mo2_6 1_555 1_555
N5_7 Cu6 1_555 1_555
N8_7 Cu4_7 1_555 1_555
N9_4 C36_4 1_555 1_555
N10_7 Cu4_7 1_555 1_555
C26_7 C27_7 1_555 1_555
C27_7 C28_7 1_555 1_555
C28_7 H21_7 1_555 1_555
C29_4 C9_4 1_555 1_555
C30_7 N5_7 1_555 1_555
H22_7 C30_7 1_555 1_555
C31_7 C13_7 1_555 1_555
H23_7 C31_7 1_555 1_555
C32_7 C14_7 1_555 1_555
H24_7 C32_7 1_555 1_555
C33_7 C11_7 1_555 1_555
H25_7 C33_7 1_555 1_555
C34_7 C12_7 1_555 1_555
H26_7 C34_7 1_555 1_555
C35_7 N5_7 1_555 1_555
H27_7 C35_7 1_555 1_555
C36_4 H28_4 1_555 1_555
C37_4 N9_4 1_555 1_555
H29_4 C37_4 1_555 1_555
C38_7 C27_7 1_555 1_555
H30_7 C38_7 1_555 1_555
C39_4 C29_4 1_555 1_555
H31_4 C39_4 1_555 1_555
C40_4 C29_4 1_555 1_555
H32_4 C40_4 1_555 1_555
Cu8_5 Mo2_6 1_555 1_555
Cl2_7 Cu8_5 1_555 1_555
C1_7 C3_7 1_555 1_555
C8_7 C10_7 1_555 1_555
C15_7 C18_7 1_555 1_555
C16_4 C20_4 1_555 1_555
Mo2_6 S4_5 1_555 1_555
Mo2_6 S5_7 1_555 1_555
Cu6 S6_6 1_555 1_555
S4_5 Cu8_5 1_555 1_555
S6_6 Cu8_5 1_555 1_555
N8_7 C31_7 1_555 1_555
N8_7 C34_7 1_555 1_555
C26_7 C32_7 1_555 1_555
C26_7 C33_7 1_555 1_555
C28_7 C30_7 1_555 1_555
C35_7 C38_7 1_555 1_555
C36_4 C40_4 1_555 1_555
C37_4 C39_4 1_555 1_555
S3_7 Mo1_7 1_555 1_555
O1_7 Mo1_7 1_555 1_555
H3_7 C4_7 1_555 1_555
H4_7 C5_7 1_555 1_555
Cu3_6 Mo1_7 1_555 1_555
N7_2 C23_8 1_555 1_555
C21_8 H17_8 1_555 1_555
C23_8 C21_8 1_555 1_555
H18_8 C23_8 1_555 1_555
Mo1_7 S1_6 1_555 1_555
S1_6 Cu3_6 1_555 1_555
S3_7 Cu3_6 1_555 1_555
C4_7 C5_7 1_555 1_555
C21_8 C22_8 1_555 1_555
Cu2_8 S2_8 1_555 1_555
S2_8 Cu5_4 1_555 1_555
N1_8 Cu2_8 1_555 1_555
N2_8 Cu2_8 1_555 1_555
N3_8 Cu5_4 1_555 1_555
C1_8 H1_8 1_555 1_555
C2_8 C1_8 1_555 1_555
C3_8 N2_8 1_555 1_555
H2_8 C3_8 1_555 1_555
C6_8 C7_8 1_555 1_555
C7_8 C8_8 1_555 1_555
C8_8 H5_8 1_555 1_555
C10_8 N1_8 1_555 1_555
H6_8 C10_8 1_555 1_555
C11_8 N3_8 1_555 1_555
H7_8 C11_8 1_555 1_555
C12_8 C6_8 1_555 1_555
H8_8 C12_8 1_555 1_555
C13_8 C6_8 1_555 1_555
H9_8 C13_8 1_555 1_555
C14_8 N3_8 1_555 1_555
H10_8 C14_8 1_555 1_555
C15_8 N1_8 1_555 1_555
H11_8 C15_8 1_555 1_555
C18_8 C7_8 1_555 1_555
H14_8 C18_8 1_555 1_555
Cu4_8 Mo2_7 1_555 1_555
Mo2_7 Cu6_2 1_555 1_555
Cu6_2 S5_8 1_555 1_555
S4_6 Cu4_8 1_555 1_555
S5_8 Cu4_8 1_555 1_555
S6_7 Mo2_7 1_555 1_555
O2_7 Mo2_7 1_555 1_555
N5_8 Cu6_2 1_555 1_555
N8_8 Cu4_8 1_555 1_555
N10_8 Cu4_8 1_555 1_555
H19_7 C24_7 1_555 1_555
H20_7 C25_7 1_555 1_555
C26_8 C27_8 1_555 1_555
C27_8 C28_8 1_555 1_555
C28_8 H21_8 1_555 1_555
C30_8 N5_8 1_555 1_555
H22_8 C30_8 1_555 1_555
C31_8 C13_8 1_555 1_555
H23_8 C31_8 1_555 1_555
C32_8 C14_8 1_555 1_555
H24_8 C32_8 1_555 1_555
C33_8 C11_8 1_555 1_555
H25_8 C33_8 1_555 1_555
C34_8 C12_8 1_555 1_555
H26_8 C34_8 1_555 1_555
C35_8 N5_8 1_555 1_555
H27_8 C35_8 1_555 1_555
C38_8 C27_8 1_555 1_555
H30_8 C38_8 1_555 1_555
Cu8_6 Mo2_7 1_555 1_555
Cl2_8 Cu8_6 1_555 1_555
C1_8 C3_8 1_555 1_555
C8_8 C10_8 1_555 1_555
C15_8 C18_8 1_555 1_555
Mo2_7 S4_6 1_555 1_555
Mo2_7 S5_8 1_555 1_555
Cu6_2 S6_7 1_555 1_555
S4_6 Cu8_6 1_555 1_555
S6_7 Cu8_6 1_555 1_555
N8_8 C31_8 1_555 1_555
N8_8 C34_8 1_555 1_555
C24_7 C25_7 1_555 1_555
C26_8 C32_8 1_555 1_555
C26_8 C33_8 1_555 1_555
C28_8 C30_8 1_555 1_555
C35_8 C38_8 1_555 1_555
C9_5 C19_5 1_555 1_555
C16_5 N10_7 1_555 1_555
H12_5 C16_5 1_555 1_555
C17_5 N10_7 1_555 1_555
H13_5 C17_5 1_555 1_555
C19_5 C17_5 1_555 1_555
H15_5 C19_5 1_555 1_555
C20_5 C9_5 1_555 1_555
H16_5 C20_5 1_555 1_555
N10_6 C36_5 1_555 1_555
C29_5 C9_5 1_555 1_555
C36_5 H28_5 1_555 1_555
C37_5 N10_6 1_555 1_555
H29_5 C37_5 1_555 1_555
C39_5 C29_5 1_555 1_555
H31_5 C39_5 1_555 1_555
C40_5 C29_5 1_555 1_555
H32_5 C40_5 1_555 1_555
C16_5 C20_5 1_555 1_555
C36_5 C40_5 1_555 1_555
C37_5 C39_5 1_555 1_555
C9_6 C19_6 1_555 1_555
C16_6 N10_5 1_555 1_555
H12_6 C16_6 1_555 1_555
C17_6 N10_5 1_555 1_555
H13_6 C17_6 1_555 1_555
C19_6 C17_6 1_555 1_555
H15_6 C19_6 1_555 1_555
C20_6 C9_6 1_555 1_555
H16_6 C20_6 1_555 1_555
N10_8 C36_6 1_555 1_555
C29_6 C9_6 1_555 1_555
C36_6 H28_6 1_555 1_555
C37_6 N10_8 1_555 1_555
H29_6 C37_6 1_555 1_555
C39_6 C29_6 1_555 1_555
H31_6 C39_6 1_555 1_555
C40_6 C29_6 1_555 1_555
H32_6 C40_6 1_555 1_555
C16_6 C20_6 1_555 1_555
C36_6 C40_6 1_555 1_555
C37_6 C39_6 1_555 1_555
C9_7 C19_7 1_555 1_555
C16_7 N10_3 1_555 1_555
H12_7 C16_7 1_555 1_555
C17_7 N10_3 1_555 1_555
H13_7 C17_7 1_555 1_555
C19_7 C17_7 1_555 1_555
H15_7 C19_7 1_555 1_555
C20_7 C9_7 1_555 1_555
H16_7 C20_7 1_555 1_555
N10_2 C36_7 1_555 1_555
C29_7 C9_7 1_555 1_555
C36_7 H28_7 1_555 1_555
C37_7 N10_2 1_555 1_555
H29_7 C37_7 1_555 1_555
C39_7 C29_7 1_555 1_555
H31_7 C39_7 1_555 1_555
C40_7 C29_7 1_555 1_555
H32_7 C40_7 1_555 1_555
C16_7 C20_7 1_555 1_555
C36_7 C40_7 1_555 1_555
C37_7 C39_7 1_555 1_555
C9_8 C19_8 1_555 1_555
C16_8 N10 1_555 1_555
H12_8 C16_8 1_555 1_555
C17_8 N10 1_555 1_555
H13_8 C17_8 1_555 1_555
C19_8 C17_8 1_555 1_555
H15_8 C19_8 1_555 1_555
C20_8 C9_8 1_555 1_555
H16_8 C20_8 1_555 1_555
N10_4 C36_8 1_555 1_555
C29_8 C9_8 1_555 1_555
C36_8 H28_8 1_555 1_555
C37_8 N10_4 1_555 1_555
H29_8 C37_8 1_555 1_555
C39_8 C29_8 1_555 1_555
H31_8 C39_8 1_555 1_555
C40_8 C29_8 1_555 1_555
H32_8 C40_8 1_555 1_555
C16_8 C20_8 1_555 1_555
C36_8 C40_8 1_555 1_555
C37_8 C39_8 1_555 1_555
S6_8 Mo2_8 1_555 1_555
O2_8 Mo2_8 1_555 1_555
Cu8_7 Mo2_8 1_555 1_555
Mo2_8 S4_7 1_555 1_555
S4_7 Cu8_7 1_555 1_555
S6_8 Cu8_7 1_555 1_555
H19_8 C24_8 1_555 1_555
H20_8 C25_8 1_555 1_555
C24_8 C25_8 1_555 1_555
Mo1_8 Cu2_9 1_555 1_555
Cu2_9 S2_9 1_555 1_555
S3_8 Mo1_8 1_555 1_555
O1_8 Mo1_8 1_555 1_555
N1_9 Cu2_9 1_555 1_555
N2_9 Cu2_9 1_555 1_555
C1_9 H1_9 1_555 1_555
C2_9 C1_9 1_555 1_555
C3_9 N2_9 1_555 1_555
H2_9 C3_9 1_555 1_555
C4_8 C2_9 1_555 1_555
H3_8 C4_8 1_555 1_555
C5_8 N2_9 1_555 1_555
H4_8 C5_8 1_555 1_555
C6_9 C7_9 1_555 1_555
C7_9 C8_9 1_555 1_555
C8_9 H5_9 1_555 1_555
C10_9 N1_9 1_555 1_555
H6_9 C10_9 1_555 1_555
C12_9 C6_9 1_555 1_555
H8_9 C12_9 1_555 1_555
C13_9 C6_9 1_555 1_555
H9_9 C13_9 1_555 1_555
C15_9 N1_9 1_555 1_555
H11_9 C15_9 1_555 1_555
C18_9 C7_9 1_555 1_555
H14_9 C18_9 1_555 1_555
Cu6_5 N6_5 1_555 1_555
S4_8 Cu4_9 1_555 1_555
N6_5 C23_9 1_555 1_555
N8_9 Cu4_9 1_555 1_555
N10_9 Cu4_9 1_555 1_555
C21_9 H17_9 1_555 1_555
C22_9 C2_9 1_555 1_555
C23_9 C21_9 1_555 1_555
H18_9 C23_9 1_555 1_555
C24_9 C22_9 1_555 1_555
H19_9 C24_9 1_555 1_555
C25_9 N6_5 1_555 1_555
H20_9 C25_9 1_555 1_555
C31_9 C13_9 1_555 1_555
H23_9 C31_9 1_555 1_555
C34_9 C12_9 1_555 1_555
H26_9 C34_9 1_555 1_555
Cl2_9 Cu8_8 1_555 1_555
Mo1_8 S2_9 1_555 1_555
Cu2_9 S3_8 1_555 1_555
C1_9 C3_9 1_555 1_555
C4_8 C5_8 1_555 1_555
C8_9 C10_9 1_555 1_555
C15_9 C18_9 1_555 1_555
S4_8 Cu8_8 1_555 1_555
N8_9 C31_9 1_555 1_555
N8_9 C34_9 1_555 1_555
C21_9 C22_9 1_555 1_555
C24_9 C25_9 1_555 1_555
Cu1_5 Mo1_9 1_555 1_555
Mo1_9 Cu2_10 1_555 1_555
Cu2_10 S2_10 1_555 1_555
S1_7 Cu1_5 1_555 1_555
S2_10 Cu1_5 1_555 1_555
O1_9 Mo1_9 1_555 1_555
N2_10 Cu2_10 1_555 1_555
N3_9 Cu1_5 1_555 1_555
N4_5 Cu1_5 1_555 1_555
C4_9 C2_10 1_555 1_555
H3_9 C4_9 1_555 1_555
C5_9 N2_10 1_555 1_555
H4_9 C5_9 1_555 1_555
C8_10 H5_10 1_555 1_555
C9_9 C19_9 1_555 1_555
H6_10 C10_10 1_555 1_555
C11_9 N3_9 1_555 1_555
H7_9 C11_9 1_555 1_555
C14_9 N3_9 1_555 1_555
H10_9 C14_9 1_555 1_555
C16_9 N4_5 1_555 1_555
H12_9 C16_9 1_555 1_555
C17_9 N4_5 1_555 1_555
H13_9 C17_9 1_555 1_555
C19_9 C17_9 1_555 1_555
H15_9 C19_9 1_555 1_555
C20_9 C9_9 1_555 1_555
H16_9 C20_9 1_555 1_555
Cu5_5 N9_5 1_555 1_555
N9_5 C36_9 1_555 1_555
C21_10 H17_10 1_555 1_555
C23_10 C21_10 1_555 1_555
H18_10 C23_10 1_555 1_555
C26_9 C27_9 1_555 1_555
C29_9 C9_9 1_555 1_555
C32_9 C14_9 1_555 1_555
H24_9 C32_9 1_555 1_555
C33_9 C11_9 1_555 1_555
C35_9 N5_9 1_555 1_555
H27_9 C35_9 1_555 1_555
C36_9 H28_9 1_555 1_555
C37_9 N9_5 1_555 1_555
H29_9 C37_9 1_555 1_555
C38_9 C27_9 1_555 1_555
H30_9 C38_9 1_555 1_555
C39_9 C29_9 1_555 1_555
H31_9 C39_9 1_555 1_555
C40_9 C29_9 1_555 1_555
H32_9 C40_9 1_555 1_555
Cl2_10 Cu8_9 1_555 1_555
Mo1_9 S1_7 1_555 1_555
Mo1_9 S2_10 1_555 1_555
C4_9 C5_9 1_555 1_555
C8_10 C10_10 1_555 1_555
C16_9 C20_9 1_555 1_555
S6_9 Cu8_9 1_555 1_555
C26_9 C32_9 1_555 1_555
C26_9 C33_9 1_555 1_555
C35_9 C38_9 1_555 1_555
C36_9 C40_9 1_555 1_555
C37_9 C39_9 1_555 1_555
Cu5_5 Mo1_10 1_555 1_555
Mo1_10 Cu2_11 1_555 1_555
Cu2_11 S2_11 1_555 1_555
S1_8 Cu5_5 1_555 1_555
S2_11 Cu5_5 1_555 1_555
S3_9 Mo1_10 1_555 1_555
O1_10 Mo1_10 1_555 1_555
N1_10 Cu2_11 1_555 1_555
N2_11 Cu2_11 1_555 1_555
N3_10 Cu5_5 1_555 1_555
C1_10 H1_10 1_555 1_555
C2_11 C1_10 1_555 1_555
C3_10 N2_11 1_555 1_555
H2_10 C3_10 1_555 1_555
C4_10 C2_11 1_555 1_555
H3_10 C4_10 1_555 1_555
C5_10 N2_11 1_555 1_555
H4_10 C5_10 1_555 1_555
C6_10 C7_10 1_555 1_555
C7_10 C8_11 1_555 1_555
C8_11 H5_11 1_555 1_555
C10_11 N1_10 1_555 1_555
H6_11 C10_11 1_555 1_555
C11_10 N3_10 1_555 1_555
H7_10 C11_10 1_555 1_555
C12_10 C6_10 1_555 1_555
H8_10 C12_10 1_555 1_555
C13_10 C6_10 1_555 1_555
H9_11 C13_10 1_555 1_555
C14_10 N3_10 1_555 1_555
H10_10 C14_10 1_555 1_555
C15_10 N1_10 1_555 1_555
H11_10 C15_10 1_555 1_555
C18_10 C7_10 1_555 1_555
H14_10 C18_10 1_555 1_555
Cu3_7 Mo1_10 1_555 1_555
Cl1_9 Cu3_7 1_555 1_555
Cu4_10 Mo2_9 1_555 1_555
Mo2_9 Cu7_5 1_555 1_555
Cu7_5 S5_9 1_555 1_555
S4_9 Cu4_10 1_555 1_555
S5_9 Cu4_10 1_555 1_555
S6_10 Mo2_9 1_555 1_555
O2_9 Mo2_9 1_555 1_555
N5_10 Cu7_5 1_555 1_555
N7_5 Cu7_5 1_555 1_555
N8_10 Cu4_10 1_555 1_555
N10_10 Cu4_10 1_555 1_555
C26_10 C27_10 1_555 1_555
C27_10 C28_9 1_555 1_555
C28_9 H21_9 1_555 1_555
C30_9 N5_10 1_555 1_555
H22_9 C30_9 1_555 1_555
C31_10 C13_10 1_555 1_555
H23_10 C31_10 1_555 1_555
C32_10 C14_10 1_555 1_555
H24_10 C32_10 1_555 1_555
C33_10 C11_10 1_555 1_555
H25_9 C33_10 1_555 1_555
C34_10 C12_10 1_555 1_555
H26_10 C34_10 1_555 1_555
C35_10 N5_10 1_555 1_555
H27_10 C35_10 1_555 1_555
C38_10 C27_10 1_555 1_555
H30_10 C38_10 1_555 1_555
Cu8_10 Mo2_9 1_555 1_555
Cl2_11 Cu8_10 1_555 1_555
Mo1_10 S1_8 1_555 1_555
Mo1_10 S2_11 1_555 1_555
Cu2_11 S3_9 1_555 1_555
S1_8 Cu3_7 1_555 1_555
S3_9 Cu3_7 1_555 1_555
C1_10 C3_10 1_555 1_555
C4_10 C5_10 1_555 1_555
C8_11 C10_11 1_555 1_555
C15_10 C18_10 1_555 1_555
Mo2_9 S4_9 1_555 1_555
Mo2_9 S5_9 1_555 1_555
Cu7_5 S6_10 1_555 1_555
S4_9 Cu8_10 1_555 1_555
S6_10 Cu8_10 1_555 1_555
N8_10 C31_10 1_555 1_555
N8_10 C34_10 1_555 1_555
C26_10 C32_10 1_555 1_555
C26_10 C33_10 1_555 1_555
C28_9 C30_9 1_555 1_555
C35_10 C38_10 1_555 1_555
Cu6_6 N6_6 1_555 1_555
N6_6 C23_11 1_555 1_555
C21_11 H17_11 1_555 1_555
C23_11 C21_11 1_555 1_555
H18_11 C23_11 1_555 1_555
C24_10 C22_10 1_555 1_555
H19_10 C24_10 1_555 1_555
C25_10 N6_6 1_555 1_555
H20_10 C25_10 1_555 1_555
C21_11 C22_10 1_555 1_555
C24_10 C25_10 1_555 1_555
C35_11 N5_11 1_555 1_555
H27_11 C35_11 1_555 1_555
C38_11 C27_11 1_555 1_555
H30_11 C38_11 1_555 1_555
C35_11 C38_11 1_555 1_555
Mo1_11 Cu2_12 1_555 1_555
Cu2_12 S2_12 1_555 1_555
O1_11 Mo1_11 1_555 1_555
N2_12 Cu2_12 1_555 1_555
C4_11 C2_12 1_555 1_555
H3_11 C4_11 1_555 1_555
C5_11 N2_12 1_555 1_555
H4_11 C5_11 1_555 1_555
C8_12 H5_12 1_555 1_555
H6_12 C10_12 1_555 1_555
C21_12 H17_12 1_555 1_555
C23_12 C21_12 1_555 1_555
H18_12 C23_12 1_555 1_555
Mo1_11 S2_12 1_555 1_555
C4_11 C5_11 1_555 1_555
C8_12 C10_12 1_555 1_555
S1_9 Cu1_6 1_555 1_555
N3_11 Cu1_6 1_555 1_555
N4_6 Cu1_6 1_555 1_555
C9_10 C19_10 1_555 1_555
C11_11 N3_11 1_555 1_555
H7_11 C11_11 1_555 1_555
C14_11 N3_11 1_555 1_555
H10_11 C14_11 1_555 1_555
C16_10 N4_6 1_555 1_555
H12_10 C16_10 1_555 1_555
C17_10 N4_6 1_555 1_555
H13_10 C17_10 1_555 1_555
C19_10 C17_10 1_555 1_555
H15_10 C19_10 1_555 1_555
C20_10 C9_10 1_555 1_555
H16_10 C20_10 1_555 1_555
Cu5_6 N9_6 1_555 1_555
N9_6 C36_10 1_555 1_555
C29_10 C9_10 1_555 1_555
C32_11 C14_11 1_555 1_555
H24_11 C32_11 1_555 1_555
C33_11 C11_11 1_555 1_555
C36_10 H28_10 1_555 1_555
C37_10 N9_6 1_555 1_555
H29_10 C37_10 1_555 1_555
C39_10 C29_10 1_555 1_555
H31_10 C39_10 1_555 1_555
C40_10 C29_10 1_555 1_555
H32_10 C40_10 1_555 1_555
C16_10 C20_10 1_555 1_555
C26_11 C32_11 1_555 1_555
C26_11 C33_11 1_555 1_555
C36_10 C40_10 1_555 1_555
C37_10 C39_10 1_555 1_555
C12_11 C6_11 1_555 1_555
H8_11 C12_11 1_555 1_555
C13_11 C6_11 1_555 1_555
H9_12 C13_11 1_555 1_555
Cu4_11 Mo2_10 1_555 1_555
Mo2_10 Cu6_6 1_555 1_555
Cu6_6 S5_10 1_555 1_555
S4_10 Cu4_11 1_555 1_555
S5_10 Cu4_11 1_555 1_555
S6_12 Mo2_10 1_555 1_555
O2_10 Mo2_10 1_555 1_555
N5_12 Cu6_6 1_555 1_555
N8_11 Cu4_11 1_555 1_555
N10_11 Cu4_11 1_555 1_555
C27_12 C28_10 1_555 1_555
C28_10 H21_10 1_555 1_555
C30_10 N5_12 1_555 1_555
H22_10 C30_10 1_555 1_555
C31_11 C13_11 1_555 1_555
H23_11 C31_11 1_555 1_555
C34_11 C12_11 1_555 1_555
H26_11 C34_11 1_555 1_555
C35_12 N5_12 1_555 1_555
H27_12 C35_12 1_555 1_555
C38_12 C27_12 1_555 1_555
H30_12 C38_12 1_555 1_555
Cu8_11 Mo2_10 1_555 1_555
Cl2_12 Cu8_11 1_555 1_555
Mo2_10 S4_10 1_555 1_555
Mo2_10 S5_10 1_555 1_555
Cu6_6 S6_12 1_555 1_555
S4_10 Cu8_11 1_555 1_555
S6_12 Cu8_11 1_555 1_555
N8_11 C31_11 1_555 1_555
N8_11 C34_11 1_555 1_555
C28_10 C30_10 1_555 1_555
C35_12 C38_12 1_555 1_555
Cu5_6 Mo1_12 1_555 1_555
Mo1_12 Cu2_13 1_555 1_555
Cu2_13 S2_13 1_555 1_555
S1_10 Cu5_6 1_555 1_555
S2_13 Cu5_6 1_555 1_555
S3_10 Mo1_12 1_555 1_555
O1_12 Mo1_12 1_555 1_555
N1_11 Cu2_13 1_555 1_555
N2_13 Cu2_13 1_555 1_555
N3_12 Cu5_6 1_555 1_555
C1_11 H1_11 1_555 1_555
C2_13 C1_11 1_555 1_555
C3_11 N2_13 1_555 1_555
H2_11 C3_11 1_555 1_555
C4_12 C2_13 1_555 1_555
H3_12 C4_12 1_555 1_555
C5_12 N2_13 1_555 1_555
H4_12 C5_12 1_555 1_555
C7_11 C8_13 1_555 1_555
C8_13 H5_13 1_555 1_555
C10_13 N1_11 1_555 1_555
H6_13 C10_13 1_555 1_555
C11_12 N3_12 1_555 1_555
H7_12 C11_12 1_555 1_555
C14_12 N3_12 1_555 1_555
H10_12 C14_12 1_555 1_555
C15_11 N1_11 1_555 1_555
H11_11 C15_11 1_555 1_555
C18_11 C7_11 1_555 1_555
H14_11 C18_11 1_555 1_555
Cu3_8 Mo1_12 1_555 1_555
Cl1_10 Cu3_8 1_555 1_555
N7_5 C23_13 1_555 1_555
C21_13 H17_13 1_555 1_555
C22_11 C2_13 1_555 1_555
C23_13 C21_13 1_555 1_555
H18_13 C23_13 1_555 1_555
C24_11 C22_11 1_555 1_555
H19_11 C24_11 1_555 1_555
C25_11 N7_5 1_555 1_555
H20_11 C25_11 1_555 1_555
C32_12 C14_12 1_555 1_555
H24_12 C32_12 1_555 1_555
C33_12 C11_12 1_555 1_555
H25_10 C33_12 1_555 1_555
Mo1_12 S1_10 1_555 1_555
Mo1_12 S2_13 1_555 1_555
Cu2_13 S3_10 1_555 1_555
S1_10 Cu3_8 1_555 1_555
S3_10 Cu3_8 1_555 1_555
C1_11 C3_11 1_555 1_555
C4_12 C5_12 1_555 1_555
C8_13 C10_13 1_555 1_555
C15_11 C18_11 1_555 1_555
C21_13 C22_11 1_555 1_555
C24_11 C25_11 1_555 1_555
C26_12 C32_12 1_555 1_555
C26_12 C33_12 1_555 1_555
C12_12 C6_12 1_555 1_555
H8_12 C12_12 1_555 1_555
C13_12 C6_12 1_555 1_555
H9_13 C13_12 1_555 1_555
Cu4_12 Mo2_11 1_555 1_555
Mo2_11 Cu6_5 1_555 1_555
Cu6_5 S5_11 1_555 1_555
S4_11 Cu4_12 1_555 1_555
S5_11 Cu4_12 1_555 1_555
S6_13 Mo2_11 1_555 1_555
O2_11 Mo2_11 1_555 1_555
N5_13 Cu6_5 1_555 1_555
N8_12 Cu4_12 1_555 1_555
N10_12 Cu4_12 1_555 1_555
C27_13 C28_11 1_555 1_555
C28_11 H21_11 1_555 1_555
C30_11 N5_13 1_555 1_555
H22_11 C30_11 1_555 1_555
C31_12 C13_12 1_555 1_555
H23_12 C31_12 1_555 1_555
C34_12 C12_12 1_555 1_555
H26_12 C34_12 1_555 1_555
C35_13 N5_13 1_555 1_555
H27_13 C35_13 1_555 1_555
C38_13 C27_13 1_555 1_555
H30_13 C38_13 1_555 1_555
Cu8_12 Mo2_11 1_555 1_555
Cl2_13 Cu8_12 1_555 1_555
Mo2_11 S4_11 1_555 1_555
Mo2_11 S5_11 1_555 1_555
Cu6_5 S6_13 1_555 1_555
S4_11 Cu8_12 1_555 1_555
S6_13 Cu8_12 1_555 1_555
N8_12 C31_12 1_555 1_555
N8_12 C34_12 1_555 1_555
C28_11 C30_11 1_555 1_555
C35_13 C38_13 1_555 1_555
C9_11 C19_11 1_555 1_555
C16_11 N10_9 1_555 1_555
H12_11 C16_11 1_555 1_555
C17_11 N10_9 1_555 1_555
H13_11 C17_11 1_555 1_555
C19_11 C17_11 1_555 1_555
H15_11 C19_11 1_555 1_555
C20_11 C9_11 1_555 1_555
H16_11 C20_11 1_555 1_555
N10_10 C36_11 1_555 1_555
C29_11 C9_11 1_555 1_555
C36_11 H28_11 1_555 1_555
C37_11 N10_10 1_555 1_555
H29_11 C37_11 1_555 1_555
C39_11 C29_11 1_555 1_555
H31_11 C39_11 1_555 1_555
C40_11 C29_11 1_555 1_555
H32_11 C40_11 1_555 1_555
C16_11 C20_11 1_555 1_555
C36_11 C40_11 1_555 1_555
C37_11 C39_11 1_555 1_555
C9_12 C19_12 1_555 1_555
C16_12 N10_12 1_555 1_555
H12_12 C16_12 1_555 1_555
C17_12 N10_12 1_555 1_555
H13_12 C17_12 1_555 1_555
C19_12 C17_12 1_555 1_555
H15_12 C19_12 1_555 1_555
C20_12 C9_12 1_555 1_555
H16_12 C20_12 1_555 1_555
N10_11 C36_12 1_555 1_555
C29_12 C9_12 1_555 1_555
C36_12 H28_12 1_555 1_555
C37_12 N10_11 1_555 1_555
H29_12 C37_12 1_555 1_555
C39_12 C29_12 1_555 1_555
H31_12 C39_12 1_555 1_555
C40_12 C29_12 1_555 1_555
H32_12 C40_12 1_555 1_555
C16_12 C20_12 1_555 1_555
C36_12 C40_12 1_555 1_555
C37_12 C39_12 1_555 1_555
S1_11 Cu1_7 1_555 1_555
N3_13 Cu1_7 1_555 1_555
N4_7 Cu1_7 1_555 1_555
C9_13 C19_13 1_555 1_555
C11_13 N3_13 1_555 1_555
H7_13 C11_13 1_555 1_555
C14_13 N3_13 1_555 1_555
H10_13 C14_13 1_555 1_555
C16_13 N4_7 1_555 1_555
H12_13 C16_13 1_555 1_555
C17_13 N4_7 1_555 1_555
H13_13 C17_13 1_555 1_555
C19_13 C17_13 1_555 1_555
H15_13 C19_13 1_555 1_555
C20_13 C9_13 1_555 1_555
H16_13 C20_13 1_555 1_555
Cl1_11 Cu3_9 1_555 1_555
Cu5_7 N9_7 1_555 1_555
Mo2_12 Cu7_6 1_555 1_555
Cu7_6 S5_12 1_555 1_555
S6_14 Mo2_12 1_555 1_555
O2_12 Mo2_12 1_555 1_555
N5_14 Cu7_6 1_555 1_555
N7_6 Cu7_6 1_555 1_555
N9_7 C36_13 1_555 1_555
C26_13 C27_14 1_555 1_555
C27_14 C28_12 1_555 1_555
C28_12 H21_12 1_555 1_555
C29_13 C9_13 1_555 1_555
C30_12 N5_14 1_555 1_555
H22_12 C30_12 1_555 1_555
C32_13 C14_13 1_555 1_555
H24_13 C32_13 1_555 1_555
C33_13 C11_13 1_555 1_555
H25_11 C33_13 1_555 1_555
C35_14 N5_14 1_555 1_555
H27_14 C35_14 1_555 1_555
C36_13 H28_13 1_555 1_555
C37_13 N9_7 1_555 1_555
H29_13 C37_13 1_555 1_555
C38_14 C27_14 1_555 1_555
H30_14 C38_14 1_555 1_555
C39_13 C29_13 1_555 1_555
H31_13 C39_13 1_555 1_555
C40_13 C29_13 1_555 1_555
H32_13 C40_13 1_555 1_555
S1_11 Cu3_9 1_555 1_555
C16_13 C20_13 1_555 1_555
Mo2_12 S5_12 1_555 1_555
Cu7_6 S6_14 1_555 1_555
C26_13 C32_13 1_555 1_555
C26_13 C33_13 1_555 1_555
C28_12 C30_12 1_555 1_555
C35_14 C38_14 1_555 1_555
C36_13 C40_13 1_555 1_555
C37_13 C39_13 1_555 1_555
Cu5_7 Mo1_13 1_555 1_555
Mo1_13 Cu2_14 1_555 1_555
Cu2_14 S2_14 1_555 1_555
S1_12 Cu5_7 1_555 1_555
S2_14 Cu5_7 1_555 1_555
S3_11 Mo1_13 1_555 1_555
O1_13 Mo1_13 1_555 1_555
N1_12 Cu2_14 1_555 1_555
N2_14 Cu2_14 1_555 1_555
N3_14 Cu5_7 1_555 1_555
C1_12 H1_12 1_555 1_555
C2_14 C1_12 1_555 1_555
C3_12 N2_14 1_555 1_555
H2_12 C3_12 1_555 1_555
C4_13 C2_14 1_555 1_555
H3_13 C4_13 1_555 1_555
C5_13 N2_14 1_555 1_555
H4_13 C5_13 1_555 1_555
C6_13 C7_12 1_555 1_555
C7_12 C8_14 1_555 1_555
C8_14 H5_14 1_555 1_555
C10_14 N1_12 1_555 1_555
H6_14 C10_14 1_555 1_555
C11_14 N3_14 1_555 1_555
H7_14 C11_14 1_555 1_555
C12_13 C6_13 1_555 1_555
H8_13 C12_13 1_555 1_555
C13_13 C6_13 1_555 1_555
H9_14 C13_13 1_555 1_555
C14_14 N3_14 1_555 1_555
H10_14 C14_14 1_555 1_555
C15_12 N1_12 1_555 1_555
H11_12 C15_12 1_555 1_555
C18_12 C7_12 1_555 1_555
H14_12 C18_12 1_555 1_555
Cu3_10 Mo1_13 1_555 1_555
Cl1_12 Cu3_10 1_555 1_555
Cu4_13 Mo2_13 1_555 1_555
Mo2_13 Cu7_7 1_555 1_555
Cu6_7 N6_7 1_555 1_555
Cu7_7 S5_13 1_555 1_555
S4_12 Cu4_13 1_555 1_555
S5_13 Cu4_13 1_555 1_555
S6_15 Mo2_13 1_555 1_555
O2_13 Mo2_13 1_555 1_555
N5_15 Cu7_7 1_555 1_555
N6_7 C23_14 1_555 1_555
N7_7 Cu7_7 1_555 1_555
N8_13 Cu4_13 1_555 1_555
N10_13 Cu4_13 1_555 1_555
C21_14 H17_14 1_555 1_555
C22_12 C2_14 1_555 1_555
C23_14 C21_14 1_555 1_555
H18_14 C23_14 1_555 1_555
C24_12 C22_12 1_555 1_555
H19_12 C24_12 1_555 1_555
C25_12 N6_7 1_555 1_555
H20_12 C25_12 1_555 1_555
C26_14 C27_15 1_555 1_555
C27_15 C28_13 1_555 1_555
C28_13 H21_13 1_555 1_555
C30_13 N5_15 1_555 1_555
H22_13 C30_13 1_555 1_555
C31_13 C13_13 1_555 1_555
H23_13 C31_13 1_555 1_555
C32_14 C14_14 1_555 1_555
H24_14 C32_14 1_555 1_555
C33_14 C11_14 1_555 1_555
H25_12 C33_14 1_555 1_555
C34_13 C12_13 1_555 1_555
H26_13 C34_13 1_555 1_555
C35_15 N5_15 1_555 1_555
H27_15 C35_15 1_555 1_555
C38_15 C27_15 1_555 1_555
H30_15 C38_15 1_555 1_555
Cu8_13 Mo2_13 1_555 1_555
Cl2_14 Cu8_13 1_555 1_555
Mo1_13 S1_12 1_555 1_555
Mo1_13 S2_14 1_555 1_555
Cu2_14 S3_11 1_555 1_555
S1_12 Cu3_10 1_555 1_555
S3_11 Cu3_10 1_555 1_555
C1_12 C3_12 1_555 1_555
C4_13 C5_13 1_555 1_555
C8_14 C10_14 1_555 1_555
C15_12 C18_12 1_555 1_555
Mo2_13 S4_12 1_555 1_555
Mo2_13 S5_13 1_555 1_555
Cu7_7 S6_15 1_555 1_555
S4_12 Cu8_13 1_555 1_555
S6_15 Cu8_13 1_555 1_555
N8_13 C31_13 1_555 1_555
N8_13 C34_13 1_555 1_555
C21_14 C22_12 1_555 1_555
C24_12 C25_12 1_555 1_555
C26_14 C32_14 1_555 1_555
C26_14 C33_14 1_555 1_555
C28_13 C30_13 1_555 1_555
C35_15 C38_15 1_555 1_555
C1_13 H1_13 1_555 1_555
H2_13 C3_13 1_555 1_555
C6_14 C7_13 1_555 1_555
C12_14 C6_14 1_555 1_555
H8_14 C12_14 1_555 1_555
C13_14 C6_14 1_555 1_555
C15_13 N1_13 1_555 1_555
H11_13 C15_13 1_555 1_555
C18_13 C7_13 1_555 1_555
H14_13 C18_13 1_555 1_555
Cl1_13 Cu3_11 1_555 1_555
Cu4_14 Mo2_14 1_555 1_555
Mo2_14 Cu7_8 1_555 1_555
Cu6_8 N6_8 1_555 1_555
Cu7_8 S5_14 1_555 1_555
S4_13 Cu4_14 1_555 1_555
S5_14 Cu4_14 1_555 1_555
O2_14 Mo2_14 1_555 1_555
N7_8 Cu7_8 1_555 1_555
N8_14 Cu4_14 1_555 1_555
N10_14 Cu4_14 1_555 1_555
C24_13 C22_13 1_555 1_555
H19_13 C24_13 1_555 1_555
C25_13 N6_8 1_555 1_555
H20_13 C25_13 1_555 1_555
C28_14 H21_14 1_555 1_555
H22_14 C30_14 1_555 1_555
C31_14 C13_14 1_555 1_555
H23_14 C31_14 1_555 1_555
C34_14 C12_14 1_555 1_555
H26_14 C34_14 1_555 1_555
S3_12 Cu3_11 1_555 1_555
C1_13 C3_13 1_555 1_555
C15_13 C18_13 1_555 1_555
Mo2_14 S4_13 1_555 1_555
Mo2_14 S5_14 1_555 1_555
N8_14 C31_14 1_555 1_555
N8_14 C34_14 1_555 1_555
C24_13 C25_13 1_555 1_555
C28_14 C30_14 1_555 1_555
C12_15 C6_15 1_555 1_555
H8_15 C12_15 1_555 1_555
C13_15 C6_15 1_555 1_555
S4_14 Cu4_15 1_555 1_555
N8_15 Cu4_15 1_555 1_555
N10_15 Cu4_15 1_555 1_555
C31_15 C13_15 1_555 1_555
H23_15 C31_15 1_555 1_555
C34_15 C12_15 1_555 1_555
H26_15 C34_15 1_555 1_555
N8_15 C31_15 1_555 1_555
N8_15 C34_15 1_555 1_555
Mo2_15 Cu6_8 1_555 1_555
Cu6_8 S5_15 1_555 1_555
O2_15 Mo2_15 1_555 1_555
C28_15 H21_15 1_555 1_555
H22_15 C30_15 1_555 1_555
Mo2_15 S5_15 1_555 1_555
C28_15 C30_15 1_555 1_555
C1_14 H1_14 1_555 1_555
H2_14 C3_14 1_555 1_555
C15_14 N1_14 1_555 1_555
H11_14 C15_14 1_555 1_555
C18_14 C7_14 1_555 1_555
H14_14 C18_14 1_555 1_555
C24_14 C22_14 1_555 1_555
H19_14 C24_14 1_555 1_555
C25_14 N7_8 1_555 1_555
H20_14 C25_14 1_555 1_555
C1_14 C3_14 1_555 1_555
C15_14 C18_14 1_555 1_555
C24_14 C25_14 1_555 1_555
Cu1_8 Mo1_14 1_555 1_555
Mo1_14 Cu2_15 1_555 1_555
Cu2_15 S2_15 1_555 1_555
S1_13 Cu1_8 1_555 1_555
S2_15 Cu1_8 1_555 1_555
S3_14 Mo1_14 1_555 1_555
O1_14 Mo1_14 1_555 1_555
N1_15 Cu2_15 1_555 1_555
N2_15 Cu2_15 1_555 1_555
N3_15 Cu1_8 1_555 1_555
N4_8 Cu1_8 1_555 1_555
C1_15 H1_15 1_555 1_555
C2_15 C1_15 1_555 1_555
C3_15 N2_15 1_555 1_555
H2_15 C3_15 1_555 1_555
C4_14 C2_15 1_555 1_555
H3_14 C4_14 1_555 1_555
C5_14 N2_15 1_555 1_555
H4_14 C5_14 1_555 1_555
C7_15 C8_15 1_555 1_555
C8_15 H5_15 1_555 1_555
C9_14 C19_14 1_555 1_555
C10_15 N1_15 1_555 1_555
H6_15 C10_15 1_555 1_555
C11_15 N3_15 1_555 1_555
H7_15 C11_15 1_555 1_555
C14_15 N3_15 1_555 1_555
H10_15 C14_15 1_555 1_555
C15_15 N1_15 1_555 1_555
H11_15 C15_15 1_555 1_555
C16_14 N4_8 1_555 1_555
H12_14 C16_14 1_555 1_555
C17_14 N4_8 1_555 1_555
H13_14 C17_14 1_555 1_555
C18_15 C7_15 1_555 1_555
H14_15 C18_15 1_555 1_555
C19_14 C17_14 1_555 1_555
H15_14 C19_14 1_555 1_555
C20_14 C9_14 1_555 1_555
H16_14 C20_14 1_555 1_555
Cu3_12 Mo1_14 1_555 1_555
Cl1_14 Cu3_12 1_555 1_555
Cu5_8 N9_8 1_555 1_555
N7_6 C23_15 1_555 1_555
N9_8 C36_14 1_555 1_555
C21_15 H17_15 1_555 1_555
C22_15 C2_15 1_555 1_555
C23_15 C21_15 1_555 1_555
H18_15 C23_15 1_555 1_555
C24_15 C22_15 1_555 1_555
H19_15 C24_15 1_555 1_555
C25_15 N7_6 1_555 1_555
H20_15 C25_15 1_555 1_555
C29_14 C9_14 1_555 1_555
C32_15 C14_15 1_555 1_555
H24_15 C32_15 1_555 1_555
C33_15 C11_15 1_555 1_555
H25_14 C33_15 1_555 1_555
C36_14 H28_14 1_555 1_555
C37_14 N9_8 1_555 1_555
H29_14 C37_14 1_555 1_555
C39_14 C29_14 1_555 1_555
H31_14 C39_14 1_555 1_555
C40_14 C29_14 1_555 1_555
H32_14 C40_14 1_555 1_555
Mo1_14 S1_13 1_555 1_555
Mo1_14 S2_15 1_555 1_555
Cu2_15 S3_14 1_555 1_555
S1_13 Cu3_12 1_555 1_555
S3_14 Cu3_12 1_555 1_555
C1_15 C3_15 1_555 1_555
C4_14 C5_14 1_555 1_555
C8_15 C10_15 1_555 1_555
C15_15 C18_15 1_555 1_555
C16_14 C20_14 1_555 1_555
C21_15 C22_15 1_555 1_555
C24_15 C25_15 1_555 1_555
C26_15 C32_15 1_555 1_555
C26_15 C33_15 1_555 1_555
C36_14 C40_14 1_555 1_555
C37_14 C39_14 1_555 1_555
C12_16 C6_16 1_555 1_555
H8_16 C12_16 1_555 1_555
C13_16 C6_16 1_555 1_555
H9_15 C13_16 1_555 1_555
Cu4_16 Mo2_16 1_555 1_555
Mo2_16 Cu6_7 1_555 1_555
Cu6_7 S5_16 1_555 1_555
S4_15 Cu4_16 1_555 1_555
S5_16 Cu4_16 1_555 1_555
S6_16 Mo2_16 1_555 1_555
O2_16 Mo2_16 1_555 1_555
N5_16 Cu6_7 1_555 1_555
N8_16 Cu4_16 1_555 1_555
N10_16 Cu4_16 1_555 1_555
C27_16 C28_16 1_555 1_555
C28_16 H21_16 1_555 1_555
C30_16 N5_16 1_555 1_555
H22_16 C30_16 1_555 1_555
C31_16 C13_16 1_555 1_555
H23_16 C31_16 1_555 1_555
C34_16 C12_16 1_555 1_555
H26_16 C34_16 1_555 1_555
C35_16 N5_16 1_555 1_555
H27_16 C35_16 1_555 1_555
C38_16 C27_16 1_555 1_555
H30_16 C38_16 1_555 1_555
Cu8_14 Mo2_16 1_555 1_555
Cl2_15 Cu8_14 1_555 1_555
Mo2_16 S4_15 1_555 1_555
Mo2_16 S5_16 1_555 1_555
Cu6_7 S6_16 1_555 1_555
S4_15 Cu8_14 1_555 1_555
S6_16 Cu8_14 1_555 1_555
N8_16 C31_16 1_555 1_555
N8_16 C34_16 1_555 1_555
C28_16 C30_16 1_555 1_555
C35_16 C38_16 1_555 1_555
Cu5_8 Mo1_15 1_555 1_555
Mo1_15 Cu2_16 1_555 1_555
Cu2_16 S2_16 1_555 1_555
S1_14 Cu5_8 1_555 1_555
S2_16 Cu5_8 1_555 1_555
S3_15 Mo1_15 1_555 1_555
O1_15 Mo1_15 1_555 1_555
N1_16 Cu2_16 1_555 1_555
N2_16 Cu2_16 1_555 1_555
N3_16 Cu5_8 1_555 1_555
C1_16 H1_16 1_555 1_555
C2_16 C1_16 1_555 1_555
C3_16 N2_16 1_555 1_555
H2_16 C3_16 1_555 1_555
C4_15 C2_16 1_555 1_555
H3_15 C4_15 1_555 1_555
C5_15 N2_16 1_555 1_555
H4_15 C5_15 1_555 1_555
C7_16 C8_16 1_555 1_555
C8_16 H5_16 1_555 1_555
C10_16 N1_16 1_555 1_555
H6_16 C10_16 1_555 1_555
C11_16 N3_16 1_555 1_555
H7_16 C11_16 1_555 1_555
C14_16 N3_16 1_555 1_555
H10_16 C14_16 1_555 1_555
C15_16 N1_16 1_555 1_555
H11_16 C15_16 1_555 1_555
C18_16 C7_16 1_555 1_555
H14_16 C18_16 1_555 1_555
Cu3_13 Mo1_15 1_555 1_555
Cl1_15 Cu3_13 1_555 1_555
C32_16 C14_16 1_555 1_555
H24_16 C32_16 1_555 1_555
C33_16 C11_16 1_555 1_555
H25_15 C33_16 1_555 1_555
Mo1_15 S1_14 1_555 1_555
Mo1_15 S2_16 1_555 1_555
Cu2_16 S3_15 1_555 1_555
S1_14 Cu3_13 1_555 1_555
S3_15 Cu3_13 1_555 1_555
C1_16 C3_16 1_555 1_555
C4_15 C5_15 1_555 1_555
C8_16 C10_16 1_555 1_555
C15_16 C18_16 1_555 1_555
C26_16 C32_16 1_555 1_555
C26_16 C33_16 1_555 1_555
N7_7 C23_16 1_555 1_555
C21_16 H17_16 1_555 1_555
C23_16 C21_16 1_555 1_555
H18_16 C23_16 1_555 1_555
C24_16 C22_16 1_555 1_555
H19_16 C24_16 1_555 1_555
C25_16 N7_7 1_555 1_555
H20_16 C25_16 1_555 1_555
C21_16 C22_16 1_555 1_555
C24_16 C25_16 1_555 1_555
C9_15 C19_15 1_555 1_555
C16_15 N10_14 1_555 1_555
H12_15 C16_15 1_555 1_555
C17_15 N10_14 1_555 1_555
H13_15 C17_15 1_555 1_555
C19_15 C17_15 1_555 1_555
H15_15 C19_15 1_555 1_555
C20_15 C9_15 1_555 1_555
H16_15 C20_15 1_555 1_555
N10_13 C36_15 1_555 1_555
C29_15 C9_15 1_555 1_555
C36_15 H28_15 1_555 1_555
C37_15 N10_13 1_555 1_555
H29_15 C37_15 1_555 1_555
C39_15 C29_15 1_555 1_555
H31_15 C39_15 1_555 1_555
C40_15 C29_15 1_555 1_555
H32_15 C40_15 1_555 1_555
C16_15 C20_15 1_555 1_555
C36_15 C40_15 1_555 1_555
C37_15 C39_15 1_555 1_555
C9_16 C19_16 1_555 1_555
C16_16 N10_15 1_555 1_555
H12_16 C16_16 1_555 1_555
C17_16 N10_15 1_555 1_555
H13_16 C17_16 1_555 1_555
C19_16 C17_16 1_555 1_555
H15_16 C19_16 1_555 1_555
C20_16 C9_16 1_555 1_555
H16_16 C20_16 1_555 1_555
N10_16 C36_16 1_555 1_555
C29_16 C9_16 1_555 1_555
C36_16 H28_16 1_555 1_555
C37_16 N10_16 1_555 1_555
H29_16 C37_16 1_555 1_555
C39_16 C29_16 1_555 1_555
H31_16 C39_16 1_555 1_555
C40_16 C29_16 1_555 1_555
H32_16 C40_16 1_555 1_555
C16_16 C20_16 1_555 1_555
C36_16 C40_16 1_555 1_555
C37_16 C39_16 1_555 1_555
S4_16 Cu8_15 1_555 1_555
Cl2_16 Cu8_16 1_555 1_555
Cl1_16 Cu3_14 1_555 1_555
S1_15 Cu3_15 1_555 1_555
S3_16 Mo1_16 1_555 1_555
O1_16 Mo1_16 1_555 1_555
H3_16 C4_16 1_555 1_555
H4_16 C5_16 1_555 1_555
Cu3_16 Mo1_16 1_555 1_555
Mo1_16 S1_16 1_555 1_555
S1_16 Cu3_16 1_555 1_555
S3_16 Cu3_16 1_555 1_555
C4_16 C5_16 1_555 1_555

#END
