
###############################################################################
#
# This file contains modified crystal structure data generated from the
# MOF subset of the Cambridge Structural Database (CSD) v543 
# hosted by the Cambridge Crystallographic Data Centre (CCDC).
#
# This work is licensed under the Creative Commons
# Attribution-NonCommercial-ShareAlike 4.0 International License.
# To view a copy of this license, visit
# http://creativecommons.org/licenses/by-nc-sa/4.0/
# or send a letter to
# Creative Commons, PO Box 1866, Mountain View, CA 94042, USA.
#
# CIF created using the CSD Python API on 29 September 2022
# The structure has been converted into the P1 space group
# The structure has a 3D framework
# The original CSD entry EWUTEW is in the monoclinic crystal system
# The framework has been calculated to contain at least 10.0% void space
# The void calculation uses a probe of radius 1.32A, grid spacing 0.4
#
###############################################################################

data_EWUTEW
_chemical_formula_moiety         '(C208 H160 Cu24 N48 O8 S32 W8)n'
_symmetry_cell_setting           triclinic
_symmetry_space_group_name_H-M   'P 1'
_symmetry_Int_Tables_number      1
_space_group_name_Hall           'P 1'
loop_
_symmetry_equiv_pos_site_id
_symmetry_equiv_pos_as_xyz
1 x,y,z
_cell_length_a                   40.669(3)
_cell_length_b                   9.7097(7)
_cell_length_c                   24.7394(19)
_cell_angle_alpha                90
_cell_angle_beta                 105.0230(10)
_cell_angle_gamma                90
_cell_volume                     9435.3
loop_
_atom_site_label
_atom_site_type_symbol
_atom_site_fract_x
_atom_site_fract_y
_atom_site_fract_z
Cu9 Cu 0.369360(18) 0.39590(7) 0.10871(3)
N11 N 0.36924(13) 0.3173(6) 0.1855(2)
H22 H 0.4153 0.0107 0.3492
C29 C 0.36575(17) 0.0677(7) 0.3264(3)
C30 C 0.33561(18) 0.0436(7) 0.3408(3)
H23 H 0.3162 0.0935 0.3237
C32 C 0.39574(18) 0.3042(8) 0.2282(3)
H25 H 0.4158 0.3488 0.2270
C33 C 0.39560(19) 0.2272(8) 0.2753(3)
H26 H 0.4152 0.2219 0.3046
C34 C 0.36705(17) 0.1595(7) 0.2789(3)
C35 C 0.3389(2) 0.1787(11) 0.2365(4)
H27 H 0.3182 0.1406 0.2382
C36 C 0.3412(2) 0.2558(11) 0.1906(4)
H28 H 0.3216 0.2651 0.1614
Cu2 Cu 0.107660(17) 0.14553(7) 0.49028(3)
S2 S 0.09164(4) 0.05704(14) 0.40089(6)
N2 N 0.36130(15) 0.8722(5) 0.4083(2)
N4 N 0.07049(12) 0.2843(5) 0.4991(2)
N5 N 0.15301(11) 0.2469(5) 0.5124(2)
C11 C 0.0484(2) 0.2531(9) 0.5278(4)
H9 H 0.0517 0.1719 0.5484
C12 C 0.0205(2) 0.3339(9) 0.5290(5)
H10 H 0.0055 0.3052 0.5494
C13 C 0.01501(14) 0.4554(6) 0.5004(3)
C14 C 0.03937(18) 0.4920(7) 0.4749(4)
H11 H 0.0380 0.5768 0.4569
C15 C 0.06604(19) 0.4052(7) 0.4754(4)
H12 H 0.0822 0.4348 0.4573
C16 C 0.16019(15) 0.3601(6) 0.4882(3)
H13 H 0.1428 0.4015 0.4612
C17 C 0.19227(15) 0.4215(6) 0.5006(3)
H14 H 0.1961 0.5002 0.4817
C18 C 0.21840(14) 0.3626(5) 0.5418(2)
C19 C 0.21056(15) 0.2474(7) 0.5686(3)
H15 H 0.2271 0.2060 0.5971
C20 C 0.17807(15) 0.1941(7) 0.5529(3)
H16 H 0.1734 0.1166 0.5716
C23 C 0.25340(14) 0.4192(6) 0.5559(2)
C24 C 0.28139(15) 0.3376(6) 0.5788(3)
H19 H 0.2784 0.2449 0.5858
C25 C 0.18638(16) 0.1066(6) 0.4086(3)
H20 H 0.1680 0.1638 0.3929
W2 W 0.410090(5) 0.61744(2) 0.539070(10)
Cu4 Cu 0.354620(19) 0.70911(8) 0.46101(3)
Cu6 Cu 0.392340(17) 0.35447(7) 0.50972(3)
Cu8 Cu 0.369360(18) 0.60410(7) 0.60871(3)
S5 S 0.39221(4) 0.53820(15) 0.45057(6)
S6 S 0.40836(4) 0.44296(14) 0.59911(6)
S7 S 0.37431(4) 0.78525(14) 0.55141(7)
S8 S 0.23882(5) 0.5795(2) 0.38981(11)
O2 O 0.45087(11) 0.6817(5) 0.5519(2)
N7 N 0.30546(14) 0.6721(6) 0.4312(2)
N10 N 0.36924(13) 0.6827(6) 0.6855(2)
N12 N 0.42951(12) 0.2157(5) 0.5009(2)
N14 N 0.34699(11) 0.2531(5) 0.4876(2)
N15 N 0.31996(11) 0.5251(5) 0.58240(19)
C27 C 0.39077(19) 0.8984(7) 0.3963(3)
H21 H 0.4100 0.8503 0.4156
C28 C 0.39419(18) 0.9952(7) 0.3560(3)
C31 C 0.33424(18) 0.9457(7) 0.3806(3)
H24 H 0.3135 0.9300 0.3887
C42 C 0.33981(15) 0.1399(6) 0.5118(3)
H33 H 0.3572 0.0985 0.5388
C43 C 0.30773(15) 0.0785(6) 0.4994(3)
C44 C 0.28160(14) 0.1374(5) 0.4582(2)
C45 C 0.28944(15) 0.2526(7) 0.4314(3)
H35 H 0.2729 0.2940 0.4029
C46 C 0.32193(15) 0.3059(7) 0.4471(3)
H36 H 0.3266 0.3834 0.4284
C47 C 0.29310(15) 0.6029(6) 0.5588(3)
H37 H 0.2970 0.6942 0.5510
C48 C 0.26044(15) 0.5570(6) 0.5455(3)
H38 H 0.2427 0.6168 0.5296
C49 C 0.24660(14) 0.0808(6) 0.4441(2)
C50 C 0.21861(15) 0.1624(6) 0.4212(3)
H39 H 0.2216 0.2551 0.4142
C51 C 0.31362(16) 0.3934(6) 0.5914(3)
H40 H 0.3320 0.3362 0.6071
C52 C 0.2781(2) 0.6347(7) 0.4145(3)
C37 C 0.0484(2) 0.7469(9) 0.0278(4)
H29 H 0.0517 0.8281 0.0484
C38 C 0.0205(2) 0.6661(9) 0.0290(5)
H30 H 0.0055 0.6948 0.0494
C39 C 0.01501(14) 0.5446(6) 0.0004(3)
Cu7 Cu 0.107660(17) 0.85447(7) 0.99028(3)
N13 N 0.07049(12) 0.7157(5) 0.9991(2)
C40 C 0.03937(18) 0.5080(7) 0.9749(4)
H31 H 0.0380 0.4232 0.9569
C41 C 0.06604(19) 0.5948(7) 0.9754(4)
H32 H 0.0822 0.5652 0.9573
W1 W 0.910090(5) 0.88256(2) 0.039070(10)
Cu3 Cu 0.869360(18) 0.89590(7) 0.10871(3)
S3 S 0.87431(4) 0.71475(14) 0.05141(7)
O1 O 0.95087(11) 0.8183(5) 0.0519(2)
N3 N 0.86924(13) 0.8173(6) 0.1855(2)
N6 N 0.81996(11) 0.9749(5) 0.08240(19)
C1 C 0.89077(19) 0.3984(7) 0.3963(3)
H1 H 0.9100 0.3503 0.4156
C2 C 0.89419(18) 0.4952(7) 0.3560(3)
H2 H 0.9153 0.5107 0.3492
C3 C 0.86575(17) 0.5677(7) 0.3264(3)
C4 C 0.83561(18) 0.5436(7) 0.3408(3)
H3 H 0.8162 0.5935 0.3237
C5 C 0.83424(18) 0.4457(7) 0.3806(3)
H4 H 0.8135 0.4300 0.3887
C6 C 0.89574(18) 0.8042(8) 0.2282(3)
H5 H 0.9158 0.8488 0.2270
C7 C 0.89560(19) 0.7272(8) 0.2753(3)
H6 H 0.9152 0.7219 0.3046
C8 C 0.86705(17) 0.6595(7) 0.2789(3)
C9 C 0.8389(2) 0.6787(11) 0.2365(4)
H7 H 0.8182 0.6406 0.2382
C10 C 0.8412(2) 0.7558(11) 0.1906(4)
H8 H 0.8216 0.7651 0.1614
C21 C 0.79310(15) 0.8971(6) 0.0588(3)
H17 H 0.7970 0.8058 0.0510
C22 C 0.76044(15) 0.9430(6) 0.0455(3)
H18 H 0.7427 0.8832 0.0296
Cu5 Cu 0.854620(19) 0.20911(8) 0.46101(3)
N9 N 0.86130(15) 0.3722(5) 0.4083(2)
Cu1 Cu 0.854620(19) 0.79089(8) 0.96101(3)
S1 S 0.89221(4) 0.96180(15) 0.95057(6)
S4 S 0.73882(5) 0.9205(2) 0.88981(11)
N1 N 0.80546(14) 0.8279(6) 0.9312(2)
C26 C 0.7781(2) 0.8653(7) 0.9145(3)
N8 N 0.86130(15) 0.6278(5) 0.9083(2)
H34 H 0.6961 0.9998 0.9817
H11_2 H 0.5380 0.0768 0.4569
H14_2 H 0.6961 0.0002 0.4817
W2_2 W 0.910090(5) 0.11744(2) 0.539070(10)
Cu8_2 Cu 0.869360(18) 0.10410(7) 0.60871(3)
S5_2 S 0.89221(4) 0.03820(15) 0.45057(6)
S7_2 S 0.87431(4) 0.28525(14) 0.55141(7)
S8_2 S 0.73882(5) 0.0795(2) 0.38981(11)
O2_2 O 0.95087(11) 0.1817(5) 0.5519(2)
N7_2 N 0.80546(14) 0.1721(6) 0.4312(2)
N10_2 N 0.86924(13) 0.1827(6) 0.6855(2)
N15_2 N 0.81996(11) 0.0251(5) 0.58240(19)
C37_2 C 0.4516(2) 0.2469(9) 0.4722(4)
H29_2 H 0.4483 0.3281 0.4516
C38_2 C 0.4795(2) 0.1661(9) 0.4710(5)
H30_2 H 0.4945 0.1948 0.4506
C39_2 C 0.48499(14) 0.0446(6) 0.4996(3)
C40_2 C 0.46063(18) 0.0080(7) 0.5251(4)
C41_2 C 0.43396(19) 0.0948(7) 0.5246(4)
H32_2 H 0.4178 0.0652 0.5427
C47_2 C 0.79310(15) 0.1029(6) 0.5588(3)
H37_2 H 0.7970 0.1942 0.5510
C48_2 C 0.76044(15) 0.0570(6) 0.5455(3)
H38_2 H 0.7427 0.1168 0.5296
C52_2 C 0.7781(2) 0.1347(7) 0.4145(3)
W1_2 W 0.410090(5) 0.38256(2) 0.039070(10)
Cu2_2 Cu 0.392340(17) 0.64553(7) 0.00972(3)
S2_2 S 0.40836(4) 0.55704(14) 0.09911(6)
S3_2 S 0.37431(4) 0.21475(14) 0.05141(7)
O1_2 O 0.45087(11) 0.3183(5) 0.0519(2)
N4_2 N 0.42951(12) 0.7843(5) 0.0009(2)
N6_2 N 0.31996(11) 0.4749(5) 0.08240(19)
C14_2 C 0.46063(18) 0.9920(7) 0.0251(4)
C15_2 C 0.43396(19) 0.9052(7) 0.0246(4)
H12_2 H 0.4178 0.9348 0.0427
C16_2 C 0.33981(15) 0.8601(6) 0.0118(3)
H13_2 H 0.3572 0.9015 0.0388
C21_2 C 0.29310(15) 0.3971(6) 0.0588(3)
H17_2 H 0.2970 0.3058 0.0510
C22_2 C 0.26044(15) 0.4430(6) 0.0455(3)
H18_2 H 0.2427 0.3832 0.0296
C25_2 C 0.31362(16) 0.6066(6) 0.0914(3)
H20_2 H 0.3320 0.6638 0.1071
N14_2 N 0.15301(11) 0.7531(5) 0.0124(2)
C43_2 C 0.19227(15) 0.5785(6) 0.0006(3)
C44_2 C 0.21840(14) 0.6374(5) 0.0418(2)
C45_2 C 0.21056(15) 0.7526(7) 0.0686(3)
H35_2 H 0.2271 0.7940 0.0971
C46_2 C 0.17807(15) 0.8059(7) 0.0529(3)
H36_2 H 0.1734 0.8834 0.0716
C49_2 C 0.25340(14) 0.5808(6) 0.0559(2)
C50_2 C 0.28139(15) 0.6624(6) 0.0788(3)
H39_2 H 0.2784 0.7551 0.0858
Cu1_2 Cu 0.354620(19) 0.29089(8) 0.96101(3)
S1_2 S 0.39221(4) 0.46180(15) 0.95057(6)
S4_2 S 0.23882(5) 0.4205(2) 0.88981(11)
N1_2 N 0.30546(14) 0.3279(6) 0.9312(2)
N5_2 N 0.34699(11) 0.7469(5) 0.9876(2)
C11_2 C 0.4516(2) 0.7531(9) 0.9722(4)
H9_2 H 0.4483 0.6719 0.9516
C12_2 C 0.4795(2) 0.8339(9) 0.9710(5)
H10_2 H 0.4945 0.8052 0.9506
C13_2 C 0.48499(14) 0.9554(6) 0.9996(3)
C17_2 C 0.30773(15) 0.9215(6) 0.9994(3)
C18_2 C 0.28160(14) 0.8626(5) 0.9582(2)
C19_2 C 0.28944(15) 0.7474(7) 0.9314(3)
H15_2 H 0.2729 0.7060 0.9029
C20_2 C 0.32193(15) 0.6941(7) 0.9471(3)
H16_2 H 0.3266 0.6166 0.9284
C23_2 C 0.24660(14) 0.9192(6) 0.9441(2)
C24_2 C 0.21861(15) 0.8376(6) 0.9212(3)
H19_2 H 0.2216 0.7449 0.9142
C26_2 C 0.2781(2) 0.3653(7) 0.9145(3)
S6_2 S 0.09164(4) 0.94296(14) 0.90089(6)
N8_2 N 0.36130(15) 0.1278(5) 0.9083(2)
H31_2 H 0.5380 0.9232 0.9569
C42_2 C 0.16019(15) 0.6399(6) 0.9882(3)
H33_2 H 0.1428 0.5985 0.9612
H34_2 H 0.1961 0.4998 0.9817
C51_2 C 0.18638(16) 0.8934(6) 0.9086(3)
H40_2 H 0.1680 0.8362 0.8929
C1_2 C 0.89077(19) 0.6016(7) 0.8963(3)
H1_2 H 0.9100 0.6497 0.9156
C2_2 C 0.89419(18) 0.5048(7) 0.8560(3)
H2_2 H 0.9153 0.4893 0.8492
C3_2 C 0.86575(17) 0.4323(7) 0.8264(3)
C4_2 C 0.83561(18) 0.4564(7) 0.8408(3)
H3_2 H 0.8162 0.4065 0.8237
C5_2 C 0.83424(18) 0.5543(7) 0.8806(3)
H4_2 H 0.8135 0.5700 0.8887
C6_2 C 0.89574(18) 0.1958(8) 0.7282(3)
H5_2 H 0.9158 0.1512 0.7270
C7_2 C 0.89560(19) 0.2728(8) 0.7753(3)
H6_2 H 0.9152 0.2781 0.8046
C8_2 C 0.86705(17) 0.3405(7) 0.7789(3)
C9_2 C 0.8389(2) 0.3213(11) 0.7365(4)
H7_2 H 0.8182 0.3594 0.7382
C10_2 C 0.8412(2) 0.2442(11) 0.6906(4)
H8_2 H 0.8216 0.2349 0.6614
C27_2 C 0.39077(19) 0.1016(7) 0.8963(3)
H21_2 H 0.4100 0.1497 0.9156
C28_2 C 0.39419(18) 0.0048(7) 0.8560(3)
C31_2 C 0.33424(18) 0.0543(7) 0.8806(3)
H24_2 H 0.3135 0.0700 0.8887
H22_2 H 0.4153 0.9893 0.8492
C29_2 C 0.36575(17) 0.9323(7) 0.8264(3)
C30_2 C 0.33561(18) 0.9564(7) 0.8408(3)
H23_2 H 0.3162 0.9065 0.8237
C32_2 C 0.39574(18) 0.6958(8) 0.7282(3)
H25_2 H 0.4158 0.6512 0.7270
C33_2 C 0.39560(19) 0.7728(8) 0.7753(3)
H26_2 H 0.4152 0.7781 0.8046
C34_2 C 0.36705(17) 0.8405(7) 0.7789(3)
C35_2 C 0.3389(2) 0.8213(11) 0.7365(4)
H27_2 H 0.3182 0.8594 0.7382
C36_2 C 0.3412(2) 0.7442(11) 0.6906(4)
H28_2 H 0.3216 0.7349 0.6614
W1_3 W 0.089910(5) 0.88256(2) 0.460930(10)
Cu1_3 Cu 0.145380(19) 0.79089(8) 0.53899(3)
Cu3_2 Cu 0.130640(18) 0.89590(7) 0.39129(3)
S1_3 S 0.10779(4) 0.96180(15) 0.54943(6)
S3_3 S 0.12569(4) 0.71475(14) 0.44859(7)
S4_3 S 0.26118(5) 0.9205(2) 0.61019(11)
O1_3 O 0.04913(11) 0.8183(5) 0.4481(2)
N1_3 N 0.19454(14) 0.8279(6) 0.5688(2)
N3_2 N 0.13076(13) 0.8173(6) 0.3145(2)
N6_3 N 0.18004(11) 0.9749(5) 0.41760(19)
C1_3 C 0.10923(19) 0.3984(7) 0.1037(3)
H1_3 H 0.0900 0.3503 0.0844
C2_3 C 0.10581(18) 0.4952(7) 0.1440(3)
H2_3 H 0.0847 0.5107 0.1508
C3_3 C 0.13425(17) 0.5677(7) 0.1736(3)
C4_3 C 0.16439(18) 0.5436(7) 0.1592(3)
H3_3 H 0.1838 0.5935 0.1763
C5_3 C 0.16576(18) 0.4457(7) 0.1194(3)
H4_3 H 0.1865 0.4300 0.1113
C6_3 C 0.10426(18) 0.8042(8) 0.2718(3)
H5_3 H 0.0842 0.8488 0.2730
C7_3 C 0.10440(19) 0.7272(8) 0.2247(3)
H6_3 H 0.0848 0.7219 0.1954
C8_3 C 0.13295(17) 0.6595(7) 0.2211(3)
C9_3 C 0.1611(2) 0.6787(11) 0.2635(4)
H7_3 H 0.1818 0.6406 0.2618
C10_3 C 0.1588(2) 0.7558(11) 0.3094(4)
H8_3 H 0.1784 0.7651 0.3386
C21_3 C 0.20690(15) 0.8971(6) 0.4412(3)
H17_3 H 0.2030 0.8058 0.4490
C22_3 C 0.23956(15) 0.9430(6) 0.4545(3)
H18_3 H 0.2573 0.8832 0.4704
C26_3 C 0.2219(2) 0.8653(7) 0.5855(3)
Cu5_2 Cu 0.145380(19) 0.20911(8) 0.03899(3)
N8_3 N 0.13870(15) 0.6278(5) 0.5917(2)
N9_2 N 0.13870(15) 0.3722(5) 0.0917(2)
H34_3 H 0.3039 0.9998 0.5183
Cu7_2 Cu 0.892340(17) 0.85447(7) 0.50972(3)
N13_2 N 0.92951(12) 0.7157(5) 0.5009(2)
C37_3 C 0.9516(2) 0.7469(9) 0.4722(4)
H29_3 H 0.9483 0.8281 0.4516
C38_3 C 0.9795(2) 0.6661(9) 0.4710(5)
H30_3 H 0.9945 0.6948 0.4506
C39_3 C 0.98499(14) 0.5446(6) 0.4996(3)
C40_3 C 0.96063(18) 0.5080(7) 0.5251(4)
H31_3 H 0.9620 0.4232 0.5431
C41_3 C 0.93396(19) 0.5948(7) 0.5246(4)
H32_3 H 0.9178 0.5652 0.5427
Cu9_2 Cu 0.630640(18) 0.39590(7) 0.39129(3)
N11_2 N 0.63076(13) 0.3173(6) 0.3145(2)
H22_3 H 0.5847 0.0107 0.1508
C29_3 C 0.63425(17) 0.0677(7) 0.1736(3)
C30_3 C 0.66439(18) 0.0436(7) 0.1592(3)
H23_3 H 0.6838 0.0935 0.1763
C32_3 C 0.60426(18) 0.3042(8) 0.2718(3)
H25_3 H 0.5842 0.3488 0.2730
C33_3 C 0.60440(19) 0.2272(8) 0.2247(3)
H26_3 H 0.5848 0.2219 0.1954
C34_3 C 0.63295(17) 0.1595(7) 0.2211(3)
C35_3 C 0.6611(2) 0.1787(11) 0.2635(4)
H27_3 H 0.6818 0.1406 0.2618
C36_3 C 0.6588(2) 0.2558(11) 0.3094(4)
H28_3 H 0.6784 0.2651 0.3386
Cu2_3 Cu 0.892340(17) 0.14553(7) 0.00972(3)
S2_3 S 0.90836(4) 0.05704(14) 0.09911(6)
N2_2 N 0.63870(15) 0.8722(5) 0.0917(2)
N4_3 N 0.92951(12) 0.2843(5) 0.0009(2)
C14_3 C 0.96063(18) 0.4920(7) 0.0251(4)
H11_3 H 0.9620 0.5768 0.0431
C15_3 C 0.93396(19) 0.4052(7) 0.0246(4)
H12_3 H 0.9178 0.4348 0.0427
C16_3 C 0.83981(15) 0.3601(6) 0.0118(3)
H13_3 H 0.8572 0.4015 0.0388
H14_3 H 0.8039 0.5002 0.0183
C25_3 C 0.81362(16) 0.1066(6) 0.0914(3)
H20_3 H 0.8320 0.1638 0.1071
Cu4_2 Cu 0.645380(19) 0.70911(8) 0.03899(3)
S5_3 S 0.60779(4) 0.53820(15) 0.04943(6)
S8_3 S 0.76118(5) 0.5795(2) 0.11019(11)
N7_3 N 0.69454(14) 0.6721(6) 0.0688(2)
N14_3 N 0.65301(11) 0.2531(5) 0.0124(2)
C27_3 C 0.60923(19) 0.8984(7) 0.1037(3)
H21_3 H 0.5900 0.8503 0.0844
C28_3 C 0.60581(18) 0.9952(7) 0.1440(3)
C31_3 C 0.66576(18) 0.9457(7) 0.1194(3)
H24_3 H 0.6865 0.9300 0.1113
C43_3 C 0.69227(15) 0.0785(6) 0.0006(3)
C44_3 C 0.71840(14) 0.1374(5) 0.0418(2)
C45_3 C 0.71056(15) 0.2526(7) 0.0686(3)
H35_3 H 0.7271 0.2940 0.0971
C46_3 C 0.67807(15) 0.3059(7) 0.0529(3)
H36_3 H 0.6734 0.3834 0.0716
C49_3 C 0.75340(14) 0.0808(6) 0.0559(2)
C50_3 C 0.78139(15) 0.1624(6) 0.0788(3)
H39_3 H 0.7784 0.2551 0.0858
C52_3 C 0.7219(2) 0.6347(7) 0.0855(3)
N5_3 N 0.84699(11) 0.2469(5) 0.9876(2)
C11_3 C 0.9516(2) 0.2531(9) 0.9722(4)
H9_3 H 0.9483 0.1719 0.9516
C12_3 C 0.9795(2) 0.3339(9) 0.9710(5)
H10_3 H 0.9945 0.3052 0.9506
C13_3 C 0.98499(14) 0.4554(6) 0.9996(3)
C17_3 C 0.80773(15) 0.4215(6) 0.9994(3)
C18_3 C 0.78160(14) 0.3626(5) 0.9582(2)
C19_3 C 0.78944(15) 0.2474(7) 0.9314(3)
H15_3 H 0.7729 0.2060 0.9029
C20_3 C 0.82193(15) 0.1941(7) 0.9471(3)
H16_3 H 0.8266 0.1166 0.9284
C23_3 C 0.74660(14) 0.4192(6) 0.9441(2)
C24_3 C 0.71861(15) 0.3376(6) 0.9212(3)
H19_3 H 0.7216 0.2449 0.9142
W2_3 W 0.589910(5) 0.61744(2) 0.960930(10)
Cu6_2 Cu 0.607660(17) 0.35447(7) 0.99028(3)
Cu8_3 Cu 0.630640(18) 0.60410(7) 0.89129(3)
S6_3 S 0.59164(4) 0.44296(14) 0.90089(6)
S7_3 S 0.62569(4) 0.78525(14) 0.94859(7)
O2_3 O 0.54913(11) 0.6817(5) 0.9481(2)
N10_3 N 0.63076(13) 0.6827(6) 0.8145(2)
N12_2 N 0.57049(12) 0.2157(5) 0.9991(2)
N15_3 N 0.68004(11) 0.5251(5) 0.91760(19)
C42_3 C 0.66019(15) 0.1399(6) 0.9882(3)
H33_3 H 0.6428 0.0985 0.9612
C47_3 C 0.70690(15) 0.6029(6) 0.9412(3)
H37_3 H 0.7030 0.6942 0.9490
C48_3 C 0.73956(15) 0.5570(6) 0.9545(3)
H38_3 H 0.7573 0.6168 0.9704
C51_3 C 0.68638(16) 0.3934(6) 0.9086(3)
H40_3 H 0.6680 0.3362 0.8929
W1_4 W 0.589910(5) 0.38256(2) 0.460930(10)
Cu1_4 Cu 0.645380(19) 0.29089(8) 0.53899(3)
Cu2_4 Cu 0.607660(17) 0.64553(7) 0.49028(3)
S1_4 S 0.60779(4) 0.46180(15) 0.54943(6)
S2_4 S 0.59164(4) 0.55704(14) 0.40089(6)
S3_4 S 0.62569(4) 0.21475(14) 0.44859(7)
S4_4 S 0.76118(5) 0.4205(2) 0.61019(11)
O1_4 O 0.54913(11) 0.3183(5) 0.4481(2)
N1_4 N 0.69454(14) 0.3279(6) 0.5688(2)
N4_4 N 0.57049(12) 0.7843(5) 0.4991(2)
N5_4 N 0.65301(11) 0.7469(5) 0.5124(2)
N6_4 N 0.68004(11) 0.4749(5) 0.41760(19)
C11_4 C 0.5484(2) 0.7531(9) 0.5278(4)
H9_4 H 0.5517 0.6719 0.5484
C12_4 C 0.5205(2) 0.8339(9) 0.5290(5)
H10_4 H 0.5055 0.8052 0.5494
C13_4 C 0.51501(14) 0.9554(6) 0.5004(3)
C14_4 C 0.53937(18) 0.9920(7) 0.4749(4)
C15_4 C 0.56604(19) 0.9052(7) 0.4754(4)
H12_4 H 0.5822 0.9348 0.4573
C16_4 C 0.66019(15) 0.8601(6) 0.4882(3)
H13_4 H 0.6428 0.9015 0.4612
C17_4 C 0.69227(15) 0.9215(6) 0.5006(3)
C18_4 C 0.71840(14) 0.8626(5) 0.5418(2)
C19_4 C 0.71056(15) 0.7474(7) 0.5686(3)
H15_4 H 0.7271 0.7060 0.5971
C20_4 C 0.67807(15) 0.6941(7) 0.5529(3)
H16_4 H 0.6734 0.6166 0.5716
C21_4 C 0.70690(15) 0.3971(6) 0.4412(3)
H17_4 H 0.7030 0.3058 0.4490
C22_4 C 0.73956(15) 0.4430(6) 0.4545(3)
H18_4 H 0.7573 0.3832 0.4704
C23_4 C 0.75340(14) 0.9192(6) 0.5559(2)
C24_4 C 0.78139(15) 0.8376(6) 0.5788(3)
H19_4 H 0.7784 0.7449 0.5858
C25_4 C 0.68638(16) 0.6066(6) 0.4086(3)
H20_4 H 0.6680 0.6638 0.3929
C26_4 C 0.7219(2) 0.3653(7) 0.5855(3)
S6_4 S 0.90836(4) 0.94296(14) 0.59911(6)
N8_4 N 0.63870(15) 0.1278(5) 0.5917(2)
N14_4 N 0.84699(11) 0.7531(5) 0.4876(2)
H31_4 H 0.4620 0.9232 0.5431
C42_4 C 0.83981(15) 0.6399(6) 0.5118(3)
H33_4 H 0.8572 0.5985 0.5388
C43_4 C 0.80773(15) 0.5785(6) 0.4994(3)
H34_4 H 0.8039 0.4998 0.5183
C44_4 C 0.78160(14) 0.6374(5) 0.4582(2)
C45_4 C 0.78944(15) 0.7526(7) 0.4314(3)
H35_4 H 0.7729 0.7940 0.4029
C46_4 C 0.82193(15) 0.8059(7) 0.4471(3)
H36_4 H 0.8266 0.8834 0.4284
C49_4 C 0.74660(14) 0.5808(6) 0.4441(2)
C50_4 C 0.71861(15) 0.6624(6) 0.4212(3)
H39_4 H 0.7216 0.7551 0.4142
C51_4 C 0.81362(16) 0.8934(6) 0.5914(3)
H40_4 H 0.8320 0.8362 0.6071
H11_4 H 0.4620 0.0768 0.0431
H14_4 H 0.3039 0.0002 0.0183
S5_4 S 0.10779(4) 0.03820(15) 0.04943(6)
S8_4 S 0.26118(5) 0.0795(2) 0.11019(11)
N7_4 N 0.19454(14) 0.1721(6) 0.0688(2)
C37_4 C 0.5484(2) 0.2469(9) 0.0278(4)
H29_4 H 0.5517 0.3281 0.0484
C38_4 C 0.5205(2) 0.1661(9) 0.0290(5)
H30_4 H 0.5055 0.1948 0.0494
C39_4 C 0.51501(14) 0.0446(6) 0.0004(3)
C52_4 C 0.2219(2) 0.1347(7) 0.0855(3)
W2_4 W 0.089910(5) 0.11744(2) 0.960930(10)
Cu8_4 Cu 0.130640(18) 0.10410(7) 0.89129(3)
S7_4 S 0.12569(4) 0.28525(14) 0.94859(7)
O2_4 O 0.04913(11) 0.1817(5) 0.9481(2)
N10_4 N 0.13076(13) 0.1827(6) 0.8145(2)
N15_4 N 0.18004(11) 0.0251(5) 0.91760(19)
C40_4 C 0.53937(18) 0.0080(7) 0.9749(4)
C41_4 C 0.56604(19) 0.0948(7) 0.9754(4)
H32_4 H 0.5822 0.0652 0.9573
C47_4 C 0.20690(15) 0.1029(6) 0.9412(3)
H37_4 H 0.2030 0.1942 0.9490
C48_4 C 0.23956(15) 0.0570(6) 0.9545(3)
H38_4 H 0.2573 0.1168 0.9704
C27_4 C 0.60923(19) 0.1016(7) 0.6037(3)
H21_4 H 0.5900 0.1497 0.5844
C28_4 C 0.60581(18) 0.0048(7) 0.6440(3)
C31_4 C 0.66576(18) 0.0543(7) 0.6194(3)
H24_4 H 0.6865 0.0700 0.6113
H22_4 H 0.5847 0.9893 0.6508
C29_4 C 0.63425(17) 0.9323(7) 0.6736(3)
C30_4 C 0.66439(18) 0.9564(7) 0.6592(3)
H23_4 H 0.6838 0.9065 0.6763
C32_4 C 0.60426(18) 0.6958(8) 0.7718(3)
H25_4 H 0.5842 0.6512 0.7730
C33_4 C 0.60440(19) 0.7728(8) 0.7247(3)
H26_4 H 0.5848 0.7781 0.6954
C34_4 C 0.63295(17) 0.8405(7) 0.7211(3)
C35_4 C 0.6611(2) 0.8213(11) 0.7635(4)
H27_4 H 0.6818 0.8594 0.7618
C36_4 C 0.6588(2) 0.7442(11) 0.8094(4)
H28_4 H 0.6784 0.7349 0.8386
C1_4 C 0.10923(19) 0.6016(7) 0.6037(3)
H1_4 H 0.0900 0.6497 0.5844
C2_4 C 0.10581(18) 0.5048(7) 0.6440(3)
H2_4 H 0.0847 0.4893 0.6508
C3_4 C 0.13425(17) 0.4323(7) 0.6736(3)
C4_4 C 0.16439(18) 0.4564(7) 0.6592(3)
H3_4 H 0.1838 0.4065 0.6763
C5_4 C 0.16576(18) 0.5543(7) 0.6194(3)
H4_4 H 0.1865 0.5700 0.6113
C6_4 C 0.10426(18) 0.1958(8) 0.7718(3)
H5_4 H 0.0842 0.1512 0.7730
C7_4 C 0.10440(19) 0.2728(8) 0.7247(3)
H6_4 H 0.0848 0.2781 0.6954
C8_4 C 0.13295(17) 0.3405(7) 0.7211(3)
C9_4 C 0.1611(2) 0.3213(11) 0.7635(4)
H7_4 H 0.1818 0.3594 0.7618
C10_4 C 0.1588(2) 0.2442(11) 0.8094(4)
H8_4 H 0.1784 0.2349 0.8386
loop_
_geom_bond_atom_site_label_1
_geom_bond_atom_site_label_2
_geom_bond_site_symmetry_1
_geom_bond_site_symmetry_2
Cu9 N11 1_555 1_555
N11 C32 1_555 1_555
C30 C29 1_555 1_555
H23 C30 1_555 1_555
C32 H25 1_555 1_555
C33 C32 1_555 1_555
H26 C33 1_555 1_555
C34 C29 1_555 1_555
C35 C34 1_555 1_555
H27 C35 1_555 1_555
C36 N11 1_555 1_555
H28 C36 1_555 1_555
C33 C34 1_555 1_555
C35 C36 1_555 1_555
N2 Cu4 1_555 1_555
N4 Cu2 1_555 1_555
N5 Cu2 1_555 1_555
C11 N4 1_555 1_555
H9 C11 1_555 1_555
C12 C11 1_555 1_555
H10 C12 1_555 1_555
C13 C12 1_555 1_555
C14 C13 1_555 1_555
H11 C14 1_555 1_555
C15 N4 1_555 1_555
H12 C15 1_555 1_555
C16 N5 1_555 1_555
H13 C16 1_555 1_555
C17 C16 1_555 1_555
H14 C17 1_555 1_555
C18 C17 1_555 1_555
C19 C18 1_555 1_555
H15 C19 1_555 1_555
C20 N5 1_555 1_555
H16 C20 1_555 1_555
C23 C18 1_555 1_555
C24 C23 1_555 1_555
H19 C24 1_555 1_555
H20 C25 1_555 1_555
W2 Cu4 1_555 1_555
Cu4 S5 1_555 1_555
Cu6 W2 1_555 1_555
Cu8 W2 1_555 1_555
S5 W2 1_555 1_555
S6 W2 1_555 1_555
S7 W2 1_555 1_555
S8 C52 1_555 1_555
O2 W2 1_555 1_555
N7 Cu4 1_555 1_555
N10 Cu8 1_555 1_555
N12 Cu6 1_555 1_555
N14 Cu6 1_555 1_555
N15 Cu8 1_555 1_555
C27 N2 1_555 1_555
H21 C27 1_555 1_555
C28 C27 1_555 1_555
C31 N2 1_555 1_555
H24 C31 1_555 1_555
C42 N14 1_555 1_555
H33 C42 1_555 1_555
C43 C42 1_555 1_555
C44 C43 1_555 1_555
C45 C44 1_555 1_555
H35 C45 1_555 1_555
C46 N14 1_555 1_555
H36 C46 1_555 1_555
C47 N15 1_555 1_555
H37 C47 1_555 1_555
C48 C23 1_555 1_555
H38 C48 1_555 1_555
C50 C25 1_555 1_555
H39 C50 1_555 1_555
C51 C24 1_555 1_555
H40 C51 1_555 1_555
C52 N7 1_555 1_555
Cu2 S2 1_555 1_555
C14 C15 1_555 1_555
C19 C20 1_555 1_555
Cu4 S7 1_555 1_555
Cu6 S5 1_555 1_555
Cu6 S6 1_555 1_555
Cu8 S6 1_555 1_555
Cu8 S7 1_555 1_555
N15 C51 1_555 1_555
C44 C49 1_555 1_555
C45 C46 1_555 1_555
C47 C48 1_555 1_555
C49 C50 1_555 1_555
C37 H29 1_555 1_555
C38 C37 1_555 1_555
H30 C38 1_555 1_555
C38 C39 1_555 1_555
Cu7 N13 1_555 1_555
H31 C40 1_555 1_555
C41 N13 1_555 1_555
H32 C41 1_555 1_555
C40 C41 1_555 1_555
Cu3 W1 1_555 1_555
S3 W1 1_555 1_555
O1 W1 1_555 1_555
N3 Cu3 1_555 1_555
N6 Cu3 1_555 1_555
C1 H1 1_555 1_555
C2 C1 1_555 1_555
H2 C2 1_555 1_555
C3 C2 1_555 1_555
C4 C3 1_555 1_555
H3 C4 1_555 1_555
C5 C4 1_555 1_555
H4 C5 1_555 1_555
C6 N3 1_555 1_555
H5 C6 1_555 1_555
C7 C6 1_555 1_555
H6 C7 1_555 1_555
C8 C3 1_555 1_555
C9 C8 1_555 1_555
H7 C9 1_555 1_555
C10 N3 1_555 1_555
H8 C10 1_555 1_555
C21 N6 1_555 1_555
H17 C21 1_555 1_555
C22 C21 1_555 1_555
H18 C22 1_555 1_555
Cu5 N9 1_555 1_555
N9 C1 1_555 1_555
Cu3 S3 1_555 1_555
C5 N9 1_555 1_555
C7 C8 1_555 1_555
C9 C10 1_555 1_555
Cu1 S1 1_555 1_555
S4 C26 1_555 1_555
N1 Cu1 1_555 1_555
C26 N1 1_555 1_555
N8 Cu1 1_555 1_555
W2_2 Cu5 1_555 1_555
Cu5 S5_2 1_555 1_555
Cu8_2 W2_2 1_555 1_555
S5_2 W2_2 1_555 1_555
S7_2 W2_2 1_555 1_555
S8_2 C52_2 1_555 1_555
O2_2 W2_2 1_555 1_555
N7_2 Cu5 1_555 1_555
N10_2 Cu8_2 1_555 1_555
N12 C37_2 1_555 1_555
N15_2 Cu8_2 1_555 1_555
C37_2 H29_2 1_555 1_555
C38_2 C37_2 1_555 1_555
H30_2 C38_2 1_555 1_555
C40_2 C39_2 1_555 1_555
C41_2 N12 1_555 1_555
H32_2 C41_2 1_555 1_555
C47_2 N15_2 1_555 1_555
H37_2 C47_2 1_555 1_555
H38_2 C48_2 1_555 1_555
C52_2 N7_2 1_555 1_555
Cu5 S7_2 1_555 1_555
Cu8_2 S7_2 1_555 1_555
C38_2 C39_2 1_555 1_555
C40_2 C41_2 1_555 1_555
C47_2 C48_2 1_555 1_555
Cu2_2 W1_2 1_555 1_555
Cu9 W1_2 1_555 1_555
S2_2 W1_2 1_555 1_555
S3_2 W1_2 1_555 1_555
O1_2 W1_2 1_555 1_555
N4_2 Cu2_2 1_555 1_555
N6_2 Cu9 1_555 1_555
C15_2 N4_2 1_555 1_555
H12_2 C15_2 1_555 1_555
H13_2 C16_2 1_555 1_555
C21_2 N6_2 1_555 1_555
H17_2 C21_2 1_555 1_555
C22_2 C21_2 1_555 1_555
H18_2 C22_2 1_555 1_555
C25_2 N6_2 1_555 1_555
H20_2 C25_2 1_555 1_555
C44_2 C43_2 1_555 1_555
C45_2 C44_2 1_555 1_555
H35_2 C45_2 1_555 1_555
C46_2 N14_2 1_555 1_555
H36_2 C46_2 1_555 1_555
C49_2 C22_2 1_555 1_555
C50_2 C25_2 1_555 1_555
H39_2 C50_2 1_555 1_555
Cu2_2 S2_2 1_555 1_555
Cu9 S2_2 1_555 1_555
Cu9 S3_2 1_555 1_555
C14_2 C15_2 1_555 1_555
C44_2 C49_2 1_555 1_555
C45_2 C46_2 1_555 1_555
C49_2 C50_2 1_555 1_555
Cu1_2 S1_2 1_555 1_555
S4_2 C26_2 1_555 1_555
N1_2 Cu1_2 1_555 1_555
H9_2 C11_2 1_555 1_555
C12_2 C11_2 1_555 1_555
H10_2 C12_2 1_555 1_555
C13_2 C12_2 1_555 1_555
C18_2 C17_2 1_555 1_555
C19_2 C18_2 1_555 1_555
H15_2 C19_2 1_555 1_555
C20_2 N5_2 1_555 1_555
H16_2 C20_2 1_555 1_555
C23_2 C18_2 1_555 1_555
C24_2 C23_2 1_555 1_555
H19_2 C24_2 1_555 1_555
C26_2 N1_2 1_555 1_555
N8_2 Cu1_2 1_555 1_555
H33_2 C42_2 1_555 1_555
C51_2 C24_2 1_555 1_555
H40_2 C51_2 1_555 1_555
C19_2 C20_2 1_555 1_555
Cu7 S6_2 1_555 1_555
C1_2 H1_2 1_555 1_555
C2_2 C1_2 1_555 1_555
H2_2 C2_2 1_555 1_555
C3_2 C2_2 1_555 1_555
C4_2 C3_2 1_555 1_555
H3_2 C4_2 1_555 1_555
C5_2 C4_2 1_555 1_555
H4_2 C5_2 1_555 1_555
C6_2 N10_2 1_555 1_555
H5_2 C6_2 1_555 1_555
C7_2 C6_2 1_555 1_555
H6_2 C7_2 1_555 1_555
C8_2 C3_2 1_555 1_555
C9_2 C8_2 1_555 1_555
H7_2 C9_2 1_555 1_555
C10_2 N10_2 1_555 1_555
H8_2 C10_2 1_555 1_555
N8 C1_2 1_555 1_555
C5_2 N8 1_555 1_555
C7_2 C8_2 1_555 1_555
C9_2 C10_2 1_555 1_555
C27_2 N8_2 1_555 1_555
H21_2 C27_2 1_555 1_555
C28_2 C27_2 1_555 1_555
C31_2 N8_2 1_555 1_555
H24_2 C31_2 1_555 1_555
N10 C32_2 1_555 1_555
C30_2 C29_2 1_555 1_555
H23_2 C30_2 1_555 1_555
C32_2 H25_2 1_555 1_555
C33_2 C32_2 1_555 1_555
H26_2 C33_2 1_555 1_555
C34_2 C29_2 1_555 1_555
C35_2 C34_2 1_555 1_555
H27_2 C35_2 1_555 1_555
C36_2 N10 1_555 1_555
H28_2 C36_2 1_555 1_555
C33_2 C34_2 1_555 1_555
C35_2 C36_2 1_555 1_555
W1_3 Cu1_3 1_555 1_555
Cu1_3 S1_3 1_555 1_555
Cu3_2 W1_3 1_555 1_555
S1_3 W1_3 1_555 1_555
S3_3 W1_3 1_555 1_555
S4_3 C26_3 1_555 1_555
O1_3 W1_3 1_555 1_555
N1_3 Cu1_3 1_555 1_555
N3_2 Cu3_2 1_555 1_555
N6_3 Cu3_2 1_555 1_555
C1_3 H1_3 1_555 1_555
C2_3 C1_3 1_555 1_555
H2_3 C2_3 1_555 1_555
C3_3 C2_3 1_555 1_555
C4_3 C3_3 1_555 1_555
H3_3 C4_3 1_555 1_555
C5_3 C4_3 1_555 1_555
H4_3 C5_3 1_555 1_555
C6_3 N3_2 1_555 1_555
H5_3 C6_3 1_555 1_555
C7_3 C6_3 1_555 1_555
H6_3 C7_3 1_555 1_555
C8_3 C3_3 1_555 1_555
C9_3 C8_3 1_555 1_555
H7_3 C9_3 1_555 1_555
C10_3 N3_2 1_555 1_555
H8_3 C10_3 1_555 1_555
C21_3 N6_3 1_555 1_555
H17_3 C21_3 1_555 1_555
C22_3 C21_3 1_555 1_555
H18_3 C22_3 1_555 1_555
C26_3 N1_3 1_555 1_555
Cu5_2 N9_2 1_555 1_555
N8_3 Cu1_3 1_555 1_555
N9_2 C1_3 1_555 1_555
Cu1_3 S3_3 1_555 1_555
Cu3_2 S3_3 1_555 1_555
C5_3 N9_2 1_555 1_555
C7_3 C8_3 1_555 1_555
C9_3 C10_3 1_555 1_555
Cu7_2 N13_2 1_555 1_555
N13_2 C37_3 1_555 1_555
C37_3 H29_3 1_555 1_555
C38_3 C37_3 1_555 1_555
H30_3 C38_3 1_555 1_555
C40_3 C39_3 1_555 1_555
H31_3 C40_3 1_555 1_555
C41_3 N13_2 1_555 1_555
H32_3 C41_3 1_555 1_555
C38_3 C39_3 1_555 1_555
C40_3 C41_3 1_555 1_555
Cu9_2 N11_2 1_555 1_555
N11_2 C32_3 1_555 1_555
C30_3 C29_3 1_555 1_555
H23_3 C30_3 1_555 1_555
C32_3 H25_3 1_555 1_555
C33_3 C32_3 1_555 1_555
H26_3 C33_3 1_555 1_555
C34_3 C29_3 1_555 1_555
C35_3 C34_3 1_555 1_555
H27_3 C35_3 1_555 1_555
C36_3 N11_2 1_555 1_555
H28_3 C36_3 1_555 1_555
C33_3 C34_3 1_555 1_555
C35_3 C36_3 1_555 1_555
N2_2 Cu4_2 1_555 1_555
N4_3 Cu2_3 1_555 1_555
H11_3 C14_3 1_555 1_555
C15_3 N4_3 1_555 1_555
H12_3 C15_3 1_555 1_555
H13_3 C16_3 1_555 1_555
H20_3 C25_3 1_555 1_555
Cu4_2 S5_3 1_555 1_555
S8_3 C52_3 1_555 1_555
N7_3 Cu4_2 1_555 1_555
C27_3 N2_2 1_555 1_555
H21_3 C27_3 1_555 1_555
C28_3 C27_3 1_555 1_555
C31_3 N2_2 1_555 1_555
H24_3 C31_3 1_555 1_555
C44_3 C43_3 1_555 1_555
C45_3 C44_3 1_555 1_555
H35_3 C45_3 1_555 1_555
C46_3 N14_3 1_555 1_555
H36_3 C46_3 1_555 1_555
C50_3 C25_3 1_555 1_555
H39_3 C50_3 1_555 1_555
C52_3 N7_3 1_555 1_555
Cu2_3 S2_3 1_555 1_555
C14_3 C15_3 1_555 1_555
C44_3 C49_3 1_555 1_555
C45_3 C46_3 1_555 1_555
C49_3 C50_3 1_555 1_555
H9_3 C11_3 1_555 1_555
C12_3 C11_3 1_555 1_555
H10_3 C12_3 1_555 1_555
C13_3 C12_3 1_555 1_555
C18_3 C17_3 1_555 1_555
C19_3 C18_3 1_555 1_555
H15_3 C19_3 1_555 1_555
C20_3 N5_3 1_555 1_555
H16_3 C20_3 1_555 1_555
C23_3 C18_3 1_555 1_555
C24_3 C23_3 1_555 1_555
H19_3 C24_3 1_555 1_555
Cu6_2 W2_3 1_555 1_555
Cu8_3 W2_3 1_555 1_555
S6_3 W2_3 1_555 1_555
S7_3 W2_3 1_555 1_555
O2_3 W2_3 1_555 1_555
N10_3 Cu8_3 1_555 1_555
N12_2 Cu6_2 1_555 1_555
N15_3 Cu8_3 1_555 1_555
H33_3 C42_3 1_555 1_555
C47_3 N15_3 1_555 1_555
H37_3 C47_3 1_555 1_555
C48_3 C23_3 1_555 1_555
H38_3 C48_3 1_555 1_555
C51_3 C24_3 1_555 1_555
H40_3 C51_3 1_555 1_555
C19_3 C20_3 1_555 1_555
Cu6_2 S6_3 1_555 1_555
Cu8_3 S6_3 1_555 1_555
Cu8_3 S7_3 1_555 1_555
N15_3 C51_3 1_555 1_555
C47_3 C48_3 1_555 1_555
W1_4 Cu1_4 1_555 1_555
Cu1_4 S1_4 1_555 1_555
Cu2_4 W1_4 1_555 1_555
Cu9_2 W1_4 1_555 1_555
S1_4 W1_4 1_555 1_555
S2_4 W1_4 1_555 1_555
S3_4 W1_4 1_555 1_555
S4_4 C26_4 1_555 1_555
O1_4 W1_4 1_555 1_555
N1_4 Cu1_4 1_555 1_555
N4_4 Cu2_4 1_555 1_555
N5_4 Cu2_4 1_555 1_555
N6_4 Cu9_2 1_555 1_555
C11_4 N4_4 1_555 1_555
H9_4 C11_4 1_555 1_555
C12_4 C11_4 1_555 1_555
H10_4 C12_4 1_555 1_555
C13_4 C12_4 1_555 1_555
C14_4 C13_4 1_555 1_555
C15_4 N4_4 1_555 1_555
H12_4 C15_4 1_555 1_555
C16_4 N5_4 1_555 1_555
H13_4 C16_4 1_555 1_555
C17_4 C16_4 1_555 1_555
C18_4 C17_4 1_555 1_555
C19_4 C18_4 1_555 1_555
H15_4 C19_4 1_555 1_555
C20_4 N5_4 1_555 1_555
H16_4 C20_4 1_555 1_555
C21_4 N6_4 1_555 1_555
H17_4 C21_4 1_555 1_555
C22_4 C21_4 1_555 1_555
H18_4 C22_4 1_555 1_555
C23_4 C18_4 1_555 1_555
C24_4 C23_4 1_555 1_555
H19_4 C24_4 1_555 1_555
C25_4 N6_4 1_555 1_555
H20_4 C25_4 1_555 1_555
C26_4 N1_4 1_555 1_555
N8_4 Cu1_4 1_555 1_555
N14_4 Cu7_2 1_555 1_555
C42_4 N14_4 1_555 1_555
H33_4 C42_4 1_555 1_555
C43_4 C42_4 1_555 1_555
H34_4 C43_4 1_555 1_555
C44_4 C43_4 1_555 1_555
C45_4 C44_4 1_555 1_555
H35_4 C45_4 1_555 1_555
C46_4 N14_4 1_555 1_555
H36_4 C46_4 1_555 1_555
C49_4 C22_4 1_555 1_555
C50_4 C25_4 1_555 1_555
H39_4 C50_4 1_555 1_555
C51_4 C24_4 1_555 1_555
H40_4 C51_4 1_555 1_555
Cu1_4 S3_4 1_555 1_555
Cu2_4 S1_4 1_555 1_555
Cu2_4 S2_4 1_555 1_555
Cu9_2 S2_4 1_555 1_555
Cu9_2 S3_4 1_555 1_555
C14_4 C15_4 1_555 1_555
C19_4 C20_4 1_555 1_555
Cu7_2 S6_4 1_555 1_555
C44_4 C49_4 1_555 1_555
C45_4 C46_4 1_555 1_555
C49_4 C50_4 1_555 1_555
Cu5_2 S5_4 1_555 1_555
S8_4 C52_4 1_555 1_555
N7_4 Cu5_2 1_555 1_555
C37_4 H29_4 1_555 1_555
C38_4 C37_4 1_555 1_555
H30_4 C38_4 1_555 1_555
C52_4 N7_4 1_555 1_555
C38_4 C39_4 1_555 1_555
Cu8_4 W2_4 1_555 1_555
S7_4 W2_4 1_555 1_555
O2_4 W2_4 1_555 1_555
N10_4 Cu8_4 1_555 1_555
N15_4 Cu8_4 1_555 1_555
C41_4 N12_2 1_555 1_555
H32_4 C41_4 1_555 1_555
C47_4 N15_4 1_555 1_555
H37_4 C47_4 1_555 1_555
H38_4 C48_4 1_555 1_555
Cu8_4 S7_4 1_555 1_555
C40_4 C41_4 1_555 1_555
C47_4 C48_4 1_555 1_555
C27_4 N8_4 1_555 1_555
H21_4 C27_4 1_555 1_555
C28_4 C27_4 1_555 1_555
C31_4 N8_4 1_555 1_555
H24_4 C31_4 1_555 1_555
N10_3 C32_4 1_555 1_555
C30_4 C29_4 1_555 1_555
H23_4 C30_4 1_555 1_555
C32_4 H25_4 1_555 1_555
C33_4 C32_4 1_555 1_555
H26_4 C33_4 1_555 1_555
C34_4 C29_4 1_555 1_555
C35_4 C34_4 1_555 1_555
H27_4 C35_4 1_555 1_555
C36_4 N10_3 1_555 1_555
H28_4 C36_4 1_555 1_555
C33_4 C34_4 1_555 1_555
C35_4 C36_4 1_555 1_555
C1_4 H1_4 1_555 1_555
C2_4 C1_4 1_555 1_555
H2_4 C2_4 1_555 1_555
C3_4 C2_4 1_555 1_555
C4_4 C3_4 1_555 1_555
H3_4 C4_4 1_555 1_555
C5_4 C4_4 1_555 1_555
H4_4 C5_4 1_555 1_555
C6_4 N10_4 1_555 1_555
H5_4 C6_4 1_555 1_555
C7_4 C6_4 1_555 1_555
H6_4 C7_4 1_555 1_555
C8_4 C3_4 1_555 1_555
C9_4 C8_4 1_555 1_555
H7_4 C9_4 1_555 1_555
C10_4 N10_4 1_555 1_555
H8_4 C10_4 1_555 1_555
N8_3 C1_4 1_555 1_555
C5_4 N8_3 1_555 1_555
C7_4 C8_4 1_555 1_555
C9_4 C10_4 1_555 1_555

#END
