
###############################################################################
#
# This file contains modified crystal structure data generated from the
# MOF subset of the Cambridge Structural Database (CSD) v543 
# hosted by the Cambridge Crystallographic Data Centre (CCDC).
#
# This work is licensed under the Creative Commons
# Attribution-NonCommercial-ShareAlike 4.0 International License.
# To view a copy of this license, visit
# http://creativecommons.org/licenses/by-nc-sa/4.0/
# or send a letter to
# Creative Commons, PO Box 1866, Mountain View, CA 94042, USA.
#
# CIF created using the CSD Python API on 29 September 2022
# The structure has been converted into the P1 space group
# The structure has a 3D framework
# The original CSD entry EXACAI is in the orthorhombic crystal system
# The original CSD entry EXACAI is in a Sohncke space group
# The framework has been calculated to contain at least 10.0% void space
# The void calculation uses a probe of radius 1.32A, grid spacing 0.4
#
###############################################################################

data_EXACAI
_chemical_formula_moiety         '(C112 H146 Eu8 O55)n'
_symmetry_cell_setting           triclinic
_symmetry_space_group_name_H-M   'P 1'
_symmetry_Int_Tables_number      1
_space_group_name_Hall           'P 1'
loop_
_symmetry_equiv_pos_site_id
_symmetry_equiv_pos_as_xyz
1 x,y,z
_cell_length_a                   12.957(4)
_cell_length_b                   14.192(4)
_cell_length_c                   19.006(5)
_cell_angle_alpha                90
_cell_angle_beta                 90
_cell_angle_gamma                90
_cell_volume                     3494.93
loop_
_atom_site_label
_atom_site_type_symbol
_atom_site_fract_x
_atom_site_fract_y
_atom_site_fract_z
C1 C 0.0130(4) 0.0953(3) 0.8278(3)
H1 H 0.0000 0.0684 0.8745
C2 C 0.1225(5) 0.0702(4) 0.8074(3)
H2 H 0.1245 0.0472 0.7593
H3 H 0.1490 0.0212 0.8381
C3 C 0.1880(5) 0.1595(4) 0.8144(3)
H4 H 0.2006 0.1875 0.7686
H5 H 0.2538 0.1455 0.8363
C4 C 0.1237(5) 0.2262(4) 0.8609(3)
C5 C 0.0104(4) 0.2062(4) 0.8353(3)
C7 C 0.1536(4) 0.3303(4) 0.8510(3)
C8 C 0.1387(6) 0.1995(5) 0.9381(3)
H6 H 0.2086 0.2124 0.9518
H7 H 0.1245 0.1337 0.9442
H8 H 0.0924 0.2358 0.9668
H11 H 0.0441 0.2361 0.7310
O3 O 0.1319(3) 0.3905(3) 0.8968(2)
O4 O 0.1996(4) 0.3568(3) 0.7960(2)
Eu5 Eu 0.22768(2) 0.520475(16) 0.828096(12)
Eu2 Eu 0.77232(2) 0.020475(16) 0.671904(12)
H1_2 H 1.0000 0.0684 0.8745
C6 C 0.9319(4) 0.0565(4) 0.7784(3)
C9 C 0.9903(7) 0.2533(5) 0.7633(4)
H9 H 0.9893 0.3205 0.7689
H10 H 0.9250 0.2325 0.7451
C10 C 0.9284(5) 0.2382(5) 0.8866(4)
H12 H 0.9292 0.3057 0.8898
H13 H 0.9420 0.2116 0.9321
H14 H 0.8619 0.2176 0.8704
C18 C 0.4290(5) 0.0057(5) 0.6781(4)
H20 H 0.4280 0.0679 0.6981
H22 H 0.4836 0.0015 0.6441
O1 O 0.8431(3) 0.0326(3) 0.80171(19)
O2 O 0.9482(3) 0.0474(3) 0.7138(2)
O14 O 0.6172(4) 0.1003(3) 0.9632(2)
H36 H 0.601(5) 0.153(2) 0.9458(16)
O17 O 0.6699(4) 0.1469(3) 0.8346(2)
O18 O 0.7132(4) 0.1633(3) 0.72160(19)
O19 O 0.8460(4) 0.1228(3) 0.5910(2)
O20 O 0.8463(3) 0.0184(3) 0.96422(18)
O21 O 0.6568(3) 0.0113(3) 0.57896(18)
C21 C 0.5622(4) 0.7733(4) 0.0174(3)
C25 C 0.4806(5) 0.6327(4) 0.0612(3)
H31 H 0.4684 0.5914 0.0983
C26 C 0.5420(5) 0.7106(4) 0.0712(3)
H32 H 0.5707 0.7213 0.1153
C27 C 0.6301(5) 0.8571(4) 0.0292(3)
O9 O 0.6540(4) 0.8772(3) 0.0910(2)
O11 O 0.3463(3) 0.4816(3) 0.03578(18)
Eu4 Eu 0.211517(19) 0.500341(17) 0.115718(12)
Eu7 Eu 0.72768(2) 0.979525(16) 0.171904(12)
Eu1 Eu 0.711517(19) 0.999659(17) 0.884282(12)
C11 C 0.4472(5) 0.9333(4) 0.7365(3)
C12 C 0.3568(5) 0.9337(6) 0.7885(4)
H15 H 0.3821 0.9239 0.8359
H16 H 0.3219 0.9941 0.7869
C13 C 0.2855(7) 0.8594(5) 0.7698(5)
H17 H 0.2209 0.8863 0.7536
H18 H 0.2713 0.8204 0.8106
C14 C 0.3329(5) 0.8007(4) 0.7125(4)
H19 H 0.3004 0.8203 0.6683
C15 C 0.4491(5) 0.8286(4) 0.7072(3)
C16 C 0.5476(4) 0.9569(4) 0.7738(3)
C17 C 0.3143(4) 0.6957(4) 0.7197(3)
H21 H 0.3641 0.9932 0.6557
C19 C 0.5138(7) 0.7643(5) 0.7539(5)
H23 H 0.5140 0.7018 0.7347
H24 H 0.4849 0.7630 0.8004
H25 H 0.5833 0.7877 0.7561
C20 C 0.4925(7) 0.8193(5) 0.6337(4)
H26 H 0.4912 0.7543 0.6197
H27 H 0.5624 0.8418 0.6330
H28 H 0.4515 0.8558 0.6016
C22 C 0.5178(5) 0.7564(5) 0.9522(3)
H29 H 0.5304 0.7979 0.9153
C23 C 0.4560(6) 0.6802(4) 0.9411(3)
H30 H 0.4265 0.6711 0.8970
C24 C 0.4362(4) 0.6155(4) 0.9948(3)
C28 C 0.3716(4) 0.5319(4) 0.9823(3)
O5 O 0.6297(3) 0.9721(3) 0.7396(2)
O6 O 0.5474(3) 0.9603(3) 0.8395(2)
O7 O 0.3301(4) 0.6469(3) 0.6654(2)
O8 O 0.2868(4) 0.6633(3) 0.77840(19)
O10 O 0.6608(4) 0.9013(3) 0.9757(2)
O12 O 0.3432(3) 0.5113(3) 0.92104(18)
O13 O 0.7611(4) 0.8483(2) 0.8432(2)
H33 H 0.7628 0.8012 0.8708
H34 H 0.8056 0.8431 0.8106
Eu3 Eu 0.288483(19) 0.499659(17) 0.615718(12)
O15 O 0.8681(3) 0.8905(3) 0.6032(2)
O16 O 0.8004(4) 0.8568(3) 0.7040(2)
C11_2 C 0.0528(5) 0.0667(4) 0.2365(3)
C12_2 C 0.1432(5) 0.0663(6) 0.2885(4)
H15_2 H 0.1179 0.0761 0.3359
H16_2 H 0.1781 0.0059 0.2869
C13_2 C 0.2145(7) 0.1406(5) 0.2698(5)
H17_2 H 0.2791 0.1137 0.2536
H18_2 H 0.2287 0.1796 0.3106
C14_2 C 0.1671(5) 0.1993(4) 0.2125(4)
H19_2 H 0.1996 0.1797 0.1683
C15_2 C 0.0509(5) 0.1714(4) 0.2072(3)
C17_2 C 0.1857(4) 0.3043(4) 0.2197(3)
H21_2 H 0.1359 0.0068 0.1557
H24_2 H 0.0151 0.2370 0.3004
C20_2 C 0.0075(7) 0.1807(5) 0.1337(4)
H26_2 H 0.0088 0.2457 0.1197
H28_2 H 0.0485 0.1442 0.1016
C23_2 C 0.0440(6) 0.3198(4) 0.4411(3)
H30_2 H 0.0735 0.3289 0.3970
C24_2 C 0.0638(4) 0.3845(4) 0.4948(3)
C25_2 C 0.0194(5) 0.3673(4) 0.5612(3)
H31_2 H 0.0316 0.4086 0.5983
C28_2 C 0.1284(4) 0.4681(4) 0.4823(3)
O7_2 O 0.1699(4) 0.3531(3) 0.1654(2)
O8_2 O 0.2132(4) 0.3367(3) 0.27840(19)
O11_2 O 0.1537(3) 0.5184(3) 0.53578(18)
O12_2 O 0.1568(3) 0.4887(3) 0.42104(18)
Eu6 Eu 0.27232(2) 0.479525(16) 0.328096(12)
Eu1_2 Eu 0.788483(19) 0.000341(17) 0.384282(12)
C16_2 C 0.9524(4) 0.0431(4) 0.2738(3)
C19_2 C 0.9862(7) 0.2357(5) 0.2539(5)
H23_2 H 0.9860 0.2982 0.2347
H25_2 H 0.9167 0.2123 0.2561
H27_2 H 0.9376 0.1582 0.1330
C21_2 C 0.9378(4) 0.2267(4) 0.5174(3)
C22_2 C 0.9822(5) 0.2436(5) 0.4522(3)
H29_2 H 0.9696 0.2021 0.4153
C26_2 C 0.9580(5) 0.2894(4) 0.5712(3)
H32_2 H 0.9293 0.2787 0.6153
C27_2 C 0.8699(5) 0.1429(4) 0.5292(3)
O5_2 O 0.8703(3) 0.0279(3) 0.2396(2)
O6_2 O 0.9526(3) 0.0397(3) 0.3395(2)
O10_2 O 0.8392(4) 0.0987(3) 0.4757(2)
O13_2 O 0.7389(4) 0.1517(2) 0.3432(2)
H33_2 H 0.7372 0.1988 0.3708
H34_2 H 0.6944 0.1569 0.3106
O15_2 O 0.6319(3) 0.1095(3) 0.1032(2)
O16_2 O 0.6996(4) 0.1432(3) 0.2040(2)
C1_2 C 0.4870(4) 0.9047(3) 0.3278(3)
H1_3 H 0.5000 0.9316 0.3745
C2_2 C 0.3775(5) 0.9298(4) 0.3074(3)
H2_2 H 0.3755 0.9528 0.2593
H3_2 H 0.3510 0.9788 0.3381
C3_2 C 0.3120(5) 0.8405(4) 0.3144(3)
H4_2 H 0.2994 0.8125 0.2686
H5_2 H 0.2462 0.8545 0.3363
C4_2 C 0.3763(5) 0.7738(4) 0.3609(3)
C5_2 C 0.4896(4) 0.7938(4) 0.3353(3)
C6_2 C 0.5681(4) 0.9435(4) 0.2784(3)
C7_2 C 0.3464(4) 0.6697(4) 0.3510(3)
C8_2 C 0.3613(6) 0.8005(5) 0.4381(3)
H6_2 H 0.2914 0.7876 0.4518
H7_2 H 0.3755 0.8663 0.4442
H8_2 H 0.4076 0.7642 0.4668
C9_2 C 0.5097(7) 0.7467(5) 0.2633(4)
H9_2 H 0.5107 0.6795 0.2689
H10_2 H 0.5750 0.7675 0.2451
H11_2 H 0.4559 0.7639 0.2310
C10_2 C 0.5716(5) 0.7618(5) 0.3866(4)
H12_2 H 0.5708 0.6943 0.3898
H13_2 H 0.5580 0.7884 0.4321
H14_2 H 0.6381 0.7824 0.3704
O1_2 O 0.6569(3) 0.9674(3) 0.30171(19)
O2_2 O 0.5518(3) 0.9526(3) 0.2138(2)
O3_2 O 0.3681(3) 0.6095(3) 0.3968(2)
O4_2 O 0.3004(4) 0.6432(3) 0.2960(2)
O14_2 O 0.8828(4) 0.8997(3) 0.4632(2)
H35 H 0.862(6) 0.893(4) 0.5052(15)
H36_2 H 0.899(5) 0.847(2) 0.4458(16)
O17_2 O 0.8301(4) 0.8531(3) 0.3346(2)
O18_2 O 0.7868(4) 0.8367(3) 0.22160(19)
O20_2 O 0.6537(3) 0.9816(3) 0.46422(18)
O21_2 O 0.8432(3) 0.9887(3) 0.07896(18)
H1_4 H -0.0000 0.5684 0.6255
C6_3 C 0.0681(4) 0.5565(4) 0.7216(3)
C9_3 C 0.0097(7) 0.7533(5) 0.7367(4)
H9_3 H 0.0107 0.8205 0.7311
H10_3 H 0.0750 0.7325 0.7549
C10_3 C 0.0716(5) 0.7382(5) 0.6134(4)
H12_3 H 0.0708 0.8057 0.6102
H13_3 H 0.0580 0.7116 0.5679
H14_3 H 0.1381 0.7176 0.6296
C11_3 C 0.5528(5) 0.4333(4) 0.7635(3)
C12_3 C 0.6432(5) 0.4337(6) 0.7115(4)
H15_3 H 0.6179 0.4239 0.6641
H16_3 H 0.6781 0.4941 0.7131
C13_3 C 0.7145(7) 0.3594(5) 0.7302(5)
H17_3 H 0.7791 0.3863 0.7464
H18_3 H 0.7287 0.3204 0.6894
C14_3 C 0.6671(5) 0.3007(4) 0.7875(4)
H19_3 H 0.6996 0.3203 0.8317
C15_3 C 0.5509(5) 0.3286(4) 0.7928(3)
C16_3 C 0.4524(4) 0.4569(4) 0.7262(3)
C17_3 C 0.6857(4) 0.1957(4) 0.7803(3)
C18_2 C 0.5710(5) 0.5057(5) 0.8219(4)
H20_2 H 0.5720 0.5679 0.8019
H21_3 H 0.6359 0.4932 0.8443
H22_2 H 0.5164 0.5015 0.8559
C19_3 C 0.4862(7) 0.2643(5) 0.7461(5)
H23_3 H 0.4860 0.2018 0.7653
H24_3 H 0.5151 0.2630 0.6996
H25_3 H 0.4167 0.2877 0.7439
C20_3 C 0.5075(7) 0.3193(5) 0.8663(4)
H26_3 H 0.5088 0.2543 0.8803
H27_3 H 0.4376 0.3418 0.8670
H28_3 H 0.5485 0.3558 0.8984
C21_3 C 0.4378(4) 0.2733(4) 0.4826(3)
C22_3 C 0.4822(5) 0.2564(5) 0.5478(3)
H29_3 H 0.4696 0.2979 0.5847
C23_3 C 0.5440(6) 0.1802(4) 0.5589(3)
H30_3 H 0.5735 0.1711 0.6030
C24_3 C 0.5638(4) 0.1155(4) 0.5052(3)
C25_3 C 0.5194(5) 0.1327(4) 0.4388(3)
H31_3 H 0.5316 0.0914 0.4017
C26_3 C 0.4580(5) 0.2106(4) 0.4288(3)
H32_3 H 0.4293 0.2213 0.3847
C27_3 C 0.3699(5) 0.3571(4) 0.4708(3)
C28_3 C 0.6284(4) 0.0319(4) 0.5177(3)
O1_3 O 0.1569(3) 0.5326(3) 0.69829(19)
O2_3 O 0.0518(3) 0.5474(3) 0.7862(2)
O5_3 O 0.3703(3) 0.4721(3) 0.7604(2)
O6_3 O 0.4526(3) 0.4603(3) 0.6605(2)
O9_2 O 0.3460(4) 0.3772(3) 0.4090(2)
O10_3 O 0.3392(4) 0.4013(3) 0.5243(2)
O13_3 O 0.2389(4) 0.3483(2) 0.6568(2)
H33_3 H 0.2372 0.3012 0.6292
H34_3 H 0.1944 0.3431 0.6894
O14_3 O 0.3828(4) 0.6003(3) 0.5368(2)
H35_2 H 0.362(6) 0.607(4) 0.4948(15)
H36_3 H 0.399(5) 0.653(2) 0.5542(16)
O19_2 O 0.1540(4) 0.6228(3) 0.9090(2)
C1_3 C 0.9870(4) 0.5953(3) 0.6722(3)
H1_5 H 1.0000 0.5684 0.6255
C2_3 C 0.8775(5) 0.5702(4) 0.6926(3)
H2_3 H 0.8755 0.5472 0.7407
H3_3 H 0.8510 0.5212 0.6619
C3_3 C 0.8120(5) 0.6595(4) 0.6856(3)
H4_3 H 0.7994 0.6875 0.7314
H5_3 H 0.7462 0.6455 0.6637
C4_3 C 0.8763(5) 0.7262(4) 0.6391(3)
C5_3 C 0.9896(4) 0.7062(4) 0.6647(3)
C7_3 C 0.8464(4) 0.8303(4) 0.6490(3)
C8_3 C 0.8613(6) 0.6995(5) 0.5619(3)
H6_3 H 0.7914 0.7124 0.5482
H7_3 H 0.8755 0.6337 0.5558
H8_3 H 0.9076 0.7358 0.5332
H11_3 H 0.9559 0.7361 0.7690
C1_4 C 0.5130(4) 0.4047(3) 0.1722(3)
H1_6 H 0.5000 0.4316 0.1255
C2_4 C 0.6225(5) 0.4298(4) 0.1926(3)
H2_4 H 0.6245 0.4528 0.2407
H3_4 H 0.6490 0.4788 0.1619
C3_4 C 0.6880(5) 0.3405(4) 0.1856(3)
H4_4 H 0.7006 0.3125 0.2314
H5_4 H 0.7538 0.3545 0.1637
C4_4 C 0.6237(5) 0.2738(4) 0.1391(3)
C5_4 C 0.5104(4) 0.2938(4) 0.1647(3)
C6_4 C 0.4319(4) 0.4435(4) 0.2216(3)
C7_4 C 0.6536(4) 0.1697(4) 0.1490(3)
C8_4 C 0.6387(6) 0.3005(5) 0.0619(3)
H6_4 H 0.7086 0.2876 0.0482
H7_4 H 0.6245 0.3663 0.0558
H8_4 H 0.5924 0.2642 0.0332
C9_4 C 0.4903(7) 0.2467(5) 0.2367(4)
H9_4 H 0.4893 0.1795 0.2311
H10_4 H 0.4250 0.2675 0.2549
H11_4 H 0.5441 0.2639 0.2690
C10_4 C 0.4284(5) 0.2618(5) 0.1134(4)
H12_4 H 0.4292 0.1943 0.1102
H13_4 H 0.4420 0.2884 0.0679
H14_4 H 0.3619 0.2824 0.1296
C16_4 C 0.0476(4) 0.5431(4) 0.2262(3)
C19_4 C 0.0138(7) 0.7357(5) 0.2461(5)
H23_4 H 0.0140 0.7982 0.2653
H25_4 H 0.0833 0.7123 0.2439
H27_4 H 0.0624 0.6582 0.3670
C22_4 C 0.0178(5) 0.7436(5) 0.0478(3)
H29_4 H 0.0304 0.7021 0.0847
O1_4 O 0.3431(3) 0.4674(3) 0.19829(19)
O2_4 O 0.4482(3) 0.4526(3) 0.2862(2)
O5_4 O 0.1297(3) 0.5279(3) 0.2604(2)
O6_4 O 0.0474(3) 0.5397(3) 0.1605(2)
O10_4 O 0.1608(4) 0.5987(3) 0.0243(2)
O13_4 O 0.2611(4) 0.6517(2) 0.1568(2)
H33_4 H 0.2628 0.6988 0.1292
H34_4 H 0.3056 0.6569 0.1894
O14_4 O 0.1172(4) 0.3997(3) 0.0368(2)
H36_4 H 0.101(5) 0.347(2) 0.0542(16)
C21_4 C 0.0622(4) 0.7267(4) 0.9826(3)
C26_4 C 0.0420(5) 0.7894(4) 0.9288(3)
H32_4 H 0.0707 0.7787 0.8847
C27_4 C 0.1301(5) 0.6429(4) 0.9708(3)
H35_3 H 0.138(6) 0.393(4) 0.9948(15)
C11_4 C 0.9472(5) 0.5667(4) 0.2635(3)
C12_4 C 0.8568(5) 0.5663(6) 0.2115(4)
H15_4 H 0.8821 0.5761 0.1641
H16_4 H 0.8219 0.5059 0.2131
C13_4 C 0.7855(7) 0.6406(5) 0.2302(5)
H17_4 H 0.7209 0.6137 0.2464
H18_4 H 0.7713 0.6796 0.1894
C14_4 C 0.8329(5) 0.6993(4) 0.2875(4)
H19_4 H 0.8004 0.6797 0.3317
C15_4 C 0.9491(5) 0.6714(4) 0.2928(3)
C17_4 C 0.8143(4) 0.8043(4) 0.2803(3)
C18_3 C 0.9290(5) 0.4943(5) 0.3219(4)
H20_3 H 0.9280 0.4321 0.3019
H21_4 H 0.8641 0.5068 0.3443
H22_3 H 0.9836 0.4985 0.3559
H24_4 H 0.9849 0.7370 0.1996
C20_4 C 0.9925(7) 0.6807(5) 0.3663(4)
H26_4 H 0.9912 0.7457 0.3803
H28_4 H 0.9515 0.6442 0.3984
C23_4 C 0.9560(6) 0.8198(4) 0.0589(3)
H30_4 H 0.9265 0.8289 0.1030
C24_4 C 0.9362(4) 0.8845(4) 0.0052(3)
C28_4 C 0.8716(4) 0.9681(4) 0.0177(3)
C25_4 C 0.9806(5) 0.8673(4) 0.9388(3)
H31_4 H 0.9684 0.9086 0.9017
H35_4 H 0.638(6) 0.107(4) 0.0052(15)
C18_4 C 0.0710(5) 0.9943(5) 0.1781(4)
H20_4 H 0.0720 0.9321 0.1981
H22_4 H 0.0164 0.9985 0.1441
loop_
_geom_bond_atom_site_label_1
_geom_bond_atom_site_label_2
_geom_bond_site_symmetry_1
_geom_bond_site_symmetry_2
C1 H1 1_555 1_555
C2 C1 1_555 1_555
H2 C2 1_555 1_555
H3 C2 1_555 1_555
C3 C2 1_555 1_555
H4 C3 1_555 1_555
H5 C3 1_555 1_555
C4 C3 1_555 1_555
C5 C1 1_555 1_555
C7 C4 1_555 1_555
C8 C4 1_555 1_555
H6 C8 1_555 1_555
H7 C8 1_555 1_555
H8 C8 1_555 1_555
O3 C7 1_555 1_555
O4 C7 1_555 1_555
Eu5 O3 1_555 1_555
C4 C5 1_555 1_555
O4 Eu5 1_555 1_555
Eu2 O1 1_555 1_555
H9 C9 1_555 1_555
H10 C9 1_555 1_555
H12 C10 1_555 1_555
H13 C10 1_555 1_555
H14 C10 1_555 1_555
H20 C18 1_555 1_555
H22 C18 1_555 1_555
O1 C6 1_555 1_555
O2 Eu2 1_555 1_555
H36 O14 1_555 1_555
O18 Eu2 1_555 1_555
O19 Eu2 1_555 1_555
O21 Eu2 1_555 1_555
C6 O2 1_555 1_555
H31 C25 1_555 1_555
C26 C21 1_555 1_555
H32 C26 1_555 1_555
C27 C21 1_555 1_555
O9 C27 1_555 1_555
Eu4 O11 1_555 1_555
Eu7 O9 1_555 1_555
C25 C26 1_555 1_555
C11 C12 1_555 1_555
C12 H15 1_555 1_555
H16 C12 1_555 1_555
C13 C12 1_555 1_555
H17 C13 1_555 1_555
H18 C13 1_555 1_555
C14 C13 1_555 1_555
H19 C14 1_555 1_555
C15 C11 1_555 1_555
C16 C11 1_555 1_555
C17 C14 1_555 1_555
C19 C15 1_555 1_555
H23 C19 1_555 1_555
H24 C19 1_555 1_555
H25 C19 1_555 1_555
C20 C15 1_555 1_555
H26 C20 1_555 1_555
H27 C20 1_555 1_555
H28 C20 1_555 1_555
C22 H29 1_555 1_555
C23 C22 1_555 1_555
H30 C23 1_555 1_555
C24 C23 1_555 1_555
C28 C24 1_555 1_555
O6 Eu1 1_555 1_555
O7 C17 1_555 1_555
O8 C17 1_555 1_555
O10 Eu1 1_555 1_555
O12 C28 1_555 1_555
O13 Eu1 1_555 1_555
H33 O13 1_555 1_555
H34 O13 1_555 1_555
Eu3 O7 1_555 1_555
Eu5 O8 1_555 1_555
C14 C15 1_555 1_555
C16 O5 1_555 1_555
C16 O6 1_555 1_555
O12 Eu5 1_555 1_555
C11_2 C12_2 1_555 1_555
C12_2 H15_2 1_555 1_555
H16_2 C12_2 1_555 1_555
C13_2 C12_2 1_555 1_555
H17_2 C13_2 1_555 1_555
H18_2 C13_2 1_555 1_555
C14_2 C13_2 1_555 1_555
H19_2 C14_2 1_555 1_555
C15_2 C11_2 1_555 1_555
C17_2 C14_2 1_555 1_555
C20_2 C15_2 1_555 1_555
H26_2 C20_2 1_555 1_555
H28_2 C20_2 1_555 1_555
H30_2 C23_2 1_555 1_555
C24_2 C23_2 1_555 1_555
C25_2 C24_2 1_555 1_555
H31_2 C25_2 1_555 1_555
C28_2 C24_2 1_555 1_555
O7_2 C17_2 1_555 1_555
O8_2 C17_2 1_555 1_555
O11_2 C28_2 1_555 1_555
O12_2 C28_2 1_555 1_555
Eu4 O7_2 1_555 1_555
Eu3 O11_2 1_555 1_555
Eu6 O8_2 1_555 1_555
C14_2 C15_2 1_555 1_555
O12_2 Eu6 1_555 1_555
H23_2 C19_2 1_555 1_555
H25_2 C19_2 1_555 1_555
C21_2 C22_2 1_555 1_555
C22_2 H29_2 1_555 1_555
C26_2 C21_2 1_555 1_555
H32_2 C26_2 1_555 1_555
C27_2 C21_2 1_555 1_555
O6_2 Eu1_2 1_555 1_555
O19 C27_2 1_555 1_555
O10_2 Eu1_2 1_555 1_555
O13_2 Eu1_2 1_555 1_555
H33_2 O13_2 1_555 1_555
H34_2 O13_2 1_555 1_555
C16_2 O5_2 1_555 1_555
C16_2 O6_2 1_555 1_555
C27_2 O10_2 1_555 1_555
Eu7 O1_2 1_555 1_555
C1_2 H1_3 1_555 1_555
C2_2 C1_2 1_555 1_555
H2_2 C2_2 1_555 1_555
H3_2 C2_2 1_555 1_555
C3_2 C2_2 1_555 1_555
H4_2 C3_2 1_555 1_555
H5_2 C3_2 1_555 1_555
C4_2 C3_2 1_555 1_555
C5_2 C1_2 1_555 1_555
C6_2 C1_2 1_555 1_555
C7_2 C4_2 1_555 1_555
C8_2 C4_2 1_555 1_555
H6_2 C8_2 1_555 1_555
H7_2 C8_2 1_555 1_555
H8_2 C8_2 1_555 1_555
C9_2 C5_2 1_555 1_555
H9_2 C9_2 1_555 1_555
H10_2 C9_2 1_555 1_555
H11_2 C9_2 1_555 1_555
C10_2 C5_2 1_555 1_555
H12_2 C10_2 1_555 1_555
H13_2 C10_2 1_555 1_555
H14_2 C10_2 1_555 1_555
O1_2 C6_2 1_555 1_555
O2_2 Eu7 1_555 1_555
O3_2 C7_2 1_555 1_555
O4_2 C7_2 1_555 1_555
H35 O14_2 1_555 1_555
H36_2 O14_2 1_555 1_555
Eu6 O3_2 1_555 1_555
O18_2 Eu7 1_555 1_555
O21_2 Eu7 1_555 1_555
C4_2 C5_2 1_555 1_555
C6_2 O2_2 1_555 1_555
O4_2 Eu6 1_555 1_555
Eu3 O1_3 1_555 1_555
Eu5 O1_3 1_555 1_555
H9_3 C9_3 1_555 1_555
H10_3 C9_3 1_555 1_555
H12_3 C10_3 1_555 1_555
H13_3 C10_3 1_555 1_555
H14_3 C10_3 1_555 1_555
C11_3 C12_3 1_555 1_555
C12_3 H15_3 1_555 1_555
H16_3 C12_3 1_555 1_555
C13_3 C12_3 1_555 1_555
H17_3 C13_3 1_555 1_555
H18_3 C13_3 1_555 1_555
C14_3 C13_3 1_555 1_555
H19_3 C14_3 1_555 1_555
C15_3 C11_3 1_555 1_555
C16_3 C11_3 1_555 1_555
C17_3 C14_3 1_555 1_555
C18_2 C11_3 1_555 1_555
H20_2 C18_2 1_555 1_555
H21_3 C18_2 1_555 1_555
H22_2 C18_2 1_555 1_555
C19_3 C15_3 1_555 1_555
H23_3 C19_3 1_555 1_555
H24_3 C19_3 1_555 1_555
H25_3 C19_3 1_555 1_555
C20_3 C15_3 1_555 1_555
H26_3 C20_3 1_555 1_555
H27_3 C20_3 1_555 1_555
H28_3 C20_3 1_555 1_555
C21_3 C22_3 1_555 1_555
C22_3 H29_3 1_555 1_555
C23_3 C22_3 1_555 1_555
H30_3 C23_3 1_555 1_555
C24_3 C23_3 1_555 1_555
C25_3 C24_3 1_555 1_555
H31_3 C25_3 1_555 1_555
C26_3 C21_3 1_555 1_555
H32_3 C26_3 1_555 1_555
C27_3 C21_3 1_555 1_555
C28_3 C24_3 1_555 1_555
O1_3 C6_3 1_555 1_555
O2_3 Eu5 1_555 1_555
O5_3 Eu5 1_555 1_555
O6_3 Eu3 1_555 1_555
O17 C17_3 1_555 1_555
O18 C17_3 1_555 1_555
O9_2 C27_3 1_555 1_555
O10_3 Eu3 1_555 1_555
O21 C28_3 1_555 1_555
O13_3 Eu3 1_555 1_555
H33_3 O13_3 1_555 1_555
H34_3 O13_3 1_555 1_555
O14_3 Eu3 1_555 1_555
H35_2 O14_3 1_555 1_555
H36_3 O14_3 1_555 1_555
Eu6 O9_2 1_555 1_555
O19_2 Eu5 1_555 1_555
C6_3 O2_3 1_555 1_555
C14_3 C15_3 1_555 1_555
C16_3 O5_3 1_555 1_555
C16_3 O6_3 1_555 1_555
C25_3 C26_3 1_555 1_555
C27_3 O10_3 1_555 1_555
C1_3 H1_5 1_555 1_555
C2_3 C1_3 1_555 1_555
H2_3 C2_3 1_555 1_555
H3_3 C2_3 1_555 1_555
C3_3 C2_3 1_555 1_555
H4_3 C3_3 1_555 1_555
H5_3 C3_3 1_555 1_555
C4_3 C3_3 1_555 1_555
C5_3 C1_3 1_555 1_555
C7_3 C4_3 1_555 1_555
C8_3 C4_3 1_555 1_555
H6_3 C8_3 1_555 1_555
H7_3 C8_3 1_555 1_555
H8_3 C8_3 1_555 1_555
O15 C7_3 1_555 1_555
O16 C7_3 1_555 1_555
C4_3 C5_3 1_555 1_555
Eu4 O1_4 1_555 1_555
Eu6 O1_4 1_555 1_555
C1_4 H1_6 1_555 1_555
C2_4 C1_4 1_555 1_555
H2_4 C2_4 1_555 1_555
H3_4 C2_4 1_555 1_555
C3_4 C2_4 1_555 1_555
H4_4 C3_4 1_555 1_555
H5_4 C3_4 1_555 1_555
C4_4 C3_4 1_555 1_555
C5_4 C1_4 1_555 1_555
C6_4 C1_4 1_555 1_555
C7_4 C4_4 1_555 1_555
C8_4 C4_4 1_555 1_555
H6_4 C8_4 1_555 1_555
H7_4 C8_4 1_555 1_555
H8_4 C8_4 1_555 1_555
C9_4 C5_4 1_555 1_555
H9_4 C9_4 1_555 1_555
H10_4 C9_4 1_555 1_555
H11_4 C9_4 1_555 1_555
C10_4 C5_4 1_555 1_555
H12_4 C10_4 1_555 1_555
H13_4 C10_4 1_555 1_555
H14_4 C10_4 1_555 1_555
H23_4 C19_4 1_555 1_555
H25_4 C19_4 1_555 1_555
C22_4 H29_4 1_555 1_555
O1_4 C6_4 1_555 1_555
O2_4 Eu6 1_555 1_555
O15_2 C7_4 1_555 1_555
O16_2 C7_4 1_555 1_555
O5_4 Eu6 1_555 1_555
O6_4 Eu4 1_555 1_555
O10_4 Eu4 1_555 1_555
O13_4 Eu4 1_555 1_555
H33_4 O13_4 1_555 1_555
H34_4 O13_4 1_555 1_555
O14_4 Eu4 1_555 1_555
H36_4 O14_4 1_555 1_555
C4_4 C5_4 1_555 1_555
C6_4 O2_4 1_555 1_555
C16_4 O5_4 1_555 1_555
C16_4 O6_4 1_555 1_555
C26_4 C21_4 1_555 1_555
H32_4 C26_4 1_555 1_555
C27_4 C21_4 1_555 1_555
O19_2 C27_4 1_555 1_555
C11_4 C12_4 1_555 1_555
C12_4 H15_4 1_555 1_555
H16_4 C12_4 1_555 1_555
C13_4 C12_4 1_555 1_555
H17_4 C13_4 1_555 1_555
H18_4 C13_4 1_555 1_555
C14_4 C13_4 1_555 1_555
H19_4 C14_4 1_555 1_555
C15_4 C11_4 1_555 1_555
C17_4 C14_4 1_555 1_555
C18_3 C11_4 1_555 1_555
H20_3 C18_3 1_555 1_555
H21_4 C18_3 1_555 1_555
H22_3 C18_3 1_555 1_555
C20_4 C15_4 1_555 1_555
H26_4 C20_4 1_555 1_555
H28_4 C20_4 1_555 1_555
H30_4 C23_4 1_555 1_555
C24_4 C23_4 1_555 1_555
C28_4 C24_4 1_555 1_555
O17_2 C17_4 1_555 1_555
O18_2 C17_4 1_555 1_555
O21_2 C28_4 1_555 1_555
C14_4 C15_4 1_555 1_555
H31_4 C25_4 1_555 1_555
H20_4 C18_4 1_555 1_555
H22_4 C18_4 1_555 1_555

#END
