
###############################################################################
#
# This file contains modified crystal structure data generated from the
# MOF subset of the Cambridge Structural Database (CSD) v543 
# hosted by the Cambridge Crystallographic Data Centre (CCDC).
#
# This work is licensed under the Creative Commons
# Attribution-NonCommercial-ShareAlike 4.0 International License.
# To view a copy of this license, visit
# http://creativecommons.org/licenses/by-nc-sa/4.0/
# or send a letter to
# Creative Commons, PO Box 1866, Mountain View, CA 94042, USA.
#
# CIF created using the CSD Python API on 29 September 2022
# The structure has been converted into the P1 space group
# The structure has a 3D framework
# The original CSD entry EXACEM is in the orthorhombic crystal system
# The original CSD entry EXACEM is in a Sohncke space group
# The framework has been calculated to contain at least 10.0% void space
# The void calculation uses a probe of radius 1.32A, grid spacing 0.4
#
###############################################################################

data_EXACEM
_chemical_formula_moiety         '(C112 H144 Gd8 O53)n'
_symmetry_cell_setting           triclinic
_symmetry_space_group_name_H-M   'P 1'
_symmetry_Int_Tables_number      1
_space_group_name_Hall           'P 1'
loop_
_symmetry_equiv_pos_site_id
_symmetry_equiv_pos_as_xyz
1 x,y,z
_cell_length_a                   12.927(5)
_cell_length_b                   14.084(6)
_cell_length_c                   18.882(8)
_cell_angle_alpha                90
_cell_angle_beta                 90
_cell_angle_gamma                90
_cell_volume                     3437.73
loop_
_atom_site_label
_atom_site_type_symbol
_atom_site_fract_x
_atom_site_fract_y
_atom_site_fract_z
C1 C 0.0108(7) 0.0963(6) 0.8282(5)
C2 C 0.1212(7) 0.0693(7) 0.8047(5)
H2 H 0.1213 0.0485 0.7557
H3 H 0.1481 0.0184 0.8340
C3 C 0.1880(8) 0.1608(6) 0.8135(5)
H4 H 0.2533 0.1461 0.8363
H5 H 0.2019 0.1896 0.7678
C4 C 0.1226(7) 0.2279(7) 0.8603(5)
C5 C 0.0077(7) 0.2085(6) 0.8356(5)
C7 C 0.1520(7) 0.3326(6) 0.8509(4)
C8 C 0.1389(9) 0.1982(8) 0.9383(5)
H6 H 0.2090 0.2112 0.9520
H7 H 0.1252 0.1316 0.9434
H8 H 0.0925 0.2335 0.9681
H11 H 0.0417 0.2375 0.7311
O3 O 0.1340(6) 0.3933(4) 0.8979(3)
O4 O 0.1978(6) 0.3595(5) 0.7945(3)
Gd5 Gd 0.22774(3) 0.52040(2) 0.828851(18)
Gd1 Gd 0.71309(3) 0.00073(3) 0.885359(18)
Gd2 Gd 0.77226(3) 0.02040(2) 0.671149(18)
H1 H 0.9988 0.0687 0.8751
C6 C 0.9294(7) 0.0565(7) 0.7776(4)
C9 C 0.9877(11) 0.2550(8) 0.7635(6)
H9 H 0.9866 0.3228 0.7688
H10 H 0.9223 0.2339 0.7453
C10 C 0.9275(8) 0.2391(8) 0.8879(7)
H12 H 0.9276 0.3070 0.8915
H13 H 0.9427 0.2119 0.9333
H14 H 0.8607 0.2178 0.8723
C18 C 0.4235(9) 0.0052(9) 0.6782(6)
H20 H 0.4224 0.0680 0.6981
H22 H 0.4756 0.0018 0.6421
O1 O 0.8407(5) 0.0313(5) 0.8035(3)
O2 O 0.9443(5) 0.0490(5) 0.7135(3)
O14 O 0.6178(6) 0.0986(5) 0.9618(3)
H36 H 0.6013 0.1540 0.9475
O17 O 0.6721(6) 0.1455(4) 0.8351(3)
O18 O 0.7148(6) 0.1606(4) 0.7204(3)
O19 O 0.8442(6) 0.1207(5) 0.5914(3)
O20 O 0.8449(5) 0.0194(4) 0.9638(3)
O21 O 0.6589(4) 0.0111(5) 0.5797(3)
C21 C 0.5627(7) 0.7746(6) 0.0165(5)
C25 C 0.4805(8) 0.6318(7) 0.0609(5)
H31 H 0.4683 0.5894 0.0977
C26 C 0.5429(8) 0.7101(7) 0.0717(5)
H32 H 0.5722 0.7203 0.1160
C27 C 0.6307(7) 0.8589(7) 0.0287(5)
O9 O 0.6558(6) 0.8793(5) 0.0914(3)
O11 O 0.3449(5) 0.4806(4) 0.0362(3)
Gd4 Gd 0.21309(3) 0.49927(3) 0.114641(18)
Gd7 Gd 0.72774(3) 0.97960(2) 0.171149(18)
C11 C 0.4481(7) 0.9323(7) 0.7371(5)
C12 C 0.3616(8) 0.9299(9) 0.7930(6)
H15 H 0.3906 0.9138 0.8389
H16 H 0.3296 0.9920 0.7966
C13 C 0.2838(10) 0.8591(8) 0.7729(7)
H17 H 0.2213 0.8900 0.7563
H18 H 0.2664 0.8193 0.8131
C14 C 0.3324(8) 0.7995(7) 0.7136(6)
H19 H 0.2991 0.8195 0.6694
C15 C 0.4490(8) 0.8275(7) 0.7069(6)
C16 C 0.5525(7) 0.9581(6) 0.7706(4)
C17 C 0.3127(7) 0.6936(7) 0.7208(5)
H21 H 0.3572 0.9911 0.6580
C19 C 0.5152(10) 0.7617(7) 0.7535(7)
H23 H 0.5151 0.6989 0.7338
H24 H 0.4871 0.7600 0.8005
H25 H 0.5849 0.7853 0.7551
C20 C 0.4880(10) 0.8193(9) 0.6312(5)
H26 H 0.4869 0.7539 0.6168
H27 H 0.5575 0.8430 0.6286
H28 H 0.4443 0.8558 0.6004
C22 C 0.5170(9) 0.7580(7) 0.9511(5)
H29 H 0.5280 0.8011 0.9146
C23 C 0.4558(10) 0.6798(8) 0.9388(5)
H30 H 0.4280 0.6690 0.8940
C24 C 0.4358(7) 0.6164(7) 0.9944(5)
C28 C 0.3690(7) 0.5313(7) 0.9830(5)
O5 O 0.6300(5) 0.9719(5) 0.7320(4)
O6 O 0.5567(5) 0.9618(6) 0.8361(3)
O7 O 0.3279(6) 0.6455(4) 0.6649(3)
O8 O 0.2852(6) 0.6606(4) 0.7796(3)
O10 O 0.6608(6) 0.9027(5) 0.9743(3)
O12 O 0.3411(4) 0.5111(5) 0.9203(3)
O13 O 0.7614(6) 0.8518(4) 0.8453(3)
H33 H 0.7631 0.8047 0.8729
H34 H 0.8059 0.8466 0.8127
Gd3 Gd 0.28691(3) 0.50073(3) 0.614641(18)
O15 O 0.8660(6) 0.8933(4) 0.6021(3)
O16 O 0.8022(6) 0.8595(5) 0.7055(3)
C11_2 C 0.0519(7) 0.0677(7) 0.2371(5)
C12_2 C 0.1384(8) 0.0701(9) 0.2930(6)
H15_2 H 0.1094 0.0862 0.3389
H16_2 H 0.1704 0.0080 0.2966
C13_2 C 0.2162(10) 0.1409(8) 0.2729(7)
H17_2 H 0.2787 0.1100 0.2563
H18_2 H 0.2336 0.1807 0.3131
C14_2 C 0.1676(8) 0.2005(7) 0.2136(6)
H19_2 H 0.2009 0.1805 0.1694
C15_2 C 0.0510(8) 0.1725(7) 0.2069(6)
C17_2 C 0.1873(7) 0.3064(7) 0.2208(5)
H21_2 H 0.1428 0.0089 0.1580
H24_2 H 0.0129 0.2400 0.3005
C20_2 C 0.0120(10) 0.1807(9) 0.1312(5)
H26_2 H 0.0131 0.2461 0.1168
H28_2 H 0.0557 0.1442 0.1004
C23_2 C 0.0442(10) 0.3202(8) 0.4388(5)
H30_2 H 0.0720 0.3310 0.3940
C24_2 C 0.0642(7) 0.3836(7) 0.4944(5)
C25_2 C 0.0195(8) 0.3682(7) 0.5609(5)
H31_2 H 0.0317 0.4106 0.5977
C28_2 C 0.1310(7) 0.4687(7) 0.4830(5)
O7_2 O 0.1721(6) 0.3545(4) 0.1649(3)
O8_2 O 0.2148(6) 0.3394(4) 0.2796(3)
O11_2 O 0.1551(5) 0.5194(4) 0.5362(3)
O12_2 O 0.1589(4) 0.4889(5) 0.4203(3)
Gd6 Gd 0.27226(3) 0.47960(2) 0.328851(18)
C16_2 C 0.9475(7) 0.0419(6) 0.2706(4)
C19_2 C 0.9848(10) 0.2383(7) 0.2535(7)
H23_2 H 0.9849 0.3011 0.2338
H25_2 H 0.9151 0.2147 0.2551
H27_2 H 0.9425 0.1570 0.1286
C21_2 C 0.9373(7) 0.2254(6) 0.5165(5)
C22_2 C 0.9830(9) 0.2420(7) 0.4511(5)
H29_2 H 0.9720 0.1989 0.4146
C26_2 C 0.9571(8) 0.2899(7) 0.5717(5)
H32_2 H 0.9278 0.2797 0.6160
C27_2 C 0.8693(7) 0.1411(7) 0.5287(5)
O5_2 O 0.8700(5) 0.0281(5) 0.2320(4)
O6_2 O 0.9433(5) 0.0382(6) 0.3361(3)
O10_2 O 0.8392(6) 0.0973(5) 0.4743(3)
O13_2 O 0.7386(6) 0.1482(4) 0.3453(3)
H33_2 H 0.7369 0.1953 0.3729
H34_2 H 0.6941 0.1534 0.3127
O15_2 O 0.6340(6) 0.1067(4) 0.1021(3)
O16_2 O 0.6978(6) 0.1405(5) 0.2055(3)
Gd1_2 Gd 0.78691(3) 0.99927(3) 0.385359(18)
C1_2 C 0.4892(7) 0.9037(6) 0.3282(5)
H1_2 H 0.5012 0.9313 0.3751
C2_2 C 0.3788(7) 0.9307(7) 0.3047(5)
H2_2 H 0.3787 0.9515 0.2557
H3_2 H 0.3519 0.9816 0.3340
C3_2 C 0.3120(8) 0.8392(6) 0.3135(5)
H4_2 H 0.2467 0.8539 0.3363
H5_2 H 0.2981 0.8104 0.2678
C4_2 C 0.3774(7) 0.7721(7) 0.3603(5)
C5_2 C 0.4923(7) 0.7915(6) 0.3356(5)
C6_2 C 0.5706(7) 0.9435(7) 0.2776(4)
C7_2 C 0.3480(7) 0.6674(6) 0.3509(4)
C8_2 C 0.3611(9) 0.8018(8) 0.4383(5)
H6_2 H 0.2910 0.7888 0.4520
H7_2 H 0.3748 0.8684 0.4434
H8_2 H 0.4075 0.7665 0.4681
C9_2 C 0.5123(11) 0.7450(8) 0.2635(6)
H9_2 H 0.5134 0.6772 0.2688
H10_2 H 0.5777 0.7661 0.2453
H11_2 H 0.4583 0.7625 0.2311
C10_2 C 0.5725(8) 0.7609(8) 0.3879(7)
H12_2 H 0.5724 0.6930 0.3915
H13_2 H 0.5573 0.7881 0.4333
H14_2 H 0.6393 0.7822 0.3723
O1_2 O 0.6593(5) 0.9687(5) 0.3035(3)
O2_2 O 0.5557(5) 0.9510(5) 0.2135(3)
O3_2 O 0.3660(6) 0.6067(4) 0.3979(3)
O4_2 O 0.3022(6) 0.6405(5) 0.2945(3)
O14_2 O 0.8822(6) 0.9014(5) 0.4618(3)
H35 H 0.8564 0.8976 0.5032
H36_2 H 0.8987 0.8460 0.4475
O17_2 O 0.8279(6) 0.8545(4) 0.3351(3)
O18_2 O 0.7852(6) 0.8394(4) 0.2204(3)
O20_2 O 0.6551(5) 0.9806(4) 0.4638(3)
O21_2 O 0.8411(4) 0.9889(5) 0.0797(3)
H1_3 H 0.0012 0.5687 0.6249
C6_3 C 0.0706(7) 0.5565(7) 0.7224(4)
C9_3 C 0.0123(11) 0.7550(8) 0.7365(6)
H9_3 H 0.0134 0.8228 0.7312
H10_3 H 0.0777 0.7339 0.7547
C10_3 C 0.0725(8) 0.7391(8) 0.6121(7)
H12_3 H 0.0724 0.8070 0.6085
H13_3 H 0.0573 0.7119 0.5667
H14_3 H 0.1393 0.7178 0.6277
C11_3 C 0.5519(7) 0.4323(7) 0.7629(5)
C12_3 C 0.6384(8) 0.4299(9) 0.7070(6)
H15_3 H 0.6094 0.4138 0.6611
H16_3 H 0.6704 0.4920 0.7034
C13_3 C 0.7162(10) 0.3591(8) 0.7271(7)
H17_3 H 0.7787 0.3900 0.7437
H18_3 H 0.7336 0.3193 0.6869
C14_3 C 0.6676(8) 0.2995(7) 0.7864(6)
H19_3 H 0.7009 0.3195 0.8306
C15_3 C 0.5510(8) 0.3275(7) 0.7931(6)
C16_3 C 0.4475(7) 0.4581(6) 0.7294(4)
C17_3 C 0.6873(7) 0.1936(7) 0.7792(5)
C18_2 C 0.5765(9) 0.5052(9) 0.8218(6)
H20_2 H 0.5776 0.5680 0.8019
H21_3 H 0.6428 0.4911 0.8420
H22_2 H 0.5244 0.5018 0.8579
C19_3 C 0.4848(10) 0.2617(7) 0.7465(7)
H23_3 H 0.4849 0.1989 0.7662
H24_3 H 0.5129 0.2600 0.6995
H25_3 H 0.4151 0.2853 0.7449
C20_3 C 0.5120(10) 0.3193(9) 0.8688(5)
H26_3 H 0.5131 0.2539 0.8832
H27_3 H 0.4425 0.3430 0.8714
H28_3 H 0.5557 0.3558 0.8996
C21_3 C 0.4373(7) 0.2746(6) 0.4835(5)
C22_3 C 0.4830(9) 0.2580(7) 0.5489(5)
H29_3 H 0.4720 0.3011 0.5854
C23_3 C 0.5442(10) 0.1798(8) 0.5612(5)
H30_3 H 0.5720 0.1690 0.6060
C24_3 C 0.5642(7) 0.1164(7) 0.5056(5)
C25_3 C 0.5195(8) 0.1318(7) 0.4391(5)
H31_3 H 0.5317 0.0894 0.4023
C26_3 C 0.4571(8) 0.2101(7) 0.4283(5)
H32_3 H 0.4278 0.2203 0.3840
C27_3 C 0.3693(7) 0.3589(7) 0.4713(5)
C28_3 C 0.6310(7) 0.0313(7) 0.5170(5)
O1_3 O 0.1593(5) 0.5313(5) 0.6965(3)
O2_3 O 0.0557(5) 0.5490(5) 0.7865(3)
O5_3 O 0.3700(5) 0.4719(5) 0.7680(4)
O6_3 O 0.4433(5) 0.4618(6) 0.6639(3)
O9_2 O 0.3442(6) 0.3793(5) 0.4086(3)
O10_3 O 0.3392(6) 0.4027(5) 0.5257(3)
O13_3 O 0.2386(6) 0.3518(4) 0.6547(3)
H33_3 H 0.2369 0.3047 0.6271
H34_3 H 0.1941 0.3466 0.6873
O14_3 O 0.3822(6) 0.5986(5) 0.5382(3)
H35_2 H 0.3564 0.6024 0.4968
H36_3 H 0.3987 0.6540 0.5525
O19_2 O 0.1558(6) 0.6207(5) 0.9086(3)
C1_3 C 0.9892(7) 0.5963(6) 0.6718(5)
C2_3 C 0.8788(7) 0.5693(7) 0.6953(5)
H2_3 H 0.8787 0.5485 0.7443
H3_3 H 0.8519 0.5184 0.6660
C3_3 C 0.8120(8) 0.6608(6) 0.6865(5)
H4_3 H 0.7467 0.6461 0.6637
H5_3 H 0.7981 0.6896 0.7322
C4_3 C 0.8774(7) 0.7279(7) 0.6397(5)
C5_3 C 0.9923(7) 0.7085(6) 0.6644(5)
C7_3 C 0.8480(7) 0.8326(6) 0.6491(4)
C8_3 C 0.8611(9) 0.6982(8) 0.5617(5)
H6_3 H 0.7910 0.7112 0.5480
H7_3 H 0.8748 0.6316 0.5566
H8_3 H 0.9075 0.7335 0.5319
H11_3 H 0.9583 0.7375 0.7689
C1_4 C 0.5108(7) 0.4037(6) 0.1718(5)
H1_4 H 0.4988 0.4313 0.1249
C2_4 C 0.6212(7) 0.4307(7) 0.1953(5)
H2_4 H 0.6213 0.4515 0.2443
H3_4 H 0.6481 0.4816 0.1660
C3_4 C 0.6880(8) 0.3392(6) 0.1865(5)
H4_4 H 0.7533 0.3539 0.1637
H5_4 H 0.7019 0.3104 0.2322
C4_4 C 0.6226(7) 0.2721(7) 0.1397(5)
C5_4 C 0.5077(7) 0.2915(6) 0.1644(5)
C6_4 C 0.4294(7) 0.4435(7) 0.2224(4)
C7_4 C 0.6520(7) 0.1674(6) 0.1491(4)
C8_4 C 0.6389(9) 0.3018(8) 0.0617(5)
H6_4 H 0.7090 0.2888 0.0480
H7_4 H 0.6252 0.3684 0.0566
H8_4 H 0.5925 0.2665 0.0319
C9_4 C 0.4877(11) 0.2450(8) 0.2365(6)
H9_4 H 0.4866 0.1772 0.2312
H10_4 H 0.4223 0.2661 0.2547
H11_4 H 0.5417 0.2625 0.2689
C10_4 C 0.4275(8) 0.2609(8) 0.1121(7)
H12_4 H 0.4276 0.1930 0.1085
H13_4 H 0.4427 0.2881 0.0667
H14_4 H 0.3607 0.2822 0.1277
C16_4 C 0.0525(7) 0.5419(6) 0.2294(4)
C19_4 C 0.0152(10) 0.7383(7) 0.2465(7)
H23_4 H 0.0151 0.8011 0.2662
H25_4 H 0.0849 0.7147 0.2449
H27_4 H 0.0575 0.6570 0.3714
C22_4 C 0.0170(9) 0.7420(7) 0.0489(5)
H29_4 H 0.0280 0.6989 0.0854
O1_4 O 0.3407(5) 0.4687(5) 0.1965(3)
O2_4 O 0.4443(5) 0.4510(5) 0.2865(3)
O5_4 O 0.1300(5) 0.5281(5) 0.2680(4)
O6_4 O 0.0567(5) 0.5382(6) 0.1639(3)
O10_4 O 0.1608(6) 0.5973(5) 0.0257(3)
O13_4 O 0.2614(6) 0.6482(4) 0.1547(3)
H33_4 H 0.2631 0.6953 0.1271
H34_4 H 0.3059 0.6534 0.1873
O14_4 O 0.1178(6) 0.4014(5) 0.0382(3)
H36_4 H 0.1013 0.3460 0.0525
C21_4 C 0.0627(7) 0.7254(6) 0.9835(5)
C26_4 C 0.0429(8) 0.7899(7) 0.9283(5)
H32_4 H 0.0722 0.7797 0.8840
C27_4 C 0.1307(7) 0.6411(7) 0.9713(5)
H35_3 H 0.1436 0.3976 0.9968
C11_4 C 0.9481(7) 0.5677(7) 0.2629(5)
C12_4 C 0.8616(8) 0.5701(9) 0.2070(6)
H15_4 H 0.8906 0.5862 0.1611
H16_4 H 0.8296 0.5080 0.2034
C13_4 C 0.7838(10) 0.6409(8) 0.2271(7)
H17_4 H 0.7213 0.6100 0.2437
H18_4 H 0.7664 0.6807 0.1869
C14_4 C 0.8324(8) 0.7005(7) 0.2864(6)
H19_4 H 0.7991 0.6805 0.3306
C15_4 C 0.9490(8) 0.6725(7) 0.2931(6)
C17_4 C 0.8127(7) 0.8064(7) 0.2792(5)
C18_3 C 0.9235(9) 0.4948(9) 0.3218(6)
H20_3 H 0.9224 0.4320 0.3019
H21_4 H 0.8572 0.5089 0.3420
H22_3 H 0.9756 0.4982 0.3579
H24_4 H 0.9871 0.7400 0.1995
C20_4 C 0.9880(10) 0.6807(9) 0.3688(5)
H26_4 H 0.9869 0.7461 0.3832
H28_4 H 0.9443 0.6442 0.3996
C23_4 C 0.9558(10) 0.8202(8) 0.0612(5)
H30_4 H 0.9280 0.8310 0.1060
C24_4 C 0.9358(7) 0.8836(7) 0.0056(5)
C28_4 C 0.8690(7) 0.9687(7) 0.0170(5)
H35_4 H 0.6436 0.1024 0.0032
C18_4 C 0.0765(9) 0.9948(9) 0.1782(6)
H20_4 H 0.0776 0.9320 0.1981
H22_4 H 0.0244 0.9982 0.1421
C25_4 C 0.9805(8) 0.8682(7) 0.9391(5)
H31_4 H 0.9683 0.9106 0.9023
loop_
_geom_bond_atom_site_label_1
_geom_bond_atom_site_label_2
_geom_bond_site_symmetry_1
_geom_bond_site_symmetry_2
C2 C1 1_555 1_555
H2 C2 1_555 1_555
H3 C2 1_555 1_555
C3 C2 1_555 1_555
H4 C3 1_555 1_555
H5 C3 1_555 1_555
C4 C3 1_555 1_555
C5 C1 1_555 1_555
C7 C4 1_555 1_555
C8 C4 1_555 1_555
H6 C8 1_555 1_555
H7 C8 1_555 1_555
H8 C8 1_555 1_555
O3 C7 1_555 1_555
O4 C7 1_555 1_555
Gd5 O3 1_555 1_555
C4 C5 1_555 1_555
O4 Gd5 1_555 1_555
Gd1 O1 1_555 1_555
Gd2 O1 1_555 1_555
H9 C9 1_555 1_555
H10 C9 1_555 1_555
H12 C10 1_555 1_555
H13 C10 1_555 1_555
H14 C10 1_555 1_555
H20 C18 1_555 1_555
H22 C18 1_555 1_555
O1 C6 1_555 1_555
O2 Gd2 1_555 1_555
O14 Gd1 1_555 1_555
H36 O14 1_555 1_555
O17 Gd1 1_555 1_555
O18 Gd2 1_555 1_555
O19 Gd2 1_555 1_555
O20 Gd1 1_555 1_555
O21 Gd2 1_555 1_555
C6 O2 1_555 1_555
H31 C25 1_555 1_555
C26 C21 1_555 1_555
H32 C26 1_555 1_555
C27 C21 1_555 1_555
O9 C27 1_555 1_555
Gd4 O11 1_555 1_555
Gd7 O9 1_555 1_555
C25 C26 1_555 1_555
C11 C12 1_555 1_555
C12 H15 1_555 1_555
H16 C12 1_555 1_555
C13 C12 1_555 1_555
H17 C13 1_555 1_555
H18 C13 1_555 1_555
C14 C13 1_555 1_555
H19 C14 1_555 1_555
C15 C11 1_555 1_555
C16 C11 1_555 1_555
C17 C14 1_555 1_555
C19 C15 1_555 1_555
H23 C19 1_555 1_555
H24 C19 1_555 1_555
H25 C19 1_555 1_555
C20 C15 1_555 1_555
H26 C20 1_555 1_555
H27 C20 1_555 1_555
H28 C20 1_555 1_555
C22 H29 1_555 1_555
C23 C22 1_555 1_555
H30 C23 1_555 1_555
C24 C23 1_555 1_555
C28 C24 1_555 1_555
O7 C17 1_555 1_555
O8 C17 1_555 1_555
O12 C28 1_555 1_555
H33 O13 1_555 1_555
H34 O13 1_555 1_555
Gd3 O7 1_555 1_555
Gd5 O8 1_555 1_555
C14 C15 1_555 1_555
C16 O5 1_555 1_555
C16 O6 1_555 1_555
O12 Gd5 1_555 1_555
C11_2 C12_2 1_555 1_555
C12_2 H15_2 1_555 1_555
H16_2 C12_2 1_555 1_555
C13_2 C12_2 1_555 1_555
H17_2 C13_2 1_555 1_555
H18_2 C13_2 1_555 1_555
C14_2 C13_2 1_555 1_555
H19_2 C14_2 1_555 1_555
C15_2 C11_2 1_555 1_555
C17_2 C14_2 1_555 1_555
C20_2 C15_2 1_555 1_555
H26_2 C20_2 1_555 1_555
H28_2 C20_2 1_555 1_555
H30_2 C23_2 1_555 1_555
C24_2 C23_2 1_555 1_555
C25_2 C24_2 1_555 1_555
H31_2 C25_2 1_555 1_555
C28_2 C24_2 1_555 1_555
O7_2 C17_2 1_555 1_555
O8_2 C17_2 1_555 1_555
O11_2 C28_2 1_555 1_555
O12_2 C28_2 1_555 1_555
Gd4 O7_2 1_555 1_555
Gd3 O11_2 1_555 1_555
Gd6 O8_2 1_555 1_555
C14_2 C15_2 1_555 1_555
O12_2 Gd6 1_555 1_555
H23_2 C19_2 1_555 1_555
H25_2 C19_2 1_555 1_555
C21_2 C22_2 1_555 1_555
C22_2 H29_2 1_555 1_555
C26_2 C21_2 1_555 1_555
H32_2 C26_2 1_555 1_555
C27_2 C21_2 1_555 1_555
O19 C27_2 1_555 1_555
H33_2 O13_2 1_555 1_555
H34_2 O13_2 1_555 1_555
C16_2 O5_2 1_555 1_555
C16_2 O6_2 1_555 1_555
C27_2 O10_2 1_555 1_555
Gd1_2 O1_2 1_555 1_555
Gd7 O1_2 1_555 1_555
C1_2 H1_2 1_555 1_555
C2_2 C1_2 1_555 1_555
H2_2 C2_2 1_555 1_555
H3_2 C2_2 1_555 1_555
C3_2 C2_2 1_555 1_555
H4_2 C3_2 1_555 1_555
H5_2 C3_2 1_555 1_555
C4_2 C3_2 1_555 1_555
C5_2 C1_2 1_555 1_555
C6_2 C1_2 1_555 1_555
C7_2 C4_2 1_555 1_555
C8_2 C4_2 1_555 1_555
H6_2 C8_2 1_555 1_555
H7_2 C8_2 1_555 1_555
H8_2 C8_2 1_555 1_555
C9_2 C5_2 1_555 1_555
H9_2 C9_2 1_555 1_555
H10_2 C9_2 1_555 1_555
H11_2 C9_2 1_555 1_555
C10_2 C5_2 1_555 1_555
H12_2 C10_2 1_555 1_555
H13_2 C10_2 1_555 1_555
H14_2 C10_2 1_555 1_555
O1_2 C6_2 1_555 1_555
O2_2 Gd7 1_555 1_555
O3_2 C7_2 1_555 1_555
O4_2 C7_2 1_555 1_555
O14_2 Gd1_2 1_555 1_555
H35 O14_2 1_555 1_555
H36_2 O14_2 1_555 1_555
Gd6 O3_2 1_555 1_555
O17_2 Gd1_2 1_555 1_555
O18_2 Gd7 1_555 1_555
O20_2 Gd1_2 1_555 1_555
O21_2 Gd7 1_555 1_555
C4_2 C5_2 1_555 1_555
C6_2 O2_2 1_555 1_555
O4_2 Gd6 1_555 1_555
Gd3 O1_3 1_555 1_555
Gd5 O1_3 1_555 1_555
H9_3 C9_3 1_555 1_555
H10_3 C9_3 1_555 1_555
H12_3 C10_3 1_555 1_555
H13_3 C10_3 1_555 1_555
H14_3 C10_3 1_555 1_555
C11_3 C12_3 1_555 1_555
C12_3 H15_3 1_555 1_555
H16_3 C12_3 1_555 1_555
C13_3 C12_3 1_555 1_555
H17_3 C13_3 1_555 1_555
H18_3 C13_3 1_555 1_555
C14_3 C13_3 1_555 1_555
H19_3 C14_3 1_555 1_555
C15_3 C11_3 1_555 1_555
C16_3 C11_3 1_555 1_555
C17_3 C14_3 1_555 1_555
C18_2 C11_3 1_555 1_555
H20_2 C18_2 1_555 1_555
H21_3 C18_2 1_555 1_555
H22_2 C18_2 1_555 1_555
C19_3 C15_3 1_555 1_555
H23_3 C19_3 1_555 1_555
H24_3 C19_3 1_555 1_555
H25_3 C19_3 1_555 1_555
C20_3 C15_3 1_555 1_555
H26_3 C20_3 1_555 1_555
H27_3 C20_3 1_555 1_555
H28_3 C20_3 1_555 1_555
C21_3 C22_3 1_555 1_555
C22_3 H29_3 1_555 1_555
C23_3 C22_3 1_555 1_555
H30_3 C23_3 1_555 1_555
C24_3 C23_3 1_555 1_555
C25_3 C24_3 1_555 1_555
H31_3 C25_3 1_555 1_555
C26_3 C21_3 1_555 1_555
H32_3 C26_3 1_555 1_555
C27_3 C21_3 1_555 1_555
C28_3 C24_3 1_555 1_555
O1_3 C6_3 1_555 1_555
O2_3 Gd5 1_555 1_555
O5_3 Gd5 1_555 1_555
O6_3 Gd3 1_555 1_555
O17 C17_3 1_555 1_555
O18 C17_3 1_555 1_555
O9_2 C27_3 1_555 1_555
O10_3 Gd3 1_555 1_555
O21 C28_3 1_555 1_555
O13_3 Gd3 1_555 1_555
H33_3 O13_3 1_555 1_555
H34_3 O13_3 1_555 1_555
O14_3 Gd3 1_555 1_555
H35_2 O14_3 1_555 1_555
H36_3 O14_3 1_555 1_555
Gd6 O9_2 1_555 1_555
O19_2 Gd5 1_555 1_555
C6_3 O2_3 1_555 1_555
C14_3 C15_3 1_555 1_555
C16_3 O5_3 1_555 1_555
C16_3 O6_3 1_555 1_555
C25_3 C26_3 1_555 1_555
C27_3 O10_3 1_555 1_555
C2_3 C1_3 1_555 1_555
H2_3 C2_3 1_555 1_555
H3_3 C2_3 1_555 1_555
C3_3 C2_3 1_555 1_555
H4_3 C3_3 1_555 1_555
H5_3 C3_3 1_555 1_555
C4_3 C3_3 1_555 1_555
C5_3 C1_3 1_555 1_555
C7_3 C4_3 1_555 1_555
C8_3 C4_3 1_555 1_555
H6_3 C8_3 1_555 1_555
H7_3 C8_3 1_555 1_555
H8_3 C8_3 1_555 1_555
O15 C7_3 1_555 1_555
O16 C7_3 1_555 1_555
C4_3 C5_3 1_555 1_555
Gd4 O1_4 1_555 1_555
Gd6 O1_4 1_555 1_555
C1_4 H1_4 1_555 1_555
C2_4 C1_4 1_555 1_555
H2_4 C2_4 1_555 1_555
H3_4 C2_4 1_555 1_555
C3_4 C2_4 1_555 1_555
H4_4 C3_4 1_555 1_555
H5_4 C3_4 1_555 1_555
C4_4 C3_4 1_555 1_555
C5_4 C1_4 1_555 1_555
C6_4 C1_4 1_555 1_555
C7_4 C4_4 1_555 1_555
C8_4 C4_4 1_555 1_555
H6_4 C8_4 1_555 1_555
H7_4 C8_4 1_555 1_555
H8_4 C8_4 1_555 1_555
C9_4 C5_4 1_555 1_555
H9_4 C9_4 1_555 1_555
H10_4 C9_4 1_555 1_555
H11_4 C9_4 1_555 1_555
C10_4 C5_4 1_555 1_555
H12_4 C10_4 1_555 1_555
H13_4 C10_4 1_555 1_555
H14_4 C10_4 1_555 1_555
H23_4 C19_4 1_555 1_555
H25_4 C19_4 1_555 1_555
C22_4 H29_4 1_555 1_555
O1_4 C6_4 1_555 1_555
O2_4 Gd6 1_555 1_555
O15_2 C7_4 1_555 1_555
O16_2 C7_4 1_555 1_555
O5_4 Gd6 1_555 1_555
O6_4 Gd4 1_555 1_555
O10_4 Gd4 1_555 1_555
O13_4 Gd4 1_555 1_555
H33_4 O13_4 1_555 1_555
H34_4 O13_4 1_555 1_555
O14_4 Gd4 1_555 1_555
H36_4 O14_4 1_555 1_555
C4_4 C5_4 1_555 1_555
C6_4 O2_4 1_555 1_555
C16_4 O5_4 1_555 1_555
C16_4 O6_4 1_555 1_555
C26_4 C21_4 1_555 1_555
H32_4 C26_4 1_555 1_555
C27_4 C21_4 1_555 1_555
O19_2 C27_4 1_555 1_555
C11_4 C12_4 1_555 1_555
C12_4 H15_4 1_555 1_555
H16_4 C12_4 1_555 1_555
C13_4 C12_4 1_555 1_555
H17_4 C13_4 1_555 1_555
H18_4 C13_4 1_555 1_555
C14_4 C13_4 1_555 1_555
H19_4 C14_4 1_555 1_555
C15_4 C11_4 1_555 1_555
C17_4 C14_4 1_555 1_555
C18_3 C11_4 1_555 1_555
H20_3 C18_3 1_555 1_555
H21_4 C18_3 1_555 1_555
H22_3 C18_3 1_555 1_555
C20_4 C15_4 1_555 1_555
H26_4 C20_4 1_555 1_555
H28_4 C20_4 1_555 1_555
H30_4 C23_4 1_555 1_555
C24_4 C23_4 1_555 1_555
C28_4 C24_4 1_555 1_555
O17_2 C17_4 1_555 1_555
O18_2 C17_4 1_555 1_555
O21_2 C28_4 1_555 1_555
C14_4 C15_4 1_555 1_555
H20_4 C18_4 1_555 1_555
H22_4 C18_4 1_555 1_555
H31_4 C25_4 1_555 1_555

#END
