
###############################################################################
#
# This file contains modified crystal structure data generated from the
# MOF subset of the Cambridge Structural Database (CSD) v543 
# hosted by the Cambridge Crystallographic Data Centre (CCDC).
#
# This work is licensed under the Creative Commons
# Attribution-NonCommercial-ShareAlike 4.0 International License.
# To view a copy of this license, visit
# http://creativecommons.org/licenses/by-nc-sa/4.0/
# or send a letter to
# Creative Commons, PO Box 1866, Mountain View, CA 94042, USA.
#
# CIF created using the CSD Python API on 29 September 2022
# The structure has been converted into the P1 space group
# The structure has a 3D framework
# The original CSD entry EXADAJ is in the orthorhombic crystal system
# The original CSD entry EXADAJ is in a Sohncke space group
# The framework has been calculated to contain at least 10.0% void space
# The void calculation uses a probe of radius 1.32A, grid spacing 0.4
#
###############################################################################

data_EXADAJ
_chemical_formula_moiety         '(C112 H144 Er8 O53)n'
_symmetry_cell_setting           triclinic
_symmetry_space_group_name_H-M   'P 1'
_symmetry_Int_Tables_number      1
_space_group_name_Hall           'P 1'
loop_
_symmetry_equiv_pos_site_id
_symmetry_equiv_pos_as_xyz
1 x,y,z
_cell_length_a                   12.888(4)
_cell_length_b                   14.048(4)
_cell_length_c                   18.836(6)
_cell_angle_alpha                90
_cell_angle_beta                 90
_cell_angle_gamma                90
_cell_volume                     3410.27
loop_
_atom_site_label
_atom_site_type_symbol
_atom_site_fract_x
_atom_site_fract_y
_atom_site_fract_z
C1 C 0.0103(10) 0.0961(9) 0.8300(8)
C2 C 0.1198(11) 0.0691(10) 0.8044(8)
H2 H 0.1178 0.0477 0.7554
H3 H 0.1482 0.0185 0.8335
C3 C 0.1880(11) 0.1615(9) 0.8111(8)
H4 H 0.2548 0.1469 0.8322
H5 H 0.1991 0.1904 0.7650
C4 C 0.1240(11) 0.2292(9) 0.8603(7)
C5 C 0.0060(10) 0.2077(10) 0.8360(8)
C7 C 0.1504(11) 0.3336(9) 0.8499(7)
C8 C 0.1397(14) 0.2019(11) 0.9394(8)
H6 H 0.2101 0.2149 0.9531
H7 H 0.1255 0.1353 0.9457
H8 H 0.0933 0.2385 0.9685
H11 H 0.0466 0.2415 0.7360
O3 O 0.1347(8) 0.3932(6) 0.8979(5)
O4 O 0.1978(9) 0.3596(6) 0.7938(4)
Er5 Er 0.22796(4) 0.52052(3) 0.82901(3)
Er1 Er 0.71345(4) 0.00108(4) 0.88577(3)
Er2 Er 0.77204(4) 0.02052(3) 0.67099(3)
H1 H 0.9984 0.0681 0.8769
C6 C 0.9293(10) 0.0572(9) 0.7777(7)
C9 C 0.9909(16) 0.2574(12) 0.7677(10)
H9 H 0.9904 0.3250 0.7756
H10 H 0.9261 0.2382 0.7472
C10 C 0.9283(13) 0.2379(10) 0.8890(10)
H12 H 0.9284 0.3061 0.8927
H13 H 0.9451 0.2107 0.9343
H14 H 0.8608 0.2166 0.8745
C18 C 0.4237(13) 0.0044(12) 0.6807(10)
H20 H 0.4228 0.0669 0.7012
H22 H 0.4760 0.0015 0.6444
O1 O 0.8374(7) 0.0314(7) 0.8032(5)
O2 O 0.9418(7) 0.0494(8) 0.7137(5)
O14 O 0.6210(9) 0.1001(7) 0.9624(5)
H36 H 0.6045 0.1556 0.9480
O17 O 0.6748(8) 0.1451(6) 0.8351(5)
O18 O 0.7157(8) 0.1596(6) 0.7206(4)
O19 O 0.8444(9) 0.1216(7) 0.5908(5)
O20 O 0.8434(6) 0.0186(6) 0.9653(4)
O21 O 0.6581(7) 0.0112(6) 0.5802(4)
C21 C 0.5614(11) 0.7757(9) 0.0162(7)
C25 C 0.4796(10) 0.6324(10) 0.0596(7)
H31 H 0.4665 0.5908 0.0970
C26 C 0.5433(11) 0.7117(11) 0.0717(7)
H32 H 0.5732 0.7215 0.1160
C27 C 0.6318(11) 0.8584(9) 0.0272(7)
O9 O 0.6556(9) 0.8784(7) 0.0908(5)
O11 O 0.3434(6) 0.4814(6) 0.0347(4)
Er4 Er 0.21345(4) 0.49892(4) 0.11423(3)
Er7 Er 0.72796(4) 0.97948(3) 0.17099(3)
C11 C 0.4472(10) 0.9326(10) 0.7370(7)
C12 C 0.3602(12) 0.9293(12) 0.7950(9)
H15 H 0.3894 0.9114 0.8406
H16 H 0.3274 0.9911 0.7997
C13 C 0.2863(14) 0.8597(12) 0.7721(10)
H17 H 0.2240 0.8913 0.7553
H18 H 0.2674 0.8191 0.8117
C14 C 0.3319(11) 0.8003(10) 0.7133(8)
H19 H 0.2989 0.8208 0.6690
C15 C 0.4472(10) 0.8285(9) 0.7086(7)
C16 C 0.5514(10) 0.9587(10) 0.7693(8)
C17 C 0.3132(10) 0.6924(9) 0.7203(6)
H21 H 0.3571 0.9908 0.6602
C19 C 0.5148(12) 0.7620(9) 0.7529(9)
H23 H 0.5138 0.6995 0.7325
H24 H 0.4885 0.7593 0.8005
H25 H 0.5848 0.7855 0.7536
C20 C 0.4882(15) 0.8189(14) 0.6315(7)
H26 H 0.4868 0.7532 0.6175
H27 H 0.5582 0.8423 0.6291
H28 H 0.4451 0.8554 0.6000
C22 C 0.5191(15) 0.7574(12) 0.9534(9)
H29 H 0.5338 0.7982 0.9159
C23 C 0.4556(13) 0.6824(11) 0.9410(7)
H30 H 0.4244 0.6751 0.8968
C24 C 0.4367(10) 0.6145(10) 0.9960(7)
C28 C 0.3667(11) 0.5294(10) 0.9813(8)
O5 O 0.6279(7) 0.9717(7) 0.7296(6)
O6 O 0.5573(8) 0.9624(8) 0.8365(5)
O7 O 0.3252(8) 0.6451(6) 0.6649(5)
O8 O 0.2843(8) 0.6596(6) 0.7794(4)
O10 O 0.6623(9) 0.9035(8) 0.9745(4)
O12 O 0.3419(7) 0.5112(6) 0.9198(4)
O13 O 0.7610(8) 0.8527(6) 0.8456(5)
H33 H 0.7627 0.8055 0.8731
H34 H 0.8055 0.8475 0.8130
Er3 Er 0.28655(4) 0.50108(4) 0.61423(3)
O15 O 0.8653(8) 0.8932(6) 0.6021(5)
O16 O 0.8022(9) 0.8596(6) 0.7062(4)
C11_2 C 0.0528(10) 0.0674(10) 0.2370(7)
C12_2 C 0.1398(12) 0.0707(12) 0.2950(9)
H15_2 H 0.1106 0.0886 0.3406
H16_2 H 0.1726 0.0089 0.2997
C13_2 C 0.2137(14) 0.1403(12) 0.2721(10)
H17_2 H 0.2760 0.1087 0.2553
H18_2 H 0.2326 0.1809 0.3117
C14_2 C 0.1681(11) 0.1997(10) 0.2133(8)
H19_2 H 0.2011 0.1792 0.1690
C15_2 C 0.0528(10) 0.1715(9) 0.2086(7)
C17_2 C 0.1868(10) 0.3076(9) 0.2203(6)
H21_2 H 0.1429 0.0092 0.1602
H24_2 H 0.0115 0.2407 0.3005
C20_2 C 0.0118(15) 0.1811(14) 0.1315(7)
H26_2 H 0.0132 0.2468 0.1175
H28_2 H 0.0549 0.1446 0.1000
C23_2 C 0.0444(13) 0.3176(11) 0.4410(7)
H30_2 H 0.0756 0.3249 0.3968
C24_2 C 0.0633(10) 0.3855(10) 0.4960(7)
C25_2 C 0.0204(10) 0.3676(10) 0.5596(7)
H31_2 H 0.0335 0.4092 0.5970
C28_2 C 0.1333(11) 0.4706(10) 0.4813(8)
O7_2 O 0.1748(8) 0.3549(6) 0.1649(5)
O8_2 O 0.2157(8) 0.3404(6) 0.2794(4)
O11_2 O 0.1566(6) 0.5186(6) 0.5347(4)
O12_2 O 0.1581(7) 0.4888(6) 0.4198(4)
Er6 Er 0.27204(4) 0.47948(3) 0.32901(3)
C16_2 C 0.9486(10) 0.0413(10) 0.2693(8)
C19_2 C 0.9852(12) 0.2380(9) 0.2529(9)
H23_2 H 0.9862 0.3005 0.2325
H25_2 H 0.9152 0.2145 0.2536
H27_2 H 0.9418 0.1577 0.1291
C21_2 C 0.9386(11) 0.2243(9) 0.5162(7)
C22_2 C 0.9809(15) 0.2426(12) 0.4534(9)
H29_2 H 0.9662 0.2018 0.4159
C26_2 C 0.9567(11) 0.2883(11) 0.5717(7)
H32_2 H 0.9268 0.2785 0.6160
C27_2 C 0.8682(11) 0.1416(9) 0.5272(7)
O5_2 O 0.8721(7) 0.0283(7) 0.2296(6)
O6_2 O 0.9427(8) 0.0376(8) 0.3365(5)
O10_2 O 0.8377(9) 0.0965(8) 0.4745(4)
O13_2 O 0.7390(8) 0.1473(6) 0.3456(5)
H33_2 H 0.7373 0.1945 0.3731
H34_2 H 0.6945 0.1525 0.3130
O15_2 O 0.6347(8) 0.1068(6) 0.1021(5)
O16_2 O 0.6978(9) 0.1404(6) 0.2062(4)
Er1_2 Er 0.78655(4) 0.99892(4) 0.38577(3)
C1_2 C 0.4897(10) 0.9039(9) 0.3300(8)
H1_2 H 0.5016 0.9319 0.3769
C2_2 C 0.3802(11) 0.9309(10) 0.3044(8)
H2_2 H 0.3822 0.9523 0.2554
H3_2 H 0.3518 0.9815 0.3335
C3_2 C 0.3120(11) 0.8385(9) 0.3111(8)
H4_2 H 0.2452 0.8531 0.3322
H5_2 H 0.3009 0.8096 0.2650
C4_2 C 0.3760(11) 0.7708(9) 0.3603(7)
C5_2 C 0.4940(10) 0.7923(10) 0.3360(8)
C6_2 C 0.5707(10) 0.9428(9) 0.2777(7)
C7_2 C 0.3496(11) 0.6664(9) 0.3499(7)
C8_2 C 0.3603(14) 0.7981(11) 0.4394(8)
H6_2 H 0.2899 0.7851 0.4531
H7_2 H 0.3745 0.8647 0.4457
H8_2 H 0.4067 0.7615 0.4685
C9_2 C 0.5091(16) 0.7426(12) 0.2677(10)
H9_2 H 0.5096 0.6750 0.2756
H10_2 H 0.5739 0.7618 0.2472
H11_2 H 0.4534 0.7585 0.2360
C10_2 C 0.5717(13) 0.7621(10) 0.3890(10)
H12_2 H 0.5716 0.6939 0.3927
H13_2 H 0.5549 0.7893 0.4343
H14_2 H 0.6392 0.7834 0.3745
O1_2 O 0.6626(7) 0.9686(7) 0.3032(5)
O2_2 O 0.5582(7) 0.9506(8) 0.2137(5)
O3_2 O 0.3653(8) 0.6068(6) 0.3979(5)
O4_2 O 0.3022(9) 0.6404(6) 0.2938(4)
O14_2 O 0.8790(9) 0.8999(7) 0.4624(5)
H35 H 0.8532 0.8960 0.5037
H36_2 H 0.8955 0.8444 0.4480
O17_2 O 0.8252(8) 0.8549(6) 0.3351(5)
O18_2 O 0.7843(8) 0.8404(6) 0.2206(4)
O20_2 O 0.6566(6) 0.9814(6) 0.4653(4)
O21_2 O 0.8419(7) 0.9888(6) 0.0802(4)
H1_3 H 0.0016 0.5681 0.6231
C6_3 C 0.0707(10) 0.5572(9) 0.7223(7)
C9_3 C 0.0091(16) 0.7574(12) 0.7323(10)
H9_3 H 0.0096 0.8250 0.7244
H10_3 H 0.0739 0.7382 0.7528
C10_3 C 0.0717(13) 0.7379(10) 0.6110(10)
H12_3 H 0.0716 0.8061 0.6073
H13_3 H 0.0549 0.7107 0.5657
H14_3 H 0.1392 0.7166 0.6255
C11_3 C 0.5528(10) 0.4326(10) 0.7630(7)
C12_3 C 0.6398(12) 0.4293(12) 0.7050(9)
H15_3 H 0.6106 0.4114 0.6594
H16_3 H 0.6726 0.4911 0.7003
C13_3 C 0.7137(14) 0.3597(12) 0.7279(10)
H17_3 H 0.7760 0.3913 0.7447
H18_3 H 0.7326 0.3191 0.6883
C14_3 C 0.6681(11) 0.3003(10) 0.7867(8)
H19_3 H 0.7011 0.3208 0.8310
C15_3 C 0.5528(10) 0.3285(9) 0.7914(7)
C16_3 C 0.4486(10) 0.4587(10) 0.7307(8)
C17_3 C 0.6868(10) 0.1924(9) 0.7797(6)
C18_2 C 0.5763(13) 0.5044(12) 0.8193(10)
H20_2 H 0.5772 0.5669 0.7988
H21_3 H 0.6429 0.4908 0.8398
H22_2 H 0.5240 0.5015 0.8556
C19_3 C 0.4852(12) 0.2620(9) 0.7471(9)
H23_3 H 0.4862 0.1995 0.7675
H24_3 H 0.5115 0.2593 0.6995
H25_3 H 0.4152 0.2855 0.7464
C20_3 C 0.5118(15) 0.3189(14) 0.8685(7)
H26_3 H 0.5132 0.2532 0.8825
H27_3 H 0.4418 0.3423 0.8709
H28_3 H 0.5549 0.3554 0.9000
C21_3 C 0.4386(11) 0.2757(9) 0.4838(7)
C22_3 C 0.4809(15) 0.2574(12) 0.5466(9)
H29_3 H 0.4662 0.2982 0.5841
C23_3 C 0.5444(13) 0.1824(11) 0.5590(7)
H30_3 H 0.5756 0.1751 0.6032
C24_3 C 0.5633(10) 0.1145(10) 0.5040(7)
C25_3 C 0.5204(10) 0.1324(10) 0.4404(7)
H31_3 H 0.5335 0.0908 0.4030
C26_3 C 0.4567(11) 0.2117(11) 0.4283(7)
H32_3 H 0.4268 0.2215 0.3840
C27_3 C 0.3682(11) 0.3584(9) 0.4728(7)
C28_3 C 0.6333(11) 0.0294(10) 0.5187(8)
O1_3 O 0.1626(7) 0.5314(7) 0.6968(5)
O2_3 O 0.0582(7) 0.5494(8) 0.7863(5)
O5_3 O 0.3721(7) 0.4717(7) 0.7704(6)
O6_3 O 0.4427(8) 0.4624(8) 0.6635(5)
O9_2 O 0.3444(9) 0.3784(7) 0.4092(5)
O10_3 O 0.3377(9) 0.4035(8) 0.5255(4)
O13_3 O 0.2390(8) 0.3527(6) 0.6544(5)
H33_3 H 0.2373 0.3055 0.6269
H34_3 H 0.1945 0.3475 0.6870
O14_3 O 0.3790(9) 0.6001(7) 0.5376(5)
H35_2 H 0.3532 0.6040 0.4963
H36_3 H 0.3955 0.6556 0.5520
O19_2 O 0.1556(9) 0.6216(7) 0.9092(5)
C1_3 C 0.9897(10) 0.5961(9) 0.6700(8)
C2_3 C 0.8802(11) 0.5691(10) 0.6956(8)
H2_3 H 0.8822 0.5477 0.7446
H3_3 H 0.8518 0.5185 0.6665
C3_3 C 0.8120(11) 0.6615(9) 0.6889(8)
H4_3 H 0.7452 0.6469 0.6678
H5_3 H 0.8009 0.6904 0.7350
C4_3 C 0.8760(11) 0.7292(9) 0.6397(7)
C5_3 C 0.9940(10) 0.7077(10) 0.6640(8)
C7_3 C 0.8496(11) 0.8336(9) 0.6501(7)
C8_3 C 0.8603(14) 0.7019(11) 0.5606(8)
H6_3 H 0.7899 0.7149 0.5469
H7_3 H 0.8745 0.6353 0.5543
H8_3 H 0.9067 0.7385 0.5315
H11_3 H 0.9534 0.7415 0.7640
C1_4 C 0.5103(10) 0.4039(9) 0.1700(8)
H1_4 H 0.4984 0.4319 0.1231
C2_4 C 0.6198(11) 0.4309(10) 0.1956(8)
H2_4 H 0.6178 0.4523 0.2446
H3_4 H 0.6482 0.4815 0.1665
C3_4 C 0.6880(11) 0.3385(9) 0.1889(8)
H4_4 H 0.7548 0.3531 0.1678
H5_4 H 0.6991 0.3096 0.2350
C4_4 C 0.6240(11) 0.2708(9) 0.1397(7)
C5_4 C 0.5060(10) 0.2923(10) 0.1640(8)
C6_4 C 0.4293(10) 0.4428(9) 0.2223(7)
C7_4 C 0.6504(11) 0.1664(9) 0.1501(7)
C8_4 C 0.6397(14) 0.2981(11) 0.0606(8)
H6_4 H 0.7101 0.2851 0.0469
H7_4 H 0.6255 0.3647 0.0543
H8_4 H 0.5933 0.2615 0.0315
C9_4 C 0.4909(16) 0.2426(12) 0.2323(10)
H9_4 H 0.4904 0.1750 0.2244
H10_4 H 0.4261 0.2618 0.2528
H11_4 H 0.5466 0.2585 0.2640
C10_4 C 0.4283(13) 0.2621(10) 0.1110(10)
H12_4 H 0.4284 0.1939 0.1073
H13_4 H 0.4451 0.2893 0.0657
H14_4 H 0.3608 0.2834 0.1255
C16_4 C 0.0514(10) 0.5413(10) 0.2307(8)
C19_4 C 0.0148(12) 0.7380(9) 0.2471(9)
H23_4 H 0.0138 0.8005 0.2675
H25_4 H 0.0848 0.7145 0.2464
H27_4 H 0.0582 0.6577 0.3709
C22_4 C 0.0191(15) 0.7426(12) 0.0466(9)
H29_4 H 0.0338 0.7018 0.0841
O1_4 O 0.3374(7) 0.4686(7) 0.1968(5)
O2_4 O 0.4418(7) 0.4506(8) 0.2863(5)
O5_4 O 0.1279(7) 0.5283(7) 0.2704(6)
O6_4 O 0.0573(8) 0.5376(8) 0.1635(5)
O10_4 O 0.1623(9) 0.5965(8) 0.0255(4)
O13_4 O 0.2610(8) 0.6473(6) 0.1544(5)
H33_4 H 0.2627 0.6945 0.1269
H34_4 H 0.3055 0.6525 0.1870
O14_4 O 0.1210(9) 0.3999(7) 0.0376(5)
H36_4 H 0.1045 0.3444 0.0520
C21_4 C 0.0614(11) 0.7243(9) 0.9838(7)
C26_4 C 0.0433(11) 0.7883(11) 0.9283(7)
H32_4 H 0.0732 0.7785 0.8840
C27_4 C 0.1318(11) 0.6416(9) 0.9728(7)
H35_3 H 0.1468 0.3960 0.9963
C11_4 C 0.9472(10) 0.5674(10) 0.2630(7)
C12_4 C 0.8602(12) 0.5707(12) 0.2050(9)
H15_4 H 0.8894 0.5886 0.1594
H16_4 H 0.8274 0.5089 0.2003
C13_4 C 0.7863(14) 0.6403(12) 0.2279(10)
H17_4 H 0.7240 0.6087 0.2447
H18_4 H 0.7674 0.6809 0.1883
C14_4 C 0.8319(11) 0.6997(10) 0.2867(8)
H19_4 H 0.7989 0.6792 0.3310
C15_4 C 0.9472(10) 0.6715(9) 0.2914(7)
C17_4 C 0.8132(10) 0.8076(9) 0.2797(6)
C18_3 C 0.9237(13) 0.4956(12) 0.3193(10)
H20_3 H 0.9228 0.4331 0.2988
H21_4 H 0.8571 0.5092 0.3398
H22_3 H 0.9760 0.4985 0.3556
H24_4 H 0.9885 0.7407 0.1995
C20_4 C 0.9882(15) 0.6811(14) 0.3685(7)
H26_4 H 0.9868 0.7468 0.3825
H28_4 H 0.9451 0.6446 0.4000
C23_4 C 0.9556(13) 0.8176(11) 0.0590(7)
H30_4 H 0.9244 0.8249 0.1032
C24_4 C 0.9367(10) 0.8855(10) 0.0040(7)
C28_4 C 0.8667(11) 0.9706(10) 0.0187(8)
H35_4 H 0.6468 0.1040 0.0037
C18_4 C 0.0763(13) 0.9956(12) 0.1807(10)
H20_4 H 0.0772 0.9331 0.2012
H22_4 H 0.0240 0.9985 0.1444
C25_4 C 0.9796(10) 0.8676(10) 0.9404(7)
H31_4 H 0.9665 0.9092 0.9030
loop_
_geom_bond_atom_site_label_1
_geom_bond_atom_site_label_2
_geom_bond_site_symmetry_1
_geom_bond_site_symmetry_2
C2 C1 1_555 1_555
H2 C2 1_555 1_555
H3 C2 1_555 1_555
C3 C2 1_555 1_555
H4 C3 1_555 1_555
H5 C3 1_555 1_555
C4 C3 1_555 1_555
C5 C1 1_555 1_555
C7 C4 1_555 1_555
C8 C4 1_555 1_555
H6 C8 1_555 1_555
H7 C8 1_555 1_555
H8 C8 1_555 1_555
O3 C7 1_555 1_555
O4 C7 1_555 1_555
Er5 O3 1_555 1_555
C4 C5 1_555 1_555
O4 Er5 1_555 1_555
Er1 O1 1_555 1_555
Er2 O1 1_555 1_555
H9 C9 1_555 1_555
H10 C9 1_555 1_555
H12 C10 1_555 1_555
H13 C10 1_555 1_555
H14 C10 1_555 1_555
H20 C18 1_555 1_555
H22 C18 1_555 1_555
O1 C6 1_555 1_555
O2 Er2 1_555 1_555
O14 Er1 1_555 1_555
H36 O14 1_555 1_555
O17 Er1 1_555 1_555
O18 Er2 1_555 1_555
O19 Er2 1_555 1_555
O20 Er1 1_555 1_555
O21 Er2 1_555 1_555
C6 O2 1_555 1_555
H31 C25 1_555 1_555
C26 C21 1_555 1_555
H32 C26 1_555 1_555
C27 C21 1_555 1_555
O9 C27 1_555 1_555
Er4 O11 1_555 1_555
Er7 O9 1_555 1_555
C25 C26 1_555 1_555
C11 C12 1_555 1_555
C12 H15 1_555 1_555
H16 C12 1_555 1_555
C13 C12 1_555 1_555
H17 C13 1_555 1_555
H18 C13 1_555 1_555
C14 C13 1_555 1_555
H19 C14 1_555 1_555
C15 C11 1_555 1_555
C16 C11 1_555 1_555
C17 C14 1_555 1_555
C19 C15 1_555 1_555
H23 C19 1_555 1_555
H24 C19 1_555 1_555
H25 C19 1_555 1_555
C20 C15 1_555 1_555
H26 C20 1_555 1_555
H27 C20 1_555 1_555
H28 C20 1_555 1_555
C22 H29 1_555 1_555
C23 C22 1_555 1_555
H30 C23 1_555 1_555
C24 C23 1_555 1_555
C28 C24 1_555 1_555
O7 C17 1_555 1_555
O8 C17 1_555 1_555
O12 C28 1_555 1_555
H33 O13 1_555 1_555
H34 O13 1_555 1_555
Er3 O7 1_555 1_555
Er5 O8 1_555 1_555
C14 C15 1_555 1_555
C16 O5 1_555 1_555
C16 O6 1_555 1_555
O12 Er5 1_555 1_555
C11_2 C12_2 1_555 1_555
C12_2 H15_2 1_555 1_555
H16_2 C12_2 1_555 1_555
C13_2 C12_2 1_555 1_555
H17_2 C13_2 1_555 1_555
H18_2 C13_2 1_555 1_555
C14_2 C13_2 1_555 1_555
H19_2 C14_2 1_555 1_555
C15_2 C11_2 1_555 1_555
C17_2 C14_2 1_555 1_555
C20_2 C15_2 1_555 1_555
H26_2 C20_2 1_555 1_555
H28_2 C20_2 1_555 1_555
H30_2 C23_2 1_555 1_555
C24_2 C23_2 1_555 1_555
C25_2 C24_2 1_555 1_555
H31_2 C25_2 1_555 1_555
C28_2 C24_2 1_555 1_555
O7_2 C17_2 1_555 1_555
O8_2 C17_2 1_555 1_555
O11_2 C28_2 1_555 1_555
O12_2 C28_2 1_555 1_555
Er4 O7_2 1_555 1_555
Er3 O11_2 1_555 1_555
Er6 O8_2 1_555 1_555
C14_2 C15_2 1_555 1_555
O12_2 Er6 1_555 1_555
H23_2 C19_2 1_555 1_555
H25_2 C19_2 1_555 1_555
C21_2 C22_2 1_555 1_555
C22_2 H29_2 1_555 1_555
C26_2 C21_2 1_555 1_555
H32_2 C26_2 1_555 1_555
C27_2 C21_2 1_555 1_555
O19 C27_2 1_555 1_555
H33_2 O13_2 1_555 1_555
H34_2 O13_2 1_555 1_555
C16_2 O5_2 1_555 1_555
C16_2 O6_2 1_555 1_555
C27_2 O10_2 1_555 1_555
Er1_2 O1_2 1_555 1_555
Er7 O1_2 1_555 1_555
C1_2 H1_2 1_555 1_555
C2_2 C1_2 1_555 1_555
H2_2 C2_2 1_555 1_555
H3_2 C2_2 1_555 1_555
C3_2 C2_2 1_555 1_555
H4_2 C3_2 1_555 1_555
H5_2 C3_2 1_555 1_555
C4_2 C3_2 1_555 1_555
C5_2 C1_2 1_555 1_555
C6_2 C1_2 1_555 1_555
C7_2 C4_2 1_555 1_555
C8_2 C4_2 1_555 1_555
H6_2 C8_2 1_555 1_555
H7_2 C8_2 1_555 1_555
H8_2 C8_2 1_555 1_555
C9_2 C5_2 1_555 1_555
H9_2 C9_2 1_555 1_555
H10_2 C9_2 1_555 1_555
H11_2 C9_2 1_555 1_555
C10_2 C5_2 1_555 1_555
H12_2 C10_2 1_555 1_555
H13_2 C10_2 1_555 1_555
H14_2 C10_2 1_555 1_555
O1_2 C6_2 1_555 1_555
O2_2 Er7 1_555 1_555
O3_2 C7_2 1_555 1_555
O4_2 C7_2 1_555 1_555
O14_2 Er1_2 1_555 1_555
H35 O14_2 1_555 1_555
H36_2 O14_2 1_555 1_555
Er6 O3_2 1_555 1_555
O17_2 Er1_2 1_555 1_555
O18_2 Er7 1_555 1_555
O20_2 Er1_2 1_555 1_555
O21_2 Er7 1_555 1_555
C4_2 C5_2 1_555 1_555
C6_2 O2_2 1_555 1_555
O4_2 Er6 1_555 1_555
Er3 O1_3 1_555 1_555
Er5 O1_3 1_555 1_555
H9_3 C9_3 1_555 1_555
H10_3 C9_3 1_555 1_555
H12_3 C10_3 1_555 1_555
H13_3 C10_3 1_555 1_555
H14_3 C10_3 1_555 1_555
C11_3 C12_3 1_555 1_555
C12_3 H15_3 1_555 1_555
H16_3 C12_3 1_555 1_555
C13_3 C12_3 1_555 1_555
H17_3 C13_3 1_555 1_555
H18_3 C13_3 1_555 1_555
C14_3 C13_3 1_555 1_555
H19_3 C14_3 1_555 1_555
C15_3 C11_3 1_555 1_555
C16_3 C11_3 1_555 1_555
C17_3 C14_3 1_555 1_555
C18_2 C11_3 1_555 1_555
H20_2 C18_2 1_555 1_555
H21_3 C18_2 1_555 1_555
H22_2 C18_2 1_555 1_555
C19_3 C15_3 1_555 1_555
H23_3 C19_3 1_555 1_555
H24_3 C19_3 1_555 1_555
H25_3 C19_3 1_555 1_555
C20_3 C15_3 1_555 1_555
H26_3 C20_3 1_555 1_555
H27_3 C20_3 1_555 1_555
H28_3 C20_3 1_555 1_555
C21_3 C22_3 1_555 1_555
C22_3 H29_3 1_555 1_555
C23_3 C22_3 1_555 1_555
H30_3 C23_3 1_555 1_555
C24_3 C23_3 1_555 1_555
C25_3 C24_3 1_555 1_555
H31_3 C25_3 1_555 1_555
C26_3 C21_3 1_555 1_555
H32_3 C26_3 1_555 1_555
C27_3 C21_3 1_555 1_555
C28_3 C24_3 1_555 1_555
O1_3 C6_3 1_555 1_555
O2_3 Er5 1_555 1_555
O5_3 Er5 1_555 1_555
O6_3 Er3 1_555 1_555
O17 C17_3 1_555 1_555
O18 C17_3 1_555 1_555
O9_2 C27_3 1_555 1_555
O10_3 Er3 1_555 1_555
O21 C28_3 1_555 1_555
O13_3 Er3 1_555 1_555
H33_3 O13_3 1_555 1_555
H34_3 O13_3 1_555 1_555
O14_3 Er3 1_555 1_555
H35_2 O14_3 1_555 1_555
H36_3 O14_3 1_555 1_555
Er6 O9_2 1_555 1_555
O19_2 Er5 1_555 1_555
C6_3 O2_3 1_555 1_555
C14_3 C15_3 1_555 1_555
C16_3 O5_3 1_555 1_555
C16_3 O6_3 1_555 1_555
C25_3 C26_3 1_555 1_555
C27_3 O10_3 1_555 1_555
C2_3 C1_3 1_555 1_555
H2_3 C2_3 1_555 1_555
H3_3 C2_3 1_555 1_555
C3_3 C2_3 1_555 1_555
H4_3 C3_3 1_555 1_555
H5_3 C3_3 1_555 1_555
C4_3 C3_3 1_555 1_555
C5_3 C1_3 1_555 1_555
C7_3 C4_3 1_555 1_555
C8_3 C4_3 1_555 1_555
H6_3 C8_3 1_555 1_555
H7_3 C8_3 1_555 1_555
H8_3 C8_3 1_555 1_555
O15 C7_3 1_555 1_555
O16 C7_3 1_555 1_555
C4_3 C5_3 1_555 1_555
Er4 O1_4 1_555 1_555
Er6 O1_4 1_555 1_555
C1_4 H1_4 1_555 1_555
C2_4 C1_4 1_555 1_555
H2_4 C2_4 1_555 1_555
H3_4 C2_4 1_555 1_555
C3_4 C2_4 1_555 1_555
H4_4 C3_4 1_555 1_555
H5_4 C3_4 1_555 1_555
C4_4 C3_4 1_555 1_555
C5_4 C1_4 1_555 1_555
C6_4 C1_4 1_555 1_555
C7_4 C4_4 1_555 1_555
C8_4 C4_4 1_555 1_555
H6_4 C8_4 1_555 1_555
H7_4 C8_4 1_555 1_555
H8_4 C8_4 1_555 1_555
C9_4 C5_4 1_555 1_555
H9_4 C9_4 1_555 1_555
H10_4 C9_4 1_555 1_555
H11_4 C9_4 1_555 1_555
C10_4 C5_4 1_555 1_555
H12_4 C10_4 1_555 1_555
H13_4 C10_4 1_555 1_555
H14_4 C10_4 1_555 1_555
H23_4 C19_4 1_555 1_555
H25_4 C19_4 1_555 1_555
C22_4 H29_4 1_555 1_555
O1_4 C6_4 1_555 1_555
O2_4 Er6 1_555 1_555
O15_2 C7_4 1_555 1_555
O16_2 C7_4 1_555 1_555
O5_4 Er6 1_555 1_555
O6_4 Er4 1_555 1_555
O10_4 Er4 1_555 1_555
O13_4 Er4 1_555 1_555
H33_4 O13_4 1_555 1_555
H34_4 O13_4 1_555 1_555
O14_4 Er4 1_555 1_555
H36_4 O14_4 1_555 1_555
C4_4 C5_4 1_555 1_555
C6_4 O2_4 1_555 1_555
C16_4 O5_4 1_555 1_555
C16_4 O6_4 1_555 1_555
C26_4 C21_4 1_555 1_555
H32_4 C26_4 1_555 1_555
C27_4 C21_4 1_555 1_555
O19_2 C27_4 1_555 1_555
C11_4 C12_4 1_555 1_555
C12_4 H15_4 1_555 1_555
H16_4 C12_4 1_555 1_555
C13_4 C12_4 1_555 1_555
H17_4 C13_4 1_555 1_555
H18_4 C13_4 1_555 1_555
C14_4 C13_4 1_555 1_555
H19_4 C14_4 1_555 1_555
C15_4 C11_4 1_555 1_555
C17_4 C14_4 1_555 1_555
C18_3 C11_4 1_555 1_555
H20_3 C18_3 1_555 1_555
H21_4 C18_3 1_555 1_555
H22_3 C18_3 1_555 1_555
C20_4 C15_4 1_555 1_555
H26_4 C20_4 1_555 1_555
H28_4 C20_4 1_555 1_555
H30_4 C23_4 1_555 1_555
C24_4 C23_4 1_555 1_555
C28_4 C24_4 1_555 1_555
O17_2 C17_4 1_555 1_555
O18_2 C17_4 1_555 1_555
O21_2 C28_4 1_555 1_555
C14_4 C15_4 1_555 1_555
H20_4 C18_4 1_555 1_555
H22_4 C18_4 1_555 1_555
H31_4 C25_4 1_555 1_555

#END
