
###############################################################################
#
# This file contains modified crystal structure data generated from the
# MOF subset of the Cambridge Structural Database (CSD) v543 
# hosted by the Cambridge Crystallographic Data Centre (CCDC).
#
# This work is licensed under the Creative Commons
# Attribution-NonCommercial-ShareAlike 4.0 International License.
# To view a copy of this license, visit
# http://creativecommons.org/licenses/by-nc-sa/4.0/
# or send a letter to
# Creative Commons, PO Box 1866, Mountain View, CA 94042, USA.
#
# CIF created using the CSD Python API on 29 September 2022
# The structure has been converted into the P1 space group
# The structure has a 3D framework
# The original CSD entry EXAXAE03 is in the tetragonal crystal system
# The framework has been calculated to contain at least 10.0% void space
# The void calculation uses a probe of radius 1.32A, grid spacing 0.4
# H atom positions have been added when not included in the experimental data
# Generated hydrogen atom positions removed from atoms on special positions
#
###############################################################################

data_EXAXAE03
_chemical_formula_moiety         '(C56 H56 Cu16 N8 O36)n'
_symmetry_cell_setting           triclinic
_symmetry_space_group_name_H-M   'P 1'
_symmetry_Int_Tables_number      1
_space_group_name_Hall           'P 1'
loop_
_symmetry_equiv_pos_site_id
_symmetry_equiv_pos_as_xyz
1 x,y,z
_cell_length_a                   19.3577(13)
_cell_length_b                   19.3577(13)
_cell_length_c                   11.0242(15)
_cell_angle_alpha                90
_cell_angle_beta                 90
_cell_angle_gamma                90
_cell_volume                     4130.99
loop_
_atom_site_label
_atom_site_type_symbol
_atom_site_fract_x
_atom_site_fract_y
_atom_site_fract_z
Cu1 Cu 0.2500 0.68089(9) 0.08787(13)
Cu2 Cu 0.46747(4) 0.46747(4) 0.60140(9)
C1 C 0.3083(3) 0.5793(4) 0.2599(6)
H1 H 0.3497 0.5953 0.2280
C2 C 0.3115(3) 0.5337(3) 0.3559(6)
C3 C 0.2500 0.5119(5) 0.4060(8)
H2 H 0.2500 0.4826 0.4729
C4 C 0.3811(3) 0.5157(3) 0.4111(6)
N1 N 0.2500 0.6017(5) 0.2100(8)
O1 O 0.3804(2) 0.4834(3) 0.5084(5)
O2 O 0.4313(3) 0.4313(3) 0.7636(8)
O3 O 0.4319(2) 0.5354(3) 0.3536(4)
C5 C 0.1917(3) 0.5793(4) 0.2599(6)
H3 H 0.1503 0.5953 0.2280
C6 C 0.1885(3) 0.5337(3) 0.3559(6)
C7 C 0.1189(3) 0.5157(3) 0.4111(6)
O4 O 0.1196(2) 0.4834(3) 0.5084(5)
O5 O 0.0681(2) 0.5354(3) 0.3536(4)
Cu5 Cu 0.03253(4) 0.46747(4) 0.60140(9)
Cu7 Cu 0.53253(4) 0.53253(4) 0.39860(9)
I2 I 0.13108(3) 0.7500 0.13527(8)
I3 I 0.36892(3) 0.7500 0.13527(8)
O6 O 0.4834(3) 0.3804(2) 0.5084(5)
O7 O 0.4646(3) 0.5681(2) 0.6464(4)
O8 O 0.5681(2) 0.4646(3) 0.6464(4)
I1 I 0.2500 0.63108(3) 0.86473(8)
Cu3 Cu 0.18089(9) 0.7500 0.91213(13)
Cu4 Cu 0.31911(9) 0.7500 0.91213(13)
Cu6 Cu 0.96747(4) 0.53253(4) 0.39860(9)
Cu2_2 Cu 0.03253(4) 0.03253(4) 0.60140(9)
H2_2 H 0.2500 0.0174 0.4729
O1_2 O 0.1196(2) 0.0166(3) 0.5084(5)
O2_2 O 0.0687(3) 0.0687(3) 0.7636(8)
O4_2 O 0.3804(2) 0.0166(3) 0.5084(5)
Cu5_2 Cu 0.46747(4) 0.03253(4) 0.60140(9)
O6_2 O 0.0166(3) 0.1196(2) 0.5084(5)
Cu1_2 Cu 0.2500 0.81911(9) 0.08787(13)
C1_2 C 0.1917(3) 0.9207(4) 0.2599(6)
H1_2 H 0.1503 0.9047 0.2280
C2_2 C 0.1885(3) 0.9663(3) 0.3559(6)
C3_2 C 0.2500 0.9881(5) 0.4060(8)
C4_2 C 0.1189(3) 0.9843(3) 0.4111(6)
N1_2 N 0.2500 0.8983(5) 0.2100(8)
O3_2 O 0.0681(2) 0.9646(3) 0.3536(4)
C5_2 C 0.3083(3) 0.9207(4) 0.2599(6)
H3_2 H 0.3497 0.9047 0.2280
C6_2 C 0.3115(3) 0.9663(3) 0.3559(6)
C7_2 C 0.3811(3) 0.9843(3) 0.4111(6)
O5_2 O 0.4319(2) 0.9646(3) 0.3536(4)
Cu6_2 Cu 0.53253(4) 0.96747(4) 0.39860(9)
O7_2 O 0.0354(3) 0.9319(2) 0.6464(4)
I1_2 I 0.2500 0.86892(3) 0.86473(8)
O8_2 O 0.9319(2) 0.0354(3) 0.6464(4)
Cu7_2 Cu 0.96747(4) 0.96747(4) 0.39860(9)
H2_3 H 0.0174 0.2500 0.4729
O1_3 O 0.0166(3) 0.3804(2) 0.5084(5)
O2_3 O 0.0687(3) 0.4313(3) 0.7636(8)
O8_3 O 0.0354(3) 0.5681(2) 0.6464(4)
Cu1_3 Cu 0.81911(9) 0.2500 0.08787(13)
C1_3 C 0.9207(4) 0.3083(3) 0.2599(6)
H1_3 H 0.9047 0.3497 0.2280
C2_3 C 0.9663(3) 0.3115(3) 0.3559(6)
C3_3 C 0.9881(5) 0.2500 0.4060(8)
C4_3 C 0.9843(3) 0.3811(3) 0.4111(6)
N1_3 N 0.8983(5) 0.2500 0.2100(8)
O3_3 O 0.9646(3) 0.4319(2) 0.3536(4)
C5_3 C 0.9207(4) 0.1917(3) 0.2599(6)
H3_3 H 0.9047 0.1503 0.2280
C6_3 C 0.9663(3) 0.1885(3) 0.3559(6)
C7_3 C 0.9843(3) 0.1189(3) 0.4111(6)
O5_3 O 0.9646(3) 0.0681(2) 0.3536(4)
I2_2 I 0.7500 0.13108(3) 0.13527(8)
I3_2 I 0.7500 0.36892(3) 0.13527(8)
O7_3 O 0.9319(2) 0.4646(3) 0.6464(4)
I1_3 I 0.86892(3) 0.2500 0.86473(8)
Cu3_2 Cu 0.7500 0.18089(9) 0.91213(13)
Cu4_2 Cu 0.7500 0.31911(9) 0.91213(13)
Cu1_4 Cu 0.68089(9) 0.2500 0.08787(13)
C1_4 C 0.5793(4) 0.1917(3) 0.2599(6)
H1_4 H 0.5953 0.1503 0.2280
C2_4 C 0.5337(3) 0.1885(3) 0.3559(6)
C3_4 C 0.5119(5) 0.2500 0.4060(8)
H2_4 H 0.4826 0.2500 0.4729
C4_4 C 0.5157(3) 0.1189(3) 0.4111(6)
N1_4 N 0.6017(5) 0.2500 0.2100(8)
O1_4 O 0.4834(3) 0.1196(2) 0.5084(5)
O2_4 O 0.4313(3) 0.0687(3) 0.7636(8)
O3_4 O 0.5354(3) 0.0681(2) 0.3536(4)
C5_4 C 0.5793(4) 0.3083(3) 0.2599(6)
H3_4 H 0.5953 0.3497 0.2280
C6_4 C 0.5337(3) 0.3115(3) 0.3559(6)
C7_4 C 0.5157(3) 0.3811(3) 0.4111(6)
O5_4 O 0.5354(3) 0.4319(2) 0.3536(4)
O7_4 O 0.5681(2) 0.0354(3) 0.6464(4)
I1_4 I 0.63108(3) 0.2500 0.86473(8)
O8_4 O 0.4646(3) 0.9319(2) 0.6464(4)
C1_5 C 0.6917(3) 0.0793(4) 0.7401(6)
H1_5 H 0.6503 0.0953 0.7720
C2_5 C 0.6885(3) 0.0337(3) 0.6441(6)
C3_5 C 0.7500 0.0119(5) 0.5940(8)
C4_5 C 0.6189(3) 0.0157(3) 0.5889(6)
N1_5 N 0.7500 0.1017(5) 0.7900(8)
C5_5 C 0.8083(3) 0.0793(4) 0.7401(6)
H3_5 H 0.8497 0.0953 0.7720
C6_5 C 0.8115(3) 0.0337(3) 0.6441(6)
C7_5 C 0.8811(3) 0.0157(3) 0.5889(6)
H2_5 H 0.7500 0.9826 0.5271
O1_5 O 0.6196(2) 0.9834(3) 0.4916(5)
O2_5 O 0.5687(3) 0.9313(3) 0.2364(8)
O4_3 O 0.8804(2) 0.9834(3) 0.4916(5)
O6_3 O 0.5166(3) 0.8804(2) 0.4916(5)
C1_6 C 0.8083(3) 0.4207(4) 0.7401(6)
H1_6 H 0.8497 0.4047 0.7720
C2_6 C 0.8115(3) 0.4663(3) 0.6441(6)
C3_6 C 0.7500 0.4881(5) 0.5940(8)
H2_6 H 0.7500 0.5174 0.5271
C4_6 C 0.8811(3) 0.4843(3) 0.5889(6)
N1_6 N 0.7500 0.3983(5) 0.7900(8)
O1_6 O 0.8804(2) 0.5166(3) 0.4916(5)
O2_6 O 0.9313(3) 0.5687(3) 0.2364(8)
C5_6 C 0.6917(3) 0.4207(4) 0.7401(6)
H3_6 H 0.6503 0.4047 0.7720
C6_6 C 0.6885(3) 0.4663(3) 0.6441(6)
C7_6 C 0.6189(3) 0.4843(3) 0.5889(6)
O4_4 O 0.6196(2) 0.5166(3) 0.4916(5)
O6_4 O 0.9834(3) 0.6196(2) 0.4916(5)
C1_7 C 0.0793(4) 0.8083(3) 0.7401(6)
H1_7 H 0.0953 0.8497 0.7720
C2_7 C 0.0337(3) 0.8115(3) 0.6441(6)
C3_7 C 0.0119(5) 0.7500 0.5940(8)
C4_7 C 0.0157(3) 0.8811(3) 0.5889(6)
N1_7 N 0.1017(5) 0.7500 0.7900(8)
C5_7 C 0.0793(4) 0.6917(3) 0.7401(6)
H3_7 H 0.0953 0.6503 0.7720
C6_7 C 0.0337(3) 0.6885(3) 0.6441(6)
C7_7 C 0.0157(3) 0.6189(3) 0.5889(6)
H2_7 H 0.9826 0.7500 0.5271
O1_7 O 0.9834(3) 0.8804(2) 0.4916(5)
O2_7 O 0.9313(3) 0.9313(3) 0.2364(8)
C1_8 C 0.4207(4) 0.6917(3) 0.7401(6)
H1_8 H 0.4047 0.6503 0.7720
C2_8 C 0.4663(3) 0.6885(3) 0.6441(6)
C3_8 C 0.4881(5) 0.7500 0.5940(8)
H2_8 H 0.5174 0.7500 0.5271
C4_8 C 0.4843(3) 0.6189(3) 0.5889(6)
N1_8 N 0.3983(5) 0.7500 0.7900(8)
O1_8 O 0.5166(3) 0.6196(2) 0.4916(5)
O2_8 O 0.5687(3) 0.5687(3) 0.2364(8)
C5_8 C 0.4207(4) 0.8083(3) 0.7401(6)
H3_8 H 0.4047 0.8497 0.7720
C6_8 C 0.4663(3) 0.8115(3) 0.6441(6)
C7_8 C 0.4843(3) 0.8811(3) 0.5889(6)
loop_
_geom_bond_atom_site_label_1
_geom_bond_atom_site_label_2
_geom_bond_site_symmetry_1
_geom_bond_site_symmetry_2
Cu2 O1 1_555 1_555
C1 H1 1_555 1_555
C2 C1 1_555 1_555
C3 C2 1_555 1_555
H2 C3 1_555 1_555
C4 C2 1_555 1_555
N1 Cu1 1_555 1_555
O1 C4 1_555 1_555
O2 Cu2 1_555 1_555
O3 C4 1_555 1_555
C5 N1 1_555 1_555
H3 C5 1_555 1_555
C6 C3 1_555 1_555
C7 C6 1_555 1_555
O4 C7 1_555 1_555
O5 C7 1_555 1_555
Cu5 O4 1_555 1_555
Cu7 O3 1_555 1_555
I2 Cu1 1_555 1_555
I3 Cu1 1_555 1_555
O6 Cu2 1_555 1_555
O7 Cu2 1_555 1_555
O8 Cu2 1_555 1_555
C1 N1 1_555 1_555
C5 C6 1_555 1_555
I1 Cu3 1_555 1_555
Cu4 I1 1_555 1_555
Cu2_2 O1_2 1_555 1_555
O2_2 Cu2_2 1_555 1_555
Cu5_2 O4_2 1_555 1_555
O6_2 Cu2_2 1_555 1_555
C1_2 H1_2 1_555 1_555
C2_2 C1_2 1_555 1_555
C3_2 C2_2 1_555 1_555
C4_2 C2_2 1_555 1_555
N1_2 Cu1_2 1_555 1_555
O3_2 C4_2 1_555 1_555
C5_2 N1_2 1_555 1_555
H3_2 C5_2 1_555 1_555
C6_2 C3_2 1_555 1_555
C7_2 C6_2 1_555 1_555
O5_2 C7_2 1_555 1_555
Cu6_2 O5_2 1_555 1_555
I3 Cu1_2 1_555 1_555
I2 Cu1_2 1_555 1_555
C1_2 N1_2 1_555 1_555
C5_2 C6_2 1_555 1_555
I1_2 Cu4 1_555 1_555
Cu3 I1_2 1_555 1_555
Cu5 O1_3 1_555 1_555
O2_3 Cu5 1_555 1_555
O8_3 Cu5 1_555 1_555
C1_3 H1_3 1_555 1_555
C2_3 C1_3 1_555 1_555
C3_3 C2_3 1_555 1_555
C4_3 C2_3 1_555 1_555
N1_3 Cu1_3 1_555 1_555
O3_3 C4_3 1_555 1_555
C5_3 N1_3 1_555 1_555
H3_3 C5_3 1_555 1_555
C6_3 C3_3 1_555 1_555
C7_3 C6_3 1_555 1_555
O5_3 C7_3 1_555 1_555
Cu6 O3_3 1_555 1_555
I2_2 Cu1_3 1_555 1_555
I3_2 Cu1_3 1_555 1_555
C1_3 N1_3 1_555 1_555
C5_3 C6_3 1_555 1_555
I1_3 Cu3_2 1_555 1_555
Cu4_2 I1_3 1_555 1_555
Cu5_2 O1_4 1_555 1_555
C1_4 H1_4 1_555 1_555
C2_4 C1_4 1_555 1_555
C3_4 C2_4 1_555 1_555
H2_4 C3_4 1_555 1_555
C4_4 C2_4 1_555 1_555
N1_4 Cu1_4 1_555 1_555
O1_4 C4_4 1_555 1_555
O2_4 Cu5_2 1_555 1_555
O3_4 C4_4 1_555 1_555
C5_4 N1_4 1_555 1_555
H3_4 C5_4 1_555 1_555
C6_4 C3_4 1_555 1_555
C7_4 C6_4 1_555 1_555
O6 C7_4 1_555 1_555
O5_4 C7_4 1_555 1_555
Cu7 O5_4 1_555 1_555
I3_2 Cu1_4 1_555 1_555
I2_2 Cu1_4 1_555 1_555
O7_4 Cu5_2 1_555 1_555
C1_4 N1_4 1_555 1_555
C5_4 C6_4 1_555 1_555
I1_4 Cu4_2 1_555 1_555
Cu3_2 I1_4 1_555 1_555
C1_5 H1_5 1_555 1_555
C2_5 C1_5 1_555 1_555
C3_5 C2_5 1_555 1_555
C4_5 C2_5 1_555 1_555
N1_5 Cu3_2 1_555 1_555
O7_4 C4_5 1_555 1_555
C5_5 N1_5 1_555 1_555
H3_5 C5_5 1_555 1_555
C6_5 C3_5 1_555 1_555
C7_5 C6_5 1_555 1_555
O8_2 C7_5 1_555 1_555
C1_5 N1_5 1_555 1_555
C5_5 C6_5 1_555 1_555
Cu6_2 O1_5 1_555 1_555
O2_5 Cu6_2 1_555 1_555
Cu7_2 O4_3 1_555 1_555
O6_3 Cu6_2 1_555 1_555
Cu6 O1_6 1_555 1_555
C1_6 H1_6 1_555 1_555
C2_6 C1_6 1_555 1_555
C3_6 C2_6 1_555 1_555
H2_6 C3_6 1_555 1_555
C4_6 C2_6 1_555 1_555
N1_6 Cu4_2 1_555 1_555
O1_6 C4_6 1_555 1_555
O2_6 Cu6 1_555 1_555
O7_3 C4_6 1_555 1_555
C5_6 N1_6 1_555 1_555
H3_6 C5_6 1_555 1_555
C6_6 C3_6 1_555 1_555
C7_6 C6_6 1_555 1_555
O4_4 C7_6 1_555 1_555
O8 C7_6 1_555 1_555
Cu7 O4_4 1_555 1_555
O6_4 Cu6 1_555 1_555
C1_6 N1_6 1_555 1_555
C5_6 C6_6 1_555 1_555
C1_7 H1_7 1_555 1_555
C2_7 C1_7 1_555 1_555
C3_7 C2_7 1_555 1_555
C4_7 C2_7 1_555 1_555
N1_7 Cu3 1_555 1_555
O7_2 C4_7 1_555 1_555
C5_7 N1_7 1_555 1_555
H3_7 C5_7 1_555 1_555
C6_7 C3_7 1_555 1_555
C7_7 C6_7 1_555 1_555
O8_3 C7_7 1_555 1_555
C1_7 N1_7 1_555 1_555
C5_7 C6_7 1_555 1_555
Cu7_2 O1_7 1_555 1_555
O2_7 Cu7_2 1_555 1_555
Cu7 O1_8 1_555 1_555
C1_8 H1_8 1_555 1_555
C2_8 C1_8 1_555 1_555
C3_8 C2_8 1_555 1_555
H2_8 C3_8 1_555 1_555
C4_8 C2_8 1_555 1_555
N1_8 Cu4 1_555 1_555
O1_8 C4_8 1_555 1_555
O2_8 Cu7 1_555 1_555
O7 C4_8 1_555 1_555
C5_8 N1_8 1_555 1_555
H3_8 C5_8 1_555 1_555
C6_8 C3_8 1_555 1_555
C7_8 C6_8 1_555 1_555
O6_3 C7_8 1_555 1_555
O8_4 C7_8 1_555 1_555
C1_8 N1_8 1_555 1_555
C5_8 C6_8 1_555 1_555

#END
