
###############################################################################
#
# This file contains modified crystal structure data generated from the
# MOF subset of the Cambridge Structural Database (CSD) v543 
# hosted by the Cambridge Crystallographic Data Centre (CCDC).
#
# This work is licensed under the Creative Commons
# Attribution-NonCommercial-ShareAlike 4.0 International License.
# To view a copy of this license, visit
# http://creativecommons.org/licenses/by-nc-sa/4.0/
# or send a letter to
# Creative Commons, PO Box 1866, Mountain View, CA 94042, USA.
#
# CIF created using the CSD Python API on 29 September 2022
# The structure has been converted into the P1 space group
# The structure has a 3D framework
# The original CSD entry EXAYOS is in the monoclinic crystal system
# The framework has been calculated to contain at least 10.0% void space
# The void calculation uses a probe of radius 1.32A, grid spacing 0.4
# H atom positions have been added when not included in the experimental data
#
###############################################################################

data_EXAYOS
_chemical_formula_moiety         '(C24 H92 B4 Ce8 K4 N4 O198 W44)n'
_symmetry_cell_setting           triclinic
_symmetry_space_group_name_H-M   'P 1'
_symmetry_Int_Tables_number      1
_space_group_name_Hall           'P 1'
loop_
_symmetry_equiv_pos_site_id
_symmetry_equiv_pos_as_xyz
1 x,y,z
_cell_length_a                   18.675(4)
_cell_length_b                   17.471(4)
_cell_length_c                   22.460(3)
_cell_angle_alpha                90
_cell_angle_beta                 121.781(12)
_cell_angle_gamma                90
_cell_volume                     6229.33
loop_
_atom_site_label
_atom_site_type_symbol
_atom_site_fract_x
_atom_site_fract_y
_atom_site_fract_z
Ce3 Ce 0.38315(6) 0.35500(6) 0.00613(5)
O51 O 0.5770(8) 0.6743(7) 0.0832(7)
O53 O 0.7633(7) 0.6029(7) 0.0715(6)
O55 O 0.7054(7) 0.7484(7) 0.0809(6)
O56 O 0.6298(7) 0.5370(7) 0.0737(6)
W12 W 0.94808(4) 0.57775(4) 0.35191(4)
O54 O 0.9485(8) 0.4552(7) 0.6081(6)
Ce2 Ce 0.83246(7) 0.97027(6) 0.09970(5)
O14 O 0.8193(8) 0.8588(7) 0.1613(6)
O37 O 0.8512(8) 0.9267(7) 0.0041(6)
O40 O 0.7072(11) 0.9898(11) 0.1018(11)
C2 C 0.5826(15) 0.9780(14) 0.0994(12)
C4 C 0.4541(17) 0.9680(15) 0.0971(14)
H2 H 0.4175 0.9862 0.1102
C5 C 0.4854(16) 0.8747(15) 0.0452(13)
H3 H 0.4705 0.8283 0.0212
C6 C 0.5610(15) 0.9093(13) 0.0633(11)
H4 H 0.5968 0.8867 0.0514
N1 N 0.4358(14) 0.9063(15) 0.0613(13)
H5 H 0.3880 0.8850 0.0474
O48 O 0.9346(12) 0.9829(10) 0.2330(8)
O49 O 0.7147(9) 0.8794(8) 0.0100(6)
O50 O 0.9565(9) 0.8725(9) 0.1384(8)
W13 W 0.78386(5) 0.77001(4) 0.16865(4)
H18 H 0.670345 0.874406 0.0215074
H20 H 0.933195 0.822125 0.116035
H21 H 0.994839 0.891813 0.123651
H22 H 0.974105 0.938833 0.250425
W2 W 0.82673(5) 0.90817(4) 0.91837(4)
W3 W 0.94808(4) 0.92225(4) 0.85191(4)
W4 W 0.60154(5) 0.86016(5) 0.80353(4)
W5 W 0.85243(5) 0.90364(5) 0.65799(4)
W7 W 0.52630(5) 0.83815(4) 0.62989(4)
W8 W 0.87559(5) 0.75133(4) 0.86156(4)
W10 W 0.78386(5) 0.72999(4) 0.66865(4)
W11 W 0.65337(5) 0.70697(4) 0.74665(4)
B1 B 0.7351(11) 0.8884(10) 0.7459(9)
O1 O 0.7120(7) 0.9728(6) 0.7299(6)
O2 O 0.8123(7) 0.8746(6) 0.8161(5)
O3 O 0.6606(7) 0.8435(6) 0.7369(6)
O4 O 0.7527(7) 0.8578(7) 0.6893(6)
O5 O 0.6352(9) 0.6130(8) 0.7544(7)
O6 O 0.4211(9) 0.8289(8) 0.5690(8)
O7 O 0.9345(8) 0.6734(7) 0.9082(6)
O9 O 0.5770(8) 0.8257(7) 0.5832(7)
O10 O 0.8602(8) 0.7367(7) 0.7741(6)
O13 O 0.9284(8) 0.9422(7) 0.9282(6)
O16 O 0.9254(7) 0.8973(7) 0.7653(6)
O17 O 0.6172(8) 0.7506(7) 0.8046(6)
O18 O 0.5495(8) 0.7361(7) 0.6657(6)
O19 O 0.7633(7) 0.8971(7) 0.5715(6)
O20 O 0.9682(7) 0.8203(7) 0.8828(6)
O21 O 0.8715(8) 0.8049(7) 0.9342(6)
O22 O 0.5538(8) 0.8573(8) 0.8518(7)
O23 O 0.7042(8) 0.7018(7) 0.6928(6)
O24 O 0.6125(7) 0.9679(7) 0.7960(6)
O26 O 0.7175(7) 0.8650(6) 0.8808(6)
O28 O 0.5389(7) 0.9469(7) 0.6343(6)
O30 O 0.7725(7) 0.9998(7) 0.8758(6)
O31 O 0.9326(7) 0.9281(8) 0.6453(7)
O33 O 0.7054(7) 0.7516(7) 0.5809(6)
O34 O 0.8671(8) 0.7935(7) 0.6691(6)
O35 O 0.7669(8) 0.7156(7) 0.8266(6)
O38 O 0.6298(7) 0.9630(7) 0.5737(6)
O39 O 0.5096(7) 0.8549(7) 0.7144(6)
Ce3_2 Ce 0.61685(6) 0.85500(6) 0.49387(5)
O52 O 0.8193(8) 0.6412(7) 0.6613(6)
H19 H 0.689641 0.900817 0.962102
W1 W 0.60259(4) 0.47828(4) 0.12285(4)
W2_2 W 0.82673(5) 0.59183(4) 0.41837(4)
W4_2 W 0.60154(5) 0.63984(5) 0.30353(4)
W5_2 W 0.85243(5) 0.59636(5) 0.15799(4)
W6 W 0.67748(5) 0.44784(4) 0.29545(4)
W7_2 W 0.52630(5) 0.66185(4) 0.12989(4)
W8_2 W 0.87559(5) 0.74867(4) 0.36156(4)
W9 W 0.80449(5) 0.43122(4) 0.23424(4)
W11_2 W 0.65337(5) 0.79303(4) 0.24665(4)
Ce2_2 Ce 0.83246(7) 0.52973(6) 0.59970(5)
B1_2 B 0.7351(11) 0.6116(10) 0.2459(9)
O1_2 O 0.7120(7) 0.5272(6) 0.2299(6)
O2_2 O 0.8123(7) 0.6254(6) 0.3161(5)
O3_2 O 0.6606(7) 0.6565(6) 0.2369(6)
O4_2 O 0.7527(7) 0.6422(7) 0.1893(6)
O5_2 O 0.6352(9) 0.8870(8) 0.2544(7)
O6_2 O 0.4211(9) 0.6711(8) 0.0690(8)
O7_2 O 0.9345(8) 0.8266(7) 0.4082(6)
O8 O 0.6550(9) 0.3820(8) 0.3400(7)
O10_2 O 0.8602(8) 0.7633(7) 0.2741(6)
O11 O 0.5224(8) 0.4186(7) 0.0597(6)
O12 O 0.5995(7) 0.4236(7) 0.2044(6)
O13_2 O 0.9284(8) 0.5578(7) 0.4282(6)
O15 O 0.8256(7) 0.4995(7) 0.1793(6)
O16_2 O 0.9254(7) 0.6027(7) 0.2653(6)
O17_2 O 0.6172(8) 0.7494(7) 0.3046(6)
O18_2 O 0.5495(8) 0.7639(7) 0.1657(6)
O20_2 O 0.9682(7) 0.6797(7) 0.3828(6)
O21_2 O 0.8715(8) 0.6951(7) 0.4342(6)
O22_2 O 0.5538(8) 0.6427(8) 0.3518(7)
O23_2 O 0.7042(8) 0.7982(7) 0.1928(6)
O24_2 O 0.6125(7) 0.5321(7) 0.2960(6)
O25 O 0.8590(8) 0.3524(8) 0.2342(7)
O26_2 O 0.7175(7) 0.6350(6) 0.3808(6)
O28_2 O 0.5389(7) 0.5531(7) 0.1343(6)
O29 O 0.7609(8) 0.3912(6) 0.2884(6)
O30_2 O 0.7725(7) 0.5002(7) 0.3758(6)
O31_2 O 0.9326(7) 0.5719(8) 0.1453(7)
O32 O 0.8879(7) 0.4829(7) 0.3134(6)
O34_2 O 0.8671(8) 0.7065(7) 0.1691(6)
O35_2 O 0.7669(8) 0.7844(7) 0.3266(6)
O36 O 0.6967(7) 0.4087(7) 0.1525(6)
O37_2 O 0.8512(8) 0.5733(7) 0.5041(6)
O39_2 O 0.5096(7) 0.6451(7) 0.2144(6)
O40_2 O 0.7072(11) 0.5102(11) 0.6018(11)
O41 O 0.6813(16) 0.4193(16) 0.6506(14)
C1 C 0.663(2) 0.480(2) 0.6165(18)
C2_2 C 0.5826(15) 0.5220(14) 0.5994(12)
C3 C 0.5265(15) 0.4920(15) 0.6167(14)
H1 H 0.5380 0.4460 0.6410
C4_2 C 0.4541(17) 0.5320(15) 0.5971(14)
H2_2 H 0.4175 0.5138 0.6102
C5_2 C 0.4854(16) 0.6253(15) 0.5452(13)
H3_2 H 0.4705 0.6717 0.5212
C6_2 C 0.5610(15) 0.5907(13) 0.5633(11)
H4_2 H 0.5968 0.6133 0.5514
N1_2 N 0.4358(14) 0.5937(15) 0.5613(13)
H5_2 H 0.3880 0.6150 0.5474
O42 O 0.3543(12) 0.4729(10) 0.0529(8)
O43 O 0.4530(10) 0.3466(8) 0.1400(7)
O44 O 0.4718(9) 0.2307(8) 0.0532(7)
O45 O 0.2912(8) 0.2916(8) 0.0464(7)
O46 O 0.8249(11) 0.3921(10) 0.6391(10)
O47 O 0.7563(10) 0.4418(9) 0.4944(8)
O48_2 O 0.9346(12) 0.5171(10) 0.7330(8)
O49_2 O 0.7147(9) 0.6206(8) 0.5100(6)
O50_2 O 0.9565(9) 0.6275(9) 0.6384(8)
H6 H 0.322021 0.247629 0.0775101
H7 H 0.237901 0.273205 0.00487367
H8 H 0.870895 0.384674 0.688643
H9 H 0.831258 0.354533 0.609013
H10 H 0.709491 0.415539 0.494944
H11 H 0.796358 0.403083 0.496258
H12 H 0.393368 0.475038 0.104496
H13 H 0.295253 0.471805 0.0416072
H14 H 0.506942 0.318132 0.160357
H15 H 0.414828 0.319414 0.151204
H16 H 0.50663 0.224582 0.0320384
H17 H 0.433588 0.186023 0.0406416
H18_2 H 0.670345 0.625594 0.521507
H19_2 H 0.689641 0.599183 0.462102
H20_2 H 0.933195 0.677875 0.616035
H21_2 H 0.994839 0.608187 0.623651
H22_2 H 0.974105 0.561167 0.750425
H23 H 0.966983 0.468712 0.743432
W1_2 W 0.39741(4) 0.97828(4) 0.37715(4)
W6_2 W 0.32252(5) 0.94784(4) 0.20455(4)
W9_2 W 0.19551(5) 0.93122(4) 0.26576(4)
O8_2 O 0.3450(9) 0.8820(8) 0.1600(7)
O11_2 O 0.4776(8) 0.9186(7) 0.4403(6)
O12_2 O 0.4005(7) 0.9236(7) 0.2956(6)
O15_2 O 0.1744(7) 0.9995(7) 0.3207(6)
O25_2 O 0.1410(8) 0.8524(8) 0.2658(7)
O29_2 O 0.2391(8) 0.8912(6) 0.2116(6)
O32_2 O 0.1121(7) 0.9829(7) 0.1866(6)
O36_2 O 0.3033(7) 0.9087(7) 0.3475(6)
O42_2 O 0.6457(12) 0.9729(10) 0.4471(8)
O43_2 O 0.5470(10) 0.8466(8) 0.3600(7)
O44_2 O 0.5282(9) 0.7307(8) 0.4468(7)
O45_2 O 0.7088(8) 0.7916(8) 0.4536(7)
O47_2 O 0.2437(10) 0.9418(9) 0.0056(8)
H6_2 H 0.677979 0.747629 0.42249
H7_2 H 0.762099 0.773205 0.495126
H10_2 H 0.290509 0.915539 0.00505601
H11_2 H 0.203642 0.903083 0.00374172
H12_2 H 0.606632 0.975038 0.395504
H13_2 H 0.704747 0.971805 0.458393
H14_2 H 0.493058 0.818132 0.339643
H15_2 H 0.585172 0.819414 0.348796
H16_2 H 0.49337 0.724582 0.467962
H17_2 H 0.566412 0.686023 0.459358
W1_3 W 0.39741(4) 0.52172(4) 0.87715(4)
W2_3 W 0.17327(5) 0.40817(4) 0.58163(4)
W3_2 W 0.05192(4) 0.42225(4) 0.64809(4)
W4_3 W 0.39846(5) 0.36016(5) 0.69647(4)
W5_3 W 0.14757(5) 0.40364(5) 0.84201(4)
W6_3 W 0.32252(5) 0.55216(4) 0.70455(4)
W7_3 W 0.47370(5) 0.33815(4) 0.87011(4)
W8_3 W 0.12441(5) 0.25133(4) 0.63844(4)
W9_3 W 0.19551(5) 0.56878(4) 0.76576(4)
W10_2 W 0.21614(5) 0.22999(4) 0.83135(4)
W11_3 W 0.34663(5) 0.20697(4) 0.75335(4)
Ce1 Ce 0.61685(6) 0.64500(6) 0.99387(5)
Ce2_3 Ce 0.16754(7) 0.47027(6) 0.40030(5)
B1_3 B 0.2649(11) 0.3884(10) 0.7541(9)
O1_3 O 0.2880(7) 0.4728(6) 0.7701(6)
O2_3 O 0.1877(7) 0.3746(6) 0.6839(5)
O3_3 O 0.3394(7) 0.3435(6) 0.7631(6)
O4_3 O 0.2473(7) 0.3578(7) 0.8107(6)
O5_3 O 0.3648(9) 0.1130(8) 0.7456(7)
O6_3 O 0.5789(9) 0.3289(8) 0.9310(8)
O7_3 O 0.0655(8) 0.1734(7) 0.5918(6)
O8_3 O 0.3450(9) 0.6180(8) 0.6600(7)
O9_2 O 0.4230(8) 0.3257(7) 0.9168(7)
O10_3 O 0.1398(8) 0.2367(7) 0.7259(6)
O11_3 O 0.4776(8) 0.5814(7) 0.9403(6)
O12_3 O 0.4005(7) 0.5764(7) 0.7956(6)
O13_3 O 0.0716(8) 0.4422(7) 0.5718(6)
O14_2 O 0.1807(8) 0.3588(7) 0.3387(6)
O15_3 O 0.1744(7) 0.5005(7) 0.8207(6)
O16_3 O 0.0746(7) 0.3973(7) 0.7347(6)
O17_3 O 0.3828(8) 0.2506(7) 0.6954(6)
O18_3 O 0.4505(8) 0.2361(7) 0.8343(6)
O19_2 O 0.2367(7) 0.3971(7) 0.9285(6)
O20_3 O 0.0318(7) 0.3203(7) 0.6172(6)
O21_3 O 0.1285(8) 0.3049(7) 0.5658(6)
O22_3 O 0.4462(8) 0.3573(8) 0.6482(7)
O23_3 O 0.2958(8) 0.2018(7) 0.8072(6)
O24_3 O 0.3875(7) 0.4679(7) 0.7040(6)
O25_3 O 0.1410(8) 0.6476(8) 0.7658(7)
O26_3 O 0.2825(7) 0.3650(6) 0.6192(6)
O27 O 0.0515(8) 0.5448(7) 0.3919(6)
O28_3 O 0.4611(7) 0.4469(7) 0.8657(6)
O29_3 O 0.2391(8) 0.6088(6) 0.7116(6)
O30_3 O 0.2275(7) 0.4998(7) 0.6242(6)
O31_3 O 0.0674(7) 0.4281(8) 0.8547(7)
O32_3 O 0.1121(7) 0.5171(7) 0.6866(6)
O33_2 O 0.2946(7) 0.2516(7) 0.9191(6)
O34_3 O 0.1329(8) 0.2935(7) 0.8309(6)
O35_3 O 0.2331(8) 0.2156(7) 0.6734(6)
O36_3 O 0.3033(7) 0.5913(7) 0.8475(6)
O37_3 O 0.1488(8) 0.4267(7) 0.4959(6)
O38_2 O 0.3702(7) 0.4630(7) 0.9263(6)
O39_3 O 0.4904(7) 0.3549(7) 0.7856(6)
O40_3 O 0.2928(11) 0.4898(11) 0.3982(11)
O41_2 O 0.3187(16) 0.5807(16) 0.3494(14)
C1_2 C 0.337(2) 0.520(2) 0.3835(18)
C2_3 C 0.4174(15) 0.4780(14) 0.4006(12)
C3_2 C 0.4735(15) 0.5080(15) 0.3833(14)
H1_2 H 0.4620 0.5540 0.3590
C4_3 C 0.5459(17) 0.4680(15) 0.4029(14)
H2_3 H 0.5825 0.4862 0.3898
C5_3 C 0.5146(16) 0.3747(15) 0.4548(13)
H3_3 H 0.5295 0.3283 0.4788
C6_3 C 0.4390(15) 0.4093(13) 0.4367(11)
H4_3 H 0.4032 0.3867 0.4486
N1_3 N 0.5642(14) 0.4063(15) 0.4387(13)
H5_3 H 0.6120 0.3850 0.4526
O42_3 O 0.6457(12) 0.5271(10) 0.9471(8)
O43_3 O 0.5470(10) 0.6534(8) 0.8600(7)
O44_3 O 0.5282(9) 0.7693(8) 0.9468(7)
O45_3 O 0.7088(8) 0.7084(8) 0.9536(7)
O46_2 O 0.1751(11) 0.6079(10) 0.3609(10)
O47_3 O 0.2437(10) 0.5582(9) 0.5056(8)
O48_3 O 0.0654(12) 0.4829(10) 0.2670(8)
O49_3 O 0.2853(9) 0.3794(8) 0.4900(6)
O50_3 O 0.0435(9) 0.3725(9) 0.3616(8)
W13_2 W 0.21614(5) 0.27001(4) 0.33135(4)
O52_2 O 0.1807(8) 0.1412(7) 0.8387(6)
H6_3 H 0.677979 0.752371 0.92249
H7_3 H 0.762099 0.726795 0.995126
H8_2 H 0.129105 0.615326 0.311357
H9_2 H 0.168742 0.645467 0.390987
H10_3 H 0.290509 0.584461 0.505056
H11_3 H 0.203642 0.596917 0.503742
H12_3 H 0.606632 0.524962 0.895504
H13_3 H 0.704747 0.528195 0.958393
H14_3 H 0.493058 0.681868 0.839643
H15_3 H 0.585172 0.680586 0.848796
H16_3 H 0.49337 0.775418 0.967962
H17_3 H 0.566412 0.813977 0.959358
H18_3 H 0.329655 0.374406 0.478493
H19_3 H 0.310359 0.400817 0.537898
H20_3 H 0.0668054 0.322125 0.383965
H21_3 H 0.00516124 0.391813 0.376349
H22_3 H 0.0258947 0.438833 0.249575
H23_2 H 0.0330167 0.531288 0.256568
W12_2 W 0.05192(4) 0.07775(4) 0.14809(4)
W1_4 W 0.60259(4) 0.02172(4) 0.62285(4)
W6_4 W 0.67748(5) 0.05216(4) 0.79545(4)
W9_4 W 0.80449(5) 0.06878(4) 0.73424(4)
Ce1_2 Ce 0.38315(6) 0.14500(6) 0.50613(5)
O8_4 O 0.6550(9) 0.1180(8) 0.8400(7)
O11_4 O 0.5224(8) 0.0814(7) 0.5597(6)
O12_4 O 0.5995(7) 0.0764(7) 0.7044(6)
O15_4 O 0.8256(7) 0.0005(7) 0.6793(6)
O25_4 O 0.8590(8) 0.1476(8) 0.7342(7)
O29_4 O 0.7609(8) 0.1088(6) 0.7884(6)
O32_4 O 0.8879(7) 0.0171(7) 0.8134(6)
O36_4 O 0.6967(7) 0.0913(7) 0.6525(6)
O42_4 O 0.3543(12) 0.0271(10) 0.5529(8)
O43_4 O 0.4530(10) 0.1534(8) 0.6400(7)
O44_4 O 0.4718(9) 0.2693(8) 0.5532(7)
O45_4 O 0.2912(8) 0.2084(8) 0.5464(7)
O47_4 O 0.7563(10) 0.0582(9) 0.9944(8)
O51_2 O 0.4230(8) 0.1743(7) 0.4168(7)
O53_2 O 0.2367(7) 0.1029(7) 0.4285(6)
O55_2 O 0.2946(7) 0.2484(7) 0.4191(6)
O56_2 O 0.3702(7) 0.0370(7) 0.4263(6)
H6_4 H 0.322021 0.252371 0.57751
H7_4 H 0.237901 0.226795 0.504874
H10_4 H 0.709491 0.0844609 0.994944
H11_4 H 0.796358 0.0969175 0.996258
H12_4 H 0.393368 0.0249623 0.604496
H13_4 H 0.295253 0.0281952 0.541607
H14_4 H 0.506942 0.181868 0.660357
H15_4 H 0.414828 0.180586 0.651204
H16_4 H 0.50663 0.275418 0.532038
H17_4 H 0.433588 0.313977 0.540642
W2_4 W 0.17327(5) 0.09183(4) 0.08163(4)
W4_4 W 0.39846(5) 0.13984(5) 0.19647(4)
W5_4 W 0.14757(5) 0.09636(5) 0.34201(4)
W7_4 W 0.47370(5) 0.16185(4) 0.37011(4)
W8_4 W 0.12441(5) 0.24867(4) 0.13844(4)
W11_4 W 0.34663(5) 0.29303(4) 0.25335(4)
B1_4 B 0.2649(11) 0.1116(10) 0.2541(9)
O1_4 O 0.2880(7) 0.0272(6) 0.2701(6)
O2_4 O 0.1877(7) 0.1254(6) 0.1839(5)
O3_4 O 0.3394(7) 0.1565(6) 0.2631(6)
O4_4 O 0.2473(7) 0.1422(7) 0.3107(6)
O5_4 O 0.3648(9) 0.3870(8) 0.2456(7)
O6_4 O 0.5789(9) 0.1711(8) 0.4310(8)
O7_4 O 0.0655(8) 0.3266(7) 0.0918(6)
O10_4 O 0.1398(8) 0.2633(7) 0.2259(6)
O13_4 O 0.0716(8) 0.0578(7) 0.0718(6)
O16_4 O 0.0746(7) 0.1027(7) 0.2347(6)
O17_4 O 0.3828(8) 0.2494(7) 0.1954(6)
O18_4 O 0.4505(8) 0.2639(7) 0.3343(6)
O20_4 O 0.0318(7) 0.1797(7) 0.1172(6)
O21_4 O 0.1285(8) 0.1951(7) 0.0658(6)
O22_4 O 0.4462(8) 0.1427(8) 0.1482(7)
O23_4 O 0.2958(8) 0.2982(7) 0.3072(6)
O24_4 O 0.3875(7) 0.0321(7) 0.2040(6)
O26_4 O 0.2825(7) 0.1350(6) 0.1192(6)
O28_4 O 0.4611(7) 0.0531(7) 0.3657(6)
O30_4 O 0.2275(7) 0.0002(7) 0.1242(6)
O31_4 O 0.0674(7) 0.0719(8) 0.3547(7)
O34_4 O 0.1329(8) 0.2065(7) 0.3309(6)
O35_4 O 0.2331(8) 0.2844(7) 0.1734(6)
O39_4 O 0.4904(7) 0.1451(7) 0.2856(6)
H19_4 H 0.310359 0.0991827 0.0378984
Ce2_4 Ce 0.16754(7) 0.02973(6) 0.90030(5)
O37_4 O 0.1488(8) 0.0733(7) 0.9959(6)
O40_4 O 0.2928(11) 0.0102(11) 0.8982(11)
C2_4 C 0.4174(15) 0.0220(14) 0.9006(12)
C4_4 C 0.5459(17) 0.0320(15) 0.9029(14)
H2_4 H 0.5825 0.0138 0.8898
C5_4 C 0.5146(16) 0.1253(15) 0.9548(13)
H3_4 H 0.5295 0.1717 0.9788
C6_4 C 0.4390(15) 0.0907(13) 0.9367(11)
H4_4 H 0.4032 0.1133 0.9486
N1_4 N 0.5642(14) 0.0937(15) 0.9387(13)
H5_4 H 0.6120 0.1150 0.9526
O48_4 O 0.0654(12) 0.0171(10) 0.7670(8)
O49_4 O 0.2853(9) 0.1206(8) 0.9900(6)
O50_4 O 0.0435(9) 0.1275(9) 0.8616(8)
H18_4 H 0.329655 0.125594 0.978493
H20_4 H 0.0668054 0.177875 0.883965
H21_4 H 0.00516124 0.108187 0.876349
H22_4 H 0.0258947 0.0611667 0.749575
O54_2 O 0.0515(8) 0.9552(7) 0.8919(6)
O41_3 O 0.3187(16) 0.9193(16) 0.8494(14)
C1_3 C 0.337(2) 0.980(2) 0.8835(18)
C3_3 C 0.4735(15) 0.9920(15) 0.8833(14)
H1_3 H 0.4620 0.9460 0.8590
O46_3 O 0.1751(11) 0.8921(10) 0.8609(10)
H8_3 H 0.129105 0.884674 0.811357
H9_3 H 0.168742 0.854533 0.890987
H23_3 H 0.0330167 0.968712 0.756568
O27_2 O 0.9485(8) 0.0448(7) 0.1081(6)
O41_4 O 0.6813(16) 0.0807(16) 0.1506(14)
C1_4 C 0.663(2) 0.020(2) 0.1165(18)
C3_4 C 0.5265(15) 0.0080(15) 0.1167(14)
H1_4 H 0.5380 0.0540 0.1410
O46_4 O 0.8249(11) 0.1079(10) 0.1391(10)
H8_4 H 0.870895 0.115326 0.188643
H9_4 H 0.831258 0.145467 0.109013
H23_4 H 0.966983 0.0312879 0.243432
K1 K 0.9366(5) 0.1000(5) 0.4870(4)
K1_2 K 0.0634(5) 0.6000(5) 0.0130(4)
K1_3 K 0.0634(5) 0.9000(5) 0.5130(4)
K1_4 K 0.9366(5) 0.4000(5) 0.9870(4)
loop_
_geom_bond_atom_site_label_1
_geom_bond_atom_site_label_2
_geom_bond_site_symmetry_1
_geom_bond_site_symmetry_2
Ce2 O14 1_555 1_555
O14 W13 1_555 1_555
O40 Ce2 1_555 1_555
H2 C4 1_555 1_555
C5 H3 1_555 1_555
C6 C2 1_555 1_555
H4 C6 1_555 1_555
N1 C4 1_555 1_555
H5 N1 1_555 1_555
O48 Ce2 1_555 1_555
O49 Ce2 1_555 1_555
O50 Ce2 1_555 1_555
Ce2 O37 1_555 1_555
C5 C6 1_555 1_555
C5 N1 1_555 1_555
O49 H18 1_555 1_555
O50 H20 1_555 1_555
O50 H21 1_555 1_555
O48 H22 1_555 1_555
W2 O2 1_555 1_555
W3 O2 1_555 1_555
W4 O3 1_555 1_555
W5 O4 1_555 1_555
W7 O3 1_555 1_555
W8 O2 1_555 1_555
W10 O4 1_555 1_555
W11 O3 1_555 1_555
B1 O1 1_555 1_555
O2 B1 1_555 1_555
O3 B1 1_555 1_555
O4 B1 1_555 1_555
O5 W11 1_555 1_555
O6 W7 1_555 1_555
O7 W8 1_555 1_555
O9 W7 1_555 1_555
O10 W8 1_555 1_555
O13 W2 1_555 1_555
O16 W3 1_555 1_555
O17 W4 1_555 1_555
O18 W7 1_555 1_555
O19 W5 1_555 1_555
O20 W3 1_555 1_555
O21 W2 1_555 1_555
O22 W4 1_555 1_555
O23 W10 1_555 1_555
O24 W4 1_555 1_555
O26 W2 1_555 1_555
O30 W2 1_555 1_555
O31 W5 1_555 1_555
O33 W10 1_555 1_555
O34 W5 1_555 1_555
O35 W8 1_555 1_555
O39 W4 1_555 1_555
Ce3_2 O9 1_555 1_555
O52 W10 1_555 1_555
W3 O13 1_555 1_555
W4 O26 1_555 1_555
W5 O16 1_555 1_555
W7 O28 1_555 1_555
W7 O39 1_555 1_555
W8 O20 1_555 1_555
W8 O21 1_555 1_555
W10 O10 1_555 1_555
W10 O34 1_555 1_555
W11 O17 1_555 1_555
W11 O18 1_555 1_555
W11 O23 1_555 1_555
W11 O35 1_555 1_555
O19 Ce3_2 1_555 1_555
O33 Ce3_2 1_555 1_555
O38 Ce3_2 1_555 1_555
W1 O1_2 1_555 1_555
W2_2 O2_2 1_555 1_555
W12 O2_2 1_555 1_555
W4_2 O3_2 1_555 1_555
W5_2 O4_2 1_555 1_555
W6 O1_2 1_555 1_555
W7_2 O3_2 1_555 1_555
W8_2 O2_2 1_555 1_555
W9 O1_2 1_555 1_555
W13 O4_2 1_555 1_555
W11_2 O3_2 1_555 1_555
Ce3 O11 1_555 1_555
Ce2_2 O52 1_555 1_555
B1_2 O1_2 1_555 1_555
O2_2 B1_2 1_555 1_555
O3_2 B1_2 1_555 1_555
O4_2 B1_2 1_555 1_555
O5_2 W11_2 1_555 1_555
O6_2 W7_2 1_555 1_555
O7_2 W8_2 1_555 1_555
O8 W6 1_555 1_555
O51 W7_2 1_555 1_555
O10_2 W8_2 1_555 1_555
O11 W1 1_555 1_555
O12 W1 1_555 1_555
O13_2 W2_2 1_555 1_555
O15 W5_2 1_555 1_555
O16_2 W12 1_555 1_555
O17_2 W4_2 1_555 1_555
O18_2 W7_2 1_555 1_555
O53 W5_2 1_555 1_555
O20_2 W12 1_555 1_555
O21_2 W2_2 1_555 1_555
O22_2 W4_2 1_555 1_555
O23_2 W13 1_555 1_555
O24_2 W4_2 1_555 1_555
O25 W9 1_555 1_555
O26_2 W2_2 1_555 1_555
O54 Ce2_2 1_555 1_555
O28_2 W1 1_555 1_555
O29 W6 1_555 1_555
O30_2 W2_2 1_555 1_555
O31_2 W5_2 1_555 1_555
O32 W12 1_555 1_555
O55 W13 1_555 1_555
O34_2 W5_2 1_555 1_555
O35_2 W8_2 1_555 1_555
O36 W1 1_555 1_555
O37_2 W2_2 1_555 1_555
O56 W1 1_555 1_555
O39_2 W4_2 1_555 1_555
O40_2 Ce2_2 1_555 1_555
O41 C1 1_555 1_555
C1 O40_2 1_555 1_555
C2_2 C1 1_555 1_555
C3 C2_2 1_555 1_555
H1 C3 1_555 1_555
C4_2 C3 1_555 1_555
H2_2 C4_2 1_555 1_555
C5_2 H3_2 1_555 1_555
C6_2 C2_2 1_555 1_555
H4_2 C6_2 1_555 1_555
N1_2 C4_2 1_555 1_555
H5_2 N1_2 1_555 1_555
O42 Ce3 1_555 1_555
O43 Ce3 1_555 1_555
O44 Ce3 1_555 1_555
O45 Ce3 1_555 1_555
O46 Ce2_2 1_555 1_555
O47 Ce2_2 1_555 1_555
O48_2 Ce2_2 1_555 1_555
O49_2 Ce2_2 1_555 1_555
O50_2 Ce2_2 1_555 1_555
W12 O13_2 1_555 1_555
W4_2 O26_2 1_555 1_555
W5_2 O16_2 1_555 1_555
W6 O12 1_555 1_555
W6 O24_2 1_555 1_555
W6 O30_2 1_555 1_555
W7_2 O28_2 1_555 1_555
W7_2 O39_2 1_555 1_555
W8_2 O20_2 1_555 1_555
W8_2 O21_2 1_555 1_555
W9 O15 1_555 1_555
W9 O29 1_555 1_555
W9 O32 1_555 1_555
W9 O36 1_555 1_555
W13 O10_2 1_555 1_555
W13 O34_2 1_555 1_555
W11_2 O17_2 1_555 1_555
W11_2 O18_2 1_555 1_555
W11_2 O23_2 1_555 1_555
W11_2 O35_2 1_555 1_555
Ce2_2 O37_2 1_555 1_555
C5_2 C6_2 1_555 1_555
C5_2 N1_2 1_555 1_555
O45 H6 1_555 1_555
O45 H7 1_555 1_555
O46 H8 1_555 1_555
O46 H9 1_555 1_555
O47 H10 1_555 1_555
O47 H11 1_555 1_555
O42 H12 1_555 1_555
O42 H13 1_555 1_555
O43 H14 1_555 1_555
O43 H15 1_555 1_555
O44 H16 1_555 1_555
O44 H17 1_555 1_555
O49_2 H18_2 1_555 1_555
O49_2 H19_2 1_555 1_555
O50_2 H20_2 1_555 1_555
O50_2 H21_2 1_555 1_555
O48_2 H22_2 1_555 1_555
O48_2 H23 1_555 1_555
Ce3_2 O11_2 1_555 1_555
O8_2 W6_2 1_555 1_555
O11_2 W1_2 1_555 1_555
O12_2 W1_2 1_555 1_555
O25_2 W9_2 1_555 1_555
O29_2 W6_2 1_555 1_555
O36_2 W1_2 1_555 1_555
O42_2 Ce3_2 1_555 1_555
O43_2 Ce3_2 1_555 1_555
O44_2 Ce3_2 1_555 1_555
O45_2 Ce3_2 1_555 1_555
W6_2 O12_2 1_555 1_555
W9_2 O15_2 1_555 1_555
W9_2 O29_2 1_555 1_555
W9_2 O32_2 1_555 1_555
W9_2 O36_2 1_555 1_555
O45_2 H6_2 1_555 1_555
O45_2 H7_2 1_555 1_555
O47_2 H10_2 1_555 1_555
O47_2 H11_2 1_555 1_555
O42_2 H12_2 1_555 1_555
O42_2 H13_2 1_555 1_555
O43_2 H14_2 1_555 1_555
O43_2 H15_2 1_555 1_555
O44_2 H16_2 1_555 1_555
O44_2 H17_2 1_555 1_555
W1_3 O1_3 1_555 1_555
W2_3 O2_3 1_555 1_555
W3_2 O2_3 1_555 1_555
W4_3 O3_3 1_555 1_555
W5_3 O4_3 1_555 1_555
W6_3 O1_3 1_555 1_555
W7_3 O3_3 1_555 1_555
W8_3 O2_3 1_555 1_555
W9_3 O1_3 1_555 1_555
W10_2 O4_3 1_555 1_555
W11_3 O3_3 1_555 1_555
Ce1 O11_3 1_555 1_555
Ce2_3 O14_2 1_555 1_555
B1_3 O1_3 1_555 1_555
O2_3 B1_3 1_555 1_555
O3_3 B1_3 1_555 1_555
O4_3 B1_3 1_555 1_555
O5_3 W11_3 1_555 1_555
O6_3 W7_3 1_555 1_555
O7_3 W8_3 1_555 1_555
O8_3 W6_3 1_555 1_555
O9_2 W7_3 1_555 1_555
O10_3 W8_3 1_555 1_555
O11_3 W1_3 1_555 1_555
O12_3 W1_3 1_555 1_555
O13_3 W2_3 1_555 1_555
O14_2 W13_2 1_555 1_555
O15_3 W5_3 1_555 1_555
O16_3 W3_2 1_555 1_555
O17_3 W4_3 1_555 1_555
O18_3 W7_3 1_555 1_555
O19_2 W5_3 1_555 1_555
O20_3 W3_2 1_555 1_555
O21_3 W2_3 1_555 1_555
O22_3 W4_3 1_555 1_555
O23_3 W10_2 1_555 1_555
O24_3 W4_3 1_555 1_555
O25_3 W9_3 1_555 1_555
O26_3 W2_3 1_555 1_555
O27 Ce2_3 1_555 1_555
O28_3 W1_3 1_555 1_555
O29_3 W6_3 1_555 1_555
O30_3 W2_3 1_555 1_555
O31_3 W5_3 1_555 1_555
O32_3 W3_2 1_555 1_555
O33_2 W10_2 1_555 1_555
O34_3 W5_3 1_555 1_555
O35_3 W8_3 1_555 1_555
O36_3 W1_3 1_555 1_555
O37_3 W2_3 1_555 1_555
O38_2 W1_3 1_555 1_555
O39_3 W4_3 1_555 1_555
O40_3 Ce2_3 1_555 1_555
O41_2 C1_2 1_555 1_555
C1_2 O40_3 1_555 1_555
C2_3 C1_2 1_555 1_555
C3_2 C2_3 1_555 1_555
H1_2 C3_2 1_555 1_555
C4_3 C3_2 1_555 1_555
H2_3 C4_3 1_555 1_555
C5_3 H3_3 1_555 1_555
C6_3 C2_3 1_555 1_555
H4_3 C6_3 1_555 1_555
N1_3 C4_3 1_555 1_555
H5_3 N1_3 1_555 1_555
O42_3 Ce1 1_555 1_555
O43_3 Ce1 1_555 1_555
O44_3 Ce1 1_555 1_555
O45_3 Ce1 1_555 1_555
O46_2 Ce2_3 1_555 1_555
O47_3 Ce2_3 1_555 1_555
O48_3 Ce2_3 1_555 1_555
O49_3 Ce2_3 1_555 1_555
O50_3 Ce2_3 1_555 1_555
O52_2 W10_2 1_555 1_555
W3_2 O13_3 1_555 1_555
W4_3 O26_3 1_555 1_555
W5_3 O16_3 1_555 1_555
W6_3 O12_3 1_555 1_555
W6_3 O24_3 1_555 1_555
W6_3 O30_3 1_555 1_555
W7_3 O28_3 1_555 1_555
W7_3 O39_3 1_555 1_555
W8_3 O20_3 1_555 1_555
W8_3 O21_3 1_555 1_555
W9_3 O15_3 1_555 1_555
W9_3 O29_3 1_555 1_555
W9_3 O32_3 1_555 1_555
W9_3 O36_3 1_555 1_555
W10_2 O10_3 1_555 1_555
W10_2 O34_3 1_555 1_555
W11_3 O17_3 1_555 1_555
W11_3 O18_3 1_555 1_555
W11_3 O23_3 1_555 1_555
W11_3 O35_3 1_555 1_555
Ce2_3 O37_3 1_555 1_555
C5_3 C6_3 1_555 1_555
C5_3 N1_3 1_555 1_555
O45_3 H6_3 1_555 1_555
O45_3 H7_3 1_555 1_555
O46_2 H8_2 1_555 1_555
O46_2 H9_2 1_555 1_555
O47_3 H10_3 1_555 1_555
O47_3 H11_3 1_555 1_555
O42_3 H12_3 1_555 1_555
O42_3 H13_3 1_555 1_555
O43_3 H14_3 1_555 1_555
O43_3 H15_3 1_555 1_555
O44_3 H16_3 1_555 1_555
O44_3 H17_3 1_555 1_555
O49_3 H18_3 1_555 1_555
O49_3 H19_3 1_555 1_555
O50_3 H20_3 1_555 1_555
O50_3 H21_3 1_555 1_555
O48_3 H22_3 1_555 1_555
O48_3 H23_2 1_555 1_555
Ce1_2 O11_4 1_555 1_555
O8_4 W6_4 1_555 1_555
O11_4 W1_4 1_555 1_555
O12_4 W1_4 1_555 1_555
O25_4 W9_4 1_555 1_555
O29_4 W6_4 1_555 1_555
O36_4 W1_4 1_555 1_555
O42_4 Ce1_2 1_555 1_555
O43_4 Ce1_2 1_555 1_555
O44_4 Ce1_2 1_555 1_555
O45_4 Ce1_2 1_555 1_555
O51_2 Ce1_2 1_555 1_555
O53_2 Ce1_2 1_555 1_555
O55_2 Ce1_2 1_555 1_555
O56_2 Ce1_2 1_555 1_555
W6_4 O12_4 1_555 1_555
W9_4 O15_4 1_555 1_555
W9_4 O29_4 1_555 1_555
W9_4 O32_4 1_555 1_555
W9_4 O36_4 1_555 1_555
O45_4 H6_4 1_555 1_555
O45_4 H7_4 1_555 1_555
O47_4 H10_4 1_555 1_555
O47_4 H11_4 1_555 1_555
O42_4 H12_4 1_555 1_555
O42_4 H13_4 1_555 1_555
O43_4 H14_4 1_555 1_555
O43_4 H15_4 1_555 1_555
O44_4 H16_4 1_555 1_555
O44_4 H17_4 1_555 1_555
W2_4 O2_4 1_555 1_555
W12_2 O2_4 1_555 1_555
W4_4 O3_4 1_555 1_555
W5_4 O4_4 1_555 1_555
W7_4 O3_4 1_555 1_555
W8_4 O2_4 1_555 1_555
W13_2 O4_4 1_555 1_555
W11_4 O3_4 1_555 1_555
B1_4 O1_4 1_555 1_555
O2_4 B1_4 1_555 1_555
O3_4 B1_4 1_555 1_555
O4_4 B1_4 1_555 1_555
O5_4 W11_4 1_555 1_555
O6_4 W7_4 1_555 1_555
O7_4 W8_4 1_555 1_555
O51_2 W7_4 1_555 1_555
O10_4 W8_4 1_555 1_555
O13_4 W2_4 1_555 1_555
O16_4 W12_2 1_555 1_555
O17_4 W4_4 1_555 1_555
O18_4 W7_4 1_555 1_555
O53_2 W5_4 1_555 1_555
O20_4 W12_2 1_555 1_555
O21_4 W2_4 1_555 1_555
O22_4 W4_4 1_555 1_555
O23_4 W13_2 1_555 1_555
O24_4 W4_4 1_555 1_555
O26_4 W2_4 1_555 1_555
O30_4 W2_4 1_555 1_555
O31_4 W5_4 1_555 1_555
O55_2 W13_2 1_555 1_555
O34_4 W5_4 1_555 1_555
O35_4 W8_4 1_555 1_555
O39_4 W4_4 1_555 1_555
W12_2 O13_4 1_555 1_555
W4_4 O26_4 1_555 1_555
W5_4 O16_4 1_555 1_555
W7_4 O28_4 1_555 1_555
W7_4 O39_4 1_555 1_555
W8_4 O20_4 1_555 1_555
W8_4 O21_4 1_555 1_555
W13_2 O10_4 1_555 1_555
W13_2 O34_4 1_555 1_555
W11_4 O17_4 1_555 1_555
W11_4 O18_4 1_555 1_555
W11_4 O23_4 1_555 1_555
W11_4 O35_4 1_555 1_555
Ce2_4 O52_2 1_555 1_555
O40_4 Ce2_4 1_555 1_555
H2_4 C4_4 1_555 1_555
C5_4 H3_4 1_555 1_555
C6_4 C2_4 1_555 1_555
H4_4 C6_4 1_555 1_555
N1_4 C4_4 1_555 1_555
H5_4 N1_4 1_555 1_555
O48_4 Ce2_4 1_555 1_555
O49_4 Ce2_4 1_555 1_555
O50_4 Ce2_4 1_555 1_555
Ce2_4 O37_4 1_555 1_555
C5_4 C6_4 1_555 1_555
C5_4 N1_4 1_555 1_555
O49_4 H18_4 1_555 1_555
O50_4 H20_4 1_555 1_555
O50_4 H21_4 1_555 1_555
O48_4 H22_4 1_555 1_555
O41_3 C1_3 1_555 1_555
H1_3 C3_3 1_555 1_555
O46_3 H8_3 1_555 1_555
O46_3 H9_3 1_555 1_555
O41_4 C1_4 1_555 1_555
H1_4 C3_4 1_555 1_555
O46_4 H8_4 1_555 1_555
O46_4 H9_4 1_555 1_555

#END
