
###############################################################################
#
# This file contains modified crystal structure data generated from the
# MOF subset of the Cambridge Structural Database (CSD) v543 
# hosted by the Cambridge Crystallographic Data Centre (CCDC).
#
# This work is licensed under the Creative Commons
# Attribution-NonCommercial-ShareAlike 4.0 International License.
# To view a copy of this license, visit
# http://creativecommons.org/licenses/by-nc-sa/4.0/
# or send a letter to
# Creative Commons, PO Box 1866, Mountain View, CA 94042, USA.
#
# CIF created using the CSD Python API on 29 September 2022
# The structure has been converted into the P1 space group
# The structure has a 3D framework
# The original CSD entry EXAZAF is in the monoclinic crystal system
# The framework has been calculated to contain at least 10.0% void space
# The void calculation uses a probe of radius 1.32A, grid spacing 0.4
# H atom positions have been added when not included in the experimental data
#
###############################################################################

data_EXAZAF
_chemical_formula_moiety         '(C24 H92 B4 K4 N4 Nd8 O198 W44)n'
_symmetry_cell_setting           triclinic
_symmetry_space_group_name_H-M   'P 1'
_symmetry_Int_Tables_number      1
_space_group_name_Hall           'P 1'
loop_
_symmetry_equiv_pos_site_id
_symmetry_equiv_pos_as_xyz
1 x,y,z
_cell_length_a                   18.6153(4)
_cell_length_b                   17.3568(4)
_cell_length_c                   22.3946(4)
_cell_angle_alpha                90
_cell_angle_beta                 121.8460(10)
_cell_angle_gamma                90
_cell_volume                     6146.54
loop_
_atom_site_label
_atom_site_type_symbol
_atom_site_fract_x
_atom_site_fract_y
_atom_site_fract_z
C4 C 0.0420(16) 0.9729(13) 0.9006(14)
H2 H 0.0770 0.9934 0.8866
C5 C 0.0132(15) 0.8763(14) 0.9549(12)
H3 H 0.0310 0.8315 0.9818
N1 N 0.0639(11) 0.9082(11) 0.9353(10)
H5 H 0.1102 0.8856 0.9455
O46 O 0.7442(8) 0.0559(7) 0.0064(6)
O51 O 0.3514(6) 0.0728(6) 0.0025(5)
H6 H 0.723117 0.04678 0.0383178
H7 H 0.805764 0.0448319 0.0317292
W2 W 0.44894(3) 0.07677(3) 0.85204(3)
W3 W 0.02651(4) 0.16228(3) 0.62903(3)
W4 W 0.32740(4) 0.09195(3) 0.91845(3)
W6 W 0.10160(4) 0.14104(4) 0.80314(3)
W7 W 0.37692(4) 0.24902(3) 0.86118(3)
W9 W 0.28464(4) 0.26937(3) 0.66789(3)
W10 W 0.15418(4) 0.29430(3) 0.74603(3)
W11 W 0.35262(4) 0.09469(4) 0.65762(3)
B1 B 0.2334(10) 0.1117(9) 0.7452(7)
O1 O 0.2512(6) 0.1417(5) 0.6887(4)
O2 O 0.1614(6) 0.1571(5) 0.7367(4)
O3 O 0.3134(6) 0.1256(6) 0.8154(4)
O4 O 0.2125(6) 0.0284(5) 0.7301(4)
O5 O 0.4321(7) 0.0699(7) 0.6440(6)
O7 O 0.5522(6) 0.0430(6) 0.8928(5)
O8 O 0.3725(6) 0.1955(5) 0.9343(5)
O11 O 0.0543(7) 0.1424(6) 0.8514(5)
O12 O 0.0772(7) 0.1739(6) 0.5821(5)
O13 O 0.1359(7) 0.3885(6) 0.7527(6)
O14 O 0.4373(7) 0.3289(7) 0.9072(6)
O17 O 0.0499(6) 0.2663(5) 0.6665(5)
O18 O 0.2062(6) 0.2474(6) 0.5800(5)
O20 O 0.2196(6) 0.1370(5) 0.8819(5)
O22 O 0.1134(6) 0.0330(6) 0.7960(5)
O24 O 0.0084(6) 0.1454(6) 0.7129(5)
O25 O 0.4260(6) 0.1004(6) 0.7646(5)
O26 O 0.2050(6) 0.2992(5) 0.6924(5)
O29 O 0.2673(6) 0.2838(6) 0.8272(5)
O30 O 0.2627(6) 0.1022(6) 0.5717(5)
O31 O 0.4288(6) 0.0570(6) 0.9281(5)
O32 O 0.4704(6) 0.1806(6) 0.8831(5)
O33 O 0.3681(6) 0.2051(6) 0.6679(5)
O34 O 0.1284(6) 0.0358(5) 0.5729(5)
O35 O 0.0371(6) 0.0520(5) 0.6330(5)
O36 O 0.3602(6) 0.2629(6) 0.7735(5)
O37 O 0.1157(7) 0.2524(6) 0.8038(5)
O41 O 0.8214(16) 0.0794(16) 0.8544(14)
C1 C 0.8310(17) 0.0148(14) 0.8783(14)
C3 C 0.9730(13) 0.0108(13) 0.8846(12)
H1 H 0.9613 0.0588 0.8631
O50 O 0.6757(9) 0.1041(8) 0.8630(8)
Nd3 Nd 0.11765(5) 0.14421(4) 0.49430(4)
O56 O 0.3207(7) 0.3579(7) 0.6582(5)
H8 H 0.682979 0.14139 0.899425
H9 H 0.724618 0.107929 0.856812
H22 H 0.559334 0.0392801 0.757426
W12 W 0.67260(4) 0.90805(3) 0.08155(3)
W1 W 0.10205(3) 0.97736(3) 0.62225(3)
W5 W 0.17686(4) 0.94742(3) 0.79544(3)
W8 W 0.30436(4) 0.92940(3) 0.73454(3)
Nd2 Nd 0.66736(5) 0.96883(5) 0.90116(4)
O6 O 0.3254(6) 0.9969(6) 0.6783(5)
O9 O 0.6486(6) 0.9272(6) 0.9975(5)
O10 O 0.1548(7) 0.8824(6) 0.8410(6)
O15 O 0.3886(6) 0.9817(5) 0.8146(5)
O16 O 0.2725(6) 0.9987(6) 0.8760(5)
O19 O 0.3575(7) 0.8484(6) 0.7350(6)
O21 O 0.2613(6) 0.8902(6) 0.7897(5)
O23 O 0.0222(6) 0.9173(6) 0.5596(5)
O27 O 0.1968(6) 0.9081(5) 0.6524(5)
O28 O 0.0979(6) 0.9228(6) 0.7040(5)
O39 O 0.6793(7) 0.8579(7) 0.8418(5)
O40 O 0.7945(10) 0.9871(10) 0.9012(9)
C2 C 0.9178(12) 0.9763(12) 0.9008(10)
C6 C 0.9394(12) 0.9062(13) 0.9375(10)
H4 H 0.9036 0.8821 0.9490
O47 O 0.5438(7) 0.8720(7) 0.8614(6)
O48 O 0.7837(8) 0.8789(7) 0.9902(5)
O49 O 0.5673(11) 0.9837(9) 0.7698(7)
W13 W 0.71536(4) 0.76937(3) 0.83211(3)
H14 H 0.00553339 0.735765 0.602737
H18 H 0.49423 0.889134 0.815897
H19 H 0.561797 0.820085 0.855668
H20 H 0.757626 0.834 0.999164
H21 H 0.818252 0.860662 0.971133
H23 H 0.591433 0.957488 0.744845
Nd1 Nd 0.88235(5) 0.85579(4) 0.50570(4)
O42 O 0.8554(10) 0.9738(8) 0.5523(7)
O43 O 0.9514(8) 0.8469(8) 0.6377(5)
O44 O 0.9679(7) 0.7330(7) 0.5508(6)
O45 O 0.7915(8) 0.7926(7) 0.5442(5)
O52 O 0.9228(7) 0.8261(6) 0.4179(5)
O53 O 0.7938(6) 0.7526(6) 0.4200(5)
O54 O 0.7373(6) 0.8978(6) 0.4283(5)
O55 O 0.8716(6) 0.9642(5) 0.4271(5)
H10 H 0.96353 0.899554 0.6581
H11 H 0.912705 0.820173 0.648844
H13 H 0.796061 0.97357 0.540782
H15 H 0.92909 0.688344 0.537928
H16 H 0.779534 0.830044 0.571395
H17 H 0.737459 0.775522 0.502199
O52_2 O 0.0772(7) 0.3261(6) 0.0821(5)
O53_2 O 0.2062(6) 0.2526(6) 0.0800(5)
O54_2 O 0.2627(6) 0.3978(6) 0.0717(5)
O55_2 O 0.1284(6) 0.4642(5) 0.0729(5)
W1_2 W 0.89795(3) 0.47736(3) 0.87775(3)
W2_2 W 0.55106(3) 0.57677(3) 0.64796(3)
W3_2 W 0.97349(4) 0.66228(3) 0.87097(3)
W4_2 W 0.67260(4) 0.59195(3) 0.58155(3)
W5_2 W 0.82314(4) 0.44742(3) 0.70456(3)
W6_2 W 0.89840(4) 0.64104(4) 0.69686(3)
W7_2 W 0.62308(4) 0.74902(3) 0.63882(3)
W8_2 W 0.69564(4) 0.42940(3) 0.76546(3)
W10_2 W 0.84582(4) 0.79430(3) 0.75397(3)
W11_2 W 0.64738(4) 0.59469(4) 0.84238(3)
Nd2_2 Nd 0.33264(5) 0.46883(5) 0.59884(4)
B1_2 B 0.7666(10) 0.6117(9) 0.7548(7)
O1_2 O 0.7488(6) 0.6417(5) 0.8113(4)
O2_2 O 0.8386(6) 0.6571(5) 0.7633(4)
O3_2 O 0.6866(6) 0.6256(6) 0.6846(4)
O4_2 O 0.7875(6) 0.5284(5) 0.7699(4)
O5_2 O 0.5679(7) 0.5699(7) 0.8560(6)
O6_2 O 0.6746(6) 0.4969(6) 0.8217(5)
O7_2 O 0.4478(6) 0.5430(6) 0.6072(5)
O8_2 O 0.6275(6) 0.6955(5) 0.5657(5)
O9_2 O 0.3514(6) 0.4272(6) 0.5025(5)
O10_2 O 0.8452(7) 0.3824(6) 0.6590(6)
O11_2 O 0.9457(7) 0.6424(6) 0.6486(5)
O12_2 O 0.9228(7) 0.6739(6) 0.9179(5)
O13_2 O 0.8641(7) 0.8885(6) 0.7473(6)
O14_2 O 0.5627(7) 0.8289(7) 0.5928(6)
O15_2 O 0.6114(6) 0.4817(5) 0.6854(5)
O16_2 O 0.7275(6) 0.4987(6) 0.6240(5)
O17_2 O 0.9501(6) 0.7663(5) 0.8335(5)
O18_2 O 0.7938(6) 0.7474(6) 0.9200(5)
O19_2 O 0.6425(7) 0.3484(6) 0.7650(6)
O20_2 O 0.7804(6) 0.6370(5) 0.6181(5)
O21_2 O 0.7387(6) 0.3902(6) 0.7103(5)
O22_2 O 0.8866(6) 0.5330(6) 0.7040(5)
O23_2 O 0.9778(6) 0.4173(6) 0.9404(5)
O24_2 O 0.9916(6) 0.6454(6) 0.7871(5)
O25_2 O 0.5740(6) 0.6004(6) 0.7354(5)
O26_2 O 0.7950(6) 0.7992(5) 0.8076(5)
O27_2 O 0.8032(6) 0.4081(5) 0.8476(5)
O28_2 O 0.9021(6) 0.4228(6) 0.7960(5)
O29_2 O 0.7327(6) 0.7838(6) 0.6728(5)
O30_2 O 0.7373(6) 0.6022(6) 0.9283(5)
O31_2 O 0.5712(6) 0.5570(6) 0.5719(5)
O32_2 O 0.5296(6) 0.6806(6) 0.6169(5)
O33_2 O 0.6319(6) 0.7051(6) 0.8321(5)
O34_2 O 0.8716(6) 0.5358(5) 0.9271(5)
O35_2 O 0.9629(6) 0.5520(5) 0.8670(5)
O36_2 O 0.6398(6) 0.7629(6) 0.7265(5)
O37_2 O 0.8843(7) 0.7524(6) 0.6962(5)
O40_2 O 0.2055(10) 0.4871(10) 0.5988(9)
O41_2 O 0.1786(16) 0.5794(16) 0.6456(14)
C1_2 C 0.1690(17) 0.5148(14) 0.6217(14)
C2_2 C 0.0822(12) 0.4763(12) 0.5992(10)
C3_2 C 0.0270(13) 0.5108(13) 0.6154(12)
H1_2 H 0.0387 0.5588 0.6369
C6_2 C 0.0606(12) 0.4062(13) 0.5625(10)
H4_2 H 0.0964 0.3821 0.5510
O46_2 O 0.2558(8) 0.5559(7) 0.4936(6)
O47_2 O 0.4562(7) 0.3720(7) 0.6386(6)
O48_2 O 0.2163(8) 0.3789(7) 0.5098(5)
O49_2 O 0.4327(11) 0.4837(9) 0.7302(7)
O50_2 O 0.3243(9) 0.6041(8) 0.6370(8)
W12_2 W 0.32740(4) 0.40805(3) 0.41845(3)
O51_2 O 0.6486(6) 0.5728(6) 0.4975(5)
H6_2 H 0.276883 0.54678 0.461682
H7_2 H 0.194236 0.544832 0.468271
H8_2 H 0.317021 0.64139 0.600575
H9_2 H 0.275382 0.607929 0.643188
H14_2 H 0.994467 0.235765 0.897263
H18_2 H 0.50577 0.389134 0.684103
H19_2 H 0.438203 0.320085 0.644332
H20_2 H 0.242374 0.334 0.500836
H21_2 H 0.181748 0.360662 0.528867
H22_2 H 0.440666 0.53928 0.742574
H23_2 H 0.408567 0.457488 0.755155
O42_2 O 0.1446(10) 0.0262(8) 0.4477(7)
O43_2 O 0.0486(8) 0.1531(8) 0.3623(5)
O44_2 O 0.0321(7) 0.2670(7) 0.4492(6)
O45_2 O 0.2085(8) 0.2074(7) 0.4558(5)
H10_2 H 0.03647 0.100446 0.3419
H11_2 H 0.0872954 0.179827 0.351156
H13_2 H 0.203939 0.0264303 0.459218
H15_2 H 0.0709104 0.311656 0.462072
H16_2 H 0.220466 0.169956 0.428605
H17_2 H 0.262541 0.224478 0.497801
W1_3 W 0.89795(3) 0.02264(3) 0.37775(3)
W5_3 W 0.82314(4) 0.05258(3) 0.20456(3)
W8_3 W 0.69564(4) 0.07060(3) 0.26546(3)
Nd2_3 Nd 0.33264(5) 0.03117(5) 0.09884(4)
O6_3 O 0.6746(6) 0.0031(6) 0.3217(5)
O10_3 O 0.8452(7) 0.1176(6) 0.1590(6)
O15_3 O 0.6114(6) 0.0183(5) 0.1854(5)
O16_3 O 0.7275(6) 0.0013(6) 0.1240(5)
O19_3 O 0.6425(7) 0.1516(6) 0.2650(6)
O21_3 O 0.7387(6) 0.1098(6) 0.2103(5)
O23_3 O 0.9778(6) 0.0827(6) 0.4404(5)
O27_3 O 0.8032(6) 0.0919(5) 0.3476(5)
O28_3 O 0.9021(6) 0.0772(6) 0.2960(5)
O39_2 O 0.3207(7) 0.1421(7) 0.1582(5)
O40_3 O 0.2055(10) 0.0129(10) 0.0988(9)
C2_3 C 0.0822(12) 0.0237(12) 0.0992(10)
C6_3 C 0.0606(12) 0.0938(13) 0.0625(10)
H4_3 H 0.0964 0.1179 0.0510
O47_3 O 0.4562(7) 0.1280(7) 0.1386(6)
O48_3 O 0.2163(8) 0.1211(7) 0.0098(5)
O49_3 O 0.4327(11) 0.0163(9) 0.2302(7)
W13_2 W 0.28464(4) 0.23063(3) 0.16789(3)
H14_3 H 0.994467 0.264235 0.397263
H18_3 H 0.50577 0.110866 0.184103
H19_3 H 0.438203 0.179915 0.144332
H20_3 H 0.242374 0.166 0.00083618
H21_3 H 0.181748 0.139338 0.028867
H23_3 H 0.408567 0.0425119 0.255155
W2_3 W 0.55106(3) 0.92323(3) 0.14796(3)
W3_3 W 0.97349(4) 0.83772(3) 0.37097(3)
W6_3 W 0.89840(4) 0.85896(4) 0.19686(3)
W7_3 W 0.62308(4) 0.75098(3) 0.13882(3)
W9_2 W 0.71536(4) 0.73063(3) 0.33211(3)
W10_3 W 0.84582(4) 0.70570(3) 0.25397(3)
W11_3 W 0.64738(4) 0.90531(4) 0.34238(3)
B1_3 B 0.7666(10) 0.8883(9) 0.2548(7)
O1_3 O 0.7488(6) 0.8583(5) 0.3113(4)
O2_3 O 0.8386(6) 0.8429(5) 0.2633(4)
O3_3 O 0.6866(6) 0.8744(6) 0.1846(4)
O4_3 O 0.7875(6) 0.9716(5) 0.2699(4)
O5_3 O 0.5679(7) 0.9301(7) 0.3560(6)
O7_3 O 0.4478(6) 0.9570(6) 0.1072(5)
O8_3 O 0.6275(6) 0.8045(5) 0.0657(5)
O11_3 O 0.9457(7) 0.8576(6) 0.1486(5)
O13_3 O 0.8641(7) 0.6115(6) 0.2473(6)
O14_3 O 0.5627(7) 0.6711(7) 0.0928(6)
O17_3 O 0.9501(6) 0.7337(5) 0.3335(5)
O20_3 O 0.7804(6) 0.8630(5) 0.1181(5)
O22_3 O 0.8866(6) 0.9670(6) 0.2040(5)
O24_3 O 0.9916(6) 0.8546(6) 0.2871(5)
O25_3 O 0.5740(6) 0.8996(6) 0.2354(5)
O26_3 O 0.7950(6) 0.7008(5) 0.3076(5)
O29_3 O 0.7327(6) 0.7162(6) 0.1728(5)
O31_3 O 0.5712(6) 0.9430(6) 0.0719(5)
O32_3 O 0.5296(6) 0.8194(6) 0.1169(5)
O33_3 O 0.6319(6) 0.7949(6) 0.3321(5)
O35_3 O 0.9629(6) 0.9480(5) 0.3670(5)
O36_3 O 0.6398(6) 0.7371(6) 0.2265(5)
O37_3 O 0.8843(7) 0.7476(6) 0.1962(5)
O41_3 O 0.1786(16) 0.9206(16) 0.1456(14)
C1_3 C 0.1690(17) 0.9852(14) 0.1217(14)
C3_3 C 0.0270(13) 0.9892(13) 0.1154(12)
H1_3 H 0.0387 0.9412 0.1369
O50_3 O 0.3243(9) 0.8959(8) 0.1370(8)
O56_2 O 0.6793(7) 0.6421(7) 0.3418(5)
H8_3 H 0.317021 0.85861 0.100575
H9_3 H 0.275382 0.892071 0.143188
H22_3 H 0.440666 0.96072 0.242574
O46_3 O 0.2558(8) 0.9441(7) 0.9936(6)
H6_3 H 0.276883 0.95322 0.961682
H7_3 H 0.194236 0.955168 0.968271
W1_4 W 0.10205(3) 0.52264(3) 0.12225(3)
W2_4 W 0.44894(3) 0.42323(3) 0.35204(3)
W3_4 W 0.02651(4) 0.33772(3) 0.12903(3)
W5_4 W 0.17686(4) 0.55258(3) 0.29544(3)
W6_4 W 0.10160(4) 0.35896(4) 0.30314(3)
W7_4 W 0.37692(4) 0.25098(3) 0.36118(3)
W8_4 W 0.30436(4) 0.57060(3) 0.23454(3)
W10_4 W 0.15418(4) 0.20570(3) 0.24603(3)
W11_4 W 0.35262(4) 0.40531(4) 0.15762(3)
Nd2_4 Nd 0.66736(5) 0.53117(5) 0.40116(4)
B1_4 B 0.2334(10) 0.3883(9) 0.2452(7)
O1_4 O 0.2512(6) 0.3583(5) 0.1887(4)
O2_4 O 0.1614(6) 0.3429(5) 0.2367(4)
O3_4 O 0.3134(6) 0.3744(6) 0.3154(4)
O4_4 O 0.2125(6) 0.4716(5) 0.2301(4)
O5_4 O 0.4321(7) 0.4301(7) 0.1440(6)
O6_4 O 0.3254(6) 0.5031(6) 0.1783(5)
O7_4 O 0.5522(6) 0.4570(6) 0.3928(5)
O8_4 O 0.3725(6) 0.3045(5) 0.4343(5)
O10_4 O 0.1548(7) 0.6176(6) 0.3410(6)
O11_4 O 0.0543(7) 0.3576(6) 0.3514(5)
O13_4 O 0.1359(7) 0.1115(6) 0.2527(6)
O14_4 O 0.4373(7) 0.1711(7) 0.4072(6)
O15_4 O 0.3886(6) 0.5183(5) 0.3146(5)
O16_4 O 0.2725(6) 0.5013(6) 0.3760(5)
O17_4 O 0.0499(6) 0.2337(5) 0.1665(5)
O19_4 O 0.3575(7) 0.6516(6) 0.2350(6)
O20_4 O 0.2196(6) 0.3630(5) 0.3819(5)
O21_4 O 0.2613(6) 0.6098(6) 0.2897(5)
O22_4 O 0.1134(6) 0.4670(6) 0.2960(5)
O23_4 O 0.0222(6) 0.5827(6) 0.0596(5)
O24_4 O 0.0084(6) 0.3546(6) 0.2129(5)
O25_4 O 0.4260(6) 0.3996(6) 0.2646(5)
O26_4 O 0.2050(6) 0.2008(5) 0.1924(5)
O27_4 O 0.1968(6) 0.5919(5) 0.1524(5)
O28_4 O 0.0979(6) 0.5772(6) 0.2040(5)
O29_4 O 0.2673(6) 0.2162(6) 0.3272(5)
O31_4 O 0.4288(6) 0.4430(6) 0.4281(5)
O32_4 O 0.4704(6) 0.3194(6) 0.3831(5)
O33_4 O 0.3681(6) 0.2949(6) 0.1679(5)
O35_4 O 0.0371(6) 0.4480(5) 0.1330(5)
O36_4 O 0.3602(6) 0.2371(6) 0.2735(5)
O37_4 O 0.1157(7) 0.2476(6) 0.3038(5)
O40_4 O 0.7945(10) 0.5129(10) 0.4012(9)
O41_4 O 0.8214(16) 0.4206(16) 0.3544(14)
C1_4 C 0.8310(17) 0.4852(14) 0.3783(14)
C2_4 C 0.9178(12) 0.5237(12) 0.4008(10)
C3_4 C 0.9730(13) 0.4892(13) 0.3846(12)
H1_4 H 0.9613 0.4412 0.3631
C6_4 C 0.9394(12) 0.5938(13) 0.4375(10)
H4_4 H 0.9036 0.6179 0.4490
O46_4 O 0.7442(8) 0.4441(7) 0.5064(6)
O47_4 O 0.5438(7) 0.6280(7) 0.3614(6)
O48_4 O 0.7837(8) 0.6211(7) 0.4902(5)
O49_4 O 0.5673(11) 0.5163(9) 0.2698(7)
O50_4 O 0.6757(9) 0.3959(8) 0.3630(8)
H6_4 H 0.723117 0.45322 0.538318
H7_4 H 0.805764 0.455168 0.531729
H8_4 H 0.682979 0.35861 0.399425
H9_4 H 0.724618 0.392071 0.356812
H14_4 H 0.00553339 0.764235 0.102737
H18_4 H 0.49423 0.610866 0.315897
H19_4 H 0.561797 0.679915 0.355668
H20_4 H 0.757626 0.666 0.499164
H21_4 H 0.818252 0.639338 0.471133
H22_4 H 0.559334 0.46072 0.257426
H23_4 H 0.591433 0.542512 0.244845
O38 O 0.9211(7) 0.1727(7) 0.5671(6)
H12 H 0.864761 0.0196842 0.530759
Nd1_2 Nd 0.11765(5) 0.35579(4) 0.99430(4)
O38_2 O 0.0789(7) 0.6727(7) 0.9329(6)
O42_3 O 0.1446(10) 0.4738(8) 0.9477(7)
O43_3 O 0.0486(8) 0.3469(8) 0.8623(5)
O44_3 O 0.0321(7) 0.2330(7) 0.9492(6)
O45_3 O 0.2085(8) 0.2926(7) 0.9558(5)
H10_3 H 0.03647 0.399554 0.8419
H11_3 H 0.0872954 0.320173 0.851156
H12_2 H 0.135239 0.519684 0.969241
H13_3 H 0.203939 0.47357 0.959218
H15_3 H 0.0709104 0.188344 0.962072
H16_3 H 0.220466 0.330044 0.928605
H17_3 H 0.262541 0.275522 0.997801
Nd3_2 Nd 0.88235(5) 0.64421(4) 0.00570(4)
O38_3 O 0.9211(7) 0.3273(7) 0.0671(6)
O42_4 O 0.8554(10) 0.5262(8) 0.0523(7)
O43_4 O 0.9514(8) 0.6531(8) 0.1377(5)
O44_4 O 0.9679(7) 0.7670(7) 0.0508(6)
O45_4 O 0.7915(8) 0.7074(7) 0.0442(5)
H10_4 H 0.96353 0.600446 0.1581
H11_4 H 0.912705 0.679827 0.148844
H12_3 H 0.864761 0.480316 0.0307589
H13_4 H 0.796061 0.52643 0.0407817
H15_4 H 0.92909 0.811656 0.0379276
H16_4 H 0.779534 0.669956 0.071395
H17_4 H 0.737459 0.724478 0.00219945
C4_2 C 0.9580(16) 0.4729(13) 0.5994(14)
H2_2 H 0.9230 0.4934 0.6134
C5_2 C 0.9868(15) 0.3763(14) 0.5451(12)
H3_2 H 0.9690 0.3315 0.5182
N1_2 N 0.9361(11) 0.4082(11) 0.5647(10)
H5_2 H 0.8898 0.3856 0.5545
O38_4 O 0.0789(7) 0.8273(7) 0.4329(6)
H12_4 H 0.135239 0.980316 0.469241
C4_3 C 0.9580(16) 0.0271(13) 0.0994(14)
H2_3 H 0.9230 0.0066 0.1134
C5_3 C 0.9868(15) 0.1237(14) 0.0451(12)
H3_3 H 0.9690 0.1685 0.0182
N1_3 N 0.9361(11) 0.0918(11) 0.0647(10)
H5_3 H 0.8898 0.1144 0.0545
C4_4 C 0.0420(16) 0.5271(13) 0.4006(14)
H2_4 H 0.0770 0.5066 0.3866
C5_4 C 0.0132(15) 0.6237(14) 0.4549(12)
H3_4 H 0.0310 0.6685 0.4818
N1_4 N 0.0639(11) 0.5918(11) 0.4353(10)
H5_4 H 0.1102 0.6144 0.4455
K1 K 0.5600(3) 0.4029(3) 0.0115(3)
K1_2 K 0.4400(3) 0.9029(3) 0.4885(3)
K1_3 K 0.4400(3) 0.5971(3) 0.9885(3)
K1_4 K 0.5600(3) 0.0971(3) 0.5115(3)
loop_
_geom_bond_atom_site_label_1
_geom_bond_atom_site_label_2
_geom_bond_site_symmetry_1
_geom_bond_site_symmetry_2
H2 C4 1_555 1_555
C5 H3 1_555 1_555
N1 C4 1_555 1_555
H5 N1 1_555 1_555
C5 N1 1_555 1_555
O46 H6 1_555 1_555
O46 H7 1_555 1_555
W2 O3 1_555 1_555
W3 O2 1_555 1_555
W4 O3 1_555 1_555
W6 O2 1_555 1_555
W7 O3 1_555 1_555
W9 O1 1_555 1_555
W10 O2 1_555 1_555
W11 O1 1_555 1_555
B1 O1 1_555 1_555
O2 B1 1_555 1_555
O3 B1 1_555 1_555
O4 B1 1_555 1_555
O5 W11 1_555 1_555
O7 W2 1_555 1_555
O8 W4 1_555 1_555
O11 W6 1_555 1_555
O12 W3 1_555 1_555
O13 W10 1_555 1_555
O14 W7 1_555 1_555
O17 W3 1_555 1_555
O18 W9 1_555 1_555
O20 W4 1_555 1_555
O24 W3 1_555 1_555
O25 W2 1_555 1_555
O26 W9 1_555 1_555
O29 W7 1_555 1_555
O30 W11 1_555 1_555
O31 W2 1_555 1_555
O32 W2 1_555 1_555
O33 W9 1_555 1_555
O36 W7 1_555 1_555
O37 W6 1_555 1_555
O41 C1 1_555 1_555
H1 C3 1_555 1_555
Nd3 O12 1_555 1_555
O56 W9 1_555 1_555
W3 O35 1_555 1_555
W4 O31 1_555 1_555
W6 O20 1_555 1_555
W6 O22 1_555 1_555
W6 O24 1_555 1_555
W7 O8 1_555 1_555
W7 O32 1_555 1_555
W9 O36 1_555 1_555
W10 O17 1_555 1_555
W10 O26 1_555 1_555
W10 O29 1_555 1_555
W10 O37 1_555 1_555
W11 O25 1_555 1_555
W11 O33 1_555 1_555
O18 Nd3 1_555 1_555
O30 Nd3 1_555 1_555
O34 Nd3 1_555 1_555
O50 H8 1_555 1_555
O50 H9 1_555 1_555
O6 W8 1_555 1_555
O9 Nd2 1_555 1_555
O10 W5 1_555 1_555
O19 W8 1_555 1_555
O21 W5 1_555 1_555
O23 W1 1_555 1_555
O27 W1 1_555 1_555
O28 W1 1_555 1_555
O39 Nd2 1_555 1_555
O40 Nd2 1_555 1_555
C6 C2 1_555 1_555
H4 C6 1_555 1_555
O47 Nd2 1_555 1_555
O48 Nd2 1_555 1_555
O49 Nd2 1_555 1_555
W13 O39 1_555 1_555
W5 O16 1_555 1_555
W5 O28 1_555 1_555
W8 O15 1_555 1_555
W8 O21 1_555 1_555
W8 O27 1_555 1_555
O47 H18 1_555 1_555
O47 H19 1_555 1_555
O48 H20 1_555 1_555
O48 H21 1_555 1_555
O49 H23 1_555 1_555
O42 Nd1 1_555 1_555
O43 Nd1 1_555 1_555
O44 Nd1 1_555 1_555
O45 Nd1 1_555 1_555
O52 Nd1 1_555 1_555
O53 Nd1 1_555 1_555
O54 Nd1 1_555 1_555
O55 Nd1 1_555 1_555
O43 H10 1_555 1_555
O43 H11 1_555 1_555
O42 H13 1_555 1_555
O44 H15 1_555 1_555
O45 H16 1_555 1_555
O45 H17 1_555 1_555
W1_2 O4_2 1_555 1_555
W2_2 O3_2 1_555 1_555
W3_2 O2_2 1_555 1_555
W4_2 O3_2 1_555 1_555
W5_2 O4_2 1_555 1_555
W6_2 O2_2 1_555 1_555
W7_2 O3_2 1_555 1_555
W8_2 O4_2 1_555 1_555
W13 O1_2 1_555 1_555
W10_2 O2_2 1_555 1_555
W11_2 O1_2 1_555 1_555
Nd2_2 O7_2 1_555 1_555
B1_2 O1_2 1_555 1_555
O2_2 B1_2 1_555 1_555
O3_2 B1_2 1_555 1_555
O4_2 B1_2 1_555 1_555
O5_2 W11_2 1_555 1_555
O6_2 W8_2 1_555 1_555
O7_2 W2_2 1_555 1_555
O8_2 W4_2 1_555 1_555
O9_2 Nd2_2 1_555 1_555
O10_2 W5_2 1_555 1_555
O11_2 W6_2 1_555 1_555
O12_2 W3_2 1_555 1_555
O13_2 W10_2 1_555 1_555
O14_2 W7_2 1_555 1_555
O15_2 W2_2 1_555 1_555
O16_2 W4_2 1_555 1_555
O17_2 W3_2 1_555 1_555
O18_2 W13 1_555 1_555
O19_2 W8_2 1_555 1_555
O20_2 W4_2 1_555 1_555
O21_2 W5_2 1_555 1_555
O22_2 W5_2 1_555 1_555
O23_2 W1_2 1_555 1_555
O24_2 W3_2 1_555 1_555
O25_2 W2_2 1_555 1_555
O26_2 W13 1_555 1_555
O27_2 W1_2 1_555 1_555
O28_2 W1_2 1_555 1_555
O29_2 W7_2 1_555 1_555
O30_2 W11_2 1_555 1_555
O31_2 W2_2 1_555 1_555
O32_2 W2_2 1_555 1_555
O33_2 W13 1_555 1_555
O34_2 W1_2 1_555 1_555
O35_2 W1_2 1_555 1_555
O36_2 W7_2 1_555 1_555
O37_2 W6_2 1_555 1_555
O56 Nd2_2 1_555 1_555
O40_2 Nd2_2 1_555 1_555
O41_2 C1_2 1_555 1_555
C1_2 O40_2 1_555 1_555
C2_2 C1_2 1_555 1_555
C3_2 C2_2 1_555 1_555
H1_2 C3_2 1_555 1_555
C6_2 C2_2 1_555 1_555
H4_2 C6_2 1_555 1_555
O46_2 Nd2_2 1_555 1_555
O47_2 Nd2_2 1_555 1_555
O48_2 Nd2_2 1_555 1_555
O49_2 Nd2_2 1_555 1_555
O50_2 Nd2_2 1_555 1_555
W12_2 O9_2 1_555 1_555
O51_2 W4_2 1_555 1_555
W3_2 O35_2 1_555 1_555
W4_2 O31_2 1_555 1_555
W5_2 O16_2 1_555 1_555
W5_2 O28_2 1_555 1_555
W6_2 O20_2 1_555 1_555
W6_2 O22_2 1_555 1_555
W6_2 O24_2 1_555 1_555
W7_2 O8_2 1_555 1_555
W7_2 O32_2 1_555 1_555
W8_2 O15_2 1_555 1_555
W8_2 O21_2 1_555 1_555
W8_2 O27_2 1_555 1_555
W13 O36_2 1_555 1_555
W10_2 O17_2 1_555 1_555
W10_2 O26_2 1_555 1_555
W10_2 O29_2 1_555 1_555
W10_2 O37_2 1_555 1_555
W11_2 O6_2 1_555 1_555
W11_2 O25_2 1_555 1_555
W11_2 O33_2 1_555 1_555
O46_2 H6_2 1_555 1_555
O46_2 H7_2 1_555 1_555
O50_2 H8_2 1_555 1_555
O50_2 H9_2 1_555 1_555
O47_2 H18_2 1_555 1_555
O47_2 H19_2 1_555 1_555
O48_2 H20_2 1_555 1_555
O48_2 H21_2 1_555 1_555
O49_2 H22_2 1_555 1_555
O49_2 H23_2 1_555 1_555
O42_2 Nd3 1_555 1_555
O43_2 Nd3 1_555 1_555
O44_2 Nd3 1_555 1_555
O45_2 Nd3 1_555 1_555
O43_2 H10_2 1_555 1_555
O43_2 H11_2 1_555 1_555
O42_2 H13_2 1_555 1_555
O44_2 H15_2 1_555 1_555
O45_2 H16_2 1_555 1_555
O45_2 H17_2 1_555 1_555
O6_3 W8_3 1_555 1_555
O51 Nd2_3 1_555 1_555
O10_3 W5_3 1_555 1_555
O19_3 W8_3 1_555 1_555
O21_3 W5_3 1_555 1_555
O23_3 W1_3 1_555 1_555
O27_3 W1_3 1_555 1_555
O28_3 W1_3 1_555 1_555
O39_2 Nd2_3 1_555 1_555
O40_3 Nd2_3 1_555 1_555
C6_3 C2_3 1_555 1_555
H4_3 C6_3 1_555 1_555
O47_3 Nd2_3 1_555 1_555
O48_3 Nd2_3 1_555 1_555
O49_3 Nd2_3 1_555 1_555
W13_2 O39_2 1_555 1_555
W5_3 O16_3 1_555 1_555
W5_3 O28_3 1_555 1_555
W8_3 O15_3 1_555 1_555
W8_3 O21_3 1_555 1_555
W8_3 O27_3 1_555 1_555
O47_3 H18_3 1_555 1_555
O47_3 H19_3 1_555 1_555
O48_3 H20_3 1_555 1_555
O48_3 H21_3 1_555 1_555
O49_3 H23_3 1_555 1_555
W2_3 O3_3 1_555 1_555
W3_3 O2_3 1_555 1_555
W12 O3_3 1_555 1_555
W6_3 O2_3 1_555 1_555
W7_3 O3_3 1_555 1_555
W9_2 O1_3 1_555 1_555
W10_3 O2_3 1_555 1_555
W11_3 O1_3 1_555 1_555
B1_3 O1_3 1_555 1_555
O2_3 B1_3 1_555 1_555
O3_3 B1_3 1_555 1_555
O4_3 B1_3 1_555 1_555
O5_3 W11_3 1_555 1_555
O7_3 W2_3 1_555 1_555
O8_3 W12 1_555 1_555
O11_3 W6_3 1_555 1_555
O52 W3_3 1_555 1_555
O13_3 W10_3 1_555 1_555
O14_3 W7_3 1_555 1_555
O17_3 W3_3 1_555 1_555
O53 W9_2 1_555 1_555
O20_3 W12 1_555 1_555
O24_3 W3_3 1_555 1_555
O25_3 W2_3 1_555 1_555
O26_3 W9_2 1_555 1_555
O29_3 W7_3 1_555 1_555
O54 W11_3 1_555 1_555
O31_3 W2_3 1_555 1_555
O32_3 W2_3 1_555 1_555
O33_3 W9_2 1_555 1_555
O36_3 W7_3 1_555 1_555
O37_3 W6_3 1_555 1_555
O41_3 C1_3 1_555 1_555
H1_3 C3_3 1_555 1_555
O56_2 W9_2 1_555 1_555
W3_3 O35_3 1_555 1_555
W12 O31_3 1_555 1_555
W6_3 O20_3 1_555 1_555
W6_3 O22_3 1_555 1_555
W6_3 O24_3 1_555 1_555
W7_3 O8_3 1_555 1_555
W7_3 O32_3 1_555 1_555
W9_2 O36_3 1_555 1_555
W10_3 O17_3 1_555 1_555
W10_3 O26_3 1_555 1_555
W10_3 O29_3 1_555 1_555
W10_3 O37_3 1_555 1_555
W11_3 O25_3 1_555 1_555
W11_3 O33_3 1_555 1_555
O50_3 H8_3 1_555 1_555
O50_3 H9_3 1_555 1_555
O46_3 H6_3 1_555 1_555
O46_3 H7_3 1_555 1_555
W1_4 O4_4 1_555 1_555
W2_4 O3_4 1_555 1_555
W3_4 O2_4 1_555 1_555
W12_2 O3_4 1_555 1_555
W5_4 O4_4 1_555 1_555
W6_4 O2_4 1_555 1_555
W7_4 O3_4 1_555 1_555
W8_4 O4_4 1_555 1_555
W13_2 O1_4 1_555 1_555
W10_4 O2_4 1_555 1_555
W11_4 O1_4 1_555 1_555
Nd2_4 O7_4 1_555 1_555
B1_4 O1_4 1_555 1_555
O2_4 B1_4 1_555 1_555
O3_4 B1_4 1_555 1_555
O4_4 B1_4 1_555 1_555
O5_4 W11_4 1_555 1_555
O6_4 W8_4 1_555 1_555
O7_4 W2_4 1_555 1_555
O8_4 W12_2 1_555 1_555
O51_2 Nd2_4 1_555 1_555
O10_4 W5_4 1_555 1_555
O11_4 W6_4 1_555 1_555
O52_2 W3_4 1_555 1_555
O13_4 W10_4 1_555 1_555
O14_4 W7_4 1_555 1_555
O15_4 W2_4 1_555 1_555
O16_4 W12_2 1_555 1_555
O17_4 W3_4 1_555 1_555
O53_2 W13_2 1_555 1_555
O19_4 W8_4 1_555 1_555
O20_4 W12_2 1_555 1_555
O21_4 W5_4 1_555 1_555
O22_4 W5_4 1_555 1_555
O23_4 W1_4 1_555 1_555
O24_4 W3_4 1_555 1_555
O25_4 W2_4 1_555 1_555
O26_4 W13_2 1_555 1_555
O27_4 W1_4 1_555 1_555
O28_4 W1_4 1_555 1_555
O29_4 W7_4 1_555 1_555
O54_2 W11_4 1_555 1_555
O31_4 W2_4 1_555 1_555
O32_4 W2_4 1_555 1_555
O33_4 W13_2 1_555 1_555
O55_2 W1_4 1_555 1_555
O35_4 W1_4 1_555 1_555
O36_4 W7_4 1_555 1_555
O37_4 W6_4 1_555 1_555
O56_2 Nd2_4 1_555 1_555
O40_4 Nd2_4 1_555 1_555
O41_4 C1_4 1_555 1_555
C1_4 O40_4 1_555 1_555
C2_4 C1_4 1_555 1_555
C3_4 C2_4 1_555 1_555
H1_4 C3_4 1_555 1_555
C6_4 C2_4 1_555 1_555
H4_4 C6_4 1_555 1_555
O46_4 Nd2_4 1_555 1_555
O47_4 Nd2_4 1_555 1_555
O48_4 Nd2_4 1_555 1_555
O49_4 Nd2_4 1_555 1_555
O50_4 Nd2_4 1_555 1_555
W3_4 O35_4 1_555 1_555
W12_2 O31_4 1_555 1_555
W5_4 O16_4 1_555 1_555
W5_4 O28_4 1_555 1_555
W6_4 O20_4 1_555 1_555
W6_4 O22_4 1_555 1_555
W6_4 O24_4 1_555 1_555
W7_4 O8_4 1_555 1_555
W7_4 O32_4 1_555 1_555
W8_4 O15_4 1_555 1_555
W8_4 O21_4 1_555 1_555
W8_4 O27_4 1_555 1_555
W13_2 O36_4 1_555 1_555
W10_4 O17_4 1_555 1_555
W10_4 O26_4 1_555 1_555
W10_4 O29_4 1_555 1_555
W10_4 O37_4 1_555 1_555
W11_4 O6_4 1_555 1_555
W11_4 O25_4 1_555 1_555
W11_4 O33_4 1_555 1_555
O46_4 H6_4 1_555 1_555
O46_4 H7_4 1_555 1_555
O50_4 H8_4 1_555 1_555
O50_4 H9_4 1_555 1_555
O47_4 H18_4 1_555 1_555
O47_4 H19_4 1_555 1_555
O48_4 H20_4 1_555 1_555
O48_4 H21_4 1_555 1_555
O49_4 H22_4 1_555 1_555
O49_4 H23_4 1_555 1_555
O42_3 Nd1_2 1_555 1_555
O43_3 Nd1_2 1_555 1_555
O44_3 Nd1_2 1_555 1_555
O45_3 Nd1_2 1_555 1_555
O43_3 H10_3 1_555 1_555
O43_3 H11_3 1_555 1_555
O42_3 H12_2 1_555 1_555
O42_3 H13_3 1_555 1_555
O44_3 H15_3 1_555 1_555
O45_3 H16_3 1_555 1_555
O45_3 H17_3 1_555 1_555
O42_4 Nd3_2 1_555 1_555
O43_4 Nd3_2 1_555 1_555
O44_4 Nd3_2 1_555 1_555
O45_4 Nd3_2 1_555 1_555
O43_4 H10_4 1_555 1_555
O43_4 H11_4 1_555 1_555
O42_4 H12_3 1_555 1_555
O42_4 H13_4 1_555 1_555
O44_4 H15_4 1_555 1_555
O45_4 H16_4 1_555 1_555
O45_4 H17_4 1_555 1_555
H2_2 C4_2 1_555 1_555
C5_2 H3_2 1_555 1_555
N1_2 C4_2 1_555 1_555
H5_2 N1_2 1_555 1_555
C5_2 N1_2 1_555 1_555
H2_3 C4_3 1_555 1_555
C5_3 H3_3 1_555 1_555
N1_3 C4_3 1_555 1_555
H5_3 N1_3 1_555 1_555
C5_3 N1_3 1_555 1_555
H2_4 C4_4 1_555 1_555
C5_4 H3_4 1_555 1_555
N1_4 C4_4 1_555 1_555
H5_4 N1_4 1_555 1_555
C5_4 N1_4 1_555 1_555

#END
