
###############################################################################
#
# This file contains modified crystal structure data generated from the
# MOF subset of the Cambridge Structural Database (CSD) v543 
# hosted by the Cambridge Crystallographic Data Centre (CCDC).
#
# This work is licensed under the Creative Commons
# Attribution-NonCommercial-ShareAlike 4.0 International License.
# To view a copy of this license, visit
# http://creativecommons.org/licenses/by-nc-sa/4.0/
# or send a letter to
# Creative Commons, PO Box 1866, Mountain View, CA 94042, USA.
#
# CIF created using the CSD Python API on 29 September 2022
# The structure has been converted into the P1 space group
# The structure has a 3D framework
# The original CSD entry EXEMUR is in the trigonal crystal system
# The framework has been calculated to contain at least 10.0% void space
# The void calculation uses a probe of radius 1.32A, grid spacing 0.4
# The framework is charged, counterions have been retained in the structure
#
###############################################################################

data_EXEMUR
_chemical_formula_moiety         '(C144 H96 Cd8 Cl12 N12 O24 6+)n'
_symmetry_cell_setting           triclinic
_symmetry_space_group_name_H-M   'P 1'
_symmetry_Int_Tables_number      1
_space_group_name_Hall           'P 1'
loop_
_symmetry_equiv_pos_site_id
_symmetry_equiv_pos_as_xyz
1 x,y,z
_cell_length_a                   18.196(5)
_cell_length_b                   18.196(5)
_cell_length_c                   15.127(5)
_cell_angle_alpha                90
_cell_angle_beta                 90
_cell_angle_gamma                120
_cell_volume                     4337.46
loop_
_atom_site_label
_atom_site_type_symbol
_atom_site_fract_x
_atom_site_fract_y
_atom_site_fract_z
C37 C 0.3248(3) 0.2681(4) 0.1781(3)
C38 C 0.2716(3) 0.3055(4) 0.1467(3)
C39 C 0.1981(4) 0.2567(6) 0.1003(5)
H25 H 0.1813 0.1996 0.0863
C40 C 0.2976(4) 0.3884(5) 0.1614(5)
H26 H 0.3498 0.4232 0.1911
C41 C 0.1484(4) 0.2909(6) 0.0738(5)
H27 H 0.0968 0.2570 0.0428
C42 C 0.2490(4) 0.4230(5) 0.1335(6)
H28 H 0.2681 0.4814 0.1433
C43 C 0.1745(3) 0.3737(4) 0.0926(4)
C44 C 0.1523(4) 0.4738(5) 0.0102(5)
C45 C 0.0415(3) 0.3729(5) 0.0886(5)
H30 H 0.0170 0.3217 0.1218
C48 C 0.0260(3) 0.4807(4) 0.0143(4)
N4 N 0.1225(2) 0.4102(3) 0.0649(3)
O7 O 0.3151(3) 0.2012(4) 0.1453(3)
O8 O 0.3772(3) 0.3054(4) 0.2367(3)
Cd6 Cd 0.42300(2) 0.211500(23) 0.2500
C61 C 0.7319(4) 0.0567(3) 0.1781(3)
O11 O 0.7988(4) 0.1139(2) 0.1453(3)
O12 O 0.6946(4) 0.0718(2) 0.2367(3)
Cd7 Cd 0.788500(23) 0.211500(11) 0.2500
C13 C 0.9433(3) 0.6752(3) 0.1781(3)
O3 O 0.8861(2) 0.6849(3) 0.1453(3)
O4 O 0.9282(2) 0.6228(3) 0.2367(3)
Cd5 Cd 0.788500(11) 0.57700(2) 0.2500
C13_2 C 0.3248(3) 0.0567(3) 0.3219(3)
O3_2 O 0.3151(3) 0.1139(2) 0.3547(3)
O4_2 O 0.3772(3) 0.0718(2) 0.2633(3)
C35 C 0.4083(5) 0.9928(3) 0.5650(5)
H24 H 0.3825 0.9355 0.5841
C37_2 C 0.7319(4) 0.6752(3) 0.3219(3)
C38_2 C 0.6945(4) 0.7284(3) 0.3533(3)
C39_2 C 0.7433(6) 0.8019(4) 0.3997(5)
H25_2 H 0.8004 0.8187 0.4137
C40_2 C 0.6116(5) 0.7024(4) 0.3386(5)
H26_2 H 0.5768 0.6502 0.3089
C41_2 C 0.7091(6) 0.8516(4) 0.4262(5)
H27_2 H 0.7430 0.9032 0.4572
C42_2 C 0.5770(5) 0.7510(4) 0.3665(6)
H28_2 H 0.5186 0.7319 0.3567
C43_2 C 0.6263(4) 0.8255(3) 0.4074(4)
C44_2 C 0.5262(5) 0.8477(4) 0.4898(5)
H29 H 0.5035 0.7914 0.5114
C45_2 C 0.6271(5) 0.9585(3) 0.4114(5)
H30_2 H 0.6783 0.9830 0.3782
C46 C 0.4910(5) 0.8948(4) 0.5171(5)
H31 H 0.4460 0.8716 0.5589
C48_2 C 0.5193(4) 0.9740(3) 0.4857(4)
N4_2 N 0.5898(3) 0.8775(2) 0.4351(3)
O7_2 O 0.7988(4) 0.6849(3) 0.3547(3)
O8_2 O 0.6946(4) 0.6228(3) 0.2633(3)
C61_2 C 0.9433(3) 0.2681(4) 0.3219(3)
O11_2 O 0.8861(2) 0.2012(4) 0.3547(3)
O12_2 O 0.9282(2) 0.3054(4) 0.2633(3)
Cl1 Cl 0.77030(6) 0.45957(5) 0.35393(7)
Cd1 Cd 0.6667 0.3333 0.2500
Cl2 Cl 0.54043(5) 0.31073(8) 0.35393(7)
Cl3 Cl 0.68927(8) 0.22970(6) 0.35393(7)
Cl4 Cl 0.54043(5) 0.22970(6) 0.14607(7)
Cl5 Cl 0.77030(6) 0.31073(8) 0.14607(7)
Cl6 Cl 0.68927(8) 0.45957(5) 0.14607(7)
C35_2 C 0.0072(3) 0.5917(5) 0.9350(5)
H24_2 H 0.0645 0.6175 0.9159
H29_2 H 0.2086 0.4965 0.9886
C46_2 C 0.1052(4) 0.5090(5) 0.9829(5)
H31_2 H 0.1284 0.5540 0.9411
H37 H 0.4965 0.2879 0.0114
C58 C 0.5090(5) 0.4038(3) 0.0171(5)
H39 H 0.5540 0.4256 0.0589
C62 C 0.6945(4) 0.9661(3) 0.1467(3)
C63 C 0.7433(6) 0.9414(4) 0.1003(5)
H41 H 0.8004 0.9817 0.0863
C64 C 0.6116(5) 0.9092(3) 0.1614(5)
H42 H 0.5768 0.9266 0.1911
C65 C 0.7091(6) 0.8575(4) 0.0738(5)
H43 H 0.7430 0.8398 0.0428
C66 C 0.5770(5) 0.8260(3) 0.1335(6)
H44 H 0.5186 0.7867 0.1433
C67 C 0.6263(4) 0.8008(3) 0.0926(4)
C68 C 0.5262(5) 0.6785(3) 0.0102(5)
C69 C 0.6271(5) 0.6686(4) 0.0886(5)
H46 H 0.6783 0.6953 0.1218
C71 C 0.5917(5) 0.5845(4) 0.0650(5)
H48 H 0.6175 0.5530 0.0841
C72 C 0.5193(4) 0.5453(3) 0.0143(4)
N6 N 0.5898(3) 0.7123(2) 0.0649(3)
C50 C 0.3055(4) 0.0339(3) 0.8533(3)
C51 C 0.2567(6) 0.0586(4) 0.8997(5)
H33 H 0.1996 0.0183 0.9137
C52 C 0.3884(5) 0.0908(3) 0.8386(5)
H34 H 0.4232 0.0734 0.8089
C53 C 0.2909(6) 0.1425(4) 0.9262(5)
H35 H 0.2570 0.1602 0.9572
C54 C 0.4230(5) 0.1740(3) 0.8665(6)
H36 H 0.4814 0.2133 0.8567
C55 C 0.3737(4) 0.1992(3) 0.9074(4)
C56 C 0.4738(5) 0.3215(3) 0.9898(5)
C57 C 0.3729(5) 0.3314(4) 0.9114(5)
H38 H 0.3217 0.3047 0.8782
C59 C 0.4083(5) 0.4155(4) 0.9350(5)
H40 H 0.3825 0.4470 0.9159
C60 C 0.4807(4) 0.4547(3) 0.9857(4)
N5 N 0.4102(3) 0.2877(2) 0.9351(3)
H45 H 0.5035 0.7121 0.9886
C70 C 0.4910(5) 0.5962(3) 0.9829(5)
H47 H 0.4460 0.5744 0.9411
H21 H 0.7914 0.5035 0.0114
C34 C 0.8948(4) 0.4910(5) 0.0171(5)
H23 H 0.8716 0.4460 0.0589
C47 C 0.9928(3) 0.4083(5) 0.0650(5)
H32 H 0.9355 0.3825 0.0841
C1 C 0.0567(3) 0.3248(3) 0.8219(3)
O1 O 0.1139(2) 0.3151(3) 0.8547(3)
O2 O 0.0718(2) 0.3772(3) 0.7633(3)
Cl1_2 Cl 0.22970(6) 0.54043(5) 0.64607(7)
Cd1_2 Cd 0.3333 0.6667 0.7500
Cd2 Cd 0.211500(11) 0.42300(2) 0.7500
C25 C 0.6752(3) 0.7319(4) 0.8219(3)
C26 C 0.7284(3) 0.6945(4) 0.8533(3)
C27 C 0.8019(4) 0.7433(6) 0.8997(5)
H17 H 0.8187 0.8004 0.9137
C28 C 0.7024(4) 0.6116(5) 0.8386(5)
H18 H 0.6502 0.5768 0.8089
C29 C 0.8516(4) 0.7091(6) 0.9262(5)
H19 H 0.9032 0.7430 0.9572
C30 C 0.7510(4) 0.5770(5) 0.8665(6)
H20 H 0.7319 0.5186 0.8567
C31 C 0.8255(3) 0.6263(4) 0.9074(4)
C32 C 0.8477(4) 0.5262(5) 0.9898(5)
C33 C 0.9585(3) 0.6271(5) 0.9114(5)
H22 H 0.9830 0.6783 0.8782
C36 C 0.9740(3) 0.5193(4) 0.9857(4)
N3 N 0.8775(2) 0.5898(3) 0.9351(3)
O5 O 0.6849(3) 0.7988(4) 0.8547(3)
O6 O 0.6228(3) 0.6946(4) 0.7633(3)
Cl2_2 Cl 0.45957(5) 0.68927(8) 0.64607(7)
Cd3 Cd 0.57700(2) 0.788500(23) 0.7500
C49 C 0.2681(4) 0.9433(3) 0.8219(3)
O9 O 0.2012(4) 0.8861(2) 0.8547(3)
O10 O 0.3054(4) 0.9282(2) 0.7633(3)
Cl3_2 Cl 0.31073(8) 0.77030(6) 0.64607(7)
Cd4 Cd 0.211500(23) 0.788500(11) 0.7500
Cl4_2 Cl 0.45957(5) 0.77030(6) 0.85393(7)
Cl5_2 Cl 0.22970(6) 0.68927(8) 0.85393(7)
Cl6_2 Cl 0.31073(8) 0.54043(5) 0.85393(7)
O13 O 0.6849(3) 0.8861(2) 0.6453(3)
O14 O 0.1139(2) 0.7988(4) 0.6453(3)
O15 O 0.2012(4) 0.3151(3) 0.6453(3)
O16 O 0.6228(3) 0.9282(2) 0.7367(3)
O17 O 0.0718(2) 0.6946(4) 0.7367(3)
O18 O 0.3054(4) 0.3772(3) 0.7367(3)
C1_2 C 0.6752(3) 0.9433(3) 0.6781(3)
C25_2 C 0.2681(4) 0.3248(3) 0.6781(3)
C26_2 C 0.3055(4) 0.2716(3) 0.6467(3)
C27_2 C 0.2567(6) 0.1981(4) 0.6003(5)
H17_2 H 0.1996 0.1813 0.5863
C28_2 C 0.3884(5) 0.2976(4) 0.6614(5)
H18_2 H 0.4232 0.3498 0.6911
C29_2 C 0.2909(6) 0.1484(4) 0.5738(5)
H19_2 H 0.2570 0.0968 0.5428
C30_2 C 0.4230(5) 0.2490(4) 0.6335(6)
H20_2 H 0.4814 0.2681 0.6433
C31_2 C 0.3737(4) 0.1745(3) 0.5926(4)
C32_2 C 0.4738(5) 0.1523(4) 0.5102(5)
H21_2 H 0.4965 0.2086 0.4886
C33_2 C 0.3729(5) 0.0415(3) 0.5886(5)
H22_2 H 0.3217 0.0170 0.6218
C34_2 C 0.5090(5) 0.1052(4) 0.4829(5)
H23_2 H 0.5540 0.1284 0.4411
C36_2 C 0.4807(4) 0.0260(3) 0.5143(4)
N3_2 N 0.4102(3) 0.1225(2) 0.5649(3)
C47_2 C 0.5917(5) 0.0072(3) 0.4350(5)
H32_2 H 0.6175 0.0645 0.4159
C49_2 C 0.0567(3) 0.7319(4) 0.6781(3)
H5 H 0.7121 0.2086 0.0114
C10 C 0.5962(3) 0.1052(4) 0.0171(5)
H7 H 0.5744 0.1284 0.0589
C23 C 0.4155(4) 0.0072(3) 0.0650(5)
H16 H 0.4470 0.0645 0.0841
C2 C 0.9661(3) 0.2716(3) 0.8533(3)
C3 C 0.9414(4) 0.1981(4) 0.8997(5)
H1 H 0.9817 0.1813 0.9137
C4 C 0.9092(3) 0.2976(4) 0.8386(5)
H2 H 0.9266 0.3498 0.8089
C5 C 0.8575(4) 0.1484(4) 0.9262(5)
H3 H 0.8398 0.0968 0.9572
C6 C 0.8260(3) 0.2490(4) 0.8665(6)
H4 H 0.7867 0.2681 0.8567
C7 C 0.8008(3) 0.1745(3) 0.9074(4)
C8 C 0.6785(3) 0.1523(4) 0.9898(5)
C9 C 0.6686(4) 0.0415(3) 0.9114(5)
H6 H 0.6953 0.0170 0.8782
C12 C 0.5453(3) 0.0260(3) 0.9857(4)
N1 N 0.7123(2) 0.1225(2) 0.9351(3)
C14 C 0.0339(3) 0.7284(3) 0.1467(3)
C15 C 0.0586(4) 0.8019(4) 0.1003(5)
H9 H 0.0183 0.8187 0.0863
C16 C 0.0908(3) 0.7024(4) 0.1614(5)
H10 H 0.0734 0.6502 0.1911
C17 C 0.1425(4) 0.8516(4) 0.0738(5)
H11 H 0.1602 0.9032 0.0428
C18 C 0.1740(3) 0.7510(4) 0.1335(6)
H12 H 0.2133 0.7319 0.1433
C19 C 0.1992(3) 0.8255(3) 0.0926(4)
C20 C 0.3215(3) 0.8477(4) 0.0102(5)
C21 C 0.3314(4) 0.9585(3) 0.0886(5)
H14 H 0.3047 0.9830 0.1218
C24 C 0.4547(3) 0.9740(3) 0.0143(4)
N2 N 0.2877(2) 0.8775(2) 0.0649(3)
C11 C 0.5845(4) 0.9928(3) 0.9350(5)
H8 H 0.5530 0.9355 0.9159
H13 H 0.2879 0.7914 0.9886
C22 C 0.4038(3) 0.8948(4) 0.9829(5)
H15 H 0.4256 0.8716 0.9411
C11_2 C 0.0072(3) 0.4155(4) 0.5650(5)
H8_2 H 0.0645 0.4470 0.5841
C14_2 C 0.2716(3) 0.9661(3) 0.3533(3)
C15_2 C 0.1981(4) 0.9414(4) 0.3997(5)
H9_2 H 0.1813 0.9817 0.4137
C16_2 C 0.2976(4) 0.9092(3) 0.3386(5)
H10_2 H 0.3498 0.9266 0.3089
C17_2 C 0.1484(4) 0.8575(4) 0.4262(5)
H11_2 H 0.0968 0.8398 0.4572
C18_2 C 0.2490(4) 0.8260(3) 0.3665(6)
H12_2 H 0.2681 0.7867 0.3567
C19_2 C 0.1745(3) 0.8008(3) 0.4074(4)
C20_2 C 0.1523(4) 0.6785(3) 0.4898(5)
H13_2 H 0.2086 0.7121 0.5114
C21_2 C 0.0415(3) 0.6686(4) 0.4114(5)
H14_2 H 0.0170 0.6953 0.3782
C22_2 C 0.1052(4) 0.5962(3) 0.5171(5)
H15_2 H 0.1284 0.5744 0.5589
C24_2 C 0.0260(3) 0.5453(3) 0.4857(4)
N2_2 N 0.1225(2) 0.7123(2) 0.4351(3)
C2_2 C 0.7284(3) 0.0339(3) 0.6467(3)
C3_2 C 0.8019(4) 0.0586(4) 0.6003(5)
H1_2 H 0.8187 0.0183 0.5863
C4_2 C 0.7024(4) 0.0908(3) 0.6614(5)
H2_2 H 0.6502 0.0734 0.6911
C5_2 C 0.8516(4) 0.1425(4) 0.5738(5)
H3_2 H 0.9032 0.1602 0.5428
C6_2 C 0.7510(4) 0.1740(3) 0.6335(6)
H4_2 H 0.7319 0.2133 0.6433
C7_2 C 0.8255(3) 0.1992(3) 0.5926(4)
C8_2 C 0.8477(4) 0.3215(3) 0.5102(5)
H5_2 H 0.7914 0.2879 0.4886
C9_2 C 0.9585(3) 0.3314(4) 0.5886(5)
H6_2 H 0.9830 0.3047 0.6218
C10_2 C 0.8948(4) 0.4038(3) 0.4829(5)
H7_2 H 0.8716 0.4256 0.4411
C12_2 C 0.9740(3) 0.4547(3) 0.5143(4)
N1_2 N 0.8775(2) 0.2877(2) 0.5649(3)
C23_2 C 0.9928(3) 0.5845(4) 0.4350(5)
H16_2 H 0.9355 0.5530 0.4159
C50_2 C 0.9661(3) 0.6945(4) 0.6467(3)
C51_2 C 0.9414(4) 0.7433(6) 0.6003(5)
H33_2 H 0.9817 0.8004 0.5863
C52_2 C 0.9092(3) 0.6116(5) 0.6614(5)
H34_2 H 0.9266 0.5768 0.6911
C53_2 C 0.8575(4) 0.7091(6) 0.5738(5)
H35_2 H 0.8398 0.7430 0.5428
C54_2 C 0.8260(3) 0.5770(5) 0.6335(6)
H36_2 H 0.7867 0.5186 0.6433
C55_2 C 0.8008(3) 0.6263(4) 0.5926(4)
C56_2 C 0.6785(3) 0.5262(5) 0.5102(5)
H37_2 H 0.7121 0.5035 0.4886
C57_2 C 0.6686(4) 0.6271(5) 0.5886(5)
H38_2 H 0.6953 0.6783 0.6218
C58_2 C 0.5962(3) 0.4910(5) 0.4829(5)
H39_2 H 0.5744 0.4460 0.4411
C59_2 C 0.5845(4) 0.5917(5) 0.5650(5)
H40_2 H 0.5530 0.6175 0.5841
C60_2 C 0.5453(3) 0.5193(4) 0.5143(4)
N5_2 N 0.7123(2) 0.5898(3) 0.5649(3)
C62_2 C 0.0339(3) 0.3055(4) 0.3533(3)
C63_2 C 0.0586(4) 0.2567(6) 0.3997(5)
H41_2 H 0.0183 0.1996 0.4137
C64_2 C 0.0908(3) 0.3884(5) 0.3386(5)
H42_2 H 0.0734 0.4232 0.3089
C65_2 C 0.1425(4) 0.2909(6) 0.4262(5)
H43_2 H 0.1602 0.2570 0.4572
C66_2 C 0.1740(3) 0.4230(5) 0.3665(6)
H44_2 H 0.2133 0.4814 0.3567
C67_2 C 0.1992(3) 0.3737(4) 0.4074(4)
C68_2 C 0.3215(3) 0.4738(5) 0.4898(5)
H45_2 H 0.2879 0.4965 0.5114
C69_2 C 0.3314(4) 0.3729(5) 0.4114(5)
H46_2 H 0.3047 0.3217 0.3782
C70_2 C 0.4038(3) 0.5090(5) 0.5171(5)
H47_2 H 0.4256 0.5540 0.5589
C71_2 C 0.4155(4) 0.4083(5) 0.4350(5)
H48_2 H 0.4470 0.3825 0.4159
C72_2 C 0.4547(3) 0.4807(4) 0.4857(4)
N6_2 N 0.2877(2) 0.4102(3) 0.4351(3)
loop_
_geom_bond_atom_site_label_1
_geom_bond_atom_site_label_2
_geom_bond_site_symmetry_1
_geom_bond_site_symmetry_2
C37 C38 1_555 1_555
C38 C39 1_555 1_555
C39 H25 1_555 1_555
C40 C38 1_555 1_555
H26 C40 1_555 1_555
C41 C39 1_555 1_555
H27 C41 1_555 1_555
C42 C40 1_555 1_555
H28 C42 1_555 1_555
C43 C41 1_555 1_555
C45 H30 1_555 1_555
N4 C43 1_555 1_555
O7 C37 1_555 1_555
O8 C37 1_555 1_555
Cd6 O7 1_555 1_555
C42 C43 1_555 1_555
C44 N4 1_555 1_555
C45 N4 1_555 1_555
O8 Cd6 1_555 1_555
O11 C61 1_555 1_555
O12 C61 1_555 1_555
Cd7 O11 1_555 1_555
O12 Cd7 1_555 1_555
O3 C13 1_555 1_555
O4 C13 1_555 1_555
Cd5 O3 1_555 1_555
O4 Cd5 1_555 1_555
O3_2 C13_2 1_555 1_555
O4_2 C13_2 1_555 1_555
Cd6 O3_2 1_555 1_555
O4_2 Cd6 1_555 1_555
H24 C35 1_555 1_555
C37_2 C38_2 1_555 1_555
C38_2 C39_2 1_555 1_555
C39_2 H25_2 1_555 1_555
C40_2 C38_2 1_555 1_555
H26_2 C40_2 1_555 1_555
C41_2 C39_2 1_555 1_555
H27_2 C41_2 1_555 1_555
C42_2 C40_2 1_555 1_555
H28_2 C42_2 1_555 1_555
C43_2 C41_2 1_555 1_555
C44_2 H29 1_555 1_555
C45_2 H30_2 1_555 1_555
C46 C44_2 1_555 1_555
H31 C46 1_555 1_555
N4_2 C43_2 1_555 1_555
O7_2 C37_2 1_555 1_555
O8_2 C37_2 1_555 1_555
Cd5 O7_2 1_555 1_555
C42_2 C43_2 1_555 1_555
C44_2 N4_2 1_555 1_555
C45_2 N4_2 1_555 1_555
C46 C48_2 1_555 1_555
O8_2 Cd5 1_555 1_555
O11_2 C61_2 1_555 1_555
O12_2 C61_2 1_555 1_555
Cd7 O11_2 1_555 1_555
O12_2 Cd7 1_555 1_555
Cl1 Cd1 1_555 1_555
Cd1 Cl2 1_555 1_555
Cl2 Cd6 1_555 1_555
Cl3 Cd1 1_555 1_555
Cl4 Cd1 1_555 1_555
Cl5 Cd1 1_555 1_555
Cl6 Cd1 1_555 1_555
Cl1 Cd5 1_555 1_555
Cd5 Cl6 1_555 1_555
Cd6 Cl4 1_555 1_555
Cl3 Cd7 1_555 1_555
Cd7 Cl5 1_555 1_555
H24_2 C35_2 1_555 1_555
H31_2 C46_2 1_555 1_555
H39 C58 1_555 1_555
C62 C63 1_555 1_555
C63 H41 1_555 1_555
C64 C62 1_555 1_555
H42 C64 1_555 1_555
C65 C63 1_555 1_555
H43 C65 1_555 1_555
C66 C64 1_555 1_555
H44 C66 1_555 1_555
C67 C65 1_555 1_555
C69 H46 1_555 1_555
C71 C69 1_555 1_555
H48 C71 1_555 1_555
N6 C67 1_555 1_555
C66 C67 1_555 1_555
C68 N6 1_555 1_555
C69 N6 1_555 1_555
C71 C72 1_555 1_555
C50 C51 1_555 1_555
C51 H33 1_555 1_555
C52 C50 1_555 1_555
H34 C52 1_555 1_555
C53 C51 1_555 1_555
H35 C53 1_555 1_555
C54 C52 1_555 1_555
H36 C54 1_555 1_555
C55 C53 1_555 1_555
C57 H38 1_555 1_555
C59 C57 1_555 1_555
H40 C59 1_555 1_555
N5 C55 1_555 1_555
H47 C70 1_555 1_555
C54 C55 1_555 1_555
C56 N5 1_555 1_555
C57 N5 1_555 1_555
C59 C60 1_555 1_555
H23 C34 1_555 1_555
H32 C47 1_555 1_555
O1 C1 1_555 1_555
O2 C1 1_555 1_555
Cl1_2 Cd1_2 1_555 1_555
Cd1_2 Cl2_2 1_555 1_555
Cd2 O1 1_555 1_555
C25 C26 1_555 1_555
C26 C27 1_555 1_555
C27 H17 1_555 1_555
C28 C26 1_555 1_555
H18 C28 1_555 1_555
C29 C27 1_555 1_555
H19 C29 1_555 1_555
C30 C28 1_555 1_555
H20 C30 1_555 1_555
C31 C29 1_555 1_555
C33 H22 1_555 1_555
N3 C31 1_555 1_555
O5 C25 1_555 1_555
O6 C25 1_555 1_555
Cl2_2 Cd3 1_555 1_555
Cd3 O5 1_555 1_555
O9 C49 1_555 1_555
O10 C49 1_555 1_555
Cl3_2 Cd1_2 1_555 1_555
Cd4 O9 1_555 1_555
Cl4_2 Cd1_2 1_555 1_555
Cl5_2 Cd1_2 1_555 1_555
Cl6_2 Cd1_2 1_555 1_555
O13 Cd3 1_555 1_555
O14 Cd4 1_555 1_555
O15 Cd2 1_555 1_555
O16 Cd3 1_555 1_555
O17 Cd4 1_555 1_555
O18 Cd2 1_555 1_555
O2 Cd2 1_555 1_555
Cl1_2 Cd2 1_555 1_555
Cd2 Cl6_2 1_555 1_555
C30 C31 1_555 1_555
C32 N3 1_555 1_555
C33 N3 1_555 1_555
O6 Cd3 1_555 1_555
Cd3 Cl4_2 1_555 1_555
O10 Cd4 1_555 1_555
Cl3_2 Cd4 1_555 1_555
Cd4 Cl5_2 1_555 1_555
O13 C1_2 1_555 1_555
O16 C1_2 1_555 1_555
C25_2 C26_2 1_555 1_555
C26_2 C27_2 1_555 1_555
C27_2 H17_2 1_555 1_555
C28_2 C26_2 1_555 1_555
H18_2 C28_2 1_555 1_555
C29_2 C27_2 1_555 1_555
H19_2 C29_2 1_555 1_555
C30_2 C28_2 1_555 1_555
H20_2 C30_2 1_555 1_555
C31_2 C29_2 1_555 1_555
C32_2 H21_2 1_555 1_555
C33_2 H22_2 1_555 1_555
C34_2 C32_2 1_555 1_555
H23_2 C34_2 1_555 1_555
C36_2 C34_2 1_555 1_555
N3_2 C31_2 1_555 1_555
O15 C25_2 1_555 1_555
O18 C25_2 1_555 1_555
H32_2 C47_2 1_555 1_555
O14 C49_2 1_555 1_555
O17 C49_2 1_555 1_555
C30_2 C31_2 1_555 1_555
C32_2 N3_2 1_555 1_555
C33_2 N3_2 1_555 1_555
H7 C10 1_555 1_555
H16 C23 1_555 1_555
C2 C3 1_555 1_555
C3 H1 1_555 1_555
C4 C2 1_555 1_555
H2 C4 1_555 1_555
C5 C3 1_555 1_555
H3 C5 1_555 1_555
C6 C4 1_555 1_555
H4 C6 1_555 1_555
C7 C5 1_555 1_555
C9 H6 1_555 1_555
N1 C7 1_555 1_555
C6 C7 1_555 1_555
C8 N1 1_555 1_555
C9 N1 1_555 1_555
C14 C15 1_555 1_555
C15 H9 1_555 1_555
C16 C14 1_555 1_555
H10 C16 1_555 1_555
C17 C15 1_555 1_555
H11 C17 1_555 1_555
C18 C16 1_555 1_555
H12 C18 1_555 1_555
C19 C17 1_555 1_555
C21 H14 1_555 1_555
N2 C19 1_555 1_555
C18 C19 1_555 1_555
C20 N2 1_555 1_555
C21 N2 1_555 1_555
H8 C11 1_555 1_555
H15 C22 1_555 1_555
H8_2 C11_2 1_555 1_555
C14_2 C15_2 1_555 1_555
C15_2 H9_2 1_555 1_555
C16_2 C14_2 1_555 1_555
H10_2 C16_2 1_555 1_555
C17_2 C15_2 1_555 1_555
H11_2 C17_2 1_555 1_555
C18_2 C16_2 1_555 1_555
H12_2 C18_2 1_555 1_555
C19_2 C17_2 1_555 1_555
C20_2 H13_2 1_555 1_555
C21_2 H14_2 1_555 1_555
C22_2 C20_2 1_555 1_555
H15_2 C22_2 1_555 1_555
N2_2 C19_2 1_555 1_555
C18_2 C19_2 1_555 1_555
C20_2 N2_2 1_555 1_555
C21_2 N2_2 1_555 1_555
C22_2 C24_2 1_555 1_555
C2_2 C3_2 1_555 1_555
C3_2 H1_2 1_555 1_555
C4_2 C2_2 1_555 1_555
H2_2 C4_2 1_555 1_555
C5_2 C3_2 1_555 1_555
H3_2 C5_2 1_555 1_555
C6_2 C4_2 1_555 1_555
H4_2 C6_2 1_555 1_555
C7_2 C5_2 1_555 1_555
C8_2 H5_2 1_555 1_555
C9_2 H6_2 1_555 1_555
C10_2 C8_2 1_555 1_555
H7_2 C10_2 1_555 1_555
C12_2 C10_2 1_555 1_555
N1_2 C7_2 1_555 1_555
H16_2 C23_2 1_555 1_555
C6_2 C7_2 1_555 1_555
C8_2 N1_2 1_555 1_555
C9_2 N1_2 1_555 1_555
C50_2 C51_2 1_555 1_555
C51_2 H33_2 1_555 1_555
C52_2 C50_2 1_555 1_555
H34_2 C52_2 1_555 1_555
C53_2 C51_2 1_555 1_555
H35_2 C53_2 1_555 1_555
C54_2 C52_2 1_555 1_555
H36_2 C54_2 1_555 1_555
C55_2 C53_2 1_555 1_555
C56_2 H37_2 1_555 1_555
C57_2 H38_2 1_555 1_555
C58_2 C56_2 1_555 1_555
H39_2 C58_2 1_555 1_555
C59_2 C57_2 1_555 1_555
H40_2 C59_2 1_555 1_555
C60_2 C58_2 1_555 1_555
N5_2 C55_2 1_555 1_555
C62_2 C63_2 1_555 1_555
C63_2 H41_2 1_555 1_555
C64_2 C62_2 1_555 1_555
H42_2 C64_2 1_555 1_555
C65_2 C63_2 1_555 1_555
H43_2 C65_2 1_555 1_555
C66_2 C64_2 1_555 1_555
H44_2 C66_2 1_555 1_555
C67_2 C65_2 1_555 1_555
C68_2 H45_2 1_555 1_555
C69_2 H46_2 1_555 1_555
C70_2 C68_2 1_555 1_555
H47_2 C70_2 1_555 1_555
C71_2 C69_2 1_555 1_555
H48_2 C71_2 1_555 1_555
C72_2 C60_2 1_555 1_555
N6_2 C67_2 1_555 1_555
C54_2 C55_2 1_555 1_555
C56_2 N5_2 1_555 1_555
C57_2 N5_2 1_555 1_555
C59_2 C60_2 1_555 1_555
C66_2 C67_2 1_555 1_555
C68_2 N6_2 1_555 1_555
C69_2 N6_2 1_555 1_555
C70_2 C72_2 1_555 1_555
C71_2 C72_2 1_555 1_555

#END
