
###############################################################################
#
# This file contains modified crystal structure data generated from the
# MOF subset of the Cambridge Structural Database (CSD) v543 
# hosted by the Cambridge Crystallographic Data Centre (CCDC).
#
# This work is licensed under the Creative Commons
# Attribution-NonCommercial-ShareAlike 4.0 International License.
# To view a copy of this license, visit
# http://creativecommons.org/licenses/by-nc-sa/4.0/
# or send a letter to
# Creative Commons, PO Box 1866, Mountain View, CA 94042, USA.
#
# CIF created using the CSD Python API on 29 September 2022
# The structure has been converted into the P1 space group
# The structure has a 3D framework
# The original CSD entry EXEQIJ is in the monoclinic crystal system
# The original CSD entry EXEQIJ is in a Sohncke space group
# The framework has been calculated to contain at least 10.0% void space
# The void calculation uses a probe of radius 1.32A, grid spacing 0.4
#
###############################################################################

data_EXEQIJ
_chemical_formula_moiety         '(C180 H160 Cu10 N36 O48 S16)n'
_symmetry_cell_setting           triclinic
_symmetry_space_group_name_H-M   'P 1'
_symmetry_Int_Tables_number      1
_space_group_name_Hall           'P 1'
loop_
_symmetry_equiv_pos_site_id
_symmetry_equiv_pos_as_xyz
1 x,y,z
_cell_length_a                   22.28(2)
_cell_length_b                   22.20(2)
_cell_length_c                   11.198(10)
_cell_angle_alpha                90
_cell_angle_beta                 90.931(8)
_cell_angle_gamma                90
_cell_volume                     5537.98
loop_
_atom_site_label
_atom_site_type_symbol
_atom_site_fract_x
_atom_site_fract_y
_atom_site_fract_z
C1 C 0.46901(18) 0.1724(2) 0.0277(4)
H1 H 0.4648 0.2083 0.0794
H2 H 0.4645 0.1361 0.0781
C2 C 0.03179(17) 0.1771(3) 0.0266(4)
H3 H 0.0372 0.1416 0.0791
H4 H 0.0379 0.2137 0.0757
N3 N 0.24785(15) 0.1790(2) 0.7846(3)
C4 C 0.2486(2) 0.1817(3) 0.4008(4)
N4 N 0.24787(16) 0.18305(19) 0.1497(3)
C6 C 0.2924(2) 0.2060(2) 0.7241(4)
H6 H 0.3231 0.2260 0.7686
C7 C 0.2481(2) 0.1809(3) 0.5342(4)
C9 C 0.2973(3) 0.1614(3) 0.3391(4)
H7 H 0.3319 0.1473 0.3810
C10 C 0.2006(2) 0.2051(3) 0.3365(5)
H8 H 0.1668 0.2211 0.3766
C11 C 0.2023(2) 0.2051(2) 0.2115(4)
H9 H 0.1692 0.2217 0.1685
C13 C 0.2039(2) 0.1538(2) 0.7197(4)
H11 H 0.1721 0.1345 0.7602
C14 C 0.2958(2) 0.2063(2) 0.6012(4)
H12 H 0.3295 0.2231 0.5626
C16 C 0.2067(2) 0.0592(2) 0.0402(5)
H14 H 0.1771 0.0822 0.0800
C19 C 0.2957(2) 0.1617(3) 0.2149(4)
H17 H 0.3293 0.1464 0.1736
C21 C 0.2024(2) 0.1544(2) 0.5961(4)
H19 H 0.1696 0.1365 0.5540
S4 S 0.58770(4) 0.17308(5) 0.08435(9)
O10 O 0.64476(12) 0.17248(16) 0.0217(2)
O11 O 0.57927(15) 0.22813(15) 0.1528(3)
O12 O 0.57957(17) 0.11887(16) 0.1566(4)
Cu3 Cu 0.24721(2) 0.18029(2) 0.96773(4)
Cu5 Cu 0.75279(2) 0.18029(2) 0.03227(4)
S1 S 0.08555(4) 0.17518(6) 0.91112(9)
S2 S 0.41230(4) 0.17308(5) 0.91565(9)
N1 N 0.24768(17) 0.08812(18) 0.9738(3)
O1 O 0.14381(12) 0.17501(17) 0.9746(3)
O2 O 0.35524(12) 0.17248(16) 0.9783(2)
O3 O 0.07646(16) 0.22787(15) 0.8383(3)
O4 O 0.07518(15) 0.11931(15) 0.8453(3)
O5 O 0.42073(15) 0.22813(15) 0.8472(3)
O6 O 0.42043(17) 0.11887(16) 0.8434(4)
C17 C 0.2882(2) 0.0556(2) 0.9178(5)
H15 H 0.3164 0.0759 0.8692
C24 C 0.53099(18) 0.1724(2) 0.9723(4)
H23 H 0.5352 0.2083 0.9206
H24 H 0.5355 0.1361 0.9219
N10 N 0.24802(17) 0.27098(19) 0.9698(3)
N2 N 0.25198(17) 0.77098(19) 0.0302(3)
C3 C 0.2508(2) 0.8968(2) 0.0073(5)
C5 C 0.3033(2) 0.8659(2) 0.0314(5)
H5 H 0.3401 0.8872 0.0402
C18 C 0.2005(2) 0.8015(2) 0.0052(5)
C20 C 0.3023(2) 0.8035(2) 0.0430(5)
H18 H 0.3389 0.7831 0.0607
C22 C 0.2065(2) 0.9974(2) 0.0519(5)
H20 H 0.1769 0.9785 0.0991
Cu7 Cu 0.25279(2) 0.68029(2) 0.03227(4)
S3 S 0.91445(4) 0.17518(6) 0.08888(9)
O7 O 0.85619(12) 0.17501(17) 0.0254(3)
O8 O 0.92354(16) 0.22787(15) 0.1617(3)
O9 O 0.92482(15) 0.11931(15) 0.1547(3)
N5 N 0.75232(17) 0.08812(18) 0.0262(3)
C39 C 0.7118(2) 0.0556(2) 0.0822(5)
H35 H 0.6836 0.0759 0.1308
N9 N 0.75198(17) 0.27098(19) 0.0302(3)
N12 N 0.75215(15) 0.1790(2) 0.2154(3)
C23 C 0.96821(17) 0.1771(3) 0.9734(4)
H21 H 0.9628 0.1416 0.9209
H22 H 0.9621 0.2137 0.9243
C26 C 0.7514(2) 0.1817(3) 0.5992(4)
N8 N 0.75213(16) 0.18305(19) 0.8503(3)
C28 C 0.7076(2) 0.2060(2) 0.2759(4)
H26 H 0.6769 0.2260 0.2314
C29 C 0.7519(2) 0.1809(3) 0.4658(4)
C31 C 0.7027(3) 0.1614(3) 0.6609(4)
H27 H 0.6681 0.1473 0.6190
C32 C 0.7994(2) 0.2051(3) 0.6635(5)
H28 H 0.8332 0.2211 0.6234
C33 C 0.7977(2) 0.2051(2) 0.7885(4)
H29 H 0.8308 0.2217 0.8315
C35 C 0.7961(2) 0.1538(2) 0.2803(4)
H31 H 0.8279 0.1345 0.2398
C36 C 0.7042(2) 0.2063(2) 0.3988(4)
H32 H 0.6705 0.2231 0.4374
C38 C 0.7933(2) 0.0592(2) 0.9598(5)
H34 H 0.8229 0.0822 0.9200
C41 C 0.7043(2) 0.1617(3) 0.7851(4)
H37 H 0.6707 0.1464 0.8264
C43 C 0.7976(2) 0.1544(2) 0.4039(4)
H39 H 0.8304 0.1365 0.4460
N6 N 0.74802(17) 0.77098(19) 0.9698(3)
C25 C 0.7492(2) 0.8968(2) 0.9927(5)
C27 C 0.6967(2) 0.8659(2) 0.9686(5)
H25 H 0.6599 0.8872 0.9598
C40 C 0.7995(2) 0.8015(2) 0.9948(5)
C42 C 0.6977(2) 0.8035(2) 0.9570(5)
H38 H 0.6611 0.7831 0.9393
C44 C 0.7935(2) 0.9974(2) 0.9481(5)
H40 H 0.8231 0.9785 0.9009
Cu6 Cu 0.74721(2) 0.68029(2) 0.96773(4)
S4_2 S 0.08770(4) 0.67308(5) 0.08435(9)
O10_2 O 0.14476(12) 0.67248(16) 0.0217(2)
O11_2 O 0.07927(15) 0.72813(15) 0.1528(3)
O12_2 O 0.07957(17) 0.61887(16) 0.1566(4)
C24_2 C 0.03099(18) 0.6724(2) 0.9723(4)
H23_2 H 0.0352 0.7083 0.9206
H24_2 H 0.0355 0.6361 0.9219
C1_2 C 0.96901(18) 0.6724(2) 0.0277(4)
H1_2 H 0.9648 0.7083 0.0794
H2_2 H 0.9645 0.6361 0.0781
C2_2 C 0.53179(17) 0.6771(3) 0.0266(4)
H3_2 H 0.5372 0.6416 0.0791
H4_2 H 0.5379 0.7137 0.0757
C3_2 C 0.7508(2) 0.3968(2) 0.0073(5)
N3_2 N 0.74785(15) 0.6790(2) 0.7846(3)
C4_2 C 0.7486(2) 0.6817(3) 0.4008(4)
C5_2 C 0.8033(2) 0.3659(2) 0.0314(5)
H5_2 H 0.8401 0.3872 0.0402
N4_2 N 0.74787(16) 0.68305(19) 0.1497(3)
C6_2 C 0.7924(2) 0.7060(2) 0.7241(4)
H6_2 H 0.8231 0.7260 0.7686
C7_2 C 0.7481(2) 0.6809(3) 0.5342(4)
C9_2 C 0.7973(3) 0.6614(3) 0.3391(4)
H7_2 H 0.8319 0.6473 0.3810
C10_2 C 0.7006(2) 0.7051(3) 0.3365(5)
H8_2 H 0.6668 0.7211 0.3766
C11_2 C 0.7023(2) 0.7051(2) 0.2115(4)
H9_2 H 0.6692 0.7217 0.1685
C13_2 C 0.7039(2) 0.6538(2) 0.7197(4)
H11_2 H 0.6721 0.6345 0.7602
C14_2 C 0.7958(2) 0.7063(2) 0.6012(4)
H12_2 H 0.8295 0.7231 0.5626
C16_2 C 0.7067(2) 0.5592(2) 0.0402(5)
H14_2 H 0.6771 0.5822 0.0800
C18_2 C 0.7005(2) 0.3015(2) 0.0052(5)
C19_2 C 0.7957(2) 0.6617(3) 0.2149(4)
H17_2 H 0.8293 0.6464 0.1736
C20_2 C 0.8023(2) 0.3035(2) 0.0430(5)
H18_2 H 0.8389 0.2831 0.0607
C21_2 C 0.7024(2) 0.6544(2) 0.5961(4)
H19_2 H 0.6696 0.6365 0.5540
C22_2 C 0.7065(2) 0.4974(2) 0.0519(5)
H20_2 H 0.6769 0.4785 0.0991
S3_2 S 0.41445(4) 0.67518(6) 0.08888(9)
O7_2 O 0.35619(12) 0.67501(17) 0.0254(3)
O8_2 O 0.42354(16) 0.72787(15) 0.1617(3)
O9_2 O 0.42482(15) 0.61931(15) 0.1547(3)
N5_2 N 0.25232(17) 0.58812(18) 0.0262(3)
C30 C 0.2506(2) 0.4627(3) 0.0050(5)
C34 C 0.2085(2) 0.4932(2) 0.0733(4)
H30 H 0.1780 0.4715 0.1133
C37 C 0.3020(2) 0.3630(2) 0.0048(5)
H33 H 0.3393 0.3826 0.0197
C39_2 C 0.2118(2) 0.5556(2) 0.0822(5)
H35_2 H 0.1836 0.5759 0.1308
H36 H 0.3355 0.2792 0.0060
N12_2 N 0.25215(15) 0.6790(2) 0.2154(3)
S1_2 S 0.58555(4) 0.67518(6) 0.91112(9)
S2_2 S 0.91230(4) 0.67308(5) 0.91565(9)
N1_2 N 0.74768(17) 0.58812(18) 0.9738(3)
O1_2 O 0.64381(12) 0.67501(17) 0.9746(3)
O2_2 O 0.85524(12) 0.67248(16) 0.9783(2)
O3_2 O 0.57646(16) 0.72787(15) 0.8383(3)
O4_2 O 0.57518(15) 0.61931(15) 0.8453(3)
O5_2 O 0.92073(15) 0.72813(15) 0.8472(3)
O6_2 O 0.92043(17) 0.61887(16) 0.8434(4)
C8 C 0.7494(2) 0.4627(3) 0.9950(5)
C12 C 0.7915(2) 0.4932(2) 0.9267(4)
H10 H 0.8220 0.4715 0.8867
C15 C 0.6980(2) 0.3630(2) 0.9952(5)
H13 H 0.6607 0.3826 0.9803
C17_2 C 0.7882(2) 0.5556(2) 0.9178(5)
H15_2 H 0.8164 0.5759 0.8692
H16 H 0.6645 0.2792 0.9940
C23_2 C 0.46821(17) 0.6771(3) 0.9734(4)
H21_2 H 0.4628 0.6416 0.9209
H22_2 H 0.4621 0.7137 0.9243
C25_2 C 0.2492(2) 0.3968(2) 0.9927(5)
C26_2 C 0.2514(2) 0.6817(3) 0.5992(4)
C27_2 C 0.1967(2) 0.3659(2) 0.9686(5)
H25_2 H 0.1599 0.3872 0.9598
N8_2 N 0.25213(16) 0.68305(19) 0.8503(3)
C28_2 C 0.2076(2) 0.7060(2) 0.2759(4)
H26_2 H 0.1769 0.7260 0.2314
C29_2 C 0.2519(2) 0.6809(3) 0.4658(4)
C31_2 C 0.2027(3) 0.6614(3) 0.6609(4)
H27_2 H 0.1681 0.6473 0.6190
C32_2 C 0.2994(2) 0.7051(3) 0.6635(5)
H28_2 H 0.3332 0.7211 0.6234
C33_2 C 0.2977(2) 0.7051(2) 0.7885(4)
H29_2 H 0.3308 0.7217 0.8315
C35_2 C 0.2961(2) 0.6538(2) 0.2803(4)
H31_2 H 0.3279 0.6345 0.2398
C36_2 C 0.2042(2) 0.7063(2) 0.3988(4)
H32_2 H 0.1705 0.7231 0.4374
C38_2 C 0.2933(2) 0.5592(2) 0.9598(5)
H34_2 H 0.3229 0.5822 0.9200
C40_2 C 0.2995(2) 0.3015(2) 0.9948(5)
C41_2 C 0.2043(2) 0.6617(3) 0.7851(4)
H37_2 H 0.1707 0.6464 0.8264
C42_2 C 0.1977(2) 0.3035(2) 0.9570(5)
H38_2 H 0.1611 0.2831 0.9393
C43_2 C 0.2976(2) 0.6544(2) 0.4039(4)
H39_2 H 0.3304 0.6365 0.4460
C44_2 C 0.2935(2) 0.4974(2) 0.9481(5)
H40_2 H 0.3231 0.4785 0.9009
C8_2 C 0.2494(2) 0.9627(3) 0.9950(5)
C12_2 C 0.2915(2) 0.9932(2) 0.9267(4)
H10_2 H 0.3220 0.9715 0.8867
C15_2 C 0.1980(2) 0.8630(2) 0.9952(5)
H13_2 H 0.1607 0.8826 0.9803
H16_2 H 0.1645 0.7792 0.9940
C30_2 C 0.7506(2) 0.9627(3) 0.0050(5)
C34_2 C 0.7085(2) 0.9932(2) 0.0733(4)
H30_2 H 0.6780 0.9715 0.1133
C37_2 C 0.8020(2) 0.8630(2) 0.0048(5)
H33_2 H 0.8393 0.8826 0.0197
H36_2 H 0.8355 0.7792 0.0060
S7 S 0.45894(5) 0.35947(6) 0.17343(9)
O20 O 0.42246(16) 0.30573(16) 0.1582(3)
O21 O 0.49212(13) 0.36119(17) 0.2868(2)
O22 O 0.42467(19) 0.41502(18) 0.1535(3)
C69 C 0.51448(19) 0.3581(3) 0.0624(3)
H61 H 0.5408 0.3939 0.0715
H62 H 0.5396 0.3217 0.0725
S8 S 0.04165(5) 0.35922(6) 0.17689(9)
O23 O 0.00675(14) 0.36083(17) 0.2876(2)
O24 O 0.0759(2) 0.41489(18) 0.1604(3)
O25 O 0.07779(16) 0.30550(17) 0.1650(3)
Cu11 Cu 0.5000 0.35700(3) 0.5000
Cu13 Cu 0.0000 0.35719(3) 0.5000
S5 S 0.54106(5) 0.35947(6) 0.82657(9)
N13 N -0.0000 0.2652(2) 0.5000
N14 N 0.40815(14) 0.35469(18) 0.5205(3)
N15 N 0.09088(15) 0.3584(2) 0.5230(3)
O15 O 0.57754(16) 0.30573(16) 0.8418(3)
O16 O 0.50788(13) 0.36119(17) 0.7132(2)
O17 O 0.57533(19) 0.41502(18) 0.8465(3)
C45 C 0.48552(19) 0.3581(3) 0.9376(3)
H41 H 0.4592 0.3939 0.9285
H42 H 0.4604 0.3217 0.9275
C46 C 0.28301(18) 0.3567(2) 0.5325(4)
C47 C 0.0135(2) 0.3563(3) 0.9386(4)
H43 H 0.0379 0.3194 0.9290
H44 H 0.0406 0.3914 0.9314
C48 C 0.21546(18) 0.3575(2) 0.5336(4)
C49 C 0.3121(2) 0.3360(2) 0.4297(4)
H45 H 0.2896 0.3235 0.3613
C50 C 0.1834(2) 0.3291(2) 0.6210(4)
H46 H 0.2034 0.3096 0.6860
C51 C 0.1237(2) 0.3872(2) 0.4411(4)
H47 H 0.1034 0.4087 0.3793
C52 C 0.3799(2) 0.3745(2) 0.6189(4)
H48 H 0.4034 0.3886 0.6846
C53 C 0.1852(2) 0.3868(2) 0.4428(4)
H49 H 0.2067 0.4066 0.3817
C54 C 0.1213(2) 0.3295(2) 0.6121(4)
H50 H 0.0991 0.3087 0.6709
C55 C 0.3184(2) 0.3751(2) 0.6277(5)
H51 H 0.3004 0.3882 0.6994
C56 C 0.3735(2) 0.3343(2) 0.4303(4)
H52 H 0.3928 0.3176 0.3628
N17 N 0.5000 0.2656(2) 0.5000
C57 C 0.5000 0.0742(3) 0.5000
C58 C 0.0000 0.1402(3) 0.5000
C59 C 0.5000 0.1402(3) 0.5000
C60 C 0.4840(2) 0.1727(2) 0.6007(4)
H53 H 0.4726 0.1521 0.6712
C61 C 0.4847(2) 0.2356(2) 0.5982(4)
H54 H 0.4741 0.2574 0.6677
C62 C 0.0055(3) 0.1727(3) 0.3960(4)
H55 H 0.0083 0.1524 0.3216
C64 C 0.4744(3) 0.0415(2) 0.4062(4)
H57 H 0.4566 0.0619 0.3399
C65 C 0.0068(3) 0.2341(2) 0.3997(5)
H58 H 0.0129 0.2556 0.3275
C68 C 0.0000 0.0727(3) 0.5000
C74 C 0.0333(3) 0.0412(2) 0.5832(5)
H68 H 0.0560 0.0619 0.6428
C75 C 0.5160(2) 0.1727(2) 0.3993(4)
H69 H 0.5274 0.1521 0.3288
C76 C 0.5153(2) 0.2356(2) 0.4018(4)
H70 H 0.5259 0.2574 0.3323
C77 C 0.5256(3) 0.0415(2) 0.5938(4)
H71 H 0.5434 0.0619 0.6601
N21 N 0.59185(14) 0.35469(18) 0.4795(3)
N22 N -0.0000 0.4483(2) 0.5000
N23 N 0.5000 0.4468(2) 0.5000
N16 N 0.5000 0.9483(2) 0.5000
N18 N 0.0000 0.9468(2) 0.5000
C66 C 0.4750(2) 0.9792(2) 0.4099(4)
H59 H 0.4568 0.9576 0.3457
C73 C 0.0334(2) 0.9793(2) 0.5793(4)
H67 H 0.0582 0.9582 0.6350
C78 C 0.5250(2) 0.9792(2) 0.5901(4)
H72 H 0.5432 0.9576 0.6543
Cu12 Cu 0.0000 0.85700(3) 0.5000
Cu14 Cu 0.5000 0.85719(3) 0.5000
C70 C 0.9865(2) 0.3563(3) 0.0614(4)
H63 H 0.9621 0.3194 0.0710
H64 H 0.9594 0.3914 0.0686
Cu13_2 Cu 1.0000 0.35719(3) 0.5000
S6 S 0.95835(5) 0.35922(6) 0.82311(9)
N13_2 N 1.0000 0.2652(2) 0.5000
O14 O 0.99325(14) 0.36083(17) 0.7124(2)
O18 O 0.9241(2) 0.41489(18) 0.8396(3)
O19 O 0.92221(16) 0.30550(17) 0.8350(3)
C58_2 C 1.0000 0.1402(3) 0.5000
C67 C 0.9667(3) 0.0412(2) 0.4168(5)
H60 H 0.9440 0.0619 0.3572
C68_2 C 1.0000 0.0727(3) 0.5000
C71 C 0.9945(3) 0.1727(3) 0.6040(4)
H65 H 0.9917 0.1524 0.6784
C72 C 0.9932(3) 0.2341(2) 0.6003(5)
H66 H 0.9871 0.2556 0.6725
N20 N 0.90912(15) 0.3584(2) 0.4770(3)
C79 C 0.71699(18) 0.3567(2) 0.4675(4)
C80 C 0.78454(18) 0.3575(2) 0.4664(4)
C81 C 0.6879(2) 0.3360(2) 0.5703(4)
H73 H 0.7104 0.3235 0.6387
C82 C 0.8166(2) 0.3291(2) 0.3790(4)
H74 H 0.7966 0.3096 0.3140
C83 C 0.8763(2) 0.3872(2) 0.5589(4)
H75 H 0.8966 0.4087 0.6207
C84 C 0.6201(2) 0.3745(2) 0.3811(4)
H76 H 0.5966 0.3886 0.3154
C85 C 0.8148(2) 0.3868(2) 0.5572(4)
H77 H 0.7933 0.4066 0.6183
C86 C 0.8787(2) 0.3295(2) 0.3879(4)
H78 H 0.9009 0.3087 0.3291
C87 C 0.6816(2) 0.3751(2) 0.3723(5)
H79 H 0.6996 0.3882 0.3006
C88 C 0.6265(2) 0.3343(2) 0.5697(4)
H80 H 0.6072 0.3176 0.6372
N22_2 N 1.0000 0.4483(2) 0.5000
N18_2 N 1.0000 0.9468(2) 0.5000
C63 C 0.9666(2) 0.9793(2) 0.4207(4)
H56 H 0.9418 0.9582 0.3650
Cu12_2 Cu 1.0000 0.85700(3) 0.5000
C69_2 C 0.01448(19) 0.8581(3) 0.0624(3)
H61_2 H 0.0408 0.8939 0.0715
H62_2 H 0.0396 0.8217 0.0725
S5_2 S 0.04106(5) 0.85947(6) 0.82657(9)
O15_2 O 0.07754(16) 0.80573(16) 0.8418(3)
O16_2 O 0.00788(13) 0.86119(17) 0.7132(2)
O17_2 O 0.07533(19) 0.91502(18) 0.8465(3)
N17_2 N 0.0000 0.7656(2) 0.5000
C57_2 C 0.0000 0.5742(3) 0.5000
C59_2 C 0.0000 0.6402(3) 0.5000
C75_2 C 0.0160(2) 0.6727(2) 0.3993(4)
H69_2 H 0.0274 0.6521 0.3288
C76_2 C 0.0153(2) 0.7356(2) 0.4018(4)
H70_2 H 0.0259 0.7574 0.3323
C77_2 C 0.0256(3) 0.5415(2) 0.5938(4)
H71_2 H 0.0434 0.5619 0.6601
C78_2 C 0.0250(2) 0.4792(2) 0.5901(4)
H72_2 H 0.0432 0.4576 0.6543
N21_2 N 0.09185(14) 0.85469(18) 0.4795(3)
S7_2 S 0.95894(5) 0.85947(6) 0.17343(9)
O20_2 O 0.92246(16) 0.80573(16) 0.1582(3)
O21_2 O 0.99212(13) 0.86119(17) 0.2868(2)
O22_2 O 0.92467(19) 0.91502(18) 0.1535(3)
S8_2 S 0.54165(5) 0.85922(6) 0.17689(9)
O23_2 O 0.50675(14) 0.86083(17) 0.2876(2)
O24_2 O 0.5759(2) 0.91489(18) 0.1604(3)
O25_2 O 0.57779(16) 0.80550(17) 0.1650(3)
C70_2 C 0.4865(2) 0.8563(3) 0.0614(4)
H63_2 H 0.4621 0.8194 0.0710
H64_2 H 0.4594 0.8914 0.0686
S6_2 S 0.45835(5) 0.85922(6) 0.82311(9)
N13_3 N 0.5000 0.7652(2) 0.5000
N14_2 N 0.90815(14) 0.85469(18) 0.5205(3)
N15_2 N 0.59088(15) 0.8584(2) 0.5230(3)
O14_2 O 0.49325(14) 0.86083(17) 0.7124(2)
C45_2 C 0.98552(19) 0.8581(3) 0.9376(3)
H41_2 H 0.9592 0.8939 0.9285
H42_2 H 0.9604 0.8217 0.9275
O18_2 O 0.4241(2) 0.91489(18) 0.8396(3)
O19_2 O 0.42221(16) 0.80550(17) 0.8350(3)
C46_2 C 0.78301(18) 0.8567(2) 0.5325(4)
C47_2 C 0.5135(2) 0.8563(3) 0.9386(4)
H43_2 H 0.5379 0.8194 0.9290
H44_2 H 0.5406 0.8914 0.9314
C48_2 C 0.71546(18) 0.8575(2) 0.5336(4)
C49_2 C 0.8121(2) 0.8360(2) 0.4297(4)
H45_2 H 0.7896 0.8235 0.3613
C50_2 C 0.6834(2) 0.8291(2) 0.6210(4)
H46_2 H 0.7034 0.8096 0.6860
C51_2 C 0.6237(2) 0.8872(2) 0.4411(4)
H47_2 H 0.6034 0.9087 0.3793
C52_2 C 0.8799(2) 0.8745(2) 0.6189(4)
H48_2 H 0.9034 0.8886 0.6846
C53_2 C 0.6852(2) 0.8868(2) 0.4428(4)
H49_2 H 0.7067 0.9066 0.3817
C54_2 C 0.6213(2) 0.8295(2) 0.6121(4)
H50_2 H 0.5991 0.8087 0.6709
C55_2 C 0.8184(2) 0.8751(2) 0.6277(5)
H51_2 H 0.8004 0.8882 0.6994
C56_2 C 0.8735(2) 0.8343(2) 0.4303(4)
H52_2 H 0.8928 0.8176 0.3628
N17_3 N 1.0000 0.7656(2) 0.5000
C57_3 C 1.0000 0.5742(3) 0.5000
C58_3 C 0.5000 0.6402(3) 0.5000
C59_3 C 1.0000 0.6402(3) 0.5000
C60_2 C 0.9840(2) 0.6727(2) 0.6007(4)
H53_2 H 0.9726 0.6521 0.6712
C61_2 C 0.9847(2) 0.7356(2) 0.5982(4)
H54_2 H 0.9741 0.7574 0.6677
C62_2 C 0.5055(3) 0.6727(3) 0.3960(4)
H55_2 H 0.5083 0.6524 0.3216
C63_2 C 0.4666(2) 0.4793(2) 0.4207(4)
H56_2 H 0.4418 0.4582 0.3650
C64_2 C 0.9744(3) 0.5415(2) 0.4062(4)
H57_2 H 0.9566 0.5619 0.3399
C65_2 C 0.5068(3) 0.7341(2) 0.3997(5)
H58_2 H 0.5129 0.7556 0.3275
C66_2 C 0.9750(2) 0.4792(2) 0.4099(4)
H59_2 H 0.9568 0.4576 0.3457
C67_2 C 0.4667(3) 0.5412(2) 0.4168(5)
H60_2 H 0.4440 0.5619 0.3572
C68_3 C 0.5000 0.5727(3) 0.5000
C71_2 C 0.4945(3) 0.6727(3) 0.6040(4)
H65_2 H 0.4917 0.6524 0.6784
C72_2 C 0.4932(3) 0.7341(2) 0.6003(5)
H66_2 H 0.4871 0.7556 0.6725
C73_2 C 0.5334(2) 0.4793(2) 0.5793(4)
H67_2 H 0.5582 0.4582 0.6350
C74_2 C 0.5333(3) 0.5412(2) 0.5832(5)
H68_2 H 0.5560 0.5619 0.6428
N20_2 N 0.40912(15) 0.8584(2) 0.4770(3)
C79_2 C 0.21699(18) 0.8567(2) 0.4675(4)
C80_2 C 0.28454(18) 0.8575(2) 0.4664(4)
C81_2 C 0.1879(2) 0.8360(2) 0.5703(4)
H73_2 H 0.2104 0.8235 0.6387
C82_2 C 0.3166(2) 0.8291(2) 0.3790(4)
H74_2 H 0.2966 0.8096 0.3140
C83_2 C 0.3763(2) 0.8872(2) 0.5589(4)
H75_2 H 0.3966 0.9087 0.6207
C84_2 C 0.1201(2) 0.8745(2) 0.3811(4)
H76_2 H 0.0966 0.8886 0.3154
C85_2 C 0.3148(2) 0.8868(2) 0.5572(4)
H77_2 H 0.2933 0.9066 0.6183
C86_2 C 0.3787(2) 0.8295(2) 0.3879(4)
H78_2 H 0.4009 0.8087 0.3291
C87_2 C 0.1816(2) 0.8751(2) 0.3723(5)
H79_2 H 0.1996 0.8882 0.3006
C88_2 C 0.1265(2) 0.8343(2) 0.5697(4)
H80_2 H 0.1072 0.8176 0.6372
loop_
_geom_bond_atom_site_label_1
_geom_bond_atom_site_label_2
_geom_bond_site_symmetry_1
_geom_bond_site_symmetry_2
C1 H1 1_555 1_555
H2 C1 1_555 1_555
H3 C2 1_555 1_555
H4 C2 1_555 1_555
N3 C6 1_555 1_555
C4 C7 1_555 1_555
C6 H6 1_555 1_555
C7 C14 1_555 1_555
C9 C4 1_555 1_555
H7 C9 1_555 1_555
C10 C4 1_555 1_555
H8 C10 1_555 1_555
C11 N4 1_555 1_555
H9 C11 1_555 1_555
C13 N3 1_555 1_555
H11 C13 1_555 1_555
C14 C6 1_555 1_555
H12 C14 1_555 1_555
C16 H14 1_555 1_555
C19 N4 1_555 1_555
H17 C19 1_555 1_555
C21 C7 1_555 1_555
H19 C21 1_555 1_555
O10 S4 1_555 1_555
O11 S4 1_555 1_555
O12 S4 1_555 1_555
Cu3 N3 1_555 1_555
Cu5 O10 1_555 1_555
C9 C19 1_555 1_555
C10 C11 1_555 1_555
C13 C21 1_555 1_555
Cu3 N1 1_555 1_555
S1 O1 1_555 1_555
O1 Cu3 1_555 1_555
O2 Cu3 1_555 1_555
O3 S1 1_555 1_555
O4 S1 1_555 1_555
O5 S2 1_555 1_555
O6 S2 1_555 1_555
C17 N1 1_555 1_555
H15 C17 1_555 1_555
H23 C24 1_555 1_555
H24 C24 1_555 1_555
N10 Cu3 1_555 1_555
S2 O2 1_555 1_555
N2 C18 1_555 1_555
C3 C5 1_555 1_555
C5 H5 1_555 1_555
C20 N2 1_555 1_555
H18 C20 1_555 1_555
H20 C22 1_555 1_555
Cu7 N2 1_555 1_555
C5 C20 1_555 1_555
S3 O7 1_555 1_555
O7 Cu5 1_555 1_555
O8 S3 1_555 1_555
O9 S3 1_555 1_555
Cu5 N5 1_555 1_555
C39 N5 1_555 1_555
H35 C39 1_555 1_555
N9 Cu5 1_555 1_555
N12 Cu5 1_555 1_555
H21 C23 1_555 1_555
H22 C23 1_555 1_555
N12 C28 1_555 1_555
C26 C29 1_555 1_555
C28 H26 1_555 1_555
C29 C36 1_555 1_555
C31 C26 1_555 1_555
H27 C31 1_555 1_555
C32 C26 1_555 1_555
H28 C32 1_555 1_555
C33 N8 1_555 1_555
H29 C33 1_555 1_555
C35 N12 1_555 1_555
H31 C35 1_555 1_555
C36 C28 1_555 1_555
H32 C36 1_555 1_555
C38 H34 1_555 1_555
C41 N8 1_555 1_555
H37 C41 1_555 1_555
C43 C29 1_555 1_555
H39 C43 1_555 1_555
C31 C41 1_555 1_555
C32 C33 1_555 1_555
C35 C43 1_555 1_555
N6 C40 1_555 1_555
C25 C27 1_555 1_555
C27 H25 1_555 1_555
C42 N6 1_555 1_555
H38 C42 1_555 1_555
H40 C44 1_555 1_555
Cu6 N6 1_555 1_555
C27 C42 1_555 1_555
O10_2 S4_2 1_555 1_555
O11_2 S4_2 1_555 1_555
O12_2 S4_2 1_555 1_555
Cu7 O10_2 1_555 1_555
H23_2 C24_2 1_555 1_555
H24_2 C24_2 1_555 1_555
N9 C18_2 1_555 1_555
C1_2 H1_2 1_555 1_555
H2_2 C1_2 1_555 1_555
H3_2 C2_2 1_555 1_555
H4_2 C2_2 1_555 1_555
C3_2 C5_2 1_555 1_555
N3_2 C6_2 1_555 1_555
C4_2 C7_2 1_555 1_555
C5_2 H5_2 1_555 1_555
C6_2 H6_2 1_555 1_555
C7_2 C14_2 1_555 1_555
C9_2 C4_2 1_555 1_555
H7_2 C9_2 1_555 1_555
C10_2 C4_2 1_555 1_555
H8_2 C10_2 1_555 1_555
C11_2 N4_2 1_555 1_555
H9_2 C11_2 1_555 1_555
C13_2 N3_2 1_555 1_555
H11_2 C13_2 1_555 1_555
C14_2 C6_2 1_555 1_555
H12_2 C14_2 1_555 1_555
C16_2 H14_2 1_555 1_555
C19_2 N4_2 1_555 1_555
H17_2 C19_2 1_555 1_555
C20_2 N9 1_555 1_555
H18_2 C20_2 1_555 1_555
C21_2 C7_2 1_555 1_555
H19_2 C21_2 1_555 1_555
H20_2 C22_2 1_555 1_555
S3_2 O7_2 1_555 1_555
O7_2 Cu7 1_555 1_555
O8_2 S3_2 1_555 1_555
O9_2 S3_2 1_555 1_555
Cu7 N5_2 1_555 1_555
C34 C30 1_555 1_555
H30 C34 1_555 1_555
H33 C37 1_555 1_555
C39_2 N5_2 1_555 1_555
H35_2 C39_2 1_555 1_555
Cu6 N3_2 1_555 1_555
N12_2 Cu7 1_555 1_555
C5_2 C20_2 1_555 1_555
C9_2 C19_2 1_555 1_555
C10_2 C11_2 1_555 1_555
C13_2 C21_2 1_555 1_555
C16_2 C22_2 1_555 1_555
C34 C39_2 1_555 1_555
Cu6 N1_2 1_555 1_555
S1_2 O1_2 1_555 1_555
O1_2 Cu6 1_555 1_555
O2_2 Cu6 1_555 1_555
O3_2 S1_2 1_555 1_555
O4_2 S1_2 1_555 1_555
O5_2 S2_2 1_555 1_555
O6_2 S2_2 1_555 1_555
C12 C8 1_555 1_555
H10 C12 1_555 1_555
H13 C15 1_555 1_555
C17_2 N1_2 1_555 1_555
H15_2 C17_2 1_555 1_555
H21_2 C23_2 1_555 1_555
H22_2 C23_2 1_555 1_555
N10 C40_2 1_555 1_555
C25_2 C27_2 1_555 1_555
N12_2 C28_2 1_555 1_555
C26_2 C29_2 1_555 1_555
C27_2 H25_2 1_555 1_555
C28_2 H26_2 1_555 1_555
C29_2 C36_2 1_555 1_555
C31_2 C26_2 1_555 1_555
H27_2 C31_2 1_555 1_555
C32_2 C26_2 1_555 1_555
H28_2 C32_2 1_555 1_555
C33_2 N8_2 1_555 1_555
H29_2 C33_2 1_555 1_555
C35_2 N12_2 1_555 1_555
H31_2 C35_2 1_555 1_555
C36_2 C28_2 1_555 1_555
H32_2 C36_2 1_555 1_555
C38_2 H34_2 1_555 1_555
C41_2 N8_2 1_555 1_555
H37_2 C41_2 1_555 1_555
C42_2 N10 1_555 1_555
H38_2 C42_2 1_555 1_555
C43_2 C29_2 1_555 1_555
H39_2 C43_2 1_555 1_555
H40_2 C44_2 1_555 1_555
S2_2 O2_2 1_555 1_555
C12 C17_2 1_555 1_555
C27_2 C42_2 1_555 1_555
C31_2 C41_2 1_555 1_555
C32_2 C33_2 1_555 1_555
C35_2 C43_2 1_555 1_555
C38_2 C44_2 1_555 1_555
C12_2 C8_2 1_555 1_555
H10_2 C12_2 1_555 1_555
H13_2 C15_2 1_555 1_555
C34_2 C30_2 1_555 1_555
H30_2 C34_2 1_555 1_555
H33_2 C37_2 1_555 1_555
S7 O20 1_555 1_555
O21 S7 1_555 1_555
O22 S7 1_555 1_555
H61 C69 1_555 1_555
H62 C69 1_555 1_555
S8 O23 1_555 1_555
O23 Cu13 1_555 1_555
O24 S8 1_555 1_555
O25 S8 1_555 1_555
Cu11 O21 1_555 1_555
S7 C69 1_555 1_555
Cu11 N14 1_555 1_555
Cu13 N13 1_555 1_555
S5 O15 1_555 1_555
N13 C65 1_555 1_555
N14 C52 1_555 1_555
N15 Cu13 1_555 1_555
O16 Cu11 1_555 1_555
O17 S5 1_555 1_555
C45 S5 1_555 1_555
H41 C45 1_555 1_555
H42 C45 1_555 1_555
C46 C48 1_555 1_555
H43 C47 1_555 1_555
H44 C47 1_555 1_555
C48 C50 1_555 1_555
C49 C46 1_555 1_555
H45 C49 1_555 1_555
C50 H46 1_555 1_555
C51 N15 1_555 1_555
H47 C51 1_555 1_555
C52 H48 1_555 1_555
C53 C48 1_555 1_555
H49 C53 1_555 1_555
C54 N15 1_555 1_555
H50 C54 1_555 1_555
C55 C46 1_555 1_555
H51 C55 1_555 1_555
C56 N14 1_555 1_555
H52 C56 1_555 1_555
N17 Cu11 1_555 1_555
C57 C59 1_555 1_555
C58 C62 1_555 1_555
C59 C60 1_555 1_555
C60 H53 1_555 1_555
C61 N17 1_555 1_555
H54 C61 1_555 1_555
C62 H55 1_555 1_555
C64 C57 1_555 1_555
H57 C64 1_555 1_555
C65 C62 1_555 1_555
H58 C65 1_555 1_555
C68 C58 1_555 1_555
C74 C68 1_555 1_555
H68 C74 1_555 1_555
C75 C59 1_555 1_555
H69 C75 1_555 1_555
C76 N17 1_555 1_555
H70 C76 1_555 1_555
C77 C57 1_555 1_555
H71 C77 1_555 1_555
N21 Cu11 1_555 1_555
N22 Cu13 1_555 1_555
N23 Cu11 1_555 1_555
S5 O16 1_555 1_555
C49 C56 1_555 1_555
C50 C54 1_555 1_555
C51 C53 1_555 1_555
C52 C55 1_555 1_555
C60 C61 1_555 1_555
C75 C76 1_555 1_555
N16 C66 1_555 1_555
H59 C66 1_555 1_555
C73 N18 1_555 1_555
H67 C73 1_555 1_555
C78 N16 1_555 1_555
H72 C78 1_555 1_555
Cu12 N18 1_555 1_555
Cu14 N16 1_555 1_555
H63 C70 1_555 1_555
H64 C70 1_555 1_555
Cu13_2 N13_2 1_555 1_555
S6 O14 1_555 1_555
O14 Cu13_2 1_555 1_555
O18 S6 1_555 1_555
O19 S6 1_555 1_555
H60 C67 1_555 1_555
C68_2 C58_2 1_555 1_555
C71 C58_2 1_555 1_555
H65 C71 1_555 1_555
C72 N13_2 1_555 1_555
H66 C72 1_555 1_555
N21 C84 1_555 1_555
N20 Cu13_2 1_555 1_555
C79 C80 1_555 1_555
C80 C82 1_555 1_555
C81 C79 1_555 1_555
H73 C81 1_555 1_555
C82 H74 1_555 1_555
C83 N20 1_555 1_555
H75 C83 1_555 1_555
C84 H76 1_555 1_555
C85 C80 1_555 1_555
H77 C85 1_555 1_555
C86 N20 1_555 1_555
H78 C86 1_555 1_555
C87 C79 1_555 1_555
H79 C87 1_555 1_555
C88 N21 1_555 1_555
H80 C88 1_555 1_555
N22_2 Cu13_2 1_555 1_555
C67 C68_2 1_555 1_555
C71 C72 1_555 1_555
C81 C88 1_555 1_555
C82 C86 1_555 1_555
C83 C85 1_555 1_555
C84 C87 1_555 1_555
N18_2 C63 1_555 1_555
C63 H56 1_555 1_555
Cu12_2 N18_2 1_555 1_555
H61_2 C69_2 1_555 1_555
H62_2 C69_2 1_555 1_555
S5_2 O15_2 1_555 1_555
O16_2 Cu12 1_555 1_555
O17_2 S5_2 1_555 1_555
N17_2 Cu12 1_555 1_555
C57_2 C59_2 1_555 1_555
C75_2 C59_2 1_555 1_555
H69_2 C75_2 1_555 1_555
C76_2 N17_2 1_555 1_555
H70_2 C76_2 1_555 1_555
C77_2 C57_2 1_555 1_555
H71_2 C77_2 1_555 1_555
C78_2 N22 1_555 1_555
H72_2 C78_2 1_555 1_555
N21_2 Cu12 1_555 1_555
S5_2 O16_2 1_555 1_555
C75_2 C76_2 1_555 1_555
C77_2 C78_2 1_555 1_555
S7_2 O20_2 1_555 1_555
O21_2 S7_2 1_555 1_555
O22_2 S7_2 1_555 1_555
S8_2 O23_2 1_555 1_555
O23_2 Cu14 1_555 1_555
O24_2 S8_2 1_555 1_555
O25_2 S8_2 1_555 1_555
H63_2 C70_2 1_555 1_555
H64_2 C70_2 1_555 1_555
Cu12_2 O21_2 1_555 1_555
S8_2 C70_2 1_555 1_555
Cu12_2 N14_2 1_555 1_555
Cu14 N13_3 1_555 1_555
S6_2 O14_2 1_555 1_555
N13_3 C65_2 1_555 1_555
N14_2 C52_2 1_555 1_555
N15_2 Cu14 1_555 1_555
N22_2 C66_2 1_555 1_555
O14_2 Cu14 1_555 1_555
H41_2 C45_2 1_555 1_555
H42_2 C45_2 1_555 1_555
O18_2 S6_2 1_555 1_555
O19_2 S6_2 1_555 1_555
C46_2 C48_2 1_555 1_555
C47_2 S6_2 1_555 1_555
H43_2 C47_2 1_555 1_555
H44_2 C47_2 1_555 1_555
C48_2 C50_2 1_555 1_555
C49_2 C46_2 1_555 1_555
H45_2 C49_2 1_555 1_555
C50_2 H46_2 1_555 1_555
C51_2 N15_2 1_555 1_555
H47_2 C51_2 1_555 1_555
C52_2 H48_2 1_555 1_555
C53_2 C48_2 1_555 1_555
H49_2 C53_2 1_555 1_555
C54_2 N15_2 1_555 1_555
H50_2 C54_2 1_555 1_555
C55_2 C46_2 1_555 1_555
H51_2 C55_2 1_555 1_555
C56_2 N14_2 1_555 1_555
H52_2 C56_2 1_555 1_555
N17_3 Cu12_2 1_555 1_555
N23 C63_2 1_555 1_555
C57_3 C59_3 1_555 1_555
C58_3 C62_2 1_555 1_555
C59_3 C60_2 1_555 1_555
C60_2 H53_2 1_555 1_555
C61_2 N17_3 1_555 1_555
H54_2 C61_2 1_555 1_555
C62_2 H55_2 1_555 1_555
C63_2 H56_2 1_555 1_555
C64_2 C57_3 1_555 1_555
H57_2 C64_2 1_555 1_555
C65_2 C62_2 1_555 1_555
H58_2 C65_2 1_555 1_555
C66_2 C64_2 1_555 1_555
H59_2 C66_2 1_555 1_555
C67_2 C63_2 1_555 1_555
H60_2 C67_2 1_555 1_555
C68_3 C58_3 1_555 1_555
C71_2 C58_3 1_555 1_555
H65_2 C71_2 1_555 1_555
C72_2 N13_3 1_555 1_555
H66_2 C72_2 1_555 1_555
C73_2 N23 1_555 1_555
H67_2 C73_2 1_555 1_555
C74_2 C68_3 1_555 1_555
H68_2 C74_2 1_555 1_555
N21_2 C84_2 1_555 1_555
N20_2 Cu14 1_555 1_555
C79_2 C80_2 1_555 1_555
C80_2 C82_2 1_555 1_555
C81_2 C79_2 1_555 1_555
H73_2 C81_2 1_555 1_555
C82_2 H74_2 1_555 1_555
C83_2 N20_2 1_555 1_555
H75_2 C83_2 1_555 1_555
C84_2 H76_2 1_555 1_555
C85_2 C80_2 1_555 1_555
H77_2 C85_2 1_555 1_555
C86_2 N20_2 1_555 1_555
H78_2 C86_2 1_555 1_555
C87_2 C79_2 1_555 1_555
H79_2 C87_2 1_555 1_555
C88_2 N21_2 1_555 1_555
H80_2 C88_2 1_555 1_555
C49_2 C56_2 1_555 1_555
C50_2 C54_2 1_555 1_555
C51_2 C53_2 1_555 1_555
C52_2 C55_2 1_555 1_555
C60_2 C61_2 1_555 1_555
C67_2 C68_3 1_555 1_555
C71_2 C72_2 1_555 1_555
C73_2 C74_2 1_555 1_555
C81_2 C88_2 1_555 1_555
C82_2 C86_2 1_555 1_555
C83_2 C85_2 1_555 1_555
C84_2 C87_2 1_555 1_555

#END
