
###############################################################################
#
# This file contains modified crystal structure data generated from the
# MOF subset of the Cambridge Structural Database (CSD) v543 
# hosted by the Cambridge Crystallographic Data Centre (CCDC).
#
# This work is licensed under the Creative Commons
# Attribution-NonCommercial-ShareAlike 4.0 International License.
# To view a copy of this license, visit
# http://creativecommons.org/licenses/by-nc-sa/4.0/
# or send a letter to
# Creative Commons, PO Box 1866, Mountain View, CA 94042, USA.
#
# CIF created using the CSD Python API on 29 September 2022
# The structure has been converted into the P1 space group
# The structure has a 3D framework
# The original CSD entry EXOTUH is in the trigonal crystal system
# The original CSD entry EXOTUH is in a Sohncke space group
# The framework has been calculated to contain at least 10.0% void space
# The void calculation uses a probe of radius 1.32A, grid spacing 0.4
# H atom positions have been added when not included in the experimental data
#
###############################################################################

data_EXOTUH
_chemical_formula_moiety         '(C106 H60 Cd5 N22 O24)n'
_symmetry_cell_setting           triclinic
_symmetry_space_group_name_H-M   'P 1'
_symmetry_Int_Tables_number      1
_space_group_name_Hall           'P 1'
loop_
_symmetry_equiv_pos_site_id
_symmetry_equiv_pos_as_xyz
1 x,y,z
_cell_length_a                   15.214(2)
_cell_length_b                   15.214(2)
_cell_length_c                   19.686(4)
_cell_angle_alpha                90
_cell_angle_beta                 90
_cell_angle_gamma                120
_cell_volume                     3946.16
loop_
_atom_site_label
_atom_site_type_symbol
_atom_site_fract_x
_atom_site_fract_y
_atom_site_fract_z
Cd2 Cd -0.0000 0.14365(6) 0.8333
C12 C 0.8821(11) 0.0715(10) 0.0519(5)
H7 H 0.9130 0.0731 0.0930
C13 C 0.7802(8) 0.0497(8) 0.0502(5)
C16 C 0.7210(9) 0.0227(9) 0.1120(5)
C17 C 0.5805(8) 0.0000(8) 0.1667
C18 C 0.4834(8) 0.0000(8) 0.1667
Cd1 Cd 0.14365(6) 0.0000 0.1667
N1 N 0.3055(10) 0.0000 0.1667
N3 N 0.7567(7) 0.0000(7) 0.1667
N4 N 0.6356(8) 0.0262(7) 0.1093(4)
C27 C 0.3657(18) 0.0365(14) 0.1143(8)
H13 H 0.3468 0.0614 0.0773
C28 C 0.4571(13) 0.0384(9) 0.1135(6)
H14 H 0.5005 0.0659 0.0765
N7 N 0.2009(12) 0.1011(8) 0.2675(4)
O6 O 0.2455(11) 0.1535(8) 0.1018(5)
O10 O 0.0954(13) 0.1131(9) 0.1203(8)
C11 C 0.9348(11) 0.0904(10) 0.9920(7)
H6 H 0.9989 0.0968 0.9928
C14 C 0.7492(13) 0.0618(11) 0.9906(6)
H8 H 0.6840 0.0522 0.9874
C15 C 0.8070(11) 0.0876(10) 0.9325(6)
H9 H 0.7811 0.0965 0.8919
N2 N 0.8989(8) 0.0998(9) 0.9342(4)
Cd2_2 Cd 1.0000 0.14365(6) 0.8333
C8 C 0.0060(11) 0.8293(12) 0.2338(8)
C9 C 0.3292(11) 0.9635(14) 0.2190(8)
H4 H 0.2854 0.9386 0.2560
C10 C 0.4187(10) 0.9616(9) 0.2198(6)
H5 H 0.4346 0.9341 0.2568
C17_2 C 0.5805(8) 1.0000(8) 0.1667
C18_2 C 0.4834(8) 1.0000(8) 0.1667
Cd1_2 Cd 0.14365(6) 1.0000 0.1667
N1_2 N 0.3055(10) 1.0000 0.1667
N3_2 N 0.7567(7) 1.0000(7) 0.1667
O1 O 0.0920(8) 0.8465(8) 0.2315(5)
C19 C 0.2451(15) 0.8447(21) 0.4082(10)
H10 H 0.3093 0.8817 0.4275
C20 C 0.2266(16) 0.7720(19) 0.3589(10)
H11 H 0.2784 0.7604 0.3452
C21 C 0.1305(13) 0.7166(18) 0.3302(8)
C22 C 0.0531(12) 0.7339(18) 0.3507(8)
C23 C 0.0716(12) 0.8066(16) 0.4000(8)
C24 C 0.1676(12) 0.8620(18) 0.4287(8)
H12 H 0.1800 0.9106 0.4617
C25 C 0.127(3) 0.640(4) 0.289(2)
C29 C 0.8444(15) 0.9096(10) 0.3413(7)
H15 H 0.9021 0.9032 0.3405
C30 C 0.8106(15) 0.9285(10) 0.2814(5)
H16 H 0.8399 0.9269 0.2403
C31 C 0.7305(11) 0.9503(8) 0.2831(5)
C32 C 0.6874(17) 0.9382(11) 0.3427(6)
H17 H 0.6318 0.9478 0.3459
C33 C 0.7194(15) 0.9124(10) 0.4008(6)
H18 H 0.6846 0.9035 0.4414
C34 C 0.6983(13) 0.9773(9) 0.2213(5)
Cd4 Cd 0.85635(6) 0.85635(6) 0.5000
N5 N 0.7991(12) 0.9002(9) 0.3991(4)
N6 N 0.0998(9) 0.8989(8) 0.0658(4)
N8 N 0.6094(11) 0.9738(7) 0.2240(4)
O7 O 0.092(2) 0.644(3) 0.2367(14)
O8 O 0.149(4) 0.567(6) 0.280(3)
O9 O 0.0177(9) 0.9046(13) 0.4537(8)
H20 H 0.115627 0.514798 0.315613
C1 C 0.7549(15) 0.5996(14) 0.2585(10)
H1 H 0.6907 0.5724 0.2392
C2 C 0.7734(16) 0.5454(11) 0.3078(10)
H2 H 0.7216 0.4820 0.3215
C3 C 0.8695(13) 0.5861(13) 0.3365(8)
C4 C 0.9469(12) 0.6808(13) 0.3160(8)
C5 C 0.9284(12) 0.7350(10) 0.2667(8)
C6 C 0.8324(12) 0.6944(13) 0.2380(8)
H3 H 0.8200 0.7306 0.2050
C7 C 0.873(3) 0.513(3) 0.378(2)
O2 O 0.908(2) 0.552(2) 0.4300(14)
O3 O 0.851(4) 0.418(4) 0.387(3)
O4 O 0.9823(9) 0.8869(9) 0.2130(8)
C26 C 0.9940(11) 0.8233(16) 0.4329(8)
O5 O 0.9080(8) 0.7545(11) 0.4352(5)
H19 H 0.884373 0.399171 0.351054
C3_2 C 0.4139(13) 0.2834(18) 0.0032(8)
C7_2 C 0.487(3) 0.360(4) 0.045(2)
O2_2 O 0.448(2) 0.356(3) 0.0967(14)
O3_2 O 0.582(4) 0.433(6) 0.054(3)
C19_2 C 0.1553(21) 0.4004(26) 0.0748(10)
H10_2 H 0.1183 0.4276 0.0941
C20_2 C 0.2280(19) 0.4546(25) 0.0255(10)
H11_2 H 0.2396 0.5180 0.0118
C22_2 C 0.2661(18) 0.3192(22) 0.0173(8)
C23_2 C 0.1934(16) 0.2650(20) 0.0666(8)
C24_2 C 0.1380(18) 0.3056(22) 0.0953(8)
H12_2 H 0.0894 0.2694 0.1283
C26_2 C 0.1767(16) 0.1707(19) 0.0995(8)
C29_2 C 0.0904(10) 0.9348(18) 0.0080(7)
H15_2 H 0.0968 0.9989 0.0072
C32_2 C 0.0618(11) 0.7492(20) 0.0094(6)
H17_2 H 0.0522 0.6840 0.0126
C33_2 C 0.0876(10) 0.8070(18) 0.0675(6)
H18_2 H 0.0965 0.7811 0.1081
H19_2 H 0.600829 0.485202 0.0177206
C1_2 C 0.4004(14) 0.1553(21) 0.9252(10)
H1_2 H 0.4276 0.1183 0.9059
C2_2 C 0.4546(11) 0.2280(19) 0.9745(10)
H2_2 H 0.5180 0.2396 0.9882
C4_2 C 0.3192(13) 0.2661(18) 0.9827(8)
C5_2 C 0.2650(10) 0.1934(16) 0.9334(8)
C6_2 C 0.3056(13) 0.1380(18) 0.9047(8)
H3_2 H 0.2694 0.0894 0.8717
C8_2 C 0.1707(12) 0.1767(16) 0.9005(8)
C9_2 C 0.0365(14) 0.3657(18) 0.8857(8)
H4_2 H 0.0614 0.3468 0.9227
C10_2 C 0.0384(9) 0.4571(13) 0.8865(6)
H5_2 H 0.0659 0.5005 0.9235
C17_3 C -0.0000(8) 0.5805(11) 0.8334
C18_3 C 0.0000(8) 0.4834(11) 0.8334
N1_3 N 0.0000 0.3055(10) 0.8334
N3_3 N 0.0000(7) 0.7567(10) 0.8334
O1_2 O 0.1535(8) 0.2455(11) 0.8982(5)
O4_2 O 0.1131(9) 0.0954(13) 0.8797(8)
C21_2 C 0.2834(18) 0.4139(22) 0.9968(8)
C25_2 C 0.360(4) 0.487(5) 0.955(2)
C30_2 C 0.0715(10) 0.8821(18) 0.9481(5)
H16_2 H 0.0731 0.9130 0.9070
C31_2 C 0.0497(8) 0.7802(14) 0.9498(5)
C34_2 C 0.0227(9) 0.7210(16) 0.8880(5)
N6_2 N 0.1011(8) 0.2009(12) 0.7325(4)
N8_2 N 0.0262(7) 0.6356(13) 0.8907(4)
O7_2 O 0.356(3) 0.448(4) 0.9033(14)
O8_2 O 0.433(6) 0.582(7) 0.946(3)
H20_2 H 0.485202 0.600829 0.982279
C11_2 C 0.9096(10) 0.8444(15) 0.6587(7)
H6_2 H 0.9032 0.9021 0.6595
C12_2 C 0.9285(10) 0.8106(15) 0.7186(5)
H7_2 H 0.9269 0.8399 0.7597
C13_2 C 0.9503(8) 0.7305(11) 0.7169(5)
C14_2 C 0.9382(11) 0.6874(17) 0.6573(6)
H8_2 H 0.9478 0.6318 0.6541
C15_2 C 0.9124(10) 0.7194(15) 0.5992(6)
H9_2 H 0.9035 0.6846 0.5586
C16_2 C 0.9773(9) 0.6983(13) 0.7787(5)
C17_4 C 1.0000(8) 0.5805(11) 0.8334
C18_4 C 1.0000(8) 0.4834(11) 0.8334
N1_4 N 1.0000 0.3055(10) 0.8334
N2_2 N 0.9002(9) 0.7991(12) 0.6009(4)
N3_4 N 1.0000(7) 0.7567(10) 0.8334
N4_2 N 0.9738(7) 0.6094(11) 0.7760(4)
C27_2 C 0.9635(14) 0.3292(23) 0.7810(8)
H13_2 H 0.9386 0.2854 0.7440
C28_2 C 0.9616(9) 0.4187(16) 0.7802(6)
H14_2 H 0.9341 0.4346 0.7432
O6_2 O 0.8465(8) 0.0920(14) 0.7685(5)
O10_2 O 0.8869(9) 0.9823(16) 0.7870(8)
C1_3 C 0.8447(21) 0.2451(15) 0.5918(10)
H1_3 H 0.8817 0.3093 0.5725
C2_3 C 0.7720(19) 0.2266(16) 0.6411(10)
H2_3 H 0.7604 0.2784 0.6548
C3_3 C 0.7166(18) 0.1305(13) 0.6698(8)
C4_3 C 0.7339(18) 0.0531(12) 0.6493(8)
C5_3 C 0.8066(16) 0.0716(12) 0.6000(8)
C6_3 C 0.8620(18) 0.1676(12) 0.5713(8)
H3_3 H 0.9106 0.1800 0.5383
C7_3 C 0.640(4) 0.127(3) 0.711(2)
O2_3 O 0.644(3) 0.092(2) 0.7633(14)
O3_3 O 0.567(6) 0.149(4) 0.720(3)
O4_3 O 0.9046(13) 0.0177(9) 0.5463(8)
C26_3 C 0.8293(19) 0.0060(11) 0.7662(8)
H19_3 H 0.514798 0.115627 0.684387
C8_3 C 0.8233(16) 0.9940(11) 0.5671(8)
C9_3 C 0.6343(18) 0.6708(11) 0.5523(8)
H4_3 H 0.6532 0.7146 0.5893
C10_3 C 0.5429(13) 0.5813(10) 0.5531(6)
H5_3 H 0.4995 0.5654 0.5901
C11_3 C 0.1556(15) 0.0652(11) 0.3253(7)
H6_3 H 0.0979 0.0011 0.3261
C12_3 C 0.1894(15) 0.1179(11) 0.3852(5)
H7_3 H 0.1601 0.0870 0.4263
C13_3 C 0.2695(11) 0.2198(8) 0.3835(5)
C14_3 C 0.3126(17) 0.2508(13) 0.3239(6)
H8_3 H 0.3682 0.3160 0.3207
C15_3 C 0.2806(15) 0.1930(11) 0.2658(6)
H9_3 H 0.3154 0.2189 0.2252
C16_3 C 0.3017(13) 0.2790(9) 0.4453(5)
C17_5 C 0.4195(11) 0.4195(8) 0.5000
C18_5 C 0.5166(11) 0.5166(8) 0.5000
N1_5 N 0.6945(10) 0.6945(10) 0.5000
N3_5 N 0.2433(10) 0.2433(7) 0.5000
N4_3 N 0.3906(11) 0.3644(8) 0.4426(4)
O1_3 O 0.7545(11) 0.9080(8) 0.5648(5)
C19_3 C 0.5996(26) 0.7549(15) 0.7415(10)
H10_3 H 0.5724 0.6907 0.7608
C20_3 C 0.5454(25) 0.7734(16) 0.6922(10)
H11_3 H 0.4820 0.7216 0.6785
C21_3 C 0.5861(22) 0.8695(13) 0.6635(8)
C22_3 C 0.6808(22) 0.9469(12) 0.6840(8)
C23_3 C 0.7350(20) 0.9284(12) 0.7333(8)
C24_3 C 0.6944(22) 0.8324(12) 0.7620(8)
H12_3 H 0.7306 0.8200 0.7950
C25_3 C 0.513(5) 0.873(3) 0.622(2)
C27_3 C 0.6708(23) 0.6343(18) 0.4477(8)
H13_3 H 0.7146 0.6532 0.4107
C28_3 C 0.5813(16) 0.5429(13) 0.4469(6)
H14_3 H 0.5654 0.4995 0.4099
C29_3 C 0.0652(18) 0.1556(15) 0.6747(7)
H15_3 H 0.0011 0.0979 0.6739
C30_3 C 0.1179(18) 0.1894(15) 0.6148(5)
H16_3 H 0.0870 0.1601 0.5737
C31_3 C 0.2198(14) 0.2695(11) 0.6165(5)
C32_3 C 0.2508(20) 0.3126(17) 0.6761(6)
H17_3 H 0.3160 0.3682 0.6793
C33_3 C 0.1930(18) 0.2806(15) 0.7342(6)
H18_3 H 0.2189 0.3154 0.7748
C34_3 C 0.2790(16) 0.3017(13) 0.5547(5)
N8_3 N 0.3644(13) 0.3906(11) 0.5574(4)
O7_3 O 0.552(4) 0.908(2) 0.5700(14)
O8_3 O 0.418(7) 0.851(4) 0.613(3)
H20_3 H 0.399171 0.884373 0.648946
loop_
_geom_bond_atom_site_label_1
_geom_bond_atom_site_label_2
_geom_bond_site_symmetry_1
_geom_bond_site_symmetry_2
H7 C12 1_555 1_555
C13 C12 1_555 1_555
C16 C13 1_555 1_555
C17 C18 1_555 1_555
Cd1 N1 1_555 1_555
N3 C16 1_555 1_555
N4 C16 1_555 1_555
C27 N1 1_555 1_555
H13 C27 1_555 1_555
C28 C18 1_555 1_555
H14 C28 1_555 1_555
N7 Cd1 1_555 1_555
O6 Cd1 1_555 1_555
O10 Cd1 1_555 1_555
C17 N4 1_555 1_555
C27 C28 1_555 1_555
C11 H6 1_555 1_555
H8 C14 1_555 1_555
C15 C14 1_555 1_555
H9 C15 1_555 1_555
N2 C11 1_555 1_555
Cd2_2 N2 1_555 1_555
C15 N2 1_555 1_555
C9 H4 1_555 1_555
C10 C9 1_555 1_555
H5 C10 1_555 1_555
C17_2 C18_2 1_555 1_555
C18_2 C10 1_555 1_555
Cd1_2 N1_2 1_555 1_555
N1_2 C9 1_555 1_555
O1 C8 1_555 1_555
C19 H10 1_555 1_555
C20 C19 1_555 1_555
H11 C20 1_555 1_555
C21 C20 1_555 1_555
C23 C22 1_555 1_555
C24 C19 1_555 1_555
H12 C24 1_555 1_555
C25 C21 1_555 1_555
C29 H15 1_555 1_555
C30 C29 1_555 1_555
H16 C30 1_555 1_555
C31 C30 1_555 1_555
C32 C31 1_555 1_555
H17 C32 1_555 1_555
C33 C32 1_555 1_555
H18 C33 1_555 1_555
C34 N3_2 1_555 1_555
Cd4 N5 1_555 1_555
N5 C29 1_555 1_555
N6 Cd1_2 1_555 1_555
N8 C17_2 1_555 1_555
O7 C25 1_555 1_555
O8 C25 1_555 1_555
Cd1_2 O1 1_555 1_555
C21 C22 1_555 1_555
C23 C24 1_555 1_555
C31 C34 1_555 1_555
C33 N5 1_555 1_555
C34 N8 1_555 1_555
O8 H20 1_555 1_555
C1 H1 1_555 1_555
C2 C1 1_555 1_555
H2 C2 1_555 1_555
C3 C2 1_555 1_555
C4 C3 1_555 1_555
C5 C4 1_555 1_555
C6 C1 1_555 1_555
H3 C6 1_555 1_555
C7 C3 1_555 1_555
O2 C7 1_555 1_555
O3 C7 1_555 1_555
Cd4 O5 1_555 1_555
O5 C26 1_555 1_555
C5 C6 1_555 1_555
O3 H19 1_555 1_555
C7_2 C3_2 1_555 1_555
O2_2 C7_2 1_555 1_555
O3_2 C7_2 1_555 1_555
C19_2 H10_2 1_555 1_555
C20_2 C19_2 1_555 1_555
H11_2 C20_2 1_555 1_555
C23_2 C22_2 1_555 1_555
C24_2 C19_2 1_555 1_555
H12_2 C24_2 1_555 1_555
C26_2 C23_2 1_555 1_555
C29_2 H15_2 1_555 1_555
H17_2 C32_2 1_555 1_555
C33_2 C32_2 1_555 1_555
H18_2 C33_2 1_555 1_555
N6 C29_2 1_555 1_555
O6 C26_2 1_555 1_555
O10 C26_2 1_555 1_555
C23_2 C24_2 1_555 1_555
C33_2 N6 1_555 1_555
O3_2 H19_2 1_555 1_555
C1_2 H1_2 1_555 1_555
C2_2 C1_2 1_555 1_555
H2_2 C2_2 1_555 1_555
C5_2 C4_2 1_555 1_555
C6_2 C1_2 1_555 1_555
H3_2 C6_2 1_555 1_555
C8_2 C5_2 1_555 1_555
C9_2 H4_2 1_555 1_555
C10_2 C9_2 1_555 1_555
H5_2 C10_2 1_555 1_555
C17_3 C18_3 1_555 1_555
C18_3 C10_2 1_555 1_555
Cd2 N1_3 1_555 1_555
N1_3 C9_2 1_555 1_555
O1_2 C8_2 1_555 1_555
O4_2 C8_2 1_555 1_555
C25_2 C21_2 1_555 1_555
H16_2 C30_2 1_555 1_555
C31_2 C30_2 1_555 1_555
C34_2 N3_3 1_555 1_555
N6_2 Cd2 1_555 1_555
N8_2 C17_3 1_555 1_555
O7_2 C25_2 1_555 1_555
O8_2 C25_2 1_555 1_555
C5_2 C6_2 1_555 1_555
Cd2 O1_2 1_555 1_555
Cd2 O4_2 1_555 1_555
C31_2 C34_2 1_555 1_555
C34_2 N8_2 1_555 1_555
O8_2 H20_2 1_555 1_555
C11_2 H6_2 1_555 1_555
C12_2 C11_2 1_555 1_555
H7_2 C12_2 1_555 1_555
C13_2 C12_2 1_555 1_555
C14_2 C13_2 1_555 1_555
H8_2 C14_2 1_555 1_555
C15_2 C14_2 1_555 1_555
H9_2 C15_2 1_555 1_555
C16_2 C13_2 1_555 1_555
C17_4 C18_4 1_555 1_555
Cd2_2 N1_4 1_555 1_555
N2_2 C11_2 1_555 1_555
N3_4 C16_2 1_555 1_555
N4_2 C16_2 1_555 1_555
C27_2 N1_4 1_555 1_555
H13_2 C27_2 1_555 1_555
C28_2 C18_4 1_555 1_555
H14_2 C28_2 1_555 1_555
Cd4 N2_2 1_555 1_555
O6_2 Cd2_2 1_555 1_555
C15_2 N2_2 1_555 1_555
C17_4 N4_2 1_555 1_555
C27_2 C28_2 1_555 1_555
C1_3 H1_3 1_555 1_555
C2_3 C1_3 1_555 1_555
H2_3 C2_3 1_555 1_555
C3_3 C2_3 1_555 1_555
C4_3 C3_3 1_555 1_555
C5_3 C4_3 1_555 1_555
C6_3 C1_3 1_555 1_555
H3_3 C6_3 1_555 1_555
C7_3 C3_3 1_555 1_555
O2_3 C7_3 1_555 1_555
O3_3 C7_3 1_555 1_555
O6_2 C26_3 1_555 1_555
C5_3 C6_3 1_555 1_555
O3_3 H19_3 1_555 1_555
C9_3 H4_3 1_555 1_555
C10_3 C9_3 1_555 1_555
H5_3 C10_3 1_555 1_555
C11_3 H6_3 1_555 1_555
C12_3 C11_3 1_555 1_555
H7_3 C12_3 1_555 1_555
C13_3 C12_3 1_555 1_555
C14_3 C13_3 1_555 1_555
H8_3 C14_3 1_555 1_555
C15_3 C14_3 1_555 1_555
H9_3 C15_3 1_555 1_555
C16_3 C13_3 1_555 1_555
C17_5 C18_5 1_555 1_555
C18_5 C10_3 1_555 1_555
Cd4 N1_5 1_555 1_555
N1_5 C9_3 1_555 1_555
N7 C11_3 1_555 1_555
N3_5 C16_3 1_555 1_555
N4_3 C16_3 1_555 1_555
O1_3 C8_3 1_555 1_555
C19_3 H10_3 1_555 1_555
C20_3 C19_3 1_555 1_555
H11_3 C20_3 1_555 1_555
C21_3 C20_3 1_555 1_555
C23_3 C22_3 1_555 1_555
C24_3 C19_3 1_555 1_555
H12_3 C24_3 1_555 1_555
C25_3 C21_3 1_555 1_555
C27_3 N1_5 1_555 1_555
H13_3 C27_3 1_555 1_555
C28_3 C18_5 1_555 1_555
H14_3 C28_3 1_555 1_555
C29_3 H15_3 1_555 1_555
C30_3 C29_3 1_555 1_555
H16_3 C30_3 1_555 1_555
C31_3 C30_3 1_555 1_555
C32_3 C31_3 1_555 1_555
H17_3 C32_3 1_555 1_555
C33_3 C32_3 1_555 1_555
H18_3 C33_3 1_555 1_555
C34_3 N3_5 1_555 1_555
N6_2 C29_3 1_555 1_555
N8_3 C17_5 1_555 1_555
O7_3 C25_3 1_555 1_555
O8_3 C25_3 1_555 1_555
C15_3 N7 1_555 1_555
C17_5 N4_3 1_555 1_555
Cd4 O1_3 1_555 1_555
C21_3 C22_3 1_555 1_555
C23_3 C24_3 1_555 1_555
C27_3 C28_3 1_555 1_555
C31_3 C34_3 1_555 1_555
C33_3 N6_2 1_555 1_555
C34_3 N8_3 1_555 1_555
O8_3 H20_3 1_555 1_555

#END
