
###############################################################################
#
# This file contains modified crystal structure data generated from the
# MOF subset of the Cambridge Structural Database (CSD) v543 
# hosted by the Cambridge Crystallographic Data Centre (CCDC).
#
# This work is licensed under the Creative Commons
# Attribution-NonCommercial-ShareAlike 4.0 International License.
# To view a copy of this license, visit
# http://creativecommons.org/licenses/by-nc-sa/4.0/
# or send a letter to
# Creative Commons, PO Box 1866, Mountain View, CA 94042, USA.
#
# CIF created using the CSD Python API on 29 September 2022
# The structure has been converted into the P1 space group
# The structure has a 3D framework
# The original CSD entry EXOTOB is in the cubic crystal system
# The framework has been calculated to contain at least 10.0% void space
# The void calculation uses a probe of radius 1.32A, grid spacing 0.4
# H atom positions have been added when not included in the experimental data
# Generated hydrogen atom positions removed from atoms on special positions
#
###############################################################################

data_EXOTOB
_chemical_formula_moiety         '(C1536 H1776 N384 Ni96 O453)n'
_symmetry_cell_setting           triclinic
_symmetry_space_group_name_H-M   'P 1'
_symmetry_Int_Tables_number      1
_space_group_name_Hall           'P 1'
loop_
_symmetry_equiv_pos_site_id
_symmetry_equiv_pos_as_xyz
1 x,y,z
_cell_length_a                   42.763(5)
_cell_length_b                   42.763(5)
_cell_length_c                   42.763(5)
_cell_angle_alpha                90
_cell_angle_beta                 90
_cell_angle_gamma                90
_cell_volume                     78199.6
loop_
_atom_site_label
_atom_site_type_symbol
_atom_site_fract_x
_atom_site_fract_y
_atom_site_fract_z
C63 C 0.32633(8) 0.06457(8) 0.27255(9)
C64 C 0.43543(8) 0.22745(9) 0.32633(8)
C65 C 0.27255(9) 0.17367(8) 0.43543(8)
H29 H 0.3101 0.0502 0.2702
H30 H 0.4498 0.2298 0.3101
H31 H 0.2702 0.1899 0.4498
C74 C 0.32305(8) 0.08921(8) 0.29445(8)
C75 C 0.41079(8) 0.20555(8) 0.32305(8)
C76 C 0.29445(8) 0.17695(8) 0.41079(8)
H40 H 0.3052 0.0903 0.3068
H41 H 0.4097 0.1932 0.3052
H42 H 0.3068 0.1948 0.4097
C85 C 0.34514(6) 0.11076(6) 0.29753(6)
C86 C 0.38924(6) 0.20247(6) 0.34514(6)
C87 C 0.29753(6) 0.15486(6) 0.38924(6)
C96 C 0.37130(7) 0.10781(8) 0.27852(8)
C97 C 0.39219(8) 0.22148(8) 0.37130(7)
C98 C 0.27852(8) 0.12870(7) 0.39219(8)
H51 H 0.3868 0.1230 0.2789
H52 H 0.3770 0.2211 0.3868
H53 H 0.2789 0.1132 0.3770
C107 C 0.37419(8) 0.08255(8) 0.25934(9)
C108 C 0.41745(8) 0.24066(9) 0.37419(8)
C109 C 0.25934(9) 0.12581(8) 0.41745(8)
H62 H 0.3928 0.0800 0.2485
H63 H 0.4200 0.2515 0.3928
H64 H 0.2485 0.1072 0.4200
C118 C 0.34372(6) 0.13606(6) 0.32079(6)
C119 C 0.36394(6) 0.17921(6) 0.34372(6)
C120 C 0.32079(6) 0.15628(6) 0.36394(6)
N7 N 0.35185(5) 0.06142(5) 0.25532(6)
N8 N 0.43858(5) 0.24468(6) 0.35185(5)
N9 N 0.25532(6) 0.14815(5) 0.43858(5)
N20 N 0.36568(5) 0.15785(5) 0.32038(5)
N21 N 0.34215(5) 0.17962(5) 0.36568(5)
N22 N 0.32038(5) 0.13432(5) 0.34215(5)
N42 N 0.51442(6) 0.30582(6) 0.36433(6)
N43 N 0.19418(6) 0.13567(6) 0.51442(6)
Ni4 Ni 0.357346(9) 0.023224(9) 0.225220(9)
Ni9 Ni 0.476776(9) 0.274780(9) 0.357346(9)
Ni10 Ni 0.225220(9) 0.142654(9) 0.476776(9)
O17 O 0.31512(4) 0.00297(4) 0.23701(4)
O19 O 0.49703(4) 0.26299(4) 0.31512(4)
O20 O 0.23701(4) 0.18488(4) 0.49703(4)
O36 O 0.38165(5) 0.00036(7) 0.25960(6)
O41 O 0.49964(7) 0.24040(6) 0.38165(5)
O42 O 0.25960(6) 0.11835(5) 0.49964(7)
O47 O 0.40020(6) 0.04096(7) 0.20995(7)
O52 O 0.45904(7) 0.29005(7) 0.40020(6)
O53 O 0.20995(7) 0.09980(6) 0.45904(7)
O58 O 0.33330(5) 0.04881(5) 0.19173(5)
O63 O 0.45119(5) 0.30827(5) 0.33330(5)
O64 O 0.19173(5) 0.16670(5) 0.45119(5)
C21 C 0.19116(6) 0.01841(6) 0.75622(6)
C22 C 0.30884(6) 0.01841(6) 0.74378(6)
C32 C 0.22207(6) 0.03406(6) 0.75368(6)
C33 C 0.27793(6) 0.03406(6) 0.74632(6)
C41 C 0.2500 0.01751(7) 0.7500
C48 C 0.22267(7) 0.06693(6) 0.75406(7)
C49 C 0.27733(7) 0.06693(6) 0.74594(7)
H14 H 0.2042 0.0781 0.7571
H15 H 0.2958 0.0781 0.7429
C57 C 0.2500 0.08248(9) 0.7500
H23 H 0.2500 0.1042 0.7500
C129 C 0.11048(9) 0.03200(9) 0.69745(9)
C130 C 0.03200(9) 0.19745(9) 0.61048(9)
C131 C 0.19745(9) 0.11048(9) 0.53200(9)
H73 H 0.0967 0.0279 0.7138
H74 H 0.0279 0.2138 0.5967
H75 H 0.2138 0.0967 0.5279
C140 C 0.10399(8) 0.05658(8) 0.67685(8)
C141 C 0.05658(8) 0.17685(8) 0.60399(8)
C142 C 0.17685(8) 0.10399(8) 0.55658(8)
H84 H 0.0867 0.0693 0.6803
H85 H 0.0693 0.1803 0.5867
H86 H 0.1803 0.0867 0.5693
C151 C 0.12292(7) 0.06198(7) 0.65179(6)
C152 C 0.06198(7) 0.15179(6) 0.62292(7)
C153 C 0.15179(6) 0.12292(7) 0.56198(7)
C162 C 0.14899(7) 0.04307(7) 0.64908(8)
C163 C 0.04307(7) 0.14908(8) 0.64899(7)
C164 C 0.14908(8) 0.14899(7) 0.54307(7)
H95 H 0.1631 0.0462 0.6328
H96 H 0.0462 0.1328 0.6631
H97 H 0.1328 0.1631 0.5462
C173 C 0.15402(8) 0.01998(9) 0.67015(9)
C174 C 0.01998(9) 0.17015(9) 0.65402(8)
C175 C 0.17015(9) 0.15402(8) 0.51998(9)
H106 H 0.1715 0.0073 0.6675
H107 H 0.0073 0.1675 0.6715
H108 H 0.1675 0.1715 0.5073
C184 C 0.11609(6) 0.08777(6) 0.62986(6)
C185 C 0.08777(6) 0.12986(6) 0.61609(6)
C186 C 0.12986(6) 0.11609(6) 0.58777(6)
N31 N 0.13567(6) 0.01442(6) 0.69418(6)
N32 N 0.01442(6) 0.19418(6) 0.63567(6)
N48 N 0.09208(6) 0.10617(6) 0.63642(5)
N49 N 0.10617(6) 0.13642(5) 0.59208(6)
N50 N 0.13642(5) 0.09208(6) 0.60617(6)
Ni16 Ni 0.274780(9) 0.023224(9) 0.642654(9)
Ni17 Ni 0.225220(9) 0.023224(9) 0.857346(9)
O11 O 0.26299(4) 0.00297(4) 0.68488(4)
O12 O 0.23701(4) 0.00297(4) 0.81512(4)
O26 O 0.17239(4) 0.02739(5) 0.77699(5)
O27 O 0.32761(4) 0.02739(5) 0.72301(5)
H173 H 0.131904 0.00217143 0.778284
H174 H 0.111832 0.0205462 0.751876
C1 C 0.24378(6) 0.80884(6) 0.01841(6)
C2 C 0.24632(6) 0.77793(6) 0.03406(6)
C3 C 0.2500 0.7500 0.01751(7)
C4 C 0.24594(7) 0.77733(7) 0.06693(6)
H1 H 0.2429 0.7958 0.0781
C5 C 0.2500 0.7500 0.08248(9)
H2 H 0.2500 0.7500 0.1042
C12 C 0.30255(9) 0.88952(9) 0.03200(9)
H7 H 0.2862 0.9033 0.0279
C13 C 0.32315(8) 0.89601(8) 0.05658(8)
H8 H 0.3197 0.9133 0.0693
C14 C 0.34821(6) 0.87708(7) 0.06198(7)
C15 C 0.35092(8) 0.85101(7) 0.04307(7)
H9 H 0.3672 0.8369 0.0462
C16 C 0.32985(9) 0.84598(8) 0.01998(9)
H10 H 0.3325 0.8285 0.0073
C17 C 0.37014(6) 0.88391(6) 0.08777(6)
N3 N 0.30582(6) 0.86433(6) 0.01442(6)
N4 N 0.36358(5) 0.90792(6) 0.10617(6)
O2 O 0.22301(5) 0.82761(4) 0.02739(5)
C18 C 0.25622(6) 0.69116(6) 0.01841(6)
C29 C 0.25368(6) 0.72207(6) 0.03406(6)
C45 C 0.25406(7) 0.72267(7) 0.06693(6)
H11 H 0.2571 0.7042 0.0781
C66 C 0.56457(8) 0.72745(9) 0.17367(8)
C67 C 0.72745(9) 0.67367(8) 0.06457(8)
C68 C 0.67367(8) 0.56457(8) 0.22745(9)
H32 H 0.5502 0.7298 0.1899
H33 H 0.7298 0.6899 0.0502
H34 H 0.6899 0.5502 0.2298
C77 C 0.58921(8) 0.70555(8) 0.17695(8)
C78 C 0.70555(8) 0.67695(8) 0.08921(8)
C79 C 0.67695(8) 0.58921(8) 0.20555(8)
H43 H 0.5903 0.6932 0.1948
H44 H 0.6932 0.6948 0.0903
H45 H 0.6948 0.5903 0.1932
C88 C 0.61076(6) 0.70247(6) 0.15486(6)
C89 C 0.70247(6) 0.65486(6) 0.11076(6)
C90 C 0.65486(6) 0.61076(6) 0.20247(6)
C99 C 0.60781(8) 0.72148(8) 0.12870(7)
C100 C 0.72148(8) 0.62870(7) 0.10781(8)
C101 C 0.62870(7) 0.60781(8) 0.22148(8)
H54 H 0.6230 0.7211 0.1132
H55 H 0.7211 0.6132 0.1230
H56 H 0.6132 0.6230 0.2211
C110 C 0.58255(8) 0.74066(9) 0.12581(8)
C111 C 0.74066(9) 0.62581(8) 0.08255(8)
C112 C 0.62581(8) 0.58255(8) 0.24066(9)
H65 H 0.5800 0.7515 0.1072
H66 H 0.7515 0.6072 0.0800
H67 H 0.6072 0.5800 0.2515
C121 C 0.63606(6) 0.67921(6) 0.15628(6)
C122 C 0.67921(6) 0.65628(6) 0.13606(6)
C123 C 0.65628(6) 0.63606(6) 0.17921(6)
C127 C 0.38952(9) 0.96800(9) 0.19745(9)
C128 C 0.46800(9) 0.80255(9) 0.11048(9)
C135 C 0.19745(9) 0.61048(9) 0.03200(9)
C136 C 0.11048(9) 0.53200(9) 0.19745(9)
C137 C 0.03200(9) 0.69745(9) 0.11048(9)
H71 H 0.4033 0.9721 0.2138
H72 H 0.4721 0.7862 0.0967
H79 H 0.2138 0.5967 0.0279
H80 H 0.0967 0.5279 0.2138
H81 H 0.0279 0.7138 0.0967
C138 C 0.39601(8) 0.94342(8) 0.17685(8)
C139 C 0.44342(8) 0.82315(8) 0.10399(8)
C146 C 0.17685(8) 0.60399(8) 0.05658(8)
C147 C 0.10399(8) 0.55658(8) 0.17685(8)
C148 C 0.05658(8) 0.67685(8) 0.10399(8)
H82 H 0.4133 0.9307 0.1803
H83 H 0.4307 0.8197 0.0867
H90 H 0.1803 0.5867 0.0693
H91 H 0.0867 0.5693 0.1803
H92 H 0.0693 0.6803 0.0867
C149 C 0.37708(7) 0.93802(7) 0.15179(6)
C150 C 0.43802(7) 0.84821(6) 0.12292(7)
C157 C 0.15179(6) 0.62292(7) 0.06198(7)
C158 C 0.12292(7) 0.56198(7) 0.15179(6)
C159 C 0.06198(7) 0.65179(6) 0.12292(7)
C160 C 0.35101(7) 0.95693(7) 0.14908(8)
C161 C 0.45693(7) 0.85092(8) 0.14899(7)
C168 C 0.14908(8) 0.64899(7) 0.04307(7)
C169 C 0.14899(7) 0.54307(7) 0.14908(8)
C170 C 0.04307(7) 0.64908(8) 0.14899(7)
H93 H 0.3369 0.9538 0.1328
H94 H 0.4538 0.8672 0.1631
H101 H 0.1328 0.6631 0.0462
H102 H 0.1631 0.5462 0.1328
H103 H 0.0462 0.6328 0.1631
C171 C 0.34598(8) 0.98002(9) 0.17015(9)
C172 C 0.48002(9) 0.82985(9) 0.15402(8)
C179 C 0.17015(9) 0.65402(8) 0.01998(9)
C180 C 0.15402(8) 0.51998(9) 0.17015(9)
C181 C 0.01998(9) 0.67015(9) 0.15402(8)
H104 H 0.3285 0.9927 0.1675
H105 H 0.4927 0.8325 0.1715
H112 H 0.1675 0.6715 0.0073
H113 H 0.1715 0.5073 0.1675
H114 H 0.0073 0.6675 0.1715
C182 C 0.38391(6) 0.91223(6) 0.12986(6)
C183 C 0.41223(6) 0.87014(6) 0.11609(6)
C190 C 0.12986(6) 0.61609(6) 0.08777(6)
C191 C 0.11609(6) 0.58777(6) 0.12986(6)
C192 C 0.08777(6) 0.62986(6) 0.11609(6)
N10 N 0.56142(5) 0.74468(6) 0.14815(5)
N11 N 0.74468(6) 0.64815(5) 0.06142(5)
N12 N 0.64815(5) 0.56142(5) 0.24468(6)
N16 N 0.35185(5) 0.75532(6) 0.06142(5)
N17 N 0.14815(5) 0.74468(6) 0.06142(5)
N23 N 0.65785(5) 0.67962(5) 0.13432(5)
N24 N 0.67962(5) 0.63432(5) 0.15785(5)
N25 N 0.63432(5) 0.65785(5) 0.17962(5)
N29 N 0.36433(6) 0.98558(6) 0.19418(6)
N30 N 0.48558(6) 0.80582(6) 0.13567(6)
N37 N 0.19418(6) 0.63567(6) 0.01442(6)
N38 N 0.13567(6) 0.51442(6) 0.19418(6)
N39 N 0.01442(6) 0.69418(6) 0.13567(6)
N45 N 0.63567(6) 0.48558(6) 0.30582(6)
N46 N 0.40792(6) 0.89383(6) 0.13642(5)
N47 N 0.39383(6) 0.86358(5) 0.09208(6)
N54 N 0.13642(5) 0.59208(6) 0.10617(6)
N55 N 0.09208(6) 0.60617(6) 0.13642(5)
N56 N 0.10617(6) 0.63642(5) 0.09208(6)
Ni5 Ni 0.523224(9) 0.774780(9) 0.142654(9)
Ni7 Ni 0.357346(9) 0.725220(9) 0.023224(9)
Ni8 Ni 0.142654(9) 0.774780(9) 0.023224(9)
Ni11 Ni 0.774780(9) 0.642654(9) 0.023224(9)
Ni12 Ni 0.642654(9) 0.523224(9) 0.274780(9)
Ni25 Ni 0.142654(9) 0.476776(9) 0.225220(9)
O7 O 0.31512(4) 0.73701(4) 0.00297(4)
O8 O 0.18488(4) 0.76299(4) 0.00297(4)
O18 O 0.50297(4) 0.76299(4) 0.18488(4)
O21 O 0.76299(4) 0.68488(4) 0.00297(4)
O22 O 0.68488(4) 0.50297(4) 0.26299(4)
O23 O 0.27699(5) 0.67239(4) 0.02739(5)
O37 O 0.50036(7) 0.74040(6) 0.11835(5)
O39 O 0.38165(5) 0.75960(6) 0.00036(7)
O40 O 0.11835(5) 0.74040(6) 0.00036(7)
O43 O 0.74040(6) 0.61835(5) 0.00036(7)
O44 O 0.61835(5) 0.50036(7) 0.24040(6)
O48 O 0.54096(7) 0.79005(7) 0.09980(6)
O50 O 0.40020(6) 0.70995(7) 0.04096(7)
O51 O 0.09980(6) 0.79005(7) 0.04096(7)
O54 O 0.79005(7) 0.59980(6) 0.04096(7)
O55 O 0.59980(6) 0.54096(7) 0.29005(7)
O59 O 0.54881(5) 0.80827(5) 0.16670(5)
O61 O 0.33330(5) 0.69173(5) 0.04881(5)
O62 O 0.16670(5) 0.80827(5) 0.04881(5)
O65 O 0.80827(5) 0.66670(5) 0.04881(5)
O66 O 0.66670(5) 0.54881(5) 0.30827(5)
H115 H 0.221716 0.868096 0.00217143
H116 H 0.248124 0.888168 0.0205462
H141 H 0.400465 0.765303 0.0127161
H157 H 0.278284 0.631904 0.00217143
H158 H 0.251876 0.611832 0.0205462
H171 H 0.368096 0.997829 0.278284
H172 H 0.388168 0.979454 0.251876
H175 H 0.0995346 0.734697 0.0127161
C6 C 0.22745(9) 0.82633(8) 0.93543(8)
H3 H 0.2298 0.8101 0.9498
C7 C 0.20555(8) 0.82305(8) 0.91079(8)
H4 H 0.1932 0.8052 0.9097
C8 C 0.20247(6) 0.84514(6) 0.88924(6)
C9 C 0.22148(8) 0.87130(7) 0.89219(8)
H5 H 0.2211 0.8868 0.8770
C10 C 0.24066(9) 0.87419(8) 0.91745(8)
H6 H 0.2515 0.8928 0.9200
C11 C 0.17921(6) 0.84372(6) 0.86394(6)
N1 N 0.24468(6) 0.85185(5) 0.93858(5)
N2 N 0.17962(5) 0.86568(5) 0.84215(5)
Ni1 Ni 0.274780(9) 0.857346(9) 0.976776(9)
O1 O 0.26299(4) 0.81512(4) 0.99703(4)
O3 O 0.24040(6) 0.88165(5) 0.99964(7)
O4 O 0.29005(7) 0.90020(6) 0.95904(7)
O5 O 0.30827(5) 0.83330(5) 0.95119(5)
C19 C 0.30884(6) 0.75622(6) 0.98159(6)
C20 C 0.19116(6) 0.74378(6) 0.98159(6)
C23 C 0.24378(6) 0.98159(6) 0.69116(6)
C24 C 0.25622(6) 0.98159(6) 0.80884(6)
C27 C 0.01841(6) 0.69116(6) 0.75622(6)
C28 C 0.01841(6) 0.80884(6) 0.74378(6)
C30 C 0.27793(6) 0.75368(6) 0.96594(6)
C31 C 0.22207(6) 0.74632(6) 0.96594(6)
C34 C 0.24632(6) 0.96594(6) 0.72207(6)
C35 C 0.25368(6) 0.96594(6) 0.77793(6)
C38 C 0.03406(6) 0.72207(6) 0.75368(6)
C39 C 0.03406(6) 0.77793(6) 0.74632(6)
C40 C 0.2500 0.7500 0.98249(7)
C42 C 0.2500 0.98249(7) 0.7500
C44 C 0.01751(7) 0.7500 0.7500
C46 C 0.27733(7) 0.75406(7) 0.93307(6)
C47 C 0.22267(7) 0.74594(7) 0.93307(6)
C50 C 0.24594(7) 0.93307(6) 0.72267(7)
C51 C 0.25406(7) 0.93307(6) 0.77733(7)
C54 C 0.06693(6) 0.72267(7) 0.75406(7)
C55 C 0.06693(6) 0.77733(7) 0.74594(7)
H12 H 0.2958 0.7571 0.9219
H13 H 0.2042 0.7429 0.9219
H16 H 0.2429 0.9219 0.7042
H17 H 0.2571 0.9219 0.7958
H20 H 0.0781 0.7042 0.7571
H21 H 0.0781 0.7958 0.7429
C56 C 0.2500 0.7500 0.91752(9)
C58 C 0.2500 0.91752(9) 0.7500
C60 C 0.08248(9) 0.7500 0.7500
H22 H 0.2500 0.7500 0.8958
H24 H 0.2500 0.8958 0.7500
H26 H 0.1042 0.7500 0.7500
C61 C 0.17367(8) 0.93543(8) 0.77255(9)
C62 C 0.06457(8) 0.77255(9) 0.82633(8)
C69 C 0.27255(9) 0.67367(8) 0.93543(8)
C70 C 0.32633(8) 0.56457(8) 0.77255(9)
C71 C 0.43543(8) 0.72745(9) 0.82633(8)
H27 H 0.1899 0.9498 0.7702
H28 H 0.0502 0.7702 0.8101
H35 H 0.2702 0.6899 0.9498
H36 H 0.3101 0.5502 0.7702
H37 H 0.4498 0.7298 0.8101
C72 C 0.17695(8) 0.91079(8) 0.79445(8)
C73 C 0.08921(8) 0.79445(8) 0.82305(8)
C80 C 0.29445(8) 0.67695(8) 0.91079(8)
C81 C 0.32305(8) 0.58921(8) 0.79445(8)
C82 C 0.41079(8) 0.70555(8) 0.82305(8)
H38 H 0.1948 0.9097 0.8068
H39 H 0.0903 0.8068 0.8052
H46 H 0.3068 0.6948 0.9097
H47 H 0.3052 0.5903 0.8068
H48 H 0.4097 0.6932 0.8052
C83 C 0.15486(6) 0.88924(6) 0.79753(6)
C84 C 0.11076(6) 0.79753(6) 0.84514(6)
C91 C 0.29753(6) 0.65486(6) 0.88924(6)
C92 C 0.34514(6) 0.61076(6) 0.79753(6)
C93 C 0.38924(6) 0.70247(6) 0.84514(6)
C94 C 0.12870(7) 0.89219(8) 0.77852(8)
C95 C 0.10781(8) 0.77852(8) 0.87130(7)
C102 C 0.27852(8) 0.62870(7) 0.89219(8)
C103 C 0.37130(7) 0.60781(8) 0.77852(8)
C104 C 0.39219(8) 0.72148(8) 0.87130(7)
H49 H 0.1132 0.8770 0.7789
H50 H 0.1230 0.7789 0.8868
H57 H 0.2789 0.6132 0.8770
H58 H 0.3868 0.6230 0.7789
H59 H 0.3770 0.7211 0.8868
C105 C 0.12581(8) 0.91745(8) 0.75934(9)
C106 C 0.08255(8) 0.75934(9) 0.87419(8)
C113 C 0.25934(9) 0.62581(8) 0.91745(8)
C114 C 0.37419(8) 0.58255(8) 0.75934(9)
C115 C 0.41745(8) 0.74066(9) 0.87419(8)
H60 H 0.1072 0.9200 0.7485
H61 H 0.0800 0.7485 0.8928
H68 H 0.2485 0.6072 0.9200
H69 H 0.3928 0.5800 0.7485
H70 H 0.4200 0.7515 0.8928
C116 C 0.15628(6) 0.86394(6) 0.82079(6)
C117 C 0.13606(6) 0.82079(6) 0.84372(6)
C124 C 0.32079(6) 0.65628(6) 0.86394(6)
C125 C 0.34372(6) 0.63606(6) 0.82079(6)
C126 C 0.36394(6) 0.67921(6) 0.84372(6)
N5 N 0.14815(5) 0.93858(5) 0.75532(6)
N6 N 0.06142(5) 0.75532(6) 0.85185(5)
N13 N 0.25532(6) 0.64815(5) 0.93858(5)
N14 N 0.35185(5) 0.56142(5) 0.75532(6)
N15 N 0.43858(5) 0.74468(6) 0.85185(5)
N18 N 0.13432(5) 0.84215(5) 0.82038(5)
N19 N 0.15785(5) 0.82038(5) 0.86568(5)
N26 N 0.32038(5) 0.63432(5) 0.84215(5)
N27 N 0.36568(5) 0.65785(5) 0.82038(5)
N28 N 0.34215(5) 0.67962(5) 0.86568(5)
N40 N 0.36433(6) 0.69418(6) 0.98558(6)
N41 N 0.13567(6) 0.80582(6) 0.98558(6)
N44 N 0.80582(6) 0.63567(6) 0.98558(6)
Ni2 Ni 0.142654(9) 0.976776(9) 0.725220(9)
Ni3 Ni 0.023224(9) 0.725220(9) 0.857346(9)
Ni6 Ni 0.225220(9) 0.642654(9) 0.976776(9)
Ni15 Ni 0.357346(9) 0.976776(9) 0.774780(9)
Ni20 Ni 0.023224(9) 0.774780(9) 0.642654(9)
Ni23 Ni 0.357346(9) 0.523224(9) 0.725220(9)
Ni24 Ni 0.476776(9) 0.774780(9) 0.857346(9)
O6 O 0.23701(4) 0.68488(4) 0.99703(4)
O9 O 0.18488(4) 0.99703(4) 0.73701(4)
O10 O 0.31512(4) 0.99703(4) 0.76299(4)
O13 O 0.00297(4) 0.73701(4) 0.81512(4)
O14 O 0.00297(4) 0.76299(4) 0.68488(4)
O24 O 0.32761(4) 0.77699(5) 0.97261(5)
O25 O 0.17239(4) 0.72301(5) 0.97261(5)
O28 O 0.22301(5) 0.97261(5) 0.67239(4)
O29 O 0.27699(5) 0.97261(5) 0.82761(4)
O32 O 0.02739(5) 0.67239(4) 0.77699(5)
O33 O 0.02739(5) 0.82761(4) 0.72301(5)
O34 O 0.11835(5) 0.99964(7) 0.75960(6)
O35 O 0.00036(7) 0.75960(6) 0.88165(5)
O38 O 0.25960(6) 0.61835(5) 0.99964(7)
O45 O 0.09980(6) 0.95904(7) 0.70995(7)
O46 O 0.04096(7) 0.70995(7) 0.90020(6)
O49 O 0.20995(7) 0.59980(6) 0.95904(7)
O56 O 0.16670(5) 0.95119(5) 0.69173(5)
O57 O 0.04881(5) 0.69173(5) 0.83330(5)
O60 O 0.19173(5) 0.66670(5) 0.95119(5)
H142 H 0.388168 0.751876 0.979454
H176 H 0.111832 0.748124 0.979454
H177 H 0.721716 0.631904 0.997829
H178 H 0.748124 0.611832 0.979454
Ni13 Ni 0.976776(9) 0.225220(9) 0.642654(9)
Ni26 Ni 0.976776(9) 0.725220(9) 0.142654(9)
C25 C 0.98159(6) 0.75622(6) 0.80884(6)
C26 C 0.98159(6) 0.74378(6) 0.69116(6)
C36 C 0.96594(6) 0.75368(6) 0.77793(6)
C37 C 0.96594(6) 0.74632(6) 0.72207(6)
C43 C 0.98249(7) 0.7500 0.7500
C52 C 0.93307(6) 0.75406(7) 0.77733(7)
C53 C 0.93307(6) 0.74594(7) 0.72267(7)
H18 H 0.9219 0.7571 0.7958
H19 H 0.9219 0.7429 0.7042
C59 C 0.91752(9) 0.7500 0.7500
H25 H 0.8958 0.7500 0.7500
C132 C 0.96800(9) 0.69745(9) 0.88952(9)
C133 C 0.80255(9) 0.61048(9) 0.96800(9)
C134 C 0.88952(9) 0.53200(9) 0.80255(9)
H76 H 0.9721 0.7138 0.9033
H77 H 0.7862 0.5967 0.9721
H78 H 0.9033 0.5279 0.7862
C143 C 0.94342(8) 0.67685(8) 0.89601(8)
C144 C 0.82315(8) 0.60399(8) 0.94342(8)
C145 C 0.89601(8) 0.55658(8) 0.82315(8)
H87 H 0.9307 0.6803 0.9133
H88 H 0.8197 0.5867 0.9307
H89 H 0.9133 0.5693 0.8197
C154 C 0.93802(7) 0.65179(6) 0.87708(7)
C155 C 0.84821(6) 0.62292(7) 0.93802(7)
C156 C 0.87708(7) 0.56198(7) 0.84821(6)
C165 C 0.95693(7) 0.64908(8) 0.85101(7)
C166 C 0.85092(8) 0.64899(7) 0.95693(7)
C167 C 0.85101(7) 0.54307(7) 0.85092(8)
H98 H 0.9538 0.6328 0.8369
H99 H 0.8672 0.6631 0.9538
H100 H 0.8369 0.5462 0.8672
C176 C 0.98002(9) 0.67015(9) 0.84598(8)
C177 C 0.82985(9) 0.65402(8) 0.98002(9)
C178 C 0.84598(8) 0.51998(9) 0.82985(9)
H109 H 0.9927 0.6675 0.8285
H110 H 0.8325 0.6715 0.9927
H111 H 0.8285 0.5073 0.8325
C187 C 0.91223(6) 0.62986(6) 0.88391(6)
C188 C 0.87014(6) 0.61609(6) 0.91223(6)
C189 C 0.88391(6) 0.58777(6) 0.87014(6)
N34 N 0.98558(6) 0.69418(6) 0.86433(6)
N36 N 0.86433(6) 0.51442(6) 0.80582(6)
N51 N 0.89383(6) 0.63642(5) 0.90792(6)
N52 N 0.86358(5) 0.59208(6) 0.89383(6)
N53 N 0.90792(6) 0.60617(6) 0.86358(5)
Ni19 Ni 0.857346(9) 0.476776(9) 0.774780(9)
Ni21 Ni 0.976776(9) 0.642654(9) 0.725220(9)
Ni22 Ni 0.976776(9) 0.857346(9) 0.774780(9)
O15 O 0.99703(4) 0.68488(4) 0.73701(4)
O16 O 0.99703(4) 0.81512(4) 0.76299(4)
O30 O 0.97261(5) 0.77699(5) 0.82761(4)
O31 O 0.97261(5) 0.72301(5) 0.67239(4)
H165 H 0.997829 0.778284 0.868096
H166 H 0.979454 0.751876 0.888168
C63_2 C 0.06457(8) 0.67367(8) 0.22745(9)
C64_2 C 0.22745(9) 0.56457(8) 0.17367(8)
C65_2 C 0.17367(8) 0.72745(9) 0.06457(8)
H29_2 H 0.0502 0.6899 0.2298
H30_2 H 0.2298 0.5502 0.1899
H31_2 H 0.1899 0.7298 0.0502
C74_2 C 0.08921(8) 0.67695(8) 0.20555(8)
C75_2 C 0.20555(8) 0.58921(8) 0.17695(8)
C76_2 C 0.17695(8) 0.70555(8) 0.08921(8)
H40_2 H 0.0903 0.6948 0.1932
H41_2 H 0.1932 0.5903 0.1948
H42_2 H 0.1948 0.6932 0.0903
C85_2 C 0.11076(6) 0.65486(6) 0.20247(6)
C86_2 C 0.20247(6) 0.61076(6) 0.15486(6)
C87_2 C 0.15486(6) 0.70247(6) 0.11076(6)
C96_2 C 0.10781(8) 0.62870(7) 0.22148(8)
C97_2 C 0.22148(8) 0.60781(8) 0.12870(7)
C98_2 C 0.12870(7) 0.72148(8) 0.10781(8)
H51_2 H 0.1230 0.6132 0.2211
H52_2 H 0.2211 0.6230 0.1132
H53_2 H 0.1132 0.7211 0.1230
C107_2 C 0.08255(8) 0.62581(8) 0.24066(9)
C108_2 C 0.24066(9) 0.58255(8) 0.12581(8)
C109_2 C 0.12581(8) 0.74066(9) 0.08255(8)
H62_2 H 0.0800 0.6072 0.2515
H63_2 H 0.2515 0.5800 0.1072
H64_2 H 0.1072 0.7515 0.0800
C118_2 C 0.13606(6) 0.65628(6) 0.17921(6)
C119_2 C 0.17921(6) 0.63606(6) 0.15628(6)
C120_2 C 0.15628(6) 0.67921(6) 0.13606(6)
C129_2 C 0.03200(9) 0.88952(9) 0.80255(9)
C130_2 C 0.19745(9) 0.96800(9) 0.88952(9)
C131_2 C 0.11048(9) 0.80255(9) 0.96800(9)
H73_2 H 0.0279 0.9033 0.7862
H74_2 H 0.2138 0.9721 0.9033
H75_2 H 0.0967 0.7862 0.9721
C140_2 C 0.05658(8) 0.89601(8) 0.82315(8)
C141_2 C 0.17685(8) 0.94342(8) 0.89601(8)
C142_2 C 0.10399(8) 0.82315(8) 0.94342(8)
H84_2 H 0.0693 0.9133 0.8197
H85_2 H 0.1803 0.9307 0.9133
H86_2 H 0.0867 0.8197 0.9307
C151_2 C 0.06198(7) 0.87708(7) 0.84821(6)
C152_2 C 0.15179(6) 0.93802(7) 0.87708(7)
C153_2 C 0.12292(7) 0.84821(6) 0.93802(7)
C162_2 C 0.04307(7) 0.85101(7) 0.85092(8)
C163_2 C 0.14908(8) 0.95693(7) 0.85101(7)
C164_2 C 0.14899(7) 0.85092(8) 0.95693(7)
H95_2 H 0.0462 0.8369 0.8672
H96_2 H 0.1328 0.9538 0.8369
H97_2 H 0.1631 0.8672 0.9538
C173_2 C 0.01998(9) 0.84598(8) 0.82985(9)
C174_2 C 0.17015(9) 0.98002(9) 0.84598(8)
C175_2 C 0.15402(8) 0.82985(9) 0.98002(9)
H106_2 H 0.0073 0.8285 0.8325
H107_2 H 0.1675 0.9927 0.8285
H108_2 H 0.1715 0.8325 0.9927
C184_2 C 0.08777(6) 0.88391(6) 0.87014(6)
C185_2 C 0.12986(6) 0.91223(6) 0.88391(6)
C186_2 C 0.11609(6) 0.87014(6) 0.91223(6)
N7_2 N 0.06142(5) 0.64815(5) 0.24468(6)
N8_2 N 0.24468(6) 0.56142(5) 0.14815(5)
N20_2 N 0.15785(5) 0.63432(5) 0.17962(5)
N21_2 N 0.17962(5) 0.65785(5) 0.13432(5)
N22_2 N 0.13432(5) 0.67962(5) 0.15785(5)
N31_2 N 0.01442(6) 0.86433(6) 0.80582(6)
N32_2 N 0.19418(6) 0.98558(6) 0.86433(6)
N42_2 N 0.30582(6) 0.48558(6) 0.13567(6)
N48_2 N 0.10617(6) 0.90792(6) 0.86358(5)
N49_2 N 0.13642(5) 0.89383(6) 0.90792(6)
N50_2 N 0.09208(6) 0.86358(5) 0.89383(6)
Ni4_2 Ni 0.023224(9) 0.642654(9) 0.274780(9)
Ni9_2 Ni 0.274780(9) 0.523224(9) 0.142654(9)
O17_2 O 0.00297(4) 0.68488(4) 0.26299(4)
O19_2 O 0.26299(4) 0.50297(4) 0.18488(4)
O36_2 O 0.00036(7) 0.61835(5) 0.24040(6)
O41_2 O 0.24040(6) 0.50036(7) 0.11835(5)
O47_2 O 0.04096(7) 0.59980(6) 0.29005(7)
O52_2 O 0.29005(7) 0.54096(7) 0.09980(6)
O58_2 O 0.04881(5) 0.66670(5) 0.30827(5)
O63_2 O 0.30827(5) 0.54881(5) 0.16670(5)
H173_2 H 0.00217143 0.868096 0.721716
H174_2 H 0.0205462 0.888168 0.748124
H127 H 0.131904 0.721716 0.997829
C25_2 C 0.75622(6) 0.01841(6) 0.69116(6)
C26_2 C 0.74378(6) 0.01841(6) 0.80884(6)
C36_2 C 0.75368(6) 0.03406(6) 0.72207(6)
C37_2 C 0.74632(6) 0.03406(6) 0.77793(6)
C43_2 C 0.7500 0.01751(7) 0.7500
C52_2 C 0.75406(7) 0.06693(6) 0.72267(7)
C53_2 C 0.74594(7) 0.06693(6) 0.77733(7)
H18_2 H 0.7571 0.0781 0.7042
H19_2 H 0.7429 0.0781 0.7958
C59_2 C 0.7500 0.08248(9) 0.7500
H25_2 H 0.7500 0.1042 0.7500
C132_2 C 0.69745(9) 0.03200(9) 0.61048(9)
C133_2 C 0.61048(9) 0.19745(9) 0.53200(9)
C134_2 C 0.53200(9) 0.11048(9) 0.69745(9)
H76_2 H 0.7138 0.0279 0.5967
H77_2 H 0.5967 0.2138 0.5279
H78_2 H 0.5279 0.0967 0.7138
C143_2 C 0.67685(8) 0.05658(8) 0.60399(8)
C144_2 C 0.60399(8) 0.17685(8) 0.55658(8)
C145_2 C 0.55658(8) 0.10399(8) 0.67685(8)
H87_2 H 0.6803 0.0693 0.5867
H88_2 H 0.5867 0.1803 0.5693
H89_2 H 0.5693 0.0867 0.6803
C154_2 C 0.65179(6) 0.06198(7) 0.62292(7)
C155_2 C 0.62292(7) 0.15179(6) 0.56198(7)
C156_2 C 0.56198(7) 0.12292(7) 0.65179(6)
C165_2 C 0.64908(8) 0.04307(7) 0.64899(7)
C166_2 C 0.64899(7) 0.14908(8) 0.54307(7)
C167_2 C 0.54307(7) 0.14899(7) 0.64908(8)
H98_2 H 0.6328 0.0462 0.6631
H99_2 H 0.6631 0.1328 0.5462
H100_2 H 0.5462 0.1631 0.6328
C176_2 C 0.67015(9) 0.01998(9) 0.65402(8)
C177_2 C 0.65402(8) 0.17015(9) 0.51998(9)
C178_2 C 0.51998(9) 0.15402(8) 0.67015(9)
H109_2 H 0.6675 0.0073 0.6715
H110_2 H 0.6715 0.1675 0.5073
H111_2 H 0.5073 0.1715 0.6675
C187_2 C 0.62986(6) 0.08777(6) 0.61609(6)
C188_2 C 0.61609(6) 0.12986(6) 0.58777(6)
C189_2 C 0.58777(6) 0.11609(6) 0.62986(6)
N34_2 N 0.69418(6) 0.01442(6) 0.63567(6)
N35 N 0.63567(6) 0.19418(6) 0.51442(6)
N36_2 N 0.51442(6) 0.13567(6) 0.69418(6)
N51_2 N 0.63642(5) 0.10617(6) 0.59208(6)
N52_2 N 0.59208(6) 0.13642(5) 0.60617(6)
N53_2 N 0.60617(6) 0.09208(6) 0.63642(5)
Ni18 Ni 0.642654(9) 0.225220(9) 0.476776(9)
Ni19_2 Ni 0.476776(9) 0.142654(9) 0.725220(9)
Ni21_2 Ni 0.642654(9) 0.023224(9) 0.774780(9)
Ni22_2 Ni 0.857346(9) 0.023224(9) 0.725220(9)
Ni26_2 Ni 0.725220(9) 0.023224(9) 0.357346(9)
O15_2 O 0.68488(4) 0.00297(4) 0.76299(4)
O16_2 O 0.81512(4) 0.00297(4) 0.73701(4)
O30_2 O 0.77699(5) 0.02739(5) 0.67239(4)
O31_2 O 0.72301(5) 0.02739(5) 0.82761(4)
H165_2 H 0.778284 0.00217143 0.631904
H166_2 H 0.751876 0.0205462 0.611832
C1_2 C 0.80884(6) 0.75622(6) 0.48159(6)
C2_2 C 0.77793(6) 0.75368(6) 0.46594(6)
C3_2 C 0.7500 0.7500 0.48249(7)
C4_2 C 0.77733(7) 0.75406(7) 0.43307(6)
H1_2 H 0.7958 0.7571 0.4219
C5_2 C 0.7500 0.7500 0.41752(9)
H2_2 H 0.7500 0.7500 0.3958
C6_2 C 0.82633(8) 0.77255(9) 0.56457(8)
H3_2 H 0.8101 0.7702 0.5502
C7_2 C 0.82305(8) 0.79445(8) 0.58921(8)
H4_2 H 0.8052 0.8068 0.5903
C8_2 C 0.84514(6) 0.79753(6) 0.61076(6)
C9_2 C 0.87130(7) 0.77852(8) 0.60781(8)
H5_2 H 0.8868 0.7789 0.6230
C10_2 C 0.87419(8) 0.75934(9) 0.58255(8)
H6_2 H 0.8928 0.7485 0.5800
C11_2 C 0.84372(6) 0.82079(6) 0.63606(6)
C12_2 C 0.88952(9) 0.69745(9) 0.46800(9)
H7_2 H 0.9033 0.7138 0.4721
C13_2 C 0.89601(8) 0.67685(8) 0.44342(8)
H8_2 H 0.9133 0.6803 0.4307
C14_2 C 0.87708(7) 0.65179(6) 0.43802(7)
C15_2 C 0.85101(7) 0.64908(8) 0.45693(7)
H9_2 H 0.8369 0.6328 0.4538
C16_2 C 0.84598(8) 0.67015(9) 0.48002(9)
H10_2 H 0.8285 0.6675 0.4927
C17_2 C 0.88391(6) 0.62986(6) 0.41223(6)
N1_2 N 0.85185(5) 0.75532(6) 0.56142(5)
N2_2 N 0.86568(5) 0.82038(5) 0.65785(5)
N3_2 N 0.86433(6) 0.69418(6) 0.48558(6)
N4_2 N 0.90792(6) 0.63642(5) 0.39383(6)
Ni1_2 Ni 0.857346(9) 0.725220(9) 0.523224(9)
O1_2 O 0.81512(4) 0.73701(4) 0.50297(4)
O2_2 O 0.82761(4) 0.77699(5) 0.47261(5)
O3_2 O 0.88165(5) 0.75960(6) 0.50036(7)
O4_2 O 0.90020(6) 0.70995(7) 0.54096(7)
O5_2 O 0.83330(5) 0.69173(5) 0.54881(5)
C18_2 C 0.69116(6) 0.74378(6) 0.48159(6)
C19_2 C 0.75622(6) 0.69116(6) 0.51841(6)
C20_2 C 0.74378(6) 0.80884(6) 0.51841(6)
C27_2 C 0.69116(6) 0.98159(6) 0.74378(6)
C28_2 C 0.80884(6) 0.98159(6) 0.75622(6)
C29_2 C 0.72207(6) 0.74632(6) 0.46594(6)
C30_2 C 0.75368(6) 0.72207(6) 0.53406(6)
C31_2 C 0.74632(6) 0.77793(6) 0.53406(6)
C38_2 C 0.72207(6) 0.96594(6) 0.74632(6)
C39_2 C 0.77793(6) 0.96594(6) 0.75368(6)
C40_2 C 0.7500 0.7500 0.51751(7)
C44_2 C 0.7500 0.98249(7) 0.7500
C45_2 C 0.72267(7) 0.74594(7) 0.43307(6)
C46_2 C 0.75406(7) 0.72267(7) 0.56693(6)
C47_2 C 0.74594(7) 0.77733(7) 0.56693(6)
C54_2 C 0.72267(7) 0.93307(6) 0.74594(7)
C55_2 C 0.77733(7) 0.93307(6) 0.75406(7)
H11_2 H 0.7042 0.7429 0.4219
H12_2 H 0.7571 0.7042 0.5781
H13_2 H 0.7429 0.7958 0.5781
H20_2 H 0.7042 0.9219 0.7429
H21_2 H 0.7958 0.9219 0.7571
C56_2 C 0.7500 0.7500 0.58248(9)
C60_2 C 0.7500 0.91752(9) 0.7500
H22_2 H 0.7500 0.7500 0.6042
H26_2 H 0.7500 0.8958 0.7500
C61_2 C 0.93543(8) 0.82633(8) 0.72745(9)
C62_2 C 0.77255(9) 0.93543(8) 0.67367(8)
C66_2 C 0.72745(9) 0.43543(8) 0.32633(8)
C67_2 C 0.67367(8) 0.27255(9) 0.43543(8)
C68_2 C 0.56457(8) 0.32633(8) 0.27255(9)
C69_2 C 0.67367(8) 0.72745(9) 0.56457(8)
C70_2 C 0.56457(8) 0.67367(8) 0.72745(9)
C71_2 C 0.72745(9) 0.56457(8) 0.67367(8)
H27_2 H 0.9498 0.8101 0.7298
H28_2 H 0.7702 0.9498 0.6899
H32_2 H 0.7298 0.4498 0.3101
H33_2 H 0.6899 0.2702 0.4498
H34_2 H 0.5502 0.3101 0.2702
H35_2 H 0.6899 0.7298 0.5502
H36_2 H 0.5502 0.6899 0.7298
H37_2 H 0.7298 0.5502 0.6899
C72_2 C 0.91079(8) 0.82305(8) 0.70555(8)
C73_2 C 0.79445(8) 0.91079(8) 0.67695(8)
C77_2 C 0.70555(8) 0.41079(8) 0.32305(8)
C78_2 C 0.67695(8) 0.29445(8) 0.41079(8)
C79_2 C 0.58921(8) 0.32305(8) 0.29445(8)
C80_2 C 0.67695(8) 0.70555(8) 0.58921(8)
C81_2 C 0.58921(8) 0.67695(8) 0.70555(8)
C82_2 C 0.70555(8) 0.58921(8) 0.67695(8)
H38_2 H 0.9097 0.8052 0.6932
H39_2 H 0.8068 0.9097 0.6948
H43_2 H 0.6932 0.4097 0.3052
H44_2 H 0.6948 0.3068 0.4097
H45_2 H 0.5903 0.3052 0.3068
H46_2 H 0.6948 0.6932 0.5903
H47_2 H 0.5903 0.6948 0.6932
H48_2 H 0.6932 0.5903 0.6948
C83_2 C 0.88924(6) 0.84514(6) 0.70247(6)
C84_2 C 0.79753(6) 0.88924(6) 0.65486(6)
C88_2 C 0.70247(6) 0.38924(6) 0.34514(6)
C89_2 C 0.65486(6) 0.29753(6) 0.38924(6)
C90_2 C 0.61076(6) 0.34514(6) 0.29753(6)
C91_2 C 0.65486(6) 0.70247(6) 0.61076(6)
C92_2 C 0.61076(6) 0.65486(6) 0.70247(6)
C93_2 C 0.70247(6) 0.61076(6) 0.65486(6)
C94_2 C 0.89219(8) 0.87130(7) 0.72148(8)
C95_2 C 0.77852(8) 0.89219(8) 0.62870(7)
C99_2 C 0.72148(8) 0.39219(8) 0.37130(7)
C100_2 C 0.62870(7) 0.27852(8) 0.39219(8)
C101_2 C 0.60781(8) 0.37130(7) 0.27852(8)
C102_2 C 0.62870(7) 0.72148(8) 0.60781(8)
C103_2 C 0.60781(8) 0.62870(7) 0.72148(8)
C104_2 C 0.72148(8) 0.60781(8) 0.62870(7)
H49_2 H 0.8770 0.8868 0.7211
H50_2 H 0.7789 0.8770 0.6132
H54_2 H 0.7211 0.3770 0.3868
H55_2 H 0.6132 0.2789 0.3770
H56_2 H 0.6230 0.3868 0.2789
H57_2 H 0.6132 0.7211 0.6230
H58_2 H 0.6230 0.6132 0.7211
H59_2 H 0.7211 0.6230 0.6132
C105_2 C 0.91745(8) 0.87419(8) 0.74066(9)
C106_2 C 0.75934(9) 0.91745(8) 0.62581(8)
C110_2 C 0.74066(9) 0.41745(8) 0.37419(8)
C111_2 C 0.62581(8) 0.25934(9) 0.41745(8)
C112_2 C 0.58255(8) 0.37419(8) 0.25934(9)
C113_2 C 0.62581(8) 0.74066(9) 0.58255(8)
C114_2 C 0.58255(8) 0.62581(8) 0.74066(9)
C115_2 C 0.74066(9) 0.58255(8) 0.62581(8)
H60_2 H 0.9200 0.8928 0.7515
H61_2 H 0.7485 0.9200 0.6072
H65_2 H 0.7515 0.4200 0.3928
H66_2 H 0.6072 0.2485 0.4200
H67_2 H 0.5800 0.3928 0.2485
H68_2 H 0.6072 0.7515 0.5800
H69_2 H 0.5800 0.6072 0.7515
H70_2 H 0.7515 0.5800 0.6072
C116_2 C 0.86394(6) 0.84372(6) 0.67921(6)
C117_2 C 0.82079(6) 0.86394(6) 0.65628(6)
C121_2 C 0.67921(6) 0.36394(6) 0.34372(6)
C122_2 C 0.65628(6) 0.32079(6) 0.36394(6)
C123_2 C 0.63606(6) 0.34372(6) 0.32079(6)
C124_2 C 0.65628(6) 0.67921(6) 0.63606(6)
C125_2 C 0.63606(6) 0.65628(6) 0.67921(6)
C126_2 C 0.67921(6) 0.63606(6) 0.65628(6)
C127_2 C 0.96800(9) 0.61048(9) 0.30255(9)
C128_2 C 0.80255(9) 0.53200(9) 0.38952(9)
C135_2 C 0.61048(9) 0.80255(9) 0.46800(9)
C136_2 C 0.53200(9) 0.88952(9) 0.30255(9)
C137_2 C 0.69745(9) 0.96800(9) 0.38952(9)
H71_2 H 0.9721 0.5967 0.2862
H72_2 H 0.7862 0.5279 0.4033
H79_2 H 0.5967 0.7862 0.4721
H80_2 H 0.5279 0.9033 0.2862
H81_2 H 0.7138 0.9721 0.4033
C138_2 C 0.94342(8) 0.60399(8) 0.32315(8)
C139_2 C 0.82315(8) 0.55658(8) 0.39601(8)
C146_2 C 0.60399(8) 0.82315(8) 0.44342(8)
C147_2 C 0.55658(8) 0.89601(8) 0.32315(8)
C148_2 C 0.67685(8) 0.94342(8) 0.39601(8)
H82_2 H 0.9307 0.5867 0.3197
H83_2 H 0.8197 0.5693 0.4133
H90_2 H 0.5867 0.8197 0.4307
H91_2 H 0.5693 0.9133 0.3197
H92_2 H 0.6803 0.9307 0.4133
C149_2 C 0.93802(7) 0.62292(7) 0.34821(6)
C150_2 C 0.84821(6) 0.56198(7) 0.37708(7)
C157_2 C 0.62292(7) 0.84821(6) 0.43802(7)
C158_2 C 0.56198(7) 0.87708(7) 0.34821(6)
C159_2 C 0.65179(6) 0.93802(7) 0.37708(7)
C160_2 C 0.95693(7) 0.64899(7) 0.35092(8)
C161_2 C 0.85092(8) 0.54307(7) 0.35101(7)
C168_2 C 0.64899(7) 0.85092(8) 0.45693(7)
C169_2 C 0.54307(7) 0.85101(7) 0.35092(8)
C170_2 C 0.64908(8) 0.95693(7) 0.35101(7)
H93_2 H 0.9538 0.6631 0.3672
H94_2 H 0.8672 0.5462 0.3369
H101_2 H 0.6631 0.8672 0.4538
H102_2 H 0.5462 0.8369 0.3672
H103_2 H 0.6328 0.9538 0.3369
C171_2 C 0.98002(9) 0.65402(8) 0.32985(9)
C172_2 C 0.82985(9) 0.51998(9) 0.34598(8)
C179_2 C 0.65402(8) 0.82985(9) 0.48002(9)
C180_2 C 0.51998(9) 0.84598(8) 0.32985(9)
C181_2 C 0.67015(9) 0.98002(9) 0.34598(8)
H104_2 H 0.9927 0.6715 0.3325
H105_2 H 0.8325 0.5073 0.3285
H112_2 H 0.6715 0.8325 0.4927
H113_2 H 0.5073 0.8285 0.3325
H114_2 H 0.6675 0.9927 0.3285
C182_2 C 0.91223(6) 0.61609(6) 0.37014(6)
C183_2 C 0.87014(6) 0.58777(6) 0.38391(6)
C190_2 C 0.61609(6) 0.87014(6) 0.41223(6)
C191_2 C 0.58777(6) 0.88391(6) 0.37014(6)
C192_2 C 0.62986(6) 0.91223(6) 0.38391(6)
N5_2 N 0.93858(5) 0.85185(5) 0.74468(6)
N6_2 N 0.75532(6) 0.93858(5) 0.64815(5)
N10_2 N 0.74468(6) 0.43858(5) 0.35185(5)
N11_2 N 0.64815(5) 0.25532(6) 0.43858(5)
N12_2 N 0.56142(5) 0.35185(5) 0.25532(6)
N13_2 N 0.64815(5) 0.74468(6) 0.56142(5)
N14_2 N 0.56142(5) 0.64815(5) 0.74468(6)
N15_2 N 0.74468(6) 0.56142(5) 0.64815(5)
N16_2 N 0.75532(6) 0.64815(5) 0.43858(5)
N17_2 N 0.74468(6) 0.85185(5) 0.43858(5)
N18_2 N 0.84215(5) 0.86568(5) 0.67962(5)
N19_2 N 0.82038(5) 0.84215(5) 0.63432(5)
N23_2 N 0.67962(5) 0.34215(5) 0.36568(5)
N24_2 N 0.63432(5) 0.32038(5) 0.34215(5)
N25_2 N 0.65785(5) 0.36568(5) 0.32038(5)
N26_2 N 0.63432(5) 0.67962(5) 0.65785(5)
N27_2 N 0.65785(5) 0.63432(5) 0.67962(5)
N28_2 N 0.67962(5) 0.65785(5) 0.63432(5)
N29_2 N 0.98558(6) 0.63567(6) 0.30582(6)
N30_2 N 0.80582(6) 0.51442(6) 0.36433(6)
N37_2 N 0.63567(6) 0.80582(6) 0.48558(6)
N38_2 N 0.51442(6) 0.86433(6) 0.30582(6)
N39_2 N 0.69418(6) 0.98558(6) 0.36433(6)
N40_2 N 0.69418(6) 0.63567(6) 0.51442(6)
N41_2 N 0.80582(6) 0.86433(6) 0.51442(6)
N45_2 N 0.48558(6) 0.36433(6) 0.19418(6)
N46_2 N 0.89383(6) 0.59208(6) 0.36358(5)
N47_2 N 0.86358(5) 0.60617(6) 0.40792(6)
N54_2 N 0.59208(6) 0.86358(5) 0.39383(6)
N55_2 N 0.60617(6) 0.90792(6) 0.36358(5)
N56_2 N 0.63642(5) 0.89383(6) 0.40792(6)
Ni3_2 Ni 0.725220(9) 0.976776(9) 0.642654(9)
Ni5_2 Ni 0.774780(9) 0.476776(9) 0.357346(9)
Ni6_2 Ni 0.642654(9) 0.774780(9) 0.523224(9)
Ni7_2 Ni 0.725220(9) 0.642654(9) 0.476776(9)
Ni8_2 Ni 0.774780(9) 0.857346(9) 0.476776(9)
Ni12_2 Ni 0.523224(9) 0.357346(9) 0.225220(9)
Ni20_2 Ni 0.774780(9) 0.976776(9) 0.857346(9)
Ni23_2 Ni 0.523224(9) 0.642654(9) 0.774780(9)
Ni24_2 Ni 0.774780(9) 0.523224(9) 0.642654(9)
Ni25_2 Ni 0.476776(9) 0.857346(9) 0.274780(9)
O6_2 O 0.68488(4) 0.76299(4) 0.50297(4)
O7_2 O 0.73701(4) 0.68488(4) 0.49703(4)
O8_2 O 0.76299(4) 0.81512(4) 0.49703(4)
O13_2 O 0.73701(4) 0.99703(4) 0.68488(4)
O14_2 O 0.76299(4) 0.99703(4) 0.81512(4)
O18_2 O 0.76299(4) 0.49703(4) 0.31512(4)
O21_2 O 0.68488(4) 0.23701(4) 0.49703(4)
O22_2 O 0.50297(4) 0.31512(4) 0.23701(4)
O23_2 O 0.67239(4) 0.72301(5) 0.47261(5)
O24_2 O 0.77699(5) 0.67239(4) 0.52739(5)
O25_2 O 0.72301(5) 0.82761(4) 0.52739(5)
O32_2 O 0.67239(4) 0.97261(5) 0.72301(5)
O33_2 O 0.82761(4) 0.97261(5) 0.77699(5)
O34_2 O 0.99964(7) 0.88165(5) 0.74040(6)
O35_2 O 0.75960(6) 0.99964(7) 0.61835(5)
O37_2 O 0.74040(6) 0.49964(7) 0.38165(5)
O38_2 O 0.61835(5) 0.74040(6) 0.50036(7)
O39_2 O 0.75960(6) 0.61835(5) 0.49964(7)
O40_2 O 0.74040(6) 0.88165(5) 0.49964(7)
O43_2 O 0.61835(5) 0.25960(6) 0.49964(7)
O44_2 O 0.50036(7) 0.38165(5) 0.25960(6)
O45_2 O 0.95904(7) 0.90020(6) 0.79005(7)
O46_2 O 0.70995(7) 0.95904(7) 0.59980(6)
O48_2 O 0.79005(7) 0.45904(7) 0.40020(6)
O49_2 O 0.59980(6) 0.79005(7) 0.54096(7)
O50_2 O 0.70995(7) 0.59980(6) 0.45904(7)
O51_2 O 0.79005(7) 0.90020(6) 0.45904(7)
O54_2 O 0.59980(6) 0.20995(7) 0.45904(7)
O55_2 O 0.54096(7) 0.40020(6) 0.20995(7)
O56_2 O 0.95119(5) 0.83330(5) 0.80827(5)
O57_2 O 0.69173(5) 0.95119(5) 0.66670(5)
O59_2 O 0.80827(5) 0.45119(5) 0.33330(5)
O60_2 O 0.66670(5) 0.80827(5) 0.54881(5)
O61_2 O 0.69173(5) 0.66670(5) 0.45119(5)
O62_2 O 0.80827(5) 0.83330(5) 0.45119(5)
O65_2 O 0.66670(5) 0.19173(5) 0.45119(5)
O66_2 O 0.54881(5) 0.33330(5) 0.19173(5)
H171_2 H 0.997829 0.631904 0.221716
H172_2 H 0.979454 0.611832 0.248124
Ni18_2 Ni 0.225220(9) 0.357346(9) 0.023224(9)
Ni26_3 Ni 0.023224(9) 0.274780(9) 0.142654(9)
C25_3 C 0.01841(6) 0.24378(6) 0.80884(6)
C26_3 C 0.01841(6) 0.25622(6) 0.69116(6)
C36_3 C 0.03406(6) 0.24632(6) 0.77793(6)
C37_3 C 0.03406(6) 0.25368(6) 0.72207(6)
C43_3 C 0.01751(7) 0.2500 0.7500
C52_3 C 0.06693(6) 0.24594(7) 0.77733(7)
C53_3 C 0.06693(6) 0.25406(7) 0.72267(7)
H18_3 H 0.0781 0.2429 0.7958
H19_3 H 0.0781 0.2571 0.7042
C59_3 C 0.08248(9) 0.2500 0.7500
H25_3 H 0.1042 0.2500 0.7500
C132_3 C 0.03200(9) 0.30255(9) 0.88952(9)
C133_3 C 0.19745(9) 0.38952(9) 0.96800(9)
C134_3 C 0.11048(9) 0.46800(9) 0.80255(9)
H76_3 H 0.0279 0.2862 0.9033
H77_3 H 0.2138 0.4033 0.9721
H78_3 H 0.0967 0.4721 0.7862
C143_3 C 0.05658(8) 0.32315(8) 0.89601(8)
C144_3 C 0.17685(8) 0.39601(8) 0.94342(8)
C145_3 C 0.10399(8) 0.44342(8) 0.82315(8)
H87_3 H 0.0693 0.3197 0.9133
H88_3 H 0.1803 0.4133 0.9307
H89_3 H 0.0867 0.4307 0.8197
C154_3 C 0.06198(7) 0.34821(6) 0.87708(7)
C155_3 C 0.15179(6) 0.37708(7) 0.93802(7)
C156_3 C 0.12292(7) 0.43802(7) 0.84821(6)
C165_3 C 0.04307(7) 0.35092(8) 0.85101(7)
C166_3 C 0.14908(8) 0.35101(7) 0.95693(7)
C167_3 C 0.14899(7) 0.45693(7) 0.85092(8)
H98_3 H 0.0462 0.3672 0.8369
H99_3 H 0.1328 0.3369 0.9538
H100_3 H 0.1631 0.4538 0.8672
C176_3 C 0.01998(9) 0.32985(9) 0.84598(8)
C177_3 C 0.17015(9) 0.34598(8) 0.98002(9)
C178_3 C 0.15402(8) 0.48002(9) 0.82985(9)
H109_3 H 0.0073 0.3325 0.8285
H110_3 H 0.1675 0.3285 0.9927
H111_3 H 0.1715 0.4927 0.8325
C187_3 C 0.08777(6) 0.37014(6) 0.88391(6)
C188_3 C 0.12986(6) 0.38391(6) 0.91223(6)
C189_3 C 0.11609(6) 0.41223(6) 0.87014(6)
N34_3 N 0.01442(6) 0.30582(6) 0.86433(6)
N35_2 N 0.19418(6) 0.36433(6) 0.98558(6)
N36_3 N 0.13567(6) 0.48558(6) 0.80582(6)
N51_3 N 0.10617(6) 0.36358(5) 0.90792(6)
N52_3 N 0.13642(5) 0.40792(6) 0.89383(6)
N53_3 N 0.09208(6) 0.39383(6) 0.86358(5)
Ni19_3 Ni 0.142654(9) 0.523224(9) 0.774780(9)
Ni21_3 Ni 0.023224(9) 0.357346(9) 0.725220(9)
Ni22_3 Ni 0.023224(9) 0.142654(9) 0.774780(9)
O15_3 O 0.00297(4) 0.31512(4) 0.73701(4)
O16_3 O 0.00297(4) 0.18488(4) 0.76299(4)
O30_3 O 0.02739(5) 0.22301(5) 0.82761(4)
O31_3 O 0.02739(5) 0.27699(5) 0.67239(4)
H165_3 H 0.00217143 0.221716 0.868096
H166_3 H 0.0205462 0.248124 0.888168
C1_3 C 0.75622(6) 0.19116(6) 0.01841(6)
C2_3 C 0.75368(6) 0.22207(6) 0.03406(6)
C3_3 C 0.7500 0.2500 0.01751(7)
C4_3 C 0.75406(7) 0.22267(7) 0.06693(6)
H1_3 H 0.7571 0.2042 0.0781
C5_3 C 0.7500 0.2500 0.08248(9)
H2_3 H 0.7500 0.2500 0.1042
C12_3 C 0.69745(9) 0.11048(9) 0.03200(9)
H7_3 H 0.7138 0.0967 0.0279
C13_3 C 0.67685(8) 0.10399(8) 0.05658(8)
H8_3 H 0.6803 0.0867 0.0693
C14_3 C 0.65179(6) 0.12292(7) 0.06198(7)
C15_3 C 0.64908(8) 0.14899(7) 0.04307(7)
H9_3 H 0.6328 0.1631 0.0462
C16_3 C 0.67015(9) 0.15402(8) 0.01998(9)
H10_3 H 0.6675 0.1715 0.0073
C17_3 C 0.62986(6) 0.11609(6) 0.08777(6)
N3_3 N 0.69418(6) 0.13567(6) 0.01442(6)
N4_3 N 0.63642(5) 0.09208(6) 0.10617(6)
O2_3 O 0.77699(5) 0.17239(4) 0.02739(5)
C18_3 C 0.74378(6) 0.30884(6) 0.01841(6)
C29_3 C 0.74632(6) 0.27793(6) 0.03406(6)
C45_3 C 0.74594(7) 0.27733(7) 0.06693(6)
H11_3 H 0.7429 0.2958 0.0781
C66_3 C 0.43543(8) 0.27255(9) 0.17367(8)
C67_3 C 0.27255(9) 0.32633(8) 0.06457(8)
C68_3 C 0.32633(8) 0.43543(8) 0.22745(9)
H32_3 H 0.4498 0.2702 0.1899
H33_3 H 0.2702 0.3101 0.0502
H34_3 H 0.3101 0.4498 0.2298
C77_3 C 0.41079(8) 0.29445(8) 0.17695(8)
C78_3 C 0.29445(8) 0.32305(8) 0.08921(8)
C79_3 C 0.32305(8) 0.41079(8) 0.20555(8)
H43_3 H 0.4097 0.3068 0.1948
H44_3 H 0.3068 0.3052 0.0903
H45_3 H 0.3052 0.4097 0.1932
C88_3 C 0.38924(6) 0.29753(6) 0.15486(6)
C89_3 C 0.29753(6) 0.34514(6) 0.11076(6)
C90_3 C 0.34514(6) 0.38924(6) 0.20247(6)
C99_3 C 0.39219(8) 0.27852(8) 0.12870(7)
C100_3 C 0.27852(8) 0.37130(7) 0.10781(8)
C101_3 C 0.37130(7) 0.39219(8) 0.22148(8)
H54_3 H 0.3770 0.2789 0.1132
H55_3 H 0.2789 0.3868 0.1230
H56_3 H 0.3868 0.3770 0.2211
C110_3 C 0.41745(8) 0.25934(9) 0.12581(8)
C111_3 C 0.25934(9) 0.37419(8) 0.08255(8)
C112_3 C 0.37419(8) 0.41745(8) 0.24066(9)
H65_3 H 0.4200 0.2485 0.1072
H66_3 H 0.2485 0.3928 0.0800
H67_3 H 0.3928 0.4200 0.2515
C121_3 C 0.36394(6) 0.32079(6) 0.15628(6)
C122_3 C 0.32079(6) 0.34372(6) 0.13606(6)
C123_3 C 0.34372(6) 0.36394(6) 0.17921(6)
C127_3 C 0.61048(9) 0.03200(9) 0.19745(9)
C128_3 C 0.53200(9) 0.19745(9) 0.11048(9)
C135_3 C 0.80255(9) 0.38952(9) 0.03200(9)
C136_3 C 0.88952(9) 0.46800(9) 0.19745(9)
C137_3 C 0.96800(9) 0.30255(9) 0.11048(9)
H71_3 H 0.5967 0.0279 0.2138
H72_3 H 0.5279 0.2138 0.0967
H79_3 H 0.7862 0.4033 0.0279
H80_3 H 0.9033 0.4721 0.2138
H81_3 H 0.9721 0.2862 0.0967
C138_3 C 0.60399(8) 0.05658(8) 0.17685(8)
C139_3 C 0.55658(8) 0.17685(8) 0.10399(8)
C146_3 C 0.82315(8) 0.39601(8) 0.05658(8)
C147_3 C 0.89601(8) 0.44342(8) 0.17685(8)
C148_3 C 0.94342(8) 0.32315(8) 0.10399(8)
H82_3 H 0.5867 0.0693 0.1803
H83_3 H 0.5693 0.1803 0.0867
H90_3 H 0.8197 0.4133 0.0693
H91_3 H 0.9133 0.4307 0.1803
H92_3 H 0.9307 0.3197 0.0867
C149_3 C 0.62292(7) 0.06198(7) 0.15179(6)
C150_3 C 0.56198(7) 0.15179(6) 0.12292(7)
C157_3 C 0.84821(6) 0.37708(7) 0.06198(7)
C158_3 C 0.87708(7) 0.43802(7) 0.15179(6)
C159_3 C 0.93802(7) 0.34821(6) 0.12292(7)
C160_3 C 0.64899(7) 0.04307(7) 0.14908(8)
C161_3 C 0.54307(7) 0.14908(8) 0.14899(7)
C168_3 C 0.85092(8) 0.35101(7) 0.04307(7)
C169_3 C 0.85101(7) 0.45693(7) 0.14908(8)
C170_3 C 0.95693(7) 0.35092(8) 0.14899(7)
H93_3 H 0.6631 0.0462 0.1328
H94_3 H 0.5462 0.1328 0.1631
H101_3 H 0.8672 0.3369 0.0462
H102_3 H 0.8369 0.4538 0.1328
H103_3 H 0.9538 0.3672 0.1631
C171_3 C 0.65402(8) 0.01998(9) 0.17015(9)
C172_3 C 0.51998(9) 0.17015(9) 0.15402(8)
C179_3 C 0.82985(9) 0.34598(8) 0.01998(9)
C180_3 C 0.84598(8) 0.48002(9) 0.17015(9)
C181_3 C 0.98002(9) 0.32985(9) 0.15402(8)
H104_3 H 0.6715 0.0073 0.1675
H105_3 H 0.5073 0.1675 0.1715
H112_3 H 0.8325 0.3285 0.0073
H113_3 H 0.8285 0.4927 0.1675
H114_3 H 0.9927 0.3325 0.1715
C182_3 C 0.61609(6) 0.08777(6) 0.12986(6)
C183_3 C 0.58777(6) 0.12986(6) 0.11609(6)
C190_3 C 0.87014(6) 0.38391(6) 0.08777(6)
C191_3 C 0.88391(6) 0.41223(6) 0.12986(6)
C192_3 C 0.91223(6) 0.37014(6) 0.11609(6)
N10_3 N 0.43858(5) 0.25532(6) 0.14815(5)
N11_3 N 0.25532(6) 0.35185(5) 0.06142(5)
N12_3 N 0.35185(5) 0.43858(5) 0.24468(6)
N16_3 N 0.64815(5) 0.24468(6) 0.06142(5)
N17_3 N 0.85185(5) 0.25532(6) 0.06142(5)
N23_3 N 0.34215(5) 0.32038(5) 0.13432(5)
N24_3 N 0.32038(5) 0.36568(5) 0.15785(5)
N25_3 N 0.36568(5) 0.34215(5) 0.17962(5)
N29_3 N 0.63567(6) 0.01442(6) 0.19418(6)
N30_3 N 0.51442(6) 0.19418(6) 0.13567(6)
N37_3 N 0.80582(6) 0.36433(6) 0.01442(6)
N38_3 N 0.86433(6) 0.48558(6) 0.19418(6)
N39_3 N 0.98558(6) 0.30582(6) 0.13567(6)
N45_3 N 0.36433(6) 0.51442(6) 0.30582(6)
N46_3 N 0.59208(6) 0.10617(6) 0.13642(5)
N47_3 N 0.60617(6) 0.13642(5) 0.09208(6)
N54_3 N 0.86358(5) 0.40792(6) 0.10617(6)
N55_3 N 0.90792(6) 0.39383(6) 0.13642(5)
N56_3 N 0.89383(6) 0.36358(5) 0.09208(6)
Ni5_3 Ni 0.476776(9) 0.225220(9) 0.142654(9)
Ni7_3 Ni 0.642654(9) 0.274780(9) 0.023224(9)
Ni8_3 Ni 0.857346(9) 0.225220(9) 0.023224(9)
Ni12_3 Ni 0.357346(9) 0.476776(9) 0.274780(9)
Ni25_3 Ni 0.857346(9) 0.523224(9) 0.225220(9)
O7_3 O 0.68488(4) 0.26299(4) 0.00297(4)
O8_3 O 0.81512(4) 0.23701(4) 0.00297(4)
O18_3 O 0.49703(4) 0.23701(4) 0.18488(4)
O21_3 O 0.23701(4) 0.31512(4) 0.00297(4)
O22_3 O 0.31512(4) 0.49703(4) 0.26299(4)
O23_3 O 0.72301(5) 0.32761(4) 0.02739(5)
O37_3 O 0.49964(7) 0.25960(6) 0.11835(5)
O39_3 O 0.61835(5) 0.24040(6) 0.00036(7)
O40_3 O 0.88165(5) 0.25960(6) 0.00036(7)
O43_3 O 0.25960(6) 0.38165(5) 0.00036(7)
O44_3 O 0.38165(5) 0.49964(7) 0.24040(6)
O48_3 O 0.45904(7) 0.20995(7) 0.09980(6)
O50_3 O 0.59980(6) 0.29005(7) 0.04096(7)
O51_3 O 0.90020(6) 0.20995(7) 0.04096(7)
O54_3 O 0.20995(7) 0.40020(6) 0.04096(7)
O55_3 O 0.40020(6) 0.45904(7) 0.29005(7)
O59_3 O 0.45119(5) 0.19173(5) 0.16670(5)
O61_3 O 0.66670(5) 0.30827(5) 0.04881(5)
O62_3 O 0.83330(5) 0.19173(5) 0.04881(5)
O65_3 O 0.19173(5) 0.33330(5) 0.04881(5)
O66_3 O 0.33330(5) 0.45119(5) 0.30827(5)
H115_2 H 0.778284 0.131904 0.00217143
H116_2 H 0.751876 0.111832 0.0205462
H141_2 H 0.599535 0.234697 0.0127161
H157_2 H 0.721716 0.368096 0.00217143
H158_2 H 0.748124 0.388168 0.0205462
H171_3 H 0.631904 0.00217143 0.278284
H172_3 H 0.611832 0.0205462 0.251876
H175_2 H 0.900465 0.265303 0.0127161
C6_3 C 0.77255(9) 0.17367(8) 0.93543(8)
H3_3 H 0.7702 0.1899 0.9498
C7_3 C 0.79445(8) 0.17695(8) 0.91079(8)
H4_3 H 0.8068 0.1948 0.9097
C8_3 C 0.79753(6) 0.15486(6) 0.88924(6)
C9_3 C 0.77852(8) 0.12870(7) 0.89219(8)
H5_3 H 0.7789 0.1132 0.8770
C10_3 C 0.75934(9) 0.12581(8) 0.91745(8)
H6_3 H 0.7485 0.1072 0.9200
C11_3 C 0.82079(6) 0.15628(6) 0.86394(6)
N1_3 N 0.75532(6) 0.14815(5) 0.93858(5)
N2_3 N 0.82038(5) 0.13432(5) 0.84215(5)
Ni1_3 Ni 0.725220(9) 0.142654(9) 0.976776(9)
O1_3 O 0.73701(4) 0.18488(4) 0.99703(4)
O3_3 O 0.75960(6) 0.11835(5) 0.99964(7)
O4_3 O 0.70995(7) 0.09980(6) 0.95904(7)
O5_3 O 0.69173(5) 0.16670(5) 0.95119(5)
C19_3 C 0.69116(6) 0.24378(6) 0.98159(6)
C20_3 C 0.80884(6) 0.25622(6) 0.98159(6)
C27_3 C 0.98159(6) 0.30884(6) 0.75622(6)
C28_3 C 0.98159(6) 0.19116(6) 0.74378(6)
C30_3 C 0.72207(6) 0.24632(6) 0.96594(6)
C31_3 C 0.77793(6) 0.25368(6) 0.96594(6)
C38_3 C 0.96594(6) 0.27793(6) 0.75368(6)
C39_3 C 0.96594(6) 0.22207(6) 0.74632(6)
C40_3 C 0.7500 0.2500 0.98249(7)
C44_3 C 0.98249(7) 0.2500 0.7500
C46_3 C 0.72267(7) 0.24594(7) 0.93307(6)
C47_3 C 0.77733(7) 0.25406(7) 0.93307(6)
C54_3 C 0.93307(6) 0.27733(7) 0.75406(7)
C55_3 C 0.93307(6) 0.22267(7) 0.74594(7)
H12_3 H 0.7042 0.2429 0.9219
H13_3 H 0.7958 0.2571 0.9219
H20_3 H 0.9219 0.2958 0.7571
H21_3 H 0.9219 0.2042 0.7429
C56_3 C 0.7500 0.2500 0.91752(9)
C60_3 C 0.91752(9) 0.2500 0.7500
H22_3 H 0.7500 0.2500 0.8958
H26_3 H 0.8958 0.2500 0.7500
C61_3 C 0.82633(8) 0.06457(8) 0.77255(9)
C62_3 C 0.93543(8) 0.22745(9) 0.82633(8)
C69_3 C 0.72745(9) 0.32633(8) 0.93543(8)
C70_3 C 0.67367(8) 0.43543(8) 0.77255(9)
C71_3 C 0.56457(8) 0.27255(9) 0.82633(8)
H27_3 H 0.8101 0.0502 0.7702
H28_3 H 0.9498 0.2298 0.8101
H35_3 H 0.7298 0.3101 0.9498
H36_3 H 0.6899 0.4498 0.7702
H37_3 H 0.5502 0.2702 0.8101
C72_3 C 0.82305(8) 0.08921(8) 0.79445(8)
C73_3 C 0.91079(8) 0.20555(8) 0.82305(8)
C80_3 C 0.70555(8) 0.32305(8) 0.91079(8)
C81_3 C 0.67695(8) 0.41079(8) 0.79445(8)
C82_3 C 0.58921(8) 0.29445(8) 0.82305(8)
H38_3 H 0.8052 0.0903 0.8068
H39_3 H 0.9097 0.1932 0.8052
H46_3 H 0.6932 0.3052 0.9097
H47_3 H 0.6948 0.4097 0.8068
H48_3 H 0.5903 0.3068 0.8052
C83_3 C 0.84514(6) 0.11076(6) 0.79753(6)
C84_3 C 0.88924(6) 0.20247(6) 0.84514(6)
C91_3 C 0.70247(6) 0.34514(6) 0.88924(6)
C92_3 C 0.65486(6) 0.38924(6) 0.79753(6)
C93_3 C 0.61076(6) 0.29753(6) 0.84514(6)
C94_3 C 0.87130(7) 0.10781(8) 0.77852(8)
C95_3 C 0.89219(8) 0.22148(8) 0.87130(7)
C102_3 C 0.72148(8) 0.37130(7) 0.89219(8)
C103_3 C 0.62870(7) 0.39219(8) 0.77852(8)
C104_3 C 0.60781(8) 0.27852(8) 0.87130(7)
H49_3 H 0.8868 0.1230 0.7789
H50_3 H 0.8770 0.2211 0.8868
H57_3 H 0.7211 0.3868 0.8770
H58_3 H 0.6132 0.3770 0.7789
H59_3 H 0.6230 0.2789 0.8868
C105_3 C 0.87419(8) 0.08255(8) 0.75934(9)
C106_3 C 0.91745(8) 0.24066(9) 0.87419(8)
C113_3 C 0.74066(9) 0.37419(8) 0.91745(8)
C114_3 C 0.62581(8) 0.41745(8) 0.75934(9)
C115_3 C 0.58255(8) 0.25934(9) 0.87419(8)
H60_3 H 0.8928 0.0800 0.7485
H61_3 H 0.9200 0.2515 0.8928
H68_3 H 0.7515 0.3928 0.9200
H69_3 H 0.6072 0.4200 0.7485
H70_3 H 0.5800 0.2485 0.8928
C116_3 C 0.84372(6) 0.13606(6) 0.82079(6)
C117_3 C 0.86394(6) 0.17921(6) 0.84372(6)
C124_3 C 0.67921(6) 0.34372(6) 0.86394(6)
C125_3 C 0.65628(6) 0.36394(6) 0.82079(6)
C126_3 C 0.63606(6) 0.32079(6) 0.84372(6)
N5_3 N 0.85185(5) 0.06142(5) 0.75532(6)
N6_3 N 0.93858(5) 0.24468(6) 0.85185(5)
N13_3 N 0.74468(6) 0.35185(5) 0.93858(5)
N14_3 N 0.64815(5) 0.43858(5) 0.75532(6)
N15_3 N 0.56142(5) 0.25532(6) 0.85185(5)
N18_3 N 0.86568(5) 0.15785(5) 0.82038(5)
N19_3 N 0.84215(5) 0.17962(5) 0.86568(5)
N26_3 N 0.67962(5) 0.36568(5) 0.84215(5)
N27_3 N 0.63432(5) 0.34215(5) 0.82038(5)
N28_3 N 0.65785(5) 0.32038(5) 0.86568(5)
N40_3 N 0.63567(6) 0.30582(6) 0.98558(6)
N41_3 N 0.86433(6) 0.19418(6) 0.98558(6)
Ni3_3 Ni 0.976776(9) 0.274780(9) 0.857346(9)
Ni6_3 Ni 0.774780(9) 0.357346(9) 0.976776(9)
Ni23_3 Ni 0.642654(9) 0.476776(9) 0.725220(9)
Ni24_3 Ni 0.523224(9) 0.225220(9) 0.857346(9)
O6_3 O 0.76299(4) 0.31512(4) 0.99703(4)
O13_3 O 0.99703(4) 0.26299(4) 0.81512(4)
O14_3 O 0.99703(4) 0.23701(4) 0.68488(4)
O24_3 O 0.67239(4) 0.22301(5) 0.97261(5)
O25_3 O 0.82761(4) 0.27699(5) 0.97261(5)
O32_3 O 0.97261(5) 0.32761(4) 0.77699(5)
O33_3 O 0.97261(5) 0.17239(4) 0.72301(5)
O34_3 O 0.88165(5) 0.00036(7) 0.75960(6)
O35_3 O 0.99964(7) 0.24040(6) 0.88165(5)
O38_3 O 0.74040(6) 0.38165(5) 0.99964(7)
O45_3 O 0.90020(6) 0.04096(7) 0.70995(7)
O46_3 O 0.95904(7) 0.29005(7) 0.90020(6)
O49_3 O 0.79005(7) 0.40020(6) 0.95904(7)
O56_3 O 0.83330(5) 0.04881(5) 0.69173(5)
O57_3 O 0.95119(5) 0.30827(5) 0.83330(5)
O60_3 O 0.80827(5) 0.33330(5) 0.95119(5)
H142_2 H 0.611832 0.248124 0.979454
H176_2 H 0.888168 0.251876 0.979454
H177_2 H 0.278284 0.368096 0.997829
H178_2 H 0.251876 0.388168 0.979454
C63_3 C 0.67367(8) 0.93543(8) 0.27255(9)
C64_3 C 0.56457(8) 0.77255(9) 0.32633(8)
C65_3 C 0.72745(9) 0.82633(8) 0.43543(8)
H29_3 H 0.6899 0.9498 0.2702
H30_3 H 0.5502 0.7702 0.3101
H31_3 H 0.7298 0.8101 0.4498
C74_3 C 0.67695(8) 0.91079(8) 0.29445(8)
C75_3 C 0.58921(8) 0.79445(8) 0.32305(8)
C76_3 C 0.70555(8) 0.82305(8) 0.41079(8)
H40_3 H 0.6948 0.9097 0.3068
H41_3 H 0.5903 0.8068 0.3052
H42_3 H 0.6932 0.8052 0.4097
C85_3 C 0.65486(6) 0.88924(6) 0.29753(6)
C86_3 C 0.61076(6) 0.79753(6) 0.34514(6)
C87_3 C 0.70247(6) 0.84514(6) 0.38924(6)
C96_3 C 0.62870(7) 0.89219(8) 0.27852(8)
C97_3 C 0.60781(8) 0.77852(8) 0.37130(7)
C98_3 C 0.72148(8) 0.87130(7) 0.39219(8)
H51_3 H 0.6132 0.8770 0.2789
H52_3 H 0.6230 0.7789 0.3868
H53_3 H 0.7211 0.8868 0.3770
C107_3 C 0.62581(8) 0.91745(8) 0.25934(9)
C108_3 C 0.58255(8) 0.75934(9) 0.37419(8)
C109_3 C 0.74066(9) 0.87419(8) 0.41745(8)
H62_3 H 0.6072 0.9200 0.2485
H63_3 H 0.5800 0.7485 0.3928
H64_3 H 0.7515 0.8928 0.4200
C118_3 C 0.65628(6) 0.86394(6) 0.32079(6)
C119_3 C 0.63606(6) 0.82079(6) 0.34372(6)
C120_3 C 0.67921(6) 0.84372(6) 0.36394(6)
N7_3 N 0.64815(5) 0.93858(5) 0.25532(6)
N8_3 N 0.56142(5) 0.75532(6) 0.35185(5)
N20_3 N 0.63432(5) 0.84215(5) 0.32038(5)
N21_3 N 0.65785(5) 0.82038(5) 0.36568(5)
N22_3 N 0.67962(5) 0.86568(5) 0.34215(5)
N42_3 N 0.48558(6) 0.69418(6) 0.36433(6)
Ni4_3 Ni 0.642654(9) 0.976776(9) 0.225220(9)
Ni9_3 Ni 0.523224(9) 0.725220(9) 0.357346(9)
O17_3 O 0.68488(4) 0.99703(4) 0.23701(4)
O19_3 O 0.50297(4) 0.73701(4) 0.31512(4)
O36_3 O 0.61835(5) 0.99964(7) 0.25960(6)
O41_3 O 0.50036(7) 0.75960(6) 0.38165(5)
O47_3 O 0.59980(6) 0.95904(7) 0.20995(7)
O52_3 O 0.54096(7) 0.70995(7) 0.40020(6)
O58_3 O 0.66670(5) 0.95119(5) 0.19173(5)
O63_3 O 0.54881(5) 0.69173(5) 0.33330(5)
C129_3 C 0.88952(9) 0.96800(9) 0.69745(9)
C130_3 C 0.96800(9) 0.80255(9) 0.61048(9)
C131_3 C 0.80255(9) 0.88952(9) 0.53200(9)
H73_3 H 0.9033 0.9721 0.7138
H74_3 H 0.9721 0.7862 0.5967
H75_3 H 0.7862 0.9033 0.5279
C140_3 C 0.89601(8) 0.94342(8) 0.67685(8)
C141_3 C 0.94342(8) 0.82315(8) 0.60399(8)
C142_3 C 0.82315(8) 0.89601(8) 0.55658(8)
H84_3 H 0.9133 0.9307 0.6803
H85_3 H 0.9307 0.8197 0.5867
H86_3 H 0.8197 0.9133 0.5693
C151_3 C 0.87708(7) 0.93802(7) 0.65179(6)
C152_3 C 0.93802(7) 0.84821(6) 0.62292(7)
C153_3 C 0.84821(6) 0.87708(7) 0.56198(7)
C162_3 C 0.85101(7) 0.95693(7) 0.64908(8)
C163_3 C 0.95693(7) 0.85092(8) 0.64899(7)
C164_3 C 0.85092(8) 0.85101(7) 0.54307(7)
H95_3 H 0.8369 0.9538 0.6328
H96_3 H 0.9538 0.8672 0.6631
H97_3 H 0.8672 0.8369 0.5462
C173_3 C 0.84598(8) 0.98002(9) 0.67015(9)
C174_3 C 0.98002(9) 0.82985(9) 0.65402(8)
C175_3 C 0.82985(9) 0.84598(8) 0.51998(9)
H106_3 H 0.8285 0.9927 0.6675
H107_3 H 0.9927 0.8325 0.6715
H108_3 H 0.8325 0.8285 0.5073
C184_3 C 0.88391(6) 0.91223(6) 0.62986(6)
C185_3 C 0.91223(6) 0.87014(6) 0.61609(6)
C186_3 C 0.87014(6) 0.88391(6) 0.58777(6)
N31_3 N 0.86433(6) 0.98558(6) 0.69418(6)
N32_3 N 0.98558(6) 0.80582(6) 0.63567(6)
N48_3 N 0.90792(6) 0.89383(6) 0.63642(5)
N49_3 N 0.89383(6) 0.86358(5) 0.59208(6)
N50_3 N 0.86358(5) 0.90792(6) 0.60617(6)
H173_3 H 0.868096 0.997829 0.778284
H174_3 H 0.888168 0.979454 0.751876
C1_4 C 0.19116(6) 0.24378(6) 0.48159(6)
C2_4 C 0.22207(6) 0.24632(6) 0.46594(6)
C3_4 C 0.2500 0.2500 0.48249(7)
C4_4 C 0.22267(7) 0.24594(7) 0.43307(6)
H1_4 H 0.2042 0.2429 0.4219
C5_4 C 0.2500 0.2500 0.41752(9)
H2_4 H 0.2500 0.2500 0.3958
C6_4 C 0.17367(8) 0.22745(9) 0.56457(8)
H3_4 H 0.1899 0.2298 0.5502
C7_4 C 0.17695(8) 0.20555(8) 0.58921(8)
H4_4 H 0.1948 0.1932 0.5903
C8_4 C 0.15486(6) 0.20247(6) 0.61076(6)
C9_4 C 0.12870(7) 0.22148(8) 0.60781(8)
H5_4 H 0.1132 0.2211 0.6230
C10_4 C 0.12581(8) 0.24066(9) 0.58255(8)
H6_4 H 0.1072 0.2515 0.5800
C11_4 C 0.15628(6) 0.17921(6) 0.63606(6)
C12_4 C 0.11048(9) 0.30255(9) 0.46800(9)
H7_4 H 0.0967 0.2862 0.4721
C13_4 C 0.10399(8) 0.32315(8) 0.44342(8)
H8_4 H 0.0867 0.3197 0.4307
C14_4 C 0.12292(7) 0.34821(6) 0.43802(7)
C15_4 C 0.14899(7) 0.35092(8) 0.45693(7)
H9_4 H 0.1631 0.3672 0.4538
C16_4 C 0.15402(8) 0.32985(9) 0.48002(9)
H10_4 H 0.1715 0.3325 0.4927
C17_4 C 0.11609(6) 0.37014(6) 0.41223(6)
N1_4 N 0.14815(5) 0.24468(6) 0.56142(5)
N2_4 N 0.13432(5) 0.17962(5) 0.65785(5)
N3_4 N 0.13567(6) 0.30582(6) 0.48558(6)
N4_4 N 0.09208(6) 0.36358(5) 0.39383(6)
Ni1_4 Ni 0.142654(9) 0.274780(9) 0.523224(9)
O1_4 O 0.18488(4) 0.26299(4) 0.50297(4)
O2_4 O 0.17239(4) 0.22301(5) 0.47261(5)
O3_4 O 0.11835(5) 0.24040(6) 0.50036(7)
O4_4 O 0.09980(6) 0.29005(7) 0.54096(7)
O5_4 O 0.16670(5) 0.30827(5) 0.54881(5)
C18_4 C 0.30884(6) 0.25622(6) 0.48159(6)
C19_4 C 0.24378(6) 0.30884(6) 0.51841(6)
C20_4 C 0.25622(6) 0.19116(6) 0.51841(6)
C29_4 C 0.27793(6) 0.25368(6) 0.46594(6)
C30_4 C 0.24632(6) 0.27793(6) 0.53406(6)
C31_4 C 0.25368(6) 0.22207(6) 0.53406(6)
C40_4 C 0.2500 0.2500 0.51751(7)
C45_4 C 0.27733(7) 0.25406(7) 0.43307(6)
C46_4 C 0.24594(7) 0.27733(7) 0.56693(6)
C47_4 C 0.25406(7) 0.22267(7) 0.56693(6)
H11_4 H 0.2958 0.2571 0.4219
H12_4 H 0.2429 0.2958 0.5781
H13_4 H 0.2571 0.2042 0.5781
C56_4 C 0.2500 0.2500 0.58248(9)
H22_4 H 0.2500 0.2500 0.6042
C61_4 C 0.06457(8) 0.17367(8) 0.72745(9)
C62_4 C 0.22745(9) 0.06457(8) 0.67367(8)
C66_4 C 0.27255(9) 0.56457(8) 0.32633(8)
C67_4 C 0.32633(8) 0.72745(9) 0.43543(8)
C68_4 C 0.43543(8) 0.67367(8) 0.27255(9)
C69_4 C 0.32633(8) 0.27255(9) 0.56457(8)
C70_4 C 0.43543(8) 0.32633(8) 0.72745(9)
C71_4 C 0.27255(9) 0.43543(8) 0.67367(8)
H27_4 H 0.0502 0.1899 0.7298
H28_4 H 0.2298 0.0502 0.6899
H32_4 H 0.2702 0.5502 0.3101
H33_4 H 0.3101 0.7298 0.4498
H34_4 H 0.4498 0.6899 0.2702
H35_4 H 0.3101 0.2702 0.5502
H36_4 H 0.4498 0.3101 0.7298
H37_4 H 0.2702 0.4498 0.6899
C72_4 C 0.08921(8) 0.17695(8) 0.70555(8)
C73_4 C 0.20555(8) 0.08921(8) 0.67695(8)
C77_4 C 0.29445(8) 0.58921(8) 0.32305(8)
C78_4 C 0.32305(8) 0.70555(8) 0.41079(8)
C79_4 C 0.41079(8) 0.67695(8) 0.29445(8)
C80_4 C 0.32305(8) 0.29445(8) 0.58921(8)
C81_4 C 0.41079(8) 0.32305(8) 0.70555(8)
C82_4 C 0.29445(8) 0.41079(8) 0.67695(8)
H38_4 H 0.0903 0.1948 0.6932
H39_4 H 0.1932 0.0903 0.6948
H43_4 H 0.3068 0.5903 0.3052
H44_4 H 0.3052 0.6932 0.4097
H45_4 H 0.4097 0.6948 0.3068
H46_4 H 0.3052 0.3068 0.5903
H47_4 H 0.4097 0.3052 0.6932
H48_4 H 0.3068 0.4097 0.6948
C83_4 C 0.11076(6) 0.15486(6) 0.70247(6)
C84_4 C 0.20247(6) 0.11076(6) 0.65486(6)
C88_4 C 0.29753(6) 0.61076(6) 0.34514(6)
C89_4 C 0.34514(6) 0.70247(6) 0.38924(6)
C90_4 C 0.38924(6) 0.65486(6) 0.29753(6)
C91_4 C 0.34514(6) 0.29753(6) 0.61076(6)
C92_4 C 0.38924(6) 0.34514(6) 0.70247(6)
C93_4 C 0.29753(6) 0.38924(6) 0.65486(6)
C94_4 C 0.10781(8) 0.12870(7) 0.72148(8)
C95_4 C 0.22148(8) 0.10781(8) 0.62870(7)
C99_4 C 0.27852(8) 0.60781(8) 0.37130(7)
C100_4 C 0.37130(7) 0.72148(8) 0.39219(8)
C101_4 C 0.39219(8) 0.62870(7) 0.27852(8)
C102_4 C 0.37130(7) 0.27852(8) 0.60781(8)
C103_4 C 0.39219(8) 0.37130(7) 0.72148(8)
C104_4 C 0.27852(8) 0.39219(8) 0.62870(7)
H49_4 H 0.1230 0.1132 0.7211
H50_4 H 0.2211 0.1230 0.6132
H54_4 H 0.2789 0.6230 0.3868
H55_4 H 0.3868 0.7211 0.3770
H56_4 H 0.3770 0.6132 0.2789
H57_4 H 0.3868 0.2789 0.6230
H58_4 H 0.3770 0.3868 0.7211
H59_4 H 0.2789 0.3770 0.6132
C105_4 C 0.08255(8) 0.12581(8) 0.74066(9)
C106_4 C 0.24066(9) 0.08255(8) 0.62581(8)
C110_4 C 0.25934(9) 0.58255(8) 0.37419(8)
C111_4 C 0.37419(8) 0.74066(9) 0.41745(8)
C112_4 C 0.41745(8) 0.62581(8) 0.25934(9)
C113_4 C 0.37419(8) 0.25934(9) 0.58255(8)
C114_4 C 0.41745(8) 0.37419(8) 0.74066(9)
C115_4 C 0.25934(9) 0.41745(8) 0.62581(8)
H60_4 H 0.0800 0.1072 0.7515
H61_4 H 0.2515 0.0800 0.6072
H65_4 H 0.2485 0.5800 0.3928
H66_4 H 0.3928 0.7515 0.4200
H67_4 H 0.4200 0.6072 0.2485
H68_4 H 0.3928 0.2485 0.5800
H69_4 H 0.4200 0.3928 0.7515
H70_4 H 0.2485 0.4200 0.6072
C116_4 C 0.13606(6) 0.15628(6) 0.67921(6)
C117_4 C 0.17921(6) 0.13606(6) 0.65628(6)
C121_4 C 0.32079(6) 0.63606(6) 0.34372(6)
C122_4 C 0.34372(6) 0.67921(6) 0.36394(6)
C123_4 C 0.36394(6) 0.65628(6) 0.32079(6)
C124_4 C 0.34372(6) 0.32079(6) 0.63606(6)
C125_4 C 0.36394(6) 0.34372(6) 0.67921(6)
C126_4 C 0.32079(6) 0.36394(6) 0.65628(6)
C127_4 C 0.03200(9) 0.38952(9) 0.30255(9)
C128_4 C 0.19745(9) 0.46800(9) 0.38952(9)
C135_4 C 0.38952(9) 0.19745(9) 0.46800(9)
C136_4 C 0.46800(9) 0.11048(9) 0.30255(9)
C137_4 C 0.30255(9) 0.03200(9) 0.38952(9)
H71_4 H 0.0279 0.4033 0.2862
H72_4 H 0.2138 0.4721 0.4033
H79_4 H 0.4033 0.2138 0.4721
H80_4 H 0.4721 0.0967 0.2862
H81_4 H 0.2862 0.0279 0.4033
C138_4 C 0.05658(8) 0.39601(8) 0.32315(8)
C139_4 C 0.17685(8) 0.44342(8) 0.39601(8)
C146_4 C 0.39601(8) 0.17685(8) 0.44342(8)
C147_4 C 0.44342(8) 0.10399(8) 0.32315(8)
C148_4 C 0.32315(8) 0.05658(8) 0.39601(8)
H82_4 H 0.0693 0.4133 0.3197
H83_4 H 0.1803 0.4307 0.4133
H90_4 H 0.4133 0.1803 0.4307
H91_4 H 0.4307 0.0867 0.3197
H92_4 H 0.3197 0.0693 0.4133
C149_4 C 0.06198(7) 0.37708(7) 0.34821(6)
C150_4 C 0.15179(6) 0.43802(7) 0.37708(7)
C157_4 C 0.37708(7) 0.15179(6) 0.43802(7)
C158_4 C 0.43802(7) 0.12292(7) 0.34821(6)
C159_4 C 0.34821(6) 0.06198(7) 0.37708(7)
C160_4 C 0.04307(7) 0.35101(7) 0.35092(8)
C161_4 C 0.14908(8) 0.45693(7) 0.35101(7)
C168_4 C 0.35101(7) 0.14908(8) 0.45693(7)
C169_4 C 0.45693(7) 0.14899(7) 0.35092(8)
C170_4 C 0.35092(8) 0.04307(7) 0.35101(7)
H93_4 H 0.0462 0.3369 0.3672
H94_4 H 0.1328 0.4538 0.3369
H101_4 H 0.3369 0.1328 0.4538
H102_4 H 0.4538 0.1631 0.3672
H103_4 H 0.3672 0.0462 0.3369
C171_4 C 0.01998(9) 0.34598(8) 0.32985(9)
C172_4 C 0.17015(9) 0.48002(9) 0.34598(8)
C179_4 C 0.34598(8) 0.17015(9) 0.48002(9)
C180_4 C 0.48002(9) 0.15402(8) 0.32985(9)
C181_4 C 0.32985(9) 0.01998(9) 0.34598(8)
H104_4 H 0.0073 0.3285 0.3325
H105_4 H 0.1675 0.4927 0.3285
H112_4 H 0.3285 0.1675 0.4927
H113_4 H 0.4927 0.1715 0.3325
H114_4 H 0.3325 0.0073 0.3285
C182_4 C 0.08777(6) 0.38391(6) 0.37014(6)
C183_4 C 0.12986(6) 0.41223(6) 0.38391(6)
C190_4 C 0.38391(6) 0.12986(6) 0.41223(6)
C191_4 C 0.41223(6) 0.11609(6) 0.37014(6)
C192_4 C 0.37014(6) 0.08777(6) 0.38391(6)
N5_4 N 0.06142(5) 0.14815(5) 0.74468(6)
N6_4 N 0.24468(6) 0.06142(5) 0.64815(5)
N10_4 N 0.25532(6) 0.56142(5) 0.35185(5)
N11_4 N 0.35185(5) 0.74468(6) 0.43858(5)
N12_4 N 0.43858(5) 0.64815(5) 0.25532(6)
N13_4 N 0.35185(5) 0.25532(6) 0.56142(5)
N14_4 N 0.43858(5) 0.35185(5) 0.74468(6)
N15_4 N 0.25532(6) 0.43858(5) 0.64815(5)
N16_4 N 0.24468(6) 0.35185(5) 0.43858(5)
N18_4 N 0.15785(5) 0.13432(5) 0.67962(5)
N19_4 N 0.17962(5) 0.15785(5) 0.63432(5)
N23_4 N 0.32038(5) 0.65785(5) 0.36568(5)
N24_4 N 0.36568(5) 0.67962(5) 0.34215(5)
N25_4 N 0.34215(5) 0.63432(5) 0.32038(5)
N26_4 N 0.36568(5) 0.32038(5) 0.65785(5)
N27_4 N 0.34215(5) 0.36568(5) 0.67962(5)
N28_4 N 0.32038(5) 0.34215(5) 0.63432(5)
N29_4 N 0.01442(6) 0.36433(6) 0.30582(6)
N30_4 N 0.19418(6) 0.48558(6) 0.36433(6)
N37_4 N 0.36433(6) 0.19418(6) 0.48558(6)
N38_4 N 0.48558(6) 0.13567(6) 0.30582(6)
N39_4 N 0.30582(6) 0.01442(6) 0.36433(6)
N40_4 N 0.30582(6) 0.36433(6) 0.51442(6)
N44_2 N 0.36433(6) 0.80582(6) 0.51442(6)
N45_4 N 0.51442(6) 0.63567(6) 0.19418(6)
N46_4 N 0.10617(6) 0.40792(6) 0.36358(5)
N47_4 N 0.13642(5) 0.39383(6) 0.40792(6)
N54_4 N 0.40792(6) 0.13642(5) 0.39383(6)
N55_4 N 0.39383(6) 0.09208(6) 0.36358(5)
N56_4 N 0.36358(5) 0.10617(6) 0.40792(6)
Ni5_4 Ni 0.225220(9) 0.523224(9) 0.357346(9)
Ni6_4 Ni 0.357346(9) 0.225220(9) 0.523224(9)
Ni7_4 Ni 0.274780(9) 0.357346(9) 0.476776(9)
Ni11_2 Ni 0.357346(9) 0.774780(9) 0.476776(9)
Ni12_4 Ni 0.476776(9) 0.642654(9) 0.225220(9)
Ni23_4 Ni 0.476776(9) 0.357346(9) 0.774780(9)
Ni24_4 Ni 0.225220(9) 0.476776(9) 0.642654(9)
Ni25_4 Ni 0.523224(9) 0.142654(9) 0.274780(9)
O6_4 O 0.31512(4) 0.23701(4) 0.50297(4)
O7_4 O 0.26299(4) 0.31512(4) 0.49703(4)
O18_4 O 0.23701(4) 0.50297(4) 0.31512(4)
O21_4 O 0.31512(4) 0.76299(4) 0.49703(4)
O22_4 O 0.49703(4) 0.68488(4) 0.23701(4)
O23_4 O 0.32761(4) 0.27699(5) 0.47261(5)
O24_4 O 0.22301(5) 0.32761(4) 0.52739(5)
O25_4 O 0.27699(5) 0.17239(4) 0.52739(5)
O34_4 O 0.00036(7) 0.11835(5) 0.74040(6)
O35_4 O 0.24040(6) 0.00036(7) 0.61835(5)
O37_4 O 0.25960(6) 0.50036(7) 0.38165(5)
O38_4 O 0.38165(5) 0.25960(6) 0.50036(7)
O39_4 O 0.24040(6) 0.38165(5) 0.49964(7)
O43_4 O 0.38165(5) 0.74040(6) 0.49964(7)
O44_4 O 0.49964(7) 0.61835(5) 0.25960(6)
O45_4 O 0.04096(7) 0.09980(6) 0.79005(7)
O46_4 O 0.29005(7) 0.04096(7) 0.59980(6)
O48_4 O 0.20995(7) 0.54096(7) 0.40020(6)
O49_4 O 0.40020(6) 0.20995(7) 0.54096(7)
O50_4 O 0.29005(7) 0.40020(6) 0.45904(7)
O54_4 O 0.40020(6) 0.79005(7) 0.45904(7)
O55_4 O 0.45904(7) 0.59980(6) 0.20995(7)
O56_4 O 0.04881(5) 0.16670(5) 0.80827(5)
O57_4 O 0.30827(5) 0.04881(5) 0.66670(5)
O59_4 O 0.19173(5) 0.54881(5) 0.33330(5)
O60_4 O 0.33330(5) 0.19173(5) 0.54881(5)
O61_4 O 0.30827(5) 0.33330(5) 0.45119(5)
O65_4 O 0.33330(5) 0.80827(5) 0.45119(5)
O66_4 O 0.45119(5) 0.66670(5) 0.19173(5)
H171_4 H 0.00217143 0.368096 0.221716
H172_4 H 0.0205462 0.388168 0.248124
C132_4 C 0.30255(9) 0.96800(9) 0.61048(9)
C133_4 C 0.38952(9) 0.80255(9) 0.53200(9)
C134_4 C 0.46800(9) 0.88952(9) 0.69745(9)
H76_4 H 0.2862 0.9721 0.5967
H77_4 H 0.4033 0.7862 0.5279
H78_4 H 0.4721 0.9033 0.7138
C143_4 C 0.32315(8) 0.94342(8) 0.60399(8)
C144_4 C 0.39601(8) 0.82315(8) 0.55658(8)
C145_4 C 0.44342(8) 0.89601(8) 0.67685(8)
H87_4 H 0.3197 0.9307 0.5867
H88_4 H 0.4133 0.8197 0.5693
H89_4 H 0.4307 0.9133 0.6803
C154_4 C 0.34821(6) 0.93802(7) 0.62292(7)
C155_4 C 0.37708(7) 0.84821(6) 0.56198(7)
C156_4 C 0.43802(7) 0.87708(7) 0.65179(6)
C165_4 C 0.35092(8) 0.95693(7) 0.64899(7)
C166_4 C 0.35101(7) 0.85092(8) 0.54307(7)
C167_4 C 0.45693(7) 0.85101(7) 0.64908(8)
H98_4 H 0.3672 0.9538 0.6631
H99_4 H 0.3369 0.8672 0.5462
H100_4 H 0.4538 0.8369 0.6328
C176_4 C 0.32985(9) 0.98002(9) 0.65402(8)
C177_4 C 0.34598(8) 0.82985(9) 0.51998(9)
C178_4 C 0.48002(9) 0.84598(8) 0.67015(9)
H109_4 H 0.3325 0.9927 0.6715
H110_4 H 0.3285 0.8325 0.5073
H111_4 H 0.4927 0.8285 0.6675
C187_4 C 0.37014(6) 0.91223(6) 0.61609(6)
C188_4 C 0.38391(6) 0.87014(6) 0.58777(6)
C189_4 C 0.41223(6) 0.88391(6) 0.62986(6)
N34_4 N 0.30582(6) 0.98558(6) 0.63567(6)
N36_4 N 0.48558(6) 0.86433(6) 0.69418(6)
N51_4 N 0.36358(5) 0.89383(6) 0.59208(6)
N52_4 N 0.40792(6) 0.86358(5) 0.60617(6)
N53_4 N 0.39383(6) 0.90792(6) 0.63642(5)
Ni19_4 Ni 0.523224(9) 0.857346(9) 0.725220(9)
Ni26_4 Ni 0.274780(9) 0.976776(9) 0.357346(9)
H165_4 H 0.221716 0.997829 0.631904
H166_4 H 0.248124 0.979454 0.611832
C63_4 C 0.93543(8) 0.32633(8) 0.22745(9)
C64_4 C 0.77255(9) 0.43543(8) 0.17367(8)
C65_4 C 0.82633(8) 0.27255(9) 0.06457(8)
H29_4 H 0.9498 0.3101 0.2298
H30_4 H 0.7702 0.4498 0.1899
H31_4 H 0.8101 0.2702 0.0502
C74_4 C 0.91079(8) 0.32305(8) 0.20555(8)
C75_4 C 0.79445(8) 0.41079(8) 0.17695(8)
C76_4 C 0.82305(8) 0.29445(8) 0.08921(8)
H40_4 H 0.9097 0.3052 0.1932
H41_4 H 0.8068 0.4097 0.1948
H42_4 H 0.8052 0.3068 0.0903
C85_4 C 0.88924(6) 0.34514(6) 0.20247(6)
C86_4 C 0.79753(6) 0.38924(6) 0.15486(6)
C87_4 C 0.84514(6) 0.29753(6) 0.11076(6)
C96_4 C 0.89219(8) 0.37130(7) 0.22148(8)
C97_4 C 0.77852(8) 0.39219(8) 0.12870(7)
C98_4 C 0.87130(7) 0.27852(8) 0.10781(8)
H51_4 H 0.8770 0.3868 0.2211
H52_4 H 0.7789 0.3770 0.1132
H53_4 H 0.8868 0.2789 0.1230
C107_4 C 0.91745(8) 0.37419(8) 0.24066(9)
C108_4 C 0.75934(9) 0.41745(8) 0.12581(8)
C109_4 C 0.87419(8) 0.25934(9) 0.08255(8)
H62_4 H 0.9200 0.3928 0.2515
H63_4 H 0.7485 0.4200 0.1072
H64_4 H 0.8928 0.2485 0.0800
C118_4 C 0.86394(6) 0.34372(6) 0.17921(6)
C119_4 C 0.82079(6) 0.36394(6) 0.15628(6)
C120_4 C 0.84372(6) 0.32079(6) 0.13606(6)
C129_4 C 0.96800(9) 0.11048(9) 0.80255(9)
C130_4 C 0.80255(9) 0.03200(9) 0.88952(9)
C131_4 C 0.88952(9) 0.19745(9) 0.96800(9)
H73_4 H 0.9721 0.0967 0.7862
H74_4 H 0.7862 0.0279 0.9033
H75_4 H 0.9033 0.2138 0.9721
C140_4 C 0.94342(8) 0.10399(8) 0.82315(8)
C141_4 C 0.82315(8) 0.05658(8) 0.89601(8)
C142_4 C 0.89601(8) 0.17685(8) 0.94342(8)
H84_4 H 0.9307 0.0867 0.8197
H85_4 H 0.8197 0.0693 0.9133
H86_4 H 0.9133 0.1803 0.9307
C151_4 C 0.93802(7) 0.12292(7) 0.84821(6)
C152_4 C 0.84821(6) 0.06198(7) 0.87708(7)
C153_4 C 0.87708(7) 0.15179(6) 0.93802(7)
C162_4 C 0.95693(7) 0.14899(7) 0.85092(8)
C163_4 C 0.85092(8) 0.04307(7) 0.85101(7)
C164_4 C 0.85101(7) 0.14908(8) 0.95693(7)
H95_4 H 0.9538 0.1631 0.8672
H96_4 H 0.8672 0.0462 0.8369
H97_4 H 0.8369 0.1328 0.9538
C173_4 C 0.98002(9) 0.15402(8) 0.82985(9)
C174_4 C 0.82985(9) 0.01998(9) 0.84598(8)
C175_4 C 0.84598(8) 0.17015(9) 0.98002(9)
H106_4 H 0.9927 0.1715 0.8325
H107_4 H 0.8325 0.0073 0.8285
H108_4 H 0.8285 0.1675 0.9927
C184_4 C 0.91223(6) 0.11609(6) 0.87014(6)
C185_4 C 0.87014(6) 0.08777(6) 0.88391(6)
C186_4 C 0.88391(6) 0.12986(6) 0.91223(6)
N7_4 N 0.93858(5) 0.35185(5) 0.24468(6)
N8_4 N 0.75532(6) 0.43858(5) 0.14815(5)
N20_4 N 0.84215(5) 0.36568(5) 0.17962(5)
N21_4 N 0.82038(5) 0.34215(5) 0.13432(5)
N22_4 N 0.86568(5) 0.32038(5) 0.15785(5)
N31_4 N 0.98558(6) 0.13567(6) 0.80582(6)
N32_4 N 0.80582(6) 0.01442(6) 0.86433(6)
N42_4 N 0.69418(6) 0.51442(6) 0.13567(6)
N48_4 N 0.89383(6) 0.09208(6) 0.86358(5)
N49_4 N 0.86358(5) 0.10617(6) 0.90792(6)
N50_4 N 0.90792(6) 0.13642(5) 0.89383(6)
Ni4_4 Ni 0.976776(9) 0.357346(9) 0.274780(9)
Ni9_4 Ni 0.725220(9) 0.476776(9) 0.142654(9)
O17_4 O 0.99703(4) 0.31512(4) 0.26299(4)
O19_4 O 0.73701(4) 0.49703(4) 0.18488(4)
O36_4 O 0.99964(7) 0.38165(5) 0.24040(6)
O41_4 O 0.75960(6) 0.49964(7) 0.11835(5)
O47_4 O 0.95904(7) 0.40020(6) 0.29005(7)
O52_4 O 0.70995(7) 0.45904(7) 0.09980(6)
O58_4 O 0.95119(5) 0.33330(5) 0.30827(5)
O63_4 O 0.69173(5) 0.45119(5) 0.16670(5)
H173_4 H 0.997829 0.131904 0.721716
H174_4 H 0.979454 0.111832 0.748124
H127_2 H 0.868096 0.278284 0.997829
C6_5 C 0.22745(9) 0.17367(8) 0.06457(8)
H3_5 H 0.2298 0.1899 0.0502
C7_5 C 0.20555(8) 0.17695(8) 0.08921(8)
H4_5 H 0.1932 0.1948 0.0903
C8_5 C 0.20247(6) 0.15486(6) 0.11076(6)
C9_5 C 0.22148(8) 0.12870(7) 0.10781(8)
H5_5 H 0.2211 0.1132 0.1230
C10_5 C 0.24066(9) 0.12581(8) 0.08255(8)
H6_5 H 0.2515 0.1072 0.0800
C11_5 C 0.17921(6) 0.15628(6) 0.13606(6)
N1_5 N 0.24468(6) 0.14815(5) 0.06142(5)
N2_5 N 0.17962(5) 0.13432(5) 0.15785(5)
Ni1_5 Ni 0.274780(9) 0.142654(9) 0.023224(9)
O1_5 O 0.26299(4) 0.18488(4) 0.00297(4)
O3_5 O 0.24040(6) 0.11835(5) 0.00036(7)
O4_5 O 0.29005(7) 0.09980(6) 0.04096(7)
O5_5 O 0.30827(5) 0.16670(5) 0.04881(5)
C19_5 C 0.30884(6) 0.24378(6) 0.01841(6)
C20_5 C 0.19116(6) 0.25622(6) 0.01841(6)
C23_2 C 0.24378(6) 0.01841(6) 0.30884(6)
C24_2 C 0.25622(6) 0.01841(6) 0.19116(6)
C27_4 C 0.01841(6) 0.30884(6) 0.24378(6)
C28_4 C 0.01841(6) 0.19116(6) 0.25622(6)
C30_5 C 0.27793(6) 0.24632(6) 0.03406(6)
C31_5 C 0.22207(6) 0.25368(6) 0.03406(6)
C34_2 C 0.24632(6) 0.03406(6) 0.27793(6)
C35_2 C 0.25368(6) 0.03406(6) 0.22207(6)
C38_4 C 0.03406(6) 0.27793(6) 0.24632(6)
C39_4 C 0.03406(6) 0.22207(6) 0.25368(6)
C40_5 C 0.2500 0.2500 0.01751(7)
C42_2 C 0.2500 0.01751(7) 0.2500
C44_4 C 0.01751(7) 0.2500 0.2500
C46_5 C 0.27733(7) 0.24594(7) 0.06693(6)
C47_5 C 0.22267(7) 0.25406(7) 0.06693(6)
C50_2 C 0.24594(7) 0.06693(6) 0.27733(7)
C51_2 C 0.25406(7) 0.06693(6) 0.22267(7)
C54_4 C 0.06693(6) 0.27733(7) 0.24594(7)
C55_4 C 0.06693(6) 0.22267(7) 0.25406(7)
H12_5 H 0.2958 0.2429 0.0781
H13_5 H 0.2042 0.2571 0.0781
H16_2 H 0.2429 0.0781 0.2958
H17_2 H 0.2571 0.0781 0.2042
H20_4 H 0.0781 0.2958 0.2429
H21_4 H 0.0781 0.2042 0.2571
C56_5 C 0.2500 0.2500 0.08248(9)
C58_2 C 0.2500 0.08248(9) 0.2500
C60_4 C 0.08248(9) 0.2500 0.2500
H22_5 H 0.2500 0.2500 0.1042
H24_2 H 0.2500 0.1042 0.2500
H26_4 H 0.1042 0.2500 0.2500
C61_5 C 0.17367(8) 0.06457(8) 0.22745(9)
C62_5 C 0.06457(8) 0.22745(9) 0.17367(8)
H27_5 H 0.1899 0.0502 0.2298
H28_5 H 0.0502 0.2298 0.1899
C72_5 C 0.17695(8) 0.08921(8) 0.20555(8)
C73_5 C 0.08921(8) 0.20555(8) 0.17695(8)
H38_5 H 0.1948 0.0903 0.1932
H39_5 H 0.0903 0.1932 0.1948
C83_5 C 0.15486(6) 0.11076(6) 0.20247(6)
C84_5 C 0.11076(6) 0.20247(6) 0.15486(6)
C94_5 C 0.12870(7) 0.10781(8) 0.22148(8)
C95_5 C 0.10781(8) 0.22148(8) 0.12870(7)
H49_5 H 0.1132 0.1230 0.2211
H50_5 H 0.1230 0.2211 0.1132
C105_5 C 0.12581(8) 0.08255(8) 0.24066(9)
C106_5 C 0.08255(8) 0.24066(9) 0.12581(8)
H60_5 H 0.1072 0.0800 0.2515
H61_5 H 0.0800 0.2515 0.1072
C116_5 C 0.15628(6) 0.13606(6) 0.17921(6)
C117_5 C 0.13606(6) 0.17921(6) 0.15628(6)
N5_5 N 0.14815(5) 0.06142(5) 0.24468(6)
N6_5 N 0.06142(5) 0.24468(6) 0.14815(5)
N18_5 N 0.13432(5) 0.15785(5) 0.17962(5)
N19_5 N 0.15785(5) 0.17962(5) 0.13432(5)
N40_5 N 0.36433(6) 0.30582(6) 0.01442(6)
N41_4 N 0.13567(6) 0.19418(6) 0.01442(6)
Ni2_2 Ni 0.142654(9) 0.023224(9) 0.274780(9)
Ni20_3 Ni 0.023224(9) 0.225220(9) 0.357346(9)
O9_2 O 0.18488(4) 0.00297(4) 0.26299(4)
O13_4 O 0.00297(4) 0.26299(4) 0.18488(4)
O14_4 O 0.00297(4) 0.23701(4) 0.31512(4)
O24_5 O 0.32761(4) 0.22301(5) 0.02739(5)
O25_5 O 0.17239(4) 0.27699(5) 0.02739(5)
O28_2 O 0.22301(5) 0.02739(5) 0.32761(4)
O29_2 O 0.27699(5) 0.02739(5) 0.17239(4)
O32_4 O 0.02739(5) 0.32761(4) 0.22301(5)
O33_4 O 0.02739(5) 0.17239(4) 0.27699(5)
O34_5 O 0.11835(5) 0.00036(7) 0.24040(6)
O35_5 O 0.00036(7) 0.24040(6) 0.11835(5)
O45_5 O 0.09980(6) 0.04096(7) 0.29005(7)
O46_5 O 0.04096(7) 0.29005(7) 0.09980(6)
O56_5 O 0.16670(5) 0.04881(5) 0.30827(5)
O57_5 O 0.04881(5) 0.30827(5) 0.16670(5)
H142_3 H 0.388168 0.248124 0.0205462
H176_3 H 0.111832 0.251876 0.0205462
C1_5 C 0.24378(6) 0.19116(6) 0.98159(6)
C2_5 C 0.24632(6) 0.22207(6) 0.96594(6)
C3_5 C 0.2500 0.2500 0.98249(7)
C4_5 C 0.24594(7) 0.22267(7) 0.93307(6)
H1_5 H 0.2429 0.2042 0.9219
C5_5 C 0.2500 0.2500 0.91752(9)
H2_5 H 0.2500 0.2500 0.8958
C12_5 C 0.30255(9) 0.11048(9) 0.96800(9)
H7_5 H 0.2862 0.0967 0.9721
C13_5 C 0.32315(8) 0.10399(8) 0.94342(8)
H8_5 H 0.3197 0.0867 0.9307
C14_5 C 0.34821(6) 0.12292(7) 0.93802(7)
C15_5 C 0.35092(8) 0.14899(7) 0.95693(7)
H9_5 H 0.3672 0.1631 0.9538
C16_5 C 0.32985(9) 0.15402(8) 0.98002(9)
H10_5 H 0.3325 0.1715 0.9927
C17_5 C 0.37014(6) 0.11609(6) 0.91223(6)
N3_5 N 0.30582(6) 0.13567(6) 0.98558(6)
N4_5 N 0.36358(5) 0.09208(6) 0.89383(6)
O2_5 O 0.22301(5) 0.17239(4) 0.97261(5)
C18_5 C 0.25622(6) 0.30884(6) 0.98159(6)
C29_5 C 0.25368(6) 0.27793(6) 0.96594(6)
C45_5 C 0.25406(7) 0.27733(7) 0.93307(6)
H11_5 H 0.2571 0.2958 0.9219
C127_5 C 0.38952(9) 0.03200(9) 0.80255(9)
C128_5 C 0.46800(9) 0.19745(9) 0.88952(9)
H71_5 H 0.4033 0.0279 0.7862
H72_5 H 0.4721 0.2138 0.9033
C138_5 C 0.39601(8) 0.05658(8) 0.82315(8)
C139_5 C 0.44342(8) 0.17685(8) 0.89601(8)
H82_5 H 0.4133 0.0693 0.8197
H83_5 H 0.4307 0.1803 0.9133
C149_5 C 0.37708(7) 0.06198(7) 0.84821(6)
C150_5 C 0.43802(7) 0.15179(6) 0.87708(7)
C160_5 C 0.35101(7) 0.04307(7) 0.85092(8)
C161_5 C 0.45693(7) 0.14908(8) 0.85101(7)
H93_5 H 0.3369 0.0462 0.8672
H94_5 H 0.4538 0.1328 0.8369
C171_5 C 0.34598(8) 0.01998(9) 0.82985(9)
C172_5 C 0.48002(9) 0.17015(9) 0.84598(8)
H104_5 H 0.3285 0.0073 0.8325
H105_5 H 0.4927 0.1675 0.8285
C182_5 C 0.38391(6) 0.08777(6) 0.87014(6)
C183_5 C 0.41223(6) 0.12986(6) 0.88391(6)
N16_5 N 0.35185(5) 0.24468(6) 0.93858(5)
N17_4 N 0.14815(5) 0.25532(6) 0.93858(5)
N29_5 N 0.36433(6) 0.01442(6) 0.80582(6)
N30_5 N 0.48558(6) 0.19418(6) 0.86433(6)
N45_5 N 0.63567(6) 0.51442(6) 0.69418(6)
N46_5 N 0.40792(6) 0.10617(6) 0.86358(5)
N47_5 N 0.39383(6) 0.13642(5) 0.90792(6)
Ni7_5 Ni 0.357346(9) 0.274780(9) 0.976776(9)
Ni8_4 Ni 0.142654(9) 0.225220(9) 0.976776(9)
O7_5 O 0.31512(4) 0.26299(4) 0.99703(4)
O8_4 O 0.18488(4) 0.23701(4) 0.99703(4)
O18_5 O 0.50297(4) 0.23701(4) 0.81512(4)
O22_5 O 0.68488(4) 0.49703(4) 0.73701(4)
O23_5 O 0.27699(5) 0.32761(4) 0.97261(5)
O37_5 O 0.50036(7) 0.25960(6) 0.88165(5)
O39_5 O 0.38165(5) 0.24040(6) 0.99964(7)
O40_4 O 0.11835(5) 0.25960(6) 0.99964(7)
O44_5 O 0.61835(5) 0.49964(7) 0.75960(6)
O48_5 O 0.54096(7) 0.20995(7) 0.90020(6)
O50_5 O 0.40020(6) 0.29005(7) 0.95904(7)
O51_4 O 0.09980(6) 0.20995(7) 0.95904(7)
O55_5 O 0.59980(6) 0.45904(7) 0.70995(7)
O59_5 O 0.54881(5) 0.19173(5) 0.83330(5)
O61_5 O 0.33330(5) 0.30827(5) 0.95119(5)
O62_4 O 0.16670(5) 0.19173(5) 0.95119(5)
O66_5 O 0.66670(5) 0.45119(5) 0.69173(5)
H115_3 H 0.221716 0.131904 0.997829
H116_3 H 0.248124 0.111832 0.979454
H141_3 H 0.400465 0.234697 0.987284
H171_5 H 0.368096 0.00217143 0.721716
H172_5 H 0.388168 0.0205462 0.748124
H175_3 H 0.0995346 0.265303 0.987284
C21_2 C 0.19116(6) 0.98159(6) 0.24378(6)
C22_2 C 0.30884(6) 0.98159(6) 0.25622(6)
C32_2 C 0.22207(6) 0.96594(6) 0.24632(6)
C33_2 C 0.27793(6) 0.96594(6) 0.25368(6)
C41_2 C 0.2500 0.98249(7) 0.2500
C48_2 C 0.22267(7) 0.93307(6) 0.24594(7)
C49_2 C 0.27733(7) 0.93307(6) 0.25406(7)
H14_2 H 0.2042 0.9219 0.2429
H15_2 H 0.2958 0.9219 0.2571
C57_2 C 0.2500 0.91752(9) 0.2500
H23_2 H 0.2500 0.8958 0.2500
C129_5 C 0.11048(9) 0.96800(9) 0.30255(9)
C130_5 C 0.03200(9) 0.80255(9) 0.38952(9)
C131_5 C 0.19745(9) 0.88952(9) 0.46800(9)
H73_5 H 0.0967 0.9721 0.2862
H74_5 H 0.0279 0.7862 0.4033
H75_5 H 0.2138 0.9033 0.4721
C140_5 C 0.10399(8) 0.94342(8) 0.32315(8)
C141_5 C 0.05658(8) 0.82315(8) 0.39601(8)
C142_5 C 0.17685(8) 0.89601(8) 0.44342(8)
H84_5 H 0.0867 0.9307 0.3197
H85_5 H 0.0693 0.8197 0.4133
H86_5 H 0.1803 0.9133 0.4307
C151_5 C 0.12292(7) 0.93802(7) 0.34821(6)
C152_5 C 0.06198(7) 0.84821(6) 0.37708(7)
C153_5 C 0.15179(6) 0.87708(7) 0.43802(7)
C162_5 C 0.14899(7) 0.95693(7) 0.35092(8)
C163_5 C 0.04307(7) 0.85092(8) 0.35101(7)
C164_5 C 0.14908(8) 0.85101(7) 0.45693(7)
H95_5 H 0.1631 0.9538 0.3672
H96_5 H 0.0462 0.8672 0.3369
H97_5 H 0.1328 0.8369 0.4538
C173_5 C 0.15402(8) 0.98002(9) 0.32985(9)
C174_5 C 0.01998(9) 0.82985(9) 0.34598(8)
C175_5 C 0.17015(9) 0.84598(8) 0.48002(9)
H106_5 H 0.1715 0.9927 0.3325
H107_5 H 0.0073 0.8325 0.3285
H108_5 H 0.1675 0.8285 0.4927
C184_5 C 0.11609(6) 0.91223(6) 0.37014(6)
C185_5 C 0.08777(6) 0.87014(6) 0.38391(6)
C186_5 C 0.12986(6) 0.88391(6) 0.41223(6)
N31_5 N 0.13567(6) 0.98558(6) 0.30582(6)
N32_5 N 0.01442(6) 0.80582(6) 0.36433(6)
N33 N 0.19418(6) 0.86433(6) 0.48558(6)
N48_5 N 0.09208(6) 0.89383(6) 0.36358(5)
N49_5 N 0.10617(6) 0.86358(5) 0.40792(6)
N50_5 N 0.13642(5) 0.90792(6) 0.39383(6)
Ni14 Ni 0.225220(9) 0.857346(9) 0.523224(9)
Ni17_2 Ni 0.225220(9) 0.976776(9) 0.142654(9)
O11_2 O 0.26299(4) 0.99703(4) 0.31512(4)
O12_2 O 0.23701(4) 0.99703(4) 0.18488(4)
O26_2 O 0.17239(4) 0.97261(5) 0.22301(5)
O27_2 O 0.32761(4) 0.97261(5) 0.27699(5)
H173_5 H 0.131904 0.997829 0.221716
H174_5 H 0.111832 0.979454 0.248124
C63_5 C 0.32633(8) 0.93543(8) 0.72745(9)
C64_5 C 0.43543(8) 0.77255(9) 0.67367(8)
C65_5 C 0.27255(9) 0.82633(8) 0.56457(8)
H29_5 H 0.3101 0.9498 0.7298
H30_5 H 0.4498 0.7702 0.6899
H31_5 H 0.2702 0.8101 0.5502
C74_5 C 0.32305(8) 0.91079(8) 0.70555(8)
C75_5 C 0.41079(8) 0.79445(8) 0.67695(8)
C76_5 C 0.29445(8) 0.82305(8) 0.58921(8)
H40_5 H 0.3052 0.9097 0.6932
H41_5 H 0.4097 0.8068 0.6948
H42_5 H 0.3068 0.8052 0.5903
C85_5 C 0.34514(6) 0.88924(6) 0.70247(6)
C86_5 C 0.38924(6) 0.79753(6) 0.65486(6)
C87_5 C 0.29753(6) 0.84514(6) 0.61076(6)
C96_5 C 0.37130(7) 0.89219(8) 0.72148(8)
C97_5 C 0.39219(8) 0.77852(8) 0.62870(7)
C98_5 C 0.27852(8) 0.87130(7) 0.60781(8)
H51_5 H 0.3868 0.8770 0.7211
H52_5 H 0.3770 0.7789 0.6132
H53_5 H 0.2789 0.8868 0.6230
C107_5 C 0.37419(8) 0.91745(8) 0.74066(9)
C108_5 C 0.41745(8) 0.75934(9) 0.62581(8)
C109_5 C 0.25934(9) 0.87419(8) 0.58255(8)
H62_5 H 0.3928 0.9200 0.7515
H63_5 H 0.4200 0.7485 0.6072
H64_5 H 0.2485 0.8928 0.5800
C118_5 C 0.34372(6) 0.86394(6) 0.67921(6)
C119_5 C 0.36394(6) 0.82079(6) 0.65628(6)
C120_5 C 0.32079(6) 0.84372(6) 0.63606(6)
N7_5 N 0.35185(5) 0.93858(5) 0.74468(6)
N8_5 N 0.43858(5) 0.75532(6) 0.64815(5)
N9_2 N 0.25532(6) 0.85185(5) 0.56142(5)
N20_5 N 0.36568(5) 0.84215(5) 0.67962(5)
N21_5 N 0.34215(5) 0.82038(5) 0.63432(5)
N22_5 N 0.32038(5) 0.86568(5) 0.65785(5)
N42_5 N 0.51442(6) 0.69418(6) 0.63567(6)
Ni9_5 Ni 0.476776(9) 0.725220(9) 0.642654(9)
O19_5 O 0.49703(4) 0.73701(4) 0.68488(4)
O20_2 O 0.23701(4) 0.81512(4) 0.50297(4)
O36_5 O 0.38165(5) 0.99964(7) 0.74040(6)
O41_5 O 0.49964(7) 0.75960(6) 0.61835(5)
O42_2 O 0.25960(6) 0.88165(5) 0.50036(7)
O47_5 O 0.40020(6) 0.95904(7) 0.79005(7)
O52_5 O 0.45904(7) 0.70995(7) 0.59980(6)
O53_2 O 0.20995(7) 0.90020(6) 0.54096(7)
O58_5 O 0.33330(5) 0.95119(5) 0.80827(5)
O63_5 O 0.45119(5) 0.69173(5) 0.66670(5)
O64_2 O 0.19173(5) 0.83330(5) 0.54881(5)
C25_4 C 0.98159(6) 0.24378(6) 0.19116(6)
C26_4 C 0.98159(6) 0.25622(6) 0.30884(6)
C36_4 C 0.96594(6) 0.24632(6) 0.22207(6)
C37_4 C 0.96594(6) 0.25368(6) 0.27793(6)
C43_4 C 0.98249(7) 0.2500 0.2500
C52_4 C 0.93307(6) 0.24594(7) 0.22267(7)
C53_4 C 0.93307(6) 0.25406(7) 0.27733(7)
H18_4 H 0.9219 0.2429 0.2042
H19_4 H 0.9219 0.2571 0.2958
C59_4 C 0.91752(9) 0.2500 0.2500
H25_4 H 0.8958 0.2500 0.2500
Ni22_4 Ni 0.976776(9) 0.142654(9) 0.225220(9)
O16_4 O 0.99703(4) 0.18488(4) 0.23701(4)
O30_4 O 0.97261(5) 0.22301(5) 0.17239(4)
O31_4 O 0.97261(5) 0.27699(5) 0.32761(4)
H165_5 H 0.997829 0.221716 0.131904
H166_5 H 0.979454 0.248124 0.111832
Ni13_2 Ni 0.976776(9) 0.774780(9) 0.357346(9)
H165_6 H 0.221716 0.00217143 0.368096
H166_6 H 0.248124 0.0205462 0.388168
C1_6 C 0.19116(6) 0.75622(6) 0.51841(6)
C2_6 C 0.22207(6) 0.75368(6) 0.53406(6)
C3_6 C 0.2500 0.7500 0.51751(7)
C4_6 C 0.22267(7) 0.75406(7) 0.56693(6)
H1_6 H 0.2042 0.7571 0.5781
C5_6 C 0.2500 0.7500 0.58248(9)
H2_6 H 0.2500 0.7500 0.6042
C6_6 C 0.17367(8) 0.77255(9) 0.43543(8)
H3_6 H 0.1899 0.7702 0.4498
C7_6 C 0.17695(8) 0.79445(8) 0.41079(8)
H4_6 H 0.1948 0.8068 0.4097
C8_6 C 0.15486(6) 0.79753(6) 0.38924(6)
C9_6 C 0.12870(7) 0.77852(8) 0.39219(8)
H5_6 H 0.1132 0.7789 0.3770
C10_6 C 0.12581(8) 0.75934(9) 0.41745(8)
H6_6 H 0.1072 0.7485 0.4200
C11_6 C 0.15628(6) 0.82079(6) 0.36394(6)
C12_6 C 0.11048(9) 0.69745(9) 0.53200(9)
H7_6 H 0.0967 0.7138 0.5279
C13_6 C 0.10399(8) 0.67685(8) 0.55658(8)
H8_6 H 0.0867 0.6803 0.5693
C14_6 C 0.12292(7) 0.65179(6) 0.56198(7)
C15_6 C 0.14899(7) 0.64908(8) 0.54307(7)
H9_6 H 0.1631 0.6328 0.5462
C16_6 C 0.15402(8) 0.67015(9) 0.51998(9)
H10_6 H 0.1715 0.6675 0.5073
C17_6 C 0.11609(6) 0.62986(6) 0.58777(6)
N1_6 N 0.14815(5) 0.75532(6) 0.43858(5)
N2_6 N 0.13432(5) 0.82038(5) 0.34215(5)
N3_6 N 0.13567(6) 0.69418(6) 0.51442(6)
N4_6 N 0.09208(6) 0.63642(5) 0.60617(6)
Ni1_6 Ni 0.142654(9) 0.725220(9) 0.476776(9)
O1_6 O 0.18488(4) 0.73701(4) 0.49703(4)
O2_6 O 0.17239(4) 0.77699(5) 0.52739(5)
O3_6 O 0.11835(5) 0.75960(6) 0.49964(7)
O4_6 O 0.09980(6) 0.70995(7) 0.45904(7)
O5_6 O 0.16670(5) 0.69173(5) 0.45119(5)
C18_6 C 0.30884(6) 0.74378(6) 0.51841(6)
C19_6 C 0.24378(6) 0.69116(6) 0.48159(6)
C20_6 C 0.25622(6) 0.80884(6) 0.48159(6)
C23_3 C 0.01841(6) 0.75622(6) 0.19116(6)
C24_3 C 0.01841(6) 0.74378(6) 0.30884(6)
C29_6 C 0.27793(6) 0.74632(6) 0.53406(6)
C30_6 C 0.24632(6) 0.72207(6) 0.46594(6)
C31_6 C 0.25368(6) 0.77793(6) 0.46594(6)
C34_3 C 0.03406(6) 0.75368(6) 0.22207(6)
C35_3 C 0.03406(6) 0.74632(6) 0.27793(6)
C40_6 C 0.2500 0.7500 0.48249(7)
C42_3 C 0.01751(7) 0.7500 0.2500
C45_6 C 0.27733(7) 0.74594(7) 0.56693(6)
C46_6 C 0.24594(7) 0.72267(7) 0.43307(6)
C47_6 C 0.25406(7) 0.77733(7) 0.43307(6)
C50_3 C 0.06693(6) 0.75406(7) 0.22267(7)
C51_3 C 0.06693(6) 0.74594(7) 0.27733(7)
H11_6 H 0.2958 0.7429 0.5781
H12_6 H 0.2429 0.7042 0.4219
H13_6 H 0.2571 0.7958 0.4219
H16_3 H 0.0781 0.7571 0.2042
H17_3 H 0.0781 0.7429 0.2958
C56_6 C 0.2500 0.7500 0.41752(9)
C58_3 C 0.08248(9) 0.7500 0.2500
H22_6 H 0.2500 0.7500 0.3958
H24_3 H 0.1042 0.7500 0.2500
C61_6 C 0.06457(8) 0.82633(8) 0.27255(9)
C62_6 C 0.22745(9) 0.93543(8) 0.32633(8)
H27_6 H 0.0502 0.8101 0.2702
H28_6 H 0.2298 0.9498 0.3101
C72_6 C 0.08921(8) 0.82305(8) 0.29445(8)
C73_6 C 0.20555(8) 0.91079(8) 0.32305(8)
H38_6 H 0.0903 0.8052 0.3068
H39_6 H 0.1932 0.9097 0.3052
C83_6 C 0.11076(6) 0.84514(6) 0.29753(6)
C84_6 C 0.20247(6) 0.88924(6) 0.34514(6)
C94_6 C 0.10781(8) 0.87130(7) 0.27852(8)
C95_6 C 0.22148(8) 0.89219(8) 0.37130(7)
H49_6 H 0.1230 0.8868 0.2789
H50_6 H 0.2211 0.8770 0.3868
C105_6 C 0.08255(8) 0.87419(8) 0.25934(9)
C106_6 C 0.24066(9) 0.91745(8) 0.37419(8)
H60_6 H 0.0800 0.8928 0.2485
H61_6 H 0.2515 0.9200 0.3928
C116_6 C 0.13606(6) 0.84372(6) 0.32079(6)
C117_6 C 0.17921(6) 0.86394(6) 0.34372(6)
C127_6 C 0.03200(9) 0.61048(9) 0.69745(9)
C128_6 C 0.19745(9) 0.53200(9) 0.61048(9)
H71_6 H 0.0279 0.5967 0.7138
H72_6 H 0.2138 0.5279 0.5967
C138_6 C 0.05658(8) 0.60399(8) 0.67685(8)
C139_6 C 0.17685(8) 0.55658(8) 0.60399(8)
H82_6 H 0.0693 0.5867 0.6803
H83_6 H 0.1803 0.5693 0.5867
C149_6 C 0.06198(7) 0.62292(7) 0.65179(6)
C150_6 C 0.15179(6) 0.56198(7) 0.62292(7)
C160_6 C 0.04307(7) 0.64899(7) 0.64908(8)
C161_6 C 0.14908(8) 0.54307(7) 0.64899(7)
H93_6 H 0.0462 0.6631 0.6328
H94_6 H 0.1328 0.5462 0.6631
C171_6 C 0.01998(9) 0.65402(8) 0.67015(9)
C172_6 C 0.17015(9) 0.51998(9) 0.65402(8)
H104_6 H 0.0073 0.6715 0.6675
H105_6 H 0.1675 0.5073 0.6715
C182_6 C 0.08777(6) 0.61609(6) 0.62986(6)
C183_6 C 0.12986(6) 0.58777(6) 0.61609(6)
N5_6 N 0.06142(5) 0.85185(5) 0.25532(6)
N6_6 N 0.24468(6) 0.93858(5) 0.35185(5)
N16_6 N 0.24468(6) 0.64815(5) 0.56142(5)
N18_6 N 0.15785(5) 0.86568(5) 0.32038(5)
N19_6 N 0.17962(5) 0.84215(5) 0.36568(5)
N29_6 N 0.01442(6) 0.63567(6) 0.69418(6)
N30_6 N 0.19418(6) 0.51442(6) 0.63567(6)
N40_6 N 0.30582(6) 0.63567(6) 0.48558(6)
N45_6 N 0.51442(6) 0.36433(6) 0.80582(6)
N46_6 N 0.10617(6) 0.59208(6) 0.63642(5)
N47_6 N 0.13642(5) 0.60617(6) 0.59208(6)
Ni2_3 Ni 0.023224(9) 0.857346(9) 0.225220(9)
Ni7_6 Ni 0.274780(9) 0.642654(9) 0.523224(9)
O7_6 O 0.26299(4) 0.68488(4) 0.50297(4)
O9_3 O 0.00297(4) 0.81512(4) 0.23701(4)
O18_6 O 0.23701(4) 0.49703(4) 0.68488(4)
O22_6 O 0.49703(4) 0.31512(4) 0.76299(4)
O23_6 O 0.32761(4) 0.72301(5) 0.52739(5)
O24_6 O 0.22301(5) 0.67239(4) 0.47261(5)
O25_6 O 0.27699(5) 0.82761(4) 0.47261(5)
O28_3 O 0.02739(5) 0.77699(5) 0.17239(4)
O29_3 O 0.02739(5) 0.72301(5) 0.32761(4)
O34_6 O 0.00036(7) 0.88165(5) 0.25960(6)
O35_6 O 0.24040(6) 0.99964(7) 0.38165(5)
O37_6 O 0.25960(6) 0.49964(7) 0.61835(5)
O39_6 O 0.24040(6) 0.61835(5) 0.50036(7)
O44_6 O 0.49964(7) 0.38165(5) 0.74040(6)
O45_6 O 0.04096(7) 0.90020(6) 0.20995(7)
O46_6 O 0.29005(7) 0.95904(7) 0.40020(6)
O48_6 O 0.20995(7) 0.45904(7) 0.59980(6)
O50_6 O 0.29005(7) 0.59980(6) 0.54096(7)
O55_6 O 0.45904(7) 0.40020(6) 0.79005(7)
O56_6 O 0.04881(5) 0.83330(5) 0.19173(5)
O57_6 O 0.30827(5) 0.95119(5) 0.33330(5)
O59_6 O 0.19173(5) 0.45119(5) 0.66670(5)
O61_6 O 0.30827(5) 0.66670(5) 0.54881(5)
O66_6 O 0.45119(5) 0.33330(5) 0.80827(5)
H171_6 H 0.00217143 0.631904 0.778284
H172_6 H 0.0205462 0.611832 0.751876
Ni13_3 Ni 0.774780(9) 0.023224(9) 0.142654(9)
N43_2 N 0.86433(6) 0.80582(6) 0.01442(6)
H127_3 H 0.868096 0.721716 0.00217143
H128 H 0.888168 0.748124 0.0205462
C21_3 C 0.98159(6) 0.80884(6) 0.25622(6)
C22_3 C 0.98159(6) 0.69116(6) 0.24378(6)
C32_3 C 0.96594(6) 0.77793(6) 0.25368(6)
C33_3 C 0.96594(6) 0.72207(6) 0.24632(6)
C41_3 C 0.98249(7) 0.7500 0.2500
C48_3 C 0.93307(6) 0.77733(7) 0.25406(7)
C49_3 C 0.93307(6) 0.72267(7) 0.24594(7)
H14_3 H 0.9219 0.7958 0.2571
H15_3 H 0.9219 0.7042 0.2429
C57_3 C 0.91752(9) 0.7500 0.2500
H23_3 H 0.8958 0.7500 0.2500
C63_6 C 0.93543(8) 0.67367(8) 0.77255(9)
C64_6 C 0.77255(9) 0.56457(8) 0.82633(8)
C65_6 C 0.82633(8) 0.72745(9) 0.93543(8)
H29_6 H 0.9498 0.6899 0.7702
H30_6 H 0.7702 0.5502 0.8101
H31_6 H 0.8101 0.7298 0.9498
C74_6 C 0.91079(8) 0.67695(8) 0.79445(8)
C75_6 C 0.79445(8) 0.58921(8) 0.82305(8)
C76_6 C 0.82305(8) 0.70555(8) 0.91079(8)
H40_6 H 0.9097 0.6948 0.8068
H41_6 H 0.8068 0.5903 0.8052
H42_6 H 0.8052 0.6932 0.9097
C85_6 C 0.88924(6) 0.65486(6) 0.79753(6)
C86_6 C 0.79753(6) 0.61076(6) 0.84514(6)
C87_6 C 0.84514(6) 0.70247(6) 0.88924(6)
C96_6 C 0.89219(8) 0.62870(7) 0.77852(8)
C97_6 C 0.77852(8) 0.60781(8) 0.87130(7)
C98_6 C 0.87130(7) 0.72148(8) 0.89219(8)
H51_6 H 0.8770 0.6132 0.7789
H52_6 H 0.7789 0.6230 0.8868
H53_6 H 0.8868 0.7211 0.8770
C107_6 C 0.91745(8) 0.62581(8) 0.75934(9)
C108_6 C 0.75934(9) 0.58255(8) 0.87419(8)
C109_6 C 0.87419(8) 0.74066(9) 0.91745(8)
H62_6 H 0.9200 0.6072 0.7485
H63_6 H 0.7485 0.5800 0.8928
H64_6 H 0.8928 0.7515 0.9200
C118_6 C 0.86394(6) 0.65628(6) 0.82079(6)
C119_6 C 0.82079(6) 0.63606(6) 0.84372(6)
C120_6 C 0.84372(6) 0.67921(6) 0.86394(6)
C129_6 C 0.96800(9) 0.88952(9) 0.19745(9)
C130_6 C 0.80255(9) 0.96800(9) 0.11048(9)
C131_6 C 0.88952(9) 0.80255(9) 0.03200(9)
H73_6 H 0.9721 0.9033 0.2138
H74_6 H 0.7862 0.9721 0.0967
H75_6 H 0.9033 0.7862 0.0279
C140_6 C 0.94342(8) 0.89601(8) 0.17685(8)
C141_6 C 0.82315(8) 0.94342(8) 0.10399(8)
C142_6 C 0.89601(8) 0.82315(8) 0.05658(8)
H84_6 H 0.9307 0.9133 0.1803
H85_6 H 0.8197 0.9307 0.0867
H86_6 H 0.9133 0.8197 0.0693
C151_6 C 0.93802(7) 0.87708(7) 0.15179(6)
C152_6 C 0.84821(6) 0.93802(7) 0.12292(7)
C153_6 C 0.87708(7) 0.84821(6) 0.06198(7)
C162_6 C 0.95693(7) 0.85101(7) 0.14908(8)
C163_6 C 0.85092(8) 0.95693(7) 0.14899(7)
C164_6 C 0.85101(7) 0.85092(8) 0.04307(7)
H95_6 H 0.9538 0.8369 0.1328
H96_6 H 0.8672 0.9538 0.1631
H97_6 H 0.8369 0.8672 0.0462
C173_6 C 0.98002(9) 0.84598(8) 0.17015(9)
C174_6 C 0.82985(9) 0.98002(9) 0.15402(8)
C175_6 C 0.84598(8) 0.82985(9) 0.01998(9)
H106_6 H 0.9927 0.8285 0.1675
H107_6 H 0.8325 0.9927 0.1715
H108_6 H 0.8285 0.8325 0.0073
C184_6 C 0.91223(6) 0.88391(6) 0.12986(6)
C185_6 C 0.87014(6) 0.91223(6) 0.11609(6)
C186_6 C 0.88391(6) 0.87014(6) 0.08777(6)
N7_6 N 0.93858(5) 0.64815(5) 0.75532(6)
N8_6 N 0.75532(6) 0.56142(5) 0.85185(5)
N9_3 N 0.85185(5) 0.74468(6) 0.93858(5)
N20_6 N 0.84215(5) 0.63432(5) 0.82038(5)
N21_6 N 0.82038(5) 0.65785(5) 0.86568(5)
N22_6 N 0.86568(5) 0.67962(5) 0.84215(5)
N31_6 N 0.98558(6) 0.86433(6) 0.19418(6)
N32_6 N 0.80582(6) 0.98558(6) 0.13567(6)
N42_6 N 0.69418(6) 0.48558(6) 0.86433(6)
N48_6 N 0.89383(6) 0.90792(6) 0.13642(5)
N49_6 N 0.86358(5) 0.89383(6) 0.09208(6)
N50_6 N 0.90792(6) 0.86358(5) 0.10617(6)
Ni9_6 Ni 0.725220(9) 0.523224(9) 0.857346(9)
Ni10_2 Ni 0.857346(9) 0.774780(9) 0.976776(9)
O11_3 O 0.99703(4) 0.73701(4) 0.18488(4)
O12_3 O 0.99703(4) 0.76299(4) 0.31512(4)
O19_6 O 0.73701(4) 0.50297(4) 0.81512(4)
O20_3 O 0.81512(4) 0.76299(4) 0.99703(4)
O26_3 O 0.97261(5) 0.82761(4) 0.27699(5)
O27_3 O 0.97261(5) 0.67239(4) 0.22301(5)
O36_6 O 0.99964(7) 0.61835(5) 0.75960(6)
O41_6 O 0.75960(6) 0.50036(7) 0.88165(5)
O42_3 O 0.88165(5) 0.74040(6) 0.99964(7)
O47_6 O 0.95904(7) 0.59980(6) 0.70995(7)
O52_6 O 0.70995(7) 0.54096(7) 0.90020(6)
O53_3 O 0.90020(6) 0.79005(7) 0.95904(7)
O58_6 O 0.95119(5) 0.66670(5) 0.69173(5)
O63_6 O 0.69173(5) 0.54881(5) 0.83330(5)
O64_3 O 0.83330(5) 0.80827(5) 0.95119(5)
H173_6 H 0.997829 0.868096 0.278284
H174_6 H 0.979454 0.888168 0.251876
H165_7 H 0.00217143 0.778284 0.131904
H166_7 H 0.0205462 0.751876 0.111832
C21_4 C 0.80884(6) 0.01841(6) 0.24378(6)
C22_4 C 0.69116(6) 0.01841(6) 0.25622(6)
C32_4 C 0.77793(6) 0.03406(6) 0.24632(6)
C33_4 C 0.72207(6) 0.03406(6) 0.25368(6)
C41_4 C 0.7500 0.01751(7) 0.2500
C48_4 C 0.77733(7) 0.06693(6) 0.24594(7)
C49_4 C 0.72267(7) 0.06693(6) 0.25406(7)
H14_4 H 0.7958 0.0781 0.2429
H15_4 H 0.7042 0.0781 0.2571
C57_4 C 0.7500 0.08248(9) 0.2500
H23_4 H 0.7500 0.1042 0.2500
C129_7 C 0.88952(9) 0.03200(9) 0.30255(9)
C130_7 C 0.96800(9) 0.19745(9) 0.38952(9)
C131_7 C 0.80255(9) 0.11048(9) 0.46800(9)
H73_7 H 0.9033 0.0279 0.2862
H74_7 H 0.9721 0.2138 0.4033
H75_7 H 0.7862 0.0967 0.4721
C140_7 C 0.89601(8) 0.05658(8) 0.32315(8)
C141_7 C 0.94342(8) 0.17685(8) 0.39601(8)
C142_7 C 0.82315(8) 0.10399(8) 0.44342(8)
H84_7 H 0.9133 0.0693 0.3197
H85_7 H 0.9307 0.1803 0.4133
H86_7 H 0.8197 0.0867 0.4307
C151_7 C 0.87708(7) 0.06198(7) 0.34821(6)
C152_7 C 0.93802(7) 0.15179(6) 0.37708(7)
C153_7 C 0.84821(6) 0.12292(7) 0.43802(7)
C162_7 C 0.85101(7) 0.04307(7) 0.35092(8)
C163_7 C 0.95693(7) 0.14908(8) 0.35101(7)
C164_7 C 0.85092(8) 0.14899(7) 0.45693(7)
H95_7 H 0.8369 0.0462 0.3672
H96_7 H 0.9538 0.1328 0.3369
H97_7 H 0.8672 0.1631 0.4538
C173_7 C 0.84598(8) 0.01998(9) 0.32985(9)
C174_7 C 0.98002(9) 0.17015(9) 0.34598(8)
C175_7 C 0.82985(9) 0.15402(8) 0.48002(9)
H106_7 H 0.8285 0.0073 0.3325
H107_7 H 0.9927 0.1675 0.3285
H108_7 H 0.8325 0.1715 0.4927
C184_7 C 0.88391(6) 0.08777(6) 0.37014(6)
C185_7 C 0.91223(6) 0.12986(6) 0.38391(6)
C186_7 C 0.87014(6) 0.11609(6) 0.41223(6)
N31_7 N 0.86433(6) 0.01442(6) 0.30582(6)
N32_7 N 0.98558(6) 0.19418(6) 0.36433(6)
N33_2 N 0.80582(6) 0.13567(6) 0.48558(6)
N48_7 N 0.90792(6) 0.10617(6) 0.36358(5)
N49_7 N 0.89383(6) 0.13642(5) 0.40792(6)
N50_7 N 0.86358(5) 0.09208(6) 0.39383(6)
Ni14_2 Ni 0.774780(9) 0.142654(9) 0.523224(9)
O11_4 O 0.73701(4) 0.00297(4) 0.31512(4)
O12_4 O 0.76299(4) 0.00297(4) 0.18488(4)
O26_4 O 0.82761(4) 0.02739(5) 0.22301(5)
O27_4 O 0.67239(4) 0.02739(5) 0.27699(5)
H173_7 H 0.868096 0.00217143 0.221716
H174_7 H 0.888168 0.0205462 0.248124
C63_7 C 0.67367(8) 0.06457(8) 0.72745(9)
C64_7 C 0.56457(8) 0.22745(9) 0.67367(8)
C65_7 C 0.72745(9) 0.17367(8) 0.56457(8)
H29_7 H 0.6899 0.0502 0.7298
H30_7 H 0.5502 0.2298 0.6899
H31_7 H 0.7298 0.1899 0.5502
C74_7 C 0.67695(8) 0.08921(8) 0.70555(8)
C75_7 C 0.58921(8) 0.20555(8) 0.67695(8)
C76_7 C 0.70555(8) 0.17695(8) 0.58921(8)
H40_7 H 0.6948 0.0903 0.6932
H41_7 H 0.5903 0.1932 0.6948
H42_7 H 0.6932 0.1948 0.5903
C85_7 C 0.65486(6) 0.11076(6) 0.70247(6)
C86_7 C 0.61076(6) 0.20247(6) 0.65486(6)
C87_7 C 0.70247(6) 0.15486(6) 0.61076(6)
C96_7 C 0.62870(7) 0.10781(8) 0.72148(8)
C97_7 C 0.60781(8) 0.22148(8) 0.62870(7)
C98_7 C 0.72148(8) 0.12870(7) 0.60781(8)
H51_7 H 0.6132 0.1230 0.7211
H52_7 H 0.6230 0.2211 0.6132
H53_7 H 0.7211 0.1132 0.6230
C107_7 C 0.62581(8) 0.08255(8) 0.74066(9)
C108_7 C 0.58255(8) 0.24066(9) 0.62581(8)
C109_7 C 0.74066(9) 0.12581(8) 0.58255(8)
H62_7 H 0.6072 0.0800 0.7515
H63_7 H 0.5800 0.2515 0.6072
H64_7 H 0.7515 0.1072 0.5800
C118_7 C 0.65628(6) 0.13606(6) 0.67921(6)
C119_7 C 0.63606(6) 0.17921(6) 0.65628(6)
C120_7 C 0.67921(6) 0.15628(6) 0.63606(6)
N7_7 N 0.64815(5) 0.06142(5) 0.74468(6)
N8_7 N 0.56142(5) 0.24468(6) 0.64815(5)
N9_4 N 0.74468(6) 0.14815(5) 0.56142(5)
N20_7 N 0.63432(5) 0.15785(5) 0.67962(5)
N21_7 N 0.65785(5) 0.17962(5) 0.63432(5)
N22_7 N 0.67962(5) 0.13432(5) 0.65785(5)
N42_7 N 0.48558(6) 0.30582(6) 0.63567(6)
Ni9_7 Ni 0.523224(9) 0.274780(9) 0.642654(9)
O19_7 O 0.50297(4) 0.26299(4) 0.68488(4)
O20_4 O 0.76299(4) 0.18488(4) 0.50297(4)
O36_7 O 0.61835(5) 0.00036(7) 0.74040(6)
O41_7 O 0.50036(7) 0.24040(6) 0.61835(5)
O42_4 O 0.74040(6) 0.11835(5) 0.50036(7)
O47_7 O 0.59980(6) 0.04096(7) 0.79005(7)
O52_7 O 0.54096(7) 0.29005(7) 0.59980(6)
O53_4 O 0.79005(7) 0.09980(6) 0.54096(7)
O58_7 O 0.66670(5) 0.04881(5) 0.80827(5)
O63_7 O 0.54881(5) 0.30827(5) 0.66670(5)
O64_4 O 0.80827(5) 0.16670(5) 0.54881(5)
C6_7 C 0.77255(9) 0.82633(8) 0.06457(8)
H3_7 H 0.7702 0.8101 0.0502
C7_7 C 0.79445(8) 0.82305(8) 0.08921(8)
H4_7 H 0.8068 0.8052 0.0903
C8_7 C 0.79753(6) 0.84514(6) 0.11076(6)
C9_7 C 0.77852(8) 0.87130(7) 0.10781(8)
H5_7 H 0.7789 0.8868 0.1230
C10_7 C 0.75934(9) 0.87419(8) 0.08255(8)
H6_7 H 0.7485 0.8928 0.0800
C11_7 C 0.82079(6) 0.84372(6) 0.13606(6)
N1_7 N 0.75532(6) 0.85185(5) 0.06142(5)
N2_7 N 0.82038(5) 0.86568(5) 0.15785(5)
Ni1_7 Ni 0.725220(9) 0.857346(9) 0.023224(9)
O1_7 O 0.73701(4) 0.81512(4) 0.00297(4)
O3_7 O 0.75960(6) 0.88165(5) 0.00036(7)
O4_7 O 0.70995(7) 0.90020(6) 0.04096(7)
O5_7 O 0.69173(5) 0.83330(5) 0.04881(5)
C19_7 C 0.69116(6) 0.75622(6) 0.01841(6)
C20_7 C 0.80884(6) 0.74378(6) 0.01841(6)
C23_4 C 0.75622(6) 0.98159(6) 0.30884(6)
C24_4 C 0.74378(6) 0.98159(6) 0.19116(6)
C30_7 C 0.72207(6) 0.75368(6) 0.03406(6)
C31_7 C 0.77793(6) 0.74632(6) 0.03406(6)
C34_4 C 0.75368(6) 0.96594(6) 0.27793(6)
C35_4 C 0.74632(6) 0.96594(6) 0.22207(6)
C40_7 C 0.7500 0.7500 0.01751(7)
C42_4 C 0.7500 0.98249(7) 0.2500
C46_7 C 0.72267(7) 0.75406(7) 0.06693(6)
C47_7 C 0.77733(7) 0.74594(7) 0.06693(6)
C50_4 C 0.75406(7) 0.93307(6) 0.27733(7)
C51_4 C 0.74594(7) 0.93307(6) 0.22267(7)
H12_7 H 0.7042 0.7571 0.0781
H13_7 H 0.7958 0.7429 0.0781
H16_4 H 0.7571 0.9219 0.2958
H17_4 H 0.7429 0.9219 0.2042
C56_7 C 0.7500 0.7500 0.08248(9)
C58_4 C 0.7500 0.91752(9) 0.2500
H22_7 H 0.7500 0.7500 0.1042
H24_4 H 0.7500 0.8958 0.2500
C61_7 C 0.82633(8) 0.93543(8) 0.22745(9)
C62_7 C 0.93543(8) 0.77255(9) 0.17367(8)
H27_7 H 0.8101 0.9498 0.2298
H28_7 H 0.9498 0.7702 0.1899
C72_7 C 0.82305(8) 0.91079(8) 0.20555(8)
C73_7 C 0.91079(8) 0.79445(8) 0.17695(8)
H38_7 H 0.8052 0.9097 0.1932
H39_7 H 0.9097 0.8068 0.1948
C83_7 C 0.84514(6) 0.88924(6) 0.20247(6)
C84_7 C 0.88924(6) 0.79753(6) 0.15486(6)
C94_7 C 0.87130(7) 0.89219(8) 0.22148(8)
C95_7 C 0.89219(8) 0.77852(8) 0.12870(7)
H49_7 H 0.8868 0.8770 0.2211
H50_7 H 0.8770 0.7789 0.1132
C105_7 C 0.87419(8) 0.91745(8) 0.24066(9)
C106_7 C 0.91745(8) 0.75934(9) 0.12581(8)
H60_7 H 0.8928 0.9200 0.2515
H61_7 H 0.9200 0.7485 0.1072
C116_7 C 0.84372(6) 0.86394(6) 0.17921(6)
C117_7 C 0.86394(6) 0.82079(6) 0.15628(6)
N5_7 N 0.85185(5) 0.93858(5) 0.24468(6)
N6_7 N 0.93858(5) 0.75532(6) 0.14815(5)
N18_7 N 0.86568(5) 0.84215(5) 0.17962(5)
N19_7 N 0.84215(5) 0.82038(5) 0.13432(5)
N40_7 N 0.63567(6) 0.69418(6) 0.01442(6)
Ni2_4 Ni 0.857346(9) 0.976776(9) 0.274780(9)
O9_4 O 0.81512(4) 0.99703(4) 0.26299(4)
O24_7 O 0.67239(4) 0.77699(5) 0.02739(5)
O25_7 O 0.82761(4) 0.72301(5) 0.02739(5)
O28_4 O 0.77699(5) 0.97261(5) 0.32761(4)
O29_4 O 0.72301(5) 0.97261(5) 0.17239(4)
O34_7 O 0.88165(5) 0.99964(7) 0.24040(6)
O35_7 O 0.99964(7) 0.75960(6) 0.11835(5)
O45_7 O 0.90020(6) 0.95904(7) 0.29005(7)
O46_7 O 0.95904(7) 0.70995(7) 0.09980(6)
O56_7 O 0.83330(5) 0.95119(5) 0.30827(5)
O57_7 O 0.95119(5) 0.69173(5) 0.16670(5)
H142_4 H 0.611832 0.751876 0.0205462
C1_7 C 0.75622(6) 0.80884(6) 0.98159(6)
C2_7 C 0.75368(6) 0.77793(6) 0.96594(6)
C3_7 C 0.7500 0.7500 0.98249(7)
C4_7 C 0.75406(7) 0.77733(7) 0.93307(6)
H1_7 H 0.7571 0.7958 0.9219
C5_7 C 0.7500 0.7500 0.91752(9)
H2_7 H 0.7500 0.7500 0.8958
C12_7 C 0.69745(9) 0.88952(9) 0.96800(9)
H7_7 H 0.7138 0.9033 0.9721
C13_7 C 0.67685(8) 0.89601(8) 0.94342(8)
H8_7 H 0.6803 0.9133 0.9307
C14_7 C 0.65179(6) 0.87708(7) 0.93802(7)
C15_7 C 0.64908(8) 0.85101(7) 0.95693(7)
H9_7 H 0.6328 0.8369 0.9538
C16_7 C 0.67015(9) 0.84598(8) 0.98002(9)
H10_7 H 0.6675 0.8285 0.9927
C17_7 C 0.62986(6) 0.88391(6) 0.91223(6)
N3_7 N 0.69418(6) 0.86433(6) 0.98558(6)
N4_7 N 0.63642(5) 0.90792(6) 0.89383(6)
O2_7 O 0.77699(5) 0.82761(4) 0.97261(5)
C18_7 C 0.74378(6) 0.69116(6) 0.98159(6)
C29_7 C 0.74632(6) 0.72207(6) 0.96594(6)
C45_7 C 0.74594(7) 0.72267(7) 0.93307(6)
H11_7 H 0.7429 0.7042 0.9219
C127_7 C 0.61048(9) 0.96800(9) 0.80255(9)
C128_7 C 0.53200(9) 0.80255(9) 0.88952(9)
H71_7 H 0.5967 0.9721 0.7862
H72_7 H 0.5279 0.7862 0.9033
C138_7 C 0.60399(8) 0.94342(8) 0.82315(8)
C139_7 C 0.55658(8) 0.82315(8) 0.89601(8)
H82_7 H 0.5867 0.9307 0.8197
H83_7 H 0.5693 0.8197 0.9133
C149_7 C 0.62292(7) 0.93802(7) 0.84821(6)
C150_7 C 0.56198(7) 0.84821(6) 0.87708(7)
C160_7 C 0.64899(7) 0.95693(7) 0.85092(8)
C161_7 C 0.54307(7) 0.85092(8) 0.85101(7)
H93_7 H 0.6631 0.9538 0.8672
H94_7 H 0.5462 0.8672 0.8369
C171_7 C 0.65402(8) 0.98002(9) 0.82985(9)
C172_7 C 0.51998(9) 0.82985(9) 0.84598(8)
H104_7 H 0.6715 0.9927 0.8325
H105_7 H 0.5073 0.8325 0.8285
C182_7 C 0.61609(6) 0.91223(6) 0.87014(6)
C183_7 C 0.58777(6) 0.87014(6) 0.88391(6)
N16_7 N 0.64815(5) 0.75532(6) 0.93858(5)
N29_7 N 0.63567(6) 0.98558(6) 0.80582(6)
N30_7 N 0.51442(6) 0.80582(6) 0.86433(6)
N45_7 N 0.36433(6) 0.48558(6) 0.69418(6)
N46_7 N 0.59208(6) 0.89383(6) 0.86358(5)
N47_7 N 0.60617(6) 0.86358(5) 0.90792(6)
Ni7_7 Ni 0.642654(9) 0.725220(9) 0.976776(9)
O7_7 O 0.68488(4) 0.73701(4) 0.99703(4)
O18_7 O 0.49703(4) 0.76299(4) 0.81512(4)
O22_7 O 0.31512(4) 0.50297(4) 0.73701(4)
O23_7 O 0.72301(5) 0.67239(4) 0.97261(5)
O37_7 O 0.49964(7) 0.74040(6) 0.88165(5)
O39_7 O 0.61835(5) 0.75960(6) 0.99964(7)
O44_7 O 0.38165(5) 0.50036(7) 0.75960(6)
O48_7 O 0.45904(7) 0.79005(7) 0.90020(6)
O50_7 O 0.59980(6) 0.70995(7) 0.95904(7)
O55_7 O 0.40020(6) 0.54096(7) 0.70995(7)
O59_7 O 0.45119(5) 0.80827(5) 0.83330(5)
O61_7 O 0.66670(5) 0.69173(5) 0.95119(5)
O66_7 O 0.33330(5) 0.54881(5) 0.69173(5)
H115_4 H 0.778284 0.868096 0.997829
H116_4 H 0.751876 0.888168 0.979454
H141_4 H 0.599535 0.765303 0.987284
H171_7 H 0.631904 0.997829 0.721716
H172_7 H 0.611832 0.979454 0.748124
H175_4 H 0.900465 0.734697 0.987284
H127_4 H 0.131904 0.278284 0.00217143
C63_8 C 0.06457(8) 0.32633(8) 0.77255(9)
C64_8 C 0.22745(9) 0.43543(8) 0.82633(8)
C65_8 C 0.17367(8) 0.27255(9) 0.93543(8)
H29_8 H 0.0502 0.3101 0.7702
H30_8 H 0.2298 0.4498 0.8101
H31_8 H 0.1899 0.2702 0.9498
C74_8 C 0.08921(8) 0.32305(8) 0.79445(8)
C75_8 C 0.20555(8) 0.41079(8) 0.82305(8)
C76_8 C 0.17695(8) 0.29445(8) 0.91079(8)
H40_8 H 0.0903 0.3052 0.8068
H41_8 H 0.1932 0.4097 0.8052
H42_8 H 0.1948 0.3068 0.9097
C85_8 C 0.11076(6) 0.34514(6) 0.79753(6)
C86_8 C 0.20247(6) 0.38924(6) 0.84514(6)
C87_8 C 0.15486(6) 0.29753(6) 0.88924(6)
C96_8 C 0.10781(8) 0.37130(7) 0.77852(8)
C97_8 C 0.22148(8) 0.39219(8) 0.87130(7)
C98_8 C 0.12870(7) 0.27852(8) 0.89219(8)
H51_8 H 0.1230 0.3868 0.7789
H52_8 H 0.2211 0.3770 0.8868
H53_8 H 0.1132 0.2789 0.8770
C107_8 C 0.08255(8) 0.37419(8) 0.75934(9)
C108_8 C 0.24066(9) 0.41745(8) 0.87419(8)
C109_8 C 0.12581(8) 0.25934(9) 0.91745(8)
H62_8 H 0.0800 0.3928 0.7485
H63_8 H 0.2515 0.4200 0.8928
H64_8 H 0.1072 0.2485 0.9200
C118_8 C 0.13606(6) 0.34372(6) 0.82079(6)
C119_8 C 0.17921(6) 0.36394(6) 0.84372(6)
C120_8 C 0.15628(6) 0.32079(6) 0.86394(6)
C129_8 C 0.03200(9) 0.11048(9) 0.19745(9)
C130_8 C 0.19745(9) 0.03200(9) 0.11048(9)
C131_8 C 0.11048(9) 0.19745(9) 0.03200(9)
H73_8 H 0.0279 0.0967 0.2138
H74_8 H 0.2138 0.0279 0.0967
H75_8 H 0.0967 0.2138 0.0279
C140_8 C 0.05658(8) 0.10399(8) 0.17685(8)
C141_8 C 0.17685(8) 0.05658(8) 0.10399(8)
C142_8 C 0.10399(8) 0.17685(8) 0.05658(8)
H84_8 H 0.0693 0.0867 0.1803
H85_8 H 0.1803 0.0693 0.0867
H86_8 H 0.0867 0.1803 0.0693
C151_8 C 0.06198(7) 0.12292(7) 0.15179(6)
C152_8 C 0.15179(6) 0.06198(7) 0.12292(7)
C153_8 C 0.12292(7) 0.15179(6) 0.06198(7)
C162_8 C 0.04307(7) 0.14899(7) 0.14908(8)
C163_8 C 0.14908(8) 0.04307(7) 0.14899(7)
C164_8 C 0.14899(7) 0.14908(8) 0.04307(7)
H95_8 H 0.0462 0.1631 0.1328
H96_8 H 0.1328 0.0462 0.1631
H97_8 H 0.1631 0.1328 0.0462
C173_8 C 0.01998(9) 0.15402(8) 0.17015(9)
C174_8 C 0.17015(9) 0.01998(9) 0.15402(8)
C175_8 C 0.15402(8) 0.17015(9) 0.01998(9)
H106_8 H 0.0073 0.1715 0.1675
H107_8 H 0.1675 0.0073 0.1715
H108_8 H 0.1715 0.1675 0.0073
C184_8 C 0.08777(6) 0.11609(6) 0.12986(6)
C185_8 C 0.12986(6) 0.08777(6) 0.11609(6)
C186_8 C 0.11609(6) 0.12986(6) 0.08777(6)
N7_8 N 0.06142(5) 0.35185(5) 0.75532(6)
N8_8 N 0.24468(6) 0.43858(5) 0.85185(5)
N20_8 N 0.15785(5) 0.36568(5) 0.82038(5)
N21_8 N 0.17962(5) 0.34215(5) 0.86568(5)
N22_8 N 0.13432(5) 0.32038(5) 0.84215(5)
N31_8 N 0.01442(6) 0.13567(6) 0.19418(6)
N32_8 N 0.19418(6) 0.01442(6) 0.13567(6)
N42_8 N 0.30582(6) 0.51442(6) 0.86433(6)
N48_8 N 0.10617(6) 0.09208(6) 0.13642(5)
N49_8 N 0.13642(5) 0.10617(6) 0.09208(6)
N50_8 N 0.09208(6) 0.13642(5) 0.10617(6)
Ni9_8 Ni 0.274780(9) 0.476776(9) 0.857346(9)
O19_8 O 0.26299(4) 0.49703(4) 0.81512(4)
O36_8 O 0.00036(7) 0.38165(5) 0.75960(6)
O41_8 O 0.24040(6) 0.49964(7) 0.88165(5)
O47_8 O 0.04096(7) 0.40020(6) 0.70995(7)
O52_8 O 0.29005(7) 0.45904(7) 0.90020(6)
O58_8 O 0.04881(5) 0.33330(5) 0.69173(5)
O63_8 O 0.30827(5) 0.45119(5) 0.83330(5)
H173_8 H 0.00217143 0.131904 0.278284
H174_8 H 0.0205462 0.111832 0.251876
C1_8 C 0.80884(6) 0.24378(6) 0.51841(6)
C2_8 C 0.77793(6) 0.24632(6) 0.53406(6)
C3_8 C 0.7500 0.2500 0.51751(7)
C4_8 C 0.77733(7) 0.24594(7) 0.56693(6)
H1_8 H 0.7958 0.2429 0.5781
C5_8 C 0.7500 0.2500 0.58248(9)
H2_8 H 0.7500 0.2500 0.6042
C6_8 C 0.82633(8) 0.22745(9) 0.43543(8)
H3_8 H 0.8101 0.2298 0.4498
C7_8 C 0.82305(8) 0.20555(8) 0.41079(8)
H4_8 H 0.8052 0.1932 0.4097
C8_8 C 0.84514(6) 0.20247(6) 0.38924(6)
C9_8 C 0.87130(7) 0.22148(8) 0.39219(8)
H5_8 H 0.8868 0.2211 0.3770
C10_8 C 0.87419(8) 0.24066(9) 0.41745(8)
H6_8 H 0.8928 0.2515 0.4200
C11_8 C 0.84372(6) 0.17921(6) 0.36394(6)
C12_8 C 0.88952(9) 0.30255(9) 0.53200(9)
H7_8 H 0.9033 0.2862 0.5279
C13_8 C 0.89601(8) 0.32315(8) 0.55658(8)
H8_8 H 0.9133 0.3197 0.5693
C14_8 C 0.87708(7) 0.34821(6) 0.56198(7)
C15_8 C 0.85101(7) 0.35092(8) 0.54307(7)
H9_8 H 0.8369 0.3672 0.5462
C16_8 C 0.84598(8) 0.32985(9) 0.51998(9)
H10_8 H 0.8285 0.3325 0.5073
C17_8 C 0.88391(6) 0.37014(6) 0.58777(6)
N1_8 N 0.85185(5) 0.24468(6) 0.43858(5)
N2_8 N 0.86568(5) 0.17962(5) 0.34215(5)
N3_8 N 0.86433(6) 0.30582(6) 0.51442(6)
N4_8 N 0.90792(6) 0.36358(5) 0.60617(6)
Ni1_8 Ni 0.857346(9) 0.274780(9) 0.476776(9)
O1_8 O 0.81512(4) 0.26299(4) 0.49703(4)
O2_8 O 0.82761(4) 0.22301(5) 0.52739(5)
O3_8 O 0.88165(5) 0.24040(6) 0.49964(7)
O4_8 O 0.90020(6) 0.29005(7) 0.45904(7)
O5_8 O 0.83330(5) 0.30827(5) 0.45119(5)
C18_8 C 0.69116(6) 0.25622(6) 0.51841(6)
C19_8 C 0.75622(6) 0.30884(6) 0.48159(6)
C20_8 C 0.74378(6) 0.19116(6) 0.48159(6)
C29_8 C 0.72207(6) 0.25368(6) 0.53406(6)
C30_8 C 0.75368(6) 0.27793(6) 0.46594(6)
C31_8 C 0.74632(6) 0.22207(6) 0.46594(6)
C40_8 C 0.7500 0.2500 0.48249(7)
C45_8 C 0.72267(7) 0.25406(7) 0.56693(6)
C46_8 C 0.75406(7) 0.27733(7) 0.43307(6)
C47_8 C 0.74594(7) 0.22267(7) 0.43307(6)
H11_8 H 0.7042 0.2571 0.5781
H12_8 H 0.7571 0.2958 0.4219
H13_8 H 0.7429 0.2042 0.4219
C56_8 C 0.7500 0.2500 0.41752(9)
H22_8 H 0.7500 0.2500 0.3958
C61_8 C 0.93543(8) 0.17367(8) 0.27255(9)
C62_8 C 0.77255(9) 0.06457(8) 0.32633(8)
H27_8 H 0.9498 0.1899 0.2702
H28_8 H 0.7702 0.0502 0.3101
C72_8 C 0.91079(8) 0.17695(8) 0.29445(8)
C73_8 C 0.79445(8) 0.08921(8) 0.32305(8)
H38_8 H 0.9097 0.1948 0.3068
H39_8 H 0.8068 0.0903 0.3052
C83_8 C 0.88924(6) 0.15486(6) 0.29753(6)
C84_8 C 0.79753(6) 0.11076(6) 0.34514(6)
C94_8 C 0.89219(8) 0.12870(7) 0.27852(8)
C95_8 C 0.77852(8) 0.10781(8) 0.37130(7)
H49_8 H 0.8770 0.1132 0.2789
H50_8 H 0.7789 0.1230 0.3868
C105_8 C 0.91745(8) 0.12581(8) 0.25934(9)
C106_8 C 0.75934(9) 0.08255(8) 0.37419(8)
H60_8 H 0.9200 0.1072 0.2485
H61_8 H 0.7485 0.0800 0.3928
C116_8 C 0.86394(6) 0.15628(6) 0.32079(6)
C117_8 C 0.82079(6) 0.13606(6) 0.34372(6)
C127_8 C 0.96800(9) 0.38952(9) 0.69745(9)
C128_8 C 0.80255(9) 0.46800(9) 0.61048(9)
H71_8 H 0.9721 0.4033 0.7138
H72_8 H 0.7862 0.4721 0.5967
C138_8 C 0.94342(8) 0.39601(8) 0.67685(8)
C139_8 C 0.82315(8) 0.44342(8) 0.60399(8)
H82_8 H 0.9307 0.4133 0.6803
H83_8 H 0.8197 0.4307 0.5867
C149_8 C 0.93802(7) 0.37708(7) 0.65179(6)
C150_8 C 0.84821(6) 0.43802(7) 0.62292(7)
C160_8 C 0.95693(7) 0.35101(7) 0.64908(8)
C161_8 C 0.85092(8) 0.45693(7) 0.64899(7)
H93_8 H 0.9538 0.3369 0.6328
H94_8 H 0.8672 0.4538 0.6631
C171_8 C 0.98002(9) 0.34598(8) 0.67015(9)
C172_8 C 0.82985(9) 0.48002(9) 0.65402(8)
H104_8 H 0.9927 0.3285 0.6675
H105_8 H 0.8325 0.4927 0.6715
C182_8 C 0.91223(6) 0.38391(6) 0.62986(6)
C183_8 C 0.87014(6) 0.41223(6) 0.61609(6)
N5_8 N 0.93858(5) 0.14815(5) 0.25532(6)
N6_8 N 0.75532(6) 0.06142(5) 0.35185(5)
N16_8 N 0.75532(6) 0.35185(5) 0.56142(5)
N18_8 N 0.84215(5) 0.13432(5) 0.32038(5)
N19_8 N 0.82038(5) 0.15785(5) 0.36568(5)
N29_8 N 0.98558(6) 0.36433(6) 0.69418(6)
N30_8 N 0.80582(6) 0.48558(6) 0.63567(6)
N40_8 N 0.69418(6) 0.36433(6) 0.48558(6)
N45_8 N 0.48558(6) 0.63567(6) 0.80582(6)
N46_8 N 0.89383(6) 0.40792(6) 0.63642(5)
N47_8 N 0.86358(5) 0.39383(6) 0.59208(6)
Ni7_8 Ni 0.725220(9) 0.357346(9) 0.523224(9)
O7_8 O 0.73701(4) 0.31512(4) 0.50297(4)
O18_8 O 0.76299(4) 0.50297(4) 0.68488(4)
O22_8 O 0.50297(4) 0.68488(4) 0.76299(4)
O23_8 O 0.67239(4) 0.27699(5) 0.52739(5)
O24_8 O 0.77699(5) 0.32761(4) 0.47261(5)
O25_8 O 0.72301(5) 0.17239(4) 0.47261(5)
O34_8 O 0.99964(7) 0.11835(5) 0.25960(6)
O35_8 O 0.75960(6) 0.00036(7) 0.38165(5)
O37_8 O 0.74040(6) 0.50036(7) 0.61835(5)
O39_8 O 0.75960(6) 0.38165(5) 0.50036(7)
O44_8 O 0.50036(7) 0.61835(5) 0.74040(6)
O45_8 O 0.95904(7) 0.09980(6) 0.20995(7)
O46_8 O 0.70995(7) 0.04096(7) 0.40020(6)
O48_8 O 0.79005(7) 0.54096(7) 0.59980(6)
O50_8 O 0.70995(7) 0.40020(6) 0.54096(7)
O55_8 O 0.54096(7) 0.59980(6) 0.79005(7)
O56_8 O 0.95119(5) 0.16670(5) 0.19173(5)
O57_8 O 0.69173(5) 0.04881(5) 0.33330(5)
O59_8 O 0.80827(5) 0.54881(5) 0.66670(5)
O61_8 O 0.69173(5) 0.33330(5) 0.54881(5)
O66_8 O 0.54881(5) 0.66670(5) 0.80827(5)
H171_8 H 0.997829 0.368096 0.778284
H172_8 H 0.979454 0.388168 0.751876
H165_8 H 0.778284 0.997829 0.368096
H166_8 H 0.751876 0.979454 0.388168
C66_5 C 0.17367(8) 0.56457(8) 0.72745(9)
C67_5 C 0.06457(8) 0.72745(9) 0.67367(8)
C68_5 C 0.22745(9) 0.67367(8) 0.56457(8)
H32_5 H 0.1899 0.5502 0.7298
H33_5 H 0.0502 0.7298 0.6899
H34_5 H 0.2298 0.6899 0.5502
C77_5 C 0.17695(8) 0.58921(8) 0.70555(8)
C78_5 C 0.08921(8) 0.70555(8) 0.67695(8)
C79_5 C 0.20555(8) 0.67695(8) 0.58921(8)
H43_5 H 0.1948 0.5903 0.6932
H44_5 H 0.0903 0.6932 0.6948
H45_5 H 0.1932 0.6948 0.5903
C88_5 C 0.15486(6) 0.61076(6) 0.70247(6)
C89_5 C 0.11076(6) 0.70247(6) 0.65486(6)
C90_5 C 0.20247(6) 0.65486(6) 0.61076(6)
C99_5 C 0.12870(7) 0.60781(8) 0.72148(8)
C100_5 C 0.10781(8) 0.72148(8) 0.62870(7)
C101_5 C 0.22148(8) 0.62870(7) 0.60781(8)
H54_5 H 0.1132 0.6230 0.7211
H55_5 H 0.1230 0.7211 0.6132
H56_5 H 0.2211 0.6132 0.6230
C110_5 C 0.12581(8) 0.58255(8) 0.74066(9)
C111_5 C 0.08255(8) 0.74066(9) 0.62581(8)
C112_5 C 0.24066(9) 0.62581(8) 0.58255(8)
H65_5 H 0.1072 0.5800 0.7515
H66_5 H 0.0800 0.7515 0.6072
H67_5 H 0.2515 0.6072 0.5800
C121_5 C 0.15628(6) 0.63606(6) 0.67921(6)
C122_5 C 0.13606(6) 0.67921(6) 0.65628(6)
C123_5 C 0.17921(6) 0.65628(6) 0.63606(6)
N10_5 N 0.14815(5) 0.56142(5) 0.74468(6)
N11_5 N 0.06142(5) 0.74468(6) 0.64815(5)
N23_5 N 0.13432(5) 0.65785(5) 0.67962(5)
N24_5 N 0.15785(5) 0.67962(5) 0.63432(5)
N25_5 N 0.17962(5) 0.63432(5) 0.65785(5)
O18_9 O 0.18488(4) 0.50297(4) 0.76299(4)
O37_9 O 0.11835(5) 0.50036(7) 0.74040(6)
O43_5 O 0.00036(7) 0.74040(6) 0.61835(5)
O48_9 O 0.09980(6) 0.54096(7) 0.79005(7)
O54_5 O 0.04096(7) 0.79005(7) 0.59980(6)
O59_9 O 0.16670(5) 0.54881(5) 0.80827(5)
O65_5 O 0.04881(5) 0.80827(5) 0.66670(5)
H141_5 H 0.0127161 0.400465 0.765303
H157_3 H 0.00217143 0.278284 0.631904
H158_3 H 0.0205462 0.251876 0.611832
H175_5 H 0.0127161 0.0995346 0.734697
C69_5 C 0.93543(8) 0.27255(9) 0.67367(8)
C70_5 C 0.77255(9) 0.32633(8) 0.56457(8)
C71_5 C 0.82633(8) 0.43543(8) 0.72745(9)
H35_5 H 0.9498 0.2702 0.6899
H36_5 H 0.7702 0.3101 0.5502
H37_5 H 0.8101 0.4498 0.7298
C80_5 C 0.91079(8) 0.29445(8) 0.67695(8)
C81_5 C 0.79445(8) 0.32305(8) 0.58921(8)
C82_5 C 0.82305(8) 0.41079(8) 0.70555(8)
H46_5 H 0.9097 0.3068 0.6948
H47_5 H 0.8068 0.3052 0.5903
H48_5 H 0.8052 0.4097 0.6932
C91_5 C 0.88924(6) 0.29753(6) 0.65486(6)
C92_5 C 0.79753(6) 0.34514(6) 0.61076(6)
C93_5 C 0.84514(6) 0.38924(6) 0.70247(6)
C102_5 C 0.89219(8) 0.27852(8) 0.62870(7)
C103_5 C 0.77852(8) 0.37130(7) 0.60781(8)
C104_5 C 0.87130(7) 0.39219(8) 0.72148(8)
H57_5 H 0.8770 0.2789 0.6132
H58_5 H 0.7789 0.3868 0.6230
H59_5 H 0.8868 0.3770 0.7211
C113_5 C 0.91745(8) 0.25934(9) 0.62581(8)
C114_5 C 0.75934(9) 0.37419(8) 0.58255(8)
C115_5 C 0.87419(8) 0.41745(8) 0.74066(9)
H68_5 H 0.9200 0.2485 0.6072
H69_5 H 0.7485 0.3928 0.5800
H70_5 H 0.8928 0.4200 0.7515
C124_5 C 0.86394(6) 0.32079(6) 0.65628(6)
C125_5 C 0.82079(6) 0.34372(6) 0.63606(6)
C126_5 C 0.84372(6) 0.36394(6) 0.67921(6)
N13_5 N 0.93858(5) 0.25532(6) 0.64815(5)
N15_5 N 0.85185(5) 0.43858(5) 0.74468(6)
N26_5 N 0.84215(5) 0.32038(5) 0.63432(5)
N27_5 N 0.82038(5) 0.36568(5) 0.65785(5)
N28_5 N 0.86568(5) 0.34215(5) 0.67962(5)
O38_5 O 0.99964(7) 0.25960(6) 0.61835(5)
O49_5 O 0.95904(7) 0.20995(7) 0.59980(6)
O60_5 O 0.95119(5) 0.19173(5) 0.66670(5)
H177_3 H 0.997829 0.721716 0.631904
H178_3 H 0.979454 0.748124 0.611832
C69_6 C 0.27255(9) 0.06457(8) 0.82633(8)
C70_6 C 0.32633(8) 0.22745(9) 0.93543(8)
C71_6 C 0.43543(8) 0.17367(8) 0.77255(9)
H35_6 H 0.2702 0.0502 0.8101
H36_6 H 0.3101 0.2298 0.9498
H37_6 H 0.4498 0.1899 0.7702
C80_6 C 0.29445(8) 0.08921(8) 0.82305(8)
C81_6 C 0.32305(8) 0.20555(8) 0.91079(8)
C82_6 C 0.41079(8) 0.17695(8) 0.79445(8)
H46_6 H 0.3068 0.0903 0.8052
H47_6 H 0.3052 0.1932 0.9097
H48_6 H 0.4097 0.1948 0.8068
C91_6 C 0.29753(6) 0.11076(6) 0.84514(6)
C92_6 C 0.34514(6) 0.20247(6) 0.88924(6)
C93_6 C 0.38924(6) 0.15486(6) 0.79753(6)
C102_6 C 0.27852(8) 0.10781(8) 0.87130(7)
C103_6 C 0.37130(7) 0.22148(8) 0.89219(8)
C104_6 C 0.39219(8) 0.12870(7) 0.77852(8)
H57_6 H 0.2789 0.1230 0.8868
H58_6 H 0.3868 0.2211 0.8770
H59_6 H 0.3770 0.1132 0.7789
C113_6 C 0.25934(9) 0.08255(8) 0.87419(8)
C114_6 C 0.37419(8) 0.24066(9) 0.91745(8)
C115_6 C 0.41745(8) 0.12581(8) 0.75934(9)
H68_6 H 0.2485 0.0800 0.8928
H69_6 H 0.3928 0.2515 0.9200
H70_6 H 0.4200 0.1072 0.7485
C124_6 C 0.32079(6) 0.13606(6) 0.84372(6)
C125_6 C 0.34372(6) 0.17921(6) 0.86394(6)
C126_6 C 0.36394(6) 0.15628(6) 0.82079(6)
N13_6 N 0.25532(6) 0.06142(5) 0.85185(5)
N15_6 N 0.43858(5) 0.14815(5) 0.75532(6)
N26_6 N 0.32038(5) 0.15785(5) 0.86568(5)
N27_6 N 0.36568(5) 0.17962(5) 0.84215(5)
N28_6 N 0.34215(5) 0.13432(5) 0.82038(5)
O38_6 O 0.25960(6) 0.00036(7) 0.88165(5)
O49_6 O 0.20995(7) 0.04096(7) 0.90020(6)
O60_6 O 0.19173(5) 0.04881(5) 0.83330(5)
H177_4 H 0.721716 0.00217143 0.868096
H178_4 H 0.748124 0.0205462 0.888168
H151 H 0.631904 0.778284 0.00217143
C66_6 C 0.56457(8) 0.82633(8) 0.77255(9)
C67_6 C 0.72745(9) 0.93543(8) 0.82633(8)
C68_6 C 0.67367(8) 0.77255(9) 0.93543(8)
H32_6 H 0.5502 0.8101 0.7702
H33_6 H 0.7298 0.9498 0.8101
H34_6 H 0.6899 0.7702 0.9498
C77_6 C 0.58921(8) 0.82305(8) 0.79445(8)
C78_6 C 0.70555(8) 0.91079(8) 0.82305(8)
C79_6 C 0.67695(8) 0.79445(8) 0.91079(8)
H43_6 H 0.5903 0.8052 0.8068
H44_6 H 0.6932 0.9097 0.8052
H45_6 H 0.6948 0.8068 0.9097
C88_6 C 0.61076(6) 0.84514(6) 0.79753(6)
C89_6 C 0.70247(6) 0.88924(6) 0.84514(6)
C90_6 C 0.65486(6) 0.79753(6) 0.88924(6)
C99_6 C 0.60781(8) 0.87130(7) 0.77852(8)
C100_6 C 0.72148(8) 0.89219(8) 0.87130(7)
C101_6 C 0.62870(7) 0.77852(8) 0.89219(8)
H54_6 H 0.6230 0.8868 0.7789
H55_6 H 0.7211 0.8770 0.8868
H56_6 H 0.6132 0.7789 0.8770
C110_6 C 0.58255(8) 0.87419(8) 0.75934(9)
C111_6 C 0.74066(9) 0.91745(8) 0.87419(8)
C112_6 C 0.62581(8) 0.75934(9) 0.91745(8)
H65_6 H 0.5800 0.8928 0.7485
H66_6 H 0.7515 0.9200 0.8928
H67_6 H 0.6072 0.7485 0.9200
C121_6 C 0.63606(6) 0.84372(6) 0.82079(6)
C122_6 C 0.67921(6) 0.86394(6) 0.84372(6)
C123_6 C 0.65628(6) 0.82079(6) 0.86394(6)
N10_6 N 0.56142(5) 0.85185(5) 0.75532(6)
N11_6 N 0.74468(6) 0.93858(5) 0.85185(5)
N23_6 N 0.65785(5) 0.86568(5) 0.82038(5)
N24_6 N 0.67962(5) 0.84215(5) 0.86568(5)
N25_6 N 0.63432(5) 0.82038(5) 0.84215(5)
O18_10 O 0.50297(4) 0.81512(4) 0.73701(4)
O37_10 O 0.50036(7) 0.88165(5) 0.75960(6)
O43_6 O 0.74040(6) 0.99964(7) 0.88165(5)
O48_10 O 0.54096(7) 0.90020(6) 0.70995(7)
O54_6 O 0.79005(7) 0.95904(7) 0.90020(6)
O59_10 O 0.54881(5) 0.83330(5) 0.69173(5)
O65_6 O 0.80827(5) 0.95119(5) 0.83330(5)
H141_6 H 0.400465 0.987284 0.734697
H157_4 H 0.278284 0.997829 0.868096
H158_4 H 0.251876 0.979454 0.888168
H175_6 H 0.0995346 0.987284 0.765303
O18_11 O 0.81512(4) 0.49703(4) 0.76299(4)
O37_11 O 0.88165(5) 0.49964(7) 0.74040(6)
O48_11 O 0.90020(6) 0.45904(7) 0.79005(7)
O59_11 O 0.83330(5) 0.45119(5) 0.80827(5)
H141_7 H 0.987284 0.599535 0.765303
H175_7 H 0.987284 0.900465 0.734697
H151_2 H 0.368096 0.221716 0.00217143
O18_12 O 0.49703(4) 0.18488(4) 0.73701(4)
O37_12 O 0.49964(7) 0.11835(5) 0.75960(6)
O48_12 O 0.45904(7) 0.09980(6) 0.70995(7)
O59_12 O 0.45119(5) 0.16670(5) 0.69173(5)
H141_8 H 0.599535 0.0127161 0.734697
H175_8 H 0.900465 0.0127161 0.765303
C66_7 C 0.17367(8) 0.43543(8) 0.27255(9)
C67_7 C 0.06457(8) 0.27255(9) 0.32633(8)
C68_7 C 0.22745(9) 0.32633(8) 0.43543(8)
H32_7 H 0.1899 0.4498 0.2702
H33_7 H 0.0502 0.2702 0.3101
H34_7 H 0.2298 0.3101 0.4498
C77_7 C 0.17695(8) 0.41079(8) 0.29445(8)
C78_7 C 0.08921(8) 0.29445(8) 0.32305(8)
C79_7 C 0.20555(8) 0.32305(8) 0.41079(8)
H43_7 H 0.1948 0.4097 0.3068
H44_7 H 0.0903 0.3068 0.3052
H45_7 H 0.1932 0.3052 0.4097
C88_7 C 0.15486(6) 0.38924(6) 0.29753(6)
C89_7 C 0.11076(6) 0.29753(6) 0.34514(6)
C90_7 C 0.20247(6) 0.34514(6) 0.38924(6)
C99_7 C 0.12870(7) 0.39219(8) 0.27852(8)
C100_7 C 0.10781(8) 0.27852(8) 0.37130(7)
C101_7 C 0.22148(8) 0.37130(7) 0.39219(8)
H54_7 H 0.1132 0.3770 0.2789
H55_7 H 0.1230 0.2789 0.3868
H56_7 H 0.2211 0.3868 0.3770
C110_7 C 0.12581(8) 0.41745(8) 0.25934(9)
C111_7 C 0.08255(8) 0.25934(9) 0.37419(8)
C112_7 C 0.24066(9) 0.37419(8) 0.41745(8)
H65_7 H 0.1072 0.4200 0.2485
H66_7 H 0.0800 0.2485 0.3928
H67_7 H 0.2515 0.3928 0.4200
C121_7 C 0.15628(6) 0.36394(6) 0.32079(6)
C122_7 C 0.13606(6) 0.32079(6) 0.34372(6)
C123_7 C 0.17921(6) 0.34372(6) 0.36394(6)
N10_7 N 0.14815(5) 0.43858(5) 0.25532(6)
N11_7 N 0.06142(5) 0.25532(6) 0.35185(5)
N23_7 N 0.13432(5) 0.34215(5) 0.32038(5)
N24_7 N 0.15785(5) 0.32038(5) 0.36568(5)
N25_7 N 0.17962(5) 0.36568(5) 0.34215(5)
O18_13 O 0.18488(4) 0.49703(4) 0.23701(4)
O37_13 O 0.11835(5) 0.49964(7) 0.25960(6)
O43_7 O 0.00036(7) 0.25960(6) 0.38165(5)
O48_13 O 0.09980(6) 0.45904(7) 0.20995(7)
O54_7 O 0.04096(7) 0.20995(7) 0.40020(6)
O59_13 O 0.16670(5) 0.45119(5) 0.19173(5)
O65_7 O 0.04881(5) 0.19173(5) 0.33330(5)
H141_9 H 0.0127161 0.599535 0.234697
H157_5 H 0.00217143 0.721716 0.368096
H158_5 H 0.0205462 0.748124 0.388168
H175_9 H 0.0127161 0.900465 0.265303
C69_7 C 0.93543(8) 0.72745(9) 0.32633(8)
C70_7 C 0.77255(9) 0.67367(8) 0.43543(8)
C71_7 C 0.82633(8) 0.56457(8) 0.27255(9)
H35_7 H 0.9498 0.7298 0.3101
H36_7 H 0.7702 0.6899 0.4498
H37_7 H 0.8101 0.5502 0.2702
C80_7 C 0.91079(8) 0.70555(8) 0.32305(8)
C81_7 C 0.79445(8) 0.67695(8) 0.41079(8)
C82_7 C 0.82305(8) 0.58921(8) 0.29445(8)
H46_7 H 0.9097 0.6932 0.3052
H47_7 H 0.8068 0.6948 0.4097
H48_7 H 0.8052 0.5903 0.3068
C91_7 C 0.88924(6) 0.70247(6) 0.34514(6)
C92_7 C 0.79753(6) 0.65486(6) 0.38924(6)
C93_7 C 0.84514(6) 0.61076(6) 0.29753(6)
C102_7 C 0.89219(8) 0.72148(8) 0.37130(7)
C103_7 C 0.77852(8) 0.62870(7) 0.39219(8)
C104_7 C 0.87130(7) 0.60781(8) 0.27852(8)
H57_7 H 0.8770 0.7211 0.3868
H58_7 H 0.7789 0.6132 0.3770
H59_7 H 0.8868 0.6230 0.2789
C113_7 C 0.91745(8) 0.74066(9) 0.37419(8)
C114_7 C 0.75934(9) 0.62581(8) 0.41745(8)
C115_7 C 0.87419(8) 0.58255(8) 0.25934(9)
H68_7 H 0.9200 0.7515 0.3928
H69_7 H 0.7485 0.6072 0.4200
H70_7 H 0.8928 0.5800 0.2485
C124_7 C 0.86394(6) 0.67921(6) 0.34372(6)
C125_7 C 0.82079(6) 0.65628(6) 0.36394(6)
C126_7 C 0.84372(6) 0.63606(6) 0.32079(6)
N13_7 N 0.93858(5) 0.74468(6) 0.35185(5)
N15_7 N 0.85185(5) 0.56142(5) 0.25532(6)
N26_7 N 0.84215(5) 0.67962(5) 0.36568(5)
N27_7 N 0.82038(5) 0.63432(5) 0.34215(5)
N28_7 N 0.86568(5) 0.65785(5) 0.32038(5)
O38_7 O 0.99964(7) 0.74040(6) 0.38165(5)
O49_7 O 0.95904(7) 0.79005(7) 0.40020(6)
O60_7 O 0.95119(5) 0.80827(5) 0.33330(5)
H177_5 H 0.997829 0.278284 0.368096
H178_5 H 0.979454 0.251876 0.388168
C69_8 C 0.72745(9) 0.06457(8) 0.17367(8)
C70_8 C 0.67367(8) 0.22745(9) 0.06457(8)
C71_8 C 0.56457(8) 0.17367(8) 0.22745(9)
H35_8 H 0.7298 0.0502 0.1899
H36_8 H 0.6899 0.2298 0.0502
H37_8 H 0.5502 0.1899 0.2298
C80_8 C 0.70555(8) 0.08921(8) 0.17695(8)
C81_8 C 0.67695(8) 0.20555(8) 0.08921(8)
C82_8 C 0.58921(8) 0.17695(8) 0.20555(8)
H46_8 H 0.6932 0.0903 0.1948
H47_8 H 0.6948 0.1932 0.0903
H48_8 H 0.5903 0.1948 0.1932
C91_8 C 0.70247(6) 0.11076(6) 0.15486(6)
C92_8 C 0.65486(6) 0.20247(6) 0.11076(6)
C93_8 C 0.61076(6) 0.15486(6) 0.20247(6)
C102_8 C 0.72148(8) 0.10781(8) 0.12870(7)
C103_8 C 0.62870(7) 0.22148(8) 0.10781(8)
C104_8 C 0.60781(8) 0.12870(7) 0.22148(8)
H57_8 H 0.7211 0.1230 0.1132
H58_8 H 0.6132 0.2211 0.1230
H59_8 H 0.6230 0.1132 0.2211
C113_8 C 0.74066(9) 0.08255(8) 0.12581(8)
C114_8 C 0.62581(8) 0.24066(9) 0.08255(8)
C115_8 C 0.58255(8) 0.12581(8) 0.24066(9)
H68_8 H 0.7515 0.0800 0.1072
H69_8 H 0.6072 0.2515 0.0800
H70_8 H 0.5800 0.1072 0.2515
C124_8 C 0.67921(6) 0.13606(6) 0.15628(6)
C125_8 C 0.65628(6) 0.17921(6) 0.13606(6)
C126_8 C 0.63606(6) 0.15628(6) 0.17921(6)
N13_8 N 0.74468(6) 0.06142(5) 0.14815(5)
N15_8 N 0.56142(5) 0.14815(5) 0.24468(6)
N26_8 N 0.67962(5) 0.15785(5) 0.13432(5)
N27_8 N 0.63432(5) 0.17962(5) 0.15785(5)
N28_8 N 0.65785(5) 0.13432(5) 0.17962(5)
O38_8 O 0.74040(6) 0.00036(7) 0.11835(5)
O49_8 O 0.79005(7) 0.04096(7) 0.09980(6)
O60_8 O 0.80827(5) 0.04881(5) 0.16670(5)
H177_6 H 0.278284 0.00217143 0.131904
H178_6 H 0.251876 0.0205462 0.111832
C66_8 C 0.43543(8) 0.82633(8) 0.22745(9)
C67_8 C 0.27255(9) 0.93543(8) 0.17367(8)
C68_8 C 0.32633(8) 0.77255(9) 0.06457(8)
H32_8 H 0.4498 0.8101 0.2298
H33_8 H 0.2702 0.9498 0.1899
H34_8 H 0.3101 0.7702 0.0502
C77_8 C 0.41079(8) 0.82305(8) 0.20555(8)
C78_8 C 0.29445(8) 0.91079(8) 0.17695(8)
C79_8 C 0.32305(8) 0.79445(8) 0.08921(8)
H43_8 H 0.4097 0.8052 0.1932
H44_8 H 0.3068 0.9097 0.1948
H45_8 H 0.3052 0.8068 0.0903
C88_8 C 0.38924(6) 0.84514(6) 0.20247(6)
C89_8 C 0.29753(6) 0.88924(6) 0.15486(6)
C90_8 C 0.34514(6) 0.79753(6) 0.11076(6)
C99_8 C 0.39219(8) 0.87130(7) 0.22148(8)
C100_8 C 0.27852(8) 0.89219(8) 0.12870(7)
C101_8 C 0.37130(7) 0.77852(8) 0.10781(8)
H54_8 H 0.3770 0.8868 0.2211
H55_8 H 0.2789 0.8770 0.1132
H56_8 H 0.3868 0.7789 0.1230
C110_8 C 0.41745(8) 0.87419(8) 0.24066(9)
C111_8 C 0.25934(9) 0.91745(8) 0.12581(8)
C112_8 C 0.37419(8) 0.75934(9) 0.08255(8)
H65_8 H 0.4200 0.8928 0.2515
H66_8 H 0.2485 0.9200 0.1072
H67_8 H 0.3928 0.7485 0.0800
C121_8 C 0.36394(6) 0.84372(6) 0.17921(6)
C122_8 C 0.32079(6) 0.86394(6) 0.15628(6)
C123_8 C 0.34372(6) 0.82079(6) 0.13606(6)
N10_8 N 0.43858(5) 0.85185(5) 0.24468(6)
N11_8 N 0.25532(6) 0.93858(5) 0.14815(5)
N23_8 N 0.34215(5) 0.86568(5) 0.17962(5)
N24_8 N 0.32038(5) 0.84215(5) 0.13432(5)
N25_8 N 0.36568(5) 0.82038(5) 0.15785(5)
O18_14 O 0.49703(4) 0.81512(4) 0.26299(4)
O37_14 O 0.49964(7) 0.88165(5) 0.24040(6)
O43_8 O 0.25960(6) 0.99964(7) 0.11835(5)
O48_14 O 0.45904(7) 0.90020(6) 0.29005(7)
O54_8 O 0.20995(7) 0.95904(7) 0.09980(6)
O59_14 O 0.45119(5) 0.83330(5) 0.30827(5)
O65_8 O 0.19173(5) 0.95119(5) 0.16670(5)
H141_10 H 0.599535 0.987284 0.265303
H157_6 H 0.721716 0.997829 0.131904
H158_6 H 0.748124 0.979454 0.111832
H175_10 H 0.900465 0.987284 0.234697
H151_3 H 0.368096 0.778284 0.997829
O18_15 O 0.81512(4) 0.50297(4) 0.23701(4)
O37_15 O 0.88165(5) 0.50036(7) 0.25960(6)
O48_15 O 0.90020(6) 0.54096(7) 0.20995(7)
O59_15 O 0.83330(5) 0.54881(5) 0.19173(5)
H141_11 H 0.987284 0.400465 0.234697
H175_11 H 0.987284 0.0995346 0.265303
O18_16 O 0.50297(4) 0.18488(4) 0.26299(4)
O37_16 O 0.50036(7) 0.11835(5) 0.24040(6)
O48_16 O 0.54096(7) 0.09980(6) 0.29005(7)
O59_16 O 0.54881(5) 0.16670(5) 0.30827(5)
H141_12 H 0.400465 0.0127161 0.265303
H175_12 H 0.0995346 0.0127161 0.234697
H151_4 H 0.631904 0.221716 0.997829
H141_13 H 0.765303 0.0127161 0.400465
H175_13 H 0.734697 0.0127161 0.0995346
C1_9 C 0.51841(6) 0.80884(6) 0.24378(6)
C2_9 C 0.53406(6) 0.77793(6) 0.24632(6)
C3_9 C 0.51751(7) 0.7500 0.2500
C4_9 C 0.56693(6) 0.77733(7) 0.24594(7)
H1_9 H 0.5781 0.7958 0.2429
C5_9 C 0.58248(9) 0.7500 0.2500
H2_9 H 0.6042 0.7500 0.2500
O2_9 O 0.52739(5) 0.82761(4) 0.22301(5)
C18_9 C 0.51841(6) 0.69116(6) 0.25622(6)
C19_9 C 0.48159(6) 0.75622(6) 0.30884(6)
C20_9 C 0.48159(6) 0.74378(6) 0.19116(6)
C29_9 C 0.53406(6) 0.72207(6) 0.25368(6)
C30_9 C 0.46594(6) 0.75368(6) 0.27793(6)
C31_9 C 0.46594(6) 0.74632(6) 0.22207(6)
C40_9 C 0.48249(7) 0.7500 0.2500
C45_9 C 0.56693(6) 0.72267(7) 0.25406(7)
C46_9 C 0.43307(6) 0.75406(7) 0.27733(7)
C47_9 C 0.43307(6) 0.74594(7) 0.22267(7)
H11_9 H 0.5781 0.7042 0.2571
H12_9 H 0.4219 0.7571 0.2958
H13_9 H 0.4219 0.7429 0.2042
C56_9 C 0.41752(9) 0.7500 0.2500
H22_9 H 0.3958 0.7500 0.2500
C135_5 C 0.53200(9) 0.61048(9) 0.19745(9)
C136_5 C 0.69745(9) 0.53200(9) 0.11048(9)
C137_5 C 0.61048(9) 0.69745(9) 0.03200(9)
H79_5 H 0.5279 0.5967 0.2138
H80_5 H 0.7138 0.5279 0.0967
H81_5 H 0.5967 0.7138 0.0279
C146_5 C 0.55658(8) 0.60399(8) 0.17685(8)
C147_5 C 0.67685(8) 0.55658(8) 0.10399(8)
C148_5 C 0.60399(8) 0.67685(8) 0.05658(8)
H90_5 H 0.5693 0.5867 0.1803
H91_5 H 0.6803 0.5693 0.0867
H92_5 H 0.5867 0.6803 0.0693
C157_5 C 0.56198(7) 0.62292(7) 0.15179(6)
C158_5 C 0.65179(6) 0.56198(7) 0.12292(7)
C159_5 C 0.62292(7) 0.65179(6) 0.06198(7)
C168_5 C 0.54307(7) 0.64899(7) 0.14908(8)
C169_5 C 0.64908(8) 0.54307(7) 0.14899(7)
C170_5 C 0.64899(7) 0.64908(8) 0.04307(7)
H101_5 H 0.5462 0.6631 0.1328
H102_5 H 0.6328 0.5462 0.1631
H103_5 H 0.6631 0.6328 0.0462
C179_5 C 0.51998(9) 0.65402(8) 0.17015(9)
C180_5 C 0.67015(9) 0.51998(9) 0.15402(8)
C181_5 C 0.65402(8) 0.67015(9) 0.01998(9)
H112_5 H 0.5073 0.6715 0.1675
H113_5 H 0.6675 0.5073 0.1715
H114_5 H 0.6715 0.6675 0.0073
C190_5 C 0.58777(6) 0.61609(6) 0.12986(6)
C191_5 C 0.62986(6) 0.58777(6) 0.11609(6)
C192_5 C 0.61609(6) 0.62986(6) 0.08777(6)
N54_5 N 0.60617(6) 0.59208(6) 0.13642(5)
N55_5 N 0.63642(5) 0.60617(6) 0.09208(6)
N56_5 N 0.59208(6) 0.63642(5) 0.10617(6)
O23_9 O 0.52739(5) 0.67239(4) 0.27699(5)
O24_9 O 0.47261(5) 0.77699(5) 0.32761(4)
O25_9 O 0.47261(5) 0.72301(5) 0.17239(4)
C132_5 C 0.38952(9) 0.69745(9) 0.96800(9)
C133_5 C 0.46800(9) 0.61048(9) 0.80255(9)
C134_5 C 0.30255(9) 0.53200(9) 0.88952(9)
H76_5 H 0.4033 0.7138 0.9721
H77_5 H 0.4721 0.5967 0.7862
H78_5 H 0.2862 0.5279 0.9033
C143_5 C 0.39601(8) 0.67685(8) 0.94342(8)
C144_5 C 0.44342(8) 0.60399(8) 0.82315(8)
C145_5 C 0.32315(8) 0.55658(8) 0.89601(8)
H87_5 H 0.4133 0.6803 0.9307
H88_5 H 0.4307 0.5867 0.8197
H89_5 H 0.3197 0.5693 0.9133
C154_5 C 0.37708(7) 0.65179(6) 0.93802(7)
C155_5 C 0.43802(7) 0.62292(7) 0.84821(6)
C156_5 C 0.34821(6) 0.56198(7) 0.87708(7)
C165_5 C 0.35101(7) 0.64908(8) 0.95693(7)
C166_5 C 0.45693(7) 0.64899(7) 0.85092(8)
C167_5 C 0.35092(8) 0.54307(7) 0.85101(7)
H98_5 H 0.3369 0.6328 0.9538
H99_5 H 0.4538 0.6631 0.8672
H100_5 H 0.3672 0.5462 0.8369
C176_5 C 0.34598(8) 0.67015(9) 0.98002(9)
C177_5 C 0.48002(9) 0.65402(8) 0.82985(9)
C178_5 C 0.32985(9) 0.51998(9) 0.84598(8)
H109_5 H 0.3285 0.6675 0.9927
H110_5 H 0.4927 0.6715 0.8325
H111_5 H 0.3325 0.5073 0.8285
C187_5 C 0.38391(6) 0.62986(6) 0.91223(6)
C188_5 C 0.41223(6) 0.61609(6) 0.87014(6)
C189_5 C 0.37014(6) 0.58777(6) 0.88391(6)
N51_5 N 0.40792(6) 0.63642(5) 0.89383(6)
N52_5 N 0.39383(6) 0.59208(6) 0.86358(5)
N53_5 N 0.36358(5) 0.60617(6) 0.90792(6)
C132_6 C 0.38952(9) 0.30255(9) 0.03200(9)
C133_6 C 0.46800(9) 0.38952(9) 0.19745(9)
C134_6 C 0.30255(9) 0.46800(9) 0.11048(9)
H76_6 H 0.4033 0.2862 0.0279
H77_6 H 0.4721 0.4033 0.2138
H78_6 H 0.2862 0.4721 0.0967
C143_6 C 0.39601(8) 0.32315(8) 0.05658(8)
C144_6 C 0.44342(8) 0.39601(8) 0.17685(8)
C145_6 C 0.32315(8) 0.44342(8) 0.10399(8)
H87_6 H 0.4133 0.3197 0.0693
H88_6 H 0.4307 0.4133 0.1803
H89_6 H 0.3197 0.4307 0.0867
C154_6 C 0.37708(7) 0.34821(6) 0.06198(7)
C155_6 C 0.43802(7) 0.37708(7) 0.15179(6)
C156_6 C 0.34821(6) 0.43802(7) 0.12292(7)
C165_6 C 0.35101(7) 0.35092(8) 0.04307(7)
C166_6 C 0.45693(7) 0.35101(7) 0.14908(8)
C167_6 C 0.35092(8) 0.45693(7) 0.14899(7)
H98_6 H 0.3369 0.3672 0.0462
H99_6 H 0.4538 0.3369 0.1328
H100_6 H 0.3672 0.4538 0.1631
C176_6 C 0.34598(8) 0.32985(9) 0.01998(9)
C177_6 C 0.48002(9) 0.34598(8) 0.17015(9)
C178_6 C 0.32985(9) 0.48002(9) 0.15402(8)
H109_6 H 0.3285 0.3325 0.0073
H110_6 H 0.4927 0.3285 0.1675
H111_6 H 0.3325 0.4927 0.1715
C187_6 C 0.38391(6) 0.37014(6) 0.08777(6)
C188_6 C 0.41223(6) 0.38391(6) 0.12986(6)
C189_6 C 0.37014(6) 0.41223(6) 0.11609(6)
N51_6 N 0.40792(6) 0.36358(5) 0.10617(6)
N52_6 N 0.39383(6) 0.40792(6) 0.13642(5)
N53_6 N 0.36358(5) 0.39383(6) 0.09208(6)
C1_10 C 0.51841(6) 0.19116(6) 0.75622(6)
C2_10 C 0.53406(6) 0.22207(6) 0.75368(6)
C3_10 C 0.51751(7) 0.2500 0.7500
C4_10 C 0.56693(6) 0.22267(7) 0.75406(7)
H1_10 H 0.5781 0.2042 0.7571
C5_10 C 0.58248(9) 0.2500 0.7500
H2_10 H 0.6042 0.2500 0.7500
O2_10 O 0.52739(5) 0.17239(4) 0.77699(5)
C18_10 C 0.51841(6) 0.30884(6) 0.74378(6)
C19_10 C 0.48159(6) 0.24378(6) 0.69116(6)
C20_10 C 0.48159(6) 0.25622(6) 0.80884(6)
C29_10 C 0.53406(6) 0.27793(6) 0.74632(6)
C30_10 C 0.46594(6) 0.24632(6) 0.72207(6)
C31_10 C 0.46594(6) 0.25368(6) 0.77793(6)
C40_10 C 0.48249(7) 0.2500 0.7500
C45_10 C 0.56693(6) 0.27733(7) 0.74594(7)
C46_10 C 0.43307(6) 0.24594(7) 0.72267(7)
C47_10 C 0.43307(6) 0.25406(7) 0.77733(7)
H11_10 H 0.5781 0.2958 0.7429
H12_10 H 0.4219 0.2429 0.7042
H13_10 H 0.4219 0.2571 0.7958
C56_10 C 0.41752(9) 0.2500 0.7500
H22_10 H 0.3958 0.2500 0.7500
C135_6 C 0.53200(9) 0.38952(9) 0.80255(9)
C136_6 C 0.69745(9) 0.46800(9) 0.88952(9)
C137_6 C 0.61048(9) 0.30255(9) 0.96800(9)
H79_6 H 0.5279 0.4033 0.7862
H80_6 H 0.7138 0.4721 0.9033
H81_6 H 0.5967 0.2862 0.9721
C146_6 C 0.55658(8) 0.39601(8) 0.82315(8)
C147_6 C 0.67685(8) 0.44342(8) 0.89601(8)
C148_6 C 0.60399(8) 0.32315(8) 0.94342(8)
H90_6 H 0.5693 0.4133 0.8197
H91_6 H 0.6803 0.4307 0.9133
H92_6 H 0.5867 0.3197 0.9307
C157_6 C 0.56198(7) 0.37708(7) 0.84821(6)
C158_6 C 0.65179(6) 0.43802(7) 0.87708(7)
C159_6 C 0.62292(7) 0.34821(6) 0.93802(7)
C168_6 C 0.54307(7) 0.35101(7) 0.85092(8)
C169_6 C 0.64908(8) 0.45693(7) 0.85101(7)
C170_6 C 0.64899(7) 0.35092(8) 0.95693(7)
H101_6 H 0.5462 0.3369 0.8672
H102_6 H 0.6328 0.4538 0.8369
H103_6 H 0.6631 0.3672 0.9538
C179_6 C 0.51998(9) 0.34598(8) 0.82985(9)
C180_6 C 0.67015(9) 0.48002(9) 0.84598(8)
C181_6 C 0.65402(8) 0.32985(9) 0.98002(9)
H112_6 H 0.5073 0.3285 0.8325
H113_6 H 0.6675 0.4927 0.8285
H114_6 H 0.6715 0.3325 0.9927
C190_6 C 0.58777(6) 0.38391(6) 0.87014(6)
C191_6 C 0.62986(6) 0.41223(6) 0.88391(6)
C192_6 C 0.61609(6) 0.37014(6) 0.91223(6)
N54_6 N 0.60617(6) 0.40792(6) 0.86358(5)
N55_6 N 0.63642(5) 0.39383(6) 0.90792(6)
N56_6 N 0.59208(6) 0.36358(5) 0.89383(6)
O23_10 O 0.52739(5) 0.32761(4) 0.72301(5)
O24_10 O 0.47261(5) 0.22301(5) 0.67239(4)
O25_10 O 0.47261(5) 0.27699(5) 0.82761(4)
C1_11 C 0.48159(6) 0.19116(6) 0.24378(6)
C2_11 C 0.46594(6) 0.22207(6) 0.24632(6)
C3_11 C 0.48249(7) 0.2500 0.2500
C4_11 C 0.43307(6) 0.22267(7) 0.24594(7)
H1_11 H 0.4219 0.2042 0.2429
C5_11 C 0.41752(9) 0.2500 0.2500
H2_11 H 0.3958 0.2500 0.2500
O2_11 O 0.47261(5) 0.17239(4) 0.22301(5)
C18_11 C 0.48159(6) 0.30884(6) 0.25622(6)
C19_11 C 0.51841(6) 0.24378(6) 0.30884(6)
C20_11 C 0.51841(6) 0.25622(6) 0.19116(6)
C29_11 C 0.46594(6) 0.27793(6) 0.25368(6)
C30_11 C 0.53406(6) 0.24632(6) 0.27793(6)
C31_11 C 0.53406(6) 0.25368(6) 0.22207(6)
C40_11 C 0.51751(7) 0.2500 0.2500
C45_11 C 0.43307(6) 0.27733(7) 0.25406(7)
C46_11 C 0.56693(6) 0.24594(7) 0.27733(7)
C47_11 C 0.56693(6) 0.25406(7) 0.22267(7)
H11_11 H 0.4219 0.2958 0.2571
H12_11 H 0.5781 0.2429 0.2958
H13_11 H 0.5781 0.2571 0.2042
C56_11 C 0.58248(9) 0.2500 0.2500
H22_11 H 0.6042 0.2500 0.2500
O23_11 O 0.47261(5) 0.32761(4) 0.27699(5)
O24_11 O 0.52739(5) 0.22301(5) 0.32761(4)
O25_11 O 0.52739(5) 0.27699(5) 0.17239(4)
C1_12 C 0.48159(6) 0.80884(6) 0.75622(6)
C2_12 C 0.46594(6) 0.77793(6) 0.75368(6)
C3_12 C 0.48249(7) 0.7500 0.7500
C4_12 C 0.43307(6) 0.77733(7) 0.75406(7)
H1_12 H 0.4219 0.7958 0.7571
C5_12 C 0.41752(9) 0.7500 0.7500
H2_12 H 0.3958 0.7500 0.7500
O2_12 O 0.47261(5) 0.82761(4) 0.77699(5)
C18_12 C 0.48159(6) 0.69116(6) 0.74378(6)
C19_12 C 0.51841(6) 0.75622(6) 0.69116(6)
C20_12 C 0.51841(6) 0.74378(6) 0.80884(6)
C29_12 C 0.46594(6) 0.72207(6) 0.74632(6)
C30_12 C 0.53406(6) 0.75368(6) 0.72207(6)
C31_12 C 0.53406(6) 0.74632(6) 0.77793(6)
C40_12 C 0.51751(7) 0.7500 0.7500
C45_12 C 0.43307(6) 0.72267(7) 0.74594(7)
C46_12 C 0.56693(6) 0.75406(7) 0.72267(7)
C47_12 C 0.56693(6) 0.74594(7) 0.77733(7)
H11_12 H 0.4219 0.7042 0.7429
H12_12 H 0.5781 0.7571 0.7042
H13_12 H 0.5781 0.7429 0.7958
C56_12 C 0.58248(9) 0.7500 0.7500
H22_12 H 0.6042 0.7500 0.7500
O23_12 O 0.47261(5) 0.67239(4) 0.72301(5)
O24_12 O 0.52739(5) 0.77699(5) 0.67239(4)
O25_12 O 0.52739(5) 0.72301(5) 0.82761(4)
C1_13 C 0.80884(6) 0.48159(6) 0.25622(6)
C2_13 C 0.77793(6) 0.46594(6) 0.25368(6)
C3_13 C 0.7500 0.48249(7) 0.2500
C4_13 C 0.77733(7) 0.43307(6) 0.25406(7)
H1_13 H 0.7958 0.4219 0.2571
C5_13 C 0.7500 0.41752(9) 0.2500
H2_13 H 0.7500 0.3958 0.2500
O2_13 O 0.82761(4) 0.47261(5) 0.27699(5)
C18_13 C 0.69116(6) 0.48159(6) 0.24378(6)
C19_13 C 0.75622(6) 0.51841(6) 0.19116(6)
C20_13 C 0.74378(6) 0.51841(6) 0.30884(6)
C29_13 C 0.72207(6) 0.46594(6) 0.24632(6)
C30_13 C 0.75368(6) 0.53406(6) 0.22207(6)
C31_13 C 0.74632(6) 0.53406(6) 0.27793(6)
C40_13 C 0.7500 0.51751(7) 0.2500
C45_13 C 0.72267(7) 0.43307(6) 0.24594(7)
C46_13 C 0.75406(7) 0.56693(6) 0.22267(7)
C47_13 C 0.74594(7) 0.56693(6) 0.27733(7)
H11_13 H 0.7042 0.4219 0.2429
H12_13 H 0.7571 0.5781 0.2042
H13_13 H 0.7429 0.5781 0.2958
C56_13 C 0.7500 0.58248(9) 0.2500
H22_13 H 0.7500 0.6042 0.2500
C132_7 C 0.69745(9) 0.61048(9) 0.53200(9)
C133_7 C 0.61048(9) 0.53200(9) 0.69745(9)
C134_7 C 0.53200(9) 0.69745(9) 0.61048(9)
C135_7 C 0.61048(9) 0.46800(9) 0.30255(9)
C136_7 C 0.53200(9) 0.30255(9) 0.38952(9)
C137_7 C 0.69745(9) 0.38952(9) 0.46800(9)
H76_7 H 0.7138 0.5967 0.5279
H77_7 H 0.5967 0.5279 0.7138
H78_7 H 0.5279 0.7138 0.5967
H79_7 H 0.5967 0.4721 0.2862
H80_7 H 0.5279 0.2862 0.4033
H81_7 H 0.7138 0.4033 0.4721
C143_7 C 0.67685(8) 0.60399(8) 0.55658(8)
C144_7 C 0.60399(8) 0.55658(8) 0.67685(8)
C145_7 C 0.55658(8) 0.67685(8) 0.60399(8)
C146_7 C 0.60399(8) 0.44342(8) 0.32315(8)
C147_7 C 0.55658(8) 0.32315(8) 0.39601(8)
C148_7 C 0.67685(8) 0.39601(8) 0.44342(8)
H87_7 H 0.6803 0.5867 0.5693
H88_7 H 0.5867 0.5693 0.6803
H89_7 H 0.5693 0.6803 0.5867
H90_7 H 0.5867 0.4307 0.3197
H91_7 H 0.5693 0.3197 0.4133
H92_7 H 0.6803 0.4133 0.4307
C154_7 C 0.65179(6) 0.62292(7) 0.56198(7)
C155_7 C 0.62292(7) 0.56198(7) 0.65179(6)
C156_7 C 0.56198(7) 0.65179(6) 0.62292(7)
C157_7 C 0.62292(7) 0.43802(7) 0.34821(6)
C158_7 C 0.56198(7) 0.34821(6) 0.37708(7)
C159_7 C 0.65179(6) 0.37708(7) 0.43802(7)
C165_7 C 0.64908(8) 0.64899(7) 0.54307(7)
C166_7 C 0.64899(7) 0.54307(7) 0.64908(8)
C167_7 C 0.54307(7) 0.64908(8) 0.64899(7)
C168_7 C 0.64899(7) 0.45693(7) 0.35092(8)
C169_7 C 0.54307(7) 0.35092(8) 0.35101(7)
C170_7 C 0.64908(8) 0.35101(7) 0.45693(7)
H98_7 H 0.6328 0.6631 0.5462
H99_7 H 0.6631 0.5462 0.6328
H100_7 H 0.5462 0.6328 0.6631
H101_7 H 0.6631 0.4538 0.3672
H102_7 H 0.5462 0.3672 0.3369
H103_7 H 0.6328 0.3369 0.4538
C176_7 C 0.67015(9) 0.65402(8) 0.51998(9)
C177_7 C 0.65402(8) 0.51998(9) 0.67015(9)
C178_7 C 0.51998(9) 0.67015(9) 0.65402(8)
C179_7 C 0.65402(8) 0.48002(9) 0.32985(9)
C180_7 C 0.51998(9) 0.32985(9) 0.34598(8)
C181_7 C 0.67015(9) 0.34598(8) 0.48002(9)
H109_7 H 0.6675 0.6715 0.5073
H110_7 H 0.6715 0.5073 0.6675
H111_7 H 0.5073 0.6675 0.6715
H112_7 H 0.6715 0.4927 0.3325
H113_7 H 0.5073 0.3325 0.3285
H114_7 H 0.6675 0.3285 0.4927
C187_7 C 0.62986(6) 0.61609(6) 0.58777(6)
C188_7 C 0.61609(6) 0.58777(6) 0.62986(6)
C189_7 C 0.58777(6) 0.62986(6) 0.61609(6)
C190_7 C 0.61609(6) 0.41223(6) 0.37014(6)
C191_7 C 0.58777(6) 0.37014(6) 0.38391(6)
C192_7 C 0.62986(6) 0.38391(6) 0.41223(6)
N51_7 N 0.63642(5) 0.59208(6) 0.60617(6)
N52_7 N 0.59208(6) 0.60617(6) 0.63642(5)
N53_7 N 0.60617(6) 0.63642(5) 0.59208(6)
N54_7 N 0.59208(6) 0.39383(6) 0.36358(5)
N55_7 N 0.60617(6) 0.36358(5) 0.40792(6)
N56_7 N 0.63642(5) 0.40792(6) 0.39383(6)
O23_13 O 0.67239(4) 0.47261(5) 0.22301(5)
O24_13 O 0.77699(5) 0.52739(5) 0.17239(4)
O25_13 O 0.72301(5) 0.52739(5) 0.32761(4)
C1_14 C 0.19116(6) 0.48159(6) 0.74378(6)
C2_14 C 0.22207(6) 0.46594(6) 0.74632(6)
C3_14 C 0.2500 0.48249(7) 0.7500
C4_14 C 0.22267(7) 0.43307(6) 0.74594(7)
H1_14 H 0.2042 0.4219 0.7429
C5_14 C 0.2500 0.41752(9) 0.7500
H2_14 H 0.2500 0.3958 0.7500
O2_14 O 0.17239(4) 0.47261(5) 0.72301(5)
C18_14 C 0.30884(6) 0.48159(6) 0.75622(6)
C19_14 C 0.24378(6) 0.51841(6) 0.80884(6)
C20_14 C 0.25622(6) 0.51841(6) 0.69116(6)
C29_14 C 0.27793(6) 0.46594(6) 0.75368(6)
C30_14 C 0.24632(6) 0.53406(6) 0.77793(6)
C31_14 C 0.25368(6) 0.53406(6) 0.72207(6)
C40_14 C 0.2500 0.51751(7) 0.7500
C45_14 C 0.27733(7) 0.43307(6) 0.75406(7)
C46_14 C 0.24594(7) 0.56693(6) 0.77733(7)
C47_14 C 0.25406(7) 0.56693(6) 0.72267(7)
H11_14 H 0.2958 0.4219 0.7571
H12_14 H 0.2429 0.5781 0.7958
H13_14 H 0.2571 0.5781 0.7042
C56_14 C 0.2500 0.58248(9) 0.7500
H22_14 H 0.2500 0.6042 0.7500
C132_8 C 0.30255(9) 0.61048(9) 0.46800(9)
C133_8 C 0.38952(9) 0.53200(9) 0.30255(9)
C134_8 C 0.46800(9) 0.69745(9) 0.38952(9)
C135_8 C 0.38952(9) 0.46800(9) 0.69745(9)
C136_8 C 0.46800(9) 0.30255(9) 0.61048(9)
C137_8 C 0.30255(9) 0.38952(9) 0.53200(9)
H76_8 H 0.2862 0.5967 0.4721
H77_8 H 0.4033 0.5279 0.2862
H78_8 H 0.4721 0.7138 0.4033
H79_8 H 0.4033 0.4721 0.7138
H80_8 H 0.4721 0.2862 0.5967
H81_8 H 0.2862 0.4033 0.5279
C143_8 C 0.32315(8) 0.60399(8) 0.44342(8)
C144_8 C 0.39601(8) 0.55658(8) 0.32315(8)
C145_8 C 0.44342(8) 0.67685(8) 0.39601(8)
C146_8 C 0.39601(8) 0.44342(8) 0.67685(8)
C147_8 C 0.44342(8) 0.32315(8) 0.60399(8)
C148_8 C 0.32315(8) 0.39601(8) 0.55658(8)
H87_8 H 0.3197 0.5867 0.4307
H88_8 H 0.4133 0.5693 0.3197
H89_8 H 0.4307 0.6803 0.4133
H90_8 H 0.4133 0.4307 0.6803
H91_8 H 0.4307 0.3197 0.5867
H92_8 H 0.3197 0.4133 0.5693
C154_8 C 0.34821(6) 0.62292(7) 0.43802(7)
C155_8 C 0.37708(7) 0.56198(7) 0.34821(6)
C156_8 C 0.43802(7) 0.65179(6) 0.37708(7)
C157_8 C 0.37708(7) 0.43802(7) 0.65179(6)
C158_8 C 0.43802(7) 0.34821(6) 0.62292(7)
C159_8 C 0.34821(6) 0.37708(7) 0.56198(7)
C165_8 C 0.35092(8) 0.64899(7) 0.45693(7)
C166_8 C 0.35101(7) 0.54307(7) 0.35092(8)
C167_8 C 0.45693(7) 0.64908(8) 0.35101(7)
C168_8 C 0.35101(7) 0.45693(7) 0.64908(8)
C169_8 C 0.45693(7) 0.35092(8) 0.64899(7)
C170_8 C 0.35092(8) 0.35101(7) 0.54307(7)
H98_8 H 0.3672 0.6631 0.4538
H99_8 H 0.3369 0.5462 0.3672
H100_8 H 0.4538 0.6328 0.3369
H101_8 H 0.3369 0.4538 0.6328
H102_8 H 0.4538 0.3672 0.6631
H103_8 H 0.3672 0.3369 0.5462
C176_8 C 0.32985(9) 0.65402(8) 0.48002(9)
C177_8 C 0.34598(8) 0.51998(9) 0.32985(9)
C178_8 C 0.48002(9) 0.67015(9) 0.34598(8)
C179_8 C 0.34598(8) 0.48002(9) 0.67015(9)
C180_8 C 0.48002(9) 0.32985(9) 0.65402(8)
C181_8 C 0.32985(9) 0.34598(8) 0.51998(9)
H109_8 H 0.3325 0.6715 0.4927
H110_8 H 0.3285 0.5073 0.3325
H111_8 H 0.4927 0.6675 0.3285
H112_8 H 0.3285 0.4927 0.6675
H113_8 H 0.4927 0.3325 0.6715
H114_8 H 0.3325 0.3285 0.5073
C187_8 C 0.37014(6) 0.61609(6) 0.41223(6)
C188_8 C 0.38391(6) 0.58777(6) 0.37014(6)
C189_8 C 0.41223(6) 0.62986(6) 0.38391(6)
C190_8 C 0.38391(6) 0.41223(6) 0.62986(6)
C191_8 C 0.41223(6) 0.37014(6) 0.61609(6)
C192_8 C 0.37014(6) 0.38391(6) 0.58777(6)
N51_8 N 0.36358(5) 0.59208(6) 0.39383(6)
N52_8 N 0.40792(6) 0.60617(6) 0.36358(5)
N53_8 N 0.39383(6) 0.63642(5) 0.40792(6)
N54_8 N 0.40792(6) 0.39383(6) 0.63642(5)
N55_8 N 0.39383(6) 0.36358(5) 0.59208(6)
N56_8 N 0.36358(5) 0.40792(6) 0.60617(6)
O23_14 O 0.32761(4) 0.47261(5) 0.77699(5)
O24_14 O 0.22301(5) 0.52739(5) 0.82761(4)
O25_14 O 0.27699(5) 0.52739(5) 0.67239(4)
C1_15 C 0.19116(6) 0.51841(6) 0.25622(6)
C2_15 C 0.22207(6) 0.53406(6) 0.25368(6)
C3_15 C 0.2500 0.51751(7) 0.2500
C4_15 C 0.22267(7) 0.56693(6) 0.25406(7)
H1_15 H 0.2042 0.5781 0.2571
C5_15 C 0.2500 0.58248(9) 0.2500
H2_15 H 0.2500 0.6042 0.2500
O2_15 O 0.17239(4) 0.52739(5) 0.27699(5)
C18_15 C 0.30884(6) 0.51841(6) 0.24378(6)
C19_15 C 0.24378(6) 0.48159(6) 0.19116(6)
C20_15 C 0.25622(6) 0.48159(6) 0.30884(6)
C29_15 C 0.27793(6) 0.53406(6) 0.24632(6)
C30_15 C 0.24632(6) 0.46594(6) 0.22207(6)
C31_15 C 0.25368(6) 0.46594(6) 0.27793(6)
C40_15 C 0.2500 0.48249(7) 0.2500
C45_15 C 0.27733(7) 0.56693(6) 0.24594(7)
C46_15 C 0.24594(7) 0.43307(6) 0.22267(7)
C47_15 C 0.25406(7) 0.43307(6) 0.27733(7)
H11_15 H 0.2958 0.5781 0.2429
H12_15 H 0.2429 0.4219 0.2042
H13_15 H 0.2571 0.4219 0.2958
C56_15 C 0.2500 0.41752(9) 0.2500
H22_15 H 0.2500 0.3958 0.2500
O23_15 O 0.32761(4) 0.52739(5) 0.22301(5)
O24_15 O 0.22301(5) 0.47261(5) 0.17239(4)
O25_15 O 0.27699(5) 0.47261(5) 0.32761(4)
H141_14 H 0.765303 0.0995346 0.987284
H175_14 H 0.734697 0.400465 0.987284
H141_15 H 0.234697 0.900465 0.987284
H175_15 H 0.265303 0.599535 0.987284
H141_16 H 0.234697 0.0995346 0.0127161
H175_16 H 0.265303 0.400465 0.0127161
C21_5 C 0.80884(6) 0.51841(6) 0.74378(6)
C22_5 C 0.69116(6) 0.51841(6) 0.75622(6)
C23_5 C 0.75622(6) 0.48159(6) 0.80884(6)
C24_5 C 0.74378(6) 0.48159(6) 0.69116(6)
C32_5 C 0.77793(6) 0.53406(6) 0.74632(6)
C33_5 C 0.72207(6) 0.53406(6) 0.75368(6)
C34_5 C 0.75368(6) 0.46594(6) 0.77793(6)
C35_5 C 0.74632(6) 0.46594(6) 0.72207(6)
C41_5 C 0.7500 0.51751(7) 0.7500
C42_5 C 0.7500 0.48249(7) 0.7500
C48_5 C 0.77733(7) 0.56693(6) 0.74594(7)
C49_5 C 0.72267(7) 0.56693(6) 0.75406(7)
C50_5 C 0.75406(7) 0.43307(6) 0.77733(7)
C51_5 C 0.74594(7) 0.43307(6) 0.72267(7)
H14_5 H 0.7958 0.5781 0.7429
H15_5 H 0.7042 0.5781 0.7571
H16_5 H 0.7571 0.4219 0.7958
H17_5 H 0.7429 0.4219 0.7042
C57_5 C 0.7500 0.58248(9) 0.7500
C58_5 C 0.7500 0.41752(9) 0.7500
H23_5 H 0.7500 0.6042 0.7500
H24_5 H 0.7500 0.3958 0.7500
O26_5 O 0.82761(4) 0.52739(5) 0.72301(5)
O27_5 O 0.67239(4) 0.52739(5) 0.77699(5)
O28_5 O 0.77699(5) 0.47261(5) 0.82761(4)
O29_5 O 0.72301(5) 0.47261(5) 0.67239(4)
H141_17 H 0.765303 0.900465 0.0127161
H175_17 H 0.734697 0.599535 0.0127161
H141_18 H 0.765303 0.987284 0.599535
H175_18 H 0.734697 0.987284 0.900465
H141_19 H 0.234697 0.987284 0.400465
H175_19 H 0.265303 0.987284 0.0995346
H141_20 H 0.234697 0.0127161 0.599535
H175_20 H 0.265303 0.0127161 0.900465
H141_21 H 0.0127161 0.765303 0.900465
H175_21 H 0.0127161 0.734697 0.599535
H141_22 H 0.0127161 0.234697 0.0995346
H175_22 H 0.0127161 0.265303 0.400465
H141_23 H 0.987284 0.234697 0.900465
H175_23 H 0.987284 0.265303 0.599535
H141_24 H 0.987284 0.765303 0.0995346
H175_24 H 0.987284 0.734697 0.400465
loop_
_geom_bond_atom_site_label_1
_geom_bond_atom_site_label_2
_geom_bond_site_symmetry_1
_geom_bond_site_symmetry_2
C63 H29 1_555 1_555
C64 H30 1_555 1_555
C65 H31 1_555 1_555
C74 C63 1_555 1_555
C75 C64 1_555 1_555
C76 C65 1_555 1_555
H40 C74 1_555 1_555
H41 C75 1_555 1_555
H42 C76 1_555 1_555
C85 C74 1_555 1_555
C86 C75 1_555 1_555
C87 C76 1_555 1_555
C96 C85 1_555 1_555
C97 C86 1_555 1_555
C98 C87 1_555 1_555
H51 C96 1_555 1_555
H52 C97 1_555 1_555
H53 C98 1_555 1_555
C107 C96 1_555 1_555
C108 C97 1_555 1_555
C109 C98 1_555 1_555
H62 C107 1_555 1_555
H63 C108 1_555 1_555
H64 C109 1_555 1_555
C118 C85 1_555 1_555
C119 C86 1_555 1_555
C120 C87 1_555 1_555
N7 C63 1_555 1_555
N8 C64 1_555 1_555
N9 C65 1_555 1_555
N20 C118 1_555 1_555
N21 C119 1_555 1_555
N22 C118 1_555 1_555
N42 Ni9 1_555 1_555
N43 Ni10 1_555 1_555
Ni4 N7 1_555 1_555
Ni9 N8 1_555 1_555
Ni10 N9 1_555 1_555
O17 Ni4 1_555 1_555
O19 Ni9 1_555 1_555
O20 Ni10 1_555 1_555
O36 Ni4 1_555 1_555
O41 Ni9 1_555 1_555
O42 Ni10 1_555 1_555
O47 Ni4 1_555 1_555
O52 Ni9 1_555 1_555
O53 Ni10 1_555 1_555
O58 Ni4 1_555 1_555
O63 Ni9 1_555 1_555
O64 Ni10 1_555 1_555
C107 N7 1_555 1_555
C108 N8 1_555 1_555
C109 N9 1_555 1_555
C119 N20 1_555 1_555
C120 N21 1_555 1_555
C120 N22 1_555 1_555
C21 C32 1_555 1_555
C22 C33 1_555 1_555
C32 C41 1_555 1_555
C33 C41 1_555 1_555
C48 C32 1_555 1_555
C49 C33 1_555 1_555
H14 C48 1_555 1_555
H15 C49 1_555 1_555
C57 C48 1_555 1_555
H23 C57 1_555 1_555
C129 H73 1_555 1_555
C130 H74 1_555 1_555
C131 H75 1_555 1_555
C140 C129 1_555 1_555
C141 C130 1_555 1_555
C142 C131 1_555 1_555
H84 C140 1_555 1_555
H85 C141 1_555 1_555
H86 C142 1_555 1_555
C151 C140 1_555 1_555
C152 C141 1_555 1_555
C153 C142 1_555 1_555
C162 C151 1_555 1_555
C163 C152 1_555 1_555
C164 C153 1_555 1_555
H95 C162 1_555 1_555
H96 C163 1_555 1_555
H97 C164 1_555 1_555
C173 C162 1_555 1_555
C174 C163 1_555 1_555
C175 C164 1_555 1_555
H106 C173 1_555 1_555
H107 C174 1_555 1_555
H108 C175 1_555 1_555
C184 C151 1_555 1_555
C185 C152 1_555 1_555
C186 C153 1_555 1_555
N31 C129 1_555 1_555
N32 C130 1_555 1_555
N43 C131 1_555 1_555
N48 C184 1_555 1_555
N49 C185 1_555 1_555
N50 C184 1_555 1_555
Ni16 O11 1_555 1_555
Ni17 O12 1_555 1_555
O26 C21 1_555 1_555
O27 C22 1_555 1_555
C49 C57 1_555 1_555
C173 N31 1_555 1_555
C174 N32 1_555 1_555
C175 N43 1_555 1_555
C185 N48 1_555 1_555
C186 N49 1_555 1_555
C186 N50 1_555 1_555
C1 C2 1_555 1_555
C2 C3 1_555 1_555
C3 C29 1_555 1_555
C4 C2 1_555 1_555
H1 C4 1_555 1_555
C5 C4 1_555 1_555
H2 C5 1_555 1_555
C12 H7 1_555 1_555
C13 C12 1_555 1_555
H8 C13 1_555 1_555
C14 C13 1_555 1_555
C15 C14 1_555 1_555
H9 C15 1_555 1_555
C16 C15 1_555 1_555
H10 C16 1_555 1_555
C17 C14 1_555 1_555
N3 C12 1_555 1_555
N4 C17 1_555 1_555
O2 C1 1_555 1_555
C18 C29 1_555 1_555
C29 C45 1_555 1_555
C45 C5 1_555 1_555
H11 C45 1_555 1_555
C66 H32 1_555 1_555
C67 H33 1_555 1_555
C68 H34 1_555 1_555
C77 C66 1_555 1_555
C78 C67 1_555 1_555
C79 C68 1_555 1_555
H43 C77 1_555 1_555
H44 C78 1_555 1_555
H45 C79 1_555 1_555
C88 C77 1_555 1_555
C89 C78 1_555 1_555
C90 C79 1_555 1_555
C99 C88 1_555 1_555
C100 C89 1_555 1_555
C101 C90 1_555 1_555
H54 C99 1_555 1_555
H55 C100 1_555 1_555
H56 C101 1_555 1_555
C110 C99 1_555 1_555
C111 C100 1_555 1_555
C112 C101 1_555 1_555
H65 C110 1_555 1_555
H66 C111 1_555 1_555
H67 C112 1_555 1_555
C121 C88 1_555 1_555
C122 C89 1_555 1_555
C123 C90 1_555 1_555
C127 H71 1_555 1_555
C128 H72 1_555 1_555
C135 H79 1_555 1_555
C136 H80 1_555 1_555
C137 H81 1_555 1_555
C138 C127 1_555 1_555
C139 C128 1_555 1_555
C146 C135 1_555 1_555
C147 C136 1_555 1_555
C148 C137 1_555 1_555
H82 C138 1_555 1_555
H83 C139 1_555 1_555
H90 C146 1_555 1_555
H91 C147 1_555 1_555
H92 C148 1_555 1_555
C149 C138 1_555 1_555
C150 C139 1_555 1_555
C157 C146 1_555 1_555
C158 C147 1_555 1_555
C159 C148 1_555 1_555
C160 C149 1_555 1_555
C161 C150 1_555 1_555
C168 C157 1_555 1_555
C169 C158 1_555 1_555
C170 C159 1_555 1_555
H93 C160 1_555 1_555
H94 C161 1_555 1_555
H101 C168 1_555 1_555
H102 C169 1_555 1_555
H103 C170 1_555 1_555
C171 C160 1_555 1_555
C172 C161 1_555 1_555
C179 C168 1_555 1_555
C180 C169 1_555 1_555
C181 C170 1_555 1_555
H104 C171 1_555 1_555
H105 C172 1_555 1_555
H112 C179 1_555 1_555
H113 C180 1_555 1_555
H114 C181 1_555 1_555
C182 N4 1_555 1_555
C183 C150 1_555 1_555
C190 C157 1_555 1_555
C191 C158 1_555 1_555
C192 C159 1_555 1_555
N10 C66 1_555 1_555
N11 C67 1_555 1_555
N12 C68 1_555 1_555
N16 Ni7 1_555 1_555
N17 Ni8 1_555 1_555
N23 C121 1_555 1_555
N24 C122 1_555 1_555
N25 C121 1_555 1_555
N29 C127 1_555 1_555
N30 C128 1_555 1_555
N37 C135 1_555 1_555
N38 C136 1_555 1_555
N39 C137 1_555 1_555
N45 Ni12 1_555 1_555
N46 C182 1_555 1_555
N47 C17 1_555 1_555
N54 C190 1_555 1_555
N55 C191 1_555 1_555
N56 C190 1_555 1_555
Ni5 N10 1_555 1_555
Ni7 O7 1_555 1_555
Ni8 O8 1_555 1_555
Ni11 N11 1_555 1_555
Ni12 N12 1_555 1_555
Ni25 N38 1_555 1_555
O18 Ni5 1_555 1_555
O21 Ni11 1_555 1_555
O22 Ni12 1_555 1_555
O23 C18 1_555 1_555
O37 Ni5 1_555 1_555
O39 Ni7 1_555 1_555
O40 Ni8 1_555 1_555
O43 Ni11 1_555 1_555
O44 Ni12 1_555 1_555
O48 Ni5 1_555 1_555
O50 Ni7 1_555 1_555
O51 Ni8 1_555 1_555
O54 Ni11 1_555 1_555
O55 Ni12 1_555 1_555
O59 Ni5 1_555 1_555
O61 Ni7 1_555 1_555
O62 Ni8 1_555 1_555
O65 Ni11 1_555 1_555
O66 Ni12 1_555 1_555
C16 N3 1_555 1_555
C110 N10 1_555 1_555
C111 N11 1_555 1_555
C112 N12 1_555 1_555
C122 N23 1_555 1_555
C123 N24 1_555 1_555
C123 N25 1_555 1_555
C149 C182 1_555 1_555
C171 N29 1_555 1_555
C172 N30 1_555 1_555
C179 N37 1_555 1_555
C180 N38 1_555 1_555
C181 N39 1_555 1_555
C183 N46 1_555 1_555
C183 N47 1_555 1_555
C191 N54 1_555 1_555
C192 N55 1_555 1_555
C192 N56 1_555 1_555
N30 Ni5 1_555 1_555
O39 H141 1_555 1_555
O40 H175 1_555 1_555
C6 H3 1_555 1_555
C7 C6 1_555 1_555
H4 C7 1_555 1_555
C8 C7 1_555 1_555
C9 C8 1_555 1_555
H5 C9 1_555 1_555
C10 C9 1_555 1_555
H6 C10 1_555 1_555
C11 C8 1_555 1_555
N1 C6 1_555 1_555
N2 C11 1_555 1_555
Ni1 N1 1_555 1_555
O3 Ni1 1_555 1_555
O4 Ni1 1_555 1_555
O5 Ni1 1_555 1_555
C19 C30 1_555 1_555
C20 C31 1_555 1_555
C23 C34 1_555 1_555
C24 C35 1_555 1_555
C27 C38 1_555 1_555
C28 C39 1_555 1_555
C30 C40 1_555 1_555
C31 C40 1_555 1_555
C34 C42 1_555 1_555
C35 C42 1_555 1_555
C38 C44 1_555 1_555
C39 C44 1_555 1_555
C46 C30 1_555 1_555
C47 C31 1_555 1_555
C50 C34 1_555 1_555
C51 C35 1_555 1_555
C54 C38 1_555 1_555
C55 C39 1_555 1_555
H12 C46 1_555 1_555
H13 C47 1_555 1_555
H16 C50 1_555 1_555
H17 C51 1_555 1_555
H20 C54 1_555 1_555
H21 C55 1_555 1_555
C56 C46 1_555 1_555
C58 C50 1_555 1_555
C60 C54 1_555 1_555
H22 C56 1_555 1_555
H24 C58 1_555 1_555
H26 C60 1_555 1_555
C61 H27 1_555 1_555
C62 H28 1_555 1_555
C69 H35 1_555 1_555
C70 H36 1_555 1_555
C71 H37 1_555 1_555
C72 C61 1_555 1_555
C73 C62 1_555 1_555
C80 C69 1_555 1_555
C81 C70 1_555 1_555
C82 C71 1_555 1_555
H38 C72 1_555 1_555
H39 C73 1_555 1_555
H46 C80 1_555 1_555
H47 C81 1_555 1_555
H48 C82 1_555 1_555
C83 C72 1_555 1_555
C84 C73 1_555 1_555
C91 C80 1_555 1_555
C92 C81 1_555 1_555
C93 C82 1_555 1_555
C94 C83 1_555 1_555
C95 C84 1_555 1_555
C102 C91 1_555 1_555
C103 C92 1_555 1_555
C104 C93 1_555 1_555
H49 C94 1_555 1_555
H50 C95 1_555 1_555
H57 C102 1_555 1_555
H58 C103 1_555 1_555
H59 C104 1_555 1_555
C105 C94 1_555 1_555
C106 C95 1_555 1_555
C113 C102 1_555 1_555
C114 C103 1_555 1_555
C115 C104 1_555 1_555
H60 C105 1_555 1_555
H61 C106 1_555 1_555
H68 C113 1_555 1_555
H69 C114 1_555 1_555
H70 C115 1_555 1_555
C116 N2 1_555 1_555
C117 C84 1_555 1_555
C124 C91 1_555 1_555
C125 C92 1_555 1_555
C126 C93 1_555 1_555
N5 C61 1_555 1_555
N6 C62 1_555 1_555
N13 C69 1_555 1_555
N14 C70 1_555 1_555
N15 C71 1_555 1_555
N18 C116 1_555 1_555
N19 C11 1_555 1_555
N26 C124 1_555 1_555
N27 C125 1_555 1_555
N28 C124 1_555 1_555
Ni2 N5 1_555 1_555
Ni3 N6 1_555 1_555
Ni6 N13 1_555 1_555
Ni15 O10 1_555 1_555
Ni20 O14 1_555 1_555
Ni23 N14 1_555 1_555
Ni24 N15 1_555 1_555
O24 C19 1_555 1_555
O25 C20 1_555 1_555
O28 C23 1_555 1_555
O29 C24 1_555 1_555
O32 C27 1_555 1_555
O33 C28 1_555 1_555
O34 Ni2 1_555 1_555
O35 Ni3 1_555 1_555
O38 Ni6 1_555 1_555
O45 Ni2 1_555 1_555
O46 Ni3 1_555 1_555
O49 Ni6 1_555 1_555
O56 Ni2 1_555 1_555
O57 Ni3 1_555 1_555
O60 Ni6 1_555 1_555
C10 N1 1_555 1_555
Ni1 O1 1_555 1_555
C47 C56 1_555 1_555
C51 C58 1_555 1_555
C55 C60 1_555 1_555
C83 C116 1_555 1_555
C105 N5 1_555 1_555
C106 N6 1_555 1_555
C113 N13 1_555 1_555
C114 N14 1_555 1_555
C115 N15 1_555 1_555
C117 N18 1_555 1_555
C117 N19 1_555 1_555
C125 N26 1_555 1_555
C126 N27 1_555 1_555
C126 N28 1_555 1_555
Ni2 O9 1_555 1_555
Ni3 O13 1_555 1_555
Ni6 O6 1_555 1_555
C25 C36 1_555 1_555
C26 C37 1_555 1_555
C36 C43 1_555 1_555
C37 C43 1_555 1_555
C52 C36 1_555 1_555
C53 C37 1_555 1_555
H18 C52 1_555 1_555
H19 C53 1_555 1_555
C59 C52 1_555 1_555
H25 C59 1_555 1_555
C132 H76 1_555 1_555
C133 H77 1_555 1_555
C134 H78 1_555 1_555
C143 C132 1_555 1_555
C144 C133 1_555 1_555
C145 C134 1_555 1_555
H87 C143 1_555 1_555
H88 C144 1_555 1_555
H89 C145 1_555 1_555
C154 C143 1_555 1_555
C155 C144 1_555 1_555
C156 C145 1_555 1_555
C165 C154 1_555 1_555
C166 C155 1_555 1_555
C167 C156 1_555 1_555
H98 C165 1_555 1_555
H99 C166 1_555 1_555
H100 C167 1_555 1_555
C176 C165 1_555 1_555
C177 C166 1_555 1_555
C178 C167 1_555 1_555
H109 C176 1_555 1_555
H110 C177 1_555 1_555
H111 C178 1_555 1_555
C187 C154 1_555 1_555
C188 C155 1_555 1_555
C189 C156 1_555 1_555
N34 C132 1_555 1_555
N44 C133 1_555 1_555
N36 C134 1_555 1_555
N51 C187 1_555 1_555
N52 C188 1_555 1_555
N53 C187 1_555 1_555
Ni19 N36 1_555 1_555
Ni21 O15 1_555 1_555
Ni22 O16 1_555 1_555
O30 C25 1_555 1_555
O31 C26 1_555 1_555
C53 C59 1_555 1_555
C176 N34 1_555 1_555
C177 N44 1_555 1_555
C178 N36 1_555 1_555
C188 N51 1_555 1_555
C189 N52 1_555 1_555
C189 N53 1_555 1_555
C63_2 H29_2 1_555 1_555
C64_2 H30_2 1_555 1_555
C65_2 H31_2 1_555 1_555
C74_2 C63_2 1_555 1_555
C75_2 C64_2 1_555 1_555
C76_2 C65_2 1_555 1_555
H40_2 C74_2 1_555 1_555
H41_2 C75_2 1_555 1_555
H42_2 C76_2 1_555 1_555
C85_2 C74_2 1_555 1_555
C86_2 C75_2 1_555 1_555
C87_2 C76_2 1_555 1_555
C96_2 C85_2 1_555 1_555
C97_2 C86_2 1_555 1_555
C98_2 C87_2 1_555 1_555
H51_2 C96_2 1_555 1_555
H52_2 C97_2 1_555 1_555
H53_2 C98_2 1_555 1_555
C107_2 C96_2 1_555 1_555
C108_2 C97_2 1_555 1_555
C109_2 C98_2 1_555 1_555
H62_2 C107_2 1_555 1_555
H63_2 C108_2 1_555 1_555
H64_2 C109_2 1_555 1_555
C118_2 C85_2 1_555 1_555
C119_2 C86_2 1_555 1_555
C120_2 C87_2 1_555 1_555
C129_2 H73_2 1_555 1_555
C130_2 H74_2 1_555 1_555
C131_2 H75_2 1_555 1_555
C140_2 C129_2 1_555 1_555
C141_2 C130_2 1_555 1_555
C142_2 C131_2 1_555 1_555
H84_2 C140_2 1_555 1_555
H85_2 C141_2 1_555 1_555
H86_2 C142_2 1_555 1_555
C151_2 C140_2 1_555 1_555
C152_2 C141_2 1_555 1_555
C153_2 C142_2 1_555 1_555
C162_2 C151_2 1_555 1_555
C163_2 C152_2 1_555 1_555
C164_2 C153_2 1_555 1_555
H95_2 C162_2 1_555 1_555
H96_2 C163_2 1_555 1_555
H97_2 C164_2 1_555 1_555
C173_2 C162_2 1_555 1_555
C174_2 C163_2 1_555 1_555
C175_2 C164_2 1_555 1_555
H106_2 C173_2 1_555 1_555
H107_2 C174_2 1_555 1_555
H108_2 C175_2 1_555 1_555
C184_2 C151_2 1_555 1_555
C185_2 C152_2 1_555 1_555
C186_2 C153_2 1_555 1_555
N7_2 C63_2 1_555 1_555
N8_2 C64_2 1_555 1_555
N17 C65_2 1_555 1_555
N20_2 C118_2 1_555 1_555
N21_2 C119_2 1_555 1_555
N22_2 C118_2 1_555 1_555
N31_2 C129_2 1_555 1_555
N32_2 C130_2 1_555 1_555
N41 C131_2 1_555 1_555
N42_2 Ni9_2 1_555 1_555
N48_2 C184_2 1_555 1_555
N49_2 C185_2 1_555 1_555
N50_2 C184_2 1_555 1_555
Ni4_2 N7_2 1_555 1_555
Ni9_2 N8_2 1_555 1_555
O17_2 Ni4_2 1_555 1_555
O19_2 Ni9_2 1_555 1_555
O36_2 Ni4_2 1_555 1_555
O41_2 Ni9_2 1_555 1_555
O47_2 Ni4_2 1_555 1_555
O52_2 Ni9_2 1_555 1_555
O58_2 Ni4_2 1_555 1_555
O63_2 Ni9_2 1_555 1_555
C107_2 N7_2 1_555 1_555
C108_2 N8_2 1_555 1_555
C109_2 N17 1_555 1_555
C119_2 N20_2 1_555 1_555
C120_2 N21_2 1_555 1_555
C120_2 N22_2 1_555 1_555
C173_2 N31_2 1_555 1_555
C174_2 N32_2 1_555 1_555
C175_2 N41 1_555 1_555
C185_2 N48_2 1_555 1_555
C186_2 N49_2 1_555 1_555
C186_2 N50_2 1_555 1_555
C25_2 C36_2 1_555 1_555
C26_2 C37_2 1_555 1_555
C36_2 C43_2 1_555 1_555
C37_2 C43_2 1_555 1_555
C52_2 C36_2 1_555 1_555
C53_2 C37_2 1_555 1_555
H18_2 C52_2 1_555 1_555
H19_2 C53_2 1_555 1_555
C59_2 C52_2 1_555 1_555
H25_2 C59_2 1_555 1_555
C132_2 H76_2 1_555 1_555
C133_2 H77_2 1_555 1_555
C134_2 H78_2 1_555 1_555
C143_2 C132_2 1_555 1_555
C144_2 C133_2 1_555 1_555
C145_2 C134_2 1_555 1_555
H87_2 C143_2 1_555 1_555
H88_2 C144_2 1_555 1_555
H89_2 C145_2 1_555 1_555
C154_2 C143_2 1_555 1_555
C155_2 C144_2 1_555 1_555
C156_2 C145_2 1_555 1_555
C165_2 C154_2 1_555 1_555
C166_2 C155_2 1_555 1_555
C167_2 C156_2 1_555 1_555
H98_2 C165_2 1_555 1_555
H99_2 C166_2 1_555 1_555
H100_2 C167_2 1_555 1_555
C176_2 C165_2 1_555 1_555
C177_2 C166_2 1_555 1_555
C178_2 C167_2 1_555 1_555
H109_2 C176_2 1_555 1_555
H110_2 C177_2 1_555 1_555
H111_2 C178_2 1_555 1_555
C187_2 C154_2 1_555 1_555
C188_2 C155_2 1_555 1_555
C189_2 C156_2 1_555 1_555
N34_2 C132_2 1_555 1_555
N35 C133_2 1_555 1_555
N36_2 C134_2 1_555 1_555
N51_2 C187_2 1_555 1_555
N52_2 C188_2 1_555 1_555
N53_2 C187_2 1_555 1_555
Ni18 N35 1_555 1_555
Ni19_2 N36_2 1_555 1_555
Ni21_2 O15_2 1_555 1_555
Ni22_2 O16_2 1_555 1_555
O30_2 C25_2 1_555 1_555
O31_2 C26_2 1_555 1_555
C53_2 C59_2 1_555 1_555
C176_2 N34_2 1_555 1_555
C177_2 N35 1_555 1_555
C178_2 N36_2 1_555 1_555
C188_2 N51_2 1_555 1_555
C189_2 N52_2 1_555 1_555
C189_2 N53_2 1_555 1_555
C1_2 C2_2 1_555 1_555
C2_2 C3_2 1_555 1_555
C3_2 C29_2 1_555 1_555
C4_2 C2_2 1_555 1_555
H1_2 C4_2 1_555 1_555
C5_2 C4_2 1_555 1_555
H2_2 C5_2 1_555 1_555
C6_2 H3_2 1_555 1_555
C7_2 C6_2 1_555 1_555
H4_2 C7_2 1_555 1_555
C8_2 C7_2 1_555 1_555
C9_2 C8_2 1_555 1_555
H5_2 C9_2 1_555 1_555
C10_2 C9_2 1_555 1_555
H6_2 C10_2 1_555 1_555
C11_2 C8_2 1_555 1_555
C12_2 H7_2 1_555 1_555
C13_2 C12_2 1_555 1_555
H8_2 C13_2 1_555 1_555
C14_2 C13_2 1_555 1_555
C15_2 C14_2 1_555 1_555
H9_2 C15_2 1_555 1_555
C16_2 C15_2 1_555 1_555
H10_2 C16_2 1_555 1_555
C17_2 C14_2 1_555 1_555
N1_2 C6_2 1_555 1_555
N2_2 C11_2 1_555 1_555
N3_2 C12_2 1_555 1_555
N4_2 C17_2 1_555 1_555
Ni1_2 N1_2 1_555 1_555
O1_2 C1_2 1_555 1_555
O2_2 C1_2 1_555 1_555
O3_2 Ni1_2 1_555 1_555
O4_2 Ni1_2 1_555 1_555
O5_2 Ni1_2 1_555 1_555
C18_2 C29_2 1_555 1_555
C19_2 C30_2 1_555 1_555
C20_2 C31_2 1_555 1_555
C27_2 C38_2 1_555 1_555
C28_2 C39_2 1_555 1_555
C29_2 C45_2 1_555 1_555
C30_2 C40_2 1_555 1_555
C31_2 C40_2 1_555 1_555
C38_2 C44_2 1_555 1_555
C39_2 C44_2 1_555 1_555
C40_2 C3_2 1_555 1_555
C45_2 C5_2 1_555 1_555
C46_2 C30_2 1_555 1_555
C47_2 C31_2 1_555 1_555
C54_2 C38_2 1_555 1_555
C55_2 C39_2 1_555 1_555
H11_2 C45_2 1_555 1_555
H12_2 C46_2 1_555 1_555
H13_2 C47_2 1_555 1_555
H20_2 C54_2 1_555 1_555
H21_2 C55_2 1_555 1_555
C56_2 C46_2 1_555 1_555
C60_2 C54_2 1_555 1_555
H22_2 C56_2 1_555 1_555
H26_2 C60_2 1_555 1_555
C61_2 H27_2 1_555 1_555
C62_2 H28_2 1_555 1_555
C66_2 H32_2 1_555 1_555
C67_2 H33_2 1_555 1_555
C68_2 H34_2 1_555 1_555
C69_2 H35_2 1_555 1_555
C70_2 H36_2 1_555 1_555
C71_2 H37_2 1_555 1_555
C72_2 C61_2 1_555 1_555
C73_2 C62_2 1_555 1_555
C77_2 C66_2 1_555 1_555
C78_2 C67_2 1_555 1_555
C79_2 C68_2 1_555 1_555
C80_2 C69_2 1_555 1_555
C81_2 C70_2 1_555 1_555
C82_2 C71_2 1_555 1_555
H38_2 C72_2 1_555 1_555
H39_2 C73_2 1_555 1_555
H43_2 C77_2 1_555 1_555
H44_2 C78_2 1_555 1_555
H45_2 C79_2 1_555 1_555
H46_2 C80_2 1_555 1_555
H47_2 C81_2 1_555 1_555
H48_2 C82_2 1_555 1_555
C83_2 C72_2 1_555 1_555
C84_2 C73_2 1_555 1_555
C88_2 C77_2 1_555 1_555
C89_2 C78_2 1_555 1_555
C90_2 C79_2 1_555 1_555
C91_2 C80_2 1_555 1_555
C92_2 C81_2 1_555 1_555
C93_2 C82_2 1_555 1_555
C94_2 C83_2 1_555 1_555
C95_2 C84_2 1_555 1_555
C99_2 C88_2 1_555 1_555
C100_2 C89_2 1_555 1_555
C101_2 C90_2 1_555 1_555
C102_2 C91_2 1_555 1_555
C103_2 C92_2 1_555 1_555
C104_2 C93_2 1_555 1_555
H49_2 C94_2 1_555 1_555
H50_2 C95_2 1_555 1_555
H54_2 C99_2 1_555 1_555
H55_2 C100_2 1_555 1_555
H56_2 C101_2 1_555 1_555
H57_2 C102_2 1_555 1_555
H58_2 C103_2 1_555 1_555
H59_2 C104_2 1_555 1_555
C105_2 C94_2 1_555 1_555
C106_2 C95_2 1_555 1_555
C110_2 C99_2 1_555 1_555
C111_2 C100_2 1_555 1_555
C112_2 C101_2 1_555 1_555
C113_2 C102_2 1_555 1_555
C114_2 C103_2 1_555 1_555
C115_2 C104_2 1_555 1_555
H60_2 C105_2 1_555 1_555
H61_2 C106_2 1_555 1_555
H65_2 C110_2 1_555 1_555
H66_2 C111_2 1_555 1_555
H67_2 C112_2 1_555 1_555
H68_2 C113_2 1_555 1_555
H69_2 C114_2 1_555 1_555
H70_2 C115_2 1_555 1_555
C116_2 N2_2 1_555 1_555
C117_2 C84_2 1_555 1_555
C121_2 C88_2 1_555 1_555
C122_2 C89_2 1_555 1_555
C123_2 C90_2 1_555 1_555
C124_2 C91_2 1_555 1_555
C125_2 C92_2 1_555 1_555
C126_2 C93_2 1_555 1_555
C127_2 H71_2 1_555 1_555
C128_2 H72_2 1_555 1_555
C135_2 H79_2 1_555 1_555
C136_2 H80_2 1_555 1_555
C137_2 H81_2 1_555 1_555
C138_2 C127_2 1_555 1_555
C139_2 C128_2 1_555 1_555
C146_2 C135_2 1_555 1_555
C147_2 C136_2 1_555 1_555
C148_2 C137_2 1_555 1_555
H82_2 C138_2 1_555 1_555
H83_2 C139_2 1_555 1_555
H90_2 C146_2 1_555 1_555
H91_2 C147_2 1_555 1_555
H92_2 C148_2 1_555 1_555
C149_2 C138_2 1_555 1_555
C150_2 C139_2 1_555 1_555
C157_2 C146_2 1_555 1_555
C158_2 C147_2 1_555 1_555
C159_2 C148_2 1_555 1_555
C160_2 C149_2 1_555 1_555
C161_2 C150_2 1_555 1_555
C168_2 C157_2 1_555 1_555
C169_2 C158_2 1_555 1_555
C170_2 C159_2 1_555 1_555
H93_2 C160_2 1_555 1_555
H94_2 C161_2 1_555 1_555
H101_2 C168_2 1_555 1_555
H102_2 C169_2 1_555 1_555
H103_2 C170_2 1_555 1_555
C171_2 C160_2 1_555 1_555
C172_2 C161_2 1_555 1_555
C179_2 C168_2 1_555 1_555
C180_2 C169_2 1_555 1_555
C181_2 C170_2 1_555 1_555
H104_2 C171_2 1_555 1_555
H105_2 C172_2 1_555 1_555
H112_2 C179_2 1_555 1_555
H113_2 C180_2 1_555 1_555
H114_2 C181_2 1_555 1_555
C182_2 N4_2 1_555 1_555
C183_2 C150_2 1_555 1_555
C190_2 C157_2 1_555 1_555
C191_2 C158_2 1_555 1_555
C192_2 C159_2 1_555 1_555
N5_2 C61_2 1_555 1_555
N6_2 C62_2 1_555 1_555
N10_2 C66_2 1_555 1_555
N11_2 C67_2 1_555 1_555
N12_2 C68_2 1_555 1_555
N13_2 C69_2 1_555 1_555
N14_2 C70_2 1_555 1_555
N15_2 C71_2 1_555 1_555
N16_2 Ni7_2 1_555 1_555
N17_2 Ni8_2 1_555 1_555
N18_2 C116_2 1_555 1_555
N19_2 C11_2 1_555 1_555
N23_2 C121_2 1_555 1_555
N24_2 C122_2 1_555 1_555
N25_2 C121_2 1_555 1_555
N26_2 C124_2 1_555 1_555
N27_2 C125_2 1_555 1_555
N28_2 C124_2 1_555 1_555
N29_2 C127_2 1_555 1_555
N30_2 C128_2 1_555 1_555
N37_2 C135_2 1_555 1_555
N38_2 C136_2 1_555 1_555
N39_2 C137_2 1_555 1_555
N40_2 Ni7_2 1_555 1_555
N41_2 Ni8_2 1_555 1_555
N45_2 Ni12_2 1_555 1_555
N46_2 C182_2 1_555 1_555
N47_2 C17_2 1_555 1_555
N54_2 C190_2 1_555 1_555
N55_2 C191_2 1_555 1_555
N56_2 C190_2 1_555 1_555
Ni22 N5_2 1_555 1_555
Ni3_2 N6_2 1_555 1_555
Ni5_2 N10_2 1_555 1_555
Ni6_2 N13_2 1_555 1_555
Ni7_2 O7_2 1_555 1_555
Ni8_2 O8_2 1_555 1_555
Ni18 N11_2 1_555 1_555
Ni12_2 N12_2 1_555 1_555
Ni20_2 O14_2 1_555 1_555
Ni23_2 N14_2 1_555 1_555
Ni24_2 N15_2 1_555 1_555
Ni25_2 N38_2 1_555 1_555
O6_2 C18_2 1_555 1_555
O7_2 C19_2 1_555 1_555
O8_2 C20_2 1_555 1_555
O18_2 Ni5_2 1_555 1_555
O21_2 Ni18 1_555 1_555
O22_2 Ni12_2 1_555 1_555
O23_2 C18_2 1_555 1_555
O24_2 C19_2 1_555 1_555
O25_2 C20_2 1_555 1_555
O32_2 C27_2 1_555 1_555
O33_2 C28_2 1_555 1_555
O34_2 Ni22 1_555 1_555
O35_2 Ni3_2 1_555 1_555
O37_2 Ni5_2 1_555 1_555
O38_2 Ni6_2 1_555 1_555
O39_2 Ni7_2 1_555 1_555
O40_2 Ni8_2 1_555 1_555
O43_2 Ni18 1_555 1_555
O44_2 Ni12_2 1_555 1_555
O45_2 Ni22 1_555 1_555
O46_2 Ni3_2 1_555 1_555
O48_2 Ni5_2 1_555 1_555
O49_2 Ni6_2 1_555 1_555
O50_2 Ni7_2 1_555 1_555
O51_2 Ni8_2 1_555 1_555
O54_2 Ni18 1_555 1_555
O55_2 Ni12_2 1_555 1_555
O56_2 Ni22 1_555 1_555
O57_2 Ni3_2 1_555 1_555
O59_2 Ni5_2 1_555 1_555
O60_2 Ni6_2 1_555 1_555
O61_2 Ni7_2 1_555 1_555
O62_2 Ni8_2 1_555 1_555
O65_2 Ni18 1_555 1_555
O66_2 Ni12_2 1_555 1_555
C10_2 N1_2 1_555 1_555
C16_2 N3_2 1_555 1_555
N3_2 Ni1_2 1_555 1_555
Ni1_2 O1_2 1_555 1_555
C47_2 C56_2 1_555 1_555
C55_2 C60_2 1_555 1_555
C83_2 C116_2 1_555 1_555
C105_2 N5_2 1_555 1_555
C106_2 N6_2 1_555 1_555
C110_2 N10_2 1_555 1_555
C111_2 N11_2 1_555 1_555
C112_2 N12_2 1_555 1_555
C113_2 N13_2 1_555 1_555
C114_2 N14_2 1_555 1_555
C115_2 N15_2 1_555 1_555
C117_2 N18_2 1_555 1_555
C117_2 N19_2 1_555 1_555
C122_2 N23_2 1_555 1_555
C123_2 N24_2 1_555 1_555
C123_2 N25_2 1_555 1_555
C125_2 N26_2 1_555 1_555
C126_2 N27_2 1_555 1_555
C126_2 N28_2 1_555 1_555
C149_2 C182_2 1_555 1_555
C171_2 N29_2 1_555 1_555
C172_2 N30_2 1_555 1_555
C179_2 N37_2 1_555 1_555
C180_2 N38_2 1_555 1_555
C181_2 N39_2 1_555 1_555
C183_2 N46_2 1_555 1_555
C183_2 N47_2 1_555 1_555
C191_2 N54_2 1_555 1_555
C192_2 N55_2 1_555 1_555
C192_2 N56_2 1_555 1_555
N30_2 Ni5_2 1_555 1_555
N37_2 Ni6_2 1_555 1_555
Ni3_2 O13_2 1_555 1_555
Ni6_2 O6_2 1_555 1_555
C25_3 C36_3 1_555 1_555
C26_3 C37_3 1_555 1_555
C36_3 C43_3 1_555 1_555
C37_3 C43_3 1_555 1_555
C52_3 C36_3 1_555 1_555
C53_3 C37_3 1_555 1_555
H18_3 C52_3 1_555 1_555
H19_3 C53_3 1_555 1_555
C59_3 C52_3 1_555 1_555
H25_3 C59_3 1_555 1_555
C132_3 H76_3 1_555 1_555
C133_3 H77_3 1_555 1_555
C134_3 H78_3 1_555 1_555
C143_3 C132_3 1_555 1_555
C144_3 C133_3 1_555 1_555
C145_3 C134_3 1_555 1_555
H87_3 C143_3 1_555 1_555
H88_3 C144_3 1_555 1_555
H89_3 C145_3 1_555 1_555
C154_3 C143_3 1_555 1_555
C155_3 C144_3 1_555 1_555
C156_3 C145_3 1_555 1_555
C165_3 C154_3 1_555 1_555
C166_3 C155_3 1_555 1_555
C167_3 C156_3 1_555 1_555
H98_3 C165_3 1_555 1_555
H99_3 C166_3 1_555 1_555
H100_3 C167_3 1_555 1_555
C176_3 C165_3 1_555 1_555
C177_3 C166_3 1_555 1_555
C178_3 C167_3 1_555 1_555
H109_3 C176_3 1_555 1_555
H110_3 C177_3 1_555 1_555
H111_3 C178_3 1_555 1_555
C187_3 C154_3 1_555 1_555
C188_3 C155_3 1_555 1_555
C189_3 C156_3 1_555 1_555
N34_3 C132_3 1_555 1_555
N35_2 C133_3 1_555 1_555
N36_3 C134_3 1_555 1_555
N51_3 C187_3 1_555 1_555
N52_3 C188_3 1_555 1_555
N53_3 C187_3 1_555 1_555
Ni19_3 N36_3 1_555 1_555
Ni21_3 O15_3 1_555 1_555
Ni22_3 O16_3 1_555 1_555
O30_3 C25_3 1_555 1_555
O31_3 C26_3 1_555 1_555
C53_3 C59_3 1_555 1_555
C176_3 N34_3 1_555 1_555
C177_3 N35_2 1_555 1_555
C178_3 N36_3 1_555 1_555
C188_3 N51_3 1_555 1_555
C189_3 N52_3 1_555 1_555
C189_3 N53_3 1_555 1_555
C1_3 C2_3 1_555 1_555
C2_3 C3_3 1_555 1_555
C3_3 C29_3 1_555 1_555
C4_3 C2_3 1_555 1_555
H1_3 C4_3 1_555 1_555
C5_3 C4_3 1_555 1_555
H2_3 C5_3 1_555 1_555
C12_3 H7_3 1_555 1_555
C13_3 C12_3 1_555 1_555
H8_3 C13_3 1_555 1_555
C14_3 C13_3 1_555 1_555
C15_3 C14_3 1_555 1_555
H9_3 C15_3 1_555 1_555
C16_3 C15_3 1_555 1_555
H10_3 C16_3 1_555 1_555
C17_3 C14_3 1_555 1_555
N3_3 C12_3 1_555 1_555
N4_3 C17_3 1_555 1_555
O2_3 C1_3 1_555 1_555
C18_3 C29_3 1_555 1_555
C29_3 C45_3 1_555 1_555
C45_3 C5_3 1_555 1_555
H11_3 C45_3 1_555 1_555
C66_3 H32_3 1_555 1_555
C67_3 H33_3 1_555 1_555
C68_3 H34_3 1_555 1_555
C77_3 C66_3 1_555 1_555
C78_3 C67_3 1_555 1_555
C79_3 C68_3 1_555 1_555
H43_3 C77_3 1_555 1_555
H44_3 C78_3 1_555 1_555
H45_3 C79_3 1_555 1_555
C88_3 C77_3 1_555 1_555
C89_3 C78_3 1_555 1_555
C90_3 C79_3 1_555 1_555
C99_3 C88_3 1_555 1_555
C100_3 C89_3 1_555 1_555
C101_3 C90_3 1_555 1_555
H54_3 C99_3 1_555 1_555
H55_3 C100_3 1_555 1_555
H56_3 C101_3 1_555 1_555
C110_3 C99_3 1_555 1_555
C111_3 C100_3 1_555 1_555
C112_3 C101_3 1_555 1_555
H65_3 C110_3 1_555 1_555
H66_3 C111_3 1_555 1_555
H67_3 C112_3 1_555 1_555
C121_3 C88_3 1_555 1_555
C122_3 C89_3 1_555 1_555
C123_3 C90_3 1_555 1_555
C127_3 H71_3 1_555 1_555
C128_3 H72_3 1_555 1_555
C135_3 H79_3 1_555 1_555
C136_3 H80_3 1_555 1_555
C137_3 H81_3 1_555 1_555
C138_3 C127_3 1_555 1_555
C139_3 C128_3 1_555 1_555
C146_3 C135_3 1_555 1_555
C147_3 C136_3 1_555 1_555
C148_3 C137_3 1_555 1_555
H82_3 C138_3 1_555 1_555
H83_3 C139_3 1_555 1_555
H90_3 C146_3 1_555 1_555
H91_3 C147_3 1_555 1_555
H92_3 C148_3 1_555 1_555
C149_3 C138_3 1_555 1_555
C150_3 C139_3 1_555 1_555
C157_3 C146_3 1_555 1_555
C158_3 C147_3 1_555 1_555
C159_3 C148_3 1_555 1_555
C160_3 C149_3 1_555 1_555
C161_3 C150_3 1_555 1_555
C168_3 C157_3 1_555 1_555
C169_3 C158_3 1_555 1_555
C170_3 C159_3 1_555 1_555
H93_3 C160_3 1_555 1_555
H94_3 C161_3 1_555 1_555
H101_3 C168_3 1_555 1_555
H102_3 C169_3 1_555 1_555
H103_3 C170_3 1_555 1_555
C171_3 C160_3 1_555 1_555
C172_3 C161_3 1_555 1_555
C179_3 C168_3 1_555 1_555
C180_3 C169_3 1_555 1_555
C181_3 C170_3 1_555 1_555
H104_3 C171_3 1_555 1_555
H105_3 C172_3 1_555 1_555
H112_3 C179_3 1_555 1_555
H113_3 C180_3 1_555 1_555
H114_3 C181_3 1_555 1_555
C182_3 N4_3 1_555 1_555
C183_3 C150_3 1_555 1_555
C190_3 C157_3 1_555 1_555
C191_3 C158_3 1_555 1_555
C192_3 C159_3 1_555 1_555
N10_3 C66_3 1_555 1_555
N11_3 C67_3 1_555 1_555
N12_3 C68_3 1_555 1_555
N16_3 Ni7_3 1_555 1_555
N17_3 Ni8_3 1_555 1_555
N23_3 C121_3 1_555 1_555
N24_3 C122_3 1_555 1_555
N25_3 C121_3 1_555 1_555
N29_3 C127_3 1_555 1_555
N30_3 C128_3 1_555 1_555
N37_3 C135_3 1_555 1_555
N38_3 C136_3 1_555 1_555
N39_3 C137_3 1_555 1_555
N45_3 Ni12_3 1_555 1_555
N46_3 C182_3 1_555 1_555
N47_3 C17_3 1_555 1_555
N54_3 C190_3 1_555 1_555
N55_3 C191_3 1_555 1_555
N56_3 C190_3 1_555 1_555
Ni5_3 N10_3 1_555 1_555
Ni7_3 O7_3 1_555 1_555
Ni8_3 O8_3 1_555 1_555
Ni18_2 N11_3 1_555 1_555
Ni12_3 N12_3 1_555 1_555
Ni25_3 N38_3 1_555 1_555
O18_3 Ni5_3 1_555 1_555
O21_3 Ni18_2 1_555 1_555
O22_3 Ni12_3 1_555 1_555
O23_3 C18_3 1_555 1_555
O37_3 Ni5_3 1_555 1_555
O39_3 Ni7_3 1_555 1_555
O40_3 Ni8_3 1_555 1_555
O43_3 Ni18_2 1_555 1_555
O44_3 Ni12_3 1_555 1_555
O48_3 Ni5_3 1_555 1_555
O50_3 Ni7_3 1_555 1_555
O51_3 Ni8_3 1_555 1_555
O54_3 Ni18_2 1_555 1_555
O55_3 Ni12_3 1_555 1_555
O59_3 Ni5_3 1_555 1_555
O61_3 Ni7_3 1_555 1_555
O62_3 Ni8_3 1_555 1_555
O65_3 Ni18_2 1_555 1_555
O66_3 Ni12_3 1_555 1_555
C16_3 N3_3 1_555 1_555
C110_3 N10_3 1_555 1_555
C111_3 N11_3 1_555 1_555
C112_3 N12_3 1_555 1_555
C122_3 N23_3 1_555 1_555
C123_3 N24_3 1_555 1_555
C123_3 N25_3 1_555 1_555
C149_3 C182_3 1_555 1_555
C171_3 N29_3 1_555 1_555
C172_3 N30_3 1_555 1_555
C179_3 N37_3 1_555 1_555
C180_3 N38_3 1_555 1_555
C181_3 N39_3 1_555 1_555
C183_3 N46_3 1_555 1_555
C183_3 N47_3 1_555 1_555
C191_3 N54_3 1_555 1_555
C192_3 N55_3 1_555 1_555
C192_3 N56_3 1_555 1_555
N30_3 Ni5_3 1_555 1_555
O39_3 H141_2 1_555 1_555
O40_3 H175_2 1_555 1_555
C6_3 H3_3 1_555 1_555
C7_3 C6_3 1_555 1_555
H4_3 C7_3 1_555 1_555
C8_3 C7_3 1_555 1_555
C9_3 C8_3 1_555 1_555
H5_3 C9_3 1_555 1_555
C10_3 C9_3 1_555 1_555
H6_3 C10_3 1_555 1_555
C11_3 C8_3 1_555 1_555
N1_3 C6_3 1_555 1_555
N2_3 C11_3 1_555 1_555
Ni1_3 N1_3 1_555 1_555
O3_3 Ni1_3 1_555 1_555
O4_3 Ni1_3 1_555 1_555
O5_3 Ni1_3 1_555 1_555
C19_3 C30_3 1_555 1_555
C20_3 C31_3 1_555 1_555
C27_3 C38_3 1_555 1_555
C28_3 C39_3 1_555 1_555
C30_3 C40_3 1_555 1_555
C31_3 C40_3 1_555 1_555
C38_3 C44_3 1_555 1_555
C39_3 C44_3 1_555 1_555
C46_3 C30_3 1_555 1_555
C47_3 C31_3 1_555 1_555
C54_3 C38_3 1_555 1_555
C55_3 C39_3 1_555 1_555
H12_3 C46_3 1_555 1_555
H13_3 C47_3 1_555 1_555
H20_3 C54_3 1_555 1_555
H21_3 C55_3 1_555 1_555
C56_3 C46_3 1_555 1_555
C60_3 C54_3 1_555 1_555
H22_3 C56_3 1_555 1_555
H26_3 C60_3 1_555 1_555
C61_3 H27_3 1_555 1_555
C62_3 H28_3 1_555 1_555
C69_3 H35_3 1_555 1_555
C70_3 H36_3 1_555 1_555
C71_3 H37_3 1_555 1_555
C72_3 C61_3 1_555 1_555
C73_3 C62_3 1_555 1_555
C80_3 C69_3 1_555 1_555
C81_3 C70_3 1_555 1_555
C82_3 C71_3 1_555 1_555
H38_3 C72_3 1_555 1_555
H39_3 C73_3 1_555 1_555
H46_3 C80_3 1_555 1_555
H47_3 C81_3 1_555 1_555
H48_3 C82_3 1_555 1_555
C83_3 C72_3 1_555 1_555
C84_3 C73_3 1_555 1_555
C91_3 C80_3 1_555 1_555
C92_3 C81_3 1_555 1_555
C93_3 C82_3 1_555 1_555
C94_3 C83_3 1_555 1_555
C95_3 C84_3 1_555 1_555
C102_3 C91_3 1_555 1_555
C103_3 C92_3 1_555 1_555
C104_3 C93_3 1_555 1_555
H49_3 C94_3 1_555 1_555
H50_3 C95_3 1_555 1_555
H57_3 C102_3 1_555 1_555
H58_3 C103_3 1_555 1_555
H59_3 C104_3 1_555 1_555
C105_3 C94_3 1_555 1_555
C106_3 C95_3 1_555 1_555
C113_3 C102_3 1_555 1_555
C114_3 C103_3 1_555 1_555
C115_3 C104_3 1_555 1_555
H60_3 C105_3 1_555 1_555
H61_3 C106_3 1_555 1_555
H68_3 C113_3 1_555 1_555
H69_3 C114_3 1_555 1_555
H70_3 C115_3 1_555 1_555
C116_3 N2_3 1_555 1_555
C117_3 C84_3 1_555 1_555
C124_3 C91_3 1_555 1_555
C125_3 C92_3 1_555 1_555
C126_3 C93_3 1_555 1_555
N5_3 C61_3 1_555 1_555
N6_3 C62_3 1_555 1_555
N13_3 C69_3 1_555 1_555
N14_3 C70_3 1_555 1_555
N15_3 C71_3 1_555 1_555
N18_3 C116_3 1_555 1_555
N19_3 C11_3 1_555 1_555
N26_3 C124_3 1_555 1_555
N27_3 C125_3 1_555 1_555
N28_3 C124_3 1_555 1_555
Ni22_2 N5_3 1_555 1_555
Ni3_3 N6_3 1_555 1_555
Ni6_3 N13_3 1_555 1_555
Ni13 O14_3 1_555 1_555
Ni23_3 N14_3 1_555 1_555
Ni24_3 N15_3 1_555 1_555
O24_3 C19_3 1_555 1_555
O25_3 C20_3 1_555 1_555
O32_3 C27_3 1_555 1_555
O33_3 C28_3 1_555 1_555
O34_3 Ni22_2 1_555 1_555
O35_3 Ni3_3 1_555 1_555
O38_3 Ni6_3 1_555 1_555
O45_3 Ni22_2 1_555 1_555
O46_3 Ni3_3 1_555 1_555
O49_3 Ni6_3 1_555 1_555
O56_3 Ni22_2 1_555 1_555
O57_3 Ni3_3 1_555 1_555
O60_3 Ni6_3 1_555 1_555
C10_3 N1_3 1_555 1_555
Ni1_3 O1_3 1_555 1_555
C47_3 C56_3 1_555 1_555
C55_3 C60_3 1_555 1_555
C83_3 C116_3 1_555 1_555
C105_3 N5_3 1_555 1_555
C106_3 N6_3 1_555 1_555
C113_3 N13_3 1_555 1_555
C114_3 N14_3 1_555 1_555
C115_3 N15_3 1_555 1_555
C117_3 N18_3 1_555 1_555
C117_3 N19_3 1_555 1_555
C125_3 N26_3 1_555 1_555
C126_3 N27_3 1_555 1_555
C126_3 N28_3 1_555 1_555
Ni3_3 O13_3 1_555 1_555
Ni6_3 O6_3 1_555 1_555
C63_3 H29_3 1_555 1_555
C64_3 H30_3 1_555 1_555
C65_3 H31_3 1_555 1_555
C74_3 C63_3 1_555 1_555
C75_3 C64_3 1_555 1_555
C76_3 C65_3 1_555 1_555
H40_3 C74_3 1_555 1_555
H41_3 C75_3 1_555 1_555
H42_3 C76_3 1_555 1_555
C85_3 C74_3 1_555 1_555
C86_3 C75_3 1_555 1_555
C87_3 C76_3 1_555 1_555
C96_3 C85_3 1_555 1_555
C97_3 C86_3 1_555 1_555
C98_3 C87_3 1_555 1_555
H51_3 C96_3 1_555 1_555
H52_3 C97_3 1_555 1_555
H53_3 C98_3 1_555 1_555
C107_3 C96_3 1_555 1_555
C108_3 C97_3 1_555 1_555
C109_3 C98_3 1_555 1_555
H62_3 C107_3 1_555 1_555
H63_3 C108_3 1_555 1_555
H64_3 C109_3 1_555 1_555
C118_3 C85_3 1_555 1_555
C119_3 C86_3 1_555 1_555
C120_3 C87_3 1_555 1_555
N7_3 C63_3 1_555 1_555
N8_3 C64_3 1_555 1_555
N17_2 C65_3 1_555 1_555
N20_3 C118_3 1_555 1_555
N21_3 C119_3 1_555 1_555
N22_3 C118_3 1_555 1_555
N42_3 Ni9_3 1_555 1_555
Ni4_3 N7_3 1_555 1_555
Ni9_3 N8_3 1_555 1_555
O17_3 Ni4_3 1_555 1_555
O19_3 Ni9_3 1_555 1_555
O36_3 Ni4_3 1_555 1_555
O41_3 Ni9_3 1_555 1_555
O47_3 Ni4_3 1_555 1_555
O52_3 Ni9_3 1_555 1_555
O58_3 Ni4_3 1_555 1_555
O63_3 Ni9_3 1_555 1_555
C107_3 N7_3 1_555 1_555
C108_3 N8_3 1_555 1_555
C109_3 N17_2 1_555 1_555
C119_3 N20_3 1_555 1_555
C120_3 N21_3 1_555 1_555
C120_3 N22_3 1_555 1_555
C129_3 H73_3 1_555 1_555
C130_3 H74_3 1_555 1_555
C131_3 H75_3 1_555 1_555
C140_3 C129_3 1_555 1_555
C141_3 C130_3 1_555 1_555
C142_3 C131_3 1_555 1_555
H84_3 C140_3 1_555 1_555
H85_3 C141_3 1_555 1_555
H86_3 C142_3 1_555 1_555
C151_3 C140_3 1_555 1_555
C152_3 C141_3 1_555 1_555
C153_3 C142_3 1_555 1_555
C162_3 C151_3 1_555 1_555
C163_3 C152_3 1_555 1_555
C164_3 C153_3 1_555 1_555
H95_3 C162_3 1_555 1_555
H96_3 C163_3 1_555 1_555
H97_3 C164_3 1_555 1_555
C173_3 C162_3 1_555 1_555
C174_3 C163_3 1_555 1_555
C175_3 C164_3 1_555 1_555
H106_3 C173_3 1_555 1_555
H107_3 C174_3 1_555 1_555
H108_3 C175_3 1_555 1_555
C184_3 C151_3 1_555 1_555
C185_3 C152_3 1_555 1_555
C186_3 C153_3 1_555 1_555
N31_3 C129_3 1_555 1_555
N32_3 C130_3 1_555 1_555
N41_2 C131_3 1_555 1_555
N48_3 C184_3 1_555 1_555
N49_3 C185_3 1_555 1_555
N50_3 C184_3 1_555 1_555
C173_3 N31_3 1_555 1_555
C174_3 N32_3 1_555 1_555
C175_3 N41_2 1_555 1_555
C185_3 N48_3 1_555 1_555
C186_3 N49_3 1_555 1_555
C186_3 N50_3 1_555 1_555
C1_4 C2_4 1_555 1_555
C2_4 C3_4 1_555 1_555
C3_4 C29_4 1_555 1_555
C4_4 C2_4 1_555 1_555
H1_4 C4_4 1_555 1_555
C5_4 C4_4 1_555 1_555
H2_4 C5_4 1_555 1_555
C6_4 H3_4 1_555 1_555
C7_4 C6_4 1_555 1_555
H4_4 C7_4 1_555 1_555
C8_4 C7_4 1_555 1_555
C9_4 C8_4 1_555 1_555
H5_4 C9_4 1_555 1_555
C10_4 C9_4 1_555 1_555
H6_4 C10_4 1_555 1_555
C11_4 C8_4 1_555 1_555
C12_4 H7_4 1_555 1_555
C13_4 C12_4 1_555 1_555
H8_4 C13_4 1_555 1_555
C14_4 C13_4 1_555 1_555
C15_4 C14_4 1_555 1_555
H9_4 C15_4 1_555 1_555
C16_4 C15_4 1_555 1_555
H10_4 C16_4 1_555 1_555
C17_4 C14_4 1_555 1_555
N1_4 C6_4 1_555 1_555
N2_4 C11_4 1_555 1_555
N3_4 C12_4 1_555 1_555
N4_4 C17_4 1_555 1_555
Ni1_4 N1_4 1_555 1_555
O1_4 C1_4 1_555 1_555
O2_4 C1_4 1_555 1_555
O3_4 Ni1_4 1_555 1_555
O4_4 Ni1_4 1_555 1_555
O5_4 Ni1_4 1_555 1_555
C18_4 C29_4 1_555 1_555
C19_4 C30_4 1_555 1_555
C20_4 C31_4 1_555 1_555
C29_4 C45_4 1_555 1_555
C30_4 C40_4 1_555 1_555
C31_4 C40_4 1_555 1_555
C40_4 C3_4 1_555 1_555
C45_4 C5_4 1_555 1_555
C46_4 C30_4 1_555 1_555
C47_4 C31_4 1_555 1_555
H11_4 C45_4 1_555 1_555
H12_4 C46_4 1_555 1_555
H13_4 C47_4 1_555 1_555
C56_4 C46_4 1_555 1_555
H22_4 C56_4 1_555 1_555
C61_4 H27_4 1_555 1_555
C62_4 H28_4 1_555 1_555
C66_4 H32_4 1_555 1_555
C67_4 H33_4 1_555 1_555
C68_4 H34_4 1_555 1_555
C69_4 H35_4 1_555 1_555
C70_4 H36_4 1_555 1_555
C71_4 H37_4 1_555 1_555
C72_4 C61_4 1_555 1_555
C73_4 C62_4 1_555 1_555
C77_4 C66_4 1_555 1_555
C78_4 C67_4 1_555 1_555
C79_4 C68_4 1_555 1_555
C80_4 C69_4 1_555 1_555
C81_4 C70_4 1_555 1_555
C82_4 C71_4 1_555 1_555
H38_4 C72_4 1_555 1_555
H39_4 C73_4 1_555 1_555
H43_4 C77_4 1_555 1_555
H44_4 C78_4 1_555 1_555
H45_4 C79_4 1_555 1_555
H46_4 C80_4 1_555 1_555
H47_4 C81_4 1_555 1_555
H48_4 C82_4 1_555 1_555
C83_4 C72_4 1_555 1_555
C84_4 C73_4 1_555 1_555
C88_4 C77_4 1_555 1_555
C89_4 C78_4 1_555 1_555
C90_4 C79_4 1_555 1_555
C91_4 C80_4 1_555 1_555
C92_4 C81_4 1_555 1_555
C93_4 C82_4 1_555 1_555
C94_4 C83_4 1_555 1_555
C95_4 C84_4 1_555 1_555
C99_4 C88_4 1_555 1_555
C100_4 C89_4 1_555 1_555
C101_4 C90_4 1_555 1_555
C102_4 C91_4 1_555 1_555
C103_4 C92_4 1_555 1_555
C104_4 C93_4 1_555 1_555
H49_4 C94_4 1_555 1_555
H50_4 C95_4 1_555 1_555
H54_4 C99_4 1_555 1_555
H55_4 C100_4 1_555 1_555
H56_4 C101_4 1_555 1_555
H57_4 C102_4 1_555 1_555
H58_4 C103_4 1_555 1_555
H59_4 C104_4 1_555 1_555
C105_4 C94_4 1_555 1_555
C106_4 C95_4 1_555 1_555
C110_4 C99_4 1_555 1_555
C111_4 C100_4 1_555 1_555
C112_4 C101_4 1_555 1_555
C113_4 C102_4 1_555 1_555
C114_4 C103_4 1_555 1_555
C115_4 C104_4 1_555 1_555
H60_4 C105_4 1_555 1_555
H61_4 C106_4 1_555 1_555
H65_4 C110_4 1_555 1_555
H66_4 C111_4 1_555 1_555
H67_4 C112_4 1_555 1_555
H68_4 C113_4 1_555 1_555
H69_4 C114_4 1_555 1_555
H70_4 C115_4 1_555 1_555
C116_4 N2_4 1_555 1_555
C117_4 C84_4 1_555 1_555
C121_4 C88_4 1_555 1_555
C122_4 C89_4 1_555 1_555
C123_4 C90_4 1_555 1_555
C124_4 C91_4 1_555 1_555
C125_4 C92_4 1_555 1_555
C126_4 C93_4 1_555 1_555
C127_4 H71_4 1_555 1_555
C128_4 H72_4 1_555 1_555
C135_4 H79_4 1_555 1_555
C136_4 H80_4 1_555 1_555
C137_4 H81_4 1_555 1_555
C138_4 C127_4 1_555 1_555
C139_4 C128_4 1_555 1_555
C146_4 C135_4 1_555 1_555
C147_4 C136_4 1_555 1_555
C148_4 C137_4 1_555 1_555
H82_4 C138_4 1_555 1_555
H83_4 C139_4 1_555 1_555
H90_4 C146_4 1_555 1_555
H91_4 C147_4 1_555 1_555
H92_4 C148_4 1_555 1_555
C149_4 C138_4 1_555 1_555
C150_4 C139_4 1_555 1_555
C157_4 C146_4 1_555 1_555
C158_4 C147_4 1_555 1_555
C159_4 C148_4 1_555 1_555
C160_4 C149_4 1_555 1_555
C161_4 C150_4 1_555 1_555
C168_4 C157_4 1_555 1_555
C169_4 C158_4 1_555 1_555
C170_4 C159_4 1_555 1_555
H93_4 C160_4 1_555 1_555
H94_4 C161_4 1_555 1_555
H101_4 C168_4 1_555 1_555
H102_4 C169_4 1_555 1_555
H103_4 C170_4 1_555 1_555
C171_4 C160_4 1_555 1_555
C172_4 C161_4 1_555 1_555
C179_4 C168_4 1_555 1_555
C180_4 C169_4 1_555 1_555
C181_4 C170_4 1_555 1_555
H104_4 C171_4 1_555 1_555
H105_4 C172_4 1_555 1_555
H112_4 C179_4 1_555 1_555
H113_4 C180_4 1_555 1_555
H114_4 C181_4 1_555 1_555
C182_4 N4_4 1_555 1_555
C183_4 C150_4 1_555 1_555
C190_4 C157_4 1_555 1_555
C191_4 C158_4 1_555 1_555
C192_4 C159_4 1_555 1_555
N5_4 C61_4 1_555 1_555
N6_4 C62_4 1_555 1_555
N10_4 C66_4 1_555 1_555
N11_4 C67_4 1_555 1_555
N12_4 C68_4 1_555 1_555
N13_4 C69_4 1_555 1_555
N14_4 C70_4 1_555 1_555
N15_4 C71_4 1_555 1_555
N16_4 Ni7_4 1_555 1_555
N18_4 C116_4 1_555 1_555
N19_4 C11_4 1_555 1_555
N23_4 C121_4 1_555 1_555
N24_4 C122_4 1_555 1_555
N25_4 C121_4 1_555 1_555
N26_4 C124_4 1_555 1_555
N27_4 C125_4 1_555 1_555
N28_4 C124_4 1_555 1_555
N29_4 C127_4 1_555 1_555
N30_4 C128_4 1_555 1_555
N37_4 C135_4 1_555 1_555
N38_4 C136_4 1_555 1_555
N39_4 C137_4 1_555 1_555
N40_4 Ni7_4 1_555 1_555
N44_2 Ni11_2 1_555 1_555
N45_4 Ni12_4 1_555 1_555
N46_4 C182_4 1_555 1_555
N47_4 C17_4 1_555 1_555
N54_4 C190_4 1_555 1_555
N55_4 C191_4 1_555 1_555
N56_4 C190_4 1_555 1_555
Ni22_3 N5_4 1_555 1_555
Ni16 N6_4 1_555 1_555
Ni5_4 N10_4 1_555 1_555
Ni6_4 N13_4 1_555 1_555
Ni7_4 O7_4 1_555 1_555
Ni11_2 N11_4 1_555 1_555
Ni12_4 N12_4 1_555 1_555
Ni23_4 N14_4 1_555 1_555
Ni24_4 N15_4 1_555 1_555
Ni25_4 N38_4 1_555 1_555
O6_4 C18_4 1_555 1_555
O7_4 C19_4 1_555 1_555
O20 C20_4 1_555 1_555
O18_4 Ni5_4 1_555 1_555
O21_4 Ni11_2 1_555 1_555
O22_4 Ni12_4 1_555 1_555
O23_4 C18_4 1_555 1_555
O24_4 C19_4 1_555 1_555
O25_4 C20_4 1_555 1_555
O34_4 Ni22_3 1_555 1_555
O35_4 Ni16 1_555 1_555
O37_4 Ni5_4 1_555 1_555
O38_4 Ni6_4 1_555 1_555
O39_4 Ni7_4 1_555 1_555
O43_4 Ni11_2 1_555 1_555
O44_4 Ni12_4 1_555 1_555
O45_4 Ni22_3 1_555 1_555
O46_4 Ni16 1_555 1_555
O48_4 Ni5_4 1_555 1_555
O49_4 Ni6_4 1_555 1_555
O50_4 Ni7_4 1_555 1_555
O54_4 Ni11_2 1_555 1_555
O55_4 Ni12_4 1_555 1_555
O56_4 Ni22_3 1_555 1_555
O57_4 Ni16 1_555 1_555
O59_4 Ni5_4 1_555 1_555
O60_4 Ni6_4 1_555 1_555
O61_4 Ni7_4 1_555 1_555
O65_4 Ni11_2 1_555 1_555
O66_4 Ni12_4 1_555 1_555
C10_4 N1_4 1_555 1_555
C16_4 N3_4 1_555 1_555
N3_4 Ni1_4 1_555 1_555
Ni1_4 O1_4 1_555 1_555
C47_4 C56_4 1_555 1_555
C83_4 C116_4 1_555 1_555
C105_4 N5_4 1_555 1_555
C106_4 N6_4 1_555 1_555
C110_4 N10_4 1_555 1_555
C111_4 N11_4 1_555 1_555
C112_4 N12_4 1_555 1_555
C113_4 N13_4 1_555 1_555
C114_4 N14_4 1_555 1_555
C115_4 N15_4 1_555 1_555
C117_4 N18_4 1_555 1_555
C117_4 N19_4 1_555 1_555
C122_4 N23_4 1_555 1_555
C123_4 N24_4 1_555 1_555
C123_4 N25_4 1_555 1_555
C125_4 N26_4 1_555 1_555
C126_4 N27_4 1_555 1_555
C126_4 N28_4 1_555 1_555
C149_4 C182_4 1_555 1_555
C171_4 N29_4 1_555 1_555
C172_4 N30_4 1_555 1_555
C179_4 N37_4 1_555 1_555
C180_4 N38_4 1_555 1_555
C181_4 N39_4 1_555 1_555
C183_4 N46_4 1_555 1_555
C183_4 N47_4 1_555 1_555
C191_4 N54_4 1_555 1_555
C192_4 N55_4 1_555 1_555
C192_4 N56_4 1_555 1_555
N30_4 Ni5_4 1_555 1_555
N37_4 Ni6_4 1_555 1_555
Ni6_4 O6_4 1_555 1_555
C132_4 H76_4 1_555 1_555
C133_4 H77_4 1_555 1_555
C134_4 H78_4 1_555 1_555
C143_4 C132_4 1_555 1_555
C144_4 C133_4 1_555 1_555
C145_4 C134_4 1_555 1_555
H87_4 C143_4 1_555 1_555
H88_4 C144_4 1_555 1_555
H89_4 C145_4 1_555 1_555
C154_4 C143_4 1_555 1_555
C155_4 C144_4 1_555 1_555
C156_4 C145_4 1_555 1_555
C165_4 C154_4 1_555 1_555
C166_4 C155_4 1_555 1_555
C167_4 C156_4 1_555 1_555
H98_4 C165_4 1_555 1_555
H99_4 C166_4 1_555 1_555
H100_4 C167_4 1_555 1_555
C176_4 C165_4 1_555 1_555
C177_4 C166_4 1_555 1_555
C178_4 C167_4 1_555 1_555
H109_4 C176_4 1_555 1_555
H110_4 C177_4 1_555 1_555
H111_4 C178_4 1_555 1_555
C187_4 C154_4 1_555 1_555
C188_4 C155_4 1_555 1_555
C189_4 C156_4 1_555 1_555
N34_4 C132_4 1_555 1_555
N44_2 C133_4 1_555 1_555
N36_4 C134_4 1_555 1_555
N51_4 C187_4 1_555 1_555
N52_4 C188_4 1_555 1_555
N53_4 C187_4 1_555 1_555
Ni19_4 N36_4 1_555 1_555
C176_4 N34_4 1_555 1_555
C177_4 N44_2 1_555 1_555
C178_4 N36_4 1_555 1_555
C188_4 N51_4 1_555 1_555
C189_4 N52_4 1_555 1_555
C189_4 N53_4 1_555 1_555
C63_4 H29_4 1_555 1_555
C64_4 H30_4 1_555 1_555
C65_4 H31_4 1_555 1_555
C74_4 C63_4 1_555 1_555
C75_4 C64_4 1_555 1_555
C76_4 C65_4 1_555 1_555
H40_4 C74_4 1_555 1_555
H41_4 C75_4 1_555 1_555
H42_4 C76_4 1_555 1_555
C85_4 C74_4 1_555 1_555
C86_4 C75_4 1_555 1_555
C87_4 C76_4 1_555 1_555
C96_4 C85_4 1_555 1_555
C97_4 C86_4 1_555 1_555
C98_4 C87_4 1_555 1_555
H51_4 C96_4 1_555 1_555
H52_4 C97_4 1_555 1_555
H53_4 C98_4 1_555 1_555
C107_4 C96_4 1_555 1_555
C108_4 C97_4 1_555 1_555
C109_4 C98_4 1_555 1_555
H62_4 C107_4 1_555 1_555
H63_4 C108_4 1_555 1_555
H64_4 C109_4 1_555 1_555
C118_4 C85_4 1_555 1_555
C119_4 C86_4 1_555 1_555
C120_4 C87_4 1_555 1_555
C129_4 H73_4 1_555 1_555
C130_4 H74_4 1_555 1_555
C131_4 H75_4 1_555 1_555
C140_4 C129_4 1_555 1_555
C141_4 C130_4 1_555 1_555
C142_4 C131_4 1_555 1_555
H84_4 C140_4 1_555 1_555
H85_4 C141_4 1_555 1_555
H86_4 C142_4 1_555 1_555
C151_4 C140_4 1_555 1_555
C152_4 C141_4 1_555 1_555
C153_4 C142_4 1_555 1_555
C162_4 C151_4 1_555 1_555
C163_4 C152_4 1_555 1_555
C164_4 C153_4 1_555 1_555
H95_4 C162_4 1_555 1_555
H96_4 C163_4 1_555 1_555
H97_4 C164_4 1_555 1_555
C173_4 C162_4 1_555 1_555
C174_4 C163_4 1_555 1_555
C175_4 C164_4 1_555 1_555
H106_4 C173_4 1_555 1_555
H107_4 C174_4 1_555 1_555
H108_4 C175_4 1_555 1_555
C184_4 C151_4 1_555 1_555
C185_4 C152_4 1_555 1_555
C186_4 C153_4 1_555 1_555
N7_4 C63_4 1_555 1_555
N8_4 C64_4 1_555 1_555
N17_3 C65_4 1_555 1_555
N20_4 C118_4 1_555 1_555
N21_4 C119_4 1_555 1_555
N22_4 C118_4 1_555 1_555
N31_4 C129_4 1_555 1_555
N32_4 C130_4 1_555 1_555
N41_3 C131_4 1_555 1_555
N42_4 Ni9_4 1_555 1_555
N48_4 C184_4 1_555 1_555
N49_4 C185_4 1_555 1_555
N50_4 C184_4 1_555 1_555
Ni4_4 N7_4 1_555 1_555
Ni9_4 N8_4 1_555 1_555
O17_4 Ni4_4 1_555 1_555
O19_4 Ni9_4 1_555 1_555
O36_4 Ni4_4 1_555 1_555
O41_4 Ni9_4 1_555 1_555
O47_4 Ni4_4 1_555 1_555
O52_4 Ni9_4 1_555 1_555
O58_4 Ni4_4 1_555 1_555
O63_4 Ni9_4 1_555 1_555
C107_4 N7_4 1_555 1_555
C108_4 N8_4 1_555 1_555
C109_4 N17_3 1_555 1_555
C119_4 N20_4 1_555 1_555
C120_4 N21_4 1_555 1_555
C120_4 N22_4 1_555 1_555
C173_4 N31_4 1_555 1_555
C174_4 N32_4 1_555 1_555
C175_4 N41_3 1_555 1_555
C185_4 N48_4 1_555 1_555
C186_4 N49_4 1_555 1_555
C186_4 N50_4 1_555 1_555
C6_5 H3_5 1_555 1_555
C7_5 C6_5 1_555 1_555
H4_5 C7_5 1_555 1_555
C8_5 C7_5 1_555 1_555
C9_5 C8_5 1_555 1_555
H5_5 C9_5 1_555 1_555
C10_5 C9_5 1_555 1_555
H6_5 C10_5 1_555 1_555
C11_5 C8_5 1_555 1_555
N1_5 C6_5 1_555 1_555
N2_5 C11_5 1_555 1_555
Ni1_5 N1_5 1_555 1_555
O3_5 Ni1_5 1_555 1_555
O4_5 Ni1_5 1_555 1_555
O5_5 Ni1_5 1_555 1_555
C19_5 C30_5 1_555 1_555
C20_5 C31_5 1_555 1_555
C23_2 C34_2 1_555 1_555
C24_2 C35_2 1_555 1_555
C27_4 C38_4 1_555 1_555
C28_4 C39_4 1_555 1_555
C30_5 C40_5 1_555 1_555
C31_5 C40_5 1_555 1_555
C34_2 C42_2 1_555 1_555
C35_2 C42_2 1_555 1_555
C38_4 C44_4 1_555 1_555
C39_4 C44_4 1_555 1_555
C46_5 C30_5 1_555 1_555
C47_5 C31_5 1_555 1_555
C50_2 C34_2 1_555 1_555
C51_2 C35_2 1_555 1_555
C54_4 C38_4 1_555 1_555
C55_4 C39_4 1_555 1_555
H12_5 C46_5 1_555 1_555
H13_5 C47_5 1_555 1_555
H16_2 C50_2 1_555 1_555
H17_2 C51_2 1_555 1_555
H20_4 C54_4 1_555 1_555
H21_4 C55_4 1_555 1_555
C56_5 C46_5 1_555 1_555
C58_2 C50_2 1_555 1_555
C60_4 C54_4 1_555 1_555
H22_5 C56_5 1_555 1_555
H24_2 C58_2 1_555 1_555
H26_4 C60_4 1_555 1_555
C61_5 H27_5 1_555 1_555
C62_5 H28_5 1_555 1_555
C72_5 C61_5 1_555 1_555
C73_5 C62_5 1_555 1_555
H38_5 C72_5 1_555 1_555
H39_5 C73_5 1_555 1_555
C83_5 C72_5 1_555 1_555
C84_5 C73_5 1_555 1_555
C94_5 C83_5 1_555 1_555
C95_5 C84_5 1_555 1_555
H49_5 C94_5 1_555 1_555
H50_5 C95_5 1_555 1_555
C105_5 C94_5 1_555 1_555
C106_5 C95_5 1_555 1_555
H60_5 C105_5 1_555 1_555
H61_5 C106_5 1_555 1_555
C116_5 N2_5 1_555 1_555
C117_5 C84_5 1_555 1_555
N5_5 C61_5 1_555 1_555
N6_5 C62_5 1_555 1_555
N18_5 C116_5 1_555 1_555
N19_5 C11_5 1_555 1_555
Ni2_2 N5_5 1_555 1_555
Ni26_3 N6_5 1_555 1_555
Ni20_3 O14_4 1_555 1_555
O24_5 C19_5 1_555 1_555
O25_5 C20_5 1_555 1_555
O28_2 C23_2 1_555 1_555
O29_2 C24_2 1_555 1_555
O32_4 C27_4 1_555 1_555
O33_4 C28_4 1_555 1_555
O34_5 Ni2_2 1_555 1_555
O35_5 Ni26_3 1_555 1_555
O45_5 Ni2_2 1_555 1_555
O46_5 Ni26_3 1_555 1_555
O56_5 Ni2_2 1_555 1_555
O57_5 Ni26_3 1_555 1_555
C10_5 N1_5 1_555 1_555
Ni1_5 O1_5 1_555 1_555
C47_5 C56_5 1_555 1_555
C51_2 C58_2 1_555 1_555
C55_4 C60_4 1_555 1_555
C83_5 C116_5 1_555 1_555
C105_5 N5_5 1_555 1_555
C106_5 N6_5 1_555 1_555
C117_5 N18_5 1_555 1_555
C117_5 N19_5 1_555 1_555
Ni2_2 O9_2 1_555 1_555
Ni26_3 O13_4 1_555 1_555
C1_5 C2_5 1_555 1_555
C2_5 C3_5 1_555 1_555
C3_5 C29_5 1_555 1_555
C4_5 C2_5 1_555 1_555
H1_5 C4_5 1_555 1_555
C5_5 C4_5 1_555 1_555
H2_5 C5_5 1_555 1_555
C12_5 H7_5 1_555 1_555
C13_5 C12_5 1_555 1_555
H8_5 C13_5 1_555 1_555
C14_5 C13_5 1_555 1_555
C15_5 C14_5 1_555 1_555
H9_5 C15_5 1_555 1_555
C16_5 C15_5 1_555 1_555
H10_5 C16_5 1_555 1_555
C17_5 C14_5 1_555 1_555
N3_5 C12_5 1_555 1_555
N4_5 C17_5 1_555 1_555
O2_5 C1_5 1_555 1_555
C18_5 C29_5 1_555 1_555
C29_5 C45_5 1_555 1_555
C45_5 C5_5 1_555 1_555
H11_5 C45_5 1_555 1_555
C127_5 H71_5 1_555 1_555
C128_5 H72_5 1_555 1_555
C138_5 C127_5 1_555 1_555
C139_5 C128_5 1_555 1_555
H82_5 C138_5 1_555 1_555
H83_5 C139_5 1_555 1_555
C149_5 C138_5 1_555 1_555
C150_5 C139_5 1_555 1_555
C160_5 C149_5 1_555 1_555
C161_5 C150_5 1_555 1_555
H93_5 C160_5 1_555 1_555
H94_5 C161_5 1_555 1_555
C171_5 C160_5 1_555 1_555
C172_5 C161_5 1_555 1_555
H104_5 C171_5 1_555 1_555
H105_5 C172_5 1_555 1_555
C182_5 N4_5 1_555 1_555
C183_5 C150_5 1_555 1_555
N16_5 Ni7_5 1_555 1_555
N17_4 Ni8_4 1_555 1_555
N29_5 C127_5 1_555 1_555
N30_5 C128_5 1_555 1_555
N45_5 Ni23_3 1_555 1_555
N46_5 C182_5 1_555 1_555
N47_5 C17_5 1_555 1_555
Ni7_5 O7_5 1_555 1_555
Ni8_4 O8_4 1_555 1_555
O18_5 Ni24_3 1_555 1_555
O22_5 Ni23_3 1_555 1_555
O23_5 C18_5 1_555 1_555
O37_5 Ni24_3 1_555 1_555
O39_5 Ni7_5 1_555 1_555
O40_4 Ni8_4 1_555 1_555
O44_5 Ni23_3 1_555 1_555
O48_5 Ni24_3 1_555 1_555
O50_5 Ni7_5 1_555 1_555
O51_4 Ni8_4 1_555 1_555
O55_5 Ni23_3 1_555 1_555
O59_5 Ni24_3 1_555 1_555
O61_5 Ni7_5 1_555 1_555
O62_4 Ni8_4 1_555 1_555
O66_5 Ni23_3 1_555 1_555
C16_5 N3_5 1_555 1_555
C149_5 C182_5 1_555 1_555
C171_5 N29_5 1_555 1_555
C172_5 N30_5 1_555 1_555
C183_5 N46_5 1_555 1_555
C183_5 N47_5 1_555 1_555
N30_5 Ni24_3 1_555 1_555
O39_5 H141_3 1_555 1_555
O40_4 H175_3 1_555 1_555
C21_2 C32_2 1_555 1_555
C22_2 C33_2 1_555 1_555
C32_2 C41_2 1_555 1_555
C33_2 C41_2 1_555 1_555
C48_2 C32_2 1_555 1_555
C49_2 C33_2 1_555 1_555
H14_2 C48_2 1_555 1_555
H15_2 C49_2 1_555 1_555
C57_2 C48_2 1_555 1_555
H23_2 C57_2 1_555 1_555
C129_5 H73_5 1_555 1_555
C130_5 H74_5 1_555 1_555
C131_5 H75_5 1_555 1_555
C140_5 C129_5 1_555 1_555
C141_5 C130_5 1_555 1_555
C142_5 C131_5 1_555 1_555
H84_5 C140_5 1_555 1_555
H85_5 C141_5 1_555 1_555
H86_5 C142_5 1_555 1_555
C151_5 C140_5 1_555 1_555
C152_5 C141_5 1_555 1_555
C153_5 C142_5 1_555 1_555
C162_5 C151_5 1_555 1_555
C163_5 C152_5 1_555 1_555
C164_5 C153_5 1_555 1_555
H95_5 C162_5 1_555 1_555
H96_5 C163_5 1_555 1_555
H97_5 C164_5 1_555 1_555
C173_5 C162_5 1_555 1_555
C174_5 C163_5 1_555 1_555
C175_5 C164_5 1_555 1_555
H106_5 C173_5 1_555 1_555
H107_5 C174_5 1_555 1_555
H108_5 C175_5 1_555 1_555
C184_5 C151_5 1_555 1_555
C185_5 C152_5 1_555 1_555
C186_5 C153_5 1_555 1_555
N31_5 C129_5 1_555 1_555
N32_5 C130_5 1_555 1_555
N33 C131_5 1_555 1_555
N48_5 C184_5 1_555 1_555
N49_5 C185_5 1_555 1_555
N50_5 C184_5 1_555 1_555
Ni14 N33 1_555 1_555
Ni26_4 O11_2 1_555 1_555
Ni17_2 O12_2 1_555 1_555
O26_2 C21_2 1_555 1_555
O27_2 C22_2 1_555 1_555
C49_2 C57_2 1_555 1_555
C173_5 N31_5 1_555 1_555
C174_5 N32_5 1_555 1_555
C175_5 N33 1_555 1_555
C185_5 N48_5 1_555 1_555
C186_5 N49_5 1_555 1_555
C186_5 N50_5 1_555 1_555
C63_5 H29_5 1_555 1_555
C64_5 H30_5 1_555 1_555
C65_5 H31_5 1_555 1_555
C74_5 C63_5 1_555 1_555
C75_5 C64_5 1_555 1_555
C76_5 C65_5 1_555 1_555
H40_5 C74_5 1_555 1_555
H41_5 C75_5 1_555 1_555
H42_5 C76_5 1_555 1_555
C85_5 C74_5 1_555 1_555
C86_5 C75_5 1_555 1_555
C87_5 C76_5 1_555 1_555
C96_5 C85_5 1_555 1_555
C97_5 C86_5 1_555 1_555
C98_5 C87_5 1_555 1_555
H51_5 C96_5 1_555 1_555
H52_5 C97_5 1_555 1_555
H53_5 C98_5 1_555 1_555
C107_5 C96_5 1_555 1_555
C108_5 C97_5 1_555 1_555
C109_5 C98_5 1_555 1_555
H62_5 C107_5 1_555 1_555
H63_5 C108_5 1_555 1_555
H64_5 C109_5 1_555 1_555
C118_5 C85_5 1_555 1_555
C119_5 C86_5 1_555 1_555
C120_5 C87_5 1_555 1_555
N7_5 C63_5 1_555 1_555
N8_5 C64_5 1_555 1_555
N9_2 C65_5 1_555 1_555
N20_5 C118_5 1_555 1_555
N21_5 C119_5 1_555 1_555
N22_5 C118_5 1_555 1_555
N42_5 Ni9_5 1_555 1_555
Ni15 N7_5 1_555 1_555
Ni9_5 N8_5 1_555 1_555
Ni14 N9_2 1_555 1_555
O19_5 Ni9_5 1_555 1_555
O20_2 Ni14 1_555 1_555
O36_5 Ni15 1_555 1_555
O41_5 Ni9_5 1_555 1_555
O42_2 Ni14 1_555 1_555
O47_5 Ni15 1_555 1_555
O52_5 Ni9_5 1_555 1_555
O53_2 Ni14 1_555 1_555
O58_5 Ni15 1_555 1_555
O63_5 Ni9_5 1_555 1_555
O64_2 Ni14 1_555 1_555
C107_5 N7_5 1_555 1_555
C108_5 N8_5 1_555 1_555
C109_5 N9_2 1_555 1_555
C119_5 N20_5 1_555 1_555
C120_5 N21_5 1_555 1_555
C120_5 N22_5 1_555 1_555
C25_4 C36_4 1_555 1_555
C26_4 C37_4 1_555 1_555
C36_4 C43_4 1_555 1_555
C37_4 C43_4 1_555 1_555
C52_4 C36_4 1_555 1_555
C53_4 C37_4 1_555 1_555
H18_4 C52_4 1_555 1_555
H19_4 C53_4 1_555 1_555
C59_4 C52_4 1_555 1_555
H25_4 C59_4 1_555 1_555
Ni22_4 O16_4 1_555 1_555
O30_4 C25_4 1_555 1_555
O31_4 C26_4 1_555 1_555
C53_4 C59_4 1_555 1_555
C1_6 C2_6 1_555 1_555
C2_6 C3_6 1_555 1_555
C3_6 C29_6 1_555 1_555
C4_6 C2_6 1_555 1_555
H1_6 C4_6 1_555 1_555
C5_6 C4_6 1_555 1_555
H2_6 C5_6 1_555 1_555
C6_6 H3_6 1_555 1_555
C7_6 C6_6 1_555 1_555
H4_6 C7_6 1_555 1_555
C8_6 C7_6 1_555 1_555
C9_6 C8_6 1_555 1_555
H5_6 C9_6 1_555 1_555
C10_6 C9_6 1_555 1_555
H6_6 C10_6 1_555 1_555
C11_6 C8_6 1_555 1_555
C12_6 H7_6 1_555 1_555
C13_6 C12_6 1_555 1_555
H8_6 C13_6 1_555 1_555
C14_6 C13_6 1_555 1_555
C15_6 C14_6 1_555 1_555
H9_6 C15_6 1_555 1_555
C16_6 C15_6 1_555 1_555
H10_6 C16_6 1_555 1_555
C17_6 C14_6 1_555 1_555
N1_6 C6_6 1_555 1_555
N2_6 C11_6 1_555 1_555
N3_6 C12_6 1_555 1_555
N4_6 C17_6 1_555 1_555
Ni1_6 N1_6 1_555 1_555
O1_6 C1_6 1_555 1_555
O2_6 C1_6 1_555 1_555
O3_6 Ni1_6 1_555 1_555
O4_6 Ni1_6 1_555 1_555
O5_6 Ni1_6 1_555 1_555
C18_6 C29_6 1_555 1_555
C19_6 C30_6 1_555 1_555
C20_6 C31_6 1_555 1_555
C23_3 C34_3 1_555 1_555
C24_3 C35_3 1_555 1_555
C29_6 C45_6 1_555 1_555
C30_6 C40_6 1_555 1_555
C31_6 C40_6 1_555 1_555
C34_3 C42_3 1_555 1_555
C35_3 C42_3 1_555 1_555
C40_6 C3_6 1_555 1_555
C45_6 C5_6 1_555 1_555
C46_6 C30_6 1_555 1_555
C47_6 C31_6 1_555 1_555
C50_3 C34_3 1_555 1_555
C51_3 C35_3 1_555 1_555
H11_6 C45_6 1_555 1_555
H12_6 C46_6 1_555 1_555
H13_6 C47_6 1_555 1_555
H16_3 C50_3 1_555 1_555
H17_3 C51_3 1_555 1_555
C56_6 C46_6 1_555 1_555
C58_3 C50_3 1_555 1_555
H22_6 C56_6 1_555 1_555
H24_3 C58_3 1_555 1_555
C61_6 H27_6 1_555 1_555
C62_6 H28_6 1_555 1_555
C72_6 C61_6 1_555 1_555
C73_6 C62_6 1_555 1_555
H38_6 C72_6 1_555 1_555
H39_6 C73_6 1_555 1_555
C83_6 C72_6 1_555 1_555
C84_6 C73_6 1_555 1_555
C94_6 C83_6 1_555 1_555
C95_6 C84_6 1_555 1_555
H49_6 C94_6 1_555 1_555
H50_6 C95_6 1_555 1_555
C105_6 C94_6 1_555 1_555
C106_6 C95_6 1_555 1_555
H60_6 C105_6 1_555 1_555
H61_6 C106_6 1_555 1_555
C116_6 N2_6 1_555 1_555
C117_6 C84_6 1_555 1_555
C127_6 H71_6 1_555 1_555
C128_6 H72_6 1_555 1_555
C138_6 C127_6 1_555 1_555
C139_6 C128_6 1_555 1_555
H82_6 C138_6 1_555 1_555
H83_6 C139_6 1_555 1_555
C149_6 C138_6 1_555 1_555
C150_6 C139_6 1_555 1_555
C160_6 C149_6 1_555 1_555
C161_6 C150_6 1_555 1_555
H93_6 C160_6 1_555 1_555
H94_6 C161_6 1_555 1_555
C171_6 C160_6 1_555 1_555
C172_6 C161_6 1_555 1_555
H104_6 C171_6 1_555 1_555
H105_6 C172_6 1_555 1_555
C182_6 N4_6 1_555 1_555
C183_6 C150_6 1_555 1_555
N5_6 C61_6 1_555 1_555
N6_6 C62_6 1_555 1_555
N16_6 Ni7_6 1_555 1_555
N18_6 C116_6 1_555 1_555
N19_6 C11_6 1_555 1_555
N29_6 C127_6 1_555 1_555
N30_6 C128_6 1_555 1_555
N40_6 Ni7_6 1_555 1_555
N45_6 Ni23_4 1_555 1_555
N46_6 C182_6 1_555 1_555
N47_6 C17_6 1_555 1_555
Ni2_3 N5_6 1_555 1_555
Ni26_4 N6_6 1_555 1_555
Ni7_6 O7_6 1_555 1_555
O21_4 C18_6 1_555 1_555
O7_6 C19_6 1_555 1_555
O20_2 C20_6 1_555 1_555
O18_6 Ni24_4 1_555 1_555
O22_6 Ni23_4 1_555 1_555
O23_6 C18_6 1_555 1_555
O24_6 C19_6 1_555 1_555
O25_6 C20_6 1_555 1_555
O28_3 C23_3 1_555 1_555
O29_3 C24_3 1_555 1_555
O34_6 Ni2_3 1_555 1_555
O35_6 Ni26_4 1_555 1_555
O37_6 Ni24_4 1_555 1_555
O39_6 Ni7_6 1_555 1_555
O44_6 Ni23_4 1_555 1_555
O45_6 Ni2_3 1_555 1_555
O46_6 Ni26_4 1_555 1_555
O48_6 Ni24_4 1_555 1_555
O50_6 Ni7_6 1_555 1_555
O55_6 Ni23_4 1_555 1_555
O56_6 Ni2_3 1_555 1_555
O57_6 Ni26_4 1_555 1_555
O59_6 Ni24_4 1_555 1_555
O61_6 Ni7_6 1_555 1_555
O66_6 Ni23_4 1_555 1_555
C10_6 N1_6 1_555 1_555
C16_6 N3_6 1_555 1_555
N3_6 Ni1_6 1_555 1_555
Ni1_6 O1_6 1_555 1_555
C47_6 C56_6 1_555 1_555
C51_3 C58_3 1_555 1_555
C83_6 C116_6 1_555 1_555
C105_6 N5_6 1_555 1_555
C106_6 N6_6 1_555 1_555
C117_6 N18_6 1_555 1_555
C117_6 N19_6 1_555 1_555
C149_6 C182_6 1_555 1_555
C171_6 N29_6 1_555 1_555
C172_6 N30_6 1_555 1_555
C183_6 N46_6 1_555 1_555
C183_6 N47_6 1_555 1_555
N30_6 Ni24_4 1_555 1_555
Ni2_3 O9_3 1_555 1_555
C21_3 C32_3 1_555 1_555
C22_3 C33_3 1_555 1_555
C32_3 C41_3 1_555 1_555
C33_3 C41_3 1_555 1_555
C48_3 C32_3 1_555 1_555
C49_3 C33_3 1_555 1_555
H14_3 C48_3 1_555 1_555
H15_3 C49_3 1_555 1_555
C57_3 C48_3 1_555 1_555
H23_3 C57_3 1_555 1_555
C63_6 H29_6 1_555 1_555
C64_6 H30_6 1_555 1_555
C65_6 H31_6 1_555 1_555
C74_6 C63_6 1_555 1_555
C75_6 C64_6 1_555 1_555
C76_6 C65_6 1_555 1_555
H40_6 C74_6 1_555 1_555
H41_6 C75_6 1_555 1_555
H42_6 C76_6 1_555 1_555
C85_6 C74_6 1_555 1_555
C86_6 C75_6 1_555 1_555
C87_6 C76_6 1_555 1_555
C96_6 C85_6 1_555 1_555
C97_6 C86_6 1_555 1_555
C98_6 C87_6 1_555 1_555
H51_6 C96_6 1_555 1_555
H52_6 C97_6 1_555 1_555
H53_6 C98_6 1_555 1_555
C107_6 C96_6 1_555 1_555
C108_6 C97_6 1_555 1_555
C109_6 C98_6 1_555 1_555
H62_6 C107_6 1_555 1_555
H63_6 C108_6 1_555 1_555
H64_6 C109_6 1_555 1_555
C118_6 C85_6 1_555 1_555
C119_6 C86_6 1_555 1_555
C120_6 C87_6 1_555 1_555
C129_6 H73_6 1_555 1_555
C130_6 H74_6 1_555 1_555
C131_6 H75_6 1_555 1_555
C140_6 C129_6 1_555 1_555
C141_6 C130_6 1_555 1_555
C142_6 C131_6 1_555 1_555
H84_6 C140_6 1_555 1_555
H85_6 C141_6 1_555 1_555
H86_6 C142_6 1_555 1_555
C151_6 C140_6 1_555 1_555
C152_6 C141_6 1_555 1_555
C153_6 C142_6 1_555 1_555
C162_6 C151_6 1_555 1_555
C163_6 C152_6 1_555 1_555
C164_6 C153_6 1_555 1_555
H95_6 C162_6 1_555 1_555
H96_6 C163_6 1_555 1_555
H97_6 C164_6 1_555 1_555
C173_6 C162_6 1_555 1_555
C174_6 C163_6 1_555 1_555
C175_6 C164_6 1_555 1_555
H106_6 C173_6 1_555 1_555
H107_6 C174_6 1_555 1_555
H108_6 C175_6 1_555 1_555
C184_6 C151_6 1_555 1_555
C185_6 C152_6 1_555 1_555
C186_6 C153_6 1_555 1_555
N7_6 C63_6 1_555 1_555
N8_6 C64_6 1_555 1_555
N9_3 C65_6 1_555 1_555
N20_6 C118_6 1_555 1_555
N21_6 C119_6 1_555 1_555
N22_6 C118_6 1_555 1_555
N31_6 C129_6 1_555 1_555
N32_6 C130_6 1_555 1_555
N43_2 C131_6 1_555 1_555
N42_6 Ni9_6 1_555 1_555
N48_6 C184_6 1_555 1_555
N49_6 C185_6 1_555 1_555
N50_6 C184_6 1_555 1_555
Ni21 N7_6 1_555 1_555
Ni9_6 N8_6 1_555 1_555
Ni10_2 N9_3 1_555 1_555
Ni26 O11_3 1_555 1_555
Ni13_2 O12_3 1_555 1_555
O19_6 Ni9_6 1_555 1_555
O20_3 Ni10_2 1_555 1_555
O26_3 C21_3 1_555 1_555
O27_3 C22_3 1_555 1_555
O36_6 Ni21 1_555 1_555
O41_6 Ni9_6 1_555 1_555
O42_3 Ni10_2 1_555 1_555
O47_6 Ni21 1_555 1_555
O52_6 Ni9_6 1_555 1_555
O53_3 Ni10_2 1_555 1_555
O58_6 Ni21 1_555 1_555
O63_6 Ni9_6 1_555 1_555
O64_3 Ni10_2 1_555 1_555
C49_3 C57_3 1_555 1_555
C107_6 N7_6 1_555 1_555
C108_6 N8_6 1_555 1_555
C109_6 N9_3 1_555 1_555
C119_6 N20_6 1_555 1_555
C120_6 N21_6 1_555 1_555
C120_6 N22_6 1_555 1_555
C173_6 N31_6 1_555 1_555
C174_6 N32_6 1_555 1_555
C175_6 N43_2 1_555 1_555
C185_6 N48_6 1_555 1_555
C186_6 N49_6 1_555 1_555
C186_6 N50_6 1_555 1_555
C21_4 C32_4 1_555 1_555
C22_4 C33_4 1_555 1_555
C32_4 C41_4 1_555 1_555
C33_4 C41_4 1_555 1_555
C48_4 C32_4 1_555 1_555
C49_4 C33_4 1_555 1_555
H14_4 C48_4 1_555 1_555
H15_4 C49_4 1_555 1_555
C57_4 C48_4 1_555 1_555
H23_4 C57_4 1_555 1_555
C129_7 H73_7 1_555 1_555
C130_7 H74_7 1_555 1_555
C131_7 H75_7 1_555 1_555
C140_7 C129_7 1_555 1_555
C141_7 C130_7 1_555 1_555
C142_7 C131_7 1_555 1_555
H84_7 C140_7 1_555 1_555
H85_7 C141_7 1_555 1_555
H86_7 C142_7 1_555 1_555
C151_7 C140_7 1_555 1_555
C152_7 C141_7 1_555 1_555
C153_7 C142_7 1_555 1_555
C162_7 C151_7 1_555 1_555
C163_7 C152_7 1_555 1_555
C164_7 C153_7 1_555 1_555
H95_7 C162_7 1_555 1_555
H96_7 C163_7 1_555 1_555
H97_7 C164_7 1_555 1_555
C173_7 C162_7 1_555 1_555
C174_7 C163_7 1_555 1_555
C175_7 C164_7 1_555 1_555
H106_7 C173_7 1_555 1_555
H107_7 C174_7 1_555 1_555
H108_7 C175_7 1_555 1_555
C184_7 C151_7 1_555 1_555
C185_7 C152_7 1_555 1_555
C186_7 C153_7 1_555 1_555
N31_7 C129_7 1_555 1_555
N32_7 C130_7 1_555 1_555
N33_2 C131_7 1_555 1_555
N48_7 C184_7 1_555 1_555
N49_7 C185_7 1_555 1_555
N50_7 C184_7 1_555 1_555
Ni14_2 N33_2 1_555 1_555
Ni26_2 O11_4 1_555 1_555
Ni13_3 O12_4 1_555 1_555
O26_4 C21_4 1_555 1_555
O27_4 C22_4 1_555 1_555
C49_4 C57_4 1_555 1_555
C173_7 N31_7 1_555 1_555
C174_7 N32_7 1_555 1_555
C175_7 N33_2 1_555 1_555
C185_7 N48_7 1_555 1_555
C186_7 N49_7 1_555 1_555
C186_7 N50_7 1_555 1_555
C63_7 H29_7 1_555 1_555
C64_7 H30_7 1_555 1_555
C65_7 H31_7 1_555 1_555
C74_7 C63_7 1_555 1_555
C75_7 C64_7 1_555 1_555
C76_7 C65_7 1_555 1_555
H40_7 C74_7 1_555 1_555
H41_7 C75_7 1_555 1_555
H42_7 C76_7 1_555 1_555
C85_7 C74_7 1_555 1_555
C86_7 C75_7 1_555 1_555
C87_7 C76_7 1_555 1_555
C96_7 C85_7 1_555 1_555
C97_7 C86_7 1_555 1_555
C98_7 C87_7 1_555 1_555
H51_7 C96_7 1_555 1_555
H52_7 C97_7 1_555 1_555
H53_7 C98_7 1_555 1_555
C107_7 C96_7 1_555 1_555
C108_7 C97_7 1_555 1_555
C109_7 C98_7 1_555 1_555
H62_7 C107_7 1_555 1_555
H63_7 C108_7 1_555 1_555
H64_7 C109_7 1_555 1_555
C118_7 C85_7 1_555 1_555
C119_7 C86_7 1_555 1_555
C120_7 C87_7 1_555 1_555
N7_7 C63_7 1_555 1_555
N8_7 C64_7 1_555 1_555
N9_4 C65_7 1_555 1_555
N20_7 C118_7 1_555 1_555
N21_7 C119_7 1_555 1_555
N22_7 C118_7 1_555 1_555
N42_7 Ni9_7 1_555 1_555
Ni21_2 N7_7 1_555 1_555
Ni9_7 N8_7 1_555 1_555
Ni14_2 N9_4 1_555 1_555
O19_7 Ni9_7 1_555 1_555
O20_4 Ni14_2 1_555 1_555
O36_7 Ni21_2 1_555 1_555
O41_7 Ni9_7 1_555 1_555
O42_4 Ni14_2 1_555 1_555
O47_7 Ni21_2 1_555 1_555
O52_7 Ni9_7 1_555 1_555
O53_4 Ni14_2 1_555 1_555
O58_7 Ni21_2 1_555 1_555
O63_7 Ni9_7 1_555 1_555
O64_4 Ni14_2 1_555 1_555
C107_7 N7_7 1_555 1_555
C108_7 N8_7 1_555 1_555
C109_7 N9_4 1_555 1_555
C119_7 N20_7 1_555 1_555
C120_7 N21_7 1_555 1_555
C120_7 N22_7 1_555 1_555
C6_7 H3_7 1_555 1_555
C7_7 C6_7 1_555 1_555
H4_7 C7_7 1_555 1_555
C8_7 C7_7 1_555 1_555
C9_7 C8_7 1_555 1_555
H5_7 C9_7 1_555 1_555
C10_7 C9_7 1_555 1_555
H6_7 C10_7 1_555 1_555
C11_7 C8_7 1_555 1_555
N1_7 C6_7 1_555 1_555
N2_7 C11_7 1_555 1_555
Ni1_7 N1_7 1_555 1_555
O3_7 Ni1_7 1_555 1_555
O4_7 Ni1_7 1_555 1_555
O5_7 Ni1_7 1_555 1_555
C19_7 C30_7 1_555 1_555
C20_7 C31_7 1_555 1_555
C23_4 C34_4 1_555 1_555
C24_4 C35_4 1_555 1_555
C30_7 C40_7 1_555 1_555
C31_7 C40_7 1_555 1_555
C34_4 C42_4 1_555 1_555
C35_4 C42_4 1_555 1_555
C46_7 C30_7 1_555 1_555
C47_7 C31_7 1_555 1_555
C50_4 C34_4 1_555 1_555
C51_4 C35_4 1_555 1_555
H12_7 C46_7 1_555 1_555
H13_7 C47_7 1_555 1_555
H16_4 C50_4 1_555 1_555
H17_4 C51_4 1_555 1_555
C56_7 C46_7 1_555 1_555
C58_4 C50_4 1_555 1_555
H22_7 C56_7 1_555 1_555
H24_4 C58_4 1_555 1_555
C61_7 H27_7 1_555 1_555
C62_7 H28_7 1_555 1_555
C72_7 C61_7 1_555 1_555
C73_7 C62_7 1_555 1_555
H38_7 C72_7 1_555 1_555
H39_7 C73_7 1_555 1_555
C83_7 C72_7 1_555 1_555
C84_7 C73_7 1_555 1_555
C94_7 C83_7 1_555 1_555
C95_7 C84_7 1_555 1_555
H49_7 C94_7 1_555 1_555
H50_7 C95_7 1_555 1_555
C105_7 C94_7 1_555 1_555
C106_7 C95_7 1_555 1_555
H60_7 C105_7 1_555 1_555
H61_7 C106_7 1_555 1_555
C116_7 N2_7 1_555 1_555
C117_7 C84_7 1_555 1_555
N5_7 C61_7 1_555 1_555
N6_7 C62_7 1_555 1_555
N18_7 C116_7 1_555 1_555
N19_7 C11_7 1_555 1_555
Ni2_4 N5_7 1_555 1_555
Ni26 N6_7 1_555 1_555
O24_7 C19_7 1_555 1_555
O25_7 C20_7 1_555 1_555
O28_4 C23_4 1_555 1_555
O29_4 C24_4 1_555 1_555
O34_7 Ni2_4 1_555 1_555
O35_7 Ni26 1_555 1_555
O45_7 Ni2_4 1_555 1_555
O46_7 Ni26 1_555 1_555
O56_7 Ni2_4 1_555 1_555
O57_7 Ni26 1_555 1_555
C10_7 N1_7 1_555 1_555
Ni1_7 O1_7 1_555 1_555
C47_7 C56_7 1_555 1_555
C51_4 C58_4 1_555 1_555
C83_7 C116_7 1_555 1_555
C105_7 N5_7 1_555 1_555
C106_7 N6_7 1_555 1_555
C117_7 N18_7 1_555 1_555
C117_7 N19_7 1_555 1_555
Ni2_4 O9_4 1_555 1_555
C1_7 C2_7 1_555 1_555
C2_7 C3_7 1_555 1_555
C3_7 C29_7 1_555 1_555
C4_7 C2_7 1_555 1_555
H1_7 C4_7 1_555 1_555
C5_7 C4_7 1_555 1_555
H2_7 C5_7 1_555 1_555
C12_7 H7_7 1_555 1_555
C13_7 C12_7 1_555 1_555
H8_7 C13_7 1_555 1_555
C14_7 C13_7 1_555 1_555
C15_7 C14_7 1_555 1_555
H9_7 C15_7 1_555 1_555
C16_7 C15_7 1_555 1_555
H10_7 C16_7 1_555 1_555
C17_7 C14_7 1_555 1_555
N3_7 C12_7 1_555 1_555
N4_7 C17_7 1_555 1_555
O2_7 C1_7 1_555 1_555
C18_7 C29_7 1_555 1_555
C29_7 C45_7 1_555 1_555
C45_7 C5_7 1_555 1_555
H11_7 C45_7 1_555 1_555
C127_7 H71_7 1_555 1_555
C128_7 H72_7 1_555 1_555
C138_7 C127_7 1_555 1_555
C139_7 C128_7 1_555 1_555
H82_7 C138_7 1_555 1_555
H83_7 C139_7 1_555 1_555
C149_7 C138_7 1_555 1_555
C150_7 C139_7 1_555 1_555
C160_7 C149_7 1_555 1_555
C161_7 C150_7 1_555 1_555
H93_7 C160_7 1_555 1_555
H94_7 C161_7 1_555 1_555
C171_7 C160_7 1_555 1_555
C172_7 C161_7 1_555 1_555
H104_7 C171_7 1_555 1_555
H105_7 C172_7 1_555 1_555
C182_7 N4_7 1_555 1_555
C183_7 C150_7 1_555 1_555
N16_7 Ni7_7 1_555 1_555
N29_7 C127_7 1_555 1_555
N30_7 C128_7 1_555 1_555
N45_7 Ni23 1_555 1_555
N46_7 C182_7 1_555 1_555
N47_7 C17_7 1_555 1_555
Ni7_7 O7_7 1_555 1_555
O18_7 Ni24 1_555 1_555
O22_7 Ni23 1_555 1_555
O23_7 C18_7 1_555 1_555
O37_7 Ni24 1_555 1_555
O39_7 Ni7_7 1_555 1_555
O44_7 Ni23 1_555 1_555
O48_7 Ni24 1_555 1_555
O50_7 Ni7_7 1_555 1_555
O55_7 Ni23 1_555 1_555
O59_7 Ni24 1_555 1_555
O61_7 Ni7_7 1_555 1_555
O66_7 Ni23 1_555 1_555
C16_7 N3_7 1_555 1_555
C149_7 C182_7 1_555 1_555
C171_7 N29_7 1_555 1_555
C172_7 N30_7 1_555 1_555
C183_7 N46_7 1_555 1_555
C183_7 N47_7 1_555 1_555
N30_7 Ni24 1_555 1_555
O39_7 H141_4 1_555 1_555
O42_3 H175_4 1_555 1_555
C63_8 H29_8 1_555 1_555
C64_8 H30_8 1_555 1_555
C65_8 H31_8 1_555 1_555
C74_8 C63_8 1_555 1_555
C75_8 C64_8 1_555 1_555
C76_8 C65_8 1_555 1_555
H40_8 C74_8 1_555 1_555
H41_8 C75_8 1_555 1_555
H42_8 C76_8 1_555 1_555
C85_8 C74_8 1_555 1_555
C86_8 C75_8 1_555 1_555
C87_8 C76_8 1_555 1_555
C96_8 C85_8 1_555 1_555
C97_8 C86_8 1_555 1_555
C98_8 C87_8 1_555 1_555
H51_8 C96_8 1_555 1_555
H52_8 C97_8 1_555 1_555
H53_8 C98_8 1_555 1_555
C107_8 C96_8 1_555 1_555
C108_8 C97_8 1_555 1_555
C109_8 C98_8 1_555 1_555
H62_8 C107_8 1_555 1_555
H63_8 C108_8 1_555 1_555
H64_8 C109_8 1_555 1_555
C118_8 C85_8 1_555 1_555
C119_8 C86_8 1_555 1_555
C120_8 C87_8 1_555 1_555
C129_8 H73_8 1_555 1_555
C130_8 H74_8 1_555 1_555
C131_8 H75_8 1_555 1_555
C140_8 C129_8 1_555 1_555
C141_8 C130_8 1_555 1_555
C142_8 C131_8 1_555 1_555
H84_8 C140_8 1_555 1_555
H85_8 C141_8 1_555 1_555
H86_8 C142_8 1_555 1_555
C151_8 C140_8 1_555 1_555
C152_8 C141_8 1_555 1_555
C153_8 C142_8 1_555 1_555
C162_8 C151_8 1_555 1_555
C163_8 C152_8 1_555 1_555
C164_8 C153_8 1_555 1_555
H95_8 C162_8 1_555 1_555
H96_8 C163_8 1_555 1_555
H97_8 C164_8 1_555 1_555
C173_8 C162_8 1_555 1_555
C174_8 C163_8 1_555 1_555
C175_8 C164_8 1_555 1_555
H106_8 C173_8 1_555 1_555
H107_8 C174_8 1_555 1_555
H108_8 C175_8 1_555 1_555
C184_8 C151_8 1_555 1_555
C185_8 C152_8 1_555 1_555
C186_8 C153_8 1_555 1_555
N7_8 C63_8 1_555 1_555
N8_8 C64_8 1_555 1_555
N17_4 C65_8 1_555 1_555
N20_8 C118_8 1_555 1_555
N21_8 C119_8 1_555 1_555
N22_8 C118_8 1_555 1_555
N31_8 C129_8 1_555 1_555
N32_8 C130_8 1_555 1_555
N41_4 C131_8 1_555 1_555
N42_8 Ni9_8 1_555 1_555
N48_8 C184_8 1_555 1_555
N49_8 C185_8 1_555 1_555
N50_8 C184_8 1_555 1_555
Ni21_3 N7_8 1_555 1_555
Ni9_8 N8_8 1_555 1_555
O19_8 Ni9_8 1_555 1_555
O36_8 Ni21_3 1_555 1_555
O41_8 Ni9_8 1_555 1_555
O47_8 Ni21_3 1_555 1_555
O52_8 Ni9_8 1_555 1_555
O58_8 Ni21_3 1_555 1_555
O63_8 Ni9_8 1_555 1_555
C107_8 N7_8 1_555 1_555
C108_8 N8_8 1_555 1_555
C109_8 N17_4 1_555 1_555
C119_8 N20_8 1_555 1_555
C120_8 N21_8 1_555 1_555
C120_8 N22_8 1_555 1_555
C173_8 N31_8 1_555 1_555
C174_8 N32_8 1_555 1_555
C175_8 N41_4 1_555 1_555
C185_8 N48_8 1_555 1_555
C186_8 N49_8 1_555 1_555
C186_8 N50_8 1_555 1_555
C1_8 C2_8 1_555 1_555
C2_8 C3_8 1_555 1_555
C3_8 C29_8 1_555 1_555
C4_8 C2_8 1_555 1_555
H1_8 C4_8 1_555 1_555
C5_8 C4_8 1_555 1_555
H2_8 C5_8 1_555 1_555
C6_8 H3_8 1_555 1_555
C7_8 C6_8 1_555 1_555
H4_8 C7_8 1_555 1_555
C8_8 C7_8 1_555 1_555
C9_8 C8_8 1_555 1_555
H5_8 C9_8 1_555 1_555
C10_8 C9_8 1_555 1_555
H6_8 C10_8 1_555 1_555
C11_8 C8_8 1_555 1_555
C12_8 H7_8 1_555 1_555
C13_8 C12_8 1_555 1_555
H8_8 C13_8 1_555 1_555
C14_8 C13_8 1_555 1_555
C15_8 C14_8 1_555 1_555
H9_8 C15_8 1_555 1_555
C16_8 C15_8 1_555 1_555
H10_8 C16_8 1_555 1_555
C17_8 C14_8 1_555 1_555
N1_8 C6_8 1_555 1_555
N2_8 C11_8 1_555 1_555
N3_8 C12_8 1_555 1_555
N4_8 C17_8 1_555 1_555
Ni1_8 N1_8 1_555 1_555
O1_8 C1_8 1_555 1_555
O2_8 C1_8 1_555 1_555
O3_8 Ni1_8 1_555 1_555
O4_8 Ni1_8 1_555 1_555
O5_8 Ni1_8 1_555 1_555
C18_8 C29_8 1_555 1_555
C19_8 C30_8 1_555 1_555
C20_8 C31_8 1_555 1_555
C29_8 C45_8 1_555 1_555
C30_8 C40_8 1_555 1_555
C31_8 C40_8 1_555 1_555
C40_8 C3_8 1_555 1_555
C45_8 C5_8 1_555 1_555
C46_8 C30_8 1_555 1_555
C47_8 C31_8 1_555 1_555
H11_8 C45_8 1_555 1_555
H12_8 C46_8 1_555 1_555
H13_8 C47_8 1_555 1_555
C56_8 C46_8 1_555 1_555
H22_8 C56_8 1_555 1_555
C61_8 H27_8 1_555 1_555
C62_8 H28_8 1_555 1_555
C72_8 C61_8 1_555 1_555
C73_8 C62_8 1_555 1_555
H38_8 C72_8 1_555 1_555
H39_8 C73_8 1_555 1_555
C83_8 C72_8 1_555 1_555
C84_8 C73_8 1_555 1_555
C94_8 C83_8 1_555 1_555
C95_8 C84_8 1_555 1_555
H49_8 C94_8 1_555 1_555
H50_8 C95_8 1_555 1_555
C105_8 C94_8 1_555 1_555
C106_8 C95_8 1_555 1_555
H60_8 C105_8 1_555 1_555
H61_8 C106_8 1_555 1_555
C116_8 N2_8 1_555 1_555
C117_8 C84_8 1_555 1_555
C127_8 H71_8 1_555 1_555
C128_8 H72_8 1_555 1_555
C138_8 C127_8 1_555 1_555
C139_8 C128_8 1_555 1_555
H82_8 C138_8 1_555 1_555
H83_8 C139_8 1_555 1_555
C149_8 C138_8 1_555 1_555
C150_8 C139_8 1_555 1_555
C160_8 C149_8 1_555 1_555
C161_8 C150_8 1_555 1_555
H93_8 C160_8 1_555 1_555
H94_8 C161_8 1_555 1_555
C171_8 C160_8 1_555 1_555
C172_8 C161_8 1_555 1_555
H104_8 C171_8 1_555 1_555
H105_8 C172_8 1_555 1_555
C182_8 N4_8 1_555 1_555
C183_8 C150_8 1_555 1_555
N5_8 C61_8 1_555 1_555
N6_8 C62_8 1_555 1_555
N16_8 Ni7_8 1_555 1_555
N18_8 C116_8 1_555 1_555
N19_8 C11_8 1_555 1_555
N29_8 C127_8 1_555 1_555
N30_8 C128_8 1_555 1_555
N40_8 Ni7_8 1_555 1_555
N45_8 Ni23_2 1_555 1_555
N46_8 C182_8 1_555 1_555
N47_8 C17_8 1_555 1_555
Ni22_4 N5_8 1_555 1_555
Ni26_2 N6_8 1_555 1_555
Ni7_8 O7_8 1_555 1_555
O21_2 C18_8 1_555 1_555
O7_8 C19_8 1_555 1_555
O20_4 C20_8 1_555 1_555
O18_8 Ni24_2 1_555 1_555
O22_8 Ni23_2 1_555 1_555
O23_8 C18_8 1_555 1_555
O24_8 C19_8 1_555 1_555
O25_8 C20_8 1_555 1_555
O34_8 Ni22_4 1_555 1_555
O35_8 Ni26_2 1_555 1_555
O37_8 Ni24_2 1_555 1_555
O39_8 Ni7_8 1_555 1_555
O44_8 Ni23_2 1_555 1_555
O45_8 Ni22_4 1_555 1_555
O46_8 Ni26_2 1_555 1_555
O48_8 Ni24_2 1_555 1_555
O50_8 Ni7_8 1_555 1_555
O55_8 Ni23_2 1_555 1_555
O56_8 Ni22_4 1_555 1_555
O57_8 Ni26_2 1_555 1_555
O59_8 Ni24_2 1_555 1_555
O61_8 Ni7_8 1_555 1_555
O66_8 Ni23_2 1_555 1_555
C10_8 N1_8 1_555 1_555
C16_8 N3_8 1_555 1_555
N3_8 Ni1_8 1_555 1_555
Ni1_8 O1_8 1_555 1_555
C47_8 C56_8 1_555 1_555
C83_8 C116_8 1_555 1_555
C105_8 N5_8 1_555 1_555
C106_8 N6_8 1_555 1_555
C117_8 N18_8 1_555 1_555
C117_8 N19_8 1_555 1_555
C149_8 C182_8 1_555 1_555
C171_8 N29_8 1_555 1_555
C172_8 N30_8 1_555 1_555
C183_8 N46_8 1_555 1_555
C183_8 N47_8 1_555 1_555
N30_8 Ni24_2 1_555 1_555
C66_5 H32_5 1_555 1_555
C67_5 H33_5 1_555 1_555
C68_5 H34_5 1_555 1_555
C77_5 C66_5 1_555 1_555
C78_5 C67_5 1_555 1_555
C79_5 C68_5 1_555 1_555
H43_5 C77_5 1_555 1_555
H44_5 C78_5 1_555 1_555
H45_5 C79_5 1_555 1_555
C88_5 C77_5 1_555 1_555
C89_5 C78_5 1_555 1_555
C90_5 C79_5 1_555 1_555
C99_5 C88_5 1_555 1_555
C100_5 C89_5 1_555 1_555
C101_5 C90_5 1_555 1_555
H54_5 C99_5 1_555 1_555
H55_5 C100_5 1_555 1_555
H56_5 C101_5 1_555 1_555
C110_5 C99_5 1_555 1_555
C111_5 C100_5 1_555 1_555
C112_5 C101_5 1_555 1_555
H65_5 C110_5 1_555 1_555
H66_5 C111_5 1_555 1_555
H67_5 C112_5 1_555 1_555
C121_5 C88_5 1_555 1_555
C122_5 C89_5 1_555 1_555
C123_5 C90_5 1_555 1_555
N10_5 C66_5 1_555 1_555
N11_5 C67_5 1_555 1_555
N16_6 C68_5 1_555 1_555
N23_5 C121_5 1_555 1_555
N24_5 C122_5 1_555 1_555
N25_5 C121_5 1_555 1_555
Ni19_3 N10_5 1_555 1_555
Ni20 N11_5 1_555 1_555
O18_9 Ni19_3 1_555 1_555
O37_9 Ni19_3 1_555 1_555
O43_5 Ni20 1_555 1_555
O48_9 Ni19_3 1_555 1_555
O54_5 Ni20 1_555 1_555
O59_9 Ni19_3 1_555 1_555
O65_5 Ni20 1_555 1_555
C110_5 N10_5 1_555 1_555
C111_5 N11_5 1_555 1_555
C112_5 N16_6 1_555 1_555
C122_5 N23_5 1_555 1_555
C123_5 N24_5 1_555 1_555
C123_5 N25_5 1_555 1_555
O36_8 H141_5 1_555 1_555
O34_4 H175_5 1_555 1_555
C69_5 H35_5 1_555 1_555
C70_5 H36_5 1_555 1_555
C71_5 H37_5 1_555 1_555
C80_5 C69_5 1_555 1_555
C81_5 C70_5 1_555 1_555
C82_5 C71_5 1_555 1_555
H46_5 C80_5 1_555 1_555
H47_5 C81_5 1_555 1_555
H48_5 C82_5 1_555 1_555
C91_5 C80_5 1_555 1_555
C92_5 C81_5 1_555 1_555
C93_5 C82_5 1_555 1_555
C102_5 C91_5 1_555 1_555
C103_5 C92_5 1_555 1_555
C104_5 C93_5 1_555 1_555
H57_5 C102_5 1_555 1_555
H58_5 C103_5 1_555 1_555
H59_5 C104_5 1_555 1_555
C113_5 C102_5 1_555 1_555
C114_5 C103_5 1_555 1_555
C115_5 C104_5 1_555 1_555
H68_5 C113_5 1_555 1_555
H69_5 C114_5 1_555 1_555
H70_5 C115_5 1_555 1_555
C124_5 C91_5 1_555 1_555
C125_5 C92_5 1_555 1_555
C126_5 C93_5 1_555 1_555
N13_5 C69_5 1_555 1_555
N16_8 C70_5 1_555 1_555
N15_5 C71_5 1_555 1_555
N26_5 C124_5 1_555 1_555
N27_5 C125_5 1_555 1_555
N28_5 C124_5 1_555 1_555
Ni13 N13_5 1_555 1_555
Ni19 N15_5 1_555 1_555
O38_5 Ni13 1_555 1_555
O49_5 Ni13 1_555 1_555
O60_5 Ni13 1_555 1_555
C113_5 N13_5 1_555 1_555
C114_5 N16_8 1_555 1_555
C115_5 N15_5 1_555 1_555
C125_5 N26_5 1_555 1_555
C126_5 N27_5 1_555 1_555
C126_5 N28_5 1_555 1_555
C69_6 H35_6 1_555 1_555
C70_6 H36_6 1_555 1_555
C71_6 H37_6 1_555 1_555
C80_6 C69_6 1_555 1_555
C81_6 C70_6 1_555 1_555
C82_6 C71_6 1_555 1_555
H46_6 C80_6 1_555 1_555
H47_6 C81_6 1_555 1_555
H48_6 C82_6 1_555 1_555
C91_6 C80_6 1_555 1_555
C92_6 C81_6 1_555 1_555
C93_6 C82_6 1_555 1_555
C102_6 C91_6 1_555 1_555
C103_6 C92_6 1_555 1_555
C104_6 C93_6 1_555 1_555
H57_6 C102_6 1_555 1_555
H58_6 C103_6 1_555 1_555
H59_6 C104_6 1_555 1_555
C113_6 C102_6 1_555 1_555
C114_6 C103_6 1_555 1_555
C115_6 C104_6 1_555 1_555
H68_6 C113_6 1_555 1_555
H69_6 C114_6 1_555 1_555
H70_6 C115_6 1_555 1_555
C124_6 C91_6 1_555 1_555
C125_6 C92_6 1_555 1_555
C126_6 C93_6 1_555 1_555
N13_6 C69_6 1_555 1_555
N16_5 C70_6 1_555 1_555
N15_6 C71_6 1_555 1_555
N26_6 C124_6 1_555 1_555
N27_6 C125_6 1_555 1_555
N28_6 C124_6 1_555 1_555
Ni17 N13_6 1_555 1_555
Ni19_2 N15_6 1_555 1_555
O38_6 Ni17 1_555 1_555
O49_6 Ni17 1_555 1_555
O60_6 Ni17 1_555 1_555
C113_6 N13_6 1_555 1_555
C114_6 N16_5 1_555 1_555
C115_6 N15_6 1_555 1_555
C125_6 N26_6 1_555 1_555
C126_6 N27_6 1_555 1_555
C126_6 N28_6 1_555 1_555
C66_6 H32_6 1_555 1_555
C67_6 H33_6 1_555 1_555
C68_6 H34_6 1_555 1_555
C77_6 C66_6 1_555 1_555
C78_6 C67_6 1_555 1_555
C79_6 C68_6 1_555 1_555
H43_6 C77_6 1_555 1_555
H44_6 C78_6 1_555 1_555
H45_6 C79_6 1_555 1_555
C88_6 C77_6 1_555 1_555
C89_6 C78_6 1_555 1_555
C90_6 C79_6 1_555 1_555
C99_6 C88_6 1_555 1_555
C100_6 C89_6 1_555 1_555
C101_6 C90_6 1_555 1_555
H54_6 C99_6 1_555 1_555
H55_6 C100_6 1_555 1_555
H56_6 C101_6 1_555 1_555
C110_6 C99_6 1_555 1_555
C111_6 C100_6 1_555 1_555
C112_6 C101_6 1_555 1_555
H65_6 C110_6 1_555 1_555
H66_6 C111_6 1_555 1_555
H67_6 C112_6 1_555 1_555
C121_6 C88_6 1_555 1_555
C122_6 C89_6 1_555 1_555
C123_6 C90_6 1_555 1_555
N10_6 C66_6 1_555 1_555
N11_6 C67_6 1_555 1_555
N16_7 C68_6 1_555 1_555
N23_6 C121_6 1_555 1_555
N24_6 C122_6 1_555 1_555
N25_6 C121_6 1_555 1_555
Ni19_4 N10_6 1_555 1_555
Ni20_2 N11_6 1_555 1_555
O18_10 Ni19_4 1_555 1_555
O37_10 Ni19_4 1_555 1_555
O43_6 Ni20_2 1_555 1_555
O48_10 Ni19_4 1_555 1_555
O54_6 Ni20_2 1_555 1_555
O59_10 Ni19_4 1_555 1_555
O65_6 Ni20_2 1_555 1_555
C110_6 N10_6 1_555 1_555
C111_6 N11_6 1_555 1_555
C112_6 N16_7 1_555 1_555
C122_6 N23_6 1_555 1_555
C123_6 N24_6 1_555 1_555
C123_6 N25_6 1_555 1_555
O36_5 H141_6 1_555 1_555
O34 H175_6 1_555 1_555
O18_11 Ni19 1_555 1_555
O37_11 Ni19 1_555 1_555
O48_11 Ni19 1_555 1_555
O59_11 Ni19 1_555 1_555
O36_6 H141_7 1_555 1_555
O34_2 H175_7 1_555 1_555
O18_12 Ni19_2 1_555 1_555
O37_12 Ni19_2 1_555 1_555
O48_12 Ni19_2 1_555 1_555
O59_12 Ni19_2 1_555 1_555
O36_7 H141_8 1_555 1_555
O34_3 H175_8 1_555 1_555
C66_7 H32_7 1_555 1_555
C67_7 H33_7 1_555 1_555
C68_7 H34_7 1_555 1_555
C77_7 C66_7 1_555 1_555
C78_7 C67_7 1_555 1_555
C79_7 C68_7 1_555 1_555
H43_7 C77_7 1_555 1_555
H44_7 C78_7 1_555 1_555
H45_7 C79_7 1_555 1_555
C88_7 C77_7 1_555 1_555
C89_7 C78_7 1_555 1_555
C90_7 C79_7 1_555 1_555
C99_7 C88_7 1_555 1_555
C100_7 C89_7 1_555 1_555
C101_7 C90_7 1_555 1_555
H54_7 C99_7 1_555 1_555
H55_7 C100_7 1_555 1_555
H56_7 C101_7 1_555 1_555
C110_7 C99_7 1_555 1_555
C111_7 C100_7 1_555 1_555
C112_7 C101_7 1_555 1_555
H65_7 C110_7 1_555 1_555
H66_7 C111_7 1_555 1_555
H67_7 C112_7 1_555 1_555
C121_7 C88_7 1_555 1_555
C122_7 C89_7 1_555 1_555
C123_7 C90_7 1_555 1_555
N10_7 C66_7 1_555 1_555
N11_7 C67_7 1_555 1_555
N16_4 C68_7 1_555 1_555
N23_7 C121_7 1_555 1_555
N24_7 C122_7 1_555 1_555
N25_7 C121_7 1_555 1_555
Ni25 N10_7 1_555 1_555
Ni20_3 N11_7 1_555 1_555
O18_13 Ni25 1_555 1_555
O37_13 Ni25 1_555 1_555
O43_7 Ni20_3 1_555 1_555
O48_13 Ni25 1_555 1_555
O54_7 Ni20_3 1_555 1_555
O59_13 Ni25 1_555 1_555
O65_7 Ni20_3 1_555 1_555
C110_7 N10_7 1_555 1_555
C111_7 N11_7 1_555 1_555
C112_7 N16_4 1_555 1_555
C122_7 N23_7 1_555 1_555
C123_7 N24_7 1_555 1_555
C123_7 N25_7 1_555 1_555
O36_2 H141_9 1_555 1_555
O34_6 H175_9 1_555 1_555
C69_7 H35_7 1_555 1_555
C70_7 H36_7 1_555 1_555
C71_7 H37_7 1_555 1_555
C80_7 C69_7 1_555 1_555
C81_7 C70_7 1_555 1_555
C82_7 C71_7 1_555 1_555
H46_7 C80_7 1_555 1_555
H47_7 C81_7 1_555 1_555
H48_7 C82_7 1_555 1_555
C91_7 C80_7 1_555 1_555
C92_7 C81_7 1_555 1_555
C93_7 C82_7 1_555 1_555
C102_7 C91_7 1_555 1_555
C103_7 C92_7 1_555 1_555
C104_7 C93_7 1_555 1_555
H57_7 C102_7 1_555 1_555
H58_7 C103_7 1_555 1_555
H59_7 C104_7 1_555 1_555
C113_7 C102_7 1_555 1_555
C114_7 C103_7 1_555 1_555
C115_7 C104_7 1_555 1_555
H68_7 C113_7 1_555 1_555
H69_7 C114_7 1_555 1_555
H70_7 C115_7 1_555 1_555
C124_7 C91_7 1_555 1_555
C125_7 C92_7 1_555 1_555
C126_7 C93_7 1_555 1_555
N13_7 C69_7 1_555 1_555
N16_2 C70_7 1_555 1_555
N15_7 C71_7 1_555 1_555
N26_7 C124_7 1_555 1_555
N27_7 C125_7 1_555 1_555
N28_7 C124_7 1_555 1_555
Ni13_2 N13_7 1_555 1_555
Ni25_3 N15_7 1_555 1_555
O38_7 Ni13_2 1_555 1_555
O49_7 Ni13_2 1_555 1_555
O60_7 Ni13_2 1_555 1_555
C113_7 N13_7 1_555 1_555
C114_7 N16_2 1_555 1_555
C115_7 N15_7 1_555 1_555
C125_7 N26_7 1_555 1_555
C126_7 N27_7 1_555 1_555
C126_7 N28_7 1_555 1_555
C69_8 H35_8 1_555 1_555
C70_8 H36_8 1_555 1_555
C71_8 H37_8 1_555 1_555
C80_8 C69_8 1_555 1_555
C81_8 C70_8 1_555 1_555
C82_8 C71_8 1_555 1_555
H46_8 C80_8 1_555 1_555
H47_8 C81_8 1_555 1_555
H48_8 C82_8 1_555 1_555
C91_8 C80_8 1_555 1_555
C92_8 C81_8 1_555 1_555
C93_8 C82_8 1_555 1_555
C102_8 C91_8 1_555 1_555
C103_8 C92_8 1_555 1_555
C104_8 C93_8 1_555 1_555
H57_8 C102_8 1_555 1_555
H58_8 C103_8 1_555 1_555
H59_8 C104_8 1_555 1_555
C113_8 C102_8 1_555 1_555
C114_8 C103_8 1_555 1_555
C115_8 C104_8 1_555 1_555
H68_8 C113_8 1_555 1_555
H69_8 C114_8 1_555 1_555
H70_8 C115_8 1_555 1_555
C124_8 C91_8 1_555 1_555
C125_8 C92_8 1_555 1_555
C126_8 C93_8 1_555 1_555
N13_8 C69_8 1_555 1_555
N16_3 C70_8 1_555 1_555
N15_8 C71_8 1_555 1_555
N26_8 C124_8 1_555 1_555
N27_8 C125_8 1_555 1_555
N28_8 C124_8 1_555 1_555
Ni13_3 N13_8 1_555 1_555
Ni25_4 N15_8 1_555 1_555
O38_8 Ni13_3 1_555 1_555
O49_8 Ni13_3 1_555 1_555
O60_8 Ni13_3 1_555 1_555
C113_8 N13_8 1_555 1_555
C114_8 N16_3 1_555 1_555
C115_8 N15_8 1_555 1_555
C125_8 N26_8 1_555 1_555
C126_8 N27_8 1_555 1_555
C126_8 N28_8 1_555 1_555
C66_8 H32_8 1_555 1_555
C67_8 H33_8 1_555 1_555
C68_8 H34_8 1_555 1_555
C77_8 C66_8 1_555 1_555
C78_8 C67_8 1_555 1_555
C79_8 C68_8 1_555 1_555
H43_8 C77_8 1_555 1_555
H44_8 C78_8 1_555 1_555
H45_8 C79_8 1_555 1_555
C88_8 C77_8 1_555 1_555
C89_8 C78_8 1_555 1_555
C90_8 C79_8 1_555 1_555
C99_8 C88_8 1_555 1_555
C100_8 C89_8 1_555 1_555
C101_8 C90_8 1_555 1_555
H54_8 C99_8 1_555 1_555
H55_8 C100_8 1_555 1_555
H56_8 C101_8 1_555 1_555
C110_8 C99_8 1_555 1_555
C111_8 C100_8 1_555 1_555
C112_8 C101_8 1_555 1_555
H65_8 C110_8 1_555 1_555
H66_8 C111_8 1_555 1_555
H67_8 C112_8 1_555 1_555
C121_8 C88_8 1_555 1_555
C122_8 C89_8 1_555 1_555
C123_8 C90_8 1_555 1_555
N10_8 C66_8 1_555 1_555
N11_8 C67_8 1_555 1_555
N16 C68_8 1_555 1_555
N23_8 C121_8 1_555 1_555
N24_8 C122_8 1_555 1_555
N25_8 C121_8 1_555 1_555
Ni25_2 N10_8 1_555 1_555
Ni17_2 N11_8 1_555 1_555
O18_14 Ni25_2 1_555 1_555
O37_14 Ni25_2 1_555 1_555
O43_8 Ni17_2 1_555 1_555
O48_14 Ni25_2 1_555 1_555
O54_8 Ni17_2 1_555 1_555
O59_14 Ni25_2 1_555 1_555
O65_8 Ni17_2 1_555 1_555
C110_8 N10_8 1_555 1_555
C111_8 N11_8 1_555 1_555
C112_8 N16 1_555 1_555
C122_8 N23_8 1_555 1_555
C123_8 N24_8 1_555 1_555
C123_8 N25_8 1_555 1_555
O36_3 H141_10 1_555 1_555
O34_7 H175_10 1_555 1_555
O18_15 Ni25_3 1_555 1_555
O37_15 Ni25_3 1_555 1_555
O48_15 Ni25_3 1_555 1_555
O59_15 Ni25_3 1_555 1_555
O36_4 H141_11 1_555 1_555
O34_8 H175_11 1_555 1_555
O18_16 Ni25_4 1_555 1_555
O37_16 Ni25_4 1_555 1_555
O48_16 Ni25_4 1_555 1_555
O59_16 Ni25_4 1_555 1_555
O36 H141_12 1_555 1_555
O34_5 H175_12 1_555 1_555
O35_8 H141_13 1_555 1_555
O38_8 H175_13 1_555 1_555
C1_9 C2_9 1_555 1_555
C2_9 C3_9 1_555 1_555
C3_9 C29_9 1_555 1_555
C4_9 C2_9 1_555 1_555
H1_9 C4_9 1_555 1_555
C5_9 C4_9 1_555 1_555
H2_9 C5_9 1_555 1_555
O18_14 C1_9 1_555 1_555
O2_9 C1_9 1_555 1_555
C18_9 C29_9 1_555 1_555
C19_9 C30_9 1_555 1_555
C20_9 C31_9 1_555 1_555
C29_9 C45_9 1_555 1_555
C30_9 C40_9 1_555 1_555
C31_9 C40_9 1_555 1_555
C40_9 C3_9 1_555 1_555
C45_9 C5_9 1_555 1_555
C46_9 C30_9 1_555 1_555
C47_9 C31_9 1_555 1_555
H11_9 C45_9 1_555 1_555
H12_9 C46_9 1_555 1_555
H13_9 C47_9 1_555 1_555
C56_9 C46_9 1_555 1_555
H22_9 C56_9 1_555 1_555
C135_5 H79_5 1_555 1_555
C136_5 H80_5 1_555 1_555
C137_5 H81_5 1_555 1_555
C146_5 C135_5 1_555 1_555
C147_5 C136_5 1_555 1_555
C148_5 C137_5 1_555 1_555
H90_5 C146_5 1_555 1_555
H91_5 C147_5 1_555 1_555
H92_5 C148_5 1_555 1_555
C157_5 C146_5 1_555 1_555
C158_5 C147_5 1_555 1_555
C159_5 C148_5 1_555 1_555
C168_5 C157_5 1_555 1_555
C169_5 C158_5 1_555 1_555
C170_5 C159_5 1_555 1_555
H101_5 C168_5 1_555 1_555
H102_5 C169_5 1_555 1_555
H103_5 C170_5 1_555 1_555
C179_5 C168_5 1_555 1_555
C180_5 C169_5 1_555 1_555
C181_5 C170_5 1_555 1_555
H112_5 C179_5 1_555 1_555
H113_5 C180_5 1_555 1_555
H114_5 C181_5 1_555 1_555
C190_5 C157_5 1_555 1_555
C191_5 C158_5 1_555 1_555
C192_5 C159_5 1_555 1_555
N45_4 C135_5 1_555 1_555
N42_4 C136_5 1_555 1_555
N40_7 C137_5 1_555 1_555
N54_5 C190_5 1_555 1_555
N55_5 C191_5 1_555 1_555
N56_5 C190_5 1_555 1_555
O22_4 C18_9 1_555 1_555
O19_3 C19_9 1_555 1_555
O18 C20_9 1_555 1_555
O23_9 C18_9 1_555 1_555
O24_9 C19_9 1_555 1_555
O25_9 C20_9 1_555 1_555
C47_9 C56_9 1_555 1_555
C179_5 N45_4 1_555 1_555
C180_5 N42_4 1_555 1_555
C181_5 N40_7 1_555 1_555
C191_5 N54_5 1_555 1_555
C192_5 N55_5 1_555 1_555
C192_5 N56_5 1_555 1_555
C132_5 H76_5 1_555 1_555
C133_5 H77_5 1_555 1_555
C134_5 H78_5 1_555 1_555
C143_5 C132_5 1_555 1_555
C144_5 C133_5 1_555 1_555
C145_5 C134_5 1_555 1_555
H87_5 C143_5 1_555 1_555
H88_5 C144_5 1_555 1_555
H89_5 C145_5 1_555 1_555
C154_5 C143_5 1_555 1_555
C155_5 C144_5 1_555 1_555
C156_5 C145_5 1_555 1_555
C165_5 C154_5 1_555 1_555
C166_5 C155_5 1_555 1_555
C167_5 C156_5 1_555 1_555
H98_5 C165_5 1_555 1_555
H99_5 C166_5 1_555 1_555
H100_5 C167_5 1_555 1_555
C176_5 C165_5 1_555 1_555
C177_5 C166_5 1_555 1_555
C178_5 C167_5 1_555 1_555
H109_5 C176_5 1_555 1_555
H110_5 C177_5 1_555 1_555
H111_5 C178_5 1_555 1_555
C187_5 C154_5 1_555 1_555
C188_5 C155_5 1_555 1_555
C189_5 C156_5 1_555 1_555
N40 C132_5 1_555 1_555
N45_8 C133_5 1_555 1_555
N42_8 C134_5 1_555 1_555
N51_5 C187_5 1_555 1_555
N52_5 C188_5 1_555 1_555
N53_5 C187_5 1_555 1_555
C176_5 N40 1_555 1_555
C177_5 N45_8 1_555 1_555
C178_5 N42_8 1_555 1_555
C188_5 N51_5 1_555 1_555
C189_5 N52_5 1_555 1_555
C189_5 N53_5 1_555 1_555
C132_6 H76_6 1_555 1_555
C133_6 H77_6 1_555 1_555
C134_6 H78_6 1_555 1_555
C143_6 C132_6 1_555 1_555
C144_6 C133_6 1_555 1_555
C145_6 C134_6 1_555 1_555
H87_6 C143_6 1_555 1_555
H88_6 C144_6 1_555 1_555
H89_6 C145_6 1_555 1_555
C154_6 C143_6 1_555 1_555
C155_6 C144_6 1_555 1_555
C156_6 C145_6 1_555 1_555
C165_6 C154_6 1_555 1_555
C166_6 C155_6 1_555 1_555
C167_6 C156_6 1_555 1_555
H98_6 C165_6 1_555 1_555
H99_6 C166_6 1_555 1_555
H100_6 C167_6 1_555 1_555
C176_6 C165_6 1_555 1_555
C177_6 C166_6 1_555 1_555
C178_6 C167_6 1_555 1_555
H109_6 C176_6 1_555 1_555
H110_6 C177_6 1_555 1_555
H111_6 C178_6 1_555 1_555
C187_6 C154_6 1_555 1_555
C188_6 C155_6 1_555 1_555
C189_6 C156_6 1_555 1_555
N40_5 C132_6 1_555 1_555
N45_2 C133_6 1_555 1_555
N42_2 C134_6 1_555 1_555
N51_6 C187_6 1_555 1_555
N52_6 C188_6 1_555 1_555
N53_6 C187_6 1_555 1_555
C176_6 N40_5 1_555 1_555
C177_6 N45_2 1_555 1_555
C178_6 N42_2 1_555 1_555
C188_6 N51_6 1_555 1_555
C189_6 N52_6 1_555 1_555
C189_6 N53_6 1_555 1_555
C1_10 C2_10 1_555 1_555
C2_10 C3_10 1_555 1_555
C3_10 C29_10 1_555 1_555
C4_10 C2_10 1_555 1_555
H1_10 C4_10 1_555 1_555
C5_10 C4_10 1_555 1_555
H2_10 C5_10 1_555 1_555
O18_12 C1_10 1_555 1_555
O2_10 C1_10 1_555 1_555
C18_10 C29_10 1_555 1_555
C19_10 C30_10 1_555 1_555
C20_10 C31_10 1_555 1_555
C29_10 C45_10 1_555 1_555
C30_10 C40_10 1_555 1_555
C31_10 C40_10 1_555 1_555
C40_10 C3_10 1_555 1_555
C45_10 C5_10 1_555 1_555
C46_10 C30_10 1_555 1_555
C47_10 C31_10 1_555 1_555
H11_10 C45_10 1_555 1_555
H12_10 C46_10 1_555 1_555
H13_10 C47_10 1_555 1_555
C56_10 C46_10 1_555 1_555
H22_10 C56_10 1_555 1_555
C135_6 H79_6 1_555 1_555
C136_6 H80_6 1_555 1_555
C137_6 H81_6 1_555 1_555
C146_6 C135_6 1_555 1_555
C147_6 C136_6 1_555 1_555
C148_6 C137_6 1_555 1_555
H90_6 C146_6 1_555 1_555
H91_6 C147_6 1_555 1_555
H92_6 C148_6 1_555 1_555
C157_6 C146_6 1_555 1_555
C158_6 C147_6 1_555 1_555
C159_6 C148_6 1_555 1_555
C168_6 C157_6 1_555 1_555
C169_6 C158_6 1_555 1_555
C170_6 C159_6 1_555 1_555
H101_6 C168_6 1_555 1_555
H102_6 C169_6 1_555 1_555
H103_6 C170_6 1_555 1_555
C179_6 C168_6 1_555 1_555
C180_6 C169_6 1_555 1_555
C181_6 C170_6 1_555 1_555
H112_6 C179_6 1_555 1_555
H113_6 C180_6 1_555 1_555
H114_6 C181_6 1_555 1_555
C190_6 C157_6 1_555 1_555
C191_6 C158_6 1_555 1_555
C192_6 C159_6 1_555 1_555
N45_6 C135_6 1_555 1_555
N42_6 C136_6 1_555 1_555
N40_3 C137_6 1_555 1_555
N54_6 C190_6 1_555 1_555
N55_6 C191_6 1_555 1_555
N56_6 C190_6 1_555 1_555
O22_6 C18_10 1_555 1_555
O19_7 C19_10 1_555 1_555
O18_5 C20_10 1_555 1_555
O23_10 C18_10 1_555 1_555
O24_10 C19_10 1_555 1_555
O25_10 C20_10 1_555 1_555
C47_10 C56_10 1_555 1_555
C179_6 N45_6 1_555 1_555
C180_6 N42_6 1_555 1_555
C181_6 N40_3 1_555 1_555
C191_6 N54_6 1_555 1_555
C192_6 N55_6 1_555 1_555
C192_6 N56_6 1_555 1_555
C1_11 C2_11 1_555 1_555
C2_11 C3_11 1_555 1_555
C3_11 C29_11 1_555 1_555
C4_11 C2_11 1_555 1_555
H1_11 C4_11 1_555 1_555
C5_11 C4_11 1_555 1_555
H2_11 C5_11 1_555 1_555
O18_16 C1_11 1_555 1_555
O2_11 C1_11 1_555 1_555
C18_11 C29_11 1_555 1_555
C19_11 C30_11 1_555 1_555
C20_11 C31_11 1_555 1_555
C29_11 C45_11 1_555 1_555
C30_11 C40_11 1_555 1_555
C31_11 C40_11 1_555 1_555
C40_11 C3_11 1_555 1_555
C45_11 C5_11 1_555 1_555
C46_11 C30_11 1_555 1_555
C47_11 C31_11 1_555 1_555
H11_11 C45_11 1_555 1_555
H12_11 C46_11 1_555 1_555
H13_11 C47_11 1_555 1_555
C56_11 C46_11 1_555 1_555
H22_11 C56_11 1_555 1_555
O22_2 C18_11 1_555 1_555
O19 C19_11 1_555 1_555
O18_3 C20_11 1_555 1_555
O23_11 C18_11 1_555 1_555
O24_11 C19_11 1_555 1_555
O25_11 C20_11 1_555 1_555
C47_11 C56_11 1_555 1_555
C1_12 C2_12 1_555 1_555
C2_12 C3_12 1_555 1_555
C3_12 C29_12 1_555 1_555
C4_12 C2_12 1_555 1_555
H1_12 C4_12 1_555 1_555
C5_12 C4_12 1_555 1_555
H2_12 C5_12 1_555 1_555
O18_10 C1_12 1_555 1_555
O2_12 C1_12 1_555 1_555
C18_12 C29_12 1_555 1_555
C19_12 C30_12 1_555 1_555
C20_12 C31_12 1_555 1_555
C29_12 C45_12 1_555 1_555
C30_12 C40_12 1_555 1_555
C31_12 C40_12 1_555 1_555
C40_12 C3_12 1_555 1_555
C45_12 C5_12 1_555 1_555
C46_12 C30_12 1_555 1_555
C47_12 C31_12 1_555 1_555
H11_12 C45_12 1_555 1_555
H12_12 C46_12 1_555 1_555
H13_12 C47_12 1_555 1_555
C56_12 C46_12 1_555 1_555
H22_12 C56_12 1_555 1_555
O22_8 C18_12 1_555 1_555
O19_5 C19_12 1_555 1_555
O18_7 C20_12 1_555 1_555
O23_12 C18_12 1_555 1_555
O24_12 C19_12 1_555 1_555
O25_12 C20_12 1_555 1_555
C47_12 C56_12 1_555 1_555
C1_13 C2_13 1_555 1_555
C2_13 C3_13 1_555 1_555
C3_13 C29_13 1_555 1_555
C4_13 C2_13 1_555 1_555
H1_13 C4_13 1_555 1_555
C5_13 C4_13 1_555 1_555
H2_13 C5_13 1_555 1_555
O18_15 C1_13 1_555 1_555
O2_13 C1_13 1_555 1_555
C18_13 C29_13 1_555 1_555
C19_13 C30_13 1_555 1_555
C20_13 C31_13 1_555 1_555
C29_13 C45_13 1_555 1_555
C30_13 C40_13 1_555 1_555
C31_13 C40_13 1_555 1_555
C40_13 C3_13 1_555 1_555
C45_13 C5_13 1_555 1_555
C46_13 C30_13 1_555 1_555
C47_13 C31_13 1_555 1_555
H11_13 C45_13 1_555 1_555
H12_13 C46_13 1_555 1_555
H13_13 C47_13 1_555 1_555
C56_13 C46_13 1_555 1_555
H22_13 C56_13 1_555 1_555
C132_7 H76_7 1_555 1_555
C133_7 H77_7 1_555 1_555
C134_7 H78_7 1_555 1_555
C135_7 H79_7 1_555 1_555
C136_7 H80_7 1_555 1_555
C137_7 H81_7 1_555 1_555
C143_7 C132_7 1_555 1_555
C144_7 C133_7 1_555 1_555
C145_7 C134_7 1_555 1_555
C146_7 C135_7 1_555 1_555
C147_7 C136_7 1_555 1_555
C148_7 C137_7 1_555 1_555
H87_7 C143_7 1_555 1_555
H88_7 C144_7 1_555 1_555
H89_7 C145_7 1_555 1_555
H90_7 C146_7 1_555 1_555
H91_7 C147_7 1_555 1_555
H92_7 C148_7 1_555 1_555
C154_7 C143_7 1_555 1_555
C155_7 C144_7 1_555 1_555
C156_7 C145_7 1_555 1_555
C157_7 C146_7 1_555 1_555
C158_7 C147_7 1_555 1_555
C159_7 C148_7 1_555 1_555
C165_7 C154_7 1_555 1_555
C166_7 C155_7 1_555 1_555
C167_7 C156_7 1_555 1_555
C168_7 C157_7 1_555 1_555
C169_7 C158_7 1_555 1_555
C170_7 C159_7 1_555 1_555
H98_7 C165_7 1_555 1_555
H99_7 C166_7 1_555 1_555
H100_7 C167_7 1_555 1_555
H101_7 C168_7 1_555 1_555
H102_7 C169_7 1_555 1_555
H103_7 C170_7 1_555 1_555
C176_7 C165_7 1_555 1_555
C177_7 C166_7 1_555 1_555
C178_7 C167_7 1_555 1_555
C179_7 C168_7 1_555 1_555
C180_7 C169_7 1_555 1_555
C181_7 C170_7 1_555 1_555
H109_7 C176_7 1_555 1_555
H110_7 C177_7 1_555 1_555
H111_7 C178_7 1_555 1_555
H112_7 C179_7 1_555 1_555
H113_7 C180_7 1_555 1_555
H114_7 C181_7 1_555 1_555
C187_7 C154_7 1_555 1_555
C188_7 C155_7 1_555 1_555
C189_7 C156_7 1_555 1_555
C190_7 C157_7 1_555 1_555
C191_7 C158_7 1_555 1_555
C192_7 C159_7 1_555 1_555
N40_2 C132_7 1_555 1_555
N45_5 C133_7 1_555 1_555
N42_5 C134_7 1_555 1_555
N45 C135_7 1_555 1_555
N42 C136_7 1_555 1_555
N40_8 C137_7 1_555 1_555
N51_7 C187_7 1_555 1_555
N52_7 C188_7 1_555 1_555
N53_7 C187_7 1_555 1_555
N54_7 C190_7 1_555 1_555
N55_7 C191_7 1_555 1_555
N56_7 C190_7 1_555 1_555
O22 C18_13 1_555 1_555
O19_4 C19_13 1_555 1_555
O18_2 C20_13 1_555 1_555
O23_13 C18_13 1_555 1_555
O24_13 C19_13 1_555 1_555
O25_13 C20_13 1_555 1_555
C47_13 C56_13 1_555 1_555
C176_7 N40_2 1_555 1_555
C177_7 N45_5 1_555 1_555
C178_7 N42_5 1_555 1_555
C179_7 N45 1_555 1_555
C180_7 N42 1_555 1_555
C181_7 N40_8 1_555 1_555
C188_7 N51_7 1_555 1_555
C189_7 N52_7 1_555 1_555
C189_7 N53_7 1_555 1_555
C191_7 N54_7 1_555 1_555
C192_7 N55_7 1_555 1_555
C192_7 N56_7 1_555 1_555
C1_14 C2_14 1_555 1_555
C2_14 C3_14 1_555 1_555
C3_14 C29_14 1_555 1_555
C4_14 C2_14 1_555 1_555
H1_14 C4_14 1_555 1_555
C5_14 C4_14 1_555 1_555
H2_14 C5_14 1_555 1_555
O18_9 C1_14 1_555 1_555
O2_14 C1_14 1_555 1_555
C18_14 C29_14 1_555 1_555
C19_14 C30_14 1_555 1_555
C20_14 C31_14 1_555 1_555
C29_14 C45_14 1_555 1_555
C30_14 C40_14 1_555 1_555
C31_14 C40_14 1_555 1_555
C40_14 C3_14 1_555 1_555
C45_14 C5_14 1_555 1_555
C46_14 C30_14 1_555 1_555
C47_14 C31_14 1_555 1_555
H11_14 C45_14 1_555 1_555
H12_14 C46_14 1_555 1_555
H13_14 C47_14 1_555 1_555
C56_14 C46_14 1_555 1_555
H22_14 C56_14 1_555 1_555
C132_8 H76_8 1_555 1_555
C133_8 H77_8 1_555 1_555
C134_8 H78_8 1_555 1_555
C135_8 H79_8 1_555 1_555
C136_8 H80_8 1_555 1_555
C137_8 H81_8 1_555 1_555
C143_8 C132_8 1_555 1_555
C144_8 C133_8 1_555 1_555
C145_8 C134_8 1_555 1_555
C146_8 C135_8 1_555 1_555
C147_8 C136_8 1_555 1_555
C148_8 C137_8 1_555 1_555
H87_8 C143_8 1_555 1_555
H88_8 C144_8 1_555 1_555
H89_8 C145_8 1_555 1_555
H90_8 C146_8 1_555 1_555
H91_8 C147_8 1_555 1_555
H92_8 C148_8 1_555 1_555
C154_8 C143_8 1_555 1_555
C155_8 C144_8 1_555 1_555
C156_8 C145_8 1_555 1_555
C157_8 C146_8 1_555 1_555
C158_8 C147_8 1_555 1_555
C159_8 C148_8 1_555 1_555
C165_8 C154_8 1_555 1_555
C166_8 C155_8 1_555 1_555
C167_8 C156_8 1_555 1_555
C168_8 C157_8 1_555 1_555
C169_8 C158_8 1_555 1_555
C170_8 C159_8 1_555 1_555
H98_8 C165_8 1_555 1_555
H99_8 C166_8 1_555 1_555
H100_8 C167_8 1_555 1_555
H101_8 C168_8 1_555 1_555
H102_8 C169_8 1_555 1_555
H103_8 C170_8 1_555 1_555
C176_8 C165_8 1_555 1_555
C177_8 C166_8 1_555 1_555
C178_8 C167_8 1_555 1_555
C179_8 C168_8 1_555 1_555
C180_8 C169_8 1_555 1_555
C181_8 C170_8 1_555 1_555
H109_8 C176_8 1_555 1_555
H110_8 C177_8 1_555 1_555
H111_8 C178_8 1_555 1_555
H112_8 C179_8 1_555 1_555
H113_8 C180_8 1_555 1_555
H114_8 C181_8 1_555 1_555
C187_8 C154_8 1_555 1_555
C188_8 C155_8 1_555 1_555
C189_8 C156_8 1_555 1_555
C190_8 C157_8 1_555 1_555
C191_8 C158_8 1_555 1_555
C192_8 C159_8 1_555 1_555
N40_6 C132_8 1_555 1_555
N45_3 C133_8 1_555 1_555
N42_3 C134_8 1_555 1_555
N45_7 C135_8 1_555 1_555
N42_7 C136_8 1_555 1_555
N40_4 C137_8 1_555 1_555
N51_8 C187_8 1_555 1_555
N52_8 C188_8 1_555 1_555
N53_8 C187_8 1_555 1_555
N54_8 C190_8 1_555 1_555
N55_8 C191_8 1_555 1_555
N56_8 C190_8 1_555 1_555
O22_7 C18_14 1_555 1_555
O19_8 C19_14 1_555 1_555
O18_6 C20_14 1_555 1_555
O23_14 C18_14 1_555 1_555
O24_14 C19_14 1_555 1_555
O25_14 C20_14 1_555 1_555
C47_14 C56_14 1_555 1_555
C176_8 N40_6 1_555 1_555
C177_8 N45_3 1_555 1_555
C178_8 N42_3 1_555 1_555
C179_8 N45_7 1_555 1_555
C180_8 N42_7 1_555 1_555
C181_8 N40_4 1_555 1_555
C188_8 N51_8 1_555 1_555
C189_8 N52_8 1_555 1_555
C189_8 N53_8 1_555 1_555
C191_8 N54_8 1_555 1_555
C192_8 N55_8 1_555 1_555
C192_8 N56_8 1_555 1_555
C1_15 C2_15 1_555 1_555
C2_15 C3_15 1_555 1_555
C3_15 C29_15 1_555 1_555
C4_15 C2_15 1_555 1_555
H1_15 C4_15 1_555 1_555
C5_15 C4_15 1_555 1_555
H2_15 C5_15 1_555 1_555
O18_13 C1_15 1_555 1_555
O2_15 C1_15 1_555 1_555
C18_15 C29_15 1_555 1_555
C19_15 C30_15 1_555 1_555
C20_15 C31_15 1_555 1_555
C29_15 C45_15 1_555 1_555
C30_15 C40_15 1_555 1_555
C31_15 C40_15 1_555 1_555
C40_15 C3_15 1_555 1_555
C45_15 C5_15 1_555 1_555
C46_15 C30_15 1_555 1_555
C47_15 C31_15 1_555 1_555
H11_15 C45_15 1_555 1_555
H12_15 C46_15 1_555 1_555
H13_15 C47_15 1_555 1_555
C56_15 C46_15 1_555 1_555
H22_15 C56_15 1_555 1_555
O22_3 C18_15 1_555 1_555
O19_2 C19_15 1_555 1_555
O18_4 C20_15 1_555 1_555
O23_15 C18_15 1_555 1_555
O24_15 C19_15 1_555 1_555
O25_15 C20_15 1_555 1_555
C47_15 C56_15 1_555 1_555
O3_3 H141_14 1_555 1_555
O38_3 H175_14 1_555 1_555
O3 H141_15 1_555 1_555
O38 H175_15 1_555 1_555
O3_5 H141_16 1_555 1_555
O43_3 H175_16 1_555 1_555
C21_5 C32_5 1_555 1_555
C22_5 C33_5 1_555 1_555
C23_5 C34_5 1_555 1_555
C24_5 C35_5 1_555 1_555
C32_5 C41_5 1_555 1_555
C33_5 C41_5 1_555 1_555
C34_5 C42_5 1_555 1_555
C35_5 C42_5 1_555 1_555
C41_5 C42_5 1_555 1_555
C48_5 C32_5 1_555 1_555
C49_5 C33_5 1_555 1_555
C50_5 C34_5 1_555 1_555
C51_5 C35_5 1_555 1_555
H14_5 C48_5 1_555 1_555
H15_5 C49_5 1_555 1_555
H16_5 C50_5 1_555 1_555
H17_5 C51_5 1_555 1_555
C57_5 C48_5 1_555 1_555
C58_5 C50_5 1_555 1_555
H23_5 C57_5 1_555 1_555
H24_5 C58_5 1_555 1_555
O18_11 C21_5 1_555 1_555
O22_5 C22_5 1_555 1_555
O19_6 C23_5 1_555 1_555
O18_8 C24_5 1_555 1_555
O26_5 C21_5 1_555 1_555
O27_5 C22_5 1_555 1_555
O28_5 C23_5 1_555 1_555
O29_5 C24_5 1_555 1_555
C49_5 C57_5 1_555 1_555
C51_5 C58_5 1_555 1_555
O3_7 H141_17 1_555 1_555
O43 H175_17 1_555 1_555
O35_2 H141_18 1_555 1_555
O43_6 H175_18 1_555 1_555
O35_6 H141_19 1_555 1_555
O43_8 H175_19 1_555 1_555
O35_4 H141_20 1_555 1_555
O38_6 H175_20 1_555 1_555
O35 H141_21 1_555 1_555
O43_5 H175_21 1_555 1_555
O35_5 H141_22 1_555 1_555
O43_7 H175_22 1_555 1_555
O35_3 H141_23 1_555 1_555
O38_5 H175_23 1_555 1_555
O35_7 H141_24 1_555 1_555
O38_7 H175_24 1_555 1_555

#END
