
###############################################################################
#
# This file contains modified crystal structure data generated from the
# MOF subset of the Cambridge Structural Database (CSD) v543 
# hosted by the Cambridge Crystallographic Data Centre (CCDC).
#
# This work is licensed under the Creative Commons
# Attribution-NonCommercial-ShareAlike 4.0 International License.
# To view a copy of this license, visit
# http://creativecommons.org/licenses/by-nc-sa/4.0/
# or send a letter to
# Creative Commons, PO Box 1866, Mountain View, CA 94042, USA.
#
# CIF created using the CSD Python API on 29 September 2022
# The structure has been converted into the P1 space group
# The structure has a 3D framework
# The original CSD entry EXOVAP is in the monoclinic crystal system
# The framework has been calculated to contain at least 10.0% void space
# The void calculation uses a probe of radius 1.32A, grid spacing 0.4
#
###############################################################################

data_EXOVAP
_chemical_formula_moiety         '(C224 H96 N32 O64 Pb16)n'
_symmetry_cell_setting           triclinic
_symmetry_space_group_name_H-M   'P 1'
_symmetry_Int_Tables_number      1
_space_group_name_Hall           'P 1'
loop_
_symmetry_equiv_pos_site_id
_symmetry_equiv_pos_as_xyz
1 x,y,z
_cell_length_a                   34.996(7)
_cell_length_b                   10.856(2)
_cell_length_c                   14.849(3)
_cell_angle_alpha                90
_cell_angle_beta                 98.00(3)
_cell_angle_gamma                90
_cell_volume                     5586.48
loop_
_atom_site_label
_atom_site_type_symbol
_atom_site_fract_x
_atom_site_fract_y
_atom_site_fract_z
Pb4 Pb 0.682784(12) 0.12695(3) 0.85961(2)
C20 C 0.7108(3) 0.5217(8) 0.0233(6)
C21 C 0.7082(3) 0.5853(9) 0.1020(6)
H10 H 0.7099 0.5432 0.1569
C22 C 0.7028(3) 0.7142(8) 0.1002(6)
C23 C 0.7000(3) 0.7765(8) 0.0174(6)
H11 H 0.6957 0.8610 0.0154
C26 C 0.7148(3) 0.3845(8) 0.0266(6)
C28 C 0.7001(3) 0.7786(9) 0.1866(6)
O3 O 0.7323(2) 0.3404(6) 0.1007(5)
O7 O 0.7113(2) 0.7208(6) 0.2611(4)
O8 O 0.6859(3) 0.8847(6) 0.1880(5)
O9 O 0.6527(2) 0.0905(9) 0.0206(5)
Pb5 Pb 0.682784(12) 0.87305(3) 0.35961(2)
Pb6 Pb 0.716587(12) 0.15400(3) 0.16423(2)
Pb8 Pb 0.783413(12) 0.65400(3) 0.33577(2)
C4 C 0.5516(3) 0.0669(10) 0.6972(7)
C5 C 0.5230(3) 0.1529(10) 0.6533(7)
C6 C 0.5308(3) 0.2796(11) 0.6586(8)
C7 C 0.5669(4) 0.3264(11) 0.7069(9)
C8 C 0.5772(4) 0.4511(11) 0.7078(9)
H4 H 0.5605 0.5088 0.6775
C9 C 0.6121(4) 0.4879(11) 0.7536(10)
H5 H 0.6193 0.5704 0.7550
C10 C 0.6360(4) 0.4006(11) 0.7970(9)
H6 H 0.6592 0.4266 0.8297
C11 C 0.5944(3) 0.2424(10) 0.7495(7)
C12 C 0.5870(3) 0.1103(10) 0.7449(7)
C13 C 0.4639(4) 0.1892(12) 0.5722(8)
C14 C 0.4276(4) 0.1469(12) 0.5296(8)
H7 H 0.4220 0.0632 0.5308
C15 C 0.4009(4) 0.2241(12) 0.4877(7)
C16 C 0.4084(4) 0.3517(13) 0.4847(10)
H8 H 0.3905 0.4050 0.4533
C17 C 0.4431(4) 0.3960(13) 0.5294(11)
H9 H 0.4474 0.4805 0.5313
C18 C 0.4720(4) 0.3163(13) 0.5720(9)
C19 C 0.3622(3) 0.1791(12) 0.4452(7)
C24 C 0.7036(3) 0.7134(7) 0.9386(6)
C25 C 0.7083(3) 0.5829(8) 0.9410(6)
H12 H 0.7098 0.5393 0.8876
C27 C 0.7038(3) 0.7759(9) 0.8483(6)
N1 N 0.6142(3) 0.0349(9) 0.7860(6)
N2 N 0.6280(3) 0.2787(8) 0.7955(6)
N3 N 0.4897(3) 0.1069(10) 0.6135(7)
N4 N 0.5056(3) 0.3636(9) 0.6177(8)
O1 O 0.3464(2) 0.2352(7) 0.3740(4)
O2 O 0.3473(2) 0.0905(9) 0.4794(5)
O4 O 0.7015(3) 0.3229(6) 0.9600(5)
O5 O 0.7101(2) 0.7102(6) 0.7817(4)
O6 O 0.6981(2) 0.8894(6) 0.8419(5)
Pb2 Pb 0.283413(12) 0.15400(3) 0.33577(2)
O10 O 0.2677(2) 0.3404(6) 0.3993(5)
O11 O 0.2899(2) 0.2898(6) 0.2183(4)
O13 O 0.3019(2) 0.1106(6) 0.1581(5)
O14 O 0.7113(2) 0.2792(6) 0.7611(4)
O15 O 0.2113(2) 0.2208(6) 0.2611(4)
O16 O 0.6859(3) 0.1153(6) 0.6880(5)
Pb3 Pb 0.317216(12) 0.12695(3) 0.64039(2)
Pb7 Pb 0.716587(12) 0.84600(3) 0.66423(2)
C1 C 0.6077(4) 0.9148(11) 0.7815(9)
H1 H 0.6266 0.8622 0.8099
C2 C 0.5739(4) 0.8634(12) 0.7364(12)
H2 H 0.5705 0.7785 0.7335
C3 C 0.5461(4) 0.9406(11) 0.6969(9)
H3 H 0.5228 0.9082 0.6690
C15_2 C 0.5991(4) 0.2241(12) 0.0123(7)
C16_2 C 0.5916(4) 0.3517(13) 0.0153(10)
H8_2 H 0.6095 0.4050 0.0467
C19_2 C 0.6378(3) 0.1791(12) 0.0548(7)
O1_2 O 0.6536(2) 0.2352(7) 0.1260(4)
O11_2 O 0.7101(2) 0.2898(6) 0.2817(4)
O13_2 O 0.6981(2) 0.1106(6) 0.3419(5)
O15_2 O 0.7887(2) 0.2208(6) 0.2389(4)
C4_2 C 0.4484(3) 0.0669(10) 0.8028(7)
C5_2 C 0.4770(3) 0.1529(10) 0.8467(7)
C6_2 C 0.4692(3) 0.2796(11) 0.8414(8)
C7_2 C 0.4331(4) 0.3264(11) 0.7931(9)
C8_2 C 0.4228(4) 0.4511(11) 0.7922(9)
H4_2 H 0.4395 0.5088 0.8225
C9_2 C 0.3879(4) 0.4879(11) 0.7464(10)
H5_2 H 0.3807 0.5704 0.7450
C10_2 C 0.3640(4) 0.4006(11) 0.7030(9)
H6_2 H 0.3408 0.4266 0.6703
C11_2 C 0.4056(3) 0.2424(10) 0.7505(7)
C12_2 C 0.4130(3) 0.1103(10) 0.7551(7)
C13_2 C 0.5361(4) 0.1892(12) 0.9278(8)
C14_2 C 0.5724(4) 0.1469(12) 0.9704(8)
H7_2 H 0.5780 0.0632 0.9692
C17_2 C 0.5569(4) 0.3960(13) 0.9706(11)
H9_2 H 0.5526 0.4805 0.9687
C18_2 C 0.5280(4) 0.3163(13) 0.9280(9)
C20_2 C 0.2892(3) 0.5217(8) 0.4767(6)
C21_2 C 0.2918(3) 0.5853(9) 0.3980(6)
H10_2 H 0.2901 0.5432 0.3431
C22_2 C 0.2972(3) 0.7142(8) 0.3998(6)
C23_2 C 0.3000(3) 0.7765(8) 0.4826(6)
H11_2 H 0.3043 0.8610 0.4846
C24_2 C 0.2964(3) 0.7134(7) 0.5614(6)
C25_2 C 0.2917(3) 0.5829(8) 0.5590(6)
H12_2 H 0.2902 0.5393 0.6124
C26_2 C 0.2852(3) 0.3845(8) 0.4734(6)
C27_2 C 0.2962(3) 0.7759(9) 0.6517(6)
C28_2 C 0.2999(3) 0.7786(9) 0.3134(6)
N1_2 N 0.3858(3) 0.0349(9) 0.7140(6)
N2_2 N 0.3720(3) 0.2787(8) 0.7045(6)
N3_2 N 0.5103(3) 0.1069(10) 0.8865(7)
N4_2 N 0.4944(3) 0.3636(9) 0.8823(8)
O4_2 O 0.2985(3) 0.3229(6) 0.5400(5)
O5_2 O 0.2899(2) 0.7102(6) 0.7183(4)
O6_2 O 0.3019(2) 0.8894(6) 0.6581(5)
O7_2 O 0.2887(2) 0.7208(6) 0.2389(4)
O8_2 O 0.3141(3) 0.8847(6) 0.3120(5)
O14_2 O 0.2887(2) 0.2792(6) 0.7389(4)
O16_2 O 0.3141(3) 0.1153(6) 0.8120(5)
Pb5_2 Pb 0.317216(12) 0.87305(3) 0.14039(2)
Pb7_2 Pb 0.283413(12) 0.84600(3) 0.83577(2)
Pb8_2 Pb 0.216587(12) 0.65400(3) 0.16423(2)
C1_2 C 0.3923(4) 0.9148(11) 0.7185(9)
H1_2 H 0.3734 0.8622 0.6901
C2_2 C 0.4261(4) 0.8634(12) 0.7636(12)
H2_2 H 0.4295 0.7785 0.7665
C3_2 C 0.4539(4) 0.9406(11) 0.8031(9)
H3_2 H 0.4772 0.9082 0.8310
C20_3 C 0.2108(3) 0.0217(8) 0.0233(6)
C21_3 C 0.2082(3) 0.0853(9) 0.1020(6)
H10_3 H 0.2099 0.0432 0.1569
C22_3 C 0.2028(3) 0.2142(8) 0.1002(6)
C23_3 C 0.2000(3) 0.2765(8) 0.0174(6)
H11_3 H 0.1957 0.3610 0.0154
C28_3 C 0.2001(3) 0.2786(9) 0.1866(6)
O8_3 O 0.1859(3) 0.3847(6) 0.1880(5)
Pb5_3 Pb 0.182784(12) 0.37305(3) 0.35961(2)
H4_3 H 0.0605 0.0088 0.6775
H5_3 H 0.1193 0.0704 0.7550
C24_3 C 0.2036(3) 0.2134(7) 0.9386(6)
C25_3 C 0.2083(3) 0.0829(8) 0.9410(6)
H12_3 H 0.2098 0.0393 0.8876
C27_3 C 0.2038(3) 0.2759(9) 0.8483(6)
O5_3 O 0.2101(2) 0.2102(6) 0.7817(4)
O6_3 O 0.1981(2) 0.3894(6) 0.8419(5)
Pb4_2 Pb 0.182784(12) 0.62695(3) 0.85961(2)
Pb7_3 Pb 0.216587(12) 0.34600(3) 0.66423(2)
C26_3 C 0.2148(3) 0.8845(8) 0.0266(6)
O3_2 O 0.2323(2) 0.8404(6) 0.1007(5)
O9_2 O 0.1527(2) 0.5905(9) 0.0206(5)
C1_3 C 0.1077(4) 0.4148(11) 0.7815(9)
H1_3 H 0.1266 0.3622 0.8099
C2_3 C 0.0739(4) 0.3634(12) 0.7364(12)
H2_3 H 0.0705 0.2785 0.7335
C3_3 C 0.0461(4) 0.4406(11) 0.6969(9)
H3_3 H 0.0228 0.4082 0.6690
C4_3 C 0.0516(3) 0.5669(10) 0.6972(7)
C5_3 C 0.0230(3) 0.6529(10) 0.6533(7)
C6_3 C 0.0308(3) 0.7796(11) 0.6586(8)
C7_3 C 0.0669(4) 0.8264(11) 0.7069(9)
C8_3 C 0.0772(4) 0.9511(11) 0.7078(9)
C9_3 C 0.1121(4) 0.9879(11) 0.7536(10)
C10_3 C 0.1360(4) 0.9006(11) 0.7970(9)
H6_3 H 0.1592 0.9266 0.8297
C11_3 C 0.0944(3) 0.7424(10) 0.7495(7)
C12_3 C 0.0870(3) 0.6103(10) 0.7449(7)
N1_3 N 0.1142(3) 0.5349(9) 0.7860(6)
N2_3 N 0.1280(3) 0.7787(8) 0.7955(6)
N4_3 N 0.0056(3) 0.8636(9) 0.6177(8)
O4_3 O 0.2015(3) 0.8229(6) 0.9600(5)
O14_3 O 0.2113(2) 0.7792(6) 0.7611(4)
O16_3 O 0.1859(3) 0.6153(6) 0.6880(5)
C13_3 C 0.9639(4) 0.6892(12) 0.5722(8)
C14_3 C 0.9276(4) 0.6469(12) 0.5296(8)
H7_3 H 0.9220 0.5632 0.5308
C15_3 C 0.9009(4) 0.7241(12) 0.4877(7)
C16_3 C 0.9084(4) 0.8517(13) 0.4847(10)
H8_3 H 0.8905 0.9050 0.4533
C17_3 C 0.9431(4) 0.8960(13) 0.5294(11)
H9_3 H 0.9474 0.9805 0.5313
C18_3 C 0.9720(4) 0.8163(13) 0.5720(9)
C19_3 C 0.8622(3) 0.6791(12) 0.4452(7)
N3_3 N 0.9897(3) 0.6069(10) 0.6135(7)
O1_3 O 0.8464(2) 0.7352(7) 0.3740(4)
O2_2 O 0.8473(2) 0.5905(9) 0.4794(5)
O10_2 O 0.7677(2) 0.8404(6) 0.3993(5)
O11_3 O 0.7899(2) 0.7898(6) 0.2183(4)
O13_3 O 0.8019(2) 0.6106(6) 0.1581(5)
Pb3_2 Pb 0.817216(12) 0.62695(3) 0.64039(2)
C15_4 C 0.0991(4) 0.7241(12) 0.0123(7)
C16_4 C 0.0916(4) 0.8517(13) 0.0153(10)
H8_4 H 0.1095 0.9050 0.0467
C19_4 C 0.1378(3) 0.6791(12) 0.0548(7)
O1_4 O 0.1536(2) 0.7352(7) 0.1260(4)
O11_4 O 0.2101(2) 0.7898(6) 0.2817(4)
O13_4 O 0.1981(2) 0.6106(6) 0.3419(5)
C13_4 C 0.0361(4) 0.6892(12) 0.9278(8)
C14_4 C 0.0724(4) 0.6469(12) 0.9704(8)
H7_4 H 0.0780 0.5632 0.9692
C17_4 C 0.0569(4) 0.8960(13) 0.9706(11)
H9_4 H 0.0526 0.9805 0.9687
C18_4 C 0.0280(4) 0.8163(13) 0.9280(9)
N3_4 N 0.0103(3) 0.6069(10) 0.8865(7)
H4_4 H 0.9395 0.0088 0.8225
H5_4 H 0.8807 0.0704 0.7450
C20_4 C 0.7892(3) 0.0217(8) 0.4767(6)
C21_4 C 0.7918(3) 0.0853(9) 0.3980(6)
H10_4 H 0.7901 0.0432 0.3431
C22_4 C 0.7972(3) 0.2142(8) 0.3998(6)
C23_4 C 0.8000(3) 0.2765(8) 0.4826(6)
H11_4 H 0.8043 0.3610 0.4846
C24_4 C 0.7964(3) 0.2134(7) 0.5614(6)
C25_4 C 0.7917(3) 0.0829(8) 0.5590(6)
H12_4 H 0.7902 0.0393 0.6124
C27_4 C 0.7962(3) 0.2759(9) 0.6517(6)
C28_4 C 0.7999(3) 0.2786(9) 0.3134(6)
O5_4 O 0.7899(2) 0.2102(6) 0.7183(4)
O6_4 O 0.8019(2) 0.3894(6) 0.6581(5)
O8_4 O 0.8141(3) 0.3847(6) 0.3120(5)
Pb5_4 Pb 0.817216(12) 0.37305(3) 0.14039(2)
Pb7_4 Pb 0.783413(12) 0.34600(3) 0.83577(2)
C1_4 C 0.8923(4) 0.4148(11) 0.7185(9)
H1_4 H 0.8734 0.3622 0.6901
C2_4 C 0.9261(4) 0.3634(12) 0.7636(12)
H2_4 H 0.9295 0.2785 0.7665
C3_4 C 0.9539(4) 0.4406(11) 0.8031(9)
H3_4 H 0.9772 0.4082 0.8310
C4_4 C 0.9484(3) 0.5669(10) 0.8028(7)
C5_4 C 0.9770(3) 0.6529(10) 0.8467(7)
C6_4 C 0.9692(3) 0.7796(11) 0.8414(8)
C7_4 C 0.9331(4) 0.8264(11) 0.7931(9)
C8_4 C 0.9228(4) 0.9511(11) 0.7922(9)
C9_4 C 0.8879(4) 0.9879(11) 0.7464(10)
C10_4 C 0.8640(4) 0.9006(11) 0.7030(9)
H6_4 H 0.8408 0.9266 0.6703
C11_4 C 0.9056(3) 0.7424(10) 0.7505(7)
C12_4 C 0.9130(3) 0.6103(10) 0.7551(7)
C26_4 C 0.7852(3) 0.8845(8) 0.4734(6)
N1_4 N 0.8858(3) 0.5349(9) 0.7140(6)
N2_4 N 0.8720(3) 0.7787(8) 0.7045(6)
N4_4 N 0.9944(3) 0.8636(9) 0.8823(8)
O4_4 O 0.7985(3) 0.8229(6) 0.5400(5)
O14_4 O 0.7887(2) 0.7792(6) 0.7389(4)
O16_4 O 0.8141(3) 0.6153(6) 0.8120(5)
C1_5 C 0.3923(4) 0.0852(11) 0.2185(9)
H1_5 H 0.3734 0.1378 0.1901
C2_5 C 0.4261(4) 0.1366(12) 0.2636(12)
H2_5 H 0.4295 0.2215 0.2665
C3_5 C 0.4539(4) 0.0594(11) 0.3031(9)
H3_5 H 0.4772 0.0918 0.3310
C4_5 C 0.4484(3) 0.9331(10) 0.3028(7)
C5_5 C 0.4770(3) 0.8471(10) 0.3467(7)
C6_5 C 0.4692(3) 0.7204(11) 0.3414(8)
C7_5 C 0.4331(4) 0.6736(11) 0.2931(9)
C8_5 C 0.4228(4) 0.5489(11) 0.2922(9)
H4_5 H 0.4395 0.4912 0.3225
C9_5 C 0.3879(4) 0.5121(11) 0.2464(10)
H5_5 H 0.3807 0.4296 0.2450
C10_5 C 0.3640(4) 0.5994(11) 0.2030(9)
H6_5 H 0.3408 0.5734 0.1703
C11_5 C 0.4056(3) 0.7576(10) 0.2505(7)
C12_5 C 0.4130(3) 0.8897(10) 0.2551(7)
C13_5 C 0.5361(4) 0.8108(12) 0.4278(8)
C14_5 C 0.5724(4) 0.8531(12) 0.4704(8)
H7_5 H 0.5780 0.9368 0.4692
C15_5 C 0.5991(4) 0.7759(12) 0.5123(7)
C16_5 C 0.5916(4) 0.6483(13) 0.5153(10)
H8_5 H 0.6095 0.5950 0.5467
C17_5 C 0.5569(4) 0.6040(13) 0.4706(11)
H9_5 H 0.5526 0.5195 0.4687
C18_5 C 0.5280(4) 0.6837(13) 0.4280(9)
C19_5 C 0.6378(3) 0.8209(12) 0.5548(7)
C24_5 C 0.2964(3) 0.2866(7) 0.0614(6)
C25_5 C 0.2917(3) 0.4171(8) 0.0590(6)
H12_5 H 0.2902 0.4607 0.1124
C27_5 C 0.2962(3) 0.2241(9) 0.1517(6)
N1_5 N 0.3858(3) 0.9651(9) 0.2140(6)
N2_5 N 0.3720(3) 0.7213(8) 0.2045(6)
N3_5 N 0.5103(3) 0.8931(10) 0.3865(7)
N4_5 N 0.4944(3) 0.6364(9) 0.3823(8)
O1_5 O 0.6536(2) 0.7648(7) 0.6260(4)
O2_3 O 0.6527(2) 0.9095(9) 0.5206(5)
O4_5 O 0.2985(3) 0.6771(6) 0.0400(5)
O10_3 O 0.7323(2) 0.6596(6) 0.6007(5)
C20_5 C 0.2892(3) 0.4783(8) 0.9767(6)
C21_5 C 0.2918(3) 0.4147(9) 0.8980(6)
H10_5 H 0.2901 0.4568 0.8431
C22_5 C 0.2972(3) 0.2858(8) 0.8998(6)
C23_5 C 0.3000(3) 0.2235(8) 0.9826(6)
H11_5 H 0.3043 0.1390 0.9846
C26_5 C 0.2852(3) 0.6155(8) 0.9734(6)
C28_5 C 0.2999(3) 0.2214(9) 0.8134(6)
O3_3 O 0.2677(2) 0.6596(6) 0.8993(5)
O9_3 O 0.3473(2) 0.9095(9) 0.9794(5)
C1_6 C 0.6077(4) 0.0852(11) 0.2815(9)
H1_6 H 0.6266 0.1378 0.3099
C2_6 C 0.5739(4) 0.1366(12) 0.2364(12)
H2_6 H 0.5705 0.2215 0.2335
C3_6 C 0.5461(4) 0.0594(11) 0.1969(9)
H3_6 H 0.5228 0.0918 0.1690
C4_6 C 0.5516(3) 0.9331(10) 0.1972(7)
C5_6 C 0.5230(3) 0.8471(10) 0.1533(7)
C6_6 C 0.5308(3) 0.7204(11) 0.1586(8)
C7_6 C 0.5669(4) 0.6736(11) 0.2069(9)
C8_6 C 0.5772(4) 0.5489(11) 0.2078(9)
H4_6 H 0.5605 0.4912 0.1775
C9_6 C 0.6121(4) 0.5121(11) 0.2536(10)
H5_6 H 0.6193 0.4296 0.2550
C10_6 C 0.6360(4) 0.5994(11) 0.2970(9)
H6_6 H 0.6592 0.5734 0.3297
C11_6 C 0.5944(3) 0.7576(10) 0.2495(7)
C12_6 C 0.5870(3) 0.8897(10) 0.2449(7)
C13_6 C 0.4639(4) 0.8108(12) 0.0722(8)
C14_6 C 0.4276(4) 0.8531(12) 0.0296(8)
H7_6 H 0.4220 0.9368 0.0308
C17_6 C 0.4431(4) 0.6040(13) 0.0294(11)
H9_6 H 0.4474 0.5195 0.0313
C18_6 C 0.4720(4) 0.6837(13) 0.0720(9)
C20_6 C 0.7108(3) 0.4783(8) 0.5233(6)
C21_6 C 0.7082(3) 0.4147(9) 0.6020(6)
H10_6 H 0.7099 0.4568 0.6569
C22_6 C 0.7028(3) 0.2858(8) 0.6002(6)
C23_6 C 0.7000(3) 0.2235(8) 0.5174(6)
H11_6 H 0.6957 0.1390 0.5154
C24_6 C 0.7036(3) 0.2866(7) 0.4386(6)
C25_6 C 0.7083(3) 0.4171(8) 0.4410(6)
H12_6 H 0.7098 0.4607 0.3876
C26_6 C 0.7148(3) 0.6155(8) 0.5266(6)
C27_6 C 0.7038(3) 0.2241(9) 0.3483(6)
C28_6 C 0.7001(3) 0.2214(9) 0.6866(6)
N1_6 N 0.6142(3) 0.9651(9) 0.2860(6)
N2_6 N 0.6280(3) 0.7213(8) 0.2955(6)
N3_6 N 0.4897(3) 0.8931(10) 0.1135(7)
N4_6 N 0.5056(3) 0.6364(9) 0.1177(8)
O4_6 O 0.7015(3) 0.6771(6) 0.4600(5)
C15_6 C 0.4009(4) 0.7759(12) 0.9877(7)
C16_6 C 0.4084(4) 0.6483(13) 0.9847(10)
H8_6 H 0.3905 0.5950 0.9533
C19_6 C 0.3622(3) 0.8209(12) 0.9452(7)
O1_6 O 0.3464(2) 0.7648(7) 0.8740(4)
C13_7 C 0.0361(4) 0.3108(12) 0.4278(8)
C14_7 C 0.0724(4) 0.3531(12) 0.4704(8)
H7_7 H 0.0780 0.4368 0.4692
C15_7 C 0.0991(4) 0.2759(12) 0.5123(7)
C16_7 C 0.0916(4) 0.1483(13) 0.5153(10)
H8_7 H 0.1095 0.0950 0.5467
C17_7 C 0.0569(4) 0.1040(13) 0.4706(11)
H9_7 H 0.0526 0.0195 0.4687
C18_7 C 0.0280(4) 0.1837(13) 0.4280(9)
C19_7 C 0.1378(3) 0.3209(12) 0.5548(7)
N3_7 N 0.0103(3) 0.3931(10) 0.3865(7)
O1_7 O 0.1536(2) 0.2648(7) 0.6260(4)
O2_4 O 0.1527(2) 0.4095(9) 0.5206(5)
O10_4 O 0.2323(2) 0.1596(6) 0.6007(5)
C1_7 C 0.8923(4) 0.5852(11) 0.2185(9)
H1_7 H 0.8734 0.6378 0.1901
C2_7 C 0.9261(4) 0.6366(12) 0.2636(12)
H2_7 H 0.9295 0.7215 0.2665
C3_7 C 0.9539(4) 0.5594(11) 0.3031(9)
H3_7 H 0.9772 0.5918 0.3310
C4_7 C 0.9484(3) 0.4331(10) 0.3028(7)
C5_7 C 0.9770(3) 0.3471(10) 0.3467(7)
C6_7 C 0.9692(3) 0.2204(11) 0.3414(8)
C7_7 C 0.9331(4) 0.1736(11) 0.2931(9)
C8_7 C 0.9228(4) 0.0489(11) 0.2922(9)
C9_7 C 0.8879(4) 0.0121(11) 0.2464(10)
C10_7 C 0.8640(4) 0.0994(11) 0.2030(9)
H6_7 H 0.8408 0.0734 0.1703
C11_7 C 0.9056(3) 0.2576(10) 0.2505(7)
C12_7 C 0.9130(3) 0.3897(10) 0.2551(7)
N1_7 N 0.8858(3) 0.4651(9) 0.2140(6)
N2_7 N 0.8720(3) 0.2213(8) 0.2045(6)
N4_7 N 0.9944(3) 0.1364(9) 0.3823(8)
O4_7 O 0.7985(3) 0.1771(6) 0.0400(5)
C26_7 C 0.7852(3) 0.1155(8) 0.9734(6)
O3_4 O 0.7677(2) 0.1596(6) 0.8993(5)
O9_4 O 0.8473(2) 0.4095(9) 0.9794(5)
H4_7 H 0.9395 0.9912 0.3225
H5_7 H 0.8807 0.9296 0.2450
C24_7 C 0.7964(3) 0.7866(7) 0.0614(6)
C25_7 C 0.7917(3) 0.9171(8) 0.0590(6)
H12_7 H 0.7902 0.9607 0.1124
C27_7 C 0.7962(3) 0.7241(9) 0.1517(6)
C20_7 C 0.7892(3) 0.9783(8) 0.9767(6)
C21_7 C 0.7918(3) 0.9147(9) 0.8980(6)
H10_7 H 0.7901 0.9568 0.8431
C22_7 C 0.7972(3) 0.7858(8) 0.8998(6)
C23_7 C 0.8000(3) 0.7235(8) 0.9826(6)
H11_7 H 0.8043 0.6390 0.9846
C28_7 C 0.7999(3) 0.7214(9) 0.8134(6)
C1_8 C 0.1077(4) 0.5852(11) 0.2815(9)
H1_8 H 0.1266 0.6378 0.3099
C2_8 C 0.0739(4) 0.6366(12) 0.2364(12)
H2_8 H 0.0705 0.7215 0.2335
C3_8 C 0.0461(4) 0.5594(11) 0.1969(9)
H3_8 H 0.0228 0.5918 0.1690
C4_8 C 0.0516(3) 0.4331(10) 0.1972(7)
C5_8 C 0.0230(3) 0.3471(10) 0.1533(7)
C6_8 C 0.0308(3) 0.2204(11) 0.1586(8)
C7_8 C 0.0669(4) 0.1736(11) 0.2069(9)
C8_8 C 0.0772(4) 0.0489(11) 0.2078(9)
C9_8 C 0.1121(4) 0.0121(11) 0.2536(10)
C10_8 C 0.1360(4) 0.0994(11) 0.2970(9)
H6_8 H 0.1592 0.0734 0.3297
C11_8 C 0.0944(3) 0.2576(10) 0.2495(7)
C12_8 C 0.0870(3) 0.3897(10) 0.2449(7)
C26_8 C 0.2148(3) 0.1155(8) 0.5266(6)
N1_8 N 0.1142(3) 0.4651(9) 0.2860(6)
N2_8 N 0.1280(3) 0.2213(8) 0.2955(6)
N4_8 N 0.0056(3) 0.1364(9) 0.1177(8)
O4_8 O 0.2015(3) 0.1771(6) 0.4600(5)
H4_8 H 0.0605 0.9912 0.1775
H5_8 H 0.1193 0.9296 0.2550
C20_8 C 0.2108(3) 0.9783(8) 0.5233(6)
C21_8 C 0.2082(3) 0.9147(9) 0.6020(6)
H10_8 H 0.2099 0.9568 0.6569
C22_8 C 0.2028(3) 0.7858(8) 0.6002(6)
C23_8 C 0.2000(3) 0.7235(8) 0.5174(6)
H11_8 H 0.1957 0.6390 0.5154
C24_8 C 0.2036(3) 0.7866(7) 0.4386(6)
C25_8 C 0.2083(3) 0.9171(8) 0.4410(6)
H12_8 H 0.2098 0.9607 0.3876
C27_8 C 0.2038(3) 0.7241(9) 0.3483(6)
C28_8 C 0.2001(3) 0.7214(9) 0.6866(6)
C13_8 C 0.9639(4) 0.3108(12) 0.0722(8)
C14_8 C 0.9276(4) 0.3531(12) 0.0296(8)
H7_8 H 0.9220 0.4368 0.0308
C17_8 C 0.9431(4) 0.1040(13) 0.0294(11)
H9_8 H 0.9474 0.0195 0.0313
C18_8 C 0.9720(4) 0.1837(13) 0.0720(9)
N3_8 N 0.9897(3) 0.3931(10) 0.1135(7)
C15_8 C 0.9009(4) 0.2759(12) 0.9877(7)
C16_8 C 0.9084(4) 0.1483(13) 0.9847(10)
H8_8 H 0.8905 0.0950 0.9533
C19_8 C 0.8622(3) 0.3209(12) 0.9452(7)
O1_8 O 0.8464(2) 0.2648(7) 0.8740(4)
loop_
_geom_bond_atom_site_label_1
_geom_bond_atom_site_label_2
_geom_bond_site_symmetry_1
_geom_bond_site_symmetry_2
C20 C21 1_555 1_555
C21 H10 1_555 1_555
C22 C21 1_555 1_555
C23 C22 1_555 1_555
H11 C23 1_555 1_555
C26 C20 1_555 1_555
C28 C22 1_555 1_555
O3 C26 1_555 1_555
O7 C28 1_555 1_555
O8 C28 1_555 1_555
Pb5 O7 1_555 1_555
Pb6 O3 1_555 1_555
Pb8 O7 1_555 1_555
O8 Pb5 1_555 1_555
C5 C4 1_555 1_555
C6 C5 1_555 1_555
C7 C6 1_555 1_555
C8 C7 1_555 1_555
H4 C8 1_555 1_555
C9 C8 1_555 1_555
H5 C9 1_555 1_555
C10 C9 1_555 1_555
H6 C10 1_555 1_555
C11 C7 1_555 1_555
C12 C4 1_555 1_555
C13 C14 1_555 1_555
C14 H7 1_555 1_555
C15 C14 1_555 1_555
C16 C15 1_555 1_555
H8 C16 1_555 1_555
C17 C16 1_555 1_555
H9 C17 1_555 1_555
C18 C13 1_555 1_555
C19 C15 1_555 1_555
H12 C25 1_555 1_555
C27 C24 1_555 1_555
N2 C10 1_555 1_555
N3 C5 1_555 1_555
N4 C6 1_555 1_555
O1 C19 1_555 1_555
O2 C19 1_555 1_555
O5 C27 1_555 1_555
O6 C27 1_555 1_555
Pb4 N1 1_555 1_555
Pb2 O1 1_555 1_555
O10 Pb2 1_555 1_555
O11 Pb2 1_555 1_555
O13 Pb2 1_555 1_555
O14 Pb4 1_555 1_555
O15 Pb2 1_555 1_555
O16 Pb4 1_555 1_555
Pb3 O2 1_555 1_555
Pb7 O5 1_555 1_555
C11 C12 1_555 1_555
C11 N2 1_555 1_555
C12 N1 1_555 1_555
C13 N3 1_555 1_555
C17 C18 1_555 1_555
C18 N4 1_555 1_555
C24 C25 1_555 1_555
N2 Pb4 1_555 1_555
O4 Pb4 1_555 1_555
O6 Pb7 1_555 1_555
C1 H1 1_555 1_555
C2 C1 1_555 1_555
H2 C2 1_555 1_555
C3 C2 1_555 1_555
H3 C3 1_555 1_555
C16_2 C15_2 1_555 1_555
H8_2 C16_2 1_555 1_555
C19_2 C15_2 1_555 1_555
O1_2 C19_2 1_555 1_555
O9 C19_2 1_555 1_555
Pb6 O1_2 1_555 1_555
O11_2 Pb6 1_555 1_555
O13_2 Pb6 1_555 1_555
O15_2 Pb6 1_555 1_555
C5_2 C4_2 1_555 1_555
C6_2 C5_2 1_555 1_555
C7_2 C6_2 1_555 1_555
C8_2 C7_2 1_555 1_555
H4_2 C8_2 1_555 1_555
C9_2 C8_2 1_555 1_555
H5_2 C9_2 1_555 1_555
C10_2 C9_2 1_555 1_555
H6_2 C10_2 1_555 1_555
C11_2 C7_2 1_555 1_555
C12_2 C4_2 1_555 1_555
C13_2 C14_2 1_555 1_555
C14_2 H7_2 1_555 1_555
H9_2 C17_2 1_555 1_555
C18_2 C13_2 1_555 1_555
C20_2 C21_2 1_555 1_555
C21_2 H10_2 1_555 1_555
C22_2 C21_2 1_555 1_555
C23_2 C22_2 1_555 1_555
H11_2 C23_2 1_555 1_555
C24_2 C23_2 1_555 1_555
C25_2 C20_2 1_555 1_555
H12_2 C25_2 1_555 1_555
C26_2 C20_2 1_555 1_555
C27_2 C24_2 1_555 1_555
C28_2 C22_2 1_555 1_555
N2_2 C10_2 1_555 1_555
N3_2 C5_2 1_555 1_555
N4_2 C6_2 1_555 1_555
O10 C26_2 1_555 1_555
O4_2 C26_2 1_555 1_555
O5_2 C27_2 1_555 1_555
O6_2 C27_2 1_555 1_555
O7_2 C28_2 1_555 1_555
O8_2 C28_2 1_555 1_555
Pb3 N1_2 1_555 1_555
O14_2 Pb3 1_555 1_555
O16_2 Pb3 1_555 1_555
Pb5_2 O7_2 1_555 1_555
Pb7_2 O5_2 1_555 1_555
Pb8_2 O7_2 1_555 1_555
C11_2 C12_2 1_555 1_555
C11_2 N2_2 1_555 1_555
C12_2 N1_2 1_555 1_555
C13_2 N3_2 1_555 1_555
C17_2 C18_2 1_555 1_555
C18_2 N4_2 1_555 1_555
C24_2 C25_2 1_555 1_555
N2_2 Pb3 1_555 1_555
O4_2 Pb3 1_555 1_555
O6_2 Pb7_2 1_555 1_555
O8_2 Pb5_2 1_555 1_555
C1_2 H1_2 1_555 1_555
C2_2 C1_2 1_555 1_555
H2_2 C2_2 1_555 1_555
C3_2 C2_2 1_555 1_555
H3_2 C3_2 1_555 1_555
C20_3 C21_3 1_555 1_555
C21_3 H10_3 1_555 1_555
C22_3 C21_3 1_555 1_555
C23_3 C22_3 1_555 1_555
H11_3 C23_3 1_555 1_555
C28_3 C22_3 1_555 1_555
O15 C28_3 1_555 1_555
O8_3 C28_3 1_555 1_555
Pb5_3 O15 1_555 1_555
O8_3 Pb5_3 1_555 1_555
H12_3 C25_3 1_555 1_555
C27_3 C24_3 1_555 1_555
O5_3 C27_3 1_555 1_555
O6_3 C27_3 1_555 1_555
Pb4_2 O6_3 1_555 1_555
Pb7_3 O5_3 1_555 1_555
C24_3 C25_3 1_555 1_555
O6_3 Pb7_3 1_555 1_555
O3_2 C26_3 1_555 1_555
Pb8_2 O3_2 1_555 1_555
C1_3 H1_3 1_555 1_555
C2_3 C1_3 1_555 1_555
H2_3 C2_3 1_555 1_555
C3_3 C2_3 1_555 1_555
H3_3 C3_3 1_555 1_555
C4_3 C3_3 1_555 1_555
C5_3 C4_3 1_555 1_555
C6_3 C5_3 1_555 1_555
C7_3 C6_3 1_555 1_555
C8_3 C7_3 1_555 1_555
C9_3 C8_3 1_555 1_555
C10_3 C9_3 1_555 1_555
H6_3 C10_3 1_555 1_555
C11_3 C7_3 1_555 1_555
C12_3 C4_3 1_555 1_555
N1_3 C1_3 1_555 1_555
N2_3 C10_3 1_555 1_555
N4_3 C6_3 1_555 1_555
Pb4_2 N1_3 1_555 1_555
O14_3 Pb4_2 1_555 1_555
O16_3 Pb4_2 1_555 1_555
C11_3 C12_3 1_555 1_555
C11_3 N2_3 1_555 1_555
C12_3 N1_3 1_555 1_555
N2_3 Pb4_2 1_555 1_555
O4_3 Pb4_2 1_555 1_555
C13_3 C14_3 1_555 1_555
C14_3 H7_3 1_555 1_555
C15_3 C14_3 1_555 1_555
C16_3 C15_3 1_555 1_555
H8_3 C16_3 1_555 1_555
C17_3 C16_3 1_555 1_555
H9_3 C17_3 1_555 1_555
C18_3 C13_3 1_555 1_555
C19_3 C15_3 1_555 1_555
O1_3 C19_3 1_555 1_555
O2_2 C19_3 1_555 1_555
Pb8 O1_3 1_555 1_555
O10_2 Pb8 1_555 1_555
O11_3 Pb8 1_555 1_555
O13_3 Pb8 1_555 1_555
Pb3_2 O2_2 1_555 1_555
C13_3 N3_3 1_555 1_555
C17_3 C18_3 1_555 1_555
C16_4 C15_4 1_555 1_555
H8_4 C16_4 1_555 1_555
C19_4 C15_4 1_555 1_555
O1_4 C19_4 1_555 1_555
O9_2 C19_4 1_555 1_555
Pb8_2 O1_4 1_555 1_555
O11_4 Pb8_2 1_555 1_555
O13_4 Pb8_2 1_555 1_555
C13_4 C14_4 1_555 1_555
C14_4 H7_4 1_555 1_555
H9_4 C17_4 1_555 1_555
C18_4 C13_4 1_555 1_555
C13_4 N3_4 1_555 1_555
C17_4 C18_4 1_555 1_555
C20_4 C21_4 1_555 1_555
C21_4 H10_4 1_555 1_555
C22_4 C21_4 1_555 1_555
C23_4 C22_4 1_555 1_555
H11_4 C23_4 1_555 1_555
C24_4 C23_4 1_555 1_555
C25_4 C20_4 1_555 1_555
H12_4 C25_4 1_555 1_555
C27_4 C24_4 1_555 1_555
C28_4 C22_4 1_555 1_555
O5_4 C27_4 1_555 1_555
O6_4 C27_4 1_555 1_555
O15_2 C28_4 1_555 1_555
O8_4 C28_4 1_555 1_555
Pb3_2 O6_4 1_555 1_555
Pb5_4 O15_2 1_555 1_555
Pb7_4 O5_4 1_555 1_555
C24_4 C25_4 1_555 1_555
O6_4 Pb7_4 1_555 1_555
O8_4 Pb5_4 1_555 1_555
C1_4 H1_4 1_555 1_555
C2_4 C1_4 1_555 1_555
H2_4 C2_4 1_555 1_555
C3_4 C2_4 1_555 1_555
H3_4 C3_4 1_555 1_555
C4_4 C3_4 1_555 1_555
C5_4 C4_4 1_555 1_555
C6_4 C5_4 1_555 1_555
C7_4 C6_4 1_555 1_555
C8_4 C7_4 1_555 1_555
C9_4 C8_4 1_555 1_555
C10_4 C9_4 1_555 1_555
H6_4 C10_4 1_555 1_555
C11_4 C7_4 1_555 1_555
C12_4 C4_4 1_555 1_555
N1_4 C1_4 1_555 1_555
N2_4 C10_4 1_555 1_555
N4_4 C6_4 1_555 1_555
O10_2 C26_4 1_555 1_555
O4_4 C26_4 1_555 1_555
Pb3_2 N1_4 1_555 1_555
O14_4 Pb3_2 1_555 1_555
O16_4 Pb3_2 1_555 1_555
C11_4 C12_4 1_555 1_555
C11_4 N2_4 1_555 1_555
C12_4 N1_4 1_555 1_555
N2_4 Pb3_2 1_555 1_555
O4_4 Pb3_2 1_555 1_555
C1_5 H1_5 1_555 1_555
C2_5 C1_5 1_555 1_555
H2_5 C2_5 1_555 1_555
C3_5 C2_5 1_555 1_555
H3_5 C3_5 1_555 1_555
C5_5 C4_5 1_555 1_555
C6_5 C5_5 1_555 1_555
C7_5 C6_5 1_555 1_555
C8_5 C7_5 1_555 1_555
H4_5 C8_5 1_555 1_555
C9_5 C8_5 1_555 1_555
H5_5 C9_5 1_555 1_555
C10_5 C9_5 1_555 1_555
H6_5 C10_5 1_555 1_555
C11_5 C7_5 1_555 1_555
C12_5 C4_5 1_555 1_555
C13_5 C14_5 1_555 1_555
C14_5 H7_5 1_555 1_555
C15_5 C14_5 1_555 1_555
C16_5 C15_5 1_555 1_555
H8_5 C16_5 1_555 1_555
C17_5 C16_5 1_555 1_555
H9_5 C17_5 1_555 1_555
C18_5 C13_5 1_555 1_555
C19_5 C15_5 1_555 1_555
H12_5 C25_5 1_555 1_555
C27_5 C24_5 1_555 1_555
N2_5 C10_5 1_555 1_555
N3_5 C5_5 1_555 1_555
N4_5 C6_5 1_555 1_555
O1_5 C19_5 1_555 1_555
O2_3 C19_5 1_555 1_555
O11 C27_5 1_555 1_555
O13 C27_5 1_555 1_555
Pb5_2 N1_5 1_555 1_555
Pb7 O1_5 1_555 1_555
O10_3 Pb7 1_555 1_555
O14_4 Pb7 1_555 1_555
Pb5 O2_3 1_555 1_555
C11_5 C12_5 1_555 1_555
C11_5 N2_5 1_555 1_555
C12_5 N1_5 1_555 1_555
C13_5 N3_5 1_555 1_555
C17_5 C18_5 1_555 1_555
C18_5 N4_5 1_555 1_555
C24_5 C25_5 1_555 1_555
N2_5 Pb5_2 1_555 1_555
O4_5 Pb5_2 1_555 1_555
C20_5 C21_5 1_555 1_555
C21_5 H10_5 1_555 1_555
C22_5 C21_5 1_555 1_555
C23_5 C22_5 1_555 1_555
H11_5 C23_5 1_555 1_555
C26_5 C20_5 1_555 1_555
C28_5 C22_5 1_555 1_555
O3_3 C26_5 1_555 1_555
O14_2 C28_5 1_555 1_555
O16_2 C28_5 1_555 1_555
Pb7_2 O3_3 1_555 1_555
Pb7_3 O14_2 1_555 1_555
C1_6 H1_6 1_555 1_555
C2_6 C1_6 1_555 1_555
H2_6 C2_6 1_555 1_555
C3_6 C2_6 1_555 1_555
H3_6 C3_6 1_555 1_555
C5_6 C4_6 1_555 1_555
C6_6 C5_6 1_555 1_555
C7_6 C6_6 1_555 1_555
C8_6 C7_6 1_555 1_555
H4_6 C8_6 1_555 1_555
C9_6 C8_6 1_555 1_555
H5_6 C9_6 1_555 1_555
C10_6 C9_6 1_555 1_555
H6_6 C10_6 1_555 1_555
C11_6 C7_6 1_555 1_555
C12_6 C4_6 1_555 1_555
C13_6 C14_6 1_555 1_555
C14_6 H7_6 1_555 1_555
H9_6 C17_6 1_555 1_555
C18_6 C13_6 1_555 1_555
C20_6 C21_6 1_555 1_555
C21_6 H10_6 1_555 1_555
C22_6 C21_6 1_555 1_555
C23_6 C22_6 1_555 1_555
H11_6 C23_6 1_555 1_555
C24_6 C23_6 1_555 1_555
C25_6 C20_6 1_555 1_555
H12_6 C25_6 1_555 1_555
C26_6 C20_6 1_555 1_555
C27_6 C24_6 1_555 1_555
C28_6 C22_6 1_555 1_555
N2_6 C10_6 1_555 1_555
N3_6 C5_6 1_555 1_555
N4_6 C6_6 1_555 1_555
O10_3 C26_6 1_555 1_555
O4_6 C26_6 1_555 1_555
O11_2 C27_6 1_555 1_555
O13_2 C27_6 1_555 1_555
O14 C28_6 1_555 1_555
O16 C28_6 1_555 1_555
Pb5 N1_6 1_555 1_555
Pb7_4 O14 1_555 1_555
C11_6 C12_6 1_555 1_555
C11_6 N2_6 1_555 1_555
C12_6 N1_6 1_555 1_555
C13_6 N3_6 1_555 1_555
C17_6 C18_6 1_555 1_555
C18_6 N4_6 1_555 1_555
C24_6 C25_6 1_555 1_555
N2_6 Pb5 1_555 1_555
O4_6 Pb5 1_555 1_555
C16_6 C15_6 1_555 1_555
H8_6 C16_6 1_555 1_555
C19_6 C15_6 1_555 1_555
O1_6 C19_6 1_555 1_555
O9_3 C19_6 1_555 1_555
Pb7_2 O1_6 1_555 1_555
O14_3 Pb7_2 1_555 1_555
C13_7 C14_7 1_555 1_555
C14_7 H7_7 1_555 1_555
C15_7 C14_7 1_555 1_555
C16_7 C15_7 1_555 1_555
H8_7 C16_7 1_555 1_555
C17_7 C16_7 1_555 1_555
H9_7 C17_7 1_555 1_555
C18_7 C13_7 1_555 1_555
C19_7 C15_7 1_555 1_555
O1_7 C19_7 1_555 1_555
O2_4 C19_7 1_555 1_555
Pb7_3 O1_7 1_555 1_555
O10_4 Pb7_3 1_555 1_555
Pb5_3 O2_4 1_555 1_555
C13_7 N3_7 1_555 1_555
C17_7 C18_7 1_555 1_555
C1_7 H1_7 1_555 1_555
C2_7 C1_7 1_555 1_555
H2_7 C2_7 1_555 1_555
C3_7 C2_7 1_555 1_555
H3_7 C3_7 1_555 1_555
C4_7 C3_7 1_555 1_555
C5_7 C4_7 1_555 1_555
C6_7 C5_7 1_555 1_555
C7_7 C6_7 1_555 1_555
C8_7 C7_7 1_555 1_555
C9_7 C8_7 1_555 1_555
C10_7 C9_7 1_555 1_555
H6_7 C10_7 1_555 1_555
C11_7 C7_7 1_555 1_555
C12_7 C4_7 1_555 1_555
N1_7 C1_7 1_555 1_555
N2_7 C10_7 1_555 1_555
N4_7 C6_7 1_555 1_555
Pb5_4 N1_7 1_555 1_555
O13_3 Pb5_4 1_555 1_555
C11_7 C12_7 1_555 1_555
C11_7 N2_7 1_555 1_555
C12_7 N1_7 1_555 1_555
N2_7 Pb5_4 1_555 1_555
O4_7 Pb5_4 1_555 1_555
O3_4 C26_7 1_555 1_555
Pb7_4 O3_4 1_555 1_555
H12_7 C25_7 1_555 1_555
C27_7 C24_7 1_555 1_555
O11_3 C27_7 1_555 1_555
O13_3 C27_7 1_555 1_555
C24_7 C25_7 1_555 1_555
C20_7 C21_7 1_555 1_555
C21_7 H10_7 1_555 1_555
C22_7 C21_7 1_555 1_555
C23_7 C22_7 1_555 1_555
H11_7 C23_7 1_555 1_555
C28_7 C22_7 1_555 1_555
O14_4 C28_7 1_555 1_555
O16_4 C28_7 1_555 1_555
C1_8 H1_8 1_555 1_555
C2_8 C1_8 1_555 1_555
H2_8 C2_8 1_555 1_555
C3_8 C2_8 1_555 1_555
H3_8 C3_8 1_555 1_555
C4_8 C3_8 1_555 1_555
C5_8 C4_8 1_555 1_555
C6_8 C5_8 1_555 1_555
C7_8 C6_8 1_555 1_555
C8_8 C7_8 1_555 1_555
C9_8 C8_8 1_555 1_555
C10_8 C9_8 1_555 1_555
H6_8 C10_8 1_555 1_555
C11_8 C7_8 1_555 1_555
C12_8 C4_8 1_555 1_555
N1_8 C1_8 1_555 1_555
N2_8 C10_8 1_555 1_555
N4_8 C6_8 1_555 1_555
O10_4 C26_8 1_555 1_555
O4_8 C26_8 1_555 1_555
Pb5_3 N1_8 1_555 1_555
O13_4 Pb5_3 1_555 1_555
C11_8 C12_8 1_555 1_555
C11_8 N2_8 1_555 1_555
C12_8 N1_8 1_555 1_555
N2_8 Pb5_3 1_555 1_555
O4_8 Pb5_3 1_555 1_555
C20_8 C21_8 1_555 1_555
C21_8 H10_8 1_555 1_555
C22_8 C21_8 1_555 1_555
C23_8 C22_8 1_555 1_555
H11_8 C23_8 1_555 1_555
C24_8 C23_8 1_555 1_555
C25_8 C20_8 1_555 1_555
H12_8 C25_8 1_555 1_555
C27_8 C24_8 1_555 1_555
C28_8 C22_8 1_555 1_555
O11_4 C27_8 1_555 1_555
O13_4 C27_8 1_555 1_555
O14_3 C28_8 1_555 1_555
O16_3 C28_8 1_555 1_555
C24_8 C25_8 1_555 1_555
C13_8 C14_8 1_555 1_555
C14_8 H7_8 1_555 1_555
H9_8 C17_8 1_555 1_555
C18_8 C13_8 1_555 1_555
C13_8 N3_8 1_555 1_555
C17_8 C18_8 1_555 1_555
C16_8 C15_8 1_555 1_555
H8_8 C16_8 1_555 1_555
C19_8 C15_8 1_555 1_555
O1_8 C19_8 1_555 1_555
O9_4 C19_8 1_555 1_555
Pb7_4 O1_8 1_555 1_555

#END
