
###############################################################################
#
# This file contains modified crystal structure data generated from the
# MOF subset of the Cambridge Structural Database (CSD) v543 
# hosted by the Cambridge Crystallographic Data Centre (CCDC).
#
# This work is licensed under the Creative Commons
# Attribution-NonCommercial-ShareAlike 4.0 International License.
# To view a copy of this license, visit
# http://creativecommons.org/licenses/by-nc-sa/4.0/
# or send a letter to
# Creative Commons, PO Box 1866, Mountain View, CA 94042, USA.
#
# CIF created using the CSD Python API on 29 September 2022
# The structure has been converted into the P1 space group
# The structure has a 3D framework
# The original CSD entry EXOYIA is in the monoclinic crystal system
# The framework has been calculated to contain at least 10.0% void space
# The void calculation uses a probe of radius 1.32A, grid spacing 0.4
#
###############################################################################

data_EXOYIA
_chemical_formula_moiety         '(C196 H116 Eu8 N16 O48)n'
_symmetry_cell_setting           triclinic
_symmetry_space_group_name_H-M   'P 1'
_symmetry_Int_Tables_number      1
_space_group_name_Hall           'P 1'
loop_
_symmetry_equiv_pos_site_id
_symmetry_equiv_pos_as_xyz
1 x,y,z
_cell_length_a                   24.000(6)
_cell_length_b                   16.020(6)
_cell_length_c                   11.832(4)
_cell_angle_alpha                90
_cell_angle_beta                 90.008(15)
_cell_angle_gamma                90
_cell_volume                     4549.17
loop_
_atom_site_label
_atom_site_type_symbol
_atom_site_fract_x
_atom_site_fract_y
_atom_site_fract_z
Eu1 Eu 0.168549(5) 0.217301(7) 0.512067(10)
O1 O 0.22357(8) 0.16235(12) 0.66045(17)
O2 O 0.30735(9) 0.22386(11) 0.66403(17)
O5 O 0.10052(9) 0.32783(12) 0.47323(18)
O6 O 0.07851(9) 0.20487(12) 0.40482(19)
N1 N 0.11019(11) 0.24780(18) 0.6901(2)
N2 N 0.12130(10) 0.08882(16) 0.6117(2)
C1 C 0.29292(11) 0.10721(16) 0.7821(2)
C2 C 0.34410(13) 0.11992(19) 0.8349(3)
H1 H 0.3648 0.1675 0.8183
C3 C 0.36449(14) 0.0625(2) 0.9116(3)
H2 H 0.3985 0.0719 0.9469
C6 C 0.26200(11) 0.03616(16) 0.8080(2)
H4 H 0.2273 0.0280 0.7750
C7 C 0.27275(12) 0.16954(16) 0.6957(2)
C9 C 0.0000 0.2829(2) 0.2500
H5 H 0.0000 0.2249 0.2500
C10 C 0.03314(11) 0.32593(17) 0.3268(2)
C11 C 0.03233(17) 0.4126(2) 0.3265(4)
H6 H 0.0538 0.4418 0.3786
C12 C 0.0000 0.4556(3) 0.2500
H7 H 0.0000 0.5136 0.2500
C13 C 0.07261(12) 0.28337(15) 0.4072(2)
C14 C 0.10322(17) 0.3254(2) 0.7263(3)
H8 H 0.1191 0.3685 0.6847
C15 C 0.0732(2) 0.3458(3) 0.8234(3)
H9 H 0.0696 0.4011 0.8457
C16 C 0.0495(2) 0.2842(3) 0.8846(4)
H10 H 0.0291 0.2971 0.9491
C17 C 0.05564(16) 0.2011(3) 0.8508(3)
C18 C 0.03366(19) 0.1318(4) 0.9127(4)
H11 H 0.0124 0.1416 0.9771
C19 C 0.04305(19) 0.0537(4) 0.8796(4)
H12 H 0.0290 0.0100 0.9227
C20 C 0.07432(16) 0.0350(3) 0.7792(3)
C23 C 0.12954(16) 0.0104(2) 0.5789(3)
H15 H 0.1475 0.0008 0.5105
C24 C 0.09484(13) 0.1018(2) 0.7124(3)
C25 C 0.08692(13) 0.1852(2) 0.7510(3)
Eu2 Eu 0.331451(5) 0.282699(7) 0.487933(10)
Eu7 Eu 0.168549(5) 0.782699(7) 0.012067(10)
O7 O 0.27643(8) 0.33765(12) 0.33955(17)
O8 O 0.19265(9) 0.27614(11) 0.33597(17)
O9 O 0.30140(9) 0.59867(12) 0.09375(18)
O10 O 0.19860(9) 0.09867(12) 0.40625(18)
O11 O 0.30140(9) 0.40133(12) 0.59375(18)
O12 O 0.22247(9) 0.66539(12) 0.05899(18)
O13 O 0.27753(9) 0.16539(12) 0.44101(18)
O14 O 0.22247(9) 0.33461(12) 0.55899(18)
O16 O 0.39948(9) 0.17217(12) 0.52677(18)
O18 O 0.42149(9) 0.29513(12) 0.59518(19)
N3 N 0.38981(11) 0.25220(18) 0.3099(2)
N4 N 0.37870(10) 0.41118(16) 0.3883(2)
C26 C 0.20708(11) 0.39279(16) 0.2179(2)
C27 C 0.15590(13) 0.38008(19) 0.1651(3)
H16 H 0.1352 0.3325 0.1817
C28 C 0.13551(14) 0.4375(2) 0.0884(3)
H17 H 0.1015 0.4281 0.0531
C29 C 0.16566(14) 0.50905(19) 0.0639(3)
H18 H 0.1518 0.5478 0.0125
C30 C 0.21688(12) 0.52278(16) 0.1166(2)
C31 C 0.23800(11) 0.46384(16) 0.1920(2)
H19 H 0.2727 0.4720 0.2250
C32 C 0.22725(12) 0.33046(16) 0.3043(2)
C33 C 0.24911(12) 0.60064(16) 0.0895(2)
C37 C 0.39678(17) 0.1746(2) 0.2737(3)
H21 H 0.3809 0.1315 0.3153
C38 C 0.4268(2) 0.1542(3) 0.1766(3)
H22 H 0.4304 0.0989 0.1543
C39 C 0.4505(2) 0.2158(3) 0.1154(4)
H23 H 0.4709 0.2029 0.0509
C40 C 0.44436(16) 0.2989(3) 0.1492(3)
C41 C 0.46634(19) 0.3682(4) 0.0873(4)
H24 H 0.4876 0.3584 0.0229
C42 C 0.45695(19) 0.4463(4) 0.1204(4)
H25 H 0.4710 0.4900 0.0773
C43 C 0.42568(16) 0.4650(3) 0.2208(3)
C44 C 0.41516(19) 0.5459(3) 0.2579(4)
H26 H 0.4269 0.5912 0.2147
C45 C 0.38793(19) 0.5590(2) 0.3564(4)
H27 H 0.3808 0.6130 0.3812
C46 C 0.37046(16) 0.4896(2) 0.4211(3)
H28 H 0.3525 0.4992 0.4895
C47 C 0.40516(13) 0.3982(2) 0.2876(3)
C48 C 0.41308(13) 0.3148(2) 0.2490(3)
Eu6 Eu 0.331451(5) 0.717301(7) 0.987933(10)
O3 O 0.19860(9) 0.90133(12) 0.90625(18)
O4 O 0.27753(9) 0.83461(12) 0.94101(18)
C4 C 0.33434(14) 0.99095(19) 0.9361(3)
H3 H 0.3482 0.9522 0.9875
C5 C 0.28312(12) 0.97722(16) 0.8834(2)
C8 C 0.25089(12) 0.89936(16) 0.9105(2)
C21 C 0.08484(19) 0.9541(3) 0.7421(4)
H13 H 0.0731 0.9088 0.7853
C22 C 0.11207(19) 0.9410(2) 0.6436(4)
H14 H 0.1192 0.8870 0.6188
C9_2 C 1.0000 0.2829(2) 0.2500
H5_2 H 1.0000 0.2249 0.2500
C12_2 C 1.0000 0.4556(3) 0.2500
H7_2 H 1.0000 0.5136 0.2500
O15 O 0.89948(9) 0.32783(12) 0.02677(18)
O17 O 0.92149(9) 0.20487(12) 0.09518(19)
C34 C 0.96686(11) 0.32593(17) 0.1732(2)
C35 C 0.96767(17) 0.4126(2) 0.1735(4)
H20 H 0.9462 0.4418 0.1214
C36 C 0.92739(12) 0.28337(15) 0.0928(2)
Eu5 Eu 0.831451(5) 0.217301(7) 0.987933(10)
Eu2_2 Eu 0.668549(5) 0.282699(7) 0.012067(10)
Eu6_2 Eu 0.668549(5) 0.717301(7) 0.512067(10)
Eu7_2 Eu 0.831451(5) 0.782699(7) 0.487933(10)
O7_2 O 0.72357(8) 0.33765(12) 0.16045(17)
O8_2 O 0.80735(9) 0.27614(11) 0.16403(17)
O9_2 O 0.69860(9) 0.59867(12) 0.40625(18)
O10_2 O 0.80140(9) 0.09867(12) 0.09375(18)
O12_2 O 0.77753(9) 0.66539(12) 0.44101(18)
O13_2 O 0.72247(9) 0.16539(12) 0.05899(18)
N3_2 N 0.61019(11) 0.25220(18) 0.1901(2)
N4_2 N 0.62130(10) 0.41118(16) 0.1117(2)
C26_2 C 0.79292(11) 0.39279(16) 0.2821(2)
C27_2 C 0.84410(13) 0.38008(19) 0.3349(3)
H16_2 H 0.8648 0.3325 0.3183
C28_2 C 0.86449(14) 0.4375(2) 0.4116(3)
H17_2 H 0.8985 0.4281 0.4469
C29_2 C 0.83434(14) 0.50905(19) 0.4361(3)
H18_2 H 0.8482 0.5478 0.4875
C30_2 C 0.78312(12) 0.52278(16) 0.3834(2)
C31_2 C 0.76200(11) 0.46384(16) 0.3080(2)
H19_2 H 0.7273 0.4720 0.2750
C32_2 C 0.77275(12) 0.33046(16) 0.1957(2)
C33_2 C 0.75089(12) 0.60064(16) 0.4105(2)
C37_2 C 0.60322(17) 0.1746(2) 0.2263(3)
H21_2 H 0.6191 0.1315 0.1847
C38_2 C 0.5732(2) 0.1542(3) 0.3234(3)
H22_2 H 0.5696 0.0989 0.3457
C39_2 C 0.5495(2) 0.2158(3) 0.3846(4)
H23_2 H 0.5291 0.2029 0.4491
C40_2 C 0.55564(16) 0.2989(3) 0.3508(3)
C41_2 C 0.53366(19) 0.3682(4) 0.4127(4)
H24_2 H 0.5124 0.3584 0.4771
C42_2 C 0.54305(19) 0.4463(4) 0.3796(4)
H25_2 H 0.5290 0.4900 0.4227
C43_2 C 0.57432(16) 0.4650(3) 0.2792(3)
C44_2 C 0.58484(19) 0.5459(3) 0.2421(4)
H26_2 H 0.5731 0.5912 0.2853
C45_2 C 0.61207(19) 0.5590(2) 0.1436(4)
H27_2 H 0.6192 0.6130 0.1188
C46_2 C 0.62954(16) 0.4896(2) 0.0789(3)
H28_2 H 0.6475 0.4992 0.0105
C47_2 C 0.59484(13) 0.3982(2) 0.2124(3)
C48_2 C 0.58692(13) 0.3148(2) 0.2510(3)
O1_2 O 0.77643(8) 0.16235(12) 0.83955(17)
O2_2 O 0.69265(9) 0.22386(11) 0.83597(17)
N1_2 N 0.88981(11) 0.24780(18) 0.8099(2)
N2_2 N 0.87870(10) 0.08882(16) 0.8883(2)
C1_2 C 0.70708(11) 0.10721(16) 0.7179(2)
C2_2 C 0.65590(13) 0.11992(19) 0.6651(3)
H1_2 H 0.6352 0.1675 0.6817
C3_2 C 0.63551(14) 0.0625(2) 0.5884(3)
H2_2 H 0.6015 0.0719 0.5531
C6_2 C 0.73800(11) 0.03616(16) 0.6920(2)
H4_2 H 0.7727 0.0280 0.7250
C7_2 C 0.72725(12) 0.16954(16) 0.8043(2)
C14_2 C 0.89678(17) 0.3254(2) 0.7737(3)
H8_2 H 0.8809 0.3685 0.8153
C15_2 C 0.9268(2) 0.3458(3) 0.6766(3)
H9_2 H 0.9304 0.4011 0.6543
C16_2 C 0.9505(2) 0.2842(3) 0.6154(4)
H10_2 H 0.9709 0.2971 0.5509
C17_2 C 0.94436(16) 0.2011(3) 0.6492(3)
C18_2 C 0.96634(19) 0.1318(4) 0.5873(4)
H11_2 H 0.9876 0.1416 0.5229
C19_2 C 0.95695(19) 0.0537(4) 0.6204(4)
H12_2 H 0.9710 0.0100 0.5773
C20_2 C 0.92568(16) 0.0350(3) 0.7208(3)
C23_2 C 0.87046(16) 0.0104(2) 0.9211(3)
H15_2 H 0.8525 0.0008 0.9895
C24_2 C 0.90516(13) 0.1018(2) 0.7876(3)
C25_2 C 0.91308(13) 0.1852(2) 0.7490(3)
O11_2 O 0.69860(9) 0.40133(12) 0.90625(18)
O14_2 O 0.77753(9) 0.33461(12) 0.94101(18)
O16_2 O 0.60052(9) 0.17217(12) 0.97323(18)
O18_2 O 0.57851(9) 0.29513(12) 0.90482(19)
O3_2 O 0.80140(9) 0.90133(12) 0.59375(18)
O4_2 O 0.72247(9) 0.83461(12) 0.55899(18)
C4_2 C 0.66566(14) 0.99095(19) 0.5639(3)
H3_2 H 0.6518 0.9522 0.5125
C5_2 C 0.71688(12) 0.97722(16) 0.6166(2)
C8_2 C 0.74911(12) 0.89936(16) 0.5895(2)
C21_2 C 0.91516(19) 0.9541(3) 0.7579(4)
H13_2 H 0.9269 0.9088 0.7147
C22_2 C 0.88793(19) 0.9410(2) 0.8564(4)
H14_2 H 0.8808 0.8870 0.8812
H7_3 H 0.5000 0.0136 0.2500
C29_3 C 0.66566(14) 0.00905(19) 0.0639(3)
H18_3 H 0.6518 0.0478 0.0125
C30_3 C 0.71688(12) 0.02278(16) 0.1166(2)
C33_3 C 0.74911(12) 0.10064(16) 0.0895(2)
C44_3 C 0.91516(19) 0.0459(3) 0.2579(4)
H26_3 H 0.9269 0.0912 0.2147
C45_3 C 0.88793(19) 0.0590(2) 0.3564(4)
H27_3 H 0.8808 0.1130 0.3812
O1_3 O 0.72357(8) 0.66235(12) 0.66045(17)
O2_3 O 0.80735(9) 0.72386(11) 0.66403(17)
O5_2 O 0.60052(9) 0.82783(12) 0.47323(18)
O6_2 O 0.57851(9) 0.70487(12) 0.40482(19)
N1_3 N 0.61019(11) 0.74780(18) 0.6901(2)
N2_3 N 0.62130(10) 0.58882(16) 0.6117(2)
C1_3 C 0.79292(11) 0.60721(16) 0.7821(2)
C2_3 C 0.84410(13) 0.61992(19) 0.8349(3)
H1_3 H 0.8648 0.6675 0.8183
C3_3 C 0.86449(14) 0.5625(2) 0.9116(3)
H2_3 H 0.8985 0.5719 0.9469
C4_3 C 0.83434(14) 0.49095(19) 0.9361(3)
H3_3 H 0.8482 0.4522 0.9875
C5_3 C 0.78312(12) 0.47722(16) 0.8834(2)
C6_3 C 0.76200(11) 0.53616(16) 0.8080(2)
H4_3 H 0.7273 0.5280 0.7750
C7_3 C 0.77275(12) 0.66954(16) 0.6957(2)
C8_3 C 0.75089(12) 0.39936(16) 0.9105(2)
C9_3 C 0.5000 0.7829(2) 0.2500
H5_3 H 0.5000 0.7249 0.2500
C10_2 C 0.53314(11) 0.82593(17) 0.3268(2)
C11_2 C 0.53233(17) 0.9126(2) 0.3265(4)
H6_2 H 0.5538 0.9418 0.3786
C12_3 C 0.5000 0.9556(3) 0.2500
C13_2 C 0.57261(12) 0.78337(15) 0.4072(2)
C14_3 C 0.60322(17) 0.8254(2) 0.7263(3)
H8_3 H 0.6191 0.8685 0.6847
C15_3 C 0.5732(2) 0.8458(3) 0.8234(3)
H9_3 H 0.5696 0.9011 0.8457
C16_3 C 0.5495(2) 0.7842(3) 0.8846(4)
H10_3 H 0.5291 0.7971 0.9491
C17_3 C 0.55564(16) 0.7011(3) 0.8508(3)
C18_3 C 0.53366(19) 0.6318(4) 0.9127(4)
H11_3 H 0.5124 0.6416 0.9771
C19_3 C 0.54305(19) 0.5537(4) 0.8796(4)
H12_3 H 0.5290 0.5100 0.9227
C20_3 C 0.57432(16) 0.5350(3) 0.7792(3)
C21_3 C 0.58484(19) 0.4541(3) 0.7421(4)
H13_3 H 0.5731 0.4088 0.7853
C22_3 C 0.61207(19) 0.4410(2) 0.6436(4)
H14_3 H 0.6192 0.3870 0.6188
C23_3 C 0.62954(16) 0.5104(2) 0.5789(3)
H15_3 H 0.6475 0.5008 0.5105
C24_3 C 0.59484(13) 0.6018(2) 0.7124(3)
C25_3 C 0.58692(13) 0.6852(2) 0.7510(3)
O7_3 O 0.77643(8) 0.83765(12) 0.33955(17)
O8_3 O 0.69265(9) 0.77614(11) 0.33597(17)
O15_2 O 0.39948(9) 0.82783(12) 0.02677(18)
O16_3 O 0.89948(9) 0.67217(12) 0.52677(18)
O17_2 O 0.42149(9) 0.70487(12) 0.09518(19)
O18_3 O 0.92149(9) 0.79513(12) 0.59518(19)
N3_3 N 0.88981(11) 0.75220(18) 0.3099(2)
N4_3 N 0.87870(10) 0.91118(16) 0.3883(2)
C26_3 C 0.70708(11) 0.89279(16) 0.2179(2)
C27_3 C 0.65590(13) 0.88008(19) 0.1651(3)
H16_3 H 0.6352 0.8325 0.1817
C28_3 C 0.63551(14) 0.9375(2) 0.0884(3)
H17_3 H 0.6015 0.9281 0.0531
C31_3 C 0.73800(11) 0.96384(16) 0.1920(2)
H19_3 H 0.7727 0.9720 0.2250
C32_3 C 0.72725(12) 0.83046(16) 0.3043(2)
C34_2 C 0.46686(11) 0.82593(17) 0.1732(2)
C35_2 C 0.46767(17) 0.9126(2) 0.1735(4)
H20_2 H 0.4462 0.9418 0.1214
C36_2 C 0.42739(12) 0.78337(15) 0.0928(2)
C37_3 C 0.89678(17) 0.6746(2) 0.2737(3)
H21_3 H 0.8809 0.6315 0.3153
C38_3 C 0.9268(2) 0.6542(3) 0.1766(3)
H22_3 H 0.9304 0.5989 0.1543
C39_3 C 0.9505(2) 0.7158(3) 0.1154(4)
H23_3 H 0.9709 0.7029 0.0509
C40_3 C 0.94436(16) 0.7989(3) 0.1492(3)
C41_3 C 0.96634(19) 0.8682(4) 0.0873(4)
H24_3 H 0.9876 0.8584 0.0229
C42_3 C 0.95695(19) 0.9463(4) 0.1204(4)
H25_3 H 0.9710 0.9900 0.0773
C43_3 C 0.92568(16) 0.9650(3) 0.2208(3)
C46_3 C 0.87046(16) 0.9896(2) 0.4211(3)
H28_3 H 0.8525 0.9992 0.4895
C47_3 C 0.90516(13) 0.8982(2) 0.2876(3)
C48_3 C 0.91308(13) 0.8148(2) 0.2490(3)
C29_4 C 0.33434(14) 0.00905(19) 0.4361(3)
H18_4 H 0.3482 0.0478 0.4875
C30_4 C 0.28312(12) 0.02278(16) 0.3834(2)
C33_4 C 0.25089(12) 0.10064(16) 0.4105(2)
C44_4 C 0.08484(19) 0.0459(3) 0.2421(4)
H26_4 H 0.0731 0.0912 0.2853
C45_4 C 0.11207(19) 0.0590(2) 0.1436(4)
H27_4 H 0.1192 0.1130 0.1188
O7_4 O 0.22357(8) 0.83765(12) 0.16045(17)
O8_4 O 0.30735(9) 0.77614(11) 0.16403(17)
N3_4 N 0.11019(11) 0.75220(18) 0.1901(2)
N4_4 N 0.12130(10) 0.91118(16) 0.1117(2)
C26_4 C 0.29292(11) 0.89279(16) 0.2821(2)
C27_4 C 0.34410(13) 0.88008(19) 0.3349(3)
H16_4 H 0.3648 0.8325 0.3183
C28_4 C 0.36449(14) 0.9375(2) 0.4116(3)
H17_4 H 0.3985 0.9281 0.4469
C31_4 C 0.26200(11) 0.96384(16) 0.3080(2)
H19_4 H 0.2273 0.9720 0.2750
C32_4 C 0.27275(12) 0.83046(16) 0.1957(2)
C37_4 C 0.10322(17) 0.6746(2) 0.2263(3)
H21_4 H 0.1191 0.6315 0.1847
C38_4 C 0.0732(2) 0.6542(3) 0.3234(3)
H22_4 H 0.0696 0.5989 0.3457
C39_4 C 0.0495(2) 0.7158(3) 0.3846(4)
H23_4 H 0.0291 0.7029 0.4491
C40_4 C 0.05564(16) 0.7989(3) 0.3508(3)
C41_4 C 0.03366(19) 0.8682(4) 0.4127(4)
H24_4 H 0.0124 0.8584 0.4771
C42_4 C 0.04305(19) 0.9463(4) 0.3796(4)
H25_4 H 0.0290 0.9900 0.4227
C43_4 C 0.07432(16) 0.9650(3) 0.2792(3)
C46_4 C 0.12954(16) 0.9896(2) 0.0789(3)
H28_4 H 0.1475 0.9992 0.0105
C47_4 C 0.09484(13) 0.8982(2) 0.2124(3)
C48_4 C 0.08692(13) 0.8148(2) 0.2510(3)
O1_4 O 0.27643(8) 0.66235(12) 0.83955(17)
O2_4 O 0.19265(9) 0.72386(11) 0.83597(17)
N1_4 N 0.38981(11) 0.74780(18) 0.8099(2)
N2_4 N 0.37870(10) 0.58882(16) 0.8883(2)
C1_4 C 0.20708(11) 0.60721(16) 0.7179(2)
C2_4 C 0.15590(13) 0.61992(19) 0.6651(3)
H1_4 H 0.1352 0.6675 0.6817
C3_4 C 0.13551(14) 0.5625(2) 0.5884(3)
H2_4 H 0.1015 0.5719 0.5531
C4_4 C 0.16566(14) 0.49095(19) 0.5639(3)
H3_4 H 0.1518 0.4522 0.5125
C5_4 C 0.21688(12) 0.47722(16) 0.6166(2)
C6_4 C 0.23800(11) 0.53616(16) 0.6920(2)
H4_4 H 0.2727 0.5280 0.7250
C7_4 C 0.22725(12) 0.66954(16) 0.8043(2)
C8_4 C 0.24911(12) 0.39936(16) 0.5895(2)
C14_4 C 0.39678(17) 0.8254(2) 0.7737(3)
H8_4 H 0.3809 0.8685 0.8153
C15_4 C 0.4268(2) 0.8458(3) 0.6766(3)
H9_4 H 0.4304 0.9011 0.6543
C16_4 C 0.4505(2) 0.7842(3) 0.6154(4)
H10_4 H 0.4709 0.7971 0.5509
C17_4 C 0.44436(16) 0.7011(3) 0.6492(3)
C18_4 C 0.46634(19) 0.6318(4) 0.5873(4)
H11_4 H 0.4876 0.6416 0.5229
C19_4 C 0.45695(19) 0.5537(4) 0.6204(4)
H12_4 H 0.4710 0.5100 0.5773
C20_4 C 0.42568(16) 0.5350(3) 0.7208(3)
C21_4 C 0.41516(19) 0.4541(3) 0.7579(4)
H13_4 H 0.4269 0.4088 0.7147
C22_4 C 0.38793(19) 0.4410(2) 0.8564(4)
H14_4 H 0.3808 0.3870 0.8812
C23_4 C 0.37046(16) 0.5104(2) 0.9211(3)
H15_4 H 0.3525 0.5008 0.9895
C24_4 C 0.40516(13) 0.6018(2) 0.7876(3)
C25_4 C 0.41308(13) 0.6852(2) 0.7490(3)
O16_4 O 0.10052(9) 0.67217(12) 0.97323(18)
O18_4 O 0.07851(9) 0.79513(12) 0.90482(19)
C9_4 C 0.0000 0.7171(2) 0.7500
H5_4 H 0.0000 0.7751 0.7500
C12_4 C 0.0000 0.5444(3) 0.7500
H7_4 H 0.0000 0.4864 0.7500
C34_3 C 0.03314(11) 0.67407(17) 0.8268(2)
C35_3 C 0.03233(17) 0.5874(2) 0.8265(4)
H20_3 H 0.0538 0.5582 0.8786
C36_3 C 0.07261(12) 0.71663(15) 0.9072(2)
C9_5 C 1.0000 0.7171(2) 0.7500
H5_5 H 1.0000 0.7751 0.7500
C10_3 C 0.96686(11) 0.67407(17) 0.6732(2)
C11_3 C 0.96767(17) 0.5874(2) 0.6735(4)
H6_3 H 0.9462 0.5582 0.6214
C12_5 C 1.0000 0.5444(3) 0.7500
H7_5 H 1.0000 0.4864 0.7500
C13_3 C 0.92739(12) 0.71663(15) 0.5928(2)
C9_6 C 0.5000 0.2171(2) 0.7500
H5_6 H 0.5000 0.2751 0.7500
C10_4 C 0.46686(11) 0.17407(17) 0.6732(2)
C11_4 C 0.46767(17) 0.0874(2) 0.6735(4)
H6_4 H 0.4462 0.0582 0.6214
C12_6 C 0.5000 0.0444(3) 0.7500
C13_4 C 0.42739(12) 0.21663(15) 0.5928(2)
C34_4 C 0.53314(11) 0.17407(17) 0.8268(2)
C35_4 C 0.53233(17) 0.0874(2) 0.8265(4)
H20_4 H 0.5538 0.0582 0.8786
C36_4 C 0.57261(12) 0.21663(15) 0.9072(2)
H7_6 H 0.5000 0.9864 0.7500
loop_
_geom_bond_atom_site_label_1
_geom_bond_atom_site_label_2
_geom_bond_site_symmetry_1
_geom_bond_site_symmetry_2
Eu1 O1 1_555 1_555
O1 C7 1_555 1_555
O2 C7 1_555 1_555
O5 Eu1 1_555 1_555
O6 Eu1 1_555 1_555
N1 Eu1 1_555 1_555
N2 Eu1 1_555 1_555
C1 C2 1_555 1_555
C2 H1 1_555 1_555
C3 C2 1_555 1_555
H2 C3 1_555 1_555
C6 C1 1_555 1_555
H4 C6 1_555 1_555
C7 C1 1_555 1_555
C9 H5 1_555 1_555
C10 C9 1_555 1_555
C11 C10 1_555 1_555
H6 C11 1_555 1_555
C12 C11 1_555 1_555
H7 C12 1_555 1_555
C13 O5 1_555 1_555
C14 N1 1_555 1_555
H8 C14 1_555 1_555
C15 C14 1_555 1_555
H9 C15 1_555 1_555
C16 C15 1_555 1_555
H10 C16 1_555 1_555
C17 C16 1_555 1_555
C18 C17 1_555 1_555
H11 C18 1_555 1_555
C19 C18 1_555 1_555
H12 C19 1_555 1_555
C20 C19 1_555 1_555
C23 N2 1_555 1_555
H15 C23 1_555 1_555
C24 N2 1_555 1_555
C25 N1 1_555 1_555
Eu2 O2 1_555 1_555
Eu7 O12 1_555 1_555
O7 Eu2 1_555 1_555
O8 Eu1 1_555 1_555
O9 C33 1_555 1_555
O10 Eu1 1_555 1_555
O11 Eu2 1_555 1_555
O13 Eu1 1_555 1_555
O14 Eu1 1_555 1_555
O16 Eu2 1_555 1_555
O18 Eu2 1_555 1_555
N3 Eu2 1_555 1_555
N4 Eu2 1_555 1_555
C26 C27 1_555 1_555
C27 H16 1_555 1_555
C28 C27 1_555 1_555
H17 C28 1_555 1_555
C29 C28 1_555 1_555
H18 C29 1_555 1_555
C30 C29 1_555 1_555
C31 C26 1_555 1_555
H19 C31 1_555 1_555
C32 O7 1_555 1_555
C33 O12 1_555 1_555
C37 N3 1_555 1_555
H21 C37 1_555 1_555
C38 C37 1_555 1_555
H22 C38 1_555 1_555
C39 C38 1_555 1_555
H23 C39 1_555 1_555
C40 C39 1_555 1_555
C41 C40 1_555 1_555
H24 C41 1_555 1_555
C42 C41 1_555 1_555
H25 C42 1_555 1_555
C43 C42 1_555 1_555
C44 C43 1_555 1_555
H26 C44 1_555 1_555
C45 C44 1_555 1_555
H27 C45 1_555 1_555
C46 N4 1_555 1_555
H28 C46 1_555 1_555
C47 N4 1_555 1_555
C48 N3 1_555 1_555
O6 C13 1_555 1_555
C10 C13 1_555 1_555
C17 C25 1_555 1_555
C20 C24 1_555 1_555
C24 C25 1_555 1_555
Eu2 O13 1_555 1_555
Eu2 O14 1_555 1_555
O8 C32 1_555 1_555
C26 C32 1_555 1_555
C30 C31 1_555 1_555
C30 C33 1_555 1_555
C40 C48 1_555 1_555
C43 C47 1_555 1_555
C45 C46 1_555 1_555
C47 C48 1_555 1_555
O3 C8 1_555 1_555
O4 C8 1_555 1_555
H3 C4 1_555 1_555
C5 C4 1_555 1_555
C8 C5 1_555 1_555
H13 C21 1_555 1_555
C22 C21 1_555 1_555
H14 C22 1_555 1_555
Eu6 O4 1_555 1_555
C9_2 H5_2 1_555 1_555
H7_2 C12_2 1_555 1_555
O15 C36 1_555 1_555
C34 C9_2 1_555 1_555
C35 C12_2 1_555 1_555
H20 C35 1_555 1_555
C36 O17 1_555 1_555
C34 C35 1_555 1_555
C34 C36 1_555 1_555
Eu6_2 O9_2 1_555 1_555
Eu7_2 O12_2 1_555 1_555
O7_2 Eu2_2 1_555 1_555
O9_2 C33_2 1_555 1_555
O12_2 Eu6_2 1_555 1_555
N3_2 Eu2_2 1_555 1_555
N4_2 Eu2_2 1_555 1_555
C26_2 C27_2 1_555 1_555
C27_2 H16_2 1_555 1_555
C28_2 C27_2 1_555 1_555
H17_2 C28_2 1_555 1_555
C29_2 C28_2 1_555 1_555
H18_2 C29_2 1_555 1_555
C30_2 C29_2 1_555 1_555
C31_2 C26_2 1_555 1_555
H19_2 C31_2 1_555 1_555
C32_2 O7_2 1_555 1_555
C33_2 O12_2 1_555 1_555
C37_2 N3_2 1_555 1_555
H21_2 C37_2 1_555 1_555
C38_2 C37_2 1_555 1_555
H22_2 C38_2 1_555 1_555
C39_2 C38_2 1_555 1_555
H23_2 C39_2 1_555 1_555
C40_2 C39_2 1_555 1_555
C41_2 C40_2 1_555 1_555
H24_2 C41_2 1_555 1_555
C42_2 C41_2 1_555 1_555
H25_2 C42_2 1_555 1_555
C43_2 C42_2 1_555 1_555
C44_2 C43_2 1_555 1_555
H26_2 C44_2 1_555 1_555
C45_2 C44_2 1_555 1_555
H27_2 C45_2 1_555 1_555
C46_2 N4_2 1_555 1_555
H28_2 C46_2 1_555 1_555
C47_2 N4_2 1_555 1_555
C48_2 N3_2 1_555 1_555
Eu2_2 O13_2 1_555 1_555
O8_2 C32_2 1_555 1_555
C26_2 C32_2 1_555 1_555
C30_2 C31_2 1_555 1_555
C30_2 C33_2 1_555 1_555
C40_2 C48_2 1_555 1_555
C43_2 C47_2 1_555 1_555
C45_2 C46_2 1_555 1_555
C47_2 C48_2 1_555 1_555
Eu5 O1_2 1_555 1_555
O1_2 C7_2 1_555 1_555
O2_2 C7_2 1_555 1_555
N1_2 Eu5 1_555 1_555
N2_2 Eu5 1_555 1_555
C1_2 C2_2 1_555 1_555
C2_2 H1_2 1_555 1_555
C3_2 C2_2 1_555 1_555
H2_2 C3_2 1_555 1_555
C6_2 C1_2 1_555 1_555
H4_2 C6_2 1_555 1_555
C7_2 C1_2 1_555 1_555
C14_2 N1_2 1_555 1_555
H8_2 C14_2 1_555 1_555
C15_2 C14_2 1_555 1_555
H9_2 C15_2 1_555 1_555
C16_2 C15_2 1_555 1_555
H10_2 C16_2 1_555 1_555
C17_2 C16_2 1_555 1_555
C18_2 C17_2 1_555 1_555
H11_2 C18_2 1_555 1_555
C19_2 C18_2 1_555 1_555
H12_2 C19_2 1_555 1_555
C20_2 C19_2 1_555 1_555
C23_2 N2_2 1_555 1_555
H15_2 C23_2 1_555 1_555
C24_2 N2_2 1_555 1_555
C25_2 N1_2 1_555 1_555
O14_2 Eu5 1_555 1_555
C17_2 C25_2 1_555 1_555
C20_2 C24_2 1_555 1_555
C24_2 C25_2 1_555 1_555
O3_2 C8_2 1_555 1_555
O4_2 C8_2 1_555 1_555
H3_2 C4_2 1_555 1_555
C5_2 C4_2 1_555 1_555
C8_2 C5_2 1_555 1_555
H13_2 C21_2 1_555 1_555
C22_2 C21_2 1_555 1_555
H14_2 C22_2 1_555 1_555
Eu7_2 O3_2 1_555 1_555
Eu6_2 O4_2 1_555 1_555
O4_2 Eu7_2 1_555 1_555
O10_2 C33_3 1_555 1_555
H18_3 C29_3 1_555 1_555
C30_3 C29_3 1_555 1_555
C33_3 O13_2 1_555 1_555
H26_3 C44_3 1_555 1_555
C45_3 C44_3 1_555 1_555
H27_3 C45_3 1_555 1_555
C30_3 C33_3 1_555 1_555
Eu6_2 O1_3 1_555 1_555
O1_3 C7_3 1_555 1_555
O2_3 C7_3 1_555 1_555
O11_2 C8_3 1_555 1_555
O14_2 C8_3 1_555 1_555
O5_2 Eu6_2 1_555 1_555
O6_2 Eu6_2 1_555 1_555
N1_3 Eu6_2 1_555 1_555
N2_3 Eu6_2 1_555 1_555
C1_3 C2_3 1_555 1_555
C2_3 H1_3 1_555 1_555
C3_3 C2_3 1_555 1_555
H2_3 C3_3 1_555 1_555
C4_3 C3_3 1_555 1_555
H3_3 C4_3 1_555 1_555
C5_3 C4_3 1_555 1_555
C6_3 C1_3 1_555 1_555
H4_3 C6_3 1_555 1_555
C7_3 C1_3 1_555 1_555
C8_3 C5_3 1_555 1_555
C9_3 H5_3 1_555 1_555
C10_2 C9_3 1_555 1_555
C11_2 C10_2 1_555 1_555
H6_2 C11_2 1_555 1_555
C12_3 C11_2 1_555 1_555
C13_2 O5_2 1_555 1_555
C14_3 N1_3 1_555 1_555
H8_3 C14_3 1_555 1_555
C15_3 C14_3 1_555 1_555
H9_3 C15_3 1_555 1_555
C16_3 C15_3 1_555 1_555
H10_3 C16_3 1_555 1_555
C17_3 C16_3 1_555 1_555
C18_3 C17_3 1_555 1_555
H11_3 C18_3 1_555 1_555
C19_3 C18_3 1_555 1_555
H12_3 C19_3 1_555 1_555
C20_3 C19_3 1_555 1_555
C21_3 C20_3 1_555 1_555
H13_3 C21_3 1_555 1_555
C22_3 C21_3 1_555 1_555
H14_3 C22_3 1_555 1_555
C23_3 N2_3 1_555 1_555
H15_3 C23_3 1_555 1_555
C24_3 N2_3 1_555 1_555
C25_3 N1_3 1_555 1_555
Eu7_2 O2_3 1_555 1_555
O7_3 Eu7_2 1_555 1_555
O8_3 Eu6_2 1_555 1_555
O15_2 C36_2 1_555 1_555
O16_3 Eu7_2 1_555 1_555
O18_3 Eu7_2 1_555 1_555
N3_3 Eu7_2 1_555 1_555
N4_3 Eu7_2 1_555 1_555
C26_3 C27_3 1_555 1_555
C27_3 H16_3 1_555 1_555
C28_3 C27_3 1_555 1_555
H17_3 C28_3 1_555 1_555
C31_3 C26_3 1_555 1_555
H19_3 C31_3 1_555 1_555
C32_3 O7_3 1_555 1_555
C34_2 C9_3 1_555 1_555
C35_2 C12_3 1_555 1_555
H20_2 C35_2 1_555 1_555
C36_2 O17_2 1_555 1_555
C37_3 N3_3 1_555 1_555
H21_3 C37_3 1_555 1_555
C38_3 C37_3 1_555 1_555
H22_3 C38_3 1_555 1_555
C39_3 C38_3 1_555 1_555
H23_3 C39_3 1_555 1_555
C40_3 C39_3 1_555 1_555
C41_3 C40_3 1_555 1_555
H24_3 C41_3 1_555 1_555
C42_3 C41_3 1_555 1_555
H25_3 C42_3 1_555 1_555
C43_3 C42_3 1_555 1_555
C46_3 N4_3 1_555 1_555
H28_3 C46_3 1_555 1_555
C47_3 N4_3 1_555 1_555
C48_3 N3_3 1_555 1_555
O6_2 C13_2 1_555 1_555
C5_3 C6_3 1_555 1_555
C10_2 C13_2 1_555 1_555
C17_3 C25_3 1_555 1_555
C20_3 C24_3 1_555 1_555
C22_3 C23_3 1_555 1_555
C24_3 C25_3 1_555 1_555
O8_3 C32_3 1_555 1_555
C26_3 C32_3 1_555 1_555
C34_2 C35_2 1_555 1_555
C34_2 C36_2 1_555 1_555
C40_3 C48_3 1_555 1_555
C43_3 C47_3 1_555 1_555
C47_3 C48_3 1_555 1_555
O10 C33_4 1_555 1_555
H18_4 C29_4 1_555 1_555
C30_4 C29_4 1_555 1_555
C33_4 O13 1_555 1_555
H26_4 C44_4 1_555 1_555
C45_4 C44_4 1_555 1_555
H27_4 C45_4 1_555 1_555
C30_4 C33_4 1_555 1_555
O7_4 Eu7 1_555 1_555
N3_4 Eu7 1_555 1_555
N4_4 Eu7 1_555 1_555
C26_4 C27_4 1_555 1_555
C27_4 H16_4 1_555 1_555
C28_4 C27_4 1_555 1_555
H17_4 C28_4 1_555 1_555
C31_4 C26_4 1_555 1_555
H19_4 C31_4 1_555 1_555
C32_4 O7_4 1_555 1_555
C37_4 N3_4 1_555 1_555
H21_4 C37_4 1_555 1_555
C38_4 C37_4 1_555 1_555
H22_4 C38_4 1_555 1_555
C39_4 C38_4 1_555 1_555
H23_4 C39_4 1_555 1_555
C40_4 C39_4 1_555 1_555
C41_4 C40_4 1_555 1_555
H24_4 C41_4 1_555 1_555
C42_4 C41_4 1_555 1_555
H25_4 C42_4 1_555 1_555
C43_4 C42_4 1_555 1_555
C46_4 N4_4 1_555 1_555
H28_4 C46_4 1_555 1_555
C47_4 N4_4 1_555 1_555
C48_4 N3_4 1_555 1_555
O8_4 C32_4 1_555 1_555
C26_4 C32_4 1_555 1_555
C40_4 C48_4 1_555 1_555
C43_4 C47_4 1_555 1_555
C47_4 C48_4 1_555 1_555
Eu6 O1_4 1_555 1_555
O1_4 C7_4 1_555 1_555
O2_4 C7_4 1_555 1_555
O11 C8_4 1_555 1_555
O14 C8_4 1_555 1_555
N1_4 Eu6 1_555 1_555
N2_4 Eu6 1_555 1_555
C1_4 C2_4 1_555 1_555
C2_4 H1_4 1_555 1_555
C3_4 C2_4 1_555 1_555
H2_4 C3_4 1_555 1_555
C4_4 C3_4 1_555 1_555
H3_4 C4_4 1_555 1_555
C5_4 C4_4 1_555 1_555
C6_4 C1_4 1_555 1_555
H4_4 C6_4 1_555 1_555
C7_4 C1_4 1_555 1_555
C8_4 C5_4 1_555 1_555
C14_4 N1_4 1_555 1_555
H8_4 C14_4 1_555 1_555
C15_4 C14_4 1_555 1_555
H9_4 C15_4 1_555 1_555
C16_4 C15_4 1_555 1_555
H10_4 C16_4 1_555 1_555
C17_4 C16_4 1_555 1_555
C18_4 C17_4 1_555 1_555
H11_4 C18_4 1_555 1_555
C19_4 C18_4 1_555 1_555
H12_4 C19_4 1_555 1_555
C20_4 C19_4 1_555 1_555
C21_4 C20_4 1_555 1_555
H13_4 C21_4 1_555 1_555
C22_4 C21_4 1_555 1_555
H14_4 C22_4 1_555 1_555
C23_4 N2_4 1_555 1_555
H15_4 C23_4 1_555 1_555
C24_4 N2_4 1_555 1_555
C25_4 N1_4 1_555 1_555
C5_4 C6_4 1_555 1_555
C17_4 C25_4 1_555 1_555
C20_4 C24_4 1_555 1_555
C22_4 C23_4 1_555 1_555
C24_4 C25_4 1_555 1_555
C9_4 H5_4 1_555 1_555
H7_4 C12_4 1_555 1_555
O16_4 C36_3 1_555 1_555
C34_3 C9_4 1_555 1_555
C35_3 C12_4 1_555 1_555
H20_3 C35_3 1_555 1_555
C36_3 O18_4 1_555 1_555
C34_3 C35_3 1_555 1_555
C34_3 C36_3 1_555 1_555
C9_5 H5_5 1_555 1_555
C10_3 C9_5 1_555 1_555
C11_3 C10_3 1_555 1_555
H6_3 C11_3 1_555 1_555
C12_5 C11_3 1_555 1_555
H7_5 C12_5 1_555 1_555
C13_3 O16_3 1_555 1_555
O18_3 C13_3 1_555 1_555
C10_3 C13_3 1_555 1_555
C9_6 H5_6 1_555 1_555
C10_4 C9_6 1_555 1_555
C11_4 C10_4 1_555 1_555
H6_4 C11_4 1_555 1_555
C12_6 C11_4 1_555 1_555
C13_4 O16 1_555 1_555
O16_2 C36_4 1_555 1_555
C34_4 C9_6 1_555 1_555
C35_4 C12_6 1_555 1_555
H20_4 C35_4 1_555 1_555
C36_4 O18_2 1_555 1_555
O18 C13_4 1_555 1_555
C10_4 C13_4 1_555 1_555
C34_4 C35_4 1_555 1_555
C34_4 C36_4 1_555 1_555

#END
