
###############################################################################
#
# This file contains modified crystal structure data generated from the
# MOF subset of the Cambridge Structural Database (CSD) v543 
# hosted by the Cambridge Crystallographic Data Centre (CCDC).
#
# This work is licensed under the Creative Commons
# Attribution-NonCommercial-ShareAlike 4.0 International License.
# To view a copy of this license, visit
# http://creativecommons.org/licenses/by-nc-sa/4.0/
# or send a letter to
# Creative Commons, PO Box 1866, Mountain View, CA 94042, USA.
#
# CIF created using the CSD Python API on 29 September 2022
# The structure has been converted into the P1 space group
# The structure has a 3D framework
# The original CSD entry EXOYOG is in the monoclinic crystal system
# The framework has been calculated to contain at least 10.0% void space
# The void calculation uses a probe of radius 1.32A, grid spacing 0.4
#
###############################################################################

data_EXOYOG
_chemical_formula_moiety         '(C196 H116 Gd8 N16 O48)n'
_symmetry_cell_setting           triclinic
_symmetry_space_group_name_H-M   'P 1'
_symmetry_Int_Tables_number      1
_space_group_name_Hall           'P 1'
loop_
_symmetry_equiv_pos_site_id
_symmetry_equiv_pos_as_xyz
1 x,y,z
_cell_length_a                   23.958(5)
_cell_length_b                   16.023(5)
_cell_length_c                   11.832(2)
_cell_angle_alpha                90
_cell_angle_beta                 90.090(4)
_cell_angle_gamma                90
_cell_volume                     4542.05
loop_
_atom_site_label
_atom_site_type_symbol
_atom_site_fract_x
_atom_site_fract_y
_atom_site_fract_z
Gd1 Gd 0.168551(4) 0.217285(7) 0.012048(10)
N1 N 0.11007(10) 0.24773(16) 0.1903(2)
N2 N 0.12151(9) 0.08846(14) 0.1115(2)
C14 C 0.10319(15) 0.3256(2) 0.2266(3)
H8 H 0.1191 0.3688 0.1851
C15 C 0.07331(18) 0.3457(3) 0.3239(3)
H9 H 0.0698 0.4010 0.3466
C16 C 0.04968(18) 0.2846(3) 0.3842(4)
H10 H 0.0291 0.2976 0.4485
C17 C 0.05576(13) 0.2013(3) 0.3510(3)
C18 C 0.03368(17) 0.1321(4) 0.4125(4)
H11 H 0.0124 0.1417 0.4769
C19 C 0.04301(16) 0.0542(4) 0.3792(3)
H12 H 0.0288 0.0105 0.4222
C20 C 0.07438(14) 0.0352(3) 0.2790(3)
C23 C 0.12966(14) 0.01048(19) 0.0791(3)
H15 H 0.1478 0.0008 0.0108
C24 C 0.09473(11) 0.1015(2) 0.2124(3)
C25 C 0.08697(11) 0.1851(2) 0.2513(3)
O7 O 0.30738(8) 0.22384(11) 0.16414(16)
O8 O 0.22358(7) 0.16229(12) 0.16051(16)
O11 O 0.30135(8) 0.40119(11) 0.09360(17)
O14 O 0.22257(8) 0.33449(11) 0.05900(16)
O16 O 0.39949(8) 0.17194(11) 0.02679(17)
O18 O 0.42154(8) 0.29511(11) 0.09508(17)
C26 C 0.29293(10) 0.10727(15) 0.2822(2)
C27 C 0.34417(12) 0.11988(18) 0.3347(3)
H16 H 0.3650 0.1672 0.3178
C28 C 0.36437(13) 0.06245(19) 0.4117(3)
H17 H 0.3983 0.0719 0.4476
C31 C 0.26200(10) 0.03620(15) 0.3081(2)
H19 H 0.2271 0.0282 0.2752
C32 C 0.27291(11) 0.16946(15) 0.1958(2)
O1 O 0.19262(8) 0.27616(11) 0.83586(16)
O2 O 0.27642(7) 0.33771(12) 0.83949(16)
O3 O 0.30135(8) 0.59881(11) 0.59360(17)
O4 O 0.22257(8) 0.66551(11) 0.55900(16)
O5 O 0.10051(8) 0.32806(11) 0.97321(17)
O6 O 0.07846(8) 0.20489(11) 0.90492(17)
C1 C 0.20707(10) 0.39273(15) 0.7178(2)
C2 C 0.15583(12) 0.38012(18) 0.6653(3)
H1 H 0.1350 0.3328 0.6822
C3 C 0.13563(13) 0.43755(19) 0.5883(3)
H2 H 0.1017 0.4281 0.5524
C4 C 0.16579(12) 0.50916(18) 0.5642(3)
H3 H 0.1519 0.5480 0.5130
C5 C 0.21689(11) 0.52283(15) 0.6168(2)
C6 C 0.23800(10) 0.46380(15) 0.6919(2)
H4 H 0.2729 0.4718 0.7248
C7 C 0.22709(11) 0.33054(15) 0.8042(2)
C8 C 0.24906(11) 0.60073(15) 0.5894(2)
C9 C 0.0000 0.4553(3) 0.7500
H5 H -0.0000 0.5134 0.7500
C10 C 0.03225(15) 0.41244(19) 0.8268(3)
H6 H 0.0536 0.4417 0.8792
C11 C 0.03326(10) 0.32596(16) 0.8267(2)
C12 C -0.0000 0.2828(2) 0.7500
H7 H -0.0000 0.2248 0.7500
C13 C 0.07253(10) 0.28311(15) 0.9070(2)
Gd2 Gd 0.331449(4) 0.282715(7) 0.987952(10)
Gd3 Gd 0.331449(4) 0.717285(7) 0.487952(10)
Gd4 Gd 0.168551(4) 0.782715(7) 0.512048(10)
O10 O 0.19865(8) 0.09881(11) 0.90640(17)
O13 O 0.27743(8) 0.16551(11) 0.94100(16)
N3 N 0.38993(10) 0.25227(16) 0.8097(2)
N4 N 0.37849(9) 0.41154(14) 0.8885(2)
C37 C 0.39681(15) 0.1744(2) 0.7734(3)
H21 H 0.3809 0.1312 0.8149
C38 C 0.42669(18) 0.1543(3) 0.6761(3)
H22 H 0.4302 0.0990 0.6534
C39 C 0.45032(18) 0.2154(3) 0.6158(4)
H23 H 0.4709 0.2024 0.5515
C40 C 0.44424(13) 0.2987(3) 0.6490(3)
C41 C 0.46632(17) 0.3679(4) 0.5875(4)
H24 H 0.4876 0.3583 0.5231
C42 C 0.45699(16) 0.4458(4) 0.6208(3)
H25 H 0.4712 0.4895 0.5778
C43 C 0.42562(14) 0.4648(3) 0.7210(3)
C44 C 0.41537(17) 0.5459(3) 0.7580(4)
H26 H 0.4274 0.5910 0.7150
C45 C 0.38806(17) 0.5590(2) 0.8560(4)
H27 H 0.3809 0.6130 0.8807
C46 C 0.37034(14) 0.48952(19) 0.9209(3)
H28 H 0.3522 0.4992 0.9892
C47 C 0.40527(11) 0.3985(2) 0.7876(3)
C48 C 0.41303(11) 0.3149(2) 0.7487(3)
C21 C 0.08463(17) 0.9541(3) 0.2420(4)
H13 H 0.0726 0.9090 0.2850
C22 C 0.11194(17) 0.9410(2) 0.1440(4)
H14 H 0.1191 0.8870 0.1193
O9 O 0.19865(8) 0.90119(11) 0.40640(17)
O12 O 0.27743(8) 0.83449(11) 0.44100(16)
C29 C 0.33421(12) 0.99084(18) 0.4358(3)
H18 H 0.3481 0.9520 0.4870
C30 C 0.28311(11) 0.97717(15) 0.3832(2)
C33 C 0.25094(11) 0.89927(15) 0.4106(2)
C9_2 C 1.0000 0.4553(3) 0.7500
H5_2 H 1.0000 0.5134 0.7500
C12_2 C 1.0000 0.2828(2) 0.7500
H7_2 H 1.0000 0.2248 0.7500
Gd5 Gd 0.831449(4) 0.217285(7) 0.487952(10)
O15 O 0.89949(8) 0.32806(11) 0.52679(17)
O17 O 0.92154(8) 0.20489(11) 0.59508(17)
C34 C 0.96775(15) 0.41244(19) 0.6732(3)
H20 H 0.9464 0.4417 0.6208
C35 C 0.96674(10) 0.32596(16) 0.6733(2)
C36 C 0.92747(10) 0.28311(15) 0.5930(2)
Gd3_2 Gd 0.668551(4) 0.717285(7) 0.012048(10)
O1_2 O 0.80738(8) 0.27616(11) 0.66414(16)
O2_2 O 0.72358(7) 0.33771(12) 0.66051(16)
O3_2 O 0.69865(8) 0.59881(11) 0.90640(17)
O4_2 O 0.77743(8) 0.66551(11) 0.94100(16)
N1_2 N 0.88993(10) 0.24773(16) 0.3097(2)
N2_2 N 0.87849(9) 0.08846(14) 0.3885(2)
C1_2 C 0.79293(10) 0.39273(15) 0.7822(2)
C2_2 C 0.84417(12) 0.38012(18) 0.8347(3)
H1_2 H 0.8650 0.3328 0.8178
C3_2 C 0.86437(13) 0.43755(19) 0.9117(3)
H2_2 H 0.8983 0.4281 0.9476
C4_2 C 0.83421(12) 0.50916(18) 0.9358(3)
H3_2 H 0.8481 0.5480 0.9870
C5_2 C 0.78311(11) 0.52283(15) 0.8832(2)
C6_2 C 0.76200(10) 0.46380(15) 0.8081(2)
H4_2 H 0.7271 0.4718 0.7752
C7_2 C 0.77291(11) 0.33054(15) 0.6958(2)
C8_2 C 0.75094(11) 0.60073(15) 0.9106(2)
C14_2 C 0.89681(15) 0.3256(2) 0.2734(3)
H8_2 H 0.8809 0.3688 0.3149
C15_2 C 0.92669(18) 0.3457(3) 0.1761(3)
H9_2 H 0.9302 0.4010 0.1534
C16_2 C 0.95032(18) 0.2846(3) 0.1158(4)
H10_2 H 0.9709 0.2976 0.0515
C17_2 C 0.94424(13) 0.2013(3) 0.1490(3)
C18_2 C 0.96632(17) 0.1321(4) 0.0875(4)
H11_2 H 0.9876 0.1417 0.0231
C19_2 C 0.95699(16) 0.0542(4) 0.1208(3)
H12_2 H 0.9712 0.0105 0.0778
C20_2 C 0.92562(14) 0.0352(3) 0.2210(3)
C23_2 C 0.87034(14) 0.01048(19) 0.4209(3)
H15_2 H 0.8522 0.0008 0.4892
C24_2 C 0.90527(11) 0.1015(2) 0.2876(3)
C25_2 C 0.91303(11) 0.1851(2) 0.2487(3)
Gd2_2 Gd 0.668551(4) 0.282715(7) 0.512048(10)
Gd4_2 Gd 0.831449(4) 0.782715(7) 0.987952(10)
O7_2 O 0.69262(8) 0.22384(11) 0.33586(16)
O8_2 O 0.77642(7) 0.16229(12) 0.33949(16)
O10_2 O 0.80135(8) 0.09881(11) 0.59360(17)
O11_2 O 0.69865(8) 0.40119(11) 0.40640(17)
O13_2 O 0.72257(8) 0.16551(11) 0.55900(16)
O14_2 O 0.77743(8) 0.33449(11) 0.44100(16)
O16_2 O 0.60051(8) 0.17194(11) 0.47321(17)
O18_2 O 0.57846(8) 0.29511(11) 0.40492(17)
N3_2 N 0.61007(10) 0.25227(16) 0.6903(2)
N4_2 N 0.62151(9) 0.41154(14) 0.6115(2)
C26_2 C 0.70707(10) 0.10727(15) 0.2178(2)
C27_2 C 0.65583(12) 0.11988(18) 0.1653(3)
H16_2 H 0.6350 0.1672 0.1822
C28_2 C 0.63563(13) 0.06245(19) 0.0883(3)
H17_2 H 0.6017 0.0719 0.0524
C31_2 C 0.73800(10) 0.03620(15) 0.1919(2)
H19_2 H 0.7729 0.0282 0.2248
C32_2 C 0.72709(11) 0.16946(15) 0.3042(2)
C37_2 C 0.60319(15) 0.1744(2) 0.7266(3)
H21_2 H 0.6191 0.1312 0.6851
C38_2 C 0.57331(18) 0.1543(3) 0.8239(3)
H22_2 H 0.5698 0.0990 0.8466
C39_2 C 0.54968(18) 0.2154(3) 0.8842(4)
H23_2 H 0.5291 0.2024 0.9485
C40_2 C 0.55576(13) 0.2987(3) 0.8510(3)
C41_2 C 0.53368(17) 0.3679(4) 0.9125(4)
H24_2 H 0.5124 0.3583 0.9769
C42_2 C 0.54301(16) 0.4458(4) 0.8792(3)
H25_2 H 0.5288 0.4895 0.9222
C43_2 C 0.57438(14) 0.4648(3) 0.7790(3)
C44_2 C 0.58463(17) 0.5459(3) 0.7420(4)
H26_2 H 0.5726 0.5910 0.7850
C45_2 C 0.61194(17) 0.5590(2) 0.6440(4)
H27_2 H 0.6191 0.6130 0.6193
C46_2 C 0.62966(14) 0.48952(19) 0.5791(3)
H28_2 H 0.6478 0.4992 0.5108
C47_2 C 0.59473(11) 0.3985(2) 0.7124(3)
C48_2 C 0.58697(11) 0.3149(2) 0.7513(3)
C21_2 C 0.91537(17) 0.9541(3) 0.2580(4)
H13_2 H 0.9274 0.9090 0.2150
C22_2 C 0.88806(17) 0.9410(2) 0.3560(4)
H14_2 H 0.8809 0.8870 0.3807
O9_2 O 0.80135(8) 0.90119(11) 0.09360(17)
O12_2 O 0.72257(8) 0.83449(11) 0.05900(16)
C29_2 C 0.66579(12) 0.99084(18) 0.0642(3)
H18_2 H 0.6519 0.9520 0.0130
C30_2 C 0.71689(11) 0.97717(15) 0.1168(2)
C33_2 C 0.74906(11) 0.89927(15) 0.0894(2)
C4_3 C 0.66579(12) 0.00916(18) 0.5642(3)
H3_3 H 0.6519 0.0480 0.5130
C5_3 C 0.71689(11) 0.02283(15) 0.6168(2)
C8_3 C 0.74906(11) 0.10073(15) 0.5894(2)
H5_3 H 0.5000 0.0134 0.7500
C44_3 C 0.91537(17) 0.0459(3) 0.7580(4)
H26_3 H 0.9274 0.0910 0.7150
C45_3 C 0.88806(17) 0.0590(2) 0.8560(4)
H27_3 H 0.8809 0.1130 0.8807
N1_3 N 0.61007(10) 0.74773(16) 0.1903(2)
N2_3 N 0.62151(9) 0.58846(14) 0.1115(2)
C14_3 C 0.60319(15) 0.8256(2) 0.2266(3)
H8_3 H 0.6191 0.8688 0.1851
C15_3 C 0.57331(18) 0.8457(3) 0.3239(3)
H9_3 H 0.5698 0.9010 0.3466
C16_3 C 0.54968(18) 0.7846(3) 0.3842(4)
H10_3 H 0.5291 0.7976 0.4485
C17_3 C 0.55576(13) 0.7013(3) 0.3510(3)
C18_3 C 0.53368(17) 0.6321(4) 0.4125(4)
H11_3 H 0.5124 0.6417 0.4769
C19_3 C 0.54301(16) 0.5542(4) 0.3792(3)
H12_3 H 0.5288 0.5105 0.4222
C20_3 C 0.57438(14) 0.5352(3) 0.2790(3)
C21_3 C 0.58463(17) 0.4541(3) 0.2420(4)
H13_3 H 0.5726 0.4090 0.2850
C22_3 C 0.61194(17) 0.4410(2) 0.1440(4)
H14_3 H 0.6191 0.3870 0.1193
C23_3 C 0.62966(14) 0.51048(19) 0.0791(3)
H15_3 H 0.6478 0.5008 0.0108
C24_3 C 0.59473(11) 0.6015(2) 0.2124(3)
C25_3 C 0.58697(11) 0.6851(2) 0.2513(3)
O7_3 O 0.80738(8) 0.72384(11) 0.16414(16)
O8_3 O 0.72358(7) 0.66229(12) 0.16051(16)
O16_3 O 0.89949(8) 0.67194(11) 0.02679(17)
O18_3 O 0.92154(8) 0.79511(11) 0.09508(17)
C26_3 C 0.79293(10) 0.60727(15) 0.2822(2)
C27_3 C 0.84417(12) 0.61988(18) 0.3347(3)
H16_3 H 0.8650 0.6672 0.3178
C28_3 C 0.86437(13) 0.56245(19) 0.4117(3)
H17_3 H 0.8983 0.5719 0.4476
C29_3 C 0.83421(12) 0.49084(18) 0.4358(3)
H18_3 H 0.8481 0.4520 0.4870
C30_3 C 0.78311(11) 0.47717(15) 0.3832(2)
C31_3 C 0.76200(10) 0.53620(15) 0.3081(2)
H19_3 H 0.7271 0.5282 0.2752
C32_3 C 0.77291(11) 0.66946(15) 0.1958(2)
C33_3 C 0.75094(11) 0.39927(15) 0.4106(2)
O1_3 O 0.69262(8) 0.77616(11) 0.83586(16)
O2_3 O 0.77642(7) 0.83771(12) 0.83949(16)
O5_2 O 0.60051(8) 0.82806(11) 0.97321(17)
O6_2 O 0.57846(8) 0.70489(11) 0.90492(17)
C1_3 C 0.70707(10) 0.89273(15) 0.7178(2)
C2_3 C 0.65583(12) 0.88012(18) 0.6653(3)
H1_3 H 0.6350 0.8328 0.6822
C3_3 C 0.63563(13) 0.93755(19) 0.5883(3)
H2_3 H 0.6017 0.9281 0.5524
C6_3 C 0.73800(10) 0.96380(15) 0.6919(2)
H4_3 H 0.7729 0.9718 0.7248
C7_3 C 0.72709(11) 0.83054(15) 0.8042(2)
C9_3 C 0.5000 0.9553(3) 0.7500
C10_2 C 0.53225(15) 0.91244(19) 0.8268(3)
H6_2 H 0.5536 0.9417 0.8792
C11_2 C 0.53326(10) 0.82596(16) 0.8267(2)
C12_3 C 0.5000 0.7828(2) 0.7500
H7_3 H 0.5000 0.7248 0.7500
C13_2 C 0.57253(10) 0.78311(15) 0.9070(2)
O15_2 O 0.39949(8) 0.82806(11) 0.52679(17)
O17_2 O 0.42154(8) 0.70489(11) 0.59508(17)
N3_3 N 0.88993(10) 0.75227(16) 0.8097(2)
N4_3 N 0.87849(9) 0.91154(14) 0.8885(2)
C34_2 C 0.46775(15) 0.91244(19) 0.6732(3)
H20_2 H 0.4464 0.9417 0.6208
C35_2 C 0.46674(10) 0.82596(16) 0.6733(2)
C36_2 C 0.42747(10) 0.78311(15) 0.5930(2)
C37_3 C 0.89681(15) 0.6744(2) 0.7734(3)
H21_3 H 0.8809 0.6312 0.8149
C38_3 C 0.92669(18) 0.6543(3) 0.6761(3)
H22_3 H 0.9302 0.5990 0.6534
C39_3 C 0.95032(18) 0.7154(3) 0.6158(4)
H23_3 H 0.9709 0.7024 0.5515
C40_3 C 0.94424(13) 0.7987(3) 0.6490(3)
C41_3 C 0.96632(17) 0.8679(4) 0.5875(4)
H24_3 H 0.9876 0.8583 0.5231
C42_3 C 0.95699(16) 0.9458(4) 0.6208(3)
H25_3 H 0.9712 0.9895 0.5778
C43_3 C 0.92562(14) 0.9648(3) 0.7210(3)
C46_3 C 0.87034(14) 0.98952(19) 0.9209(3)
H28_3 H 0.8522 0.9992 0.9892
C47_3 C 0.90527(11) 0.8985(2) 0.7876(3)
C48_3 C 0.91303(11) 0.8149(2) 0.7487(3)
C4_4 C 0.33421(12) 0.00916(18) 0.9358(3)
H3_4 H 0.3481 0.0480 0.9870
C5_4 C 0.28311(11) 0.02283(15) 0.8832(2)
C8_4 C 0.25094(11) 0.10073(15) 0.9106(2)
C44_4 C 0.08463(17) 0.0459(3) 0.7420(4)
H26_4 H 0.0726 0.0910 0.7850
C45_4 C 0.11194(17) 0.0590(2) 0.6440(4)
H27_4 H 0.1191 0.1130 0.6193
O1_4 O 0.30738(8) 0.77616(11) 0.66414(16)
O2_4 O 0.22358(7) 0.83771(12) 0.66051(16)
N1_4 N 0.38993(10) 0.74773(16) 0.3097(2)
N2_4 N 0.37849(9) 0.58846(14) 0.3885(2)
C1_4 C 0.29293(10) 0.89273(15) 0.7822(2)
C2_4 C 0.34417(12) 0.88012(18) 0.8347(3)
H1_4 H 0.3650 0.8328 0.8178
C3_4 C 0.36437(13) 0.93755(19) 0.9117(3)
H2_4 H 0.3983 0.9281 0.9476
C6_4 C 0.26200(10) 0.96380(15) 0.8081(2)
H4_4 H 0.2271 0.9718 0.7752
C7_4 C 0.27291(11) 0.83054(15) 0.6958(2)
C14_4 C 0.39681(15) 0.8256(2) 0.2734(3)
H8_4 H 0.3809 0.8688 0.3149
C15_4 C 0.42669(18) 0.8457(3) 0.1761(3)
H9_4 H 0.4302 0.9010 0.1534
C16_4 C 0.45032(18) 0.7846(3) 0.1158(4)
H10_4 H 0.4709 0.7976 0.0515
C17_4 C 0.44424(13) 0.7013(3) 0.1490(3)
C18_4 C 0.46632(17) 0.6321(4) 0.0875(4)
H11_4 H 0.4876 0.6417 0.0231
C19_4 C 0.45699(16) 0.5542(4) 0.1208(3)
H12_4 H 0.4712 0.5105 0.0778
C20_4 C 0.42562(14) 0.5352(3) 0.2210(3)
C21_4 C 0.41537(17) 0.4541(3) 0.2580(4)
H13_4 H 0.4274 0.4090 0.2150
C22_4 C 0.38806(17) 0.4410(2) 0.3560(4)
H14_4 H 0.3809 0.3870 0.3807
C23_4 C 0.37034(14) 0.51048(19) 0.4209(3)
H15_4 H 0.3522 0.5008 0.4892
C24_4 C 0.40527(11) 0.6015(2) 0.2876(3)
C25_4 C 0.41303(11) 0.6851(2) 0.2487(3)
O7_4 O 0.19262(8) 0.72384(11) 0.33586(16)
O8_4 O 0.27642(7) 0.66229(12) 0.33949(16)
O16_4 O 0.10051(8) 0.67194(11) 0.47321(17)
O18_4 O 0.07846(8) 0.79511(11) 0.40492(17)
N3_4 N 0.11007(10) 0.75227(16) 0.6903(2)
N4_4 N 0.12151(9) 0.91154(14) 0.6115(2)
C26_4 C 0.20707(10) 0.60727(15) 0.2178(2)
C27_4 C 0.15583(12) 0.61988(18) 0.1653(3)
H16_4 H 0.1350 0.6672 0.1822
C28_4 C 0.13563(13) 0.56245(19) 0.0883(3)
H17_4 H 0.1017 0.5719 0.0524
C29_4 C 0.16579(12) 0.49084(18) 0.0642(3)
H18_4 H 0.1519 0.4520 0.0130
C30_4 C 0.21689(11) 0.47717(15) 0.1168(2)
C31_4 C 0.23800(10) 0.53620(15) 0.1919(2)
H19_4 H 0.2729 0.5282 0.2248
C32_4 C 0.22709(11) 0.66946(15) 0.3042(2)
C33_4 C 0.24906(11) 0.39927(15) 0.0894(2)
C37_4 C 0.10319(15) 0.6744(2) 0.7266(3)
H21_4 H 0.1191 0.6312 0.6851
C38_4 C 0.07331(18) 0.6543(3) 0.8239(3)
H22_4 H 0.0698 0.5990 0.8466
C39_4 C 0.04968(18) 0.7154(3) 0.8842(4)
H23_4 H 0.0291 0.7024 0.9485
C40_4 C 0.05576(13) 0.7987(3) 0.8510(3)
C41_4 C 0.03368(17) 0.8679(4) 0.9125(4)
H24_4 H 0.0124 0.8583 0.9769
C42_4 C 0.04301(16) 0.9458(4) 0.8792(3)
H25_4 H 0.0288 0.9895 0.9222
C43_4 C 0.07438(14) 0.9648(3) 0.7790(3)
C46_4 C 0.12966(14) 0.98952(19) 0.5791(3)
H28_4 H 0.1478 0.9992 0.5108
C47_4 C 0.09473(11) 0.8985(2) 0.7124(3)
C48_4 C 0.08697(11) 0.8149(2) 0.7513(3)
C9_4 C 0.0000 0.5447(3) 0.2500
H5_4 H 0.0000 0.4866 0.2500
C12_4 C -0.0000 0.7172(2) 0.2500
H7_4 H 0.0000 0.7752 0.2500
C34_3 C 0.03225(15) 0.58756(19) 0.3268(3)
H20_3 H 0.0536 0.5583 0.3792
C35_3 C 0.03326(10) 0.67404(16) 0.3267(2)
C36_3 C 0.07253(10) 0.71689(15) 0.4070(2)
C9_5 C 1.0000 0.5447(3) 0.2500
H5_5 H 1.0000 0.4866 0.2500
C10_3 C 0.96775(15) 0.58756(19) 0.1732(3)
H6_3 H 0.9464 0.5583 0.1208
C11_3 C 0.96674(10) 0.67404(16) 0.1733(2)
C12_5 C 1.0000 0.7172(2) 0.2500
H7_5 H 1.0000 0.7752 0.2500
C13_3 C 0.92747(10) 0.71689(15) 0.0930(2)
C9_6 C 0.5000 0.0447(3) 0.2500
C10_4 C 0.46775(15) 0.08756(19) 0.1732(3)
H6_4 H 0.4464 0.0583 0.1208
C11_4 C 0.46674(10) 0.17404(16) 0.1733(2)
C12_6 C 0.5000 0.2172(2) 0.2500
H7_6 H 0.5000 0.2752 0.2500
C13_4 C 0.42747(10) 0.21689(15) 0.0930(2)
C34_4 C 0.53225(15) 0.08756(19) 0.3268(3)
H20_4 H 0.5536 0.0583 0.3792
C35_4 C 0.53326(10) 0.17404(16) 0.3267(2)
C36_4 C 0.57253(10) 0.21689(15) 0.4070(2)
H5_6 H 0.5000 0.9866 0.2500
loop_
_geom_bond_atom_site_label_1
_geom_bond_atom_site_label_2
_geom_bond_site_symmetry_1
_geom_bond_site_symmetry_2
N1 Gd1 1_555 1_555
N2 Gd1 1_555 1_555
C14 N1 1_555 1_555
H8 C14 1_555 1_555
C15 C14 1_555 1_555
H9 C15 1_555 1_555
C16 C15 1_555 1_555
H10 C16 1_555 1_555
C17 C16 1_555 1_555
C18 C17 1_555 1_555
H11 C18 1_555 1_555
C19 C18 1_555 1_555
H12 C19 1_555 1_555
C20 C19 1_555 1_555
C23 N2 1_555 1_555
H15 C23 1_555 1_555
C24 N2 1_555 1_555
C25 N1 1_555 1_555
O8 Gd1 1_555 1_555
O14 Gd1 1_555 1_555
C26 C27 1_555 1_555
C27 H16 1_555 1_555
C28 C27 1_555 1_555
H17 C28 1_555 1_555
C31 C26 1_555 1_555
H19 C31 1_555 1_555
C32 O7 1_555 1_555
C17 C25 1_555 1_555
C20 C24 1_555 1_555
C24 C25 1_555 1_555
O8 C32 1_555 1_555
C26 C32 1_555 1_555
O1 C7 1_555 1_555
O2 C7 1_555 1_555
O3 C8 1_555 1_555
O4 C8 1_555 1_555
C1 C2 1_555 1_555
C2 H1 1_555 1_555
C3 C2 1_555 1_555
H2 C3 1_555 1_555
C4 C3 1_555 1_555
H3 C4 1_555 1_555
C5 C4 1_555 1_555
C6 C1 1_555 1_555
H4 C6 1_555 1_555
C7 C1 1_555 1_555
C8 C5 1_555 1_555
C9 H5 1_555 1_555
C10 C9 1_555 1_555
H6 C10 1_555 1_555
C11 C10 1_555 1_555
C12 C11 1_555 1_555
H7 C12 1_555 1_555
C13 O5 1_555 1_555
Gd2 O2 1_555 1_555
Gd3 O3 1_555 1_555
Gd4 O4 1_555 1_555
N3 Gd2 1_555 1_555
N4 Gd2 1_555 1_555
C37 N3 1_555 1_555
H21 C37 1_555 1_555
C38 C37 1_555 1_555
H22 C38 1_555 1_555
C39 C38 1_555 1_555
H23 C39 1_555 1_555
C40 C39 1_555 1_555
C41 C40 1_555 1_555
H24 C41 1_555 1_555
C42 C41 1_555 1_555
H25 C42 1_555 1_555
C43 C42 1_555 1_555
C44 C43 1_555 1_555
H26 C44 1_555 1_555
C45 C44 1_555 1_555
H27 C45 1_555 1_555
C46 N4 1_555 1_555
H28 C46 1_555 1_555
C47 N4 1_555 1_555
C48 N3 1_555 1_555
O4 Gd3 1_555 1_555
O6 C13 1_555 1_555
C5 C6 1_555 1_555
C11 C13 1_555 1_555
Gd2 O13 1_555 1_555
C40 C48 1_555 1_555
C43 C47 1_555 1_555
C45 C46 1_555 1_555
C47 C48 1_555 1_555
H13 C21 1_555 1_555
C22 C21 1_555 1_555
H14 C22 1_555 1_555
Gd4 O9 1_555 1_555
Gd3 O12 1_555 1_555
O9 C33 1_555 1_555
O12 Gd4 1_555 1_555
H18 C29 1_555 1_555
C30 C29 1_555 1_555
C33 O12 1_555 1_555
C30 C33 1_555 1_555
C9_2 H5_2 1_555 1_555
H7_2 C12_2 1_555 1_555
Gd5 O15 1_555 1_555
O15 C36 1_555 1_555
O17 Gd5 1_555 1_555
C34 C9_2 1_555 1_555
H20 C34 1_555 1_555
C35 C12_2 1_555 1_555
C36 O17 1_555 1_555
C34 C35 1_555 1_555
C35 C36 1_555 1_555
Gd5 O1_2 1_555 1_555
O1_2 C7_2 1_555 1_555
O2_2 C7_2 1_555 1_555
O3_2 C8_2 1_555 1_555
O4_2 C8_2 1_555 1_555
N1_2 Gd5 1_555 1_555
N2_2 Gd5 1_555 1_555
C1_2 C2_2 1_555 1_555
C2_2 H1_2 1_555 1_555
C3_2 C2_2 1_555 1_555
H2_2 C3_2 1_555 1_555
C4_2 C3_2 1_555 1_555
H3_2 C4_2 1_555 1_555
C5_2 C4_2 1_555 1_555
C6_2 C1_2 1_555 1_555
H4_2 C6_2 1_555 1_555
C7_2 C1_2 1_555 1_555
C8_2 C5_2 1_555 1_555
C14_2 N1_2 1_555 1_555
H8_2 C14_2 1_555 1_555
C15_2 C14_2 1_555 1_555
H9_2 C15_2 1_555 1_555
C16_2 C15_2 1_555 1_555
H10_2 C16_2 1_555 1_555
C17_2 C16_2 1_555 1_555
C18_2 C17_2 1_555 1_555
H11_2 C18_2 1_555 1_555
C19_2 C18_2 1_555 1_555
H12_2 C19_2 1_555 1_555
C20_2 C19_2 1_555 1_555
C23_2 N2_2 1_555 1_555
H15_2 C23_2 1_555 1_555
C24_2 N2_2 1_555 1_555
C25_2 N1_2 1_555 1_555
Gd2_2 O2_2 1_555 1_555
Gd4_2 O4_2 1_555 1_555
O7_2 Gd2_2 1_555 1_555
O8_2 Gd5 1_555 1_555
O10_2 Gd5 1_555 1_555
O11_2 Gd2_2 1_555 1_555
O13_2 Gd5 1_555 1_555
O14_2 Gd5 1_555 1_555
O16_2 Gd2_2 1_555 1_555
O18_2 Gd2_2 1_555 1_555
N3_2 Gd2_2 1_555 1_555
N4_2 Gd2_2 1_555 1_555
C26_2 C27_2 1_555 1_555
C27_2 H16_2 1_555 1_555
C28_2 C27_2 1_555 1_555
H17_2 C28_2 1_555 1_555
C31_2 C26_2 1_555 1_555
H19_2 C31_2 1_555 1_555
C32_2 O7_2 1_555 1_555
C37_2 N3_2 1_555 1_555
H21_2 C37_2 1_555 1_555
C38_2 C37_2 1_555 1_555
H22_2 C38_2 1_555 1_555
C39_2 C38_2 1_555 1_555
H23_2 C39_2 1_555 1_555
C40_2 C39_2 1_555 1_555
C41_2 C40_2 1_555 1_555
H24_2 C41_2 1_555 1_555
C42_2 C41_2 1_555 1_555
H25_2 C42_2 1_555 1_555
C43_2 C42_2 1_555 1_555
C44_2 C43_2 1_555 1_555
H26_2 C44_2 1_555 1_555
C45_2 C44_2 1_555 1_555
H27_2 C45_2 1_555 1_555
C46_2 N4_2 1_555 1_555
H28_2 C46_2 1_555 1_555
C47_2 N4_2 1_555 1_555
C48_2 N3_2 1_555 1_555
C5_2 C6_2 1_555 1_555
C17_2 C25_2 1_555 1_555
C20_2 C24_2 1_555 1_555
C24_2 C25_2 1_555 1_555
Gd2_2 O13_2 1_555 1_555
Gd2_2 O14_2 1_555 1_555
O8_2 C32_2 1_555 1_555
C26_2 C32_2 1_555 1_555
C40_2 C48_2 1_555 1_555
C43_2 C47_2 1_555 1_555
C45_2 C46_2 1_555 1_555
C47_2 C48_2 1_555 1_555
H13_2 C21_2 1_555 1_555
C22_2 C21_2 1_555 1_555
H14_2 C22_2 1_555 1_555
Gd3_2 O12_2 1_555 1_555
O9_2 C33_2 1_555 1_555
H18_2 C29_2 1_555 1_555
C30_2 C29_2 1_555 1_555
C33_2 O12_2 1_555 1_555
C30_2 C33_2 1_555 1_555
O10_2 C8_3 1_555 1_555
O13_2 C8_3 1_555 1_555
H3_3 C4_3 1_555 1_555
C5_3 C4_3 1_555 1_555
C8_3 C5_3 1_555 1_555
H26_3 C44_3 1_555 1_555
C45_3 C44_3 1_555 1_555
H27_3 C45_3 1_555 1_555
N1_3 Gd3_2 1_555 1_555
N2_3 Gd3_2 1_555 1_555
C14_3 N1_3 1_555 1_555
H8_3 C14_3 1_555 1_555
C15_3 C14_3 1_555 1_555
H9_3 C15_3 1_555 1_555
C16_3 C15_3 1_555 1_555
H10_3 C16_3 1_555 1_555
C17_3 C16_3 1_555 1_555
C18_3 C17_3 1_555 1_555
H11_3 C18_3 1_555 1_555
C19_3 C18_3 1_555 1_555
H12_3 C19_3 1_555 1_555
C20_3 C19_3 1_555 1_555
C21_3 C20_3 1_555 1_555
H13_3 C21_3 1_555 1_555
C22_3 C21_3 1_555 1_555
H14_3 C22_3 1_555 1_555
C23_3 N2_3 1_555 1_555
H15_3 C23_3 1_555 1_555
C24_3 N2_3 1_555 1_555
C25_3 N1_3 1_555 1_555
O8_3 Gd3_2 1_555 1_555
O11_2 C33_3 1_555 1_555
C26_3 C27_3 1_555 1_555
C27_3 H16_3 1_555 1_555
C28_3 C27_3 1_555 1_555
H17_3 C28_3 1_555 1_555
C29_3 C28_3 1_555 1_555
H18_3 C29_3 1_555 1_555
C30_3 C29_3 1_555 1_555
C31_3 C26_3 1_555 1_555
H19_3 C31_3 1_555 1_555
C32_3 O7_3 1_555 1_555
C33_3 O14_2 1_555 1_555
C17_3 C25_3 1_555 1_555
C20_3 C24_3 1_555 1_555
C22_3 C23_3 1_555 1_555
C24_3 C25_3 1_555 1_555
O8_3 C32_3 1_555 1_555
C26_3 C32_3 1_555 1_555
C30_3 C31_3 1_555 1_555
C30_3 C33_3 1_555 1_555
O1_3 C7_3 1_555 1_555
O2_3 C7_3 1_555 1_555
C1_3 C2_3 1_555 1_555
C2_3 H1_3 1_555 1_555
C3_3 C2_3 1_555 1_555
H2_3 C3_3 1_555 1_555
C6_3 C1_3 1_555 1_555
H4_3 C6_3 1_555 1_555
C7_3 C1_3 1_555 1_555
C10_2 C9_3 1_555 1_555
H6_2 C10_2 1_555 1_555
C11_2 C10_2 1_555 1_555
C12_3 C11_2 1_555 1_555
H7_3 C12_3 1_555 1_555
C13_2 O5_2 1_555 1_555
Gd4_2 O2_3 1_555 1_555
Gd3 O15_2 1_555 1_555
O15_2 C36_2 1_555 1_555
O17_2 Gd3 1_555 1_555
N3_3 Gd4_2 1_555 1_555
N4_3 Gd4_2 1_555 1_555
C34_2 C9_3 1_555 1_555
H20_2 C34_2 1_555 1_555
C35_2 C12_3 1_555 1_555
C36_2 O17_2 1_555 1_555
C37_3 N3_3 1_555 1_555
H21_3 C37_3 1_555 1_555
C38_3 C37_3 1_555 1_555
H22_3 C38_3 1_555 1_555
C39_3 C38_3 1_555 1_555
H23_3 C39_3 1_555 1_555
C40_3 C39_3 1_555 1_555
C41_3 C40_3 1_555 1_555
H24_3 C41_3 1_555 1_555
C42_3 C41_3 1_555 1_555
H25_3 C42_3 1_555 1_555
C43_3 C42_3 1_555 1_555
C46_3 N4_3 1_555 1_555
H28_3 C46_3 1_555 1_555
C47_3 N4_3 1_555 1_555
C48_3 N3_3 1_555 1_555
O6_2 C13_2 1_555 1_555
C11_2 C13_2 1_555 1_555
C34_2 C35_2 1_555 1_555
C35_2 C36_2 1_555 1_555
C40_3 C48_3 1_555 1_555
C43_3 C47_3 1_555 1_555
C47_3 C48_3 1_555 1_555
O10 C8_4 1_555 1_555
O13 C8_4 1_555 1_555
H3_4 C4_4 1_555 1_555
C5_4 C4_4 1_555 1_555
C8_4 C5_4 1_555 1_555
H26_4 C44_4 1_555 1_555
C45_4 C44_4 1_555 1_555
H27_4 C45_4 1_555 1_555
Gd3 O1_4 1_555 1_555
O1_4 C7_4 1_555 1_555
O2_4 C7_4 1_555 1_555
N1_4 Gd3 1_555 1_555
N2_4 Gd3 1_555 1_555
C1_4 C2_4 1_555 1_555
C2_4 H1_4 1_555 1_555
C3_4 C2_4 1_555 1_555
H2_4 C3_4 1_555 1_555
C6_4 C1_4 1_555 1_555
H4_4 C6_4 1_555 1_555
C7_4 C1_4 1_555 1_555
C14_4 N1_4 1_555 1_555
H8_4 C14_4 1_555 1_555
C15_4 C14_4 1_555 1_555
H9_4 C15_4 1_555 1_555
C16_4 C15_4 1_555 1_555
H10_4 C16_4 1_555 1_555
C17_4 C16_4 1_555 1_555
C18_4 C17_4 1_555 1_555
H11_4 C18_4 1_555 1_555
C19_4 C18_4 1_555 1_555
H12_4 C19_4 1_555 1_555
C20_4 C19_4 1_555 1_555
C21_4 C20_4 1_555 1_555
H13_4 C21_4 1_555 1_555
C22_4 C21_4 1_555 1_555
H14_4 C22_4 1_555 1_555
C23_4 N2_4 1_555 1_555
H15_4 C23_4 1_555 1_555
C24_4 N2_4 1_555 1_555
C25_4 N1_4 1_555 1_555
Gd4 O2_4 1_555 1_555
O7_4 Gd4 1_555 1_555
O8_4 Gd3 1_555 1_555
O11 C33_4 1_555 1_555
O16_4 Gd4 1_555 1_555
O18_4 Gd4 1_555 1_555
N3_4 Gd4 1_555 1_555
N4_4 Gd4 1_555 1_555
C26_4 C27_4 1_555 1_555
C27_4 H16_4 1_555 1_555
C28_4 C27_4 1_555 1_555
H17_4 C28_4 1_555 1_555
C29_4 C28_4 1_555 1_555
H18_4 C29_4 1_555 1_555
C30_4 C29_4 1_555 1_555
C31_4 C26_4 1_555 1_555
H19_4 C31_4 1_555 1_555
C32_4 O7_4 1_555 1_555
C33_4 O14 1_555 1_555
C37_4 N3_4 1_555 1_555
H21_4 C37_4 1_555 1_555
C38_4 C37_4 1_555 1_555
H22_4 C38_4 1_555 1_555
C39_4 C38_4 1_555 1_555
H23_4 C39_4 1_555 1_555
C40_4 C39_4 1_555 1_555
C41_4 C40_4 1_555 1_555
H24_4 C41_4 1_555 1_555
C42_4 C41_4 1_555 1_555
H25_4 C42_4 1_555 1_555
C43_4 C42_4 1_555 1_555
C46_4 N4_4 1_555 1_555
H28_4 C46_4 1_555 1_555
C47_4 N4_4 1_555 1_555
C48_4 N3_4 1_555 1_555
C17_4 C25_4 1_555 1_555
C20_4 C24_4 1_555 1_555
C22_4 C23_4 1_555 1_555
C24_4 C25_4 1_555 1_555
O8_4 C32_4 1_555 1_555
C26_4 C32_4 1_555 1_555
C30_4 C31_4 1_555 1_555
C30_4 C33_4 1_555 1_555
C40_4 C48_4 1_555 1_555
C43_4 C47_4 1_555 1_555
C47_4 C48_4 1_555 1_555
C9_4 H5_4 1_555 1_555
H7_4 C12_4 1_555 1_555
O16_4 C36_3 1_555 1_555
C34_3 C9_4 1_555 1_555
H20_3 C34_3 1_555 1_555
C35_3 C12_4 1_555 1_555
C36_3 O18_4 1_555 1_555
C34_3 C35_3 1_555 1_555
C35_3 C36_3 1_555 1_555
C9_5 H5_5 1_555 1_555
C10_3 C9_5 1_555 1_555
H6_3 C10_3 1_555 1_555
C11_3 C10_3 1_555 1_555
C12_5 C11_3 1_555 1_555
H7_5 C12_5 1_555 1_555
C13_3 O16_3 1_555 1_555
O18_3 C13_3 1_555 1_555
C11_3 C13_3 1_555 1_555
C10_4 C9_6 1_555 1_555
H6_4 C10_4 1_555 1_555
C11_4 C10_4 1_555 1_555
C12_6 C11_4 1_555 1_555
H7_6 C12_6 1_555 1_555
C13_4 O16 1_555 1_555
O16_2 C36_4 1_555 1_555
C34_4 C9_6 1_555 1_555
H20_4 C34_4 1_555 1_555
C35_4 C12_6 1_555 1_555
C36_4 O18_2 1_555 1_555
O18 C13_4 1_555 1_555
C11_4 C13_4 1_555 1_555
C34_4 C35_4 1_555 1_555
C35_4 C36_4 1_555 1_555

#END
