
###############################################################################
#
# This file contains modified crystal structure data generated from the
# MOF subset of the Cambridge Structural Database (CSD) v543 
# hosted by the Cambridge Crystallographic Data Centre (CCDC).
#
# This work is licensed under the Creative Commons
# Attribution-NonCommercial-ShareAlike 4.0 International License.
# To view a copy of this license, visit
# http://creativecommons.org/licenses/by-nc-sa/4.0/
# or send a letter to
# Creative Commons, PO Box 1866, Mountain View, CA 94042, USA.
#
# CIF created using the CSD Python API on 29 September 2022
# The structure has been converted into the P1 space group
# The structure has a 3D framework
# The original CSD entry EXOYUM is in the monoclinic crystal system
# The framework has been calculated to contain at least 10.0% void space
# The void calculation uses a probe of radius 1.32A, grid spacing 0.4
#
###############################################################################

data_EXOYUM
_chemical_formula_moiety         '(C196 H116 N16 O48 Tb8)n'
_symmetry_cell_setting           triclinic
_symmetry_space_group_name_H-M   'P 1'
_symmetry_Int_Tables_number      1
_space_group_name_Hall           'P 1'
loop_
_symmetry_equiv_pos_site_id
_symmetry_equiv_pos_as_xyz
1 x,y,z
_cell_length_a                   24.002(5)
_cell_length_b                   16.018(4)
_cell_length_c                   11.786(3)
_cell_angle_alpha                90
_cell_angle_beta                 90.115(5)
_cell_angle_gamma                90
_cell_volume                     4531.28
loop_
_atom_site_label
_atom_site_type_symbol
_atom_site_fract_x
_atom_site_fract_y
_atom_site_fract_z
Tb6 Tb 0.331551(5) 0.717421(7) 0.012039(11)
Tb1 Tb 0.168449(5) 0.217421(7) 0.487961(11)
C1 C 0.29248(12) 0.10720(18) 0.2185(3)
C2 C 0.34364(14) 0.1206(2) 0.1660(3)
H1 H 0.3642 0.1682 0.1830
C3 C 0.36384(15) 0.0633(2) 0.0886(4)
H2 H 0.3976 0.0731 0.0525
C6 C 0.26195(12) 0.03583(17) 0.1926(3)
H4 H 0.2272 0.0274 0.2255
C7 C 0.27240(13) 0.16916(18) 0.3055(3)
C9 C 0.0000 0.4548(3) 0.7500
H5 H 0.0000 0.5129 0.7500
C10 C 0.03264(18) 0.4119(2) 0.6736(4)
H6 H 0.0543 0.4412 0.6218
C11 C 0.03341(12) 0.32541(19) 0.6736(3)
C12 C 0.0000 0.2822(2) 0.7500
H7 H 0.0000 0.2242 0.7500
C13 C 0.07299(12) 0.28271(17) 0.5936(3)
C14 C 0.10340(18) 0.3256(3) 0.2736(3)
H8 H 0.1194 0.3688 0.3150
C15 C 0.0732(2) 0.3454(3) 0.1763(4)
H9 H 0.0696 0.4008 0.1538
C16 C 0.0495(2) 0.2847(4) 0.1153(4)
H10 H 0.0290 0.2977 0.0507
C17 C 0.05570(17) 0.2013(3) 0.1493(4)
C18 C 0.0333(2) 0.1316(4) 0.0883(4)
H11 H 0.0114 0.1410 0.0245
C19 C 0.0432(2) 0.0540(4) 0.1211(4)
H12 H 0.0295 0.0103 0.0773
C20 C 0.07443(17) 0.0352(3) 0.2222(4)
C23 C 0.12998(16) 0.0110(2) 0.4227(4)
H15 H 0.1480 0.0016 0.4915
C24 C 0.09508(13) 0.1017(2) 0.2887(3)
C25 C 0.08721(14) 0.1852(3) 0.2492(3)
O1 O 0.22340(9) 0.16158(13) 0.34139(19)
O2 O 0.30690(10) 0.22384(12) 0.33709(19)
O5 O 0.07927(9) 0.20461(13) 0.5959(2)
O6 O 0.10107(9) 0.32775(13) 0.52748(19)
N1 N 0.11045(12) 0.24787(19) 0.3101(2)
N2 N 0.12172(11) 0.08890(17) 0.3897(3)
Tb2 Tb 0.331551(5) 0.282579(7) 0.512039(11)
Tb7 Tb 0.168449(5) 0.782579(7) 0.987961(11)
C26 C 0.20752(12) 0.39280(18) 0.7815(3)
C27 C 0.15636(14) 0.3794(2) 0.8340(3)
H16 H 0.1358 0.3318 0.8170
C28 C 0.13616(15) 0.4367(2) 0.9114(4)
H17 H 0.1024 0.4269 0.9475
C29 C 0.16580(15) 0.5085(2) 0.9353(3)
H18 H 0.1517 0.5472 0.9867
C30 C 0.21674(13) 0.52293(18) 0.8825(3)
C31 C 0.23805(12) 0.46417(17) 0.8074(3)
H19 H 0.2728 0.4726 0.7745
C32 C 0.22760(13) 0.33084(18) 0.6945(3)
C33 C 0.24828(13) 0.60150(18) 0.9100(3)
C37 C 0.39660(18) 0.1744(3) 0.7264(3)
H21 H 0.3806 0.1312 0.6850
C38 C 0.4268(2) 0.1546(3) 0.8237(4)
H22 H 0.4304 0.0992 0.8462
C39 C 0.4505(2) 0.2153(4) 0.8847(4)
H23 H 0.4710 0.2023 0.9493
C40 C 0.44430(17) 0.2987(3) 0.8507(4)
C41 C 0.4667(2) 0.3684(4) 0.9117(4)
H24 H 0.4886 0.3590 0.9755
C42 C 0.4568(2) 0.4460(4) 0.8789(4)
H25 H 0.4705 0.4897 0.9227
C43 C 0.42557(17) 0.4648(3) 0.7778(4)
C44 C 0.4150(2) 0.5457(3) 0.7408(4)
H26 H 0.4269 0.5910 0.7841
C45 C 0.3875(2) 0.5589(3) 0.6423(5)
H27 H 0.3801 0.6129 0.6176
C46 C 0.37002(16) 0.4890(2) 0.5773(4)
H28 H 0.3520 0.4984 0.5085
C47 C 0.40492(13) 0.3983(2) 0.7113(3)
C48 C 0.41279(14) 0.3148(3) 0.7508(3)
O7 O 0.27660(9) 0.33842(13) 0.65861(19)
O8 O 0.19310(10) 0.27616(12) 0.66291(19)
O9 O 0.22098(10) 0.66579(12) 0.93894(19)
O10 O 0.27902(10) 0.16579(12) 0.56106(19)
O11 O 0.22098(10) 0.33421(12) 0.43894(19)
O12 O 0.30032(9) 0.60036(13) 0.9072(2)
O13 O 0.19968(9) 0.10036(13) 0.5928(2)
O14 O 0.30032(9) 0.39964(13) 0.4072(2)
O16 O 0.42073(9) 0.29539(13) 0.4041(2)
O18 O 0.39893(9) 0.17225(13) 0.47252(19)
N3 N 0.38955(12) 0.25213(19) 0.6899(2)
N4 N 0.37828(11) 0.41110(17) 0.6103(3)
C4 C 0.33420(15) 0.9915(2) 0.0647(3)
H3 H 0.3483 0.9528 0.0133
C5 C 0.28326(13) 0.97707(18) 0.1175(3)
C8 C 0.25172(13) 0.89850(18) 0.0900(3)
C21 C 0.0850(2) 0.9543(3) 0.2592(4)
H13 H 0.0731 0.9090 0.2159
C22 C 0.1125(2) 0.9411(3) 0.3577(5)
H14 H 0.1199 0.8871 0.3824
O3 O 0.27902(10) 0.83421(12) 0.06106(19)
O4 O 0.19968(9) 0.89964(13) 0.0928(2)
Tb5 Tb 0.831551(5) 0.217421(7) 0.012039(11)
C9_2 C 1.0000 0.4548(3) 0.7500
H5_2 H 1.0000 0.5129 0.7500
C12_2 C 1.0000 0.2822(2) 0.7500
H7_2 H 1.0000 0.2242 0.7500
C34 C 0.96736(18) 0.4119(2) 0.8264(4)
H20 H 0.9457 0.4412 0.8782
C35 C 0.96659(12) 0.32541(19) 0.8264(3)
C36 C 0.92701(12) 0.28271(17) 0.9064(3)
O15 O 0.92073(9) 0.20461(13) 0.9041(2)
O17 O 0.89893(9) 0.32775(13) 0.97252(19)
C1_2 C 0.70752(12) 0.10720(18) 0.2815(3)
C2_2 C 0.65636(14) 0.1206(2) 0.3340(3)
H1_2 H 0.6358 0.1682 0.3170
C3_2 C 0.63616(15) 0.0633(2) 0.4114(4)
H2_2 H 0.6024 0.0731 0.4475
C6_2 C 0.73805(12) 0.03583(17) 0.3074(3)
H4_2 H 0.7728 0.0274 0.2745
C7_2 C 0.72760(13) 0.16916(18) 0.1945(3)
C14_2 C 0.89660(18) 0.3256(3) 0.2264(3)
H8_2 H 0.8806 0.3688 0.1850
C15_2 C 0.9268(2) 0.3454(3) 0.3237(4)
H9_2 H 0.9304 0.4008 0.3462
C16_2 C 0.9505(2) 0.2847(4) 0.3847(4)
H10_2 H 0.9710 0.2977 0.4493
C17_2 C 0.94430(17) 0.2013(3) 0.3507(4)
C18_2 C 0.9667(2) 0.1316(4) 0.4117(4)
H11_2 H 0.9886 0.1410 0.4755
C19_2 C 0.9568(2) 0.0540(4) 0.3789(4)
H12_2 H 0.9705 0.0103 0.4227
C20_2 C 0.92557(17) 0.0352(3) 0.2778(4)
C23_2 C 0.87002(16) 0.0110(2) 0.0773(4)
H15_2 H 0.8520 0.0016 0.0085
C24_2 C 0.90492(13) 0.1017(2) 0.2113(3)
C25_2 C 0.91279(14) 0.1852(3) 0.2508(3)
O1_2 O 0.77660(9) 0.16158(13) 0.15861(19)
O2_2 O 0.69310(10) 0.22384(12) 0.16291(19)
N1_2 N 0.88955(12) 0.24787(19) 0.1899(2)
N2_2 N 0.87828(11) 0.08890(17) 0.1103(3)
O11_2 O 0.77902(10) 0.33421(12) 0.06106(19)
O14_2 O 0.69968(9) 0.39964(13) 0.0928(2)
O16_2 O 0.57927(9) 0.29539(13) 0.0959(2)
O18_2 O 0.60107(9) 0.17225(13) 0.02748(19)
Tb2_2 Tb 0.668449(5) 0.282579(7) 0.987961(11)
Tb6_2 Tb 0.668449(5) 0.717421(7) 0.487961(11)
Tb7_2 Tb 0.831551(5) 0.782579(7) 0.512039(11)
C26_2 C 0.79248(12) 0.39280(18) 0.7185(3)
C27_2 C 0.84364(14) 0.3794(2) 0.6660(3)
H16_2 H 0.8642 0.3318 0.6830
C28_2 C 0.86384(15) 0.4367(2) 0.5886(4)
H17_2 H 0.8976 0.4269 0.5525
C29_2 C 0.83420(15) 0.5085(2) 0.5647(3)
H18_2 H 0.8483 0.5472 0.5133
C30_2 C 0.78326(13) 0.52293(18) 0.6175(3)
C31_2 C 0.76195(12) 0.46417(17) 0.6926(3)
H19_2 H 0.7272 0.4726 0.7255
C32_2 C 0.77240(13) 0.33084(18) 0.8055(3)
C33_2 C 0.75172(13) 0.60150(18) 0.5900(3)
C37_2 C 0.60340(18) 0.1744(3) 0.7736(3)
H21_2 H 0.6194 0.1312 0.8150
C38_2 C 0.5732(2) 0.1546(3) 0.6763(4)
H22_2 H 0.5696 0.0992 0.6538
C39_2 C 0.5495(2) 0.2153(4) 0.6153(4)
H23_2 H 0.5290 0.2023 0.5507
C40_2 C 0.55570(17) 0.2987(3) 0.6493(4)
C41_2 C 0.5333(2) 0.3684(4) 0.5883(4)
H24_2 H 0.5114 0.3590 0.5245
C42_2 C 0.5432(2) 0.4460(4) 0.6211(4)
H25_2 H 0.5295 0.4897 0.5773
C43_2 C 0.57443(17) 0.4648(3) 0.7222(4)
C44_2 C 0.5850(2) 0.5457(3) 0.7592(4)
H26_2 H 0.5731 0.5910 0.7159
C45_2 C 0.6125(2) 0.5589(3) 0.8577(5)
H27_2 H 0.6199 0.6129 0.8824
C46_2 C 0.62998(16) 0.4890(2) 0.9227(4)
H28_2 H 0.6480 0.4984 0.9915
C47_2 C 0.59508(13) 0.3983(2) 0.7887(3)
C48_2 C 0.58721(14) 0.3148(3) 0.7492(3)
O7_2 O 0.72340(9) 0.33842(13) 0.84139(19)
O8_2 O 0.80690(10) 0.27616(12) 0.83709(19)
O9_2 O 0.77902(10) 0.66579(12) 0.56106(19)
O10_2 O 0.72098(10) 0.16579(12) 0.93894(19)
O12_2 O 0.69968(9) 0.60036(13) 0.5928(2)
O13_2 O 0.80032(9) 0.10036(13) 0.9072(2)
N3_2 N 0.61045(12) 0.25213(19) 0.8101(2)
N4_2 N 0.62172(11) 0.41110(17) 0.8897(3)
C4_2 C 0.66580(15) 0.9915(2) 0.4353(3)
H3_2 H 0.6517 0.9528 0.4867
C5_2 C 0.71674(13) 0.97707(18) 0.3825(3)
C8_2 C 0.74828(13) 0.89850(18) 0.4100(3)
C21_2 C 0.9150(2) 0.9543(3) 0.2408(4)
H13_2 H 0.9269 0.9090 0.2841
C22_2 C 0.8875(2) 0.9411(3) 0.1423(5)
H14_2 H 0.8801 0.8871 0.1176
O3_2 O 0.72098(10) 0.83421(12) 0.43894(19)
O4_2 O 0.80032(9) 0.89964(13) 0.4072(2)
H5_3 H 0.5000 0.0129 0.7500
C29_3 C 0.66580(15) 0.0085(2) 0.9353(3)
H18_3 H 0.6517 0.0472 0.9867
C30_3 C 0.71674(13) 0.02293(18) 0.8825(3)
C33_3 C 0.74828(13) 0.10150(18) 0.9100(3)
C44_3 C 0.9150(2) 0.0457(3) 0.7408(4)
H26_3 H 0.9269 0.0910 0.7841
C45_3 C 0.8875(2) 0.0589(3) 0.6423(5)
H27_3 H 0.8801 0.1129 0.6176
C1_3 C 0.79248(12) 0.60720(18) 0.2185(3)
C2_3 C 0.84364(14) 0.6206(2) 0.1660(3)
H1_3 H 0.8642 0.6682 0.1830
C3_3 C 0.86384(15) 0.5633(2) 0.0886(4)
H2_3 H 0.8976 0.5731 0.0525
C4_3 C 0.83420(15) 0.4915(2) 0.0647(3)
H3_3 H 0.8483 0.4528 0.0133
C5_3 C 0.78326(13) 0.47707(18) 0.1175(3)
C6_3 C 0.76195(12) 0.53583(17) 0.1926(3)
H4_3 H 0.7272 0.5274 0.2255
C7_3 C 0.77240(13) 0.66916(18) 0.3055(3)
C8_3 C 0.75172(13) 0.39850(18) 0.0900(3)
C9_3 C 0.5000 0.9548(3) 0.7500
C10_2 C 0.53264(18) 0.9119(2) 0.6736(4)
H6_2 H 0.5543 0.9412 0.6218
C11_2 C 0.53341(12) 0.82541(19) 0.6736(3)
C12_3 C 0.5000 0.7822(2) 0.7500
H7_3 H 0.5000 0.7242 0.7500
C13_2 C 0.57299(12) 0.78271(17) 0.5936(3)
C14_3 C 0.60340(18) 0.8256(3) 0.2736(3)
H8_3 H 0.6194 0.8688 0.3150
C15_3 C 0.5732(2) 0.8454(3) 0.1763(4)
H9_3 H 0.5696 0.9008 0.1538
C16_3 C 0.5495(2) 0.7847(4) 0.1153(4)
H10_3 H 0.5290 0.7977 0.0507
C17_3 C 0.55570(17) 0.7013(3) 0.1493(4)
C18_3 C 0.5333(2) 0.6316(4) 0.0883(4)
H11_3 H 0.5114 0.6410 0.0245
C19_3 C 0.5432(2) 0.5540(4) 0.1211(4)
H12_3 H 0.5295 0.5103 0.0773
C20_3 C 0.57443(17) 0.5352(3) 0.2222(4)
C21_3 C 0.5850(2) 0.4543(3) 0.2592(4)
H13_3 H 0.5731 0.4090 0.2159
C22_3 C 0.6125(2) 0.4411(3) 0.3577(5)
H14_3 H 0.6199 0.3871 0.3824
C23_3 C 0.62998(16) 0.5110(2) 0.4227(4)
H15_3 H 0.6480 0.5016 0.4915
C24_3 C 0.59508(13) 0.6017(2) 0.2887(3)
C25_3 C 0.58721(14) 0.6852(3) 0.2492(3)
O1_3 O 0.72340(9) 0.66158(13) 0.34139(19)
O2_3 O 0.80690(10) 0.72384(12) 0.33709(19)
O5_2 O 0.57927(9) 0.70461(13) 0.5959(2)
O6_2 O 0.60107(9) 0.82775(13) 0.52748(19)
N1_3 N 0.61045(12) 0.74787(19) 0.3101(2)
N2_3 N 0.62172(11) 0.58890(17) 0.3897(3)
C26_3 C 0.70752(12) 0.89280(18) 0.7815(3)
C27_3 C 0.65636(14) 0.8794(2) 0.8340(3)
H16_3 H 0.6358 0.8318 0.8170
C28_3 C 0.63616(15) 0.9367(2) 0.9114(4)
H17_3 H 0.6024 0.9269 0.9475
C31_3 C 0.73805(12) 0.96417(17) 0.8074(3)
H19_3 H 0.7728 0.9726 0.7745
C32_3 C 0.72760(13) 0.83084(18) 0.6945(3)
C34_2 C 0.46736(18) 0.9119(2) 0.8264(4)
H20_2 H 0.4457 0.9412 0.8782
C35_2 C 0.46659(12) 0.82541(19) 0.8264(3)
C36_2 C 0.42701(12) 0.78271(17) 0.9064(3)
C37_3 C 0.89660(18) 0.6744(3) 0.7264(3)
H21_3 H 0.8806 0.6312 0.6850
C38_3 C 0.9268(2) 0.6546(3) 0.8237(4)
H22_3 H 0.9304 0.5992 0.8462
C39_3 C 0.9505(2) 0.7153(4) 0.8847(4)
H23_3 H 0.9710 0.7023 0.9493
C40_3 C 0.94430(17) 0.7987(3) 0.8507(4)
C41_3 C 0.9667(2) 0.8684(4) 0.9117(4)
H24_3 H 0.9886 0.8590 0.9755
C42_3 C 0.9568(2) 0.9460(4) 0.8789(4)
H25_3 H 0.9705 0.9897 0.9227
C43_3 C 0.92557(17) 0.9648(3) 0.7778(4)
C46_3 C 0.87002(16) 0.9890(2) 0.5773(4)
H28_3 H 0.8520 0.9984 0.5085
C47_3 C 0.90492(13) 0.8983(2) 0.7113(3)
C48_3 C 0.91279(14) 0.8148(3) 0.7508(3)
O7_3 O 0.77660(9) 0.83842(13) 0.65861(19)
O8_3 O 0.69310(10) 0.77616(12) 0.66291(19)
O15_2 O 0.42073(9) 0.70461(13) 0.9041(2)
O16_3 O 0.92073(9) 0.79539(13) 0.4041(2)
O17_2 O 0.39893(9) 0.82775(13) 0.97252(19)
O18_3 O 0.89893(9) 0.67225(13) 0.47252(19)
N3_3 N 0.88955(12) 0.75213(19) 0.6899(2)
N4_3 N 0.87828(11) 0.91110(17) 0.6103(3)
C29_4 C 0.33420(15) 0.0085(2) 0.5647(3)
H18_4 H 0.3483 0.0472 0.5133
C30_4 C 0.28326(13) 0.02293(18) 0.6175(3)
C33_4 C 0.25172(13) 0.10150(18) 0.5900(3)
C44_4 C 0.0850(2) 0.0457(3) 0.7592(4)
H26_4 H 0.0731 0.0910 0.7159
C45_4 C 0.1125(2) 0.0589(3) 0.8577(5)
H27_4 H 0.1199 0.1129 0.8824
C1_4 C 0.20752(12) 0.60720(18) 0.2815(3)
C2_4 C 0.15636(14) 0.6206(2) 0.3340(3)
H1_4 H 0.1358 0.6682 0.3170
C3_4 C 0.13616(15) 0.5633(2) 0.4114(4)
H2_4 H 0.1024 0.5731 0.4475
C4_4 C 0.16580(15) 0.4915(2) 0.4353(3)
H3_4 H 0.1517 0.4528 0.4867
C5_4 C 0.21674(13) 0.47707(18) 0.3825(3)
C6_4 C 0.23805(12) 0.53583(17) 0.3074(3)
H4_4 H 0.2728 0.5274 0.2745
C7_4 C 0.22760(13) 0.66916(18) 0.1945(3)
C8_4 C 0.24828(13) 0.39850(18) 0.4100(3)
C14_4 C 0.39660(18) 0.8256(3) 0.2264(3)
H8_4 H 0.3806 0.8688 0.1850
C15_4 C 0.4268(2) 0.8454(3) 0.3237(4)
H9_4 H 0.4304 0.9008 0.3462
C16_4 C 0.4505(2) 0.7847(4) 0.3847(4)
H10_4 H 0.4710 0.7977 0.4493
C17_4 C 0.44430(17) 0.7013(3) 0.3507(4)
C18_4 C 0.4667(2) 0.6316(4) 0.4117(4)
H11_4 H 0.4886 0.6410 0.4755
C19_4 C 0.4568(2) 0.5540(4) 0.3789(4)
H12_4 H 0.4705 0.5103 0.4227
C20_4 C 0.42557(17) 0.5352(3) 0.2778(4)
C21_4 C 0.4150(2) 0.4543(3) 0.2408(4)
H13_4 H 0.4269 0.4090 0.2841
C22_4 C 0.3875(2) 0.4411(3) 0.1423(5)
H14_4 H 0.3801 0.3871 0.1176
C23_4 C 0.37002(16) 0.5110(2) 0.0773(4)
H15_4 H 0.3520 0.5016 0.0085
C24_4 C 0.40492(13) 0.6017(2) 0.2113(3)
C25_4 C 0.41279(14) 0.6852(3) 0.2508(3)
O1_4 O 0.27660(9) 0.66158(13) 0.15861(19)
O2_4 O 0.19310(10) 0.72384(12) 0.16291(19)
N1_4 N 0.38955(12) 0.74787(19) 0.1899(2)
N2_4 N 0.37828(11) 0.58890(17) 0.1103(3)
O16_4 O 0.07927(9) 0.79539(13) 0.0959(2)
O18_4 O 0.10107(9) 0.67225(13) 0.02748(19)
C26_4 C 0.29248(12) 0.89280(18) 0.7185(3)
C27_4 C 0.34364(14) 0.8794(2) 0.6660(3)
H16_4 H 0.3642 0.8318 0.6830
C28_4 C 0.36384(15) 0.9367(2) 0.5886(4)
H17_4 H 0.3976 0.9269 0.5525
C31_4 C 0.26195(12) 0.96417(17) 0.6926(3)
H19_4 H 0.2272 0.9726 0.7255
C32_4 C 0.27240(13) 0.83084(18) 0.8055(3)
C37_4 C 0.10340(18) 0.6744(3) 0.7736(3)
H21_4 H 0.1194 0.6312 0.8150
C38_4 C 0.0732(2) 0.6546(3) 0.6763(4)
H22_4 H 0.0696 0.5992 0.6538
C39_4 C 0.0495(2) 0.7153(4) 0.6153(4)
H23_4 H 0.0290 0.7023 0.5507
C40_4 C 0.05570(17) 0.7987(3) 0.6493(4)
C41_4 C 0.0333(2) 0.8684(4) 0.5883(4)
H24_4 H 0.0114 0.8590 0.5245
C42_4 C 0.0432(2) 0.9460(4) 0.6211(4)
H25_4 H 0.0295 0.9897 0.5773
C43_4 C 0.07443(17) 0.9648(3) 0.7222(4)
C46_4 C 0.12998(16) 0.9890(2) 0.9227(4)
H28_4 H 0.1480 0.9984 0.9915
C47_4 C 0.09508(13) 0.8983(2) 0.7887(3)
C48_4 C 0.08721(14) 0.8148(3) 0.7492(3)
O7_4 O 0.22340(9) 0.83842(13) 0.84139(19)
O8_4 O 0.30690(10) 0.77616(12) 0.83709(19)
N3_4 N 0.11045(12) 0.75213(19) 0.8101(2)
N4_4 N 0.12172(11) 0.91110(17) 0.8897(3)
C9_4 C -0.0000 0.5452(3) 0.2500
H5_4 H -0.0000 0.4871 0.2500
C12_4 C -0.0000 0.7178(2) 0.2500
H7_4 H -0.0000 0.7758 0.2500
C34_3 C 0.03264(18) 0.5881(2) 0.1736(4)
H20_3 H 0.0543 0.5588 0.1218
C35_3 C 0.03341(12) 0.67459(19) 0.1736(3)
C36_3 C 0.07299(12) 0.71729(17) 0.0936(3)
C9_5 C 1.0000 0.5452(3) 0.2500
H5_5 H 1.0000 0.4871 0.2500
C10_3 C 0.96736(18) 0.5881(2) 0.3264(4)
H6_3 H 0.9457 0.5588 0.3782
C11_3 C 0.96659(12) 0.67459(19) 0.3264(3)
C12_5 C 1.0000 0.7178(2) 0.2500
H7_5 H 1.0000 0.7758 0.2500
C13_3 C 0.92701(12) 0.71729(17) 0.4064(3)
C9_6 C 0.5000 0.0452(3) 0.2500
C10_4 C 0.46736(18) 0.0881(2) 0.3264(4)
H6_4 H 0.4457 0.0588 0.3782
C11_4 C 0.46659(12) 0.17459(19) 0.3264(3)
C12_6 C 0.5000 0.2178(2) 0.2500
H7_6 H 0.5000 0.2758 0.2500
C13_4 C 0.42701(12) 0.21729(17) 0.4064(3)
C34_4 C 0.53264(18) 0.0881(2) 0.1736(4)
H20_4 H 0.5543 0.0588 0.1218
C35_4 C 0.53341(12) 0.17459(19) 0.1736(3)
C36_4 C 0.57299(12) 0.21729(17) 0.0936(3)
H5_6 H 0.5000 0.9871 0.2500
loop_
_geom_bond_atom_site_label_1
_geom_bond_atom_site_label_2
_geom_bond_site_symmetry_1
_geom_bond_site_symmetry_2
Tb1 O1 1_555 1_555
C1 C2 1_555 1_555
C2 H1 1_555 1_555
C3 C2 1_555 1_555
H2 C3 1_555 1_555
C6 C1 1_555 1_555
H4 C6 1_555 1_555
C7 C1 1_555 1_555
C9 H5 1_555 1_555
C10 C9 1_555 1_555
H6 C10 1_555 1_555
C11 C10 1_555 1_555
C12 C11 1_555 1_555
H7 C12 1_555 1_555
C13 C11 1_555 1_555
C14 H8 1_555 1_555
C15 C14 1_555 1_555
H9 C15 1_555 1_555
C16 C15 1_555 1_555
H10 C16 1_555 1_555
C17 C16 1_555 1_555
C18 C17 1_555 1_555
H11 C18 1_555 1_555
C19 C18 1_555 1_555
H12 C19 1_555 1_555
C20 C19 1_555 1_555
H15 C23 1_555 1_555
C24 C20 1_555 1_555
C25 C17 1_555 1_555
O1 C7 1_555 1_555
O2 C7 1_555 1_555
O5 Tb1 1_555 1_555
O6 Tb1 1_555 1_555
N1 Tb1 1_555 1_555
N2 Tb1 1_555 1_555
Tb2 O2 1_555 1_555
Tb7 O9 1_555 1_555
C26 C27 1_555 1_555
C27 H16 1_555 1_555
C28 C27 1_555 1_555
H17 C28 1_555 1_555
C29 C28 1_555 1_555
H18 C29 1_555 1_555
C30 C29 1_555 1_555
C31 C26 1_555 1_555
H19 C31 1_555 1_555
C32 C26 1_555 1_555
C33 C30 1_555 1_555
C37 H21 1_555 1_555
C38 C37 1_555 1_555
H22 C38 1_555 1_555
C39 C38 1_555 1_555
H23 C39 1_555 1_555
C40 C39 1_555 1_555
C41 C40 1_555 1_555
H24 C41 1_555 1_555
C42 C41 1_555 1_555
H25 C42 1_555 1_555
C43 C42 1_555 1_555
C44 C43 1_555 1_555
H26 C44 1_555 1_555
C45 C44 1_555 1_555
H27 C45 1_555 1_555
C46 C45 1_555 1_555
H28 C46 1_555 1_555
C47 C43 1_555 1_555
C48 C40 1_555 1_555
O7 Tb2 1_555 1_555
O8 Tb1 1_555 1_555
O9 C33 1_555 1_555
O10 Tb1 1_555 1_555
O11 Tb1 1_555 1_555
O13 Tb1 1_555 1_555
O14 Tb2 1_555 1_555
O16 Tb2 1_555 1_555
O18 Tb2 1_555 1_555
N3 Tb2 1_555 1_555
N4 Tb2 1_555 1_555
C13 O5 1_555 1_555
C13 O6 1_555 1_555
C14 N1 1_555 1_555
C23 N2 1_555 1_555
C24 C25 1_555 1_555
C24 N2 1_555 1_555
C25 N1 1_555 1_555
Tb2 O10 1_555 1_555
Tb2 O11 1_555 1_555
C30 C31 1_555 1_555
C32 O7 1_555 1_555
C32 O8 1_555 1_555
C33 O12 1_555 1_555
C37 N3 1_555 1_555
C46 N4 1_555 1_555
C47 C48 1_555 1_555
C47 N4 1_555 1_555
C48 N3 1_555 1_555
H3 C4 1_555 1_555
C5 C4 1_555 1_555
C8 C5 1_555 1_555
H13 C21 1_555 1_555
C22 C21 1_555 1_555
H14 C22 1_555 1_555
O3 C8 1_555 1_555
O4 C8 1_555 1_555
Tb6 O3 1_555 1_555
C9_2 H5_2 1_555 1_555
H7_2 C12_2 1_555 1_555
C34 C9_2 1_555 1_555
H20 C34 1_555 1_555
C35 C12_2 1_555 1_555
C36 C35 1_555 1_555
O15 C36 1_555 1_555
C34 C35 1_555 1_555
C36 O17 1_555 1_555
Tb5 O1_2 1_555 1_555
C1_2 C2_2 1_555 1_555
C2_2 H1_2 1_555 1_555
C3_2 C2_2 1_555 1_555
H2_2 C3_2 1_555 1_555
C6_2 C1_2 1_555 1_555
H4_2 C6_2 1_555 1_555
C7_2 C1_2 1_555 1_555
C14_2 H8_2 1_555 1_555
C15_2 C14_2 1_555 1_555
H9_2 C15_2 1_555 1_555
C16_2 C15_2 1_555 1_555
H10_2 C16_2 1_555 1_555
C17_2 C16_2 1_555 1_555
C18_2 C17_2 1_555 1_555
H11_2 C18_2 1_555 1_555
C19_2 C18_2 1_555 1_555
H12_2 C19_2 1_555 1_555
C20_2 C19_2 1_555 1_555
H15_2 C23_2 1_555 1_555
C24_2 C20_2 1_555 1_555
C25_2 C17_2 1_555 1_555
O1_2 C7_2 1_555 1_555
O2_2 C7_2 1_555 1_555
N1_2 Tb5 1_555 1_555
N2_2 Tb5 1_555 1_555
O11_2 Tb5 1_555 1_555
C14_2 N1_2 1_555 1_555
C23_2 N2_2 1_555 1_555
C24_2 C25_2 1_555 1_555
C24_2 N2_2 1_555 1_555
C25_2 N1_2 1_555 1_555
Tb6_2 O9_2 1_555 1_555
Tb7_2 O9_2 1_555 1_555
C26_2 C27_2 1_555 1_555
C27_2 H16_2 1_555 1_555
C28_2 C27_2 1_555 1_555
H17_2 C28_2 1_555 1_555
C29_2 C28_2 1_555 1_555
H18_2 C29_2 1_555 1_555
C30_2 C29_2 1_555 1_555
C31_2 C26_2 1_555 1_555
H19_2 C31_2 1_555 1_555
C32_2 C26_2 1_555 1_555
C33_2 C30_2 1_555 1_555
C37_2 H21_2 1_555 1_555
C38_2 C37_2 1_555 1_555
H22_2 C38_2 1_555 1_555
C39_2 C38_2 1_555 1_555
H23_2 C39_2 1_555 1_555
C40_2 C39_2 1_555 1_555
C41_2 C40_2 1_555 1_555
H24_2 C41_2 1_555 1_555
C42_2 C41_2 1_555 1_555
H25_2 C42_2 1_555 1_555
C43_2 C42_2 1_555 1_555
C44_2 C43_2 1_555 1_555
H26_2 C44_2 1_555 1_555
C45_2 C44_2 1_555 1_555
H27_2 C45_2 1_555 1_555
C46_2 C45_2 1_555 1_555
H28_2 C46_2 1_555 1_555
C47_2 C43_2 1_555 1_555
C48_2 C40_2 1_555 1_555
O7_2 Tb2_2 1_555 1_555
O9_2 C33_2 1_555 1_555
O12_2 Tb6_2 1_555 1_555
N3_2 Tb2_2 1_555 1_555
N4_2 Tb2_2 1_555 1_555
Tb2_2 O10_2 1_555 1_555
C30_2 C31_2 1_555 1_555
C32_2 O7_2 1_555 1_555
C32_2 O8_2 1_555 1_555
C33_2 O12_2 1_555 1_555
C37_2 N3_2 1_555 1_555
C46_2 N4_2 1_555 1_555
C47_2 C48_2 1_555 1_555
C47_2 N4_2 1_555 1_555
C48_2 N3_2 1_555 1_555
H3_2 C4_2 1_555 1_555
C5_2 C4_2 1_555 1_555
C8_2 C5_2 1_555 1_555
H13_2 C21_2 1_555 1_555
C22_2 C21_2 1_555 1_555
H14_2 C22_2 1_555 1_555
O3_2 C8_2 1_555 1_555
O4_2 C8_2 1_555 1_555
Tb7_2 O3_2 1_555 1_555
Tb6_2 O3_2 1_555 1_555
O4_2 Tb7_2 1_555 1_555
H18_3 C29_3 1_555 1_555
C30_3 C29_3 1_555 1_555
C33_3 C30_3 1_555 1_555
H26_3 C44_3 1_555 1_555
C45_3 C44_3 1_555 1_555
H27_3 C45_3 1_555 1_555
O10_2 C33_3 1_555 1_555
C33_3 O13_2 1_555 1_555
Tb6_2 O1_3 1_555 1_555
C1_3 C2_3 1_555 1_555
C2_3 H1_3 1_555 1_555
C3_3 C2_3 1_555 1_555
H2_3 C3_3 1_555 1_555
C4_3 C3_3 1_555 1_555
H3_3 C4_3 1_555 1_555
C5_3 C4_3 1_555 1_555
C6_3 C1_3 1_555 1_555
H4_3 C6_3 1_555 1_555
C7_3 C1_3 1_555 1_555
C8_3 C5_3 1_555 1_555
C10_2 C9_3 1_555 1_555
H6_2 C10_2 1_555 1_555
C11_2 C10_2 1_555 1_555
C12_3 C11_2 1_555 1_555
H7_3 C12_3 1_555 1_555
C13_2 C11_2 1_555 1_555
C14_3 H8_3 1_555 1_555
C15_3 C14_3 1_555 1_555
H9_3 C15_3 1_555 1_555
C16_3 C15_3 1_555 1_555
H10_3 C16_3 1_555 1_555
C17_3 C16_3 1_555 1_555
C18_3 C17_3 1_555 1_555
H11_3 C18_3 1_555 1_555
C19_3 C18_3 1_555 1_555
H12_3 C19_3 1_555 1_555
C20_3 C19_3 1_555 1_555
C21_3 C20_3 1_555 1_555
H13_3 C21_3 1_555 1_555
C22_3 C21_3 1_555 1_555
H14_3 C22_3 1_555 1_555
C23_3 C22_3 1_555 1_555
H15_3 C23_3 1_555 1_555
C24_3 C20_3 1_555 1_555
C25_3 C17_3 1_555 1_555
O1_3 C7_3 1_555 1_555
O2_3 C7_3 1_555 1_555
O11_2 C8_3 1_555 1_555
O14_2 C8_3 1_555 1_555
O5_2 Tb6_2 1_555 1_555
O6_2 Tb6_2 1_555 1_555
N1_3 Tb6_2 1_555 1_555
N2_3 Tb6_2 1_555 1_555
Tb7_2 O2_3 1_555 1_555
C26_3 C27_3 1_555 1_555
C27_3 H16_3 1_555 1_555
C28_3 C27_3 1_555 1_555
H17_3 C28_3 1_555 1_555
C31_3 C26_3 1_555 1_555
H19_3 C31_3 1_555 1_555
C32_3 C26_3 1_555 1_555
C34_2 C9_3 1_555 1_555
H20_2 C34_2 1_555 1_555
C35_2 C12_3 1_555 1_555
C36_2 C35_2 1_555 1_555
C37_3 H21_3 1_555 1_555
C38_3 C37_3 1_555 1_555
H22_3 C38_3 1_555 1_555
C39_3 C38_3 1_555 1_555
H23_3 C39_3 1_555 1_555
C40_3 C39_3 1_555 1_555
C41_3 C40_3 1_555 1_555
H24_3 C41_3 1_555 1_555
C42_3 C41_3 1_555 1_555
H25_3 C42_3 1_555 1_555
C43_3 C42_3 1_555 1_555
H28_3 C46_3 1_555 1_555
C47_3 C43_3 1_555 1_555
C48_3 C40_3 1_555 1_555
O7_3 Tb7_2 1_555 1_555
O8_3 Tb6_2 1_555 1_555
O15_2 C36_2 1_555 1_555
O16_3 Tb7_2 1_555 1_555
O18_3 Tb7_2 1_555 1_555
N3_3 Tb7_2 1_555 1_555
N4_3 Tb7_2 1_555 1_555
C5_3 C6_3 1_555 1_555
C13_2 O5_2 1_555 1_555
C13_2 O6_2 1_555 1_555
C14_3 N1_3 1_555 1_555
C23_3 N2_3 1_555 1_555
C24_3 C25_3 1_555 1_555
C24_3 N2_3 1_555 1_555
C25_3 N1_3 1_555 1_555
C32_3 O7_3 1_555 1_555
C32_3 O8_3 1_555 1_555
C34_2 C35_2 1_555 1_555
C36_2 O17_2 1_555 1_555
C37_3 N3_3 1_555 1_555
C46_3 N4_3 1_555 1_555
C47_3 C48_3 1_555 1_555
C47_3 N4_3 1_555 1_555
C48_3 N3_3 1_555 1_555
H18_4 C29_4 1_555 1_555
C30_4 C29_4 1_555 1_555
C33_4 C30_4 1_555 1_555
H26_4 C44_4 1_555 1_555
C45_4 C44_4 1_555 1_555
H27_4 C45_4 1_555 1_555
O10 C33_4 1_555 1_555
C33_4 O13 1_555 1_555
Tb6 O1_4 1_555 1_555
C1_4 C2_4 1_555 1_555
C2_4 H1_4 1_555 1_555
C3_4 C2_4 1_555 1_555
H2_4 C3_4 1_555 1_555
C4_4 C3_4 1_555 1_555
H3_4 C4_4 1_555 1_555
C5_4 C4_4 1_555 1_555
C6_4 C1_4 1_555 1_555
H4_4 C6_4 1_555 1_555
C7_4 C1_4 1_555 1_555
C8_4 C5_4 1_555 1_555
C14_4 H8_4 1_555 1_555
C15_4 C14_4 1_555 1_555
H9_4 C15_4 1_555 1_555
C16_4 C15_4 1_555 1_555
H10_4 C16_4 1_555 1_555
C17_4 C16_4 1_555 1_555
C18_4 C17_4 1_555 1_555
H11_4 C18_4 1_555 1_555
C19_4 C18_4 1_555 1_555
H12_4 C19_4 1_555 1_555
C20_4 C19_4 1_555 1_555
C21_4 C20_4 1_555 1_555
H13_4 C21_4 1_555 1_555
C22_4 C21_4 1_555 1_555
H14_4 C22_4 1_555 1_555
C23_4 C22_4 1_555 1_555
H15_4 C23_4 1_555 1_555
C24_4 C20_4 1_555 1_555
C25_4 C17_4 1_555 1_555
O1_4 C7_4 1_555 1_555
O2_4 C7_4 1_555 1_555
O11 C8_4 1_555 1_555
O14 C8_4 1_555 1_555
N1_4 Tb6 1_555 1_555
N2_4 Tb6 1_555 1_555
C5_4 C6_4 1_555 1_555
C14_4 N1_4 1_555 1_555
C23_4 N2_4 1_555 1_555
C24_4 C25_4 1_555 1_555
C24_4 N2_4 1_555 1_555
C25_4 N1_4 1_555 1_555
C26_4 C27_4 1_555 1_555
C27_4 H16_4 1_555 1_555
C28_4 C27_4 1_555 1_555
H17_4 C28_4 1_555 1_555
C31_4 C26_4 1_555 1_555
H19_4 C31_4 1_555 1_555
C32_4 C26_4 1_555 1_555
C37_4 H21_4 1_555 1_555
C38_4 C37_4 1_555 1_555
H22_4 C38_4 1_555 1_555
C39_4 C38_4 1_555 1_555
H23_4 C39_4 1_555 1_555
C40_4 C39_4 1_555 1_555
C41_4 C40_4 1_555 1_555
H24_4 C41_4 1_555 1_555
C42_4 C41_4 1_555 1_555
H25_4 C42_4 1_555 1_555
C43_4 C42_4 1_555 1_555
H28_4 C46_4 1_555 1_555
C47_4 C43_4 1_555 1_555
C48_4 C40_4 1_555 1_555
O7_4 Tb7 1_555 1_555
N3_4 Tb7 1_555 1_555
N4_4 Tb7 1_555 1_555
C32_4 O7_4 1_555 1_555
C32_4 O8_4 1_555 1_555
C37_4 N3_4 1_555 1_555
C46_4 N4_4 1_555 1_555
C47_4 C48_4 1_555 1_555
C47_4 N4_4 1_555 1_555
C48_4 N3_4 1_555 1_555
C9_4 H5_4 1_555 1_555
H7_4 C12_4 1_555 1_555
C34_3 C9_4 1_555 1_555
H20_3 C34_3 1_555 1_555
C35_3 C12_4 1_555 1_555
C36_3 C35_3 1_555 1_555
O16_4 C36_3 1_555 1_555
C34_3 C35_3 1_555 1_555
C36_3 O18_4 1_555 1_555
C9_5 H5_5 1_555 1_555
C10_3 C9_5 1_555 1_555
H6_3 C10_3 1_555 1_555
C11_3 C10_3 1_555 1_555
C12_5 C11_3 1_555 1_555
H7_5 C12_5 1_555 1_555
C13_3 C11_3 1_555 1_555
C13_3 O16_3 1_555 1_555
C13_3 O18_3 1_555 1_555
C10_4 C9_6 1_555 1_555
H6_4 C10_4 1_555 1_555
C11_4 C10_4 1_555 1_555
C12_6 C11_4 1_555 1_555
H7_6 C12_6 1_555 1_555
C13_4 C11_4 1_555 1_555
C34_4 C9_6 1_555 1_555
H20_4 C34_4 1_555 1_555
C35_4 C12_6 1_555 1_555
C36_4 C35_4 1_555 1_555
O16_2 C36_4 1_555 1_555
C13_4 O16 1_555 1_555
C13_4 O18 1_555 1_555
C34_4 C35_4 1_555 1_555
C36_4 O18_2 1_555 1_555

#END
