
###############################################################################
#
# This file contains modified crystal structure data generated from the
# MOF subset of the Cambridge Structural Database (CSD) v543 
# hosted by the Cambridge Crystallographic Data Centre (CCDC).
#
# This work is licensed under the Creative Commons
# Attribution-NonCommercial-ShareAlike 4.0 International License.
# To view a copy of this license, visit
# http://creativecommons.org/licenses/by-nc-sa/4.0/
# or send a letter to
# Creative Commons, PO Box 1866, Mountain View, CA 94042, USA.
#
# CIF created using the CSD Python API on 29 September 2022
# The structure has been converted into the P1 space group
# The structure has a 3D framework
# The original CSD entry EXOZIB is in the monoclinic crystal system
# The framework has been calculated to contain at least 10.0% void space
# The void calculation uses a probe of radius 1.32A, grid spacing 0.4
# H atom positions have been added when not included in the experimental data
# Generated hydrogen atom positions removed from atoms on special positions
#
###############################################################################

data_EXOZIB
_chemical_formula_moiety         '(C56 H72 Cu11 N14 O40)n'
_symmetry_cell_setting           triclinic
_symmetry_space_group_name_H-M   'P 1'
_symmetry_Int_Tables_number      1
_space_group_name_Hall           'P 1'
loop_
_symmetry_equiv_pos_site_id
_symmetry_equiv_pos_as_xyz
1 x,y,z
_cell_length_a                   23.65(3)
_cell_length_b                   11.709(16)
_cell_length_c                   12.626(17)
_cell_angle_alpha                90
_cell_angle_beta                 105.079(17)
_cell_angle_gamma                90
_cell_volume                     3375.98
loop_
_atom_site_label
_atom_site_type_symbol
_atom_site_fract_x
_atom_site_fract_y
_atom_site_fract_z
O3 O 0.42989(13) 0.3806(3) 0.0258(3)
O6 O 0.3977(2) 0.0000 0.0276(5)
H3 H 0.3758 0.1992 0.0438
Cu4 Cu 0.48647(3) 0.5000 0.09456(6)
Cu1 Cu 0.01353(3) 0.0000 0.90544(6)
Cu2 Cu 0.0000 0.0000 0.5000
O1 O 0.02711(17) 0.0000 0.7474(4)
O2 O 0.0718(2) 0.0000 0.6144(4)
O4 O 0.45223(13) 0.3819(3) 0.8666(3)
O5 O 0.23986(14) 0.1935(3) 0.8338(4)
N1 N 0.23850(18) 0.0000 0.8288(5)
N2 N 0.31917(14) 0.1000(3) 0.9352(3)
C1 C 0.0730(3) 0.0000 0.7133(6)
C2 C 0.1317(2) 0.0000 0.7967(5)
H1 H 0.1345 0.0670 0.8431
C3 C 0.1819(2) 0.0000 0.7446(5)
C4 C 0.26391(17) 0.1046(4) 0.8636(4)
C5 C 0.3486(2) -0.0000 0.9709(6)
C6 C 0.3495(2) 0.2086(4) 0.9713(4)
H4 H 0.3209 0.2667 0.9759
C7 C 0.3837(2) 0.2465(4) 0.8921(4)
H5 H 0.3562 0.2679 0.8236
H6 H 0.4061 0.1820 0.8770
C8 C 0.42502(17) 0.3451(4) 0.9305(4)
O7 O 0.0000 0.1627(10) 0.5000
Cu5 Cu 0.51353(3) 0.5000 0.90544(6)
O14 O 0.07011(13) 0.1194(3) 0.9742(3)
O23 O 0.04777(13) 0.1181(3) 0.1334(3)
H10 H 0.1795 0.0670 0.6985
O6_2 O 0.3977(2) 1.0000 0.0276(5)
O10 O 0.42989(13) 0.6194(3) 0.0258(3)
H13 H 0.3758 0.8008 0.0438
Cu1_2 Cu 0.01353(3) 1.0000 0.90544(6)
Cu2_2 Cu 0.0000 1.0000 0.5000
O1_2 O 0.02711(17) 1.0000 0.7474(4)
O2_2 O 0.0718(2) 1.0000 0.6144(4)
N1_2 N 0.23850(18) 1.0000 0.8288(5)
C1_2 C 0.0730(3) 1.0000 0.7133(6)
C2_2 C 0.1317(2) 1.0000 0.7967(5)
C3_2 C 0.1819(2) 1.0000 0.7446(5)
H2 H 0.1795 0.9330 0.6985
C5_2 C 0.3486(2) 1.0000 0.9709(6)
O13 O 0.07011(13) 0.8806(3) 0.9742(3)
O17 O 0.45223(13) 0.6181(3) 0.8666(3)
O22 O 0.04777(13) 0.8819(3) 0.1334(3)
O24 O 0.23986(14) 0.8065(3) 0.8338(4)
N4 N 0.31917(14) 0.9000(3) 0.9352(3)
H7 H 0.1345 0.9330 0.8431
C12 C 0.26391(17) 0.8954(4) 0.8636(4)
C16 C 0.3495(2) 0.7914(4) 0.9713(4)
H16 H 0.3209 0.7333 0.9759
C19 C 0.3837(2) 0.7535(4) 0.8921(4)
H19 H 0.3562 0.7321 0.8236
H22 H 0.4061 0.8180 0.8770
C22 C 0.42502(17) 0.6549(4) 0.9305(4)
O28 O -0.0000 0.8373(10) 0.5000
Cu2_3 Cu 1.0000 0.0000 0.5000
O7_2 O 1.0000 0.1627(10) 0.5000
Cu3 Cu 0.98647(3) 0.0000 0.09456(6)
O8 O 0.97289(17) 0.0000 0.2526(4)
O9 O 0.9282(2) 0.0000 0.3856(4)
O16 O 0.92989(13) 0.1194(3) 0.0258(3)
O18 O 0.54777(13) 0.3819(3) 0.1334(3)
O21 O 0.95223(13) 0.1181(3) 0.8666(3)
O25 O 0.76014(14) 0.1935(3) 0.1662(4)
N3 N 0.76150(18) 0.0000 0.1712(5)
N5 N 0.68083(14) 0.1000(3) 0.0648(3)
C9 C 0.9270(3) -0.0000 0.2867(6)
C10 C 0.8683(2) 0.0000 0.2033(5)
H8 H 0.8655 0.0670 0.1569
C11 C 0.8181(2) 0.0000 0.2554(5)
H12 H 0.8205 0.0670 0.3015
C13 C 0.73609(17) 0.1046(4) 0.1364(4)
C15 C 0.6514(2) 0.0000 0.0291(6)
C17 C 0.6505(2) 0.2086(4) 0.0287(4)
H17 H 0.6791 0.2667 0.0241
C20 C 0.6163(2) 0.2465(4) 0.1079(4)
H20 H 0.6438 0.2679 0.1764
H23 H 0.5939 0.1820 0.1230
C23 C 0.57498(17) 0.3451(4) 0.0695(4)
O11 O 0.57011(13) 0.3806(3) 0.9742(3)
O27 O 0.6023(2) 0.0000 0.9724(5)
H14 H 0.6242 0.1992 0.9562
Cu2_4 Cu 1.0000 1.0000 0.5000
Cu3_2 Cu 0.98647(3) 1.0000 0.09456(6)
O8_2 O 0.97289(17) 1.0000 0.2526(4)
O9_2 O 0.9282(2) 1.0000 0.3856(4)
O15 O 0.92989(13) 0.8806(3) 0.0258(3)
O19 O 0.54777(13) 0.6181(3) 0.1334(3)
O20 O 0.95223(13) 0.8819(3) 0.8666(3)
O26 O 0.76014(14) 0.8065(3) 0.1662(4)
N3_2 N 0.76150(18) 1.0000 0.1712(5)
N6 N 0.68083(14) 0.9000(3) 0.0648(3)
C9_2 C 0.9270(3) 1.0000 0.2867(6)
C10_2 C 0.8683(2) 1.0000 0.2033(5)
H9 H 0.8655 0.9330 0.1569
C11_2 C 0.8181(2) 1.0000 0.2554(5)
H11 H 0.8205 0.9330 0.3015
C14 C 0.73609(17) 0.8954(4) 0.1364(4)
C15_2 C 0.6514(2) 1.0000 0.0291(6)
C18 C 0.6505(2) 0.7914(4) 0.0287(4)
H18 H 0.6791 0.7333 0.0241
C21 C 0.6163(2) 0.7535(4) 0.1079(4)
H21 H 0.6438 0.7321 0.1764
H24 H 0.5939 0.8180 0.1230
C24 C 0.57498(17) 0.6549(4) 0.0695(4)
O28_2 O 1.0000 0.8373(10) 0.5000
O12 O 0.57011(13) 0.6194(3) 0.9742(3)
O27_2 O 0.6023(2) 1.0000 0.9724(5)
H15 H 0.6242 0.8008 0.9562
O6_3 O 0.8977(2) 0.5000 0.0276(5)
H3_2 H 0.8758 0.6992 0.0438
H13_2 H 0.8758 0.3008 0.0438
Cu2_5 Cu 0.5000 0.5000 0.5000
O1_3 O 0.52711(17) 0.5000 0.7474(4)
O2_3 O 0.5718(2) 0.5000 0.6144(4)
O5_2 O 0.73986(14) 0.6935(3) 0.8338(4)
N1_3 N 0.73850(18) 0.5000 0.8288(5)
N2_2 N 0.81917(14) 0.6000(3) 0.9352(3)
C1_3 C 0.5730(3) 0.5000 0.7133(6)
C2_3 C 0.6317(2) 0.5000 0.7967(5)
H1_2 H 0.6345 0.5670 0.8431
C3_3 C 0.6819(2) 0.5000 0.7446(5)
H2_2 H 0.6795 0.4330 0.6985
C4_2 C 0.76391(17) 0.6046(4) 0.8636(4)
C5_3 C 0.8486(2) 0.5000 0.9709(6)
C6_2 C 0.8495(2) 0.7086(4) 0.9713(4)
H4_2 H 0.8209 0.7667 0.9759
C7_2 C 0.8837(2) 0.7465(4) 0.8921(4)
H5_2 H 0.8562 0.7679 0.8236
H6_2 H 0.9061 0.6820 0.8770
C8_2 C 0.92502(17) 0.8451(4) 0.9305(4)
O7_3 O 0.5000 0.6627(10) 0.5000
O8_3 O 0.47289(17) 0.5000 0.2526(4)
O9_3 O 0.4282(2) 0.5000 0.3856(4)
O24_2 O 0.73986(14) 0.3065(3) 0.8338(4)
O25_2 O 0.26014(14) 0.6935(3) 0.1662(4)
O26_2 O 0.26014(14) 0.3065(3) 0.1662(4)
N3_3 N 0.26150(18) 0.5000 0.1712(5)
N4_2 N 0.81917(14) 0.4000(3) 0.9352(3)
N5_2 N 0.18083(14) 0.6000(3) 0.0648(3)
N6_2 N 0.18083(14) 0.4000(3) 0.0648(3)
C9_3 C 0.4270(3) 0.5000 0.2867(6)
C10_3 C 0.3683(2) 0.5000 0.2033(5)
H7_2 H 0.6345 0.4330 0.8431
H8_2 H 0.3655 0.5670 0.1569
H9_2 H 0.3655 0.4330 0.1569
C11_3 C 0.3181(2) 0.5000 0.2554(5)
H10_2 H 0.6795 0.5670 0.6985
H11_2 H 0.3205 0.4330 0.3015
H12_2 H 0.3205 0.5670 0.3015
C12_2 C 0.76391(17) 0.3954(4) 0.8636(4)
C13_2 C 0.23609(17) 0.6046(4) 0.1364(4)
C14_2 C 0.23609(17) 0.3954(4) 0.1364(4)
C15_3 C 0.1514(2) 0.5000 0.0291(6)
C16_2 C 0.8495(2) 0.2914(4) 0.9713(4)
C17_2 C 0.1505(2) 0.7086(4) 0.0287(4)
C18_2 C 0.1505(2) 0.2914(4) 0.0287(4)
H16_2 H 0.8209 0.2333 0.9759
H17_2 H 0.1791 0.7667 0.0241
H18_2 H 0.1791 0.2333 0.0241
C19_2 C 0.8837(2) 0.2535(4) 0.8921(4)
C20_2 C 0.1163(2) 0.7465(4) 0.1079(4)
C21_2 C 0.1163(2) 0.2535(4) 0.1079(4)
H19_2 H 0.8562 0.2321 0.8236
H20_2 H 0.1438 0.7679 0.1764
H21_2 H 0.1438 0.2321 0.1764
H22_2 H 0.9061 0.3180 0.8770
H23_2 H 0.0939 0.6820 0.1230
H24_2 H 0.0939 0.3180 0.1230
C22_2 C 0.92502(17) 0.1549(4) 0.9305(4)
C23_2 C 0.07498(17) 0.8451(4) 0.0695(4)
C24_2 C 0.07498(17) 0.1549(4) 0.0695(4)
O28_3 O 0.5000 0.3373(10) 0.5000
O27_3 O 0.1023(2) 0.5000 0.9724(5)
H14_2 H 0.1242 0.6992 0.9562
H15_2 H 0.1242 0.3008 0.9562
loop_
_geom_bond_atom_site_label_1
_geom_bond_atom_site_label_2
_geom_bond_site_symmetry_1
_geom_bond_site_symmetry_2
Cu4 O3 1_555 1_555
Cu1 O1 1_555 1_555
Cu2 O2 1_555 1_555
O1 C1 1_555 1_555
O2 C1 1_555 1_555
O4 C8 1_555 1_555
O5 C4 1_555 1_555
N1 C3 1_555 1_555
N2 C4 1_555 1_555
C1 C2 1_555 1_555
C2 H1 1_555 1_555
C3 C2 1_555 1_555
C4 N1 1_555 1_555
C5 N2 1_555 1_555
C6 N2 1_555 1_555
H4 C6 1_555 1_555
C7 C6 1_555 1_555
H5 C7 1_555 1_555
H6 C7 1_555 1_555
C8 C7 1_555 1_555
O7 Cu2 1_555 1_555
Cu5 O4 1_555 1_555
O14 Cu1 1_555 1_555
H10 C3 1_555 1_555
Cu4 O10 1_555 1_555
Cu1_2 O1_2 1_555 1_555
Cu2_2 O2_2 1_555 1_555
O1_2 C1_2 1_555 1_555
O2_2 C1_2 1_555 1_555
N1_2 C3_2 1_555 1_555
C1_2 C2_2 1_555 1_555
C3_2 C2_2 1_555 1_555
H2 C3_2 1_555 1_555
Cu5 O17 1_555 1_555
O13 Cu1_2 1_555 1_555
O17 C22 1_555 1_555
O24 C12 1_555 1_555
N4 C5_2 1_555 1_555
H7 C2_2 1_555 1_555
C12 N1_2 1_555 1_555
C16 N4 1_555 1_555
H16 C16 1_555 1_555
C19 C16 1_555 1_555
H19 C19 1_555 1_555
H22 C19 1_555 1_555
C22 C19 1_555 1_555
O28 Cu2_2 1_555 1_555
N4 C12 1_555 1_555
O7_2 Cu2_3 1_555 1_555
Cu3 O8 1_555 1_555
Cu4 O18 1_555 1_555
O8 C9 1_555 1_555
O9 Cu2_3 1_555 1_555
O16 Cu3 1_555 1_555
O18 C23 1_555 1_555
O25 C13 1_555 1_555
N3 C11 1_555 1_555
N5 C13 1_555 1_555
C9 O9 1_555 1_555
C10 C9 1_555 1_555
H8 C10 1_555 1_555
C11 C10 1_555 1_555
H12 C11 1_555 1_555
C13 N3 1_555 1_555
C15 N5 1_555 1_555
C17 N5 1_555 1_555
H17 C17 1_555 1_555
C20 C17 1_555 1_555
H20 C20 1_555 1_555
H23 C20 1_555 1_555
C23 C20 1_555 1_555
Cu5 O11 1_555 1_555
Cu3_2 O8_2 1_555 1_555
Cu4 O19 1_555 1_555
O8_2 C9_2 1_555 1_555
O9_2 Cu2_4 1_555 1_555
O15 Cu3_2 1_555 1_555
O19 C24 1_555 1_555
O26 C14 1_555 1_555
N3_2 C11_2 1_555 1_555
N6 C14 1_555 1_555
C9_2 O9_2 1_555 1_555
C10_2 C9_2 1_555 1_555
H9 C10_2 1_555 1_555
C11_2 C10_2 1_555 1_555
H11 C11_2 1_555 1_555
C14 N3_2 1_555 1_555
C18 N6 1_555 1_555
H18 C18 1_555 1_555
C21 C18 1_555 1_555
H21 C21 1_555 1_555
H24 C21 1_555 1_555
C24 C21 1_555 1_555
O28_2 Cu2_4 1_555 1_555
N6 C15_2 1_555 1_555
Cu5 O12 1_555 1_555
Cu5 O1_3 1_555 1_555
Cu2_5 O2_3 1_555 1_555
O1_3 C1_3 1_555 1_555
O2_3 C1_3 1_555 1_555
O20 C8_2 1_555 1_555
O5_2 C4_2 1_555 1_555
N1_3 C3_3 1_555 1_555
N2_2 C4_2 1_555 1_555
C1_3 C2_3 1_555 1_555
C2_3 H1_2 1_555 1_555
C3_3 C2_3 1_555 1_555
H2_2 C3_3 1_555 1_555
C4_2 N1_3 1_555 1_555
C5_3 N2_2 1_555 1_555
C6_2 N2_2 1_555 1_555
H4_2 C6_2 1_555 1_555
C7_2 C6_2 1_555 1_555
H5_2 C7_2 1_555 1_555
H6_2 C7_2 1_555 1_555
C8_2 C7_2 1_555 1_555
O7_3 Cu2_5 1_555 1_555
Cu4 O8_3 1_555 1_555
O8_3 C9_3 1_555 1_555
O9_3 Cu2_5 1_555 1_555
O21 C22_2 1_555 1_555
O22 C23_2 1_555 1_555
O23 C24_2 1_555 1_555
O24_2 C12_2 1_555 1_555
O25_2 C13_2 1_555 1_555
O26_2 C14_2 1_555 1_555
N3_3 C11_3 1_555 1_555
N4_2 C5_3 1_555 1_555
N5_2 C13_2 1_555 1_555
N6_2 C14_2 1_555 1_555
C9_3 O9_3 1_555 1_555
C10_3 C9_3 1_555 1_555
H7_2 C2_3 1_555 1_555
H8_2 C10_3 1_555 1_555
H9_2 C10_3 1_555 1_555
C11_3 C10_3 1_555 1_555
H10_2 C3_3 1_555 1_555
H11_2 C11_3 1_555 1_555
H12_2 C11_3 1_555 1_555
C12_2 N1_3 1_555 1_555
C13_2 N3_3 1_555 1_555
C14_2 N3_3 1_555 1_555
C15_3 N5_2 1_555 1_555
C16_2 N4_2 1_555 1_555
C17_2 N5_2 1_555 1_555
C18_2 N6_2 1_555 1_555
H16_2 C16_2 1_555 1_555
H17_2 C17_2 1_555 1_555
H18_2 C18_2 1_555 1_555
C19_2 C16_2 1_555 1_555
C20_2 C17_2 1_555 1_555
C21_2 C18_2 1_555 1_555
H19_2 C19_2 1_555 1_555
H20_2 C20_2 1_555 1_555
H21_2 C21_2 1_555 1_555
H22_2 C19_2 1_555 1_555
H23_2 C20_2 1_555 1_555
H24_2 C21_2 1_555 1_555
C22_2 C19_2 1_555 1_555
C23_2 C20_2 1_555 1_555
C24_2 C21_2 1_555 1_555
O28_3 Cu2_5 1_555 1_555
N4_2 C12_2 1_555 1_555
N6_2 C15_3 1_555 1_555

#END
