
###############################################################################
#
# This file contains modified crystal structure data generated from the
# MOF subset of the Cambridge Structural Database (CSD) v543 
# hosted by the Cambridge Crystallographic Data Centre (CCDC).
#
# This work is licensed under the Creative Commons
# Attribution-NonCommercial-ShareAlike 4.0 International License.
# To view a copy of this license, visit
# http://creativecommons.org/licenses/by-nc-sa/4.0/
# or send a letter to
# Creative Commons, PO Box 1866, Mountain View, CA 94042, USA.
#
# CIF created using the CSD Python API on 29 September 2022
# The structure has been converted into the P1 space group
# The structure has a 3D framework
# The original CSD entry EXUHEM is in the monoclinic crystal system
# The framework has been calculated to contain at least 10.0% void space
# The void calculation uses a probe of radius 1.32A, grid spacing 0.4
#
###############################################################################

data_EXUHEM
_chemical_formula_moiety         '(C44 H48 Cd2 N8 O8)n'
_symmetry_cell_setting           triclinic
_symmetry_space_group_name_H-M   'P 1'
_symmetry_Int_Tables_number      1
_space_group_name_Hall           'P 1'
loop_
_symmetry_equiv_pos_site_id
_symmetry_equiv_pos_as_xyz
1 x,y,z
_cell_length_a                   13.312(3)
_cell_length_b                   7.316(4)
_cell_length_c                   14.870(3)
_cell_angle_alpha                90
_cell_angle_beta                 91.315(3)
_cell_angle_gamma                90
_cell_volume                     1447.82
loop_
_atom_site_label
_atom_site_type_symbol
_atom_site_fract_x
_atom_site_fract_y
_atom_site_fract_z
C17 C 0.0002(12) 0.018(2) 0.3897(9)
O5 O 0.0290(7) 0.3994(16) 0.0821(7)
O6 O 0.1507(10) 0.242(2) 0.1430(9)
C7 C 0.1964(11) 0.4497(14) 0.0253(8)
H5 H 0.2552 0.4897 0.0609
C19 C 0.1144(13) 0.361(2) 0.0892(11)
H21 H 0.1300 0.7065 0.0126
N1 N 0.1005(11) 0.7956(16) 0.3872(8)
C1 C 0.2176(10) 0.3225(12) 0.3972(12)
H1 H 0.2088 0.2082 0.3708
C2 C 0.3701(11) 0.1466(19) 0.5756(9)
C3 C 0.1662(11) 0.637(2) 0.4083(11)
N2 N 0.0241(10) 0.9967(17) 0.2997(7)
N3 N 0.4304(10) 0.0025(17) 0.5696(7)
C4 C 0.3078(11) 0.5298(16) 0.5031(10)
H2 H 0.3599 0.5500 0.5447
N4 N 0.3521(13) 0.2133(18) 0.4919(10)
C8 C 0.2417(18) 0.659(2) 0.4764(13)
H6 H 0.2458 0.7725 0.5048
C9 C 0.0448(14) 0.884(3) 0.4347(10)
H7 H 0.0350 0.8596 0.4953
C10 C 0.1574(13) 0.471(2) 0.3742(11)
H8 H 0.1066 0.4517 0.3312
C11 C 0.3278(11) 0.2145(18) 0.6503(10)
H9 H 0.2567 0.1924 0.6477
H10 H 0.3566 0.1555 0.7025
H11 H 0.3400 0.3436 0.6539
C12 C 0.2886(13) 0.355(2) 0.4594(11)
C14 C 0.4093(11) 0.1006(16) 0.4274(9)
H13 H 0.4110 0.1098 0.3651
C18 C 0.0877(13) 0.862(2) 0.3018(11)
C20 C 0.132(2) 0.774(3) 0.2155(13)
H18 H 0.1548 0.8682 0.1760
H19 H 0.0816 0.7017 0.1853
H20 H 0.1881 0.6967 0.2324
N1_2 N 0.6005(11) 0.2044(16) 0.8872(8)
C1_2 C 0.7176(10) 0.6775(12) 0.8972(12)
H1_2 H 0.7088 0.7918 0.8708
C3_2 C 0.6662(11) 0.363(2) 0.9083(11)
N2_2 N 0.5241(10) 0.0033(17) 0.7997(7)
N4_2 N 0.8521(13) 0.7867(18) 0.9919(10)
C8_2 C 0.7417(18) 0.341(2) 0.9764(13)
C9_2 C 0.5448(14) 0.116(3) 0.9347(10)
H7_2 H 0.5350 0.1404 0.9953
C10_2 C 0.6574(13) 0.529(2) 0.8742(11)
H8_2 H 0.6066 0.5483 0.8312
C12_2 C 0.7886(13) 0.645(2) 0.9594(11)
C14_2 C 0.9093(11) 0.8994(16) 0.9274(9)
H13_2 H 0.9110 0.8902 0.8651
C18_2 C 0.5877(13) 0.138(2) 0.8018(11)
C20_2 C 0.632(2) 0.226(3) 0.7155(13)
H18_2 H 0.6548 0.1318 0.6760
H19_2 H 0.5816 0.2983 0.6853
H20_2 H 0.6881 0.3033 0.7324
C13 C 0.4599(14) 0.977(2) 0.4843(11)
H12 H 0.5066 0.8908 0.4661
Cd3 Cd 0.47959(16) 0.81614(3) 0.68541(14)
Cd1 Cd 0.97959(16) 0.18386(3) 0.18541(14)
O1 O 0.5290(7) 0.6006(16) 0.5821(7)
O2 O 0.9318(8) 0.4107(14) 0.2880(8)
O3 O 0.6507(10) 0.758(2) 0.6430(9)
C5 C 0.7218(13) 0.3036(18) 0.4064(13)
H3 H 0.6861 0.2144 0.3695
H4 H 0.7748 0.2403 0.4396
C6 C 0.8372(12) 0.365(2) 0.2847(9)
C7_2 C 0.6964(11) 0.5503(14) 0.5253(8)
H5_2 H 0.7552 0.5103 0.5609
C15 C 0.7686(9) 0.4503(16) 0.3452(9)
H14 H 0.7135 0.4997 0.3078
C16 C 0.8126(12) 0.6088(16) 0.3965(10)
H15 H 0.8365 0.7010 0.3553
H16 H 0.8689 0.5684 0.4341
H17 H 0.9604 0.1097 0.4136
C19_2 C 0.6144(13) 0.639(2) 0.5892(11)
C21 C 0.6512(11) 0.387(2) 0.4708(9)
H21_2 H 0.6300 0.2935 0.5126
H22 H 0.5919 0.4287 0.4377
O4 O 0.8129(9) 0.249(2) 0.2273(7)
C22 C 0.7266(16) 0.6906(14) 0.4569(11)
H23 H 0.7506 0.8000 0.4873
H24 H 0.6689 0.7234 0.4193
O2_2 O 0.4318(8) 0.5893(14) 0.7880(8)
C5_2 C 0.2218(13) 0.6964(18) 0.9064(13)
H3_2 H 0.1861 0.7856 0.8695
H4_2 H 0.2748 0.7597 0.9396
C6_2 C 0.3372(12) 0.635(2) 0.7847(9)
C15_2 C 0.2686(9) 0.5497(16) 0.8452(9)
H14_2 H 0.2135 0.5003 0.8078
C16_2 C 0.3126(12) 0.3912(16) 0.8965(10)
H15_2 H 0.3365 0.2990 0.8553
H16_2 H 0.3689 0.4316 0.9341
C17_2 C 0.5002(12) 0.982(2) 0.8897(9)
H17_2 H 0.4604 0.8903 0.9136
C21_2 C 0.1512(11) 0.613(2) 0.9708(9)
H22_2 H 0.0919 0.5713 0.9377
O4_2 O 0.3129(9) 0.751(2) 0.7273(7)
C22_2 C 0.2266(16) 0.3094(14) 0.9569(11)
H23_2 H 0.2506 0.2000 0.9873
H24_2 H 0.1689 0.2766 0.9193
N5 N 0.9304(10) 0.9975(17) 0.0696(7)
C2_2 C 0.8701(11) 0.8534(19) 0.0756(9)
C4_2 C 0.8078(11) 0.4702(16) 0.0031(10)
H2_2 H 0.8599 0.4500 0.0447
H6_2 H 0.7458 0.2275 0.0048
C11_2 C 0.8278(11) 0.7855(18) 0.1503(10)
H9_2 H 0.7567 0.8076 0.1477
H10_2 H 0.8566 0.8445 0.2025
H11_2 H 0.8400 0.6564 0.1539
H12_2 H 0.0066 0.1092 0.9661
C13_2 C 0.9599(14) 0.023(2) 0.9843(11)
loop_
_geom_bond_atom_site_label_1
_geom_bond_atom_site_label_2
_geom_bond_site_symmetry_1
_geom_bond_site_symmetry_2
O5 C19 1_555 1_555
O6 C19 1_555 1_555
C7 H5 1_555 1_555
C19 C7 1_555 1_555
N1 C3 1_555 1_555
C1 H1 1_555 1_555
C2 N3 1_555 1_555
C3 C8 1_555 1_555
C4 H2 1_555 1_555
N4 C2 1_555 1_555
C8 C4 1_555 1_555
H6 C8 1_555 1_555
C9 N1 1_555 1_555
H7 C9 1_555 1_555
C10 C1 1_555 1_555
H8 C10 1_555 1_555
C11 C2 1_555 1_555
H9 C11 1_555 1_555
H10 C11 1_555 1_555
H11 C11 1_555 1_555
C12 C1 1_555 1_555
C14 N4 1_555 1_555
H13 C14 1_555 1_555
C18 N1 1_555 1_555
C20 C18 1_555 1_555
H18 C20 1_555 1_555
H19 C20 1_555 1_555
H20 C20 1_555 1_555
C3 C10 1_555 1_555
N2 C18 1_555 1_555
C4 C12 1_555 1_555
N4 C12 1_555 1_555
N1_2 C3_2 1_555 1_555
C1_2 H1_2 1_555 1_555
C3_2 C8_2 1_555 1_555
C9_2 N1_2 1_555 1_555
H7_2 C9_2 1_555 1_555
C10_2 C1_2 1_555 1_555
H8_2 C10_2 1_555 1_555
C12_2 C1_2 1_555 1_555
C14_2 N4_2 1_555 1_555
H13_2 C14_2 1_555 1_555
C18_2 N1_2 1_555 1_555
C20_2 C18_2 1_555 1_555
H18_2 C20_2 1_555 1_555
H19_2 C20_2 1_555 1_555
H20_2 C20_2 1_555 1_555
C3_2 C10_2 1_555 1_555
N2_2 C18_2 1_555 1_555
N4_2 C12_2 1_555 1_555
C13 H12 1_555 1_555
Cd1 O2 1_555 1_555
O1 C19_2 1_555 1_555
O2 C6 1_555 1_555
O3 C19_2 1_555 1_555
C5 H3 1_555 1_555
H4 C5 1_555 1_555
C6 C15 1_555 1_555
C7_2 H5_2 1_555 1_555
C15 C5 1_555 1_555
H14 C15 1_555 1_555
C16 C15 1_555 1_555
H15 C16 1_555 1_555
H16 C16 1_555 1_555
C19_2 C7_2 1_555 1_555
C21 C5 1_555 1_555
H21_2 C21 1_555 1_555
H22 C21 1_555 1_555
O4 Cd1 1_555 1_555
C22 C7_2 1_555 1_555
H23 C22 1_555 1_555
H24 C22 1_555 1_555
Cd3 O1 1_555 1_555
O3 Cd3 1_555 1_555
C6 O4 1_555 1_555
C7_2 C21 1_555 1_555
C16 C22 1_555 1_555
Cd3 O2_2 1_555 1_555
O2_2 C6_2 1_555 1_555
C5_2 H3_2 1_555 1_555
H4_2 C5_2 1_555 1_555
C6_2 C15_2 1_555 1_555
C15_2 C5_2 1_555 1_555
H14_2 C15_2 1_555 1_555
C16_2 C15_2 1_555 1_555
H15_2 C16_2 1_555 1_555
H16_2 C16_2 1_555 1_555
H17_2 C17_2 1_555 1_555
C21_2 C5_2 1_555 1_555
H22_2 C21_2 1_555 1_555
O4_2 Cd3 1_555 1_555
H23_2 C22_2 1_555 1_555
H24_2 C22_2 1_555 1_555
C6_2 O4_2 1_555 1_555
C16_2 C22_2 1_555 1_555
C2_2 N5 1_555 1_555
C4_2 H2_2 1_555 1_555
C11_2 C2_2 1_555 1_555
H9_2 C11_2 1_555 1_555
H10_2 C11_2 1_555 1_555
H11_2 C11_2 1_555 1_555

#END
