
###############################################################################
#
# This file contains modified crystal structure data generated from the
# MOF subset of the Cambridge Structural Database (CSD) v543 
# hosted by the Cambridge Crystallographic Data Centre (CCDC).
#
# This work is licensed under the Creative Commons
# Attribution-NonCommercial-ShareAlike 4.0 International License.
# To view a copy of this license, visit
# http://creativecommons.org/licenses/by-nc-sa/4.0/
# or send a letter to
# Creative Commons, PO Box 1866, Mountain View, CA 94042, USA.
#
# CIF created using the CSD Python API on 29 September 2022
# The structure has been converted into the P1 space group
# The structure has a 3D framework
# The original CSD entry EXUHUC is in the rhombohedral crystal system
# The framework has been calculated to contain at least 10.0% void space
# The void calculation uses a probe of radius 1.32A, grid spacing 0.4
#
###############################################################################

data_EXUHUC
_chemical_formula_moiety         '(C198 H202 Mn29 N36 O144)n'
_symmetry_cell_setting           triclinic
_symmetry_space_group_name_H-M   'P 1'
_symmetry_Int_Tables_number      1
_space_group_name_Hall           'P 1'
loop_
_symmetry_equiv_pos_site_id
_symmetry_equiv_pos_as_xyz
1 x,y,z
_cell_length_a                   25.4614(9)
_cell_length_b                   25.4614(9)
_cell_length_c                   14.2628(10)
_cell_angle_alpha                90
_cell_angle_beta                 90
_cell_angle_gamma                120
_cell_volume                     8007.56
loop_
_atom_site_label
_atom_site_type_symbol
_atom_site_fract_x
_atom_site_fract_y
_atom_site_fract_z
Mn1 Mn 0.08062(3) 0.40207(3) 0.18801(4)
Mn2 Mn -0.0000 0.5000 0.5000
O1 O 0.06808(15) 0.41727(14) 0.33383(19)
N1 N 0.09096(16) 0.49346(16) 0.1908(2)
O2 O 0.0591(2) 0.47636(18) 0.4368(2)
C1 C 0.09470(19) 0.53713(18) 0.1332(3)
C2 C 0.1144(2) 0.54213(19) 0.0345(3)
C3 C 0.0655(2) 0.4640(2) 0.3542(3)
C4 C 0.07294(18) 0.50515(18) 0.2755(3)
C9 C 0.1591(3) 0.5289(3) 0.0115(4)
H4 H 0.1773 0.5179 0.0582
C10 C 0.06606(18) 0.55569(18) 0.2651(3)
O3 O 0.0322(2) 0.57486(17) 0.4108(2)
C11 C 0.0477(2) 0.58981(19) 0.3279(3)
O5 O 0.04729(16) 0.63524(14) 0.2916(2)
N2 N 0.08010(15) 0.57557(14) 0.1739(2)
O6 O 0.0542(2) 0.31045(16) 0.2386(3)
H6 H 0.0280 0.3003 0.2791
O8 O 0.0713(3) 0.5547(3) 0.6017(3)
H8 H 0.1024 0.5784 0.5737
H9 H 0.000(7) 0.3966(14) 0.148(6)
H10 H 0.070(5) 0.582(3) 0.636(10)
H11 H 0.033(4) 0.280(4) 0.203(7)
O15 O 0.02202(17) 0.6404(3) 0.8328(3)
H18 H 0.0312 0.6545 0.8859
H20 H 0.000(7) 0.6034(14) 0.852(6)
Mn5 Mn 0.06874(3) 0.65478(4) 0.14532(4)
O18 O 0.07872(21) 0.38062(16) 0.0417(2)
N6 N 0.17120(21) 0.41343(15) 0.1594(2)
Mn2_2 Mn 1.0000 0.5000 0.5000
O7 O 0.97798(17) 0.3596(3) 0.1672(3)
H7 H 0.9688 0.3455 0.1141
H9_2 H 1.000(7) 0.3966(14) 0.148(6)
Mn3 Mn 0.91938(3) 0.59793(3) 0.81199(4)
O9 O 0.93192(15) 0.58273(14) 0.66617(19)
N3 N 0.90904(16) 0.50654(16) 0.8092(2)
O10 O 0.9409(2) 0.52364(18) 0.5632(2)
C12 C 0.90530(19) 0.46287(18) 0.8668(3)
C13 C 0.8856(2) 0.45787(19) 0.9655(3)
C14 C 0.9345(2) 0.5360(2) 0.6458(3)
C15 C 0.92706(18) 0.49485(18) 0.7245(3)
C20 C 0.8409(3) 0.4711(3) 0.9885(4)
H15 H 0.8227 0.4821 0.9418
C21 C 0.93394(18) 0.44431(18) 0.7349(3)
O11 O 0.9678(2) 0.42514(17) 0.5892(2)
C22 C 0.9523(2) 0.41019(19) 0.6721(3)
O13 O 0.95271(16) 0.36476(14) 0.7084(2)
N4 N 0.91990(15) 0.42443(14) 0.8261(2)
O14 O 0.9458(2) 0.68955(16) 0.7614(3)
H17 H 0.9720 0.6997 0.7209
O16 O 0.9287(3) 0.4453(3) 0.3983(3)
H19 H 0.8976 0.4216 0.4263
H20_2 H 1.000(7) 0.6034(14) 0.852(6)
H21 H 0.930(5) 0.418(3) 0.364(10)
H22 H 0.967(4) 0.720(4) 0.797(7)
Mn4 Mn 0.93126(3) 0.34522(4) 0.85468(4)
O17 O 0.92128(21) 0.61938(16) 0.9583(2)
N5 N 0.82880(21) 0.58657(15) 0.8406(2)
Mn1_2 Mn 0.59793(3) 0.67855(4) 0.18801(4)
Mn2_3 Mn 0.5000 0.5000 0.5000
O1_2 O 0.58273(14) 0.65081(21) 0.33383(19)
N1_2 N 0.50654(16) 0.59750(23) 0.1908(2)
O2_2 O 0.52364(18) 0.58274(27) 0.4368(2)
C1_2 C 0.46287(18) 0.55757(26) 0.1332(3)
C2_2 C 0.45787(19) 0.57227(28) 0.0345(3)
C3_2 C 0.5360(2) 0.6015(3) 0.3542(3)
C4_2 C 0.49485(18) 0.56779(25) 0.2755(3)
C9_2 C 0.4711(3) 0.6302(4) 0.0115(4)
H4_2 H 0.4821 0.6594 0.0582
C10_2 C 0.44431(18) 0.51037(25) 0.2651(3)
O3_2 O 0.42514(17) 0.45734(26) 0.4108(2)
C11_2 C 0.41019(19) 0.45789(28) 0.3279(3)
O5_2 O 0.36476(14) 0.41205(21) 0.2916(2)
N2_2 N 0.42443(14) 0.50453(21) 0.1739(2)
O6_2 O 0.68955(16) 0.74375(26) 0.2386(3)
H6_2 H 0.6997 0.7277 0.2791
O7_2 O 0.6404(3) 0.61838(34) 0.1672(3)
H7_2 H 0.6545 0.6233 0.1141
O8_2 O 0.4453(3) 0.5166(4) 0.6017(3)
H8_2 H 0.4216 0.5240 0.5737
H9_3 H 0.6034(14) 0.6034(71) 0.148(6)
H10_2 H 0.418(3) 0.488(6) 0.636(10)
H11_2 H 0.720(4) 0.753(6) 0.203(7)
Mn3_2 Mn 0.40207(3) 0.32145(4) 0.81199(4)
O9_2 O 0.41727(14) 0.34919(21) 0.66617(19)
N3_2 N 0.49346(16) 0.40250(23) 0.8092(2)
O10_2 O 0.47636(18) 0.41726(27) 0.5632(2)
C12_2 C 0.53713(18) 0.44243(26) 0.8668(3)
C13_2 C 0.54213(19) 0.42773(28) 0.9655(3)
C14_2 C 0.4640(2) 0.3985(3) 0.6458(3)
C15_2 C 0.50515(18) 0.43221(25) 0.7245(3)
C20_2 C 0.5289(3) 0.3698(4) 0.9885(4)
H15_2 H 0.5179 0.3406 0.9418
C21_2 C 0.55569(18) 0.48963(25) 0.7349(3)
O11_2 O 0.57486(17) 0.54266(26) 0.5892(2)
C22_2 C 0.58981(19) 0.54211(28) 0.6721(3)
O13_2 O 0.63524(14) 0.58795(21) 0.7084(2)
N4_2 N 0.57557(14) 0.49547(21) 0.8261(2)
O14_2 O 0.31045(16) 0.25625(26) 0.7614(3)
H17_2 H 0.3003 0.2723 0.7209
O15_2 O 0.3596(3) 0.38162(34) 0.8328(3)
H18_2 H 0.3455 0.3767 0.8859
O16_2 O 0.5547(3) 0.4834(4) 0.3983(3)
H19_2 H 0.5784 0.4760 0.4263
H20_3 H 0.3966(14) 0.3966(71) 0.852(6)
H21_2 H 0.582(3) 0.512(6) 0.364(10)
H22_2 H 0.280(4) 0.247(6) 0.797(7)
Mn4_2 Mn 0.65478(4) 0.58605(5) 0.85468(4)
Mn5_2 Mn 0.34522(4) 0.41395(5) 0.14532(4)
O17_2 O 0.38062(16) 0.30191(26) 0.9583(2)
O18_2 O 0.61938(16) 0.69809(26) 0.0417(2)
N5_2 N 0.41343(15) 0.24224(26) 0.8406(2)
N6_2 N 0.58657(15) 0.75776(26) 0.1594(2)
Mn2_4 Mn 0.5000 0.0000 0.5000
O7_3 O 0.38162(34) 0.02202(17) 0.1672(3)
H7_3 H 0.3767 0.0312 0.1141
H9_4 H 0.3966(71) -0.000(7) 0.148(6)
Mn3_3 Mn 0.67855(4) 0.08062(3) 0.81199(4)
O9_3 O 0.65081(21) 0.06808(15) 0.66617(19)
N3_3 N 0.59750(23) 0.09096(16) 0.8092(2)
O10_3 O 0.58274(27) 0.0591(2) 0.5632(2)
C12_3 C 0.55757(26) 0.09470(19) 0.8668(3)
C13_3 C 0.57227(28) 0.1144(2) 0.9655(3)
C14_3 C 0.6015(3) 0.0655(2) 0.6458(3)
C15_3 C 0.56779(25) 0.07294(18) 0.7245(3)
C20_3 C 0.6302(4) 0.1591(3) 0.9885(4)
H15_3 H 0.6594 0.1773 0.9418
C21_3 C 0.51037(25) 0.06606(18) 0.7349(3)
O11_3 O 0.45734(26) 0.0322(2) 0.5892(2)
C22_3 C 0.45789(28) 0.0477(2) 0.6721(3)
O13_3 O 0.41205(21) 0.04729(16) 0.7084(2)
N4_3 N 0.50453(21) 0.08010(15) 0.8261(2)
O14_3 O 0.74375(26) 0.0542(2) 0.7614(3)
H17_3 H 0.7277 0.0280 0.7209
O16_3 O 0.5166(4) 0.0713(3) 0.3983(3)
H19_3 H 0.5240 0.1024 0.4263
H20_4 H 0.6034(71) -0.000(7) 0.852(6)
H21_3 H 0.488(6) 0.070(5) 0.364(10)
H22_3 H 0.753(6) 0.033(4) 0.797(7)
Mn4_3 Mn 0.41395(5) 0.06874(3) 0.85468(4)
O17_3 O 0.69809(26) 0.07872(21) 0.9583(2)
N5_3 N 0.75776(26) 0.17120(21) 0.8406(2)
Mn1_3 Mn 0.32145(4) 0.91938(3) 0.18801(4)
Mn2_5 Mn 0.5000 1.0000 0.5000
O1_3 O 0.34919(21) 0.93192(15) 0.33383(19)
N1_3 N 0.40250(23) 0.90904(16) 0.1908(2)
O2_3 O 0.41726(27) 0.9409(2) 0.4368(2)
C1_3 C 0.44243(26) 0.90530(19) 0.1332(3)
C2_3 C 0.42773(28) 0.8856(2) 0.0345(3)
C3_3 C 0.3985(3) 0.9345(2) 0.3542(3)
C4_3 C 0.43221(25) 0.92706(18) 0.2755(3)
C9_3 C 0.3698(4) 0.8409(3) 0.0115(4)
H4_3 H 0.3406 0.8227 0.0582
C10_3 C 0.48963(25) 0.93394(18) 0.2651(3)
O3_3 O 0.54266(26) 0.9678(2) 0.4108(2)
C11_3 C 0.54211(28) 0.9523(2) 0.3279(3)
O5_3 O 0.58795(21) 0.95271(16) 0.2916(2)
N2_3 N 0.49547(21) 0.91990(15) 0.1739(2)
O6_3 O 0.25625(26) 0.9458(2) 0.2386(3)
H6_3 H 0.2723 0.9720 0.2791
O8_3 O 0.4834(4) 0.9287(3) 0.6017(3)
H8_3 H 0.4760 0.8976 0.5737
H9_5 H 0.3966(71) 1.000(7) 0.148(6)
H10_3 H 0.512(6) 0.930(5) 0.636(10)
H11_3 H 0.247(6) 0.967(4) 0.203(7)
O15_3 O 0.61838(34) 0.97798(17) 0.8328(3)
H18_3 H 0.6233 0.9688 0.8859
H20_5 H 0.6034(71) 1.000(7) 0.852(6)
Mn5_3 Mn 0.58605(5) 0.93126(3) 0.14532(4)
O18_3 O 0.30191(26) 0.92128(21) 0.0417(2)
N6_3 N 0.24224(26) 0.82880(21) 0.1594(2)
N3_4 N 0.57571(16) 0.83987(16) 0.1425(2)
C12_4 C 0.57197(19) 0.79620(18) 0.2001(3)
C13_4 C 0.5523(2) 0.79120(19) 0.2988(3)
C15_4 C 0.59373(18) 0.82818(18) 0.0578(3)
C16 C 0.5159(3) 0.7856(3) 0.4840(4)
H12 H 0.5033 0.7830 0.5459
C17 C 0.5799(2) 0.7758(2) 0.3699(3)
H13 H 0.6103 0.7671 0.3552
C18 C 0.5620(3) 0.7734(3) 0.4618(3)
C19 C 0.4894(3) 0.8013(3) 0.4155(4)
H14 H 0.4590 0.8100 0.4306
C20_4 C 0.5076(3) 0.8044(3) 0.3218(4)
H15_4 H 0.4894 0.8154 0.2751
C21_4 C 0.60061(18) 0.77764(18) 0.0682(3)
C22_4 C 0.6190(2) 0.74352(19) 0.0054(3)
O12 O 0.5857(4) 0.7581(4) 0.5333(4)
H16 H 0.5873 0.7776 0.5800
O15_4 O 0.68869(17) 0.9737(3) 0.1661(3)
H18_4 H 0.6979 0.9878 0.2192
H20_6 H 0.667(7) 0.9367(14) 0.185(6)
N3_5 N 0.16013(16) 0.73583(23) 0.1425(2)
C12_5 C 0.20380(18) 0.77576(26) 0.2001(3)
C13_5 C 0.20880(19) 0.76106(28) 0.2988(3)
C15_5 C 0.17182(18) 0.76554(25) 0.0578(3)
C16_2 C 0.2144(3) 0.7302(4) 0.4840(4)
H12_2 H 0.2170 0.7202 0.5459
C17_2 C 0.2242(2) 0.8040(3) 0.3699(3)
H13_2 H 0.2329 0.8431 0.3552
C18_2 C 0.2266(3) 0.7885(4) 0.4618(3)
C19_2 C 0.1987(3) 0.6880(4) 0.4155(4)
H14_2 H 0.1900 0.6489 0.4306
C20_5 C 0.1956(3) 0.7031(4) 0.3218(4)
H15_5 H 0.1846 0.6739 0.2751
C21_5 C 0.22236(18) 0.82296(25) 0.0682(3)
C22_5 C 0.25648(19) 0.87544(28) 0.0054(3)
O12_2 O 0.2419(4) 0.8275(6) 0.5333(4)
H16_2 H 0.2224 0.8096 0.5800
O15_5 O 0.0263(3) 0.71495(34) 0.1661(3)
H18_5 H 0.0122 0.7100 0.2192
H20_7 H 0.0633(14) 0.7299(71) 0.185(6)
N3_6 N 0.26417(23) 0.42429(16) 0.1425(2)
C12_6 C 0.22424(26) 0.42803(19) 0.2001(3)
C13_6 C 0.23894(28) 0.4477(2) 0.2988(3)
C15_6 C 0.23446(25) 0.40627(18) 0.0578(3)
C16_3 C 0.2698(4) 0.4841(3) 0.4840(4)
H12_3 H 0.2798 0.4967 0.5459
C17_3 C 0.1960(3) 0.4201(2) 0.3699(3)
H13_3 H 0.1569 0.3897 0.3552
C18_3 C 0.2115(4) 0.4380(3) 0.4618(3)
C19_3 C 0.3120(4) 0.5106(3) 0.4155(4)
H14_3 H 0.3511 0.5410 0.4306
C20_6 C 0.2969(4) 0.4924(3) 0.3218(4)
H15_6 H 0.3261 0.5106 0.2751
C21_6 C 0.17704(25) 0.39939(18) 0.0682(3)
C22_6 C 0.12456(28) 0.3810(2) 0.0054(3)
O12_3 O 0.1725(6) 0.4143(4) 0.5333(4)
H16_3 H 0.1904 0.4127 0.5800
O14_4 O 0.41042(26) 0.3875(2) 0.0947(3)
H17_4 H 0.3944 0.3613 0.0542
O15_6 O 0.28505(34) 0.31131(17) 0.1661(3)
H18_6 H 0.2900 0.3021 0.2192
H20_8 H 0.2701(71) 0.333(7) 0.185(6)
H22_4 H 0.420(6) 0.366(4) 0.130(7)
N1_4 N 0.42429(16) 0.16013(16) 0.8575(2)
C1_4 C 0.42803(19) 0.20380(18) 0.7999(3)
C2_4 C 0.4477(2) 0.20880(19) 0.7012(3)
C4_4 C 0.40627(18) 0.17182(18) 0.9422(3)
C5 C 0.4841(3) 0.2144(3) 0.5160(4)
H1 H 0.4967 0.2170 0.4541
C6 C 0.4201(2) 0.2242(2) 0.6301(3)
H2 H 0.3897 0.2329 0.6448
C7 C 0.4380(3) 0.2266(3) 0.5382(3)
C8 C 0.5106(3) 0.1987(3) 0.5845(4)
H3 H 0.5410 0.1900 0.5694
C9_4 C 0.4924(3) 0.1956(3) 0.6782(4)
H4_4 H 0.5106 0.1846 0.7249
C10_4 C 0.39939(18) 0.22236(18) 0.9318(3)
C11_4 C 0.3810(2) 0.25648(19) 0.9946(3)
O4 O 0.4143(4) 0.2419(4) 0.4667(4)
H5 H 0.4127 0.2224 0.4200
O7_4 O 0.31131(17) 0.0263(3) 0.8339(3)
H7_4 H 0.3021 0.0122 0.7808
H9_6 H 0.333(7) 0.0633(14) 0.815(6)
N1_5 N 0.83987(16) 0.26417(23) 0.8575(2)
C1_5 C 0.79620(18) 0.22424(26) 0.7999(3)
C2_5 C 0.79120(19) 0.23894(28) 0.7012(3)
C4_5 C 0.82818(18) 0.23446(25) 0.9422(3)
C5_2 C 0.7856(3) 0.2698(4) 0.5160(4)
H1_2 H 0.7830 0.2798 0.4541
C6_2 C 0.7758(2) 0.1960(3) 0.6301(3)
H2_2 H 0.7671 0.1569 0.6448
C7_2 C 0.7734(3) 0.2115(4) 0.5382(3)
C8_2 C 0.8013(3) 0.3120(4) 0.5845(4)
H3_2 H 0.8100 0.3511 0.5694
C9_5 C 0.8044(3) 0.2969(4) 0.6782(4)
H4_5 H 0.8154 0.3261 0.7249
C10_5 C 0.77764(18) 0.17704(25) 0.9318(3)
C11_5 C 0.74352(19) 0.12456(28) 0.9946(3)
O4_2 O 0.7581(4) 0.1725(6) 0.4667(4)
H5_2 H 0.7776 0.1904 0.4200
O7_5 O 0.9737(3) 0.28505(34) 0.8339(3)
H7_5 H 0.9878 0.2900 0.7808
H9_7 H 0.9367(14) 0.2701(71) 0.815(6)
N1_6 N 0.73583(23) 0.57571(16) 0.8575(2)
C1_6 C 0.77576(26) 0.57197(19) 0.7999(3)
C2_6 C 0.76106(28) 0.5523(2) 0.7012(3)
C4_6 C 0.76554(25) 0.59373(18) 0.9422(3)
C5_3 C 0.7302(4) 0.5159(3) 0.5160(4)
H1_3 H 0.7202 0.5033 0.4541
C6_3 C 0.8040(3) 0.5799(2) 0.6301(3)
H2_3 H 0.8431 0.6103 0.6448
C7_3 C 0.7885(4) 0.5620(3) 0.5382(3)
C8_3 C 0.6880(4) 0.4894(3) 0.5845(4)
H3_3 H 0.6489 0.4590 0.5694
C9_6 C 0.7031(4) 0.5076(3) 0.6782(4)
H4_6 H 0.6739 0.4894 0.7249
C10_6 C 0.82296(25) 0.60061(18) 0.9318(3)
C11_6 C 0.87544(28) 0.6190(2) 0.9946(3)
O4_3 O 0.8275(6) 0.5857(4) 0.4667(4)
H5_3 H 0.8096 0.5873 0.4200
O6_4 O 0.58958(26) 0.6125(2) 0.9053(3)
H6_4 H 0.6056 0.6387 0.9458
O7_6 O 0.71495(34) 0.68869(17) 0.8339(3)
H7_6 H 0.7100 0.6979 0.7808
H9_8 H 0.7299(71) 0.667(7) 0.815(6)
H11_4 H 0.580(6) 0.634(4) 0.870(7)
C5_4 C 0.1508(3) 0.5477(3) 0.8493(4)
H1_4 H 0.1634 0.5503 0.7874
C6_4 C 0.0868(2) 0.5575(2) 0.9634(3)
H2_4 H 0.0564 0.5662 0.9781
C7_4 C 0.1047(3) 0.5599(3) 0.8715(3)
C8_4 C 0.1773(3) 0.5320(3) 0.9178(4)
H3_4 H 0.2077 0.5233 0.9027
O4_4 O 0.0810(4) 0.5752(4) 0.8000(4)
H5_4 H 0.0794 0.5557 0.7533
C16_4 C 0.8492(3) 0.4523(3) 0.1507(4)
H12_4 H 0.8366 0.4497 0.2126
C17_4 C 0.9132(2) 0.4425(2) 0.0366(3)
H13_4 H 0.9436 0.4338 0.0219
C18_4 C 0.8953(3) 0.4401(3) 0.1285(3)
C19_4 C 0.8227(3) 0.4680(3) 0.0822(4)
H14_4 H 0.7923 0.4767 0.0973
O12_4 O 0.9190(4) 0.4248(4) 0.2000(4)
H16_4 H 0.9206 0.4443 0.2467
C16_5 C 0.5477(3) 0.3969(4) 0.1507(4)
H12_5 H 0.5503 0.3869 0.2126
C17_5 C 0.5575(2) 0.4707(3) 0.0366(3)
H13_5 H 0.5662 0.5098 0.0219
C18_5 C 0.5599(3) 0.4552(4) 0.1285(3)
C19_5 C 0.5320(3) 0.3547(4) 0.0822(4)
H14_5 H 0.5233 0.3156 0.0973
O12_5 O 0.5752(4) 0.4942(6) 0.2000(4)
H16_5 H 0.5557 0.4763 0.2467
C5_5 C 0.4523(3) 0.6031(4) 0.8493(4)
H1_5 H 0.4497 0.6131 0.7874
C6_5 C 0.4425(2) 0.5293(3) 0.9634(3)
H2_5 H 0.4338 0.4902 0.9781
C7_5 C 0.4401(3) 0.5448(4) 0.8715(3)
C8_5 C 0.4680(3) 0.6453(4) 0.9178(4)
H3_5 H 0.4767 0.6844 0.9027
O4_5 O 0.4248(4) 0.5058(6) 0.8000(4)
H5_5 H 0.4443 0.5237 0.7533
C16_6 C 0.6031(4) 0.1508(3) 0.1507(4)
H12_6 H 0.6131 0.1634 0.2126
C17_6 C 0.5293(3) 0.0868(2) 0.0366(3)
H13_6 H 0.4902 0.0564 0.0219
C18_6 C 0.5448(4) 0.1047(3) 0.1285(3)
C19_6 C 0.6453(4) 0.1773(3) 0.0822(4)
H14_6 H 0.6844 0.2077 0.0973
O12_6 O 0.5058(6) 0.0810(4) 0.2000(4)
H16_6 H 0.5237 0.0794 0.2467
C5_6 C 0.3969(4) 0.8492(3) 0.8493(4)
H1_6 H 0.3869 0.8366 0.7874
C6_6 C 0.4707(3) 0.9132(2) 0.9634(3)
H2_6 H 0.5098 0.9436 0.9781
C7_6 C 0.4552(4) 0.8953(3) 0.8715(3)
C8_6 C 0.3547(4) 0.8227(3) 0.9178(4)
H3_6 H 0.3156 0.7923 0.9027
O4_6 O 0.4942(6) 0.9190(4) 0.8000(4)
H5_6 H 0.4763 0.9206 0.7533
O14_5 O 0.6125(2) 0.02288(16) 0.0947(3)
H17_5 H 0.6387 0.0330 0.0542
H22_5 H 0.634(4) 0.053(4) 0.130(7)
Mn1_4 Mn 0.74729(3) 0.73540(3) 0.52134(4)
Mn2_6 Mn 0.6667 0.8333 0.8333
O1_4 O 0.73475(15) 0.75060(14) 0.66716(19)
N1_7 N 0.75763(16) 0.82679(16) 0.5241(2)
O2_4 O 0.7258(2) 0.80969(18) 0.7701(2)
C1_7 C 0.76137(19) 0.87046(18) 0.4665(3)
C2_7 C 0.7811(2) 0.87546(19) 0.3678(3)
C3_4 C 0.7322(2) 0.7973(2) 0.6875(3)
C4_7 C 0.73961(18) 0.83848(18) 0.6088(3)
C5_7 C 0.8175(3) 0.8810(3) 0.1826(4)
H1_7 H 0.8301 0.8836 0.1207
C6_7 C 0.7535(2) 0.8908(2) 0.2967(3)
H2_7 H 0.7231 0.8995 0.3114
C7_7 C 0.7714(3) 0.8932(3) 0.2048(3)
C8_7 C 0.8440(3) 0.8653(3) 0.2511(4)
H3_7 H 0.8744 0.8566 0.2360
C9_7 C 0.8258(3) 0.8622(3) 0.3448(4)
H4_7 H 0.8440 0.8512 0.3915
C10_7 C 0.73273(18) 0.88902(18) 0.5984(3)
O3_4 O 0.6989(2) 0.90819(17) 0.7441(2)
C11_7 C 0.7144(2) 0.92314(19) 0.6612(3)
O4_7 O 0.7477(4) 0.9085(4) 0.1333(4)
H5_7 H 0.7461 0.8890 0.0866
O5_4 O 0.71396(16) 0.96857(14) 0.6249(2)
N2_4 N 0.74677(15) 0.90890(14) 0.5072(2)
O6_5 O 0.7209(2) 0.64378(16) 0.5719(3)
H6_5 H 0.6947 0.6336 0.6124
O7_7 O 0.64465(17) 0.6929(3) 0.5005(3)
H7_7 H 0.6355 0.6788 0.4474
O8_4 O 0.7380(3) 0.8880(3) 0.9350(3)
H8_4 H 0.7691 0.9117 0.9070
H9_9 H 0.667(7) 0.7299(14) 0.481(6)
H10_4 H 0.737(5) 0.915(3) 0.969(10)
H11_5 H 0.700(4) 0.613(4) 0.536(7)
O9_4 O 0.59859(15) 0.91606(14) 0.99950(19)
O10_4 O 0.6076(2) 0.85697(18) 0.8965(2)
C14_4 C 0.6012(2) 0.8693(2) 0.9791(3)
O11_4 O 0.6345(2) 0.75847(17) 0.9225(2)
O16_4 O 0.5954(3) 0.7786(3) 0.7316(3)
H19_4 H 0.5643 0.7549 0.7596
H21_4 H 0.597(5) 0.751(3) 0.697(10)
Mn5_4 Mn 0.73540(3) 0.98812(4) 0.47866(4)
O18_4 O 0.74538(21) 0.71396(16) 0.3751(2)
N6_4 N 0.83786(21) 0.74677(15) 0.4928(2)
H14_7 H 0.8566 0.9823 0.7640
O14_6 O 0.64378(16) 0.92292(26) 0.4281(3)
H17_6 H 0.6336 0.9390 0.3876
H22_6 H 0.613(4) 0.914(6) 0.464(7)
Mn2_7 Mn 0.8333 0.6667 0.1667
O1_5 O 0.68252(21) 0.59859(15) 0.00050(19)
O2_5 O 0.75059(27) 0.6076(2) 0.1035(2)
C3_5 C 0.7318(3) 0.6012(2) 0.0209(3)
O3_5 O 0.87599(26) 0.6345(2) 0.0775(2)
O8_5 O 0.8167(4) 0.5954(3) 0.2684(3)
H8_5 H 0.8093 0.5643 0.2404
H10_5 H 0.845(6) 0.597(5) 0.303(10)
O9_5 O 0.98414(21) 0.73475(15) 0.33284(19)
N3_7 N 0.93083(23) 0.75763(16) 0.4759(2)
O10_5 O 0.91607(27) 0.7258(2) 0.2299(2)
C12_7 C 0.89090(26) 0.76137(19) 0.5335(3)
C13_7 C 0.90560(28) 0.7811(2) 0.6322(3)
C14_5 C 0.9348(3) 0.7322(2) 0.3125(3)
C15_7 C 0.90112(25) 0.73961(18) 0.3912(3)
C16_7 C 0.9364(4) 0.8175(3) 0.8174(4)
H12_7 H 0.9464 0.8301 0.8793
C17_7 C 0.8626(3) 0.7535(2) 0.7033(3)
H13_7 H 0.8235 0.7231 0.6886
C18_7 C 0.8781(4) 0.7714(3) 0.7952(3)
C19_7 C 0.9786(4) 0.8440(3) 0.7489(4)
C20_7 C 0.9635(4) 0.8258(3) 0.6552(4)
H15_7 H 0.9927 0.8440 0.6085
C21_7 C 0.84370(25) 0.73273(18) 0.4016(3)
O11_5 O 0.79067(26) 0.6989(2) 0.2559(2)
C22_7 C 0.79122(28) 0.7144(2) 0.3388(3)
O12_7 O 0.8391(6) 0.7477(4) 0.8667(4)
H16_7 H 0.8570 0.7461 0.9134
O15_7 O 0.95171(34) 0.64465(17) 0.4995(3)
H18_7 H 0.9566 0.6355 0.5526
O16_5 O 0.8499(4) 0.7380(3) 0.0650(3)
H19_5 H 0.8573 0.7691 0.0930
H20_9 H 0.9367(71) 0.667(7) 0.519(6)
H21_5 H 0.821(6) 0.737(5) 0.031(10)
Mn1_5 Mn 0.26460(3) 0.01188(4) 0.52134(4)
H3_8 H 0.1434 0.0177 0.2360
O6_6 O 0.35622(16) 0.07708(26) 0.5719(3)
H6_6 H 0.3664 0.0610 0.6124
H11_6 H 0.387(4) 0.086(6) 0.536(7)
O18_5 O 0.28604(16) 0.03143(26) 0.3751(2)
N6_5 N 0.25323(15) 0.09110(26) 0.4928(2)
Mn2_8 Mn 0.1667 0.3333 0.8333
O1_6 O 0.01586(21) 0.26525(15) 0.66716(19)
N1_8 N 0.06917(23) 0.24237(16) 0.5241(2)
O2_6 O 0.08393(27) 0.2742(2) 0.7701(2)
C1_8 C 0.10910(26) 0.23863(19) 0.4665(3)
C2_8 C 0.09440(28) 0.2189(2) 0.3678(3)
C3_6 C 0.0652(3) 0.2678(2) 0.6875(3)
C4_8 C 0.09888(25) 0.26039(18) 0.6088(3)
C5_8 C 0.0636(4) 0.1825(3) 0.1826(4)
H1_8 H 0.0536 0.1699 0.1207
C6_8 C 0.1374(3) 0.2465(2) 0.2967(3)
H2_8 H 0.1765 0.2769 0.3114
C7_8 C 0.1219(4) 0.2286(3) 0.2048(3)
C8_8 C 0.0214(4) 0.1560(3) 0.2511(4)
C9_8 C 0.0365(4) 0.1742(3) 0.3448(4)
H4_8 H 0.0073 0.1560 0.3915
C10_8 C 0.15630(25) 0.26727(18) 0.5984(3)
O3_6 O 0.20933(26) 0.3011(2) 0.7441(2)
C11_8 C 0.20878(28) 0.2856(2) 0.6612(3)
O4_8 O 0.1609(6) 0.2523(4) 0.1333(4)
H5_8 H 0.1430 0.2539 0.0866
O5_5 O 0.25462(21) 0.28604(16) 0.6249(2)
N2_5 N 0.16214(21) 0.25323(15) 0.5072(2)
O7_8 O 0.04829(34) 0.35535(17) 0.5005(3)
H7_8 H 0.0434 0.3645 0.4474
O8_6 O 0.1501(4) 0.2620(3) 0.9350(3)
H8_6 H 0.1427 0.2309 0.9070
H9_10 H 0.0633(71) 0.333(7) 0.481(6)
H10_6 H 0.179(6) 0.263(5) 0.969(10)
O9_6 O 0.31748(21) 0.40141(15) 0.99950(19)
O10_6 O 0.24941(27) 0.3924(2) 0.8965(2)
C14_6 C 0.2682(3) 0.3988(2) 0.9791(3)
O11_6 O 0.12401(26) 0.3655(2) 0.9225(2)
O16_6 O 0.1833(4) 0.4046(3) 0.7316(3)
H19_6 H 0.1907 0.4357 0.7596
H21_6 H 0.155(6) 0.403(5) 0.697(10)
Mn5_5 Mn 0.25271(5) 0.26460(3) 0.47866(4)
Mn2_9 Mn 0.3333 0.1667 0.1667
O1_7 O 0.40141(15) 0.08394(14) 0.00050(19)
O2_7 O 0.3924(2) 0.14303(18) 0.1035(2)
C3_7 C 0.3988(2) 0.1307(2) 0.0209(3)
O3_7 O 0.3655(2) 0.24153(17) 0.0775(2)
O8_7 O 0.4046(3) 0.2214(3) 0.2684(3)
H8_7 H 0.4357 0.2451 0.2404
H10_7 H 0.403(5) 0.249(3) 0.303(10)
O9_7 O 0.26525(15) 0.24940(14) 0.33284(19)
N3_8 N 0.24237(16) 0.17321(16) 0.4759(2)
O10_7 O 0.2742(2) 0.19031(18) 0.2299(2)
C12_8 C 0.23863(19) 0.12954(18) 0.5335(3)
C13_8 C 0.2189(2) 0.12454(19) 0.6322(3)
C14_7 C 0.2678(2) 0.2027(2) 0.3125(3)
C15_8 C 0.26039(18) 0.16152(18) 0.3912(3)
C16_8 C 0.1825(3) 0.1190(3) 0.8174(4)
H12_8 H 0.1699 0.1164 0.8793
C17_8 C 0.2465(2) 0.1092(2) 0.7033(3)
H13_8 H 0.2769 0.1005 0.6886
C18_8 C 0.2286(3) 0.1068(3) 0.7952(3)
C19_8 C 0.1560(3) 0.1347(3) 0.7489(4)
H14_8 H 0.1256 0.1434 0.7640
C20_8 C 0.1742(3) 0.1378(3) 0.6552(4)
H15_8 H 0.1560 0.1488 0.6085
C21_8 C 0.26727(18) 0.11098(18) 0.4016(3)
O11_7 O 0.3011(2) 0.09181(17) 0.2559(2)
C22_8 C 0.2856(2) 0.07686(19) 0.3388(3)
O12_8 O 0.2523(4) 0.0915(4) 0.8667(4)
H16_8 H 0.2539 0.1110 0.9134
O14_7 O 0.2791(2) 0.35622(16) 0.4281(3)
H17_7 H 0.3053 0.3664 0.3876
O15_8 O 0.35535(17) 0.3071(3) 0.4995(3)
H18_8 H 0.3645 0.3212 0.5526
O16_7 O 0.2620(3) 0.1120(3) 0.0650(3)
H19_7 H 0.2309 0.0883 0.0930
H20_10 H 0.333(7) 0.2701(14) 0.519(6)
H21_7 H 0.263(5) 0.085(3) 0.031(10)
H22_7 H 0.300(4) 0.387(4) 0.464(7)
Mn2_10 Mn 0.1667 0.8333 0.8333
O1_8 O 0.24940(14) 0.98414(21) 0.66716(19)
N1_9 N 0.17321(16) 0.93083(23) 0.5241(2)
O2_8 O 0.19031(18) 0.91607(27) 0.7701(2)
C1_9 C 0.12954(18) 0.89090(26) 0.4665(3)
C2_9 C 0.12454(19) 0.90560(28) 0.3678(3)
C3_8 C 0.2027(2) 0.9348(3) 0.6875(3)
C4_9 C 0.16152(18) 0.90112(25) 0.6088(3)
C5_9 C 0.1190(3) 0.9364(4) 0.1826(4)
H1_9 H 0.1164 0.9464 0.1207
C6_9 C 0.1092(2) 0.8626(3) 0.2967(3)
H2_9 H 0.1005 0.8235 0.3114
C7_9 C 0.1068(3) 0.8781(4) 0.2048(3)
C8_9 C 0.1347(3) 0.9786(4) 0.2511(4)
C9_9 C 0.1378(3) 0.9635(4) 0.3448(4)
H4_9 H 0.1488 0.9927 0.3915
C10_9 C 0.11098(18) 0.84370(25) 0.5984(3)
O3_8 O 0.09181(17) 0.79067(26) 0.7441(2)
C11_9 C 0.07686(19) 0.79122(28) 0.6612(3)
O4_9 O 0.0915(4) 0.8391(6) 0.1333(4)
H5_9 H 0.1110 0.8570 0.0866
O5_6 O 0.03143(14) 0.74538(21) 0.6249(2)
N2_6 N 0.09110(14) 0.83786(21) 0.5072(2)
O7_9 O 0.3071(3) 0.95171(34) 0.5005(3)
H7_9 H 0.3212 0.9566 0.4474
O8_8 O 0.1120(3) 0.8499(4) 0.9350(3)
H8_8 H 0.0883 0.8573 0.9070
H9_11 H 0.2701(14) 0.9367(71) 0.481(6)
H10_8 H 0.085(3) 0.821(6) 0.969(10)
O9_8 O 0.08394(14) 0.68252(21) 0.99950(19)
O10_8 O 0.14303(18) 0.75059(27) 0.8965(2)
C14_8 C 0.1307(2) 0.7318(3) 0.9791(3)
O11_8 O 0.24153(17) 0.87599(26) 0.9225(2)
O16_8 O 0.2214(3) 0.8167(4) 0.7316(3)
H19_8 H 0.2451 0.8093 0.7596
H21_8 H 0.249(3) 0.845(6) 0.697(10)
Mn5_6 Mn 0.01188(4) 0.74729(5) 0.47866(4)
H14_9 H 0.0177 0.8744 0.7640
O14_8 O 0.07708(26) 0.7209(2) 0.4281(3)
H17_8 H 0.0610 0.6947 0.3876
H22_8 H 0.086(6) 0.700(4) 0.464(7)
O14_9 O 0.97712(16) 0.58958(26) 0.0947(3)
H17_9 H 0.9670 0.6056 0.0542
H22_9 H 0.947(4) 0.580(6) 0.130(7)
Mn1_6 Mn 0.98812(4) 0.25271(3) 0.52134(4)
H3_9 H 0.9823 0.1256 0.2360
O6_7 O 0.92292(26) 0.2791(2) 0.5719(3)
H6_7 H 0.9390 0.3053 0.6124
H11_7 H 0.914(6) 0.300(4) 0.536(7)
O18_6 O 0.96857(26) 0.25462(21) 0.3751(2)
N6_6 N 0.90890(26) 0.16214(21) 0.4928(2)
Mn2_11 Mn 0.8333 0.1667 0.1667
O1_9 O 0.91606(14) 0.31748(21) 0.00050(19)
O2_9 O 0.85697(18) 0.24941(27) 0.1035(2)
C3_9 C 0.8693(2) 0.2682(3) 0.0209(3)
O3_9 O 0.75847(17) 0.12401(26) 0.0775(2)
O8_9 O 0.7786(3) 0.1833(4) 0.2684(3)
H8_9 H 0.7549 0.1907 0.2404
H10_9 H 0.751(3) 0.155(6) 0.303(10)
O9_9 O 0.75060(14) 0.01586(21) 0.33284(19)
N3_9 N 0.82679(16) 0.06917(23) 0.4759(2)
O10_9 O 0.80969(18) 0.08393(27) 0.2299(2)
C12_9 C 0.87046(18) 0.10910(26) 0.5335(3)
C13_9 C 0.87546(19) 0.09440(28) 0.6322(3)
C14_9 C 0.7973(2) 0.0652(3) 0.3125(3)
C15_9 C 0.83848(18) 0.09888(25) 0.3912(3)
C16_9 C 0.8810(3) 0.0636(4) 0.8174(4)
H12_9 H 0.8836 0.0536 0.8793
C17_9 C 0.8908(2) 0.1374(3) 0.7033(3)
H13_9 H 0.8995 0.1765 0.6886
C18_9 C 0.8932(3) 0.1219(4) 0.7952(3)
C19_9 C 0.8653(3) 0.0214(4) 0.7489(4)
C20_9 C 0.8622(3) 0.0365(4) 0.6552(4)
H15_9 H 0.8512 0.0073 0.6085
C21_9 C 0.88902(18) 0.15630(25) 0.4016(3)
O11_9 O 0.90819(17) 0.20933(26) 0.2559(2)
C22_9 C 0.92314(19) 0.20878(28) 0.3388(3)
O12_9 O 0.9085(4) 0.1609(6) 0.8667(4)
H16_9 H 0.8890 0.1430 0.9134
O15_9 O 0.6929(3) 0.04829(34) 0.4995(3)
H18_9 H 0.6788 0.0434 0.5526
O16_9 O 0.8880(3) 0.1501(4) 0.0650(3)
H19_9 H 0.9117 0.1427 0.0930
H20_11 H 0.7299(14) 0.0633(71) 0.519(6)
H21_9 H 0.915(3) 0.179(6) 0.031(10)
O6_8 O 0.3875(2) 0.97712(16) 0.9053(3)
H6_8 H 0.3613 0.9670 0.9458
H11_8 H 0.366(4) 0.947(4) 0.870(7)
O6_9 O 0.02288(16) 0.41042(26) 0.9053(3)
H6_9 H 0.0330 0.3944 0.9458
H11_9 H 0.053(4) 0.420(6) 0.870(7)
loop_
_geom_bond_atom_site_label_1
_geom_bond_atom_site_label_2
_geom_bond_site_symmetry_1
_geom_bond_site_symmetry_2
Mn1 O1 1_555 1_555
Mn2 O2 1_555 1_555
O1 C3 1_555 1_555
N1 Mn1 1_555 1_555
O2 C3 1_555 1_555
C1 N1 1_555 1_555
C2 C1 1_555 1_555
C3 C4 1_555 1_555
C4 N1 1_555 1_555
C9 C2 1_555 1_555
H4 C9 1_555 1_555
C10 C4 1_555 1_555
O3 Mn2 1_555 1_555
C11 C10 1_555 1_555
O5 C11 1_555 1_555
N2 C1 1_555 1_555
O6 Mn1 1_555 1_555
H6 O6 1_555 1_555
O8 Mn2 1_555 1_555
H8 O8 1_555 1_555
H10 O8 1_555 1_555
H11 O6 1_555 1_555
H18 O15 1_555 1_555
H20 O15 1_555 1_555
Mn5 O5 1_555 1_555
O18 Mn1 1_555 1_555
N6 Mn1 1_555 1_555
C10 N2 1_555 1_555
O3 C11 1_555 1_555
N2 Mn5 1_555 1_555
H7 O7 1_555 1_555
H9_2 O7 1_555 1_555
Mn3 O9 1_555 1_555
O9 C14 1_555 1_555
N3 Mn3 1_555 1_555
O10 Mn2_2 1_555 1_555
C12 N3 1_555 1_555
C13 C12 1_555 1_555
C14 O10 1_555 1_555
C15 N3 1_555 1_555
C20 C13 1_555 1_555
H15 C20 1_555 1_555
C21 C15 1_555 1_555
O11 Mn2_2 1_555 1_555
C22 C21 1_555 1_555
O13 C22 1_555 1_555
N4 C12 1_555 1_555
O14 Mn3 1_555 1_555
H17 O14 1_555 1_555
O16 Mn2_2 1_555 1_555
H19 O16 1_555 1_555
H21 O16 1_555 1_555
H22 O14 1_555 1_555
Mn4 O13 1_555 1_555
O17 Mn3 1_555 1_555
N5 Mn3 1_555 1_555
C14 C15 1_555 1_555
C21 N4 1_555 1_555
O11 C22 1_555 1_555
N4 Mn4 1_555 1_555
Mn1_2 O1_2 1_555 1_555
Mn2_3 O2_2 1_555 1_555
O1_2 C3_2 1_555 1_555
N1_2 Mn1_2 1_555 1_555
O2_2 C3_2 1_555 1_555
C1_2 N1_2 1_555 1_555
C2_2 C1_2 1_555 1_555
C3_2 C4_2 1_555 1_555
C4_2 N1_2 1_555 1_555
C9_2 C2_2 1_555 1_555
H4_2 C9_2 1_555 1_555
C10_2 C4_2 1_555 1_555
O3_2 Mn2_3 1_555 1_555
C11_2 C10_2 1_555 1_555
O5_2 C11_2 1_555 1_555
N2_2 C1_2 1_555 1_555
O6_2 Mn1_2 1_555 1_555
H6_2 O6_2 1_555 1_555
O7_2 Mn1_2 1_555 1_555
H7_2 O7_2 1_555 1_555
O8_2 Mn2_3 1_555 1_555
H8_2 O8_2 1_555 1_555
H9_3 O7_2 1_555 1_555
H10_2 O8_2 1_555 1_555
H11_2 O6_2 1_555 1_555
Mn3_2 O9_2 1_555 1_555
O9_2 C14_2 1_555 1_555
N3_2 Mn3_2 1_555 1_555
O10_2 Mn2_3 1_555 1_555
C12_2 N3_2 1_555 1_555
C13_2 C12_2 1_555 1_555
C14_2 O10_2 1_555 1_555
C15_2 N3_2 1_555 1_555
C20_2 C13_2 1_555 1_555
H15_2 C20_2 1_555 1_555
C21_2 C15_2 1_555 1_555
O11_2 Mn2_3 1_555 1_555
C22_2 C21_2 1_555 1_555
O13_2 C22_2 1_555 1_555
N4_2 C12_2 1_555 1_555
O14_2 Mn3_2 1_555 1_555
H17_2 O14_2 1_555 1_555
O15_2 Mn3_2 1_555 1_555
H18_2 O15_2 1_555 1_555
O16_2 Mn2_3 1_555 1_555
H19_2 O16_2 1_555 1_555
H20_3 O15_2 1_555 1_555
H21_2 O16_2 1_555 1_555
H22_2 O14_2 1_555 1_555
Mn4_2 O13_2 1_555 1_555
Mn5_2 O5_2 1_555 1_555
O17_2 Mn3_2 1_555 1_555
O18_2 Mn1_2 1_555 1_555
N5_2 Mn3_2 1_555 1_555
N6_2 Mn1_2 1_555 1_555
C10_2 N2_2 1_555 1_555
O3_2 C11_2 1_555 1_555
N2_2 Mn5_2 1_555 1_555
C14_2 C15_2 1_555 1_555
C21_2 N4_2 1_555 1_555
O11_2 C22_2 1_555 1_555
N4_2 Mn4_2 1_555 1_555
H7_3 O7_3 1_555 1_555
H9_4 O7_3 1_555 1_555
Mn3_3 O9_3 1_555 1_555
O9_3 C14_3 1_555 1_555
N3_3 Mn3_3 1_555 1_555
O10_3 Mn2_4 1_555 1_555
C12_3 N3_3 1_555 1_555
C13_3 C12_3 1_555 1_555
C14_3 O10_3 1_555 1_555
C15_3 N3_3 1_555 1_555
C20_3 C13_3 1_555 1_555
H15_3 C20_3 1_555 1_555
C21_3 C15_3 1_555 1_555
O11_3 Mn2_4 1_555 1_555
C22_3 C21_3 1_555 1_555
O13_3 C22_3 1_555 1_555
N4_3 C12_3 1_555 1_555
O14_3 Mn3_3 1_555 1_555
H17_3 O14_3 1_555 1_555
O16_3 Mn2_4 1_555 1_555
H19_3 O16_3 1_555 1_555
H21_3 O16_3 1_555 1_555
H22_3 O14_3 1_555 1_555
Mn4_3 O13_3 1_555 1_555
O17_3 Mn3_3 1_555 1_555
N5_3 Mn3_3 1_555 1_555
C14_3 C15_3 1_555 1_555
C21_3 N4_3 1_555 1_555
O11_3 C22_3 1_555 1_555
N4_3 Mn4_3 1_555 1_555
Mn1_3 O1_3 1_555 1_555
Mn2_5 O2_3 1_555 1_555
O1_3 C3_3 1_555 1_555
N1_3 Mn1_3 1_555 1_555
O2_3 C3_3 1_555 1_555
C1_3 N1_3 1_555 1_555
C2_3 C1_3 1_555 1_555
C3_3 C4_3 1_555 1_555
C4_3 N1_3 1_555 1_555
C9_3 C2_3 1_555 1_555
H4_3 C9_3 1_555 1_555
C10_3 C4_3 1_555 1_555
O3_3 Mn2_5 1_555 1_555
C11_3 C10_3 1_555 1_555
O5_3 C11_3 1_555 1_555
N2_3 C1_3 1_555 1_555
O6_3 Mn1_3 1_555 1_555
H6_3 O6_3 1_555 1_555
O8_3 Mn2_5 1_555 1_555
H8_3 O8_3 1_555 1_555
H10_3 O8_3 1_555 1_555
H11_3 O6_3 1_555 1_555
H18_3 O15_3 1_555 1_555
H20_5 O15_3 1_555 1_555
Mn5_3 O5_3 1_555 1_555
O18_3 Mn1_3 1_555 1_555
N6_3 Mn1_3 1_555 1_555
C10_3 N2_3 1_555 1_555
O3_3 C11_3 1_555 1_555
N2_3 Mn5_3 1_555 1_555
N3_4 Mn5_3 1_555 1_555
C12_4 N3_4 1_555 1_555
C13_4 C12_4 1_555 1_555
C15_4 N3_4 1_555 1_555
C16 H12 1_555 1_555
C17 C13_4 1_555 1_555
H13 C17 1_555 1_555
C18 C16 1_555 1_555
C19 C16 1_555 1_555
H14 C19 1_555 1_555
C20_4 C13_4 1_555 1_555
H15_4 C20_4 1_555 1_555
C21_4 C15_4 1_555 1_555
C22_4 C21_4 1_555 1_555
O12 C18 1_555 1_555
H16 O12 1_555 1_555
O18_2 C22_4 1_555 1_555
N6_2 C12_4 1_555 1_555
O15_4 Mn5_3 1_555 1_555
H18_4 O15_4 1_555 1_555
H20_6 O15_4 1_555 1_555
C17 C18 1_555 1_555
C19 C20_4 1_555 1_555
C21_4 N6_2 1_555 1_555
N3_5 Mn5 1_555 1_555
C12_5 N3_5 1_555 1_555
C13_5 C12_5 1_555 1_555
C15_5 N3_5 1_555 1_555
C16_2 H12_2 1_555 1_555
C17_2 C13_5 1_555 1_555
H13_2 C17_2 1_555 1_555
C18_2 C16_2 1_555 1_555
C19_2 C16_2 1_555 1_555
H14_2 C19_2 1_555 1_555
C20_5 C13_5 1_555 1_555
H15_5 C20_5 1_555 1_555
C21_5 C15_5 1_555 1_555
C22_5 C21_5 1_555 1_555
O12_2 C18_2 1_555 1_555
H16_2 O12_2 1_555 1_555
O18_3 C22_5 1_555 1_555
N6_3 C12_5 1_555 1_555
O15_5 Mn5 1_555 1_555
H18_5 O15_5 1_555 1_555
H20_7 O15_5 1_555 1_555
C17_2 C18_2 1_555 1_555
C19_2 C20_5 1_555 1_555
C21_5 N6_3 1_555 1_555
N3_6 Mn5_2 1_555 1_555
C12_6 N3_6 1_555 1_555
C13_6 C12_6 1_555 1_555
C15_6 N3_6 1_555 1_555
C16_3 H12_3 1_555 1_555
C17_3 C13_6 1_555 1_555
H13_3 C17_3 1_555 1_555
C18_3 C16_3 1_555 1_555
C19_3 C16_3 1_555 1_555
H14_3 C19_3 1_555 1_555
C20_6 C13_6 1_555 1_555
H15_6 C20_6 1_555 1_555
C21_6 C15_6 1_555 1_555
C22_6 C21_6 1_555 1_555
O12_3 C18_3 1_555 1_555
H16_3 O12_3 1_555 1_555
O18 C22_6 1_555 1_555
N6 C12_6 1_555 1_555
O14_4 Mn5_2 1_555 1_555
H17_4 O14_4 1_555 1_555
O15_6 Mn5_2 1_555 1_555
H18_6 O15_6 1_555 1_555
H20_8 O15_6 1_555 1_555
H22_4 O14_4 1_555 1_555
C17_3 C18_3 1_555 1_555
C19_3 C20_6 1_555 1_555
C21_6 N6 1_555 1_555
N1_4 Mn4_3 1_555 1_555
C1_4 N1_4 1_555 1_555
C2_4 C1_4 1_555 1_555
C4_4 N1_4 1_555 1_555
C5 H1 1_555 1_555
C6 C2_4 1_555 1_555
H2 C6 1_555 1_555
C7 C5 1_555 1_555
C8 C5 1_555 1_555
H3 C8 1_555 1_555
C9_4 C2_4 1_555 1_555
H4_4 C9_4 1_555 1_555
C10_4 C4_4 1_555 1_555
C11_4 C10_4 1_555 1_555
O4 C7 1_555 1_555
H5 O4 1_555 1_555
O17_2 C11_4 1_555 1_555
N5_2 C1_4 1_555 1_555
O7_4 Mn4_3 1_555 1_555
H7_4 O7_4 1_555 1_555
H9_6 O7_4 1_555 1_555
C6 C7 1_555 1_555
C8 C9_4 1_555 1_555
C10_4 N5_2 1_555 1_555
N1_5 Mn4 1_555 1_555
C1_5 N1_5 1_555 1_555
C2_5 C1_5 1_555 1_555
C4_5 N1_5 1_555 1_555
C5_2 H1_2 1_555 1_555
C6_2 C2_5 1_555 1_555
H2_2 C6_2 1_555 1_555
C7_2 C5_2 1_555 1_555
C8_2 C5_2 1_555 1_555
H3_2 C8_2 1_555 1_555
C9_5 C2_5 1_555 1_555
H4_5 C9_5 1_555 1_555
C10_5 C4_5 1_555 1_555
C11_5 C10_5 1_555 1_555
O4_2 C7_2 1_555 1_555
H5_2 O4_2 1_555 1_555
O17_3 C11_5 1_555 1_555
N5_3 C1_5 1_555 1_555
O7_5 Mn4 1_555 1_555
H7_5 O7_5 1_555 1_555
H9_7 O7_5 1_555 1_555
C6_2 C7_2 1_555 1_555
C8_2 C9_5 1_555 1_555
C10_5 N5_3 1_555 1_555
N1_6 Mn4_2 1_555 1_555
C1_6 N1_6 1_555 1_555
C2_6 C1_6 1_555 1_555
C4_6 N1_6 1_555 1_555
C5_3 H1_3 1_555 1_555
C6_3 C2_6 1_555 1_555
H2_3 C6_3 1_555 1_555
C7_3 C5_3 1_555 1_555
C8_3 C5_3 1_555 1_555
H3_3 C8_3 1_555 1_555
C9_6 C2_6 1_555 1_555
H4_6 C9_6 1_555 1_555
C10_6 C4_6 1_555 1_555
C11_6 C10_6 1_555 1_555
O4_3 C7_3 1_555 1_555
H5_3 O4_3 1_555 1_555
O17 C11_6 1_555 1_555
N5 C1_6 1_555 1_555
O6_4 Mn4_2 1_555 1_555
H6_4 O6_4 1_555 1_555
O7_6 Mn4_2 1_555 1_555
H7_6 O7_6 1_555 1_555
H9_8 O7_6 1_555 1_555
H11_4 O6_4 1_555 1_555
C6_3 C7_3 1_555 1_555
C8_3 C9_6 1_555 1_555
C10_6 N5 1_555 1_555
C5_4 H1_4 1_555 1_555
H2_4 C6_4 1_555 1_555
C7_4 C5_4 1_555 1_555
C8_4 C5_4 1_555 1_555
H3_4 C8_4 1_555 1_555
O4_4 C7_4 1_555 1_555
H5_4 O4_4 1_555 1_555
C6_4 C7_4 1_555 1_555
C16_4 H12_4 1_555 1_555
H13_4 C17_4 1_555 1_555
C18_4 C16_4 1_555 1_555
C19_4 C16_4 1_555 1_555
H14_4 C19_4 1_555 1_555
O12_4 C18_4 1_555 1_555
H16_4 O12_4 1_555 1_555
C17_4 C18_4 1_555 1_555
C16_5 H12_5 1_555 1_555
H13_5 C17_5 1_555 1_555
C18_5 C16_5 1_555 1_555
C19_5 C16_5 1_555 1_555
H14_5 C19_5 1_555 1_555
O12_5 C18_5 1_555 1_555
H16_5 O12_5 1_555 1_555
C17_5 C18_5 1_555 1_555
C5_5 H1_5 1_555 1_555
H2_5 C6_5 1_555 1_555
C7_5 C5_5 1_555 1_555
C8_5 C5_5 1_555 1_555
H3_5 C8_5 1_555 1_555
O4_5 C7_5 1_555 1_555
H5_5 O4_5 1_555 1_555
C6_5 C7_5 1_555 1_555
C16_6 H12_6 1_555 1_555
H13_6 C17_6 1_555 1_555
C18_6 C16_6 1_555 1_555
C19_6 C16_6 1_555 1_555
H14_6 C19_6 1_555 1_555
O12_6 C18_6 1_555 1_555
H16_6 O12_6 1_555 1_555
C17_6 C18_6 1_555 1_555
C5_6 H1_6 1_555 1_555
H2_6 C6_6 1_555 1_555
C7_6 C5_6 1_555 1_555
C8_6 C5_6 1_555 1_555
H3_6 C8_6 1_555 1_555
O4_6 C7_6 1_555 1_555
H5_6 O4_6 1_555 1_555
C6_6 C7_6 1_555 1_555
H17_5 O14_5 1_555 1_555
H22_5 O14_5 1_555 1_555
Mn1_4 O1_4 1_555 1_555
Mn2_6 O2_4 1_555 1_555
O1_4 C3_4 1_555 1_555
N1_7 Mn1_4 1_555 1_555
O2_4 C3_4 1_555 1_555
C1_7 N1_7 1_555 1_555
C2_7 C1_7 1_555 1_555
C3_4 C4_7 1_555 1_555
C4_7 N1_7 1_555 1_555
C5_7 H1_7 1_555 1_555
C6_7 C2_7 1_555 1_555
H2_7 C6_7 1_555 1_555
C7_7 C5_7 1_555 1_555
C8_7 C5_7 1_555 1_555
H3_7 C8_7 1_555 1_555
C9_7 C2_7 1_555 1_555
H4_7 C9_7 1_555 1_555
C10_7 C4_7 1_555 1_555
O3_4 Mn2_6 1_555 1_555
C11_7 C10_7 1_555 1_555
O4_7 C7_7 1_555 1_555
H5_7 O4_7 1_555 1_555
O5_4 C11_7 1_555 1_555
N2_4 C1_7 1_555 1_555
O6_5 Mn1_4 1_555 1_555
H6_5 O6_5 1_555 1_555
O7_7 Mn1_4 1_555 1_555
H7_7 O7_7 1_555 1_555
O8_4 Mn2_6 1_555 1_555
H8_4 O8_4 1_555 1_555
H9_9 O7_7 1_555 1_555
H10_4 O8_4 1_555 1_555
H11_5 O6_5 1_555 1_555
O9_4 C14_4 1_555 1_555
O10_4 Mn2_6 1_555 1_555
C14_4 O10_4 1_555 1_555
O11_4 Mn2_6 1_555 1_555
O16_4 Mn2_6 1_555 1_555
H19_4 O16_4 1_555 1_555
H21_4 O16_4 1_555 1_555
Mn5_4 O5_4 1_555 1_555
O18_4 Mn1_4 1_555 1_555
N6_4 Mn1_4 1_555 1_555
C6_7 C7_7 1_555 1_555
C8_7 C9_7 1_555 1_555
C10_7 N2_4 1_555 1_555
O3_4 C11_7 1_555 1_555
N2_4 Mn5_4 1_555 1_555
O14_6 Mn5_4 1_555 1_555
H17_6 O14_6 1_555 1_555
H22_6 O14_6 1_555 1_555
Mn2_7 O2_5 1_555 1_555
O1_5 C3_5 1_555 1_555
O2_5 C3_5 1_555 1_555
O3_5 Mn2_7 1_555 1_555
O8_5 Mn2_7 1_555 1_555
H8_5 O8_5 1_555 1_555
H10_5 O8_5 1_555 1_555
O9_5 C14_5 1_555 1_555
O10_5 Mn2_7 1_555 1_555
C12_7 N3_7 1_555 1_555
C13_7 C12_7 1_555 1_555
C14_5 O10_5 1_555 1_555
C15_7 N3_7 1_555 1_555
C16_7 H12_7 1_555 1_555
C17_7 C13_7 1_555 1_555
H13_7 C17_7 1_555 1_555
C18_7 C16_7 1_555 1_555
C19_7 C16_7 1_555 1_555
C20_7 C13_7 1_555 1_555
H15_7 C20_7 1_555 1_555
C21_7 C15_7 1_555 1_555
O11_5 Mn2_7 1_555 1_555
C22_7 C21_7 1_555 1_555
O12_7 C18_7 1_555 1_555
H16_7 O12_7 1_555 1_555
O18_4 C22_7 1_555 1_555
N6_4 C12_7 1_555 1_555
H18_7 O15_7 1_555 1_555
O16_5 Mn2_7 1_555 1_555
H19_5 O16_5 1_555 1_555
H20_9 O15_7 1_555 1_555
H21_5 O16_5 1_555 1_555
C14_5 C15_7 1_555 1_555
C17_7 C18_7 1_555 1_555
C19_7 C20_7 1_555 1_555
C21_7 N6_4 1_555 1_555
O11_5 C22_7 1_555 1_555
O6_6 Mn1_5 1_555 1_555
H6_6 O6_6 1_555 1_555
H11_6 O6_6 1_555 1_555
O18_5 Mn1_5 1_555 1_555
N6_5 Mn1_5 1_555 1_555
Mn2_8 O2_6 1_555 1_555
O1_6 C3_6 1_555 1_555
O2_6 C3_6 1_555 1_555
C1_8 N1_8 1_555 1_555
C2_8 C1_8 1_555 1_555
C3_6 C4_8 1_555 1_555
C4_8 N1_8 1_555 1_555
C5_8 H1_8 1_555 1_555
C6_8 C2_8 1_555 1_555
H2_8 C6_8 1_555 1_555
C7_8 C5_8 1_555 1_555
C8_8 C5_8 1_555 1_555
C9_8 C2_8 1_555 1_555
H4_8 C9_8 1_555 1_555
C10_8 C4_8 1_555 1_555
O3_6 Mn2_8 1_555 1_555
C11_8 C10_8 1_555 1_555
O4_8 C7_8 1_555 1_555
H5_8 O4_8 1_555 1_555
O5_5 C11_8 1_555 1_555
N2_5 C1_8 1_555 1_555
H7_8 O7_8 1_555 1_555
O8_6 Mn2_8 1_555 1_555
H8_6 O8_6 1_555 1_555
H9_10 O7_8 1_555 1_555
H10_6 O8_6 1_555 1_555
O9_6 C14_6 1_555 1_555
O10_6 Mn2_8 1_555 1_555
C14_6 O10_6 1_555 1_555
O11_6 Mn2_8 1_555 1_555
O16_6 Mn2_8 1_555 1_555
H19_6 O16_6 1_555 1_555
H21_6 O16_6 1_555 1_555
Mn5_5 O5_5 1_555 1_555
C6_8 C7_8 1_555 1_555
C8_8 C9_8 1_555 1_555
C10_8 N2_5 1_555 1_555
O3_6 C11_8 1_555 1_555
N2_5 Mn5_5 1_555 1_555
Mn2_9 O2_7 1_555 1_555
O1_7 C3_7 1_555 1_555
O2_7 C3_7 1_555 1_555
O3_7 Mn2_9 1_555 1_555
O8_7 Mn2_9 1_555 1_555
H8_7 O8_7 1_555 1_555
H10_7 O8_7 1_555 1_555
Mn5_5 O9_7 1_555 1_555
O9_7 C14_7 1_555 1_555
N3_8 Mn5_5 1_555 1_555
O10_7 Mn2_9 1_555 1_555
C12_8 N3_8 1_555 1_555
C13_8 C12_8 1_555 1_555
C14_7 O10_7 1_555 1_555
C15_8 N3_8 1_555 1_555
C16_8 H12_8 1_555 1_555
C17_8 C13_8 1_555 1_555
H13_8 C17_8 1_555 1_555
C18_8 C16_8 1_555 1_555
C19_8 C16_8 1_555 1_555
H14_8 C19_8 1_555 1_555
C20_8 C13_8 1_555 1_555
H15_8 C20_8 1_555 1_555
C21_8 C15_8 1_555 1_555
O11_7 Mn2_9 1_555 1_555
C22_8 C21_8 1_555 1_555
O12_8 C18_8 1_555 1_555
H16_8 O12_8 1_555 1_555
O18_5 C22_8 1_555 1_555
N6_5 C12_8 1_555 1_555
O14_7 Mn5_5 1_555 1_555
H17_7 O14_7 1_555 1_555
O15_8 Mn5_5 1_555 1_555
H18_8 O15_8 1_555 1_555
O16_7 Mn2_9 1_555 1_555
H19_7 O16_7 1_555 1_555
H20_10 O15_8 1_555 1_555
H21_7 O16_7 1_555 1_555
H22_7 O14_7 1_555 1_555
C14_7 C15_8 1_555 1_555
C17_8 C18_8 1_555 1_555
C19_8 C20_8 1_555 1_555
C21_8 N6_5 1_555 1_555
O11_7 C22_8 1_555 1_555
Mn2_10 O2_8 1_555 1_555
O1_8 C3_8 1_555 1_555
O2_8 C3_8 1_555 1_555
C1_9 N1_9 1_555 1_555
C2_9 C1_9 1_555 1_555
C3_8 C4_9 1_555 1_555
C4_9 N1_9 1_555 1_555
C5_9 H1_9 1_555 1_555
C6_9 C2_9 1_555 1_555
H2_9 C6_9 1_555 1_555
C7_9 C5_9 1_555 1_555
C8_9 C5_9 1_555 1_555
C9_9 C2_9 1_555 1_555
H4_9 C9_9 1_555 1_555
C10_9 C4_9 1_555 1_555
O3_8 Mn2_10 1_555 1_555
C11_9 C10_9 1_555 1_555
O4_9 C7_9 1_555 1_555
H5_9 O4_9 1_555 1_555
O5_6 C11_9 1_555 1_555
N2_6 C1_9 1_555 1_555
H7_9 O7_9 1_555 1_555
O8_8 Mn2_10 1_555 1_555
H8_8 O8_8 1_555 1_555
H9_11 O7_9 1_555 1_555
H10_8 O8_8 1_555 1_555
O9_8 C14_8 1_555 1_555
O10_8 Mn2_10 1_555 1_555
C14_8 O10_8 1_555 1_555
O11_8 Mn2_10 1_555 1_555
O16_8 Mn2_10 1_555 1_555
H19_8 O16_8 1_555 1_555
H21_8 O16_8 1_555 1_555
Mn5_6 O5_6 1_555 1_555
C6_9 C7_9 1_555 1_555
C8_9 C9_9 1_555 1_555
C10_9 N2_6 1_555 1_555
O3_8 C11_9 1_555 1_555
N2_6 Mn5_6 1_555 1_555
O14_8 Mn5_6 1_555 1_555
H17_8 O14_8 1_555 1_555
H22_8 O14_8 1_555 1_555
H17_9 O14_9 1_555 1_555
H22_9 O14_9 1_555 1_555
O6_7 Mn1_6 1_555 1_555
H6_7 O6_7 1_555 1_555
H11_7 O6_7 1_555 1_555
O18_6 Mn1_6 1_555 1_555
N6_6 Mn1_6 1_555 1_555
Mn2_11 O2_9 1_555 1_555
O1_9 C3_9 1_555 1_555
O2_9 C3_9 1_555 1_555
O3_9 Mn2_11 1_555 1_555
O8_9 Mn2_11 1_555 1_555
H8_9 O8_9 1_555 1_555
H10_9 O8_9 1_555 1_555
O9_9 C14_9 1_555 1_555
O10_9 Mn2_11 1_555 1_555
C12_9 N3_9 1_555 1_555
C13_9 C12_9 1_555 1_555
C14_9 O10_9 1_555 1_555
C15_9 N3_9 1_555 1_555
C16_9 H12_9 1_555 1_555
C17_9 C13_9 1_555 1_555
H13_9 C17_9 1_555 1_555
C18_9 C16_9 1_555 1_555
C19_9 C16_9 1_555 1_555
C20_9 C13_9 1_555 1_555
H15_9 C20_9 1_555 1_555
C21_9 C15_9 1_555 1_555
O11_9 Mn2_11 1_555 1_555
C22_9 C21_9 1_555 1_555
O12_9 C18_9 1_555 1_555
H16_9 O12_9 1_555 1_555
O18_6 C22_9 1_555 1_555
N6_6 C12_9 1_555 1_555
H18_9 O15_9 1_555 1_555
O16_9 Mn2_11 1_555 1_555
H19_9 O16_9 1_555 1_555
H20_11 O15_9 1_555 1_555
H21_9 O16_9 1_555 1_555
C14_9 C15_9 1_555 1_555
C17_9 C18_9 1_555 1_555
C19_9 C20_9 1_555 1_555
C21_9 N6_6 1_555 1_555
O11_9 C22_9 1_555 1_555
H6_8 O6_8 1_555 1_555
H11_8 O6_8 1_555 1_555
H6_9 O6_9 1_555 1_555
H11_9 O6_9 1_555 1_555

#END
