
###############################################################################
#
# This file contains modified crystal structure data generated from the
# MOF subset of the Cambridge Structural Database (CSD) v543 
# hosted by the Cambridge Crystallographic Data Centre (CCDC).
#
# This work is licensed under the Creative Commons
# Attribution-NonCommercial-ShareAlike 4.0 International License.
# To view a copy of this license, visit
# http://creativecommons.org/licenses/by-nc-sa/4.0/
# or send a letter to
# Creative Commons, PO Box 1866, Mountain View, CA 94042, USA.
#
# CIF created using the CSD Python API on 29 September 2022
# The structure has been converted into the P1 space group
# The structure has a 3D framework
# The original CSD entry EXUMOZ is in the monoclinic crystal system
# The framework has been calculated to contain at least 10.0% void space
# The void calculation uses a probe of radius 1.32A, grid spacing 0.4
#
###############################################################################

data_EXUMOZ
_chemical_formula_moiety         '(C48 H24 Mn6 N8 O16)n'
_symmetry_cell_setting           triclinic
_symmetry_space_group_name_H-M   'P 1'
_symmetry_Int_Tables_number      1
_space_group_name_Hall           'P 1'
loop_
_symmetry_equiv_pos_site_id
_symmetry_equiv_pos_as_xyz
1 x,y,z
_cell_length_a                   12.1736(10)
_cell_length_b                   14.6323(12)
_cell_length_c                   9.0078(8)
_cell_angle_alpha                90
_cell_angle_beta                 131.2100(10)
_cell_angle_gamma                90
_cell_volume                     1207.09
loop_
_atom_site_label
_atom_site_type_symbol
_atom_site_fract_x
_atom_site_fract_y
_atom_site_fract_z
Mn1 Mn 0.0000 0.03211(4) 0.2500
N1 N 0.0982(2) 0.16317(15) 0.2232(3)
C1 C 0.0606(3) 0.24413(17) 0.2495(4)
C2 C 0.1333(3) 0.32420(17) 0.2782(4)
H1 H 0.1095 0.3784 0.3051
C3 C 0.2411(3) 0.32363(18) 0.2667(4)
C4 C 0.2730(3) 0.24161(19) 0.2263(5)
H2 H 0.3409 0.2391 0.2102
C5 C 0.2024(3) 0.16342(19) 0.2103(5)
H3 H 0.2280 0.1081 0.1895
C6 C 0.3236(3) 0.41090(18) 0.3069(4)
O1 O 0.3628(2) 0.42421(14) 0.2117(3)
O2 O 0.3439(2) 0.46344(12) 0.4328(3)
O8 O 0.1561(2) 0.03656(12) 0.5672(3)
Mn2 Mn 0.5000 0.53211(4) 0.2500
Mn3 Mn 0.5000 0.46789(4) 0.7500
O6 O 0.1372(2) 0.92421(14) 0.2883(3)
Mn1_2 Mn 1.0000 0.03211(4) 0.2500
C7 C 0.9394(3) 0.24413(17) 0.2505(4)
N2 N 0.9018(2) 0.16317(15) 0.2768(3)
C8 C 0.7976(3) 0.16342(19) 0.2897(5)
C9 C 0.7270(3) 0.24161(19) 0.2737(5)
C10 C 0.7589(3) 0.32363(18) 0.2333(4)
C11 C 0.8667(3) 0.32420(17) 0.2218(4)
H4 H 0.8905 0.3784 0.1949
C12 C 0.6764(3) 0.41090(18) 0.1931(4)
O3 O 0.6372(2) 0.42421(14) 0.2883(3)
O4 O 0.6561(2) 0.46344(12) 0.0672(3)
H5 H 0.6591 0.2391 0.2898
H6 H 0.7720 0.1081 0.3105
O7 O 0.8439(2) 0.03656(12) 0.9328(3)
O5 O 0.8628(2) 0.92421(14) 0.2117(3)
Mn3_2 Mn 0.0000 0.96789(4) 0.7500
N1_2 N 0.5982(2) 0.66317(15) 0.2232(3)
C1_2 C 0.5606(3) 0.74413(17) 0.2495(4)
C2_2 C 0.6333(3) 0.82420(17) 0.2782(4)
H1_2 H 0.6095 0.8784 0.3051
C3_2 C 0.7411(3) 0.82363(18) 0.2667(4)
C4_2 C 0.7730(3) 0.74161(19) 0.2263(5)
H2_2 H 0.8409 0.7391 0.2102
C5_2 C 0.7024(3) 0.66342(19) 0.2103(5)
H3_2 H 0.7280 0.6081 0.1895
C6_2 C 0.8236(3) 0.91090(18) 0.3069(4)
O2_2 O 0.8439(2) 0.96344(12) 0.4328(3)
C7_2 C 0.4394(3) 0.74413(17) 0.2505(4)
N2_2 N 0.4018(2) 0.66317(15) 0.2768(3)
C8_2 C 0.2976(3) 0.66342(19) 0.2897(5)
C9_2 C 0.2270(3) 0.74161(19) 0.2737(5)
C10_2 C 0.2589(3) 0.82363(18) 0.2333(4)
C11_2 C 0.3667(3) 0.82420(17) 0.2218(4)
H4_2 H 0.3905 0.8784 0.1949
C12_2 C 0.1764(3) 0.91090(18) 0.1931(4)
O4_2 O 0.1561(2) 0.96344(12) 0.0672(3)
H5_2 H 0.1591 0.7391 0.2898
H6_2 H 0.2720 0.6081 0.3105
O8_2 O 0.6561(2) 0.53656(12) 0.5672(3)
Mn3_3 Mn 1.0000 0.96789(4) 0.7500
O7_2 O 0.3439(2) 0.53656(12) 0.9328(3)
O5_2 O 0.1372(2) 0.07579(14) 0.7883(3)
C7_3 C 0.0606(3) 0.75587(17) 0.7495(4)
N2_3 N 0.0982(2) 0.83683(15) 0.7232(3)
C8_3 C 0.2024(3) 0.83658(19) 0.7103(5)
C9_3 C 0.2730(3) 0.75839(19) 0.7263(5)
C10_3 C 0.2411(3) 0.67637(18) 0.7667(4)
C11_3 C 0.1333(3) 0.67580(17) 0.7782(4)
H4_3 H 0.1095 0.6216 0.8051
C12_3 C 0.3236(3) 0.58910(18) 0.8069(4)
O3_2 O 0.3628(2) 0.57579(14) 0.7117(3)
H5_3 H 0.3409 0.7609 0.7102
H6_3 H 0.2280 0.8919 0.6895
O6_2 O 0.8628(2) 0.07579(14) 0.7117(3)
N1_3 N 0.9018(2) 0.83683(15) 0.7768(3)
C1_3 C 0.9394(3) 0.75587(17) 0.7505(4)
C2_3 C 0.8667(3) 0.67580(17) 0.7218(4)
H1_3 H 0.8905 0.6216 0.6949
C3_3 C 0.7589(3) 0.67637(18) 0.7333(4)
C4_3 C 0.7270(3) 0.75839(19) 0.7737(5)
H2_3 H 0.6591 0.7609 0.7898
C5_3 C 0.7976(3) 0.83658(19) 0.7897(5)
H3_3 H 0.7720 0.8919 0.8105
C6_3 C 0.6764(3) 0.58910(18) 0.6931(4)
O1_2 O 0.6372(2) 0.57579(14) 0.7883(3)
N1_4 N 0.4018(2) 0.33683(15) 0.7768(3)
C1_4 C 0.4394(3) 0.25587(17) 0.7505(4)
C2_4 C 0.3667(3) 0.17580(17) 0.7218(4)
H1_4 H 0.3905 0.1216 0.6949
C3_4 C 0.2589(3) 0.17637(18) 0.7333(4)
C4_4 C 0.2270(3) 0.25839(19) 0.7737(5)
H2_4 H 0.1591 0.2609 0.7898
C5_4 C 0.2976(3) 0.33658(19) 0.7897(5)
H3_4 H 0.2720 0.3919 0.8105
C6_4 C 0.1764(3) 0.08910(18) 0.6931(4)
C7_4 C 0.5606(3) 0.25587(17) 0.7495(4)
N2_4 N 0.5982(2) 0.33683(15) 0.7232(3)
C8_4 C 0.7024(3) 0.33658(19) 0.7103(5)
C9_4 C 0.7730(3) 0.25839(19) 0.7263(5)
C10_4 C 0.7411(3) 0.17637(18) 0.7667(4)
C11_4 C 0.6333(3) 0.17580(17) 0.7782(4)
H4_4 H 0.6095 0.1216 0.8051
C12_4 C 0.8236(3) 0.08910(18) 0.8069(4)
H5_4 H 0.8409 0.2609 0.7102
H6_4 H 0.7280 0.3919 0.6895
loop_
_geom_bond_atom_site_label_1
_geom_bond_atom_site_label_2
_geom_bond_site_symmetry_1
_geom_bond_site_symmetry_2
Mn1 N1 1_555 1_555
N1 C1 1_555 1_555
C1 C2 1_555 1_555
C2 H1 1_555 1_555
C3 C2 1_555 1_555
C4 C3 1_555 1_555
H2 C4 1_555 1_555
C5 N1 1_555 1_555
H3 C5 1_555 1_555
C6 C3 1_555 1_555
O1 C6 1_555 1_555
O2 C6 1_555 1_555
O8 Mn1 1_555 1_555
Mn2 O1 1_555 1_555
Mn3 O2 1_555 1_555
C4 C5 1_555 1_555
N2 Mn1_2 1_555 1_555
C8 N2 1_555 1_555
C9 C8 1_555 1_555
C10 C9 1_555 1_555
C11 C7 1_555 1_555
H4 C11 1_555 1_555
C12 C10 1_555 1_555
O3 C12 1_555 1_555
O4 C12 1_555 1_555
H5 C9 1_555 1_555
H6 C8 1_555 1_555
Mn2 O3 1_555 1_555
C7 N2 1_555 1_555
C10 C11 1_555 1_555
Mn2 N1_2 1_555 1_555
N1_2 C1_2 1_555 1_555
C1_2 C2_2 1_555 1_555
C2_2 H1_2 1_555 1_555
C3_2 C2_2 1_555 1_555
C4_2 C3_2 1_555 1_555
H2_2 C4_2 1_555 1_555
C5_2 N1_2 1_555 1_555
H3_2 C5_2 1_555 1_555
C6_2 C3_2 1_555 1_555
O5 C6_2 1_555 1_555
O2_2 C6_2 1_555 1_555
C7_2 C1_2 1_555 1_555
N2_2 Mn2 1_555 1_555
C8_2 N2_2 1_555 1_555
C9_2 C8_2 1_555 1_555
C10_2 C9_2 1_555 1_555
C11_2 C7_2 1_555 1_555
H4_2 C11_2 1_555 1_555
C12_2 C10_2 1_555 1_555
O6 C12_2 1_555 1_555
O4_2 C12_2 1_555 1_555
H5_2 C9_2 1_555 1_555
H6_2 C8_2 1_555 1_555
O8_2 Mn2 1_555 1_555
Mn3_3 O2_2 1_555 1_555
C4_2 C5_2 1_555 1_555
C7_2 N2_2 1_555 1_555
C10_2 C11_2 1_555 1_555
N2_3 Mn3_2 1_555 1_555
C8_3 N2_3 1_555 1_555
C9_3 C8_3 1_555 1_555
C10_3 C9_3 1_555 1_555
C11_3 C7_3 1_555 1_555
H4_3 C11_3 1_555 1_555
C12_3 C10_3 1_555 1_555
O3_2 C12_3 1_555 1_555
O7_2 C12_3 1_555 1_555
H5_3 C9_3 1_555 1_555
H6_3 C8_3 1_555 1_555
Mn3 O3_2 1_555 1_555
C7_3 N2_3 1_555 1_555
C10_3 C11_3 1_555 1_555
Mn3_3 N1_3 1_555 1_555
N1_3 C1_3 1_555 1_555
C1_3 C2_3 1_555 1_555
C2_3 H1_3 1_555 1_555
C3_3 C2_3 1_555 1_555
C4_3 C3_3 1_555 1_555
H2_3 C4_3 1_555 1_555
C5_3 N1_3 1_555 1_555
H3_3 C5_3 1_555 1_555
C6_3 C3_3 1_555 1_555
O1_2 C6_3 1_555 1_555
O8_2 C6_3 1_555 1_555
Mn3 O1_2 1_555 1_555
C4_3 C5_3 1_555 1_555
Mn3 N1_4 1_555 1_555
N1_4 C1_4 1_555 1_555
C1_4 C2_4 1_555 1_555
C2_4 H1_4 1_555 1_555
C3_4 C2_4 1_555 1_555
C4_4 C3_4 1_555 1_555
H2_4 C4_4 1_555 1_555
C5_4 N1_4 1_555 1_555
H3_4 C5_4 1_555 1_555
C6_4 C3_4 1_555 1_555
O5_2 C6_4 1_555 1_555
O8 C6_4 1_555 1_555
C7_4 C1_4 1_555 1_555
N2_4 Mn3 1_555 1_555
C8_4 N2_4 1_555 1_555
C9_4 C8_4 1_555 1_555
C10_4 C9_4 1_555 1_555
C11_4 C7_4 1_555 1_555
H4_4 C11_4 1_555 1_555
C12_4 C10_4 1_555 1_555
O6_2 C12_4 1_555 1_555
O7 C12_4 1_555 1_555
H5_4 C9_4 1_555 1_555
H6_4 C8_4 1_555 1_555
C4_4 C5_4 1_555 1_555
C7_4 N2_4 1_555 1_555
C10_4 C11_4 1_555 1_555

#END
