
###############################################################################
#
# This file contains modified crystal structure data generated from the
# MOF subset of the Cambridge Structural Database (CSD) v543 
# hosted by the Cambridge Crystallographic Data Centre (CCDC).
#
# This work is licensed under the Creative Commons
# Attribution-NonCommercial-ShareAlike 4.0 International License.
# To view a copy of this license, visit
# http://creativecommons.org/licenses/by-nc-sa/4.0/
# or send a letter to
# Creative Commons, PO Box 1866, Mountain View, CA 94042, USA.
#
# CIF created using the CSD Python API on 29 September 2022
# The structure has been converted into the P1 space group
# The structure has a 3D framework
# The original CSD entry EYACOX is in the monoclinic crystal system
# The framework has been calculated to contain at least 10.0% void space
# The void calculation uses a probe of radius 1.32A, grid spacing 0.4
#
###############################################################################

data_EYACOX
_chemical_formula_moiety         '(C256 H168 Eu12 O128)n'
_symmetry_cell_setting           triclinic
_symmetry_space_group_name_H-M   'P 1'
_symmetry_Int_Tables_number      1
_space_group_name_Hall           'P 1'
loop_
_symmetry_equiv_pos_site_id
_symmetry_equiv_pos_as_xyz
1 x,y,z
_cell_length_a                   30.208(5)
_cell_length_b                   21.295(5)
_cell_length_c                   18.632(3)
_cell_angle_alpha                90
_cell_angle_beta                 94.434(5)
_cell_angle_gamma                90
_cell_volume                     11949.7
loop_
_atom_site_label
_atom_site_type_symbol
_atom_site_fract_x
_atom_site_fract_y
_atom_site_fract_z
Eu12 Eu 0.18062(2) 0.17183(2) 0.97984(3)
C57 C 0.1605(5) 0.0462(5) 0.9426(8)
H30 H 0.0932 0.0106 0.8548
O38 O 0.1878(3) 0.0562(3) 0.9915(5)
O41 O 0.1461(3) 0.0911(3) 0.9066(5)
Eu6 Eu 0.277875(14) 0.823341(19) 0.06756(3)
C11 C 0.1987(3) 0.2845(4) 0.6017(6)
C12 C 0.1667(3) 0.2872(5) 0.6560(5)
C13 C 0.1746(3) 0.2580(5) 0.7246(6)
H4 H 0.2013 0.2371 0.7355
C14 C 0.1441(3) 0.2599(5) 0.7748(6)
C15 C 0.1538(4) 0.2289(6) 0.8478(6)
C16 C 0.1249(3) 0.3161(5) 0.6435(6)
H5 H 0.1182 0.3360 0.5996
C17 C 0.0935(3) 0.3161(5) 0.6932(6)
C18 C 0.1036(3) 0.2899(5) 0.7604(6)
H6 H 0.0835 0.2923 0.7956
C19 C 0.0509(3) 0.3424(5) 0.6757(6)
C20 C 0.0138(3) 0.3626(5) 0.6558(6)
O5 O 0.1900(2) 0.3124(3) 0.5454(4)
O6 O 0.2338(2) 0.2524(3) 0.6182(4)
O7 O 0.1258(2) 0.2241(3) 0.8890(4)
O8 O 0.1933(2) 0.2093(5) 0.8623(5)
Eu3 Eu 0.222125(14) 0.323341(19) 0.43244(3)
Eu4 Eu 0.277875(14) 0.176659(19) 0.56756(3)
Eu7 Eu 0.222125(14) 0.676659(19) 0.93244(3)
Eu8 Eu 0.18062(2) 0.82817(2) 0.47984(3)
Eu13 Eu 0.31938(2) 0.67183(2) 0.52016(3)
C33 C 0.2060(4) 0.6688(5) 0.5045(8)
C34 C 0.1762(3) 0.6177(4) 0.4778(5)
C35 C 0.1916(3) 0.5559(4) 0.4767(5)
H22 H 0.2207 0.5472 0.4941
C36 C 0.1649(3) 0.5079(4) 0.4503(5)
C37 C 0.1823(3) 0.4425(4) 0.4490(6)
C38 C 0.1323(3) 0.6291(4) 0.4490(6)
H23 H 0.1213 0.6699 0.4495
C39 C 0.1059(3) 0.5831(4) 0.4208(6)
C40 C 0.1223(3) 0.5205(4) 0.4201(6)
H24 H 0.1047 0.4884 0.3996
C41 C 0.0627(3) 0.5984(4) 0.3901(7)
C42 C 0.0265(3) 0.6160(5) 0.3672(6)
C53 C 0.1831(3) 0.8128(4) 0.9414(6)
C54 C 0.1575(3) 0.8703(4) 0.9182(6)
C55 C 0.1722(3) 0.9303(4) 0.9400(6)
H28 H 0.1989 0.9351 0.9678
C56 C 0.1466(3) 0.9821(4) 0.9196(6)
C58 C 0.1193(3) 0.8632(4) 0.8754(6)
H29 H 0.1099 0.8234 0.8605
C59 C 0.0941(3) 0.9165(5) 0.8536(7)
C60 C 0.1086(3) 0.9754(5) 0.8728(6)
C61 C 0.0528(4) 0.9092(5) 0.8062(7)
C62 C 0.0190(4) 0.9079(5) 0.7727(8)
C63 C 0.3007(5) 0.4380(6) 0.3507(9)
H31 H 0.3123 0.4568 0.3951
H32 H 0.3247 0.4230 0.3246
H33 H 0.2840 0.4688 0.3223
C64 C 0.1992(5) 0.2916(7) 0.2439(6)
H34 H 0.1817 0.2541 0.2461
H35 H 0.1893 0.3152 0.2018
H36 H 0.2298 0.2804 0.2414
O17 O 0.1886(3) 0.7232(3) 0.5085(5)
O18 O 0.2444(3) 0.6564(3) 0.5257(5)
O20 O 0.2556(3) 0.8436(3) 0.4743(5)
O21 O 0.2209(2) 0.4326(3) 0.4770(4)
O22 O 0.1586(2) 0.3994(3) 0.4220(4)
O26 O 0.2662(2) 0.2476(3) 0.3818(4)
O29 O 0.1258(2) 0.7759(3) 0.3890(4)
O32 O 0.1933(2) 0.7907(5) 0.3623(5)
O33 O 0.1712(2) 0.7620(3) 0.9138(4)
O34 O 0.1712(2) 0.2380(3) 0.4138(4)
O35 O 0.2149(2) 0.8184(3) 0.9879(4)
O37 O 0.2851(2) 0.3184(3) 0.5121(4)
O40 O 0.1878(3) 0.9438(3) 0.4915(5)
O43 O 0.1461(3) 0.9089(3) 0.4066(5)
O44 O 0.2723(3) 0.3868(4) 0.3659(6)
H37 H 0.2927 0.3596 0.3631
O45 O 0.1945(3) 0.3288(4) 0.3069(4)
H38 H 0.1665 0.3310 0.3090
O46 O 0.2033(4) 0.8349(5) 0.6034(5)
H39 H 0.1837 0.8214 0.6299
H40 H 0.2286 0.8190 0.6155
O47 O 0.1000(4) 0.8309(5) 0.5347(7)
H41 H 0.0808 0.8080 0.5115
H42 H 0.1013 0.8220 0.5793
C25 C 0.8395(5) 0.0462(5) 0.5574(8)
H9 H 0.9068 0.0106 0.6452
O11 O 0.8122(3) 0.0562(3) 0.5085(5)
O12 O 0.8539(3) 0.0911(3) 0.5934(5)
Eu11 Eu 0.81938(2) 0.17183(2) 0.52016(3)
Eu1 Eu 0.777875(14) 0.676659(19) 0.56756(3)
C1 C 0.7940(4) 0.3312(5) 0.4955(8)
C2 C 0.8238(3) 0.3823(4) 0.5222(5)
C3 C 0.8084(3) 0.4441(4) 0.5233(5)
H1 H 0.7793 0.4528 0.5059
C4 C 0.8351(3) 0.4921(4) 0.5497(5)
C5 C 0.8177(3) 0.5575(4) 0.5510(6)
C6 C 0.8677(3) 0.3709(4) 0.5510(6)
H2 H 0.8787 0.3301 0.5505
C7 C 0.8941(3) 0.4169(4) 0.5792(6)
C8 C 0.8777(3) 0.4795(4) 0.5799(6)
H3 H 0.8953 0.5116 0.6004
C9 C 0.9373(3) 0.4016(4) 0.6099(7)
C10 C 0.9735(3) 0.3840(5) 0.6328(6)
C21 C 0.8169(3) 0.8128(4) 0.5586(6)
C22 C 0.8425(3) 0.8703(4) 0.5818(6)
C23 C 0.8278(3) 0.9303(4) 0.5600(6)
H7 H 0.8011 0.9351 0.5322
C24 C 0.8534(3) 0.9821(4) 0.5804(6)
C26 C 0.8807(3) 0.8632(4) 0.6246(6)
H8 H 0.8901 0.8234 0.6395
C27 C 0.9059(3) 0.9165(5) 0.6464(7)
C28 C 0.8914(3) 0.9754(5) 0.6272(6)
C29 C 0.9472(4) 0.9092(5) 0.6938(7)
C30 C 0.9810(4) 0.9079(5) 0.7273(8)
C31 C 0.6993(5) 0.5620(6) 0.6493(9)
H10 H 0.6877 0.5432 0.6049
H11 H 0.6753 0.5770 0.6754
H12 H 0.7160 0.5312 0.6777
C32 C 0.8008(5) 0.7084(7) 0.7561(6)
H13 H 0.8183 0.7459 0.7539
H14 H 0.8107 0.6848 0.7982
H15 H 0.7702 0.7196 0.7586
O1 O 0.8114(3) 0.2768(3) 0.4915(5)
O2 O 0.7556(3) 0.3436(3) 0.4743(5)
O3 O 0.7791(2) 0.5674(3) 0.5230(4)
O4 O 0.8414(2) 0.6006(3) 0.5780(4)
O9 O 0.8288(2) 0.7620(3) 0.5862(4)
O10 O 0.7851(2) 0.8184(3) 0.5121(4)
O13 O 0.7277(3) 0.6132(4) 0.6341(6)
H16 H 0.7073 0.6404 0.6369
O14 O 0.8055(3) 0.6712(4) 0.6931(4)
H17 H 0.8335 0.6690 0.6910
O15 O 0.7967(4) 0.1651(5) 0.3966(5)
H18 H 0.8163 0.1786 0.3701
H19 H 0.7714 0.1810 0.3845
O16 O 0.9000(4) 0.1691(5) 0.4653(7)
H20 H 0.9192 0.1920 0.4885
H21 H 0.8987 0.1780 0.4207
Eu5 Eu 0.722125(14) 0.823341(19) 0.43244(3)
Eu9 Eu 0.68062(2) 0.32817(2) 0.47984(3)
Eu14 Eu 0.81938(2) 0.82817(2) 0.02016(3)
C43 C 0.8013(3) 0.7155(4) 0.3983(6)
C44 C 0.8333(3) 0.7128(5) 0.3440(5)
C45 C 0.8254(3) 0.7420(5) 0.2754(6)
H25 H 0.7987 0.7629 0.2645
C46 C 0.8559(3) 0.7401(5) 0.2252(6)
C47 C 0.8462(4) 0.7711(6) 0.1522(6)
C48 C 0.8751(3) 0.6839(5) 0.3565(6)
H26 H 0.8818 0.6640 0.4004
C49 C 0.9065(3) 0.6839(5) 0.3068(6)
C50 C 0.8964(3) 0.7101(5) 0.2396(6)
H27 H 0.9165 0.7077 0.2044
C51 C 0.9491(3) 0.6576(5) 0.3243(6)
C52 C 0.9862(3) 0.6374(5) 0.3442(6)
O19 O 0.7444(3) 0.1564(3) 0.5257(5)
O23 O 0.8100(2) 0.6876(3) 0.4546(4)
O24 O 0.7662(2) 0.7476(3) 0.3818(4)
O25 O 0.7338(2) 0.7524(3) 0.6182(4)
O27 O 0.8742(2) 0.7759(3) 0.1110(4)
O28 O 0.8742(2) 0.2241(3) 0.6110(4)
O30 O 0.8067(2) 0.7907(5) 0.1377(5)
O31 O 0.8067(2) 0.2093(5) 0.6377(5)
O36 O 0.7149(2) 0.6816(3) 0.4879(4)
C1_2 C 0.2060(4) 0.3312(5) 0.0045(8)
O1_2 O 0.1886(3) 0.2768(3) 0.0085(5)
O2_2 O 0.2444(3) 0.3436(3) 0.0257(5)
O15_2 O 0.2033(4) 0.1651(5) 0.1034(5)
H18_2 H 0.1837 0.1786 0.1299
H19_2 H 0.2286 0.1810 0.1155
O16_2 O 0.1000(4) 0.1691(5) 0.0347(7)
H20_2 H 0.0808 0.1920 0.0115
H21_2 H 0.1013 0.1780 0.0793
Eu9_2 Eu 0.31938(2) 0.32817(2) 0.02016(3)
C43_2 C 0.1987(3) 0.7155(4) 0.1017(6)
C44_2 C 0.1667(3) 0.7128(5) 0.1560(5)
C45_2 C 0.1746(3) 0.7420(5) 0.2246(6)
H25_2 H 0.2013 0.7629 0.2355
C46_2 C 0.1441(3) 0.7401(5) 0.2748(6)
C47_2 C 0.1538(4) 0.7711(6) 0.3478(6)
C48_2 C 0.1249(3) 0.6839(5) 0.1435(6)
H26_2 H 0.1182 0.6640 0.0996
C49_2 C 0.0935(3) 0.6839(5) 0.1932(6)
C50_2 C 0.1036(3) 0.7101(5) 0.2604(6)
H27_2 H 0.0835 0.7077 0.2956
C51_2 C 0.0509(3) 0.6576(5) 0.1757(6)
C52_2 C 0.0138(3) 0.6374(5) 0.1558(6)
O23_2 O 0.1900(2) 0.6876(3) 0.0454(4)
O24_2 O 0.2338(2) 0.7476(3) 0.1182(4)
O36_2 O 0.2851(2) 0.6816(3) 0.0121(4)
C2_2 C 0.1762(3) 0.3823(4) 0.9778(5)
C3_2 C 0.1916(3) 0.4441(4) 0.9767(5)
H1_2 H 0.2207 0.4528 0.9941
C4_2 C 0.1649(3) 0.4921(4) 0.9503(5)
C5_2 C 0.1823(3) 0.5575(4) 0.9490(6)
C6_2 C 0.1323(3) 0.3709(4) 0.9490(6)
H2_2 H 0.1213 0.3301 0.9495
C7_2 C 0.1059(3) 0.4169(4) 0.9208(6)
C8_2 C 0.1223(3) 0.4795(4) 0.9201(6)
H3_2 H 0.1047 0.5116 0.8996
C9_2 C 0.0627(3) 0.4016(4) 0.8901(7)
C10_2 C 0.0265(3) 0.3840(5) 0.8672(6)
C31_2 C 0.3007(5) 0.5620(6) 0.8507(9)
H10_2 H 0.3123 0.5432 0.8951
H11_2 H 0.3247 0.5770 0.8246
H12_2 H 0.2840 0.5312 0.8223
C32_2 C 0.1992(5) 0.7084(7) 0.7439(6)
H13_2 H 0.1817 0.7459 0.7461
H14_2 H 0.1893 0.6848 0.7018
H15_2 H 0.2298 0.7196 0.7414
O3_2 O 0.2209(2) 0.5674(3) 0.9770(4)
O4_2 O 0.1586(2) 0.6006(3) 0.9220(4)
O13_2 O 0.2723(3) 0.6132(4) 0.8659(6)
H16_2 H 0.2927 0.6404 0.8631
O14_2 O 0.1945(3) 0.6712(4) 0.8069(4)
H17_2 H 0.1665 0.6690 0.8090
O19_2 O 0.2556(3) 0.1564(3) 0.9743(5)
O25_2 O 0.2662(2) 0.7524(3) 0.8818(4)
Eu3_2 Eu 0.777875(14) 0.323341(19) 0.06756(3)
C34_2 C 0.8238(3) 0.6177(4) 0.0222(5)
C35_2 C 0.8084(3) 0.5559(4) 0.0233(5)
H22_2 H 0.7793 0.5472 0.0059
C36_2 C 0.8351(3) 0.5079(4) 0.0497(5)
C37_2 C 0.8177(3) 0.4425(4) 0.0510(6)
C38_2 C 0.8677(3) 0.6291(4) 0.0510(6)
H23_2 H 0.8787 0.6699 0.0505
C39_2 C 0.8941(3) 0.5831(4) 0.0792(6)
C40_2 C 0.8777(3) 0.5205(4) 0.0799(6)
H24_2 H 0.8953 0.4884 0.1004
C41_2 C 0.9373(3) 0.5984(4) 0.1099(7)
C42_2 C 0.9735(3) 0.6160(5) 0.1328(6)
C63_2 C 0.6993(5) 0.4380(6) 0.1493(9)
H31_2 H 0.6877 0.4568 0.1049
H32_2 H 0.6753 0.4230 0.1754
H33_2 H 0.7160 0.4688 0.1777
C64_2 C 0.8008(5) 0.2916(7) 0.2561(6)
H34_2 H 0.8183 0.2541 0.2539
H35_2 H 0.8107 0.3152 0.2982
H36_2 H 0.7702 0.2804 0.2586
O20_2 O 0.7444(3) 0.8436(3) 0.0257(5)
O21_2 O 0.7791(2) 0.4326(3) 0.0230(4)
O22_2 O 0.8414(2) 0.3994(3) 0.0780(4)
O26_2 O 0.7338(2) 0.2476(3) 0.1182(4)
O34_2 O 0.8288(2) 0.2380(3) 0.0862(4)
O40_2 O 0.8122(3) 0.9438(3) 0.0085(5)
O43_2 O 0.8539(3) 0.9089(3) 0.0934(5)
O44_2 O 0.7277(3) 0.3868(4) 0.1341(6)
H37_2 H 0.7073 0.3596 0.1369
O45_2 O 0.8055(3) 0.3288(4) 0.1931(4)
H38_2 H 0.8335 0.3310 0.1910
C11_2 C 0.8013(3) 0.2845(4) 0.8983(6)
C12_2 C 0.8333(3) 0.2872(5) 0.8440(5)
C13_2 C 0.8254(3) 0.2580(5) 0.7754(6)
H4_2 H 0.7987 0.2371 0.7645
C14_2 C 0.8559(3) 0.2599(5) 0.7252(6)
C15_2 C 0.8462(4) 0.2289(6) 0.6522(6)
C16_2 C 0.8751(3) 0.3161(5) 0.8565(6)
H5_2 H 0.8818 0.3360 0.9004
C17_2 C 0.9065(3) 0.3161(5) 0.8068(6)
C18_2 C 0.8964(3) 0.2899(5) 0.7396(6)
H6_2 H 0.9165 0.2923 0.7044
C19_2 C 0.9491(3) 0.3424(5) 0.8243(6)
C20_2 C 0.9862(3) 0.3626(5) 0.8442(6)
O5_2 O 0.8100(2) 0.3124(3) 0.9546(4)
O6_2 O 0.7662(2) 0.2524(3) 0.8818(4)
Eu4_2 Eu 0.722125(14) 0.176659(19) 0.93244(3)
Eu13_2 Eu 0.68062(2) 0.67183(2) 0.97984(3)
C33_2 C 0.7940(4) 0.6688(5) 0.9955(8)
O17_2 O 0.8114(3) 0.7232(3) 0.9915(5)
O18_2 O 0.7556(3) 0.6564(3) 0.9743(5)
O37_2 O 0.7149(2) 0.3184(3) 0.9879(4)
O46_2 O 0.7967(4) 0.8349(5) 0.8966(5)
H39_2 H 0.8163 0.8214 0.8701
H40_2 H 0.7714 0.8190 0.8845
O47_2 O 0.9000(4) 0.8309(5) 0.9653(7)
H41_2 H 0.9192 0.8080 0.9885
H42_2 H 0.8987 0.8220 0.9207
C5_3 C 0.3177(3) 0.0575(4) 0.5510(6)
H3_3 H 0.3953 0.0116 0.6004
C21_2 C 0.3169(3) 0.3128(4) 0.5586(6)
C22_2 C 0.3425(3) 0.3703(4) 0.5818(6)
C23_2 C 0.3278(3) 0.4303(4) 0.5600(6)
H7_2 H 0.3011 0.4351 0.5322
C24_2 C 0.3534(3) 0.4821(4) 0.5804(6)
C25_2 C 0.3395(5) 0.5462(5) 0.5574(8)
C26_2 C 0.3807(3) 0.3632(4) 0.6246(6)
H8_2 H 0.3901 0.3234 0.6395
C27_2 C 0.4059(3) 0.4165(5) 0.6464(7)
C28_2 C 0.3914(3) 0.4754(5) 0.6272(6)
H9_2 H 0.4068 0.5106 0.6452
C29_2 C 0.4472(4) 0.4092(5) 0.6938(7)
C30_2 C 0.4810(4) 0.4079(5) 0.7273(8)
C31_3 C 0.1993(5) 0.0620(6) 0.6493(9)
H10_3 H 0.1877 0.0432 0.6049
H11_3 H 0.1753 0.0770 0.6754
H12_3 H 0.2160 0.0312 0.6777
C32_3 C 0.3008(5) 0.2084(7) 0.7561(6)
H13_3 H 0.3183 0.2459 0.7539
H14_3 H 0.3107 0.1848 0.7982
H15_3 H 0.2702 0.2196 0.7586
O3_3 O 0.2791(2) 0.0674(3) 0.5230(4)
O4_3 O 0.3414(2) 0.1006(3) 0.5780(4)
O9_2 O 0.3288(2) 0.2620(3) 0.5862(4)
O11_2 O 0.3122(3) 0.5562(3) 0.5085(5)
O12_2 O 0.3539(3) 0.5911(3) 0.5934(5)
O13_3 O 0.2277(3) 0.1132(4) 0.6341(6)
H16_3 H 0.2073 0.1404 0.6369
O14_3 O 0.3055(3) 0.1712(4) 0.6931(4)
H17_3 H 0.3335 0.1690 0.6910
C33_3 C 0.7060(4) 0.1688(5) 0.5045(8)
C34_3 C 0.6762(3) 0.1177(4) 0.4778(5)
C35_3 C 0.6916(3) 0.0559(4) 0.4767(5)
H22_3 H 0.7207 0.0472 0.4941
C36_3 C 0.6649(3) 0.0079(4) 0.4503(5)
C38_3 C 0.6323(3) 0.1291(4) 0.4490(6)
H23_3 H 0.6213 0.1699 0.4495
C39_3 C 0.6059(3) 0.0831(4) 0.4208(6)
C40_3 C 0.6223(3) 0.0205(4) 0.4201(6)
C41_3 C 0.5627(3) 0.0984(4) 0.3901(7)
C42_3 C 0.5265(3) 0.1160(5) 0.3672(6)
C43_3 C 0.3013(3) 0.2155(4) 0.3983(6)
C44_3 C 0.3333(3) 0.2128(5) 0.3440(5)
C45_3 C 0.3254(3) 0.2420(5) 0.2754(6)
H25_3 H 0.2987 0.2629 0.2645
C46_3 C 0.3559(3) 0.2401(5) 0.2252(6)
C47_3 C 0.3462(4) 0.2711(6) 0.1522(6)
C48_3 C 0.3751(3) 0.1839(5) 0.3565(6)
H26_3 H 0.3818 0.1640 0.4004
C49_3 C 0.4065(3) 0.1839(5) 0.3068(6)
C50_3 C 0.3964(3) 0.2101(5) 0.2396(6)
H27_3 H 0.4165 0.2077 0.2044
C51_3 C 0.4491(3) 0.1576(5) 0.3243(6)
C52_3 C 0.4862(3) 0.1374(5) 0.3442(6)
C53_2 C 0.6831(3) 0.3128(4) 0.9414(6)
C54_2 C 0.6575(3) 0.3703(4) 0.9182(6)
C55_2 C 0.6722(3) 0.4303(4) 0.9400(6)
H28_2 H 0.6989 0.4351 0.9678
C56_2 C 0.6466(3) 0.4821(4) 0.9196(6)
C57_2 C 0.6605(5) 0.5462(5) 0.9426(8)
C58_2 C 0.6193(3) 0.3632(4) 0.8754(6)
H29_2 H 0.6099 0.3234 0.8605
C59_2 C 0.5941(3) 0.4165(5) 0.8536(7)
C60_2 C 0.6086(3) 0.4754(5) 0.8728(6)
H30_2 H 0.5932 0.5106 0.8548
C61_2 C 0.5528(4) 0.4092(5) 0.8062(7)
C62_2 C 0.5190(4) 0.4079(5) 0.7727(8)
O17_3 O 0.6886(3) 0.2232(3) 0.5085(5)
O23_3 O 0.3100(2) 0.1876(3) 0.4546(4)
O27_2 O 0.3742(2) 0.2759(3) 0.1110(4)
O29_2 O 0.6258(2) 0.2759(3) 0.3890(4)
O30_2 O 0.3067(2) 0.2907(5) 0.1377(5)
O32_2 O 0.6933(2) 0.2907(5) 0.3623(5)
O33_2 O 0.6712(2) 0.2620(3) 0.9138(4)
O36_3 O 0.2149(2) 0.1816(3) 0.4879(4)
O38_2 O 0.6878(3) 0.5562(3) 0.9915(5)
O40_3 O 0.6878(3) 0.4438(3) 0.4915(5)
O41_2 O 0.6461(3) 0.5911(3) 0.9066(5)
O43_3 O 0.6461(3) 0.4089(3) 0.4066(5)
O46_3 O 0.7033(4) 0.3349(5) 0.6034(5)
H39_3 H 0.6837 0.3214 0.6299
H40_3 H 0.7286 0.3190 0.6155
O47_3 O 0.6000(4) 0.3309(5) 0.5347(7)
H41_3 H 0.5808 0.3080 0.5115
H42_3 H 0.6013 0.3220 0.5793
C1_3 C 0.2940(4) 0.8312(5) 0.4955(8)
C2_3 C 0.3238(3) 0.8823(4) 0.5222(5)
C3_3 C 0.3084(3) 0.9441(4) 0.5233(5)
H1_3 H 0.2793 0.9528 0.5059
C4_3 C 0.3351(3) 0.9921(4) 0.5497(5)
C6_3 C 0.3677(3) 0.8709(4) 0.5510(6)
H2_3 H 0.3787 0.8301 0.5505
C7_3 C 0.3941(3) 0.9169(4) 0.5792(6)
C8_3 C 0.3777(3) 0.9795(4) 0.5799(6)
C9_3 C 0.4373(3) 0.9016(4) 0.6099(7)
C10_3 C 0.4735(3) 0.8840(5) 0.6328(6)
C11_3 C 0.6987(3) 0.7845(4) 0.6017(6)
C12_3 C 0.6667(3) 0.7872(5) 0.6560(5)
C13_3 C 0.6746(3) 0.7580(5) 0.7246(6)
H4_3 H 0.7013 0.7371 0.7355
C14_3 C 0.6441(3) 0.7599(5) 0.7748(6)
C15_3 C 0.6538(4) 0.7289(6) 0.8478(6)
C16_3 C 0.6249(3) 0.8161(5) 0.6435(6)
H5_3 H 0.6182 0.8360 0.5996
C17_3 C 0.5935(3) 0.8161(5) 0.6932(6)
C18_3 C 0.6036(3) 0.7899(5) 0.7604(6)
H6_3 H 0.5835 0.7923 0.7956
C19_3 C 0.5509(3) 0.8424(5) 0.6757(6)
C20_3 C 0.5138(3) 0.8626(5) 0.6558(6)
O1_3 O 0.3114(3) 0.7768(3) 0.4915(5)
O5_3 O 0.6900(2) 0.8124(3) 0.5454(4)
O7_2 O 0.6258(2) 0.7241(3) 0.8890(4)
O8_2 O 0.6933(2) 0.7093(5) 0.8623(5)
O15_3 O 0.2967(4) 0.6651(5) 0.3966(5)
H18_3 H 0.3163 0.6786 0.3701
H19_3 H 0.2714 0.6810 0.3845
O16_3 O 0.4000(4) 0.6691(5) 0.4653(7)
H20_3 H 0.4192 0.6920 0.4885
H21_3 H 0.3987 0.6780 0.4207
C37_3 C 0.6823(3) 0.9425(4) 0.4490(6)
H24_3 H 0.6047 0.9884 0.3996
C63_3 C 0.8007(5) 0.9380(6) 0.3507(9)
H31_3 H 0.8123 0.9568 0.3951
H32_3 H 0.8247 0.9230 0.3246
H33_3 H 0.7840 0.9688 0.3223
C64_3 C 0.6992(5) 0.7916(7) 0.2439(6)
H34_3 H 0.6817 0.7541 0.2461
H35_3 H 0.6893 0.8152 0.2018
H36_3 H 0.7298 0.7804 0.2414
O21_3 O 0.7209(2) 0.9326(3) 0.4770(4)
O22_3 O 0.6586(2) 0.8994(3) 0.4220(4)
O28_2 O 0.3742(2) 0.7241(3) 0.6110(4)
O31_2 O 0.3067(2) 0.7093(5) 0.6377(5)
O34_3 O 0.6712(2) 0.7380(3) 0.4138(4)
O44_3 O 0.7723(3) 0.8868(4) 0.3659(6)
H37_3 H 0.7927 0.8596 0.3631
O45_3 O 0.6945(3) 0.8288(4) 0.3069(4)
H38_3 H 0.6665 0.8310 0.3090
C34_4 C 0.3238(3) 0.1177(4) 0.0222(5)
C35_4 C 0.3084(3) 0.0559(4) 0.0233(5)
H22_4 H 0.2793 0.0472 0.0059
C36_4 C 0.3351(3) 0.0079(4) 0.0497(5)
C38_4 C 0.3677(3) 0.1291(4) 0.0510(6)
H23_4 H 0.3787 0.1699 0.0505
C39_4 C 0.3941(3) 0.0831(4) 0.0792(6)
C40_4 C 0.3777(3) 0.0205(4) 0.0799(6)
C41_4 C 0.4373(3) 0.0984(4) 0.1099(7)
C42_4 C 0.4735(3) 0.1160(5) 0.1328(6)
C43_4 C 0.6987(3) 0.2155(4) 0.1017(6)
C44_4 C 0.6667(3) 0.2128(5) 0.1560(5)
C45_4 C 0.6746(3) 0.2420(5) 0.2246(6)
H25_4 H 0.7013 0.2629 0.2355
C46_4 C 0.6441(3) 0.2401(5) 0.2748(6)
C47_4 C 0.6538(4) 0.2711(6) 0.3478(6)
C48_4 C 0.6249(3) 0.1839(5) 0.1435(6)
H26_4 H 0.6182 0.1640 0.0996
C49_4 C 0.5935(3) 0.1839(5) 0.1932(6)
C50_4 C 0.6036(3) 0.2101(5) 0.2604(6)
H27_4 H 0.5835 0.2077 0.2956
C51_4 C 0.5509(3) 0.1576(5) 0.1757(6)
C52_4 C 0.5138(3) 0.1374(5) 0.1558(6)
O23_4 O 0.6900(2) 0.1876(3) 0.0454(4)
O36_4 O 0.7851(2) 0.1816(3) 0.0121(4)
O40_4 O 0.3122(3) 0.4438(3) 0.0085(5)
O43_4 O 0.3539(3) 0.4089(3) 0.0934(5)
C5_4 C 0.6823(3) 0.0575(4) 0.9490(6)
H3_4 H 0.6047 0.0116 0.8996
C31_4 C 0.8007(5) 0.0620(6) 0.8507(9)
H10_4 H 0.8123 0.0432 0.8951
H11_4 H 0.8247 0.0770 0.8246
H12_4 H 0.7840 0.0312 0.8223
C32_4 C 0.6992(5) 0.2084(7) 0.7439(6)
H13_4 H 0.6817 0.2459 0.7461
H14_4 H 0.6893 0.1848 0.7018
H15_4 H 0.7298 0.2196 0.7414
O3_4 O 0.7209(2) 0.0674(3) 0.9770(4)
O4_4 O 0.6586(2) 0.1006(3) 0.9220(4)
O13_4 O 0.7723(3) 0.1132(4) 0.8659(6)
H16_4 H 0.7927 0.1404 0.8631
O14_4 O 0.6945(3) 0.1712(4) 0.8069(4)
H17_4 H 0.6665 0.1690 0.8090
C33_4 C 0.2940(4) 0.1688(5) 0.9955(8)
O17_4 O 0.3114(3) 0.2232(3) 0.9915(5)
O46_4 O 0.2967(4) 0.3349(5) 0.8966(5)
H39_4 H 0.3163 0.3214 0.8701
H40_4 H 0.2714 0.3190 0.8845
O47_4 O 0.4000(4) 0.3309(5) 0.9653(7)
H41_4 H 0.4192 0.3080 0.9885
H42_4 H 0.3987 0.3220 0.9207
C1_4 C 0.7060(4) 0.8312(5) 0.0045(8)
O1_4 O 0.6886(3) 0.7768(3) 0.0085(5)
O15_4 O 0.7033(4) 0.6651(5) 0.1034(5)
H18_4 H 0.6837 0.6786 0.1299
H19_4 H 0.7286 0.6810 0.1155
O16_4 O 0.6000(4) 0.6691(5) 0.0347(7)
H20_4 H 0.5808 0.6920 0.0115
H21_4 H 0.6013 0.6780 0.0793
C37_4 C 0.3177(3) 0.9425(4) 0.0510(6)
H24_4 H 0.3953 0.9884 0.1004
C63_4 C 0.1993(5) 0.9380(6) 0.1493(9)
H31_4 H 0.1877 0.9568 0.1049
H32_4 H 0.1753 0.9230 0.1754
H33_4 H 0.2160 0.9688 0.1777
C64_4 C 0.3008(5) 0.7916(7) 0.2561(6)
H34_4 H 0.3183 0.7541 0.2539
H35_4 H 0.3107 0.8152 0.2982
H36_4 H 0.2702 0.7804 0.2586
O21_4 O 0.2791(2) 0.9326(3) 0.0230(4)
O22_4 O 0.3414(2) 0.8994(3) 0.0780(4)
O34_4 O 0.3288(2) 0.7380(3) 0.0862(4)
O44_4 O 0.2277(3) 0.8868(4) 0.1341(6)
H37_4 H 0.2073 0.8596 0.1369
O45_4 O 0.3055(3) 0.8288(4) 0.1931(4)
H38_4 H 0.3335 0.8310 0.1910
C2_4 C 0.6762(3) 0.8823(4) 0.9778(5)
C3_4 C 0.6916(3) 0.9441(4) 0.9767(5)
H1_4 H 0.7207 0.9528 0.9941
C4_4 C 0.6649(3) 0.9921(4) 0.9503(5)
C6_4 C 0.6323(3) 0.8709(4) 0.9490(6)
H2_4 H 0.6213 0.8301 0.9495
C7_4 C 0.6059(3) 0.9169(4) 0.9208(6)
C8_4 C 0.6223(3) 0.9795(4) 0.9201(6)
C9_4 C 0.5627(3) 0.9016(4) 0.8901(7)
C10_4 C 0.5265(3) 0.8840(5) 0.8672(6)
C11_4 C 0.3013(3) 0.7845(4) 0.8983(6)
C12_4 C 0.3333(3) 0.7872(5) 0.8440(5)
C13_4 C 0.3254(3) 0.7580(5) 0.7754(6)
H4_4 H 0.2987 0.7371 0.7645
C14_4 C 0.3559(3) 0.7599(5) 0.7252(6)
C15_4 C 0.3462(4) 0.7289(6) 0.6522(6)
C16_4 C 0.3751(3) 0.8161(5) 0.8565(6)
H5_4 H 0.3818 0.8360 0.9004
C17_4 C 0.4065(3) 0.8161(5) 0.8068(6)
C18_4 C 0.3964(3) 0.7899(5) 0.7396(6)
H6_4 H 0.4165 0.7923 0.7044
C19_4 C 0.4491(3) 0.8424(5) 0.8243(6)
C20_4 C 0.4862(3) 0.8626(5) 0.8442(6)
O5_4 O 0.3100(2) 0.8124(3) 0.9546(4)
C21_3 C 0.1831(3) 0.1872(4) 0.4414(6)
C22_3 C 0.1575(3) 0.1297(4) 0.4182(6)
C23_3 C 0.1722(3) 0.0697(4) 0.4400(6)
H7_3 H 0.1989 0.0649 0.4678
C24_3 C 0.1466(3) 0.0179(4) 0.4196(6)
C26_3 C 0.1193(3) 0.1368(4) 0.3754(6)
H8_3 H 0.1099 0.1766 0.3605
C27_3 C 0.0941(3) 0.0835(5) 0.3536(7)
C28_3 C 0.1086(3) 0.0246(5) 0.3728(6)
C29_3 C 0.0528(4) 0.0908(5) 0.3062(7)
C30_3 C 0.0190(4) 0.0921(5) 0.2727(8)
C25_3 C 0.1605(5) 0.9538(5) 0.4426(8)
H9_3 H 0.0932 0.9894 0.3548
C53_3 C 0.8169(3) 0.1872(4) 0.0586(6)
C54_3 C 0.8425(3) 0.1297(4) 0.0818(6)
C55_3 C 0.8278(3) 0.0697(4) 0.0600(6)
H28_3 H 0.8011 0.0649 0.0322
C56_3 C 0.8534(3) 0.0179(4) 0.0804(6)
C58_3 C 0.8807(3) 0.1368(4) 0.1246(6)
H29_3 H 0.8901 0.1766 0.1395
C59_3 C 0.9059(3) 0.0835(5) 0.1464(7)
C60_3 C 0.8914(3) 0.0246(5) 0.1272(6)
C61_3 C 0.9472(4) 0.0908(5) 0.1938(7)
C62_3 C 0.9810(4) 0.0921(5) 0.2273(8)
C57_3 C 0.8395(5) 0.9538(5) 0.0574(8)
H30_3 H 0.9068 0.9894 0.1452
C21_4 C 0.6831(3) 0.6872(4) 0.4414(6)
C22_4 C 0.6575(3) 0.6297(4) 0.4182(6)
C23_4 C 0.6722(3) 0.5697(4) 0.4400(6)
H7_4 H 0.6989 0.5649 0.4678
C24_4 C 0.6466(3) 0.5179(4) 0.4196(6)
C25_4 C 0.6605(5) 0.4538(5) 0.4426(8)
C26_4 C 0.6193(3) 0.6368(4) 0.3754(6)
H8_4 H 0.6099 0.6766 0.3605
C27_4 C 0.5941(3) 0.5835(5) 0.3536(7)
C28_4 C 0.6086(3) 0.5246(5) 0.3728(6)
H9_4 H 0.5932 0.4894 0.3548
C29_4 C 0.5528(4) 0.5908(5) 0.3062(7)
C30_4 C 0.5190(4) 0.5921(5) 0.2727(8)
C53_4 C 0.3169(3) 0.6872(4) 0.0586(6)
C54_4 C 0.3425(3) 0.6297(4) 0.0818(6)
C55_4 C 0.3278(3) 0.5697(4) 0.0600(6)
H28_4 H 0.3011 0.5649 0.0322
C56_4 C 0.3534(3) 0.5179(4) 0.0804(6)
C57_4 C 0.3395(5) 0.4538(5) 0.0574(8)
C58_4 C 0.3807(3) 0.6368(4) 0.1246(6)
H29_4 H 0.3901 0.6766 0.1395
C59_4 C 0.4059(3) 0.5835(5) 0.1464(7)
C60_4 C 0.3914(3) 0.5246(5) 0.1272(6)
H30_4 H 0.4068 0.4894 0.1452
C61_4 C 0.4472(4) 0.5908(5) 0.1938(7)
C62_4 C 0.4810(4) 0.5921(5) 0.2273(8)
loop_
_geom_bond_atom_site_label_1
_geom_bond_atom_site_label_2
_geom_bond_site_symmetry_1
_geom_bond_site_symmetry_2
Eu12 O38 1_555 1_555
O38 C57 1_555 1_555
O41 Eu12 1_555 1_555
C57 O41 1_555 1_555
C11 C12 1_555 1_555
C12 C13 1_555 1_555
C13 H4 1_555 1_555
C14 C13 1_555 1_555
C15 C14 1_555 1_555
C16 C12 1_555 1_555
H5 C16 1_555 1_555
C17 C16 1_555 1_555
C18 C14 1_555 1_555
H6 C18 1_555 1_555
C19 C17 1_555 1_555
O5 C11 1_555 1_555
O6 C11 1_555 1_555
O7 C15 1_555 1_555
O8 C15 1_555 1_555
Eu3 O5 1_555 1_555
Eu4 O6 1_555 1_555
Eu7 O33 1_555 1_555
Eu8 O17 1_555 1_555
Eu12 O7 1_555 1_555
Eu13 O18 1_555 1_555
C33 C34 1_555 1_555
C34 C35 1_555 1_555
C35 H22 1_555 1_555
C36 C35 1_555 1_555
C37 C36 1_555 1_555
C38 C34 1_555 1_555
H23 C38 1_555 1_555
C39 C38 1_555 1_555
C40 C36 1_555 1_555
H24 C40 1_555 1_555
C41 C39 1_555 1_555
C42 C41 1_555 1_555
C53 C54 1_555 1_555
C54 C55 1_555 1_555
C55 H28 1_555 1_555
C56 C55 1_555 1_555
C58 C54 1_555 1_555
H29 C58 1_555 1_555
C59 C58 1_555 1_555
C60 C56 1_555 1_555
C61 C59 1_555 1_555
C63 H31 1_555 1_555
H32 C63 1_555 1_555
H33 C63 1_555 1_555
C64 H34 1_555 1_555
H35 C64 1_555 1_555
H36 C64 1_555 1_555
O17 C33 1_555 1_555
O18 C33 1_555 1_555
O20 Eu8 1_555 1_555
O21 Eu3 1_555 1_555
O22 Eu3 1_555 1_555
O26 Eu3 1_555 1_555
O29 Eu8 1_555 1_555
O32 Eu8 1_555 1_555
O33 C53 1_555 1_555
O34 Eu3 1_555 1_555
O35 C53 1_555 1_555
O37 Eu3 1_555 1_555
O40 Eu8 1_555 1_555
O43 Eu8 1_555 1_555
O44 Eu3 1_555 1_555
H37 O44 1_555 1_555
O45 Eu3 1_555 1_555
H38 O45 1_555 1_555
O46 Eu8 1_555 1_555
H39 O46 1_555 1_555
H40 O46 1_555 1_555
O47 Eu8 1_555 1_555
H41 O47 1_555 1_555
H42 O47 1_555 1_555
C17 C18 1_555 1_555
C19 C20 1_555 1_555
O8 Eu12 1_555 1_555
C37 O21 1_555 1_555
C37 O22 1_555 1_555
C39 C40 1_555 1_555
C59 C60 1_555 1_555
C61 C62 1_555 1_555
C63 O44 1_555 1_555
C64 O45 1_555 1_555
O11 C25 1_555 1_555
O12 C25 1_555 1_555
Eu11 O11 1_555 1_555
O12 Eu11 1_555 1_555
Eu1 O3 1_555 1_555
Eu11 O1 1_555 1_555
C1 C2 1_555 1_555
C2 C3 1_555 1_555
C3 H1 1_555 1_555
C4 C3 1_555 1_555
C5 C4 1_555 1_555
C6 C2 1_555 1_555
H2 C6 1_555 1_555
C7 C6 1_555 1_555
C8 C4 1_555 1_555
H3 C8 1_555 1_555
C9 C7 1_555 1_555
C10 C9 1_555 1_555
C21 C22 1_555 1_555
C22 C23 1_555 1_555
C23 H7 1_555 1_555
C24 C23 1_555 1_555
C26 C22 1_555 1_555
H8 C26 1_555 1_555
C27 C26 1_555 1_555
C28 C24 1_555 1_555
C29 C27 1_555 1_555
C30 C29 1_555 1_555
C31 H10 1_555 1_555
H11 C31 1_555 1_555
H12 C31 1_555 1_555
C32 H13 1_555 1_555
H14 C32 1_555 1_555
H15 C32 1_555 1_555
O1 C1 1_555 1_555
O2 C1 1_555 1_555
O3 C5 1_555 1_555
O4 Eu1 1_555 1_555
O9 Eu1 1_555 1_555
O10 C21 1_555 1_555
O13 Eu1 1_555 1_555
H16 O13 1_555 1_555
O14 Eu1 1_555 1_555
H17 O14 1_555 1_555
O15 Eu11 1_555 1_555
H18 O15 1_555 1_555
H19 O15 1_555 1_555
O16 Eu11 1_555 1_555
H20 O16 1_555 1_555
H21 O16 1_555 1_555
Eu5 O10 1_555 1_555
Eu9 O2 1_555 1_555
Eu14 O27 1_555 1_555
C43 C44 1_555 1_555
C44 C45 1_555 1_555
C45 H25 1_555 1_555
C46 C45 1_555 1_555
C47 C46 1_555 1_555
C48 C44 1_555 1_555
H26 C48 1_555 1_555
C49 C48 1_555 1_555
C50 C46 1_555 1_555
H27 C50 1_555 1_555
C51 C49 1_555 1_555
O19 Eu11 1_555 1_555
O23 Eu1 1_555 1_555
O24 Eu5 1_555 1_555
O25 Eu1 1_555 1_555
O27 C47 1_555 1_555
O28 Eu11 1_555 1_555
O30 Eu14 1_555 1_555
O31 Eu11 1_555 1_555
O36 Eu1 1_555 1_555
C5 O4 1_555 1_555
C7 C8 1_555 1_555
C21 O9 1_555 1_555
C27 C28 1_555 1_555
C31 O13 1_555 1_555
C32 O14 1_555 1_555
C43 O23 1_555 1_555
C43 O24 1_555 1_555
C47 O30 1_555 1_555
C49 C50 1_555 1_555
C51 C52 1_555 1_555
O1_2 C1_2 1_555 1_555
O2_2 C1_2 1_555 1_555
H18_2 O15_2 1_555 1_555
H19_2 O15_2 1_555 1_555
H20_2 O16_2 1_555 1_555
H21_2 O16_2 1_555 1_555
Eu9_2 O2_2 1_555 1_555
C43_2 C44_2 1_555 1_555
C44_2 C45_2 1_555 1_555
C45_2 H25_2 1_555 1_555
C46_2 C45_2 1_555 1_555
C47_2 C46_2 1_555 1_555
C48_2 C44_2 1_555 1_555
H26_2 C48_2 1_555 1_555
C49_2 C48_2 1_555 1_555
C50_2 C46_2 1_555 1_555
H27_2 C50_2 1_555 1_555
C51_2 C49_2 1_555 1_555
O24_2 Eu6 1_555 1_555
O29 C47_2 1_555 1_555
C43_2 O23_2 1_555 1_555
C43_2 O24_2 1_555 1_555
C47_2 O32 1_555 1_555
C49_2 C50_2 1_555 1_555
C51_2 C52_2 1_555 1_555
Eu7 O3_2 1_555 1_555
C2_2 C3_2 1_555 1_555
C3_2 H1_2 1_555 1_555
C4_2 C3_2 1_555 1_555
C5_2 C4_2 1_555 1_555
C6_2 C2_2 1_555 1_555
H2_2 C6_2 1_555 1_555
C7_2 C6_2 1_555 1_555
C8_2 C4_2 1_555 1_555
H3_2 C8_2 1_555 1_555
C9_2 C7_2 1_555 1_555
C10_2 C9_2 1_555 1_555
C31_2 H10_2 1_555 1_555
H11_2 C31_2 1_555 1_555
H12_2 C31_2 1_555 1_555
C32_2 H13_2 1_555 1_555
H14_2 C32_2 1_555 1_555
H15_2 C32_2 1_555 1_555
O3_2 C5_2 1_555 1_555
O4_2 Eu7 1_555 1_555
O13_2 Eu7 1_555 1_555
H16_2 O13_2 1_555 1_555
O14_2 Eu7 1_555 1_555
H17_2 O14_2 1_555 1_555
O19_2 Eu12 1_555 1_555
O25_2 Eu7 1_555 1_555
C5_2 O4_2 1_555 1_555
C7_2 C8_2 1_555 1_555
C31_2 O13_2 1_555 1_555
C32_2 O14_2 1_555 1_555
C34_2 C35_2 1_555 1_555
C35_2 H22_2 1_555 1_555
C36_2 C35_2 1_555 1_555
C37_2 C36_2 1_555 1_555
C38_2 C34_2 1_555 1_555
H23_2 C38_2 1_555 1_555
C39_2 C38_2 1_555 1_555
C40_2 C36_2 1_555 1_555
H24_2 C40_2 1_555 1_555
C41_2 C39_2 1_555 1_555
C42_2 C41_2 1_555 1_555
C63_2 H31_2 1_555 1_555
H32_2 C63_2 1_555 1_555
H33_2 C63_2 1_555 1_555
C64_2 H34_2 1_555 1_555
H35_2 C64_2 1_555 1_555
H36_2 C64_2 1_555 1_555
O20_2 Eu14 1_555 1_555
O21_2 Eu3_2 1_555 1_555
O22_2 Eu3_2 1_555 1_555
O26_2 Eu3_2 1_555 1_555
O34_2 Eu3_2 1_555 1_555
O40_2 Eu14 1_555 1_555
O43_2 Eu14 1_555 1_555
O44_2 Eu3_2 1_555 1_555
H37_2 O44_2 1_555 1_555
O45_2 Eu3_2 1_555 1_555
H38_2 O45_2 1_555 1_555
C37_2 O21_2 1_555 1_555
C37_2 O22_2 1_555 1_555
C39_2 C40_2 1_555 1_555
C63_2 O44_2 1_555 1_555
C64_2 O45_2 1_555 1_555
C11_2 C12_2 1_555 1_555
C12_2 C13_2 1_555 1_555
C13_2 H4_2 1_555 1_555
C14_2 C13_2 1_555 1_555
C15_2 C14_2 1_555 1_555
C16_2 C12_2 1_555 1_555
H5_2 C16_2 1_555 1_555
C17_2 C16_2 1_555 1_555
C18_2 C14_2 1_555 1_555
H6_2 C18_2 1_555 1_555
C19_2 C17_2 1_555 1_555
O5_2 C11_2 1_555 1_555
O6_2 C11_2 1_555 1_555
O28 C15_2 1_555 1_555
O31 C15_2 1_555 1_555
Eu4_2 O6_2 1_555 1_555
Eu13_2 O18_2 1_555 1_555
O17_2 C33_2 1_555 1_555
O18_2 C33_2 1_555 1_555
H39_2 O46_2 1_555 1_555
H40_2 O46_2 1_555 1_555
H41_2 O47_2 1_555 1_555
H42_2 O47_2 1_555 1_555
C17_2 C18_2 1_555 1_555
C19_2 C20_2 1_555 1_555
Eu4 O3_3 1_555 1_555
C21_2 C22_2 1_555 1_555
C22_2 C23_2 1_555 1_555
C23_2 H7_2 1_555 1_555
C24_2 C23_2 1_555 1_555
C25_2 C24_2 1_555 1_555
C26_2 C22_2 1_555 1_555
H8_2 C26_2 1_555 1_555
C27_2 C26_2 1_555 1_555
C28_2 C24_2 1_555 1_555
H9_2 C28_2 1_555 1_555
C29_2 C27_2 1_555 1_555
C30_2 C29_2 1_555 1_555
C31_3 H10_3 1_555 1_555
H11_3 C31_3 1_555 1_555
H12_3 C31_3 1_555 1_555
C32_3 H13_3 1_555 1_555
H14_3 C32_3 1_555 1_555
H15_3 C32_3 1_555 1_555
O3_3 C5_3 1_555 1_555
O4_3 Eu4 1_555 1_555
O9_2 Eu4 1_555 1_555
O37 C21_2 1_555 1_555
O11_2 C25_2 1_555 1_555
O12_2 C25_2 1_555 1_555
O13_3 Eu4 1_555 1_555
H16_3 O13_3 1_555 1_555
O14_3 Eu4 1_555 1_555
H17_3 O14_3 1_555 1_555
Eu4_2 O33_2 1_555 1_555
Eu9 O17_3 1_555 1_555
Eu13 O11_2 1_555 1_555
Eu13_2 O38_2 1_555 1_555
Eu9_2 O27_2 1_555 1_555
C33_3 C34_3 1_555 1_555
C34_3 C35_3 1_555 1_555
C35_3 H22_3 1_555 1_555
C36_3 C35_3 1_555 1_555
C38_3 C34_3 1_555 1_555
H23_3 C38_3 1_555 1_555
C39_3 C38_3 1_555 1_555
C40_3 C36_3 1_555 1_555
C41_3 C39_3 1_555 1_555
C42_3 C41_3 1_555 1_555
C43_3 C44_3 1_555 1_555
C44_3 C45_3 1_555 1_555
C45_3 H25_3 1_555 1_555
C46_3 C45_3 1_555 1_555
C47_3 C46_3 1_555 1_555
C48_3 C44_3 1_555 1_555
H26_3 C48_3 1_555 1_555
C49_3 C48_3 1_555 1_555
C50_3 C46_3 1_555 1_555
H27_3 C50_3 1_555 1_555
C51_3 C49_3 1_555 1_555
C52_3 C42_3 1_555 1_555
C53_2 C54_2 1_555 1_555
C54_2 C55_2 1_555 1_555
C55_2 H28_2 1_555 1_555
C56_2 C55_2 1_555 1_555
C57_2 C56_2 1_555 1_555
C58_2 C54_2 1_555 1_555
H29_2 C58_2 1_555 1_555
C59_2 C58_2 1_555 1_555
C60_2 C56_2 1_555 1_555
H30_2 C60_2 1_555 1_555
C61_2 C59_2 1_555 1_555
C62_2 C30_2 1_555 1_555
O17_3 C33_3 1_555 1_555
O19 C33_3 1_555 1_555
O23_3 Eu4 1_555 1_555
O27_2 C47_3 1_555 1_555
O29_2 Eu9 1_555 1_555
O30_2 Eu9_2 1_555 1_555
O32_2 Eu9 1_555 1_555
O33_2 C53_2 1_555 1_555
O37_2 C53_2 1_555 1_555
O36_3 Eu4 1_555 1_555
O38_2 C57_2 1_555 1_555
O40_3 Eu9 1_555 1_555
O41_2 Eu13_2 1_555 1_555
O43_3 Eu9 1_555 1_555
O46_3 Eu9 1_555 1_555
H39_3 O46_3 1_555 1_555
H40_3 O46_3 1_555 1_555
O47_3 Eu9 1_555 1_555
H41_3 O47_3 1_555 1_555
H42_3 O47_3 1_555 1_555
C5_3 O4_3 1_555 1_555
C21_2 O9_2 1_555 1_555
C27_2 C28_2 1_555 1_555
C31_3 O13_3 1_555 1_555
C32_3 O14_3 1_555 1_555
O12_2 Eu13 1_555 1_555
C39_3 C40_3 1_555 1_555
C43_3 O23_3 1_555 1_555
C43_3 O26 1_555 1_555
C47_3 O30_2 1_555 1_555
C49_3 C50_3 1_555 1_555
C51_3 C52_3 1_555 1_555
C57_2 O41_2 1_555 1_555
C59_2 C60_2 1_555 1_555
C61_2 C62_2 1_555 1_555
Eu13 O1_3 1_555 1_555
C1_3 C2_3 1_555 1_555
C2_3 C3_3 1_555 1_555
C3_3 H1_3 1_555 1_555
C4_3 C3_3 1_555 1_555
C6_3 C2_3 1_555 1_555
H2_3 C6_3 1_555 1_555
C7_3 C6_3 1_555 1_555
C8_3 C4_3 1_555 1_555
C9_3 C7_3 1_555 1_555
C10_3 C9_3 1_555 1_555
C11_3 C12_3 1_555 1_555
C12_3 C13_3 1_555 1_555
C13_3 H4_3 1_555 1_555
C14_3 C13_3 1_555 1_555
C15_3 C14_3 1_555 1_555
C16_3 C12_3 1_555 1_555
H5_3 C16_3 1_555 1_555
C17_3 C16_3 1_555 1_555
C18_3 C14_3 1_555 1_555
H6_3 C18_3 1_555 1_555
C19_3 C17_3 1_555 1_555
C20_3 C10_3 1_555 1_555
O1_3 C1_3 1_555 1_555
O20 C1_3 1_555 1_555
O5_3 C11_3 1_555 1_555
O25 C11_3 1_555 1_555
O7_2 C15_3 1_555 1_555
O8_2 C15_3 1_555 1_555
O15_3 Eu13 1_555 1_555
H18_3 O15_3 1_555 1_555
H19_3 O15_3 1_555 1_555
O16_3 Eu13 1_555 1_555
H20_3 O16_3 1_555 1_555
H21_3 O16_3 1_555 1_555
Eu5 O5_3 1_555 1_555
Eu13_2 O7_2 1_555 1_555
C63_3 H31_3 1_555 1_555
H32_3 C63_3 1_555 1_555
H33_3 C63_3 1_555 1_555
C64_3 H34_3 1_555 1_555
H35_3 C64_3 1_555 1_555
H36_3 C64_3 1_555 1_555
O21_3 Eu5 1_555 1_555
O22_3 Eu5 1_555 1_555
O28_2 Eu13 1_555 1_555
O31_2 Eu13 1_555 1_555
O34_3 Eu5 1_555 1_555
O44_3 Eu5 1_555 1_555
H37_3 O44_3 1_555 1_555
O45_3 Eu5 1_555 1_555
H38_3 O45_3 1_555 1_555
C7_3 C8_3 1_555 1_555
C17_3 C18_3 1_555 1_555
C19_3 C20_3 1_555 1_555
O8_2 Eu13_2 1_555 1_555
C37_3 O21_3 1_555 1_555
C37_3 O22_3 1_555 1_555
C63_3 O44_3 1_555 1_555
C64_3 O45_3 1_555 1_555
C34_4 C35_4 1_555 1_555
C35_4 H22_4 1_555 1_555
C36_4 C35_4 1_555 1_555
C38_4 C34_4 1_555 1_555
H23_4 C38_4 1_555 1_555
C39_4 C38_4 1_555 1_555
C40_4 C36_4 1_555 1_555
C41_4 C39_4 1_555 1_555
C42_4 C41_4 1_555 1_555
C43_4 C44_4 1_555 1_555
C44_4 C45_4 1_555 1_555
C45_4 H25_4 1_555 1_555
C46_4 C45_4 1_555 1_555
C47_4 C46_4 1_555 1_555
C48_4 C44_4 1_555 1_555
H26_4 C48_4 1_555 1_555
C49_4 C48_4 1_555 1_555
C50_4 C46_4 1_555 1_555
H27_4 C50_4 1_555 1_555
C51_4 C49_4 1_555 1_555
C52_4 C42_4 1_555 1_555
O29_2 C47_4 1_555 1_555
O40_4 Eu9_2 1_555 1_555
O43_4 Eu9_2 1_555 1_555
C39_4 C40_4 1_555 1_555
C43_4 O23_4 1_555 1_555
C43_4 O26_2 1_555 1_555
C47_4 O32_2 1_555 1_555
C49_4 C50_4 1_555 1_555
C51_4 C52_4 1_555 1_555
Eu4_2 O3_4 1_555 1_555
C31_4 H10_4 1_555 1_555
H11_4 C31_4 1_555 1_555
H12_4 C31_4 1_555 1_555
C32_4 H13_4 1_555 1_555
H14_4 C32_4 1_555 1_555
H15_4 C32_4 1_555 1_555
O3_4 C5_4 1_555 1_555
O4_4 Eu4_2 1_555 1_555
O13_4 Eu4_2 1_555 1_555
H16_4 O13_4 1_555 1_555
O14_4 Eu4_2 1_555 1_555
H17_4 O14_4 1_555 1_555
O17_4 C33_4 1_555 1_555
O19_2 C33_4 1_555 1_555
H39_4 O46_4 1_555 1_555
H40_4 O46_4 1_555 1_555
H41_4 O47_4 1_555 1_555
H42_4 O47_4 1_555 1_555
C5_4 O4_4 1_555 1_555
C31_4 O13_4 1_555 1_555
C32_4 O14_4 1_555 1_555
O1_4 C1_4 1_555 1_555
O20_2 C1_4 1_555 1_555
H18_4 O15_4 1_555 1_555
H19_4 O15_4 1_555 1_555
H20_4 O16_4 1_555 1_555
H21_4 O16_4 1_555 1_555
C63_4 H31_4 1_555 1_555
H32_4 C63_4 1_555 1_555
H33_4 C63_4 1_555 1_555
C64_4 H34_4 1_555 1_555
H35_4 C64_4 1_555 1_555
H36_4 C64_4 1_555 1_555
O21_4 Eu6 1_555 1_555
O22_4 Eu6 1_555 1_555
O34_4 Eu6 1_555 1_555
O44_4 Eu6 1_555 1_555
H37_4 O44_4 1_555 1_555
O45_4 Eu6 1_555 1_555
H38_4 O45_4 1_555 1_555
C37_4 O21_4 1_555 1_555
C37_4 O22_4 1_555 1_555
C63_4 O44_4 1_555 1_555
C64_4 O45_4 1_555 1_555
C2_4 C3_4 1_555 1_555
C3_4 H1_4 1_555 1_555
C4_4 C3_4 1_555 1_555
C6_4 C2_4 1_555 1_555
H2_4 C6_4 1_555 1_555
C7_4 C6_4 1_555 1_555
C8_4 C4_4 1_555 1_555
C9_4 C7_4 1_555 1_555
C10_4 C9_4 1_555 1_555
C11_4 C12_4 1_555 1_555
C12_4 C13_4 1_555 1_555
C13_4 H4_4 1_555 1_555
C14_4 C13_4 1_555 1_555
C15_4 C14_4 1_555 1_555
C16_4 C12_4 1_555 1_555
H5_4 C16_4 1_555 1_555
C17_4 C16_4 1_555 1_555
C18_4 C14_4 1_555 1_555
H6_4 C18_4 1_555 1_555
C19_4 C17_4 1_555 1_555
C20_4 C10_4 1_555 1_555
O5_4 C11_4 1_555 1_555
O25_2 C11_4 1_555 1_555
O28_2 C15_4 1_555 1_555
O31_2 C15_4 1_555 1_555
C7_4 C8_4 1_555 1_555
C17_4 C18_4 1_555 1_555
C19_4 C20_4 1_555 1_555
C21_3 C22_3 1_555 1_555
C22_3 C23_3 1_555 1_555
C23_3 H7_3 1_555 1_555
C24_3 C23_3 1_555 1_555
C26_3 C22_3 1_555 1_555
H8_3 C26_3 1_555 1_555
C27_3 C26_3 1_555 1_555
C28_3 C24_3 1_555 1_555
C29_3 C27_3 1_555 1_555
C30_3 C29_3 1_555 1_555
O36_3 C21_3 1_555 1_555
C21_3 O34 1_555 1_555
C27_3 C28_3 1_555 1_555
O40 C25_3 1_555 1_555
O43 C25_3 1_555 1_555
C53_3 C54_3 1_555 1_555
C54_3 C55_3 1_555 1_555
C55_3 H28_3 1_555 1_555
C56_3 C55_3 1_555 1_555
C58_3 C54_3 1_555 1_555
H29_3 C58_3 1_555 1_555
C59_3 C58_3 1_555 1_555
C60_3 C56_3 1_555 1_555
C61_3 C59_3 1_555 1_555
O34_2 C53_3 1_555 1_555
O36_4 C53_3 1_555 1_555
C59_3 C60_3 1_555 1_555
C61_3 C62_3 1_555 1_555
O40_2 C57_3 1_555 1_555
C57_3 O43_2 1_555 1_555
C21_4 C22_4 1_555 1_555
C22_4 C23_4 1_555 1_555
C23_4 H7_4 1_555 1_555
C24_4 C23_4 1_555 1_555
C25_4 C24_4 1_555 1_555
C26_4 C22_4 1_555 1_555
H8_4 C26_4 1_555 1_555
C27_4 C26_4 1_555 1_555
C28_4 C24_4 1_555 1_555
H9_4 C28_4 1_555 1_555
C29_4 C27_4 1_555 1_555
C30_4 C29_4 1_555 1_555
O36 C21_4 1_555 1_555
O40_3 C25_4 1_555 1_555
O43_3 C25_4 1_555 1_555
C53_4 C54_4 1_555 1_555
C54_4 C55_4 1_555 1_555
C55_4 H28_4 1_555 1_555
C56_4 C55_4 1_555 1_555
C57_4 C56_4 1_555 1_555
C58_4 C54_4 1_555 1_555
H29_4 C58_4 1_555 1_555
C59_4 C58_4 1_555 1_555
C60_4 C56_4 1_555 1_555
H30_4 C60_4 1_555 1_555
C61_4 C59_4 1_555 1_555
C62_4 C30_4 1_555 1_555
O34_4 C53_4 1_555 1_555
O36_2 C53_4 1_555 1_555
O40_4 C57_4 1_555 1_555
C21_4 O34_3 1_555 1_555
C27_4 C28_4 1_555 1_555
C57_4 O43_4 1_555 1_555
C59_4 C60_4 1_555 1_555
C61_4 C62_4 1_555 1_555

#END
