
###############################################################################
#
# This file contains modified crystal structure data generated from the
# MOF subset of the Cambridge Structural Database (CSD) v543 
# hosted by the Cambridge Crystallographic Data Centre (CCDC).
#
# This work is licensed under the Creative Commons
# Attribution-NonCommercial-ShareAlike 4.0 International License.
# To view a copy of this license, visit
# http://creativecommons.org/licenses/by-nc-sa/4.0/
# or send a letter to
# Creative Commons, PO Box 1866, Mountain View, CA 94042, USA.
#
# CIF created using the CSD Python API on 29 September 2022
# The structure has been converted into the P1 space group
# The structure has a 3D framework
# The original CSD entry EYAKIB is in the tetragonal crystal system
# The original CSD entry EYAKIB is in a Sohncke space group
# The framework has been calculated to contain at least 10.0% void space
# The void calculation uses a probe of radius 1.32A, grid spacing 0.4
#
###############################################################################

data_EYAKIB
_chemical_formula_moiety         '(C224 H128 O112 S16 Ti20)n'
_symmetry_cell_setting           triclinic
_symmetry_space_group_name_H-M   'P 1'
_symmetry_Int_Tables_number      1
_space_group_name_Hall           'P 1'
loop_
_symmetry_equiv_pos_site_id
_symmetry_equiv_pos_as_xyz
1 x,y,z
_cell_length_a                   18.7537(3)
_cell_length_b                   18.7537(3)
_cell_length_c                   21.8194(5)
_cell_angle_alpha                90
_cell_angle_beta                 90
_cell_angle_gamma                90
_cell_volume                     7673.91
loop_
_atom_site_label
_atom_site_type_symbol
_atom_site_fract_x
_atom_site_fract_y
_atom_site_fract_z
Ti2 Ti -0.000000 0.23361(7) 0.000000
Ti3 Ti 0.16351(5) 0.16351(5) 0.000000
O20 O 0.0355(2) 0.2420(3) 0.08633(19)
Ti2_2 Ti -0.000000 0.23361(7) 1.000000
S2 S 0.25674(18) 0.59909(10) 0.88791(9)
O8 O 0.1762(2) 0.2682(2) 0.97611(18)
O9 O 0.3088(2) 0.6430(2) 0.58759(18)
O10 O 0.0694(2) 0.1701(2) 0.98172(18)
O11 O 0.0668(2) 0.3167(2) 0.9767(2)
O12 O 0.2580(3) 0.5355(2) 0.58633(19)
C15 C 0.2807(3) 0.5904(3) 0.6133(3)
C16 C 0.1335(3) 0.3193(3) 0.9673(3)
C17 C 0.1639(4) 0.3881(3) 0.9461(3)
C18 C 0.2738(4) 0.5924(3) 0.6814(3)
O13 O 0.2050(6) 0.6524(3) 0.9017(2)
O14 O 0.3279(5) 0.6038(4) 0.9122(3)
C19 C 0.2369(4) 0.3941(3) 0.9399(3)
H9 H 0.266047 0.354975 0.947301
C20 C 0.2202(5) 0.5156(3) 0.9103(3)
C21 C 0.2666(4) 0.4589(4) 0.9224(3)
H10 H 0.315720 0.464407 0.918870
C22 C 0.1187(4) 0.4451(4) 0.9334(3)
H11 H 0.069530 0.439968 0.936905
C23 C 0.1478(5) 0.5094(4) 0.9155(3)
H12 H 0.118425 0.548163 0.906978
C24 C 0.2625(5) 0.5938(4) 0.8067(3)
C25 C 0.3009(8) 0.6420(7) 0.7775(5)
H13 H 0.325706 0.676134 0.799829
C26 C 0.3048(8) 0.6424(7) 0.7158(5)
H14 H 0.329868 0.678885 0.696507
C27 C 0.2420(9) 0.5405(8) 0.7110(5)
H15 H 0.220446 0.504221 0.688695
C28 C 0.2395(10) 0.5380(8) 0.7737(6)
H16 H 0.221844 0.497671 0.793303
Ti3_2 Ti 0.16351(5) 0.16351(5) 1.000000
Ti4 Ti 0.33649(5) 0.66351(5) 0.500000
Ti6 Ti 0.26639(7) 0.500000 0.500000
Ti1 Ti 0.83649(5) 0.16351(5) 0.000000
Ti2_3 Ti 1.000000 0.23361(7) 0.000000
S1 S 0.74326(18) 0.59909(10) 0.11209(9)
O1 O 0.8238(2) 0.2682(2) 0.02389(18)
O2 O 0.6912(2) 0.6430(2) 0.41241(18)
O3 O 0.9306(2) 0.1701(2) 0.01828(18)
O4 O 0.9332(2) 0.3167(2) 0.0233(2)
O5 O 0.7420(3) 0.5355(2) 0.41367(19)
C1 C 0.7193(3) 0.5904(3) 0.3867(3)
C2 C 0.8665(3) 0.3193(3) 0.0327(3)
C3 C 0.8361(4) 0.3881(3) 0.0539(3)
C4 C 0.7262(4) 0.5924(3) 0.3186(3)
O6 O 0.7950(6) 0.6524(3) 0.0983(2)
O7 O 0.6721(5) 0.6038(4) 0.0878(3)
C5 C 0.7631(4) 0.3941(3) 0.0601(3)
H1 H 0.733953 0.354975 0.052699
C6 C 0.7798(5) 0.5156(3) 0.0897(3)
C7 C 0.7334(4) 0.4589(4) 0.0776(3)
H2 H 0.684280 0.464407 0.081130
C8 C 0.8813(4) 0.4451(4) 0.0666(3)
H3 H 0.930470 0.439968 0.063095
C9 C 0.8522(5) 0.5094(4) 0.0845(3)
H4 H 0.881575 0.548163 0.093022
C10 C 0.7375(5) 0.5938(4) 0.1933(3)
C11 C 0.6991(8) 0.6420(7) 0.2225(5)
H5 H 0.674294 0.676134 0.200171
C12 C 0.6952(8) 0.6424(7) 0.2842(5)
H6 H 0.670132 0.678885 0.303493
C13 C 0.7580(9) 0.5405(8) 0.2890(5)
H7 H 0.779554 0.504221 0.311305
C14 C 0.7605(10) 0.5380(8) 0.2263(6)
H8 H 0.778156 0.497671 0.206697
Ti5 Ti 0.66351(5) 0.66351(5) 0.500000
Ti7 Ti 0.73361(7) 0.500000 0.500000
O17 O 0.8088(2) 0.1430(2) 0.08759(18)
Ti1_2 Ti 0.83649(5) 0.16351(5) 1.000000
Ti2_4 Ti 1.000000 0.23361(7) 1.000000
O15 O 0.7318(2) 0.1762(2) 0.97611(18)
O16 O 0.8570(2) 0.1912(2) 0.91241(18)
O18 O 0.8299(2) 0.0694(2) 0.98172(18)
O19 O 0.9645(2) 0.2420(3) 0.91367(19)
Ti1_3 Ti 0.16351(5) 0.83649(5) 0.000000
Ti2_5 Ti 0.000000 0.76639(7) 0.000000
S1_2 S 0.25674(18) 0.40091(10) 0.11209(9)
O1_2 O 0.1762(2) 0.7318(2) 0.02389(18)
O2_2 O 0.3088(2) 0.3570(2) 0.41241(18)
O3_2 O 0.0694(2) 0.8299(2) 0.01828(18)
O4_2 O 0.0668(2) 0.6833(2) 0.0233(2)
O5_2 O 0.2580(3) 0.4645(2) 0.41367(19)
C1_2 C 0.2807(3) 0.4096(3) 0.3867(3)
C2_2 C 0.1335(3) 0.6807(3) 0.0327(3)
C3_2 C 0.1639(4) 0.6119(3) 0.0539(3)
C4_2 C 0.2738(4) 0.4076(3) 0.3186(3)
O6_2 O 0.2050(6) 0.3476(3) 0.0983(2)
O7_2 O 0.3279(5) 0.3962(4) 0.0878(3)
C5_2 C 0.2369(4) 0.6059(3) 0.0601(3)
H1_2 H 0.266047 0.645025 0.052699
C6_2 C 0.2202(5) 0.4844(3) 0.0897(3)
C7_2 C 0.2666(4) 0.5411(4) 0.0776(3)
H2_2 H 0.315720 0.535593 0.081130
C8_2 C 0.1187(4) 0.5549(4) 0.0666(3)
H3_2 H 0.069530 0.560032 0.063095
C9_2 C 0.1478(5) 0.4906(4) 0.0845(3)
H4_2 H 0.118425 0.451837 0.093022
C10_2 C 0.2625(5) 0.4062(4) 0.1933(3)
C11_2 C 0.3009(8) 0.3580(7) 0.2225(5)
H5_2 H 0.325706 0.323866 0.200171
C12_2 C 0.3048(8) 0.3576(7) 0.2842(5)
H6_2 H 0.329868 0.321115 0.303493
C13_2 C 0.2420(9) 0.4595(8) 0.2890(5)
H7_2 H 0.220446 0.495779 0.311305
C14_2 C 0.2395(10) 0.4620(8) 0.2263(6)
H8_2 H 0.221844 0.502329 0.206697
Ti5_2 Ti 0.33649(5) 0.33649(5) 0.500000
O17_2 O 0.1912(2) 0.8570(2) 0.08759(18)
Ti1_4 Ti 0.16351(5) 0.83649(5) 1.000000
Ti2_6 Ti 0.000000 0.76639(7) 1.000000
O15_2 O 0.2682(2) 0.8238(2) 0.97611(18)
O16_2 O 0.1430(2) 0.8088(2) 0.91241(18)
O18_2 O 0.1701(2) 0.9306(2) 0.98172(18)
O19_2 O 0.0355(2) 0.7580(3) 0.91367(19)
Ti2_7 Ti 1.000000 0.76639(7) 0.000000
Ti3_3 Ti 0.83649(5) 0.83649(5) 0.000000
O20_2 O 0.9645(2) 0.7580(3) 0.08633(19)
Ti2_8 Ti 1.000000 0.76639(7) 1.000000
S2_2 S 0.74326(18) 0.40091(10) 0.88791(9)
O8_2 O 0.8238(2) 0.7318(2) 0.97611(18)
O9_2 O 0.6912(2) 0.3570(2) 0.58759(18)
O10_2 O 0.9306(2) 0.8299(2) 0.98172(18)
O11_2 O 0.9332(2) 0.6833(2) 0.9767(2)
O12_2 O 0.7420(3) 0.4645(2) 0.58633(19)
C15_2 C 0.7193(3) 0.4096(3) 0.6133(3)
C16_2 C 0.8665(3) 0.6807(3) 0.9673(3)
C17_2 C 0.8361(4) 0.6119(3) 0.9461(3)
C18_2 C 0.7262(4) 0.4076(3) 0.6814(3)
O13_2 O 0.7950(6) 0.3476(3) 0.9017(2)
O14_2 O 0.6721(5) 0.3962(4) 0.9122(3)
C19_2 C 0.7631(4) 0.6059(3) 0.9399(3)
H9_2 H 0.733953 0.645025 0.947301
C20_2 C 0.7798(5) 0.4844(3) 0.9103(3)
C21_2 C 0.7334(4) 0.5411(4) 0.9224(3)
H10_2 H 0.684280 0.535593 0.918870
C22_2 C 0.8813(4) 0.5549(4) 0.9334(3)
H11_2 H 0.930470 0.560032 0.936905
C23_2 C 0.8522(5) 0.4906(4) 0.9155(3)
H12_2 H 0.881575 0.451837 0.906978
C24_2 C 0.7375(5) 0.4062(4) 0.8067(3)
C25_2 C 0.6991(8) 0.3580(7) 0.7775(5)
H13_2 H 0.674294 0.323866 0.799829
C26_2 C 0.6952(8) 0.3576(7) 0.7158(5)
H14_2 H 0.670132 0.321115 0.696507
C27_2 C 0.7580(9) 0.4595(8) 0.7110(5)
H15_2 H 0.779554 0.495779 0.688695
C28_2 C 0.7605(10) 0.4620(8) 0.7737(6)
H16_2 H 0.778156 0.502329 0.793303
Ti3_4 Ti 0.83649(5) 0.83649(5) 1.000000
Ti4_2 Ti 0.66351(5) 0.33649(5) 0.500000
Ti2_9 Ti 0.76639(7) -0.000000 0.000000
O20_3 O 0.7580(3) 0.0355(2) 0.08633(19)
Ti2_10 Ti 0.76639(7) -0.000000 1.000000
S2_3 S 0.40091(10) 0.25674(18) 0.88791(9)
O9_3 O 0.3570(2) 0.3088(2) 0.58759(18)
O11_3 O 0.6833(2) 0.0668(2) 0.9767(2)
O12_3 O 0.4645(2) 0.2580(3) 0.58633(19)
C15_3 C 0.4096(3) 0.2807(3) 0.6133(3)
C16_3 C 0.6807(3) 0.1335(3) 0.9673(3)
C17_3 C 0.6119(3) 0.1639(4) 0.9461(3)
C18_3 C 0.4076(3) 0.2738(4) 0.6814(3)
O13_3 O 0.3476(3) 0.2050(6) 0.9017(2)
O14_3 O 0.3962(4) 0.3279(5) 0.9122(3)
C19_3 C 0.6059(3) 0.2369(4) 0.9399(3)
H9_3 H 0.645025 0.266047 0.947301
C20_3 C 0.4844(3) 0.2202(5) 0.9103(3)
C21_3 C 0.5411(4) 0.2666(4) 0.9224(3)
H10_3 H 0.535593 0.315720 0.918870
C22_3 C 0.5549(4) 0.1187(4) 0.9334(3)
H11_3 H 0.560032 0.069530 0.936905
C23_3 C 0.4906(4) 0.1478(5) 0.9155(3)
H12_3 H 0.451837 0.118425 0.906978
C24_3 C 0.4062(4) 0.2625(5) 0.8067(3)
C25_3 C 0.3580(7) 0.3009(8) 0.7775(5)
H13_3 H 0.323866 0.325706 0.799829
C26_3 C 0.3576(7) 0.3048(8) 0.7158(5)
H14_3 H 0.321115 0.329868 0.696507
C27_3 C 0.4595(8) 0.2420(9) 0.7110(5)
H15_3 H 0.495779 0.220446 0.688695
C28_3 C 0.4620(8) 0.2395(10) 0.7737(6)
H16_3 H 0.502329 0.221844 0.793303
Ti6_2 Ti 0.500000 0.26639(7) 0.500000
Ti2_11 Ti 0.76639(7) 1.000000 0.000000
S1_3 S 0.40091(10) 0.74326(18) 0.11209(9)
O1_3 O 0.7318(2) 0.8238(2) 0.02389(18)
O2_3 O 0.3570(2) 0.6912(2) 0.41241(18)
O3_3 O 0.8299(2) 0.9306(2) 0.01828(18)
O4_3 O 0.6833(2) 0.9332(2) 0.0233(2)
O5_3 O 0.4645(2) 0.7420(3) 0.41367(19)
C1_3 C 0.4096(3) 0.7193(3) 0.3867(3)
C2_3 C 0.6807(3) 0.8665(3) 0.0327(3)
C3_3 C 0.6119(3) 0.8361(4) 0.0539(3)
C4_3 C 0.4076(3) 0.7262(4) 0.3186(3)
O6_3 O 0.3476(3) 0.7950(6) 0.0983(2)
O7_3 O 0.3962(4) 0.6721(5) 0.0878(3)
C5_3 C 0.6059(3) 0.7631(4) 0.0601(3)
H1_3 H 0.645025 0.733953 0.052699
C6_3 C 0.4844(3) 0.7798(5) 0.0897(3)
C7_3 C 0.5411(4) 0.7334(4) 0.0776(3)
H2_3 H 0.535593 0.684280 0.081130
C8_3 C 0.5549(4) 0.8813(4) 0.0666(3)
H3_3 H 0.560032 0.930470 0.063095
C9_3 C 0.4906(4) 0.8522(5) 0.0845(3)
H4_3 H 0.451837 0.881575 0.093022
C10_3 C 0.4062(4) 0.7375(5) 0.1933(3)
C11_3 C 0.3580(7) 0.6991(8) 0.2225(5)
H5_3 H 0.323866 0.674294 0.200171
C12_3 C 0.3576(7) 0.6952(8) 0.2842(5)
H6_3 H 0.321115 0.670132 0.303493
C13_3 C 0.4595(8) 0.7580(9) 0.2890(5)
H7_3 H 0.495779 0.779554 0.311305
C14_3 C 0.4620(8) 0.7605(10) 0.2263(6)
H8_3 H 0.502329 0.778156 0.206697
Ti7_2 Ti 0.500000 0.73361(7) 0.500000
O17_3 O 0.8570(2) 0.8088(2) 0.08759(18)
Ti2_12 Ti 0.76639(7) 1.000000 1.000000
O16_3 O 0.8088(2) 0.8570(2) 0.91241(18)
O19_3 O 0.7580(3) 0.9645(2) 0.91367(19)
Ti2_13 Ti 0.23361(7) 0.000000 0.000000
S1_4 S 0.59909(10) 0.25674(18) 0.11209(9)
O1_4 O 0.2682(2) 0.1762(2) 0.02389(18)
O2_4 O 0.6430(2) 0.3088(2) 0.41241(18)
O3_4 O 0.1701(2) 0.0694(2) 0.01828(18)
O4_4 O 0.3167(2) 0.0668(2) 0.0233(2)
O5_4 O 0.5355(2) 0.2580(3) 0.41367(19)
C1_4 C 0.5904(3) 0.2807(3) 0.3867(3)
C2_4 C 0.3193(3) 0.1335(3) 0.0327(3)
C3_4 C 0.3881(3) 0.1639(4) 0.0539(3)
C4_4 C 0.5924(3) 0.2738(4) 0.3186(3)
O6_4 O 0.6524(3) 0.2050(6) 0.0983(2)
O7_4 O 0.6038(4) 0.3279(5) 0.0878(3)
C5_4 C 0.3941(3) 0.2369(4) 0.0601(3)
H1_4 H 0.354975 0.266047 0.052699
C6_4 C 0.5156(3) 0.2202(5) 0.0897(3)
C7_4 C 0.4589(4) 0.2666(4) 0.0776(3)
H2_4 H 0.464407 0.315720 0.081130
C8_4 C 0.4451(4) 0.1187(4) 0.0666(3)
H3_4 H 0.439968 0.069530 0.063095
C9_4 C 0.5094(4) 0.1478(5) 0.0845(3)
H4_4 H 0.548163 0.118425 0.093022
C10_4 C 0.5938(4) 0.2625(5) 0.1933(3)
C11_4 C 0.6420(7) 0.3009(8) 0.2225(5)
H5_4 H 0.676134 0.325706 0.200171
C12_4 C 0.6424(7) 0.3048(8) 0.2842(5)
H6_4 H 0.678885 0.329868 0.303493
C13_4 C 0.5405(8) 0.2420(9) 0.2890(5)
H7_4 H 0.504221 0.220446 0.311305
C14_4 C 0.5380(8) 0.2395(10) 0.2263(6)
H8_4 H 0.497671 0.221844 0.206697
O17_4 O 0.1430(2) 0.1912(2) 0.08759(18)
Ti2_14 Ti 0.23361(7) 0.000000 1.000000
O16_4 O 0.1912(2) 0.1430(2) 0.91241(18)
O19_4 O 0.2420(3) 0.0355(2) 0.91367(19)
Ti2_15 Ti 0.23361(7) 1.000000 0.000000
O20_4 O 0.2420(3) 0.9645(2) 0.08633(19)
Ti2_16 Ti 0.23361(7) 1.000000 1.000000
S2_4 S 0.59909(10) 0.74326(18) 0.88791(9)
O9_4 O 0.6430(2) 0.6912(2) 0.58759(18)
O11_4 O 0.3167(2) 0.9332(2) 0.9767(2)
O12_4 O 0.5355(2) 0.7420(3) 0.58633(19)
C15_4 C 0.5904(3) 0.7193(3) 0.6133(3)
C16_4 C 0.3193(3) 0.8665(3) 0.9673(3)
C17_4 C 0.3881(3) 0.8361(4) 0.9461(3)
C18_4 C 0.5924(3) 0.7262(4) 0.6814(3)
O13_4 O 0.6524(3) 0.7950(6) 0.9017(2)
O14_4 O 0.6038(4) 0.6721(5) 0.9122(3)
C19_4 C 0.3941(3) 0.7631(4) 0.9399(3)
H9_4 H 0.354975 0.733953 0.947301
C20_4 C 0.5156(3) 0.7798(5) 0.9103(3)
C21_4 C 0.4589(4) 0.7334(4) 0.9224(3)
H10_4 H 0.464407 0.684280 0.918870
C22_4 C 0.4451(4) 0.8813(4) 0.9334(3)
H11_4 H 0.439968 0.930470 0.936905
C23_4 C 0.5094(4) 0.8522(5) 0.9155(3)
H12_4 H 0.548163 0.881575 0.906978
C24_4 C 0.5938(4) 0.7375(5) 0.8067(3)
C25_4 C 0.6420(7) 0.6991(8) 0.7775(5)
H13_4 H 0.676134 0.674294 0.799829
C26_4 C 0.6424(7) 0.6952(8) 0.7158(5)
H14_4 H 0.678885 0.670132 0.696507
C27_4 C 0.5405(8) 0.7580(9) 0.7110(5)
H15_4 H 0.504221 0.779554 0.688695
C28_4 C 0.5380(8) 0.7605(10) 0.7737(6)
H16_4 H 0.497671 0.778156 0.793303
S1_5 S 0.24326(18) 0.09909(10) 0.61209(9)
C1_5 C 0.2193(3) 0.0904(3) 0.8867(3)
C4_5 C 0.2262(4) 0.0924(3) 0.8186(3)
O6_5 O 0.2950(6) 0.1524(3) 0.5983(2)
O7_5 O 0.1721(5) 0.1038(4) 0.5878(3)
C6_5 C 0.2798(5) 0.0156(3) 0.5897(3)
C9_5 C 0.3522(5) 0.0094(4) 0.5845(3)
H4_5 H 0.381575 0.048163 0.593022
C10_5 C 0.2375(5) 0.0938(4) 0.6933(3)
C11_5 C 0.1991(8) 0.1420(7) 0.7225(5)
H5_5 H 0.174294 0.176134 0.700171
C12_5 C 0.1952(8) 0.1424(7) 0.7842(5)
H6_5 H 0.170132 0.178885 0.803493
C13_5 C 0.2580(9) 0.0405(8) 0.7890(5)
H7_5 H 0.279554 0.004221 0.811305
C14_5 C 0.2605(10) 0.0380(8) 0.7263(6)
S2_5 S 0.75674(18) 0.09909(10) 0.38791(9)
C15_5 C 0.7807(3) 0.0904(3) 0.1133(3)
C18_5 C 0.7738(4) 0.0924(3) 0.1814(3)
O13_5 O 0.7050(6) 0.1524(3) 0.4017(2)
O14_5 O 0.8279(5) 0.1038(4) 0.4122(3)
C20_5 C 0.7202(5) 0.0156(3) 0.4103(3)
C23_5 C 0.6478(5) 0.0094(4) 0.4155(3)
H12_5 H 0.618425 0.048163 0.406978
C24_5 C 0.7625(5) 0.0938(4) 0.3067(3)
C25_5 C 0.8009(8) 0.1420(7) 0.2775(5)
H13_5 H 0.825706 0.176134 0.299829
C26_5 C 0.8048(8) 0.1424(7) 0.2158(5)
H14_5 H 0.829868 0.178885 0.196507
C27_5 C 0.7420(9) 0.0405(8) 0.2110(5)
H15_5 H 0.720446 0.004221 0.188695
C28_5 C 0.7395(10) 0.0380(8) 0.2737(6)
O1_5 O 0.3238(2) 0.7682(2) 0.52389(18)
O3_5 O 0.4306(2) 0.6701(2) 0.51828(18)
O4_5 O 0.4332(2) 0.8167(2) 0.5233(2)
C2_5 C 0.3665(3) 0.8193(3) 0.5327(3)
C3_5 C 0.3361(4) 0.8881(3) 0.5539(3)
C5_5 C 0.2631(4) 0.8941(3) 0.5601(3)
H1_5 H 0.233953 0.854975 0.552699
C7_5 C 0.2334(4) 0.9589(4) 0.5776(3)
H2_5 H 0.184280 0.964407 0.581130
C8_5 C 0.3813(4) 0.9451(4) 0.5666(3)
H3_5 H 0.430470 0.939968 0.563095
H8_5 H 0.278156 0.997671 0.706697
O8_3 O 0.6762(2) 0.7682(2) 0.47611(18)
O10_3 O 0.5694(2) 0.6701(2) 0.48172(18)
O11_5 O 0.5668(2) 0.8167(2) 0.4767(2)
C16_5 C 0.6335(3) 0.8193(3) 0.4673(3)
C17_5 C 0.6639(4) 0.8881(3) 0.4461(3)
C19_5 C 0.7369(4) 0.8941(3) 0.4399(3)
H9_5 H 0.766047 0.854975 0.447301
C21_5 C 0.7666(4) 0.9589(4) 0.4224(3)
H10_5 H 0.815720 0.964407 0.418870
C22_5 C 0.6187(4) 0.9451(4) 0.4334(3)
H11_5 H 0.569530 0.939968 0.436905
H16_5 H 0.721844 0.997671 0.293303
O15_3 O 0.2318(2) 0.6762(2) 0.47611(18)
O18_3 O 0.3299(2) 0.5694(2) 0.48172(18)
O1_6 O 0.6762(2) 0.2318(2) 0.52389(18)
O3_6 O 0.5694(2) 0.3299(2) 0.51828(18)
O4_6 O 0.5668(2) 0.1833(2) 0.5233(2)
C2_6 C 0.6335(3) 0.1807(3) 0.5327(3)
C3_6 C 0.6639(4) 0.1119(3) 0.5539(3)
C5_6 C 0.7369(4) 0.1059(3) 0.5601(3)
H1_6 H 0.766047 0.145025 0.552699
C7_6 C 0.7666(4) 0.0411(4) 0.5776(3)
H2_6 H 0.815720 0.035593 0.581130
C8_6 C 0.6187(4) 0.0549(4) 0.5666(3)
H3_6 H 0.569530 0.060032 0.563095
H8_6 H 0.721844 0.002329 0.706697
O8_4 O 0.3238(2) 0.2318(2) 0.47611(18)
O10_4 O 0.4306(2) 0.3299(2) 0.48172(18)
O11_6 O 0.4332(2) 0.1833(2) 0.4767(2)
C16_6 C 0.3665(3) 0.1807(3) 0.4673(3)
C17_6 C 0.3361(4) 0.1119(3) 0.4461(3)
C19_6 C 0.2631(4) 0.1059(3) 0.4399(3)
H9_6 H 0.233953 0.145025 0.447301
C21_6 C 0.2334(4) 0.0411(4) 0.4224(3)
H10_6 H 0.184280 0.035593 0.418870
C22_6 C 0.3813(4) 0.0549(4) 0.4334(3)
H11_6 H 0.430470 0.060032 0.436905
H16_6 H 0.278156 0.002329 0.293303
O15_4 O 0.7682(2) 0.3238(2) 0.47611(18)
O18_4 O 0.6701(2) 0.4306(2) 0.48172(18)
S1_6 S 0.75674(18) 0.90091(10) 0.61209(9)
C1_6 C 0.7807(3) 0.9096(3) 0.8867(3)
C4_6 C 0.7738(4) 0.9076(3) 0.8186(3)
O6_6 O 0.7050(6) 0.8476(3) 0.5983(2)
O7_6 O 0.8279(5) 0.8962(4) 0.5878(3)
C6_6 C 0.7202(5) 0.9844(3) 0.5897(3)
C9_6 C 0.6478(5) 0.9906(4) 0.5845(3)
H4_6 H 0.618425 0.951837 0.593022
C10_6 C 0.7625(5) 0.9062(4) 0.6933(3)
C11_6 C 0.8009(8) 0.8580(7) 0.7225(5)
H5_6 H 0.825706 0.823866 0.700171
C12_6 C 0.8048(8) 0.8576(7) 0.7842(5)
H6_6 H 0.829868 0.821115 0.803493
C13_6 C 0.7420(9) 0.9595(8) 0.7890(5)
H7_6 H 0.720446 0.995779 0.811305
C14_6 C 0.7395(10) 0.9620(8) 0.7263(6)
S2_6 S 0.24326(18) 0.90091(10) 0.38791(9)
C15_6 C 0.2193(3) 0.9096(3) 0.1133(3)
C18_6 C 0.2262(4) 0.9076(3) 0.1814(3)
O13_6 O 0.2950(6) 0.8476(3) 0.4017(2)
O14_6 O 0.1721(5) 0.8962(4) 0.4122(3)
C20_6 C 0.2798(5) 0.9844(3) 0.4103(3)
C23_6 C 0.3522(5) 0.9906(4) 0.4155(3)
H12_6 H 0.381575 0.951837 0.406978
C24_6 C 0.2375(5) 0.9062(4) 0.3067(3)
C25_6 C 0.1991(8) 0.8580(7) 0.2775(5)
H13_6 H 0.174294 0.823866 0.299829
C26_6 C 0.1952(8) 0.8576(7) 0.2158(5)
H14_6 H 0.170132 0.821115 0.196507
C27_6 C 0.2580(9) 0.9595(8) 0.2110(5)
H15_6 H 0.279554 0.995779 0.188695
C28_6 C 0.2605(10) 0.9620(8) 0.2737(6)
O1_7 O 0.2318(2) 0.3238(2) 0.52389(18)
O3_7 O 0.3299(2) 0.4306(2) 0.51828(18)
O4_7 O 0.1833(2) 0.4332(2) 0.5233(2)
C2_7 C 0.1807(3) 0.3665(3) 0.5327(3)
C3_7 C 0.1119(3) 0.3361(4) 0.5539(3)
C5_7 C 0.1059(3) 0.2631(4) 0.5601(3)
H1_7 H 0.145025 0.233953 0.552699
C7_7 C 0.0411(4) 0.2334(4) 0.5776(3)
H2_7 H 0.035593 0.184280 0.581130
C8_7 C 0.0549(4) 0.3813(4) 0.5666(3)
H3_7 H 0.060032 0.430470 0.563095
H8_7 H 0.002329 0.278156 0.706697
O11_7 O 0.1833(2) 0.5668(2) 0.4767(2)
C16_7 C 0.1807(3) 0.6335(3) 0.4673(3)
C17_7 C 0.1119(3) 0.6639(4) 0.4461(3)
C19_7 C 0.1059(3) 0.7369(4) 0.4399(3)
H9_7 H 0.145025 0.766047 0.447301
C21_7 C 0.0411(4) 0.7666(4) 0.4224(3)
H10_7 H 0.035593 0.815720 0.418870
C22_7 C 0.0549(4) 0.6187(4) 0.4334(3)
H11_7 H 0.060032 0.569530 0.436905
H16_7 H 0.002329 0.721844 0.293303
S1_7 S 0.90091(10) 0.24326(18) 0.61209(9)
C1_7 C 0.9096(3) 0.2193(3) 0.8867(3)
C4_7 C 0.9076(3) 0.2262(4) 0.8186(3)
O6_7 O 0.8476(3) 0.2950(6) 0.5983(2)
O7_7 O 0.8962(4) 0.1721(5) 0.5878(3)
C6_7 C 0.9844(3) 0.2798(5) 0.5897(3)
C9_7 C 0.9906(4) 0.3522(5) 0.5845(3)
H4_7 H 0.951837 0.381575 0.593022
C10_7 C 0.9062(4) 0.2375(5) 0.6933(3)
C11_7 C 0.8580(7) 0.1991(8) 0.7225(5)
H5_7 H 0.823866 0.174294 0.700171
C12_7 C 0.8576(7) 0.1952(8) 0.7842(5)
H6_7 H 0.821115 0.170132 0.803493
C13_7 C 0.9595(8) 0.2580(9) 0.7890(5)
H7_7 H 0.995779 0.279554 0.811305
C14_7 C 0.9620(8) 0.2605(10) 0.7263(6)
S2_7 S 0.90091(10) 0.75674(18) 0.38791(9)
C15_7 C 0.9096(3) 0.7807(3) 0.1133(3)
C18_7 C 0.9076(3) 0.7738(4) 0.1814(3)
O13_7 O 0.8476(3) 0.7050(6) 0.4017(2)
O14_7 O 0.8962(4) 0.8279(5) 0.4122(3)
C20_7 C 0.9844(3) 0.7202(5) 0.4103(3)
C23_7 C 0.9906(4) 0.6478(5) 0.4155(3)
H12_7 H 0.951837 0.618425 0.406978
C24_7 C 0.9062(4) 0.7625(5) 0.3067(3)
C25_7 C 0.8580(7) 0.8009(8) 0.2775(5)
H13_7 H 0.823866 0.825706 0.299829
C26_7 C 0.8576(7) 0.8048(8) 0.2158(5)
H14_7 H 0.821115 0.829868 0.196507
C27_7 C 0.9595(8) 0.7420(9) 0.2110(5)
H15_7 H 0.995779 0.720446 0.188695
C28_7 C 0.9620(8) 0.7395(10) 0.2737(6)
S1_8 S 0.09909(10) 0.75674(18) 0.61209(9)
C1_8 C 0.0904(3) 0.7807(3) 0.8867(3)
C4_8 C 0.0924(3) 0.7738(4) 0.8186(3)
O6_8 O 0.1524(3) 0.7050(6) 0.5983(2)
O7_8 O 0.1038(4) 0.8279(5) 0.5878(3)
C6_8 C 0.0156(3) 0.7202(5) 0.5897(3)
C9_8 C 0.0094(4) 0.6478(5) 0.5845(3)
H4_8 H 0.048163 0.618425 0.593022
C10_8 C 0.0938(4) 0.7625(5) 0.6933(3)
C11_8 C 0.1420(7) 0.8009(8) 0.7225(5)
H5_8 H 0.176134 0.825706 0.700171
C12_8 C 0.1424(7) 0.8048(8) 0.7842(5)
H6_8 H 0.178885 0.829868 0.803493
C13_8 C 0.0405(8) 0.7420(9) 0.7890(5)
H7_8 H 0.004221 0.720446 0.811305
C14_8 C 0.0380(8) 0.7395(10) 0.7263(6)
S2_8 S 0.09909(10) 0.24326(18) 0.38791(9)
C15_8 C 0.0904(3) 0.2193(3) 0.1133(3)
C18_8 C 0.0924(3) 0.2262(4) 0.1814(3)
O13_8 O 0.1524(3) 0.2950(6) 0.4017(2)
O14_8 O 0.1038(4) 0.1721(5) 0.4122(3)
C20_8 C 0.0156(3) 0.2798(5) 0.4103(3)
C23_8 C 0.0094(4) 0.3522(5) 0.4155(3)
H12_8 H 0.048163 0.381575 0.406978
C24_8 C 0.0938(4) 0.2375(5) 0.3067(3)
C25_8 C 0.1420(7) 0.1991(8) 0.2775(5)
H13_8 H 0.176134 0.174294 0.299829
C26_8 C 0.1424(7) 0.1952(8) 0.2158(5)
H14_8 H 0.178885 0.170132 0.196507
C27_8 C 0.0405(8) 0.2580(9) 0.2110(5)
H15_8 H 0.004221 0.279554 0.188695
C28_8 C 0.0380(8) 0.2605(10) 0.2737(6)
O1_8 O 0.7682(2) 0.6762(2) 0.52389(18)
O3_8 O 0.6701(2) 0.5694(2) 0.51828(18)
O4_8 O 0.8167(2) 0.5668(2) 0.5233(2)
C2_8 C 0.8193(3) 0.6335(3) 0.5327(3)
C3_8 C 0.8881(3) 0.6639(4) 0.5539(3)
C5_8 C 0.8941(3) 0.7369(4) 0.5601(3)
H1_8 H 0.854975 0.766047 0.552699
C7_8 C 0.9589(4) 0.7666(4) 0.5776(3)
H2_8 H 0.964407 0.815720 0.581130
C8_8 C 0.9451(4) 0.6187(4) 0.5666(3)
H3_8 H 0.939968 0.569530 0.563095
H8_8 H 0.997671 0.721844 0.706697
O11_8 O 0.8167(2) 0.4332(2) 0.4767(2)
C16_8 C 0.8193(3) 0.3665(3) 0.4673(3)
C17_8 C 0.8881(3) 0.3361(4) 0.4461(3)
C19_8 C 0.8941(3) 0.2631(4) 0.4399(3)
H9_8 H 0.854975 0.233953 0.447301
C21_8 C 0.9589(4) 0.2334(4) 0.4224(3)
H10_8 H 0.964407 0.184280 0.418870
C22_8 C 0.9451(4) 0.3813(4) 0.4334(3)
H11_8 H 0.939968 0.430470 0.436905
H16_8 H 0.997671 0.278156 0.293303
loop_
_geom_bond_atom_site_label_1
_geom_bond_atom_site_label_2
_geom_bond_site_symmetry_1
_geom_bond_site_symmetry_2
O20 Ti2 1_555 1_555
S2 O13 1_555 1_555
O8 C16 1_555 1_555
O9 C15 1_555 1_555
O10 Ti2_2 1_555 1_555
O11 Ti2_2 1_555 1_555
O12 C15 1_555 1_555
C15 C18 1_555 1_555
C16 O11 1_555 1_555
C17 C16 1_555 1_555
C18 C26 1_555 1_555
O14 S2 1_555 1_555
C19 C17 1_555 1_555
H9 C19 1_555 1_555
C20 S2 1_555 1_555
C21 C19 1_555 1_555
H10 C21 1_555 1_555
C22 C17 1_555 1_555
H11 C22 1_555 1_555
C23 C20 1_555 1_555
H12 C23 1_555 1_555
C24 S2 1_555 1_555
C25 C24 1_555 1_555
H13 C25 1_555 1_555
C26 C25 1_555 1_555
H14 C26 1_555 1_555
C27 C18 1_555 1_555
H15 C27 1_555 1_555
C28 C24 1_555 1_555
H16 C28 1_555 1_555
Ti3_2 O8 1_555 1_555
Ti4 O9 1_555 1_555
Ti6 O12 1_555 1_555
O10 Ti3_2 1_555 1_555
C20 C21 1_555 1_555
C22 C23 1_555 1_555
C27 C28 1_555 1_555
Ti1 O1 1_555 1_555
Ti2_3 O3 1_555 1_555
S1 O6 1_555 1_555
O1 C2 1_555 1_555
O2 C1 1_555 1_555
O3 Ti1 1_555 1_555
O4 Ti2_3 1_555 1_555
O5 C1 1_555 1_555
C1 C4 1_555 1_555
C2 O4 1_555 1_555
C3 C2 1_555 1_555
C4 C12 1_555 1_555
O7 S1 1_555 1_555
C5 C3 1_555 1_555
H1 C5 1_555 1_555
C6 S1 1_555 1_555
C7 C5 1_555 1_555
H2 C7 1_555 1_555
C8 C3 1_555 1_555
H3 C8 1_555 1_555
C9 C6 1_555 1_555
H4 C9 1_555 1_555
C10 S1 1_555 1_555
C11 C10 1_555 1_555
H5 C11 1_555 1_555
C12 C11 1_555 1_555
H6 C12 1_555 1_555
C13 C4 1_555 1_555
H7 C13 1_555 1_555
C14 C10 1_555 1_555
H8 C14 1_555 1_555
Ti5 O2 1_555 1_555
Ti7 O5 1_555 1_555
O17 Ti1 1_555 1_555
C6 C7 1_555 1_555
C8 C9 1_555 1_555
C13 C14 1_555 1_555
O15 Ti1_2 1_555 1_555
O16 Ti1_2 1_555 1_555
O18 Ti1_2 1_555 1_555
O19 Ti2_4 1_555 1_555
Ti1_3 O1_2 1_555 1_555
Ti2_5 O3_2 1_555 1_555
S1_2 O6_2 1_555 1_555
O1_2 C2_2 1_555 1_555
O2_2 C1_2 1_555 1_555
O3_2 Ti1_3 1_555 1_555
O4_2 Ti2_5 1_555 1_555
O5_2 C1_2 1_555 1_555
C1_2 C4_2 1_555 1_555
C2_2 O4_2 1_555 1_555
C3_2 C2_2 1_555 1_555
C4_2 C12_2 1_555 1_555
O7_2 S1_2 1_555 1_555
C5_2 C3_2 1_555 1_555
H1_2 C5_2 1_555 1_555
C6_2 S1_2 1_555 1_555
C7_2 C5_2 1_555 1_555
H2_2 C7_2 1_555 1_555
C8_2 C3_2 1_555 1_555
H3_2 C8_2 1_555 1_555
C9_2 C6_2 1_555 1_555
H4_2 C9_2 1_555 1_555
C10_2 S1_2 1_555 1_555
C11_2 C10_2 1_555 1_555
H5_2 C11_2 1_555 1_555
C12_2 C11_2 1_555 1_555
H6_2 C12_2 1_555 1_555
C13_2 C4_2 1_555 1_555
H7_2 C13_2 1_555 1_555
C14_2 C10_2 1_555 1_555
H8_2 C14_2 1_555 1_555
Ti5_2 O2_2 1_555 1_555
Ti6 O5_2 1_555 1_555
O17_2 Ti1_3 1_555 1_555
C6_2 C7_2 1_555 1_555
C8_2 C9_2 1_555 1_555
C13_2 C14_2 1_555 1_555
O15_2 Ti1_4 1_555 1_555
O16_2 Ti1_4 1_555 1_555
O18_2 Ti1_4 1_555 1_555
O19_2 Ti2_6 1_555 1_555
O20_2 Ti2_7 1_555 1_555
S2_2 O13_2 1_555 1_555
O8_2 C16_2 1_555 1_555
O9_2 C15_2 1_555 1_555
O10_2 Ti2_8 1_555 1_555
O11_2 Ti2_8 1_555 1_555
O12_2 C15_2 1_555 1_555
C15_2 C18_2 1_555 1_555
C16_2 O11_2 1_555 1_555
C17_2 C16_2 1_555 1_555
C18_2 C26_2 1_555 1_555
O14_2 S2_2 1_555 1_555
C19_2 C17_2 1_555 1_555
H9_2 C19_2 1_555 1_555
C20_2 S2_2 1_555 1_555
C21_2 C19_2 1_555 1_555
H10_2 C21_2 1_555 1_555
C22_2 C17_2 1_555 1_555
H11_2 C22_2 1_555 1_555
C23_2 C20_2 1_555 1_555
H12_2 C23_2 1_555 1_555
C24_2 S2_2 1_555 1_555
C25_2 C24_2 1_555 1_555
H13_2 C25_2 1_555 1_555
C26_2 C25_2 1_555 1_555
H14_2 C26_2 1_555 1_555
C27_2 C18_2 1_555 1_555
H15_2 C27_2 1_555 1_555
C28_2 C24_2 1_555 1_555
H16_2 C28_2 1_555 1_555
Ti3_4 O8_2 1_555 1_555
Ti4_2 O9_2 1_555 1_555
Ti7 O12_2 1_555 1_555
O10_2 Ti3_4 1_555 1_555
C20_2 C21_2 1_555 1_555
C22_2 C23_2 1_555 1_555
C27_2 C28_2 1_555 1_555
O20_3 Ti2_9 1_555 1_555
S2_3 O13_3 1_555 1_555
O15 C16_3 1_555 1_555
O9_3 C15_3 1_555 1_555
O18 Ti2_10 1_555 1_555
O11_3 Ti2_10 1_555 1_555
O12_3 C15_3 1_555 1_555
C15_3 C18_3 1_555 1_555
C16_3 O11_3 1_555 1_555
C17_3 C16_3 1_555 1_555
C18_3 C26_3 1_555 1_555
O14_3 S2_3 1_555 1_555
C19_3 C17_3 1_555 1_555
H9_3 C19_3 1_555 1_555
C20_3 S2_3 1_555 1_555
C21_3 C19_3 1_555 1_555
H10_3 C21_3 1_555 1_555
C22_3 C17_3 1_555 1_555
H11_3 C22_3 1_555 1_555
C23_3 C20_3 1_555 1_555
H12_3 C23_3 1_555 1_555
C24_3 S2_3 1_555 1_555
C25_3 C24_3 1_555 1_555
H13_3 C25_3 1_555 1_555
C26_3 C25_3 1_555 1_555
H14_3 C26_3 1_555 1_555
C27_3 C18_3 1_555 1_555
H15_3 C27_3 1_555 1_555
C28_3 C24_3 1_555 1_555
H16_3 C28_3 1_555 1_555
Ti5_2 O9_3 1_555 1_555
Ti6_2 O12_3 1_555 1_555
C20_3 C21_3 1_555 1_555
C22_3 C23_3 1_555 1_555
C27_3 C28_3 1_555 1_555
Ti3_3 O1_3 1_555 1_555
Ti2_11 O3_3 1_555 1_555
S1_3 O6_3 1_555 1_555
O1_3 C2_3 1_555 1_555
O2_3 C1_3 1_555 1_555
O3_3 Ti3_3 1_555 1_555
O4_3 Ti2_11 1_555 1_555
O5_3 C1_3 1_555 1_555
C1_3 C4_3 1_555 1_555
C2_3 O4_3 1_555 1_555
C3_3 C2_3 1_555 1_555
C4_3 C12_3 1_555 1_555
O7_3 S1_3 1_555 1_555
C5_3 C3_3 1_555 1_555
H1_3 C5_3 1_555 1_555
C6_3 S1_3 1_555 1_555
C7_3 C5_3 1_555 1_555
H2_3 C7_3 1_555 1_555
C8_3 C3_3 1_555 1_555
H3_3 C8_3 1_555 1_555
C9_3 C6_3 1_555 1_555
H4_3 C9_3 1_555 1_555
C10_3 S1_3 1_555 1_555
C11_3 C10_3 1_555 1_555
H5_3 C11_3 1_555 1_555
C12_3 C11_3 1_555 1_555
H6_3 C12_3 1_555 1_555
C13_3 C4_3 1_555 1_555
H7_3 C13_3 1_555 1_555
C14_3 C10_3 1_555 1_555
H8_3 C14_3 1_555 1_555
Ti4 O2_3 1_555 1_555
Ti7_2 O5_3 1_555 1_555
O17_3 Ti3_3 1_555 1_555
C6_3 C7_3 1_555 1_555
C8_3 C9_3 1_555 1_555
C13_3 C14_3 1_555 1_555
O16_3 Ti3_4 1_555 1_555
O19_3 Ti2_12 1_555 1_555
Ti3 O1_4 1_555 1_555
Ti2_13 O3_4 1_555 1_555
S1_4 O6_4 1_555 1_555
O1_4 C2_4 1_555 1_555
O2_4 C1_4 1_555 1_555
O3_4 Ti3 1_555 1_555
O4_4 Ti2_13 1_555 1_555
O5_4 C1_4 1_555 1_555
C1_4 C4_4 1_555 1_555
C2_4 O4_4 1_555 1_555
C3_4 C2_4 1_555 1_555
C4_4 C12_4 1_555 1_555
O7_4 S1_4 1_555 1_555
C5_4 C3_4 1_555 1_555
H1_4 C5_4 1_555 1_555
C6_4 S1_4 1_555 1_555
C7_4 C5_4 1_555 1_555
H2_4 C7_4 1_555 1_555
C8_4 C3_4 1_555 1_555
H3_4 C8_4 1_555 1_555
C9_4 C6_4 1_555 1_555
H4_4 C9_4 1_555 1_555
C10_4 S1_4 1_555 1_555
C11_4 C10_4 1_555 1_555
H5_4 C11_4 1_555 1_555
C12_4 C11_4 1_555 1_555
H6_4 C12_4 1_555 1_555
C13_4 C4_4 1_555 1_555
H7_4 C13_4 1_555 1_555
C14_4 C10_4 1_555 1_555
H8_4 C14_4 1_555 1_555
Ti4_2 O2_4 1_555 1_555
Ti6_2 O5_4 1_555 1_555
O17_4 Ti3 1_555 1_555
C6_4 C7_4 1_555 1_555
C8_4 C9_4 1_555 1_555
C13_4 C14_4 1_555 1_555
O16_4 Ti3_2 1_555 1_555
O19_4 Ti2_14 1_555 1_555
O20_4 Ti2_15 1_555 1_555
S2_4 O13_4 1_555 1_555
O15_2 C16_4 1_555 1_555
O9_4 C15_4 1_555 1_555
O18_2 Ti2_16 1_555 1_555
O11_4 Ti2_16 1_555 1_555
O12_4 C15_4 1_555 1_555
C15_4 C18_4 1_555 1_555
C16_4 O11_4 1_555 1_555
C17_4 C16_4 1_555 1_555
C18_4 C26_4 1_555 1_555
O14_4 S2_4 1_555 1_555
C19_4 C17_4 1_555 1_555
H9_4 C19_4 1_555 1_555
C20_4 S2_4 1_555 1_555
C21_4 C19_4 1_555 1_555
H10_4 C21_4 1_555 1_555
C22_4 C17_4 1_555 1_555
H11_4 C22_4 1_555 1_555
C23_4 C20_4 1_555 1_555
H12_4 C23_4 1_555 1_555
C24_4 S2_4 1_555 1_555
C25_4 C24_4 1_555 1_555
H13_4 C25_4 1_555 1_555
C26_4 C25_4 1_555 1_555
H14_4 C26_4 1_555 1_555
C27_4 C18_4 1_555 1_555
H15_4 C27_4 1_555 1_555
C28_4 C24_4 1_555 1_555
H16_4 C28_4 1_555 1_555
Ti5 O9_4 1_555 1_555
Ti7_2 O12_4 1_555 1_555
C20_4 C21_4 1_555 1_555
C22_4 C23_4 1_555 1_555
C27_4 C28_4 1_555 1_555
S1_5 O6_5 1_555 1_555
O16_4 C1_5 1_555 1_555
O19_4 C1_5 1_555 1_555
C1_5 C4_5 1_555 1_555
C4_5 C12_5 1_555 1_555
O7_5 S1_5 1_555 1_555
C6_5 S1_5 1_555 1_555
C9_5 C6_5 1_555 1_555
H4_5 C9_5 1_555 1_555
C10_5 S1_5 1_555 1_555
C11_5 C10_5 1_555 1_555
H5_5 C11_5 1_555 1_555
C12_5 C11_5 1_555 1_555
H6_5 C12_5 1_555 1_555
C13_5 C4_5 1_555 1_555
H7_5 C13_5 1_555 1_555
C14_5 C10_5 1_555 1_555
S2_5 O13_5 1_555 1_555
O17 C15_5 1_555 1_555
O20_3 C15_5 1_555 1_555
C15_5 C18_5 1_555 1_555
C18_5 C26_5 1_555 1_555
O14_5 S2_5 1_555 1_555
C20_5 S2_5 1_555 1_555
C23_5 C20_5 1_555 1_555
H12_5 C23_5 1_555 1_555
C24_5 S2_5 1_555 1_555
C25_5 C24_5 1_555 1_555
H13_5 C25_5 1_555 1_555
C26_5 C25_5 1_555 1_555
H14_5 C26_5 1_555 1_555
C27_5 C18_5 1_555 1_555
H15_5 C27_5 1_555 1_555
C28_5 C24_5 1_555 1_555
C13_5 C14_5 1_555 1_555
C27_5 C28_5 1_555 1_555
Ti4 O1_5 1_555 1_555
Ti7_2 O3_5 1_555 1_555
O1_5 C2_5 1_555 1_555
O3_5 Ti4 1_555 1_555
O4_5 Ti7_2 1_555 1_555
C2_5 O4_5 1_555 1_555
C3_5 C2_5 1_555 1_555
C5_5 C3_5 1_555 1_555
H1_5 C5_5 1_555 1_555
C7_5 C5_5 1_555 1_555
H2_5 C7_5 1_555 1_555
C8_5 C3_5 1_555 1_555
H3_5 C8_5 1_555 1_555
O8_3 C16_5 1_555 1_555
O10_3 Ti7_2 1_555 1_555
O11_5 Ti7_2 1_555 1_555
C16_5 O11_5 1_555 1_555
C17_5 C16_5 1_555 1_555
C19_5 C17_5 1_555 1_555
H9_5 C19_5 1_555 1_555
C21_5 C19_5 1_555 1_555
H10_5 C21_5 1_555 1_555
C22_5 C17_5 1_555 1_555
H11_5 C22_5 1_555 1_555
Ti5 O8_3 1_555 1_555
O15_3 Ti4 1_555 1_555
O18_3 Ti4 1_555 1_555
O10_3 Ti5 1_555 1_555
Ti4_2 O1_6 1_555 1_555
Ti6_2 O3_6 1_555 1_555
O1_6 C2_6 1_555 1_555
O3_6 Ti4_2 1_555 1_555
O4_6 Ti6_2 1_555 1_555
C2_6 O4_6 1_555 1_555
C3_6 C2_6 1_555 1_555
C5_6 C3_6 1_555 1_555
H1_6 C5_6 1_555 1_555
C7_6 C5_6 1_555 1_555
H2_6 C7_6 1_555 1_555
C8_6 C3_6 1_555 1_555
H3_6 C8_6 1_555 1_555
O8_4 C16_6 1_555 1_555
O10_4 Ti6_2 1_555 1_555
O11_6 Ti6_2 1_555 1_555
C16_6 O11_6 1_555 1_555
C17_6 C16_6 1_555 1_555
C19_6 C17_6 1_555 1_555
H9_6 C19_6 1_555 1_555
C21_6 C19_6 1_555 1_555
H10_6 C21_6 1_555 1_555
C22_6 C17_6 1_555 1_555
H11_6 C22_6 1_555 1_555
Ti5_2 O8_4 1_555 1_555
O15_4 Ti4_2 1_555 1_555
O18_4 Ti4_2 1_555 1_555
O10_4 Ti5_2 1_555 1_555
S1_6 O6_6 1_555 1_555
O16_3 C1_6 1_555 1_555
O19_3 C1_6 1_555 1_555
C1_6 C4_6 1_555 1_555
C4_6 C12_6 1_555 1_555
O7_6 S1_6 1_555 1_555
C6_6 S1_6 1_555 1_555
C9_6 C6_6 1_555 1_555
H4_6 C9_6 1_555 1_555
C10_6 S1_6 1_555 1_555
C11_6 C10_6 1_555 1_555
H5_6 C11_6 1_555 1_555
C12_6 C11_6 1_555 1_555
H6_6 C12_6 1_555 1_555
C13_6 C4_6 1_555 1_555
H7_6 C13_6 1_555 1_555
C14_6 C10_6 1_555 1_555
S2_6 O13_6 1_555 1_555
O17_2 C15_6 1_555 1_555
O20_4 C15_6 1_555 1_555
C15_6 C18_6 1_555 1_555
C18_6 C26_6 1_555 1_555
O14_6 S2_6 1_555 1_555
C20_6 S2_6 1_555 1_555
C23_6 C20_6 1_555 1_555
H12_6 C23_6 1_555 1_555
C24_6 S2_6 1_555 1_555
C25_6 C24_6 1_555 1_555
H13_6 C25_6 1_555 1_555
C26_6 C25_6 1_555 1_555
H14_6 C26_6 1_555 1_555
C27_6 C18_6 1_555 1_555
H15_6 C27_6 1_555 1_555
C28_6 C24_6 1_555 1_555
C13_6 C14_6 1_555 1_555
C27_6 C28_6 1_555 1_555
Ti5_2 O1_7 1_555 1_555
Ti6 O3_7 1_555 1_555
O1_7 C2_7 1_555 1_555
O3_7 Ti5_2 1_555 1_555
O4_7 Ti6 1_555 1_555
C2_7 O4_7 1_555 1_555
C3_7 C2_7 1_555 1_555
C5_7 C3_7 1_555 1_555
H1_7 C5_7 1_555 1_555
C7_7 C5_7 1_555 1_555
H2_7 C7_7 1_555 1_555
C8_7 C3_7 1_555 1_555
H3_7 C8_7 1_555 1_555
O15_3 C16_7 1_555 1_555
O18_3 Ti6 1_555 1_555
O11_7 Ti6 1_555 1_555
C16_7 O11_7 1_555 1_555
C17_7 C16_7 1_555 1_555
C19_7 C17_7 1_555 1_555
H9_7 C19_7 1_555 1_555
C21_7 C19_7 1_555 1_555
H10_7 C21_7 1_555 1_555
C22_7 C17_7 1_555 1_555
H11_7 C22_7 1_555 1_555
S1_7 O6_7 1_555 1_555
O16 C1_7 1_555 1_555
O19 C1_7 1_555 1_555
C1_7 C4_7 1_555 1_555
C4_7 C12_7 1_555 1_555
O7_7 S1_7 1_555 1_555
C6_7 S1_7 1_555 1_555
C9_7 C6_7 1_555 1_555
H4_7 C9_7 1_555 1_555
C10_7 S1_7 1_555 1_555
C11_7 C10_7 1_555 1_555
H5_7 C11_7 1_555 1_555
C12_7 C11_7 1_555 1_555
H6_7 C12_7 1_555 1_555
C13_7 C4_7 1_555 1_555
H7_7 C13_7 1_555 1_555
C14_7 C10_7 1_555 1_555
S2_7 O13_7 1_555 1_555
O17_3 C15_7 1_555 1_555
O20_2 C15_7 1_555 1_555
C15_7 C18_7 1_555 1_555
C18_7 C26_7 1_555 1_555
O14_7 S2_7 1_555 1_555
C20_7 S2_7 1_555 1_555
C23_7 C20_7 1_555 1_555
H12_7 C23_7 1_555 1_555
C24_7 S2_7 1_555 1_555
C25_7 C24_7 1_555 1_555
H13_7 C25_7 1_555 1_555
C26_7 C25_7 1_555 1_555
H14_7 C26_7 1_555 1_555
C27_7 C18_7 1_555 1_555
H15_7 C27_7 1_555 1_555
C28_7 C24_7 1_555 1_555
C13_7 C14_7 1_555 1_555
C27_7 C28_7 1_555 1_555
S1_8 O6_8 1_555 1_555
O16_2 C1_8 1_555 1_555
O19_2 C1_8 1_555 1_555
C1_8 C4_8 1_555 1_555
C4_8 C12_8 1_555 1_555
O7_8 S1_8 1_555 1_555
C6_8 S1_8 1_555 1_555
C9_8 C6_8 1_555 1_555
H4_8 C9_8 1_555 1_555
C10_8 S1_8 1_555 1_555
C11_8 C10_8 1_555 1_555
H5_8 C11_8 1_555 1_555
C12_8 C11_8 1_555 1_555
H6_8 C12_8 1_555 1_555
C13_8 C4_8 1_555 1_555
H7_8 C13_8 1_555 1_555
C14_8 C10_8 1_555 1_555
S2_8 O13_8 1_555 1_555
O17_4 C15_8 1_555 1_555
O20 C15_8 1_555 1_555
C15_8 C18_8 1_555 1_555
C18_8 C26_8 1_555 1_555
O14_8 S2_8 1_555 1_555
C20_8 S2_8 1_555 1_555
C23_8 C20_8 1_555 1_555
H12_8 C23_8 1_555 1_555
C24_8 S2_8 1_555 1_555
C25_8 C24_8 1_555 1_555
H13_8 C25_8 1_555 1_555
C26_8 C25_8 1_555 1_555
H14_8 C26_8 1_555 1_555
C27_8 C18_8 1_555 1_555
H15_8 C27_8 1_555 1_555
C28_8 C24_8 1_555 1_555
C13_8 C14_8 1_555 1_555
C27_8 C28_8 1_555 1_555
Ti5 O1_8 1_555 1_555
Ti7 O3_8 1_555 1_555
O1_8 C2_8 1_555 1_555
O3_8 Ti5 1_555 1_555
O4_8 Ti7 1_555 1_555
C2_8 O4_8 1_555 1_555
C3_8 C2_8 1_555 1_555
C5_8 C3_8 1_555 1_555
H1_8 C5_8 1_555 1_555
C7_8 C5_8 1_555 1_555
H2_8 C7_8 1_555 1_555
C8_8 C3_8 1_555 1_555
H3_8 C8_8 1_555 1_555
O15_4 C16_8 1_555 1_555
O18_4 Ti7 1_555 1_555
O11_8 Ti7 1_555 1_555
C16_8 O11_8 1_555 1_555
C17_8 C16_8 1_555 1_555
C19_8 C17_8 1_555 1_555
H9_8 C19_8 1_555 1_555
C21_8 C19_8 1_555 1_555
H10_8 C21_8 1_555 1_555
C22_8 C17_8 1_555 1_555
H11_8 C22_8 1_555 1_555

#END
