
###############################################################################
#
# This file contains modified crystal structure data generated from the
# MOF subset of the Cambridge Structural Database (CSD) v543 
# hosted by the Cambridge Crystallographic Data Centre (CCDC).
#
# This work is licensed under the Creative Commons
# Attribution-NonCommercial-ShareAlike 4.0 International License.
# To view a copy of this license, visit
# http://creativecommons.org/licenses/by-nc-sa/4.0/
# or send a letter to
# Creative Commons, PO Box 1866, Mountain View, CA 94042, USA.
#
# CIF created using the CSD Python API on 29 September 2022
# The structure has been converted into the P1 space group
# The structure has a 3D framework
# The original CSD entry EYAKEX is in the tetragonal crystal system
# The original CSD entry EYAKEX is in a Sohncke space group
# The framework has been calculated to contain at least 10.0% void space
# The void calculation uses a probe of radius 1.32A, grid spacing 0.4
#
###############################################################################

data_EYAKEX
_chemical_formula_moiety         '(C224 H128 O96 Ti32)n'
_symmetry_cell_setting           triclinic
_symmetry_space_group_name_H-M   'P 1'
_symmetry_Int_Tables_number      1
_space_group_name_Hall           'P 1'
loop_
_symmetry_equiv_pos_site_id
_symmetry_equiv_pos_as_xyz
1 x,y,z
_cell_length_a                   16.6433(2)
_cell_length_b                   16.6433(2)
_cell_length_c                   23.8476(4)
_cell_angle_alpha                90
_cell_angle_beta                 90
_cell_angle_gamma                90
_cell_volume                     6605.77
loop_
_atom_site_label
_atom_site_type_symbol
_atom_site_fract_x
_atom_site_fract_y
_atom_site_fract_z
Ti7 Ti 0.26504(5) 0.000000 0.000000
Ti6 Ti 0.73496(5) 0.000000 0.000000
Ti7_2 Ti 0.26504(5) 0.000000 1.000000
Ti6_2 Ti 0.73496(5) 0.000000 1.000000
Ti5 Ti 0.18415(3) 0.81585(3) 0.000000
Ti7_3 Ti 0.26504(5) 1.000000 0.000000
Ti1 Ti 0.68415(3) 0.68415(3) 0.500000
Ti2 Ti 0.500000 0.76504(5) 0.500000
O1 O 0.66223(15) 0.71229(17) 0.58015(10)
O2 O 0.57780(14) 0.69172(14) 0.48293(10)
O3 O 0.35946(15) 0.92473(14) 0.97678(11)
O4 O 0.54077(15) 0.76964(15) 0.58120(10)
O5 O 0.30361(14) 0.80274(14) 0.98119(10)
O6 O 0.6098(2) 0.7149(3) 0.84044(13)
C1 C 0.4269(2) 0.8152(2) 0.93512(14)
C2 C 0.60062(19) 0.7386(2) 0.60502(15)
C3 C 0.6006(2) 0.7326(3) 0.66698(16)
C4 C 0.35833(19) 0.8504(2) 0.96673(13)
C5 C 0.5394(3) 0.7637(3) 0.69838(17)
H1 H 0.496599 0.788577 0.680362
C6 C 0.4951(3) 0.8589(3) 0.92449(15)
H2 H 0.500094 0.910904 0.938363
C7 C 0.6643(3) 0.6949(3) 0.69483(17)
H3 H 0.706629 0.673729 0.674126
C8 C 0.5482(3) 0.7489(4) 0.87239(17)
C9 C 0.5395(3) 0.7590(4) 0.75633(19)
H4 H 0.497641 0.781146 0.777001
C10 C 0.4199(3) 0.7360(3) 0.9153(2)
H5 H 0.374446 0.705701 0.923431
C11 C 0.6024(3) 0.7212(4) 0.78300(17)
C12 C 0.4812(4) 0.7038(4) 0.8836(3)
H6 H 0.477192 0.651637 0.869963
C13 C 0.5567(3) 0.8251(4) 0.89280(18)
H7 H 0.603336 0.854162 0.885607
C14 C 0.6652(3) 0.6886(4) 0.75262(19)
H8 H 0.707475 0.662930 0.770785
O7 O 0.33777(15) 0.71229(17) 0.41985(10)
O8 O 0.42220(14) 0.69172(14) 0.51707(10)
O9 O 0.64054(15) 0.92473(14) 0.02322(11)
O10 O 0.45923(15) 0.76964(15) 0.41880(10)
O11 O 0.69639(14) 0.80274(14) 0.01881(10)
O12 O 0.3902(2) 0.7149(3) 0.15956(13)
C15 C 0.5731(2) 0.8152(2) 0.06488(14)
C16 C 0.39938(19) 0.7386(2) 0.39498(15)
C17 C 0.3994(2) 0.7326(3) 0.33302(16)
C18 C 0.64167(19) 0.8504(2) 0.03327(13)
C19 C 0.4606(3) 0.7637(3) 0.30162(17)
H9 H 0.503401 0.788577 0.319638
C20 C 0.5049(3) 0.8589(3) 0.07551(15)
H10 H 0.499906 0.910904 0.061637
C21 C 0.3357(3) 0.6949(3) 0.30517(17)
H11 H 0.293371 0.673729 0.325874
C22 C 0.4518(3) 0.7489(4) 0.12761(17)
C23 C 0.4605(3) 0.7590(4) 0.24367(19)
H12 H 0.502359 0.781146 0.222999
C24 C 0.5801(3) 0.7360(3) 0.0847(2)
H13 H 0.625554 0.705701 0.076569
C25 C 0.3976(3) 0.7212(4) 0.21700(17)
C26 C 0.5188(4) 0.7038(4) 0.1164(3)
H14 H 0.522808 0.651637 0.130037
C27 C 0.4433(3) 0.8251(4) 0.10720(18)
H15 H 0.396664 0.854162 0.114393
C28 C 0.3348(3) 0.6886(4) 0.24738(19)
H16 H 0.292525 0.662930 0.229215
Ti3 Ti 0.31585(3) 0.68415(3) 0.500000
Ti4 Ti 0.81585(3) 0.81585(3) 0.000000
Ti5_2 Ti 0.18415(3) 0.81585(3) 1.000000
Ti6_3 Ti 0.73496(5) 1.000000 0.000000
Ti7_4 Ti 0.26504(5) 1.000000 1.000000
O13 O 0.71229(17) 0.66223(15) 0.41985(10)
O14 O 0.69172(14) 0.57780(14) 0.51707(10)
O15 O 0.57527(14) 0.85946(15) 0.47678(11)
O16 O 0.42473(14) 0.85946(15) 0.52322(11)
O17 O 0.69726(14) 0.80361(14) 0.48119(10)
O18 O 0.80361(14) 0.69726(14) 0.51881(10)
Ti4_2 Ti 0.81585(3) 0.81585(3) 1.000000
Ti6_4 Ti 0.73496(5) 1.000000 1.000000
Ti5_3 Ti 0.81585(3) 0.18415(3) 0.000000
Ti1_2 Ti 0.31585(3) 0.31585(3) 0.500000
Ti2_2 Ti 0.500000 0.23496(5) 0.500000
O1_2 O 0.33777(15) 0.28771(17) 0.58015(10)
O2_2 O 0.42220(14) 0.30828(14) 0.48293(10)
O3_2 O 0.64054(15) 0.07527(14) 0.97678(11)
O4_2 O 0.45923(15) 0.23036(15) 0.58120(10)
O5_2 O 0.69639(14) 0.19726(14) 0.98119(10)
O6_2 O 0.3902(2) 0.2851(3) 0.84044(13)
C1_2 C 0.5731(2) 0.1848(2) 0.93512(14)
C2_2 C 0.39938(19) 0.2614(2) 0.60502(15)
C3_2 C 0.3994(2) 0.2674(3) 0.66698(16)
C4_2 C 0.64167(19) 0.1496(2) 0.96673(13)
C5_2 C 0.4606(3) 0.2363(3) 0.69838(17)
H1_2 H 0.503401 0.211423 0.680362
C6_2 C 0.5049(3) 0.1411(3) 0.92449(15)
H2_2 H 0.499906 0.089096 0.938363
C7_2 C 0.3357(3) 0.3051(3) 0.69483(17)
H3_2 H 0.293371 0.326271 0.674126
C8_2 C 0.4518(3) 0.2511(4) 0.87239(17)
C9_2 C 0.4605(3) 0.2410(4) 0.75633(19)
H4_2 H 0.502359 0.218854 0.777001
C10_2 C 0.5801(3) 0.2640(3) 0.9153(2)
H5_2 H 0.625554 0.294299 0.923431
C11_2 C 0.3976(3) 0.2788(4) 0.78300(17)
C12_2 C 0.5188(4) 0.2962(4) 0.8836(3)
H6_2 H 0.522808 0.348363 0.869963
C13_2 C 0.4433(3) 0.1749(4) 0.89280(18)
H7_2 H 0.396664 0.145838 0.885607
C14_2 C 0.3348(3) 0.3114(4) 0.75262(19)
H8_2 H 0.292525 0.337070 0.770785
O7_2 O 0.66223(15) 0.28771(17) 0.41985(10)
O8_2 O 0.57780(14) 0.30828(14) 0.51707(10)
O9_2 O 0.35946(15) 0.07527(14) 0.02322(11)
O10_2 O 0.54077(15) 0.23036(15) 0.41880(10)
O11_2 O 0.30361(14) 0.19726(14) 0.01881(10)
O12_2 O 0.6098(2) 0.2851(3) 0.15956(13)
C15_2 C 0.4269(2) 0.1848(2) 0.06488(14)
C16_2 C 0.60062(19) 0.2614(2) 0.39498(15)
C17_2 C 0.6006(2) 0.2674(3) 0.33302(16)
C18_2 C 0.35833(19) 0.1496(2) 0.03327(13)
C19_2 C 0.5394(3) 0.2363(3) 0.30162(17)
H9_2 H 0.496599 0.211423 0.319638
C20_2 C 0.4951(3) 0.1411(3) 0.07551(15)
H10_2 H 0.500094 0.089096 0.061637
C21_2 C 0.6643(3) 0.3051(3) 0.30517(17)
H11_2 H 0.706629 0.326271 0.325874
C22_2 C 0.5482(3) 0.2511(4) 0.12761(17)
C23_2 C 0.5395(3) 0.2410(4) 0.24367(19)
H12_2 H 0.497641 0.218854 0.222999
C24_2 C 0.4199(3) 0.2640(3) 0.0847(2)
H13_2 H 0.374446 0.294299 0.076569
C25_2 C 0.6024(3) 0.2788(4) 0.21700(17)
C26_2 C 0.4812(4) 0.2962(4) 0.1164(3)
H14_2 H 0.477192 0.348363 0.130037
C27_2 C 0.5567(3) 0.1749(4) 0.10720(18)
H15_2 H 0.603336 0.145838 0.114393
C28_2 C 0.6652(3) 0.3114(4) 0.24738(19)
H16_2 H 0.707475 0.337070 0.229215
Ti3_2 Ti 0.68415(3) 0.31585(3) 0.500000
Ti4_3 Ti 0.18415(3) 0.18415(3) 0.000000
Ti5_4 Ti 0.81585(3) 0.18415(3) 1.000000
O13_2 O 0.28771(17) 0.33777(15) 0.41985(10)
O14_2 O 0.30828(14) 0.42220(14) 0.51707(10)
O15_2 O 0.42473(14) 0.14054(15) 0.47678(11)
O16_2 O 0.57527(14) 0.14054(15) 0.52322(11)
O17_2 O 0.30274(14) 0.19639(14) 0.48119(10)
O18_2 O 0.19639(14) 0.30274(14) 0.51881(10)
Ti4_4 Ti 0.18415(3) 0.18415(3) 1.000000
Ti7_5 Ti 0.000000 0.26504(5) 0.000000
Ti2_3 Ti 0.23496(5) 0.500000 0.500000
O1_3 O 0.28771(17) 0.66223(15) 0.58015(10)
O2_3 O 0.30828(14) 0.57780(14) 0.48293(10)
O3_3 O 0.07527(14) 0.35946(15) 0.97678(11)
O4_3 O 0.23036(15) 0.54077(15) 0.58120(10)
O5_3 O 0.19726(14) 0.30361(14) 0.98119(10)
O6_3 O 0.2851(3) 0.6098(2) 0.84044(13)
C1_3 C 0.1848(2) 0.4269(2) 0.93512(14)
C2_3 C 0.2614(2) 0.60062(19) 0.60502(15)
C3_3 C 0.2674(3) 0.6006(2) 0.66698(16)
C4_3 C 0.1496(2) 0.35833(19) 0.96673(13)
C5_3 C 0.2363(3) 0.5394(3) 0.69838(17)
H1_3 H 0.211423 0.496599 0.680362
C6_3 C 0.1411(3) 0.4951(3) 0.92449(15)
H2_3 H 0.089096 0.500094 0.938363
C7_3 C 0.3051(3) 0.6643(3) 0.69483(17)
H3_3 H 0.326271 0.706629 0.674126
C8_3 C 0.2511(4) 0.5482(3) 0.87239(17)
C9_3 C 0.2410(4) 0.5395(3) 0.75633(19)
H4_3 H 0.218854 0.497641 0.777001
C10_3 C 0.2640(3) 0.4199(3) 0.9153(2)
H5_3 H 0.294299 0.374446 0.923431
C11_3 C 0.2788(4) 0.6024(3) 0.78300(17)
C12_3 C 0.2962(4) 0.4812(4) 0.8836(3)
H6_3 H 0.348363 0.477192 0.869963
C13_3 C 0.1749(4) 0.5567(3) 0.89280(18)
H7_3 H 0.145838 0.603336 0.885607
C14_3 C 0.3114(4) 0.6652(3) 0.75262(19)
H8_3 H 0.337070 0.707475 0.770785
O9_3 O 0.07527(14) 0.64054(15) 0.02322(11)
O10_3 O 0.23036(15) 0.45923(15) 0.41880(10)
O11_3 O 0.19726(14) 0.69639(14) 0.01881(10)
O12_3 O 0.2851(3) 0.3902(2) 0.15956(13)
C15_3 C 0.1848(2) 0.5731(2) 0.06488(14)
C16_3 C 0.2614(2) 0.39938(19) 0.39498(15)
C17_3 C 0.2674(3) 0.3994(2) 0.33302(16)
C18_3 C 0.1496(2) 0.64167(19) 0.03327(13)
C19_3 C 0.2363(3) 0.4606(3) 0.30162(17)
H9_3 H 0.211423 0.503401 0.319638
C20_3 C 0.1411(3) 0.5049(3) 0.07551(15)
H10_3 H 0.089096 0.499906 0.061637
C21_3 C 0.3051(3) 0.3357(3) 0.30517(17)
H11_3 H 0.326271 0.293371 0.325874
C22_3 C 0.2511(4) 0.4518(3) 0.12761(17)
C23_3 C 0.2410(4) 0.4605(3) 0.24367(19)
H12_3 H 0.218854 0.502359 0.222999
C24_3 C 0.2640(3) 0.5801(3) 0.0847(2)
H13_3 H 0.294299 0.625554 0.076569
C25_3 C 0.2788(4) 0.3976(3) 0.21700(17)
C26_3 C 0.2962(4) 0.5188(4) 0.1164(3)
H14_3 H 0.348363 0.522808 0.130037
C27_3 C 0.1749(4) 0.4433(3) 0.10720(18)
H15_3 H 0.145838 0.396664 0.114393
C28_3 C 0.3114(4) 0.3348(3) 0.24738(19)
H16_3 H 0.337070 0.292525 0.229215
Ti6_5 Ti 0.000000 0.73496(5) 0.000000
Ti7_6 Ti 0.000000 0.26504(5) 1.000000
O15_3 O 0.14054(15) 0.57527(14) 0.47678(11)
O16_3 O 0.14054(15) 0.42473(14) 0.52322(11)
O17_3 O 0.19639(14) 0.69726(14) 0.48119(10)
O18_3 O 0.30274(14) 0.80361(14) 0.51881(10)
Ti6_6 Ti -0.000000 0.73496(5) 1.000000
Ti7_7 Ti 1.000000 0.26504(5) 0.000000
Ti6_7 Ti 1.000000 0.73496(5) 0.000000
Ti7_8 Ti 1.000000 0.26504(5) 1.000000
Ti6_8 Ti 1.000000 0.73496(5) 1.000000
Ti2_4 Ti 0.76504(5) 0.500000 0.500000
O1_4 O 0.71229(17) 0.33777(15) 0.58015(10)
O2_4 O 0.69172(14) 0.42220(14) 0.48293(10)
O3_4 O 0.92473(14) 0.64054(15) 0.97678(11)
O4_4 O 0.76964(15) 0.45923(15) 0.58120(10)
O5_4 O 0.80274(14) 0.69639(14) 0.98119(10)
O6_4 O 0.7149(3) 0.3902(2) 0.84044(13)
C1_4 C 0.8152(2) 0.5731(2) 0.93512(14)
C2_4 C 0.7386(2) 0.39938(19) 0.60502(15)
C3_4 C 0.7326(3) 0.3994(2) 0.66698(16)
C4_4 C 0.8504(2) 0.64167(19) 0.96673(13)
C5_4 C 0.7637(3) 0.4606(3) 0.69838(17)
H1_4 H 0.788577 0.503401 0.680362
C6_4 C 0.8589(3) 0.5049(3) 0.92449(15)
H2_4 H 0.910904 0.499906 0.938363
C7_4 C 0.6949(3) 0.3357(3) 0.69483(17)
H3_4 H 0.673729 0.293371 0.674126
C8_4 C 0.7489(4) 0.4518(3) 0.87239(17)
C9_4 C 0.7590(4) 0.4605(3) 0.75633(19)
H4_4 H 0.781146 0.502359 0.777001
C10_4 C 0.7360(3) 0.5801(3) 0.9153(2)
H5_4 H 0.705701 0.625554 0.923431
C11_4 C 0.7212(4) 0.3976(3) 0.78300(17)
C12_4 C 0.7038(4) 0.5188(4) 0.8836(3)
H6_4 H 0.651637 0.522808 0.869963
C13_4 C 0.8251(4) 0.4433(3) 0.89280(18)
H7_4 H 0.854162 0.396664 0.885607
C14_4 C 0.6886(4) 0.3348(3) 0.75262(19)
H8_4 H 0.662930 0.292525 0.770785
O9_4 O 0.92473(14) 0.35946(15) 0.02322(11)
O10_4 O 0.76964(15) 0.54077(15) 0.41880(10)
O11_4 O 0.80274(14) 0.30361(14) 0.01881(10)
O12_4 O 0.7149(3) 0.6098(2) 0.15956(13)
C15_4 C 0.8152(2) 0.4269(2) 0.06488(14)
C16_4 C 0.7386(2) 0.60062(19) 0.39498(15)
C17_4 C 0.7326(3) 0.6006(2) 0.33302(16)
C18_4 C 0.8504(2) 0.35833(19) 0.03327(13)
C19_4 C 0.7637(3) 0.5394(3) 0.30162(17)
H9_4 H 0.788577 0.496599 0.319638
C20_4 C 0.8589(3) 0.4951(3) 0.07551(15)
H10_4 H 0.910904 0.500094 0.061637
C21_4 C 0.6949(3) 0.6643(3) 0.30517(17)
H11_4 H 0.673729 0.706629 0.325874
C22_4 C 0.7489(4) 0.5482(3) 0.12761(17)
C23_4 C 0.7590(4) 0.5395(3) 0.24367(19)
H12_4 H 0.781146 0.497641 0.222999
C24_4 C 0.7360(3) 0.4199(3) 0.0847(2)
H13_4 H 0.705701 0.374446 0.076569
C25_4 C 0.7212(4) 0.6024(3) 0.21700(17)
C26_4 C 0.7038(4) 0.4812(4) 0.1164(3)
H14_4 H 0.651637 0.477192 0.130037
C27_4 C 0.8251(4) 0.5567(3) 0.10720(18)
H15_4 H 0.854162 0.603336 0.114393
C28_4 C 0.6886(4) 0.6652(3) 0.24738(19)
H16_4 H 0.662930 0.707475 0.229215
O15_4 O 0.85946(15) 0.42473(14) 0.47678(11)
O16_4 O 0.85946(15) 0.57527(14) 0.52322(11)
O17_4 O 0.80361(14) 0.30274(14) 0.48119(10)
O18_4 O 0.69726(14) 0.19639(14) 0.51881(10)
O1_5 O 0.16223(15) 0.21229(17) 0.08015(10)
O4_5 O 0.04077(15) 0.26964(15) 0.08120(10)
O6_5 O 0.1098(2) 0.2149(3) 0.34044(13)
C2_5 C 0.10062(19) 0.2386(2) 0.10502(15)
C3_5 C 0.1006(2) 0.2326(3) 0.16698(16)
C5_5 C 0.0394(3) 0.2637(3) 0.19838(17)
H2_5 H 0.000094 0.410904 0.438363
C7_5 C 0.1643(3) 0.1949(3) 0.19483(17)
H3_5 H 0.206629 0.173729 0.174126
C8_5 C 0.0482(3) 0.2489(4) 0.37239(17)
C9_5 C 0.0395(3) 0.2590(4) 0.25633(19)
C11_5 C 0.1024(3) 0.2212(4) 0.28300(17)
C13_5 C 0.0567(3) 0.3251(4) 0.39280(18)
H7_5 H 0.103336 0.354162 0.385607
C14_5 C 0.1652(3) 0.1886(4) 0.25262(19)
H8_5 H 0.207475 0.162930 0.270785
O14_3 O 0.19172(14) 0.07780(14) 0.01707(10)
O2_5 O 0.07780(14) 0.19172(14) 0.98293(10)
C15_5 C 0.0731(2) 0.3152(2) 0.56488(14)
C18_5 C 0.14167(19) 0.3504(2) 0.53327(13)
H9_5 H 0.003401 0.288577 0.819638
C20_5 C 0.0049(3) 0.3589(3) 0.57551(15)
H12_5 H 0.002359 0.281146 0.722999
C24_5 C 0.0801(3) 0.2360(3) 0.5847(2)
H13_5 H 0.125554 0.205701 0.576569
C26_5 C 0.0188(4) 0.2038(4) 0.6164(3)
H14_5 H 0.022808 0.151637 0.630037
O13_3 O 0.21229(17) 0.16223(15) 0.91985(10)
C1_5 C 0.9269(2) 0.3152(2) 0.43512(14)
C4_5 C 0.85833(19) 0.3504(2) 0.46673(13)
H1_5 H 0.996599 0.288577 0.180362
C6_5 C 0.9951(3) 0.3589(3) 0.42449(15)
H4_5 H 0.997641 0.281146 0.277001
C10_5 C 0.9199(3) 0.2360(3) 0.4153(2)
H5_5 H 0.874446 0.205701 0.423431
C12_5 C 0.9812(4) 0.2038(4) 0.3836(3)
H6_5 H 0.977192 0.151637 0.369963
O8_3 O 0.92220(14) 0.19172(14) 0.01707(10)
O7_3 O 0.83777(15) 0.21229(17) 0.91985(10)
O10_5 O 0.95923(15) 0.26964(15) 0.91880(10)
O12_5 O 0.8902(2) 0.2149(3) 0.65956(13)
C16_5 C 0.89938(19) 0.2386(2) 0.89498(15)
C17_5 C 0.8994(2) 0.2326(3) 0.83302(16)
C19_5 C 0.9606(3) 0.2637(3) 0.80162(17)
H10_5 H 0.999906 0.410904 0.561637
C21_5 C 0.8357(3) 0.1949(3) 0.80517(17)
H11_5 H 0.793371 0.173729 0.825874
C22_5 C 0.9518(3) 0.2489(4) 0.62761(17)
C23_5 C 0.9605(3) 0.2590(4) 0.74367(19)
C25_5 C 0.8976(3) 0.2212(4) 0.71700(17)
C27_5 C 0.9433(3) 0.3251(4) 0.60720(18)
H15_5 H 0.896664 0.354162 0.614393
C28_5 C 0.8348(3) 0.1886(4) 0.74738(19)
H16_5 H 0.792525 0.162930 0.729215
C1_6 C 0.0731(2) 0.6848(2) 0.43512(14)
C4_6 C 0.14167(19) 0.6496(2) 0.46673(13)
H1_6 H 0.003401 0.711423 0.180362
C6_6 C 0.0049(3) 0.6411(3) 0.42449(15)
H4_6 H 0.002359 0.718854 0.277001
C10_6 C 0.0801(3) 0.7640(3) 0.4153(2)
H5_6 H 0.125554 0.794299 0.423431
C12_6 C 0.0188(4) 0.7962(4) 0.3836(3)
H6_6 H 0.022808 0.848363 0.369963
O8_4 O 0.07780(14) 0.80828(14) 0.01707(10)
O7_4 O 0.16223(15) 0.78771(17) 0.91985(10)
O10_6 O 0.04077(15) 0.73036(15) 0.91880(10)
O12_6 O 0.1098(2) 0.7851(3) 0.65956(13)
C16_6 C 0.10062(19) 0.7614(2) 0.89498(15)
C17_6 C 0.1006(2) 0.7674(3) 0.83302(16)
C19_6 C 0.0394(3) 0.7363(3) 0.80162(17)
H10_6 H 0.000094 0.589096 0.561637
C21_6 C 0.1643(3) 0.8051(3) 0.80517(17)
H11_6 H 0.206629 0.826271 0.825874
C22_6 C 0.0482(3) 0.7511(4) 0.62761(17)
C23_6 C 0.0395(3) 0.7410(4) 0.74367(19)
C25_6 C 0.1024(3) 0.7788(4) 0.71700(17)
C27_6 C 0.0567(3) 0.6749(4) 0.60720(18)
H15_6 H 0.103336 0.645838 0.614393
C28_6 C 0.1652(3) 0.8114(4) 0.74738(19)
H16_6 H 0.207475 0.837070 0.729215
O1_6 O 0.83777(15) 0.78771(17) 0.08015(10)
O4_6 O 0.95923(15) 0.73036(15) 0.08120(10)
O6_6 O 0.8902(2) 0.7851(3) 0.34044(13)
C2_6 C 0.89938(19) 0.7614(2) 0.10502(15)
C3_6 C 0.8994(2) 0.7674(3) 0.16698(16)
C5_6 C 0.9606(3) 0.7363(3) 0.19838(17)
H2_6 H 0.999906 0.589096 0.438363
C7_6 C 0.8357(3) 0.8051(3) 0.19483(17)
H3_6 H 0.793371 0.826271 0.174126
C8_6 C 0.9518(3) 0.7511(4) 0.37239(17)
C9_6 C 0.9605(3) 0.7410(4) 0.25633(19)
C11_6 C 0.8976(3) 0.7788(4) 0.28300(17)
C13_6 C 0.9433(3) 0.6749(4) 0.39280(18)
H7_6 H 0.896664 0.645838 0.385607
C14_6 C 0.8348(3) 0.8114(4) 0.25262(19)
H8_6 H 0.792525 0.837070 0.270785
O14_4 O 0.80828(14) 0.92220(14) 0.01707(10)
O2_6 O 0.92220(14) 0.80828(14) 0.98293(10)
C15_6 C 0.9269(2) 0.6848(2) 0.56488(14)
C18_6 C 0.85833(19) 0.6496(2) 0.53327(13)
H9_6 H 0.996599 0.711423 0.819638
C20_6 C 0.9951(3) 0.6411(3) 0.57551(15)
H12_6 H 0.997641 0.718854 0.722999
C24_6 C 0.9199(3) 0.7640(3) 0.5847(2)
H13_6 H 0.874446 0.794299 0.576569
C26_6 C 0.9812(4) 0.7962(4) 0.6164(3)
H14_6 H 0.977192 0.848363 0.630037
O13_4 O 0.78771(17) 0.83777(15) 0.91985(10)
O1_7 O 0.78771(17) 0.16223(15) 0.08015(10)
O4_7 O 0.73036(15) 0.04077(15) 0.08120(10)
O6_7 O 0.7851(3) 0.1098(2) 0.34044(13)
C2_7 C 0.7614(2) 0.10062(19) 0.10502(15)
C3_7 C 0.7674(3) 0.1006(2) 0.16698(16)
C5_7 C 0.7363(3) 0.0394(3) 0.19838(17)
H2_7 H 0.589096 0.000094 0.438363
C7_7 C 0.8051(3) 0.1643(3) 0.19483(17)
H3_7 H 0.826271 0.206629 0.174126
C8_7 C 0.7511(4) 0.0482(3) 0.37239(17)
C9_7 C 0.7410(4) 0.0395(3) 0.25633(19)
C11_7 C 0.7788(4) 0.1024(3) 0.28300(17)
C13_7 C 0.6749(4) 0.0567(3) 0.39280(18)
H7_7 H 0.645838 0.103336 0.385607
C14_7 C 0.8114(4) 0.1652(3) 0.25262(19)
H8_7 H 0.837070 0.207475 0.270785
O2_7 O 0.80828(14) 0.07780(14) 0.98293(10)
C15_7 C 0.6848(2) 0.0731(2) 0.56488(14)
C18_7 C 0.6496(2) 0.14167(19) 0.53327(13)
H9_7 H 0.711423 0.003401 0.819638
C20_7 C 0.6411(3) 0.0049(3) 0.57551(15)
H12_7 H 0.718854 0.002359 0.722999
C24_7 C 0.7640(3) 0.0801(3) 0.5847(2)
H13_7 H 0.794299 0.125554 0.576569
C26_7 C 0.7962(4) 0.0188(4) 0.6164(3)
H14_7 H 0.848363 0.022808 0.630037
C1_7 C 0.6848(2) 0.9269(2) 0.43512(14)
C4_7 C 0.6496(2) 0.85833(19) 0.46673(13)
H1_7 H 0.711423 0.996599 0.180362
C6_7 C 0.6411(3) 0.9951(3) 0.42449(15)
H4_7 H 0.718854 0.997641 0.277001
C10_7 C 0.7640(3) 0.9199(3) 0.4153(2)
H5_7 H 0.794299 0.874446 0.423431
C12_7 C 0.7962(4) 0.9812(4) 0.3836(3)
H6_7 H 0.848363 0.977192 0.369963
O10_7 O 0.73036(15) 0.95923(15) 0.91880(10)
O12_7 O 0.7851(3) 0.8902(2) 0.65956(13)
C16_7 C 0.7614(2) 0.89938(19) 0.89498(15)
C17_7 C 0.7674(3) 0.8994(2) 0.83302(16)
C19_7 C 0.7363(3) 0.9606(3) 0.80162(17)
H10_7 H 0.589096 0.999906 0.561637
C21_7 C 0.8051(3) 0.8357(3) 0.80517(17)
H11_7 H 0.826271 0.793371 0.825874
C22_7 C 0.7511(4) 0.9518(3) 0.62761(17)
C23_7 C 0.7410(4) 0.9605(3) 0.74367(19)
C25_7 C 0.7788(4) 0.8976(3) 0.71700(17)
C27_7 C 0.6749(4) 0.9433(3) 0.60720(18)
H15_7 H 0.645838 0.896664 0.614393
C28_7 C 0.8114(4) 0.8348(3) 0.74738(19)
H16_7 H 0.837070 0.792525 0.729215
C1_8 C 0.3152(2) 0.0731(2) 0.43512(14)
C4_8 C 0.3504(2) 0.14167(19) 0.46673(13)
H1_8 H 0.288577 0.003401 0.180362
C6_8 C 0.3589(3) 0.0049(3) 0.42449(15)
H4_8 H 0.281146 0.002359 0.277001
C10_8 C 0.2360(3) 0.0801(3) 0.4153(2)
H5_8 H 0.205701 0.125554 0.423431
C12_8 C 0.2038(4) 0.0188(4) 0.3836(3)
H6_8 H 0.151637 0.022808 0.369963
O10_8 O 0.26964(15) 0.04077(15) 0.91880(10)
O12_8 O 0.2149(3) 0.1098(2) 0.65956(13)
C16_8 C 0.2386(2) 0.10062(19) 0.89498(15)
C17_8 C 0.2326(3) 0.1006(2) 0.83302(16)
C19_8 C 0.2637(3) 0.0394(3) 0.80162(17)
H10_8 H 0.410904 0.000094 0.561637
C21_8 C 0.1949(3) 0.1643(3) 0.80517(17)
H11_8 H 0.173729 0.206629 0.825874
C22_8 C 0.2489(4) 0.0482(3) 0.62761(17)
C23_8 C 0.2590(4) 0.0395(3) 0.74367(19)
C25_8 C 0.2212(4) 0.1024(3) 0.71700(17)
C27_8 C 0.3251(4) 0.0567(3) 0.60720(18)
H15_8 H 0.354162 0.103336 0.614393
C28_8 C 0.1886(4) 0.1652(3) 0.74738(19)
H16_8 H 0.162930 0.207475 0.729215
O1_8 O 0.21229(17) 0.83777(15) 0.08015(10)
O4_8 O 0.26964(15) 0.95923(15) 0.08120(10)
O6_8 O 0.2149(3) 0.8902(2) 0.34044(13)
C2_8 C 0.2386(2) 0.89938(19) 0.10502(15)
C3_8 C 0.2326(3) 0.8994(2) 0.16698(16)
C5_8 C 0.2637(3) 0.9606(3) 0.19838(17)
H2_8 H 0.410904 0.999906 0.438363
C7_8 C 0.1949(3) 0.8357(3) 0.19483(17)
H3_8 H 0.173729 0.793371 0.174126
C8_8 C 0.2489(4) 0.9518(3) 0.37239(17)
C9_8 C 0.2590(4) 0.9605(3) 0.25633(19)
C11_8 C 0.2212(4) 0.8976(3) 0.28300(17)
C13_8 C 0.3251(4) 0.9433(3) 0.39280(18)
H7_8 H 0.354162 0.896664 0.385607
C14_8 C 0.1886(4) 0.8348(3) 0.25262(19)
H8_8 H 0.162930 0.792525 0.270785
O2_8 O 0.19172(14) 0.92220(14) 0.98293(10)
C15_8 C 0.3152(2) 0.9269(2) 0.56488(14)
C18_8 C 0.3504(2) 0.85833(19) 0.53327(13)
H9_8 H 0.288577 0.996599 0.819638
C20_8 C 0.3589(3) 0.9951(3) 0.57551(15)
H12_8 H 0.281146 0.997641 0.722999
C24_8 C 0.2360(3) 0.9199(3) 0.5847(2)
H13_8 H 0.205701 0.874446 0.576569
C26_8 C 0.2038(4) 0.9812(4) 0.6164(3)
H14_8 H 0.151637 0.977192 0.630037
loop_
_geom_bond_atom_site_label_1
_geom_bond_atom_site_label_2
_geom_bond_site_symmetry_1
_geom_bond_site_symmetry_2
Ti1 O1 1_555 1_555
Ti2 O2 1_555 1_555
O1 C2 1_555 1_555
O2 Ti1 1_555 1_555
O3 C4 1_555 1_555
O4 Ti2 1_555 1_555
O5 C4 1_555 1_555
O6 C8 1_555 1_555
C1 C4 1_555 1_555
C2 O4 1_555 1_555
C3 C2 1_555 1_555
C5 C3 1_555 1_555
H1 C5 1_555 1_555
C6 C1 1_555 1_555
H2 C6 1_555 1_555
C7 C3 1_555 1_555
H3 C7 1_555 1_555
C8 C12 1_555 1_555
C9 C5 1_555 1_555
H4 C9 1_555 1_555
C10 C1 1_555 1_555
H5 C10 1_555 1_555
C11 O6 1_555 1_555
C12 C10 1_555 1_555
H6 C12 1_555 1_555
C13 C6 1_555 1_555
H7 C13 1_555 1_555
C14 C7 1_555 1_555
H8 C14 1_555 1_555
O7 C16 1_555 1_555
O8 Ti2 1_555 1_555
O9 C18 1_555 1_555
O10 Ti2 1_555 1_555
O11 C18 1_555 1_555
O12 C22 1_555 1_555
C15 C18 1_555 1_555
C16 O10 1_555 1_555
C17 C16 1_555 1_555
C19 C17 1_555 1_555
H9 C19 1_555 1_555
C20 C15 1_555 1_555
H10 C20 1_555 1_555
C21 C17 1_555 1_555
H11 C21 1_555 1_555
C22 C26 1_555 1_555
C23 C19 1_555 1_555
H12 C23 1_555 1_555
C24 C15 1_555 1_555
H13 C24 1_555 1_555
C25 O12 1_555 1_555
C26 C24 1_555 1_555
H14 C26 1_555 1_555
C27 C20 1_555 1_555
H15 C27 1_555 1_555
C28 C21 1_555 1_555
H16 C28 1_555 1_555
Ti3 O7 1_555 1_555
Ti4 O11 1_555 1_555
Ti5_2 O5 1_555 1_555
Ti6_3 O9 1_555 1_555
Ti7_4 O3 1_555 1_555
O13 Ti1 1_555 1_555
O14 Ti1 1_555 1_555
O15 Ti2 1_555 1_555
O16 Ti2 1_555 1_555
O17 Ti1 1_555 1_555
O18 Ti1 1_555 1_555
C8 C13 1_555 1_555
C9 C11 1_555 1_555
C11 C14 1_555 1_555
O8 Ti3 1_555 1_555
C22 C27 1_555 1_555
C23 C25 1_555 1_555
C25 C28 1_555 1_555
Ti1_2 O1_2 1_555 1_555
Ti2_2 O2_2 1_555 1_555
O1_2 C2_2 1_555 1_555
O2_2 Ti1_2 1_555 1_555
O3_2 C4_2 1_555 1_555
O4_2 Ti2_2 1_555 1_555
O5_2 C4_2 1_555 1_555
O6_2 C8_2 1_555 1_555
C1_2 C4_2 1_555 1_555
C2_2 O4_2 1_555 1_555
C3_2 C2_2 1_555 1_555
C5_2 C3_2 1_555 1_555
H1_2 C5_2 1_555 1_555
C6_2 C1_2 1_555 1_555
H2_2 C6_2 1_555 1_555
C7_2 C3_2 1_555 1_555
H3_2 C7_2 1_555 1_555
C8_2 C12_2 1_555 1_555
C9_2 C5_2 1_555 1_555
H4_2 C9_2 1_555 1_555
C10_2 C1_2 1_555 1_555
H5_2 C10_2 1_555 1_555
C11_2 O6_2 1_555 1_555
C12_2 C10_2 1_555 1_555
H6_2 C12_2 1_555 1_555
C13_2 C6_2 1_555 1_555
H7_2 C13_2 1_555 1_555
C14_2 C7_2 1_555 1_555
H8_2 C14_2 1_555 1_555
O7_2 C16_2 1_555 1_555
O8_2 Ti2_2 1_555 1_555
O9_2 C18_2 1_555 1_555
O10_2 Ti2_2 1_555 1_555
O11_2 C18_2 1_555 1_555
O12_2 C22_2 1_555 1_555
C15_2 C18_2 1_555 1_555
C16_2 O10_2 1_555 1_555
C17_2 C16_2 1_555 1_555
C19_2 C17_2 1_555 1_555
H9_2 C19_2 1_555 1_555
C20_2 C15_2 1_555 1_555
H10_2 C20_2 1_555 1_555
C21_2 C17_2 1_555 1_555
H11_2 C21_2 1_555 1_555
C22_2 C26_2 1_555 1_555
C23_2 C19_2 1_555 1_555
H12_2 C23_2 1_555 1_555
C24_2 C15_2 1_555 1_555
H13_2 C24_2 1_555 1_555
C25_2 O12_2 1_555 1_555
C26_2 C24_2 1_555 1_555
H14_2 C26_2 1_555 1_555
C27_2 C20_2 1_555 1_555
H15_2 C27_2 1_555 1_555
C28_2 C21_2 1_555 1_555
H16_2 C28_2 1_555 1_555
Ti3_2 O7_2 1_555 1_555
Ti4_3 O11_2 1_555 1_555
Ti5_4 O5_2 1_555 1_555
Ti7 O9_2 1_555 1_555
Ti6_2 O3_2 1_555 1_555
O13_2 Ti1_2 1_555 1_555
O14_2 Ti1_2 1_555 1_555
O15_2 Ti2_2 1_555 1_555
O16_2 Ti2_2 1_555 1_555
O17_2 Ti1_2 1_555 1_555
O18_2 Ti1_2 1_555 1_555
C8_2 C13_2 1_555 1_555
C9_2 C11_2 1_555 1_555
C11_2 C14_2 1_555 1_555
O8_2 Ti3_2 1_555 1_555
C22_2 C27_2 1_555 1_555
C23_2 C25_2 1_555 1_555
C25_2 C28_2 1_555 1_555
Ti3 O1_3 1_555 1_555
Ti2_3 O2_3 1_555 1_555
O1_3 C2_3 1_555 1_555
O2_3 Ti3 1_555 1_555
O3_3 C4_3 1_555 1_555
O4_3 Ti2_3 1_555 1_555
O5_3 C4_3 1_555 1_555
O6_3 C8_3 1_555 1_555
C1_3 C4_3 1_555 1_555
C2_3 O4_3 1_555 1_555
C3_3 C2_3 1_555 1_555
C5_3 C3_3 1_555 1_555
H1_3 C5_3 1_555 1_555
C6_3 C1_3 1_555 1_555
H2_3 C6_3 1_555 1_555
C7_3 C3_3 1_555 1_555
H3_3 C7_3 1_555 1_555
C8_3 C12_3 1_555 1_555
C9_3 C5_3 1_555 1_555
H4_3 C9_3 1_555 1_555
C10_3 C1_3 1_555 1_555
H5_3 C10_3 1_555 1_555
C11_3 O6_3 1_555 1_555
C12_3 C10_3 1_555 1_555
H6_3 C12_3 1_555 1_555
C13_3 C6_3 1_555 1_555
H7_3 C13_3 1_555 1_555
C14_3 C7_3 1_555 1_555
H8_3 C14_3 1_555 1_555
O13_2 C16_3 1_555 1_555
O14_2 Ti2_3 1_555 1_555
O9_3 C18_3 1_555 1_555
O10_3 Ti2_3 1_555 1_555
O11_3 C18_3 1_555 1_555
O12_3 C22_3 1_555 1_555
C15_3 C18_3 1_555 1_555
C16_3 O10_3 1_555 1_555
C17_3 C16_3 1_555 1_555
C19_3 C17_3 1_555 1_555
H9_3 C19_3 1_555 1_555
C20_3 C15_3 1_555 1_555
H10_3 C20_3 1_555 1_555
C21_3 C17_3 1_555 1_555
H11_3 C21_3 1_555 1_555
C22_3 C26_3 1_555 1_555
C23_3 C19_3 1_555 1_555
H12_3 C23_3 1_555 1_555
C24_3 C15_3 1_555 1_555
H13_3 C24_3 1_555 1_555
C25_3 O12_3 1_555 1_555
C26_3 C24_3 1_555 1_555
H14_3 C26_3 1_555 1_555
C27_3 C20_3 1_555 1_555
H15_3 C27_3 1_555 1_555
C28_3 C21_3 1_555 1_555
H16_3 C28_3 1_555 1_555
Ti5 O11_3 1_555 1_555
Ti4_4 O5_3 1_555 1_555
Ti6_5 O9_3 1_555 1_555
Ti7_6 O3_3 1_555 1_555
O15_3 Ti2_3 1_555 1_555
O16_3 Ti2_3 1_555 1_555
O17_3 Ti3 1_555 1_555
O18_3 Ti3 1_555 1_555
C8_3 C13_3 1_555 1_555
C9_3 C11_3 1_555 1_555
C11_3 C14_3 1_555 1_555
C22_3 C27_3 1_555 1_555
C23_3 C25_3 1_555 1_555
C25_3 C28_3 1_555 1_555
Ti3_2 O1_4 1_555 1_555
Ti2_4 O2_4 1_555 1_555
O1_4 C2_4 1_555 1_555
O2_4 Ti3_2 1_555 1_555
O3_4 C4_4 1_555 1_555
O4_4 Ti2_4 1_555 1_555
O5_4 C4_4 1_555 1_555
O6_4 C8_4 1_555 1_555
C1_4 C4_4 1_555 1_555
C2_4 O4_4 1_555 1_555
C3_4 C2_4 1_555 1_555
C5_4 C3_4 1_555 1_555
H1_4 C5_4 1_555 1_555
C6_4 C1_4 1_555 1_555
H2_4 C6_4 1_555 1_555
C7_4 C3_4 1_555 1_555
H3_4 C7_4 1_555 1_555
C8_4 C12_4 1_555 1_555
C9_4 C5_4 1_555 1_555
H4_4 C9_4 1_555 1_555
C10_4 C1_4 1_555 1_555
H5_4 C10_4 1_555 1_555
C11_4 O6_4 1_555 1_555
C12_4 C10_4 1_555 1_555
H6_4 C12_4 1_555 1_555
C13_4 C6_4 1_555 1_555
H7_4 C13_4 1_555 1_555
C14_4 C7_4 1_555 1_555
H8_4 C14_4 1_555 1_555
O13 C16_4 1_555 1_555
O14 Ti2_4 1_555 1_555
O9_4 C18_4 1_555 1_555
O10_4 Ti2_4 1_555 1_555
O11_4 C18_4 1_555 1_555
O12_4 C22_4 1_555 1_555
C15_4 C18_4 1_555 1_555
C16_4 O10_4 1_555 1_555
C17_4 C16_4 1_555 1_555
C19_4 C17_4 1_555 1_555
H9_4 C19_4 1_555 1_555
C20_4 C15_4 1_555 1_555
H10_4 C20_4 1_555 1_555
C21_4 C17_4 1_555 1_555
H11_4 C21_4 1_555 1_555
C22_4 C26_4 1_555 1_555
C23_4 C19_4 1_555 1_555
H12_4 C23_4 1_555 1_555
C24_4 C15_4 1_555 1_555
H13_4 C24_4 1_555 1_555
C25_4 O12_4 1_555 1_555
C26_4 C24_4 1_555 1_555
H14_4 C26_4 1_555 1_555
C27_4 C20_4 1_555 1_555
H15_4 C27_4 1_555 1_555
C28_4 C21_4 1_555 1_555
H16_4 C28_4 1_555 1_555
Ti5_3 O11_4 1_555 1_555
Ti4_2 O5_4 1_555 1_555
Ti7_7 O9_4 1_555 1_555
Ti6_8 O3_4 1_555 1_555
O15_4 Ti2_4 1_555 1_555
O16_4 Ti2_4 1_555 1_555
O17_4 Ti3_2 1_555 1_555
O18_4 Ti3_2 1_555 1_555
C8_4 C13_4 1_555 1_555
C9_4 C11_4 1_555 1_555
C11_4 C14_4 1_555 1_555
C22_4 C27_4 1_555 1_555
C23_4 C25_4 1_555 1_555
C25_4 C28_4 1_555 1_555
Ti4_3 O1_5 1_555 1_555
O1_5 C2_5 1_555 1_555
O4_5 Ti7_5 1_555 1_555
O6_5 C8_5 1_555 1_555
C2_5 O4_5 1_555 1_555
C3_5 C2_5 1_555 1_555
C5_5 C3_5 1_555 1_555
C7_5 C3_5 1_555 1_555
H3_5 C7_5 1_555 1_555
C9_5 C5_5 1_555 1_555
C11_5 O6_5 1_555 1_555
H7_5 C13_5 1_555 1_555
C14_5 C7_5 1_555 1_555
H8_5 C14_5 1_555 1_555
O14_3 Ti4_3 1_555 1_555
C8_5 C13_5 1_555 1_555
C9_5 C11_5 1_555 1_555
C11_5 C14_5 1_555 1_555
Ti7_6 O2_5 1_555 1_555
O2_5 Ti4_4 1_555 1_555
O16_3 C18_5 1_555 1_555
O18_2 C18_5 1_555 1_555
C15_5 C18_5 1_555 1_555
C20_5 C15_5 1_555 1_555
C24_5 C15_5 1_555 1_555
H13_5 C24_5 1_555 1_555
C26_5 C24_5 1_555 1_555
H14_5 C26_5 1_555 1_555
O13_3 Ti4_4 1_555 1_555
O15_4 C4_5 1_555 1_555
O17_4 C4_5 1_555 1_555
C1_5 C4_5 1_555 1_555
C6_5 C1_5 1_555 1_555
C10_5 C1_5 1_555 1_555
H5_5 C10_5 1_555 1_555
C12_5 C10_5 1_555 1_555
H6_5 C12_5 1_555 1_555
O8_3 Ti7_7 1_555 1_555
O8_3 Ti5_3 1_555 1_555
O7_3 C16_5 1_555 1_555
O10_5 Ti7_8 1_555 1_555
O12_5 C22_5 1_555 1_555
C16_5 O10_5 1_555 1_555
C17_5 C16_5 1_555 1_555
C19_5 C17_5 1_555 1_555
C21_5 C17_5 1_555 1_555
H11_5 C21_5 1_555 1_555
C23_5 C19_5 1_555 1_555
C25_5 O12_5 1_555 1_555
H15_5 C27_5 1_555 1_555
C28_5 C21_5 1_555 1_555
H16_5 C28_5 1_555 1_555
Ti5_4 O7_3 1_555 1_555
C22_5 C27_5 1_555 1_555
C23_5 C25_5 1_555 1_555
C25_5 C28_5 1_555 1_555
O15_3 C4_6 1_555 1_555
O17_3 C4_6 1_555 1_555
C1_6 C4_6 1_555 1_555
C6_6 C1_6 1_555 1_555
C10_6 C1_6 1_555 1_555
H5_6 C10_6 1_555 1_555
C12_6 C10_6 1_555 1_555
H6_6 C12_6 1_555 1_555
O8_4 Ti6_5 1_555 1_555
O8_4 Ti5 1_555 1_555
O7_4 C16_6 1_555 1_555
O10_6 Ti6_6 1_555 1_555
O12_6 C22_6 1_555 1_555
C16_6 O10_6 1_555 1_555
C17_6 C16_6 1_555 1_555
C19_6 C17_6 1_555 1_555
C21_6 C17_6 1_555 1_555
H11_6 C21_6 1_555 1_555
C23_6 C19_6 1_555 1_555
C25_6 O12_6 1_555 1_555
H15_6 C27_6 1_555 1_555
C28_6 C21_6 1_555 1_555
H16_6 C28_6 1_555 1_555
Ti5_2 O7_4 1_555 1_555
C22_6 C27_6 1_555 1_555
C23_6 C25_6 1_555 1_555
C25_6 C28_6 1_555 1_555
Ti4 O1_6 1_555 1_555
O1_6 C2_6 1_555 1_555
O4_6 Ti6_7 1_555 1_555
O6_6 C8_6 1_555 1_555
C2_6 O4_6 1_555 1_555
C3_6 C2_6 1_555 1_555
C5_6 C3_6 1_555 1_555
C7_6 C3_6 1_555 1_555
H3_6 C7_6 1_555 1_555
C9_6 C5_6 1_555 1_555
C11_6 O6_6 1_555 1_555
H7_6 C13_6 1_555 1_555
C14_6 C7_6 1_555 1_555
H8_6 C14_6 1_555 1_555
O14_4 Ti4 1_555 1_555
C8_6 C13_6 1_555 1_555
C9_6 C11_6 1_555 1_555
C11_6 C14_6 1_555 1_555
Ti6_8 O2_6 1_555 1_555
O2_6 Ti4_2 1_555 1_555
O16_4 C18_6 1_555 1_555
O18 C18_6 1_555 1_555
C15_6 C18_6 1_555 1_555
C20_6 C15_6 1_555 1_555
C24_6 C15_6 1_555 1_555
H13_6 C24_6 1_555 1_555
C26_6 C24_6 1_555 1_555
H14_6 C26_6 1_555 1_555
O13_4 Ti4_2 1_555 1_555
Ti5_3 O1_7 1_555 1_555
O1_7 C2_7 1_555 1_555
O4_7 Ti6 1_555 1_555
O6_7 C8_7 1_555 1_555
C2_7 O4_7 1_555 1_555
C3_7 C2_7 1_555 1_555
C5_7 C3_7 1_555 1_555
C7_7 C3_7 1_555 1_555
H3_7 C7_7 1_555 1_555
C9_7 C5_7 1_555 1_555
C11_7 O6_7 1_555 1_555
H7_7 C13_7 1_555 1_555
C14_7 C7_7 1_555 1_555
H8_7 C14_7 1_555 1_555
C8_7 C13_7 1_555 1_555
C9_7 C11_7 1_555 1_555
C11_7 C14_7 1_555 1_555
Ti6_2 O2_7 1_555 1_555
O2_7 Ti5_4 1_555 1_555
O16_2 C18_7 1_555 1_555
O18_4 C18_7 1_555 1_555
C15_7 C18_7 1_555 1_555
C20_7 C15_7 1_555 1_555
C24_7 C15_7 1_555 1_555
H13_7 C24_7 1_555 1_555
C26_7 C24_7 1_555 1_555
H14_7 C26_7 1_555 1_555
O15 C4_7 1_555 1_555
O17 C4_7 1_555 1_555
C1_7 C4_7 1_555 1_555
C6_7 C1_7 1_555 1_555
C10_7 C1_7 1_555 1_555
H5_7 C10_7 1_555 1_555
C12_7 C10_7 1_555 1_555
H6_7 C12_7 1_555 1_555
O14_4 Ti6_3 1_555 1_555
O13_4 C16_7 1_555 1_555
O10_7 Ti6_4 1_555 1_555
O12_7 C22_7 1_555 1_555
C16_7 O10_7 1_555 1_555
C17_7 C16_7 1_555 1_555
C19_7 C17_7 1_555 1_555
C21_7 C17_7 1_555 1_555
H11_7 C21_7 1_555 1_555
C23_7 C19_7 1_555 1_555
C25_7 O12_7 1_555 1_555
H15_7 C27_7 1_555 1_555
C28_7 C21_7 1_555 1_555
H16_7 C28_7 1_555 1_555
C22_7 C27_7 1_555 1_555
C23_7 C25_7 1_555 1_555
C25_7 C28_7 1_555 1_555
O15_2 C4_8 1_555 1_555
O17_2 C4_8 1_555 1_555
C1_8 C4_8 1_555 1_555
C6_8 C1_8 1_555 1_555
C10_8 C1_8 1_555 1_555
H5_8 C10_8 1_555 1_555
C12_8 C10_8 1_555 1_555
H6_8 C12_8 1_555 1_555
O14_3 Ti7 1_555 1_555
O13_3 C16_8 1_555 1_555
O10_8 Ti7_2 1_555 1_555
O12_8 C22_8 1_555 1_555
C16_8 O10_8 1_555 1_555
C17_8 C16_8 1_555 1_555
C19_8 C17_8 1_555 1_555
C21_8 C17_8 1_555 1_555
H11_8 C21_8 1_555 1_555
C23_8 C19_8 1_555 1_555
C25_8 O12_8 1_555 1_555
H15_8 C27_8 1_555 1_555
C28_8 C21_8 1_555 1_555
H16_8 C28_8 1_555 1_555
C22_8 C27_8 1_555 1_555
C23_8 C25_8 1_555 1_555
C25_8 C28_8 1_555 1_555
Ti5 O1_8 1_555 1_555
O1_8 C2_8 1_555 1_555
O4_8 Ti7_3 1_555 1_555
O6_8 C8_8 1_555 1_555
C2_8 O4_8 1_555 1_555
C3_8 C2_8 1_555 1_555
C5_8 C3_8 1_555 1_555
C7_8 C3_8 1_555 1_555
H3_8 C7_8 1_555 1_555
C9_8 C5_8 1_555 1_555
C11_8 O6_8 1_555 1_555
H7_8 C13_8 1_555 1_555
C14_8 C7_8 1_555 1_555
H8_8 C14_8 1_555 1_555
C8_8 C13_8 1_555 1_555
C9_8 C11_8 1_555 1_555
C11_8 C14_8 1_555 1_555
Ti7_4 O2_8 1_555 1_555
O2_8 Ti5_2 1_555 1_555
O16 C18_8 1_555 1_555
O18_3 C18_8 1_555 1_555
C15_8 C18_8 1_555 1_555
C20_8 C15_8 1_555 1_555
C24_8 C15_8 1_555 1_555
H13_8 C24_8 1_555 1_555
C26_8 C24_8 1_555 1_555
H14_8 C26_8 1_555 1_555

#END
