
###############################################################################
#
# This file contains modified crystal structure data generated from the
# MOF subset of the Cambridge Structural Database (CSD) v543 
# hosted by the Cambridge Crystallographic Data Centre (CCDC).
#
# This work is licensed under the Creative Commons
# Attribution-NonCommercial-ShareAlike 4.0 International License.
# To view a copy of this license, visit
# http://creativecommons.org/licenses/by-nc-sa/4.0/
# or send a letter to
# Creative Commons, PO Box 1866, Mountain View, CA 94042, USA.
#
# CIF created using the CSD Python API on 29 September 2022
# The structure has been converted into the P1 space group
# The structure has a 3D framework
# The original CSD entry EYIYES is in the monoclinic crystal system
# The framework has been calculated to contain at least 10.0% void space
# The void calculation uses a probe of radius 1.32A, grid spacing 0.4
#
###############################################################################

data_EYIYES
_chemical_formula_moiety         '(C336 H296 Dy16 N32 O124)n'
_symmetry_cell_setting           triclinic
_symmetry_space_group_name_H-M   'P 1'
_symmetry_Int_Tables_number      1
_space_group_name_Hall           'P 1'
loop_
_symmetry_equiv_pos_site_id
_symmetry_equiv_pos_as_xyz
1 x,y,z
_cell_length_a                   29.9537(12)
_cell_length_b                   21.1398(9)
_cell_length_c                   19.4385(8)
_cell_angle_alpha                90
_cell_angle_beta                 93.9800(10)
_cell_angle_gamma                90
_cell_volume                     12279.1
loop_
_atom_site_label
_atom_site_type_symbol
_atom_site_fract_x
_atom_site_fract_y
_atom_site_fract_z
Dy1 Dy 0.276530(11) 0.174570(13) 0.058850(18)
O1 O 0.3403(2) 0.1014(3) 0.0730(4)
O2 O 0.2800(2) 0.0690(3) 0.0155(4)
O13 O 0.2973(3) 0.1630(3) 0.1794(5)
O16 O 0.2221(3) 0.1112(4) 0.1116(4)
C1 C 0.3172(3) 0.0575(4) 0.0438(5)
H1 H 0.3941 0.0108 0.0970
C30 C 0.3305(5) 0.1747(5) 0.2161(8)
H10 H 0.3555 0.1884 0.1946
C31 C 0.3748(6) 0.1751(7) 0.3278(10)
H11 H 0.3997 0.1797 0.2998
H12 H 0.3787 0.1377 0.3556
H13 H 0.3730 0.2114 0.3572
C32 C 0.2938(6) 0.1631(7) 0.3180(9)
H14 H 0.2693 0.1588 0.2839
H15 H 0.2893 0.1998 0.3458
H16 H 0.2955 0.1262 0.3468
C39 C 0.1991(4) 0.0639(6) 0.1161(7)
H31 H 0.2073 0.0306 0.0885
C41 C 0.1632(5) 0.0767(7) 0.2215(9)
H35 H 0.1783 0.1169 0.2237
H36 H 0.1780 0.0482 0.2542
H37 H 0.1327 0.0823 0.2324
N1 N 0.3346(5) 0.1698(5) 0.2847(8)
N4 N 0.1644(4) 0.0509(6) 0.1531(7)
O41 O 0.23127(17) 0.2455(2) 0.1132(3)
O43 O 0.32885(19) 0.2561(2) 0.0878(3)
O11 O 0.2156(2) 0.1841(3) 0.9814(4)
O12 O 0.17115(19) 0.2439(2) 0.9122(3)
C22 C 0.1477(3) 0.0196(4) 0.9072(6)
C23 C 0.1723(3) 0.0732(4) 0.9327(5)
H7 H 0.1979 0.0677 0.9621
C24 C 0.1580(3) 0.1348(4) 0.9132(5)
C25 C 0.1177(3) 0.1429(4) 0.8733(5)
H8 H 0.1069 0.1834 0.8633
C26 C 0.0932(3) 0.0894(4) 0.8481(6)
C27 C 0.1087(3) 0.0287(4) 0.8664(5)
C28 C 0.0545(3) 0.0965(4) 0.8036(6)
C29 C 0.0190(3) 0.0981(4) 0.7718(6)
C42 C 0.1835(3) 0.1903(4) 0.9378(5)
Dy9 Dy 0.223470(11) 0.325430(13) 0.941150(18)
O39 O 0.31114(18) 0.1912(3) 0.9553(3)
O4 O 0.3092(2) 0.7718(3) 0.0016(3)
O5 O 0.62780(18) 0.7229(3) 0.3813(3)
O6 O 0.69592(18) 0.7085(3) 0.3515(3)
O7 O 0.68886(18) 0.8088(3) 0.0447(3)
O8 O 0.73127(17) 0.7455(2) 0.1132(3)
O14 O 0.1985(3) 0.8429(4) 0.0791(6)
O15 O 0.1149(4) 0.8321(4) 0.0182(6)
C2 C 0.3342(3) 0.9909(4) 0.0464(5)
C3 C 0.3767(3) 0.9779(4) 0.0781(5)
C4 C 0.3931(3) 0.9162(4) 0.0817(5)
C5 C 0.3648(3) 0.8670(4) 0.0552(5)
H2 H 0.3747 0.8254 0.0587
C6 C 0.3239(3) 0.8792(4) 0.0251(5)
C7 C 0.3075(3) 0.9411(4) 0.0185(5)
C9 C 0.4360(3) 0.9024(4) 0.1120(5)
C10 C 0.4725(3) 0.8855(4) 0.1334(5)
C11 C 0.5143(3) 0.8636(4) 0.1574(5)
C12 C 0.5502(3) 0.8415(4) 0.1753(5)
C13 C 0.5921(3) 0.8153(4) 0.1933(5)
C14 C 0.6038(3) 0.7877(4) 0.2565(4)
H4 H 0.5839 0.7897 0.2912
C15 C 0.6445(3) 0.7571(4) 0.2693(4)
C16 C 0.6751(3) 0.7553(4) 0.2179(4)
H5 H 0.7024 0.7349 0.2267
C17 C 0.6654(3) 0.7838(4) 0.1534(4)
C18 C 0.6237(3) 0.8125(4) 0.1407(5)
H6 H 0.6161 0.8301 0.0976
C19 C 0.6569(3) 0.7275(4) 0.3387(4)
C20 C 0.6983(3) 0.7794(4) 0.1007(4)
C33 C 0.2060(6) 0.8323(6) 0.1358(11)
H17 H 0.2362 0.8223 0.1426
C34 C 0.2149(6) 0.8266(7) 0.2609(9)
H18 H 0.2460 0.8282 0.2523
H19 H 0.2088 0.7880 0.2846
H20 H 0.2075 0.8620 0.2888
C35 C 0.1406(6) 0.8311(7) 0.2032(10)
H21 H 0.1311 0.8744 0.2044
H22 H 0.1338 0.8104 0.2452
H23 H 0.1253 0.8101 0.1647
C37 C 0.0474(7) 0.8271(7) 0.0995(12)
H25 H 0.0194 0.8300 0.1206
H26 H 0.0654 0.8634 0.1119
H27 H 0.0628 0.7894 0.1151
C40 C 0.1443(5) 0.9874(7) 0.1478(8)
H32 H 0.1483 0.9702 0.1029
H33 H 0.1130 0.9902 0.1546
H34 H 0.1587 0.9604 0.1824
N2 N 0.1883(6) 0.8287(6) 0.1963(9)
N3 N 0.0391(6) 0.8247(6) 0.0253(10)
Dy5 Dy 0.776530(11) 0.674570(13) 0.058850(18)
Dy12 Dy 0.318770(13) 0.669700(15) 0.03652(2)
Dy14 Dy 0.681230(13) 0.669700(15) 0.46348(2)
Dy2 Dy 0.181230(13) 0.830300(15) 0.96348(2)
O3 O 0.2573(2) 0.8401(3) 0.9689(4)
O9 O 0.1462(3) 0.9097(3) 0.8930(4)
O10 O 0.1910(2) 0.9449(3) 0.9737(4)
H3 H 0.2795 0.9491 0.9962
C8 C 0.2945(3) 0.8257(4) 0.9956(6)
C21 C 0.1620(4) 0.9553(5) 0.9270(6)
H9 H 0.0923 0.9936 0.8506
C36 C 0.0768(7) 0.8203(7) 0.9917(11)
H24 H 0.0742 0.8075 0.9458
C81 C 0.0022(6) 0.7953(9) 0.5019(10)
H65 H 0.0022 0.7922 0.5512
H66 H 0.0272 0.8205 0.4900
H67 H 0.0045 0.7538 0.4825
Dy7 Dy 0.723470(11) 0.825430(13) 0.941150(18)
O33 O 0.1908(2) 0.7282(3) 0.9984(3)
O36 O 0.12780(18) 0.7771(3) 0.8813(3)
O38 O 0.19592(18) 0.7915(3) 0.8515(3)
O19 O 0.7844(2) 0.1841(3) 0.5186(4)
O20 O 0.82885(19) 0.2439(2) 0.5878(3)
C44 C 0.8523(3) 0.0196(4) 0.5928(6)
C45 C 0.8277(3) 0.0732(4) 0.5673(5)
H38 H 0.8021 0.0677 0.5379
C46 C 0.8420(3) 0.1348(4) 0.5868(5)
C47 C 0.8823(3) 0.1429(4) 0.6267(5)
H39 H 0.8931 0.1834 0.6367
C48 C 0.9068(3) 0.0894(4) 0.6519(6)
C49 C 0.8913(3) 0.0287(4) 0.6336(5)
C50 C 0.9455(3) 0.0965(4) 0.6964(6)
C51 C 0.9810(3) 0.0981(4) 0.7282(6)
C52 C 0.8165(3) 0.1903(4) 0.5622(5)
Dy3 Dy 0.723470(11) 0.174570(13) 0.441150(18)
O21 O 0.6597(2) 0.1014(3) 0.4270(4)
O22 O 0.7200(2) 0.0690(3) 0.4845(4)
O29 O 0.7027(3) 0.1630(3) 0.3206(5)
O32 O 0.7779(3) 0.1112(4) 0.3884(4)
C53 C 0.6828(3) 0.0575(4) 0.4562(5)
H41 H 0.6059 0.0108 0.4030
C73 C 0.6695(5) 0.1747(5) 0.2839(8)
H47 H 0.6445 0.1884 0.3054
C74 C 0.6252(6) 0.1751(7) 0.1722(10)
H48 H 0.6003 0.1797 0.2002
H49 H 0.6213 0.1377 0.1444
H50 H 0.6270 0.2114 0.1428
C75 C 0.7062(6) 0.1631(7) 0.1820(9)
H51 H 0.7307 0.1588 0.2161
H52 H 0.7107 0.1998 0.1542
H53 H 0.7045 0.1262 0.1532
C82 C 0.8009(4) 0.0639(6) 0.3839(7)
H68 H 0.7927 0.0306 0.4115
C84 C 0.8368(5) 0.0767(7) 0.2785(9)
H72 H 0.8217 0.1169 0.2763
H73 H 0.8220 0.0482 0.2458
H74 H 0.8673 0.0823 0.2676
N5 N 0.6654(5) 0.1698(5) 0.2153(8)
N8 N 0.8356(4) 0.0509(6) 0.3469(7)
Dy10 Dy 0.776530(11) 0.325430(13) 0.558850(18)
O40 O 0.68886(18) 0.1912(3) 0.5447(3)
O42 O 0.76873(17) 0.2455(2) 0.3868(3)
O44 O 0.67115(19) 0.2561(2) 0.4122(3)
C38 C 0.9978(6) 0.7953(9) 0.9981(10)
H28 H 0.9978 0.7922 0.9488
O17 O 0.8538(3) 0.9097(3) 0.6070(4)
O18 O 0.8090(2) 0.9449(3) 0.5263(4)
C43 C 0.8380(4) 0.9553(5) 0.5730(6)
H40 H 0.9077 0.9936 0.6494
Dy4 Dy 0.818770(13) 0.830300(15) 0.53652(2)
O23 O 0.7427(2) 0.8401(3) 0.5311(4)
O24 O 0.6908(2) 0.7718(3) 0.4984(3)
O25 O 0.37220(18) 0.7229(3) 0.1187(3)
O26 O 0.30408(18) 0.7085(3) 0.1485(3)
O27 O 0.31114(18) 0.8088(3) 0.4553(3)
O28 O 0.26873(17) 0.7455(2) 0.3868(3)
O30 O 0.8015(3) 0.8429(4) 0.4209(6)
O31 O 0.8851(4) 0.8321(4) 0.4818(6)
C54 C 0.6658(3) 0.9909(4) 0.4536(5)
C55 C 0.6233(3) 0.9779(4) 0.4219(5)
C56 C 0.6069(3) 0.9162(4) 0.4183(5)
C57 C 0.6352(3) 0.8670(4) 0.4448(5)
H42 H 0.6253 0.8254 0.4413
C58 C 0.6761(3) 0.8792(4) 0.4749(5)
C59 C 0.6925(3) 0.9411(4) 0.4815(5)
H43 H 0.7205 0.9491 0.5038
C60 C 0.7055(3) 0.8257(4) 0.5044(6)
C61 C 0.5640(3) 0.9024(4) 0.3880(5)
C62 C 0.5275(3) 0.8855(4) 0.3666(5)
C63 C 0.4857(3) 0.8636(4) 0.3426(5)
C64 C 0.4498(3) 0.8415(4) 0.3247(5)
C65 C 0.4079(3) 0.8153(4) 0.3067(5)
C66 C 0.3962(3) 0.7877(4) 0.2435(4)
H44 H 0.4161 0.7897 0.2088
C67 C 0.3555(3) 0.7571(4) 0.2307(4)
C68 C 0.3249(3) 0.7553(4) 0.2821(4)
H45 H 0.2976 0.7349 0.2733
C69 C 0.3346(3) 0.7838(4) 0.3466(4)
C70 C 0.3763(3) 0.8125(4) 0.3593(5)
H46 H 0.3839 0.8301 0.4024
C71 C 0.3431(3) 0.7275(4) 0.1613(4)
C72 C 0.3017(3) 0.7794(4) 0.3993(4)
C76 C 0.7940(6) 0.8323(6) 0.3642(11)
H54 H 0.7638 0.8223 0.3574
C77 C 0.7851(6) 0.8266(7) 0.2391(9)
H55 H 0.7540 0.8282 0.2477
H56 H 0.7912 0.7880 0.2154
H57 H 0.7925 0.8620 0.2112
C78 C 0.8594(6) 0.8311(7) 0.2968(10)
H58 H 0.8689 0.8744 0.2956
H59 H 0.8662 0.8104 0.2548
H60 H 0.8747 0.8101 0.3353
C79 C 0.9232(7) 0.8203(7) 0.5083(11)
H61 H 0.9258 0.8075 0.5542
C80 C 0.9526(7) 0.8271(7) 0.4005(12)
H62 H 0.9806 0.8300 0.3794
H63 H 0.9346 0.8634 0.3881
H64 H 0.9372 0.7894 0.3849
C83 C 0.8557(5) 0.9874(7) 0.3522(8)
H69 H 0.8517 0.9702 0.3971
H70 H 0.8870 0.9902 0.3454
H71 H 0.8413 0.9604 0.3176
N6 N 0.8117(6) 0.8287(6) 0.3037(9)
N7 N 0.9609(6) 0.8247(6) 0.4747(10)
Dy6 Dy 0.223470(11) 0.674570(13) 0.441150(18)
Dy8 Dy 0.276530(11) 0.825430(13) 0.558850(18)
O34 O 0.8092(2) 0.7282(3) 0.5016(3)
O35 O 0.87220(18) 0.7771(3) 0.6187(3)
O37 O 0.80408(18) 0.7915(3) 0.6485(3)
O5_2 O 0.12780(18) 0.2229(3) 0.3813(3)
O6_2 O 0.19592(18) 0.2085(3) 0.3515(3)
O7_2 O 0.18886(18) 0.3088(3) 0.0447(3)
C11_2 C 0.0143(3) 0.3636(4) 0.1574(5)
C12_2 C 0.0502(3) 0.3415(4) 0.1753(5)
C13_2 C 0.0921(3) 0.3153(4) 0.1933(5)
C14_2 C 0.1038(3) 0.2877(4) 0.2565(4)
H4_2 H 0.0839 0.2897 0.2912
C15_2 C 0.1445(3) 0.2571(4) 0.2693(4)
C16_2 C 0.1751(3) 0.2553(4) 0.2179(4)
H5_2 H 0.2024 0.2349 0.2267
C17_2 C 0.1654(3) 0.2838(4) 0.1534(4)
C18_2 C 0.1237(3) 0.3125(4) 0.1407(5)
H6_2 H 0.1161 0.3301 0.0976
C19_2 C 0.1569(3) 0.2275(4) 0.3387(4)
C20_2 C 0.1983(3) 0.2794(4) 0.1007(4)
Dy14_2 Dy 0.181230(13) 0.169700(15) 0.46348(2)
O1_2 O 0.8403(2) 0.6014(3) 0.0730(4)
O2_2 O 0.7800(2) 0.5690(3) 0.0155(4)
O4_2 O 0.8092(2) 0.2718(3) 0.0016(3)
O13_2 O 0.7973(3) 0.6630(3) 0.1794(5)
O14_2 O 0.6985(3) 0.3429(4) 0.0791(6)
O15_2 O 0.6149(4) 0.3321(4) 0.0182(6)
O16_2 O 0.7221(3) 0.6112(4) 0.1116(4)
C1_2 C 0.8172(3) 0.5575(4) 0.0438(5)
C2_2 C 0.8342(3) 0.4909(4) 0.0464(5)
C3_2 C 0.8767(3) 0.4779(4) 0.0781(5)
H1_2 H 0.8941 0.5108 0.0970
C4_2 C 0.8931(3) 0.4162(4) 0.0817(5)
C5_2 C 0.8648(3) 0.3670(4) 0.0552(5)
H2_2 H 0.8747 0.3254 0.0587
C6_2 C 0.8239(3) 0.3792(4) 0.0251(5)
C7_2 C 0.8075(3) 0.4411(4) 0.0185(5)
C9_2 C 0.9360(3) 0.4024(4) 0.1120(5)
C10_2 C 0.9725(3) 0.3855(4) 0.1334(5)
C30_2 C 0.8305(5) 0.6747(5) 0.2161(8)
H10_2 H 0.8555 0.6884 0.1946
C31_2 C 0.8748(6) 0.6751(7) 0.3278(10)
H11_2 H 0.8997 0.6797 0.2998
H12_2 H 0.8787 0.6377 0.3556
H13_2 H 0.8730 0.7114 0.3572
C32_2 C 0.7938(6) 0.6631(7) 0.3180(9)
H14_2 H 0.7693 0.6588 0.2839
H15_2 H 0.7893 0.6998 0.3458
H16_2 H 0.7955 0.6262 0.3468
C33_2 C 0.7060(6) 0.3323(6) 0.1358(11)
H17_2 H 0.7362 0.3223 0.1426
C34_2 C 0.7149(6) 0.3266(7) 0.2609(9)
H18_2 H 0.7460 0.3282 0.2523
H19_2 H 0.7088 0.2880 0.2846
H20_2 H 0.7075 0.3620 0.2888
C35_2 C 0.6406(6) 0.3311(7) 0.2032(10)
H21_2 H 0.6311 0.3744 0.2044
H22_2 H 0.6338 0.3104 0.2452
H23_2 H 0.6253 0.3101 0.1647
C37_2 C 0.5474(7) 0.3271(7) 0.0995(12)
H25_2 H 0.5194 0.3300 0.1206
H26_2 H 0.5654 0.3634 0.1119
H27_2 H 0.5628 0.2894 0.1151
H29 H 0.4728 0.3205 0.0100
H30 H 0.4955 0.2538 0.0175
C39_2 C 0.6991(4) 0.5639(6) 0.1161(7)
H31_2 H 0.7073 0.5306 0.0885
C40_2 C 0.6443(5) 0.4874(7) 0.1478(8)
H32_2 H 0.6483 0.4702 0.1029
H33_2 H 0.6130 0.4902 0.1546
H34_2 H 0.6587 0.4604 0.1824
C41_2 C 0.6632(5) 0.5767(7) 0.2215(9)
H35_2 H 0.6783 0.6169 0.2237
H36_2 H 0.6780 0.5482 0.2542
H37_2 H 0.6327 0.5823 0.2324
N1_2 N 0.8346(5) 0.6698(5) 0.2847(8)
N2_2 N 0.6883(6) 0.3287(6) 0.1963(9)
N3_2 N 0.5391(6) 0.3247(6) 0.0253(10)
N4_2 N 0.6644(4) 0.5509(6) 0.1531(7)
Dy12_2 Dy 0.818770(13) 0.169700(15) 0.03652(2)
O43_2 O 0.82885(19) 0.7561(2) 0.0878(3)
Dy2_2 Dy 0.681230(13) 0.330300(15) 0.96348(2)
O3_2 O 0.7573(2) 0.3401(3) 0.9689(4)
O9_2 O 0.6462(3) 0.4097(3) 0.8930(4)
O10_2 O 0.6910(2) 0.4449(3) 0.9737(4)
O11_2 O 0.7156(2) 0.6841(3) 0.9814(4)
O12_2 O 0.67115(19) 0.7439(2) 0.9122(3)
H3_2 H 0.7795 0.4491 0.9962
C8_2 C 0.7945(3) 0.3257(4) 0.9956(6)
C21_2 C 0.6620(4) 0.4553(5) 0.9270(6)
C22_2 C 0.6477(3) 0.5196(4) 0.9072(6)
C23_2 C 0.6723(3) 0.5732(4) 0.9327(5)
H7_2 H 0.6979 0.5677 0.9621
C24_2 C 0.6580(3) 0.6348(4) 0.9132(5)
C25_2 C 0.6177(3) 0.6429(4) 0.8733(5)
H8_2 H 0.6069 0.6834 0.8633
C26_2 C 0.5932(3) 0.5894(4) 0.8481(6)
C27_2 C 0.6087(3) 0.5287(4) 0.8664(5)
H9_2 H 0.5923 0.4936 0.8506
C28_2 C 0.5545(3) 0.5965(4) 0.8036(6)
C29_2 C 0.5190(3) 0.5981(4) 0.7718(6)
C36_2 C 0.5768(7) 0.3203(7) 0.9917(11)
H24_2 H 0.5742 0.3075 0.9458
C38_2 C 0.4978(6) 0.2953(9) 0.9981(10)
H28_2 H 0.4978 0.2922 0.9488
C42_2 C 0.6835(3) 0.6903(4) 0.9378(5)
O17_2 O 0.3538(3) 0.4097(3) 0.6070(4)
O18_2 O 0.3090(2) 0.4449(3) 0.5263(4)
O19_2 O 0.2844(2) 0.6841(3) 0.5186(4)
O20_2 O 0.32885(19) 0.7439(2) 0.5878(3)
C43_2 C 0.3380(4) 0.4553(5) 0.5730(6)
C44_2 C 0.3523(3) 0.5196(4) 0.5928(6)
C45_2 C 0.3277(3) 0.5732(4) 0.5673(5)
H38_2 H 0.3021 0.5677 0.5379
C46_2 C 0.3420(3) 0.6348(4) 0.5868(5)
C47_2 C 0.3823(3) 0.6429(4) 0.6267(5)
H39_2 H 0.3931 0.6834 0.6367
C48_2 C 0.4068(3) 0.5894(4) 0.6519(6)
C49_2 C 0.3913(3) 0.5287(4) 0.6336(5)
H40_2 H 0.4077 0.4936 0.6494
C50_2 C 0.4455(3) 0.5965(4) 0.6964(6)
C51_2 C 0.4810(3) 0.5981(4) 0.7282(6)
C52_2 C 0.3165(3) 0.6903(4) 0.5622(5)
Dy4_2 Dy 0.318770(13) 0.330300(15) 0.53652(2)
O21_2 O 0.1597(2) 0.6014(3) 0.4270(4)
O22_2 O 0.2200(2) 0.5690(3) 0.4845(4)
O23_2 O 0.2427(2) 0.3401(3) 0.5311(4)
O24_2 O 0.1908(2) 0.2718(3) 0.4984(3)
O29_2 O 0.2027(3) 0.6630(3) 0.3206(5)
O30_2 O 0.3015(3) 0.3429(4) 0.4209(6)
O31_2 O 0.3851(4) 0.3321(4) 0.4818(6)
O32_2 O 0.2779(3) 0.6112(4) 0.3884(4)
C53_2 C 0.1828(3) 0.5575(4) 0.4562(5)
C54_2 C 0.1658(3) 0.4909(4) 0.4536(5)
C55_2 C 0.1233(3) 0.4779(4) 0.4219(5)
H41_2 H 0.1059 0.5108 0.4030
C56_2 C 0.1069(3) 0.4162(4) 0.4183(5)
C57_2 C 0.1352(3) 0.3670(4) 0.4448(5)
H42_2 H 0.1253 0.3254 0.4413
C58_2 C 0.1761(3) 0.3792(4) 0.4749(5)
C59_2 C 0.1925(3) 0.4411(4) 0.4815(5)
H43_2 H 0.2205 0.4491 0.5038
C60_2 C 0.2055(3) 0.3257(4) 0.5044(6)
C61_2 C 0.0640(3) 0.4024(4) 0.3880(5)
C62_2 C 0.0275(3) 0.3855(4) 0.3666(5)
C73_2 C 0.1695(5) 0.6747(5) 0.2839(8)
H47_2 H 0.1445 0.6884 0.3054
C74_2 C 0.1252(6) 0.6751(7) 0.1722(10)
H48_2 H 0.1003 0.6797 0.2002
H49_2 H 0.1213 0.6377 0.1444
H50_2 H 0.1270 0.7114 0.1428
C75_2 C 0.2062(6) 0.6631(7) 0.1820(9)
H51_2 H 0.2307 0.6588 0.2161
H52_2 H 0.2107 0.6998 0.1542
H53_2 H 0.2045 0.6262 0.1532
C76_2 C 0.2940(6) 0.3323(6) 0.3642(11)
H54_2 H 0.2638 0.3223 0.3574
C77_2 C 0.2851(6) 0.3266(7) 0.2391(9)
H55_2 H 0.2540 0.3282 0.2477
H56_2 H 0.2912 0.2880 0.2154
H57_2 H 0.2925 0.3620 0.2112
C78_2 C 0.3594(6) 0.3311(7) 0.2968(10)
H58_2 H 0.3689 0.3744 0.2956
H59_2 H 0.3662 0.3104 0.2548
H60_2 H 0.3747 0.3101 0.3353
C79_2 C 0.4232(7) 0.3203(7) 0.5083(11)
H61_2 H 0.4258 0.3075 0.5542
C80_2 C 0.4526(7) 0.3271(7) 0.4005(12)
H62_2 H 0.4806 0.3300 0.3794
H63_2 H 0.4346 0.3634 0.3881
H64_2 H 0.4372 0.2894 0.3849
C81_2 C 0.5022(6) 0.2953(9) 0.5019(10)
H65_2 H 0.5022 0.2922 0.5512
H66_2 H 0.5272 0.3205 0.4900
H67_2 H 0.5045 0.2538 0.4825
C82_2 C 0.3009(4) 0.5639(6) 0.3839(7)
H68_2 H 0.2927 0.5306 0.4115
C83_2 C 0.3557(5) 0.4874(7) 0.3522(8)
H69_2 H 0.3517 0.4702 0.3971
H70_2 H 0.3870 0.4902 0.3454
H71_2 H 0.3413 0.4604 0.3176
C84_2 C 0.3368(5) 0.5767(7) 0.2785(9)
H72_2 H 0.3217 0.6169 0.2763
H73_2 H 0.3220 0.5482 0.2458
H74_2 H 0.3673 0.5823 0.2676
N5_2 N 0.1654(5) 0.6698(5) 0.2153(8)
N6_2 N 0.3117(6) 0.3287(6) 0.3037(9)
N7_2 N 0.4609(6) 0.3247(6) 0.4747(10)
N8_2 N 0.3356(4) 0.5509(6) 0.3469(7)
O33_2 O 0.6908(2) 0.2282(3) 0.9984(3)
O34_2 O 0.3092(2) 0.2282(3) 0.5016(3)
O35_2 O 0.37220(18) 0.2771(3) 0.6187(3)
O36_2 O 0.62780(18) 0.2771(3) 0.8813(3)
O37_2 O 0.30408(18) 0.2915(3) 0.6485(3)
O38_2 O 0.69592(18) 0.2915(3) 0.8515(3)
O39_2 O 0.81114(18) 0.6912(3) 0.9553(3)
O40_2 O 0.18886(18) 0.6912(3) 0.5447(3)
O44_2 O 0.17115(19) 0.7561(2) 0.4122(3)
O25_2 O 0.87220(18) 0.2229(3) 0.1187(3)
O26_2 O 0.80408(18) 0.2085(3) 0.1485(3)
O27_2 O 0.81114(18) 0.3088(3) 0.4553(3)
C63_2 C 0.9857(3) 0.3636(4) 0.3426(5)
C64_2 C 0.9498(3) 0.3415(4) 0.3247(5)
C65_2 C 0.9079(3) 0.3153(4) 0.3067(5)
C66_2 C 0.8962(3) 0.2877(4) 0.2435(4)
H44_2 H 0.9161 0.2897 0.2088
C67_2 C 0.8555(3) 0.2571(4) 0.2307(4)
C68_2 C 0.8249(3) 0.2553(4) 0.2821(4)
H45_2 H 0.7976 0.2349 0.2733
C69_2 C 0.8346(3) 0.2838(4) 0.3466(4)
C70_2 C 0.8763(3) 0.3125(4) 0.3593(5)
H46_2 H 0.8839 0.3301 0.4024
C71_2 C 0.8431(3) 0.2275(4) 0.1613(4)
C72_2 C 0.8017(3) 0.2794(4) 0.3993(4)
C38_3 C 0.0022(6) 0.2047(9) 0.0019(10)
H28_3 H 0.0022 0.2078 0.0512
O17_3 O 0.1462(3) 0.0903(3) 0.3930(4)
O18_3 O 0.1910(2) 0.0551(3) 0.4737(4)
C43_3 C 0.1620(4) 0.0447(5) 0.4270(6)
H40_3 H 0.0923 0.0064 0.3506
O23_3 O 0.2573(2) 0.1599(3) 0.4689(4)
O28_2 O 0.73127(17) 0.2545(2) 0.6132(3)
O30_3 O 0.1985(3) 0.1571(4) 0.5791(6)
O31_3 O 0.1149(4) 0.1679(4) 0.5182(6)
C54_3 C 0.3342(3) 0.0091(4) 0.5464(5)
C55_3 C 0.3767(3) 0.0221(4) 0.5781(5)
C56_3 C 0.3931(3) 0.0838(4) 0.5817(5)
C57_3 C 0.3648(3) 0.1330(4) 0.5552(5)
H42_3 H 0.3747 0.1746 0.5587
C58_3 C 0.3239(3) 0.1208(4) 0.5251(5)
C59_3 C 0.3075(3) 0.0589(4) 0.5185(5)
H43_3 H 0.2795 0.0509 0.4962
C60_3 C 0.2945(3) 0.1743(4) 0.4956(6)
C61_3 C 0.4360(3) 0.0976(4) 0.6120(5)
C62_3 C 0.4725(3) 0.1145(4) 0.6334(5)
C63_3 C 0.5143(3) 0.1364(4) 0.6574(5)
C64_3 C 0.5502(3) 0.1585(4) 0.6753(5)
C65_3 C 0.5921(3) 0.1847(4) 0.6933(5)
C66_3 C 0.6038(3) 0.2123(4) 0.7565(4)
H44_3 H 0.5839 0.2103 0.7912
C67_3 C 0.6445(3) 0.2429(4) 0.7693(4)
C68_3 C 0.6751(3) 0.2447(4) 0.7179(4)
H45_3 H 0.7024 0.2651 0.7267
C69_3 C 0.6654(3) 0.2162(4) 0.6534(4)
C70_3 C 0.6237(3) 0.1875(4) 0.6407(5)
H46_3 H 0.6161 0.1699 0.5976
C71_3 C 0.6569(3) 0.2725(4) 0.8387(4)
C72_3 C 0.6983(3) 0.2206(4) 0.6007(4)
C76_3 C 0.2060(6) 0.1677(6) 0.6358(11)
H54_3 H 0.2362 0.1777 0.6426
C77_3 C 0.2149(6) 0.1734(7) 0.7609(9)
H55_3 H 0.2460 0.1718 0.7523
H56_3 H 0.2088 0.2120 0.7846
H57_3 H 0.2075 0.1380 0.7888
C78_3 C 0.1406(6) 0.1689(7) 0.7032(10)
H58_3 H 0.1311 0.1256 0.7044
H59_3 H 0.1338 0.1896 0.7452
H60_3 H 0.1253 0.1899 0.6647
C79_3 C 0.0768(7) 0.1797(7) 0.4917(11)
H61_3 H 0.0742 0.1925 0.4458
C80_3 C 0.0474(7) 0.1729(7) 0.5995(12)
H62_3 H 0.0194 0.1700 0.6206
H63_3 H 0.0654 0.1366 0.6119
H64_3 H 0.0628 0.2106 0.6151
C83_3 C 0.1443(5) 0.0126(7) 0.6478(8)
H69_3 H 0.1483 0.0298 0.6029
H70_3 H 0.1130 0.0098 0.6546
H71_3 H 0.1587 0.0396 0.6824
N6_3 N 0.1883(6) 0.1713(6) 0.6963(9)
N7_3 N 0.0391(6) 0.1753(6) 0.5253(10)
O19_3 O 0.2156(2) 0.8159(3) 0.4814(4)
C44_3 C 0.1477(3) 0.9804(4) 0.4072(6)
C45_3 C 0.1723(3) 0.9268(4) 0.4327(5)
H38_3 H 0.1979 0.9323 0.4621
C46_3 C 0.1580(3) 0.8652(4) 0.4132(5)
C47_3 C 0.1177(3) 0.8571(4) 0.3733(5)
H39_3 H 0.1069 0.8166 0.3633
C48_3 C 0.0932(3) 0.9106(4) 0.3481(6)
C49_3 C 0.1087(3) 0.9713(4) 0.3664(5)
C50_3 C 0.0545(3) 0.9035(4) 0.3036(6)
C51_3 C 0.0190(3) 0.9019(4) 0.2718(6)
C52_3 C 0.1835(3) 0.8097(4) 0.4378(5)
O21_3 O 0.3403(2) 0.8986(3) 0.5730(4)
O22_3 O 0.2800(2) 0.9310(3) 0.5155(4)
O29_3 O 0.2973(3) 0.8370(3) 0.6794(5)
O32_3 O 0.2221(3) 0.8888(4) 0.6116(4)
C53_3 C 0.3172(3) 0.9425(4) 0.5438(5)
H41_3 H 0.3941 0.9892 0.5970
C73_3 C 0.3305(5) 0.8253(5) 0.7161(8)
H47_3 H 0.3555 0.8116 0.6946
C74_3 C 0.3748(6) 0.8249(7) 0.8278(10)
H48_3 H 0.3997 0.8203 0.7998
H49_3 H 0.3787 0.8623 0.8556
H50_3 H 0.3730 0.7886 0.8572
C75_3 C 0.2938(6) 0.8369(7) 0.8180(9)
H51_3 H 0.2693 0.8412 0.7839
H52_3 H 0.2893 0.8002 0.8458
H53_3 H 0.2955 0.8738 0.8468
C82_3 C 0.1991(4) 0.9361(6) 0.6161(7)
H68_3 H 0.2073 0.9694 0.5885
C84_3 C 0.1632(5) 0.9233(7) 0.7215(9)
H72_3 H 0.1783 0.8831 0.7237
H73_3 H 0.1780 0.9518 0.7542
H74_3 H 0.1327 0.9177 0.7324
N5_3 N 0.3346(5) 0.8302(5) 0.7847(8)
N8_3 N 0.1644(4) 0.9491(6) 0.6531(7)
O42_2 O 0.23127(17) 0.7545(2) 0.6132(3)
O3_3 O 0.7427(2) 0.1599(3) 0.0311(4)
O9_3 O 0.8538(3) 0.0903(3) 0.1070(4)
O10_3 O 0.8090(2) 0.0551(3) 0.0263(4)
H3_3 H 0.7205 0.0509 0.0038
C8_3 C 0.7055(3) 0.1743(4) 0.0044(6)
C21_3 C 0.8380(4) 0.0447(5) 0.0730(6)
H9_3 H 0.9077 0.0064 0.1494
C36_3 C 0.9232(7) 0.1797(7) 0.0083(11)
H24_3 H 0.9258 0.1925 0.0542
C81_3 C 0.9978(6) 0.2047(9) 0.4981(10)
H65_3 H 0.9978 0.2078 0.4488
H66_3 H 0.9728 0.1795 0.5100
H67_3 H 0.9955 0.2462 0.5175
O8_2 O 0.26873(17) 0.2545(2) 0.8868(3)
O14_3 O 0.8015(3) 0.1571(4) 0.9209(6)
O15_3 O 0.8851(4) 0.1679(4) 0.9818(6)
C2_3 C 0.6658(3) 0.0091(4) 0.9536(5)
C3_3 C 0.6233(3) 0.0221(4) 0.9219(5)
C4_3 C 0.6069(3) 0.0838(4) 0.9183(5)
C5_3 C 0.6352(3) 0.1330(4) 0.9448(5)
H2_3 H 0.6253 0.1746 0.9413
C6_3 C 0.6761(3) 0.1208(4) 0.9749(5)
C7_3 C 0.6925(3) 0.0589(4) 0.9815(5)
C9_3 C 0.5640(3) 0.0976(4) 0.8880(5)
C10_3 C 0.5275(3) 0.1145(4) 0.8666(5)
C11_3 C 0.4857(3) 0.1364(4) 0.8426(5)
C12_3 C 0.4498(3) 0.1585(4) 0.8247(5)
C13_3 C 0.4079(3) 0.1847(4) 0.8067(5)
C14_3 C 0.3962(3) 0.2123(4) 0.7435(4)
H4_3 H 0.4161 0.2103 0.7088
C15_3 C 0.3555(3) 0.2429(4) 0.7307(4)
C16_3 C 0.3249(3) 0.2447(4) 0.7821(4)
H5_3 H 0.2976 0.2651 0.7733
C17_3 C 0.3346(3) 0.2162(4) 0.8466(4)
C18_3 C 0.3763(3) 0.1875(4) 0.8593(5)
H6_3 H 0.3839 0.1699 0.9024
C19_3 C 0.3431(3) 0.2725(4) 0.6613(4)
C20_3 C 0.3017(3) 0.2206(4) 0.8993(4)
C33_3 C 0.7940(6) 0.1677(6) 0.8642(11)
H17_3 H 0.7638 0.1777 0.8574
C34_3 C 0.7851(6) 0.1734(7) 0.7391(9)
H18_3 H 0.7540 0.1718 0.7477
H19_3 H 0.7912 0.2120 0.7154
H20_3 H 0.7925 0.1380 0.7112
C35_3 C 0.8594(6) 0.1689(7) 0.7968(10)
H21_3 H 0.8689 0.1256 0.7956
H22_3 H 0.8662 0.1896 0.7548
H23_3 H 0.8747 0.1899 0.8353
C37_3 C 0.9526(7) 0.1729(7) 0.9005(12)
H25_3 H 0.9806 0.1700 0.8794
H26_3 H 0.9346 0.1366 0.8881
H27_3 H 0.9372 0.2106 0.8849
C40_3 C 0.8557(5) 0.0126(7) 0.8522(8)
H32_3 H 0.8517 0.0298 0.8971
H33_3 H 0.8870 0.0098 0.8454
H34_3 H 0.8413 0.0396 0.8176
N2_3 N 0.8117(6) 0.1713(6) 0.8037(9)
N3_3 N 0.9609(6) 0.1753(6) 0.9747(10)
O11_3 O 0.7844(2) 0.8159(3) 0.0186(4)
C22_3 C 0.8523(3) 0.9804(4) 0.0928(6)
C23_3 C 0.8277(3) 0.9268(4) 0.0673(5)
H7_3 H 0.8021 0.9323 0.0379
C24_3 C 0.8420(3) 0.8652(4) 0.0868(5)
C25_3 C 0.8823(3) 0.8571(4) 0.1267(5)
H8_3 H 0.8931 0.8166 0.1367
C26_3 C 0.9068(3) 0.9106(4) 0.1519(6)
C27_3 C 0.8913(3) 0.9713(4) 0.1336(5)
C28_3 C 0.9455(3) 0.9035(4) 0.1964(6)
C29_3 C 0.9810(3) 0.9019(4) 0.2282(6)
C42_3 C 0.8165(3) 0.8097(4) 0.0622(5)
O1_3 O 0.6597(2) 0.8986(3) 0.9270(4)
O2_3 O 0.7200(2) 0.9310(3) 0.9845(4)
O13_3 O 0.7027(3) 0.8370(3) 0.8206(5)
O16_3 O 0.7779(3) 0.8888(4) 0.8884(4)
C1_3 C 0.6828(3) 0.9425(4) 0.9562(5)
H1_3 H 0.6059 0.9892 0.9030
C30_3 C 0.6695(5) 0.8253(5) 0.7839(8)
H10_3 H 0.6445 0.8116 0.8054
C31_3 C 0.6252(6) 0.8249(7) 0.6722(10)
H11_3 H 0.6003 0.8203 0.7002
H12_3 H 0.6213 0.8623 0.6444
H13_3 H 0.6270 0.7886 0.6428
C32_3 C 0.7062(6) 0.8369(7) 0.6820(9)
H14_3 H 0.7307 0.8412 0.7161
H15_3 H 0.7107 0.8002 0.6542
H16_3 H 0.7045 0.8738 0.6532
C39_3 C 0.8009(4) 0.9361(6) 0.8839(7)
H31_3 H 0.7927 0.9694 0.9115
C41_3 C 0.8368(5) 0.9233(7) 0.7785(9)
H35_3 H 0.8217 0.8831 0.7763
H36_3 H 0.8220 0.9518 0.7458
H37_3 H 0.8673 0.9177 0.7676
N1_3 N 0.6654(5) 0.8302(5) 0.7153(8)
N4_3 N 0.8356(4) 0.9491(6) 0.8469(7)
O41_2 O 0.76873(17) 0.7545(2) 0.8868(3)
C63_4 C 0.0143(3) 0.6364(4) 0.6574(5)
C64_4 C 0.0502(3) 0.6585(4) 0.6753(5)
C65_4 C 0.0921(3) 0.6847(4) 0.6933(5)
C66_4 C 0.1038(3) 0.7123(4) 0.7565(4)
H44_4 H 0.0839 0.7103 0.7912
C67_4 C 0.1445(3) 0.7429(4) 0.7693(4)
C68_4 C 0.1751(3) 0.7447(4) 0.7179(4)
H45_4 H 0.2024 0.7651 0.7267
C69_4 C 0.1654(3) 0.7162(4) 0.6534(4)
C70_4 C 0.1237(3) 0.6875(4) 0.6407(5)
H46_4 H 0.1161 0.6699 0.5976
C71_4 C 0.1569(3) 0.7725(4) 0.8387(4)
C72_4 C 0.1983(3) 0.7206(4) 0.6007(4)
O3_4 O 0.2427(2) 0.6599(3) 0.0311(4)
O9_4 O 0.3538(3) 0.5903(3) 0.1070(4)
O10_4 O 0.3090(2) 0.5551(3) 0.0263(4)
O11_4 O 0.2844(2) 0.3159(3) 0.0186(4)
H3_4 H 0.2205 0.5509 0.0038
C8_4 C 0.2055(3) 0.6743(4) 0.0044(6)
C21_4 C 0.3380(4) 0.5447(5) 0.0730(6)
C22_4 C 0.3523(3) 0.4804(4) 0.0928(6)
C23_4 C 0.3277(3) 0.4268(4) 0.0673(5)
H7_4 H 0.3021 0.4323 0.0379
C24_4 C 0.3420(3) 0.3652(4) 0.0868(5)
C25_4 C 0.3823(3) 0.3571(4) 0.1267(5)
H8_4 H 0.3931 0.3166 0.1367
C26_4 C 0.4068(3) 0.4106(4) 0.1519(6)
C27_4 C 0.3913(3) 0.4713(4) 0.1336(5)
H9_4 H 0.4077 0.5064 0.1494
C28_4 C 0.4455(3) 0.4035(4) 0.1964(6)
C29_4 C 0.4810(3) 0.4019(4) 0.2282(6)
C36_4 C 0.4232(7) 0.6797(7) 0.0083(11)
H24_4 H 0.4258 0.6925 0.0542
C38_4 C 0.5022(6) 0.7047(9) 0.0019(10)
H28_4 H 0.5022 0.7078 0.0512
C42_4 C 0.3165(3) 0.3097(4) 0.0622(5)
O17_4 O 0.6462(3) 0.5903(3) 0.3930(4)
O18_4 O 0.6910(2) 0.5551(3) 0.4737(4)
O19_4 O 0.7156(2) 0.3159(3) 0.4814(4)
C43_4 C 0.6620(4) 0.5447(5) 0.4270(6)
C44_4 C 0.6477(3) 0.4804(4) 0.4072(6)
C45_4 C 0.6723(3) 0.4268(4) 0.4327(5)
H38_4 H 0.6979 0.4323 0.4621
C46_4 C 0.6580(3) 0.3652(4) 0.4132(5)
C47_4 C 0.6177(3) 0.3571(4) 0.3733(5)
H39_4 H 0.6069 0.3166 0.3633
C48_4 C 0.5932(3) 0.4106(4) 0.3481(6)
C49_4 C 0.6087(3) 0.4713(4) 0.3664(5)
H40_4 H 0.5923 0.5064 0.3506
C50_4 C 0.5545(3) 0.4035(4) 0.3036(6)
C51_4 C 0.5190(3) 0.4019(4) 0.2718(6)
C52_4 C 0.6835(3) 0.3097(4) 0.4378(5)
O21_4 O 0.8403(2) 0.3986(3) 0.5730(4)
O22_4 O 0.7800(2) 0.4310(3) 0.5155(4)
O23_4 O 0.7573(2) 0.6599(3) 0.4689(4)
O29_4 O 0.7973(3) 0.3370(3) 0.6794(5)
O30_4 O 0.6985(3) 0.6571(4) 0.5791(6)
O31_4 O 0.6149(4) 0.6679(4) 0.5182(6)
O32_4 O 0.7221(3) 0.3888(4) 0.6116(4)
C53_4 C 0.8172(3) 0.4425(4) 0.5438(5)
C54_4 C 0.8342(3) 0.5091(4) 0.5464(5)
C55_4 C 0.8767(3) 0.5221(4) 0.5781(5)
H41_4 H 0.8941 0.4892 0.5970
C56_4 C 0.8931(3) 0.5838(4) 0.5817(5)
C57_4 C 0.8648(3) 0.6330(4) 0.5552(5)
H42_4 H 0.8747 0.6746 0.5587
C58_4 C 0.8239(3) 0.6208(4) 0.5251(5)
C59_4 C 0.8075(3) 0.5589(4) 0.5185(5)
H43_4 H 0.7795 0.5509 0.4962
C60_4 C 0.7945(3) 0.6743(4) 0.4956(6)
C61_4 C 0.9360(3) 0.5976(4) 0.6120(5)
C62_4 C 0.9725(3) 0.6145(4) 0.6334(5)
C73_4 C 0.8305(5) 0.3253(5) 0.7161(8)
H47_4 H 0.8555 0.3116 0.6946
C74_4 C 0.8748(6) 0.3249(7) 0.8278(10)
H48_4 H 0.8997 0.3203 0.7998
H49_4 H 0.8787 0.3623 0.8556
H50_4 H 0.8730 0.2886 0.8572
C75_4 C 0.7938(6) 0.3369(7) 0.8180(9)
H51_4 H 0.7693 0.3412 0.7839
H52_4 H 0.7893 0.3002 0.8458
H53_4 H 0.7955 0.3738 0.8468
C76_4 C 0.7060(6) 0.6677(6) 0.6358(11)
H54_4 H 0.7362 0.6777 0.6426
C77_4 C 0.7149(6) 0.6734(7) 0.7609(9)
H55_4 H 0.7460 0.6718 0.7523
H56_4 H 0.7088 0.7120 0.7846
H57_4 H 0.7075 0.6380 0.7888
C78_4 C 0.6406(6) 0.6689(7) 0.7032(10)
H58_4 H 0.6311 0.6256 0.7044
H59_4 H 0.6338 0.6896 0.7452
H60_4 H 0.6253 0.6899 0.6647
C79_4 C 0.5768(7) 0.6797(7) 0.4917(11)
H61_4 H 0.5742 0.6925 0.4458
C80_4 C 0.5474(7) 0.6729(7) 0.5995(12)
H62_4 H 0.5194 0.6700 0.6206
H63_4 H 0.5654 0.6366 0.6119
H64_4 H 0.5628 0.7106 0.6151
C81_4 C 0.4978(6) 0.7047(9) 0.4981(10)
H65_4 H 0.4978 0.7078 0.4488
H66_4 H 0.4728 0.6795 0.5100
H67_4 H 0.4955 0.7462 0.5175
C82_4 C 0.6991(4) 0.4361(6) 0.6161(7)
H68_4 H 0.7073 0.4694 0.5885
C83_4 C 0.6443(5) 0.5126(7) 0.6478(8)
H69_4 H 0.6483 0.5298 0.6029
H70_4 H 0.6130 0.5098 0.6546
H71_4 H 0.6587 0.5396 0.6824
C84_4 C 0.6632(5) 0.4233(7) 0.7215(9)
H72_4 H 0.6783 0.3831 0.7237
H73_4 H 0.6780 0.4518 0.7542
H74_4 H 0.6327 0.4177 0.7324
N5_4 N 0.8346(5) 0.3302(5) 0.7847(8)
N6_4 N 0.6883(6) 0.6713(6) 0.6963(9)
N7_4 N 0.5391(6) 0.6753(6) 0.5253(10)
N8_4 N 0.6644(4) 0.4491(6) 0.6531(7)
O1_4 O 0.1597(2) 0.3986(3) 0.9270(4)
O2_4 O 0.2200(2) 0.4310(3) 0.9845(4)
O13_4 O 0.2027(3) 0.3370(3) 0.8206(5)
O14_4 O 0.3015(3) 0.6571(4) 0.9209(6)
O15_4 O 0.3851(4) 0.6679(4) 0.9818(6)
O16_4 O 0.2779(3) 0.3888(4) 0.8884(4)
C1_4 C 0.1828(3) 0.4425(4) 0.9562(5)
C2_4 C 0.1658(3) 0.5091(4) 0.9536(5)
C3_4 C 0.1233(3) 0.5221(4) 0.9219(5)
H1_4 H 0.1059 0.4892 0.9030
C4_4 C 0.1069(3) 0.5838(4) 0.9183(5)
C5_4 C 0.1352(3) 0.6330(4) 0.9448(5)
H2_4 H 0.1253 0.6746 0.9413
C6_4 C 0.1761(3) 0.6208(4) 0.9749(5)
C7_4 C 0.1925(3) 0.5589(4) 0.9815(5)
C9_4 C 0.0640(3) 0.5976(4) 0.8880(5)
C10_4 C 0.0275(3) 0.6145(4) 0.8666(5)
C30_4 C 0.1695(5) 0.3253(5) 0.7839(8)
H10_4 H 0.1445 0.3116 0.8054
C31_4 C 0.1252(6) 0.3249(7) 0.6722(10)
H11_4 H 0.1003 0.3203 0.7002
H12_4 H 0.1213 0.3623 0.6444
H13_4 H 0.1270 0.2886 0.6428
C32_4 C 0.2062(6) 0.3369(7) 0.6820(9)
H14_4 H 0.2307 0.3412 0.7161
H15_4 H 0.2107 0.3002 0.6542
H16_4 H 0.2045 0.3738 0.6532
C33_4 C 0.2940(6) 0.6677(6) 0.8642(11)
H17_4 H 0.2638 0.6777 0.8574
C34_4 C 0.2851(6) 0.6734(7) 0.7391(9)
H18_4 H 0.2540 0.6718 0.7477
H19_4 H 0.2912 0.7120 0.7154
H20_4 H 0.2925 0.6380 0.7112
C35_4 C 0.3594(6) 0.6689(7) 0.7968(10)
H21_4 H 0.3689 0.6256 0.7956
H22_4 H 0.3662 0.6896 0.7548
H23_4 H 0.3747 0.6899 0.8353
C37_4 C 0.4526(7) 0.6729(7) 0.9005(12)
H25_4 H 0.4806 0.6700 0.8794
H26_4 H 0.4346 0.6366 0.8881
H27_4 H 0.4372 0.7106 0.8849
H29_2 H 0.5272 0.6795 0.9900
H30_2 H 0.5045 0.7462 0.9825
C39_4 C 0.3009(4) 0.4361(6) 0.8839(7)
H31_4 H 0.2927 0.4694 0.9115
C40_4 C 0.3557(5) 0.5126(7) 0.8522(8)
H32_4 H 0.3517 0.5298 0.8971
H33_4 H 0.3870 0.5098 0.8454
H34_4 H 0.3413 0.5396 0.8176
C41_4 C 0.3368(5) 0.4233(7) 0.7785(9)
H35_4 H 0.3217 0.3831 0.7763
H36_4 H 0.3220 0.4518 0.7458
H37_4 H 0.3673 0.4177 0.7676
N1_4 N 0.1654(5) 0.3302(5) 0.7153(8)
N2_4 N 0.3117(6) 0.6713(6) 0.8037(9)
N3_4 N 0.4609(6) 0.6753(6) 0.9747(10)
N4_4 N 0.3356(4) 0.4491(6) 0.8469(7)
C11_4 C 0.9857(3) 0.6364(4) 0.8426(5)
C12_4 C 0.9498(3) 0.6585(4) 0.8247(5)
C13_4 C 0.9079(3) 0.6847(4) 0.8067(5)
C14_4 C 0.8962(3) 0.7123(4) 0.7435(4)
H4_4 H 0.9161 0.7103 0.7088
C15_4 C 0.8555(3) 0.7429(4) 0.7307(4)
C16_4 C 0.8249(3) 0.7447(4) 0.7821(4)
H5_4 H 0.7976 0.7651 0.7733
C17_4 C 0.8346(3) 0.7162(4) 0.8466(4)
C18_4 C 0.8763(3) 0.6875(4) 0.8593(5)
H6_4 H 0.8839 0.6699 0.9024
C19_4 C 0.8431(3) 0.7725(4) 0.6613(4)
C20_4 C 0.8017(3) 0.7206(4) 0.8993(4)
H29_3 H 0.9728 0.8205 0.0100
H30_3 H 0.9955 0.7538 0.0175
H29_4 H 0.0272 0.1795 0.9900
H30_4 H 0.0045 0.2462 0.9825
loop_
_geom_bond_atom_site_label_1
_geom_bond_atom_site_label_2
_geom_bond_site_symmetry_1
_geom_bond_site_symmetry_2
Dy1 O1 1_555 1_555
O1 C1 1_555 1_555
O2 Dy1 1_555 1_555
O13 Dy1 1_555 1_555
O16 Dy1 1_555 1_555
C1 O2 1_555 1_555
C30 O13 1_555 1_555
H10 C30 1_555 1_555
C31 H11 1_555 1_555
H12 C31 1_555 1_555
H13 C31 1_555 1_555
C32 H14 1_555 1_555
H15 C32 1_555 1_555
H16 C32 1_555 1_555
C39 O16 1_555 1_555
H31 C39 1_555 1_555
C41 H35 1_555 1_555
H36 C41 1_555 1_555
H37 C41 1_555 1_555
N1 C30 1_555 1_555
N4 C39 1_555 1_555
O41 Dy1 1_555 1_555
O43 Dy1 1_555 1_555
C31 N1 1_555 1_555
C32 N1 1_555 1_555
C41 N4 1_555 1_555
O12 C42 1_555 1_555
C23 C22 1_555 1_555
H7 C23 1_555 1_555
C24 C23 1_555 1_555
C25 C24 1_555 1_555
H8 C25 1_555 1_555
C26 C25 1_555 1_555
C27 C22 1_555 1_555
C28 C26 1_555 1_555
C29 C28 1_555 1_555
C42 O11 1_555 1_555
Dy9 O12 1_555 1_555
C24 C42 1_555 1_555
C26 C27 1_555 1_555
O5 C19 1_555 1_555
O6 C19 1_555 1_555
O7 C20 1_555 1_555
O8 C20 1_555 1_555
C3 C2 1_555 1_555
C4 C3 1_555 1_555
C5 C4 1_555 1_555
H2 C5 1_555 1_555
C6 C5 1_555 1_555
C7 C2 1_555 1_555
C9 C4 1_555 1_555
C10 C9 1_555 1_555
C11 C10 1_555 1_555
C12 C11 1_555 1_555
C13 C12 1_555 1_555
C14 C13 1_555 1_555
H4 C14 1_555 1_555
C15 C14 1_555 1_555
C16 C15 1_555 1_555
H5 C16 1_555 1_555
C17 C16 1_555 1_555
C18 C13 1_555 1_555
H6 C18 1_555 1_555
C19 C15 1_555 1_555
C20 C17 1_555 1_555
C33 O14 1_555 1_555
H17 C33 1_555 1_555
C34 H18 1_555 1_555
H19 C34 1_555 1_555
H20 C34 1_555 1_555
C35 H21 1_555 1_555
H22 C35 1_555 1_555
H23 C35 1_555 1_555
C37 H25 1_555 1_555
H26 C37 1_555 1_555
H27 C37 1_555 1_555
C40 H32 1_555 1_555
H33 C40 1_555 1_555
H34 C40 1_555 1_555
N2 C33 1_555 1_555
Dy5 O8 1_555 1_555
Dy12 O4 1_555 1_555
Dy14 O5 1_555 1_555
O6 Dy14 1_555 1_555
C6 C7 1_555 1_555
C17 C18 1_555 1_555
C34 N2 1_555 1_555
C35 N2 1_555 1_555
C37 N3 1_555 1_555
Dy2 O3 1_555 1_555
O3 C8 1_555 1_555
O9 Dy2 1_555 1_555
O10 Dy2 1_555 1_555
C21 O9 1_555 1_555
H24 C36 1_555 1_555
C81 H65 1_555 1_555
H66 C81 1_555 1_555
H67 C81 1_555 1_555
O33 Dy2 1_555 1_555
O36 Dy2 1_555 1_555
O38 Dy2 1_555 1_555
O10 C21 1_555 1_555
O19 C52 1_555 1_555
O20 C52 1_555 1_555
C44 C45 1_555 1_555
C45 H38 1_555 1_555
C46 C45 1_555 1_555
C47 C46 1_555 1_555
H39 C47 1_555 1_555
C48 C47 1_555 1_555
C49 C44 1_555 1_555
C50 C48 1_555 1_555
C52 C46 1_555 1_555
Dy3 O19 1_555 1_555
O21 Dy3 1_555 1_555
O22 Dy3 1_555 1_555
O29 Dy3 1_555 1_555
O32 Dy3 1_555 1_555
C53 O21 1_555 1_555
C73 O29 1_555 1_555
H47 C73 1_555 1_555
C74 H48 1_555 1_555
H49 C74 1_555 1_555
H50 C74 1_555 1_555
C75 H51 1_555 1_555
H52 C75 1_555 1_555
H53 C75 1_555 1_555
C82 O32 1_555 1_555
H68 C82 1_555 1_555
C84 H72 1_555 1_555
H73 C84 1_555 1_555
H74 C84 1_555 1_555
N5 C73 1_555 1_555
N8 C82 1_555 1_555
Dy10 O20 1_555 1_555
O40 Dy3 1_555 1_555
O42 Dy3 1_555 1_555
O44 Dy3 1_555 1_555
C48 C49 1_555 1_555
C50 C51 1_555 1_555
O22 C53 1_555 1_555
C74 N5 1_555 1_555
C75 N5 1_555 1_555
C84 N8 1_555 1_555
C38 H28 1_555 1_555
O17 C43 1_555 1_555
O18 C43 1_555 1_555
Dy4 O17 1_555 1_555
O23 Dy4 1_555 1_555
O24 C60 1_555 1_555
O25 C71 1_555 1_555
O26 C71 1_555 1_555
O27 C72 1_555 1_555
O28 C72 1_555 1_555
O30 Dy4 1_555 1_555
O31 Dy4 1_555 1_555
C55 C54 1_555 1_555
C56 C55 1_555 1_555
C57 C56 1_555 1_555
H42 C57 1_555 1_555
C58 C57 1_555 1_555
C59 C54 1_555 1_555
H43 C59 1_555 1_555
C60 O23 1_555 1_555
C61 C56 1_555 1_555
C62 C61 1_555 1_555
C63 C62 1_555 1_555
C64 C63 1_555 1_555
C65 C64 1_555 1_555
C66 C65 1_555 1_555
H44 C66 1_555 1_555
C67 C66 1_555 1_555
C68 C67 1_555 1_555
H45 C68 1_555 1_555
C69 C68 1_555 1_555
C70 C65 1_555 1_555
H46 C70 1_555 1_555
C71 C67 1_555 1_555
C72 C69 1_555 1_555
C76 O30 1_555 1_555
H54 C76 1_555 1_555
C77 H55 1_555 1_555
H56 C77 1_555 1_555
H57 C77 1_555 1_555
C78 H58 1_555 1_555
H59 C78 1_555 1_555
H60 C78 1_555 1_555
C79 O31 1_555 1_555
H61 C79 1_555 1_555
C80 H62 1_555 1_555
H63 C80 1_555 1_555
H64 C80 1_555 1_555
C83 H69 1_555 1_555
H70 C83 1_555 1_555
H71 C83 1_555 1_555
N6 C76 1_555 1_555
N7 C79 1_555 1_555
Dy6 O28 1_555 1_555
Dy8 O27 1_555 1_555
Dy12 O25 1_555 1_555
Dy14 O24 1_555 1_555
O34 Dy4 1_555 1_555
O35 Dy4 1_555 1_555
O37 Dy4 1_555 1_555
O18 Dy4 1_555 1_555
O26 Dy12 1_555 1_555
C58 C59 1_555 1_555
C58 C60 1_555 1_555
C69 C70 1_555 1_555
C77 N6 1_555 1_555
C78 N6 1_555 1_555
C80 N7 1_555 1_555
O5_2 C19_2 1_555 1_555
O6_2 C19_2 1_555 1_555
O7_2 C20_2 1_555 1_555
O41 C20_2 1_555 1_555
C12_2 C11_2 1_555 1_555
C13_2 C12_2 1_555 1_555
C14_2 C13_2 1_555 1_555
H4_2 C14_2 1_555 1_555
C15_2 C14_2 1_555 1_555
C16_2 C15_2 1_555 1_555
H5_2 C16_2 1_555 1_555
C17_2 C16_2 1_555 1_555
C18_2 C13_2 1_555 1_555
H6_2 C18_2 1_555 1_555
C19_2 C15_2 1_555 1_555
C20_2 C17_2 1_555 1_555
Dy14_2 O5_2 1_555 1_555
O6_2 Dy14_2 1_555 1_555
C17_2 C18_2 1_555 1_555
Dy5 O1_2 1_555 1_555
O1_2 C1_2 1_555 1_555
O2_2 Dy5 1_555 1_555
O13_2 Dy5 1_555 1_555
O16_2 Dy5 1_555 1_555
C1_2 O2_2 1_555 1_555
C2_2 C1_2 1_555 1_555
C3_2 C2_2 1_555 1_555
H1_2 C3_2 1_555 1_555
C4_2 C3_2 1_555 1_555
C5_2 C4_2 1_555 1_555
H2_2 C5_2 1_555 1_555
C6_2 C5_2 1_555 1_555
C7_2 C2_2 1_555 1_555
C9_2 C4_2 1_555 1_555
C10_2 C9_2 1_555 1_555
C30_2 O13_2 1_555 1_555
H10_2 C30_2 1_555 1_555
C31_2 H11_2 1_555 1_555
H12_2 C31_2 1_555 1_555
H13_2 C31_2 1_555 1_555
C32_2 H14_2 1_555 1_555
H15_2 C32_2 1_555 1_555
H16_2 C32_2 1_555 1_555
C33_2 O14_2 1_555 1_555
H17_2 C33_2 1_555 1_555
C34_2 H18_2 1_555 1_555
H19_2 C34_2 1_555 1_555
H20_2 C34_2 1_555 1_555
C35_2 H21_2 1_555 1_555
H22_2 C35_2 1_555 1_555
H23_2 C35_2 1_555 1_555
C37_2 H25_2 1_555 1_555
H26_2 C37_2 1_555 1_555
H27_2 C37_2 1_555 1_555
C39_2 O16_2 1_555 1_555
H31_2 C39_2 1_555 1_555
C40_2 H32_2 1_555 1_555
H33_2 C40_2 1_555 1_555
H34_2 C40_2 1_555 1_555
C41_2 H35_2 1_555 1_555
H36_2 C41_2 1_555 1_555
H37_2 C41_2 1_555 1_555
N1_2 C30_2 1_555 1_555
N2_2 C33_2 1_555 1_555
N4_2 C39_2 1_555 1_555
Dy12_2 O4_2 1_555 1_555
O43_2 Dy5 1_555 1_555
C6_2 C7_2 1_555 1_555
C31_2 N1_2 1_555 1_555
C32_2 N1_2 1_555 1_555
C34_2 N2_2 1_555 1_555
C35_2 N2_2 1_555 1_555
C37_2 N3_2 1_555 1_555
C40_2 N4_2 1_555 1_555
C41_2 N4_2 1_555 1_555
Dy2_2 O3_2 1_555 1_555
O3_2 C8_2 1_555 1_555
O9_2 Dy2_2 1_555 1_555
O10_2 Dy2_2 1_555 1_555
O12_2 C42_2 1_555 1_555
C21_2 O9_2 1_555 1_555
C22_2 C21_2 1_555 1_555
C23_2 C22_2 1_555 1_555
H7_2 C23_2 1_555 1_555
C24_2 C23_2 1_555 1_555
C25_2 C24_2 1_555 1_555
H8_2 C25_2 1_555 1_555
C26_2 C25_2 1_555 1_555
C27_2 C22_2 1_555 1_555
H9_2 C27_2 1_555 1_555
C28_2 C26_2 1_555 1_555
C29_2 C28_2 1_555 1_555
H24_2 C36_2 1_555 1_555
C38_2 H28_2 1_555 1_555
C42_2 O11_2 1_555 1_555
O17_2 C43_2 1_555 1_555
O18_2 C43_2 1_555 1_555
O19_2 C52_2 1_555 1_555
O20_2 C52_2 1_555 1_555
C43_2 C44_2 1_555 1_555
C44_2 C45_2 1_555 1_555
C45_2 H38_2 1_555 1_555
C46_2 C45_2 1_555 1_555
C47_2 C46_2 1_555 1_555
H39_2 C47_2 1_555 1_555
C48_2 C47_2 1_555 1_555
C49_2 C44_2 1_555 1_555
H40_2 C49_2 1_555 1_555
C50_2 C48_2 1_555 1_555
C51_2 C29_2 1_555 1_555
C52_2 C46_2 1_555 1_555
Dy6 O19_2 1_555 1_555
Dy4_2 O17_2 1_555 1_555
O21_2 Dy6 1_555 1_555
O22_2 Dy6 1_555 1_555
O23_2 Dy4_2 1_555 1_555
O24_2 C60_2 1_555 1_555
O29_2 Dy6 1_555 1_555
O30_2 Dy4_2 1_555 1_555
O31_2 Dy4_2 1_555 1_555
O32_2 Dy6 1_555 1_555
C53_2 O21_2 1_555 1_555
C54_2 C53_2 1_555 1_555
C55_2 C54_2 1_555 1_555
H41_2 C55_2 1_555 1_555
C56_2 C55_2 1_555 1_555
C57_2 C56_2 1_555 1_555
H42_2 C57_2 1_555 1_555
C58_2 C57_2 1_555 1_555
C59_2 C54_2 1_555 1_555
H43_2 C59_2 1_555 1_555
C60_2 O23_2 1_555 1_555
C61_2 C56_2 1_555 1_555
C62_2 C61_2 1_555 1_555
C73_2 O29_2 1_555 1_555
H47_2 C73_2 1_555 1_555
C74_2 H48_2 1_555 1_555
H49_2 C74_2 1_555 1_555
H50_2 C74_2 1_555 1_555
C75_2 H51_2 1_555 1_555
H52_2 C75_2 1_555 1_555
H53_2 C75_2 1_555 1_555
C76_2 O30_2 1_555 1_555
H54_2 C76_2 1_555 1_555
C77_2 H55_2 1_555 1_555
H56_2 C77_2 1_555 1_555
H57_2 C77_2 1_555 1_555
C78_2 H58_2 1_555 1_555
H59_2 C78_2 1_555 1_555
H60_2 C78_2 1_555 1_555
C79_2 O31_2 1_555 1_555
H61_2 C79_2 1_555 1_555
C80_2 H62_2 1_555 1_555
H63_2 C80_2 1_555 1_555
H64_2 C80_2 1_555 1_555
C81_2 H65_2 1_555 1_555
H66_2 C81_2 1_555 1_555
H67_2 C81_2 1_555 1_555
C82_2 O32_2 1_555 1_555
H68_2 C82_2 1_555 1_555
C83_2 H69_2 1_555 1_555
H70_2 C83_2 1_555 1_555
H71_2 C83_2 1_555 1_555
C84_2 H72_2 1_555 1_555
H73_2 C84_2 1_555 1_555
H74_2 C84_2 1_555 1_555
N5_2 C73_2 1_555 1_555
N6_2 C76_2 1_555 1_555
N7_2 C79_2 1_555 1_555
N8_2 C82_2 1_555 1_555
Dy7 O12_2 1_555 1_555
Dy8 O20_2 1_555 1_555
Dy14_2 O24_2 1_555 1_555
O33_2 Dy2_2 1_555 1_555
O34_2 Dy4_2 1_555 1_555
O35_2 Dy4_2 1_555 1_555
O36_2 Dy2_2 1_555 1_555
O37_2 Dy4_2 1_555 1_555
O38_2 Dy2_2 1_555 1_555
O40_2 Dy6 1_555 1_555
O44_2 Dy6 1_555 1_555
O10_2 C21_2 1_555 1_555
C24_2 C42_2 1_555 1_555
C26_2 C27_2 1_555 1_555
O18_2 Dy4_2 1_555 1_555
C48_2 C49_2 1_555 1_555
C50_2 C51_2 1_555 1_555
O22_2 C53_2 1_555 1_555
C58_2 C59_2 1_555 1_555
C58_2 C60_2 1_555 1_555
C74_2 N5_2 1_555 1_555
C75_2 N5_2 1_555 1_555
C77_2 N6_2 1_555 1_555
C78_2 N6_2 1_555 1_555
C80_2 N7_2 1_555 1_555
C81_2 N7_2 1_555 1_555
C83_2 N8_2 1_555 1_555
C84_2 N8_2 1_555 1_555
O25_2 C71_2 1_555 1_555
O26_2 C71_2 1_555 1_555
O27_2 C72_2 1_555 1_555
O42 C72_2 1_555 1_555
C64_2 C63_2 1_555 1_555
C65_2 C64_2 1_555 1_555
C66_2 C65_2 1_555 1_555
H44_2 C66_2 1_555 1_555
C67_2 C66_2 1_555 1_555
C68_2 C67_2 1_555 1_555
H45_2 C68_2 1_555 1_555
C69_2 C68_2 1_555 1_555
C70_2 C65_2 1_555 1_555
H46_2 C70_2 1_555 1_555
C71_2 C67_2 1_555 1_555
C72_2 C69_2 1_555 1_555
Dy10 O27_2 1_555 1_555
Dy12_2 O25_2 1_555 1_555
O26_2 Dy12_2 1_555 1_555
C69_2 C70_2 1_555 1_555
C38_3 H28_3 1_555 1_555
O17_3 C43_3 1_555 1_555
O18_3 C43_3 1_555 1_555
Dy14_2 O17_3 1_555 1_555
O23_3 Dy14_2 1_555 1_555
O34_2 C60_3 1_555 1_555
O36_2 C71_3 1_555 1_555
O38_2 C71_3 1_555 1_555
O40 C72_3 1_555 1_555
O28_2 C72_3 1_555 1_555
O30_3 Dy14_2 1_555 1_555
O31_3 Dy14_2 1_555 1_555
C55_3 C54_3 1_555 1_555
C56_3 C55_3 1_555 1_555
C57_3 C56_3 1_555 1_555
H42_3 C57_3 1_555 1_555
C58_3 C57_3 1_555 1_555
C59_3 C54_3 1_555 1_555
H43_3 C59_3 1_555 1_555
C60_3 O23_3 1_555 1_555
C61_3 C56_3 1_555 1_555
C62_3 C61_3 1_555 1_555
C63_3 C62_3 1_555 1_555
C64_3 C63_3 1_555 1_555
C65_3 C64_3 1_555 1_555
C66_3 C65_3 1_555 1_555
H44_3 C66_3 1_555 1_555
C67_3 C66_3 1_555 1_555
C68_3 C67_3 1_555 1_555
H45_3 C68_3 1_555 1_555
C69_3 C68_3 1_555 1_555
C70_3 C65_3 1_555 1_555
H46_3 C70_3 1_555 1_555
C71_3 C67_3 1_555 1_555
C72_3 C69_3 1_555 1_555
C76_3 O30_3 1_555 1_555
H54_3 C76_3 1_555 1_555
C77_3 H55_3 1_555 1_555
H56_3 C77_3 1_555 1_555
H57_3 C77_3 1_555 1_555
C78_3 H58_3 1_555 1_555
H59_3 C78_3 1_555 1_555
H60_3 C78_3 1_555 1_555
C79_3 O31_3 1_555 1_555
H61_3 C79_3 1_555 1_555
C80_3 H62_3 1_555 1_555
H63_3 C80_3 1_555 1_555
H64_3 C80_3 1_555 1_555
C83_3 H69_3 1_555 1_555
H70_3 C83_3 1_555 1_555
H71_3 C83_3 1_555 1_555
N6_3 C76_3 1_555 1_555
N7_3 C79_3 1_555 1_555
Dy10 O28_2 1_555 1_555
O18_3 Dy14_2 1_555 1_555
C58_3 C59_3 1_555 1_555
C58_3 C60_3 1_555 1_555
C69_3 C70_3 1_555 1_555
C77_3 N6_3 1_555 1_555
C78_3 N6_3 1_555 1_555
C80_3 N7_3 1_555 1_555
O19_3 C52_3 1_555 1_555
O44_2 C52_3 1_555 1_555
C44_3 C45_3 1_555 1_555
C45_3 H38_3 1_555 1_555
C46_3 C45_3 1_555 1_555
C47_3 C46_3 1_555 1_555
H39_3 C47_3 1_555 1_555
C48_3 C47_3 1_555 1_555
C49_3 C44_3 1_555 1_555
C50_3 C48_3 1_555 1_555
C52_3 C46_3 1_555 1_555
Dy8 O19_3 1_555 1_555
O21_3 Dy8 1_555 1_555
O22_3 Dy8 1_555 1_555
O29_3 Dy8 1_555 1_555
O32_3 Dy8 1_555 1_555
C53_3 O21_3 1_555 1_555
C73_3 O29_3 1_555 1_555
H47_3 C73_3 1_555 1_555
C74_3 H48_3 1_555 1_555
H49_3 C74_3 1_555 1_555
H50_3 C74_3 1_555 1_555
C75_3 H51_3 1_555 1_555
H52_3 C75_3 1_555 1_555
H53_3 C75_3 1_555 1_555
C82_3 O32_3 1_555 1_555
H68_3 C82_3 1_555 1_555
C84_3 H72_3 1_555 1_555
H73_3 C84_3 1_555 1_555
H74_3 C84_3 1_555 1_555
N5_3 C73_3 1_555 1_555
N8_3 C82_3 1_555 1_555
O42_2 Dy8 1_555 1_555
C48_3 C49_3 1_555 1_555
C50_3 C51_3 1_555 1_555
O22_3 C53_3 1_555 1_555
C74_3 N5_3 1_555 1_555
C75_3 N5_3 1_555 1_555
C84_3 N8_3 1_555 1_555
Dy12_2 O3_3 1_555 1_555
O3_3 C8_3 1_555 1_555
O9_3 Dy12_2 1_555 1_555
O10_3 Dy12_2 1_555 1_555
C21_3 O9_3 1_555 1_555
H24_3 C36_3 1_555 1_555
C81_3 H65_3 1_555 1_555
H66_3 C81_3 1_555 1_555
H67_3 C81_3 1_555 1_555
O10_3 C21_3 1_555 1_555
O35_2 C19_3 1_555 1_555
O37_2 C19_3 1_555 1_555
O39 C20_3 1_555 1_555
O8_2 C20_3 1_555 1_555
C3_3 C2_3 1_555 1_555
C4_3 C3_3 1_555 1_555
C5_3 C4_3 1_555 1_555
H2_3 C5_3 1_555 1_555
C6_3 C5_3 1_555 1_555
C7_3 C2_3 1_555 1_555
C9_3 C4_3 1_555 1_555
C10_3 C9_3 1_555 1_555
C11_3 C10_3 1_555 1_555
C12_3 C11_3 1_555 1_555
C13_3 C12_3 1_555 1_555
C14_3 C13_3 1_555 1_555
H4_3 C14_3 1_555 1_555
C15_3 C14_3 1_555 1_555
C16_3 C15_3 1_555 1_555
H5_3 C16_3 1_555 1_555
C17_3 C16_3 1_555 1_555
C18_3 C13_3 1_555 1_555
H6_3 C18_3 1_555 1_555
C19_3 C15_3 1_555 1_555
C20_3 C17_3 1_555 1_555
C33_3 O14_3 1_555 1_555
H17_3 C33_3 1_555 1_555
C34_3 H18_3 1_555 1_555
H19_3 C34_3 1_555 1_555
H20_3 C34_3 1_555 1_555
C35_3 H21_3 1_555 1_555
H22_3 C35_3 1_555 1_555
H23_3 C35_3 1_555 1_555
C37_3 H25_3 1_555 1_555
H26_3 C37_3 1_555 1_555
H27_3 C37_3 1_555 1_555
C40_3 H32_3 1_555 1_555
H33_3 C40_3 1_555 1_555
H34_3 C40_3 1_555 1_555
N2_3 C33_3 1_555 1_555
Dy9 O8_2 1_555 1_555
C6_3 C7_3 1_555 1_555
C17_3 C18_3 1_555 1_555
C34_3 N2_3 1_555 1_555
C35_3 N2_3 1_555 1_555
C37_3 N3_3 1_555 1_555
O43_2 C42_3 1_555 1_555
C23_3 C22_3 1_555 1_555
H7_3 C23_3 1_555 1_555
C24_3 C23_3 1_555 1_555
C25_3 C24_3 1_555 1_555
H8_3 C25_3 1_555 1_555
C26_3 C25_3 1_555 1_555
C27_3 C22_3 1_555 1_555
C28_3 C26_3 1_555 1_555
C29_3 C28_3 1_555 1_555
C42_3 O11_3 1_555 1_555
C24_3 C42_3 1_555 1_555
C26_3 C27_3 1_555 1_555
Dy7 O1_3 1_555 1_555
O1_3 C1_3 1_555 1_555
O2_3 Dy7 1_555 1_555
O13_3 Dy7 1_555 1_555
O16_3 Dy7 1_555 1_555
C1_3 O2_3 1_555 1_555
C30_3 O13_3 1_555 1_555
H10_3 C30_3 1_555 1_555
C31_3 H11_3 1_555 1_555
H12_3 C31_3 1_555 1_555
H13_3 C31_3 1_555 1_555
C32_3 H14_3 1_555 1_555
H15_3 C32_3 1_555 1_555
H16_3 C32_3 1_555 1_555
C39_3 O16_3 1_555 1_555
H31_3 C39_3 1_555 1_555
C41_3 H35_3 1_555 1_555
H36_3 C41_3 1_555 1_555
H37_3 C41_3 1_555 1_555
N1_3 C30_3 1_555 1_555
N4_3 C39_3 1_555 1_555
O41_2 Dy7 1_555 1_555
C31_3 N1_3 1_555 1_555
C32_3 N1_3 1_555 1_555
C41_3 N4_3 1_555 1_555
O36 C71_4 1_555 1_555
O38 C71_4 1_555 1_555
O40_2 C72_4 1_555 1_555
O42_2 C72_4 1_555 1_555
C64_4 C63_4 1_555 1_555
C65_4 C64_4 1_555 1_555
C66_4 C65_4 1_555 1_555
H44_4 C66_4 1_555 1_555
C67_4 C66_4 1_555 1_555
C68_4 C67_4 1_555 1_555
H45_4 C68_4 1_555 1_555
C69_4 C68_4 1_555 1_555
C70_4 C65_4 1_555 1_555
H46_4 C70_4 1_555 1_555
C71_4 C67_4 1_555 1_555
C72_4 C69_4 1_555 1_555
C69_4 C70_4 1_555 1_555
Dy12 O3_4 1_555 1_555
O3_4 C8_4 1_555 1_555
O9_4 Dy12 1_555 1_555
O10_4 Dy12 1_555 1_555
O43 C42_4 1_555 1_555
C21_4 O9_4 1_555 1_555
C22_4 C21_4 1_555 1_555
C23_4 C22_4 1_555 1_555
H7_4 C23_4 1_555 1_555
C24_4 C23_4 1_555 1_555
C25_4 C24_4 1_555 1_555
H8_4 C25_4 1_555 1_555
C26_4 C25_4 1_555 1_555
C27_4 C22_4 1_555 1_555
H9_4 C27_4 1_555 1_555
C28_4 C26_4 1_555 1_555
C29_4 C28_4 1_555 1_555
H24_4 C36_4 1_555 1_555
C38_4 H28_4 1_555 1_555
C42_4 O11_4 1_555 1_555
O17_4 C43_4 1_555 1_555
O18_4 C43_4 1_555 1_555
O19_4 C52_4 1_555 1_555
O44 C52_4 1_555 1_555
C43_4 C44_4 1_555 1_555
C44_4 C45_4 1_555 1_555
C45_4 H38_4 1_555 1_555
C46_4 C45_4 1_555 1_555
C47_4 C46_4 1_555 1_555
H39_4 C47_4 1_555 1_555
C48_4 C47_4 1_555 1_555
C49_4 C44_4 1_555 1_555
H40_4 C49_4 1_555 1_555
C50_4 C48_4 1_555 1_555
C51_4 C29_4 1_555 1_555
C52_4 C46_4 1_555 1_555
Dy10 O19_4 1_555 1_555
Dy14 O17_4 1_555 1_555
O21_4 Dy10 1_555 1_555
O22_4 Dy10 1_555 1_555
O23_4 Dy14 1_555 1_555
O34 C60_4 1_555 1_555
O29_4 Dy10 1_555 1_555
O30_4 Dy14 1_555 1_555
O31_4 Dy14 1_555 1_555
O32_4 Dy10 1_555 1_555
C53_4 O21_4 1_555 1_555
C54_4 C53_4 1_555 1_555
C55_4 C54_4 1_555 1_555
H41_4 C55_4 1_555 1_555
C56_4 C55_4 1_555 1_555
C57_4 C56_4 1_555 1_555
H42_4 C57_4 1_555 1_555
C58_4 C57_4 1_555 1_555
C59_4 C54_4 1_555 1_555
H43_4 C59_4 1_555 1_555
C60_4 O23_4 1_555 1_555
C61_4 C56_4 1_555 1_555
C62_4 C61_4 1_555 1_555
C73_4 O29_4 1_555 1_555
H47_4 C73_4 1_555 1_555
C74_4 H48_4 1_555 1_555
H49_4 C74_4 1_555 1_555
H50_4 C74_4 1_555 1_555
C75_4 H51_4 1_555 1_555
H52_4 C75_4 1_555 1_555
H53_4 C75_4 1_555 1_555
C76_4 O30_4 1_555 1_555
H54_4 C76_4 1_555 1_555
C77_4 H55_4 1_555 1_555
H56_4 C77_4 1_555 1_555
H57_4 C77_4 1_555 1_555
C78_4 H58_4 1_555 1_555
H59_4 C78_4 1_555 1_555
H60_4 C78_4 1_555 1_555
C79_4 O31_4 1_555 1_555
H61_4 C79_4 1_555 1_555
C80_4 H62_4 1_555 1_555
H63_4 C80_4 1_555 1_555
H64_4 C80_4 1_555 1_555
C81_4 H65_4 1_555 1_555
H66_4 C81_4 1_555 1_555
H67_4 C81_4 1_555 1_555
C82_4 O32_4 1_555 1_555
H68_4 C82_4 1_555 1_555
C83_4 H69_4 1_555 1_555
H70_4 C83_4 1_555 1_555
H71_4 C83_4 1_555 1_555
C84_4 H72_4 1_555 1_555
H73_4 C84_4 1_555 1_555
H74_4 C84_4 1_555 1_555
N5_4 C73_4 1_555 1_555
N6_4 C76_4 1_555 1_555
N7_4 C79_4 1_555 1_555
N8_4 C82_4 1_555 1_555
O10_4 C21_4 1_555 1_555
C24_4 C42_4 1_555 1_555
C26_4 C27_4 1_555 1_555
O18_4 Dy14 1_555 1_555
C48_4 C49_4 1_555 1_555
C50_4 C51_4 1_555 1_555
O22_4 C53_4 1_555 1_555
C58_4 C59_4 1_555 1_555
C58_4 C60_4 1_555 1_555
C74_4 N5_4 1_555 1_555
C75_4 N5_4 1_555 1_555
C77_4 N6_4 1_555 1_555
C78_4 N6_4 1_555 1_555
C80_4 N7_4 1_555 1_555
C81_4 N7_4 1_555 1_555
C83_4 N8_4 1_555 1_555
C84_4 N8_4 1_555 1_555
Dy9 O1_4 1_555 1_555
O1_4 C1_4 1_555 1_555
O2_4 Dy9 1_555 1_555
O13_4 Dy9 1_555 1_555
O16_4 Dy9 1_555 1_555
C1_4 O2_4 1_555 1_555
C2_4 C1_4 1_555 1_555
C3_4 C2_4 1_555 1_555
H1_4 C3_4 1_555 1_555
C4_4 C3_4 1_555 1_555
C5_4 C4_4 1_555 1_555
H2_4 C5_4 1_555 1_555
C6_4 C5_4 1_555 1_555
C7_4 C2_4 1_555 1_555
C9_4 C4_4 1_555 1_555
C10_4 C9_4 1_555 1_555
C30_4 O13_4 1_555 1_555
H10_4 C30_4 1_555 1_555
C31_4 H11_4 1_555 1_555
H12_4 C31_4 1_555 1_555
H13_4 C31_4 1_555 1_555
C32_4 H14_4 1_555 1_555
H15_4 C32_4 1_555 1_555
H16_4 C32_4 1_555 1_555
C33_4 O14_4 1_555 1_555
H17_4 C33_4 1_555 1_555
C34_4 H18_4 1_555 1_555
H19_4 C34_4 1_555 1_555
H20_4 C34_4 1_555 1_555
C35_4 H21_4 1_555 1_555
H22_4 C35_4 1_555 1_555
H23_4 C35_4 1_555 1_555
C37_4 H25_4 1_555 1_555
H26_4 C37_4 1_555 1_555
H27_4 C37_4 1_555 1_555
C39_4 O16_4 1_555 1_555
H31_4 C39_4 1_555 1_555
C40_4 H32_4 1_555 1_555
H33_4 C40_4 1_555 1_555
H34_4 C40_4 1_555 1_555
C41_4 H35_4 1_555 1_555
H36_4 C41_4 1_555 1_555
H37_4 C41_4 1_555 1_555
N1_4 C30_4 1_555 1_555
N2_4 C33_4 1_555 1_555
N4_4 C39_4 1_555 1_555
C6_4 C7_4 1_555 1_555
C31_4 N1_4 1_555 1_555
C32_4 N1_4 1_555 1_555
C34_4 N2_4 1_555 1_555
C35_4 N2_4 1_555 1_555
C37_4 N3_4 1_555 1_555
C40_4 N4_4 1_555 1_555
C41_4 N4_4 1_555 1_555
O35 C19_4 1_555 1_555
O37 C19_4 1_555 1_555
O39_2 C20_4 1_555 1_555
O41_2 C20_4 1_555 1_555
C12_4 C11_4 1_555 1_555
C13_4 C12_4 1_555 1_555
C14_4 C13_4 1_555 1_555
H4_4 C14_4 1_555 1_555
C15_4 C14_4 1_555 1_555
C16_4 C15_4 1_555 1_555
H5_4 C16_4 1_555 1_555
C17_4 C16_4 1_555 1_555
C18_4 C13_4 1_555 1_555
H6_4 C18_4 1_555 1_555
C19_4 C15_4 1_555 1_555
C20_4 C17_4 1_555 1_555
C17_4 C18_4 1_555 1_555

#END
