
###############################################################################
#
# This file contains modified crystal structure data generated from the
# MOF subset of the Cambridge Structural Database (CSD) v543 
# hosted by the Cambridge Crystallographic Data Centre (CCDC).
#
# This work is licensed under the Creative Commons
# Attribution-NonCommercial-ShareAlike 4.0 International License.
# To view a copy of this license, visit
# http://creativecommons.org/licenses/by-nc-sa/4.0/
# or send a letter to
# Creative Commons, PO Box 1866, Mountain View, CA 94042, USA.
#
# CIF created using the CSD Python API on 29 September 2022
# The structure has been converted into the P1 space group
# The structure has a 3D framework
# The original CSD entry EYOCOM is in the monoclinic crystal system
# The framework has been calculated to contain at least 10.0% void space
# The void calculation uses a probe of radius 1.32A, grid spacing 0.4
#
###############################################################################

data_EYOCOM
_chemical_formula_moiety         '(C336 H296 Er16 N32 O124)n'
_symmetry_cell_setting           triclinic
_symmetry_space_group_name_H-M   'P 1'
_symmetry_Int_Tables_number      1
_space_group_name_Hall           'P 1'
loop_
_symmetry_equiv_pos_site_id
_symmetry_equiv_pos_as_xyz
1 x,y,z
_cell_length_a                   29.9258(10)
_cell_length_b                   21.0418(7)
_cell_length_c                   19.4326(6)
_cell_angle_alpha                90
_cell_angle_beta                 94.0000(10)
_cell_angle_gamma                90
_cell_volume                     12206.8
loop_
_atom_site_label
_atom_site_type_symbol
_atom_site_fract_x
_atom_site_fract_y
_atom_site_fract_z
Er1 Er 0.276590(11) 0.175000(14) 0.057660(18)
O1 O 0.2791(2) 0.0697(3) 0.0168(4)
O2 O 0.3397(2) 0.1026(3) 0.0708(4)
O13 O 0.2955(3) 0.1609(4) 0.1774(5)
O14 O 0.2217(3) 0.1133(4) 0.1118(5)
C1 C 0.3172(3) 0.0585(4) 0.0431(5)
H1 H 0.3944 0.0111 0.0958
C31 C 0.3287(5) 0.1752(6) 0.2132(8)
H10 H 0.3526 0.1907 0.1901
C32 C 0.2974(6) 0.1499(8) 0.3155(9)
H11 H 0.2720 0.1454 0.2829
H12 H 0.2906 0.1803 0.3501
H13 H 0.3042 0.1096 0.3370
C33 C 0.3763(6) 0.1821(7) 0.3192(9)
H14 H 0.3925 0.1429 0.3244
H15 H 0.3705 0.1984 0.3639
H16 H 0.3938 0.2124 0.2956
C34 C 0.1993(5) 0.0694(6) 0.1216(7)
H17 H 0.2063 0.0370 0.0917
C35 C 0.1587(5) 0.0775(7) 0.2248(9)
H18 H 0.1755 0.1162 0.2314
H19 H 0.1672 0.0484 0.2614
H20 H 0.1273 0.0867 0.2251
N1 N 0.3353(5) 0.1715(5) 0.2805(8)
N2 N 0.1678(4) 0.0496(6) 0.1595(7)
O41 O 0.23144(17) 0.2432(3) 0.1116(3)
O43 O 0.3283(2) 0.2558(3) 0.0878(3)
O11 O 0.2166(2) 0.1845(3) 0.9807(4)
O12 O 0.1717(2) 0.2442(3) 0.9122(3)
C22 C 0.1474(3) 0.0194(4) 0.9072(5)
C23 C 0.1725(3) 0.0729(4) 0.9313(5)
H7 H 0.1989 0.0674 0.9589
C24 C 0.1575(3) 0.1341(4) 0.9133(5)
C25 C 0.1187(3) 0.1431(4) 0.8726(5)
H8 H 0.1090 0.1839 0.8609
C26 C 0.0938(3) 0.0899(4) 0.8486(5)
C27 C 0.1098(3) 0.0265(4) 0.8662(5)
C28 C 0.1840(3) 0.1916(4) 0.9374(5)
C29 C 0.0538(3) 0.0958(4) 0.8032(5)
C30 C 0.0198(3) 0.0980(4) 0.7721(5)
Er9 Er 0.223410(11) 0.325000(14) 0.942340(18)
O39 O 0.31103(18) 0.1925(3) 0.9551(3)
O4 O 0.3091(2) 0.7717(2) 0.0023(3)
O5 O 0.62853(18) 0.7230(3) 0.3816(3)
O6 O 0.69703(18) 0.7096(3) 0.3518(3)
O7 O 0.68897(18) 0.8075(3) 0.0449(3)
O8 O 0.73144(17) 0.7432(3) 0.1116(3)
O15 O 0.1162(4) 0.8360(4) 0.0166(5)
O16 O 0.2013(3) 0.8443(4) 0.0777(5)
C2 C 0.3337(3) 0.9915(4) 0.0466(5)
C3 C 0.3766(3) 0.9781(4) 0.0774(5)
C4 C 0.3926(3) 0.9169(4) 0.0808(5)
C5 C 0.3648(3) 0.8671(4) 0.0530(5)
H2 H 0.3753 0.8255 0.0547
C6 C 0.3231(3) 0.8797(4) 0.0239(5)
C7 C 0.3078(3) 0.9416(4) 0.0183(5)
C9 C 0.4360(3) 0.9017(4) 0.1113(5)
C10 C 0.4729(3) 0.8858(4) 0.1331(5)
C11 C 0.5141(3) 0.8652(4) 0.1586(5)
C12 C 0.5501(3) 0.8441(4) 0.1768(5)
C13 C 0.5935(3) 0.8146(4) 0.1923(5)
C14 C 0.6045(3) 0.7884(4) 0.2574(4)
H4 H 0.5847 0.7913 0.2921
C15 C 0.6456(3) 0.7580(4) 0.2693(4)
C16 C 0.6749(3) 0.7551(4) 0.2182(4)
H5 H 0.7016 0.7329 0.2268
C17 C 0.6664(3) 0.7843(4) 0.1530(4)
C18 C 0.6232(3) 0.8129(4) 0.1418(5)
H6 H 0.6150 0.8308 0.0990
C19 C 0.6579(3) 0.7285(4) 0.3384(4)
C20 C 0.6984(3) 0.7788(4) 0.1002(4)
C36 C 0.1434(5) 0.9902(7) 0.1418(8)
H21 H 0.1215 0.9827 0.1747
H22 H 0.1642 0.9554 0.1427
H23 H 0.1287 0.9939 0.0965
C38 C 0.0579(6) 0.7962(9) 0.0977(10)
H25 H 0.0333 0.7888 0.1259
H26 H 0.0743 0.8330 0.1143
H27 H 0.0774 0.7599 0.0997
H30 H 0.0147 0.7227 0.0022
C40 C 0.2133(5) 0.8296(6) 0.1355(9)
H31 H 0.2413 0.8102 0.1380
C41 C 0.2194(6) 0.8271(7) 0.2617(8)
H32 H 0.2510 0.8300 0.2571
H33 H 0.2124 0.7864 0.2806
H34 H 0.2103 0.8601 0.2919
C42 C 0.1482(6) 0.8391(7) 0.1948(10)
H35 H 0.1387 0.8422 0.2409
H36 H 0.1350 0.8022 0.1726
H37 H 0.1388 0.8764 0.1692
N3 N 0.0407(6) 0.8069(8) 0.0261(9)
N4 N 0.1967(5) 0.8341(6) 0.1973(8)
Er5 Er 0.776590(11) 0.675000(14) 0.057660(18)
Er12 Er 0.318010(13) 0.670010(14) 0.037450(19)
Er14 Er 0.681990(13) 0.670010(14) 0.462550(19)
Er2 Er 0.181990(13) 0.829990(14) 0.962550(19)
O3 O 0.2582(2) 0.8400(3) 0.9662(4)
O9 O 0.1472(3) 0.9089(3) 0.8915(4)
O10 O 0.1908(2) 0.9439(3) 0.9738(4)
H3 H 0.2800 0.9500 0.9956
C8 C 0.2946(3) 0.8260(4) 0.9950(6)
C21 C 0.1631(4) 0.9544(4) 0.9253(6)
H9 H 0.0941 0.9910 0.8492
C37 C 0.0784(7) 0.8180(7) 0.9902(10)
H24 H 0.0758 0.8116 0.9427
C39 C 0.0052(6) 0.7662(8) 0.9987(9)
H65 H 0.0021 0.7766 0.5489
H66 H 0.0207 0.7720 0.4756
Er7 Er 0.723410(11) 0.825000(14) 0.942340(18)
O33 O 0.1909(2) 0.7283(2) 0.9977(3)
O36 O 0.12853(18) 0.7770(3) 0.8816(3)
O38 O 0.19703(18) 0.7904(3) 0.8518(3)
O19 O 0.7834(2) 0.1845(3) 0.5193(4)
O20 O 0.8283(2) 0.2442(3) 0.5878(3)
C44 C 0.8526(3) 0.0194(4) 0.5928(5)
C45 C 0.8275(3) 0.0729(4) 0.5687(5)
H38 H 0.8011 0.0674 0.5411
C46 C 0.8425(3) 0.1341(4) 0.5867(5)
C47 C 0.8813(3) 0.1431(4) 0.6274(5)
H39 H 0.8910 0.1839 0.6391
C48 C 0.9062(3) 0.0899(4) 0.6514(5)
C49 C 0.8902(3) 0.0265(4) 0.6338(5)
C50 C 0.8160(3) 0.1916(4) 0.5626(5)
C51 C 0.9462(3) 0.0958(4) 0.6968(5)
C52 C 0.9802(3) 0.0980(4) 0.7279(5)
Er3 Er 0.723410(11) 0.175000(14) 0.442340(18)
O21 O 0.7209(2) 0.0697(3) 0.4832(4)
O22 O 0.6603(2) 0.1026(3) 0.4292(4)
O29 O 0.7045(3) 0.1609(4) 0.3226(5)
O30 O 0.7783(3) 0.1133(4) 0.3882(5)
C53 C 0.6828(3) 0.0585(4) 0.4569(5)
H41 H 0.6056 0.0111 0.4042
C73 C 0.6713(5) 0.1752(6) 0.2868(8)
H47 H 0.6474 0.1907 0.3099
C74 C 0.7026(6) 0.1499(8) 0.1845(9)
H48 H 0.7280 0.1454 0.2171
H49 H 0.7094 0.1803 0.1499
H50 H 0.6958 0.1096 0.1630
C75 C 0.6237(6) 0.1821(7) 0.1808(9)
H51 H 0.6075 0.1429 0.1756
H52 H 0.6295 0.1984 0.1361
H53 H 0.6062 0.2124 0.2044
C76 C 0.8007(5) 0.0694(6) 0.3784(7)
H54 H 0.7937 0.0370 0.4083
C77 C 0.8413(5) 0.0775(7) 0.2752(9)
H55 H 0.8245 0.1162 0.2686
H56 H 0.8328 0.0484 0.2386
H57 H 0.8727 0.0867 0.2749
N5 N 0.6647(5) 0.1715(5) 0.2195(8)
N6 N 0.8322(4) 0.0496(6) 0.3405(7)
Er10 Er 0.776590(11) 0.325000(14) 0.557660(18)
O40 O 0.68897(18) 0.1925(3) 0.5449(3)
O42 O 0.76856(17) 0.2432(3) 0.3884(3)
O44 O 0.6717(2) 0.2558(3) 0.4122(3)
H28 H 0.9979 0.7766 0.9511
O17 O 0.8528(3) 0.9089(3) 0.6085(4)
O18 O 0.8092(2) 0.9439(3) 0.5262(4)
C43 C 0.8369(4) 0.9544(4) 0.5747(6)
H40 H 0.9059 0.9910 0.6508
Er4 Er 0.818010(13) 0.829990(14) 0.537450(19)
O23 O 0.7418(2) 0.8400(3) 0.5338(4)
O24 O 0.6909(2) 0.7717(2) 0.4977(3)
O25 O 0.37147(18) 0.7230(3) 0.1184(3)
O26 O 0.30297(18) 0.7096(3) 0.1482(3)
O27 O 0.31103(18) 0.8075(3) 0.4551(3)
O28 O 0.26856(17) 0.7432(3) 0.3884(3)
O31 O 0.8838(4) 0.8360(4) 0.4834(5)
O32 O 0.7987(3) 0.8443(4) 0.4223(5)
C54 C 0.6663(3) 0.9915(4) 0.4534(5)
C55 C 0.6234(3) 0.9781(4) 0.4226(5)
C56 C 0.6074(3) 0.9169(4) 0.4192(5)
C57 C 0.6352(3) 0.8671(4) 0.4470(5)
H42 H 0.6247 0.8255 0.4453
C58 C 0.6769(3) 0.8797(4) 0.4761(5)
C59 C 0.6922(3) 0.9416(4) 0.4817(5)
H43 H 0.7200 0.9500 0.5044
C60 C 0.7054(3) 0.8260(4) 0.5050(6)
C61 C 0.5640(3) 0.9017(4) 0.3887(5)
C62 C 0.5271(3) 0.8858(4) 0.3669(5)
C63 C 0.4859(3) 0.8652(4) 0.3414(5)
C64 C 0.4499(3) 0.8441(4) 0.3232(5)
C65 C 0.4065(3) 0.8146(4) 0.3077(5)
C66 C 0.3955(3) 0.7884(4) 0.2426(4)
H44 H 0.4153 0.7913 0.2079
C67 C 0.3544(3) 0.7580(4) 0.2307(4)
C68 C 0.3251(3) 0.7551(4) 0.2818(4)
H45 H 0.2984 0.7329 0.2732
C69 C 0.3336(3) 0.7843(4) 0.3470(4)
C70 C 0.3768(3) 0.8129(4) 0.3582(5)
H46 H 0.3850 0.8308 0.4010
C71 C 0.3421(3) 0.7285(4) 0.1616(4)
C72 C 0.3016(3) 0.7788(4) 0.3998(4)
C78 C 0.8566(5) 0.9902(7) 0.3582(8)
H58 H 0.8785 0.9827 0.3253
H59 H 0.8358 0.9554 0.3573
H60 H 0.8713 0.9939 0.4035
C79 C 0.9216(7) 0.8180(7) 0.5098(10)
H61 H 0.9242 0.8116 0.5573
C80 C 0.9421(6) 0.7962(9) 0.4023(10)
H62 H 0.9667 0.7888 0.3741
H63 H 0.9257 0.8330 0.3857
H64 H 0.9226 0.7599 0.4003
C81 C 0.9948(6) 0.7662(8) 0.5013(9)
H67 H 0.9853 0.7227 0.4978
C82 C 0.7867(5) 0.8296(6) 0.3645(9)
H68 H 0.7587 0.8102 0.3620
C83 C 0.7806(6) 0.8271(7) 0.2383(8)
H69 H 0.7490 0.8300 0.2429
H70 H 0.7876 0.7864 0.2194
H71 H 0.7897 0.8601 0.2081
C84 C 0.8518(6) 0.8391(7) 0.3052(10)
H72 H 0.8613 0.8422 0.2591
H73 H 0.8650 0.8022 0.3274
H74 H 0.8612 0.8764 0.3308
N7 N 0.9593(6) 0.8069(8) 0.4739(9)
N8 N 0.8033(5) 0.8341(6) 0.3027(8)
Er6 Er 0.223410(11) 0.675000(14) 0.442340(18)
Er8 Er 0.276590(11) 0.825000(14) 0.557660(18)
O34 O 0.8091(2) 0.7283(2) 0.5023(3)
O35 O 0.87147(18) 0.7770(3) 0.6184(3)
O37 O 0.80297(18) 0.7904(3) 0.6482(3)
O5_2 O 0.12853(18) 0.2230(3) 0.3816(3)
O6_2 O 0.19703(18) 0.2096(3) 0.3518(3)
O7_2 O 0.18897(18) 0.3075(3) 0.0449(3)
C11_2 C 0.0141(3) 0.3652(4) 0.1586(5)
C12_2 C 0.0501(3) 0.3441(4) 0.1768(5)
C13_2 C 0.0935(3) 0.3146(4) 0.1923(5)
C14_2 C 0.1045(3) 0.2884(4) 0.2574(4)
H4_2 H 0.0847 0.2913 0.2921
C15_2 C 0.1456(3) 0.2580(4) 0.2693(4)
C16_2 C 0.1749(3) 0.2551(4) 0.2182(4)
H5_2 H 0.2016 0.2329 0.2268
C17_2 C 0.1664(3) 0.2843(4) 0.1530(4)
C18_2 C 0.1232(3) 0.3129(4) 0.1418(5)
H6_2 H 0.1150 0.3308 0.0990
C19_2 C 0.1579(3) 0.2285(4) 0.3384(4)
C20_2 C 0.1984(3) 0.2788(4) 0.1002(4)
Er14_2 Er 0.181990(13) 0.170010(14) 0.462550(19)
O1_2 O 0.7791(2) 0.5697(3) 0.0168(4)
O2_2 O 0.8397(2) 0.6026(3) 0.0708(4)
O4_2 O 0.8091(2) 0.2717(2) 0.0023(3)
O13_2 O 0.7955(3) 0.6609(4) 0.1774(5)
O14_2 O 0.7217(3) 0.6133(4) 0.1118(5)
O15_2 O 0.6162(4) 0.3360(4) 0.0166(5)
O16_2 O 0.7013(3) 0.3443(4) 0.0777(5)
C1_2 C 0.8172(3) 0.5585(4) 0.0431(5)
C2_2 C 0.8337(3) 0.4915(4) 0.0466(5)
C3_2 C 0.8766(3) 0.4781(4) 0.0774(5)
H1_2 H 0.8944 0.5111 0.0958
C4_2 C 0.8926(3) 0.4169(4) 0.0808(5)
C5_2 C 0.8648(3) 0.3671(4) 0.0530(5)
H2_2 H 0.8753 0.3255 0.0547
C6_2 C 0.8231(3) 0.3797(4) 0.0239(5)
C7_2 C 0.8078(3) 0.4416(4) 0.0183(5)
C9_2 C 0.9360(3) 0.4017(4) 0.1113(5)
C10_2 C 0.9729(3) 0.3858(4) 0.1331(5)
C31_2 C 0.8287(5) 0.6752(6) 0.2132(8)
H10_2 H 0.8526 0.6907 0.1901
C32_2 C 0.7974(6) 0.6499(8) 0.3155(9)
H11_2 H 0.7720 0.6454 0.2829
H12_2 H 0.7906 0.6803 0.3501
H13_2 H 0.8042 0.6096 0.3370
C33_2 C 0.8763(6) 0.6821(7) 0.3192(9)
H14_2 H 0.8925 0.6429 0.3244
H15_2 H 0.8705 0.6984 0.3639
H16_2 H 0.8938 0.7124 0.2956
C34_2 C 0.6993(5) 0.5694(6) 0.1216(7)
H17_2 H 0.7063 0.5370 0.0917
C35_2 C 0.6587(5) 0.5775(7) 0.2248(9)
H18_2 H 0.6755 0.6162 0.2314
H19_2 H 0.6672 0.5484 0.2614
H20_2 H 0.6273 0.5867 0.2251
C36_2 C 0.6434(5) 0.4902(7) 0.1418(8)
H21_2 H 0.6215 0.4827 0.1747
H22_2 H 0.6642 0.4554 0.1427
H23_2 H 0.6287 0.4939 0.0965
C38_2 C 0.5579(6) 0.2962(9) 0.0977(10)
H25_2 H 0.5333 0.2888 0.1259
H26_2 H 0.5743 0.3330 0.1143
H27_2 H 0.5774 0.2599 0.0997
H29 H 0.4793 0.2720 0.0244
H30_2 H 0.5147 0.2227 0.0022
C40_2 C 0.7133(5) 0.3296(6) 0.1355(9)
H31_2 H 0.7413 0.3102 0.1380
C41_2 C 0.7194(6) 0.3271(7) 0.2617(8)
H32_2 H 0.7510 0.3300 0.2571
H33_2 H 0.7124 0.2864 0.2806
H34_2 H 0.7103 0.3601 0.2919
C42_2 C 0.6482(6) 0.3391(7) 0.1948(10)
H35_2 H 0.6387 0.3422 0.2409
H36_2 H 0.6350 0.3022 0.1726
H37_2 H 0.6388 0.3764 0.1692
N1_2 N 0.8353(5) 0.6715(5) 0.2805(8)
N2_2 N 0.6678(4) 0.5496(6) 0.1595(7)
N3_2 N 0.5407(6) 0.3069(8) 0.0261(9)
N4_2 N 0.6967(5) 0.3341(6) 0.1973(8)
Er12_2 Er 0.818010(13) 0.170010(14) 0.037450(19)
O43_2 O 0.8283(2) 0.7558(3) 0.0878(3)
Er2_2 Er 0.681990(13) 0.329990(14) 0.962550(19)
O3_2 O 0.7582(2) 0.3400(3) 0.9662(4)
O9_2 O 0.6472(3) 0.4089(3) 0.8915(4)
O10_2 O 0.6908(2) 0.4439(3) 0.9738(4)
O11_2 O 0.7166(2) 0.6845(3) 0.9807(4)
O12_2 O 0.6717(2) 0.7442(3) 0.9122(3)
H3_2 H 0.7800 0.4500 0.9956
C8_2 C 0.7946(3) 0.3260(4) 0.9950(6)
C21_2 C 0.6631(4) 0.4544(4) 0.9253(6)
C22_2 C 0.6474(3) 0.5194(4) 0.9072(5)
C23_2 C 0.6725(3) 0.5729(4) 0.9313(5)
H7_2 H 0.6989 0.5674 0.9589
C24_2 C 0.6575(3) 0.6341(4) 0.9133(5)
C25_2 C 0.6187(3) 0.6431(4) 0.8726(5)
H8_2 H 0.6090 0.6839 0.8609
C26_2 C 0.5938(3) 0.5899(4) 0.8486(5)
C27_2 C 0.6098(3) 0.5265(4) 0.8662(5)
H9_2 H 0.5941 0.4910 0.8492
C28_2 C 0.6840(3) 0.6916(4) 0.9374(5)
C29_2 C 0.5538(3) 0.5958(4) 0.8032(5)
C30_2 C 0.5198(3) 0.5980(4) 0.7721(5)
C37_2 C 0.5784(7) 0.3180(7) 0.9902(10)
H24_2 H 0.5758 0.3116 0.9427
C39_2 C 0.5052(6) 0.2662(8) 0.9987(9)
H28_2 H 0.4979 0.2766 0.9511
O17_2 O 0.3528(3) 0.4089(3) 0.6085(4)
O18_2 O 0.3092(2) 0.4439(3) 0.5262(4)
O19_2 O 0.2834(2) 0.6845(3) 0.5193(4)
O20_2 O 0.3283(2) 0.7442(3) 0.5878(3)
C43_2 C 0.3369(4) 0.4544(4) 0.5747(6)
C44_2 C 0.3526(3) 0.5194(4) 0.5928(5)
C45_2 C 0.3275(3) 0.5729(4) 0.5687(5)
H38_2 H 0.3011 0.5674 0.5411
C46_2 C 0.3425(3) 0.6341(4) 0.5867(5)
C47_2 C 0.3813(3) 0.6431(4) 0.6274(5)
H39_2 H 0.3910 0.6839 0.6391
C48_2 C 0.4062(3) 0.5899(4) 0.6514(5)
C49_2 C 0.3902(3) 0.5265(4) 0.6338(5)
H40_2 H 0.4059 0.4910 0.6508
C50_2 C 0.3160(3) 0.6916(4) 0.5626(5)
C51_2 C 0.4462(3) 0.5958(4) 0.6968(5)
C52_2 C 0.4802(3) 0.5980(4) 0.7279(5)
Er4_2 Er 0.318010(13) 0.329990(14) 0.537450(19)
O21_2 O 0.2209(2) 0.5697(3) 0.4832(4)
O22_2 O 0.1603(2) 0.6026(3) 0.4292(4)
O23_2 O 0.2418(2) 0.3400(3) 0.5338(4)
O24_2 O 0.1909(2) 0.2717(2) 0.4977(3)
O29_2 O 0.2045(3) 0.6609(4) 0.3226(5)
O30_2 O 0.2783(3) 0.6133(4) 0.3882(5)
O31_2 O 0.3838(4) 0.3360(4) 0.4834(5)
O32_2 O 0.2987(3) 0.3443(4) 0.4223(5)
C53_2 C 0.1828(3) 0.5585(4) 0.4569(5)
C54_2 C 0.1663(3) 0.4915(4) 0.4534(5)
C55_2 C 0.1234(3) 0.4781(4) 0.4226(5)
H41_2 H 0.1056 0.5111 0.4042
C56_2 C 0.1074(3) 0.4169(4) 0.4192(5)
C57_2 C 0.1352(3) 0.3671(4) 0.4470(5)
H42_2 H 0.1247 0.3255 0.4453
C58_2 C 0.1769(3) 0.3797(4) 0.4761(5)
C59_2 C 0.1922(3) 0.4416(4) 0.4817(5)
H43_2 H 0.2200 0.4500 0.5044
C60_2 C 0.2054(3) 0.3260(4) 0.5050(6)
C61_2 C 0.0640(3) 0.4017(4) 0.3887(5)
C62_2 C 0.0271(3) 0.3858(4) 0.3669(5)
C73_2 C 0.1713(5) 0.6752(6) 0.2868(8)
H47_2 H 0.1474 0.6907 0.3099
C74_2 C 0.2026(6) 0.6499(8) 0.1845(9)
H48_2 H 0.2280 0.6454 0.2171
H49_2 H 0.2094 0.6803 0.1499
H50_2 H 0.1958 0.6096 0.1630
C75_2 C 0.1237(6) 0.6821(7) 0.1808(9)
H51_2 H 0.1075 0.6429 0.1756
H52_2 H 0.1295 0.6984 0.1361
H53_2 H 0.1062 0.7124 0.2044
C76_2 C 0.3007(5) 0.5694(6) 0.3784(7)
H54_2 H 0.2937 0.5370 0.4083
C77_2 C 0.3413(5) 0.5775(7) 0.2752(9)
H55_2 H 0.3245 0.6162 0.2686
H56_2 H 0.3328 0.5484 0.2386
H57_2 H 0.3727 0.5867 0.2749
C78_2 C 0.3566(5) 0.4902(7) 0.3582(8)
H58_2 H 0.3785 0.4827 0.3253
H59_2 H 0.3358 0.4554 0.3573
H60_2 H 0.3713 0.4939 0.4035
C79_2 C 0.4216(7) 0.3180(7) 0.5098(10)
H61_2 H 0.4242 0.3116 0.5573
C80_2 C 0.4421(6) 0.2962(9) 0.4023(10)
H62_2 H 0.4667 0.2888 0.3741
H63_2 H 0.4257 0.3330 0.3857
H64_2 H 0.4226 0.2599 0.4003
C81_2 C 0.4948(6) 0.2662(8) 0.5013(9)
H65_2 H 0.5021 0.2766 0.5489
H66_2 H 0.5207 0.2720 0.4756
H67_2 H 0.4853 0.2227 0.4978
C82_2 C 0.2867(5) 0.3296(6) 0.3645(9)
H68_2 H 0.2587 0.3102 0.3620
C83_2 C 0.2806(6) 0.3271(7) 0.2383(8)
H69_2 H 0.2490 0.3300 0.2429
H70_2 H 0.2876 0.2864 0.2194
H71_2 H 0.2897 0.3601 0.2081
C84_2 C 0.3518(6) 0.3391(7) 0.3052(10)
H72_2 H 0.3613 0.3422 0.2591
H73_2 H 0.3650 0.3022 0.3274
H74_2 H 0.3612 0.3764 0.3308
N5_2 N 0.1647(5) 0.6715(5) 0.2195(8)
N6_2 N 0.3322(4) 0.5496(6) 0.3405(7)
N7_2 N 0.4593(6) 0.3069(8) 0.4739(9)
N8_2 N 0.3033(5) 0.3341(6) 0.3027(8)
O33_2 O 0.6909(2) 0.2283(2) 0.9977(3)
O34_2 O 0.3091(2) 0.2283(2) 0.5023(3)
O35_2 O 0.37147(18) 0.2770(3) 0.6184(3)
O36_2 O 0.62853(18) 0.2770(3) 0.8816(3)
O37_2 O 0.30297(18) 0.2904(3) 0.6482(3)
O38_2 O 0.69703(18) 0.2904(3) 0.8518(3)
O39_2 O 0.81103(18) 0.6925(3) 0.9551(3)
O40_2 O 0.18897(18) 0.6925(3) 0.5449(3)
O44_2 O 0.1717(2) 0.7558(3) 0.4122(3)
O25_2 O 0.87147(18) 0.2230(3) 0.1184(3)
O26_2 O 0.80297(18) 0.2096(3) 0.1482(3)
O27_2 O 0.81103(18) 0.3075(3) 0.4551(3)
C63_2 C 0.9859(3) 0.3652(4) 0.3414(5)
C64_2 C 0.9499(3) 0.3441(4) 0.3232(5)
C65_2 C 0.9065(3) 0.3146(4) 0.3077(5)
C66_2 C 0.8955(3) 0.2884(4) 0.2426(4)
H44_2 H 0.9153 0.2913 0.2079
C67_2 C 0.8544(3) 0.2580(4) 0.2307(4)
C68_2 C 0.8251(3) 0.2551(4) 0.2818(4)
H45_2 H 0.7984 0.2329 0.2732
C69_2 C 0.8336(3) 0.2843(4) 0.3470(4)
C70_2 C 0.8768(3) 0.3129(4) 0.3582(5)
H46_2 H 0.8850 0.3308 0.4010
C71_2 C 0.8421(3) 0.2285(4) 0.1616(4)
C72_2 C 0.8016(3) 0.2788(4) 0.3998(4)
H28_3 H 0.0021 0.2234 0.0489
O17_3 O 0.1472(3) 0.0911(3) 0.3915(4)
O18_3 O 0.1908(2) 0.0561(3) 0.4738(4)
C43_3 C 0.1631(4) 0.0456(4) 0.4253(6)
H40_3 H 0.0941 0.0090 0.3492
O23_3 O 0.2582(2) 0.1600(3) 0.4662(4)
O28_2 O 0.73144(17) 0.2568(3) 0.6116(3)
O31_3 O 0.1162(4) 0.1640(4) 0.5166(5)
O32_3 O 0.2013(3) 0.1557(4) 0.5777(5)
C54_3 C 0.3337(3) 0.0085(4) 0.5466(5)
C55_3 C 0.3766(3) 0.0219(4) 0.5774(5)
C56_3 C 0.3926(3) 0.0831(4) 0.5808(5)
C57_3 C 0.3648(3) 0.1329(4) 0.5530(5)
H42_3 H 0.3753 0.1745 0.5547
C58_3 C 0.3231(3) 0.1203(4) 0.5239(5)
C59_3 C 0.3078(3) 0.0584(4) 0.5183(5)
H43_3 H 0.2800 0.0500 0.4956
C60_3 C 0.2946(3) 0.1740(4) 0.4950(6)
C61_3 C 0.4360(3) 0.0983(4) 0.6113(5)
C62_3 C 0.4729(3) 0.1142(4) 0.6331(5)
C63_3 C 0.5141(3) 0.1348(4) 0.6586(5)
C64_3 C 0.5501(3) 0.1559(4) 0.6768(5)
C65_3 C 0.5935(3) 0.1854(4) 0.6923(5)
C66_3 C 0.6045(3) 0.2116(4) 0.7574(4)
H44_3 H 0.5847 0.2087 0.7921
C67_3 C 0.6456(3) 0.2420(4) 0.7693(4)
C68_3 C 0.6749(3) 0.2449(4) 0.7182(4)
H45_3 H 0.7016 0.2671 0.7268
C69_3 C 0.6664(3) 0.2157(4) 0.6530(4)
C70_3 C 0.6232(3) 0.1871(4) 0.6418(5)
H46_3 H 0.6150 0.1692 0.5990
C71_3 C 0.6579(3) 0.2715(4) 0.8384(4)
C72_3 C 0.6984(3) 0.2212(4) 0.6002(4)
C78_3 C 0.1434(5) 0.0098(7) 0.6418(8)
H58_3 H 0.1215 0.0173 0.6747
H59_3 H 0.1642 0.0446 0.6427
H60_3 H 0.1287 0.0061 0.5965
C79_3 C 0.0784(7) 0.1820(7) 0.4902(10)
H61_3 H 0.0758 0.1884 0.4427
C80_3 C 0.0579(6) 0.2038(9) 0.5977(10)
H62_3 H 0.0333 0.2112 0.6259
H63_3 H 0.0743 0.1670 0.6143
H64_3 H 0.0774 0.2401 0.5997
C81_3 C 0.0052(6) 0.2338(8) 0.4987(9)
H67_3 H 0.0147 0.2773 0.5022
C82_3 C 0.2133(5) 0.1704(6) 0.6355(9)
H68_3 H 0.2413 0.1898 0.6380
C83_3 C 0.2194(6) 0.1729(7) 0.7617(8)
H69_3 H 0.2510 0.1700 0.7571
H70_3 H 0.2124 0.2136 0.7806
H71_3 H 0.2103 0.1399 0.7919
C84_3 C 0.1482(6) 0.1609(7) 0.6948(10)
H72_3 H 0.1387 0.1578 0.7409
H73_3 H 0.1350 0.1978 0.6726
H74_3 H 0.1388 0.1236 0.6692
N7_3 N 0.0407(6) 0.1931(8) 0.5261(9)
N8_3 N 0.1967(5) 0.1659(6) 0.6973(8)
O19_3 O 0.2166(2) 0.8155(3) 0.4807(4)
C44_3 C 0.1474(3) 0.9806(4) 0.4072(5)
C45_3 C 0.1725(3) 0.9271(4) 0.4313(5)
H38_3 H 0.1989 0.9326 0.4589
C46_3 C 0.1575(3) 0.8659(4) 0.4133(5)
C47_3 C 0.1187(3) 0.8569(4) 0.3726(5)
H39_3 H 0.1090 0.8161 0.3609
C48_3 C 0.0938(3) 0.9101(4) 0.3486(5)
C49_3 C 0.1098(3) 0.9735(4) 0.3662(5)
C50_3 C 0.1840(3) 0.8084(4) 0.4374(5)
C51_3 C 0.0538(3) 0.9042(4) 0.3032(5)
C52_3 C 0.0198(3) 0.9020(4) 0.2721(5)
O21_3 O 0.2791(2) 0.9303(3) 0.5168(4)
O22_3 O 0.3397(2) 0.8974(3) 0.5708(4)
O29_3 O 0.2955(3) 0.8391(4) 0.6774(5)
O30_3 O 0.2217(3) 0.8867(4) 0.6118(5)
C53_3 C 0.3172(3) 0.9415(4) 0.5431(5)
H41_3 H 0.3944 0.9889 0.5958
C73_3 C 0.3287(5) 0.8248(6) 0.7132(8)
H47_3 H 0.3526 0.8093 0.6901
C74_3 C 0.2974(6) 0.8501(8) 0.8155(9)
H48_3 H 0.2720 0.8546 0.7829
H49_3 H 0.2906 0.8197 0.8501
H50_3 H 0.3042 0.8904 0.8370
C75_3 C 0.3763(6) 0.8179(7) 0.8192(9)
H51_3 H 0.3925 0.8571 0.8244
H52_3 H 0.3705 0.8016 0.8639
H53_3 H 0.3938 0.7876 0.7956
C76_3 C 0.1993(5) 0.9306(6) 0.6216(7)
H54_3 H 0.2063 0.9630 0.5917
C77_3 C 0.1587(5) 0.9225(7) 0.7248(9)
H55_3 H 0.1755 0.8838 0.7314
H56_3 H 0.1672 0.9516 0.7614
H57_3 H 0.1273 0.9133 0.7251
N5_3 N 0.3353(5) 0.8285(5) 0.7805(8)
N6_3 N 0.1678(4) 0.9504(6) 0.6595(7)
O42_2 O 0.23144(17) 0.7568(3) 0.6116(3)
O3_3 O 0.7418(2) 0.1600(3) 0.0338(4)
O9_3 O 0.8528(3) 0.0911(3) 0.1085(4)
O10_3 O 0.8092(2) 0.0561(3) 0.0262(4)
H3_3 H 0.7200 0.0500 0.0044
C8_3 C 0.7054(3) 0.1740(4) 0.0050(6)
C21_3 C 0.8369(4) 0.0456(4) 0.0747(6)
H9_3 H 0.9059 0.0090 0.1508
C37_3 C 0.9216(7) 0.1820(7) 0.0098(10)
H24_3 H 0.9242 0.1884 0.0573
C39_3 C 0.9948(6) 0.2338(8) 0.0013(9)
H65_3 H 0.9979 0.2234 0.4511
H66_3 H 0.9793 0.2280 0.5244
O8_2 O 0.26856(17) 0.2568(3) 0.8884(3)
O15_3 O 0.8838(4) 0.1640(4) 0.9834(5)
O16_3 O 0.7987(3) 0.1557(4) 0.9223(5)
C2_3 C 0.6663(3) 0.0085(4) 0.9534(5)
C3_3 C 0.6234(3) 0.0219(4) 0.9226(5)
C4_3 C 0.6074(3) 0.0831(4) 0.9192(5)
C5_3 C 0.6352(3) 0.1329(4) 0.9470(5)
H2_3 H 0.6247 0.1745 0.9453
C6_3 C 0.6769(3) 0.1203(4) 0.9761(5)
C7_3 C 0.6922(3) 0.0584(4) 0.9817(5)
C9_3 C 0.5640(3) 0.0983(4) 0.8887(5)
C10_3 C 0.5271(3) 0.1142(4) 0.8669(5)
C11_3 C 0.4859(3) 0.1348(4) 0.8414(5)
C12_3 C 0.4499(3) 0.1559(4) 0.8232(5)
C13_3 C 0.4065(3) 0.1854(4) 0.8077(5)
C14_3 C 0.3955(3) 0.2116(4) 0.7426(4)
H4_3 H 0.4153 0.2087 0.7079
C15_3 C 0.3544(3) 0.2420(4) 0.7307(4)
C16_3 C 0.3251(3) 0.2449(4) 0.7818(4)
H5_3 H 0.2984 0.2671 0.7732
C17_3 C 0.3336(3) 0.2157(4) 0.8470(4)
C18_3 C 0.3768(3) 0.1871(4) 0.8582(5)
H6_3 H 0.3850 0.1692 0.9010
C19_3 C 0.3421(3) 0.2715(4) 0.6616(4)
C20_3 C 0.3016(3) 0.2212(4) 0.8998(4)
C36_3 C 0.8566(5) 0.0098(7) 0.8582(8)
H21_3 H 0.8785 0.0173 0.8253
H22_3 H 0.8358 0.0446 0.8573
H23_3 H 0.8713 0.0061 0.9035
C38_3 C 0.9421(6) 0.2038(9) 0.9023(10)
H25_3 H 0.9667 0.2112 0.8741
H26_3 H 0.9257 0.1670 0.8857
H27_3 H 0.9226 0.2401 0.9003
H30_3 H 0.9853 0.2773 0.9978
C40_3 C 0.7867(5) 0.1704(6) 0.8645(9)
H31_3 H 0.7587 0.1898 0.8620
C41_3 C 0.7806(6) 0.1729(7) 0.7383(8)
H32_3 H 0.7490 0.1700 0.7429
H33_3 H 0.7876 0.2136 0.7194
H34_3 H 0.7897 0.1399 0.7081
C42_3 C 0.8518(6) 0.1609(7) 0.8052(10)
H35_3 H 0.8613 0.1578 0.7591
H36_3 H 0.8650 0.1978 0.8274
H37_3 H 0.8612 0.1236 0.8308
N3_3 N 0.9593(6) 0.1931(8) 0.9739(9)
N4_3 N 0.8033(5) 0.1659(6) 0.8027(8)
O11_3 O 0.7834(2) 0.8155(3) 0.0193(4)
C22_3 C 0.8526(3) 0.9806(4) 0.0928(5)
C23_3 C 0.8275(3) 0.9271(4) 0.0687(5)
H7_3 H 0.8011 0.9326 0.0411
C24_3 C 0.8425(3) 0.8659(4) 0.0867(5)
C25_3 C 0.8813(3) 0.8569(4) 0.1274(5)
H8_3 H 0.8910 0.8161 0.1391
C26_3 C 0.9062(3) 0.9101(4) 0.1514(5)
C27_3 C 0.8902(3) 0.9735(4) 0.1338(5)
C28_3 C 0.8160(3) 0.8084(4) 0.0626(5)
C29_3 C 0.9462(3) 0.9042(4) 0.1968(5)
C30_3 C 0.9802(3) 0.9020(4) 0.2279(5)
O1_3 O 0.7209(2) 0.9303(3) 0.9832(4)
O2_3 O 0.6603(2) 0.8974(3) 0.9292(4)
O13_3 O 0.7045(3) 0.8391(4) 0.8226(5)
O14_3 O 0.7783(3) 0.8867(4) 0.8882(5)
C1_3 C 0.6828(3) 0.9415(4) 0.9569(5)
H1_3 H 0.6056 0.9889 0.9042
C31_3 C 0.6713(5) 0.8248(6) 0.7868(8)
H10_3 H 0.6474 0.8093 0.8099
C32_3 C 0.7026(6) 0.8501(8) 0.6845(9)
H11_3 H 0.7280 0.8546 0.7171
H12_3 H 0.7094 0.8197 0.6499
H13_3 H 0.6958 0.8904 0.6630
C33_3 C 0.6237(6) 0.8179(7) 0.6808(9)
H14_3 H 0.6075 0.8571 0.6756
H15_3 H 0.6295 0.8016 0.6361
H16_3 H 0.6062 0.7876 0.7044
C34_3 C 0.8007(5) 0.9306(6) 0.8784(7)
H17_3 H 0.7937 0.9630 0.9083
C35_3 C 0.8413(5) 0.9225(7) 0.7752(9)
H18_3 H 0.8245 0.8838 0.7686
H19_3 H 0.8328 0.9516 0.7386
H20_3 H 0.8727 0.9133 0.7749
N1_3 N 0.6647(5) 0.8285(5) 0.7195(8)
N2_3 N 0.8322(4) 0.9504(6) 0.8405(7)
O41_2 O 0.76856(17) 0.7568(3) 0.8884(3)
C63_4 C 0.0141(3) 0.6348(4) 0.6586(5)
C64_4 C 0.0501(3) 0.6559(4) 0.6768(5)
C65_4 C 0.0935(3) 0.6854(4) 0.6923(5)
C66_4 C 0.1045(3) 0.7116(4) 0.7574(4)
H44_4 H 0.0847 0.7087 0.7921
C67_4 C 0.1456(3) 0.7420(4) 0.7693(4)
C68_4 C 0.1749(3) 0.7449(4) 0.7182(4)
H45_4 H 0.2016 0.7671 0.7268
C69_4 C 0.1664(3) 0.7157(4) 0.6530(4)
C70_4 C 0.1232(3) 0.6871(4) 0.6418(5)
H46_4 H 0.1150 0.6692 0.5990
C71_4 C 0.1579(3) 0.7715(4) 0.8384(4)
C72_4 C 0.1984(3) 0.7212(4) 0.6002(4)
O3_4 O 0.2418(2) 0.6600(3) 0.0338(4)
O9_4 O 0.3528(3) 0.5911(3) 0.1085(4)
O10_4 O 0.3092(2) 0.5561(3) 0.0262(4)
O11_4 O 0.2834(2) 0.3155(3) 0.0193(4)
H3_4 H 0.2200 0.5500 0.0044
C8_4 C 0.2054(3) 0.6740(4) 0.0050(6)
C21_4 C 0.3369(4) 0.5456(4) 0.0747(6)
C22_4 C 0.3526(3) 0.4806(4) 0.0928(5)
C23_4 C 0.3275(3) 0.4271(4) 0.0687(5)
H7_4 H 0.3011 0.4326 0.0411
C24_4 C 0.3425(3) 0.3659(4) 0.0867(5)
C25_4 C 0.3813(3) 0.3569(4) 0.1274(5)
H8_4 H 0.3910 0.3161 0.1391
C26_4 C 0.4062(3) 0.4101(4) 0.1514(5)
C27_4 C 0.3902(3) 0.4735(4) 0.1338(5)
H9_4 H 0.4059 0.5090 0.1508
C28_4 C 0.3160(3) 0.3084(4) 0.0626(5)
C29_4 C 0.4462(3) 0.4042(4) 0.1968(5)
C30_4 C 0.4802(3) 0.4020(4) 0.2279(5)
C37_4 C 0.4216(7) 0.6820(7) 0.0098(10)
H24_4 H 0.4242 0.6884 0.0573
C39_4 C 0.4948(6) 0.7338(8) 0.0013(9)
H28_4 H 0.5021 0.7234 0.0489
O17_4 O 0.6472(3) 0.5911(3) 0.3915(4)
O18_4 O 0.6908(2) 0.5561(3) 0.4738(4)
O19_4 O 0.7166(2) 0.3155(3) 0.4807(4)
C43_4 C 0.6631(4) 0.5456(4) 0.4253(6)
C44_4 C 0.6474(3) 0.4806(4) 0.4072(5)
C45_4 C 0.6725(3) 0.4271(4) 0.4313(5)
H38_4 H 0.6989 0.4326 0.4589
C46_4 C 0.6575(3) 0.3659(4) 0.4133(5)
C47_4 C 0.6187(3) 0.3569(4) 0.3726(5)
H39_4 H 0.6090 0.3161 0.3609
C48_4 C 0.5938(3) 0.4101(4) 0.3486(5)
C49_4 C 0.6098(3) 0.4735(4) 0.3662(5)
H40_4 H 0.5941 0.5090 0.3492
C50_4 C 0.6840(3) 0.3084(4) 0.4374(5)
C51_4 C 0.5538(3) 0.4042(4) 0.3032(5)
C52_4 C 0.5198(3) 0.4020(4) 0.2721(5)
O21_4 O 0.7791(2) 0.4303(3) 0.5168(4)
O22_4 O 0.8397(2) 0.3974(3) 0.5708(4)
O23_4 O 0.7582(2) 0.6600(3) 0.4662(4)
O29_4 O 0.7955(3) 0.3391(4) 0.6774(5)
O30_4 O 0.7217(3) 0.3867(4) 0.6118(5)
O31_4 O 0.6162(4) 0.6640(4) 0.5166(5)
O32_4 O 0.7013(3) 0.6557(4) 0.5777(5)
C53_4 C 0.8172(3) 0.4415(4) 0.5431(5)
C54_4 C 0.8337(3) 0.5085(4) 0.5466(5)
C55_4 C 0.8766(3) 0.5219(4) 0.5774(5)
H41_4 H 0.8944 0.4889 0.5958
C56_4 C 0.8926(3) 0.5831(4) 0.5808(5)
C57_4 C 0.8648(3) 0.6329(4) 0.5530(5)
H42_4 H 0.8753 0.6745 0.5547
C58_4 C 0.8231(3) 0.6203(4) 0.5239(5)
C59_4 C 0.8078(3) 0.5584(4) 0.5183(5)
H43_4 H 0.7800 0.5500 0.4956
C60_4 C 0.7946(3) 0.6740(4) 0.4950(6)
C61_4 C 0.9360(3) 0.5983(4) 0.6113(5)
C62_4 C 0.9729(3) 0.6142(4) 0.6331(5)
C73_4 C 0.8287(5) 0.3248(6) 0.7132(8)
H47_4 H 0.8526 0.3093 0.6901
C74_4 C 0.7974(6) 0.3501(8) 0.8155(9)
H48_4 H 0.7720 0.3546 0.7829
H49_4 H 0.7906 0.3197 0.8501
H50_4 H 0.8042 0.3904 0.8370
C75_4 C 0.8763(6) 0.3179(7) 0.8192(9)
H51_4 H 0.8925 0.3571 0.8244
H52_4 H 0.8705 0.3016 0.8639
H53_4 H 0.8938 0.2876 0.7956
C76_4 C 0.6993(5) 0.4306(6) 0.6216(7)
H54_4 H 0.7063 0.4630 0.5917
C77_4 C 0.6587(5) 0.4225(7) 0.7248(9)
H55_4 H 0.6755 0.3838 0.7314
H56_4 H 0.6672 0.4516 0.7614
H57_4 H 0.6273 0.4133 0.7251
C78_4 C 0.6434(5) 0.5098(7) 0.6418(8)
H58_4 H 0.6215 0.5173 0.6747
H59_4 H 0.6642 0.5446 0.6427
H60_4 H 0.6287 0.5061 0.5965
C79_4 C 0.5784(7) 0.6820(7) 0.4902(10)
H61_4 H 0.5758 0.6884 0.4427
C80_4 C 0.5579(6) 0.7038(9) 0.5977(10)
H62_4 H 0.5333 0.7112 0.6259
H63_4 H 0.5743 0.6670 0.6143
H64_4 H 0.5774 0.7401 0.5997
C81_4 C 0.5052(6) 0.7338(8) 0.4987(9)
H65_4 H 0.4979 0.7234 0.4511
H66_4 H 0.4793 0.7280 0.5244
H67_4 H 0.5147 0.7773 0.5022
C82_4 C 0.7133(5) 0.6704(6) 0.6355(9)
H68_4 H 0.7413 0.6898 0.6380
C83_4 C 0.7194(6) 0.6729(7) 0.7617(8)
H69_4 H 0.7510 0.6700 0.7571
H70_4 H 0.7124 0.7136 0.7806
H71_4 H 0.7103 0.6399 0.7919
C84_4 C 0.6482(6) 0.6609(7) 0.6948(10)
H72_4 H 0.6387 0.6578 0.7409
H73_4 H 0.6350 0.6978 0.6726
H74_4 H 0.6388 0.6236 0.6692
N5_4 N 0.8353(5) 0.3285(5) 0.7805(8)
N6_4 N 0.6678(4) 0.4504(6) 0.6595(7)
N7_4 N 0.5407(6) 0.6931(8) 0.5261(9)
N8_4 N 0.6967(5) 0.6659(6) 0.6973(8)
O1_4 O 0.2209(2) 0.4303(3) 0.9832(4)
O2_4 O 0.1603(2) 0.3974(3) 0.9292(4)
O13_4 O 0.2045(3) 0.3391(4) 0.8226(5)
O14_4 O 0.2783(3) 0.3867(4) 0.8882(5)
O15_4 O 0.3838(4) 0.6640(4) 0.9834(5)
O16_4 O 0.2987(3) 0.6557(4) 0.9223(5)
C1_4 C 0.1828(3) 0.4415(4) 0.9569(5)
C2_4 C 0.1663(3) 0.5085(4) 0.9534(5)
C3_4 C 0.1234(3) 0.5219(4) 0.9226(5)
H1_4 H 0.1056 0.4889 0.9042
C4_4 C 0.1074(3) 0.5831(4) 0.9192(5)
C5_4 C 0.1352(3) 0.6329(4) 0.9470(5)
H2_4 H 0.1247 0.6745 0.9453
C6_4 C 0.1769(3) 0.6203(4) 0.9761(5)
C7_4 C 0.1922(3) 0.5584(4) 0.9817(5)
C9_4 C 0.0640(3) 0.5983(4) 0.8887(5)
C10_4 C 0.0271(3) 0.6142(4) 0.8669(5)
C31_4 C 0.1713(5) 0.3248(6) 0.7868(8)
H10_4 H 0.1474 0.3093 0.8099
C32_4 C 0.2026(6) 0.3501(8) 0.6845(9)
H11_4 H 0.2280 0.3546 0.7171
H12_4 H 0.2094 0.3197 0.6499
H13_4 H 0.1958 0.3904 0.6630
C33_4 C 0.1237(6) 0.3179(7) 0.6808(9)
H14_4 H 0.1075 0.3571 0.6756
H15_4 H 0.1295 0.3016 0.6361
H16_4 H 0.1062 0.2876 0.7044
C34_4 C 0.3007(5) 0.4306(6) 0.8784(7)
H17_4 H 0.2937 0.4630 0.9083
C35_4 C 0.3413(5) 0.4225(7) 0.7752(9)
H18_4 H 0.3245 0.3838 0.7686
H19_4 H 0.3328 0.4516 0.7386
H20_4 H 0.3727 0.4133 0.7749
C36_4 C 0.3566(5) 0.5098(7) 0.8582(8)
H21_4 H 0.3785 0.5173 0.8253
H22_4 H 0.3358 0.5446 0.8573
H23_4 H 0.3713 0.5061 0.9035
C38_4 C 0.4421(6) 0.7038(9) 0.9023(10)
H25_4 H 0.4667 0.7112 0.8741
H26_4 H 0.4257 0.6670 0.8857
H27_4 H 0.4226 0.7401 0.9003
H29_2 H 0.5207 0.7280 0.9756
H30_4 H 0.4853 0.7773 0.9978
C40_4 C 0.2867(5) 0.6704(6) 0.8645(9)
H31_4 H 0.2587 0.6898 0.8620
C41_4 C 0.2806(6) 0.6729(7) 0.7383(8)
H32_4 H 0.2490 0.6700 0.7429
H33_4 H 0.2876 0.7136 0.7194
H34_4 H 0.2897 0.6399 0.7081
C42_4 C 0.3518(6) 0.6609(7) 0.8052(10)
H35_4 H 0.3613 0.6578 0.7591
H36_4 H 0.3650 0.6978 0.8274
H37_4 H 0.3612 0.6236 0.8308
N1_4 N 0.1647(5) 0.3285(5) 0.7195(8)
N2_4 N 0.3322(4) 0.4504(6) 0.8405(7)
N3_4 N 0.4593(6) 0.6931(8) 0.9739(9)
N4_4 N 0.3033(5) 0.6659(6) 0.8027(8)
C11_4 C 0.9859(3) 0.6348(4) 0.8414(5)
C12_4 C 0.9499(3) 0.6559(4) 0.8232(5)
C13_4 C 0.9065(3) 0.6854(4) 0.8077(5)
C14_4 C 0.8955(3) 0.7116(4) 0.7426(4)
H4_4 H 0.9153 0.7087 0.7079
C15_4 C 0.8544(3) 0.7420(4) 0.7307(4)
C16_4 C 0.8251(3) 0.7449(4) 0.7818(4)
H5_4 H 0.7984 0.7671 0.7732
C17_4 C 0.8336(3) 0.7157(4) 0.8470(4)
C18_4 C 0.8768(3) 0.6871(4) 0.8582(5)
H6_4 H 0.8850 0.6692 0.9010
C19_4 C 0.8421(3) 0.7715(4) 0.6616(4)
C20_4 C 0.8016(3) 0.7212(4) 0.8998(4)
H29_3 H 0.9793 0.7720 0.0244
H29_4 H 0.0207 0.2280 0.9756
loop_
_geom_bond_atom_site_label_1
_geom_bond_atom_site_label_2
_geom_bond_site_symmetry_1
_geom_bond_site_symmetry_2
Er1 O1 1_555 1_555
O1 C1 1_555 1_555
O2 Er1 1_555 1_555
O13 Er1 1_555 1_555
O14 Er1 1_555 1_555
C1 O2 1_555 1_555
C31 O13 1_555 1_555
H10 C31 1_555 1_555
C32 H11 1_555 1_555
H12 C32 1_555 1_555
H13 C32 1_555 1_555
C33 H14 1_555 1_555
H15 C33 1_555 1_555
H16 C33 1_555 1_555
C34 O14 1_555 1_555
H17 C34 1_555 1_555
C35 H18 1_555 1_555
H19 C35 1_555 1_555
H20 C35 1_555 1_555
N1 C31 1_555 1_555
N2 C34 1_555 1_555
O41 Er1 1_555 1_555
O43 Er1 1_555 1_555
C32 N1 1_555 1_555
C33 N1 1_555 1_555
C35 N2 1_555 1_555
O12 C28 1_555 1_555
C23 C22 1_555 1_555
H7 C23 1_555 1_555
C24 C23 1_555 1_555
C25 C24 1_555 1_555
H8 C25 1_555 1_555
C26 C25 1_555 1_555
C27 C22 1_555 1_555
C28 O11 1_555 1_555
C29 C26 1_555 1_555
C30 C29 1_555 1_555
Er9 O12 1_555 1_555
C24 C28 1_555 1_555
C26 C27 1_555 1_555
O5 C19 1_555 1_555
O6 C19 1_555 1_555
O7 C20 1_555 1_555
O8 C20 1_555 1_555
C3 C2 1_555 1_555
C4 C3 1_555 1_555
C5 C4 1_555 1_555
H2 C5 1_555 1_555
C6 C5 1_555 1_555
C7 C2 1_555 1_555
C9 C4 1_555 1_555
C10 C9 1_555 1_555
C11 C10 1_555 1_555
C12 C11 1_555 1_555
C13 C12 1_555 1_555
C14 C13 1_555 1_555
H4 C14 1_555 1_555
C15 C14 1_555 1_555
C16 C15 1_555 1_555
H5 C16 1_555 1_555
C17 C16 1_555 1_555
C18 C13 1_555 1_555
H6 C18 1_555 1_555
C19 C15 1_555 1_555
C20 C17 1_555 1_555
C36 H21 1_555 1_555
H22 C36 1_555 1_555
H23 C36 1_555 1_555
C38 H25 1_555 1_555
H26 C38 1_555 1_555
H27 C38 1_555 1_555
C40 O16 1_555 1_555
H31 C40 1_555 1_555
C41 H32 1_555 1_555
H33 C41 1_555 1_555
H34 C41 1_555 1_555
C42 H35 1_555 1_555
H36 C42 1_555 1_555
H37 C42 1_555 1_555
N4 C40 1_555 1_555
Er5 O8 1_555 1_555
Er12 O4 1_555 1_555
Er14 O5 1_555 1_555
O6 Er14 1_555 1_555
C6 C7 1_555 1_555
C17 C18 1_555 1_555
C38 N3 1_555 1_555
C41 N4 1_555 1_555
C42 N4 1_555 1_555
Er2 O3 1_555 1_555
O3 C8 1_555 1_555
O9 Er2 1_555 1_555
O10 Er2 1_555 1_555
C21 O9 1_555 1_555
H24 C37 1_555 1_555
O33 Er2 1_555 1_555
O36 Er2 1_555 1_555
O38 Er2 1_555 1_555
O10 C21 1_555 1_555
O19 C50 1_555 1_555
O20 C50 1_555 1_555
C44 C45 1_555 1_555
C45 H38 1_555 1_555
C46 C45 1_555 1_555
C47 C46 1_555 1_555
H39 C47 1_555 1_555
C48 C47 1_555 1_555
C49 C44 1_555 1_555
C50 C46 1_555 1_555
C51 C48 1_555 1_555
Er3 O19 1_555 1_555
O21 Er3 1_555 1_555
O22 Er3 1_555 1_555
O29 Er3 1_555 1_555
O30 Er3 1_555 1_555
C53 O21 1_555 1_555
C73 O29 1_555 1_555
H47 C73 1_555 1_555
C74 H48 1_555 1_555
H49 C74 1_555 1_555
H50 C74 1_555 1_555
C75 H51 1_555 1_555
H52 C75 1_555 1_555
H53 C75 1_555 1_555
C76 O30 1_555 1_555
H54 C76 1_555 1_555
C77 H55 1_555 1_555
H56 C77 1_555 1_555
H57 C77 1_555 1_555
N5 C73 1_555 1_555
N6 C76 1_555 1_555
Er10 O20 1_555 1_555
O40 Er3 1_555 1_555
O42 Er3 1_555 1_555
O44 Er3 1_555 1_555
C48 C49 1_555 1_555
C51 C52 1_555 1_555
O22 C53 1_555 1_555
C74 N5 1_555 1_555
C75 N5 1_555 1_555
C77 N6 1_555 1_555
O17 C43 1_555 1_555
O18 C43 1_555 1_555
Er4 O17 1_555 1_555
O23 Er4 1_555 1_555
O24 C60 1_555 1_555
O25 C71 1_555 1_555
O26 C71 1_555 1_555
O27 C72 1_555 1_555
O28 C72 1_555 1_555
O31 Er4 1_555 1_555
O32 Er4 1_555 1_555
C55 C54 1_555 1_555
C56 C55 1_555 1_555
C57 C56 1_555 1_555
H42 C57 1_555 1_555
C58 C57 1_555 1_555
C59 C54 1_555 1_555
H43 C59 1_555 1_555
C60 O23 1_555 1_555
C61 C56 1_555 1_555
C62 C61 1_555 1_555
C63 C62 1_555 1_555
C64 C63 1_555 1_555
C65 C64 1_555 1_555
C66 C65 1_555 1_555
H44 C66 1_555 1_555
C67 C66 1_555 1_555
C68 C67 1_555 1_555
H45 C68 1_555 1_555
C69 C68 1_555 1_555
C70 C65 1_555 1_555
H46 C70 1_555 1_555
C71 C67 1_555 1_555
C72 C69 1_555 1_555
C78 H58 1_555 1_555
H59 C78 1_555 1_555
H60 C78 1_555 1_555
C79 O31 1_555 1_555
H61 C79 1_555 1_555
C80 H62 1_555 1_555
H63 C80 1_555 1_555
H64 C80 1_555 1_555
H67 C81 1_555 1_555
C82 O32 1_555 1_555
H68 C82 1_555 1_555
C83 H69 1_555 1_555
H70 C83 1_555 1_555
H71 C83 1_555 1_555
C84 H72 1_555 1_555
H73 C84 1_555 1_555
H74 C84 1_555 1_555
N7 C79 1_555 1_555
N8 C82 1_555 1_555
Er6 O28 1_555 1_555
Er8 O27 1_555 1_555
Er12 O25 1_555 1_555
Er14 O24 1_555 1_555
O34 Er4 1_555 1_555
O35 Er4 1_555 1_555
O37 Er4 1_555 1_555
O18 Er4 1_555 1_555
O26 Er12 1_555 1_555
C58 C59 1_555 1_555
C58 C60 1_555 1_555
C69 C70 1_555 1_555
C80 N7 1_555 1_555
C81 N7 1_555 1_555
C83 N8 1_555 1_555
C84 N8 1_555 1_555
O5_2 C19_2 1_555 1_555
O6_2 C19_2 1_555 1_555
O7_2 C20_2 1_555 1_555
O41 C20_2 1_555 1_555
C12_2 C11_2 1_555 1_555
C13_2 C12_2 1_555 1_555
C14_2 C13_2 1_555 1_555
H4_2 C14_2 1_555 1_555
C15_2 C14_2 1_555 1_555
C16_2 C15_2 1_555 1_555
H5_2 C16_2 1_555 1_555
C17_2 C16_2 1_555 1_555
C18_2 C13_2 1_555 1_555
H6_2 C18_2 1_555 1_555
C19_2 C15_2 1_555 1_555
C20_2 C17_2 1_555 1_555
Er14_2 O5_2 1_555 1_555
O6_2 Er14_2 1_555 1_555
C17_2 C18_2 1_555 1_555
Er5 O1_2 1_555 1_555
O1_2 C1_2 1_555 1_555
O2_2 Er5 1_555 1_555
O13_2 Er5 1_555 1_555
O14_2 Er5 1_555 1_555
C1_2 O2_2 1_555 1_555
C2_2 C1_2 1_555 1_555
C3_2 C2_2 1_555 1_555
H1_2 C3_2 1_555 1_555
C4_2 C3_2 1_555 1_555
C5_2 C4_2 1_555 1_555
H2_2 C5_2 1_555 1_555
C6_2 C5_2 1_555 1_555
C7_2 C2_2 1_555 1_555
C9_2 C4_2 1_555 1_555
C10_2 C9_2 1_555 1_555
C31_2 O13_2 1_555 1_555
H10_2 C31_2 1_555 1_555
C32_2 H11_2 1_555 1_555
H12_2 C32_2 1_555 1_555
H13_2 C32_2 1_555 1_555
C33_2 H14_2 1_555 1_555
H15_2 C33_2 1_555 1_555
H16_2 C33_2 1_555 1_555
C34_2 O14_2 1_555 1_555
H17_2 C34_2 1_555 1_555
C35_2 H18_2 1_555 1_555
H19_2 C35_2 1_555 1_555
H20_2 C35_2 1_555 1_555
C36_2 H21_2 1_555 1_555
H22_2 C36_2 1_555 1_555
H23_2 C36_2 1_555 1_555
C38_2 H25_2 1_555 1_555
H26_2 C38_2 1_555 1_555
H27_2 C38_2 1_555 1_555
C40_2 O16_2 1_555 1_555
H31_2 C40_2 1_555 1_555
C41_2 H32_2 1_555 1_555
H33_2 C41_2 1_555 1_555
H34_2 C41_2 1_555 1_555
C42_2 H35_2 1_555 1_555
H36_2 C42_2 1_555 1_555
H37_2 C42_2 1_555 1_555
N1_2 C31_2 1_555 1_555
N2_2 C34_2 1_555 1_555
N4_2 C40_2 1_555 1_555
Er12_2 O4_2 1_555 1_555
O43_2 Er5 1_555 1_555
C6_2 C7_2 1_555 1_555
C32_2 N1_2 1_555 1_555
C33_2 N1_2 1_555 1_555
C35_2 N2_2 1_555 1_555
C36_2 N2_2 1_555 1_555
C38_2 N3_2 1_555 1_555
C41_2 N4_2 1_555 1_555
C42_2 N4_2 1_555 1_555
Er2_2 O3_2 1_555 1_555
O3_2 C8_2 1_555 1_555
O9_2 Er2_2 1_555 1_555
O10_2 Er2_2 1_555 1_555
O12_2 C28_2 1_555 1_555
C21_2 O9_2 1_555 1_555
C22_2 C21_2 1_555 1_555
C23_2 C22_2 1_555 1_555
H7_2 C23_2 1_555 1_555
C24_2 C23_2 1_555 1_555
C25_2 C24_2 1_555 1_555
H8_2 C25_2 1_555 1_555
C26_2 C25_2 1_555 1_555
C27_2 C22_2 1_555 1_555
H9_2 C27_2 1_555 1_555
C28_2 O11_2 1_555 1_555
C29_2 C26_2 1_555 1_555
C30_2 C29_2 1_555 1_555
H24_2 C37_2 1_555 1_555
C39_2 H28_2 1_555 1_555
O17_2 C43_2 1_555 1_555
O18_2 C43_2 1_555 1_555
O19_2 C50_2 1_555 1_555
O20_2 C50_2 1_555 1_555
C43_2 C44_2 1_555 1_555
C44_2 C45_2 1_555 1_555
C45_2 H38_2 1_555 1_555
C46_2 C45_2 1_555 1_555
C47_2 C46_2 1_555 1_555
H39_2 C47_2 1_555 1_555
C48_2 C47_2 1_555 1_555
C49_2 C44_2 1_555 1_555
H40_2 C49_2 1_555 1_555
C50_2 C46_2 1_555 1_555
C51_2 C48_2 1_555 1_555
C52_2 C30_2 1_555 1_555
Er6 O19_2 1_555 1_555
Er4_2 O17_2 1_555 1_555
O21_2 Er6 1_555 1_555
O22_2 Er6 1_555 1_555
O23_2 Er4_2 1_555 1_555
O24_2 C60_2 1_555 1_555
O29_2 Er6 1_555 1_555
O30_2 Er6 1_555 1_555
O31_2 Er4_2 1_555 1_555
O32_2 Er4_2 1_555 1_555
C53_2 O21_2 1_555 1_555
C54_2 C53_2 1_555 1_555
C55_2 C54_2 1_555 1_555
H41_2 C55_2 1_555 1_555
C56_2 C55_2 1_555 1_555
C57_2 C56_2 1_555 1_555
H42_2 C57_2 1_555 1_555
C58_2 C57_2 1_555 1_555
C59_2 C54_2 1_555 1_555
H43_2 C59_2 1_555 1_555
C60_2 O23_2 1_555 1_555
C61_2 C56_2 1_555 1_555
C62_2 C61_2 1_555 1_555
C73_2 O29_2 1_555 1_555
H47_2 C73_2 1_555 1_555
C74_2 H48_2 1_555 1_555
H49_2 C74_2 1_555 1_555
H50_2 C74_2 1_555 1_555
C75_2 H51_2 1_555 1_555
H52_2 C75_2 1_555 1_555
H53_2 C75_2 1_555 1_555
C76_2 O30_2 1_555 1_555
H54_2 C76_2 1_555 1_555
C77_2 H55_2 1_555 1_555
H56_2 C77_2 1_555 1_555
H57_2 C77_2 1_555 1_555
C78_2 H58_2 1_555 1_555
H59_2 C78_2 1_555 1_555
H60_2 C78_2 1_555 1_555
C79_2 O31_2 1_555 1_555
H61_2 C79_2 1_555 1_555
C80_2 H62_2 1_555 1_555
H63_2 C80_2 1_555 1_555
H64_2 C80_2 1_555 1_555
C81_2 H65_2 1_555 1_555
H66_2 C81_2 1_555 1_555
H67_2 C81_2 1_555 1_555
C82_2 O32_2 1_555 1_555
H68_2 C82_2 1_555 1_555
C83_2 H69_2 1_555 1_555
H70_2 C83_2 1_555 1_555
H71_2 C83_2 1_555 1_555
C84_2 H72_2 1_555 1_555
H73_2 C84_2 1_555 1_555
H74_2 C84_2 1_555 1_555
N5_2 C73_2 1_555 1_555
N6_2 C76_2 1_555 1_555
N7_2 C79_2 1_555 1_555
N8_2 C82_2 1_555 1_555
Er7 O12_2 1_555 1_555
Er8 O20_2 1_555 1_555
Er14_2 O24_2 1_555 1_555
O33_2 Er2_2 1_555 1_555
O34_2 Er4_2 1_555 1_555
O35_2 Er4_2 1_555 1_555
O36_2 Er2_2 1_555 1_555
O37_2 Er4_2 1_555 1_555
O38_2 Er2_2 1_555 1_555
O40_2 Er6 1_555 1_555
O44_2 Er6 1_555 1_555
O10_2 C21_2 1_555 1_555
C24_2 C28_2 1_555 1_555
C26_2 C27_2 1_555 1_555
O18_2 Er4_2 1_555 1_555
C48_2 C49_2 1_555 1_555
C51_2 C52_2 1_555 1_555
O22_2 C53_2 1_555 1_555
C58_2 C59_2 1_555 1_555
C58_2 C60_2 1_555 1_555
C74_2 N5_2 1_555 1_555
C75_2 N5_2 1_555 1_555
C77_2 N6_2 1_555 1_555
C78_2 N6_2 1_555 1_555
C80_2 N7_2 1_555 1_555
C81_2 N7_2 1_555 1_555
C83_2 N8_2 1_555 1_555
C84_2 N8_2 1_555 1_555
O25_2 C71_2 1_555 1_555
O26_2 C71_2 1_555 1_555
O27_2 C72_2 1_555 1_555
O42 C72_2 1_555 1_555
C64_2 C63_2 1_555 1_555
C65_2 C64_2 1_555 1_555
C66_2 C65_2 1_555 1_555
H44_2 C66_2 1_555 1_555
C67_2 C66_2 1_555 1_555
C68_2 C67_2 1_555 1_555
H45_2 C68_2 1_555 1_555
C69_2 C68_2 1_555 1_555
C70_2 C65_2 1_555 1_555
H46_2 C70_2 1_555 1_555
C71_2 C67_2 1_555 1_555
C72_2 C69_2 1_555 1_555
Er10 O27_2 1_555 1_555
Er12_2 O25_2 1_555 1_555
O26_2 Er12_2 1_555 1_555
C69_2 C70_2 1_555 1_555
O17_3 C43_3 1_555 1_555
O18_3 C43_3 1_555 1_555
Er14_2 O17_3 1_555 1_555
O23_3 Er14_2 1_555 1_555
O34_2 C60_3 1_555 1_555
O36_2 C71_3 1_555 1_555
O38_2 C71_3 1_555 1_555
O40 C72_3 1_555 1_555
O28_2 C72_3 1_555 1_555
O31_3 Er14_2 1_555 1_555
O32_3 Er14_2 1_555 1_555
C55_3 C54_3 1_555 1_555
C56_3 C55_3 1_555 1_555
C57_3 C56_3 1_555 1_555
H42_3 C57_3 1_555 1_555
C58_3 C57_3 1_555 1_555
C59_3 C54_3 1_555 1_555
H43_3 C59_3 1_555 1_555
C60_3 O23_3 1_555 1_555
C61_3 C56_3 1_555 1_555
C62_3 C61_3 1_555 1_555
C63_3 C62_3 1_555 1_555
C64_3 C63_3 1_555 1_555
C65_3 C64_3 1_555 1_555
C66_3 C65_3 1_555 1_555
H44_3 C66_3 1_555 1_555
C67_3 C66_3 1_555 1_555
C68_3 C67_3 1_555 1_555
H45_3 C68_3 1_555 1_555
C69_3 C68_3 1_555 1_555
C70_3 C65_3 1_555 1_555
H46_3 C70_3 1_555 1_555
C71_3 C67_3 1_555 1_555
C72_3 C69_3 1_555 1_555
C78_3 H58_3 1_555 1_555
H59_3 C78_3 1_555 1_555
H60_3 C78_3 1_555 1_555
C79_3 O31_3 1_555 1_555
H61_3 C79_3 1_555 1_555
C80_3 H62_3 1_555 1_555
H63_3 C80_3 1_555 1_555
H64_3 C80_3 1_555 1_555
H67_3 C81_3 1_555 1_555
C82_3 O32_3 1_555 1_555
H68_3 C82_3 1_555 1_555
C83_3 H69_3 1_555 1_555
H70_3 C83_3 1_555 1_555
H71_3 C83_3 1_555 1_555
C84_3 H72_3 1_555 1_555
H73_3 C84_3 1_555 1_555
H74_3 C84_3 1_555 1_555
N7_3 C79_3 1_555 1_555
N8_3 C82_3 1_555 1_555
Er10 O28_2 1_555 1_555
O18_3 Er14_2 1_555 1_555
C58_3 C59_3 1_555 1_555
C58_3 C60_3 1_555 1_555
C69_3 C70_3 1_555 1_555
C80_3 N7_3 1_555 1_555
C81_3 N7_3 1_555 1_555
C83_3 N8_3 1_555 1_555
C84_3 N8_3 1_555 1_555
O19_3 C50_3 1_555 1_555
O44_2 C50_3 1_555 1_555
C44_3 C45_3 1_555 1_555
C45_3 H38_3 1_555 1_555
C46_3 C45_3 1_555 1_555
C47_3 C46_3 1_555 1_555
H39_3 C47_3 1_555 1_555
C48_3 C47_3 1_555 1_555
C49_3 C44_3 1_555 1_555
C50_3 C46_3 1_555 1_555
C51_3 C48_3 1_555 1_555
Er8 O19_3 1_555 1_555
O21_3 Er8 1_555 1_555
O22_3 Er8 1_555 1_555
O29_3 Er8 1_555 1_555
O30_3 Er8 1_555 1_555
C53_3 O21_3 1_555 1_555
C73_3 O29_3 1_555 1_555
H47_3 C73_3 1_555 1_555
C74_3 H48_3 1_555 1_555
H49_3 C74_3 1_555 1_555
H50_3 C74_3 1_555 1_555
C75_3 H51_3 1_555 1_555
H52_3 C75_3 1_555 1_555
H53_3 C75_3 1_555 1_555
C76_3 O30_3 1_555 1_555
H54_3 C76_3 1_555 1_555
C77_3 H55_3 1_555 1_555
H56_3 C77_3 1_555 1_555
H57_3 C77_3 1_555 1_555
N5_3 C73_3 1_555 1_555
N6_3 C76_3 1_555 1_555
O42_2 Er8 1_555 1_555
C48_3 C49_3 1_555 1_555
C51_3 C52_3 1_555 1_555
O22_3 C53_3 1_555 1_555
C74_3 N5_3 1_555 1_555
C75_3 N5_3 1_555 1_555
C77_3 N6_3 1_555 1_555
Er12_2 O3_3 1_555 1_555
O3_3 C8_3 1_555 1_555
O9_3 Er12_2 1_555 1_555
O10_3 Er12_2 1_555 1_555
C21_3 O9_3 1_555 1_555
H24_3 C37_3 1_555 1_555
O10_3 C21_3 1_555 1_555
O35_2 C19_3 1_555 1_555
O37_2 C19_3 1_555 1_555
O39 C20_3 1_555 1_555
O8_2 C20_3 1_555 1_555
C3_3 C2_3 1_555 1_555
C4_3 C3_3 1_555 1_555
C5_3 C4_3 1_555 1_555
H2_3 C5_3 1_555 1_555
C6_3 C5_3 1_555 1_555
C7_3 C2_3 1_555 1_555
C9_3 C4_3 1_555 1_555
C10_3 C9_3 1_555 1_555
C11_3 C10_3 1_555 1_555
C12_3 C11_3 1_555 1_555
C13_3 C12_3 1_555 1_555
C14_3 C13_3 1_555 1_555
H4_3 C14_3 1_555 1_555
C15_3 C14_3 1_555 1_555
C16_3 C15_3 1_555 1_555
H5_3 C16_3 1_555 1_555
C17_3 C16_3 1_555 1_555
C18_3 C13_3 1_555 1_555
H6_3 C18_3 1_555 1_555
C19_3 C15_3 1_555 1_555
C20_3 C17_3 1_555 1_555
C36_3 H21_3 1_555 1_555
H22_3 C36_3 1_555 1_555
H23_3 C36_3 1_555 1_555
C38_3 H25_3 1_555 1_555
H26_3 C38_3 1_555 1_555
H27_3 C38_3 1_555 1_555
C40_3 O16_3 1_555 1_555
H31_3 C40_3 1_555 1_555
C41_3 H32_3 1_555 1_555
H33_3 C41_3 1_555 1_555
H34_3 C41_3 1_555 1_555
C42_3 H35_3 1_555 1_555
H36_3 C42_3 1_555 1_555
H37_3 C42_3 1_555 1_555
N4_3 C40_3 1_555 1_555
Er9 O8_2 1_555 1_555
C6_3 C7_3 1_555 1_555
C17_3 C18_3 1_555 1_555
C38_3 N3_3 1_555 1_555
C41_3 N4_3 1_555 1_555
C42_3 N4_3 1_555 1_555
O43_2 C28_3 1_555 1_555
C23_3 C22_3 1_555 1_555
H7_3 C23_3 1_555 1_555
C24_3 C23_3 1_555 1_555
C25_3 C24_3 1_555 1_555
H8_3 C25_3 1_555 1_555
C26_3 C25_3 1_555 1_555
C27_3 C22_3 1_555 1_555
C28_3 O11_3 1_555 1_555
C29_3 C26_3 1_555 1_555
C30_3 C29_3 1_555 1_555
C24_3 C28_3 1_555 1_555
C26_3 C27_3 1_555 1_555
Er7 O1_3 1_555 1_555
O1_3 C1_3 1_555 1_555
O2_3 Er7 1_555 1_555
O13_3 Er7 1_555 1_555
O14_3 Er7 1_555 1_555
C1_3 O2_3 1_555 1_555
C31_3 O13_3 1_555 1_555
H10_3 C31_3 1_555 1_555
C32_3 H11_3 1_555 1_555
H12_3 C32_3 1_555 1_555
H13_3 C32_3 1_555 1_555
C33_3 H14_3 1_555 1_555
H15_3 C33_3 1_555 1_555
H16_3 C33_3 1_555 1_555
C34_3 O14_3 1_555 1_555
H17_3 C34_3 1_555 1_555
C35_3 H18_3 1_555 1_555
H19_3 C35_3 1_555 1_555
H20_3 C35_3 1_555 1_555
N1_3 C31_3 1_555 1_555
N2_3 C34_3 1_555 1_555
O41_2 Er7 1_555 1_555
C32_3 N1_3 1_555 1_555
C33_3 N1_3 1_555 1_555
C35_3 N2_3 1_555 1_555
O36 C71_4 1_555 1_555
O38 C71_4 1_555 1_555
O40_2 C72_4 1_555 1_555
O42_2 C72_4 1_555 1_555
C64_4 C63_4 1_555 1_555
C65_4 C64_4 1_555 1_555
C66_4 C65_4 1_555 1_555
H44_4 C66_4 1_555 1_555
C67_4 C66_4 1_555 1_555
C68_4 C67_4 1_555 1_555
H45_4 C68_4 1_555 1_555
C69_4 C68_4 1_555 1_555
C70_4 C65_4 1_555 1_555
H46_4 C70_4 1_555 1_555
C71_4 C67_4 1_555 1_555
C72_4 C69_4 1_555 1_555
C69_4 C70_4 1_555 1_555
Er12 O3_4 1_555 1_555
O3_4 C8_4 1_555 1_555
O9_4 Er12 1_555 1_555
O10_4 Er12 1_555 1_555
O43 C28_4 1_555 1_555
C21_4 O9_4 1_555 1_555
C22_4 C21_4 1_555 1_555
C23_4 C22_4 1_555 1_555
H7_4 C23_4 1_555 1_555
C24_4 C23_4 1_555 1_555
C25_4 C24_4 1_555 1_555
H8_4 C25_4 1_555 1_555
C26_4 C25_4 1_555 1_555
C27_4 C22_4 1_555 1_555
H9_4 C27_4 1_555 1_555
C28_4 O11_4 1_555 1_555
C29_4 C26_4 1_555 1_555
C30_4 C29_4 1_555 1_555
H24_4 C37_4 1_555 1_555
C39_4 H28_4 1_555 1_555
O17_4 C43_4 1_555 1_555
O18_4 C43_4 1_555 1_555
O19_4 C50_4 1_555 1_555
O44 C50_4 1_555 1_555
C43_4 C44_4 1_555 1_555
C44_4 C45_4 1_555 1_555
C45_4 H38_4 1_555 1_555
C46_4 C45_4 1_555 1_555
C47_4 C46_4 1_555 1_555
H39_4 C47_4 1_555 1_555
C48_4 C47_4 1_555 1_555
C49_4 C44_4 1_555 1_555
H40_4 C49_4 1_555 1_555
C50_4 C46_4 1_555 1_555
C51_4 C48_4 1_555 1_555
C52_4 C30_4 1_555 1_555
Er10 O19_4 1_555 1_555
Er14 O17_4 1_555 1_555
O21_4 Er10 1_555 1_555
O22_4 Er10 1_555 1_555
O23_4 Er14 1_555 1_555
O34 C60_4 1_555 1_555
O29_4 Er10 1_555 1_555
O30_4 Er10 1_555 1_555
O31_4 Er14 1_555 1_555
O32_4 Er14 1_555 1_555
C53_4 O21_4 1_555 1_555
C54_4 C53_4 1_555 1_555
C55_4 C54_4 1_555 1_555
H41_4 C55_4 1_555 1_555
C56_4 C55_4 1_555 1_555
C57_4 C56_4 1_555 1_555
H42_4 C57_4 1_555 1_555
C58_4 C57_4 1_555 1_555
C59_4 C54_4 1_555 1_555
H43_4 C59_4 1_555 1_555
C60_4 O23_4 1_555 1_555
C61_4 C56_4 1_555 1_555
C62_4 C61_4 1_555 1_555
C73_4 O29_4 1_555 1_555
H47_4 C73_4 1_555 1_555
C74_4 H48_4 1_555 1_555
H49_4 C74_4 1_555 1_555
H50_4 C74_4 1_555 1_555
C75_4 H51_4 1_555 1_555
H52_4 C75_4 1_555 1_555
H53_4 C75_4 1_555 1_555
C76_4 O30_4 1_555 1_555
H54_4 C76_4 1_555 1_555
C77_4 H55_4 1_555 1_555
H56_4 C77_4 1_555 1_555
H57_4 C77_4 1_555 1_555
C78_4 H58_4 1_555 1_555
H59_4 C78_4 1_555 1_555
H60_4 C78_4 1_555 1_555
C79_4 O31_4 1_555 1_555
H61_4 C79_4 1_555 1_555
C80_4 H62_4 1_555 1_555
H63_4 C80_4 1_555 1_555
H64_4 C80_4 1_555 1_555
C81_4 H65_4 1_555 1_555
H66_4 C81_4 1_555 1_555
H67_4 C81_4 1_555 1_555
C82_4 O32_4 1_555 1_555
H68_4 C82_4 1_555 1_555
C83_4 H69_4 1_555 1_555
H70_4 C83_4 1_555 1_555
H71_4 C83_4 1_555 1_555
C84_4 H72_4 1_555 1_555
H73_4 C84_4 1_555 1_555
H74_4 C84_4 1_555 1_555
N5_4 C73_4 1_555 1_555
N6_4 C76_4 1_555 1_555
N7_4 C79_4 1_555 1_555
N8_4 C82_4 1_555 1_555
O10_4 C21_4 1_555 1_555
C24_4 C28_4 1_555 1_555
C26_4 C27_4 1_555 1_555
O18_4 Er14 1_555 1_555
C48_4 C49_4 1_555 1_555
C51_4 C52_4 1_555 1_555
O22_4 C53_4 1_555 1_555
C58_4 C59_4 1_555 1_555
C58_4 C60_4 1_555 1_555
C74_4 N5_4 1_555 1_555
C75_4 N5_4 1_555 1_555
C77_4 N6_4 1_555 1_555
C78_4 N6_4 1_555 1_555
C80_4 N7_4 1_555 1_555
C81_4 N7_4 1_555 1_555
C83_4 N8_4 1_555 1_555
C84_4 N8_4 1_555 1_555
Er9 O1_4 1_555 1_555
O1_4 C1_4 1_555 1_555
O2_4 Er9 1_555 1_555
O13_4 Er9 1_555 1_555
O14_4 Er9 1_555 1_555
C1_4 O2_4 1_555 1_555
C2_4 C1_4 1_555 1_555
C3_4 C2_4 1_555 1_555
H1_4 C3_4 1_555 1_555
C4_4 C3_4 1_555 1_555
C5_4 C4_4 1_555 1_555
H2_4 C5_4 1_555 1_555
C6_4 C5_4 1_555 1_555
C7_4 C2_4 1_555 1_555
C9_4 C4_4 1_555 1_555
C10_4 C9_4 1_555 1_555
C31_4 O13_4 1_555 1_555
H10_4 C31_4 1_555 1_555
C32_4 H11_4 1_555 1_555
H12_4 C32_4 1_555 1_555
H13_4 C32_4 1_555 1_555
C33_4 H14_4 1_555 1_555
H15_4 C33_4 1_555 1_555
H16_4 C33_4 1_555 1_555
C34_4 O14_4 1_555 1_555
H17_4 C34_4 1_555 1_555
C35_4 H18_4 1_555 1_555
H19_4 C35_4 1_555 1_555
H20_4 C35_4 1_555 1_555
C36_4 H21_4 1_555 1_555
H22_4 C36_4 1_555 1_555
H23_4 C36_4 1_555 1_555
C38_4 H25_4 1_555 1_555
H26_4 C38_4 1_555 1_555
H27_4 C38_4 1_555 1_555
C40_4 O16_4 1_555 1_555
H31_4 C40_4 1_555 1_555
C41_4 H32_4 1_555 1_555
H33_4 C41_4 1_555 1_555
H34_4 C41_4 1_555 1_555
C42_4 H35_4 1_555 1_555
H36_4 C42_4 1_555 1_555
H37_4 C42_4 1_555 1_555
N1_4 C31_4 1_555 1_555
N2_4 C34_4 1_555 1_555
N4_4 C40_4 1_555 1_555
C6_4 C7_4 1_555 1_555
C32_4 N1_4 1_555 1_555
C33_4 N1_4 1_555 1_555
C35_4 N2_4 1_555 1_555
C36_4 N2_4 1_555 1_555
C38_4 N3_4 1_555 1_555
C41_4 N4_4 1_555 1_555
C42_4 N4_4 1_555 1_555
O35 C19_4 1_555 1_555
O37 C19_4 1_555 1_555
O39_2 C20_4 1_555 1_555
O41_2 C20_4 1_555 1_555
C12_4 C11_4 1_555 1_555
C13_4 C12_4 1_555 1_555
C14_4 C13_4 1_555 1_555
H4_4 C14_4 1_555 1_555
C15_4 C14_4 1_555 1_555
C16_4 C15_4 1_555 1_555
H5_4 C16_4 1_555 1_555
C17_4 C16_4 1_555 1_555
C18_4 C13_4 1_555 1_555
H6_4 C18_4 1_555 1_555
C19_4 C15_4 1_555 1_555
C20_4 C17_4 1_555 1_555
C17_4 C18_4 1_555 1_555

#END
