
###############################################################################
#
# This file contains modified crystal structure data generated from the
# MOF subset of the Cambridge Structural Database (CSD) v543 
# hosted by the Cambridge Crystallographic Data Centre (CCDC).
#
# This work is licensed under the Creative Commons
# Attribution-NonCommercial-ShareAlike 4.0 International License.
# To view a copy of this license, visit
# http://creativecommons.org/licenses/by-nc-sa/4.0/
# or send a letter to
# Creative Commons, PO Box 1866, Mountain View, CA 94042, USA.
#
# CIF created using the CSD Python API on 29 September 2022
# The structure has been converted into the P1 space group
# The structure has a 3D framework
# The original CSD entry EYOJOT is in the monoclinic crystal system
# The framework has been calculated to contain at least 10.0% void space
# The void calculation uses a probe of radius 1.32A, grid spacing 0.4
#
###############################################################################

data_EYOJOT
_chemical_formula_moiety         '(C230 H166 N14 O70 S14 Zn20)n'
_symmetry_cell_setting           triclinic
_symmetry_space_group_name_H-M   'P 1'
_symmetry_Int_Tables_number      1
_space_group_name_Hall           'P 1'
loop_
_symmetry_equiv_pos_site_id
_symmetry_equiv_pos_as_xyz
1 x,y,z
_cell_length_a                   24.670(5)
_cell_length_b                   23.940(4)
_cell_length_c                   17.201(5)
_cell_angle_alpha                90
_cell_angle_beta                 91.221(15)
_cell_angle_gamma                90
_cell_volume                     10156.6
loop_
_atom_site_label
_atom_site_type_symbol
_atom_site_fract_x
_atom_site_fract_y
_atom_site_fract_z
Zn1 Zn 0.57929(4) 0.0 0.68726(6)
O1 O 0.6441(2) 0.0 0.7531(4)
Zn10 Zn 0.64456(3) 0.06619(3) 0.81694(5)
Zn12 Zn 0.70787(5) 0.000 0.68519(8)
O18 O 0.5329(3) 0.0640(3) 0.7073(5)
O21 O 0.5900(5) 0.000 0.5765(5)
Zn1_2 Zn 0.57929(4) 1.0 0.68726(6)
Zn2 Zn 0.14456(3) 0.56619(3) 0.81694(5)
Zn3 Zn 0.20787(5) 0.500 0.68519(8)
O1_2 O 0.6441(2) 1.0 0.7531(4)
O2 O 0.5329(3) 0.9360(3) 0.7073(5)
O4 O 0.0900(5) 0.500 0.5765(5)
O5 O 0.5799(4) 0.8894(4) 0.7996(6)
O6 O 0.2041(4) 0.6152(5) 0.8038(7)
C2 C 0.1431(6) 0.500 0.0471(6)
C3 C 0.1403(7) 0.500 0.2960(7)
C4 C 0.1419(7) 0.500 0.2106(7)
C5 C 0.5382(4) 0.8971(4) 0.7560(6)
O7 O 0.2502(5) 0.5647(4) 0.7092(9)
C6 C 0.0927(6) 0.500 0.3333(9)
H1 H 0.0606(6) 0.500 0.3040(9)
C7 C 0.0901(7) 0.500 0.4128(9)
H2 H 0.0561(7) 0.500 0.4352(9)
C8 C 0.1356(8) 0.500 0.5470(7)
O8 O 0.1796(7) 0.500 0.5827(7)
C9 C 0.2892(4) 0.6488(5) 0.7594(8)
C10 C 0.3315(5) 0.6460(5) 0.7073(8)
H3 H 0.3327(5) 0.6171(5) 0.6713(8)
C11 C 0.3719(5) 0.6865(6) 0.7089(8)
C12 C 0.3701(4) 0.7297(5) 0.7627(8)
C13 C 0.3279(5) 0.7325(5) 0.8148(8)
H4 H 0.3267(5) 0.7615(5) 0.8508(8)
C14 C 0.2874(4) 0.6921(5) 0.8132(8)
H5 H 0.2592(4) 0.6939(5) 0.8480(8)
C15 C 0.2451(6) 0.6040(6) 0.7591(10)
C16 C 0.1350(7) 0.500 0.4609(7)
C17 C 0.1863(8) 0.500 0.3446(10)
C18 C 0.1842(9) 0.500 0.4233(11)
H6 H 0.2163(9) 0.500 0.4526(11)
C19 C 0.1430(9) 0.4517(8) 0.0888(6)
H7 H 0.1428(9) 0.4180(8) 0.0620(6)
C20 C 0.1432(8) 0.4504(8) 0.1712(7)
H8 H 0.1442(8) 0.4166(8) 0.1978(7)
C21 C 0.4562(6) 0.7726(5) 0.8160(8)
H9 H 0.4576(6) 0.7448(5) 0.8539(8)
C22 C 0.4964(5) 0.8132(5) 0.8141(7)
H10 H 0.5247(5) 0.8126(5) 0.8506(7)
C23 C 0.4942(3) 0.8547(4) 0.7575(6)
C24 C 0.4518(4) 0.8556(4) 0.7030(6)
H11 H 0.4503(4) 0.8833(4) 0.6652(6)
C25 C 0.4116(4) 0.8149(5) 0.7050(7)
H12 H 0.3832(4) 0.8155(5) 0.6685(7)
C26 C 0.4138(4) 0.7734(4) 0.7615(7)
C27 C 0.472000 0.657000 0.681000
S1 S 0.481000 0.621000 0.755000
N1 N 0.518000 0.665000 0.635000
C28 C 0.569000 0.640000 0.659000
H13 H 0.564000 0.595000 0.664000
H14 H 0.601000 0.650000 0.617000
H15 H 0.581000 0.656000 0.717000
C29 C 0.516000 0.698000 0.565000
H16 H 0.534000 0.675000 0.518000
H17 H 0.473000 0.709000 0.551000
H18 H 0.540000 0.736000 0.575000
O9 O 0.420000 0.684000 0.657000
O10 O 0.239000 0.500000 0.301000
C30 C 0.293000 0.500000 0.343000
S2 S 0.302000 0.500000 0.432000
N2 N 0.341000 0.500000 0.301000
C31 C 0.392000 0.500000 0.344000
H19 H 0.394240 0.532740 0.376130
H20 H 0.421380 0.500000 0.308290
C32 C 0.341000 0.500000 0.220000
H21 H 0.322650 0.467260 0.200840
H22 H 0.377700 0.500000 0.202520
C33 C 0.1430(9) 0.5483(8) 0.0888(6)
H23 H 0.1428(9) 0.5820(8) 0.0620(6)
C34 C 0.1432(8) 0.5496(8) 0.1712(7)
H24 H 0.1442(8) 0.5834(8) 0.1978(7)
H25 H 0.394240 0.467260 0.376130
H26 H 0.322650 0.532740 0.200840
Zn4 Zn 0.14456(3) 0.43381(3) 0.81694(5)
O13 O 0.5799(4) 0.1106(4) 0.7996(6)
O14 O 0.2041(4) 0.3848(5) 0.8038(7)
C35 C 0.5382(4) 0.1029(4) 0.7560(6)
O15 O 0.2502(5) 0.4353(4) 0.7092(9)
C36 C 0.2892(4) 0.3512(5) 0.7594(8)
C37 C 0.3315(5) 0.3540(5) 0.7073(8)
H27 H 0.3327(5) 0.3829(5) 0.6713(8)
C38 C 0.3719(5) 0.3135(6) 0.7089(8)
C39 C 0.3701(4) 0.2703(5) 0.7627(8)
C40 C 0.3279(5) 0.2675(5) 0.8148(8)
H28 H 0.3267(5) 0.2385(5) 0.8508(8)
C41 C 0.2874(4) 0.3079(5) 0.8132(8)
H29 H 0.2592(4) 0.3061(5) 0.8480(8)
C42 C 0.2451(6) 0.3960(6) 0.7591(10)
C43 C 0.4562(6) 0.2274(5) 0.8160(8)
H30 H 0.4576(6) 0.2552(5) 0.8539(8)
C44 C 0.4964(5) 0.1868(5) 0.8141(7)
H31 H 0.5247(5) 0.1874(5) 0.8506(7)
C45 C 0.4942(3) 0.1453(4) 0.7575(6)
C46 C 0.4518(4) 0.1444(4) 0.7030(6)
H32 H 0.4503(4) 0.1167(4) 0.6652(6)
C47 C 0.4116(4) 0.1851(5) 0.7050(7)
H33 H 0.3832(4) 0.1845(5) 0.6685(7)
C48 C 0.4138(4) 0.2266(4) 0.7615(7)
C49 C 0.472000 0.343000 0.681000
S3 S 0.481000 0.379000 0.755000
N3 N 0.518000 0.335000 0.635000
C50 C 0.569000 0.360000 0.659000
H34 H 0.564000 0.405000 0.664000
H35 H 0.601000 0.350000 0.617000
H36 H 0.581000 0.344000 0.717000
C51 C 0.516000 0.302000 0.565000
H37 H 0.534000 0.325000 0.518000
H38 H 0.473000 0.291000 0.551000
H39 H 0.540000 0.264000 0.575000
O16 O 0.420000 0.316000 0.657000
Zn6 Zn 0.07929(4) 0.5 0.68726(6)
Zn11 Zn 0.64456(3) 0.93381(3) 0.81694(5)
Zn12_2 Zn 0.70787(5) 1.000 0.68519(8)
O17 O 0.1441(2) 0.5 0.7531(4)
O19 O 0.1434(4) 0.4537(3) 0.9274(4)
O20 O 0.1434(4) 0.5463(3) 0.9274(4)
O21_2 O 0.5900(5) 1.000 0.5765(5)
O22 O 0.0799(4) 0.3894(4) 0.7996(6)
O23 O 0.0799(4) 0.6106(4) 0.7996(6)
C1 C 0.1445(6) 0.500 0.9609(7)
O2_2 O 0.0329(3) 0.4360(3) 0.7073(5)
C5_2 C 0.0382(4) 0.3971(4) 0.7560(6)
H10_2 H 0.0247(5) 0.3126(5) 0.8506(7)
N1_2 N 0.018000 0.165000 0.635000
C28_2 C 0.069000 0.140000 0.659000
H13_2 H 0.064000 0.095000 0.664000
H14_2 H 0.101000 0.150000 0.617000
H15_2 H 0.081000 0.156000 0.717000
C29_2 C 0.016000 0.198000 0.565000
H16_2 H 0.034000 0.175000 0.518000
H18_2 H 0.040000 0.236000 0.575000
O18_2 O 0.0329(3) 0.5640(3) 0.7073(5)
C35_2 C 0.0382(4) 0.6029(4) 0.7560(6)
H31_2 H 0.0247(5) 0.6874(5) 0.8506(7)
N3_2 N 0.018000 0.835000 0.635000
C50_2 C 0.069000 0.860000 0.659000
H34_2 H 0.064000 0.905000 0.664000
H35_2 H 0.101000 0.850000 0.617000
H36_2 H 0.081000 0.844000 0.717000
C51_2 C 0.016000 0.802000 0.565000
H37_2 H 0.034000 0.825000 0.518000
H39_2 H 0.040000 0.764000 0.575000
O6_2 O 0.7041(4) 0.1152(5) 0.8038(7)
C2_2 C 0.6431(6) 0.000 0.0471(6)
C3_2 C 0.6403(7) 0.000 0.2960(7)
C4_2 C 0.6419(7) 0.000 0.2106(7)
O7_2 O 0.7502(5) 0.0647(4) 0.7092(9)
C6_2 C 0.5927(6) 0.000 0.3333(9)
H1_2 H 0.5606(6) -0.000 0.3040(9)
C7_2 C 0.5901(7) 0.000 0.4128(9)
H2_2 H 0.5561(7) -0.000 0.4352(9)
C8_2 C 0.6356(8) -0.000 0.5470(7)
O8_2 O 0.6796(7) -0.000 0.5827(7)
C9_2 C 0.7892(4) 0.1488(5) 0.7594(8)
C10_2 C 0.8315(5) 0.1460(5) 0.7073(8)
H3_2 H 0.8327(5) 0.1171(5) 0.6713(8)
C11_2 C 0.8719(5) 0.1865(6) 0.7089(8)
C12_2 C 0.8701(4) 0.2297(5) 0.7627(8)
C13_2 C 0.8279(5) 0.2325(5) 0.8148(8)
H4_2 H 0.8267(5) 0.2615(5) 0.8508(8)
C14_2 C 0.7874(4) 0.1921(5) 0.8132(8)
H5_2 H 0.7592(4) 0.1939(5) 0.8480(8)
C15_2 C 0.7451(6) 0.1040(6) 0.7591(10)
C16_2 C 0.6350(7) 0.000 0.4609(7)
C17_2 C 0.6863(8) 0.000 0.3446(10)
C18_2 C 0.6842(9) 0.000 0.4233(11)
H6_2 H 0.7163(9) -0.000 0.4526(11)
C21_2 C 0.9562(6) 0.2726(5) 0.8160(8)
H9_2 H 0.9576(6) 0.2448(5) 0.8539(8)
C22_2 C 0.9964(5) 0.3132(5) 0.8141(7)
C23_2 C 0.9942(3) 0.3547(4) 0.7575(6)
C24_2 C 0.9518(4) 0.3556(4) 0.7030(6)
H11_2 H 0.9503(4) 0.3833(4) 0.6652(6)
C25_2 C 0.9116(4) 0.3149(5) 0.7050(7)
H12_2 H 0.8832(4) 0.3155(5) 0.6685(7)
C26_2 C 0.9138(4) 0.2734(4) 0.7615(7)
C27_2 C 0.972000 0.157000 0.681000
S1_2 S 0.981000 0.121000 0.755000
H17_2 H 0.973000 0.209000 0.551000
O9_2 O 0.920000 0.184000 0.657000
O10_2 O 0.739000 0.000000 0.301000
C30_2 C 0.793000 0.000000 0.343000
S2_2 S 0.802000 -0.000000 0.432000
N2_2 N 0.841000 0.000000 0.301000
C31_2 C 0.892000 0.000000 0.344000
H19_2 H 0.894240 0.032740 0.376130
H20_2 H 0.921380 0.000000 0.308290
C32_2 C 0.841000 0.000000 0.220000
H22_2 H 0.877700 0.000000 0.202520
C33_2 C 0.6430(9) 0.0483(8) 0.0888(6)
H23_2 H 0.6428(9) 0.0820(8) 0.0620(6)
C34_2 C 0.6432(8) 0.0496(8) 0.1712(7)
H24_2 H 0.6442(8) 0.0834(8) 0.1978(7)
H26_2 H 0.822650 0.032740 0.200840
O20_2 O 0.6434(4) 0.0463(3) 0.9274(4)
C1_2 C 0.6445(6) 0.000 0.9609(7)
C2_3 C 0.6431(6) 1.000 0.0471(6)
C3_3 C 0.6403(7) 1.000 0.2960(7)
C4_3 C 0.6419(7) 1.000 0.2106(7)
C6_3 C 0.5927(6) 1.000 0.3333(9)
H1_3 H 0.5606(6) 1.000 0.3040(9)
C7_3 C 0.5901(7) 1.000 0.4128(9)
H2_3 H 0.5561(7) 1.000 0.4352(9)
C8_3 C 0.6356(8) 1.000 0.5470(7)
O8_3 O 0.6796(7) 1.000 0.5827(7)
C16_3 C 0.6350(7) 1.000 0.4609(7)
C17_3 C 0.6863(8) 1.000 0.3446(10)
C18_3 C 0.6842(9) 1.000 0.4233(11)
H6_3 H 0.7163(9) 1.000 0.4526(11)
C19_2 C 0.6430(9) 0.9517(8) 0.0888(6)
H7_2 H 0.6428(9) 0.9180(8) 0.0620(6)
C20_2 C 0.6432(8) 0.9504(8) 0.1712(7)
H8_2 H 0.6442(8) 0.9166(8) 0.1978(7)
O10_3 O 0.739000 1.000000 0.301000
C30_3 C 0.793000 1.000000 0.343000
S2_3 S 0.802000 1.000000 0.432000
N2_3 N 0.841000 1.000000 0.301000
C31_3 C 0.892000 1.000000 0.344000
H20_3 H 0.921380 1.000000 0.308290
C32_3 C 0.841000 1.000000 0.220000
H21_2 H 0.822650 0.967260 0.200840
H22_3 H 0.877700 1.000000 0.202520
H25_2 H 0.894240 0.967260 0.376130
O14_2 O 0.7041(4) 0.8848(5) 0.8038(7)
O15_2 O 0.7502(5) 0.9353(4) 0.7092(9)
C36_2 C 0.7892(4) 0.8512(5) 0.7594(8)
C37_2 C 0.8315(5) 0.8540(5) 0.7073(8)
H27_2 H 0.8327(5) 0.8829(5) 0.6713(8)
C38_2 C 0.8719(5) 0.8135(6) 0.7089(8)
C39_2 C 0.8701(4) 0.7703(5) 0.7627(8)
C40_2 C 0.8279(5) 0.7675(5) 0.8148(8)
H28_2 H 0.8267(5) 0.7385(5) 0.8508(8)
C41_2 C 0.7874(4) 0.8079(5) 0.8132(8)
H29_2 H 0.7592(4) 0.8061(5) 0.8480(8)
C42_2 C 0.7451(6) 0.8960(6) 0.7591(10)
C43_2 C 0.9562(6) 0.7274(5) 0.8160(8)
H30_2 H 0.9576(6) 0.7552(5) 0.8539(8)
C44_2 C 0.9964(5) 0.6868(5) 0.8141(7)
C45_2 C 0.9942(3) 0.6453(4) 0.7575(6)
C46_2 C 0.9518(4) 0.6444(4) 0.7030(6)
H32_2 H 0.9503(4) 0.6167(4) 0.6652(6)
C47_2 C 0.9116(4) 0.6851(5) 0.7050(7)
H33_2 H 0.8832(4) 0.6845(5) 0.6685(7)
C48_2 C 0.9138(4) 0.7266(4) 0.7615(7)
C49_2 C 0.972000 0.843000 0.681000
S3_2 S 0.981000 0.879000 0.755000
H38_2 H 0.973000 0.791000 0.551000
O16_2 O 0.920000 0.816000 0.657000
O19_2 O 0.6434(4) 0.9537(3) 0.9274(4)
C1_3 C 0.6445(6) 1.000 0.9609(7)
Zn1_3 Zn 0.42071(4) 0.0 0.31274(6)
O1_3 O 0.3559(2) 0.0 0.2469(4)
Zn10_2 Zn 0.35544(3) 0.06619(3) 0.18306(5)
Zn12_3 Zn 0.29213(5) 0.000 0.31481(8)
O18_3 O 0.4671(3) 0.0640(3) 0.2927(5)
O21_3 O 0.4100(5) 0.000 0.4235(5)
O3 O 0.8566(4) 0.4537(3) 0.0726(4)
C1_4 C 0.8555(6) 0.500 0.0391(7)
O11 O 0.8566(4) 0.5463(3) 0.0726(4)
Zn7 Zn 0.85544(3) 0.56619(3) 0.18306(5)
Zn8 Zn 0.85544(3) 0.43381(3) 0.18306(5)
Zn1_4 Zn 0.42071(4) 1.0 0.31274(6)
Zn3_2 Zn 0.79213(5) 0.500 0.31481(8)
O1_4 O 0.3559(2) 1.0 0.2469(4)
O2_3 O 0.4671(3) 0.9360(3) 0.2927(5)
O4_2 O 0.9100(5) 0.500 0.4235(5)
O5_2 O 0.4201(4) 0.8894(4) 0.2004(6)
O6_3 O 0.7959(4) 0.6152(5) 0.1962(7)
C2_4 C 0.8569(6) 0.500 0.9529(6)
C3_4 C 0.8597(7) 0.500 0.7040(7)
C4_4 C 0.8581(7) 0.500 0.7894(7)
C5_3 C 0.4618(4) 0.8971(4) 0.2440(6)
O7_3 O 0.7498(5) 0.5647(4) 0.2908(9)
C6_4 C 0.9073(6) 0.500 0.6667(9)
H1_4 H 0.9394(6) 0.500 0.6960(9)
C7_4 C 0.9099(7) 0.500 0.5872(9)
H2_4 H 0.9439(7) 0.500 0.5648(9)
C8_4 C 0.8644(8) 0.500 0.4530(7)
O8_4 O 0.8204(7) 0.500 0.4173(7)
C9_3 C 0.7108(4) 0.6488(5) 0.2406(8)
C10_3 C 0.6685(5) 0.6460(5) 0.2927(8)
H3_3 H 0.6673(5) 0.6171(5) 0.3287(8)
C11_3 C 0.6281(5) 0.6865(6) 0.2911(8)
C12_3 C 0.6299(4) 0.7297(5) 0.2373(8)
C13_3 C 0.6721(5) 0.7325(5) 0.1852(8)
H4_3 H 0.6733(5) 0.7615(5) 0.1492(8)
C14_3 C 0.7126(4) 0.6921(5) 0.1868(8)
H5_3 H 0.7408(4) 0.6939(5) 0.1520(8)
C15_3 C 0.7549(6) 0.6040(6) 0.2409(10)
C16_4 C 0.8650(7) 0.500 0.5391(7)
C17_4 C 0.8137(8) 0.500 0.6554(10)
C18_4 C 0.8158(9) 0.500 0.5767(11)
H6_4 H 0.7837(9) 0.500 0.5474(11)
C19_3 C 0.8570(9) 0.4517(8) 0.9112(6)
H7_3 H 0.8572(9) 0.4180(8) 0.9380(6)
C20_3 C 0.8568(8) 0.4504(8) 0.8288(7)
H8_3 H 0.8558(8) 0.4166(8) 0.8022(7)
C21_3 C 0.5438(6) 0.7726(5) 0.1840(8)
H9_3 H 0.5424(6) 0.7448(5) 0.1461(8)
C22_3 C 0.5036(5) 0.8132(5) 0.1859(7)
H10_3 H 0.4753(5) 0.8126(5) 0.1494(7)
C23_3 C 0.5058(3) 0.8547(4) 0.2425(6)
C24_3 C 0.5482(4) 0.8556(4) 0.2970(6)
H11_3 H 0.5497(4) 0.8833(4) 0.3348(6)
C25_3 C 0.5884(4) 0.8149(5) 0.2950(7)
H12_3 H 0.6168(4) 0.8155(5) 0.3315(7)
C26_3 C 0.5862(4) 0.7734(4) 0.2385(7)
C27_3 C 0.528000 0.657000 0.319000
S1_3 S 0.519000 0.621000 0.245000
N1_3 N 0.482000 0.665000 0.365000
C28_3 C 0.431000 0.640000 0.341000
H13_3 H 0.436000 0.595000 0.336000
H14_3 H 0.399000 0.650000 0.383000
H15_3 H 0.419000 0.656000 0.283000
C29_3 C 0.484000 0.698000 0.435000
H16_3 H 0.466000 0.675000 0.482000
H17_3 H 0.527000 0.709000 0.449000
H18_3 H 0.460000 0.736000 0.425000
O9_3 O 0.580000 0.684000 0.343000
O10_4 O 0.761000 0.500000 0.699000
C30_4 C 0.707000 0.500000 0.657000
S2_4 S 0.698000 0.500000 0.568000
N2_4 N 0.659000 0.500000 0.699000
C31_4 C 0.608000 0.500000 0.656000
H19_3 H 0.605760 0.532740 0.623870
H20_4 H 0.578620 0.500000 0.691710
C32_4 C 0.659000 0.500000 0.780000
H21_3 H 0.677350 0.467260 0.799160
H22_4 H 0.622300 0.500000 0.797480
C33_3 C 0.8570(9) 0.5483(8) 0.9112(6)
H23_3 H 0.8572(9) 0.5820(8) 0.9380(6)
C34_3 C 0.8568(8) 0.5496(8) 0.8288(7)
H24_3 H 0.8558(8) 0.5834(8) 0.8022(7)
H25_3 H 0.605760 0.467260 0.623870
H26_3 H 0.677350 0.532740 0.799160
O13_2 O 0.4201(4) 0.1106(4) 0.2004(6)
O14_3 O 0.7959(4) 0.3848(5) 0.1962(7)
C35_3 C 0.4618(4) 0.1029(4) 0.2440(6)
O15_3 O 0.7498(5) 0.4353(4) 0.2908(9)
C36_3 C 0.7108(4) 0.3512(5) 0.2406(8)
C37_3 C 0.6685(5) 0.3540(5) 0.2927(8)
H27_3 H 0.6673(5) 0.3829(5) 0.3287(8)
C38_3 C 0.6281(5) 0.3135(6) 0.2911(8)
C39_3 C 0.6299(4) 0.2703(5) 0.2373(8)
C40_3 C 0.6721(5) 0.2675(5) 0.1852(8)
H28_3 H 0.6733(5) 0.2385(5) 0.1492(8)
C41_3 C 0.7126(4) 0.3079(5) 0.1868(8)
H29_3 H 0.7408(4) 0.3061(5) 0.1520(8)
C42_3 C 0.7549(6) 0.3960(6) 0.2409(10)
C43_3 C 0.5438(6) 0.2274(5) 0.1840(8)
H30_3 H 0.5424(6) 0.2552(5) 0.1461(8)
C44_3 C 0.5036(5) 0.1868(5) 0.1859(7)
H31_3 H 0.4753(5) 0.1874(5) 0.1494(7)
C45_3 C 0.5058(3) 0.1453(4) 0.2425(6)
C46_3 C 0.5482(4) 0.1444(4) 0.2970(6)
H32_3 H 0.5497(4) 0.1167(4) 0.3348(6)
C47_3 C 0.5884(4) 0.1851(5) 0.2950(7)
H33_3 H 0.6168(4) 0.1845(5) 0.3315(7)
C48_3 C 0.5862(4) 0.2266(4) 0.2385(7)
C49_3 C 0.528000 0.343000 0.319000
S3_3 S 0.519000 0.379000 0.245000
N3_3 N 0.482000 0.335000 0.365000
C50_3 C 0.431000 0.360000 0.341000
H34_3 H 0.436000 0.405000 0.336000
H35_3 H 0.399000 0.350000 0.383000
H36_3 H 0.419000 0.344000 0.283000
C51_3 C 0.484000 0.302000 0.435000
H37_3 H 0.466000 0.325000 0.482000
H38_3 H 0.527000 0.291000 0.449000
H39_3 H 0.460000 0.264000 0.425000
O16_3 O 0.580000 0.316000 0.343000
Zn6_2 Zn 0.92071(4) 0.5 0.31274(6)
Zn11_2 Zn 0.35544(3) 0.93381(3) 0.18306(5)
Zn12_4 Zn 0.29213(5) 1.000 0.31481(8)
O17_2 O 0.8559(2) 0.5 0.2469(4)
O21_4 O 0.4100(5) 1.000 0.4235(5)
O22_2 O 0.9201(4) 0.3894(4) 0.2004(6)
O23_2 O 0.9201(4) 0.6106(4) 0.2004(6)
C1_5 C 0.3555(6) 0.000 0.0391(7)
O11_2 O 0.3566(4) 0.0463(3) 0.0726(4)
O6_4 O 0.2959(4) 0.1152(5) 0.1962(7)
C2_5 C 0.3569(6) 0.000 0.9529(6)
C3_5 C 0.3597(7) 0.000 0.7040(7)
C4_5 C 0.3581(7) 0.000 0.7894(7)
O7_4 O 0.2498(5) 0.0647(4) 0.2908(9)
C6_5 C 0.4073(6) 0.000 0.6667(9)
H1_5 H 0.4394(6) 0.000 0.6960(9)
C7_5 C 0.4099(7) 0.000 0.5872(9)
H2_5 H 0.4439(7) -0.000 0.5648(9)
C8_5 C 0.3644(8) 0.000 0.4530(7)
O8_5 O 0.3204(7) 0.000 0.4173(7)
C9_4 C 0.2108(4) 0.1488(5) 0.2406(8)
C10_4 C 0.1685(5) 0.1460(5) 0.2927(8)
H3_4 H 0.1673(5) 0.1171(5) 0.3287(8)
C11_4 C 0.1281(5) 0.1865(6) 0.2911(8)
C12_4 C 0.1299(4) 0.2297(5) 0.2373(8)
C13_4 C 0.1721(5) 0.2325(5) 0.1852(8)
H4_4 H 0.1733(5) 0.2615(5) 0.1492(8)
C14_4 C 0.2126(4) 0.1921(5) 0.1868(8)
H5_4 H 0.2408(4) 0.1939(5) 0.1520(8)
C15_4 C 0.2549(6) 0.1040(6) 0.2409(10)
C16_5 C 0.3650(7) -0.000 0.5391(7)
C17_5 C 0.3137(8) 0.000 0.6554(10)
C18_5 C 0.3158(9) -0.000 0.5767(11)
H6_5 H 0.2837(9) 0.000 0.5474(11)
C21_4 C 0.0438(6) 0.2726(5) 0.1840(8)
H9_4 H 0.0424(6) 0.2448(5) 0.1461(8)
C22_4 C 0.0036(5) 0.3132(5) 0.1859(7)
C23_4 C 0.0058(3) 0.3547(4) 0.2425(6)
C24_4 C 0.0482(4) 0.3556(4) 0.2970(6)
H11_4 H 0.0497(4) 0.3833(4) 0.3348(6)
C25_4 C 0.0884(4) 0.3149(5) 0.2950(7)
H12_4 H 0.1168(4) 0.3155(5) 0.3315(7)
C26_4 C 0.0862(4) 0.2734(4) 0.2385(7)
C27_4 C 0.028000 0.157000 0.319000
S1_4 S 0.019000 0.121000 0.245000
H17_4 H 0.027000 0.209000 0.449000
O9_4 O 0.080000 0.184000 0.343000
O10_5 O 0.261000 0.000000 0.699000
C30_5 C 0.207000 0.000000 0.657000
S2_5 S 0.198000 0.000000 0.568000
N2_5 N 0.159000 0.000000 0.699000
C31_5 C 0.108000 -0.000000 0.656000
H19_4 H 0.105760 0.032740 0.623870
H20_5 H 0.078620 0.000000 0.691710
C32_5 C 0.159000 0.000000 0.780000
H22_5 H 0.122300 0.000000 0.797480
C33_4 C 0.3570(9) 0.0483(8) 0.9112(6)
H23_4 H 0.3572(9) 0.0820(8) 0.9380(6)
C34_4 C 0.3568(8) 0.0496(8) 0.8288(7)
H24_4 H 0.3558(8) 0.0834(8) 0.8022(7)
H26_4 H 0.177350 0.032740 0.799160
O3_2 O 0.3566(4) 0.9537(3) 0.0726(4)
C1_6 C 0.3555(6) 1.000 0.0391(7)
C2_6 C 0.3569(6) 1.000 0.9529(6)
C3_6 C 0.3597(7) 1.000 0.7040(7)
C4_6 C 0.3581(7) 1.000 0.7894(7)
C6_6 C 0.4073(6) 1.000 0.6667(9)
H1_6 H 0.4394(6) 1.000 0.6960(9)
C7_6 C 0.4099(7) 1.000 0.5872(9)
H2_6 H 0.4439(7) 1.000 0.5648(9)
C8_6 C 0.3644(8) 1.000 0.4530(7)
O8_6 O 0.3204(7) 1.000 0.4173(7)
C16_6 C 0.3650(7) 1.000 0.5391(7)
C17_6 C 0.3137(8) 1.000 0.6554(10)
C18_6 C 0.3158(9) 1.000 0.5767(11)
H6_6 H 0.2837(9) 1.000 0.5474(11)
C19_4 C 0.3570(9) 0.9517(8) 0.9112(6)
H7_4 H 0.3572(9) 0.9180(8) 0.9380(6)
C20_4 C 0.3568(8) 0.9504(8) 0.8288(7)
H8_4 H 0.3558(8) 0.9166(8) 0.8022(7)
O10_6 O 0.261000 1.000000 0.699000
C30_6 C 0.207000 1.000000 0.657000
S2_6 S 0.198000 1.000000 0.568000
N2_6 N 0.159000 1.000000 0.699000
C31_6 C 0.108000 1.000000 0.656000
H20_6 H 0.078620 1.000000 0.691710
C32_6 C 0.159000 1.000000 0.780000
H21_4 H 0.177350 0.967260 0.799160
H22_6 H 0.122300 1.000000 0.797480
H25_4 H 0.105760 0.967260 0.623870
O14_4 O 0.2959(4) 0.8848(5) 0.1962(7)
O15_4 O 0.2498(5) 0.9353(4) 0.2908(9)
C36_4 C 0.2108(4) 0.8512(5) 0.2406(8)
C37_4 C 0.1685(5) 0.8540(5) 0.2927(8)
H27_4 H 0.1673(5) 0.8829(5) 0.3287(8)
C38_4 C 0.1281(5) 0.8135(6) 0.2911(8)
C39_4 C 0.1299(4) 0.7703(5) 0.2373(8)
C40_4 C 0.1721(5) 0.7675(5) 0.1852(8)
H28_4 H 0.1733(5) 0.7385(5) 0.1492(8)
C41_4 C 0.2126(4) 0.8079(5) 0.1868(8)
H29_4 H 0.2408(4) 0.8061(5) 0.1520(8)
C42_4 C 0.2549(6) 0.8960(6) 0.2409(10)
C43_4 C 0.0438(6) 0.7274(5) 0.1840(8)
H30_4 H 0.0424(6) 0.7552(5) 0.1461(8)
C44_4 C 0.0036(5) 0.6868(5) 0.1859(7)
C45_4 C 0.0058(3) 0.6453(4) 0.2425(6)
C46_4 C 0.0482(4) 0.6444(4) 0.2970(6)
H32_4 H 0.0497(4) 0.6167(4) 0.3348(6)
C47_4 C 0.0884(4) 0.6851(5) 0.2950(7)
H33_4 H 0.1168(4) 0.6845(5) 0.3315(7)
C48_4 C 0.0862(4) 0.7266(4) 0.2385(7)
C49_4 C 0.028000 0.843000 0.319000
S3_4 S 0.019000 0.879000 0.245000
H38_4 H 0.027000 0.791000 0.449000
O16_4 O 0.080000 0.816000 0.343000
O2_4 O 0.9671(3) 0.4360(3) 0.2927(5)
C5_4 C 0.9618(4) 0.3971(4) 0.2440(6)
H10_4 H 0.9753(5) 0.3126(5) 0.1494(7)
N1_4 N 0.982000 0.165000 0.365000
C28_4 C 0.931000 0.140000 0.341000
H13_4 H 0.936000 0.095000 0.336000
H14_4 H 0.899000 0.150000 0.383000
H15_4 H 0.919000 0.156000 0.283000
C29_4 C 0.984000 0.198000 0.435000
H16_4 H 0.966000 0.175000 0.482000
H18_4 H 0.960000 0.236000 0.425000
O18_4 O 0.9671(3) 0.5640(3) 0.2927(5)
C35_4 C 0.9618(4) 0.6029(4) 0.2440(6)
H31_4 H 0.9753(5) 0.6874(5) 0.1494(7)
N3_4 N 0.982000 0.835000 0.365000
C50_4 C 0.931000 0.860000 0.341000
H34_4 H 0.936000 0.905000 0.336000
H35_4 H 0.899000 0.850000 0.383000
H36_4 H 0.919000 0.844000 0.283000
C51_4 C 0.984000 0.802000 0.435000
H37_4 H 0.966000 0.825000 0.482000
H39_4 H 0.960000 0.764000 0.425000
loop_
_geom_bond_atom_site_label_1
_geom_bond_atom_site_label_2
_geom_bond_site_symmetry_1
_geom_bond_site_symmetry_2
Zn1 O1 1_555 1_555
O1 Zn10 1_555 1_555
Zn12 O1 1_555 1_555
O18 Zn1 1_555 1_555
O21 Zn1 1_555 1_555
Zn1_2 O1_2 1_555 1_555
Zn2 O6 1_555 1_555
Zn3 O7 1_555 1_555
O2 Zn1_2 1_555 1_555
O4 C8 1_555 1_555
O5 C5 1_555 1_555
O6 C15 1_555 1_555
C2 C19 1_555 1_555
C3 C4 1_555 1_555
C4 C20 1_555 1_555
C5 O2 1_555 1_555
O7 C15 1_555 1_555
C6 C3 1_555 1_555
H1 C6 1_555 1_555
C7 C6 1_555 1_555
H2 C7 1_555 1_555
C8 O8 1_555 1_555
O8 Zn3 1_555 1_555
C9 C10 1_555 1_555
C10 H3 1_555 1_555
C11 C10 1_555 1_555
C12 C11 1_555 1_555
C13 C12 1_555 1_555
H4 C13 1_555 1_555
C14 C9 1_555 1_555
H5 C14 1_555 1_555
C15 C9 1_555 1_555
C16 C7 1_555 1_555
C17 C3 1_555 1_555
C18 C16 1_555 1_555
H6 C18 1_555 1_555
C19 H7 1_555 1_555
C20 C19 1_555 1_555
H8 C20 1_555 1_555
C21 H9 1_555 1_555
C22 C21 1_555 1_555
H10 C22 1_555 1_555
C23 C5 1_555 1_555
C24 C23 1_555 1_555
H11 C24 1_555 1_555
C25 C24 1_555 1_555
H12 C25 1_555 1_555
C26 C12 1_555 1_555
C27 S1 1_555 1_555
N1 C27 1_555 1_555
C28 N1 1_555 1_555
H13 C28 1_555 1_555
H14 C28 1_555 1_555
H15 C28 1_555 1_555
C29 N1 1_555 1_555
H16 C29 1_555 1_555
H17 C29 1_555 1_555
H18 C29 1_555 1_555
O9 C11 1_555 1_555
O10 C17 1_555 1_555
C30 O10 1_555 1_555
S2 C30 1_555 1_555
N2 C30 1_555 1_555
C31 N2 1_555 1_555
H19 C31 1_555 1_555
H20 C31 1_555 1_555
C32 N2 1_555 1_555
H21 C32 1_555 1_555
H22 C32 1_555 1_555
C33 C2 1_555 1_555
H23 C33 1_555 1_555
C34 C4 1_555 1_555
H24 C34 1_555 1_555
H25 C31 1_555 1_555
H26 C32 1_555 1_555
Zn4 O14 1_555 1_555
O18 C35 1_555 1_555
O13 C35 1_555 1_555
O14 C42 1_555 1_555
C35 C45 1_555 1_555
O15 Zn3 1_555 1_555
C36 C37 1_555 1_555
C37 H27 1_555 1_555
C38 C37 1_555 1_555
C39 C38 1_555 1_555
C40 C39 1_555 1_555
H28 C40 1_555 1_555
C41 C36 1_555 1_555
H29 C41 1_555 1_555
C42 O15 1_555 1_555
C43 H30 1_555 1_555
C44 C43 1_555 1_555
H31 C44 1_555 1_555
C45 C44 1_555 1_555
C46 C45 1_555 1_555
H32 C46 1_555 1_555
C47 C46 1_555 1_555
H33 C47 1_555 1_555
C48 C39 1_555 1_555
C49 S3 1_555 1_555
N3 C49 1_555 1_555
C50 N3 1_555 1_555
H34 C50 1_555 1_555
H35 C50 1_555 1_555
H36 C50 1_555 1_555
C51 N3 1_555 1_555
H37 C51 1_555 1_555
H38 C51 1_555 1_555
H39 C51 1_555 1_555
O16 C38 1_555 1_555
Zn6 O4 1_555 1_555
Zn10 O13 1_555 1_555
Zn11 O1_2 1_555 1_555
Zn12_2 O1_2 1_555 1_555
O17 Zn2 1_555 1_555
O19 Zn4 1_555 1_555
O20 Zn2 1_555 1_555
O21_2 Zn1_2 1_555 1_555
O22 Zn4 1_555 1_555
O23 Zn2 1_555 1_555
Zn3 O17 1_555 1_555
O5 Zn11 1_555 1_555
C8 C16 1_555 1_555
C13 C14 1_555 1_555
C17 C18 1_555 1_555
C21 C26 1_555 1_555
C22 C23 1_555 1_555
C25 C26 1_555 1_555
C27 O9 1_555 1_555
C33 C34 1_555 1_555
Zn4 O17 1_555 1_555
C36 C42 1_555 1_555
C40 C41 1_555 1_555
C43 C48 1_555 1_555
C47 C48 1_555 1_555
C49 O16 1_555 1_555
Zn6 O17 1_555 1_555
O19 C1 1_555 1_555
O20 C1 1_555 1_555
O2_2 Zn6 1_555 1_555
O22 C5_2 1_555 1_555
C5_2 O2_2 1_555 1_555
C28_2 N1_2 1_555 1_555
H13_2 C28_2 1_555 1_555
H14_2 C28_2 1_555 1_555
H15_2 C28_2 1_555 1_555
C29_2 N1_2 1_555 1_555
H16_2 C29_2 1_555 1_555
H18_2 C29_2 1_555 1_555
O18_2 Zn6 1_555 1_555
O18_2 C35_2 1_555 1_555
O23 C35_2 1_555 1_555
C50_2 N3_2 1_555 1_555
H34_2 C50_2 1_555 1_555
H35_2 C50_2 1_555 1_555
H36_2 C50_2 1_555 1_555
C51_2 N3_2 1_555 1_555
H37_2 C51_2 1_555 1_555
H39_2 C51_2 1_555 1_555
Zn10 O6_2 1_555 1_555
Zn12 O7_2 1_555 1_555
O21 C8_2 1_555 1_555
O6_2 C15_2 1_555 1_555
C3_2 C4_2 1_555 1_555
O7_2 C15_2 1_555 1_555
C6_2 C3_2 1_555 1_555
H1_2 C6_2 1_555 1_555
C7_2 C6_2 1_555 1_555
H2_2 C7_2 1_555 1_555
C8_2 O8_2 1_555 1_555
O8_2 Zn12 1_555 1_555
C9_2 C10_2 1_555 1_555
C10_2 H3_2 1_555 1_555
C11_2 C10_2 1_555 1_555
C12_2 C11_2 1_555 1_555
C13_2 C12_2 1_555 1_555
H4_2 C13_2 1_555 1_555
C14_2 C9_2 1_555 1_555
H5_2 C14_2 1_555 1_555
C15_2 C9_2 1_555 1_555
C16_2 C7_2 1_555 1_555
C17_2 C3_2 1_555 1_555
C18_2 C16_2 1_555 1_555
H6_2 C18_2 1_555 1_555
C21_2 H9_2 1_555 1_555
C22_2 C21_2 1_555 1_555
C24_2 C23_2 1_555 1_555
H11_2 C24_2 1_555 1_555
C25_2 C24_2 1_555 1_555
H12_2 C25_2 1_555 1_555
C26_2 C12_2 1_555 1_555
C27_2 S1_2 1_555 1_555
O9_2 C11_2 1_555 1_555
O10_2 C17_2 1_555 1_555
C30_2 O10_2 1_555 1_555
S2_2 C30_2 1_555 1_555
N2_2 C30_2 1_555 1_555
C31_2 N2_2 1_555 1_555
H19_2 C31_2 1_555 1_555
H20_2 C31_2 1_555 1_555
C32_2 N2_2 1_555 1_555
H22_2 C32_2 1_555 1_555
C33_2 C2_2 1_555 1_555
H23_2 C33_2 1_555 1_555
C34_2 C4_2 1_555 1_555
H24_2 C34_2 1_555 1_555
H26_2 C32_2 1_555 1_555
O20_2 Zn10 1_555 1_555
C8_2 C16_2 1_555 1_555
C13_2 C14_2 1_555 1_555
C17_2 C18_2 1_555 1_555
C21_2 C26_2 1_555 1_555
C22_2 C23_2 1_555 1_555
C25_2 C26_2 1_555 1_555
C27_2 O9_2 1_555 1_555
C33_2 C34_2 1_555 1_555
O20_2 C1_2 1_555 1_555
O21_2 C8_3 1_555 1_555
C2_3 C19_2 1_555 1_555
C3_3 C4_3 1_555 1_555
C4_3 C20_2 1_555 1_555
C6_3 C3_3 1_555 1_555
H1_3 C6_3 1_555 1_555
C7_3 C6_3 1_555 1_555
H2_3 C7_3 1_555 1_555
C8_3 O8_3 1_555 1_555
O8_3 Zn12_2 1_555 1_555
C16_3 C7_3 1_555 1_555
C17_3 C3_3 1_555 1_555
C18_3 C16_3 1_555 1_555
H6_3 C18_3 1_555 1_555
C19_2 H7_2 1_555 1_555
C20_2 C19_2 1_555 1_555
H8_2 C20_2 1_555 1_555
O10_3 C17_3 1_555 1_555
C30_3 O10_3 1_555 1_555
S2_3 C30_3 1_555 1_555
N2_3 C30_3 1_555 1_555
C31_3 N2_3 1_555 1_555
H20_3 C31_3 1_555 1_555
C32_3 N2_3 1_555 1_555
H21_2 C32_3 1_555 1_555
H22_3 C32_3 1_555 1_555
H25_2 C31_3 1_555 1_555
Zn11 O14_2 1_555 1_555
O14_2 C42_2 1_555 1_555
O15_2 Zn12_2 1_555 1_555
C36_2 C37_2 1_555 1_555
C37_2 H27_2 1_555 1_555
C38_2 C37_2 1_555 1_555
C39_2 C38_2 1_555 1_555
C40_2 C39_2 1_555 1_555
H28_2 C40_2 1_555 1_555
C41_2 C36_2 1_555 1_555
H29_2 C41_2 1_555 1_555
C42_2 O15_2 1_555 1_555
C43_2 H30_2 1_555 1_555
C44_2 C43_2 1_555 1_555
C45_2 C44_2 1_555 1_555
C46_2 C45_2 1_555 1_555
H32_2 C46_2 1_555 1_555
C47_2 C46_2 1_555 1_555
H33_2 C47_2 1_555 1_555
C48_2 C39_2 1_555 1_555
C49_2 S3_2 1_555 1_555
O16_2 C38_2 1_555 1_555
O19_2 Zn11 1_555 1_555
C8_3 C16_3 1_555 1_555
C17_3 C18_3 1_555 1_555
C36_2 C42_2 1_555 1_555
C40_2 C41_2 1_555 1_555
C43_2 C48_2 1_555 1_555
C47_2 C48_2 1_555 1_555
C49_2 O16_2 1_555 1_555
O19_2 C1_3 1_555 1_555
Zn1_3 O1_3 1_555 1_555
O1_3 Zn10_2 1_555 1_555
Zn12_3 O1_3 1_555 1_555
O18_3 Zn1_3 1_555 1_555
O21_3 Zn1_3 1_555 1_555
O3 C1_4 1_555 1_555
O11 C1_4 1_555 1_555
Zn7 O11 1_555 1_555
Zn8 O3 1_555 1_555
Zn1_4 O1_4 1_555 1_555
Zn7 O6_3 1_555 1_555
Zn3_2 O7_3 1_555 1_555
O2_3 Zn1_4 1_555 1_555
O4_2 C8_4 1_555 1_555
O5_2 C5_3 1_555 1_555
O6_3 C15_3 1_555 1_555
C2_4 C19_3 1_555 1_555
C3_4 C4_4 1_555 1_555
C4_4 C20_3 1_555 1_555
C5_3 O2_3 1_555 1_555
O7_3 C15_3 1_555 1_555
C6_4 C3_4 1_555 1_555
H1_4 C6_4 1_555 1_555
C7_4 C6_4 1_555 1_555
H2_4 C7_4 1_555 1_555
C8_4 O8_4 1_555 1_555
O8_4 Zn3_2 1_555 1_555
C9_3 C10_3 1_555 1_555
C10_3 H3_3 1_555 1_555
C11_3 C10_3 1_555 1_555
C12_3 C11_3 1_555 1_555
C13_3 C12_3 1_555 1_555
H4_3 C13_3 1_555 1_555
C14_3 C9_3 1_555 1_555
H5_3 C14_3 1_555 1_555
C15_3 C9_3 1_555 1_555
C16_4 C7_4 1_555 1_555
C17_4 C3_4 1_555 1_555
C18_4 C16_4 1_555 1_555
H6_4 C18_4 1_555 1_555
C19_3 H7_3 1_555 1_555
C20_3 C19_3 1_555 1_555
H8_3 C20_3 1_555 1_555
C21_3 H9_3 1_555 1_555
C22_3 C21_3 1_555 1_555
H10_3 C22_3 1_555 1_555
C23_3 C5_3 1_555 1_555
C24_3 C23_3 1_555 1_555
H11_3 C24_3 1_555 1_555
C25_3 C24_3 1_555 1_555
H12_3 C25_3 1_555 1_555
C26_3 C12_3 1_555 1_555
C27_3 S1_3 1_555 1_555
N1_3 C27_3 1_555 1_555
C28_3 N1_3 1_555 1_555
H13_3 C28_3 1_555 1_555
H14_3 C28_3 1_555 1_555
H15_3 C28_3 1_555 1_555
C29_3 N1_3 1_555 1_555
H16_3 C29_3 1_555 1_555
H17_3 C29_3 1_555 1_555
H18_3 C29_3 1_555 1_555
O9_3 C11_3 1_555 1_555
O10_4 C17_4 1_555 1_555
C30_4 O10_4 1_555 1_555
S2_4 C30_4 1_555 1_555
N2_4 C30_4 1_555 1_555
C31_4 N2_4 1_555 1_555
H19_3 C31_4 1_555 1_555
H20_4 C31_4 1_555 1_555
C32_4 N2_4 1_555 1_555
H21_3 C32_4 1_555 1_555
H22_4 C32_4 1_555 1_555
C33_3 C2_4 1_555 1_555
H23_3 C33_3 1_555 1_555
C34_3 C4_4 1_555 1_555
H24_3 C34_3 1_555 1_555
H25_3 C31_4 1_555 1_555
H26_3 C32_4 1_555 1_555
Zn8 O14_3 1_555 1_555
O18_3 C35_3 1_555 1_555
O13_2 C35_3 1_555 1_555
O14_3 C42_3 1_555 1_555
C35_3 C45_3 1_555 1_555
O15_3 Zn3_2 1_555 1_555
C36_3 C37_3 1_555 1_555
C37_3 H27_3 1_555 1_555
C38_3 C37_3 1_555 1_555
C39_3 C38_3 1_555 1_555
C40_3 C39_3 1_555 1_555
H28_3 C40_3 1_555 1_555
C41_3 C36_3 1_555 1_555
H29_3 C41_3 1_555 1_555
C42_3 O15_3 1_555 1_555
C43_3 H30_3 1_555 1_555
C44_3 C43_3 1_555 1_555
H31_3 C44_3 1_555 1_555
C45_3 C44_3 1_555 1_555
C46_3 C45_3 1_555 1_555
H32_3 C46_3 1_555 1_555
C47_3 C46_3 1_555 1_555
H33_3 C47_3 1_555 1_555
C48_3 C39_3 1_555 1_555
C49_3 S3_3 1_555 1_555
N3_3 C49_3 1_555 1_555
C50_3 N3_3 1_555 1_555
H34_3 C50_3 1_555 1_555
H35_3 C50_3 1_555 1_555
H36_3 C50_3 1_555 1_555
C51_3 N3_3 1_555 1_555
H37_3 C51_3 1_555 1_555
H38_3 C51_3 1_555 1_555
H39_3 C51_3 1_555 1_555
O16_3 C38_3 1_555 1_555
Zn6_2 O4_2 1_555 1_555
Zn10_2 O13_2 1_555 1_555
Zn11_2 O1_4 1_555 1_555
Zn12_4 O1_4 1_555 1_555
O17_2 Zn7 1_555 1_555
O21_4 Zn1_4 1_555 1_555
O22_2 Zn8 1_555 1_555
O23_2 Zn7 1_555 1_555
Zn3_2 O17_2 1_555 1_555
O5_2 Zn11_2 1_555 1_555
C8_4 C16_4 1_555 1_555
C13_3 C14_3 1_555 1_555
C17_4 C18_4 1_555 1_555
C21_3 C26_3 1_555 1_555
C22_3 C23_3 1_555 1_555
C25_3 C26_3 1_555 1_555
C27_3 O9_3 1_555 1_555
C33_3 C34_3 1_555 1_555
Zn8 O17_2 1_555 1_555
C36_3 C42_3 1_555 1_555
C40_3 C41_3 1_555 1_555
C43_3 C48_3 1_555 1_555
C47_3 C48_3 1_555 1_555
C49_3 O16_3 1_555 1_555
Zn6_2 O17_2 1_555 1_555
O11_2 C1_5 1_555 1_555
Zn10_2 O11_2 1_555 1_555
Zn10_2 O6_4 1_555 1_555
Zn12_3 O7_4 1_555 1_555
O21_3 C8_5 1_555 1_555
O6_4 C15_4 1_555 1_555
C3_5 C4_5 1_555 1_555
O7_4 C15_4 1_555 1_555
C6_5 C3_5 1_555 1_555
H1_5 C6_5 1_555 1_555
C7_5 C6_5 1_555 1_555
H2_5 C7_5 1_555 1_555
C8_5 O8_5 1_555 1_555
O8_5 Zn12_3 1_555 1_555
C9_4 C10_4 1_555 1_555
C10_4 H3_4 1_555 1_555
C11_4 C10_4 1_555 1_555
C12_4 C11_4 1_555 1_555
C13_4 C12_4 1_555 1_555
H4_4 C13_4 1_555 1_555
C14_4 C9_4 1_555 1_555
H5_4 C14_4 1_555 1_555
C15_4 C9_4 1_555 1_555
C16_5 C7_5 1_555 1_555
C17_5 C3_5 1_555 1_555
C18_5 C16_5 1_555 1_555
H6_5 C18_5 1_555 1_555
C21_4 H9_4 1_555 1_555
C22_4 C21_4 1_555 1_555
C24_4 C23_4 1_555 1_555
H11_4 C24_4 1_555 1_555
C25_4 C24_4 1_555 1_555
H12_4 C25_4 1_555 1_555
C26_4 C12_4 1_555 1_555
C27_4 S1_4 1_555 1_555
O9_4 C11_4 1_555 1_555
O10_5 C17_5 1_555 1_555
C30_5 O10_5 1_555 1_555
S2_5 C30_5 1_555 1_555
N2_5 C30_5 1_555 1_555
C31_5 N2_5 1_555 1_555
H19_4 C31_5 1_555 1_555
H20_5 C31_5 1_555 1_555
C32_5 N2_5 1_555 1_555
H22_5 C32_5 1_555 1_555
C33_4 C2_5 1_555 1_555
H23_4 C33_4 1_555 1_555
C34_4 C4_5 1_555 1_555
H24_4 C34_4 1_555 1_555
H26_4 C32_5 1_555 1_555
C8_5 C16_5 1_555 1_555
C13_4 C14_4 1_555 1_555
C17_5 C18_5 1_555 1_555
C21_4 C26_4 1_555 1_555
C22_4 C23_4 1_555 1_555
C25_4 C26_4 1_555 1_555
C27_4 O9_4 1_555 1_555
C33_4 C34_4 1_555 1_555
O3_2 C1_6 1_555 1_555
Zn11_2 O3_2 1_555 1_555
O21_4 C8_6 1_555 1_555
C2_6 C19_4 1_555 1_555
C3_6 C4_6 1_555 1_555
C4_6 C20_4 1_555 1_555
C6_6 C3_6 1_555 1_555
H1_6 C6_6 1_555 1_555
C7_6 C6_6 1_555 1_555
H2_6 C7_6 1_555 1_555
C8_6 O8_6 1_555 1_555
O8_6 Zn12_4 1_555 1_555
C16_6 C7_6 1_555 1_555
C17_6 C3_6 1_555 1_555
C18_6 C16_6 1_555 1_555
H6_6 C18_6 1_555 1_555
C19_4 H7_4 1_555 1_555
C20_4 C19_4 1_555 1_555
H8_4 C20_4 1_555 1_555
O10_6 C17_6 1_555 1_555
C30_6 O10_6 1_555 1_555
S2_6 C30_6 1_555 1_555
N2_6 C30_6 1_555 1_555
C31_6 N2_6 1_555 1_555
H20_6 C31_6 1_555 1_555
C32_6 N2_6 1_555 1_555
H21_4 C32_6 1_555 1_555
H22_6 C32_6 1_555 1_555
H25_4 C31_6 1_555 1_555
Zn11_2 O14_4 1_555 1_555
O14_4 C42_4 1_555 1_555
O15_4 Zn12_4 1_555 1_555
C36_4 C37_4 1_555 1_555
C37_4 H27_4 1_555 1_555
C38_4 C37_4 1_555 1_555
C39_4 C38_4 1_555 1_555
C40_4 C39_4 1_555 1_555
H28_4 C40_4 1_555 1_555
C41_4 C36_4 1_555 1_555
H29_4 C41_4 1_555 1_555
C42_4 O15_4 1_555 1_555
C43_4 H30_4 1_555 1_555
C44_4 C43_4 1_555 1_555
C45_4 C44_4 1_555 1_555
C46_4 C45_4 1_555 1_555
H32_4 C46_4 1_555 1_555
C47_4 C46_4 1_555 1_555
H33_4 C47_4 1_555 1_555
C48_4 C39_4 1_555 1_555
C49_4 S3_4 1_555 1_555
O16_4 C38_4 1_555 1_555
C8_6 C16_6 1_555 1_555
C17_6 C18_6 1_555 1_555
C36_4 C42_4 1_555 1_555
C40_4 C41_4 1_555 1_555
C43_4 C48_4 1_555 1_555
C47_4 C48_4 1_555 1_555
C49_4 O16_4 1_555 1_555
O2_4 Zn6_2 1_555 1_555
O22_2 C5_4 1_555 1_555
C5_4 O2_4 1_555 1_555
C28_4 N1_4 1_555 1_555
H13_4 C28_4 1_555 1_555
H14_4 C28_4 1_555 1_555
H15_4 C28_4 1_555 1_555
C29_4 N1_4 1_555 1_555
H16_4 C29_4 1_555 1_555
H18_4 C29_4 1_555 1_555
O18_4 Zn6_2 1_555 1_555
O18_4 C35_4 1_555 1_555
O23_2 C35_4 1_555 1_555
C50_4 N3_4 1_555 1_555
H34_4 C50_4 1_555 1_555
H35_4 C50_4 1_555 1_555
H36_4 C50_4 1_555 1_555
C51_4 N3_4 1_555 1_555
H37_4 C51_4 1_555 1_555
H39_4 C51_4 1_555 1_555

#END
