
###############################################################################
#
# This file contains modified crystal structure data generated from the
# MOF subset of the Cambridge Structural Database (CSD) v543 
# hosted by the Cambridge Crystallographic Data Centre (CCDC).
#
# This work is licensed under the Creative Commons
# Attribution-NonCommercial-ShareAlike 4.0 International License.
# To view a copy of this license, visit
# http://creativecommons.org/licenses/by-nc-sa/4.0/
# or send a letter to
# Creative Commons, PO Box 1866, Mountain View, CA 94042, USA.
#
# CIF created using the CSD Python API on 29 September 2022
# The structure has been converted into the P1 space group
# The structure has a 3D framework
# The original CSD entry EYOPUE is in the tetragonal crystal system
# The original CSD entry EYOPUE is in a Sohncke space group
# The framework has been calculated to contain at least 10.0% void space
# The void calculation uses a probe of radius 1.32A, grid spacing 0.4
#
###############################################################################

data_EYOPUE
_chemical_formula_moiety         '(C88 H72 Cd4 N16 O16)n'
_symmetry_cell_setting           triclinic
_symmetry_space_group_name_H-M   'P 1'
_symmetry_Int_Tables_number      1
_space_group_name_Hall           'P 1'
loop_
_symmetry_equiv_pos_site_id
_symmetry_equiv_pos_as_xyz
1 x,y,z
_cell_length_a                   18.8725(15)
_cell_length_b                   18.8725(15)
_cell_length_c                   8.0221(13)
_cell_angle_alpha                90
_cell_angle_beta                 90
_cell_angle_gamma                90
_cell_volume                     2857.24
loop_
_atom_site_label
_atom_site_type_symbol
_atom_site_fract_x
_atom_site_fract_y
_atom_site_fract_z
C18 C 0.2768(4) 0.0523(3) 0.0303(8)
H16 H 0.2882 0.0992 0.0536
C20 C 0.2599(4) 0.0067(4) 0.1574(8)
H18 H 0.2573 0.0238 0.2659
Cd3 Cd 0.284400(18) 0.284400(18) 0.5000
C12 C 0.1988(3) 0.1648(3) 0.7749(8)
H10 H 0.1863 0.2096 0.7261
H11 H 0.2068 0.1709 0.8922
H12 H 0.1609 0.1317 0.7581
C13 C 0.2636(3) 0.1378(3) 0.6958(7)
C14 C 0.3524(3) 0.1242(3) 0.5270(9)
H13 H 0.3851 0.1328 0.4427
C15 C 0.3501(4) 0.0653(3) 0.6231(8)
H14 H 0.3795 0.0259 0.6161
C16 C 0.2767(5) 0.0285(4) 0.8689(10)
N5 N 0.2978(3) 0.1701(2) 0.5745(5)
N6 N 0.2948(3) 0.0757(3) 0.7340(6)
C1 C 0.1648(3) 0.1988(3) 0.2251(8)
H1 H 0.2096 0.1863 0.2739
H2 H 0.1709 0.2068 0.1078
H3 H 0.1317 0.1609 0.2419
C2 C 0.1378(3) 0.2636(3) 0.3042(7)
C3 C 0.1242(3) 0.3524(3) 0.4730(9)
H4 H 0.1328 0.3851 0.5573
C4 C 0.0653(3) 0.3501(4) 0.3769(8)
H5 H 0.0259 0.3795 0.3839
C5 C 0.0285(4) 0.2767(5) 0.1311(10)
N1 N 0.1701(2) 0.2978(3) 0.4255(5)
N2 N 0.0757(3) 0.2948(3) 0.2660(6)
C7 C 0.2232(4) 0.5523(3) 0.9697(8)
H7 H 0.2118 0.5992 0.9464
C9 C 0.2401(4) 0.5067(4) 0.8426(8)
H9 H 0.2427 0.5238 0.7341
C10 C 0.2533(4) 0.4351(4) 0.8729(9)
C11 C 0.2699(4) 0.3849(4) 0.7337(8)
O1 O 0.2715(3) 0.3204(2) 0.7705(5)
O2 O 0.2795(3) 0.4072(2) 0.5905(5)
C18_2 C 0.5523(3) 0.2232(4) 0.0303(8)
H16_2 H 0.5992 0.2118 0.0536
C20_2 C 0.5067(4) 0.2401(4) 0.1574(8)
H18_2 H 0.5238 0.2427 0.2659
C21 C 0.4351(4) 0.2533(4) 0.1271(9)
C22 C 0.3849(4) 0.2699(4) 0.2663(8)
O3 O 0.3204(2) 0.2715(3) 0.2295(5)
O4 O 0.4072(2) 0.2795(3) 0.4095(5)
C6 C 0.0419(4) 0.7365(4) 0.1642(9)
H6 H 0.0580 0.7355 0.2737
C8 C 0.0878(3) 0.7510(3) 0.0395(7)
H8 H 0.1351 0.7596 0.0643
Cd1 Cd 0.215600(18) 0.784400(18) 0.5000
C10_2 C 0.0649(4) 0.7533(4) 0.8729(9)
C11_2 C 0.1151(4) 0.7699(4) 0.7337(8)
O1_2 O 0.1796(2) 0.7715(3) 0.7705(5)
O2_2 O 0.0928(2) 0.7795(3) 0.5905(5)
C21_2 C 0.2467(4) 0.9351(4) 0.1271(9)
C22_2 C 0.2301(4) 0.8849(4) 0.2663(8)
N3 N 0.2022(3) 0.6701(2) 0.4255(5)
N4 N 0.3299(2) 0.7978(3) 0.5745(5)
O3_2 O 0.2285(3) 0.8204(2) 0.2295(5)
O4_2 O 0.2205(3) 0.9072(2) 0.4095(5)
C12_2 C 0.3352(3) 0.6988(3) 0.7749(8)
H10_2 H 0.2904 0.6863 0.7261
H11_2 H 0.3291 0.7068 0.8922
H12_2 H 0.3683 0.6609 0.7581
C13_2 C 0.3622(3) 0.7636(3) 0.6958(7)
C14_2 C 0.3758(3) 0.8524(3) 0.5270(9)
H13_2 H 0.3672 0.8851 0.4427
C15_2 C 0.4347(3) 0.8501(4) 0.6231(8)
H14_2 H 0.4741 0.8795 0.6161
C16_2 C 0.4715(4) 0.7767(5) 0.8689(10)
C17 C 0.5419(4) 0.7635(4) 0.8358(9)
H15 H 0.5580 0.7645 0.7263
C19 C 0.5878(3) 0.7490(3) 0.9605(7)
H17 H 0.6351 0.7404 0.9357
N6_2 N 0.4243(3) 0.7948(3) 0.7340(6)
C1_2 C 0.3012(3) 0.6648(3) 0.2251(8)
H1_2 H 0.3137 0.7096 0.2739
H2_2 H 0.2932 0.6709 0.1078
H3_2 H 0.3391 0.6317 0.2419
C2_2 C 0.2364(3) 0.6378(3) 0.3042(7)
C3_2 C 0.1476(3) 0.6242(3) 0.4730(9)
H4_2 H 0.1149 0.6328 0.5573
C4_2 C 0.1499(4) 0.5653(3) 0.3769(8)
H5_2 H 0.1205 0.5259 0.3839
C5_2 C 0.2233(5) 0.5285(4) 0.1311(10)
C6_2 C 0.2365(4) 0.4581(4) 0.1642(9)
H6_2 H 0.2355 0.4420 0.2737
C8_2 C 0.2510(3) 0.4122(3) 0.0395(7)
H8_2 H 0.2596 0.3649 0.0643
N2_2 N 0.2052(3) 0.5757(3) 0.2660(6)
C17_2 C 0.2635(4) 0.9581(4) 0.8358(9)
H15_2 H 0.2645 0.9420 0.7263
C19_2 C 0.2490(3) 0.9122(3) 0.9605(7)
H17_2 H 0.2404 0.8649 0.9357
C1_3 C 0.8352(3) 0.8012(3) 0.2251(8)
H1_3 H 0.7904 0.8137 0.2739
H2_3 H 0.8291 0.7932 0.1078
H3_3 H 0.8683 0.8391 0.2419
C2_3 C 0.8622(3) 0.7364(3) 0.3042(7)
C3_3 C 0.8758(3) 0.6476(3) 0.4730(9)
H4_3 H 0.8672 0.6149 0.5573
C4_3 C 0.9347(3) 0.6499(4) 0.3769(8)
H5_3 H 0.9741 0.6205 0.3839
C5_3 C 0.9715(4) 0.7233(5) 0.1311(10)
N1_2 N 0.8299(2) 0.7022(3) 0.4255(5)
N2_3 N 0.9243(3) 0.7052(3) 0.2660(6)
Cd2 Cd 0.715600(18) 0.715600(18) 0.5000
C12_3 C 0.8012(3) 0.8352(3) 0.7749(8)
H10_3 H 0.8137 0.7904 0.7261
H11_3 H 0.7932 0.8291 0.8922
H12_3 H 0.8391 0.8683 0.7581
C13_3 C 0.7364(3) 0.8622(3) 0.6958(7)
C14_3 C 0.6476(3) 0.8758(3) 0.5270(9)
H13_3 H 0.6149 0.8672 0.4427
C15_3 C 0.6499(4) 0.9347(3) 0.6231(8)
H14_3 H 0.6205 0.9741 0.6161
C16_3 C 0.7233(5) 0.9715(4) 0.8689(10)
N5_2 N 0.7022(3) 0.8299(2) 0.5745(5)
N6_3 N 0.7052(3) 0.9243(3) 0.7340(6)
C7_2 C 0.7768(4) 0.4477(3) 0.9697(8)
H7_2 H 0.7882 0.4008 0.9464
C9_2 C 0.7599(4) 0.4933(4) 0.8426(8)
H9_2 H 0.7573 0.4762 0.7341
C10_3 C 0.7467(4) 0.5649(4) 0.8729(9)
C11_3 C 0.7301(4) 0.6151(4) 0.7337(8)
O1_3 O 0.7285(3) 0.6796(2) 0.7705(5)
O2_3 O 0.7205(3) 0.5928(2) 0.5905(5)
C18_3 C 0.4477(3) 0.7768(4) 0.0303(8)
H16_3 H 0.4008 0.7882 0.0536
C20_3 C 0.4933(4) 0.7599(4) 0.1574(8)
H18_3 H 0.4762 0.7573 0.2659
C21_3 C 0.5649(4) 0.7467(4) 0.1271(9)
C22_3 C 0.6151(4) 0.7301(4) 0.2663(8)
O3_3 O 0.6796(2) 0.7285(3) 0.2295(5)
O4_3 O 0.5928(2) 0.7205(3) 0.4095(5)
C7_3 C 0.9477(3) 0.7232(4) 0.9697(8)
H7_3 H 0.9008 0.7118 0.9464
C9_3 C 0.9933(4) 0.7401(4) 0.8426(8)
H9_3 H 0.9762 0.7427 0.7341
C7_4 C 0.0523(3) 0.2768(4) 0.9697(8)
H7_4 H 0.0992 0.2882 0.9464
C9_4 C 0.0067(4) 0.2599(4) 0.8426(8)
H9_4 H 0.0238 0.2573 0.7341
C6_3 C 0.9581(4) 0.2635(4) 0.1642(9)
H6_3 H 0.9420 0.2645 0.2737
C8_3 C 0.9122(3) 0.2490(3) 0.0395(7)
H8_3 H 0.8649 0.2404 0.0643
Cd1_2 Cd 0.784400(18) 0.215600(18) 0.5000
C10_4 C 0.9351(4) 0.2467(4) 0.8729(9)
C11_4 C 0.8849(4) 0.2301(4) 0.7337(8)
O1_4 O 0.8204(2) 0.2285(3) 0.7705(5)
O2_4 O 0.9072(2) 0.2205(3) 0.5905(5)
C21_4 C 0.7533(4) 0.0649(4) 0.1271(9)
C22_4 C 0.7699(4) 0.1151(4) 0.2663(8)
N3_2 N 0.7978(3) 0.3299(2) 0.4255(5)
N4_2 N 0.6701(2) 0.2022(3) 0.5745(5)
O3_4 O 0.7715(3) 0.1796(2) 0.2295(5)
O4_4 O 0.7795(3) 0.0928(2) 0.4095(5)
C1_4 C 0.6988(3) 0.3352(3) 0.2251(8)
H1_4 H 0.6863 0.2904 0.2739
H2_4 H 0.7068 0.3291 0.1078
H3_4 H 0.6609 0.3683 0.2419
C2_4 C 0.7636(3) 0.3622(3) 0.3042(7)
C3_4 C 0.8524(3) 0.3758(3) 0.4730(9)
H4_4 H 0.8851 0.3672 0.5573
C4_4 C 0.8501(4) 0.4347(3) 0.3769(8)
H5_4 H 0.8795 0.4741 0.3839
C5_4 C 0.7767(5) 0.4715(4) 0.1311(10)
C6_4 C 0.7635(4) 0.5419(4) 0.1642(9)
H6_4 H 0.7645 0.5580 0.2737
C8_4 C 0.7490(3) 0.5878(3) 0.0395(7)
H8_4 H 0.7404 0.6351 0.0643
N2_4 N 0.7948(3) 0.4243(3) 0.2660(6)
C12_4 C 0.6648(3) 0.3012(3) 0.7749(8)
H10_4 H 0.7096 0.3137 0.7261
H11_4 H 0.6709 0.2932 0.8922
H12_4 H 0.6317 0.3391 0.7581
C13_4 C 0.6378(3) 0.2364(3) 0.6958(7)
C14_4 C 0.6242(3) 0.1476(3) 0.5270(9)
H13_4 H 0.6328 0.1149 0.4427
C15_4 C 0.5653(3) 0.1499(4) 0.6231(8)
H14_4 H 0.5259 0.1205 0.6161
C16_4 C 0.5285(4) 0.2233(5) 0.8689(10)
C17_3 C 0.4581(4) 0.2365(4) 0.8358(9)
H15_3 H 0.4420 0.2355 0.7263
C19_3 C 0.4122(3) 0.2510(3) 0.9605(7)
H17_3 H 0.3649 0.2596 0.9357
N6_4 N 0.5757(3) 0.2052(3) 0.7340(6)
C17_4 C 0.7365(4) 0.0419(4) 0.8358(9)
H15_4 H 0.7355 0.0580 0.7263
C19_4 C 0.7510(3) 0.0878(3) 0.9605(7)
H17_4 H 0.7596 0.1351 0.9357
C18_4 C 0.7232(4) 0.9477(3) 0.0303(8)
H16_4 H 0.7118 0.9008 0.0536
C20_4 C 0.7401(4) 0.9933(4) 0.1574(8)
H18_4 H 0.7427 0.9762 0.2659
loop_
_geom_bond_atom_site_label_1
_geom_bond_atom_site_label_2
_geom_bond_site_symmetry_1
_geom_bond_site_symmetry_2
H16 C18 1_555 1_555
C20 C18 1_555 1_555
H18 C20 1_555 1_555
Cd3 N5 1_555 1_555
C12 H10 1_555 1_555
H11 C12 1_555 1_555
H12 C12 1_555 1_555
C13 C12 1_555 1_555
C14 H13 1_555 1_555
C15 C14 1_555 1_555
H14 C15 1_555 1_555
N5 C13 1_555 1_555
N6 C13 1_555 1_555
C14 N5 1_555 1_555
C15 N6 1_555 1_555
C16 N6 1_555 1_555
C1 H1 1_555 1_555
H2 C1 1_555 1_555
H3 C1 1_555 1_555
C2 C1 1_555 1_555
C3 H4 1_555 1_555
C4 C3 1_555 1_555
H5 C4 1_555 1_555
N1 C2 1_555 1_555
N2 C2 1_555 1_555
Cd3 N1 1_555 1_555
C3 N1 1_555 1_555
C4 N2 1_555 1_555
C5 N2 1_555 1_555
Cd3 O1 1_555 1_555
H7 C7 1_555 1_555
C9 C7 1_555 1_555
H9 C9 1_555 1_555
C11 C10 1_555 1_555
O1 C11 1_555 1_555
O2 Cd3 1_555 1_555
H16_2 C18_2 1_555 1_555
C20_2 C18_2 1_555 1_555
H18_2 C20_2 1_555 1_555
C22 C21 1_555 1_555
O3 Cd3 1_555 1_555
O4 Cd3 1_555 1_555
C9 C10 1_555 1_555
C11 O2 1_555 1_555
C20_2 C21 1_555 1_555
C22 O3 1_555 1_555
C22 O4 1_555 1_555
C6 H6 1_555 1_555
C8 C6 1_555 1_555
H8 C8 1_555 1_555
Cd1 O1_2 1_555 1_555
C11_2 C10_2 1_555 1_555
O1_2 C11_2 1_555 1_555
O2_2 Cd1 1_555 1_555
C22_2 C21_2 1_555 1_555
N3 Cd1 1_555 1_555
N4 Cd1 1_555 1_555
O3_2 Cd1 1_555 1_555
O4_2 Cd1 1_555 1_555
C11_2 O2_2 1_555 1_555
C22_2 O3_2 1_555 1_555
C22_2 O4_2 1_555 1_555
C12_2 H10_2 1_555 1_555
H11_2 C12_2 1_555 1_555
H12_2 C12_2 1_555 1_555
C13_2 C12_2 1_555 1_555
C14_2 H13_2 1_555 1_555
C15_2 C14_2 1_555 1_555
H14_2 C15_2 1_555 1_555
C16_2 C17 1_555 1_555
C17 H15 1_555 1_555
C19 C17 1_555 1_555
H17 C19 1_555 1_555
N4 C13_2 1_555 1_555
N6_2 C13_2 1_555 1_555
C14_2 N4 1_555 1_555
C15_2 N6_2 1_555 1_555
C16_2 N6_2 1_555 1_555
C1_2 H1_2 1_555 1_555
H2_2 C1_2 1_555 1_555
H3_2 C1_2 1_555 1_555
C2_2 C1_2 1_555 1_555
C3_2 H4_2 1_555 1_555
C4_2 C3_2 1_555 1_555
H5_2 C4_2 1_555 1_555
C5_2 C6_2 1_555 1_555
C6_2 H6_2 1_555 1_555
C8_2 C6_2 1_555 1_555
H8_2 C8_2 1_555 1_555
N3 C2_2 1_555 1_555
N2_2 C2_2 1_555 1_555
C3_2 N3 1_555 1_555
C4_2 N2_2 1_555 1_555
C5_2 N2_2 1_555 1_555
C17_2 H15_2 1_555 1_555
C19_2 C17_2 1_555 1_555
H17_2 C19_2 1_555 1_555
C1_3 H1_3 1_555 1_555
H2_3 C1_3 1_555 1_555
H3_3 C1_3 1_555 1_555
C2_3 C1_3 1_555 1_555
C3_3 H4_3 1_555 1_555
C4_3 C3_3 1_555 1_555
H5_3 C4_3 1_555 1_555
N1_2 C2_3 1_555 1_555
N2_3 C2_3 1_555 1_555
Cd2 N1_2 1_555 1_555
C3_3 N1_2 1_555 1_555
C4_3 N2_3 1_555 1_555
C5_3 N2_3 1_555 1_555
Cd2 N5_2 1_555 1_555
C12_3 H10_3 1_555 1_555
H11_3 C12_3 1_555 1_555
H12_3 C12_3 1_555 1_555
C13_3 C12_3 1_555 1_555
C14_3 H13_3 1_555 1_555
C15_3 C14_3 1_555 1_555
H14_3 C15_3 1_555 1_555
N5_2 C13_3 1_555 1_555
N6_3 C13_3 1_555 1_555
C14_3 N5_2 1_555 1_555
C15_3 N6_3 1_555 1_555
C16_3 N6_3 1_555 1_555
Cd2 O1_3 1_555 1_555
H7_2 C7_2 1_555 1_555
C9_2 C7_2 1_555 1_555
H9_2 C9_2 1_555 1_555
C11_3 C10_3 1_555 1_555
O1_3 C11_3 1_555 1_555
O2_3 Cd2 1_555 1_555
H16_3 C18_3 1_555 1_555
C20_3 C18_3 1_555 1_555
H18_3 C20_3 1_555 1_555
C22_3 C21_3 1_555 1_555
O3_3 Cd2 1_555 1_555
O4_3 Cd2 1_555 1_555
C9_2 C10_3 1_555 1_555
C11_3 O2_3 1_555 1_555
C20_3 C21_3 1_555 1_555
C22_3 O3_3 1_555 1_555
C22_3 O4_3 1_555 1_555
H7_3 C7_3 1_555 1_555
C9_3 C7_3 1_555 1_555
H9_3 C9_3 1_555 1_555
H7_4 C7_4 1_555 1_555
C9_4 C7_4 1_555 1_555
H9_4 C9_4 1_555 1_555
C6_3 H6_3 1_555 1_555
C8_3 C6_3 1_555 1_555
H8_3 C8_3 1_555 1_555
Cd1_2 O1_4 1_555 1_555
C11_4 C10_4 1_555 1_555
O1_4 C11_4 1_555 1_555
O2_4 Cd1_2 1_555 1_555
C22_4 C21_4 1_555 1_555
N3_2 Cd1_2 1_555 1_555
N4_2 Cd1_2 1_555 1_555
O3_4 Cd1_2 1_555 1_555
O4_4 Cd1_2 1_555 1_555
C11_4 O2_4 1_555 1_555
C22_4 O3_4 1_555 1_555
C22_4 O4_4 1_555 1_555
C1_4 H1_4 1_555 1_555
H2_4 C1_4 1_555 1_555
H3_4 C1_4 1_555 1_555
C2_4 C1_4 1_555 1_555
C3_4 H4_4 1_555 1_555
C4_4 C3_4 1_555 1_555
H5_4 C4_4 1_555 1_555
C5_4 C6_4 1_555 1_555
C6_4 H6_4 1_555 1_555
C8_4 C6_4 1_555 1_555
H8_4 C8_4 1_555 1_555
N3_2 C2_4 1_555 1_555
N2_4 C2_4 1_555 1_555
C3_4 N3_2 1_555 1_555
C4_4 N2_4 1_555 1_555
C5_4 N2_4 1_555 1_555
C12_4 H10_4 1_555 1_555
H11_4 C12_4 1_555 1_555
H12_4 C12_4 1_555 1_555
C13_4 C12_4 1_555 1_555
C14_4 H13_4 1_555 1_555
C15_4 C14_4 1_555 1_555
H14_4 C15_4 1_555 1_555
C16_4 C17_3 1_555 1_555
C17_3 H15_3 1_555 1_555
C19_3 C17_3 1_555 1_555
H17_3 C19_3 1_555 1_555
N4_2 C13_4 1_555 1_555
N6_4 C13_4 1_555 1_555
C14_4 N4_2 1_555 1_555
C15_4 N6_4 1_555 1_555
C16_4 N6_4 1_555 1_555
C17_4 H15_4 1_555 1_555
C19_4 C17_4 1_555 1_555
H17_4 C19_4 1_555 1_555
H16_4 C18_4 1_555 1_555
C20_4 C18_4 1_555 1_555
H18_4 C20_4 1_555 1_555

#END
