
###############################################################################
#
# This file contains modified crystal structure data generated from the
# MOF subset of the Cambridge Structural Database (CSD) v543 
# hosted by the Cambridge Crystallographic Data Centre (CCDC).
#
# This work is licensed under the Creative Commons
# Attribution-NonCommercial-ShareAlike 4.0 International License.
# To view a copy of this license, visit
# http://creativecommons.org/licenses/by-nc-sa/4.0/
# or send a letter to
# Creative Commons, PO Box 1866, Mountain View, CA 94042, USA.
#
# CIF created using the CSD Python API on 29 September 2022
# The structure has been converted into the P1 space group
# The structure has a 3D framework
# The original CSD entry EYOQEP is in the orthorhombic crystal system
# The framework has been calculated to contain at least 10.0% void space
# The void calculation uses a probe of radius 1.32A, grid spacing 0.4
#
###############################################################################

data_EYOQEP
_chemical_formula_moiety         '(C176 H144 Cd8 N32 O32)n'
_symmetry_cell_setting           triclinic
_symmetry_space_group_name_H-M   'P 1'
_symmetry_Int_Tables_number      1
_space_group_name_Hall           'P 1'
loop_
_symmetry_equiv_pos_site_id
_symmetry_equiv_pos_as_xyz
1 x,y,z
_cell_length_a                   15.573(2)
_cell_length_b                   19.416(3)
_cell_length_c                   19.664(3)
_cell_angle_alpha                90
_cell_angle_beta                 90
_cell_angle_gamma                90
_cell_volume                     5945.71
loop_
_atom_site_label
_atom_site_type_symbol
_atom_site_fract_x
_atom_site_fract_y
_atom_site_fract_z
Cd3 Cd 0.00612(4) 0.27264(2) 0.05798(6)
O3 O 0.1481(4) 0.2652(3) 0.0246(3)
N6 N 0.0305(6) 0.2691(4) 0.1694(5)
C12 C 0.1296(6) 0.2741(5) 0.9623(6)
C13 C 0.1998(6) 0.2737(5) 0.9070(4)
C14 C 0.1842(7) 0.2874(6) 0.8422(5)
H10 H 0.1282 0.2957 0.8278
C15 C 0.2490(10) 0.2893(5) 0.7974(7)
H11 H 0.2373 0.3031 0.7531
C16 C 0.3307(6) 0.2719(5) 0.8137(5)
C17 C 0.3497(6) 0.2554(4) 0.8785(5)
H12 H 0.4056 0.2443 0.8910
C18 C 0.2827(6) 0.2554(4) 0.9272(5)
H13 H 0.2937 0.2433 0.9722
C19 C 0.3376(7) 0.1993(5) 0.6764(5)
H14 H 0.3524 0.1888 0.6301
H15 H 0.3380 0.1577 0.7028
H16 H 0.2813 0.2195 0.6778
C20 C 0.4012(6) 0.2487(5) 0.7048(6)
C21 C 0.5150(7) 0.3080(5) 0.7162(5)
H17 H 0.5669 0.3301 0.7074
C22 C 0.4737(7) 0.3094(6) 0.7762(5)
H18 H 0.4927 0.3301 0.8161
N3 N 0.4695(6) 0.2691(4) 0.6694(5)
N4 N 0.4001(5) 0.2756(5) 0.7673(3)
O4 O 0.0548(6) 0.2837(4) 0.9401(4)
Cd2 Cd 0.49388(4) 0.27264(2) 0.55798(6)
C1 C 0.6034(6) 0.3795(4) 0.5547(8)
C2 C 0.6733(6) 0.4321(4) 0.5463(7)
C3 C 0.7575(5) 0.4125(4) 0.5406(5)
H1 H 0.7721 0.3662 0.5430
C4 C 0.8207(6) 0.4614(4) 0.5313(5)
H2 H 0.8779 0.4481 0.5287
C5 C 0.7987(7) 0.5314(5) 0.5258(4)
C6 C 0.7132(7) 0.5509(5) 0.5300(5)
H3 H 0.6980 0.5970 0.5263
C7 C 0.6508(5) 0.5013(5) 0.5397(5)
H4 H 0.5934 0.5141 0.5419
C8 C 0.8383(6) 0.6577(4) 0.6144(4)
H5 H 0.8606 0.7007 0.6308
H6 H 0.8447 0.6231 0.6489
H7 H 0.7786 0.6629 0.6034
C9 C 0.8876(6) 0.6360(4) 0.5510(7)
C10 C 0.9301(6) 0.5761(5) 0.4654(5)
H8 H 0.9330 0.5426 0.4316
C11 C 0.9844(6) 0.6267(5) 0.4736(4)
C12_2 C 0.3704(6) 0.2741(5) 0.4623(6)
C13_2 C 0.3002(6) 0.2737(5) 0.4070(4)
C14_2 C 0.3158(7) 0.2874(6) 0.3422(5)
H10_2 H 0.3718 0.2957 0.3278
C15_2 C 0.2510(10) 0.2893(5) 0.2974(7)
H11_2 H 0.2627 0.3031 0.2531
C16_2 C 0.1693(6) 0.2719(5) 0.3137(5)
C17_2 C 0.1503(6) 0.2554(4) 0.3785(5)
H12_2 H 0.0944 0.2443 0.3910
C18_2 C 0.2173(6) 0.2554(4) 0.4272(5)
H13_2 H 0.2063 0.2433 0.4722
C19_2 C 0.1624(7) 0.1993(5) 0.1764(5)
H14_2 H 0.1476 0.1888 0.1301
H15_2 H 0.1620 0.1577 0.2028
H16_2 H 0.2187 0.2195 0.1778
C20_2 C 0.0988(6) 0.2487(5) 0.2048(6)
C22_2 C 0.0263(7) 0.3094(6) 0.2762(5)
H18_2 H 0.0073 0.3301 0.3161
N1 N 0.9547(4) 0.6655(3) 0.5290(4)
N2 N 0.8679(5) 0.5803(4) 0.5150(4)
N4_2 N 0.0999(5) 0.2756(5) 0.2673(3)
O1 O 0.6287(3) 0.3187(3) 0.5664(4)
O2 O 0.5269(3) 0.3951(3) 0.5501(6)
O3_2 O 0.3519(4) 0.2652(3) 0.5246(3)
O4_2 O 0.4452(6) 0.2837(4) 0.4401(4)
N5 N 0.5453(4) 0.1655(3) 0.5290(4)
C5_2 C 0.7013(7) 0.0314(5) 0.5258(4)
C6_2 C 0.7868(7) 0.0509(5) 0.5300(5)
H3_2 H 0.8020 0.0970 0.5263
C7_2 C 0.8492(5) 0.0013(5) 0.5397(5)
H4_2 H 0.9066 0.0141 0.5419
C8_2 C 0.6617(6) 0.1577(4) 0.6144(4)
H5_2 H 0.6394 0.2007 0.6308
H6_2 H 0.6553 0.1231 0.6489
H7_2 H 0.7214 0.1629 0.6034
C9_2 C 0.6124(6) 0.1360(4) 0.5510(7)
C10_2 C 0.5699(6) 0.0761(5) 0.4654(5)
H8_2 H 0.5670 0.0426 0.4316
C11_2 C 0.5156(6) 0.1267(5) 0.4736(4)
H9 H 0.4667 0.1354 0.4477
N2_2 N 0.6321(5) 0.0803(4) 0.5150(4)
C1_2 C 0.8966(6) 0.8795(4) 0.5547(8)
C2_2 C 0.8267(6) 0.9321(4) 0.5463(7)
C3_2 C 0.7425(5) 0.9125(4) 0.5406(5)
H1_2 H 0.7279 0.8662 0.5430
C4_2 C 0.6793(6) 0.9614(4) 0.5313(5)
H2_2 H 0.6221 0.9481 0.5287
O1_2 O 0.8713(3) 0.8187(3) 0.5664(4)
O2_2 O 0.9731(3) 0.8951(3) 0.5501(6)
H9_2 H 0.0333 0.1354 0.9477
C5_3 C 0.7987(7) 0.0314(5) 0.0258(4)
C6_3 C 0.7132(7) 0.0509(5) 0.0300(5)
H3_3 H 0.6980 0.0970 0.0263
C7_3 C 0.6508(5) 0.0013(5) 0.0397(5)
H4_3 H 0.5934 0.0141 0.0419
C8_3 C 0.8383(6) 0.1577(4) 0.1144(4)
H5_3 H 0.8606 0.2007 0.1308
H6_3 H 0.8447 0.1231 0.1489
H7_3 H 0.7786 0.1629 0.1034
C9_3 C 0.8876(6) 0.1360(4) 0.0510(7)
N1_2 N 0.9547(4) 0.1655(3) 0.0290(4)
N2_3 N 0.8679(5) 0.0803(4) 0.0150(4)
Cd1 Cd 0.49388(4) 0.77264(2) 0.05798(6)
C1_3 C 0.6034(6) 0.8795(4) 0.0547(8)
C2_3 C 0.6733(6) 0.9321(4) 0.0463(7)
C3_3 C 0.7575(5) 0.9125(4) 0.0406(5)
H1_3 H 0.7721 0.8662 0.0430
C4_3 C 0.8207(6) 0.9614(4) 0.0313(5)
H2_3 H 0.8779 0.9481 0.0287
O1_3 O 0.6287(3) 0.8187(3) 0.0664(4)
O2_3 O 0.5269(3) 0.8951(3) 0.0501(6)
O3_3 O 0.3519(4) 0.7652(3) 0.0246(3)
N5_2 N 0.5453(4) 0.6655(3) 0.0290(4)
N6_2 N 0.4695(6) 0.7691(4) 0.1694(5)
C12_3 C 0.3704(6) 0.7741(5) 0.9623(6)
C13_3 C 0.3002(6) 0.7737(5) 0.9070(4)
C14_3 C 0.3158(7) 0.7874(6) 0.8422(5)
H10_3 H 0.3718 0.7957 0.8278
C15_3 C 0.2510(10) 0.7893(5) 0.7974(7)
H11_3 H 0.2627 0.8031 0.7531
C16_3 C 0.1693(6) 0.7719(5) 0.8137(5)
C17_3 C 0.1503(6) 0.7554(4) 0.8785(5)
H12_3 H 0.0944 0.7443 0.8910
C18_3 C 0.2173(6) 0.7554(4) 0.9272(5)
H13_3 H 0.2063 0.7433 0.9722
C19_3 C 0.1624(7) 0.6993(5) 0.6764(5)
H14_3 H 0.1476 0.6888 0.6301
H15_3 H 0.1620 0.6577 0.7028
H16_3 H 0.2187 0.7195 0.6778
C20_3 C 0.0988(6) 0.7487(5) 0.7048(6)
C22_3 C 0.0263(7) 0.8094(6) 0.7762(5)
H18_3 H 0.0073 0.8301 0.8161
N3_2 N 0.0305(6) 0.7691(4) 0.6694(5)
N4_3 N 0.0999(5) 0.7756(5) 0.7673(3)
O4_3 O 0.4452(6) 0.7837(4) 0.9401(4)
Cd2_2 Cd 0.00612(4) 0.77264(2) 0.55798(6)
C1_4 C 0.8966(6) 0.3795(4) 0.0547(8)
C2_4 C 0.8267(6) 0.4321(4) 0.0463(7)
C3_4 C 0.7425(5) 0.4125(4) 0.0406(5)
H1_4 H 0.7279 0.3662 0.0430
C4_4 C 0.6793(6) 0.4614(4) 0.0313(5)
H2_4 H 0.6221 0.4481 0.0287
C5_4 C 0.7013(7) 0.5314(5) 0.0258(4)
C6_4 C 0.7868(7) 0.5509(5) 0.0300(5)
H3_4 H 0.8020 0.5970 0.0263
C7_4 C 0.8492(5) 0.5013(5) 0.0397(5)
H4_4 H 0.9066 0.5141 0.0419
C8_4 C 0.6617(6) 0.6577(4) 0.1144(4)
H5_4 H 0.6394 0.7007 0.1308
H6_4 H 0.6553 0.6231 0.1489
H7_4 H 0.7214 0.6629 0.1034
C9_4 C 0.6124(6) 0.6360(4) 0.0510(7)
N2_4 N 0.6321(5) 0.5803(4) 0.0150(4)
O1_4 O 0.8713(3) 0.3187(3) 0.0664(4)
O2_4 O 0.9731(3) 0.3951(3) 0.0501(6)
H9_3 H 0.0333 0.6354 0.4477
C12_4 C 0.1296(6) 0.7741(5) 0.4623(6)
C13_4 C 0.1998(6) 0.7737(5) 0.4070(4)
C14_4 C 0.1842(7) 0.7874(6) 0.3422(5)
H10_4 H 0.1282 0.7957 0.3278
C15_4 C 0.2490(10) 0.7893(5) 0.2974(7)
H11_4 H 0.2373 0.8031 0.2531
C16_4 C 0.3307(6) 0.7719(5) 0.3137(5)
C17_4 C 0.3497(6) 0.7554(4) 0.3785(5)
H12_4 H 0.4056 0.7443 0.3910
C18_4 C 0.2827(6) 0.7554(4) 0.4272(5)
H13_4 H 0.2937 0.7433 0.4722
C19_4 C 0.3376(7) 0.6993(5) 0.1764(5)
H14_4 H 0.3524 0.6888 0.1301
H15_4 H 0.3380 0.6577 0.2028
H16_4 H 0.2813 0.7195 0.1778
C20_4 C 0.4012(6) 0.7487(5) 0.2048(6)
C21_2 C 0.5150(7) 0.8080(5) 0.2162(5)
H17_2 H 0.5669 0.8301 0.2074
C22_4 C 0.4737(7) 0.8094(6) 0.2762(5)
H18_4 H 0.4927 0.8301 0.3161
N4_4 N 0.4001(5) 0.7756(5) 0.2673(3)
O3_4 O 0.1481(4) 0.7652(3) 0.5246(3)
O4_4 O 0.0548(6) 0.7837(4) 0.4401(4)
C10_3 C 0.9301(6) 0.0761(5) 0.9654(5)
H8_3 H 0.9330 0.0426 0.9316
C11_3 C 0.9844(6) 0.1267(5) 0.9736(4)
C21_3 C 0.9850(7) 0.8080(5) 0.7162(5)
H17_3 H 0.9331 0.8301 0.7074
C21_4 C 0.0150(7) 0.1920(5) 0.7162(5)
H17_4 H 0.0669 0.1699 0.7074
Cd1_2 Cd 0.50612(4) 0.22736(2) 0.05798(6)
C1_5 C 0.3966(6) 0.1205(4) 0.0547(8)
C2_5 C 0.3267(6) 0.0679(4) 0.0463(7)
C3_5 C 0.2425(5) 0.0875(4) 0.0406(5)
H1_5 H 0.2279 0.1338 0.0430
C4_5 C 0.1793(6) 0.0386(4) 0.0313(5)
H2_5 H 0.1221 0.0519 0.0287
O1_5 O 0.3713(3) 0.1813(3) 0.0664(4)
O2_5 O 0.4731(3) 0.1049(3) 0.0501(6)
O3_5 O 0.6481(4) 0.2348(3) 0.0246(3)
N5_3 N 0.4547(4) 0.3345(3) 0.0290(4)
N6_3 N 0.5305(6) 0.2309(4) 0.1694(5)
C12_5 C 0.6296(6) 0.2259(5) 0.9623(6)
C13_5 C 0.6998(6) 0.2263(5) 0.9070(4)
C14_5 C 0.6842(7) 0.2126(6) 0.8422(5)
H10_5 H 0.6282 0.2043 0.8278
C15_5 C 0.7490(10) 0.2107(5) 0.7974(7)
H11_5 H 0.7373 0.1969 0.7531
C16_5 C 0.8307(6) 0.2281(5) 0.8137(5)
C17_5 C 0.8497(6) 0.2446(4) 0.8785(5)
H12_5 H 0.9056 0.2557 0.8910
C18_5 C 0.7827(6) 0.2446(4) 0.9272(5)
H13_5 H 0.7937 0.2567 0.9722
C19_5 C 0.8376(7) 0.3007(5) 0.6764(5)
H14_5 H 0.8524 0.3112 0.6301
H15_5 H 0.8380 0.3423 0.7028
H16_5 H 0.7813 0.2805 0.6778
C20_5 C 0.9012(6) 0.2513(5) 0.7048(6)
C22_5 C 0.9737(7) 0.1906(6) 0.7762(5)
H18_5 H 0.9927 0.1699 0.8161
N3_3 N 0.9695(6) 0.2309(4) 0.6694(5)
N4_5 N 0.9001(5) 0.2244(5) 0.7673(3)
O4_5 O 0.5548(6) 0.2163(4) 0.9401(4)
Cd2_3 Cd 0.99388(4) 0.22736(2) 0.55798(6)
C5_5 C 0.2013(7) 0.9686(5) 0.0258(4)
C6_5 C 0.2868(7) 0.9491(5) 0.0300(5)
H3_5 H 0.3020 0.9030 0.0263
C7_5 C 0.3492(5) 0.9987(5) 0.0397(5)
H4_5 H 0.4066 0.9859 0.0419
C8_5 C 0.1617(6) 0.8423(4) 0.1144(4)
H5_5 H 0.1394 0.7993 0.1308
H6_5 H 0.1553 0.8769 0.1489
H7_5 H 0.2214 0.8371 0.1034
C9_5 C 0.1124(6) 0.8640(4) 0.0510(7)
N1_3 N 0.0453(4) 0.8345(3) 0.0290(4)
N2_5 N 0.1321(5) 0.9197(4) 0.0150(4)
C1_6 C 0.1034(6) 0.6205(4) 0.0547(8)
C2_6 C 0.1733(6) 0.5679(4) 0.0463(7)
C3_6 C 0.2575(5) 0.5875(4) 0.0406(5)
H1_6 H 0.2721 0.6338 0.0430
C4_6 C 0.3207(6) 0.5386(4) 0.0313(5)
H2_6 H 0.3779 0.5519 0.0287
C5_6 C 0.2987(7) 0.4686(5) 0.0258(4)
C6_6 C 0.2132(7) 0.4491(5) 0.0300(5)
H3_6 H 0.1980 0.4030 0.0263
C7_6 C 0.1508(5) 0.4987(5) 0.0397(5)
H4_6 H 0.0934 0.4859 0.0419
C8_6 C 0.3383(6) 0.3423(4) 0.1144(4)
H5_6 H 0.3606 0.2993 0.1308
H6_6 H 0.3447 0.3769 0.1489
H7_6 H 0.2786 0.3371 0.1034
C9_6 C 0.3876(6) 0.3640(4) 0.0510(7)
N2_6 N 0.3679(5) 0.4197(4) 0.0150(4)
O1_6 O 0.1287(3) 0.6813(3) 0.0664(4)
O2_6 O 0.0269(3) 0.6049(3) 0.0501(6)
H9_4 H 0.9667 0.3646 0.4477
C12_6 C 0.8704(6) 0.2259(5) 0.4623(6)
C13_6 C 0.8002(6) 0.2263(5) 0.4070(4)
C14_6 C 0.8158(7) 0.2126(6) 0.3422(5)
H10_6 H 0.8718 0.2043 0.3278
C15_6 C 0.7510(10) 0.2107(5) 0.2974(7)
H11_6 H 0.7627 0.1969 0.2531
C16_6 C 0.6693(6) 0.2281(5) 0.3137(5)
C17_6 C 0.6503(6) 0.2446(4) 0.3785(5)
H12_6 H 0.5944 0.2557 0.3910
C18_6 C 0.7173(6) 0.2446(4) 0.4272(5)
H13_6 H 0.7063 0.2567 0.4722
C19_6 C 0.6624(7) 0.3007(5) 0.1764(5)
H14_6 H 0.6476 0.3112 0.1301
H15_6 H 0.6620 0.3423 0.2028
H16_6 H 0.7187 0.2805 0.1778
C20_6 C 0.5988(6) 0.2513(5) 0.2048(6)
C21_5 C 0.4850(7) 0.1920(5) 0.2162(5)
H17_5 H 0.4331 0.1699 0.2074
C22_6 C 0.5263(7) 0.1906(6) 0.2762(5)
H18_6 H 0.5073 0.1699 0.3161
N4_6 N 0.5999(5) 0.2244(5) 0.2673(3)
O3_6 O 0.8519(4) 0.2348(3) 0.5246(3)
O4_6 O 0.9452(6) 0.2163(4) 0.4401(4)
C10_4 C 0.0699(6) 0.9239(5) 0.9654(5)
H8_4 H 0.0670 0.9574 0.9316
C11_4 C 0.0156(6) 0.8733(5) 0.9736(4)
Cd3_2 Cd 0.99388(4) 0.72736(2) 0.05798(6)
O3_7 O 0.8519(4) 0.7348(3) 0.0246(3)
N6_4 N 0.9695(6) 0.7309(4) 0.1694(5)
C12_7 C 0.8704(6) 0.7259(5) 0.9623(6)
C13_7 C 0.8002(6) 0.7263(5) 0.9070(4)
C14_7 C 0.8158(7) 0.7126(6) 0.8422(5)
H10_7 H 0.8718 0.7043 0.8278
C15_7 C 0.7510(10) 0.7107(5) 0.7974(7)
H11_7 H 0.7627 0.6969 0.7531
C16_7 C 0.6693(6) 0.7281(5) 0.8137(5)
C17_7 C 0.6503(6) 0.7446(4) 0.8785(5)
H12_7 H 0.5944 0.7557 0.8910
C18_7 C 0.7173(6) 0.7446(4) 0.9272(5)
H13_7 H 0.7063 0.7567 0.9722
C19_7 C 0.6624(7) 0.8007(5) 0.6764(5)
H14_7 H 0.6476 0.8112 0.6301
H15_7 H 0.6620 0.8423 0.7028
H16_7 H 0.7187 0.7805 0.6778
C20_7 C 0.5988(6) 0.7513(5) 0.7048(6)
C21_6 C 0.4850(7) 0.6920(5) 0.7162(5)
H17_6 H 0.4331 0.6699 0.7074
C22_7 C 0.5263(7) 0.6906(6) 0.7762(5)
H18_7 H 0.5073 0.6699 0.8161
N3_4 N 0.5305(6) 0.7309(4) 0.6694(5)
N4_7 N 0.5999(5) 0.7244(5) 0.7673(3)
O4_7 O 0.9452(6) 0.7163(4) 0.9401(4)
Cd2_4 Cd 0.50612(4) 0.72736(2) 0.55798(6)
C1_7 C 0.3966(6) 0.6205(4) 0.5547(8)
C2_7 C 0.3267(6) 0.5679(4) 0.5463(7)
C3_7 C 0.2425(5) 0.5875(4) 0.5406(5)
H1_7 H 0.2279 0.6338 0.5430
C4_7 C 0.1793(6) 0.5386(4) 0.5313(5)
H2_7 H 0.1221 0.5519 0.5287
C5_7 C 0.2013(7) 0.4686(5) 0.5258(4)
C6_7 C 0.2868(7) 0.4491(5) 0.5300(5)
H3_7 H 0.3020 0.4030 0.5263
C7_7 C 0.3492(5) 0.4987(5) 0.5397(5)
H4_7 H 0.4066 0.4859 0.5419
C8_7 C 0.1617(6) 0.3423(4) 0.6144(4)
H5_7 H 0.1394 0.2993 0.6308
H6_7 H 0.1553 0.3769 0.6489
H7_7 H 0.2214 0.3371 0.6034
C9_7 C 0.1124(6) 0.3640(4) 0.5510(7)
C10_5 C 0.0699(6) 0.4239(5) 0.4654(5)
H8_5 H 0.0670 0.4574 0.4316
C11_5 C 0.0156(6) 0.3733(5) 0.4736(4)
C12_8 C 0.6296(6) 0.7259(5) 0.4623(6)
C13_8 C 0.6998(6) 0.7263(5) 0.4070(4)
C14_8 C 0.6842(7) 0.7126(6) 0.3422(5)
H10_8 H 0.6282 0.7043 0.3278
C15_8 C 0.7490(10) 0.7107(5) 0.2974(7)
H11_8 H 0.7373 0.6969 0.2531
C16_8 C 0.8307(6) 0.7281(5) 0.3137(5)
C17_8 C 0.8497(6) 0.7446(4) 0.3785(5)
H12_8 H 0.9056 0.7557 0.3910
C18_8 C 0.7827(6) 0.7446(4) 0.4272(5)
H13_8 H 0.7937 0.7567 0.4722
C19_8 C 0.8376(7) 0.8007(5) 0.1764(5)
H14_8 H 0.8524 0.8112 0.1301
H15_8 H 0.8380 0.8423 0.2028
H16_8 H 0.7813 0.7805 0.1778
C20_8 C 0.9012(6) 0.7513(5) 0.2048(6)
C22_8 C 0.9737(7) 0.6906(6) 0.2762(5)
H18_8 H 0.9927 0.6699 0.3161
N1_4 N 0.0453(4) 0.3345(3) 0.5290(4)
N2_7 N 0.1321(5) 0.4197(4) 0.5150(4)
N4_8 N 0.9001(5) 0.7244(5) 0.2673(3)
O1_7 O 0.3713(3) 0.6813(3) 0.5664(4)
O2_7 O 0.4731(3) 0.6049(3) 0.5501(6)
O3_8 O 0.6481(4) 0.7348(3) 0.5246(3)
O4_8 O 0.5548(6) 0.7163(4) 0.4401(4)
N5_4 N 0.4547(4) 0.8345(3) 0.5290(4)
C1_8 C 0.1034(6) 0.1205(4) 0.5547(8)
C2_8 C 0.1733(6) 0.0679(4) 0.5463(7)
C3_8 C 0.2575(5) 0.0875(4) 0.5406(5)
H1_8 H 0.2721 0.1338 0.5430
C4_8 C 0.3207(6) 0.0386(4) 0.5313(5)
H2_8 H 0.3779 0.0519 0.5287
O1_8 O 0.1287(3) 0.1813(3) 0.5664(4)
O2_8 O 0.0269(3) 0.1049(3) 0.5501(6)
C5_8 C 0.2987(7) 0.9686(5) 0.5258(4)
C6_8 C 0.2132(7) 0.9491(5) 0.5300(5)
H3_8 H 0.1980 0.9030 0.5263
C7_8 C 0.1508(5) 0.9987(5) 0.5397(5)
H4_8 H 0.0934 0.9859 0.5419
C8_8 C 0.3383(6) 0.8423(4) 0.6144(4)
H5_8 H 0.3606 0.7993 0.6308
H6_8 H 0.3447 0.8769 0.6489
H7_8 H 0.2786 0.8371 0.6034
C9_8 C 0.3876(6) 0.8640(4) 0.5510(7)
C10_6 C 0.4301(6) 0.9239(5) 0.4654(5)
H8_6 H 0.4330 0.9574 0.4316
C11_6 C 0.4844(6) 0.8733(5) 0.4736(4)
H9_5 H 0.5333 0.8646 0.4477
N2_8 N 0.3679(5) 0.9197(4) 0.5150(4)
H9_6 H 0.9667 0.8646 0.9477
C10_7 C 0.4301(6) 0.4239(5) 0.9654(5)
H8_7 H 0.4330 0.4574 0.9316
C11_7 C 0.4844(6) 0.3733(5) 0.9736(4)
H9_7 H 0.5333 0.3646 0.9477
C10_8 C 0.5699(6) 0.5761(5) 0.9654(5)
H8_8 H 0.5670 0.5426 0.9316
C11_8 C 0.5156(6) 0.6267(5) 0.9736(4)
H9_8 H 0.4667 0.6354 0.9477
C21_7 C 0.9850(7) 0.3080(5) 0.2162(5)
H17_7 H 0.9331 0.3301 0.2074
C21_8 C 0.0150(7) 0.6920(5) 0.2162(5)
H17_8 H 0.0669 0.6699 0.2074
loop_
_geom_bond_atom_site_label_1
_geom_bond_atom_site_label_2
_geom_bond_site_symmetry_1
_geom_bond_site_symmetry_2
O3 Cd3 1_555 1_555
N6 Cd3 1_555 1_555
C12 C13 1_555 1_555
C13 C14 1_555 1_555
C14 H10 1_555 1_555
C15 C14 1_555 1_555
H11 C15 1_555 1_555
C16 C15 1_555 1_555
C17 C16 1_555 1_555
H12 C17 1_555 1_555
C18 C13 1_555 1_555
H13 C18 1_555 1_555
C19 H14 1_555 1_555
H15 C19 1_555 1_555
H16 C19 1_555 1_555
C20 C19 1_555 1_555
C21 H17 1_555 1_555
C22 C21 1_555 1_555
H18 C22 1_555 1_555
N3 C20 1_555 1_555
N4 C16 1_555 1_555
Cd2 N3 1_555 1_555
C12 O4 1_555 1_555
C17 C18 1_555 1_555
C20 N4 1_555 1_555
C21 N3 1_555 1_555
C22 N4 1_555 1_555
Cd2 O1 1_555 1_555
C1 C2 1_555 1_555
C2 C3 1_555 1_555
C3 H1 1_555 1_555
C4 C3 1_555 1_555
H2 C4 1_555 1_555
C5 C4 1_555 1_555
C6 C5 1_555 1_555
H3 C6 1_555 1_555
C7 C2 1_555 1_555
H4 C7 1_555 1_555
C8 H5 1_555 1_555
H6 C8 1_555 1_555
H7 C8 1_555 1_555
C9 C8 1_555 1_555
C10 H8 1_555 1_555
C11 C10 1_555 1_555
C12_2 C13_2 1_555 1_555
C13_2 C14_2 1_555 1_555
C14_2 H10_2 1_555 1_555
C15_2 C14_2 1_555 1_555
H11_2 C15_2 1_555 1_555
C16_2 C15_2 1_555 1_555
C17_2 C16_2 1_555 1_555
H12_2 C17_2 1_555 1_555
C18_2 C13_2 1_555 1_555
H13_2 C18_2 1_555 1_555
C19_2 H14_2 1_555 1_555
H15_2 C19_2 1_555 1_555
H16_2 C19_2 1_555 1_555
C20_2 C19_2 1_555 1_555
H18_2 C22_2 1_555 1_555
N1 C9 1_555 1_555
N2 C5 1_555 1_555
N6 C20_2 1_555 1_555
N4_2 C16_2 1_555 1_555
O1 C1 1_555 1_555
O2 Cd2 1_555 1_555
O3_2 Cd2 1_555 1_555
O4_2 Cd2 1_555 1_555
N5 Cd2 1_555 1_555
C1 O2 1_555 1_555
C6 C7 1_555 1_555
C9 N2 1_555 1_555
C10 N2 1_555 1_555
C11 N1 1_555 1_555
C12_2 O3_2 1_555 1_555
C12_2 O4_2 1_555 1_555
C17_2 C18_2 1_555 1_555
C20_2 N4_2 1_555 1_555
C22_2 N4_2 1_555 1_555
C6_2 C5_2 1_555 1_555
H3_2 C6_2 1_555 1_555
H4_2 C7_2 1_555 1_555
C8_2 H5_2 1_555 1_555
H6_2 C8_2 1_555 1_555
H7_2 C8_2 1_555 1_555
C9_2 C8_2 1_555 1_555
C10_2 H8_2 1_555 1_555
C11_2 C10_2 1_555 1_555
H9 C11_2 1_555 1_555
N5 C9_2 1_555 1_555
N2_2 C5_2 1_555 1_555
C6_2 C7_2 1_555 1_555
C9_2 N2_2 1_555 1_555
C10_2 N2_2 1_555 1_555
C11_2 N5 1_555 1_555
C1_2 C2_2 1_555 1_555
C2_2 C3_2 1_555 1_555
C3_2 H1_2 1_555 1_555
C4_2 C3_2 1_555 1_555
H2_2 C4_2 1_555 1_555
O1_2 C1_2 1_555 1_555
C1_2 O2_2 1_555 1_555
C6_3 C5_3 1_555 1_555
H3_3 C6_3 1_555 1_555
H4_3 C7_3 1_555 1_555
C8_3 H5_3 1_555 1_555
H6_3 C8_3 1_555 1_555
H7_3 C8_3 1_555 1_555
C9_3 C8_3 1_555 1_555
N1_2 C9_3 1_555 1_555
N2_3 C5_3 1_555 1_555
C6_3 C7_3 1_555 1_555
C9_3 N2_3 1_555 1_555
Cd1 O1_3 1_555 1_555
C1_3 C2_3 1_555 1_555
C2_3 C3_3 1_555 1_555
C3_3 H1_3 1_555 1_555
C4_3 C3_3 1_555 1_555
H2_3 C4_3 1_555 1_555
O1_3 C1_3 1_555 1_555
O2_3 Cd1 1_555 1_555
O3_3 Cd1 1_555 1_555
N5_2 Cd1 1_555 1_555
N6_2 Cd1 1_555 1_555
C1_3 O2_3 1_555 1_555
C12_3 C13_3 1_555 1_555
C13_3 C14_3 1_555 1_555
C14_3 H10_3 1_555 1_555
C15_3 C14_3 1_555 1_555
H11_3 C15_3 1_555 1_555
C16_3 C15_3 1_555 1_555
C17_3 C16_3 1_555 1_555
H12_3 C17_3 1_555 1_555
C18_3 C13_3 1_555 1_555
H13_3 C18_3 1_555 1_555
C19_3 H14_3 1_555 1_555
H15_3 C19_3 1_555 1_555
H16_3 C19_3 1_555 1_555
C20_3 C19_3 1_555 1_555
H18_3 C22_3 1_555 1_555
N3_2 C20_3 1_555 1_555
N4_3 C16_3 1_555 1_555
Cd2_2 N3_2 1_555 1_555
C12_3 O4_3 1_555 1_555
C17_3 C18_3 1_555 1_555
C20_3 N4_3 1_555 1_555
C22_3 N4_3 1_555 1_555
C1_4 C2_4 1_555 1_555
C2_4 C3_4 1_555 1_555
C3_4 H1_4 1_555 1_555
C4_4 C3_4 1_555 1_555
H2_4 C4_4 1_555 1_555
C5_4 C4_4 1_555 1_555
C6_4 C5_4 1_555 1_555
H3_4 C6_4 1_555 1_555
C7_4 C2_4 1_555 1_555
H4_4 C7_4 1_555 1_555
C8_4 H5_4 1_555 1_555
H6_4 C8_4 1_555 1_555
H7_4 C8_4 1_555 1_555
C9_4 C8_4 1_555 1_555
N5_2 C9_4 1_555 1_555
N2_4 C5_4 1_555 1_555
O1_4 C1_4 1_555 1_555
C1_4 O2_4 1_555 1_555
C6_4 C7_4 1_555 1_555
C9_4 N2_4 1_555 1_555
C12_4 C13_4 1_555 1_555
C13_4 C14_4 1_555 1_555
C14_4 H10_4 1_555 1_555
C15_4 C14_4 1_555 1_555
H11_4 C15_4 1_555 1_555
C16_4 C15_4 1_555 1_555
C17_4 C16_4 1_555 1_555
H12_4 C17_4 1_555 1_555
C18_4 C13_4 1_555 1_555
H13_4 C18_4 1_555 1_555
C19_4 H14_4 1_555 1_555
H15_4 C19_4 1_555 1_555
H16_4 C19_4 1_555 1_555
C20_4 C19_4 1_555 1_555
C21_2 H17_2 1_555 1_555
C22_4 C21_2 1_555 1_555
H18_4 C22_4 1_555 1_555
N6_2 C20_4 1_555 1_555
N4_4 C16_4 1_555 1_555
O3_4 Cd2_2 1_555 1_555
O4_4 Cd2_2 1_555 1_555
C12_4 O3_4 1_555 1_555
C12_4 O4_4 1_555 1_555
C17_4 C18_4 1_555 1_555
C20_4 N4_4 1_555 1_555
C21_2 N6_2 1_555 1_555
C22_4 N4_4 1_555 1_555
C10_3 H8_3 1_555 1_555
C11_3 C10_3 1_555 1_555
C21_3 H17_3 1_555 1_555
C21_4 H17_4 1_555 1_555
Cd1_2 O1_5 1_555 1_555
C1_5 C2_5 1_555 1_555
C2_5 C3_5 1_555 1_555
C3_5 H1_5 1_555 1_555
C4_5 C3_5 1_555 1_555
H2_5 C4_5 1_555 1_555
O1_5 C1_5 1_555 1_555
O2_5 Cd1_2 1_555 1_555
O3_5 Cd1_2 1_555 1_555
N5_3 Cd1_2 1_555 1_555
N6_3 Cd1_2 1_555 1_555
C1_5 O2_5 1_555 1_555
C12_5 C13_5 1_555 1_555
C13_5 C14_5 1_555 1_555
C14_5 H10_5 1_555 1_555
C15_5 C14_5 1_555 1_555
H11_5 C15_5 1_555 1_555
C16_5 C15_5 1_555 1_555
C17_5 C16_5 1_555 1_555
H12_5 C17_5 1_555 1_555
C18_5 C13_5 1_555 1_555
H13_5 C18_5 1_555 1_555
C19_5 H14_5 1_555 1_555
H15_5 C19_5 1_555 1_555
H16_5 C19_5 1_555 1_555
C20_5 C19_5 1_555 1_555
H18_5 C22_5 1_555 1_555
N3_3 C20_5 1_555 1_555
N4_5 C16_5 1_555 1_555
Cd2_3 N3_3 1_555 1_555
C12_5 O4_5 1_555 1_555
C17_5 C18_5 1_555 1_555
C20_5 N4_5 1_555 1_555
C22_5 N4_5 1_555 1_555
C6_5 C5_5 1_555 1_555
H3_5 C6_5 1_555 1_555
H4_5 C7_5 1_555 1_555
C8_5 H5_5 1_555 1_555
H6_5 C8_5 1_555 1_555
H7_5 C8_5 1_555 1_555
C9_5 C8_5 1_555 1_555
N1_3 C9_5 1_555 1_555
N2_5 C5_5 1_555 1_555
C6_5 C7_5 1_555 1_555
C9_5 N2_5 1_555 1_555
C1_6 C2_6 1_555 1_555
C2_6 C3_6 1_555 1_555
C3_6 H1_6 1_555 1_555
C4_6 C3_6 1_555 1_555
H2_6 C4_6 1_555 1_555
C5_6 C4_6 1_555 1_555
C6_6 C5_6 1_555 1_555
H3_6 C6_6 1_555 1_555
C7_6 C2_6 1_555 1_555
H4_6 C7_6 1_555 1_555
C8_6 H5_6 1_555 1_555
H6_6 C8_6 1_555 1_555
H7_6 C8_6 1_555 1_555
C9_6 C8_6 1_555 1_555
N5_3 C9_6 1_555 1_555
N2_6 C5_6 1_555 1_555
O1_6 C1_6 1_555 1_555
C1_6 O2_6 1_555 1_555
C6_6 C7_6 1_555 1_555
C9_6 N2_6 1_555 1_555
C12_6 C13_6 1_555 1_555
C13_6 C14_6 1_555 1_555
C14_6 H10_6 1_555 1_555
C15_6 C14_6 1_555 1_555
H11_6 C15_6 1_555 1_555
C16_6 C15_6 1_555 1_555
C17_6 C16_6 1_555 1_555
H12_6 C17_6 1_555 1_555
C18_6 C13_6 1_555 1_555
H13_6 C18_6 1_555 1_555
C19_6 H14_6 1_555 1_555
H15_6 C19_6 1_555 1_555
H16_6 C19_6 1_555 1_555
C20_6 C19_6 1_555 1_555
C21_5 H17_5 1_555 1_555
C22_6 C21_5 1_555 1_555
H18_6 C22_6 1_555 1_555
N6_3 C20_6 1_555 1_555
N4_6 C16_6 1_555 1_555
O3_6 Cd2_3 1_555 1_555
O4_6 Cd2_3 1_555 1_555
C12_6 O3_6 1_555 1_555
C12_6 O4_6 1_555 1_555
C17_6 C18_6 1_555 1_555
C20_6 N4_6 1_555 1_555
C21_5 N6_3 1_555 1_555
C22_6 N4_6 1_555 1_555
C10_4 H8_4 1_555 1_555
C11_4 C10_4 1_555 1_555
O3_7 Cd3_2 1_555 1_555
N6_4 Cd3_2 1_555 1_555
C12_7 C13_7 1_555 1_555
C13_7 C14_7 1_555 1_555
C14_7 H10_7 1_555 1_555
C15_7 C14_7 1_555 1_555
H11_7 C15_7 1_555 1_555
C16_7 C15_7 1_555 1_555
C17_7 C16_7 1_555 1_555
H12_7 C17_7 1_555 1_555
C18_7 C13_7 1_555 1_555
H13_7 C18_7 1_555 1_555
C19_7 H14_7 1_555 1_555
H15_7 C19_7 1_555 1_555
H16_7 C19_7 1_555 1_555
C20_7 C19_7 1_555 1_555
C21_6 H17_6 1_555 1_555
C22_7 C21_6 1_555 1_555
H18_7 C22_7 1_555 1_555
N3_4 C20_7 1_555 1_555
N4_7 C16_7 1_555 1_555
Cd2_4 N3_4 1_555 1_555
C12_7 O4_7 1_555 1_555
C17_7 C18_7 1_555 1_555
C20_7 N4_7 1_555 1_555
C21_6 N3_4 1_555 1_555
C22_7 N4_7 1_555 1_555
Cd2_4 O1_7 1_555 1_555
C1_7 C2_7 1_555 1_555
C2_7 C3_7 1_555 1_555
C3_7 H1_7 1_555 1_555
C4_7 C3_7 1_555 1_555
H2_7 C4_7 1_555 1_555
C5_7 C4_7 1_555 1_555
C6_7 C5_7 1_555 1_555
H3_7 C6_7 1_555 1_555
C7_7 C2_7 1_555 1_555
H4_7 C7_7 1_555 1_555
C8_7 H5_7 1_555 1_555
H6_7 C8_7 1_555 1_555
H7_7 C8_7 1_555 1_555
C9_7 C8_7 1_555 1_555
C10_5 H8_5 1_555 1_555
C11_5 C10_5 1_555 1_555
C12_8 C13_8 1_555 1_555
C13_8 C14_8 1_555 1_555
C14_8 H10_8 1_555 1_555
C15_8 C14_8 1_555 1_555
H11_8 C15_8 1_555 1_555
C16_8 C15_8 1_555 1_555
C17_8 C16_8 1_555 1_555
H12_8 C17_8 1_555 1_555
C18_8 C13_8 1_555 1_555
H13_8 C18_8 1_555 1_555
C19_8 H14_8 1_555 1_555
H15_8 C19_8 1_555 1_555
H16_8 C19_8 1_555 1_555
C20_8 C19_8 1_555 1_555
H18_8 C22_8 1_555 1_555
N1_4 C9_7 1_555 1_555
N2_7 C5_7 1_555 1_555
N6_4 C20_8 1_555 1_555
N4_8 C16_8 1_555 1_555
O1_7 C1_7 1_555 1_555
O2_7 Cd2_4 1_555 1_555
O3_8 Cd2_4 1_555 1_555
O4_8 Cd2_4 1_555 1_555
N5_4 Cd2_4 1_555 1_555
C1_7 O2_7 1_555 1_555
C6_7 C7_7 1_555 1_555
C9_7 N2_7 1_555 1_555
C10_5 N2_7 1_555 1_555
C11_5 N1_4 1_555 1_555
C12_8 O3_8 1_555 1_555
C12_8 O4_8 1_555 1_555
C17_8 C18_8 1_555 1_555
C20_8 N4_8 1_555 1_555
C22_8 N4_8 1_555 1_555
C1_8 C2_8 1_555 1_555
C2_8 C3_8 1_555 1_555
C3_8 H1_8 1_555 1_555
C4_8 C3_8 1_555 1_555
H2_8 C4_8 1_555 1_555
O1_8 C1_8 1_555 1_555
C1_8 O2_8 1_555 1_555
C6_8 C5_8 1_555 1_555
H3_8 C6_8 1_555 1_555
H4_8 C7_8 1_555 1_555
C8_8 H5_8 1_555 1_555
H6_8 C8_8 1_555 1_555
H7_8 C8_8 1_555 1_555
C9_8 C8_8 1_555 1_555
C10_6 H8_6 1_555 1_555
C11_6 C10_6 1_555 1_555
H9_5 C11_6 1_555 1_555
N5_4 C9_8 1_555 1_555
N2_8 C5_8 1_555 1_555
C6_8 C7_8 1_555 1_555
C9_8 N2_8 1_555 1_555
C10_6 N2_8 1_555 1_555
C11_6 N5_4 1_555 1_555
C10_7 H8_7 1_555 1_555
C11_7 C10_7 1_555 1_555
H9_7 C11_7 1_555 1_555
C10_8 H8_8 1_555 1_555
C11_8 C10_8 1_555 1_555
H9_8 C11_8 1_555 1_555
C21_7 H17_7 1_555 1_555
C21_8 H17_8 1_555 1_555

#END
