
###############################################################################
#
# This file contains modified crystal structure data generated from the
# MOF subset of the Cambridge Structural Database (CSD) v543 
# hosted by the Cambridge Crystallographic Data Centre (CCDC).
#
# This work is licensed under the Creative Commons
# Attribution-NonCommercial-ShareAlike 4.0 International License.
# To view a copy of this license, visit
# http://creativecommons.org/licenses/by-nc-sa/4.0/
# or send a letter to
# Creative Commons, PO Box 1866, Mountain View, CA 94042, USA.
#
# CIF created using the CSD Python API on 29 September 2022
# The structure has been converted into the P1 space group
# The structure has a 3D framework
# The original CSD entry EYULOA is in the orthorhombic crystal system
# The framework has been calculated to contain at least 10.0% void space
# The void calculation uses a probe of radius 1.32A, grid spacing 0.4
#
###############################################################################

data_EYULOA
_chemical_formula_moiety         '(C176 H136 Co11 N16 O48 S14)n'
_symmetry_cell_setting           triclinic
_symmetry_space_group_name_H-M   'P 1'
_symmetry_Int_Tables_number      1
_space_group_name_Hall           'P 1'
loop_
_symmetry_equiv_pos_site_id
_symmetry_equiv_pos_as_xyz
1 x,y,z
_cell_length_a                   16.744(6)
_cell_length_b                   15.092(6)
_cell_length_c                   22.518(8)
_cell_angle_alpha                90
_cell_angle_beta                 90
_cell_angle_gamma                90
_cell_volume                     5690.31
loop_
_atom_site_label
_atom_site_type_symbol
_atom_site_fract_x
_atom_site_fract_y
_atom_site_fract_z
Co10 Co 0.22604(5) 0.26612(6) 0.88195(4)
N3 N 0.1624(4) 0.1456(4) 0.8880(3)
C32 C 0.1730(7) 0.0851(7) 0.9267(5)
H21 H 0.2161 0.0923 0.9523
C33 C 0.1279(7) 0.0114(7) 0.9345(6)
C35 C 0.0588(8) 0.0536(8) 0.8567(7)
H23 H 0.0214 0.0410 0.8274
C36 C 0.1076(7) 0.1270(7) 0.8509(6)
H24 H 0.1000 0.1644 0.8185
H22 H 0.1442 0.9691 0.9620
C34 C 0.0649(6) 0.9985(6) 0.9058(5)
C37 C 0.0106(8) 0.9207(7) 0.9156(6)
H25 H 0.0432 0.8701 0.9263
N2 N 0.2955(4) 0.2283(4) 0.8050(3)
H5 H 0.6442 0.0309 0.5380
C12 C 0.5649(6) 0.0015(6) 0.5942(5)
C15 C 0.5106(8) 0.0793(7) 0.5844(6)
H8 H 0.5432 0.1299 0.5737
H9 H 0.4765 0.0662 0.5507
C16 C 0.4594(8) 0.1050(7) 0.6345(6)
H10 H 0.4278 0.0528 0.6433
H11 H 0.4955 0.1124 0.6678
C17 C 0.4061(8) 0.1761(8) 0.6382(6)
H12 H 0.3630 0.1655 0.6103
H13 H 0.4338 0.2291 0.6253
C18 C 0.3705(7) 0.1942(7) 0.6967(5)
C19 C 0.3650(7) 0.2768(7) 0.7182(5)
H14 H 0.3872 0.3241 0.6976
C20 C 0.3264(7) 0.2905(6) 0.7707(4)
H15 H 0.3214 0.3488 0.7835
C21 C 0.3070(7) 0.1463(7) 0.7856(4)
H16 H 0.2888 0.0998 0.8091
C22 C 0.3437(8) 0.1262(7) 0.7334(5)
H17 H 0.3508 0.0674 0.7222
Co1 Co 0.7500 0.5000 0.59732(5)
Co2 Co 0.72604(5) 0.73388(6) 0.61805(4)
N1 N 0.6624(4) 0.8544(4) 0.6120(3)
O1 O 0.6715(3) 0.5377(3) 0.6636(2)
O2 O 0.6458(3) 0.6814(3) 0.6769(3)
O3 O 0.6774(3) 0.5492(3) 0.5316(2)
O4 O 0.6560(3) 0.6948(3) 0.5478(3)
O5 O 0.3094(2) 0.6267(3) 0.3960(2)
O6 O 0.3357(3) 0.7568(3) 0.4364(2)
S1 S 0.5000 0.65537(16) 0.7500
S2 S 0.49601(9) 0.69852(11) 0.49221(8)
C1 C 0.6322(4) 0.6000(4) 0.6842(3)
C2 C 0.5611(4) 0.5758(4) 0.7189(3)
C3 C 0.5359(4) 0.4931(4) 0.7329(3)
H1 H 0.5626 0.4418 0.7214
C4 C 0.6402(4) 0.6212(4) 0.5254(3)
C5 C 0.5687(4) 0.6180(4) 0.4862(3)
C6 C 0.5467(4) 0.5540(5) 0.4475(3)
H2 H 0.5786 0.5053 0.4386
C7 C 0.4705(4) 0.5681(5) 0.4219(3)
H3 H 0.4470 0.5300 0.3945
C8 C 0.4353(3) 0.6442(4) 0.4420(3)
C9 C 0.3558(3) 0.6783(4) 0.4251(3)
C10 C 0.6730(7) 0.9149(7) 0.5733(5)
H4 H 0.7161 0.9077 0.5477
C11 C 0.6279(7) 0.9886(7) 0.5655(6)
C13 C 0.5588(8) 0.9464(8) 0.6433(7)
H6 H 0.5214 0.9590 0.6726
C14 C 0.6076(7) 0.8730(7) 0.6491(6)
H7 H 0.6000 0.8356 0.6815
Co3 Co 0.2500 0.5000 0.40268(5)
Co4 Co 0.2500 0.5000 0.90268(5)
Co5 Co 0.27396(5) 0.73388(6) 0.88195(4)
Co7 Co 0.22604(5) 0.73388(6) 0.38195(4)
Co8 Co 0.27396(5) 0.26612(6) 0.38195(4)
Co9 Co 0.77396(5) 0.26612(6) 0.61805(4)
N4 N 0.3376(4) 0.8544(4) 0.8880(3)
N5 N 0.7955(4) 0.7717(4) 0.6950(3)
N6 N 0.2045(4) 0.7717(4) 0.8050(3)
O7 O 0.3285(3) 0.5377(3) 0.8364(2)
O8 O 0.8285(3) 0.4623(3) 0.6636(2)
O9 O 0.3542(3) 0.6814(3) 0.8231(3)
O10 O 0.3226(3) 0.4508(3) 0.4684(2)
O11 O 0.8226(3) 0.4508(3) 0.5316(2)
O12 O 0.3440(3) 0.3052(3) 0.4522(3)
O13 O 0.3440(3) 0.6948(3) 0.9522(3)
O14 O 0.6906(2) 0.3733(3) 0.6040(2)
O15 O 0.8094(2) 0.6267(3) 0.6040(2)
O16 O 0.1906(2) 0.6267(3) 0.8960(2)
O17 O 0.6643(3) 0.2432(3) 0.5636(2)
O18 O 0.8357(3) 0.7568(3) 0.5636(2)
O19 O 0.1643(3) 0.7568(3) 0.9364(2)
S3 S 0.50399(9) 0.30148(11) 0.50779(8)
C23 C 0.3678(4) 0.6000(4) 0.8158(3)
C24 C 0.4389(4) 0.5758(4) 0.7811(3)
C25 C 0.4641(4) 0.4931(4) 0.7671(3)
H18 H 0.4374 0.4418 0.7786
C26 C 0.3598(4) 0.3788(4) 0.4746(3)
C27 C 0.4313(4) 0.3820(4) 0.5138(3)
C28 C 0.4533(4) 0.4460(5) 0.5525(3)
H19 H 0.4214 0.4947 0.5614
C29 C 0.5295(4) 0.4319(5) 0.5781(3)
H20 H 0.5530 0.4700 0.6055
C30 C 0.5647(3) 0.3558(4) 0.5580(3)
C31 C 0.6442(3) 0.3217(4) 0.5749(3)
H26 H 0.9765 0.9338 0.9493
C38 C 0.9594(8) 0.8950(7) 0.8655(6)
H27 H 0.9278 0.9472 0.8567
H28 H 0.9955 0.8876 0.8322
C39 C 0.9061(8) 0.8239(8) 0.8618(6)
H29 H 0.8630 0.8345 0.8897
H30 H 0.9338 0.7709 0.8747
C40 C 0.8705(7) 0.8058(7) 0.8033(5)
C41 C 0.8650(7) 0.7232(7) 0.7818(5)
H31 H 0.8872 0.6759 0.8024
C42 C 0.8264(7) 0.7095(6) 0.7293(4)
H32 H 0.8214 0.6512 0.7165
C43 C 0.8070(7) 0.8537(7) 0.7144(4)
H33 H 0.7888 0.9002 0.6909
C44 C 0.8437(8) 0.8738(7) 0.7666(5)
H34 H 0.8508 0.9326 0.7778
O5_2 O 0.1906(2) 0.3733(3) 0.3960(2)
O6_2 O 0.1643(3) 0.2432(3) 0.4364(2)
S1_2 S 0.0000 0.34463(16) 0.7500
S2_2 S 0.00399(9) 0.30148(11) 0.49221(8)
C7_2 C 0.0295(4) 0.4319(5) 0.4219(3)
H3_2 H 0.0530 0.4700 0.3945
C8_2 C 0.0647(3) 0.3558(4) 0.4420(3)
C9_2 C 0.1442(3) 0.3217(4) 0.4251(3)
O7_2 O 0.1715(3) 0.4623(3) 0.8364(2)
O9_2 O 0.1458(3) 0.3186(3) 0.8231(3)
O10_2 O 0.1774(3) 0.5492(3) 0.4684(2)
O12_2 O 0.1560(3) 0.6948(3) 0.4522(3)
O13_2 O 0.1560(3) 0.3052(3) 0.9522(3)
O16_2 O 0.3094(2) 0.3733(3) 0.8960(2)
O19_2 O 0.3357(3) 0.2432(3) 0.9364(2)
C23_2 C 0.1322(4) 0.4000(4) 0.8158(3)
C24_2 C 0.0611(4) 0.4242(4) 0.7811(3)
C25_2 C 0.0359(4) 0.5069(4) 0.7671(3)
H18_2 H 0.0626 0.5582 0.7786
C26_2 C 0.1402(4) 0.6212(4) 0.4746(3)
C27_2 C 0.0687(4) 0.6180(4) 0.5138(3)
C28_2 C 0.0467(4) 0.5540(5) 0.5525(3)
H19_2 H 0.0786 0.5053 0.5614
H9_2 H 0.0235 0.9338 0.5507
C16_2 C 0.0406(8) 0.8950(7) 0.6345(6)
H10_2 H 0.0722 0.9472 0.6433
H11_2 H 0.0045 0.8876 0.6678
C17_2 C 0.0939(8) 0.8239(8) 0.6382(6)
H12_2 H 0.1370 0.8345 0.6103
H13_2 H 0.0662 0.7709 0.6253
C18_2 C 0.1295(7) 0.8058(7) 0.6967(5)
C19_2 C 0.1350(7) 0.7232(7) 0.7182(5)
H14_2 H 0.1128 0.6759 0.6976
C20_2 C 0.1736(7) 0.7095(6) 0.7707(4)
H15_2 H 0.1786 0.6512 0.7835
C21_2 C 0.1930(7) 0.8537(7) 0.7856(4)
H16_2 H 0.2112 0.9002 0.8091
C22_2 C 0.1563(8) 0.8738(7) 0.7334(5)
H17_2 H 0.1492 0.9326 0.7222
N1_2 N 0.8376(4) 0.1456(4) 0.6120(3)
O2_2 O 0.8542(3) 0.3186(3) 0.6769(3)
O4_2 O 0.8440(3) 0.3052(3) 0.5478(3)
S1_3 S 1.0000 0.34463(16) 0.7500
C1_2 C 0.8678(4) 0.4000(4) 0.6842(3)
C2_2 C 0.9389(4) 0.4242(4) 0.7189(3)
C3_2 C 0.9641(4) 0.5069(4) 0.7329(3)
H1_2 H 0.9374 0.5582 0.7214
C4_2 C 0.8598(4) 0.3788(4) 0.5254(3)
C5_2 C 0.9313(4) 0.3820(4) 0.4862(3)
C6_2 C 0.9533(4) 0.4460(5) 0.4475(3)
H2_2 H 0.9214 0.4947 0.4386
C10_2 C 0.8270(7) 0.0851(7) 0.5733(5)
H4_2 H 0.7839 0.0923 0.5477
C11_2 C 0.8721(7) 0.0114(7) 0.5655(6)
C13_2 C 0.9412(8) 0.0536(8) 0.6433(7)
H6_2 H 0.9786 0.0410 0.6726
C14_2 C 0.8924(7) 0.1270(7) 0.6491(6)
H7_2 H 0.9000 0.1644 0.6815
N5_2 N 0.7045(4) 0.2283(4) 0.6950(3)
S3_2 S 0.99601(9) 0.69852(11) 0.50779(8)
C29_2 C 0.9705(4) 0.5681(5) 0.5781(3)
H20_2 H 0.9470 0.5300 0.6055
C30_2 C 0.9353(3) 0.6442(4) 0.5580(3)
C31_2 C 0.8558(3) 0.6783(4) 0.5749(3)
H22_2 H 0.3558 0.0309 0.9620
C34_2 C 0.4351(6) 0.0015(6) 0.9058(5)
C37_2 C 0.4894(8) 0.0793(7) 0.9156(6)
H25_2 H 0.4568 0.1299 0.9263
H26_2 H 0.5235 0.0662 0.9493
C38_2 C 0.5406(8) 0.1050(7) 0.8655(6)
H27_2 H 0.5722 0.0528 0.8567
H28_2 H 0.5045 0.1124 0.8322
C39_2 C 0.5939(8) 0.1761(8) 0.8618(6)
H29_2 H 0.6370 0.1655 0.8897
H30_2 H 0.5662 0.2291 0.8747
C40_2 C 0.6295(7) 0.1942(7) 0.8033(5)
C41_2 C 0.6350(7) 0.2768(7) 0.7818(5)
H31_2 H 0.6128 0.3241 0.8024
C42_2 C 0.6736(7) 0.2905(6) 0.7293(4)
H32_2 H 0.6786 0.3488 0.7165
C43_2 C 0.6930(7) 0.1463(7) 0.7144(4)
H33_2 H 0.7112 0.0998 0.6909
C44_2 C 0.6563(8) 0.1262(7) 0.7666(5)
H34_2 H 0.6492 0.0674 0.7778
H5_2 H 0.8558 0.9691 0.5380
C12_2 C 0.9351(6) 0.9985(6) 0.5942(5)
C15_2 C 0.9894(8) 0.9207(7) 0.5844(6)
H8_2 H 0.9568 0.8701 0.5737
C32_2 C 0.3270(7) 0.9149(7) 0.9267(5)
H21_2 H 0.2839 0.9077 0.9523
C33_2 C 0.3721(7) 0.9886(7) 0.9345(6)
C35_2 C 0.4412(8) 0.9464(8) 0.8567(7)
H23_2 H 0.4786 0.9590 0.8274
C36_2 C 0.3924(7) 0.8730(7) 0.8509(6)
H24_2 H 0.4000 0.8356 0.8185
O5_3 O 0.6906(2) 0.6267(3) 0.1040(2)
O6_3 O 0.6643(3) 0.7568(3) 0.0636(2)
S2_3 S 0.50399(9) 0.69852(11) 0.00779(8)
C5_3 C 0.4313(4) 0.6180(4) 0.0138(3)
C6_3 C 0.4533(4) 0.5540(5) 0.0525(3)
H2_3 H 0.4214 0.5053 0.0614
C7_3 C 0.5295(4) 0.5681(5) 0.0781(3)
H3_3 H 0.5530 0.5300 0.1055
C8_3 C 0.5647(3) 0.6442(4) 0.0580(3)
C9_3 C 0.6442(3) 0.6783(4) 0.0749(3)
Co3_2 Co 0.7500 0.5000 0.09732(5)
Co7_2 Co 0.77396(5) 0.73388(6) 0.11805(4)
Co8_2 Co 0.72604(5) 0.26612(6) 0.11805(4)
O10_3 O 0.6774(3) 0.4508(3) 0.0316(2)
O12_3 O 0.6560(3) 0.3052(3) 0.0478(3)
C26_3 C 0.6402(4) 0.3788(4) 0.0254(3)
O3_2 O 0.3226(3) 0.5492(3) 0.9684(2)
C4_3 C 0.3598(4) 0.6212(4) 0.9746(3)
O11_2 O 0.1774(3) 0.4508(3) 0.9684(2)
S3_3 S 0.49601(9) 0.30148(11) 0.99221(8)
C27_3 C 0.5687(4) 0.3820(4) 0.9862(3)
C28_3 C 0.5467(4) 0.4460(5) 0.9475(3)
H19_3 H 0.5786 0.4947 0.9386
C29_3 C 0.4705(4) 0.4319(5) 0.9219(3)
H20_3 H 0.4470 0.4700 0.8945
C30_3 C 0.4353(3) 0.3558(4) 0.9420(3)
C31_3 C 0.3558(3) 0.3217(4) 0.9251(3)
C5_4 C 0.0687(4) 0.3820(4) 0.0138(3)
C6_4 C 0.0467(4) 0.4460(5) 0.0525(3)
H2_4 H 0.0786 0.4947 0.0614
C4_4 C 0.1402(4) 0.3788(4) 0.9746(3)
S3_4 S 0.00399(9) 0.69852(11) 0.99221(8)
C29_4 C 0.0295(4) 0.5681(5) 0.9219(3)
H20_4 H 0.0530 0.5300 0.8945
C30_4 C 0.0647(3) 0.6442(4) 0.9420(3)
C31_4 C 0.1442(3) 0.6783(4) 0.9251(3)
O5_4 O 0.8094(2) 0.3733(3) 0.1040(2)
O6_4 O 0.8357(3) 0.2432(3) 0.0636(2)
S2_4 S 0.99601(9) 0.30148(11) 0.00779(8)
C7_4 C 0.9705(4) 0.4319(5) 0.0781(3)
H3_4 H 0.9470 0.4700 0.1055
C8_4 C 0.9353(3) 0.3558(4) 0.0580(3)
C9_4 C 0.8558(3) 0.3217(4) 0.0749(3)
O10_4 O 0.8226(3) 0.5492(3) 0.0316(2)
O12_4 O 0.8440(3) 0.6948(3) 0.0478(3)
C26_4 C 0.8598(4) 0.6212(4) 0.0254(3)
C27_4 C 0.9313(4) 0.6180(4) 0.9862(3)
C28_4 C 0.9533(4) 0.5540(5) 0.9475(3)
H19_4 H 0.9214 0.5053 0.9386
N1_3 N 0.3376(4) 0.1456(4) 0.3880(3)
O1_2 O 0.3285(3) 0.4623(3) 0.3364(2)
O2_3 O 0.3542(3) 0.3186(3) 0.3231(3)
S1_4 S 0.5000 0.34463(16) 0.2500
C1_3 C 0.3678(4) 0.4000(4) 0.3158(3)
C2_3 C 0.4389(4) 0.4242(4) 0.2811(3)
C3_3 C 0.4641(4) 0.5069(4) 0.2671(3)
H1_3 H 0.4374 0.5582 0.2786
C10_3 C 0.3270(7) 0.0851(7) 0.4267(5)
H4_3 H 0.2839 0.0923 0.4523
C11_3 C 0.3721(7) 0.0114(7) 0.4345(6)
C13_3 C 0.4412(8) 0.0536(8) 0.3567(7)
H6_3 H 0.4786 0.0410 0.3274
C14_3 C 0.3924(7) 0.1270(7) 0.3509(6)
H7_3 H 0.4000 0.1644 0.3185
N4_2 N 0.6624(4) 0.1456(4) 0.1120(3)
N5_3 N 0.2045(4) 0.2283(4) 0.3050(3)
N6_2 N 0.7955(4) 0.2283(4) 0.1950(3)
O7_3 O 0.6715(3) 0.4623(3) 0.1636(2)
O8_2 O 0.1715(3) 0.5377(3) 0.3364(2)
O9_3 O 0.6458(3) 0.3186(3) 0.1769(3)
C23_3 C 0.6322(4) 0.4000(4) 0.1842(3)
C24_3 C 0.5611(4) 0.4242(4) 0.2189(3)
C25_3 C 0.5359(4) 0.5069(4) 0.2329(3)
H18_3 H 0.5626 0.5582 0.2214
H26_3 H 0.0235 0.0662 0.0507
C38_3 C 0.0406(8) 0.1050(7) 0.1345(6)
H27_3 H 0.0722 0.0528 0.1433
H28_3 H 0.0045 0.1124 0.1678
C39_3 C 0.0939(8) 0.1761(8) 0.1382(6)
H29_3 H 0.1370 0.1655 0.1103
H30_3 H 0.0662 0.2291 0.1253
C40_3 C 0.1295(7) 0.1942(7) 0.1967(5)
C41_3 C 0.1350(7) 0.2768(7) 0.2182(5)
H31_3 H 0.1128 0.3241 0.1976
C42_3 C 0.1736(7) 0.2905(6) 0.2707(4)
H32_3 H 0.1786 0.3488 0.2835
C43_3 C 0.1930(7) 0.1463(7) 0.2856(4)
H33_3 H 0.2112 0.0998 0.3091
C44_3 C 0.1563(8) 0.1262(7) 0.2334(5)
H34_3 H 0.1492 0.0674 0.2222
N2_2 N 0.7045(4) 0.7717(4) 0.1950(3)
H5_3 H 0.3558 0.9691 0.4620
C12_3 C 0.4351(6) 0.9985(6) 0.4058(5)
C15_3 C 0.4894(8) 0.9207(7) 0.4156(6)
H8_3 H 0.4568 0.8701 0.4263
H9_3 H 0.5235 0.9338 0.4493
C16_3 C 0.5406(8) 0.8950(7) 0.3655(6)
H10_3 H 0.5722 0.9472 0.3567
H11_3 H 0.5045 0.8876 0.3322
C17_3 C 0.5939(8) 0.8239(8) 0.3618(6)
H12_3 H 0.6370 0.8345 0.3897
H13_3 H 0.5662 0.7709 0.3747
C18_3 C 0.6295(7) 0.8058(7) 0.3033(5)
C19_3 C 0.6350(7) 0.7232(7) 0.2818(5)
H14_3 H 0.6128 0.6759 0.3024
C20_3 C 0.6736(7) 0.7095(6) 0.2293(4)
H15_3 H 0.6786 0.6512 0.2165
C21_3 C 0.6930(7) 0.8537(7) 0.2144(4)
H16_3 H 0.7112 0.9002 0.1909
C22_3 C 0.6563(8) 0.8738(7) 0.2666(5)
H17_3 H 0.6492 0.9326 0.2778
H22_3 H 0.8558 0.0309 0.0380
C34_3 C 0.9351(6) 0.0015(6) 0.0942(5)
C37_3 C 0.9894(8) 0.0793(7) 0.0844(6)
H25_3 H 0.9568 0.1299 0.0737
N3_2 N 0.8376(4) 0.8544(4) 0.1120(3)
C32_3 C 0.8270(7) 0.9149(7) 0.0733(5)
H21_3 H 0.7839 0.9077 0.0477
C33_3 C 0.8721(7) 0.9886(7) 0.0655(6)
C35_3 C 0.9412(8) 0.9464(8) 0.1433(7)
H23_3 H 0.9786 0.9590 0.1726
C36_3 C 0.8924(7) 0.8730(7) 0.1491(6)
H24_3 H 0.9000 0.8356 0.1815
H5_4 H 0.1442 0.0309 0.4620
C12_4 C 0.0649(6) 0.0015(6) 0.4058(5)
C15_4 C 0.0106(8) 0.0793(7) 0.4156(6)
H8_4 H 0.0432 0.1299 0.4263
C32_4 C 0.6730(7) 0.0851(7) 0.0733(5)
H21_4 H 0.7161 0.0923 0.0477
C33_4 C 0.6279(7) 0.0114(7) 0.0655(6)
C35_4 C 0.5588(8) 0.0536(8) 0.1433(7)
H23_4 H 0.5214 0.0410 0.1726
C36_4 C 0.6076(7) 0.1270(7) 0.1491(6)
H24_4 H 0.6000 0.1644 0.1815
N1_4 N 0.1624(4) 0.8544(4) 0.3880(3)
O2_4 O 0.1458(3) 0.6814(3) 0.3231(3)
S1_5 S -0.0000 0.65537(16) 0.2500
C1_4 C 0.1322(4) 0.6000(4) 0.3158(3)
C2_4 C 0.0611(4) 0.5758(4) 0.2811(3)
C3_4 C 0.0359(4) 0.4931(4) 0.2671(3)
H1_4 H 0.0626 0.4418 0.2786
C10_4 C 0.1730(7) 0.9149(7) 0.4267(5)
H4_4 H 0.2161 0.9077 0.4523
C11_4 C 0.1279(7) 0.9886(7) 0.4345(6)
C13_4 C 0.0588(8) 0.9464(8) 0.3567(7)
H6_4 H 0.0214 0.9590 0.3274
C14_4 C 0.1076(7) 0.8730(7) 0.3509(6)
H7_4 H 0.1000 0.8356 0.3185
N5_4 N 0.2955(4) 0.7717(4) 0.3050(3)
H22_4 H 0.6442 0.9691 0.0380
C34_4 C 0.5649(6) 0.9985(6) 0.0942(5)
C37_4 C 0.5106(8) 0.9207(7) 0.0844(6)
H25_4 H 0.5432 0.8701 0.0737
H26_4 H 0.4765 0.9338 0.0507
C38_4 C 0.4594(8) 0.8950(7) 0.1345(6)
H27_4 H 0.4278 0.9472 0.1433
H28_4 H 0.4955 0.8876 0.1678
C39_4 C 0.4061(8) 0.8239(8) 0.1382(6)
H29_4 H 0.3630 0.8345 0.1103
H30_4 H 0.4338 0.7709 0.1253
C40_4 C 0.3705(7) 0.8058(7) 0.1967(5)
C41_4 C 0.3650(7) 0.7232(7) 0.2182(5)
H31_4 H 0.3872 0.6759 0.1976
C42_4 C 0.3264(7) 0.7095(6) 0.2707(4)
H32_4 H 0.3214 0.6512 0.2835
C43_4 C 0.3070(7) 0.8537(7) 0.2856(4)
H33_4 H 0.2888 0.9002 0.3091
C44_4 C 0.3437(8) 0.8738(7) 0.2334(5)
H34_4 H 0.3508 0.9326 0.2222
H9_4 H 0.9765 0.0662 0.4493
C16_4 C 0.9594(8) 0.1050(7) 0.3655(6)
H10_4 H 0.9278 0.0528 0.3567
H11_4 H 0.9955 0.1124 0.3322
C17_4 C 0.9061(8) 0.1761(8) 0.3618(6)
H12_4 H 0.8630 0.1655 0.3897
H13_4 H 0.9338 0.2291 0.3747
C18_4 C 0.8705(7) 0.1942(7) 0.3033(5)
C19_4 C 0.8650(7) 0.2768(7) 0.2818(5)
H14_4 H 0.8872 0.3241 0.3024
C20_4 C 0.8264(7) 0.2905(6) 0.2293(4)
H15_4 H 0.8214 0.3488 0.2165
C21_4 C 0.8070(7) 0.1463(7) 0.2144(4)
H16_4 H 0.7888 0.0998 0.1909
C22_4 C 0.8437(8) 0.1262(7) 0.2666(5)
H17_4 H 0.8508 0.0674 0.2778
S1_6 S 1.0000 0.65537(16) 0.2500
O7_4 O 0.8285(3) 0.5377(3) 0.1636(2)
O9_4 O 0.8542(3) 0.6814(3) 0.1769(3)
C23_4 C 0.8678(4) 0.6000(4) 0.1842(3)
C24_4 C 0.9389(4) 0.5758(4) 0.2189(3)
C25_4 C 0.9641(4) 0.4931(4) 0.2329(3)
H18_4 H 0.9374 0.4418 0.2214
loop_
_geom_bond_atom_site_label_1
_geom_bond_atom_site_label_2
_geom_bond_site_symmetry_1
_geom_bond_site_symmetry_2
Co10 N3 1_555 1_555
N3 C32 1_555 1_555
C32 H21 1_555 1_555
C33 C32 1_555 1_555
H23 C35 1_555 1_555
C36 N3 1_555 1_555
H24 C36 1_555 1_555
C35 C36 1_555 1_555
C37 C34 1_555 1_555
H25 C37 1_555 1_555
N2 C20 1_555 1_555
C15 C12 1_555 1_555
H8 C15 1_555 1_555
H9 C15 1_555 1_555
C16 C15 1_555 1_555
H10 C16 1_555 1_555
H11 C16 1_555 1_555
C17 C16 1_555 1_555
H12 C17 1_555 1_555
H13 C17 1_555 1_555
C18 C17 1_555 1_555
C19 C18 1_555 1_555
H14 C19 1_555 1_555
C20 C19 1_555 1_555
H15 C20 1_555 1_555
C21 N2 1_555 1_555
H16 C21 1_555 1_555
C22 C18 1_555 1_555
H17 C22 1_555 1_555
Co10 N2 1_555 1_555
C21 C22 1_555 1_555
Co1 O1 1_555 1_555
Co2 N1 1_555 1_555
N1 C10 1_555 1_555
O1 C1 1_555 1_555
O2 Co2 1_555 1_555
O3 Co1 1_555 1_555
O4 Co2 1_555 1_555
O5 C9 1_555 1_555
O6 C9 1_555 1_555
S1 C2 1_555 1_555
S2 C5 1_555 1_555
C1 O2 1_555 1_555
C2 C1 1_555 1_555
C3 C2 1_555 1_555
H1 C3 1_555 1_555
C4 O3 1_555 1_555
C5 C4 1_555 1_555
C6 C5 1_555 1_555
H2 C6 1_555 1_555
C7 C6 1_555 1_555
H3 C7 1_555 1_555
C8 S2 1_555 1_555
C9 C8 1_555 1_555
C10 H4 1_555 1_555
C11 C10 1_555 1_555
H6 C13 1_555 1_555
C14 N1 1_555 1_555
H7 C14 1_555 1_555
Co3 O5 1_555 1_555
Co4 O7 1_555 1_555
Co5 N4 1_555 1_555
Co7 O5 1_555 1_555
Co8 O12 1_555 1_555
Co9 O14 1_555 1_555
N5 Co2 1_555 1_555
N6 Co5 1_555 1_555
O7 C23 1_555 1_555
O8 Co1 1_555 1_555
O9 Co5 1_555 1_555
O10 Co3 1_555 1_555
O11 Co1 1_555 1_555
O12 C26 1_555 1_555
O13 Co5 1_555 1_555
O14 Co1 1_555 1_555
O15 Co1 1_555 1_555
O16 Co4 1_555 1_555
O17 Co9 1_555 1_555
O18 Co2 1_555 1_555
O19 Co5 1_555 1_555
S3 C27 1_555 1_555
C23 O9 1_555 1_555
C24 S1 1_555 1_555
C25 C3 1_555 1_555
H18 C25 1_555 1_555
C26 O10 1_555 1_555
C27 C26 1_555 1_555
C28 C27 1_555 1_555
H19 C28 1_555 1_555
C29 C28 1_555 1_555
H20 C29 1_555 1_555
C30 S3 1_555 1_555
C31 O14 1_555 1_555
H27 C38 1_555 1_555
H28 C38 1_555 1_555
C39 C38 1_555 1_555
H29 C39 1_555 1_555
H30 C39 1_555 1_555
C40 C39 1_555 1_555
C41 C40 1_555 1_555
H31 C41 1_555 1_555
C42 N5 1_555 1_555
H32 C42 1_555 1_555
C43 N5 1_555 1_555
H33 C43 1_555 1_555
C44 C40 1_555 1_555
H34 C44 1_555 1_555
Co2 O15 1_555 1_555
O4 C4 1_555 1_555
O6 Co7 1_555 1_555
C7 C8 1_555 1_555
C13 C14 1_555 1_555
Co5 O16 1_555 1_555
O17 C31 1_555 1_555
C23 C24 1_555 1_555
C24 C25 1_555 1_555
C29 C30 1_555 1_555
C30 C31 1_555 1_555
C41 C42 1_555 1_555
C43 C44 1_555 1_555
O5_2 C9_2 1_555 1_555
O6_2 C9_2 1_555 1_555
H3_2 C7_2 1_555 1_555
C8_2 S2_2 1_555 1_555
C9_2 C8_2 1_555 1_555
Co3 O5_2 1_555 1_555
Co4 O7_2 1_555 1_555
Co8 O5_2 1_555 1_555
Co7 O12_2 1_555 1_555
O7_2 C23_2 1_555 1_555
O9_2 Co10 1_555 1_555
O10_2 Co3 1_555 1_555
O12_2 C26_2 1_555 1_555
O13_2 Co10 1_555 1_555
O16_2 Co4 1_555 1_555
O19_2 Co10 1_555 1_555
C23_2 O9_2 1_555 1_555
C24_2 S1_2 1_555 1_555
H18_2 C25_2 1_555 1_555
C26_2 O10_2 1_555 1_555
C27_2 C26_2 1_555 1_555
C28_2 C27_2 1_555 1_555
H19_2 C28_2 1_555 1_555
O6_2 Co8 1_555 1_555
C7_2 C8_2 1_555 1_555
Co10 O16_2 1_555 1_555
C23_2 C24_2 1_555 1_555
C24_2 C25_2 1_555 1_555
N6 C20_2 1_555 1_555
H10_2 C16_2 1_555 1_555
H11_2 C16_2 1_555 1_555
C17_2 C16_2 1_555 1_555
H12_2 C17_2 1_555 1_555
H13_2 C17_2 1_555 1_555
C18_2 C17_2 1_555 1_555
C19_2 C18_2 1_555 1_555
H14_2 C19_2 1_555 1_555
C20_2 C19_2 1_555 1_555
H15_2 C20_2 1_555 1_555
C21_2 N6 1_555 1_555
H16_2 C21_2 1_555 1_555
C22_2 C18_2 1_555 1_555
H17_2 C22_2 1_555 1_555
C21_2 C22_2 1_555 1_555
Co9 N1_2 1_555 1_555
N1_2 C10_2 1_555 1_555
O8 C1_2 1_555 1_555
O2_2 Co9 1_555 1_555
O4_2 Co9 1_555 1_555
S1_3 C2_2 1_555 1_555
C1_2 O2_2 1_555 1_555
C2_2 C1_2 1_555 1_555
C3_2 C2_2 1_555 1_555
H1_2 C3_2 1_555 1_555
C4_2 O11 1_555 1_555
C5_2 C4_2 1_555 1_555
C6_2 C5_2 1_555 1_555
H2_2 C6_2 1_555 1_555
C10_2 H4_2 1_555 1_555
C11_2 C10_2 1_555 1_555
H6_2 C13_2 1_555 1_555
C14_2 N1_2 1_555 1_555
H7_2 C14_2 1_555 1_555
N5_2 Co9 1_555 1_555
H20_2 C29_2 1_555 1_555
C30_2 S3_2 1_555 1_555
C31_2 O15 1_555 1_555
C37_2 C34_2 1_555 1_555
H25_2 C37_2 1_555 1_555
H26_2 C37_2 1_555 1_555
C38_2 C37_2 1_555 1_555
H27_2 C38_2 1_555 1_555
H28_2 C38_2 1_555 1_555
C39_2 C38_2 1_555 1_555
H29_2 C39_2 1_555 1_555
H30_2 C39_2 1_555 1_555
C40_2 C39_2 1_555 1_555
C41_2 C40_2 1_555 1_555
H31_2 C41_2 1_555 1_555
C42_2 N5_2 1_555 1_555
H32_2 C42_2 1_555 1_555
C43_2 N5_2 1_555 1_555
H33_2 C43_2 1_555 1_555
C44_2 C40_2 1_555 1_555
H34_2 C44_2 1_555 1_555
O4_2 C4_2 1_555 1_555
C13_2 C14_2 1_555 1_555
O18 C31_2 1_555 1_555
C29_2 C30_2 1_555 1_555
C30_2 C31_2 1_555 1_555
C41_2 C42_2 1_555 1_555
C43_2 C44_2 1_555 1_555
C15_2 C12_2 1_555 1_555
H8_2 C15_2 1_555 1_555
N4 C32_2 1_555 1_555
C32_2 H21_2 1_555 1_555
C33_2 C32_2 1_555 1_555
H23_2 C35_2 1_555 1_555
C36_2 N4 1_555 1_555
H24_2 C36_2 1_555 1_555
C35_2 C36_2 1_555 1_555
O5_3 C9_3 1_555 1_555
O6_3 C9_3 1_555 1_555
S2_3 C5_3 1_555 1_555
C6_3 C5_3 1_555 1_555
H2_3 C6_3 1_555 1_555
C7_3 C6_3 1_555 1_555
H3_3 C7_3 1_555 1_555
C8_3 S2_3 1_555 1_555
C9_3 C8_3 1_555 1_555
Co3_2 O5_3 1_555 1_555
Co7_2 O5_3 1_555 1_555
Co8_2 O12_3 1_555 1_555
O10_3 Co3_2 1_555 1_555
O12_3 C26_3 1_555 1_555
C26_3 O10_3 1_555 1_555
O6_3 Co7_2 1_555 1_555
C7_3 C8_3 1_555 1_555
O3_2 Co4 1_555 1_555
C4_3 O3_2 1_555 1_555
O11_2 Co4 1_555 1_555
S3_3 C27_3 1_555 1_555
C28_3 C27_3 1_555 1_555
H19_3 C28_3 1_555 1_555
C29_3 C28_3 1_555 1_555
H20_3 C29_3 1_555 1_555
C30_3 S3_3 1_555 1_555
C31_3 O16_2 1_555 1_555
O13 C4_3 1_555 1_555
O19_2 C31_3 1_555 1_555
C29_3 C30_3 1_555 1_555
C30_3 C31_3 1_555 1_555
C6_4 C5_4 1_555 1_555
H2_4 C6_4 1_555 1_555
C4_4 O11_2 1_555 1_555
H20_4 C29_4 1_555 1_555
C30_4 S3_4 1_555 1_555
C31_4 O16 1_555 1_555
O13_2 C4_4 1_555 1_555
O19 C31_4 1_555 1_555
C29_4 C30_4 1_555 1_555
C30_4 C31_4 1_555 1_555
O5_4 C9_4 1_555 1_555
O6_4 C9_4 1_555 1_555
H3_4 C7_4 1_555 1_555
C8_4 S2_4 1_555 1_555
C9_4 C8_4 1_555 1_555
Co3_2 O5_4 1_555 1_555
Co8_2 O5_4 1_555 1_555
Co7_2 O12_4 1_555 1_555
O10_4 Co3_2 1_555 1_555
O12_4 C26_4 1_555 1_555
C26_4 O10_4 1_555 1_555
O6_4 Co8_2 1_555 1_555
C7_4 C8_4 1_555 1_555
C28_4 C27_4 1_555 1_555
H19_4 C28_4 1_555 1_555
Co3 O1_2 1_555 1_555
Co8 N1_3 1_555 1_555
N1_3 C10_3 1_555 1_555
O1_2 C1_3 1_555 1_555
O2_3 Co8 1_555 1_555
S1_4 C2_3 1_555 1_555
C1_3 O2_3 1_555 1_555
C2_3 C1_3 1_555 1_555
C3_3 C2_3 1_555 1_555
H1_3 C3_3 1_555 1_555
C10_3 H4_3 1_555 1_555
C11_3 C10_3 1_555 1_555
H6_3 C13_3 1_555 1_555
C14_3 N1_3 1_555 1_555
H7_3 C14_3 1_555 1_555
Co3_2 O7_3 1_555 1_555
Co8_2 N4_2 1_555 1_555
N5_3 Co8 1_555 1_555
N6_2 Co8_2 1_555 1_555
O7_3 C23_3 1_555 1_555
O8_2 Co3 1_555 1_555
O9_3 Co8_2 1_555 1_555
C23_3 O9_3 1_555 1_555
C24_3 S1_4 1_555 1_555
C25_3 C3_3 1_555 1_555
H18_3 C25_3 1_555 1_555
H27_3 C38_3 1_555 1_555
H28_3 C38_3 1_555 1_555
C39_3 C38_3 1_555 1_555
H29_3 C39_3 1_555 1_555
H30_3 C39_3 1_555 1_555
C40_3 C39_3 1_555 1_555
C41_3 C40_3 1_555 1_555
H31_3 C41_3 1_555 1_555
C42_3 N5_3 1_555 1_555
H32_3 C42_3 1_555 1_555
C43_3 N5_3 1_555 1_555
H33_3 C43_3 1_555 1_555
C44_3 C40_3 1_555 1_555
H34_3 C44_3 1_555 1_555
C13_3 C14_3 1_555 1_555
C23_3 C24_3 1_555 1_555
C24_3 C25_3 1_555 1_555
C41_3 C42_3 1_555 1_555
C43_3 C44_3 1_555 1_555
N2_2 C20_3 1_555 1_555
C15_3 C12_3 1_555 1_555
H8_3 C15_3 1_555 1_555
H9_3 C15_3 1_555 1_555
C16_3 C15_3 1_555 1_555
H10_3 C16_3 1_555 1_555
H11_3 C16_3 1_555 1_555
C17_3 C16_3 1_555 1_555
H12_3 C17_3 1_555 1_555
H13_3 C17_3 1_555 1_555
C18_3 C17_3 1_555 1_555
C19_3 C18_3 1_555 1_555
H14_3 C19_3 1_555 1_555
C20_3 C19_3 1_555 1_555
H15_3 C20_3 1_555 1_555
C21_3 N2_2 1_555 1_555
H16_3 C21_3 1_555 1_555
C22_3 C18_3 1_555 1_555
H17_3 C22_3 1_555 1_555
Co7_2 N2_2 1_555 1_555
C21_3 C22_3 1_555 1_555
C37_3 C34_3 1_555 1_555
H25_3 C37_3 1_555 1_555
Co7_2 N3_2 1_555 1_555
N3_2 C32_3 1_555 1_555
C32_3 H21_3 1_555 1_555
C33_3 C32_3 1_555 1_555
H23_3 C35_3 1_555 1_555
C36_3 N3_2 1_555 1_555
H24_3 C36_3 1_555 1_555
C35_3 C36_3 1_555 1_555
C15_4 C12_4 1_555 1_555
H8_4 C15_4 1_555 1_555
N4_2 C32_4 1_555 1_555
C32_4 H21_4 1_555 1_555
C33_4 C32_4 1_555 1_555
H23_4 C35_4 1_555 1_555
C36_4 N4_2 1_555 1_555
H24_4 C36_4 1_555 1_555
C35_4 C36_4 1_555 1_555
Co7 N1_4 1_555 1_555
N1_4 C10_4 1_555 1_555
O8_2 C1_4 1_555 1_555
O2_4 Co7 1_555 1_555
S1_5 C2_4 1_555 1_555
C1_4 O2_4 1_555 1_555
C2_4 C1_4 1_555 1_555
C3_4 C2_4 1_555 1_555
H1_4 C3_4 1_555 1_555
C10_4 H4_4 1_555 1_555
C11_4 C10_4 1_555 1_555
H6_4 C13_4 1_555 1_555
C14_4 N1_4 1_555 1_555
H7_4 C14_4 1_555 1_555
N5_4 Co7 1_555 1_555
C37_4 C34_4 1_555 1_555
H25_4 C37_4 1_555 1_555
H26_4 C37_4 1_555 1_555
C38_4 C37_4 1_555 1_555
H27_4 C38_4 1_555 1_555
H28_4 C38_4 1_555 1_555
C39_4 C38_4 1_555 1_555
H29_4 C39_4 1_555 1_555
H30_4 C39_4 1_555 1_555
C40_4 C39_4 1_555 1_555
C41_4 C40_4 1_555 1_555
H31_4 C41_4 1_555 1_555
C42_4 N5_4 1_555 1_555
H32_4 C42_4 1_555 1_555
C43_4 N5_4 1_555 1_555
H33_4 C43_4 1_555 1_555
C44_4 C40_4 1_555 1_555
H34_4 C44_4 1_555 1_555
C13_4 C14_4 1_555 1_555
C41_4 C42_4 1_555 1_555
C43_4 C44_4 1_555 1_555
N6_2 C20_4 1_555 1_555
H10_4 C16_4 1_555 1_555
H11_4 C16_4 1_555 1_555
C17_4 C16_4 1_555 1_555
H12_4 C17_4 1_555 1_555
H13_4 C17_4 1_555 1_555
C18_4 C17_4 1_555 1_555
C19_4 C18_4 1_555 1_555
H14_4 C19_4 1_555 1_555
C20_4 C19_4 1_555 1_555
H15_4 C20_4 1_555 1_555
C21_4 N6_2 1_555 1_555
H16_4 C21_4 1_555 1_555
C22_4 C18_4 1_555 1_555
H17_4 C22_4 1_555 1_555
C21_4 C22_4 1_555 1_555
Co3_2 O7_4 1_555 1_555
O7_4 C23_4 1_555 1_555
O9_4 Co7_2 1_555 1_555
C23_4 O9_4 1_555 1_555
C24_4 S1_6 1_555 1_555
H18_4 C25_4 1_555 1_555
C23_4 C24_4 1_555 1_555
C24_4 C25_4 1_555 1_555

#END
