
###############################################################################
#
# This file contains modified crystal structure data generated from the
# MOF subset of the Cambridge Structural Database (CSD) v543 
# hosted by the Cambridge Crystallographic Data Centre (CCDC).
#
# This work is licensed under the Creative Commons
# Attribution-NonCommercial-ShareAlike 4.0 International License.
# To view a copy of this license, visit
# http://creativecommons.org/licenses/by-nc-sa/4.0/
# or send a letter to
# Creative Commons, PO Box 1866, Mountain View, CA 94042, USA.
#
# CIF created using the CSD Python API on 29 September 2022
# The structure has been converted into the P1 space group
# The structure has a 3D framework
# The original CSD entry EYUWAW is in the orthorhombic crystal system
# The framework has been calculated to contain at least 10.0% void space
# The void calculation uses a probe of radius 1.32A, grid spacing 0.4
# H atom positions have been added when not included in the experimental data
#
###############################################################################

data_EYUWAW
_chemical_formula_moiety         '(C240 H224 Mn16 N16 O80)n'
_symmetry_cell_setting           triclinic
_symmetry_space_group_name_H-M   'P 1'
_symmetry_Int_Tables_number      1
_space_group_name_Hall           'P 1'
loop_
_symmetry_equiv_pos_site_id
_symmetry_equiv_pos_as_xyz
1 x,y,z
_cell_length_a                   18.334(2)
_cell_length_b                   16.046(17)
_cell_length_c                   23.706(3)
_cell_angle_alpha                90
_cell_angle_beta                 90
_cell_angle_gamma                90
_cell_volume                     6974.01
loop_
_atom_site_label
_atom_site_type_symbol
_atom_site_fract_x
_atom_site_fract_y
_atom_site_fract_z
Mn2 Mn 0.2949(1) 0.0013(1) 0.4190(1)
O5 O 0.2252(1) 0.1066(1) 0.4413(1)
O7 O 0.3664(1) 0.0277(1) 0.4909(1)
N1 N 0.0103(1) 0.0038(1) 0.4152(1)
N2 N 0.4403(1) 0.1110(1) 0.5418(1)
C1 C 0.2530(1) 0.0397(1) 0.2377(1)
C5 C 0.2566(1) 0.0324(1) 0.0808(1)
C6 C 0.2868(1) 0.1072(1) 0.0673(1)
C7 C 0.3075(1) 0.1623(1) 0.1109(1)
C8 C 0.2978(1) 0.1406(2) 0.1661(1)
C9 C 0.2651(1) 0.0639(1) 0.1810(1)
C10 C 0.2441(1) 0.0086(1) 0.1372(1)
C12 C 0.2988(1) 0.1305(1) 0.0068(1)
C26 C 0.0096(2) 0.0920(2) 0.4281(1)
C28 C 0.3895(1) 0.0972(1) 0.5033(1)
C29 C 0.4648(2) 0.1945(2) 0.5548(1)
C30 C 0.4716(2) 0.0432(2) 0.5736(1)
O15 O 0.3753(1) 0.0615(1) 0.3653(1)
H1 H 0.174222 0.0869627 0.446149
H2 H 0.242645 0.131781 0.477106
H3 H 0.043963 0.125091 0.398062
H5 H 0.0303286 0.101781 0.470638
H7 H 0.512097 0.0675786 0.602875
H8 H 0.428788 0.011461 0.597104
H10 H 0.41887 0.231434 0.56975
H11 H 0.506531 0.191844 0.587441
H12 H 0.487446 0.223092 0.516998
H17 H 0.26907 0.0813965 0.271748
H19 H 0.315549 0.183084 0.19919
H21 H 0.366746 0.150745 0.481231
H22 H 0.331358 0.2225 0.100439
O8 O 0.3258(1) 0.2001(1) 0.9949(1)
O9 O 0.2819(1) 0.0791(1) 0.9685(1)
Mn3 Mn 0.3230(1) 0.1854(1) 0.9019(1)
Mn1 Mn 0.1770(1) 0.8146(1) 0.4019(1)
O1 O 0.2236(1) 0.9927(1) 0.3484(1)
O2 O 0.1907(1) 0.8661(1) 0.3202(1)
O3 O 0.2874(1) 0.7660(1) 0.3924(1)
O4 O 0.3474(1) 0.8856(1) 0.4011(1)
O6 O 0.0732(1) 0.8837(1) 0.4062(1)
O10 O 0.6247(1) 0.5615(1) 0.1347(1)
O11 O 0.6370(1) 0.6961(1) 0.1166(1)
C2 C 0.2215(1) 0.9649(1) 0.2503(1)
C3 C 0.2004(1) 0.9105(1) 0.2068(1)
C4 C 0.2111(1) 0.9322(1) 0.1517(1)
C11 C 0.2113(1) 0.9390(1) 0.3110(1)
C13 C 0.4338(1) 0.8558(1) 0.3099(1)
C14 C 0.3911(1) 0.7917(1) 0.3337(1)
C15 C 0.3998(1) 0.7115(1) 0.3160(1)
C16 C 0.4645(1) 0.6085(1) 0.2554(1)
C17 C 0.5155(1) 0.5914(1) 0.2154(1)
C18 C 0.5583(1) 0.6557(1) 0.1916(1)
C19 C 0.5491(1) 0.7353(1) 0.2103(1)
C20 C 0.4855(1) 0.8377(1) 0.2703(1)
C21 C 0.4533(1) 0.6906(1) 0.2751(1)
C22 C 0.4972(1) 0.7551(1) 0.2522(1)
C23 C 0.3376(1) 0.8157(1) 0.3789(1)
C24 C 0.6112(1) 0.6366(1) 0.1444(1)
C25 C 0.0697(1) 0.9598(2) 0.4154(1)
O12 O 0.1742(1) 0.7999(1) 0.4949(1)
O13 O 0.2181(1) 0.9209(1) 0.4685(1)
O14 O 0.1370(1) 0.6961(1) 0.3834(1)
Mn5 Mn 0.7051(1) 0.5013(1) 0.0810(1)
Mn6 Mn 0.6770(1) 0.8146(1) 0.0981(1)
H6 H 0.497542 0.99938 0.544826
H9 H 0.52348 0.527351 0.201518
H13 H 0.518191 0.887836 0.252428
H18 H 0.241642 0.989654 0.0470463
H20 H 0.425489 0.920072 0.323179
H23 H 0.193849 0.889772 0.11842
H24 H 0.120581 0.992221 0.424357
H25 H 0.365207 0.662754 0.333489
H26 H 0.175424 0.850818 0.217059
H27 H 0.431667 0.557955 0.272575
H28 H 0.582573 0.784818 0.192505
Mn4 Mn 0.2051(1) 0.9987(1) 0.9190(1)
O1_2 O 0.2764(1) 0.0073(1) 0.8484(1)
O2_2 O 0.3093(1) 0.1339(1) 0.8202(1)
O3_2 O 0.2126(1) 0.2340(1) 0.8924(1)
O4_2 O 0.1526(1) 0.1144(1) 0.9011(1)
O6_2 O 0.4268(1) 0.1163(1) 0.9062(1)
C2_2 C 0.2785(1) 0.0351(1) 0.7503(1)
C3_2 C 0.2996(1) 0.0895(1) 0.7068(1)
C4_2 C 0.2889(1) 0.0678(1) 0.6517(1)
C11_2 C 0.2887(1) 0.0610(1) 0.8110(1)
C13_2 C 0.0662(1) 0.1442(1) 0.8099(1)
C14_2 C 0.1089(1) 0.2083(1) 0.8337(1)
C15_2 C 0.1002(1) 0.2885(1) 0.8160(1)
C16_2 C 0.0355(1) 0.3915(1) 0.7554(1)
C20_2 C 0.0145(1) 0.1623(1) 0.7703(1)
C21_2 C 0.0467(1) 0.3094(1) 0.7751(1)
C22_2 C 0.0028(1) 0.2449(1) 0.7522(1)
C23_2 C 0.1624(1) 0.1843(1) 0.8789(1)
C25_2 C 0.4303(1) 0.0402(2) 0.9154(1)
C27 C 0.5582(2) 0.0338(3) 0.9019(3)
O14_2 O 0.3630(1) 0.3039(1) 0.8834(1)
H14 H 0.569713 0.0832681 0.932063
H16 H 0.556012 0.0598409 0.859512
H18_2 H 0.258358 0.0103457 0.547046
H20_2 H 0.0745105 0.0799277 0.823179
H23_2 H 0.306151 0.110228 0.61842
H24_2 H 0.379419 0.00777935 0.924357
H25_2 H 0.134793 0.337246 0.833489
H26_2 H 0.324576 0.149182 0.717059
H27_2 H 0.0683327 0.442045 0.772575
O5_2 O 0.2748(1) 0.8934(1) 0.9413(1)
O7_2 O 0.1336(1) 0.9723(1) 0.9909(1)
N1_2 N 0.4897(1) 0.9962(1) 0.9152(1)
C1_2 C 0.2470(1) 0.9603(1) 0.7377(1)
C5_2 C 0.2434(1) 0.9676(1) 0.5808(1)
C6_2 C 0.2132(1) 0.8928(1) 0.5673(1)
C7_2 C 0.1925(1) 0.8377(1) 0.6109(1)
C8_2 C 0.2022(1) 0.8594(2) 0.6661(1)
C9_2 C 0.2349(1) 0.9361(1) 0.6810(1)
C10_2 C 0.2559(1) 0.9914(1) 0.6372(1)
C12_2 C 0.2012(1) 0.8695(1) 0.5068(1)
C26_2 C 0.4904(2) 0.9080(2) 0.9281(1)
O15_2 O 0.1247(1) 0.9385(1) 0.8653(1)
H1_2 H 0.325778 0.913037 0.946149
H2_2 H 0.257355 0.868219 0.977106
H3_2 H 0.456037 0.874909 0.898062
H4 H 0.546018 0.884538 0.925303
H5_2 H 0.469671 0.898219 0.970638
H15 H 0.601094 0.986955 0.903985
H17_2 H 0.23093 0.918603 0.771748
H19_2 H 0.184451 0.816916 0.69919
H21_2 H 0.133254 0.849255 0.981231
H22_2 H 0.168642 0.7775 0.600439
O10_2 O 0.8753(1) 0.4385(1) 0.6347(1)
O11_2 O 0.8630(1) 0.3039(1) 0.6166(1)
C17_2 C 0.9845(1) 0.4086(1) 0.7154(1)
C18_2 C 0.9417(1) 0.3443(1) 0.6916(1)
C19_2 C 0.9509(1) 0.2647(1) 0.7103(1)
C24_2 C 0.8888(1) 0.3634(1) 0.6444(1)
Mn5_2 Mn 0.7949(1) 0.4987(1) 0.5810(1)
Mn6_2 Mn 0.8230(1) 0.1854(1) 0.5981(1)
H9_2 H 0.97652 0.472649 0.701518
H13_2 H 0.981809 0.112164 0.752428
H28_2 H 0.917427 0.215182 0.692505
O11_3 O 0.1370(1) 0.8039(1) 0.8834(1)
C17_3 C 0.0155(1) 0.9086(1) 0.7846(1)
C18_3 C 0.0583(1) 0.8443(1) 0.8084(1)
C19_3 C 0.0491(1) 0.7647(1) 0.7897(1)
C24_3 C 0.1112(1) 0.8634(1) 0.8556(1)
Mn6_3 Mn 0.1770(1) 0.6854(1) 0.9019(1)
H7_2 H 0.012097 0.432421 0.397125
H9_3 H 0.0234802 0.972649 0.798482
H11_2 H 0.00653093 0.308156 0.412559
H13_3 H 0.0181912 0.612164 0.747572
H28_3 H 0.0825728 0.715182 0.807495
O8_2 O 0.8258(1) 0.2999(1) 0.0051(1)
O9_2 O 0.7819(1) 0.4209(1) 0.0315(1)
Mn3_2 Mn 0.8230(1) 0.3146(1) 0.0981(1)
Mn1_2 Mn 0.6770(1) 0.6854(1) 0.5981(1)
O1_3 O 0.7236(1) 0.5073(1) 0.6516(1)
O2_3 O 0.6907(1) 0.6339(1) 0.6798(1)
O3_3 O 0.7874(1) 0.7340(1) 0.6076(1)
O4_3 O 0.8474(1) 0.6144(1) 0.5989(1)
O5_3 O 0.7252(1) 0.3934(1) 0.5587(1)
O6_3 O 0.5732(1) 0.6163(1) 0.5938(1)
O7_3 O 0.8664(1) 0.4723(1) 0.5091(1)
N1_3 N 0.5103(1) 0.4962(1) 0.5848(1)
N2_2 N 0.9403(1) 0.3890(1) 0.4582(1)
C1_3 C 0.7530(1) 0.4603(1) 0.7623(1)
C2_3 C 0.7215(1) 0.5351(1) 0.7497(1)
C3_3 C 0.7004(1) 0.5895(1) 0.7932(1)
C4_3 C 0.7111(1) 0.5678(1) 0.8483(1)
C5_3 C 0.7566(1) 0.4676(1) 0.9192(1)
C6_3 C 0.7868(1) 0.3928(1) 0.9327(1)
C7_3 C 0.8075(1) 0.3377(1) 0.8891(1)
C8_3 C 0.7978(1) 0.3594(2) 0.8339(1)
C9_3 C 0.7651(1) 0.4361(1) 0.8190(1)
C10_3 C 0.7441(1) 0.4914(1) 0.8628(1)
C11_3 C 0.7113(1) 0.5610(1) 0.6890(1)
C12_3 C 0.7988(1) 0.3695(1) 0.9932(1)
C13_3 C 0.9338(1) 0.6442(1) 0.6901(1)
C14_3 C 0.8911(1) 0.7083(1) 0.6663(1)
C15_3 C 0.8998(1) 0.7885(1) 0.6840(1)
C16_3 C 0.9645(1) 0.8915(1) 0.7446(1)
C20_3 C 0.9855(1) 0.6623(1) 0.7297(1)
C21_3 C 0.9533(1) 0.8094(1) 0.7249(1)
C22_3 C 0.9972(1) 0.7449(1) 0.7478(1)
C23_3 C 0.8376(1) 0.6843(1) 0.6211(1)
C25_3 C 0.5697(1) 0.5402(2) 0.5846(1)
C26_3 C 0.5096(2) 0.4080(2) 0.5719(1)
C27_2 C 0.4418(2) 0.5338(3) 0.5981(3)
C28_2 C 0.8895(1) 0.4028(1) 0.4967(1)
C29_2 C 0.9648(2) 0.3055(2) 0.4452(1)
C30_2 C 0.9716(2) 0.4568(2) 0.4264(1)
O12_2 O 0.6742(1) 0.7001(1) 0.5051(1)
O13_2 O 0.7181(1) 0.5791(1) 0.5315(1)
O14_3 O 0.6370(1) 0.8039(1) 0.6166(1)
H1_3 H 0.674222 0.413037 0.553851
H2_3 H 0.742645 0.368219 0.522894
H3_3 H 0.543963 0.374909 0.601938
H4_2 H 0.453982 0.384538 0.574697
H5_3 H 0.530329 0.398219 0.529362
H6_2 H 0.997542 0.50062 0.455174
H8_2 H 0.928788 0.488539 0.402896
H10_2 H 0.91887 0.268566 0.43025
H12_2 H 0.987446 0.276908 0.483002
H14_2 H 0.430287 0.583268 0.567937
H15_2 H 0.398906 0.486955 0.596015
H16_2 H 0.443988 0.559841 0.640488
H17_3 H 0.76907 0.418603 0.728252
H18_3 H 0.741642 0.510346 0.952954
H19_3 H 0.815549 0.316916 0.80081
H20_3 H 0.925489 0.579928 0.676821
H21_3 H 0.866746 0.349255 0.518769
H22_3 H 0.831358 0.2775 0.899561
H23_3 H 0.693849 0.610228 0.88158
H24_3 H 0.620581 0.507779 0.575643
H25_3 H 0.865207 0.837246 0.666511
H26_3 H 0.675424 0.649182 0.782941
H27_3 H 0.931667 0.942045 0.727425
O1_4 O 0.7764(1) 0.4927(1) 0.1516(1)
O2_4 O 0.8093(1) 0.3661(1) 0.1798(1)
O3_4 O 0.7126(1) 0.2660(1) 0.1076(1)
O4_4 O 0.6526(1) 0.3856(1) 0.0989(1)
O5_4 O 0.7748(1) 0.6066(1) 0.0587(1)
O6_4 O 0.9268(1) 0.3837(1) 0.0938(1)
O7_4 O 0.6336(1) 0.5277(1) 0.0091(1)
O11_4 O 0.3630(1) 0.1961(1) 0.3834(1)
N1_4 N 0.9897(1) 0.5038(1) 0.0848(1)
C1_4 C 0.7470(1) 0.5397(1) 0.2623(1)
C2_4 C 0.7785(1) 0.4649(1) 0.2497(1)
C3_4 C 0.7996(1) 0.4105(1) 0.2932(1)
C4_4 C 0.7889(1) 0.4322(1) 0.3483(1)
C5_4 C 0.7434(1) 0.5324(1) 0.4192(1)
C6_4 C 0.7132(1) 0.6072(1) 0.4327(1)
C7_4 C 0.6925(1) 0.6623(1) 0.3891(1)
C8_4 C 0.7022(1) 0.6406(2) 0.3339(1)
C9_4 C 0.7349(1) 0.5639(1) 0.3190(1)
C10_4 C 0.7559(1) 0.5086(1) 0.3628(1)
C11_4 C 0.7887(1) 0.4390(1) 0.1890(1)
C12_4 C 0.7012(1) 0.6305(1) 0.4932(1)
C13_4 C 0.5662(1) 0.3558(1) 0.1901(1)
C14_4 C 0.6089(1) 0.2917(1) 0.1663(1)
C15_4 C 0.6002(1) 0.2115(1) 0.1840(1)
C16_4 C 0.5355(1) 0.1085(1) 0.2446(1)
C17_4 C 0.4845(1) 0.0914(1) 0.2846(1)
C18_4 C 0.4417(1) 0.1557(1) 0.3084(1)
C19_4 C 0.4509(1) 0.2353(1) 0.2897(1)
C20_4 C 0.5145(1) 0.3377(1) 0.2297(1)
C21_4 C 0.5467(1) 0.1906(1) 0.2249(1)
C22_4 C 0.5028(1) 0.2551(1) 0.2478(1)
C23_4 C 0.6624(1) 0.3157(1) 0.1211(1)
C24_4 C 0.3888(1) 0.1366(1) 0.3556(1)
C25_4 C 0.9303(1) 0.4598(2) 0.0846(1)
C26_4 C 0.9904(2) 0.5920(2) 0.0719(1)
O14_4 O 0.8630(1) 0.1961(1) 0.1166(1)
Mn6_4 Mn 0.3230(1) 0.3146(1) 0.4019(1)
H1_4 H 0.825778 0.586963 0.0538513
H2_4 H 0.757355 0.631781 0.0228939
H3_4 H 0.956037 0.625091 0.101938
H5_4 H 0.969671 0.601781 0.0293625
H9_4 H 0.47652 0.0273512 0.298482
H13_4 H 0.481809 0.387836 0.247572
H17_4 H 0.73093 0.581397 0.228252
H18_4 H 0.758358 0.489654 0.452954
H19_4 H 0.684451 0.683084 0.30081
H20_4 H 0.574511 0.420072 0.176821
H21_4 H 0.633254 0.650745 0.0187687
H22_4 H 0.668642 0.7225 0.399561
H23_4 H 0.806151 0.389772 0.38158
H24_4 H 0.879419 0.492221 0.0756427
H25_4 H 0.634793 0.162754 0.166511
H26_4 H 0.824576 0.350818 0.282941
H27_4 H 0.568333 0.0579547 0.227425
H28_4 H 0.417427 0.284818 0.307495
Mn4_2 Mn 0.7949(1) 0.0013(1) 0.0810(1)
O1_5 O 0.7764(1) 0.0073(1) 0.6516(1)
O2_5 O 0.8093(1) 0.1339(1) 0.6798(1)
O3_5 O 0.7126(1) 0.2340(1) 0.6076(1)
O4_5 O 0.6526(1) 0.1144(1) 0.5989(1)
O6_5 O 0.9268(1) 0.1163(1) 0.5938(1)
O10_3 O 0.3753(1) 0.4385(1) 0.8653(1)
C2_5 C 0.7785(1) 0.0351(1) 0.7497(1)
C3_5 C 0.7996(1) 0.0895(1) 0.7932(1)
C4_5 C 0.7889(1) 0.0678(1) 0.8483(1)
C11_5 C 0.7887(1) 0.0610(1) 0.6890(1)
C13_5 C 0.5662(1) 0.1442(1) 0.6901(1)
C14_5 C 0.6089(1) 0.2083(1) 0.6663(1)
C15_5 C 0.6002(1) 0.2885(1) 0.6840(1)
C16_5 C 0.5355(1) 0.3915(1) 0.7446(1)
C17_5 C 0.4845(1) 0.4086(1) 0.7846(1)
C18_5 C 0.4417(1) 0.3443(1) 0.8084(1)
C19_5 C 0.4509(1) 0.2647(1) 0.7897(1)
C20_5 C 0.5145(1) 0.1623(1) 0.7297(1)
C21_5 C 0.5467(1) 0.3094(1) 0.7249(1)
C22_5 C 0.5028(1) 0.2449(1) 0.7478(1)
C23_5 C 0.6624(1) 0.1843(1) 0.6211(1)
C24_5 C 0.3888(1) 0.3634(1) 0.8556(1)
C25_5 C 0.9303(1) 0.0402(2) 0.5846(1)
O12_3 O 0.8258(1) 0.2001(1) 0.5051(1)
O13_3 O 0.7819(1) 0.0791(1) 0.5315(1)
Mn5_3 Mn 0.2949(1) 0.4987(1) 0.9190(1)
H6_3 H 0.502458 0.00061997 0.455174
H9_5 H 0.47652 0.472649 0.798482
H13_5 H 0.481809 0.112164 0.747572
H18_5 H 0.758358 0.0103457 0.952954
H20_5 H 0.574511 0.0799277 0.676821
H23_5 H 0.806151 0.110228 0.88158
H24_5 H 0.879419 0.00777935 0.575643
H25_5 H 0.634793 0.337246 0.666511
H26_5 H 0.824576 0.149182 0.782941
H27_5 H 0.568333 0.442045 0.727425
H28_5 H 0.417427 0.215182 0.807495
O8_3 O 0.6742(1) 0.7999(1) 0.0051(1)
O9_3 O 0.7181(1) 0.9209(1) 0.0315(1)
Mn2_2 Mn 0.7051(1) 0.9987(1) 0.5810(1)
O5_5 O 0.7748(1) 0.8934(1) 0.5587(1)
O7_5 O 0.6336(1) 0.9723(1) 0.5091(1)
N1_5 N 0.9897(1) 0.9962(1) 0.5848(1)
N2_3 N 0.5597(1) 0.8890(1) 0.4582(1)
C1_5 C 0.7470(1) 0.9603(1) 0.7623(1)
C5_5 C 0.7434(1) 0.9676(1) 0.9192(1)
C6_5 C 0.7132(1) 0.8928(1) 0.9327(1)
C7_5 C 0.6925(1) 0.8377(1) 0.8891(1)
C8_5 C 0.7022(1) 0.8594(2) 0.8339(1)
C9_5 C 0.7349(1) 0.9361(1) 0.8190(1)
C10_5 C 0.7559(1) 0.9914(1) 0.8628(1)
C12_5 C 0.7012(1) 0.8695(1) 0.9932(1)
C26_5 C 0.9904(2) 0.9080(2) 0.5719(1)
C28_3 C 0.6105(1) 0.9028(1) 0.4967(1)
C29_3 C 0.5352(2) 0.8055(2) 0.4452(1)
C30_3 C 0.5284(2) 0.9568(2) 0.4264(1)
O15_3 O 0.6247(1) 0.9385(1) 0.6347(1)
H1_5 H 0.825778 0.913037 0.553851
H2_5 H 0.757355 0.868219 0.522894
H3_5 H 0.956037 0.874909 0.601938
H5_5 H 0.969671 0.898219 0.529362
H7_3 H 0.487903 0.932421 0.397125
H8_3 H 0.571212 0.988539 0.402896
H10_3 H 0.58113 0.768566 0.43025
H11_3 H 0.493469 0.808156 0.412559
H12_3 H 0.512554 0.776908 0.483002
H17_5 H 0.73093 0.918603 0.728252
H19_5 H 0.684451 0.816916 0.80081
H21_5 H 0.633254 0.849255 0.518769
H22_5 H 0.668642 0.7775 0.899561
O10_4 O 0.1247(1) 0.5615(1) 0.3653(1)
C17_6 C 0.0155(1) 0.5914(1) 0.2846(1)
C18_6 C 0.0583(1) 0.6557(1) 0.3084(1)
C19_6 C 0.0491(1) 0.7353(1) 0.2897(1)
C24_6 C 0.1112(1) 0.6366(1) 0.3556(1)
Mn5_4 Mn 0.2051(1) 0.5013(1) 0.4190(1)
H9_6 H 0.0234802 0.527351 0.298482
H13_6 H 0.0181912 0.887836 0.247572
H28_6 H 0.0825728 0.784818 0.307495
O5_6 O 0.7252(1) 0.1066(1) 0.0587(1)
O7_6 O 0.8664(1) 0.0277(1) 0.0091(1)
N1_6 N 0.5103(1) 0.0038(1) 0.0848(1)
C1_6 C 0.7530(1) 0.0397(1) 0.2623(1)
C5_6 C 0.7566(1) 0.0324(1) 0.4192(1)
C6_6 C 0.7868(1) 0.1072(1) 0.4327(1)
C7_6 C 0.8075(1) 0.1623(1) 0.3891(1)
C8_6 C 0.7978(1) 0.1406(2) 0.3339(1)
C9_6 C 0.7651(1) 0.0639(1) 0.3190(1)
C10_6 C 0.7441(1) 0.0086(1) 0.3628(1)
C12_6 C 0.7988(1) 0.1305(1) 0.4932(1)
C26_6 C 0.5096(2) 0.0920(2) 0.0719(1)
O15_4 O 0.8753(1) 0.0615(1) 0.1347(1)
H1_6 H 0.674222 0.0869627 0.0538513
H2_6 H 0.742645 0.131781 0.0228939
H3_6 H 0.543963 0.125091 0.101938
H4_3 H 0.453982 0.115462 0.0746972
H5_6 H 0.530329 0.101781 0.0293625
H15_3 H 0.398906 0.0130453 0.0960146
H17_6 H 0.76907 0.0813965 0.228252
H19_6 H 0.815549 0.183084 0.30081
H21_6 H 0.866746 0.150745 0.0187687
H22_6 H 0.831358 0.2225 0.399561
O1_6 O 0.7236(1) 0.9927(1) 0.1516(1)
O2_6 O 0.6907(1) 0.8661(1) 0.1798(1)
O3_6 O 0.7874(1) 0.7660(1) 0.1076(1)
O4_6 O 0.8474(1) 0.8856(1) 0.0989(1)
O6_6 O 0.5732(1) 0.8837(1) 0.0938(1)
C2_6 C 0.7215(1) 0.9649(1) 0.2497(1)
C3_6 C 0.7004(1) 0.9105(1) 0.2932(1)
C4_6 C 0.7111(1) 0.9322(1) 0.3483(1)
C11_6 C 0.7113(1) 0.9390(1) 0.1890(1)
C13_6 C 0.9338(1) 0.8558(1) 0.1901(1)
C14_6 C 0.8911(1) 0.7917(1) 0.1663(1)
C15_6 C 0.8998(1) 0.7115(1) 0.1840(1)
C16_6 C 0.9645(1) 0.6085(1) 0.2446(1)
C20_6 C 0.9855(1) 0.8377(1) 0.2297(1)
C21_6 C 0.9533(1) 0.6906(1) 0.2249(1)
C22_6 C 0.9972(1) 0.7551(1) 0.2478(1)
C23_6 C 0.8376(1) 0.8157(1) 0.1211(1)
C25_6 C 0.5697(1) 0.9598(2) 0.0846(1)
C27_3 C 0.4418(2) 0.9662(3) 0.0981(3)
H14_3 H 0.430287 0.916732 0.0679366
H16_3 H 0.443988 0.940159 0.140488
H18_6 H 0.741642 0.989654 0.452954
H20_6 H 0.925489 0.920072 0.176821
H23_6 H 0.693849 0.889772 0.38158
H24_6 H 0.620581 0.992221 0.0756427
H25_6 H 0.865207 0.662754 0.166511
H26_6 H 0.675424 0.850818 0.282941
H27_6 H 0.931667 0.557955 0.227425
O1_7 O 0.2764(1) 0.4927(1) 0.3484(1)
O2_7 O 0.3093(1) 0.3661(1) 0.3202(1)
O3_7 O 0.2126(1) 0.2660(1) 0.3924(1)
O4_7 O 0.1526(1) 0.3856(1) 0.4011(1)
O5_7 O 0.2748(1) 0.6066(1) 0.4413(1)
O6_7 O 0.4268(1) 0.3837(1) 0.4062(1)
O7_7 O 0.1336(1) 0.5277(1) 0.4909(1)
N1_7 N 0.4897(1) 0.5038(1) 0.4152(1)
N2_4 N 0.0597(1) 0.6110(1) 0.5418(1)
C1_7 C 0.2470(1) 0.5397(1) 0.2377(1)
C2_7 C 0.2785(1) 0.4649(1) 0.2503(1)
C3_7 C 0.2996(1) 0.4105(1) 0.2068(1)
C4_7 C 0.2889(1) 0.4322(1) 0.1517(1)
C5_7 C 0.2434(1) 0.5324(1) 0.0808(1)
C6_7 C 0.2132(1) 0.6072(1) 0.0673(1)
C7_7 C 0.1925(1) 0.6623(1) 0.1109(1)
C8_7 C 0.2022(1) 0.6406(2) 0.1661(1)
C9_7 C 0.2349(1) 0.5639(1) 0.1810(1)
C10_7 C 0.2559(1) 0.5086(1) 0.1372(1)
C11_7 C 0.2887(1) 0.4390(1) 0.3110(1)
C12_7 C 0.2012(1) 0.6305(1) 0.0068(1)
C13_7 C 0.0662(1) 0.3558(1) 0.3099(1)
C14_7 C 0.1089(1) 0.2917(1) 0.3337(1)
C15_7 C 0.1002(1) 0.2115(1) 0.3160(1)
C16_7 C 0.0355(1) 0.1085(1) 0.2554(1)
C20_7 C 0.0145(1) 0.3377(1) 0.2703(1)
C21_7 C 0.0467(1) 0.1906(1) 0.2751(1)
C22_7 C 0.0028(1) 0.2551(1) 0.2522(1)
C23_7 C 0.1624(1) 0.3157(1) 0.3789(1)
C25_7 C 0.4303(1) 0.4598(2) 0.4154(1)
C26_7 C 0.4904(2) 0.5920(2) 0.4281(1)
C27_4 C 0.5582(2) 0.4662(3) 0.4019(3)
C28_4 C 0.1105(1) 0.5972(1) 0.5033(1)
C29_4 C 0.0352(2) 0.6945(2) 0.5548(1)
C30_4 C 0.0284(2) 0.5432(2) 0.5736(1)
O12_4 O 0.3258(1) 0.2999(1) 0.4949(1)
O13_4 O 0.2819(1) 0.4209(1) 0.4685(1)
H1_7 H 0.325778 0.586963 0.446149
H2_7 H 0.257355 0.631781 0.477106
H3_7 H 0.456037 0.625091 0.398062
H4_4 H 0.546018 0.615462 0.425303
H5_7 H 0.469671 0.601781 0.470638
H6_4 H 0.00245754 0.49938 0.544826
H8_4 H 0.0712119 0.511461 0.597104
H10_4 H 0.0811298 0.731434 0.56975
H12_4 H 0.0125542 0.723092 0.516998
H14_4 H 0.569713 0.416732 0.432063
H15_4 H 0.601094 0.513045 0.403985
H16_4 H 0.556012 0.440159 0.359512
H17_7 H 0.23093 0.581397 0.271748
H18_7 H 0.258358 0.489654 0.0470463
H19_7 H 0.184451 0.683084 0.19919
H20_7 H 0.0745105 0.420072 0.323179
H21_7 H 0.133254 0.650745 0.481231
H22_7 H 0.168642 0.7225 0.100439
H23_7 H 0.306151 0.389772 0.11842
H24_7 H 0.379419 0.492221 0.424357
H25_7 H 0.134793 0.162754 0.333489
H26_7 H 0.324576 0.350818 0.217059
H27_7 H 0.0683327 0.0579547 0.272575
O8_4 O 0.1742(1) 0.7001(1) 0.9949(1)
O9_4 O 0.2181(1) 0.5791(1) 0.9685(1)
C17_7 C 0.9845(1) 0.0914(1) 0.2154(1)
C18_7 C 0.9417(1) 0.1557(1) 0.1916(1)
C19_7 C 0.9509(1) 0.2353(1) 0.2103(1)
C24_7 C 0.8888(1) 0.1366(1) 0.1444(1)
H7_4 H 0.987903 0.567579 0.602875
H9_7 H 0.97652 0.0273512 0.201518
H11_4 H 0.993469 0.691844 0.587441
H13_7 H 0.981809 0.387836 0.252428
H28_7 H 0.917427 0.284818 0.192505
O1_8 O 0.2236(1) 0.5073(1) 0.8484(1)
O2_8 O 0.1907(1) 0.6339(1) 0.8202(1)
O3_8 O 0.2874(1) 0.7340(1) 0.8924(1)
O4_8 O 0.3474(1) 0.6144(1) 0.9011(1)
O5_8 O 0.2252(1) 0.3934(1) 0.9413(1)
O6_8 O 0.0732(1) 0.6163(1) 0.9062(1)
O7_8 O 0.3664(1) 0.4723(1) 0.9909(1)
N1_8 N 0.0103(1) 0.4962(1) 0.9152(1)
C1_8 C 0.2530(1) 0.4603(1) 0.7377(1)
C2_8 C 0.2215(1) 0.5351(1) 0.7503(1)
C3_8 C 0.2004(1) 0.5895(1) 0.7068(1)
C4_8 C 0.2111(1) 0.5678(1) 0.6517(1)
C5_8 C 0.2566(1) 0.4676(1) 0.5808(1)
C6_8 C 0.2868(1) 0.3928(1) 0.5673(1)
C7_8 C 0.3075(1) 0.3377(1) 0.6109(1)
C8_8 C 0.2978(1) 0.3594(2) 0.6661(1)
C9_8 C 0.2651(1) 0.4361(1) 0.6810(1)
C10_8 C 0.2441(1) 0.4914(1) 0.6372(1)
C11_8 C 0.2113(1) 0.5610(1) 0.8110(1)
C12_8 C 0.2988(1) 0.3695(1) 0.5068(1)
C13_8 C 0.4338(1) 0.6442(1) 0.8099(1)
C14_8 C 0.3911(1) 0.7083(1) 0.8337(1)
C15_8 C 0.3998(1) 0.7885(1) 0.8160(1)
C16_8 C 0.4645(1) 0.8915(1) 0.7554(1)
C17_8 C 0.5155(1) 0.9086(1) 0.7154(1)
C18_8 C 0.5583(1) 0.8443(1) 0.6916(1)
C19_8 C 0.5491(1) 0.7647(1) 0.7103(1)
C20_8 C 0.4855(1) 0.6623(1) 0.7703(1)
C21_8 C 0.4533(1) 0.8094(1) 0.7751(1)
C22_8 C 0.4972(1) 0.7449(1) 0.7522(1)
C23_8 C 0.3376(1) 0.6843(1) 0.8789(1)
C24_8 C 0.6112(1) 0.8634(1) 0.6444(1)
C25_8 C 0.0697(1) 0.5402(2) 0.9154(1)
C26_8 C 0.0096(2) 0.4080(2) 0.9281(1)
H1_8 H 0.174222 0.413037 0.946149
H2_8 H 0.242645 0.368219 0.977106
H3_8 H 0.043963 0.374909 0.898062
H5_8 H 0.0303286 0.398219 0.970638
H9_8 H 0.52348 0.972649 0.701518
H13_8 H 0.518191 0.612164 0.752428
H17_8 H 0.26907 0.418603 0.771748
H18_8 H 0.241642 0.510346 0.547046
H19_8 H 0.315549 0.316916 0.69919
H20_8 H 0.425489 0.579928 0.823179
H21_8 H 0.366746 0.349255 0.981231
H22_8 H 0.331358 0.2775 0.600439
H23_8 H 0.193849 0.610228 0.61842
H24_8 H 0.120581 0.507779 0.924357
H25_8 H 0.365207 0.837246 0.833489
H26_8 H 0.175424 0.649182 0.717059
H27_8 H 0.431667 0.942045 0.772575
H28_8 H 0.582573 0.715182 0.692505
H4_5 H 0.953982 0.115462 0.425303
H15_5 H 0.898906 0.0130453 0.403985
C27_5 C 0.9418(2) 0.9662(3) 0.4019(3)
H14_5 H 0.930287 0.916732 0.432063
H16_5 H 0.943988 0.940159 0.359512
H6_5 H 0.00245754 0.00061997 0.0448255
N2_5 N 0.0597(1) 0.8890(1) 0.0418(1)
C28_5 C 0.1105(1) 0.9028(1) 0.0033(1)
C29_5 C 0.0352(2) 0.8055(2) 0.0548(1)
C30_5 C 0.0284(2) 0.9568(2) 0.0736(1)
H8_5 H 0.0712119 0.988539 0.0971042
H10_5 H 0.0811298 0.768566 0.0697495
H12_5 H 0.0125542 0.776908 0.016998
H7_5 H 0.987903 0.932421 0.102875
H11_5 H 0.993469 0.808156 0.0874406
C27_6 C 0.0582(2) 0.4662(3) 0.0981(3)
H4_6 H 0.0460181 0.615462 0.0746972
H14_6 H 0.0697133 0.416732 0.0679366
H15_6 H 0.101094 0.513045 0.0960146
H16_6 H 0.0560124 0.440159 0.140488
N2_6 N 0.5597(1) 0.6110(1) 0.9582(1)
C28_6 C 0.6105(1) 0.5972(1) 0.9967(1)
C29_6 C 0.5352(2) 0.6945(2) 0.9452(1)
C30_6 C 0.5284(2) 0.5432(2) 0.9264(1)
H6_6 H 0.502458 0.49938 0.955174
H7_6 H 0.487903 0.567579 0.897125
H8_6 H 0.571212 0.511461 0.902896
H10_6 H 0.58113 0.731434 0.93025
H11_6 H 0.493469 0.691844 0.912559
H12_6 H 0.512554 0.723092 0.983002
C27_7 C 0.0582(2) 0.0338(3) 0.5981(3)
H14_7 H 0.0697133 0.0832681 0.567937
H16_7 H 0.0560124 0.0598409 0.640488
H4_7 H 0.0460181 0.884538 0.574697
H15_7 H 0.101094 0.986955 0.596015
H7_7 H 0.012097 0.0675786 0.897125
H11_7 H 0.00653093 0.191844 0.912559
N2_7 N 0.9403(1) 0.1110(1) 0.9582(1)
C28_7 C 0.8895(1) 0.0972(1) 0.9967(1)
C29_7 C 0.9648(2) 0.1945(2) 0.9452(1)
C30_7 C 0.9716(2) 0.0432(2) 0.9264(1)
H8_7 H 0.928788 0.011461 0.902896
H10_7 H 0.91887 0.231434 0.93025
H12_7 H 0.987446 0.223092 0.983002
H6_7 H 0.997542 0.99938 0.955174
N2_8 N 0.4403(1) 0.3890(1) 0.0418(1)
C28_8 C 0.3895(1) 0.4028(1) 0.0033(1)
C29_8 C 0.4648(2) 0.3055(2) 0.0548(1)
C30_8 C 0.4716(2) 0.4568(2) 0.0736(1)
H6_8 H 0.497542 0.50062 0.0448255
H7_8 H 0.512097 0.432421 0.102875
H8_8 H 0.428788 0.488539 0.0971042
H10_8 H 0.41887 0.268566 0.0697495
H11_8 H 0.506531 0.308156 0.0874406
H12_8 H 0.487446 0.276908 0.016998
C27_8 C 0.9418(2) 0.5338(3) 0.9019(3)
H4_8 H 0.953982 0.384538 0.925303
H14_8 H 0.930287 0.583268 0.932063
H15_8 H 0.898906 0.486955 0.903985
H16_8 H 0.943988 0.559841 0.859512
loop_
_geom_bond_atom_site_label_1
_geom_bond_atom_site_label_2
_geom_bond_site_symmetry_1
_geom_bond_site_symmetry_2
O5 Mn2 1_555 1_555
O7 Mn2 1_555 1_555
N2 C28 1_555 1_555
C5 C6 1_555 1_555
C6 C7 1_555 1_555
C7 C8 1_555 1_555
C8 C9 1_555 1_555
C9 C1 1_555 1_555
C10 C5 1_555 1_555
C12 C6 1_555 1_555
C26 N1 1_555 1_555
C28 O7 1_555 1_555
C29 N2 1_555 1_555
C30 N2 1_555 1_555
O15 Mn2 1_555 1_555
C9 C10 1_555 1_555
O5 H1 1_555 1_555
O5 H2 1_555 1_555
C26 H3 1_555 1_555
C26 H5 1_555 1_555
C30 H7 1_555 1_555
C30 H8 1_555 1_555
C29 H10 1_555 1_555
C29 H11 1_555 1_555
C29 H12 1_555 1_555
C1 H17 1_555 1_555
C8 H19 1_555 1_555
C28 H21 1_555 1_555
C7 H22 1_555 1_555
Mn3 O8 1_555 1_555
O9 Mn3 1_555 1_555
Mn1 O2 1_555 1_555
O1 C11 1_555 1_555
O2 C11 1_555 1_555
O3 Mn1 1_555 1_555
O6 Mn1 1_555 1_555
O10 C24 1_555 1_555
O11 C24 1_555 1_555
C2 C3 1_555 1_555
C3 C4 1_555 1_555
C11 C2 1_555 1_555
C13 C14 1_555 1_555
C14 C15 1_555 1_555
C15 C21 1_555 1_555
C16 C17 1_555 1_555
C17 C18 1_555 1_555
C18 C19 1_555 1_555
C19 C22 1_555 1_555
C20 C13 1_555 1_555
C21 C16 1_555 1_555
C22 C20 1_555 1_555
C23 O3 1_555 1_555
C24 C18 1_555 1_555
C25 O6 1_555 1_555
O12 Mn1 1_555 1_555
O13 Mn1 1_555 1_555
O14 Mn1 1_555 1_555
Mn5 O10 1_555 1_555
Mn6 O11 1_555 1_555
O4 C23 1_555 1_555
C14 C23 1_555 1_555
C21 C22 1_555 1_555
C17 H9 1_555 1_555
C20 H13 1_555 1_555
C13 H20 1_555 1_555
C4 H23 1_555 1_555
C25 H24 1_555 1_555
C15 H25 1_555 1_555
C3 H26 1_555 1_555
C16 H27 1_555 1_555
C19 H28 1_555 1_555
Mn3 O2_2 1_555 1_555
O1_2 C11_2 1_555 1_555
O2_2 C11_2 1_555 1_555
O3_2 Mn3 1_555 1_555
O6_2 Mn3 1_555 1_555
C2_2 C3_2 1_555 1_555
C3_2 C4_2 1_555 1_555
C11_2 C2_2 1_555 1_555
C13_2 C14_2 1_555 1_555
C14_2 C15_2 1_555 1_555
C15_2 C21_2 1_555 1_555
C20_2 C13_2 1_555 1_555
C21_2 C16_2 1_555 1_555
C22_2 C20_2 1_555 1_555
C23_2 O3_2 1_555 1_555
C25_2 O6_2 1_555 1_555
O14_2 Mn3 1_555 1_555
O4_2 C23_2 1_555 1_555
C14_2 C23_2 1_555 1_555
C21_2 C22_2 1_555 1_555
C27 H14 1_555 1_555
C27 H16 1_555 1_555
C13_2 H20_2 1_555 1_555
C4_2 H23_2 1_555 1_555
C25_2 H24_2 1_555 1_555
C15_2 H25_2 1_555 1_555
C3_2 H26_2 1_555 1_555
C16_2 H27_2 1_555 1_555
O5_2 Mn4 1_555 1_555
O7_2 Mn4 1_555 1_555
O12 C12_2 1_555 1_555
O13 C12_2 1_555 1_555
C5_2 C6_2 1_555 1_555
C6_2 C7_2 1_555 1_555
C7_2 C8_2 1_555 1_555
C8_2 C9_2 1_555 1_555
C9_2 C1_2 1_555 1_555
C10_2 C5_2 1_555 1_555
C12_2 C6_2 1_555 1_555
C26_2 N1_2 1_555 1_555
O15_2 Mn4 1_555 1_555
C9_2 C10_2 1_555 1_555
O5_2 H1_2 1_555 1_555
O5_2 H2_2 1_555 1_555
C26_2 H3_2 1_555 1_555
C26_2 H4 1_555 1_555
C26_2 H5_2 1_555 1_555
C1_2 H17_2 1_555 1_555
C8_2 H19_2 1_555 1_555
C7_2 H22_2 1_555 1_555
O10_2 C24_2 1_555 1_555
O11_2 C24_2 1_555 1_555
C17_2 C18_2 1_555 1_555
C18_2 C19_2 1_555 1_555
C24_2 C18_2 1_555 1_555
Mn5_2 O10_2 1_555 1_555
Mn6_2 O11_2 1_555 1_555
C17_2 H9_2 1_555 1_555
C19_2 H28_2 1_555 1_555
O15_2 C24_3 1_555 1_555
O11_3 C24_3 1_555 1_555
C17_3 C18_3 1_555 1_555
C18_3 C19_3 1_555 1_555
C24_3 C18_3 1_555 1_555
Mn6_3 O11_3 1_555 1_555
C17_3 H9_3 1_555 1_555
C19_3 H28_3 1_555 1_555
Mn3_2 O8_2 1_555 1_555
Mn5 O9_2 1_555 1_555
O9_2 Mn3_2 1_555 1_555
Mn1_2 O2_3 1_555 1_555
Mn5_2 O1_3 1_555 1_555
O1_3 C11_3 1_555 1_555
O2_3 C11_3 1_555 1_555
O3_3 Mn1_2 1_555 1_555
O4_3 Mn5_2 1_555 1_555
O5_3 Mn5_2 1_555 1_555
O6_3 Mn1_2 1_555 1_555
O7_3 Mn5_2 1_555 1_555
N1_3 C25_3 1_555 1_555
N2_2 C28_2 1_555 1_555
C1_3 C2_3 1_555 1_555
C2_3 C3_3 1_555 1_555
C3_3 C4_3 1_555 1_555
C4_3 C10_3 1_555 1_555
C5_3 C6_3 1_555 1_555
C6_3 C7_3 1_555 1_555
C7_3 C8_3 1_555 1_555
C8_3 C9_3 1_555 1_555
C9_3 C1_3 1_555 1_555
C10_3 C5_3 1_555 1_555
C11_3 C2_3 1_555 1_555
C12_3 C6_3 1_555 1_555
C13_3 C14_3 1_555 1_555
C14_3 C15_3 1_555 1_555
C15_3 C21_3 1_555 1_555
C20_3 C13_3 1_555 1_555
C21_3 C16_3 1_555 1_555
C22_3 C20_3 1_555 1_555
C23_3 O3_3 1_555 1_555
C25_3 O6_3 1_555 1_555
C26_3 N1_3 1_555 1_555
C27_2 N1_3 1_555 1_555
C28_2 O7_3 1_555 1_555
C29_2 N2_2 1_555 1_555
C30_2 N2_2 1_555 1_555
O12_2 Mn1_2 1_555 1_555
O13_2 Mn1_2 1_555 1_555
O14_3 Mn1_2 1_555 1_555
Mn5_2 O13_2 1_555 1_555
O4_3 C23_3 1_555 1_555
C9_3 C10_3 1_555 1_555
C14_3 C23_3 1_555 1_555
C21_3 C22_3 1_555 1_555
O5_3 H1_3 1_555 1_555
O5_3 H2_3 1_555 1_555
C26_3 H3_3 1_555 1_555
C26_3 H4_2 1_555 1_555
C26_3 H5_3 1_555 1_555
C30_2 H6_2 1_555 1_555
C30_2 H8_2 1_555 1_555
C29_2 H10_2 1_555 1_555
C29_2 H12_2 1_555 1_555
C27_2 H14_2 1_555 1_555
C27_2 H15_2 1_555 1_555
C27_2 H16_2 1_555 1_555
C1_3 H17_3 1_555 1_555
C5_3 H18_3 1_555 1_555
C8_3 H19_3 1_555 1_555
C13_3 H20_3 1_555 1_555
C28_2 H21_3 1_555 1_555
C7_3 H22_3 1_555 1_555
C4_3 H23_3 1_555 1_555
C25_3 H24_3 1_555 1_555
C15_3 H25_3 1_555 1_555
C3_3 H26_3 1_555 1_555
C16_3 H27_3 1_555 1_555
Mn3_2 O2_4 1_555 1_555
Mn5 O1_4 1_555 1_555
O1_4 C11_4 1_555 1_555
O2_4 C11_4 1_555 1_555
O3_4 Mn3_2 1_555 1_555
O4_4 Mn5 1_555 1_555
O5_4 Mn5 1_555 1_555
O6_4 Mn3_2 1_555 1_555
O7_4 Mn5 1_555 1_555
O12_2 C12_4 1_555 1_555
O13_2 C12_4 1_555 1_555
O15 C24_4 1_555 1_555
O11_4 C24_4 1_555 1_555
N1_4 C25_4 1_555 1_555
C1_4 C2_4 1_555 1_555
C2_4 C3_4 1_555 1_555
C3_4 C4_4 1_555 1_555
C4_4 C10_4 1_555 1_555
C5_4 C6_4 1_555 1_555
C6_4 C7_4 1_555 1_555
C7_4 C8_4 1_555 1_555
C8_4 C9_4 1_555 1_555
C9_4 C1_4 1_555 1_555
C10_4 C5_4 1_555 1_555
C11_4 C2_4 1_555 1_555
C12_4 C6_4 1_555 1_555
C13_4 C14_4 1_555 1_555
C14_4 C15_4 1_555 1_555
C15_4 C21_4 1_555 1_555
C16_4 C17_4 1_555 1_555
C17_4 C18_4 1_555 1_555
C18_4 C19_4 1_555 1_555
C19_4 C22_4 1_555 1_555
C20_4 C13_4 1_555 1_555
C21_4 C16_4 1_555 1_555
C22_4 C20_4 1_555 1_555
C23_4 O3_4 1_555 1_555
C24_4 C18_4 1_555 1_555
C25_4 O6_4 1_555 1_555
C26_4 N1_4 1_555 1_555
O14_4 Mn3_2 1_555 1_555
Mn6_4 O11_4 1_555 1_555
O4_4 C23_4 1_555 1_555
C9_4 C10_4 1_555 1_555
C14_4 C23_4 1_555 1_555
C21_4 C22_4 1_555 1_555
O5_4 H1_4 1_555 1_555
O5_4 H2_4 1_555 1_555
C26_4 H3_4 1_555 1_555
C26_4 H5_4 1_555 1_555
C17_4 H9_4 1_555 1_555
C20_4 H13_4 1_555 1_555
C1_4 H17_4 1_555 1_555
C5_4 H18_4 1_555 1_555
C8_4 H19_4 1_555 1_555
C13_4 H20_4 1_555 1_555
C7_4 H22_4 1_555 1_555
C4_4 H23_4 1_555 1_555
C25_4 H24_4 1_555 1_555
C15_4 H25_4 1_555 1_555
C3_4 H26_4 1_555 1_555
C16_4 H27_4 1_555 1_555
C19_4 H28_4 1_555 1_555
Mn6_2 O2_5 1_555 1_555
O1_5 C11_5 1_555 1_555
O2_5 C11_5 1_555 1_555
O3_5 Mn6_2 1_555 1_555
O6_5 Mn6_2 1_555 1_555
O10_3 C24_5 1_555 1_555
O14_2 C24_5 1_555 1_555
C2_5 C3_5 1_555 1_555
C3_5 C4_5 1_555 1_555
C11_5 C2_5 1_555 1_555
C13_5 C14_5 1_555 1_555
C14_5 C15_5 1_555 1_555
C15_5 C21_5 1_555 1_555
C16_5 C17_5 1_555 1_555
C17_5 C18_5 1_555 1_555
C18_5 C19_5 1_555 1_555
C19_5 C22_5 1_555 1_555
C20_5 C13_5 1_555 1_555
C21_5 C16_5 1_555 1_555
C22_5 C20_5 1_555 1_555
C23_5 O3_5 1_555 1_555
C24_5 C18_5 1_555 1_555
C25_5 O6_5 1_555 1_555
O12_3 Mn6_2 1_555 1_555
O13_3 Mn6_2 1_555 1_555
Mn5_3 O10_3 1_555 1_555
O4_5 C23_5 1_555 1_555
C14_5 C23_5 1_555 1_555
C21_5 C22_5 1_555 1_555
C17_5 H9_5 1_555 1_555
C20_5 H13_5 1_555 1_555
C13_5 H20_5 1_555 1_555
C4_5 H23_5 1_555 1_555
C25_5 H24_5 1_555 1_555
C15_5 H25_5 1_555 1_555
C3_5 H26_5 1_555 1_555
C16_5 H27_5 1_555 1_555
C19_5 H28_5 1_555 1_555
Mn6 O8_3 1_555 1_555
O9_3 Mn6 1_555 1_555
O5_5 Mn2_2 1_555 1_555
O7_5 Mn2_2 1_555 1_555
N2_3 C28_3 1_555 1_555
C5_5 C6_5 1_555 1_555
C6_5 C7_5 1_555 1_555
C7_5 C8_5 1_555 1_555
C8_5 C9_5 1_555 1_555
C9_5 C1_5 1_555 1_555
C10_5 C5_5 1_555 1_555
C12_5 C6_5 1_555 1_555
C26_5 N1_5 1_555 1_555
C28_3 O7_5 1_555 1_555
C29_3 N2_3 1_555 1_555
C30_3 N2_3 1_555 1_555
O15_3 Mn2_2 1_555 1_555
C9_5 C10_5 1_555 1_555
O5_5 H1_5 1_555 1_555
O5_5 H2_5 1_555 1_555
C26_5 H3_5 1_555 1_555
C26_5 H5_5 1_555 1_555
C30_3 H7_3 1_555 1_555
C30_3 H8_3 1_555 1_555
C29_3 H10_3 1_555 1_555
C29_3 H11_3 1_555 1_555
C29_3 H12_3 1_555 1_555
C1_5 H17_5 1_555 1_555
C8_5 H19_5 1_555 1_555
C28_3 H21_5 1_555 1_555
C7_5 H22_5 1_555 1_555
O10_4 C24_6 1_555 1_555
O14 C24_6 1_555 1_555
C17_6 C18_6 1_555 1_555
C18_6 C19_6 1_555 1_555
C24_6 C18_6 1_555 1_555
Mn5_4 O10_4 1_555 1_555
C17_6 H9_6 1_555 1_555
C19_6 H28_6 1_555 1_555
O5_6 Mn4_2 1_555 1_555
O7_6 Mn4_2 1_555 1_555
O12_3 C12_6 1_555 1_555
O13_3 C12_6 1_555 1_555
C5_6 C6_6 1_555 1_555
C6_6 C7_6 1_555 1_555
C7_6 C8_6 1_555 1_555
C8_6 C9_6 1_555 1_555
C9_6 C1_6 1_555 1_555
C10_6 C5_6 1_555 1_555
C12_6 C6_6 1_555 1_555
C26_6 N1_6 1_555 1_555
O15_4 Mn4_2 1_555 1_555
C9_6 C10_6 1_555 1_555
O5_6 H1_6 1_555 1_555
O5_6 H2_6 1_555 1_555
C26_6 H3_6 1_555 1_555
C26_6 H4_3 1_555 1_555
C26_6 H5_6 1_555 1_555
C1_6 H17_6 1_555 1_555
C8_6 H19_6 1_555 1_555
C7_6 H22_6 1_555 1_555
Mn6 O2_6 1_555 1_555
O1_6 C11_6 1_555 1_555
O2_6 C11_6 1_555 1_555
O3_6 Mn6 1_555 1_555
O6_6 Mn6 1_555 1_555
C2_6 C3_6 1_555 1_555
C3_6 C4_6 1_555 1_555
C11_6 C2_6 1_555 1_555
C13_6 C14_6 1_555 1_555
C14_6 C15_6 1_555 1_555
C15_6 C21_6 1_555 1_555
C20_6 C13_6 1_555 1_555
C21_6 C16_6 1_555 1_555
C22_6 C20_6 1_555 1_555
C23_6 O3_6 1_555 1_555
C25_6 O6_6 1_555 1_555
O4_6 C23_6 1_555 1_555
C14_6 C23_6 1_555 1_555
C21_6 C22_6 1_555 1_555
C27_3 H14_3 1_555 1_555
C27_3 H16_3 1_555 1_555
C13_6 H20_6 1_555 1_555
C4_6 H23_6 1_555 1_555
C25_6 H24_6 1_555 1_555
C15_6 H25_6 1_555 1_555
C3_6 H26_6 1_555 1_555
C16_6 H27_6 1_555 1_555
Mn6_4 O2_7 1_555 1_555
Mn5_4 O1_7 1_555 1_555
O1_7 C11_7 1_555 1_555
O2_7 C11_7 1_555 1_555
O3_7 Mn6_4 1_555 1_555
O4_7 Mn5_4 1_555 1_555
O5_7 Mn5_4 1_555 1_555
O6_7 Mn6_4 1_555 1_555
O7_7 Mn5_4 1_555 1_555
N1_7 C25_7 1_555 1_555
N2_4 C28_4 1_555 1_555
C1_7 C2_7 1_555 1_555
C2_7 C3_7 1_555 1_555
C3_7 C4_7 1_555 1_555
C4_7 C10_7 1_555 1_555
C5_7 C6_7 1_555 1_555
C6_7 C7_7 1_555 1_555
C7_7 C8_7 1_555 1_555
C8_7 C9_7 1_555 1_555
C9_7 C1_7 1_555 1_555
C10_7 C5_7 1_555 1_555
C11_7 C2_7 1_555 1_555
C12_7 C6_7 1_555 1_555
C13_7 C14_7 1_555 1_555
C14_7 C15_7 1_555 1_555
C15_7 C21_7 1_555 1_555
C20_7 C13_7 1_555 1_555
C21_7 C16_7 1_555 1_555
C22_7 C20_7 1_555 1_555
C23_7 O3_7 1_555 1_555
C25_7 O6_7 1_555 1_555
C26_7 N1_7 1_555 1_555
C27_4 N1_7 1_555 1_555
C28_4 O7_7 1_555 1_555
C29_4 N2_4 1_555 1_555
C30_4 N2_4 1_555 1_555
O12_4 Mn6_4 1_555 1_555
O13_4 Mn6_4 1_555 1_555
Mn5_4 O13_4 1_555 1_555
O4_7 C23_7 1_555 1_555
C9_7 C10_7 1_555 1_555
C14_7 C23_7 1_555 1_555
C21_7 C22_7 1_555 1_555
O5_7 H1_7 1_555 1_555
O5_7 H2_7 1_555 1_555
C26_7 H3_7 1_555 1_555
C26_7 H4_4 1_555 1_555
C26_7 H5_7 1_555 1_555
C30_4 H6_4 1_555 1_555
C30_4 H8_4 1_555 1_555
C29_4 H10_4 1_555 1_555
C29_4 H12_4 1_555 1_555
C27_4 H14_4 1_555 1_555
C27_4 H15_4 1_555 1_555
C27_4 H16_4 1_555 1_555
C1_7 H17_7 1_555 1_555
C5_7 H18_7 1_555 1_555
C8_7 H19_7 1_555 1_555
C13_7 H20_7 1_555 1_555
C28_4 H21_7 1_555 1_555
C7_7 H22_7 1_555 1_555
C4_7 H23_7 1_555 1_555
C25_7 H24_7 1_555 1_555
C15_7 H25_7 1_555 1_555
C3_7 H26_7 1_555 1_555
C16_7 H27_7 1_555 1_555
Mn6_3 O8_4 1_555 1_555
Mn5_3 O9_4 1_555 1_555
O9_4 Mn6_3 1_555 1_555
O15_4 C24_7 1_555 1_555
O14_4 C24_7 1_555 1_555
C17_7 C18_7 1_555 1_555
C18_7 C19_7 1_555 1_555
C24_7 C18_7 1_555 1_555
C17_7 H9_7 1_555 1_555
C19_7 H28_7 1_555 1_555
Mn6_3 O2_8 1_555 1_555
Mn5_3 O1_8 1_555 1_555
O1_8 C11_8 1_555 1_555
O2_8 C11_8 1_555 1_555
O3_8 Mn6_3 1_555 1_555
O4_8 Mn5_3 1_555 1_555
O5_8 Mn5_3 1_555 1_555
O6_8 Mn6_3 1_555 1_555
O7_8 Mn5_3 1_555 1_555
O12_4 C12_8 1_555 1_555
O13_4 C12_8 1_555 1_555
O15_3 C24_8 1_555 1_555
O14_3 C24_8 1_555 1_555
N1_8 C25_8 1_555 1_555
C1_8 C2_8 1_555 1_555
C2_8 C3_8 1_555 1_555
C3_8 C4_8 1_555 1_555
C4_8 C10_8 1_555 1_555
C5_8 C6_8 1_555 1_555
C6_8 C7_8 1_555 1_555
C7_8 C8_8 1_555 1_555
C8_8 C9_8 1_555 1_555
C9_8 C1_8 1_555 1_555
C10_8 C5_8 1_555 1_555
C11_8 C2_8 1_555 1_555
C12_8 C6_8 1_555 1_555
C13_8 C14_8 1_555 1_555
C14_8 C15_8 1_555 1_555
C15_8 C21_8 1_555 1_555
C16_8 C17_8 1_555 1_555
C17_8 C18_8 1_555 1_555
C18_8 C19_8 1_555 1_555
C19_8 C22_8 1_555 1_555
C20_8 C13_8 1_555 1_555
C21_8 C16_8 1_555 1_555
C22_8 C20_8 1_555 1_555
C23_8 O3_8 1_555 1_555
C24_8 C18_8 1_555 1_555
C25_8 O6_8 1_555 1_555
C26_8 N1_8 1_555 1_555
O4_8 C23_8 1_555 1_555
C9_8 C10_8 1_555 1_555
C14_8 C23_8 1_555 1_555
C21_8 C22_8 1_555 1_555
O5_8 H1_8 1_555 1_555
O5_8 H2_8 1_555 1_555
C26_8 H3_8 1_555 1_555
C26_8 H5_8 1_555 1_555
C17_8 H9_8 1_555 1_555
C20_8 H13_8 1_555 1_555
C1_8 H17_8 1_555 1_555
C5_8 H18_8 1_555 1_555
C8_8 H19_8 1_555 1_555
C13_8 H20_8 1_555 1_555
C7_8 H22_8 1_555 1_555
C4_8 H23_8 1_555 1_555
C25_8 H24_8 1_555 1_555
C15_8 H25_8 1_555 1_555
C3_8 H26_8 1_555 1_555
C16_8 H27_8 1_555 1_555
C19_8 H28_8 1_555 1_555
C27_5 H14_5 1_555 1_555
C27_5 H16_5 1_555 1_555
N2_5 C28_5 1_555 1_555
C29_5 N2_5 1_555 1_555
C30_5 N2_5 1_555 1_555
C30_5 H8_5 1_555 1_555
C29_5 H10_5 1_555 1_555
C29_5 H12_5 1_555 1_555
C27_6 H14_6 1_555 1_555
C27_6 H15_6 1_555 1_555
C27_6 H16_6 1_555 1_555
N2_6 C28_6 1_555 1_555
C29_6 N2_6 1_555 1_555
C30_6 N2_6 1_555 1_555
C30_6 H6_6 1_555 1_555
C30_6 H7_6 1_555 1_555
C30_6 H8_6 1_555 1_555
C29_6 H10_6 1_555 1_555
C29_6 H11_6 1_555 1_555
C29_6 H12_6 1_555 1_555
C27_7 H14_7 1_555 1_555
C27_7 H16_7 1_555 1_555
N2_7 C28_7 1_555 1_555
C29_7 N2_7 1_555 1_555
C30_7 N2_7 1_555 1_555
C30_7 H8_7 1_555 1_555
C29_7 H10_7 1_555 1_555
C29_7 H12_7 1_555 1_555
N2_8 C28_8 1_555 1_555
C29_8 N2_8 1_555 1_555
C30_8 N2_8 1_555 1_555
C30_8 H6_8 1_555 1_555
C30_8 H7_8 1_555 1_555
C30_8 H8_8 1_555 1_555
C29_8 H10_8 1_555 1_555
C29_8 H11_8 1_555 1_555
C29_8 H12_8 1_555 1_555
C27_8 H14_8 1_555 1_555
C27_8 H15_8 1_555 1_555
C27_8 H16_8 1_555 1_555

#END
