
###############################################################################
#
# This file contains modified crystal structure data generated from the
# MOF subset of the Cambridge Structural Database (CSD) v543 
# hosted by the Cambridge Crystallographic Data Centre (CCDC).
#
# This work is licensed under the Creative Commons
# Attribution-NonCommercial-ShareAlike 4.0 International License.
# To view a copy of this license, visit
# http://creativecommons.org/licenses/by-nc-sa/4.0/
# or send a letter to
# Creative Commons, PO Box 1866, Mountain View, CA 94042, USA.
#
# CIF created using the CSD Python API on 29 September 2022
# The structure has been converted into the P1 space group
# The structure has a 3D framework
# The original CSD entry EZAWIL is in the orthorhombic crystal system
# The framework has been calculated to contain at least 10.0% void space
# The void calculation uses a probe of radius 1.32A, grid spacing 0.4
# The framework is charged, counterions have been retained in the structure
# H atom positions have been added when not included in the experimental data
#
###############################################################################

data_EZAWIL
_chemical_formula_moiety         '(C192 H320 Cl64 Fe90 N16 O425 2+)n'
_symmetry_cell_setting           triclinic
_symmetry_space_group_name_H-M   'P 1'
_symmetry_Int_Tables_number      1
_space_group_name_Hall           'P 1'
loop_
_symmetry_equiv_pos_site_id
_symmetry_equiv_pos_as_xyz
1 x,y,z
_cell_length_a                   27.328(6)
_cell_length_b                   32.125(6)
_cell_length_c                   18.424(4)
_cell_angle_alpha                90
_cell_angle_beta                 90
_cell_angle_gamma                90
_cell_volume                     16174.7
loop_
_atom_site_label
_atom_site_type_symbol
_atom_site_fract_x
_atom_site_fract_y
_atom_site_fract_z
Fe1 Fe 0.5000 0.0000 0.22526(14)
O1 O 0.4707(3) 0.0369(3) 0.1430(5)
O3 O 0.4071(3) 0.0396(3) 0.0678(6)
C2 C 0.4306(5) 0.0242(4) 0.1175(8)
Fe3 Fe 0.19276(6) 0.08050(5) 0.20407(9)
Fe5 Fe 0.33880(8) 0.00110(8) 0.01721(17)
Cl3 Cl 0.15039(12) 0.05348(11) 0.29853(19)
O9 O 0.2217(3) 0.0244(3) 0.1801(5)
O10 O 0.2341(3) 0.0943(3) 0.1108(5)
O12 O 0.2928(3) 0.0660(3) 0.0432(6)
C5 C 0.2516(4) 0.0229(4) 0.1277(7)
C6 C 0.2616(4) 0.0647(4) 0.0894(7)
O13 O 0.1015(3) 0.1737(3) 0.1477(5)
O14 O 0.0748(3) 0.1059(2) 0.0765(5)
O15 O 0.1626(3) 0.1389(3) 0.1989(5)
O16 O 0.1351(3) 0.0711(3) 0.1297(5)
C7 C 0.1257(4) 0.1421(4) 0.1588(7)
C8 C 0.1111(4) 0.1028(4) 0.1187(7)
O21 O 0.2442(3) 0.1058(3) 0.2612(6)
O23 O 0.5634(3) 0.0308(3) 0.2055(5)
O25 O 0.6283(3) 0.0312(3) 0.1288(5)
C11 C 0.5894(4) 0.0164(4) 0.1535(7)
Cl5 Cl 0.47431(16) 0.04681(13) 0.3107(2)
O32 O 0.7280(3) 0.0089(3) 0.1033(6)
Fe9 Fe 0.04565(6) 0.16500(5) 0.07276(9)
Fe10 Fe 0.29565(6) 0.08500(5) 0.32276(9)
Fe2 Fe 0.5000 0.0000 0.81109(17)
O6 O 0.4369(3) 0.0311(3) 0.8299(6)
O8 O 0.3757(4) 0.0359(3) 0.9087(5)
C4 C 0.4121(5) 0.0187(4) 0.8836(8)
O19 O 0.2752(4) 0.0073(3) 0.9246(6)
O26 O 0.5306(4) 0.0354(3) 0.8910(6)
O28 O 0.5919(4) 0.0361(3) 0.9695(6)
C13 C 0.5687(4) 0.0218(4) 0.9177(8)
O34 O 0.7720(3) 0.0273(3) 0.8452(5)
O35 O 0.7527(3) 0.0972(3) 0.9121(5)
O37 O 0.6986(3) 0.0656(3) 0.9848(5)
C17 C 0.7433(4) 0.0251(4) 0.9006(7)
C18 C 0.7298(4) 0.0658(3) 0.9351(7)
Fe8 Fe 0.79565(6) 0.08500(5) 0.82276(9)
Cl6 Cl 0.52421(19) 0.0460(2) 0.7232(3)
Cl8 Cl 0.84200(12) 0.06084(11) 0.7287(2)
O46 O 0.8515(3) 0.0763(3) 0.8977(5)
O47 O 0.8248(3) 0.1441(2) 0.8265(5)
O48 O 0.7442(3) 0.1058(3) 0.7612(6)
Fe1_2 Fe 0.5000 1.0000 0.22526(14)
O2 O 0.4366(3) 0.9692(3) 0.2055(5)
O4 O 0.3717(3) 0.9688(3) 0.1288(5)
Cl1 Cl 0.52569(16) 0.95319(13) 0.3107(2)
C1 C 0.4106(4) 0.9836(4) 0.1535(7)
O11 O 0.2720(3) 0.9911(3) 0.1033(6)
O22 O 0.5293(3) 0.9631(3) 0.1430(5)
O24 O 0.5929(3) 0.9604(3) 0.0678(6)
C12 C 0.5694(5) 0.9758(4) 0.1175(8)
Fe6 Fe 0.66120(8) 0.99890(8) 0.01721(17)
O30 O 0.7783(3) 0.9756(3) 0.1801(5)
O31 O 0.7659(3) 0.9057(3) 0.1108(5)
O33 O 0.7072(3) 0.9340(3) 0.0432(6)
C15 C 0.7484(4) 0.9771(4) 0.1277(7)
C16 C 0.7384(4) 0.9353(4) 0.0894(7)
Fe7 Fe 0.80724(6) 0.91950(5) 0.20407(9)
Cl7 Cl 0.84961(12) 0.94652(11) 0.29853(19)
O43 O 0.8374(3) 0.8611(3) 0.1989(5)
O44 O 0.8649(3) 0.9289(3) 0.1297(5)
O45 O 0.7558(3) 0.8942(3) 0.2612(6)
Fe2_2 Fe 0.5000 1.0000 0.81109(17)
Cl2 Cl 0.47579(19) 0.9540(2) 0.7232(3)
O5 O 0.4694(4) 0.9646(3) 0.8910(6)
O7 O 0.4081(4) 0.9639(3) 0.9695(6)
C3 C 0.4313(4) 0.9782(4) 0.9177(8)
Fe4 Fe 0.20435(6) 0.91500(5) 0.82276(9)
Cl4 Cl 0.15800(12) 0.93916(11) 0.7287(2)
O17 O 0.2280(3) 0.9727(3) 0.8452(5)
O18 O 0.2473(3) 0.9028(3) 0.9121(5)
O20 O 0.3014(3) 0.9344(3) 0.9848(5)
C9 C 0.2567(4) 0.9749(4) 0.9006(7)
C10 C 0.2702(4) 0.9342(3) 0.9351(7)
O27 O 0.5631(3) 0.9689(3) 0.8299(6)
O29 O 0.6243(4) 0.9641(3) 0.9087(5)
C14 C 0.5879(5) 0.9813(4) 0.8836(8)
O36 O 0.7248(4) 0.9927(3) 0.9246(6)
O38 O 0.1485(3) 0.9237(3) 0.8977(5)
O39 O 0.1752(3) 0.8559(2) 0.8265(5)
O40 O 0.0874(3) 0.8889(3) 0.9489(5)
O41 O 0.1149(3) 0.8211(3) 0.8797(5)
C19 C 0.1243(4) 0.8921(4) 0.9088(7)
C20 C 0.1389(4) 0.8528(4) 0.8687(7)
O42 O 0.2558(3) 0.8942(3) 0.7612(6)
Fe11 Fe 0.05724(6) 0.83050(5) 0.95407(9)
Fe12 Fe 0.30724(6) 0.91950(5) 0.70407(9)
O40_2 O 0.9126(3) 0.1111(3) 0.9489(5)
O41_2 O 0.8851(3) 0.1789(3) 0.8797(5)
C19_2 C 0.8757(4) 0.1079(4) 0.9088(7)
C20_2 C 0.8611(4) 0.1472(4) 0.8687(7)
Fe11_2 Fe 0.94276(6) 0.16950(5) 0.95407(9)
Fe12_2 Fe 0.69276(6) 0.08050(5) 0.70407(9)
O13_2 O 0.8985(3) 0.8263(3) 0.1477(5)
O14_2 O 0.9252(3) 0.8941(2) 0.0765(5)
C7_2 C 0.8743(4) 0.8579(4) 0.1588(7)
C8_2 C 0.8889(4) 0.8972(4) 0.1187(7)
Fe9_2 Fe 0.95435(6) 0.83500(5) 0.07276(9)
Fe10_2 Fe 0.70435(6) 0.91500(5) 0.32276(9)
O30_2 O 0.0283(3) 0.2744(3) 0.4301(5)
O31_2 O 0.0159(3) 0.3443(3) 0.3608(5)
O34_2 O 0.0220(3) 0.2227(3) 0.0952(5)
O35_2 O 0.0027(3) 0.1528(3) 0.1621(5)
Fe7_2 Fe 0.05724(6) 0.33050(5) 0.45407(9)
Cl7_2 Cl 0.09961(12) 0.30348(11) 0.54853(19)
O43_2 O 0.0874(3) 0.3889(3) 0.4489(5)
O44_2 O 0.1149(3) 0.3211(3) 0.3797(5)
O45_2 O 0.0058(3) 0.3558(3) 0.5112(6)
Fe1_3 Fe 0.7500 0.2500 0.47526(14)
Fe2_3 Fe 0.7500 0.2500 0.06109(17)
O1_2 O 0.7207(3) 0.2131(3) 0.3930(5)
O2_2 O 0.6866(3) 0.2808(3) 0.4555(5)
O3_2 O 0.6571(3) 0.2104(3) 0.3178(6)
O4_2 O 0.6217(3) 0.2812(3) 0.3788(5)
Cl1_2 Cl 0.77569(16) 0.29681(13) 0.5607(2)
C1_2 C 0.6606(4) 0.2664(4) 0.4035(7)
C2_2 C 0.6806(5) 0.2258(4) 0.3675(8)
O5_2 O 0.7194(4) 0.2854(3) 0.1410(6)
O6_2 O 0.6869(3) 0.2189(3) 0.0799(6)
O7_2 O 0.6581(4) 0.2861(3) 0.2195(6)
O8_2 O 0.6257(4) 0.2141(3) 0.1587(5)
C3_2 C 0.6813(4) 0.2718(4) 0.1677(8)
C4_2 C 0.6621(5) 0.2313(4) 0.1336(8)
Fe3_2 Fe 0.44276(6) 0.16950(5) 0.45407(9)
Fe4_2 Fe 0.45435(6) 0.33500(5) 0.07276(9)
Fe5_2 Fe 0.58880(8) 0.24890(8) 0.26721(17)
Cl3_2 Cl 0.40039(12) 0.19652(11) 0.54853(19)
O9_2 O 0.4717(3) 0.2256(3) 0.4301(5)
O10_2 O 0.4841(3) 0.1557(3) 0.3608(5)
O11_2 O 0.5220(3) 0.2589(3) 0.3533(6)
O12_2 O 0.5428(3) 0.1840(3) 0.2932(6)
C5_2 C 0.5016(4) 0.2271(4) 0.3777(7)
C6_2 C 0.5116(4) 0.1853(4) 0.3394(7)
O13_3 O 0.3515(3) 0.0763(3) 0.3977(5)
O14_3 O 0.3248(3) 0.1441(2) 0.3265(5)
O15_2 O 0.4126(3) 0.1111(3) 0.4489(5)
O16_2 O 0.3851(3) 0.1789(3) 0.3797(5)
C7_3 C 0.3757(4) 0.1079(4) 0.4088(7)
C8_3 C 0.3611(4) 0.1472(4) 0.3687(7)
O17_2 O 0.4780(3) 0.2773(3) 0.0952(5)
O18_2 O 0.4973(3) 0.3472(3) 0.1621(5)
O19_2 O 0.5252(4) 0.2427(3) 0.1746(6)
O20_2 O 0.5514(3) 0.3156(3) 0.2348(5)
C9_2 C 0.5067(4) 0.2751(4) 0.1506(7)
C10_2 C 0.5202(4) 0.3158(3) 0.1851(7)
O21_2 O 0.4942(3) 0.1442(3) 0.5112(6)
O22_2 O 0.7793(3) 0.2869(3) 0.3930(5)
O23_2 O 0.8134(3) 0.2192(3) 0.4555(5)
O24_2 O 0.8429(3) 0.2896(3) 0.3178(6)
O25_2 O 0.8783(3) 0.2188(3) 0.3788(5)
C11_2 C 0.8394(4) 0.2336(4) 0.4035(7)
C12_2 C 0.8194(5) 0.2742(4) 0.3675(8)
Cl5_2 Cl 0.72431(16) 0.20319(13) 0.5607(2)
Fe6_2 Fe 0.91120(8) 0.25110(8) 0.26721(17)
O26_2 O 0.7806(4) 0.2146(3) 0.1410(6)
O27_2 O 0.8131(3) 0.2811(3) 0.0799(6)
O28_2 O 0.8419(4) 0.2139(3) 0.2195(6)
O29_2 O 0.8743(4) 0.2859(3) 0.1587(5)
C13_2 C 0.8187(4) 0.2282(4) 0.1677(8)
C14_2 C 0.8379(5) 0.2687(4) 0.1336(8)
O32_2 O 0.9780(3) 0.2411(3) 0.3533(6)
O33_2 O 0.9572(3) 0.3160(3) 0.2932(6)
C15_2 C 0.9984(4) 0.2729(4) 0.3777(7)
C16_2 C 0.9884(4) 0.3147(4) 0.3394(7)
O36_2 O 0.9748(4) 0.2573(3) 0.1746(6)
O37_2 O 0.9486(3) 0.1844(3) 0.2348(5)
C17_2 C 0.9933(4) 0.2249(4) 0.1506(7)
C18_2 C 0.9798(4) 0.1842(3) 0.1851(7)
O38_2 O 0.3985(3) 0.3263(3) 0.1477(5)
O39_2 O 0.4252(3) 0.3941(2) 0.0765(5)
O40_3 O 0.3374(3) 0.3611(3) 0.1989(5)
O41_3 O 0.3649(3) 0.4289(3) 0.1297(5)
C19_3 C 0.3743(4) 0.3579(4) 0.1588(7)
C20_3 C 0.3889(4) 0.3972(4) 0.1187(7)
O42_2 O 0.5058(3) 0.3558(3) 0.0112(6)
Fe10_3 Fe 0.54565(6) 0.16500(5) 0.57276(9)
O48_2 O 0.9942(3) 0.1442(3) 0.0112(6)
Fe11_3 Fe 0.30724(6) 0.41950(5) 0.20407(9)
Cl2_2 Cl 0.72579(19) 0.2960(2) 0.9732(3)
Cl4_2 Cl 0.40800(12) 0.31084(11) 0.9787(2)
Cl6_2 Cl 0.77421(19) 0.2040(2) 0.9732(3)
Fe12_3 Fe 0.55724(6) 0.33050(5) 0.95407(9)
O13_4 O 0.1485(3) 0.4237(3) 0.3977(5)
O14_4 O 0.1752(3) 0.3559(2) 0.3265(5)
C7_4 C 0.1243(4) 0.3921(4) 0.4088(7)
C8_4 C 0.1389(4) 0.3528(4) 0.3687(7)
Fe9_3 Fe 0.20435(6) 0.41500(5) 0.32276(9)
Fe10_4 Fe 0.95435(6) 0.33500(5) 0.57276(9)
Fe1_4 Fe 0.5000 0.5000 0.72526(14)
Fe2_4 Fe 0.5000 0.5000 0.31109(17)
O1_3 O 0.4707(3) 0.5369(3) 0.6430(5)
O2_3 O 0.4366(3) 0.4692(3) 0.7055(5)
O3_3 O 0.4071(3) 0.5396(3) 0.5678(6)
O4_3 O 0.3717(3) 0.4688(3) 0.6288(5)
Cl1_3 Cl 0.52569(16) 0.45319(13) 0.8107(2)
Cl2_3 Cl 0.47579(19) 0.4540(2) 0.2232(3)
C1_3 C 0.4106(4) 0.4836(4) 0.6535(7)
C2_3 C 0.4306(5) 0.5242(4) 0.6175(8)
O5_3 O 0.4694(4) 0.4646(3) 0.3910(6)
O6_3 O 0.4369(3) 0.5311(3) 0.3299(6)
O7_3 O 0.4081(4) 0.4639(3) 0.4695(6)
O8_3 O 0.3757(4) 0.5359(3) 0.4087(5)
C3_3 C 0.4313(4) 0.4782(4) 0.4177(8)
C4_3 C 0.4121(5) 0.5187(4) 0.3836(8)
Fe3_3 Fe 0.19276(6) 0.58050(5) 0.70407(9)
Fe5_3 Fe 0.33880(8) 0.50110(8) 0.51721(17)
Cl3_3 Cl 0.15039(12) 0.55348(11) 0.79853(19)
Cl4_3 Cl 0.15800(12) 0.43916(11) 0.2287(2)
O9_3 O 0.2217(3) 0.5244(3) 0.6801(5)
O10_3 O 0.2341(3) 0.5943(3) 0.6108(5)
O11_3 O 0.2720(3) 0.4911(3) 0.6033(6)
O12_3 O 0.2928(3) 0.5660(3) 0.5432(6)
C5_3 C 0.2516(4) 0.5229(4) 0.6277(7)
C6_3 C 0.2616(4) 0.5647(4) 0.5894(7)
O13_5 O 0.1015(3) 0.6737(3) 0.6477(5)
O14_5 O 0.0748(3) 0.6059(2) 0.5765(5)
O15_3 O 0.1626(3) 0.6389(3) 0.6989(5)
O16_3 O 0.1351(3) 0.5711(3) 0.6297(5)
C7_5 C 0.1257(4) 0.6421(4) 0.6588(7)
C8_5 C 0.1111(4) 0.6028(4) 0.6187(7)
O17_3 O 0.2280(3) 0.4727(3) 0.3452(5)
O18_3 O 0.2473(3) 0.4028(3) 0.4121(5)
O19_3 O 0.2752(4) 0.5073(3) 0.4246(6)
O20_3 O 0.3014(3) 0.4344(3) 0.4848(5)
C9_3 C 0.2567(4) 0.4749(4) 0.4006(7)
C10_3 C 0.2702(4) 0.4342(3) 0.4351(7)
O21_3 O 0.2442(3) 0.6058(3) 0.7612(6)
O22_3 O 0.5293(3) 0.4631(3) 0.6430(5)
O23_3 O 0.5634(3) 0.5308(3) 0.7055(5)
O24_3 O 0.5929(3) 0.4604(3) 0.5678(6)
O25_3 O 0.6283(3) 0.5312(3) 0.6288(5)
C11_3 C 0.5894(4) 0.5164(4) 0.6535(7)
C12_3 C 0.5694(5) 0.4758(4) 0.6175(8)
Cl5_3 Cl 0.47431(16) 0.54681(13) 0.8107(2)
Fe6_3 Fe 0.66120(8) 0.49890(8) 0.51721(17)
O26_3 O 0.5306(4) 0.5354(3) 0.3910(6)
O27_3 O 0.5631(3) 0.4689(3) 0.3299(6)
O28_3 O 0.5919(4) 0.5361(3) 0.4695(6)
O29_3 O 0.6243(4) 0.4641(3) 0.4087(5)
C13_3 C 0.5687(4) 0.5218(4) 0.4177(8)
C14_3 C 0.5879(5) 0.4813(4) 0.3836(8)
O30_3 O 0.7783(3) 0.4756(3) 0.6801(5)
O31_3 O 0.7659(3) 0.4057(3) 0.6108(5)
O32_3 O 0.7280(3) 0.5089(3) 0.6033(6)
O33_3 O 0.7072(3) 0.4340(3) 0.5432(6)
C15_3 C 0.7484(4) 0.4771(4) 0.6277(7)
C16_3 C 0.7384(4) 0.4353(4) 0.5894(7)
O34_3 O 0.7720(3) 0.5273(3) 0.3452(5)
O35_3 O 0.7527(3) 0.5972(3) 0.4121(5)
O36_3 O 0.7248(4) 0.4927(3) 0.4246(6)
O37_3 O 0.6986(3) 0.5656(3) 0.4848(5)
C17_3 C 0.7433(4) 0.5251(4) 0.4006(7)
C18_3 C 0.7298(4) 0.5658(3) 0.4351(7)
Fe7_3 Fe 0.80724(6) 0.41950(5) 0.70407(9)
Fe8_2 Fe 0.79565(6) 0.58500(5) 0.32276(9)
Cl6_3 Cl 0.52421(19) 0.5460(2) 0.2232(3)
O42_3 O 0.2558(3) 0.3942(3) 0.2612(6)
Cl7_3 Cl 0.84961(12) 0.44652(11) 0.79853(19)
Cl8_2 Cl 0.84200(12) 0.56084(11) 0.2287(2)
Fe9_4 Fe 0.04565(6) 0.66500(5) 0.57276(9)
Fe10_5 Fe 0.29565(6) 0.58500(5) 0.82276(9)
O43_3 O 0.8374(3) 0.3611(3) 0.6989(5)
O44_3 O 0.8649(3) 0.4289(3) 0.6297(5)
O45_3 O 0.7558(3) 0.3942(3) 0.7612(6)
O46_2 O 0.8515(3) 0.5763(3) 0.3977(5)
O47_2 O 0.8248(3) 0.6441(2) 0.3265(5)
O48_3 O 0.7442(3) 0.6058(3) 0.2612(6)
O13_6 O 0.8985(3) 0.3263(3) 0.6477(5)
O14_6 O 0.9252(3) 0.3941(2) 0.5765(5)
C7_6 C 0.8743(4) 0.3579(4) 0.6588(7)
C8_6 C 0.8889(4) 0.3972(4) 0.6187(7)
O40_4 O 0.9126(3) 0.6111(3) 0.4489(5)
O41_4 O 0.8851(3) 0.6789(3) 0.3797(5)
C19_4 C 0.8757(4) 0.6079(4) 0.4088(7)
C20_4 C 0.8611(4) 0.6472(4) 0.3687(7)
Fe10_6 Fe 0.70435(6) 0.41500(5) 0.82276(9)
Fe11_4 Fe 0.94276(6) 0.66950(5) 0.45407(9)
Fe12_4 Fe 0.69276(6) 0.58050(5) 0.20407(9)
Cl7_4 Cl 0.09961(12) 0.80348(11) 0.04853(19)
O45_4 O 0.0058(3) 0.8558(3) 0.0112(6)
O30_4 O 0.0283(3) 0.7744(3) 0.9301(5)
O31_4 O 0.0159(3) 0.8443(3) 0.8608(5)
O34_4 O 0.0220(3) 0.7227(3) 0.5952(5)
O35_4 O 0.0027(3) 0.6528(3) 0.6621(5)
Cl8_3 Cl 0.09200(12) 0.68916(11) 0.4787(2)
Cl1_4 Cl 0.77569(16) 0.79681(13) 0.0607(2)
Cl3_4 Cl 0.40039(12) 0.69652(11) 0.04853(19)
O21_4 O 0.4942(3) 0.6442(3) 0.0112(6)
Cl5_4 Cl 0.72431(16) 0.70319(13) 0.0607(2)
Fe10_7 Fe 0.54565(6) 0.66500(5) 0.07276(9)
Fe1_5 Fe 0.7500 0.7500 0.97526(14)
Fe2_5 Fe 0.7500 0.7500 0.56109(17)
O1_4 O 0.7207(3) 0.7131(3) 0.8930(5)
O2_4 O 0.6866(3) 0.7808(3) 0.9555(5)
O3_4 O 0.6571(3) 0.7104(3) 0.8178(6)
O4_4 O 0.6217(3) 0.7812(3) 0.8788(5)
Cl2_4 Cl 0.72579(19) 0.7960(2) 0.4732(3)
C1_4 C 0.6606(4) 0.7664(4) 0.9035(7)
C2_4 C 0.6806(5) 0.7258(4) 0.8675(8)
O5_4 O 0.7194(4) 0.7854(3) 0.6410(6)
O6_4 O 0.6869(3) 0.7189(3) 0.5799(6)
O7_4 O 0.6581(4) 0.7861(3) 0.7195(6)
O8_4 O 0.6257(4) 0.7141(3) 0.6587(5)
C3_4 C 0.6813(4) 0.7718(4) 0.6677(8)
C4_4 C 0.6621(5) 0.7313(4) 0.6336(8)
Fe3_4 Fe 0.44276(6) 0.66950(5) 0.95407(9)
Fe4_3 Fe 0.45435(6) 0.83500(5) 0.57276(9)
Fe5_4 Fe 0.58880(8) 0.74890(8) 0.76721(17)
Cl4_4 Cl 0.40800(12) 0.81084(11) 0.4787(2)
O9_4 O 0.4717(3) 0.7256(3) 0.9301(5)
O10_4 O 0.4841(3) 0.6557(3) 0.8608(5)
O11_4 O 0.5220(3) 0.7589(3) 0.8533(6)
O12_4 O 0.5428(3) 0.6840(3) 0.7932(6)
C5_4 C 0.5016(4) 0.7271(4) 0.8777(7)
C6_4 C 0.5116(4) 0.6853(4) 0.8394(7)
O13_7 O 0.3515(3) 0.5763(3) 0.8977(5)
O14_7 O 0.3248(3) 0.6441(2) 0.8265(5)
O15_4 O 0.4126(3) 0.6111(3) 0.9489(5)
O16_4 O 0.3851(3) 0.6789(3) 0.8797(5)
C7_7 C 0.3757(4) 0.6079(4) 0.9088(7)
C8_7 C 0.3611(4) 0.6472(4) 0.8687(7)
O17_4 O 0.4780(3) 0.7773(3) 0.5952(5)
O18_4 O 0.4973(3) 0.8472(3) 0.6621(5)
O19_4 O 0.5252(4) 0.7427(3) 0.6746(6)
O20_4 O 0.5514(3) 0.8156(3) 0.7348(5)
C9_4 C 0.5067(4) 0.7751(4) 0.6506(7)
C10_4 C 0.5202(4) 0.8158(3) 0.6851(7)
O22_4 O 0.7793(3) 0.7869(3) 0.8930(5)
O23_4 O 0.8134(3) 0.7192(3) 0.9555(5)
O24_4 O 0.8429(3) 0.7896(3) 0.8178(6)
O25_4 O 0.8783(3) 0.7188(3) 0.8788(5)
C11_4 C 0.8394(4) 0.7336(4) 0.9035(7)
C12_4 C 0.8194(5) 0.7742(4) 0.8675(8)
Fe6_4 Fe 0.91120(8) 0.75110(8) 0.76721(17)
O26_4 O 0.7806(4) 0.7146(3) 0.6410(6)
O27_4 O 0.8131(3) 0.7811(3) 0.5799(6)
O28_4 O 0.8419(4) 0.7139(3) 0.7195(6)
O29_4 O 0.8743(4) 0.7859(3) 0.6587(5)
C13_4 C 0.8187(4) 0.7282(4) 0.6677(8)
C14_4 C 0.8379(5) 0.7687(4) 0.6336(8)
O32_4 O 0.9780(3) 0.7411(3) 0.8533(6)
O33_4 O 0.9572(3) 0.8160(3) 0.7932(6)
C15_4 C 0.9984(4) 0.7729(4) 0.8777(7)
C16_4 C 0.9884(4) 0.8147(4) 0.8394(7)
O36_4 O 0.9748(4) 0.7573(3) 0.6746(6)
O37_4 O 0.9486(3) 0.6844(3) 0.7348(5)
C17_4 C 0.9933(4) 0.7249(4) 0.6506(7)
C18_4 C 0.9798(4) 0.6842(3) 0.6851(7)
Cl6_4 Cl 0.77421(19) 0.7040(2) 0.4732(3)
O38_3 O 0.3985(3) 0.8263(3) 0.6477(5)
O39_3 O 0.4252(3) 0.8941(2) 0.5765(5)
O40_5 O 0.3374(3) 0.8611(3) 0.6989(5)
O41_5 O 0.3649(3) 0.9289(3) 0.6297(5)
C19_5 C 0.3743(4) 0.8579(4) 0.6588(7)
C20_5 C 0.3889(4) 0.8972(4) 0.6187(7)
O42_4 O 0.5058(3) 0.8558(3) 0.5112(6)
O48_4 O 0.9942(3) 0.6442(3) 0.5112(6)
Fe12_5 Fe 0.55724(6) 0.83050(5) 0.45407(9)
Fe1_6 Fe 0.0000 0.0000 0.72526(14)
Fe2_6 Fe -0.0000 0.0000 0.31109(17)
O23_5 O 0.0634(3) 0.0308(3) 0.7055(5)
O25_5 O 0.1283(3) 0.0312(3) 0.6288(5)
C11_5 C 0.0894(4) 0.0164(4) 0.6535(7)
O26_5 O 0.0306(4) 0.0354(3) 0.3910(6)
O28_5 O 0.0919(4) 0.0361(3) 0.4695(6)
C13_5 C 0.0687(4) 0.0218(4) 0.4177(8)
O32_5 O 0.2280(3) 0.0089(3) 0.6033(6)
O34_5 O 0.2720(3) 0.0273(3) 0.3452(5)
O35_5 O 0.2527(3) 0.0972(3) 0.4121(5)
O37_5 O 0.1986(3) 0.0656(3) 0.4848(5)
C17_5 C 0.2433(4) 0.0251(4) 0.4006(7)
C18_5 C 0.2298(4) 0.0658(3) 0.4351(7)
Cl6_5 Cl 0.02421(19) 0.0460(2) 0.2232(3)
Cl8_4 Cl 0.34200(12) 0.06084(11) 0.2287(2)
Fe1_7 Fe 0.0000 1.0000 0.72526(14)
Fe2_7 Fe 0.0000 1.0000 0.31109(17)
Cl1_5 Cl 0.02569(16) 0.95319(13) 0.8107(2)
O22_5 O 0.0293(3) 0.9631(3) 0.6430(5)
O24_5 O 0.0929(3) 0.9604(3) 0.5678(6)
C12_5 C 0.0694(5) 0.9758(4) 0.6175(8)
Fe6_5 Fe 0.16120(8) 0.99890(8) 0.51721(17)
O27_5 O 0.0631(3) 0.9689(3) 0.3299(6)
O29_5 O 0.1243(4) 0.9641(3) 0.4087(5)
C14_5 C 0.0879(5) 0.9813(4) 0.3836(8)
O30_5 O 0.2783(3) 0.9756(3) 0.6801(5)
O31_5 O 0.2659(3) 0.9057(3) 0.6108(5)
O33_5 O 0.2072(3) 0.9340(3) 0.5432(6)
C15_5 C 0.2484(4) 0.9771(4) 0.6277(7)
C16_5 C 0.2384(4) 0.9353(4) 0.5894(7)
O36_5 O 0.2248(4) 0.9927(3) 0.4246(6)
Cl7_5 Cl 0.34961(12) 0.94652(11) 0.79853(19)
Fe1_8 Fe 1.0000 0.0000 0.72526(14)
Fe2_8 Fe 1.0000 0.0000 0.31109(17)
O1_5 O 0.9707(3) 0.0369(3) 0.6430(5)
O3_5 O 0.9071(3) 0.0396(3) 0.5678(6)
C2_5 C 0.9306(5) 0.0242(4) 0.6175(8)
O6_5 O 0.9369(3) 0.0311(3) 0.3299(6)
O8_5 O 0.8757(4) 0.0359(3) 0.4087(5)
C4_5 C 0.9121(5) 0.0187(4) 0.3836(8)
Fe5_5 Fe 0.83880(8) 0.00110(8) 0.51721(17)
Cl3_5 Cl 0.65039(12) 0.05348(11) 0.79853(19)
O9_5 O 0.7217(3) 0.0244(3) 0.6801(5)
O10_5 O 0.7341(3) 0.0943(3) 0.6108(5)
O12_5 O 0.7928(3) 0.0660(3) 0.5432(6)
C5_5 C 0.7516(4) 0.0229(4) 0.6277(7)
C6_5 C 0.7616(4) 0.0647(4) 0.5894(7)
O13_8 O 0.6015(3) 0.1737(3) 0.6477(5)
O14_8 O 0.5748(3) 0.1059(2) 0.5765(5)
O15_5 O 0.6626(3) 0.1389(3) 0.6989(5)
O16_5 O 0.6351(3) 0.0711(3) 0.6297(5)
C7_8 C 0.6257(4) 0.1421(4) 0.6588(7)
C8_8 C 0.6111(4) 0.1028(4) 0.6187(7)
O19_5 O 0.7752(4) 0.0073(3) 0.4246(6)
Cl5_5 Cl 0.97431(16) 0.04681(13) 0.8107(2)
Fe1_9 Fe 1.0000 1.0000 0.72526(14)
Fe2_9 Fe 1.0000 1.0000 0.31109(17)
O2_5 O 0.9366(3) 0.9692(3) 0.7055(5)
O4_5 O 0.8717(3) 0.9688(3) 0.6288(5)
Cl2_5 Cl 0.97579(19) 0.9540(2) 0.2232(3)
C1_5 C 0.9106(4) 0.9836(4) 0.6535(7)
O5_5 O 0.9694(4) 0.9646(3) 0.3910(6)
O7_5 O 0.9081(4) 0.9639(3) 0.4695(6)
C3_5 C 0.9313(4) 0.9782(4) 0.4177(8)
Cl4_5 Cl 0.65800(12) 0.93916(11) 0.2287(2)
O11_5 O 0.7720(3) 0.9911(3) 0.6033(6)
O17_5 O 0.7280(3) 0.9727(3) 0.3452(5)
O18_5 O 0.7473(3) 0.9028(3) 0.4121(5)
O20_5 O 0.8014(3) 0.9344(3) 0.4848(5)
C9_5 C 0.7567(4) 0.9749(4) 0.4006(7)
C10_5 C 0.7702(4) 0.9342(3) 0.4351(7)
O38_4 O 0.6485(3) 0.9237(3) 0.3977(5)
O39_4 O 0.6752(3) 0.8559(2) 0.3265(5)
O40_6 O 0.5874(3) 0.8889(3) 0.4489(5)
O41_6 O 0.6149(3) 0.8211(3) 0.3797(5)
C19_6 C 0.6243(4) 0.8921(4) 0.4088(7)
C20_6 C 0.6389(4) 0.8528(4) 0.3687(7)
Cl1_6 Cl 0.27569(16) 0.29681(13) 0.0607(2)
Cl5_6 Cl 0.22431(16) 0.20319(13) 0.0607(2)
Cl7_6 Cl 0.59961(12) 0.30348(11) 0.04853(19)
Fe1_10 Fe 0.2500 0.2500 0.97526(14)
Fe2_10 Fe 0.2500 0.2500 0.56109(17)
O1_6 O 0.2207(3) 0.2131(3) 0.8930(5)
O2_6 O 0.1866(3) 0.2808(3) 0.9555(5)
O3_6 O 0.1571(3) 0.2104(3) 0.8178(6)
O4_6 O 0.1217(3) 0.2812(3) 0.8788(5)
Cl2_6 Cl 0.22579(19) 0.2960(2) 0.4732(3)
C1_6 C 0.1606(4) 0.2664(4) 0.9035(7)
C2_6 C 0.1806(5) 0.2258(4) 0.8675(8)
O5_6 O 0.2194(4) 0.2854(3) 0.6410(6)
O6_6 O 0.1869(3) 0.2189(3) 0.5799(6)
O7_6 O 0.1581(4) 0.2861(3) 0.7195(6)
O8_6 O 0.1257(4) 0.2141(3) 0.6587(5)
C3_6 C 0.1813(4) 0.2718(4) 0.6677(8)
C4_6 C 0.1621(5) 0.2313(4) 0.6336(8)
Fe5_6 Fe 0.08880(8) 0.24890(8) 0.76721(17)
O11_6 O 0.0220(3) 0.2589(3) 0.8533(6)
O12_6 O 0.0428(3) 0.1840(3) 0.7932(6)
C5_6 C 0.0016(4) 0.2271(4) 0.8777(7)
C6_6 C 0.0116(4) 0.1853(4) 0.8394(7)
O19_6 O 0.0252(4) 0.2427(3) 0.6746(6)
O20_6 O 0.0514(3) 0.3156(3) 0.7348(5)
C9_6 C 0.0067(4) 0.2751(4) 0.6506(7)
C10_6 C 0.0202(4) 0.3158(3) 0.6851(7)
O22_6 O 0.2793(3) 0.2869(3) 0.8930(5)
O23_6 O 0.3134(3) 0.2192(3) 0.9555(5)
O24_6 O 0.3429(3) 0.2896(3) 0.8178(6)
O25_6 O 0.3783(3) 0.2188(3) 0.8788(5)
C11_6 C 0.3394(4) 0.2336(4) 0.9035(7)
C12_6 C 0.3194(5) 0.2742(4) 0.8675(8)
Fe6_6 Fe 0.41120(8) 0.25110(8) 0.76721(17)
O26_6 O 0.2806(4) 0.2146(3) 0.6410(6)
O27_6 O 0.3131(3) 0.2811(3) 0.5799(6)
O28_6 O 0.3419(4) 0.2139(3) 0.7195(6)
O29_6 O 0.3743(4) 0.2859(3) 0.6587(5)
C13_6 C 0.3187(4) 0.2282(4) 0.6677(8)
C14_6 C 0.3379(5) 0.2687(4) 0.6336(8)
O30_6 O 0.5283(3) 0.2744(3) 0.9301(5)
O31_6 O 0.5159(3) 0.3443(3) 0.8608(5)
O32_6 O 0.4780(3) 0.2411(3) 0.8533(6)
O33_6 O 0.4572(3) 0.3160(3) 0.7932(6)
C15_6 C 0.4984(4) 0.2729(4) 0.8777(7)
C16_6 C 0.4884(4) 0.3147(4) 0.8394(7)
O34_6 O 0.5220(3) 0.2227(3) 0.5952(5)
O35_6 O 0.5027(3) 0.1528(3) 0.6621(5)
O36_6 O 0.4748(4) 0.2573(3) 0.6746(6)
O37_6 O 0.4486(3) 0.1844(3) 0.7348(5)
C17_6 C 0.4933(4) 0.2249(4) 0.6506(7)
C18_6 C 0.4798(4) 0.1842(3) 0.6851(7)
Cl6_6 Cl 0.27421(19) 0.2040(2) 0.4732(3)
Cl8_5 Cl 0.59200(12) 0.18916(11) 0.4787(2)
O43_4 O 0.5874(3) 0.3889(3) 0.9489(5)
O44_4 O 0.6149(3) 0.3211(3) 0.8797(5)
Cl3_6 Cl 0.90039(12) 0.19652(11) 0.04853(19)
Cl4_6 Cl 0.90800(12) 0.31084(11) 0.4787(2)
O9_6 O 0.9717(3) 0.2256(3) 0.9301(5)
O10_6 O 0.9841(3) 0.1557(3) 0.8608(5)
O17_6 O 0.9780(3) 0.2773(3) 0.5952(5)
O18_6 O 0.9973(3) 0.3472(3) 0.6621(5)
O13_9 O 0.6485(3) 0.4237(3) 0.8977(5)
O14_9 O 0.6752(3) 0.3559(2) 0.8265(5)
C7_9 C 0.6243(4) 0.3921(4) 0.9088(7)
C8_9 C 0.6389(4) 0.3528(4) 0.8687(7)
Fe1_11 Fe 0.0000 0.5000 0.22526(14)
Cl1_7 Cl 0.02569(16) 0.45319(13) 0.3107(2)
O22_7 O 0.0293(3) 0.4631(3) 0.1430(5)
O23_7 O 0.0634(3) 0.5308(3) 0.2055(5)
O24_7 O 0.0929(3) 0.4604(3) 0.0678(6)
O25_7 O 0.1283(3) 0.5312(3) 0.1288(5)
C11_7 C 0.0894(4) 0.5164(4) 0.1535(7)
C12_7 C 0.0694(5) 0.4758(4) 0.1175(8)
Fe6_7 Fe 0.16120(8) 0.49890(8) 0.01721(17)
O30_7 O 0.2783(3) 0.4756(3) 0.1801(5)
O31_7 O 0.2659(3) 0.4057(3) 0.1108(5)
O32_7 O 0.2280(3) 0.5089(3) 0.1033(6)
O33_7 O 0.2072(3) 0.4340(3) 0.0432(6)
C15_7 C 0.2484(4) 0.4771(4) 0.1277(7)
C16_7 C 0.2384(4) 0.4353(4) 0.0894(7)
Cl7_7 Cl 0.34961(12) 0.44652(11) 0.29853(19)
Fe2_11 Fe 0.0000 0.5000 0.81109(17)
O26_7 O 0.0306(4) 0.5354(3) 0.8910(6)
O27_7 O 0.0631(3) 0.4689(3) 0.8299(6)
O28_7 O 0.0919(4) 0.5361(3) 0.9695(6)
O29_7 O 0.1243(4) 0.4641(3) 0.9087(5)
C13_7 C 0.0687(4) 0.5218(4) 0.9177(8)
C14_7 C 0.0879(5) 0.4813(4) 0.8836(8)
O34_7 O 0.2720(3) 0.5273(3) 0.8452(5)
O35_7 O 0.2527(3) 0.5972(3) 0.9121(5)
O36_7 O 0.2248(4) 0.4927(3) 0.9246(6)
O37_7 O 0.1986(3) 0.5656(3) 0.9848(5)
C17_7 C 0.2433(4) 0.5251(4) 0.9006(7)
C18_7 C 0.2298(4) 0.5658(3) 0.9351(7)
Cl6_7 Cl 0.02421(19) 0.5460(2) 0.7232(3)
Cl8_6 Cl 0.34200(12) 0.56084(11) 0.7287(2)
Fe1_12 Fe 1.0000 0.5000 0.22526(14)
O1_7 O 0.9707(3) 0.5369(3) 0.1430(5)
O2_7 O 0.9366(3) 0.4692(3) 0.2055(5)
O3_7 O 0.9071(3) 0.5396(3) 0.0678(6)
O4_7 O 0.8717(3) 0.4688(3) 0.1288(5)
C1_7 C 0.9106(4) 0.4836(4) 0.1535(7)
C2_7 C 0.9306(5) 0.5242(4) 0.1175(8)
Fe5_7 Fe 0.83880(8) 0.50110(8) 0.01721(17)
Cl3_7 Cl 0.65039(12) 0.55348(11) 0.29853(19)
O9_7 O 0.7217(3) 0.5244(3) 0.1801(5)
O10_7 O 0.7341(3) 0.5943(3) 0.1108(5)
O11_7 O 0.7720(3) 0.4911(3) 0.1033(6)
O12_7 O 0.7928(3) 0.5660(3) 0.0432(6)
C5_7 C 0.7516(4) 0.5229(4) 0.1277(7)
C6_7 C 0.7616(4) 0.5647(4) 0.0894(7)
O13_10 O 0.6015(3) 0.6737(3) 0.1477(5)
O14_10 O 0.5748(3) 0.6059(2) 0.0765(5)
O15_6 O 0.6626(3) 0.6389(3) 0.1989(5)
O16_6 O 0.6351(3) 0.5711(3) 0.1297(5)
C7_10 C 0.6257(4) 0.6421(4) 0.1588(7)
C8_10 C 0.6111(4) 0.6028(4) 0.1187(7)
Cl5_7 Cl 0.97431(16) 0.54681(13) 0.3107(2)
Fe2_12 Fe 1.0000 0.5000 0.81109(17)
Cl2_7 Cl 0.97579(19) 0.4540(2) 0.7232(3)
O5_7 O 0.9694(4) 0.4646(3) 0.8910(6)
O6_7 O 0.9369(3) 0.5311(3) 0.8299(6)
O7_7 O 0.9081(4) 0.4639(3) 0.9695(6)
O8_7 O 0.8757(4) 0.5359(3) 0.9087(5)
C3_7 C 0.9313(4) 0.4782(4) 0.9177(8)
C4_7 C 0.9121(5) 0.5187(4) 0.8836(8)
Cl4_7 Cl 0.65800(12) 0.43916(11) 0.7287(2)
O17_7 O 0.7280(3) 0.4727(3) 0.8452(5)
O18_7 O 0.7473(3) 0.4028(3) 0.9121(5)
O19_7 O 0.7752(4) 0.5073(3) 0.9246(6)
O20_7 O 0.8014(3) 0.4344(3) 0.9848(5)
C9_7 C 0.7567(4) 0.4749(4) 0.9006(7)
C10_7 C 0.7702(4) 0.4342(3) 0.9351(7)
Fe1_13 Fe 0.2500 0.7500 0.47526(14)
Fe2_13 Fe 0.2500 0.7500 0.06109(17)
O1_8 O 0.2207(3) 0.7131(3) 0.3930(5)
O2_8 O 0.1866(3) 0.7808(3) 0.4555(5)
O3_8 O 0.1571(3) 0.7104(3) 0.3178(6)
O4_8 O 0.1217(3) 0.7812(3) 0.3788(5)
Cl1_8 Cl 0.27569(16) 0.79681(13) 0.5607(2)
C1_8 C 0.1606(4) 0.7664(4) 0.4035(7)
C2_8 C 0.1806(5) 0.7258(4) 0.3675(8)
O5_8 O 0.2194(4) 0.7854(3) 0.1410(6)
O6_8 O 0.1869(3) 0.7189(3) 0.0799(6)
O7_8 O 0.1581(4) 0.7861(3) 0.2195(6)
O8_8 O 0.1257(4) 0.7141(3) 0.1587(5)
C3_8 C 0.1813(4) 0.7718(4) 0.1677(8)
C4_8 C 0.1621(5) 0.7313(4) 0.1336(8)
Fe5_8 Fe 0.08880(8) 0.74890(8) 0.26721(17)
O11_8 O 0.0220(3) 0.7589(3) 0.3533(6)
O12_8 O 0.0428(3) 0.6840(3) 0.2932(6)
C5_8 C 0.0016(4) 0.7271(4) 0.3777(7)
C6_8 C 0.0116(4) 0.6853(4) 0.3394(7)
O19_8 O 0.0252(4) 0.7427(3) 0.1746(6)
O20_8 O 0.0514(3) 0.8156(3) 0.2348(5)
C9_8 C 0.0067(4) 0.7751(4) 0.1506(7)
C10_8 C 0.0202(4) 0.8158(3) 0.1851(7)
O22_8 O 0.2793(3) 0.7869(3) 0.3930(5)
O23_8 O 0.3134(3) 0.7192(3) 0.4555(5)
O24_8 O 0.3429(3) 0.7896(3) 0.3178(6)
O25_8 O 0.3783(3) 0.7188(3) 0.3788(5)
C11_8 C 0.3394(4) 0.7336(4) 0.4035(7)
C12_8 C 0.3194(5) 0.7742(4) 0.3675(8)
Cl5_8 Cl 0.22431(16) 0.70319(13) 0.5607(2)
Fe6_8 Fe 0.41120(8) 0.75110(8) 0.26721(17)
O26_8 O 0.2806(4) 0.7146(3) 0.1410(6)
O27_8 O 0.3131(3) 0.7811(3) 0.0799(6)
O28_8 O 0.3419(4) 0.7139(3) 0.2195(6)
O29_8 O 0.3743(4) 0.7859(3) 0.1587(5)
C13_8 C 0.3187(4) 0.7282(4) 0.1677(8)
C14_8 C 0.3379(5) 0.7687(4) 0.1336(8)
O30_8 O 0.5283(3) 0.7744(3) 0.4301(5)
O31_8 O 0.5159(3) 0.8443(3) 0.3608(5)
O32_8 O 0.4780(3) 0.7411(3) 0.3533(6)
O33_8 O 0.4572(3) 0.8160(3) 0.2932(6)
C15_8 C 0.4984(4) 0.7729(4) 0.3777(7)
C16_8 C 0.4884(4) 0.8147(4) 0.3394(7)
O34_8 O 0.5220(3) 0.7227(3) 0.0952(5)
O35_8 O 0.5027(3) 0.6528(3) 0.1621(5)
O36_8 O 0.4748(4) 0.7573(3) 0.1746(6)
O37_8 O 0.4486(3) 0.6844(3) 0.2348(5)
C17_8 C 0.4933(4) 0.7249(4) 0.1506(7)
C18_8 C 0.4798(4) 0.6842(3) 0.1851(7)
Cl7_8 Cl 0.59961(12) 0.80348(11) 0.54853(19)
Cl2_8 Cl 0.22579(19) 0.7960(2) 0.9732(3)
Cl6_8 Cl 0.27421(19) 0.7040(2) 0.9732(3)
Cl8_7 Cl 0.59200(12) 0.68916(11) 0.9787(2)
Cl3_8 Cl 0.90039(12) 0.69652(11) 0.54853(19)
O9_8 O 0.9717(3) 0.7256(3) 0.4301(5)
O10_8 O 0.9841(3) 0.6557(3) 0.3608(5)
O17_8 O 0.9780(3) 0.7773(3) 0.0952(5)
O18_8 O 0.9973(3) 0.8472(3) 0.1621(5)
Cl8_8 Cl 0.09200(12) 0.18916(11) 0.9787(2)
Cl4_8 Cl 0.90800(12) 0.81084(11) 0.9787(2)
Fe13 Fe 0.50473(11) 0.84258(7) 0.01657(19)
O49 O 0.5653(4) 0.8822(3) 0.0228(8)
O50 O 0.4454(4) 0.7976(3) 0.0194(6)
O51 O 0.5008(5) 0.8360(4) 0.1284(7)
O52 O 0.4531(6) 0.8898(4) 0.0220(10)
O53 O 0.5556(4) 0.7908(3) 0.0087(7)
H1 H 0.495578 0.863698 0.151035
H2 H 0.47311 0.817336 0.141004
H4 H 0.419753 0.877584 0.0198428
H8 H 0.576472 0.789976 0.052795
H9 H 0.537022 0.76434 0.00458511
H10 H 0.595593 0.866137 0.012725
H17 H 0.430102 0.797723 0.0682874
O54 O 0.5032(6) 0.8381(4) 0.9044(7)
H3 H 0.457735 0.909125 0.980501
H11 H 0.561852 0.904824 0.986433
H18 H 0.420501 0.80511 0.982394
H19 H 0.534575 0.82617 0.886894
H20 H 0.475743 0.819763 0.889438
Fe13_2 Fe 0.49527(11) 0.15742(7) 0.01657(19)
O49_2 O 0.4347(4) 0.1178(3) 0.0228(8)
O50_2 O 0.5546(4) 0.2024(3) 0.0194(6)
O51_2 O 0.4992(5) 0.1640(4) 0.1284(7)
O52_2 O 0.5469(6) 0.1102(4) 0.0220(10)
O53_2 O 0.4444(4) 0.2092(3) 0.0087(7)
H1_2 H 0.504422 0.136302 0.151035
H2_2 H 0.52689 0.182664 0.141004
H4_2 H 0.580247 0.122416 0.0198428
H8_2 H 0.423528 0.210024 0.052795
H9_2 H 0.462978 0.23566 0.00458511
H10_2 H 0.404407 0.133863 0.012725
H17_2 H 0.569898 0.202277 0.0682874
O54_2 O 0.4968(6) 0.1619(4) 0.9044(7)
H3_2 H 0.542265 0.0908748 0.980501
H11_2 H 0.438148 0.0951759 0.986433
H18_2 H 0.579499 0.19489 0.982394
H19_2 H 0.465425 0.17383 0.886894
H20_2 H 0.524257 0.180237 0.889438
Fe13_3 Fe 0.75473(11) 0.40742(7) 0.26657(19)
O49_3 O 0.8153(4) 0.3678(3) 0.2728(8)
O50_3 O 0.6954(4) 0.4524(3) 0.2694(6)
O51_3 O 0.7508(5) 0.4140(4) 0.3784(7)
O52_3 O 0.7031(6) 0.3602(4) 0.2720(10)
O53_3 O 0.8056(4) 0.4592(3) 0.2587(7)
O54_3 O 0.7532(6) 0.4119(4) 0.1544(7)
H1_3 H 0.745578 0.386302 0.401035
H2_3 H 0.72311 0.432664 0.391004
H3_3 H 0.707735 0.340875 0.230501
H4_3 H 0.669753 0.372416 0.269843
H8_3 H 0.826472 0.460024 0.302795
H9_3 H 0.787022 0.48566 0.254585
H10_3 H 0.845593 0.383863 0.262725
H11_3 H 0.811852 0.345176 0.236433
H17_3 H 0.680102 0.452277 0.318287
H18_3 H 0.670501 0.44489 0.232394
H19_3 H 0.784575 0.42383 0.136894
H20_3 H 0.725743 0.430237 0.139438
Fe13_4 Fe 0.74527(11) 0.09258(7) 0.26657(19)
O49_4 O 0.6847(4) 0.1322(3) 0.2728(8)
O50_4 O 0.8046(4) 0.0476(3) 0.2694(6)
O51_4 O 0.7492(5) 0.0860(4) 0.3784(7)
O52_4 O 0.7969(6) 0.1398(4) 0.2720(10)
O53_4 O 0.6944(4) 0.0408(3) 0.2587(7)
O54_4 O 0.7468(6) 0.0881(4) 0.1544(7)
H1_4 H 0.754422 0.113698 0.401035
H2_4 H 0.77689 0.0673356 0.391004
H3_4 H 0.792265 0.159125 0.230501
H4_4 H 0.830247 0.127584 0.269843
H8_4 H 0.673528 0.0399763 0.302795
H9_4 H 0.712978 0.0143401 0.254585
H10_4 H 0.654407 0.116137 0.262725
H11_4 H 0.688148 0.154824 0.236433
H17_4 H 0.819898 0.0477229 0.318287
H18_4 H 0.829499 0.0551099 0.232394
H19_4 H 0.715425 0.0761701 0.136894
H20_4 H 0.774257 0.0697626 0.139438
Fe13_5 Fe 0.50473(11) 0.34258(7) 0.51657(19)
O49_5 O 0.5653(4) 0.3822(3) 0.5228(8)
O50_5 O 0.4454(4) 0.2976(3) 0.5194(6)
O51_5 O 0.5008(5) 0.3360(4) 0.6284(7)
O52_5 O 0.4531(6) 0.3898(4) 0.5220(10)
O53_5 O 0.5556(4) 0.2908(3) 0.5087(7)
O54_5 O 0.5032(6) 0.3381(4) 0.4044(7)
H1_5 H 0.495578 0.363698 0.651035
H2_5 H 0.47311 0.317336 0.641004
H3_5 H 0.457735 0.409125 0.480501
H4_5 H 0.419753 0.377584 0.519843
H8_5 H 0.576472 0.289976 0.552795
H9_5 H 0.537022 0.26434 0.504585
H10_5 H 0.595593 0.366137 0.512725
H11_5 H 0.561852 0.404824 0.486433
H17_5 H 0.430102 0.297723 0.568287
H18_5 H 0.420501 0.30511 0.482394
H19_5 H 0.534575 0.32617 0.386894
H20_5 H 0.475743 0.319763 0.389438
Fe13_6 Fe 0.49527(11) 0.65742(7) 0.51657(19)
O49_6 O 0.4347(4) 0.6178(3) 0.5228(8)
O50_6 O 0.5546(4) 0.7024(3) 0.5194(6)
O51_6 O 0.4992(5) 0.6640(4) 0.6284(7)
O52_6 O 0.5469(6) 0.6102(4) 0.5220(10)
O53_6 O 0.4444(4) 0.7092(3) 0.5087(7)
O54_6 O 0.4968(6) 0.6619(4) 0.4044(7)
H1_6 H 0.504422 0.636302 0.651035
H2_6 H 0.52689 0.682664 0.641004
H3_6 H 0.542265 0.590875 0.480501
H4_6 H 0.580247 0.622416 0.519843
H8_6 H 0.423528 0.710024 0.552795
H9_6 H 0.462978 0.73566 0.504585
H10_6 H 0.404407 0.633863 0.512725
H11_6 H 0.438148 0.595176 0.486433
H17_6 H 0.569898 0.702277 0.568287
H18_6 H 0.579499 0.69489 0.482394
H19_6 H 0.465425 0.67383 0.386894
H20_6 H 0.524257 0.680237 0.389438
Fe13_7 Fe 0.75473(11) 0.90742(7) 0.76657(19)
O49_7 O 0.8153(4) 0.8678(3) 0.7728(8)
O50_7 O 0.6954(4) 0.9524(3) 0.7694(6)
O51_7 O 0.7508(5) 0.9140(4) 0.8784(7)
O52_7 O 0.7031(6) 0.8602(4) 0.7720(10)
O53_7 O 0.8056(4) 0.9592(3) 0.7587(7)
O54_7 O 0.7532(6) 0.9119(4) 0.6544(7)
H1_7 H 0.745578 0.886302 0.901035
H2_7 H 0.72311 0.932664 0.891004
H3_7 H 0.707735 0.840875 0.730501
H4_7 H 0.669753 0.872416 0.769843
H8_7 H 0.826472 0.960024 0.802795
H9_7 H 0.787022 0.98566 0.754585
H10_7 H 0.845593 0.883863 0.762725
H11_7 H 0.811852 0.845176 0.736433
H17_7 H 0.680102 0.952277 0.818287
H18_7 H 0.670501 0.94489 0.732394
H19_7 H 0.784575 0.92383 0.636894
H20_7 H 0.725743 0.930237 0.639438
Fe13_8 Fe 0.74527(11) 0.59258(7) 0.76657(19)
O49_8 O 0.6847(4) 0.6322(3) 0.7728(8)
O50_8 O 0.8046(4) 0.5476(3) 0.7694(6)
O51_8 O 0.7492(5) 0.5860(4) 0.8784(7)
O52_8 O 0.7969(6) 0.6398(4) 0.7720(10)
O53_8 O 0.6944(4) 0.5408(3) 0.7587(7)
O54_8 O 0.7468(6) 0.5881(4) 0.6544(7)
H1_8 H 0.754422 0.613698 0.901035
H2_8 H 0.77689 0.567336 0.891004
H3_8 H 0.792265 0.659125 0.730501
H4_8 H 0.830247 0.627584 0.769843
H8_8 H 0.673528 0.539976 0.802795
H9_8 H 0.712978 0.51434 0.754585
H10_8 H 0.654407 0.616137 0.762725
H11_8 H 0.688148 0.654824 0.736433
H17_8 H 0.819898 0.547723 0.818287
H18_8 H 0.829499 0.55511 0.732394
H19_8 H 0.715425 0.57617 0.636894
H20_8 H 0.774257 0.569763 0.639438
Fe13_9 Fe 0.00473(11) 0.84258(7) 0.51657(19)
O49_9 O 0.0653(4) 0.8822(3) 0.5228(8)
O51_9 O 0.0008(5) 0.8360(4) 0.6284(7)
O53_9 O 0.0556(4) 0.7908(3) 0.5087(7)
O54_9 O 0.0032(6) 0.8381(4) 0.4044(7)
H8_9 H 0.076472 0.789976 0.552795
H9_9 H 0.037022 0.76434 0.504585
H10_9 H 0.0955926 0.866137 0.512725
H11_9 H 0.0618519 0.904824 0.486433
H19_9 H 0.0345747 0.82617 0.386894
O50_9 O 0.9454(4) 0.7976(3) 0.5194(6)
O52_9 O 0.9531(6) 0.8898(4) 0.5220(10)
H1_9 H 0.995578 0.863698 0.651035
H2_9 H 0.97311 0.817336 0.641004
H3_9 H 0.957735 0.909125 0.480501
H4_9 H 0.919753 0.877584 0.519843
H17_9 H 0.930102 0.797723 0.568287
H18_9 H 0.920501 0.80511 0.482394
H20_9 H 0.975743 0.819763 0.389438
O50_10 O 0.0546(4) 0.2024(3) 0.5194(6)
O52_10 O 0.0469(6) 0.1102(4) 0.5220(10)
H1_10 H 0.00442248 0.136302 0.651035
H2_10 H 0.0268898 0.182664 0.641004
H3_10 H 0.0422645 0.0908748 0.480501
H4_10 H 0.0802468 0.122416 0.519843
H17_10 H 0.0698977 0.202277 0.568287
H18_10 H 0.0794989 0.19489 0.482394
H20_10 H 0.0242574 0.180237 0.389438
Fe13_10 Fe 0.99527(11) 0.15742(7) 0.51657(19)
O49_10 O 0.9347(4) 0.1178(3) 0.5228(8)
O51_10 O 0.9992(5) 0.1640(4) 0.6284(7)
O53_10 O 0.9444(4) 0.2092(3) 0.5087(7)
O54_10 O 0.9968(6) 0.1619(4) 0.4044(7)
H8_10 H 0.923528 0.210024 0.552795
H9_10 H 0.962978 0.23566 0.504585
H10_10 H 0.904407 0.133863 0.512725
H11_10 H 0.938148 0.0951759 0.486433
H19_10 H 0.965425 0.17383 0.386894
Fe13_11 Fe 0.25473(11) 0.40742(7) 0.76657(19)
O49_11 O 0.3153(4) 0.3678(3) 0.7728(8)
O50_11 O 0.1954(4) 0.4524(3) 0.7694(6)
O51_11 O 0.2508(5) 0.4140(4) 0.8784(7)
O52_11 O 0.2031(6) 0.3602(4) 0.7720(10)
O53_11 O 0.3056(4) 0.4592(3) 0.7587(7)
O54_11 O 0.2532(6) 0.4119(4) 0.6544(7)
H1_11 H 0.245578 0.386302 0.901035
H2_11 H 0.22311 0.432664 0.891004
H3_11 H 0.207735 0.340875 0.730501
H4_11 H 0.169753 0.372416 0.769843
H8_11 H 0.326472 0.460024 0.802795
H9_11 H 0.287022 0.48566 0.754585
H10_11 H 0.345593 0.383863 0.762725
H11_11 H 0.311852 0.345176 0.736433
H17_11 H 0.180102 0.452277 0.818287
H18_11 H 0.170501 0.44489 0.732394
H19_11 H 0.284575 0.42383 0.636894
H20_11 H 0.225743 0.430237 0.639438
Fe13_12 Fe 0.24527(11) 0.09258(7) 0.76657(19)
O49_12 O 0.1847(4) 0.1322(3) 0.7728(8)
O50_12 O 0.3046(4) 0.0476(3) 0.7694(6)
O51_12 O 0.2492(5) 0.0860(4) 0.8784(7)
O52_12 O 0.2969(6) 0.1398(4) 0.7720(10)
O53_12 O 0.1944(4) 0.0408(3) 0.7587(7)
O54_12 O 0.2468(6) 0.0881(4) 0.6544(7)
H1_12 H 0.254422 0.113698 0.901035
H2_12 H 0.27689 0.0673356 0.891004
H3_12 H 0.292265 0.159125 0.730501
H4_12 H 0.330247 0.127584 0.769843
H8_12 H 0.173528 0.0399763 0.802795
H9_12 H 0.212978 0.0143401 0.754585
H10_12 H 0.154407 0.116137 0.762725
H11_12 H 0.188148 0.154824 0.736433
H17_12 H 0.319898 0.0477229 0.818287
H18_12 H 0.329499 0.0551099 0.732394
H19_12 H 0.215425 0.0761701 0.636894
H20_12 H 0.274257 0.0697626 0.639438
Fe13_13 Fe 0.00473(11) 0.34258(7) 0.01657(19)
O49_13 O 0.0653(4) 0.3822(3) 0.0228(8)
O51_13 O 0.0008(5) 0.3360(4) 0.1284(7)
O53_13 O 0.0556(4) 0.2908(3) 0.0087(7)
H8_13 H 0.076472 0.289976 0.052795
H9_13 H 0.037022 0.26434 0.00458511
H10_13 H 0.0955926 0.366137 0.012725
O54_13 O 0.0032(6) 0.3381(4) 0.9044(7)
H11_13 H 0.0618519 0.404824 0.986433
H19_13 H 0.0345747 0.32617 0.886894
O50_13 O 0.9454(4) 0.2976(3) 0.0194(6)
O52_13 O 0.9531(6) 0.3898(4) 0.0220(10)
H1_13 H 0.995578 0.363698 0.151035
H2_13 H 0.97311 0.317336 0.141004
H4_13 H 0.919753 0.377584 0.0198428
H17_13 H 0.930102 0.297723 0.0682874
H3_13 H 0.957735 0.409125 0.980501
H18_13 H 0.920501 0.30511 0.982394
H20_13 H 0.975743 0.319763 0.889438
O50_14 O 0.0546(4) 0.7024(3) 0.0194(6)
O52_14 O 0.0469(6) 0.6102(4) 0.0220(10)
H1_14 H 0.00442248 0.636302 0.151035
H2_14 H 0.0268898 0.682664 0.141004
H4_14 H 0.0802468 0.622416 0.0198428
H17_14 H 0.0698977 0.702277 0.0682874
H3_14 H 0.0422645 0.590875 0.980501
H18_14 H 0.0794989 0.69489 0.982394
H20_14 H 0.0242574 0.680237 0.889438
Fe13_14 Fe 0.99527(11) 0.65742(7) 0.01657(19)
O49_14 O 0.9347(4) 0.6178(3) 0.0228(8)
O51_14 O 0.9992(5) 0.6640(4) 0.1284(7)
O53_14 O 0.9444(4) 0.7092(3) 0.0087(7)
H8_14 H 0.923528 0.710024 0.052795
H9_14 H 0.962978 0.73566 0.00458511
H10_14 H 0.904407 0.633863 0.012725
O54_14 O 0.9968(6) 0.6619(4) 0.9044(7)
H11_14 H 0.938148 0.595176 0.986433
H19_14 H 0.965425 0.67383 0.886894
Fe13_15 Fe 0.25473(11) 0.90742(7) 0.26657(19)
O49_15 O 0.3153(4) 0.8678(3) 0.2728(8)
O50_15 O 0.1954(4) 0.9524(3) 0.2694(6)
O51_15 O 0.2508(5) 0.9140(4) 0.3784(7)
O52_15 O 0.2031(6) 0.8602(4) 0.2720(10)
O53_15 O 0.3056(4) 0.9592(3) 0.2587(7)
O54_15 O 0.2532(6) 0.9119(4) 0.1544(7)
H1_15 H 0.245578 0.886302 0.401035
H2_15 H 0.22311 0.932664 0.391004
H3_15 H 0.207735 0.840875 0.230501
H4_15 H 0.169753 0.872416 0.269843
H8_15 H 0.326472 0.960024 0.302795
H9_15 H 0.287022 0.98566 0.254585
H10_15 H 0.345593 0.883863 0.262725
H11_15 H 0.311852 0.845176 0.236433
H17_15 H 0.180102 0.952277 0.318287
H18_15 H 0.170501 0.94489 0.232394
H19_15 H 0.284575 0.92383 0.136894
H20_15 H 0.225743 0.930237 0.139438
Fe13_16 Fe 0.24527(11) 0.59258(7) 0.26657(19)
O49_16 O 0.1847(4) 0.6322(3) 0.2728(8)
O50_16 O 0.3046(4) 0.5476(3) 0.2694(6)
O51_16 O 0.2492(5) 0.5860(4) 0.3784(7)
O52_16 O 0.2969(6) 0.6398(4) 0.2720(10)
O53_16 O 0.1944(4) 0.5408(3) 0.2587(7)
O54_16 O 0.2468(6) 0.5881(4) 0.1544(7)
H1_16 H 0.254422 0.613698 0.401035
H2_16 H 0.27689 0.567336 0.391004
H3_16 H 0.292265 0.659125 0.230501
H4_16 H 0.330247 0.627584 0.269843
H8_16 H 0.173528 0.539976 0.302795
H9_16 H 0.212978 0.51434 0.254585
H10_16 H 0.154407 0.616137 0.262725
H11_16 H 0.188148 0.654824 0.236433
H17_16 H 0.319898 0.547723 0.318287
H18_16 H 0.329499 0.55511 0.232394
H19_16 H 0.215425 0.57617 0.136894
H20_16 H 0.274257 0.569763 0.139438
N1 N 0.6539(8) 0.8317(6) 0.1679(10)
C21 C 0.6212(15) 0.7686(7) 0.2130(19)
C22 C 0.6374(11) 0.7915(10) 0.1545(12)
H5 H 0.682609 0.830681 0.202807
H6 H 0.66469 0.845019 0.120576
H7 H 0.62645 0.848755 0.190101
H12 H 0.590536 0.784561 0.238504
H13 H 0.609472 0.737971 0.194592
H14 H 0.65079 0.76517 0.252136
H15 H 0.667457 0.774352 0.129761
H16 H 0.607204 0.793743 0.116129
N1_2 N 0.3461(8) 0.1683(6) 0.1679(10)
C21_2 C 0.3788(15) 0.2314(7) 0.2130(19)
C22_2 C 0.3626(11) 0.2085(10) 0.1545(12)
H5_2 H 0.317391 0.169319 0.202807
H6_2 H 0.33531 0.154981 0.120576
H7_2 H 0.37355 0.151245 0.190101
H12_2 H 0.409464 0.215439 0.238504
H13_2 H 0.390528 0.262029 0.194592
H14_2 H 0.34921 0.23483 0.252136
H15_2 H 0.332543 0.225648 0.129761
H16_2 H 0.392796 0.206257 0.116129
N1_3 N 0.9039(8) 0.4183(6) 0.4179(10)
C21_3 C 0.8712(15) 0.4814(7) 0.4630(19)
C22_3 C 0.8874(11) 0.4585(10) 0.4045(12)
H5_3 H 0.932609 0.419319 0.452807
H6_3 H 0.91469 0.404981 0.370576
H7_3 H 0.87645 0.401245 0.440101
H12_3 H 0.840536 0.465439 0.488504
H13_3 H 0.859472 0.512029 0.444592
H14_3 H 0.90079 0.48483 0.502136
H15_3 H 0.917457 0.475648 0.379761
H16_3 H 0.857204 0.456257 0.366129
N1_4 N 0.5961(8) 0.0817(6) 0.4179(10)
C21_4 C 0.6288(15) 0.0186(7) 0.4630(19)
C22_4 C 0.6126(11) 0.0415(10) 0.4045(12)
H5_4 H 0.567391 0.0806812 0.452807
H6_4 H 0.58531 0.0950192 0.370576
H7_4 H 0.62355 0.0987547 0.440101
H12_4 H 0.659464 0.0345613 0.488504
H14_4 H 0.59921 0.0151701 0.502136
H15_4 H 0.582543 0.0243521 0.379761
H16_4 H 0.642796 0.0437433 0.366129
H13_4 H 0.640528 0.987971 0.444592
N1_5 N 0.6539(8) 0.3317(6) 0.6679(10)
C21_5 C 0.6212(15) 0.2686(7) 0.7130(19)
C22_5 C 0.6374(11) 0.2915(10) 0.6545(12)
H5_5 H 0.682609 0.330681 0.702807
H6_5 H 0.66469 0.345019 0.620576
H7_5 H 0.62645 0.348755 0.690101
H12_5 H 0.590536 0.284561 0.738504
H13_5 H 0.609472 0.237971 0.694592
H14_5 H 0.65079 0.26517 0.752136
H15_5 H 0.667457 0.274352 0.629761
H16_5 H 0.607204 0.293743 0.616129
N1_6 N 0.3461(8) 0.6683(6) 0.6679(10)
C21_6 C 0.3788(15) 0.7314(7) 0.7130(19)
C22_6 C 0.3626(11) 0.7085(10) 0.6545(12)
H5_6 H 0.317391 0.669319 0.702807
H6_6 H 0.33531 0.654981 0.620576
H7_6 H 0.37355 0.651245 0.690101
H12_6 H 0.409464 0.715439 0.738504
H13_6 H 0.390528 0.762029 0.694592
H14_6 H 0.34921 0.73483 0.752136
H15_6 H 0.332543 0.725648 0.629761
H16_6 H 0.392796 0.706257 0.616129
H13_7 H 0.859472 0.0120289 0.944592
H14_7 H 0.90079 0.98483 0.00213603
N1_7 N 0.9039(8) 0.9183(6) 0.9179(10)
C21_7 C 0.8712(15) 0.9814(7) 0.9630(19)
C22_7 C 0.8874(11) 0.9585(10) 0.9045(12)
H5_7 H 0.932609 0.919319 0.952807
H6_7 H 0.91469 0.904981 0.870576
H7_7 H 0.87645 0.901245 0.940101
H12_7 H 0.840536 0.965439 0.988504
H15_7 H 0.917457 0.975648 0.879761
H16_7 H 0.857204 0.956257 0.866129
H14_8 H 0.59921 0.51517 0.00213603
N1_8 N 0.5961(8) 0.5817(6) 0.9179(10)
C21_8 C 0.6288(15) 0.5186(7) 0.9630(19)
C22_8 C 0.6126(11) 0.5415(10) 0.9045(12)
H5_8 H 0.567391 0.580681 0.952807
H6_8 H 0.58531 0.595019 0.870576
H7_8 H 0.62355 0.598755 0.940101
H12_8 H 0.659464 0.534561 0.988504
H13_8 H 0.640528 0.487971 0.944592
H15_8 H 0.582543 0.524352 0.879761
H16_8 H 0.642796 0.543743 0.866129
N1_9 N 0.1539(8) 0.8317(6) 0.6679(10)
C21_9 C 0.1212(15) 0.7686(7) 0.7130(19)
C22_9 C 0.1374(11) 0.7915(10) 0.6545(12)
H5_9 H 0.182609 0.830681 0.702807
H6_9 H 0.16469 0.845019 0.620576
H7_9 H 0.12645 0.848755 0.690101
H12_9 H 0.0905362 0.784561 0.738504
H13_9 H 0.109472 0.737971 0.694592
H14_9 H 0.15079 0.76517 0.752136
H15_9 H 0.167457 0.774352 0.629761
H16_9 H 0.107204 0.793743 0.616129
N1_10 N 0.8461(8) 0.1683(6) 0.6679(10)
C21_10 C 0.8788(15) 0.2314(7) 0.7130(19)
C22_10 C 0.8626(11) 0.2085(10) 0.6545(12)
H5_10 H 0.817391 0.169319 0.702807
H6_10 H 0.83531 0.154981 0.620576
H7_10 H 0.87355 0.151245 0.690101
H12_10 H 0.909464 0.215439 0.738504
H13_10 H 0.890528 0.262029 0.694592
H14_10 H 0.84921 0.23483 0.752136
H15_10 H 0.832543 0.225648 0.629761
H16_10 H 0.892796 0.206257 0.616129
H14_11 H 0.40079 0.48483 0.00213603
N1_11 N 0.4039(8) 0.4183(6) 0.9179(10)
C21_11 C 0.3712(15) 0.4814(7) 0.9630(19)
C22_11 C 0.3874(11) 0.4585(10) 0.9045(12)
H5_11 H 0.432609 0.419319 0.952807
H6_11 H 0.41469 0.404981 0.870576
H7_11 H 0.37645 0.401245 0.940101
H12_11 H 0.340536 0.465439 0.988504
H13_11 H 0.359472 0.512029 0.944592
H15_11 H 0.417457 0.475648 0.879761
H16_11 H 0.357204 0.456257 0.866129
H14_12 H 0.0992103 0.0151701 0.00213603
N1_12 N 0.0961(8) 0.0817(6) 0.9179(10)
C21_12 C 0.1288(15) 0.0186(7) 0.9630(19)
C22_12 C 0.1126(11) 0.0415(10) 0.9045(12)
H5_12 H 0.067391 0.0806812 0.952807
H6_12 H 0.0853101 0.0950192 0.870576
H7_12 H 0.12355 0.0987547 0.940101
H12_12 H 0.159464 0.0345613 0.988504
H15_12 H 0.0825425 0.0243521 0.879761
H16_12 H 0.142796 0.0437433 0.866129
H13_12 H 0.140528 0.987971 0.944592
N1_13 N 0.1539(8) 0.3317(6) 0.1679(10)
C21_13 C 0.1212(15) 0.2686(7) 0.2130(19)
C22_13 C 0.1374(11) 0.2915(10) 0.1545(12)
H5_13 H 0.182609 0.330681 0.202807
H6_13 H 0.16469 0.345019 0.120576
H7_13 H 0.12645 0.348755 0.190101
H12_13 H 0.0905362 0.284561 0.238504
H13_13 H 0.109472 0.237971 0.194592
H14_13 H 0.15079 0.26517 0.252136
H15_13 H 0.167457 0.274352 0.129761
H16_13 H 0.107204 0.293743 0.116129
N1_14 N 0.8461(8) 0.6683(6) 0.1679(10)
C21_14 C 0.8788(15) 0.7314(7) 0.2130(19)
C22_14 C 0.8626(11) 0.7085(10) 0.1545(12)
H5_14 H 0.817391 0.669319 0.202807
H6_14 H 0.83531 0.654981 0.120576
H7_14 H 0.87355 0.651245 0.190101
H12_14 H 0.909464 0.715439 0.238504
H13_14 H 0.890528 0.762029 0.194592
H14_14 H 0.84921 0.73483 0.252136
H15_14 H 0.832543 0.725648 0.129761
H16_14 H 0.892796 0.706257 0.116129
H13_15 H 0.359472 0.0120289 0.444592
N1_15 N 0.4039(8) 0.9183(6) 0.4179(10)
C21_15 C 0.3712(15) 0.9814(7) 0.4630(19)
C22_15 C 0.3874(11) 0.9585(10) 0.4045(12)
H5_15 H 0.432609 0.919319 0.452807
H6_15 H 0.41469 0.904981 0.370576
H7_15 H 0.37645 0.901245 0.440101
H12_15 H 0.340536 0.965439 0.488504
H14_15 H 0.40079 0.98483 0.502136
H15_15 H 0.417457 0.975648 0.379761
H16_15 H 0.357204 0.956257 0.366129
N1_16 N 0.0961(8) 0.5817(6) 0.4179(10)
C21_16 C 0.1288(15) 0.5186(7) 0.4630(19)
C22_16 C 0.1126(11) 0.5415(10) 0.4045(12)
H5_16 H 0.067391 0.580681 0.452807
H6_16 H 0.0853101 0.595019 0.370576
H7_16 H 0.12355 0.598755 0.440101
H12_16 H 0.159464 0.534561 0.488504
H13_16 H 0.140528 0.487971 0.444592
H14_16 H 0.0992103 0.51517 0.502136
H15_16 H 0.0825425 0.524352 0.379761
H16_16 H 0.142796 0.543743 0.366129
loop_
_geom_bond_atom_site_label_1
_geom_bond_atom_site_label_2
_geom_bond_site_symmetry_1
_geom_bond_site_symmetry_2
Fe1 O1 1_555 1_555
O1 C2 1_555 1_555
O3 C2 1_555 1_555
Fe3 Cl3 1_555 1_555
Fe5 O3 1_555 1_555
O9 Fe3 1_555 1_555
O10 Fe3 1_555 1_555
O12 Fe5 1_555 1_555
C5 O9 1_555 1_555
C6 O10 1_555 1_555
O13 C7 1_555 1_555
O14 C8 1_555 1_555
O15 Fe3 1_555 1_555
O16 Fe3 1_555 1_555
C7 O15 1_555 1_555
C8 O16 1_555 1_555
O21 Fe3 1_555 1_555
O23 Fe1 1_555 1_555
O25 C11 1_555 1_555
C11 O23 1_555 1_555
Cl5 Fe1 1_555 1_555
Fe9 O13 1_555 1_555
Fe10 O21 1_555 1_555
O12 C6 1_555 1_555
C5 C6 1_555 1_555
O14 Fe9 1_555 1_555
C7 C8 1_555 1_555
O6 Fe2 1_555 1_555
O8 C4 1_555 1_555
C4 O6 1_555 1_555
O26 Fe2 1_555 1_555
C13 O26 1_555 1_555
O34 C17 1_555 1_555
O35 C18 1_555 1_555
C18 O37 1_555 1_555
Fe8 O34 1_555 1_555
Cl6 Fe2 1_555 1_555
Cl8 Fe8 1_555 1_555
O46 Fe8 1_555 1_555
O47 Fe8 1_555 1_555
O48 Fe8 1_555 1_555
O28 C13 1_555 1_555
O35 Fe8 1_555 1_555
C17 C18 1_555 1_555
O2 Fe1_2 1_555 1_555
O4 C1 1_555 1_555
Cl1 Fe1_2 1_555 1_555
C1 O2 1_555 1_555
O22 Fe1_2 1_555 1_555
O24 C12 1_555 1_555
C12 O22 1_555 1_555
Fe6 O24 1_555 1_555
O30 C15 1_555 1_555
O31 C16 1_555 1_555
O33 Fe6 1_555 1_555
C16 O33 1_555 1_555
Fe7 O30 1_555 1_555
Cl7 Fe7 1_555 1_555
O43 Fe7 1_555 1_555
O44 Fe7 1_555 1_555
O45 Fe7 1_555 1_555
O31 Fe7 1_555 1_555
C15 C16 1_555 1_555
Fe2_2 Cl2 1_555 1_555
O5 Fe2_2 1_555 1_555
O7 C3 1_555 1_555
C3 O5 1_555 1_555
Fe4 Cl4 1_555 1_555
O17 Fe4 1_555 1_555
O18 Fe4 1_555 1_555
C9 O17 1_555 1_555
C10 O18 1_555 1_555
O27 Fe2_2 1_555 1_555
C14 O27 1_555 1_555
O38 Fe4 1_555 1_555
O39 Fe4 1_555 1_555
O40 C19 1_555 1_555
O41 C20 1_555 1_555
C19 O38 1_555 1_555
C20 O39 1_555 1_555
O42 Fe4 1_555 1_555
Fe11 O40 1_555 1_555
Fe12 O42 1_555 1_555
O20 C10 1_555 1_555
C9 C10 1_555 1_555
O29 C14 1_555 1_555
O41 Fe11 1_555 1_555
C19 C20 1_555 1_555
O40_2 C19_2 1_555 1_555
O41_2 C20_2 1_555 1_555
C19_2 O46 1_555 1_555
C20_2 O47 1_555 1_555
Fe11_2 O40_2 1_555 1_555
Fe12_2 O48 1_555 1_555
O41_2 Fe11_2 1_555 1_555
C19_2 C20_2 1_555 1_555
O13_2 C7_2 1_555 1_555
O14_2 C8_2 1_555 1_555
C7_2 O43 1_555 1_555
C8_2 O44 1_555 1_555
Fe9_2 O13_2 1_555 1_555
Fe10_2 O45 1_555 1_555
O14_2 Fe9_2 1_555 1_555
C7_2 C8_2 1_555 1_555
Fe7_2 O30_2 1_555 1_555
Fe9 O34_2 1_555 1_555
Cl7_2 Fe7_2 1_555 1_555
O43_2 Fe7_2 1_555 1_555
O44_2 Fe7_2 1_555 1_555
O45_2 Fe7_2 1_555 1_555
O31_2 Fe7_2 1_555 1_555
O35_2 Fe9 1_555 1_555
Fe1_3 O1_2 1_555 1_555
O1_2 C2_2 1_555 1_555
O2_2 Fe1_3 1_555 1_555
O3_2 C2_2 1_555 1_555
O4_2 C1_2 1_555 1_555
Cl1_2 Fe1_3 1_555 1_555
C1_2 O2_2 1_555 1_555
C2_2 C1_2 1_555 1_555
O5_2 Fe2_3 1_555 1_555
O6_2 Fe2_3 1_555 1_555
O7_2 C3_2 1_555 1_555
O8_2 C4_2 1_555 1_555
C3_2 O5_2 1_555 1_555
C4_2 O6_2 1_555 1_555
Fe3_2 Cl3_2 1_555 1_555
Fe5_2 O3_2 1_555 1_555
O9_2 Fe3_2 1_555 1_555
O10_2 Fe3_2 1_555 1_555
O11_2 Fe5_2 1_555 1_555
O12_2 Fe5_2 1_555 1_555
C5_2 O9_2 1_555 1_555
C6_2 O10_2 1_555 1_555
O13_3 C7_3 1_555 1_555
O14_3 C8_3 1_555 1_555
O15_2 Fe3_2 1_555 1_555
O16_2 Fe3_2 1_555 1_555
C7_3 O15_2 1_555 1_555
C8_3 O16_2 1_555 1_555
O17_2 Fe4_2 1_555 1_555
O18_2 Fe4_2 1_555 1_555
O19_2 Fe5_2 1_555 1_555
O20_2 Fe5_2 1_555 1_555
C9_2 O17_2 1_555 1_555
C10_2 O18_2 1_555 1_555
O21_2 Fe3_2 1_555 1_555
O22_2 Fe1_3 1_555 1_555
O23_2 Fe1_3 1_555 1_555
O24_2 C12_2 1_555 1_555
O25_2 C11_2 1_555 1_555
C11_2 O23_2 1_555 1_555
C12_2 O22_2 1_555 1_555
Cl5_2 Fe1_3 1_555 1_555
Fe6_2 O24_2 1_555 1_555
O26_2 Fe2_3 1_555 1_555
O27_2 Fe2_3 1_555 1_555
O28_2 Fe6_2 1_555 1_555
O29_2 Fe6_2 1_555 1_555
C13_2 O26_2 1_555 1_555
C14_2 O27_2 1_555 1_555
O32_2 Fe6_2 1_555 1_555
O33_2 Fe6_2 1_555 1_555
C15_2 O32_2 1_555 1_555
C16_2 O33_2 1_555 1_555
O36_2 Fe6_2 1_555 1_555
O37_2 Fe6_2 1_555 1_555
C17_2 O36_2 1_555 1_555
C18_2 O37_2 1_555 1_555
O38_2 Fe4_2 1_555 1_555
O39_2 Fe4_2 1_555 1_555
O40_3 C19_3 1_555 1_555
O41_3 C20_3 1_555 1_555
C19_3 O38_2 1_555 1_555
C20_3 O39_2 1_555 1_555
O42_2 Fe4_2 1_555 1_555
Fe10 O13_3 1_555 1_555
Fe10_3 O21_2 1_555 1_555
Fe11_3 O40_3 1_555 1_555
O4_2 Fe5_2 1_555 1_555
O7_2 Fe5_2 1_555 1_555
O8_2 Fe5_2 1_555 1_555
C3_2 C4_2 1_555 1_555
O11_2 C5_2 1_555 1_555
O12_2 C6_2 1_555 1_555
C5_2 C6_2 1_555 1_555
O14_3 Fe10 1_555 1_555
C7_3 C8_3 1_555 1_555
O19_2 C9_2 1_555 1_555
O20_2 C10_2 1_555 1_555
C9_2 C10_2 1_555 1_555
O25_2 Fe6_2 1_555 1_555
C11_2 C12_2 1_555 1_555
O28_2 C13_2 1_555 1_555
O29_2 C14_2 1_555 1_555
C13_2 C14_2 1_555 1_555
C15_2 C16_2 1_555 1_555
C17_2 C18_2 1_555 1_555
O41_3 Fe11_3 1_555 1_555
C19_3 C20_3 1_555 1_555
O13_4 C7_4 1_555 1_555
O14_4 C8_4 1_555 1_555
C7_4 O43_2 1_555 1_555
C8_4 O44_2 1_555 1_555
Fe9_3 O13_4 1_555 1_555
O14_4 Fe9_3 1_555 1_555
C7_4 C8_4 1_555 1_555
Fe1_4 O1_3 1_555 1_555
Fe2_4 Cl2_3 1_555 1_555
O1_3 C2_3 1_555 1_555
O2_3 Fe1_4 1_555 1_555
O3_3 C2_3 1_555 1_555
O4_3 C1_3 1_555 1_555
Cl1_3 Fe1_4 1_555 1_555
C1_3 O2_3 1_555 1_555
C2_3 C1_3 1_555 1_555
O5_3 Fe2_4 1_555 1_555
O6_3 Fe2_4 1_555 1_555
O7_3 C3_3 1_555 1_555
O8_3 C4_3 1_555 1_555
C3_3 O5_3 1_555 1_555
C4_3 O6_3 1_555 1_555
Fe3_3 Cl3_3 1_555 1_555
Fe9_3 Cl4_3 1_555 1_555
Fe5_3 O3_3 1_555 1_555
O9_3 Fe3_3 1_555 1_555
O10_3 Fe3_3 1_555 1_555
O11_3 Fe5_3 1_555 1_555
O12_3 Fe5_3 1_555 1_555
C5_3 O9_3 1_555 1_555
C6_3 O10_3 1_555 1_555
O13_5 C7_5 1_555 1_555
O14_5 C8_5 1_555 1_555
O15_3 Fe3_3 1_555 1_555
O16_3 Fe3_3 1_555 1_555
C7_5 O15_3 1_555 1_555
C8_5 O16_3 1_555 1_555
O17_3 Fe9_3 1_555 1_555
O18_3 Fe9_3 1_555 1_555
O19_3 Fe5_3 1_555 1_555
O20_3 Fe5_3 1_555 1_555
C9_3 O17_3 1_555 1_555
C10_3 O18_3 1_555 1_555
O21_3 Fe3_3 1_555 1_555
O22_3 Fe1_4 1_555 1_555
O23_3 Fe1_4 1_555 1_555
O24_3 C12_3 1_555 1_555
O25_3 C11_3 1_555 1_555
C11_3 O23_3 1_555 1_555
C12_3 O22_3 1_555 1_555
Cl5_3 Fe1_4 1_555 1_555
Fe6_3 O24_3 1_555 1_555
O26_3 Fe2_4 1_555 1_555
O27_3 Fe2_4 1_555 1_555
O28_3 Fe6_3 1_555 1_555
O29_3 Fe6_3 1_555 1_555
C13_3 O26_3 1_555 1_555
C14_3 O27_3 1_555 1_555
O30_3 C15_3 1_555 1_555
O31_3 C16_3 1_555 1_555
O32_3 Fe6_3 1_555 1_555
O33_3 Fe6_3 1_555 1_555
C15_3 O32_3 1_555 1_555
C16_3 O33_3 1_555 1_555
O34_3 C17_3 1_555 1_555
O35_3 C18_3 1_555 1_555
O36_3 Fe6_3 1_555 1_555
O37_3 Fe6_3 1_555 1_555
C17_3 O36_3 1_555 1_555
C18_3 O37_3 1_555 1_555
Fe7_3 O30_3 1_555 1_555
Fe8_2 O34_3 1_555 1_555
Cl6_3 Fe2_4 1_555 1_555
O42_3 Fe9_3 1_555 1_555
Cl7_3 Fe7_3 1_555 1_555
Cl8_2 Fe8_2 1_555 1_555
Fe9_4 O13_5 1_555 1_555
Fe10_5 O21_3 1_555 1_555
O43_3 Fe7_3 1_555 1_555
O44_3 Fe7_3 1_555 1_555
O45_3 Fe7_3 1_555 1_555
O46_2 Fe8_2 1_555 1_555
O47_2 Fe8_2 1_555 1_555
O48_3 Fe8_2 1_555 1_555
Fe11_3 O42_3 1_555 1_555
O4_3 Fe5_3 1_555 1_555
O7_3 Fe5_3 1_555 1_555
O8_3 Fe5_3 1_555 1_555
C3_3 C4_3 1_555 1_555
O11_3 C5_3 1_555 1_555
O12_3 C6_3 1_555 1_555
C5_3 C6_3 1_555 1_555
O14_5 Fe9_4 1_555 1_555
C7_5 C8_5 1_555 1_555
O19_3 C9_3 1_555 1_555
O20_3 C10_3 1_555 1_555
C9_3 C10_3 1_555 1_555
O25_3 Fe6_3 1_555 1_555
C11_3 C12_3 1_555 1_555
O28_3 C13_3 1_555 1_555
O29_3 C14_3 1_555 1_555
C13_3 C14_3 1_555 1_555
O31_3 Fe7_3 1_555 1_555
C15_3 C16_3 1_555 1_555
O35_3 Fe8_2 1_555 1_555
C17_3 C18_3 1_555 1_555
O13_6 C7_6 1_555 1_555
O14_6 C8_6 1_555 1_555
C7_6 O43_3 1_555 1_555
C8_6 O44_3 1_555 1_555
O40_4 C19_4 1_555 1_555
O41_4 C20_4 1_555 1_555
C19_4 O46_2 1_555 1_555
C20_4 O47_2 1_555 1_555
Fe10_4 O13_6 1_555 1_555
Fe10_6 O45_3 1_555 1_555
Fe11_4 O40_4 1_555 1_555
Fe12_4 O48_3 1_555 1_555
O14_6 Fe10_4 1_555 1_555
C7_6 C8_6 1_555 1_555
O41_4 Fe11_4 1_555 1_555
C19_4 C20_4 1_555 1_555
Fe11 O30_4 1_555 1_555
Fe9_4 O34_4 1_555 1_555
Cl8_3 Fe9_4 1_555 1_555
O31_4 Fe11 1_555 1_555
O35_4 Fe9_4 1_555 1_555
Fe10_7 O21_4 1_555 1_555
Fe1_5 O1_4 1_555 1_555
Fe2_5 Cl2_4 1_555 1_555
O1_4 C2_4 1_555 1_555
O2_4 Fe1_5 1_555 1_555
O3_4 C2_4 1_555 1_555
O4_4 C1_4 1_555 1_555
C1_4 O2_4 1_555 1_555
C2_4 C1_4 1_555 1_555
O5_4 Fe2_5 1_555 1_555
O6_4 Fe2_5 1_555 1_555
O7_4 C3_4 1_555 1_555
O8_4 C4_4 1_555 1_555
C3_4 O5_4 1_555 1_555
C4_4 O6_4 1_555 1_555
Fe4_3 Cl4_4 1_555 1_555
Fe5_4 O3_4 1_555 1_555
O9_4 Fe3_4 1_555 1_555
O10_4 Fe3_4 1_555 1_555
O11_4 Fe5_4 1_555 1_555
O12_4 Fe5_4 1_555 1_555
C5_4 O9_4 1_555 1_555
C6_4 O10_4 1_555 1_555
O13_7 C7_7 1_555 1_555
O14_7 C8_7 1_555 1_555
O15_4 Fe3_4 1_555 1_555
O16_4 Fe3_4 1_555 1_555
C7_7 O15_4 1_555 1_555
C8_7 O16_4 1_555 1_555
O17_4 Fe4_3 1_555 1_555
O18_4 Fe4_3 1_555 1_555
O19_4 Fe5_4 1_555 1_555
O20_4 Fe5_4 1_555 1_555
C9_4 O17_4 1_555 1_555
C10_4 O18_4 1_555 1_555
O22_4 Fe1_5 1_555 1_555
O23_4 Fe1_5 1_555 1_555
O24_4 C12_4 1_555 1_555
O25_4 C11_4 1_555 1_555
C11_4 O23_4 1_555 1_555
C12_4 O22_4 1_555 1_555
Fe6_4 O24_4 1_555 1_555
O26_4 Fe2_5 1_555 1_555
O27_4 Fe2_5 1_555 1_555
O28_4 Fe6_4 1_555 1_555
O29_4 Fe6_4 1_555 1_555
C13_4 O26_4 1_555 1_555
C14_4 O27_4 1_555 1_555
O32_4 Fe6_4 1_555 1_555
O33_4 Fe6_4 1_555 1_555
C15_4 O32_4 1_555 1_555
C16_4 O33_4 1_555 1_555
O36_4 Fe6_4 1_555 1_555
O37_4 Fe6_4 1_555 1_555
C17_4 O36_4 1_555 1_555
C18_4 O37_4 1_555 1_555
Cl6_4 Fe2_5 1_555 1_555
O38_3 Fe4_3 1_555 1_555
O39_3 Fe4_3 1_555 1_555
O40_5 C19_5 1_555 1_555
O41_5 C20_5 1_555 1_555
C19_5 O38_3 1_555 1_555
C20_5 O39_3 1_555 1_555
O42_4 Fe4_3 1_555 1_555
Fe10_5 O13_7 1_555 1_555
Fe12 O40_5 1_555 1_555
Fe12_5 O42_4 1_555 1_555
O4_4 Fe5_4 1_555 1_555
O7_4 Fe5_4 1_555 1_555
O8_4 Fe5_4 1_555 1_555
C3_4 C4_4 1_555 1_555
O11_4 C5_4 1_555 1_555
O12_4 C6_4 1_555 1_555
C5_4 C6_4 1_555 1_555
O14_7 Fe10_5 1_555 1_555
C7_7 C8_7 1_555 1_555
O19_4 C9_4 1_555 1_555
O20_4 C10_4 1_555 1_555
C9_4 C10_4 1_555 1_555
O25_4 Fe6_4 1_555 1_555
C11_4 C12_4 1_555 1_555
O28_4 C13_4 1_555 1_555
O29_4 C14_4 1_555 1_555
C13_4 C14_4 1_555 1_555
C15_4 C16_4 1_555 1_555
C17_4 C18_4 1_555 1_555
O41_5 Fe12 1_555 1_555
C19_5 C20_5 1_555 1_555
Fe11_4 O48_4 1_555 1_555
O23_5 Fe1_6 1_555 1_555
O25_5 C11_5 1_555 1_555
C11_5 O23_5 1_555 1_555
O26_5 Fe2_6 1_555 1_555
C13_5 O26_5 1_555 1_555
O34_5 C17_5 1_555 1_555
O35_5 C18_5 1_555 1_555
C18_5 O37_5 1_555 1_555
Fe10 O34_5 1_555 1_555
Cl6_5 Fe2_6 1_555 1_555
Cl8_4 Fe10 1_555 1_555
O28_5 C13_5 1_555 1_555
O35_5 Fe10 1_555 1_555
C17_5 C18_5 1_555 1_555
Cl1_5 Fe1_7 1_555 1_555
O22_5 Fe1_7 1_555 1_555
O24_5 C12_5 1_555 1_555
C12_5 O22_5 1_555 1_555
Fe6_5 O24_5 1_555 1_555
O27_5 Fe2_7 1_555 1_555
O29_5 Fe6_5 1_555 1_555
C14_5 O27_5 1_555 1_555
O30_5 C15_5 1_555 1_555
O31_5 C16_5 1_555 1_555
O33_5 Fe6_5 1_555 1_555
C16_5 O33_5 1_555 1_555
O36_5 Fe6_5 1_555 1_555
Fe12 O30_5 1_555 1_555
Cl7_5 Fe12 1_555 1_555
O29_5 C14_5 1_555 1_555
O31_5 Fe12 1_555 1_555
C15_5 C16_5 1_555 1_555
Fe1_8 O1_5 1_555 1_555
O1_5 C2_5 1_555 1_555
O3_5 C2_5 1_555 1_555
O6_5 Fe2_8 1_555 1_555
O8_5 C4_5 1_555 1_555
C4_5 O6_5 1_555 1_555
Fe12_2 Cl3_5 1_555 1_555
Fe5_5 O3_5 1_555 1_555
O9_5 Fe12_2 1_555 1_555
O10_5 Fe12_2 1_555 1_555
O12_5 Fe5_5 1_555 1_555
C5_5 O9_5 1_555 1_555
C6_5 O10_5 1_555 1_555
O13_8 C7_8 1_555 1_555
O14_8 C8_8 1_555 1_555
O15_5 Fe12_2 1_555 1_555
O16_5 Fe12_2 1_555 1_555
C7_8 O15_5 1_555 1_555
C8_8 O16_5 1_555 1_555
O19_5 Fe5_5 1_555 1_555
Cl5_5 Fe1_8 1_555 1_555
Fe10_3 O13_8 1_555 1_555
O8_5 Fe5_5 1_555 1_555
O12_5 C6_5 1_555 1_555
C5_5 C6_5 1_555 1_555
O14_8 Fe10_3 1_555 1_555
C7_8 C8_8 1_555 1_555
Fe2_9 Cl2_5 1_555 1_555
O2_5 Fe1_9 1_555 1_555
O4_5 C1_5 1_555 1_555
C1_5 O2_5 1_555 1_555
O5_5 Fe2_9 1_555 1_555
O7_5 C3_5 1_555 1_555
C3_5 O5_5 1_555 1_555
Fe10_2 Cl4_5 1_555 1_555
O17_5 Fe10_2 1_555 1_555
O18_5 Fe10_2 1_555 1_555
C9_5 O17_5 1_555 1_555
C10_5 O18_5 1_555 1_555
O38_4 Fe10_2 1_555 1_555
O39_4 Fe10_2 1_555 1_555
O40_6 C19_6 1_555 1_555
O41_6 C20_6 1_555 1_555
C19_6 O38_4 1_555 1_555
C20_6 O39_4 1_555 1_555
Fe12_5 O40_6 1_555 1_555
O20_5 C10_5 1_555 1_555
C9_5 C10_5 1_555 1_555
O41_6 Fe12_5 1_555 1_555
C19_6 C20_6 1_555 1_555
Fe1_10 O1_6 1_555 1_555
Fe2_10 Cl2_6 1_555 1_555
O1_6 C2_6 1_555 1_555
O2_6 Fe1_10 1_555 1_555
O3_6 C2_6 1_555 1_555
O4_6 C1_6 1_555 1_555
C1_6 O2_6 1_555 1_555
C2_6 C1_6 1_555 1_555
O5_6 Fe2_10 1_555 1_555
O6_6 Fe2_10 1_555 1_555
O7_6 C3_6 1_555 1_555
O8_6 C4_6 1_555 1_555
C3_6 O5_6 1_555 1_555
C4_6 O6_6 1_555 1_555
Fe5_6 O3_6 1_555 1_555
O11_6 Fe5_6 1_555 1_555
O12_6 Fe5_6 1_555 1_555
O19_6 Fe5_6 1_555 1_555
O20_6 Fe5_6 1_555 1_555
O22_6 Fe1_10 1_555 1_555
O23_6 Fe1_10 1_555 1_555
O24_6 C12_6 1_555 1_555
O25_6 C11_6 1_555 1_555
C11_6 O23_6 1_555 1_555
C12_6 O22_6 1_555 1_555
Fe6_6 O24_6 1_555 1_555
O26_6 Fe2_10 1_555 1_555
O27_6 Fe2_10 1_555 1_555
O28_6 Fe6_6 1_555 1_555
O29_6 Fe6_6 1_555 1_555
C13_6 O26_6 1_555 1_555
C14_6 O27_6 1_555 1_555
O30_6 C15_6 1_555 1_555
O31_6 C16_6 1_555 1_555
O32_6 Fe6_6 1_555 1_555
O33_6 Fe6_6 1_555 1_555
C15_6 O32_6 1_555 1_555
C16_6 O33_6 1_555 1_555
O34_6 C17_6 1_555 1_555
O35_6 C18_6 1_555 1_555
O36_6 Fe6_6 1_555 1_555
O37_6 Fe6_6 1_555 1_555
C17_6 O36_6 1_555 1_555
C18_6 O37_6 1_555 1_555
Fe12_3 O30_6 1_555 1_555
Fe10_3 O34_6 1_555 1_555
Cl6_6 Fe2_10 1_555 1_555
Cl8_5 Fe10_3 1_555 1_555
O43_4 Fe12_3 1_555 1_555
O44_4 Fe12_3 1_555 1_555
O4_6 Fe5_6 1_555 1_555
O7_6 Fe5_6 1_555 1_555
O8_6 Fe5_6 1_555 1_555
C3_6 C4_6 1_555 1_555
O11_6 C5_6 1_555 1_555
O12_6 C6_6 1_555 1_555
C5_6 C6_6 1_555 1_555
O19_6 C9_6 1_555 1_555
O20_6 C10_6 1_555 1_555
C9_6 C10_6 1_555 1_555
O25_6 Fe6_6 1_555 1_555
C11_6 C12_6 1_555 1_555
O28_6 C13_6 1_555 1_555
O29_6 C14_6 1_555 1_555
C13_6 C14_6 1_555 1_555
O31_6 Fe12_3 1_555 1_555
C15_6 C16_6 1_555 1_555
O35_6 Fe10_3 1_555 1_555
C17_6 C18_6 1_555 1_555
Fe10_4 Cl4_6 1_555 1_555
O9_6 Fe11_2 1_555 1_555
O10_6 Fe11_2 1_555 1_555
O17_6 Fe10_4 1_555 1_555
O18_6 Fe10_4 1_555 1_555
O13_9 C7_9 1_555 1_555
O14_9 C8_9 1_555 1_555
C7_9 O43_4 1_555 1_555
C8_9 O44_4 1_555 1_555
Fe10_6 O13_9 1_555 1_555
O14_9 Fe10_6 1_555 1_555
C7_9 C8_9 1_555 1_555
Cl1_7 Fe1_11 1_555 1_555
O22_7 Fe1_11 1_555 1_555
O23_7 Fe1_11 1_555 1_555
O24_7 C12_7 1_555 1_555
O25_7 C11_7 1_555 1_555
C11_7 O23_7 1_555 1_555
C12_7 O22_7 1_555 1_555
Fe6_7 O24_7 1_555 1_555
O30_7 C15_7 1_555 1_555
O31_7 C16_7 1_555 1_555
O32_7 Fe6_7 1_555 1_555
O33_7 Fe6_7 1_555 1_555
C15_7 O32_7 1_555 1_555
C16_7 O33_7 1_555 1_555
Fe11_3 O30_7 1_555 1_555
Cl7_7 Fe11_3 1_555 1_555
O25_7 Fe6_7 1_555 1_555
C11_7 C12_7 1_555 1_555
O31_7 Fe11_3 1_555 1_555
C15_7 C16_7 1_555 1_555
O26_7 Fe2_11 1_555 1_555
O27_7 Fe2_11 1_555 1_555
C13_7 O26_7 1_555 1_555
C14_7 O27_7 1_555 1_555
O34_7 C17_7 1_555 1_555
O35_7 C18_7 1_555 1_555
C17_7 O36_7 1_555 1_555
C18_7 O37_7 1_555 1_555
Fe10_5 O34_7 1_555 1_555
Cl6_7 Fe2_11 1_555 1_555
Cl8_6 Fe10_5 1_555 1_555
O28_7 C13_7 1_555 1_555
O29_7 C14_7 1_555 1_555
C13_7 C14_7 1_555 1_555
O35_7 Fe10_5 1_555 1_555
C17_7 C18_7 1_555 1_555
Fe1_12 O1_7 1_555 1_555
O1_7 C2_7 1_555 1_555
O2_7 Fe1_12 1_555 1_555
O3_7 C2_7 1_555 1_555
O4_7 C1_7 1_555 1_555
C1_7 O2_7 1_555 1_555
C2_7 C1_7 1_555 1_555
Fe12_4 Cl3_7 1_555 1_555
Fe5_7 O3_7 1_555 1_555
O9_7 Fe12_4 1_555 1_555
O10_7 Fe12_4 1_555 1_555
O11_7 Fe5_7 1_555 1_555
O12_7 Fe5_7 1_555 1_555
C5_7 O9_7 1_555 1_555
C6_7 O10_7 1_555 1_555
O13_10 C7_10 1_555 1_555
O14_10 C8_10 1_555 1_555
O15_6 Fe12_4 1_555 1_555
O16_6 Fe12_4 1_555 1_555
C7_10 O15_6 1_555 1_555
C8_10 O16_6 1_555 1_555
Cl5_7 Fe1_12 1_555 1_555
Fe10_7 O13_10 1_555 1_555
O4_7 Fe5_7 1_555 1_555
O11_7 C5_7 1_555 1_555
O12_7 C6_7 1_555 1_555
C5_7 C6_7 1_555 1_555
O14_10 Fe10_7 1_555 1_555
C7_10 C8_10 1_555 1_555
Fe2_12 Cl2_7 1_555 1_555
O5_7 Fe2_12 1_555 1_555
O6_7 Fe2_12 1_555 1_555
O7_7 C3_7 1_555 1_555
O8_7 C4_7 1_555 1_555
C3_7 O5_7 1_555 1_555
C4_7 O6_7 1_555 1_555
Fe10_6 Cl4_7 1_555 1_555
O17_7 Fe10_6 1_555 1_555
O18_7 Fe10_6 1_555 1_555
C9_7 O17_7 1_555 1_555
C10_7 O18_7 1_555 1_555
C3_7 C4_7 1_555 1_555
O19_7 C9_7 1_555 1_555
O20_7 C10_7 1_555 1_555
C9_7 C10_7 1_555 1_555
Fe1_13 O1_8 1_555 1_555
O1_8 C2_8 1_555 1_555
O2_8 Fe1_13 1_555 1_555
O3_8 C2_8 1_555 1_555
O4_8 C1_8 1_555 1_555
Cl1_8 Fe1_13 1_555 1_555
C1_8 O2_8 1_555 1_555
C2_8 C1_8 1_555 1_555
O5_8 Fe2_13 1_555 1_555
O6_8 Fe2_13 1_555 1_555
O7_8 C3_8 1_555 1_555
O8_8 C4_8 1_555 1_555
C3_8 O5_8 1_555 1_555
C4_8 O6_8 1_555 1_555
Fe5_8 O3_8 1_555 1_555
O11_8 Fe5_8 1_555 1_555
O12_8 Fe5_8 1_555 1_555
O19_8 Fe5_8 1_555 1_555
O20_8 Fe5_8 1_555 1_555
O22_8 Fe1_13 1_555 1_555
O23_8 Fe1_13 1_555 1_555
O24_8 C12_8 1_555 1_555
O25_8 C11_8 1_555 1_555
C11_8 O23_8 1_555 1_555
C12_8 O22_8 1_555 1_555
Cl5_8 Fe1_13 1_555 1_555
Fe6_8 O24_8 1_555 1_555
O26_8 Fe2_13 1_555 1_555
O27_8 Fe2_13 1_555 1_555
O28_8 Fe6_8 1_555 1_555
O29_8 Fe6_8 1_555 1_555
C13_8 O26_8 1_555 1_555
C14_8 O27_8 1_555 1_555
O30_8 C15_8 1_555 1_555
O31_8 C16_8 1_555 1_555
O32_8 Fe6_8 1_555 1_555
O33_8 Fe6_8 1_555 1_555
C15_8 O32_8 1_555 1_555
C16_8 O33_8 1_555 1_555
O34_8 C17_8 1_555 1_555
O35_8 C18_8 1_555 1_555
O36_8 Fe6_8 1_555 1_555
O37_8 Fe6_8 1_555 1_555
C17_8 O36_8 1_555 1_555
C18_8 O37_8 1_555 1_555
Fe12_5 O30_8 1_555 1_555
Fe10_7 O34_8 1_555 1_555
Cl7_8 Fe12_5 1_555 1_555
O4_8 Fe5_8 1_555 1_555
O7_8 Fe5_8 1_555 1_555
O8_8 Fe5_8 1_555 1_555
C3_8 C4_8 1_555 1_555
O11_8 C5_8 1_555 1_555
O12_8 C6_8 1_555 1_555
C5_8 C6_8 1_555 1_555
O19_8 C9_8 1_555 1_555
O20_8 C10_8 1_555 1_555
C9_8 C10_8 1_555 1_555
O25_8 Fe6_8 1_555 1_555
C11_8 C12_8 1_555 1_555
O28_8 C13_8 1_555 1_555
O29_8 C14_8 1_555 1_555
C13_8 C14_8 1_555 1_555
O31_8 Fe12_5 1_555 1_555
C15_8 C16_8 1_555 1_555
O35_8 Fe10_7 1_555 1_555
C17_8 C18_8 1_555 1_555
Fe11_4 Cl3_8 1_555 1_555
O9_8 Fe11_4 1_555 1_555
O10_8 Fe11_4 1_555 1_555
O17_8 Fe9_2 1_555 1_555
O18_8 Fe9_2 1_555 1_555
Fe13 O49 1_555 1_555
O50 Fe13 1_555 1_555
O51 Fe13 1_555 1_555
O52 Fe13 1_555 1_555
O53 Fe13 1_555 1_555
O51 H1 1_555 1_555
O51 H2 1_555 1_555
O52 H4 1_555 1_555
O53 H8 1_555 1_555
O53 H9 1_555 1_555
O49 H10 1_555 1_555
O50 H17 1_555 1_555
O54 H19 1_555 1_555
O54 H20 1_555 1_555
Fe13_2 O49_2 1_555 1_555
O50_2 Fe13_2 1_555 1_555
O51_2 Fe13_2 1_555 1_555
O52_2 Fe13_2 1_555 1_555
O53_2 Fe13_2 1_555 1_555
O51_2 H1_2 1_555 1_555
O51_2 H2_2 1_555 1_555
O52_2 H4_2 1_555 1_555
O53_2 H8_2 1_555 1_555
O53_2 H9_2 1_555 1_555
O49_2 H10_2 1_555 1_555
O50_2 H17_2 1_555 1_555
O54_2 H19_2 1_555 1_555
O54_2 H20_2 1_555 1_555
Fe13_3 O49_3 1_555 1_555
O50_3 Fe13_3 1_555 1_555
O51_3 Fe13_3 1_555 1_555
O52_3 Fe13_3 1_555 1_555
O53_3 Fe13_3 1_555 1_555
O54_3 Fe13_3 1_555 1_555
O51_3 H1_3 1_555 1_555
O51_3 H2_3 1_555 1_555
O52_3 H3_3 1_555 1_555
O52_3 H4_3 1_555 1_555
O53_3 H8_3 1_555 1_555
O53_3 H9_3 1_555 1_555
O49_3 H10_3 1_555 1_555
O49_3 H11_3 1_555 1_555
O50_3 H17_3 1_555 1_555
O50_3 H18_3 1_555 1_555
O54_3 H19_3 1_555 1_555
O54_3 H20_3 1_555 1_555
Fe13_4 O49_4 1_555 1_555
O50_4 Fe13_4 1_555 1_555
O51_4 Fe13_4 1_555 1_555
O52_4 Fe13_4 1_555 1_555
O53_4 Fe13_4 1_555 1_555
O54_4 Fe13_4 1_555 1_555
O51_4 H1_4 1_555 1_555
O51_4 H2_4 1_555 1_555
O52_4 H3_4 1_555 1_555
O52_4 H4_4 1_555 1_555
O53_4 H8_4 1_555 1_555
O53_4 H9_4 1_555 1_555
O49_4 H10_4 1_555 1_555
O49_4 H11_4 1_555 1_555
O50_4 H17_4 1_555 1_555
O50_4 H18_4 1_555 1_555
O54_4 H19_4 1_555 1_555
O54_4 H20_4 1_555 1_555
Fe13_5 O49_5 1_555 1_555
O50_5 Fe13_5 1_555 1_555
O51_5 Fe13_5 1_555 1_555
O52_5 Fe13_5 1_555 1_555
O53_5 Fe13_5 1_555 1_555
O54_5 Fe13_5 1_555 1_555
O51_5 H1_5 1_555 1_555
O51_5 H2_5 1_555 1_555
O52_5 H3_5 1_555 1_555
O52_5 H4_5 1_555 1_555
O53_5 H8_5 1_555 1_555
O53_5 H9_5 1_555 1_555
O49_5 H10_5 1_555 1_555
O49_5 H11_5 1_555 1_555
O50_5 H17_5 1_555 1_555
O50_5 H18_5 1_555 1_555
O54_5 H19_5 1_555 1_555
O54_5 H20_5 1_555 1_555
Fe13_6 O49_6 1_555 1_555
O50_6 Fe13_6 1_555 1_555
O51_6 Fe13_6 1_555 1_555
O52_6 Fe13_6 1_555 1_555
O53_6 Fe13_6 1_555 1_555
O54_6 Fe13_6 1_555 1_555
O51_6 H1_6 1_555 1_555
O51_6 H2_6 1_555 1_555
O52_6 H3_6 1_555 1_555
O52_6 H4_6 1_555 1_555
O53_6 H8_6 1_555 1_555
O53_6 H9_6 1_555 1_555
O49_6 H10_6 1_555 1_555
O49_6 H11_6 1_555 1_555
O50_6 H17_6 1_555 1_555
O50_6 H18_6 1_555 1_555
O54_6 H19_6 1_555 1_555
O54_6 H20_6 1_555 1_555
Fe13_7 O49_7 1_555 1_555
O50_7 Fe13_7 1_555 1_555
O51_7 Fe13_7 1_555 1_555
O52_7 Fe13_7 1_555 1_555
O53_7 Fe13_7 1_555 1_555
O54_7 Fe13_7 1_555 1_555
O51_7 H1_7 1_555 1_555
O51_7 H2_7 1_555 1_555
O52_7 H3_7 1_555 1_555
O52_7 H4_7 1_555 1_555
O53_7 H8_7 1_555 1_555
O53_7 H9_7 1_555 1_555
O49_7 H10_7 1_555 1_555
O49_7 H11_7 1_555 1_555
O50_7 H17_7 1_555 1_555
O50_7 H18_7 1_555 1_555
O54_7 H19_7 1_555 1_555
O54_7 H20_7 1_555 1_555
Fe13_8 O49_8 1_555 1_555
O50_8 Fe13_8 1_555 1_555
O51_8 Fe13_8 1_555 1_555
O52_8 Fe13_8 1_555 1_555
O53_8 Fe13_8 1_555 1_555
O54_8 Fe13_8 1_555 1_555
O51_8 H1_8 1_555 1_555
O51_8 H2_8 1_555 1_555
O52_8 H3_8 1_555 1_555
O52_8 H4_8 1_555 1_555
O53_8 H8_8 1_555 1_555
O53_8 H9_8 1_555 1_555
O49_8 H10_8 1_555 1_555
O49_8 H11_8 1_555 1_555
O50_8 H17_8 1_555 1_555
O50_8 H18_8 1_555 1_555
O54_8 H19_8 1_555 1_555
O54_8 H20_8 1_555 1_555
Fe13_9 O49_9 1_555 1_555
O51_9 Fe13_9 1_555 1_555
O53_9 Fe13_9 1_555 1_555
O54_9 Fe13_9 1_555 1_555
O53_9 H8_9 1_555 1_555
O53_9 H9_9 1_555 1_555
O49_9 H10_9 1_555 1_555
O49_9 H11_9 1_555 1_555
O54_9 H19_9 1_555 1_555
O52_9 H3_9 1_555 1_555
O52_9 H4_9 1_555 1_555
O50_9 H17_9 1_555 1_555
O50_9 H18_9 1_555 1_555
O52_10 H3_10 1_555 1_555
O52_10 H4_10 1_555 1_555
O50_10 H17_10 1_555 1_555
O50_10 H18_10 1_555 1_555
Fe13_10 O49_10 1_555 1_555
O51_10 Fe13_10 1_555 1_555
O53_10 Fe13_10 1_555 1_555
O54_10 Fe13_10 1_555 1_555
O53_10 H8_10 1_555 1_555
O53_10 H9_10 1_555 1_555
O49_10 H10_10 1_555 1_555
O49_10 H11_10 1_555 1_555
O54_10 H19_10 1_555 1_555
Fe13_11 O49_11 1_555 1_555
O50_11 Fe13_11 1_555 1_555
O51_11 Fe13_11 1_555 1_555
O52_11 Fe13_11 1_555 1_555
O53_11 Fe13_11 1_555 1_555
O54_11 Fe13_11 1_555 1_555
O51_11 H1_11 1_555 1_555
O51_11 H2_11 1_555 1_555
O52_11 H3_11 1_555 1_555
O52_11 H4_11 1_555 1_555
O53_11 H8_11 1_555 1_555
O53_11 H9_11 1_555 1_555
O49_11 H10_11 1_555 1_555
O49_11 H11_11 1_555 1_555
O50_11 H17_11 1_555 1_555
O50_11 H18_11 1_555 1_555
O54_11 H19_11 1_555 1_555
O54_11 H20_11 1_555 1_555
Fe13_12 O49_12 1_555 1_555
O50_12 Fe13_12 1_555 1_555
O51_12 Fe13_12 1_555 1_555
O52_12 Fe13_12 1_555 1_555
O53_12 Fe13_12 1_555 1_555
O54_12 Fe13_12 1_555 1_555
O51_12 H1_12 1_555 1_555
O51_12 H2_12 1_555 1_555
O52_12 H3_12 1_555 1_555
O52_12 H4_12 1_555 1_555
O53_12 H8_12 1_555 1_555
O53_12 H9_12 1_555 1_555
O49_12 H10_12 1_555 1_555
O49_12 H11_12 1_555 1_555
O50_12 H17_12 1_555 1_555
O50_12 H18_12 1_555 1_555
O54_12 H19_12 1_555 1_555
O54_12 H20_12 1_555 1_555
Fe13_13 O49_13 1_555 1_555
O51_13 Fe13_13 1_555 1_555
O53_13 Fe13_13 1_555 1_555
O53_13 H8_13 1_555 1_555
O53_13 H9_13 1_555 1_555
O49_13 H10_13 1_555 1_555
O54_13 H19_13 1_555 1_555
O52_13 H4_13 1_555 1_555
O50_13 H17_13 1_555 1_555
O52_14 H4_14 1_555 1_555
O50_14 H17_14 1_555 1_555
Fe13_14 O49_14 1_555 1_555
O51_14 Fe13_14 1_555 1_555
O53_14 Fe13_14 1_555 1_555
O53_14 H8_14 1_555 1_555
O53_14 H9_14 1_555 1_555
O49_14 H10_14 1_555 1_555
O54_14 H19_14 1_555 1_555
Fe13_15 O49_15 1_555 1_555
O50_15 Fe13_15 1_555 1_555
O51_15 Fe13_15 1_555 1_555
O52_15 Fe13_15 1_555 1_555
O53_15 Fe13_15 1_555 1_555
O54_15 Fe13_15 1_555 1_555
O51_15 H1_15 1_555 1_555
O51_15 H2_15 1_555 1_555
O52_15 H3_15 1_555 1_555
O52_15 H4_15 1_555 1_555
O53_15 H8_15 1_555 1_555
O53_15 H9_15 1_555 1_555
O49_15 H10_15 1_555 1_555
O49_15 H11_15 1_555 1_555
O50_15 H17_15 1_555 1_555
O50_15 H18_15 1_555 1_555
O54_15 H19_15 1_555 1_555
O54_15 H20_15 1_555 1_555
Fe13_16 O49_16 1_555 1_555
O50_16 Fe13_16 1_555 1_555
O51_16 Fe13_16 1_555 1_555
O52_16 Fe13_16 1_555 1_555
O53_16 Fe13_16 1_555 1_555
O54_16 Fe13_16 1_555 1_555
O51_16 H1_16 1_555 1_555
O51_16 H2_16 1_555 1_555
O52_16 H3_16 1_555 1_555
O52_16 H4_16 1_555 1_555
O53_16 H8_16 1_555 1_555
O53_16 H9_16 1_555 1_555
O49_16 H10_16 1_555 1_555
O49_16 H11_16 1_555 1_555
O50_16 H17_16 1_555 1_555
O50_16 H18_16 1_555 1_555
O54_16 H19_16 1_555 1_555
O54_16 H20_16 1_555 1_555
N1 C22 1_555 1_555
C21 C22 1_555 1_555
N1 H5 1_555 1_555
N1 H6 1_555 1_555
N1 H7 1_555 1_555
C21 H12 1_555 1_555
C21 H13 1_555 1_555
C21 H14 1_555 1_555
C22 H15 1_555 1_555
C22 H16 1_555 1_555
N1_2 C22_2 1_555 1_555
C21_2 C22_2 1_555 1_555
N1_2 H5_2 1_555 1_555
N1_2 H6_2 1_555 1_555
N1_2 H7_2 1_555 1_555
C21_2 H12_2 1_555 1_555
C21_2 H13_2 1_555 1_555
C21_2 H14_2 1_555 1_555
C22_2 H15_2 1_555 1_555
C22_2 H16_2 1_555 1_555
N1_3 C22_3 1_555 1_555
C21_3 C22_3 1_555 1_555
N1_3 H5_3 1_555 1_555
N1_3 H6_3 1_555 1_555
N1_3 H7_3 1_555 1_555
C21_3 H12_3 1_555 1_555
C21_3 H13_3 1_555 1_555
C21_3 H14_3 1_555 1_555
C22_3 H15_3 1_555 1_555
C22_3 H16_3 1_555 1_555
N1_4 C22_4 1_555 1_555
C21_4 C22_4 1_555 1_555
N1_4 H5_4 1_555 1_555
N1_4 H6_4 1_555 1_555
N1_4 H7_4 1_555 1_555
C21_4 H12_4 1_555 1_555
C21_4 H14_4 1_555 1_555
C22_4 H15_4 1_555 1_555
C22_4 H16_4 1_555 1_555
N1_5 C22_5 1_555 1_555
C21_5 C22_5 1_555 1_555
N1_5 H5_5 1_555 1_555
N1_5 H6_5 1_555 1_555
N1_5 H7_5 1_555 1_555
C21_5 H12_5 1_555 1_555
C21_5 H13_5 1_555 1_555
C21_5 H14_5 1_555 1_555
C22_5 H15_5 1_555 1_555
C22_5 H16_5 1_555 1_555
N1_6 C22_6 1_555 1_555
C21_6 C22_6 1_555 1_555
N1_6 H5_6 1_555 1_555
N1_6 H6_6 1_555 1_555
N1_6 H7_6 1_555 1_555
C21_6 H12_6 1_555 1_555
C21_6 H13_6 1_555 1_555
C21_6 H14_6 1_555 1_555
C22_6 H15_6 1_555 1_555
C22_6 H16_6 1_555 1_555
N1_7 C22_7 1_555 1_555
C21_7 C22_7 1_555 1_555
N1_7 H5_7 1_555 1_555
N1_7 H6_7 1_555 1_555
N1_7 H7_7 1_555 1_555
C21_7 H12_7 1_555 1_555
C22_7 H15_7 1_555 1_555
C22_7 H16_7 1_555 1_555
N1_8 C22_8 1_555 1_555
C21_8 C22_8 1_555 1_555
N1_8 H5_8 1_555 1_555
N1_8 H6_8 1_555 1_555
N1_8 H7_8 1_555 1_555
C21_8 H12_8 1_555 1_555
C21_8 H13_8 1_555 1_555
C22_8 H15_8 1_555 1_555
C22_8 H16_8 1_555 1_555
N1_9 C22_9 1_555 1_555
C21_9 C22_9 1_555 1_555
N1_9 H5_9 1_555 1_555
N1_9 H6_9 1_555 1_555
N1_9 H7_9 1_555 1_555
C21_9 H12_9 1_555 1_555
C21_9 H13_9 1_555 1_555
C21_9 H14_9 1_555 1_555
C22_9 H15_9 1_555 1_555
C22_9 H16_9 1_555 1_555
N1_10 C22_10 1_555 1_555
C21_10 C22_10 1_555 1_555
N1_10 H5_10 1_555 1_555
N1_10 H6_10 1_555 1_555
N1_10 H7_10 1_555 1_555
C21_10 H12_10 1_555 1_555
C21_10 H13_10 1_555 1_555
C21_10 H14_10 1_555 1_555
C22_10 H15_10 1_555 1_555
C22_10 H16_10 1_555 1_555
N1_11 C22_11 1_555 1_555
C21_11 C22_11 1_555 1_555
N1_11 H5_11 1_555 1_555
N1_11 H6_11 1_555 1_555
N1_11 H7_11 1_555 1_555
C21_11 H12_11 1_555 1_555
C21_11 H13_11 1_555 1_555
C22_11 H15_11 1_555 1_555
C22_11 H16_11 1_555 1_555
N1_12 C22_12 1_555 1_555
C21_12 C22_12 1_555 1_555
N1_12 H5_12 1_555 1_555
N1_12 H6_12 1_555 1_555
N1_12 H7_12 1_555 1_555
C21_12 H12_12 1_555 1_555
C22_12 H15_12 1_555 1_555
C22_12 H16_12 1_555 1_555
N1_13 C22_13 1_555 1_555
C21_13 C22_13 1_555 1_555
N1_13 H5_13 1_555 1_555
N1_13 H6_13 1_555 1_555
N1_13 H7_13 1_555 1_555
C21_13 H12_13 1_555 1_555
C21_13 H13_13 1_555 1_555
C21_13 H14_13 1_555 1_555
C22_13 H15_13 1_555 1_555
C22_13 H16_13 1_555 1_555
N1_14 C22_14 1_555 1_555
C21_14 C22_14 1_555 1_555
N1_14 H5_14 1_555 1_555
N1_14 H6_14 1_555 1_555
N1_14 H7_14 1_555 1_555
C21_14 H12_14 1_555 1_555
C21_14 H13_14 1_555 1_555
C21_14 H14_14 1_555 1_555
C22_14 H15_14 1_555 1_555
C22_14 H16_14 1_555 1_555
N1_15 C22_15 1_555 1_555
C21_15 C22_15 1_555 1_555
N1_15 H5_15 1_555 1_555
N1_15 H6_15 1_555 1_555
N1_15 H7_15 1_555 1_555
C21_15 H12_15 1_555 1_555
C21_15 H14_15 1_555 1_555
C22_15 H15_15 1_555 1_555
C22_15 H16_15 1_555 1_555
N1_16 C22_16 1_555 1_555
C21_16 C22_16 1_555 1_555
N1_16 H5_16 1_555 1_555
N1_16 H6_16 1_555 1_555
N1_16 H7_16 1_555 1_555
C21_16 H12_16 1_555 1_555
C21_16 H13_16 1_555 1_555
C21_16 H14_16 1_555 1_555
C22_16 H15_16 1_555 1_555
C22_16 H16_16 1_555 1_555

#END
