
###############################################################################
#
# This file contains modified crystal structure data generated from the
# MOF subset of the Cambridge Structural Database (CSD) v543 
# hosted by the Cambridge Crystallographic Data Centre (CCDC).
#
# This work is licensed under the Creative Commons
# Attribution-NonCommercial-ShareAlike 4.0 International License.
# To view a copy of this license, visit
# http://creativecommons.org/licenses/by-nc-sa/4.0/
# or send a letter to
# Creative Commons, PO Box 1866, Mountain View, CA 94042, USA.
#
# CIF created using the CSD Python API on 29 September 2022
# The structure has been converted into the P1 space group
# The structure has a 3D framework
# The original CSD entry EZEQIL is in the monoclinic crystal system
# The framework has been calculated to contain at least 10.0% void space
# The void calculation uses a probe of radius 1.32A, grid spacing 0.4
#
###############################################################################

data_EZEQIL
_chemical_formula_moiety         '(C104 H64 Mg8 N8 O36)n'
_symmetry_cell_setting           triclinic
_symmetry_space_group_name_H-M   'P 1'
_symmetry_Int_Tables_number      1
_space_group_name_Hall           'P 1'
loop_
_symmetry_equiv_pos_site_id
_symmetry_equiv_pos_as_xyz
1 x,y,z
_cell_length_a                   17.655(4)
_cell_length_b                   17.638(4)
_cell_length_c                   12.956(3)
_cell_angle_alpha                90
_cell_angle_beta                 127.421(4)
_cell_angle_gamma                90
_cell_volume                     3204.15
loop_
_atom_site_label
_atom_site_type_symbol
_atom_site_fract_x
_atom_site_fract_y
_atom_site_fract_z
Mg1 Mg 0.0000 0.30427(10) 0.2500
Mg2 Mg 0.2500 0.2500 0.5000
O1 O 0.0987(2) 0.22105(15) 0.3890(3)
O2 O 0.0774(2) 0.29891(16) 0.1821(3)
O4 O 0.2278(2) 0.65085(16) 0.0634(3)
O5 O 0.2320(2) 0.31213(16) 0.3507(3)
N1 N 0.0725(2) 0.16054(19) 0.4216(3)
C1 C 0.0895(4) 0.0910(3) 0.3972(5)
C2 C 0.0147(3) 0.0335(2) 0.4823(4)
C3 C 0.0606(4) 0.0278(3) 0.4267(5)
C4 C 0.1577(3) 0.3308(2) 0.2404(4)
C6 C 0.1647(3) 0.5305(2) 0.0566(4)
C7 C 0.2395(4) 0.4473(3) 0.2410(5)
C8 C 0.1640(3) 0.3970(2) 0.1737(4)
C9 C 0.0009(4) 0.1069(3) 0.5085(6)
C11 C 0.0885(4) 0.4133(3) 0.0445(5)
C12 C 0.0290(4) 0.1686(3) 0.4768(5)
C13 C 0.2399(4) 0.5134(3) 0.1837(5)
H2 H 0.013(3) 0.219(3) 0.489(4)
H5 H 0.114(4) 0.085(3) 0.361(5)
H6 H 0.295(3) 0.549(3) 0.238(5)
H8 H 0.290(4) 0.443(4) 0.326(6)
Mg5 Mg -0.0000 0.69573(10) 0.7500
Mg9 Mg 0.2500 0.7500 0.0000
O12 O 0.4013(2) 0.27895(15) 0.6110(3)
O14 O 0.0871(2) 0.38480(16) 0.3792(3)
O15 O 0.2722(2) 0.15085(16) 0.4366(3)
O16 O 0.2278(2) 0.34915(16) 0.5634(3)
O17 O 0.2680(2) 0.18787(16) 0.6493(3)
O3 O 0.0871(2) 0.61520(16) 0.8792(3)
C5 C 0.1602(3) 0.6048(2) 0.9941(4)
C10 C 0.0897(4) 0.4796(3) 0.9866(5)
H1 H 0.024(4) 0.498(3) 0.889(5)
H4 H 0.028(4) 0.373(3) 0.999(5)
Mg9_2 Mg 0.2500 0.7500 1.0000
H7 H 0.056(4) 0.988(3) 0.394(6)
H10 H 0.033(3) 0.884(3) 0.456(5)
Mg1_2 Mg 1.0000 0.30427(10) 0.2500
H3 H 0.967(3) 0.116(3) 0.544(5)
H12 H 0.944(4) 0.012(3) 0.606(6)
O7 O 0.9226(2) 0.29891(16) 0.3179(3)
O8 O 0.9129(2) 0.61520(16) 0.6208(3)
O9 O 0.7722(2) 0.65085(16) 0.4366(3)
O10 O 0.7680(2) 0.31213(16) 0.1493(3)
C19 C 0.8423(3) 0.3308(2) 0.2596(4)
C20 C 0.8398(3) 0.6048(2) 0.5059(4)
C21 C 0.8353(3) 0.5305(2) 0.4434(4)
C22 C 0.7605(4) 0.4473(3) 0.2590(5)
C23 C 0.8360(3) 0.3970(2) 0.3263(4)
C24 C 0.9103(4) 0.4796(3) 0.5134(5)
C25 C 0.9115(4) 0.4133(3) 0.4555(5)
C26 C 0.7601(4) 0.5134(3) 0.3163(5)
H13 H 0.976(4) 0.498(3) 0.611(5)
H14 H 0.972(4) 0.373(3) 0.501(5)
H15 H 0.705(3) 0.549(3) 0.262(5)
H16 H 0.710(4) 0.443(4) 0.174(6)
Mg5_2 Mg 1.0000 0.69573(10) 0.7500
Mg6 Mg 0.7500 0.2500 0.0000
Mg8 Mg 0.7500 0.7500 0.5000
O11 O 0.9013(2) 0.22105(15) 0.1110(3)
O13 O 0.9129(2) 0.38480(16) 0.1208(3)
Mg6_2 Mg 0.7500 0.2500 1.0000
O6 O 0.9013(2) 0.77895(15) 0.6110(3)
N2 N 0.9275(2) 0.83946(19) 0.5784(3)
C14 C 0.9105(4) 0.9090(3) 0.6028(5)
C15 C 0.9853(3) 0.9665(2) 0.5177(4)
C16 C 0.9394(4) 0.9722(3) 0.5733(5)
C17 C 0.9991(4) 0.8931(3) 0.4915(6)
C18 C 0.9710(4) 0.8314(3) 0.5232(5)
H9 H 0.987(3) 0.781(3) 0.511(4)
H11 H 0.886(4) 0.915(3) 0.639(5)
H3_2 H 0.033(3) 0.116(3) 0.956(5)
H12_2 H 0.056(4) 0.012(3) 0.894(6)
C17_2 C 0.0009(4) 0.8931(3) 0.0085(6)
O6_2 O 0.0987(2) 0.77895(15) 0.8890(3)
N2_2 N 0.0725(2) 0.83946(19) 0.9216(3)
C14_2 C 0.0895(4) 0.9090(3) 0.8972(5)
C15_2 C 0.0147(3) 0.9665(2) 0.9823(4)
C16_2 C 0.0606(4) 0.9722(3) 0.9267(5)
C18_2 C 0.0290(4) 0.8314(3) 0.9768(5)
H9_2 H 0.013(3) 0.781(3) 0.989(4)
H11_2 H 0.114(4) 0.915(3) 0.861(5)
N1_2 N 0.9275(2) 0.16054(19) 0.0784(3)
C1_2 C 0.9105(4) 0.0910(3) 0.1028(5)
C2_2 C 0.9853(3) 0.0335(2) 0.0177(4)
C3_2 C 0.9394(4) 0.0278(3) 0.0733(5)
C12_2 C 0.9710(4) 0.1686(3) 0.0232(5)
H2_2 H 0.987(3) 0.219(3) 0.011(4)
H5_2 H 0.886(4) 0.085(3) 0.139(5)
O15_2 O 0.7278(2) 0.15085(16) 0.0634(3)
C9_2 C 0.9991(4) 0.1069(3) 0.9915(6)
O12_2 O 0.5987(2) 0.27895(15) 0.8890(3)
O16_2 O 0.7722(2) 0.34915(16) 0.9366(3)
O17_2 O 0.7320(2) 0.18787(16) 0.8507(3)
H7_2 H 0.944(4) 0.988(3) 0.106(6)
H10_2 H 0.967(3) 0.884(3) 0.044(5)
C6_2 C 0.6647(3) 0.0305(2) 0.0566(4)
C13_2 C 0.7399(4) 0.0134(3) 0.1837(5)
H6_2 H 0.795(3) 0.049(3) 0.238(5)
O8_2 O 0.4129(2) 0.11520(16) 0.6208(3)
C20_2 C 0.3398(3) 0.1048(2) 0.5059(4)
C21_2 C 0.3353(3) 0.0305(2) 0.4434(4)
C26_2 C 0.2601(4) 0.0134(3) 0.3163(5)
H15_2 H 0.205(3) 0.049(3) 0.262(5)
Mg5_3 Mg 0.5000 0.19573(10) 0.7500
O3_2 O 0.5871(2) 0.11520(16) 0.8792(3)
C5_2 C 0.6602(3) 0.1048(2) 0.9941(4)
Mg1_3 Mg 0.5000 0.80427(10) 0.2500
O1_2 O 0.5987(2) 0.72105(15) 0.3890(3)
O2_2 O 0.5774(2) 0.79891(16) 0.1821(3)
O5_2 O 0.7320(2) 0.81213(16) 0.3507(3)
N1_3 N 0.5725(2) 0.66054(19) 0.4216(3)
C1_3 C 0.5895(4) 0.5910(3) 0.3972(5)
C2_3 C 0.5147(3) 0.5335(2) 0.4823(4)
C3_3 C 0.5606(4) 0.5278(3) 0.4267(5)
C4_2 C 0.6577(3) 0.8308(2) 0.2404(4)
C7_2 C 0.7395(4) 0.9473(3) 0.2410(5)
C8_2 C 0.6640(3) 0.8970(2) 0.1737(4)
C9_3 C 0.5009(4) 0.6069(3) 0.5085(6)
C11_2 C 0.5885(4) 0.9133(3) 0.0445(5)
C12_3 C 0.5290(4) 0.6686(3) 0.4768(5)
H2_3 H 0.513(3) 0.719(3) 0.489(4)
H3_3 H 0.467(3) 0.616(3) 0.544(5)
H5_3 H 0.614(4) 0.585(3) 0.361(5)
H7_3 H 0.556(4) 0.488(3) 0.394(6)
H8_2 H 0.790(4) 0.943(4) 0.326(6)
N2_3 N 0.4275(2) 0.33946(19) 0.5784(3)
C14_3 C 0.4105(4) 0.4090(3) 0.6028(5)
C15_3 C 0.4853(3) 0.4665(2) 0.5177(4)
C16_3 C 0.4394(4) 0.4722(3) 0.5733(5)
C17_3 C 0.4991(4) 0.3931(3) 0.4915(6)
C18_3 C 0.4710(4) 0.3314(3) 0.5232(5)
H9_3 H 0.487(3) 0.281(3) 0.511(4)
H10_3 H 0.533(3) 0.384(3) 0.456(5)
H11_3 H 0.386(4) 0.415(3) 0.639(5)
H12_3 H 0.444(4) 0.512(3) 0.606(6)
O7_2 O 0.4226(2) 0.79891(16) 0.3179(3)
O10_2 O 0.2680(2) 0.81213(16) 0.1493(3)
C19_2 C 0.3423(3) 0.8308(2) 0.2596(4)
C22_2 C 0.2605(4) 0.9473(3) 0.2590(5)
C23_2 C 0.3360(3) 0.8970(2) 0.3263(4)
C24_2 C 0.4103(4) 0.9796(3) 0.5134(5)
C25_2 C 0.4115(4) 0.9133(3) 0.4555(5)
H13_2 H 0.476(4) 0.998(3) 0.611(5)
H14_2 H 0.472(4) 0.873(3) 0.501(5)
H16_2 H 0.210(4) 0.943(4) 0.174(6)
O11_2 O 0.4013(2) 0.72105(15) 0.1110(3)
O13_2 O 0.4129(2) 0.88480(16) 0.1208(3)
O14_2 O 0.5871(2) 0.88480(16) 0.3792(3)
O16_3 O 0.7278(2) 0.84915(16) 0.5634(3)
O17_3 O 0.7680(2) 0.68787(16) 0.6493(3)
C10_2 C 0.5897(4) 0.9796(3) 0.9866(5)
H1_2 H 0.524(4) 0.998(3) 0.889(5)
H4_2 H 0.528(4) 0.873(3) 0.999(5)
N1_4 N 0.4275(2) 0.66054(19) 0.0784(3)
C1_4 C 0.4105(4) 0.5910(3) 0.1028(5)
C2_4 C 0.4853(3) 0.5335(2) 0.0177(4)
C3_4 C 0.4394(4) 0.5278(3) 0.0733(5)
C12_4 C 0.4710(4) 0.6686(3) 0.0232(5)
H2_4 H 0.487(3) 0.719(3) 0.011(4)
H5_4 H 0.386(4) 0.585(3) 0.139(5)
H7_4 H 0.444(4) 0.488(3) 0.106(6)
C17_4 C 0.5009(4) 0.3931(3) 0.0085(6)
H10_4 H 0.467(3) 0.384(3) 0.044(5)
C9_4 C 0.4991(4) 0.6069(3) 0.9915(6)
H3_4 H 0.533(3) 0.616(3) 0.956(5)
N2_4 N 0.5725(2) 0.33946(19) 0.9216(3)
C14_4 C 0.5895(4) 0.4090(3) 0.8972(5)
C15_4 C 0.5147(3) 0.4665(2) 0.9823(4)
C16_4 C 0.5606(4) 0.4722(3) 0.9267(5)
C18_4 C 0.5290(4) 0.3314(3) 0.9768(5)
H9_4 H 0.513(3) 0.281(3) 0.989(4)
H11_4 H 0.614(4) 0.415(3) 0.861(5)
H12_4 H 0.556(4) 0.512(3) 0.894(6)
O16_4 O 0.2722(2) 0.84915(16) 0.9366(3)
O17_4 O 0.2320(2) 0.68787(16) 0.8507(3)
O7_3 O 0.0774(2) 0.70109(16) 0.6821(3)
C19_3 C 0.1577(3) 0.6692(2) 0.7404(4)
C20_3 C 0.1602(3) 0.3952(2) 0.4941(4)
C21_3 C 0.1647(3) 0.4695(2) 0.5566(4)
C22_3 C 0.2395(4) 0.5527(3) 0.7410(5)
C23_3 C 0.1640(3) 0.6030(2) 0.6737(4)
C24_3 C 0.0897(4) 0.5204(3) 0.4866(5)
C25_3 C 0.0885(4) 0.5867(3) 0.5445(5)
C26_3 C 0.2399(4) 0.4866(3) 0.6837(5)
H13_3 H 0.024(4) 0.502(3) 0.389(5)
H14_3 H 0.028(4) 0.627(3) 0.499(5)
H15_3 H 0.295(3) 0.451(3) 0.738(5)
H16_3 H 0.290(4) 0.557(4) 0.826(6)
C5_3 C 0.8398(3) 0.3952(2) 0.0059(4)
C10_3 C 0.9103(4) 0.5204(3) 0.0134(5)
H1_3 H 0.976(4) 0.502(3) 0.111(5)
H4_3 H 0.972(4) 0.627(3) 0.001(5)
O2_3 O 0.9226(2) 0.70109(16) 0.8179(3)
C4_3 C 0.8423(3) 0.6692(2) 0.7596(4)
C6_3 C 0.8353(3) 0.4695(2) 0.9434(4)
C7_3 C 0.7605(4) 0.5527(3) 0.7590(5)
C8_3 C 0.8360(3) 0.6030(2) 0.8263(4)
C11_3 C 0.9115(4) 0.5867(3) 0.9555(5)
C13_3 C 0.7601(4) 0.4866(3) 0.8163(5)
H6_3 H 0.705(3) 0.451(3) 0.762(5)
H8_3 H 0.710(4) 0.557(4) 0.674(6)
C10_4 C 0.4103(4) 0.0204(3) 0.0134(5)
H1_4 H 0.476(4) 0.002(3) 0.111(5)
H4_4 H 0.472(4) 0.127(3) 0.001(5)
O2_4 O 0.4226(2) 0.20109(16) 0.8179(3)
C4_4 C 0.3423(3) 0.1692(2) 0.7596(4)
C7_4 C 0.2605(4) 0.0527(3) 0.7590(5)
C8_4 C 0.3360(3) 0.1030(2) 0.8263(4)
C11_4 C 0.4115(4) 0.0867(3) 0.9555(5)
H8_4 H 0.210(4) 0.057(4) 0.674(6)
O7_4 O 0.5774(2) 0.20109(16) 0.6821(3)
C19_4 C 0.6577(3) 0.1692(2) 0.7404(4)
C22_4 C 0.7395(4) 0.0527(3) 0.7410(5)
C23_4 C 0.6640(3) 0.1030(2) 0.6737(4)
C24_4 C 0.5897(4) 0.0204(3) 0.4866(5)
C25_4 C 0.5885(4) 0.0867(3) 0.5445(5)
H13_4 H 0.524(4) 0.002(3) 0.389(5)
H14_4 H 0.528(4) 0.127(3) 0.499(5)
H16_4 H 0.790(4) 0.057(4) 0.826(6)
C5_4 C 0.3398(3) 0.8952(2) 0.0059(4)
C6_4 C 0.3353(3) 0.9695(2) 0.9434(4)
C13_4 C 0.2601(4) 0.9866(3) 0.8163(5)
H6_4 H 0.205(3) 0.951(3) 0.762(5)
C20_4 C 0.6602(3) 0.8952(2) 0.4941(4)
C21_4 C 0.6647(3) 0.9695(2) 0.5566(4)
C26_4 C 0.7399(4) 0.9866(3) 0.6837(5)
H15_4 H 0.795(3) 0.951(3) 0.738(5)
loop_
_geom_bond_atom_site_label_1
_geom_bond_atom_site_label_2
_geom_bond_site_symmetry_1
_geom_bond_site_symmetry_2
Mg1 O1 1_555 1_555
Mg2 O1 1_555 1_555
O1 N1 1_555 1_555
O2 Mg1 1_555 1_555
O5 Mg2 1_555 1_555
N1 C1 1_555 1_555
C1 C3 1_555 1_555
C2 C3 1_555 1_555
C4 O2 1_555 1_555
C7 C8 1_555 1_555
C8 C4 1_555 1_555
C9 C2 1_555 1_555
C11 C8 1_555 1_555
C12 N1 1_555 1_555
C13 C6 1_555 1_555
H2 C12 1_555 1_555
H5 C1 1_555 1_555
H6 C13 1_555 1_555
H8 C7 1_555 1_555
Mg9 O4 1_555 1_555
O12 Mg2 1_555 1_555
O14 Mg1 1_555 1_555
O15 Mg2 1_555 1_555
O16 Mg2 1_555 1_555
O17 Mg2 1_555 1_555
O5 C4 1_555 1_555
C7 C13 1_555 1_555
C9 C12 1_555 1_555
O3 C5 1_555 1_555
H1 C10 1_555 1_555
Mg5 O3 1_555 1_555
O7 Mg1_2 1_555 1_555
O8 C20 1_555 1_555
O9 C20 1_555 1_555
O10 C19 1_555 1_555
C19 O7 1_555 1_555
C20 C21 1_555 1_555
C21 C24 1_555 1_555
C22 C23 1_555 1_555
C23 C19 1_555 1_555
C24 C25 1_555 1_555
C25 C23 1_555 1_555
C26 C21 1_555 1_555
H13 C24 1_555 1_555
H14 C25 1_555 1_555
H15 C26 1_555 1_555
H16 C22 1_555 1_555
Mg5_2 O8 1_555 1_555
Mg6 O10 1_555 1_555
Mg8 O9 1_555 1_555
O11 Mg1_2 1_555 1_555
O13 Mg1_2 1_555 1_555
C22 C26 1_555 1_555
Mg6 O11 1_555 1_555
O6 N2 1_555 1_555
N2 C14 1_555 1_555
C14 C16 1_555 1_555
C16 C15 1_555 1_555
C17 C15 1_555 1_555
C18 N2 1_555 1_555
H9 C18 1_555 1_555
H11 C14 1_555 1_555
Mg5_2 O6 1_555 1_555
Mg8 O6 1_555 1_555
C17 C18 1_555 1_555
O6_2 N2_2 1_555 1_555
N2_2 C14_2 1_555 1_555
C14_2 C16_2 1_555 1_555
C16_2 C15_2 1_555 1_555
C18_2 N2_2 1_555 1_555
H9_2 C18_2 1_555 1_555
H11_2 C14_2 1_555 1_555
Mg5 O6_2 1_555 1_555
Mg9_2 O6_2 1_555 1_555
O11 N1_2 1_555 1_555
N1_2 C1_2 1_555 1_555
C1_2 C3_2 1_555 1_555
C2_2 C3_2 1_555 1_555
C12_2 N1_2 1_555 1_555
H2_2 C12_2 1_555 1_555
H5_2 C1_2 1_555 1_555
O15_2 Mg6 1_555 1_555
O12_2 Mg6_2 1_555 1_555
O16_2 Mg6_2 1_555 1_555
O17_2 Mg6_2 1_555 1_555
C13_2 C6_2 1_555 1_555
H6_2 C13_2 1_555 1_555
O8_2 C20_2 1_555 1_555
O15 C20_2 1_555 1_555
C20_2 C21_2 1_555 1_555
C26_2 C21_2 1_555 1_555
H15_2 C26_2 1_555 1_555
Mg5_3 O8_2 1_555 1_555
O3_2 C5_2 1_555 1_555
Mg5_3 O3_2 1_555 1_555
Mg1_3 O1_2 1_555 1_555
Mg8 O1_2 1_555 1_555
O1_2 N1_3 1_555 1_555
O2_2 Mg1_3 1_555 1_555
O5_2 Mg8 1_555 1_555
N1_3 C1_3 1_555 1_555
C1_3 C3_3 1_555 1_555
C2_3 C3_3 1_555 1_555
C3_3 H7_3 1_555 1_555
C4_2 O2_2 1_555 1_555
C7_2 C8_2 1_555 1_555
C8_2 C4_2 1_555 1_555
C9_3 C2_3 1_555 1_555
C11_2 C8_2 1_555 1_555
C12_3 N1_3 1_555 1_555
H2_3 C12_3 1_555 1_555
H3_3 C9_3 1_555 1_555
H5_3 C1_3 1_555 1_555
H8_2 C7_2 1_555 1_555
O12 N2_3 1_555 1_555
N2_3 C14_3 1_555 1_555
C14_3 C16_3 1_555 1_555
C15_3 C2_3 1_555 1_555
C16_3 C15_3 1_555 1_555
C17_3 C15_3 1_555 1_555
C18_3 N2_3 1_555 1_555
H9_3 C18_3 1_555 1_555
H10_3 C17_3 1_555 1_555
H11_3 C14_3 1_555 1_555
H12_3 C16_3 1_555 1_555
O7_2 Mg1_3 1_555 1_555
O10_2 C19_2 1_555 1_555
C19_2 O7_2 1_555 1_555
C22_2 C23_2 1_555 1_555
C23_2 C19_2 1_555 1_555
C24_2 C25_2 1_555 1_555
C25_2 C23_2 1_555 1_555
H13_2 C24_2 1_555 1_555
H14_2 C25_2 1_555 1_555
H16_2 C22_2 1_555 1_555
Mg5_3 O12 1_555 1_555
Mg9 O10_2 1_555 1_555
O11_2 Mg1_3 1_555 1_555
O13_2 Mg1_3 1_555 1_555
O14_2 Mg1_3 1_555 1_555
O16_3 Mg8 1_555 1_555
O17_3 Mg8 1_555 1_555
O5_2 C4_2 1_555 1_555
C9_3 C12_3 1_555 1_555
C17_3 C18_3 1_555 1_555
Mg9 O11_2 1_555 1_555
H1_2 C10_2 1_555 1_555
O11_2 N1_4 1_555 1_555
N1_4 C1_4 1_555 1_555
C1_4 C3_4 1_555 1_555
C2_4 C3_4 1_555 1_555
C3_4 H7_4 1_555 1_555
C12_4 N1_4 1_555 1_555
H2_4 C12_4 1_555 1_555
H5_4 C1_4 1_555 1_555
H10_4 C17_4 1_555 1_555
H3_4 C9_4 1_555 1_555
O12_2 N2_4 1_555 1_555
N2_4 C14_4 1_555 1_555
C14_4 C16_4 1_555 1_555
C16_4 C15_4 1_555 1_555
C18_4 N2_4 1_555 1_555
H9_4 C18_4 1_555 1_555
H11_4 C14_4 1_555 1_555
H12_4 C16_4 1_555 1_555
Mg5_3 O12_2 1_555 1_555
O16_4 Mg9_2 1_555 1_555
O17_4 Mg9_2 1_555 1_555
O7_3 Mg5 1_555 1_555
O14 C20_3 1_555 1_555
O16 C20_3 1_555 1_555
O17_4 C19_3 1_555 1_555
C19_3 O7_3 1_555 1_555
C20_3 C21_3 1_555 1_555
C21_3 C24_3 1_555 1_555
C22_3 C23_3 1_555 1_555
C23_3 C19_3 1_555 1_555
C24_3 C25_3 1_555 1_555
C25_3 C23_3 1_555 1_555
C26_3 C21_3 1_555 1_555
H13_3 C24_3 1_555 1_555
H14_3 C25_3 1_555 1_555
H15_3 C26_3 1_555 1_555
H16_3 C22_3 1_555 1_555
C22_3 C26_3 1_555 1_555
O13 C5_3 1_555 1_555
H1_3 C10_3 1_555 1_555
O2_3 Mg5_2 1_555 1_555
C4_3 O2_3 1_555 1_555
C7_3 C8_3 1_555 1_555
C8_3 C4_3 1_555 1_555
C11_3 C8_3 1_555 1_555
C13_3 C6_3 1_555 1_555
H6_3 C13_3 1_555 1_555
H8_3 C7_3 1_555 1_555
O17_3 C4_3 1_555 1_555
C7_3 C13_3 1_555 1_555
H1_4 C10_4 1_555 1_555
O2_4 Mg5_3 1_555 1_555
C4_4 O2_4 1_555 1_555
C7_4 C8_4 1_555 1_555
C8_4 C4_4 1_555 1_555
C11_4 C8_4 1_555 1_555
H8_4 C7_4 1_555 1_555
O7_4 Mg5_3 1_555 1_555
O17_2 C19_4 1_555 1_555
C19_4 O7_4 1_555 1_555
C22_4 C23_4 1_555 1_555
C23_4 C19_4 1_555 1_555
C24_4 C25_4 1_555 1_555
C25_4 C23_4 1_555 1_555
H13_4 C24_4 1_555 1_555
H14_4 C25_4 1_555 1_555
H16_4 C22_4 1_555 1_555
O17 C4_4 1_555 1_555
O13_2 C5_4 1_555 1_555
C13_4 C6_4 1_555 1_555
H6_4 C13_4 1_555 1_555
O14_2 C20_4 1_555 1_555
O16_3 C20_4 1_555 1_555
C20_4 C21_4 1_555 1_555
C26_4 C21_4 1_555 1_555
H15_4 C26_4 1_555 1_555

#END
