
###############################################################################
#
# This file contains modified crystal structure data generated from the
# MOF subset of the Cambridge Structural Database (CSD) v543 
# hosted by the Cambridge Crystallographic Data Centre (CCDC).
#
# This work is licensed under the Creative Commons
# Attribution-NonCommercial-ShareAlike 4.0 International License.
# To view a copy of this license, visit
# http://creativecommons.org/licenses/by-nc-sa/4.0/
# or send a letter to
# Creative Commons, PO Box 1866, Mountain View, CA 94042, USA.
#
# CIF created using the CSD Python API on 29 September 2022
# The structure has been converted into the P1 space group
# The structure has a 3D framework
# The original CSD entry EZESAF is in the monoclinic crystal system
# The framework has been calculated to contain at least 10.0% void space
# The void calculation uses a probe of radius 1.32A, grid spacing 0.4
# H atom positions have been added when not included in the experimental data
#
###############################################################################

data_EZESAF
_chemical_formula_moiety         '(C100 H96 Cu4 N16 O24)n'
_symmetry_cell_setting           triclinic
_symmetry_space_group_name_H-M   'P 1'
_symmetry_Int_Tables_number      1
_space_group_name_Hall           'P 1'
loop_
_symmetry_equiv_pos_site_id
_symmetry_equiv_pos_as_xyz
1 x,y,z
_cell_length_a                   14.1390(11)
_cell_length_b                   20.5709(17)
_cell_length_c                   9.9284(8)
_cell_angle_alpha                90
_cell_angle_beta                 95.786(2)
_cell_angle_gamma                90
_cell_volume                     2872.98
loop_
_atom_site_label
_atom_site_type_symbol
_atom_site_fract_x
_atom_site_fract_y
_atom_site_fract_z
C1 C 0.01719(18) 0.81783(13) 0.2193(3)
O1 O 0.09171(12) 0.80135(9) 0.29597(19)
O2 O 0.00676(16) 0.80997(12) 0.0961(2)
Cu5 Cu 0.189835(19) 0.764355(14) 0.19532(3)
C11 C 0.0161(3) 0.43950(19) 0.6424(4)
H8 H 0.0547 0.4676 0.7041
H9 H 0.0582 0.4095 0.6023
C26 C 0.1544(2) 0.62208(14) 0.1438(3)
H24 H 0.1956 0.6196 0.0766
C27 C 0.1015(2) 0.57268(15) 0.1846(4)
H25 H 0.1002 0.5302 0.1524
C28 C 0.0753(2) 0.65956(14) 0.3006(3)
H26 H 0.0516 0.6870 0.3636
C30 C 0.0350(2) 0.52109(16) 0.4646(4)
H29 H 0.0806 0.4934 0.4256
H30 H 0.0697 0.5494 0.5304
N5 N 0.13761(14) 0.67677(10) 0.2175(2)
N6 N 0.05042(18) 0.59720(12) 0.2821(3)
H38 H 0.8840 0.6110 0.0884
C43 C 0.35491(18) 0.69651(12) 0.1705(3)
C44 C 0.42157(16) 0.65897(11) 0.0904(2)
C45 C 0.49254(17) 0.62096(14) 0.1556(3)
H41 H 0.4997 0.6195 0.2497
C46 C 0.55320(17) 0.58503(13) 0.0840(3)
H42 H 0.6008 0.5598 0.1295
O10 O 0.36471(16) 0.69438(12) 0.2947(2)
O11 O 0.28952(14) 0.72740(9) 0.0990(2)
N9 N 0.23988(14) 0.85204(10) 0.1626(2)
H17 H 0.6576 0.9958 0.0558
C31 C 0.29389(17) 0.86689(13) 0.0657(3)
H31 H 0.3154 0.8372 0.0050
C32 C 0.22451(18) 0.90935(13) 0.2282(3)
H32 H 0.1883 0.9136 0.3008
C33 C 0.26998(19) 0.95872(13) 0.1713(3)
C34 C 0.47069(18) 0.98040(14) 0.0457(3)
H34 H 0.5040 0.9404 0.0717
N8 N 0.31338(14) 0.93076(11) 0.0671(2)
C29 C 0.0161(3) 0.06050(19) 0.1424(4)
H27 H 0.0547 0.0324 0.2041
H28 H 0.0582 0.0905 0.1023
H10 H 0.0806 0.0066 0.9256
H22 H 0.6950 0.0142 0.3549
H23 H 0.6424 0.0164 0.4865
H11 H 0.0697 0.9506 0.0304
Cu1 Cu 0.189835(19) 0.735645(14) 0.69532(3)
C2 C 0.94050(16) 0.85022(12) 0.2903(3)
C3 C 0.94749(19) 0.85433(17) 0.4302(3)
H1 H 0.9984 0.8348 0.4815
C4 C 0.87934(19) 0.88721(17) 0.4944(3)
H2 H 0.8840 0.8890 0.5884
C5 C 0.80441(16) 0.91741(12) 0.4190(3)
C6 C 0.79395(17) 0.91097(13) 0.2803(3)
H3 H 0.7413 0.9286 0.2294
C7 C 0.86265(18) 0.87804(13) 0.2172(3)
H4 H 0.8562 0.8746 0.1233
C8 C 0.1544(2) 0.87792(14) 0.6438(3)
H5 H 0.1956 0.8804 0.5766
C9 C 0.1015(2) 0.92732(15) 0.6846(4)
H6 H 0.1002 0.9698 0.6524
C10 C 0.0753(2) 0.84044(14) 0.8006(3)
H7 H 0.0516 0.8130 0.8636
C12 C 0.0350(2) 0.97891(16) 0.9646(4)
C13 C 0.29389(17) 0.63311(13) 0.5657(3)
H12 H 0.3154 0.6628 0.5050
C14 C 0.22451(18) 0.59065(13) 0.7282(3)
H13 H 0.1883 0.5864 0.8008
C15 C 0.26998(19) 0.54128(13) 0.6713(3)
C16 C 0.47069(18) 0.51960(14) 0.5457(3)
H14 H 0.4637 0.4950 0.6274
H15 H 0.5040 0.5596 0.5717
C17 C 0.37356(19) 0.53569(15) 0.4766(3)
H16 H 0.3807 0.5631 0.3987
H17_2 H 0.3424 0.4958 0.4442
C18 C 0.35491(18) 0.80349(12) 0.6705(3)
C19 C 0.42157(16) 0.84103(11) 0.5904(2)
C20 C 0.49254(17) 0.87904(14) 0.6556(3)
H18 H 0.4997 0.8805 0.7497
C21 C 0.55320(17) 0.91497(13) 0.5840(3)
H19 H 0.6008 0.9402 0.6295
C22 C 0.54264(15) 0.91308(11) 0.4446(2)
C23 C 0.47194(18) 0.87535(14) 0.3773(3)
H20 H 0.4647 0.8742 0.2832
C24 C 0.41237(17) 0.83944(13) 0.4497(3)
H21 H 0.3654 0.8138 0.4040
C25 C 0.66995(17) 0.98757(13) 0.4237(3)
N1 N 0.13761(14) 0.82323(10) 0.7175(2)
N2 N 0.05042(18) 0.90280(12) 0.7821(3)
N3 N 0.23988(14) 0.64796(10) 0.6626(2)
N4 N 0.31338(14) 0.56924(11) 0.5671(2)
O3 O 0.74464(12) 0.95239(10) 0.49341(19)
O4 O 0.36471(16) 0.80562(12) 0.7947(2)
O5 O 0.28952(14) 0.77260(9) 0.5990(2)
O6 O 0.59850(12) 0.94669(9) 0.36203(18)
C31_2 C 0.70611(17) 0.36689(13) 0.4343(3)
H31_2 H 0.6846 0.3372 0.4950
C32_2 C 0.77549(18) 0.40935(13) 0.2718(3)
H32_2 H 0.8117 0.4136 0.1992
C33_2 C 0.73002(19) 0.45872(13) 0.3287(3)
C34_2 C 0.52931(18) 0.48040(14) 0.4543(3)
H33 H 0.5363 0.5050 0.3726
H34_2 H 0.4960 0.4404 0.4283
C35 C 0.62644(19) 0.46431(15) 0.5234(3)
H35 H 0.6193 0.4369 0.6013
H36 H 0.6576 0.5042 0.5558
N7 N 0.76012(14) 0.35204(10) 0.3374(2)
N8_2 N 0.68662(14) 0.43076(11) 0.4329(2)
Cu4 Cu 0.810165(19) 0.264355(14) 0.30468(3)
O14 O 0.09171(12) 0.69865(9) 0.79597(19)
H47 H 0.271874 0.490353 0.701403
H48 H 0.728126 0.509647 0.298597
C26_2 C 0.8456(2) 0.12208(14) 0.3562(3)
H24_2 H 0.8044 0.1196 0.4234
C27_2 C 0.8985(2) 0.07268(15) 0.3154(4)
H25_2 H 0.8998 0.0302 0.3476
C28_2 C 0.9247(2) 0.15956(14) 0.1994(3)
H26_2 H 0.9484 0.1870 0.1364
C30_2 C 0.9650(2) 0.02109(16) 0.0354(4)
N5_2 N 0.86239(14) 0.17677(10) 0.2825(2)
N6_2 N 0.94958(18) 0.09720(12) 0.2179(3)
C37 C 0.05950(16) 0.14978(12) 0.7097(3)
C38 C 0.05251(19) 0.14567(17) 0.5698(3)
H37 H 0.0016 0.1652 0.5185
C39 C 0.12066(19) 0.11279(17) 0.5056(3)
H38_2 H 0.1160 0.1110 0.4116
C40 C 0.19559(16) 0.08259(12) 0.5810(3)
C41 C 0.20605(17) 0.08903(13) 0.7197(3)
H39 H 0.2587 0.0714 0.7706
C42 C 0.13735(18) 0.12196(13) 0.7828(3)
H40 H 0.1438 0.1254 0.8767
C43_2 C 0.64509(18) 0.19651(12) 0.3295(3)
C44_2 C 0.57843(16) 0.15897(11) 0.4096(2)
C45_2 C 0.50746(17) 0.12096(14) 0.3444(3)
H41_2 H 0.5003 0.1195 0.2503
C46_2 C 0.44680(17) 0.08503(13) 0.4160(3)
H42_2 H 0.3992 0.0598 0.3705
C47 C 0.45736(15) 0.08692(11) 0.5554(2)
C48 C 0.52806(18) 0.12465(14) 0.6227(3)
H43 H 0.5353 0.1258 0.7168
C49 C 0.58763(17) 0.16056(13) 0.5503(3)
H44 H 0.6346 0.1862 0.5960
C50 C 0.33005(17) 0.01243(13) 0.5763(3)
O9 O 0.25536(12) 0.04761(10) 0.50659(19)
O10_2 O 0.63529(16) 0.19438(12) 0.2053(2)
O11_2 O 0.71048(14) 0.22740(9) 0.4010(2)
O12 O 0.40150(12) 0.05331(9) 0.63797(18)
O13 O 0.90829(12) 0.30135(9) 0.20403(19)
C36 C 0.01719(18) 0.68217(13) 0.7193(3)
O8 O 0.00676(16) 0.69003(12) 0.5961(2)
C1_2 C 0.98281(18) 0.31783(13) 0.2807(3)
O2_2 O 0.99324(16) 0.30997(12) 0.4039(2)
H30_2 H 0.9303 0.0494 0.9696
H29_2 H 0.9194 0.9934 0.0744
H45 H 0.3050 0.9858 0.6451
H46 H 0.3576 0.9836 0.5135
C11_2 C 0.9839(3) 0.93950(19) 0.8576(4)
H8_2 H 0.9453 0.9676 0.7959
H9_2 H 0.9418 0.9095 0.8977
C36_2 C 0.98281(18) 0.18217(13) 0.7807(3)
O7 O 0.90829(12) 0.19865(9) 0.70403(19)
O8_2 O 0.99324(16) 0.19003(12) 0.9039(2)
Cu3 Cu 0.810165(19) 0.235645(14) 0.80468(3)
H2_2 H 0.1160 0.3890 0.9116
C8_2 C 0.8456(2) 0.37792(14) 0.8562(3)
H5_2 H 0.8044 0.3804 0.9234
C9_2 C 0.8985(2) 0.42732(15) 0.8154(4)
H6_2 H 0.8998 0.4698 0.8476
C10_2 C 0.9247(2) 0.34044(14) 0.6994(3)
H7_2 H 0.9484 0.3130 0.6364
C12_2 C 0.9650(2) 0.47891(16) 0.5354(4)
H10_2 H 0.9194 0.5066 0.5744
H11_2 H 0.9303 0.4506 0.4696
C13_2 C 0.70611(17) 0.13311(13) 0.9343(3)
H12_2 H 0.6846 0.1628 0.9950
C14_2 C 0.77549(18) 0.09065(13) 0.7718(3)
H13_2 H 0.8117 0.0864 0.6992
C15_2 C 0.73002(19) 0.04128(13) 0.8287(3)
C16_2 C 0.52931(18) 0.01960(14) 0.9543(3)
H15_2 H 0.4960 0.0596 0.9283
C18_2 C 0.64509(18) 0.30349(12) 0.8295(3)
C19_2 C 0.57843(16) 0.34103(11) 0.9096(2)
C20_2 C 0.50746(17) 0.37904(14) 0.8444(3)
H18_2 H 0.5003 0.3805 0.7503
C21_2 C 0.44680(17) 0.41497(13) 0.9160(3)
H19_2 H 0.3992 0.4402 0.8705
N1_2 N 0.86239(14) 0.32323(10) 0.7825(2)
N2_2 N 0.94958(18) 0.40280(12) 0.7179(3)
N3_2 N 0.76012(14) 0.14796(10) 0.8374(2)
N4_2 N 0.68662(14) 0.06924(11) 0.9329(2)
O4_2 O 0.63529(16) 0.30562(12) 0.7053(2)
O5_2 O 0.71048(14) 0.27260(9) 0.9010(2)
C29_2 C 0.9839(3) 0.56050(19) 0.3576(4)
H27_2 H 0.9453 0.5324 0.2959
H28_2 H 0.9418 0.5905 0.3977
H36_2 H 0.3424 0.0042 0.9442
C37_2 C 0.94050(16) 0.64978(12) 0.7903(3)
C38_2 C 0.94749(19) 0.64567(17) 0.9302(3)
H37_2 H 0.9984 0.6652 0.9815
C39_2 C 0.87934(19) 0.61279(17) 0.9944(3)
C40_2 C 0.80441(16) 0.58259(12) 0.9190(3)
C41_2 C 0.79395(17) 0.58903(13) 0.7803(3)
H39_2 H 0.7413 0.5714 0.7294
C42_2 C 0.86265(18) 0.62196(13) 0.7172(3)
H40_2 H 0.8562 0.6254 0.6233
C47_2 C 0.54264(15) 0.58692(11) 0.9446(2)
C48_2 C 0.47194(18) 0.62465(14) 0.8773(3)
H43_2 H 0.4647 0.6258 0.7832
C49_2 C 0.41237(17) 0.66056(13) 0.9497(3)
H44_2 H 0.3654 0.6862 0.9040
C50_2 C 0.66995(17) 0.51243(13) 0.9237(3)
H45_2 H 0.6950 0.4858 0.8549
H46_2 H 0.6424 0.4836 0.9865
O9_2 O 0.74464(12) 0.54761(10) 0.99341(19)
O12_2 O 0.59850(12) 0.55331(9) 0.86203(18)
H14_2 H 0.5363 0.9950 0.8726
C35_2 C 0.37356(19) 0.96431(15) 0.9766(3)
H35_2 H 0.3807 0.9369 0.8987
H47_2 H 0.728126 0.990353 0.798597
C2_2 C 0.05950(16) 0.35022(12) 0.2097(3)
C3_2 C 0.05251(19) 0.35433(17) 0.0698(3)
H1_2 H 0.0016 0.3348 0.0185
C4_2 C 0.12066(19) 0.38721(17) 0.0056(3)
C5_2 C 0.19559(16) 0.41741(12) 0.0810(3)
C6_2 C 0.20605(17) 0.41097(13) 0.2197(3)
H3_2 H 0.2587 0.4286 0.2706
C7_2 C 0.13735(18) 0.37804(13) 0.2828(3)
H4_2 H 0.1438 0.3746 0.3767
C17_2 C 0.62644(19) 0.03569(15) 0.0234(3)
H16_2 H 0.6193 0.0631 0.1013
C22_2 C 0.45736(15) 0.41308(11) 0.0554(2)
C23_2 C 0.52806(18) 0.37535(14) 0.1227(3)
H20_2 H 0.5353 0.3742 0.2168
C24_2 C 0.58763(17) 0.33944(13) 0.0503(3)
H21_2 H 0.6346 0.3138 0.0960
C25_2 C 0.33005(17) 0.48757(13) 0.0763(3)
H22_2 H 0.3050 0.5142 0.1451
H23_2 H 0.3576 0.5164 0.0135
O3_2 O 0.25536(12) 0.45239(10) 0.00659(19)
O6_2 O 0.40150(12) 0.44669(9) 0.13797(18)
H33_2 H 0.4637 0.0050 0.1274
H48_2 H 0.271874 0.00964696 0.201403
loop_
_geom_bond_atom_site_label_1
_geom_bond_atom_site_label_2
_geom_bond_site_symmetry_1
_geom_bond_site_symmetry_2
O1 C1 1_555 1_555
O2 C1 1_555 1_555
Cu5 O1 1_555 1_555
C11 H8 1_555 1_555
H9 C11 1_555 1_555
C26 H24 1_555 1_555
C27 C26 1_555 1_555
H25 C27 1_555 1_555
C28 H26 1_555 1_555
H29 C30 1_555 1_555
H30 C30 1_555 1_555
N5 C26 1_555 1_555
N6 C27 1_555 1_555
Cu5 N5 1_555 1_555
C43 C44 1_555 1_555
C44 C45 1_555 1_555
C45 H41 1_555 1_555
C46 C45 1_555 1_555
H42 C46 1_555 1_555
O10 C43 1_555 1_555
O11 Cu5 1_555 1_555
N9 Cu5 1_555 1_555
C28 N5 1_555 1_555
C28 N6 1_555 1_555
C43 O11 1_555 1_555
C31 H31 1_555 1_555
C32 H32 1_555 1_555
C33 C32 1_555 1_555
H34 C34 1_555 1_555
N9 C31 1_555 1_555
N8 C31 1_555 1_555
C32 N9 1_555 1_555
C33 N8 1_555 1_555
C29 H27 1_555 1_555
H28 C29 1_555 1_555
Cu1 N1 1_555 1_555
C2 C3 1_555 1_555
C3 H1 1_555 1_555
C4 C3 1_555 1_555
H2 C4 1_555 1_555
C5 C4 1_555 1_555
C6 C5 1_555 1_555
H3 C6 1_555 1_555
C7 C2 1_555 1_555
H4 C7 1_555 1_555
C8 H5 1_555 1_555
C9 C8 1_555 1_555
H6 C9 1_555 1_555
C10 H7 1_555 1_555
C13 H12 1_555 1_555
C14 H13 1_555 1_555
C15 C14 1_555 1_555
C16 H14 1_555 1_555
H15 C16 1_555 1_555
C17 C16 1_555 1_555
H16 C17 1_555 1_555
H17_2 C17 1_555 1_555
C18 C19 1_555 1_555
C19 C20 1_555 1_555
C20 H18 1_555 1_555
C21 C20 1_555 1_555
H19 C21 1_555 1_555
C22 C21 1_555 1_555
C23 C22 1_555 1_555
H20 C23 1_555 1_555
C24 C19 1_555 1_555
H21 C24 1_555 1_555
N1 C8 1_555 1_555
N2 C9 1_555 1_555
N3 Cu1 1_555 1_555
N4 C13 1_555 1_555
O3 C5 1_555 1_555
O4 C18 1_555 1_555
O5 Cu1 1_555 1_555
O6 C22 1_555 1_555
C31_2 H31_2 1_555 1_555
C32_2 H32_2 1_555 1_555
C33_2 C32_2 1_555 1_555
C34_2 C16 1_555 1_555
H33 C34_2 1_555 1_555
H34_2 C34_2 1_555 1_555
C35 C34_2 1_555 1_555
H35 C35 1_555 1_555
H36 C35 1_555 1_555
N7 C31_2 1_555 1_555
N8_2 C31_2 1_555 1_555
Cu4 N7 1_555 1_555
O14 Cu1 1_555 1_555
C6 C7 1_555 1_555
C10 N1 1_555 1_555
C10 N2 1_555 1_555
C13 N3 1_555 1_555
C14 N3 1_555 1_555
C15 N4 1_555 1_555
C17 N4 1_555 1_555
C18 O5 1_555 1_555
C23 C24 1_555 1_555
C25 O3 1_555 1_555
C25 O6 1_555 1_555
C32_2 N7 1_555 1_555
C33_2 N8_2 1_555 1_555
C35 N8_2 1_555 1_555
C15 H47 1_555 1_555
C33_2 H48 1_555 1_555
C26_2 H24_2 1_555 1_555
C27_2 C26_2 1_555 1_555
H25_2 C27_2 1_555 1_555
C28_2 H26_2 1_555 1_555
N5_2 C26_2 1_555 1_555
N6_2 C27_2 1_555 1_555
Cu4 N5_2 1_555 1_555
C37 C38 1_555 1_555
C38 H37 1_555 1_555
C39 C38 1_555 1_555
H38_2 C39 1_555 1_555
C40 C39 1_555 1_555
C41 C40 1_555 1_555
H39 C41 1_555 1_555
C42 C37 1_555 1_555
H40 C42 1_555 1_555
C43_2 C44_2 1_555 1_555
C44_2 C45_2 1_555 1_555
C45_2 H41_2 1_555 1_555
C46_2 C45_2 1_555 1_555
H42_2 C46_2 1_555 1_555
C47 C46_2 1_555 1_555
C48 C47 1_555 1_555
H43 C48 1_555 1_555
C49 C44_2 1_555 1_555
H44 C49 1_555 1_555
O9 C40 1_555 1_555
O10_2 C43_2 1_555 1_555
O11_2 Cu4 1_555 1_555
O12 C47 1_555 1_555
O13 Cu4 1_555 1_555
C28_2 N5_2 1_555 1_555
C28_2 N6_2 1_555 1_555
C41 C42 1_555 1_555
C43_2 O11_2 1_555 1_555
C48 C49 1_555 1_555
C50 O9 1_555 1_555
C50 O12 1_555 1_555
O14 C36 1_555 1_555
O8 C36 1_555 1_555
O13 C1_2 1_555 1_555
O2_2 C1_2 1_555 1_555
C11_2 H8_2 1_555 1_555
H9_2 C11_2 1_555 1_555
O7 C36_2 1_555 1_555
O8_2 C36_2 1_555 1_555
Cu3 O7 1_555 1_555
Cu3 N1_2 1_555 1_555
C8_2 H5_2 1_555 1_555
C9_2 C8_2 1_555 1_555
H6_2 C9_2 1_555 1_555
C10_2 H7_2 1_555 1_555
H10_2 C12_2 1_555 1_555
H11_2 C12_2 1_555 1_555
C13_2 H12_2 1_555 1_555
C14_2 H13_2 1_555 1_555
C15_2 C14_2 1_555 1_555
H15_2 C16_2 1_555 1_555
C18_2 C19_2 1_555 1_555
C19_2 C20_2 1_555 1_555
C20_2 H18_2 1_555 1_555
C21_2 C20_2 1_555 1_555
H19_2 C21_2 1_555 1_555
N1_2 C8_2 1_555 1_555
N2_2 C9_2 1_555 1_555
N3_2 Cu3 1_555 1_555
N4_2 C13_2 1_555 1_555
O4_2 C18_2 1_555 1_555
O5_2 Cu3 1_555 1_555
C29_2 H27_2 1_555 1_555
H28_2 C29_2 1_555 1_555
C10_2 N1_2 1_555 1_555
C10_2 N2_2 1_555 1_555
C13_2 N3_2 1_555 1_555
C14_2 N3_2 1_555 1_555
C15_2 N4_2 1_555 1_555
C18_2 O5_2 1_555 1_555
C37_2 C38_2 1_555 1_555
C38_2 H37_2 1_555 1_555
C39_2 C38_2 1_555 1_555
C40_2 C39_2 1_555 1_555
C41_2 C40_2 1_555 1_555
H39_2 C41_2 1_555 1_555
C42_2 C37_2 1_555 1_555
H40_2 C42_2 1_555 1_555
C48_2 C47_2 1_555 1_555
H43_2 C48_2 1_555 1_555
H44_2 C49_2 1_555 1_555
C50_2 H45_2 1_555 1_555
H46_2 C50_2 1_555 1_555
O9_2 C40_2 1_555 1_555
O12_2 C47_2 1_555 1_555
C41_2 C42_2 1_555 1_555
C48_2 C49_2 1_555 1_555
C50_2 O9_2 1_555 1_555
C50_2 O12_2 1_555 1_555
H35_2 C35_2 1_555 1_555
C2_2 C3_2 1_555 1_555
C3_2 H1_2 1_555 1_555
C4_2 C3_2 1_555 1_555
C5_2 C4_2 1_555 1_555
C6_2 C5_2 1_555 1_555
H3_2 C6_2 1_555 1_555
C7_2 C2_2 1_555 1_555
H4_2 C7_2 1_555 1_555
H16_2 C17_2 1_555 1_555
C23_2 C22_2 1_555 1_555
H20_2 C23_2 1_555 1_555
H21_2 C24_2 1_555 1_555
C25_2 H22_2 1_555 1_555
H23_2 C25_2 1_555 1_555
O3_2 C5_2 1_555 1_555
O6_2 C22_2 1_555 1_555
C6_2 C7_2 1_555 1_555
C23_2 C24_2 1_555 1_555
C25_2 O3_2 1_555 1_555
C25_2 O6_2 1_555 1_555

#END
