
###############################################################################
#
# This file contains modified crystal structure data generated from the
# MOF subset of the Cambridge Structural Database (CSD) v543 
# hosted by the Cambridge Crystallographic Data Centre (CCDC).
#
# This work is licensed under the Creative Commons
# Attribution-NonCommercial-ShareAlike 4.0 International License.
# To view a copy of this license, visit
# http://creativecommons.org/licenses/by-nc-sa/4.0/
# or send a letter to
# Creative Commons, PO Box 1866, Mountain View, CA 94042, USA.
#
# CIF created using the CSD Python API on 29 September 2022
# The structure has been converted into the P1 space group
# The structure has a 3D framework
# The original CSD entry EZEVOX is in the monoclinic crystal system
# The framework has been calculated to contain at least 10.0% void space
# The void calculation uses a probe of radius 1.32A, grid spacing 0.4
#
###############################################################################

data_EZEVOX
_chemical_formula_moiety         '(C288 H192 I48 N96 Zn24)n'
_symmetry_cell_setting           triclinic
_symmetry_space_group_name_H-M   'P 1'
_symmetry_Int_Tables_number      1
_space_group_name_Hall           'P 1'
loop_
_symmetry_equiv_pos_site_id
_symmetry_equiv_pos_as_xyz
1 x,y,z
_cell_length_a                   34.6182(10)
_cell_length_b                   14.9265(3)
_cell_length_c                   30.6790(8)
_cell_angle_alpha                90
_cell_angle_beta                 101.247(3)
_cell_angle_gamma                90
_cell_volume                     15548.3
loop_
_atom_site_label
_atom_site_type_symbol
_atom_site_fract_x
_atom_site_fract_y
_atom_site_fract_z
I1 I 0.47545(9) 0.1647(4) 0.36730(17)
I3 I 0.3822(2) 0.2402(4) 0.4431(2)
Zn1 Zn 0.4166(2) 0.1293(4) 0.4082(2)
N11 N 0.4338(3) 0.0231(7) 0.4512(4)
C33 C 0.4090(5) 0.0031(9) 0.4765(5)
H21 H 0.387866 0.043139 0.477459
N13 N 0.3799(3) 0.0550(6) 0.3587(3)
I5 I 0.11426(4) 0.23928(6) 0.09308(5)
Zn2 Zn 0.12887(5) 0.09268(11) 0.05771(6)
N9 N 0.1708(3) 0.0263(6) 0.1032(3)
C5 C 0.3476(4) 0.0890(8) 0.3344(4)
H1 H 0.339578 0.147363 0.341286
C10 C 0.3253(4) 0.0441(8) 0.2999(4)
H2 H 0.302636 0.071992 0.282748
C20 C 0.2202(4) 0.0263(9) 0.1703(4)
H8 H 0.233674 0.057034 0.195889
C23 C 0.1913(4) 0.0702(8) 0.1410(5)
H11 H 0.185230 0.130703 0.146529
N14 N 0.0801(4) 0.0119(6) 0.0552(4)
C36 C 0.0625(7) 0.0037(16) 0.0866(7)
H24 H 0.073232 0.037545 0.112380
I2 I 0.26339(4) 0.73520(6) 0.70207(4)
I6 I 0.37134(4) 0.67180(8) 0.80343(4)
Zn3 Zn 0.32639(6) 0.64736(11) 0.72846(7)
N1 N 0.4253(3) 0.7786(6) 0.5599(4)
N2 N 0.4774(3) 0.7275(6) 0.5259(3)
N3 N 0.3215(3) 0.1832(5) 0.7510(3)
N4 N 0.4611(3) 0.6447(6) 0.5849(3)
N5 N 0.2680(3) 0.1937(5) 0.6894(3)
N7 N 0.2816(3) 0.0539(6) 0.7267(3)
N8 N 0.3162(3) 0.5089(7) 0.7238(4)
N10 N 0.5801(4) 0.4881(6) 0.5552(4)
N12 N 0.3582(4) 0.6641(6) 0.6792(4)
C1 C 0.4827(4) 0.6603(7) 0.5550(4)
C2 C 0.4443(4) 0.8698(7) 0.5028(4)
C3 C 0.2971(4) 0.2281(7) 0.7191(4)
C4 C 0.2302(3) 0.0605(7) 0.6634(4)
C6 C 0.3113(4) 0.0953(6) 0.7537(4)
C7 C 0.4486(4) 0.7863(7) 0.5319(4)
C8 C 0.4067(4) 0.6908(7) 0.6181(4)
C9 C 0.4321(4) 0.7048(7) 0.5858(4)
C11 C 0.3354(4) 0.0430(7) 0.7895(4)
C12 C 0.3044(4) 0.3256(6) 0.7189(4)
C13 C 0.4706(4) 0.8928(8) 0.4762(4)
H3 H 0.492932 0.856099 0.475699
C14 C 0.2792(4) 0.3818(7) 0.6920(5)
H4 H 0.257380 0.358073 0.671583
C15 C 0.2616(3) 0.1069(7) 0.6939(3)
C16 C 0.2856(4) 0.4752(7) 0.6947(5)
H5 H 0.268142 0.514382 0.675894
C17 C 0.3664(5) 0.0815(9) 0.8178(6)
H6 H 0.372391 0.143225 0.815497
C18 C 0.5160(3) 0.5994(8) 0.5524(4)
C19 C 0.3403(4) 0.4548(8) 0.7487(5)
H7 H 0.362492 0.479536 0.768094
C21 C 0.3352(4) 0.3625(8) 0.7484(4)
H9 H 0.352769 0.325452 0.768254
C22 C 0.3704(5) 0.7309(9) 0.6129(5)
H10 H 0.361162 0.768011 0.587860
C24 C 0.4648(4) 0.9679(9) 0.4507(5)
H12 H 0.482794 0.981895 0.431955
C25 C 0.5344(5) 0.5945(10) 0.5185(5)
H13 H 0.525347 0.630930 0.493137
C26 C 0.5662(4) 0.5386(9) 0.5185(5)
H14 H 0.578209 0.535366 0.493263
C27 C 0.2085(4) 0.1039(8) 0.6262(5)
H15 H 0.214568 0.163683 0.619227
C28 C 0.4120(5) 0.9236(9) 0.5030(5)
H16 H 0.392645 0.908585 0.519859
C29 C 0.3890(5) 0.0273(8) 0.8502(5)
H17 H 0.412554 0.051800 0.867234
C30 C 0.1779(5) 0.0572(8) 0.5997(5)
H18 H 0.160902 0.089895 0.577178
C31 C 0.4183(5) 0.6342(12) 0.6559(5)
H19 H 0.442346 0.601806 0.659998
C32 C 0.3479(5) 0.7168(9) 0.6441(5)
H20 H 0.323190 0.746533 0.640407
C34 C 0.5303(6) 0.5463(14) 0.5899(5)
H22 H 0.518472 0.545318 0.615412
C35 C 0.3945(6) 0.6276(16) 0.6856(8)
H23 H 0.403770 0.595679 0.712429
C36_2 C 0.5625(7) 0.4963(16) 0.5866(7)
H24_2 H 0.573232 0.462455 0.612380
Zn5 Zn 0.62887(5) 0.40732(11) 0.55771(6)
I4 I 0.65067(3) 0.42358(9) 0.48407(4)
I5_2 I 0.61426(4) 0.26072(6) 0.59308(5)
N3_2 N 0.8215(3) 0.6832(5) 0.7510(3)
N5_2 N 0.7680(3) 0.6937(5) 0.6894(3)
N6 N 0.8799(3) 0.4450(6) 0.8587(3)
N7_2 N 0.7816(3) 0.5539(6) 0.7267(3)
N9_2 N 0.6708(3) 0.4737(6) 0.6032(3)
C3_2 C 0.7971(4) 0.7281(7) 0.7191(4)
C4_2 C 0.7302(3) 0.5605(7) 0.6634(4)
C5_2 C 0.8476(4) 0.4110(8) 0.8344(4)
H1_2 H 0.839578 0.352637 0.841286
C6_2 C 0.8113(4) 0.5953(6) 0.7537(4)
C10_2 C 0.8253(4) 0.4559(8) 0.7999(4)
H2_2 H 0.802636 0.428008 0.782748
C11_2 C 0.8354(4) 0.5430(7) 0.7895(4)
C12_2 C 0.8044(4) 0.8256(6) 0.7189(4)
C14_2 C 0.7792(4) 0.8818(7) 0.6920(5)
H4_2 H 0.757380 0.858073 0.671583
C15_2 C 0.7616(3) 0.6069(7) 0.6939(3)
C16_2 C 0.7856(4) 0.9752(7) 0.6947(5)
C17_2 C 0.8664(5) 0.5815(9) 0.8178(6)
H6_2 H 0.872391 0.643225 0.815497
C19_2 C 0.8403(4) 0.9548(8) 0.7487(5)
H7_2 H 0.862492 0.979536 0.768094
C20_2 C 0.7202(4) 0.4737(9) 0.6703(4)
H8_2 H 0.733674 0.442966 0.695889
C21_2 C 0.8352(4) 0.8625(8) 0.7484(4)
H9_2 H 0.852769 0.825452 0.768254
C23_2 C 0.6913(4) 0.4298(8) 0.6410(5)
H11_2 H 0.685230 0.369297 0.646529
C27_2 C 0.7085(4) 0.6039(8) 0.6262(5)
H15_2 H 0.714568 0.663683 0.619227
C29_2 C 0.8890(5) 0.5273(8) 0.8502(5)
H17_2 H 0.912554 0.551800 0.867234
C30_2 C 0.6779(5) 0.5572(8) 0.5997(5)
H18_2 H 0.660902 0.589895 0.577178
Zn4 Zn 0.9166(2) 0.3707(4) 0.9082(2)
I1_2 I 0.97545(9) 0.3353(4) 0.86730(17)
I3_2 I 0.8822(2) 0.2598(4) 0.9431(2)
N11_2 N 0.9338(3) 0.4769(7) 0.9512(4)
C13_2 C 0.9706(4) 0.6072(8) 0.9762(4)
H3_2 H 0.992932 0.643901 0.975699
C24_2 C 0.9648(4) 0.5321(9) 0.9507(5)
H12_2 H 0.982794 0.518105 0.931955
C33_2 C 0.9090(5) 0.4969(9) 0.9765(5)
H21_2 H 0.887866 0.456861 0.977459
I4_2 I 0.15067(3) 0.92358(9) 0.48407(4)
I5_3 I 0.11426(4) 0.76072(6) 0.59308(5)
Zn2_2 Zn 0.12887(5) 0.90732(11) 0.55771(6)
N6_2 N 0.3799(3) 0.9450(6) 0.8587(3)
N9_3 N 0.1708(3) 0.9737(6) 0.6032(3)
C5_3 C 0.3476(4) 0.9110(8) 0.8344(4)
H1_3 H 0.339578 0.852637 0.841286
C10_3 C 0.3253(4) 0.9559(8) 0.7999(4)
H2_3 H 0.302636 0.928008 0.782748
C20_3 C 0.2202(4) 0.9737(9) 0.6703(4)
H8_3 H 0.233674 0.942966 0.695889
C23_3 C 0.1913(4) 0.9298(8) 0.6410(5)
H11_3 H 0.185230 0.869297 0.646529
Zn4_2 Zn 0.4166(2) 0.8707(4) 0.9082(2)
N14_2 N 0.0801(4) 0.9881(6) 0.5552(4)
C36_3 C 0.0625(7) 0.9963(16) 0.5866(7)
H24_3 H 0.073232 0.962455 0.612380
I1_3 I 0.47545(9) 0.8353(4) 0.86730(17)
I3_3 I 0.3822(2) 0.7598(4) 0.9431(2)
N11_3 N 0.4338(3) 0.9769(7) 0.9512(4)
C33_3 C 0.4090(5) 0.9969(9) 0.9765(5)
H21_3 H 0.387866 0.956861 0.977459
I1_4 I 0.52455(9) 0.1647(4) 0.13270(17)
I3_4 I 0.6178(2) 0.2402(4) 0.0569(2)
Zn1_2 Zn 0.5834(2) 0.1293(4) 0.0918(2)
N11_4 N 0.5662(3) 0.0231(7) 0.0488(4)
C33_4 C 0.5910(5) 0.0031(9) 0.0235(5)
H21_4 H 0.612134 0.043139 0.022541
N13_2 N 0.6201(3) 0.0550(6) 0.1413(3)
I4_3 I 0.84933(3) 0.07642(9) 0.51593(4)
I5_4 I 0.88574(4) 0.23928(6) 0.40692(5)
Zn2_3 Zn 0.87113(5) 0.09268(11) 0.44229(6)
N9_4 N 0.8292(3) 0.0263(6) 0.3968(3)
C5_4 C 0.6524(4) 0.0890(8) 0.1656(4)
H1_4 H 0.660422 0.147363 0.158714
C10_4 C 0.6747(4) 0.0441(8) 0.2001(4)
H2_4 H 0.697364 0.071992 0.217252
C20_4 C 0.7798(4) 0.0263(9) 0.3297(4)
H8_4 H 0.766326 0.057034 0.304111
C23_4 C 0.8087(4) 0.0702(8) 0.3590(5)
H11_4 H 0.814770 0.130703 0.353471
N14_3 N 0.9199(4) 0.0119(6) 0.4448(4)
C36_4 C 0.9375(7) 0.0037(16) 0.4134(7)
H24_4 H 0.926768 0.037545 0.387620
C13_3 C 0.5294(4) 0.8928(8) 0.0238(4)
H3_3 H 0.507068 0.856099 0.024301
C24_3 C 0.5352(4) 0.9679(9) 0.0493(5)
H12_3 H 0.517206 0.981895 0.068045
H13_2 H 0.474653 0.630930 0.006863
H14_2 H 0.421791 0.535366 0.006737
I2_2 I 0.73661(4) 0.73520(6) 0.79793(4)
I6_2 I 0.62866(4) 0.67180(8) 0.69657(4)
Zn3_2 Zn 0.67361(6) 0.64736(11) 0.77154(7)
N1_2 N 0.5747(3) 0.7786(6) 0.9401(4)
N2_2 N 0.5226(3) 0.7275(6) 0.9741(3)
N3_3 N 0.6785(3) 0.1832(5) 0.7490(3)
N4_2 N 0.5389(3) 0.6447(6) 0.9151(3)
N5_3 N 0.7320(3) 0.1937(5) 0.8106(3)
N7_3 N 0.7184(3) 0.0539(6) 0.7733(3)
N8_2 N 0.6838(3) 0.5089(7) 0.7762(4)
N10_2 N 0.4199(4) 0.4881(6) 0.9448(4)
N12_2 N 0.6418(4) 0.6641(6) 0.8208(4)
C1_2 C 0.5173(4) 0.6603(7) 0.9450(4)
C2_2 C 0.5557(4) 0.8698(7) 0.9972(4)
C3_3 C 0.7029(4) 0.2281(7) 0.7809(4)
C4_3 C 0.7698(3) 0.0605(7) 0.8366(4)
C6_3 C 0.6887(4) 0.0953(6) 0.7463(4)
C7_2 C 0.5514(4) 0.7863(7) 0.9681(4)
C8_2 C 0.5933(4) 0.6908(7) 0.8819(4)
C9_2 C 0.5679(4) 0.7048(7) 0.9142(4)
C11_3 C 0.6646(4) 0.0430(7) 0.7105(4)
C12_3 C 0.6956(4) 0.3256(6) 0.7811(4)
C14_3 C 0.7208(4) 0.3818(7) 0.8080(5)
H4_3 H 0.742620 0.358073 0.828417
C15_3 C 0.7384(3) 0.1069(7) 0.8061(3)
C16_3 C 0.7144(4) 0.4752(7) 0.8053(5)
H5_2 H 0.731858 0.514382 0.824106
C17_3 C 0.6336(5) 0.0815(9) 0.6822(6)
H6_3 H 0.627609 0.143225 0.684503
C18_2 C 0.4840(3) 0.5994(8) 0.9476(4)
C19_3 C 0.6597(4) 0.4548(8) 0.7513(5)
H7_3 H 0.637508 0.479536 0.731906
C21_3 C 0.6648(4) 0.3625(8) 0.7516(4)
H9_3 H 0.647231 0.325452 0.731746
C22_2 C 0.6296(5) 0.7309(9) 0.8871(5)
H10_2 H 0.638838 0.768011 0.912140
C25_2 C 0.4656(5) 0.5945(10) 0.9815(5)
C26_2 C 0.4338(4) 0.5386(9) 0.9815(5)
C27_3 C 0.7915(4) 0.1039(8) 0.8738(5)
H15_3 H 0.785432 0.163683 0.880773
C28_2 C 0.5880(5) 0.9236(9) 0.9970(5)
H16_2 H 0.607355 0.908585 0.980141
C29_3 C 0.6110(5) 0.0273(8) 0.6498(5)
H17_3 H 0.587446 0.051800 0.632766
C30_3 C 0.8221(5) 0.0572(8) 0.9003(5)
H18_3 H 0.839098 0.089895 0.922822
C31_2 C 0.5817(5) 0.6342(12) 0.8441(5)
H19_2 H 0.557654 0.601806 0.840002
C32_2 C 0.6521(5) 0.7168(9) 0.8559(5)
H20_2 H 0.676810 0.746533 0.859593
C34_2 C 0.4697(6) 0.5463(14) 0.9101(5)
H22_2 H 0.481528 0.545318 0.884588
C35_2 C 0.6055(6) 0.6276(16) 0.8144(8)
H23_2 H 0.596230 0.595679 0.787571
C36_5 C 0.4375(7) 0.4963(16) 0.9134(7)
H24_5 H 0.426768 0.462455 0.887620
Zn5_2 Zn 0.37113(5) 0.40732(11) 0.94229(6)
I5_5 I 0.38574(4) 0.26072(6) 0.90692(5)
N3_4 N 0.1785(3) 0.6832(5) 0.7490(3)
N5_4 N 0.2320(3) 0.6937(5) 0.8106(3)
N6_3 N 0.1201(3) 0.4450(6) 0.6413(3)
N7_4 N 0.2184(3) 0.5539(6) 0.7733(3)
N9_5 N 0.3292(3) 0.4737(6) 0.8968(3)
C3_4 C 0.2029(4) 0.7281(7) 0.7809(4)
C4_4 C 0.2698(3) 0.5605(7) 0.8366(4)
C5_5 C 0.1524(4) 0.4110(8) 0.6656(4)
H1_5 H 0.160422 0.352637 0.658714
C6_4 C 0.1887(4) 0.5953(6) 0.7463(4)
C10_5 C 0.1747(4) 0.4559(8) 0.7001(4)
H2_5 H 0.197364 0.428008 0.717252
C11_4 C 0.1646(4) 0.5430(7) 0.7105(4)
C12_4 C 0.1956(4) 0.8256(6) 0.7811(4)
C14_4 C 0.2208(4) 0.8818(7) 0.8080(5)
H4_4 H 0.242620 0.858073 0.828417
C15_4 C 0.2384(3) 0.6069(7) 0.8061(3)
C16_4 C 0.2144(4) 0.9752(7) 0.8053(5)
C17_4 C 0.1336(5) 0.5815(9) 0.6822(6)
H6_4 H 0.127609 0.643225 0.684503
C19_4 C 0.1597(4) 0.9548(8) 0.7513(5)
H7_4 H 0.137508 0.979536 0.731906
C20_5 C 0.2798(4) 0.4737(9) 0.8297(4)
H8_5 H 0.266326 0.442966 0.804111
C21_4 C 0.1648(4) 0.8625(8) 0.7516(4)
H9_4 H 0.147231 0.825452 0.731746
C23_5 C 0.3087(4) 0.4298(8) 0.8590(5)
H11_5 H 0.314770 0.369297 0.853471
C27_4 C 0.2915(4) 0.6039(8) 0.8738(5)
H15_4 H 0.285432 0.663683 0.880773
C29_4 C 0.1110(5) 0.5273(8) 0.6498(5)
H17_4 H 0.087446 0.551800 0.632766
C30_4 C 0.3221(5) 0.5572(8) 0.9003(5)
H18_4 H 0.339098 0.589895 0.922822
Zn4_3 Zn 0.0834(2) 0.3707(4) 0.5918(2)
I1_5 I 0.02455(9) 0.3353(4) 0.63270(17)
I2_3 I 0.23661(4) 0.76480(6) 0.29793(4)
I3_5 I 0.1178(2) 0.2598(4) 0.5569(2)
I6_3 I 0.12866(4) 0.82820(8) 0.19657(4)
Zn3_3 Zn 0.17361(6) 0.85264(11) 0.27154(7)
N1_3 N 0.0747(3) 0.7214(6) 0.4401(4)
N2_3 N 0.0226(3) 0.7725(6) 0.4741(3)
N4_3 N 0.0389(3) 0.8553(6) 0.4151(3)
N8_3 N 0.1838(3) 0.9911(7) 0.2762(4)
N11_5 N 0.0662(3) 0.4769(7) 0.5488(4)
N12_3 N 0.1418(4) 0.8359(6) 0.3208(4)
C1_3 C 0.0173(4) 0.8397(7) 0.4450(4)
C2_3 C 0.0557(4) 0.6302(7) 0.4972(4)
C7_3 C 0.0514(4) 0.7137(7) 0.4681(4)
C8_3 C 0.0933(4) 0.8092(7) 0.3819(4)
C9_3 C 0.0679(4) 0.7952(7) 0.4142(4)
C13_4 C 0.0294(4) 0.6072(8) 0.5238(4)
H3_4 H 0.007068 0.643901 0.524301
H5_3 H 0.231858 0.985618 0.324106
C22_3 C 0.1296(5) 0.7691(9) 0.3871(5)
H10_3 H 0.138838 0.731989 0.412140
C24_4 C 0.0352(4) 0.5321(9) 0.5493(5)
H12_4 H 0.017206 0.518105 0.568045
C28_3 C 0.0880(5) 0.5764(9) 0.4970(5)
H16_3 H 0.107355 0.591415 0.480141
C31_3 C 0.0817(5) 0.8658(12) 0.3441(5)
H19_3 H 0.057654 0.898194 0.340002
C32_3 C 0.1521(5) 0.7832(9) 0.3559(5)
H20_3 H 0.176810 0.753467 0.359593
C33_5 C 0.0910(5) 0.4969(9) 0.5235(5)
H21_5 H 0.112134 0.456861 0.522541
C35_3 C 0.1055(6) 0.8724(16) 0.3144(8)
H23_3 H 0.096230 0.904321 0.287571
I4_4 I 0.84933(3) 0.92358(9) 0.01593(4)
I5_6 I 0.88574(4) 0.76072(6) 0.90692(5)
Zn2_4 Zn 0.87113(5) 0.90732(11) 0.94229(6)
N6_4 N 0.6201(3) 0.9450(6) 0.6413(3)
N9_6 N 0.8292(3) 0.9737(6) 0.8968(3)
C5_6 C 0.6524(4) 0.9110(8) 0.6656(4)
H1_6 H 0.660422 0.852637 0.658714
C10_6 C 0.6747(4) 0.9559(8) 0.7001(4)
H2_6 H 0.697364 0.928008 0.717252
C20_6 C 0.7798(4) 0.9737(9) 0.8297(4)
H8_6 H 0.766326 0.942966 0.804111
C23_6 C 0.8087(4) 0.9298(8) 0.8590(5)
H11_6 H 0.814770 0.869297 0.853471
Zn4_4 Zn 0.5834(2) 0.8707(4) 0.5918(2)
N14_4 N 0.9199(4) 0.9881(6) 0.9448(4)
C36_6 C 0.9375(7) 0.9963(16) 0.9134(7)
H24_6 H 0.926768 0.962455 0.887620
I1_6 I 0.52455(9) 0.8353(4) 0.63270(17)
I3_6 I 0.6178(2) 0.7598(4) 0.5569(2)
N11_6 N 0.5662(3) 0.9769(7) 0.5488(4)
C33_6 C 0.5910(5) 0.9969(9) 0.5235(5)
H21_6 H 0.612134 0.956861 0.522541
C18_3 C 0.0160(3) 0.0994(8) 0.5524(4)
C25_3 C 0.0344(5) 0.0945(10) 0.5185(5)
H13_3 H 0.025347 0.130930 0.493137
C26_3 C 0.0662(4) 0.0386(9) 0.5185(5)
H14_3 H 0.078209 0.035366 0.493263
C34_3 C 0.0303(6) 0.0463(14) 0.5899(5)
H22_3 H 0.018472 0.045318 0.615412
I1_7 I 0.97545(9) 0.6647(4) 0.36730(17)
I2_4 I 0.76339(4) 0.23520(6) 0.70207(4)
I3_7 I 0.8822(2) 0.7402(4) 0.4431(2)
I6_4 I 0.87134(4) 0.17180(8) 0.80343(4)
Zn1_3 Zn 0.9166(2) 0.6293(4) 0.4082(2)
Zn3_4 Zn 0.82639(6) 0.14736(11) 0.72846(7)
N1_4 N 0.9253(3) 0.2786(6) 0.5599(4)
N2_4 N 0.9774(3) 0.2275(6) 0.5259(3)
N4_4 N 0.9611(3) 0.1447(6) 0.5849(3)
N8_4 N 0.8162(3) 0.0089(7) 0.7238(4)
N11_7 N 0.9338(3) 0.5231(7) 0.4512(4)
N12_4 N 0.8582(4) 0.1641(6) 0.6792(4)
C1_4 C 0.9827(4) 0.1603(7) 0.5550(4)
C2_4 C 0.9443(4) 0.3698(7) 0.5028(4)
C7_4 C 0.9486(4) 0.2863(7) 0.5319(4)
C8_4 C 0.9067(4) 0.1908(7) 0.6181(4)
C9_4 C 0.9321(4) 0.2048(7) 0.5858(4)
C13_5 C 0.9706(4) 0.3928(8) 0.4762(4)
H3_5 H 0.992932 0.356099 0.475699
H5_4 H 0.768142 0.014382 0.675894
C22_4 C 0.8704(5) 0.2309(9) 0.6129(5)
H10_4 H 0.861162 0.268011 0.587860
C24_5 C 0.9648(4) 0.4679(9) 0.4507(5)
H12_5 H 0.982794 0.481895 0.431955
C28_4 C 0.9120(5) 0.4236(9) 0.5030(5)
H16_4 H 0.892645 0.408585 0.519859
C31_4 C 0.9183(5) 0.1342(12) 0.6559(5)
H19_4 H 0.942346 0.101806 0.659998
C32_4 C 0.8479(5) 0.2168(9) 0.6441(5)
H20_4 H 0.823190 0.246533 0.640407
C33_7 C 0.9090(5) 0.5031(9) 0.4765(5)
H21_7 H 0.887866 0.543139 0.477459
C35_4 C 0.8945(6) 0.1276(16) 0.6856(8)
H23_4 H 0.903770 0.095679 0.712429
N13_3 N 0.8799(3) 0.5550(6) 0.3587(3)
I2_5 I 0.26339(4) 0.26480(6) 0.20207(4)
I6_5 I 0.37134(4) 0.32820(8) 0.30343(4)
Zn3_5 Zn 0.32639(6) 0.35264(11) 0.22846(7)
N1_5 N 0.4253(3) 0.2214(6) 0.0599(4)
N2_5 N 0.4774(3) 0.2725(6) 0.0259(3)
N3_5 N 0.3215(3) 0.8168(5) 0.2510(3)
N4_5 N 0.4611(3) 0.3553(6) 0.0849(3)
N5_5 N 0.2680(3) 0.8063(5) 0.1894(3)
N7_5 N 0.2816(3) 0.9461(6) 0.2267(3)
N8_5 N 0.3162(3) 0.4911(7) 0.2238(4)
N10_3 N 0.5801(4) 0.5119(6) 0.0552(4)
N12_5 N 0.3582(4) 0.3359(6) 0.1792(4)
C1_5 C 0.4827(4) 0.3397(7) 0.0550(4)
C2_5 C 0.4443(4) 0.1302(7) 0.0028(4)
C3_5 C 0.2971(4) 0.7719(7) 0.2191(4)
C4_5 C 0.2302(3) 0.9395(7) 0.1634(4)
C6_5 C 0.3113(4) 0.9047(6) 0.2537(4)
C7_5 C 0.4486(4) 0.2137(7) 0.0319(4)
C8_5 C 0.4067(4) 0.3092(7) 0.1181(4)
C9_5 C 0.4321(4) 0.2952(7) 0.0858(4)
C11_5 C 0.3354(4) 0.9570(7) 0.2895(4)
C12_5 C 0.3044(4) 0.6744(6) 0.2189(4)
C14_5 C 0.2792(4) 0.6182(7) 0.1920(5)
H4_5 H 0.257380 0.641927 0.171583
C15_5 C 0.2616(3) 0.8931(7) 0.1939(3)
C16_5 C 0.2856(4) 0.5248(7) 0.1947(5)
H5_5 H 0.268142 0.485618 0.175894
C17_5 C 0.3664(5) 0.9185(9) 0.3178(6)
H6_5 H 0.372391 0.856775 0.315497
C18_4 C 0.5160(3) 0.4006(8) 0.0524(4)
C19_5 C 0.3403(4) 0.5452(8) 0.2487(5)
H7_5 H 0.362492 0.520464 0.268094
C21_5 C 0.3352(4) 0.6375(8) 0.2484(4)
H9_5 H 0.352769 0.674548 0.268254
C22_5 C 0.3704(5) 0.2691(9) 0.1129(5)
H10_5 H 0.361162 0.231989 0.087860
C25_4 C 0.5344(5) 0.4055(10) 0.0185(5)
C26_4 C 0.5662(4) 0.4614(9) 0.0185(5)
C27_5 C 0.2085(4) 0.8961(8) 0.1262(5)
H15_5 H 0.214568 0.836317 0.119227
C28_5 C 0.4120(5) 0.0764(9) 0.0030(5)
H16_5 H 0.392645 0.091415 0.019859
C29_5 C 0.3890(5) 0.9727(8) 0.3502(5)
H17_5 H 0.412554 0.948200 0.367234
C30_5 C 0.1779(5) 0.9428(8) 0.0997(5)
H18_5 H 0.160902 0.910105 0.077178
C31_5 C 0.4183(5) 0.3658(12) 0.1559(5)
H19_5 H 0.442346 0.398194 0.159998
C32_5 C 0.3479(5) 0.2832(9) 0.1441(5)
H20_5 H 0.323190 0.253467 0.140407
C34_4 C 0.5303(6) 0.4537(14) 0.0899(5)
H22_4 H 0.518472 0.454682 0.115412
C35_5 C 0.3945(6) 0.3724(16) 0.1856(8)
H23_5 H 0.403770 0.404321 0.212429
C36_7 C 0.5625(7) 0.5037(16) 0.0866(7)
H24_7 H 0.573232 0.537545 0.112380
Zn5_3 Zn 0.62887(5) 0.59268(11) 0.05771(6)
I5_7 I 0.61426(4) 0.73928(6) 0.09308(5)
N3_6 N 0.8215(3) 0.3168(5) 0.2510(3)
N5_6 N 0.7680(3) 0.3063(5) 0.1894(3)
N7_6 N 0.7816(3) 0.4461(6) 0.2267(3)
N9_7 N 0.6708(3) 0.5263(6) 0.1032(3)
C3_6 C 0.7971(4) 0.2719(7) 0.2191(4)
C4_6 C 0.7302(3) 0.4395(7) 0.1634(4)
C5_7 C 0.8476(4) 0.5890(8) 0.3344(4)
H1_7 H 0.839578 0.647363 0.341286
C6_6 C 0.8113(4) 0.4047(6) 0.2537(4)
C10_7 C 0.8253(4) 0.5441(8) 0.2999(4)
H2_7 H 0.802636 0.571992 0.282748
C11_6 C 0.8354(4) 0.4570(7) 0.2895(4)
C12_6 C 0.8044(4) 0.1744(6) 0.2189(4)
C14_6 C 0.7792(4) 0.1182(7) 0.1920(5)
H4_6 H 0.757380 0.141927 0.171583
C15_6 C 0.7616(3) 0.3931(7) 0.1939(3)
C16_6 C 0.7856(4) 0.0248(7) 0.1947(5)
C17_6 C 0.8664(5) 0.4185(9) 0.3178(6)
H6_6 H 0.872391 0.356775 0.315497
C19_6 C 0.8403(4) 0.0452(8) 0.2487(5)
H7_6 H 0.862492 0.020464 0.268094
C20_7 C 0.7202(4) 0.5263(9) 0.1703(4)
H8_7 H 0.733674 0.557034 0.195889
C21_6 C 0.8352(4) 0.1375(8) 0.2484(4)
H9_6 H 0.852769 0.174548 0.268254
C23_7 C 0.6913(4) 0.5702(8) 0.1410(5)
H11_7 H 0.685230 0.630703 0.146529
C27_6 C 0.7085(4) 0.3961(8) 0.1262(5)
H15_6 H 0.714568 0.336317 0.119227
C29_6 C 0.8890(5) 0.4727(8) 0.3502(5)
H17_6 H 0.912554 0.448200 0.367234
C30_6 C 0.6779(5) 0.4428(8) 0.0997(5)
H18_6 H 0.660902 0.410105 0.077178
I1_8 I 0.02455(9) 0.6647(4) 0.13270(17)
I3_8 I 0.1178(2) 0.7402(4) 0.0569(2)
Zn1_4 Zn 0.0834(2) 0.6293(4) 0.0918(2)
N11_8 N 0.0662(3) 0.5231(7) 0.0488(4)
C13_6 C 0.0294(4) 0.3928(8) 0.0238(4)
H3_6 H 0.007068 0.356099 0.024301
C24_6 C 0.0352(4) 0.4679(9) 0.0493(5)
H12_6 H 0.017206 0.481895 0.068045
C33_8 C 0.0910(5) 0.5031(9) 0.0235(5)
H21_8 H 0.112134 0.543139 0.022541
N13_4 N 0.1201(3) 0.5550(6) 0.1413(3)
I2_6 I 0.73661(4) 0.26480(6) 0.29793(4)
I6_6 I 0.62866(4) 0.32820(8) 0.19657(4)
Zn3_6 Zn 0.67361(6) 0.35264(11) 0.27154(7)
N1_6 N 0.5747(3) 0.2214(6) 0.4401(4)
N2_6 N 0.5226(3) 0.2725(6) 0.4741(3)
N3_7 N 0.6785(3) 0.8168(5) 0.2490(3)
N4_6 N 0.5389(3) 0.3553(6) 0.4151(3)
N5_7 N 0.7320(3) 0.8063(5) 0.3106(3)
N7_7 N 0.7184(3) 0.9461(6) 0.2733(3)
N8_6 N 0.6838(3) 0.4911(7) 0.2762(4)
N10_4 N 0.4199(4) 0.5119(6) 0.4448(4)
N12_6 N 0.6418(4) 0.3359(6) 0.3208(4)
C1_6 C 0.5173(4) 0.3397(7) 0.4450(4)
C2_6 C 0.5557(4) 0.1302(7) 0.4972(4)
C3_7 C 0.7029(4) 0.7719(7) 0.2809(4)
C4_7 C 0.7698(3) 0.9395(7) 0.3366(4)
C6_7 C 0.6887(4) 0.9047(6) 0.2463(4)
C7_6 C 0.5514(4) 0.2137(7) 0.4681(4)
C8_6 C 0.5933(4) 0.3092(7) 0.3819(4)
C9_6 C 0.5679(4) 0.2952(7) 0.4142(4)
C11_7 C 0.6646(4) 0.9570(7) 0.2105(4)
C12_7 C 0.6956(4) 0.6744(6) 0.2811(4)
C13_7 C 0.5294(4) 0.1072(8) 0.5238(4)
H3_7 H 0.507068 0.143901 0.524301
C14_7 C 0.7208(4) 0.6182(7) 0.3080(5)
H4_7 H 0.742620 0.641927 0.328417
C15_7 C 0.7384(3) 0.8931(7) 0.3061(3)
C16_7 C 0.7144(4) 0.5248(7) 0.3053(5)
H5_6 H 0.731858 0.485618 0.324106
C17_7 C 0.6336(5) 0.9185(9) 0.1822(6)
H6_7 H 0.627609 0.856775 0.184503
C18_5 C 0.4840(3) 0.4006(8) 0.4476(4)
C19_7 C 0.6597(4) 0.5452(8) 0.2513(5)
H7_7 H 0.637508 0.520464 0.231906
C21_7 C 0.6648(4) 0.6375(8) 0.2516(4)
H9_7 H 0.647231 0.674548 0.231746
C22_6 C 0.6296(5) 0.2691(9) 0.3871(5)
H10_6 H 0.638838 0.231989 0.412140
C24_7 C 0.5352(4) 0.0321(9) 0.5493(5)
H12_7 H 0.517206 0.018105 0.568045
C25_5 C 0.4656(5) 0.4055(10) 0.4815(5)
H13_4 H 0.474653 0.369070 0.506863
C26_5 C 0.4338(4) 0.4614(9) 0.4815(5)
H14_4 H 0.421791 0.464634 0.506737
C27_7 C 0.7915(4) 0.8961(8) 0.3738(5)
H15_7 H 0.785432 0.836317 0.380773
C28_6 C 0.5880(5) 0.0764(9) 0.4970(5)
H16_6 H 0.607355 0.091415 0.480141
C29_7 C 0.6110(5) 0.9727(8) 0.1498(5)
H17_7 H 0.587446 0.948200 0.132766
C30_7 C 0.8221(5) 0.9428(8) 0.4003(5)
H18_7 H 0.839098 0.910105 0.422822
C31_6 C 0.5817(5) 0.3658(12) 0.3441(5)
H19_6 H 0.557654 0.398194 0.340002
C32_6 C 0.6521(5) 0.2832(9) 0.3559(5)
H20_6 H 0.676810 0.253467 0.359593
C34_5 C 0.4697(6) 0.4537(14) 0.4101(5)
H22_5 H 0.481528 0.454682 0.384588
C35_6 C 0.6055(6) 0.3724(16) 0.3144(8)
H23_6 H 0.596230 0.404321 0.287571
C36_8 C 0.4375(7) 0.5037(16) 0.4134(7)
H24_8 H 0.426768 0.537545 0.387620
Zn5_4 Zn 0.37113(5) 0.59268(11) 0.44229(6)
I4_5 I 0.34933(3) 0.57642(9) 0.51593(4)
I5_8 I 0.38574(4) 0.73928(6) 0.40692(5)
N3_8 N 0.1785(3) 0.3168(5) 0.2490(3)
N5_8 N 0.2320(3) 0.3063(5) 0.3106(3)
N7_8 N 0.2184(3) 0.4461(6) 0.2733(3)
N9_8 N 0.3292(3) 0.5263(6) 0.3968(3)
C3_8 C 0.2029(4) 0.2719(7) 0.2809(4)
C4_8 C 0.2698(3) 0.4395(7) 0.3366(4)
C5_8 C 0.1524(4) 0.5890(8) 0.1656(4)
H1_8 H 0.160422 0.647363 0.158714
C6_8 C 0.1887(4) 0.4047(6) 0.2463(4)
C10_8 C 0.1747(4) 0.5441(8) 0.2001(4)
H2_8 H 0.197364 0.571992 0.217252
C11_8 C 0.1646(4) 0.4570(7) 0.2105(4)
C12_8 C 0.1956(4) 0.1744(6) 0.2811(4)
C14_8 C 0.2208(4) 0.1182(7) 0.3080(5)
H4_8 H 0.242620 0.141927 0.328417
C15_8 C 0.2384(3) 0.3931(7) 0.3061(3)
C16_8 C 0.2144(4) 0.0248(7) 0.3053(5)
C17_8 C 0.1336(5) 0.4185(9) 0.1822(6)
H6_8 H 0.127609 0.356775 0.184503
C19_8 C 0.1597(4) 0.0452(8) 0.2513(5)
H7_8 H 0.137508 0.020464 0.231906
C20_8 C 0.2798(4) 0.5263(9) 0.3297(4)
H8_8 H 0.266326 0.557034 0.304111
C21_8 C 0.1648(4) 0.1375(8) 0.2516(4)
H9_8 H 0.147231 0.174548 0.231746
C23_8 C 0.3087(4) 0.5702(8) 0.3590(5)
H11_8 H 0.314770 0.630703 0.353471
C27_8 C 0.2915(4) 0.3961(8) 0.3738(5)
H15_8 H 0.285432 0.336317 0.380773
C29_8 C 0.1110(5) 0.4727(8) 0.1498(5)
H17_8 H 0.087446 0.448200 0.132766
C30_8 C 0.3221(5) 0.4428(8) 0.4003(5)
H18_8 H 0.339098 0.410105 0.422822
I2_7 I 0.23661(4) 0.23520(6) 0.79793(4)
I6_7 I 0.12866(4) 0.17180(8) 0.69657(4)
Zn3_7 Zn 0.17361(6) 0.14736(11) 0.77154(7)
N1_7 N 0.0747(3) 0.2786(6) 0.9401(4)
N2_7 N 0.0226(3) 0.2275(6) 0.9741(3)
N4_7 N 0.0389(3) 0.1447(6) 0.9151(3)
N8_7 N 0.1838(3) 0.0089(7) 0.7762(4)
N12_7 N 0.1418(4) 0.1641(6) 0.8208(4)
C1_7 C 0.0173(4) 0.1603(7) 0.9450(4)
C2_7 C 0.0557(4) 0.3698(7) 0.9972(4)
C7_7 C 0.0514(4) 0.2863(7) 0.9681(4)
C8_7 C 0.0933(4) 0.1908(7) 0.8819(4)
C9_7 C 0.0679(4) 0.2048(7) 0.9142(4)
H5_7 H 0.231858 0.014382 0.824106
C22_7 C 0.1296(5) 0.2309(9) 0.8871(5)
H10_7 H 0.138838 0.268011 0.912140
C28_7 C 0.0880(5) 0.4236(9) 0.9970(5)
H16_7 H 0.107355 0.408585 0.980141
C31_7 C 0.0817(5) 0.1342(12) 0.8441(5)
H19_7 H 0.057654 0.101806 0.840002
C32_7 C 0.1521(5) 0.2168(9) 0.8559(5)
H20_7 H 0.176810 0.246533 0.859593
C35_7 C 0.1055(6) 0.1276(16) 0.8144(8)
H23_7 H 0.096230 0.095679 0.787571
I4_6 I 0.34933(3) 0.42358(9) 0.01593(4)
H13_5 H 0.974653 0.130930 0.006863
H14_5 H 0.921791 0.035366 0.006737
C18_6 C 0.9840(3) 0.0994(8) 0.9476(4)
C25_6 C 0.9656(5) 0.0945(10) 0.9815(5)
C26_6 C 0.9338(4) 0.0386(9) 0.9815(5)
C34_6 C 0.9697(6) 0.0463(14) 0.9101(5)
H22_6 H 0.981528 0.045318 0.884588
I4_7 I 0.15067(3) 0.07642(9) 0.98407(4)
C13_8 C 0.4706(4) 0.1072(8) 0.9762(4)
H3_8 H 0.492932 0.143901 0.975699
C24_8 C 0.4648(4) 0.0321(9) 0.9507(5)
H12_8 H 0.482794 0.018105 0.931955
H13_6 H 0.525347 0.369070 0.993137
H14_6 H 0.578209 0.464634 0.993263
C18_7 C 0.9840(3) 0.9006(8) 0.4476(4)
C25_7 C 0.9656(5) 0.9055(10) 0.4815(5)
H13_7 H 0.974653 0.869070 0.506863
C26_7 C 0.9338(4) 0.9614(9) 0.4815(5)
H14_7 H 0.921791 0.964634 0.506737
C34_7 C 0.9697(6) 0.9537(14) 0.4101(5)
H22_7 H 0.981528 0.954682 0.384588
C18_8 C 0.0160(3) 0.9006(8) 0.0524(4)
C25_8 C 0.0344(5) 0.9055(10) 0.0185(5)
C26_8 C 0.0662(4) 0.9614(9) 0.0185(5)
C34_8 C 0.0303(6) 0.9537(14) 0.0899(5)
H22_8 H 0.018472 0.954682 0.115412
H13_8 H 0.025347 0.869070 0.993137
H14_8 H 0.078209 0.964634 0.993263
I4_8 I 0.65067(3) 0.57642(9) 0.98407(4)
I2_8 I 0.76339(4) 0.76480(6) 0.20207(4)
I6_8 I 0.87134(4) 0.82820(8) 0.30343(4)
Zn3_8 Zn 0.82639(6) 0.85264(11) 0.22846(7)
N1_8 N 0.9253(3) 0.7214(6) 0.0599(4)
N2_8 N 0.9774(3) 0.7725(6) 0.0259(3)
N4_8 N 0.9611(3) 0.8553(6) 0.0849(3)
N8_8 N 0.8162(3) 0.9911(7) 0.2238(4)
N12_8 N 0.8582(4) 0.8359(6) 0.1792(4)
C1_8 C 0.9827(4) 0.8397(7) 0.0550(4)
C2_8 C 0.9443(4) 0.6302(7) 0.0028(4)
C7_8 C 0.9486(4) 0.7137(7) 0.0319(4)
C8_8 C 0.9067(4) 0.8092(7) 0.1181(4)
C9_8 C 0.9321(4) 0.7952(7) 0.0858(4)
H5_8 H 0.768142 0.985618 0.175894
C22_8 C 0.8704(5) 0.7691(9) 0.1129(5)
H10_8 H 0.861162 0.731989 0.087860
C28_8 C 0.9120(5) 0.5764(9) 0.0030(5)
H16_8 H 0.892645 0.591415 0.019859
C31_8 C 0.9183(5) 0.8658(12) 0.1559(5)
H19_8 H 0.942346 0.898194 0.159998
C32_8 C 0.8479(5) 0.7832(9) 0.1441(5)
H20_8 H 0.823190 0.753467 0.140407
C35_8 C 0.8945(6) 0.8724(16) 0.1856(8)
H23_8 H 0.903770 0.904321 0.212429
loop_
_geom_bond_atom_site_label_1
_geom_bond_atom_site_label_2
_geom_bond_site_symmetry_1
_geom_bond_site_symmetry_2
I1 Zn1 1_555 1_555
I3 Zn1 1_555 1_555
Zn1 N11 1_555 1_555
C33 N11 1_555 1_555
H21 C33 1_555 1_555
N13 Zn1 1_555 1_555
I5 Zn2 1_555 1_555
Zn2 N9 1_555 1_555
N13 C5 1_555 1_555
N9 C23 1_555 1_555
C5 H1 1_555 1_555
C10 C5 1_555 1_555
H2 C10 1_555 1_555
H8 C20 1_555 1_555
C23 C20 1_555 1_555
H11 C23 1_555 1_555
N14 Zn2 1_555 1_555
C36 N14 1_555 1_555
H24 C36 1_555 1_555
I2 Zn3 1_555 1_555
I6 Zn3 1_555 1_555
Zn3 N8 1_555 1_555
N1 C7 1_555 1_555
N2 C1 1_555 1_555
N3 C3 1_555 1_555
N4 C1 1_555 1_555
N5 C3 1_555 1_555
N7 C6 1_555 1_555
N8 C16 1_555 1_555
N10 C26 1_555 1_555
N12 Zn3 1_555 1_555
C1 C18 1_555 1_555
C2 C7 1_555 1_555
C3 C12 1_555 1_555
C4 C15 1_555 1_555
C6 N3 1_555 1_555
C7 N2 1_555 1_555
C8 C9 1_555 1_555
C9 N1 1_555 1_555
C11 C6 1_555 1_555
C12 C14 1_555 1_555
C13 C2 1_555 1_555
H3 C13 1_555 1_555
C14 H4 1_555 1_555
C15 N5 1_555 1_555
C16 C14 1_555 1_555
H5 C16 1_555 1_555
C17 C11 1_555 1_555
H6 C17 1_555 1_555
C18 C25 1_555 1_555
C19 N8 1_555 1_555
H7 C19 1_555 1_555
C21 C12 1_555 1_555
H9 C21 1_555 1_555
C22 C8 1_555 1_555
H10 C22 1_555 1_555
C24 C13 1_555 1_555
H12 C24 1_555 1_555
C25 H13 1_555 1_555
C26 C25 1_555 1_555
H14 C26 1_555 1_555
C27 C4 1_555 1_555
H15 C27 1_555 1_555
C28 C2 1_555 1_555
H16 C28 1_555 1_555
H17 C29 1_555 1_555
H18 C30 1_555 1_555
C31 C8 1_555 1_555
H19 C31 1_555 1_555
C32 N12 1_555 1_555
H20 C32 1_555 1_555
C34 C18 1_555 1_555
H22 C34 1_555 1_555
C35 N12 1_555 1_555
H23 C35 1_555 1_555
C36_2 N10 1_555 1_555
H24_2 C36_2 1_555 1_555
Zn5 N10 1_555 1_555
N4 C9 1_555 1_555
N7 C15 1_555 1_555
C17 C29 1_555 1_555
C19 C21 1_555 1_555
C22 C32 1_555 1_555
C27 C30 1_555 1_555
C31 C35 1_555 1_555
C34 C36_2 1_555 1_555
I4 Zn5 1_555 1_555
I5_2 Zn5 1_555 1_555
Zn5 N9_2 1_555 1_555
N3_2 C3_2 1_555 1_555
N5_2 C3_2 1_555 1_555
N6 C5_2 1_555 1_555
N7_2 C6_2 1_555 1_555
N9_2 C23_2 1_555 1_555
C3_2 C12_2 1_555 1_555
C4_2 C15_2 1_555 1_555
C5_2 H1_2 1_555 1_555
C6_2 N3_2 1_555 1_555
C10_2 C5_2 1_555 1_555
H2_2 C10_2 1_555 1_555
C11_2 C6_2 1_555 1_555
C12_2 C14_2 1_555 1_555
C14_2 H4_2 1_555 1_555
C15_2 N5_2 1_555 1_555
C16_2 C14_2 1_555 1_555
C17_2 C11_2 1_555 1_555
H6_2 C17_2 1_555 1_555
H7_2 C19_2 1_555 1_555
C20_2 C4_2 1_555 1_555
H8_2 C20_2 1_555 1_555
C21_2 C12_2 1_555 1_555
H9_2 C21_2 1_555 1_555
C23_2 C20_2 1_555 1_555
H11_2 C23_2 1_555 1_555
C27_2 C4_2 1_555 1_555
H15_2 C27_2 1_555 1_555
C29_2 N6 1_555 1_555
H17_2 C29_2 1_555 1_555
C30_2 N9_2 1_555 1_555
H18_2 C30_2 1_555 1_555
Zn4 N6 1_555 1_555
N7_2 C15_2 1_555 1_555
C10_2 C11_2 1_555 1_555
C17_2 C29_2 1_555 1_555
C19_2 C21_2 1_555 1_555
C27_2 C30_2 1_555 1_555
I1_2 Zn4 1_555 1_555
I3_2 Zn4 1_555 1_555
Zn4 N11_2 1_555 1_555
N11_2 C24_2 1_555 1_555
H3_2 C13_2 1_555 1_555
C24_2 C13_2 1_555 1_555
H12_2 C24_2 1_555 1_555
C33_2 N11_2 1_555 1_555
H21_2 C33_2 1_555 1_555
I4_2 Zn2_2 1_555 1_555
I5_3 Zn2_2 1_555 1_555
Zn2_2 N9_3 1_555 1_555
N6_2 C5_3 1_555 1_555
N9_3 C23_3 1_555 1_555
C5_3 H1_3 1_555 1_555
C10_3 C5_3 1_555 1_555
H2_3 C10_3 1_555 1_555
H8_3 C20_3 1_555 1_555
C23_3 C20_3 1_555 1_555
H11_3 C23_3 1_555 1_555
Zn4_2 N6_2 1_555 1_555
N14_2 Zn2_2 1_555 1_555
C36_3 N14_2 1_555 1_555
H24_3 C36_3 1_555 1_555
I1_3 Zn4_2 1_555 1_555
I3_3 Zn4_2 1_555 1_555
Zn4_2 N11_3 1_555 1_555
C33_3 N11_3 1_555 1_555
H21_3 C33_3 1_555 1_555
I1_4 Zn1_2 1_555 1_555
I3_4 Zn1_2 1_555 1_555
Zn1_2 N11_4 1_555 1_555
C33_4 N11_4 1_555 1_555
H21_4 C33_4 1_555 1_555
N13_2 Zn1_2 1_555 1_555
I4_3 Zn2_3 1_555 1_555
I5_4 Zn2_3 1_555 1_555
Zn2_3 N9_4 1_555 1_555
N13_2 C5_4 1_555 1_555
N9_4 C23_4 1_555 1_555
C5_4 H1_4 1_555 1_555
C10_4 C5_4 1_555 1_555
H2_4 C10_4 1_555 1_555
H8_4 C20_4 1_555 1_555
C23_4 C20_4 1_555 1_555
H11_4 C23_4 1_555 1_555
N14_3 Zn2_3 1_555 1_555
C36_4 N14_3 1_555 1_555
H24_4 C36_4 1_555 1_555
H3_3 C13_3 1_555 1_555
C24_3 C13_3 1_555 1_555
H12_3 C24_3 1_555 1_555
I2_2 Zn3_2 1_555 1_555
I6_2 Zn3_2 1_555 1_555
Zn3_2 N8_2 1_555 1_555
N1_2 C7_2 1_555 1_555
N2_2 C1_2 1_555 1_555
N3_3 C3_3 1_555 1_555
N4_2 C1_2 1_555 1_555
N5_3 C3_3 1_555 1_555
N7_3 C6_3 1_555 1_555
N8_2 C16_3 1_555 1_555
N10_2 C26_2 1_555 1_555
N12_2 Zn3_2 1_555 1_555
C1_2 C18_2 1_555 1_555
C2_2 C7_2 1_555 1_555
C3_3 C12_3 1_555 1_555
C4_3 C15_3 1_555 1_555
C6_3 N3_3 1_555 1_555
C7_2 N2_2 1_555 1_555
C8_2 C9_2 1_555 1_555
C9_2 N1_2 1_555 1_555
C11_3 C6_3 1_555 1_555
C12_3 C14_3 1_555 1_555
C14_3 H4_3 1_555 1_555
C15_3 N5_3 1_555 1_555
C16_3 C14_3 1_555 1_555
H5_2 C16_3 1_555 1_555
C17_3 C11_3 1_555 1_555
H6_3 C17_3 1_555 1_555
C18_2 C25_2 1_555 1_555
C19_3 N8_2 1_555 1_555
H7_3 C19_3 1_555 1_555
C21_3 C12_3 1_555 1_555
H9_3 C21_3 1_555 1_555
C22_2 C8_2 1_555 1_555
H10_2 C22_2 1_555 1_555
C26_2 C25_2 1_555 1_555
C27_3 C4_3 1_555 1_555
H15_3 C27_3 1_555 1_555
C28_2 C2_2 1_555 1_555
H16_2 C28_2 1_555 1_555
H17_3 C29_3 1_555 1_555
H18_3 C30_3 1_555 1_555
C31_2 C8_2 1_555 1_555
H19_2 C31_2 1_555 1_555
C32_2 N12_2 1_555 1_555
H20_2 C32_2 1_555 1_555
C34_2 C18_2 1_555 1_555
H22_2 C34_2 1_555 1_555
C35_2 N12_2 1_555 1_555
H23_2 C35_2 1_555 1_555
C36_5 N10_2 1_555 1_555
H24_5 C36_5 1_555 1_555
Zn5_2 N10_2 1_555 1_555
N4_2 C9_2 1_555 1_555
N7_3 C15_3 1_555 1_555
C17_3 C29_3 1_555 1_555
C19_3 C21_3 1_555 1_555
C22_2 C32_2 1_555 1_555
C27_3 C30_3 1_555 1_555
C31_2 C35_2 1_555 1_555
C34_2 C36_5 1_555 1_555
I5_5 Zn5_2 1_555 1_555
Zn5_2 N9_5 1_555 1_555
N3_4 C3_4 1_555 1_555
N5_4 C3_4 1_555 1_555
N6_3 C5_5 1_555 1_555
N7_4 C6_4 1_555 1_555
N9_5 C23_5 1_555 1_555
C3_4 C12_4 1_555 1_555
C4_4 C15_4 1_555 1_555
C5_5 H1_5 1_555 1_555
C6_4 N3_4 1_555 1_555
C10_5 C5_5 1_555 1_555
H2_5 C10_5 1_555 1_555
C11_4 C6_4 1_555 1_555
C12_4 C14_4 1_555 1_555
C14_4 H4_4 1_555 1_555
C15_4 N5_4 1_555 1_555
C16_4 C14_4 1_555 1_555
C17_4 C11_4 1_555 1_555
H6_4 C17_4 1_555 1_555
H7_4 C19_4 1_555 1_555
C20_5 C4_4 1_555 1_555
H8_5 C20_5 1_555 1_555
C21_4 C12_4 1_555 1_555
H9_4 C21_4 1_555 1_555
C23_5 C20_5 1_555 1_555
H11_5 C23_5 1_555 1_555
C27_4 C4_4 1_555 1_555
H15_4 C27_4 1_555 1_555
C29_4 N6_3 1_555 1_555
H17_4 C29_4 1_555 1_555
C30_4 N9_5 1_555 1_555
H18_4 C30_4 1_555 1_555
Zn4_3 N6_3 1_555 1_555
N7_4 C15_4 1_555 1_555
C10_5 C11_4 1_555 1_555
C17_4 C29_4 1_555 1_555
C19_4 C21_4 1_555 1_555
C27_4 C30_4 1_555 1_555
I1_5 Zn4_3 1_555 1_555
I2_3 Zn3_3 1_555 1_555
I3_5 Zn4_3 1_555 1_555
I6_3 Zn3_3 1_555 1_555
Zn4_3 N11_5 1_555 1_555
Zn3_3 N8_3 1_555 1_555
N1_3 C7_3 1_555 1_555
N2_3 C1_3 1_555 1_555
N4_3 C1_3 1_555 1_555
N11_5 C24_4 1_555 1_555
N12_3 Zn3_3 1_555 1_555
C2_3 C7_3 1_555 1_555
C7_3 N2_3 1_555 1_555
C8_3 C9_3 1_555 1_555
C9_3 N1_3 1_555 1_555
C13_4 C2_3 1_555 1_555
H3_4 C13_4 1_555 1_555
C22_3 C8_3 1_555 1_555
H10_3 C22_3 1_555 1_555
C24_4 C13_4 1_555 1_555
H12_4 C24_4 1_555 1_555
C28_3 C2_3 1_555 1_555
H16_3 C28_3 1_555 1_555
C31_3 C8_3 1_555 1_555
H19_3 C31_3 1_555 1_555
C32_3 N12_3 1_555 1_555
H20_3 C32_3 1_555 1_555
C33_5 N11_5 1_555 1_555
H21_5 C33_5 1_555 1_555
C35_3 N12_3 1_555 1_555
H23_3 C35_3 1_555 1_555
N4_3 C9_3 1_555 1_555
C22_3 C32_3 1_555 1_555
C28_3 C33_5 1_555 1_555
C31_3 C35_3 1_555 1_555
I5_6 Zn2_4 1_555 1_555
Zn2_4 N9_6 1_555 1_555
N6_4 C5_6 1_555 1_555
N9_6 C23_6 1_555 1_555
C5_6 H1_6 1_555 1_555
C10_6 C5_6 1_555 1_555
H2_6 C10_6 1_555 1_555
H8_6 C20_6 1_555 1_555
C23_6 C20_6 1_555 1_555
H11_6 C23_6 1_555 1_555
Zn4_4 N6_4 1_555 1_555
N14_4 Zn2_4 1_555 1_555
C36_6 N14_4 1_555 1_555
H24_6 C36_6 1_555 1_555
I1_6 Zn4_4 1_555 1_555
I3_6 Zn4_4 1_555 1_555
Zn4_4 N11_6 1_555 1_555
C33_6 N11_6 1_555 1_555
H21_6 C33_6 1_555 1_555
C18_3 C25_3 1_555 1_555
C25_3 H13_3 1_555 1_555
C26_3 C25_3 1_555 1_555
H14_3 C26_3 1_555 1_555
C34_3 C18_3 1_555 1_555
H22_3 C34_3 1_555 1_555
I1_7 Zn1_3 1_555 1_555
I2_4 Zn3_4 1_555 1_555
I3_7 Zn1_3 1_555 1_555
I6_4 Zn3_4 1_555 1_555
Zn1_3 N11_7 1_555 1_555
Zn3_4 N8_4 1_555 1_555
N1_4 C7_4 1_555 1_555
N2_4 C1_4 1_555 1_555
N4_4 C1_4 1_555 1_555
N11_7 C24_5 1_555 1_555
N12_4 Zn3_4 1_555 1_555
C2_4 C7_4 1_555 1_555
C7_4 N2_4 1_555 1_555
C8_4 C9_4 1_555 1_555
C9_4 N1_4 1_555 1_555
C13_5 C2_4 1_555 1_555
H3_5 C13_5 1_555 1_555
C22_4 C8_4 1_555 1_555
H10_4 C22_4 1_555 1_555
C24_5 C13_5 1_555 1_555
H12_5 C24_5 1_555 1_555
C28_4 C2_4 1_555 1_555
H16_4 C28_4 1_555 1_555
C31_4 C8_4 1_555 1_555
H19_4 C31_4 1_555 1_555
C32_4 N12_4 1_555 1_555
H20_4 C32_4 1_555 1_555
C33_7 N11_7 1_555 1_555
H21_7 C33_7 1_555 1_555
C35_4 N12_4 1_555 1_555
H23_4 C35_4 1_555 1_555
N13_3 Zn1_3 1_555 1_555
N4_4 C9_4 1_555 1_555
C22_4 C32_4 1_555 1_555
C28_4 C33_7 1_555 1_555
C31_4 C35_4 1_555 1_555
I2_5 Zn3_5 1_555 1_555
I6_5 Zn3_5 1_555 1_555
Zn3_5 N8_5 1_555 1_555
N1_5 C7_5 1_555 1_555
N2_5 C1_5 1_555 1_555
N3_5 C3_5 1_555 1_555
N4_5 C1_5 1_555 1_555
N5_5 C3_5 1_555 1_555
N7_5 C6_5 1_555 1_555
N8_5 C16_5 1_555 1_555
N10_3 C26_4 1_555 1_555
N12_5 Zn3_5 1_555 1_555
C1_5 C18_4 1_555 1_555
C2_5 C7_5 1_555 1_555
C3_5 C12_5 1_555 1_555
C4_5 C15_5 1_555 1_555
C6_5 N3_5 1_555 1_555
C7_5 N2_5 1_555 1_555
C8_5 C9_5 1_555 1_555
C9_5 N1_5 1_555 1_555
C11_5 C6_5 1_555 1_555
C12_5 C14_5 1_555 1_555
C14_5 H4_5 1_555 1_555
C15_5 N5_5 1_555 1_555
C16_5 C14_5 1_555 1_555
H5_5 C16_5 1_555 1_555
C17_5 C11_5 1_555 1_555
H6_5 C17_5 1_555 1_555
C18_4 C25_4 1_555 1_555
C19_5 N8_5 1_555 1_555
H7_5 C19_5 1_555 1_555
C21_5 C12_5 1_555 1_555
H9_5 C21_5 1_555 1_555
C22_5 C8_5 1_555 1_555
H10_5 C22_5 1_555 1_555
C26_4 C25_4 1_555 1_555
C27_5 C4_5 1_555 1_555
H15_5 C27_5 1_555 1_555
C28_5 C2_5 1_555 1_555
H16_5 C28_5 1_555 1_555
H17_5 C29_5 1_555 1_555
H18_5 C30_5 1_555 1_555
C31_5 C8_5 1_555 1_555
H19_5 C31_5 1_555 1_555
C32_5 N12_5 1_555 1_555
H20_5 C32_5 1_555 1_555
C34_4 C18_4 1_555 1_555
H22_4 C34_4 1_555 1_555
C35_5 N12_5 1_555 1_555
H23_5 C35_5 1_555 1_555
C36_7 N10_3 1_555 1_555
H24_7 C36_7 1_555 1_555
Zn5_3 N10_3 1_555 1_555
N4_5 C9_5 1_555 1_555
N7_5 C15_5 1_555 1_555
C17_5 C29_5 1_555 1_555
C19_5 C21_5 1_555 1_555
C22_5 C32_5 1_555 1_555
C27_5 C30_5 1_555 1_555
C31_5 C35_5 1_555 1_555
C34_4 C36_7 1_555 1_555
I5_7 Zn5_3 1_555 1_555
Zn5_3 N9_7 1_555 1_555
N3_6 C3_6 1_555 1_555
N5_6 C3_6 1_555 1_555
N13_3 C5_7 1_555 1_555
N7_6 C6_6 1_555 1_555
N9_7 C23_7 1_555 1_555
C3_6 C12_6 1_555 1_555
C4_6 C15_6 1_555 1_555
C5_7 H1_7 1_555 1_555
C6_6 N3_6 1_555 1_555
C10_7 C5_7 1_555 1_555
H2_7 C10_7 1_555 1_555
C11_6 C6_6 1_555 1_555
C12_6 C14_6 1_555 1_555
C14_6 H4_6 1_555 1_555
C15_6 N5_6 1_555 1_555
C16_6 C14_6 1_555 1_555
C17_6 C11_6 1_555 1_555
H6_6 C17_6 1_555 1_555
H7_6 C19_6 1_555 1_555
C20_7 C4_6 1_555 1_555
H8_7 C20_7 1_555 1_555
C21_6 C12_6 1_555 1_555
H9_6 C21_6 1_555 1_555
C23_7 C20_7 1_555 1_555
H11_7 C23_7 1_555 1_555
C27_6 C4_6 1_555 1_555
H15_6 C27_6 1_555 1_555
C29_6 N13_3 1_555 1_555
H17_6 C29_6 1_555 1_555
C30_6 N9_7 1_555 1_555
H18_6 C30_6 1_555 1_555
N7_6 C15_6 1_555 1_555
C10_7 C11_6 1_555 1_555
C17_6 C29_6 1_555 1_555
C19_6 C21_6 1_555 1_555
C27_6 C30_6 1_555 1_555
I1_8 Zn1_4 1_555 1_555
I3_8 Zn1_4 1_555 1_555
Zn1_4 N11_8 1_555 1_555
N11_8 C24_6 1_555 1_555
H3_6 C13_6 1_555 1_555
C24_6 C13_6 1_555 1_555
H12_6 C24_6 1_555 1_555
C33_8 N11_8 1_555 1_555
H21_8 C33_8 1_555 1_555
N13_4 Zn1_4 1_555 1_555
I2_6 Zn3_6 1_555 1_555
I6_6 Zn3_6 1_555 1_555
Zn3_6 N8_6 1_555 1_555
N1_6 C7_6 1_555 1_555
N2_6 C1_6 1_555 1_555
N3_7 C3_7 1_555 1_555
N4_6 C1_6 1_555 1_555
N5_7 C3_7 1_555 1_555
N7_7 C6_7 1_555 1_555
N8_6 C16_7 1_555 1_555
N10_4 C26_5 1_555 1_555
N12_6 Zn3_6 1_555 1_555
C1_6 C18_5 1_555 1_555
C2_6 C7_6 1_555 1_555
C3_7 C12_7 1_555 1_555
C4_7 C15_7 1_555 1_555
C6_7 N3_7 1_555 1_555
C7_6 N2_6 1_555 1_555
C8_6 C9_6 1_555 1_555
C9_6 N1_6 1_555 1_555
C11_7 C6_7 1_555 1_555
C12_7 C14_7 1_555 1_555
C13_7 C2_6 1_555 1_555
H3_7 C13_7 1_555 1_555
C14_7 H4_7 1_555 1_555
C15_7 N5_7 1_555 1_555
C16_7 C14_7 1_555 1_555
H5_6 C16_7 1_555 1_555
C17_7 C11_7 1_555 1_555
H6_7 C17_7 1_555 1_555
C18_5 C25_5 1_555 1_555
C19_7 N8_6 1_555 1_555
H7_7 C19_7 1_555 1_555
C21_7 C12_7 1_555 1_555
H9_7 C21_7 1_555 1_555
C22_6 C8_6 1_555 1_555
H10_6 C22_6 1_555 1_555
C24_7 C13_7 1_555 1_555
H12_7 C24_7 1_555 1_555
C25_5 H13_4 1_555 1_555
C26_5 C25_5 1_555 1_555
H14_4 C26_5 1_555 1_555
C27_7 C4_7 1_555 1_555
H15_7 C27_7 1_555 1_555
C28_6 C2_6 1_555 1_555
H16_6 C28_6 1_555 1_555
H17_7 C29_7 1_555 1_555
H18_7 C30_7 1_555 1_555
C31_6 C8_6 1_555 1_555
H19_6 C31_6 1_555 1_555
C32_6 N12_6 1_555 1_555
H20_6 C32_6 1_555 1_555
C34_5 C18_5 1_555 1_555
H22_5 C34_5 1_555 1_555
C35_6 N12_6 1_555 1_555
H23_6 C35_6 1_555 1_555
C36_8 N10_4 1_555 1_555
H24_8 C36_8 1_555 1_555
Zn5_4 N10_4 1_555 1_555
N4_6 C9_6 1_555 1_555
N7_7 C15_7 1_555 1_555
C17_7 C29_7 1_555 1_555
C19_7 C21_7 1_555 1_555
C22_6 C32_6 1_555 1_555
C27_7 C30_7 1_555 1_555
C31_6 C35_6 1_555 1_555
C34_5 C36_8 1_555 1_555
I4_5 Zn5_4 1_555 1_555
I5_8 Zn5_4 1_555 1_555
Zn5_4 N9_8 1_555 1_555
N3_8 C3_8 1_555 1_555
N5_8 C3_8 1_555 1_555
N13_4 C5_8 1_555 1_555
N7_8 C6_8 1_555 1_555
N9_8 C23_8 1_555 1_555
C3_8 C12_8 1_555 1_555
C4_8 C15_8 1_555 1_555
C5_8 H1_8 1_555 1_555
C6_8 N3_8 1_555 1_555
C10_8 C5_8 1_555 1_555
H2_8 C10_8 1_555 1_555
C11_8 C6_8 1_555 1_555
C12_8 C14_8 1_555 1_555
C14_8 H4_8 1_555 1_555
C15_8 N5_8 1_555 1_555
C16_8 C14_8 1_555 1_555
C17_8 C11_8 1_555 1_555
H6_8 C17_8 1_555 1_555
H7_8 C19_8 1_555 1_555
C20_8 C4_8 1_555 1_555
H8_8 C20_8 1_555 1_555
C21_8 C12_8 1_555 1_555
H9_8 C21_8 1_555 1_555
C23_8 C20_8 1_555 1_555
H11_8 C23_8 1_555 1_555
C27_8 C4_8 1_555 1_555
H15_8 C27_8 1_555 1_555
C29_8 N13_4 1_555 1_555
H17_8 C29_8 1_555 1_555
C30_8 N9_8 1_555 1_555
H18_8 C30_8 1_555 1_555
N7_8 C15_8 1_555 1_555
C10_8 C11_8 1_555 1_555
C17_8 C29_8 1_555 1_555
C19_8 C21_8 1_555 1_555
C27_8 C30_8 1_555 1_555
I2_7 Zn3_7 1_555 1_555
I6_7 Zn3_7 1_555 1_555
Zn3_7 N8_7 1_555 1_555
N1_7 C7_7 1_555 1_555
N2_7 C1_7 1_555 1_555
N4_7 C1_7 1_555 1_555
N12_7 Zn3_7 1_555 1_555
C2_7 C7_7 1_555 1_555
C7_7 N2_7 1_555 1_555
C8_7 C9_7 1_555 1_555
C9_7 N1_7 1_555 1_555
C22_7 C8_7 1_555 1_555
H10_7 C22_7 1_555 1_555
C28_7 C2_7 1_555 1_555
H16_7 C28_7 1_555 1_555
C31_7 C8_7 1_555 1_555
H19_7 C31_7 1_555 1_555
C32_7 N12_7 1_555 1_555
H20_7 C32_7 1_555 1_555
C35_7 N12_7 1_555 1_555
H23_7 C35_7 1_555 1_555
N4_7 C9_7 1_555 1_555
C22_7 C32_7 1_555 1_555
C31_7 C35_7 1_555 1_555
C18_6 C25_6 1_555 1_555
C26_6 C25_6 1_555 1_555
C34_6 C18_6 1_555 1_555
H22_6 C34_6 1_555 1_555
H3_8 C13_8 1_555 1_555
C24_8 C13_8 1_555 1_555
H12_8 C24_8 1_555 1_555
C18_7 C25_7 1_555 1_555
C25_7 H13_7 1_555 1_555
C26_7 C25_7 1_555 1_555
H14_7 C26_7 1_555 1_555
C34_7 C18_7 1_555 1_555
H22_7 C34_7 1_555 1_555
C18_8 C25_8 1_555 1_555
C26_8 C25_8 1_555 1_555
C34_8 C18_8 1_555 1_555
H22_8 C34_8 1_555 1_555
I2_8 Zn3_8 1_555 1_555
I6_8 Zn3_8 1_555 1_555
Zn3_8 N8_8 1_555 1_555
N1_8 C7_8 1_555 1_555
N2_8 C1_8 1_555 1_555
N4_8 C1_8 1_555 1_555
N12_8 Zn3_8 1_555 1_555
C2_8 C7_8 1_555 1_555
C7_8 N2_8 1_555 1_555
C8_8 C9_8 1_555 1_555
C9_8 N1_8 1_555 1_555
C22_8 C8_8 1_555 1_555
H10_8 C22_8 1_555 1_555
C28_8 C2_8 1_555 1_555
H16_8 C28_8 1_555 1_555
C31_8 C8_8 1_555 1_555
H19_8 C31_8 1_555 1_555
C32_8 N12_8 1_555 1_555
H20_8 C32_8 1_555 1_555
C35_8 N12_8 1_555 1_555
H23_8 C35_8 1_555 1_555
N4_8 C9_8 1_555 1_555
C22_8 C32_8 1_555 1_555
C31_8 C35_8 1_555 1_555

#END
