
###############################################################################
#
# This file contains modified crystal structure data generated from the
# MOF subset of the Cambridge Structural Database (CSD) v543 
# hosted by the Cambridge Crystallographic Data Centre (CCDC).
#
# This work is licensed under the Creative Commons
# Attribution-NonCommercial-ShareAlike 4.0 International License.
# To view a copy of this license, visit
# http://creativecommons.org/licenses/by-nc-sa/4.0/
# or send a letter to
# Creative Commons, PO Box 1866, Mountain View, CA 94042, USA.
#
# CIF created using the CSD Python API on 29 September 2022
# The structure has been converted into the P1 space group
# The structure has a 3D framework
# The original CSD entry EZEVUD is in the monoclinic crystal system
# The framework has been calculated to contain at least 10.0% void space
# The void calculation uses a probe of radius 1.32A, grid spacing 0.4
#
###############################################################################

data_EZEVUD
_chemical_formula_moiety         '(C288 H192 Cl48 N96 Zn24)n'
_symmetry_cell_setting           triclinic
_symmetry_space_group_name_H-M   'P 1'
_symmetry_Int_Tables_number      1
_space_group_name_Hall           'P 1'
loop_
_symmetry_equiv_pos_site_id
_symmetry_equiv_pos_as_xyz
1 x,y,z
_cell_length_a                   32.6417(4)
_cell_length_b                   14.51920(10)
_cell_length_c                   30.6464(4)
_cell_angle_alpha                90
_cell_angle_beta                 101.2080(10)
_cell_angle_gamma                90
_cell_volume                     14247.3
loop_
_atom_site_label
_atom_site_type_symbol
_atom_site_fract_x
_atom_site_fract_y
_atom_site_fract_z
Zn1 Zn 0.41465(7) 0.64184(18) 0.40867(8)
Zn2 Zn 0.12806(2) 0.62188(3) 0.04165(2)
Cl1 Cl 0.11495(3) 0.75430(5) 0.07214(3)
Cl2 Cl 0.37877(12) 0.74340(17) 0.43960(12)
Cl3 Cl 0.46560(9) 0.6770(3) 0.37286(9)
N1 N 0.27773(7) 0.46357(15) 0.22239(8)
N2 N 0.43638(8) 0.54134(16) 0.45458(8)
N3 N 0.31142(7) 0.32588(15) 0.25098(8)
N5 N 0.48138(7) 0.23631(16) 0.52652(8)
N6 N 0.42796(8) 0.28986(17) 0.56265(8)
N7 N 0.37428(8) 0.56301(16) 0.36307(8)
N8 N 0.26347(8) 0.32367(16) 0.18226(8)
N9 N 0.46173(8) 0.14753(17) 0.58419(9)
N10 N 0.17125(8) 0.55435(17) 0.08859(9)
C1 C 0.44908(9) 0.38437(19) 0.50654(9)
C2 C 0.51632(9) 0.0927(2) 0.54832(10)
C3 C 0.45324(9) 0.2983(2) 0.53350(9)
N12 N 0.34715(11) 0.17070(19) 0.67258(12)
C4 C 0.28892(9) 0.28315(18) 0.21576(10)
C5 C 0.25848(9) 0.41408(18) 0.18745(10)
C6 C 0.30431(8) 0.41586(18) 0.25275(9)
C7 C 0.48441(9) 0.1630(2) 0.55352(10)
C8 C 0.47091(9) 0.39767(19) 0.47269(9)
H1 H 0.490486 0.353087 0.466922
C9 C 0.32757(9) 0.46735(18) 0.29178(10)
C10 C 0.43307(9) 0.2127(2) 0.58669(10)
C11 C 0.29240(10) 0.18107(19) 0.21425(11)
C12 C 0.22419(9) 0.55805(19) 0.15399(10)
H2 H 0.240771 0.593140 0.177027
C13 C 0.22893(9) 0.46301(19) 0.15243(10)
C14 C 0.46383(9) 0.4766(2) 0.44744(9)
H3 H 0.478854 0.485703 0.424169
C15 C 0.37046(10) 0.4713(2) 0.36429(10)
H4 H 0.383916 0.439339 0.390174
C16 C 0.34789(10) 0.42152(19) 0.32965(10)
H5 H 0.346199 0.356371 0.331584
C17 C 0.41639(10) 0.5300(2) 0.48841(10)
H6 H 0.397682 0.576555 0.494111
C18 C 0.40427(10) 0.1989(2) 0.61773(10)
C19 C 0.19517(10) 0.60057(19) 0.12174(10)
H7 H 0.192004 0.665487 0.123097
C20 C 0.42197(10) 0.4531(2) 0.51522(10)
H8 H 0.407614 0.447119 0.539227
C21 C 0.53977(10) 0.0998(2) 0.51624(11)
H9 H 0.535741 0.150274 0.496117
C22 C 0.56945(11) 0.0335(2) 0.51301(11)
H10 H 0.585139 0.038867 0.490068
C23 C 0.31788(12) 0.1341(2) 0.24819(12)
H11 H 0.333886 0.166168 0.272725
C24 C 0.35341(12) 0.6072(2) 0.32728(11)
H12 H 0.355167 0.672452 0.326470
C25 C 0.32963(11) 0.5628(2) 0.29172(11)
H13 H 0.314711 0.597024 0.267296
C26 C 0.41478(13) 0.1458(2) 0.65576(13)
H14 H 0.441443 0.117482 0.663341
C27 C 0.36480(11) 0.2376(2) 0.60800(12)
H15 H 0.356995 0.275342 0.582427
C28 C 0.31953(14) 0.0389(2) 0.24557(14)
H16 H 0.336966 0.006177 0.268893
C29 C 0.26910(12) 0.1311(2) 0.17963(13)
H17 H 0.250801 0.161547 0.156162
C30 C 0.33697(13) 0.2212(3) 0.63535(14)
H18 H 0.309640 0.246278 0.627712
C31 C 0.20439(13) 0.4151(2) 0.11788(13)
H19 H 0.206875 0.350182 0.115648
C32 C 0.52294(13) 0.0170(3) 0.57662(14)
H20 H 0.506813 0.008557 0.598995
C33 C 0.17641(13) 0.4631(2) 0.08691(13)
H21 H 0.159886 0.429942 0.063103
C34 C 0.27283(13) 0.0367(2) 0.17968(15)
H22 H 0.256912 0.002776 0.155755
C35 C 0.38533(15) 0.1350(3) 0.68255(14)
H23 H 0.392829 0.100564 0.709258
N13 N 0.07682(8) 0.53757(17) 0.04091(9)
Zn5 Zn 0.31096(12) 0.14947(9) 0.71946(12)
N11 N 0.29768(11) 0.00848(18) 0.71170(12)
Cl5 Cl 0.25236(16) 0.2155(2) 0.6860(2)
Cl6 Cl 0.3434(2) 0.1761(2) 0.78839(12)
C2_2 C 0.01632(9) 0.4073(2) 0.04832(10)
C21_2 C 0.03977(10) 0.4002(2) 0.01624(11)
C22_2 C 0.06945(11) 0.4665(2) 0.01301(11)
C32_2 C 0.02294(13) 0.4830(3) 0.07662(14)
H20_2 H 0.006813 0.491443 0.098995
C36 C 0.05361(12) 0.5460(3) 0.07147(14)
H24 H 0.058123 0.597657 0.090847
Cl4 Cl 0.14654(3) 0.59710(8) 0.97738(3)
N4 N 0.57682(8) 0.96243(17) 0.54091(9)
N11_2 N 0.29768(11) 0.99152(18) 0.21170(12)
C36_2 C 0.55361(12) 0.9540(3) 0.57147(14)
H24_2 H 0.558123 0.902343 0.590847
Cl5_2 Cl 0.25236(16) 0.7845(2) 0.1860(2)
Zn3 Zn 0.31096(12) 0.85053(9) 0.21946(12)
Cl6_2 Cl 0.3434(2) 0.8239(2) 0.28839(12)
Zn4 Zn 0.62806(2) 0.87812(3) 0.54165(2)
N14 N 0.34715(11) 0.82930(19) 0.17258(12)
N5_2 N 0.48138(7) 0.76369(16) 0.02652(8)
N6_2 N 0.42796(8) 0.71014(17) 0.06265(8)
N9_2 N 0.46173(8) 0.85247(17) 0.08419(9)
C1_2 C 0.44908(9) 0.61563(19) 0.00654(9)
C2_3 C 0.51632(9) 0.9073(2) 0.04832(10)
C3_2 C 0.45324(9) 0.7017(2) 0.03350(9)
C7_2 C 0.48441(9) 0.8370(2) 0.05352(10)
C10_2 C 0.43307(9) 0.7873(2) 0.08669(10)
C18_2 C 0.40427(10) 0.8011(2) 0.11773(10)
C20_2 C 0.42197(10) 0.5469(2) 0.01522(10)
H8_2 H 0.407614 0.552881 0.039227
C21_3 C 0.53977(10) 0.9002(2) 0.01624(11)
C22_3 C 0.56945(11) 0.9665(2) 0.01301(11)
C26_2 C 0.41478(13) 0.8542(2) 0.15576(13)
H14_2 H 0.441443 0.882518 0.163341
C27_2 C 0.36480(11) 0.7624(2) 0.10800(12)
H15_2 H 0.356995 0.724658 0.082427
C30_2 C 0.33697(13) 0.7788(3) 0.13535(14)
H18_2 H 0.309640 0.753722 0.127712
C32_3 C 0.52294(13) 0.9830(3) 0.07662(14)
H20_3 H 0.506813 0.991443 0.098995
C35_2 C 0.38533(15) 0.8650(3) 0.18255(14)
H23_2 H 0.392829 0.899436 0.209258
Zn1_2 Zn 0.91465(7) 0.85816(18) 0.90867(8)
Cl1_2 Cl 0.61495(3) 0.74570(5) 0.57214(3)
Cl2_2 Cl 0.87877(12) 0.75660(17) 0.93960(12)
Cl3_2 Cl 0.96560(9) 0.8230(3) 0.87286(9)
Cl4_2 Cl 0.64654(3) 0.90290(8) 0.47738(3)
N2_2 N 0.93638(8) 0.95866(16) 0.95458(8)
N7_2 N 0.87428(8) 0.93699(16) 0.86307(8)
N10_2 N 0.67125(8) 0.94565(17) 0.58859(9)
C12_2 C 0.72419(9) 0.94195(19) 0.65399(10)
H2_2 H 0.740771 0.906860 0.677027
C17_2 C 0.91639(10) 0.9700(2) 0.98841(10)
H6_2 H 0.897682 0.923445 0.994111
C19_2 C 0.69517(10) 0.89943(19) 0.62174(10)
H7_2 H 0.692004 0.834513 0.623097
C24_2 C 0.85341(12) 0.8928(2) 0.82728(11)
H12_2 H 0.855167 0.827548 0.826470
C25_2 C 0.82963(11) 0.9372(2) 0.79172(11)
H13_2 H 0.814711 0.902976 0.767296
Zn1_3 Zn 0.58535(7) 0.64184(18) 0.09133(8)
Zn2_2 Zn 0.87194(2) 0.62188(3) 0.45835(2)
Cl1_3 Cl 0.88505(3) 0.75430(5) 0.42786(3)
Cl2_3 Cl 0.62123(12) 0.74340(17) 0.06040(12)
Cl3_3 Cl 0.53440(9) 0.6770(3) 0.12714(9)
Cl4_3 Cl 0.85346(3) 0.59710(8) 0.52262(3)
N1_2 N 0.72227(7) 0.46357(15) 0.27761(8)
N2_3 N 0.56362(8) 0.54134(16) 0.04542(8)
N3_2 N 0.68858(7) 0.32588(15) 0.24902(8)
N7_3 N 0.62572(8) 0.56301(16) 0.13693(8)
N8_2 N 0.73653(8) 0.32367(16) 0.31774(8)
N10_3 N 0.82875(8) 0.55435(17) 0.41141(9)
C4_2 C 0.71108(9) 0.28315(18) 0.28424(10)
C5_2 C 0.74152(9) 0.41408(18) 0.31255(10)
C6_2 C 0.69569(8) 0.41586(18) 0.24725(9)
C8_2 C 0.52909(9) 0.39767(19) 0.02731(9)
H1_2 H 0.509514 0.353087 0.033078
C9_2 C 0.67243(9) 0.46735(18) 0.20822(10)
C11_2 C 0.70760(10) 0.18107(19) 0.28575(11)
C12_3 C 0.77581(9) 0.55805(19) 0.34601(10)
H2_3 H 0.759229 0.593140 0.322973
C13_2 C 0.77107(9) 0.46301(19) 0.34757(10)
C14_2 C 0.53617(9) 0.4766(2) 0.05256(9)
H3_2 H 0.521146 0.485703 0.075831
C15_2 C 0.62954(10) 0.4713(2) 0.13571(10)
H4_2 H 0.616084 0.439339 0.109826
C16_2 C 0.65211(10) 0.42152(19) 0.17035(10)
H5_2 H 0.653801 0.356371 0.168416
C17_3 C 0.58361(10) 0.5300(2) 0.01159(10)
H6_3 H 0.602318 0.576555 0.005889
C19_3 C 0.80483(10) 0.60057(19) 0.37826(10)
H7_3 H 0.807996 0.665487 0.376903
H9_2 H 0.464259 0.150274 0.003883
H10_2 H 0.414861 0.038867 0.009932
C23_2 C 0.68212(12) 0.1341(2) 0.25181(12)
H11_2 H 0.666114 0.166168 0.227275
C24_3 C 0.64659(12) 0.6072(2) 0.17272(11)
H12_3 H 0.644833 0.672452 0.173530
C25_3 C 0.67037(11) 0.5628(2) 0.20828(11)
H13_3 H 0.685289 0.597024 0.232704
C28_2 C 0.68047(14) 0.0389(2) 0.25443(14)
H16_2 H 0.663034 0.006177 0.231107
C29_2 C 0.73090(12) 0.1311(2) 0.32037(13)
H17_2 H 0.749199 0.161547 0.343838
C31_2 C 0.79561(13) 0.4151(2) 0.38212(13)
H19_2 H 0.793125 0.350182 0.384352
C33_2 C 0.82359(13) 0.4631(2) 0.41309(13)
H21_2 H 0.840114 0.429942 0.436897
C34_2 C 0.72717(13) 0.0367(2) 0.32032(15)
H22_2 H 0.743088 0.002776 0.344245
N13_2 N 0.92318(8) 0.53757(17) 0.45909(9)
C2_4 C 0.98368(9) 0.4073(2) 0.45168(10)
C21_4 C 0.96023(10) 0.4002(2) 0.48376(11)
H9_3 H 0.964259 0.349726 0.503883
C22_4 C 0.93055(11) 0.4665(2) 0.48699(11)
H10_3 H 0.914861 0.461133 0.509932
C32_4 C 0.97706(13) 0.4830(3) 0.42338(14)
H20_4 H 0.993187 0.491443 0.401005
C36_3 C 0.94639(12) 0.5460(3) 0.42853(14)
H24_3 H 0.941877 0.597657 0.409153
N5_3 N 0.51862(7) 0.23631(16) 0.97348(8)
N6_3 N 0.57204(8) 0.28986(17) 0.93735(8)
N9_3 N 0.53827(8) 0.14753(17) 0.91581(9)
C1_3 C 0.55092(9) 0.38437(19) 0.99346(9)
C2_5 C 0.48368(9) 0.0927(2) 0.95168(10)
C3_3 C 0.54676(9) 0.2983(2) 0.96650(9)
N12_2 N 0.65285(11) 0.17070(19) 0.82742(12)
C7_3 C 0.51559(9) 0.1630(2) 0.94648(10)
C10_3 C 0.56693(9) 0.2127(2) 0.91331(10)
C18_3 C 0.59573(10) 0.1989(2) 0.88227(10)
C20_3 C 0.57803(10) 0.4531(2) 0.98478(10)
H8_3 H 0.592386 0.447119 0.960773
C21_5 C 0.46023(10) 0.0998(2) 0.98376(11)
C22_5 C 0.43055(11) 0.0335(2) 0.98699(11)
C26_3 C 0.58522(13) 0.1458(2) 0.84424(13)
H14_3 H 0.558557 0.117482 0.836659
C27_3 C 0.63520(11) 0.2376(2) 0.89200(12)
H15_3 H 0.643005 0.275342 0.917573
C30_3 C 0.66303(13) 0.2212(3) 0.86465(14)
H18_3 H 0.690360 0.246278 0.872288
C32_5 C 0.47706(13) 0.0170(3) 0.92338(14)
H20_5 H 0.493187 0.008557 0.901005
C35_3 C 0.61467(15) 0.1350(3) 0.81745(14)
H23_3 H 0.607171 0.100564 0.790742
Zn5_2 Zn 0.68904(12) 0.14947(9) 0.78054(12)
Zn1_4 Zn 0.08535(7) 0.14184(18) 0.09133(8)
Zn2_3 Zn 0.37194(2) 0.12188(3) 0.45835(2)
Cl1_4 Cl 0.38505(3) 0.25430(5) 0.42786(3)
Cl2_4 Cl 0.12123(12) 0.24340(17) 0.06040(12)
Cl3_4 Cl 0.03440(9) 0.1770(3) 0.12714(9)
Cl4_4 Cl 0.35346(3) 0.09710(8) 0.52262(3)
N2_4 N 0.06362(8) 0.04134(16) 0.04542(8)
N7_4 N 0.12572(8) 0.06301(16) 0.13693(8)
N10_4 N 0.32875(8) 0.05435(17) 0.41141(9)
C12_4 C 0.27581(9) 0.05805(19) 0.34601(10)
H2_4 H 0.259229 0.093140 0.322973
C17_4 C 0.08361(10) 0.0300(2) 0.01159(10)
H6_4 H 0.102318 0.076555 0.005889
C19_4 C 0.30483(10) 0.10057(19) 0.37826(10)
H7_4 H 0.307996 0.165487 0.376903
C24_4 C 0.14659(12) 0.1072(2) 0.17272(11)
H12_4 H 0.144833 0.172452 0.173530
C25_4 C 0.17037(11) 0.0628(2) 0.20828(11)
H13_4 H 0.185289 0.097024 0.232704
N13_3 N 0.42318(8) 0.03757(17) 0.45909(9)
N11_3 N 0.70232(11) 0.00848(18) 0.78830(12)
C36_4 C 0.44639(12) 0.0460(3) 0.42853(14)
H24_4 H 0.441877 0.097657 0.409153
Cl5_3 Cl 0.74764(16) 0.2155(2) 0.8140(2)
Cl6_3 Cl 0.6566(2) 0.1761(2) 0.71161(12)
N11_4 N 0.70232(11) 0.99152(18) 0.28830(12)
Cl5_4 Cl 0.74764(16) 0.7845(2) 0.3140(2)
Zn3_2 Zn 0.68904(12) 0.85053(9) 0.28054(12)
Cl6_4 Cl 0.6566(2) 0.8239(2) 0.21161(12)
N14_2 N 0.65285(11) 0.82930(19) 0.32742(12)
N4_2 N 0.92318(8) 0.46243(17) 0.95909(9)
C2_6 C 0.98368(9) 0.5927(2) 0.95168(10)
C21_6 C 0.96023(10) 0.5998(2) 0.98376(11)
C22_6 C 0.93055(11) 0.5335(2) 0.98699(11)
C32_6 C 0.97706(13) 0.5170(3) 0.92338(14)
H20_6 H 0.993187 0.508557 0.901005
C36_5 C 0.94639(12) 0.4540(3) 0.92853(14)
H24_5 H 0.941877 0.402343 0.909153
Zn4_2 Zn 0.87194(2) 0.37812(3) 0.95835(2)
Zn1_5 Zn 0.58535(7) 0.35816(18) 0.59133(8)
Cl1_5 Cl 0.88505(3) 0.24570(5) 0.92786(3)
Cl2_5 Cl 0.62123(12) 0.25660(17) 0.56040(12)
Cl3_5 Cl 0.53440(9) 0.3230(3) 0.62714(9)
N1_3 N 0.72227(7) 0.53643(15) 0.77761(8)
N2_5 N 0.56362(8) 0.45866(16) 0.54542(8)
N3_3 N 0.68858(7) 0.67412(15) 0.74902(8)
N5_4 N 0.51862(7) 0.76369(16) 0.47348(8)
N6_4 N 0.57204(8) 0.71014(17) 0.43735(8)
N7_5 N 0.62572(8) 0.43699(16) 0.63693(8)
N8_3 N 0.73653(8) 0.67633(16) 0.81774(8)
N9_4 N 0.53827(8) 0.85247(17) 0.41581(9)
N10_5 N 0.82875(8) 0.44565(17) 0.91141(9)
C1_4 C 0.55092(9) 0.61563(19) 0.49346(9)
C2_7 C 0.48368(9) 0.9073(2) 0.45168(10)
C3_4 C 0.54676(9) 0.7017(2) 0.46650(9)
C4_3 C 0.71108(9) 0.71685(18) 0.78424(10)
C5_3 C 0.74152(9) 0.58592(18) 0.81255(10)
C6_3 C 0.69569(8) 0.58414(18) 0.74725(9)
C7_4 C 0.51559(9) 0.8370(2) 0.44648(10)
C8_3 C 0.52909(9) 0.60233(19) 0.52731(9)
H1_3 H 0.509514 0.646913 0.533078
C9_3 C 0.67243(9) 0.53265(18) 0.70822(10)
C10_4 C 0.56693(9) 0.7873(2) 0.41331(10)
C11_3 C 0.70760(10) 0.81893(19) 0.78575(11)
C12_5 C 0.77581(9) 0.44195(19) 0.84601(10)
H2_5 H 0.759229 0.406860 0.822973
C13_3 C 0.77107(9) 0.53699(19) 0.84757(10)
C14_3 C 0.53617(9) 0.5234(2) 0.55256(9)
H3_3 H 0.521146 0.514297 0.575831
C15_3 C 0.62954(10) 0.5287(2) 0.63571(10)
H4_3 H 0.616084 0.560661 0.609826
C16_3 C 0.65211(10) 0.57848(19) 0.67035(10)
H5_3 H 0.653801 0.643629 0.668416
C17_5 C 0.58361(10) 0.4700(2) 0.51159(10)
H6_5 H 0.602318 0.423445 0.505889
C18_4 C 0.59573(10) 0.8011(2) 0.38227(10)
C19_5 C 0.80483(10) 0.39943(19) 0.87826(10)
H7_5 H 0.807996 0.334513 0.876903
C20_4 C 0.57803(10) 0.5469(2) 0.48478(10)
H8_4 H 0.592386 0.552881 0.460773
C21_7 C 0.46023(10) 0.9002(2) 0.48376(11)
H9_4 H 0.464259 0.849726 0.503883
C22_7 C 0.43055(11) 0.9665(2) 0.48699(11)
H10_4 H 0.414861 0.961133 0.509932
C23_3 C 0.68212(12) 0.8659(2) 0.75181(12)
H11_3 H 0.666114 0.833832 0.727275
C24_5 C 0.64659(12) 0.3928(2) 0.67272(11)
H12_5 H 0.644833 0.327548 0.673530
C25_5 C 0.67037(11) 0.4372(2) 0.70828(11)
H13_5 H 0.685289 0.402976 0.732704
C26_4 C 0.58522(13) 0.8542(2) 0.34424(13)
H14_4 H 0.558557 0.882518 0.336659
C27_4 C 0.63520(11) 0.7624(2) 0.39200(12)
H15_4 H 0.643005 0.724658 0.417573
C28_3 C 0.68047(14) 0.9611(2) 0.75443(14)
H16_3 H 0.663034 0.993823 0.731107
C29_3 C 0.73090(12) 0.8689(2) 0.82037(13)
H17_3 H 0.749199 0.838453 0.843838
C30_4 C 0.66303(13) 0.7788(3) 0.36465(14)
H18_4 H 0.690360 0.753722 0.372288
C31_3 C 0.79561(13) 0.5849(2) 0.88212(13)
H19_3 H 0.793125 0.649818 0.884352
C32_7 C 0.47706(13) 0.9830(3) 0.42338(14)
H20_7 H 0.493187 0.991443 0.401005
C33_3 C 0.82359(13) 0.5369(2) 0.91309(13)
H21_3 H 0.840114 0.570058 0.936897
C34_3 C 0.72717(13) 0.9633(2) 0.82032(15)
H22_3 H 0.743088 0.997224 0.844245
C35_4 C 0.61467(15) 0.8650(3) 0.31745(14)
H23_4 H 0.607171 0.899436 0.290742
N4_3 N 0.42318(8) 0.96243(17) 0.95909(9)
C36_6 C 0.44639(12) 0.9540(3) 0.92853(14)
H24_6 H 0.441877 0.902343 0.909153
Zn4_3 Zn 0.37194(2) 0.87812(3) 0.95835(2)
Zn1_6 Zn 0.08535(7) 0.85816(18) 0.59133(8)
Cl1_6 Cl 0.38505(3) 0.74570(5) 0.92786(3)
Cl2_6 Cl 0.12123(12) 0.75660(17) 0.56040(12)
Cl3_6 Cl 0.03440(9) 0.8230(3) 0.62714(9)
N2_6 N 0.06362(8) 0.95866(16) 0.54542(8)
N7_6 N 0.12572(8) 0.93699(16) 0.63693(8)
N10_6 N 0.32875(8) 0.94565(17) 0.91141(9)
C12_6 C 0.27581(9) 0.94195(19) 0.84601(10)
H2_6 H 0.259229 0.906860 0.822973
C17_6 C 0.08361(10) 0.9700(2) 0.51159(10)
H6_6 H 0.102318 0.923445 0.505889
C19_6 C 0.30483(10) 0.89943(19) 0.87826(10)
H7_6 H 0.307996 0.834513 0.876903
C24_6 C 0.14659(12) 0.8928(2) 0.67272(11)
H12_6 H 0.144833 0.827548 0.673530
C25_6 C 0.17037(11) 0.9372(2) 0.70828(11)
H13_6 H 0.185289 0.902976 0.732704
N4_4 N 0.07682(8) 0.46243(17) 0.54091(9)
C2_8 C 0.01632(9) 0.5927(2) 0.54832(10)
C21_8 C 0.03977(10) 0.5998(2) 0.51624(11)
H9_5 H 0.035741 0.650274 0.496117
C22_8 C 0.06945(11) 0.5335(2) 0.51301(11)
H10_5 H 0.085139 0.538867 0.490068
C32_8 C 0.02294(13) 0.5170(3) 0.57662(14)
H20_8 H 0.006813 0.508557 0.598995
C36_7 C 0.05361(12) 0.4540(3) 0.57147(14)
H24_7 H 0.058123 0.402343 0.590847
Zn4_4 Zn 0.12806(2) 0.37812(3) 0.54165(2)
Zn1_7 Zn 0.41465(7) 0.35816(18) 0.90867(8)
Cl1_7 Cl 0.11495(3) 0.24570(5) 0.57214(3)
Cl2_7 Cl 0.37877(12) 0.25660(17) 0.93960(12)
Cl3_7 Cl 0.46560(9) 0.3230(3) 0.87286(9)
Cl4_5 Cl 0.14654(3) 0.40290(8) 0.47738(3)
N1_4 N 0.27773(7) 0.53643(15) 0.72239(8)
N2_7 N 0.43638(8) 0.45866(16) 0.95458(8)
N3_4 N 0.31142(7) 0.67412(15) 0.75098(8)
N7_7 N 0.37428(8) 0.43699(16) 0.86307(8)
N8_4 N 0.26347(8) 0.67633(16) 0.68226(8)
N10_7 N 0.17125(8) 0.44565(17) 0.58859(9)
C4_4 C 0.28892(9) 0.71685(18) 0.71576(10)
C5_4 C 0.25848(9) 0.58592(18) 0.68745(10)
C6_4 C 0.30431(8) 0.58414(18) 0.75275(9)
C8_4 C 0.47091(9) 0.60233(19) 0.97269(9)
H1_4 H 0.490486 0.646913 0.966922
C9_4 C 0.32757(9) 0.53265(18) 0.79178(10)
C11_4 C 0.29240(10) 0.81893(19) 0.71425(11)
C12_7 C 0.22419(9) 0.44195(19) 0.65399(10)
H2_7 H 0.240771 0.406860 0.677027
C13_4 C 0.22893(9) 0.53699(19) 0.65243(10)
C14_4 C 0.46383(9) 0.5234(2) 0.94744(9)
H3_4 H 0.478854 0.514297 0.924169
C15_4 C 0.37046(10) 0.5287(2) 0.86429(10)
H4_4 H 0.383916 0.560661 0.890174
C16_4 C 0.34789(10) 0.57848(19) 0.82965(10)
H5_4 H 0.346199 0.643629 0.831584
C17_7 C 0.41639(10) 0.4700(2) 0.98841(10)
H6_7 H 0.397682 0.423445 0.994111
C19_7 C 0.19517(10) 0.39943(19) 0.62174(10)
H7_7 H 0.192004 0.334513 0.623097
H9_6 H 0.535741 0.849726 0.996117
H10_6 H 0.585139 0.961133 0.990068
C23_4 C 0.31788(12) 0.8659(2) 0.74819(12)
H11_4 H 0.333886 0.833832 0.772725
C24_7 C 0.35341(12) 0.3928(2) 0.82728(11)
H12_7 H 0.355167 0.327548 0.826470
C25_7 C 0.32963(11) 0.4372(2) 0.79172(11)
H13_7 H 0.314711 0.402976 0.767296
C28_4 C 0.31953(14) 0.9611(2) 0.74557(14)
H16_4 H 0.336966 0.993823 0.768893
C29_4 C 0.26910(12) 0.8689(2) 0.67963(13)
H17_4 H 0.250801 0.838453 0.656162
C31_4 C 0.20439(13) 0.5849(2) 0.61788(13)
H19_4 H 0.206875 0.649818 0.615648
C33_4 C 0.17641(13) 0.5369(2) 0.58691(13)
H21_4 H 0.159886 0.570058 0.563103
C34_4 C 0.27283(13) 0.9633(2) 0.67968(15)
H22_4 H 0.256912 0.997224 0.655755
Zn1_8 Zn 0.91465(7) 0.14184(18) 0.40867(8)
Zn2_4 Zn 0.62806(2) 0.12188(3) 0.04165(2)
Cl1_8 Cl 0.61495(3) 0.25430(5) 0.07214(3)
Cl2_8 Cl 0.87877(12) 0.24340(17) 0.43960(12)
Cl3_8 Cl 0.96560(9) 0.1770(3) 0.37286(9)
N2_8 N 0.93638(8) 0.04134(16) 0.45458(8)
N7_8 N 0.87428(8) 0.06301(16) 0.36307(8)
N10_8 N 0.67125(8) 0.05435(17) 0.08859(9)
C12_8 C 0.72419(9) 0.05805(19) 0.15399(10)
H2_8 H 0.740771 0.093140 0.177027
C17_8 C 0.91639(10) 0.0300(2) 0.48841(10)
H6_8 H 0.897682 0.076555 0.494111
C19_8 C 0.69517(10) 0.10057(19) 0.12174(10)
H7_8 H 0.692004 0.165487 0.123097
C24_8 C 0.85341(12) 0.1072(2) 0.32728(11)
H12_8 H 0.855167 0.172452 0.326470
C25_8 C 0.82963(11) 0.0628(2) 0.29172(11)
H13_8 H 0.814711 0.097024 0.267296
N13_4 N 0.57682(8) 0.03757(17) 0.04091(9)
C36_8 C 0.55361(12) 0.0460(3) 0.07147(14)
H24_8 H 0.558123 0.097657 0.090847
Cl4_6 Cl 0.64654(3) 0.09710(8) 0.97738(3)
N1_5 N 0.77773(7) 0.96357(15) 0.22239(8)
N3_5 N 0.81142(7) 0.82588(15) 0.25098(8)
N5_5 N 0.98138(7) 0.73631(16) 0.52652(8)
N6_5 N 0.92796(8) 0.78986(17) 0.56265(8)
N8_5 N 0.76347(8) 0.82367(16) 0.18226(8)
N9_5 N 0.96173(8) 0.64753(17) 0.58419(9)
N11_5 N 0.79768(11) 0.49152(18) 0.21170(12)
C1_5 C 0.94908(9) 0.88437(19) 0.50654(9)
C3_5 C 0.95324(9) 0.7983(2) 0.53350(9)
N12_3 N 0.84715(11) 0.67070(19) 0.67258(12)
C4_5 C 0.78892(9) 0.78315(18) 0.21576(10)
C5_5 C 0.75848(9) 0.91408(18) 0.18745(10)
C6_5 C 0.80431(8) 0.91586(18) 0.25275(9)
C7_5 C 0.98441(9) 0.6630(2) 0.55352(10)
C8_5 C 0.97091(9) 0.89767(19) 0.47269(9)
H1_5 H 0.990486 0.853087 0.466922
C9_5 C 0.82757(9) 0.96735(18) 0.29178(10)
C10_5 C 0.93307(9) 0.7127(2) 0.58669(10)
C11_5 C 0.79240(10) 0.68107(19) 0.21425(11)
C13_5 C 0.72893(9) 0.96301(19) 0.15243(10)
C14_5 C 0.96383(9) 0.9766(2) 0.44744(9)
H3_5 H 0.978854 0.985703 0.424169
C15_5 C 0.87046(10) 0.9713(2) 0.36429(10)
H4_5 H 0.883916 0.939339 0.390174
C16_5 C 0.84789(10) 0.92152(19) 0.32965(10)
H5_5 H 0.846199 0.856371 0.331584
C18_5 C 0.90427(10) 0.6989(2) 0.61773(10)
C20_5 C 0.92197(10) 0.9531(2) 0.51522(10)
H8_5 H 0.907614 0.947119 0.539227
C23_5 C 0.81788(12) 0.6341(2) 0.24819(12)
H11_5 H 0.833886 0.666168 0.272725
C26_5 C 0.91478(13) 0.6458(2) 0.65576(13)
H14_5 H 0.941443 0.617482 0.663341
C27_5 C 0.86480(11) 0.7376(2) 0.60800(12)
H15_5 H 0.856995 0.775342 0.582427
C28_5 C 0.81953(14) 0.5389(2) 0.24557(14)
H16_5 H 0.836966 0.506177 0.268893
C29_5 C 0.76910(12) 0.6311(2) 0.17963(13)
H17_5 H 0.750801 0.661547 0.156162
C30_5 C 0.83697(13) 0.7212(3) 0.63535(14)
H18_5 H 0.809640 0.746278 0.627712
C31_5 C 0.70439(13) 0.9151(2) 0.11788(13)
H19_5 H 0.706875 0.850182 0.115648
C33_5 C 0.67641(13) 0.9631(2) 0.08691(13)
H21_5 H 0.659886 0.929942 0.063103
C34_5 C 0.77283(13) 0.5367(2) 0.17968(15)
H22_5 H 0.756912 0.502776 0.155755
C35_5 C 0.88533(15) 0.6350(3) 0.68255(14)
H23_5 H 0.892829 0.600564 0.709258
Cl5_5 Cl 0.75236(16) 0.2845(2) 0.1860(2)
Zn3_3 Zn 0.81096(12) 0.35053(9) 0.21946(12)
Cl6_5 Cl 0.8434(2) 0.3239(2) 0.28839(12)
N14_3 N 0.84715(11) 0.32930(19) 0.17258(12)
Zn5_3 Zn 0.81096(12) 0.64947(9) 0.71946(12)
N5_6 N 0.98138(7) 0.26369(16) 0.02652(8)
N6_6 N 0.92796(8) 0.21014(17) 0.06265(8)
N9_6 N 0.96173(8) 0.35247(17) 0.08419(9)
C1_6 C 0.94908(9) 0.11563(19) 0.00654(9)
C3_6 C 0.95324(9) 0.2017(2) 0.03350(9)
C7_6 C 0.98441(9) 0.3370(2) 0.05352(10)
C10_6 C 0.93307(9) 0.2873(2) 0.08669(10)
C18_6 C 0.90427(10) 0.3011(2) 0.11773(10)
C20_6 C 0.92197(10) 0.0469(2) 0.01522(10)
H8_6 H 0.907614 0.052881 0.039227
C26_6 C 0.91478(13) 0.3542(2) 0.15576(13)
H14_6 H 0.941443 0.382518 0.163341
C27_6 C 0.86480(11) 0.2624(2) 0.10800(12)
H15_6 H 0.856995 0.224658 0.082427
C30_6 C 0.83697(13) 0.2788(3) 0.13535(14)
H18_6 H 0.809640 0.253722 0.127712
C35_6 C 0.88533(15) 0.3650(3) 0.18255(14)
H23_6 H 0.892829 0.399436 0.209258
N1_6 N 0.77773(7) 0.03643(15) 0.72239(8)
N3_6 N 0.81142(7) 0.17412(15) 0.75098(8)
N8_6 N 0.76347(8) 0.17633(16) 0.68226(8)
N11_6 N 0.79768(11) 0.50848(18) 0.71170(12)
C4_6 C 0.78892(9) 0.21685(18) 0.71576(10)
C5_6 C 0.75848(9) 0.08592(18) 0.68745(10)
C6_6 C 0.80431(8) 0.08414(18) 0.75275(9)
C8_6 C 0.97091(9) 0.10233(19) 0.97269(9)
H1_6 H 0.990486 0.146913 0.966922
C9_6 C 0.82757(9) 0.03265(18) 0.79178(10)
C11_6 C 0.79240(10) 0.31893(19) 0.71425(11)
C13_6 C 0.72893(9) 0.03699(19) 0.65243(10)
C14_6 C 0.96383(9) 0.0234(2) 0.94744(9)
H3_6 H 0.978854 0.014297 0.924169
C15_6 C 0.87046(10) 0.0287(2) 0.86429(10)
H4_6 H 0.883916 0.060661 0.890174
C16_6 C 0.84789(10) 0.07848(19) 0.82965(10)
H5_6 H 0.846199 0.143629 0.831584
C23_6 C 0.81788(12) 0.3659(2) 0.74819(12)
H11_6 H 0.833886 0.333832 0.772725
C28_6 C 0.81953(14) 0.4611(2) 0.74557(14)
H16_6 H 0.836966 0.493823 0.768893
C29_6 C 0.76910(12) 0.3689(2) 0.67963(13)
H17_6 H 0.750801 0.338453 0.656162
C31_6 C 0.70439(13) 0.0849(2) 0.61788(13)
H19_6 H 0.706875 0.149818 0.615648
C33_6 C 0.67641(13) 0.0369(2) 0.58691(13)
H21_6 H 0.659886 0.070058 0.563103
C34_6 C 0.77283(13) 0.4633(2) 0.67968(15)
H22_6 H 0.756912 0.497224 0.655755
Cl5_6 Cl 0.75236(16) 0.7155(2) 0.6860(2)
Cl6_6 Cl 0.8434(2) 0.6761(2) 0.78839(12)
N1_7 N 0.22227(7) 0.96357(15) 0.27761(8)
N3_7 N 0.18858(7) 0.82588(15) 0.24902(8)
N8_7 N 0.23653(8) 0.82367(16) 0.31774(8)
N11_7 N 0.20232(11) 0.49152(18) 0.28830(12)
C4_7 C 0.21108(9) 0.78315(18) 0.28424(10)
C5_7 C 0.24152(9) 0.91408(18) 0.31255(10)
C6_7 C 0.19569(8) 0.91586(18) 0.24725(9)
C8_7 C 0.02909(9) 0.89767(19) 0.02731(9)
H1_7 H 0.009514 0.853087 0.033078
C9_7 C 0.17243(9) 0.96735(18) 0.20822(10)
C11_7 C 0.20760(10) 0.68107(19) 0.28575(11)
C13_7 C 0.27107(9) 0.96301(19) 0.34757(10)
C14_7 C 0.03617(9) 0.9766(2) 0.05256(9)
H3_7 H 0.021146 0.985703 0.075831
C15_7 C 0.12954(10) 0.9713(2) 0.13571(10)
H4_7 H 0.116084 0.939339 0.109826
C16_7 C 0.15211(10) 0.92152(19) 0.17035(10)
H5_7 H 0.153801 0.856371 0.168416
C23_7 C 0.18212(12) 0.6341(2) 0.25181(12)
H11_7 H 0.166114 0.666168 0.227275
C28_7 C 0.18047(14) 0.5389(2) 0.25443(14)
H16_7 H 0.163034 0.506177 0.231107
C29_7 C 0.23090(12) 0.6311(2) 0.32037(13)
H17_7 H 0.249199 0.661547 0.343838
C31_7 C 0.29561(13) 0.9151(2) 0.38212(13)
H19_7 H 0.293125 0.850182 0.384352
C33_7 C 0.32359(13) 0.9631(2) 0.41309(13)
H21_7 H 0.340114 0.929942 0.436897
C34_7 C 0.22717(13) 0.5367(2) 0.32032(15)
H22_7 H 0.243088 0.502776 0.344245
Cl5_7 Cl 0.24764(16) 0.2845(2) 0.3140(2)
Zn3_4 Zn 0.18904(12) 0.35053(9) 0.28054(12)
Cl6_7 Cl 0.1566(2) 0.3239(2) 0.21161(12)
N14_4 N 0.15285(11) 0.32930(19) 0.32742(12)
N5_7 N 0.01862(7) 0.73631(16) 0.97348(8)
N6_7 N 0.07204(8) 0.78986(17) 0.93735(8)
N9_7 N 0.03827(8) 0.64753(17) 0.91581(9)
C1_7 C 0.05092(9) 0.88437(19) 0.99346(9)
C3_7 C 0.04676(9) 0.7983(2) 0.96650(9)
N12_4 N 0.15285(11) 0.67070(19) 0.82742(12)
C7_7 C 0.01559(9) 0.6630(2) 0.94648(10)
C10_7 C 0.06693(9) 0.7127(2) 0.91331(10)
C18_7 C 0.09573(10) 0.6989(2) 0.88227(10)
C20_7 C 0.07803(10) 0.9531(2) 0.98478(10)
H8_7 H 0.092386 0.947119 0.960773
C26_7 C 0.08522(13) 0.6458(2) 0.84424(13)
H14_7 H 0.058557 0.617482 0.836659
C27_7 C 0.13520(11) 0.7376(2) 0.89200(12)
H15_7 H 0.143005 0.775342 0.917573
C30_7 C 0.16303(13) 0.7212(3) 0.86465(14)
H18_7 H 0.190360 0.746278 0.872288
C35_7 C 0.11467(15) 0.6350(3) 0.81745(14)
H23_7 H 0.107171 0.600564 0.790742
Zn5_4 Zn 0.18904(12) 0.64947(9) 0.78054(12)
N1_8 N 0.22227(7) 0.03643(15) 0.77761(8)
N3_8 N 0.18858(7) 0.17412(15) 0.74902(8)
N5_8 N 0.01862(7) 0.26369(16) 0.47348(8)
N6_8 N 0.07204(8) 0.21014(17) 0.43735(8)
N8_8 N 0.23653(8) 0.17633(16) 0.81774(8)
N9_8 N 0.03827(8) 0.35247(17) 0.41581(9)
N11_8 N 0.20232(11) 0.50848(18) 0.78830(12)
C1_8 C 0.05092(9) 0.11563(19) 0.49346(9)
C3_8 C 0.04676(9) 0.2017(2) 0.46650(9)
C4_8 C 0.21108(9) 0.21685(18) 0.78424(10)
C5_8 C 0.24152(9) 0.08592(18) 0.81255(10)
C6_8 C 0.19569(8) 0.08414(18) 0.74725(9)
C7_8 C 0.01559(9) 0.3370(2) 0.44648(10)
C8_8 C 0.02909(9) 0.10233(19) 0.52731(9)
H1_8 H 0.009514 0.146913 0.533078
C9_8 C 0.17243(9) 0.03265(18) 0.70822(10)
C10_8 C 0.06693(9) 0.2873(2) 0.41331(10)
C11_8 C 0.20760(10) 0.31893(19) 0.78575(11)
C13_8 C 0.27107(9) 0.03699(19) 0.84757(10)
C14_8 C 0.03617(9) 0.0234(2) 0.55256(9)
H3_8 H 0.021146 0.014297 0.575831
C15_8 C 0.12954(10) 0.0287(2) 0.63571(10)
H4_8 H 0.116084 0.060661 0.609826
C16_8 C 0.15211(10) 0.07848(19) 0.67035(10)
H5_8 H 0.153801 0.143629 0.668416
C18_8 C 0.09573(10) 0.3011(2) 0.38227(10)
C20_8 C 0.07803(10) 0.0469(2) 0.48478(10)
H8_8 H 0.092386 0.052881 0.460773
C23_8 C 0.18212(12) 0.3659(2) 0.75181(12)
H11_8 H 0.166114 0.333832 0.727275
C26_8 C 0.08522(13) 0.3542(2) 0.34424(13)
H14_8 H 0.058557 0.382518 0.336659
C27_8 C 0.13520(11) 0.2624(2) 0.39200(12)
H15_8 H 0.143005 0.224658 0.417573
C28_8 C 0.18047(14) 0.4611(2) 0.75443(14)
H16_8 H 0.163034 0.493823 0.731107
C29_8 C 0.23090(12) 0.3689(2) 0.82037(13)
H17_8 H 0.249199 0.338453 0.843838
C30_8 C 0.16303(13) 0.2788(3) 0.36465(14)
H18_8 H 0.190360 0.253722 0.372288
C31_8 C 0.29561(13) 0.0849(2) 0.88212(13)
H19_8 H 0.293125 0.149818 0.884352
C33_8 C 0.32359(13) 0.0369(2) 0.91309(13)
H21_8 H 0.340114 0.070058 0.936897
C34_8 C 0.22717(13) 0.4633(2) 0.82032(15)
H22_8 H 0.243088 0.497224 0.844245
C35_8 C 0.11467(15) 0.3650(3) 0.31745(14)
H23_8 H 0.107171 0.399436 0.290742
Cl5_8 Cl 0.24764(16) 0.7155(2) 0.8140(2)
Cl6_8 Cl 0.1566(2) 0.6761(2) 0.71161(12)
H9_7 H 0.964259 0.650274 0.003883
H10_7 H 0.914861 0.538867 0.009932
Cl4_7 Cl 0.85346(3) 0.40290(8) 0.02262(3)
Cl4_8 Cl 0.35346(3) 0.90290(8) 0.02262(3)
H9_8 H 0.035741 0.349726 0.996117
H10_8 H 0.085139 0.461133 0.990068
loop_
_geom_bond_atom_site_label_1
_geom_bond_atom_site_label_2
_geom_bond_site_symmetry_1
_geom_bond_site_symmetry_2
Zn1 Cl2 1_555 1_555
Zn2 Cl1 1_555 1_555
Cl3 Zn1 1_555 1_555
N1 C5 1_555 1_555
N2 Zn1 1_555 1_555
N3 C4 1_555 1_555
N5 C3 1_555 1_555
N6 C3 1_555 1_555
N7 Zn1 1_555 1_555
N8 C4 1_555 1_555
N9 C7 1_555 1_555
N10 Zn2 1_555 1_555
C1 C3 1_555 1_555
C2 C7 1_555 1_555
N12 C30 1_555 1_555
C4 C11 1_555 1_555
C5 N8 1_555 1_555
C6 N1 1_555 1_555
C7 N5 1_555 1_555
C8 C1 1_555 1_555
H1 C8 1_555 1_555
C9 C6 1_555 1_555
C10 N6 1_555 1_555
C11 C23 1_555 1_555
C12 H2 1_555 1_555
C13 C5 1_555 1_555
C14 N2 1_555 1_555
H3 C14 1_555 1_555
C15 N7 1_555 1_555
H4 C15 1_555 1_555
C16 C9 1_555 1_555
H5 C16 1_555 1_555
C17 N2 1_555 1_555
H6 C17 1_555 1_555
C18 C10 1_555 1_555
C19 N10 1_555 1_555
H7 C19 1_555 1_555
C20 C1 1_555 1_555
H8 C20 1_555 1_555
C21 C2 1_555 1_555
H9 C21 1_555 1_555
C22 C21 1_555 1_555
H10 C22 1_555 1_555
C23 H11 1_555 1_555
C24 N7 1_555 1_555
H12 C24 1_555 1_555
C25 C9 1_555 1_555
H13 C25 1_555 1_555
C26 C18 1_555 1_555
H14 C26 1_555 1_555
C27 C18 1_555 1_555
H15 C27 1_555 1_555
C28 C23 1_555 1_555
H16 C28 1_555 1_555
C29 C11 1_555 1_555
H17 C29 1_555 1_555
C30 C27 1_555 1_555
H18 C30 1_555 1_555
C31 C13 1_555 1_555
H19 C31 1_555 1_555
C32 C2 1_555 1_555
H20 C32 1_555 1_555
C33 N10 1_555 1_555
H21 C33 1_555 1_555
H22 C34 1_555 1_555
C35 N12 1_555 1_555
H23 C35 1_555 1_555
N13 Zn2 1_555 1_555
Zn5 N12 1_555 1_555
N3 C6 1_555 1_555
N9 C10 1_555 1_555
C8 C14 1_555 1_555
C12 C13 1_555 1_555
C12 C19 1_555 1_555
C15 C16 1_555 1_555
C17 C20 1_555 1_555
C24 C25 1_555 1_555
C26 C35 1_555 1_555
C29 C34 1_555 1_555
C31 C33 1_555 1_555
Cl5 Zn5 1_555 1_555
Zn5 N11 1_555 1_555
Cl6 Zn5 1_555 1_555
N13 C22_2 1_555 1_555
C21_2 C2_2 1_555 1_555
C22_2 C21_2 1_555 1_555
C32_2 C2_2 1_555 1_555
H20_2 C32_2 1_555 1_555
C36 N13 1_555 1_555
H24 C36 1_555 1_555
C32_2 C36 1_555 1_555
C36_2 N4 1_555 1_555
H24_2 C36_2 1_555 1_555
Cl5_2 Zn3 1_555 1_555
Zn3 N11_2 1_555 1_555
Cl6_2 Zn3 1_555 1_555
Zn4 N4 1_555 1_555
N14 Zn3 1_555 1_555
N5_2 C3_2 1_555 1_555
N6_2 C3_2 1_555 1_555
N9_2 C7_2 1_555 1_555
C1_2 C3_2 1_555 1_555
C2_3 C7_2 1_555 1_555
N14 C30_2 1_555 1_555
C7_2 N5_2 1_555 1_555
C10_2 N6_2 1_555 1_555
C18_2 C10_2 1_555 1_555
C20_2 C1_2 1_555 1_555
H8_2 C20_2 1_555 1_555
C21_3 C2_3 1_555 1_555
C22_3 C21_3 1_555 1_555
C26_2 C18_2 1_555 1_555
H14_2 C26_2 1_555 1_555
C27_2 C18_2 1_555 1_555
H15_2 C27_2 1_555 1_555
C30_2 C27_2 1_555 1_555
H18_2 C30_2 1_555 1_555
C32_3 C2_3 1_555 1_555
H20_3 C32_3 1_555 1_555
C35_2 N14 1_555 1_555
H23_2 C35_2 1_555 1_555
N9_2 C10_2 1_555 1_555
C26_2 C35_2 1_555 1_555
Zn1_2 Cl2_2 1_555 1_555
Zn4 Cl1_2 1_555 1_555
Cl3_2 Zn1_2 1_555 1_555
Cl4_2 Zn4 1_555 1_555
N2_2 Zn1_2 1_555 1_555
N7_2 Zn1_2 1_555 1_555
N10_2 Zn4 1_555 1_555
C12_2 H2_2 1_555 1_555
C17_2 N2_2 1_555 1_555
H6_2 C17_2 1_555 1_555
C19_2 N10_2 1_555 1_555
H7_2 C19_2 1_555 1_555
C24_2 N7_2 1_555 1_555
H12_2 C24_2 1_555 1_555
H13_2 C25_2 1_555 1_555
C12_2 C19_2 1_555 1_555
C24_2 C25_2 1_555 1_555
Zn1_3 Cl2_3 1_555 1_555
Zn2_2 Cl1_3 1_555 1_555
Cl3_3 Zn1_3 1_555 1_555
Cl4_3 Zn2_2 1_555 1_555
N1_2 C5_2 1_555 1_555
N2_3 Zn1_3 1_555 1_555
N3_2 C4_2 1_555 1_555
N7_3 Zn1_3 1_555 1_555
N8_2 C4_2 1_555 1_555
N10_3 Zn2_2 1_555 1_555
C4_2 C11_2 1_555 1_555
C5_2 N8_2 1_555 1_555
C6_2 N1_2 1_555 1_555
H1_2 C8_2 1_555 1_555
C9_2 C6_2 1_555 1_555
C11_2 C23_2 1_555 1_555
C12_3 H2_3 1_555 1_555
C13_2 C5_2 1_555 1_555
C14_2 N2_3 1_555 1_555
H3_2 C14_2 1_555 1_555
C15_2 N7_3 1_555 1_555
H4_2 C15_2 1_555 1_555
C16_2 C9_2 1_555 1_555
H5_2 C16_2 1_555 1_555
C17_3 N2_3 1_555 1_555
H6_3 C17_3 1_555 1_555
C19_3 N10_3 1_555 1_555
H7_3 C19_3 1_555 1_555
C23_2 H11_2 1_555 1_555
C24_3 N7_3 1_555 1_555
H12_3 C24_3 1_555 1_555
C25_3 C9_2 1_555 1_555
H13_3 C25_3 1_555 1_555
C28_2 C23_2 1_555 1_555
H16_2 C28_2 1_555 1_555
C29_2 C11_2 1_555 1_555
H17_2 C29_2 1_555 1_555
C31_2 C13_2 1_555 1_555
H19_2 C31_2 1_555 1_555
C33_2 N10_3 1_555 1_555
H21_2 C33_2 1_555 1_555
H22_2 C34_2 1_555 1_555
N13_2 Zn2_2 1_555 1_555
N3_2 C6_2 1_555 1_555
C8_2 C14_2 1_555 1_555
C12_3 C13_2 1_555 1_555
C12_3 C19_3 1_555 1_555
C15_2 C16_2 1_555 1_555
C24_3 C25_3 1_555 1_555
C29_2 C34_2 1_555 1_555
C31_2 C33_2 1_555 1_555
N13_2 C22_4 1_555 1_555
C21_4 C2_4 1_555 1_555
H9_3 C21_4 1_555 1_555
C22_4 C21_4 1_555 1_555
H10_3 C22_4 1_555 1_555
C32_4 C2_4 1_555 1_555
H20_4 C32_4 1_555 1_555
C36_3 N13_2 1_555 1_555
H24_3 C36_3 1_555 1_555
C32_4 C36_3 1_555 1_555
N5_3 C3_3 1_555 1_555
N6_3 C3_3 1_555 1_555
N9_3 C7_3 1_555 1_555
C1_3 C3_3 1_555 1_555
C2_5 C7_3 1_555 1_555
N12_2 C30_3 1_555 1_555
C7_3 N5_3 1_555 1_555
C10_3 N6_3 1_555 1_555
C18_3 C10_3 1_555 1_555
C20_3 C1_3 1_555 1_555
H8_3 C20_3 1_555 1_555
C21_5 C2_5 1_555 1_555
C22_5 C21_5 1_555 1_555
C26_3 C18_3 1_555 1_555
H14_3 C26_3 1_555 1_555
C27_3 C18_3 1_555 1_555
H15_3 C27_3 1_555 1_555
C30_3 C27_3 1_555 1_555
H18_3 C30_3 1_555 1_555
C32_5 C2_5 1_555 1_555
H20_5 C32_5 1_555 1_555
C35_3 N12_2 1_555 1_555
H23_3 C35_3 1_555 1_555
Zn5_2 N12_2 1_555 1_555
N9_3 C10_3 1_555 1_555
C26_3 C35_3 1_555 1_555
Zn1_4 Cl2_4 1_555 1_555
Zn2_3 Cl1_4 1_555 1_555
Cl3_4 Zn1_4 1_555 1_555
Cl4_4 Zn2_3 1_555 1_555
N2_4 Zn1_4 1_555 1_555
N7_4 Zn1_4 1_555 1_555
N10_4 Zn2_3 1_555 1_555
C12_4 H2_4 1_555 1_555
C17_4 N2_4 1_555 1_555
H6_4 C17_4 1_555 1_555
C19_4 N10_4 1_555 1_555
H7_4 C19_4 1_555 1_555
C24_4 N7_4 1_555 1_555
H12_4 C24_4 1_555 1_555
H13_4 C25_4 1_555 1_555
N13_3 Zn2_3 1_555 1_555
C12_4 C19_4 1_555 1_555
C24_4 C25_4 1_555 1_555
C36_4 N13_3 1_555 1_555
H24_4 C36_4 1_555 1_555
Cl5_3 Zn5_2 1_555 1_555
Zn5_2 N11_3 1_555 1_555
Cl6_3 Zn5_2 1_555 1_555
Cl5_4 Zn3_2 1_555 1_555
Zn3_2 N11_4 1_555 1_555
Cl6_4 Zn3_2 1_555 1_555
N14_2 Zn3_2 1_555 1_555
N4_2 C22_6 1_555 1_555
C21_6 C2_6 1_555 1_555
C22_6 C21_6 1_555 1_555
C32_6 C2_6 1_555 1_555
H20_6 C32_6 1_555 1_555
C36_5 N4_2 1_555 1_555
H24_5 C36_5 1_555 1_555
Zn4_2 N4_2 1_555 1_555
C32_6 C36_5 1_555 1_555
Zn1_5 Cl2_5 1_555 1_555
Zn4_2 Cl1_5 1_555 1_555
Cl3_5 Zn1_5 1_555 1_555
N1_3 C5_3 1_555 1_555
N2_5 Zn1_5 1_555 1_555
N3_3 C4_3 1_555 1_555
N5_4 C3_4 1_555 1_555
N6_4 C3_4 1_555 1_555
N7_5 Zn1_5 1_555 1_555
N8_3 C4_3 1_555 1_555
N9_4 C7_4 1_555 1_555
N10_5 Zn4_2 1_555 1_555
C1_4 C3_4 1_555 1_555
C2_7 C7_4 1_555 1_555
N14_2 C30_4 1_555 1_555
C4_3 C11_3 1_555 1_555
C5_3 N8_3 1_555 1_555
C6_3 N1_3 1_555 1_555
C7_4 N5_4 1_555 1_555
C8_3 C1_4 1_555 1_555
H1_3 C8_3 1_555 1_555
C9_3 C6_3 1_555 1_555
C10_4 N6_4 1_555 1_555
C11_3 C23_3 1_555 1_555
C12_5 H2_5 1_555 1_555
C13_3 C5_3 1_555 1_555
C14_3 N2_5 1_555 1_555
H3_3 C14_3 1_555 1_555
C15_3 N7_5 1_555 1_555
H4_3 C15_3 1_555 1_555
C16_3 C9_3 1_555 1_555
H5_3 C16_3 1_555 1_555
C17_5 N2_5 1_555 1_555
H6_5 C17_5 1_555 1_555
C18_4 C10_4 1_555 1_555
C19_5 N10_5 1_555 1_555
H7_5 C19_5 1_555 1_555
C20_4 C1_4 1_555 1_555
H8_4 C20_4 1_555 1_555
C21_7 C2_7 1_555 1_555
H9_4 C21_7 1_555 1_555
C22_7 C21_7 1_555 1_555
H10_4 C22_7 1_555 1_555
C23_3 H11_3 1_555 1_555
C24_5 N7_5 1_555 1_555
H12_5 C24_5 1_555 1_555
C25_5 C9_3 1_555 1_555
H13_5 C25_5 1_555 1_555
C26_4 C18_4 1_555 1_555
H14_4 C26_4 1_555 1_555
C27_4 C18_4 1_555 1_555
H15_4 C27_4 1_555 1_555
C28_3 C23_3 1_555 1_555
H16_3 C28_3 1_555 1_555
C29_3 C11_3 1_555 1_555
H17_3 C29_3 1_555 1_555
C30_4 C27_4 1_555 1_555
H18_4 C30_4 1_555 1_555
C31_3 C13_3 1_555 1_555
H19_3 C31_3 1_555 1_555
C32_7 C2_7 1_555 1_555
H20_7 C32_7 1_555 1_555
C33_3 N10_5 1_555 1_555
H21_3 C33_3 1_555 1_555
H22_3 C34_3 1_555 1_555
C35_4 N14_2 1_555 1_555
H23_4 C35_4 1_555 1_555
N3_3 C6_3 1_555 1_555
N9_4 C10_4 1_555 1_555
C8_3 C14_3 1_555 1_555
C12_5 C13_3 1_555 1_555
C12_5 C19_5 1_555 1_555
C15_3 C16_3 1_555 1_555
C17_5 C20_4 1_555 1_555
C24_5 C25_5 1_555 1_555
C26_4 C35_4 1_555 1_555
C29_3 C34_3 1_555 1_555
C31_3 C33_3 1_555 1_555
C36_6 N4_3 1_555 1_555
H24_6 C36_6 1_555 1_555
Zn4_3 N4_3 1_555 1_555
Zn1_6 Cl2_6 1_555 1_555
Zn4_3 Cl1_6 1_555 1_555
Cl3_6 Zn1_6 1_555 1_555
N2_6 Zn1_6 1_555 1_555
N7_6 Zn1_6 1_555 1_555
N10_6 Zn4_3 1_555 1_555
C12_6 H2_6 1_555 1_555
C17_6 N2_6 1_555 1_555
H6_6 C17_6 1_555 1_555
C19_6 N10_6 1_555 1_555
H7_6 C19_6 1_555 1_555
C24_6 N7_6 1_555 1_555
H12_6 C24_6 1_555 1_555
H13_6 C25_6 1_555 1_555
C12_6 C19_6 1_555 1_555
C24_6 C25_6 1_555 1_555
N4_4 C22_8 1_555 1_555
C21_8 C2_8 1_555 1_555
H9_5 C21_8 1_555 1_555
C22_8 C21_8 1_555 1_555
H10_5 C22_8 1_555 1_555
C32_8 C2_8 1_555 1_555
H20_8 C32_8 1_555 1_555
C36_7 N4_4 1_555 1_555
H24_7 C36_7 1_555 1_555
Zn4_4 N4_4 1_555 1_555
C32_8 C36_7 1_555 1_555
Zn1_7 Cl2_7 1_555 1_555
Zn4_4 Cl1_7 1_555 1_555
Cl3_7 Zn1_7 1_555 1_555
Cl4_5 Zn4_4 1_555 1_555
N1_4 C5_4 1_555 1_555
N2_7 Zn1_7 1_555 1_555
N3_4 C4_4 1_555 1_555
N7_7 Zn1_7 1_555 1_555
N8_4 C4_4 1_555 1_555
N10_7 Zn4_4 1_555 1_555
C4_4 C11_4 1_555 1_555
C5_4 N8_4 1_555 1_555
C6_4 N1_4 1_555 1_555
H1_4 C8_4 1_555 1_555
C9_4 C6_4 1_555 1_555
C11_4 C23_4 1_555 1_555
C12_7 H2_7 1_555 1_555
C13_4 C5_4 1_555 1_555
C14_4 N2_7 1_555 1_555
H3_4 C14_4 1_555 1_555
C15_4 N7_7 1_555 1_555
H4_4 C15_4 1_555 1_555
C16_4 C9_4 1_555 1_555
H5_4 C16_4 1_555 1_555
C17_7 N2_7 1_555 1_555
H6_7 C17_7 1_555 1_555
C19_7 N10_7 1_555 1_555
H7_7 C19_7 1_555 1_555
C23_4 H11_4 1_555 1_555
C24_7 N7_7 1_555 1_555
H12_7 C24_7 1_555 1_555
C25_7 C9_4 1_555 1_555
H13_7 C25_7 1_555 1_555
C28_4 C23_4 1_555 1_555
H16_4 C28_4 1_555 1_555
C29_4 C11_4 1_555 1_555
H17_4 C29_4 1_555 1_555
C31_4 C13_4 1_555 1_555
H19_4 C31_4 1_555 1_555
C33_4 N10_7 1_555 1_555
H21_4 C33_4 1_555 1_555
H22_4 C34_4 1_555 1_555
N3_4 C6_4 1_555 1_555
C8_4 C14_4 1_555 1_555
C12_7 C13_4 1_555 1_555
C12_7 C19_7 1_555 1_555
C15_4 C16_4 1_555 1_555
C24_7 C25_7 1_555 1_555
C29_4 C34_4 1_555 1_555
C31_4 C33_4 1_555 1_555
Zn1_8 Cl2_8 1_555 1_555
Zn2_4 Cl1_8 1_555 1_555
Cl3_8 Zn1_8 1_555 1_555
N2_8 Zn1_8 1_555 1_555
N7_8 Zn1_8 1_555 1_555
N10_8 Zn2_4 1_555 1_555
C12_8 H2_8 1_555 1_555
C17_8 N2_8 1_555 1_555
H6_8 C17_8 1_555 1_555
C19_8 N10_8 1_555 1_555
H7_8 C19_8 1_555 1_555
C24_8 N7_8 1_555 1_555
H12_8 C24_8 1_555 1_555
H13_8 C25_8 1_555 1_555
N13_4 Zn2_4 1_555 1_555
C12_8 C19_8 1_555 1_555
C24_8 C25_8 1_555 1_555
C36_8 N13_4 1_555 1_555
H24_8 C36_8 1_555 1_555
N1_5 C5_5 1_555 1_555
N3_5 C4_5 1_555 1_555
N5_5 C3_5 1_555 1_555
N6_5 C3_5 1_555 1_555
N8_5 C4_5 1_555 1_555
N9_5 C7_5 1_555 1_555
N11_5 C28_5 1_555 1_555
C1_5 C3_5 1_555 1_555
N12_3 C30_5 1_555 1_555
C4_5 C11_5 1_555 1_555
C5_5 N8_5 1_555 1_555
C6_5 N1_5 1_555 1_555
C7_5 N5_5 1_555 1_555
C8_5 C1_5 1_555 1_555
H1_5 C8_5 1_555 1_555
C9_5 C6_5 1_555 1_555
C10_5 N6_5 1_555 1_555
C11_5 C23_5 1_555 1_555
C13_5 C5_5 1_555 1_555
H3_5 C14_5 1_555 1_555
H4_5 C15_5 1_555 1_555
C16_5 C9_5 1_555 1_555
H5_5 C16_5 1_555 1_555
C18_5 C10_5 1_555 1_555
C20_5 C1_5 1_555 1_555
H8_5 C20_5 1_555 1_555
C23_5 H11_5 1_555 1_555
C26_5 C18_5 1_555 1_555
H14_5 C26_5 1_555 1_555
C27_5 C18_5 1_555 1_555
H15_5 C27_5 1_555 1_555
C28_5 C23_5 1_555 1_555
H16_5 C28_5 1_555 1_555
C29_5 C11_5 1_555 1_555
H17_5 C29_5 1_555 1_555
C30_5 C27_5 1_555 1_555
H18_5 C30_5 1_555 1_555
C31_5 C13_5 1_555 1_555
H19_5 C31_5 1_555 1_555
H21_5 C33_5 1_555 1_555
C34_5 N11_5 1_555 1_555
H22_5 C34_5 1_555 1_555
C35_5 N12_3 1_555 1_555
H23_5 C35_5 1_555 1_555
Cl5_5 Zn3_3 1_555 1_555
Zn3_3 N11_5 1_555 1_555
Cl6_5 Zn3_3 1_555 1_555
N14_3 Zn3_3 1_555 1_555
Zn5_3 N12_3 1_555 1_555
N3_5 C6_5 1_555 1_555
N9_5 C10_5 1_555 1_555
C8_5 C14_5 1_555 1_555
C15_5 C16_5 1_555 1_555
C26_5 C35_5 1_555 1_555
C29_5 C34_5 1_555 1_555
C31_5 C33_5 1_555 1_555
N5_6 C3_6 1_555 1_555
N6_6 C3_6 1_555 1_555
N9_6 C7_6 1_555 1_555
C1_6 C3_6 1_555 1_555
N14_3 C30_6 1_555 1_555
C7_6 N5_6 1_555 1_555
C10_6 N6_6 1_555 1_555
C18_6 C10_6 1_555 1_555
C20_6 C1_6 1_555 1_555
H8_6 C20_6 1_555 1_555
C26_6 C18_6 1_555 1_555
H14_6 C26_6 1_555 1_555
C27_6 C18_6 1_555 1_555
H15_6 C27_6 1_555 1_555
C30_6 C27_6 1_555 1_555
H18_6 C30_6 1_555 1_555
C35_6 N14_3 1_555 1_555
H23_6 C35_6 1_555 1_555
N9_6 C10_6 1_555 1_555
C26_6 C35_6 1_555 1_555
N1_6 C5_6 1_555 1_555
N3_6 C4_6 1_555 1_555
N8_6 C4_6 1_555 1_555
N11_6 C28_6 1_555 1_555
C4_6 C11_6 1_555 1_555
C5_6 N8_6 1_555 1_555
C6_6 N1_6 1_555 1_555
H1_6 C8_6 1_555 1_555
C9_6 C6_6 1_555 1_555
C11_6 C23_6 1_555 1_555
C13_6 C5_6 1_555 1_555
H3_6 C14_6 1_555 1_555
H4_6 C15_6 1_555 1_555
C16_6 C9_6 1_555 1_555
H5_6 C16_6 1_555 1_555
C23_6 H11_6 1_555 1_555
C28_6 C23_6 1_555 1_555
H16_6 C28_6 1_555 1_555
C29_6 C11_6 1_555 1_555
H17_6 C29_6 1_555 1_555
C31_6 C13_6 1_555 1_555
H19_6 C31_6 1_555 1_555
H21_6 C33_6 1_555 1_555
C34_6 N11_6 1_555 1_555
H22_6 C34_6 1_555 1_555
Cl5_6 Zn5_3 1_555 1_555
Zn5_3 N11_6 1_555 1_555
Cl6_6 Zn5_3 1_555 1_555
N3_6 C6_6 1_555 1_555
C8_6 C14_6 1_555 1_555
C15_6 C16_6 1_555 1_555
C29_6 C34_6 1_555 1_555
C31_6 C33_6 1_555 1_555
N1_7 C5_7 1_555 1_555
N3_7 C4_7 1_555 1_555
N8_7 C4_7 1_555 1_555
N11_7 C28_7 1_555 1_555
C4_7 C11_7 1_555 1_555
C5_7 N8_7 1_555 1_555
C6_7 N1_7 1_555 1_555
H1_7 C8_7 1_555 1_555
C9_7 C6_7 1_555 1_555
C11_7 C23_7 1_555 1_555
C13_7 C5_7 1_555 1_555
H3_7 C14_7 1_555 1_555
H4_7 C15_7 1_555 1_555
C16_7 C9_7 1_555 1_555
H5_7 C16_7 1_555 1_555
C23_7 H11_7 1_555 1_555
C28_7 C23_7 1_555 1_555
H16_7 C28_7 1_555 1_555
C29_7 C11_7 1_555 1_555
H17_7 C29_7 1_555 1_555
C31_7 C13_7 1_555 1_555
H19_7 C31_7 1_555 1_555
H21_7 C33_7 1_555 1_555
C34_7 N11_7 1_555 1_555
H22_7 C34_7 1_555 1_555
Cl5_7 Zn3_4 1_555 1_555
Zn3_4 N11_7 1_555 1_555
Cl6_7 Zn3_4 1_555 1_555
N14_4 Zn3_4 1_555 1_555
N3_7 C6_7 1_555 1_555
C8_7 C14_7 1_555 1_555
C15_7 C16_7 1_555 1_555
C29_7 C34_7 1_555 1_555
C31_7 C33_7 1_555 1_555
N5_7 C3_7 1_555 1_555
N6_7 C3_7 1_555 1_555
N9_7 C7_7 1_555 1_555
C1_7 C3_7 1_555 1_555
N12_4 C30_7 1_555 1_555
C7_7 N5_7 1_555 1_555
C10_7 N6_7 1_555 1_555
C18_7 C10_7 1_555 1_555
C20_7 C1_7 1_555 1_555
H8_7 C20_7 1_555 1_555
C26_7 C18_7 1_555 1_555
H14_7 C26_7 1_555 1_555
C27_7 C18_7 1_555 1_555
H15_7 C27_7 1_555 1_555
C30_7 C27_7 1_555 1_555
H18_7 C30_7 1_555 1_555
C35_7 N12_4 1_555 1_555
H23_7 C35_7 1_555 1_555
Zn5_4 N12_4 1_555 1_555
N9_7 C10_7 1_555 1_555
C26_7 C35_7 1_555 1_555
N1_8 C5_8 1_555 1_555
N3_8 C4_8 1_555 1_555
N5_8 C3_8 1_555 1_555
N6_8 C3_8 1_555 1_555
N8_8 C4_8 1_555 1_555
N9_8 C7_8 1_555 1_555
N11_8 C28_8 1_555 1_555
C1_8 C3_8 1_555 1_555
N14_4 C30_8 1_555 1_555
C4_8 C11_8 1_555 1_555
C5_8 N8_8 1_555 1_555
C6_8 N1_8 1_555 1_555
C7_8 N5_8 1_555 1_555
C8_8 C1_8 1_555 1_555
H1_8 C8_8 1_555 1_555
C9_8 C6_8 1_555 1_555
C10_8 N6_8 1_555 1_555
C11_8 C23_8 1_555 1_555
C13_8 C5_8 1_555 1_555
H3_8 C14_8 1_555 1_555
H4_8 C15_8 1_555 1_555
C16_8 C9_8 1_555 1_555
H5_8 C16_8 1_555 1_555
C18_8 C10_8 1_555 1_555
C20_8 C1_8 1_555 1_555
H8_8 C20_8 1_555 1_555
C23_8 H11_8 1_555 1_555
C26_8 C18_8 1_555 1_555
H14_8 C26_8 1_555 1_555
C27_8 C18_8 1_555 1_555
H15_8 C27_8 1_555 1_555
C28_8 C23_8 1_555 1_555
H16_8 C28_8 1_555 1_555
C29_8 C11_8 1_555 1_555
H17_8 C29_8 1_555 1_555
C30_8 C27_8 1_555 1_555
H18_8 C30_8 1_555 1_555
C31_8 C13_8 1_555 1_555
H19_8 C31_8 1_555 1_555
H21_8 C33_8 1_555 1_555
C34_8 N11_8 1_555 1_555
H22_8 C34_8 1_555 1_555
C35_8 N14_4 1_555 1_555
H23_8 C35_8 1_555 1_555
Cl5_8 Zn5_4 1_555 1_555
Zn5_4 N11_8 1_555 1_555
Cl6_8 Zn5_4 1_555 1_555
N3_8 C6_8 1_555 1_555
N9_8 C10_8 1_555 1_555
C8_8 C14_8 1_555 1_555
C15_8 C16_8 1_555 1_555
C26_8 C35_8 1_555 1_555
C29_8 C34_8 1_555 1_555
C31_8 C33_8 1_555 1_555

#END
