
###############################################################################
#
# This file contains modified crystal structure data generated from the
# MOF subset of the Cambridge Structural Database (CSD) v543 
# hosted by the Cambridge Crystallographic Data Centre (CCDC).
#
# This work is licensed under the Creative Commons
# Attribution-NonCommercial-ShareAlike 4.0 International License.
# To view a copy of this license, visit
# http://creativecommons.org/licenses/by-nc-sa/4.0/
# or send a letter to
# Creative Commons, PO Box 1866, Mountain View, CA 94042, USA.
#
# CIF created using the CSD Python API on 29 September 2022
# The structure has been converted into the P1 space group
# The structure has a 3D framework
# The original CSD entry EZILUV is in the rhombohedral crystal system
# The framework has been calculated to contain at least 10.0% void space
# The void calculation uses a probe of radius 1.32A, grid spacing 0.4
#
###############################################################################

data_EZILUV
_chemical_formula_moiety         '(C540 H252 Cu36 N36 O144)n'
_symmetry_cell_setting           triclinic
_symmetry_space_group_name_H-M   'P 1'
_symmetry_Int_Tables_number      1
_space_group_name_Hall           'P 1'
loop_
_symmetry_equiv_pos_site_id
_symmetry_equiv_pos_as_xyz
1 x,y,z
_cell_length_a                   18.249(3)
_cell_length_b                   18.249(3)
_cell_length_c                   72.569(15)
_cell_angle_alpha                90
_cell_angle_beta                 90
_cell_angle_gamma                120
_cell_volume                     20929.6
loop_
_atom_site_label
_atom_site_type_symbol
_atom_site_fract_x
_atom_site_fract_y
_atom_site_fract_z
Cu1 Cu 0.792188(19) 0.177395(19) 0.931121(4)
O1 O 0.68754(13) 0.13387(14) 0.91743(3)
O2 O 0.72831(13) 0.08984(14) 0.89261(3)
O3 O 0.44087(13) 0.15989(15) 0.91604(3)
O4 O 0.35371(12) 0.11607(15) 0.89163(3)
C8 C 0.48955(19) 0.0094(2) 0.86854(4)
C9 C 0.56690(19) 0.0291(2) 0.87666(4)
H5 H 0.6011 0.0090 0.8713
C10 C 0.59355(17) 0.07798(17) 0.89252(4)
C11 C 0.54359(16) 0.10798(17) 0.90035(4)
H6 H 0.5615 0.1406 0.9113
C12 C 0.46754(16) 0.08997(17) 0.89203(4)
C13 C 0.44079(18) 0.0412(2) 0.87616(4)
H7 H 0.3892 0.0294 0.8704
C14 C 0.67552(17) 0.10152(17) 0.90151(3)
C15 C 0.41678(16) 0.12522(17) 0.90053(4)
Cu2 Cu 0.844062(19) 0.125521(19) 0.902212(4)
Cu3 Cu 0.385207(27) 0.207812(19) 0.931121(4)
Cu4 Cu 0.281460(27) 0.155938(19) 0.902212(4)
O5 O 0.75651(14) 0.06164(13) 0.94072(3)
O6 O 0.84011(15) 0.28098(20) 0.91604(3)
O7 O 0.90431(19) 0.21726(15) 0.94170(3)
N2 N 0.74023(16) 0.20391(21) 0.95550(3)
N1 N 0.40690(16) 0.86966(13) 0.78883(3)
C1 C 0.43688(17) 0.90591(16) 0.80504(4)
H1 H 0.4887 0.9582 0.8053
C2 C 0.3327(2) 0.79529(18) 0.78853(4)
H2 H 0.3103 0.7695 0.7770
C3 C 0.2883(2) 0.7552(2) 0.80430(5)
H3 H 0.2370 0.7026 0.8036
C4 C 0.3204(2) 0.7936(2) 0.82120(5)
H4 H 0.2913 0.7676 0.8323
C5 C 0.3959(2) 0.87088(18) 0.82169(4)
C6 C 0.4311(2) 0.9161(2) 0.83859(4)
C7 C 0.4602(2) 0.9584(2) 0.85228(4)
Cu5 Cu 0.458855(19) 0.948126(27) 0.764454(4)
N1_2 N 0.13034(13) 0.53724(21) 0.78883(3)
C1_2 C 0.09409(16) 0.53097(23) 0.80504(4)
H1_2 H 0.0418 0.5305 0.8053
C2_2 C 0.20471(18) 0.53741(27) 0.78853(4)
H2_2 H 0.2305 0.5408 0.7770
C3_2 C 0.2448(2) 0.5331(3) 0.80430(5)
H3_2 H 0.2974 0.5344 0.8036
C4_2 C 0.2064(2) 0.5268(3) 0.82120(5)
H4_2 H 0.2324 0.5237 0.8323
C5_2 C 0.12912(18) 0.52502(27) 0.82169(4)
C6_2 C 0.0839(2) 0.5150(3) 0.83859(4)
C7_2 C 0.0416(2) 0.5018(3) 0.85228(4)
Cu5_2 Cu 0.051874(27) 0.510728(33) 0.764454(4)
Cu1_2 Cu 0.822605(19) 0.614793(27) 0.931121(4)
O1_2 O 0.86613(14) 0.55367(19) 0.91743(3)
O2_2 O 0.91016(14) 0.63847(19) 0.89261(3)
O4_2 O 0.88393(15) 0.23764(19) 0.89163(3)
C8_2 C 0.9906(2) 0.48015(28) 0.86854(4)
C9_2 C 0.9709(2) 0.53780(28) 0.87666(4)
H5_2 H 0.9910 0.5921 0.8713
C10_2 C 0.92202(17) 0.51557(24) 0.89252(4)
C11_2 C 0.89202(17) 0.43561(23) 0.90035(4)
H6_2 H 0.8594 0.4209 0.9113
C12_2 C 0.91003(17) 0.37757(23) 0.89203(4)
C13_2 C 0.9588(2) 0.39959(27) 0.87616(4)
H7_2 H 0.9706 0.3598 0.8704
C14_2 C 0.89848(17) 0.57400(24) 0.90151(3)
C15_2 C 0.87478(17) 0.29156(23) 0.90053(4)
Cu2_2 Cu 0.874479(19) 0.718540(27) 0.902212(4)
O5_2 O 0.93836(13) 0.69486(19) 0.94072(3)
O6_2 O 0.71902(20) 0.55913(25) 0.91604(3)
O7_2 O 0.78274(15) 0.68704(24) 0.94170(3)
N2_2 N 0.79609(21) 0.53633(26) 0.95550(3)
O1_3 O 0.44633(19) 0.31246(13) 0.91743(3)
O2_3 O 0.36153(19) 0.27169(13) 0.89261(3)
O4_3 O 0.76236(19) 0.64629(12) 0.89163(3)
N1_3 N 0.46276(21) 0.59310(16) 0.78883(3)
C1_3 C 0.46903(23) 0.56312(17) 0.80504(4)
H1_3 H 0.4695 0.5113 0.8053
C2_3 C 0.46259(27) 0.6673(2) 0.78853(4)
H2_3 H 0.4592 0.6897 0.7770
C3_3 C 0.4669(3) 0.7117(2) 0.80430(5)
H3_3 H 0.4656 0.7630 0.8036
C4_3 C 0.4732(3) 0.6796(2) 0.82120(5)
H4_3 H 0.4763 0.7087 0.8323
C5_3 C 0.47498(27) 0.6041(2) 0.82169(4)
C6_3 C 0.4850(3) 0.5689(2) 0.83859(4)
C7_3 C 0.4982(3) 0.5398(2) 0.85228(4)
C8_3 C 0.51985(28) 0.51045(19) 0.86854(4)
C9_3 C 0.46220(28) 0.43310(19) 0.87666(4)
H5_3 H 0.4079 0.3989 0.8713
C10_3 C 0.48443(24) 0.40645(17) 0.89252(4)
C11_3 C 0.56439(23) 0.45641(16) 0.90035(4)
H6_3 H 0.5791 0.4385 0.9113
C12_3 C 0.62243(23) 0.53246(16) 0.89203(4)
C13_3 C 0.60041(27) 0.55921(18) 0.87616(4)
H7_3 H 0.6402 0.6108 0.8704
C14_3 C 0.42600(24) 0.32448(17) 0.90151(3)
C15_3 C 0.70844(23) 0.58322(16) 0.90053(4)
Cu5_3 Cu 0.489272(33) 0.541145(19) 0.764454(4)
O5_3 O 0.30514(19) 0.24349(14) 0.94072(3)
O7_3 O 0.31296(24) 0.09569(19) 0.94170(3)
N2_3 N 0.46367(26) 0.25977(16) 0.95550(3)
Cu1_3 Cu 0.177395(19) 0.792188(19) 0.568879(4)
O1_4 O 0.13387(14) 0.68754(13) 0.58257(3)
O2_4 O 0.08984(14) 0.72831(13) 0.60739(3)
O3_2 O 0.15989(15) 0.44087(13) 0.58396(3)
O4_4 O 0.11607(15) 0.35371(12) 0.60837(3)
C8_4 C 0.0094(2) 0.48955(19) 0.63146(4)
C9_4 C 0.0291(2) 0.56690(19) 0.62334(4)
H5_4 H 0.0090 0.6011 0.6287
C10_4 C 0.07798(17) 0.59355(17) 0.60748(4)
C11_4 C 0.10798(17) 0.54359(16) 0.59965(4)
H6_4 H 0.1406 0.5615 0.5887
C12_4 C 0.08997(17) 0.46754(16) 0.60797(4)
C13_4 C 0.0412(2) 0.44079(18) 0.62384(4)
H7_4 H 0.0294 0.3892 0.6296
C14_4 C 0.10152(17) 0.67552(17) 0.59849(3)
C15_4 C 0.12522(17) 0.41678(16) 0.59947(4)
Cu2_3 Cu 0.125521(19) 0.844062(19) 0.597788(4)
Cu3_2 Cu 0.207812(19) 0.385207(27) 0.568879(4)
Cu4_2 Cu 0.155938(19) 0.281460(27) 0.597788(4)
O5_4 O 0.06164(13) 0.75651(14) 0.55928(3)
O6_3 O 0.28098(20) 0.84011(15) 0.58396(3)
O7_4 O 0.21726(15) 0.90431(19) 0.55830(3)
N2_4 N 0.20391(21) 0.74023(16) 0.54450(3)
N1_4 N 0.86966(13) 0.40690(16) 0.71117(3)
C1_4 C 0.90591(16) 0.43688(17) 0.69496(4)
H1_4 H 0.9582 0.4887 0.6947
C2_4 C 0.79529(18) 0.3327(2) 0.71147(4)
H2_4 H 0.7695 0.3103 0.7230
C3_4 C 0.7552(2) 0.2883(2) 0.69570(5)
H3_4 H 0.7026 0.2370 0.6964
C4_4 C 0.7936(2) 0.3204(2) 0.67880(5)
H4_4 H 0.7676 0.2913 0.6677
C5_4 C 0.87088(18) 0.3959(2) 0.67831(4)
C6_4 C 0.9161(2) 0.4311(2) 0.66141(4)
C7_4 C 0.9584(2) 0.4602(2) 0.64772(4)
Cu5_4 Cu 0.948126(27) 0.458855(19) 0.735546(4)
N1_5 N 0.53724(21) 0.13034(13) 0.71117(3)
C1_5 C 0.53097(23) 0.09409(16) 0.69496(4)
H1_5 H 0.5305 0.0418 0.6947
C2_5 C 0.53741(27) 0.20471(18) 0.71147(4)
H2_5 H 0.5408 0.2305 0.7230
C3_5 C 0.5331(3) 0.2448(2) 0.69570(5)
H3_5 H 0.5344 0.2974 0.6964
C4_5 C 0.5268(3) 0.2064(2) 0.67880(5)
H4_5 H 0.5237 0.2324 0.6677
C5_5 C 0.52502(27) 0.12912(18) 0.67831(4)
C6_5 C 0.5150(3) 0.0839(2) 0.66141(4)
C7_5 C 0.5018(3) 0.0416(2) 0.64772(4)
Cu5_5 Cu 0.510728(33) 0.051874(27) 0.735546(4)
Cu1_4 Cu 0.614793(27) 0.822605(19) 0.568879(4)
O1_5 O 0.55367(19) 0.86613(14) 0.58257(3)
O2_5 O 0.63847(19) 0.91016(14) 0.60739(3)
O4_5 O 0.23764(19) 0.88393(15) 0.60837(3)
C8_5 C 0.48015(28) 0.9906(2) 0.63146(4)
C9_5 C 0.53780(28) 0.9709(2) 0.62334(4)
H5_5 H 0.5921 0.9910 0.6287
C10_5 C 0.51557(24) 0.92202(17) 0.60748(4)
C11_5 C 0.43561(23) 0.89202(17) 0.59965(4)
H6_5 H 0.4209 0.8594 0.5887
C12_5 C 0.37757(23) 0.91003(17) 0.60797(4)
C13_5 C 0.39959(27) 0.9588(2) 0.62384(4)
H7_5 H 0.3598 0.9706 0.6296
C14_5 C 0.57400(24) 0.89848(17) 0.59849(3)
C15_5 C 0.29156(23) 0.87478(17) 0.59947(4)
Cu2_4 Cu 0.718540(27) 0.874479(19) 0.597788(4)
O5_5 O 0.69486(19) 0.93836(13) 0.55928(3)
O6_4 O 0.55913(25) 0.71902(20) 0.58396(3)
O7_5 O 0.68704(24) 0.78274(15) 0.55830(3)
N2_5 N 0.53633(26) 0.79609(21) 0.54450(3)
O1_6 O 0.31246(13) 0.44633(19) 0.58257(3)
O2_6 O 0.27169(13) 0.36153(19) 0.60739(3)
O4_6 O 0.64629(12) 0.76236(19) 0.60837(3)
N1_6 N 0.59310(16) 0.46276(21) 0.71117(3)
C1_6 C 0.56312(17) 0.46903(23) 0.69496(4)
H1_6 H 0.5113 0.4695 0.6947
C2_6 C 0.6673(2) 0.46259(27) 0.71147(4)
H2_6 H 0.6897 0.4592 0.7230
C3_6 C 0.7117(2) 0.4669(3) 0.69570(5)
H3_6 H 0.7630 0.4656 0.6964
C4_6 C 0.6796(2) 0.4732(3) 0.67880(5)
H4_6 H 0.7087 0.4763 0.6677
C5_6 C 0.6041(2) 0.47498(27) 0.67831(4)
C6_6 C 0.5689(2) 0.4850(3) 0.66141(4)
C7_6 C 0.5398(2) 0.4982(3) 0.64772(4)
C8_6 C 0.51045(19) 0.51985(28) 0.63146(4)
C9_6 C 0.43310(19) 0.46220(28) 0.62334(4)
H5_6 H 0.3989 0.4079 0.6287
C10_6 C 0.40645(17) 0.48443(24) 0.60748(4)
C11_6 C 0.45641(16) 0.56439(23) 0.59965(4)
H6_6 H 0.4385 0.5791 0.5887
C12_6 C 0.53246(16) 0.62243(23) 0.60797(4)
C13_6 C 0.55921(18) 0.60041(27) 0.62384(4)
H7_6 H 0.6108 0.6402 0.6296
C14_6 C 0.32448(17) 0.42600(24) 0.59849(3)
C15_6 C 0.58322(16) 0.70844(23) 0.59947(4)
Cu5_6 Cu 0.541145(19) 0.489272(33) 0.735546(4)
O5_6 O 0.24349(14) 0.30514(19) 0.55928(3)
O7_6 O 0.09569(19) 0.31296(24) 0.55830(3)
N2_6 N 0.25977(16) 0.46367(26) 0.54450(3)
Cu1_5 Cu 0.458855(19) 0.510728(19) 0.264454(4)
O1_7 O 0.35421(13) 0.46720(14) 0.25076(3)
O2_7 O 0.39498(13) 0.42317(14) 0.22594(3)
O3_3 O 0.10754(13) 0.49322(15) 0.24937(3)
O4_7 O 0.02038(12) 0.44940(15) 0.22496(3)
N1_7 N 0.07357(16) 0.20299(13) 0.12216(3)
C1_7 C 0.10355(17) 0.23924(16) 0.13837(4)
H1_7 H 0.1554 0.2915 0.1386
C5_7 C 0.0626(2) 0.20421(18) 0.15502(4)
C6_7 C 0.0978(2) 0.2494(2) 0.17192(4)
C7_7 C 0.1269(2) 0.2917(2) 0.18561(4)
C8_7 C 0.15622(19) 0.3427(2) 0.20187(4)
C9_7 C 0.23357(19) 0.3624(2) 0.20999(4)
H5_7 H 0.2678 0.3423 0.2046
C10_7 C 0.26022(17) 0.41131(17) 0.22585(4)
C11_7 C 0.21026(16) 0.44131(17) 0.23368(4)
H6_7 H 0.2282 0.4739 0.2446
C12_7 C 0.13421(16) 0.42330(17) 0.22536(4)
C13_7 C 0.10746(18) 0.3745(2) 0.20949(4)
H7_7 H 0.0559 0.3627 0.2037
C14_7 C 0.34219(17) 0.43485(17) 0.23484(3)
C15_7 C 0.08345(16) 0.45855(17) 0.23386(4)
Cu2_5 Cu 0.510728(19) 0.458855(19) 0.235546(4)
Cu3_3 Cu 0.051874(27) 0.541145(19) 0.264454(4)
Cu5_7 Cu 0.125521(19) 0.281460(27) 0.097788(4)
O5_7 O 0.42317(14) 0.39498(13) 0.27406(3)
O6_5 O 0.50678(15) 0.61431(20) 0.24937(3)
O7_7 O 0.57097(19) 0.55060(15) 0.27504(3)
N2_7 N 0.40690(16) 0.53724(21) 0.28883(3)
C2_7 C 0.9994(2) 0.12862(18) 0.12186(4)
H2_7 H 0.9770 0.1028 0.1103
C3_7 C 0.9550(2) 0.0885(2) 0.13763(5)
H3_7 H 0.9037 0.0359 0.1369
C4_7 C 0.9871(2) 0.1269(2) 0.15453(5)
H4_7 H 0.9580 0.1009 0.1656
Cu4_3 Cu 0.948126(27) 0.489272(19) 0.235546(4)
Cu2_6 Cu 0.541145(19) 0.051874(27) 0.235546(4)
O5_8 O 0.60502(13) 0.02820(19) 0.27406(3)
O7_8 O 0.44940(15) 0.02038(24) 0.27504(3)
Cu1_6 Cu 0.489272(19) 0.948126(27) 0.264454(4)
O1_8 O 0.53280(14) 0.88700(19) 0.25076(3)
O2_8 O 0.57683(14) 0.97180(19) 0.22594(3)
O4_8 O 0.55060(15) 0.57097(19) 0.22496(3)
N1_8 N 0.79701(13) 0.87057(21) 0.12216(3)
C1_8 C 0.76076(16) 0.86430(23) 0.13837(4)
H1_8 H 0.7085 0.8638 0.1386
C2_8 C 0.87138(18) 0.87074(27) 0.12186(4)
H2_8 H 0.8972 0.8741 0.1103
C3_8 C 0.9115(2) 0.8664(3) 0.13763(5)
H3_8 H 0.9641 0.8677 0.1369
C4_8 C 0.8731(2) 0.8601(3) 0.15453(5)
H4_8 H 0.8991 0.8570 0.1656
C5_8 C 0.79579(18) 0.85835(27) 0.15502(4)
C6_8 C 0.7506(2) 0.8483(3) 0.17192(4)
C7_8 C 0.7083(2) 0.8351(3) 0.18561(4)
C8_8 C 0.6573(2) 0.81348(28) 0.20187(4)
C9_8 C 0.6376(2) 0.87113(28) 0.20999(4)
H5_8 H 0.6577 0.9254 0.2046
C10_8 C 0.58869(17) 0.84890(24) 0.22585(4)
C11_8 C 0.55869(17) 0.76894(23) 0.23368(4)
H6_8 H 0.5261 0.7542 0.2446
C12_8 C 0.57670(17) 0.71090(23) 0.22536(4)
C13_8 C 0.6255(2) 0.73292(27) 0.20949(4)
H7_8 H 0.6373 0.6931 0.2037
C14_8 C 0.56515(17) 0.90733(24) 0.23484(3)
C15_8 C 0.54145(17) 0.62489(23) 0.23386(4)
Cu5_8 Cu 0.718540(27) 0.844062(33) 0.097788(4)
O6_6 O 0.38569(20) 0.89246(25) 0.24937(3)
N2_8 N 0.46276(21) 0.86966(26) 0.28883(3)
C2_9 C 0.12926(27) 0.0006(2) 0.12186(4)
H2_9 H 0.1259 0.0230 0.1103
C3_9 C 0.1336(3) 0.0450(2) 0.13763(5)
H3_9 H 0.1323 0.0963 0.1369
C4_9 C 0.1399(3) 0.0129(2) 0.15453(5)
H4_9 H 0.1430 0.0420 0.1656
O1_9 O 0.11300(19) 0.64579(13) 0.25076(3)
O2_9 O 0.02820(19) 0.60502(13) 0.22594(3)
O4_9 O 0.42903(19) 0.97962(12) 0.22496(3)
N1_9 N 0.12943(21) 0.92643(16) 0.12216(3)
C1_9 C 0.13570(23) 0.89645(17) 0.13837(4)
H1_9 H 0.1362 0.8446 0.1386
C5_9 C 0.14165(27) 0.9374(2) 0.15502(4)
C6_9 C 0.1517(3) 0.9022(2) 0.17192(4)
C7_9 C 0.1649(3) 0.8731(2) 0.18561(4)
C8_9 C 0.18652(28) 0.84378(19) 0.20187(4)
C9_9 C 0.12887(28) 0.76643(19) 0.20999(4)
H5_9 H 0.0746 0.7322 0.2046
C10_9 C 0.15110(24) 0.73978(17) 0.22585(4)
C11_9 C 0.23106(23) 0.78974(16) 0.23368(4)
H6_9 H 0.2458 0.7718 0.2446
C12_9 C 0.28910(23) 0.86579(16) 0.22536(4)
C13_9 C 0.26708(27) 0.89254(18) 0.20949(4)
H7_9 H 0.3069 0.9441 0.2037
C14_9 C 0.09267(24) 0.65781(17) 0.23484(3)
C15_9 C 0.37511(23) 0.91655(16) 0.23386(4)
Cu5_9 Cu 0.155938(33) 0.874479(19) 0.097788(4)
N2_9 N 0.13034(26) 0.59310(16) 0.28883(3)
O5_9 O 0.97180(19) 0.57683(14) 0.27406(3)
O7_9 O 0.97962(24) 0.42903(19) 0.27504(3)
O1_10 O 0.80054(14) 0.02087(13) 0.91590(3)
C14_10 C 0.76819(17) 0.00885(17) 0.93182(3)
O6_7 O 0.94765(20) 0.17344(15) 0.91729(3)
N2_10 N 0.87057(21) 0.07357(16) 0.87784(3)
N1_10 N 0.53633(13) 0.74023(16) 0.04450(3)
C1_10 C 0.57258(16) 0.77021(17) 0.02829(4)
H1_10 H 0.6249 0.8220 0.0280
C2_10 C 0.46196(18) 0.6660(2) 0.04480(4)
H2_10 H 0.4362 0.6436 0.0563
C3_10 C 0.4219(2) 0.6216(2) 0.02903(5)
H3_10 H 0.3693 0.5703 0.0297
C4_10 C 0.4603(2) 0.6537(2) 0.01213(5)
H4_10 H 0.4343 0.6246 0.0010
C5_10 C 0.53755(18) 0.7292(2) 0.01164(4)
Cu5_10 Cu 0.614793(27) 0.792188(19) 0.068879(4)
O3_4 O 0.82656(15) 0.77420(13) 0.91729(3)
C6_10 C 0.5828(2) 0.7644(2) 0.99474(4)
C7_10 C 0.6251(2) 0.7935(2) 0.98105(4)
C8_10 C 0.6761(2) 0.82288(19) 0.96479(4)
C9_10 C 0.6958(2) 0.90023(19) 0.95667(4)
H5_10 H 0.6757 0.9344 0.9620
C10_10 C 0.74465(17) 0.92688(17) 0.94081(4)
C11_10 C 0.77465(17) 0.87692(16) 0.93298(4)
H6_10 H 0.8073 0.8948 0.9220
C12_10 C 0.75664(17) 0.80087(16) 0.94130(4)
C13_10 C 0.7079(2) 0.77412(18) 0.95717(4)
H7_10 H 0.6961 0.7225 0.9629
C15_10 C 0.79189(17) 0.75011(16) 0.93280(4)
N1_11 N 0.20391(21) 0.46367(13) 0.04450(3)
C1_11 C 0.19764(23) 0.42742(16) 0.02829(4)
H1_11 H 0.1972 0.3751 0.0280
C2_11 C 0.20408(27) 0.53804(18) 0.04480(4)
H2_11 H 0.2075 0.5638 0.0563
C3_11 C 0.1998(3) 0.5781(2) 0.02903(5)
H3_11 H 0.2011 0.6307 0.0297
C4_11 C 0.1935(3) 0.5397(2) 0.01213(5)
H4_11 H 0.1904 0.5657 0.0010
C5_11 C 0.19169(27) 0.46245(18) 0.01164(4)
Cu5_11 Cu 0.177395(33) 0.385207(27) 0.068879(4)
O1_11 O 0.22034(19) 0.19946(14) 0.91590(3)
C6_11 C 0.1817(3) 0.4172(2) 0.99474(4)
C7_11 C 0.1685(3) 0.3749(2) 0.98105(4)
C8_11 C 0.14682(28) 0.3239(2) 0.96479(4)
C9_11 C 0.20447(28) 0.3042(2) 0.95667(4)
H5_11 H 0.2588 0.3243 0.9620
C10_11 C 0.18224(24) 0.25535(17) 0.94081(4)
C11_11 C 0.10228(23) 0.22535(17) 0.93298(4)
H6_11 H 0.0876 0.1927 0.9220
C12_11 C 0.04424(23) 0.24336(17) 0.94130(4)
C13_11 C 0.06626(27) 0.2921(2) 0.95717(4)
H7_11 H 0.0265 0.3039 0.9629
C14_11 C 0.24067(24) 0.23181(17) 0.93182(3)
O6_8 O 0.22580(25) 0.05235(20) 0.91729(3)
N2_11 N 0.20299(26) 0.12943(21) 0.87784(3)
C15_11 C 0.95823(23) 0.20811(17) 0.93280(4)
C15_12 C 0.24989(16) 0.04177(23) 0.93280(4)
N1_12 N 0.25977(16) 0.79609(21) 0.04450(3)
C1_12 C 0.22979(17) 0.80236(23) 0.02829(4)
H1_12 H 0.1780 0.8028 0.0280
C2_12 C 0.3340(2) 0.79592(27) 0.04480(4)
H2_12 H 0.3564 0.7925 0.0563
C3_12 C 0.3784(2) 0.8002(3) 0.02903(5)
H3_12 H 0.4297 0.7989 0.0297
C4_12 C 0.3463(2) 0.8065(3) 0.01213(5)
H4_12 H 0.3754 0.8096 0.0010
C5_12 C 0.2708(2) 0.80831(27) 0.01164(4)
Cu5_12 Cu 0.207812(19) 0.822605(33) 0.068879(4)
O1_12 O 0.97913(13) 0.77966(19) 0.91590(3)
C14_12 C 0.99115(17) 0.75933(24) 0.93182(3)
N2_12 N 0.92643(16) 0.79701(26) 0.87784(3)
O1_13 O 0.02087(13) 0.80054(14) 0.58410(3)
C14_13 C 0.00885(17) 0.76819(17) 0.56818(3)
O6_9 O 0.17344(15) 0.94765(20) 0.58271(3)
N2_13 N 0.07357(16) 0.87057(21) 0.62216(3)
O3_5 O 0.77420(13) 0.82656(15) 0.58271(3)
N1_13 N 0.74023(16) 0.53633(13) 0.45550(3)
C1_13 C 0.77021(17) 0.57258(16) 0.47171(4)
H1_13 H 0.8220 0.6249 0.4720
C2_13 C 0.6660(2) 0.46196(18) 0.45520(4)
H2_13 H 0.6436 0.4362 0.4437
C3_13 C 0.6216(2) 0.4219(2) 0.47097(5)
H3_13 H 0.5703 0.3693 0.4703
C4_13 C 0.6537(2) 0.4603(2) 0.48787(5)
H4_13 H 0.6246 0.4343 0.4990
C5_13 C 0.7292(2) 0.53755(18) 0.48836(4)
C6_12 C 0.7644(2) 0.5828(2) 0.50526(4)
C7_12 C 0.7935(2) 0.6251(2) 0.51895(4)
C8_12 C 0.82288(19) 0.6761(2) 0.53521(4)
C9_12 C 0.90023(19) 0.6958(2) 0.54333(4)
H5_12 H 0.9344 0.6757 0.5380
C10_12 C 0.92688(17) 0.74465(17) 0.55919(4)
C11_12 C 0.87692(16) 0.77465(17) 0.56702(4)
H6_12 H 0.8948 0.8073 0.5780
C12_12 C 0.80087(16) 0.75664(17) 0.55870(4)
C13_12 C 0.77412(18) 0.7079(2) 0.54283(4)
H7_12 H 0.7225 0.6961 0.5371
C15_13 C 0.75011(16) 0.79189(17) 0.56720(4)
Cu5_13 Cu 0.792188(19) 0.614793(27) 0.431121(4)
O1_14 O 0.19946(14) 0.22034(19) 0.58410(3)
N1_14 N 0.46367(13) 0.20391(21) 0.45550(3)
C1_14 C 0.42742(16) 0.19764(23) 0.47171(4)
H1_14 H 0.3751 0.1972 0.4720
C2_14 C 0.53804(18) 0.20408(27) 0.45520(4)
H2_14 H 0.5638 0.2075 0.4437
C3_14 C 0.5781(2) 0.1998(3) 0.47097(5)
H3_14 H 0.6307 0.2011 0.4703
C4_14 C 0.5397(2) 0.1935(3) 0.48787(5)
H4_14 H 0.5657 0.1904 0.4990
C5_14 C 0.46245(18) 0.19169(27) 0.48836(4)
C6_13 C 0.4172(2) 0.1817(3) 0.50526(4)
C7_13 C 0.3749(2) 0.1685(3) 0.51895(4)
C8_13 C 0.3239(2) 0.14682(28) 0.53521(4)
C9_13 C 0.3042(2) 0.20447(28) 0.54333(4)
H5_13 H 0.3243 0.2588 0.5380
C10_13 C 0.25535(17) 0.18224(24) 0.55919(4)
C11_13 C 0.22535(17) 0.10228(23) 0.56702(4)
H6_13 H 0.1927 0.0876 0.5780
C12_13 C 0.24336(17) 0.04424(23) 0.55870(4)
C13_13 C 0.2921(2) 0.06626(27) 0.54283(4)
H7_13 H 0.3039 0.0265 0.5371
C14_14 C 0.23181(17) 0.24067(24) 0.56818(3)
Cu5_14 Cu 0.385207(27) 0.177395(33) 0.431121(4)
O6_10 O 0.05235(20) 0.22580(25) 0.58271(3)
N2_14 N 0.12943(21) 0.20299(26) 0.62216(3)
C15_14 C 0.20811(17) 0.95823(23) 0.56720(4)
C15_15 C 0.04177(23) 0.24989(16) 0.56720(4)
N1_15 N 0.79609(21) 0.25977(16) 0.45550(3)
C1_15 C 0.80236(23) 0.22979(17) 0.47171(4)
H1_15 H 0.8028 0.1780 0.4720
C2_15 C 0.79592(27) 0.3340(2) 0.45520(4)
H2_15 H 0.7925 0.3564 0.4437
C3_15 C 0.8002(3) 0.3784(2) 0.47097(5)
H3_15 H 0.7989 0.4297 0.4703
C4_15 C 0.8065(3) 0.3463(2) 0.48787(5)
H4_15 H 0.8096 0.3754 0.4990
C5_15 C 0.80831(27) 0.2708(2) 0.48836(4)
C6_14 C 0.8183(3) 0.2356(2) 0.50526(4)
C7_14 C 0.8315(3) 0.2065(2) 0.51895(4)
C8_14 C 0.85318(28) 0.17712(19) 0.53521(4)
C9_14 C 0.79553(28) 0.09977(19) 0.54333(4)
H5_14 H 0.7412 0.0656 0.5380
C10_14 C 0.81776(24) 0.07312(17) 0.55919(4)
C11_14 C 0.89772(23) 0.12308(16) 0.56702(4)
H6_14 H 0.9124 0.1052 0.5780
C12_14 C 0.95576(23) 0.19913(16) 0.55870(4)
C13_14 C 0.93374(27) 0.22588(18) 0.54283(4)
H7_14 H 0.9735 0.2775 0.5371
Cu5_15 Cu 0.822605(33) 0.207812(19) 0.431121(4)
O1_15 O 0.77966(19) 0.97913(13) 0.58410(3)
C14_15 C 0.75933(24) 0.99115(17) 0.56818(3)
N2_15 N 0.79701(26) 0.92643(16) 0.62216(3)
O1_16 O 0.46720(14) 0.35421(13) 0.24924(3)
O3_6 O 0.49322(15) 0.10754(13) 0.25063(3)
N1_16 N 0.20299(13) 0.07357(16) 0.37784(3)
C1_16 C 0.23924(16) 0.10355(17) 0.36163(4)
H1_16 H 0.2915 0.1554 0.3614
C5_16 C 0.20421(18) 0.0626(2) 0.34498(4)
C6_15 C 0.2494(2) 0.0978(2) 0.32808(4)
C7_15 C 0.2917(2) 0.1269(2) 0.31439(4)
C8_15 C 0.3427(2) 0.15622(19) 0.29813(4)
C9_15 C 0.3624(2) 0.23357(19) 0.29001(4)
H5_15 H 0.3423 0.2678 0.2954
C10_15 C 0.41131(17) 0.26022(17) 0.27415(4)
C11_15 C 0.44131(17) 0.21026(16) 0.26632(4)
H6_15 H 0.4739 0.2282 0.2554
C12_15 C 0.42330(17) 0.13421(16) 0.27464(4)
C13_15 C 0.3745(2) 0.10746(18) 0.29051(4)
H7_15 H 0.3627 0.0559 0.2963
C14_16 C 0.43485(17) 0.34219(17) 0.26516(3)
C15_16 C 0.45855(17) 0.08345(16) 0.26614(4)
Cu5_16 Cu 0.281460(27) 0.125521(19) 0.402212(4)
O6_11 O 0.61431(20) 0.50678(15) 0.25063(3)
N2_16 N 0.53724(21) 0.40690(16) 0.21117(3)
C2_16 C 0.12862(18) 0.9994(2) 0.37814(4)
H2_16 H 0.1028 0.9770 0.3897
C3_16 C 0.0885(2) 0.9550(2) 0.36237(5)
H3_16 H 0.0359 0.9037 0.3631
C4_16 C 0.1269(2) 0.9871(2) 0.34547(5)
H4_16 H 0.1009 0.9580 0.3344
O1_17 O 0.88700(19) 0.53280(14) 0.24924(3)
N1_17 N 0.87057(21) 0.79701(13) 0.37784(3)
C1_17 C 0.86430(23) 0.76076(16) 0.36163(4)
H1_17 H 0.8638 0.7085 0.3614
C2_17 C 0.87074(27) 0.87138(18) 0.37814(4)
H2_17 H 0.8741 0.8972 0.3897
C3_17 C 0.8664(3) 0.9115(2) 0.36237(5)
H3_17 H 0.8677 0.9641 0.3631
C4_17 C 0.8601(3) 0.8731(2) 0.34547(5)
H4_17 H 0.8570 0.8991 0.3344
C5_17 C 0.85835(27) 0.79579(18) 0.34498(4)
C6_16 C 0.8483(3) 0.7506(2) 0.32808(4)
C7_16 C 0.8351(3) 0.7083(2) 0.31439(4)
C8_16 C 0.81348(28) 0.6573(2) 0.29813(4)
C9_16 C 0.87113(28) 0.6376(2) 0.29001(4)
H5_16 H 0.9254 0.6577 0.2954
C10_16 C 0.84890(24) 0.58869(17) 0.27415(4)
C11_16 C 0.76894(23) 0.55869(17) 0.26632(4)
H6_16 H 0.7542 0.5261 0.2554
C12_16 C 0.71090(23) 0.57670(17) 0.27464(4)
C13_16 C 0.73292(27) 0.6255(2) 0.29051(4)
H7_16 H 0.6931 0.6373 0.2963
C14_17 C 0.90733(24) 0.56515(17) 0.26516(3)
C15_17 C 0.62489(23) 0.54145(17) 0.26614(4)
Cu5_17 Cu 0.844062(33) 0.718540(27) 0.402212(4)
O6_12 O 0.89246(25) 0.38569(20) 0.25063(3)
N2_17 N 0.86966(26) 0.46276(21) 0.21117(3)
C2_18 C 0.0006(2) 0.12926(27) 0.37814(4)
H2_18 H 0.0230 0.1259 0.3897
C3_18 C 0.0450(2) 0.1336(3) 0.36237(5)
H3_18 H 0.0963 0.1323 0.3631
C4_18 C 0.0129(2) 0.1399(3) 0.34547(5)
H4_18 H 0.0420 0.1430 0.3344
O1_18 O 0.64579(13) 0.11300(19) 0.24924(3)
N1_18 N 0.92643(16) 0.12943(21) 0.37784(3)
C1_18 C 0.89645(17) 0.13570(23) 0.36163(4)
H1_18 H 0.8446 0.1362 0.3614
C5_18 C 0.9374(2) 0.14165(27) 0.34498(4)
C6_17 C 0.9022(2) 0.1517(3) 0.32808(4)
C7_17 C 0.8731(2) 0.1649(3) 0.31439(4)
C8_17 C 0.84378(19) 0.18652(28) 0.29813(4)
C9_17 C 0.76643(19) 0.12887(28) 0.29001(4)
H5_17 H 0.7322 0.0746 0.2954
C10_17 C 0.73978(17) 0.15110(24) 0.27415(4)
C11_17 C 0.78974(16) 0.23106(23) 0.26632(4)
H6_17 H 0.7718 0.2458 0.2554
C12_17 C 0.86579(16) 0.28910(23) 0.27464(4)
C13_17 C 0.89254(18) 0.26708(27) 0.29051(4)
H7_17 H 0.9441 0.3069 0.2963
C14_18 C 0.65781(17) 0.09267(24) 0.26516(3)
C15_18 C 0.91655(16) 0.37511(23) 0.26614(4)
Cu5_18 Cu 0.874479(19) 0.155938(33) 0.402212(4)
N2_18 N 0.59310(16) 0.13034(26) 0.21117(3)
C1_19 C 0.56312(17) 0.09409(16) 0.19496(4)
H1_19 H 0.5113 0.0418 0.1947
C2_19 C 0.6673(2) 0.20471(18) 0.21147(4)
H2_19 H 0.6897 0.2305 0.2230
C3_19 C 0.7117(2) 0.2448(2) 0.19570(5)
H3_19 H 0.7630 0.2974 0.1964
C4_19 C 0.6796(2) 0.2064(2) 0.17880(5)
H4_19 H 0.7087 0.2324 0.1677
C5_19 C 0.6041(2) 0.12912(18) 0.17831(4)
C6_18 C 0.5689(2) 0.0839(2) 0.16141(4)
C7_18 C 0.5398(2) 0.0416(2) 0.14772(4)
O1_19 O 0.31246(13) 0.86613(14) 0.08257(3)
O2_10 O 0.27169(13) 0.91016(14) 0.10739(3)
O3_7 O 0.55913(13) 0.84011(15) 0.08396(3)
O4_10 O 0.64629(12) 0.88393(15) 0.10837(3)
C8_18 C 0.51045(19) 0.9906(2) 0.13146(4)
C9_18 C 0.43310(19) 0.9709(2) 0.12334(4)
H5_18 H 0.3989 0.9910 0.1287
C10_18 C 0.40645(17) 0.92202(17) 0.10748(4)
C11_18 C 0.45641(16) 0.89202(17) 0.09965(4)
H6_18 H 0.4385 0.8594 0.0887
C12_18 C 0.53246(16) 0.91003(17) 0.10797(4)
C13_18 C 0.55921(18) 0.9588(2) 0.12384(4)
H7_18 H 0.6108 0.9706 0.1296
C14_19 C 0.32448(17) 0.89848(17) 0.09849(3)
C15_19 C 0.58322(16) 0.87478(17) 0.09947(4)
O5_10 O 0.24349(14) 0.93836(13) 0.05928(3)
O6_13 O 0.15989(15) 0.71902(20) 0.08396(3)
O7_10 O 0.09569(19) 0.78274(15) 0.05830(3)
O1_20 O 0.13387(14) 0.44633(19) 0.08257(3)
O2_11 O 0.08984(14) 0.36153(19) 0.10739(3)
O4_11 O 0.11607(15) 0.76236(19) 0.10837(3)
C8_19 C 0.0094(2) 0.51985(28) 0.13146(4)
C9_19 C 0.0291(2) 0.46220(28) 0.12334(4)
H5_19 H 0.0090 0.4079 0.1287
C10_19 C 0.07798(17) 0.48443(24) 0.10748(4)
C11_19 C 0.10798(17) 0.56439(23) 0.09965(4)
H6_19 H 0.1406 0.5791 0.0887
C12_19 C 0.08997(17) 0.62243(23) 0.10797(4)
C13_19 C 0.0412(2) 0.60041(27) 0.12384(4)
H7_19 H 0.0294 0.6402 0.1296
C14_20 C 0.10152(17) 0.42600(24) 0.09849(3)
C15_20 C 0.12522(17) 0.70844(23) 0.09947(4)
O5_11 O 0.06164(13) 0.30514(19) 0.05928(3)
O6_14 O 0.28098(20) 0.44087(25) 0.08396(3)
O7_11 O 0.21726(15) 0.31296(24) 0.05830(3)
C1_20 C 0.90591(16) 0.46903(23) 0.19496(4)
H1_20 H 0.9582 0.4695 0.1947
C2_20 C 0.79529(18) 0.46259(27) 0.21147(4)
H2_20 H 0.7695 0.4592 0.2230
C3_20 C 0.7552(2) 0.4669(3) 0.19570(5)
H3_20 H 0.7026 0.4656 0.1964
C4_20 C 0.7936(2) 0.4732(3) 0.17880(5)
H4_20 H 0.7676 0.4763 0.1677
C5_20 C 0.87088(18) 0.47498(27) 0.17831(4)
C6_19 C 0.9161(2) 0.4850(3) 0.16141(4)
C7_19 C 0.9584(2) 0.4982(3) 0.14772(4)
O1_21 O 0.55367(19) 0.68754(13) 0.08257(3)
O2_12 O 0.63847(19) 0.72831(13) 0.10739(3)
O4_12 O 0.23764(19) 0.35371(12) 0.10837(3)
C1_21 C 0.53097(23) 0.43688(17) 0.19496(4)
H1_21 H 0.5305 0.4887 0.1947
C2_21 C 0.53741(27) 0.3327(2) 0.21147(4)
H2_21 H 0.5408 0.3103 0.2230
C3_21 C 0.5331(3) 0.2883(2) 0.19570(5)
H3_21 H 0.5344 0.2370 0.1964
C4_21 C 0.5268(3) 0.3204(2) 0.17880(5)
H4_21 H 0.5237 0.2913 0.1677
C5_21 C 0.52502(27) 0.3959(2) 0.17831(4)
C6_20 C 0.5150(3) 0.4311(2) 0.16141(4)
C7_20 C 0.5018(3) 0.4602(2) 0.14772(4)
C8_20 C 0.48015(28) 0.48955(19) 0.13146(4)
C9_20 C 0.53780(28) 0.56690(19) 0.12334(4)
H5_20 H 0.5921 0.6011 0.1287
C10_20 C 0.51557(24) 0.59355(17) 0.10748(4)
C11_20 C 0.43561(23) 0.54359(16) 0.09965(4)
H6_20 H 0.4209 0.5615 0.0887
C12_20 C 0.37757(23) 0.46754(16) 0.10797(4)
C13_20 C 0.39959(27) 0.44079(18) 0.12384(4)
H7_20 H 0.3598 0.3892 0.1296
C14_21 C 0.57400(24) 0.67552(17) 0.09849(3)
C15_21 C 0.29156(23) 0.41678(16) 0.09947(4)
O5_12 O 0.69486(19) 0.75651(14) 0.05928(3)
O7_12 O 0.68704(24) 0.90431(19) 0.05830(3)
C1_22 C 0.09409(16) 0.56312(17) 0.30504(4)
H1_22 H 0.0418 0.5113 0.3053
C2_22 C 0.20471(18) 0.6673(2) 0.28853(4)
H2_22 H 0.2305 0.6897 0.2770
C3_22 C 0.2448(2) 0.7117(2) 0.30430(5)
H3_22 H 0.2974 0.7630 0.3036
C4_22 C 0.2064(2) 0.6796(2) 0.32120(5)
H4_22 H 0.2324 0.7087 0.3323
C5_22 C 0.12912(18) 0.6041(2) 0.32169(4)
C6_21 C 0.0839(2) 0.5689(2) 0.33859(4)
C7_21 C 0.0416(2) 0.5398(2) 0.35228(4)
O1_22 O 0.86613(14) 0.31246(13) 0.41743(3)
O2_13 O 0.91016(14) 0.27169(13) 0.39261(3)
O3_8 O 0.84011(15) 0.55913(13) 0.41604(3)
O4_13 O 0.88393(15) 0.64629(12) 0.39163(3)
C8_21 C 0.9906(2) 0.51045(19) 0.36854(4)
C9_21 C 0.9709(2) 0.43310(19) 0.37666(4)
H5_21 H 0.9910 0.3989 0.3713
C10_21 C 0.92202(17) 0.40645(17) 0.39252(4)
C11_21 C 0.89202(17) 0.45641(16) 0.40035(4)
H6_21 H 0.8594 0.4385 0.4113
C12_21 C 0.91003(17) 0.53246(16) 0.39203(4)
C13_21 C 0.9588(2) 0.55921(18) 0.37616(4)
H7_21 H 0.9706 0.6108 0.3704
C14_22 C 0.89848(17) 0.32448(17) 0.40151(3)
C15_22 C 0.87478(17) 0.58322(16) 0.40053(4)
O5_13 O 0.93836(13) 0.24349(14) 0.44072(3)
O6_15 O 0.71902(20) 0.15989(15) 0.41604(3)
O7_13 O 0.78274(15) 0.09569(19) 0.44170(3)
O1_23 O 0.44633(19) 0.13387(14) 0.41743(3)
O2_14 O 0.36153(19) 0.08984(14) 0.39261(3)
O4_14 O 0.76236(19) 0.11607(15) 0.39163(3)
C8_22 C 0.51985(28) 0.0094(2) 0.36854(4)
C9_22 C 0.46220(28) 0.0291(2) 0.37666(4)
H5_22 H 0.4079 0.0090 0.3713
C10_22 C 0.48443(24) 0.07798(17) 0.39252(4)
C11_22 C 0.56439(23) 0.10798(17) 0.40035(4)
H6_22 H 0.5791 0.1406 0.4113
C12_22 C 0.62243(23) 0.08997(17) 0.39203(4)
C13_22 C 0.60041(27) 0.0412(2) 0.37616(4)
H7_22 H 0.6402 0.0294 0.3704
C14_23 C 0.42600(24) 0.10152(17) 0.40151(3)
C15_23 C 0.70844(23) 0.12522(17) 0.40053(4)
O5_14 O 0.30514(19) 0.06164(13) 0.44072(3)
O6_16 O 0.44087(25) 0.28098(20) 0.41604(3)
O7_14 O 0.31296(24) 0.21726(15) 0.44170(3)
C1_23 C 0.46903(23) 0.90591(16) 0.30504(4)
H1_23 H 0.4695 0.9582 0.3053
C2_23 C 0.46259(27) 0.79529(18) 0.28853(4)
H2_23 H 0.4592 0.7695 0.2770
C3_23 C 0.4669(3) 0.7552(2) 0.30430(5)
H3_23 H 0.4656 0.7026 0.3036
C4_23 C 0.4732(3) 0.7936(2) 0.32120(5)
H4_23 H 0.4763 0.7676 0.3323
C5_23 C 0.47498(27) 0.87088(18) 0.32169(4)
C6_22 C 0.4850(3) 0.9161(2) 0.33859(4)
C7_22 C 0.4982(3) 0.9584(2) 0.35228(4)
O1_24 O 0.68754(13) 0.55367(19) 0.41743(3)
O2_15 O 0.72831(13) 0.63847(19) 0.39261(3)
O4_15 O 0.35371(12) 0.23764(19) 0.39163(3)
C1_24 C 0.43688(17) 0.53097(23) 0.30504(4)
H1_24 H 0.4887 0.5305 0.3053
C2_24 C 0.3327(2) 0.53741(27) 0.28853(4)
H2_24 H 0.3103 0.5408 0.2770
C3_24 C 0.2883(2) 0.5331(3) 0.30430(5)
H3_24 H 0.2370 0.5344 0.3036
C4_24 C 0.3204(2) 0.5268(3) 0.32120(5)
H4_24 H 0.2913 0.5237 0.3323
C5_24 C 0.3959(2) 0.52502(27) 0.32169(4)
C6_23 C 0.4311(2) 0.5150(3) 0.33859(4)
C7_23 C 0.4602(2) 0.5018(3) 0.35228(4)
C8_23 C 0.48955(19) 0.48015(28) 0.36854(4)
C9_23 C 0.56690(19) 0.53780(28) 0.37666(4)
H5_23 H 0.6011 0.5921 0.3713
C10_23 C 0.59355(17) 0.51557(24) 0.39252(4)
C11_23 C 0.54359(16) 0.43561(23) 0.40035(4)
H6_23 H 0.5615 0.4209 0.4113
C12_23 C 0.46754(16) 0.37757(23) 0.39203(4)
C13_23 C 0.44079(18) 0.39959(27) 0.37616(4)
H7_23 H 0.3892 0.3598 0.3704
C14_24 C 0.67552(17) 0.57400(24) 0.40151(3)
C15_24 C 0.41678(16) 0.29156(23) 0.40053(4)
O5_15 O 0.75651(14) 0.69486(19) 0.44072(3)
O7_15 O 0.90431(19) 0.68704(24) 0.44170(3)
C2_25 C 0.0006(2) 0.87138(18) 0.87814(4)
H2_25 H 0.0230 0.8972 0.8897
C3_25 C 0.0450(2) 0.9115(2) 0.86237(5)
H3_25 H 0.0963 0.9641 0.8631
C4_25 C 0.0129(2) 0.8731(2) 0.84547(5)
H4_25 H 0.0420 0.8991 0.8344
O1_25 O 0.64579(13) 0.53280(14) 0.74924(3)
O2_16 O 0.60502(13) 0.57683(14) 0.77406(3)
O3_9 O 0.89246(13) 0.50678(15) 0.75063(3)
O4_16 O 0.97962(12) 0.55060(15) 0.77504(3)
C1_25 C 0.89645(17) 0.76076(16) 0.86163(4)
H1_25 H 0.8446 0.7085 0.8614
C5_25 C 0.9374(2) 0.79579(18) 0.84498(4)
C6_24 C 0.9022(2) 0.7506(2) 0.82808(4)
C7_24 C 0.8731(2) 0.7083(2) 0.81439(4)
C8_24 C 0.84378(19) 0.6573(2) 0.79813(4)
C9_24 C 0.76643(19) 0.6376(2) 0.79001(4)
H5_24 H 0.7322 0.6577 0.7954
C10_24 C 0.73978(17) 0.58869(17) 0.77415(4)
C11_24 C 0.78974(16) 0.55869(17) 0.76632(4)
H6_24 H 0.7718 0.5261 0.7554
C12_24 C 0.86579(16) 0.57670(17) 0.77464(4)
C13_24 C 0.89254(18) 0.6255(2) 0.79051(4)
H7_24 H 0.9441 0.6373 0.7963
C14_25 C 0.65781(17) 0.56515(17) 0.76516(3)
C15_25 C 0.91655(16) 0.54145(17) 0.76614(4)
O5_16 O 0.57683(14) 0.60502(13) 0.72594(3)
O6_17 O 0.49322(15) 0.38569(20) 0.75063(3)
O7_16 O 0.42903(19) 0.44940(15) 0.72496(3)
O1_26 O 0.46720(14) 0.11300(19) 0.74924(3)
O2_17 O 0.42317(14) 0.02820(19) 0.77406(3)
O4_17 O 0.44940(15) 0.42903(19) 0.77504(3)
C1_26 C 0.23924(16) 0.13570(23) 0.86163(4)
H1_26 H 0.2915 0.1362 0.8614
C2_26 C 0.12862(18) 0.12926(27) 0.87814(4)
H2_26 H 0.1028 0.1259 0.8897
C3_26 C 0.0885(2) 0.1336(3) 0.86237(5)
H3_26 H 0.0359 0.1323 0.8631
C4_26 C 0.1269(2) 0.1399(3) 0.84547(5)
H4_26 H 0.1009 0.1430 0.8344
C5_26 C 0.20421(18) 0.14165(27) 0.84498(4)
C6_25 C 0.2494(2) 0.1517(3) 0.82808(4)
C7_25 C 0.2917(2) 0.1649(3) 0.81439(4)
C8_25 C 0.3427(2) 0.18652(28) 0.79813(4)
C9_25 C 0.3624(2) 0.12887(28) 0.79001(4)
H5_25 H 0.3423 0.0746 0.7954
C10_25 C 0.41131(17) 0.15110(24) 0.77415(4)
C11_25 C 0.44131(17) 0.23106(23) 0.76632(4)
H6_25 H 0.4739 0.2458 0.7554
C12_25 C 0.42330(17) 0.28910(23) 0.77464(4)
C13_25 C 0.3745(2) 0.26708(27) 0.79051(4)
H7_25 H 0.3627 0.3069 0.7963
C14_26 C 0.43485(17) 0.09267(24) 0.76516(3)
C15_26 C 0.45855(17) 0.37511(23) 0.76614(4)
O6_18 O 0.61431(20) 0.10754(25) 0.75063(3)
O5_17 O 0.39498(13) 0.97180(19) 0.72594(3)
O7_17 O 0.55060(15) 0.97962(24) 0.72496(3)
O5_18 O 0.02820(19) 0.42317(14) 0.72594(3)
O7_18 O 0.02038(24) 0.57097(19) 0.72496(3)
O1_27 O 0.88700(19) 0.35421(13) 0.74924(3)
O2_18 O 0.97180(19) 0.39498(13) 0.77406(3)
O4_18 O 0.57097(19) 0.02038(12) 0.77504(3)
C1_27 C 0.86430(23) 0.10355(17) 0.86163(4)
H1_27 H 0.8638 0.1554 0.8614
C5_27 C 0.85835(27) 0.0626(2) 0.84498(4)
C6_26 C 0.8483(3) 0.0978(2) 0.82808(4)
C7_26 C 0.8351(3) 0.1269(2) 0.81439(4)
C8_26 C 0.81348(28) 0.15622(19) 0.79813(4)
C9_26 C 0.87113(28) 0.23357(19) 0.79001(4)
H5_26 H 0.9254 0.2678 0.7954
C10_26 C 0.84890(24) 0.26022(17) 0.77415(4)
C11_26 C 0.76894(23) 0.21026(16) 0.76632(4)
H6_26 H 0.7542 0.2282 0.7554
C12_26 C 0.71090(23) 0.13421(16) 0.77464(4)
C13_26 C 0.73292(27) 0.10746(18) 0.79051(4)
H7_26 H 0.6931 0.0559 0.7963
C14_27 C 0.90733(24) 0.34219(17) 0.76516(3)
C15_27 C 0.62489(23) 0.08345(16) 0.76614(4)
C2_27 C 0.87074(27) 0.9994(2) 0.87814(4)
H2_27 H 0.8741 0.9770 0.8897
C3_27 C 0.8664(3) 0.9550(2) 0.86237(5)
H3_27 H 0.8677 0.9037 0.8631
C4_27 C 0.8601(3) 0.9871(2) 0.84547(5)
H4_27 H 0.8570 0.9580 0.8344
O3_10 O 0.17344(15) 0.22580(13) 0.08271(3)
C6_27 C 0.4172(2) 0.2356(2) 0.00526(4)
C7_27 C 0.3749(2) 0.2065(2) 0.01895(4)
C8_27 C 0.3239(2) 0.17712(19) 0.03521(4)
C9_27 C 0.3042(2) 0.09977(19) 0.04333(4)
H5_27 H 0.3243 0.0656 0.0380
C10_27 C 0.25535(17) 0.07312(17) 0.05919(4)
C11_27 C 0.22535(17) 0.12308(16) 0.06702(4)
H6_27 H 0.1927 0.1052 0.0780
C12_27 C 0.24336(17) 0.19913(16) 0.05870(4)
C13_27 C 0.2921(2) 0.22588(18) 0.04283(4)
H7_27 H 0.3039 0.2775 0.0371
C15_28 C 0.20811(17) 0.24989(16) 0.06720(4)
C1_28 C 0.42742(16) 0.22979(17) 0.97171(4)
H1_28 H 0.3751 0.1780 0.9720
C2_28 C 0.53804(18) 0.3340(2) 0.95520(4)
H2_28 H 0.5638 0.3564 0.9437
C3_28 C 0.5781(2) 0.3784(2) 0.97097(5)
H3_28 H 0.6307 0.4297 0.9703
C4_28 C 0.5397(2) 0.3463(2) 0.98787(5)
H4_28 H 0.5657 0.3754 0.9990
C5_28 C 0.46245(18) 0.2708(2) 0.98836(4)
O1_28 O 0.19946(14) 0.97913(13) 0.08410(3)
C14_28 C 0.23181(17) 0.99115(17) 0.06818(3)
O6_19 O 0.05235(20) 0.82656(15) 0.08271(3)
C15_29 C 0.04177(23) 0.79189(17) 0.06720(4)
O1_29 O 0.77966(19) 0.80054(14) 0.08410(3)
C6_28 C 0.8183(3) 0.5828(2) 0.00526(4)
C7_28 C 0.8315(3) 0.6251(2) 0.01895(4)
C8_28 C 0.85318(28) 0.6761(2) 0.03521(4)
C9_28 C 0.79553(28) 0.6958(2) 0.04333(4)
H5_28 H 0.7412 0.6757 0.0380
C10_28 C 0.81776(24) 0.74465(17) 0.05919(4)
C11_28 C 0.89772(23) 0.77465(17) 0.06702(4)
H6_28 H 0.9124 0.8073 0.0780
C12_28 C 0.95576(23) 0.75664(17) 0.05870(4)
C13_28 C 0.93374(27) 0.7079(2) 0.04283(4)
H7_28 H 0.9735 0.6961 0.0371
C14_29 C 0.75933(24) 0.76819(17) 0.06818(3)
O6_20 O 0.77420(25) 0.94765(20) 0.08271(3)
C1_29 C 0.80236(23) 0.57258(16) 0.97171(4)
H1_29 H 0.8028 0.6249 0.9720
C2_29 C 0.79592(27) 0.46196(18) 0.95520(4)
H2_29 H 0.7925 0.4362 0.9437
C3_29 C 0.8002(3) 0.4219(2) 0.97097(5)
H3_29 H 0.7989 0.3693 0.9703
C4_29 C 0.8065(3) 0.4603(2) 0.98787(5)
H4_29 H 0.8096 0.4343 0.9990
C5_29 C 0.80831(27) 0.53755(18) 0.98836(4)
O1_30 O 0.02087(13) 0.22034(19) 0.08410(3)
C14_30 C 0.00885(17) 0.24067(24) 0.06818(3)
C1_30 C 0.77021(17) 0.19764(23) 0.97171(4)
H1_30 H 0.8220 0.1972 0.9720
C2_30 C 0.6660(2) 0.20408(27) 0.95520(4)
H2_30 H 0.6436 0.2075 0.9437
C3_30 C 0.6216(2) 0.1998(3) 0.97097(5)
H3_30 H 0.5703 0.2011 0.9703
C4_30 C 0.6537(2) 0.1935(3) 0.98787(5)
H4_30 H 0.6246 0.1904 0.9990
C5_30 C 0.7292(2) 0.19169(27) 0.98836(4)
C15_30 C 0.75011(16) 0.95823(23) 0.06720(4)
O3_11 O 0.22580(13) 0.17344(15) 0.41729(3)
C1_31 C 0.22979(17) 0.42742(16) 0.52829(4)
H1_31 H 0.1780 0.3751 0.5280
C2_31 C 0.3340(2) 0.53804(18) 0.54480(4)
H2_31 H 0.3564 0.5638 0.5563
C3_31 C 0.3784(2) 0.5781(2) 0.52903(5)
H3_31 H 0.4297 0.6307 0.5297
C4_31 C 0.3463(2) 0.5397(2) 0.51213(5)
H4_31 H 0.3754 0.5657 0.5010
C5_31 C 0.2708(2) 0.46245(18) 0.51164(4)
C6_29 C 0.2356(2) 0.4172(2) 0.49474(4)
C7_29 C 0.2065(2) 0.3749(2) 0.48105(4)
C8_29 C 0.17712(19) 0.3239(2) 0.46479(4)
C9_29 C 0.09977(19) 0.3042(2) 0.45667(4)
H5_29 H 0.0656 0.3243 0.4620
C10_29 C 0.07312(17) 0.25535(17) 0.44081(4)
C11_29 C 0.12308(16) 0.22535(17) 0.43298(4)
H6_29 H 0.1052 0.1927 0.4220
C12_29 C 0.19913(16) 0.24336(17) 0.44130(4)
C13_29 C 0.22588(18) 0.2921(2) 0.45717(4)
H7_29 H 0.2775 0.3039 0.4629
C15_31 C 0.24989(16) 0.20811(17) 0.43280(4)
O1_31 O 0.97913(13) 0.19946(14) 0.41590(3)
C14_31 C 0.99115(17) 0.23181(17) 0.43182(3)
O6_21 O 0.82656(15) 0.05235(20) 0.41729(3)
C15_32 C 0.79189(17) 0.04177(23) 0.43280(4)
O1_32 O 0.80054(14) 0.77966(19) 0.41590(3)
C1_32 C 0.57258(16) 0.80236(23) 0.52829(4)
H1_32 H 0.6249 0.8028 0.5280
C2_32 C 0.46196(18) 0.79592(27) 0.54480(4)
H2_32 H 0.4362 0.7925 0.5563
C3_32 C 0.4219(2) 0.8002(3) 0.52903(5)
H3_32 H 0.3693 0.7989 0.5297
C4_32 C 0.4603(2) 0.8065(3) 0.51213(5)
H4_32 H 0.4343 0.8096 0.5010
C5_32 C 0.53755(18) 0.80831(27) 0.51164(4)
C6_30 C 0.5828(2) 0.8183(3) 0.49474(4)
C7_30 C 0.6251(2) 0.8315(3) 0.48105(4)
C8_30 C 0.6761(2) 0.85318(28) 0.46479(4)
C9_30 C 0.6958(2) 0.79553(28) 0.45667(4)
H5_30 H 0.6757 0.7412 0.4620
C10_30 C 0.74465(17) 0.81776(24) 0.44081(4)
C11_30 C 0.77465(17) 0.89772(23) 0.43298(4)
H6_30 H 0.8073 0.9124 0.4220
C12_30 C 0.75664(17) 0.95576(23) 0.44130(4)
C13_30 C 0.7079(2) 0.93374(27) 0.45717(4)
H7_30 H 0.6961 0.9735 0.4629
C14_32 C 0.76819(17) 0.75933(24) 0.43182(3)
O6_22 O 0.94765(20) 0.77420(25) 0.41729(3)
O1_33 O 0.22034(19) 0.02087(13) 0.41590(3)
C14_33 C 0.24067(24) 0.00885(17) 0.43182(3)
C1_33 C 0.19764(23) 0.77021(17) 0.52829(4)
H1_33 H 0.1972 0.8220 0.5280
C2_33 C 0.20408(27) 0.6660(2) 0.54480(4)
H2_33 H 0.2075 0.6436 0.5563
C3_33 C 0.1998(3) 0.6216(2) 0.52903(5)
H3_33 H 0.2011 0.5703 0.5297
C4_33 C 0.1935(3) 0.6537(2) 0.51213(5)
H4_33 H 0.1904 0.6246 0.5010
C5_33 C 0.19169(27) 0.7292(2) 0.51164(4)
C6_31 C 0.1817(3) 0.7644(2) 0.49474(4)
C7_31 C 0.1685(3) 0.7935(2) 0.48105(4)
C8_31 C 0.14682(28) 0.82288(19) 0.46479(4)
C9_31 C 0.20447(28) 0.90023(19) 0.45667(4)
H5_31 H 0.2588 0.9344 0.4620
C10_31 C 0.18224(24) 0.92688(17) 0.44081(4)
C11_31 C 0.10228(23) 0.87692(16) 0.43298(4)
H6_31 H 0.0876 0.8948 0.4220
C12_31 C 0.04424(23) 0.80087(16) 0.44130(4)
C13_31 C 0.06626(27) 0.77412(18) 0.45717(4)
H7_31 H 0.0265 0.7225 0.4629
C15_33 C 0.95823(23) 0.75011(16) 0.43280(4)
C2_34 C 0.87138(18) 0.0006(2) 0.62186(4)
H2_34 H 0.8972 0.0230 0.6103
C3_34 C 0.9115(2) 0.0450(2) 0.63763(5)
H3_34 H 0.9641 0.0963 0.6369
C4_34 C 0.8731(2) 0.0129(2) 0.65453(5)
H4_34 H 0.8991 0.0420 0.6656
O1_34 O 0.53280(14) 0.64579(13) 0.75076(3)
O3_12 O 0.50678(15) 0.89246(13) 0.74937(3)
C1_34 C 0.76076(16) 0.89645(17) 0.63837(4)
H1_34 H 0.7085 0.8446 0.6386
C5_34 C 0.79579(18) 0.9374(2) 0.65502(4)
C6_32 C 0.7506(2) 0.9022(2) 0.67192(4)
C7_32 C 0.7083(2) 0.8731(2) 0.68561(4)
C8_32 C 0.6573(2) 0.84378(19) 0.70187(4)
C9_32 C 0.6376(2) 0.76643(19) 0.70999(4)
H5_32 H 0.6577 0.7322 0.7046
C10_32 C 0.58869(17) 0.73978(17) 0.72585(4)
C11_32 C 0.55869(17) 0.78974(16) 0.73368(4)
H6_32 H 0.5261 0.7718 0.7446
C12_32 C 0.57670(17) 0.86579(16) 0.72536(4)
C13_32 C 0.6255(2) 0.89254(18) 0.70949(4)
H7_32 H 0.6373 0.9441 0.7037
C14_34 C 0.56515(17) 0.65781(17) 0.73484(3)
C15_34 C 0.54145(17) 0.91655(16) 0.73386(4)
O6_23 O 0.38569(20) 0.49322(15) 0.74937(3)
O1_35 O 0.11300(19) 0.46720(14) 0.75076(3)
C1_35 C 0.13570(23) 0.23924(16) 0.63837(4)
H1_35 H 0.1362 0.2915 0.6386
C2_35 C 0.12926(27) 0.12862(18) 0.62186(4)
H2_35 H 0.1259 0.1028 0.6103
C3_35 C 0.1336(3) 0.0885(2) 0.63763(5)
H3_35 H 0.1323 0.0359 0.6369
C4_35 C 0.1399(3) 0.1269(2) 0.65453(5)
H4_35 H 0.1430 0.1009 0.6656
C5_35 C 0.14165(27) 0.20421(18) 0.65502(4)
C6_33 C 0.1517(3) 0.2494(2) 0.67192(4)
C7_33 C 0.1649(3) 0.2917(2) 0.68561(4)
C8_33 C 0.18652(28) 0.3427(2) 0.70187(4)
C9_33 C 0.12887(28) 0.3624(2) 0.70999(4)
H5_33 H 0.0746 0.3423 0.7046
C10_33 C 0.15110(24) 0.41131(17) 0.72585(4)
C11_33 C 0.23106(23) 0.44131(17) 0.73368(4)
H6_33 H 0.2458 0.4739 0.7446
C12_33 C 0.28910(23) 0.42330(17) 0.72536(4)
C13_33 C 0.26708(27) 0.3745(2) 0.70949(4)
H7_33 H 0.3069 0.3627 0.7037
C14_35 C 0.09267(24) 0.43485(17) 0.73484(3)
C15_35 C 0.37511(23) 0.45855(17) 0.73386(4)
O6_24 O 0.10754(25) 0.61431(20) 0.74937(3)
O1_36 O 0.35421(13) 0.88700(19) 0.75076(3)
C1_36 C 0.10355(17) 0.86430(23) 0.63837(4)
H1_36 H 0.1554 0.8638 0.6386
C5_36 C 0.0626(2) 0.85835(27) 0.65502(4)
C6_34 C 0.0978(2) 0.8483(3) 0.67192(4)
C7_34 C 0.1269(2) 0.8351(3) 0.68561(4)
C8_34 C 0.15622(19) 0.81348(28) 0.70187(4)
C9_34 C 0.23357(19) 0.87113(28) 0.70999(4)
H5_34 H 0.2678 0.9254 0.7046
C10_34 C 0.26022(17) 0.84890(24) 0.72585(4)
C11_34 C 0.21026(16) 0.76894(23) 0.73368(4)
H6_34 H 0.2282 0.7542 0.7446
C12_34 C 0.13421(16) 0.71090(23) 0.72536(4)
C13_34 C 0.10746(18) 0.73292(27) 0.70949(4)
H7_34 H 0.0559 0.6931 0.7037
C14_36 C 0.34219(17) 0.90733(24) 0.73484(3)
C15_36 C 0.08345(16) 0.62489(23) 0.73386(4)
C2_36 C 0.9994(2) 0.87074(27) 0.62186(4)
H2_36 H 0.9770 0.8741 0.6103
C3_36 C 0.9550(2) 0.8664(3) 0.63763(5)
H3_36 H 0.9037 0.8677 0.6369
C4_36 C 0.9871(2) 0.8601(3) 0.65453(5)
H4_36 H 0.9580 0.8570 0.6656
C6_35 C 0.2356(2) 0.8183(3) 0.99474(4)
C7_35 C 0.2065(2) 0.8315(3) 0.98105(4)
C8_35 C 0.17712(19) 0.85318(28) 0.96479(4)
C9_35 C 0.09977(19) 0.79553(28) 0.95667(4)
H5_35 H 0.0656 0.7412 0.9620
C10_35 C 0.07312(17) 0.81776(24) 0.94081(4)
C11_35 C 0.12308(16) 0.89772(23) 0.93298(4)
H6_35 H 0.1052 0.9124 0.9220
C12_35 C 0.19913(16) 0.95576(23) 0.94130(4)
C13_35 C 0.22588(18) 0.93374(27) 0.95717(4)
H7_35 H 0.2775 0.9735 0.9629
C6_36 C 0.7644(2) 0.1817(3) 0.00526(4)
C7_36 C 0.7935(2) 0.1685(3) 0.01895(4)
C8_36 C 0.82288(19) 0.14682(28) 0.03521(4)
C9_36 C 0.90023(19) 0.20447(28) 0.04333(4)
H5_36 H 0.9344 0.2588 0.0380
C10_36 C 0.92688(17) 0.18224(24) 0.05919(4)
C11_36 C 0.87692(16) 0.10228(23) 0.06702(4)
H6_36 H 0.8948 0.0876 0.0780
C12_36 C 0.80087(16) 0.04424(23) 0.05870(4)
C13_36 C 0.77412(18) 0.06626(27) 0.04283(4)
H7_36 H 0.7225 0.0265 0.0371
loop_
_geom_bond_atom_site_label_1
_geom_bond_atom_site_label_2
_geom_bond_site_symmetry_1
_geom_bond_site_symmetry_2
Cu1 O1 1_555 1_555
O1 C14 1_555 1_555
O2 C14 1_555 1_555
O3 C15 1_555 1_555
O4 C15 1_555 1_555
C9 C8 1_555 1_555
H5 C9 1_555 1_555
C10 C9 1_555 1_555
C11 C10 1_555 1_555
H6 C11 1_555 1_555
C12 C11 1_555 1_555
C13 C8 1_555 1_555
H7 C13 1_555 1_555
C14 C10 1_555 1_555
C15 C12 1_555 1_555
Cu2 O2 1_555 1_555
Cu3 O3 1_555 1_555
Cu4 O4 1_555 1_555
O5 Cu1 1_555 1_555
O6 Cu1 1_555 1_555
O7 Cu1 1_555 1_555
N2 Cu1 1_555 1_555
C12 C13 1_555 1_555
N1 C1 1_555 1_555
C1 H1 1_555 1_555
C2 N1 1_555 1_555
H2 C2 1_555 1_555
C3 C2 1_555 1_555
H3 C3 1_555 1_555
C4 C3 1_555 1_555
H4 C4 1_555 1_555
C5 C1 1_555 1_555
C6 C5 1_555 1_555
C7 C6 1_555 1_555
Cu5 N1 1_555 1_555
C4 C5 1_555 1_555
N1_2 C1_2 1_555 1_555
C1_2 H1_2 1_555 1_555
C2_2 N1_2 1_555 1_555
H2_2 C2_2 1_555 1_555
C3_2 C2_2 1_555 1_555
H3_2 C3_2 1_555 1_555
C4_2 C3_2 1_555 1_555
H4_2 C4_2 1_555 1_555
C5_2 C1_2 1_555 1_555
C6_2 C5_2 1_555 1_555
C7_2 C6_2 1_555 1_555
Cu5_2 N1_2 1_555 1_555
C4_2 C5_2 1_555 1_555
Cu1_2 O1_2 1_555 1_555
O1_2 C14_2 1_555 1_555
O2_2 C14_2 1_555 1_555
O6 C15_2 1_555 1_555
O4_2 C15_2 1_555 1_555
C9_2 C8_2 1_555 1_555
H5_2 C9_2 1_555 1_555
C10_2 C9_2 1_555 1_555
C11_2 C10_2 1_555 1_555
H6_2 C11_2 1_555 1_555
C12_2 C11_2 1_555 1_555
C13_2 C8_2 1_555 1_555
H7_2 C13_2 1_555 1_555
C14_2 C10_2 1_555 1_555
C15_2 C12_2 1_555 1_555
Cu2_2 O2_2 1_555 1_555
Cu2 O4_2 1_555 1_555
O5_2 Cu1_2 1_555 1_555
O6_2 Cu1_2 1_555 1_555
O7_2 Cu1_2 1_555 1_555
N2_2 Cu1_2 1_555 1_555
C12_2 C13_2 1_555 1_555
Cu3 O1_3 1_555 1_555
O1_3 C14_3 1_555 1_555
O2_3 C14_3 1_555 1_555
O6_2 C15_3 1_555 1_555
O4_3 C15_3 1_555 1_555
N1_3 C1_3 1_555 1_555
C1_3 H1_3 1_555 1_555
C2_3 N1_3 1_555 1_555
H2_3 C2_3 1_555 1_555
C3_3 C2_3 1_555 1_555
H3_3 C3_3 1_555 1_555
C4_3 C3_3 1_555 1_555
H4_3 C4_3 1_555 1_555
C5_3 C1_3 1_555 1_555
C6_3 C5_3 1_555 1_555
C7_3 C6_3 1_555 1_555
C8_3 C7_3 1_555 1_555
C9_3 C8_3 1_555 1_555
H5_3 C9_3 1_555 1_555
C10_3 C9_3 1_555 1_555
C11_3 C10_3 1_555 1_555
H6_3 C11_3 1_555 1_555
C12_3 C11_3 1_555 1_555
C13_3 C8_3 1_555 1_555
H7_3 C13_3 1_555 1_555
C14_3 C10_3 1_555 1_555
C15_3 C12_3 1_555 1_555
Cu4 O2_3 1_555 1_555
Cu2_2 O4_3 1_555 1_555
Cu5_3 N1_3 1_555 1_555
O5_3 Cu3 1_555 1_555
O7_3 Cu3 1_555 1_555
N2_3 Cu3 1_555 1_555
C4_3 C5_3 1_555 1_555
C12_3 C13_3 1_555 1_555
Cu1_3 O1_4 1_555 1_555
O1_4 C14_4 1_555 1_555
O2_4 C14_4 1_555 1_555
O3_2 C15_4 1_555 1_555
O4_4 C15_4 1_555 1_555
C9_4 C8_4 1_555 1_555
H5_4 C9_4 1_555 1_555
C10_4 C9_4 1_555 1_555
C11_4 C10_4 1_555 1_555
H6_4 C11_4 1_555 1_555
C12_4 C11_4 1_555 1_555
C13_4 C8_4 1_555 1_555
H7_4 C13_4 1_555 1_555
C14_4 C10_4 1_555 1_555
C15_4 C12_4 1_555 1_555
Cu2_3 O2_4 1_555 1_555
Cu3_2 O3_2 1_555 1_555
Cu4_2 O4_4 1_555 1_555
O5_4 Cu1_3 1_555 1_555
O6_3 Cu1_3 1_555 1_555
O7_4 Cu1_3 1_555 1_555
N2_4 Cu1_3 1_555 1_555
C12_4 C13_4 1_555 1_555
N1_4 C1_4 1_555 1_555
C1_4 H1_4 1_555 1_555
C2_4 N1_4 1_555 1_555
H2_4 C2_4 1_555 1_555
C3_4 C2_4 1_555 1_555
H3_4 C3_4 1_555 1_555
C4_4 C3_4 1_555 1_555
H4_4 C4_4 1_555 1_555
C5_4 C1_4 1_555 1_555
C6_4 C5_4 1_555 1_555
C7_4 C6_4 1_555 1_555
Cu5_4 N1_4 1_555 1_555
C4_4 C5_4 1_555 1_555
N1_5 C1_5 1_555 1_555
C1_5 H1_5 1_555 1_555
C2_5 N1_5 1_555 1_555
H2_5 C2_5 1_555 1_555
C3_5 C2_5 1_555 1_555
H3_5 C3_5 1_555 1_555
C4_5 C3_5 1_555 1_555
H4_5 C4_5 1_555 1_555
C5_5 C1_5 1_555 1_555
C6_5 C5_5 1_555 1_555
C7_5 C6_5 1_555 1_555
Cu5_5 N1_5 1_555 1_555
C4_5 C5_5 1_555 1_555
Cu1_4 O1_5 1_555 1_555
O1_5 C14_5 1_555 1_555
O2_5 C14_5 1_555 1_555
O6_3 C15_5 1_555 1_555
O4_5 C15_5 1_555 1_555
C9_5 C8_5 1_555 1_555
H5_5 C9_5 1_555 1_555
C10_5 C9_5 1_555 1_555
C11_5 C10_5 1_555 1_555
H6_5 C11_5 1_555 1_555
C12_5 C11_5 1_555 1_555
C13_5 C8_5 1_555 1_555
H7_5 C13_5 1_555 1_555
C14_5 C10_5 1_555 1_555
C15_5 C12_5 1_555 1_555
Cu2_4 O2_5 1_555 1_555
Cu2_3 O4_5 1_555 1_555
O5_5 Cu1_4 1_555 1_555
O6_4 Cu1_4 1_555 1_555
O7_5 Cu1_4 1_555 1_555
N2_5 Cu1_4 1_555 1_555
C12_5 C13_5 1_555 1_555
Cu3_2 O1_6 1_555 1_555
O1_6 C14_6 1_555 1_555
O2_6 C14_6 1_555 1_555
O6_4 C15_6 1_555 1_555
O4_6 C15_6 1_555 1_555
N1_6 C1_6 1_555 1_555
C1_6 H1_6 1_555 1_555
C2_6 N1_6 1_555 1_555
H2_6 C2_6 1_555 1_555
C3_6 C2_6 1_555 1_555
H3_6 C3_6 1_555 1_555
C4_6 C3_6 1_555 1_555
H4_6 C4_6 1_555 1_555
C5_6 C1_6 1_555 1_555
C6_6 C5_6 1_555 1_555
C7_6 C6_6 1_555 1_555
C8_6 C7_6 1_555 1_555
C9_6 C8_6 1_555 1_555
H5_6 C9_6 1_555 1_555
C10_6 C9_6 1_555 1_555
C11_6 C10_6 1_555 1_555
H6_6 C11_6 1_555 1_555
C12_6 C11_6 1_555 1_555
C13_6 C8_6 1_555 1_555
H7_6 C13_6 1_555 1_555
C14_6 C10_6 1_555 1_555
C15_6 C12_6 1_555 1_555
Cu4_2 O2_6 1_555 1_555
Cu2_4 O4_6 1_555 1_555
Cu5_6 N1_6 1_555 1_555
O5_6 Cu3_2 1_555 1_555
O7_6 Cu3_2 1_555 1_555
N2_6 Cu3_2 1_555 1_555
C4_6 C5_6 1_555 1_555
C12_6 C13_6 1_555 1_555
Cu1_5 O1_7 1_555 1_555
O1_7 C14_7 1_555 1_555
O2_7 C14_7 1_555 1_555
O3_3 C15_7 1_555 1_555
O4_7 C15_7 1_555 1_555
N1_7 C1_7 1_555 1_555
C1_7 H1_7 1_555 1_555
C5_7 C1_7 1_555 1_555
C6_7 C5_7 1_555 1_555
C7_7 C6_7 1_555 1_555
C8_7 C7_7 1_555 1_555
C9_7 C8_7 1_555 1_555
H5_7 C9_7 1_555 1_555
C10_7 C9_7 1_555 1_555
C11_7 C10_7 1_555 1_555
H6_7 C11_7 1_555 1_555
C12_7 C11_7 1_555 1_555
C13_7 C8_7 1_555 1_555
H7_7 C13_7 1_555 1_555
C14_7 C10_7 1_555 1_555
C15_7 C12_7 1_555 1_555
Cu2_5 O2_7 1_555 1_555
Cu3_3 O3_3 1_555 1_555
Cu5_7 N1_7 1_555 1_555
O5_7 Cu1_5 1_555 1_555
O6_5 Cu1_5 1_555 1_555
O7_7 Cu1_5 1_555 1_555
N2_7 Cu1_5 1_555 1_555
C12_7 C13_7 1_555 1_555
H2_7 C2_7 1_555 1_555
C3_7 C2_7 1_555 1_555
H3_7 C3_7 1_555 1_555
C4_7 C3_7 1_555 1_555
H4_7 C4_7 1_555 1_555
Cu1_6 O1_8 1_555 1_555
O1_8 C14_8 1_555 1_555
O2_8 C14_8 1_555 1_555
O6_5 C15_8 1_555 1_555
O4_8 C15_8 1_555 1_555
N1_8 C1_8 1_555 1_555
C1_8 H1_8 1_555 1_555
C2_8 N1_8 1_555 1_555
H2_8 C2_8 1_555 1_555
C3_8 C2_8 1_555 1_555
H3_8 C3_8 1_555 1_555
C4_8 C3_8 1_555 1_555
H4_8 C4_8 1_555 1_555
C5_8 C1_8 1_555 1_555
C6_8 C5_8 1_555 1_555
C7_8 C6_8 1_555 1_555
C8_8 C7_8 1_555 1_555
C9_8 C8_8 1_555 1_555
H5_8 C9_8 1_555 1_555
C10_8 C9_8 1_555 1_555
C11_8 C10_8 1_555 1_555
H6_8 C11_8 1_555 1_555
C12_8 C11_8 1_555 1_555
C13_8 C8_8 1_555 1_555
H7_8 C13_8 1_555 1_555
C14_8 C10_8 1_555 1_555
C15_8 C12_8 1_555 1_555
Cu2_5 O4_8 1_555 1_555
Cu5_8 N1_8 1_555 1_555
O6_6 Cu1_6 1_555 1_555
N2_8 Cu1_6 1_555 1_555
C4_8 C5_8 1_555 1_555
C12_8 C13_8 1_555 1_555
H2_9 C2_9 1_555 1_555
C3_9 C2_9 1_555 1_555
H3_9 C3_9 1_555 1_555
C4_9 C3_9 1_555 1_555
H4_9 C4_9 1_555 1_555
Cu3_3 O1_9 1_555 1_555
O1_9 C14_9 1_555 1_555
O2_9 C14_9 1_555 1_555
O6_6 C15_9 1_555 1_555
O4_9 C15_9 1_555 1_555
N1_9 C1_9 1_555 1_555
C1_9 H1_9 1_555 1_555
C5_9 C1_9 1_555 1_555
C6_9 C5_9 1_555 1_555
C7_9 C6_9 1_555 1_555
C8_9 C7_9 1_555 1_555
C9_9 C8_9 1_555 1_555
H5_9 C9_9 1_555 1_555
C10_9 C9_9 1_555 1_555
C11_9 C10_9 1_555 1_555
H6_9 C11_9 1_555 1_555
C12_9 C11_9 1_555 1_555
C13_9 C8_9 1_555 1_555
H7_9 C13_9 1_555 1_555
C14_9 C10_9 1_555 1_555
C15_9 C12_9 1_555 1_555
Cu5_9 N1_9 1_555 1_555
N2_9 Cu3_3 1_555 1_555
C12_9 C13_9 1_555 1_555
Cu2 O1_10 1_555 1_555
O1_10 C14_10 1_555 1_555
O5 C14_10 1_555 1_555
O6_7 Cu2 1_555 1_555
N2_10 Cu2 1_555 1_555
N1_10 C1_10 1_555 1_555
C1_10 H1_10 1_555 1_555
C2_10 N1_10 1_555 1_555
H2_10 C2_10 1_555 1_555
C3_10 C2_10 1_555 1_555
H3_10 C3_10 1_555 1_555
C4_10 C3_10 1_555 1_555
H4_10 C4_10 1_555 1_555
C5_10 C1_10 1_555 1_555
Cu5_10 N1_10 1_555 1_555
C4_10 C5_10 1_555 1_555
O3_4 C15_10 1_555 1_555
O7_2 C15_10 1_555 1_555
C7_10 C6_10 1_555 1_555
C8_10 C7_10 1_555 1_555
C9_10 C8_10 1_555 1_555
H5_10 C9_10 1_555 1_555
C10_10 C9_10 1_555 1_555
C11_10 C10_10 1_555 1_555
H6_10 C11_10 1_555 1_555
C12_10 C11_10 1_555 1_555
C13_10 C8_10 1_555 1_555
H7_10 C13_10 1_555 1_555
C15_10 C12_10 1_555 1_555
Cu2_2 O3_4 1_555 1_555
C12_10 C13_10 1_555 1_555
N1_11 C1_11 1_555 1_555
C1_11 H1_11 1_555 1_555
C2_11 N1_11 1_555 1_555
H2_11 C2_11 1_555 1_555
C3_11 C2_11 1_555 1_555
H3_11 C3_11 1_555 1_555
C4_11 C3_11 1_555 1_555
H4_11 C4_11 1_555 1_555
C5_11 C1_11 1_555 1_555
Cu5_11 N1_11 1_555 1_555
C4_11 C5_11 1_555 1_555
Cu4 O1_11 1_555 1_555
O1_11 C14_11 1_555 1_555
O5_3 C14_11 1_555 1_555
C7_11 C6_11 1_555 1_555
C8_11 C7_11 1_555 1_555
C9_11 C8_11 1_555 1_555
H5_11 C9_11 1_555 1_555
C10_11 C9_11 1_555 1_555
C11_11 C10_11 1_555 1_555
H6_11 C11_11 1_555 1_555
C12_11 C11_11 1_555 1_555
C13_11 C8_11 1_555 1_555
H7_11 C13_11 1_555 1_555
C14_11 C10_11 1_555 1_555
O6_8 Cu4 1_555 1_555
N2_11 Cu4 1_555 1_555
C12_11 C13_11 1_555 1_555
O6_7 C15_11 1_555 1_555
O7 C15_11 1_555 1_555
O6_8 C15_12 1_555 1_555
O7_3 C15_12 1_555 1_555
N1_12 C1_12 1_555 1_555
C1_12 H1_12 1_555 1_555
C2_12 N1_12 1_555 1_555
H2_12 C2_12 1_555 1_555
C3_12 C2_12 1_555 1_555
H3_12 C3_12 1_555 1_555
C4_12 C3_12 1_555 1_555
H4_12 C4_12 1_555 1_555
C5_12 C1_12 1_555 1_555
Cu5_12 N1_12 1_555 1_555
C4_12 C5_12 1_555 1_555
Cu2_2 O1_12 1_555 1_555
O1_12 C14_12 1_555 1_555
O5_2 C14_12 1_555 1_555
N2_12 Cu2_2 1_555 1_555
Cu2_3 O1_13 1_555 1_555
O1_13 C14_13 1_555 1_555
O5_4 C14_13 1_555 1_555
O6_9 Cu2_3 1_555 1_555
N2_13 Cu2_3 1_555 1_555
O3_5 C15_13 1_555 1_555
O7_5 C15_13 1_555 1_555
N1_13 C1_13 1_555 1_555
C1_13 H1_13 1_555 1_555
C2_13 N1_13 1_555 1_555
H2_13 C2_13 1_555 1_555
C3_13 C2_13 1_555 1_555
H3_13 C3_13 1_555 1_555
C4_13 C3_13 1_555 1_555
H4_13 C4_13 1_555 1_555
C5_13 C1_13 1_555 1_555
C6_12 C5_13 1_555 1_555
C7_12 C6_12 1_555 1_555
C8_12 C7_12 1_555 1_555
C9_12 C8_12 1_555 1_555
H5_12 C9_12 1_555 1_555
C10_12 C9_12 1_555 1_555
C11_12 C10_12 1_555 1_555
H6_12 C11_12 1_555 1_555
C12_12 C11_12 1_555 1_555
C13_12 C8_12 1_555 1_555
H7_12 C13_12 1_555 1_555
C15_13 C12_12 1_555 1_555
Cu2_4 O3_5 1_555 1_555
Cu5_13 N1_13 1_555 1_555
C4_13 C5_13 1_555 1_555
C12_12 C13_12 1_555 1_555
Cu4_2 O1_14 1_555 1_555
O1_14 C14_14 1_555 1_555
O5_6 C14_14 1_555 1_555
N1_14 C1_14 1_555 1_555
C1_14 H1_14 1_555 1_555
C2_14 N1_14 1_555 1_555
H2_14 C2_14 1_555 1_555
C3_14 C2_14 1_555 1_555
H3_14 C3_14 1_555 1_555
C4_14 C3_14 1_555 1_555
H4_14 C4_14 1_555 1_555
C5_14 C1_14 1_555 1_555
C6_13 C5_14 1_555 1_555
C7_13 C6_13 1_555 1_555
C8_13 C7_13 1_555 1_555
C9_13 C8_13 1_555 1_555
H5_13 C9_13 1_555 1_555
C10_13 C9_13 1_555 1_555
C11_13 C10_13 1_555 1_555
H6_13 C11_13 1_555 1_555
C12_13 C11_13 1_555 1_555
C13_13 C8_13 1_555 1_555
H7_13 C13_13 1_555 1_555
C14_14 C10_13 1_555 1_555
Cu5_14 N1_14 1_555 1_555
O6_10 Cu4_2 1_555 1_555
N2_14 Cu4_2 1_555 1_555
C4_14 C5_14 1_555 1_555
C12_13 C13_13 1_555 1_555
O6_9 C15_14 1_555 1_555
O7_4 C15_14 1_555 1_555
O6_10 C15_15 1_555 1_555
O7_6 C15_15 1_555 1_555
N1_15 C1_15 1_555 1_555
C1_15 H1_15 1_555 1_555
C2_15 N1_15 1_555 1_555
H2_15 C2_15 1_555 1_555
C3_15 C2_15 1_555 1_555
H3_15 C3_15 1_555 1_555
C4_15 C3_15 1_555 1_555
H4_15 C4_15 1_555 1_555
C5_15 C1_15 1_555 1_555
C6_14 C5_15 1_555 1_555
C7_14 C6_14 1_555 1_555
C8_14 C7_14 1_555 1_555
C9_14 C8_14 1_555 1_555
H5_14 C9_14 1_555 1_555
C10_14 C9_14 1_555 1_555
C11_14 C10_14 1_555 1_555
H6_14 C11_14 1_555 1_555
C12_14 C11_14 1_555 1_555
C13_14 C8_14 1_555 1_555
H7_14 C13_14 1_555 1_555
Cu5_15 N1_15 1_555 1_555
C4_15 C5_15 1_555 1_555
C12_14 C13_14 1_555 1_555
Cu2_4 O1_15 1_555 1_555
O1_15 C14_15 1_555 1_555
O5_5 C14_15 1_555 1_555
N2_15 Cu2_4 1_555 1_555
Cu2_5 O1_16 1_555 1_555
O1_16 C14_16 1_555 1_555
O5_7 C14_16 1_555 1_555
O3_6 C15_16 1_555 1_555
O7_8 C15_16 1_555 1_555
N1_16 C1_16 1_555 1_555
C1_16 H1_16 1_555 1_555
C5_16 C1_16 1_555 1_555
C6_15 C5_16 1_555 1_555
C7_15 C6_15 1_555 1_555
C8_15 C7_15 1_555 1_555
C9_15 C8_15 1_555 1_555
H5_15 C9_15 1_555 1_555
C10_15 C9_15 1_555 1_555
C11_15 C10_15 1_555 1_555
H6_15 C11_15 1_555 1_555
C12_15 C11_15 1_555 1_555
C13_15 C8_15 1_555 1_555
H7_15 C13_15 1_555 1_555
C14_16 C10_15 1_555 1_555
C15_16 C12_15 1_555 1_555
Cu2_6 O3_6 1_555 1_555
Cu5_16 N1_16 1_555 1_555
O6_11 Cu2_5 1_555 1_555
N2_16 Cu2_5 1_555 1_555
C12_15 C13_15 1_555 1_555
H2_16 C2_16 1_555 1_555
C3_16 C2_16 1_555 1_555
H3_16 C3_16 1_555 1_555
C4_16 C3_16 1_555 1_555
H4_16 C4_16 1_555 1_555
Cu4_3 O1_17 1_555 1_555
O1_17 C14_17 1_555 1_555
O5_9 C14_17 1_555 1_555
O6_11 C15_17 1_555 1_555
O7_7 C15_17 1_555 1_555
N1_17 C1_17 1_555 1_555
C1_17 H1_17 1_555 1_555
C2_17 N1_17 1_555 1_555
H2_17 C2_17 1_555 1_555
C3_17 C2_17 1_555 1_555
H3_17 C3_17 1_555 1_555
C4_17 C3_17 1_555 1_555
H4_17 C4_17 1_555 1_555
C5_17 C1_17 1_555 1_555
C6_16 C5_17 1_555 1_555
C7_16 C6_16 1_555 1_555
C8_16 C7_16 1_555 1_555
C9_16 C8_16 1_555 1_555
H5_16 C9_16 1_555 1_555
C10_16 C9_16 1_555 1_555
C11_16 C10_16 1_555 1_555
H6_16 C11_16 1_555 1_555
C12_16 C11_16 1_555 1_555
C13_16 C8_16 1_555 1_555
H7_16 C13_16 1_555 1_555
C14_17 C10_16 1_555 1_555
C15_17 C12_16 1_555 1_555
Cu5_17 N1_17 1_555 1_555
O6_12 Cu4_3 1_555 1_555
N2_17 Cu4_3 1_555 1_555
C4_17 C5_17 1_555 1_555
C12_16 C13_16 1_555 1_555
H2_18 C2_18 1_555 1_555
C3_18 C2_18 1_555 1_555
H3_18 C3_18 1_555 1_555
C4_18 C3_18 1_555 1_555
H4_18 C4_18 1_555 1_555
Cu2_6 O1_18 1_555 1_555
O1_18 C14_18 1_555 1_555
O5_8 C14_18 1_555 1_555
O6_12 C15_18 1_555 1_555
O7_9 C15_18 1_555 1_555
N1_18 C1_18 1_555 1_555
C1_18 H1_18 1_555 1_555
C5_18 C1_18 1_555 1_555
C6_17 C5_18 1_555 1_555
C7_17 C6_17 1_555 1_555
C8_17 C7_17 1_555 1_555
C9_17 C8_17 1_555 1_555
H5_17 C9_17 1_555 1_555
C10_17 C9_17 1_555 1_555
C11_17 C10_17 1_555 1_555
H6_17 C11_17 1_555 1_555
C12_17 C11_17 1_555 1_555
C13_17 C8_17 1_555 1_555
H7_17 C13_17 1_555 1_555
C14_18 C10_17 1_555 1_555
C15_18 C12_17 1_555 1_555
Cu5_18 N1_18 1_555 1_555
N2_18 Cu2_6 1_555 1_555
C12_17 C13_17 1_555 1_555
N2_18 C1_19 1_555 1_555
C1_19 H1_19 1_555 1_555
C2_19 N2_18 1_555 1_555
H2_19 C2_19 1_555 1_555
C3_19 C2_19 1_555 1_555
H3_19 C3_19 1_555 1_555
C4_19 C3_19 1_555 1_555
H4_19 C4_19 1_555 1_555
C5_19 C1_19 1_555 1_555
C6_18 C5_19 1_555 1_555
C7_18 C6_18 1_555 1_555
C4_19 C5_19 1_555 1_555
Cu5_12 O1_19 1_555 1_555
O1_19 C14_19 1_555 1_555
O2_10 C14_19 1_555 1_555
O3_7 C15_19 1_555 1_555
O4_10 C15_19 1_555 1_555
C9_18 C8_18 1_555 1_555
H5_18 C9_18 1_555 1_555
C10_18 C9_18 1_555 1_555
C11_18 C10_18 1_555 1_555
H6_18 C11_18 1_555 1_555
C12_18 C11_18 1_555 1_555
C13_18 C8_18 1_555 1_555
H7_18 C13_18 1_555 1_555
C14_19 C10_18 1_555 1_555
C15_19 C12_18 1_555 1_555
Cu5_9 O2_10 1_555 1_555
Cu5_10 O3_7 1_555 1_555
Cu5_8 O4_10 1_555 1_555
O5_10 Cu5_12 1_555 1_555
O6_13 Cu5_12 1_555 1_555
O7_10 Cu5_12 1_555 1_555
C12_18 C13_18 1_555 1_555
Cu5_11 O1_20 1_555 1_555
O1_20 C14_20 1_555 1_555
O2_11 C14_20 1_555 1_555
O6_13 C15_20 1_555 1_555
O4_11 C15_20 1_555 1_555
C9_19 C8_19 1_555 1_555
H5_19 C9_19 1_555 1_555
C10_19 C9_19 1_555 1_555
C11_19 C10_19 1_555 1_555
H6_19 C11_19 1_555 1_555
C12_19 C11_19 1_555 1_555
C13_19 C8_19 1_555 1_555
H7_19 C13_19 1_555 1_555
C14_20 C10_19 1_555 1_555
C15_20 C12_19 1_555 1_555
Cu5_7 O2_11 1_555 1_555
Cu5_9 O4_11 1_555 1_555
O5_11 Cu5_11 1_555 1_555
O6_14 Cu5_11 1_555 1_555
O7_11 Cu5_11 1_555 1_555
C12_19 C13_19 1_555 1_555
N2_17 C1_20 1_555 1_555
C1_20 H1_20 1_555 1_555
C2_20 N2_17 1_555 1_555
H2_20 C2_20 1_555 1_555
C3_20 C2_20 1_555 1_555
H3_20 C3_20 1_555 1_555
C4_20 C3_20 1_555 1_555
H4_20 C4_20 1_555 1_555
C5_20 C1_20 1_555 1_555
C6_19 C5_20 1_555 1_555
C7_19 C6_19 1_555 1_555
C4_20 C5_20 1_555 1_555
Cu5_10 O1_21 1_555 1_555
O1_21 C14_21 1_555 1_555
O2_12 C14_21 1_555 1_555
O6_14 C15_21 1_555 1_555
O4_12 C15_21 1_555 1_555
N2_16 C1_21 1_555 1_555
C1_21 H1_21 1_555 1_555
C2_21 N2_16 1_555 1_555
H2_21 C2_21 1_555 1_555
C3_21 C2_21 1_555 1_555
H3_21 C3_21 1_555 1_555
C4_21 C3_21 1_555 1_555
H4_21 C4_21 1_555 1_555
C5_21 C1_21 1_555 1_555
C6_20 C5_21 1_555 1_555
C7_20 C6_20 1_555 1_555
C8_20 C7_20 1_555 1_555
C9_20 C8_20 1_555 1_555
H5_20 C9_20 1_555 1_555
C10_20 C9_20 1_555 1_555
C11_20 C10_20 1_555 1_555
H6_20 C11_20 1_555 1_555
C12_20 C11_20 1_555 1_555
C13_20 C8_20 1_555 1_555
H7_20 C13_20 1_555 1_555
C14_21 C10_20 1_555 1_555
C15_21 C12_20 1_555 1_555
Cu5_8 O2_12 1_555 1_555
Cu5_7 O4_12 1_555 1_555
O5_12 Cu5_10 1_555 1_555
O7_12 Cu5_10 1_555 1_555
C4_21 C5_21 1_555 1_555
C12_20 C13_20 1_555 1_555
N2_9 C1_22 1_555 1_555
C1_22 H1_22 1_555 1_555
C2_22 N2_9 1_555 1_555
H2_22 C2_22 1_555 1_555
C3_22 C2_22 1_555 1_555
H3_22 C3_22 1_555 1_555
C4_22 C3_22 1_555 1_555
H4_22 C4_22 1_555 1_555
C5_22 C1_22 1_555 1_555
C6_21 C5_22 1_555 1_555
C7_21 C6_21 1_555 1_555
C4_22 C5_22 1_555 1_555
Cu5_15 O1_22 1_555 1_555
O1_22 C14_22 1_555 1_555
O2_13 C14_22 1_555 1_555
O3_8 C15_22 1_555 1_555
O4_13 C15_22 1_555 1_555
C9_21 C8_21 1_555 1_555
H5_21 C9_21 1_555 1_555
C10_21 C9_21 1_555 1_555
C11_21 C10_21 1_555 1_555
H6_21 C11_21 1_555 1_555
C12_21 C11_21 1_555 1_555
C13_21 C8_21 1_555 1_555
H7_21 C13_21 1_555 1_555
C14_22 C10_21 1_555 1_555
C15_22 C12_21 1_555 1_555
Cu5_18 O2_13 1_555 1_555
Cu5_13 O3_8 1_555 1_555
Cu5_17 O4_13 1_555 1_555
O5_13 Cu5_15 1_555 1_555
O6_15 Cu5_15 1_555 1_555
O7_13 Cu5_15 1_555 1_555
C12_21 C13_21 1_555 1_555
Cu5_14 O1_23 1_555 1_555
O1_23 C14_23 1_555 1_555
O2_14 C14_23 1_555 1_555
O6_15 C15_23 1_555 1_555
O4_14 C15_23 1_555 1_555
C9_22 C8_22 1_555 1_555
H5_22 C9_22 1_555 1_555
C10_22 C9_22 1_555 1_555
C11_22 C10_22 1_555 1_555
H6_22 C11_22 1_555 1_555
C12_22 C11_22 1_555 1_555
C13_22 C8_22 1_555 1_555
H7_22 C13_22 1_555 1_555
C14_23 C10_22 1_555 1_555
C15_23 C12_22 1_555 1_555
Cu5_16 O2_14 1_555 1_555
Cu5_18 O4_14 1_555 1_555
O5_14 Cu5_14 1_555 1_555
O6_16 Cu5_14 1_555 1_555
O7_14 Cu5_14 1_555 1_555
C12_22 C13_22 1_555 1_555
N2_8 C1_23 1_555 1_555
C1_23 H1_23 1_555 1_555
C2_23 N2_8 1_555 1_555
H2_23 C2_23 1_555 1_555
C3_23 C2_23 1_555 1_555
H3_23 C3_23 1_555 1_555
C4_23 C3_23 1_555 1_555
H4_23 C4_23 1_555 1_555
C5_23 C1_23 1_555 1_555
C6_22 C5_23 1_555 1_555
C7_22 C6_22 1_555 1_555
C4_23 C5_23 1_555 1_555
Cu5_13 O1_24 1_555 1_555
O1_24 C14_24 1_555 1_555
O2_15 C14_24 1_555 1_555
O6_16 C15_24 1_555 1_555
O4_15 C15_24 1_555 1_555
N2_7 C1_24 1_555 1_555
C1_24 H1_24 1_555 1_555
C2_24 N2_7 1_555 1_555
H2_24 C2_24 1_555 1_555
C3_24 C2_24 1_555 1_555
H3_24 C3_24 1_555 1_555
C4_24 C3_24 1_555 1_555
H4_24 C4_24 1_555 1_555
C5_24 C1_24 1_555 1_555
C6_23 C5_24 1_555 1_555
C7_23 C6_23 1_555 1_555
C8_23 C7_23 1_555 1_555
C9_23 C8_23 1_555 1_555
H5_23 C9_23 1_555 1_555
C10_23 C9_23 1_555 1_555
C11_23 C10_23 1_555 1_555
H6_23 C11_23 1_555 1_555
C12_23 C11_23 1_555 1_555
C13_23 C8_23 1_555 1_555
H7_23 C13_23 1_555 1_555
C14_24 C10_23 1_555 1_555
C15_24 C12_23 1_555 1_555
Cu5_17 O2_15 1_555 1_555
Cu5_16 O4_15 1_555 1_555
O5_15 Cu5_13 1_555 1_555
O7_15 Cu5_13 1_555 1_555
C4_24 C5_24 1_555 1_555
C12_23 C13_23 1_555 1_555
H2_25 C2_25 1_555 1_555
C3_25 C2_25 1_555 1_555
H3_25 C3_25 1_555 1_555
C4_25 C3_25 1_555 1_555
H4_25 C4_25 1_555 1_555
Cu5_6 O1_25 1_555 1_555
O1_25 C14_25 1_555 1_555
O2_16 C14_25 1_555 1_555
O3_9 C15_25 1_555 1_555
O4_16 C15_25 1_555 1_555
N2_12 C1_25 1_555 1_555
C1_25 H1_25 1_555 1_555
C5_25 C1_25 1_555 1_555
C6_24 C5_25 1_555 1_555
C7_24 C6_24 1_555 1_555
C8_24 C7_24 1_555 1_555
C9_24 C8_24 1_555 1_555
H5_24 C9_24 1_555 1_555
C10_24 C9_24 1_555 1_555
C11_24 C10_24 1_555 1_555
H6_24 C11_24 1_555 1_555
C12_24 C11_24 1_555 1_555
C13_24 C8_24 1_555 1_555
H7_24 C13_24 1_555 1_555
C14_25 C10_24 1_555 1_555
C15_25 C12_24 1_555 1_555
Cu5_3 O2_16 1_555 1_555
Cu5_4 O3_9 1_555 1_555
O5_16 Cu5_6 1_555 1_555
O6_17 Cu5_6 1_555 1_555
O7_16 Cu5_6 1_555 1_555
C12_24 C13_24 1_555 1_555
Cu5_5 O1_26 1_555 1_555
O1_26 C14_26 1_555 1_555
O2_17 C14_26 1_555 1_555
O6_17 C15_26 1_555 1_555
O4_17 C15_26 1_555 1_555
N2_11 C1_26 1_555 1_555
C1_26 H1_26 1_555 1_555
C2_26 N2_11 1_555 1_555
H2_26 C2_26 1_555 1_555
C3_26 C2_26 1_555 1_555
H3_26 C3_26 1_555 1_555
C4_26 C3_26 1_555 1_555
H4_26 C4_26 1_555 1_555
C5_26 C1_26 1_555 1_555
C6_25 C5_26 1_555 1_555
C7_25 C6_25 1_555 1_555
C8_25 C7_25 1_555 1_555
C9_25 C8_25 1_555 1_555
H5_25 C9_25 1_555 1_555
C10_25 C9_25 1_555 1_555
C11_25 C10_25 1_555 1_555
H6_25 C11_25 1_555 1_555
C12_25 C11_25 1_555 1_555
C13_25 C8_25 1_555 1_555
H7_25 C13_25 1_555 1_555
C14_26 C10_25 1_555 1_555
C15_26 C12_25 1_555 1_555
Cu5_3 O4_17 1_555 1_555
O6_18 Cu5_5 1_555 1_555
C4_26 C5_26 1_555 1_555
C12_25 C13_25 1_555 1_555
Cu5_4 O1_27 1_555 1_555
O1_27 C14_27 1_555 1_555
O2_18 C14_27 1_555 1_555
O6_18 C15_27 1_555 1_555
O4_18 C15_27 1_555 1_555
N2_10 C1_27 1_555 1_555
C1_27 H1_27 1_555 1_555
C5_27 C1_27 1_555 1_555
C6_26 C5_27 1_555 1_555
C7_26 C6_26 1_555 1_555
C8_26 C7_26 1_555 1_555
C9_26 C8_26 1_555 1_555
H5_26 C9_26 1_555 1_555
C10_26 C9_26 1_555 1_555
C11_26 C10_26 1_555 1_555
H6_26 C11_26 1_555 1_555
C12_26 C11_26 1_555 1_555
C13_26 C8_26 1_555 1_555
H7_26 C13_26 1_555 1_555
C14_27 C10_26 1_555 1_555
C15_27 C12_26 1_555 1_555
C12_26 C13_26 1_555 1_555
H2_27 C2_27 1_555 1_555
C3_27 C2_27 1_555 1_555
H3_27 C3_27 1_555 1_555
C4_27 C3_27 1_555 1_555
H4_27 C4_27 1_555 1_555
O3_10 C15_28 1_555 1_555
O7_11 C15_28 1_555 1_555
C7_27 C6_27 1_555 1_555
C8_27 C7_27 1_555 1_555
C9_27 C8_27 1_555 1_555
H5_27 C9_27 1_555 1_555
C10_27 C9_27 1_555 1_555
C11_27 C10_27 1_555 1_555
H6_27 C11_27 1_555 1_555
C12_27 C11_27 1_555 1_555
C13_27 C8_27 1_555 1_555
H7_27 C13_27 1_555 1_555
C15_28 C12_27 1_555 1_555
Cu5_7 O3_10 1_555 1_555
C12_27 C13_27 1_555 1_555
N2_3 C1_28 1_555 1_555
C1_28 H1_28 1_555 1_555
C2_28 N2_3 1_555 1_555
H2_28 C2_28 1_555 1_555
C3_28 C2_28 1_555 1_555
H3_28 C3_28 1_555 1_555
C4_28 C3_28 1_555 1_555
H4_28 C4_28 1_555 1_555
C5_28 C1_28 1_555 1_555
C4_28 C5_28 1_555 1_555
Cu5_9 O1_28 1_555 1_555
O1_28 C14_28 1_555 1_555
O5_10 C14_28 1_555 1_555
O6_19 Cu5_9 1_555 1_555
O6_19 C15_29 1_555 1_555
O7_10 C15_29 1_555 1_555
Cu5_8 O1_29 1_555 1_555
O1_29 C14_29 1_555 1_555
O5_12 C14_29 1_555 1_555
C7_28 C6_28 1_555 1_555
C8_28 C7_28 1_555 1_555
C9_28 C8_28 1_555 1_555
H5_28 C9_28 1_555 1_555
C10_28 C9_28 1_555 1_555
C11_28 C10_28 1_555 1_555
H6_28 C11_28 1_555 1_555
C12_28 C11_28 1_555 1_555
C13_28 C8_28 1_555 1_555
H7_28 C13_28 1_555 1_555
C14_29 C10_28 1_555 1_555
O6_20 Cu5_8 1_555 1_555
C12_28 C13_28 1_555 1_555
N2_2 C1_29 1_555 1_555
C1_29 H1_29 1_555 1_555
C2_29 N2_2 1_555 1_555
H2_29 C2_29 1_555 1_555
C3_29 C2_29 1_555 1_555
H3_29 C3_29 1_555 1_555
C4_29 C3_29 1_555 1_555
H4_29 C4_29 1_555 1_555
C5_29 C1_29 1_555 1_555
C4_29 C5_29 1_555 1_555
Cu5_7 O1_30 1_555 1_555
O1_30 C14_30 1_555 1_555
O5_11 C14_30 1_555 1_555
N2 C1_30 1_555 1_555
C1_30 H1_30 1_555 1_555
C2_30 N2 1_555 1_555
H2_30 C2_30 1_555 1_555
C3_30 C2_30 1_555 1_555
H3_30 C3_30 1_555 1_555
C4_30 C3_30 1_555 1_555
H4_30 C4_30 1_555 1_555
C5_30 C1_30 1_555 1_555
C4_30 C5_30 1_555 1_555
O6_20 C15_30 1_555 1_555
O7_12 C15_30 1_555 1_555
O3_11 C15_31 1_555 1_555
O7_14 C15_31 1_555 1_555
N2_6 C1_31 1_555 1_555
C1_31 H1_31 1_555 1_555
C2_31 N2_6 1_555 1_555
H2_31 C2_31 1_555 1_555
C3_31 C2_31 1_555 1_555
H3_31 C3_31 1_555 1_555
C4_31 C3_31 1_555 1_555
H4_31 C4_31 1_555 1_555
C5_31 C1_31 1_555 1_555
C6_29 C5_31 1_555 1_555
C7_29 C6_29 1_555 1_555
C8_29 C7_29 1_555 1_555
C9_29 C8_29 1_555 1_555
H5_29 C9_29 1_555 1_555
C10_29 C9_29 1_555 1_555
C11_29 C10_29 1_555 1_555
H6_29 C11_29 1_555 1_555
C12_29 C11_29 1_555 1_555
C13_29 C8_29 1_555 1_555
H7_29 C13_29 1_555 1_555
C15_31 C12_29 1_555 1_555
Cu5_16 O3_11 1_555 1_555
C4_31 C5_31 1_555 1_555
C12_29 C13_29 1_555 1_555
Cu5_18 O1_31 1_555 1_555
O1_31 C14_31 1_555 1_555
O5_13 C14_31 1_555 1_555
O6_21 Cu5_18 1_555 1_555
O6_21 C15_32 1_555 1_555
O7_13 C15_32 1_555 1_555
Cu5_17 O1_32 1_555 1_555
O1_32 C14_32 1_555 1_555
O5_15 C14_32 1_555 1_555
N2_5 C1_32 1_555 1_555
C1_32 H1_32 1_555 1_555
C2_32 N2_5 1_555 1_555
H2_32 C2_32 1_555 1_555
C3_32 C2_32 1_555 1_555
H3_32 C3_32 1_555 1_555
C4_32 C3_32 1_555 1_555
H4_32 C4_32 1_555 1_555
C5_32 C1_32 1_555 1_555
C6_30 C5_32 1_555 1_555
C7_30 C6_30 1_555 1_555
C8_30 C7_30 1_555 1_555
C9_30 C8_30 1_555 1_555
H5_30 C9_30 1_555 1_555
C10_30 C9_30 1_555 1_555
C11_30 C10_30 1_555 1_555
H6_30 C11_30 1_555 1_555
C12_30 C11_30 1_555 1_555
C13_30 C8_30 1_555 1_555
H7_30 C13_30 1_555 1_555
C14_32 C10_30 1_555 1_555
O6_22 Cu5_17 1_555 1_555
C4_32 C5_32 1_555 1_555
C12_30 C13_30 1_555 1_555
Cu5_16 O1_33 1_555 1_555
O1_33 C14_33 1_555 1_555
O5_14 C14_33 1_555 1_555
N2_4 C1_33 1_555 1_555
C1_33 H1_33 1_555 1_555
C2_33 N2_4 1_555 1_555
H2_33 C2_33 1_555 1_555
C3_33 C2_33 1_555 1_555
H3_33 C3_33 1_555 1_555
C4_33 C3_33 1_555 1_555
H4_33 C4_33 1_555 1_555
C5_33 C1_33 1_555 1_555
C6_31 C5_33 1_555 1_555
C7_31 C6_31 1_555 1_555
C8_31 C7_31 1_555 1_555
C9_31 C8_31 1_555 1_555
H5_31 C9_31 1_555 1_555
C10_31 C9_31 1_555 1_555
C11_31 C10_31 1_555 1_555
H6_31 C11_31 1_555 1_555
C12_31 C11_31 1_555 1_555
C13_31 C8_31 1_555 1_555
H7_31 C13_31 1_555 1_555
C4_33 C5_33 1_555 1_555
C12_31 C13_31 1_555 1_555
O6_22 C15_33 1_555 1_555
O7_15 C15_33 1_555 1_555
H2_34 C2_34 1_555 1_555
C3_34 C2_34 1_555 1_555
H3_34 C3_34 1_555 1_555
C4_34 C3_34 1_555 1_555
H4_34 C4_34 1_555 1_555
Cu5_3 O1_34 1_555 1_555
O1_34 C14_34 1_555 1_555
O5_16 C14_34 1_555 1_555
O3_12 C15_34 1_555 1_555
O7_17 C15_34 1_555 1_555
N2_15 C1_34 1_555 1_555
C1_34 H1_34 1_555 1_555
C5_34 C1_34 1_555 1_555
C6_32 C5_34 1_555 1_555
C7_32 C6_32 1_555 1_555
C8_32 C7_32 1_555 1_555
C9_32 C8_32 1_555 1_555
H5_32 C9_32 1_555 1_555
C10_32 C9_32 1_555 1_555
C11_32 C10_32 1_555 1_555
H6_32 C11_32 1_555 1_555
C12_32 C11_32 1_555 1_555
C13_32 C8_32 1_555 1_555
H7_32 C13_32 1_555 1_555
C14_34 C10_32 1_555 1_555
C15_34 C12_32 1_555 1_555
Cu5 O3_12 1_555 1_555
O6_23 Cu5_3 1_555 1_555
C12_32 C13_32 1_555 1_555
Cu5_2 O1_35 1_555 1_555
O1_35 C14_35 1_555 1_555
O5_18 C14_35 1_555 1_555
O6_23 C15_35 1_555 1_555
O7_16 C15_35 1_555 1_555
N2_14 C1_35 1_555 1_555
C1_35 H1_35 1_555 1_555
C2_35 N2_14 1_555 1_555
H2_35 C2_35 1_555 1_555
C3_35 C2_35 1_555 1_555
H3_35 C3_35 1_555 1_555
C4_35 C3_35 1_555 1_555
H4_35 C4_35 1_555 1_555
C5_35 C1_35 1_555 1_555
C6_33 C5_35 1_555 1_555
C7_33 C6_33 1_555 1_555
C8_33 C7_33 1_555 1_555
C9_33 C8_33 1_555 1_555
H5_33 C9_33 1_555 1_555
C10_33 C9_33 1_555 1_555
C11_33 C10_33 1_555 1_555
H6_33 C11_33 1_555 1_555
C12_33 C11_33 1_555 1_555
C13_33 C8_33 1_555 1_555
H7_33 C13_33 1_555 1_555
C14_35 C10_33 1_555 1_555
C15_35 C12_33 1_555 1_555
O6_24 Cu5_2 1_555 1_555
C4_35 C5_35 1_555 1_555
C12_33 C13_33 1_555 1_555
Cu5 O1_36 1_555 1_555
O1_36 C14_36 1_555 1_555
O5_17 C14_36 1_555 1_555
O6_24 C15_36 1_555 1_555
O7_18 C15_36 1_555 1_555
N2_13 C1_36 1_555 1_555
C1_36 H1_36 1_555 1_555
C5_36 C1_36 1_555 1_555
C6_34 C5_36 1_555 1_555
C7_34 C6_34 1_555 1_555
C8_34 C7_34 1_555 1_555
C9_34 C8_34 1_555 1_555
H5_34 C9_34 1_555 1_555
C10_34 C9_34 1_555 1_555
C11_34 C10_34 1_555 1_555
H6_34 C11_34 1_555 1_555
C12_34 C11_34 1_555 1_555
C13_34 C8_34 1_555 1_555
H7_34 C13_34 1_555 1_555
C14_36 C10_34 1_555 1_555
C15_36 C12_34 1_555 1_555
C12_34 C13_34 1_555 1_555
H2_36 C2_36 1_555 1_555
C3_36 C2_36 1_555 1_555
H3_36 C3_36 1_555 1_555
C4_36 C3_36 1_555 1_555
H4_36 C4_36 1_555 1_555
C7_35 C6_35 1_555 1_555
C8_35 C7_35 1_555 1_555
C9_35 C8_35 1_555 1_555
H5_35 C9_35 1_555 1_555
C10_35 C9_35 1_555 1_555
C11_35 C10_35 1_555 1_555
H6_35 C11_35 1_555 1_555
C12_35 C11_35 1_555 1_555
C13_35 C8_35 1_555 1_555
H7_35 C13_35 1_555 1_555
C12_35 C13_35 1_555 1_555
C7_36 C6_36 1_555 1_555
C8_36 C7_36 1_555 1_555
C9_36 C8_36 1_555 1_555
H5_36 C9_36 1_555 1_555
C10_36 C9_36 1_555 1_555
C11_36 C10_36 1_555 1_555
H6_36 C11_36 1_555 1_555
C12_36 C11_36 1_555 1_555
C13_36 C8_36 1_555 1_555
H7_36 C13_36 1_555 1_555
C12_36 C13_36 1_555 1_555

#END
