
###############################################################################
#
# This file contains modified crystal structure data generated from the
# MOF subset of the Cambridge Structural Database (CSD) v543 
# hosted by the Cambridge Crystallographic Data Centre (CCDC).
#
# This work is licensed under the Creative Commons
# Attribution-NonCommercial-ShareAlike 4.0 International License.
# To view a copy of this license, visit
# http://creativecommons.org/licenses/by-nc-sa/4.0/
# or send a letter to
# Creative Commons, PO Box 1866, Mountain View, CA 94042, USA.
#
# CIF created using the CSD Python API on 29 September 2022
# The structure has been converted into the P1 space group
# The structure has a 3D framework
# The original CSD entry EZIMAC is in the rhombohedral crystal system
# The framework has been calculated to contain at least 10.0% void space
# The void calculation uses a probe of radius 1.32A, grid spacing 0.4
#
###############################################################################

data_EZIMAC
_chemical_formula_moiety         '(C540 H252 Cu36 N36 O144)n'
_symmetry_cell_setting           triclinic
_symmetry_space_group_name_H-M   'P 1'
_symmetry_Int_Tables_number      1
_space_group_name_Hall           'P 1'
loop_
_symmetry_equiv_pos_site_id
_symmetry_equiv_pos_as_xyz
1 x,y,z
_cell_length_a                   18.218(3)
_cell_length_b                   18.218(3)
_cell_length_c                   72.761(15)
_cell_angle_alpha                90
_cell_angle_beta                 90
_cell_angle_gamma                120
_cell_volume                     20913.7
loop_
_atom_site_label
_atom_site_type_symbol
_atom_site_fract_x
_atom_site_fract_y
_atom_site_fract_z
Cu1 Cu 0.786118(13) 0.171247(14) 0.931043(3)
O1 O 0.68182(9) 0.13062(9) 0.917561(17)
O2 O 0.72091(9) 0.08286(9) 0.893107(18)
O3 O 0.43824(9) 0.16274(10) 0.915886(19)
O4 O 0.35247(9) 0.12239(10) 0.891213(18)
C8 C 0.48513(13) 0.01071(13) 0.86848(2)
C9 C 0.56150(13) 0.02828(13) 0.87668(2)
H5 H 0.5951 0.0073 0.8714
C10 C 0.58811(12) 0.07691(12) 0.89266(2)
C11 C 0.53940(12) 0.10803(12) 0.90030(2)
H6 H 0.5574 0.1402 0.9113
C12 C 0.46441(12) 0.09244(13) 0.89190(2)
C13 C 0.43687(13) 0.04368(13) 0.87602(2)
H7 H 0.3855 0.0327 0.8703
C14 C 0.67022(12) 0.09784(12) 0.90168(2)
C15 C 0.41455(12) 0.12865(12) 0.90033(2)
Cu2 Cu 0.837914(14) 0.119451(13) 0.902290(3)
Cu3 Cu 0.385129(19) 0.213882(13) 0.931043(3)
Cu4 Cu 0.281538(19) 0.162086(14) 0.902290(3)
O5 O 0.74953(9) 0.05424(9) 0.940226(18)
O6 O 0.83726(10) 0.27550(13) 0.915886(19)
O7 O 0.89675(13) 0.21094(10) 0.942120(18)
N2 N 0.73317(10) 0.19645(14) 0.95550(2)
N1 N 0.39984(10) 0.87006(10) 0.78883(2)
C1 C 0.43052(12) 0.90731(12) 0.80503(2)
H1 H 0.4813 0.9607 0.8052
C2 C 0.32821(13) 0.79490(12) 0.78864(2)
H2 H 0.3058 0.7685 0.7771
C3 C 0.28529(15) 0.75397(14) 0.80454(3)
H3 H 0.2349 0.7004 0.8039
C4 C 0.31728(15) 0.79267(15) 0.82135(3)
H4 H 0.2891 0.7659 0.8324
C5 C 0.39127(13) 0.87126(13) 0.82177(2)
C6 C 0.42597(14) 0.91733(14) 0.83857(3)
C7 C 0.45452(13) 0.95909(14) 0.85214(3)
Cu5 Cu 0.452785(13) 0.948204(19) 0.764376(3)
N1_2 N 0.12994(10) 0.52978(14) 0.78883(2)
C1_2 C 0.09269(12) 0.52321(17) 0.80503(2)
H1_2 H 0.0393 0.5206 0.8052
C2_2 C 0.20510(12) 0.53331(18) 0.78864(2)
H2_2 H 0.2315 0.5373 0.7771
C3_2 C 0.24603(14) 0.53132(21) 0.80454(3)
H3_2 H 0.2996 0.5345 0.8039
C4_2 C 0.20733(15) 0.52461(21) 0.82135(3)
H4_2 H 0.2341 0.5232 0.8324
C5_2 C 0.12874(13) 0.52001(18) 0.82177(2)
C6_2 C 0.08267(14) 0.50864(20) 0.83857(3)
C7_2 C 0.04091(14) 0.49543(19) 0.85214(3)
Cu5_2 Cu 0.051796(19) 0.504580(23) 0.764376(3)
Cu1_2 Cu 0.828753(14) 0.614871(19) 0.931043(3)
O1_2 O 0.86938(9) 0.55120(13) 0.917561(17)
O2_2 O 0.91714(9) 0.63805(13) 0.893107(18)
O4_2 O 0.87761(10) 0.23008(13) 0.891213(18)
C8_2 C 0.98929(13) 0.47442(18) 0.86848(2)
C9_2 C 0.97172(13) 0.53322(18) 0.87668(2)
H5_2 H 0.9927 0.5878 0.8714
C10_2 C 0.92309(12) 0.51120(17) 0.89266(2)
C11_2 C 0.89197(12) 0.43137(17) 0.90030(2)
H6_2 H 0.8598 0.4172 0.9113
C12_2 C 0.90756(13) 0.37197(18) 0.89190(2)
C13_2 C 0.95632(13) 0.39319(18) 0.87602(2)
H7_2 H 0.9673 0.3528 0.8703
C14_2 C 0.90216(12) 0.57238(17) 0.90168(2)
C15_2 C 0.87135(12) 0.28590(17) 0.90033(2)
Cu2_2 Cu 0.880549(13) 0.718462(19) 0.902290(3)
O5_2 O 0.94576(9) 0.69528(13) 0.940226(18)
O6_2 O 0.72450(13) 0.56176(16) 0.915886(19)
O7_2 O 0.78906(10) 0.68580(16) 0.942120(18)
N2_2 N 0.80355(14) 0.53673(17) 0.95550(2)
O1_3 O 0.44880(13) 0.31818(9) 0.917561(17)
O2_3 O 0.36195(13) 0.27909(9) 0.893107(18)
O4_3 O 0.76992(13) 0.64753(9) 0.891213(18)
N1_3 N 0.47022(14) 0.60016(10) 0.78883(2)
C1_3 C 0.47679(17) 0.56948(12) 0.80503(2)
H1_3 H 0.4794 0.5187 0.8052
C2_3 C 0.46669(18) 0.67179(13) 0.78864(2)
H2_3 H 0.4627 0.6942 0.7771
C3_3 C 0.46868(21) 0.71471(15) 0.80454(3)
H3_3 H 0.4655 0.7651 0.8039
C4_3 C 0.47539(21) 0.68272(15) 0.82135(3)
H4_3 H 0.4768 0.7109 0.8324
C5_3 C 0.47999(18) 0.60873(13) 0.82177(2)
C6_3 C 0.49136(20) 0.57403(14) 0.83857(3)
C7_3 C 0.50457(19) 0.54548(13) 0.85214(3)
C8_3 C 0.52558(18) 0.51487(13) 0.86848(2)
C9_3 C 0.46678(18) 0.43850(13) 0.87668(2)
H5_3 H 0.4122 0.4049 0.8714
C10_3 C 0.48880(17) 0.41189(12) 0.89266(2)
C11_3 C 0.56863(17) 0.46060(12) 0.90030(2)
H6_3 H 0.5828 0.4426 0.9113
C12_3 C 0.62803(18) 0.53559(12) 0.89190(2)
C13_3 C 0.60681(18) 0.56313(13) 0.87602(2)
H7_3 H 0.6472 0.6145 0.8703
C14_3 C 0.42762(17) 0.32978(12) 0.90168(2)
C15_3 C 0.71410(17) 0.58545(12) 0.90033(2)
Cu5_3 Cu 0.495420(23) 0.547215(13) 0.764376(3)
O5_3 O 0.30472(13) 0.25047(9) 0.940226(18)
O7_3 O 0.31420(16) 0.10325(13) 0.942120(18)
N2_3 N 0.46327(17) 0.26683(10) 0.95550(2)
Cu1_3 Cu 0.171247(14) 0.786118(13) 0.568957(3)
O1_4 O 0.13062(9) 0.68182(9) 0.582439(17)
O2_4 O 0.08286(9) 0.72091(9) 0.606893(18)
O3_2 O 0.16274(10) 0.43824(9) 0.584114(19)
O4_4 O 0.12239(10) 0.35247(9) 0.608787(18)
C8_4 C 0.01071(13) 0.48513(13) 0.63152(2)
C9_4 C 0.02828(13) 0.56150(13) 0.62332(2)
H5_4 H 0.0073 0.5951 0.6286
C10_4 C 0.07691(12) 0.58811(12) 0.60734(2)
C11_4 C 0.10803(12) 0.53940(12) 0.59970(2)
H6_4 H 0.1402 0.5574 0.5887
C12_4 C 0.09244(13) 0.46441(12) 0.60810(2)
C13_4 C 0.04368(13) 0.43687(13) 0.62398(2)
H7_4 H 0.0327 0.3855 0.6297
C14_4 C 0.09784(12) 0.67022(12) 0.59832(2)
C15_4 C 0.12865(12) 0.41455(12) 0.59967(2)
Cu2_3 Cu 0.119451(13) 0.837914(14) 0.597710(3)
Cu3_2 Cu 0.213882(13) 0.385129(19) 0.568957(3)
Cu4_2 Cu 0.162086(14) 0.281538(19) 0.597710(3)
O5_4 O 0.05424(9) 0.74953(9) 0.559774(18)
O6_3 O 0.27550(13) 0.83726(10) 0.584114(19)
O7_4 O 0.21094(10) 0.89675(13) 0.557880(18)
N2_4 N 0.19645(14) 0.73317(10) 0.54450(2)
N1_4 N 0.87006(10) 0.39984(10) 0.71117(2)
C1_4 C 0.90731(12) 0.43052(12) 0.69497(2)
H1_4 H 0.9607 0.4813 0.6948
C2_4 C 0.79490(12) 0.32821(13) 0.71136(2)
H2_4 H 0.7685 0.3058 0.7229
C3_4 C 0.75397(14) 0.28529(15) 0.69546(3)
H3_4 H 0.7004 0.2349 0.6961
C4_4 C 0.79267(15) 0.31728(15) 0.67865(3)
H4_4 H 0.7659 0.2891 0.6676
C5_4 C 0.87126(13) 0.39127(13) 0.67823(2)
C6_4 C 0.91733(14) 0.42597(14) 0.66143(3)
C7_4 C 0.95909(14) 0.45452(13) 0.64786(3)
Cu5_4 Cu 0.948204(19) 0.452785(13) 0.735624(3)
N1_5 N 0.52978(14) 0.12994(10) 0.71117(2)
C1_5 C 0.52321(17) 0.09269(12) 0.69497(2)
H1_5 H 0.5206 0.0393 0.6948
C2_5 C 0.53331(18) 0.20510(12) 0.71136(2)
H2_5 H 0.5373 0.2315 0.7229
C3_5 C 0.53132(21) 0.24603(14) 0.69546(3)
H3_5 H 0.5345 0.2996 0.6961
C4_5 C 0.52461(21) 0.20733(15) 0.67865(3)
H4_5 H 0.5232 0.2341 0.6676
C5_5 C 0.52001(18) 0.12874(13) 0.67823(2)
C6_5 C 0.50864(20) 0.08267(14) 0.66143(3)
C7_5 C 0.49543(19) 0.04091(14) 0.64786(3)
Cu5_5 Cu 0.504580(23) 0.051796(19) 0.735624(3)
Cu1_4 Cu 0.614871(19) 0.828753(14) 0.568957(3)
O1_5 O 0.55120(13) 0.86938(9) 0.582439(17)
O2_5 O 0.63805(13) 0.91714(9) 0.606893(18)
O4_5 O 0.23008(13) 0.87761(10) 0.608787(18)
C8_5 C 0.47442(18) 0.98929(13) 0.63152(2)
C9_5 C 0.53322(18) 0.97172(13) 0.62332(2)
H5_5 H 0.5878 0.9927 0.6286
C10_5 C 0.51120(17) 0.92309(12) 0.60734(2)
C11_5 C 0.43137(17) 0.89197(12) 0.59970(2)
H6_5 H 0.4172 0.8598 0.5887
C12_5 C 0.37197(18) 0.90756(13) 0.60810(2)
C13_5 C 0.39319(18) 0.95632(13) 0.62398(2)
H7_5 H 0.3528 0.9673 0.6297
C14_5 C 0.57238(17) 0.90216(12) 0.59832(2)
C15_5 C 0.28590(17) 0.87135(12) 0.59967(2)
Cu2_4 Cu 0.718462(19) 0.880549(13) 0.597710(3)
O5_5 O 0.69528(13) 0.94576(9) 0.559774(18)
O6_4 O 0.56176(16) 0.72450(13) 0.584114(19)
O7_5 O 0.68580(16) 0.78906(10) 0.557880(18)
N2_5 N 0.53673(17) 0.80355(14) 0.54450(2)
O1_6 O 0.31818(9) 0.44880(13) 0.582439(17)
O2_6 O 0.27909(9) 0.36195(13) 0.606893(18)
O4_6 O 0.64753(9) 0.76992(13) 0.608787(18)
N1_6 N 0.60016(10) 0.47022(14) 0.71117(2)
C1_6 C 0.56948(12) 0.47679(17) 0.69497(2)
H1_6 H 0.5187 0.4794 0.6948
C2_6 C 0.67179(13) 0.46669(18) 0.71136(2)
H2_6 H 0.6942 0.4627 0.7229
C3_6 C 0.71471(15) 0.46868(21) 0.69546(3)
H3_6 H 0.7651 0.4655 0.6961
C4_6 C 0.68272(15) 0.47539(21) 0.67865(3)
H4_6 H 0.7109 0.4768 0.6676
C5_6 C 0.60873(13) 0.47999(18) 0.67823(2)
C6_6 C 0.57403(14) 0.49136(20) 0.66143(3)
C7_6 C 0.54548(13) 0.50457(19) 0.64786(3)
C8_6 C 0.51487(13) 0.52558(18) 0.63152(2)
C9_6 C 0.43850(13) 0.46678(18) 0.62332(2)
H5_6 H 0.4049 0.4122 0.6286
C10_6 C 0.41189(12) 0.48880(17) 0.60734(2)
C11_6 C 0.46060(12) 0.56863(17) 0.59970(2)
H6_6 H 0.4426 0.5828 0.5887
C12_6 C 0.53559(12) 0.62803(18) 0.60810(2)
C13_6 C 0.56313(13) 0.60681(18) 0.62398(2)
H7_6 H 0.6145 0.6472 0.6297
C14_6 C 0.32978(12) 0.42762(17) 0.59832(2)
C15_6 C 0.58545(12) 0.71410(17) 0.59967(2)
Cu5_6 Cu 0.547215(13) 0.495420(23) 0.735624(3)
O5_6 O 0.25047(9) 0.30472(13) 0.559774(18)
O7_6 O 0.10325(13) 0.31420(16) 0.557880(18)
N2_6 N 0.26683(10) 0.46327(17) 0.54450(2)
Cu1_5 Cu 0.452785(13) 0.504580(14) 0.264376(3)
O1_7 O 0.34849(9) 0.46395(9) 0.250894(17)
O2_7 O 0.38758(9) 0.41619(9) 0.226440(18)
O3_3 O 0.10491(9) 0.49607(10) 0.249219(19)
O4_7 O 0.01914(9) 0.45572(10) 0.224546(18)
N1_7 N 0.06651(10) 0.20339(10) 0.12216(2)
C1_7 C 0.09719(12) 0.24064(12) 0.13836(2)
H1_7 H 0.1480 0.2940 0.1385
C5_7 C 0.05794(13) 0.20459(13) 0.15510(2)
C6_7 C 0.09264(14) 0.25066(14) 0.17190(3)
C7_7 C 0.12119(13) 0.29242(14) 0.18547(3)
C8_7 C 0.15180(13) 0.34404(13) 0.20181(2)
C9_7 C 0.22817(13) 0.36161(13) 0.21001(2)
H5_7 H 0.2618 0.3406 0.2047
C10_7 C 0.25478(12) 0.41024(12) 0.22599(2)
C11_7 C 0.20607(12) 0.44136(12) 0.23363(2)
H6_7 H 0.2241 0.4735 0.2446
C12_7 C 0.13108(12) 0.42577(13) 0.22523(2)
C13_7 C 0.10354(13) 0.37701(13) 0.20935(2)
H7_7 H 0.0522 0.3660 0.2036
C14_7 C 0.33689(12) 0.43117(12) 0.23501(2)
C15_7 C 0.08122(12) 0.46198(12) 0.23366(2)
Cu2_5 Cu 0.504580(14) 0.452785(13) 0.235624(3)
Cu3_3 Cu 0.051796(19) 0.547215(13) 0.264376(3)
Cu5_7 Cu 0.119451(13) 0.281538(19) 0.097710(3)
O5_7 O 0.41619(9) 0.38758(9) 0.273560(18)
O6_5 O 0.50393(10) 0.60883(13) 0.249219(19)
O7_7 O 0.56341(13) 0.54428(10) 0.275454(18)
N2_7 N 0.39984(10) 0.52978(14) 0.28883(2)
C2_7 C 0.99488(13) 0.12823(12) 0.12197(2)
H2_7 H 0.9725 0.1018 0.1104
C3_7 C 0.95196(15) 0.08730(14) 0.13787(3)
H3_7 H 0.9016 0.0337 0.1372
C4_7 C 0.98395(15) 0.12600(15) 0.15468(3)
H4_7 H 0.9558 0.0992 0.1657
Cu4_3 Cu 0.948204(19) 0.495420(14) 0.235624(3)
Cu2_6 Cu 0.547215(13) 0.051796(19) 0.235624(3)
O5_8 O 0.61242(9) 0.02862(13) 0.273560(18)
O7_8 O 0.45572(10) 0.01914(16) 0.275454(18)
Cu1_6 Cu 0.495420(14) 0.948204(19) 0.264376(3)
O1_8 O 0.53605(9) 0.88453(13) 0.250894(17)
O2_8 O 0.58381(9) 0.97138(13) 0.226440(18)
O4_8 O 0.54428(10) 0.56341(13) 0.224546(18)
N1_8 N 0.79661(10) 0.86311(14) 0.12216(2)
C1_8 C 0.75936(12) 0.85654(17) 0.13836(2)
H1_8 H 0.7060 0.8539 0.1385
C2_8 C 0.87177(12) 0.86664(18) 0.12197(2)
H2_8 H 0.8982 0.8706 0.1104
C3_8 C 0.91270(14) 0.86465(21) 0.13787(3)
H3_8 H 0.9663 0.8678 0.1372
C4_8 C 0.87400(15) 0.85794(21) 0.15468(3)
H4_8 H 0.9008 0.8565 0.1657
C5_8 C 0.79541(13) 0.85334(18) 0.15510(2)
C6_8 C 0.74934(14) 0.84197(20) 0.17190(3)
C7_8 C 0.70758(14) 0.82876(19) 0.18547(3)
C8_8 C 0.65596(13) 0.80775(18) 0.20181(2)
C9_8 C 0.63839(13) 0.86655(18) 0.21001(2)
H5_8 H 0.6594 0.9211 0.2047
C10_8 C 0.58976(12) 0.84453(17) 0.22599(2)
C11_8 C 0.55864(12) 0.76470(17) 0.23363(2)
H6_8 H 0.5265 0.7505 0.2446
C12_8 C 0.57423(13) 0.70530(18) 0.22523(2)
C13_8 C 0.62299(13) 0.72652(18) 0.20935(2)
H7_8 H 0.6340 0.6861 0.2036
C14_8 C 0.56883(12) 0.90571(17) 0.23501(2)
C15_8 C 0.53802(12) 0.61923(17) 0.23366(2)
Cu5_8 Cu 0.718462(19) 0.837914(23) 0.097710(3)
O6_6 O 0.39117(13) 0.89509(16) 0.249219(19)
N2_8 N 0.47022(14) 0.87006(17) 0.28883(2)
C2_9 C 0.13336(18) 0.00512(13) 0.12197(2)
H2_9 H 0.1294 0.0275 0.1104
C3_9 C 0.13535(21) 0.04804(15) 0.13787(3)
H3_9 H 0.1322 0.0984 0.1372
C4_9 C 0.14206(21) 0.01605(15) 0.15468(3)
H4_9 H 0.1435 0.0442 0.1657
O1_9 O 0.11547(13) 0.65151(9) 0.250894(17)
O2_9 O 0.02862(13) 0.61242(9) 0.226440(18)
O4_9 O 0.43659(13) 0.98086(9) 0.224546(18)
N1_9 N 0.13689(14) 0.93349(10) 0.12216(2)
C1_9 C 0.14346(17) 0.90281(12) 0.13836(2)
H1_9 H 0.1461 0.8520 0.1385
C5_9 C 0.14666(18) 0.94206(13) 0.15510(2)
C6_9 C 0.15803(20) 0.90736(14) 0.17190(3)
C7_9 C 0.17124(19) 0.87881(13) 0.18547(3)
C8_9 C 0.19225(18) 0.84820(13) 0.20181(2)
C9_9 C 0.13345(18) 0.77183(13) 0.21001(2)
H5_9 H 0.0789 0.7382 0.2047
C10_9 C 0.15547(17) 0.74522(12) 0.22599(2)
C11_9 C 0.23530(17) 0.79393(12) 0.23363(2)
H6_9 H 0.2495 0.7759 0.2446
C12_9 C 0.29470(18) 0.86892(12) 0.22523(2)
C13_9 C 0.27348(18) 0.89646(13) 0.20935(2)
H7_9 H 0.3139 0.9478 0.2036
C14_9 C 0.09429(17) 0.66311(12) 0.23501(2)
C15_9 C 0.38077(17) 0.91878(12) 0.23366(2)
Cu5_9 Cu 0.162086(23) 0.880549(13) 0.097710(3)
N2_9 N 0.12994(17) 0.60016(10) 0.28883(2)
O5_9 O 0.97138(13) 0.58381(9) 0.273560(18)
O7_9 O 0.98086(16) 0.43659(13) 0.275454(18)
O1_10 O 0.79729(9) 0.01515(9) 0.915772(17)
C14_10 C 0.76451(12) 0.00355(12) 0.93165(2)
O6_7 O 0.94217(13) 0.17059(10) 0.917447(19)
N2_10 N 0.86311(14) 0.06651(10) 0.87784(2)
N1_10 N 0.53673(10) 0.73317(10) 0.04450(2)
C1_10 C 0.57398(12) 0.76385(12) 0.02830(2)
H1_10 H 0.6274 0.8146 0.0281
C2_10 C 0.46157(12) 0.66154(13) 0.04469(2)
H2_10 H 0.4352 0.6391 0.0562
C3_10 C 0.42064(14) 0.61862(15) 0.02879(3)
H3_10 H 0.3671 0.5682 0.0294
C4_10 C 0.45934(15) 0.65061(15) 0.01198(3)
H4_10 H 0.4326 0.6224 0.0009
C5_10 C 0.53793(13) 0.72460(13) 0.01156(2)
Cu5_10 Cu 0.614871(19) 0.786118(13) 0.068957(3)
O3_4 O 0.82941(10) 0.77157(9) 0.917447(19)
C6_10 C 0.58400(14) 0.75930(14) 0.99476(3)
C7_10 C 0.62576(14) 0.78785(13) 0.98119(3)
C8_10 C 0.67738(13) 0.81846(13) 0.96485(2)
C9_10 C 0.69495(13) 0.89483(13) 0.95665(2)
H5_10 H 0.6740 0.9284 0.9619
C10_10 C 0.74358(12) 0.92144(12) 0.94067(2)
C11_10 C 0.77470(12) 0.87273(12) 0.93303(2)
H6_10 H 0.8069 0.8907 0.9220
C12_10 C 0.75911(13) 0.79774(12) 0.94143(2)
C13_10 C 0.71035(13) 0.77020(13) 0.95731(2)
H7_10 H 0.6994 0.7188 0.9630
C15_10 C 0.79532(12) 0.74788(12) 0.93300(2)
N1_11 N 0.19645(14) 0.46327(10) 0.04450(2)
C1_11 C 0.18988(17) 0.42602(12) 0.02830(2)
H1_11 H 0.1873 0.3726 0.0281
C2_11 C 0.19998(18) 0.53843(12) 0.04469(2)
H2_11 H 0.2040 0.5648 0.0562
C3_11 C 0.19799(21) 0.57936(14) 0.02879(3)
H3_11 H 0.2012 0.6329 0.0294
C4_11 C 0.19128(21) 0.54066(15) 0.01198(3)
H4_11 H 0.1899 0.5674 0.0009
C5_11 C 0.18668(18) 0.46207(13) 0.01156(2)
Cu5_11 Cu 0.171247(23) 0.385129(19) 0.068957(3)
O1_11 O 0.21787(13) 0.20271(9) 0.915772(17)
C6_11 C 0.17531(20) 0.41600(14) 0.99476(3)
C7_11 C 0.16210(19) 0.37424(14) 0.98119(3)
C8_11 C 0.14109(18) 0.32262(13) 0.96485(2)
C9_11 C 0.19989(18) 0.30505(13) 0.95665(2)
H5_11 H 0.2545 0.3260 0.9619
C10_11 C 0.17787(17) 0.25642(12) 0.94067(2)
C11_11 C 0.09804(17) 0.22530(12) 0.93303(2)
H6_11 H 0.0839 0.1931 0.9220
C12_11 C 0.03864(18) 0.24089(13) 0.94143(2)
C13_11 C 0.05986(18) 0.28965(13) 0.95731(2)
H7_11 H 0.0195 0.3006 0.9630
C14_11 C 0.23905(17) 0.23549(12) 0.93165(2)
O6_8 O 0.22843(16) 0.05783(13) 0.917447(19)
N2_11 N 0.20339(17) 0.13689(14) 0.87784(2)
C15_11 C 0.95257(17) 0.20468(12) 0.93300(2)
C15_12 C 0.25212(12) 0.04743(17) 0.93300(2)
N1_12 N 0.26683(10) 0.80355(14) 0.04450(2)
C1_12 C 0.23615(12) 0.81012(17) 0.02830(2)
H1_12 H 0.1854 0.8127 0.0281
C2_12 C 0.33846(13) 0.80002(18) 0.04469(2)
H2_12 H 0.3609 0.7960 0.0562
C3_12 C 0.38138(15) 0.80201(21) 0.02879(3)
H3_12 H 0.4318 0.7988 0.0294
C4_12 C 0.34939(15) 0.80872(21) 0.01198(3)
H4_12 H 0.3776 0.8101 0.0009
C5_12 C 0.27540(13) 0.81332(18) 0.01156(2)
Cu5_12 Cu 0.213882(13) 0.828753(23) 0.068957(3)
O1_12 O 0.98485(9) 0.78213(13) 0.915772(17)
C14_12 C 0.99645(12) 0.76095(17) 0.93165(2)
N2_12 N 0.93349(10) 0.79661(17) 0.87784(2)
O1_13 O 0.01515(9) 0.79729(9) 0.584228(17)
C14_13 C 0.00355(12) 0.76451(12) 0.56835(2)
O6_9 O 0.17059(10) 0.94217(13) 0.582553(19)
N2_13 N 0.06651(10) 0.86311(14) 0.62216(2)
O3_5 O 0.77157(9) 0.82941(10) 0.582553(19)
N1_13 N 0.73317(10) 0.53673(10) 0.45550(2)
C1_13 C 0.76385(12) 0.57398(12) 0.47170(2)
H1_13 H 0.8146 0.6274 0.4719
C2_13 C 0.66154(13) 0.46157(12) 0.45531(2)
H2_13 H 0.6391 0.4352 0.4438
C3_13 C 0.61862(15) 0.42064(14) 0.47121(3)
H3_13 H 0.5682 0.3671 0.4706
C4_13 C 0.65061(15) 0.45934(15) 0.48802(3)
H4_13 H 0.6224 0.4326 0.4991
C5_13 C 0.72460(13) 0.53793(13) 0.48844(2)
C6_12 C 0.75930(14) 0.58400(14) 0.50524(3)
C7_12 C 0.78785(13) 0.62576(14) 0.51881(3)
C8_12 C 0.81846(13) 0.67738(13) 0.53515(2)
C9_12 C 0.89483(13) 0.69495(13) 0.54335(2)
H5_12 H 0.9284 0.6740 0.5381
C10_12 C 0.92144(12) 0.74358(12) 0.55933(2)
C11_12 C 0.87273(12) 0.77470(12) 0.56697(2)
H6_12 H 0.8907 0.8069 0.5780
C12_12 C 0.79774(12) 0.75911(13) 0.55857(2)
C13_12 C 0.77020(13) 0.71035(13) 0.54269(2)
H7_12 H 0.7188 0.6994 0.5370
C15_13 C 0.74788(12) 0.79532(12) 0.56700(2)
Cu5_13 Cu 0.786118(13) 0.614871(19) 0.431043(3)
O1_14 O 0.20271(9) 0.21787(13) 0.584228(17)
N1_14 N 0.46327(10) 0.19645(14) 0.45550(2)
C1_14 C 0.42602(12) 0.18988(17) 0.47170(2)
H1_14 H 0.3726 0.1873 0.4719
C2_14 C 0.53843(12) 0.19998(18) 0.45531(2)
H2_14 H 0.5648 0.2040 0.4438
C3_14 C 0.57936(14) 0.19799(21) 0.47121(3)
H3_14 H 0.6329 0.2012 0.4706
C4_14 C 0.54066(15) 0.19128(21) 0.48802(3)
H4_14 H 0.5674 0.1899 0.4991
C5_14 C 0.46207(13) 0.18668(18) 0.48844(2)
C6_13 C 0.41600(14) 0.17531(20) 0.50524(3)
C7_13 C 0.37424(14) 0.16210(19) 0.51881(3)
C8_13 C 0.32262(13) 0.14109(18) 0.53515(2)
C9_13 C 0.30505(13) 0.19989(18) 0.54335(2)
H5_13 H 0.3260 0.2545 0.5381
C10_13 C 0.25642(12) 0.17787(17) 0.55933(2)
C11_13 C 0.22530(12) 0.09804(17) 0.56697(2)
H6_13 H 0.1931 0.0839 0.5780
C12_13 C 0.24089(13) 0.03864(18) 0.55857(2)
C13_13 C 0.28965(13) 0.05986(18) 0.54269(2)
H7_13 H 0.3006 0.0195 0.5370
C14_14 C 0.23549(12) 0.23905(17) 0.56835(2)
Cu5_14 Cu 0.385129(19) 0.171247(23) 0.431043(3)
O6_10 O 0.05783(13) 0.22843(16) 0.582553(19)
N2_14 N 0.13689(14) 0.20339(17) 0.62216(2)
C15_14 C 0.20468(12) 0.95257(17) 0.56700(2)
C15_15 C 0.04743(17) 0.25212(12) 0.56700(2)
N1_15 N 0.80355(14) 0.26683(10) 0.45550(2)
C1_15 C 0.81012(17) 0.23615(12) 0.47170(2)
H1_15 H 0.8127 0.1854 0.4719
C2_15 C 0.80002(18) 0.33846(13) 0.45531(2)
H2_15 H 0.7960 0.3609 0.4438
C3_15 C 0.80201(21) 0.38138(15) 0.47121(3)
H3_15 H 0.7988 0.4318 0.4706
C4_15 C 0.80872(21) 0.34939(15) 0.48802(3)
H4_15 H 0.8101 0.3776 0.4991
C5_15 C 0.81332(18) 0.27540(13) 0.48844(2)
C6_14 C 0.82469(20) 0.24070(14) 0.50524(3)
C7_14 C 0.83790(19) 0.21215(13) 0.51881(3)
C8_14 C 0.85891(18) 0.18154(13) 0.53515(2)
C9_14 C 0.80011(18) 0.10517(13) 0.54335(2)
H5_14 H 0.7455 0.0716 0.5381
C10_14 C 0.82213(17) 0.07856(12) 0.55933(2)
C11_14 C 0.90196(17) 0.12727(12) 0.56697(2)
H6_14 H 0.9161 0.1093 0.5780
C12_14 C 0.96136(18) 0.20226(12) 0.55857(2)
C13_14 C 0.94014(18) 0.22980(13) 0.54269(2)
H7_14 H 0.9805 0.2812 0.5370
Cu5_15 Cu 0.828753(23) 0.213882(13) 0.431043(3)
O1_15 O 0.78213(13) 0.98485(9) 0.584228(17)
C14_15 C 0.76095(17) 0.99645(12) 0.56835(2)
N2_15 N 0.79661(17) 0.93349(10) 0.62216(2)
O1_16 O 0.46395(9) 0.34849(9) 0.249106(17)
O3_6 O 0.49607(10) 0.10491(9) 0.250781(19)
N1_16 N 0.20339(10) 0.06651(10) 0.37784(2)
C1_16 C 0.24064(12) 0.09719(12) 0.36164(2)
H1_16 H 0.2940 0.1480 0.3615
C5_16 C 0.20459(13) 0.05794(13) 0.34490(2)
C6_15 C 0.25066(14) 0.09264(14) 0.32810(3)
C7_15 C 0.29242(14) 0.12119(13) 0.31453(3)
C8_15 C 0.34404(13) 0.15180(13) 0.29819(2)
C9_15 C 0.36161(13) 0.22817(13) 0.28999(2)
H5_15 H 0.3406 0.2618 0.2953
C10_15 C 0.41024(12) 0.25478(12) 0.27401(2)
C11_15 C 0.44136(12) 0.20607(12) 0.26637(2)
H6_15 H 0.4735 0.2241 0.2554
C12_15 C 0.42577(13) 0.13108(12) 0.27477(2)
C13_15 C 0.37701(13) 0.10354(13) 0.29065(2)
H7_15 H 0.3660 0.0522 0.2964
C14_16 C 0.43117(12) 0.33689(12) 0.26499(2)
C15_16 C 0.46198(12) 0.08122(12) 0.26634(2)
Cu5_16 Cu 0.281538(19) 0.119451(13) 0.402290(3)
O6_11 O 0.60883(13) 0.50393(10) 0.250781(19)
N2_16 N 0.52978(14) 0.39984(10) 0.21117(2)
C2_16 C 0.12823(12) 0.99488(13) 0.37803(2)
H2_16 H 0.1018 0.9725 0.3896
C3_16 C 0.08730(14) 0.95196(15) 0.36213(3)
H3_16 H 0.0337 0.9016 0.3628
C4_16 C 0.12600(15) 0.98395(15) 0.34532(3)
H4_16 H 0.0992 0.9558 0.3343
O1_17 O 0.88453(13) 0.53605(9) 0.249106(17)
N1_17 N 0.86311(14) 0.79661(10) 0.37784(2)
C1_17 C 0.85654(17) 0.75936(12) 0.36164(2)
H1_17 H 0.8539 0.7060 0.3615
C2_17 C 0.86664(18) 0.87177(12) 0.37803(2)
H2_17 H 0.8706 0.8982 0.3896
C3_17 C 0.86465(21) 0.91270(14) 0.36213(3)
H3_17 H 0.8678 0.9663 0.3628
C4_17 C 0.85794(21) 0.87400(15) 0.34532(3)
H4_17 H 0.8565 0.9008 0.3343
C5_17 C 0.85334(18) 0.79541(13) 0.34490(2)
C6_16 C 0.84197(20) 0.74934(14) 0.32810(3)
C7_16 C 0.82876(19) 0.70758(14) 0.31453(3)
C8_16 C 0.80775(18) 0.65596(13) 0.29819(2)
C9_16 C 0.86655(18) 0.63839(13) 0.28999(2)
H5_16 H 0.9211 0.6594 0.2953
C10_16 C 0.84453(17) 0.58976(12) 0.27401(2)
C11_16 C 0.76470(17) 0.55864(12) 0.26637(2)
H6_16 H 0.7505 0.5265 0.2554
C12_16 C 0.70530(18) 0.57423(13) 0.27477(2)
C13_16 C 0.72652(18) 0.62299(13) 0.29065(2)
H7_16 H 0.6861 0.6340 0.2964
C14_17 C 0.90571(17) 0.56883(12) 0.26499(2)
C15_17 C 0.61923(17) 0.53802(12) 0.26634(2)
Cu5_17 Cu 0.837914(23) 0.718462(19) 0.402290(3)
O6_12 O 0.89509(16) 0.39117(13) 0.250781(19)
N2_17 N 0.87006(17) 0.47022(14) 0.21117(2)
C2_18 C 0.00512(13) 0.13336(18) 0.37803(2)
H2_18 H 0.0275 0.1294 0.3896
C3_18 C 0.04804(15) 0.13535(21) 0.36213(3)
H3_18 H 0.0984 0.1322 0.3628
C4_18 C 0.01605(15) 0.14206(21) 0.34532(3)
H4_18 H 0.0442 0.1435 0.3343
O1_18 O 0.65151(9) 0.11547(13) 0.249106(17)
N1_18 N 0.93349(10) 0.13689(14) 0.37784(2)
C1_18 C 0.90281(12) 0.14346(17) 0.36164(2)
H1_18 H 0.8520 0.1461 0.3615
C5_18 C 0.94206(13) 0.14666(18) 0.34490(2)
C6_17 C 0.90736(14) 0.15803(20) 0.32810(3)
C7_17 C 0.87881(13) 0.17124(19) 0.31453(3)
C8_17 C 0.84820(13) 0.19225(18) 0.29819(2)
C9_17 C 0.77183(13) 0.13345(18) 0.28999(2)
H5_17 H 0.7382 0.0789 0.2953
C10_17 C 0.74522(12) 0.15547(17) 0.27401(2)
C11_17 C 0.79393(12) 0.23530(17) 0.26637(2)
H6_17 H 0.7759 0.2495 0.2554
C12_17 C 0.86892(12) 0.29470(18) 0.27477(2)
C13_17 C 0.89646(13) 0.27348(18) 0.29065(2)
H7_17 H 0.9478 0.3139 0.2964
C14_18 C 0.66311(12) 0.09429(17) 0.26499(2)
C15_18 C 0.91878(12) 0.38077(17) 0.26634(2)
Cu5_18 Cu 0.880549(13) 0.162086(23) 0.402290(3)
N2_18 N 0.60016(10) 0.12994(17) 0.21117(2)
C1_19 C 0.56948(12) 0.09269(12) 0.19497(2)
H1_19 H 0.5187 0.0393 0.1948
C2_19 C 0.67179(13) 0.20510(12) 0.21136(2)
H2_19 H 0.6942 0.2315 0.2229
C3_19 C 0.71471(15) 0.24603(14) 0.19546(3)
H3_19 H 0.7651 0.2996 0.1961
C4_19 C 0.68272(15) 0.20733(15) 0.17865(3)
H4_19 H 0.7109 0.2341 0.1676
C5_19 C 0.60873(13) 0.12874(13) 0.17823(2)
C6_18 C 0.57403(14) 0.08267(14) 0.16143(3)
C7_18 C 0.54548(13) 0.04091(14) 0.14786(3)
O1_19 O 0.31818(9) 0.86938(9) 0.082439(17)
O2_10 O 0.27909(9) 0.91714(9) 0.106893(18)
O3_7 O 0.56176(9) 0.83726(10) 0.084114(19)
O4_10 O 0.64753(9) 0.87761(10) 0.108787(18)
C8_18 C 0.51487(13) 0.98929(13) 0.13152(2)
C9_18 C 0.43850(13) 0.97172(13) 0.12332(2)
H5_18 H 0.4049 0.9927 0.1286
C10_18 C 0.41189(12) 0.92309(12) 0.10734(2)
C11_18 C 0.46060(12) 0.89197(12) 0.09970(2)
H6_18 H 0.4426 0.8598 0.0887
C12_18 C 0.53559(12) 0.90756(13) 0.10810(2)
C13_18 C 0.56313(13) 0.95632(13) 0.12398(2)
H7_18 H 0.6145 0.9673 0.1297
C14_19 C 0.32978(12) 0.90216(12) 0.09832(2)
C15_19 C 0.58545(12) 0.87135(12) 0.09967(2)
O5_10 O 0.25047(9) 0.94576(9) 0.059774(18)
O6_13 O 0.16274(10) 0.72450(13) 0.084114(19)
O7_10 O 0.10325(13) 0.78906(10) 0.057880(18)
O1_20 O 0.13062(9) 0.44880(13) 0.082439(17)
O2_11 O 0.08286(9) 0.36195(13) 0.106893(18)
O4_11 O 0.12239(10) 0.76992(13) 0.108787(18)
C8_19 C 0.01071(13) 0.52558(18) 0.13152(2)
C9_19 C 0.02828(13) 0.46678(18) 0.12332(2)
H5_19 H 0.0073 0.4122 0.1286
C10_19 C 0.07691(12) 0.48880(17) 0.10734(2)
C11_19 C 0.10803(12) 0.56863(17) 0.09970(2)
H6_19 H 0.1402 0.5828 0.0887
C12_19 C 0.09244(13) 0.62803(18) 0.10810(2)
C13_19 C 0.04368(13) 0.60681(18) 0.12398(2)
H7_19 H 0.0327 0.6472 0.1297
C14_20 C 0.09784(12) 0.42762(17) 0.09832(2)
C15_20 C 0.12865(12) 0.71410(17) 0.09967(2)
O5_11 O 0.05424(9) 0.30472(13) 0.059774(18)
O6_14 O 0.27550(13) 0.43824(16) 0.084114(19)
O7_11 O 0.21094(10) 0.31420(16) 0.057880(18)
C1_20 C 0.90731(12) 0.47679(17) 0.19497(2)
H1_20 H 0.9607 0.4794 0.1948
C2_20 C 0.79490(12) 0.46669(18) 0.21136(2)
H2_20 H 0.7685 0.4627 0.2229
C3_20 C 0.75397(14) 0.46868(21) 0.19546(3)
H3_20 H 0.7004 0.4655 0.1961
C4_20 C 0.79267(15) 0.47539(21) 0.17865(3)
H4_20 H 0.7659 0.4768 0.1676
C5_20 C 0.87126(13) 0.47999(18) 0.17823(2)
C6_19 C 0.91733(14) 0.49136(20) 0.16143(3)
C7_19 C 0.95909(14) 0.50457(19) 0.14786(3)
O1_21 O 0.55120(13) 0.68182(9) 0.082439(17)
O2_12 O 0.63805(13) 0.72091(9) 0.106893(18)
O4_12 O 0.23008(13) 0.35247(9) 0.108787(18)
C1_21 C 0.52321(17) 0.43052(12) 0.19497(2)
H1_21 H 0.5206 0.4813 0.1948
C2_21 C 0.53331(18) 0.32821(13) 0.21136(2)
H2_21 H 0.5373 0.3058 0.2229
C3_21 C 0.53132(21) 0.28529(15) 0.19546(3)
H3_21 H 0.5345 0.2349 0.1961
C4_21 C 0.52461(21) 0.31728(15) 0.17865(3)
H4_21 H 0.5232 0.2891 0.1676
C5_21 C 0.52001(18) 0.39127(13) 0.17823(2)
C6_20 C 0.50864(20) 0.42597(14) 0.16143(3)
C7_20 C 0.49543(19) 0.45452(13) 0.14786(3)
C8_20 C 0.47442(18) 0.48513(13) 0.13152(2)
C9_20 C 0.53322(18) 0.56150(13) 0.12332(2)
H5_20 H 0.5878 0.5951 0.1286
C10_20 C 0.51120(17) 0.58811(12) 0.10734(2)
C11_20 C 0.43137(17) 0.53940(12) 0.09970(2)
H6_20 H 0.4172 0.5574 0.0887
C12_20 C 0.37197(18) 0.46441(12) 0.10810(2)
C13_20 C 0.39319(18) 0.43687(13) 0.12398(2)
H7_20 H 0.3528 0.3855 0.1297
C14_21 C 0.57238(17) 0.67022(12) 0.09832(2)
C15_21 C 0.28590(17) 0.41455(12) 0.09967(2)
O5_12 O 0.69528(13) 0.74953(9) 0.059774(18)
O7_12 O 0.68580(16) 0.89675(13) 0.057880(18)
C1_22 C 0.09269(12) 0.56948(12) 0.30503(2)
H1_22 H 0.0393 0.5187 0.3052
C2_22 C 0.20510(12) 0.67179(13) 0.28864(2)
H2_22 H 0.2315 0.6942 0.2771
C3_22 C 0.24603(14) 0.71471(15) 0.30454(3)
H3_22 H 0.2996 0.7651 0.3039
C4_22 C 0.20733(15) 0.68272(15) 0.32135(3)
H4_22 H 0.2341 0.7109 0.3324
C5_22 C 0.12874(13) 0.60873(13) 0.32177(2)
C6_21 C 0.08267(14) 0.57403(14) 0.33857(3)
C7_21 C 0.04091(14) 0.54548(13) 0.35214(3)
O1_22 O 0.86938(9) 0.31818(9) 0.417561(17)
O2_13 O 0.91714(9) 0.27909(9) 0.393107(18)
O3_8 O 0.83726(10) 0.56176(9) 0.415886(19)
O4_13 O 0.87761(10) 0.64753(9) 0.391213(18)
C8_21 C 0.98929(13) 0.51487(13) 0.36848(2)
C9_21 C 0.97172(13) 0.43850(13) 0.37668(2)
H5_21 H 0.9927 0.4049 0.3714
C10_21 C 0.92309(12) 0.41189(12) 0.39266(2)
C11_21 C 0.89197(12) 0.46060(12) 0.40030(2)
H6_21 H 0.8598 0.4426 0.4113
C12_21 C 0.90756(13) 0.53559(12) 0.39190(2)
C13_21 C 0.95632(13) 0.56313(13) 0.37602(2)
H7_21 H 0.9673 0.6145 0.3703
C14_22 C 0.90216(12) 0.32978(12) 0.40168(2)
C15_22 C 0.87135(12) 0.58545(12) 0.40033(2)
O5_13 O 0.94576(9) 0.25047(9) 0.440226(18)
O6_15 O 0.72450(13) 0.16274(10) 0.415886(19)
O7_13 O 0.78906(10) 0.10325(13) 0.442120(18)
O1_23 O 0.44880(13) 0.13062(9) 0.417561(17)
O2_14 O 0.36195(13) 0.08286(9) 0.393107(18)
O4_14 O 0.76992(13) 0.12239(10) 0.391213(18)
C8_22 C 0.52558(18) 0.01071(13) 0.36848(2)
C9_22 C 0.46678(18) 0.02828(13) 0.37668(2)
H5_22 H 0.4122 0.0073 0.3714
C10_22 C 0.48880(17) 0.07691(12) 0.39266(2)
C11_22 C 0.56863(17) 0.10803(12) 0.40030(2)
H6_22 H 0.5828 0.1402 0.4113
C12_22 C 0.62803(18) 0.09244(13) 0.39190(2)
C13_22 C 0.60681(18) 0.04368(13) 0.37602(2)
H7_22 H 0.6472 0.0327 0.3703
C14_23 C 0.42762(17) 0.09784(12) 0.40168(2)
C15_23 C 0.71410(17) 0.12865(12) 0.40033(2)
O5_14 O 0.30472(13) 0.05424(9) 0.440226(18)
O6_16 O 0.43824(16) 0.27550(13) 0.415886(19)
O7_14 O 0.31420(16) 0.21094(10) 0.442120(18)
C1_23 C 0.47679(17) 0.90731(12) 0.30503(2)
H1_23 H 0.4794 0.9607 0.3052
C2_23 C 0.46669(18) 0.79490(12) 0.28864(2)
H2_23 H 0.4627 0.7685 0.2771
C3_23 C 0.46868(21) 0.75397(14) 0.30454(3)
H3_23 H 0.4655 0.7004 0.3039
C4_23 C 0.47539(21) 0.79267(15) 0.32135(3)
H4_23 H 0.4768 0.7659 0.3324
C5_23 C 0.47999(18) 0.87126(13) 0.32177(2)
C6_22 C 0.49136(20) 0.91733(14) 0.33857(3)
C7_22 C 0.50457(19) 0.95909(14) 0.35214(3)
O1_24 O 0.68182(9) 0.55120(13) 0.417561(17)
O2_15 O 0.72091(9) 0.63805(13) 0.393107(18)
O4_15 O 0.35247(9) 0.23008(13) 0.391213(18)
C1_24 C 0.43052(12) 0.52321(17) 0.30503(2)
H1_24 H 0.4813 0.5206 0.3052
C2_24 C 0.32821(13) 0.53331(18) 0.28864(2)
H2_24 H 0.3058 0.5373 0.2771
C3_24 C 0.28529(15) 0.53132(21) 0.30454(3)
H3_24 H 0.2349 0.5345 0.3039
C4_24 C 0.31728(15) 0.52461(21) 0.32135(3)
H4_24 H 0.2891 0.5232 0.3324
C5_24 C 0.39127(13) 0.52001(18) 0.32177(2)
C6_23 C 0.42597(14) 0.50864(20) 0.33857(3)
C7_23 C 0.45452(13) 0.49543(19) 0.35214(3)
C8_23 C 0.48513(13) 0.47442(18) 0.36848(2)
C9_23 C 0.56150(13) 0.53322(18) 0.37668(2)
H5_23 H 0.5951 0.5878 0.3714
C10_23 C 0.58811(12) 0.51120(17) 0.39266(2)
C11_23 C 0.53940(12) 0.43137(17) 0.40030(2)
H6_23 H 0.5574 0.4172 0.4113
C12_23 C 0.46441(12) 0.37197(18) 0.39190(2)
C13_23 C 0.43687(13) 0.39319(18) 0.37602(2)
H7_23 H 0.3855 0.3528 0.3703
C14_24 C 0.67022(12) 0.57238(17) 0.40168(2)
C15_24 C 0.41455(12) 0.28590(17) 0.40033(2)
O5_15 O 0.74953(9) 0.69528(13) 0.440226(18)
O7_15 O 0.89675(13) 0.68580(16) 0.442120(18)
C2_25 C 0.00512(13) 0.87177(12) 0.87803(2)
H2_25 H 0.0275 0.8982 0.8896
C3_25 C 0.04804(15) 0.91270(14) 0.86213(3)
H3_25 H 0.0984 0.9663 0.8628
C4_25 C 0.01605(15) 0.87400(15) 0.84532(3)
H4_25 H 0.0442 0.9008 0.8343
O1_25 O 0.65151(9) 0.53605(9) 0.749106(17)
O2_16 O 0.61242(9) 0.58381(9) 0.773560(18)
O3_9 O 0.89509(9) 0.50393(10) 0.750781(19)
O4_16 O 0.98086(9) 0.54428(10) 0.775454(18)
C1_25 C 0.90281(12) 0.75936(12) 0.86164(2)
H1_25 H 0.8520 0.7060 0.8615
C5_25 C 0.94206(13) 0.79541(13) 0.84490(2)
C6_24 C 0.90736(14) 0.74934(14) 0.82810(3)
C7_24 C 0.87881(13) 0.70758(14) 0.81453(3)
C8_24 C 0.84820(13) 0.65596(13) 0.79819(2)
C9_24 C 0.77183(13) 0.63839(13) 0.78999(2)
H5_24 H 0.7382 0.6594 0.7953
C10_24 C 0.74522(12) 0.58976(12) 0.77401(2)
C11_24 C 0.79393(12) 0.55864(12) 0.76637(2)
H6_24 H 0.7759 0.5265 0.7554
C12_24 C 0.86892(12) 0.57423(13) 0.77477(2)
C13_24 C 0.89646(13) 0.62299(13) 0.79065(2)
H7_24 H 0.9478 0.6340 0.7964
C14_25 C 0.66311(12) 0.56883(12) 0.76499(2)
C15_25 C 0.91878(12) 0.53802(12) 0.76634(2)
O5_16 O 0.58381(9) 0.61242(9) 0.726440(18)
O6_17 O 0.49607(10) 0.39117(13) 0.750781(19)
O7_16 O 0.43659(13) 0.45572(10) 0.724546(18)
O1_26 O 0.46395(9) 0.11547(13) 0.749106(17)
O2_17 O 0.41619(9) 0.02862(13) 0.773560(18)
O4_17 O 0.45572(10) 0.43659(13) 0.775454(18)
C1_26 C 0.24064(12) 0.14346(17) 0.86164(2)
H1_26 H 0.2940 0.1461 0.8615
C2_26 C 0.12823(12) 0.13336(18) 0.87803(2)
H2_26 H 0.1018 0.1294 0.8896
C3_26 C 0.08730(14) 0.13535(21) 0.86213(3)
H3_26 H 0.0337 0.1322 0.8628
C4_26 C 0.12600(15) 0.14206(21) 0.84532(3)
H4_26 H 0.0992 0.1435 0.8343
C5_26 C 0.20459(13) 0.14666(18) 0.84490(2)
C6_25 C 0.25066(14) 0.15803(20) 0.82810(3)
C7_25 C 0.29242(14) 0.17124(19) 0.81453(3)
C8_25 C 0.34404(13) 0.19225(18) 0.79819(2)
C9_25 C 0.36161(13) 0.13345(18) 0.78999(2)
H5_25 H 0.3406 0.0789 0.7953
C10_25 C 0.41024(12) 0.15547(17) 0.77401(2)
C11_25 C 0.44136(12) 0.23530(17) 0.76637(2)
H6_25 H 0.4735 0.2495 0.7554
C12_25 C 0.42577(13) 0.29470(18) 0.77477(2)
C13_25 C 0.37701(13) 0.27348(18) 0.79065(2)
H7_25 H 0.3660 0.3139 0.7964
C14_26 C 0.43117(12) 0.09429(17) 0.76499(2)
C15_26 C 0.46198(12) 0.38077(17) 0.76634(2)
O6_18 O 0.60883(13) 0.10491(16) 0.750781(19)
O5_17 O 0.38758(9) 0.97138(13) 0.726440(18)
O7_17 O 0.54428(10) 0.98086(16) 0.724546(18)
O5_18 O 0.02862(13) 0.41619(9) 0.726440(18)
O7_18 O 0.01914(16) 0.56341(13) 0.724546(18)
O1_27 O 0.88453(13) 0.34849(9) 0.749106(17)
O2_18 O 0.97138(13) 0.38758(9) 0.773560(18)
O4_18 O 0.56341(13) 0.01914(9) 0.775454(18)
C1_27 C 0.85654(17) 0.09719(12) 0.86164(2)
H1_27 H 0.8539 0.1480 0.8615
C5_27 C 0.85334(18) 0.05794(13) 0.84490(2)
C6_26 C 0.84197(20) 0.09264(14) 0.82810(3)
C7_26 C 0.82876(19) 0.12119(13) 0.81453(3)
C8_26 C 0.80775(18) 0.15180(13) 0.79819(2)
C9_26 C 0.86655(18) 0.22817(13) 0.78999(2)
H5_26 H 0.9211 0.2618 0.7953
C10_26 C 0.84453(17) 0.25478(12) 0.77401(2)
C11_26 C 0.76470(17) 0.20607(12) 0.76637(2)
H6_26 H 0.7505 0.2241 0.7554
C12_26 C 0.70530(18) 0.13108(12) 0.77477(2)
C13_26 C 0.72652(18) 0.10354(13) 0.79065(2)
H7_26 H 0.6861 0.0522 0.7964
C14_27 C 0.90571(17) 0.33689(12) 0.76499(2)
C15_27 C 0.61923(17) 0.08122(12) 0.76634(2)
C2_27 C 0.86664(18) 0.99488(13) 0.87803(2)
H2_27 H 0.8706 0.9725 0.8896
C3_27 C 0.86465(21) 0.95196(15) 0.86213(3)
H3_27 H 0.8678 0.9016 0.8628
C4_27 C 0.85794(21) 0.98395(15) 0.84532(3)
H4_27 H 0.8565 0.9558 0.8343
O3_10 O 0.17059(10) 0.22843(9) 0.082553(19)
C6_27 C 0.41600(14) 0.24070(14) 0.00524(3)
C7_27 C 0.37424(14) 0.21215(13) 0.01881(3)
C8_27 C 0.32262(13) 0.18154(13) 0.03515(2)
C9_27 C 0.30505(13) 0.10517(13) 0.04335(2)
H5_27 H 0.3260 0.0716 0.0381
C10_27 C 0.25642(12) 0.07856(12) 0.05933(2)
C11_27 C 0.22530(12) 0.12727(12) 0.06697(2)
H6_27 H 0.1931 0.1093 0.0780
C12_27 C 0.24089(13) 0.20226(12) 0.05857(2)
C13_27 C 0.28965(13) 0.22980(13) 0.04269(2)
H7_27 H 0.3006 0.2812 0.0370
C15_28 C 0.20468(12) 0.25212(12) 0.06700(2)
C1_28 C 0.42602(12) 0.23615(12) 0.97170(2)
H1_28 H 0.3726 0.1854 0.9719
C2_28 C 0.53843(12) 0.33846(13) 0.95531(2)
H2_28 H 0.5648 0.3609 0.9438
C3_28 C 0.57936(14) 0.38138(15) 0.97121(3)
H3_28 H 0.6329 0.4318 0.9706
C4_28 C 0.54066(15) 0.34939(15) 0.98802(3)
H4_28 H 0.5674 0.3776 0.9991
C5_28 C 0.46207(13) 0.27540(13) 0.98844(2)
O1_28 O 0.20271(9) 0.98485(9) 0.084228(17)
C14_28 C 0.23549(12) 0.99645(12) 0.06835(2)
O6_19 O 0.05783(13) 0.82941(10) 0.082553(19)
C15_29 C 0.04743(17) 0.79532(12) 0.06700(2)
O1_29 O 0.78213(13) 0.79729(9) 0.084228(17)
C6_28 C 0.82469(20) 0.58400(14) 0.00524(3)
C7_28 C 0.83790(19) 0.62576(14) 0.01881(3)
C8_28 C 0.85891(18) 0.67738(13) 0.03515(2)
C9_28 C 0.80011(18) 0.69495(13) 0.04335(2)
H5_28 H 0.7455 0.6740 0.0381
C10_28 C 0.82213(17) 0.74358(12) 0.05933(2)
C11_28 C 0.90196(17) 0.77470(12) 0.06697(2)
H6_28 H 0.9161 0.8069 0.0780
C12_28 C 0.96136(18) 0.75911(13) 0.05857(2)
C13_28 C 0.94014(18) 0.71035(13) 0.04269(2)
H7_28 H 0.9805 0.6994 0.0370
C14_29 C 0.76095(17) 0.76451(12) 0.06835(2)
O6_20 O 0.77157(16) 0.94217(13) 0.082553(19)
C1_29 C 0.81012(17) 0.57398(12) 0.97170(2)
H1_29 H 0.8127 0.6274 0.9719
C2_29 C 0.80002(18) 0.46157(12) 0.95531(2)
H2_29 H 0.7960 0.4352 0.9438
C3_29 C 0.80201(21) 0.42064(14) 0.97121(3)
H3_29 H 0.7988 0.3671 0.9706
C4_29 C 0.80872(21) 0.45934(15) 0.98802(3)
H4_29 H 0.8101 0.4326 0.9991
C5_29 C 0.81332(18) 0.53793(13) 0.98844(2)
O1_30 O 0.01515(9) 0.21787(13) 0.084228(17)
C14_30 C 0.00355(12) 0.23905(17) 0.06835(2)
C1_30 C 0.76385(12) 0.18988(17) 0.97170(2)
H1_30 H 0.8146 0.1873 0.9719
C2_30 C 0.66154(13) 0.19998(18) 0.95531(2)
H2_30 H 0.6391 0.2040 0.9438
C3_30 C 0.61862(15) 0.19799(21) 0.97121(3)
H3_30 H 0.5682 0.2012 0.9706
C4_30 C 0.65061(15) 0.19128(21) 0.98802(3)
H4_30 H 0.6224 0.1899 0.9991
C5_30 C 0.72460(13) 0.18668(18) 0.98844(2)
C15_30 C 0.74788(12) 0.95257(17) 0.06700(2)
O3_11 O 0.22843(9) 0.17059(10) 0.417447(19)
C1_31 C 0.23615(12) 0.42602(12) 0.52830(2)
H1_31 H 0.1854 0.3726 0.5281
C2_31 C 0.33846(13) 0.53843(12) 0.54469(2)
H2_31 H 0.3609 0.5648 0.5562
C3_31 C 0.38138(15) 0.57936(14) 0.52879(3)
H3_31 H 0.4318 0.6329 0.5294
C4_31 C 0.34939(15) 0.54066(15) 0.51198(3)
H4_31 H 0.3776 0.5674 0.5009
C5_31 C 0.27540(13) 0.46207(13) 0.51156(2)
C6_29 C 0.24070(14) 0.41600(14) 0.49476(3)
C7_29 C 0.21215(13) 0.37424(14) 0.48119(3)
C8_29 C 0.18154(13) 0.32262(13) 0.46485(2)
C9_29 C 0.10517(13) 0.30505(13) 0.45665(2)
H5_29 H 0.0716 0.3260 0.4619
C10_29 C 0.07856(12) 0.25642(12) 0.44067(2)
C11_29 C 0.12727(12) 0.22530(12) 0.43303(2)
H6_29 H 0.1093 0.1931 0.4220
C12_29 C 0.20226(12) 0.24089(13) 0.44143(2)
C13_29 C 0.22980(13) 0.28965(13) 0.45731(2)
H7_29 H 0.2812 0.3006 0.4630
C15_31 C 0.25212(12) 0.20468(12) 0.43300(2)
O1_31 O 0.98485(9) 0.20271(9) 0.415772(17)
C14_31 C 0.99645(12) 0.23549(12) 0.43165(2)
O6_21 O 0.82941(10) 0.05783(13) 0.417447(19)
C15_32 C 0.79532(12) 0.04743(17) 0.43300(2)
O1_32 O 0.79729(9) 0.78213(13) 0.415772(17)
C1_32 C 0.57398(12) 0.81012(17) 0.52830(2)
H1_32 H 0.6274 0.8127 0.5281
C2_32 C 0.46157(12) 0.80002(18) 0.54469(2)
H2_32 H 0.4352 0.7960 0.5562
C3_32 C 0.42064(14) 0.80201(21) 0.52879(3)
H3_32 H 0.3671 0.7988 0.5294
C4_32 C 0.45934(15) 0.80872(21) 0.51198(3)
H4_32 H 0.4326 0.8101 0.5009
C5_32 C 0.53793(13) 0.81332(18) 0.51156(2)
C6_30 C 0.58400(14) 0.82469(20) 0.49476(3)
C7_30 C 0.62576(14) 0.83790(19) 0.48119(3)
C8_30 C 0.67738(13) 0.85891(18) 0.46485(2)
C9_30 C 0.69495(13) 0.80011(18) 0.45665(2)
H5_30 H 0.6740 0.7455 0.4619
C10_30 C 0.74358(12) 0.82213(17) 0.44067(2)
C11_30 C 0.77470(12) 0.90196(17) 0.43303(2)
H6_30 H 0.8069 0.9161 0.4220
C12_30 C 0.75911(13) 0.96136(18) 0.44143(2)
C13_30 C 0.71035(13) 0.94014(18) 0.45731(2)
H7_30 H 0.6994 0.9805 0.4630
C14_32 C 0.76451(12) 0.76095(17) 0.43165(2)
O6_22 O 0.94217(13) 0.77157(16) 0.417447(19)
O1_33 O 0.21787(13) 0.01515(9) 0.415772(17)
C14_33 C 0.23905(17) 0.00355(12) 0.43165(2)
C1_33 C 0.18988(17) 0.76385(12) 0.52830(2)
H1_33 H 0.1873 0.8146 0.5281
C2_33 C 0.19998(18) 0.66154(13) 0.54469(2)
H2_33 H 0.2040 0.6391 0.5562
C3_33 C 0.19799(21) 0.61862(15) 0.52879(3)
H3_33 H 0.2012 0.5682 0.5294
C4_33 C 0.19128(21) 0.65061(15) 0.51198(3)
H4_33 H 0.1899 0.6224 0.5009
C5_33 C 0.18668(18) 0.72460(13) 0.51156(2)
C6_31 C 0.17531(20) 0.75930(14) 0.49476(3)
C7_31 C 0.16210(19) 0.78785(13) 0.48119(3)
C8_31 C 0.14109(18) 0.81846(13) 0.46485(2)
C9_31 C 0.19989(18) 0.89483(13) 0.45665(2)
H5_31 H 0.2545 0.9284 0.4619
C10_31 C 0.17787(17) 0.92144(12) 0.44067(2)
C11_31 C 0.09804(17) 0.87273(12) 0.43303(2)
H6_31 H 0.0839 0.8907 0.4220
C12_31 C 0.03864(18) 0.79774(12) 0.44143(2)
C13_31 C 0.05986(18) 0.77020(13) 0.45731(2)
H7_31 H 0.0195 0.7188 0.4630
C15_33 C 0.95257(17) 0.74788(12) 0.43300(2)
C2_34 C 0.87177(12) 0.00512(13) 0.62197(2)
H2_34 H 0.8982 0.0275 0.6104
C3_34 C 0.91270(14) 0.04804(15) 0.63787(3)
H3_34 H 0.9663 0.0984 0.6372
C4_34 C 0.87400(15) 0.01605(15) 0.65468(3)
H4_34 H 0.9008 0.0442 0.6657
O1_34 O 0.53605(9) 0.65151(9) 0.750894(17)
O3_12 O 0.50393(10) 0.89509(9) 0.749219(19)
C1_34 C 0.75936(12) 0.90281(12) 0.63836(2)
H1_34 H 0.7060 0.8520 0.6385
C5_34 C 0.79541(13) 0.94206(13) 0.65510(2)
C6_32 C 0.74934(14) 0.90736(14) 0.67190(3)
C7_32 C 0.70758(14) 0.87881(13) 0.68547(3)
C8_32 C 0.65596(13) 0.84820(13) 0.70181(2)
C9_32 C 0.63839(13) 0.77183(13) 0.71001(2)
H5_32 H 0.6594 0.7382 0.7047
C10_32 C 0.58976(12) 0.74522(12) 0.72599(2)
C11_32 C 0.55864(12) 0.79393(12) 0.73363(2)
H6_32 H 0.5265 0.7759 0.7446
C12_32 C 0.57423(13) 0.86892(12) 0.72523(2)
C13_32 C 0.62299(13) 0.89646(13) 0.70935(2)
H7_32 H 0.6340 0.9478 0.7036
C14_34 C 0.56883(12) 0.66311(12) 0.73501(2)
C15_34 C 0.53802(12) 0.91878(12) 0.73366(2)
O6_23 O 0.39117(13) 0.49607(10) 0.749219(19)
O1_35 O 0.11547(13) 0.46395(9) 0.750894(17)
C1_35 C 0.14346(17) 0.24064(12) 0.63836(2)
H1_35 H 0.1461 0.2940 0.6385
C2_35 C 0.13336(18) 0.12823(12) 0.62197(2)
H2_35 H 0.1294 0.1018 0.6104
C3_35 C 0.13535(21) 0.08730(14) 0.63787(3)
H3_35 H 0.1322 0.0337 0.6372
C4_35 C 0.14206(21) 0.12600(15) 0.65468(3)
H4_35 H 0.1435 0.0992 0.6657
C5_35 C 0.14666(18) 0.20459(13) 0.65510(2)
C6_33 C 0.15803(20) 0.25066(14) 0.67190(3)
C7_33 C 0.17124(19) 0.29242(14) 0.68547(3)
C8_33 C 0.19225(18) 0.34404(13) 0.70181(2)
C9_33 C 0.13345(18) 0.36161(13) 0.71001(2)
H5_33 H 0.0789 0.3406 0.7047
C10_33 C 0.15547(17) 0.41024(12) 0.72599(2)
C11_33 C 0.23530(17) 0.44136(12) 0.73363(2)
H6_33 H 0.2495 0.4735 0.7446
C12_33 C 0.29470(18) 0.42577(13) 0.72523(2)
C13_33 C 0.27348(18) 0.37701(13) 0.70935(2)
H7_33 H 0.3139 0.3660 0.7036
C14_35 C 0.09429(17) 0.43117(12) 0.73501(2)
C15_35 C 0.38077(17) 0.46198(12) 0.73366(2)
O6_24 O 0.10491(16) 0.60883(13) 0.749219(19)
O1_36 O 0.34849(9) 0.88453(13) 0.750894(17)
C1_36 C 0.09719(12) 0.85654(17) 0.63836(2)
H1_36 H 0.1480 0.8539 0.6385
C5_36 C 0.05794(13) 0.85334(18) 0.65510(2)
C6_34 C 0.09264(14) 0.84197(20) 0.67190(3)
C7_34 C 0.12119(13) 0.82876(19) 0.68547(3)
C8_34 C 0.15180(13) 0.80775(18) 0.70181(2)
C9_34 C 0.22817(13) 0.86655(18) 0.71001(2)
H5_34 H 0.2618 0.9211 0.7047
C10_34 C 0.25478(12) 0.84453(17) 0.72599(2)
C11_34 C 0.20607(12) 0.76470(17) 0.73363(2)
H6_34 H 0.2241 0.7505 0.7446
C12_34 C 0.13108(12) 0.70530(18) 0.72523(2)
C13_34 C 0.10354(13) 0.72652(18) 0.70935(2)
H7_34 H 0.0522 0.6861 0.7036
C14_36 C 0.33689(12) 0.90571(17) 0.73501(2)
C15_36 C 0.08122(12) 0.61923(17) 0.73366(2)
C2_36 C 0.99488(13) 0.86664(18) 0.62197(2)
H2_36 H 0.9725 0.8706 0.6104
C3_36 C 0.95196(15) 0.86465(21) 0.63787(3)
H3_36 H 0.9016 0.8678 0.6372
C4_36 C 0.98395(15) 0.85794(21) 0.65468(3)
H4_36 H 0.9558 0.8565 0.6657
C6_35 C 0.24070(14) 0.82469(20) 0.99476(3)
C7_35 C 0.21215(13) 0.83790(19) 0.98119(3)
C8_35 C 0.18154(13) 0.85891(18) 0.96485(2)
C9_35 C 0.10517(13) 0.80011(18) 0.95665(2)
H5_35 H 0.0716 0.7455 0.9619
C10_35 C 0.07856(12) 0.82213(17) 0.94067(2)
C11_35 C 0.12727(12) 0.90196(17) 0.93303(2)
H6_35 H 0.1093 0.9161 0.9220
C12_35 C 0.20226(12) 0.96136(18) 0.94143(2)
C13_35 C 0.22980(13) 0.94014(18) 0.95731(2)
H7_35 H 0.2812 0.9805 0.9630
C6_36 C 0.75930(14) 0.17531(20) 0.00524(3)
C7_36 C 0.78785(13) 0.16210(19) 0.01881(3)
C8_36 C 0.81846(13) 0.14109(18) 0.03515(2)
C9_36 C 0.89483(13) 0.19989(18) 0.04335(2)
H5_36 H 0.9284 0.2545 0.0381
C10_36 C 0.92144(12) 0.17787(17) 0.05933(2)
C11_36 C 0.87273(12) 0.09804(17) 0.06697(2)
H6_36 H 0.8907 0.0839 0.0780
C12_36 C 0.79774(12) 0.03864(18) 0.05857(2)
C13_36 C 0.77020(13) 0.05986(18) 0.04269(2)
H7_36 H 0.7188 0.0195 0.0370
loop_
_geom_bond_atom_site_label_1
_geom_bond_atom_site_label_2
_geom_bond_site_symmetry_1
_geom_bond_site_symmetry_2
Cu1 O1 1_555 1_555
O1 C14 1_555 1_555
O2 C14 1_555 1_555
O3 C15 1_555 1_555
O4 C15 1_555 1_555
C9 C8 1_555 1_555
H5 C9 1_555 1_555
C10 C9 1_555 1_555
C11 C10 1_555 1_555
H6 C11 1_555 1_555
C12 C11 1_555 1_555
C13 C8 1_555 1_555
H7 C13 1_555 1_555
C14 C10 1_555 1_555
C15 C12 1_555 1_555
Cu2 O2 1_555 1_555
Cu3 O3 1_555 1_555
Cu4 O4 1_555 1_555
O5 Cu1 1_555 1_555
O6 Cu1 1_555 1_555
O7 Cu1 1_555 1_555
N2 Cu1 1_555 1_555
C12 C13 1_555 1_555
N1 C1 1_555 1_555
C1 H1 1_555 1_555
C2 N1 1_555 1_555
H2 C2 1_555 1_555
C3 C2 1_555 1_555
H3 C3 1_555 1_555
C4 C3 1_555 1_555
H4 C4 1_555 1_555
C5 C1 1_555 1_555
C6 C5 1_555 1_555
C7 C6 1_555 1_555
Cu5 N1 1_555 1_555
C4 C5 1_555 1_555
N1_2 C1_2 1_555 1_555
C1_2 H1_2 1_555 1_555
C2_2 N1_2 1_555 1_555
H2_2 C2_2 1_555 1_555
C3_2 C2_2 1_555 1_555
H3_2 C3_2 1_555 1_555
C4_2 C3_2 1_555 1_555
H4_2 C4_2 1_555 1_555
C5_2 C1_2 1_555 1_555
C6_2 C5_2 1_555 1_555
C7_2 C6_2 1_555 1_555
Cu5_2 N1_2 1_555 1_555
C4_2 C5_2 1_555 1_555
Cu1_2 O1_2 1_555 1_555
O1_2 C14_2 1_555 1_555
O2_2 C14_2 1_555 1_555
O6 C15_2 1_555 1_555
O4_2 C15_2 1_555 1_555
C9_2 C8_2 1_555 1_555
H5_2 C9_2 1_555 1_555
C10_2 C9_2 1_555 1_555
C11_2 C10_2 1_555 1_555
H6_2 C11_2 1_555 1_555
C12_2 C11_2 1_555 1_555
C13_2 C8_2 1_555 1_555
H7_2 C13_2 1_555 1_555
C14_2 C10_2 1_555 1_555
C15_2 C12_2 1_555 1_555
Cu2_2 O2_2 1_555 1_555
Cu2 O4_2 1_555 1_555
O5_2 Cu1_2 1_555 1_555
O6_2 Cu1_2 1_555 1_555
O7_2 Cu1_2 1_555 1_555
N2_2 Cu1_2 1_555 1_555
C12_2 C13_2 1_555 1_555
Cu3 O1_3 1_555 1_555
O1_3 C14_3 1_555 1_555
O2_3 C14_3 1_555 1_555
O6_2 C15_3 1_555 1_555
O4_3 C15_3 1_555 1_555
N1_3 C1_3 1_555 1_555
C1_3 H1_3 1_555 1_555
C2_3 N1_3 1_555 1_555
H2_3 C2_3 1_555 1_555
C3_3 C2_3 1_555 1_555
H3_3 C3_3 1_555 1_555
C4_3 C3_3 1_555 1_555
H4_3 C4_3 1_555 1_555
C5_3 C1_3 1_555 1_555
C6_3 C5_3 1_555 1_555
C7_3 C6_3 1_555 1_555
C8_3 C7_3 1_555 1_555
C9_3 C8_3 1_555 1_555
H5_3 C9_3 1_555 1_555
C10_3 C9_3 1_555 1_555
C11_3 C10_3 1_555 1_555
H6_3 C11_3 1_555 1_555
C12_3 C11_3 1_555 1_555
C13_3 C8_3 1_555 1_555
H7_3 C13_3 1_555 1_555
C14_3 C10_3 1_555 1_555
C15_3 C12_3 1_555 1_555
Cu4 O2_3 1_555 1_555
Cu2_2 O4_3 1_555 1_555
Cu5_3 N1_3 1_555 1_555
O5_3 Cu3 1_555 1_555
O7_3 Cu3 1_555 1_555
N2_3 Cu3 1_555 1_555
C4_3 C5_3 1_555 1_555
C12_3 C13_3 1_555 1_555
Cu1_3 O1_4 1_555 1_555
O1_4 C14_4 1_555 1_555
O2_4 C14_4 1_555 1_555
O3_2 C15_4 1_555 1_555
O4_4 C15_4 1_555 1_555
C9_4 C8_4 1_555 1_555
H5_4 C9_4 1_555 1_555
C10_4 C9_4 1_555 1_555
C11_4 C10_4 1_555 1_555
H6_4 C11_4 1_555 1_555
C12_4 C11_4 1_555 1_555
C13_4 C8_4 1_555 1_555
H7_4 C13_4 1_555 1_555
C14_4 C10_4 1_555 1_555
C15_4 C12_4 1_555 1_555
Cu2_3 O2_4 1_555 1_555
Cu3_2 O3_2 1_555 1_555
Cu4_2 O4_4 1_555 1_555
O5_4 Cu1_3 1_555 1_555
O6_3 Cu1_3 1_555 1_555
O7_4 Cu1_3 1_555 1_555
N2_4 Cu1_3 1_555 1_555
C12_4 C13_4 1_555 1_555
N1_4 C1_4 1_555 1_555
C1_4 H1_4 1_555 1_555
C2_4 N1_4 1_555 1_555
H2_4 C2_4 1_555 1_555
C3_4 C2_4 1_555 1_555
H3_4 C3_4 1_555 1_555
C4_4 C3_4 1_555 1_555
H4_4 C4_4 1_555 1_555
C5_4 C1_4 1_555 1_555
C6_4 C5_4 1_555 1_555
C7_4 C6_4 1_555 1_555
Cu5_4 N1_4 1_555 1_555
C4_4 C5_4 1_555 1_555
N1_5 C1_5 1_555 1_555
C1_5 H1_5 1_555 1_555
C2_5 N1_5 1_555 1_555
H2_5 C2_5 1_555 1_555
C3_5 C2_5 1_555 1_555
H3_5 C3_5 1_555 1_555
C4_5 C3_5 1_555 1_555
H4_5 C4_5 1_555 1_555
C5_5 C1_5 1_555 1_555
C6_5 C5_5 1_555 1_555
C7_5 C6_5 1_555 1_555
Cu5_5 N1_5 1_555 1_555
C4_5 C5_5 1_555 1_555
Cu1_4 O1_5 1_555 1_555
O1_5 C14_5 1_555 1_555
O2_5 C14_5 1_555 1_555
O6_3 C15_5 1_555 1_555
O4_5 C15_5 1_555 1_555
C9_5 C8_5 1_555 1_555
H5_5 C9_5 1_555 1_555
C10_5 C9_5 1_555 1_555
C11_5 C10_5 1_555 1_555
H6_5 C11_5 1_555 1_555
C12_5 C11_5 1_555 1_555
C13_5 C8_5 1_555 1_555
H7_5 C13_5 1_555 1_555
C14_5 C10_5 1_555 1_555
C15_5 C12_5 1_555 1_555
Cu2_4 O2_5 1_555 1_555
Cu2_3 O4_5 1_555 1_555
O5_5 Cu1_4 1_555 1_555
O6_4 Cu1_4 1_555 1_555
O7_5 Cu1_4 1_555 1_555
N2_5 Cu1_4 1_555 1_555
C12_5 C13_5 1_555 1_555
Cu3_2 O1_6 1_555 1_555
O1_6 C14_6 1_555 1_555
O2_6 C14_6 1_555 1_555
O6_4 C15_6 1_555 1_555
O4_6 C15_6 1_555 1_555
N1_6 C1_6 1_555 1_555
C1_6 H1_6 1_555 1_555
C2_6 N1_6 1_555 1_555
H2_6 C2_6 1_555 1_555
C3_6 C2_6 1_555 1_555
H3_6 C3_6 1_555 1_555
C4_6 C3_6 1_555 1_555
H4_6 C4_6 1_555 1_555
C5_6 C1_6 1_555 1_555
C6_6 C5_6 1_555 1_555
C7_6 C6_6 1_555 1_555
C8_6 C7_6 1_555 1_555
C9_6 C8_6 1_555 1_555
H5_6 C9_6 1_555 1_555
C10_6 C9_6 1_555 1_555
C11_6 C10_6 1_555 1_555
H6_6 C11_6 1_555 1_555
C12_6 C11_6 1_555 1_555
C13_6 C8_6 1_555 1_555
H7_6 C13_6 1_555 1_555
C14_6 C10_6 1_555 1_555
C15_6 C12_6 1_555 1_555
Cu4_2 O2_6 1_555 1_555
Cu2_4 O4_6 1_555 1_555
Cu5_6 N1_6 1_555 1_555
O5_6 Cu3_2 1_555 1_555
O7_6 Cu3_2 1_555 1_555
N2_6 Cu3_2 1_555 1_555
C4_6 C5_6 1_555 1_555
C12_6 C13_6 1_555 1_555
Cu1_5 O1_7 1_555 1_555
O1_7 C14_7 1_555 1_555
O2_7 C14_7 1_555 1_555
O3_3 C15_7 1_555 1_555
O4_7 C15_7 1_555 1_555
N1_7 C1_7 1_555 1_555
C1_7 H1_7 1_555 1_555
C5_7 C1_7 1_555 1_555
C6_7 C5_7 1_555 1_555
C7_7 C6_7 1_555 1_555
C8_7 C7_7 1_555 1_555
C9_7 C8_7 1_555 1_555
H5_7 C9_7 1_555 1_555
C10_7 C9_7 1_555 1_555
C11_7 C10_7 1_555 1_555
H6_7 C11_7 1_555 1_555
C12_7 C11_7 1_555 1_555
C13_7 C8_7 1_555 1_555
H7_7 C13_7 1_555 1_555
C14_7 C10_7 1_555 1_555
C15_7 C12_7 1_555 1_555
Cu2_5 O2_7 1_555 1_555
Cu3_3 O3_3 1_555 1_555
Cu5_7 N1_7 1_555 1_555
O5_7 Cu1_5 1_555 1_555
O6_5 Cu1_5 1_555 1_555
O7_7 Cu1_5 1_555 1_555
N2_7 Cu1_5 1_555 1_555
C12_7 C13_7 1_555 1_555
H2_7 C2_7 1_555 1_555
C3_7 C2_7 1_555 1_555
H3_7 C3_7 1_555 1_555
C4_7 C3_7 1_555 1_555
H4_7 C4_7 1_555 1_555
Cu1_6 O1_8 1_555 1_555
O1_8 C14_8 1_555 1_555
O2_8 C14_8 1_555 1_555
O6_5 C15_8 1_555 1_555
O4_8 C15_8 1_555 1_555
N1_8 C1_8 1_555 1_555
C1_8 H1_8 1_555 1_555
C2_8 N1_8 1_555 1_555
H2_8 C2_8 1_555 1_555
C3_8 C2_8 1_555 1_555
H3_8 C3_8 1_555 1_555
C4_8 C3_8 1_555 1_555
H4_8 C4_8 1_555 1_555
C5_8 C1_8 1_555 1_555
C6_8 C5_8 1_555 1_555
C7_8 C6_8 1_555 1_555
C8_8 C7_8 1_555 1_555
C9_8 C8_8 1_555 1_555
H5_8 C9_8 1_555 1_555
C10_8 C9_8 1_555 1_555
C11_8 C10_8 1_555 1_555
H6_8 C11_8 1_555 1_555
C12_8 C11_8 1_555 1_555
C13_8 C8_8 1_555 1_555
H7_8 C13_8 1_555 1_555
C14_8 C10_8 1_555 1_555
C15_8 C12_8 1_555 1_555
Cu2_5 O4_8 1_555 1_555
Cu5_8 N1_8 1_555 1_555
O6_6 Cu1_6 1_555 1_555
N2_8 Cu1_6 1_555 1_555
C4_8 C5_8 1_555 1_555
C12_8 C13_8 1_555 1_555
H2_9 C2_9 1_555 1_555
C3_9 C2_9 1_555 1_555
H3_9 C3_9 1_555 1_555
C4_9 C3_9 1_555 1_555
H4_9 C4_9 1_555 1_555
Cu3_3 O1_9 1_555 1_555
O1_9 C14_9 1_555 1_555
O2_9 C14_9 1_555 1_555
O6_6 C15_9 1_555 1_555
O4_9 C15_9 1_555 1_555
N1_9 C1_9 1_555 1_555
C1_9 H1_9 1_555 1_555
C5_9 C1_9 1_555 1_555
C6_9 C5_9 1_555 1_555
C7_9 C6_9 1_555 1_555
C8_9 C7_9 1_555 1_555
C9_9 C8_9 1_555 1_555
H5_9 C9_9 1_555 1_555
C10_9 C9_9 1_555 1_555
C11_9 C10_9 1_555 1_555
H6_9 C11_9 1_555 1_555
C12_9 C11_9 1_555 1_555
C13_9 C8_9 1_555 1_555
H7_9 C13_9 1_555 1_555
C14_9 C10_9 1_555 1_555
C15_9 C12_9 1_555 1_555
Cu5_9 N1_9 1_555 1_555
N2_9 Cu3_3 1_555 1_555
C12_9 C13_9 1_555 1_555
Cu2 O1_10 1_555 1_555
O1_10 C14_10 1_555 1_555
O5 C14_10 1_555 1_555
O6_7 Cu2 1_555 1_555
N2_10 Cu2 1_555 1_555
N1_10 C1_10 1_555 1_555
C1_10 H1_10 1_555 1_555
C2_10 N1_10 1_555 1_555
H2_10 C2_10 1_555 1_555
C3_10 C2_10 1_555 1_555
H3_10 C3_10 1_555 1_555
C4_10 C3_10 1_555 1_555
H4_10 C4_10 1_555 1_555
C5_10 C1_10 1_555 1_555
Cu5_10 N1_10 1_555 1_555
C4_10 C5_10 1_555 1_555
O3_4 C15_10 1_555 1_555
O7_2 C15_10 1_555 1_555
C7_10 C6_10 1_555 1_555
C8_10 C7_10 1_555 1_555
C9_10 C8_10 1_555 1_555
H5_10 C9_10 1_555 1_555
C10_10 C9_10 1_555 1_555
C11_10 C10_10 1_555 1_555
H6_10 C11_10 1_555 1_555
C12_10 C11_10 1_555 1_555
C13_10 C8_10 1_555 1_555
H7_10 C13_10 1_555 1_555
C15_10 C12_10 1_555 1_555
Cu2_2 O3_4 1_555 1_555
C12_10 C13_10 1_555 1_555
N1_11 C1_11 1_555 1_555
C1_11 H1_11 1_555 1_555
C2_11 N1_11 1_555 1_555
H2_11 C2_11 1_555 1_555
C3_11 C2_11 1_555 1_555
H3_11 C3_11 1_555 1_555
C4_11 C3_11 1_555 1_555
H4_11 C4_11 1_555 1_555
C5_11 C1_11 1_555 1_555
Cu5_11 N1_11 1_555 1_555
C4_11 C5_11 1_555 1_555
Cu4 O1_11 1_555 1_555
O1_11 C14_11 1_555 1_555
O5_3 C14_11 1_555 1_555
C7_11 C6_11 1_555 1_555
C8_11 C7_11 1_555 1_555
C9_11 C8_11 1_555 1_555
H5_11 C9_11 1_555 1_555
C10_11 C9_11 1_555 1_555
C11_11 C10_11 1_555 1_555
H6_11 C11_11 1_555 1_555
C12_11 C11_11 1_555 1_555
C13_11 C8_11 1_555 1_555
H7_11 C13_11 1_555 1_555
C14_11 C10_11 1_555 1_555
O6_8 Cu4 1_555 1_555
N2_11 Cu4 1_555 1_555
C12_11 C13_11 1_555 1_555
O6_7 C15_11 1_555 1_555
O7 C15_11 1_555 1_555
O6_8 C15_12 1_555 1_555
O7_3 C15_12 1_555 1_555
N1_12 C1_12 1_555 1_555
C1_12 H1_12 1_555 1_555
C2_12 N1_12 1_555 1_555
H2_12 C2_12 1_555 1_555
C3_12 C2_12 1_555 1_555
H3_12 C3_12 1_555 1_555
C4_12 C3_12 1_555 1_555
H4_12 C4_12 1_555 1_555
C5_12 C1_12 1_555 1_555
Cu5_12 N1_12 1_555 1_555
C4_12 C5_12 1_555 1_555
Cu2_2 O1_12 1_555 1_555
O1_12 C14_12 1_555 1_555
O5_2 C14_12 1_555 1_555
N2_12 Cu2_2 1_555 1_555
Cu2_3 O1_13 1_555 1_555
O1_13 C14_13 1_555 1_555
O5_4 C14_13 1_555 1_555
O6_9 Cu2_3 1_555 1_555
N2_13 Cu2_3 1_555 1_555
O3_5 C15_13 1_555 1_555
O7_5 C15_13 1_555 1_555
N1_13 C1_13 1_555 1_555
C1_13 H1_13 1_555 1_555
C2_13 N1_13 1_555 1_555
H2_13 C2_13 1_555 1_555
C3_13 C2_13 1_555 1_555
H3_13 C3_13 1_555 1_555
C4_13 C3_13 1_555 1_555
H4_13 C4_13 1_555 1_555
C5_13 C1_13 1_555 1_555
C6_12 C5_13 1_555 1_555
C7_12 C6_12 1_555 1_555
C8_12 C7_12 1_555 1_555
C9_12 C8_12 1_555 1_555
H5_12 C9_12 1_555 1_555
C10_12 C9_12 1_555 1_555
C11_12 C10_12 1_555 1_555
H6_12 C11_12 1_555 1_555
C12_12 C11_12 1_555 1_555
C13_12 C8_12 1_555 1_555
H7_12 C13_12 1_555 1_555
C15_13 C12_12 1_555 1_555
Cu2_4 O3_5 1_555 1_555
Cu5_13 N1_13 1_555 1_555
C4_13 C5_13 1_555 1_555
C12_12 C13_12 1_555 1_555
Cu4_2 O1_14 1_555 1_555
O1_14 C14_14 1_555 1_555
O5_6 C14_14 1_555 1_555
N1_14 C1_14 1_555 1_555
C1_14 H1_14 1_555 1_555
C2_14 N1_14 1_555 1_555
H2_14 C2_14 1_555 1_555
C3_14 C2_14 1_555 1_555
H3_14 C3_14 1_555 1_555
C4_14 C3_14 1_555 1_555
H4_14 C4_14 1_555 1_555
C5_14 C1_14 1_555 1_555
C6_13 C5_14 1_555 1_555
C7_13 C6_13 1_555 1_555
C8_13 C7_13 1_555 1_555
C9_13 C8_13 1_555 1_555
H5_13 C9_13 1_555 1_555
C10_13 C9_13 1_555 1_555
C11_13 C10_13 1_555 1_555
H6_13 C11_13 1_555 1_555
C12_13 C11_13 1_555 1_555
C13_13 C8_13 1_555 1_555
H7_13 C13_13 1_555 1_555
C14_14 C10_13 1_555 1_555
Cu5_14 N1_14 1_555 1_555
O6_10 Cu4_2 1_555 1_555
N2_14 Cu4_2 1_555 1_555
C4_14 C5_14 1_555 1_555
C12_13 C13_13 1_555 1_555
O6_9 C15_14 1_555 1_555
O7_4 C15_14 1_555 1_555
O6_10 C15_15 1_555 1_555
O7_6 C15_15 1_555 1_555
N1_15 C1_15 1_555 1_555
C1_15 H1_15 1_555 1_555
C2_15 N1_15 1_555 1_555
H2_15 C2_15 1_555 1_555
C3_15 C2_15 1_555 1_555
H3_15 C3_15 1_555 1_555
C4_15 C3_15 1_555 1_555
H4_15 C4_15 1_555 1_555
C5_15 C1_15 1_555 1_555
C6_14 C5_15 1_555 1_555
C7_14 C6_14 1_555 1_555
C8_14 C7_14 1_555 1_555
C9_14 C8_14 1_555 1_555
H5_14 C9_14 1_555 1_555
C10_14 C9_14 1_555 1_555
C11_14 C10_14 1_555 1_555
H6_14 C11_14 1_555 1_555
C12_14 C11_14 1_555 1_555
C13_14 C8_14 1_555 1_555
H7_14 C13_14 1_555 1_555
Cu5_15 N1_15 1_555 1_555
C4_15 C5_15 1_555 1_555
C12_14 C13_14 1_555 1_555
Cu2_4 O1_15 1_555 1_555
O1_15 C14_15 1_555 1_555
O5_5 C14_15 1_555 1_555
N2_15 Cu2_4 1_555 1_555
Cu2_5 O1_16 1_555 1_555
O1_16 C14_16 1_555 1_555
O5_7 C14_16 1_555 1_555
O3_6 C15_16 1_555 1_555
O7_8 C15_16 1_555 1_555
N1_16 C1_16 1_555 1_555
C1_16 H1_16 1_555 1_555
C5_16 C1_16 1_555 1_555
C6_15 C5_16 1_555 1_555
C7_15 C6_15 1_555 1_555
C8_15 C7_15 1_555 1_555
C9_15 C8_15 1_555 1_555
H5_15 C9_15 1_555 1_555
C10_15 C9_15 1_555 1_555
C11_15 C10_15 1_555 1_555
H6_15 C11_15 1_555 1_555
C12_15 C11_15 1_555 1_555
C13_15 C8_15 1_555 1_555
H7_15 C13_15 1_555 1_555
C14_16 C10_15 1_555 1_555
C15_16 C12_15 1_555 1_555
Cu2_6 O3_6 1_555 1_555
Cu5_16 N1_16 1_555 1_555
O6_11 Cu2_5 1_555 1_555
N2_16 Cu2_5 1_555 1_555
C12_15 C13_15 1_555 1_555
H2_16 C2_16 1_555 1_555
C3_16 C2_16 1_555 1_555
H3_16 C3_16 1_555 1_555
C4_16 C3_16 1_555 1_555
H4_16 C4_16 1_555 1_555
Cu4_3 O1_17 1_555 1_555
O1_17 C14_17 1_555 1_555
O5_9 C14_17 1_555 1_555
O6_11 C15_17 1_555 1_555
O7_7 C15_17 1_555 1_555
N1_17 C1_17 1_555 1_555
C1_17 H1_17 1_555 1_555
C2_17 N1_17 1_555 1_555
H2_17 C2_17 1_555 1_555
C3_17 C2_17 1_555 1_555
H3_17 C3_17 1_555 1_555
C4_17 C3_17 1_555 1_555
H4_17 C4_17 1_555 1_555
C5_17 C1_17 1_555 1_555
C6_16 C5_17 1_555 1_555
C7_16 C6_16 1_555 1_555
C8_16 C7_16 1_555 1_555
C9_16 C8_16 1_555 1_555
H5_16 C9_16 1_555 1_555
C10_16 C9_16 1_555 1_555
C11_16 C10_16 1_555 1_555
H6_16 C11_16 1_555 1_555
C12_16 C11_16 1_555 1_555
C13_16 C8_16 1_555 1_555
H7_16 C13_16 1_555 1_555
C14_17 C10_16 1_555 1_555
C15_17 C12_16 1_555 1_555
Cu5_17 N1_17 1_555 1_555
O6_12 Cu4_3 1_555 1_555
N2_17 Cu4_3 1_555 1_555
C4_17 C5_17 1_555 1_555
C12_16 C13_16 1_555 1_555
H2_18 C2_18 1_555 1_555
C3_18 C2_18 1_555 1_555
H3_18 C3_18 1_555 1_555
C4_18 C3_18 1_555 1_555
H4_18 C4_18 1_555 1_555
Cu2_6 O1_18 1_555 1_555
O1_18 C14_18 1_555 1_555
O5_8 C14_18 1_555 1_555
O6_12 C15_18 1_555 1_555
O7_9 C15_18 1_555 1_555
N1_18 C1_18 1_555 1_555
C1_18 H1_18 1_555 1_555
C5_18 C1_18 1_555 1_555
C6_17 C5_18 1_555 1_555
C7_17 C6_17 1_555 1_555
C8_17 C7_17 1_555 1_555
C9_17 C8_17 1_555 1_555
H5_17 C9_17 1_555 1_555
C10_17 C9_17 1_555 1_555
C11_17 C10_17 1_555 1_555
H6_17 C11_17 1_555 1_555
C12_17 C11_17 1_555 1_555
C13_17 C8_17 1_555 1_555
H7_17 C13_17 1_555 1_555
C14_18 C10_17 1_555 1_555
C15_18 C12_17 1_555 1_555
Cu5_18 N1_18 1_555 1_555
N2_18 Cu2_6 1_555 1_555
C12_17 C13_17 1_555 1_555
N2_18 C1_19 1_555 1_555
C1_19 H1_19 1_555 1_555
C2_19 N2_18 1_555 1_555
H2_19 C2_19 1_555 1_555
C3_19 C2_19 1_555 1_555
H3_19 C3_19 1_555 1_555
C4_19 C3_19 1_555 1_555
H4_19 C4_19 1_555 1_555
C5_19 C1_19 1_555 1_555
C6_18 C5_19 1_555 1_555
C7_18 C6_18 1_555 1_555
C4_19 C5_19 1_555 1_555
Cu5_12 O1_19 1_555 1_555
O1_19 C14_19 1_555 1_555
O2_10 C14_19 1_555 1_555
O3_7 C15_19 1_555 1_555
O4_10 C15_19 1_555 1_555
C9_18 C8_18 1_555 1_555
H5_18 C9_18 1_555 1_555
C10_18 C9_18 1_555 1_555
C11_18 C10_18 1_555 1_555
H6_18 C11_18 1_555 1_555
C12_18 C11_18 1_555 1_555
C13_18 C8_18 1_555 1_555
H7_18 C13_18 1_555 1_555
C14_19 C10_18 1_555 1_555
C15_19 C12_18 1_555 1_555
Cu5_9 O2_10 1_555 1_555
Cu5_10 O3_7 1_555 1_555
Cu5_8 O4_10 1_555 1_555
O5_10 Cu5_12 1_555 1_555
O6_13 Cu5_12 1_555 1_555
O7_10 Cu5_12 1_555 1_555
C12_18 C13_18 1_555 1_555
Cu5_11 O1_20 1_555 1_555
O1_20 C14_20 1_555 1_555
O2_11 C14_20 1_555 1_555
O6_13 C15_20 1_555 1_555
O4_11 C15_20 1_555 1_555
C9_19 C8_19 1_555 1_555
H5_19 C9_19 1_555 1_555
C10_19 C9_19 1_555 1_555
C11_19 C10_19 1_555 1_555
H6_19 C11_19 1_555 1_555
C12_19 C11_19 1_555 1_555
C13_19 C8_19 1_555 1_555
H7_19 C13_19 1_555 1_555
C14_20 C10_19 1_555 1_555
C15_20 C12_19 1_555 1_555
Cu5_7 O2_11 1_555 1_555
Cu5_9 O4_11 1_555 1_555
O5_11 Cu5_11 1_555 1_555
O6_14 Cu5_11 1_555 1_555
O7_11 Cu5_11 1_555 1_555
C12_19 C13_19 1_555 1_555
N2_17 C1_20 1_555 1_555
C1_20 H1_20 1_555 1_555
C2_20 N2_17 1_555 1_555
H2_20 C2_20 1_555 1_555
C3_20 C2_20 1_555 1_555
H3_20 C3_20 1_555 1_555
C4_20 C3_20 1_555 1_555
H4_20 C4_20 1_555 1_555
C5_20 C1_20 1_555 1_555
C6_19 C5_20 1_555 1_555
C7_19 C6_19 1_555 1_555
C4_20 C5_20 1_555 1_555
Cu5_10 O1_21 1_555 1_555
O1_21 C14_21 1_555 1_555
O2_12 C14_21 1_555 1_555
O6_14 C15_21 1_555 1_555
O4_12 C15_21 1_555 1_555
N2_16 C1_21 1_555 1_555
C1_21 H1_21 1_555 1_555
C2_21 N2_16 1_555 1_555
H2_21 C2_21 1_555 1_555
C3_21 C2_21 1_555 1_555
H3_21 C3_21 1_555 1_555
C4_21 C3_21 1_555 1_555
H4_21 C4_21 1_555 1_555
C5_21 C1_21 1_555 1_555
C6_20 C5_21 1_555 1_555
C7_20 C6_20 1_555 1_555
C8_20 C7_20 1_555 1_555
C9_20 C8_20 1_555 1_555
H5_20 C9_20 1_555 1_555
C10_20 C9_20 1_555 1_555
C11_20 C10_20 1_555 1_555
H6_20 C11_20 1_555 1_555
C12_20 C11_20 1_555 1_555
C13_20 C8_20 1_555 1_555
H7_20 C13_20 1_555 1_555
C14_21 C10_20 1_555 1_555
C15_21 C12_20 1_555 1_555
Cu5_8 O2_12 1_555 1_555
Cu5_7 O4_12 1_555 1_555
O5_12 Cu5_10 1_555 1_555
O7_12 Cu5_10 1_555 1_555
C4_21 C5_21 1_555 1_555
C12_20 C13_20 1_555 1_555
N2_9 C1_22 1_555 1_555
C1_22 H1_22 1_555 1_555
C2_22 N2_9 1_555 1_555
H2_22 C2_22 1_555 1_555
C3_22 C2_22 1_555 1_555
H3_22 C3_22 1_555 1_555
C4_22 C3_22 1_555 1_555
H4_22 C4_22 1_555 1_555
C5_22 C1_22 1_555 1_555
C6_21 C5_22 1_555 1_555
C7_21 C6_21 1_555 1_555
C4_22 C5_22 1_555 1_555
Cu5_15 O1_22 1_555 1_555
O1_22 C14_22 1_555 1_555
O2_13 C14_22 1_555 1_555
O3_8 C15_22 1_555 1_555
O4_13 C15_22 1_555 1_555
C9_21 C8_21 1_555 1_555
H5_21 C9_21 1_555 1_555
C10_21 C9_21 1_555 1_555
C11_21 C10_21 1_555 1_555
H6_21 C11_21 1_555 1_555
C12_21 C11_21 1_555 1_555
C13_21 C8_21 1_555 1_555
H7_21 C13_21 1_555 1_555
C14_22 C10_21 1_555 1_555
C15_22 C12_21 1_555 1_555
Cu5_18 O2_13 1_555 1_555
Cu5_13 O3_8 1_555 1_555
Cu5_17 O4_13 1_555 1_555
O5_13 Cu5_15 1_555 1_555
O6_15 Cu5_15 1_555 1_555
O7_13 Cu5_15 1_555 1_555
C12_21 C13_21 1_555 1_555
Cu5_14 O1_23 1_555 1_555
O1_23 C14_23 1_555 1_555
O2_14 C14_23 1_555 1_555
O6_15 C15_23 1_555 1_555
O4_14 C15_23 1_555 1_555
C9_22 C8_22 1_555 1_555
H5_22 C9_22 1_555 1_555
C10_22 C9_22 1_555 1_555
C11_22 C10_22 1_555 1_555
H6_22 C11_22 1_555 1_555
C12_22 C11_22 1_555 1_555
C13_22 C8_22 1_555 1_555
H7_22 C13_22 1_555 1_555
C14_23 C10_22 1_555 1_555
C15_23 C12_22 1_555 1_555
Cu5_16 O2_14 1_555 1_555
Cu5_18 O4_14 1_555 1_555
O5_14 Cu5_14 1_555 1_555
O6_16 Cu5_14 1_555 1_555
O7_14 Cu5_14 1_555 1_555
C12_22 C13_22 1_555 1_555
N2_8 C1_23 1_555 1_555
C1_23 H1_23 1_555 1_555
C2_23 N2_8 1_555 1_555
H2_23 C2_23 1_555 1_555
C3_23 C2_23 1_555 1_555
H3_23 C3_23 1_555 1_555
C4_23 C3_23 1_555 1_555
H4_23 C4_23 1_555 1_555
C5_23 C1_23 1_555 1_555
C6_22 C5_23 1_555 1_555
C7_22 C6_22 1_555 1_555
C4_23 C5_23 1_555 1_555
Cu5_13 O1_24 1_555 1_555
O1_24 C14_24 1_555 1_555
O2_15 C14_24 1_555 1_555
O6_16 C15_24 1_555 1_555
O4_15 C15_24 1_555 1_555
N2_7 C1_24 1_555 1_555
C1_24 H1_24 1_555 1_555
C2_24 N2_7 1_555 1_555
H2_24 C2_24 1_555 1_555
C3_24 C2_24 1_555 1_555
H3_24 C3_24 1_555 1_555
C4_24 C3_24 1_555 1_555
H4_24 C4_24 1_555 1_555
C5_24 C1_24 1_555 1_555
C6_23 C5_24 1_555 1_555
C7_23 C6_23 1_555 1_555
C8_23 C7_23 1_555 1_555
C9_23 C8_23 1_555 1_555
H5_23 C9_23 1_555 1_555
C10_23 C9_23 1_555 1_555
C11_23 C10_23 1_555 1_555
H6_23 C11_23 1_555 1_555
C12_23 C11_23 1_555 1_555
C13_23 C8_23 1_555 1_555
H7_23 C13_23 1_555 1_555
C14_24 C10_23 1_555 1_555
C15_24 C12_23 1_555 1_555
Cu5_17 O2_15 1_555 1_555
Cu5_16 O4_15 1_555 1_555
O5_15 Cu5_13 1_555 1_555
O7_15 Cu5_13 1_555 1_555
C4_24 C5_24 1_555 1_555
C12_23 C13_23 1_555 1_555
H2_25 C2_25 1_555 1_555
C3_25 C2_25 1_555 1_555
H3_25 C3_25 1_555 1_555
C4_25 C3_25 1_555 1_555
H4_25 C4_25 1_555 1_555
Cu5_6 O1_25 1_555 1_555
O1_25 C14_25 1_555 1_555
O2_16 C14_25 1_555 1_555
O3_9 C15_25 1_555 1_555
O4_16 C15_25 1_555 1_555
N2_12 C1_25 1_555 1_555
C1_25 H1_25 1_555 1_555
C5_25 C1_25 1_555 1_555
C6_24 C5_25 1_555 1_555
C7_24 C6_24 1_555 1_555
C8_24 C7_24 1_555 1_555
C9_24 C8_24 1_555 1_555
H5_24 C9_24 1_555 1_555
C10_24 C9_24 1_555 1_555
C11_24 C10_24 1_555 1_555
H6_24 C11_24 1_555 1_555
C12_24 C11_24 1_555 1_555
C13_24 C8_24 1_555 1_555
H7_24 C13_24 1_555 1_555
C14_25 C10_24 1_555 1_555
C15_25 C12_24 1_555 1_555
Cu5_3 O2_16 1_555 1_555
Cu5_4 O3_9 1_555 1_555
O5_16 Cu5_6 1_555 1_555
O6_17 Cu5_6 1_555 1_555
O7_16 Cu5_6 1_555 1_555
C12_24 C13_24 1_555 1_555
Cu5_5 O1_26 1_555 1_555
O1_26 C14_26 1_555 1_555
O2_17 C14_26 1_555 1_555
O6_17 C15_26 1_555 1_555
O4_17 C15_26 1_555 1_555
N2_11 C1_26 1_555 1_555
C1_26 H1_26 1_555 1_555
C2_26 N2_11 1_555 1_555
H2_26 C2_26 1_555 1_555
C3_26 C2_26 1_555 1_555
H3_26 C3_26 1_555 1_555
C4_26 C3_26 1_555 1_555
H4_26 C4_26 1_555 1_555
C5_26 C1_26 1_555 1_555
C6_25 C5_26 1_555 1_555
C7_25 C6_25 1_555 1_555
C8_25 C7_25 1_555 1_555
C9_25 C8_25 1_555 1_555
H5_25 C9_25 1_555 1_555
C10_25 C9_25 1_555 1_555
C11_25 C10_25 1_555 1_555
H6_25 C11_25 1_555 1_555
C12_25 C11_25 1_555 1_555
C13_25 C8_25 1_555 1_555
H7_25 C13_25 1_555 1_555
C14_26 C10_25 1_555 1_555
C15_26 C12_25 1_555 1_555
Cu5_3 O4_17 1_555 1_555
O6_18 Cu5_5 1_555 1_555
C4_26 C5_26 1_555 1_555
C12_25 C13_25 1_555 1_555
Cu5_4 O1_27 1_555 1_555
O1_27 C14_27 1_555 1_555
O2_18 C14_27 1_555 1_555
O6_18 C15_27 1_555 1_555
O4_18 C15_27 1_555 1_555
N2_10 C1_27 1_555 1_555
C1_27 H1_27 1_555 1_555
C5_27 C1_27 1_555 1_555
C6_26 C5_27 1_555 1_555
C7_26 C6_26 1_555 1_555
C8_26 C7_26 1_555 1_555
C9_26 C8_26 1_555 1_555
H5_26 C9_26 1_555 1_555
C10_26 C9_26 1_555 1_555
C11_26 C10_26 1_555 1_555
H6_26 C11_26 1_555 1_555
C12_26 C11_26 1_555 1_555
C13_26 C8_26 1_555 1_555
H7_26 C13_26 1_555 1_555
C14_27 C10_26 1_555 1_555
C15_27 C12_26 1_555 1_555
C12_26 C13_26 1_555 1_555
H2_27 C2_27 1_555 1_555
C3_27 C2_27 1_555 1_555
H3_27 C3_27 1_555 1_555
C4_27 C3_27 1_555 1_555
H4_27 C4_27 1_555 1_555
O3_10 C15_28 1_555 1_555
O7_11 C15_28 1_555 1_555
C7_27 C6_27 1_555 1_555
C8_27 C7_27 1_555 1_555
C9_27 C8_27 1_555 1_555
H5_27 C9_27 1_555 1_555
C10_27 C9_27 1_555 1_555
C11_27 C10_27 1_555 1_555
H6_27 C11_27 1_555 1_555
C12_27 C11_27 1_555 1_555
C13_27 C8_27 1_555 1_555
H7_27 C13_27 1_555 1_555
C15_28 C12_27 1_555 1_555
Cu5_7 O3_10 1_555 1_555
C12_27 C13_27 1_555 1_555
N2_3 C1_28 1_555 1_555
C1_28 H1_28 1_555 1_555
C2_28 N2_3 1_555 1_555
H2_28 C2_28 1_555 1_555
C3_28 C2_28 1_555 1_555
H3_28 C3_28 1_555 1_555
C4_28 C3_28 1_555 1_555
H4_28 C4_28 1_555 1_555
C5_28 C1_28 1_555 1_555
C4_28 C5_28 1_555 1_555
Cu5_9 O1_28 1_555 1_555
O1_28 C14_28 1_555 1_555
O5_10 C14_28 1_555 1_555
O6_19 Cu5_9 1_555 1_555
O6_19 C15_29 1_555 1_555
O7_10 C15_29 1_555 1_555
Cu5_8 O1_29 1_555 1_555
O1_29 C14_29 1_555 1_555
O5_12 C14_29 1_555 1_555
C7_28 C6_28 1_555 1_555
C8_28 C7_28 1_555 1_555
C9_28 C8_28 1_555 1_555
H5_28 C9_28 1_555 1_555
C10_28 C9_28 1_555 1_555
C11_28 C10_28 1_555 1_555
H6_28 C11_28 1_555 1_555
C12_28 C11_28 1_555 1_555
C13_28 C8_28 1_555 1_555
H7_28 C13_28 1_555 1_555
C14_29 C10_28 1_555 1_555
O6_20 Cu5_8 1_555 1_555
C12_28 C13_28 1_555 1_555
N2_2 C1_29 1_555 1_555
C1_29 H1_29 1_555 1_555
C2_29 N2_2 1_555 1_555
H2_29 C2_29 1_555 1_555
C3_29 C2_29 1_555 1_555
H3_29 C3_29 1_555 1_555
C4_29 C3_29 1_555 1_555
H4_29 C4_29 1_555 1_555
C5_29 C1_29 1_555 1_555
C4_29 C5_29 1_555 1_555
Cu5_7 O1_30 1_555 1_555
O1_30 C14_30 1_555 1_555
O5_11 C14_30 1_555 1_555
N2 C1_30 1_555 1_555
C1_30 H1_30 1_555 1_555
C2_30 N2 1_555 1_555
H2_30 C2_30 1_555 1_555
C3_30 C2_30 1_555 1_555
H3_30 C3_30 1_555 1_555
C4_30 C3_30 1_555 1_555
H4_30 C4_30 1_555 1_555
C5_30 C1_30 1_555 1_555
C4_30 C5_30 1_555 1_555
O6_20 C15_30 1_555 1_555
O7_12 C15_30 1_555 1_555
O3_11 C15_31 1_555 1_555
O7_14 C15_31 1_555 1_555
N2_6 C1_31 1_555 1_555
C1_31 H1_31 1_555 1_555
C2_31 N2_6 1_555 1_555
H2_31 C2_31 1_555 1_555
C3_31 C2_31 1_555 1_555
H3_31 C3_31 1_555 1_555
C4_31 C3_31 1_555 1_555
H4_31 C4_31 1_555 1_555
C5_31 C1_31 1_555 1_555
C6_29 C5_31 1_555 1_555
C7_29 C6_29 1_555 1_555
C8_29 C7_29 1_555 1_555
C9_29 C8_29 1_555 1_555
H5_29 C9_29 1_555 1_555
C10_29 C9_29 1_555 1_555
C11_29 C10_29 1_555 1_555
H6_29 C11_29 1_555 1_555
C12_29 C11_29 1_555 1_555
C13_29 C8_29 1_555 1_555
H7_29 C13_29 1_555 1_555
C15_31 C12_29 1_555 1_555
Cu5_16 O3_11 1_555 1_555
C4_31 C5_31 1_555 1_555
C12_29 C13_29 1_555 1_555
Cu5_18 O1_31 1_555 1_555
O1_31 C14_31 1_555 1_555
O5_13 C14_31 1_555 1_555
O6_21 Cu5_18 1_555 1_555
O6_21 C15_32 1_555 1_555
O7_13 C15_32 1_555 1_555
Cu5_17 O1_32 1_555 1_555
O1_32 C14_32 1_555 1_555
O5_15 C14_32 1_555 1_555
N2_5 C1_32 1_555 1_555
C1_32 H1_32 1_555 1_555
C2_32 N2_5 1_555 1_555
H2_32 C2_32 1_555 1_555
C3_32 C2_32 1_555 1_555
H3_32 C3_32 1_555 1_555
C4_32 C3_32 1_555 1_555
H4_32 C4_32 1_555 1_555
C5_32 C1_32 1_555 1_555
C6_30 C5_32 1_555 1_555
C7_30 C6_30 1_555 1_555
C8_30 C7_30 1_555 1_555
C9_30 C8_30 1_555 1_555
H5_30 C9_30 1_555 1_555
C10_30 C9_30 1_555 1_555
C11_30 C10_30 1_555 1_555
H6_30 C11_30 1_555 1_555
C12_30 C11_30 1_555 1_555
C13_30 C8_30 1_555 1_555
H7_30 C13_30 1_555 1_555
C14_32 C10_30 1_555 1_555
O6_22 Cu5_17 1_555 1_555
C4_32 C5_32 1_555 1_555
C12_30 C13_30 1_555 1_555
Cu5_16 O1_33 1_555 1_555
O1_33 C14_33 1_555 1_555
O5_14 C14_33 1_555 1_555
N2_4 C1_33 1_555 1_555
C1_33 H1_33 1_555 1_555
C2_33 N2_4 1_555 1_555
H2_33 C2_33 1_555 1_555
C3_33 C2_33 1_555 1_555
H3_33 C3_33 1_555 1_555
C4_33 C3_33 1_555 1_555
H4_33 C4_33 1_555 1_555
C5_33 C1_33 1_555 1_555
C6_31 C5_33 1_555 1_555
C7_31 C6_31 1_555 1_555
C8_31 C7_31 1_555 1_555
C9_31 C8_31 1_555 1_555
H5_31 C9_31 1_555 1_555
C10_31 C9_31 1_555 1_555
C11_31 C10_31 1_555 1_555
H6_31 C11_31 1_555 1_555
C12_31 C11_31 1_555 1_555
C13_31 C8_31 1_555 1_555
H7_31 C13_31 1_555 1_555
C4_33 C5_33 1_555 1_555
C12_31 C13_31 1_555 1_555
O6_22 C15_33 1_555 1_555
O7_15 C15_33 1_555 1_555
H2_34 C2_34 1_555 1_555
C3_34 C2_34 1_555 1_555
H3_34 C3_34 1_555 1_555
C4_34 C3_34 1_555 1_555
H4_34 C4_34 1_555 1_555
Cu5_3 O1_34 1_555 1_555
O1_34 C14_34 1_555 1_555
O5_16 C14_34 1_555 1_555
O3_12 C15_34 1_555 1_555
O7_17 C15_34 1_555 1_555
N2_15 C1_34 1_555 1_555
C1_34 H1_34 1_555 1_555
C5_34 C1_34 1_555 1_555
C6_32 C5_34 1_555 1_555
C7_32 C6_32 1_555 1_555
C8_32 C7_32 1_555 1_555
C9_32 C8_32 1_555 1_555
H5_32 C9_32 1_555 1_555
C10_32 C9_32 1_555 1_555
C11_32 C10_32 1_555 1_555
H6_32 C11_32 1_555 1_555
C12_32 C11_32 1_555 1_555
C13_32 C8_32 1_555 1_555
H7_32 C13_32 1_555 1_555
C14_34 C10_32 1_555 1_555
C15_34 C12_32 1_555 1_555
Cu5 O3_12 1_555 1_555
O6_23 Cu5_3 1_555 1_555
C12_32 C13_32 1_555 1_555
Cu5_2 O1_35 1_555 1_555
O1_35 C14_35 1_555 1_555
O5_18 C14_35 1_555 1_555
O6_23 C15_35 1_555 1_555
O7_16 C15_35 1_555 1_555
N2_14 C1_35 1_555 1_555
C1_35 H1_35 1_555 1_555
C2_35 N2_14 1_555 1_555
H2_35 C2_35 1_555 1_555
C3_35 C2_35 1_555 1_555
H3_35 C3_35 1_555 1_555
C4_35 C3_35 1_555 1_555
H4_35 C4_35 1_555 1_555
C5_35 C1_35 1_555 1_555
C6_33 C5_35 1_555 1_555
C7_33 C6_33 1_555 1_555
C8_33 C7_33 1_555 1_555
C9_33 C8_33 1_555 1_555
H5_33 C9_33 1_555 1_555
C10_33 C9_33 1_555 1_555
C11_33 C10_33 1_555 1_555
H6_33 C11_33 1_555 1_555
C12_33 C11_33 1_555 1_555
C13_33 C8_33 1_555 1_555
H7_33 C13_33 1_555 1_555
C14_35 C10_33 1_555 1_555
C15_35 C12_33 1_555 1_555
O6_24 Cu5_2 1_555 1_555
C4_35 C5_35 1_555 1_555
C12_33 C13_33 1_555 1_555
Cu5 O1_36 1_555 1_555
O1_36 C14_36 1_555 1_555
O5_17 C14_36 1_555 1_555
O6_24 C15_36 1_555 1_555
O7_18 C15_36 1_555 1_555
N2_13 C1_36 1_555 1_555
C1_36 H1_36 1_555 1_555
C5_36 C1_36 1_555 1_555
C6_34 C5_36 1_555 1_555
C7_34 C6_34 1_555 1_555
C8_34 C7_34 1_555 1_555
C9_34 C8_34 1_555 1_555
H5_34 C9_34 1_555 1_555
C10_34 C9_34 1_555 1_555
C11_34 C10_34 1_555 1_555
H6_34 C11_34 1_555 1_555
C12_34 C11_34 1_555 1_555
C13_34 C8_34 1_555 1_555
H7_34 C13_34 1_555 1_555
C14_36 C10_34 1_555 1_555
C15_36 C12_34 1_555 1_555
C12_34 C13_34 1_555 1_555
H2_36 C2_36 1_555 1_555
C3_36 C2_36 1_555 1_555
H3_36 C3_36 1_555 1_555
C4_36 C3_36 1_555 1_555
H4_36 C4_36 1_555 1_555
C7_35 C6_35 1_555 1_555
C8_35 C7_35 1_555 1_555
C9_35 C8_35 1_555 1_555
H5_35 C9_35 1_555 1_555
C10_35 C9_35 1_555 1_555
C11_35 C10_35 1_555 1_555
H6_35 C11_35 1_555 1_555
C12_35 C11_35 1_555 1_555
C13_35 C8_35 1_555 1_555
H7_35 C13_35 1_555 1_555
C12_35 C13_35 1_555 1_555
C7_36 C6_36 1_555 1_555
C8_36 C7_36 1_555 1_555
C9_36 C8_36 1_555 1_555
H5_36 C9_36 1_555 1_555
C10_36 C9_36 1_555 1_555
C11_36 C10_36 1_555 1_555
H6_36 C11_36 1_555 1_555
C12_36 C11_36 1_555 1_555
C13_36 C8_36 1_555 1_555
H7_36 C13_36 1_555 1_555
C12_36 C13_36 1_555 1_555

#END
