
###############################################################################
#
# This file contains modified crystal structure data generated from the
# MOF subset of the Cambridge Structural Database (CSD) v543 
# hosted by the Cambridge Crystallographic Data Centre (CCDC).
#
# This work is licensed under the Creative Commons
# Attribution-NonCommercial-ShareAlike 4.0 International License.
# To view a copy of this license, visit
# http://creativecommons.org/licenses/by-nc-sa/4.0/
# or send a letter to
# Creative Commons, PO Box 1866, Mountain View, CA 94042, USA.
#
# CIF created using the CSD Python API on 29 September 2022
# The structure has been converted into the P1 space group
# The structure has a 3D framework
# The original CSD entry EZOFEF is in the cubic crystal system
# The framework has been calculated to contain at least 10.0% void space
# The void calculation uses a probe of radius 1.32A, grid spacing 0.4
#
###############################################################################

data_EZOFEF
_chemical_formula_moiety         '(C384 H744 N72 Ni72 O192)n'
_symmetry_cell_setting           triclinic
_symmetry_space_group_name_H-M   'P 1'
_symmetry_Int_Tables_number      1
_space_group_name_Hall           'P 1'
loop_
_symmetry_equiv_pos_site_id
_symmetry_equiv_pos_as_xyz
1 x,y,z
_cell_length_a                   26.5941(7)
_cell_length_b                   26.5941(7)
_cell_length_c                   26.5941(7)
_cell_angle_alpha                90
_cell_angle_beta                 90
_cell_angle_gamma                90
_cell_volume                     18808.6
loop_
_atom_site_label
_atom_site_type_symbol
_atom_site_fract_x
_atom_site_fract_y
_atom_site_fract_z
Ni1 Ni 0.28607(2) 0.5000 0.28607(2)
O1 O 0.24227(12) 0.44675(11) 0.31697(12)
N1 N 0.3385(2) 0.5000 0.3385(2)
H1 H 0.3620 0.5000 0.3620
C1 C 0.20208(16) 0.4306(2) 0.29792(16)
C2 C 0.17777(16) 0.3864(2) 0.32223(16)
C3 C 0.1985(2) 0.36498(17) 0.36498(17)
H2 H 0.2268 0.3795 0.3795
C4 C 0.3550(6) 0.547(2) 0.3550(6)
H3 H 0.3801 0.5430 0.3806
H4 H 0.3270 0.5657 0.3685
H5 H 0.3691 0.5654 0.3272
Ni2 Ni 0.21393(2) 0.5000 0.21393(2)
Ni3 Ni 0.21393(2) 0.21393(2) 0.5000
Ni4 Ni 0.28607(2) 0.28607(2) 0.5000
Ni5 Ni -0.0000 0.28607(2) 0.21393(2)
Ni6 Ni -0.0000 0.21393(2) 0.28607(2)
Ni7 Ni 0.5000 0.78607(2) 0.21393(2)
Ni8 Ni 0.5000 0.71393(2) 0.28607(2)
Ni9 Ni 0.21393(2) 0.71393(2) 0.0000
Ni10 Ni 0.28607(2) 0.78607(2) 0.0000
Ni11 Ni 0.21393(2) 0.78607(2) 0.5000
Ni12 Ni 0.28607(2) 0.71393(2) 0.5000
Ni13 Ni -0.0000 0.71393(2) 0.21393(2)
Ni14 Ni -0.0000 0.78607(2) 0.28607(2)
Ni15 Ni 0.5000 0.21393(2) 0.21393(2)
Ni16 Ni 0.5000 0.28607(2) 0.28607(2)
Ni17 Ni 0.21393(2) 0.28607(2) 0.0000
Ni18 Ni 0.28607(2) 0.21393(2) 0.0000
O2 O 0.18303(12) 0.44675(11) 0.25773(12)
O3 O 0.18303(12) 0.25773(12) 0.44675(11)
O4 O 0.24227(12) 0.31697(12) 0.44675(11)
O5 O 0.05325(11) 0.31697(12) 0.25773(12)
O6 O 0.05325(11) 0.25773(12) 0.31697(12)
O7 O 0.31697(12) 0.55325(11) 0.24227(12)
O8 O 0.25773(12) 0.55325(11) 0.18303(12)
O9 O 0.44675(11) 0.74227(12) 0.18303(12)
O10 O 0.44675(11) 0.68303(12) 0.24227(12)
O11 O 0.25773(12) 0.68303(12) 0.05325(11)
O12 O 0.31697(12) 0.74227(12) 0.05325(11)
O13 O 0.24227(12) 0.55325(11) 0.31697(12)
O14 O 0.18303(12) 0.55325(11) 0.25773(12)
O15 O 0.18303(12) 0.74227(12) 0.44675(11)
O16 O 0.24227(12) 0.68303(12) 0.44675(11)
O17 O 0.05325(11) 0.68303(12) 0.25773(12)
O18 O 0.05325(11) 0.74227(12) 0.31697(12)
O19 O 0.31697(12) 0.44675(11) 0.24227(12)
O20 O 0.25773(12) 0.44675(11) 0.18303(12)
O21 O 0.44675(11) 0.25773(12) 0.18303(12)
O22 O 0.44675(11) 0.31697(12) 0.24227(12)
O23 O 0.25773(12) 0.31697(12) 0.05325(11)
O24 O 0.31697(12) 0.25773(12) 0.05325(11)
O25 O 0.25773(12) 0.18303(12) 0.55325(11)
O26 O 0.18303(12) 0.25773(12) 0.55325(11)
O27 O 0.25773(12) 0.18303(12) 0.44675(11)
O28 O 0.31697(12) 0.24227(12) 0.55325(11)
O29 O 0.24227(12) 0.31697(12) 0.55325(11)
O30 O 0.31697(12) 0.24227(12) 0.44675(11)
O33 O 0.05325(11) 0.24227(12) 0.18303(12)
O36 O 0.05325(11) 0.18303(12) 0.24227(12)
N2 N 0.1615(2) 0.5000 0.1615(2)
N3 N 0.1615(2) 0.1615(2) 0.5000
N4 N 0.3385(2) 0.3385(2) 0.5000
N5 N -0.0000 0.3385(2) 0.1615(2)
N6 N -0.0000 0.1615(2) 0.3385(2)
H6 H 0.1380 0.5000 0.1380
H7 H 0.1380 0.1380 0.5000
H8 H 0.3620 0.3620 0.5000
H9 H -0.0000 0.3620 0.1380
H10 H -0.0000 0.1380 0.3620
C5 C 0.20208(16) 0.29792(16) 0.4306(2)
C6 C 0.0694(2) 0.29792(16) 0.29792(16)
C7 C 0.29792(16) 0.5694(2) 0.20208(16)
C8 C 0.4306(2) 0.70208(16) 0.20208(16)
C9 C 0.29792(16) 0.70208(16) 0.0694(2)
C10 C 0.20208(16) 0.5694(2) 0.29792(16)
C11 C 0.20208(16) 0.70208(16) 0.4306(2)
C12 C 0.0694(2) 0.70208(16) 0.29792(16)
C13 C 0.29792(16) 0.4306(2) 0.20208(16)
C14 C 0.4306(2) 0.29792(16) 0.20208(16)
C15 C 0.29792(16) 0.29792(16) 0.0694(2)
C16 C 0.17777(16) 0.32223(16) 0.3864(2)
C17 C 0.1136(2) 0.32223(16) 0.32223(16)
C18 C 0.32223(16) 0.6136(2) 0.17777(16)
C19 C 0.3864(2) 0.67777(16) 0.17777(16)
C20 C 0.32223(16) 0.67777(16) 0.1136(2)
C21 C 0.17777(16) 0.6136(2) 0.32223(16)
C22 C 0.17777(16) 0.67777(16) 0.3864(2)
C23 C 0.1136(2) 0.67777(16) 0.32223(16)
C24 C 0.32223(16) 0.3864(2) 0.17777(16)
C25 C 0.3864(2) 0.32223(16) 0.17777(16)
C26 C 0.32223(16) 0.32223(16) 0.1136(2)
C27 C 0.13502(17) 0.3015(2) 0.36498(17)
C28 C 0.13502(17) 0.36498(17) 0.3015(2)
C29 C 0.36498(17) 0.63502(17) 0.1985(2)
C30 C 0.36498(17) 0.6985(2) 0.13502(17)
C31 C 0.3015(2) 0.63502(17) 0.13502(17)
C32 C 0.1985(2) 0.63502(17) 0.36498(17)
C33 C 0.13502(17) 0.6985(2) 0.36498(17)
C34 C 0.13502(17) 0.63502(17) 0.3015(2)
C35 C 0.36498(17) 0.36498(17) 0.1985(2)
C36 C 0.36498(17) 0.3015(2) 0.13502(17)
C37 C 0.3015(2) 0.36498(17) 0.13502(17)
H11 H 0.1205 0.3795 0.2732
H12 H 0.1205 0.2732 0.3795
H13 H 0.3795 0.6205 0.2268
H14 H 0.2732 0.6205 0.1205
H15 H 0.3795 0.7268 0.1205
H16 H 0.2268 0.6205 0.3795
H17 H 0.1205 0.6205 0.2732
H18 H 0.1205 0.7268 0.3795
H19 H 0.3795 0.3795 0.2268
H20 H 0.2732 0.3795 0.1205
H21 H 0.3795 0.2732 0.1205
C38 C 0.3550(6) 0.453(2) 0.3550(6)
C39 C 0.1450(6) 0.547(2) 0.1450(6)
C40 C 0.1450(6) 0.453(2) 0.1450(6)
C41 C 0.1450(6) 0.1450(6) 0.547(2)
C42 C 0.1450(6) 0.1450(6) 0.453(2)
C43 C 0.3550(6) 0.3550(6) 0.547(2)
C44 C 0.3550(6) 0.3550(6) 0.453(2)
C46 C 0.047(2) 0.3550(6) 0.1450(6)
C48 C 0.047(2) 0.1450(6) 0.3550(6)
H22 H 0.3806 0.4570 0.3801
H23 H 0.1194 0.5430 0.1199
H24 H 0.1199 0.4570 0.1194
H25 H 0.1194 0.1199 0.5430
H26 H 0.1199 0.1194 0.4570
H27 H 0.3801 0.3806 0.5430
H28 H 0.3806 0.3801 0.4570
H30 H 0.0430 0.3801 0.1194
H32 H 0.0430 0.1194 0.3801
H33 H 0.3685 0.4343 0.3270
H34 H 0.1315 0.5657 0.1730
H35 H 0.1730 0.4343 0.1315
H36 H 0.1315 0.1730 0.5657
H37 H 0.1730 0.1315 0.4343
H38 H 0.3270 0.3685 0.5657
H39 H 0.3685 0.3270 0.4343
H41 H 0.0657 0.3270 0.1315
H43 H 0.0657 0.1315 0.3270
H44 H 0.3272 0.4346 0.3691
H45 H 0.1728 0.5654 0.1309
H46 H 0.1309 0.4346 0.1728
H47 H 0.1728 0.1309 0.5654
H48 H 0.1309 0.1728 0.4346
H49 H 0.3691 0.3272 0.5654
H50 H 0.3272 0.3691 0.4346
H52 H 0.0654 0.3691 0.1728
H54 H 0.0654 0.1728 0.3691
Ni9_2 Ni 0.21393(2) 0.71393(2) 1.0000
Ni10_2 Ni 0.28607(2) 0.78607(2) 1.0000
Ni17_2 Ni 0.21393(2) 0.28607(2) 1.0000
Ni18_2 Ni 0.28607(2) 0.21393(2) 1.0000
Ni5_2 Ni 1.0000 0.28607(2) 0.21393(2)
Ni6_2 Ni 1.0000 0.21393(2) 0.28607(2)
Ni13_2 Ni 1.0000 0.71393(2) 0.21393(2)
Ni14_2 Ni 1.0000 0.78607(2) 0.28607(2)
O31 O 0.94675(11) 0.24227(12) 0.18303(12)
O32 O 0.94675(11) 0.31697(12) 0.25773(12)
O34 O 0.94675(11) 0.18303(12) 0.24227(12)
O35 O 0.94675(11) 0.25773(12) 0.31697(12)
N5_2 N 1.0000 0.3385(2) 0.1615(2)
N6_2 N 1.0000 0.1615(2) 0.3385(2)
H9_2 H 1.0000 0.3620 0.1380
H10_2 H 1.0000 0.1380 0.3620
C45 C 0.953(2) 0.3550(6) 0.1450(6)
C47 C 0.953(2) 0.1450(6) 0.3550(6)
H29 H 0.9570 0.3806 0.1199
H31 H 0.9570 0.1199 0.3806
H40 H 0.9343 0.3685 0.1730
H42 H 0.9343 0.1730 0.3685
H51 H 0.9346 0.3272 0.1309
H53 H 0.9346 0.1309 0.3272
Ni1_2 Ni 0.28607(2) 0.5000 0.71393(2)
O1_2 O 0.24227(12) 0.55325(11) 0.68303(12)
N1_2 N 0.3385(2) 0.5000 0.6615(2)
H1_2 H 0.3620 0.5000 0.6380
C1_2 C 0.20208(16) 0.5694(2) 0.70208(16)
C2_2 C 0.17777(16) 0.6136(2) 0.67777(16)
C3_2 C 0.1985(2) 0.63502(17) 0.63502(17)
H2_2 H 0.2268 0.6205 0.6205
C4_2 C 0.3550(6) 0.453(2) 0.6450(6)
H3_2 H 0.3801 0.4570 0.6194
H4_2 H 0.3270 0.4343 0.6315
H5_2 H 0.3691 0.4346 0.6728
Ni2_2 Ni 0.21393(2) 0.5000 0.78607(2)
Ni5_3 Ni -0.0000 0.71393(2) 0.78607(2)
Ni6_3 Ni -0.0000 0.78607(2) 0.71393(2)
Ni7_2 Ni 0.5000 0.21393(2) 0.78607(2)
Ni8_2 Ni 0.5000 0.28607(2) 0.71393(2)
Ni13_3 Ni -0.0000 0.28607(2) 0.78607(2)
Ni14_3 Ni -0.0000 0.21393(2) 0.71393(2)
Ni15_2 Ni 0.5000 0.78607(2) 0.78607(2)
Ni16_2 Ni 0.5000 0.71393(2) 0.71393(2)
O2_2 O 0.18303(12) 0.55325(11) 0.74227(12)
O3_2 O 0.18303(12) 0.74227(12) 0.55325(11)
O4_2 O 0.24227(12) 0.68303(12) 0.55325(11)
O5_2 O 0.05325(11) 0.68303(12) 0.74227(12)
O6_2 O 0.05325(11) 0.74227(12) 0.68303(12)
O7_2 O 0.31697(12) 0.44675(11) 0.75773(12)
O8_2 O 0.25773(12) 0.44675(11) 0.81697(12)
O9_2 O 0.44675(11) 0.25773(12) 0.81697(12)
O10_2 O 0.44675(11) 0.31697(12) 0.75773(12)
O11_2 O 0.25773(12) 0.31697(12) 0.94675(11)
O12_2 O 0.31697(12) 0.25773(12) 0.94675(11)
O13_2 O 0.24227(12) 0.44675(11) 0.68303(12)
O14_2 O 0.18303(12) 0.44675(11) 0.74227(12)
O17_2 O 0.05325(11) 0.31697(12) 0.74227(12)
O18_2 O 0.05325(11) 0.25773(12) 0.68303(12)
O19_2 O 0.31697(12) 0.55325(11) 0.75773(12)
O20_2 O 0.25773(12) 0.55325(11) 0.81697(12)
O21_2 O 0.44675(11) 0.74227(12) 0.81697(12)
O22_2 O 0.44675(11) 0.68303(12) 0.75773(12)
O23_2 O 0.25773(12) 0.68303(12) 0.94675(11)
O24_2 O 0.31697(12) 0.74227(12) 0.94675(11)
O25_2 O 0.25773(12) 0.81697(12) 0.44675(11)
O27_2 O 0.25773(12) 0.81697(12) 0.55325(11)
O28_2 O 0.31697(12) 0.75773(12) 0.44675(11)
O30_2 O 0.31697(12) 0.75773(12) 0.55325(11)
O33_2 O 0.05325(11) 0.75773(12) 0.81697(12)
O36_2 O 0.05325(11) 0.81697(12) 0.75773(12)
N2_2 N 0.1615(2) 0.5000 0.8385(2)
N3_2 N 0.1615(2) 0.8385(2) 0.5000
N4_2 N 0.3385(2) 0.6615(2) 0.5000
N5_3 N -0.0000 0.6615(2) 0.8385(2)
N6_3 N -0.0000 0.8385(2) 0.6615(2)
H6_2 H 0.1380 0.5000 0.8620
H7_2 H 0.1380 0.8620 0.5000
H8_2 H 0.3620 0.6380 0.5000
H9_3 H -0.0000 0.6380 0.8620
H10_3 H -0.0000 0.8620 0.6380
C5_2 C 0.20208(16) 0.70208(16) 0.5694(2)
C6_2 C 0.0694(2) 0.70208(16) 0.70208(16)
C7_2 C 0.29792(16) 0.4306(2) 0.79792(16)
C8_2 C 0.4306(2) 0.29792(16) 0.79792(16)
C9_2 C 0.29792(16) 0.29792(16) 0.9306(2)
C10_2 C 0.20208(16) 0.4306(2) 0.70208(16)
C11_2 C 0.20208(16) 0.29792(16) 0.5694(2)
C12_2 C 0.0694(2) 0.29792(16) 0.70208(16)
C13_2 C 0.29792(16) 0.5694(2) 0.79792(16)
C14_2 C 0.4306(2) 0.70208(16) 0.79792(16)
C15_2 C 0.29792(16) 0.70208(16) 0.9306(2)
C16_2 C 0.17777(16) 0.67777(16) 0.6136(2)
C17_2 C 0.1136(2) 0.67777(16) 0.67777(16)
C18_2 C 0.32223(16) 0.3864(2) 0.82223(16)
C19_2 C 0.3864(2) 0.32223(16) 0.82223(16)
C20_2 C 0.32223(16) 0.32223(16) 0.8864(2)
C21_2 C 0.17777(16) 0.3864(2) 0.67777(16)
C22_2 C 0.17777(16) 0.32223(16) 0.6136(2)
C23_2 C 0.1136(2) 0.32223(16) 0.67777(16)
C24_2 C 0.32223(16) 0.6136(2) 0.82223(16)
C25_2 C 0.3864(2) 0.67777(16) 0.82223(16)
C26_2 C 0.32223(16) 0.67777(16) 0.8864(2)
C27_2 C 0.13502(17) 0.6985(2) 0.63502(17)
C28_2 C 0.13502(17) 0.63502(17) 0.6985(2)
C29_2 C 0.36498(17) 0.36498(17) 0.8015(2)
C30_2 C 0.36498(17) 0.3015(2) 0.86498(17)
C31_2 C 0.3015(2) 0.36498(17) 0.86498(17)
C32_2 C 0.1985(2) 0.36498(17) 0.63502(17)
C33_2 C 0.13502(17) 0.3015(2) 0.63502(17)
C34_2 C 0.13502(17) 0.36498(17) 0.6985(2)
C35_2 C 0.36498(17) 0.63502(17) 0.8015(2)
C36_2 C 0.36498(17) 0.6985(2) 0.86498(17)
C37_2 C 0.3015(2) 0.63502(17) 0.86498(17)
H11_2 H 0.1205 0.6205 0.7268
H12_2 H 0.1205 0.7268 0.6205
H13_2 H 0.3795 0.3795 0.7732
H14_2 H 0.2732 0.3795 0.8795
H15_2 H 0.3795 0.2732 0.8795
H16_2 H 0.2268 0.3795 0.6205
H17_2 H 0.1205 0.3795 0.7268
H18_2 H 0.1205 0.2732 0.6205
H19_2 H 0.3795 0.6205 0.7732
H20_2 H 0.2732 0.6205 0.8795
H21_2 H 0.3795 0.7268 0.8795
C38_2 C 0.3550(6) 0.547(2) 0.6450(6)
C39_2 C 0.1450(6) 0.453(2) 0.8550(6)
C40_2 C 0.1450(6) 0.547(2) 0.8550(6)
C41_2 C 0.1450(6) 0.8550(6) 0.453(2)
C42_2 C 0.1450(6) 0.8550(6) 0.547(2)
C43_2 C 0.3550(6) 0.6450(6) 0.453(2)
C44_2 C 0.3550(6) 0.6450(6) 0.547(2)
C46_2 C 0.047(2) 0.6450(6) 0.8550(6)
C48_2 C 0.047(2) 0.8550(6) 0.6450(6)
H22_2 H 0.3806 0.5430 0.6199
H23_2 H 0.1194 0.4570 0.8801
H24_2 H 0.1199 0.5430 0.8806
H25_2 H 0.1194 0.8801 0.4570
H26_2 H 0.1199 0.8806 0.5430
H27_2 H 0.3801 0.6194 0.4570
H28_2 H 0.3806 0.6199 0.5430
H30_2 H 0.0430 0.6199 0.8806
H32_2 H 0.0430 0.8806 0.6199
H33_2 H 0.3685 0.5657 0.6730
H34_2 H 0.1315 0.4343 0.8270
H35_2 H 0.1730 0.5657 0.8685
H36_2 H 0.1315 0.8270 0.4343
H37_2 H 0.1730 0.8685 0.5657
H38_2 H 0.3270 0.6315 0.4343
H39_2 H 0.3685 0.6730 0.5657
H41_2 H 0.0657 0.6730 0.8685
H43_2 H 0.0657 0.8685 0.6730
H44_2 H 0.3272 0.5654 0.6309
H45_2 H 0.1728 0.4346 0.8691
H46_2 H 0.1309 0.5654 0.8272
H47_2 H 0.1728 0.8691 0.4346
H48_2 H 0.1309 0.8272 0.5654
H49_2 H 0.3691 0.6728 0.4346
H50_2 H 0.3272 0.6309 0.5654
H52_2 H 0.0654 0.6309 0.8272
H54_2 H 0.0654 0.8272 0.6309
Ni5_4 Ni 1.0000 0.71393(2) 0.78607(2)
Ni6_4 Ni 1.0000 0.78607(2) 0.71393(2)
Ni13_4 Ni 1.0000 0.28607(2) 0.78607(2)
Ni14_4 Ni 1.0000 0.21393(2) 0.71393(2)
O31_2 O 0.94675(11) 0.75773(12) 0.81697(12)
O32_2 O 0.94675(11) 0.68303(12) 0.74227(12)
O34_2 O 0.94675(11) 0.81697(12) 0.75773(12)
O35_2 O 0.94675(11) 0.74227(12) 0.68303(12)
N5_4 N 1.0000 0.6615(2) 0.8385(2)
N6_4 N 1.0000 0.8385(2) 0.6615(2)
H9_4 H 1.0000 0.6380 0.8620
H10_4 H 1.0000 0.8620 0.6380
C45_2 C 0.953(2) 0.6450(6) 0.8550(6)
C47_2 C 0.953(2) 0.8550(6) 0.6450(6)
H29_2 H 0.9570 0.6194 0.8801
H31_2 H 0.9570 0.8801 0.6194
H40_2 H 0.9343 0.6315 0.8270
H42_2 H 0.9343 0.8270 0.6315
H51_2 H 0.9346 0.6728 0.8691
H53_2 H 0.9346 0.8691 0.6728
O31_3 O 0.05325(11) 0.75773(12) 0.18303(12)
O34_3 O 0.05325(11) 0.81697(12) 0.24227(12)
N5_5 N 0.0000 0.6615(2) 0.1615(2)
N6_5 N -0.0000 0.8385(2) 0.3385(2)
H9_5 H -0.0000 0.6380 0.1380
H10_5 H -0.0000 0.8620 0.3620
C45_3 C 0.047(2) 0.6450(6) 0.1450(6)
C47_3 C 0.047(2) 0.8550(6) 0.3550(6)
H29_3 H 0.0430 0.6194 0.1199
H31_3 H 0.0430 0.8801 0.3806
H40_3 H 0.0657 0.6315 0.1730
H42_3 H 0.0657 0.8270 0.3685
H51_3 H 0.0654 0.6728 0.1309
H53_3 H 0.0654 0.8691 0.3272
Ni1_3 Ni 0.71393(2) 0.5000 0.28607(2)
O1_3 O 0.75773(12) 0.55325(11) 0.31697(12)
N1_3 N 0.6615(2) 0.5000 0.3385(2)
H1_3 H 0.6380 0.5000 0.3620
C1_3 C 0.79792(16) 0.5694(2) 0.29792(16)
C2_3 C 0.82223(16) 0.6136(2) 0.32223(16)
C3_3 C 0.8015(2) 0.63502(17) 0.36498(17)
H2_3 H 0.7732 0.6205 0.3795
C4_3 C 0.6450(6) 0.453(2) 0.3550(6)
H3_3 H 0.6199 0.4570 0.3806
H4_3 H 0.6730 0.4343 0.3685
H5_3 H 0.6309 0.4346 0.3272
Ni2_3 Ni 0.78607(2) 0.5000 0.21393(2)
Ni3_2 Ni 0.78607(2) 0.78607(2) 0.5000
Ni4_2 Ni 0.71393(2) 0.71393(2) 0.5000
Ni9_3 Ni 0.78607(2) 0.28607(2) 0.0000
Ni10_3 Ni 0.71393(2) 0.21393(2) 0.0000
Ni11_2 Ni 0.78607(2) 0.21393(2) 0.5000
Ni12_2 Ni 0.71393(2) 0.28607(2) 0.5000
Ni17_3 Ni 0.78607(2) 0.71393(2) 0.0000
Ni18_3 Ni 0.71393(2) 0.78607(2) 0.0000
O2_3 O 0.81697(12) 0.55325(11) 0.25773(12)
O3_3 O 0.81697(12) 0.74227(12) 0.44675(11)
O4_3 O 0.75773(12) 0.68303(12) 0.44675(11)
O5_3 O 0.94675(11) 0.68303(12) 0.25773(12)
O6_3 O 0.94675(11) 0.74227(12) 0.31697(12)
O7_3 O 0.68303(12) 0.44675(11) 0.24227(12)
O8_3 O 0.74227(12) 0.44675(11) 0.18303(12)
O9_3 O 0.55325(11) 0.25773(12) 0.18303(12)
O10_3 O 0.55325(11) 0.31697(12) 0.24227(12)
O11_3 O 0.74227(12) 0.31697(12) 0.05325(11)
O12_3 O 0.68303(12) 0.25773(12) 0.05325(11)
O13_3 O 0.75773(12) 0.44675(11) 0.31697(12)
O14_3 O 0.81697(12) 0.44675(11) 0.25773(12)
O15_2 O 0.81697(12) 0.25773(12) 0.44675(11)
O16_2 O 0.75773(12) 0.31697(12) 0.44675(11)
O19_3 O 0.68303(12) 0.55325(11) 0.24227(12)
O20_3 O 0.74227(12) 0.55325(11) 0.18303(12)
O21_3 O 0.55325(11) 0.74227(12) 0.18303(12)
O22_3 O 0.55325(11) 0.68303(12) 0.24227(12)
O23_3 O 0.74227(12) 0.68303(12) 0.05325(11)
O24_3 O 0.68303(12) 0.74227(12) 0.05325(11)
O25_3 O 0.74227(12) 0.81697(12) 0.55325(11)
O26_2 O 0.81697(12) 0.74227(12) 0.55325(11)
O27_3 O 0.74227(12) 0.81697(12) 0.44675(11)
O28_3 O 0.68303(12) 0.75773(12) 0.55325(11)
O29_2 O 0.75773(12) 0.68303(12) 0.55325(11)
O30_3 O 0.68303(12) 0.75773(12) 0.44675(11)
O33_3 O 0.94675(11) 0.75773(12) 0.18303(12)
O36_3 O 0.94675(11) 0.81697(12) 0.24227(12)
N2_3 N 0.8385(2) 0.5000 0.1615(2)
N3_3 N 0.8385(2) 0.8385(2) 0.5000
N4_3 N 0.6615(2) 0.6615(2) 0.5000
N5_6 N 1.0000 0.6615(2) 0.1615(2)
N6_6 N 1.0000 0.8385(2) 0.3385(2)
H6_3 H 0.8620 0.5000 0.1380
H7_3 H 0.8620 0.8620 0.5000
H8_3 H 0.6380 0.6380 0.5000
H9_6 H 1.0000 0.6380 0.1380
H10_6 H 1.0000 0.8620 0.3620
C5_3 C 0.79792(16) 0.70208(16) 0.4306(2)
C6_3 C 0.9306(2) 0.70208(16) 0.29792(16)
C7_3 C 0.70208(16) 0.4306(2) 0.20208(16)
C8_3 C 0.5694(2) 0.29792(16) 0.20208(16)
C9_3 C 0.70208(16) 0.29792(16) 0.0694(2)
C10_3 C 0.79792(16) 0.4306(2) 0.29792(16)
C11_3 C 0.79792(16) 0.29792(16) 0.4306(2)
C12_3 C 0.9306(2) 0.29792(16) 0.29792(16)
C13_3 C 0.70208(16) 0.5694(2) 0.20208(16)
C14_3 C 0.5694(2) 0.70208(16) 0.20208(16)
C15_3 C 0.70208(16) 0.70208(16) 0.0694(2)
C16_3 C 0.82223(16) 0.67777(16) 0.3864(2)
C17_3 C 0.8864(2) 0.67777(16) 0.32223(16)
C18_3 C 0.67777(16) 0.3864(2) 0.17777(16)
C19_3 C 0.6136(2) 0.32223(16) 0.17777(16)
C20_3 C 0.67777(16) 0.32223(16) 0.1136(2)
C21_3 C 0.82223(16) 0.3864(2) 0.32223(16)
C22_3 C 0.82223(16) 0.32223(16) 0.3864(2)
C23_3 C 0.8864(2) 0.32223(16) 0.32223(16)
C24_3 C 0.67777(16) 0.6136(2) 0.17777(16)
C25_3 C 0.6136(2) 0.67777(16) 0.17777(16)
C26_3 C 0.67777(16) 0.67777(16) 0.1136(2)
C27_3 C 0.86498(17) 0.6985(2) 0.36498(17)
C28_3 C 0.86498(17) 0.63502(17) 0.3015(2)
C29_3 C 0.63502(17) 0.36498(17) 0.1985(2)
C30_3 C 0.63502(17) 0.3015(2) 0.13502(17)
C31_3 C 0.6985(2) 0.36498(17) 0.13502(17)
C32_3 C 0.8015(2) 0.36498(17) 0.36498(17)
C33_3 C 0.86498(17) 0.3015(2) 0.36498(17)
C34_3 C 0.86498(17) 0.36498(17) 0.3015(2)
C35_3 C 0.63502(17) 0.63502(17) 0.1985(2)
C36_3 C 0.63502(17) 0.6985(2) 0.13502(17)
C37_3 C 0.6985(2) 0.63502(17) 0.13502(17)
H11_3 H 0.8795 0.6205 0.2732
H12_3 H 0.8795 0.7268 0.3795
H13_3 H 0.6205 0.3795 0.2268
H14_3 H 0.7268 0.3795 0.1205
H15_3 H 0.6205 0.2732 0.1205
H16_3 H 0.7732 0.3795 0.3795
H17_3 H 0.8795 0.3795 0.2732
H18_3 H 0.8795 0.2732 0.3795
H19_3 H 0.6205 0.6205 0.2268
H20_3 H 0.7268 0.6205 0.1205
H21_3 H 0.6205 0.7268 0.1205
C38_3 C 0.6450(6) 0.547(2) 0.3550(6)
C39_3 C 0.8550(6) 0.453(2) 0.1450(6)
C40_3 C 0.8550(6) 0.547(2) 0.1450(6)
C41_3 C 0.8550(6) 0.8550(6) 0.547(2)
C42_3 C 0.8550(6) 0.8550(6) 0.453(2)
C43_3 C 0.6450(6) 0.6450(6) 0.547(2)
C44_3 C 0.6450(6) 0.6450(6) 0.453(2)
C46_3 C 0.953(2) 0.6450(6) 0.1450(6)
C48_3 C 0.953(2) 0.8550(6) 0.3550(6)
H22_3 H 0.6194 0.5430 0.3801
H23_3 H 0.8806 0.4570 0.1199
H24_3 H 0.8801 0.5430 0.1194
H25_3 H 0.8806 0.8801 0.5430
H26_3 H 0.8801 0.8806 0.4570
H27_3 H 0.6199 0.6194 0.5430
H28_3 H 0.6194 0.6199 0.4570
H30_3 H 0.9570 0.6199 0.1194
H32_3 H 0.9570 0.8806 0.3801
H33_3 H 0.6315 0.5657 0.3270
H34_3 H 0.8685 0.4343 0.1730
H35_3 H 0.8270 0.5657 0.1315
H36_3 H 0.8685 0.8270 0.5657
H37_3 H 0.8270 0.8685 0.4343
H38_3 H 0.6730 0.6315 0.5657
H39_3 H 0.6315 0.6730 0.4343
H41_3 H 0.9343 0.6730 0.1315
H43_3 H 0.9343 0.8685 0.3270
H44_3 H 0.6728 0.5654 0.3691
H45_3 H 0.8272 0.4346 0.1309
H46_3 H 0.8691 0.5654 0.1728
H47_3 H 0.8272 0.8691 0.5654
H48_3 H 0.8691 0.8272 0.4346
H49_3 H 0.6309 0.6728 0.5654
H50_3 H 0.6728 0.6309 0.4346
H52_3 H 0.9346 0.6309 0.1728
H54_3 H 0.9346 0.8272 0.3691
Ni9_4 Ni 0.78607(2) 0.28607(2) 1.0000
Ni10_4 Ni 0.71393(2) 0.21393(2) 1.0000
Ni17_4 Ni 0.78607(2) 0.71393(2) 1.0000
Ni18_4 Ni 0.71393(2) 0.78607(2) 1.0000
O31_4 O 0.05325(11) 0.24227(12) 0.81697(12)
O34_4 O 0.05325(11) 0.18303(12) 0.75773(12)
N5_7 N -0.0000 0.3385(2) 0.8385(2)
N6_7 N 0.0000 0.1615(2) 0.6615(2)
H9_7 H -0.0000 0.3620 0.8620
H10_7 H -0.0000 0.1380 0.6380
C45_4 C 0.047(2) 0.3550(6) 0.8550(6)
C47_4 C 0.047(2) 0.1450(6) 0.6450(6)
H29_4 H 0.0430 0.3806 0.8801
H31_4 H 0.0430 0.1199 0.6194
H40_4 H 0.0657 0.3685 0.8270
H42_4 H 0.0657 0.1730 0.6315
H51_4 H 0.0654 0.3272 0.8691
H53_4 H 0.0654 0.1309 0.6728
Ni1_4 Ni 0.71393(2) 0.5000 0.71393(2)
O1_4 O 0.75773(12) 0.44675(11) 0.68303(12)
N1_4 N 0.6615(2) 0.5000 0.6615(2)
H1_4 H 0.6380 0.5000 0.6380
C1_4 C 0.79792(16) 0.4306(2) 0.70208(16)
C2_4 C 0.82223(16) 0.3864(2) 0.67777(16)
C3_4 C 0.8015(2) 0.36498(17) 0.63502(17)
H2_4 H 0.7732 0.3795 0.6205
C4_4 C 0.6450(6) 0.547(2) 0.6450(6)
H3_4 H 0.6199 0.5430 0.6194
H4_4 H 0.6730 0.5657 0.6315
H5_4 H 0.6309 0.5654 0.6728
Ni2_4 Ni 0.78607(2) 0.5000 0.78607(2)
O2_4 O 0.81697(12) 0.44675(11) 0.74227(12)
O3_4 O 0.81697(12) 0.25773(12) 0.55325(11)
O4_4 O 0.75773(12) 0.31697(12) 0.55325(11)
O5_4 O 0.94675(11) 0.31697(12) 0.74227(12)
O6_4 O 0.94675(11) 0.25773(12) 0.68303(12)
O7_4 O 0.68303(12) 0.55325(11) 0.75773(12)
O8_4 O 0.74227(12) 0.55325(11) 0.81697(12)
O9_4 O 0.55325(11) 0.74227(12) 0.81697(12)
O10_4 O 0.55325(11) 0.68303(12) 0.75773(12)
O11_4 O 0.74227(12) 0.68303(12) 0.94675(11)
O12_4 O 0.68303(12) 0.74227(12) 0.94675(11)
O13_4 O 0.75773(12) 0.55325(11) 0.68303(12)
O14_4 O 0.81697(12) 0.55325(11) 0.74227(12)
O19_4 O 0.68303(12) 0.44675(11) 0.75773(12)
O20_4 O 0.74227(12) 0.44675(11) 0.81697(12)
O21_4 O 0.55325(11) 0.25773(12) 0.81697(12)
O22_4 O 0.55325(11) 0.31697(12) 0.75773(12)
O23_4 O 0.74227(12) 0.31697(12) 0.94675(11)
O24_4 O 0.68303(12) 0.25773(12) 0.94675(11)
O25_4 O 0.74227(12) 0.18303(12) 0.44675(11)
O27_4 O 0.74227(12) 0.18303(12) 0.55325(11)
O28_4 O 0.68303(12) 0.24227(12) 0.44675(11)
O30_4 O 0.68303(12) 0.24227(12) 0.55325(11)
O33_4 O 0.94675(11) 0.24227(12) 0.81697(12)
O36_4 O 0.94675(11) 0.18303(12) 0.75773(12)
N2_4 N 0.8385(2) 0.5000 0.8385(2)
N3_4 N 0.8385(2) 0.1615(2) 0.5000
N4_4 N 0.6615(2) 0.3385(2) 0.5000
N5_8 N 1.0000 0.3385(2) 0.8385(2)
N6_8 N 1.0000 0.1615(2) 0.6615(2)
H6_4 H 0.8620 0.5000 0.8620
H7_4 H 0.8620 0.1380 0.5000
H8_4 H 0.6380 0.3620 0.5000
H9_8 H 1.0000 0.3620 0.8620
H10_8 H 1.0000 0.1380 0.6380
C5_4 C 0.79792(16) 0.29792(16) 0.5694(2)
C6_4 C 0.9306(2) 0.29792(16) 0.70208(16)
C7_4 C 0.70208(16) 0.5694(2) 0.79792(16)
C8_4 C 0.5694(2) 0.70208(16) 0.79792(16)
C9_4 C 0.70208(16) 0.70208(16) 0.9306(2)
C10_4 C 0.79792(16) 0.5694(2) 0.70208(16)
C11_4 C 0.79792(16) 0.70208(16) 0.5694(2)
C12_4 C 0.9306(2) 0.70208(16) 0.70208(16)
C13_4 C 0.70208(16) 0.4306(2) 0.79792(16)
C14_4 C 0.5694(2) 0.29792(16) 0.79792(16)
C15_4 C 0.70208(16) 0.29792(16) 0.9306(2)
C16_4 C 0.82223(16) 0.32223(16) 0.6136(2)
C17_4 C 0.8864(2) 0.32223(16) 0.67777(16)
C18_4 C 0.67777(16) 0.6136(2) 0.82223(16)
C19_4 C 0.6136(2) 0.67777(16) 0.82223(16)
C20_4 C 0.67777(16) 0.67777(16) 0.8864(2)
C21_4 C 0.82223(16) 0.6136(2) 0.67777(16)
C22_4 C 0.82223(16) 0.67777(16) 0.6136(2)
C23_4 C 0.8864(2) 0.67777(16) 0.67777(16)
C24_4 C 0.67777(16) 0.3864(2) 0.82223(16)
C25_4 C 0.6136(2) 0.32223(16) 0.82223(16)
C26_4 C 0.67777(16) 0.32223(16) 0.8864(2)
C27_4 C 0.86498(17) 0.3015(2) 0.63502(17)
C28_4 C 0.86498(17) 0.36498(17) 0.6985(2)
C29_4 C 0.63502(17) 0.63502(17) 0.8015(2)
C30_4 C 0.63502(17) 0.6985(2) 0.86498(17)
C31_4 C 0.6985(2) 0.63502(17) 0.86498(17)
C32_4 C 0.8015(2) 0.63502(17) 0.63502(17)
C33_4 C 0.86498(17) 0.6985(2) 0.63502(17)
C34_4 C 0.86498(17) 0.63502(17) 0.6985(2)
C35_4 C 0.63502(17) 0.36498(17) 0.8015(2)
C36_4 C 0.63502(17) 0.3015(2) 0.86498(17)
C37_4 C 0.6985(2) 0.36498(17) 0.86498(17)
H11_4 H 0.8795 0.3795 0.7268
H12_4 H 0.8795 0.2732 0.6205
H13_4 H 0.6205 0.6205 0.7732
H14_4 H 0.7268 0.6205 0.8795
H15_4 H 0.6205 0.7268 0.8795
H16_4 H 0.7732 0.6205 0.6205
H17_4 H 0.8795 0.6205 0.7268
H18_4 H 0.8795 0.7268 0.6205
H19_4 H 0.6205 0.3795 0.7732
H20_4 H 0.7268 0.3795 0.8795
H21_4 H 0.6205 0.2732 0.8795
C38_4 C 0.6450(6) 0.453(2) 0.6450(6)
C39_4 C 0.8550(6) 0.547(2) 0.8550(6)
C40_4 C 0.8550(6) 0.453(2) 0.8550(6)
C41_4 C 0.8550(6) 0.1450(6) 0.453(2)
C42_4 C 0.8550(6) 0.1450(6) 0.547(2)
C43_4 C 0.6450(6) 0.3550(6) 0.453(2)
C44_4 C 0.6450(6) 0.3550(6) 0.547(2)
C46_4 C 0.953(2) 0.3550(6) 0.8550(6)
C48_4 C 0.953(2) 0.1450(6) 0.6450(6)
H22_4 H 0.6194 0.4570 0.6199
H23_4 H 0.8806 0.5430 0.8801
H24_4 H 0.8801 0.4570 0.8806
H25_4 H 0.8806 0.1199 0.4570
H26_4 H 0.8801 0.1194 0.5430
H27_4 H 0.6199 0.3806 0.4570
H28_4 H 0.6194 0.3801 0.5430
H30_4 H 0.9570 0.3801 0.8806
H32_4 H 0.9570 0.1194 0.6199
H33_4 H 0.6315 0.4343 0.6730
H34_4 H 0.8685 0.5657 0.8270
H35_4 H 0.8270 0.4343 0.8685
H36_4 H 0.8685 0.1730 0.4343
H37_4 H 0.8270 0.1315 0.5657
H38_4 H 0.6730 0.3685 0.4343
H39_4 H 0.6315 0.3270 0.5657
H41_4 H 0.9343 0.3270 0.8685
H43_4 H 0.9343 0.1315 0.6730
H44_4 H 0.6728 0.4346 0.6309
H45_4 H 0.8272 0.5654 0.8691
H46_4 H 0.8691 0.4346 0.8272
H47_4 H 0.8272 0.1309 0.4346
H48_4 H 0.8691 0.1728 0.5654
H49_4 H 0.6309 0.3272 0.4346
H50_4 H 0.6728 0.3691 0.5654
H52_4 H 0.9346 0.3691 0.8272
H54_4 H 0.9346 0.1728 0.6309
O1_5 O 0.55325(11) 0.24227(12) 0.31697(12)
N1_5 N 0.5000 0.3385(2) 0.3385(2)
H1_5 H 0.5000 0.3620 0.3620
C1_5 C 0.5694(2) 0.20208(16) 0.29792(16)
C2_5 C 0.6136(2) 0.17777(16) 0.32223(16)
C3_5 C 0.63502(17) 0.1985(2) 0.36498(17)
H2_5 H 0.6205 0.2268 0.3795
C4_5 C 0.453(2) 0.3550(6) 0.3550(6)
H3_5 H 0.4570 0.3801 0.3806
H4_5 H 0.4343 0.3270 0.3685
H5_5 H 0.4346 0.3691 0.3272
Ni5_5 Ni 0.71393(2) -0.0000 0.21393(2)
Ni6_5 Ni 0.78607(2) -0.0000 0.28607(2)
Ni13_5 Ni 0.28607(2) -0.0000 0.21393(2)
Ni14_5 Ni 0.21393(2) -0.0000 0.28607(2)
O2_5 O 0.55325(11) 0.18303(12) 0.25773(12)
O5_5 O 0.68303(12) 0.05325(11) 0.25773(12)
O6_5 O 0.74227(12) 0.05325(11) 0.31697(12)
O13_5 O 0.44675(11) 0.24227(12) 0.31697(12)
O14_5 O 0.44675(11) 0.18303(12) 0.25773(12)
O17_3 O 0.31697(12) 0.05325(11) 0.25773(12)
O18_3 O 0.25773(12) 0.05325(11) 0.31697(12)
O33_5 O 0.75773(12) 0.05325(11) 0.18303(12)
O36_5 O 0.81697(12) 0.05325(11) 0.24227(12)
N2_5 N 0.5000 0.1615(2) 0.1615(2)
N5_9 N 0.6615(2) -0.0000 0.1615(2)
N6_9 N 0.8385(2) -0.0000 0.3385(2)
H6_5 H 0.5000 0.1380 0.1380
H9_9 H 0.6380 -0.0000 0.1380
H10_9 H 0.8620 -0.0000 0.3620
C5_5 C 0.70208(16) 0.20208(16) 0.4306(2)
C6_5 C 0.70208(16) 0.0694(2) 0.29792(16)
C10_5 C 0.4306(2) 0.20208(16) 0.29792(16)
C11_5 C 0.29792(16) 0.20208(16) 0.4306(2)
C12_5 C 0.29792(16) 0.0694(2) 0.29792(16)
C16_5 C 0.67777(16) 0.17777(16) 0.3864(2)
C17_5 C 0.67777(16) 0.1136(2) 0.32223(16)
C21_5 C 0.3864(2) 0.17777(16) 0.32223(16)
C22_5 C 0.32223(16) 0.17777(16) 0.3864(2)
C23_5 C 0.32223(16) 0.1136(2) 0.32223(16)
C27_5 C 0.6985(2) 0.13502(17) 0.36498(17)
C28_5 C 0.63502(17) 0.13502(17) 0.3015(2)
C32_5 C 0.36498(17) 0.1985(2) 0.36498(17)
C33_5 C 0.3015(2) 0.13502(17) 0.36498(17)
C34_5 C 0.36498(17) 0.13502(17) 0.3015(2)
H11_5 H 0.6205 0.1205 0.2732
H12_5 H 0.7268 0.1205 0.3795
H16_5 H 0.3795 0.2268 0.3795
H17_5 H 0.3795 0.1205 0.2732
H18_5 H 0.2732 0.1205 0.3795
C38_5 C 0.547(2) 0.3550(6) 0.3550(6)
C39_5 C 0.453(2) 0.1450(6) 0.1450(6)
C40_5 C 0.547(2) 0.1450(6) 0.1450(6)
C46_5 C 0.6450(6) 0.047(2) 0.1450(6)
C48_5 C 0.8550(6) 0.047(2) 0.3550(6)
H22_5 H 0.5430 0.3806 0.3801
H23_5 H 0.4570 0.1194 0.1199
H24_5 H 0.5430 0.1199 0.1194
H30_5 H 0.6199 0.0430 0.1194
H32_5 H 0.8806 0.0430 0.3801
H33_5 H 0.5657 0.3685 0.3270
H34_5 H 0.4343 0.1315 0.1730
H35_5 H 0.5657 0.1730 0.1315
H41_5 H 0.6730 0.0657 0.1315
H43_5 H 0.8685 0.0657 0.3270
H44_5 H 0.5654 0.3272 0.3691
H45_5 H 0.4346 0.1728 0.1309
H46_5 H 0.5654 0.1309 0.1728
H52_5 H 0.6309 0.0654 0.1728
H54_5 H 0.8272 0.0654 0.3691
Ni5_6 Ni 0.71393(2) 1.0000 0.21393(2)
Ni6_6 Ni 0.78607(2) 1.0000 0.28607(2)
Ni13_6 Ni 0.28607(2) 1.0000 0.21393(2)
Ni14_6 Ni 0.21393(2) 1.0000 0.28607(2)
O31_5 O 0.75773(12) 0.94675(11) 0.18303(12)
O32_3 O 0.68303(12) 0.94675(11) 0.25773(12)
O34_5 O 0.81697(12) 0.94675(11) 0.24227(12)
O35_3 O 0.74227(12) 0.94675(11) 0.31697(12)
N5_10 N 0.6615(2) 1.0000 0.1615(2)
N6_10 N 0.8385(2) 1.0000 0.3385(2)
H9_10 H 0.6380 1.0000 0.1380
H10_10 H 0.8620 1.0000 0.3620
C45_5 C 0.6450(6) 0.953(2) 0.1450(6)
C47_5 C 0.8550(6) 0.953(2) 0.3550(6)
H29_5 H 0.6194 0.9570 0.1199
H31_5 H 0.8801 0.9570 0.3806
H40_5 H 0.6315 0.9343 0.1730
H42_5 H 0.8270 0.9343 0.3685
H51_5 H 0.6728 0.9346 0.1309
H53_5 H 0.8691 0.9346 0.3272
O1_6 O 0.44675(11) 0.24227(12) 0.68303(12)
N1_6 N 0.5000 0.3385(2) 0.6615(2)
H1_6 H 0.5000 0.3620 0.6380
C1_6 C 0.4306(2) 0.20208(16) 0.70208(16)
C2_6 C 0.3864(2) 0.17777(16) 0.67777(16)
C3_6 C 0.36498(17) 0.1985(2) 0.63502(17)
H2_6 H 0.3795 0.2268 0.6205
C4_6 C 0.547(2) 0.3550(6) 0.6450(6)
H3_6 H 0.5430 0.3801 0.6194
H4_6 H 0.5657 0.3270 0.6315
H5_6 H 0.5654 0.3691 0.6728
Ni5_7 Ni 0.28607(2) -0.0000 0.78607(2)
Ni6_7 Ni 0.21393(2) -0.0000 0.71393(2)
Ni13_7 Ni 0.71393(2) -0.0000 0.78607(2)
Ni14_7 Ni 0.78607(2) -0.0000 0.71393(2)
O2_6 O 0.44675(11) 0.18303(12) 0.74227(12)
O5_6 O 0.31697(12) 0.05325(11) 0.74227(12)
O6_6 O 0.25773(12) 0.05325(11) 0.68303(12)
O13_6 O 0.55325(11) 0.24227(12) 0.68303(12)
O14_6 O 0.55325(11) 0.18303(12) 0.74227(12)
O17_4 O 0.68303(12) 0.05325(11) 0.74227(12)
O18_4 O 0.74227(12) 0.05325(11) 0.68303(12)
O33_6 O 0.24227(12) 0.05325(11) 0.81697(12)
O36_6 O 0.18303(12) 0.05325(11) 0.75773(12)
N2_6 N 0.5000 0.1615(2) 0.8385(2)
N5_11 N 0.3385(2) -0.0000 0.8385(2)
N6_11 N 0.1615(2) -0.0000 0.6615(2)
H6_6 H 0.5000 0.1380 0.8620
H9_11 H 0.3620 -0.0000 0.8620
H10_11 H 0.1380 -0.0000 0.6380
C5_6 C 0.29792(16) 0.20208(16) 0.5694(2)
C6_6 C 0.29792(16) 0.0694(2) 0.70208(16)
C10_6 C 0.5694(2) 0.20208(16) 0.70208(16)
C11_6 C 0.70208(16) 0.20208(16) 0.5694(2)
C12_6 C 0.70208(16) 0.0694(2) 0.70208(16)
C16_6 C 0.32223(16) 0.17777(16) 0.6136(2)
C17_6 C 0.32223(16) 0.1136(2) 0.67777(16)
C21_6 C 0.6136(2) 0.17777(16) 0.67777(16)
C22_6 C 0.67777(16) 0.17777(16) 0.6136(2)
C23_6 C 0.67777(16) 0.1136(2) 0.67777(16)
C27_6 C 0.3015(2) 0.13502(17) 0.63502(17)
C28_6 C 0.36498(17) 0.13502(17) 0.6985(2)
C32_6 C 0.63502(17) 0.1985(2) 0.63502(17)
C33_6 C 0.6985(2) 0.13502(17) 0.63502(17)
C34_6 C 0.63502(17) 0.13502(17) 0.6985(2)
H11_6 H 0.3795 0.1205 0.7268
H12_6 H 0.2732 0.1205 0.6205
H16_6 H 0.6205 0.2268 0.6205
H17_6 H 0.6205 0.1205 0.7268
H18_6 H 0.7268 0.1205 0.6205
C38_6 C 0.453(2) 0.3550(6) 0.6450(6)
C39_6 C 0.547(2) 0.1450(6) 0.8550(6)
C40_6 C 0.453(2) 0.1450(6) 0.8550(6)
C46_6 C 0.3550(6) 0.047(2) 0.8550(6)
C48_6 C 0.1450(6) 0.047(2) 0.6450(6)
H22_6 H 0.4570 0.3806 0.6199
H23_6 H 0.5430 0.1194 0.8801
H24_6 H 0.4570 0.1199 0.8806
H30_6 H 0.3801 0.0430 0.8806
H32_6 H 0.1194 0.0430 0.6199
H33_6 H 0.4343 0.3685 0.6730
H34_6 H 0.5657 0.1315 0.8270
H35_6 H 0.4343 0.1730 0.8685
H41_6 H 0.3270 0.0657 0.8685
H43_6 H 0.1315 0.0657 0.6730
H44_6 H 0.4346 0.3272 0.6309
H45_6 H 0.5654 0.1728 0.8691
H46_6 H 0.4346 0.1309 0.8272
H52_6 H 0.3691 0.0654 0.8272
H54_6 H 0.1728 0.0654 0.6309
Ni5_8 Ni 0.28607(2) 1.0000 0.78607(2)
Ni6_8 Ni 0.21393(2) 1.0000 0.71393(2)
Ni13_8 Ni 0.71393(2) 1.0000 0.78607(2)
Ni14_8 Ni 0.78607(2) 1.0000 0.71393(2)
O31_6 O 0.24227(12) 0.94675(11) 0.81697(12)
O32_4 O 0.31697(12) 0.94675(11) 0.74227(12)
O34_6 O 0.18303(12) 0.94675(11) 0.75773(12)
O35_4 O 0.25773(12) 0.94675(11) 0.68303(12)
N5_12 N 0.3385(2) 1.0000 0.8385(2)
N6_12 N 0.1615(2) 1.0000 0.6615(2)
H9_12 H 0.3620 1.0000 0.8620
H10_12 H 0.1380 1.0000 0.6380
C45_6 C 0.3550(6) 0.953(2) 0.8550(6)
C47_6 C 0.1450(6) 0.953(2) 0.6450(6)
H29_6 H 0.3806 0.9570 0.8801
H31_6 H 0.1199 0.9570 0.6194
H40_6 H 0.3685 0.9343 0.8270
H42_6 H 0.1730 0.9343 0.6315
H51_6 H 0.3272 0.9346 0.8691
H53_6 H 0.1309 0.9346 0.6728
O31_7 O 0.24227(12) 0.05325(11) 0.18303(12)
O34_7 O 0.18303(12) 0.05325(11) 0.24227(12)
N5_13 N 0.3385(2) 0.0000 0.1615(2)
N6_13 N 0.1615(2) 0.0000 0.3385(2)
H9_13 H 0.3620 0.0000 0.1380
H10_13 H 0.1380 0.0000 0.3620
C45_7 C 0.3550(6) 0.047(2) 0.1450(6)
C47_7 C 0.1450(6) 0.047(2) 0.3550(6)
H29_7 H 0.3806 0.0430 0.1199
H31_7 H 0.1199 0.0430 0.3806
H40_7 H 0.3685 0.0657 0.1730
H42_7 H 0.1730 0.0657 0.3685
H51_7 H 0.3272 0.0654 0.1309
H53_7 H 0.1309 0.0654 0.3272
O1_7 O 0.44675(11) 0.75773(12) 0.31697(12)
N1_7 N 0.5000 0.6615(2) 0.3385(2)
H1_7 H 0.5000 0.6380 0.3620
C1_7 C 0.4306(2) 0.79792(16) 0.29792(16)
C2_7 C 0.3864(2) 0.82223(16) 0.32223(16)
C3_7 C 0.36498(17) 0.8015(2) 0.36498(17)
H2_7 H 0.3795 0.7732 0.3795
C4_7 C 0.547(2) 0.6450(6) 0.3550(6)
H3_7 H 0.5430 0.6199 0.3806
H4_7 H 0.5657 0.6730 0.3685
H5_7 H 0.5654 0.6309 0.3272
O2_7 O 0.44675(11) 0.81697(12) 0.25773(12)
O5_7 O 0.31697(12) 0.94675(11) 0.25773(12)
O6_7 O 0.25773(12) 0.94675(11) 0.31697(12)
O13_7 O 0.55325(11) 0.75773(12) 0.31697(12)
O14_7 O 0.55325(11) 0.81697(12) 0.25773(12)
O33_7 O 0.24227(12) 0.94675(11) 0.18303(12)
O36_7 O 0.18303(12) 0.94675(11) 0.24227(12)
N2_7 N 0.5000 0.8385(2) 0.1615(2)
N5_14 N 0.3385(2) 1.0000 0.1615(2)
N6_14 N 0.1615(2) 1.0000 0.3385(2)
H6_7 H 0.5000 0.8620 0.1380
H9_14 H 0.3620 1.0000 0.1380
H10_14 H 0.1380 1.0000 0.3620
C5_7 C 0.29792(16) 0.79792(16) 0.4306(2)
C6_7 C 0.29792(16) 0.9306(2) 0.29792(16)
C10_7 C 0.5694(2) 0.79792(16) 0.29792(16)
C11_7 C 0.70208(16) 0.79792(16) 0.4306(2)
C12_7 C 0.70208(16) 0.9306(2) 0.29792(16)
C16_7 C 0.32223(16) 0.82223(16) 0.3864(2)
C17_7 C 0.32223(16) 0.8864(2) 0.32223(16)
C21_7 C 0.6136(2) 0.82223(16) 0.32223(16)
C22_7 C 0.67777(16) 0.82223(16) 0.3864(2)
C23_7 C 0.67777(16) 0.8864(2) 0.32223(16)
C27_7 C 0.3015(2) 0.86498(17) 0.36498(17)
C28_7 C 0.36498(17) 0.86498(17) 0.3015(2)
C32_7 C 0.63502(17) 0.8015(2) 0.36498(17)
C33_7 C 0.6985(2) 0.86498(17) 0.36498(17)
C34_7 C 0.63502(17) 0.86498(17) 0.3015(2)
H11_7 H 0.3795 0.8795 0.2732
H12_7 H 0.2732 0.8795 0.3795
H16_7 H 0.6205 0.7732 0.3795
H17_7 H 0.6205 0.8795 0.2732
H18_7 H 0.7268 0.8795 0.3795
C38_7 C 0.453(2) 0.6450(6) 0.3550(6)
C39_7 C 0.547(2) 0.8550(6) 0.1450(6)
C40_7 C 0.453(2) 0.8550(6) 0.1450(6)
C46_7 C 0.3550(6) 0.953(2) 0.1450(6)
C48_7 C 0.1450(6) 0.953(2) 0.3550(6)
H22_7 H 0.4570 0.6194 0.3801
H23_7 H 0.5430 0.8806 0.1199
H24_7 H 0.4570 0.8801 0.1194
H30_7 H 0.3801 0.9570 0.1194
H32_7 H 0.1194 0.9570 0.3801
H33_7 H 0.4343 0.6315 0.3270
H34_7 H 0.5657 0.8685 0.1730
H35_7 H 0.4343 0.8270 0.1315
H41_7 H 0.3270 0.9343 0.1315
H43_7 H 0.1315 0.9343 0.3270
H44_7 H 0.4346 0.6728 0.3691
H45_7 H 0.5654 0.8272 0.1309
H46_7 H 0.4346 0.8691 0.1728
H52_7 H 0.3691 0.9346 0.1728
H54_7 H 0.1728 0.9346 0.3691
O31_8 O 0.75773(12) 0.05325(11) 0.81697(12)
O34_8 O 0.81697(12) 0.05325(11) 0.75773(12)
N5_15 N 0.6615(2) -0.0000 0.8385(2)
N6_15 N 0.8385(2) 0.0000 0.6615(2)
H9_15 H 0.6380 0.0000 0.8620
H10_15 H 0.8620 -0.0000 0.6380
C45_8 C 0.6450(6) 0.047(2) 0.8550(6)
C47_8 C 0.8550(6) 0.047(2) 0.6450(6)
H29_8 H 0.6194 0.0430 0.8801
H31_8 H 0.8801 0.0430 0.6194
H40_8 H 0.6315 0.0657 0.8270
H42_8 H 0.8270 0.0657 0.6315
H51_8 H 0.6728 0.0654 0.8691
H53_8 H 0.8691 0.0654 0.6728
O1_8 O 0.55325(11) 0.75773(12) 0.68303(12)
N1_8 N 0.5000 0.6615(2) 0.6615(2)
H1_8 H 0.5000 0.6380 0.6380
C1_8 C 0.5694(2) 0.79792(16) 0.70208(16)
C2_8 C 0.6136(2) 0.82223(16) 0.67777(16)
C3_8 C 0.63502(17) 0.8015(2) 0.63502(17)
H2_8 H 0.6205 0.7732 0.6205
C4_8 C 0.453(2) 0.6450(6) 0.6450(6)
H3_8 H 0.4570 0.6199 0.6194
H4_8 H 0.4343 0.6730 0.6315
H5_8 H 0.4346 0.6309 0.6728
O2_8 O 0.55325(11) 0.81697(12) 0.74227(12)
O5_8 O 0.68303(12) 0.94675(11) 0.74227(12)
O6_8 O 0.74227(12) 0.94675(11) 0.68303(12)
O13_8 O 0.44675(11) 0.75773(12) 0.68303(12)
O14_8 O 0.44675(11) 0.81697(12) 0.74227(12)
O33_8 O 0.75773(12) 0.94675(11) 0.81697(12)
O36_8 O 0.81697(12) 0.94675(11) 0.75773(12)
N2_8 N 0.5000 0.8385(2) 0.8385(2)
N5_16 N 0.6615(2) 1.0000 0.8385(2)
N6_16 N 0.8385(2) 1.0000 0.6615(2)
H6_8 H 0.5000 0.8620 0.8620
H9_16 H 0.6380 1.0000 0.8620
H10_16 H 0.8620 1.0000 0.6380
C5_8 C 0.70208(16) 0.79792(16) 0.5694(2)
C6_8 C 0.70208(16) 0.9306(2) 0.70208(16)
C10_8 C 0.4306(2) 0.79792(16) 0.70208(16)
C11_8 C 0.29792(16) 0.79792(16) 0.5694(2)
C12_8 C 0.29792(16) 0.9306(2) 0.70208(16)
C16_8 C 0.67777(16) 0.82223(16) 0.6136(2)
C17_8 C 0.67777(16) 0.8864(2) 0.67777(16)
C21_8 C 0.3864(2) 0.82223(16) 0.67777(16)
C22_8 C 0.32223(16) 0.82223(16) 0.6136(2)
C23_8 C 0.32223(16) 0.8864(2) 0.67777(16)
C27_8 C 0.6985(2) 0.86498(17) 0.63502(17)
C28_8 C 0.63502(17) 0.86498(17) 0.6985(2)
C32_8 C 0.36498(17) 0.8015(2) 0.63502(17)
C33_8 C 0.3015(2) 0.86498(17) 0.63502(17)
C34_8 C 0.36498(17) 0.86498(17) 0.6985(2)
H11_8 H 0.6205 0.8795 0.7268
H12_8 H 0.7268 0.8795 0.6205
H16_8 H 0.3795 0.7732 0.6205
H17_8 H 0.3795 0.8795 0.7268
H18_8 H 0.2732 0.8795 0.6205
C38_8 C 0.547(2) 0.6450(6) 0.6450(6)
C39_8 C 0.453(2) 0.8550(6) 0.8550(6)
C40_8 C 0.547(2) 0.8550(6) 0.8550(6)
C46_8 C 0.6450(6) 0.953(2) 0.8550(6)
C48_8 C 0.8550(6) 0.953(2) 0.6450(6)
H22_8 H 0.5430 0.6194 0.6199
H23_8 H 0.4570 0.8806 0.8801
H24_8 H 0.5430 0.8801 0.8806
H30_8 H 0.6199 0.9570 0.8806
H32_8 H 0.8806 0.9570 0.6199
H33_8 H 0.5657 0.6315 0.6730
H34_8 H 0.4343 0.8685 0.8270
H35_8 H 0.5657 0.8270 0.8685
H41_8 H 0.6730 0.9343 0.8685
H43_8 H 0.8685 0.9343 0.6730
H44_8 H 0.5654 0.6728 0.6309
H45_8 H 0.4346 0.8272 0.8691
H46_8 H 0.5654 0.8691 0.8272
H52_8 H 0.6309 0.9346 0.8272
H54_8 H 0.8272 0.9346 0.6309
O33_9 O 0.24227(12) 0.18303(12) 0.05325(11)
O36_9 O 0.18303(12) 0.24227(12) 0.05325(11)
N5_17 N 0.3385(2) 0.1615(2) -0.0000
N6_17 N 0.1615(2) 0.3385(2) -0.0000
H9_17 H 0.3620 0.1380 -0.0000
H10_17 H 0.1380 0.3620 -0.0000
C46_9 C 0.3550(6) 0.1450(6) 0.047(2)
C48_9 C 0.1450(6) 0.3550(6) 0.047(2)
H25_5 H 0.1199 0.5430 0.1194
H27_5 H 0.3806 0.5430 0.3801
H28_5 H 0.3801 0.4570 0.3806
H30_9 H 0.3801 0.1194 0.0430
H32_9 H 0.1194 0.3801 0.0430
H36_5 H 0.1730 0.5657 0.1315
H37_5 H 0.1315 0.4343 0.1730
H38_5 H 0.3685 0.5657 0.3270
H39_5 H 0.3270 0.4343 0.3685
H41_9 H 0.3270 0.1315 0.0657
H43_9 H 0.1315 0.3270 0.0657
H47_5 H 0.1309 0.5654 0.1728
H48_5 H 0.1728 0.4346 0.1309
H49_5 H 0.3272 0.5654 0.3691
H50_5 H 0.3691 0.4346 0.3272
H52_9 H 0.3691 0.1728 0.0654
H54_9 H 0.1728 0.3691 0.0654
O31_9 O 0.24227(12) 0.18303(12) 0.94675(11)
O34_9 O 0.18303(12) 0.24227(12) 0.94675(11)
N5_18 N 0.3385(2) 0.1615(2) 1.0000
N6_18 N 0.1615(2) 0.3385(2) 1.0000
H9_18 H 0.3620 0.1380 1.0000
H10_18 H 0.1380 0.3620 1.0000
C45_9 C 0.3550(6) 0.1450(6) 0.953(2)
C47_9 C 0.1450(6) 0.3550(6) 0.953(2)
H29_9 H 0.3806 0.1199 0.9570
H31_9 H 0.1199 0.3806 0.9570
H40_9 H 0.3685 0.1730 0.9343
H42_9 H 0.1730 0.3685 0.9343
H51_9 H 0.3272 0.1309 0.9346
H53_9 H 0.1309 0.3272 0.9346
O33_10 O 0.75773(12) 0.81697(12) 0.05325(11)
O36_10 O 0.81697(12) 0.75773(12) 0.05325(11)
N5_19 N 0.6615(2) 0.8385(2) -0.0000
N6_19 N 0.8385(2) 0.6615(2) -0.0000
H9_19 H 0.6380 0.8620 -0.0000
H10_19 H 0.8620 0.6380 -0.0000
C46_10 C 0.6450(6) 0.8550(6) 0.047(2)
C48_10 C 0.8550(6) 0.6450(6) 0.047(2)
H25_6 H 0.8801 0.4570 0.1194
H26_5 H 0.8806 0.5430 0.1199
H27_6 H 0.6194 0.4570 0.3801
H28_6 H 0.6199 0.5430 0.3806
H30_10 H 0.6199 0.8806 0.0430
H32_10 H 0.8806 0.6199 0.0430
H36_6 H 0.8270 0.4343 0.1315
H37_6 H 0.8685 0.5657 0.1730
H38_6 H 0.6315 0.4343 0.3270
H39_6 H 0.6730 0.5657 0.3685
H41_10 H 0.6730 0.8685 0.0657
H43_10 H 0.8685 0.6730 0.0657
H47_6 H 0.8691 0.4346 0.1728
H48_6 H 0.8272 0.5654 0.1309
H49_6 H 0.6728 0.4346 0.3691
H50_6 H 0.6309 0.5654 0.3272
H52_10 H 0.6309 0.8272 0.0654
H54_10 H 0.8272 0.6309 0.0654
O31_10 O 0.75773(12) 0.81697(12) 0.94675(11)
O34_10 O 0.81697(12) 0.75773(12) 0.94675(11)
N5_20 N 0.6615(2) 0.8385(2) 1.0000
N6_20 N 0.8385(2) 0.6615(2) 1.0000
H9_20 H 0.6380 0.8620 1.0000
H10_20 H 0.8620 0.6380 1.0000
C45_10 C 0.6450(6) 0.8550(6) 0.953(2)
C47_10 C 0.8550(6) 0.6450(6) 0.953(2)
H29_10 H 0.6194 0.8801 0.9570
H31_10 H 0.8801 0.6194 0.9570
H40_10 H 0.6315 0.8270 0.9343
H42_10 H 0.8270 0.6315 0.9343
H51_10 H 0.6728 0.8691 0.9346
H53_10 H 0.8691 0.6728 0.9346
O31_11 O 0.24227(12) 0.81697(12) 0.05325(11)
O34_11 O 0.18303(12) 0.75773(12) 0.05325(11)
N5_21 N 0.3385(2) 0.8385(2) 0.0000
N6_21 N 0.1615(2) 0.6615(2) 0.0000
H9_21 H 0.3620 0.8620 0.0000
H10_21 H 0.1380 0.6380 0.0000
C45_11 C 0.3550(6) 0.8550(6) 0.047(2)
C47_11 C 0.1450(6) 0.6450(6) 0.047(2)
H29_11 H 0.3806 0.8801 0.0430
H31_11 H 0.1199 0.6194 0.0430
H40_11 H 0.3685 0.8270 0.0657
H42_11 H 0.1730 0.6315 0.0657
H51_11 H 0.3272 0.8691 0.0654
H53_11 H 0.1309 0.6728 0.0654
O33_11 O 0.24227(12) 0.81697(12) 0.94675(11)
O36_11 O 0.18303(12) 0.75773(12) 0.94675(11)
N5_22 N 0.3385(2) 0.8385(2) 1.0000
N6_22 N 0.1615(2) 0.6615(2) 1.0000
H9_22 H 0.3620 0.8620 1.0000
H10_22 H 0.1380 0.6380 1.0000
C46_11 C 0.3550(6) 0.8550(6) 0.953(2)
C48_11 C 0.1450(6) 0.6450(6) 0.953(2)
H25_7 H 0.1199 0.4570 0.8806
H26_6 H 0.1194 0.5430 0.8801
H27_7 H 0.3806 0.4570 0.6199
H28_7 H 0.3801 0.5430 0.6194
H30_11 H 0.3801 0.8806 0.9570
H32_11 H 0.1194 0.6199 0.9570
H36_7 H 0.1730 0.4343 0.8685
H37_7 H 0.1315 0.5657 0.8270
H38_7 H 0.3685 0.4343 0.6730
H39_7 H 0.3270 0.5657 0.6315
H41_11 H 0.3270 0.8685 0.9343
H43_11 H 0.1315 0.6730 0.9343
H47_7 H 0.1309 0.4346 0.8272
H48_7 H 0.1728 0.5654 0.8691
H49_7 H 0.3272 0.4346 0.6309
H50_7 H 0.3691 0.5654 0.6728
H52_11 H 0.3691 0.8272 0.9346
H54_11 H 0.1728 0.6309 0.9346
O31_12 O 0.75773(12) 0.18303(12) 0.05325(11)
O34_12 O 0.81697(12) 0.24227(12) 0.05325(11)
N5_23 N 0.6615(2) 0.1615(2) 0.0000
N6_23 N 0.8385(2) 0.3385(2) 0.0000
H9_23 H 0.6380 0.1380 0.0000
H10_23 H 0.8620 0.3620 0.0000
C45_12 C 0.6450(6) 0.1450(6) 0.047(2)
C47_12 C 0.8550(6) 0.3550(6) 0.047(2)
H29_12 H 0.6194 0.1199 0.0430
H31_12 H 0.8801 0.3806 0.0430
H40_12 H 0.6315 0.1730 0.0657
H42_12 H 0.8270 0.3685 0.0657
H51_12 H 0.6728 0.1309 0.0654
H53_12 H 0.8691 0.3272 0.0654
O33_12 O 0.75773(12) 0.18303(12) 0.94675(11)
O36_12 O 0.81697(12) 0.24227(12) 0.94675(11)
N5_24 N 0.6615(2) 0.1615(2) 1.0000
N6_24 N 0.8385(2) 0.3385(2) 1.0000
H9_24 H 0.6380 0.1380 1.0000
H10_24 H 0.8620 0.3620 1.0000
C46_12 C 0.6450(6) 0.1450(6) 0.953(2)
C48_12 C 0.8550(6) 0.3550(6) 0.953(2)
H25_8 H 0.8801 0.5430 0.8806
H26_7 H 0.8806 0.4570 0.8801
H27_8 H 0.6194 0.5430 0.6199
H28_8 H 0.6199 0.4570 0.6194
H30_12 H 0.6199 0.1194 0.9570
H32_12 H 0.8806 0.3801 0.9570
H36_8 H 0.8270 0.5657 0.8685
H37_8 H 0.8685 0.4343 0.8270
H38_8 H 0.6315 0.5657 0.6730
H39_8 H 0.6730 0.4343 0.6315
H41_12 H 0.6730 0.1315 0.9343
H43_12 H 0.8685 0.3270 0.9343
H47_8 H 0.8691 0.5654 0.8272
H48_8 H 0.8272 0.4346 0.8691
H49_8 H 0.6728 0.5654 0.6309
H50_8 H 0.6309 0.4346 0.6728
H52_12 H 0.6309 0.1728 0.9346
H54_12 H 0.8272 0.3691 0.9346
H25_9 H 0.4570 0.1199 0.1194
H27_9 H 0.4570 0.3806 0.3801
H28_9 H 0.5430 0.3801 0.3806
H30_13 H 0.8806 0.3801 0.0430
H32_13 H 0.6199 0.1194 0.0430
H36_9 H 0.4343 0.1730 0.1315
H37_9 H 0.5657 0.1315 0.1730
H38_9 H 0.4343 0.3685 0.3270
H39_9 H 0.5657 0.3270 0.3685
H41_13 H 0.8685 0.3270 0.0657
H43_13 H 0.6730 0.1315 0.0657
H47_9 H 0.4346 0.1309 0.1728
H48_9 H 0.5654 0.1728 0.1309
H49_9 H 0.4346 0.3272 0.3691
H50_9 H 0.5654 0.3691 0.3272
H52_13 H 0.8272 0.3691 0.0654
H54_13 H 0.6309 0.1728 0.0654
H29_13 H 0.8801 0.3806 0.9570
H31_13 H 0.6194 0.1199 0.9570
H40_13 H 0.8270 0.3685 0.9343
H42_13 H 0.6315 0.1730 0.9343
H51_13 H 0.8691 0.3272 0.9346
H53_13 H 0.6728 0.1309 0.9346
H29_14 H 0.8801 0.6194 0.0430
H31_14 H 0.6194 0.8801 0.0430
H40_14 H 0.8270 0.6315 0.0657
H42_14 H 0.6315 0.8270 0.0657
H51_14 H 0.8691 0.6728 0.0654
H53_14 H 0.6728 0.8691 0.0654
H25_10 H 0.4570 0.8801 0.8806
H26_8 H 0.5430 0.8806 0.8801
H27_10 H 0.4570 0.6194 0.6199
H28_10 H 0.5430 0.6199 0.6194
H30_14 H 0.8806 0.6199 0.9570
H32_14 H 0.6199 0.8806 0.9570
H36_10 H 0.4343 0.8270 0.8685
H37_10 H 0.5657 0.8685 0.8270
H38_10 H 0.4343 0.6315 0.6730
H39_10 H 0.5657 0.6730 0.6315
H41_14 H 0.8685 0.6730 0.9343
H43_14 H 0.6730 0.8685 0.9343
H47_10 H 0.4346 0.8691 0.8272
H48_10 H 0.5654 0.8272 0.8691
H49_10 H 0.4346 0.6728 0.6309
H50_10 H 0.5654 0.6309 0.6728
H52_14 H 0.8272 0.6309 0.9346
H54_14 H 0.6309 0.8272 0.9346
H25_11 H 0.5430 0.8801 0.1194
H26_9 H 0.4570 0.8806 0.1199
H27_11 H 0.5430 0.6194 0.3801
H28_11 H 0.4570 0.6199 0.3806
H30_15 H 0.1194 0.6199 0.0430
H32_15 H 0.3801 0.8806 0.0430
H36_11 H 0.5657 0.8270 0.1315
H37_11 H 0.4343 0.8685 0.1730
H38_11 H 0.5657 0.6315 0.3270
H39_11 H 0.4343 0.6730 0.3685
H41_15 H 0.1315 0.6730 0.0657
H43_15 H 0.3270 0.8685 0.0657
H47_11 H 0.5654 0.8691 0.1728
H48_11 H 0.4346 0.8272 0.1309
H49_11 H 0.5654 0.6728 0.3691
H50_11 H 0.4346 0.6309 0.3272
H52_15 H 0.1728 0.6309 0.0654
H54_15 H 0.3691 0.8272 0.0654
H29_15 H 0.1199 0.6194 0.9570
H31_15 H 0.3806 0.8801 0.9570
H40_15 H 0.1730 0.6315 0.9343
H42_15 H 0.3685 0.8270 0.9343
H51_15 H 0.1309 0.6728 0.9346
H53_15 H 0.3272 0.8691 0.9346
H29_16 H 0.1199 0.3806 0.0430
H31_16 H 0.3806 0.1199 0.0430
H40_16 H 0.1730 0.3685 0.0657
H42_16 H 0.3685 0.1730 0.0657
H51_16 H 0.1309 0.3272 0.0654
H53_16 H 0.3272 0.1309 0.0654
H25_12 H 0.5430 0.1199 0.8806
H26_10 H 0.4570 0.1194 0.8801
H27_12 H 0.5430 0.3806 0.6199
H28_12 H 0.4570 0.3801 0.6194
H30_16 H 0.1194 0.3801 0.9570
H32_16 H 0.3801 0.1194 0.9570
H36_12 H 0.5657 0.1730 0.8685
H37_12 H 0.4343 0.1315 0.8270
H38_12 H 0.5657 0.3685 0.6730
H39_12 H 0.4343 0.3270 0.6315
H41_16 H 0.1315 0.3270 0.9343
H43_16 H 0.3270 0.1315 0.9343
H47_12 H 0.5654 0.1309 0.8272
H48_12 H 0.4346 0.1728 0.8691
H49_12 H 0.5654 0.3272 0.6309
H50_12 H 0.4346 0.3691 0.6728
H52_16 H 0.1728 0.3691 0.9346
H54_16 H 0.3691 0.1728 0.9346
H3_9 H 0.3806 0.3801 0.5430
H4_9 H 0.3685 0.3270 0.5657
H5_9 H 0.3272 0.3691 0.5654
H22_9 H 0.3801 0.3806 0.4570
H23_9 H 0.1199 0.1194 0.5430
H25_13 H 0.5430 0.1194 0.1199
H30_17 H 0.1194 0.0430 0.3801
H32_17 H 0.3801 0.0430 0.1194
H33_9 H 0.3270 0.3685 0.4343
H34_9 H 0.1730 0.1315 0.5657
H35_9 H 0.1315 0.1730 0.4343
H41_17 H 0.1315 0.0657 0.3270
H43_17 H 0.3270 0.0657 0.1315
H44_9 H 0.3691 0.3272 0.4346
H45_9 H 0.1309 0.1728 0.5654
H46_9 H 0.1728 0.1309 0.4346
H52_17 H 0.1728 0.0654 0.3691
H54_17 H 0.3691 0.0654 0.1728
H29_17 H 0.1199 0.9570 0.3806
H31_17 H 0.3806 0.9570 0.1199
H40_17 H 0.1730 0.9343 0.3685
H42_17 H 0.3685 0.9343 0.1730
H51_17 H 0.1309 0.9346 0.3272
H53_17 H 0.3272 0.9346 0.1309
H3_10 H 0.6194 0.3801 0.4570
H4_10 H 0.6315 0.3270 0.4343
H5_10 H 0.6728 0.3691 0.4346
H22_10 H 0.6199 0.3806 0.5430
H23_10 H 0.8801 0.1194 0.4570
H24_9 H 0.8806 0.1199 0.5430
H30_18 H 0.8806 0.0430 0.6199
H32_18 H 0.6199 0.0430 0.8806
H33_10 H 0.6730 0.3685 0.5657
H34_10 H 0.8270 0.1315 0.4343
H35_10 H 0.8685 0.1730 0.5657
H41_18 H 0.8685 0.0657 0.6730
H43_18 H 0.6730 0.0657 0.8685
H44_10 H 0.6309 0.3272 0.5654
H45_10 H 0.8691 0.1728 0.4346
H46_10 H 0.8272 0.1309 0.5654
H52_18 H 0.8272 0.0654 0.6309
H54_18 H 0.6309 0.0654 0.8272
H29_18 H 0.8801 0.9570 0.6194
H31_18 H 0.6194 0.9570 0.8801
H40_18 H 0.8270 0.9343 0.6315
H42_18 H 0.6315 0.9343 0.8270
H51_18 H 0.8691 0.9346 0.6728
H53_18 H 0.6728 0.9346 0.8691
H29_19 H 0.8801 0.0430 0.3806
H31_19 H 0.6194 0.0430 0.1199
H40_19 H 0.8270 0.0657 0.3685
H42_19 H 0.6315 0.0657 0.1730
H51_19 H 0.8691 0.0654 0.3272
H53_19 H 0.6728 0.0654 0.1309
H3_11 H 0.6194 0.6199 0.5430
H4_11 H 0.6315 0.6730 0.5657
H5_11 H 0.6728 0.6309 0.5654
H22_11 H 0.6199 0.6194 0.4570
H23_11 H 0.8801 0.8806 0.5430
H24_10 H 0.8806 0.8801 0.4570
H30_19 H 0.8806 0.9570 0.3801
H32_19 H 0.6199 0.9570 0.1194
H33_11 H 0.6730 0.6315 0.4343
H34_11 H 0.8270 0.8685 0.5657
H35_11 H 0.8685 0.8270 0.4343
H41_19 H 0.8685 0.9343 0.3270
H43_19 H 0.6730 0.9343 0.1315
H44_11 H 0.6309 0.6728 0.4346
H45_11 H 0.8691 0.8272 0.5654
H46_11 H 0.8272 0.8691 0.4346
H52_19 H 0.8272 0.9346 0.3691
H54_19 H 0.6309 0.9346 0.1728
H29_20 H 0.1199 0.0430 0.6194
H31_20 H 0.3806 0.0430 0.8801
H40_20 H 0.1730 0.0657 0.6315
H42_20 H 0.3685 0.0657 0.8270
H51_20 H 0.1309 0.0654 0.6728
H53_20 H 0.3272 0.0654 0.8691
H3_12 H 0.3806 0.6199 0.4570
H4_12 H 0.3685 0.6730 0.4343
H5_12 H 0.3272 0.6309 0.4346
H22_12 H 0.3801 0.6194 0.5430
H23_12 H 0.1199 0.8806 0.4570
H24_11 H 0.1194 0.8801 0.5430
H30_20 H 0.1194 0.9570 0.6199
H32_20 H 0.3801 0.9570 0.8806
H33_12 H 0.3270 0.6315 0.5657
H34_12 H 0.1730 0.8685 0.4343
H35_12 H 0.1315 0.8270 0.5657
H41_20 H 0.1315 0.9343 0.6730
H43_20 H 0.3270 0.9343 0.8685
H44_12 H 0.3691 0.6728 0.5654
H45_12 H 0.1309 0.8272 0.4346
H46_12 H 0.1728 0.8691 0.5654
H52_20 H 0.1728 0.9346 0.6309
H54_20 H 0.3691 0.9346 0.8272
H29_21 H 0.0430 0.8801 0.6194
H31_21 H 0.0430 0.6194 0.8801
H40_21 H 0.0657 0.8270 0.6315
H42_21 H 0.0657 0.6315 0.8270
H51_21 H 0.0654 0.8691 0.6728
H53_21 H 0.0654 0.6728 0.8691
H30_21 H 0.9570 0.8806 0.6199
H32_21 H 0.9570 0.6199 0.8806
H41_21 H 0.9343 0.8685 0.6730
H43_21 H 0.9343 0.6730 0.8685
H52_21 H 0.9346 0.8272 0.6309
H54_21 H 0.9346 0.6309 0.8272
H29_22 H 0.0430 0.1199 0.3806
H31_22 H 0.0430 0.3806 0.1199
H40_22 H 0.0657 0.1730 0.3685
H42_22 H 0.0657 0.3685 0.1730
H51_22 H 0.0654 0.1309 0.3272
H53_22 H 0.0654 0.3272 0.1309
H30_22 H 0.9570 0.1194 0.3801
H32_22 H 0.9570 0.3801 0.1194
H41_22 H 0.9343 0.1315 0.3270
H43_22 H 0.9343 0.3270 0.1315
H52_22 H 0.9346 0.1728 0.3691
H54_22 H 0.9346 0.3691 0.1728
H25_14 H 0.1194 0.4570 0.1199
H30_23 H 0.0430 0.8806 0.3801
H32_23 H 0.0430 0.6199 0.1194
H41_23 H 0.0657 0.8685 0.3270
H43_23 H 0.0657 0.6730 0.1315
H52_23 H 0.0654 0.8272 0.3691
H54_23 H 0.0654 0.6309 0.1728
H29_23 H 0.9570 0.8801 0.3806
H31_23 H 0.9570 0.6194 0.1199
H40_23 H 0.9343 0.8270 0.3685
H42_23 H 0.9343 0.6315 0.1730
H51_23 H 0.9346 0.8691 0.3272
H53_23 H 0.9346 0.6728 0.1309
H30_24 H 0.0430 0.1194 0.6199
H32_24 H 0.0430 0.3801 0.8806
H41_24 H 0.0657 0.1315 0.6730
H43_24 H 0.0657 0.3270 0.8685
H52_24 H 0.0654 0.1728 0.6309
H54_24 H 0.0654 0.3691 0.8272
H29_24 H 0.9570 0.1199 0.6194
H31_24 H 0.9570 0.3806 0.8801
H40_24 H 0.9343 0.1730 0.6315
H42_24 H 0.9343 0.3685 0.8270
H51_24 H 0.9346 0.1309 0.6728
H53_24 H 0.9346 0.3272 0.8691
C10_9 C 0.20208(16) 0.0694(2) 0.79792(16)
C11_9 C 0.20208(16) 0.20208(16) 0.9306(2)
C12_9 C 0.0694(2) 0.20208(16) 0.79792(16)
C21_9 C 0.17777(16) 0.1136(2) 0.82223(16)
C22_9 C 0.17777(16) 0.17777(16) 0.8864(2)
C23_9 C 0.1136(2) 0.17777(16) 0.82223(16)
C32_9 C 0.1985(2) 0.13502(17) 0.86498(17)
C33_9 C 0.13502(17) 0.1985(2) 0.86498(17)
C34_9 C 0.13502(17) 0.13502(17) 0.8015(2)
H16_9 H 0.2268 0.1205 0.8795
H17_9 H 0.1205 0.1205 0.7732
H18_9 H 0.1205 0.2268 0.8795
C1_9 C 0.20208(16) 0.9306(2) 0.79792(16)
C2_9 C 0.17777(16) 0.8864(2) 0.82223(16)
C3_9 C 0.1985(2) 0.86498(17) 0.86498(17)
H2_9 H 0.2268 0.8795 0.8795
C5_9 C 0.20208(16) 0.79792(16) 0.9306(2)
C6_9 C 0.0694(2) 0.79792(16) 0.79792(16)
C16_9 C 0.17777(16) 0.82223(16) 0.8864(2)
C17_9 C 0.1136(2) 0.82223(16) 0.82223(16)
C27_9 C 0.13502(17) 0.8015(2) 0.86498(17)
C28_9 C 0.13502(17) 0.86498(17) 0.8015(2)
H11_9 H 0.1205 0.8795 0.7732
H12_9 H 0.1205 0.7732 0.8795
C1_10 C 0.20208(16) 0.0694(2) 0.20208(16)
C2_10 C 0.17777(16) 0.1136(2) 0.17777(16)
C3_10 C 0.1985(2) 0.13502(17) 0.13502(17)
H2_10 H 0.2268 0.1205 0.1205
C5_10 C 0.20208(16) 0.20208(16) 0.0694(2)
C6_10 C 0.0694(2) 0.20208(16) 0.20208(16)
C16_10 C 0.17777(16) 0.17777(16) 0.1136(2)
C17_10 C 0.1136(2) 0.17777(16) 0.17777(16)
C27_10 C 0.13502(17) 0.1985(2) 0.13502(17)
C28_10 C 0.13502(17) 0.13502(17) 0.1985(2)
H11_10 H 0.1205 0.1205 0.2268
H12_10 H 0.1205 0.2268 0.1205
C10_10 C 0.20208(16) 0.9306(2) 0.20208(16)
C11_10 C 0.20208(16) 0.79792(16) 0.0694(2)
C12_10 C 0.0694(2) 0.79792(16) 0.20208(16)
C21_10 C 0.17777(16) 0.8864(2) 0.17777(16)
C22_10 C 0.17777(16) 0.82223(16) 0.1136(2)
C23_10 C 0.1136(2) 0.82223(16) 0.17777(16)
C32_10 C 0.1985(2) 0.86498(17) 0.13502(17)
C33_10 C 0.13502(17) 0.8015(2) 0.13502(17)
C34_10 C 0.13502(17) 0.86498(17) 0.1985(2)
H16_10 H 0.2268 0.8795 0.1205
H17_10 H 0.1205 0.8795 0.2268
H18_10 H 0.1205 0.7732 0.1205
C1_11 C 0.79792(16) 0.0694(2) 0.79792(16)
C2_11 C 0.82223(16) 0.1136(2) 0.82223(16)
C3_11 C 0.8015(2) 0.13502(17) 0.86498(17)
H2_11 H 0.7732 0.1205 0.8795
C5_11 C 0.79792(16) 0.20208(16) 0.9306(2)
C6_11 C 0.9306(2) 0.20208(16) 0.79792(16)
C16_11 C 0.82223(16) 0.17777(16) 0.8864(2)
C17_11 C 0.8864(2) 0.17777(16) 0.82223(16)
C27_11 C 0.86498(17) 0.1985(2) 0.86498(17)
C28_11 C 0.86498(17) 0.13502(17) 0.8015(2)
H11_11 H 0.8795 0.1205 0.7732
H12_11 H 0.8795 0.2268 0.8795
C10_11 C 0.79792(16) 0.9306(2) 0.79792(16)
C11_11 C 0.79792(16) 0.79792(16) 0.9306(2)
C12_11 C 0.9306(2) 0.79792(16) 0.79792(16)
C21_11 C 0.82223(16) 0.8864(2) 0.82223(16)
C22_11 C 0.82223(16) 0.82223(16) 0.8864(2)
C23_11 C 0.8864(2) 0.82223(16) 0.82223(16)
C32_11 C 0.8015(2) 0.86498(17) 0.86498(17)
C33_11 C 0.86498(17) 0.8015(2) 0.86498(17)
C34_11 C 0.86498(17) 0.86498(17) 0.8015(2)
H16_11 H 0.7732 0.8795 0.8795
H17_11 H 0.8795 0.8795 0.7732
H18_11 H 0.8795 0.7732 0.8795
C10_12 C 0.79792(16) 0.0694(2) 0.20208(16)
C11_12 C 0.79792(16) 0.20208(16) 0.0694(2)
C12_12 C 0.9306(2) 0.20208(16) 0.20208(16)
C21_12 C 0.82223(16) 0.1136(2) 0.17777(16)
C22_12 C 0.82223(16) 0.17777(16) 0.1136(2)
C23_12 C 0.8864(2) 0.17777(16) 0.17777(16)
C32_12 C 0.8015(2) 0.13502(17) 0.13502(17)
C33_12 C 0.86498(17) 0.1985(2) 0.13502(17)
C34_12 C 0.86498(17) 0.13502(17) 0.1985(2)
H16_12 H 0.7732 0.1205 0.1205
H17_12 H 0.8795 0.1205 0.2268
H18_12 H 0.8795 0.2268 0.1205
C1_12 C 0.79792(16) 0.9306(2) 0.20208(16)
C2_12 C 0.82223(16) 0.8864(2) 0.17777(16)
C3_12 C 0.8015(2) 0.86498(17) 0.13502(17)
H2_12 H 0.7732 0.8795 0.1205
C5_12 C 0.79792(16) 0.79792(16) 0.0694(2)
C6_12 C 0.9306(2) 0.79792(16) 0.20208(16)
C16_12 C 0.82223(16) 0.82223(16) 0.1136(2)
C17_12 C 0.8864(2) 0.82223(16) 0.17777(16)
C27_12 C 0.86498(17) 0.8015(2) 0.13502(17)
C28_12 C 0.86498(17) 0.86498(17) 0.1985(2)
H11_12 H 0.8795 0.8795 0.2268
H12_12 H 0.8795 0.7732 0.1205
H32_25 H 0.1194 0.1199 0.4570
loop_
_geom_bond_atom_site_label_1
_geom_bond_atom_site_label_2
_geom_bond_site_symmetry_1
_geom_bond_site_symmetry_2
Ni1 O1 1_555 1_555
O1 C1 1_555 1_555
N1 Ni1 1_555 1_555
H1 N1 1_555 1_555
C1 C2 1_555 1_555
C2 C3 1_555 1_555
C3 H2 1_555 1_555
C4 N1 1_555 1_555
H3 C4 1_555 1_555
H4 C4 1_555 1_555
H5 C4 1_555 1_555
Ni2 O2 1_555 1_555
Ni3 O3 1_555 1_555
Ni4 O4 1_555 1_555
Ni5 O5 1_555 1_555
Ni6 O6 1_555 1_555
Ni7 O9 1_555 1_555
Ni8 O10 1_555 1_555
Ni9 O11 1_555 1_555
Ni10 O12 1_555 1_555
Ni11 O15 1_555 1_555
Ni12 O16 1_555 1_555
Ni13 O17 1_555 1_555
Ni14 O18 1_555 1_555
Ni15 O21 1_555 1_555
Ni16 O22 1_555 1_555
Ni17 O23 1_555 1_555
Ni18 O24 1_555 1_555
O2 C1 1_555 1_555
O3 C5 1_555 1_555
O4 C5 1_555 1_555
O5 C6 1_555 1_555
O6 C6 1_555 1_555
O7 Ni1 1_555 1_555
O8 Ni2 1_555 1_555
O9 C8 1_555 1_555
O10 C8 1_555 1_555
O11 C9 1_555 1_555
O12 C9 1_555 1_555
O13 Ni1 1_555 1_555
O14 Ni2 1_555 1_555
O15 C11 1_555 1_555
O16 C11 1_555 1_555
O17 C12 1_555 1_555
O18 C12 1_555 1_555
O19 Ni1 1_555 1_555
O20 Ni2 1_555 1_555
O21 C14 1_555 1_555
O22 C14 1_555 1_555
O23 C15 1_555 1_555
O24 C15 1_555 1_555
O25 Ni3 1_555 1_555
O26 Ni3 1_555 1_555
O27 Ni3 1_555 1_555
O28 Ni4 1_555 1_555
O29 Ni4 1_555 1_555
O30 Ni4 1_555 1_555
O33 Ni5 1_555 1_555
O36 Ni6 1_555 1_555
N2 Ni2 1_555 1_555
N3 Ni3 1_555 1_555
N4 Ni4 1_555 1_555
N5 Ni5 1_555 1_555
N6 Ni6 1_555 1_555
H6 N2 1_555 1_555
H7 N3 1_555 1_555
H8 N4 1_555 1_555
H9 N5 1_555 1_555
H10 N6 1_555 1_555
C5 C16 1_555 1_555
C6 C17 1_555 1_555
C7 O7 1_555 1_555
C8 C19 1_555 1_555
C9 C20 1_555 1_555
C10 O13 1_555 1_555
C11 C22 1_555 1_555
C12 C23 1_555 1_555
C13 O19 1_555 1_555
C14 C25 1_555 1_555
C15 C26 1_555 1_555
C16 C3 1_555 1_555
C17 C27 1_555 1_555
C18 C7 1_555 1_555
C19 C29 1_555 1_555
C20 C30 1_555 1_555
C21 C10 1_555 1_555
C22 C32 1_555 1_555
C23 C33 1_555 1_555
C24 C13 1_555 1_555
C25 C35 1_555 1_555
C26 C36 1_555 1_555
C27 C16 1_555 1_555
C28 C2 1_555 1_555
C29 C18 1_555 1_555
C30 C19 1_555 1_555
C31 C18 1_555 1_555
C32 C21 1_555 1_555
C33 C22 1_555 1_555
C34 C21 1_555 1_555
C35 C24 1_555 1_555
C36 C25 1_555 1_555
C37 C24 1_555 1_555
H11 C28 1_555 1_555
H12 C27 1_555 1_555
H13 C29 1_555 1_555
H14 C31 1_555 1_555
H15 C30 1_555 1_555
H16 C32 1_555 1_555
H17 C34 1_555 1_555
H18 C33 1_555 1_555
H19 C35 1_555 1_555
H20 C37 1_555 1_555
H21 C36 1_555 1_555
C38 N1 1_555 1_555
C39 N2 1_555 1_555
C40 N2 1_555 1_555
C41 N3 1_555 1_555
C42 N3 1_555 1_555
C43 N4 1_555 1_555
C44 N4 1_555 1_555
C46 N5 1_555 1_555
C48 N6 1_555 1_555
H22 C38 1_555 1_555
H23 C39 1_555 1_555
H24 C40 1_555 1_555
H25 C41 1_555 1_555
H26 C42 1_555 1_555
H27 C43 1_555 1_555
H28 C44 1_555 1_555
H30 C46 1_555 1_555
H32 C48 1_555 1_555
H33 C38 1_555 1_555
H34 C39 1_555 1_555
H35 C40 1_555 1_555
H36 C41 1_555 1_555
H37 C42 1_555 1_555
H38 C43 1_555 1_555
H39 C44 1_555 1_555
H41 C46 1_555 1_555
H43 C48 1_555 1_555
H44 C38 1_555 1_555
H45 C39 1_555 1_555
H46 C40 1_555 1_555
H47 C41 1_555 1_555
H48 C42 1_555 1_555
H49 C43 1_555 1_555
H50 C44 1_555 1_555
H52 C46 1_555 1_555
H54 C48 1_555 1_555
O8 C7 1_555 1_555
O14 C10 1_555 1_555
O20 C13 1_555 1_555
C17 C28 1_555 1_555
C20 C31 1_555 1_555
C23 C34 1_555 1_555
C26 C37 1_555 1_555
O31 Ni5_2 1_555 1_555
O32 Ni5_2 1_555 1_555
O34 Ni6_2 1_555 1_555
O35 Ni6_2 1_555 1_555
N5_2 Ni5_2 1_555 1_555
N6_2 Ni6_2 1_555 1_555
H9_2 N5_2 1_555 1_555
H10_2 N6_2 1_555 1_555
C45 N5_2 1_555 1_555
C47 N6_2 1_555 1_555
H29 C45 1_555 1_555
H31 C47 1_555 1_555
H40 C45 1_555 1_555
H42 C47 1_555 1_555
H51 C45 1_555 1_555
H53 C47 1_555 1_555
Ni1_2 O1_2 1_555 1_555
O1_2 C1_2 1_555 1_555
N1_2 Ni1_2 1_555 1_555
H1_2 N1_2 1_555 1_555
C1_2 C2_2 1_555 1_555
C2_2 C3_2 1_555 1_555
C3_2 H2_2 1_555 1_555
C4_2 N1_2 1_555 1_555
H3_2 C4_2 1_555 1_555
H4_2 C4_2 1_555 1_555
H5_2 C4_2 1_555 1_555
Ni2_2 O2_2 1_555 1_555
Ni11 O3_2 1_555 1_555
Ni12 O4_2 1_555 1_555
Ni5_3 O5_2 1_555 1_555
Ni6_3 O6_2 1_555 1_555
Ni7_2 O9_2 1_555 1_555
Ni8_2 O10_2 1_555 1_555
Ni17_2 O11_2 1_555 1_555
Ni18_2 O12_2 1_555 1_555
Ni13_3 O17_2 1_555 1_555
Ni14_3 O18_2 1_555 1_555
Ni15_2 O21_2 1_555 1_555
Ni16_2 O22_2 1_555 1_555
Ni9_2 O23_2 1_555 1_555
Ni10_2 O24_2 1_555 1_555
O2_2 C1_2 1_555 1_555
O3_2 C5_2 1_555 1_555
O4_2 C5_2 1_555 1_555
O5_2 C6_2 1_555 1_555
O6_2 C6_2 1_555 1_555
O7_2 Ni1_2 1_555 1_555
O8_2 Ni2_2 1_555 1_555
O9_2 C8_2 1_555 1_555
O10_2 C8_2 1_555 1_555
O11_2 C9_2 1_555 1_555
O12_2 C9_2 1_555 1_555
O13_2 Ni1_2 1_555 1_555
O14_2 Ni2_2 1_555 1_555
O26 C11_2 1_555 1_555
O29 C11_2 1_555 1_555
O17_2 C12_2 1_555 1_555
O18_2 C12_2 1_555 1_555
O19_2 Ni1_2 1_555 1_555
O20_2 Ni2_2 1_555 1_555
O21_2 C14_2 1_555 1_555
O22_2 C14_2 1_555 1_555
O23_2 C15_2 1_555 1_555
O24_2 C15_2 1_555 1_555
O25_2 Ni11 1_555 1_555
O27_2 Ni11 1_555 1_555
O28_2 Ni12 1_555 1_555
O30_2 Ni12 1_555 1_555
O33_2 Ni5_3 1_555 1_555
O36_2 Ni6_3 1_555 1_555
N2_2 Ni2_2 1_555 1_555
N3_2 Ni11 1_555 1_555
N4_2 Ni12 1_555 1_555
N5_3 Ni5_3 1_555 1_555
N6_3 Ni6_3 1_555 1_555
H6_2 N2_2 1_555 1_555
H7_2 N3_2 1_555 1_555
H8_2 N4_2 1_555 1_555
H9_3 N5_3 1_555 1_555
H10_3 N6_3 1_555 1_555
C5_2 C16_2 1_555 1_555
C6_2 C17_2 1_555 1_555
C7_2 O7_2 1_555 1_555
C8_2 C19_2 1_555 1_555
C9_2 C20_2 1_555 1_555
C10_2 O13_2 1_555 1_555
C11_2 C22_2 1_555 1_555
C12_2 C23_2 1_555 1_555
C13_2 O19_2 1_555 1_555
C14_2 C25_2 1_555 1_555
C15_2 C26_2 1_555 1_555
C16_2 C3_2 1_555 1_555
C17_2 C27_2 1_555 1_555
C18_2 C7_2 1_555 1_555
C19_2 C29_2 1_555 1_555
C20_2 C30_2 1_555 1_555
C21_2 C10_2 1_555 1_555
C22_2 C32_2 1_555 1_555
C23_2 C33_2 1_555 1_555
C24_2 C13_2 1_555 1_555
C25_2 C35_2 1_555 1_555
C26_2 C36_2 1_555 1_555
C27_2 C16_2 1_555 1_555
C28_2 C2_2 1_555 1_555
C29_2 C18_2 1_555 1_555
C30_2 C19_2 1_555 1_555
C31_2 C18_2 1_555 1_555
C32_2 C21_2 1_555 1_555
C33_2 C22_2 1_555 1_555
C34_2 C21_2 1_555 1_555
C35_2 C24_2 1_555 1_555
C36_2 C25_2 1_555 1_555
C37_2 C24_2 1_555 1_555
H11_2 C28_2 1_555 1_555
H12_2 C27_2 1_555 1_555
H13_2 C29_2 1_555 1_555
H14_2 C31_2 1_555 1_555
H15_2 C30_2 1_555 1_555
H16_2 C32_2 1_555 1_555
H17_2 C34_2 1_555 1_555
H18_2 C33_2 1_555 1_555
H19_2 C35_2 1_555 1_555
H20_2 C37_2 1_555 1_555
H21_2 C36_2 1_555 1_555
C38_2 N1_2 1_555 1_555
C39_2 N2_2 1_555 1_555
C40_2 N2_2 1_555 1_555
C41_2 N3_2 1_555 1_555
C42_2 N3_2 1_555 1_555
C43_2 N4_2 1_555 1_555
C44_2 N4_2 1_555 1_555
C46_2 N5_3 1_555 1_555
C48_2 N6_3 1_555 1_555
H22_2 C38_2 1_555 1_555
H23_2 C39_2 1_555 1_555
H24_2 C40_2 1_555 1_555
H25_2 C41_2 1_555 1_555
H26_2 C42_2 1_555 1_555
H27_2 C43_2 1_555 1_555
H28_2 C44_2 1_555 1_555
H30_2 C46_2 1_555 1_555
H32_2 C48_2 1_555 1_555
H33_2 C38_2 1_555 1_555
H34_2 C39_2 1_555 1_555
H35_2 C40_2 1_555 1_555
H36_2 C41_2 1_555 1_555
H37_2 C42_2 1_555 1_555
H38_2 C43_2 1_555 1_555
H39_2 C44_2 1_555 1_555
H41_2 C46_2 1_555 1_555
H43_2 C48_2 1_555 1_555
H44_2 C38_2 1_555 1_555
H45_2 C39_2 1_555 1_555
H46_2 C40_2 1_555 1_555
H47_2 C41_2 1_555 1_555
H48_2 C42_2 1_555 1_555
H49_2 C43_2 1_555 1_555
H50_2 C44_2 1_555 1_555
H52_2 C46_2 1_555 1_555
H54_2 C48_2 1_555 1_555
O8_2 C7_2 1_555 1_555
O14_2 C10_2 1_555 1_555
O20_2 C13_2 1_555 1_555
C17_2 C28_2 1_555 1_555
C20_2 C31_2 1_555 1_555
C23_2 C34_2 1_555 1_555
C26_2 C37_2 1_555 1_555
O31_2 Ni5_4 1_555 1_555
O32_2 Ni5_4 1_555 1_555
O34_2 Ni6_4 1_555 1_555
O35_2 Ni6_4 1_555 1_555
N5_4 Ni5_4 1_555 1_555
N6_4 Ni6_4 1_555 1_555
H9_4 N5_4 1_555 1_555
H10_4 N6_4 1_555 1_555
C45_2 N5_4 1_555 1_555
C47_2 N6_4 1_555 1_555
H29_2 C45_2 1_555 1_555
H31_2 C47_2 1_555 1_555
H40_2 C45_2 1_555 1_555
H42_2 C47_2 1_555 1_555
H51_2 C45_2 1_555 1_555
H53_2 C47_2 1_555 1_555
O31_3 Ni13 1_555 1_555
O34_3 Ni14 1_555 1_555
N5_5 Ni13 1_555 1_555
N6_5 Ni14 1_555 1_555
H9_5 N5_5 1_555 1_555
H10_5 N6_5 1_555 1_555
C45_3 N5_5 1_555 1_555
C47_3 N6_5 1_555 1_555
H29_3 C45_3 1_555 1_555
H31_3 C47_3 1_555 1_555
H40_3 C45_3 1_555 1_555
H42_3 C47_3 1_555 1_555
H51_3 C45_3 1_555 1_555
H53_3 C47_3 1_555 1_555
Ni1_3 O1_3 1_555 1_555
O1_3 C1_3 1_555 1_555
N1_3 Ni1_3 1_555 1_555
H1_3 N1_3 1_555 1_555
C1_3 C2_3 1_555 1_555
C2_3 C3_3 1_555 1_555
C3_3 H2_3 1_555 1_555
C4_3 N1_3 1_555 1_555
H3_3 C4_3 1_555 1_555
H4_3 C4_3 1_555 1_555
H5_3 C4_3 1_555 1_555
Ni2_3 O2_3 1_555 1_555
Ni3_2 O3_3 1_555 1_555
Ni4_2 O4_3 1_555 1_555
Ni13_2 O5_3 1_555 1_555
Ni14_2 O6_3 1_555 1_555
Ni15 O9_3 1_555 1_555
Ni16 O10_3 1_555 1_555
Ni9_3 O11_3 1_555 1_555
Ni10_3 O12_3 1_555 1_555
Ni11_2 O15_2 1_555 1_555
Ni12_2 O16_2 1_555 1_555
Ni7 O21_3 1_555 1_555
Ni8 O22_3 1_555 1_555
Ni17_3 O23_3 1_555 1_555
Ni18_3 O24_3 1_555 1_555
O2_3 C1_3 1_555 1_555
O3_3 C5_3 1_555 1_555
O4_3 C5_3 1_555 1_555
O5_3 C6_3 1_555 1_555
O6_3 C6_3 1_555 1_555
O7_3 Ni1_3 1_555 1_555
O8_3 Ni2_3 1_555 1_555
O9_3 C8_3 1_555 1_555
O10_3 C8_3 1_555 1_555
O11_3 C9_3 1_555 1_555
O12_3 C9_3 1_555 1_555
O13_3 Ni1_3 1_555 1_555
O14_3 Ni2_3 1_555 1_555
O15_2 C11_3 1_555 1_555
O16_2 C11_3 1_555 1_555
O32 C12_3 1_555 1_555
O35 C12_3 1_555 1_555
O19_3 Ni1_3 1_555 1_555
O20_3 Ni2_3 1_555 1_555
O21_3 C14_3 1_555 1_555
O22_3 C14_3 1_555 1_555
O23_3 C15_3 1_555 1_555
O24_3 C15_3 1_555 1_555
O25_3 Ni3_2 1_555 1_555
O26_2 Ni3_2 1_555 1_555
O27_3 Ni3_2 1_555 1_555
O28_3 Ni4_2 1_555 1_555
O29_2 Ni4_2 1_555 1_555
O30_3 Ni4_2 1_555 1_555
O33_3 Ni13_2 1_555 1_555
O36_3 Ni14_2 1_555 1_555
N2_3 Ni2_3 1_555 1_555
N3_3 Ni3_2 1_555 1_555
N4_3 Ni4_2 1_555 1_555
N5_6 Ni13_2 1_555 1_555
N6_6 Ni14_2 1_555 1_555
H6_3 N2_3 1_555 1_555
H7_3 N3_3 1_555 1_555
H8_3 N4_3 1_555 1_555
H9_6 N5_6 1_555 1_555
H10_6 N6_6 1_555 1_555
C5_3 C16_3 1_555 1_555
C6_3 C17_3 1_555 1_555
C7_3 O7_3 1_555 1_555
C8_3 C19_3 1_555 1_555
C9_3 C20_3 1_555 1_555
C10_3 O13_3 1_555 1_555
C11_3 C22_3 1_555 1_555
C12_3 C23_3 1_555 1_555
C13_3 O19_3 1_555 1_555
C14_3 C25_3 1_555 1_555
C15_3 C26_3 1_555 1_555
C16_3 C3_3 1_555 1_555
C17_3 C27_3 1_555 1_555
C18_3 C7_3 1_555 1_555
C19_3 C29_3 1_555 1_555
C20_3 C30_3 1_555 1_555
C21_3 C10_3 1_555 1_555
C22_3 C32_3 1_555 1_555
C23_3 C33_3 1_555 1_555
C24_3 C13_3 1_555 1_555
C25_3 C35_3 1_555 1_555
C26_3 C36_3 1_555 1_555
C27_3 C16_3 1_555 1_555
C28_3 C2_3 1_555 1_555
C29_3 C18_3 1_555 1_555
C30_3 C19_3 1_555 1_555
C31_3 C18_3 1_555 1_555
C32_3 C21_3 1_555 1_555
C33_3 C22_3 1_555 1_555
C34_3 C21_3 1_555 1_555
C35_3 C24_3 1_555 1_555
C36_3 C25_3 1_555 1_555
C37_3 C24_3 1_555 1_555
H11_3 C28_3 1_555 1_555
H12_3 C27_3 1_555 1_555
H13_3 C29_3 1_555 1_555
H14_3 C31_3 1_555 1_555
H15_3 C30_3 1_555 1_555
H16_3 C32_3 1_555 1_555
H17_3 C34_3 1_555 1_555
H18_3 C33_3 1_555 1_555
H19_3 C35_3 1_555 1_555
H20_3 C37_3 1_555 1_555
H21_3 C36_3 1_555 1_555
C38_3 N1_3 1_555 1_555
C39_3 N2_3 1_555 1_555
C40_3 N2_3 1_555 1_555
C41_3 N3_3 1_555 1_555
C42_3 N3_3 1_555 1_555
C43_3 N4_3 1_555 1_555
C44_3 N4_3 1_555 1_555
C46_3 N5_6 1_555 1_555
C48_3 N6_6 1_555 1_555
H22_3 C38_3 1_555 1_555
H23_3 C39_3 1_555 1_555
H24_3 C40_3 1_555 1_555
H25_3 C41_3 1_555 1_555
H26_3 C42_3 1_555 1_555
H27_3 C43_3 1_555 1_555
H28_3 C44_3 1_555 1_555
H30_3 C46_3 1_555 1_555
H32_3 C48_3 1_555 1_555
H33_3 C38_3 1_555 1_555
H34_3 C39_3 1_555 1_555
H35_3 C40_3 1_555 1_555
H36_3 C41_3 1_555 1_555
H37_3 C42_3 1_555 1_555
H38_3 C43_3 1_555 1_555
H39_3 C44_3 1_555 1_555
H41_3 C46_3 1_555 1_555
H43_3 C48_3 1_555 1_555
H44_3 C38_3 1_555 1_555
H45_3 C39_3 1_555 1_555
H46_3 C40_3 1_555 1_555
H47_3 C41_3 1_555 1_555
H48_3 C42_3 1_555 1_555
H49_3 C43_3 1_555 1_555
H50_3 C44_3 1_555 1_555
H52_3 C46_3 1_555 1_555
H54_3 C48_3 1_555 1_555
O8_3 C7_3 1_555 1_555
O14_3 C10_3 1_555 1_555
O20_3 C13_3 1_555 1_555
C17_3 C28_3 1_555 1_555
C20_3 C31_3 1_555 1_555
C23_3 C34_3 1_555 1_555
C26_3 C37_3 1_555 1_555
O31_4 Ni13_3 1_555 1_555
O34_4 Ni14_3 1_555 1_555
N5_7 Ni13_3 1_555 1_555
N6_7 Ni14_3 1_555 1_555
H9_7 N5_7 1_555 1_555
H10_7 N6_7 1_555 1_555
C45_4 N5_7 1_555 1_555
C47_4 N6_7 1_555 1_555
H29_4 C45_4 1_555 1_555
H31_4 C47_4 1_555 1_555
H40_4 C45_4 1_555 1_555
H42_4 C47_4 1_555 1_555
H51_4 C45_4 1_555 1_555
H53_4 C47_4 1_555 1_555
Ni1_4 O1_4 1_555 1_555
O1_4 C1_4 1_555 1_555
N1_4 Ni1_4 1_555 1_555
H1_4 N1_4 1_555 1_555
C1_4 C2_4 1_555 1_555
C2_4 C3_4 1_555 1_555
C3_4 H2_4 1_555 1_555
C4_4 N1_4 1_555 1_555
H3_4 C4_4 1_555 1_555
H4_4 C4_4 1_555 1_555
H5_4 C4_4 1_555 1_555
Ni2_4 O2_4 1_555 1_555
Ni11_2 O3_4 1_555 1_555
Ni12_2 O4_4 1_555 1_555
Ni13_4 O5_4 1_555 1_555
Ni14_4 O6_4 1_555 1_555
Ni15_2 O9_4 1_555 1_555
Ni16_2 O10_4 1_555 1_555
Ni17_4 O11_4 1_555 1_555
Ni18_4 O12_4 1_555 1_555
Ni7_2 O21_4 1_555 1_555
Ni8_2 O22_4 1_555 1_555
Ni9_4 O23_4 1_555 1_555
Ni10_4 O24_4 1_555 1_555
O2_4 C1_4 1_555 1_555
O3_4 C5_4 1_555 1_555
O4_4 C5_4 1_555 1_555
O5_4 C6_4 1_555 1_555
O6_4 C6_4 1_555 1_555
O7_4 Ni1_4 1_555 1_555
O8_4 Ni2_4 1_555 1_555
O9_4 C8_4 1_555 1_555
O10_4 C8_4 1_555 1_555
O11_4 C9_4 1_555 1_555
O12_4 C9_4 1_555 1_555
O13_4 Ni1_4 1_555 1_555
O14_4 Ni2_4 1_555 1_555
O26_2 C11_4 1_555 1_555
O29_2 C11_4 1_555 1_555
O32_2 C12_4 1_555 1_555
O35_2 C12_4 1_555 1_555
O19_4 Ni1_4 1_555 1_555
O20_4 Ni2_4 1_555 1_555
O21_4 C14_4 1_555 1_555
O22_4 C14_4 1_555 1_555
O23_4 C15_4 1_555 1_555
O24_4 C15_4 1_555 1_555
O25_4 Ni11_2 1_555 1_555
O27_4 Ni11_2 1_555 1_555
O28_4 Ni12_2 1_555 1_555
O30_4 Ni12_2 1_555 1_555
O33_4 Ni13_4 1_555 1_555
O36_4 Ni14_4 1_555 1_555
N2_4 Ni2_4 1_555 1_555
N3_4 Ni11_2 1_555 1_555
N4_4 Ni12_2 1_555 1_555
N5_8 Ni13_4 1_555 1_555
N6_8 Ni14_4 1_555 1_555
H6_4 N2_4 1_555 1_555
H7_4 N3_4 1_555 1_555
H8_4 N4_4 1_555 1_555
H9_8 N5_8 1_555 1_555
H10_8 N6_8 1_555 1_555
C5_4 C16_4 1_555 1_555
C6_4 C17_4 1_555 1_555
C7_4 O7_4 1_555 1_555
C8_4 C19_4 1_555 1_555
C9_4 C20_4 1_555 1_555
C10_4 O13_4 1_555 1_555
C11_4 C22_4 1_555 1_555
C12_4 C23_4 1_555 1_555
C13_4 O19_4 1_555 1_555
C14_4 C25_4 1_555 1_555
C15_4 C26_4 1_555 1_555
C16_4 C3_4 1_555 1_555
C17_4 C27_4 1_555 1_555
C18_4 C7_4 1_555 1_555
C19_4 C29_4 1_555 1_555
C20_4 C30_4 1_555 1_555
C21_4 C10_4 1_555 1_555
C22_4 C32_4 1_555 1_555
C23_4 C33_4 1_555 1_555
C24_4 C13_4 1_555 1_555
C25_4 C35_4 1_555 1_555
C26_4 C36_4 1_555 1_555
C27_4 C16_4 1_555 1_555
C28_4 C2_4 1_555 1_555
C29_4 C18_4 1_555 1_555
C30_4 C19_4 1_555 1_555
C31_4 C18_4 1_555 1_555
C32_4 C21_4 1_555 1_555
C33_4 C22_4 1_555 1_555
C34_4 C21_4 1_555 1_555
C35_4 C24_4 1_555 1_555
C36_4 C25_4 1_555 1_555
C37_4 C24_4 1_555 1_555
H11_4 C28_4 1_555 1_555
H12_4 C27_4 1_555 1_555
H13_4 C29_4 1_555 1_555
H14_4 C31_4 1_555 1_555
H15_4 C30_4 1_555 1_555
H16_4 C32_4 1_555 1_555
H17_4 C34_4 1_555 1_555
H18_4 C33_4 1_555 1_555
H19_4 C35_4 1_555 1_555
H20_4 C37_4 1_555 1_555
H21_4 C36_4 1_555 1_555
C38_4 N1_4 1_555 1_555
C39_4 N2_4 1_555 1_555
C40_4 N2_4 1_555 1_555
C41_4 N3_4 1_555 1_555
C42_4 N3_4 1_555 1_555
C43_4 N4_4 1_555 1_555
C44_4 N4_4 1_555 1_555
C46_4 N5_8 1_555 1_555
C48_4 N6_8 1_555 1_555
H22_4 C38_4 1_555 1_555
H23_4 C39_4 1_555 1_555
H24_4 C40_4 1_555 1_555
H25_4 C41_4 1_555 1_555
H26_4 C42_4 1_555 1_555
H27_4 C43_4 1_555 1_555
H28_4 C44_4 1_555 1_555
H30_4 C46_4 1_555 1_555
H32_4 C48_4 1_555 1_555
H33_4 C38_4 1_555 1_555
H34_4 C39_4 1_555 1_555
H35_4 C40_4 1_555 1_555
H36_4 C41_4 1_555 1_555
H37_4 C42_4 1_555 1_555
H38_4 C43_4 1_555 1_555
H39_4 C44_4 1_555 1_555
H41_4 C46_4 1_555 1_555
H43_4 C48_4 1_555 1_555
H44_4 C38_4 1_555 1_555
H45_4 C39_4 1_555 1_555
H46_4 C40_4 1_555 1_555
H47_4 C41_4 1_555 1_555
H48_4 C42_4 1_555 1_555
H49_4 C43_4 1_555 1_555
H50_4 C44_4 1_555 1_555
H52_4 C46_4 1_555 1_555
H54_4 C48_4 1_555 1_555
O8_4 C7_4 1_555 1_555
O14_4 C10_4 1_555 1_555
O20_4 C13_4 1_555 1_555
C17_4 C28_4 1_555 1_555
C20_4 C31_4 1_555 1_555
C23_4 C34_4 1_555 1_555
C26_4 C37_4 1_555 1_555
Ni16 O1_5 1_555 1_555
O1_5 C1_5 1_555 1_555
N1_5 Ni16 1_555 1_555
H1_5 N1_5 1_555 1_555
C1_5 C2_5 1_555 1_555
C2_5 C3_5 1_555 1_555
C3_5 H2_5 1_555 1_555
C4_5 N1_5 1_555 1_555
H3_5 C4_5 1_555 1_555
H4_5 C4_5 1_555 1_555
H5_5 C4_5 1_555 1_555
Ni15 O2_5 1_555 1_555
Ni5_5 O5_5 1_555 1_555
Ni6_5 O6_5 1_555 1_555
Ni13_5 O17_3 1_555 1_555
Ni14_5 O18_3 1_555 1_555
O2_5 C1_5 1_555 1_555
O25_4 C5_5 1_555 1_555
O28_4 C5_5 1_555 1_555
O5_5 C6_5 1_555 1_555
O6_5 C6_5 1_555 1_555
O13_5 Ni16 1_555 1_555
O14_5 Ni15 1_555 1_555
O27 C11_5 1_555 1_555
O30 C11_5 1_555 1_555
O17_3 C12_5 1_555 1_555
O18_3 C12_5 1_555 1_555
O33_5 Ni5_5 1_555 1_555
O36_5 Ni6_5 1_555 1_555
N2_5 Ni15 1_555 1_555
N5_9 Ni5_5 1_555 1_555
N6_9 Ni6_5 1_555 1_555
H6_5 N2_5 1_555 1_555
H9_9 N5_9 1_555 1_555
H10_9 N6_9 1_555 1_555
C5_5 C16_5 1_555 1_555
C6_5 C17_5 1_555 1_555
C10_5 O13_5 1_555 1_555
C11_5 C22_5 1_555 1_555
C12_5 C23_5 1_555 1_555
C16_5 C3_5 1_555 1_555
C17_5 C27_5 1_555 1_555
C21_5 C10_5 1_555 1_555
C22_5 C32_5 1_555 1_555
C23_5 C33_5 1_555 1_555
C27_5 C16_5 1_555 1_555
C28_5 C2_5 1_555 1_555
C32_5 C21_5 1_555 1_555
C33_5 C22_5 1_555 1_555
C34_5 C21_5 1_555 1_555
H11_5 C28_5 1_555 1_555
H12_5 C27_5 1_555 1_555
H16_5 C32_5 1_555 1_555
H17_5 C34_5 1_555 1_555
H18_5 C33_5 1_555 1_555
C38_5 N1_5 1_555 1_555
C39_5 N2_5 1_555 1_555
C40_5 N2_5 1_555 1_555
C46_5 N5_9 1_555 1_555
C48_5 N6_9 1_555 1_555
H22_5 C38_5 1_555 1_555
H23_5 C39_5 1_555 1_555
H24_5 C40_5 1_555 1_555
H30_5 C46_5 1_555 1_555
H32_5 C48_5 1_555 1_555
H33_5 C38_5 1_555 1_555
H34_5 C39_5 1_555 1_555
H35_5 C40_5 1_555 1_555
H41_5 C46_5 1_555 1_555
H43_5 C48_5 1_555 1_555
H44_5 C38_5 1_555 1_555
H45_5 C39_5 1_555 1_555
H46_5 C40_5 1_555 1_555
H52_5 C46_5 1_555 1_555
H54_5 C48_5 1_555 1_555
O14_5 C10_5 1_555 1_555
C17_5 C28_5 1_555 1_555
C23_5 C34_5 1_555 1_555
O31_5 Ni5_6 1_555 1_555
O32_3 Ni5_6 1_555 1_555
O34_5 Ni6_6 1_555 1_555
O35_3 Ni6_6 1_555 1_555
N5_10 Ni5_6 1_555 1_555
N6_10 Ni6_6 1_555 1_555
H9_10 N5_10 1_555 1_555
H10_10 N6_10 1_555 1_555
C45_5 N5_10 1_555 1_555
C47_5 N6_10 1_555 1_555
H29_5 C45_5 1_555 1_555
H31_5 C47_5 1_555 1_555
H40_5 C45_5 1_555 1_555
H42_5 C47_5 1_555 1_555
H51_5 C45_5 1_555 1_555
H53_5 C47_5 1_555 1_555
Ni8_2 O1_6 1_555 1_555
O1_6 C1_6 1_555 1_555
N1_6 Ni8_2 1_555 1_555
H1_6 N1_6 1_555 1_555
C1_6 C2_6 1_555 1_555
C2_6 C3_6 1_555 1_555
C3_6 H2_6 1_555 1_555
C4_6 N1_6 1_555 1_555
H3_6 C4_6 1_555 1_555
H4_6 C4_6 1_555 1_555
H5_6 C4_6 1_555 1_555
Ni7_2 O2_6 1_555 1_555
Ni5_7 O5_6 1_555 1_555
Ni6_7 O6_6 1_555 1_555
Ni13_7 O17_4 1_555 1_555
Ni14_7 O18_4 1_555 1_555
O2_6 C1_6 1_555 1_555
O25 C5_6 1_555 1_555
O28 C5_6 1_555 1_555
O5_6 C6_6 1_555 1_555
O6_6 C6_6 1_555 1_555
O13_6 Ni8_2 1_555 1_555
O14_6 Ni7_2 1_555 1_555
O27_4 C11_6 1_555 1_555
O30_4 C11_6 1_555 1_555
O17_4 C12_6 1_555 1_555
O18_4 C12_6 1_555 1_555
O33_6 Ni5_7 1_555 1_555
O36_6 Ni6_7 1_555 1_555
N2_6 Ni7_2 1_555 1_555
N5_11 Ni5_7 1_555 1_555
N6_11 Ni6_7 1_555 1_555
H6_6 N2_6 1_555 1_555
H9_11 N5_11 1_555 1_555
H10_11 N6_11 1_555 1_555
C5_6 C16_6 1_555 1_555
C6_6 C17_6 1_555 1_555
C10_6 O13_6 1_555 1_555
C11_6 C22_6 1_555 1_555
C12_6 C23_6 1_555 1_555
C16_6 C3_6 1_555 1_555
C17_6 C27_6 1_555 1_555
C21_6 C10_6 1_555 1_555
C22_6 C32_6 1_555 1_555
C23_6 C33_6 1_555 1_555
C27_6 C16_6 1_555 1_555
C28_6 C2_6 1_555 1_555
C32_6 C21_6 1_555 1_555
C33_6 C22_6 1_555 1_555
C34_6 C21_6 1_555 1_555
H11_6 C28_6 1_555 1_555
H12_6 C27_6 1_555 1_555
H16_6 C32_6 1_555 1_555
H17_6 C34_6 1_555 1_555
H18_6 C33_6 1_555 1_555
C38_6 N1_6 1_555 1_555
C39_6 N2_6 1_555 1_555
C40_6 N2_6 1_555 1_555
C46_6 N5_11 1_555 1_555
C48_6 N6_11 1_555 1_555
H22_6 C38_6 1_555 1_555
H23_6 C39_6 1_555 1_555
H24_6 C40_6 1_555 1_555
H30_6 C46_6 1_555 1_555
H32_6 C48_6 1_555 1_555
H33_6 C38_6 1_555 1_555
H34_6 C39_6 1_555 1_555
H35_6 C40_6 1_555 1_555
H41_6 C46_6 1_555 1_555
H43_6 C48_6 1_555 1_555
H44_6 C38_6 1_555 1_555
H45_6 C39_6 1_555 1_555
H46_6 C40_6 1_555 1_555
H52_6 C46_6 1_555 1_555
H54_6 C48_6 1_555 1_555
O14_6 C10_6 1_555 1_555
C17_6 C28_6 1_555 1_555
C23_6 C34_6 1_555 1_555
O31_6 Ni5_8 1_555 1_555
O32_4 Ni5_8 1_555 1_555
O34_6 Ni6_8 1_555 1_555
O35_4 Ni6_8 1_555 1_555
N5_12 Ni5_8 1_555 1_555
N6_12 Ni6_8 1_555 1_555
H9_12 N5_12 1_555 1_555
H10_12 N6_12 1_555 1_555
C45_6 N5_12 1_555 1_555
C47_6 N6_12 1_555 1_555
H29_6 C45_6 1_555 1_555
H31_6 C47_6 1_555 1_555
H40_6 C45_6 1_555 1_555
H42_6 C47_6 1_555 1_555
H51_6 C45_6 1_555 1_555
H53_6 C47_6 1_555 1_555
O31_7 Ni13_5 1_555 1_555
O34_7 Ni14_5 1_555 1_555
N5_13 Ni13_5 1_555 1_555
N6_13 Ni14_5 1_555 1_555
H9_13 N5_13 1_555 1_555
H10_13 N6_13 1_555 1_555
C45_7 N5_13 1_555 1_555
C47_7 N6_13 1_555 1_555
H29_7 C45_7 1_555 1_555
H31_7 C47_7 1_555 1_555
H40_7 C45_7 1_555 1_555
H42_7 C47_7 1_555 1_555
H51_7 C45_7 1_555 1_555
H53_7 C47_7 1_555 1_555
Ni8 O1_7 1_555 1_555
O1_7 C1_7 1_555 1_555
N1_7 Ni8 1_555 1_555
H1_7 N1_7 1_555 1_555
C1_7 C2_7 1_555 1_555
C2_7 C3_7 1_555 1_555
C3_7 H2_7 1_555 1_555
C4_7 N1_7 1_555 1_555
H3_7 C4_7 1_555 1_555
H4_7 C4_7 1_555 1_555
H5_7 C4_7 1_555 1_555
Ni7 O2_7 1_555 1_555
Ni13_6 O5_7 1_555 1_555
Ni14_6 O6_7 1_555 1_555
O2_7 C1_7 1_555 1_555
O25_2 C5_7 1_555 1_555
O28_2 C5_7 1_555 1_555
O5_7 C6_7 1_555 1_555
O6_7 C6_7 1_555 1_555
O13_7 Ni8 1_555 1_555
O14_7 Ni7 1_555 1_555
O27_3 C11_7 1_555 1_555
O30_3 C11_7 1_555 1_555
O32_3 C12_7 1_555 1_555
O35_3 C12_7 1_555 1_555
O33_7 Ni13_6 1_555 1_555
O36_7 Ni14_6 1_555 1_555
N2_7 Ni7 1_555 1_555
N5_14 Ni13_6 1_555 1_555
N6_14 Ni14_6 1_555 1_555
H6_7 N2_7 1_555 1_555
H9_14 N5_14 1_555 1_555
H10_14 N6_14 1_555 1_555
C5_7 C16_7 1_555 1_555
C6_7 C17_7 1_555 1_555
C10_7 O13_7 1_555 1_555
C11_7 C22_7 1_555 1_555
C12_7 C23_7 1_555 1_555
C16_7 C3_7 1_555 1_555
C17_7 C27_7 1_555 1_555
C21_7 C10_7 1_555 1_555
C22_7 C32_7 1_555 1_555
C23_7 C33_7 1_555 1_555
C27_7 C16_7 1_555 1_555
C28_7 C2_7 1_555 1_555
C32_7 C21_7 1_555 1_555
C33_7 C22_7 1_555 1_555
C34_7 C21_7 1_555 1_555
H11_7 C28_7 1_555 1_555
H12_7 C27_7 1_555 1_555
H16_7 C32_7 1_555 1_555
H17_7 C34_7 1_555 1_555
H18_7 C33_7 1_555 1_555
C38_7 N1_7 1_555 1_555
C39_7 N2_7 1_555 1_555
C40_7 N2_7 1_555 1_555
C46_7 N5_14 1_555 1_555
C48_7 N6_14 1_555 1_555
H22_7 C38_7 1_555 1_555
H23_7 C39_7 1_555 1_555
H24_7 C40_7 1_555 1_555
H30_7 C46_7 1_555 1_555
H32_7 C48_7 1_555 1_555
H33_7 C38_7 1_555 1_555
H34_7 C39_7 1_555 1_555
H35_7 C40_7 1_555 1_555
H41_7 C46_7 1_555 1_555
H43_7 C48_7 1_555 1_555
H44_7 C38_7 1_555 1_555
H45_7 C39_7 1_555 1_555
H46_7 C40_7 1_555 1_555
H52_7 C46_7 1_555 1_555
H54_7 C48_7 1_555 1_555
O14_7 C10_7 1_555 1_555
C17_7 C28_7 1_555 1_555
C23_7 C34_7 1_555 1_555
O31_8 Ni13_7 1_555 1_555
O34_8 Ni14_7 1_555 1_555
N5_15 Ni13_7 1_555 1_555
N6_15 Ni14_7 1_555 1_555
H9_15 N5_15 1_555 1_555
H10_15 N6_15 1_555 1_555
C45_8 N5_15 1_555 1_555
C47_8 N6_15 1_555 1_555
H29_8 C45_8 1_555 1_555
H31_8 C47_8 1_555 1_555
H40_8 C45_8 1_555 1_555
H42_8 C47_8 1_555 1_555
H51_8 C45_8 1_555 1_555
H53_8 C47_8 1_555 1_555
Ni16_2 O1_8 1_555 1_555
O1_8 C1_8 1_555 1_555
N1_8 Ni16_2 1_555 1_555
H1_8 N1_8 1_555 1_555
C1_8 C2_8 1_555 1_555
C2_8 C3_8 1_555 1_555
C3_8 H2_8 1_555 1_555
C4_8 N1_8 1_555 1_555
H3_8 C4_8 1_555 1_555
H4_8 C4_8 1_555 1_555
H5_8 C4_8 1_555 1_555
Ni15_2 O2_8 1_555 1_555
Ni13_8 O5_8 1_555 1_555
Ni14_8 O6_8 1_555 1_555
O2_8 C1_8 1_555 1_555
O25_3 C5_8 1_555 1_555
O28_3 C5_8 1_555 1_555
O5_8 C6_8 1_555 1_555
O6_8 C6_8 1_555 1_555
O13_8 Ni16_2 1_555 1_555
O14_8 Ni15_2 1_555 1_555
O27_2 C11_8 1_555 1_555
O30_2 C11_8 1_555 1_555
O32_4 C12_8 1_555 1_555
O35_4 C12_8 1_555 1_555
O33_8 Ni13_8 1_555 1_555
O36_8 Ni14_8 1_555 1_555
N2_8 Ni15_2 1_555 1_555
N5_16 Ni13_8 1_555 1_555
N6_16 Ni14_8 1_555 1_555
H6_8 N2_8 1_555 1_555
H9_16 N5_16 1_555 1_555
H10_16 N6_16 1_555 1_555
C5_8 C16_8 1_555 1_555
C6_8 C17_8 1_555 1_555
C10_8 O13_8 1_555 1_555
C11_8 C22_8 1_555 1_555
C12_8 C23_8 1_555 1_555
C16_8 C3_8 1_555 1_555
C17_8 C27_8 1_555 1_555
C21_8 C10_8 1_555 1_555
C22_8 C32_8 1_555 1_555
C23_8 C33_8 1_555 1_555
C27_8 C16_8 1_555 1_555
C28_8 C2_8 1_555 1_555
C32_8 C21_8 1_555 1_555
C33_8 C22_8 1_555 1_555
C34_8 C21_8 1_555 1_555
H11_8 C28_8 1_555 1_555
H12_8 C27_8 1_555 1_555
H16_8 C32_8 1_555 1_555
H17_8 C34_8 1_555 1_555
H18_8 C33_8 1_555 1_555
C38_8 N1_8 1_555 1_555
C39_8 N2_8 1_555 1_555
C40_8 N2_8 1_555 1_555
C46_8 N5_16 1_555 1_555
C48_8 N6_16 1_555 1_555
H22_8 C38_8 1_555 1_555
H23_8 C39_8 1_555 1_555
H24_8 C40_8 1_555 1_555
H30_8 C46_8 1_555 1_555
H32_8 C48_8 1_555 1_555
H33_8 C38_8 1_555 1_555
H34_8 C39_8 1_555 1_555
H35_8 C40_8 1_555 1_555
H41_8 C46_8 1_555 1_555
H43_8 C48_8 1_555 1_555
H44_8 C38_8 1_555 1_555
H45_8 C39_8 1_555 1_555
H46_8 C40_8 1_555 1_555
H52_8 C46_8 1_555 1_555
H54_8 C48_8 1_555 1_555
O14_8 C10_8 1_555 1_555
C17_8 C28_8 1_555 1_555
C23_8 C34_8 1_555 1_555
O33_9 Ni18 1_555 1_555
O36_9 Ni17 1_555 1_555
N5_17 Ni18 1_555 1_555
N6_17 Ni17 1_555 1_555
H9_17 N5_17 1_555 1_555
H10_17 N6_17 1_555 1_555
C46_9 N5_17 1_555 1_555
C48_9 N6_17 1_555 1_555
H25_5 C39 1_555 1_555
H27_5 C4 1_555 1_555
H28_5 C38 1_555 1_555
H30_9 C46_9 1_555 1_555
H32_9 C48_9 1_555 1_555
H36_5 C39 1_555 1_555
H37_5 C40 1_555 1_555
H38_5 C4 1_555 1_555
H39_5 C38 1_555 1_555
H41_9 C46_9 1_555 1_555
H43_9 C48_9 1_555 1_555
H47_5 C39 1_555 1_555
H48_5 C40 1_555 1_555
H49_5 C4 1_555 1_555
H50_5 C38 1_555 1_555
H52_9 C46_9 1_555 1_555
H54_9 C48_9 1_555 1_555
O31_9 Ni18_2 1_555 1_555
O34_9 Ni17_2 1_555 1_555
N5_18 Ni18_2 1_555 1_555
N6_18 Ni17_2 1_555 1_555
H9_18 N5_18 1_555 1_555
H10_18 N6_18 1_555 1_555
C45_9 N5_18 1_555 1_555
C47_9 N6_18 1_555 1_555
H29_9 C45_9 1_555 1_555
H31_9 C47_9 1_555 1_555
H40_9 C45_9 1_555 1_555
H42_9 C47_9 1_555 1_555
H51_9 C45_9 1_555 1_555
H53_9 C47_9 1_555 1_555
O33_10 Ni18_3 1_555 1_555
O36_10 Ni17_3 1_555 1_555
N5_19 Ni18_3 1_555 1_555
N6_19 Ni17_3 1_555 1_555
H9_19 N5_19 1_555 1_555
H10_19 N6_19 1_555 1_555
C46_10 N5_19 1_555 1_555
C48_10 N6_19 1_555 1_555
H25_6 C39_3 1_555 1_555
H26_5 C40_3 1_555 1_555
H27_6 C4_3 1_555 1_555
H28_6 C38_3 1_555 1_555
H30_10 C46_10 1_555 1_555
H32_10 C48_10 1_555 1_555
H36_6 C39_3 1_555 1_555
H37_6 C40_3 1_555 1_555
H38_6 C4_3 1_555 1_555
H39_6 C38_3 1_555 1_555
H41_10 C46_10 1_555 1_555
H43_10 C48_10 1_555 1_555
H47_6 C39_3 1_555 1_555
H48_6 C40_3 1_555 1_555
H49_6 C4_3 1_555 1_555
H50_6 C38_3 1_555 1_555
H52_10 C46_10 1_555 1_555
H54_10 C48_10 1_555 1_555
O31_10 Ni18_4 1_555 1_555
O34_10 Ni17_4 1_555 1_555
N5_20 Ni18_4 1_555 1_555
N6_20 Ni17_4 1_555 1_555
H9_20 N5_20 1_555 1_555
H10_20 N6_20 1_555 1_555
C45_10 N5_20 1_555 1_555
C47_10 N6_20 1_555 1_555
H29_10 C45_10 1_555 1_555
H31_10 C47_10 1_555 1_555
H40_10 C45_10 1_555 1_555
H42_10 C47_10 1_555 1_555
H51_10 C45_10 1_555 1_555
H53_10 C47_10 1_555 1_555
O31_11 Ni10 1_555 1_555
O34_11 Ni9 1_555 1_555
N5_21 Ni10 1_555 1_555
N6_21 Ni9 1_555 1_555
H9_21 N5_21 1_555 1_555
H10_21 N6_21 1_555 1_555
C45_11 N5_21 1_555 1_555
C47_11 N6_21 1_555 1_555
H29_11 C45_11 1_555 1_555
H31_11 C47_11 1_555 1_555
H40_11 C45_11 1_555 1_555
H42_11 C47_11 1_555 1_555
H51_11 C45_11 1_555 1_555
H53_11 C47_11 1_555 1_555
O33_11 Ni10_2 1_555 1_555
O36_11 Ni9_2 1_555 1_555
N5_22 Ni10_2 1_555 1_555
N6_22 Ni9_2 1_555 1_555
H9_22 N5_22 1_555 1_555
H10_22 N6_22 1_555 1_555
C46_11 N5_22 1_555 1_555
C48_11 N6_22 1_555 1_555
H25_7 C39_2 1_555 1_555
H26_6 C40_2 1_555 1_555
H27_7 C4_2 1_555 1_555
H28_7 C38_2 1_555 1_555
H30_11 C46_11 1_555 1_555
H32_11 C48_11 1_555 1_555
H36_7 C39_2 1_555 1_555
H37_7 C40_2 1_555 1_555
H38_7 C4_2 1_555 1_555
H39_7 C38_2 1_555 1_555
H41_11 C46_11 1_555 1_555
H43_11 C48_11 1_555 1_555
H47_7 C39_2 1_555 1_555
H48_7 C40_2 1_555 1_555
H49_7 C4_2 1_555 1_555
H50_7 C38_2 1_555 1_555
H52_11 C46_11 1_555 1_555
H54_11 C48_11 1_555 1_555
O31_12 Ni10_3 1_555 1_555
O34_12 Ni9_3 1_555 1_555
N5_23 Ni10_3 1_555 1_555
N6_23 Ni9_3 1_555 1_555
H9_23 N5_23 1_555 1_555
H10_23 N6_23 1_555 1_555
C45_12 N5_23 1_555 1_555
C47_12 N6_23 1_555 1_555
H29_12 C45_12 1_555 1_555
H31_12 C47_12 1_555 1_555
H40_12 C45_12 1_555 1_555
H42_12 C47_12 1_555 1_555
H51_12 C45_12 1_555 1_555
H53_12 C47_12 1_555 1_555
O33_12 Ni10_4 1_555 1_555
O36_12 Ni9_4 1_555 1_555
N5_24 Ni10_4 1_555 1_555
N6_24 Ni9_4 1_555 1_555
H9_24 N5_24 1_555 1_555
H10_24 N6_24 1_555 1_555
C46_12 N5_24 1_555 1_555
C48_12 N6_24 1_555 1_555
H25_8 C39_4 1_555 1_555
H26_7 C40_4 1_555 1_555
H27_8 C4_4 1_555 1_555
H28_8 C38_4 1_555 1_555
H30_12 C46_12 1_555 1_555
H32_12 C48_12 1_555 1_555
H36_8 C39_4 1_555 1_555
H37_8 C40_4 1_555 1_555
H38_8 C4_4 1_555 1_555
H39_8 C38_4 1_555 1_555
H41_12 C46_12 1_555 1_555
H43_12 C48_12 1_555 1_555
H47_8 C39_4 1_555 1_555
H48_8 C40_4 1_555 1_555
H49_8 C4_4 1_555 1_555
H50_8 C38_4 1_555 1_555
H52_12 C46_12 1_555 1_555
H54_12 C48_12 1_555 1_555
H25_9 C39_5 1_555 1_555
H27_9 C4_5 1_555 1_555
H28_9 C38_5 1_555 1_555
H30_13 C47_12 1_555 1_555
H32_13 C45_12 1_555 1_555
H36_9 C39_5 1_555 1_555
H37_9 C40_5 1_555 1_555
H38_9 C4_5 1_555 1_555
H39_9 C38_5 1_555 1_555
H41_13 C47_12 1_555 1_555
H43_13 C45_12 1_555 1_555
H47_9 C39_5 1_555 1_555
H48_9 C40_5 1_555 1_555
H49_9 C4_5 1_555 1_555
H50_9 C38_5 1_555 1_555
H52_13 C47_12 1_555 1_555
H54_13 C45_12 1_555 1_555
H29_13 C48_12 1_555 1_555
H31_13 C46_12 1_555 1_555
H40_13 C48_12 1_555 1_555
H42_13 C46_12 1_555 1_555
H51_13 C48_12 1_555 1_555
H53_13 C46_12 1_555 1_555
H29_14 C48_10 1_555 1_555
H31_14 C46_10 1_555 1_555
H40_14 C48_10 1_555 1_555
H42_14 C46_10 1_555 1_555
H51_14 C48_10 1_555 1_555
H53_14 C46_10 1_555 1_555
H25_10 C39_8 1_555 1_555
H26_8 C40_8 1_555 1_555
H27_10 C4_8 1_555 1_555
H28_10 C38_8 1_555 1_555
H30_14 C47_10 1_555 1_555
H32_14 C45_10 1_555 1_555
H36_10 C39_8 1_555 1_555
H37_10 C40_8 1_555 1_555
H38_10 C4_8 1_555 1_555
H39_10 C38_8 1_555 1_555
H41_14 C47_10 1_555 1_555
H43_14 C45_10 1_555 1_555
H47_10 C39_8 1_555 1_555
H48_10 C40_8 1_555 1_555
H49_10 C4_8 1_555 1_555
H50_10 C38_8 1_555 1_555
H52_14 C47_10 1_555 1_555
H54_14 C45_10 1_555 1_555
H25_11 C39_7 1_555 1_555
H26_9 C40_7 1_555 1_555
H27_11 C4_7 1_555 1_555
H28_11 C38_7 1_555 1_555
H30_15 C47_11 1_555 1_555
H32_15 C45_11 1_555 1_555
H36_11 C39_7 1_555 1_555
H37_11 C40_7 1_555 1_555
H38_11 C4_7 1_555 1_555
H39_11 C38_7 1_555 1_555
H41_15 C47_11 1_555 1_555
H43_15 C45_11 1_555 1_555
H47_11 C39_7 1_555 1_555
H48_11 C40_7 1_555 1_555
H49_11 C4_7 1_555 1_555
H50_11 C38_7 1_555 1_555
H52_15 C47_11 1_555 1_555
H54_15 C45_11 1_555 1_555
H29_15 C48_11 1_555 1_555
H31_15 C46_11 1_555 1_555
H40_15 C48_11 1_555 1_555
H42_15 C46_11 1_555 1_555
H51_15 C48_11 1_555 1_555
H53_15 C46_11 1_555 1_555
H29_16 C48_9 1_555 1_555
H31_16 C46_9 1_555 1_555
H40_16 C48_9 1_555 1_555
H42_16 C46_9 1_555 1_555
H51_16 C48_9 1_555 1_555
H53_16 C46_9 1_555 1_555
H25_12 C39_6 1_555 1_555
H26_10 C40_6 1_555 1_555
H27_12 C4_6 1_555 1_555
H28_12 C38_6 1_555 1_555
H30_16 C47_9 1_555 1_555
H32_16 C45_9 1_555 1_555
H36_12 C39_6 1_555 1_555
H37_12 C40_6 1_555 1_555
H38_12 C4_6 1_555 1_555
H39_12 C38_6 1_555 1_555
H41_16 C47_9 1_555 1_555
H43_16 C45_9 1_555 1_555
H47_12 C39_6 1_555 1_555
H48_12 C40_6 1_555 1_555
H49_12 C4_6 1_555 1_555
H50_12 C38_6 1_555 1_555
H52_16 C47_9 1_555 1_555
H54_16 C45_9 1_555 1_555
H3_9 C43 1_555 1_555
H4_9 C43 1_555 1_555
H5_9 C43 1_555 1_555
H22_9 C44 1_555 1_555
H23_9 C41 1_555 1_555
H25_13 C40_5 1_555 1_555
H30_17 C47_7 1_555 1_555
H32_17 C45_7 1_555 1_555
H33_9 C44 1_555 1_555
H34_9 C41 1_555 1_555
H35_9 C42 1_555 1_555
H41_17 C47_7 1_555 1_555
H43_17 C45_7 1_555 1_555
H44_9 C44 1_555 1_555
H45_9 C41 1_555 1_555
H46_9 C42 1_555 1_555
H52_17 C47_7 1_555 1_555
H54_17 C45_7 1_555 1_555
H29_17 C48_7 1_555 1_555
H31_17 C46_7 1_555 1_555
H40_17 C48_7 1_555 1_555
H42_17 C46_7 1_555 1_555
H51_17 C48_7 1_555 1_555
H53_17 C46_7 1_555 1_555
H3_10 C43_4 1_555 1_555
H4_10 C43_4 1_555 1_555
H5_10 C43_4 1_555 1_555
H22_10 C44_4 1_555 1_555
H23_10 C41_4 1_555 1_555
H24_9 C42_4 1_555 1_555
H30_18 C47_8 1_555 1_555
H32_18 C45_8 1_555 1_555
H33_10 C44_4 1_555 1_555
H34_10 C41_4 1_555 1_555
H35_10 C42_4 1_555 1_555
H41_18 C47_8 1_555 1_555
H43_18 C45_8 1_555 1_555
H44_10 C44_4 1_555 1_555
H45_10 C41_4 1_555 1_555
H46_10 C42_4 1_555 1_555
H52_18 C47_8 1_555 1_555
H54_18 C45_8 1_555 1_555
H29_18 C48_8 1_555 1_555
H31_18 C46_8 1_555 1_555
H40_18 C48_8 1_555 1_555
H42_18 C46_8 1_555 1_555
H51_18 C48_8 1_555 1_555
H53_18 C46_8 1_555 1_555
H29_19 C48_5 1_555 1_555
H31_19 C46_5 1_555 1_555
H40_19 C48_5 1_555 1_555
H42_19 C46_5 1_555 1_555
H51_19 C48_5 1_555 1_555
H53_19 C46_5 1_555 1_555
H3_11 C43_3 1_555 1_555
H4_11 C43_3 1_555 1_555
H5_11 C43_3 1_555 1_555
H22_11 C44_3 1_555 1_555
H23_11 C41_3 1_555 1_555
H24_10 C42_3 1_555 1_555
H30_19 C47_5 1_555 1_555
H32_19 C45_5 1_555 1_555
H33_11 C44_3 1_555 1_555
H34_11 C41_3 1_555 1_555
H35_11 C42_3 1_555 1_555
H41_19 C47_5 1_555 1_555
H43_19 C45_5 1_555 1_555
H44_11 C44_3 1_555 1_555
H45_11 C41_3 1_555 1_555
H46_11 C42_3 1_555 1_555
H52_19 C47_5 1_555 1_555
H54_19 C45_5 1_555 1_555
H29_20 C48_6 1_555 1_555
H31_20 C46_6 1_555 1_555
H40_20 C48_6 1_555 1_555
H42_20 C46_6 1_555 1_555
H51_20 C48_6 1_555 1_555
H53_20 C46_6 1_555 1_555
H3_12 C43_2 1_555 1_555
H4_12 C43_2 1_555 1_555
H5_12 C43_2 1_555 1_555
H22_12 C44_2 1_555 1_555
H23_12 C41_2 1_555 1_555
H24_11 C42_2 1_555 1_555
H30_20 C47_6 1_555 1_555
H32_20 C45_6 1_555 1_555
H33_12 C44_2 1_555 1_555
H34_12 C41_2 1_555 1_555
H35_12 C42_2 1_555 1_555
H41_20 C47_6 1_555 1_555
H43_20 C45_6 1_555 1_555
H44_12 C44_2 1_555 1_555
H45_12 C41_2 1_555 1_555
H46_12 C42_2 1_555 1_555
H52_20 C47_6 1_555 1_555
H54_20 C45_6 1_555 1_555
H29_21 C48_2 1_555 1_555
H31_21 C46_2 1_555 1_555
H40_21 C48_2 1_555 1_555
H42_21 C46_2 1_555 1_555
H51_21 C48_2 1_555 1_555
H53_21 C46_2 1_555 1_555
H30_21 C47_2 1_555 1_555
H32_21 C45_2 1_555 1_555
H41_21 C47_2 1_555 1_555
H43_21 C45_2 1_555 1_555
H52_21 C47_2 1_555 1_555
H54_21 C45_2 1_555 1_555
H29_22 C48 1_555 1_555
H31_22 C46 1_555 1_555
H40_22 C48 1_555 1_555
H42_22 C46 1_555 1_555
H51_22 C48 1_555 1_555
H53_22 C46 1_555 1_555
H30_22 C47 1_555 1_555
H32_22 C45 1_555 1_555
H41_22 C47 1_555 1_555
H43_22 C45 1_555 1_555
H52_22 C47 1_555 1_555
H54_22 C45 1_555 1_555
H25_14 C40 1_555 1_555
H30_23 C47_3 1_555 1_555
H32_23 C45_3 1_555 1_555
H41_23 C47_3 1_555 1_555
H43_23 C45_3 1_555 1_555
H52_23 C47_3 1_555 1_555
H54_23 C45_3 1_555 1_555
H29_23 C48_3 1_555 1_555
H31_23 C46_3 1_555 1_555
H40_23 C48_3 1_555 1_555
H42_23 C46_3 1_555 1_555
H51_23 C48_3 1_555 1_555
H53_23 C46_3 1_555 1_555
H30_24 C47_4 1_555 1_555
H32_24 C45_4 1_555 1_555
H41_24 C47_4 1_555 1_555
H43_24 C45_4 1_555 1_555
H52_24 C47_4 1_555 1_555
H54_24 C45_4 1_555 1_555
H29_24 C48_4 1_555 1_555
H31_24 C46_4 1_555 1_555
H40_24 C48_4 1_555 1_555
H42_24 C46_4 1_555 1_555
H51_24 C48_4 1_555 1_555
H53_24 C46_4 1_555 1_555
O34_9 C11_9 1_555 1_555
O31_9 C11_9 1_555 1_555
O34_4 C12_9 1_555 1_555
O31_4 C12_9 1_555 1_555
C10_9 O33_6 1_555 1_555
C11_9 C22_9 1_555 1_555
C12_9 C23_9 1_555 1_555
C21_9 C10_9 1_555 1_555
C22_9 C32_9 1_555 1_555
C23_9 C33_9 1_555 1_555
C32_9 C21_9 1_555 1_555
C33_9 C22_9 1_555 1_555
C34_9 C21_9 1_555 1_555
H16_9 C32_9 1_555 1_555
H17_9 C34_9 1_555 1_555
H18_9 C33_9 1_555 1_555
O36_6 C10_9 1_555 1_555
C23_9 C34_9 1_555 1_555
O31_6 C1_9 1_555 1_555
C1_9 C2_9 1_555 1_555
C2_9 C3_9 1_555 1_555
C3_9 H2_9 1_555 1_555
O34_6 C1_9 1_555 1_555
O36_11 C5_9 1_555 1_555
O33_11 C5_9 1_555 1_555
O36_2 C6_9 1_555 1_555
O33_2 C6_9 1_555 1_555
C5_9 C16_9 1_555 1_555
C6_9 C17_9 1_555 1_555
C16_9 C3_9 1_555 1_555
C17_9 C27_9 1_555 1_555
C27_9 C16_9 1_555 1_555
C28_9 C2_9 1_555 1_555
H11_9 C28_9 1_555 1_555
H12_9 C27_9 1_555 1_555
C17_9 C28_9 1_555 1_555
O31_7 C1_10 1_555 1_555
C1_10 C2_10 1_555 1_555
C2_10 C3_10 1_555 1_555
C3_10 H2_10 1_555 1_555
O34_7 C1_10 1_555 1_555
O36_9 C5_10 1_555 1_555
O33_9 C5_10 1_555 1_555
O36 C6_10 1_555 1_555
O33 C6_10 1_555 1_555
C5_10 C16_10 1_555 1_555
C6_10 C17_10 1_555 1_555
C16_10 C3_10 1_555 1_555
C17_10 C27_10 1_555 1_555
C27_10 C16_10 1_555 1_555
C28_10 C2_10 1_555 1_555
H11_10 C28_10 1_555 1_555
H12_10 C27_10 1_555 1_555
C17_10 C28_10 1_555 1_555
O34_11 C11_10 1_555 1_555
O31_11 C11_10 1_555 1_555
O34_3 C12_10 1_555 1_555
O31_3 C12_10 1_555 1_555
C10_10 O33_7 1_555 1_555
C11_10 C22_10 1_555 1_555
C12_10 C23_10 1_555 1_555
C21_10 C10_10 1_555 1_555
C22_10 C32_10 1_555 1_555
C23_10 C33_10 1_555 1_555
C32_10 C21_10 1_555 1_555
C33_10 C22_10 1_555 1_555
C34_10 C21_10 1_555 1_555
H16_10 C32_10 1_555 1_555
H17_10 C34_10 1_555 1_555
H18_10 C33_10 1_555 1_555
O36_7 C10_10 1_555 1_555
C23_10 C34_10 1_555 1_555
O31_8 C1_11 1_555 1_555
C1_11 C2_11 1_555 1_555
C2_11 C3_11 1_555 1_555
C3_11 H2_11 1_555 1_555
O34_8 C1_11 1_555 1_555
O36_12 C5_11 1_555 1_555
O33_12 C5_11 1_555 1_555
O36_4 C6_11 1_555 1_555
O33_4 C6_11 1_555 1_555
C5_11 C16_11 1_555 1_555
C6_11 C17_11 1_555 1_555
C16_11 C3_11 1_555 1_555
C17_11 C27_11 1_555 1_555
C27_11 C16_11 1_555 1_555
C28_11 C2_11 1_555 1_555
H11_11 C28_11 1_555 1_555
H12_11 C27_11 1_555 1_555
C17_11 C28_11 1_555 1_555
O34_10 C11_11 1_555 1_555
O31_10 C11_11 1_555 1_555
O34_2 C12_11 1_555 1_555
O31_2 C12_11 1_555 1_555
C10_11 O33_8 1_555 1_555
C11_11 C22_11 1_555 1_555
C12_11 C23_11 1_555 1_555
C21_11 C10_11 1_555 1_555
C22_11 C32_11 1_555 1_555
C23_11 C33_11 1_555 1_555
C32_11 C21_11 1_555 1_555
C33_11 C22_11 1_555 1_555
C34_11 C21_11 1_555 1_555
H16_11 C32_11 1_555 1_555
H17_11 C34_11 1_555 1_555
H18_11 C33_11 1_555 1_555
O36_8 C10_11 1_555 1_555
C23_11 C34_11 1_555 1_555
O34_12 C11_12 1_555 1_555
O31_12 C11_12 1_555 1_555
O34 C12_12 1_555 1_555
O31 C12_12 1_555 1_555
C10_12 O33_5 1_555 1_555
C11_12 C22_12 1_555 1_555
C12_12 C23_12 1_555 1_555
C21_12 C10_12 1_555 1_555
C22_12 C32_12 1_555 1_555
C23_12 C33_12 1_555 1_555
C32_12 C21_12 1_555 1_555
C33_12 C22_12 1_555 1_555
C34_12 C21_12 1_555 1_555
H16_12 C32_12 1_555 1_555
H17_12 C34_12 1_555 1_555
H18_12 C33_12 1_555 1_555
O36_5 C10_12 1_555 1_555
C23_12 C34_12 1_555 1_555
O31_5 C1_12 1_555 1_555
C1_12 C2_12 1_555 1_555
C2_12 C3_12 1_555 1_555
C3_12 H2_12 1_555 1_555
O34_5 C1_12 1_555 1_555
O36_10 C5_12 1_555 1_555
O33_10 C5_12 1_555 1_555
O36_3 C6_12 1_555 1_555
O33_3 C6_12 1_555 1_555
C5_12 C16_12 1_555 1_555
C6_12 C17_12 1_555 1_555
C16_12 C3_12 1_555 1_555
C17_12 C27_12 1_555 1_555
C27_12 C16_12 1_555 1_555
C28_12 C2_12 1_555 1_555
H11_12 C28_12 1_555 1_555
H12_12 C27_12 1_555 1_555
C17_12 C28_12 1_555 1_555
H32_25 C42 1_555 1_555

#END
