
###############################################################################
#
# This file contains modified crystal structure data generated from the
# MOF subset of the Cambridge Structural Database (CSD) v543 
# hosted by the Cambridge Crystallographic Data Centre (CCDC).
#
# This work is licensed under the Creative Commons
# Attribution-NonCommercial-ShareAlike 4.0 International License.
# To view a copy of this license, visit
# http://creativecommons.org/licenses/by-nc-sa/4.0/
# or send a letter to
# Creative Commons, PO Box 1866, Mountain View, CA 94042, USA.
#
# CIF created using the CSD Python API on 29 September 2022
# The structure has been converted into the P1 space group
# The structure has a 3D framework
# The original CSD entry EZUCIM is in the orthorhombic crystal system
# The original CSD entry EZUCIM is in a Sohncke space group
# The framework has been calculated to contain at least 10.0% void space
# The void calculation uses a probe of radius 1.32A, grid spacing 0.4
#
###############################################################################

data_EZUCIM
_chemical_formula_moiety         '(C60 H48 N16 O14 Zn4)n'
_symmetry_cell_setting           triclinic
_symmetry_space_group_name_H-M   'P 1'
_symmetry_Int_Tables_number      1
_space_group_name_Hall           'P 1'
loop_
_symmetry_equiv_pos_site_id
_symmetry_equiv_pos_as_xyz
1 x,y,z
_cell_length_a                   8.741(5)
_cell_length_b                   14.796(5)
_cell_length_c                   19.340(5)
_cell_angle_alpha                90
_cell_angle_beta                 90
_cell_angle_gamma                90
_cell_volume                     2501.28
loop_
_atom_site_label
_atom_site_type_symbol
_atom_site_fract_x
_atom_site_fract_y
_atom_site_fract_z
N1 N 0.6206(7) 0.0115(4) 0.3874(2)
N2 N 0.4884(6) 0.0428(4) 0.4217(2)
O4 O 0.6743(5) 0.0396(4) 0.5275(2)
N3 N 0.4159(6) 0.3236(4) 0.4314(3)
C2 C 0.6175(8) 0.0021(4) 0.3175(3)
C4 C 0.4683(7) 0.1347(4) 0.4267(3)
C5 C 0.3605(10) 0.1713(5) 0.4706(3)
H1 H 0.3037 0.1341 0.4996
C7 C 0.3372(8) 0.2648(5) 0.4710(3)
H3 H 0.2627 0.2879 0.5005
C11 C 0.5511(8) 0.1949(5) 0.3857(3)
H7 H 0.6257 0.1731 0.3558
C12 C 0.5235(8) 0.2843(5) 0.3894(3)
H8 H 0.5815 0.3221 0.3613
C13 C 0.4974(8) 0.0055(4) 0.2069(3)
H9 H 0.4101 0.0140 0.1802
C14 C 0.4861(8) 0.0172(4) 0.2773(3)
H10 H 0.3943 0.0346 0.2977
H11 H 0.705(7) 0.001(4) 0.405(3)
Zn3 Zn 0.86854(8) 0.04448(5) 0.57330(3)
Zn4 Zn 0.36854(8) 0.45552(5) 0.42670(3)
O5 O 0.4677(6) 0.0235(4) 0.0297(2)
Zn1 Zn 0.63146(8) 0.95552(5) 0.07330(3)
O1 O 0.0323(6) 0.9765(4) 0.5297(2)
O3 O 0.5556(6) 0.9287(4) 0.5850(3)
N4 N 0.6283(7) 0.9824(4) 0.1745(2)
C1 C 0.3176(8) 0.9416(5) 0.4833(3)
C3 C 0.4484(8) 0.9848(4) 0.4790(3)
C6 C 0.7542(8) 0.9791(5) 0.2839(3)
H2 H 0.8443 0.9712 0.3087
C8 C 0.1907(8) 0.9445(5) 0.4345(4)
H4 H 0.1673 0.8834 0.4198
H5 H 0.2219 0.9784 0.3940
C9 C 0.0481(9) 0.9867(5) 0.4640(3)
C10 C 0.7514(8) 0.9686(5) 0.2135(3)
H6 H 0.8412 0.9507 0.1917
C15 C 0.5671(8) 0.9818(5) 0.5353(3)
H12 H 0.311(10) 0.926(5) 0.533(5)
O6 O 0.8257(5) 0.9604(4) 0.0275(2)
N5 N 0.5841(6) 0.8236(4) 0.0686(3)
O2 O 0.9549(5) 0.0266(4) 0.4272(3)
H12_2 H 0.189(10) 0.074(5) 0.033(5)
H3_2 H 0.2373 0.7121 0.0005
N2_2 N 0.0116(6) 0.9572(4) 0.9217(2)
O2_2 O 0.5451(5) 0.9734(4) 0.9272(3)
N3_2 N 0.0841(6) 0.6764(4) 0.9314(3)
C4_2 C 0.0317(7) 0.8653(4) 0.9267(3)
C5_2 C 0.1395(10) 0.8287(5) 0.9706(3)
H1_2 H 0.1963 0.8659 0.9996
C7_2 C 0.1628(8) 0.7352(5) 0.9710(3)
C13_2 C 0.0026(8) 0.9945(4) 0.7069(3)
H9_2 H 0.0899 0.9860 0.6802
C14_2 C 0.0139(8) 0.9828(4) 0.7773(3)
H10_2 H 0.1057 0.9654 0.7977
Zn4_2 Zn 0.13146(8) 0.54448(5) 0.92670(3)
N4_2 N 0.8717(7) 0.0176(4) 0.6745(2)
C6_2 C 0.7458(8) 0.0209(5) 0.7839(3)
H2_2 H 0.6557 0.0288 0.8087
C10_2 C 0.7486(8) 0.0314(5) 0.7135(3)
H6_2 H 0.6588 0.0493 0.6917
N5_2 N 0.9159(6) 0.1764(4) 0.5686(3)
N1_2 N 0.1206(7) 0.4885(4) 0.6126(2)
O3_2 O 0.0556(6) 0.5713(4) 0.4150(3)
O4_2 O 0.1743(5) 0.4604(4) 0.4725(2)
N4_3 N 0.1283(7) 0.5176(4) 0.8255(2)
C2_2 C 0.1175(8) 0.4979(4) 0.6825(3)
C6_3 C 0.2542(8) 0.5209(5) 0.7161(3)
H2_3 H 0.3443 0.5288 0.6913
C10_3 C 0.2514(8) 0.5314(5) 0.7865(3)
H6_3 H 0.3412 0.5493 0.8083
C11_2 C 0.0511(8) 0.3051(5) 0.6143(3)
H7_2 H 0.1257 0.3269 0.6442
C12_2 C 0.0235(8) 0.2157(5) 0.6106(3)
H8_2 H 0.0815 0.1779 0.6387
C15_2 C 0.0671(8) 0.5182(5) 0.4647(3)
H11_2 H 0.205(7) 0.499(4) 0.595(3)
O6_2 O 0.3257(5) 0.5396(4) 0.9725(2)
O1_2 O 0.5323(6) 0.5235(4) 0.4703(2)
N2_3 N 0.9884(6) 0.4572(4) 0.5783(2)
O2_3 O 0.4549(5) 0.4734(4) 0.5728(3)
C1_2 C 0.8176(8) 0.5584(5) 0.5167(3)
C3_2 C 0.9484(8) 0.5152(4) 0.5210(3)
C4_3 C 0.9683(7) 0.3653(4) 0.5733(3)
C5_3 C 0.8605(10) 0.3287(5) 0.5294(3)
H1_3 H 0.8037 0.3659 0.5004
C7_3 C 0.8372(8) 0.2352(5) 0.5290(3)
H3_3 H 0.7627 0.2121 0.4995
C8_2 C 0.6907(8) 0.5555(5) 0.5655(4)
H4_2 H 0.6673 0.6166 0.5802
H5_2 H 0.7219 0.5216 0.6060
C9_2 C 0.5481(9) 0.5133(5) 0.5360(3)
C13_3 C 0.9974(8) 0.4945(4) 0.7931(3)
H9_3 H 0.9101 0.4860 0.8198
C14_3 C 0.9861(8) 0.4828(4) 0.7227(3)
H10_3 H 0.8943 0.4654 0.7023
H12_3 H 0.811(10) 0.574(5) 0.467(5)
O5_2 O 0.9677(6) 0.4765(4) 0.9703(2)
N1_3 N 0.3794(7) 0.5115(4) 0.1126(2)
N2_4 N 0.5116(6) 0.5428(4) 0.0783(2)
N4_4 N 0.3717(7) 0.4824(4) 0.3255(2)
C1_3 C 0.6824(8) 0.4416(5) 0.0167(3)
C2_3 C 0.3825(8) 0.5021(4) 0.1825(3)
C3_3 C 0.5516(8) 0.4848(4) 0.0210(3)
C4_4 C 0.5317(7) 0.6347(4) 0.0733(3)
C5_4 C 0.6395(10) 0.6713(5) 0.0294(3)
H1_4 H 0.6963 0.6341 0.0004
C6_4 C 0.2458(8) 0.4791(5) 0.2161(3)
H2_4 H 0.1557 0.4712 0.1913
C7_4 C 0.6628(8) 0.7648(5) 0.0290(3)
C8_3 C 0.8093(8) 0.4445(5) 0.0655(4)
H4_3 H 0.8327 0.3834 0.0802
H5_3 H 0.7781 0.4784 0.1060
C9_3 C 0.9519(9) 0.4867(5) 0.0360(3)
C10_4 C 0.2486(8) 0.4686(5) 0.2865(3)
H6_4 H 0.1588 0.4507 0.3083
C11_3 C 0.4489(8) 0.6949(5) 0.1143(3)
H7_3 H 0.3743 0.6731 0.1442
C12_3 C 0.4765(8) 0.7843(5) 0.1106(3)
H8_3 H 0.4185 0.8221 0.1387
C13_4 C 0.5026(8) 0.5055(4) 0.2931(3)
H9_4 H 0.5899 0.5140 0.3198
C14_4 C 0.5139(8) 0.5172(4) 0.2227(3)
H10_4 H 0.6057 0.5346 0.2023
H11_3 H 0.295(7) 0.501(4) 0.095(3)
O3_3 O 0.4444(6) 0.4287(4) 0.9150(3)
H3_4 H 0.7373 0.7879 0.9995
C15_3 C 0.4329(8) 0.4818(5) 0.9647(3)
H12_4 H 0.689(10) 0.426(5) 0.967(5)
C1_4 C 0.1824(8) 0.0584(5) 0.9833(3)
C3_4 C 0.0516(8) 0.0152(4) 0.9790(3)
C8_4 C 0.3093(8) 0.0555(5) 0.9345(4)
H4_4 H 0.3327 0.1166 0.9198
H5_4 H 0.2781 0.0216 0.8940
C9_4 C 0.4519(9) 0.0133(5) 0.9640(3)
O3_4 O 0.9444(6) 0.0713(4) 0.0850(3)
C15_4 C 0.9329(8) 0.0182(5) 0.0353(3)
N1_4 N 0.8794(7) 0.9885(4) 0.8874(2)
C2_4 C 0.8825(8) 0.9979(4) 0.8175(3)
C11_4 C 0.9489(8) 0.8051(5) 0.8857(3)
H7_4 H 0.8743 0.8269 0.8558
C12_4 C 0.9765(8) 0.7157(5) 0.8894(3)
H8_4 H 0.9185 0.6779 0.8613
H11_4 H 0.795(7) 0.999(4) 0.905(3)
O2_4 O 0.0451(5) 0.5266(4) 0.0728(3)
loop_
_geom_bond_atom_site_label_1
_geom_bond_atom_site_label_2
_geom_bond_site_symmetry_1
_geom_bond_site_symmetry_2
N1 N2 1_555 1_555
N3 C7 1_555 1_555
C2 N1 1_555 1_555
C4 N2 1_555 1_555
C5 C4 1_555 1_555
H1 C5 1_555 1_555
C7 C5 1_555 1_555
H3 C7 1_555 1_555
C11 C4 1_555 1_555
H7 C11 1_555 1_555
C12 N3 1_555 1_555
H8 C12 1_555 1_555
H9 C13 1_555 1_555
C14 C2 1_555 1_555
H10 C14 1_555 1_555
H11 N1 1_555 1_555
Zn3 O4 1_555 1_555
Zn4 N3 1_555 1_555
C11 C12 1_555 1_555
C13 C14 1_555 1_555
Zn1 N4 1_555 1_555
O1 C9 1_555 1_555
O3 C15 1_555 1_555
N4 C10 1_555 1_555
C1 C3 1_555 1_555
C3 C15 1_555 1_555
H2 C6 1_555 1_555
C8 C1 1_555 1_555
H4 C8 1_555 1_555
H5 C8 1_555 1_555
C9 C8 1_555 1_555
C10 C6 1_555 1_555
H6 C10 1_555 1_555
H12 C1 1_555 1_555
O6 Zn1 1_555 1_555
N5 Zn1 1_555 1_555
N3_2 C7_2 1_555 1_555
C4_2 N2_2 1_555 1_555
C5_2 C4_2 1_555 1_555
H1_2 C5_2 1_555 1_555
C7_2 C5_2 1_555 1_555
H9_2 C13_2 1_555 1_555
H10_2 C14_2 1_555 1_555
Zn4_2 N3_2 1_555 1_555
C13_2 C14_2 1_555 1_555
Zn3 N4_2 1_555 1_555
N4_2 C10_2 1_555 1_555
H2_2 C6_2 1_555 1_555
C10_2 C6_2 1_555 1_555
H6_2 C10_2 1_555 1_555
N5_2 Zn3 1_555 1_555
Zn4_2 N4_3 1_555 1_555
O3_2 C15_2 1_555 1_555
O4_2 C15_2 1_555 1_555
N4_3 C10_3 1_555 1_555
C2_2 N1_2 1_555 1_555
C6_3 C2_2 1_555 1_555
H2_3 C6_3 1_555 1_555
C10_3 C6_3 1_555 1_555
H6_3 C10_3 1_555 1_555
H7_2 C11_2 1_555 1_555
H8_2 C12_2 1_555 1_555
H11_2 N1_2 1_555 1_555
Zn4 O4_2 1_555 1_555
O6_2 Zn4_2 1_555 1_555
C11_2 C12_2 1_555 1_555
O1_2 C9_2 1_555 1_555
N2_3 C3_2 1_555 1_555
O2_3 C9_2 1_555 1_555
N5_2 C7_3 1_555 1_555
C1_2 C3_2 1_555 1_555
C4_3 N2_3 1_555 1_555
C5_3 C4_3 1_555 1_555
H1_3 C5_3 1_555 1_555
C7_3 C5_3 1_555 1_555
H3_3 C7_3 1_555 1_555
C8_2 C1_2 1_555 1_555
H4_2 C8_2 1_555 1_555
H5_2 C8_2 1_555 1_555
C9_2 C8_2 1_555 1_555
H9_3 C13_3 1_555 1_555
H10_3 C14_3 1_555 1_555
H12_3 C1_2 1_555 1_555
Zn4 O1_2 1_555 1_555
C13_3 C14_3 1_555 1_555
Zn4 N4_4 1_555 1_555
N1_3 N2_4 1_555 1_555
N2_4 C3_3 1_555 1_555
N5 C7_4 1_555 1_555
N4_4 C10_4 1_555 1_555
C1_3 C3_3 1_555 1_555
C2_3 N1_3 1_555 1_555
C4_4 N2_4 1_555 1_555
C5_4 C4_4 1_555 1_555
H1_4 C5_4 1_555 1_555
C6_4 C2_3 1_555 1_555
H2_4 C6_4 1_555 1_555
C7_4 C5_4 1_555 1_555
C8_3 C1_3 1_555 1_555
H4_3 C8_3 1_555 1_555
H5_3 C8_3 1_555 1_555
C9_3 C8_3 1_555 1_555
C10_4 C6_4 1_555 1_555
H6_4 C10_4 1_555 1_555
C11_3 C4_4 1_555 1_555
H7_3 C11_3 1_555 1_555
C12_3 N5 1_555 1_555
H8_3 C12_3 1_555 1_555
C13_4 N4_4 1_555 1_555
H9_4 C13_4 1_555 1_555
C14_4 C2_3 1_555 1_555
H10_4 C14_4 1_555 1_555
H11_3 N1_3 1_555 1_555
C11_3 C12_3 1_555 1_555
C13_4 C14_4 1_555 1_555
O3_3 C15_3 1_555 1_555
O6_2 C15_3 1_555 1_555
C1_4 C3_4 1_555 1_555
C8_4 C1_4 1_555 1_555
H4_4 C8_4 1_555 1_555
H5_4 C8_4 1_555 1_555
C9_4 C8_4 1_555 1_555
O3_4 C15_4 1_555 1_555
C2_4 N1_4 1_555 1_555
H7_4 C11_4 1_555 1_555
H8_4 C12_4 1_555 1_555
H11_4 N1_4 1_555 1_555
C11_4 C12_4 1_555 1_555

#END
