
###############################################################################
#
# This file contains modified crystal structure data generated from the
# MOF subset of the Cambridge Structural Database (CSD) v543 
# hosted by the Cambridge Crystallographic Data Centre (CCDC).
#
# This work is licensed under the Creative Commons
# Attribution-NonCommercial-ShareAlike 4.0 International License.
# To view a copy of this license, visit
# http://creativecommons.org/licenses/by-nc-sa/4.0/
# or send a letter to
# Creative Commons, PO Box 1866, Mountain View, CA 94042, USA.
#
# CIF created using the CSD Python API on 29 September 2022
# The structure has been converted into the P1 space group
# The structure has a 3D framework
# The original CSD entry FABFOF is in the monoclinic crystal system
# The framework has been calculated to contain at least 10.0% void space
# The void calculation uses a probe of radius 1.32A, grid spacing 0.4
# The framework is charged, counterions have been retained in the structure
# H atom positions have been added when not included in the experimental data
#
###############################################################################

data_FABFOF
_chemical_formula_moiety         '(C40 H40 N8 O32 Zn2 2+)n'
_symmetry_cell_setting           triclinic
_symmetry_space_group_name_H-M   'P 1'
_symmetry_Int_Tables_number      1
_space_group_name_Hall           'P 1'
loop_
_symmetry_equiv_pos_site_id
_symmetry_equiv_pos_as_xyz
1 x,y,z
_cell_length_a                   11.548(2)
_cell_length_b                   15.319(3)
_cell_length_c                   11.021(2)
_cell_angle_alpha                90
_cell_angle_beta                 92.36(3)
_cell_angle_gamma                90
_cell_volume                     1948
loop_
_atom_site_label
_atom_site_type_symbol
_atom_site_fract_x
_atom_site_fract_y
_atom_site_fract_z
N1 N 0.2261(3) 0.4246(2) 0.5050(3)
H3 H 0.313994 0.4246 0.505
H4 H 0.195094 0.478699 0.461548
H5 H 0.195094 0.370501 0.461548
H6 H 0.200217 0.4246 0.591904
H4_2 H 0.804906 0.478699 0.0384518
H5_2 H 0.804906 0.370501 0.0384518
N1_2 N 0.7739(3) 0.4246(2) 0.9950(3)
H3_2 H 0.686006 0.4246 0.995
H6_2 H 0.799783 0.4246 0.908096
N1_3 N 0.7261(3) 0.9246(2) 0.5050(3)
H3_3 H 0.813994 0.9246 0.505
H4_3 H 0.695094 0.978699 0.461548
H5_3 H 0.695094 0.870501 0.461548
H6_3 H 0.700217 0.9246 0.591904
H4_4 H 0.304906 0.978699 0.0384518
H5_4 H 0.304906 0.870501 0.0384518
N1_4 N 0.2739(3) 0.9246(2) 0.9950(3)
H3_4 H 0.186006 0.9246 0.995
H6_4 H 0.299783 0.9246 0.908096
N1_5 N 0.7739(3) 0.5754(2) 0.4950(3)
H3_5 H 0.686006 0.5754 0.495
H4_5 H 0.804906 0.521301 0.538452
H5_5 H 0.804906 0.629499 0.538452
H6_5 H 0.799783 0.5754 0.408096
N1_6 N 0.2261(3) 0.5754(2) 0.0050(3)
H3_6 H 0.313994 0.5754 0.005
H6_6 H 0.200217 0.5754 0.0919035
H4_6 H 0.195094 0.521301 0.961548
H5_6 H 0.195094 0.629499 0.961548
N1_7 N 0.2739(3) 0.0754(2) 0.4950(3)
H3_7 H 0.186006 0.0754 0.495
H4_7 H 0.304906 0.0213009 0.538452
H5_7 H 0.304906 0.129499 0.538452
H6_7 H 0.299783 0.0754 0.408096
N1_8 N 0.7261(3) 0.0754(2) 0.0050(3)
H3_8 H 0.813994 0.0754 0.005
H6_8 H 0.700217 0.0754 0.0919035
H4_8 H 0.695094 0.0213009 0.961548
H5_8 H 0.695094 0.129499 0.961548
O3 O 0.02589(16) 0.34842(13) 0.60042(19)
Zn1 Zn 0.0000 0.49461(2) 0.2500
O6 O 0.09069(16) 0.43252(11) 0.12915(16)
O10 O 0.11562(15) 0.56178(11) 0.34869(16)
Zn3 Zn 0.0000 0.50539(2) 0.7500
C1 C 0.8051(2) 0.30559(15) 0.4197(2)
C2 C 0.8595(2) 0.36456(17) 0.3290(2)
C3 C 0.8323(2) 0.31049(15) 0.5440(2)
C4 C 0.7770(2) 0.25511(16) 0.6221(2)
H1 H 0.7952 0.2585 0.7050
C5 C 0.9220(2) 0.37056(16) 0.6000(2)
O1 O 0.90931(16) 0.43252(11) 0.37085(16)
O2 O 0.8524(2) 0.34606(16) 0.22005(19)
O4 O 0.88438(15) 0.43822(11) 0.65131(16)
Zn1_2 Zn 1.0000 0.49461(2) 0.2500
C6 C 0.6949(2) 0.19441(15) 0.5803(2)
C7 C 0.6405(2) 0.13544(17) 0.6710(2)
C8 C 0.6677(2) 0.18951(15) 0.4560(2)
C9 C 0.7230(2) 0.24489(16) 0.3779(2)
H2 H 0.7048 0.2415 0.2950
C10 C 0.5780(2) 0.12944(16) 0.4000(2)
O5 O 0.59069(16) 0.06748(11) 0.62915(16)
O7 O 0.6476(2) 0.15394(16) 0.77995(19)
O8 O 0.47411(16) 0.15158(13) 0.39958(19)
O9 O 0.61562(15) 0.06178(11) 0.34869(16)
O11 O 0.88438(15) 0.56178(11) 0.15131(16)
Zn3_2 Zn 1.0000 0.50539(2) 0.7500
Zn4 Zn 0.5000 0.00539(2) 0.7500
Zn2 Zn 0.5000 0.99461(2) 0.2500
C1_2 C 0.1949(2) 0.30559(15) 0.0803(2)
C2_2 C 0.1405(2) 0.36456(17) 0.1710(2)
O2_2 O 0.1476(2) 0.34606(16) 0.27995(19)
C8_2 C 0.3323(2) 0.18951(15) 0.0440(2)
C9_2 C 0.2770(2) 0.24489(16) 0.1221(2)
H2_2 H 0.2952 0.2415 0.2050
C10_2 C 0.4220(2) 0.12944(16) 0.1000(2)
O8_2 O 0.52589(16) 0.15158(13) 0.10042(19)
O9_2 O 0.38438(15) 0.06178(11) 0.15131(16)
C3_2 C 0.1677(2) 0.31049(15) 0.9560(2)
C4_2 C 0.2230(2) 0.25511(16) 0.8779(2)
H1_2 H 0.2048 0.2585 0.7950
C5_2 C 0.0780(2) 0.37056(16) 0.9000(2)
O4_2 O 0.11562(15) 0.43822(11) 0.84869(16)
C6_2 C 0.3051(2) 0.19441(15) 0.9197(2)
C7_2 C 0.3595(2) 0.13544(17) 0.8290(2)
O5_2 O 0.40931(16) 0.06748(11) 0.87085(16)
O7_2 O 0.3524(2) 0.15394(16) 0.72005(19)
O3_2 O 0.97411(16) 0.34842(13) 0.89958(19)
C1_3 C 0.3051(2) 0.80559(15) 0.4197(2)
C2_3 C 0.3595(2) 0.86456(17) 0.3290(2)
C3_3 C 0.3323(2) 0.81049(15) 0.5440(2)
C4_3 C 0.2770(2) 0.75511(16) 0.6221(2)
H1_3 H 0.2952 0.7585 0.7050
C5_3 C 0.4220(2) 0.87056(16) 0.6000(2)
O1_2 O 0.40931(16) 0.93252(11) 0.37085(16)
O2_3 O 0.3524(2) 0.84606(16) 0.22005(19)
O3_3 O 0.52589(16) 0.84842(13) 0.60042(19)
O4_3 O 0.38438(15) 0.93822(11) 0.65131(16)
C6_3 C 0.1949(2) 0.69441(15) 0.5803(2)
C7_3 C 0.1405(2) 0.63544(17) 0.6710(2)
C8_3 C 0.1677(2) 0.68951(15) 0.4560(2)
C9_3 C 0.2230(2) 0.74489(16) 0.3779(2)
H2_3 H 0.2048 0.7415 0.2950
C10_3 C 0.0780(2) 0.62944(16) 0.4000(2)
O5_3 O 0.09069(16) 0.56748(11) 0.62915(16)
O6_2 O 0.59069(16) 0.93252(11) 0.12915(16)
O7_3 O 0.1476(2) 0.65394(16) 0.77995(19)
O8_3 O 0.97411(16) 0.65158(13) 0.39958(19)
O8_4 O 0.02589(16) 0.65158(13) 0.10042(19)
C1_4 C 0.6949(2) 0.80559(15) 0.0803(2)
C2_4 C 0.6405(2) 0.86456(17) 0.1710(2)
O2_4 O 0.6476(2) 0.84606(16) 0.27995(19)
C8_4 C 0.8323(2) 0.68951(15) 0.0440(2)
C9_4 C 0.7770(2) 0.74489(16) 0.1221(2)
H2_4 H 0.7952 0.7415 0.2050
C10_4 C 0.9220(2) 0.62944(16) 0.1000(2)
C3_4 C 0.6677(2) 0.81049(15) 0.9560(2)
C4_4 C 0.7230(2) 0.75511(16) 0.8779(2)
H1_4 H 0.7048 0.7585 0.7950
C5_4 C 0.5780(2) 0.87056(16) 0.9000(2)
O3_4 O 0.47411(16) 0.84842(13) 0.89958(19)
O4_4 O 0.61562(15) 0.93822(11) 0.84869(16)
C6_4 C 0.8051(2) 0.69441(15) 0.9197(2)
C7_4 C 0.8595(2) 0.63544(17) 0.8290(2)
O5_4 O 0.90931(16) 0.56748(11) 0.87085(16)
O7_4 O 0.8524(2) 0.65394(16) 0.72005(19)
loop_
_geom_bond_atom_site_label_1
_geom_bond_atom_site_label_2
_geom_bond_site_symmetry_1
_geom_bond_site_symmetry_2
N1 H3 1_555 1_555
N1 H4 1_555 1_555
N1 H5 1_555 1_555
N1 H6 1_555 1_555
N1_2 H3_2 1_555 1_555
N1_2 H6_2 1_555 1_555
N1_3 H3_3 1_555 1_555
N1_3 H4_3 1_555 1_555
N1_3 H5_3 1_555 1_555
N1_3 H6_3 1_555 1_555
N1_4 H3_4 1_555 1_555
N1_4 H6_4 1_555 1_555
N1_5 H3_5 1_555 1_555
N1_5 H4_5 1_555 1_555
N1_5 H5_5 1_555 1_555
N1_5 H6_5 1_555 1_555
N1_6 H3_6 1_555 1_555
N1_6 H6_6 1_555 1_555
N1_7 H3_7 1_555 1_555
N1_7 H4_7 1_555 1_555
N1_7 H5_7 1_555 1_555
N1_7 H6_7 1_555 1_555
N1_8 H3_8 1_555 1_555
N1_8 H6_8 1_555 1_555
Zn1 O6 1_555 1_555
O10 Zn1 1_555 1_555
C1 C2 1_555 1_555
C2 O1 1_555 1_555
C3 C1 1_555 1_555
C4 C3 1_555 1_555
H1 C4 1_555 1_555
C5 C3 1_555 1_555
O1 Zn1_2 1_555 1_555
O2 C2 1_555 1_555
O4 C5 1_555 1_555
C6 C4 1_555 1_555
C7 C6 1_555 1_555
C8 C6 1_555 1_555
C9 C1 1_555 1_555
H2 C9 1_555 1_555
C10 C8 1_555 1_555
O5 C7 1_555 1_555
O7 C7 1_555 1_555
O8 C10 1_555 1_555
O9 C10 1_555 1_555
O11 Zn1_2 1_555 1_555
Zn3_2 O4 1_555 1_555
Zn4 O5 1_555 1_555
C8 C9 1_555 1_555
C1_2 C2_2 1_555 1_555
C2_2 O6 1_555 1_555
O2_2 C2_2 1_555 1_555
C9_2 C1_2 1_555 1_555
H2_2 C9_2 1_555 1_555
C10_2 C8_2 1_555 1_555
O8_2 C10_2 1_555 1_555
O9_2 C10_2 1_555 1_555
C8_2 C9_2 1_555 1_555
C4_2 C3_2 1_555 1_555
H1_2 C4_2 1_555 1_555
C5_2 C3_2 1_555 1_555
O4_2 C5_2 1_555 1_555
C6_2 C4_2 1_555 1_555
C7_2 C6_2 1_555 1_555
O5_2 C7_2 1_555 1_555
O7_2 C7_2 1_555 1_555
Zn3 O4_2 1_555 1_555
Zn4 O5_2 1_555 1_555
C1_3 C2_3 1_555 1_555
C2_3 O1_2 1_555 1_555
C3_3 C1_3 1_555 1_555
C4_3 C3_3 1_555 1_555
H1_3 C4_3 1_555 1_555
C5_3 C3_3 1_555 1_555
O1_2 Zn2 1_555 1_555
O2_3 C2_3 1_555 1_555
O3_3 C5_3 1_555 1_555
O4_3 C5_3 1_555 1_555
Zn2 O6_2 1_555 1_555
C6_3 C4_3 1_555 1_555
C7_3 C6_3 1_555 1_555
C8_3 C6_3 1_555 1_555
C9_3 C1_3 1_555 1_555
H2_3 C9_3 1_555 1_555
C10_3 C8_3 1_555 1_555
O5_3 C7_3 1_555 1_555
O7_3 C7_3 1_555 1_555
O10 C10_3 1_555 1_555
Zn3 O5_3 1_555 1_555
C8_3 C9_3 1_555 1_555
C1_4 C2_4 1_555 1_555
C2_4 O6_2 1_555 1_555
O2_4 C2_4 1_555 1_555
C9_4 C1_4 1_555 1_555
H2_4 C9_4 1_555 1_555
C10_4 C8_4 1_555 1_555
O11 C10_4 1_555 1_555
C8_4 C9_4 1_555 1_555
C4_4 C3_4 1_555 1_555
H1_4 C4_4 1_555 1_555
C5_4 C3_4 1_555 1_555
O3_4 C5_4 1_555 1_555
O4_4 C5_4 1_555 1_555
C6_4 C4_4 1_555 1_555
C7_4 C6_4 1_555 1_555
O5_4 C7_4 1_555 1_555
O7_4 C7_4 1_555 1_555
Zn3_2 O5_4 1_555 1_555

#END
