
###############################################################################
#
# This file contains modified crystal structure data generated from the
# MOF subset of the Cambridge Structural Database (CSD) v543 
# hosted by the Cambridge Crystallographic Data Centre (CCDC).
#
# This work is licensed under the Creative Commons
# Attribution-NonCommercial-ShareAlike 4.0 International License.
# To view a copy of this license, visit
# http://creativecommons.org/licenses/by-nc-sa/4.0/
# or send a letter to
# Creative Commons, PO Box 1866, Mountain View, CA 94042, USA.
#
# CIF created using the CSD Python API on 29 September 2022
# The structure has been converted into the P1 space group
# The structure has a 3D framework
# The original CSD entry FABGOG is in the hexagonal crystal system
# The original CSD entry FABGOG is in a Sohncke space group
# The framework has been calculated to contain at least 10.0% void space
# The void calculation uses a probe of radius 1.32A, grid spacing 0.4
# The framework is charged, counterions have been retained in the structure
#
###############################################################################

data_FABGOG
_chemical_formula_moiety         '(C72 H60 Cu8 N24 O24 3+)n'
_symmetry_cell_setting           triclinic
_symmetry_space_group_name_H-M   'P 1'
_symmetry_Int_Tables_number      1
_space_group_name_Hall           'P 1'
loop_
_symmetry_equiv_pos_site_id
_symmetry_equiv_pos_as_xyz
1 x,y,z
_cell_length_a                   12.7231(8)
_cell_length_b                   12.7231(8)
_cell_length_c                   16.4812(18)
_cell_angle_alpha                90
_cell_angle_beta                 90
_cell_angle_gamma                120
_cell_volume                     2310.5
loop_
_atom_site_label
_atom_site_type_symbol
_atom_site_fract_x
_atom_site_fract_y
_atom_site_fract_z
Cu3 Cu 0.02229(10) 0.51115(11) 0.2500
O3 O 0.0068(5) 0.3838(7) 0.1722(3)
O5 O 0.0068(5) 0.6230(5) 0.3278(3)
N10 N 0.0641(8) 0.4348(6) 0.3400(3)
N11 N 0.0641(8) 0.6293(6) 0.1600(3)
Cu2 Cu 0.6667 0.3333 0.2500
O2 O 0.5336(7) 0.1795(6) 0.1705(4)
C4 C 0.4486(6) 0.2355(8) 0.0325(3)
H4 H 0.5232 0.2920 0.0573
C5 C 0.3824(7) 0.1291(7) 0.0721(4)
H5 H 0.3027 0.0728 0.0540
C6 C 0.4341(7) 0.1002(8) 0.1437(4)
Cu4 Cu 0.48885(11) 0.51114(5) 0.2500
Cu8 Cu 0.51114(5) 0.48885(11) 0.7500
Cu9 Cu 0.97771(10) 0.48886(5) 0.7500
Cu10 Cu 0.51115(11) 0.02229(10) 0.7500
O4 O 0.6162(7) 0.6230(5) 0.1722(3)
O7 O 0.3770(5) 0.3838(7) 0.3278(3)
O8 O 0.8205(6) 0.3541(9) 0.1705(4)
O9 O 0.6459(9) 0.4664(7) 0.1705(4)
O10 O 0.8205(6) 0.4664(7) 0.3295(4)
O11 O 0.6459(9) 0.1795(6) 0.3295(4)
O12 O 0.5336(7) 0.3541(9) 0.3295(4)
N5 N 0.6293(6) 0.5652(6) 0.6600(3)
N6 N 0.9359(8) 0.3707(6) 0.6600(3)
N7 N 0.4348(6) 0.0641(8) 0.6600(3)
N12 N 0.5652(6) 0.6293(6) 0.3400(3)
N13 N 0.3707(6) 0.4348(6) 0.1600(3)
N16 N 0.7877(6) 0.6876(6) 0.5865(4)
N17 N 0.8999(8) 0.2123(6) 0.5865(4)
N18 N 0.3124(6) 0.1001(8) 0.5865(4)
H8 H 0.8550 0.7530 0.5713
H9 H 0.8980 0.1450 0.5713
H10 H 0.2470 0.1020 0.5713
C9 C 0.7269(7) 0.6741(7) 0.6552(4)
C10 C 0.9472(10) 0.2731(7) 0.6552(4)
C11 C 0.3259(7) 0.0528(10) 0.6552(4)
H13 H 0.7508 0.7350 0.6957
H14 H 0.9842 0.2492 0.6957
H15 H 0.2650 0.0158 0.6957
C14 C 0.6284(7) 0.5059(7) 0.5891(4)
C15 C 0.8775(10) 0.3716(7) 0.5891(4)
C16 C 0.4941(7) 0.1225(10) 0.5891(4)
H18 H 0.5684 0.4255 0.5749
H19 H 0.8571 0.4316 0.5749
H20 H 0.5745 0.1429 0.5749
C19 C 0.7258(7) 0.5802(6) 0.5433(4)
C20 C 0.8544(9) 0.2742(7) 0.5433(4)
C21 C 0.4198(6) 0.1456(9) 0.5433(4)
C22 C 0.7645(8) 0.2131(10) 0.0325(3)
C23 C 0.7869(10) 0.5514(6) 0.0325(3)
C24 C 0.7645(8) 0.5514(6) 0.4675(3)
C25 C 0.7869(10) 0.2355(8) 0.4675(3)
C26 C 0.4486(6) 0.2131(10) 0.4675(3)
H21 H 0.7080 0.2312 0.0573
H22 H 0.7688 0.4768 0.0573
H23 H 0.7080 0.4768 0.4427
H24 H 0.7688 0.2920 0.4427
H25 H 0.5232 0.2312 0.4427
C27 C 0.8709(7) 0.2533(10) 0.0721(4)
C28 C 0.7467(10) 0.6176(7) 0.0721(4)
C29 C 0.8709(7) 0.6176(7) 0.4279(4)
C30 C 0.7467(10) 0.1291(7) 0.4279(4)
C31 C 0.3824(7) 0.2533(10) 0.4279(4)
H26 H 0.9272 0.2299 0.0540
H27 H 0.7701 0.6973 0.0540
H28 H 0.9272 0.6973 0.4460
H29 H 0.7701 0.0728 0.4460
H30 H 0.3027 0.2299 0.4460
C32 C 0.8998(8) 0.3339(11) 0.1437(4)
C33 C 0.6661(11) 0.5659(7) 0.1437(4)
C34 C 0.8998(8) 0.5659(7) 0.3563(4)
C35 C 0.6661(11) 0.1002(8) 0.3563(4)
C36 C 0.4341(7) 0.3339(11) 0.3563(4)
N1 N 0.4348(6) 0.3707(6) 0.8400(3)
N2 N 0.3124(6) 0.2123(6) 0.9135(4)
H1 H 0.2470 0.1450 0.9287
C1 C 0.3259(7) 0.2731(7) 0.8448(4)
H2 H 0.2650 0.2492 0.8043
C2 C 0.4941(7) 0.3716(7) 0.9109(4)
H3 H 0.5745 0.4316 0.9251
C3 C 0.4198(6) 0.2742(7) 0.9567(4)
N3 N 0.6293(6) 0.0641(8) 0.8400(3)
N4 N 0.9359(8) 0.5652(6) 0.8400(3)
N14 N 0.7877(6) 0.1001(8) 0.9135(4)
N15 N 0.8999(8) 0.6876(6) 0.9135(4)
H6 H 0.8550 0.1020 0.9287
H7 H 0.8980 0.7530 0.9287
C7 C 0.7269(7) 0.0528(10) 0.8448(4)
C8 C 0.9472(10) 0.6741(7) 0.8448(4)
H11 H 0.7508 0.0158 0.8043
H12 H 0.9842 0.7350 0.8043
C12 C 0.6284(7) 0.1225(10) 0.9109(4)
C13 C 0.8775(10) 0.5059(7) 0.9109(4)
H16 H 0.5684 0.1429 0.9251
H17 H 0.8571 0.4255 0.9251
C17 C 0.7258(7) 0.1456(9) 0.9567(4)
C18 C 0.8544(9) 0.5802(6) 0.9567(4)
Cu1 Cu 0.48886(5) 0.97771(10) 0.2500
O1 O 0.3770(5) 0.9932(5) 0.1722(3)
O6 O 0.6162(7) 0.9932(5) 0.3278(3)
N8 N 0.3707(6) 0.9359(8) 0.3400(3)
N9 N 0.5652(6) 0.9359(8) 0.1600(3)
O3_2 O 0.6230(9) 0.0068(5) 0.6722(3)
O5_2 O 0.3838(7) 0.0068(5) 0.8278(3)
N16_2 N 0.1001(8) 0.7877(6) 0.0865(4)
N17_2 N 0.6876(10) 0.8999(8) 0.0865(4)
N18_2 N 0.2123(10) 0.3124(6) 0.0865(4)
H8_2 H 0.1020 0.8550 0.0713
H9_2 H 0.7530 0.8980 0.0713
H10_2 H 0.1450 0.2470 0.0713
C9_2 C 0.0528(10) 0.7269(7) 0.1552(4)
C10_2 C 0.6741(12) 0.9472(10) 0.1552(4)
C11_2 C 0.2731(12) 0.3259(7) 0.1552(4)
H13_2 H 0.0158 0.7508 0.1957
H14_2 H 0.7350 0.9842 0.1957
H15_2 H 0.2492 0.2650 0.1957
C14_2 C 0.1225(10) 0.6284(7) 0.0891(4)
C15_2 C 0.5059(12) 0.8775(10) 0.0891(4)
C16_2 C 0.3716(12) 0.4941(7) 0.0891(4)
H18_2 H 0.1429 0.5684 0.0749
H19_2 H 0.4255 0.8571 0.0749
H20_2 H 0.4316 0.5745 0.0749
C19_2 C 0.1456(9) 0.7258(7) 0.0433(4)
C20_2 C 0.5802(11) 0.8544(9) 0.0433(4)
C21_2 C 0.2742(11) 0.4198(6) 0.0433(4)
Cu2_2 Cu 0.3334 0.6667 0.7500
O1_2 O 0.3838(7) 0.3770(5) 0.6722(3)
O2_2 O 0.3541(9) 0.5336(7) 0.6705(4)
N2_2 N 0.1001(8) 0.3124(6) 0.4135(4)
H1_2 H 0.1020 0.2470 0.4287
C1_2 C 0.0528(10) 0.3259(7) 0.3448(4)
H2_2 H 0.0158 0.2650 0.3043
C2_2 C 0.1225(10) 0.4941(7) 0.4109(4)
H3_2 H 0.1429 0.5745 0.4251
C3_2 C 0.1456(9) 0.4198(6) 0.4567(4)
C4_2 C 0.2131(10) 0.4486(6) 0.5325(3)
H4_2 H 0.2312 0.5232 0.5573
C5_2 C 0.2533(10) 0.3824(7) 0.5721(4)
H5_2 H 0.2299 0.3027 0.5540
C6_2 C 0.3339(11) 0.4341(7) 0.6437(4)
O6_2 O 0.6230(9) 0.6162(7) 0.8278(3)
O8_2 O 0.4664(11) 0.8205(6) 0.6705(4)
O9_2 O 0.1795(11) 0.6459(9) 0.6705(4)
O10_2 O 0.3541(9) 0.8205(6) 0.8295(4)
O11_2 O 0.4664(11) 0.6459(9) 0.8295(4)
O12_2 O 0.1795(11) 0.5336(7) 0.8295(4)
N14_2 N 0.6876(10) 0.7877(6) 0.4135(4)
N15_2 N 0.2123(10) 0.8999(8) 0.4135(4)
H6_2 H 0.7530 0.8550 0.4287
H7_2 H 0.1450 0.8980 0.4287
C7_2 C 0.6741(12) 0.7269(7) 0.3448(4)
C8_2 C 0.2731(12) 0.9472(10) 0.3448(4)
H11_2 H 0.7350 0.7508 0.3043
H12_2 H 0.2492 0.9842 0.3043
C12_2 C 0.5059(12) 0.6284(7) 0.4109(4)
C13_2 C 0.3716(12) 0.8775(10) 0.4109(4)
H16_2 H 0.4255 0.5684 0.4251
H17_2 H 0.4316 0.8571 0.4251
C17_2 C 0.5802(11) 0.7258(7) 0.4567(4)
C18_2 C 0.2742(11) 0.8544(9) 0.4567(4)
C22_2 C 0.5514(13) 0.7645(8) 0.5325(3)
C23_2 C 0.2355(12) 0.7869(10) 0.5325(3)
C24_2 C 0.2131(10) 0.7645(8) 0.9675(3)
C25_2 C 0.5514(13) 0.7869(10) 0.9675(3)
C26_2 C 0.2355(12) 0.4486(6) 0.9675(3)
H21_2 H 0.4768 0.7080 0.5573
H22_2 H 0.2920 0.7688 0.5573
H23_2 H 0.2312 0.7080 0.9427
H24_2 H 0.4768 0.7688 0.9427
H25_2 H 0.2920 0.5232 0.9427
C27_2 C 0.6176(12) 0.8709(7) 0.5721(4)
C28_2 C 0.1291(12) 0.7467(10) 0.5721(4)
C29_2 C 0.2533(10) 0.8709(7) 0.9279(4)
C30_2 C 0.6176(12) 0.7467(10) 0.9279(4)
C31_2 C 0.1291(12) 0.3824(7) 0.9279(4)
H26_2 H 0.6973 0.9272 0.5540
H27_2 H 0.0728 0.7701 0.5540
H28_2 H 0.2299 0.9272 0.9460
H29_2 H 0.6973 0.7701 0.9460
H30_2 H 0.0728 0.3027 0.9460
C32_2 C 0.5659(14) 0.8998(8) 0.6437(4)
C33_2 C 0.1002(13) 0.6661(11) 0.6437(4)
C34_2 C 0.3339(11) 0.8998(8) 0.8563(4)
C35_2 C 0.5659(14) 0.6661(11) 0.8563(4)
C36_2 C 0.1002(13) 0.4341(7) 0.8563(4)
O4_2 O 0.9932(9) 0.6162(7) 0.6722(3)
O7_2 O 0.9932(9) 0.3770(5) 0.8278(3)
loop_
_geom_bond_atom_site_label_1
_geom_bond_atom_site_label_2
_geom_bond_site_symmetry_1
_geom_bond_site_symmetry_2
Cu3 O3 1_555 1_555
O5 Cu3 1_555 1_555
N10 Cu3 1_555 1_555
N11 Cu3 1_555 1_555
Cu2 O2 1_555 1_555
O2 C6 1_555 1_555
H4 C4 1_555 1_555
C5 C4 1_555 1_555
H5 C5 1_555 1_555
C6 C5 1_555 1_555
Cu4 O4 1_555 1_555
Cu8 N5 1_555 1_555
Cu9 N6 1_555 1_555
Cu10 N7 1_555 1_555
O4 C33 1_555 1_555
O7 Cu4 1_555 1_555
O8 Cu2 1_555 1_555
O9 Cu2 1_555 1_555
O10 Cu2 1_555 1_555
O11 Cu2 1_555 1_555
O12 Cu2 1_555 1_555
N5 C9 1_555 1_555
N6 C10 1_555 1_555
N7 C11 1_555 1_555
N12 Cu4 1_555 1_555
N13 Cu4 1_555 1_555
N16 H8 1_555 1_555
N17 H9 1_555 1_555
N18 H10 1_555 1_555
C9 N16 1_555 1_555
C10 N17 1_555 1_555
C11 N18 1_555 1_555
H13 C9 1_555 1_555
H14 C10 1_555 1_555
H15 C11 1_555 1_555
C14 N5 1_555 1_555
C15 N6 1_555 1_555
C16 N7 1_555 1_555
H18 C14 1_555 1_555
H19 C15 1_555 1_555
H20 C16 1_555 1_555
C19 N16 1_555 1_555
C20 N17 1_555 1_555
C21 N18 1_555 1_555
C24 C19 1_555 1_555
C25 C20 1_555 1_555
C26 C21 1_555 1_555
H21 C22 1_555 1_555
H22 C23 1_555 1_555
H23 C24 1_555 1_555
H24 C25 1_555 1_555
H25 C26 1_555 1_555
C27 C22 1_555 1_555
C28 C23 1_555 1_555
C29 C24 1_555 1_555
C30 C25 1_555 1_555
C31 C26 1_555 1_555
H26 C27 1_555 1_555
H27 C28 1_555 1_555
H28 C29 1_555 1_555
H29 C30 1_555 1_555
H30 C31 1_555 1_555
C32 O8 1_555 1_555
C33 O9 1_555 1_555
C36 O7 1_555 1_555
O10 C34 1_555 1_555
O11 C35 1_555 1_555
O12 C36 1_555 1_555
C14 C19 1_555 1_555
C15 C20 1_555 1_555
C16 C21 1_555 1_555
C27 C32 1_555 1_555
C28 C33 1_555 1_555
C29 C34 1_555 1_555
C30 C35 1_555 1_555
C31 C36 1_555 1_555
N1 C1 1_555 1_555
N2 H1 1_555 1_555
C1 N2 1_555 1_555
H2 C1 1_555 1_555
C2 N1 1_555 1_555
H3 C2 1_555 1_555
C3 N2 1_555 1_555
Cu8 N1 1_555 1_555
Cu10 N3 1_555 1_555
Cu9 N4 1_555 1_555
N3 C7 1_555 1_555
N4 C8 1_555 1_555
N14 H6 1_555 1_555
N15 H7 1_555 1_555
C7 N14 1_555 1_555
C8 N15 1_555 1_555
H11 C7 1_555 1_555
H12 C8 1_555 1_555
C12 N3 1_555 1_555
C13 N4 1_555 1_555
H16 C12 1_555 1_555
H17 C13 1_555 1_555
C17 N14 1_555 1_555
C18 N15 1_555 1_555
C2 C3 1_555 1_555
C12 C17 1_555 1_555
C13 C18 1_555 1_555
Cu1 O1 1_555 1_555
O6 Cu1 1_555 1_555
N8 Cu1 1_555 1_555
N9 Cu1 1_555 1_555
Cu10 O3_2 1_555 1_555
O5_2 Cu10 1_555 1_555
N11 C9_2 1_555 1_555
N9 C10_2 1_555 1_555
N13 C11_2 1_555 1_555
N16_2 H8_2 1_555 1_555
N17_2 H9_2 1_555 1_555
N18_2 H10_2 1_555 1_555
C9_2 N16_2 1_555 1_555
C10_2 N17_2 1_555 1_555
C11_2 N18_2 1_555 1_555
H13_2 C9_2 1_555 1_555
H14_2 C10_2 1_555 1_555
H15_2 C11_2 1_555 1_555
C14_2 N11 1_555 1_555
C15_2 N9 1_555 1_555
C16_2 N13 1_555 1_555
H18_2 C14_2 1_555 1_555
H19_2 C15_2 1_555 1_555
H20_2 C16_2 1_555 1_555
C19_2 N16_2 1_555 1_555
C20_2 N17_2 1_555 1_555
C21_2 N18_2 1_555 1_555
C14_2 C19_2 1_555 1_555
C15_2 C20_2 1_555 1_555
C16_2 C21_2 1_555 1_555
Cu8 O1_2 1_555 1_555
Cu2_2 O2_2 1_555 1_555
O1_2 C6_2 1_555 1_555
O2_2 C6_2 1_555 1_555
N10 C1_2 1_555 1_555
N2_2 H1_2 1_555 1_555
C1_2 N2_2 1_555 1_555
H2_2 C1_2 1_555 1_555
C2_2 N10 1_555 1_555
H3_2 C2_2 1_555 1_555
C3_2 N2_2 1_555 1_555
C4_2 C3_2 1_555 1_555
H4_2 C4_2 1_555 1_555
C5_2 C4_2 1_555 1_555
H5_2 C5_2 1_555 1_555
C6_2 C5_2 1_555 1_555
O6_2 Cu8 1_555 1_555
O8_2 Cu2_2 1_555 1_555
O9_2 Cu2_2 1_555 1_555
O10_2 Cu2_2 1_555 1_555
O11_2 Cu2_2 1_555 1_555
O12_2 Cu2_2 1_555 1_555
N12 C7_2 1_555 1_555
N8 C8_2 1_555 1_555
N14_2 H6_2 1_555 1_555
N15_2 H7_2 1_555 1_555
C7_2 N14_2 1_555 1_555
C8_2 N15_2 1_555 1_555
H11_2 C7_2 1_555 1_555
H12_2 C8_2 1_555 1_555
C12_2 N12 1_555 1_555
C13_2 N8 1_555 1_555
H16_2 C12_2 1_555 1_555
H17_2 C13_2 1_555 1_555
C17_2 N14_2 1_555 1_555
C18_2 N15_2 1_555 1_555
C22_2 C17_2 1_555 1_555
C23_2 C18_2 1_555 1_555
H21_2 C22_2 1_555 1_555
H22_2 C23_2 1_555 1_555
H23_2 C24_2 1_555 1_555
H24_2 C25_2 1_555 1_555
H25_2 C26_2 1_555 1_555
C27_2 C22_2 1_555 1_555
C28_2 C23_2 1_555 1_555
C29_2 C24_2 1_555 1_555
C30_2 C25_2 1_555 1_555
C31_2 C26_2 1_555 1_555
H26_2 C27_2 1_555 1_555
H27_2 C28_2 1_555 1_555
H28_2 C29_2 1_555 1_555
H29_2 C30_2 1_555 1_555
H30_2 C31_2 1_555 1_555
C32_2 O8_2 1_555 1_555
C33_2 O9_2 1_555 1_555
C35_2 O6_2 1_555 1_555
C2_2 C3_2 1_555 1_555
O10_2 C34_2 1_555 1_555
O11_2 C35_2 1_555 1_555
O12_2 C36_2 1_555 1_555
C12_2 C17_2 1_555 1_555
C13_2 C18_2 1_555 1_555
C27_2 C32_2 1_555 1_555
C28_2 C33_2 1_555 1_555
C29_2 C34_2 1_555 1_555
C30_2 C35_2 1_555 1_555
C31_2 C36_2 1_555 1_555
Cu9 O4_2 1_555 1_555
O7_2 Cu9 1_555 1_555

#END
