
###############################################################################
#
# This file contains modified crystal structure data generated from the
# MOF subset of the Cambridge Structural Database (CSD) v543 
# hosted by the Cambridge Crystallographic Data Centre (CCDC).
#
# This work is licensed under the Creative Commons
# Attribution-NonCommercial-ShareAlike 4.0 International License.
# To view a copy of this license, visit
# http://creativecommons.org/licenses/by-nc-sa/4.0/
# or send a letter to
# Creative Commons, PO Box 1866, Mountain View, CA 94042, USA.
#
# CIF created using the CSD Python API on 29 September 2022
# The structure has been converted into the P1 space group
# The structure has a 3D framework
# The original CSD entry FABGUM is in the orthorhombic crystal system
# The framework has been calculated to contain at least 10.0% void space
# The void calculation uses a probe of radius 1.32A, grid spacing 0.4
# The framework is charged, counterions have been retained in the structure
#
###############################################################################

data_FABGUM
_chemical_formula_moiety         '(C28 H32 Ag4 N28 4+)n'
_symmetry_cell_setting           triclinic
_symmetry_space_group_name_H-M   'P 1'
_symmetry_Int_Tables_number      1
_space_group_name_Hall           'P 1'
loop_
_symmetry_equiv_pos_site_id
_symmetry_equiv_pos_as_xyz
1 x,y,z
_cell_length_a                   8.7011(9)
_cell_length_b                   20.857(2)
_cell_length_c                   8.2868(9)
_cell_angle_alpha                90
_cell_angle_beta                 90
_cell_angle_gamma                90
_cell_volume                     1503.88
loop_
_atom_site_label
_atom_site_type_symbol
_atom_site_fract_x
_atom_site_fract_y
_atom_site_fract_z
Ag6 Ag -0.0000 0.5000 0.2500
Ag4 Ag -0.0000 0.5000 0.7500
Ag2 Ag 0.5000 -0.0000 0.2500
N8 N 0.3807(7) 0.0728(2) 0.0823(6)
N9 N 0.1193(7) 0.4272(2) 0.0823(6)
N11 N 0.6193(7) 0.0728(2) 0.4177(6)
N15 N 0.2705(9) 0.1609(3) 0.0000
N16 N 0.2295(9) 0.3391(3) 0.0000
C8 C 0.3152(8) 0.1263(3) 0.1277(7)
C9 C 0.1848(8) 0.3737(3) 0.1277(7)
H8 H 0.3014 0.1389 0.2357
H9 H 0.1986 0.3611 0.2357
C11 C 0.1907(10) 0.2246(4) 0.0000
C12 C 0.3093(10) 0.2754(4) 0.0000
H13 H 0.1255 0.2286 0.0959
H14 H 0.3745 0.2714 0.0959
Ag1 Ag 0.5000 -0.0000 0.7500
N6 N 0.3807(7) 0.0728(2) 0.9177(6)
N7 N 0.1193(7) 0.4272(2) 0.9177(6)
N12 N 0.6193(7) 0.0728(2) 0.5823(6)
N15_2 N 0.2705(9) 0.1609(3) 1.0000
N16_2 N 0.2295(9) 0.3391(3) 1.0000
C6 C 0.3152(8) 0.1263(3) 0.8723(7)
C7 C 0.1848(8) 0.3737(3) 0.8723(7)
H6 H 0.3014 0.1389 0.7643
H7 H 0.1986 0.3611 0.7643
C11_2 C 0.1907(10) 0.2246(4) 1.0000
C12_2 C 0.3093(10) 0.2754(4) 1.0000
H15 H 0.1255 0.2286 0.9041
H16 H 0.3745 0.2714 0.9041
N2 N 0.7295(9) 0.8391(3) 0.0000
C2 C 0.8093(10) 0.7754(4) 0.0000
H2 H 0.8745 0.7714 0.0959
Ag2_2 Ag 0.5000 1.0000 0.2500
Ag6_2 Ag 1.0000 0.5000 0.2500
N4 N 0.6193(7) 0.9272(2) 0.0823(6)
N5 N 0.8807(7) 0.5728(2) 0.0823(6)
N10 N 0.3807(7) 0.9272(2) 0.4177(6)
N14 N 0.7705(9) 0.6609(3) 0.0000
C4 C 0.6848(8) 0.8737(3) 0.1277(7)
C5 C 0.8152(8) 0.6263(3) 0.1277(7)
H4 H 0.6986 0.8611 0.2357
H5 H 0.8014 0.6389 0.2357
C10 C 0.6907(10) 0.7246(4) 0.0000
H10 H 0.6255 0.7286 0.0959
Ag1_2 Ag 0.5000 1.0000 0.7500
N1 N 0.6193(7) 0.9272(2) 0.9177(6)
N2_2 N 0.7295(9) 0.8391(3) 1.0000
C1 C 0.6848(8) 0.8737(3) 0.8723(7)
H1 H 0.6986 0.8611 0.7643
C2_2 C 0.8093(10) 0.7754(4) 1.0000
Ag4_2 Ag 1.0000 0.5000 0.7500
N3 N 0.8807(7) 0.5728(2) 0.9177(6)
N13 N 0.3807(7) 0.9272(2) 0.5823(6)
N14_2 N 0.7705(9) 0.6609(3) 1.0000
C3 C 0.8152(8) 0.6263(3) 0.8723(7)
H3 H 0.8014 0.6389 0.7643
C10_2 C 0.6907(10) 0.7246(4) 1.0000
H11 H 0.8745 0.7714 0.9041
H12 H 0.6255 0.7286 0.9041
N11_2 N 0.1193(7) 0.5728(2) 0.4177(6)
N12_2 N 0.1193(7) 0.5728(2) 0.5823(6)
N10_2 N 0.8807(7) 0.4272(2) 0.4177(6)
N13_2 N 0.8807(7) 0.4272(2) 0.5823(6)
N2_3 N 0.7295(9) 0.1609(3) 0.5000
C1_2 C 0.6848(8) 0.1263(3) 0.6277(7)
H1_2 H 0.6986 0.1389 0.7357
C2_3 C 0.8093(10) 0.2246(4) 0.5000
H2_2 H 0.8745 0.2286 0.4041
N14_3 N 0.7705(9) 0.3391(3) 0.5000
C3_2 C 0.8152(8) 0.3737(3) 0.6277(7)
C4_2 C 0.6848(8) 0.1263(3) 0.3723(7)
C5_2 C 0.8152(8) 0.3737(3) 0.3723(7)
H3_2 H 0.8014 0.3611 0.7357
H4_2 H 0.6986 0.1389 0.2643
H5_2 H 0.8014 0.3611 0.2643
C10_3 C 0.6907(10) 0.2754(4) 0.5000
H10_2 H 0.6255 0.2714 0.4041
H11_2 H 0.8745 0.2286 0.5959
H12_2 H 0.6255 0.2714 0.5959
N15_3 N 0.2705(9) 0.8391(3) 0.5000
N16_3 N 0.2295(9) 0.6609(3) 0.5000
C6_2 C 0.3152(8) 0.8737(3) 0.6277(7)
C7_2 C 0.1848(8) 0.6263(3) 0.6277(7)
C8_2 C 0.3152(8) 0.8737(3) 0.3723(7)
C9_2 C 0.1848(8) 0.6263(3) 0.3723(7)
H6_2 H 0.3014 0.8611 0.7357
H7_2 H 0.1986 0.6389 0.7357
H8_2 H 0.3014 0.8611 0.2643
H9_2 H 0.1986 0.6389 0.2643
C11_3 C 0.1907(10) 0.7754(4) 0.5000
C12_3 C 0.3093(10) 0.7246(4) 0.5000
H13_2 H 0.1255 0.7714 0.4041
H14_2 H 0.3745 0.7286 0.4041
H15_2 H 0.1255 0.7714 0.5959
H16_2 H 0.3745 0.7286 0.5959
loop_
_geom_bond_atom_site_label_1
_geom_bond_atom_site_label_2
_geom_bond_site_symmetry_1
_geom_bond_site_symmetry_2
Ag6 N9 1_555 1_555
N8 Ag2 1_555 1_555
N9 C9 1_555 1_555
N11 Ag2 1_555 1_555
C8 N8 1_555 1_555
C9 N16 1_555 1_555
H8 C8 1_555 1_555
H9 C9 1_555 1_555
C11 N15 1_555 1_555
C12 N16 1_555 1_555
H13 C11 1_555 1_555
H14 C12 1_555 1_555
N15 C8 1_555 1_555
C11 C12 1_555 1_555
Ag4 N7 1_555 1_555
N6 Ag1 1_555 1_555
N12 Ag1 1_555 1_555
N15_2 C6 1_555 1_555
N16_2 C7 1_555 1_555
C6 N6 1_555 1_555
C7 N7 1_555 1_555
H6 C6 1_555 1_555
H7 C7 1_555 1_555
C11_2 N15_2 1_555 1_555
C12_2 N16_2 1_555 1_555
H15 C11_2 1_555 1_555
H16 C12_2 1_555 1_555
C11_2 C12_2 1_555 1_555
C2 N2 1_555 1_555
H2 C2 1_555 1_555
Ag2_2 N4 1_555 1_555
Ag6_2 N5 1_555 1_555
N5 C5 1_555 1_555
N10 Ag2_2 1_555 1_555
C4 N2 1_555 1_555
C5 N14 1_555 1_555
H4 C4 1_555 1_555
H5 C5 1_555 1_555
C10 C2 1_555 1_555
H10 C10 1_555 1_555
N4 C4 1_555 1_555
N14 C10 1_555 1_555
Ag1_2 N1 1_555 1_555
N1 C1 1_555 1_555
N2_2 C1 1_555 1_555
C1 H1 1_555 1_555
C2_2 N2_2 1_555 1_555
Ag4_2 N3 1_555 1_555
N13 Ag1_2 1_555 1_555
N14_2 C3 1_555 1_555
C3 N3 1_555 1_555
H3 C3 1_555 1_555
C10_2 C2_2 1_555 1_555
H11 C2_2 1_555 1_555
H12 C10_2 1_555 1_555
N14_2 C10_2 1_555 1_555
N11_2 Ag6 1_555 1_555
N12_2 Ag4 1_555 1_555
N10_2 Ag6_2 1_555 1_555
N13_2 Ag4_2 1_555 1_555
N12 C1_2 1_555 1_555
N2_3 C1_2 1_555 1_555
C1_2 H1_2 1_555 1_555
C2_3 N2_3 1_555 1_555
H2_2 C2_3 1_555 1_555
N13_2 N10_2 1_555 1_555
N11 N12 1_555 1_555
N10_2 C5_2 1_555 1_555
N14_3 C3_2 1_555 1_555
C3_2 N13_2 1_555 1_555
C4_2 N2_3 1_555 1_555
C5_2 N14_3 1_555 1_555
H3_2 C3_2 1_555 1_555
H4_2 C4_2 1_555 1_555
H5_2 C5_2 1_555 1_555
C10_3 C2_3 1_555 1_555
H10_2 C10_3 1_555 1_555
H11_2 C2_3 1_555 1_555
H12_2 C10_3 1_555 1_555
N11 C4_2 1_555 1_555
N14_3 C10_3 1_555 1_555
N12_2 N11_2 1_555 1_555
N11_2 C9_2 1_555 1_555
N15_3 C6_2 1_555 1_555
N16_3 C7_2 1_555 1_555
C6_2 N13 1_555 1_555
C7_2 N12_2 1_555 1_555
C8_2 N10 1_555 1_555
C9_2 N16_3 1_555 1_555
H6_2 C6_2 1_555 1_555
H7_2 C7_2 1_555 1_555
H8_2 C8_2 1_555 1_555
H9_2 C9_2 1_555 1_555
C11_3 N15_3 1_555 1_555
C12_3 N16_3 1_555 1_555
H13_2 C11_3 1_555 1_555
H14_2 C12_3 1_555 1_555
H15_2 C11_3 1_555 1_555
H16_2 C12_3 1_555 1_555
N13 N10 1_555 1_555
N15_3 C8_2 1_555 1_555
C11_3 C12_3 1_555 1_555

#END
