
###############################################################################
#
# This file contains modified crystal structure data generated from the
# MOF subset of the Cambridge Structural Database (CSD) v543 
# hosted by the Cambridge Crystallographic Data Centre (CCDC).
#
# This work is licensed under the Creative Commons
# Attribution-NonCommercial-ShareAlike 4.0 International License.
# To view a copy of this license, visit
# http://creativecommons.org/licenses/by-nc-sa/4.0/
# or send a letter to
# Creative Commons, PO Box 1866, Mountain View, CA 94042, USA.
#
# CIF created using the CSD Python API on 29 September 2022
# The structure has been converted into the P1 space group
# The structure has a 3D framework
# The original CSD entry FAFBUL is in the hexagonal crystal system
# The framework has been calculated to contain at least 10.0% void space
# The void calculation uses a probe of radius 1.32A, grid spacing 0.4
#
###############################################################################

data_FAFBUL
_chemical_formula_moiety         '(C30 H18 Mn16 N21 O24)n'
_symmetry_cell_setting           triclinic
_symmetry_space_group_name_H-M   'P 1'
_symmetry_Int_Tables_number      1
_space_group_name_Hall           'P 1'
loop_
_symmetry_equiv_pos_site_id
_symmetry_equiv_pos_as_xyz
1 x,y,z
_cell_length_a                   11.7410(6)
_cell_length_b                   11.7410(6)
_cell_length_c                   13.3199(13)
_cell_angle_alpha                90
_cell_angle_beta                 90
_cell_angle_gamma                120
_cell_volume                     1590.16
loop_
_atom_site_label
_atom_site_type_symbol
_atom_site_fract_x
_atom_site_fract_y
_atom_site_fract_z
Mn7 Mn 0.5000 -0.0000 0.0000
Mn7_2 Mn 0.5000 -0.0000 1.0000
Mn9 Mn 0.5000 -0.0000 0.5000
Mn13 Mn 0.6667 0.3333 0.89960(8)
Mn15 Mn 0.6667 0.3333 0.60040(8)
N3 N 0.4878(3) 0.0232(4) 0.66760(19)
N6 N 0.4878(3) 0.0232(4) 0.83240(19)
N12 N 0.5434(3) 0.1481(4) 0.7018(2)
N15 N 0.5434(3) 0.1481(4) 0.7982(2)
Mn6 Mn 0.5000 0.5000 0.0000
Mn7_3 Mn 0.5000 1.0000 0.0000
Mn8 Mn -0.0000 0.5000 0.0000
Mn1 Mn 0.5000 0.5000 0.5000
Mn2 Mn 0.3333 0.6667 0.39960(8)
N1 N 0.5354(2) 0.5122(3) 0.66760(19)
N2 N 0.6047(3) 0.4566(3) 0.7018(2)
O1 O 0.2925(2) 0.3915(2) 0.5268(2)
O2 O 0.1851(2) 0.4979(2) 0.49332(19)
C1 C 0.4934(4) 0.5439(4) 0.7500
C2 C 0.4110(4) 0.6079(4) 0.7500
C3 C 0.2758(4) 0.5314(4) 0.7500
H1 H 0.2368 0.4403 0.7500
C4 C 0.1940(3) 0.4029(3) 0.5252(3)
H2 H 0.1174 0.3325 0.5507
Mn3 Mn -0.0000 0.5000 0.5000
Mn6_2 Mn 0.5000 0.5000 1.0000
Mn7_4 Mn 0.5000 1.0000 1.0000
Mn8_2 Mn -0.0000 0.5000 1.0000
Mn9_2 Mn 0.5000 1.0000 0.5000
N5 N 0.5354(2) 0.5122(3) 0.83240(19)
N9 N 0.4646(2) 0.4878(3) 0.33240(19)
N11 N 0.0232(4) 0.5354(2) 0.33240(19)
N14 N 0.6047(3) 0.4566(3) 0.7982(2)
N19 N 0.3953(3) 0.5434(3) 0.2982(2)
N20 N 0.4566(3) 0.8519(4) 0.2982(2)
N21 N 0.1481(4) 0.6047(3) 0.2982(2)
O3 O 0.6085(2) 0.9010(3) 0.5268(2)
O4 O 0.0990(3) 0.7075(2) 0.5268(2)
O9 O 0.7075(2) 0.6085(2) 0.4732(2)
O10 O 0.5021(2) 0.6872(3) 0.49332(19)
O11 O 0.3128(3) 0.8149(2) 0.49332(19)
O16 O 0.4979(2) 0.3128(3) 0.50668(19)
C5 C 0.4561(4) 0.9495(6) 0.7500
C6 C 0.0505(6) 0.5066(4) 0.7500
C7 C 0.3921(4) 0.8031(6) 0.7500
C8 C 0.1969(6) 0.5890(4) 0.7500
C9 C 0.4686(4) 0.7444(6) 0.7500
C10 C 0.2556(6) 0.7242(4) 0.7500
H3 H 0.5597 0.7965 0.7500
H4 H 0.2035 0.7632 0.7500
C11 C 0.5971(3) 0.7911(4) 0.5252(3)
C12 C 0.2089(4) 0.8060(3) 0.5252(3)
H5 H 0.6675 0.7849 0.5507
H6 H 0.2151 0.8826 0.5507
Mn8_3 Mn 1.0000 0.5000 0.0000
Mn3_2 Mn 1.0000 0.5000 0.5000
Mn8_4 Mn 1.0000 0.5000 1.0000
N4 N 0.9768(4) 0.4646(2) 0.66760(19)
N7 N 0.9768(4) 0.4646(2) 0.83240(19)
N13 N 0.8519(4) 0.3953(3) 0.7018(2)
N16 N 0.8519(4) 0.3953(3) 0.7982(2)
O6 O 0.3915(2) 0.0990(3) 0.4732(2)
O7 O 0.9010(3) 0.2925(2) 0.4732(2)
O12 O 0.8149(2) 0.5021(2) 0.50668(19)
O14 O 0.6872(3) 0.1851(2) 0.50668(19)
C13 C 0.8060(3) 0.5971(3) 0.4748(3)
C14 C 0.4029(3) 0.2089(4) 0.4748(3)
C15 C 0.7911(4) 0.1940(3) 0.4748(3)
H7 H 0.8826 0.6675 0.4493
H8 H 0.3325 0.2151 0.4493
H9 H 0.7849 0.1174 0.4493
N10 N 0.5122(3) 0.9768(4) 0.33240(19)
O8 O 0.3915(2) 0.0990(3) 0.0268(2)
O15 O 0.6872(3) 0.1851(2) 0.99332(19)
Mn10 Mn 0.3333 0.6667 0.10040(8)
N4_2 N 0.0232(4) 0.5354(2) 0.16760(19)
N8 N 0.5122(3) 0.9768(4) 0.16760(19)
N13_2 N 0.1481(4) 0.6047(3) 0.2018(2)
N17 N 0.3953(3) 0.5434(3) 0.2018(2)
N18 N 0.4566(3) 0.8519(4) 0.2018(2)
O12_2 O 0.1851(2) 0.4979(2) 0.00668(19)
O13 O 0.5021(2) 0.6872(3) 0.00668(19)
O14_2 O 0.3128(3) 0.8149(2) 0.00668(19)
O5 O 0.2925(2) 0.3915(2) 0.9732(2)
O6_2 O 0.6085(2) 0.9010(3) 0.9732(2)
O7_2 O 0.0990(3) 0.7075(2) 0.9732(2)
C13_2 C 0.1940(3) 0.4029(3) 0.9748(3)
C14_2 C 0.5971(3) 0.7911(4) 0.9748(3)
C15_2 C 0.2089(4) 0.8060(3) 0.9748(3)
H7_2 H 0.1174 0.3325 0.9493
H8_2 H 0.6675 0.7849 0.9493
H9_2 H 0.2151 0.8826 0.9493
N1_2 N 0.4646(2) 0.4878(3) 0.16760(19)
O1_2 O 0.7075(2) 0.6085(2) 0.0268(2)
C1_2 C 0.5066(4) 0.4561(4) 0.2500
C2_2 C 0.5890(4) 0.3921(4) 0.2500
C3_2 C 0.7242(4) 0.4686(4) 0.2500
H1_2 H 0.7632 0.5597 0.2500
C4_2 C 0.8060(3) 0.5971(3) 0.0252(3)
H2_2 H 0.8826 0.6675 0.0507
O4_2 O 0.9010(3) 0.2925(2) 0.0268(2)
C5_2 C 0.5439(4) 0.0505(6) 0.2500
C6_2 C 0.9495(6) 0.4934(4) 0.2500
C7_2 C 0.6079(4) 0.1969(6) 0.2500
C8_2 C 0.8031(6) 0.4110(4) 0.2500
C9_2 C 0.5314(4) 0.2556(6) 0.2500
C10_2 C 0.7444(6) 0.2758(4) 0.2500
H3_2 H 0.4403 0.2035 0.2500
H4_2 H 0.7965 0.2368 0.2500
C11_2 C 0.4029(3) 0.2089(4) 0.0252(3)
C12_2 C 0.7911(4) 0.1940(3) 0.0252(3)
H5_2 H 0.3325 0.2151 0.0507
H6_2 H 0.7849 0.1174 0.0507
O2_2 O 0.8149(2) 0.5021(2) 0.99332(19)
O10_2 O 0.4979(2) 0.3128(3) 0.99332(19)
loop_
_geom_bond_atom_site_label_1
_geom_bond_atom_site_label_2
_geom_bond_site_symmetry_1
_geom_bond_site_symmetry_2
Mn7_2 N6 1_555 1_555
Mn9 N3 1_555 1_555
Mn13 N15 1_555 1_555
Mn15 N12 1_555 1_555
N3 N12 1_555 1_555
N6 N15 1_555 1_555
N12 N15 1_555 1_555
Mn1 N1 1_555 1_555
Mn2 O2 1_555 1_555
N1 N2 1_555 1_555
N2 Mn15 1_555 1_555
O1 Mn1 1_555 1_555
O2 C4 1_555 1_555
C1 N1 1_555 1_555
C2 C1 1_555 1_555
C3 C2 1_555 1_555
H1 C3 1_555 1_555
C4 O1 1_555 1_555
H2 C4 1_555 1_555
Mn3 O2 1_555 1_555
Mn6_2 N5 1_555 1_555
Mn13 N14 1_555 1_555
Mn15 O16 1_555 1_555
N5 C1 1_555 1_555
N9 Mn1 1_555 1_555
N11 Mn3 1_555 1_555
N14 N2 1_555 1_555
N19 Mn2 1_555 1_555
N20 Mn2 1_555 1_555
N21 Mn2 1_555 1_555
O3 Mn9_2 1_555 1_555
O4 Mn3 1_555 1_555
O9 Mn1 1_555 1_555
O10 Mn1 1_555 1_555
O11 Mn2 1_555 1_555
O16 Mn1 1_555 1_555
C7 C5 1_555 1_555
C8 C3 1_555 1_555
C9 C2 1_555 1_555
C10 C7 1_555 1_555
H3 C9 1_555 1_555
H4 C10 1_555 1_555
C11 O3 1_555 1_555
C12 O4 1_555 1_555
H5 C11 1_555 1_555
H6 C12 1_555 1_555
Mn2 O10 1_555 1_555
Mn9_2 O11 1_555 1_555
N5 N14 1_555 1_555
N9 N19 1_555 1_555
N11 N21 1_555 1_555
O10 C11 1_555 1_555
O11 C12 1_555 1_555
C6 C8 1_555 1_555
C7 C9 1_555 1_555
C8 C10 1_555 1_555
Mn8_4 N7 1_555 1_555
Mn15 N13 1_555 1_555
Mn13 N16 1_555 1_555
N4 Mn3_2 1_555 1_555
N7 N16 1_555 1_555
N13 N4 1_555 1_555
N16 N13 1_555 1_555
O9 C13 1_555 1_555
O6 Mn9 1_555 1_555
O7 Mn3_2 1_555 1_555
O12 Mn3_2 1_555 1_555
O14 Mn9 1_555 1_555
C13 O12 1_555 1_555
C14 O6 1_555 1_555
C15 O7 1_555 1_555
H7 C13 1_555 1_555
H8 C14 1_555 1_555
H9 C15 1_555 1_555
Mn15 O12 1_555 1_555
Mn15 O14 1_555 1_555
O16 C14 1_555 1_555
O14 C15 1_555 1_555
N10 Mn9_2 1_555 1_555
N10 N20 1_555 1_555
O8 Mn7 1_555 1_555
O15 Mn7_2 1_555 1_555
Mn7_3 N8 1_555 1_555
Mn10 N13_2 1_555 1_555
N4_2 Mn8 1_555 1_555
N8 N18 1_555 1_555
N13_2 N4_2 1_555 1_555
N21 N13_2 1_555 1_555
N17 Mn10 1_555 1_555
N18 Mn10 1_555 1_555
O12_2 Mn8 1_555 1_555
O13 Mn6 1_555 1_555
O14_2 Mn7_3 1_555 1_555
Mn10 O12_2 1_555 1_555
Mn10 O13 1_555 1_555
Mn10 O14_2 1_555 1_555
Mn6_2 O5 1_555 1_555
O5 C13_2 1_555 1_555
O6_2 Mn7_4 1_555 1_555
O7_2 Mn8_2 1_555 1_555
C14_2 O6_2 1_555 1_555
C15_2 O7_2 1_555 1_555
H7_2 C13_2 1_555 1_555
H8_2 C14_2 1_555 1_555
H9_2 C15_2 1_555 1_555
Mn6 N1_2 1_555 1_555
N1_2 N17 1_555 1_555
O1_2 Mn6 1_555 1_555
C1_2 N1_2 1_555 1_555
C2_2 C1_2 1_555 1_555
C3_2 C2_2 1_555 1_555
H1_2 C3_2 1_555 1_555
C4_2 O1_2 1_555 1_555
H2_2 C4_2 1_555 1_555
N9 C1_2 1_555 1_555
N19 N17 1_555 1_555
O4_2 Mn8_3 1_555 1_555
C7_2 C5_2 1_555 1_555
C8_2 C3_2 1_555 1_555
C9_2 C2_2 1_555 1_555
C10_2 C7_2 1_555 1_555
H3_2 C9_2 1_555 1_555
H4_2 C10_2 1_555 1_555
C11_2 O8 1_555 1_555
C12_2 O4_2 1_555 1_555
H5_2 C11_2 1_555 1_555
H6_2 C12_2 1_555 1_555
C6_2 C8_2 1_555 1_555
C7_2 C9_2 1_555 1_555
C8_2 C10_2 1_555 1_555
Mn13 O2_2 1_555 1_555
Mn8_4 O2_2 1_555 1_555
O10_2 Mn6_2 1_555 1_555
O15 Mn13 1_555 1_555
Mn13 O10_2 1_555 1_555
N18 N20 1_555 1_555

#END
