
###############################################################################
#
# This file contains modified crystal structure data generated from the
# MOF subset of the Cambridge Structural Database (CSD) v543 
# hosted by the Cambridge Crystallographic Data Centre (CCDC).
#
# This work is licensed under the Creative Commons
# Attribution-NonCommercial-ShareAlike 4.0 International License.
# To view a copy of this license, visit
# http://creativecommons.org/licenses/by-nc-sa/4.0/
# or send a letter to
# Creative Commons, PO Box 1866, Mountain View, CA 94042, USA.
#
# CIF created using the CSD Python API on 29 September 2022
# The structure has been converted into the P1 space group
# The structure has a 3D framework
# The original CSD entry FAGFUQ is in the triclinic crystal system
# The framework has been calculated to contain at least 10.0% void space
# The void calculation uses a probe of radius 1.32A, grid spacing 0.4
# H atom positions have been added when not included in the experimental data
#
###############################################################################

data_FAGFUQ
_chemical_formula_moiety         '(C66 H54 Co4 O22)n'
_symmetry_cell_setting           triclinic
_symmetry_space_group_name_H-M   'P 1'
_symmetry_Int_Tables_number      1
_space_group_name_Hall           'P 1'
loop_
_symmetry_equiv_pos_site_id
_symmetry_equiv_pos_as_xyz
1 x,y,z
_cell_length_a                   12.036(3)
_cell_length_b                   15.301(4)
_cell_length_c                   16.906(5)
_cell_angle_alpha                108.300(5)
_cell_angle_beta                 101.394(4)
_cell_angle_gamma                102.280(5)
_cell_volume                     2768.63
loop_
_atom_site_label
_atom_site_type_symbol
_atom_site_fract_x
_atom_site_fract_y
_atom_site_fract_z
O11 O 0.17123(15) 0.47088(12) 0.02658(12)
Co4 Co 0.0000 0.5000 0.0000
Co10 Co 0.29708(3) 0.60374(3) 0.08920(2)
C26 C 0.0938(2) 0.00779(18) 0.68036(16)
H19 H 0.1728 0.0075 0.7070
H20 H 0.1000 0.0448 0.6434
C27 C 0.0943(2) 0.1416(2) 0.80131(18)
C28 C 0.0357(2) 0.1784(2) 0.86148(18)
C29 C 0.0818(2) 0.27137(19) 0.92128(17)
H22 H 0.0421 0.2948 0.9614
C30 C 0.1885(2) 0.3309(2) 0.92198(18)
C31 C 0.2485(2) 0.2920(2) 0.86337(18)
H23 H 0.3220 0.3291 0.8656
C32 C 0.1994(2) 0.1974(2) 0.80087(18)
H24 H 0.2378 0.1733 0.7600
C33 C 0.2354(2) 0.43197(19) 0.98231(16)
O10 O 0.04186(17) 0.04955(14) 0.74549(13)
O12 O 0.33779(16) 0.48089(13) 0.98965(12)
Co4_2 Co 0.0000 0.5000 1.0000
O17 O 0.72582(16) 0.33869(14) 0.00275(13)
O36 O 0.66221(16) 0.51911(13) 0.01035(12)
C35 C 0.0006(2) 0.1477(2) 0.31263(18)
H26 H 0.0399 0.1177 0.2714
H27 H 0.0493 0.2136 0.3465
H30 H 0.0175 0.3331 0.1311
H31 H 0.0561 0.2471 0.2241
C43 C 0.1044(3) 0.0908(2) 0.41841(19)
H32 H 0.1374 0.0529 0.3768
H33 H 0.0970 0.0618 0.4612
C44 C 0.2634(2) 0.2144(2) 0.53608(19)
C45 C 0.3187(3) 0.3127(2) 0.5801(2)
H34 H 0.2959 0.3545 0.5550
C46 C 0.4042(3) 0.3514(2) 0.6580(2)
H35 H 0.4422 0.4173 0.6844
C47 C 0.4319(2) 0.2874(2) 0.69598(18)
C48 C 0.3826(2) 0.1900(2) 0.65444(19)
H36 H 0.4057 0.1487 0.6801
C49 C 0.2999(2) 0.1534(2) 0.57577(18)
H37 H 0.2670 0.0871 0.5479
C50 C 0.5205(3) 0.3288(2) 0.78593(18)
C53 C 0.0122(3) 0.2510(2) 0.6335(2)
H40 H 0.0831 0.2633 0.6191
C54 C 0.0023(3) 0.3106(2) 0.7113(2)
H41 H 0.0665 0.3628 0.7490
Co7 Co 0.70292(3) 0.39626(3) 0.91080(2)
O18 O 0.18024(18) 0.18665(14) 0.45969(13)
O19 O 0.57764(17) 0.41341(14) 0.81489(13)
O20 O 0.53957(17) 0.27287(15) 0.82547(13)
O24 O 0.77523(16) 0.33067(13) 0.82470(12)
O26 O 0.03197(16) 0.57788(13) 0.12968(12)
H50 H 0.0208 0.3973 0.8866
O33 O 0.82877(15) 0.52912(12) 0.97342(12)
H53 H 0.112946 0.6236 0.158899
C1 C 0.0175(2) 0.9078(2) 0.62814(18)
C3 C 0.1213(2) 0.8075(2) 0.78825(18)
C4 C 0.2327(3) 0.8112(2) 0.8305(2)
H3 H 0.2980 0.8462 0.8204
C5 C 0.2511(3) 0.7639(2) 0.88842(18)
H4 H 0.3273 0.7665 0.9160
C6 C 0.1539(3) 0.7136(2) 0.90354(19)
C7 C 0.0462(3) 0.7062(2) 0.86088(18)
C8 C 0.0206(2) 0.7555(2) 0.80226(18)
C9 C 0.1691(2) 0.6603(2) 0.96308(18)
C18 C 0.0729(3) 0.8553(2) 0.56200(18)
H13 H 0.1511 0.8569 0.5922
H14 H 0.0252 0.7884 0.5340
C19 C 0.0838(3) 0.8269(2) 0.42290(19)
C22 C 0.1037(2) 0.70772(19) 0.26727(16)
C23 C 0.1998(3) 0.7857(2) 0.3236(2)
H17 H 0.2707 0.7980 0.3093
C24 C 0.1898(3) 0.8453(2) 0.4015(2)
H18 H 0.2541 0.8975 0.4392
C25 C 0.1270(2) 0.64719(19) 0.18649(17)
O1 O 0.11353(17) 0.85407(14) 0.73171(12)
O2 O 0.07729(15) 0.61891(12) 0.97565(11)
O3 O 0.27418(16) 0.66131(14) 0.99725(13)
O7 O 0.08313(18) 0.89274(13) 0.49955(12)
O8 O 0.22477(16) 0.66933(13) 0.17530(12)
H46 H 0.0355 0.8603 0.1388
Co4_3 Co 1.0000 0.5000 0.0000
H21 H 0.9645 0.1397 0.8612
Co4_4 Co 1.0000 0.5000 1.0000
C34 C 0.9825(2) 0.0922(2) 0.37186(18)
C36 C 0.8787(2) 0.1925(2) 0.21175(18)
C37 C 0.7673(3) 0.1888(2) 0.1695(2)
H28 H 0.7020 0.1538 0.1796
C38 C 0.7489(3) 0.2361(2) 0.11158(18)
H29 H 0.6727 0.2335 0.0840
C39 C 0.8461(3) 0.2864(2) 0.09646(19)
C40 C 0.9538(3) 0.2938(2) 0.13912(18)
C41 C 0.9794(2) 0.2445(2) 0.19774(18)
C42 C 0.8309(2) 0.3397(2) 0.03692(18)
C51 C 0.9271(3) 0.1447(2) 0.43800(18)
H38 H 0.8489 0.1431 0.4078
H39 H 0.9748 0.2116 0.4660
C52 C 0.9162(3) 0.1731(2) 0.57710(19)
C55 C 0.8963(2) 0.29228(19) 0.73273(16)
C56 C 0.8002(3) 0.2143(2) 0.6764(2)
H42 H 0.7293 0.2020 0.6907
C57 C 0.8102(3) 0.1547(2) 0.5985(2)
H43 H 0.7459 0.1025 0.5608
C58 C 0.8730(2) 0.35281(19) 0.81351(17)
O13 O 0.88647(17) 0.14593(14) 0.26829(12)
O14 O 0.92271(15) 0.38109(12) 0.02435(11)
O21 O 0.91687(18) 0.10726(13) 0.50045(12)
O25 O 0.96803(16) 0.42212(13) 0.87032(12)
H51 H 0.9792 0.6027 0.1134
C2 C 0.9994(2) 0.8523(2) 0.68737(18)
H1 H 0.9601 0.8823 0.7286
H2 H 0.9507 0.7864 0.6535
H5 H 0.9825 0.6669 0.8689
H6 H 0.9439 0.7529 0.7759
C10 C 0.8956(3) 0.9092(2) 0.58159(19)
H7 H 0.8626 0.9471 0.6232
H8 H 0.9030 0.9382 0.5388
C11 C 0.7366(2) 0.7856(2) 0.46392(19)
C12 C 0.6813(3) 0.6873(2) 0.4199(2)
H9 H 0.7041 0.6455 0.4450
C13 C 0.5958(3) 0.6486(2) 0.3420(2)
H10 H 0.5578 0.5827 0.3156
C14 C 0.5681(2) 0.7126(2) 0.30402(18)
C15 C 0.6174(2) 0.8100(2) 0.34556(19)
H11 H 0.5943 0.8513 0.3199
C16 C 0.7001(2) 0.8466(2) 0.42423(18)
H12 H 0.7330 0.9129 0.4521
C17 C 0.4795(3) 0.6712(2) 0.21407(18)
C20 C 0.9878(3) 0.7490(2) 0.3665(2)
H15 H 0.9169 0.7367 0.3809
C21 C 0.9977(3) 0.6894(2) 0.2887(2)
H16 H 0.9335 0.6372 0.2510
O4 O 0.81976(18) 0.81335(14) 0.54031(13)
O5 O 0.42236(17) 0.58659(14) 0.18511(13)
O6 O 0.46043(17) 0.72713(15) 0.17453(13)
H54 H 0.988222 0.460971 0.835062
C59 C 0.9062(2) 0.99221(18) 0.31964(16)
H44 H 0.8272 0.9925 0.2930
H45 H 0.9000 0.9552 0.3566
C60 C 0.9057(2) 0.8584(2) 0.19869(18)
C61 C 0.9643(2) 0.8216(2) 0.13852(18)
C62 C 0.9182(2) 0.72863(19) 0.07872(17)
H47 H 0.9579 0.7052 0.0386
C63 C 0.8115(2) 0.6691(2) 0.07802(18)
C64 C 0.7515(2) 0.7080(2) 0.13663(18)
H48 H 0.6780 0.6709 0.1344
C65 C 0.8006(2) 0.8026(2) 0.19913(18)
H49 H 0.7622 0.8267 0.2400
C66 C 0.7646(2) 0.56803(19) 0.01769(16)
O28 O 0.95814(17) 0.95045(14) 0.25451(13)
H54_2 H 0.0117778 0.539029 0.164938
H53_2 H 0.887054 0.3764 0.841101
loop_
_geom_bond_atom_site_label_1
_geom_bond_atom_site_label_2
_geom_bond_site_symmetry_1
_geom_bond_site_symmetry_2
Co4 O11 1_555 1_555
Co10 O11 1_555 1_555
H19 C26 1_555 1_555
H20 C26 1_555 1_555
C27 C28 1_555 1_555
C29 C28 1_555 1_555
H22 C29 1_555 1_555
C30 C29 1_555 1_555
C31 C30 1_555 1_555
H23 C31 1_555 1_555
C32 C27 1_555 1_555
H24 C32 1_555 1_555
C33 C30 1_555 1_555
O10 C26 1_555 1_555
O12 C33 1_555 1_555
C27 O10 1_555 1_555
C31 C32 1_555 1_555
C35 H26 1_555 1_555
H27 C35 1_555 1_555
H32 C43 1_555 1_555
H33 C43 1_555 1_555
C44 C45 1_555 1_555
C45 H34 1_555 1_555
C46 C45 1_555 1_555
H35 C46 1_555 1_555
C47 C46 1_555 1_555
C48 C47 1_555 1_555
H36 C48 1_555 1_555
C49 C44 1_555 1_555
H37 C49 1_555 1_555
C50 C47 1_555 1_555
C53 H40 1_555 1_555
C54 C53 1_555 1_555
H41 C54 1_555 1_555
O18 C43 1_555 1_555
O19 C50 1_555 1_555
O20 C50 1_555 1_555
O24 Co7 1_555 1_555
O26 Co4 1_555 1_555
O33 Co7 1_555 1_555
C44 O18 1_555 1_555
C48 C49 1_555 1_555
Co7 O19 1_555 1_555
Co7 O20 1_555 1_555
O26 H53 1_555 1_555
C3 C4 1_555 1_555
C4 H3 1_555 1_555
C5 C4 1_555 1_555
H4 C5 1_555 1_555
C6 C5 1_555 1_555
C7 C6 1_555 1_555
C8 C3 1_555 1_555
C9 C6 1_555 1_555
C18 C1 1_555 1_555
H13 C18 1_555 1_555
H14 C18 1_555 1_555
C23 C22 1_555 1_555
H17 C23 1_555 1_555
C24 C19 1_555 1_555
H18 C24 1_555 1_555
C25 C22 1_555 1_555
Co4_2 O2 1_555 1_555
O2 C9 1_555 1_555
O3 C9 1_555 1_555
O7 C18 1_555 1_555
O8 C25 1_555 1_555
O26 C25 1_555 1_555
Co10 O8 1_555 1_555
C3 O1 1_555 1_555
C7 C8 1_555 1_555
C19 O7 1_555 1_555
C23 C24 1_555 1_555
C36 C37 1_555 1_555
C37 H28 1_555 1_555
C38 C37 1_555 1_555
H29 C38 1_555 1_555
C39 C38 1_555 1_555
C40 C39 1_555 1_555
C41 C36 1_555 1_555
C42 C39 1_555 1_555
C51 C34 1_555 1_555
H38 C51 1_555 1_555
H39 C51 1_555 1_555
C56 C55 1_555 1_555
H42 C56 1_555 1_555
C57 C52 1_555 1_555
H43 C57 1_555 1_555
C58 C55 1_555 1_555
Co4_4 O25 1_555 1_555
O14 Co4_3 1_555 1_555
O17 C42 1_555 1_555
O21 C51 1_555 1_555
O24 C58 1_555 1_555
O25 C58 1_555 1_555
C36 O13 1_555 1_555
C40 C41 1_555 1_555
C42 O14 1_555 1_555
C52 O21 1_555 1_555
C56 C57 1_555 1_555
C2 H1 1_555 1_555
H2 C2 1_555 1_555
H7 C10 1_555 1_555
H8 C10 1_555 1_555
C11 C12 1_555 1_555
C12 H9 1_555 1_555
C13 C12 1_555 1_555
H10 C13 1_555 1_555
C14 C13 1_555 1_555
C15 C14 1_555 1_555
H11 C15 1_555 1_555
C16 C11 1_555 1_555
H12 C16 1_555 1_555
C17 C14 1_555 1_555
C20 H15 1_555 1_555
C21 C20 1_555 1_555
H16 C21 1_555 1_555
Co10 O5 1_555 1_555
O4 C10 1_555 1_555
O5 C17 1_555 1_555
O6 C17 1_555 1_555
O33 Co4_4 1_555 1_555
C11 O4 1_555 1_555
C15 C16 1_555 1_555
Co10 O6 1_555 1_555
O25 H54 1_555 1_555
H44 C59 1_555 1_555
H45 C59 1_555 1_555
C60 C61 1_555 1_555
C62 C61 1_555 1_555
H47 C62 1_555 1_555
C63 C62 1_555 1_555
C64 C63 1_555 1_555
H48 C64 1_555 1_555
C65 C60 1_555 1_555
H49 C65 1_555 1_555
C66 C63 1_555 1_555
O28 C59 1_555 1_555
O36 C66 1_555 1_555
C60 O28 1_555 1_555
C64 C65 1_555 1_555
O26 H54_2 1_555 1_555
O25 H53_2 1_555 1_555

#END
