
###############################################################################
#
# This file contains modified crystal structure data generated from the
# MOF subset of the Cambridge Structural Database (CSD) v543 
# hosted by the Cambridge Crystallographic Data Centre (CCDC).
#
# This work is licensed under the Creative Commons
# Attribution-NonCommercial-ShareAlike 4.0 International License.
# To view a copy of this license, visit
# http://creativecommons.org/licenses/by-nc-sa/4.0/
# or send a letter to
# Creative Commons, PO Box 1866, Mountain View, CA 94042, USA.
#
# CIF created using the CSD Python API on 29 September 2022
# The structure has been converted into the P1 space group
# The structure has a 3D framework
# The original CSD entry FAGMEI is in the tetragonal crystal system
# The framework has been calculated to contain at least 10.0% void space
# The void calculation uses a probe of radius 1.32A, grid spacing 0.4
# The framework is charged, counterions have been retained in the structure
#
###############################################################################

data_FAGMEI
_chemical_formula_moiety         '(C240 H288 Ag4 F48 N32 P8 S32 4-)n'
_symmetry_cell_setting           triclinic
_symmetry_space_group_name_H-M   'P 1'
_symmetry_Int_Tables_number      1
_space_group_name_Hall           'P 1'
loop_
_symmetry_equiv_pos_site_id
_symmetry_equiv_pos_as_xyz
1 x,y,z
_cell_length_a                   24.2538(9)
_cell_length_b                   24.2538(9)
_cell_length_c                   13.6809(5)
_cell_angle_alpha                90
_cell_angle_beta                 90
_cell_angle_gamma                90
_cell_volume                     8047.75
loop_
_atom_site_label
_atom_site_type_symbol
_atom_site_fract_x
_atom_site_fract_y
_atom_site_fract_z
Ag1 Ag 0.2500 0.07766(3) 0.3750
S1 S 0.16197(5) 0.02224(5) 0.49709(10)
C1 C 0.1140(2) 0.0681(2) 0.5508(4)
C2 C 0.0678(2) 0.0891(2) 0.5022(4)
C3 C 0.0351(2) 0.1271(2) 0.5530(4)
C4 C 0.0510(2) 0.1464(2) 0.6451(4)
H1 H 0.0281 0.1722 0.6781
C5 C 0.0991(2) 0.1292(2) 0.6893(4)
C6 C 0.1297(2) 0.0881(2) 0.6433(4)
H2 H 0.1615 0.0735 0.6745
S2 S 0.05290(6) 0.06894(6) 0.38121(11)
C7 C 0.0682(3) 0.1339(3) 0.3211(5)
H3 H 0.0507 0.1340 0.2557
H4 H 0.0517 0.1643 0.3595
C8 C 0.1295(3) 0.1450(3) 0.3092(5)
H5 H 0.1351 0.1845 0.2939
H6 H 0.1484 0.1370 0.3717
N1 N 0.1543(2) 0.1113(3) 0.2312(4)
N2 N 0.2018(2) 0.0829(2) 0.2431(4)
C9 C 0.2129(3) 0.0612(3) 0.1566(5)
H7 H 0.2440 0.0387 0.1430
C10 C 0.1730(3) 0.0758(4) 0.0882(5)
H8 H 0.1711 0.0655 0.0212
C11 C 0.1372(4) 0.1083(4) 0.1393(6)
H9 H 0.1054 0.1259 0.1133
C12 C 0.1157(3) 0.1529(3) 0.7889(5)
C13 C 0.1064(4) 0.2151(3) 0.7897(8)
H10 H 0.1288 0.2322 0.7384
H11 H 0.1171 0.2300 0.8535
H12 H 0.0674 0.2229 0.7776
C14 C 0.0783(5) 0.1265(6) 0.8682(7)
H13 H 0.0396 0.1312 0.8498
H14 H 0.0851 0.1445 0.9312
H15 H 0.0868 0.0871 0.8735
C15 C 0.1764(3) 0.1421(4) 0.8120(7)
H16 H 0.1819 0.1026 0.8236
H17 H 0.1869 0.1628 0.8706
H18 H 0.1992 0.1540 0.7567
S9 S 0.33803(5) 0.02224(5) 0.25291(10)
N9 N 0.2982(2) 0.0829(2) 0.5069(4)
S7 S 0.83803(5) 0.97776(5) 0.49709(10)
C46 C 0.8860(2) 0.9319(2) 0.5508(4)
C47 C 0.9322(2) 0.9109(2) 0.5022(4)
C48 C 0.9649(2) 0.8729(2) 0.5530(4)
C49 C 0.9490(2) 0.8536(2) 0.6451(4)
H55 H 0.9719 0.8278 0.6781
C50 C 0.9009(2) 0.8708(2) 0.6893(4)
C51 C 0.8703(2) 0.9119(2) 0.6433(4)
H56 H 0.8385 0.9265 0.6745
S8 S 0.94710(6) 0.93106(6) 0.38121(11)
C52 C 0.9318(3) 0.8661(3) 0.3211(5)
H57 H 0.9493 0.8660 0.2557
H58 H 0.9483 0.8357 0.3595
C53 C 0.8705(3) 0.8550(3) 0.3092(5)
H59 H 0.8649 0.8155 0.2939
H60 H 0.8516 0.8630 0.3717
N7 N 0.8457(2) 0.8887(3) 0.2312(4)
N8 N 0.7982(2) 0.9171(2) 0.2431(4)
C54 C 0.7871(3) 0.9388(3) 0.1566(5)
H61 H 0.7560 0.9613 0.1430
C55 C 0.8270(3) 0.9242(4) 0.0882(5)
H62 H 0.8289 0.9345 0.0212
C56 C 0.8628(4) 0.8917(4) 0.1393(6)
H63 H 0.8946 0.8741 0.1133
C57 C 0.8843(3) 0.8471(3) 0.7889(5)
C58 C 0.8936(4) 0.7849(3) 0.7897(8)
H64 H 0.8712 0.7678 0.7384
H65 H 0.8829 0.7700 0.8535
H66 H 0.9326 0.7771 0.7776
C59 C 0.9217(5) 0.8735(6) 0.8682(7)
H67 H 0.9604 0.8688 0.8498
H68 H 0.9149 0.8555 0.9312
H69 H 0.9132 0.9129 0.8735
C60 C 0.8236(3) 0.8579(4) 0.8120(7)
H70 H 0.8181 0.8974 0.8236
H71 H 0.8131 0.8372 0.8706
H72 H 0.8008 0.8460 0.7567
Ag2 Ag 0.7500 0.92234(3) 0.3750
S10 S 0.66197(5) 0.97776(5) 0.25291(10)
N10 N 0.7018(2) 0.9171(2) 0.5069(4)
C1_2 C 0.3860(2) 0.0681(2) 0.1992(4)
C2_2 C 0.4322(2) 0.0891(2) 0.2478(4)
C3_2 C 0.4649(2) 0.1271(2) 0.1970(4)
C4_2 C 0.4490(2) 0.1464(2) 0.1049(4)
H1_2 H 0.4719 0.1722 0.0719
C5_2 C 0.4009(2) 0.1292(2) 0.0607(4)
C6_2 C 0.3703(2) 0.0881(2) 0.1067(4)
H2_2 H 0.3385 0.0735 0.0755
S2_2 S 0.44710(6) 0.06894(6) 0.36879(11)
C7_2 C 0.4318(3) 0.1339(3) 0.4289(5)
H3_2 H 0.4493 0.1340 0.4943
H4_2 H 0.4483 0.1643 0.3905
C8_2 C 0.3705(3) 0.1450(3) 0.4408(5)
H5_2 H 0.3649 0.1845 0.4561
H6_2 H 0.3516 0.1370 0.3783
N1_2 N 0.3457(2) 0.1113(3) 0.5188(4)
C9_2 C 0.2871(3) 0.0612(3) 0.5934(5)
H7_2 H 0.2560 0.0387 0.6070
C10_2 C 0.3270(3) 0.0758(4) 0.6618(5)
H8_2 H 0.3289 0.0655 0.7288
C11_2 C 0.3628(4) 0.1083(4) 0.6107(6)
H9_2 H 0.3946 0.1259 0.6367
H10_2 H 0.3712 0.2322 0.0116
S5 S 0.52224(5) 0.16197(5) 0.24709(10)
C31 C 0.5681(2) 0.1140(2) 0.3008(4)
C32 C 0.5891(2) 0.0678(2) 0.2522(4)
C33 C 0.6271(2) 0.0351(2) 0.3030(4)
C34 C 0.6464(2) 0.0510(2) 0.3951(4)
H37 H 0.6722 0.0281 0.4281
C35 C 0.6292(2) 0.0991(2) 0.4393(4)
C36 C 0.5881(2) 0.1297(2) 0.3933(4)
H38 H 0.5735 0.1615 0.4245
S6 S 0.56894(6) 0.05290(6) 0.13121(11)
C37 C 0.6339(3) 0.0682(3) 0.0711(5)
H39 H 0.6340 0.0507 0.0057
H40 H 0.6643 0.0517 0.1095
C38 C 0.6450(3) 0.1295(3) 0.0592(5)
H41 H 0.6845 0.1351 0.0439
H42 H 0.6370 0.1484 0.1217
C42 C 0.6529(3) 0.1157(3) 0.5389(5)
C43 C 0.7151(3) 0.1064(4) 0.5397(8)
H46 H 0.7322 0.1288 0.4884
H47 H 0.7300 0.1171 0.6035
H48 H 0.7229 0.0674 0.5276
C44 C 0.6265(6) 0.0783(5) 0.6182(7)
H49 H 0.6312 0.0396 0.5998
H50 H 0.6445 0.0851 0.6812
H51 H 0.5871 0.0868 0.6235
C45 C 0.6421(4) 0.1764(3) 0.5620(7)
H52 H 0.6026 0.1819 0.5736
H53 H 0.6628 0.1869 0.6206
H54 H 0.6540 0.1992 0.5067
Ag4 Ag 0.57766(3) 0.2500 0.1250
S3 S 0.47776(5) 0.83803(5) 0.24709(10)
C16 C 0.4319(2) 0.8860(2) 0.3008(4)
C17 C 0.4109(2) 0.9322(2) 0.2522(4)
C18 C 0.3729(2) 0.9649(2) 0.3030(4)
C19 C 0.3536(2) 0.9490(2) 0.3951(4)
H19 H 0.3278 0.9719 0.4281
C20 C 0.3708(2) 0.9009(2) 0.4393(4)
C21 C 0.4119(2) 0.8703(2) 0.3933(4)
H20 H 0.4265 0.8385 0.4245
S4 S 0.43106(6) 0.94710(6) 0.13121(11)
C22 C 0.3661(3) 0.9318(3) 0.0711(5)
H21 H 0.3660 0.9493 0.0057
H22 H 0.3357 0.9483 0.1095
C23 C 0.3550(3) 0.8705(3) 0.0592(5)
H23 H 0.3155 0.8649 0.0439
H24 H 0.3630 0.8516 0.1217
C27 C 0.3471(3) 0.8843(3) 0.5389(5)
C28 C 0.2849(3) 0.8936(4) 0.5397(8)
H28 H 0.2678 0.8712 0.4884
H29 H 0.2700 0.8829 0.6035
H30 H 0.2771 0.9326 0.5276
C29 C 0.3735(6) 0.9217(5) 0.6182(7)
H31 H 0.3688 0.9604 0.5998
H32 H 0.3555 0.9149 0.6812
H33 H 0.4129 0.9132 0.6235
C30 C 0.3579(4) 0.8236(3) 0.5620(7)
H34 H 0.3974 0.8181 0.5736
H35 H 0.3372 0.8131 0.6206
H36 H 0.3460 0.8008 0.5067
C46_2 C 0.6140(2) 0.9319(2) 0.1992(4)
C47_2 C 0.5678(2) 0.9109(2) 0.2478(4)
C48_2 C 0.5351(2) 0.8729(2) 0.1970(4)
C49_2 C 0.5510(2) 0.8536(2) 0.1049(4)
H55_2 H 0.5281 0.8278 0.0719
C50_2 C 0.5991(2) 0.8708(2) 0.0607(4)
C51_2 C 0.6297(2) 0.9119(2) 0.1067(4)
H56_2 H 0.6615 0.9265 0.0755
S8_2 S 0.55290(6) 0.93106(6) 0.36879(11)
C52_2 C 0.5682(3) 0.8661(3) 0.4289(5)
H57_2 H 0.5507 0.8660 0.4943
H58_2 H 0.5517 0.8357 0.3905
C53_2 C 0.6295(3) 0.8550(3) 0.4408(5)
H59_2 H 0.6351 0.8155 0.4561
H60_2 H 0.6484 0.8630 0.3783
N7_2 N 0.6543(2) 0.8887(3) 0.5188(4)
C54_2 C 0.7129(3) 0.9388(3) 0.5934(5)
H61_2 H 0.7440 0.9613 0.6070
C55_2 C 0.6730(3) 0.9242(4) 0.6618(5)
H62_2 H 0.6711 0.9345 0.7288
C56_2 C 0.6372(4) 0.8917(4) 0.6107(6)
H63_2 H 0.6054 0.8741 0.6367
H64_2 H 0.6288 0.7678 0.0116
Ag3 Ag 0.42234(3) 0.7500 0.1250
S10_2 S 0.52224(5) 0.33803(5) 0.00291(10)
N10_2 N 0.5829(2) 0.2982(2) 0.2569(4)
S9_2 S 0.47776(5) 0.66197(5) 0.00291(10)
N9_2 N 0.4171(2) 0.7018(2) 0.2569(4)
C1_3 C 0.6140(2) 0.5681(2) 0.0508(4)
C2_3 C 0.5678(2) 0.5891(2) 0.0022(4)
C3_3 C 0.5351(2) 0.6271(2) 0.0530(4)
C4_3 C 0.5510(2) 0.6464(2) 0.1451(4)
H1_3 H 0.5281 0.6722 0.1781
C5_3 C 0.5991(2) 0.6292(2) 0.1893(4)
C6_3 C 0.6297(2) 0.5881(2) 0.1433(4)
H2_3 H 0.6615 0.5735 0.1745
C12_2 C 0.6157(3) 0.6529(3) 0.2889(5)
C13_2 C 0.6064(4) 0.7151(3) 0.2897(8)
H10_3 H 0.6288 0.7322 0.2384
H11_2 H 0.6171 0.7300 0.3535
H12_2 H 0.5674 0.7229 0.2776
C14_2 C 0.5783(5) 0.6265(6) 0.3682(7)
H13_2 H 0.5396 0.6312 0.3498
H14_2 H 0.5851 0.6445 0.4312
H15_2 H 0.5868 0.5871 0.3735
C15_2 C 0.6764(3) 0.6421(4) 0.3120(7)
H16_2 H 0.6819 0.6026 0.3236
H17_2 H 0.6869 0.6628 0.3706
H18_2 H 0.6992 0.6540 0.2567
S4_2 S 0.56894(6) 0.44710(6) 0.11879(11)
C22_2 C 0.6339(3) 0.4318(3) 0.1789(5)
H21_2 H 0.6340 0.4493 0.2443
H22_2 H 0.6643 0.4483 0.1405
C23_2 C 0.6450(3) 0.3705(3) 0.1908(5)
H23_2 H 0.6845 0.3649 0.2061
H24_2 H 0.6370 0.3516 0.1283
N3 N 0.6113(3) 0.3457(2) 0.2688(4)
C24 C 0.5612(3) 0.2871(3) 0.3434(5)
H25 H 0.5387 0.2560 0.3570
C25 C 0.5758(4) 0.3270(3) 0.4118(5)
H26 H 0.5655 0.3289 0.4788
C26 C 0.6083(4) 0.3628(4) 0.3607(6)
H27 H 0.6259 0.3946 0.3867
S6_2 S 0.43106(6) 0.55290(6) 0.11879(11)
C37_2 C 0.3661(3) 0.5682(3) 0.1789(5)
H39_2 H 0.3660 0.5507 0.2443
H40_2 H 0.3357 0.5517 0.1405
C38_2 C 0.3550(3) 0.6295(3) 0.1908(5)
H41_2 H 0.3155 0.6351 0.2061
H42_2 H 0.3630 0.6484 0.1283
N5 N 0.3887(3) 0.6543(2) 0.2688(4)
C39 C 0.4388(3) 0.7129(3) 0.3434(5)
H43 H 0.4613 0.7440 0.3570
C40 C 0.4242(4) 0.6730(3) 0.4118(5)
H44 H 0.4345 0.6711 0.4788
C41 C 0.3917(4) 0.6372(4) 0.3607(6)
H45 H 0.3741 0.6054 0.3867
C46_3 C 0.3860(2) 0.4319(2) 0.0508(4)
C47_3 C 0.4322(2) 0.4109(2) 0.0022(4)
C48_3 C 0.4649(2) 0.3729(2) 0.0530(4)
C49_3 C 0.4490(2) 0.3536(2) 0.1451(4)
H55_3 H 0.4719 0.3278 0.1781
C50_3 C 0.4009(2) 0.3708(2) 0.1893(4)
C51_3 C 0.3703(2) 0.4119(2) 0.1433(4)
H56_3 H 0.3385 0.4265 0.1745
C57_2 C 0.3843(3) 0.3471(3) 0.2889(5)
C58_2 C 0.3936(4) 0.2849(3) 0.2897(8)
H64_3 H 0.3712 0.2678 0.2384
H65_2 H 0.3829 0.2700 0.3535
H66_2 H 0.4326 0.2771 0.2776
C59_2 C 0.4217(5) 0.3735(6) 0.3682(7)
H67_2 H 0.4604 0.3688 0.3498
H68_2 H 0.4149 0.3555 0.4312
H69_2 H 0.4132 0.4129 0.3735
C60_2 C 0.3236(3) 0.3579(4) 0.3120(7)
H70_2 H 0.3181 0.3974 0.3236
H71_2 H 0.3131 0.3372 0.3706
H72_2 H 0.3008 0.3460 0.2567
N9_3 N 0.7982(2) 0.5829(2) 0.0069(4)
N10_3 N 0.2018(2) 0.4171(2) 0.0069(4)
C42_2 C 0.1529(3) 0.6157(3) 0.0389(5)
C43_2 C 0.2151(3) 0.6064(4) 0.0397(8)
H47_2 H 0.2300 0.6171 0.1035
H48_2 H 0.2229 0.5674 0.0276
C44_2 C 0.1265(6) 0.5783(5) 0.1182(7)
H49_2 H 0.1312 0.5396 0.0998
H50_2 H 0.1445 0.5851 0.1812
H51_2 H 0.0871 0.5868 0.1235
C45_2 C 0.1421(4) 0.6764(3) 0.0620(7)
H52_2 H 0.1026 0.6819 0.0736
H53_2 H 0.1628 0.6869 0.1206
H54_2 H 0.1540 0.6992 0.0067
N7_3 N 0.1543(2) 0.3887(3) 0.0188(4)
C54_3 C 0.2129(3) 0.4388(3) 0.0934(5)
H61_3 H 0.2440 0.4613 0.1070
C55_3 C 0.1730(3) 0.4242(4) 0.1618(5)
H62_3 H 0.1711 0.4345 0.2288
C56_3 C 0.1372(4) 0.3917(4) 0.1107(6)
H63_3 H 0.1054 0.3741 0.1367
N1_3 N 0.8457(2) 0.6113(3) 0.0188(4)
C9_3 C 0.7871(3) 0.5612(3) 0.0934(5)
H7_3 H 0.7560 0.5387 0.1070
C10_3 C 0.8270(3) 0.5758(4) 0.1618(5)
H8_3 H 0.8289 0.5655 0.2288
C11_3 C 0.8628(4) 0.6083(4) 0.1107(6)
H9_3 H 0.8946 0.6259 0.1367
C27_2 C 0.8471(3) 0.3843(3) 0.0389(5)
C28_2 C 0.7849(3) 0.3936(4) 0.0397(8)
H29_2 H 0.7700 0.3829 0.1035
H30_2 H 0.7771 0.4326 0.0276
C29_2 C 0.8735(6) 0.4217(5) 0.1182(7)
H31_2 H 0.8688 0.4604 0.0998
H32_2 H 0.8555 0.4149 0.1812
H33_2 H 0.9129 0.4132 0.1235
C30_2 C 0.8579(4) 0.3236(3) 0.0620(7)
H34_2 H 0.8974 0.3181 0.0736
H35_2 H 0.8372 0.3131 0.1206
H36_2 H 0.8460 0.3008 0.0067
S3_2 S 0.02224(5) 0.83803(5) 0.50291(10)
C16_2 C 0.0681(2) 0.8860(2) 0.4492(4)
C17_2 C 0.0891(2) 0.9322(2) 0.4978(4)
C18_2 C 0.1271(2) 0.9649(2) 0.4470(4)
C19_2 C 0.1464(2) 0.9490(2) 0.3549(4)
H19_2 H 0.1722 0.9719 0.3219
C20_2 C 0.1292(2) 0.9009(2) 0.3107(4)
C21_2 C 0.0881(2) 0.8703(2) 0.3567(4)
H20_2 H 0.0735 0.8385 0.3255
S4_3 S 0.06894(6) 0.94710(6) 0.61879(11)
C22_3 C 0.1339(3) 0.9318(3) 0.6789(5)
H21_3 H 0.1340 0.9493 0.7443
H22_3 H 0.1643 0.9483 0.6405
C23_3 C 0.1450(3) 0.8705(3) 0.6908(5)
H23_3 H 0.1845 0.8649 0.7061
H24_3 H 0.1370 0.8516 0.6283
N3_2 N 0.1113(3) 0.8457(2) 0.7688(4)
N4 N 0.0829(2) 0.7982(2) 0.7569(4)
C24_2 C 0.0612(3) 0.7871(3) 0.8434(5)
H25_2 H 0.0387 0.7560 0.8570
C25_2 C 0.0758(4) 0.8270(3) 0.9118(5)
H26_2 H 0.0655 0.8289 0.9788
C26_2 C 0.1083(4) 0.8628(4) 0.8607(6)
H27_2 H 0.1259 0.8946 0.8867
C27_3 C 0.1529(3) 0.8843(3) 0.2111(5)
C28_3 C 0.2151(3) 0.8936(4) 0.2103(8)
H28_2 H 0.2322 0.8712 0.2616
H29_3 H 0.2300 0.8829 0.1465
H30_3 H 0.2229 0.9326 0.2224
C29_3 C 0.1265(6) 0.9217(5) 0.1318(7)
H31_3 H 0.1312 0.9604 0.1502
H32_3 H 0.1445 0.9149 0.0688
H33_3 H 0.0871 0.9132 0.1265
C30_3 C 0.1421(4) 0.8236(3) 0.1880(7)
H34_3 H 0.1026 0.8181 0.1764
H35_3 H 0.1628 0.8131 0.1294
H36_3 H 0.1540 0.8008 0.2433
Ag3_2 Ag 0.07766(3) 0.7500 0.6250
S5_2 S 0.97776(5) 0.16197(5) 0.50291(10)
C31_2 C 0.9319(2) 0.1140(2) 0.4492(4)
C32_2 C 0.9109(2) 0.0678(2) 0.4978(4)
C33_2 C 0.8729(2) 0.0351(2) 0.4470(4)
C34_2 C 0.8536(2) 0.0510(2) 0.3549(4)
H37_2 H 0.8278 0.0281 0.3219
C35_2 C 0.8708(2) 0.0991(2) 0.3107(4)
C36_2 C 0.9119(2) 0.1297(2) 0.3567(4)
H38_2 H 0.9265 0.1615 0.3255
S6_3 S 0.93106(6) 0.05290(6) 0.61879(11)
C37_3 C 0.8661(3) 0.0682(3) 0.6789(5)
H39_3 H 0.8660 0.0507 0.7443
H40_3 H 0.8357 0.0517 0.6405
C38_3 C 0.8550(3) 0.1295(3) 0.6908(5)
H41_3 H 0.8155 0.1351 0.7061
H42_3 H 0.8630 0.1484 0.6283
N5_2 N 0.8887(3) 0.1543(2) 0.7688(4)
N6 N 0.9171(2) 0.2018(2) 0.7569(4)
C39_2 C 0.9388(3) 0.2129(3) 0.8434(5)
H43_2 H 0.9613 0.2440 0.8570
C40_2 C 0.9242(4) 0.1730(3) 0.9118(5)
H44_2 H 0.9345 0.1711 0.9788
C41_2 C 0.8917(4) 0.1372(4) 0.8607(6)
H45_2 H 0.8741 0.1054 0.8867
C42_3 C 0.8471(3) 0.1157(3) 0.2111(5)
C43_3 C 0.7849(3) 0.1064(4) 0.2103(8)
H46_2 H 0.7678 0.1288 0.2616
H47_3 H 0.7700 0.1171 0.1465
H48_3 H 0.7771 0.0674 0.2224
C44_3 C 0.8735(6) 0.0783(5) 0.1318(7)
H49_3 H 0.8688 0.0396 0.1502
H50_3 H 0.8555 0.0851 0.0688
H51_3 H 0.9129 0.0868 0.1265
C45_3 C 0.8579(4) 0.1764(3) 0.1880(7)
H52_3 H 0.8974 0.1819 0.1764
H53_3 H 0.8372 0.1869 0.1294
H54_3 H 0.8460 0.1992 0.2433
Ag4_2 Ag 0.92234(3) 0.2500 0.6250
S9_3 S 0.02224(5) 0.66197(5) 0.74709(10)
N9_4 N 0.0829(2) 0.7018(2) 0.4931(4)
S10_3 S 0.97776(5) 0.33803(5) 0.74709(10)
N10_4 N 0.9171(2) 0.2982(2) 0.4931(4)
C12_3 C 0.3843(3) 0.1529(3) 0.9611(5)
C13_3 C 0.3936(4) 0.2151(3) 0.9603(8)
H11_3 H 0.3829 0.2300 0.8965
H12_3 H 0.4326 0.2229 0.9724
C14_3 C 0.4217(5) 0.1265(6) 0.8818(7)
H13_3 H 0.4604 0.1312 0.9002
H14_3 H 0.4149 0.1445 0.8188
H15_3 H 0.4132 0.0871 0.8765
C15_3 C 0.3236(3) 0.1421(4) 0.9380(7)
H16_3 H 0.3181 0.1026 0.9264
H17_3 H 0.3131 0.1628 0.8794
H18_3 H 0.3008 0.1540 0.9933
N5_3 N 0.6113(3) 0.1543(2) 0.9812(4)
N6_2 N 0.5829(2) 0.2018(2) 0.9931(4)
C39_3 C 0.5612(3) 0.2129(3) 0.9066(5)
H43_3 H 0.5387 0.2440 0.8930
C40_3 C 0.5758(4) 0.1730(3) 0.8382(5)
H44_3 H 0.5655 0.1711 0.7712
C41_3 C 0.6083(4) 0.1372(4) 0.8893(6)
H45_3 H 0.6259 0.1054 0.8633
N3_3 N 0.3887(3) 0.8457(2) 0.9812(4)
N4_2 N 0.4171(2) 0.7982(2) 0.9931(4)
C24_3 C 0.4388(3) 0.7871(3) 0.9066(5)
H25_3 H 0.4613 0.7560 0.8930
C25_3 C 0.4242(4) 0.8270(3) 0.8382(5)
H26_3 H 0.4345 0.8289 0.7712
C26_3 C 0.3917(4) 0.8628(4) 0.8893(6)
H27_3 H 0.3741 0.8946 0.8633
C57_3 C 0.6157(3) 0.8471(3) 0.9611(5)
C58_3 C 0.6064(4) 0.7849(3) 0.9603(8)
H65_3 H 0.6171 0.7700 0.8965
H66_3 H 0.5674 0.7771 0.9724
C59_3 C 0.5783(5) 0.8735(6) 0.8818(7)
H67_3 H 0.5396 0.8688 0.9002
H68_3 H 0.5851 0.8555 0.8188
H69_3 H 0.5868 0.9129 0.8765
C60_3 C 0.6764(3) 0.8579(4) 0.9380(7)
H70_3 H 0.6819 0.8974 0.9264
H71_3 H 0.6869 0.8372 0.8794
H72_3 H 0.6992 0.8460 0.9933
Ag1_2 Ag 0.7500 0.57766(3) 0.8750
S1_2 S 0.66197(5) 0.52224(5) 0.99709(10)
S2_3 S 0.55290(6) 0.56894(6) 0.88121(11)
C7_3 C 0.5682(3) 0.6339(3) 0.8211(5)
H3_3 H 0.5507 0.6340 0.7557
H4_3 H 0.5517 0.6643 0.8595
C8_3 C 0.6295(3) 0.6450(3) 0.8092(5)
H5_3 H 0.6351 0.6845 0.7939
H6_3 H 0.6484 0.6370 0.8717
N1_4 N 0.6543(2) 0.6113(3) 0.7312(4)
N2_2 N 0.7018(2) 0.5829(2) 0.7431(4)
C9_4 C 0.7129(3) 0.5612(3) 0.6566(5)
H7_4 H 0.7440 0.5387 0.6430
C10_4 C 0.6730(3) 0.5758(4) 0.5882(5)
H8_4 H 0.6711 0.5655 0.5212
C11_4 C 0.6372(4) 0.6083(4) 0.6393(6)
H9_4 H 0.6054 0.6259 0.6133
C16_3 C 0.5681(2) 0.3860(2) 0.9492(4)
C17_3 C 0.5891(2) 0.4322(2) 0.9978(4)
C18_3 C 0.6271(2) 0.4649(2) 0.9470(4)
C19_3 C 0.6464(2) 0.4490(2) 0.8549(4)
H19_3 H 0.6722 0.4719 0.8219
C20_3 C 0.6292(2) 0.4009(2) 0.8107(4)
C21_3 C 0.5881(2) 0.3703(2) 0.8567(4)
H20_3 H 0.5735 0.3385 0.8255
C27_4 C 0.6529(3) 0.3843(3) 0.7111(5)
C28_4 C 0.7151(3) 0.3936(4) 0.7103(8)
H28_3 H 0.7322 0.3712 0.7616
H29_4 H 0.7300 0.3829 0.6465
H30_4 H 0.7229 0.4326 0.7224
C29_4 C 0.6265(6) 0.4217(5) 0.6318(7)
H31_4 H 0.6312 0.4604 0.6502
H32_4 H 0.6445 0.4149 0.5688
H33_4 H 0.5871 0.4132 0.6265
C30_4 C 0.6421(4) 0.3236(3) 0.6880(7)
H34_4 H 0.6026 0.3181 0.6764
H35_4 H 0.6628 0.3131 0.6294
H36_4 H 0.6540 0.3008 0.7433
C31_3 C 0.4319(2) 0.6140(2) 0.9492(4)
C32_3 C 0.4109(2) 0.5678(2) 0.9978(4)
C33_3 C 0.3729(2) 0.5351(2) 0.9470(4)
C34_3 C 0.3536(2) 0.5510(2) 0.8549(4)
H37_3 H 0.3278 0.5281 0.8219
C35_3 C 0.3708(2) 0.5991(2) 0.8107(4)
C36_3 C 0.4119(2) 0.6297(2) 0.8567(4)
H38_3 H 0.4265 0.6615 0.8255
C42_4 C 0.3471(3) 0.6157(3) 0.7111(5)
C43_4 C 0.2849(3) 0.6064(4) 0.7103(8)
H46_3 H 0.2678 0.6288 0.7616
H47_4 H 0.2700 0.6171 0.6465
H48_4 H 0.2771 0.5674 0.7224
C44_4 C 0.3735(6) 0.5783(5) 0.6318(7)
H49_4 H 0.3688 0.5396 0.6502
H50_4 H 0.3555 0.5851 0.5688
H51_4 H 0.4129 0.5868 0.6265
C45_4 C 0.3579(4) 0.6764(3) 0.6880(7)
H52_4 H 0.3974 0.6819 0.6764
H53_4 H 0.3372 0.6869 0.6294
H54_4 H 0.3460 0.6992 0.7433
S7_2 S 0.33803(5) 0.47776(5) 0.99709(10)
S8_3 S 0.44710(6) 0.43106(6) 0.88121(11)
C52_3 C 0.4318(3) 0.3661(3) 0.8211(5)
H57_3 H 0.4493 0.3660 0.7557
H58_3 H 0.4483 0.3357 0.8595
C53_3 C 0.3705(3) 0.3550(3) 0.8092(5)
H59_3 H 0.3649 0.3155 0.7939
H60_3 H 0.3516 0.3630 0.8717
N7_4 N 0.3457(2) 0.3887(3) 0.7312(4)
N8_2 N 0.2982(2) 0.4171(2) 0.7431(4)
C54_4 C 0.2871(3) 0.4388(3) 0.6566(5)
H61_4 H 0.2560 0.4613 0.6430
C55_4 C 0.3270(3) 0.4242(4) 0.5882(5)
H62_4 H 0.3289 0.4345 0.5212
C56_4 C 0.3628(4) 0.3917(4) 0.6393(6)
H63_4 H 0.3946 0.3741 0.6133
Ag2_2 Ag 0.2500 0.42234(3) 0.8750
S9_4 S 0.83803(5) 0.52224(5) 0.75291(10)
S10_4 S 0.16197(5) 0.47776(5) 0.75291(10)
C31_4 C 0.0681(2) 0.6140(2) 0.8008(4)
C32_4 C 0.0891(2) 0.5678(2) 0.7522(4)
C33_4 C 0.1271(2) 0.5351(2) 0.8030(4)
C34_4 C 0.1464(2) 0.5510(2) 0.8951(4)
H37_4 H 0.1722 0.5281 0.9281
C35_4 C 0.1292(2) 0.5991(2) 0.9393(4)
C36_4 C 0.0881(2) 0.6297(2) 0.8933(4)
H38_4 H 0.0735 0.6615 0.9245
S6_4 S 0.06894(6) 0.55290(6) 0.63121(11)
C37_4 C 0.1339(3) 0.5682(3) 0.5711(5)
H39_4 H 0.1340 0.5507 0.5057
H40_4 H 0.1643 0.5517 0.6095
C38_4 C 0.1450(3) 0.6295(3) 0.5592(5)
H41_4 H 0.1845 0.6351 0.5439
H42_4 H 0.1370 0.6484 0.6217
N5_4 N 0.1113(3) 0.6543(2) 0.4812(4)
C39_4 C 0.0612(3) 0.7129(3) 0.4066(5)
H43_4 H 0.0387 0.7440 0.3930
C40_4 C 0.0758(4) 0.6730(3) 0.3382(5)
H44_4 H 0.0655 0.6711 0.2712
C41_4 C 0.1083(4) 0.6372(4) 0.3893(6)
H45_4 H 0.1259 0.6054 0.3633
H46_4 H 0.2322 0.6288 0.9884
C46_4 C 0.1140(2) 0.4319(2) 0.6992(4)
C47_4 C 0.0678(2) 0.4109(2) 0.7478(4)
C48_4 C 0.0351(2) 0.3729(2) 0.6970(4)
C49_4 C 0.0510(2) 0.3536(2) 0.6049(4)
H55_4 H 0.0281 0.3278 0.5719
C50_4 C 0.0991(2) 0.3708(2) 0.5607(4)
C51_4 C 0.1297(2) 0.4119(2) 0.6067(4)
H56_4 H 0.1615 0.4265 0.5755
S8_4 S 0.05290(6) 0.43106(6) 0.86879(11)
C52_4 C 0.0682(3) 0.3661(3) 0.9289(5)
H57_4 H 0.0507 0.3660 0.9943
H58_4 H 0.0517 0.3357 0.8905
C53_4 C 0.1295(3) 0.3550(3) 0.9408(5)
H59_4 H 0.1351 0.3155 0.9561
H60_4 H 0.1484 0.3630 0.8783
C57_4 C 0.1157(3) 0.3471(3) 0.4611(5)
C58_4 C 0.1064(4) 0.2849(3) 0.4603(8)
H64_4 H 0.1288 0.2678 0.5116
H65_4 H 0.1171 0.2700 0.3965
H66_4 H 0.0674 0.2771 0.4724
C59_4 C 0.0783(5) 0.3735(6) 0.3818(7)
H67_4 H 0.0396 0.3688 0.4002
H68_4 H 0.0851 0.3555 0.3188
H69_4 H 0.0868 0.4129 0.3765
C60_4 C 0.1764(3) 0.3579(4) 0.4380(7)
H70_4 H 0.1819 0.3974 0.4264
H71_4 H 0.1869 0.3372 0.3794
H72_4 H 0.1992 0.3460 0.4933
C1_4 C 0.8860(2) 0.5681(2) 0.6992(4)
C2_4 C 0.9322(2) 0.5891(2) 0.7478(4)
C3_4 C 0.9649(2) 0.6271(2) 0.6970(4)
C4_4 C 0.9490(2) 0.6464(2) 0.6049(4)
H1_4 H 0.9719 0.6722 0.5719
C5_4 C 0.9009(2) 0.6292(2) 0.5607(4)
C6_4 C 0.8703(2) 0.5881(2) 0.6067(4)
H2_4 H 0.8385 0.5735 0.5755
S2_4 S 0.94710(6) 0.56894(6) 0.86879(11)
C7_4 C 0.9318(3) 0.6339(3) 0.9289(5)
H3_4 H 0.9493 0.6340 0.9943
H4_4 H 0.9483 0.6643 0.8905
C8_4 C 0.8705(3) 0.6450(3) 0.9408(5)
H5_4 H 0.8649 0.6845 0.9561
H6_4 H 0.8516 0.6370 0.8783
C12_4 C 0.8843(3) 0.6529(3) 0.4611(5)
C13_4 C 0.8936(4) 0.7151(3) 0.4603(8)
H10_4 H 0.8712 0.7322 0.5116
H11_4 H 0.8829 0.7300 0.3965
H12_4 H 0.9326 0.7229 0.4724
C14_4 C 0.9217(5) 0.6265(6) 0.3818(7)
H13_4 H 0.9604 0.6312 0.4002
H14_4 H 0.9149 0.6445 0.3188
H15_4 H 0.9132 0.5871 0.3765
C15_4 C 0.8236(3) 0.6421(4) 0.4380(7)
H16_4 H 0.8181 0.6026 0.4264
H17_4 H 0.8131 0.6628 0.3794
H18_4 H 0.8008 0.6540 0.4933
C16_4 C 0.9319(2) 0.3860(2) 0.8008(4)
C17_4 C 0.9109(2) 0.4322(2) 0.7522(4)
C18_4 C 0.8729(2) 0.4649(2) 0.8030(4)
C19_4 C 0.8536(2) 0.4490(2) 0.8951(4)
H19_4 H 0.8278 0.4719 0.9281
C20_4 C 0.8708(2) 0.4009(2) 0.9393(4)
C21_4 C 0.9119(2) 0.3703(2) 0.8933(4)
H20_4 H 0.9265 0.3385 0.9245
S4_4 S 0.93106(6) 0.44710(6) 0.63121(11)
C22_4 C 0.8661(3) 0.4318(3) 0.5711(5)
H21_4 H 0.8660 0.4493 0.5057
H22_4 H 0.8357 0.4483 0.6095
C23_4 C 0.8550(3) 0.3705(3) 0.5592(5)
H23_4 H 0.8155 0.3649 0.5439
H24_4 H 0.8630 0.3516 0.6217
N3_4 N 0.8887(3) 0.3457(2) 0.4812(4)
C24_4 C 0.9388(3) 0.2871(3) 0.4066(5)
H25_4 H 0.9613 0.2560 0.3930
C25_4 C 0.9242(4) 0.3270(3) 0.3382(5)
H26_4 H 0.9345 0.3289 0.2712
C26_4 C 0.8917(4) 0.3628(4) 0.3893(6)
H27_4 H 0.8741 0.3946 0.3633
H28_4 H 0.7678 0.3712 0.9884
P1 P 0.7500 0.47173(8) 0.3750
F1 F 0.7590(3) 0.5122(5) 0.4578(8)
F2 F 0.68481(17) 0.4727(2) 0.3940(4)
F3 F 0.7583(4) 0.4268(6) 0.4542(11)
F4 F 0.7410(3) 0.5122(5) 0.2922(8)
F5 F 0.81519(17) 0.4727(2) 0.3560(4)
F6 F 0.7417(4) 0.4268(6) 0.2958(11)
P1_2 P 0.2500 0.52827(8) 0.3750
F1_2 F 0.2410(3) 0.4878(5) 0.4578(8)
F2_2 F 0.31519(17) 0.5273(2) 0.3940(4)
F3_2 F 0.2417(4) 0.5732(6) 0.4542(11)
F4_2 F 0.2590(3) 0.4878(5) 0.2922(8)
F5_2 F 0.18481(17) 0.5273(2) 0.3560(4)
F6_2 F 0.2583(4) 0.5732(6) 0.2958(11)
P1_3 P 0.47173(8) 0.2500 0.6250
F1_3 F 0.5122(5) 0.2410(3) 0.5422(8)
F2_3 F 0.4727(2) 0.31519(17) 0.6060(4)
F3_3 F 0.4268(6) 0.2417(4) 0.5458(11)
F4_3 F 0.5122(5) 0.2590(3) 0.7078(8)
F5_3 F 0.4727(2) 0.18481(17) 0.6440(4)
F6_3 F 0.4268(6) 0.2583(4) 0.7042(11)
P1_4 P 0.52827(8) 0.7500 0.6250
F1_4 F 0.4878(5) 0.7590(3) 0.5422(8)
F2_4 F 0.5273(2) 0.68481(17) 0.6060(4)
F3_4 F 0.5732(6) 0.7583(4) 0.5458(11)
F4_4 F 0.4878(5) 0.7410(3) 0.7078(8)
F5_4 F 0.5273(2) 0.81519(17) 0.6440(4)
F6_4 F 0.5732(6) 0.7417(4) 0.7042(11)
P1_5 P 0.02827(8) 0.2500 0.1250
F2_5 F 0.0273(2) 0.31519(17) 0.1440(4)
F3_5 F 0.0732(6) 0.2417(4) 0.2042(11)
F5_5 F 0.0273(2) 0.18481(17) 0.1060(4)
F6_5 F 0.0732(6) 0.2583(4) 0.0458(11)
F1_5 F 0.9878(5) 0.2410(3) 0.2078(8)
F4_5 F 0.9878(5) 0.2590(3) 0.0422(8)
F1_6 F 0.0122(5) 0.7590(3) 0.2078(8)
F4_6 F 0.0122(5) 0.7410(3) 0.0422(8)
P1_6 P 0.97173(8) 0.7500 0.1250
F2_6 F 0.9727(2) 0.68481(17) 0.1440(4)
F3_6 F 0.9268(6) 0.7583(4) 0.2042(11)
F5_6 F 0.9727(2) 0.81519(17) 0.1060(4)
F6_6 F 0.9268(6) 0.7417(4) 0.0458(11)
F1_7 F 0.2590(3) 0.0122(5) 0.9578(8)
F4_7 F 0.2410(3) 0.0122(5) 0.7922(8)
P1_7 P 0.2500 0.97173(8) 0.8750
F2_7 F 0.18481(17) 0.9727(2) 0.8940(4)
F3_7 F 0.2583(4) 0.9268(6) 0.9542(11)
F5_7 F 0.31519(17) 0.9727(2) 0.8560(4)
F6_7 F 0.2417(4) 0.9268(6) 0.7958(11)
P1_8 P 0.7500 0.02827(8) 0.8750
F2_8 F 0.81519(17) 0.0273(2) 0.8940(4)
F3_8 F 0.7417(4) 0.0732(6) 0.9542(11)
F5_8 F 0.68481(17) 0.0273(2) 0.8560(4)
F6_8 F 0.7583(4) 0.0732(6) 0.7958(11)
F1_8 F 0.7410(3) 0.9878(5) 0.9578(8)
F4_8 F 0.7590(3) 0.9878(5) 0.7922(8)
loop_
_geom_bond_atom_site_label_1
_geom_bond_atom_site_label_2
_geom_bond_site_symmetry_1
_geom_bond_site_symmetry_2
Ag1 S1 1_555 1_555
S1 C1 1_555 1_555
C1 C2 1_555 1_555
C2 C3 1_555 1_555
C3 C4 1_555 1_555
C4 H1 1_555 1_555
C5 C4 1_555 1_555
C6 C1 1_555 1_555
H2 C6 1_555 1_555
S2 C2 1_555 1_555
C7 S2 1_555 1_555
H3 C7 1_555 1_555
H4 C7 1_555 1_555
C8 C7 1_555 1_555
H5 C8 1_555 1_555
H6 C8 1_555 1_555
N1 C8 1_555 1_555
N2 Ag1 1_555 1_555
C9 N2 1_555 1_555
H7 C9 1_555 1_555
C10 C9 1_555 1_555
H8 C10 1_555 1_555
C11 N1 1_555 1_555
H9 C11 1_555 1_555
C12 C5 1_555 1_555
C13 C12 1_555 1_555
H10 C13 1_555 1_555
H11 C13 1_555 1_555
H12 C13 1_555 1_555
C14 C12 1_555 1_555
H13 C14 1_555 1_555
H14 C14 1_555 1_555
H15 C14 1_555 1_555
C15 C12 1_555 1_555
H16 C15 1_555 1_555
H17 C15 1_555 1_555
H18 C15 1_555 1_555
S9 Ag1 1_555 1_555
N9 Ag1 1_555 1_555
C5 C6 1_555 1_555
N1 N2 1_555 1_555
C10 C11 1_555 1_555
C46 S7 1_555 1_555
C47 C46 1_555 1_555
C49 C48 1_555 1_555
H55 C49 1_555 1_555
C50 C49 1_555 1_555
C51 C46 1_555 1_555
H56 C51 1_555 1_555
S8 C47 1_555 1_555
C52 S8 1_555 1_555
H57 C52 1_555 1_555
H58 C52 1_555 1_555
C53 C52 1_555 1_555
H59 C53 1_555 1_555
H60 C53 1_555 1_555
N7 C53 1_555 1_555
N8 N7 1_555 1_555
C54 N8 1_555 1_555
H61 C54 1_555 1_555
C55 C54 1_555 1_555
H62 C55 1_555 1_555
C56 N7 1_555 1_555
H63 C56 1_555 1_555
C57 C50 1_555 1_555
C58 C57 1_555 1_555
H64 C58 1_555 1_555
H65 C58 1_555 1_555
H66 C58 1_555 1_555
C59 C57 1_555 1_555
H67 C59 1_555 1_555
H68 C59 1_555 1_555
H69 C59 1_555 1_555
C60 C57 1_555 1_555
H70 C60 1_555 1_555
H71 C60 1_555 1_555
H72 C60 1_555 1_555
Ag2 S7 1_555 1_555
S10 Ag2 1_555 1_555
N10 Ag2 1_555 1_555
C47 C48 1_555 1_555
C50 C51 1_555 1_555
N8 Ag2 1_555 1_555
C55 C56 1_555 1_555
S9 C1_2 1_555 1_555
C1_2 C2_2 1_555 1_555
C2_2 C3_2 1_555 1_555
C3_2 C4_2 1_555 1_555
C4_2 H1_2 1_555 1_555
C5_2 C4_2 1_555 1_555
C6_2 C1_2 1_555 1_555
H2_2 C6_2 1_555 1_555
S2_2 C2_2 1_555 1_555
C7_2 S2_2 1_555 1_555
H3_2 C7_2 1_555 1_555
H4_2 C7_2 1_555 1_555
C8_2 C7_2 1_555 1_555
H5_2 C8_2 1_555 1_555
H6_2 C8_2 1_555 1_555
N1_2 C8_2 1_555 1_555
C9_2 N9 1_555 1_555
H7_2 C9_2 1_555 1_555
C10_2 C9_2 1_555 1_555
H8_2 C10_2 1_555 1_555
C11_2 N1_2 1_555 1_555
H9_2 C11_2 1_555 1_555
S5 C3_2 1_555 1_555
C31 S5 1_555 1_555
C32 C31 1_555 1_555
C33 C32 1_555 1_555
C34 C33 1_555 1_555
H37 C34 1_555 1_555
C35 C34 1_555 1_555
C36 C31 1_555 1_555
H38 C36 1_555 1_555
S6 C32 1_555 1_555
C37 S6 1_555 1_555
H39 C37 1_555 1_555
H40 C37 1_555 1_555
C38 C37 1_555 1_555
H41 C38 1_555 1_555
H42 C38 1_555 1_555
C42 C35 1_555 1_555
C43 C42 1_555 1_555
H46 C43 1_555 1_555
H47 C43 1_555 1_555
H48 C43 1_555 1_555
C44 C42 1_555 1_555
H49 C44 1_555 1_555
H50 C44 1_555 1_555
H51 C44 1_555 1_555
C45 C42 1_555 1_555
H52 C45 1_555 1_555
H53 C45 1_555 1_555
H54 C45 1_555 1_555
Ag4 S5 1_555 1_555
C5_2 C6_2 1_555 1_555
N1_2 N9 1_555 1_555
C10_2 C11_2 1_555 1_555
C35 C36 1_555 1_555
S3 C16 1_555 1_555
C16 C17 1_555 1_555
C17 C18 1_555 1_555
C19 C18 1_555 1_555
H19 C19 1_555 1_555
C20 C19 1_555 1_555
C21 C16 1_555 1_555
H20 C21 1_555 1_555
S4 C17 1_555 1_555
C22 S4 1_555 1_555
H21 C22 1_555 1_555
H22 C22 1_555 1_555
C23 C22 1_555 1_555
H23 C23 1_555 1_555
H24 C23 1_555 1_555
C27 C20 1_555 1_555
C28 C27 1_555 1_555
H28 C28 1_555 1_555
H29 C28 1_555 1_555
H30 C28 1_555 1_555
C29 C27 1_555 1_555
H31 C29 1_555 1_555
H32 C29 1_555 1_555
H33 C29 1_555 1_555
C30 C27 1_555 1_555
H34 C30 1_555 1_555
H35 C30 1_555 1_555
H36 C30 1_555 1_555
C46_2 S10 1_555 1_555
C47_2 C46_2 1_555 1_555
C48_2 S3 1_555 1_555
C49_2 C48_2 1_555 1_555
H55_2 C49_2 1_555 1_555
C50_2 C49_2 1_555 1_555
C51_2 C46_2 1_555 1_555
H56_2 C51_2 1_555 1_555
S8_2 C47_2 1_555 1_555
C52_2 S8_2 1_555 1_555
H57_2 C52_2 1_555 1_555
H58_2 C52_2 1_555 1_555
C53_2 C52_2 1_555 1_555
H59_2 C53_2 1_555 1_555
H60_2 C53_2 1_555 1_555
N7_2 C53_2 1_555 1_555
N10 N7_2 1_555 1_555
C54_2 N10 1_555 1_555
H61_2 C54_2 1_555 1_555
C55_2 C54_2 1_555 1_555
H62_2 C55_2 1_555 1_555
C56_2 N7_2 1_555 1_555
H63_2 C56_2 1_555 1_555
Ag3 S3 1_555 1_555
C20 C21 1_555 1_555
C47_2 C48_2 1_555 1_555
C50_2 C51_2 1_555 1_555
C55_2 C56_2 1_555 1_555
S10_2 Ag4 1_555 1_555
N10_2 Ag4 1_555 1_555
S9_2 Ag3 1_555 1_555
N9_2 Ag3 1_555 1_555
C1_3 C2_3 1_555 1_555
C2_3 C3_3 1_555 1_555
C3_3 C4_3 1_555 1_555
C4_3 H1_3 1_555 1_555
C5_3 C4_3 1_555 1_555
C6_3 C1_3 1_555 1_555
H2_3 C6_3 1_555 1_555
C12_2 C5_3 1_555 1_555
C13_2 C12_2 1_555 1_555
H10_3 C13_2 1_555 1_555
H11_2 C13_2 1_555 1_555
H12_2 C13_2 1_555 1_555
C14_2 C12_2 1_555 1_555
H13_2 C14_2 1_555 1_555
H14_2 C14_2 1_555 1_555
H15_2 C14_2 1_555 1_555
C15_2 C12_2 1_555 1_555
H16_2 C15_2 1_555 1_555
H17_2 C15_2 1_555 1_555
H18_2 C15_2 1_555 1_555
C22_2 S4_2 1_555 1_555
H21_2 C22_2 1_555 1_555
H22_2 C22_2 1_555 1_555
C23_2 C22_2 1_555 1_555
H23_2 C23_2 1_555 1_555
H24_2 C23_2 1_555 1_555
N3 C23_2 1_555 1_555
N10_2 N3 1_555 1_555
C24 N10_2 1_555 1_555
H25 C24 1_555 1_555
C25 C24 1_555 1_555
H26 C25 1_555 1_555
C26 N3 1_555 1_555
H27 C26 1_555 1_555
S9_2 C3_3 1_555 1_555
C37_2 S6_2 1_555 1_555
H39_2 C37_2 1_555 1_555
H40_2 C37_2 1_555 1_555
C38_2 C37_2 1_555 1_555
H41_2 C38_2 1_555 1_555
H42_2 C38_2 1_555 1_555
N5 C38_2 1_555 1_555
N9_2 N5 1_555 1_555
C39 N9_2 1_555 1_555
H43 C39 1_555 1_555
C40 C39 1_555 1_555
H44 C40 1_555 1_555
C41 N5 1_555 1_555
H45 C41 1_555 1_555
C47_3 C46_3 1_555 1_555
C48_3 S10_2 1_555 1_555
C49_3 C48_3 1_555 1_555
H55_3 C49_3 1_555 1_555
C50_3 C49_3 1_555 1_555
C51_3 C46_3 1_555 1_555
H56_3 C51_3 1_555 1_555
C57_2 C50_3 1_555 1_555
C58_2 C57_2 1_555 1_555
H64_3 C58_2 1_555 1_555
H65_2 C58_2 1_555 1_555
H66_2 C58_2 1_555 1_555
C59_2 C57_2 1_555 1_555
H67_2 C59_2 1_555 1_555
H68_2 C59_2 1_555 1_555
H69_2 C59_2 1_555 1_555
C60_2 C57_2 1_555 1_555
H70_2 C60_2 1_555 1_555
H71_2 C60_2 1_555 1_555
H72_2 C60_2 1_555 1_555
C5_3 C6_3 1_555 1_555
C25 C26 1_555 1_555
C40 C41 1_555 1_555
C47_3 C48_3 1_555 1_555
C50_3 C51_3 1_555 1_555
C43_2 C42_2 1_555 1_555
H47_2 C43_2 1_555 1_555
H48_2 C43_2 1_555 1_555
C44_2 C42_2 1_555 1_555
H49_2 C44_2 1_555 1_555
H50_2 C44_2 1_555 1_555
H51_2 C44_2 1_555 1_555
C45_2 C42_2 1_555 1_555
H52_2 C45_2 1_555 1_555
H53_2 C45_2 1_555 1_555
H54_2 C45_2 1_555 1_555
N10_3 N7_3 1_555 1_555
C54_3 N10_3 1_555 1_555
H61_3 C54_3 1_555 1_555
C55_3 C54_3 1_555 1_555
H62_3 C55_3 1_555 1_555
C56_3 N7_3 1_555 1_555
H63_3 C56_3 1_555 1_555
C55_3 C56_3 1_555 1_555
C9_3 N9_3 1_555 1_555
H7_3 C9_3 1_555 1_555
C10_3 C9_3 1_555 1_555
H8_3 C10_3 1_555 1_555
C11_3 N1_3 1_555 1_555
H9_3 C11_3 1_555 1_555
C28_2 C27_2 1_555 1_555
H29_2 C28_2 1_555 1_555
H30_2 C28_2 1_555 1_555
C29_2 C27_2 1_555 1_555
H31_2 C29_2 1_555 1_555
H32_2 C29_2 1_555 1_555
H33_2 C29_2 1_555 1_555
C30_2 C27_2 1_555 1_555
H34_2 C30_2 1_555 1_555
H35_2 C30_2 1_555 1_555
H36_2 C30_2 1_555 1_555
N1_3 N9_3 1_555 1_555
C10_3 C11_3 1_555 1_555
S3_2 C16_2 1_555 1_555
C16_2 C17_2 1_555 1_555
C17_2 C18_2 1_555 1_555
C19_2 C18_2 1_555 1_555
H19_2 C19_2 1_555 1_555
C20_2 C19_2 1_555 1_555
C21_2 C16_2 1_555 1_555
H20_2 C21_2 1_555 1_555
S4_3 C17_2 1_555 1_555
C22_3 S4_3 1_555 1_555
H21_3 C22_3 1_555 1_555
H22_3 C22_3 1_555 1_555
C23_3 C22_3 1_555 1_555
H23_3 C23_3 1_555 1_555
H24_3 C23_3 1_555 1_555
N3_2 C23_3 1_555 1_555
N4 N3_2 1_555 1_555
C24_2 N4 1_555 1_555
H25_2 C24_2 1_555 1_555
C25_2 C24_2 1_555 1_555
H26_2 C25_2 1_555 1_555
C26_2 N3_2 1_555 1_555
H27_2 C26_2 1_555 1_555
C27_3 C20_2 1_555 1_555
C28_3 C27_3 1_555 1_555
H28_2 C28_3 1_555 1_555
H29_3 C28_3 1_555 1_555
H30_3 C28_3 1_555 1_555
C29_3 C27_3 1_555 1_555
H31_3 C29_3 1_555 1_555
H32_3 C29_3 1_555 1_555
H33_3 C29_3 1_555 1_555
C30_3 C27_3 1_555 1_555
H34_3 C30_3 1_555 1_555
H35_3 C30_3 1_555 1_555
H36_3 C30_3 1_555 1_555
Ag3_2 S3_2 1_555 1_555
C20_2 C21_2 1_555 1_555
N4 Ag3_2 1_555 1_555
C25_2 C26_2 1_555 1_555
C31_2 S5_2 1_555 1_555
C32_2 C31_2 1_555 1_555
C33_2 C32_2 1_555 1_555
C34_2 C33_2 1_555 1_555
H37_2 C34_2 1_555 1_555
C35_2 C34_2 1_555 1_555
C36_2 C31_2 1_555 1_555
H38_2 C36_2 1_555 1_555
S6_3 C32_2 1_555 1_555
C37_3 S6_3 1_555 1_555
H39_3 C37_3 1_555 1_555
H40_3 C37_3 1_555 1_555
C38_3 C37_3 1_555 1_555
H41_3 C38_3 1_555 1_555
H42_3 C38_3 1_555 1_555
N5_2 C38_3 1_555 1_555
N6 N5_2 1_555 1_555
C39_2 N6 1_555 1_555
H43_2 C39_2 1_555 1_555
C40_2 C39_2 1_555 1_555
H44_2 C40_2 1_555 1_555
C41_2 N5_2 1_555 1_555
H45_2 C41_2 1_555 1_555
C42_3 C35_2 1_555 1_555
C43_3 C42_3 1_555 1_555
H46_2 C43_3 1_555 1_555
H47_3 C43_3 1_555 1_555
H48_3 C43_3 1_555 1_555
C44_3 C42_3 1_555 1_555
H49_3 C44_3 1_555 1_555
H50_3 C44_3 1_555 1_555
H51_3 C44_3 1_555 1_555
C45_3 C42_3 1_555 1_555
H52_3 C45_3 1_555 1_555
H53_3 C45_3 1_555 1_555
H54_3 C45_3 1_555 1_555
Ag4_2 S5_2 1_555 1_555
C35_2 C36_2 1_555 1_555
N6 Ag4_2 1_555 1_555
C40_2 C41_2 1_555 1_555
S9_3 Ag3_2 1_555 1_555
N9_4 Ag3_2 1_555 1_555
S10_3 Ag4_2 1_555 1_555
N10_4 Ag4_2 1_555 1_555
C13_3 C12_3 1_555 1_555
H11_3 C13_3 1_555 1_555
H12_3 C13_3 1_555 1_555
C14_3 C12_3 1_555 1_555
H13_3 C14_3 1_555 1_555
H14_3 C14_3 1_555 1_555
H15_3 C14_3 1_555 1_555
C15_3 C12_3 1_555 1_555
H16_3 C15_3 1_555 1_555
H17_3 C15_3 1_555 1_555
H18_3 C15_3 1_555 1_555
N6_2 N5_3 1_555 1_555
C39_3 N6_2 1_555 1_555
H43_3 C39_3 1_555 1_555
C40_3 C39_3 1_555 1_555
H44_3 C40_3 1_555 1_555
C41_3 N5_3 1_555 1_555
H45_3 C41_3 1_555 1_555
C40_3 C41_3 1_555 1_555
N4_2 N3_3 1_555 1_555
C24_3 N4_2 1_555 1_555
H25_3 C24_3 1_555 1_555
C25_3 C24_3 1_555 1_555
H26_3 C25_3 1_555 1_555
C26_3 N3_3 1_555 1_555
H27_3 C26_3 1_555 1_555
C58_3 C57_3 1_555 1_555
H65_3 C58_3 1_555 1_555
H66_3 C58_3 1_555 1_555
C59_3 C57_3 1_555 1_555
H67_3 C59_3 1_555 1_555
H68_3 C59_3 1_555 1_555
H69_3 C59_3 1_555 1_555
C60_3 C57_3 1_555 1_555
H70_3 C60_3 1_555 1_555
H71_3 C60_3 1_555 1_555
H72_3 C60_3 1_555 1_555
C25_3 C26_3 1_555 1_555
Ag1_2 S1_2 1_555 1_555
C7_3 S2_3 1_555 1_555
H3_3 C7_3 1_555 1_555
H4_3 C7_3 1_555 1_555
C8_3 C7_3 1_555 1_555
H5_3 C8_3 1_555 1_555
H6_3 C8_3 1_555 1_555
N1_4 C8_3 1_555 1_555
N2_2 Ag1_2 1_555 1_555
C9_4 N2_2 1_555 1_555
H7_4 C9_4 1_555 1_555
C10_4 C9_4 1_555 1_555
H8_4 C10_4 1_555 1_555
C11_4 N1_4 1_555 1_555
H9_4 C11_4 1_555 1_555
C16_3 C17_3 1_555 1_555
C17_3 C18_3 1_555 1_555
C18_3 S1_2 1_555 1_555
C19_3 C18_3 1_555 1_555
H19_3 C19_3 1_555 1_555
C20_3 C19_3 1_555 1_555
C21_3 C16_3 1_555 1_555
H20_3 C21_3 1_555 1_555
C27_4 C20_3 1_555 1_555
C28_4 C27_4 1_555 1_555
H28_3 C28_4 1_555 1_555
H29_4 C28_4 1_555 1_555
H30_4 C28_4 1_555 1_555
C29_4 C27_4 1_555 1_555
H31_4 C29_4 1_555 1_555
H32_4 C29_4 1_555 1_555
H33_4 C29_4 1_555 1_555
C30_4 C27_4 1_555 1_555
H34_4 C30_4 1_555 1_555
H35_4 C30_4 1_555 1_555
H36_4 C30_4 1_555 1_555
C32_3 C31_3 1_555 1_555
C33_3 C32_3 1_555 1_555
C34_3 C33_3 1_555 1_555
H37_3 C34_3 1_555 1_555
C35_3 C34_3 1_555 1_555
C36_3 C31_3 1_555 1_555
H38_3 C36_3 1_555 1_555
C42_4 C35_3 1_555 1_555
C43_4 C42_4 1_555 1_555
H46_3 C43_4 1_555 1_555
H47_4 C43_4 1_555 1_555
H48_4 C43_4 1_555 1_555
C44_4 C42_4 1_555 1_555
H49_4 C44_4 1_555 1_555
H50_4 C44_4 1_555 1_555
H51_4 C44_4 1_555 1_555
C45_4 C42_4 1_555 1_555
H52_4 C45_4 1_555 1_555
H53_4 C45_4 1_555 1_555
H54_4 C45_4 1_555 1_555
S7_2 C33_3 1_555 1_555
C52_3 S8_3 1_555 1_555
H57_3 C52_3 1_555 1_555
H58_3 C52_3 1_555 1_555
C53_3 C52_3 1_555 1_555
H59_3 C53_3 1_555 1_555
H60_3 C53_3 1_555 1_555
N7_4 C53_3 1_555 1_555
N8_2 N7_4 1_555 1_555
C54_4 N8_2 1_555 1_555
H61_4 C54_4 1_555 1_555
C55_4 C54_4 1_555 1_555
H62_4 C55_4 1_555 1_555
C56_4 N7_4 1_555 1_555
H63_4 C56_4 1_555 1_555
Ag2_2 S7_2 1_555 1_555
S9_4 Ag1_2 1_555 1_555
S10_4 Ag2_2 1_555 1_555
N1_4 N2_2 1_555 1_555
C10_4 C11_4 1_555 1_555
C20_3 C21_3 1_555 1_555
C35_3 C36_3 1_555 1_555
N8_2 Ag2_2 1_555 1_555
C55_4 C56_4 1_555 1_555
C31_4 S9_3 1_555 1_555
C32_4 C31_4 1_555 1_555
C33_4 C32_4 1_555 1_555
C34_4 C33_4 1_555 1_555
H37_4 C34_4 1_555 1_555
C35_4 C34_4 1_555 1_555
C36_4 C31_4 1_555 1_555
H38_4 C36_4 1_555 1_555
S6_4 C32_4 1_555 1_555
C37_4 S6_4 1_555 1_555
H39_4 C37_4 1_555 1_555
H40_4 C37_4 1_555 1_555
C38_4 C37_4 1_555 1_555
H41_4 C38_4 1_555 1_555
H42_4 C38_4 1_555 1_555
N5_4 C38_4 1_555 1_555
N9_4 N5_4 1_555 1_555
C39_4 N9_4 1_555 1_555
H43_4 C39_4 1_555 1_555
C40_4 C39_4 1_555 1_555
H44_4 C40_4 1_555 1_555
C41_4 N5_4 1_555 1_555
H45_4 C41_4 1_555 1_555
S10_4 C33_4 1_555 1_555
C46_4 S10_4 1_555 1_555
C47_4 C46_4 1_555 1_555
C49_4 C48_4 1_555 1_555
H55_4 C49_4 1_555 1_555
C50_4 C49_4 1_555 1_555
C51_4 C46_4 1_555 1_555
H56_4 C51_4 1_555 1_555
S8_4 C47_4 1_555 1_555
C52_4 S8_4 1_555 1_555
H57_4 C52_4 1_555 1_555
H58_4 C52_4 1_555 1_555
C53_4 C52_4 1_555 1_555
H59_4 C53_4 1_555 1_555
H60_4 C53_4 1_555 1_555
C57_4 C50_4 1_555 1_555
C58_4 C57_4 1_555 1_555
H64_4 C58_4 1_555 1_555
H65_4 C58_4 1_555 1_555
H66_4 C58_4 1_555 1_555
C59_4 C57_4 1_555 1_555
H67_4 C59_4 1_555 1_555
H68_4 C59_4 1_555 1_555
H69_4 C59_4 1_555 1_555
C60_4 C57_4 1_555 1_555
H70_4 C60_4 1_555 1_555
H71_4 C60_4 1_555 1_555
H72_4 C60_4 1_555 1_555
C35_4 C36_4 1_555 1_555
C40_4 C41_4 1_555 1_555
C47_4 C48_4 1_555 1_555
C50_4 C51_4 1_555 1_555
S9_4 C1_4 1_555 1_555
C1_4 C2_4 1_555 1_555
C2_4 C3_4 1_555 1_555
C3_4 C4_4 1_555 1_555
C4_4 H1_4 1_555 1_555
C5_4 C4_4 1_555 1_555
C6_4 C1_4 1_555 1_555
H2_4 C6_4 1_555 1_555
S2_4 C2_4 1_555 1_555
C7_4 S2_4 1_555 1_555
H3_4 C7_4 1_555 1_555
H4_4 C7_4 1_555 1_555
C8_4 C7_4 1_555 1_555
H5_4 C8_4 1_555 1_555
H6_4 C8_4 1_555 1_555
C12_4 C5_4 1_555 1_555
C13_4 C12_4 1_555 1_555
H10_4 C13_4 1_555 1_555
H11_4 C13_4 1_555 1_555
H12_4 C13_4 1_555 1_555
C14_4 C12_4 1_555 1_555
H13_4 C14_4 1_555 1_555
H14_4 C14_4 1_555 1_555
H15_4 C14_4 1_555 1_555
C15_4 C12_4 1_555 1_555
H16_4 C15_4 1_555 1_555
H17_4 C15_4 1_555 1_555
H18_4 C15_4 1_555 1_555
S10_3 C16_4 1_555 1_555
C16_4 C17_4 1_555 1_555
C17_4 C18_4 1_555 1_555
C18_4 S9_4 1_555 1_555
C19_4 C18_4 1_555 1_555
H19_4 C19_4 1_555 1_555
C20_4 C19_4 1_555 1_555
C21_4 C16_4 1_555 1_555
H20_4 C21_4 1_555 1_555
S4_4 C17_4 1_555 1_555
C22_4 S4_4 1_555 1_555
H21_4 C22_4 1_555 1_555
H22_4 C22_4 1_555 1_555
C23_4 C22_4 1_555 1_555
H23_4 C23_4 1_555 1_555
H24_4 C23_4 1_555 1_555
N3_4 C23_4 1_555 1_555
N10_4 N3_4 1_555 1_555
C24_4 N10_4 1_555 1_555
H25_4 C24_4 1_555 1_555
C25_4 C24_4 1_555 1_555
H26_4 C25_4 1_555 1_555
C26_4 N3_4 1_555 1_555
H27_4 C26_4 1_555 1_555
C5_4 C6_4 1_555 1_555
C20_4 C21_4 1_555 1_555
C25_4 C26_4 1_555 1_555
P1 F1 1_555 1_555
F2 P1 1_555 1_555
F3 P1 1_555 1_555
F4 P1 1_555 1_555
F5 P1 1_555 1_555
F6 P1 1_555 1_555
P1_2 F1_2 1_555 1_555
F2_2 P1_2 1_555 1_555
F3_2 P1_2 1_555 1_555
F4_2 P1_2 1_555 1_555
F5_2 P1_2 1_555 1_555
F6_2 P1_2 1_555 1_555
P1_3 F1_3 1_555 1_555
F2_3 P1_3 1_555 1_555
F3_3 P1_3 1_555 1_555
F4_3 P1_3 1_555 1_555
F5_3 P1_3 1_555 1_555
F6_3 P1_3 1_555 1_555
P1_4 F1_4 1_555 1_555
F2_4 P1_4 1_555 1_555
F3_4 P1_4 1_555 1_555
F4_4 P1_4 1_555 1_555
F5_4 P1_4 1_555 1_555
F6_4 P1_4 1_555 1_555
F2_5 P1_5 1_555 1_555
F3_5 P1_5 1_555 1_555
F5_5 P1_5 1_555 1_555
F6_5 P1_5 1_555 1_555
F2_6 P1_6 1_555 1_555
F3_6 P1_6 1_555 1_555
F5_6 P1_6 1_555 1_555
F6_6 P1_6 1_555 1_555
F2_7 P1_7 1_555 1_555
F3_7 P1_7 1_555 1_555
F5_7 P1_7 1_555 1_555
F6_7 P1_7 1_555 1_555
F2_8 P1_8 1_555 1_555
F3_8 P1_8 1_555 1_555
F5_8 P1_8 1_555 1_555
F6_8 P1_8 1_555 1_555

#END
