
###############################################################################
#
# This file contains modified crystal structure data generated from the
# MOF subset of the Cambridge Structural Database (CSD) v543 
# hosted by the Cambridge Crystallographic Data Centre (CCDC).
#
# This work is licensed under the Creative Commons
# Attribution-NonCommercial-ShareAlike 4.0 International License.
# To view a copy of this license, visit
# http://creativecommons.org/licenses/by-nc-sa/4.0/
# or send a letter to
# Creative Commons, PO Box 1866, Mountain View, CA 94042, USA.
#
# CIF created using the CSD Python API on 29 September 2022
# The structure has been converted into the P1 space group
# The structure has a 3D framework
# The original CSD entry FAGMOS is in the tetragonal crystal system
# The framework has been calculated to contain at least 10.0% void space
# The void calculation uses a probe of radius 1.32A, grid spacing 0.4
# The framework is charged, counterions have been retained in the structure
#
###############################################################################

data_FAGMOS
_chemical_formula_moiety         '(C240 H288 Ag6 As8 F48 N32 S32 2-)n'
_symmetry_cell_setting           triclinic
_symmetry_space_group_name_H-M   'P 1'
_symmetry_Int_Tables_number      1
_space_group_name_Hall           'P 1'
loop_
_symmetry_equiv_pos_site_id
_symmetry_equiv_pos_as_xyz
1 x,y,z
_cell_length_a                   24.4165(8)
_cell_length_b                   24.4165(8)
_cell_length_c                   13.7457(4)
_cell_angle_alpha                90
_cell_angle_beta                 90
_cell_angle_gamma                90
_cell_volume                     8194.71
loop_
_atom_site_label
_atom_site_type_symbol
_atom_site_fract_x
_atom_site_fract_y
_atom_site_fract_z
Ag1 Ag 0.2500 0.07813(3) 0.3750
N1 N 0.2016(2) 0.0828(3) 0.2450(4)
N2 N 0.3456(3) 0.1108(3) 0.5161(4)
C1 C 0.2871(3) 0.0615(4) 0.5924(5)
C2 C 0.3700(4) 0.1435(4) 0.4378(5)
C3 C 0.3642(4) 0.1055(5) 0.6086(6)
C4 C 0.3273(4) 0.0749(5) 0.6599(6)
H1 H 0.2557 0.0399 0.6064
C5 C 0.4298(4) 0.1338(4) 0.4265(5)
H2 H 0.3514 0.1346 0.3757
H3 H 0.3637 0.1828 0.4514
H4 H 0.3972 0.1206 0.6335
H5 H 0.3289 0.0650 0.7266
S1 S 0.44739(7) 0.06878(7) 0.36831(12)
H6 H 0.4456 0.1640 0.3876
H7 H 0.4471 0.1349 0.4916
C6 C 0.4328(3) 0.0888(2) 0.2470(4)
C7 C 0.4653(3) 0.1266(3) 0.1980(4)
C8 C 0.3873(3) 0.0681(2) 0.1986(4)
S2 S 0.52250(6) 0.16107(6) 0.24769(12)
C9 C 0.4501(3) 0.1459(3) 0.1059(4)
C10 C 0.3718(3) 0.0875(3) 0.1070(4)
C11 C 0.4019(3) 0.1290(3) 0.0602(5)
H8 H 0.4733 0.1713 0.0735
H9 H 0.3404 0.0725 0.0759
H17 H 0.3749 0.2314 0.0159
N3 N 0.2984(2) 0.0828(3) 0.5050(4)
S3 S 0.33893(6) 0.02250(6) 0.25231(12)
C16 C 0.5681(2) 0.1127(3) 0.3014(4)
C18 C 0.5888(2) 0.0672(3) 0.2530(4)
C19 C 0.5875(3) 0.1282(3) 0.3930(4)
C22 C 0.6266(3) 0.0347(3) 0.3020(4)
S4 S 0.56878(7) 0.05261(7) 0.13169(12)
C23 C 0.6290(3) 0.0981(3) 0.4398(5)
H19 H 0.5725 0.1596 0.4241
C26 C 0.6459(3) 0.0499(3) 0.3941(4)
C27 C 0.6338(4) 0.0702(4) 0.0735(5)
C28 C 0.6527(4) 0.1150(4) 0.5373(6)
H21 H 0.6713 0.0267 0.4265
H22 H 0.6640 0.0544 0.1124
H23 H 0.6349 0.0529 0.0084
C33 C 0.6435(4) 0.1300(4) 0.0622(5)
C34 C 0.7145(4) 0.1052(5) 0.5382(8)
C35 C 0.6254(8) 0.0794(7) 0.6162(8)
C36 C 0.6420(5) 0.1745(4) 0.5625(9)
H27 H 0.6828 0.1363 0.0486
H28 H 0.6346 0.1486 0.1243
H29 H 0.7298 0.1183 0.5998
H30 H 0.7314 0.1251 0.4841
H31 H 0.7219 0.0660 0.5312
H32 H 0.5858 0.0855 0.6155
H33 H 0.6401 0.0894 0.6802
H34 H 0.6331 0.0407 0.6033
H35 H 0.6627 0.1982 0.5182
H36 H 0.6536 0.1815 0.6296
H37 H 0.6028 0.1823 0.5561
Ag2 Ag 0.57813(3) 0.2500 0.1250
C17 C 0.3734(3) 0.9653(3) 0.3020(4)
C20 C 0.4112(2) 0.9328(3) 0.2530(4)
C21 C 0.3541(3) 0.9501(3) 0.3941(4)
C24 C 0.4319(2) 0.8873(3) 0.3014(4)
S5 S 0.43122(7) 0.94739(7) 0.13169(12)
H20 H 0.3287 0.9733 0.4265
C25 C 0.3710(3) 0.9019(3) 0.4398(5)
S6 S 0.66107(6) 0.97750(6) 0.25231(12)
S7 S 0.47750(6) 0.83893(6) 0.24769(12)
C29 C 0.4125(3) 0.8718(3) 0.3930(4)
C30 C 0.3662(4) 0.9298(4) 0.0735(5)
C31 C 0.3473(4) 0.8850(4) 0.5373(6)
C32 C 0.6127(3) 0.9319(2) 0.1986(4)
C37 C 0.5347(3) 0.8734(3) 0.1980(4)
H24 H 0.4275 0.8404 0.4241
C38 C 0.3565(4) 0.8700(4) 0.0622(5)
H25 H 0.3360 0.9456 0.1124
H26 H 0.3651 0.9471 0.0084
C39 C 0.2855(4) 0.8948(5) 0.5382(8)
C40 C 0.3746(8) 0.9206(7) 0.6162(8)
C41 C 0.3580(5) 0.8255(4) 0.5625(9)
C42 C 0.6282(3) 0.9125(3) 0.1070(4)
C43 C 0.5672(3) 0.9112(2) 0.2470(4)
C44 C 0.5499(3) 0.8541(3) 0.1059(4)
H38 H 0.3654 0.8514 0.1243
H39 H 0.3172 0.8637 0.0486
H40 H 0.2686 0.8749 0.4841
H41 H 0.2781 0.9340 0.5312
H42 H 0.2702 0.8817 0.5998
H43 H 0.3599 0.9106 0.6802
H44 H 0.3669 0.9593 0.6033
H45 H 0.4142 0.9145 0.6155
H46 H 0.3972 0.8177 0.5561
H47 H 0.3464 0.8185 0.6296
H48 H 0.3373 0.8018 0.5182
H49 H 0.6596 0.9275 0.0759
C45 C 0.5981(3) 0.8710(3) 0.0602(5)
S8 S 0.55261(7) 0.93122(7) 0.36831(12)
H50 H 0.5267 0.8287 0.0735
C49 C 0.5702(4) 0.8662(4) 0.4265(5)
Ag3 Ag 0.42187(3) 0.7500 0.1250
C57 C 0.6300(4) 0.8565(4) 0.4378(5)
H53 H 0.5529 0.8651 0.4916
H54 H 0.5544 0.8360 0.3876
H66 H 0.6251 0.7686 0.0159
H68 H 0.6486 0.8654 0.3757
N8 N 0.6544(3) 0.8892(3) 0.5161(4)
H69 H 0.6363 0.8172 0.4514
N9 N 0.7016(2) 0.9172(3) 0.5050(4)
C58 C 0.6358(4) 0.8945(5) 0.6086(6)
C59 C 0.7129(3) 0.9385(4) 0.5924(5)
Ag4 Ag 0.7500 0.92187(3) 0.3750
C60 C 0.6727(4) 0.9251(5) 0.6599(6)
H70 H 0.6028 0.8794 0.6335
H71 H 0.7443 0.9601 0.6064
N10 N 0.7984(2) 0.9172(3) 0.2450(4)
H72 H 0.6711 0.9350 0.7266
C12 C 0.1527(4) 0.6150(4) 0.0373(6)
C13 C 0.1420(5) 0.6745(4) 0.0625(9)
C14 C 0.1254(8) 0.5794(7) 0.1162(8)
C15 C 0.2145(4) 0.6052(5) 0.0382(8)
H10 H 0.1627 0.6982 0.0182
H11 H 0.1536 0.6815 0.1296
H12 H 0.1028 0.6823 0.0561
H13 H 0.0858 0.5855 0.1155
H14 H 0.1401 0.5894 0.1802
H15 H 0.1331 0.5407 0.1033
H16 H 0.2298 0.6183 0.0998
H18 H 0.2219 0.5660 0.0312
N4 N 0.1544(3) 0.3892(3) 0.0161(4)
C46 C 0.1358(4) 0.3945(5) 0.1086(6)
N6 N 0.2016(2) 0.4172(3) 0.0050(4)
C50 C 0.1727(4) 0.4251(5) 0.1599(6)
H51 H 0.1028 0.3794 0.1335
C51 C 0.2129(3) 0.4385(4) 0.0924(5)
H55 H 0.1711 0.4350 0.2266
H56 H 0.2443 0.4601 0.1064
N5 N 0.8456(3) 0.6108(3) 0.0161(4)
N7 N 0.7984(2) 0.5828(3) 0.0050(4)
C47 C 0.8642(4) 0.6055(5) 0.1086(6)
C48 C 0.8473(4) 0.3850(4) 0.0373(6)
C52 C 0.7871(3) 0.5615(4) 0.0924(5)
H52 H 0.8972 0.6206 0.1335
C53 C 0.8273(4) 0.5749(5) 0.1599(6)
C54 C 0.8746(8) 0.4206(7) 0.1162(8)
C55 C 0.8580(5) 0.3255(4) 0.0625(9)
C56 C 0.7855(4) 0.3948(5) 0.0382(8)
H57 H 0.7557 0.5399 0.1064
H58 H 0.8289 0.5650 0.2266
H59 H 0.9142 0.4145 0.1155
H60 H 0.8599 0.4106 0.1802
H61 H 0.8669 0.4593 0.1033
H62 H 0.8373 0.3018 0.0182
H63 H 0.8464 0.3185 0.1296
H64 H 0.8972 0.3177 0.0561
H65 H 0.7702 0.3817 0.0998
H67 H 0.7781 0.4340 0.0312
C6_2 C 0.4328(3) 0.4112(2) 0.0030(4)
C7_2 C 0.4653(3) 0.3734(3) 0.0520(4)
C8_2 C 0.3873(3) 0.4319(2) 0.0514(4)
S2_2 S 0.52250(6) 0.33893(6) 0.00231(12)
C9_2 C 0.4501(3) 0.3541(3) 0.1441(4)
C10_2 C 0.3718(3) 0.4125(3) 0.1430(4)
C11_2 C 0.4019(3) 0.3710(3) 0.1898(5)
H8_2 H 0.4733 0.3287 0.1765
H9_2 H 0.3404 0.4275 0.1741
C12_2 C 0.3850(4) 0.3473(4) 0.2873(6)
C13_2 C 0.3255(4) 0.3580(5) 0.3125(9)
C14_2 C 0.4206(7) 0.3746(8) 0.3662(8)
C15_2 C 0.3948(5) 0.2855(4) 0.2882(8)
H10_2 H 0.3018 0.3373 0.2682
H11_2 H 0.3185 0.3464 0.3796
H12_2 H 0.3177 0.3972 0.3061
H13_2 H 0.4145 0.4142 0.3655
H14_2 H 0.4106 0.3599 0.4302
H15_2 H 0.4593 0.3669 0.3533
H16_2 H 0.3817 0.2702 0.3498
H17_2 H 0.3749 0.2686 0.2341
H18_2 H 0.4340 0.2781 0.2812
S4_2 S 0.56878(7) 0.44739(7) 0.11831(12)
S5_2 S 0.43122(7) 0.55261(7) 0.11831(12)
C27_2 C 0.6338(4) 0.4298(4) 0.1765(5)
S7_2 S 0.47750(6) 0.66107(6) 0.00231(12)
C30_2 C 0.3662(4) 0.5702(4) 0.1765(5)
C32_2 C 0.6127(3) 0.5681(2) 0.0514(4)
H22_2 H 0.6640 0.4456 0.1376
H23_2 H 0.6349 0.4471 0.2416
C33_2 C 0.6435(4) 0.3700(4) 0.1878(5)
C37_2 C 0.5347(3) 0.6266(3) 0.0520(4)
C38_2 C 0.3565(4) 0.6300(4) 0.1878(5)
H25_2 H 0.3360 0.5544 0.1376
H26_2 H 0.3651 0.5529 0.2416
C42_2 C 0.6282(3) 0.5875(3) 0.1430(4)
C43_2 C 0.5672(3) 0.5888(2) 0.0030(4)
H27_2 H 0.6828 0.3637 0.2014
N4_2 N 0.6108(3) 0.3456(3) 0.2661(4)
H28_2 H 0.6346 0.3514 0.1257
C44_2 C 0.5499(3) 0.6459(3) 0.1441(4)
N5_2 N 0.3892(3) 0.6544(3) 0.2661(4)
H38_2 H 0.3654 0.6486 0.1257
H39_2 H 0.3172 0.6363 0.2014
H49_2 H 0.6596 0.5725 0.1741
C45_2 C 0.5981(3) 0.6290(3) 0.1898(5)
C46_2 C 0.6055(5) 0.3642(4) 0.3586(6)
N6_2 N 0.5828(3) 0.2984(2) 0.2550(4)
H50_2 H 0.5267 0.6713 0.1765
N7_2 N 0.4172(3) 0.7016(2) 0.2550(4)
C47_2 C 0.3945(5) 0.6358(4) 0.3586(6)
C48_2 C 0.6150(4) 0.6527(4) 0.2873(6)
C50_2 C 0.5749(5) 0.3273(4) 0.4099(6)
H51_2 H 0.6206 0.3972 0.3835
C51_2 C 0.5615(4) 0.2871(3) 0.3424(5)
C52_2 C 0.4385(4) 0.7129(3) 0.3424(5)
H52_2 H 0.3794 0.6028 0.3835
C53_2 C 0.4251(5) 0.6727(4) 0.4099(6)
C54_2 C 0.5794(7) 0.6254(8) 0.3662(8)
C55_2 C 0.6745(4) 0.6420(5) 0.3125(9)
C56_2 C 0.6052(5) 0.7145(4) 0.2882(8)
H55_2 H 0.5650 0.3289 0.4766
H56_2 H 0.5399 0.2557 0.3564
H57_2 H 0.4601 0.7443 0.3564
H58_2 H 0.4350 0.6711 0.4766
H59_2 H 0.5855 0.5858 0.3655
H60_2 H 0.5894 0.6401 0.4302
H61_2 H 0.5407 0.6331 0.3533
H62_2 H 0.6982 0.6627 0.2682
H63_2 H 0.6815 0.6536 0.3796
H64_2 H 0.6823 0.6028 0.3061
H65_2 H 0.6183 0.7298 0.3498
H66_2 H 0.6251 0.7314 0.2341
H67_2 H 0.5660 0.7219 0.2812
S6_2 S 0.16107(6) 0.02250(6) 0.49769(12)
C32_3 C 0.1127(3) 0.0681(2) 0.5514(4)
C37_3 C 0.0347(3) 0.1266(3) 0.5520(4)
C42_3 C 0.1282(3) 0.0875(3) 0.6430(4)
C43_3 C 0.0672(3) 0.0888(2) 0.5030(4)
C44_3 C 0.0499(3) 0.1459(3) 0.6441(4)
H49_3 H 0.1596 0.0725 0.6741
C45_3 C 0.0981(3) 0.1290(3) 0.6898(5)
S8_2 S 0.05261(7) 0.06878(7) 0.38169(12)
H50_3 H 0.0267 0.1713 0.6765
C48_3 C 0.1150(4) 0.1527(4) 0.7873(6)
C49_2 C 0.0702(4) 0.1338(4) 0.3235(5)
C54_3 C 0.0794(7) 0.1254(8) 0.8662(8)
C55_3 C 0.1745(4) 0.1420(5) 0.8125(9)
C56_3 C 0.1052(5) 0.2145(4) 0.7882(8)
C57_2 C 0.1300(4) 0.1435(4) 0.3122(5)
H53_2 H 0.0529 0.1349 0.2584
H54_2 H 0.0544 0.1640 0.3624
H59_3 H 0.0855 0.0858 0.8655
H60_3 H 0.0894 0.1401 0.9302
H61_3 H 0.0407 0.1331 0.8533
H62_3 H 0.1982 0.1627 0.7682
H63_3 H 0.1815 0.1536 0.8796
H64_3 H 0.1823 0.1028 0.8061
H65_3 H 0.1183 0.2298 0.8498
H66_3 H 0.1251 0.2314 0.7341
H67_3 H 0.0660 0.2219 0.7812
H68_2 H 0.1486 0.1346 0.3743
N8_2 N 0.1544(3) 0.1108(3) 0.2339(4)
H69_2 H 0.1363 0.1828 0.2986
C58_2 C 0.1358(4) 0.1055(5) 0.1414(6)
C59_2 C 0.2129(3) 0.0615(4) 0.1576(5)
C60_2 C 0.1727(4) 0.0749(5) 0.0901(6)
H70_2 H 0.1028 0.1206 0.1165
H71_2 H 0.2443 0.0399 0.1436
H72_2 H 0.1711 0.0650 0.0234
N2_2 N 0.8456(3) 0.8892(3) 0.2339(4)
C1_2 C 0.7871(3) 0.9385(4) 0.1576(5)
C2_2 C 0.8700(4) 0.8565(4) 0.3122(5)
C3_2 C 0.8642(4) 0.8945(5) 0.1414(6)
C4_2 C 0.8273(4) 0.9251(5) 0.0901(6)
H1_2 H 0.7557 0.9601 0.1436
C5_2 C 0.9298(4) 0.8662(4) 0.3235(5)
H2_2 H 0.8514 0.8654 0.3743
H3_2 H 0.8637 0.8172 0.2986
H4_2 H 0.8972 0.8794 0.1165
H5_2 H 0.8289 0.9350 0.0234
S1_2 S 0.94739(7) 0.93122(7) 0.38169(12)
H6_2 H 0.9456 0.8360 0.3624
H7_2 H 0.9471 0.8651 0.2584
C6_3 C 0.9328(3) 0.9112(2) 0.5030(4)
C7_3 C 0.9653(3) 0.8734(3) 0.5520(4)
C8_3 C 0.8873(3) 0.9319(2) 0.5514(4)
C9_3 C 0.9501(3) 0.8541(3) 0.6441(4)
C10_3 C 0.8718(3) 0.9125(3) 0.6430(4)
C11_3 C 0.9019(3) 0.8710(3) 0.6898(5)
H8_3 H 0.9733 0.8287 0.6765
H9_3 H 0.8404 0.9275 0.6741
C12_3 C 0.8850(4) 0.8473(4) 0.7873(6)
C13_3 C 0.8255(4) 0.8580(5) 0.8125(9)
C14_3 C 0.9206(7) 0.8746(8) 0.8662(8)
C15_3 C 0.8948(5) 0.7855(4) 0.7882(8)
H10_3 H 0.8018 0.8373 0.7682
H11_3 H 0.8185 0.8464 0.8796
H12_3 H 0.8177 0.8972 0.8061
H13_3 H 0.9145 0.9142 0.8655
H14_3 H 0.9106 0.8599 0.9302
H15_3 H 0.9593 0.8669 0.8533
H16_3 H 0.8817 0.7702 0.8498
H17_3 H 0.8749 0.7686 0.7341
H18_3 H 0.9340 0.7781 0.7812
S3_2 S 0.83893(6) 0.97750(6) 0.49769(12)
C12_4 C 0.3850(4) 0.1527(4) 0.9627(6)
C13_4 C 0.3255(4) 0.1420(5) 0.9375(9)
C14_4 C 0.4206(7) 0.1254(8) 0.8838(8)
C15_4 C 0.3948(5) 0.2145(4) 0.9618(8)
H10_4 H 0.3018 0.1627 0.9818
H11_4 H 0.3185 0.1536 0.8704
H12_4 H 0.3177 0.1028 0.9439
H13_4 H 0.4145 0.0858 0.8845
H14_4 H 0.4106 0.1401 0.8198
H15_4 H 0.4593 0.1331 0.8967
H16_4 H 0.3817 0.2298 0.9002
H18_4 H 0.4340 0.2219 0.9688
N4_3 N 0.6108(3) 0.1544(3) 0.9839(4)
C46_3 C 0.6055(5) 0.1358(4) 0.8914(6)
N6_3 N 0.5828(3) 0.2016(2) 0.9950(4)
C50_3 C 0.5749(5) 0.1727(4) 0.8401(6)
H51_3 H 0.6206 0.1028 0.8665
C51_3 C 0.5615(4) 0.2129(3) 0.9076(5)
H55_3 H 0.5650 0.1711 0.7734
H56_3 H 0.5399 0.2443 0.8936
N5_3 N 0.3892(3) 0.8456(3) 0.9839(4)
N7_3 N 0.4172(3) 0.7984(2) 0.9950(4)
C47_3 C 0.3945(5) 0.8642(4) 0.8914(6)
C48_4 C 0.6150(4) 0.8473(4) 0.9627(6)
C52_3 C 0.4385(4) 0.7871(3) 0.9076(5)
H52_3 H 0.3794 0.8972 0.8665
C53_3 C 0.4251(5) 0.8273(4) 0.8401(6)
C54_4 C 0.5794(7) 0.8746(8) 0.8838(8)
C55_4 C 0.6745(4) 0.8580(5) 0.9375(9)
C56_4 C 0.6052(5) 0.7855(4) 0.9618(8)
H57_3 H 0.4601 0.7557 0.8936
H58_3 H 0.4350 0.8289 0.7734
H59_4 H 0.5855 0.9142 0.8845
H60_4 H 0.5894 0.8599 0.8198
H61_4 H 0.5407 0.8669 0.8967
H62_4 H 0.6982 0.8373 0.9818
H63_4 H 0.6815 0.8464 0.8704
H64_4 H 0.6823 0.8972 0.9439
H65_4 H 0.6183 0.7702 0.9002
H67_4 H 0.5660 0.7781 0.9688
Ag1_2 Ag 0.07813(3) 0.7500 0.6250
N1_2 N 0.0828(3) 0.7984(2) 0.7550(4)
N2_3 N 0.1108(3) 0.6544(3) 0.4839(4)
C1_3 C 0.0615(4) 0.7129(3) 0.4076(5)
C2_3 C 0.1435(4) 0.6300(4) 0.5622(5)
C3_3 C 0.1055(5) 0.6358(4) 0.3914(6)
C4_3 C 0.0749(5) 0.6727(4) 0.3401(6)
H1_3 H 0.0399 0.7443 0.3936
C5_3 C 0.1338(4) 0.5702(4) 0.5735(5)
H2_3 H 0.1346 0.6486 0.6243
H3_3 H 0.1828 0.6363 0.5486
H4_3 H 0.1206 0.6028 0.3665
H5_3 H 0.0650 0.6711 0.2734
S1_3 S 0.06878(7) 0.55261(7) 0.63169(12)
H6_3 H 0.1640 0.5544 0.6124
H7_3 H 0.1349 0.5529 0.5084
C6_4 C 0.0888(2) 0.5672(3) 0.7530(4)
C7_4 C 0.1266(3) 0.5347(3) 0.8020(4)
C8_4 C 0.0681(2) 0.6127(3) 0.8014(4)
S2_3 S 0.16107(6) 0.47750(6) 0.75231(12)
C9_4 C 0.1459(3) 0.5499(3) 0.8941(4)
C10_4 C 0.0875(3) 0.6282(3) 0.8930(4)
C11_4 C 0.1290(3) 0.5981(3) 0.9398(5)
H8_4 H 0.1713 0.5267 0.9265
H9_4 H 0.0725 0.6596 0.9241
H17_4 H 0.2314 0.6251 0.9841
N3_2 N 0.0828(3) 0.7016(2) 0.4950(4)
S3_3 S 0.02250(6) 0.66107(6) 0.74769(12)
C16_2 C 0.1127(3) 0.4319(2) 0.6986(4)
C18_2 C 0.0672(3) 0.4112(2) 0.7470(4)
C19_2 C 0.1282(3) 0.4125(3) 0.6070(4)
C22_2 C 0.0347(3) 0.3734(3) 0.6980(4)
S4_3 S 0.05261(7) 0.43122(7) 0.86831(12)
C23_2 C 0.0981(3) 0.3710(3) 0.5602(5)
H19_2 H 0.1596 0.4275 0.5759
C26_2 C 0.0499(3) 0.3541(3) 0.6059(4)
C27_3 C 0.0702(4) 0.3662(4) 0.9265(5)
C28_2 C 0.1150(4) 0.3473(4) 0.4627(6)
H21_2 H 0.0267 0.3287 0.5735
H22_3 H 0.0544 0.3360 0.8876
H23_3 H 0.0529 0.3651 0.9916
C33_3 C 0.1300(4) 0.3565(4) 0.9378(5)
C34_2 C 0.1052(5) 0.2855(4) 0.4618(8)
C35_2 C 0.0794(7) 0.3746(8) 0.3838(8)
C36_2 C 0.1745(4) 0.3580(5) 0.4375(9)
H27_3 H 0.1363 0.3172 0.9514
H28_3 H 0.1486 0.3654 0.8757
H29_2 H 0.1183 0.2702 0.4002
H30_2 H 0.1251 0.2686 0.5159
H31_2 H 0.0660 0.2781 0.4688
H32_2 H 0.0855 0.4142 0.3845
H33_2 H 0.0894 0.3599 0.3198
H34_2 H 0.0407 0.3669 0.3967
H35_2 H 0.1982 0.3373 0.4818
H36_2 H 0.1815 0.3464 0.3704
H37_2 H 0.1823 0.3972 0.4439
Ag2_2 Ag 0.2500 0.42187(3) 0.8750
C17_2 C 0.9653(3) 0.6266(3) 0.6980(4)
C20_2 C 0.9328(3) 0.5888(2) 0.7470(4)
C21_2 C 0.9501(3) 0.6459(3) 0.6059(4)
C24_2 C 0.8873(3) 0.5681(2) 0.6986(4)
S5_3 S 0.94739(7) 0.56878(7) 0.86831(12)
H20_2 H 0.9733 0.6713 0.5735
C25_2 C 0.9019(3) 0.6290(3) 0.5602(5)
S6_3 S 0.97750(6) 0.33893(6) 0.74769(12)
S7_3 S 0.83893(6) 0.52250(6) 0.75231(12)
C29_2 C 0.8718(3) 0.5875(3) 0.6070(4)
C30_3 C 0.9298(4) 0.6338(4) 0.9265(5)
C31_2 C 0.8850(4) 0.6527(4) 0.4627(6)
C32_4 C 0.9319(2) 0.3873(3) 0.8014(4)
C37_4 C 0.8734(3) 0.4653(3) 0.8020(4)
H24_2 H 0.8404 0.5725 0.5759
C38_3 C 0.8700(4) 0.6435(4) 0.9378(5)
H25_3 H 0.9456 0.6640 0.8876
H26_3 H 0.9471 0.6349 0.9916
C39_2 C 0.8948(5) 0.7145(4) 0.4618(8)
C40_2 C 0.9206(7) 0.6254(8) 0.3838(8)
C41_2 C 0.8255(4) 0.6420(5) 0.4375(9)
C42_4 C 0.9125(3) 0.3718(3) 0.8930(4)
C43_4 C 0.9112(2) 0.4328(3) 0.7530(4)
C44_4 C 0.8541(3) 0.4501(3) 0.8941(4)
H38_3 H 0.8514 0.6346 0.8757
H39_3 H 0.8637 0.6828 0.9514
H40_2 H 0.8749 0.7314 0.5159
H41_2 H 0.9340 0.7219 0.4688
H42_2 H 0.8817 0.7298 0.4002
H43_2 H 0.9106 0.6401 0.3198
H44_2 H 0.9593 0.6331 0.3967
H45_2 H 0.9145 0.5858 0.3845
H46_2 H 0.8177 0.6028 0.4439
H47_2 H 0.8185 0.6536 0.3704
H48_2 H 0.8018 0.6627 0.4818
H49_4 H 0.9275 0.3404 0.9241
C45_4 C 0.8710(3) 0.4019(3) 0.9398(5)
S8_3 S 0.93122(7) 0.44739(7) 0.63169(12)
H50_4 H 0.8287 0.4733 0.9265
C49_3 C 0.8662(4) 0.4298(4) 0.5735(5)
Ag3_2 Ag 0.7500 0.57813(3) 0.8750
C57_3 C 0.8565(4) 0.3700(4) 0.5622(5)
H53_3 H 0.8651 0.4471 0.5084
H54_3 H 0.8360 0.4456 0.6124
H66_4 H 0.7686 0.3749 0.9841
H68_3 H 0.8654 0.3514 0.6243
N8_3 N 0.8892(3) 0.3456(3) 0.4839(4)
H69_3 H 0.8172 0.3637 0.5486
N9_2 N 0.9172(3) 0.2984(2) 0.4950(4)
C58_3 C 0.8945(5) 0.3642(4) 0.3914(6)
C59_3 C 0.9385(4) 0.2871(3) 0.4076(5)
Ag4_2 Ag 0.92187(3) 0.2500 0.6250
C60_3 C 0.9251(5) 0.3273(4) 0.3401(6)
H70_3 H 0.8794 0.3972 0.3665
H71_3 H 0.9601 0.2557 0.3936
N10_2 N 0.9172(3) 0.2016(2) 0.7550(4)
H72_3 H 0.9350 0.3289 0.2734
N2_4 N 0.3456(3) 0.3892(3) 0.7339(4)
C1_4 C 0.2871(3) 0.4385(4) 0.6576(5)
C2_4 C 0.3700(4) 0.3565(4) 0.8122(5)
C3_4 C 0.3642(4) 0.3945(5) 0.6414(6)
C4_4 C 0.3273(4) 0.4251(5) 0.5901(6)
H1_4 H 0.2557 0.4601 0.6436
C5_4 C 0.4298(4) 0.3662(4) 0.8235(5)
H2_4 H 0.3514 0.3654 0.8743
H3_4 H 0.3637 0.3172 0.7986
H4_4 H 0.3972 0.3794 0.6165
H5_4 H 0.3289 0.4350 0.5234
S1_4 S 0.44739(7) 0.43122(7) 0.88169(12)
H6_4 H 0.4456 0.3360 0.8624
H7_4 H 0.4471 0.3651 0.7584
N3_3 N 0.2984(2) 0.4172(3) 0.7450(4)
S3_4 S 0.33893(6) 0.47750(6) 0.99769(12)
C16_3 C 0.5681(2) 0.3873(3) 0.9486(4)
C17_3 C 0.3734(3) 0.5347(3) 0.9480(4)
C18_3 C 0.5888(2) 0.4328(3) 0.9970(4)
C19_3 C 0.5875(3) 0.3718(3) 0.8570(4)
C20_3 C 0.4112(2) 0.5672(3) 0.9970(4)
C21_3 C 0.3541(3) 0.5499(3) 0.8559(4)
C22_3 C 0.6266(3) 0.4653(3) 0.9480(4)
C23_3 C 0.6290(3) 0.4019(3) 0.8102(5)
H19_3 H 0.5725 0.3404 0.8259
C24_3 C 0.4319(2) 0.6127(3) 0.9486(4)
H20_3 H 0.3287 0.5267 0.8235
C25_3 C 0.3710(3) 0.5981(3) 0.8102(5)
S6_4 S 0.66107(6) 0.52250(6) 0.99769(12)
C26_3 C 0.6459(3) 0.4501(3) 0.8559(4)
C28_3 C 0.6527(4) 0.3850(4) 0.7127(6)
C29_3 C 0.4125(3) 0.6282(3) 0.8570(4)
C31_3 C 0.3473(4) 0.6150(4) 0.7127(6)
H21_3 H 0.6713 0.4733 0.8235
C34_3 C 0.7145(4) 0.3948(5) 0.7118(8)
C35_3 C 0.6254(8) 0.4206(7) 0.6338(8)
C36_3 C 0.6420(5) 0.3255(4) 0.6875(9)
H24_3 H 0.4275 0.6596 0.8259
C39_3 C 0.2855(4) 0.6052(5) 0.7118(8)
C40_3 C 0.3746(8) 0.5794(7) 0.6338(8)
C41_3 C 0.3580(5) 0.6745(4) 0.6875(9)
H29_3 H 0.7298 0.3817 0.6502
H30_3 H 0.7314 0.3749 0.7659
H31_3 H 0.7219 0.4340 0.7188
H32_3 H 0.5858 0.4145 0.6345
H33_3 H 0.6401 0.4106 0.5698
H34_3 H 0.6331 0.4593 0.6467
H35_3 H 0.6627 0.3018 0.7318
H36_3 H 0.6536 0.3185 0.6204
H37_3 H 0.6028 0.3177 0.6939
H40_3 H 0.2686 0.6251 0.7659
H41_3 H 0.2781 0.5660 0.7188
H42_3 H 0.2702 0.6183 0.6502
H43_3 H 0.3599 0.5894 0.5698
H44_3 H 0.3669 0.5407 0.6467
H45_3 H 0.4142 0.5855 0.6345
H46_3 H 0.3972 0.6823 0.6939
H47_3 H 0.3464 0.6815 0.6204
H48_3 H 0.3373 0.6982 0.7318
S8_4 S 0.55261(7) 0.56878(7) 0.88169(12)
C49_4 C 0.5702(4) 0.6338(4) 0.8235(5)
C57_4 C 0.6300(4) 0.6435(4) 0.8122(5)
H53_4 H 0.5529 0.6349 0.7584
H54_4 H 0.5544 0.6640 0.8624
H68_4 H 0.6486 0.6346 0.8743
N8_4 N 0.6544(3) 0.6108(3) 0.7339(4)
H69_4 H 0.6363 0.6828 0.7986
N9_3 N 0.7016(2) 0.5828(3) 0.7450(4)
C58_4 C 0.6358(4) 0.6055(5) 0.6414(6)
C59_4 C 0.7129(3) 0.5615(4) 0.6576(5)
C60_4 C 0.6727(4) 0.5749(5) 0.5901(6)
H70_4 H 0.6028 0.6206 0.6165
H71_4 H 0.7443 0.5399 0.6436
H72_4 H 0.6711 0.5650 0.5234
S2_4 S 0.02250(6) 0.83893(6) 0.50231(12)
C16_4 C 0.0681(2) 0.8873(3) 0.4486(4)
C18_4 C 0.0888(2) 0.9328(3) 0.4970(4)
C19_4 C 0.0875(3) 0.8718(3) 0.3570(4)
C22_4 C 0.1266(3) 0.9653(3) 0.4480(4)
S4_4 S 0.06878(7) 0.94739(7) 0.61831(12)
C23_4 C 0.1290(3) 0.9019(3) 0.3102(5)
H19_4 H 0.0725 0.8404 0.3259
C26_4 C 0.1459(3) 0.9501(3) 0.3559(4)
C27_4 C 0.1338(4) 0.9298(4) 0.6765(5)
C28_4 C 0.1527(4) 0.8850(4) 0.2127(6)
H21_4 H 0.1713 0.9733 0.3235
H22_4 H 0.1640 0.9456 0.6376
H23_4 H 0.1349 0.9471 0.7416
C33_4 C 0.1435(4) 0.8700(4) 0.6878(5)
C34_4 C 0.2145(4) 0.8948(5) 0.2118(8)
C35_4 C 0.1254(8) 0.9206(7) 0.1338(8)
C36_4 C 0.1420(5) 0.8255(4) 0.1875(9)
H27_4 H 0.1828 0.8637 0.7014
N4_4 N 0.1108(3) 0.8456(3) 0.7661(4)
H28_4 H 0.1346 0.8514 0.6257
H29_4 H 0.2298 0.8817 0.1502
H30_4 H 0.2314 0.8749 0.2659
H31_4 H 0.2219 0.9340 0.2188
H32_4 H 0.0858 0.9145 0.1345
H33_4 H 0.1401 0.9106 0.0698
H34_4 H 0.1331 0.9593 0.1467
H35_4 H 0.1627 0.8018 0.2318
H36_4 H 0.1536 0.8185 0.1204
H37_4 H 0.1028 0.8177 0.1939
C46_4 C 0.1055(5) 0.8642(4) 0.8586(6)
C50_4 C 0.0749(5) 0.8273(4) 0.9099(6)
H51_4 H 0.1206 0.8972 0.8835
C51_4 C 0.0615(4) 0.7871(3) 0.8424(5)
H55_4 H 0.0650 0.8289 0.9766
H56_4 H 0.0399 0.7557 0.8564
C17_4 C 0.8734(3) 0.0347(3) 0.4480(4)
C20_4 C 0.9112(2) 0.0672(3) 0.4970(4)
C21_4 C 0.8541(3) 0.0499(3) 0.3559(4)
C24_4 C 0.9319(2) 0.1127(3) 0.4486(4)
S5_4 S 0.93122(7) 0.05261(7) 0.61831(12)
H20_4 H 0.8287 0.0267 0.3235
C25_4 C 0.8710(3) 0.0981(3) 0.3102(5)
S7_4 S 0.97750(6) 0.16107(6) 0.50231(12)
C29_4 C 0.9125(3) 0.1282(3) 0.3570(4)
C30_4 C 0.8662(4) 0.0702(4) 0.6765(5)
C31_4 C 0.8473(4) 0.1150(4) 0.2127(6)
H24_4 H 0.9275 0.1596 0.3259
C38_4 C 0.8565(4) 0.1300(4) 0.6878(5)
H25_4 H 0.8360 0.0544 0.6376
H26_4 H 0.8651 0.0529 0.7416
C39_4 C 0.7855(4) 0.1052(5) 0.2118(8)
C40_4 C 0.8746(8) 0.0794(7) 0.1338(8)
C41_4 C 0.8580(5) 0.1745(4) 0.1875(9)
N5_4 N 0.8892(3) 0.1544(3) 0.7661(4)
H38_4 H 0.8654 0.1486 0.6257
H39_4 H 0.8172 0.1363 0.7014
H40_4 H 0.7686 0.1251 0.2659
H41_4 H 0.7781 0.0660 0.2188
H42_4 H 0.7702 0.1183 0.1502
H43_4 H 0.8599 0.0894 0.0698
H44_4 H 0.8669 0.0407 0.1467
H45_4 H 0.9142 0.0855 0.1345
H46_4 H 0.8972 0.1823 0.1939
H47_4 H 0.8464 0.1815 0.1204
H48_4 H 0.8373 0.1982 0.2318
C47_4 C 0.8945(5) 0.1358(4) 0.8586(6)
C52_4 C 0.9385(4) 0.2129(3) 0.8424(5)
H52_4 H 0.8794 0.1028 0.8835
C53_4 C 0.9251(5) 0.1727(4) 0.9099(6)
H57_4 H 0.9601 0.2443 0.8564
H58_4 H 0.9350 0.1711 0.9766
As1 As 0.7500 0.47222(4) 0.3750
F1 F 0.7591(3) 0.5152(7) 0.4622(11)
F2 F 0.6807(2) 0.4727(2) 0.3947(4)
F3 F 0.7584(4) 0.4239(7) 0.4560(12)
F4 F 0.7409(3) 0.5152(7) 0.2878(11)
F5 F 0.8193(2) 0.4727(2) 0.3553(4)
F6 F 0.7416(4) 0.4239(7) 0.2940(12)
As1_2 As 0.47222(4) 0.2500 0.6250
F1_2 F 0.5152(7) 0.2409(3) 0.5378(11)
F2_2 F 0.4727(2) 0.3193(2) 0.6053(4)
F3_2 F 0.4239(7) 0.2416(4) 0.5440(12)
F4_2 F 0.5152(7) 0.2591(3) 0.7122(11)
F5_2 F 0.4727(2) 0.1807(2) 0.6447(4)
F6_2 F 0.4239(7) 0.2584(4) 0.7060(12)
As1_3 As 0.2500 0.52778(4) 0.3750
F1_3 F 0.2409(3) 0.4848(7) 0.4622(11)
F2_3 F 0.3193(2) 0.5273(2) 0.3947(4)
F3_3 F 0.2416(4) 0.5761(7) 0.4560(12)
F4_3 F 0.2591(3) 0.4848(7) 0.2878(11)
F5_3 F 0.1807(2) 0.5273(2) 0.3553(4)
F6_3 F 0.2584(4) 0.5761(7) 0.2940(12)
As1_4 As 0.52778(4) 0.7500 0.6250
F1_4 F 0.4848(7) 0.7591(3) 0.5378(11)
F2_4 F 0.5273(2) 0.6807(2) 0.6053(4)
F3_4 F 0.5761(7) 0.7584(4) 0.5440(12)
F4_4 F 0.4848(7) 0.7409(3) 0.7122(11)
F5_4 F 0.5273(2) 0.8193(2) 0.6447(4)
F6_4 F 0.5761(7) 0.7416(4) 0.7060(12)
As1_5 As 0.7500 0.02778(4) 0.8750
F2_5 F 0.6807(2) 0.0273(2) 0.8553(4)
F3_5 F 0.7584(4) 0.0761(7) 0.7940(12)
F5_5 F 0.8193(2) 0.0273(2) 0.8947(4)
F6_5 F 0.7416(4) 0.0761(7) 0.9560(12)
F1_5 F 0.7591(3) 0.9848(7) 0.7878(11)
F4_5 F 0.7409(3) 0.9848(7) 0.9622(11)
As1_6 As 0.02778(4) 0.2500 0.1250
F2_6 F 0.0273(2) 0.3193(2) 0.1447(4)
F3_6 F 0.0761(7) 0.2416(4) 0.2060(12)
F5_6 F 0.0273(2) 0.1807(2) 0.1053(4)
F6_6 F 0.0761(7) 0.2584(4) 0.0440(12)
F1_6 F 0.9848(7) 0.2409(3) 0.2122(11)
F4_6 F 0.9848(7) 0.2591(3) 0.0378(11)
F1_7 F 0.2409(3) 0.0152(7) 0.7878(11)
F4_7 F 0.2591(3) 0.0152(7) 0.9622(11)
As1_7 As 0.2500 0.97222(4) 0.8750
F2_7 F 0.3193(2) 0.9727(2) 0.8553(4)
F3_7 F 0.2416(4) 0.9239(7) 0.7940(12)
F5_7 F 0.1807(2) 0.9727(2) 0.8947(4)
F6_7 F 0.2584(4) 0.9239(7) 0.9560(12)
F1_8 F 0.0152(7) 0.7591(3) 0.2122(11)
F4_8 F 0.0152(7) 0.7409(3) 0.0378(11)
As1_8 As 0.97222(4) 0.7500 0.1250
F2_8 F 0.9727(2) 0.6807(2) 0.1447(4)
F3_8 F 0.9239(7) 0.7584(4) 0.2060(12)
F5_8 F 0.9727(2) 0.8193(2) 0.1053(4)
F6_8 F 0.9239(7) 0.7416(4) 0.0440(12)
loop_
_geom_bond_atom_site_label_1
_geom_bond_atom_site_label_2
_geom_bond_site_symmetry_1
_geom_bond_site_symmetry_2
Ag1 N1 1_555 1_555
N2 C2 1_555 1_555
C1 C4 1_555 1_555
C2 C5 1_555 1_555
C3 N2 1_555 1_555
C4 C3 1_555 1_555
H1 C1 1_555 1_555
C5 S1 1_555 1_555
H2 C2 1_555 1_555
H3 C2 1_555 1_555
H4 C3 1_555 1_555
H5 C4 1_555 1_555
S1 C6 1_555 1_555
H6 C5 1_555 1_555
H7 C5 1_555 1_555
C6 C7 1_555 1_555
C7 S2 1_555 1_555
C8 C6 1_555 1_555
S2 C16 1_555 1_555
C9 C7 1_555 1_555
C10 C8 1_555 1_555
C11 C9 1_555 1_555
H8 C9 1_555 1_555
H9 C10 1_555 1_555
N3 Ag1 1_555 1_555
S3 C8 1_555 1_555
C16 C18 1_555 1_555
C18 C22 1_555 1_555
C19 C16 1_555 1_555
S4 C18 1_555 1_555
C23 C19 1_555 1_555
H19 C19 1_555 1_555
C26 C22 1_555 1_555
C27 S4 1_555 1_555
C28 C23 1_555 1_555
H21 C26 1_555 1_555
H22 C27 1_555 1_555
H23 C27 1_555 1_555
C33 C27 1_555 1_555
C34 C28 1_555 1_555
C35 C28 1_555 1_555
C36 C28 1_555 1_555
H27 C33 1_555 1_555
H28 C33 1_555 1_555
H29 C34 1_555 1_555
H30 C34 1_555 1_555
H31 C34 1_555 1_555
H32 C35 1_555 1_555
H33 C35 1_555 1_555
H34 C35 1_555 1_555
H35 C36 1_555 1_555
H36 C36 1_555 1_555
H37 C36 1_555 1_555
N2 N3 1_555 1_555
C1 N3 1_555 1_555
C10 C11 1_555 1_555
C23 C26 1_555 1_555
C20 C17 1_555 1_555
C21 C17 1_555 1_555
C24 C20 1_555 1_555
S5 C20 1_555 1_555
H20 C21 1_555 1_555
C25 C21 1_555 1_555
S6 C32 1_555 1_555
S7 C24 1_555 1_555
C29 C24 1_555 1_555
C30 S5 1_555 1_555
C31 C25 1_555 1_555
C32 C42 1_555 1_555
C37 S7 1_555 1_555
H24 C29 1_555 1_555
C38 C30 1_555 1_555
H25 C30 1_555 1_555
H26 C30 1_555 1_555
C39 C31 1_555 1_555
C40 C31 1_555 1_555
C41 C31 1_555 1_555
C42 H49 1_555 1_555
C43 C32 1_555 1_555
C44 C37 1_555 1_555
H38 C38 1_555 1_555
H39 C38 1_555 1_555
H40 C39 1_555 1_555
H41 C39 1_555 1_555
H42 C39 1_555 1_555
H43 C40 1_555 1_555
H44 C40 1_555 1_555
H45 C40 1_555 1_555
H46 C41 1_555 1_555
H47 C41 1_555 1_555
H48 C41 1_555 1_555
C45 C42 1_555 1_555
S8 C43 1_555 1_555
H50 C44 1_555 1_555
C49 S8 1_555 1_555
C57 C49 1_555 1_555
H53 C49 1_555 1_555
H54 C49 1_555 1_555
H68 C57 1_555 1_555
N8 C57 1_555 1_555
H69 C57 1_555 1_555
N9 N8 1_555 1_555
C58 N8 1_555 1_555
C59 N9 1_555 1_555
Ag4 N9 1_555 1_555
C60 C58 1_555 1_555
H70 C58 1_555 1_555
H71 C59 1_555 1_555
N10 Ag4 1_555 1_555
H72 C60 1_555 1_555
C25 C29 1_555 1_555
C37 C43 1_555 1_555
C44 C45 1_555 1_555
C59 C60 1_555 1_555
C13 C12 1_555 1_555
C14 C12 1_555 1_555
C15 C12 1_555 1_555
H10 C13 1_555 1_555
H11 C13 1_555 1_555
H12 C13 1_555 1_555
H13 C14 1_555 1_555
H14 C14 1_555 1_555
H15 C14 1_555 1_555
H16 C15 1_555 1_555
H18 C15 1_555 1_555
C46 N4 1_555 1_555
N6 N4 1_555 1_555
C50 C46 1_555 1_555
H51 C46 1_555 1_555
C51 N6 1_555 1_555
H55 C50 1_555 1_555
H56 C51 1_555 1_555
C50 C51 1_555 1_555
N7 N5 1_555 1_555
C47 N5 1_555 1_555
C52 N7 1_555 1_555
H52 C47 1_555 1_555
C53 C47 1_555 1_555
C54 C48 1_555 1_555
C55 C48 1_555 1_555
C56 C48 1_555 1_555
H57 C52 1_555 1_555
H58 C53 1_555 1_555
H59 C54 1_555 1_555
H60 C54 1_555 1_555
H61 C54 1_555 1_555
H62 C55 1_555 1_555
H63 C55 1_555 1_555
H64 C55 1_555 1_555
H65 C56 1_555 1_555
H67 C56 1_555 1_555
C52 C53 1_555 1_555
C6_2 C7_2 1_555 1_555
C7_2 S2_2 1_555 1_555
C8_2 C6_2 1_555 1_555
C9_2 C7_2 1_555 1_555
C10_2 C8_2 1_555 1_555
C11_2 C9_2 1_555 1_555
H8_2 C9_2 1_555 1_555
H9_2 C10_2 1_555 1_555
C12_2 C11_2 1_555 1_555
C13_2 C12_2 1_555 1_555
C14_2 C12_2 1_555 1_555
C15_2 C12_2 1_555 1_555
H10_2 C13_2 1_555 1_555
H11_2 C13_2 1_555 1_555
H12_2 C13_2 1_555 1_555
H13_2 C14_2 1_555 1_555
H14_2 C14_2 1_555 1_555
H15_2 C14_2 1_555 1_555
H16_2 C15_2 1_555 1_555
H17_2 C15_2 1_555 1_555
H18_2 C15_2 1_555 1_555
C27_2 S4_2 1_555 1_555
C30_2 S5_2 1_555 1_555
C32_2 C42_2 1_555 1_555
H22_2 C27_2 1_555 1_555
H23_2 C27_2 1_555 1_555
C33_2 C27_2 1_555 1_555
C37_2 S7_2 1_555 1_555
C38_2 C30_2 1_555 1_555
H25_2 C30_2 1_555 1_555
H26_2 C30_2 1_555 1_555
C42_2 H49_2 1_555 1_555
C43_2 C32_2 1_555 1_555
H27_2 C33_2 1_555 1_555
N4_2 C33_2 1_555 1_555
H28_2 C33_2 1_555 1_555
C44_2 C37_2 1_555 1_555
N5_2 C38_2 1_555 1_555
H38_2 C38_2 1_555 1_555
H39_2 C38_2 1_555 1_555
C45_2 C42_2 1_555 1_555
C46_2 N4_2 1_555 1_555
N6_2 N4_2 1_555 1_555
H50_2 C44_2 1_555 1_555
N7_2 N5_2 1_555 1_555
C47_2 N5_2 1_555 1_555
C48_2 C45_2 1_555 1_555
C50_2 C46_2 1_555 1_555
H51_2 C46_2 1_555 1_555
C51_2 N6_2 1_555 1_555
Ag2 N6_2 1_555 1_555
C52_2 N7_2 1_555 1_555
Ag3 N7_2 1_555 1_555
H52_2 C47_2 1_555 1_555
C53_2 C47_2 1_555 1_555
C54_2 C48_2 1_555 1_555
C55_2 C48_2 1_555 1_555
C56_2 C48_2 1_555 1_555
H55_2 C50_2 1_555 1_555
H56_2 C51_2 1_555 1_555
H57_2 C52_2 1_555 1_555
H58_2 C53_2 1_555 1_555
H59_2 C54_2 1_555 1_555
H60_2 C54_2 1_555 1_555
H61_2 C54_2 1_555 1_555
H62_2 C55_2 1_555 1_555
H63_2 C55_2 1_555 1_555
H64_2 C55_2 1_555 1_555
H65_2 C56_2 1_555 1_555
H66_2 C56_2 1_555 1_555
H67_2 C56_2 1_555 1_555
C10_2 C11_2 1_555 1_555
C37_2 C43_2 1_555 1_555
C44_2 C45_2 1_555 1_555
C50_2 C51_2 1_555 1_555
C52_2 C53_2 1_555 1_555
S6_2 C32_3 1_555 1_555
C32_3 C42_3 1_555 1_555
C42_3 H49_3 1_555 1_555
C43_3 C32_3 1_555 1_555
C44_3 C37_3 1_555 1_555
C45_3 C42_3 1_555 1_555
S8_2 C43_3 1_555 1_555
H50_3 C44_3 1_555 1_555
C48_3 C45_3 1_555 1_555
C49_2 S8_2 1_555 1_555
C54_3 C48_3 1_555 1_555
C55_3 C48_3 1_555 1_555
C56_3 C48_3 1_555 1_555
C57_2 C49_2 1_555 1_555
H53_2 C49_2 1_555 1_555
H54_2 C49_2 1_555 1_555
H59_3 C54_3 1_555 1_555
H60_3 C54_3 1_555 1_555
H61_3 C54_3 1_555 1_555
H62_3 C55_3 1_555 1_555
H63_3 C55_3 1_555 1_555
H64_3 C55_3 1_555 1_555
H65_3 C56_3 1_555 1_555
H66_3 C56_3 1_555 1_555
H67_3 C56_3 1_555 1_555
H68_2 C57_2 1_555 1_555
N8_2 C57_2 1_555 1_555
H69_2 C57_2 1_555 1_555
N1 N8_2 1_555 1_555
C58_2 N8_2 1_555 1_555
C59_2 N1 1_555 1_555
C60_2 C58_2 1_555 1_555
H70_2 C58_2 1_555 1_555
H71_2 C59_2 1_555 1_555
H72_2 C60_2 1_555 1_555
C37_3 C43_3 1_555 1_555
C44_3 C45_3 1_555 1_555
C59_2 C60_2 1_555 1_555
N2_2 C2_2 1_555 1_555
C1_2 C4_2 1_555 1_555
C2_2 C5_2 1_555 1_555
C3_2 N2_2 1_555 1_555
C4_2 C3_2 1_555 1_555
H1_2 C1_2 1_555 1_555
C5_2 S1_2 1_555 1_555
H2_2 C2_2 1_555 1_555
H3_2 C2_2 1_555 1_555
H4_2 C3_2 1_555 1_555
H5_2 C4_2 1_555 1_555
S1_2 C6_3 1_555 1_555
H6_2 C5_2 1_555 1_555
H7_2 C5_2 1_555 1_555
C6_3 C7_3 1_555 1_555
C8_3 C6_3 1_555 1_555
C9_3 C7_3 1_555 1_555
C10_3 C8_3 1_555 1_555
C11_3 C9_3 1_555 1_555
H8_3 C9_3 1_555 1_555
H9_3 C10_3 1_555 1_555
C12_3 C11_3 1_555 1_555
C13_3 C12_3 1_555 1_555
C14_3 C12_3 1_555 1_555
C15_3 C12_3 1_555 1_555
H10_3 C13_3 1_555 1_555
H11_3 C13_3 1_555 1_555
H12_3 C13_3 1_555 1_555
H13_3 C14_3 1_555 1_555
H14_3 C14_3 1_555 1_555
H15_3 C14_3 1_555 1_555
H16_3 C15_3 1_555 1_555
H17_3 C15_3 1_555 1_555
H18_3 C15_3 1_555 1_555
S3_2 C8_3 1_555 1_555
N2_2 N10 1_555 1_555
C1_2 N10 1_555 1_555
C10_3 C11_3 1_555 1_555
C13_4 C12_4 1_555 1_555
C14_4 C12_4 1_555 1_555
C15_4 C12_4 1_555 1_555
H10_4 C13_4 1_555 1_555
H11_4 C13_4 1_555 1_555
H12_4 C13_4 1_555 1_555
H13_4 C14_4 1_555 1_555
H14_4 C14_4 1_555 1_555
H15_4 C14_4 1_555 1_555
H16_4 C15_4 1_555 1_555
H18_4 C15_4 1_555 1_555
C46_3 N4_3 1_555 1_555
N6_3 N4_3 1_555 1_555
C50_3 C46_3 1_555 1_555
H51_3 C46_3 1_555 1_555
C51_3 N6_3 1_555 1_555
H55_3 C50_3 1_555 1_555
H56_3 C51_3 1_555 1_555
C50_3 C51_3 1_555 1_555
N7_3 N5_3 1_555 1_555
C47_3 N5_3 1_555 1_555
C52_3 N7_3 1_555 1_555
H52_3 C47_3 1_555 1_555
C53_3 C47_3 1_555 1_555
C54_4 C48_4 1_555 1_555
C55_4 C48_4 1_555 1_555
C56_4 C48_4 1_555 1_555
H57_3 C52_3 1_555 1_555
H58_3 C53_3 1_555 1_555
H59_4 C54_4 1_555 1_555
H60_4 C54_4 1_555 1_555
H61_4 C54_4 1_555 1_555
H62_4 C55_4 1_555 1_555
H63_4 C55_4 1_555 1_555
H64_4 C55_4 1_555 1_555
H65_4 C56_4 1_555 1_555
H67_4 C56_4 1_555 1_555
C52_3 C53_3 1_555 1_555
Ag1_2 N1_2 1_555 1_555
N2_3 C2_3 1_555 1_555
C1_3 C4_3 1_555 1_555
C2_3 C5_3 1_555 1_555
C3_3 N2_3 1_555 1_555
C4_3 C3_3 1_555 1_555
H1_3 C1_3 1_555 1_555
C5_3 S1_3 1_555 1_555
H2_3 C2_3 1_555 1_555
H3_3 C2_3 1_555 1_555
H4_3 C3_3 1_555 1_555
H5_3 C4_3 1_555 1_555
S1_3 C6_4 1_555 1_555
H6_3 C5_3 1_555 1_555
H7_3 C5_3 1_555 1_555
C6_4 C7_4 1_555 1_555
C7_4 S2_3 1_555 1_555
C8_4 C6_4 1_555 1_555
S2_3 C16_2 1_555 1_555
C9_4 C7_4 1_555 1_555
C10_4 C8_4 1_555 1_555
C11_4 C9_4 1_555 1_555
H8_4 C9_4 1_555 1_555
H9_4 C10_4 1_555 1_555
N3_2 Ag1_2 1_555 1_555
S3_3 C8_4 1_555 1_555
C16_2 C18_2 1_555 1_555
C18_2 C22_2 1_555 1_555
C19_2 C16_2 1_555 1_555
S4_3 C18_2 1_555 1_555
C23_2 C19_2 1_555 1_555
H19_2 C19_2 1_555 1_555
C26_2 C22_2 1_555 1_555
C27_3 S4_3 1_555 1_555
C28_2 C23_2 1_555 1_555
H21_2 C26_2 1_555 1_555
H22_3 C27_3 1_555 1_555
H23_3 C27_3 1_555 1_555
C33_3 C27_3 1_555 1_555
C34_2 C28_2 1_555 1_555
C35_2 C28_2 1_555 1_555
C36_2 C28_2 1_555 1_555
H27_3 C33_3 1_555 1_555
H28_3 C33_3 1_555 1_555
H29_2 C34_2 1_555 1_555
H30_2 C34_2 1_555 1_555
H31_2 C34_2 1_555 1_555
H32_2 C35_2 1_555 1_555
H33_2 C35_2 1_555 1_555
H34_2 C35_2 1_555 1_555
H35_2 C36_2 1_555 1_555
H36_2 C36_2 1_555 1_555
H37_2 C36_2 1_555 1_555
N2_3 N3_2 1_555 1_555
C1_3 N3_2 1_555 1_555
C10_4 C11_4 1_555 1_555
C23_2 C26_2 1_555 1_555
C20_2 C17_2 1_555 1_555
C21_2 C17_2 1_555 1_555
C24_2 C20_2 1_555 1_555
S5_3 C20_2 1_555 1_555
H20_2 C21_2 1_555 1_555
C25_2 C21_2 1_555 1_555
S6_3 C32_4 1_555 1_555
S7_3 C24_2 1_555 1_555
C29_2 C24_2 1_555 1_555
C30_3 S5_3 1_555 1_555
C31_2 C25_2 1_555 1_555
C32_4 C42_4 1_555 1_555
C37_4 S7_3 1_555 1_555
H24_2 C29_2 1_555 1_555
C38_3 C30_3 1_555 1_555
H25_3 C30_3 1_555 1_555
H26_3 C30_3 1_555 1_555
C39_2 C31_2 1_555 1_555
C40_2 C31_2 1_555 1_555
C41_2 C31_2 1_555 1_555
C42_4 H49_4 1_555 1_555
C43_4 C32_4 1_555 1_555
C44_4 C37_4 1_555 1_555
H38_3 C38_3 1_555 1_555
H39_3 C38_3 1_555 1_555
H40_2 C39_2 1_555 1_555
H41_2 C39_2 1_555 1_555
H42_2 C39_2 1_555 1_555
H43_2 C40_2 1_555 1_555
H44_2 C40_2 1_555 1_555
H45_2 C40_2 1_555 1_555
H46_2 C41_2 1_555 1_555
H47_2 C41_2 1_555 1_555
H48_2 C41_2 1_555 1_555
C45_4 C42_4 1_555 1_555
S8_3 C43_4 1_555 1_555
H50_4 C44_4 1_555 1_555
C49_3 S8_3 1_555 1_555
C57_3 C49_3 1_555 1_555
H53_3 C49_3 1_555 1_555
H54_3 C49_3 1_555 1_555
H68_3 C57_3 1_555 1_555
N8_3 C57_3 1_555 1_555
H69_3 C57_3 1_555 1_555
N9_2 N8_3 1_555 1_555
C58_3 N8_3 1_555 1_555
C59_3 N9_2 1_555 1_555
Ag4_2 N9_2 1_555 1_555
C60_3 C58_3 1_555 1_555
H70_3 C58_3 1_555 1_555
H71_3 C59_3 1_555 1_555
N10_2 Ag4_2 1_555 1_555
H72_3 C60_3 1_555 1_555
C25_2 C29_2 1_555 1_555
C37_4 C43_4 1_555 1_555
C44_4 C45_4 1_555 1_555
C59_3 C60_3 1_555 1_555
N2_4 C2_4 1_555 1_555
C1_4 C4_4 1_555 1_555
C2_4 C5_4 1_555 1_555
C3_4 N2_4 1_555 1_555
C4_4 C3_4 1_555 1_555
H1_4 C1_4 1_555 1_555
C5_4 S1_4 1_555 1_555
H2_4 C2_4 1_555 1_555
H3_4 C2_4 1_555 1_555
H4_4 C3_4 1_555 1_555
H5_4 C4_4 1_555 1_555
H6_4 C5_4 1_555 1_555
H7_4 C5_4 1_555 1_555
N3_3 Ag2_2 1_555 1_555
C16_3 C18_3 1_555 1_555
C17_3 S3_4 1_555 1_555
C18_3 C22_3 1_555 1_555
C19_3 C16_3 1_555 1_555
C20_3 C17_3 1_555 1_555
C21_3 C17_3 1_555 1_555
C22_3 S6_4 1_555 1_555
C23_3 C19_3 1_555 1_555
H19_3 C19_3 1_555 1_555
C24_3 C20_3 1_555 1_555
H20_3 C21_3 1_555 1_555
C25_3 C21_3 1_555 1_555
C26_3 C22_3 1_555 1_555
C28_3 C23_3 1_555 1_555
C29_3 C24_3 1_555 1_555
C31_3 C25_3 1_555 1_555
H21_3 C26_3 1_555 1_555
C34_3 C28_3 1_555 1_555
C35_3 C28_3 1_555 1_555
C36_3 C28_3 1_555 1_555
H24_3 C29_3 1_555 1_555
C39_3 C31_3 1_555 1_555
C40_3 C31_3 1_555 1_555
C41_3 C31_3 1_555 1_555
H29_3 C34_3 1_555 1_555
H30_3 C34_3 1_555 1_555
H31_3 C34_3 1_555 1_555
H32_3 C35_3 1_555 1_555
H33_3 C35_3 1_555 1_555
H34_3 C35_3 1_555 1_555
H35_3 C36_3 1_555 1_555
H36_3 C36_3 1_555 1_555
H37_3 C36_3 1_555 1_555
H40_3 C39_3 1_555 1_555
H41_3 C39_3 1_555 1_555
H42_3 C39_3 1_555 1_555
H43_3 C40_3 1_555 1_555
H44_3 C40_3 1_555 1_555
H45_3 C40_3 1_555 1_555
H46_3 C41_3 1_555 1_555
H47_3 C41_3 1_555 1_555
H48_3 C41_3 1_555 1_555
C49_4 S8_4 1_555 1_555
C57_4 C49_4 1_555 1_555
H53_4 C49_4 1_555 1_555
H54_4 C49_4 1_555 1_555
H68_4 C57_4 1_555 1_555
N8_4 C57_4 1_555 1_555
H69_4 C57_4 1_555 1_555
N9_3 N8_4 1_555 1_555
C58_4 N8_4 1_555 1_555
C59_4 N9_3 1_555 1_555
Ag3_2 N9_3 1_555 1_555
C60_4 C58_4 1_555 1_555
H70_4 C58_4 1_555 1_555
H71_4 C59_4 1_555 1_555
H72_4 C60_4 1_555 1_555
N2_4 N3_3 1_555 1_555
C1_4 N3_3 1_555 1_555
C23_3 C26_3 1_555 1_555
C25_3 C29_3 1_555 1_555
C59_4 C60_4 1_555 1_555
S2_4 C16_4 1_555 1_555
C16_4 C18_4 1_555 1_555
C18_4 C22_4 1_555 1_555
C19_4 C16_4 1_555 1_555
S4_4 C18_4 1_555 1_555
C23_4 C19_4 1_555 1_555
H19_4 C19_4 1_555 1_555
C26_4 C22_4 1_555 1_555
C27_4 S4_4 1_555 1_555
C28_4 C23_4 1_555 1_555
H21_4 C26_4 1_555 1_555
H22_4 C27_4 1_555 1_555
H23_4 C27_4 1_555 1_555
C33_4 C27_4 1_555 1_555
C34_4 C28_4 1_555 1_555
C35_4 C28_4 1_555 1_555
C36_4 C28_4 1_555 1_555
H27_4 C33_4 1_555 1_555
N4_4 C33_4 1_555 1_555
H28_4 C33_4 1_555 1_555
H29_4 C34_4 1_555 1_555
H30_4 C34_4 1_555 1_555
H31_4 C34_4 1_555 1_555
H32_4 C35_4 1_555 1_555
H33_4 C35_4 1_555 1_555
H34_4 C35_4 1_555 1_555
H35_4 C36_4 1_555 1_555
H36_4 C36_4 1_555 1_555
H37_4 C36_4 1_555 1_555
C46_4 N4_4 1_555 1_555
N1_2 N4_4 1_555 1_555
C50_4 C46_4 1_555 1_555
H51_4 C46_4 1_555 1_555
C51_4 N1_2 1_555 1_555
H55_4 C50_4 1_555 1_555
H56_4 C51_4 1_555 1_555
C23_4 C26_4 1_555 1_555
C50_4 C51_4 1_555 1_555
C20_4 C17_4 1_555 1_555
C21_4 C17_4 1_555 1_555
C24_4 C20_4 1_555 1_555
S5_4 C20_4 1_555 1_555
H20_4 C21_4 1_555 1_555
C25_4 C21_4 1_555 1_555
S7_4 C24_4 1_555 1_555
C29_4 C24_4 1_555 1_555
C30_4 S5_4 1_555 1_555
C31_4 C25_4 1_555 1_555
H24_4 C29_4 1_555 1_555
C38_4 C30_4 1_555 1_555
H25_4 C30_4 1_555 1_555
H26_4 C30_4 1_555 1_555
C39_4 C31_4 1_555 1_555
C40_4 C31_4 1_555 1_555
C41_4 C31_4 1_555 1_555
N5_4 C38_4 1_555 1_555
H38_4 C38_4 1_555 1_555
H39_4 C38_4 1_555 1_555
H40_4 C39_4 1_555 1_555
H41_4 C39_4 1_555 1_555
H42_4 C39_4 1_555 1_555
H43_4 C40_4 1_555 1_555
H44_4 C40_4 1_555 1_555
H45_4 C40_4 1_555 1_555
H46_4 C41_4 1_555 1_555
H47_4 C41_4 1_555 1_555
H48_4 C41_4 1_555 1_555
N10_2 N5_4 1_555 1_555
C47_4 N5_4 1_555 1_555
C52_4 N10_2 1_555 1_555
H52_4 C47_4 1_555 1_555
C53_4 C47_4 1_555 1_555
H57_4 C52_4 1_555 1_555
H58_4 C53_4 1_555 1_555
C25_4 C29_4 1_555 1_555
C52_4 C53_4 1_555 1_555
As1 F1 1_555 1_555
F2 As1 1_555 1_555
F3 As1 1_555 1_555
F4 As1 1_555 1_555
F5 As1 1_555 1_555
F6 As1 1_555 1_555
As1_2 F1_2 1_555 1_555
F2_2 As1_2 1_555 1_555
F3_2 As1_2 1_555 1_555
F4_2 As1_2 1_555 1_555
F5_2 As1_2 1_555 1_555
F6_2 As1_2 1_555 1_555
As1_3 F1_3 1_555 1_555
F2_3 As1_3 1_555 1_555
F3_3 As1_3 1_555 1_555
F4_3 As1_3 1_555 1_555
F5_3 As1_3 1_555 1_555
F6_3 As1_3 1_555 1_555
As1_4 F1_4 1_555 1_555
F2_4 As1_4 1_555 1_555
F3_4 As1_4 1_555 1_555
F4_4 As1_4 1_555 1_555
F5_4 As1_4 1_555 1_555
F6_4 As1_4 1_555 1_555
F2_5 As1_5 1_555 1_555
F3_5 As1_5 1_555 1_555
F5_5 As1_5 1_555 1_555
F6_5 As1_5 1_555 1_555
F2_6 As1_6 1_555 1_555
F3_6 As1_6 1_555 1_555
F5_6 As1_6 1_555 1_555
F6_6 As1_6 1_555 1_555
F2_7 As1_7 1_555 1_555
F3_7 As1_7 1_555 1_555
F5_7 As1_7 1_555 1_555
F6_7 As1_7 1_555 1_555
F2_8 As1_8 1_555 1_555
F3_8 As1_8 1_555 1_555
F5_8 As1_8 1_555 1_555
F6_8 As1_8 1_555 1_555

#END
