
###############################################################################
#
# This file contains modified crystal structure data generated from the
# MOF subset of the Cambridge Structural Database (CSD) v543 
# hosted by the Cambridge Crystallographic Data Centre (CCDC).
#
# This work is licensed under the Creative Commons
# Attribution-NonCommercial-ShareAlike 4.0 International License.
# To view a copy of this license, visit
# http://creativecommons.org/licenses/by-nc-sa/4.0/
# or send a letter to
# Creative Commons, PO Box 1866, Mountain View, CA 94042, USA.
#
# CIF created using the CSD Python API on 29 September 2022
# The structure has been converted into the P1 space group
# The structure has a 3D framework
# The original CSD entry FAGMAE is in the tetragonal crystal system
# The framework has been calculated to contain at least 10.0% void space
# The void calculation uses a probe of radius 1.32A, grid spacing 0.4
# The framework is charged, counterions have been retained in the structure
#
###############################################################################

data_FAGMAE
_chemical_formula_moiety         '(C240 H288 Ag2 F48 N32 S32 Sb8 6-)n'
_symmetry_cell_setting           triclinic
_symmetry_space_group_name_H-M   'P 1'
_symmetry_Int_Tables_number      1
_space_group_name_Hall           'P 1'
loop_
_symmetry_equiv_pos_site_id
_symmetry_equiv_pos_as_xyz
1 x,y,z
_cell_length_a                   24.958(3)
_cell_length_b                   24.958(3)
_cell_length_c                   13.8496(19)
_cell_angle_alpha                90
_cell_angle_beta                 90
_cell_angle_gamma                90
_cell_volume                     8626.94
loop_
_atom_site_label
_atom_site_type_symbol
_atom_site_fract_x
_atom_site_fract_y
_atom_site_fract_z
Ag1 Ag 0.48877(9) 0.2500 0.6250
S1 S 0.34270(12) 0.46965(12) 0.4927(3)
C1 C 0.3937(3) 0.4276(3) 0.4472(6)
C2 C 0.4376(3) 0.4082(3) 0.4980(5)
C3 C 0.4728(3) 0.3725(3) 0.4540(6)
C4 C 0.4641(4) 0.3563(4) 0.3593(6)
H1 H 0.4881 0.3320 0.3293
C5 C 0.4201(4) 0.3758(5) 0.3085(6)
C6 C 0.3849(4) 0.4114(4) 0.3525(7)
H2 H 0.3549 0.4247 0.3177
S2 S 0.45034(13) 0.42611(16) 0.6230(3)
C7 C 0.3928(7) 0.3984(9) 0.6854(14)
H3 H 0.3875 0.4180 0.7468
H4 H 0.3605 0.4036 0.6452
C8 C 0.3992(9) 0.3411(8) 0.7063(12)
H5 H 0.3645 0.3271 0.7297
H6 H 0.4076 0.3224 0.6450
N1 N 0.4400(7) 0.3273(7) 0.7761(12)
N2 N 0.4777(5) 0.2901(4) 0.7620(9)
C9 C 0.5054(8) 0.2857(7) 0.8405(11)
H7 H 0.5357 0.2632 0.8492
C10 C 0.4837(13) 0.3194(10) 0.9100(17)
H8 H 0.4954 0.3244 0.9747
C11 C 0.4416(11) 0.3439(11) 0.8645(15)
H9 H 0.4176 0.3688 0.8930
C12 C 0.4130(7) 0.3635(8) 0.1982(15)
C13 C 0.4290(8) 0.4116(7) 0.1390(14)
H10 H 0.4558 0.4009 0.0911
H11 H 0.4442 0.4391 0.1815
H12 H 0.3974 0.4260 0.1060
C14 C 0.3530(6) 0.3481(9) 0.1799(15)
H13 H 0.3513 0.3183 0.1340
H14 H 0.3339 0.3791 0.1534
H15 H 0.3364 0.3374 0.2410
C15 C 0.4469(8) 0.3154(8) 0.1657(14)
H16 H 0.4418 0.2856 0.2109
H17 H 0.4848 0.3256 0.1645
H18 H 0.4357 0.3042 0.1009
S3 S 0.46965(12) 0.65730(12) 0.5073(3)
C16 C 0.4276(3) 0.6063(3) 0.5528(6)
C17 C 0.4082(3) 0.5624(3) 0.5020(5)
C18 C 0.3725(3) 0.5272(3) 0.5460(6)
C19 C 0.3563(4) 0.5359(4) 0.6407(6)
H19 H 0.3320 0.5119 0.6707
C20 C 0.3758(5) 0.5799(4) 0.6915(6)
C21 C 0.4114(4) 0.6151(4) 0.6475(7)
H20 H 0.4247 0.6451 0.6823
S4 S 0.42611(16) 0.54966(13) 0.3770(3)
C22 C 0.3984(9) 0.6072(7) 0.3146(14)
H21 H 0.4180 0.6125 0.2532
H22 H 0.4036 0.6395 0.3548
C23 C 0.3411(8) 0.6008(9) 0.2937(12)
H23 H 0.3271 0.6355 0.2703
H24 H 0.3224 0.5924 0.3550
N3 N 0.3273(7) 0.5600(7) 0.2239(12)
N4 N 0.2901(4) 0.5223(5) 0.2380(9)
C24 C 0.2857(7) 0.4946(8) 0.1595(11)
H25 H 0.2632 0.4643 0.1508
C25 C 0.3194(10) 0.5163(13) 0.0900(17)
H26 H 0.3244 0.5046 0.0253
C26 C 0.3439(11) 0.5584(11) 0.1355(15)
H27 H 0.3688 0.5824 0.1070
C27 C 0.3635(8) 0.5870(7) 0.8018(15)
C28 C 0.4116(7) 0.5710(8) 0.8610(14)
H28 H 0.4009 0.5442 0.9089
H29 H 0.4391 0.5558 0.8185
H30 H 0.4260 0.6026 0.8940
C29 C 0.3481(9) 0.6470(6) 0.8201(15)
H31 H 0.3183 0.6487 0.8660
H32 H 0.3791 0.6661 0.8466
H33 H 0.3374 0.6636 0.7590
C30 C 0.3154(8) 0.5531(8) 0.8343(14)
H34 H 0.2856 0.5582 0.7891
H35 H 0.3256 0.5152 0.8355
H36 H 0.3042 0.5643 0.8991
S5 S 0.53035(12) 0.34270(12) 0.5073(3)
C31 C 0.5724(3) 0.3937(3) 0.5528(6)
C32 C 0.5918(3) 0.4376(3) 0.5020(5)
C33 C 0.6275(3) 0.4728(3) 0.5460(6)
C34 C 0.6437(4) 0.4641(4) 0.6407(6)
H37 H 0.6680 0.4881 0.6707
C35 C 0.6242(5) 0.4201(4) 0.6915(6)
C36 C 0.5886(4) 0.3849(4) 0.6475(7)
H38 H 0.5753 0.3549 0.6823
S6 S 0.57389(16) 0.45034(13) 0.3770(3)
C37 C 0.6016(9) 0.3928(7) 0.3146(14)
H39 H 0.5820 0.3875 0.2532
H40 H 0.5964 0.3605 0.3548
C38 C 0.6589(8) 0.3992(9) 0.2937(12)
H41 H 0.6729 0.3645 0.2703
H42 H 0.6776 0.4076 0.3550
N5 N 0.6727(7) 0.4400(7) 0.2239(12)
N6 N 0.7099(4) 0.4777(5) 0.2380(9)
C39 C 0.7143(7) 0.5054(8) 0.1595(11)
H43 H 0.7368 0.5357 0.1508
C40 C 0.6806(10) 0.4837(13) 0.0900(17)
H44 H 0.6756 0.4954 0.0253
C41 C 0.6561(11) 0.4416(11) 0.1355(15)
H45 H 0.6312 0.4176 0.1070
C42 C 0.6365(8) 0.4130(7) 0.8018(15)
C43 C 0.5884(7) 0.4290(8) 0.8610(14)
H46 H 0.5991 0.4558 0.9089
H47 H 0.5609 0.4442 0.8185
H48 H 0.5740 0.3974 0.8940
C44 C 0.6519(9) 0.3530(6) 0.8201(15)
H49 H 0.6817 0.3513 0.8660
H50 H 0.6209 0.3339 0.8466
H51 H 0.6626 0.3364 0.7590
C45 C 0.6846(8) 0.4469(8) 0.8343(14)
H52 H 0.7144 0.4418 0.7891
H53 H 0.6744 0.4848 0.8355
H54 H 0.6958 0.4357 0.8991
S7 S 0.65730(12) 0.53035(12) 0.4927(3)
C46 C 0.6063(3) 0.5724(3) 0.4472(6)
C47 C 0.5624(3) 0.5918(3) 0.4980(5)
C48 C 0.5272(3) 0.6275(3) 0.4540(6)
C49 C 0.5359(4) 0.6437(4) 0.3593(6)
H55 H 0.5119 0.6680 0.3293
C50 C 0.5799(4) 0.6242(5) 0.3085(6)
C51 C 0.6151(4) 0.5886(4) 0.3525(7)
H56 H 0.6451 0.5753 0.3177
S8 S 0.54966(13) 0.57389(16) 0.6230(3)
C52 C 0.6072(7) 0.6016(9) 0.6854(14)
H57 H 0.6125 0.5820 0.7468
H58 H 0.6395 0.5964 0.6452
C53 C 0.6008(9) 0.6589(8) 0.7063(12)
H59 H 0.6355 0.6729 0.7297
H60 H 0.5924 0.6776 0.6450
N7 N 0.5600(7) 0.6727(7) 0.7761(12)
N8 N 0.5223(5) 0.7099(4) 0.7620(9)
C54 C 0.4946(8) 0.7143(7) 0.8405(11)
H61 H 0.4643 0.7368 0.8492
C55 C 0.5163(13) 0.6806(10) 0.9100(17)
H62 H 0.5046 0.6756 0.9747
C56 C 0.5584(11) 0.6561(11) 0.8645(15)
H63 H 0.5824 0.6312 0.8930
C57 C 0.5870(7) 0.6365(8) 0.1982(15)
C58 C 0.5710(8) 0.5884(7) 0.1390(14)
H64 H 0.5442 0.5991 0.0911
H65 H 0.5558 0.5609 0.1815
H66 H 0.6026 0.5740 0.1060
C59 C 0.6470(6) 0.6519(9) 0.1799(15)
H67 H 0.6487 0.6817 0.1340
H68 H 0.6661 0.6209 0.1534
H69 H 0.6636 0.6626 0.2410
C60 C 0.5531(8) 0.6846(8) 0.1657(14)
H70 H 0.5582 0.7144 0.2109
H71 H 0.5152 0.6744 0.1645
H72 H 0.5643 0.6958 0.1009
Ag2 Ag 0.51123(9) 0.7500 0.6250
Ag3 Ag 0.2500 0.51123(9) 0.3750
Ag4 Ag 0.7500 0.48877(9) 0.3750
S9 S 0.53035(12) 0.15730(12) 0.7427(3)
S10 S 0.46965(12) 0.84270(12) 0.7427(3)
N9 N 0.5223(5) 0.7901(4) 0.4880(9)
N10 N 0.4777(5) 0.2099(4) 0.4880(9)
S9_2 S 0.15730(12) 0.46965(12) 0.2573(3)
S10_2 S 0.84270(12) 0.53035(12) 0.2573(3)
N9_2 N 0.7901(4) 0.4777(5) 0.5120(9)
N10_2 N 0.2099(4) 0.5223(5) 0.5120(9)
Ag1_2 Ag 0.01123(9) 0.2500 0.1250
C1_2 C 0.1063(3) 0.4276(3) 0.3028(6)
C2_2 C 0.0624(3) 0.4082(3) 0.2520(5)
C3_2 C 0.0272(3) 0.3725(3) 0.2960(6)
C4_2 C 0.0359(4) 0.3563(4) 0.3907(6)
H1_2 H 0.0119 0.3320 0.4207
C5_2 C 0.0799(4) 0.3758(5) 0.4415(6)
C6_2 C 0.1151(4) 0.4114(4) 0.3975(7)
H2_2 H 0.1451 0.4247 0.4323
S2_2 S 0.04966(13) 0.42611(16) 0.1270(3)
C7_2 C 0.1072(7) 0.3984(9) 0.0646(14)
H3_2 H 0.1125 0.4180 0.0032
H4_2 H 0.1395 0.4036 0.1048
C8_2 C 0.1008(9) 0.3411(8) 0.0437(12)
H5_2 H 0.1355 0.3271 0.0203
H6_2 H 0.0924 0.3224 0.1050
C12_2 C 0.0870(7) 0.3635(8) 0.5518(15)
C13_2 C 0.0710(8) 0.4116(7) 0.6110(14)
H10_2 H 0.0442 0.4009 0.6589
H11_2 H 0.0558 0.4391 0.5685
H12_2 H 0.1026 0.4260 0.6440
C14_2 C 0.1470(6) 0.3481(9) 0.5701(15)
H13_2 H 0.1487 0.3183 0.6160
H14_2 H 0.1661 0.3791 0.5966
H15_2 H 0.1636 0.3374 0.5090
C15_2 C 0.0531(8) 0.3154(8) 0.5843(14)
H16_2 H 0.0582 0.2856 0.5391
H17_2 H 0.0152 0.3256 0.5855
H18_2 H 0.0643 0.3042 0.6491
S3_2 S 0.03035(12) 0.65730(12) 0.2427(3)
C16_2 C 0.0724(3) 0.6063(3) 0.1972(6)
C17_2 C 0.0918(3) 0.5624(3) 0.2480(5)
C18_2 C 0.1275(3) 0.5272(3) 0.2040(6)
C19_2 C 0.1437(4) 0.5359(4) 0.1093(6)
H19_2 H 0.1680 0.5119 0.0793
C20_2 C 0.1242(5) 0.5799(4) 0.0585(6)
C21_2 C 0.0886(4) 0.6151(4) 0.1025(7)
H20_2 H 0.0753 0.6451 0.0677
S4_2 S 0.07389(16) 0.54966(13) 0.3730(3)
C22_2 C 0.1016(9) 0.6072(7) 0.4354(14)
H21_2 H 0.0820 0.6125 0.4968
H22_2 H 0.0964 0.6395 0.3952
C23_2 C 0.1589(8) 0.6008(9) 0.4563(12)
H23_2 H 0.1729 0.6355 0.4797
H24_2 H 0.1776 0.5924 0.3950
N3_2 N 0.1727(7) 0.5600(7) 0.5261(12)
C24_2 C 0.2143(7) 0.4946(8) 0.5905(11)
H25_2 H 0.2368 0.4643 0.5992
C25_2 C 0.1806(10) 0.5163(13) 0.6600(17)
H26_2 H 0.1756 0.5046 0.7247
C26_2 C 0.1561(11) 0.5584(11) 0.6145(15)
H27_2 H 0.1312 0.5824 0.6430
S10_3 S 0.03035(12) 0.84270(12) 0.0073(3)
N10_3 N 0.0223(5) 0.2099(4) 0.2620(9)
N1_2 N 0.0600(7) 0.3273(7) 0.9739(12)
N2_2 N 0.0223(5) 0.2901(4) 0.9880(9)
C10_2 C 0.0163(13) 0.3194(10) 0.8400(17)
H8_2 H 0.0046 0.3244 0.7753
C11_2 C 0.0584(11) 0.3439(11) 0.8855(15)
H9_2 H 0.0824 0.3688 0.8570
C27_2 C 0.1365(8) 0.5870(7) 0.9482(15)
C28_2 C 0.0884(7) 0.5710(8) 0.8890(14)
H28_2 H 0.0991 0.5442 0.8411
H29_2 H 0.0609 0.5558 0.9315
H30_2 H 0.0740 0.6026 0.8560
C29_2 C 0.1519(9) 0.6470(6) 0.9299(15)
H31_2 H 0.1817 0.6487 0.8840
H32_2 H 0.1209 0.6661 0.9034
H33_2 H 0.1626 0.6636 0.9910
C30_2 C 0.1846(8) 0.5531(8) 0.9157(14)
H34_2 H 0.2144 0.5582 0.9609
H35_2 H 0.1744 0.5152 0.9145
H36_2 H 0.1958 0.5643 0.8509
C54_2 C 0.0054(8) 0.7143(7) 0.9095(11)
H61_2 H 0.0357 0.7368 0.9008
S5_2 S 0.96965(12) 0.34270(12) 0.2427(3)
C31_2 C 0.9276(3) 0.3937(3) 0.1972(6)
C32_2 C 0.9082(3) 0.4376(3) 0.2480(5)
C33_2 C 0.8725(3) 0.4728(3) 0.2040(6)
C34_2 C 0.8563(4) 0.4641(4) 0.1093(6)
H37_2 H 0.8320 0.4881 0.0793
C35_2 C 0.8758(5) 0.4201(4) 0.0585(6)
C36_2 C 0.9114(4) 0.3849(4) 0.1025(7)
H38_2 H 0.9247 0.3549 0.0677
S6_2 S 0.92611(16) 0.45034(13) 0.3730(3)
C37_2 C 0.8984(9) 0.3928(7) 0.4354(14)
H39_2 H 0.9180 0.3875 0.4968
H40_2 H 0.9036 0.3605 0.3952
C38_2 C 0.8411(8) 0.3992(9) 0.4563(12)
H41_2 H 0.8271 0.3645 0.4797
H42_2 H 0.8224 0.4076 0.3950
N5_2 N 0.8273(7) 0.4400(7) 0.5261(12)
C39_2 C 0.7857(7) 0.5054(8) 0.5905(11)
H43_2 H 0.7632 0.5357 0.5992
C40_2 C 0.8194(10) 0.4837(13) 0.6600(17)
H44_2 H 0.8244 0.4954 0.7247
C41_2 C 0.8439(11) 0.4416(11) 0.6145(15)
H45_2 H 0.8688 0.4176 0.6430
C46_2 C 0.8937(3) 0.5724(3) 0.3028(6)
C47_2 C 0.9376(3) 0.5918(3) 0.2520(5)
C48_2 C 0.9728(3) 0.6275(3) 0.2960(6)
C49_2 C 0.9641(4) 0.6437(4) 0.3907(6)
H55_2 H 0.9881 0.6680 0.4207
C50_2 C 0.9201(4) 0.6242(5) 0.4415(6)
C51_2 C 0.8849(4) 0.5886(4) 0.3975(7)
H56_2 H 0.8549 0.5753 0.4323
S8_2 S 0.95034(13) 0.57389(16) 0.1270(3)
C52_2 C 0.8928(7) 0.6016(9) 0.0646(14)
H57_2 H 0.8875 0.5820 0.0032
H58_2 H 0.8605 0.5964 0.1048
C53_2 C 0.8992(9) 0.6589(8) 0.0437(12)
H59_2 H 0.8645 0.6729 0.0203
H60_2 H 0.9076 0.6776 0.1050
C57_2 C 0.9130(7) 0.6365(8) 0.5518(15)
C58_2 C 0.9290(8) 0.5884(7) 0.6110(14)
H64_2 H 0.9558 0.5991 0.6589
H65_2 H 0.9442 0.5609 0.5685
H66_2 H 0.8974 0.5740 0.6440
C59_2 C 0.8530(6) 0.6519(9) 0.5701(15)
H67_2 H 0.8513 0.6817 0.6160
H68_2 H 0.8339 0.6209 0.5966
H69_2 H 0.8364 0.6626 0.5090
C60_2 C 0.9469(8) 0.6846(8) 0.5843(14)
H70_2 H 0.9418 0.7144 0.5391
H71_2 H 0.9848 0.6744 0.5855
H72_2 H 0.9357 0.6958 0.6491
Ag2_2 Ag 0.98877(9) 0.7500 0.1250
S9_3 S 0.96965(12) 0.15730(12) 0.0073(3)
N9_3 N 0.9777(5) 0.7901(4) 0.2620(9)
C9_2 C 0.9946(8) 0.2857(7) 0.9095(11)
H7_2 H 0.9643 0.2632 0.9008
C42_2 C 0.8635(8) 0.4130(7) 0.9482(15)
C43_2 C 0.9116(7) 0.4290(8) 0.8890(14)
H46_2 H 0.9009 0.4558 0.8411
H47_2 H 0.9391 0.4442 0.9315
H48_2 H 0.9260 0.3974 0.8560
C44_2 C 0.8481(9) 0.3530(6) 0.9299(15)
H49_2 H 0.8183 0.3513 0.8840
H50_2 H 0.8791 0.3339 0.9034
H51_2 H 0.8374 0.3364 0.9910
C45_2 C 0.8154(8) 0.4469(8) 0.9157(14)
H52_2 H 0.7856 0.4418 0.9609
H53_2 H 0.8256 0.4848 0.9145
H54_2 H 0.8042 0.4357 0.8509
N7_2 N 0.9400(7) 0.6727(7) 0.9739(12)
N8_2 N 0.9777(5) 0.7099(4) 0.9880(9)
C55_2 C 0.9837(13) 0.6806(10) 0.8400(17)
H62_2 H 0.9954 0.6756 0.7753
C56_2 C 0.9416(11) 0.6561(11) 0.8855(15)
H63_2 H 0.9176 0.6312 0.8570
S8_3 S 0.04966(13) 0.07389(16) 0.1230(3)
C52_3 C 0.1072(7) 0.1016(9) 0.1854(14)
H57_3 H 0.1125 0.0820 0.2468
H58_3 H 0.1395 0.0964 0.1452
C53_3 C 0.1008(9) 0.1589(8) 0.2063(12)
H59_3 H 0.1355 0.1729 0.2297
H60_3 H 0.0924 0.1776 0.1450
N7_3 N 0.0600(7) 0.1727(7) 0.2761(12)
C55_3 C 0.0163(13) 0.1806(10) 0.4100(17)
H62_3 H 0.0046 0.1756 0.4747
C56_3 C 0.0584(11) 0.1561(11) 0.3645(15)
H63_3 H 0.0824 0.1312 0.3930
C39_3 C 0.2143(7) 0.0054(8) 0.6595(11)
H43_3 H 0.2368 0.0357 0.6508
S7_2 S 0.15730(12) 0.03035(12) 0.9927(3)
C46_3 C 0.1063(3) 0.0724(3) 0.9472(6)
C47_3 C 0.0624(3) 0.0918(3) 0.9980(5)
C48_3 C 0.0272(3) 0.1275(3) 0.9540(6)
C49_3 C 0.0359(4) 0.1437(4) 0.8593(6)
H55_3 H 0.0119 0.1680 0.8293
C50_3 C 0.0799(4) 0.1242(5) 0.8085(6)
C51_3 C 0.1151(4) 0.0886(4) 0.8525(7)
H56_3 H 0.1451 0.0753 0.8177
C57_3 C 0.0870(7) 0.1365(8) 0.6982(15)
C58_3 C 0.0710(8) 0.0884(7) 0.6390(14)
H64_3 H 0.0442 0.0991 0.5911
H65_3 H 0.0558 0.0609 0.6815
H66_3 H 0.1026 0.0740 0.6060
C59_3 C 0.1470(6) 0.1519(9) 0.6799(15)
H67_3 H 0.1487 0.1817 0.6340
H68_3 H 0.1661 0.1209 0.6534
H69_3 H 0.1636 0.1626 0.7410
C60_3 C 0.0531(8) 0.1846(8) 0.6657(14)
H70_3 H 0.0582 0.2144 0.7109
H71_3 H 0.0152 0.1744 0.6645
H72_3 H 0.0643 0.1958 0.6009
C9_3 C 0.0054(8) 0.7857(7) 0.3405(11)
H7_3 H 0.0357 0.7632 0.3492
C31_3 C 0.0724(3) 0.8937(3) 0.0528(6)
C32_3 C 0.0918(3) 0.9376(3) 0.0020(5)
C33_3 C 0.1275(3) 0.9728(3) 0.0460(6)
C34_3 C 0.1437(4) 0.9641(4) 0.1407(6)
H37_3 H 0.1680 0.9881 0.1707
C35_3 C 0.1242(5) 0.9201(4) 0.1915(6)
C36_3 C 0.0886(4) 0.8849(4) 0.1475(7)
H38_3 H 0.0753 0.8549 0.1823
C42_3 C 0.1365(8) 0.9130(7) 0.3018(15)
C43_3 C 0.0884(7) 0.9290(8) 0.3610(14)
H46_3 H 0.0991 0.9558 0.4089
H47_3 H 0.0609 0.9442 0.3185
H48_3 H 0.0740 0.8974 0.3940
C44_3 C 0.1519(9) 0.8530(6) 0.3201(15)
H49_3 H 0.1817 0.8513 0.3660
H50_3 H 0.1209 0.8339 0.3466
H51_3 H 0.1626 0.8364 0.2590
C45_3 C 0.1846(8) 0.9469(8) 0.3343(14)
H52_3 H 0.2144 0.9418 0.2891
H53_3 H 0.1744 0.9848 0.3355
H54_3 H 0.1958 0.9357 0.3991
S6_3 S 0.07389(16) 0.95034(13) 0.8770(3)
C37_3 C 0.1016(9) 0.8928(7) 0.8146(14)
H39_3 H 0.0820 0.8875 0.7532
H40_3 H 0.0964 0.8605 0.8548
C38_3 C 0.1589(8) 0.8992(9) 0.7937(12)
H41_3 H 0.1729 0.8645 0.7703
H42_3 H 0.1776 0.9076 0.8550
N5_3 N 0.1727(7) 0.9400(7) 0.7239(12)
N6_2 N 0.2099(4) 0.9777(5) 0.7380(9)
C40_3 C 0.1806(10) 0.9837(13) 0.5900(17)
H44_3 H 0.1756 0.9954 0.5253
C41_3 C 0.1561(11) 0.9416(11) 0.6355(15)
H45_3 H 0.1312 0.9176 0.6070
Ag4_2 Ag 0.2500 0.98877(9) 0.8750
C16_3 C 0.9276(3) 0.1063(3) 0.0528(6)
C17_3 C 0.9082(3) 0.0624(3) 0.0020(5)
C18_3 C 0.8725(3) 0.0272(3) 0.0460(6)
C19_3 C 0.8563(4) 0.0359(4) 0.1407(6)
H19_3 H 0.8320 0.0119 0.1707
C20_3 C 0.8758(5) 0.0799(4) 0.1915(6)
C21_3 C 0.9114(4) 0.1151(4) 0.1475(7)
H20_3 H 0.9247 0.1451 0.1823
C27_3 C 0.8635(8) 0.0870(7) 0.3018(15)
C28_3 C 0.9116(7) 0.0710(8) 0.3610(14)
H28_3 H 0.9009 0.0442 0.4089
H29_3 H 0.9391 0.0558 0.3185
H30_3 H 0.9260 0.1026 0.3940
C29_3 C 0.8481(9) 0.1470(6) 0.3201(15)
H31_3 H 0.8183 0.1487 0.3660
H32_3 H 0.8791 0.1661 0.3466
H33_3 H 0.8374 0.1636 0.2590
C30_3 C 0.8154(8) 0.0531(8) 0.3343(14)
H34_3 H 0.7856 0.0582 0.2891
H35_3 H 0.8256 0.0152 0.3355
H36_3 H 0.8042 0.0643 0.3991
C54_3 C 0.9946(8) 0.2143(7) 0.3405(11)
H61_3 H 0.9643 0.2368 0.3492
S4_3 S 0.92611(16) 0.04966(13) 0.8770(3)
C22_3 C 0.8984(9) 0.1072(7) 0.8146(14)
H21_3 H 0.9180 0.1125 0.7532
H22_3 H 0.9036 0.1395 0.8548
C23_3 C 0.8411(8) 0.1008(9) 0.7937(12)
H23_3 H 0.8271 0.1355 0.7703
H24_3 H 0.8224 0.0924 0.8550
N3_3 N 0.8273(7) 0.0600(7) 0.7239(12)
N4_2 N 0.7901(4) 0.0223(5) 0.7380(9)
C25_3 C 0.8194(10) 0.0163(13) 0.5900(17)
H26_3 H 0.8244 0.0046 0.5253
C26_3 C 0.8439(11) 0.0584(11) 0.6355(15)
H27_3 H 0.8688 0.0824 0.6070
Ag3_2 Ag 0.7500 0.01123(9) 0.8750
S2_3 S 0.95034(13) 0.92611(16) 0.1230(3)
C7_3 C 0.8928(7) 0.8984(9) 0.1854(14)
H3_3 H 0.8875 0.9180 0.2468
H4_3 H 0.8605 0.9036 0.1452
C8_3 C 0.8992(9) 0.8411(8) 0.2063(12)
H5_3 H 0.8645 0.8271 0.2297
H6_3 H 0.9076 0.8224 0.1450
N1_3 N 0.9400(7) 0.8273(7) 0.2761(12)
C10_3 C 0.9837(13) 0.8194(10) 0.4100(17)
H8_3 H 0.9954 0.8244 0.4747
C11_3 C 0.9416(11) 0.8439(11) 0.3645(15)
H9_3 H 0.9176 0.8688 0.3930
S1_2 S 0.84270(12) 0.96965(12) 0.9927(3)
C1_3 C 0.8937(3) 0.9276(3) 0.9472(6)
C2_3 C 0.9376(3) 0.9082(3) 0.9980(5)
C3_3 C 0.9728(3) 0.8725(3) 0.9540(6)
C4_3 C 0.9641(4) 0.8563(4) 0.8593(6)
H1_3 H 0.9881 0.8320 0.8293
C5_3 C 0.9201(4) 0.8758(5) 0.8085(6)
C6_3 C 0.8849(4) 0.9114(4) 0.8525(7)
H2_3 H 0.8549 0.9247 0.8177
C12_3 C 0.9130(7) 0.8635(8) 0.6982(15)
C13_3 C 0.9290(8) 0.9116(7) 0.6390(14)
H10_3 H 0.9558 0.9009 0.5911
H11_3 H 0.9442 0.9391 0.6815
H12_3 H 0.8974 0.9260 0.6060
C14_3 C 0.8530(6) 0.8481(9) 0.6799(15)
H13_3 H 0.8513 0.8183 0.6340
H14_3 H 0.8339 0.8791 0.6534
H15_3 H 0.8364 0.8374 0.7410
C15_3 C 0.9469(8) 0.8154(8) 0.6657(14)
H16_3 H 0.9418 0.7856 0.7109
H17_3 H 0.9848 0.8256 0.6645
H18_3 H 0.9357 0.8042 0.6009
C24_3 C 0.7857(7) 0.9946(8) 0.6595(11)
H25_3 H 0.7632 0.9643 0.6508
S10_4 S 0.34270(12) 0.03035(12) 0.7573(3)
N9_4 N 0.2901(4) 0.9777(5) 0.0120(9)
N10_4 N 0.7099(4) 0.0223(5) 0.0120(9)
S9_4 S 0.65730(12) 0.96965(12) 0.7573(3)
N3_4 N 0.6727(7) 0.0600(7) 0.0261(12)
C25_4 C 0.6806(10) 0.0163(13) 0.1600(17)
H26_4 H 0.6756 0.0046 0.2247
C26_4 C 0.6561(11) 0.0584(11) 0.1145(15)
H27_4 H 0.6312 0.0824 0.1430
C39_4 C 0.2857(7) 0.0054(8) 0.0905(11)
H43_4 H 0.2632 0.0357 0.0992
C57_4 C 0.4130(7) 0.1365(8) 0.0518(15)
C58_4 C 0.4290(8) 0.0884(7) 0.1110(14)
H64_4 H 0.4558 0.0991 0.1589
H65_4 H 0.4442 0.0609 0.0685
H66_4 H 0.3974 0.0740 0.1440
C59_4 C 0.3530(6) 0.1519(9) 0.0701(15)
H67_4 H 0.3513 0.1817 0.1160
H68_4 H 0.3339 0.1209 0.0966
H69_4 H 0.3364 0.1626 0.0090
C60_4 C 0.4469(8) 0.1846(8) 0.0843(14)
H70_4 H 0.4418 0.2144 0.0391
H71_4 H 0.4848 0.1744 0.0855
H72_4 H 0.4357 0.1958 0.1491
C16_4 C 0.5724(3) 0.1063(3) 0.6972(6)
C17_4 C 0.5918(3) 0.0624(3) 0.7480(5)
C18_4 C 0.6275(3) 0.0272(3) 0.7040(6)
C19_4 C 0.6437(4) 0.0359(4) 0.6093(6)
H19_4 H 0.6680 0.0119 0.5793
C20_4 C 0.6242(5) 0.0799(4) 0.5585(6)
C21_4 C 0.5886(4) 0.1151(4) 0.6025(7)
H20_4 H 0.5753 0.1451 0.5677
S4_4 S 0.57389(16) 0.04966(13) 0.8730(3)
C22_4 C 0.6016(9) 0.1072(7) 0.9354(14)
H21_4 H 0.5820 0.1125 0.9968
H22_4 H 0.5964 0.1395 0.8952
C23_4 C 0.6589(8) 0.1008(9) 0.9563(12)
H23_4 H 0.6729 0.1355 0.9797
H24_4 H 0.6776 0.0924 0.8950
C27_4 C 0.6365(8) 0.0870(7) 0.4482(15)
C28_4 C 0.5884(7) 0.0710(8) 0.3890(14)
H28_4 H 0.5991 0.0442 0.3411
H29_4 H 0.5609 0.0558 0.4315
H30_4 H 0.5740 0.1026 0.3560
C29_4 C 0.6519(9) 0.1470(6) 0.4299(15)
H31_4 H 0.6817 0.1487 0.3840
H32_4 H 0.6209 0.1661 0.4034
H33_4 H 0.6626 0.1636 0.4910
C30_4 C 0.6846(8) 0.0531(8) 0.4157(14)
H34_4 H 0.7144 0.0582 0.4609
H35_4 H 0.6744 0.0152 0.4145
H36_4 H 0.6958 0.0643 0.3509
C46_4 C 0.3937(3) 0.0724(3) 0.8028(6)
C47_4 C 0.4376(3) 0.0918(3) 0.7520(5)
C48_4 C 0.4728(3) 0.1275(3) 0.7960(6)
C49_4 C 0.4641(4) 0.1437(4) 0.8907(6)
H55_4 H 0.4881 0.1680 0.9207
C50_4 C 0.4201(4) 0.1242(5) 0.9415(6)
C51_4 C 0.3849(4) 0.0886(4) 0.8975(7)
H56_4 H 0.3549 0.0753 0.9323
S8_4 S 0.45034(13) 0.07389(16) 0.6270(3)
C52_4 C 0.3928(7) 0.1016(9) 0.5646(14)
H57_4 H 0.3875 0.0820 0.5032
H58_4 H 0.3605 0.0964 0.6048
C53_4 C 0.3992(9) 0.1589(8) 0.5437(12)
H59_4 H 0.3645 0.1729 0.5203
H60_4 H 0.4076 0.1776 0.6050
N7_4 N 0.4400(7) 0.1727(7) 0.4739(12)
C54_4 C 0.5054(8) 0.2143(7) 0.4095(11)
H61_4 H 0.5357 0.2368 0.4008
C55_4 C 0.4837(13) 0.1806(10) 0.3400(17)
H62_4 H 0.4954 0.1756 0.2753
C56_4 C 0.4416(11) 0.1561(11) 0.3855(15)
H63_4 H 0.4176 0.1312 0.3570
C12_4 C 0.5870(7) 0.8635(8) 0.0518(15)
C13_4 C 0.5710(8) 0.9116(7) 0.1110(14)
H10_4 H 0.5442 0.9009 0.1589
H11_4 H 0.5558 0.9391 0.0685
H12_4 H 0.6026 0.9260 0.1440
C14_4 C 0.6470(6) 0.8481(9) 0.0701(15)
H13_4 H 0.6487 0.8183 0.1160
H14_4 H 0.6661 0.8791 0.0966
H15_4 H 0.6636 0.8374 0.0090
C15_4 C 0.5531(8) 0.8154(8) 0.0843(14)
H16_4 H 0.5582 0.7856 0.0391
H17_4 H 0.5152 0.8256 0.0855
H18_4 H 0.5643 0.8042 0.1491
C24_4 C 0.7143(7) 0.9946(8) 0.0905(11)
H25_4 H 0.7368 0.9643 0.0992
N5_4 N 0.3273(7) 0.9400(7) 0.0261(12)
C40_4 C 0.3194(10) 0.9837(13) 0.1600(17)
H44_4 H 0.3244 0.9954 0.2247
C41_4 C 0.3439(11) 0.9416(11) 0.1145(15)
H45_4 H 0.3688 0.9176 0.1430
C1_4 C 0.6063(3) 0.9276(3) 0.8028(6)
C2_4 C 0.5624(3) 0.9082(3) 0.7520(5)
C3_4 C 0.5272(3) 0.8725(3) 0.7960(6)
C4_4 C 0.5359(4) 0.8563(4) 0.8907(6)
H1_4 H 0.5119 0.8320 0.9207
C5_4 C 0.5799(4) 0.8758(5) 0.9415(6)
C6_4 C 0.6151(4) 0.9114(4) 0.8975(7)
H2_4 H 0.6451 0.9247 0.9323
S2_4 S 0.54966(13) 0.92611(16) 0.6270(3)
C7_4 C 0.6072(7) 0.8984(9) 0.5646(14)
H3_4 H 0.6125 0.9180 0.5032
H4_4 H 0.6395 0.9036 0.6048
C8_4 C 0.6008(9) 0.8411(8) 0.5437(12)
H5_4 H 0.6355 0.8271 0.5203
H6_4 H 0.5924 0.8224 0.6050
N1_4 N 0.5600(7) 0.8273(7) 0.4739(12)
C9_4 C 0.4946(8) 0.7857(7) 0.4095(11)
H7_4 H 0.4643 0.7632 0.4008
C10_4 C 0.5163(13) 0.8194(10) 0.3400(17)
H8_4 H 0.5046 0.8244 0.2753
C11_4 C 0.5584(11) 0.8439(11) 0.3855(15)
H9_4 H 0.5824 0.8688 0.3570
C31_4 C 0.4276(3) 0.8937(3) 0.6972(6)
C32_4 C 0.4082(3) 0.9376(3) 0.7480(5)
C33_4 C 0.3725(3) 0.9728(3) 0.7040(6)
C34_4 C 0.3563(4) 0.9641(4) 0.6093(6)
H37_4 H 0.3320 0.9881 0.5793
C35_4 C 0.3758(5) 0.9201(4) 0.5585(6)
C36_4 C 0.4114(4) 0.8849(4) 0.6025(7)
H38_4 H 0.4247 0.8549 0.5677
S6_4 S 0.42611(16) 0.95034(13) 0.8730(3)
C37_4 C 0.3984(9) 0.8928(7) 0.9354(14)
H39_4 H 0.4180 0.8875 0.9968
H40_4 H 0.4036 0.8605 0.8952
C38_4 C 0.3411(8) 0.8992(9) 0.9563(12)
H41_4 H 0.3271 0.8645 0.9797
H42_4 H 0.3224 0.9076 0.8950
C42_4 C 0.3635(8) 0.9130(7) 0.4482(15)
C43_4 C 0.4116(7) 0.9290(8) 0.3890(14)
H46_4 H 0.4009 0.9558 0.3411
H47_4 H 0.4391 0.9442 0.4315
H48_4 H 0.4260 0.8974 0.3560
C44_4 C 0.3481(9) 0.8530(6) 0.4299(15)
H49_4 H 0.3183 0.8513 0.3840
H50_4 H 0.3791 0.8339 0.4034
H51_4 H 0.3374 0.8364 0.4910
C45_4 C 0.3154(8) 0.9469(8) 0.4157(14)
H52_4 H 0.2856 0.9418 0.4609
H53_4 H 0.3256 0.9848 0.4145
H54_4 H 0.3042 0.9357 0.3509
Sb1 Sb 0.61587(7) 0.2500 0.1250
F1 F 0.6112(12) 0.1759(7) 0.1468(17)
F2 F 0.565(2) 0.2384(8) 0.025(3)
F3 F 0.666(2) 0.2290(13) 0.025(3)
F4 F 0.6112(12) 0.3241(7) 0.1032(17)
F5 F 0.565(2) 0.2616(8) 0.225(3)
F6 F 0.666(2) 0.2710(13) 0.225(3)
Sb1_2 Sb 0.38413(7) 0.7500 0.1250
F1_2 F 0.3888(12) 0.8241(7) 0.1468(17)
F2_2 F 0.435(2) 0.7616(8) 0.025(3)
F3_2 F 0.334(2) 0.7710(13) 0.025(3)
F4_2 F 0.3888(12) 0.6759(7) 0.1032(17)
F5_2 F 0.435(2) 0.7384(8) 0.225(3)
F6_2 F 0.334(2) 0.7290(13) 0.225(3)
Sb1_3 Sb 0.2500 0.38413(7) 0.8750
F1_3 F 0.1759(7) 0.3888(12) 0.8532(17)
F2_3 F 0.2384(8) 0.435(2) 0.975(3)
F3_3 F 0.2290(13) 0.334(2) 0.975(3)
F4_3 F 0.3241(7) 0.3888(12) 0.8968(17)
F5_3 F 0.2616(8) 0.435(2) 0.775(3)
F6_3 F 0.2710(13) 0.334(2) 0.775(3)
Sb1_4 Sb 0.7500 0.61587(7) 0.8750
F1_4 F 0.8241(7) 0.6112(12) 0.8532(17)
F2_4 F 0.7616(8) 0.565(2) 0.975(3)
F3_4 F 0.7710(13) 0.666(2) 0.975(3)
F4_4 F 0.6759(7) 0.6112(12) 0.8968(17)
F5_4 F 0.7384(8) 0.565(2) 0.775(3)
F6_4 F 0.7290(13) 0.666(2) 0.775(3)
Sb1_5 Sb 0.88413(7) 0.2500 0.6250
F1_5 F 0.8888(12) 0.1759(7) 0.6032(17)
F2_5 F 0.935(2) 0.2384(8) 0.725(3)
F3_5 F 0.834(2) 0.2290(13) 0.725(3)
F4_5 F 0.8888(12) 0.3241(7) 0.6468(17)
F5_5 F 0.935(2) 0.2616(8) 0.525(3)
F6_5 F 0.834(2) 0.2710(13) 0.525(3)
Sb1_6 Sb 0.11587(7) 0.7500 0.6250
F1_6 F 0.1112(12) 0.8241(7) 0.6032(17)
F2_6 F 0.065(2) 0.7616(8) 0.725(3)
F3_6 F 0.166(2) 0.7710(13) 0.725(3)
F4_6 F 0.1112(12) 0.6759(7) 0.6468(17)
F5_6 F 0.065(2) 0.7384(8) 0.525(3)
F6_6 F 0.166(2) 0.7290(13) 0.525(3)
Sb1_7 Sb 0.7500 0.88413(7) 0.3750
F1_7 F 0.6759(7) 0.8888(12) 0.3532(17)
F2_7 F 0.7384(8) 0.935(2) 0.475(3)
F3_7 F 0.7290(13) 0.834(2) 0.475(3)
F4_7 F 0.8241(7) 0.8888(12) 0.3968(17)
F5_7 F 0.7616(8) 0.935(2) 0.275(3)
F6_7 F 0.7710(13) 0.834(2) 0.275(3)
Sb1_8 Sb 0.2500 0.11587(7) 0.3750
F1_8 F 0.3241(7) 0.1112(12) 0.3532(17)
F2_8 F 0.2616(8) 0.065(2) 0.475(3)
F3_8 F 0.2710(13) 0.166(2) 0.475(3)
F4_8 F 0.1759(7) 0.1112(12) 0.3968(17)
F5_8 F 0.2384(8) 0.065(2) 0.275(3)
F6_8 F 0.2290(13) 0.166(2) 0.275(3)
loop_
_geom_bond_atom_site_label_1
_geom_bond_atom_site_label_2
_geom_bond_site_symmetry_1
_geom_bond_site_symmetry_2
Ag1 N2 1_555 1_555
S1 C1 1_555 1_555
C1 C2 1_555 1_555
C2 C3 1_555 1_555
C3 C4 1_555 1_555
C4 H1 1_555 1_555
C5 C4 1_555 1_555
C6 C1 1_555 1_555
H2 C6 1_555 1_555
S2 C2 1_555 1_555
C7 S2 1_555 1_555
H3 C7 1_555 1_555
H4 C7 1_555 1_555
C8 C7 1_555 1_555
H5 C8 1_555 1_555
H6 C8 1_555 1_555
N1 C8 1_555 1_555
N2 N1 1_555 1_555
C9 N2 1_555 1_555
H7 C9 1_555 1_555
C10 C9 1_555 1_555
H8 C10 1_555 1_555
C11 N1 1_555 1_555
H9 C11 1_555 1_555
C12 C5 1_555 1_555
C13 C12 1_555 1_555
H10 C13 1_555 1_555
H11 C13 1_555 1_555
H12 C13 1_555 1_555
C14 C12 1_555 1_555
H13 C14 1_555 1_555
H14 C14 1_555 1_555
H15 C14 1_555 1_555
C15 C12 1_555 1_555
H16 C15 1_555 1_555
H17 C15 1_555 1_555
H18 C15 1_555 1_555
S3 C16 1_555 1_555
C16 C17 1_555 1_555
C17 C18 1_555 1_555
C18 S1 1_555 1_555
C19 C18 1_555 1_555
H19 C19 1_555 1_555
C20 C19 1_555 1_555
C21 C16 1_555 1_555
H20 C21 1_555 1_555
S4 C17 1_555 1_555
C22 S4 1_555 1_555
H21 C22 1_555 1_555
H22 C22 1_555 1_555
C23 C22 1_555 1_555
H23 C23 1_555 1_555
H24 C23 1_555 1_555
N3 C23 1_555 1_555
N4 N3 1_555 1_555
C24 N4 1_555 1_555
H25 C24 1_555 1_555
C25 C24 1_555 1_555
H26 C25 1_555 1_555
C26 N3 1_555 1_555
H27 C26 1_555 1_555
C27 C20 1_555 1_555
C28 C27 1_555 1_555
H28 C28 1_555 1_555
H29 C28 1_555 1_555
H30 C28 1_555 1_555
C29 C27 1_555 1_555
H31 C29 1_555 1_555
H32 C29 1_555 1_555
H33 C29 1_555 1_555
C30 C27 1_555 1_555
H34 C30 1_555 1_555
H35 C30 1_555 1_555
H36 C30 1_555 1_555
S5 Ag1 1_555 1_555
C31 S5 1_555 1_555
C32 C31 1_555 1_555
C33 C32 1_555 1_555
C34 C33 1_555 1_555
H37 C34 1_555 1_555
C35 C34 1_555 1_555
C36 C31 1_555 1_555
H38 C36 1_555 1_555
S6 C32 1_555 1_555
C37 S6 1_555 1_555
H39 C37 1_555 1_555
H40 C37 1_555 1_555
C38 C37 1_555 1_555
H41 C38 1_555 1_555
H42 C38 1_555 1_555
N5 C38 1_555 1_555
N6 N5 1_555 1_555
C39 N6 1_555 1_555
H43 C39 1_555 1_555
C40 C39 1_555 1_555
H44 C40 1_555 1_555
C41 N5 1_555 1_555
H45 C41 1_555 1_555
C42 C35 1_555 1_555
C43 C42 1_555 1_555
H46 C43 1_555 1_555
H47 C43 1_555 1_555
H48 C43 1_555 1_555
C44 C42 1_555 1_555
H49 C44 1_555 1_555
H50 C44 1_555 1_555
H51 C44 1_555 1_555
C45 C42 1_555 1_555
H52 C45 1_555 1_555
H53 C45 1_555 1_555
H54 C45 1_555 1_555
S7 C33 1_555 1_555
C46 S7 1_555 1_555
C47 C46 1_555 1_555
C48 S3 1_555 1_555
C49 C48 1_555 1_555
H55 C49 1_555 1_555
C50 C49 1_555 1_555
C51 C46 1_555 1_555
H56 C51 1_555 1_555
S8 C47 1_555 1_555
C52 S8 1_555 1_555
H57 C52 1_555 1_555
H58 C52 1_555 1_555
C53 C52 1_555 1_555
H59 C53 1_555 1_555
H60 C53 1_555 1_555
N7 C53 1_555 1_555
N8 N7 1_555 1_555
C54 N8 1_555 1_555
H61 C54 1_555 1_555
C55 C54 1_555 1_555
H62 C55 1_555 1_555
C56 N7 1_555 1_555
H63 C56 1_555 1_555
C57 C50 1_555 1_555
C58 C57 1_555 1_555
H64 C58 1_555 1_555
H65 C58 1_555 1_555
H66 C58 1_555 1_555
C59 C57 1_555 1_555
H67 C59 1_555 1_555
H68 C59 1_555 1_555
H69 C59 1_555 1_555
C60 C57 1_555 1_555
H70 C60 1_555 1_555
H71 C60 1_555 1_555
H72 C60 1_555 1_555
Ag2 S3 1_555 1_555
Ag3 S1 1_555 1_555
Ag4 N6 1_555 1_555
S9 Ag1 1_555 1_555
S10 Ag2 1_555 1_555
N9 Ag2 1_555 1_555
N10 Ag1 1_555 1_555
C3 S5 1_555 1_555
C5 C6 1_555 1_555
C10 C11 1_555 1_555
C20 C21 1_555 1_555
N4 Ag3 1_555 1_555
C25 C26 1_555 1_555
C35 C36 1_555 1_555
C40 C41 1_555 1_555
S7 Ag4 1_555 1_555
C47 C48 1_555 1_555
C50 C51 1_555 1_555
N8 Ag2 1_555 1_555
C55 C56 1_555 1_555
S9_2 Ag3 1_555 1_555
S10_2 Ag4 1_555 1_555
N9_2 Ag4 1_555 1_555
N10_2 Ag3 1_555 1_555
S9_2 C1_2 1_555 1_555
C1_2 C2_2 1_555 1_555
C2_2 C3_2 1_555 1_555
C3_2 C4_2 1_555 1_555
C4_2 H1_2 1_555 1_555
C5_2 C4_2 1_555 1_555
C6_2 C1_2 1_555 1_555
H2_2 C6_2 1_555 1_555
S2_2 C2_2 1_555 1_555
C7_2 S2_2 1_555 1_555
H3_2 C7_2 1_555 1_555
H4_2 C7_2 1_555 1_555
C8_2 C7_2 1_555 1_555
H5_2 C8_2 1_555 1_555
H6_2 C8_2 1_555 1_555
C12_2 C5_2 1_555 1_555
C13_2 C12_2 1_555 1_555
H10_2 C13_2 1_555 1_555
H11_2 C13_2 1_555 1_555
H12_2 C13_2 1_555 1_555
C14_2 C12_2 1_555 1_555
H13_2 C14_2 1_555 1_555
H14_2 C14_2 1_555 1_555
H15_2 C14_2 1_555 1_555
C15_2 C12_2 1_555 1_555
H16_2 C15_2 1_555 1_555
H17_2 C15_2 1_555 1_555
H18_2 C15_2 1_555 1_555
S3_2 C16_2 1_555 1_555
C16_2 C17_2 1_555 1_555
C17_2 C18_2 1_555 1_555
C18_2 S9_2 1_555 1_555
C19_2 C18_2 1_555 1_555
H19_2 C19_2 1_555 1_555
C20_2 C19_2 1_555 1_555
C21_2 C16_2 1_555 1_555
H20_2 C21_2 1_555 1_555
S4_2 C17_2 1_555 1_555
C22_2 S4_2 1_555 1_555
H21_2 C22_2 1_555 1_555
H22_2 C22_2 1_555 1_555
C23_2 C22_2 1_555 1_555
H23_2 C23_2 1_555 1_555
H24_2 C23_2 1_555 1_555
N3_2 C23_2 1_555 1_555
N10_2 N3_2 1_555 1_555
C24_2 N10_2 1_555 1_555
H25_2 C24_2 1_555 1_555
C25_2 C24_2 1_555 1_555
H26_2 C25_2 1_555 1_555
C26_2 N3_2 1_555 1_555
H27_2 C26_2 1_555 1_555
N10_3 Ag1_2 1_555 1_555
C5_2 C6_2 1_555 1_555
C20_2 C21_2 1_555 1_555
C25_2 C26_2 1_555 1_555
N2_2 N1_2 1_555 1_555
H8_2 C10_2 1_555 1_555
C11_2 N1_2 1_555 1_555
H9_2 C11_2 1_555 1_555
C28_2 C27_2 1_555 1_555
H28_2 C28_2 1_555 1_555
H29_2 C28_2 1_555 1_555
H30_2 C28_2 1_555 1_555
C29_2 C27_2 1_555 1_555
H31_2 C29_2 1_555 1_555
H32_2 C29_2 1_555 1_555
H33_2 C29_2 1_555 1_555
C30_2 C27_2 1_555 1_555
H34_2 C30_2 1_555 1_555
H35_2 C30_2 1_555 1_555
H36_2 C30_2 1_555 1_555
H61_2 C54_2 1_555 1_555
C10_2 C11_2 1_555 1_555
C31_2 S5_2 1_555 1_555
C32_2 C31_2 1_555 1_555
C33_2 C32_2 1_555 1_555
C34_2 C33_2 1_555 1_555
H37_2 C34_2 1_555 1_555
C35_2 C34_2 1_555 1_555
C36_2 C31_2 1_555 1_555
H38_2 C36_2 1_555 1_555
S6_2 C32_2 1_555 1_555
C37_2 S6_2 1_555 1_555
H39_2 C37_2 1_555 1_555
H40_2 C37_2 1_555 1_555
C38_2 C37_2 1_555 1_555
H41_2 C38_2 1_555 1_555
H42_2 C38_2 1_555 1_555
N5_2 C38_2 1_555 1_555
N9_2 N5_2 1_555 1_555
C39_2 N9_2 1_555 1_555
H43_2 C39_2 1_555 1_555
C40_2 C39_2 1_555 1_555
H44_2 C40_2 1_555 1_555
C41_2 N5_2 1_555 1_555
H45_2 C41_2 1_555 1_555
S10_2 C33_2 1_555 1_555
C46_2 S10_2 1_555 1_555
C47_2 C46_2 1_555 1_555
C49_2 C48_2 1_555 1_555
H55_2 C49_2 1_555 1_555
C50_2 C49_2 1_555 1_555
C51_2 C46_2 1_555 1_555
H56_2 C51_2 1_555 1_555
S8_2 C47_2 1_555 1_555
C52_2 S8_2 1_555 1_555
H57_2 C52_2 1_555 1_555
H58_2 C52_2 1_555 1_555
C53_2 C52_2 1_555 1_555
H59_2 C53_2 1_555 1_555
H60_2 C53_2 1_555 1_555
C57_2 C50_2 1_555 1_555
C58_2 C57_2 1_555 1_555
H64_2 C58_2 1_555 1_555
H65_2 C58_2 1_555 1_555
H66_2 C58_2 1_555 1_555
C59_2 C57_2 1_555 1_555
H67_2 C59_2 1_555 1_555
H68_2 C59_2 1_555 1_555
H69_2 C59_2 1_555 1_555
C60_2 C57_2 1_555 1_555
H70_2 C60_2 1_555 1_555
H71_2 C60_2 1_555 1_555
H72_2 C60_2 1_555 1_555
N9_3 Ag2_2 1_555 1_555
C35_2 C36_2 1_555 1_555
C40_2 C41_2 1_555 1_555
C47_2 C48_2 1_555 1_555
C50_2 C51_2 1_555 1_555
H7_2 C9_2 1_555 1_555
C43_2 C42_2 1_555 1_555
H46_2 C43_2 1_555 1_555
H47_2 C43_2 1_555 1_555
H48_2 C43_2 1_555 1_555
C44_2 C42_2 1_555 1_555
H49_2 C44_2 1_555 1_555
H50_2 C44_2 1_555 1_555
H51_2 C44_2 1_555 1_555
C45_2 C42_2 1_555 1_555
H52_2 C45_2 1_555 1_555
H53_2 C45_2 1_555 1_555
H54_2 C45_2 1_555 1_555
N8_2 N7_2 1_555 1_555
H62_2 C55_2 1_555 1_555
C56_2 N7_2 1_555 1_555
H63_2 C56_2 1_555 1_555
C55_2 C56_2 1_555 1_555
C52_3 S8_3 1_555 1_555
H57_3 C52_3 1_555 1_555
H58_3 C52_3 1_555 1_555
C53_3 C52_3 1_555 1_555
H59_3 C53_3 1_555 1_555
H60_3 C53_3 1_555 1_555
N7_3 C53_3 1_555 1_555
N10_3 N7_3 1_555 1_555
H62_3 C55_3 1_555 1_555
C56_3 N7_3 1_555 1_555
H63_3 C56_3 1_555 1_555
C55_3 C56_3 1_555 1_555
H43_3 C39_3 1_555 1_555
C46_3 S7_2 1_555 1_555
C47_3 C46_3 1_555 1_555
C49_3 C48_3 1_555 1_555
H55_3 C49_3 1_555 1_555
C50_3 C49_3 1_555 1_555
C51_3 C46_3 1_555 1_555
H56_3 C51_3 1_555 1_555
C57_3 C50_3 1_555 1_555
C58_3 C57_3 1_555 1_555
H64_3 C58_3 1_555 1_555
H65_3 C58_3 1_555 1_555
H66_3 C58_3 1_555 1_555
C59_3 C57_3 1_555 1_555
H67_3 C59_3 1_555 1_555
H68_3 C59_3 1_555 1_555
H69_3 C59_3 1_555 1_555
C60_3 C57_3 1_555 1_555
H70_3 C60_3 1_555 1_555
H71_3 C60_3 1_555 1_555
H72_3 C60_3 1_555 1_555
C47_3 C48_3 1_555 1_555
C50_3 C51_3 1_555 1_555
H7_3 C9_3 1_555 1_555
C31_3 S10_3 1_555 1_555
C32_3 C31_3 1_555 1_555
C33_3 C32_3 1_555 1_555
C34_3 C33_3 1_555 1_555
H37_3 C34_3 1_555 1_555
C35_3 C34_3 1_555 1_555
C36_3 C31_3 1_555 1_555
H38_3 C36_3 1_555 1_555
C42_3 C35_3 1_555 1_555
C43_3 C42_3 1_555 1_555
H46_3 C43_3 1_555 1_555
H47_3 C43_3 1_555 1_555
H48_3 C43_3 1_555 1_555
C44_3 C42_3 1_555 1_555
H49_3 C44_3 1_555 1_555
H50_3 C44_3 1_555 1_555
H51_3 C44_3 1_555 1_555
C45_3 C42_3 1_555 1_555
H52_3 C45_3 1_555 1_555
H53_3 C45_3 1_555 1_555
H54_3 C45_3 1_555 1_555
C35_3 C36_3 1_555 1_555
C37_3 S6_3 1_555 1_555
H39_3 C37_3 1_555 1_555
H40_3 C37_3 1_555 1_555
C38_3 C37_3 1_555 1_555
H41_3 C38_3 1_555 1_555
H42_3 C38_3 1_555 1_555
N5_3 C38_3 1_555 1_555
N6_2 N5_3 1_555 1_555
H44_3 C40_3 1_555 1_555
C41_3 N5_3 1_555 1_555
H45_3 C41_3 1_555 1_555
Ag4_2 N6_2 1_555 1_555
C40_3 C41_3 1_555 1_555
S9_3 C16_3 1_555 1_555
C16_3 C17_3 1_555 1_555
C17_3 C18_3 1_555 1_555
C19_3 C18_3 1_555 1_555
H19_3 C19_3 1_555 1_555
C20_3 C19_3 1_555 1_555
C21_3 C16_3 1_555 1_555
H20_3 C21_3 1_555 1_555
C27_3 C20_3 1_555 1_555
C28_3 C27_3 1_555 1_555
H28_3 C28_3 1_555 1_555
H29_3 C28_3 1_555 1_555
H30_3 C28_3 1_555 1_555
C29_3 C27_3 1_555 1_555
H31_3 C29_3 1_555 1_555
H32_3 C29_3 1_555 1_555
H33_3 C29_3 1_555 1_555
C30_3 C27_3 1_555 1_555
H34_3 C30_3 1_555 1_555
H35_3 C30_3 1_555 1_555
H36_3 C30_3 1_555 1_555
H61_3 C54_3 1_555 1_555
C20_3 C21_3 1_555 1_555
C22_3 S4_3 1_555 1_555
H21_3 C22_3 1_555 1_555
H22_3 C22_3 1_555 1_555
C23_3 C22_3 1_555 1_555
H23_3 C23_3 1_555 1_555
H24_3 C23_3 1_555 1_555
N3_3 C23_3 1_555 1_555
N4_2 N3_3 1_555 1_555
H26_3 C25_3 1_555 1_555
C26_3 N3_3 1_555 1_555
H27_3 C26_3 1_555 1_555
N4_2 Ag3_2 1_555 1_555
C25_3 C26_3 1_555 1_555
C7_3 S2_3 1_555 1_555
H3_3 C7_3 1_555 1_555
H4_3 C7_3 1_555 1_555
C8_3 C7_3 1_555 1_555
H5_3 C8_3 1_555 1_555
H6_3 C8_3 1_555 1_555
N1_3 C8_3 1_555 1_555
N9_3 N1_3 1_555 1_555
H8_3 C10_3 1_555 1_555
C11_3 N1_3 1_555 1_555
H9_3 C11_3 1_555 1_555
C10_3 C11_3 1_555 1_555
S1_2 C1_3 1_555 1_555
C1_3 C2_3 1_555 1_555
C2_3 C3_3 1_555 1_555
C3_3 C4_3 1_555 1_555
C4_3 H1_3 1_555 1_555
C5_3 C4_3 1_555 1_555
C6_3 C1_3 1_555 1_555
H2_3 C6_3 1_555 1_555
C12_3 C5_3 1_555 1_555
C13_3 C12_3 1_555 1_555
H10_3 C13_3 1_555 1_555
H11_3 C13_3 1_555 1_555
H12_3 C13_3 1_555 1_555
C14_3 C12_3 1_555 1_555
H13_3 C14_3 1_555 1_555
H14_3 C14_3 1_555 1_555
H15_3 C14_3 1_555 1_555
C15_3 C12_3 1_555 1_555
H16_3 C15_3 1_555 1_555
H17_3 C15_3 1_555 1_555
H18_3 C15_3 1_555 1_555
H25_3 C24_3 1_555 1_555
C5_3 C6_3 1_555 1_555
N10_4 N3_4 1_555 1_555
H26_4 C25_4 1_555 1_555
C26_4 N3_4 1_555 1_555
H27_4 C26_4 1_555 1_555
H43_4 C39_4 1_555 1_555
C58_4 C57_4 1_555 1_555
H64_4 C58_4 1_555 1_555
H65_4 C58_4 1_555 1_555
H66_4 C58_4 1_555 1_555
C59_4 C57_4 1_555 1_555
H67_4 C59_4 1_555 1_555
H68_4 C59_4 1_555 1_555
H69_4 C59_4 1_555 1_555
C60_4 C57_4 1_555 1_555
H70_4 C60_4 1_555 1_555
H71_4 C60_4 1_555 1_555
H72_4 C60_4 1_555 1_555
C25_4 C26_4 1_555 1_555
S9 C16_4 1_555 1_555
C16_4 C17_4 1_555 1_555
C17_4 C18_4 1_555 1_555
C19_4 C18_4 1_555 1_555
H19_4 C19_4 1_555 1_555
C20_4 C19_4 1_555 1_555
C21_4 C16_4 1_555 1_555
H20_4 C21_4 1_555 1_555
S4_4 C17_4 1_555 1_555
C22_4 S4_4 1_555 1_555
H21_4 C22_4 1_555 1_555
H22_4 C22_4 1_555 1_555
C23_4 C22_4 1_555 1_555
H23_4 C23_4 1_555 1_555
H24_4 C23_4 1_555 1_555
C27_4 C20_4 1_555 1_555
C28_4 C27_4 1_555 1_555
H28_4 C28_4 1_555 1_555
H29_4 C28_4 1_555 1_555
H30_4 C28_4 1_555 1_555
C29_4 C27_4 1_555 1_555
H31_4 C29_4 1_555 1_555
H32_4 C29_4 1_555 1_555
H33_4 C29_4 1_555 1_555
C30_4 C27_4 1_555 1_555
H34_4 C30_4 1_555 1_555
H35_4 C30_4 1_555 1_555
H36_4 C30_4 1_555 1_555
C46_4 S10_4 1_555 1_555
C47_4 C46_4 1_555 1_555
C48_4 S9 1_555 1_555
C49_4 C48_4 1_555 1_555
H55_4 C49_4 1_555 1_555
C50_4 C49_4 1_555 1_555
C51_4 C46_4 1_555 1_555
H56_4 C51_4 1_555 1_555
S8_4 C47_4 1_555 1_555
C52_4 S8_4 1_555 1_555
H57_4 C52_4 1_555 1_555
H58_4 C52_4 1_555 1_555
C53_4 C52_4 1_555 1_555
H59_4 C53_4 1_555 1_555
H60_4 C53_4 1_555 1_555
N7_4 C53_4 1_555 1_555
N10 N7_4 1_555 1_555
C54_4 N10 1_555 1_555
H61_4 C54_4 1_555 1_555
C55_4 C54_4 1_555 1_555
H62_4 C55_4 1_555 1_555
C56_4 N7_4 1_555 1_555
H63_4 C56_4 1_555 1_555
C20_4 C21_4 1_555 1_555
C47_4 C48_4 1_555 1_555
C50_4 C51_4 1_555 1_555
C55_4 C56_4 1_555 1_555
C13_4 C12_4 1_555 1_555
H10_4 C13_4 1_555 1_555
H11_4 C13_4 1_555 1_555
H12_4 C13_4 1_555 1_555
C14_4 C12_4 1_555 1_555
H13_4 C14_4 1_555 1_555
H14_4 C14_4 1_555 1_555
H15_4 C14_4 1_555 1_555
C15_4 C12_4 1_555 1_555
H16_4 C15_4 1_555 1_555
H17_4 C15_4 1_555 1_555
H18_4 C15_4 1_555 1_555
H25_4 C24_4 1_555 1_555
N9_4 N5_4 1_555 1_555
H44_4 C40_4 1_555 1_555
C41_4 N5_4 1_555 1_555
H45_4 C41_4 1_555 1_555
C40_4 C41_4 1_555 1_555
S9_4 C1_4 1_555 1_555
C1_4 C2_4 1_555 1_555
C2_4 C3_4 1_555 1_555
C3_4 C4_4 1_555 1_555
C4_4 H1_4 1_555 1_555
C5_4 C4_4 1_555 1_555
C6_4 C1_4 1_555 1_555
H2_4 C6_4 1_555 1_555
S2_4 C2_4 1_555 1_555
C7_4 S2_4 1_555 1_555
H3_4 C7_4 1_555 1_555
H4_4 C7_4 1_555 1_555
C8_4 C7_4 1_555 1_555
H5_4 C8_4 1_555 1_555
H6_4 C8_4 1_555 1_555
N1_4 C8_4 1_555 1_555
N9 N1_4 1_555 1_555
C9_4 N9 1_555 1_555
H7_4 C9_4 1_555 1_555
C10_4 C9_4 1_555 1_555
H8_4 C10_4 1_555 1_555
C11_4 N1_4 1_555 1_555
H9_4 C11_4 1_555 1_555
C31_4 S10 1_555 1_555
C32_4 C31_4 1_555 1_555
C33_4 C32_4 1_555 1_555
C34_4 C33_4 1_555 1_555
H37_4 C34_4 1_555 1_555
C35_4 C34_4 1_555 1_555
C36_4 C31_4 1_555 1_555
H38_4 C36_4 1_555 1_555
S6_4 C32_4 1_555 1_555
C37_4 S6_4 1_555 1_555
H39_4 C37_4 1_555 1_555
H40_4 C37_4 1_555 1_555
C38_4 C37_4 1_555 1_555
H41_4 C38_4 1_555 1_555
H42_4 C38_4 1_555 1_555
C42_4 C35_4 1_555 1_555
C43_4 C42_4 1_555 1_555
H46_4 C43_4 1_555 1_555
H47_4 C43_4 1_555 1_555
H48_4 C43_4 1_555 1_555
C44_4 C42_4 1_555 1_555
H49_4 C44_4 1_555 1_555
H50_4 C44_4 1_555 1_555
H51_4 C44_4 1_555 1_555
C45_4 C42_4 1_555 1_555
H52_4 C45_4 1_555 1_555
H53_4 C45_4 1_555 1_555
H54_4 C45_4 1_555 1_555
C3_4 S10 1_555 1_555
C5_4 C6_4 1_555 1_555
C10_4 C11_4 1_555 1_555
C35_4 C36_4 1_555 1_555
Sb1 F1 1_555 1_555
F2 Sb1 1_555 1_555
F3 Sb1 1_555 1_555
F4 Sb1 1_555 1_555
F5 Sb1 1_555 1_555
F6 Sb1 1_555 1_555
Sb1_2 F1_2 1_555 1_555
F2_2 Sb1_2 1_555 1_555
F3_2 Sb1_2 1_555 1_555
F4_2 Sb1_2 1_555 1_555
F5_2 Sb1_2 1_555 1_555
F6_2 Sb1_2 1_555 1_555
Sb1_3 F1_3 1_555 1_555
F2_3 Sb1_3 1_555 1_555
F3_3 Sb1_3 1_555 1_555
F4_3 Sb1_3 1_555 1_555
F5_3 Sb1_3 1_555 1_555
F6_3 Sb1_3 1_555 1_555
Sb1_4 F1_4 1_555 1_555
F2_4 Sb1_4 1_555 1_555
F3_4 Sb1_4 1_555 1_555
F4_4 Sb1_4 1_555 1_555
F5_4 Sb1_4 1_555 1_555
F6_4 Sb1_4 1_555 1_555
Sb1_5 F1_5 1_555 1_555
F2_5 Sb1_5 1_555 1_555
F3_5 Sb1_5 1_555 1_555
F4_5 Sb1_5 1_555 1_555
F5_5 Sb1_5 1_555 1_555
F6_5 Sb1_5 1_555 1_555
Sb1_6 F1_6 1_555 1_555
F2_6 Sb1_6 1_555 1_555
F3_6 Sb1_6 1_555 1_555
F4_6 Sb1_6 1_555 1_555
F5_6 Sb1_6 1_555 1_555
F6_6 Sb1_6 1_555 1_555
Sb1_7 F1_7 1_555 1_555
F2_7 Sb1_7 1_555 1_555
F3_7 Sb1_7 1_555 1_555
F4_7 Sb1_7 1_555 1_555
F5_7 Sb1_7 1_555 1_555
F6_7 Sb1_7 1_555 1_555
Sb1_8 F1_8 1_555 1_555
F2_8 Sb1_8 1_555 1_555
F3_8 Sb1_8 1_555 1_555
F4_8 Sb1_8 1_555 1_555
F5_8 Sb1_8 1_555 1_555
F6_8 Sb1_8 1_555 1_555

#END
