
###############################################################################
#
# This file contains modified crystal structure data generated from the
# MOF subset of the Cambridge Structural Database (CSD) v543 
# hosted by the Cambridge Crystallographic Data Centre (CCDC).
#
# This work is licensed under the Creative Commons
# Attribution-NonCommercial-ShareAlike 4.0 International License.
# To view a copy of this license, visit
# http://creativecommons.org/licenses/by-nc-sa/4.0/
# or send a letter to
# Creative Commons, PO Box 1866, Mountain View, CA 94042, USA.
#
# CIF created using the CSD Python API on 29 September 2022
# The structure has been converted into the P1 space group
# The structure has a 3D framework
# The original CSD entry FAGXIX is in the monoclinic crystal system
# The framework has been calculated to contain at least 10.0% void space
# The void calculation uses a probe of radius 1.32A, grid spacing 0.4
#
###############################################################################

data_FAGXIX
_chemical_formula_moiety         '(C192 H144 N8 O56 Zn10)n'
_symmetry_cell_setting           triclinic
_symmetry_space_group_name_H-M   'P 1'
_symmetry_Int_Tables_number      1
_space_group_name_Hall           'P 1'
loop_
_symmetry_equiv_pos_site_id
_symmetry_equiv_pos_as_xyz
1 x,y,z
_cell_length_a                   19.953(7)
_cell_length_b                   9.495(4)
_cell_length_c                   25.805(10)
_cell_angle_alpha                90
_cell_angle_beta                 91.915(12)
_cell_angle_gamma                90
_cell_volume                     4886.12
loop_
_atom_site_label
_atom_site_type_symbol
_atom_site_fract_x
_atom_site_fract_y
_atom_site_fract_z
Zn1 Zn 0.08473(3) 0.45196(6) 0.47275(2)
C4 C 0.0181(3) 0.0182(5) 0.39525(19)
C5 C 0.0041(2) 0.1573(5) 0.41155(17)
H3 H 0.0275 0.2318 0.3973
C11 C 0.1660(3) 0.0633(6) 0.3106(2)
H6 H 0.2019 0.1250 0.3078
C12 C 0.1231(3) 0.0797(6) 0.3504(2)
H7 H 0.1307 0.1518 0.3743
H10 H 0.3499 0.0112 0.1902
H11 H 0.2850 0.0218 0.2616
O8 O 0.01237(18) 0.4274(3) 0.05152(14)
O11 O 0.09518(18) 0.3574(4) 0.00315(14)
C25 C 0.0791(2) 0.0776(5) 0.03227(18)
H19 H 0.1126 0.0976 0.0092
C30 C 0.0422(2) 0.1850(5) 0.05281(18)
C44 C 0.0510(2) 0.3340(5) 0.03495(18)
O16 O 0.1184(2) 0.4560(5) 0.40151(14)
O17 O 0.07883(18) 0.2976(4) 0.52231(13)
O19 O 0.09518(18) 0.6426(4) 0.50315(14)
O23 O 0.2073(2) 0.4117(5) 0.45032(14)
Zn9 Zn 0.08473(3) 0.54804(6) 0.97275(2)
O2 O 0.3816(2) 0.9560(5) 0.09849(14)
O7 O 0.2927(2) 0.9117(5) 0.04968(14)
C7 C 0.0683(3) 0.9904(5) 0.3560(2)
C8 C 0.0604(3) 0.8817(6) 0.3203(2)
H4 H 0.0252 0.8186 0.3236
C9 C 0.1035(3) 0.8647(6) 0.2800(2)
H5 H 0.0964 0.7911 0.2567
C10 C 0.1571(3) 0.9550(6) 0.2737(2)
C13 C 0.1997(3) 0.9466(6) 0.2286(2)
C14 C 0.1733(3) 0.8986(8) 0.1815(2)
H8 H 0.1291 0.8679 0.1788
C15 C 0.2129(3) 0.8966(8) 0.1386(2)
H9 H 0.1938 0.8685 0.1069
C16 C 0.2796(3) 0.9346(6) 0.1409(2)
C17 C 0.3053(3) 0.9824(7) 0.1875(2)
C18 C 0.2662(3) 0.9885(8) 0.2305(2)
C21 C 0.3197(3) 0.9327(5) 0.0939(2)
O10 O 0.07883(18) 0.7024(4) 0.02231(13)
O12 O 0.15638(19) 0.8531(4) 0.00029(16)
C26 C 0.0662(2) 0.9397(5) 0.04599(17)
C27 C 0.0187(2) 0.9095(5) 0.08148(19)
H20 H 0.0105 0.8162 0.0903
C43 C 0.1055(2) 0.8218(5) 0.02083(18)
Zn5 Zn 0.41527(3) 0.95196(6) 0.02725(2)
Zn10 Zn 0.2500 0.7500 0.0000
Zn10_2 Zn 0.2500 0.7500 1.0000
O1 O 0.98763(18) 0.4274(3) 0.44848(14)
O4 O 0.90482(18) 0.3574(4) 0.49685(14)
N1 N 0.7213(2) 0.1001(4) 0.5949(2)
C1 C 0.9209(2) 0.0776(5) 0.46773(18)
H1 H 0.8874 0.0976 0.4908
C6 C 0.9578(2) 0.1850(5) 0.44719(18)
C20 C 0.9490(2) 0.3340(5) 0.46505(18)
C22 C 0.7484(6) 0.2306(7) 0.5903(6)
H12 H 0.7894 0.2243 0.5719
H13 H 0.7577 0.2692 0.6242
H14 H 0.7174 0.2906 0.5716
C23 C 0.6698(4) 0.0635(13) 0.6250(3)
H15 H 0.6300 0.1129 0.6136
H16 H 0.6806 0.0879 0.6604
C24 C 0.7438(4) 0.0080(8) 0.5595(3)
H18 H 0.7732 0.0365 0.5343
Zn3 Zn 0.91527(3) 0.45196(6) 0.02725(2)
C28 C 0.9819(3) 0.0182(5) 0.10475(19)
C29 C 0.9959(2) 0.1573(5) 0.08845(17)
H21 H 0.9725 0.2318 0.1027
C35 C 0.8340(3) 0.0633(6) 0.1894(2)
H24 H 0.7981 0.1250 0.1922
C36 C 0.8769(3) 0.0797(6) 0.1496(2)
H25 H 0.8693 0.1518 0.1257
H28 H 0.6501 0.0112 0.3098
H29 H 0.7150 0.0218 0.2384
Zn7 Zn 0.91527(3) 0.54804(6) 0.52725(2)
O15 O 0.8816(2) 0.4560(5) 0.09849(14)
O22 O 0.7927(2) 0.4117(5) 0.04968(14)
O18 O 0.92117(18) 0.2976(4) 0.97769(13)
O20 O 0.90482(18) 0.6426(4) 0.99685(14)
Zn2 Zn 0.7500 0.7500 0.5000
O3 O 0.92117(18) 0.7024(4) 0.47769(13)
O5 O 0.84362(19) 0.8531(4) 0.49971(16)
O6 O 0.7238(2) 0.8833(4) 0.56164(16)
C2 C 0.9338(2) 0.9397(5) 0.45401(17)
C3 C 0.9813(2) 0.9095(5) 0.41852(19)
H2 H 0.9895 0.8162 0.4097
C19 C 0.8945(2) 0.8218(5) 0.47917(18)
H17 H 0.6622 0.9639 0.6225
O9 O 0.6184(2) 0.9560(5) 0.40151(14)
O13 O 0.7073(2) 0.9117(5) 0.45032(14)
C31 C 0.9317(3) 0.9904(5) 0.1440(2)
C32 C 0.9396(3) 0.8817(6) 0.1797(2)
H22 H 0.9748 0.8186 0.1764
C33 C 0.8965(3) 0.8647(6) 0.2200(2)
H23 H 0.9036 0.7911 0.2433
C34 C 0.8429(3) 0.9550(6) 0.2263(2)
C37 C 0.8003(3) 0.9466(6) 0.2714(2)
C38 C 0.8267(3) 0.8986(8) 0.3185(2)
H26 H 0.8709 0.8679 0.3212
C39 C 0.7871(3) 0.8966(8) 0.3614(2)
H27 H 0.8062 0.8685 0.3931
C40 C 0.7204(3) 0.9346(6) 0.3591(2)
C41 C 0.6947(3) 0.9824(7) 0.3125(2)
C42 C 0.7338(3) 0.9885(8) 0.2695(2)
C45 C 0.6803(3) 0.9327(5) 0.4061(2)
O14 O 0.7762(2) 0.6167(4) 0.43836(16)
N2 N 0.7787(2) 0.3999(4) 0.4051(2)
C46 C 0.7516(6) 0.2694(7) 0.4097(6)
H30 H 0.7106 0.2757 0.4281
H31 H 0.7423 0.2308 0.3758
H32 H 0.7826 0.2094 0.4284
C47 C 0.8302(4) 0.4365(13) 0.3750(3)
H33 H 0.8700 0.3871 0.3864
H34 H 0.8194 0.4121 0.3396
H35 H 0.8378 0.5361 0.3775
C48 C 0.7562(4) 0.4920(8) 0.4405(3)
H36 H 0.7268 0.4635 0.4657
Zn4 Zn 0.58473(3) 0.95196(6) 0.47275(2)
O21 O 0.65638(19) 0.6469(4) 0.50029(16)
O24 O 0.7927(2) 0.5883(5) 0.54968(14)
N1_2 N 0.2787(2) 0.1001(4) 0.9051(2)
C22_2 C 0.2516(6) 0.2306(7) 0.9097(6)
H12_2 H 0.2106 0.2243 0.9281
H13_2 H 0.2423 0.2692 0.8758
H14_2 H 0.2826 0.2906 0.9284
C23_2 C 0.3302(4) 0.0635(13) 0.8750(3)
H15_2 H 0.3700 0.1129 0.8864
H16_2 H 0.3194 0.0879 0.8396
C24_2 C 0.2562(4) 0.0080(8) 0.9405(3)
H18_2 H 0.2268 0.0365 0.9657
O14_2 O 0.2238(2) 0.6167(4) 0.06164(16)
N2_2 N 0.2213(2) 0.3999(4) 0.0949(2)
C46_2 C 0.2484(6) 0.2694(7) 0.0903(6)
H30_2 H 0.2894 0.2757 0.0719
H31_2 H 0.2577 0.2308 0.1242
H32_2 H 0.2174 0.2094 0.0716
C47_2 C 0.1698(4) 0.4365(13) 0.1250(3)
H33_2 H 0.1300 0.3871 0.1136
H34_2 H 0.1806 0.4121 0.1604
H35_2 H 0.1622 0.5361 0.1225
C48_2 C 0.2438(4) 0.4920(8) 0.0595(3)
H36_2 H 0.2732 0.4635 0.0343
O6_2 O 0.2762(2) 0.8833(4) 0.93836(16)
H17_2 H 0.3378 0.9639 0.8775
O21_2 O 0.34362(19) 0.6469(4) 0.99971(16)
O24_2 O 0.2073(2) 0.5883(5) 0.95032(14)
Zn7_2 Zn 0.41527(3) 0.04804(6) 0.52725(2)
O19_2 O 0.59518(18) 0.1426(4) 0.50315(14)
Zn9_2 Zn 0.58473(3) 0.04804(6) 0.97275(2)
O20_2 O 0.40482(18) 0.1426(4) 0.99685(14)
Zn2_2 Zn 0.2500 0.2500 0.5000
O1_2 O 0.48763(18) 0.9274(3) 0.44848(14)
O3_2 O 0.42117(18) 0.2024(4) 0.47769(13)
O4_2 O 0.40482(18) 0.8574(4) 0.49685(14)
O5_2 O 0.34362(19) 0.3531(4) 0.49971(16)
O6_3 O 0.2238(2) 0.3833(4) 0.56164(16)
N1_3 N 0.2213(2) 0.6001(4) 0.5949(2)
C1_2 C 0.4209(2) 0.5776(5) 0.46773(18)
H1_2 H 0.3874 0.5976 0.4908
C2_2 C 0.4338(2) 0.4397(5) 0.45401(17)
C3_2 C 0.4813(2) 0.4095(5) 0.41852(19)
H2_2 H 0.4895 0.3162 0.4097
C4_2 C 0.5181(3) 0.5182(5) 0.39525(19)
C5_2 C 0.5041(2) 0.6573(5) 0.41155(17)
H3_2 H 0.5275 0.7318 0.3973
C6_2 C 0.4578(2) 0.6850(5) 0.44719(18)
C7_2 C 0.5683(3) 0.4904(5) 0.3560(2)
C8_2 C 0.5604(3) 0.3817(6) 0.3203(2)
H4_2 H 0.5252 0.3186 0.3236
C9_2 C 0.6035(3) 0.3647(6) 0.2800(2)
H5_2 H 0.5964 0.2911 0.2567
C10_2 C 0.6571(3) 0.4550(6) 0.2737(2)
C11_2 C 0.6660(3) 0.5633(6) 0.3106(2)
H6_2 H 0.7019 0.6250 0.3078
C12_2 C 0.6231(3) 0.5797(6) 0.3504(2)
H7_2 H 0.6307 0.6518 0.3743
C13_2 C 0.6997(3) 0.4466(6) 0.2286(2)
C14_2 C 0.6733(3) 0.3986(8) 0.1815(2)
H8_2 H 0.6291 0.3679 0.1788
C15_2 C 0.7129(3) 0.3966(8) 0.1386(2)
H9_2 H 0.6938 0.3685 0.1069
C16_2 C 0.7796(3) 0.4346(6) 0.1409(2)
C17_2 C 0.8053(3) 0.4824(7) 0.1875(2)
H10_2 H 0.8499 0.5112 0.1902
C18_2 C 0.7662(3) 0.4885(8) 0.2305(2)
H11_2 H 0.7850 0.5218 0.2616
C19_2 C 0.3945(2) 0.3218(5) 0.47917(18)
C20_2 C 0.4490(2) 0.8340(5) 0.46505(18)
C21_2 C 0.8197(3) 0.4327(5) 0.0939(2)
C22_3 C 0.2484(6) 0.7306(7) 0.5903(6)
H12_3 H 0.2894 0.7243 0.5719
H13_3 H 0.2577 0.7692 0.6242
H14_3 H 0.2174 0.7906 0.5716
C23_3 C 0.1698(4) 0.5635(13) 0.6250(3)
H15_3 H 0.1300 0.6129 0.6136
H16_3 H 0.1806 0.5879 0.6604
H17_3 H 0.1622 0.4639 0.6225
C24_3 C 0.2438(4) 0.5080(8) 0.5595(3)
H18_3 H 0.2732 0.5365 0.5343
O8_2 O 0.51237(18) 0.9274(3) 0.05152(14)
O10_2 O 0.57883(18) 0.2024(4) 0.02231(13)
O11_2 O 0.59518(18) 0.8574(4) 0.00315(14)
O12_2 O 0.65638(19) 0.3531(4) 0.00029(16)
C25_2 C 0.5791(2) 0.5776(5) 0.03227(18)
H19_2 H 0.6126 0.5976 0.0092
C26_2 C 0.5662(2) 0.4397(5) 0.04599(17)
C27_2 C 0.5187(2) 0.4095(5) 0.08148(19)
H20_2 H 0.5105 0.3162 0.0903
C28_2 C 0.4819(3) 0.5182(5) 0.10475(19)
C29_2 C 0.4959(2) 0.6573(5) 0.08845(17)
H21_2 H 0.4725 0.7318 0.1027
C30_2 C 0.5422(2) 0.6850(5) 0.05281(18)
C31_2 C 0.4317(3) 0.4904(5) 0.1440(2)
C32_2 C 0.4396(3) 0.3817(6) 0.1797(2)
H22_2 H 0.4748 0.3186 0.1764
C33_2 C 0.3965(3) 0.3647(6) 0.2200(2)
H23_2 H 0.4036 0.2911 0.2433
C34_2 C 0.3429(3) 0.4550(6) 0.2263(2)
C35_2 C 0.3340(3) 0.5633(6) 0.1894(2)
H24_2 H 0.2981 0.6250 0.1922
C36_2 C 0.3769(3) 0.5797(6) 0.1496(2)
H25_2 H 0.3693 0.6518 0.1257
C37_2 C 0.3003(3) 0.4466(6) 0.2714(2)
C38_2 C 0.3267(3) 0.3986(8) 0.3185(2)
H26_2 H 0.3709 0.3679 0.3212
C39_2 C 0.2871(3) 0.3966(8) 0.3614(2)
H27_2 H 0.3062 0.3685 0.3931
C40_2 C 0.2204(3) 0.4346(6) 0.3591(2)
C41_2 C 0.1947(3) 0.4824(7) 0.3125(2)
H28_2 H 0.1501 0.5112 0.3098
C42_2 C 0.2338(3) 0.4885(8) 0.2695(2)
H29_2 H 0.2150 0.5218 0.2384
C43_2 C 0.6055(2) 0.3218(5) 0.02083(18)
C44_2 C 0.5510(2) 0.8340(5) 0.03495(18)
C45_2 C 0.1803(3) 0.4327(5) 0.4061(2)
O14_3 O 0.2762(2) 0.1167(4) 0.43836(16)
H35_3 H 0.3378 0.0361 0.3775
Zn10_3 Zn 0.7500 0.2500 0.0000
O17_2 O 0.57883(18) 0.7976(4) 0.52231(13)
O21_3 O 0.15638(19) 0.1469(4) 0.50029(16)
O24_3 O 0.2927(2) 0.0883(5) 0.54968(14)
Zn10_4 Zn 0.7500 0.2500 1.0000
O18_2 O 0.42117(18) 0.7976(4) 0.97769(13)
N2_3 N 0.2787(2) 0.8999(4) 0.4051(2)
C46_3 C 0.2516(6) 0.7694(7) 0.4097(6)
H30_3 H 0.2106 0.7757 0.4281
H31_3 H 0.2423 0.7308 0.3758
H32_3 H 0.2826 0.7094 0.4284
C47_3 C 0.3302(4) 0.9365(13) 0.3750(3)
H33_3 H 0.3700 0.8871 0.3864
H34_3 H 0.3194 0.9121 0.3396
C48_3 C 0.2562(4) 0.9920(8) 0.4405(3)
H36_3 H 0.2268 0.9635 0.4657
O14_4 O 0.7238(2) 0.1167(4) 0.06164(16)
H35_4 H 0.6622 0.0361 0.1225
O6_4 O 0.7762(2) 0.3833(4) 0.93836(16)
N1_4 N 0.7787(2) 0.6001(4) 0.9051(2)
C22_4 C 0.7516(6) 0.7306(7) 0.9097(6)
H12_4 H 0.7106 0.7243 0.9281
H13_4 H 0.7423 0.7692 0.8758
H14_4 H 0.7826 0.7906 0.9284
C23_4 C 0.8302(4) 0.5635(13) 0.8750(3)
H15_4 H 0.8700 0.6129 0.8864
H16_4 H 0.8194 0.5879 0.8396
H17_4 H 0.8378 0.4639 0.8775
C24_4 C 0.7562(4) 0.5080(8) 0.9405(3)
H18_4 H 0.7268 0.5365 0.9657
O21_4 O 0.84362(19) 0.1469(4) 0.99971(16)
O24_4 O 0.7073(2) 0.0883(5) 0.95032(14)
N2_4 N 0.7213(2) 0.8999(4) 0.0949(2)
C46_4 C 0.7484(6) 0.7694(7) 0.0903(6)
H30_4 H 0.7894 0.7757 0.0719
H31_4 H 0.7577 0.7308 0.1242
H32_4 H 0.7174 0.7094 0.0716
C47_4 C 0.6698(4) 0.9365(13) 0.1250(3)
H33_4 H 0.6300 0.8871 0.1136
H34_4 H 0.6806 0.9121 0.1604
C48_4 C 0.7438(4) 0.9920(8) 0.0595(3)
H36_4 H 0.7732 0.9635 0.0343
C2_3 C 0.0662(2) 0.0603(5) 0.54599(17)
C3_3 C 0.0187(2) 0.0905(5) 0.58148(19)
H2_3 H 0.0105 0.1838 0.5903
C19_3 C 0.1055(2) 0.1782(5) 0.52083(18)
O9_2 O 0.3816(2) 0.0440(5) 0.59849(14)
C31_3 C 0.0683(3) 0.0096(5) 0.8560(2)
C32_3 C 0.0604(3) 0.1183(6) 0.8203(2)
H22_3 H 0.0252 0.1814 0.8236
C33_3 C 0.1035(3) 0.1353(6) 0.7800(2)
H23_3 H 0.0964 0.2089 0.7567
C34_3 C 0.1571(3) 0.0450(6) 0.7737(2)
C37_3 C 0.1997(3) 0.0534(6) 0.7286(2)
C38_3 C 0.1733(3) 0.1014(8) 0.6815(2)
H26_3 H 0.1291 0.1321 0.6788
C39_3 C 0.2129(3) 0.1034(8) 0.6386(2)
H27_3 H 0.1938 0.1315 0.6069
C40_3 C 0.2796(3) 0.0654(6) 0.6409(2)
C41_3 C 0.3053(3) 0.0176(7) 0.6875(2)
C42_3 C 0.2662(3) 0.0115(8) 0.7305(2)
C45_3 C 0.3197(3) 0.0673(5) 0.5939(2)
O1_3 O 0.01237(18) 0.5726(3) 0.55152(14)
C1_3 C 0.0791(2) 0.9224(5) 0.53227(18)
H1_3 H 0.1126 0.9024 0.5092
C6_3 C 0.0422(2) 0.8150(5) 0.55281(18)
C20_3 C 0.0510(2) 0.6660(5) 0.53495(18)
C28_3 C 0.0181(3) 0.9818(5) 0.89525(19)
C29_3 C 0.0041(2) 0.8427(5) 0.91155(17)
H21_3 H 0.0275 0.7682 0.8973
C35_3 C 0.1660(3) 0.9367(6) 0.8106(2)
H24_3 H 0.2019 0.8750 0.8078
C36_3 C 0.1231(3) 0.9203(6) 0.8504(2)
H25_3 H 0.1307 0.8482 0.8743
H28_3 H 0.3499 0.9888 0.6902
H29_3 H 0.2850 0.9782 0.7616
O15_2 O 0.1184(2) 0.5440(5) 0.90151(14)
O2_2 O 0.6184(2) 0.0440(5) 0.90151(14)
C7_3 C 0.9317(3) 0.0096(5) 0.6440(2)
C8_3 C 0.9396(3) 0.1183(6) 0.6797(2)
H4_3 H 0.9748 0.1814 0.6764
C9_3 C 0.8965(3) 0.1353(6) 0.7200(2)
H5_3 H 0.9036 0.2089 0.7433
C10_3 C 0.8429(3) 0.0450(6) 0.7263(2)
C13_3 C 0.8003(3) 0.0534(6) 0.7714(2)
C14_3 C 0.8267(3) 0.1014(8) 0.8185(2)
H8_3 H 0.8709 0.1321 0.8212
C15_3 C 0.7871(3) 0.1034(8) 0.8614(2)
H9_3 H 0.8062 0.1315 0.8931
C16_3 C 0.7204(3) 0.0654(6) 0.8591(2)
C17_3 C 0.6947(3) 0.0176(7) 0.8125(2)
C18_3 C 0.7338(3) 0.0115(8) 0.7695(2)
C21_3 C 0.6803(3) 0.0673(5) 0.9061(2)
C26_3 C 0.9338(2) 0.0603(5) 0.95401(17)
C27_3 C 0.9813(2) 0.0905(5) 0.91852(19)
H20_3 H 0.9895 0.1838 0.9097
C43_3 C 0.8945(2) 0.1782(5) 0.97917(18)
C4_3 C 0.9819(3) 0.9818(5) 0.60475(19)
C5_3 C 0.9959(2) 0.8427(5) 0.58845(17)
H3_3 H 0.9725 0.7682 0.6027
C11_3 C 0.8340(3) 0.9367(6) 0.6894(2)
H6_3 H 0.7981 0.8750 0.6922
C12_3 C 0.8769(3) 0.9203(6) 0.6496(2)
H7_3 H 0.8693 0.8482 0.6257
H10_3 H 0.6501 0.9888 0.8098
H11_3 H 0.7150 0.9782 0.7384
O8_3 O 0.98763(18) 0.5726(3) 0.94848(14)
C25_3 C 0.9209(2) 0.9224(5) 0.96773(18)
H19_3 H 0.8874 0.9024 0.9908
C30_3 C 0.9578(2) 0.8150(5) 0.94719(18)
C44_3 C 0.9490(2) 0.6660(5) 0.96505(18)
O16_2 O 0.8816(2) 0.5440(5) 0.59849(14)
O1_4 O 0.51237(18) 0.0726(3) 0.55152(14)
C1_4 C 0.5791(2) 0.4224(5) 0.53227(18)
H1_4 H 0.6126 0.4024 0.5092
C2_4 C 0.5662(2) 0.5603(5) 0.54599(17)
C3_4 C 0.5187(2) 0.5905(5) 0.58148(19)
H2_4 H 0.5105 0.6838 0.5903
C4_4 C 0.4819(3) 0.4818(5) 0.60475(19)
C5_4 C 0.4959(2) 0.3427(5) 0.58845(17)
H3_4 H 0.4725 0.2682 0.6027
C6_4 C 0.5422(2) 0.3150(5) 0.55281(18)
C7_4 C 0.4317(3) 0.5096(5) 0.6440(2)
C8_4 C 0.4396(3) 0.6183(6) 0.6797(2)
H4_4 H 0.4748 0.6814 0.6764
C9_4 C 0.3965(3) 0.6353(6) 0.7200(2)
H5_4 H 0.4036 0.7089 0.7433
C10_4 C 0.3429(3) 0.5450(6) 0.7263(2)
C11_4 C 0.3340(3) 0.4367(6) 0.6894(2)
H6_4 H 0.2981 0.3750 0.6922
C12_4 C 0.3769(3) 0.4203(6) 0.6496(2)
H7_4 H 0.3693 0.3482 0.6257
C13_4 C 0.3003(3) 0.5534(6) 0.7714(2)
C14_4 C 0.3267(3) 0.6014(8) 0.8185(2)
H8_4 H 0.3709 0.6321 0.8212
C15_4 C 0.2871(3) 0.6034(8) 0.8614(2)
H9_4 H 0.3062 0.6315 0.8931
C16_4 C 0.2204(3) 0.5654(6) 0.8591(2)
C17_4 C 0.1947(3) 0.5176(7) 0.8125(2)
H10_4 H 0.1501 0.4888 0.8098
C18_4 C 0.2338(3) 0.5115(8) 0.7695(2)
H11_4 H 0.2150 0.4782 0.7384
C19_4 C 0.6055(2) 0.6782(5) 0.52083(18)
C20_4 C 0.5510(2) 0.1660(5) 0.53495(18)
C21_4 C 0.1803(3) 0.5673(5) 0.9061(2)
O8_4 O 0.48763(18) 0.0726(3) 0.94848(14)
C25_4 C 0.4209(2) 0.4224(5) 0.96773(18)
H19_4 H 0.3874 0.4024 0.9908
C26_4 C 0.4338(2) 0.5603(5) 0.95401(17)
C27_4 C 0.4813(2) 0.5905(5) 0.91852(19)
H20_4 H 0.4895 0.6838 0.9097
C28_4 C 0.5181(3) 0.4818(5) 0.89525(19)
C29_4 C 0.5041(2) 0.3427(5) 0.91155(17)
H21_4 H 0.5275 0.2682 0.8973
C30_4 C 0.4578(2) 0.3150(5) 0.94719(18)
C31_4 C 0.5683(3) 0.5096(5) 0.8560(2)
C32_4 C 0.5604(3) 0.6183(6) 0.8203(2)
H22_4 H 0.5252 0.6814 0.8236
C33_4 C 0.6035(3) 0.6353(6) 0.7800(2)
H23_4 H 0.5964 0.7089 0.7567
C34_4 C 0.6571(3) 0.5450(6) 0.7737(2)
C35_4 C 0.6660(3) 0.4367(6) 0.8106(2)
H24_4 H 0.7019 0.3750 0.8078
C36_4 C 0.6231(3) 0.4203(6) 0.8504(2)
H25_4 H 0.6307 0.3482 0.8743
C37_4 C 0.6997(3) 0.5534(6) 0.7286(2)
C38_4 C 0.6733(3) 0.6014(8) 0.6815(2)
H26_4 H 0.6291 0.6321 0.6788
C39_4 C 0.7129(3) 0.6034(8) 0.6386(2)
H27_4 H 0.6938 0.6315 0.6069
C40_4 C 0.7796(3) 0.5654(6) 0.6409(2)
C41_4 C 0.8053(3) 0.5176(7) 0.6875(2)
H28_4 H 0.8499 0.4888 0.6902
C42_4 C 0.7662(3) 0.5115(8) 0.7305(2)
H29_4 H 0.7850 0.4782 0.7616
C43_4 C 0.3945(2) 0.6782(5) 0.97917(18)
C44_4 C 0.4490(2) 0.1660(5) 0.96505(18)
C45_4 C 0.8197(3) 0.5673(5) 0.5939(2)
loop_
_geom_bond_atom_site_label_1
_geom_bond_atom_site_label_2
_geom_bond_site_symmetry_1
_geom_bond_site_symmetry_2
C5 C4 1_555 1_555
H3 C5 1_555 1_555
H6 C11 1_555 1_555
H7 C12 1_555 1_555
O8 C44 1_555 1_555
O11 C44 1_555 1_555
C25 H19 1_555 1_555
C30 C25 1_555 1_555
C44 C30 1_555 1_555
O16 Zn1 1_555 1_555
O17 Zn1 1_555 1_555
O19 Zn1 1_555 1_555
O23 Zn1 1_555 1_555
C11 C12 1_555 1_555
O2 C21 1_555 1_555
O7 C21 1_555 1_555
C8 C7 1_555 1_555
H4 C8 1_555 1_555
C9 C8 1_555 1_555
H5 C9 1_555 1_555
C10 C9 1_555 1_555
C13 C10 1_555 1_555
C14 C13 1_555 1_555
H8 C14 1_555 1_555
C15 C14 1_555 1_555
H9 C15 1_555 1_555
C16 C15 1_555 1_555
C17 C16 1_555 1_555
C18 C13 1_555 1_555
C21 C16 1_555 1_555
O10 C43 1_555 1_555
O12 C43 1_555 1_555
C27 C26 1_555 1_555
H20 C27 1_555 1_555
C43 C26 1_555 1_555
Zn5 O2 1_555 1_555
Zn10 O7 1_555 1_555
O7 Zn5 1_555 1_555
C17 C18 1_555 1_555
O12 Zn10 1_555 1_555
O1 C20 1_555 1_555
O4 C20 1_555 1_555
N1 C22 1_555 1_555
C1 H1 1_555 1_555
C6 C1 1_555 1_555
C20 C6 1_555 1_555
C22 H12 1_555 1_555
H13 C22 1_555 1_555
H14 C22 1_555 1_555
C23 N1 1_555 1_555
H15 C23 1_555 1_555
H16 C23 1_555 1_555
H18 C24 1_555 1_555
C29 C28 1_555 1_555
H21 C29 1_555 1_555
H24 C35 1_555 1_555
H25 C36 1_555 1_555
Zn7 O4 1_555 1_555
O15 Zn3 1_555 1_555
O22 Zn3 1_555 1_555
N1 C24 1_555 1_555
C35 C36 1_555 1_555
Zn2 O5 1_555 1_555
O3 C19 1_555 1_555
O5 C19 1_555 1_555
O6 Zn2 1_555 1_555
C3 C2 1_555 1_555
H2 C3 1_555 1_555
C19 C2 1_555 1_555
O9 C45 1_555 1_555
O13 Zn2 1_555 1_555
C32 C31 1_555 1_555
H22 C32 1_555 1_555
C33 C32 1_555 1_555
H23 C33 1_555 1_555
C34 C33 1_555 1_555
C37 C34 1_555 1_555
C38 C37 1_555 1_555
H26 C38 1_555 1_555
C39 C38 1_555 1_555
H27 C39 1_555 1_555
C40 C39 1_555 1_555
C41 C40 1_555 1_555
C42 C37 1_555 1_555
C45 O13 1_555 1_555
O14 Zn2 1_555 1_555
N2 C46 1_555 1_555
C46 H30 1_555 1_555
H31 C46 1_555 1_555
H32 C46 1_555 1_555
C47 N2 1_555 1_555
H33 C47 1_555 1_555
H34 C47 1_555 1_555
H35 C47 1_555 1_555
C48 O14 1_555 1_555
H36 C48 1_555 1_555
Zn4 O9 1_555 1_555
Zn7 O3 1_555 1_555
O21 Zn2 1_555 1_555
O24 Zn2 1_555 1_555
O13 Zn4 1_555 1_555
C40 C45 1_555 1_555
C41 C42 1_555 1_555
N2 C48 1_555 1_555
Zn7 O24 1_555 1_555
N1_2 C22_2 1_555 1_555
C22_2 H12_2 1_555 1_555
H13_2 C22_2 1_555 1_555
H14_2 C22_2 1_555 1_555
C23_2 N1_2 1_555 1_555
H15_2 C23_2 1_555 1_555
H16_2 C23_2 1_555 1_555
H18_2 C24_2 1_555 1_555
N1_2 C24_2 1_555 1_555
O14_2 Zn10 1_555 1_555
N2_2 C46_2 1_555 1_555
C46_2 H30_2 1_555 1_555
H31_2 C46_2 1_555 1_555
H32_2 C46_2 1_555 1_555
C47_2 N2_2 1_555 1_555
H33_2 C47_2 1_555 1_555
H34_2 C47_2 1_555 1_555
H35_2 C47_2 1_555 1_555
C48_2 O14_2 1_555 1_555
H36_2 C48_2 1_555 1_555
N2_2 C48_2 1_555 1_555
O6_2 Zn10_2 1_555 1_555
O21_2 Zn10_2 1_555 1_555
O24_2 Zn10_2 1_555 1_555
Zn9 O24_2 1_555 1_555
Zn4 O1_2 1_555 1_555
Zn2_2 O5_2 1_555 1_555
O1_2 C20_2 1_555 1_555
O15 C21_2 1_555 1_555
O3_2 C19_2 1_555 1_555
O4_2 C20_2 1_555 1_555
O5_2 C19_2 1_555 1_555
O6_3 Zn2_2 1_555 1_555
O22 C21_2 1_555 1_555
N1_3 C22_3 1_555 1_555
C1_2 H1_2 1_555 1_555
C2_2 C1_2 1_555 1_555
C3_2 C2_2 1_555 1_555
H2_2 C3_2 1_555 1_555
C4_2 C3_2 1_555 1_555
C5_2 C4_2 1_555 1_555
H3_2 C5_2 1_555 1_555
C6_2 C1_2 1_555 1_555
C7_2 C4_2 1_555 1_555
C8_2 C7_2 1_555 1_555
H4_2 C8_2 1_555 1_555
C9_2 C8_2 1_555 1_555
H5_2 C9_2 1_555 1_555
C10_2 C9_2 1_555 1_555
C11_2 C10_2 1_555 1_555
H6_2 C11_2 1_555 1_555
C12_2 C7_2 1_555 1_555
H7_2 C12_2 1_555 1_555
C13_2 C10_2 1_555 1_555
C14_2 C13_2 1_555 1_555
H8_2 C14_2 1_555 1_555
C15_2 C14_2 1_555 1_555
H9_2 C15_2 1_555 1_555
C16_2 C15_2 1_555 1_555
C17_2 C16_2 1_555 1_555
H10_2 C17_2 1_555 1_555
C18_2 C13_2 1_555 1_555
H11_2 C18_2 1_555 1_555
C19_2 C2_2 1_555 1_555
C20_2 C6_2 1_555 1_555
C21_2 C16_2 1_555 1_555
C22_3 H12_3 1_555 1_555
H13_3 C22_3 1_555 1_555
H14_3 C22_3 1_555 1_555
C23_3 N1_3 1_555 1_555
H15_3 C23_3 1_555 1_555
H16_3 C23_3 1_555 1_555
H17_3 C23_3 1_555 1_555
C24_3 O6_3 1_555 1_555
H18_3 C24_3 1_555 1_555
Zn5 O8_2 1_555 1_555
O8_2 C44_2 1_555 1_555
O16 C45_2 1_555 1_555
O10_2 C43_2 1_555 1_555
O11_2 C44_2 1_555 1_555
O12_2 C43_2 1_555 1_555
O23 Zn2_2 1_555 1_555
C25_2 H19_2 1_555 1_555
C26_2 C25_2 1_555 1_555
C27_2 C26_2 1_555 1_555
H20_2 C27_2 1_555 1_555
C28_2 C27_2 1_555 1_555
C29_2 C28_2 1_555 1_555
H21_2 C29_2 1_555 1_555
C30_2 C25_2 1_555 1_555
C31_2 C28_2 1_555 1_555
C32_2 C31_2 1_555 1_555
H22_2 C32_2 1_555 1_555
C33_2 C32_2 1_555 1_555
H23_2 C33_2 1_555 1_555
C34_2 C33_2 1_555 1_555
C35_2 C34_2 1_555 1_555
H24_2 C35_2 1_555 1_555
C36_2 C31_2 1_555 1_555
H25_2 C36_2 1_555 1_555
C37_2 C34_2 1_555 1_555
C38_2 C37_2 1_555 1_555
H26_2 C38_2 1_555 1_555
C39_2 C38_2 1_555 1_555
H27_2 C39_2 1_555 1_555
C40_2 C39_2 1_555 1_555
C41_2 C40_2 1_555 1_555
H28_2 C41_2 1_555 1_555
C42_2 C37_2 1_555 1_555
H29_2 C42_2 1_555 1_555
C43_2 C26_2 1_555 1_555
C44_2 C30_2 1_555 1_555
C45_2 O23 1_555 1_555
O14_3 Zn2_2 1_555 1_555
Zn7_2 O3_2 1_555 1_555
Zn10_3 O22 1_555 1_555
O17_2 Zn4 1_555 1_555
O21_3 Zn2_2 1_555 1_555
O24_3 Zn2_2 1_555 1_555
N1_3 C24_3 1_555 1_555
C5_2 C6_2 1_555 1_555
C11_2 C12_2 1_555 1_555
C17_2 C18_2 1_555 1_555
O12_2 Zn10_3 1_555 1_555
C29_2 C30_2 1_555 1_555
C35_2 C36_2 1_555 1_555
C40_2 C45_2 1_555 1_555
C41_2 C42_2 1_555 1_555
Zn7_2 O24_3 1_555 1_555
N2_3 C46_3 1_555 1_555
C46_3 H30_3 1_555 1_555
H31_3 C46_3 1_555 1_555
H32_3 C46_3 1_555 1_555
C47_3 N2_3 1_555 1_555
H33_3 C47_3 1_555 1_555
H34_3 C47_3 1_555 1_555
H36_3 C48_3 1_555 1_555
N2_3 C48_3 1_555 1_555
O14_4 Zn10_3 1_555 1_555
O6_4 Zn10_4 1_555 1_555
N1_4 C22_4 1_555 1_555
C22_4 H12_4 1_555 1_555
H13_4 C22_4 1_555 1_555
H14_4 C22_4 1_555 1_555
C23_4 N1_4 1_555 1_555
H15_4 C23_4 1_555 1_555
H16_4 C23_4 1_555 1_555
H17_4 C23_4 1_555 1_555
C24_4 O6_4 1_555 1_555
H18_4 C24_4 1_555 1_555
O21_4 Zn10_4 1_555 1_555
O24_4 Zn10_4 1_555 1_555
N1_4 C24_4 1_555 1_555
Zn9_2 O24_4 1_555 1_555
N2_4 C46_4 1_555 1_555
C46_4 H30_4 1_555 1_555
H31_4 C46_4 1_555 1_555
H32_4 C46_4 1_555 1_555
C47_4 N2_4 1_555 1_555
H33_4 C47_4 1_555 1_555
H34_4 C47_4 1_555 1_555
H36_4 C48_4 1_555 1_555
N2_4 C48_4 1_555 1_555
O17 C19_3 1_555 1_555
O21_3 C19_3 1_555 1_555
C3_3 C2_3 1_555 1_555
H2_3 C3_3 1_555 1_555
C19_3 C2_3 1_555 1_555
O9_2 C45_3 1_555 1_555
C32_3 C31_3 1_555 1_555
H22_3 C32_3 1_555 1_555
C33_3 C32_3 1_555 1_555
H23_3 C33_3 1_555 1_555
C34_3 C33_3 1_555 1_555
C37_3 C34_3 1_555 1_555
C38_3 C37_3 1_555 1_555
H26_3 C38_3 1_555 1_555
C39_3 C38_3 1_555 1_555
H27_3 C39_3 1_555 1_555
C40_3 C39_3 1_555 1_555
C41_3 C40_3 1_555 1_555
C42_3 C37_3 1_555 1_555
C45_3 O24_3 1_555 1_555
Zn7_2 O9_2 1_555 1_555
C40_3 C45_3 1_555 1_555
C41_3 C42_3 1_555 1_555
O1_3 C20_3 1_555 1_555
O19 C20_3 1_555 1_555
C1_3 H1_3 1_555 1_555
C6_3 C1_3 1_555 1_555
C20_3 C6_3 1_555 1_555
C29_3 C28_3 1_555 1_555
H21_3 C29_3 1_555 1_555
H24_3 C35_3 1_555 1_555
H25_3 C36_3 1_555 1_555
O15_2 Zn9 1_555 1_555
C35_3 C36_3 1_555 1_555
O2_2 C21_3 1_555 1_555
O24_4 C21_3 1_555 1_555
C8_3 C7_3 1_555 1_555
H4_3 C8_3 1_555 1_555
C9_3 C8_3 1_555 1_555
H5_3 C9_3 1_555 1_555
C10_3 C9_3 1_555 1_555
C13_3 C10_3 1_555 1_555
C14_3 C13_3 1_555 1_555
H8_3 C14_3 1_555 1_555
C15_3 C14_3 1_555 1_555
H9_3 C15_3 1_555 1_555
C16_3 C15_3 1_555 1_555
C17_3 C16_3 1_555 1_555
C18_3 C13_3 1_555 1_555
C21_3 C16_3 1_555 1_555
O18 C43_3 1_555 1_555
O21_4 C43_3 1_555 1_555
C27_3 C26_3 1_555 1_555
H20_3 C27_3 1_555 1_555
C43_3 C26_3 1_555 1_555
Zn9_2 O2_2 1_555 1_555
C17_3 C18_3 1_555 1_555
C5_3 C4_3 1_555 1_555
H3_3 C5_3 1_555 1_555
H6_3 C11_3 1_555 1_555
H7_3 C12_3 1_555 1_555
O8_3 C44_3 1_555 1_555
O20 C44_3 1_555 1_555
C25_3 H19_3 1_555 1_555
C30_3 C25_3 1_555 1_555
C44_3 C30_3 1_555 1_555
O16_2 Zn7 1_555 1_555
C11_3 C12_3 1_555 1_555
Zn7_2 O1_4 1_555 1_555
O1_4 C20_4 1_555 1_555
O15_2 C21_4 1_555 1_555
O17_2 C19_4 1_555 1_555
O19_2 C20_4 1_555 1_555
O21 C19_4 1_555 1_555
O24_2 C21_4 1_555 1_555
C1_4 H1_4 1_555 1_555
C2_4 C1_4 1_555 1_555
C3_4 C2_4 1_555 1_555
H2_4 C3_4 1_555 1_555
C4_4 C3_4 1_555 1_555
C5_4 C4_4 1_555 1_555
H3_4 C5_4 1_555 1_555
C6_4 C1_4 1_555 1_555
C7_4 C4_4 1_555 1_555
C8_4 C7_4 1_555 1_555
H4_4 C8_4 1_555 1_555
C9_4 C8_4 1_555 1_555
H5_4 C9_4 1_555 1_555
C10_4 C9_4 1_555 1_555
C11_4 C10_4 1_555 1_555
H6_4 C11_4 1_555 1_555
C12_4 C7_4 1_555 1_555
H7_4 C12_4 1_555 1_555
C13_4 C10_4 1_555 1_555
C14_4 C13_4 1_555 1_555
H8_4 C14_4 1_555 1_555
C15_4 C14_4 1_555 1_555
H9_4 C15_4 1_555 1_555
C16_4 C15_4 1_555 1_555
C17_4 C16_4 1_555 1_555
H10_4 C17_4 1_555 1_555
C18_4 C13_4 1_555 1_555
H11_4 C18_4 1_555 1_555
C19_4 C2_4 1_555 1_555
C20_4 C6_4 1_555 1_555
C21_4 C16_4 1_555 1_555
Zn9_2 O8_4 1_555 1_555
O8_4 C44_4 1_555 1_555
O16_2 C45_4 1_555 1_555
O18_2 C43_4 1_555 1_555
O20_2 C44_4 1_555 1_555
O21_2 C43_4 1_555 1_555
C25_4 H19_4 1_555 1_555
C26_4 C25_4 1_555 1_555
C27_4 C26_4 1_555 1_555
H20_4 C27_4 1_555 1_555
C28_4 C27_4 1_555 1_555
C29_4 C28_4 1_555 1_555
H21_4 C29_4 1_555 1_555
C30_4 C25_4 1_555 1_555
C31_4 C28_4 1_555 1_555
C32_4 C31_4 1_555 1_555
H22_4 C32_4 1_555 1_555
C33_4 C32_4 1_555 1_555
H23_4 C33_4 1_555 1_555
C34_4 C33_4 1_555 1_555
C35_4 C34_4 1_555 1_555
H24_4 C35_4 1_555 1_555
C36_4 C31_4 1_555 1_555
H25_4 C36_4 1_555 1_555
C37_4 C34_4 1_555 1_555
C38_4 C37_4 1_555 1_555
H26_4 C38_4 1_555 1_555
C39_4 C38_4 1_555 1_555
H27_4 C39_4 1_555 1_555
C40_4 C39_4 1_555 1_555
C41_4 C40_4 1_555 1_555
H28_4 C41_4 1_555 1_555
C42_4 C37_4 1_555 1_555
H29_4 C42_4 1_555 1_555
C43_4 C26_4 1_555 1_555
C44_4 C30_4 1_555 1_555
C45_4 O24 1_555 1_555
C5_4 C6_4 1_555 1_555
C11_4 C12_4 1_555 1_555
C17_4 C18_4 1_555 1_555
C29_4 C30_4 1_555 1_555
C35_4 C36_4 1_555 1_555
C40_4 C45_4 1_555 1_555
C41_4 C42_4 1_555 1_555

#END
