
###############################################################################
#
# This file contains modified crystal structure data generated from the
# MOF subset of the Cambridge Structural Database (CSD) v543 
# hosted by the Cambridge Crystallographic Data Centre (CCDC).
#
# This work is licensed under the Creative Commons
# Attribution-NonCommercial-ShareAlike 4.0 International License.
# To view a copy of this license, visit
# http://creativecommons.org/licenses/by-nc-sa/4.0/
# or send a letter to
# Creative Commons, PO Box 1866, Mountain View, CA 94042, USA.
#
# CIF created using the CSD Python API on 29 September 2022
# The structure has been converted into the P1 space group
# The structure has a 3D framework
# The original CSD entry FAGXOD is in the orthorhombic crystal system
# The framework has been calculated to contain at least 10.0% void space
# The void calculation uses a probe of radius 1.32A, grid spacing 0.4
#
###############################################################################

data_FAGXOD
_chemical_formula_moiety         '(C184 H152 N8 O44 Zn4)n'
_symmetry_cell_setting           triclinic
_symmetry_space_group_name_H-M   'P 1'
_symmetry_Int_Tables_number      1
_space_group_name_Hall           'P 1'
loop_
_symmetry_equiv_pos_site_id
_symmetry_equiv_pos_as_xyz
1 x,y,z
_cell_length_a                   16.7153(8)
_cell_length_b                   8.4558(4)
_cell_length_c                   35.4943(17)
_cell_angle_alpha                90
_cell_angle_beta                 90
_cell_angle_gamma                90
_cell_volume                     5016.81
loop_
_atom_site_label
_atom_site_type_symbol
_atom_site_fract_x
_atom_site_fract_y
_atom_site_fract_z
Zn4 Zn 0.021971(16) 0.11268(4) 0.949785(8)
O2 O 0.59506(11) 0.3133(2) 0.01118(5)
Zn3 Zn 0.521971(16) 0.38732(4) 0.050215(8)
Zn1 Zn 0.478029(16) 0.61268(4) 0.949785(8)
O1 O 0.51691(10) 0.3976(2) 0.96473(5)
O3 O 0.92988(11) 0.2314(3) 0.93130(6)
O4 O 0.57822(13) 0.5313(3) 0.59456(5)
O5 O 0.87501(13) 0.1830(3) 0.98703(5)
O6 O 0.62617(16) 0.7725(3) 0.60239(6)
C1 C 0.72626(16) 0.2881(3) 0.96352(7)
C2 C 0.79134(16) 0.2839(3) 0.93921(7)
C3 C 0.78100(16) 0.3264(4) 0.90157(7)
C4 C 0.70611(16) 0.3707(3) 0.88782(7)
C5 C 0.64159(15) 0.3732(3) 0.91243(7)
C6 C 0.65145(15) 0.3345(3) 0.95036(7)
C7 C 0.69555(16) 0.4145(3) 0.84745(7)
C8 C 0.75412(17) 0.4971(4) 0.82788(7)
C9 C 0.74445(18) 0.5351(4) 0.79003(8)
C10 C 0.67584(17) 0.4890(3) 0.77046(7)
C11 C 0.61651(17) 0.4083(4) 0.79039(8)
C12 C 0.62594(16) 0.3716(4) 0.82815(8)
C13 C 0.66476(17) 0.5259(4) 0.72989(7)
C14 C 0.6899(2) 0.6677(4) 0.71413(8)
C15 C 0.6761(2) 0.7013(4) 0.67634(8)
C16 C 0.63667(16) 0.5927(4) 0.65344(7)
C17 C 0.61323(19) 0.4492(4) 0.66852(8)
C18 C 0.62724(18) 0.4164(4) 0.70638(8)
C19 C 0.87049(16) 0.2300(3) 0.95431(7)
C20 C 0.58320(15) 0.3506(3) 0.97718(7)
C21 C 0.61372(17) 0.6393(4) 0.61383(8)
H1 H 0.7330 0.2630 0.9889
H2 H 0.8258 0.3119 0.8856
H3 H 0.5911 0.4007 0.9048
H4 H 0.8042 0.5382 0.8404
H5 H 0.7880 0.5834 0.7765
H6 H 0.5684 0.3756 0.7789
H7 H 0.5845 0.3233 0.8430
H8 H 0.7150 0.7482 0.7288
H9 H 0.6903 0.8017 0.6668
H10 H 0.5905 0.3750 0.6548
H11 H 0.6119 0.3199 0.7169
Zn2 Zn 0.521971(16) 0.61268(4) 0.550215(8)
O7 O 0.40494(11) 0.6867(2) 0.98882(5)
O8 O 0.57012(11) 0.7314(3) 0.93130(6)
O9 O 0.42178(13) 0.5313(3) 0.90544(5)
Zn1_2 Zn 0.021971(16) 0.88732(4) 0.449785(8)
O7_2 O 0.09506(11) 0.8133(2) 0.48882(5)
O9_2 O 0.07822(13) 0.9687(3) 0.40544(5)
O1_2 O 0.98309(10) 0.1024(2) 0.46473(5)
O2_2 O 0.90494(11) 0.1867(2) 0.51118(5)
O3_2 O 0.57012(11) 0.2686(3) 0.43130(6)
O5_2 O 0.62499(13) 0.3170(3) 0.48703(5)
C1_2 C 0.77374(16) 0.2119(3) 0.46352(7)
C2_2 C 0.70866(16) 0.2161(3) 0.43921(7)
C3_2 C 0.71900(16) 0.1736(4) 0.40157(7)
C4_2 C 0.79389(16) 0.1293(3) 0.38782(7)
C5_2 C 0.85841(15) 0.1268(3) 0.41243(7)
C6_2 C 0.84855(15) 0.1655(3) 0.45036(7)
C7_2 C 0.80445(16) 0.0855(3) 0.34745(7)
C8_2 C 0.74588(17) 0.0029(4) 0.32788(7)
C10_2 C 0.82416(17) 0.0110(3) 0.27046(7)
C11_2 C 0.88349(17) 0.0917(4) 0.29039(8)
C12_2 C 0.87406(16) 0.1284(4) 0.32815(8)
C17_2 C 0.88677(19) 0.0508(4) 0.16852(8)
C18_2 C 0.87276(18) 0.0836(4) 0.20638(8)
C19_2 C 0.62951(16) 0.2700(3) 0.45431(7)
C20_2 C 0.91680(15) 0.1494(3) 0.47718(7)
H1_2 H 0.7670 0.2370 0.4889
H2_2 H 0.6742 0.1881 0.3856
H3_2 H 0.9089 0.0993 0.4048
H6_2 H 0.9316 0.1244 0.2789
H7_2 H 0.9155 0.1767 0.3430
H10_2 H 0.9095 0.1250 0.1548
H11_2 H 0.8881 0.1801 0.2169
Zn3_2 Zn 0.978029(16) 0.11268(4) 0.550215(8)
Zn4_2 Zn 0.478029(16) 0.38732(4) 0.449785(8)
O4_2 O 0.92178(13) 0.9687(3) 0.09456(5)
O6_2 O 0.87383(16) 0.7275(3) 0.10239(6)
C9_2 C 0.75555(18) 0.9649(4) 0.29003(8)
C13_2 C 0.83524(17) 0.9741(4) 0.22989(7)
C14_2 C 0.8101(2) 0.8323(4) 0.21413(8)
C15_2 C 0.8239(2) 0.7987(4) 0.17634(8)
C16_2 C 0.86333(16) 0.9073(4) 0.15344(7)
C21_2 C 0.88628(17) 0.8607(4) 0.11383(8)
H4_2 H 0.6958 0.9618 0.3404
H5_2 H 0.7120 0.9166 0.2765
H8_2 H 0.7850 0.7518 0.2288
H9_2 H 0.8097 0.6983 0.1668
Zn2_2 Zn 0.978029(16) 0.88732(4) 0.050215(8)
O8_2 O 0.92988(11) 0.7686(3) 0.43130(6)
O1_3 O 0.01691(10) 0.1024(2) 0.03527(5)
O3_3 O 0.42988(11) 0.2686(3) 0.06870(6)
O5_3 O 0.37501(13) 0.3170(3) 0.01297(5)
C1_3 C 0.22626(16) 0.2119(3) 0.03648(7)
C2_3 C 0.29134(16) 0.2161(3) 0.06079(7)
C3_3 C 0.28100(16) 0.1736(4) 0.09843(7)
C4_3 C 0.20611(16) 0.1293(3) 0.11218(7)
C5_3 C 0.14159(15) 0.1268(3) 0.08757(7)
C6_3 C 0.15145(15) 0.1655(3) 0.04964(7)
C7_3 C 0.19555(16) 0.0855(3) 0.15255(7)
C8_3 C 0.25412(17) 0.0029(4) 0.17212(7)
C10_3 C 0.17584(17) 0.0110(3) 0.22954(7)
C11_3 C 0.11651(17) 0.0917(4) 0.20961(8)
C12_3 C 0.12594(16) 0.1284(4) 0.17185(8)
C17_3 C 0.11323(19) 0.0508(4) 0.33148(8)
C18_3 C 0.12724(18) 0.0836(4) 0.29362(8)
C19_3 C 0.37049(16) 0.2700(3) 0.04569(7)
C20_3 C 0.08320(15) 0.1494(3) 0.02282(7)
H1_3 H 0.2330 0.2370 0.0111
H2_3 H 0.3258 0.1881 0.1144
H3_3 H 0.0911 0.0993 0.0952
H6_3 H 0.0684 0.1244 0.2211
H7_3 H 0.0845 0.1767 0.1570
H10_3 H 0.0905 0.1250 0.3452
H11_3 H 0.1119 0.1801 0.2831
O2_3 O 0.09506(11) 0.1867(2) 0.98882(5)
O6_3 O 0.12617(16) 0.7275(3) 0.39761(6)
C9_3 C 0.24445(18) 0.9649(4) 0.20997(8)
C13_3 C 0.16476(17) 0.9741(4) 0.27011(7)
C14_3 C 0.1899(2) 0.8323(4) 0.28587(8)
C15_3 C 0.1761(2) 0.7987(4) 0.32366(8)
C16_3 C 0.13667(16) 0.9073(4) 0.34656(7)
C21_3 C 0.11372(17) 0.8607(4) 0.38617(8)
H4_3 H 0.3042 0.9618 0.1596
H5_3 H 0.2880 0.9166 0.2235
H8_3 H 0.2150 0.7518 0.2712
H9_3 H 0.1903 0.6983 0.3332
O8_3 O 0.07012(11) 0.7686(3) 0.06870(6)
O7_3 O 0.90494(11) 0.8133(2) 0.01118(5)
O1_4 O 0.48309(10) 0.3976(2) 0.53527(5)
O2_4 O 0.40494(11) 0.3133(2) 0.48882(5)
O3_4 O 0.07012(11) 0.2314(3) 0.56870(6)
O5_4 O 0.12499(13) 0.1830(3) 0.51297(5)
O6_4 O 0.37383(16) 0.7725(3) 0.89761(6)
C1_4 C 0.27374(16) 0.2881(3) 0.53648(7)
C2_4 C 0.20866(16) 0.2839(3) 0.56079(7)
C3_4 C 0.21900(16) 0.3264(4) 0.59843(7)
C4_4 C 0.29389(16) 0.3707(3) 0.61218(7)
C5_4 C 0.35841(15) 0.3732(3) 0.58757(7)
C6_4 C 0.34855(15) 0.3345(3) 0.54964(7)
C7_4 C 0.30445(16) 0.4145(3) 0.65255(7)
C8_4 C 0.24588(17) 0.4971(4) 0.67212(7)
C9_4 C 0.25555(18) 0.5351(4) 0.70997(8)
C10_4 C 0.32416(17) 0.4890(3) 0.72954(7)
C11_4 C 0.38349(17) 0.4083(4) 0.70961(8)
C12_4 C 0.37406(16) 0.3716(4) 0.67185(8)
C13_4 C 0.33524(17) 0.5259(4) 0.77011(7)
C14_4 C 0.3101(2) 0.6677(4) 0.78587(8)
C15_4 C 0.3239(2) 0.7013(4) 0.82366(8)
C16_4 C 0.36333(16) 0.5927(4) 0.84656(7)
C17_4 C 0.38677(19) 0.4492(4) 0.83148(8)
C18_4 C 0.37276(18) 0.4164(4) 0.79362(8)
C19_4 C 0.12951(16) 0.2300(3) 0.54569(7)
C20_4 C 0.41680(15) 0.3506(3) 0.52282(7)
C21_4 C 0.38628(17) 0.6393(4) 0.88617(8)
H1_4 H 0.2670 0.2630 0.5111
H2_4 H 0.1742 0.3119 0.6144
H3_4 H 0.4089 0.4007 0.5952
H4_4 H 0.1958 0.5382 0.6596
H5_4 H 0.2120 0.5834 0.7235
H6_4 H 0.4316 0.3756 0.7211
H7_4 H 0.4155 0.3233 0.6570
H8_4 H 0.2850 0.7482 0.7712
H9_4 H 0.3097 0.8017 0.8332
H10_4 H 0.4095 0.3750 0.8452
H11_4 H 0.3881 0.3199 0.7831
O7_4 O 0.59506(11) 0.6867(2) 0.51118(5)
O8_4 O 0.42988(11) 0.7314(3) 0.56870(6)
O1_5 O 0.48309(10) 0.6024(2) 0.03527(5)
O4_3 O 0.42178(13) 0.4687(3) 0.40544(5)
O5_5 O 0.12499(13) 0.8170(3) 0.01297(5)
O6_5 O 0.37383(16) 0.2275(3) 0.39761(6)
C1_5 C 0.27374(16) 0.7119(3) 0.03648(7)
C2_5 C 0.20866(16) 0.7161(3) 0.06079(7)
C3_5 C 0.21900(16) 0.6736(4) 0.09843(7)
C4_5 C 0.29389(16) 0.6293(3) 0.11218(7)
C5_5 C 0.35841(15) 0.6268(3) 0.08757(7)
C6_5 C 0.34855(15) 0.6655(3) 0.04964(7)
C7_5 C 0.30445(16) 0.5855(3) 0.15255(7)
C8_5 C 0.24588(17) 0.5029(4) 0.17212(7)
C9_5 C 0.25555(18) 0.4649(4) 0.20997(8)
C10_5 C 0.32416(17) 0.5110(3) 0.22954(7)
C11_5 C 0.38349(17) 0.5917(4) 0.20961(8)
C12_5 C 0.37406(16) 0.6284(4) 0.17185(8)
C13_5 C 0.33524(17) 0.4741(4) 0.27011(7)
C14_5 C 0.3101(2) 0.3323(4) 0.28587(8)
C15_5 C 0.3239(2) 0.2987(4) 0.32366(8)
C16_5 C 0.36333(16) 0.4073(4) 0.34656(7)
C17_5 C 0.38677(19) 0.5508(4) 0.33148(8)
C18_5 C 0.37276(18) 0.5836(4) 0.29362(8)
C19_5 C 0.12951(16) 0.7700(3) 0.04569(7)
C20_5 C 0.41680(15) 0.6494(3) 0.02282(7)
C21_5 C 0.38628(17) 0.3607(4) 0.38617(8)
H1_5 H 0.2670 0.7370 0.0111
H2_5 H 0.1742 0.6881 0.1144
H3_5 H 0.4089 0.5993 0.0952
H4_5 H 0.1958 0.4618 0.1596
H5_5 H 0.2120 0.4166 0.2235
H6_5 H 0.4316 0.6244 0.2211
H7_5 H 0.4155 0.6767 0.1570
H8_5 H 0.2850 0.2518 0.2712
H9_5 H 0.3097 0.1983 0.3332
H10_5 H 0.4095 0.6250 0.3452
H11_5 H 0.3881 0.6801 0.2831
O9_3 O 0.57822(13) 0.4687(3) 0.09456(5)
O4_4 O 0.07822(13) 0.0313(3) 0.90544(5)
O6_6 O 0.12617(16) 0.2725(3) 0.89761(6)
C9_6 C 0.24445(18) 0.0351(4) 0.70997(8)
C13_6 C 0.16476(17) 0.0259(4) 0.77011(7)
C14_6 C 0.1899(2) 0.1677(4) 0.78587(8)
C15_6 C 0.1761(2) 0.2013(4) 0.82366(8)
C16_6 C 0.13667(16) 0.0927(4) 0.84656(7)
C21_6 C 0.11372(17) 0.1393(4) 0.88617(8)
H4_6 H 0.3042 0.0382 0.6596
H5_6 H 0.2880 0.0834 0.7235
H8_6 H 0.2150 0.2482 0.7712
H9_6 H 0.1903 0.3017 0.8332
O1_6 O 0.01691(10) 0.8976(2) 0.53527(5)
O5_6 O 0.37501(13) 0.6830(3) 0.51297(5)
C1_6 C 0.22626(16) 0.7881(3) 0.53648(7)
C2_6 C 0.29134(16) 0.7839(3) 0.56079(7)
C3_6 C 0.28100(16) 0.8264(4) 0.59843(7)
C4_6 C 0.20611(16) 0.8707(3) 0.61218(7)
C5_6 C 0.14159(15) 0.8732(3) 0.58757(7)
C6_6 C 0.15145(15) 0.8345(3) 0.54964(7)
C7_6 C 0.19555(16) 0.9145(3) 0.65255(7)
C8_6 C 0.25412(17) 0.9971(4) 0.67212(7)
C10_6 C 0.17584(17) 0.9890(3) 0.72954(7)
C11_6 C 0.11651(17) 0.9083(4) 0.70961(8)
C12_6 C 0.12594(16) 0.8716(4) 0.67185(8)
C17_6 C 0.11323(19) 0.9492(4) 0.83148(8)
C18_6 C 0.12724(18) 0.9164(4) 0.79362(8)
C19_6 C 0.37049(16) 0.7300(3) 0.54569(7)
C20_6 C 0.08320(15) 0.8506(3) 0.52282(7)
H1_6 H 0.2330 0.7630 0.5111
H2_6 H 0.3258 0.8119 0.6144
H3_6 H 0.0911 0.9007 0.5952
H6_6 H 0.0684 0.8756 0.7211
H7_6 H 0.0845 0.8233 0.6570
H10_6 H 0.0905 0.8750 0.8452
H11_6 H 0.1119 0.8199 0.7831
O9_4 O 0.92178(13) 0.0313(3) 0.59456(5)
O6_7 O 0.87383(16) 0.2725(3) 0.60239(6)
C9_7 C 0.75555(18) 0.0351(4) 0.79003(8)
C13_7 C 0.83524(17) 0.0259(4) 0.72989(7)
C14_7 C 0.8101(2) 0.1677(4) 0.71413(8)
C15_7 C 0.8239(2) 0.2013(4) 0.67634(8)
C16_7 C 0.86333(16) 0.0927(4) 0.65344(7)
C21_7 C 0.88628(17) 0.1393(4) 0.61383(8)
H4_7 H 0.6958 0.0382 0.8404
H5_7 H 0.7120 0.0834 0.7765
H8_7 H 0.7850 0.2482 0.7288
H9_7 H 0.8097 0.3017 0.6668
O1_7 O 0.98309(10) 0.8976(2) 0.96473(5)
O5_7 O 0.62499(13) 0.6830(3) 0.98703(5)
C1_7 C 0.77374(16) 0.7881(3) 0.96352(7)
C2_7 C 0.70866(16) 0.7839(3) 0.93921(7)
C3_7 C 0.71900(16) 0.8264(4) 0.90157(7)
C4_7 C 0.79389(16) 0.8707(3) 0.88782(7)
C5_7 C 0.85841(15) 0.8732(3) 0.91243(7)
C6_7 C 0.84855(15) 0.8345(3) 0.95036(7)
C7_7 C 0.80445(16) 0.9145(3) 0.84745(7)
C8_7 C 0.74588(17) 0.9971(4) 0.82788(7)
C10_7 C 0.82416(17) 0.9890(3) 0.77046(7)
C11_7 C 0.88349(17) 0.9083(4) 0.79039(8)
C12_7 C 0.87406(16) 0.8716(4) 0.82815(8)
C17_7 C 0.88677(19) 0.9492(4) 0.66852(8)
C18_7 C 0.87276(18) 0.9164(4) 0.70638(8)
C19_7 C 0.62951(16) 0.7300(3) 0.95431(7)
C20_7 C 0.91680(15) 0.8506(3) 0.97718(7)
H1_7 H 0.7670 0.7630 0.9889
H2_7 H 0.6742 0.8119 0.8856
H3_7 H 0.9089 0.9007 0.9048
H6_7 H 0.9316 0.8756 0.7789
H7_7 H 0.9155 0.8233 0.8430
H10_7 H 0.9095 0.8750 0.6548
H11_7 H 0.8881 0.8199 0.7169
O1_8 O 0.51691(10) 0.6024(2) 0.46473(5)
O5_8 O 0.87501(13) 0.8170(3) 0.48703(5)
O6_8 O 0.62617(16) 0.2275(3) 0.10239(6)
C1_8 C 0.72626(16) 0.7119(3) 0.46352(7)
C2_8 C 0.79134(16) 0.7161(3) 0.43921(7)
C3_8 C 0.78100(16) 0.6736(4) 0.40157(7)
C4_8 C 0.70611(16) 0.6293(3) 0.38782(7)
C5_8 C 0.64159(15) 0.6268(3) 0.41243(7)
C6_8 C 0.65145(15) 0.6655(3) 0.45036(7)
C7_8 C 0.69555(16) 0.5855(3) 0.34745(7)
C8_8 C 0.75412(17) 0.5029(4) 0.32788(7)
C9_8 C 0.74445(18) 0.4649(4) 0.29003(8)
C10_8 C 0.67584(17) 0.5110(3) 0.27046(7)
C11_8 C 0.61651(17) 0.5917(4) 0.29039(8)
C12_8 C 0.62594(16) 0.6284(4) 0.32815(8)
C13_8 C 0.66476(17) 0.4741(4) 0.22989(7)
C14_8 C 0.6899(2) 0.3323(4) 0.21413(8)
C15_8 C 0.6761(2) 0.2987(4) 0.17634(8)
C16_8 C 0.63667(16) 0.4073(4) 0.15344(7)
C17_8 C 0.61323(19) 0.5508(4) 0.16852(8)
C18_8 C 0.62724(18) 0.5836(4) 0.20638(8)
C19_8 C 0.87049(16) 0.7700(3) 0.45431(7)
C20_8 C 0.58320(15) 0.6494(3) 0.47718(7)
C21_8 C 0.61372(17) 0.3607(4) 0.11383(8)
H1_8 H 0.7330 0.7370 0.4889
H2_8 H 0.8258 0.6881 0.3856
H3_8 H 0.5911 0.5993 0.4048
H4_8 H 0.8042 0.4618 0.3404
H5_8 H 0.7880 0.4166 0.2765
H6_8 H 0.5684 0.6244 0.2789
H7_8 H 0.5845 0.6767 0.3430
H8_8 H 0.7150 0.2518 0.2288
H9_8 H 0.6903 0.1983 0.1668
H10_8 H 0.5905 0.6250 0.1548
H11_8 H 0.6119 0.6801 0.2169
N1 N 0.38969(18) 0.1872(4) 0.93978(8)
H12 H 0.3960 0.2676 0.9561
H13 H 0.4251 0.2014 0.9210
C22 C 0.3094(2) 0.1966(7) 0.92401(13)
H14 H 0.3003 0.1073 0.9079
H15 H 0.3042 0.2924 0.9097
H16 H 0.2709 0.1963 0.9441
C23 C 0.4093(4) 0.0398(5) 0.95914(12)
H17 H 0.3647 0.0074 0.9743
H18 H 0.4552 0.0560 0.9749
H19 H 0.4209 0.9593 0.9409
N1_2 N 0.11031(18) 0.3128(4) 0.43978(8)
H12_2 H 0.1040 0.2324 0.4561
H13_2 H 0.0749 0.2986 0.4210
C22_2 C 0.1906(2) 0.3034(7) 0.42401(13)
H14_2 H 0.1997 0.3927 0.4079
H15_2 H 0.1958 0.2076 0.4097
H16_2 H 0.2291 0.3037 0.4441
C23_2 C 0.0907(4) 0.4602(5) 0.45914(12)
H17_2 H 0.1353 0.4926 0.4743
H18_2 H 0.0448 0.4440 0.4749
H19_2 H 0.0791 0.5407 0.4409
N1_3 N 0.88969(18) 0.3128(4) 0.06022(8)
H12_3 H 0.8960 0.2324 0.0439
H13_3 H 0.9251 0.2986 0.0790
C22_3 C 0.8094(2) 0.3034(7) 0.07599(13)
H14_3 H 0.8003 0.3927 0.0921
H15_3 H 0.8042 0.2076 0.0903
H16_3 H 0.7709 0.3037 0.0559
C23_3 C 0.9093(4) 0.4602(5) 0.04086(12)
H17_3 H 0.8647 0.4926 0.0257
H18_3 H 0.9552 0.4440 0.0251
H19_3 H 0.9209 0.5407 0.0591
N1_4 N 0.61031(18) 0.1872(4) 0.56022(8)
H12_4 H 0.6040 0.2676 0.5439
H13_4 H 0.5749 0.2014 0.5790
C22_4 C 0.6906(2) 0.1966(7) 0.57599(13)
H14_4 H 0.6997 0.1073 0.5921
H15_4 H 0.6958 0.2924 0.5903
H16_4 H 0.7291 0.1963 0.5559
C23_4 C 0.5907(4) 0.0398(5) 0.54086(12)
H17_4 H 0.6353 0.0074 0.5257
H18_4 H 0.5448 0.0560 0.5251
H19_4 H 0.5791 0.9593 0.5591
H19_5 H 0.5791 0.0407 0.0591
N1_5 N 0.61031(18) 0.8128(4) 0.06022(8)
H12_5 H 0.6040 0.7324 0.0439
H13_5 H 0.5749 0.7986 0.0790
C22_5 C 0.6906(2) 0.8034(7) 0.07599(13)
H14_5 H 0.6997 0.8927 0.0921
H15_5 H 0.6958 0.7076 0.0903
H16_5 H 0.7291 0.8037 0.0559
C23_5 C 0.5907(4) 0.9602(5) 0.04086(12)
H17_5 H 0.6353 0.9926 0.0257
H18_5 H 0.5448 0.9440 0.0251
N1_6 N 0.88969(18) 0.6872(4) 0.56022(8)
H12_6 H 0.8960 0.7676 0.5439
H13_6 H 0.9251 0.7014 0.5790
C22_6 C 0.8094(2) 0.6966(7) 0.57599(13)
H14_6 H 0.8003 0.6073 0.5921
H15_6 H 0.8042 0.7924 0.5903
H16_6 H 0.7709 0.6963 0.5559
C23_6 C 0.9093(4) 0.5398(5) 0.54086(12)
H17_6 H 0.8647 0.5074 0.5257
H18_6 H 0.9552 0.5560 0.5251
H19_6 H 0.9209 0.4593 0.5591
N1_7 N 0.11031(18) 0.6872(4) 0.93978(8)
H12_7 H 0.1040 0.7676 0.9561
H13_7 H 0.0749 0.7014 0.9210
C22_7 C 0.1906(2) 0.6966(7) 0.92401(13)
H14_7 H 0.1997 0.6073 0.9079
H15_7 H 0.1958 0.7924 0.9097
H16_7 H 0.2291 0.6963 0.9441
C23_7 C 0.0907(4) 0.5398(5) 0.95914(12)
H17_7 H 0.1353 0.5074 0.9743
H18_7 H 0.0448 0.5560 0.9749
H19_7 H 0.0791 0.4593 0.9409
H19_8 H 0.4209 0.0407 0.4409
N1_8 N 0.38969(18) 0.8128(4) 0.43978(8)
H12_8 H 0.3960 0.7324 0.4561
H13_8 H 0.4251 0.7986 0.4210
C22_8 C 0.3094(2) 0.8034(7) 0.42401(13)
H14_8 H 0.3003 0.8927 0.4079
H15_8 H 0.3042 0.7076 0.4097
H16_8 H 0.2709 0.8037 0.4441
C23_8 C 0.4093(4) 0.9602(5) 0.45914(12)
H17_8 H 0.3647 0.9926 0.4743
H18_8 H 0.4552 0.9440 0.4749
loop_
_geom_bond_atom_site_label_1
_geom_bond_atom_site_label_2
_geom_bond_site_symmetry_1
_geom_bond_site_symmetry_2
Zn3 O2 1_555 1_555
Zn1 O1 1_555 1_555
O1 C20 1_555 1_555
O3 C19 1_555 1_555
O4 C21 1_555 1_555
O5 C19 1_555 1_555
O6 C21 1_555 1_555
C1 C2 1_555 1_555
C2 C3 1_555 1_555
C3 C4 1_555 1_555
C4 C5 1_555 1_555
C5 C6 1_555 1_555
C6 C1 1_555 1_555
C7 C4 1_555 1_555
C8 C7 1_555 1_555
C9 C8 1_555 1_555
C10 C9 1_555 1_555
C11 C10 1_555 1_555
C12 C7 1_555 1_555
C13 C10 1_555 1_555
C14 C13 1_555 1_555
C15 C14 1_555 1_555
C16 C15 1_555 1_555
C17 C16 1_555 1_555
C18 C13 1_555 1_555
C19 C2 1_555 1_555
C20 C6 1_555 1_555
C21 C16 1_555 1_555
H1 C1 1_555 1_555
H2 C3 1_555 1_555
H3 C5 1_555 1_555
H4 C8 1_555 1_555
H5 C9 1_555 1_555
H6 C11 1_555 1_555
H7 C12 1_555 1_555
H8 C14 1_555 1_555
H9 C15 1_555 1_555
H10 C17 1_555 1_555
H11 C18 1_555 1_555
Zn2 O4 1_555 1_555
O7 Zn1 1_555 1_555
O8 Zn1 1_555 1_555
O9 Zn1 1_555 1_555
C11 C12 1_555 1_555
C17 C18 1_555 1_555
O7_2 Zn1_2 1_555 1_555
O9_2 Zn1_2 1_555 1_555
O1_2 C20_2 1_555 1_555
O2_2 C20_2 1_555 1_555
O3_2 C19_2 1_555 1_555
O5_2 C19_2 1_555 1_555
C1_2 C2_2 1_555 1_555
C2_2 C3_2 1_555 1_555
C3_2 C4_2 1_555 1_555
C4_2 C5_2 1_555 1_555
C5_2 C6_2 1_555 1_555
C6_2 C1_2 1_555 1_555
C7_2 C4_2 1_555 1_555
C8_2 C7_2 1_555 1_555
C11_2 C10_2 1_555 1_555
C12_2 C7_2 1_555 1_555
C19_2 C2_2 1_555 1_555
C20_2 C6_2 1_555 1_555
H1_2 C1_2 1_555 1_555
H2_2 C3_2 1_555 1_555
H3_2 C5_2 1_555 1_555
H6_2 C11_2 1_555 1_555
H7_2 C12_2 1_555 1_555
H10_2 C17_2 1_555 1_555
H11_2 C18_2 1_555 1_555
Zn3_2 O2_2 1_555 1_555
Zn4_2 O3_2 1_555 1_555
C11_2 C12_2 1_555 1_555
C17_2 C18_2 1_555 1_555
O4_2 C21_2 1_555 1_555
O6_2 C21_2 1_555 1_555
C14_2 C13_2 1_555 1_555
C15_2 C14_2 1_555 1_555
C16_2 C15_2 1_555 1_555
C21_2 C16_2 1_555 1_555
H5_2 C9_2 1_555 1_555
H8_2 C14_2 1_555 1_555
H9_2 C15_2 1_555 1_555
Zn2_2 O4_2 1_555 1_555
O1_3 C20_3 1_555 1_555
O3_3 C19_3 1_555 1_555
O5_3 C19_3 1_555 1_555
C1_3 C2_3 1_555 1_555
C2_3 C3_3 1_555 1_555
C3_3 C4_3 1_555 1_555
C4_3 C5_3 1_555 1_555
C5_3 C6_3 1_555 1_555
C6_3 C1_3 1_555 1_555
C7_3 C4_3 1_555 1_555
C8_3 C7_3 1_555 1_555
C11_3 C10_3 1_555 1_555
C12_3 C7_3 1_555 1_555
C19_3 C2_3 1_555 1_555
C20_3 C6_3 1_555 1_555
H1_3 C1_3 1_555 1_555
H2_3 C3_3 1_555 1_555
H3_3 C5_3 1_555 1_555
H6_3 C11_3 1_555 1_555
H7_3 C12_3 1_555 1_555
H10_3 C17_3 1_555 1_555
H11_3 C18_3 1_555 1_555
Zn3 O3_3 1_555 1_555
C11_3 C12_3 1_555 1_555
C17_3 C18_3 1_555 1_555
Zn4 O2_3 1_555 1_555
O9_2 C21_3 1_555 1_555
O6_3 C21_3 1_555 1_555
C14_3 C13_3 1_555 1_555
C15_3 C14_3 1_555 1_555
C16_3 C15_3 1_555 1_555
C21_3 C16_3 1_555 1_555
H5_3 C9_3 1_555 1_555
H8_3 C14_3 1_555 1_555
H9_3 C15_3 1_555 1_555
O7_3 Zn2_2 1_555 1_555
Zn2 O1_4 1_555 1_555
O1_4 C20_4 1_555 1_555
O2_4 C20_4 1_555 1_555
O3_4 C19_4 1_555 1_555
O9 C21_4 1_555 1_555
O5_4 C19_4 1_555 1_555
O6_4 C21_4 1_555 1_555
C1_4 C2_4 1_555 1_555
C2_4 C3_4 1_555 1_555
C3_4 C4_4 1_555 1_555
C4_4 C5_4 1_555 1_555
C5_4 C6_4 1_555 1_555
C6_4 C1_4 1_555 1_555
C7_4 C4_4 1_555 1_555
C8_4 C7_4 1_555 1_555
C9_4 C8_4 1_555 1_555
C10_4 C9_4 1_555 1_555
C11_4 C10_4 1_555 1_555
C12_4 C7_4 1_555 1_555
C13_4 C10_4 1_555 1_555
C14_4 C13_4 1_555 1_555
C15_4 C14_4 1_555 1_555
C16_4 C15_4 1_555 1_555
C17_4 C16_4 1_555 1_555
C18_4 C13_4 1_555 1_555
C19_4 C2_4 1_555 1_555
C20_4 C6_4 1_555 1_555
C21_4 C16_4 1_555 1_555
H1_4 C1_4 1_555 1_555
H2_4 C3_4 1_555 1_555
H3_4 C5_4 1_555 1_555
H4_4 C8_4 1_555 1_555
H5_4 C9_4 1_555 1_555
H6_4 C11_4 1_555 1_555
H7_4 C12_4 1_555 1_555
H8_4 C14_4 1_555 1_555
H9_4 C15_4 1_555 1_555
H10_4 C17_4 1_555 1_555
H11_4 C18_4 1_555 1_555
Zn4_2 O2_4 1_555 1_555
O7_4 Zn2 1_555 1_555
O8_4 Zn2 1_555 1_555
C11_4 C12_4 1_555 1_555
C17_4 C18_4 1_555 1_555
Zn3 O1_5 1_555 1_555
O1_5 C20_5 1_555 1_555
O8_3 C19_5 1_555 1_555
O4_3 C21_5 1_555 1_555
O5_5 C19_5 1_555 1_555
O6_5 C21_5 1_555 1_555
C1_5 C2_5 1_555 1_555
C2_5 C3_5 1_555 1_555
C3_5 C4_5 1_555 1_555
C4_5 C5_5 1_555 1_555
C5_5 C6_5 1_555 1_555
C6_5 C1_5 1_555 1_555
C7_5 C4_5 1_555 1_555
C8_5 C7_5 1_555 1_555
C9_5 C8_5 1_555 1_555
C10_5 C9_5 1_555 1_555
C11_5 C10_5 1_555 1_555
C12_5 C7_5 1_555 1_555
C13_5 C10_5 1_555 1_555
C14_5 C13_5 1_555 1_555
C15_5 C14_5 1_555 1_555
C16_5 C15_5 1_555 1_555
C17_5 C16_5 1_555 1_555
C18_5 C13_5 1_555 1_555
C19_5 C2_5 1_555 1_555
C20_5 C6_5 1_555 1_555
C21_5 C16_5 1_555 1_555
H1_5 C1_5 1_555 1_555
H2_5 C3_5 1_555 1_555
H3_5 C5_5 1_555 1_555
H4_5 C8_5 1_555 1_555
H5_5 C9_5 1_555 1_555
H6_5 C11_5 1_555 1_555
H7_5 C12_5 1_555 1_555
H8_5 C14_5 1_555 1_555
H9_5 C15_5 1_555 1_555
H10_5 C17_5 1_555 1_555
H11_5 C18_5 1_555 1_555
Zn4_2 O4_3 1_555 1_555
O9_3 Zn3 1_555 1_555
C11_5 C12_5 1_555 1_555
C17_5 C18_5 1_555 1_555
O4_4 C21_6 1_555 1_555
O6_6 C21_6 1_555 1_555
C14_6 C13_6 1_555 1_555
C15_6 C14_6 1_555 1_555
C16_6 C15_6 1_555 1_555
C21_6 C16_6 1_555 1_555
H5_6 C9_6 1_555 1_555
H8_6 C14_6 1_555 1_555
H9_6 C15_6 1_555 1_555
Zn4 O4_4 1_555 1_555
O1_6 C20_6 1_555 1_555
O7_2 C20_6 1_555 1_555
O8_4 C19_6 1_555 1_555
O5_6 C19_6 1_555 1_555
C1_6 C2_6 1_555 1_555
C2_6 C3_6 1_555 1_555
C3_6 C4_6 1_555 1_555
C4_6 C5_6 1_555 1_555
C5_6 C6_6 1_555 1_555
C6_6 C1_6 1_555 1_555
C7_6 C4_6 1_555 1_555
C8_6 C7_6 1_555 1_555
C11_6 C10_6 1_555 1_555
C12_6 C7_6 1_555 1_555
C19_6 C2_6 1_555 1_555
C20_6 C6_6 1_555 1_555
H1_6 C1_6 1_555 1_555
H2_6 C3_6 1_555 1_555
H3_6 C5_6 1_555 1_555
H6_6 C11_6 1_555 1_555
H7_6 C12_6 1_555 1_555
H10_6 C17_6 1_555 1_555
H11_6 C18_6 1_555 1_555
C11_6 C12_6 1_555 1_555
C17_6 C18_6 1_555 1_555
O9_4 Zn3_2 1_555 1_555
O9_4 C21_7 1_555 1_555
O6_7 C21_7 1_555 1_555
C14_7 C13_7 1_555 1_555
C15_7 C14_7 1_555 1_555
C16_7 C15_7 1_555 1_555
C21_7 C16_7 1_555 1_555
H5_7 C9_7 1_555 1_555
H8_7 C14_7 1_555 1_555
H9_7 C15_7 1_555 1_555
O1_7 C20_7 1_555 1_555
O8 C19_7 1_555 1_555
O5_7 C19_7 1_555 1_555
C1_7 C2_7 1_555 1_555
C2_7 C3_7 1_555 1_555
C3_7 C4_7 1_555 1_555
C4_7 C5_7 1_555 1_555
C5_7 C6_7 1_555 1_555
C6_7 C1_7 1_555 1_555
C7_7 C4_7 1_555 1_555
C8_7 C7_7 1_555 1_555
C11_7 C10_7 1_555 1_555
C12_7 C7_7 1_555 1_555
C19_7 C2_7 1_555 1_555
C20_7 C6_7 1_555 1_555
H1_7 C1_7 1_555 1_555
H2_7 C3_7 1_555 1_555
H3_7 C5_7 1_555 1_555
H6_7 C11_7 1_555 1_555
H7_7 C12_7 1_555 1_555
H10_7 C17_7 1_555 1_555
H11_7 C18_7 1_555 1_555
C11_7 C12_7 1_555 1_555
C17_7 C18_7 1_555 1_555
Zn4_2 O1_8 1_555 1_555
O1_8 C20_8 1_555 1_555
O7_4 C20_8 1_555 1_555
O8_2 C19_8 1_555 1_555
O9_3 C21_8 1_555 1_555
O5_8 C19_8 1_555 1_555
O6_8 C21_8 1_555 1_555
C1_8 C2_8 1_555 1_555
C2_8 C3_8 1_555 1_555
C3_8 C4_8 1_555 1_555
C4_8 C5_8 1_555 1_555
C5_8 C6_8 1_555 1_555
C6_8 C1_8 1_555 1_555
C7_8 C4_8 1_555 1_555
C8_8 C7_8 1_555 1_555
C9_8 C8_8 1_555 1_555
C10_8 C9_8 1_555 1_555
C11_8 C10_8 1_555 1_555
C12_8 C7_8 1_555 1_555
C13_8 C10_8 1_555 1_555
C14_8 C13_8 1_555 1_555
C15_8 C14_8 1_555 1_555
C16_8 C15_8 1_555 1_555
C17_8 C16_8 1_555 1_555
C18_8 C13_8 1_555 1_555
C19_8 C2_8 1_555 1_555
C20_8 C6_8 1_555 1_555
C21_8 C16_8 1_555 1_555
H1_8 C1_8 1_555 1_555
H2_8 C3_8 1_555 1_555
H3_8 C5_8 1_555 1_555
H4_8 C8_8 1_555 1_555
H5_8 C9_8 1_555 1_555
H6_8 C11_8 1_555 1_555
H7_8 C12_8 1_555 1_555
H8_8 C14_8 1_555 1_555
H9_8 C15_8 1_555 1_555
H10_8 C17_8 1_555 1_555
H11_8 C18_8 1_555 1_555
C11_8 C12_8 1_555 1_555
C17_8 C18_8 1_555 1_555
N1 H12 1_555 1_555
H13 N1 1_555 1_555
C22 N1 1_555 1_555
H14 C22 1_555 1_555
H15 C22 1_555 1_555
H16 C22 1_555 1_555
C23 N1 1_555 1_555
H17 C23 1_555 1_555
H18 C23 1_555 1_555
N1_2 H12_2 1_555 1_555
H13_2 N1_2 1_555 1_555
C22_2 N1_2 1_555 1_555
H14_2 C22_2 1_555 1_555
H15_2 C22_2 1_555 1_555
H16_2 C22_2 1_555 1_555
C23_2 N1_2 1_555 1_555
H17_2 C23_2 1_555 1_555
H18_2 C23_2 1_555 1_555
H19_2 C23_2 1_555 1_555
N1_3 H12_3 1_555 1_555
H13_3 N1_3 1_555 1_555
C22_3 N1_3 1_555 1_555
H14_3 C22_3 1_555 1_555
H15_3 C22_3 1_555 1_555
H16_3 C22_3 1_555 1_555
C23_3 N1_3 1_555 1_555
H17_3 C23_3 1_555 1_555
H18_3 C23_3 1_555 1_555
H19_3 C23_3 1_555 1_555
N1_4 H12_4 1_555 1_555
H13_4 N1_4 1_555 1_555
C22_4 N1_4 1_555 1_555
H14_4 C22_4 1_555 1_555
H15_4 C22_4 1_555 1_555
H16_4 C22_4 1_555 1_555
C23_4 N1_4 1_555 1_555
H17_4 C23_4 1_555 1_555
H18_4 C23_4 1_555 1_555
N1_5 H12_5 1_555 1_555
H13_5 N1_5 1_555 1_555
C22_5 N1_5 1_555 1_555
H14_5 C22_5 1_555 1_555
H15_5 C22_5 1_555 1_555
H16_5 C22_5 1_555 1_555
C23_5 N1_5 1_555 1_555
H17_5 C23_5 1_555 1_555
H18_5 C23_5 1_555 1_555
N1_6 H12_6 1_555 1_555
H13_6 N1_6 1_555 1_555
C22_6 N1_6 1_555 1_555
H14_6 C22_6 1_555 1_555
H15_6 C22_6 1_555 1_555
H16_6 C22_6 1_555 1_555
C23_6 N1_6 1_555 1_555
H17_6 C23_6 1_555 1_555
H18_6 C23_6 1_555 1_555
H19_6 C23_6 1_555 1_555
N1_7 H12_7 1_555 1_555
H13_7 N1_7 1_555 1_555
C22_7 N1_7 1_555 1_555
H14_7 C22_7 1_555 1_555
H15_7 C22_7 1_555 1_555
H16_7 C22_7 1_555 1_555
C23_7 N1_7 1_555 1_555
H17_7 C23_7 1_555 1_555
H18_7 C23_7 1_555 1_555
H19_7 C23_7 1_555 1_555
N1_8 H12_8 1_555 1_555
H13_8 N1_8 1_555 1_555
C22_8 N1_8 1_555 1_555
H14_8 C22_8 1_555 1_555
H15_8 C22_8 1_555 1_555
H16_8 C22_8 1_555 1_555
C23_8 N1_8 1_555 1_555
H17_8 C23_8 1_555 1_555
H18_8 C23_8 1_555 1_555

#END
