
###############################################################################
#
# This file contains modified crystal structure data generated from the
# MOF subset of the Cambridge Structural Database (CSD) v543 
# hosted by the Cambridge Crystallographic Data Centre (CCDC).
#
# This work is licensed under the Creative Commons
# Attribution-NonCommercial-ShareAlike 4.0 International License.
# To view a copy of this license, visit
# http://creativecommons.org/licenses/by-nc-sa/4.0/
# or send a letter to
# Creative Commons, PO Box 1866, Mountain View, CA 94042, USA.
#
# CIF created using the CSD Python API on 29 September 2022
# The structure has been converted into the P1 space group
# The structure has a 3D framework
# The original CSD entry FAHFUR is in the tetragonal crystal system
# The framework has been calculated to contain at least 10.0% void space
# The void calculation uses a probe of radius 1.32A, grid spacing 0.4
# The framework is charged, counterions have been retained in the structure
# H atom positions have been added when not included in the experimental data
# Generated hydrogen atom positions removed from atoms on special positions
#
###############################################################################

data_FAHFUR
_chemical_formula_moiety         '(C84 H76 Be16 O64 8-)n'
_symmetry_cell_setting           triclinic
_symmetry_space_group_name_H-M   'P 1'
_symmetry_Int_Tables_number      1
_space_group_name_Hall           'P 1'
loop_
_symmetry_equiv_pos_site_id
_symmetry_equiv_pos_as_xyz
1 x,y,z
_cell_length_a                   18.9009(5)
_cell_length_b                   18.9009(5)
_cell_length_c                   10.2570(3)
_cell_angle_alpha                90
_cell_angle_beta                 90
_cell_angle_gamma                90
_cell_volume                     3664.25
loop_
_atom_site_label
_atom_site_type_symbol
_atom_site_fract_x
_atom_site_fract_y
_atom_site_fract_z
O6 O 0.8314(2) 0.02925(18) 0.0000
H9 H 0.786011 0.0296133 0.0487495
Be1 Be 0.8175(3) 0.0706(3) 0.1312(4)
O2 O 0.88325(11) 0.11675(11) 0.1726(3)
O3 O 0.79977(14) 0.02288(13) 0.2582(2)
H4 H 0.7868 0.0072 0.5000
Be2 Be 0.8175(3) 0.0706(3) 0.8688(4)
Be4 Be 0.9294(3) 0.1825(3) 0.1312(4)
O6_2 O 0.8314(2) 0.02925(18) 1.0000
O7 O 0.88325(11) 0.11675(11) 0.8274(3)
O8 O 0.79977(14) 0.02288(13) 0.7418(2)
O11 O 0.75182(13) 0.12565(15) 0.1098(2)
O12 O 0.75182(13) 0.12565(15) 0.8902(2)
H5 H 0.8471 0.9826 0.0000
O4 O 0.7377(3) 0.9424(3) 0.1549(3)
O5 O 0.62565(15) 0.74818(13) 0.3902(2)
C1 C 0.7597(3) 0.9681(3) 0.2552(4)
C2 C 0.6428(3) 0.7757(3) 0.5000
C3 C 0.6849(3) 0.8407(3) 0.5000
C4 C 0.7428(2) 0.9341(2) 0.3819(3)
C5 C 0.7039(2) 0.8729(2) 0.3840(4)
H3 H 0.6900 0.8526 0.3055
C6 C 0.7614(3) 0.9650(3) 0.5000
Be5 Be 0.5706(3) 0.6825(3) 0.3688(4)
Be6 Be 0.5706(3) 0.6825(3) 0.6312(4)
H5_2 H 0.8471 0.9826 1.0000
O9 O 0.7377(3) 0.9424(3) 0.8451(3)
O10 O 0.62565(15) 0.74818(13) 0.6098(2)
C7 C 0.7597(3) 0.9681(3) 0.7448(4)
C8 C 0.7428(2) 0.9341(2) 0.6181(3)
C9 C 0.7039(2) 0.8729(2) 0.6160(4)
H7 H 0.6900 0.8526 0.6945
H5_3 H 0.1529 0.0174 0.0000
O4_2 O 0.2623(3) 0.0576(3) 0.1549(3)
O5_2 O 0.37435(15) 0.25182(13) 0.3902(2)
C1_2 C 0.2403(3) 0.0319(3) 0.2552(4)
C2_2 C 0.3572(3) 0.2243(3) 0.5000
C3_2 C 0.3151(3) 0.1593(3) 0.5000
C4_2 C 0.2572(2) 0.0659(2) 0.3819(3)
C5_2 C 0.2961(2) 0.1271(2) 0.3840(4)
H3_2 H 0.3100 0.1474 0.3055
C6_2 C 0.2386(3) 0.0350(3) 0.5000
Be5_2 Be 0.4294(3) 0.3175(3) 0.3688(4)
Be6_2 Be 0.4294(3) 0.3175(3) 0.6312(4)
H5_4 H 0.1529 0.0174 1.0000
O9_2 O 0.2623(3) 0.0576(3) 0.8451(3)
O10_2 O 0.37435(15) 0.25182(13) 0.6098(2)
C7_2 C 0.2403(3) 0.0319(3) 0.7448(4)
C8_2 C 0.2572(2) 0.0659(2) 0.6181(3)
C9_2 C 0.2961(2) 0.1271(2) 0.6160(4)
H7_2 H 0.3100 0.1474 0.6945
O6_3 O 0.1686(2) 0.97075(18) 0.0000
H9_2 H 0.213989 0.970387 0.0487495
Be1_2 Be 0.1825(3) 0.9294(3) 0.1312(4)
O2_2 O 0.11675(11) 0.88325(11) 0.1726(3)
O3_2 O 0.20023(14) 0.97712(13) 0.2582(2)
H4_2 H 0.2132 0.9928 0.5000
Be2_2 Be 0.1825(3) 0.9294(3) 0.8688(4)
Be4_2 Be 0.0706(3) 0.8175(3) 0.1312(4)
O6_4 O 0.1686(2) 0.97075(18) 1.0000
O7_2 O 0.11675(11) 0.88325(11) 0.8274(3)
O8_2 O 0.20023(14) 0.97712(13) 0.7418(2)
O11_2 O 0.24818(13) 0.87435(15) 0.1098(2)
O12_2 O 0.24818(13) 0.87435(15) 0.8902(2)
C2_3 C 0.7243(3) 0.1428(3) 0.0000
C3_3 C 0.6593(3) 0.1849(3) 0.0000
C6_3 C 0.5350(3) 0.2614(3) 0.0000
H4_3 H 0.4928 0.2868 0.0000
O6_5 O 0.47075(18) 0.3314(2) 0.5000
O7_3 O 0.38325(11) 0.38325(11) 0.3274(3)
O8_3 O 0.47712(13) 0.29977(14) 0.2418(2)
O9_3 O 0.5576(3) 0.2377(3) 0.3451(3)
C7_3 C 0.5319(3) 0.2597(3) 0.2448(4)
C8_3 C 0.5659(2) 0.2428(2) 0.1181(3)
C9_3 C 0.6271(2) 0.2039(2) 0.1160(4)
H7_3 H 0.6474 0.1900 0.1945
O2_3 O 0.38325(11) 0.38325(11) 0.6726(3)
O3_3 O 0.47712(13) 0.29977(14) 0.7582(2)
O4_3 O 0.5576(3) 0.2377(3) 0.6549(3)
C1_3 C 0.5319(3) 0.2597(3) 0.7552(4)
C2_4 C 0.7243(3) 0.1428(3) 1.0000
C3_4 C 0.6593(3) 0.1849(3) 1.0000
C4_3 C 0.5659(2) 0.2428(2) 0.8819(3)
C5_3 C 0.6271(2) 0.2039(2) 0.8840(4)
H3_3 H 0.6474 0.1900 0.8055
C6_4 C 0.5350(3) 0.2614(3) 1.0000
H4_4 H 0.4928 0.2868 1.0000
Be4_3 Be 0.3175(3) 0.4294(3) 0.6312(4)
C2_5 C 0.2757(3) 0.8572(3) 0.0000
C3_5 C 0.3407(3) 0.8151(3) 0.0000
C6_5 C 0.4650(3) 0.7386(3) 0.0000
H4_5 H 0.5072 0.7132 0.0000
O6_6 O 0.52925(18) 0.6686(2) 0.5000
O7_4 O 0.61675(11) 0.61675(11) 0.3274(3)
O8_4 O 0.52288(13) 0.70023(14) 0.2418(2)
O9_4 O 0.4424(3) 0.7623(3) 0.3451(3)
C7_4 C 0.4681(3) 0.7403(3) 0.2448(4)
C8_4 C 0.4341(2) 0.7572(2) 0.1181(3)
C9_4 C 0.3729(2) 0.7961(2) 0.1160(4)
H7_4 H 0.3526 0.8100 0.1945
O2_4 O 0.61675(11) 0.61675(11) 0.6726(3)
O3_4 O 0.52288(13) 0.70023(14) 0.7582(2)
O4_4 O 0.4424(3) 0.7623(3) 0.6549(3)
C1_4 C 0.4681(3) 0.7403(3) 0.7552(4)
C2_6 C 0.2757(3) 0.8572(3) 1.0000
C3_6 C 0.3407(3) 0.8151(3) 1.0000
C4_4 C 0.4341(2) 0.7572(2) 0.8819(3)
C5_4 C 0.3729(2) 0.7961(2) 0.8840(4)
H3_4 H 0.3526 0.8100 0.8055
C6_6 C 0.4650(3) 0.7386(3) 1.0000
H4_6 H 0.5072 0.7132 1.0000
Be4_4 Be 0.6825(3) 0.5706(3) 0.6312(4)
Be1_3 Be 0.6825(3) 0.5706(3) 0.3688(4)
O1 O 0.6686(2) 0.52925(18) 0.5000
O3_5 O 0.70023(14) 0.52288(13) 0.2418(2)
O4_5 O 0.7623(3) 0.4424(3) 0.3451(3)
O5_3 O 0.87435(15) 0.24818(13) 0.1098(2)
C1_5 C 0.7403(3) 0.4681(3) 0.2448(4)
C2_7 C 0.8572(3) 0.2757(3) 0.0000
C3_7 C 0.8151(3) 0.3407(3) 0.0000
C4_5 C 0.7572(2) 0.4341(2) 0.1181(3)
C5_5 C 0.7961(2) 0.3729(2) 0.1160(4)
H3_5 H 0.8100 0.3526 0.1945
C6_7 C 0.7386(3) 0.4650(3) 0.0000
H4_7 H 0.7132 0.5072 0.0000
O11_3 O 0.74818(13) 0.62565(15) 0.3902(2)
C2_8 C 0.8572(3) 0.2757(3) 1.0000
C3_8 C 0.8151(3) 0.3407(3) 1.0000
C6_8 C 0.7386(3) 0.4650(3) 1.0000
H4_8 H 0.7132 0.5072 1.0000
Be6_3 Be 0.9294(3) 0.1825(3) 0.8688(4)
O8_5 O 0.70023(14) 0.52288(13) 0.7582(2)
O9_5 O 0.7623(3) 0.4424(3) 0.6549(3)
O10_3 O 0.87435(15) 0.24818(13) 0.8902(2)
O12_3 O 0.74818(13) 0.62565(15) 0.6098(2)
C7_5 C 0.7403(3) 0.4681(3) 0.7552(4)
C8_5 C 0.7572(2) 0.4341(2) 0.8819(3)
C9_5 C 0.7961(2) 0.3729(2) 0.8840(4)
H7_5 H 0.8100 0.3526 0.8055
Be1_4 Be 0.3175(3) 0.4294(3) 0.3688(4)
O1_2 O 0.3314(2) 0.47075(18) 0.5000
O3_6 O 0.29977(14) 0.47712(13) 0.2418(2)
O4_6 O 0.2377(3) 0.5576(3) 0.3451(3)
O5_4 O 0.12565(15) 0.75182(13) 0.1098(2)
C1_6 C 0.2597(3) 0.5319(3) 0.2448(4)
C2_9 C 0.1428(3) 0.7243(3) 0.0000
C3_9 C 0.1849(3) 0.6593(3) 0.0000
C4_6 C 0.2428(2) 0.5659(2) 0.1181(3)
C5_6 C 0.2039(2) 0.6271(2) 0.1160(4)
H3_6 H 0.1900 0.6474 0.1945
C6_9 C 0.2614(3) 0.5350(3) 0.0000
H4_9 H 0.2868 0.4928 0.0000
O11_4 O 0.25182(13) 0.37435(15) 0.3902(2)
C2_10 C 0.1428(3) 0.7243(3) 1.0000
C3_10 C 0.1849(3) 0.6593(3) 1.0000
C6_10 C 0.2614(3) 0.5350(3) 1.0000
H4_10 H 0.2868 0.4928 1.0000
Be6_4 Be 0.0706(3) 0.8175(3) 0.8688(4)
O8_6 O 0.29977(14) 0.47712(13) 0.7582(2)
O9_6 O 0.2377(3) 0.5576(3) 0.6549(3)
O10_4 O 0.12565(15) 0.75182(13) 0.8902(2)
O12_4 O 0.25182(13) 0.37435(15) 0.6098(2)
C7_6 C 0.2597(3) 0.5319(3) 0.7552(4)
C8_6 C 0.2428(2) 0.5659(2) 0.8819(3)
C9_6 C 0.2039(2) 0.6271(2) 0.8840(4)
H7_6 H 0.1900 0.6474 0.8055
O1_3 O 0.02925(18) 0.8314(2) 0.0000
O1_4 O 0.02925(18) 0.8314(2) 1.0000
O3_7 O 0.02288(13) 0.79977(14) 0.7418(2)
H4_11 H 0.0072 0.7868 0.5000
O8_7 O 0.02288(13) 0.79977(14) 0.2582(2)
H9_3 H 0.0296133 0.786011 0.95125
H1 H 0.9826 0.8471 0.0000
H1_2 H 0.9826 0.8471 1.0000
O4_7 O 0.9424(3) 0.7377(3) 0.8451(3)
C1_7 C 0.9681(3) 0.7597(3) 0.7448(4)
C2_11 C 0.7757(3) 0.6428(3) 0.5000
C3_11 C 0.8407(3) 0.6849(3) 0.5000
C4_7 C 0.9341(2) 0.7428(2) 0.6181(3)
C5_7 C 0.8729(2) 0.7039(2) 0.6160(4)
H3_7 H 0.8526 0.6900 0.6945
C6_11 C 0.9650(3) 0.7614(3) 0.5000
O9_7 O 0.9424(3) 0.7377(3) 0.1549(3)
C7_7 C 0.9681(3) 0.7597(3) 0.2552(4)
C8_7 C 0.9341(2) 0.7428(2) 0.3819(3)
C9_7 C 0.8729(2) 0.7039(2) 0.3840(4)
H7_7 H 0.8526 0.6900 0.3055
H1_3 H 0.0174 0.1529 0.0000
H1_4 H 0.0174 0.1529 1.0000
O4_8 O 0.0576(3) 0.2623(3) 0.8451(3)
C1_8 C 0.0319(3) 0.2403(3) 0.7448(4)
C2_12 C 0.2243(3) 0.3572(3) 0.5000
C3_12 C 0.1593(3) 0.3151(3) 0.5000
C4_8 C 0.0659(2) 0.2572(2) 0.6181(3)
C5_8 C 0.1271(2) 0.2961(2) 0.6160(4)
H3_8 H 0.1474 0.3100 0.6945
C6_12 C 0.0350(3) 0.2386(3) 0.5000
O9_8 O 0.0576(3) 0.2623(3) 0.1549(3)
C7_8 C 0.0319(3) 0.2403(3) 0.2552(4)
C8_8 C 0.0659(2) 0.2572(2) 0.3819(3)
C9_8 C 0.1271(2) 0.2961(2) 0.3840(4)
H7_8 H 0.1474 0.3100 0.3055
O1_5 O 0.97075(18) 0.1686(2) 0.0000
O1_6 O 0.97075(18) 0.1686(2) 1.0000
O3_8 O 0.97712(13) 0.20023(14) 0.7418(2)
H4_12 H 0.9928 0.2132 0.5000
O8_8 O 0.97712(13) 0.20023(14) 0.2582(2)
H9_4 H 0.970387 0.213989 0.95125
H9_5 H 0.213989 0.970387 0.95125
H9_6 H 0.786011 0.0296133 0.95125
H9_7 H 0.970387 0.213989 0.0487495
H9_8 H 0.0296133 0.786011 0.0487495
loop_
_geom_bond_atom_site_label_1
_geom_bond_atom_site_label_2
_geom_bond_site_symmetry_1
_geom_bond_site_symmetry_2
O6 H9 1_555 1_555
Be1 O6 1_555 1_555
O2 Be1 1_555 1_555
O3 Be1 1_555 1_555
Be2 O6_2 1_555 1_555
Be4 O2 1_555 1_555
O7 Be2 1_555 1_555
O8 Be2 1_555 1_555
O11 Be1 1_555 1_555
O12 Be2 1_555 1_555
O4 C1 1_555 1_555
O5 C2 1_555 1_555
C2 C3 1_555 1_555
C3 C5 1_555 1_555
C4 C1 1_555 1_555
C5 C4 1_555 1_555
H3 C5 1_555 1_555
C6 C4 1_555 1_555
Be5 O5 1_555 1_555
Be6 O10 1_555 1_555
O9 C7 1_555 1_555
O10 C2 1_555 1_555
C8 C6 1_555 1_555
C9 C3 1_555 1_555
H7 C9 1_555 1_555
C7 C8 1_555 1_555
C8 C9 1_555 1_555
O4_2 C1_2 1_555 1_555
O5_2 C2_2 1_555 1_555
C2_2 C3_2 1_555 1_555
C3_2 C5_2 1_555 1_555
C4_2 C1_2 1_555 1_555
C5_2 C4_2 1_555 1_555
H3_2 C5_2 1_555 1_555
C6_2 C4_2 1_555 1_555
Be5_2 O5_2 1_555 1_555
Be6_2 O10_2 1_555 1_555
O9_2 C7_2 1_555 1_555
O10_2 C2_2 1_555 1_555
C8_2 C6_2 1_555 1_555
C9_2 C3_2 1_555 1_555
H7_2 C9_2 1_555 1_555
C7_2 C8_2 1_555 1_555
C8_2 C9_2 1_555 1_555
O6_3 H9_2 1_555 1_555
Be1_2 O6_3 1_555 1_555
O2_2 Be1_2 1_555 1_555
O3_2 Be1_2 1_555 1_555
Be2_2 O6_4 1_555 1_555
Be4_2 O2_2 1_555 1_555
O7_2 Be2_2 1_555 1_555
O8_2 Be2_2 1_555 1_555
O11_2 Be1_2 1_555 1_555
O12_2 Be2_2 1_555 1_555
C2_3 C3_3 1_555 1_555
H4_3 C6_3 1_555 1_555
Be5_2 O6_5 1_555 1_555
O7_3 Be5_2 1_555 1_555
O8_3 Be5_2 1_555 1_555
O9_3 C7_3 1_555 1_555
O11 C2_3 1_555 1_555
C7_3 O8_3 1_555 1_555
C8_3 C6_3 1_555 1_555
C9_3 C3_3 1_555 1_555
H7_3 C9_3 1_555 1_555
C7_3 C8_3 1_555 1_555
C8_3 C9_3 1_555 1_555
Be6_2 O6_5 1_555 1_555
O2_3 Be6_2 1_555 1_555
O3_3 Be6_2 1_555 1_555
O4_3 C1_3 1_555 1_555
O12 C2_4 1_555 1_555
C1_3 O3_3 1_555 1_555
C2_4 C3_4 1_555 1_555
C3_4 C5_3 1_555 1_555
C4_3 C1_3 1_555 1_555
C5_3 C4_3 1_555 1_555
H3_3 C5_3 1_555 1_555
C6_4 C4_3 1_555 1_555
H4_4 C6_4 1_555 1_555
Be4_3 O2_3 1_555 1_555
C2_5 C3_5 1_555 1_555
H4_5 C6_5 1_555 1_555
Be5 O6_6 1_555 1_555
O7_4 Be5 1_555 1_555
O8_4 Be5 1_555 1_555
O9_4 C7_4 1_555 1_555
O11_2 C2_5 1_555 1_555
C7_4 O8_4 1_555 1_555
C8_4 C6_5 1_555 1_555
C9_4 C3_5 1_555 1_555
H7_4 C9_4 1_555 1_555
C7_4 C8_4 1_555 1_555
C8_4 C9_4 1_555 1_555
Be6 O6_6 1_555 1_555
O2_4 Be6 1_555 1_555
O3_4 Be6 1_555 1_555
O4_4 C1_4 1_555 1_555
O12_2 C2_6 1_555 1_555
C1_4 O3_4 1_555 1_555
C2_6 C3_6 1_555 1_555
C3_6 C5_4 1_555 1_555
C4_4 C1_4 1_555 1_555
C5_4 C4_4 1_555 1_555
H3_4 C5_4 1_555 1_555
C6_6 C4_4 1_555 1_555
H4_6 C6_6 1_555 1_555
Be4_4 O2_4 1_555 1_555
Be1_3 O1 1_555 1_555
O7_4 Be1_3 1_555 1_555
O3_5 Be1_3 1_555 1_555
O4_5 C1_5 1_555 1_555
O5_3 C2_7 1_555 1_555
C1_5 O3_5 1_555 1_555
C2_7 C3_7 1_555 1_555
C3_7 C5_5 1_555 1_555
C4_5 C1_5 1_555 1_555
C5_5 C4_5 1_555 1_555
H3_5 C5_5 1_555 1_555
C6_7 C4_5 1_555 1_555
H4_7 C6_7 1_555 1_555
Be4_4 O1 1_555 1_555
Be4 O5_3 1_555 1_555
O11_3 Be1_3 1_555 1_555
C2_8 C3_8 1_555 1_555
H4_8 C6_8 1_555 1_555
Be6_3 O10_3 1_555 1_555
O8_5 Be4_4 1_555 1_555
O9_5 C7_5 1_555 1_555
O10_3 C2_8 1_555 1_555
O12_3 Be4_4 1_555 1_555
C7_5 O8_5 1_555 1_555
C8_5 C6_8 1_555 1_555
C9_5 C3_8 1_555 1_555
H7_5 C9_5 1_555 1_555
C7_5 C8_5 1_555 1_555
C8_5 C9_5 1_555 1_555
Be1_4 O1_2 1_555 1_555
O7_3 Be1_4 1_555 1_555
O3_6 Be1_4 1_555 1_555
O4_6 C1_6 1_555 1_555
O5_4 C2_9 1_555 1_555
C1_6 O3_6 1_555 1_555
C2_9 C3_9 1_555 1_555
C3_9 C5_6 1_555 1_555
C4_6 C1_6 1_555 1_555
C5_6 C4_6 1_555 1_555
H3_6 C5_6 1_555 1_555
C6_9 C4_6 1_555 1_555
H4_9 C6_9 1_555 1_555
Be4_3 O1_2 1_555 1_555
Be4_2 O5_4 1_555 1_555
O11_4 Be1_4 1_555 1_555
C2_10 C3_10 1_555 1_555
H4_10 C6_10 1_555 1_555
Be6_4 O10_4 1_555 1_555
O8_6 Be4_3 1_555 1_555
O9_6 C7_6 1_555 1_555
O10_4 C2_10 1_555 1_555
O12_4 Be4_3 1_555 1_555
C7_6 O8_6 1_555 1_555
C8_6 C6_10 1_555 1_555
C9_6 C3_10 1_555 1_555
H7_6 C9_6 1_555 1_555
C7_6 C8_6 1_555 1_555
C8_6 C9_6 1_555 1_555
Be4_2 O1_3 1_555 1_555
Be6_4 O1_4 1_555 1_555
O7_2 Be6_4 1_555 1_555
O3_7 Be6_4 1_555 1_555
O8_7 Be4_2 1_555 1_555
O1_4 H9_3 1_555 1_555
O4_7 C1_7 1_555 1_555
O12_3 C2_11 1_555 1_555
C2_11 C3_11 1_555 1_555
C3_11 C5_7 1_555 1_555
C4_7 C1_7 1_555 1_555
C5_7 C4_7 1_555 1_555
H3_7 C5_7 1_555 1_555
C6_11 C4_7 1_555 1_555
O9_7 C7_7 1_555 1_555
O11_3 C2_11 1_555 1_555
C8_7 C6_11 1_555 1_555
C9_7 C3_11 1_555 1_555
H7_7 C9_7 1_555 1_555
C7_7 C8_7 1_555 1_555
C8_7 C9_7 1_555 1_555
O4_8 C1_8 1_555 1_555
O12_4 C2_12 1_555 1_555
C2_12 C3_12 1_555 1_555
C3_12 C5_8 1_555 1_555
C4_8 C1_8 1_555 1_555
C5_8 C4_8 1_555 1_555
H3_8 C5_8 1_555 1_555
C6_12 C4_8 1_555 1_555
O9_8 C7_8 1_555 1_555
O11_4 C2_12 1_555 1_555
C8_8 C6_12 1_555 1_555
C9_8 C3_12 1_555 1_555
H7_8 C9_8 1_555 1_555
C7_8 C8_8 1_555 1_555
C8_8 C9_8 1_555 1_555
Be4 O1_5 1_555 1_555
Be6_3 O1_6 1_555 1_555
O7 Be6_3 1_555 1_555
O3_8 Be6_3 1_555 1_555
O8_8 Be4 1_555 1_555
O1_6 H9_4 1_555 1_555
O6_4 H9_5 1_555 1_555
O6_2 H9_6 1_555 1_555
O1_5 H9_7 1_555 1_555
O1_3 H9_8 1_555 1_555

#END
