
###############################################################################
#
# This file contains modified crystal structure data generated from the
# MOF subset of the Cambridge Structural Database (CSD) v543 
# hosted by the Cambridge Crystallographic Data Centre (CCDC).
#
# This work is licensed under the Creative Commons
# Attribution-NonCommercial-ShareAlike 4.0 International License.
# To view a copy of this license, visit
# http://creativecommons.org/licenses/by-nc-sa/4.0/
# or send a letter to
# Creative Commons, PO Box 1866, Mountain View, CA 94042, USA.
#
# CIF created using the CSD Python API on 29 September 2022
# The structure has been converted into the P1 space group
# The structure has a 3D framework
# The original CSD entry FAHGUU is in the rhombohedral crystal system
# The framework has been calculated to contain at least 10.0% void space
# The void calculation uses a probe of radius 1.32A, grid spacing 0.4
#
###############################################################################

data_FAHGUU
_chemical_formula_moiety         '(C216 H126 N27 O90 S9 Zn27)n'
_symmetry_cell_setting           triclinic
_symmetry_space_group_name_H-M   'P 1'
_symmetry_Int_Tables_number      1
_space_group_name_Hall           'P 1'
loop_
_symmetry_equiv_pos_site_id
_symmetry_equiv_pos_as_xyz
1 x,y,z
_cell_length_a                   32.623(2)
_cell_length_b                   32.623(2)
_cell_length_c                   11.677(2)
_cell_angle_alpha                90
_cell_angle_beta                 90
_cell_angle_gamma                120
_cell_volume                     10762.4
loop_
_atom_site_label
_atom_site_type_symbol
_atom_site_fract_x
_atom_site_fract_y
_atom_site_fract_z
Zn2 Zn 0.22442(11) 0.11221(5) 0.0289(3)
O2 O 0.1713(6) 0.0431(6) 0.0290(15)
O6 O 0.2792(6) 0.0968(5) 0.0261(14)
N1 N 0.4373(8) 0.1079(6) 0.0458(15)
C3 C 0.3697(12) 0.1211(12) 0.075(3)
H1 H 0.3557 0.1348 0.1177
C7 C 0.4159(18) 0.1270(13) 0.107(3)
H3 H 0.4309 0.1446 0.1725
Zn6 Zn 0.49760(11) 0.10896(8) 0.1152(2)
O13 O 0.1713(6) 0.1282(8) 0.0290(15)
O16 O 0.2792(6) 0.1824(8) 0.0261(14)
N5 N 0.2254(7) 0.1127(4) 0.206(2)
Zn1 Zn 0.22437(8) 0.05530(8) 0.7819(2)
O1 O 0.2238(5) 0.1119(2) 0.8555(13)
O3 O 0.2855(5) 0.0738(6) 0.8527(13)
O4 O 0.1639(5) 0.0126(5) 0.8590(12)
O5 O 0.2240(6) 0.0775(5) 0.6262(11)
C2 C 0.1509(8) 0.0127(8) 0.960(2)
C4 C 0.2986(8) 0.0876(8) 0.952(2)
C6 C 0.3485(8) 0.0959(9) 0.9825(18)
C8 C 0.4164(16) 0.0880(12) 0.947(2)
H4 H 0.4325 0.0797 0.8950
C9 C 0.3723(11) 0.0795(12) 0.921(2)
H5 H 0.3576 0.0612 0.8568
C10 C 0.2242(10) 0.1121(5) 0.579(2)
C11 C 0.2239(12) 0.1120(6) 0.453(2)
C12 C 0.2228(10) 0.1431(17) 0.394(4)
H6 H 0.2228 0.1681 0.4326
C13 C 0.2217(12) 0.1436(14) 0.265(4)
H7 H 0.2181 0.1669 0.2283
O9 O 0.2240(6) 0.1465(8) 0.6262(11)
C17 C 0.2228(10) 0.0797(20) 0.394(4)
H9 H 0.2228 0.0547 0.4326
C18 C 0.2217(12) 0.0781(18) 0.265(4)
H10 H 0.2181 0.0512 0.2283
H13 H 0.2536 0.0195 0.5617
Zn5 Zn 0.22437(8) 0.16907(11) 0.7819(2)
S1 S 0.07417(15) 0.92583(15) 0.8938(6)
C1 C 0.1046(8) 0.9717(7) 0.989(2)
C14 C 0.0283(7) 0.8954(8) 0.989(2)
Zn3 Zn 0.27803(8) 0.83574(11) 0.4486(2)
O10 O 0.2595(6) 0.8784(8) 0.5194(13)
O11 O 0.2365(5) 0.8491(8) 0.6928(14)
N3 N 0.2254(6) 0.9961(10) 0.7125(15)
C19 C 0.2122(12) 0.9153(17) 0.742(3)
H11 H 0.1985 0.8876 0.7844
C20 C 0.2457(8) 0.8777(11) 0.619(2)
C21 C 0.2374(9) 0.9193(12) 0.6492(18)
C22 C 0.2063(13) 0.9556(22) 0.774(3)
H12 H 0.1887 0.9530 0.8392
C23 C 0.2453(12) 0.9951(20) 0.614(2)
C24 C 0.2538(12) 0.9595(16) 0.588(2)
H14 H 0.2721 0.9631 0.5235
Zn9 Zn 0.22112(5) 0.77888(12) 0.6956(3)
O12 O 0.2214(2) 0.7786(5) 0.5222(13)
O14 O 0.3207(5) 0.8180(7) 0.5257(12)
O15 O 0.2558(5) 0.8132(8) 0.2929(11)
N4 N 0.3373(10) 0.8960(8) 0.3791(15)
O7 O 0.9569(6) 0.8287(6) 0.0290(15)
Zn8 Zn 0.88779(12) 0.77558(11) 0.0289(3)
O8 O 0.9874(5) 0.8361(5) 0.8590(12)
C15 C 0.9873(8) 0.8491(8) 0.960(2)
Zn4 Zn 0.94470(8) 0.77563(8) 0.7819(2)
C5 C 0.0340(10) 0.1141(16) 0.087(2)
H2 H 0.0122 0.1028 0.1472
C16 C 0.0801(12) 0.1141(16) 0.087(2)
H8 H 0.0906 0.1028 0.1472
S1_2 S 0.07417(15) 0.14834(21) 0.8938(6)
C1_2 C 0.0283(7) 0.1329(11) 0.989(2)
O8_2 O 0.1639(5) 0.1513(7) 0.8590(12)
C14_2 C 0.1046(8) 0.1329(11) 0.989(2)
C15_2 C 0.1509(8) 0.1382(11) 0.960(2)
Zn3_2 Zn 0.16426(11) 0.44230(14) 0.4486(2)
O10_2 O 0.1216(8) 0.3812(10) 0.5194(13)
O11_2 O 0.1509(8) 0.3875(9) 0.6928(14)
N3_2 N 0.0039(10) 0.2294(12) 0.7125(15)
C19_2 C 0.0847(17) 0.2970(21) 0.742(3)
H11_2 H 0.1124 0.3110 0.7844
C20_2 C 0.1223(11) 0.3681(14) 0.619(2)
C21_2 C 0.0807(12) 0.3182(15) 0.6492(18)
C22_2 C 0.0444(22) 0.2508(26) 0.774(3)
H12_2 H 0.0470 0.2358 0.8392
C23_2 C 0.0049(20) 0.2503(23) 0.614(2)
C24_2 C 0.0405(16) 0.2944(20) 0.588(2)
H14_2 H 0.0369 0.3091 0.5235
Zn9_2 Zn 0.22112(12) 0.44225(13) 0.6956(3)
O12_2 O 0.2214(5) 0.4429(5) 0.5222(13)
O14_2 O 0.1820(7) 0.5028(9) 0.5257(12)
O15_2 O 0.1868(8) 0.4427(9) 0.2929(11)
N4_2 N 0.1040(8) 0.4412(13) 0.3791(15)
Zn2_2 Zn 0.88779(5) 0.11221(12) 0.0289(3)
O2_2 O 0.9569(6) 0.1282(8) 0.0290(15)
O6_2 O 0.9032(5) 0.1824(8) 0.0261(14)
N1_2 N 0.8921(6) 0.3294(10) 0.0458(15)
C3_2 C 0.8789(12) 0.2486(17) 0.075(3)
H1_2 H 0.8652 0.2209 0.1177
C7_2 C 0.8730(13) 0.2889(22) 0.107(3)
H3_2 H 0.8554 0.2863 0.1725
Zn6_2 Zn 0.89104(8) 0.38863(14) 0.1152(2)
O13_2 O 0.8718(8) 0.0431(10) 0.0290(15)
O16_2 O 0.8176(8) 0.0968(10) 0.0261(14)
N5_2 N 0.8873(4) 0.1127(8) 0.206(2)
Zn1_2 Zn 0.94470(8) 0.16907(11) 0.7819(2)
O1_2 O 0.8881(2) 0.1119(5) 0.8555(13)
O3_2 O 0.9262(6) 0.2117(8) 0.8527(13)
O4_2 O 0.9874(5) 0.1513(7) 0.8590(12)
O5_2 O 0.9225(5) 0.1465(8) 0.6262(11)
C2_2 C 0.9873(8) 0.1382(11) 0.960(2)
C4_2 C 0.9124(8) 0.2110(11) 0.952(2)
C6_2 C 0.9041(9) 0.2526(12) 0.9825(18)
C8_2 C 0.9120(12) 0.3284(20) 0.947(2)
H4_2 H 0.9203 0.3528 0.8950
C9_2 C 0.9205(12) 0.2928(16) 0.921(2)
H5_2 H 0.9388 0.2964 0.8568
C10_2 C 0.8879(5) 0.1121(11) 0.579(2)
C11_2 C 0.8880(6) 0.1119(13) 0.453(2)
C12_2 C 0.8569(17) 0.0797(20) 0.394(4)
H6_2 H 0.8319 0.0547 0.4326
C13_2 C 0.8564(14) 0.0781(18) 0.265(4)
H7_2 H 0.8331 0.0512 0.2283
O9_2 O 0.8535(8) 0.0775(10) 0.6262(11)
C17_2 C 0.9203(20) 0.1431(22) 0.394(4)
H9_2 H 0.9453 0.1681 0.4326
C18_2 C 0.9219(18) 0.1436(22) 0.265(4)
H10_2 H 0.9488 0.1669 0.2283
H13_2 H 0.9805 0.2342 0.5617
Zn5_2 Zn 0.83093(11) 0.05530(14) 0.7819(2)
O8_3 O 0.8487(7) 0.0126(5) 0.8590(12)
C15_3 C 0.8618(11) 0.0127(8) 0.960(2)
O2_3 O 0.8718(8) 0.8287(6) 0.0290(15)
O6_3 O 0.8176(8) 0.7208(6) 0.0261(14)
N1_3 N 0.6706(10) 0.5627(8) 0.0458(15)
C3_3 C 0.7514(17) 0.6303(12) 0.075(3)
H1_3 H 0.7791 0.6443 0.1177
C5_2 C 0.8859(16) 0.9199(12) 0.087(2)
H2_2 H 0.8972 0.9094 0.1472
C7_3 C 0.7111(22) 0.5841(18) 0.107(3)
H3_3 H 0.7137 0.5691 0.1725
C16_2 C 0.8859(16) 0.9660(10) 0.087(2)
H8_2 H 0.8972 0.9878 0.1472
Zn6_3 Zn 0.61137(14) 0.50240(11) 0.1152(2)
O16_3 O 0.9032(10) 0.7208(6) 0.0261(14)
N5_3 N 0.8873(8) 0.7746(7) 0.206(2)
Zn1_3 Zn 0.83093(11) 0.77563(8) 0.7819(2)
S1_3 S 0.85166(21) 0.92583(15) 0.8938(6)
O1_3 O 0.8881(5) 0.7762(5) 0.8555(13)
O3_3 O 0.7883(8) 0.7145(5) 0.8527(13)
O4_3 O 0.8487(7) 0.8361(5) 0.8590(12)
O5_3 O 0.8535(8) 0.7760(6) 0.6262(11)
C1_3 C 0.8671(11) 0.8954(8) 0.989(2)
C2_3 C 0.8618(11) 0.8491(8) 0.960(2)
C4_3 C 0.7890(11) 0.7014(8) 0.952(2)
C6_3 C 0.7474(12) 0.6515(8) 0.9825(18)
C8_3 C 0.6716(20) 0.5836(16) 0.947(2)
H4_3 H 0.6472 0.5675 0.8950
C9_3 C 0.7072(16) 0.6277(11) 0.921(2)
H5_3 H 0.7036 0.6424 0.8568
C10_3 C 0.8879(11) 0.7758(10) 0.579(2)
C11_3 C 0.8881(13) 0.7761(12) 0.453(2)
C12_3 C 0.9203(20) 0.7772(10) 0.394(4)
H6_3 H 0.9453 0.7772 0.4326
C13_3 C 0.9219(18) 0.7783(12) 0.265(4)
H7_3 H 0.9488 0.7819 0.2283
C14_3 C 0.8671(11) 0.9717(7) 0.989(2)
O9_3 O 0.9225(10) 0.7760(6) 0.6262(11)
C17_3 C 0.8569(22) 0.7772(10) 0.394(4)
H9_3 H 0.8319 0.7772 0.4326
C18_3 C 0.8564(22) 0.7783(12) 0.265(4)
H10_3 H 0.8331 0.7819 0.2283
Zn3_3 Zn 0.55770(14) 0.72197(8) 0.4486(2)
O10_3 O 0.6188(10) 0.7405(6) 0.5194(13)
O11_3 O 0.6125(9) 0.7635(5) 0.6928(14)
N3_3 N 0.7706(12) 0.7746(6) 0.7125(15)
C19_3 C 0.7030(21) 0.7878(12) 0.742(3)
H11_3 H 0.6890 0.8015 0.7844
C20_3 C 0.6319(14) 0.7543(8) 0.619(2)
C21_3 C 0.6818(15) 0.7626(9) 0.6492(18)
C22_3 C 0.7492(26) 0.7937(13) 0.774(3)
H12_3 H 0.7642 0.8113 0.8392
C23_3 C 0.7497(23) 0.7547(12) 0.614(2)
H13_3 H 0.7658 0.7464 0.5617
C24_3 C 0.7056(20) 0.7462(12) 0.588(2)
H14_3 H 0.6909 0.7279 0.5235
Zn9_3 Zn 0.55775(13) 0.77888(5) 0.6956(3)
O12_3 O 0.5571(5) 0.7786(2) 0.5222(13)
O14_3 O 0.4972(9) 0.6793(5) 0.5257(12)
O15_3 O 0.5573(9) 0.7442(5) 0.2929(11)
N4_3 N 0.5588(13) 0.6627(10) 0.3791(15)
Zn3_4 Zn 0.16426(11) 0.72197(8) 0.4486(2)
O10_4 O 0.1216(8) 0.7405(6) 0.5194(13)
O11_4 O 0.1509(8) 0.7635(5) 0.6928(14)
N3_4 N 0.0039(10) 0.7746(6) 0.7125(15)
C19_4 C 0.0847(17) 0.7878(12) 0.742(3)
H11_4 H 0.1124 0.8015 0.7844
C20_4 C 0.1223(11) 0.7543(8) 0.619(2)
C21_4 C 0.0807(12) 0.7626(9) 0.6492(18)
C22_4 C 0.0444(22) 0.7937(13) 0.774(3)
H12_4 H 0.0470 0.8113 0.8392
C23_4 C 0.0049(20) 0.7547(12) 0.614(2)
C24_4 C 0.0405(16) 0.7462(12) 0.588(2)
H14_4 H 0.0369 0.7279 0.5235
O14_4 O 0.1820(7) 0.6793(5) 0.5257(12)
O15_4 O 0.1868(8) 0.7442(5) 0.2929(11)
N4_4 N 0.1040(8) 0.6627(10) 0.3791(15)
N1_4 N 0.8921(6) 0.5627(8) 0.0458(15)
C3_4 C 0.8789(12) 0.6303(12) 0.075(3)
H1_4 H 0.8652 0.6443 0.1177
C7_4 C 0.8730(13) 0.5841(18) 0.107(3)
H3_4 H 0.8554 0.5691 0.1725
Zn6_4 Zn 0.89104(8) 0.50240(11) 0.1152(2)
O3_4 O 0.9262(6) 0.7145(5) 0.8527(13)
C4_4 C 0.9124(8) 0.7014(8) 0.952(2)
C6_4 C 0.9041(9) 0.6515(8) 0.9825(18)
C8_4 C 0.9120(12) 0.5836(16) 0.947(2)
H4_4 H 0.9203 0.5675 0.8950
C9_4 C 0.9205(12) 0.6277(11) 0.921(2)
H5_4 H 0.9388 0.6424 0.8568
H13_4 H 0.9805 0.7464 0.5617
N1_5 N 0.4373(8) 0.3294(10) 0.0458(15)
C3_5 C 0.3697(12) 0.2486(17) 0.075(3)
H1_5 H 0.3557 0.2209 0.1177
C7_5 C 0.4159(18) 0.2889(22) 0.107(3)
H3_5 H 0.4309 0.2863 0.1725
Zn6_5 Zn 0.49760(11) 0.38863(14) 0.1152(2)
O3_5 O 0.2855(5) 0.2117(8) 0.8527(13)
C4_5 C 0.2986(8) 0.2110(11) 0.952(2)
C6_5 C 0.3485(8) 0.2526(12) 0.9825(18)
C8_5 C 0.4164(16) 0.3284(20) 0.947(2)
H4_5 H 0.4325 0.3528 0.8950
C9_5 C 0.3723(11) 0.2928(16) 0.921(2)
H5_5 H 0.3576 0.2964 0.8568
Zn3_5 Zn 0.27803(8) 0.44230(14) 0.4486(2)
O10_5 O 0.2595(6) 0.3812(10) 0.5194(13)
O11_5 O 0.2365(5) 0.3875(9) 0.6928(14)
N3_5 N 0.2254(6) 0.2294(12) 0.7125(15)
C19_5 C 0.2122(12) 0.2970(21) 0.742(3)
H11_5 H 0.1985 0.3110 0.7844
C20_5 C 0.2457(8) 0.3681(14) 0.619(2)
C21_5 C 0.2374(9) 0.3182(15) 0.6492(18)
C22_5 C 0.2063(13) 0.2508(26) 0.774(3)
H12_5 H 0.1887 0.2358 0.8392
C23_5 C 0.2453(12) 0.2503(23) 0.614(2)
H13_5 H 0.2536 0.2342 0.5617
C24_5 C 0.2538(12) 0.2944(20) 0.588(2)
H14_5 H 0.2721 0.3091 0.5235
O14_5 O 0.3207(5) 0.5028(9) 0.5257(12)
O15_5 O 0.2558(5) 0.4427(9) 0.2929(11)
N4_5 N 0.3373(10) 0.4412(13) 0.3791(15)
N1_6 N 0.6706(10) 0.1079(6) 0.0458(15)
C3_6 C 0.7514(17) 0.1211(12) 0.075(3)
H1_6 H 0.7791 0.1348 0.1177
C7_6 C 0.7111(22) 0.1270(13) 0.107(3)
H3_6 H 0.7137 0.1446 0.1725
Zn6_6 Zn 0.61137(14) 0.10896(8) 0.1152(2)
O3_6 O 0.7883(8) 0.0738(6) 0.8527(13)
C4_6 C 0.7890(11) 0.0876(8) 0.952(2)
C6_6 C 0.7474(12) 0.0959(9) 0.9825(18)
C8_6 C 0.6716(20) 0.0880(12) 0.947(2)
H4_6 H 0.6472 0.0797 0.8950
C9_6 C 0.7072(16) 0.0795(12) 0.921(2)
H5_6 H 0.7036 0.0612 0.8568
H13_6 H 0.7658 0.0195 0.5617
Zn3_6 Zn 0.55770(14) 0.83574(11) 0.4486(2)
O10_6 O 0.6188(10) 0.8784(8) 0.5194(13)
O11_6 O 0.6125(9) 0.8491(8) 0.6928(14)
N3_6 N 0.7706(12) 0.9961(10) 0.7125(15)
C19_6 C 0.7030(21) 0.9153(17) 0.742(3)
H11_6 H 0.6890 0.8876 0.7844
C20_6 C 0.6319(14) 0.8777(11) 0.619(2)
C21_6 C 0.6818(15) 0.9193(12) 0.6492(18)
C22_6 C 0.7492(26) 0.9556(22) 0.774(3)
H12_6 H 0.7642 0.9530 0.8392
C23_6 C 0.7497(23) 0.9951(20) 0.614(2)
C24_6 C 0.7056(20) 0.9595(16) 0.588(2)
H14_6 H 0.6909 0.9631 0.5235
O14_6 O 0.4972(9) 0.8180(7) 0.5257(12)
O15_6 O 0.5573(9) 0.8132(8) 0.2929(11)
N4_6 N 0.5588(13) 0.8960(8) 0.3791(15)
C3_7 C 0.0364(12) 0.4544(12) 0.408(3)
H1_7 H 0.0224 0.4681 0.4510
C6_7 C 0.0152(8) 0.4292(9) 0.3158(18)
C7_7 C 0.0826(18) 0.4603(13) 0.440(3)
H3_7 H 0.0976 0.4779 0.5058
C8_7 C 0.0831(16) 0.4213(12) 0.280(2)
H4_7 H 0.0992 0.4130 0.2283
C9_7 C 0.0390(11) 0.4128(12) 0.254(2)
H5_7 H 0.0243 0.3945 0.1901
Zn2_3 Zn 0.89109(11) 0.44554(5) 0.3622(3)
S1_4 S 0.74084(15) 0.25916(15) 0.2271(6)
O1_4 O 0.8905(5) 0.4452(2) 0.1888(13)
O2_4 O 0.8380(6) 0.3764(6) 0.3623(15)
O3_7 O 0.9522(5) 0.4071(6) 0.1860(13)
O4_4 O 0.8306(5) 0.3459(5) 0.1923(12)
O6_4 O 0.9459(6) 0.4301(5) 0.3594(14)
C1_4 C 0.7713(8) 0.3050(7) 0.322(2)
C2_4 C 0.8176(8) 0.3460(8) 0.293(2)
C4_7 C 0.9653(8) 0.4209(8) 0.285(2)
C5_3 C 0.7468(12) 0.2993(10) 0.420(2)
H2_3 H 0.7573 0.3211 0.4805
O7_2 O 0.6236(6) 0.1620(6) 0.3623(15)
O8_4 O 0.6541(5) 0.1694(5) 0.1923(12)
C14_4 C 0.6950(7) 0.2287(8) 0.322(2)
C15_4 C 0.6540(8) 0.1824(8) 0.293(2)
C16_3 C 0.7007(10) 0.2532(12) 0.420(2)
H8_3 H 0.6789 0.2427 0.4805
Zn8_2 Zn 0.55446(12) 0.10891(11) 0.3622(3)
O13_3 O 0.8380(6) 0.4615(8) 0.3623(15)
O16_4 O 0.9459(6) 0.5157(8) 0.3594(14)
N5_4 N 0.8921(7) 0.4460(4) 0.539(2)
O5_4 O 0.8907(6) 0.4108(5) 0.9595(11)
C10_4 C 0.8909(10) 0.4454(5) 0.912(2)
C11_4 C 0.8906(12) 0.4453(6) 0.786(2)
C12_4 C 0.8895(10) 0.4764(17) 0.727(4)
H6_4 H 0.8895 0.5014 0.7659
C13_4 C 0.8884(12) 0.4769(14) 0.598(4)
H7_4 H 0.8848 0.5002 0.5616
O9_4 O 0.8907(6) 0.4798(8) 0.9595(11)
C17_4 C 0.8895(10) 0.4130(20) 0.727(4)
H9_4 H 0.8895 0.3880 0.7659
C18_4 C 0.8884(12) 0.4114(18) 0.598(4)
H10_4 H 0.8848 0.3845 0.5616
Zn2_4 Zn 0.55446(5) 0.44554(12) 0.3622(3)
S1_5 S 0.74084(15) 0.48167(21) 0.2271(6)
O1_5 O 0.5548(2) 0.4452(5) 0.1888(13)
O2_5 O 0.6236(6) 0.4615(8) 0.3623(15)
O3_8 O 0.5929(6) 0.5450(8) 0.1860(13)
O4_5 O 0.6541(5) 0.4846(7) 0.1923(12)
O6_5 O 0.5699(5) 0.5157(8) 0.3594(14)
C1_5 C 0.6950(7) 0.4662(11) 0.322(2)
C2_5 C 0.6540(8) 0.4715(11) 0.293(2)
C3_8 C 0.5456(12) 0.5819(17) 0.408(3)
H1_8 H 0.5319 0.5542 0.4510
C4_8 C 0.5791(8) 0.5443(11) 0.285(2)
C5_4 C 0.7007(10) 0.4474(16) 0.420(2)
H2_4 H 0.6789 0.4361 0.4805
C6_8 C 0.5708(9) 0.5859(12) 0.3158(18)
C7_8 C 0.5397(13) 0.6222(22) 0.440(3)
H3_8 H 0.5221 0.6196 0.5058
C8_8 C 0.5787(12) 0.6617(20) 0.280(2)
H4_8 H 0.5870 0.6861 0.2283
C9_8 C 0.5872(12) 0.6261(16) 0.254(2)
H5_8 H 0.6055 0.6297 0.1901
O8_5 O 0.8306(5) 0.4846(7) 0.1923(12)
C14_5 C 0.7713(8) 0.4662(11) 0.322(2)
C15_5 C 0.8176(8) 0.4715(11) 0.293(2)
C16_4 C 0.7468(12) 0.4474(16) 0.420(2)
H8_4 H 0.7573 0.4361 0.4805
O13_4 O 0.5385(8) 0.3764(10) 0.3623(15)
O16_5 O 0.4843(8) 0.4301(10) 0.3594(14)
N5_5 N 0.5540(4) 0.4460(8) 0.539(2)
O5_5 O 0.5892(5) 0.4798(8) 0.9595(11)
C10_5 C 0.5546(5) 0.4454(11) 0.912(2)
C11_5 C 0.5547(6) 0.4452(13) 0.786(2)
C12_5 C 0.5236(17) 0.4130(20) 0.727(4)
H6_5 H 0.4986 0.3880 0.7659
C13_5 C 0.5231(14) 0.4114(18) 0.598(4)
H7_5 H 0.4998 0.3845 0.5616
O9_5 O 0.5202(8) 0.4108(10) 0.9595(11)
C17_5 C 0.5870(20) 0.4764(22) 0.727(4)
H9_5 H 0.6120 0.5014 0.7659
C18_5 C 0.5886(18) 0.4769(22) 0.598(4)
H10_5 H 0.6155 0.5002 0.5616
S1_6 S 0.51833(21) 0.25916(15) 0.2271(6)
O1_6 O 0.5548(5) 0.1095(5) 0.1888(13)
O2_6 O 0.5385(8) 0.1620(6) 0.3623(15)
O3_9 O 0.4550(8) 0.0478(5) 0.1860(13)
O4_6 O 0.5154(7) 0.1694(5) 0.1923(12)
O6_6 O 0.4843(8) 0.0541(6) 0.3594(14)
C1_6 C 0.5338(11) 0.2287(8) 0.322(2)
C2_6 C 0.5285(11) 0.1824(8) 0.293(2)
C4_9 C 0.4557(11) 0.0347(8) 0.285(2)
C5_5 C 0.5526(16) 0.2532(12) 0.420(2)
H2_5 H 0.5639 0.2427 0.4805
O8_6 O 0.5154(7) 0.3459(5) 0.1923(12)
C14_6 C 0.5338(11) 0.3050(7) 0.322(2)
C15_6 C 0.5285(11) 0.3460(8) 0.293(2)
C16_5 C 0.5526(16) 0.2993(10) 0.420(2)
H8_5 H 0.5639 0.3211 0.4805
O16_6 O 0.5699(10) 0.0541(6) 0.3594(14)
N5_6 N 0.5540(8) 0.1079(7) 0.539(2)
O5_6 O 0.5202(8) 0.1093(6) 0.9595(11)
C10_6 C 0.5546(11) 0.1091(10) 0.912(2)
C11_6 C 0.5548(13) 0.1094(12) 0.786(2)
C12_6 C 0.5870(20) 0.1105(10) 0.727(4)
H6_6 H 0.6120 0.1105 0.7659
C13_6 C 0.5886(18) 0.1116(12) 0.598(4)
H7_6 H 0.6155 0.1152 0.5616
O9_6 O 0.5892(10) 0.1093(6) 0.9595(11)
C17_6 C 0.5236(22) 0.1105(10) 0.727(4)
H9_6 H 0.4986 0.1105 0.7659
C18_6 C 0.5231(22) 0.1116(12) 0.598(4)
H10_6 H 0.4998 0.1152 0.5616
C3_9 C 0.4181(17) 0.9636(12) 0.408(3)
H1_9 H 0.4458 0.9776 0.4510
C6_9 C 0.4141(12) 0.9848(8) 0.3158(18)
C7_9 C 0.3778(22) 0.9174(18) 0.440(3)
H3_9 H 0.3804 0.9024 0.5058
C8_9 C 0.3383(20) 0.9169(16) 0.280(2)
H4_9 H 0.3139 0.9008 0.2283
C9_9 C 0.3739(16) 0.9610(11) 0.254(2)
H5_9 H 0.3703 0.9757 0.1901
O3_10 O 0.5929(6) 0.0478(5) 0.1860(13)
C4_10 C 0.5791(8) 0.0347(8) 0.285(2)
C3_10 C 0.5456(12) 0.9636(12) 0.408(3)
H1_10 H 0.5319 0.9776 0.4510
C6_10 C 0.5708(9) 0.9848(8) 0.3158(18)
C7_10 C 0.5397(13) 0.9174(18) 0.440(3)
H3_10 H 0.5221 0.9024 0.5058
C8_10 C 0.5787(12) 0.9169(16) 0.280(2)
H4_10 H 0.5870 0.9008 0.2283
C9_10 C 0.5872(12) 0.9610(11) 0.254(2)
H5_10 H 0.6055 0.9757 0.1901
C3_11 C 0.0364(12) 0.5819(17) 0.408(3)
H1_11 H 0.0224 0.5542 0.4510
C6_11 C 0.0152(8) 0.5859(12) 0.3158(18)
C7_11 C 0.0826(18) 0.6222(22) 0.440(3)
H3_11 H 0.0976 0.6196 0.5058
C8_11 C 0.0831(16) 0.6617(20) 0.280(2)
H4_11 H 0.0992 0.6861 0.2283
C9_11 C 0.0390(11) 0.6261(16) 0.254(2)
H5_11 H 0.0243 0.6297 0.1901
O3_11 O 0.9522(5) 0.5450(8) 0.1860(13)
C4_11 C 0.9653(8) 0.5443(11) 0.285(2)
O3_12 O 0.4550(8) 0.4071(6) 0.1860(13)
C3_12 C 0.4181(17) 0.4544(12) 0.408(3)
H1_12 H 0.4458 0.4681 0.4510
C4_12 C 0.4557(11) 0.4209(8) 0.285(2)
C6_12 C 0.4141(12) 0.4292(9) 0.3158(18)
C7_12 C 0.3778(22) 0.4603(13) 0.440(3)
H3_12 H 0.3804 0.4779 0.5058
C8_12 C 0.3383(20) 0.4213(12) 0.280(2)
H4_12 H 0.3139 0.4130 0.2283
C9_12 C 0.3739(16) 0.4128(12) 0.254(2)
H5_12 H 0.3703 0.3945 0.1901
S1_7 S 0.40750(15) 0.59250(15) 0.5605(6)
O2_7 O 0.5046(6) 0.7098(6) 0.6957(15)
C1_7 C 0.4379(8) 0.6384(7) 0.656(2)
C2_7 C 0.4842(8) 0.6794(8) 0.627(2)
C5_6 C 0.4134(12) 0.6327(10) 0.754(2)
H2_6 H 0.4239 0.6545 0.8139
C10_7 C 0.5575(10) 0.7788(5) 0.246(2)
C11_7 C 0.5572(12) 0.7787(6) 0.120(2)
C12_7 C 0.5561(10) 0.8098(17) 0.061(4)
H6_7 H 0.5561 0.8348 0.0993
O7_3 O 0.2902(6) 0.4954(6) 0.6957(15)
C14_7 C 0.3616(7) 0.5621(8) 0.656(2)
C15_7 C 0.3206(8) 0.5158(8) 0.627(2)
C16_6 C 0.3673(10) 0.5866(12) 0.754(2)
H8_6 H 0.3455 0.5761 0.8139
C17_7 C 0.5561(10) 0.7464(20) 0.061(4)
H9_7 H 0.5561 0.7214 0.0993
O13_5 O 0.5046(6) 0.7949(8) 0.6957(15)
N5_7 N 0.5587(7) 0.7794(4) 0.873(2)
C13_7 C 0.5550(12) 0.8103(14) 0.932(4)
H7_7 H 0.5514 0.8336 0.8950
C18_7 C 0.5550(12) 0.7448(18) 0.932(4)
H10_7 H 0.5514 0.7179 0.8950
S1_8 S 0.40750(15) 0.81501(21) 0.5605(6)
O2_8 O 0.2902(6) 0.7949(8) 0.6957(15)
C1_8 C 0.3616(7) 0.7996(11) 0.656(2)
C2_8 C 0.3206(8) 0.8049(11) 0.627(2)
C5_7 C 0.3673(10) 0.7808(16) 0.754(2)
H2_7 H 0.3455 0.7695 0.8139
C10_8 C 0.2212(5) 0.7788(11) 0.246(2)
C11_8 C 0.2213(6) 0.7786(13) 0.120(2)
C12_8 C 0.1902(17) 0.7464(20) 0.061(4)
H6_8 H 0.1652 0.7214 0.0993
C14_8 C 0.4379(8) 0.7996(11) 0.656(2)
C15_8 C 0.4842(8) 0.8049(11) 0.627(2)
C16_7 C 0.4134(12) 0.7808(16) 0.754(2)
H8_7 H 0.4239 0.7695 0.8139
C17_8 C 0.2536(20) 0.8098(22) 0.061(4)
H9_8 H 0.2786 0.8348 0.0993
O13_6 O 0.2051(8) 0.7098(10) 0.6957(15)
N5_8 N 0.2206(4) 0.7794(8) 0.873(2)
C13_8 C 0.1897(14) 0.7448(18) 0.932(4)
H7_8 H 0.1664 0.7179 0.8950
C18_8 C 0.2552(18) 0.8103(22) 0.932(4)
H10_8 H 0.2821 0.8336 0.8950
S1_9 S 0.18499(21) 0.59250(15) 0.5605(6)
O2_9 O 0.2051(8) 0.4954(6) 0.6957(15)
C1_9 C 0.2004(11) 0.5621(8) 0.656(2)
C2_9 C 0.1951(11) 0.5158(8) 0.627(2)
C5_8 C 0.2192(16) 0.5866(12) 0.754(2)
H2_8 H 0.2305 0.5761 0.8139
C10_9 C 0.2212(11) 0.4425(10) 0.246(2)
C11_9 C 0.2214(13) 0.4428(12) 0.120(2)
C12_9 C 0.2536(20) 0.4439(10) 0.061(4)
H6_9 H 0.2786 0.4439 0.0993
C14_9 C 0.2004(11) 0.6384(7) 0.656(2)
C15_9 C 0.1951(11) 0.6794(8) 0.627(2)
C16_8 C 0.2192(16) 0.6327(10) 0.754(2)
H8_8 H 0.2305 0.6545 0.8139
C17_9 C 0.1902(22) 0.4439(10) 0.061(4)
H9_9 H 0.1652 0.4439 0.0993
N5_9 N 0.2206(8) 0.4413(7) 0.873(2)
C13_9 C 0.2552(18) 0.4450(12) 0.932(4)
H7_9 H 0.2821 0.4486 0.8950
C18_9 C 0.1897(22) 0.4450(12) 0.932(4)
H10_9 H 0.1664 0.4486 0.8950
C5_9 C 0.0801(12) 0.9660(10) 0.087(2)
H2_9 H 0.0906 0.9878 0.1472
C16_9 C 0.0340(10) 0.9199(12) 0.087(2)
H8_9 H 0.0122 0.9094 0.1472
loop_
_geom_bond_atom_site_label_1
_geom_bond_atom_site_label_2
_geom_bond_site_symmetry_1
_geom_bond_site_symmetry_2
O2 Zn2 1_555 1_555
O6 Zn2 1_555 1_555
N1 C7 1_555 1_555
C3 H1 1_555 1_555
C7 C3 1_555 1_555
H3 C7 1_555 1_555
Zn6 N1 1_555 1_555
O13 Zn2 1_555 1_555
O16 Zn2 1_555 1_555
N5 Zn2 1_555 1_555
Zn1 O1 1_555 1_555
O1 Zn5 1_555 1_555
O3 Zn1 1_555 1_555
O4 Zn1 1_555 1_555
O5 Zn1 1_555 1_555
N5 C13 1_555 1_555
C4 O3 1_555 1_555
H4 C8 1_555 1_555
C9 C6 1_555 1_555
H5 C9 1_555 1_555
C10 O5 1_555 1_555
C11 C10 1_555 1_555
C12 C11 1_555 1_555
H6 C12 1_555 1_555
C13 C12 1_555 1_555
H7 C13 1_555 1_555
O9 C10 1_555 1_555
C17 C11 1_555 1_555
H9 C17 1_555 1_555
C18 N5 1_555 1_555
H10 C18 1_555 1_555
Zn5 O9 1_555 1_555
O4 C2 1_555 1_555
C4 C6 1_555 1_555
C8 C9 1_555 1_555
C17 C18 1_555 1_555
S1 C1 1_555 1_555
C14 S1 1_555 1_555
Zn3 O10 1_555 1_555
O10 C20 1_555 1_555
O11 C20 1_555 1_555
C19 H11 1_555 1_555
C20 C21 1_555 1_555
C21 C19 1_555 1_555
C22 N3 1_555 1_555
H12 C22 1_555 1_555
C23 N3 1_555 1_555
C24 C21 1_555 1_555
H14 C24 1_555 1_555
Zn9 O11 1_555 1_555
O12 Zn3 1_555 1_555
O14 Zn3 1_555 1_555
O15 Zn3 1_555 1_555
N4 Zn3 1_555 1_555
C19 C22 1_555 1_555
C23 C24 1_555 1_555
Zn9 O12 1_555 1_555
Zn8 O7 1_555 1_555
O8 C15 1_555 1_555
Zn4 O8 1_555 1_555
H2 C5 1_555 1_555
C16 C5 1_555 1_555
H8 C16 1_555 1_555
S1_2 C1_2 1_555 1_555
O8_2 C15_2 1_555 1_555
C14_2 S1_2 1_555 1_555
C15_2 C14_2 1_555 1_555
Zn3_2 O10_2 1_555 1_555
O10_2 C20_2 1_555 1_555
O11_2 C20_2 1_555 1_555
C19_2 H11_2 1_555 1_555
C20_2 C21_2 1_555 1_555
C21_2 C19_2 1_555 1_555
C22_2 N3_2 1_555 1_555
H12_2 C22_2 1_555 1_555
C23_2 N3_2 1_555 1_555
C24_2 C21_2 1_555 1_555
H14_2 C24_2 1_555 1_555
Zn5 O8_2 1_555 1_555
Zn9_2 O11_2 1_555 1_555
O12_2 Zn3_2 1_555 1_555
O14_2 Zn3_2 1_555 1_555
O15_2 Zn3_2 1_555 1_555
N4_2 Zn3_2 1_555 1_555
C19_2 C22_2 1_555 1_555
C23_2 C24_2 1_555 1_555
Zn9_2 O12_2 1_555 1_555
O2_2 Zn2_2 1_555 1_555
O6_2 Zn2_2 1_555 1_555
N1_2 C7_2 1_555 1_555
C3_2 H1_2 1_555 1_555
C7_2 C3_2 1_555 1_555
H3_2 C7_2 1_555 1_555
Zn6_2 N1_2 1_555 1_555
O13_2 Zn2_2 1_555 1_555
O16_2 Zn2_2 1_555 1_555
N5_2 Zn2_2 1_555 1_555
Zn1_2 O1_2 1_555 1_555
O1_2 Zn5_2 1_555 1_555
O3_2 Zn1_2 1_555 1_555
O4_2 Zn1_2 1_555 1_555
O5_2 Zn1_2 1_555 1_555
N5_2 C13_2 1_555 1_555
C4_2 O3_2 1_555 1_555
H4_2 C8_2 1_555 1_555
C9_2 C6_2 1_555 1_555
H5_2 C9_2 1_555 1_555
C10_2 O5_2 1_555 1_555
C11_2 C10_2 1_555 1_555
C12_2 C11_2 1_555 1_555
H6_2 C12_2 1_555 1_555
C13_2 C12_2 1_555 1_555
H7_2 C13_2 1_555 1_555
O9_2 C10_2 1_555 1_555
C17_2 C11_2 1_555 1_555
H9_2 C17_2 1_555 1_555
C18_2 N5_2 1_555 1_555
H10_2 C18_2 1_555 1_555
Zn5_2 O9_2 1_555 1_555
O4_2 C2_2 1_555 1_555
C4_2 C6_2 1_555 1_555
C8_2 C9_2 1_555 1_555
C17_2 C18_2 1_555 1_555
O8_3 C15_3 1_555 1_555
Zn5_2 O8_3 1_555 1_555
O2_3 Zn8 1_555 1_555
O6_3 Zn8 1_555 1_555
N1_3 C7_3 1_555 1_555
C3_3 H1_3 1_555 1_555
H2_2 C5_2 1_555 1_555
C7_3 C3_3 1_555 1_555
H3_3 C7_3 1_555 1_555
C16_2 C5_2 1_555 1_555
H8_2 C16_2 1_555 1_555
Zn6_3 N1_3 1_555 1_555
O16_3 Zn8 1_555 1_555
N5_3 Zn8 1_555 1_555
Zn1_3 O1_3 1_555 1_555
S1_3 C1_3 1_555 1_555
O1_3 Zn4 1_555 1_555
O3_3 Zn1_3 1_555 1_555
O4_3 Zn1_3 1_555 1_555
O5_3 Zn1_3 1_555 1_555
N5_3 C13_3 1_555 1_555
C1_3 C2_3 1_555 1_555
C4_3 O3_3 1_555 1_555
H4_3 C8_3 1_555 1_555
C9_3 C6_3 1_555 1_555
H5_3 C9_3 1_555 1_555
C10_3 O5_3 1_555 1_555
C11_3 C10_3 1_555 1_555
C12_3 C11_3 1_555 1_555
H6_3 C12_3 1_555 1_555
C13_3 C12_3 1_555 1_555
H7_3 C13_3 1_555 1_555
C14_3 S1_3 1_555 1_555
O9_3 C10_3 1_555 1_555
C17_3 C11_3 1_555 1_555
H9_3 C17_3 1_555 1_555
C18_3 N5_3 1_555 1_555
H10_3 C18_3 1_555 1_555
Zn3_3 O10_3 1_555 1_555
O10_3 C20_3 1_555 1_555
O11_3 C20_3 1_555 1_555
N3_3 Zn1_3 1_555 1_555
C19_3 H11_3 1_555 1_555
C20_3 C21_3 1_555 1_555
C21_3 C19_3 1_555 1_555
C22_3 N3_3 1_555 1_555
H12_3 C22_3 1_555 1_555
C23_3 N3_3 1_555 1_555
H13_3 C23_3 1_555 1_555
C24_3 C21_3 1_555 1_555
H14_3 C24_3 1_555 1_555
Zn4 O9_3 1_555 1_555
Zn9_3 O11_3 1_555 1_555
O12_3 Zn3_3 1_555 1_555
O14_3 Zn3_3 1_555 1_555
O15_3 Zn3_3 1_555 1_555
N4_3 Zn3_3 1_555 1_555
O4_3 C2_3 1_555 1_555
C4_3 C6_3 1_555 1_555
C8_3 C9_3 1_555 1_555
C17_3 C18_3 1_555 1_555
C19_3 C22_3 1_555 1_555
C23_3 C24_3 1_555 1_555
Zn9_3 O12_3 1_555 1_555
Zn3_4 O10_4 1_555 1_555
O10_4 C20_4 1_555 1_555
O11_4 C20_4 1_555 1_555
C19_4 H11_4 1_555 1_555
C20_4 C21_4 1_555 1_555
C21_4 C19_4 1_555 1_555
C22_4 N3_4 1_555 1_555
H12_4 C22_4 1_555 1_555
C23_4 N3_4 1_555 1_555
C24_4 C21_4 1_555 1_555
H14_4 C24_4 1_555 1_555
Zn9 O11_4 1_555 1_555
O12 Zn3_4 1_555 1_555
O14_4 Zn3_4 1_555 1_555
O15_4 Zn3_4 1_555 1_555
N4_4 Zn3_4 1_555 1_555
C19_4 C22_4 1_555 1_555
C23_4 C24_4 1_555 1_555
N1_4 C7_4 1_555 1_555
C3_4 H1_4 1_555 1_555
C7_4 C3_4 1_555 1_555
H3_4 C7_4 1_555 1_555
Zn6_4 N1_4 1_555 1_555
O3_4 Zn4 1_555 1_555
C4_4 O3_4 1_555 1_555
H4_4 C8_4 1_555 1_555
C9_4 C6_4 1_555 1_555
H5_4 C9_4 1_555 1_555
C4_4 C6_4 1_555 1_555
C8_4 C9_4 1_555 1_555
N1_5 C7_5 1_555 1_555
C3_5 H1_5 1_555 1_555
C7_5 C3_5 1_555 1_555
H3_5 C7_5 1_555 1_555
Zn6_5 N1_5 1_555 1_555
O3_5 Zn5 1_555 1_555
C4_5 O3_5 1_555 1_555
H4_5 C8_5 1_555 1_555
C9_5 C6_5 1_555 1_555
H5_5 C9_5 1_555 1_555
Zn3_5 O10_5 1_555 1_555
O10_5 C20_5 1_555 1_555
O11_5 C20_5 1_555 1_555
N3_5 Zn5 1_555 1_555
C19_5 H11_5 1_555 1_555
C20_5 C21_5 1_555 1_555
C21_5 C19_5 1_555 1_555
C22_5 N3_5 1_555 1_555
H12_5 C22_5 1_555 1_555
C23_5 N3_5 1_555 1_555
H13_5 C23_5 1_555 1_555
C24_5 C21_5 1_555 1_555
H14_5 C24_5 1_555 1_555
Zn9_2 O11_5 1_555 1_555
O12_2 Zn3_5 1_555 1_555
O14_5 Zn3_5 1_555 1_555
O15_5 Zn3_5 1_555 1_555
N4_5 Zn3_5 1_555 1_555
C4_5 C6_5 1_555 1_555
C8_5 C9_5 1_555 1_555
C19_5 C22_5 1_555 1_555
C23_5 C24_5 1_555 1_555
N1_6 C7_6 1_555 1_555
C3_6 H1_6 1_555 1_555
C7_6 C3_6 1_555 1_555
H3_6 C7_6 1_555 1_555
Zn6_6 N1_6 1_555 1_555
O3_6 Zn5_2 1_555 1_555
C4_6 O3_6 1_555 1_555
H4_6 C8_6 1_555 1_555
C9_6 C6_6 1_555 1_555
H5_6 C9_6 1_555 1_555
C4_6 C6_6 1_555 1_555
C8_6 C9_6 1_555 1_555
Zn3_6 O10_6 1_555 1_555
O10_6 C20_6 1_555 1_555
O11_6 C20_6 1_555 1_555
C19_6 H11_6 1_555 1_555
C20_6 C21_6 1_555 1_555
C21_6 C19_6 1_555 1_555
C22_6 N3_6 1_555 1_555
H12_6 C22_6 1_555 1_555
C23_6 N3_6 1_555 1_555
C24_6 C21_6 1_555 1_555
H14_6 C24_6 1_555 1_555
Zn9_3 O11_6 1_555 1_555
O12_3 Zn3_6 1_555 1_555
O14_6 Zn3_6 1_555 1_555
O15_6 Zn3_6 1_555 1_555
N4_6 Zn3_6 1_555 1_555
C19_6 C22_6 1_555 1_555
C23_6 C24_6 1_555 1_555
N4_2 C7_7 1_555 1_555
C3_7 H1_7 1_555 1_555
C6_7 C3_7 1_555 1_555
C7_7 C3_7 1_555 1_555
H3_7 C7_7 1_555 1_555
C8_7 N4_2 1_555 1_555
H4_7 C8_7 1_555 1_555
C9_7 C6_7 1_555 1_555
H5_7 C9_7 1_555 1_555
C8_7 C9_7 1_555 1_555
Zn6_2 O1_4 1_555 1_555
Zn2_3 O1_4 1_555 1_555
S1_4 C1_4 1_555 1_555
O1_4 Zn6_4 1_555 1_555
O2_4 Zn2_3 1_555 1_555
O3_7 Zn6_2 1_555 1_555
O4_4 Zn6_2 1_555 1_555
O6_4 Zn2_3 1_555 1_555
C1_4 C2_4 1_555 1_555
C2_4 O2_4 1_555 1_555
C4_7 O3_7 1_555 1_555
C5_3 C1_4 1_555 1_555
H2_3 C5_3 1_555 1_555
O7_2 C15_4 1_555 1_555
O8_4 C15_4 1_555 1_555
C14_4 S1_4 1_555 1_555
C15_4 C14_4 1_555 1_555
C16_3 C5_3 1_555 1_555
H8_3 C16_3 1_555 1_555
Zn6_6 O8_4 1_555 1_555
Zn8_2 O7_2 1_555 1_555
O13_3 Zn2_3 1_555 1_555
O16_4 Zn2_3 1_555 1_555
N5_4 Zn2_3 1_555 1_555
O4_4 C2_4 1_555 1_555
O6_4 C4_7 1_555 1_555
C14_4 C16_3 1_555 1_555
N5_4 C13_4 1_555 1_555
C10_4 O5_4 1_555 1_555
C11_4 C10_4 1_555 1_555
C12_4 C11_4 1_555 1_555
H6_4 C12_4 1_555 1_555
C13_4 C12_4 1_555 1_555
H7_4 C13_4 1_555 1_555
O9_4 C10_4 1_555 1_555
C17_4 C11_4 1_555 1_555
H9_4 C17_4 1_555 1_555
C18_4 N5_4 1_555 1_555
H10_4 C18_4 1_555 1_555
C17_4 C18_4 1_555 1_555
Zn6_3 O1_5 1_555 1_555
Zn2_4 O1_5 1_555 1_555
S1_5 C1_5 1_555 1_555
O1_5 Zn6_5 1_555 1_555
O2_5 Zn2_4 1_555 1_555
O3_8 Zn6_3 1_555 1_555
O4_5 Zn6_3 1_555 1_555
O6_5 Zn2_4 1_555 1_555
N4_3 C7_8 1_555 1_555
C1_5 C2_5 1_555 1_555
C2_5 O2_5 1_555 1_555
C3_8 H1_8 1_555 1_555
C4_8 O3_8 1_555 1_555
C5_4 C1_5 1_555 1_555
H2_4 C5_4 1_555 1_555
C6_8 C3_8 1_555 1_555
C7_8 C3_8 1_555 1_555
H3_8 C7_8 1_555 1_555
C8_8 N4_3 1_555 1_555
H4_8 C8_8 1_555 1_555
C9_8 C6_8 1_555 1_555
H5_8 C9_8 1_555 1_555
O13_3 C15_5 1_555 1_555
O8_5 C15_5 1_555 1_555
C14_5 S1_5 1_555 1_555
C15_5 C14_5 1_555 1_555
C16_4 C5_4 1_555 1_555
H8_4 C16_4 1_555 1_555
Zn6_4 O8_5 1_555 1_555
O13_4 Zn2_4 1_555 1_555
O16_5 Zn2_4 1_555 1_555
N5_5 Zn2_4 1_555 1_555
O4_5 C2_5 1_555 1_555
O6_5 C4_8 1_555 1_555
C4_8 C6_8 1_555 1_555
C8_8 C9_8 1_555 1_555
C14_5 C16_4 1_555 1_555
N5_5 C13_5 1_555 1_555
C10_5 O5_5 1_555 1_555
C11_5 C10_5 1_555 1_555
C12_5 C11_5 1_555 1_555
H6_5 C12_5 1_555 1_555
C13_5 C12_5 1_555 1_555
H7_5 C13_5 1_555 1_555
O9_5 C10_5 1_555 1_555
C17_5 C11_5 1_555 1_555
H9_5 C17_5 1_555 1_555
C18_5 N5_5 1_555 1_555
H10_5 C18_5 1_555 1_555
C17_5 C18_5 1_555 1_555
Zn6 O1_6 1_555 1_555
Zn8_2 O1_6 1_555 1_555
S1_6 C1_6 1_555 1_555
O1_6 Zn6_6 1_555 1_555
O2_6 Zn8_2 1_555 1_555
O3_9 Zn6 1_555 1_555
O4_6 Zn6 1_555 1_555
O6_6 Zn8_2 1_555 1_555
C1_6 C2_6 1_555 1_555
C2_6 O2_6 1_555 1_555
C4_9 O3_9 1_555 1_555
C5_5 C1_6 1_555 1_555
H2_5 C5_5 1_555 1_555
O13_4 C15_6 1_555 1_555
O8_6 C15_6 1_555 1_555
C14_6 S1_6 1_555 1_555
C15_6 C14_6 1_555 1_555
C16_5 C5_5 1_555 1_555
H8_5 C16_5 1_555 1_555
Zn6_5 O8_6 1_555 1_555
O16_6 Zn8_2 1_555 1_555
N5_6 Zn8_2 1_555 1_555
O4_6 C2_6 1_555 1_555
O6_6 C4_9 1_555 1_555
C14_6 C16_5 1_555 1_555
N5_6 C13_6 1_555 1_555
C10_6 O5_6 1_555 1_555
C11_6 C10_6 1_555 1_555
C12_6 C11_6 1_555 1_555
H6_6 C12_6 1_555 1_555
C13_6 C12_6 1_555 1_555
H7_6 C13_6 1_555 1_555
O9_6 C10_6 1_555 1_555
C17_6 C11_6 1_555 1_555
H9_6 C17_6 1_555 1_555
C18_6 N5_6 1_555 1_555
H10_6 C18_6 1_555 1_555
C17_6 C18_6 1_555 1_555
N4 C7_9 1_555 1_555
C3_9 H1_9 1_555 1_555
C6_9 C3_9 1_555 1_555
C7_9 C3_9 1_555 1_555
H3_9 C7_9 1_555 1_555
C8_9 N4 1_555 1_555
H4_9 C8_9 1_555 1_555
C9_9 C6_9 1_555 1_555
H5_9 C9_9 1_555 1_555
C8_9 C9_9 1_555 1_555
O3_10 Zn6_6 1_555 1_555
C4_10 O3_10 1_555 1_555
O16_6 C4_10 1_555 1_555
N4_6 C7_10 1_555 1_555
C3_10 H1_10 1_555 1_555
C6_10 C3_10 1_555 1_555
C7_10 C3_10 1_555 1_555
H3_10 C7_10 1_555 1_555
C8_10 N4_6 1_555 1_555
H4_10 C8_10 1_555 1_555
C9_10 C6_10 1_555 1_555
H5_10 C9_10 1_555 1_555
C8_10 C9_10 1_555 1_555
N4_4 C7_11 1_555 1_555
C3_11 H1_11 1_555 1_555
C6_11 C3_11 1_555 1_555
C7_11 C3_11 1_555 1_555
H3_11 C7_11 1_555 1_555
C8_11 N4_4 1_555 1_555
H4_11 C8_11 1_555 1_555
C9_11 C6_11 1_555 1_555
H5_11 C9_11 1_555 1_555
C8_11 C9_11 1_555 1_555
O3_11 Zn6_4 1_555 1_555
C4_11 O3_11 1_555 1_555
O16_4 C4_11 1_555 1_555
O3_12 Zn6_5 1_555 1_555
N4_5 C7_12 1_555 1_555
C3_12 H1_12 1_555 1_555
C4_12 O3_12 1_555 1_555
C6_12 C3_12 1_555 1_555
C7_12 C3_12 1_555 1_555
H3_12 C7_12 1_555 1_555
C8_12 N4_5 1_555 1_555
H4_12 C8_12 1_555 1_555
C9_12 C6_12 1_555 1_555
H5_12 C9_12 1_555 1_555
O16_5 C4_12 1_555 1_555
C4_12 C6_12 1_555 1_555
C8_12 C9_12 1_555 1_555
S1_7 C1_7 1_555 1_555
O2_7 Zn9_3 1_555 1_555
C1_7 C2_7 1_555 1_555
C2_7 O2_7 1_555 1_555
C5_6 C1_7 1_555 1_555
H2_6 C5_6 1_555 1_555
C10_7 O15_3 1_555 1_555
C11_7 C10_7 1_555 1_555
C12_7 C11_7 1_555 1_555
H6_7 C12_7 1_555 1_555
O7_3 C15_7 1_555 1_555
O14_5 C15_7 1_555 1_555
C14_7 S1_7 1_555 1_555
C15_7 C14_7 1_555 1_555
C16_6 C5_6 1_555 1_555
H8_6 C16_6 1_555 1_555
O15_6 C10_7 1_555 1_555
C17_7 C11_7 1_555 1_555
H9_7 C17_7 1_555 1_555
Zn9_2 O7_3 1_555 1_555
O13_5 Zn9_3 1_555 1_555
N5_7 Zn9_3 1_555 1_555
O14_3 C2_7 1_555 1_555
C14_7 C16_6 1_555 1_555
N5_7 C13_7 1_555 1_555
H7_7 C13_7 1_555 1_555
C18_7 N5_7 1_555 1_555
H10_7 C18_7 1_555 1_555
S1_8 C1_8 1_555 1_555
O2_8 Zn9 1_555 1_555
C1_8 C2_8 1_555 1_555
C2_8 O2_8 1_555 1_555
C5_7 C1_8 1_555 1_555
H2_7 C5_7 1_555 1_555
C10_8 O15 1_555 1_555
C11_8 C10_8 1_555 1_555
C12_8 C11_8 1_555 1_555
H6_8 C12_8 1_555 1_555
O13_5 C15_8 1_555 1_555
O14_6 C15_8 1_555 1_555
C14_8 S1_8 1_555 1_555
C15_8 C14_8 1_555 1_555
C16_7 C5_7 1_555 1_555
H8_7 C16_7 1_555 1_555
O15_4 C10_8 1_555 1_555
C17_8 C11_8 1_555 1_555
H9_8 C17_8 1_555 1_555
O13_6 Zn9 1_555 1_555
N5_8 Zn9 1_555 1_555
O14 C2_8 1_555 1_555
C14_8 C16_7 1_555 1_555
N5_8 C13_8 1_555 1_555
H7_8 C13_8 1_555 1_555
C18_8 N5_8 1_555 1_555
H10_8 C18_8 1_555 1_555
S1_9 C1_9 1_555 1_555
O2_9 Zn9_2 1_555 1_555
C1_9 C2_9 1_555 1_555
C2_9 O2_9 1_555 1_555
C5_8 C1_9 1_555 1_555
H2_8 C5_8 1_555 1_555
C10_9 O15_2 1_555 1_555
C11_9 C10_9 1_555 1_555
C12_9 C11_9 1_555 1_555
H6_9 C12_9 1_555 1_555
O13_6 C15_9 1_555 1_555
O14_4 C15_9 1_555 1_555
C14_9 S1_9 1_555 1_555
C15_9 C14_9 1_555 1_555
C16_8 C5_8 1_555 1_555
H8_8 C16_8 1_555 1_555
O15_5 C10_9 1_555 1_555
C17_9 C11_9 1_555 1_555
H9_9 C17_9 1_555 1_555
N5_9 Zn9_2 1_555 1_555
O14_2 C2_9 1_555 1_555
C14_9 C16_8 1_555 1_555
N5_9 C13_9 1_555 1_555
H7_9 C13_9 1_555 1_555
C18_9 N5_9 1_555 1_555
H10_9 C18_9 1_555 1_555
H2_9 C5_9 1_555 1_555
C16_9 C5_9 1_555 1_555
H8_9 C16_9 1_555 1_555

#END
