
###############################################################################
#
# This file contains modified crystal structure data generated from the
# MOF subset of the Cambridge Structural Database (CSD) v543 
# hosted by the Cambridge Crystallographic Data Centre (CCDC).
#
# This work is licensed under the Creative Commons
# Attribution-NonCommercial-ShareAlike 4.0 International License.
# To view a copy of this license, visit
# http://creativecommons.org/licenses/by-nc-sa/4.0/
# or send a letter to
# Creative Commons, PO Box 1866, Mountain View, CA 94042, USA.
#
# CIF created using the CSD Python API on 29 September 2022
# The structure has been converted into the P1 space group
# The structure has a 3D framework
# The original CSD entry FAHHOP is in the rhombohedral crystal system
# The framework has been calculated to contain at least 10.0% void space
# The void calculation uses a probe of radius 1.32A, grid spacing 0.4
#
###############################################################################

data_FAHHOP
_chemical_formula_moiety         '(C432 H252 Co54 N51 O210)n'
_symmetry_cell_setting           triclinic
_symmetry_space_group_name_H-M   'P 1'
_symmetry_Int_Tables_number      1
_space_group_name_Hall           'P 1'
loop_
_symmetry_equiv_pos_site_id
_symmetry_equiv_pos_as_xyz
1 x,y,z
_cell_length_a                   31.7250(19)
_cell_length_b                   31.7250(19)
_cell_length_c                   23.3184(15)
_cell_angle_alpha                90
_cell_angle_beta                 90
_cell_angle_gamma                120
_cell_volume                     20325.1
loop_
_atom_site_label
_atom_site_type_symbol
_atom_site_fract_x
_atom_site_fract_y
_atom_site_fract_z
N1 N 0.2214(2) 0.10987(28) 0.1728(3)
C4 C 0.2205(3) 0.1063(2) 0.0528(3)
C19 C 0.2174(6) 0.0704(4) 0.0864(3)
H9 H 0.2131 0.0422 0.0688
C22 C 0.2200(6) 0.0727(7) 0.1429(4)
H12 H 0.2210 0.0479 0.1629
C23 C 0.2257(8) 0.1454(4) 0.0824(3)
H13 H 0.2301 0.1729 0.0628
C24 C 0.2245(7) 0.1444(9) 0.1414(4)
H14 H 0.2260 0.1711 0.1600
Co8 Co 0.21892(3) 0.11009(4) 0.26386(3)
Co1 Co 0.22230(2) 0.04823(3) 0.88570(3)
Co2 Co 0.20739(3) 0.15799(2) 0.88752(3)
Co3 Co 0.21892(3) 0.10883(2) 0.76386(3)
O1 O 0.21243(15) 0.10216(13) 0.85205(16)
O2 O 0.28776(14) 0.11708(18) 0.77002(19)
O5 O 0.18521(16) 0.03348(15) 0.76082(19)
N3 N 0.4488(2) 0.1287(2) 0.7588(3)
O6 O 0.2194(2) 0.0692(2) 0.96549(19)
C1 C 0.3568(2) 0.1118(3) 0.7899(3)
C2 C 0.2202(3) 0.1058(3) 0.9886(3)
C3 C 0.3061(2) 0.1008(2) 0.8042(3)
O8 O 0.2163(3) 0.1377(2) 0.9646(2)
C7 C 0.1547(2) 0.0038(2) 0.7944(3)
C8 C 0.3752(3) 0.0833(3) 0.8111(3)
H1 H 0.3565 0.0575 0.8357
C10 C 0.4204(3) 0.0930(4) 0.7960(3)
H2 H 0.4325 0.0742 0.8119
C12 C 0.3870(3) 0.1507(3) 0.7555(4)
H3 H 0.3771 0.1720 0.7422
C17 C 0.4325(3) 0.1577(3) 0.7408(4)
H7 H 0.4525 0.1839 0.7173
H8 H 0.0991 0.0006 0.6960
H11 H 0.2454 0.0092 0.9974
O12 O 0.28694(16) 0.07618(19) 0.8482(2)
Co5 Co 0.50868(2) 0.12594(3) 0.72085(3)
N4 N 0.2214(2) 0.11153(34) 0.6728(3)
O13 O 0.25445(28) 0.18561(16) 0.76670(19)
O14 O 0.15221(15) 0.10455(27) 0.76111(19)
N5 N 0.2046(2) 0.2179(2) 0.9255(3)
O15 O 0.27435(33) 0.20728(19) 0.8581(2)
O16 O 0.14935(19) 0.14320(34) 0.8409(2)
O7 O 0.26627(27) 0.87395(19) 0.0248(2)
H10 H 0.2645 0.9512 0.0280
Co6 Co 0.28393(4) 0.82466(2) 0.05419(3)
N2 N 0.2323(2) 0.99049(19) 0.9188(2)
O3 O 0.26450(23) 0.85228(16) 0.93337(19)
O10 O 0.16131(17) 0.99855(17) 0.8467(2)
O11 O 0.07201(15) 0.93188(15) 0.8023(2)
C5 C 0.2516(3) 0.9174(2) 0.9541(3)
C6 C 0.2616(3) 0.8783(2) 0.9717(3)
C9 C 0.1058(3) 0.9723(3) 0.7695(3)
C13 C 0.0311(4) 0.9110(3) 0.7704(3)
C14 C 0.0371(6) 0.9362(4) 0.7224(4)
H4 H 0.0141 0.9288 0.6937
C15 C 0.2280(5) 0.9557(3) 0.8855(3)
H5 H 0.2163 0.9548 0.8487
C16 C 0.2388(5) 0.9209(4) 0.8989(3)
H6 H 0.2375 0.8994 0.8709
C18 C 0.0850(3) 0.9761(3) 0.7234(4)
C20 C 0.2550(7) 0.9510(5) 0.9902(4)
C21 C 0.2440(5) 0.9868(4) 0.9708(4)
Co9 Co 0.22324(4) 0.77550(2) 0.93053(3)
O4 O 0.95234(23) 0.84779(15) 0.76111(19)
O9 O 0.99385(28) 0.85065(19) 0.8409(2)
C11 C 0.9891(4) 0.8660(2) 0.7933(3)
Co4 Co 0.95060(4) 0.79261(3) 0.88752(3)
Co7 Co 0.88991(4) 0.78108(3) 0.76386(3)
O7_2 O 0.12605(19) 0.39232(33) 0.0248(2)
H10_2 H 0.0488 0.3133 0.0280
Co6_2 Co 0.17534(2) 0.45928(4) 0.05419(3)
N2_2 N 0.00951(19) 0.24181(28) 0.9188(2)
O3_2 O 0.14772(16) 0.41222(28) 0.93337(19)
O10_2 O 0.00145(17) 0.16276(24) 0.8467(2)
O11_2 O 0.06812(15) 0.14013(21) 0.8023(2)
C5_2 C 0.0826(2) 0.3342(4) 0.9541(3)
C6_2 C 0.1217(2) 0.3833(4) 0.9717(3)
C9_2 C 0.0277(3) 0.1335(4) 0.7695(3)
C11_2 C 0.1340(2) 0.1231(4) 0.7933(3)
C13_2 C 0.0890(3) 0.1201(5) 0.7704(3)
C14_2 C 0.0638(4) 0.1009(7) 0.7224(4)
H4_2 H 0.0712 0.0853 0.6937
C15_2 C 0.0443(3) 0.2723(6) 0.8855(3)
H5_2 H 0.0452 0.2615 0.8487
C16_2 C 0.0791(4) 0.3179(6) 0.8989(3)
H6_2 H 0.1006 0.3381 0.8709
C18_2 C 0.0239(3) 0.1089(4) 0.7234(4)
C20_2 C 0.0490(5) 0.3040(9) 0.9902(4)
C21_2 C 0.0132(4) 0.2572(6) 0.9708(4)
Co9_2 Co 0.22450(2) 0.44775(4) 0.93053(3)
N1_2 N 0.89013(28) 0.11153(34) 0.1728(3)
C4_2 C 0.8937(2) 0.1142(4) 0.0528(3)
C19_2 C 0.9296(4) 0.1470(7) 0.0864(3)
H9_2 H 0.9578 0.1709 0.0688
C22_2 C 0.9273(7) 0.1473(9) 0.1429(4)
H12_2 H 0.9521 0.1731 0.1629
C23_2 C 0.8546(4) 0.0803(9) 0.0824(3)
H13_2 H 0.8271 0.0572 0.0628
C24_2 C 0.8556(9) 0.0801(11) 0.1414(4)
H14_2 H 0.8289 0.0549 0.1600
Co8_2 Co 0.88991(4) 0.10883(5) 0.26386(3)
Co1_2 Co 0.95177(3) 0.17407(4) 0.88570(3)
Co2_2 Co 0.84201(2) 0.04940(4) 0.88752(3)
Co3_2 Co 0.89117(2) 0.11009(4) 0.76386(3)
O1_2 O 0.89784(13) 0.11027(20) 0.85205(16)
O2_2 O 0.88292(18) 0.17068(23) 0.77002(19)
O5_2 O 0.96652(15) 0.15173(22) 0.76082(19)
N3_2 N 0.8713(2) 0.3201(3) 0.7588(3)
O6_2 O 0.9308(2) 0.1502(3) 0.96549(19)
C1_2 C 0.8882(3) 0.2450(4) 0.7899(3)
C2_2 C 0.8942(3) 0.1144(4) 0.9886(3)
C3_2 C 0.8992(2) 0.2053(3) 0.8042(3)
O8_2 O 0.8623(2) 0.0786(4) 0.9646(2)
C7_2 C 0.9962(2) 0.1509(3) 0.7944(3)
C8_2 C 0.9167(3) 0.2919(4) 0.8111(3)
H1_2 H 0.9425 0.2990 0.8357
C10_2 C 0.9070(4) 0.3274(5) 0.7960(3)
H2_2 H 0.9258 0.3583 0.8119
C12_2 C 0.8493(3) 0.2363(4) 0.7555(4)
H3_2 H 0.8280 0.2051 0.7422
C17_2 C 0.8423(3) 0.2748(4) 0.7408(4)
H7_2 H 0.8161 0.2686 0.7173
H8_2 H 0.9994 0.0985 0.6960
H11_2 H 0.9908 0.2362 0.9974
O12_2 O 0.92382(19) 0.21076(25) 0.8482(2)
Co5_2 Co 0.87406(3) 0.38273(4) 0.72085(3)
N4_2 N 0.88847(34) 0.10987(39) 0.6728(3)
O13_2 O 0.81439(16) 0.06883(32) 0.76670(19)
O14_2 O 0.89545(27) 0.04766(31) 0.76111(19)
O15_2 O 0.79272(19) 0.06706(38) 0.8581(2)
O16_2 O 0.85680(34) 0.00615(39) 0.8409(2)
N5_2 N 0.7821(2) 0.9868(3) 0.9255(3)
N5_3 N 0.0132(3) 0.7954(2) 0.9255(3)
C11_3 C 0.8769(4) 0.0109(4) 0.7933(3)
N1_3 N 0.88847(34) 0.7786(2) 0.1728(3)
O7_3 O 0.60768(33) 0.73373(27) 0.0248(2)
C4_3 C 0.8858(4) 0.7795(3) 0.0528(3)
C19_3 C 0.8530(7) 0.7826(6) 0.0864(3)
H9_3 H 0.8291 0.7869 0.0688
H10_3 H 0.6867 0.7355 0.0280
C22_3 C 0.8527(9) 0.7800(6) 0.1429(4)
H12_3 H 0.8269 0.7790 0.1629
C23_3 C 0.9197(9) 0.7743(8) 0.0824(3)
H13_3 H 0.9428 0.7699 0.0628
C24_3 C 0.9199(11) 0.7755(7) 0.1414(4)
H14_3 H 0.9451 0.7740 0.1600
Co6_3 Co 0.54072(4) 0.71607(4) 0.05419(3)
Co8_3 Co 0.89117(5) 0.78108(3) 0.26386(3)
Co1_3 Co 0.82593(4) 0.77770(2) 0.88570(3)
O1_3 O 0.88973(20) 0.78757(15) 0.85205(16)
O2_3 O 0.82932(23) 0.71224(14) 0.77002(19)
N2_3 N 0.75819(28) 0.7677(2) 0.9188(2)
O3_3 O 0.58778(28) 0.73550(23) 0.93337(19)
O5_3 O 0.84827(22) 0.81479(16) 0.76082(19)
N3_3 N 0.6799(3) 0.5512(2) 0.7588(3)
O6_3 O 0.8498(3) 0.7806(2) 0.96549(19)
C1_3 C 0.7550(4) 0.6432(2) 0.7899(3)
C2_3 C 0.8856(4) 0.7798(3) 0.9886(3)
C3_3 C 0.7947(3) 0.6939(2) 0.8042(3)
O8_3 O 0.9214(4) 0.7837(3) 0.9646(2)
O10_3 O 0.83724(24) 0.83869(17) 0.8467(2)
O11_3 O 0.85987(21) 0.92799(15) 0.8023(2)
C5_3 C 0.6658(4) 0.7484(3) 0.9541(3)
C6_3 C 0.6167(4) 0.7384(3) 0.9717(3)
C7_3 C 0.8491(3) 0.8453(2) 0.7944(3)
C8_3 C 0.7081(4) 0.6248(3) 0.8111(3)
H1_3 H 0.7010 0.6435 0.8357
C9_3 C 0.8665(4) 0.8942(3) 0.7695(3)
C10_3 C 0.6726(5) 0.5796(3) 0.7960(3)
H2_3 H 0.6417 0.5675 0.8119
C12_3 C 0.7637(4) 0.6130(3) 0.7555(4)
H3_3 H 0.7949 0.6229 0.7422
C13_3 C 0.8799(5) 0.9689(4) 0.7704(3)
C14_3 C 0.8991(7) 0.9629(6) 0.7224(4)
H4_3 H 0.9147 0.9859 0.6937
C15_3 C 0.7277(6) 0.7720(5) 0.8855(3)
H5_3 H 0.7385 0.7837 0.8487
C16_3 C 0.6821(6) 0.7612(5) 0.8989(3)
H6_3 H 0.6619 0.7625 0.8709
C17_3 C 0.7252(4) 0.5675(3) 0.7408(4)
H7_3 H 0.7314 0.5475 0.7173
C18_3 C 0.8911(4) 0.9150(3) 0.7234(4)
H8_3 H 0.9015 0.9009 0.6960
C20_3 C 0.6960(9) 0.7450(7) 0.9902(4)
C21_3 C 0.7428(6) 0.7560(5) 0.9708(4)
H11_3 H 0.7638 0.7546 0.9974
O12_3 O 0.78924(25) 0.71306(16) 0.8482(2)
Co5_3 Co 0.61727(4) 0.49132(2) 0.72085(3)
Co9_3 Co 0.55225(4) 0.77676(4) 0.93053(3)
N4_3 N 0.89013(39) 0.7786(2) 0.6728(3)
O13_3 O 0.93117(32) 0.74555(28) 0.76670(19)
O15_3 O 0.93294(38) 0.72565(33) 0.8581(2)
O4_2 O 0.15221(15) 0.04766(23) 0.26111(19)
O9_2 O 0.14935(19) 0.00615(28) 0.3409(2)
C11_4 C 0.1340(2) 0.0109(4) 0.2933(3)
Co4_2 Co 0.20739(3) 0.04940(4) 0.38752(3)
N2_4 N 0.00951(19) 0.7677(2) 0.4188(2)
O3_4 O 0.14772(16) 0.73550(23) 0.43337(19)
O7_4 O 0.12605(19) 0.73373(27) 0.5248(2)
O10_4 O 0.00145(17) 0.83869(17) 0.3467(2)
O11_4 O 0.06812(15) 0.92799(15) 0.3023(2)
C5_4 C 0.0826(2) 0.7484(3) 0.4541(3)
C6_4 C 0.1217(2) 0.7384(3) 0.4717(3)
C9_4 C 0.0277(3) 0.8942(3) 0.2695(3)
C13_4 C 0.0890(3) 0.9689(4) 0.2704(3)
C14_4 C 0.0638(4) 0.9629(6) 0.2224(4)
H4_4 H 0.0712 0.9859 0.1937
C15_4 C 0.0443(3) 0.7720(5) 0.3855(3)
H5_4 H 0.0452 0.7837 0.3487
C16_4 C 0.0791(4) 0.7612(5) 0.3989(3)
H6_4 H 0.1006 0.7625 0.3709
C18_4 C 0.0239(3) 0.9150(3) 0.2234(4)
C20_4 C 0.0490(5) 0.7450(7) 0.4902(4)
H10_4 H 0.0488 0.7355 0.5280
C21_4 C 0.0132(4) 0.7560(5) 0.4708(4)
Co6_4 Co 0.17534(2) 0.71607(4) 0.55419(3)
Co9_4 Co 0.22450(2) 0.77676(4) 0.43053(3)
Co1_4 Co 0.95177(3) 0.77770(2) 0.38570(3)
Co2_3 Co 0.84201(2) 0.79261(3) 0.38752(3)
O1_4 O 0.89784(13) 0.78757(15) 0.35205(16)
O2_4 O 0.88292(18) 0.71224(14) 0.27002(19)
O5_4 O 0.96652(15) 0.81479(16) 0.26082(19)
N3_4 N 0.8713(2) 0.5512(2) 0.2588(3)
O6_4 O 0.9308(2) 0.7806(2) 0.46549(19)
C1_4 C 0.8882(3) 0.6432(2) 0.2899(3)
C2_4 C 0.8942(3) 0.7798(3) 0.4886(3)
C3_4 C 0.8992(2) 0.6939(2) 0.3042(3)
O8_4 O 0.8623(2) 0.7837(3) 0.4646(2)
C4_4 C 0.8937(2) 0.7795(3) 0.5528(3)
C7_4 C 0.9962(2) 0.8453(2) 0.2944(3)
C8_4 C 0.9167(3) 0.6248(3) 0.3111(3)
H1_4 H 0.9425 0.6435 0.3357
C10_4 C 0.9070(4) 0.5796(3) 0.2960(3)
H2_4 H 0.9258 0.5675 0.3119
C12_4 C 0.8493(3) 0.6130(3) 0.2555(4)
H3_4 H 0.8280 0.6229 0.2422
C17_4 C 0.8423(3) 0.5675(3) 0.2408(4)
H7_4 H 0.8161 0.5475 0.2173
H8_4 H 0.9994 0.9009 0.1960
C19_4 C 0.9296(4) 0.7826(6) 0.5864(3)
H9_4 H 0.9578 0.7869 0.5688
H11_4 H 0.9908 0.7546 0.4974
C22_4 C 0.9273(7) 0.7800(6) 0.6429(4)
H12_4 H 0.9521 0.7790 0.6629
C23_4 C 0.8546(4) 0.7743(8) 0.5824(3)
H13_4 H 0.8271 0.7699 0.5628
C24_4 C 0.8556(9) 0.7755(7) 0.6414(4)
H14_4 H 0.8289 0.7740 0.6600
O12_4 O 0.92382(19) 0.71306(16) 0.3482(2)
Co5_4 Co 0.87406(3) 0.49132(2) 0.22085(3)
O13_4 O 0.81439(16) 0.74555(28) 0.26670(19)
O14_3 O 0.89545(27) 0.84779(15) 0.26111(19)
N5_4 N 0.7821(2) 0.7954(2) 0.4255(3)
O15_4 O 0.79272(19) 0.72565(33) 0.3581(2)
O16_3 O 0.85680(34) 0.85065(19) 0.3409(2)
N5_5 N 0.0132(3) 0.2179(2) 0.4255(3)
Co1_5 Co 0.82593(4) 0.04823(3) 0.38570(3)
Co2_4 Co 0.95060(4) 0.15799(2) 0.38752(3)
O1_5 O 0.88973(20) 0.10216(13) 0.35205(16)
O2_5 O 0.82932(23) 0.11708(18) 0.27002(19)
O5_5 O 0.84827(22) 0.03348(15) 0.26082(19)
N3_5 N 0.6799(3) 0.1287(2) 0.2588(3)
O6_5 O 0.8498(3) 0.0692(2) 0.46549(19)
C1_5 C 0.7550(4) 0.1118(3) 0.2899(3)
C2_5 C 0.8856(4) 0.1058(3) 0.4886(3)
C3_5 C 0.7947(3) 0.1008(2) 0.3042(3)
O8_5 O 0.9214(4) 0.1377(2) 0.4646(2)
C4_5 C 0.8858(4) 0.1063(2) 0.5528(3)
C7_5 C 0.8491(3) 0.0038(2) 0.2944(3)
C8_5 C 0.7081(4) 0.0833(3) 0.3111(3)
H1_5 H 0.7010 0.0575 0.3357
C10_5 C 0.6726(5) 0.0930(4) 0.2960(3)
H2_5 H 0.6417 0.0742 0.3119
C12_5 C 0.7637(4) 0.1507(3) 0.2555(4)
H3_5 H 0.7949 0.1720 0.2422
C17_5 C 0.7252(4) 0.1577(3) 0.2408(4)
H7_5 H 0.7314 0.1839 0.2173
H8_5 H 0.9015 0.0006 0.1960
C19_5 C 0.8530(7) 0.0704(4) 0.5864(3)
H9_5 H 0.8291 0.0422 0.5688
H11_5 H 0.7638 0.0092 0.4974
C22_5 C 0.8527(9) 0.0727(7) 0.6429(4)
H12_5 H 0.8269 0.0479 0.6629
C23_5 C 0.9197(9) 0.1454(4) 0.5824(3)
H13_5 H 0.9428 0.1729 0.5628
C24_5 C 0.9199(11) 0.1444(9) 0.6414(4)
H14_5 H 0.9451 0.1711 0.6600
O12_5 O 0.78924(25) 0.07618(19) 0.3482(2)
Co5_5 Co 0.61727(4) 0.12594(3) 0.22085(3)
O13_5 O 0.93117(32) 0.18561(16) 0.26670(19)
O14_4 O 0.95234(31) 0.10455(27) 0.26111(19)
O15_5 O 0.93294(38) 0.20728(19) 0.3581(2)
O16_4 O 0.99385(39) 0.14320(34) 0.3409(2)
N2_5 N 0.75819(28) 0.99049(19) 0.4188(2)
O3_5 O 0.58778(28) 0.85228(16) 0.43337(19)
O7_5 O 0.60768(33) 0.87395(19) 0.5248(2)
O10_5 O 0.83724(24) 0.99855(17) 0.3467(2)
O11_5 O 0.85987(21) 0.93188(15) 0.3023(2)
C5_5 C 0.6658(4) 0.9174(2) 0.4541(3)
C6_5 C 0.6167(4) 0.8783(2) 0.4717(3)
C9_5 C 0.8665(4) 0.9723(3) 0.2695(3)
C11_5 C 0.8769(4) 0.8660(2) 0.2933(3)
C13_5 C 0.8799(5) 0.9110(3) 0.2704(3)
C14_5 C 0.8991(7) 0.9362(4) 0.2224(4)
H4_5 H 0.9147 0.9288 0.1937
C15_5 C 0.7277(6) 0.9557(3) 0.3855(3)
H5_5 H 0.7385 0.9548 0.3487
C16_5 C 0.6821(6) 0.9209(4) 0.3989(3)
H6_5 H 0.6619 0.8994 0.3709
C18_5 C 0.8911(4) 0.9761(3) 0.2234(4)
C20_5 C 0.6960(9) 0.9510(5) 0.4902(4)
H10_5 H 0.6867 0.9512 0.5280
C21_5 C 0.7428(6) 0.9868(4) 0.4708(4)
Co6_5 Co 0.54072(4) 0.82466(2) 0.55419(3)
Co9_5 Co 0.55225(4) 0.77550(2) 0.43053(3)
Co1_6 Co 0.22230(2) 0.17407(4) 0.38570(3)
O1_6 O 0.21243(15) 0.11027(20) 0.35205(16)
O2_6 O 0.28776(14) 0.17068(23) 0.27002(19)
N2_6 N 0.2323(2) 0.24181(28) 0.4188(2)
O3_6 O 0.26450(23) 0.41222(28) 0.43337(19)
O5_6 O 0.18521(16) 0.15173(22) 0.26082(19)
N3_6 N 0.4488(2) 0.3201(3) 0.2588(3)
O6_6 O 0.2194(2) 0.1502(3) 0.46549(19)
C1_6 C 0.3568(2) 0.2450(4) 0.2899(3)
C2_6 C 0.2202(3) 0.1144(4) 0.4886(3)
C3_6 C 0.3061(2) 0.2053(3) 0.3042(3)
O7_6 O 0.26627(27) 0.39232(33) 0.5248(2)
O8_6 O 0.2163(3) 0.0786(4) 0.4646(2)
O10_6 O 0.16131(17) 0.16276(24) 0.3467(2)
C4_6 C 0.2205(3) 0.1142(4) 0.5528(3)
O11_6 O 0.07201(15) 0.14013(21) 0.3023(2)
C5_6 C 0.2516(3) 0.3342(4) 0.4541(3)
C6_6 C 0.2616(3) 0.3833(4) 0.4717(3)
C7_6 C 0.1547(2) 0.1509(3) 0.2944(3)
C8_6 C 0.3752(3) 0.2919(4) 0.3111(3)
H1_6 H 0.3565 0.2990 0.3357
C9_6 C 0.1058(3) 0.1335(4) 0.2695(3)
C10_6 C 0.4204(3) 0.3274(5) 0.2960(3)
H2_6 H 0.4325 0.3583 0.3119
C12_6 C 0.3870(3) 0.2363(4) 0.2555(4)
H3_6 H 0.3771 0.2051 0.2422
C13_6 C 0.0311(4) 0.1201(5) 0.2704(3)
C14_6 C 0.0371(6) 0.1009(7) 0.2224(4)
H4_6 H 0.0141 0.0853 0.1937
C15_6 C 0.2280(5) 0.2723(6) 0.3855(3)
H5_6 H 0.2163 0.2615 0.3487
C16_6 C 0.2388(5) 0.3179(6) 0.3989(3)
H6_6 H 0.2375 0.3381 0.3709
C17_6 C 0.4325(3) 0.2748(4) 0.2408(4)
H7_6 H 0.4525 0.2686 0.2173
C18_6 C 0.0850(3) 0.1089(4) 0.2234(4)
H8_6 H 0.0991 0.0985 0.1960
C19_6 C 0.2174(6) 0.1470(7) 0.5864(3)
H9_6 H 0.2131 0.1709 0.5688
C20_6 C 0.2550(7) 0.3040(9) 0.4902(4)
H10_6 H 0.2645 0.3133 0.5280
C21_6 C 0.2440(5) 0.2572(6) 0.4708(4)
H11_6 H 0.2454 0.2362 0.4974
C22_6 C 0.2200(6) 0.1473(9) 0.6429(4)
H12_6 H 0.2210 0.1731 0.6629
C23_6 C 0.2257(8) 0.0803(9) 0.5824(3)
H13_6 H 0.2301 0.0572 0.5628
C24_6 C 0.2245(7) 0.0801(11) 0.6414(4)
H14_6 H 0.2260 0.0549 0.6600
O12_6 O 0.28694(16) 0.21076(25) 0.3482(2)
Co5_6 Co 0.50868(2) 0.38273(4) 0.22085(3)
Co6_6 Co 0.28393(4) 0.45928(4) 0.55419(3)
Co9_6 Co 0.22324(4) 0.44775(4) 0.43053(3)
O13_6 O 0.25445(28) 0.06883(32) 0.26670(19)
O15_6 O 0.27435(33) 0.06706(38) 0.3581(2)
N5_6 N 0.2046(2) 0.9868(3) 0.4255(3)
C11_6 C 0.9891(4) 0.1231(4) 0.2933(3)
N3_7 N 0.1155(2) 0.4620(2) 0.0921(3)
C1_7 C 0.0235(2) 0.4451(3) 0.1232(3)
C8_7 C 0.0419(3) 0.4166(3) 0.1444(3)
H1_7 H 0.0232 0.3908 0.1690
C10_7 C 0.0871(3) 0.4263(4) 0.1293(3)
H2_7 H 0.0992 0.4075 0.1452
C12_7 C 0.0537(3) 0.4840(3) 0.0888(4)
H3_7 H 0.0438 0.5053 0.0755
C17_7 C 0.0992(3) 0.4910(3) 0.0741(4)
H7_7 H 0.1192 0.5172 0.0506
Co1_7 Co 0.88897(2) 0.38156(3) 0.21903(3)
Co3_3 Co 0.88559(3) 0.44216(2) 0.09719(3)
O1_7 O 0.87910(15) 0.43549(13) 0.18538(16)
N1_4 N 0.8881(2) 0.44320(28) 0.5061(3)
O2_7 O 0.95443(14) 0.45041(18) 0.10335(19)
N2_7 N 0.8990(2) 0.32382(19) 0.2521(2)
O4_3 O 0.61901(23) 0.18112(15) 0.09444(19)
O5_7 O 0.85188(16) 0.36681(15) 0.09415(19)
O6_7 O 0.8861(2) 0.4025(2) 0.29882(19)
C2_7 C 0.8869(3) 0.4391(3) 0.3219(3)
C3_7 C 0.9728(2) 0.4341(2) 0.1375(3)
O8_7 O 0.8830(3) 0.4710(2) 0.2979(2)
O9_3 O 0.66052(28) 0.18398(19) 0.1742(2)
O10_7 O 0.82798(17) 0.33188(17) 0.1800(2)
C4_7 C 0.8872(3) 0.4396(2) 0.3861(3)
O11_7 O 0.73868(15) 0.26521(15) 0.1356(2)
C5_7 C 0.9183(3) 0.2507(2) 0.2874(3)
C6_7 C 0.9283(3) 0.2116(2) 0.3050(3)
C7_7 C 0.8214(2) 0.3371(2) 0.1277(3)
C9_7 C 0.7725(3) 0.3056(3) 0.1028(3)
C11_7 C 0.6558(4) 0.1993(2) 0.1266(3)
C13_7 C 0.6978(4) 0.2443(3) 0.1037(3)
C14_7 C 0.7038(6) 0.2695(4) 0.0557(4)
H4_7 H 0.6808 0.2621 0.0270
C15_7 C 0.8947(5) 0.2890(3) 0.2188(3)
H5_7 H 0.8830 0.2881 0.1820
C16_7 C 0.9055(5) 0.2542(4) 0.2322(3)
H6_7 H 0.9042 0.2327 0.2042
C18_7 C 0.7517(3) 0.3094(3) 0.0567(4)
H8_7 H 0.7658 0.3339 0.0293
C19_7 C 0.8841(6) 0.4037(4) 0.4197(3)
H9_7 H 0.8798 0.3755 0.4021
C20_7 C 0.9217(7) 0.2843(5) 0.3235(4)
H10_7 H 0.9312 0.2845 0.3613
C21_7 C 0.9107(5) 0.3201(4) 0.3041(4)
H11_7 H 0.9121 0.3425 0.3307
C22_7 C 0.8867(6) 0.4060(7) 0.4762(4)
H12_7 H 0.8877 0.3812 0.4962
C23_7 C 0.8924(8) 0.4787(4) 0.4157(3)
H13_7 H 0.8968 0.5062 0.3961
C24_7 C 0.8912(7) 0.4777(9) 0.4747(4)
H14_7 H 0.8927 0.5044 0.4933
O12_7 O 0.95361(16) 0.40951(19) 0.1815(2)
Co7_2 Co 0.55658(4) 0.11441(3) 0.09719(3)
Co8_4 Co 0.88559(3) 0.44342(4) 0.59719(3)
N4_4 N 0.8881(2) 0.44486(34) 0.0061(3)
O13_7 O 0.92111(28) 0.51895(16) 0.10004(19)
O14_5 O 0.81888(15) 0.43788(27) 0.09444(19)
O15_7 O 0.94101(33) 0.54062(19) 0.1915(2)
O16_5 O 0.81602(19) 0.47653(34) 0.1742(2)
Co1_8 Co 0.61844(3) 0.50740(4) 0.21903(3)
Co3_4 Co 0.55784(2) 0.44342(4) 0.09719(3)
O1_8 O 0.56451(13) 0.44360(20) 0.18538(16)
N1_5 N 0.55680(28) 0.44486(34) 0.5061(3)
O2_8 O 0.54959(18) 0.50401(23) 0.10335(19)
N2_8 N 0.67618(19) 0.57514(28) 0.2521(2)
O5_8 O 0.63319(15) 0.48506(22) 0.09415(19)
N3_8 N 0.5380(2) 0.6534(3) 0.0921(3)
O6_8 O 0.5975(2) 0.4835(3) 0.29882(19)
C1_8 C 0.5549(3) 0.5783(4) 0.1232(3)
C2_8 C 0.5609(3) 0.4477(4) 0.3219(3)
C3_8 C 0.5659(2) 0.5386(3) 0.1375(3)
O8_8 O 0.5290(2) 0.4119(4) 0.2979(2)
O10_8 O 0.66812(17) 0.49609(24) 0.1800(2)
C4_8 C 0.5604(2) 0.4475(4) 0.3861(3)
O11_8 O 0.73479(15) 0.47346(21) 0.1356(2)
C5_8 C 0.7493(2) 0.6675(4) 0.2874(3)
C6_8 C 0.7884(2) 0.7166(4) 0.3050(3)
C7_8 C 0.6629(2) 0.4842(3) 0.1277(3)
C8_8 C 0.5834(3) 0.6252(4) 0.1444(3)
H1_8 H 0.6092 0.6323 0.1690
C9_8 C 0.6944(3) 0.4668(4) 0.1028(3)
C10_8 C 0.5737(4) 0.6607(5) 0.1293(3)
H2_8 H 0.5925 0.6916 0.1452
C11_8 C 0.8007(2) 0.4564(4) 0.1266(3)
C12_8 C 0.5160(3) 0.5696(4) 0.0888(4)
H3_8 H 0.4947 0.5384 0.0755
C13_8 C 0.7557(3) 0.4534(5) 0.1037(3)
C14_8 C 0.7305(4) 0.4342(7) 0.0557(4)
H4_8 H 0.7379 0.4186 0.0270
C15_8 C 0.7110(3) 0.6056(6) 0.2188(3)
H5_8 H 0.7119 0.5948 0.1820
C16_8 C 0.7458(4) 0.6512(6) 0.2322(3)
H6_8 H 0.7673 0.6714 0.2042
C17_8 C 0.5090(3) 0.6081(4) 0.0741(4)
H7_8 H 0.4828 0.6019 0.0506
C18_8 C 0.6906(3) 0.4422(4) 0.0567(4)
H8_8 H 0.6661 0.4318 0.0293
C19_8 C 0.5963(4) 0.4803(7) 0.4197(3)
H9_8 H 0.6245 0.5042 0.4021
C20_8 C 0.7157(5) 0.6373(9) 0.3235(4)
H10_8 H 0.7155 0.6466 0.3613
C21_8 C 0.6799(4) 0.5905(6) 0.3041(4)
H11_8 H 0.6575 0.5695 0.3307
C22_8 C 0.5940(7) 0.4806(9) 0.4762(4)
H12_8 H 0.6188 0.5064 0.4962
C23_8 C 0.5213(4) 0.4136(9) 0.4157(3)
H13_8 H 0.4938 0.3905 0.3961
C24_8 C 0.5223(9) 0.4134(11) 0.4747(4)
H14_8 H 0.4956 0.3882 0.4933
O12_8 O 0.59049(19) 0.54409(25) 0.1815(2)
Co8_5 Co 0.55658(4) 0.44216(5) 0.59719(3)
N4_5 N 0.55514(34) 0.44320(39) 0.0061(3)
O13_8 O 0.48105(16) 0.40217(32) 0.10004(19)
O14_6 O 0.56212(27) 0.38099(31) 0.09444(19)
O15_8 O 0.45938(19) 0.40040(38) 0.1915(2)
O16_6 O 0.52347(34) 0.33948(39) 0.1742(2)
Co1_9 Co 0.49260(4) 0.11103(2) 0.21903(3)
O1_9 O 0.55640(20) 0.12090(15) 0.18538(16)
N1_6 N 0.55514(34) 0.1119(2) 0.5061(3)
O2_9 O 0.49599(23) 0.04557(14) 0.10335(19)
N2_9 N 0.42486(28) 0.1010(2) 0.2521(2)
O5_9 O 0.51494(22) 0.14812(16) 0.09415(19)
O6_9 O 0.5165(3) 0.1139(2) 0.29882(19)
C2_9 C 0.5523(4) 0.1131(3) 0.3219(3)
C3_9 C 0.4614(3) 0.0272(2) 0.1375(3)
O8_9 O 0.5881(4) 0.1170(3) 0.2979(2)
O10_9 O 0.50391(24) 0.17202(17) 0.1800(2)
C4_9 C 0.5525(4) 0.1128(3) 0.3861(3)
O11_9 O 0.52654(21) 0.26132(15) 0.1356(2)
C5_9 C 0.3325(4) 0.0817(3) 0.2874(3)
C6_9 C 0.2834(4) 0.0717(3) 0.3050(3)
C7_9 C 0.5158(3) 0.1786(2) 0.1277(3)
C9_9 C 0.5332(4) 0.2275(3) 0.1028(3)
C11_9 C 0.5436(4) 0.3442(4) 0.1266(3)
C13_9 C 0.5466(5) 0.3022(4) 0.1037(3)
C14_9 C 0.5658(7) 0.2962(6) 0.0557(4)
H4_9 H 0.5814 0.3192 0.0270
C15_9 C 0.3944(6) 0.1053(5) 0.2188(3)
H5_9 H 0.4052 0.1170 0.1820
C16_9 C 0.3488(6) 0.0945(5) 0.2322(3)
H6_9 H 0.3286 0.0958 0.2042
C18_9 C 0.5578(4) 0.2483(3) 0.0567(4)
H8_9 H 0.5682 0.2342 0.0293
C19_9 C 0.5197(7) 0.1159(6) 0.4197(3)
H9_9 H 0.4958 0.1202 0.4021
C20_9 C 0.3627(9) 0.0783(7) 0.3235(4)
H10_9 H 0.3534 0.0688 0.3613
C21_9 C 0.4095(6) 0.0893(5) 0.3041(4)
H11_9 H 0.4305 0.0879 0.3307
C22_9 C 0.5194(9) 0.1133(6) 0.4762(4)
H12_9 H 0.4936 0.1123 0.4962
C23_9 C 0.5864(9) 0.1076(8) 0.4157(3)
H13_9 H 0.6095 0.1032 0.3961
C24_9 C 0.5866(11) 0.1088(7) 0.4747(4)
H14_9 H 0.6118 0.1073 0.4933
O12_9 O 0.45591(25) 0.04639(16) 0.1815(2)
Co8_6 Co 0.55784(5) 0.11441(3) 0.59719(3)
N4_6 N 0.55680(39) 0.1119(2) 0.0061(3)
O13_9 O 0.59783(32) 0.07889(28) 0.10004(19)
O15_9 O 0.59960(38) 0.05899(33) 0.1915(2)
N3_9 N 0.3466(3) 0.8845(2) 0.0921(3)
C1_9 C 0.4217(4) 0.9765(2) 0.1232(3)
C8_9 C 0.3748(4) 0.9581(3) 0.1444(3)
H1_9 H 0.3677 0.9768 0.1690
C10_9 C 0.3393(5) 0.9129(3) 0.1293(3)
H2_9 H 0.3084 0.9008 0.1452
C12_9 C 0.4304(4) 0.9463(3) 0.0888(4)
H3_9 H 0.4616 0.9562 0.0755
C17_9 C 0.3919(4) 0.9008(3) 0.0741(4)
H7_9 H 0.3981 0.8808 0.0506
Co1_10 Co 0.61844(3) 0.11103(2) 0.71903(3)
O1_10 O 0.56451(13) 0.12090(15) 0.68538(16)
O2_10 O 0.54959(18) 0.04557(14) 0.60335(19)
N2_10 N 0.67618(19) 0.1010(2) 0.7521(2)
O4_4 O 0.81888(15) 0.38099(23) 0.59444(19)
O5_10 O 0.63319(15) 0.14812(16) 0.59415(19)
O6_10 O 0.5975(2) 0.1139(2) 0.79882(19)
C2_10 C 0.5609(3) 0.1131(3) 0.8219(3)
C3_10 C 0.5659(2) 0.0272(2) 0.6375(3)
O8_10 O 0.5290(2) 0.1170(3) 0.7979(2)
O9_4 O 0.81602(19) 0.33948(28) 0.6742(2)
O10_10 O 0.66812(17) 0.17202(17) 0.6800(2)
C4_10 C 0.5604(2) 0.1128(3) 0.8861(3)
O11_10 O 0.73479(15) 0.26132(15) 0.6356(2)
C5_10 C 0.7493(2) 0.0817(3) 0.7874(3)
C6_10 C 0.7884(2) 0.0717(3) 0.8050(3)
C7_10 C 0.6629(2) 0.1786(2) 0.6277(3)
C9_10 C 0.6944(3) 0.2275(3) 0.6028(3)
C11_10 C 0.8007(2) 0.3442(4) 0.6266(3)
C13_10 C 0.7557(3) 0.3022(4) 0.6037(3)
C14_10 C 0.7305(4) 0.2962(6) 0.5557(4)
H4_10 H 0.7379 0.3192 0.5270
C15_10 C 0.7110(3) 0.1053(5) 0.7188(3)
H5_10 H 0.7119 0.1170 0.6820
C16_10 C 0.7458(4) 0.0945(5) 0.7322(3)
H6_10 H 0.7673 0.0958 0.7042
C18_10 C 0.6906(3) 0.2483(3) 0.5567(4)
H8_10 H 0.6661 0.2342 0.5293
C19_10 C 0.5963(4) 0.1159(6) 0.9197(3)
H9_10 H 0.6245 0.1202 0.9021
C20_10 C 0.7157(5) 0.0783(7) 0.8235(4)
H10_10 H 0.7155 0.0688 0.8613
C21_10 C 0.6799(4) 0.0893(5) 0.8041(4)
H11_10 H 0.6575 0.0879 0.8307
C22_10 C 0.5940(7) 0.1133(6) 0.9762(4)
H12_10 H 0.6188 0.1123 0.9962
C23_10 C 0.5213(4) 0.1076(8) 0.9157(3)
H13_10 H 0.4938 0.1032 0.8961
C24_10 C 0.5223(9) 0.1088(7) 0.9747(4)
H14_10 H 0.4956 0.1073 0.9933
O12_10 O 0.59049(19) 0.04639(16) 0.6815(2)
O13_10 O 0.48105(16) 0.07889(28) 0.60004(19)
O14_7 O 0.56212(27) 0.18112(15) 0.59444(19)
O15_10 O 0.45938(19) 0.05899(33) 0.6915(2)
O16_7 O 0.52347(34) 0.18398(19) 0.6742(2)
N3_10 N 0.5380(2) 0.8845(2) 0.5921(3)
C1_10 C 0.5549(3) 0.9765(2) 0.6232(3)
C8_10 C 0.5834(3) 0.9581(3) 0.6444(3)
H1_10 H 0.6092 0.9768 0.6690
C10_10 C 0.5737(4) 0.9129(3) 0.6293(3)
H2_10 H 0.5925 0.9008 0.6452
C12_10 C 0.5160(3) 0.9463(3) 0.5888(4)
H3_10 H 0.4947 0.9562 0.5755
C17_10 C 0.5090(3) 0.9008(3) 0.5741(4)
H7_10 H 0.4828 0.8808 0.5506
Co1_11 Co 0.49260(4) 0.38156(3) 0.71903(3)
O1_11 O 0.55640(20) 0.43549(13) 0.68538(16)
O2_11 O 0.49599(23) 0.45041(18) 0.60335(19)
N2_11 N 0.42486(28) 0.32382(19) 0.7521(2)
O5_11 O 0.51494(22) 0.36681(15) 0.59415(19)
N3_11 N 0.3466(3) 0.4620(2) 0.5921(3)
O6_11 O 0.5165(3) 0.4025(2) 0.79882(19)
C1_11 C 0.4217(4) 0.4451(3) 0.6232(3)
C2_11 C 0.5523(4) 0.4391(3) 0.8219(3)
C3_11 C 0.4614(3) 0.4341(2) 0.6375(3)
O8_11 O 0.5881(4) 0.4710(2) 0.7979(2)
O10_11 O 0.50391(24) 0.33188(17) 0.6800(2)
C4_11 C 0.5525(4) 0.4396(2) 0.8861(3)
O11_11 O 0.52654(21) 0.26521(15) 0.6356(2)
C5_11 C 0.3325(4) 0.2507(2) 0.7874(3)
C6_11 C 0.2834(4) 0.2116(2) 0.8050(3)
C7_11 C 0.5158(3) 0.3371(2) 0.6277(3)
C8_11 C 0.3748(4) 0.4166(3) 0.6444(3)
H1_11 H 0.3677 0.3908 0.6690
C9_11 C 0.5332(4) 0.3056(3) 0.6028(3)
C10_11 C 0.3393(5) 0.4263(4) 0.6293(3)
H2_11 H 0.3084 0.4075 0.6452
C11_11 C 0.5436(4) 0.1993(2) 0.6266(3)
C12_11 C 0.4304(4) 0.4840(3) 0.5888(4)
H3_11 H 0.4616 0.5053 0.5755
C13_11 C 0.5466(5) 0.2443(3) 0.6037(3)
C14_11 C 0.5658(7) 0.2695(4) 0.5557(4)
H4_11 H 0.5814 0.2621 0.5270
C15_11 C 0.3944(6) 0.2890(3) 0.7188(3)
H5_11 H 0.4052 0.2881 0.6820
C16_11 C 0.3488(6) 0.2542(4) 0.7322(3)
H6_11 H 0.3286 0.2327 0.7042
C17_11 C 0.3919(4) 0.4910(3) 0.5741(4)
H7_11 H 0.3981 0.5172 0.5506
C18_11 C 0.5578(4) 0.3094(3) 0.5567(4)
H8_11 H 0.5682 0.3339 0.5293
C19_11 C 0.5197(7) 0.4037(4) 0.9197(3)
H9_11 H 0.4958 0.3755 0.9021
C20_11 C 0.3627(9) 0.2843(5) 0.8235(4)
H10_11 H 0.3534 0.2845 0.8613
C21_11 C 0.4095(6) 0.3201(4) 0.8041(4)
H11_11 H 0.4305 0.3425 0.8307
C22_11 C 0.5194(9) 0.4060(7) 0.9762(4)
H12_11 H 0.4936 0.3812 0.9962
C23_11 C 0.5864(9) 0.4787(4) 0.9157(3)
H13_11 H 0.6095 0.5062 0.8961
C24_11 C 0.5866(11) 0.4777(9) 0.9747(4)
H14_11 H 0.6118 0.5044 0.9933
O12_11 O 0.45591(25) 0.40951(19) 0.6815(2)
O13_11 O 0.59783(32) 0.51895(16) 0.60004(19)
O14_8 O 0.61901(31) 0.43788(27) 0.59444(19)
O15_11 O 0.59960(38) 0.54062(19) 0.6915(2)
O16_8 O 0.66052(39) 0.47653(34) 0.6742(2)
N3_12 N 0.1155(2) 0.6534(3) 0.5921(3)
C1_12 C 0.0235(2) 0.5783(4) 0.6232(3)
C8_12 C 0.0419(3) 0.6252(4) 0.6444(3)
H1_12 H 0.0232 0.6323 0.6690
C10_12 C 0.0871(3) 0.6607(5) 0.6293(3)
H2_12 H 0.0992 0.6916 0.6452
C12_12 C 0.0537(3) 0.5696(4) 0.5888(4)
H3_12 H 0.0438 0.5384 0.5755
C17_12 C 0.0992(3) 0.6081(4) 0.5741(4)
H7_12 H 0.1192 0.6019 0.5506
Co1_12 Co 0.88897(2) 0.50740(4) 0.71903(3)
O1_12 O 0.87910(15) 0.44360(20) 0.68538(16)
O2_12 O 0.95443(14) 0.50401(23) 0.60335(19)
N2_12 N 0.8990(2) 0.57514(28) 0.7521(2)
O5_12 O 0.85188(16) 0.48506(22) 0.59415(19)
O6_12 O 0.8861(2) 0.4835(3) 0.79882(19)
C2_12 C 0.8869(3) 0.4477(4) 0.8219(3)
C3_12 C 0.9728(2) 0.5386(3) 0.6375(3)
O8_12 O 0.8830(3) 0.4119(4) 0.7979(2)
O10_12 O 0.82798(17) 0.49609(24) 0.6800(2)
C4_12 C 0.8872(3) 0.4475(4) 0.8861(3)
O11_12 O 0.73868(15) 0.47346(21) 0.6356(2)
C5_12 C 0.9183(3) 0.6675(4) 0.7874(3)
C6_12 C 0.9283(3) 0.7166(4) 0.8050(3)
C7_12 C 0.8214(2) 0.4842(3) 0.6277(3)
C9_12 C 0.7725(3) 0.4668(4) 0.6028(3)
C11_12 C 0.6558(4) 0.4564(4) 0.6266(3)
C13_12 C 0.6978(4) 0.4534(5) 0.6037(3)
C14_12 C 0.7038(6) 0.4342(7) 0.5557(4)
H4_12 H 0.6808 0.4186 0.5270
C15_12 C 0.8947(5) 0.6056(6) 0.7188(3)
H5_12 H 0.8830 0.5948 0.6820
C16_12 C 0.9055(5) 0.6512(6) 0.7322(3)
H6_12 H 0.9042 0.6714 0.7042
C18_12 C 0.7517(3) 0.4422(4) 0.5567(4)
H8_12 H 0.7658 0.4318 0.5293
C19_12 C 0.8841(6) 0.4803(7) 0.9197(3)
H9_12 H 0.8798 0.5042 0.9021
C20_12 C 0.9217(7) 0.6373(9) 0.8235(4)
H10_12 H 0.9312 0.6466 0.8613
C21_12 C 0.9107(5) 0.5905(6) 0.8041(4)
H11_12 H 0.9121 0.5695 0.8307
C22_12 C 0.8867(6) 0.4806(9) 0.9762(4)
H12_12 H 0.8877 0.5064 0.9962
C23_12 C 0.8924(8) 0.4136(9) 0.9157(3)
H13_12 H 0.8968 0.3905 0.8961
C24_12 C 0.8912(7) 0.4134(11) 0.9747(4)
H14_12 H 0.8927 0.3882 0.9933
O12_12 O 0.95361(16) 0.54409(25) 0.6815(2)
O13_12 O 0.92111(28) 0.40217(32) 0.60004(19)
O15_12 O 0.94101(33) 0.40040(38) 0.6915(2)
Co1_13 Co 0.55563(2) 0.71490(3) 0.55237(3)
O1_13 O 0.54576(15) 0.76883(13) 0.51872(16)
N1_7 N 0.5547(2) 0.77654(28) 0.8395(3)
O2_13 O 0.62109(14) 0.78375(18) 0.43669(19)
N2_13 N 0.5656(2) 0.65716(19) 0.5855(2)
O4_5 O 0.28567(23) 0.51446(15) 0.42778(19)
O5_13 O 0.51854(16) 0.70015(15) 0.42749(19)
O6_13 O 0.5527(2) 0.7359(2) 0.63216(19)
C1_13 C 0.6901(2) 0.7785(3) 0.4566(3)
C2_13 C 0.5535(3) 0.7725(3) 0.6553(3)
C3_13 C 0.6394(2) 0.7675(2) 0.4709(3)
O8_13 O 0.5496(3) 0.8044(2) 0.6313(2)
O9_5 O 0.32718(28) 0.51732(19) 0.5076(2)
O10_13 O 0.49464(17) 0.66522(17) 0.5134(2)
C4_13 C 0.5538(3) 0.7730(2) 0.7195(3)
O11_13 O 0.40534(15) 0.59855(15) 0.4690(2)
C5_13 C 0.5849(3) 0.5841(2) 0.6208(3)
C6_13 C 0.5949(3) 0.5450(2) 0.6384(3)
C7_13 C 0.4880(2) 0.6705(2) 0.4611(3)
C8_13 C 0.7085(3) 0.7500(3) 0.4778(3)
H1_13 H 0.6898 0.7242 0.5024
C9_13 C 0.4391(3) 0.6390(3) 0.4362(3)
C10_13 C 0.7537(3) 0.7597(4) 0.4627(3)
H2_13 H 0.7658 0.7409 0.4786
C11_13 C 0.3224(4) 0.5327(2) 0.4600(3)
C12_13 C 0.7203(3) 0.8174(3) 0.4222(4)
H3_13 H 0.7104 0.8387 0.4089
C13_13 C 0.3644(4) 0.5777(3) 0.4371(3)
C14_13 C 0.3704(6) 0.6029(4) 0.3891(4)
H4_13 H 0.3474 0.5955 0.3604
C15_13 C 0.5613(5) 0.6224(3) 0.5522(3)
H5_13 H 0.5496 0.6215 0.5154
C16_13 C 0.5721(5) 0.5876(4) 0.5656(3)
H6_13 H 0.5708 0.5661 0.5376
C17_13 C 0.7658(3) 0.8244(3) 0.4075(4)
H7_13 H 0.7858 0.8506 0.3840
C18_13 C 0.4183(3) 0.6428(3) 0.3901(4)
H8_13 H 0.4324 0.6673 0.3627
C19_13 C 0.5507(6) 0.7371(4) 0.7531(3)
H9_13 H 0.5464 0.7089 0.7355
C20_13 C 0.5883(7) 0.6177(5) 0.6569(4)
H10_13 H 0.5978 0.6179 0.6947
C21_13 C 0.5773(5) 0.6535(4) 0.6375(4)
H11_13 H 0.5787 0.6759 0.6641
C22_13 C 0.5533(6) 0.7394(7) 0.8096(4)
H12_13 H 0.5543 0.7146 0.8296
C23_13 C 0.5590(8) 0.8121(4) 0.7491(3)
H13_13 H 0.5634 0.8396 0.7295
C24_13 C 0.5578(7) 0.8111(9) 0.8081(4)
H14_13 H 0.5593 0.8378 0.8267
O12_13 O 0.62027(16) 0.74285(19) 0.5149(2)
N4_7 N 0.5547(2) 0.77820(34) 0.3395(3)
O14_9 O 0.48554(15) 0.77122(27) 0.42778(19)
O16_9 O 0.48268(19) 0.80987(34) 0.5076(2)
C5_14 C 0.4159(2) 0.0009(4) 0.6208(3)
C6_14 C 0.4550(2) 0.0500(4) 0.6384(3)
H2_14 H 0.2591 0.0250 0.4786
H6_14 H 0.4339 0.0048 0.5376
Co1_14 Co 0.28510(3) 0.84074(4) 0.55237(3)
O1_14 O 0.23117(13) 0.77694(20) 0.51872(16)
N1_8 N 0.22346(28) 0.77820(34) 0.8395(3)
O2_14 O 0.21625(18) 0.83735(23) 0.43669(19)
N2_14 N 0.34284(19) 0.90848(28) 0.5855(2)
O5_14 O 0.29985(15) 0.81840(22) 0.42749(19)
O6_14 O 0.2641(2) 0.8169(3) 0.63216(19)
C1_14 C 0.2215(3) 0.9117(4) 0.4566(3)
C2_14 C 0.2275(3) 0.7811(4) 0.6553(3)
C3_14 C 0.2325(2) 0.8720(3) 0.4709(3)
O8_14 O 0.1956(2) 0.7453(4) 0.6313(2)
O10_14 O 0.33478(17) 0.82943(24) 0.5134(2)
C4_14 C 0.2270(2) 0.7809(4) 0.7195(3)
O11_14 O 0.40145(15) 0.80680(21) 0.4690(2)
C7_14 C 0.3295(2) 0.8176(3) 0.4611(3)
C8_14 C 0.2500(3) 0.9586(4) 0.4778(3)
H1_14 H 0.2758 0.9657 0.5024
C9_14 C 0.3610(3) 0.8002(4) 0.4362(3)
C10_14 C 0.2403(4) 0.9941(5) 0.4627(3)
C11_14 C 0.4673(2) 0.7898(4) 0.4600(3)
C12_14 C 0.1826(3) 0.9030(4) 0.4222(4)
H3_14 H 0.1613 0.8718 0.4089
C13_14 C 0.4223(3) 0.7868(5) 0.4371(3)
C14_14 C 0.3971(4) 0.7676(7) 0.3891(4)
H4_14 H 0.4045 0.7520 0.3604
C15_14 C 0.3776(3) 0.9390(6) 0.5522(3)
H5_14 H 0.3785 0.9282 0.5154
C16_14 C 0.4124(4) 0.9846(6) 0.5656(3)
C17_14 C 0.1756(3) 0.9415(4) 0.4075(4)
H7_14 H 0.1494 0.9353 0.3840
C18_14 C 0.3572(3) 0.7756(4) 0.3901(4)
H8_14 H 0.3327 0.7652 0.3627
C19_14 C 0.2629(4) 0.8137(7) 0.7531(3)
H9_14 H 0.2911 0.8376 0.7355
C20_14 C 0.3823(5) 0.9707(9) 0.6569(4)
H10_14 H 0.3821 0.9800 0.6947
C21_14 C 0.3465(4) 0.9239(6) 0.6375(4)
H11_14 H 0.3241 0.9029 0.6641
C22_14 C 0.2606(7) 0.8140(9) 0.8096(4)
H12_14 H 0.2854 0.8398 0.8296
C23_14 C 0.1879(4) 0.7470(9) 0.7491(3)
H13_14 H 0.1604 0.7239 0.7295
C24_14 C 0.1889(9) 0.7468(11) 0.8081(4)
H14_14 H 0.1622 0.7216 0.8267
O12_14 O 0.25715(19) 0.87743(25) 0.5149(2)
N4_8 N 0.22180(34) 0.77654(39) 0.3395(3)
O14_10 O 0.22878(27) 0.71433(31) 0.42778(19)
O16_10 O 0.19013(34) 0.67282(39) 0.5076(2)
Co1_15 Co 0.15926(4) 0.44437(2) 0.55237(3)
O1_15 O 0.22306(20) 0.45424(15) 0.51872(16)
N1_9 N 0.22180(34) 0.4453(2) 0.8395(3)
O2_15 O 0.16265(23) 0.37891(14) 0.43669(19)
N2_15 N 0.09152(28) 0.4344(2) 0.5855(2)
O5_15 O 0.18160(22) 0.48146(16) 0.42749(19)
O6_15 O 0.1831(3) 0.4473(2) 0.63216(19)
C1_15 C 0.0883(4) 0.3099(2) 0.4566(3)
C2_15 C 0.2189(4) 0.4465(3) 0.6553(3)
C3_15 C 0.1280(3) 0.3606(2) 0.4709(3)
O8_15 O 0.2547(4) 0.4504(3) 0.6313(2)
O10_15 O 0.17057(24) 0.50536(17) 0.5134(2)
C4_15 C 0.2191(4) 0.4462(3) 0.7195(3)
O11_15 O 0.19320(21) 0.59466(15) 0.4690(2)
C7_15 C 0.1824(3) 0.5120(2) 0.4611(3)
C8_15 C 0.0414(4) 0.2915(3) 0.4778(3)
H1_15 H 0.0343 0.3102 0.5024
C9_15 C 0.1998(4) 0.5609(3) 0.4362(3)
C10_15 C 0.0059(5) 0.2463(3) 0.4627(3)
C11_15 C 0.2102(4) 0.6776(4) 0.4600(3)
C12_15 C 0.0970(4) 0.2797(3) 0.4222(4)
H3_15 H 0.1282 0.2896 0.4089
C13_15 C 0.2132(5) 0.6356(4) 0.4371(3)
C14_15 C 0.2324(7) 0.6296(6) 0.3891(4)
H4_15 H 0.2480 0.6526 0.3604
C15_15 C 0.0610(6) 0.4387(5) 0.5522(3)
H5_15 H 0.0718 0.4504 0.5154
C16_15 C 0.0154(6) 0.4279(5) 0.5656(3)
C17_15 C 0.0585(4) 0.2342(3) 0.4075(4)
H7_15 H 0.0647 0.2142 0.3840
C18_15 C 0.2244(4) 0.5817(3) 0.3901(4)
H8_15 H 0.2348 0.5676 0.3627
C19_15 C 0.1863(7) 0.4493(6) 0.7531(3)
H9_15 H 0.1624 0.4536 0.7355
C20_15 C 0.0293(9) 0.4117(7) 0.6569(4)
H10_15 H 0.0200 0.4022 0.6947
C21_15 C 0.0761(6) 0.4227(5) 0.6375(4)
H11_15 H 0.0971 0.4213 0.6641
C22_15 C 0.1860(9) 0.4467(6) 0.8096(4)
H12_15 H 0.1602 0.4457 0.8296
C23_15 C 0.2530(9) 0.4410(8) 0.7491(3)
H13_15 H 0.2761 0.4366 0.7295
C24_15 C 0.2532(11) 0.4422(7) 0.8081(4)
H14_15 H 0.2784 0.4407 0.8267
O12_15 O 0.12257(25) 0.37973(16) 0.5149(2)
N4_9 N 0.22346(39) 0.4453(2) 0.3395(3)
C5_15 C 0.9991(4) 0.4151(3) 0.6208(3)
C6_15 C 0.9500(4) 0.4051(3) 0.6384(3)
H2_15 H 0.9750 0.2342 0.4786
H6_15 H 0.9952 0.4292 0.5376
Co1_16 Co 0.28510(3) 0.44437(2) 0.05237(3)
O1_16 O 0.23117(13) 0.45424(15) 0.01872(16)
N2_16 N 0.34284(19) 0.4344(2) 0.0855(2)
O6_16 O 0.2641(2) 0.4473(2) 0.13216(19)
C2_16 C 0.2275(3) 0.4465(3) 0.1553(3)
O8_16 O 0.1956(2) 0.4504(3) 0.1313(2)
O9_6 O 0.48268(19) 0.67282(28) 0.0076(2)
O10_16 O 0.33478(17) 0.50536(17) 0.0134(2)
C4_16 C 0.2270(2) 0.4462(3) 0.2195(3)
C5_16 C 0.4159(2) 0.4151(3) 0.1208(3)
C6_16 C 0.4550(2) 0.4051(3) 0.1384(3)
H1_16 H 0.2758 0.3102 0.0024
C15_16 C 0.3776(3) 0.4387(5) 0.0522(3)
H5_16 H 0.3785 0.4504 0.0154
C16_16 C 0.4124(4) 0.4279(5) 0.0656(3)
H6_16 H 0.4339 0.4292 0.0376
C19_16 C 0.2629(4) 0.4493(6) 0.2531(3)
H9_16 H 0.2911 0.4536 0.2355
C20_16 C 0.3823(5) 0.4117(7) 0.1569(4)
H10_16 H 0.3821 0.4022 0.1947
C21_16 C 0.3465(4) 0.4227(5) 0.1375(4)
H11_16 H 0.3241 0.4213 0.1641
C22_16 C 0.2606(7) 0.4467(6) 0.3096(4)
H12_16 H 0.2854 0.4457 0.3296
C23_16 C 0.1879(4) 0.4410(8) 0.2491(3)
H13_16 H 0.1604 0.4366 0.2295
C24_16 C 0.1889(9) 0.4422(7) 0.3081(4)
H14_16 H 0.1622 0.4407 0.3267
O12_16 O 0.25715(19) 0.37973(16) 0.0149(2)
O16_11 O 0.19013(34) 0.51732(19) 0.0076(2)
O2_16 O 0.21625(18) 0.37891(14) 0.93669(19)
O4_6 O 0.48554(15) 0.71433(23) 0.92778(19)
O5_16 O 0.29985(15) 0.48146(16) 0.92749(19)
C1_16 C 0.2215(3) 0.3099(2) 0.9566(3)
C3_16 C 0.2325(2) 0.3606(2) 0.9709(3)
O11_16 O 0.40145(15) 0.59466(15) 0.9690(2)
C7_16 C 0.3295(2) 0.5120(2) 0.9611(3)
C8_16 C 0.2500(3) 0.2915(3) 0.9778(3)
C9_16 C 0.3610(3) 0.5609(3) 0.9362(3)
C10_16 C 0.2403(4) 0.2463(3) 0.9627(3)
H2_16 H 0.2591 0.2342 0.9786
C11_16 C 0.4673(2) 0.6776(4) 0.9600(3)
C12_16 C 0.1826(3) 0.2797(3) 0.9222(4)
H3_16 H 0.1613 0.2896 0.9089
C13_16 C 0.4223(3) 0.6356(4) 0.9371(3)
C14_16 C 0.3971(4) 0.6296(6) 0.8891(4)
H4_16 H 0.4045 0.6526 0.8604
C17_16 C 0.1756(3) 0.2342(3) 0.9075(4)
H7_16 H 0.1494 0.2142 0.8840
C18_16 C 0.3572(3) 0.5817(3) 0.8901(4)
H8_16 H 0.3327 0.5676 0.8627
O14_11 O 0.22878(27) 0.51446(15) 0.92778(19)
Co1_17 Co 0.15926(4) 0.71490(3) 0.05237(3)
O1_17 O 0.22306(20) 0.76883(13) 0.01872(16)
N2_17 N 0.09152(28) 0.65716(19) 0.0855(2)
O6_17 O 0.1831(3) 0.7359(2) 0.13216(19)
C2_17 C 0.2189(4) 0.7725(3) 0.1553(3)
O8_17 O 0.2547(4) 0.8044(2) 0.1313(2)
O10_17 O 0.17057(24) 0.66522(17) 0.0134(2)
C4_17 C 0.2191(4) 0.7730(2) 0.2195(3)
H1_17 H 0.0343 0.7242 0.0024
C15_17 C 0.0610(6) 0.6224(3) 0.0522(3)
H5_17 H 0.0718 0.6215 0.0154
C16_17 C 0.0154(6) 0.5876(4) 0.0656(3)
C19_17 C 0.1863(7) 0.7371(4) 0.2531(3)
H9_17 H 0.1624 0.7089 0.2355
C20_17 C 0.0293(9) 0.6177(5) 0.1569(4)
H10_17 H 0.0200 0.6179 0.1947
C21_17 C 0.0761(6) 0.6535(4) 0.1375(4)
H11_17 H 0.0971 0.6759 0.1641
C22_17 C 0.1860(9) 0.7394(7) 0.3096(4)
H12_17 H 0.1602 0.7146 0.3296
C23_17 C 0.2530(9) 0.8121(4) 0.2491(3)
H13_17 H 0.2761 0.8396 0.2295
C24_17 C 0.2532(11) 0.8111(9) 0.3081(4)
H14_17 H 0.2784 0.8378 0.3267
O12_17 O 0.12257(25) 0.74285(19) 0.0149(2)
O16_12 O 0.32718(39) 0.80987(34) 0.0076(2)
O2_17 O 0.16265(23) 0.78375(18) 0.93669(19)
O5_17 O 0.18160(22) 0.70015(15) 0.92749(19)
C1_17 C 0.0883(4) 0.7785(3) 0.9566(3)
C3_17 C 0.1280(3) 0.7675(2) 0.9709(3)
O11_17 O 0.19320(21) 0.59855(15) 0.9690(2)
C7_17 C 0.1824(3) 0.6705(2) 0.9611(3)
C8_17 C 0.0414(4) 0.7500(3) 0.9778(3)
C9_17 C 0.1998(4) 0.6390(3) 0.9362(3)
C10_17 C 0.0059(5) 0.7597(4) 0.9627(3)
C11_17 C 0.2102(4) 0.5327(2) 0.9600(3)
C12_17 C 0.0970(4) 0.8174(3) 0.9222(4)
H3_17 H 0.1282 0.8387 0.9089
C13_17 C 0.2132(5) 0.5777(3) 0.9371(3)
C14_17 C 0.2324(7) 0.6029(4) 0.8891(4)
H4_17 H 0.2480 0.5955 0.8604
C17_17 C 0.0585(4) 0.8244(3) 0.9075(4)
H7_17 H 0.0647 0.8506 0.8840
C18_17 C 0.2244(4) 0.6428(3) 0.8901(4)
H8_17 H 0.2348 0.6673 0.8627
O14_12 O 0.28567(31) 0.77122(27) 0.92778(19)
C5_17 C 0.9991(4) 0.5841(2) 0.1208(3)
C6_17 C 0.9500(4) 0.5450(2) 0.1384(3)
H6_17 H 0.9952 0.5661 0.0376
H2_17 H 0.9750 0.7409 0.9786
C5_18 C 0.5849(3) 0.0009(4) 0.1208(3)
C6_18 C 0.5949(3) 0.0500(4) 0.1384(3)
H6_18 H 0.5708 0.0048 0.0376
H2_18 H 0.7658 0.0250 0.9786
Co1_18 Co 0.55563(2) 0.84074(4) 0.05237(3)
O1_18 O 0.54576(15) 0.77694(20) 0.01872(16)
N2_18 N 0.5656(2) 0.90848(28) 0.0855(2)
O6_18 O 0.5527(2) 0.8169(3) 0.13216(19)
C2_18 C 0.5535(3) 0.7811(4) 0.1553(3)
O8_18 O 0.5496(3) 0.7453(4) 0.1313(2)
O10_18 O 0.49464(17) 0.82943(24) 0.0134(2)
C4_18 C 0.5538(3) 0.7809(4) 0.2195(3)
H1_18 H 0.6898 0.9657 0.0024
C15_18 C 0.5613(5) 0.9390(6) 0.0522(3)
H5_18 H 0.5496 0.9282 0.0154
C16_18 C 0.5721(5) 0.9846(6) 0.0656(3)
C19_18 C 0.5507(6) 0.8137(7) 0.2531(3)
H9_18 H 0.5464 0.8376 0.2355
C20_18 C 0.5883(7) 0.9707(9) 0.1569(4)
H10_18 H 0.5978 0.9800 0.1947
C21_18 C 0.5773(5) 0.9239(6) 0.1375(4)
H11_18 H 0.5787 0.9029 0.1641
C22_18 C 0.5533(6) 0.8140(9) 0.3096(4)
H12_18 H 0.5543 0.8398 0.3296
C23_18 C 0.5590(8) 0.7470(9) 0.2491(3)
H13_18 H 0.5634 0.7239 0.2295
C24_18 C 0.5578(7) 0.7468(11) 0.3081(4)
H14_18 H 0.5593 0.7216 0.3267
O12_18 O 0.62027(16) 0.87743(25) 0.0149(2)
O2_18 O 0.62109(14) 0.83735(23) 0.93669(19)
O5_18 O 0.51854(16) 0.81840(22) 0.92749(19)
C1_18 C 0.6901(2) 0.9117(4) 0.9566(3)
C3_18 C 0.6394(2) 0.8720(3) 0.9709(3)
O11_18 O 0.40534(15) 0.80680(21) 0.9690(2)
C7_18 C 0.4880(2) 0.8176(3) 0.9611(3)
C8_18 C 0.7085(3) 0.9586(4) 0.9778(3)
C9_18 C 0.4391(3) 0.8002(4) 0.9362(3)
C10_18 C 0.7537(3) 0.9941(5) 0.9627(3)
C11_18 C 0.3224(4) 0.7898(4) 0.9600(3)
C12_18 C 0.7203(3) 0.9030(4) 0.9222(4)
H3_18 H 0.7104 0.8718 0.9089
C13_18 C 0.3644(4) 0.7868(5) 0.9371(3)
C14_18 C 0.3704(6) 0.7676(7) 0.8891(4)
H4_18 H 0.3474 0.7520 0.8604
C17_18 C 0.7658(3) 0.9415(4) 0.9075(4)
H7_18 H 0.7858 0.9353 0.8840
C18_18 C 0.4183(3) 0.7756(4) 0.8901(4)
H8_18 H 0.4324 0.7652 0.8627
loop_
_geom_bond_atom_site_label_1
_geom_bond_atom_site_label_2
_geom_bond_site_symmetry_1
_geom_bond_site_symmetry_2
N1 C22 1_555 1_555
C19 C4 1_555 1_555
H9 C19 1_555 1_555
C22 C19 1_555 1_555
H12 C22 1_555 1_555
C23 C4 1_555 1_555
H13 C23 1_555 1_555
C24 N1 1_555 1_555
H14 C24 1_555 1_555
Co8 N1 1_555 1_555
C23 C24 1_555 1_555
Co1 O1 1_555 1_555
Co2 O1 1_555 1_555
Co3 O1 1_555 1_555
O2 Co3 1_555 1_555
O5 Co3 1_555 1_555
N3 C10 1_555 1_555
O6 Co1 1_555 1_555
C1 C3 1_555 1_555
C2 O6 1_555 1_555
C3 O2 1_555 1_555
O8 Co2 1_555 1_555
C7 O5 1_555 1_555
C8 C1 1_555 1_555
H1 C8 1_555 1_555
C10 C8 1_555 1_555
H2 C10 1_555 1_555
C12 C1 1_555 1_555
H3 C12 1_555 1_555
C17 N3 1_555 1_555
H7 C17 1_555 1_555
O12 Co1 1_555 1_555
Co5 N3 1_555 1_555
N4 Co3 1_555 1_555
O13 Co3 1_555 1_555
O14 Co3 1_555 1_555
N5 Co2 1_555 1_555
O15 Co2 1_555 1_555
O16 Co2 1_555 1_555
C2 O8 1_555 1_555
C3 O12 1_555 1_555
C12 C17 1_555 1_555
Co6 O7 1_555 1_555
O3 C6 1_555 1_555
O11 C9 1_555 1_555
C5 C6 1_555 1_555
C13 O11 1_555 1_555
C14 C13 1_555 1_555
H4 C14 1_555 1_555
C15 N2 1_555 1_555
H5 C15 1_555 1_555
C16 C5 1_555 1_555
H6 C16 1_555 1_555
C18 C9 1_555 1_555
C20 C5 1_555 1_555
C21 N2 1_555 1_555
Co9 O3 1_555 1_555
C14 C18 1_555 1_555
C15 C16 1_555 1_555
C20 C21 1_555 1_555
O4 C11 1_555 1_555
O9 C11 1_555 1_555
Co4 O9 1_555 1_555
Co7 O4 1_555 1_555
Co6_2 O7_2 1_555 1_555
O3_2 C6_2 1_555 1_555
O14 C11_2 1_555 1_555
O16 C11_2 1_555 1_555
O11_2 C9_2 1_555 1_555
C5_2 C6_2 1_555 1_555
C11_2 C13_2 1_555 1_555
C13_2 O11_2 1_555 1_555
C14_2 C13_2 1_555 1_555
H4_2 C14_2 1_555 1_555
C15_2 N2_2 1_555 1_555
H5_2 C15_2 1_555 1_555
C16_2 C5_2 1_555 1_555
H6_2 C16_2 1_555 1_555
C18_2 C9_2 1_555 1_555
C20_2 C5_2 1_555 1_555
C21_2 N2_2 1_555 1_555
Co9_2 O3_2 1_555 1_555
C14_2 C18_2 1_555 1_555
C15_2 C16_2 1_555 1_555
C20_2 C21_2 1_555 1_555
N1_2 C22_2 1_555 1_555
C19_2 C4_2 1_555 1_555
H9_2 C19_2 1_555 1_555
C22_2 C19_2 1_555 1_555
H12_2 C22_2 1_555 1_555
C23_2 C4_2 1_555 1_555
H13_2 C23_2 1_555 1_555
C24_2 N1_2 1_555 1_555
H14_2 C24_2 1_555 1_555
Co8_2 N1_2 1_555 1_555
C23_2 C24_2 1_555 1_555
Co1_2 O1_2 1_555 1_555
Co2_2 O1_2 1_555 1_555
Co3_2 O1_2 1_555 1_555
O2_2 Co3_2 1_555 1_555
O5_2 Co3_2 1_555 1_555
N3_2 C10_2 1_555 1_555
O6_2 Co1_2 1_555 1_555
C1_2 C3_2 1_555 1_555
C2_2 O6_2 1_555 1_555
C3_2 O2_2 1_555 1_555
O8_2 Co2_2 1_555 1_555
C7_2 O5_2 1_555 1_555
C8_2 C1_2 1_555 1_555
H1_2 C8_2 1_555 1_555
C10_2 C8_2 1_555 1_555
H2_2 C10_2 1_555 1_555
C12_2 C1_2 1_555 1_555
H3_2 C12_2 1_555 1_555
C17_2 N3_2 1_555 1_555
H7_2 C17_2 1_555 1_555
O12_2 Co1_2 1_555 1_555
Co5_2 N3_2 1_555 1_555
N4_2 Co3_2 1_555 1_555
O13_2 Co3_2 1_555 1_555
O14_2 Co3_2 1_555 1_555
O15_2 Co2_2 1_555 1_555
O16_2 Co2_2 1_555 1_555
C2_2 O8_2 1_555 1_555
C3_2 O12_2 1_555 1_555
C12_2 C17_2 1_555 1_555
O14_2 C11_3 1_555 1_555
O16_2 C11_3 1_555 1_555
N1_3 C22_3 1_555 1_555
C19_3 C4_3 1_555 1_555
H9_3 C19_3 1_555 1_555
C22_3 C19_3 1_555 1_555
H12_3 C22_3 1_555 1_555
C23_3 C4_3 1_555 1_555
H13_3 C23_3 1_555 1_555
C24_3 N1_3 1_555 1_555
H14_3 C24_3 1_555 1_555
Co6_3 O7_3 1_555 1_555
Co8_3 N1_3 1_555 1_555
C23_3 C24_3 1_555 1_555
Co1_3 O1_3 1_555 1_555
Co4 O1_3 1_555 1_555
Co7 O1_3 1_555 1_555
O2_3 Co7 1_555 1_555
N2_3 Co1_3 1_555 1_555
O3_3 C6_3 1_555 1_555
O5_3 Co7 1_555 1_555
N3_3 C10_3 1_555 1_555
O6_3 Co1_3 1_555 1_555
C1_3 C3_3 1_555 1_555
C2_3 O6_3 1_555 1_555
C3_3 O2_3 1_555 1_555
O8_3 Co4 1_555 1_555
O10_3 Co1_3 1_555 1_555
O11_3 C9_3 1_555 1_555
C5_3 C6_3 1_555 1_555
C7_3 O5_3 1_555 1_555
C8_3 C1_3 1_555 1_555
H1_3 C8_3 1_555 1_555
C9_3 C7_3 1_555 1_555
C10_3 C8_3 1_555 1_555
H2_3 C10_3 1_555 1_555
C12_3 C1_3 1_555 1_555
H3_3 C12_3 1_555 1_555
C13_3 O11_3 1_555 1_555
C14_3 C13_3 1_555 1_555
H4_3 C14_3 1_555 1_555
C15_3 N2_3 1_555 1_555
H5_3 C15_3 1_555 1_555
C16_3 C5_3 1_555 1_555
H6_3 C16_3 1_555 1_555
C17_3 N3_3 1_555 1_555
H7_3 C17_3 1_555 1_555
C18_3 C9_3 1_555 1_555
H8_3 C18_3 1_555 1_555
C20_3 C5_3 1_555 1_555
C21_3 N2_3 1_555 1_555
H11_3 C21_3 1_555 1_555
O12_3 Co1_3 1_555 1_555
Co5_3 N3_3 1_555 1_555
Co9_3 O3_3 1_555 1_555
N4_3 Co7 1_555 1_555
O13_3 Co7 1_555 1_555
O15_3 Co4 1_555 1_555
C2_3 O8_3 1_555 1_555
C3_3 O12_3 1_555 1_555
O10_3 C7_3 1_555 1_555
C12_3 C17_3 1_555 1_555
C14_3 C18_3 1_555 1_555
C15_3 C16_3 1_555 1_555
C20_3 C21_3 1_555 1_555
O4_2 C11_4 1_555 1_555
O9_2 C11_4 1_555 1_555
Co4_2 O9_2 1_555 1_555
Co8 O4_2 1_555 1_555
O3_4 C6_4 1_555 1_555
O7_4 C6_4 1_555 1_555
O11_4 C9_4 1_555 1_555
C5_4 C6_4 1_555 1_555
C13_4 O11_4 1_555 1_555
C14_4 C13_4 1_555 1_555
H4_4 C14_4 1_555 1_555
C15_4 N2_4 1_555 1_555
H5_4 C15_4 1_555 1_555
C16_4 C5_4 1_555 1_555
H6_4 C16_4 1_555 1_555
C18_4 C9_4 1_555 1_555
C20_4 C5_4 1_555 1_555
H10_4 C20_4 1_555 1_555
C21_4 N2_4 1_555 1_555
Co6_4 O7_4 1_555 1_555
Co9_4 O3_4 1_555 1_555
C14_4 C18_4 1_555 1_555
C15_4 C16_4 1_555 1_555
C20_4 C21_4 1_555 1_555
Co1_4 O1_4 1_555 1_555
Co2_3 O1_4 1_555 1_555
Co8_3 O1_4 1_555 1_555
N4_3 C22_4 1_555 1_555
O2_4 Co8_3 1_555 1_555
O5_4 Co8_3 1_555 1_555
N3_4 C10_4 1_555 1_555
O6_4 Co1_4 1_555 1_555
C1_4 C3_4 1_555 1_555
C2_4 O6_4 1_555 1_555
C3_4 O2_4 1_555 1_555
O8_4 Co2_3 1_555 1_555
C4_4 C2_4 1_555 1_555
C7_4 O5_4 1_555 1_555
C8_4 C1_4 1_555 1_555
H1_4 C8_4 1_555 1_555
C10_4 C8_4 1_555 1_555
H2_4 C10_4 1_555 1_555
C12_4 C1_4 1_555 1_555
H3_4 C12_4 1_555 1_555
C17_4 N3_4 1_555 1_555
H7_4 C17_4 1_555 1_555
C19_4 C4_4 1_555 1_555
H9_4 C19_4 1_555 1_555
C22_4 C19_4 1_555 1_555
H12_4 C22_4 1_555 1_555
C23_4 C4_4 1_555 1_555
H13_4 C23_4 1_555 1_555
C24_4 N4_3 1_555 1_555
H14_4 C24_4 1_555 1_555
O12_4 Co1_4 1_555 1_555
Co5_4 N3_4 1_555 1_555
O13_4 Co8_3 1_555 1_555
O14_3 Co8_3 1_555 1_555
N5_4 Co2_3 1_555 1_555
O15_4 Co2_3 1_555 1_555
O16_3 Co2_3 1_555 1_555
C2_4 O8_4 1_555 1_555
C3_4 O12_4 1_555 1_555
C12_4 C17_4 1_555 1_555
C23_4 C24_4 1_555 1_555
Co1_5 O1_5 1_555 1_555
Co2_4 O1_5 1_555 1_555
Co8_2 O1_5 1_555 1_555
N4_2 C22_5 1_555 1_555
O2_5 Co8_2 1_555 1_555
O5_5 Co8_2 1_555 1_555
N3_5 C10_5 1_555 1_555
O6_5 Co1_5 1_555 1_555
C1_5 C3_5 1_555 1_555
C2_5 O6_5 1_555 1_555
C3_5 O2_5 1_555 1_555
O8_5 Co2_4 1_555 1_555
C4_5 C2_5 1_555 1_555
C7_5 O5_5 1_555 1_555
C8_5 C1_5 1_555 1_555
H1_5 C8_5 1_555 1_555
C10_5 C8_5 1_555 1_555
H2_5 C10_5 1_555 1_555
C12_5 C1_5 1_555 1_555
H3_5 C12_5 1_555 1_555
C17_5 N3_5 1_555 1_555
H7_5 C17_5 1_555 1_555
C19_5 C4_5 1_555 1_555
H9_5 C19_5 1_555 1_555
C22_5 C19_5 1_555 1_555
H12_5 C22_5 1_555 1_555
C23_5 C4_5 1_555 1_555
H13_5 C23_5 1_555 1_555
C24_5 N4_2 1_555 1_555
H14_5 C24_5 1_555 1_555
O12_5 Co1_5 1_555 1_555
Co5_5 N3_5 1_555 1_555
O13_5 Co8_2 1_555 1_555
O14_4 Co8_2 1_555 1_555
O15_5 Co2_4 1_555 1_555
O16_4 Co2_4 1_555 1_555
C2_5 O8_5 1_555 1_555
C3_5 O12_5 1_555 1_555
C12_5 C17_5 1_555 1_555
C23_5 C24_5 1_555 1_555
O3_5 C6_5 1_555 1_555
O14_3 C11_5 1_555 1_555
O7_5 C6_5 1_555 1_555
O16_3 C11_5 1_555 1_555
O11_5 C9_5 1_555 1_555
C5_5 C6_5 1_555 1_555
C11_5 C13_5 1_555 1_555
C13_5 O11_5 1_555 1_555
C14_5 C13_5 1_555 1_555
H4_5 C14_5 1_555 1_555
C15_5 N2_5 1_555 1_555
H5_5 C15_5 1_555 1_555
C16_5 C5_5 1_555 1_555
H6_5 C16_5 1_555 1_555
C18_5 C9_5 1_555 1_555
C20_5 C5_5 1_555 1_555
H10_5 C20_5 1_555 1_555
C21_5 N2_5 1_555 1_555
Co6_5 O7_5 1_555 1_555
Co9_5 O3_5 1_555 1_555
C14_5 C18_5 1_555 1_555
C15_5 C16_5 1_555 1_555
C20_5 C21_5 1_555 1_555
Co1_6 O1_6 1_555 1_555
Co4_2 O1_6 1_555 1_555
Co8 O1_6 1_555 1_555
N4 C22_6 1_555 1_555
O2_6 Co8 1_555 1_555
N2_6 Co1_6 1_555 1_555
O3_6 C6_6 1_555 1_555
O5_6 Co8 1_555 1_555
N3_6 C10_6 1_555 1_555
O6_6 Co1_6 1_555 1_555
C1_6 C3_6 1_555 1_555
C2_6 O6_6 1_555 1_555
C3_6 O2_6 1_555 1_555
O7_6 C6_6 1_555 1_555
O8_6 Co4_2 1_555 1_555
O10_6 Co1_6 1_555 1_555
C4_6 C2_6 1_555 1_555
O11_6 C9_6 1_555 1_555
C5_6 C6_6 1_555 1_555
C7_6 O5_6 1_555 1_555
C8_6 C1_6 1_555 1_555
H1_6 C8_6 1_555 1_555
C9_6 C7_6 1_555 1_555
C10_6 C8_6 1_555 1_555
H2_6 C10_6 1_555 1_555
C12_6 C1_6 1_555 1_555
H3_6 C12_6 1_555 1_555
C13_6 O11_6 1_555 1_555
C14_6 C13_6 1_555 1_555
H4_6 C14_6 1_555 1_555
C15_6 N2_6 1_555 1_555
H5_6 C15_6 1_555 1_555
C16_6 C5_6 1_555 1_555
H6_6 C16_6 1_555 1_555
C17_6 N3_6 1_555 1_555
H7_6 C17_6 1_555 1_555
C18_6 C9_6 1_555 1_555
H8_6 C18_6 1_555 1_555
C19_6 C4_6 1_555 1_555
H9_6 C19_6 1_555 1_555
C20_6 C5_6 1_555 1_555
H10_6 C20_6 1_555 1_555
C21_6 N2_6 1_555 1_555
H11_6 C21_6 1_555 1_555
C22_6 C19_6 1_555 1_555
H12_6 C22_6 1_555 1_555
C23_6 C4_6 1_555 1_555
H13_6 C23_6 1_555 1_555
C24_6 N4 1_555 1_555
H14_6 C24_6 1_555 1_555
O12_6 Co1_6 1_555 1_555
Co5_6 N3_6 1_555 1_555
Co6_6 O7_6 1_555 1_555
Co9_6 O3_6 1_555 1_555
O13_6 Co8 1_555 1_555
O15_6 Co4_2 1_555 1_555
C2_6 O8_6 1_555 1_555
C3_6 O12_6 1_555 1_555
O10_6 C7_6 1_555 1_555
C12_6 C17_6 1_555 1_555
C14_6 C18_6 1_555 1_555
C15_6 C16_6 1_555 1_555
C20_6 C21_6 1_555 1_555
C23_6 C24_6 1_555 1_555
O14_4 C11_6 1_555 1_555
O16_4 C11_6 1_555 1_555
N3_7 C10_7 1_555 1_555
C8_7 C1_7 1_555 1_555
H1_7 C8_7 1_555 1_555
C10_7 C8_7 1_555 1_555
H2_7 C10_7 1_555 1_555
C12_7 C1_7 1_555 1_555
H3_7 C12_7 1_555 1_555
C17_7 N3_7 1_555 1_555
H7_7 C17_7 1_555 1_555
Co6_2 N3_7 1_555 1_555
C12_7 C17_7 1_555 1_555
Co1_7 O1_7 1_555 1_555
Co5_4 O1_7 1_555 1_555
Co3_3 O1_7 1_555 1_555
N1_4 C22_7 1_555 1_555
O2_7 Co3_3 1_555 1_555
N2_7 Co1_7 1_555 1_555
O13_5 C6_7 1_555 1_555
O4_3 C11_7 1_555 1_555
O5_7 Co3_3 1_555 1_555
O6_7 Co1_7 1_555 1_555
C2_7 O6_7 1_555 1_555
C3_7 O2_7 1_555 1_555
O15_5 C6_7 1_555 1_555
O8_7 Co5_4 1_555 1_555
O9_3 C11_7 1_555 1_555
O10_7 Co1_7 1_555 1_555
C4_7 C2_7 1_555 1_555
O11_7 C9_7 1_555 1_555
C5_7 C6_7 1_555 1_555
C7_7 O5_7 1_555 1_555
C9_7 C7_7 1_555 1_555
C11_7 C13_7 1_555 1_555
C13_7 O11_7 1_555 1_555
C14_7 C13_7 1_555 1_555
H4_7 C14_7 1_555 1_555
C15_7 N2_7 1_555 1_555
H5_7 C15_7 1_555 1_555
C16_7 C5_7 1_555 1_555
H6_7 C16_7 1_555 1_555
C18_7 C9_7 1_555 1_555
H8_7 C18_7 1_555 1_555
C19_7 C4_7 1_555 1_555
H9_7 C19_7 1_555 1_555
C20_7 C5_7 1_555 1_555
H10_7 C20_7 1_555 1_555
C21_7 N2_7 1_555 1_555
H11_7 C21_7 1_555 1_555
C22_7 C19_7 1_555 1_555
H12_7 C22_7 1_555 1_555
C23_7 C4_7 1_555 1_555
H13_7 C23_7 1_555 1_555
C24_7 N1_4 1_555 1_555
H14_7 C24_7 1_555 1_555
O12_7 Co1_7 1_555 1_555
Co5_5 O9_3 1_555 1_555
Co7_2 O4_3 1_555 1_555
Co8_4 N1_4 1_555 1_555
N4_4 Co3_3 1_555 1_555
O13_7 Co3_3 1_555 1_555
O14_5 Co3_3 1_555 1_555
O15_7 Co5_4 1_555 1_555
O16_5 Co5_4 1_555 1_555
C2_7 O8_7 1_555 1_555
C3_7 O12_7 1_555 1_555
O10_7 C7_7 1_555 1_555
C14_7 C18_7 1_555 1_555
C15_7 C16_7 1_555 1_555
C20_7 C21_7 1_555 1_555
C23_7 C24_7 1_555 1_555
Co1_8 O1_8 1_555 1_555
Co5_6 O1_8 1_555 1_555
Co3_4 O1_8 1_555 1_555
N1_5 C22_8 1_555 1_555
O2_8 Co3_4 1_555 1_555
N2_8 Co1_8 1_555 1_555
O13_4 C6_8 1_555 1_555
O14_5 C11_8 1_555 1_555
O5_8 Co3_4 1_555 1_555
N3_8 C10_8 1_555 1_555
O6_8 Co1_8 1_555 1_555
C1_8 C3_8 1_555 1_555
C2_8 O6_8 1_555 1_555
C3_8 O2_8 1_555 1_555
O15_4 C6_8 1_555 1_555
O8_8 Co5_6 1_555 1_555
O16_5 C11_8 1_555 1_555
O10_8 Co1_8 1_555 1_555
C4_8 C2_8 1_555 1_555
O11_8 C9_8 1_555 1_555
C5_8 C6_8 1_555 1_555
C7_8 O5_8 1_555 1_555
C8_8 C1_8 1_555 1_555
H1_8 C8_8 1_555 1_555
C9_8 C7_8 1_555 1_555
C10_8 C8_8 1_555 1_555
H2_8 C10_8 1_555 1_555
C11_8 C13_8 1_555 1_555
C12_8 C1_8 1_555 1_555
H3_8 C12_8 1_555 1_555
C13_8 O11_8 1_555 1_555
C14_8 C13_8 1_555 1_555
H4_8 C14_8 1_555 1_555
C15_8 N2_8 1_555 1_555
H5_8 C15_8 1_555 1_555
C16_8 C5_8 1_555 1_555
H6_8 C16_8 1_555 1_555
C17_8 N3_8 1_555 1_555
H7_8 C17_8 1_555 1_555
C18_8 C9_8 1_555 1_555
H8_8 C18_8 1_555 1_555
C19_8 C4_8 1_555 1_555
H9_8 C19_8 1_555 1_555
C20_8 C5_8 1_555 1_555
H10_8 C20_8 1_555 1_555
C21_8 N2_8 1_555 1_555
H11_8 C21_8 1_555 1_555
C22_8 C19_8 1_555 1_555
H12_8 C22_8 1_555 1_555
C23_8 C4_8 1_555 1_555
H13_8 C23_8 1_555 1_555
C24_8 N1_5 1_555 1_555
H14_8 C24_8 1_555 1_555
O12_8 Co1_8 1_555 1_555
Co6_3 N3_8 1_555 1_555
Co8_5 N1_5 1_555 1_555
N4_5 Co3_4 1_555 1_555
O13_8 Co3_4 1_555 1_555
O14_6 Co3_4 1_555 1_555
O15_8 Co5_6 1_555 1_555
O16_6 Co5_6 1_555 1_555
C2_8 O8_8 1_555 1_555
C3_8 O12_8 1_555 1_555
O10_8 C7_8 1_555 1_555
C12_8 C17_8 1_555 1_555
C14_8 C18_8 1_555 1_555
C15_8 C16_8 1_555 1_555
C20_8 C21_8 1_555 1_555
C23_8 C24_8 1_555 1_555
Co1_9 O1_9 1_555 1_555
Co5_5 O1_9 1_555 1_555
Co7_2 O1_9 1_555 1_555
N1_6 C22_9 1_555 1_555
O2_9 Co7_2 1_555 1_555
N2_9 Co1_9 1_555 1_555
O13_6 C6_9 1_555 1_555
O14_6 C11_9 1_555 1_555
O5_9 Co7_2 1_555 1_555
O6_9 Co1_9 1_555 1_555
C2_9 O6_9 1_555 1_555
C3_9 O2_9 1_555 1_555
O15_6 C6_9 1_555 1_555
O8_9 Co5_5 1_555 1_555
O16_6 C11_9 1_555 1_555
O10_9 Co1_9 1_555 1_555
C4_9 C2_9 1_555 1_555
O11_9 C9_9 1_555 1_555
C5_9 C6_9 1_555 1_555
C7_9 O5_9 1_555 1_555
C9_9 C7_9 1_555 1_555
C11_9 C13_9 1_555 1_555
C13_9 O11_9 1_555 1_555
C14_9 C13_9 1_555 1_555
H4_9 C14_9 1_555 1_555
C15_9 N2_9 1_555 1_555
H5_9 C15_9 1_555 1_555
C16_9 C5_9 1_555 1_555
H6_9 C16_9 1_555 1_555
C18_9 C9_9 1_555 1_555
H8_9 C18_9 1_555 1_555
C19_9 C4_9 1_555 1_555
H9_9 C19_9 1_555 1_555
C20_9 C5_9 1_555 1_555
H10_9 C20_9 1_555 1_555
C21_9 N2_9 1_555 1_555
H11_9 C21_9 1_555 1_555
C22_9 C19_9 1_555 1_555
H12_9 C22_9 1_555 1_555
C23_9 C4_9 1_555 1_555
H13_9 C23_9 1_555 1_555
C24_9 N1_6 1_555 1_555
H14_9 C24_9 1_555 1_555
O12_9 Co1_9 1_555 1_555
Co8_6 N1_6 1_555 1_555
N4_6 Co7_2 1_555 1_555
O13_9 Co7_2 1_555 1_555
O15_9 Co5_5 1_555 1_555
C2_9 O8_9 1_555 1_555
C3_9 O12_9 1_555 1_555
O10_9 C7_9 1_555 1_555
C14_9 C18_9 1_555 1_555
C15_9 C16_9 1_555 1_555
C20_9 C21_9 1_555 1_555
C23_9 C24_9 1_555 1_555
N3_9 C10_9 1_555 1_555
C8_9 C1_9 1_555 1_555
H1_9 C8_9 1_555 1_555
C10_9 C8_9 1_555 1_555
H2_9 C10_9 1_555 1_555
C12_9 C1_9 1_555 1_555
H3_9 C12_9 1_555 1_555
C17_9 N3_9 1_555 1_555
H7_9 C17_9 1_555 1_555
Co6 N3_9 1_555 1_555
C12_9 C17_9 1_555 1_555
Co1_10 O1_10 1_555 1_555
Co5 O1_10 1_555 1_555
Co8_6 O1_10 1_555 1_555
O2_10 Co8_6 1_555 1_555
N2_10 Co1_10 1_555 1_555
O13_2 C6_10 1_555 1_555
O4_4 C11_10 1_555 1_555
O5_10 Co8_6 1_555 1_555
O6_10 Co1_10 1_555 1_555
C2_10 O6_10 1_555 1_555
C3_10 O2_10 1_555 1_555
O15_2 C6_10 1_555 1_555
O8_10 Co5 1_555 1_555
O9_4 C11_10 1_555 1_555
O10_10 Co1_10 1_555 1_555
C4_10 C2_10 1_555 1_555
O11_10 C9_10 1_555 1_555
C5_10 C6_10 1_555 1_555
C7_10 O5_10 1_555 1_555
C9_10 C7_10 1_555 1_555
C11_10 C13_10 1_555 1_555
C13_10 O11_10 1_555 1_555
C14_10 C13_10 1_555 1_555
H4_10 C14_10 1_555 1_555
C15_10 N2_10 1_555 1_555
H5_10 C15_10 1_555 1_555
C16_10 C5_10 1_555 1_555
H6_10 C16_10 1_555 1_555
C18_10 C9_10 1_555 1_555
H8_10 C18_10 1_555 1_555
C19_10 C4_10 1_555 1_555
H9_10 C19_10 1_555 1_555
C20_10 C5_10 1_555 1_555
H10_10 C20_10 1_555 1_555
C21_10 N2_10 1_555 1_555
H11_10 C21_10 1_555 1_555
C22_10 C19_10 1_555 1_555
H12_10 C22_10 1_555 1_555
C23_10 C4_10 1_555 1_555
H13_10 C23_10 1_555 1_555
H14_10 C24_10 1_555 1_555
O12_10 Co1_10 1_555 1_555
Co5_2 O9_4 1_555 1_555
Co8_4 O4_4 1_555 1_555
O13_10 Co8_6 1_555 1_555
O14_7 Co8_6 1_555 1_555
O15_10 Co5 1_555 1_555
O16_7 Co5 1_555 1_555
C2_10 O8_10 1_555 1_555
C3_10 O12_10 1_555 1_555
O10_10 C7_10 1_555 1_555
C14_10 C18_10 1_555 1_555
C15_10 C16_10 1_555 1_555
C20_10 C21_10 1_555 1_555
C23_10 C24_10 1_555 1_555
N3_10 C10_10 1_555 1_555
C8_10 C1_10 1_555 1_555
H1_10 C8_10 1_555 1_555
C10_10 C8_10 1_555 1_555
H2_10 C10_10 1_555 1_555
C12_10 C1_10 1_555 1_555
H3_10 C12_10 1_555 1_555
C17_10 N3_10 1_555 1_555
H7_10 C17_10 1_555 1_555
Co6_5 N3_10 1_555 1_555
C12_10 C17_10 1_555 1_555
Co1_11 O1_11 1_555 1_555
Co5_3 O1_11 1_555 1_555
Co8_5 O1_11 1_555 1_555
O2_11 Co8_5 1_555 1_555
N2_11 Co1_11 1_555 1_555
O13 C6_11 1_555 1_555
O14_7 C11_11 1_555 1_555
O5_11 Co8_5 1_555 1_555
N3_11 C10_11 1_555 1_555
O6_11 Co1_11 1_555 1_555
C1_11 C3_11 1_555 1_555
C2_11 O6_11 1_555 1_555
C3_11 O2_11 1_555 1_555
O15 C6_11 1_555 1_555
O8_11 Co5_3 1_555 1_555
O16_7 C11_11 1_555 1_555
O10_11 Co1_11 1_555 1_555
C4_11 C2_11 1_555 1_555
O11_11 C9_11 1_555 1_555
C5_11 C6_11 1_555 1_555
C7_11 O5_11 1_555 1_555
C8_11 C1_11 1_555 1_555
H1_11 C8_11 1_555 1_555
C9_11 C7_11 1_555 1_555
C10_11 C8_11 1_555 1_555
H2_11 C10_11 1_555 1_555
C11_11 C13_11 1_555 1_555
C12_11 C1_11 1_555 1_555
H3_11 C12_11 1_555 1_555
C13_11 O11_11 1_555 1_555
C14_11 C13_11 1_555 1_555
H4_11 C14_11 1_555 1_555
C15_11 N2_11 1_555 1_555
H5_11 C15_11 1_555 1_555
C16_11 C5_11 1_555 1_555
H6_11 C16_11 1_555 1_555
C17_11 N3_11 1_555 1_555
H7_11 C17_11 1_555 1_555
C18_11 C9_11 1_555 1_555
H8_11 C18_11 1_555 1_555
C19_11 C4_11 1_555 1_555
H9_11 C19_11 1_555 1_555
C20_11 C5_11 1_555 1_555
H10_11 C20_11 1_555 1_555
C21_11 N2_11 1_555 1_555
H11_11 C21_11 1_555 1_555
C22_11 C19_11 1_555 1_555
H12_11 C22_11 1_555 1_555
C23_11 C4_11 1_555 1_555
H13_11 C23_11 1_555 1_555
H14_11 C24_11 1_555 1_555
O12_11 Co1_11 1_555 1_555
Co6_6 N3_11 1_555 1_555
O13_11 Co8_5 1_555 1_555
O14_8 Co8_5 1_555 1_555
O15_11 Co5_3 1_555 1_555
O16_8 Co5_3 1_555 1_555
C2_11 O8_11 1_555 1_555
C3_11 O12_11 1_555 1_555
O10_11 C7_11 1_555 1_555
C12_11 C17_11 1_555 1_555
C14_11 C18_11 1_555 1_555
C15_11 C16_11 1_555 1_555
C20_11 C21_11 1_555 1_555
C23_11 C24_11 1_555 1_555
N3_12 C10_12 1_555 1_555
C8_12 C1_12 1_555 1_555
H1_12 C8_12 1_555 1_555
C10_12 C8_12 1_555 1_555
H2_12 C10_12 1_555 1_555
C12_12 C1_12 1_555 1_555
H3_12 C12_12 1_555 1_555
C17_12 N3_12 1_555 1_555
H7_12 C17_12 1_555 1_555
Co6_4 N3_12 1_555 1_555
C12_12 C17_12 1_555 1_555
Co1_12 O1_12 1_555 1_555
Co5_2 O1_12 1_555 1_555
Co8_4 O1_12 1_555 1_555
O2_12 Co8_4 1_555 1_555
N2_12 Co1_12 1_555 1_555
O13_3 C6_12 1_555 1_555
O14_8 C11_12 1_555 1_555
O5_12 Co8_4 1_555 1_555
O6_12 Co1_12 1_555 1_555
C2_12 O6_12 1_555 1_555
C3_12 O2_12 1_555 1_555
O15_3 C6_12 1_555 1_555
O8_12 Co5_2 1_555 1_555
O16_8 C11_12 1_555 1_555
O10_12 Co1_12 1_555 1_555
C4_12 C2_12 1_555 1_555
O11_12 C9_12 1_555 1_555
C5_12 C6_12 1_555 1_555
C7_12 O5_12 1_555 1_555
C9_12 C7_12 1_555 1_555
C11_12 C13_12 1_555 1_555
C13_12 O11_12 1_555 1_555
C14_12 C13_12 1_555 1_555
H4_12 C14_12 1_555 1_555
C15_12 N2_12 1_555 1_555
H5_12 C15_12 1_555 1_555
C16_12 C5_12 1_555 1_555
H6_12 C16_12 1_555 1_555
C18_12 C9_12 1_555 1_555
H8_12 C18_12 1_555 1_555
C19_12 C4_12 1_555 1_555
H9_12 C19_12 1_555 1_555
C20_12 C5_12 1_555 1_555
H10_12 C20_12 1_555 1_555
C21_12 N2_12 1_555 1_555
H11_12 C21_12 1_555 1_555
C22_12 C19_12 1_555 1_555
H12_12 C22_12 1_555 1_555
C23_12 C4_12 1_555 1_555
H13_12 C23_12 1_555 1_555
H14_12 C24_12 1_555 1_555
O12_12 Co1_12 1_555 1_555
O13_12 Co8_4 1_555 1_555
O15_12 Co5_2 1_555 1_555
C2_12 O8_12 1_555 1_555
C3_12 O12_12 1_555 1_555
O10_12 C7_12 1_555 1_555
C14_12 C18_12 1_555 1_555
C15_12 C16_12 1_555 1_555
C20_12 C21_12 1_555 1_555
C23_12 C24_12 1_555 1_555
Co1_13 O1_13 1_555 1_555
Co6_5 O1_13 1_555 1_555
Co9_5 O1_13 1_555 1_555
N1_7 C22_13 1_555 1_555
O2_13 Co9_5 1_555 1_555
N2_13 Co1_13 1_555 1_555
O13_11 C6_13 1_555 1_555
O4_5 C11_13 1_555 1_555
O5_13 Co9_5 1_555 1_555
N5_4 C10_13 1_555 1_555
O6_13 Co1_13 1_555 1_555
C1_13 C3_13 1_555 1_555
C2_13 O6_13 1_555 1_555
C3_13 O2_13 1_555 1_555
O15_11 C6_13 1_555 1_555
O8_13 Co6_5 1_555 1_555
O9_5 C11_13 1_555 1_555
O10_13 Co1_13 1_555 1_555
C4_13 C2_13 1_555 1_555
O11_13 C9_13 1_555 1_555
C5_13 C6_13 1_555 1_555
C7_13 O5_13 1_555 1_555
C8_13 C1_13 1_555 1_555
H1_13 C8_13 1_555 1_555
C9_13 C7_13 1_555 1_555
C10_13 C8_13 1_555 1_555
H2_13 C10_13 1_555 1_555
C11_13 C13_13 1_555 1_555
C12_13 C1_13 1_555 1_555
H3_13 C12_13 1_555 1_555
C13_13 O11_13 1_555 1_555
C14_13 C13_13 1_555 1_555
H4_13 C14_13 1_555 1_555
C15_13 N2_13 1_555 1_555
H5_13 C15_13 1_555 1_555
C16_13 C5_13 1_555 1_555
H6_13 C16_13 1_555 1_555
C17_13 N5_4 1_555 1_555
H7_13 C17_13 1_555 1_555
C18_13 C9_13 1_555 1_555
H8_13 C18_13 1_555 1_555
C19_13 C4_13 1_555 1_555
H9_13 C19_13 1_555 1_555
C20_13 C5_13 1_555 1_555
H10_13 C20_13 1_555 1_555
C21_13 N2_13 1_555 1_555
H11_13 C21_13 1_555 1_555
C22_13 C19_13 1_555 1_555
H12_13 C22_13 1_555 1_555
C23_13 C4_13 1_555 1_555
H13_13 C23_13 1_555 1_555
C24_13 N1_7 1_555 1_555
H14_13 C24_13 1_555 1_555
O12_13 Co1_13 1_555 1_555
Co6_6 O9_5 1_555 1_555
Co9_6 O4_5 1_555 1_555
Co9_3 N1_7 1_555 1_555
N4_7 Co9_5 1_555 1_555
O14_9 Co9_5 1_555 1_555
O16_9 Co6_5 1_555 1_555
C2_13 O8_13 1_555 1_555
C3_13 O12_13 1_555 1_555
O10_13 C7_13 1_555 1_555
C12_13 C17_13 1_555 1_555
C14_13 C18_13 1_555 1_555
C15_13 C16_13 1_555 1_555
C20_13 C21_13 1_555 1_555
C23_13 C24_13 1_555 1_555
O13_10 C6_14 1_555 1_555
O15_10 C6_14 1_555 1_555
C5_14 C6_14 1_555 1_555
Co1_14 O1_14 1_555 1_555
Co6_4 O1_14 1_555 1_555
Co9_4 O1_14 1_555 1_555
N1_8 C22_14 1_555 1_555
O2_14 Co9_4 1_555 1_555
N2_14 Co1_14 1_555 1_555
O14_9 C11_14 1_555 1_555
O5_14 Co9_4 1_555 1_555
N5_6 C10_14 1_555 1_555
O6_14 Co1_14 1_555 1_555
C1_14 C3_14 1_555 1_555
C2_14 O6_14 1_555 1_555
C3_14 O2_14 1_555 1_555
O8_14 Co6_4 1_555 1_555
O16_9 C11_14 1_555 1_555
O10_14 Co1_14 1_555 1_555
C4_14 C2_14 1_555 1_555
O11_14 C9_14 1_555 1_555
C7_14 O5_14 1_555 1_555
C8_14 C1_14 1_555 1_555
H1_14 C8_14 1_555 1_555
C9_14 C7_14 1_555 1_555
C10_14 C8_14 1_555 1_555
C11_14 C13_14 1_555 1_555
C12_14 C1_14 1_555 1_555
H3_14 C12_14 1_555 1_555
C13_14 O11_14 1_555 1_555
C14_14 C13_14 1_555 1_555
H4_14 C14_14 1_555 1_555
C15_14 N2_14 1_555 1_555
H5_14 C15_14 1_555 1_555
C17_14 N5_6 1_555 1_555
H7_14 C17_14 1_555 1_555
C18_14 C9_14 1_555 1_555
H8_14 C18_14 1_555 1_555
C19_14 C4_14 1_555 1_555
H9_14 C19_14 1_555 1_555
H10_14 C20_14 1_555 1_555
C21_14 N2_14 1_555 1_555
H11_14 C21_14 1_555 1_555
C22_14 C19_14 1_555 1_555
H12_14 C22_14 1_555 1_555
C23_14 C4_14 1_555 1_555
H13_14 C23_14 1_555 1_555
C24_14 N1_8 1_555 1_555
H14_14 C24_14 1_555 1_555
O12_14 Co1_14 1_555 1_555
Co9 N1_8 1_555 1_555
N4_8 Co9_4 1_555 1_555
O14_10 Co9_4 1_555 1_555
O16_10 Co6_4 1_555 1_555
C2_14 O8_14 1_555 1_555
C3_14 O12_14 1_555 1_555
O10_14 C7_14 1_555 1_555
C12_14 C17_14 1_555 1_555
C14_14 C18_14 1_555 1_555
C15_14 C16_14 1_555 1_555
C20_14 C21_14 1_555 1_555
C23_14 C24_14 1_555 1_555
Co1_15 O1_15 1_555 1_555
Co6_6 O1_15 1_555 1_555
Co9_6 O1_15 1_555 1_555
N1_9 C22_15 1_555 1_555
O2_15 Co9_6 1_555 1_555
N2_15 Co1_15 1_555 1_555
O14_10 C11_15 1_555 1_555
O5_15 Co9_6 1_555 1_555
N5_5 C10_15 1_555 1_555
O6_15 Co1_15 1_555 1_555
C1_15 C3_15 1_555 1_555
C2_15 O6_15 1_555 1_555
C3_15 O2_15 1_555 1_555
O8_15 Co6_6 1_555 1_555
O16_10 C11_15 1_555 1_555
O10_15 Co1_15 1_555 1_555
C4_15 C2_15 1_555 1_555
O11_15 C9_15 1_555 1_555
C7_15 O5_15 1_555 1_555
C8_15 C1_15 1_555 1_555
H1_15 C8_15 1_555 1_555
C9_15 C7_15 1_555 1_555
C10_15 C8_15 1_555 1_555
C11_15 C13_15 1_555 1_555
C12_15 C1_15 1_555 1_555
H3_15 C12_15 1_555 1_555
C13_15 O11_15 1_555 1_555
C14_15 C13_15 1_555 1_555
H4_15 C14_15 1_555 1_555
C15_15 N2_15 1_555 1_555
H5_15 C15_15 1_555 1_555
C17_15 N5_5 1_555 1_555
H7_15 C17_15 1_555 1_555
C18_15 C9_15 1_555 1_555
H8_15 C18_15 1_555 1_555
C19_15 C4_15 1_555 1_555
H9_15 C19_15 1_555 1_555
H10_15 C20_15 1_555 1_555
C21_15 N2_15 1_555 1_555
H11_15 C21_15 1_555 1_555
C22_15 C19_15 1_555 1_555
H12_15 C22_15 1_555 1_555
C23_15 C4_15 1_555 1_555
H13_15 C23_15 1_555 1_555
C24_15 N1_9 1_555 1_555
H14_15 C24_15 1_555 1_555
O12_15 Co1_15 1_555 1_555
Co9_2 N1_9 1_555 1_555
N4_9 Co9_6 1_555 1_555
C2_15 O8_15 1_555 1_555
C3_15 O12_15 1_555 1_555
O10_15 C7_15 1_555 1_555
C12_15 C17_15 1_555 1_555
C14_15 C18_15 1_555 1_555
C15_15 C16_15 1_555 1_555
C20_15 C21_15 1_555 1_555
C23_15 C24_15 1_555 1_555
O13_12 C6_15 1_555 1_555
O15_12 C6_15 1_555 1_555
C5_15 C6_15 1_555 1_555
Co1_16 O1_16 1_555 1_555
Co6_2 O1_16 1_555 1_555
N4_9 C22_16 1_555 1_555
N2_16 Co1_16 1_555 1_555
O13_8 C6_16 1_555 1_555
O6_16 Co1_16 1_555 1_555
C2_16 O6_16 1_555 1_555
O15_8 C6_16 1_555 1_555
O8_16 Co6_2 1_555 1_555
O10_16 Co1_16 1_555 1_555
C4_16 C2_16 1_555 1_555
C5_16 C6_16 1_555 1_555
C15_16 N2_16 1_555 1_555
H5_16 C15_16 1_555 1_555
C16_16 C5_16 1_555 1_555
H6_16 C16_16 1_555 1_555
C19_16 C4_16 1_555 1_555
H9_16 C19_16 1_555 1_555
C20_16 C5_16 1_555 1_555
H10_16 C20_16 1_555 1_555
C21_16 N2_16 1_555 1_555
H11_16 C21_16 1_555 1_555
C22_16 C19_16 1_555 1_555
H12_16 C22_16 1_555 1_555
C23_16 C4_16 1_555 1_555
H13_16 C23_16 1_555 1_555
C24_16 N4_9 1_555 1_555
H14_16 C24_16 1_555 1_555
O12_16 Co1_16 1_555 1_555
Co6_3 O9_6 1_555 1_555
O16_11 Co6_2 1_555 1_555
C2_16 O8_16 1_555 1_555
C15_16 C16_16 1_555 1_555
C20_16 C21_16 1_555 1_555
C23_16 C24_16 1_555 1_555
O2_16 Co9_2 1_555 1_555
O4_6 C11_16 1_555 1_555
O5_16 Co9_2 1_555 1_555
N5 C10_16 1_555 1_555
C1_16 C3_16 1_555 1_555
C3_16 O2_16 1_555 1_555
O11_16 C9_16 1_555 1_555
C7_16 O5_16 1_555 1_555
C8_16 C1_16 1_555 1_555
C9_16 C7_16 1_555 1_555
C10_16 C8_16 1_555 1_555
H2_16 C10_16 1_555 1_555
C11_16 C13_16 1_555 1_555
C12_16 C1_16 1_555 1_555
H3_16 C12_16 1_555 1_555
C13_16 O11_16 1_555 1_555
C14_16 C13_16 1_555 1_555
H4_16 C14_16 1_555 1_555
C17_16 N5 1_555 1_555
H7_16 C17_16 1_555 1_555
C18_16 C9_16 1_555 1_555
H8_16 C18_16 1_555 1_555
Co9_3 O4_6 1_555 1_555
O14_11 Co9_2 1_555 1_555
C12_16 C17_16 1_555 1_555
C14_16 C18_16 1_555 1_555
Co1_17 O1_17 1_555 1_555
Co6 O1_17 1_555 1_555
N4_8 C22_17 1_555 1_555
N2_17 Co1_17 1_555 1_555
O6_17 Co1_17 1_555 1_555
C2_17 O6_17 1_555 1_555
O8_17 Co6 1_555 1_555
O10_17 Co1_17 1_555 1_555
C4_17 C2_17 1_555 1_555
C15_17 N2_17 1_555 1_555
H5_17 C15_17 1_555 1_555
C19_17 C4_17 1_555 1_555
H9_17 C19_17 1_555 1_555
H10_17 C20_17 1_555 1_555
C21_17 N2_17 1_555 1_555
H11_17 C21_17 1_555 1_555
C22_17 C19_17 1_555 1_555
H12_17 C22_17 1_555 1_555
C23_17 C4_17 1_555 1_555
H13_17 C23_17 1_555 1_555
C24_17 N4_8 1_555 1_555
H14_17 C24_17 1_555 1_555
O12_17 Co1_17 1_555 1_555
O16_12 Co6 1_555 1_555
C2_17 O8_17 1_555 1_555
C15_17 C16_17 1_555 1_555
C20_17 C21_17 1_555 1_555
C23_17 C24_17 1_555 1_555
O2_17 Co9 1_555 1_555
O14_11 C11_17 1_555 1_555
O5_17 Co9 1_555 1_555
N5_3 C10_17 1_555 1_555
C1_17 C3_17 1_555 1_555
C3_17 O2_17 1_555 1_555
O11_17 C9_17 1_555 1_555
C7_17 O5_17 1_555 1_555
C8_17 C1_17 1_555 1_555
C9_17 C7_17 1_555 1_555
C10_17 C8_17 1_555 1_555
C11_17 C13_17 1_555 1_555
C12_17 C1_17 1_555 1_555
H3_17 C12_17 1_555 1_555
C13_17 O11_17 1_555 1_555
C14_17 C13_17 1_555 1_555
H4_17 C14_17 1_555 1_555
C17_17 N5_3 1_555 1_555
H7_17 C17_17 1_555 1_555
C18_17 C9_17 1_555 1_555
H8_17 C18_17 1_555 1_555
O14_12 Co9 1_555 1_555
C12_17 C17_17 1_555 1_555
C14_17 C18_17 1_555 1_555
O13_7 C6_17 1_555 1_555
O15_7 C6_17 1_555 1_555
C5_17 C6_17 1_555 1_555
O13_9 C6_18 1_555 1_555
O15_9 C6_18 1_555 1_555
C5_18 C6_18 1_555 1_555
Co1_18 O1_18 1_555 1_555
Co6_3 O1_18 1_555 1_555
N4_7 C22_18 1_555 1_555
N2_18 Co1_18 1_555 1_555
O6_18 Co1_18 1_555 1_555
C2_18 O6_18 1_555 1_555
O8_18 Co6_3 1_555 1_555
O10_18 Co1_18 1_555 1_555
C4_18 C2_18 1_555 1_555
C15_18 N2_18 1_555 1_555
H5_18 C15_18 1_555 1_555
C19_18 C4_18 1_555 1_555
H9_18 C19_18 1_555 1_555
H10_18 C20_18 1_555 1_555
C21_18 N2_18 1_555 1_555
H11_18 C21_18 1_555 1_555
C22_18 C19_18 1_555 1_555
H12_18 C22_18 1_555 1_555
C23_18 C4_18 1_555 1_555
H13_18 C23_18 1_555 1_555
C24_18 N4_7 1_555 1_555
H14_18 C24_18 1_555 1_555
O12_18 Co1_18 1_555 1_555
C2_18 O8_18 1_555 1_555
C15_18 C16_18 1_555 1_555
C20_18 C21_18 1_555 1_555
C23_18 C24_18 1_555 1_555
O2_18 Co9_3 1_555 1_555
O14_12 C11_18 1_555 1_555
O5_18 Co9_3 1_555 1_555
N5_2 C10_18 1_555 1_555
C1_18 C3_18 1_555 1_555
C3_18 O2_18 1_555 1_555
O11_18 C9_18 1_555 1_555
C7_18 O5_18 1_555 1_555
C8_18 C1_18 1_555 1_555
C9_18 C7_18 1_555 1_555
C10_18 C8_18 1_555 1_555
C11_18 C13_18 1_555 1_555
C12_18 C1_18 1_555 1_555
H3_18 C12_18 1_555 1_555
C13_18 O11_18 1_555 1_555
C14_18 C13_18 1_555 1_555
H4_18 C14_18 1_555 1_555
C17_18 N5_2 1_555 1_555
H7_18 C17_18 1_555 1_555
C18_18 C9_18 1_555 1_555
H8_18 C18_18 1_555 1_555
C12_18 C17_18 1_555 1_555
C14_18 C18_18 1_555 1_555

#END
