
###############################################################################
#
# This file contains modified crystal structure data generated from the
# MOF subset of the Cambridge Structural Database (CSD) v543 
# hosted by the Cambridge Crystallographic Data Centre (CCDC).
#
# This work is licensed under the Creative Commons
# Attribution-NonCommercial-ShareAlike 4.0 International License.
# To view a copy of this license, visit
# http://creativecommons.org/licenses/by-nc-sa/4.0/
# or send a letter to
# Creative Commons, PO Box 1866, Mountain View, CA 94042, USA.
#
# CIF created using the CSD Python API on 29 September 2022
# The structure has been converted into the P1 space group
# The structure has a 3D framework
# The original CSD entry FAHHUV is in the rhombohedral crystal system
# The framework has been calculated to contain at least 10.0% void space
# The void calculation uses a probe of radius 1.32A, grid spacing 0.4
# H atom positions have been added when not included in the experimental data
#
###############################################################################

data_FAHHUV
_chemical_formula_moiety         '(C234 H126 N27 O114 S9 Zn27)n'
_symmetry_cell_setting           triclinic
_symmetry_space_group_name_H-M   'P 1'
_symmetry_Int_Tables_number      1
_space_group_name_Hall           'P 1'
loop_
_symmetry_equiv_pos_site_id
_symmetry_equiv_pos_as_xyz
1 x,y,z
_cell_length_a                   32.607(13)
_cell_length_b                   32.607(13)
_cell_length_c                   11.709(5)
_cell_angle_alpha                90
_cell_angle_beta                 90
_cell_angle_gamma                120
_cell_volume                     10781.3
loop_
_atom_site_label
_atom_site_type_symbol
_atom_site_fract_x
_atom_site_fract_y
_atom_site_fract_z
Zn1 Zn 0.887725(14) 0.112275(14) 0.15997(5)
N1 N 0.88715(12) 0.11285(12) 0.3409(5)
C1 C 0.88782(14) 0.11218(14) 0.7088(6)
O3 O 0.85400(18) 0.07819(18) 0.7541(3)
C2 C 0.88760(16) 0.11240(16) 0.5798(7)
O6 O 0.8687(3) 0.04231(18) 0.1611(4)
C4 C 0.8596(2) 0.0114(2) 0.0900(5)
C12 C 0.9062(4) 0.0938(4) 0.5212(18)
C13 C 0.9060(4) 0.0940(4) 0.3994(11)
C15 C 0.8671(4) 0.1329(4) 0.517(2)
C16 C 0.8675(4) 0.1325(4) 0.3971(14)
O11 O 0.92181(18) 0.14600(18) 0.7541(3)
Zn3 Zn 0.61151(2) 0.10952(3) 0.24654(4)
N3 N 0.67217(19) 0.10784(27) 0.1776(4)
O13 O 0.8174(2) 0.0966(4) 0.1547(4)
C21 C 0.7471(2) 0.0954(4) 0.1115(5)
C22 C 0.7880(2) 0.0878(4) 0.0817(5)
C23 C 0.6728(3) 0.0886(4) 0.0788(7)
H7 H 0.6477 0.0801 0.0287
C24 C 0.7483(4) 0.1170(6) 0.2153(7)
H8 H 0.7740 0.1272 0.2646
C25 C 0.7098(4) 0.1229(6) 0.2431(8)
H9 H 0.7108 0.1382 0.3110
C26 C 0.7087(3) 0.0804(4) 0.0465(8)
Zn6 Zn 0.83135(2) 0.05516(2) 0.91321(4)
Zn8 Zn 0.94484(2) 0.16865(2) 0.91321(4)
O14 O 0.55494(8) 0.10987(11) 0.3158(3)
O15 O 0.59237(31) 0.04675(26) 0.3155(4)
O17 O 0.58848(18) 0.10914(25) 0.0874(3)
O18 O 0.65559(16) 0.16980(25) 0.3224(4)
O19 O 0.95769(18) 0.1313(3) 0.1611(4)
O20 O 0.9034(4) 0.1826(2) 0.1547(4)
H11 H 0.923194 0.0768061 0.565146
H12 H 0.850823 0.149177 0.350418
H13 H 0.850127 0.149873 0.561134
H14 H 0.922889 0.0771107 0.354526
O1 O 0.88827(8) 0.11173(8) 0.9825(3)
O4 O 0.84755(19) 0.01108(16) 0.9891(4)
H1 H 0.7658 0.0190 0.6954
O12 O 0.78771(17) 0.07429(31) 0.9821(4)
H10 H 0.7061 0.0643 0.9789
S1 S 0.85003(9) 0.92501(4) 0.02912(16)
O5 O 0.8905(3) 0.9897(2) 0.3217(5)
C5 C 0.8765(3) 0.9593(2) 0.2291(5)
C8 C 0.8627(3) 0.9695(2) 0.1252(5)
C14 C 0.9066(11) 0.9739(8) 0.4083(11)
H5 H 0.9185 0.9931 0.4726
O9 O 0.8905(3) 0.9008(4) 0.3217(5)
O10 O 0.8687(3) 0.82639(35) 0.1611(4)
C17 C 0.8596(2) 0.8482(3) 0.0900(5)
C18 C 0.8765(3) 0.9172(4) 0.2291(5)
C19 C 0.8627(3) 0.8932(4) 0.1252(5)
C20 C 0.9066(11) 0.9327(14) 0.4083(11)
H6 H 0.9185 0.9254 0.4726
Zn4 Zn 0.887725(14) 0.775450(20) 0.15997(5)
N2 N 0.76901(19) 0.99450(19) 0.8443(4)
O2 O 0.61992(26) 0.87896(17) 0.6488(4)
O7 O 0.6126(4) 0.8493(2) 0.8214(4)
C3 C 0.6817(4) 0.9196(2) 0.7782(5)
C6 C 0.6332(4) 0.8787(2) 0.7484(5)
C7 C 0.7492(3) 0.9939(3) 0.7455(7)
C9 C 0.7021(4) 0.9184(4) 0.8820(7)
H2 H 0.6866 0.8927 0.9313
C10 C 0.7465(4) 0.9569(4) 0.9098(8)
H3 H 0.7608 0.9559 0.9777
C11 C 0.7051(3) 0.9580(3) 0.7132(8)
H4 H 0.6916 0.9606 0.6456
O8 O 0.84755(19) 0.83647(25) 0.9891(4)
Zn5 Zn 0.557883(20) 0.778942(14) 0.82664(5)
Zn9 Zn 0.83135(2) 0.77619(3) 0.91321(4)
Zn10 Zn 0.55714(3) 0.83532(2) 0.57988(4)
O10_2 O 0.17361(35) 0.04231(46) 0.1611(4)
C17_2 C 0.1518(3) 0.0114(4) 0.0900(5)
Zn4_2 Zn 0.224550(20) 0.112275(24) 0.15997(5)
O8_2 O 0.16353(25) 0.01108(31) 0.9891(4)
Zn9_2 Zn 0.22381(3) 0.05516(4) 0.91321(4)
N2_2 N 0.00550(19) 0.77451(27) 0.8443(4)
O2_2 O 0.12104(17) 0.74096(31) 0.6488(4)
O7_2 O 0.1507(2) 0.7633(4) 0.8214(4)
C3_2 C 0.0804(2) 0.7621(4) 0.7782(5)
C6_2 C 0.1213(2) 0.7545(4) 0.7484(5)
C7_2 C 0.0061(3) 0.7553(4) 0.7455(7)
C9_2 C 0.0816(4) 0.7837(6) 0.8820(7)
H2_2 H 0.1073 0.7939 0.9313
C10_2 C 0.0431(4) 0.7896(6) 0.9098(8)
H3_2 H 0.0441 0.8049 0.9777
C11_2 C 0.0420(3) 0.7471(4) 0.7132(8)
H4_2 H 0.0394 0.7310 0.6456
Zn5_2 Zn 0.221058(14) 0.778942(24) 0.82664(5)
Zn10_2 Zn 0.16468(2) 0.72183(4) 0.57988(4)
N1_2 N 0.88715(12) 0.77430(17) 0.3409(5)
C1_2 C 0.88782(14) 0.77564(20) 0.7088(6)
O3_2 O 0.92181(18) 0.77581(25) 0.7541(3)
C2_2 C 0.88760(16) 0.77520(23) 0.5798(7)
O6_2 O 0.95769(18) 0.82639(35) 0.1611(4)
C4_2 C 0.9886(2) 0.8482(3) 0.0900(5)
C12_2 C 0.9062(4) 0.8124(6) 0.5212(18)
C13_2 C 0.9060(4) 0.8120(6) 0.3994(11)
C15_2 C 0.8671(4) 0.7342(6) 0.517(2)
C16_2 C 0.8675(4) 0.7350(6) 0.3971(14)
O11_2 O 0.85400(18) 0.77581(25) 0.7541(3)
Zn3_2 Zn 0.89048(3) 0.50198(4) 0.24654(4)
N3_2 N 0.89216(27) 0.56432(33) 0.1776(4)
O13_2 O 0.9034(4) 0.7207(4) 0.1547(4)
C21_2 C 0.9046(4) 0.6516(4) 0.1115(5)
C22_2 C 0.9122(4) 0.7001(4) 0.0817(5)
C23_2 C 0.9114(4) 0.5841(5) 0.0788(7)
H7_2 H 0.9199 0.5675 0.0287
C24_2 C 0.8830(6) 0.6312(7) 0.2153(7)
H8_2 H 0.8728 0.6467 0.2646
C25_2 C 0.8771(6) 0.5868(7) 0.2431(8)
H9_2 H 0.8618 0.5725 0.3110
C26_2 C 0.9196(4) 0.6282(5) 0.0465(8)
Zn6_2 Zn 0.94484(2) 0.77619(3) 0.91321(4)
O14_2 O 0.89013(11) 0.44506(14) 0.3158(3)
O15_2 O 0.95325(26) 0.54563(40) 0.3155(4)
O17_2 O 0.89086(25) 0.47933(31) 0.0874(3)
O18_2 O 0.83020(25) 0.48578(30) 0.3224(4)
O20_2 O 0.8174(2) 0.7207(4) 0.1547(4)
H11_2 H 0.923194 0.846388 0.565146
H12_2 H 0.850823 0.701645 0.350418
H13_2 H 0.850127 0.700254 0.561134
H14_2 H 0.922889 0.845779 0.354526
O1_2 O 0.88827(8) 0.77654(11) 0.9825(3)
O4_2 O 0.98892(16) 0.83647(25) 0.9891(4)
H1_2 H 0.9810 0.7468 0.6954
O12_2 O 0.92571(31) 0.71341(35) 0.9821(4)
H10_2 H 0.9357 0.6417 0.9789
S1_2 S 0.07498(10) 0.14997(9) 0.02912(16)
N1_3 N 0.22570(17) 0.11285(12) 0.3409(5)
C1_3 C 0.22436(20) 0.11218(14) 0.7088(6)
O3_3 O 0.22419(25) 0.14600(18) 0.7541(3)
C2_3 C 0.22480(23) 0.11240(16) 0.5798(7)
O5_2 O 0.0992(4) 0.1095(3) 0.3217(5)
O6_3 O 0.17361(35) 0.1313(3) 0.1611(4)
C4_3 C 0.1518(3) 0.1404(2) 0.0900(5)
C5_2 C 0.0828(4) 0.1235(3) 0.2291(5)
C8_2 C 0.1068(4) 0.1373(3) 0.1252(5)
C12_3 C 0.1876(6) 0.0938(4) 0.5212(18)
C13_3 C 0.1880(6) 0.0940(4) 0.3994(11)
C14_2 C 0.0673(14) 0.0934(11) 0.4083(11)
C15_3 C 0.2658(6) 0.1329(4) 0.517(2)
C16_3 C 0.2650(6) 0.1325(4) 0.3971(14)
H5_2 H 0.0746 0.0815 0.4726
O9_2 O 0.0103(5) 0.1095(3) 0.3217(5)
C18_2 C 0.0407(5) 0.1235(3) 0.2291(5)
C19_2 C 0.0305(5) 0.1373(3) 0.1252(5)
C20_2 C 0.0261(18) 0.0934(11) 0.4083(11)
H6_2 H 0.0069 0.0815 0.4726
O11_3 O 0.22419(25) 0.07819(18) 0.7541(3)
Zn3_3 Zn 0.49802(4) 0.38849(2) 0.24654(4)
N3_3 N 0.43568(33) 0.32783(19) 0.1776(4)
O13_3 O 0.2793(4) 0.1826(2) 0.1547(4)
C21_3 C 0.3484(4) 0.2529(2) 0.1115(5)
C22_3 C 0.2999(4) 0.2120(2) 0.0817(5)
C23_3 C 0.4159(5) 0.3272(3) 0.0788(7)
H7_3 H 0.4325 0.3523 0.0287
C24_3 C 0.3688(7) 0.2517(4) 0.2153(7)
H8_3 H 0.3533 0.2260 0.2646
C25_3 C 0.4132(7) 0.2902(4) 0.2431(8)
H9_3 H 0.4275 0.2892 0.3110
C26_3 C 0.3718(5) 0.2913(3) 0.0465(8)
Zn6_3 Zn 0.22381(3) 0.16865(2) 0.91321(4)
O14_3 O 0.55494(14) 0.44506(8) 0.3158(3)
O15_3 O 0.45437(40) 0.40763(31) 0.3155(4)
O17_3 O 0.52067(31) 0.41152(18) 0.0874(3)
O18_3 O 0.51422(30) 0.34441(16) 0.3224(4)
O20_3 O 0.2793(4) 0.0966(4) 0.1547(4)
H11_3 H 0.153612 0.0768061 0.565146
H12_3 H 0.298355 0.149177 0.350418
H13_3 H 0.299746 0.149873 0.561134
H14_3 H 0.154221 0.0771107 0.354526
O1_3 O 0.22346(11) 0.11173(8) 0.9825(3)
N2_3 N 0.22549(27) 0.23099(19) 0.8443(4)
O2_3 O 0.25904(31) 0.38008(26) 0.6488(4)
O4_3 O 0.16353(25) 0.15245(19) 0.9891(4)
O7_3 O 0.2367(4) 0.3874(4) 0.8214(4)
C3_3 C 0.2379(4) 0.3183(4) 0.7782(5)
C6_3 C 0.2455(4) 0.3668(4) 0.7484(5)
C7_3 C 0.2447(4) 0.2508(3) 0.7455(7)
H1_3 H 0.2532 0.2342 0.6954
C9_3 C 0.2163(6) 0.2979(4) 0.8820(7)
H2_3 H 0.2061 0.3134 0.9313
C10_3 C 0.2104(6) 0.2535(4) 0.9098(8)
H3_3 H 0.1951 0.2392 0.9777
C11_3 C 0.2529(4) 0.2949(3) 0.7132(8)
H4_3 H 0.2690 0.3084 0.6456
O12_3 O 0.28659(35) 0.21229(17) 0.9821(4)
H10_3 H 0.3583 0.2939 0.9789
Zn5_3 Zn 0.221058(24) 0.442117(20) 0.82664(5)
Zn10_3 Zn 0.27817(4) 0.44286(3) 0.57988(4)
C17_3 C 0.9886(4) 0.1404(2) 0.0900(5)
O8_3 O 0.98892(31) 0.15245(19) 0.9891(4)
N2_4 N 0.00550(19) 0.23099(19) 0.8443(4)
O2_4 O 0.12104(17) 0.38008(26) 0.6488(4)
O7_4 O 0.1507(2) 0.3874(4) 0.8214(4)
C3_4 C 0.0804(2) 0.3183(4) 0.7782(5)
C6_4 C 0.1213(2) 0.3668(4) 0.7484(5)
C7_4 C 0.0061(3) 0.2508(3) 0.7455(7)
C9_4 C 0.0816(4) 0.2979(4) 0.8820(7)
H2_4 H 0.1073 0.3134 0.9313
C10_4 C 0.0431(4) 0.2535(4) 0.9098(8)
H3_4 H 0.0441 0.2392 0.9777
C11_4 C 0.0420(3) 0.2949(3) 0.7132(8)
H4_4 H 0.0394 0.3084 0.6456
Zn10_4 Zn 0.16468(2) 0.44286(3) 0.57988(4)
Zn3_4 Zn 0.89048(3) 0.38849(2) 0.24654(4)
N3_4 N 0.89216(27) 0.32783(19) 0.1776(4)
C21_4 C 0.9046(4) 0.2529(2) 0.1115(5)
C22_4 C 0.9122(4) 0.2120(2) 0.0817(5)
C23_4 C 0.9114(4) 0.3272(3) 0.0788(7)
H7_4 H 0.9199 0.3523 0.0287
C24_4 C 0.8830(6) 0.2517(4) 0.2153(7)
H8_4 H 0.8728 0.2260 0.2646
C25_4 C 0.8771(6) 0.2902(4) 0.2431(8)
H9_4 H 0.8618 0.2892 0.3110
C26_4 C 0.9196(4) 0.2913(3) 0.0465(8)
O15_4 O 0.95325(26) 0.40763(31) 0.3155(4)
O17_4 O 0.89086(25) 0.41152(18) 0.0874(3)
O18_4 O 0.83020(25) 0.34441(16) 0.3224(4)
H1_4 H 0.9810 0.2342 0.6954
O12_4 O 0.92571(31) 0.21229(17) 0.9821(4)
H10_4 H 0.9357 0.2939 0.9789
Zn3_5 Zn 0.49802(4) 0.10952(3) 0.24654(4)
N3_5 N 0.43568(33) 0.10784(27) 0.1776(4)
C21_5 C 0.3484(4) 0.0954(4) 0.1115(5)
C22_5 C 0.2999(4) 0.0878(4) 0.0817(5)
C23_5 C 0.4159(5) 0.0886(4) 0.0788(7)
H7_5 H 0.4325 0.0801 0.0287
C24_5 C 0.3688(7) 0.1170(6) 0.2153(7)
H8_5 H 0.3533 0.1272 0.2646
C25_5 C 0.4132(7) 0.1229(6) 0.2431(8)
H9_5 H 0.4275 0.1382 0.3110
C26_5 C 0.3718(5) 0.0804(4) 0.0465(8)
O15_5 O 0.45437(40) 0.04675(26) 0.3155(4)
O17_5 O 0.52067(31) 0.10914(25) 0.0874(3)
O18_5 O 0.51422(30) 0.16980(25) 0.3224(4)
H1_5 H 0.2532 0.0190 0.6954
O12_5 O 0.28659(35) 0.07429(31) 0.9821(4)
H10_5 H 0.3583 0.0643 0.9789
N2_5 N 0.22549(27) 0.99450(19) 0.8443(4)
O2_5 O 0.25904(31) 0.87896(17) 0.6488(4)
O7_5 O 0.2367(4) 0.8493(2) 0.8214(4)
C3_5 C 0.2379(4) 0.9196(2) 0.7782(5)
C6_5 C 0.2455(4) 0.8787(2) 0.7484(5)
C7_5 C 0.2447(4) 0.9939(3) 0.7455(7)
C9_5 C 0.2163(6) 0.9184(4) 0.8820(7)
H2_5 H 0.2061 0.8927 0.9313
C10_5 C 0.2104(6) 0.9569(4) 0.9098(8)
H3_5 H 0.1951 0.9559 0.9777
C11_5 C 0.2529(4) 0.9580(3) 0.7132(8)
H4_5 H 0.2690 0.9606 0.6456
Zn10_5 Zn 0.27817(4) 0.83532(2) 0.57988(4)
Zn3_6 Zn 0.61151(2) 0.50198(4) 0.24654(4)
N3_6 N 0.67217(19) 0.56432(33) 0.1776(4)
C21_6 C 0.7471(2) 0.6516(4) 0.1115(5)
C22_6 C 0.7880(2) 0.7001(4) 0.0817(5)
C23_6 C 0.6728(3) 0.5841(5) 0.0788(7)
H7_6 H 0.6477 0.5675 0.0287
C24_6 C 0.7483(4) 0.6312(7) 0.2153(7)
H8_6 H 0.7740 0.6467 0.2646
C25_6 C 0.7098(4) 0.5868(7) 0.2431(8)
H9_6 H 0.7108 0.5725 0.3110
C26_6 C 0.7087(3) 0.6282(5) 0.0465(8)
O15_6 O 0.59237(31) 0.54563(40) 0.3155(4)
O17_6 O 0.58848(18) 0.47933(31) 0.0874(3)
O18_6 O 0.65559(16) 0.48578(30) 0.3224(4)
N2_6 N 0.76901(19) 0.77451(27) 0.8443(4)
O2_6 O 0.61992(26) 0.74096(31) 0.6488(4)
O7_6 O 0.6126(4) 0.7633(4) 0.8214(4)
C3_6 C 0.6817(4) 0.7621(4) 0.7782(5)
C6_6 C 0.6332(4) 0.7545(4) 0.7484(5)
C7_6 C 0.7492(3) 0.7553(4) 0.7455(7)
H1_6 H 0.7658 0.7468 0.6954
C9_6 C 0.7021(4) 0.7837(6) 0.8820(7)
H2_6 H 0.6866 0.7939 0.9313
C10_6 C 0.7465(4) 0.7896(6) 0.9098(8)
H3_6 H 0.7608 0.8049 0.9777
C11_6 C 0.7051(3) 0.7471(4) 0.7132(8)
H4_6 H 0.6916 0.7310 0.6456
O12_6 O 0.78771(17) 0.71341(35) 0.9821(4)
H10_6 H 0.7061 0.6417 0.9789
Zn10_6 Zn 0.55714(3) 0.72183(4) 0.57988(4)
C1_4 C 0.55449(14) 0.44551(14) 0.0421(6)
Zn1_2 Zn 0.554392(14) 0.445608(14) 0.49330(5)
S1_3 S 0.51670(9) 0.25834(4) 0.36245(16)
N1_4 N 0.55382(12) 0.44618(12) 0.6742(5)
C2_4 C 0.55427(16) 0.44573(16) 0.9131(7)
O5_3 O 0.5572(3) 0.3230(2) 0.6550(5)
O6_4 O 0.5354(3) 0.37564(18) 0.4944(4)
C4_4 C 0.5263(2) 0.3447(2) 0.4233(5)
C5_3 C 0.5432(3) 0.2926(2) 0.5624(5)
C8_3 C 0.5294(3) 0.3028(2) 0.4585(5)
C12_4 C 0.5729(4) 0.4271(4) 0.8545(18)
C13_4 C 0.5727(4) 0.4273(4) 0.7327(11)
C14_3 C 0.5733(11) 0.3072(8) 0.7416(11)
C15_4 C 0.5338(4) 0.4662(4) 0.850(2)
C16_4 C 0.5342(4) 0.4658(4) 0.7304(14)
H5_3 H 0.5852 0.3264 0.8059
O9_3 O 0.5572(3) 0.2341(4) 0.6550(5)
O10_3 O 0.5354(3) 0.15972(35) 0.4944(4)
C17_4 C 0.5263(2) 0.1815(3) 0.4233(5)
C18_3 C 0.5432(3) 0.2505(4) 0.5624(5)
C19_3 C 0.5294(3) 0.2265(4) 0.4585(5)
C20_3 C 0.5733(11) 0.2660(14) 0.7416(11)
H6_3 H 0.5852 0.2587 0.8059
N3_7 N 0.33883(19) 0.44118(27) 0.5110(4)
O13_4 O 0.4840(2) 0.4300(4) 0.4881(4)
C21_7 C 0.4137(2) 0.4288(4) 0.4449(5)
C22_7 C 0.4546(2) 0.4212(4) 0.4151(5)
C23_7 C 0.3394(3) 0.4220(4) 0.4122(7)
H7_7 H 0.3143 0.4135 0.3621
C24_7 C 0.4149(4) 0.4504(6) 0.5487(7)
H8_7 H 0.4406 0.4606 0.5980
C25_7 C 0.3764(4) 0.4563(6) 0.5765(8)
H9_7 H 0.3774 0.4716 0.6444
C26_7 C 0.3753(3) 0.4138(4) 0.3799(8)
H10_7 H 0.3727 0.3977 0.3123
Zn4_3 Zn 0.554392(14) 0.108783(20) 0.49330(5)
O14_4 O 0.22160(8) 0.44321(11) 0.6492(3)
O17_7 O 0.25514(18) 0.44248(25) 0.4208(3)
O18_7 O 0.32225(16) 0.50314(25) 0.6558(4)
O19_2 O 0.62436(18) 0.4646(3) 0.4944(4)
O20_4 O 0.5700(4) 0.5160(2) 0.4881(4)
H11_4 H 0.589861 0.410139 0.898479
H12_4 H 0.517489 0.482511 0.683751
H13_4 H 0.516794 0.483206 0.894467
H14_4 H 0.589556 0.410444 0.687859
C1_5 C 0.55449(14) 0.10897(20) 0.0421(6)
S1_4 S 0.74166(4) 0.25835(10) 0.36245(16)
N1_5 N 0.55382(12) 0.10763(17) 0.6742(5)
C2_5 C 0.55427(16) 0.10853(23) 0.9131(7)
O5_4 O 0.6770(2) 0.2341(4) 0.6550(5)
O6_5 O 0.62436(18) 0.15972(35) 0.4944(4)
C4_5 C 0.6553(2) 0.1815(3) 0.4233(5)
C5_4 C 0.7074(2) 0.2505(4) 0.5624(5)
C8_4 C 0.6972(2) 0.2265(4) 0.4585(5)
C12_5 C 0.5729(4) 0.1457(6) 0.8545(18)
C13_5 C 0.5727(4) 0.1453(6) 0.7327(11)
C14_4 C 0.6928(8) 0.2660(14) 0.7416(11)
C15_5 C 0.5338(4) 0.0675(6) 0.850(2)
C16_5 C 0.5342(4) 0.0683(6) 0.7304(14)
H5_4 H 0.6736 0.2587 0.8059
O9_4 O 0.7659(4) 0.3230(5) 0.6550(5)
O10_4 O 0.84028(35) 0.37564(46) 0.4944(4)
C17_5 C 0.8185(3) 0.3447(4) 0.4233(5)
C18_4 C 0.7495(4) 0.2926(5) 0.5624(5)
C19_4 C 0.7735(4) 0.3028(5) 0.4585(5)
C20_4 C 0.7340(14) 0.3072(18) 0.7416(11)
H6_4 H 0.7413 0.3264 0.8059
O13_5 O 0.5700(4) 0.0541(4) 0.4881(4)
C22_8 C 0.5788(4) 0.0335(4) 0.4151(5)
Zn4_4 Zn 0.891217(20) 0.445608(24) 0.49330(5)
O20_5 O 0.4840(2) 0.0541(4) 0.4881(4)
H11_5 H 0.589861 0.179721 0.898479
H12_5 H 0.517489 0.0349787 0.683751
H13_5 H 0.516794 0.0335875 0.894467
H14_5 H 0.589556 0.179112 0.687859
N3_8 N 0.55882(27) 0.89766(33) 0.5110(4)
C21_8 C 0.5712(4) 0.9850(4) 0.4449(5)
C23_8 C 0.5780(4) 0.9175(5) 0.4122(7)
H7_8 H 0.5865 0.9009 0.3621
C24_8 C 0.5496(6) 0.9646(7) 0.5487(7)
H8_8 H 0.5394 0.9801 0.5980
C25_8 C 0.5437(6) 0.9202(7) 0.5765(8)
H9_8 H 0.5284 0.9059 0.6444
C26_8 C 0.5862(4) 0.9616(5) 0.3799(8)
H10_8 H 0.6023 0.9751 0.3123
O14_5 O 0.55679(11) 0.77840(14) 0.6492(3)
O17_8 O 0.55752(25) 0.81267(31) 0.4208(3)
O18_8 O 0.49686(25) 0.81912(30) 0.6558(4)
N3_9 N 0.10234(33) 0.66117(19) 0.5110(4)
C21_9 C 0.0150(4) 0.5863(2) 0.4449(5)
C23_9 C 0.0825(5) 0.6606(3) 0.4122(7)
H7_9 H 0.0991 0.6857 0.3621
C24_9 C 0.0354(7) 0.5851(4) 0.5487(7)
H8_9 H 0.0199 0.5594 0.5980
C25_9 C 0.0798(7) 0.6236(4) 0.5765(8)
H9_9 H 0.0941 0.6226 0.6444
C26_9 C 0.0384(5) 0.6247(3) 0.3799(8)
H10_9 H 0.0249 0.6273 0.3123
O14_6 O 0.22160(14) 0.77840(8) 0.6492(3)
O17_9 O 0.18733(31) 0.74486(18) 0.4208(3)
O18_9 O 0.18088(30) 0.67775(16) 0.6558(4)
C1_6 C 0.89103(20) 0.44551(14) 0.0421(6)
S1_5 S 0.74165(10) 0.48330(9) 0.36245(16)
N1_6 N 0.89237(17) 0.44618(12) 0.6742(5)
C2_6 C 0.89147(23) 0.44573(16) 0.9131(7)
O5_5 O 0.7659(4) 0.4428(3) 0.6550(5)
O6_6 O 0.84028(35) 0.4646(3) 0.4944(4)
C4_6 C 0.8185(3) 0.4737(2) 0.4233(5)
C5_5 C 0.7495(4) 0.4568(3) 0.5624(5)
C8_5 C 0.7735(4) 0.4706(3) 0.4585(5)
C12_6 C 0.8543(6) 0.4271(4) 0.8545(18)
C13_6 C 0.8547(6) 0.4273(4) 0.7327(11)
C14_5 C 0.7340(14) 0.4267(11) 0.7416(11)
C15_6 C 0.9325(6) 0.4662(4) 0.850(2)
C16_6 C 0.9317(6) 0.4658(4) 0.7304(14)
H5_5 H 0.7413 0.4148 0.8059
O9_5 O 0.6770(5) 0.4428(3) 0.6550(5)
C17_6 C 0.6553(4) 0.4737(2) 0.4233(5)
C18_5 C 0.7074(5) 0.4568(3) 0.5624(5)
C19_5 C 0.6972(5) 0.4706(3) 0.4585(5)
C20_5 C 0.6928(18) 0.4267(11) 0.7416(11)
H6_5 H 0.6736 0.4148 0.8059
O13_6 O 0.9459(4) 0.5160(2) 0.4881(4)
C22_9 C 0.9665(4) 0.5454(2) 0.4151(5)
O20_6 O 0.9459(4) 0.4300(4) 0.4881(4)
H11_6 H 0.820279 0.410139 0.898479
H12_6 H 0.965021 0.482511 0.683751
H13_6 H 0.966413 0.483206 0.894467
H14_6 H 0.820888 0.410444 0.687859
N3_10 N 0.55882(27) 0.66117(19) 0.5110(4)
C21_10 C 0.5712(4) 0.5863(2) 0.4449(5)
C22_10 C 0.5788(4) 0.5454(2) 0.4151(5)
C23_10 C 0.5780(4) 0.6606(3) 0.4122(7)
H7_10 H 0.5865 0.6857 0.3621
C24_10 C 0.5496(6) 0.5851(4) 0.5487(7)
H8_10 H 0.5394 0.5594 0.5980
C25_10 C 0.5437(6) 0.6236(4) 0.5765(8)
H9_10 H 0.5284 0.6226 0.6444
C26_10 C 0.5862(4) 0.6247(3) 0.3799(8)
H10_10 H 0.6023 0.6273 0.3123
O17_10 O 0.55752(25) 0.74486(18) 0.4208(3)
O18_10 O 0.49686(25) 0.67775(16) 0.6558(4)
N3_11 N 0.10234(33) 0.44118(27) 0.5110(4)
C21_11 C 0.0150(4) 0.4288(4) 0.4449(5)
C23_11 C 0.0825(5) 0.4220(4) 0.4122(7)
H7_11 H 0.0991 0.4135 0.3621
C24_11 C 0.0354(7) 0.4504(6) 0.5487(7)
H8_11 H 0.0199 0.4606 0.5980
C25_11 C 0.0798(7) 0.4563(6) 0.5765(8)
H9_11 H 0.0941 0.4716 0.6444
C26_11 C 0.0384(5) 0.4138(4) 0.3799(8)
H10_11 H 0.0249 0.3977 0.3123
O17_11 O 0.18733(31) 0.44248(25) 0.4208(3)
O18_11 O 0.18088(30) 0.50314(25) 0.6558(4)
C22_11 C 0.9665(4) 0.4212(4) 0.4151(5)
C22_12 C 0.4546(2) 0.0335(4) 0.4151(5)
N3_12 N 0.33883(19) 0.89766(33) 0.5110(4)
C21_12 C 0.4137(2) 0.9850(4) 0.4449(5)
C23_12 C 0.3394(3) 0.9175(5) 0.4122(7)
H7_12 H 0.3143 0.9009 0.3621
C24_12 C 0.4149(4) 0.9646(7) 0.5487(7)
H8_12 H 0.4406 0.9801 0.5980
C25_12 C 0.3764(4) 0.9202(7) 0.5765(8)
H9_12 H 0.3774 0.9059 0.6444
C26_12 C 0.3753(3) 0.9616(5) 0.3799(8)
H10_12 H 0.3727 0.9751 0.3123
O17_12 O 0.25514(18) 0.81267(31) 0.4208(3)
O18_12 O 0.32225(16) 0.81912(30) 0.6558(4)
N1_7 N 0.22048(12) 0.77952(12) 0.0076(5)
C1_7 C 0.22115(14) 0.77885(14) 0.3755(6)
C2_7 C 0.22093(16) 0.77907(16) 0.2465(7)
C12_7 C 0.2395(4) 0.7605(4) 0.1879(18)
C13_7 C 0.2393(4) 0.7607(4) 0.0661(11)
C14_6 C 0.2399(11) 0.6406(8) 0.0750(11)
C15_7 C 0.2004(4) 0.7996(4) 0.184(2)
C16_7 C 0.2008(4) 0.7992(4) 0.0638(14)
H5_6 H 0.2518 0.6598 0.1393
C20_6 C 0.2399(11) 0.5994(14) 0.0750(11)
H6_6 H 0.2518 0.5921 0.1393
H11_7 H 0.256527 0.743473 0.231812
H12_7 H 0.184156 0.815844 0.0170843
H13_7 H 0.18346 0.81654 0.227801
H14_7 H 0.256223 0.743777 0.0211928
S1_6 S 0.18336(9) 0.59168(4) 0.69579(16)
O5_6 O 0.2238(3) 0.6564(2) 0.9884(5)
O6_7 O 0.2020(3) 0.70898(18) 0.8278(4)
C4_7 C 0.1929(2) 0.6781(2) 0.7567(5)
C5_6 C 0.2098(3) 0.6260(2) 0.8958(5)
C8_6 C 0.1960(3) 0.6362(2) 0.7919(5)
O9_6 O 0.2238(3) 0.5675(4) 0.9884(5)
O10_5 O 0.2020(3) 0.49306(35) 0.8278(4)
C17_7 C 0.1929(2) 0.5149(3) 0.7567(5)
C18_6 C 0.2098(3) 0.5839(4) 0.8958(5)
C19_6 C 0.1960(3) 0.5599(4) 0.7919(5)
O19_3 O 0.29102(18) 0.7980(3) 0.8278(4)
N1_8 N 0.22048(12) 0.44097(17) 0.0076(5)
C1_8 C 0.22115(14) 0.44231(20) 0.3755(6)
C2_8 C 0.22093(16) 0.44187(23) 0.2465(7)
C12_8 C 0.2395(4) 0.4791(6) 0.1879(18)
C13_8 C 0.2393(4) 0.4787(6) 0.0661(11)
C14_7 C 0.3594(8) 0.5994(14) 0.0750(11)
C15_8 C 0.2004(4) 0.4009(6) 0.184(2)
C16_8 C 0.2008(4) 0.4017(6) 0.0638(14)
H5_7 H 0.3402 0.5921 0.1393
C20_7 C 0.4006(14) 0.6406(18) 0.0750(11)
H6_7 H 0.4079 0.6598 0.1393
H11_8 H 0.256527 0.513054 0.231812
H12_8 H 0.184156 0.368312 0.0170843
H13_8 H 0.18346 0.366921 0.227801
H14_8 H 0.256223 0.512445 0.0211928
S1_7 S 0.40832(4) 0.59169(10) 0.69579(16)
O5_7 O 0.3436(2) 0.5675(4) 0.9884(5)
O6_8 O 0.29102(18) 0.49306(35) 0.8278(4)
C4_8 C 0.3219(2) 0.5149(3) 0.7567(5)
C5_7 C 0.3740(2) 0.5839(4) 0.8958(5)
C8_7 C 0.3638(2) 0.5599(4) 0.7919(5)
O9_7 O 0.4325(4) 0.6564(5) 0.9884(5)
O10_6 O 0.50694(35) 0.70898(46) 0.8278(4)
C17_8 C 0.4851(3) 0.6781(4) 0.7567(5)
C18_7 C 0.4161(4) 0.6260(5) 0.8958(5)
C19_7 C 0.4401(4) 0.6362(5) 0.7919(5)
N1_9 N 0.55903(17) 0.77952(12) 0.0076(5)
C1_9 C 0.55769(20) 0.77885(14) 0.3755(6)
C2_9 C 0.55813(23) 0.77907(16) 0.2465(7)
C12_9 C 0.5209(6) 0.7605(4) 0.1879(18)
C13_9 C 0.5213(6) 0.7607(4) 0.0661(11)
C14_8 C 0.4006(14) 0.7601(11) 0.0750(11)
C15_9 C 0.5991(6) 0.7996(4) 0.184(2)
C16_9 C 0.5983(6) 0.7992(4) 0.0638(14)
H5_8 H 0.4079 0.7482 0.1393
C20_8 C 0.3594(18) 0.7601(11) 0.0750(11)
H6_8 H 0.3402 0.7482 0.1393
H11_9 H 0.486946 0.743473 0.231812
H12_9 H 0.631688 0.815844 0.0170843
H13_9 H 0.633079 0.81654 0.227801
H14_9 H 0.487555 0.743777 0.0211928
S1_8 S 0.40831(10) 0.81664(9) 0.69579(16)
O5_8 O 0.4325(4) 0.7762(3) 0.9884(5)
O6_9 O 0.50694(35) 0.7980(3) 0.8278(4)
C4_9 C 0.4851(3) 0.8071(2) 0.7567(5)
C5_8 C 0.4161(4) 0.7902(3) 0.8958(5)
C8_8 C 0.4401(4) 0.8040(3) 0.7919(5)
O9_8 O 0.3436(5) 0.7762(3) 0.9884(5)
C17_9 C 0.3219(4) 0.8071(2) 0.7567(5)
C18_8 C 0.3740(5) 0.7902(3) 0.8958(5)
C19_8 C 0.3638(5) 0.8040(3) 0.7919(5)
S1_9 S 0.07499(4) 0.92502(10) 0.02912(16)
O5_9 O 0.0103(2) 0.9008(4) 0.3217(5)
C5_9 C 0.0407(2) 0.9172(4) 0.2291(5)
C8_9 C 0.0305(2) 0.8932(4) 0.1252(5)
C14_9 C 0.0261(8) 0.9327(14) 0.4083(11)
H5_9 H 0.0069 0.9254 0.4726
O9_9 O 0.0992(4) 0.9897(5) 0.3217(5)
C18_9 C 0.0828(4) 0.9593(5) 0.2291(5)
C19_9 C 0.1068(4) 0.9695(5) 0.1252(5)
C20_9 C 0.0673(14) 0.9739(18) 0.4083(11)
H6_9 H 0.0746 0.9931 0.4726
loop_
_geom_bond_atom_site_label_1
_geom_bond_atom_site_label_2
_geom_bond_site_symmetry_1
_geom_bond_site_symmetry_2
N1 Zn1 1_555 1_555
C1 O3 1_555 1_555
O3 Zn6 1_555 1_555
C2 C1 1_555 1_555
O6 Zn1 1_555 1_555
C12 C2 1_555 1_555
C13 N1 1_555 1_555
C15 C2 1_555 1_555
C16 N1 1_555 1_555
O11 C1 1_555 1_555
Zn3 N3 1_555 1_555
N3 C23 1_555 1_555
O13 Zn1 1_555 1_555
C21 C22 1_555 1_555
C23 H7 1_555 1_555
C24 C21 1_555 1_555
H8 C24 1_555 1_555
C25 N3 1_555 1_555
H9 C25 1_555 1_555
C26 C21 1_555 1_555
Zn8 O11 1_555 1_555
O14 Zn3 1_555 1_555
O15 Zn3 1_555 1_555
O17 Zn3 1_555 1_555
O18 Zn3 1_555 1_555
O19 Zn1 1_555 1_555
O20 Zn1 1_555 1_555
O6 C4 1_555 1_555
C12 C13 1_555 1_555
C15 C16 1_555 1_555
O13 C22 1_555 1_555
C23 C26 1_555 1_555
C24 C25 1_555 1_555
C12 H11 1_555 1_555
C16 H12 1_555 1_555
C15 H13 1_555 1_555
C13 H14 1_555 1_555
Zn6 O1 1_555 1_555
O1 Zn8 1_555 1_555
O4 Zn6 1_555 1_555
O12 Zn6 1_555 1_555
S1 C8 1_555 1_555
O5 C5 1_555 1_555
C5 C8 1_555 1_555
C14 O5 1_555 1_555
H5 C14 1_555 1_555
O9 C18 1_555 1_555
O10 C17 1_555 1_555
C17 C19 1_555 1_555
C18 C5 1_555 1_555
C19 S1 1_555 1_555
C20 C14 1_555 1_555
H6 C20 1_555 1_555
Zn4 O10 1_555 1_555
O9 C20 1_555 1_555
C18 C19 1_555 1_555
O2 C6 1_555 1_555
O7 C6 1_555 1_555
C3 C6 1_555 1_555
C7 N2 1_555 1_555
C9 C3 1_555 1_555
H2 C9 1_555 1_555
C10 N2 1_555 1_555
H3 C10 1_555 1_555
C11 C3 1_555 1_555
H4 C11 1_555 1_555
Zn5 O7 1_555 1_555
Zn9 O8 1_555 1_555
Zn10 O2 1_555 1_555
C7 C11 1_555 1_555
C9 C10 1_555 1_555
O10_2 C17_2 1_555 1_555
Zn4_2 O10_2 1_555 1_555
Zn9_2 O8_2 1_555 1_555
O2_2 C6_2 1_555 1_555
O7_2 C6_2 1_555 1_555
C3_2 C6_2 1_555 1_555
C7_2 N2_2 1_555 1_555
C9_2 C3_2 1_555 1_555
H2_2 C9_2 1_555 1_555
C10_2 N2_2 1_555 1_555
H3_2 C10_2 1_555 1_555
C11_2 C3_2 1_555 1_555
H4_2 C11_2 1_555 1_555
Zn5_2 O7_2 1_555 1_555
Zn10_2 O2_2 1_555 1_555
C7_2 C11_2 1_555 1_555
C9_2 C10_2 1_555 1_555
N1_2 Zn4 1_555 1_555
C1_2 O3_2 1_555 1_555
O3_2 Zn6_2 1_555 1_555
C2_2 C1_2 1_555 1_555
O6_2 Zn4 1_555 1_555
C12_2 C2_2 1_555 1_555
C13_2 N1_2 1_555 1_555
C15_2 C2_2 1_555 1_555
C16_2 N1_2 1_555 1_555
O11_2 C1_2 1_555 1_555
Zn3_2 N3_2 1_555 1_555
N3_2 C23_2 1_555 1_555
O13_2 Zn4 1_555 1_555
C21_2 C22_2 1_555 1_555
C23_2 H7_2 1_555 1_555
C24_2 C21_2 1_555 1_555
H8_2 C24_2 1_555 1_555
C25_2 N3_2 1_555 1_555
H9_2 C25_2 1_555 1_555
C26_2 C21_2 1_555 1_555
Zn9 O11_2 1_555 1_555
O14_2 Zn3_2 1_555 1_555
O15_2 Zn3_2 1_555 1_555
O17_2 Zn3_2 1_555 1_555
O18_2 Zn3_2 1_555 1_555
O20_2 Zn4 1_555 1_555
O6_2 C4_2 1_555 1_555
C12_2 C13_2 1_555 1_555
C15_2 C16_2 1_555 1_555
O13_2 C22_2 1_555 1_555
C23_2 C26_2 1_555 1_555
C24_2 C25_2 1_555 1_555
C12_2 H11_2 1_555 1_555
C16_2 H12_2 1_555 1_555
C15_2 H13_2 1_555 1_555
C13_2 H14_2 1_555 1_555
Zn6_2 O1_2 1_555 1_555
O1_2 Zn9 1_555 1_555
O4_2 Zn6_2 1_555 1_555
O12_2 Zn6_2 1_555 1_555
S1_2 C8_2 1_555 1_555
N1_3 Zn4_2 1_555 1_555
C1_3 O3_3 1_555 1_555
O3_3 Zn6_3 1_555 1_555
C2_3 C1_3 1_555 1_555
O5_2 C5_2 1_555 1_555
O6_3 Zn4_2 1_555 1_555
C5_2 C8_2 1_555 1_555
C8_2 C4_3 1_555 1_555
C12_3 C2_3 1_555 1_555
C13_3 N1_3 1_555 1_555
C14_2 O5_2 1_555 1_555
C15_3 C2_3 1_555 1_555
C16_3 N1_3 1_555 1_555
H5_2 C14_2 1_555 1_555
O9_2 C18_2 1_555 1_555
C18_2 C5_2 1_555 1_555
C19_2 S1_2 1_555 1_555
C20_2 C14_2 1_555 1_555
H6_2 C20_2 1_555 1_555
O11_3 C1_3 1_555 1_555
Zn3_3 N3_3 1_555 1_555
N3_3 C23_3 1_555 1_555
O13_3 Zn4_2 1_555 1_555
C21_3 C22_3 1_555 1_555
C23_3 H7_3 1_555 1_555
C24_3 C21_3 1_555 1_555
H8_3 C24_3 1_555 1_555
C25_3 N3_3 1_555 1_555
H9_3 C25_3 1_555 1_555
C26_3 C21_3 1_555 1_555
Zn9_2 O11_3 1_555 1_555
O14_3 Zn3_3 1_555 1_555
O15_3 Zn3_3 1_555 1_555
O17_3 Zn3_3 1_555 1_555
O18_3 Zn3_3 1_555 1_555
O20_3 Zn4_2 1_555 1_555
O6_3 C4_3 1_555 1_555
C12_3 C13_3 1_555 1_555
C15_3 C16_3 1_555 1_555
O9_2 C20_2 1_555 1_555
C18_2 C19_2 1_555 1_555
O13_3 C22_3 1_555 1_555
C23_3 C26_3 1_555 1_555
C24_3 C25_3 1_555 1_555
C12_3 H11_3 1_555 1_555
C16_3 H12_3 1_555 1_555
C15_3 H13_3 1_555 1_555
C13_3 H14_3 1_555 1_555
Zn6_3 O1_3 1_555 1_555
O1_3 Zn9_2 1_555 1_555
N2_3 Zn6_3 1_555 1_555
O2_3 C6_3 1_555 1_555
O4_3 Zn6_3 1_555 1_555
O7_3 C6_3 1_555 1_555
C3_3 C6_3 1_555 1_555
C7_3 N2_3 1_555 1_555
H1_3 C7_3 1_555 1_555
C9_3 C3_3 1_555 1_555
H2_3 C9_3 1_555 1_555
C10_3 N2_3 1_555 1_555
H3_3 C10_3 1_555 1_555
C11_3 C3_3 1_555 1_555
H4_3 C11_3 1_555 1_555
O12_3 Zn6_3 1_555 1_555
Zn5_3 O7_3 1_555 1_555
Zn10_3 O2_3 1_555 1_555
C7_3 C11_3 1_555 1_555
C9_3 C10_3 1_555 1_555
O19 C17_3 1_555 1_555
Zn8 O8_3 1_555 1_555
O2_4 C6_4 1_555 1_555
O7_4 C6_4 1_555 1_555
C3_4 C6_4 1_555 1_555
C7_4 N2_4 1_555 1_555
C9_4 C3_4 1_555 1_555
H2_4 C9_4 1_555 1_555
C10_4 N2_4 1_555 1_555
H3_4 C10_4 1_555 1_555
C11_4 C3_4 1_555 1_555
H4_4 C11_4 1_555 1_555
Zn5_3 O7_4 1_555 1_555
Zn10_4 O2_4 1_555 1_555
C7_4 C11_4 1_555 1_555
C9_4 C10_4 1_555 1_555
Zn3_4 N3_4 1_555 1_555
N3_4 C23_4 1_555 1_555
C21_4 C22_4 1_555 1_555
C23_4 H7_4 1_555 1_555
C24_4 C21_4 1_555 1_555
H8_4 C24_4 1_555 1_555
C25_4 N3_4 1_555 1_555
H9_4 C25_4 1_555 1_555
C26_4 C21_4 1_555 1_555
O14_2 Zn3_4 1_555 1_555
O15_4 Zn3_4 1_555 1_555
O17_4 Zn3_4 1_555 1_555
O18_4 Zn3_4 1_555 1_555
O20 C22_4 1_555 1_555
C23_4 C26_4 1_555 1_555
C24_4 C25_4 1_555 1_555
O12_4 Zn8 1_555 1_555
Zn3_5 N3_5 1_555 1_555
N3_5 C23_5 1_555 1_555
C21_5 C22_5 1_555 1_555
C23_5 H7_5 1_555 1_555
C24_5 C21_5 1_555 1_555
H8_5 C24_5 1_555 1_555
C25_5 N3_5 1_555 1_555
H9_5 C25_5 1_555 1_555
C26_5 C21_5 1_555 1_555
O14 Zn3_5 1_555 1_555
O15_5 Zn3_5 1_555 1_555
O17_5 Zn3_5 1_555 1_555
O18_5 Zn3_5 1_555 1_555
O20_3 C22_5 1_555 1_555
C23_5 C26_5 1_555 1_555
C24_5 C25_5 1_555 1_555
O12_5 Zn9_2 1_555 1_555
O2_5 C6_5 1_555 1_555
O7_5 C6_5 1_555 1_555
C3_5 C6_5 1_555 1_555
C7_5 N2_5 1_555 1_555
C9_5 C3_5 1_555 1_555
H2_5 C9_5 1_555 1_555
C10_5 N2_5 1_555 1_555
H3_5 C10_5 1_555 1_555
C11_5 C3_5 1_555 1_555
H4_5 C11_5 1_555 1_555
Zn5_2 O7_5 1_555 1_555
Zn10_5 O2_5 1_555 1_555
C7_5 C11_5 1_555 1_555
C9_5 C10_5 1_555 1_555
Zn3_6 N3_6 1_555 1_555
N3_6 C23_6 1_555 1_555
C21_6 C22_6 1_555 1_555
C23_6 H7_6 1_555 1_555
C24_6 C21_6 1_555 1_555
H8_6 C24_6 1_555 1_555
C25_6 N3_6 1_555 1_555
H9_6 C25_6 1_555 1_555
C26_6 C21_6 1_555 1_555
O14_3 Zn3_6 1_555 1_555
O15_6 Zn3_6 1_555 1_555
O17_6 Zn3_6 1_555 1_555
O18_6 Zn3_6 1_555 1_555
O20_2 C22_6 1_555 1_555
C23_6 C26_6 1_555 1_555
C24_6 C25_6 1_555 1_555
N2_6 Zn9 1_555 1_555
O2_6 C6_6 1_555 1_555
O7_6 C6_6 1_555 1_555
C3_6 C6_6 1_555 1_555
C7_6 N2_6 1_555 1_555
H1_6 C7_6 1_555 1_555
C9_6 C3_6 1_555 1_555
H2_6 C9_6 1_555 1_555
C10_6 N2_6 1_555 1_555
H3_6 C10_6 1_555 1_555
C11_6 C3_6 1_555 1_555
H4_6 C11_6 1_555 1_555
O12_6 Zn9 1_555 1_555
Zn5 O7_6 1_555 1_555
Zn10_6 O2_6 1_555 1_555
C7_6 C11_6 1_555 1_555
C9_6 C10_6 1_555 1_555
C1_4 O17_3 1_555 1_555
O17_6 C1_4 1_555 1_555
Zn1_2 O14_3 1_555 1_555
S1_3 C8_3 1_555 1_555
N1_4 Zn1_2 1_555 1_555
O5_3 C5_3 1_555 1_555
O6_4 Zn1_2 1_555 1_555
C4_4 O18_3 1_555 1_555
C5_3 C8_3 1_555 1_555
C8_3 C4_4 1_555 1_555
C12_4 C2_4 1_555 1_555
C13_4 N1_4 1_555 1_555
C14_3 O5_3 1_555 1_555
C15_4 C2_4 1_555 1_555
C16_4 N1_4 1_555 1_555
H5_3 C14_3 1_555 1_555
O18_5 C17_4 1_555 1_555
O9_3 C18_3 1_555 1_555
O10_3 C17_4 1_555 1_555
C17_4 C19_3 1_555 1_555
C18_3 C5_3 1_555 1_555
C19_3 S1_3 1_555 1_555
C20_3 C14_3 1_555 1_555
H6_3 C20_3 1_555 1_555
Zn10_3 N3_7 1_555 1_555
N3_7 C23_7 1_555 1_555
O13_4 Zn1_2 1_555 1_555
C21_7 C22_7 1_555 1_555
C22_7 O15_3 1_555 1_555
C23_7 H7_7 1_555 1_555
C24_7 C21_7 1_555 1_555
H8_7 C24_7 1_555 1_555
C25_7 N3_7 1_555 1_555
H9_7 C25_7 1_555 1_555
C26_7 C21_7 1_555 1_555
H10_7 C26_7 1_555 1_555
Zn4_3 O10_3 1_555 1_555
O14_4 Zn10_3 1_555 1_555
O17_7 Zn10_3 1_555 1_555
O18_7 Zn10_3 1_555 1_555
O19_2 Zn1_2 1_555 1_555
O20_4 Zn1_2 1_555 1_555
O6_4 C4_4 1_555 1_555
C12_4 C13_4 1_555 1_555
C15_4 C16_4 1_555 1_555
O9_3 C20_3 1_555 1_555
C18_3 C19_3 1_555 1_555
O13_4 C22_7 1_555 1_555
C23_7 C26_7 1_555 1_555
C24_7 C25_7 1_555 1_555
C12_4 H11_4 1_555 1_555
C16_4 H12_4 1_555 1_555
C15_4 H13_4 1_555 1_555
C13_4 H14_4 1_555 1_555
C1_5 O17 1_555 1_555
O17_5 C1_5 1_555 1_555
Zn4_3 O14 1_555 1_555
S1_4 C8_4 1_555 1_555
N1_5 Zn4_3 1_555 1_555
O5_4 C5_4 1_555 1_555
O6_5 Zn4_3 1_555 1_555
C4_5 O18 1_555 1_555
C5_4 C8_4 1_555 1_555
C8_4 C4_5 1_555 1_555
C12_5 C2_5 1_555 1_555
C13_5 N1_5 1_555 1_555
C14_4 O5_4 1_555 1_555
C15_5 C2_5 1_555 1_555
C16_5 N1_5 1_555 1_555
H5_4 C14_4 1_555 1_555
O18_4 C17_5 1_555 1_555
O9_4 C18_4 1_555 1_555
O10_4 C17_5 1_555 1_555
C17_5 C19_4 1_555 1_555
C18_4 C5_4 1_555 1_555
C19_4 S1_4 1_555 1_555
C20_4 C14_4 1_555 1_555
H6_4 C20_4 1_555 1_555
O13_5 Zn4_3 1_555 1_555
C22_8 O15 1_555 1_555
Zn4_4 O10_4 1_555 1_555
O20_5 Zn4_3 1_555 1_555
O6_5 C4_5 1_555 1_555
C12_5 C13_5 1_555 1_555
C15_5 C16_5 1_555 1_555
O9_4 C20_4 1_555 1_555
C18_4 C19_4 1_555 1_555
O13_5 C22_8 1_555 1_555
C12_5 H11_5 1_555 1_555
C16_5 H12_5 1_555 1_555
C15_5 H13_5 1_555 1_555
C13_5 H14_5 1_555 1_555
Zn10 N3_8 1_555 1_555
N3_8 C23_8 1_555 1_555
C23_8 H7_8 1_555 1_555
C24_8 C21_8 1_555 1_555
H8_8 C24_8 1_555 1_555
C25_8 N3_8 1_555 1_555
H9_8 C25_8 1_555 1_555
C26_8 C21_8 1_555 1_555
H10_8 C26_8 1_555 1_555
O14_5 Zn10 1_555 1_555
O17_8 Zn10 1_555 1_555
O18_8 Zn10 1_555 1_555
C23_8 C26_8 1_555 1_555
C24_8 C25_8 1_555 1_555
Zn10_2 N3_9 1_555 1_555
N3_9 C23_9 1_555 1_555
C23_9 H7_9 1_555 1_555
C24_9 C21_9 1_555 1_555
H8_9 C24_9 1_555 1_555
C25_9 N3_9 1_555 1_555
H9_9 C25_9 1_555 1_555
C26_9 C21_9 1_555 1_555
H10_9 C26_9 1_555 1_555
O14_6 Zn10_2 1_555 1_555
O17_9 Zn10_2 1_555 1_555
O18_9 Zn10_2 1_555 1_555
C23_9 C26_9 1_555 1_555
C24_9 C25_9 1_555 1_555
C1_6 O17_2 1_555 1_555
O17_4 C1_6 1_555 1_555
Zn4_4 O14_2 1_555 1_555
S1_5 C8_5 1_555 1_555
N1_6 Zn4_4 1_555 1_555
O5_5 C5_5 1_555 1_555
O6_6 Zn4_4 1_555 1_555
C4_6 O18_2 1_555 1_555
C5_5 C8_5 1_555 1_555
C8_5 C4_6 1_555 1_555
C12_6 C2_6 1_555 1_555
C13_6 N1_6 1_555 1_555
C14_5 O5_5 1_555 1_555
C15_6 C2_6 1_555 1_555
C16_6 N1_6 1_555 1_555
H5_5 C14_5 1_555 1_555
O18_6 C17_6 1_555 1_555
O9_5 C18_5 1_555 1_555
O19_2 C17_6 1_555 1_555
C17_6 C19_5 1_555 1_555
C18_5 C5_5 1_555 1_555
C19_5 S1_5 1_555 1_555
C20_5 C14_5 1_555 1_555
H6_5 C20_5 1_555 1_555
O13_6 Zn4_4 1_555 1_555
C22_9 O15_2 1_555 1_555
O20_6 Zn4_4 1_555 1_555
O6_6 C4_6 1_555 1_555
C12_6 C13_6 1_555 1_555
C15_6 C16_6 1_555 1_555
O9_5 C20_5 1_555 1_555
C18_5 C19_5 1_555 1_555
O13_6 C22_9 1_555 1_555
C12_6 H11_6 1_555 1_555
C16_6 H12_6 1_555 1_555
C15_6 H13_6 1_555 1_555
C13_6 H14_6 1_555 1_555
Zn10_6 N3_10 1_555 1_555
N3_10 C23_10 1_555 1_555
C21_10 C22_10 1_555 1_555
C22_10 O15_6 1_555 1_555
C23_10 H7_10 1_555 1_555
C24_10 C21_10 1_555 1_555
H8_10 C24_10 1_555 1_555
C25_10 N3_10 1_555 1_555
H9_10 C25_10 1_555 1_555
C26_10 C21_10 1_555 1_555
H10_10 C26_10 1_555 1_555
O14_5 Zn10_6 1_555 1_555
O17_10 Zn10_6 1_555 1_555
O18_10 Zn10_6 1_555 1_555
O20_4 C22_10 1_555 1_555
C23_10 C26_10 1_555 1_555
C24_10 C25_10 1_555 1_555
Zn10_4 N3_11 1_555 1_555
N3_11 C23_11 1_555 1_555
C23_11 H7_11 1_555 1_555
C24_11 C21_11 1_555 1_555
H8_11 C24_11 1_555 1_555
C25_11 N3_11 1_555 1_555
H9_11 C25_11 1_555 1_555
C26_11 C21_11 1_555 1_555
H10_11 C26_11 1_555 1_555
O14_4 Zn10_4 1_555 1_555
O17_11 Zn10_4 1_555 1_555
O18_11 Zn10_4 1_555 1_555
C23_11 C26_11 1_555 1_555
C24_11 C25_11 1_555 1_555
C22_11 O15_4 1_555 1_555
O20_6 C22_11 1_555 1_555
C22_12 O15_5 1_555 1_555
O20_5 C22_12 1_555 1_555
Zn10_5 N3_12 1_555 1_555
N3_12 C23_12 1_555 1_555
C23_12 H7_12 1_555 1_555
C24_12 C21_12 1_555 1_555
H8_12 C24_12 1_555 1_555
C25_12 N3_12 1_555 1_555
H9_12 C25_12 1_555 1_555
C26_12 C21_12 1_555 1_555
H10_12 C26_12 1_555 1_555
O14_6 Zn10_5 1_555 1_555
O17_12 Zn10_5 1_555 1_555
O18_12 Zn10_5 1_555 1_555
C23_12 C26_12 1_555 1_555
C24_12 C25_12 1_555 1_555
C1_7 O17_9 1_555 1_555
C2_7 C1_7 1_555 1_555
C12_7 C2_7 1_555 1_555
C13_7 N1_7 1_555 1_555
C15_7 C2_7 1_555 1_555
C16_7 N1_7 1_555 1_555
H5_6 C14_6 1_555 1_555
C20_6 C14_6 1_555 1_555
H6_6 C20_6 1_555 1_555
O17_12 C1_7 1_555 1_555
C12_7 C13_7 1_555 1_555
C15_7 C16_7 1_555 1_555
C12_7 H11_7 1_555 1_555
C16_7 H12_7 1_555 1_555
C15_7 H13_7 1_555 1_555
C13_7 H14_7 1_555 1_555
Zn5_2 O14_6 1_555 1_555
S1_6 C8_6 1_555 1_555
O5_6 C5_6 1_555 1_555
O6_7 Zn5_2 1_555 1_555
C4_7 O18_9 1_555 1_555
C5_6 C8_6 1_555 1_555
C8_6 C4_7 1_555 1_555
O18_11 C17_7 1_555 1_555
O9_6 C18_6 1_555 1_555
O10_5 C17_7 1_555 1_555
C17_7 C19_6 1_555 1_555
C18_6 C5_6 1_555 1_555
C19_6 S1_6 1_555 1_555
Zn5_3 O10_5 1_555 1_555
O19_3 Zn5_2 1_555 1_555
O6_7 C4_7 1_555 1_555
C18_6 C19_6 1_555 1_555
C1_8 O17_7 1_555 1_555
C2_8 C1_8 1_555 1_555
C12_8 C2_8 1_555 1_555
C13_8 N1_8 1_555 1_555
C15_8 C2_8 1_555 1_555
C16_8 N1_8 1_555 1_555
H5_7 C14_7 1_555 1_555
C20_7 C14_7 1_555 1_555
H6_7 C20_7 1_555 1_555
O17_11 C1_8 1_555 1_555
C12_8 C13_8 1_555 1_555
C15_8 C16_8 1_555 1_555
C12_8 H11_8 1_555 1_555
C16_8 H12_8 1_555 1_555
C15_8 H13_8 1_555 1_555
C13_8 H14_8 1_555 1_555
Zn5_3 O14_4 1_555 1_555
S1_7 C8_7 1_555 1_555
O5_7 C5_7 1_555 1_555
O6_8 Zn5_3 1_555 1_555
C4_8 O18_7 1_555 1_555
C5_7 C8_7 1_555 1_555
C8_7 C4_8 1_555 1_555
O18_10 C17_8 1_555 1_555
O9_7 C18_7 1_555 1_555
O10_6 C17_8 1_555 1_555
C17_8 C19_7 1_555 1_555
C18_7 C5_7 1_555 1_555
C19_7 S1_7 1_555 1_555
Zn5 O10_6 1_555 1_555
O6_8 C4_8 1_555 1_555
C18_7 C19_7 1_555 1_555
C1_9 O17_8 1_555 1_555
C2_9 C1_9 1_555 1_555
C12_9 C2_9 1_555 1_555
C13_9 N1_9 1_555 1_555
C15_9 C2_9 1_555 1_555
C16_9 N1_9 1_555 1_555
H5_8 C14_8 1_555 1_555
C20_8 C14_8 1_555 1_555
H6_8 C20_8 1_555 1_555
O17_10 C1_9 1_555 1_555
C12_9 C13_9 1_555 1_555
C15_9 C16_9 1_555 1_555
C12_9 H11_9 1_555 1_555
C16_9 H12_9 1_555 1_555
C15_9 H13_9 1_555 1_555
C13_9 H14_9 1_555 1_555
Zn5 O14_5 1_555 1_555
S1_8 C8_8 1_555 1_555
O5_8 C5_8 1_555 1_555
O6_9 Zn5 1_555 1_555
C4_9 O18_8 1_555 1_555
C5_8 C8_8 1_555 1_555
C8_8 C4_9 1_555 1_555
O18_12 C17_9 1_555 1_555
O9_8 C18_8 1_555 1_555
O19_3 C17_9 1_555 1_555
C17_9 C19_8 1_555 1_555
C18_8 C5_8 1_555 1_555
C19_8 S1_8 1_555 1_555
O6_9 C4_9 1_555 1_555
C18_8 C19_8 1_555 1_555
S1_9 C8_9 1_555 1_555
O5_9 C5_9 1_555 1_555
C5_9 C8_9 1_555 1_555
C14_9 O5_9 1_555 1_555
H5_9 C14_9 1_555 1_555
O9_9 C18_9 1_555 1_555
C18_9 C5_9 1_555 1_555
C19_9 S1_9 1_555 1_555
C20_9 C14_9 1_555 1_555
H6_9 C20_9 1_555 1_555
O9_9 C20_9 1_555 1_555
C18_9 C19_9 1_555 1_555

#END
