
###############################################################################
#
# This file contains modified crystal structure data generated from the
# MOF subset of the Cambridge Structural Database (CSD) v543 
# hosted by the Cambridge Crystallographic Data Centre (CCDC).
#
# This work is licensed under the Creative Commons
# Attribution-NonCommercial-ShareAlike 4.0 International License.
# To view a copy of this license, visit
# http://creativecommons.org/licenses/by-nc-sa/4.0/
# or send a letter to
# Creative Commons, PO Box 1866, Mountain View, CA 94042, USA.
#
# CIF created using the CSD Python API on 29 September 2022
# The structure has been converted into the P1 space group
# The structure has a 3D framework
# The original CSD entry FAHHEF is in the rhombohedral crystal system
# The framework has been calculated to contain at least 10.0% void space
# The void calculation uses a probe of radius 1.32A, grid spacing 0.4
#
###############################################################################

data_FAHHEF
_chemical_formula_moiety         '(C216 H126 Fe27 N27 O96 S9)n'
_symmetry_cell_setting           triclinic
_symmetry_space_group_name_H-M   'P 1'
_symmetry_Int_Tables_number      1
_space_group_name_Hall           'P 1'
loop_
_symmetry_equiv_pos_site_id
_symmetry_equiv_pos_as_xyz
1 x,y,z
_cell_length_a                   32.535(5)
_cell_length_b                   32.535(5)
_cell_length_c                   11.641(2)
_cell_angle_alpha                90
_cell_angle_beta                 90
_cell_angle_gamma                120
_cell_volume                     10671.4
loop_
_atom_site_label
_atom_site_type_symbol
_atom_site_fract_x
_atom_site_fract_y
_atom_site_fract_z
Fe2 Fe 0.109474(19) 0.497968(18) 0.08288(4)
O1 O 0.10976(14) 0.55488(7) 0.0115(3)
N1 N 0.1066(2) 0.55330(23) 0.6543(5)
O2 O 0.1070(2) 0.51936(16) 0.2410(3)
C1 C 0.1068(3) 0.55340(14) 0.2867(6)
O3 O 0.16910(14) 0.51417(18) 0.0047(4)
O4 O 0.04737(15) 0.45424(15) 0.0139(4)
C2 C 0.1068(3) 0.55339(15) 0.4155(6)
C8 C 0.1095(7) 0.5205(8) 0.5940(6)
H3 H 0.1147 0.4983 0.6318
C13 C 0.1049(7) 0.5184(4) 0.4758(7)
H7 H 0.1004 0.4913 0.4377
O7 O 0.1070(2) 0.58764(26) 0.2410(3)
C14 C 0.1049(7) 0.5865(8) 0.4758(7)
H8 H 0.1004 0.6091 0.4377
C15 C 0.1095(7) 0.5890(11) 0.5940(6)
H9 H 0.1147 0.6164 0.6318
O8 O 0.34507(23) 0.51417(18) 0.0047(4)
Fe3 Fe 0.109474(19) 0.611506(26) 0.08288(4)
O10 O 0.04737(15) 0.59313(21) 0.0139(4)
Fe4 Fe 0.10865(2) 0.554324(12) 0.83586(6)
Fe6 Fe 0.388494(26) 0.497968(18) 0.08288(4)
N5 N 0.10825(30) 0.43615(17) 0.1513(4)
N6 N 0.10825(30) 0.67209(25) 0.1513(4)
O12 O 0.16910(14) 0.65493(23) 0.0047(4)
O5 O 0.0564(2) 0.48360(17) 0.8397(4)
O6 O 0.1612(2) 0.5369(3) 0.8288(4)
C3 C 0.0335(2) 0.45421(19) 0.9132(5)
C5 C 0.1821(2) 0.5274(2) 0.9043(5)
S1 S 0.25933(4) 0.51866(8) 0.96712(18)
C9 C 0.2281(2) 0.5315(3) 0.8686(6)
C12 C 0.2514(3) 0.5473(4) 0.7695(7)
H6 H 0.2403 0.5572 0.7078
O9 O 0.3757(4) 0.5369(3) 0.8288(4)
C16 C 0.3453(3) 0.5274(2) 0.9043(5)
C17 C 0.3034(4) 0.5315(3) 0.8686(6)
C18 C 0.2959(5) 0.5473(4) 0.7695(7)
H10 H 0.3169 0.5572 0.7078
O11 O 0.0564(2) 0.57280(26) 0.8397(4)
C19 C 0.0335(2) 0.57929(28) 0.9132(5)
Fe5 Fe 0.445676(12) 0.554326(23) 0.83586(6)
O13 O 0.1612(2) 0.6243(4) 0.8288(4)
N2 N 0.89718(17) 0.33876(25) 0.8180(4)
C4 C 0.9846(2) 0.41410(18) 0.8820(5)
C6 C 0.9625(4) 0.4168(3) 0.7906(8)
H1 H 0.9764 0.4446 0.7477
C7 C 0.9173(3) 0.3384(5) 0.9137(8)
H2 H 0.9019 0.3118 0.9609
C10 C 0.9611(3) 0.3759(3) 0.9493(7)
C11 C 0.9188(4) 0.3790(7) 0.7560(9)
H5 H 0.9046 0.3817 0.6894
N3 N 0.89718(17) 0.55842(30) 0.8180(4)
C20 C 0.9846(2) 0.57050(27) 0.8820(5)
C21 C 0.9625(4) 0.5457(5) 0.7906(8)
H11 H 0.9764 0.5318 0.7477
C22 C 0.9173(3) 0.5789(6) 0.9137(8)
H12 H 0.9019 0.5901 0.9609
C23 C 0.9611(3) 0.5852(4) 0.9493(7)
C24 C 0.9188(4) 0.5398(8) 0.7560(9)
H14 H 0.9046 0.5229 0.6894
Fe7 Fe 0.835365(18) 0.278173(26) 0.74955(4)
Fe8 Fe 0.835365(18) 0.557193(19) 0.74955(4)
Fe2_2 Fe 0.502032(18) 0.611506(26) 0.08288(4)
O1_2 O 0.44512(7) 0.55488(16) 0.0115(3)
N1_2 N 0.44670(23) 0.55330(30) 0.6543(5)
O2_2 O 0.48064(16) 0.58764(26) 0.2410(3)
C1_2 C 0.44660(14) 0.55340(33) 0.2867(6)
O3_2 O 0.48583(18) 0.65493(23) 0.0047(4)
O4_2 O 0.54576(15) 0.59313(21) 0.0139(4)
C2_2 C 0.44661(15) 0.55341(34) 0.4155(6)
C8_2 C 0.4795(8) 0.5890(11) 0.5940(6)
H3_2 H 0.5017 0.6164 0.6318
H4 H 0.6257 0.5996 0.0195
C13_2 C 0.4816(4) 0.5865(8) 0.4758(7)
H7_2 H 0.5087 0.6091 0.4377
O7_2 O 0.41236(26) 0.51936(33) 0.2410(3)
C14_2 C 0.4135(8) 0.5184(11) 0.4758(7)
H8_2 H 0.3909 0.4913 0.4377
C15_2 C 0.4110(11) 0.5205(13) 0.5940(6)
H9_2 H 0.3836 0.4983 0.6318
O8_2 O 0.48583(18) 0.83090(29) 0.0047(4)
O10_2 O 0.40687(21) 0.45424(26) 0.0139(4)
H13 H 0.4004 0.3743 0.0195
Fe6_2 Fe 0.502032(18) 0.890526(32) 0.08288(4)
N5_2 N 0.56385(17) 0.67209(34) 0.1513(4)
N6_2 N 0.32791(25) 0.43615(39) 0.1513(4)
N2_2 N 0.66124(25) 0.55842(30) 0.8180(4)
O5_2 O 0.51640(17) 0.57280(26) 0.8397(4)
O6_2 O 0.4631(3) 0.6243(4) 0.8288(4)
C3_2 C 0.54579(19) 0.57929(28) 0.9132(5)
C4_2 C 0.58590(18) 0.57050(27) 0.8820(5)
C5_2 C 0.4726(2) 0.6547(3) 0.9043(5)
C6_2 C 0.5832(3) 0.5457(5) 0.7906(8)
H1_2 H 0.5554 0.5318 0.7477
C7_2 C 0.6616(5) 0.5789(6) 0.9137(8)
H2_2 H 0.6882 0.5901 0.9609
S1_2 S 0.48134(8) 0.74067(9) 0.96712(18)
C9_2 C 0.4685(3) 0.6966(4) 0.8686(6)
C10_2 C 0.6241(3) 0.5852(4) 0.9493(7)
C11_2 C 0.6210(7) 0.5398(8) 0.7560(9)
H5_2 H 0.6183 0.5229 0.6894
C12_2 C 0.4527(4) 0.7041(5) 0.7695(7)
H6_2 H 0.4428 0.6831 0.7078
O9_2 O 0.4631(3) 0.8388(5) 0.8288(4)
C16_2 C 0.4726(2) 0.8179(4) 0.9043(5)
C17_2 C 0.4685(3) 0.7719(5) 0.8686(6)
C18_2 C 0.4527(4) 0.7486(6) 0.7695(7)
H10_2 H 0.4428 0.7597 0.7078
N3_2 N 0.44158(30) 0.33876(34) 0.8180(4)
O11_2 O 0.42720(26) 0.48360(33) 0.8397(4)
C19_2 C 0.42071(28) 0.45421(34) 0.9132(5)
C20_2 C 0.42950(27) 0.41410(34) 0.8820(5)
C21_2 C 0.4543(5) 0.4168(6) 0.7906(8)
H11_2 H 0.4682 0.4446 0.7477
C22_2 C 0.4211(6) 0.3384(7) 0.9137(8)
H12_2 H 0.4099 0.3118 0.9609
C23_2 C 0.4148(4) 0.3759(5) 0.9493(7)
C24_2 C 0.4602(8) 0.3790(9) 0.7560(9)
H14_2 H 0.4771 0.3817 0.6894
Fe5_2 Fe 0.445674(23) 0.891350(26) 0.83586(6)
Fe7_2 Fe 0.721827(26) 0.557193(32) 0.74955(4)
Fe8_2 Fe 0.442807(19) 0.278173(26) 0.74955(4)
N2_3 N 0.44158(30) 0.10282(17) 0.8180(4)
C4_3 C 0.42950(27) 0.0154(2) 0.8820(5)
C6_3 C 0.4543(5) 0.0375(4) 0.7906(8)
H1_3 H 0.4682 0.0236 0.7477
C7_3 C 0.4211(6) 0.0827(3) 0.9137(8)
H2_3 H 0.4099 0.0981 0.9609
C10_3 C 0.4148(4) 0.0389(3) 0.9493(7)
C11_3 C 0.4602(8) 0.0812(4) 0.7560(9)
H5_3 H 0.4771 0.0954 0.6894
N3_3 N 0.66124(34) 0.10282(17) 0.8180(4)
C20_3 C 0.58590(34) 0.0154(2) 0.8820(5)
C21_3 C 0.5832(6) 0.0375(4) 0.7906(8)
H11_3 H 0.5554 0.0236 0.7477
C22_3 C 0.6616(7) 0.0827(3) 0.9137(8)
H12_3 H 0.6882 0.0981 0.9609
C23_3 C 0.6241(5) 0.0389(3) 0.9493(7)
C24_3 C 0.6210(9) 0.0812(4) 0.7560(9)
H14_3 H 0.6183 0.0954 0.6894
Fe7_3 Fe 0.442807(32) 0.164635(18) 0.74955(4)
Fe8_3 Fe 0.721827(26) 0.164635(18) 0.74955(4)
Fe2_3 Fe 0.388494(26) 0.890526(19) 0.08288(4)
O1_3 O 0.44512(16) 0.89024(14) 0.0115(3)
N1_3 N 0.44670(30) 0.8934(2) 0.6543(5)
O2_3 O 0.41236(26) 0.8930(2) 0.2410(3)
C1_3 C 0.44660(33) 0.8932(3) 0.2867(6)
O3_3 O 0.34507(23) 0.83090(14) 0.0047(4)
O4_3 O 0.40687(21) 0.95263(15) 0.0139(4)
C2_3 C 0.44659(34) 0.8932(3) 0.4155(6)
C8_3 C 0.4110(11) 0.8905(7) 0.5940(6)
H3_3 H 0.3836 0.8853 0.6318
C13_3 C 0.4135(8) 0.8951(7) 0.4758(7)
H7_3 H 0.3909 0.8996 0.4377
O7_3 O 0.48064(33) 0.8930(2) 0.2410(3)
C14_3 C 0.4816(11) 0.8951(7) 0.4758(7)
H8_3 H 0.5087 0.8996 0.4377
C15_3 C 0.4795(13) 0.8905(7) 0.5940(6)
H9_3 H 0.5017 0.8853 0.6318
O10_3 O 0.54576(26) 0.95263(15) 0.0139(4)
N5_3 N 0.32791(34) 0.89175(30) 0.1513(4)
N6_3 N 0.56385(39) 0.89175(30) 0.1513(4)
O5_3 O 0.42720(26) 0.9436(2) 0.8397(4)
O6_3 O 0.3757(4) 0.8388(2) 0.8288(4)
C3_3 C 0.42071(28) 0.9665(2) 0.9132(5)
C5_3 C 0.3453(3) 0.8179(2) 0.9043(5)
S1_3 S 0.25933(9) 0.74067(4) 0.96712(18)
C9_3 C 0.3034(4) 0.7719(2) 0.8686(6)
C12_3 C 0.2959(5) 0.7486(3) 0.7695(7)
H6_3 H 0.3169 0.7597 0.7078
C16_3 C 0.1821(4) 0.6547(3) 0.9043(5)
C17_3 C 0.2281(5) 0.6966(4) 0.8686(6)
C18_3 C 0.2514(6) 0.7041(5) 0.7695(7)
H10_3 H 0.2403 0.6831 0.7078
O11_3 O 0.51640(33) 0.9436(2) 0.8397(4)
C19_3 C 0.54579(34) 0.9665(2) 0.9132(5)
O8_3 O 0.01174(23) 0.84750(18) 0.3380(4)
O9_3 O 0.0424(4) 0.8702(3) 0.1621(4)
C16_4 C 0.0120(3) 0.8607(2) 0.2376(5)
Fe5_3 Fe 0.112343(12) 0.887659(23) 0.16919(6)
Fe6_3 Fe 0.055161(26) 0.831301(18) 0.41621(4)
N6_4 N 0.77491(30) 0.00543(25) 0.4847(4)
Fe4_2 Fe 0.77532(2) 0.887657(12) 0.16919(6)
Fe2_4 Fe 0.776141(19) 0.831301(18) 0.41621(4)
O1_4 O 0.77643(14) 0.88821(7) 0.3448(3)
N1_4 N 0.7733(2) 0.88663(23) 0.9876(5)
O2_4 O 0.7737(2) 0.85269(16) 0.5743(3)
C1_4 C 0.7735(3) 0.88673(14) 0.6200(6)
O3_4 O 0.83577(14) 0.84750(18) 0.3380(4)
O4_4 O 0.71404(15) 0.78757(15) 0.3472(4)
C2_4 C 0.7735(3) 0.88672(15) 0.7488(6)
O5_4 O 0.7231(2) 0.81693(17) 0.1730(4)
O6_4 O 0.8279(2) 0.8702(3) 0.1621(4)
C3_4 C 0.7002(2) 0.78754(19) 0.2465(5)
C4_4 C 0.6513(2) 0.74743(18) 0.2153(5)
C5_4 C 0.8488(2) 0.8607(2) 0.2376(5)
C6_4 C 0.6292(4) 0.7501(3) 0.1239(8)
H1_4 H 0.6431 0.7779 0.0810
C7_4 C 0.5840(3) 0.6717(5) 0.2470(8)
H2_4 H 0.5686 0.6451 0.2942
C8_4 C 0.7762(7) 0.8538(8) 0.9273(6)
H3_4 H 0.7814 0.8316 0.9651
S1_4 S 0.92600(4) 0.85199(8) 0.30045(18)
C9_4 C 0.8948(2) 0.8648(3) 0.2019(6)
C10_4 C 0.6278(3) 0.7092(3) 0.2826(7)
H4_2 H 0.6406 0.7076 0.3528
C11_4 C 0.5855(4) 0.7123(7) 0.0893(9)
H5_4 H 0.5713 0.7150 0.0227
C12_4 C 0.9181(3) 0.8806(4) 0.1028(7)
H6_4 H 0.9070 0.8905 0.0411
C13_4 C 0.7716(7) 0.8517(4) 0.8091(7)
H7_4 H 0.7671 0.8246 0.7710
O7_4 O 0.7737(2) 0.92097(26) 0.5743(3)
C14_4 C 0.7716(7) 0.9198(8) 0.8091(7)
H8_4 H 0.7671 0.9424 0.7710
C15_4 C 0.7762(7) 0.9223(11) 0.9273(6)
H9_4 H 0.7814 0.9497 0.9651
C17_4 C 0.9701(4) 0.8648(3) 0.2019(6)
C18_4 C 0.9626(5) 0.8806(4) 0.1028(7)
H10_4 H 0.9836 0.8905 0.0411
Fe3_2 Fe 0.776141(19) 0.944839(26) 0.41621(4)
O10_4 O 0.71404(15) 0.92646(21) 0.3472(4)
O11_4 O 0.7231(2) 0.90613(26) 0.1730(4)
C19_4 C 0.7002(2) 0.91262(28) 0.2465(5)
C20_4 C 0.6513(2) 0.90383(27) 0.2153(5)
C21_4 C 0.6292(4) 0.8790(5) 0.1239(8)
H11_4 H 0.6431 0.8651 0.0810
C22_4 C 0.5840(3) 0.9122(6) 0.2470(8)
H12_4 H 0.5686 0.9234 0.2942
C23_4 C 0.6278(3) 0.9185(4) 0.2826(7)
H13_2 H 0.6406 0.9329 0.3528
C24_4 C 0.5855(4) 0.8731(8) 0.0893(9)
H14_4 H 0.5713 0.8562 0.0227
N5_4 N 0.77491(30) 0.76949(17) 0.4847(4)
O12_2 O 0.83577(14) 0.98826(23) 0.3380(4)
O13_2 O 0.8279(2) 0.9576(4) 0.1621(4)
S1_5 S 0.14801(8) 0.07400(9) 0.30045(18)
C9_5 C 0.1352(3) 0.0299(4) 0.2019(6)
C12_5 C 0.1194(4) 0.0374(5) 0.1028(7)
H6_5 H 0.1095 0.0164 0.0411
O8_4 O 0.15250(18) 0.16423(29) 0.3380(4)
O9_4 O 0.1298(3) 0.1721(5) 0.1621(4)
C16_5 C 0.1393(2) 0.1512(4) 0.2376(5)
C17_5 C 0.1352(3) 0.1052(5) 0.2019(6)
C18_5 C 0.1194(4) 0.0819(6) 0.1028(7)
H10_5 H 0.1095 0.0930 0.0411
Fe5_4 Fe 0.112341(23) 0.224683(26) 0.16919(6)
Fe6_4 Fe 0.168699(18) 0.223859(32) 0.41621(4)
N5_5 N 0.23051(17) 0.00543(34) 0.4847(4)
Fe2_5 Fe 0.168699(18) 0.944839(26) 0.41621(4)
O1_5 O 0.11179(7) 0.88821(16) 0.3448(3)
N1_5 N 0.11337(23) 0.88663(30) 0.9876(5)
O2_5 O 0.14731(16) 0.92097(26) 0.5743(3)
C1_5 C 0.11327(14) 0.88673(33) 0.6200(6)
O3_5 O 0.15250(18) 0.98826(23) 0.3380(4)
O4_5 O 0.21243(15) 0.92646(21) 0.3472(4)
C2_5 C 0.11328(15) 0.88674(34) 0.7488(6)
O5_5 O 0.18307(17) 0.90613(26) 0.1730(4)
O6_5 O 0.1298(3) 0.9576(4) 0.1621(4)
C3_5 C 0.21246(19) 0.91262(28) 0.2465(5)
C4_5 C 0.25257(18) 0.90383(27) 0.2153(5)
C5_5 C 0.1393(2) 0.9880(3) 0.2376(5)
C6_5 C 0.2499(3) 0.8790(5) 0.1239(8)
H1_5 H 0.2221 0.8651 0.0810
C7_5 C 0.3283(5) 0.9122(6) 0.2470(8)
H2_5 H 0.3549 0.9234 0.2942
C8_5 C 0.1462(8) 0.9223(11) 0.9273(6)
H3_5 H 0.1684 0.9497 0.9651
C10_5 C 0.2908(3) 0.9185(4) 0.2826(7)
H4_3 H 0.2924 0.9329 0.3528
C11_5 C 0.2877(7) 0.8731(8) 0.0893(9)
H5_5 H 0.2850 0.8562 0.0227
C13_5 C 0.1483(4) 0.9198(8) 0.8091(7)
H7_5 H 0.1754 0.9424 0.7710
O7_5 O 0.07903(26) 0.85269(33) 0.5743(3)
C14_5 C 0.0802(8) 0.8517(11) 0.8091(7)
H8_5 H 0.0576 0.8246 0.7710
C15_5 C 0.0777(11) 0.8538(13) 0.9273(6)
H9_5 H 0.0503 0.8316 0.9651
O10_5 O 0.07354(21) 0.78757(26) 0.3472(4)
O11_5 O 0.09387(26) 0.81693(33) 0.1730(4)
C19_5 C 0.08738(28) 0.78754(34) 0.2465(5)
C20_5 C 0.09617(27) 0.74743(34) 0.2153(5)
C21_5 C 0.1210(5) 0.7501(6) 0.1239(8)
H11_5 H 0.1349 0.7779 0.0810
C22_5 C 0.0878(6) 0.6717(7) 0.2470(8)
H12_5 H 0.0766 0.6451 0.2942
C23_5 C 0.0815(4) 0.7092(5) 0.2826(7)
H13_3 H 0.0671 0.7076 0.3528
C24_5 C 0.1269(8) 0.7123(9) 0.0893(9)
H14_5 H 0.1438 0.7150 0.0227
N6_5 N 0.99457(25) 0.76949(39) 0.4847(4)
Fe2_6 Fe 0.055161(26) 0.223859(19) 0.41621(4)
O1_6 O 0.11179(16) 0.22357(14) 0.3448(3)
N1_6 N 0.11337(30) 0.2267(2) 0.9876(5)
O2_6 O 0.07903(26) 0.2263(2) 0.5743(3)
C1_6 C 0.11327(33) 0.2265(3) 0.6200(6)
O3_6 O 0.01174(23) 0.16423(14) 0.3380(4)
O4_6 O 0.07354(21) 0.28596(15) 0.3472(4)
C2_6 C 0.11326(34) 0.2265(3) 0.7488(6)
O5_6 O 0.09387(26) 0.2769(2) 0.1730(4)
O6_6 O 0.0424(4) 0.1721(2) 0.1621(4)
C3_6 C 0.08738(28) 0.2998(2) 0.2465(5)
C4_6 C 0.09617(27) 0.3487(2) 0.2153(5)
C5_6 C 0.0120(3) 0.1512(2) 0.2376(5)
C6_6 C 0.1210(5) 0.3708(4) 0.1239(8)
H1_6 H 0.1349 0.3569 0.0810
C7_6 C 0.0878(6) 0.4160(3) 0.2470(8)
H2_6 H 0.0766 0.4314 0.2942
C8_6 C 0.0777(11) 0.2238(7) 0.9273(6)
H3_6 H 0.0503 0.2186 0.9651
C10_6 C 0.0815(4) 0.3722(3) 0.2826(7)
H4_4 H 0.0671 0.3594 0.3528
C11_6 C 0.1269(8) 0.4145(4) 0.0893(9)
H5_6 H 0.1438 0.4287 0.0227
C13_6 C 0.0802(8) 0.2284(7) 0.8091(7)
H7_6 H 0.0576 0.2329 0.7710
O7_6 O 0.14731(33) 0.2263(2) 0.5743(3)
C14_6 C 0.1483(11) 0.2284(7) 0.8091(7)
H8_6 H 0.1754 0.2329 0.7710
C15_6 C 0.1462(13) 0.2238(7) 0.9273(6)
H9_6 H 0.1684 0.2186 0.9651
O10_6 O 0.21243(26) 0.28596(15) 0.3472(4)
O11_6 O 0.18307(33) 0.2769(2) 0.1730(4)
C19_6 C 0.21246(34) 0.2998(2) 0.2465(5)
C20_6 C 0.25257(34) 0.3487(2) 0.2153(5)
C21_6 C 0.2499(6) 0.3708(4) 0.1239(8)
H11_6 H 0.2221 0.3569 0.0810
C22_6 C 0.3283(7) 0.4160(3) 0.2470(8)
H12_6 H 0.3549 0.4314 0.2942
C23_6 C 0.2908(5) 0.3722(3) 0.2826(7)
H13_4 H 0.2924 0.3594 0.3528
C24_6 C 0.2877(9) 0.4145(4) 0.0893(9)
H14_6 H 0.2850 0.4287 0.0227
N6_6 N 0.23051(39) 0.22509(30) 0.4847(4)
S1_6 S 0.92600(9) 0.07400(4) 0.30045(18)
C9_6 C 0.9701(4) 0.1052(2) 0.2019(6)
C12_6 C 0.9626(5) 0.0819(3) 0.1028(7)
H6_6 H 0.9836 0.0930 0.0411
C17_6 C 0.8948(5) 0.0299(4) 0.2019(6)
C18_6 C 0.9181(6) 0.0374(5) 0.1028(7)
H10_6 H 0.9070 0.0164 0.0411
N5_6 N 0.99457(34) 0.22509(30) 0.4847(4)
C16_6 C 0.8488(4) 0.9880(3) 0.2376(5)
N1_7 N 0.4399(2) 0.21997(23) 0.3210(5)
C2_7 C 0.4401(3) 0.22006(15) 0.0822(6)
C8_7 C 0.4428(7) 0.1872(8) 0.2607(6)
H3_7 H 0.4480 0.1650 0.2985
C13_7 C 0.4382(7) 0.1851(4) 0.1425(7)
H7_7 H 0.4337 0.1580 0.1044
C14_7 C 0.4382(7) 0.2532(8) 0.1425(7)
H8_7 H 0.4337 0.2758 0.1044
C15_7 C 0.4428(7) 0.2557(11) 0.2607(6)
H9_7 H 0.4480 0.2831 0.2985
Fe4_3 Fe 0.44198(2) 0.220991(12) 0.50253(6)
O1_7 O 0.44309(14) 0.22155(7) 0.6782(3)
O2_7 O 0.4403(2) 0.18603(16) 0.9077(3)
C1_7 C 0.4401(3) 0.22007(14) 0.9534(6)
O3_7 O 0.50243(14) 0.18084(18) 0.6714(4)
O4_7 O 0.38070(15) 0.12091(15) 0.6806(4)
O5_7 O 0.3897(2) 0.15027(17) 0.5064(4)
O6_7 O 0.4945(2) 0.2036(3) 0.4955(4)
C3_7 C 0.3668(2) 0.12088(19) 0.5799(5)
C4_7 C 0.3179(2) 0.08077(18) 0.5487(5)
C5_7 C 0.5154(2) 0.1941(2) 0.5710(5)
C6_7 C 0.2958(4) 0.0835(3) 0.4573(8)
H1_7 H 0.3097 0.1113 0.4144
C7_7 C 0.2506(3) 0.0051(5) 0.5804(8)
S1_7 S 0.59266(4) 0.18533(8) 0.63379(18)
C9_7 C 0.5614(2) 0.1982(3) 0.5353(6)
C10_7 C 0.2944(3) 0.0426(3) 0.6160(7)
H4_5 H 0.3072 0.0410 0.6862
C11_7 C 0.2521(4) 0.0457(7) 0.4227(9)
H5_7 H 0.2379 0.0484 0.3561
C12_7 C 0.5847(3) 0.2140(4) 0.4362(7)
H6_7 H 0.5736 0.2239 0.3745
O7_7 O 0.4403(2) 0.25431(26) 0.9077(3)
O8_5 O 0.67840(23) 0.18084(18) 0.6714(4)
O9_5 O 0.7090(4) 0.2036(3) 0.4955(4)
C16_7 C 0.6786(3) 0.1941(2) 0.5710(5)
C17_7 C 0.6367(4) 0.1982(3) 0.5353(6)
C18_7 C 0.6292(5) 0.2140(4) 0.4362(7)
H10_7 H 0.6502 0.2239 0.3745
O10_7 O 0.38070(15) 0.25980(21) 0.6806(4)
O11_7 O 0.3897(2) 0.23947(26) 0.5064(4)
C19_7 C 0.3668(2) 0.24596(28) 0.5799(5)
C20_7 C 0.3179(2) 0.23717(27) 0.5487(5)
C21_7 C 0.2958(4) 0.2124(5) 0.4573(8)
H11_7 H 0.3097 0.1985 0.4144
C22_7 C 0.2506(3) 0.2456(6) 0.5804(8)
H12_7 H 0.2352 0.2568 0.6276
C23_7 C 0.2944(3) 0.2519(4) 0.6160(7)
H13_5 H 0.3072 0.2663 0.6862
C24_7 C 0.2521(4) 0.2065(8) 0.4227(9)
H14_7 H 0.2379 0.1896 0.3561
Fe5_5 Fe 0.779009(12) 0.220993(23) 0.50253(6)
O12_3 O 0.50243(14) 0.32160(23) 0.6714(4)
O13_3 O 0.4945(2) 0.2910(4) 0.4955(4)
H2_7 H 0.2352 0.9785 0.6276
H2_8 H 0.0215 0.2568 0.6276
N1_8 N 0.78003(23) 0.21997(30) 0.3210(5)
C2_8 C 0.77994(15) 0.22008(34) 0.0822(6)
C8_8 C 0.8128(8) 0.2557(11) 0.2607(6)
H3_8 H 0.8350 0.2831 0.2985
C13_8 C 0.8149(4) 0.2532(8) 0.1425(7)
H7_8 H 0.8420 0.2758 0.1044
C14_8 C 0.7468(8) 0.1851(11) 0.1425(7)
H8_8 H 0.7242 0.1580 0.1044
C15_8 C 0.7443(11) 0.1872(13) 0.2607(6)
H9_8 H 0.7169 0.1650 0.2985
O1_8 O 0.77845(7) 0.22155(16) 0.6782(3)
O2_8 O 0.81397(16) 0.25431(26) 0.9077(3)
C1_8 C 0.77993(14) 0.22007(33) 0.9534(6)
O3_8 O 0.81916(18) 0.32160(23) 0.6714(4)
O4_8 O 0.87909(15) 0.25980(21) 0.6806(4)
O5_8 O 0.84973(17) 0.23947(26) 0.5064(4)
O6_8 O 0.7964(3) 0.2910(4) 0.4955(4)
C3_8 C 0.87912(19) 0.24596(28) 0.5799(5)
C4_8 C 0.91923(18) 0.23717(27) 0.5487(5)
C5_8 C 0.8059(2) 0.3214(3) 0.5710(5)
C6_8 C 0.9165(3) 0.2124(5) 0.4573(8)
H1_8 H 0.8887 0.1985 0.4144
C7_8 C 0.9949(5) 0.2456(6) 0.5804(8)
S1_8 S 0.81467(8) 0.40734(9) 0.63379(18)
C9_8 C 0.8018(3) 0.3633(4) 0.5353(6)
C10_8 C 0.9574(3) 0.2519(4) 0.6160(7)
H4_6 H 0.9590 0.2663 0.6862
C11_8 C 0.9543(7) 0.2065(8) 0.4227(9)
H5_8 H 0.9516 0.1896 0.3561
C12_8 C 0.7860(4) 0.3708(5) 0.4362(7)
H6_8 H 0.7761 0.3498 0.3745
O7_8 O 0.74569(26) 0.18603(33) 0.9077(3)
O8_6 O 0.81916(18) 0.49757(29) 0.6714(4)
O9_6 O 0.7964(3) 0.5055(5) 0.4955(4)
C16_8 C 0.8059(2) 0.4846(4) 0.5710(5)
C17_8 C 0.8018(3) 0.4386(5) 0.5353(6)
C18_8 C 0.7860(4) 0.4153(6) 0.4362(7)
H10_8 H 0.7761 0.4264 0.3745
O10_8 O 0.74020(21) 0.12091(26) 0.6806(4)
O11_8 O 0.76053(26) 0.15027(33) 0.5064(4)
C19_8 C 0.75404(28) 0.12088(34) 0.5799(5)
C20_8 C 0.76283(27) 0.08077(34) 0.5487(5)
C21_8 C 0.7876(5) 0.0835(6) 0.4573(8)
H11_8 H 0.8015 0.1113 0.4144
C22_8 C 0.7544(6) 0.0051(7) 0.5804(8)
C23_8 C 0.7481(4) 0.0426(5) 0.6160(7)
H13_6 H 0.7337 0.0410 0.6862
C24_8 C 0.7935(8) 0.0457(9) 0.4227(9)
H14_8 H 0.8104 0.0484 0.3561
Fe5_6 Fe 0.779007(23) 0.558017(26) 0.50253(6)
H12_8 H 0.7432 0.9785 0.6276
H12_9 H 0.0215 0.7648 0.6276
N1_9 N 0.78003(30) 0.5601(2) 0.3210(5)
C2_9 C 0.77992(34) 0.5599(3) 0.0822(6)
C8_9 C 0.7443(11) 0.5572(7) 0.2607(6)
H3_9 H 0.7169 0.5520 0.2985
C13_9 C 0.7468(8) 0.5618(7) 0.1425(7)
H7_9 H 0.7242 0.5663 0.1044
C14_9 C 0.8149(11) 0.5618(7) 0.1425(7)
H8_9 H 0.8420 0.5663 0.1044
C15_9 C 0.8128(13) 0.5572(7) 0.2607(6)
H9_9 H 0.8350 0.5520 0.2985
O1_9 O 0.77845(16) 0.55691(14) 0.6782(3)
O2_9 O 0.74569(26) 0.5597(2) 0.9077(3)
C1_9 C 0.77993(33) 0.5599(3) 0.9534(6)
O3_9 O 0.67840(23) 0.49757(14) 0.6714(4)
O4_9 O 0.74020(21) 0.61930(15) 0.6806(4)
O5_9 O 0.76053(26) 0.6103(2) 0.5064(4)
O6_9 O 0.7090(4) 0.5055(2) 0.4955(4)
C3_9 C 0.75404(28) 0.6332(2) 0.5799(5)
C4_9 C 0.76283(27) 0.6821(2) 0.5487(5)
C5_9 C 0.6786(3) 0.4846(2) 0.5710(5)
C6_9 C 0.7876(5) 0.7042(4) 0.4573(8)
H1_9 H 0.8015 0.6903 0.4144
C7_9 C 0.7544(6) 0.7494(3) 0.5804(8)
H2_9 H 0.7432 0.7648 0.6276
S1_9 S 0.59266(9) 0.40734(4) 0.63379(18)
C9_9 C 0.6367(4) 0.4386(2) 0.5353(6)
C10_9 C 0.7481(4) 0.7056(3) 0.6160(7)
H4_7 H 0.7337 0.6928 0.6862
C11_9 C 0.7935(8) 0.7479(4) 0.4227(9)
H5_9 H 0.8104 0.7621 0.3561
C12_9 C 0.6292(5) 0.4153(3) 0.4362(7)
H6_9 H 0.6502 0.4264 0.3745
O7_9 O 0.81397(33) 0.5597(2) 0.9077(3)
C16_9 C 0.5154(4) 0.3214(3) 0.5710(5)
C17_9 C 0.5614(5) 0.3633(4) 0.5353(6)
C18_9 C 0.5847(6) 0.3708(5) 0.4362(7)
H10_9 H 0.5736 0.3498 0.3745
O10_9 O 0.87909(26) 0.61930(15) 0.6806(4)
O11_9 O 0.84973(33) 0.6103(2) 0.5064(4)
C19_9 C 0.87912(34) 0.6332(2) 0.5799(5)
C20_9 C 0.91923(34) 0.6821(2) 0.5487(5)
C21_9 C 0.9165(6) 0.7042(4) 0.4573(8)
H11_9 H 0.8887 0.6903 0.4144
C22_9 C 0.9949(7) 0.7494(3) 0.5804(8)
C23_9 C 0.9574(5) 0.7056(3) 0.6160(7)
H13_7 H 0.9590 0.6928 0.6862
C24_9 C 0.9543(9) 0.7479(4) 0.4227(9)
H14_9 H 0.9516 0.7621 0.3561
H4_8 H 0.9739 0.3743 0.0195
H13_8 H 0.9739 0.5996 0.0195
H4_9 H 0.4004 0.0261 0.0195
H13_9 H 0.6257 0.0261 0.0195
loop_
_geom_bond_atom_site_label_1
_geom_bond_atom_site_label_2
_geom_bond_site_symmetry_1
_geom_bond_site_symmetry_2
Fe2 O1 1_555 1_555
O1 Fe3 1_555 1_555
N1 C8 1_555 1_555
O2 Fe2 1_555 1_555
C1 O2 1_555 1_555
O3 Fe2 1_555 1_555
O4 Fe2 1_555 1_555
C2 C1 1_555 1_555
C8 H3 1_555 1_555
C13 C2 1_555 1_555
H7 C13 1_555 1_555
O7 C1 1_555 1_555
C14 C2 1_555 1_555
H8 C14 1_555 1_555
C15 N1 1_555 1_555
H9 C15 1_555 1_555
Fe3 O7 1_555 1_555
O10 Fe3 1_555 1_555
Fe4 N1 1_555 1_555
Fe6 O8 1_555 1_555
N5 Fe2 1_555 1_555
N6 Fe3 1_555 1_555
O12 Fe3 1_555 1_555
C8 C13 1_555 1_555
C14 C15 1_555 1_555
O5 Fe4 1_555 1_555
O6 Fe4 1_555 1_555
S1 C9 1_555 1_555
C9 C5 1_555 1_555
C12 C9 1_555 1_555
H6 C12 1_555 1_555
O9 C16 1_555 1_555
C16 C17 1_555 1_555
C17 S1 1_555 1_555
C18 C12 1_555 1_555
H10 C18 1_555 1_555
O11 Fe4 1_555 1_555
Fe5 O9 1_555 1_555
O13 Fe4 1_555 1_555
O5 C3 1_555 1_555
O6 C5 1_555 1_555
C17 C18 1_555 1_555
O11 C19 1_555 1_555
N2 C7 1_555 1_555
C6 C4 1_555 1_555
H1 C6 1_555 1_555
C7 H2 1_555 1_555
C10 C4 1_555 1_555
C11 N2 1_555 1_555
H5 C11 1_555 1_555
N3 C22 1_555 1_555
C21 C20 1_555 1_555
H11 C21 1_555 1_555
C22 H12 1_555 1_555
C23 C20 1_555 1_555
C24 N3 1_555 1_555
H14 C24 1_555 1_555
Fe7 N2 1_555 1_555
Fe8 N3 1_555 1_555
C6 C11 1_555 1_555
C7 C10 1_555 1_555
C21 C24 1_555 1_555
C22 C23 1_555 1_555
Fe2_2 O1_2 1_555 1_555
O1_2 Fe6 1_555 1_555
N1_2 C8_2 1_555 1_555
O2_2 Fe2_2 1_555 1_555
C1_2 O2_2 1_555 1_555
O3_2 Fe2_2 1_555 1_555
O4_2 Fe2_2 1_555 1_555
C2_2 C1_2 1_555 1_555
C8_2 H3_2 1_555 1_555
C13_2 C2_2 1_555 1_555
H7_2 C13_2 1_555 1_555
O7_2 C1_2 1_555 1_555
C14_2 C2_2 1_555 1_555
H8_2 C14_2 1_555 1_555
C15_2 N1_2 1_555 1_555
H9_2 C15_2 1_555 1_555
Fe6 O7_2 1_555 1_555
O10_2 Fe6 1_555 1_555
Fe5 N1_2 1_555 1_555
Fe6_2 O8_2 1_555 1_555
N5_2 Fe2_2 1_555 1_555
N6_2 Fe6 1_555 1_555
C8_2 C13_2 1_555 1_555
C14_2 C15_2 1_555 1_555
N2_2 C7_2 1_555 1_555
O5_2 Fe5 1_555 1_555
O6_2 Fe5 1_555 1_555
C4_2 C3_2 1_555 1_555
C6_2 C4_2 1_555 1_555
H1_2 C6_2 1_555 1_555
C7_2 H2_2 1_555 1_555
S1_2 C9_2 1_555 1_555
C9_2 C5_2 1_555 1_555
C10_2 C4_2 1_555 1_555
C11_2 N2_2 1_555 1_555
H5_2 C11_2 1_555 1_555
C12_2 C9_2 1_555 1_555
H6_2 C12_2 1_555 1_555
O9_2 C16_2 1_555 1_555
C16_2 C17_2 1_555 1_555
C17_2 S1_2 1_555 1_555
C18_2 C12_2 1_555 1_555
H10_2 C18_2 1_555 1_555
N3_2 C22_2 1_555 1_555
O11_2 Fe5 1_555 1_555
C20_2 C19_2 1_555 1_555
C21_2 C20_2 1_555 1_555
H11_2 C21_2 1_555 1_555
C22_2 H12_2 1_555 1_555
C23_2 C20_2 1_555 1_555
C24_2 N3_2 1_555 1_555
H14_2 C24_2 1_555 1_555
Fe5_2 O9_2 1_555 1_555
Fe7_2 N2_2 1_555 1_555
Fe8_2 N3_2 1_555 1_555
O5_2 C3_2 1_555 1_555
O6_2 C5_2 1_555 1_555
C6_2 C11_2 1_555 1_555
C7_2 C10_2 1_555 1_555
C17_2 C18_2 1_555 1_555
O11_2 C19_2 1_555 1_555
C21_2 C24_2 1_555 1_555
C22_2 C23_2 1_555 1_555
N2_3 C7_3 1_555 1_555
C6_3 C4_3 1_555 1_555
H1_3 C6_3 1_555 1_555
C7_3 H2_3 1_555 1_555
C10_3 C4_3 1_555 1_555
C11_3 N2_3 1_555 1_555
H5_3 C11_3 1_555 1_555
N3_3 C22_3 1_555 1_555
C21_3 C20_3 1_555 1_555
H11_3 C21_3 1_555 1_555
C22_3 H12_3 1_555 1_555
C23_3 C20_3 1_555 1_555
C24_3 N3_3 1_555 1_555
H14_3 C24_3 1_555 1_555
Fe7_3 N2_3 1_555 1_555
Fe8_3 N3_3 1_555 1_555
C6_3 C11_3 1_555 1_555
C7_3 C10_3 1_555 1_555
C21_3 C24_3 1_555 1_555
C22_3 C23_3 1_555 1_555
Fe2_3 O1_3 1_555 1_555
O1_3 Fe6_2 1_555 1_555
N1_3 C8_3 1_555 1_555
O2_3 Fe2_3 1_555 1_555
C1_3 O2_3 1_555 1_555
O3_3 Fe2_3 1_555 1_555
O4_3 Fe2_3 1_555 1_555
C2_3 C1_3 1_555 1_555
C8_3 H3_3 1_555 1_555
C13_3 C2_3 1_555 1_555
H7_3 C13_3 1_555 1_555
O7_3 C1_3 1_555 1_555
C14_3 C2_3 1_555 1_555
H8_3 C14_3 1_555 1_555
C15_3 N1_3 1_555 1_555
H9_3 C15_3 1_555 1_555
Fe6_2 O7_3 1_555 1_555
O10_3 Fe6_2 1_555 1_555
Fe5_2 N1_3 1_555 1_555
N5_3 Fe2_3 1_555 1_555
N6_3 Fe6_2 1_555 1_555
C8_3 C13_3 1_555 1_555
C14_3 C15_3 1_555 1_555
O5_3 Fe5_2 1_555 1_555
O6_3 Fe5_2 1_555 1_555
S1_3 C9_3 1_555 1_555
C9_3 C5_3 1_555 1_555
C12_3 C9_3 1_555 1_555
H6_3 C12_3 1_555 1_555
O13 C16_3 1_555 1_555
C16_3 C17_3 1_555 1_555
C17_3 S1_3 1_555 1_555
C18_3 C12_3 1_555 1_555
H10_3 C18_3 1_555 1_555
O11_3 Fe5_2 1_555 1_555
O5_3 C3_3 1_555 1_555
O6_3 C5_3 1_555 1_555
C17_3 C18_3 1_555 1_555
O11_3 C19_3 1_555 1_555
O8_3 C16_4 1_555 1_555
O9_3 C16_4 1_555 1_555
Fe5_3 O9_3 1_555 1_555
Fe6_3 O8_3 1_555 1_555
Fe4_2 O1_4 1_555 1_555
Fe2_4 O1_4 1_555 1_555
O1_4 Fe3_2 1_555 1_555
N1_4 C8_4 1_555 1_555
N5_2 C7_4 1_555 1_555
O2_4 Fe2_4 1_555 1_555
C1_4 O2_4 1_555 1_555
O3_4 Fe2_4 1_555 1_555
O4_4 Fe2_4 1_555 1_555
C2_4 C1_4 1_555 1_555
O5_4 Fe4_2 1_555 1_555
O6_4 Fe4_2 1_555 1_555
C3_4 O4_4 1_555 1_555
C4_4 C3_4 1_555 1_555
C5_4 O3_4 1_555 1_555
C6_4 C4_4 1_555 1_555
H1_4 C6_4 1_555 1_555
C7_4 H2_4 1_555 1_555
C8_4 H3_4 1_555 1_555
S1_4 C9_4 1_555 1_555
C9_4 C5_4 1_555 1_555
C10_4 C4_4 1_555 1_555
H4_2 C10_4 1_555 1_555
C11_4 N5_2 1_555 1_555
H5_4 C11_4 1_555 1_555
C12_4 C9_4 1_555 1_555
H6_4 C12_4 1_555 1_555
C13_4 C2_4 1_555 1_555
H7_4 C13_4 1_555 1_555
O7_4 C1_4 1_555 1_555
C14_4 C2_4 1_555 1_555
H8_4 C14_4 1_555 1_555
C15_4 N1_4 1_555 1_555
H9_4 C15_4 1_555 1_555
C17_4 S1_4 1_555 1_555
C18_4 C12_4 1_555 1_555
H10_4 C18_4 1_555 1_555
Fe3_2 O7_4 1_555 1_555
N6_3 C22_4 1_555 1_555
O10_4 Fe3_2 1_555 1_555
O11_4 Fe4_2 1_555 1_555
C19_4 O10_4 1_555 1_555
C20_4 C19_4 1_555 1_555
C21_4 C20_4 1_555 1_555
H11_4 C21_4 1_555 1_555
C22_4 H12_4 1_555 1_555
C23_4 C20_4 1_555 1_555
H13_2 C23_4 1_555 1_555
C24_4 N6_3 1_555 1_555
H14_4 C24_4 1_555 1_555
N5_4 Fe2_4 1_555 1_555
O12_2 Fe3_2 1_555 1_555
O13_2 Fe4_2 1_555 1_555
O5_4 C3_4 1_555 1_555
O6_4 C5_4 1_555 1_555
C6_4 C11_4 1_555 1_555
C7_4 C10_4 1_555 1_555
C8_4 C13_4 1_555 1_555
C14_4 C15_4 1_555 1_555
C17_4 C18_4 1_555 1_555
O11_4 C19_4 1_555 1_555
C21_4 C24_4 1_555 1_555
C22_4 C23_4 1_555 1_555
S1_5 C9_5 1_555 1_555
C12_5 C9_5 1_555 1_555
H6_5 C12_5 1_555 1_555
O8_4 C16_5 1_555 1_555
O9_4 C16_5 1_555 1_555
C16_5 C17_5 1_555 1_555
C17_5 S1_5 1_555 1_555
C18_5 C12_5 1_555 1_555
H10_5 C18_5 1_555 1_555
Fe5_4 O9_4 1_555 1_555
Fe6_4 O8_4 1_555 1_555
C17_5 C18_5 1_555 1_555
Fe5_3 O1_5 1_555 1_555
Fe2_5 O1_5 1_555 1_555
O1_5 Fe6_3 1_555 1_555
N1_5 C8_5 1_555 1_555
N5_3 C7_5 1_555 1_555
O2_5 Fe2_5 1_555 1_555
C1_5 O2_5 1_555 1_555
O3_5 Fe2_5 1_555 1_555
O4_5 Fe2_5 1_555 1_555
C2_5 C1_5 1_555 1_555
O5_5 Fe5_3 1_555 1_555
O6_5 Fe5_3 1_555 1_555
C3_5 O4_5 1_555 1_555
C4_5 C3_5 1_555 1_555
C5_5 O3_5 1_555 1_555
C6_5 C4_5 1_555 1_555
H1_5 C6_5 1_555 1_555
C7_5 H2_5 1_555 1_555
C8_5 H3_5 1_555 1_555
C10_5 C4_5 1_555 1_555
H4_3 C10_5 1_555 1_555
C11_5 N5_3 1_555 1_555
H5_5 C11_5 1_555 1_555
C13_5 C2_5 1_555 1_555
H7_5 C13_5 1_555 1_555
O7_5 C1_5 1_555 1_555
C14_5 C2_5 1_555 1_555
H8_5 C14_5 1_555 1_555
C15_5 N1_5 1_555 1_555
H9_5 C15_5 1_555 1_555
Fe6_3 O7_5 1_555 1_555
N6 C22_5 1_555 1_555
O10_5 Fe6_3 1_555 1_555
O11_5 Fe5_3 1_555 1_555
C19_5 O10_5 1_555 1_555
C20_5 C19_5 1_555 1_555
C21_5 C20_5 1_555 1_555
H11_5 C21_5 1_555 1_555
C22_5 H12_5 1_555 1_555
C23_5 C20_5 1_555 1_555
H13_3 C23_5 1_555 1_555
C24_5 N6 1_555 1_555
H14_5 C24_5 1_555 1_555
O5_5 C3_5 1_555 1_555
O6_5 C5_5 1_555 1_555
C6_5 C11_5 1_555 1_555
C7_5 C10_5 1_555 1_555
C8_5 C13_5 1_555 1_555
C14_5 C15_5 1_555 1_555
O11_5 C19_5 1_555 1_555
C21_5 C24_5 1_555 1_555
C22_5 C23_5 1_555 1_555
Fe5_4 O1_6 1_555 1_555
Fe2_6 O1_6 1_555 1_555
O1_6 Fe6_4 1_555 1_555
N1_6 C8_6 1_555 1_555
N5 C7_6 1_555 1_555
O2_6 Fe2_6 1_555 1_555
C1_6 O2_6 1_555 1_555
O3_6 Fe2_6 1_555 1_555
O4_6 Fe2_6 1_555 1_555
C2_6 C1_6 1_555 1_555
O5_6 Fe5_4 1_555 1_555
O6_6 Fe5_4 1_555 1_555
C3_6 O4_6 1_555 1_555
C4_6 C3_6 1_555 1_555
C5_6 O3_6 1_555 1_555
C6_6 C4_6 1_555 1_555
H1_6 C6_6 1_555 1_555
C7_6 H2_6 1_555 1_555
C8_6 H3_6 1_555 1_555
C10_6 C4_6 1_555 1_555
H4_4 C10_6 1_555 1_555
C11_6 N5 1_555 1_555
H5_6 C11_6 1_555 1_555
C13_6 C2_6 1_555 1_555
H7_6 C13_6 1_555 1_555
O7_6 C1_6 1_555 1_555
C14_6 C2_6 1_555 1_555
H8_6 C14_6 1_555 1_555
C15_6 N1_6 1_555 1_555
H9_6 C15_6 1_555 1_555
Fe6_4 O7_6 1_555 1_555
N6_2 C22_6 1_555 1_555
O10_6 Fe6_4 1_555 1_555
O11_6 Fe5_4 1_555 1_555
C19_6 O10_6 1_555 1_555
C20_6 C19_6 1_555 1_555
C21_6 C20_6 1_555 1_555
H11_6 C21_6 1_555 1_555
C22_6 H12_6 1_555 1_555
C23_6 C20_6 1_555 1_555
H13_4 C23_6 1_555 1_555
C24_6 N6_2 1_555 1_555
H14_6 C24_6 1_555 1_555
N6_6 Fe6_4 1_555 1_555
O5_6 C3_6 1_555 1_555
O6_6 C5_6 1_555 1_555
C6_6 C11_6 1_555 1_555
C7_6 C10_6 1_555 1_555
C8_6 C13_6 1_555 1_555
C14_6 C15_6 1_555 1_555
O11_6 C19_6 1_555 1_555
C21_6 C24_6 1_555 1_555
C22_6 C23_6 1_555 1_555
S1_6 C9_6 1_555 1_555
C12_6 C9_6 1_555 1_555
H6_6 C12_6 1_555 1_555
C17_6 S1_6 1_555 1_555
C18_6 C12_6 1_555 1_555
H10_6 C18_6 1_555 1_555
C17_6 C18_6 1_555 1_555
O12_2 C16_6 1_555 1_555
O13_2 C16_6 1_555 1_555
N1_7 C8_7 1_555 1_555
C8_7 H3_7 1_555 1_555
C13_7 C2_7 1_555 1_555
H7_7 C13_7 1_555 1_555
C14_7 C2_7 1_555 1_555
H8_7 C14_7 1_555 1_555
C15_7 N1_7 1_555 1_555
H9_7 C15_7 1_555 1_555
Fe4_3 N1_7 1_555 1_555
C8_7 C13_7 1_555 1_555
C14_7 C15_7 1_555 1_555
Fe4_3 O1_7 1_555 1_555
Fe7_3 O1_7 1_555 1_555
O1_7 Fe8_2 1_555 1_555
N5_5 C7_7 1_555 1_555
O2_7 Fe7_3 1_555 1_555
C1_7 O2_7 1_555 1_555
O3_7 Fe7_3 1_555 1_555
O4_7 Fe7_3 1_555 1_555
O5_7 Fe4_3 1_555 1_555
O6_7 Fe4_3 1_555 1_555
C3_7 O4_7 1_555 1_555
C4_7 C3_7 1_555 1_555
C5_7 O3_7 1_555 1_555
C6_7 C4_7 1_555 1_555
H1_7 C6_7 1_555 1_555
S1_7 C9_7 1_555 1_555
C9_7 C5_7 1_555 1_555
C10_7 C4_7 1_555 1_555
H4_5 C10_7 1_555 1_555
C11_7 N5_5 1_555 1_555
H5_7 C11_7 1_555 1_555
C12_7 C9_7 1_555 1_555
H6_7 C12_7 1_555 1_555
O7_7 C1_7 1_555 1_555
O8_5 C16_7 1_555 1_555
O9_5 C16_7 1_555 1_555
C16_7 C17_7 1_555 1_555
C17_7 S1_7 1_555 1_555
C18_7 C12_7 1_555 1_555
H10_7 C18_7 1_555 1_555
Fe8_2 O7_7 1_555 1_555
N6_6 C22_7 1_555 1_555
O10_7 Fe8_2 1_555 1_555
O11_7 Fe4_3 1_555 1_555
C19_7 O10_7 1_555 1_555
C20_7 C19_7 1_555 1_555
C21_7 C20_7 1_555 1_555
H11_7 C21_7 1_555 1_555
C22_7 H12_7 1_555 1_555
C23_7 C20_7 1_555 1_555
H13_5 C23_7 1_555 1_555
C24_7 N6_6 1_555 1_555
H14_7 C24_7 1_555 1_555
Fe5_5 O9_5 1_555 1_555
Fe8_3 O8_5 1_555 1_555
O12_3 Fe8_2 1_555 1_555
O13_3 Fe4_3 1_555 1_555
O5_7 C3_7 1_555 1_555
O6_7 C5_7 1_555 1_555
C6_7 C11_7 1_555 1_555
C7_7 C10_7 1_555 1_555
C17_7 C18_7 1_555 1_555
O11_7 C19_7 1_555 1_555
C21_7 C24_7 1_555 1_555
C22_7 C23_7 1_555 1_555
N1_8 C8_8 1_555 1_555
C8_8 H3_8 1_555 1_555
C13_8 C2_8 1_555 1_555
H7_8 C13_8 1_555 1_555
C14_8 C2_8 1_555 1_555
H8_8 C14_8 1_555 1_555
C15_8 N1_8 1_555 1_555
H9_8 C15_8 1_555 1_555
Fe5_5 N1_8 1_555 1_555
C8_8 C13_8 1_555 1_555
C14_8 C15_8 1_555 1_555
Fe5_5 O1_8 1_555 1_555
Fe7 O1_8 1_555 1_555
O1_8 Fe8_3 1_555 1_555
N5_6 C7_8 1_555 1_555
O2_8 Fe7 1_555 1_555
C1_8 O2_8 1_555 1_555
O3_8 Fe7 1_555 1_555
O4_8 Fe7 1_555 1_555
O5_8 Fe5_5 1_555 1_555
O6_8 Fe5_5 1_555 1_555
C3_8 O4_8 1_555 1_555
C4_8 C3_8 1_555 1_555
C5_8 O3_8 1_555 1_555
C6_8 C4_8 1_555 1_555
H1_8 C6_8 1_555 1_555
S1_8 C9_8 1_555 1_555
C9_8 C5_8 1_555 1_555
C10_8 C4_8 1_555 1_555
H4_6 C10_8 1_555 1_555
C11_8 N5_6 1_555 1_555
H5_8 C11_8 1_555 1_555
C12_8 C9_8 1_555 1_555
H6_8 C12_8 1_555 1_555
O7_8 C1_8 1_555 1_555
O8_6 C16_8 1_555 1_555
O9_6 C16_8 1_555 1_555
C16_8 C17_8 1_555 1_555
C17_8 S1_8 1_555 1_555
C18_8 C12_8 1_555 1_555
H10_8 C18_8 1_555 1_555
Fe8_3 O7_8 1_555 1_555
N6_4 C22_8 1_555 1_555
O10_8 Fe8_3 1_555 1_555
O11_8 Fe5_5 1_555 1_555
C19_8 O10_8 1_555 1_555
C20_8 C19_8 1_555 1_555
C21_8 C20_8 1_555 1_555
H11_8 C21_8 1_555 1_555
C23_8 C20_8 1_555 1_555
H13_6 C23_8 1_555 1_555
C24_8 N6_4 1_555 1_555
H14_8 C24_8 1_555 1_555
Fe5_6 O9_6 1_555 1_555
Fe8 O8_6 1_555 1_555
O5_8 C3_8 1_555 1_555
O6_8 C5_8 1_555 1_555
C6_8 C11_8 1_555 1_555
C7_8 C10_8 1_555 1_555
C17_8 C18_8 1_555 1_555
O11_8 C19_8 1_555 1_555
C21_8 C24_8 1_555 1_555
C22_8 C23_8 1_555 1_555
N1_9 C8_9 1_555 1_555
C8_9 H3_9 1_555 1_555
C13_9 C2_9 1_555 1_555
H7_9 C13_9 1_555 1_555
C14_9 C2_9 1_555 1_555
H8_9 C14_9 1_555 1_555
C15_9 N1_9 1_555 1_555
H9_9 C15_9 1_555 1_555
Fe5_6 N1_9 1_555 1_555
C8_9 C13_9 1_555 1_555
C14_9 C15_9 1_555 1_555
Fe5_6 O1_9 1_555 1_555
Fe7_2 O1_9 1_555 1_555
O1_9 Fe8 1_555 1_555
N5_4 C7_9 1_555 1_555
O2_9 Fe7_2 1_555 1_555
C1_9 O2_9 1_555 1_555
O3_9 Fe7_2 1_555 1_555
O4_9 Fe7_2 1_555 1_555
O5_9 Fe5_6 1_555 1_555
O6_9 Fe5_6 1_555 1_555
C3_9 O4_9 1_555 1_555
C4_9 C3_9 1_555 1_555
C5_9 O3_9 1_555 1_555
C6_9 C4_9 1_555 1_555
H1_9 C6_9 1_555 1_555
C7_9 H2_9 1_555 1_555
S1_9 C9_9 1_555 1_555
C9_9 C5_9 1_555 1_555
C10_9 C4_9 1_555 1_555
H4_7 C10_9 1_555 1_555
C11_9 N5_4 1_555 1_555
H5_9 C11_9 1_555 1_555
C12_9 C9_9 1_555 1_555
H6_9 C12_9 1_555 1_555
O7_9 C1_9 1_555 1_555
O12_3 C16_9 1_555 1_555
O13_3 C16_9 1_555 1_555
C16_9 C17_9 1_555 1_555
C17_9 S1_9 1_555 1_555
C18_9 C12_9 1_555 1_555
H10_9 C18_9 1_555 1_555
Fe8 O7_9 1_555 1_555
N6_5 C22_9 1_555 1_555
O10_9 Fe8 1_555 1_555
O11_9 Fe5_6 1_555 1_555
C19_9 O10_9 1_555 1_555
C20_9 C19_9 1_555 1_555
C21_9 C20_9 1_555 1_555
H11_9 C21_9 1_555 1_555
C23_9 C20_9 1_555 1_555
H13_7 C23_9 1_555 1_555
C24_9 N6_5 1_555 1_555
H14_9 C24_9 1_555 1_555
O5_9 C3_9 1_555 1_555
O6_9 C5_9 1_555 1_555
C6_9 C11_9 1_555 1_555
C7_9 C10_9 1_555 1_555
C17_9 C18_9 1_555 1_555
O11_9 C19_9 1_555 1_555
C21_9 C24_9 1_555 1_555
C22_9 C23_9 1_555 1_555

#END
