
###############################################################################
#
# This file contains modified crystal structure data generated from the
# MOF subset of the Cambridge Structural Database (CSD) v543 
# hosted by the Cambridge Crystallographic Data Centre (CCDC).
#
# This work is licensed under the Creative Commons
# Attribution-NonCommercial-ShareAlike 4.0 International License.
# To view a copy of this license, visit
# http://creativecommons.org/licenses/by-nc-sa/4.0/
# or send a letter to
# Creative Commons, PO Box 1866, Mountain View, CA 94042, USA.
#
# CIF created using the CSD Python API on 29 September 2022
# The structure has been converted into the P1 space group
# The structure has a 3D framework
# The original CSD entry FAHHAB is in the rhombohedral crystal system
# The framework has been calculated to contain at least 10.0% void space
# The void calculation uses a probe of radius 1.32A, grid spacing 0.4
#
###############################################################################

data_FAHHAB
_chemical_formula_moiety         '(C216 H126 Co23 N24 O84 S9)n'
_symmetry_cell_setting           triclinic
_symmetry_space_group_name_H-M   'P 1'
_symmetry_Int_Tables_number      1
_space_group_name_Hall           'P 1'
loop_
_symmetry_equiv_pos_site_id
_symmetry_equiv_pos_as_xyz
1 x,y,z
_cell_length_a                   32.5834(9)
_cell_length_b                   32.5834(9)
_cell_length_c                   11.6866(7)
_cell_angle_alpha                90
_cell_angle_beta                 90
_cell_angle_gamma                120
_cell_volume                     10745.1
loop_
_atom_site_label
_atom_site_type_symbol
_atom_site_fract_x
_atom_site_fract_y
_atom_site_fract_z
Co1 Co 0.61173(2) 0.10958(2) 0.23676(5)
O1 O 0.55569(9) 0.11138(18) 0.3078(4)
N1 N 0.6720(2) 0.1078(2) 0.1679(5)
O2 O 0.65580(18) 0.16817(17) 0.3187(4)
O3 O 0.5876(2) 0.1075(3) 0.0800(4)
Co2 Co 0.554393(18) 0.10879(4) 0.48431(8)
C1 C 0.6728(4) 0.0887(5) 0.0722(9)
C2 C 0.7115(4) 0.1252(7) 0.2299(12)
C3 C 0.6554(3) 0.1819(3) 0.4181(7)
C4 C 0.5534(2) 0.1067(4) 0.0351(7)
C5 C 0.7884(6) 0.0875(3) 0.0740(6)
O5 O 0.6243(4) 0.1613(2) 0.4918(5)
O6 O 0.8173(6) 0.0953(3) 0.1473(5)
H1 H 0.6478 0.0801 0.0217
C6 C 0.7090(4) 0.0800(5) 0.0396(9)
C7 C 0.7492(6) 0.1190(5) 0.1985(10)
H2 H 0.7139 0.1421 0.2962
C8 C 0.6967(3) 0.2274(3) 0.4537(7)
C10 C 0.7475(6) 0.0953(3) 0.1048(6)
H4 H 0.7762 0.1317 0.2443
S1 S 0.74218(5) 0.25782(5) 0.3565(2)
C12 C 0.7032(4) 0.2524(4) 0.5487(8)
H6 H 0.6815 0.2424 0.6086
O7 O 0.83183(17) 0.34420(18) 0.3187(4)
C14 C 0.8181(3) 0.3446(3) 0.4181(7)
O8 O 0.8387(2) 0.3757(4) 0.4918(5)
C15 C 0.7726(3) 0.3033(3) 0.4537(7)
C16 C 0.7476(4) 0.2968(4) 0.5487(8)
H8 H 0.7576 0.3185 0.6086
O9 O 0.5199(4) 0.1075(3) 0.0800(4)
O10 O 0.5928(2) 0.04764(44) 0.3068(5)
C21 C 0.5792(3) 0.0342(7) 0.4073(6)
O11 O 0.5714(3) 0.0553(7) 0.4806(5)
Co4 Co 0.89042(2) 0.38827(2) 0.23676(5)
Co5 Co 0.49785(3) 0.10958(2) 0.23676(5)
Co8 Co 0.89121(4) 0.445603(44) 0.48431(8)
Co9 Co 0.887730(44) 0.112274(18) 0.15098(8)
O16 O 0.5370(4) 0.1613(2) 0.4918(5)
O17 O 0.4840(6) 0.0553(7) 0.4806(5)
N4 N 0.55325(33) 0.1065(3) 0.6660(6)
O4 O 0.78821(39) 0.0739(2) 0.9735(5)
C9 C 0.5524(2) 0.1049(4) 0.9043(8)
C11 C 0.5208(11) 0.1080(9) 0.7255(9)
H3 H 0.7062 0.0635 0.9723
C13 C 0.5200(7) 0.1062(13) 0.8454(11)
H5 H 0.4970 0.1104 0.6876
H7 H 0.4948 0.1058 0.8837
C17 C 0.5862(15) 0.1062(13) 0.8454(11)
H9 H 0.6110 0.1058 0.8837
C18 C 0.5872(14) 0.1080(9) 0.7255(9)
H10 H 0.6134 0.1104 0.6876
Co6 Co 0.83118(3) 0.05494(2) 0.90343(5)
Co3 Co 0.55709(2) 0.83548(3) 0.57009(5)
N3 N 0.5589(2) 0.8975(3) 0.5012(5)
C19 C 0.5780(5) 0.9174(6) 0.4055(9)
C20 C 0.5415(7) 0.9196(8) 0.5632(12)
H11 H 0.5866 0.9010 0.3550
C22 C 0.5867(5) 0.9623(6) 0.3729(9)
C23 C 0.5477(5) 0.9635(8) 0.5318(10)
H12 H 0.5246 0.9051 0.6295
C24 C 0.5714(3) 0.9855(7) 0.4381(6)
H13 H 0.6032 0.9760 0.3056
H14 H 0.5350 0.9778 0.5776
O12 O 0.55529(18) 0.77764(20) 0.6411(4)
O13 O 0.49850(17) 0.82096(25) 0.6520(4)
O14 O 0.5592(3) 0.8134(4) 0.4133(4)
O15 O 0.61902(44) 0.87846(39) 0.6402(5)
Co3_2 Co 0.16452(3) 0.72160(4) 0.57009(5)
N3_2 N 0.1025(3) 0.6613(4) 0.5012(5)
C19_2 C 0.0826(6) 0.6605(8) 0.4055(9)
C20_2 C 0.0804(8) 0.6218(11) 0.5632(12)
H11_2 H 0.0990 0.6855 0.3550
C22_2 C 0.0377(6) 0.6243(8) 0.3729(9)
C23_2 C 0.0365(8) 0.5841(9) 0.5318(10)
H12_2 H 0.0949 0.6194 0.6295
C24_2 C 0.0145(7) 0.5858(8) 0.4381(6)
H13_2 H 0.0240 0.6271 0.3056
H14_2 H 0.0222 0.5571 0.5776
O12_2 O 0.22236(20) 0.77764(27) 0.6411(4)
O13_2 O 0.17904(25) 0.67753(30) 0.6520(4)
O14_2 O 0.1866(4) 0.7457(5) 0.4133(4)
O15_2 O 0.12154(39) 0.74057(59) 0.6402(5)
Co1_2 Co 0.89042(2) 0.50215(3) 0.23676(5)
O1_2 O 0.88862(18) 0.44431(20) 0.3078(4)
N1_2 N 0.8922(2) 0.5642(3) 0.1679(5)
O2_2 O 0.83183(17) 0.48763(25) 0.3187(4)
O3_2 O 0.8925(3) 0.4801(4) 0.0800(4)
C1_2 C 0.9113(5) 0.5841(6) 0.0722(9)
C2_2 C 0.8748(7) 0.5863(8) 0.2299(12)
C3_2 C 0.8181(3) 0.4735(4) 0.4181(7)
C4_2 C 0.8933(4) 0.4467(4) 0.0351(7)
C5_2 C 0.9125(3) 0.7009(7) 0.0740(6)
O5_2 O 0.8387(2) 0.4630(4) 0.4918(5)
O6_2 O 0.9047(3) 0.7220(7) 0.1473(5)
H1_2 H 0.9199 0.5677 0.0217
C6_2 C 0.9200(5) 0.6290(6) 0.0396(9)
C7_2 C 0.8810(5) 0.6302(8) 0.1985(10)
H2_2 H 0.8579 0.5718 0.2962
C8_2 C 0.7726(3) 0.4693(4) 0.4537(7)
C10_2 C 0.9047(3) 0.6522(7) 0.1048(6)
H4_2 H 0.8683 0.6445 0.2443
S1_2 S 0.74218(5) 0.48436(7) 0.3565(2)
C12_2 C 0.7476(4) 0.4508(6) 0.5487(8)
H6_2 H 0.7576 0.4391 0.6086
O7_2 O 0.65580(18) 0.48763(25) 0.3187(4)
C14_2 C 0.6554(3) 0.4735(4) 0.4181(7)
O8_2 O 0.6243(4) 0.4630(4) 0.4918(5)
C15_2 C 0.6967(3) 0.4693(4) 0.4537(7)
C16_2 C 0.7032(4) 0.4508(6) 0.5487(8)
H8_2 H 0.6815 0.4391 0.6086
O9_2 O 0.8925(3) 0.4124(5) 0.0800(4)
O10_2 O 0.95236(44) 0.54512(48) 0.3068(5)
C21_2 C 0.9658(7) 0.5449(8) 0.4073(6)
O11_2 O 0.9447(7) 0.5160(8) 0.4806(5)
Co4_2 Co 0.61173(2) 0.50215(3) 0.23676(5)
Co8_2 Co 0.554397(44) 0.445607(59) 0.48431(8)
Co9_2 Co 0.887726(18) 0.775457(48) 0.15098(8)
O17_2 O 0.9447(7) 0.4286(9) 0.4806(5)
N4_2 N 0.8935(3) 0.44675(45) 0.6660(6)
O4_2 O 0.9261(2) 0.71431(44) 0.9735(5)
C9_2 C 0.8951(4) 0.4475(4) 0.9043(8)
C11_2 C 0.8920(9) 0.4128(14) 0.7255(9)
H3_2 H 0.9365 0.6427 0.9723
C13_2 C 0.8938(13) 0.4138(15) 0.8454(11)
H5_2 H 0.8896 0.3866 0.6876
H7_2 H 0.8942 0.3890 0.8837
C17_2 C 0.8938(13) 0.4800(20) 0.8454(11)
H9_2 H 0.8942 0.5052 0.8837
C18_2 C 0.8920(9) 0.4792(17) 0.7255(9)
H10_2 H 0.8896 0.5030 0.6876
Co6_2 Co 0.94506(2) 0.77625(4) 0.90343(5)
Co1_3 Co 0.49785(3) 0.38827(2) 0.23676(5)
O1_3 O 0.55569(20) 0.44431(9) 0.3078(4)
N1_3 N 0.4358(3) 0.3280(2) 0.1679(5)
O2_3 O 0.51237(25) 0.34420(18) 0.3187(4)
O3_3 O 0.5199(4) 0.4124(2) 0.0800(4)
C1_3 C 0.4159(6) 0.3272(4) 0.0722(9)
C2_3 C 0.4137(8) 0.2885(4) 0.2299(12)
C3_3 C 0.5265(4) 0.3446(3) 0.4181(7)
C4_3 C 0.5533(4) 0.4466(2) 0.0351(7)
C5_3 C 0.2991(7) 0.2116(6) 0.0740(6)
O5_3 O 0.5370(4) 0.3757(4) 0.4918(5)
O6_3 O 0.2780(7) 0.1827(6) 0.1473(5)
H1_3 H 0.4323 0.3522 0.0217
C6_3 C 0.3710(6) 0.2910(4) 0.0396(9)
C7_3 C 0.3698(8) 0.2508(6) 0.1985(10)
H2_3 H 0.4282 0.2861 0.2962
C8_3 C 0.5307(4) 0.3033(3) 0.4537(7)
C10_3 C 0.3478(7) 0.2525(6) 0.1048(6)
H4_3 H 0.3555 0.2238 0.2443
S1_3 S 0.51564(7) 0.25782(5) 0.3565(2)
C12_3 C 0.5492(6) 0.2968(4) 0.5487(8)
H6_3 H 0.5609 0.3185 0.6086
O7_3 O 0.51237(25) 0.16817(17) 0.3187(4)
C14_3 C 0.5265(4) 0.1819(3) 0.4181(7)
C15_3 C 0.5307(4) 0.2274(3) 0.4537(7)
C16_3 C 0.5492(6) 0.2524(4) 0.5487(8)
H8_3 H 0.5609 0.2424 0.6086
O9_3 O 0.5876(5) 0.4801(4) 0.0800(4)
Co3_3 Co 0.27840(4) 0.44291(2) 0.57009(5)
N3_3 N 0.3387(4) 0.4411(2) 0.5012(5)
O10_3 O 0.45488(48) 0.4072(2) 0.3068(5)
C19_3 C 0.3395(8) 0.4220(5) 0.4055(9)
C20_3 C 0.3782(11) 0.4585(7) 0.5632(12)
C21_3 C 0.4551(8) 0.4208(3) 0.4073(6)
O11_3 O 0.4840(8) 0.4286(3) 0.4806(5)
H11_3 H 0.3145 0.4134 0.3550
C22_3 C 0.3757(8) 0.4133(5) 0.3729(9)
C23_3 C 0.4159(9) 0.4523(5) 0.5318(10)
H12_3 H 0.3806 0.4754 0.6295
C24_3 C 0.4142(8) 0.4286(3) 0.4381(6)
H13_3 H 0.3729 0.3968 0.3056
H14_3 H 0.4429 0.4650 0.5776
O12_3 O 0.22236(27) 0.44471(18) 0.6411(4)
O13_3 O 0.32247(30) 0.50150(17) 0.6520(4)
O14_3 O 0.2543(5) 0.4408(3) 0.4133(4)
O15_3 O 0.25943(59) 0.38098(44) 0.6402(5)
Co9_3 Co 0.224543(48) 0.112270(44) 0.15098(8)
O17_3 O 0.5714(9) 0.5160(6) 0.4806(5)
N4_3 N 0.55325(45) 0.44675(33) 0.6660(6)
O4_3 O 0.28569(44) 0.21179(39) 0.9735(5)
C9_3 C 0.5525(4) 0.4476(2) 0.9043(8)
C11_3 C 0.5872(14) 0.4792(11) 0.7255(9)
H3_3 H 0.3573 0.2938 0.9723
C13_3 C 0.5862(15) 0.4800(7) 0.8454(11)
H5_3 H 0.6134 0.5030 0.6876
H7_3 H 0.6110 0.5052 0.8837
C17_3 C 0.5200(20) 0.4138(15) 0.8454(11)
H9_3 H 0.4948 0.3890 0.8837
C18_3 C 0.5208(17) 0.4128(14) 0.7255(9)
H10_3 H 0.4970 0.3866 0.6876
Co6_3 Co 0.22375(4) 0.16882(3) 0.90343(5)
Co3_4 Co 0.16452(3) 0.44291(2) 0.57009(5)
N3_4 N 0.1025(3) 0.4411(2) 0.5012(5)
C19_4 C 0.0826(6) 0.4220(5) 0.4055(9)
C20_4 C 0.0804(8) 0.4585(7) 0.5632(12)
H11_4 H 0.0990 0.4134 0.3550
C22_4 C 0.0377(6) 0.4133(5) 0.3729(9)
C23_4 C 0.0365(8) 0.4523(5) 0.5318(10)
H12_4 H 0.0949 0.4754 0.6295
C24_4 C 0.0145(7) 0.4286(3) 0.4381(6)
H13_4 H 0.0240 0.3968 0.3056
H14_4 H 0.0222 0.4650 0.5776
O13_4 O 0.17904(25) 0.50150(17) 0.6520(4)
O14_4 O 0.1866(4) 0.4408(3) 0.4133(4)
O15_4 O 0.12154(39) 0.38098(44) 0.6402(5)
N1_4 N 0.8922(2) 0.3280(2) 0.1679(5)
C1_4 C 0.9113(5) 0.3272(4) 0.0722(9)
C2_4 C 0.8748(7) 0.2885(4) 0.2299(12)
C5_4 C 0.9125(3) 0.2116(6) 0.0740(6)
O6_4 O 0.9047(3) 0.1827(6) 0.1473(5)
H1_4 H 0.9199 0.3522 0.0217
C6_4 C 0.9200(5) 0.2910(4) 0.0396(9)
C7_4 C 0.8810(5) 0.2508(6) 0.1985(10)
H2_4 H 0.8579 0.2861 0.2962
C10_4 C 0.9047(3) 0.2525(6) 0.1048(6)
H4_4 H 0.8683 0.2238 0.2443
O10_4 O 0.95236(44) 0.4072(2) 0.3068(5)
C21_4 C 0.9658(7) 0.4208(3) 0.4073(6)
O4_4 O 0.9261(2) 0.21179(39) 0.9735(5)
H3_4 H 0.9365 0.2938 0.9723
Co6_4 Co 0.94506(2) 0.16882(3) 0.90343(5)
N1_5 N 0.4358(3) 0.1078(2) 0.1679(5)
C1_5 C 0.4159(6) 0.0887(5) 0.0722(9)
C2_5 C 0.4137(8) 0.1252(7) 0.2299(12)
C5_5 C 0.2991(7) 0.0875(3) 0.0740(6)
O6_5 O 0.2780(7) 0.0953(3) 0.1473(5)
H1_5 H 0.4323 0.0801 0.0217
C6_5 C 0.3710(6) 0.0800(5) 0.0396(9)
C7_5 C 0.3698(8) 0.1190(5) 0.1985(10)
H2_5 H 0.4282 0.1421 0.2962
C10_5 C 0.3478(7) 0.0953(3) 0.1048(6)
H4_5 H 0.3555 0.1317 0.2443
O10_5 O 0.45488(48) 0.04764(44) 0.3068(5)
C21_5 C 0.4551(8) 0.0342(7) 0.4073(6)
O4_5 O 0.28569(44) 0.0739(2) 0.9735(5)
H3_5 H 0.3573 0.0635 0.9723
Co6_5 Co 0.22375(4) 0.05494(2) 0.90343(5)
Co3_5 Co 0.27840(4) 0.83548(3) 0.57009(5)
N3_5 N 0.3387(4) 0.8975(3) 0.5012(5)
C19_5 C 0.3395(8) 0.9174(6) 0.4055(9)
C20_5 C 0.3782(11) 0.9196(8) 0.5632(12)
H11_5 H 0.3145 0.9010 0.3550
C22_5 C 0.3757(8) 0.9623(6) 0.3729(9)
C23_5 C 0.4159(9) 0.9635(8) 0.5318(10)
H12_5 H 0.3806 0.9051 0.6295
C24_5 C 0.4142(8) 0.9855(7) 0.4381(6)
H13_5 H 0.3729 0.9760 0.3056
H14_5 H 0.4429 0.9778 0.5776
O13_5 O 0.32247(30) 0.82096(25) 0.6520(4)
O14_5 O 0.2543(5) 0.8134(4) 0.4133(4)
O15_5 O 0.25943(59) 0.87846(39) 0.6402(5)
N1_6 N 0.6720(2) 0.5642(3) 0.1679(5)
C1_6 C 0.6728(4) 0.5841(6) 0.0722(9)
C2_6 C 0.7115(4) 0.5863(8) 0.2299(12)
C5_6 C 0.7884(6) 0.7009(7) 0.0740(6)
O6_6 O 0.8173(6) 0.7220(7) 0.1473(5)
H1_6 H 0.6478 0.5677 0.0217
C6_6 C 0.7090(4) 0.6290(6) 0.0396(9)
C7_6 C 0.7492(6) 0.6302(8) 0.1985(10)
H2_6 H 0.7139 0.5718 0.2962
C10_6 C 0.7475(6) 0.6522(7) 0.1048(6)
H4_6 H 0.7762 0.6445 0.2443
Co3_6 Co 0.55709(2) 0.72160(4) 0.57009(5)
N3_6 N 0.5589(2) 0.6613(4) 0.5012(5)
O10_6 O 0.5928(2) 0.54512(48) 0.3068(5)
C19_6 C 0.5780(5) 0.6605(8) 0.4055(9)
C20_6 C 0.5415(7) 0.6218(11) 0.5632(12)
C21_6 C 0.5792(3) 0.5449(8) 0.4073(6)
H11_6 H 0.5866 0.6855 0.3550
C22_6 C 0.5867(5) 0.6243(8) 0.3729(9)
C23_6 C 0.5477(5) 0.5841(9) 0.5318(10)
H12_6 H 0.5246 0.6194 0.6295
C24_6 C 0.5714(3) 0.5858(8) 0.4381(6)
H13_6 H 0.6032 0.6271 0.3056
H14_6 H 0.5350 0.5571 0.5776
O13_6 O 0.49850(17) 0.67753(30) 0.6520(4)
O14_6 O 0.5592(3) 0.7457(5) 0.4133(4)
O15_6 O 0.61902(44) 0.74057(59) 0.6402(5)
O4_6 O 0.78821(39) 0.71431(44) 0.9735(5)
H3_6 H 0.7062 0.6427 0.9723
Co6_6 Co 0.83118(3) 0.77625(4) 0.90343(5)
Co2_2 Co 0.221060(18) 0.44212(4) 0.81764(8)
C3_4 C 0.3221(3) 0.5152(3) 0.7514(7)
C4_4 C 0.2201(2) 0.4400(4) 0.3684(7)
O5_4 O 0.2910(4) 0.4946(2) 0.8251(5)
C8_4 C 0.3634(3) 0.5607(3) 0.7870(7)
C9_4 C 0.2191(2) 0.4382(4) 0.2376(8)
C11_4 C 0.1875(11) 0.4413(9) 0.0588(9)
S1_4 S 0.40885(5) 0.59115(5) 0.6898(2)
C12_4 C 0.3699(4) 0.5857(4) 0.8820(8)
C13_4 C 0.1867(7) 0.4395(13) 0.1787(11)
H5_4 H 0.1637 0.4437 0.0209
H6_4 H 0.3482 0.5757 0.9419
H7_4 H 0.1615 0.4391 0.2170
C14_4 C 0.4848(3) 0.6779(3) 0.7514(7)
O8_3 O 0.5054(2) 0.7090(4) 0.8251(5)
C15_4 C 0.4393(3) 0.6366(3) 0.7870(7)
C16_4 C 0.4143(4) 0.6301(4) 0.8820(8)
H8_4 H 0.4243 0.6518 0.9419
C17_4 C 0.2529(15) 0.4395(13) 0.1787(11)
H9_4 H 0.2777 0.4391 0.2170
C18_4 C 0.2539(14) 0.4413(9) 0.0588(9)
H10_4 H 0.2801 0.4437 0.0209
N3_7 N 0.2255(2) 0.2309(3) 0.8346(5)
C19_7 C 0.2446(5) 0.2508(6) 0.7389(9)
C20_7 C 0.2081(7) 0.2530(8) 0.8966(12)
C21_7 C 0.2458(3) 0.3676(7) 0.7407(6)
O11_4 O 0.2380(3) 0.3887(7) 0.8140(5)
H11_7 H 0.2532 0.2344 0.6884
C22_7 C 0.2533(5) 0.2957(6) 0.7063(9)
C23_7 C 0.2143(5) 0.2969(8) 0.8652(10)
H12_7 H 0.1912 0.2385 0.9629
C24_7 C 0.2380(3) 0.3189(7) 0.7715(6)
H13_7 H 0.2698 0.3094 0.6390
H14_7 H 0.2016 0.3112 0.9110
O12_4 O 0.22195(18) 0.11098(20) 0.9745(4)
O13_7 O 0.16516(17) 0.15430(25) 0.9854(4)
O14_7 O 0.2258(3) 0.1468(4) 0.7467(4)
Co8_3 Co 0.55788(4) 0.778936(44) 0.81764(8)
O16_2 O 0.2037(4) 0.4946(2) 0.8251(5)
O17_4 O 0.1506(6) 0.3887(7) 0.8140(5)
N4_4 N 0.21992(33) 0.4398(3) 0.9993(6)
H11_8 H 0.7656 0.0189 0.6884
O12_5 O 0.88902(20) 0.11098(27) 0.9745(4)
O13_8 O 0.84570(25) 0.01087(30) 0.9854(4)
O14_8 O 0.8532(4) 0.0791(5) 0.7467(4)
C3_5 C 0.4848(3) 0.8068(4) 0.7514(7)
C4_5 C 0.5600(4) 0.7800(4) 0.3684(7)
O5_5 O 0.5054(2) 0.7963(4) 0.8251(5)
C8_5 C 0.4393(3) 0.8026(4) 0.7870(7)
C9_5 C 0.5618(4) 0.7808(4) 0.2376(8)
C11_5 C 0.5587(9) 0.7461(14) 0.0588(9)
S1_5 S 0.40885(5) 0.81769(7) 0.6898(2)
C12_5 C 0.4143(4) 0.7841(6) 0.8820(8)
C13_5 C 0.5605(13) 0.7471(15) 0.1787(11)
H5_5 H 0.5563 0.7199 0.0209
H6_5 H 0.4243 0.7724 0.9419
H7_5 H 0.5609 0.7223 0.2170
C14_5 C 0.3221(3) 0.8068(4) 0.7514(7)
O8_4 O 0.2910(4) 0.7963(4) 0.8251(5)
C15_5 C 0.3634(3) 0.8026(4) 0.7870(7)
C16_5 C 0.3699(4) 0.7841(6) 0.8820(8)
H8_5 H 0.3482 0.7724 0.9419
C17_5 C 0.5605(13) 0.8133(20) 0.1787(11)
H9_5 H 0.5609 0.8385 0.2170
C18_5 C 0.5587(9) 0.8125(17) 0.0588(9)
H10_5 H 0.5563 0.8363 0.0209
N3_8 N 0.7691(3) 0.9947(4) 0.8346(5)
C19_8 C 0.7492(6) 0.9939(8) 0.7389(9)
C20_8 C 0.7470(8) 0.9552(11) 0.8966(12)
C21_8 C 0.6324(7) 0.8783(8) 0.7407(6)
O11_5 O 0.6113(7) 0.8494(8) 0.8140(5)
C22_8 C 0.7043(6) 0.9577(8) 0.7063(9)
C23_8 C 0.7031(8) 0.9175(9) 0.8652(10)
H12_8 H 0.7615 0.9528 0.9629
C24_8 C 0.6811(7) 0.9192(8) 0.7715(6)
H13_8 H 0.6906 0.9605 0.6390
H14_8 H 0.6888 0.8905 0.9110
Co8_4 Co 0.221064(44) 0.778940(59) 0.81764(8)
O17_5 O 0.6113(7) 0.7620(9) 0.8140(5)
N4_5 N 0.5602(3) 0.78008(45) 0.9993(6)
C3_6 C 0.1932(4) 0.6779(3) 0.7514(7)
C4_6 C 0.2200(4) 0.7799(2) 0.3684(7)
O5_6 O 0.2037(4) 0.7090(4) 0.8251(5)
C8_6 C 0.1974(4) 0.6366(3) 0.7870(7)
C9_6 C 0.2192(4) 0.7809(2) 0.2376(8)
C11_6 C 0.2539(14) 0.8125(11) 0.0588(9)
S1_6 S 0.18231(7) 0.59115(5) 0.6898(2)
C12_6 C 0.2159(6) 0.6301(4) 0.8820(8)
C13_6 C 0.2529(15) 0.8133(7) 0.1787(11)
H5_6 H 0.2801 0.8363 0.0209
H6_6 H 0.2276 0.6518 0.9419
H7_6 H 0.2777 0.8385 0.2170
C14_6 C 0.1932(4) 0.5152(3) 0.7514(7)
C15_6 C 0.1974(4) 0.5607(3) 0.7870(7)
C16_6 C 0.2159(6) 0.5857(4) 0.8820(8)
H8_6 H 0.2276 0.5757 0.9419
C17_6 C 0.1867(20) 0.7471(15) 0.1787(11)
H9_6 H 0.1615 0.7223 0.2170
C18_6 C 0.1875(17) 0.7461(14) 0.0588(9)
H10_6 H 0.1637 0.7199 0.0209
N3_9 N 0.0053(4) 0.7745(2) 0.8346(5)
C19_9 C 0.0061(8) 0.7554(5) 0.7389(9)
C20_9 C 0.0448(11) 0.7919(7) 0.8966(12)
C21_9 C 0.1217(8) 0.7542(3) 0.7407(6)
O11_6 O 0.1506(8) 0.7620(3) 0.8140(5)
C22_9 C 0.0423(8) 0.7467(5) 0.7063(9)
C23_9 C 0.0825(9) 0.7857(5) 0.8652(10)
H12_9 H 0.0472 0.8088 0.9629
C24_9 C 0.0808(8) 0.7620(3) 0.7715(6)
H13_9 H 0.0395 0.7302 0.6390
H14_9 H 0.1095 0.7984 0.9110
O17_6 O 0.2380(9) 0.8494(6) 0.8140(5)
N4_6 N 0.21992(45) 0.78008(33) 0.9993(6)
H11_9 H 0.9811 0.7468 0.6884
O12_6 O 0.88902(27) 0.77805(18) 0.9745(4)
O13_9 O 0.98913(30) 0.83484(17) 0.9854(4)
O14_9 O 0.9209(5) 0.7742(3) 0.7467(4)
N3_10 N 0.7691(3) 0.7745(2) 0.8346(5)
C19_10 C 0.7492(6) 0.7554(5) 0.7389(9)
C20_10 C 0.7470(8) 0.7919(7) 0.8966(12)
C21_10 C 0.6324(7) 0.7542(3) 0.7407(6)
H11_10 H 0.7656 0.7468 0.6884
C22_10 C 0.7043(6) 0.7467(5) 0.7063(9)
C23_10 C 0.7031(8) 0.7857(5) 0.8652(10)
H12_10 H 0.7615 0.8088 0.9629
C24_10 C 0.6811(7) 0.7620(3) 0.7715(6)
H13_10 H 0.6906 0.7302 0.6390
H14_10 H 0.6888 0.7984 0.9110
O13_10 O 0.84570(25) 0.83484(17) 0.9854(4)
O14_10 O 0.8532(4) 0.7742(3) 0.7467(4)
N3_11 N 0.0053(4) 0.2309(3) 0.8346(5)
C19_11 C 0.0061(8) 0.2508(6) 0.7389(9)
C20_11 C 0.0448(11) 0.2530(8) 0.8966(12)
C21_11 C 0.1217(8) 0.3676(7) 0.7407(6)
C22_11 C 0.0423(8) 0.2957(6) 0.7063(9)
C23_11 C 0.0825(9) 0.2969(8) 0.8652(10)
H12_11 H 0.0472 0.2385 0.9629
C24_11 C 0.0808(8) 0.3189(7) 0.7715(6)
H13_11 H 0.0395 0.3094 0.6390
H14_11 H 0.1095 0.3112 0.9110
H11_11 H 0.9811 0.2344 0.6884
O13_11 O 0.98913(30) 0.15430(25) 0.9854(4)
O14_11 O 0.9209(5) 0.1468(4) 0.7467(4)
H11_12 H 0.2532 0.0189 0.6884
O13_12 O 0.16516(17) 0.01087(30) 0.9854(4)
O14_12 O 0.2258(3) 0.0791(5) 0.7467(4)
N3_12 N 0.2255(2) 0.9947(4) 0.8346(5)
C19_12 C 0.2446(5) 0.9939(8) 0.7389(9)
C20_12 C 0.2081(7) 0.9552(11) 0.8966(12)
C21_12 C 0.2458(3) 0.8783(8) 0.7407(6)
C22_12 C 0.2533(5) 0.9577(8) 0.7063(9)
C23_12 C 0.2143(5) 0.9175(9) 0.8652(10)
H12_12 H 0.1912 0.9528 0.9629
C24_12 C 0.2380(3) 0.9192(8) 0.7715(6)
H13_12 H 0.2698 0.9605 0.6390
H14_12 H 0.2016 0.8905 0.9110
C14_7 C 0.1514(3) 0.0113(3) 0.0848(7)
O8_5 O 0.1720(2) 0.0424(4) 0.1585(5)
C3_7 C 0.9887(3) 0.8486(3) 0.0848(7)
O5_7 O 0.9576(4) 0.8280(2) 0.1585(5)
O16_3 O 0.8703(4) 0.8280(2) 0.1585(5)
N4_7 N 0.88658(33) 0.7732(3) 0.3327(6)
C4_7 C 0.8867(2) 0.7734(4) 0.7018(7)
C9_7 C 0.8857(2) 0.7716(4) 0.5710(8)
C11_7 C 0.8541(11) 0.7747(9) 0.3922(9)
C13_7 C 0.8533(7) 0.7729(13) 0.5121(11)
H5_7 H 0.8303 0.7771 0.3543
H7_7 H 0.8281 0.7725 0.5504
C17_7 C 0.9195(15) 0.7729(13) 0.5121(11)
H9_7 H 0.9443 0.7725 0.5504
C18_7 C 0.9205(14) 0.7747(9) 0.3922(9)
H10_7 H 0.9467 0.7771 0.3543
C3_8 C 0.1514(3) 0.1402(4) 0.0848(7)
O5_8 O 0.1720(2) 0.1297(4) 0.1585(5)
C8_7 C 0.1059(3) 0.1360(4) 0.1204(7)
S1_7 S 0.07551(5) 0.15103(7) 0.0232(2)
C12_7 C 0.0809(4) 0.1175(6) 0.2154(8)
H6_7 H 0.0909 0.1058 0.2753
C15_7 C 0.0300(3) 0.1360(4) 0.1204(7)
C16_7 C 0.0365(4) 0.1175(6) 0.2154(8)
H8_7 H 0.0148 0.1058 0.2753
N4_8 N 0.2268(3) 0.11342(45) 0.3327(6)
C4_8 C 0.2266(4) 0.1134(4) 0.7018(7)
C9_8 C 0.2284(4) 0.1142(4) 0.5710(8)
C11_8 C 0.2253(9) 0.0795(14) 0.3922(9)
C13_8 C 0.2271(13) 0.0805(15) 0.5121(11)
H5_8 H 0.2229 0.0533 0.3543
H7_8 H 0.2275 0.0557 0.5504
C17_8 C 0.2271(13) 0.1467(20) 0.5121(11)
H9_8 H 0.2275 0.1719 0.5504
C18_8 C 0.2253(9) 0.1459(17) 0.3922(9)
H10_8 H 0.2229 0.1697 0.3543
C14_8 C 0.9887(3) 0.1402(4) 0.0848(7)
O8_6 O 0.9576(4) 0.1297(4) 0.1585(5)
C3_9 C 0.8598(4) 0.0113(3) 0.0848(7)
O5_9 O 0.8703(4) 0.0424(4) 0.1585(5)
N4_9 N 0.88658(45) 0.11342(33) 0.3327(6)
C4_9 C 0.8866(4) 0.1133(2) 0.7018(7)
C9_9 C 0.8858(4) 0.1143(2) 0.5710(8)
C11_9 C 0.9205(14) 0.1459(11) 0.3922(9)
C13_9 C 0.9195(15) 0.1467(7) 0.5121(11)
H5_9 H 0.9467 0.1697 0.3543
H7_9 H 0.9443 0.1719 0.5504
C17_9 C 0.8533(20) 0.0805(15) 0.5121(11)
H9_9 H 0.8281 0.0557 0.5504
C18_9 C 0.8541(17) 0.0795(14) 0.3922(9)
H10_9 H 0.8303 0.0533 0.3543
C8_8 C 0.8640(4) 0.9700(3) 0.1204(7)
S1_8 S 0.84897(7) 0.92449(5) 0.0232(2)
C12_8 C 0.8825(6) 0.9635(4) 0.2154(8)
H6_8 H 0.8942 0.9852 0.2753
C14_9 C 0.8598(4) 0.8486(3) 0.0848(7)
C15_8 C 0.8640(4) 0.8941(3) 0.1204(7)
C16_8 C 0.8825(6) 0.9191(4) 0.2154(8)
H8_8 H 0.8942 0.9091 0.2753
C8_9 C 0.0300(3) 0.8941(3) 0.1204(7)
S1_9 S 0.07551(5) 0.92449(5) 0.0232(2)
C12_9 C 0.0365(4) 0.9191(4) 0.2154(8)
H6_9 H 0.0148 0.9091 0.2753
C15_9 C 0.1059(3) 0.9700(3) 0.1204(7)
C16_9 C 0.0809(4) 0.9635(4) 0.2154(8)
H8_9 H 0.0909 0.9852 0.2753
loop_
_geom_bond_atom_site_label_1
_geom_bond_atom_site_label_2
_geom_bond_site_symmetry_1
_geom_bond_site_symmetry_2
Co1 O1 1_555 1_555
O1 Co2 1_555 1_555
N1 Co1 1_555 1_555
O2 Co1 1_555 1_555
O3 Co1 1_555 1_555
Co2 O5 1_555 1_555
C1 N1 1_555 1_555
C2 N1 1_555 1_555
C3 O2 1_555 1_555
C4 O3 1_555 1_555
C5 O6 1_555 1_555
O5 C3 1_555 1_555
O6 Co9 1_555 1_555
H1 C1 1_555 1_555
C6 C1 1_555 1_555
C7 C2 1_555 1_555
H2 C2 1_555 1_555
C8 C3 1_555 1_555
C10 C5 1_555 1_555
H4 C7 1_555 1_555
S1 C8 1_555 1_555
C12 C8 1_555 1_555
H6 C12 1_555 1_555
O7 C14 1_555 1_555
C14 O8 1_555 1_555
O8 Co8 1_555 1_555
C15 S1 1_555 1_555
C16 C12 1_555 1_555
H8 C16 1_555 1_555
O9 C4 1_555 1_555
O10 Co1 1_555 1_555
C21 O10 1_555 1_555
O11 Co2 1_555 1_555
Co4 O7 1_555 1_555
Co5 O1 1_555 1_555
O16 Co2 1_555 1_555
O17 Co2 1_555 1_555
N4 Co2 1_555 1_555
C6 C10 1_555 1_555
C7 C10 1_555 1_555
C14 C15 1_555 1_555
C15 C16 1_555 1_555
O9 Co5 1_555 1_555
C21 O11 1_555 1_555
N4 C11 1_555 1_555
C11 C13 1_555 1_555
C13 C9 1_555 1_555
H5 C11 1_555 1_555
H7 C13 1_555 1_555
C17 C9 1_555 1_555
H9 C17 1_555 1_555
C18 N4 1_555 1_555
H10 C18 1_555 1_555
Co6 O4 1_555 1_555
C17 C18 1_555 1_555
Co3 N3 1_555 1_555
N3 C19 1_555 1_555
C19 H11 1_555 1_555
C20 N3 1_555 1_555
C22 C19 1_555 1_555
C23 C20 1_555 1_555
H12 C20 1_555 1_555
H13 C22 1_555 1_555
H14 C23 1_555 1_555
O12 Co3 1_555 1_555
O13 Co3 1_555 1_555
O14 Co3 1_555 1_555
O15 Co3 1_555 1_555
C22 C24 1_555 1_555
C23 C24 1_555 1_555
Co3_2 N3_2 1_555 1_555
N3_2 C19_2 1_555 1_555
C19_2 H11_2 1_555 1_555
C20_2 N3_2 1_555 1_555
C22_2 C19_2 1_555 1_555
C23_2 C20_2 1_555 1_555
H12_2 C20_2 1_555 1_555
H13_2 C22_2 1_555 1_555
H14_2 C23_2 1_555 1_555
O12_2 Co3_2 1_555 1_555
O13_2 Co3_2 1_555 1_555
O14_2 Co3_2 1_555 1_555
O15_2 Co3_2 1_555 1_555
C22_2 C24_2 1_555 1_555
C23_2 C24_2 1_555 1_555
Co1_2 O1_2 1_555 1_555
O1_2 Co8 1_555 1_555
N1_2 Co1_2 1_555 1_555
O2_2 Co1_2 1_555 1_555
O3_2 Co1_2 1_555 1_555
Co8 O5_2 1_555 1_555
C1_2 N1_2 1_555 1_555
C2_2 N1_2 1_555 1_555
C3_2 O2_2 1_555 1_555
C4_2 O3_2 1_555 1_555
C5_2 O6_2 1_555 1_555
O5_2 C3_2 1_555 1_555
O6_2 Co9_2 1_555 1_555
H1_2 C1_2 1_555 1_555
C6_2 C1_2 1_555 1_555
C7_2 C2_2 1_555 1_555
H2_2 C2_2 1_555 1_555
C8_2 C3_2 1_555 1_555
C10_2 C5_2 1_555 1_555
H4_2 C7_2 1_555 1_555
S1_2 C8_2 1_555 1_555
C12_2 C8_2 1_555 1_555
H6_2 C12_2 1_555 1_555
O7_2 C14_2 1_555 1_555
C14_2 O8_2 1_555 1_555
O8_2 Co8_2 1_555 1_555
C15_2 S1_2 1_555 1_555
C16_2 C12_2 1_555 1_555
H8_2 C16_2 1_555 1_555
O9_2 C4_2 1_555 1_555
O10_2 Co1_2 1_555 1_555
C21_2 O10_2 1_555 1_555
O11_2 Co8 1_555 1_555
Co4_2 O7_2 1_555 1_555
Co4 O1_2 1_555 1_555
O17_2 Co8 1_555 1_555
N4_2 Co8 1_555 1_555
C6_2 C10_2 1_555 1_555
C7_2 C10_2 1_555 1_555
C14_2 C15_2 1_555 1_555
C15_2 C16_2 1_555 1_555
O9_2 Co4 1_555 1_555
C21_2 O11_2 1_555 1_555
N4_2 C11_2 1_555 1_555
C11_2 C13_2 1_555 1_555
C13_2 C9_2 1_555 1_555
H5_2 C11_2 1_555 1_555
H7_2 C13_2 1_555 1_555
C17_2 C9_2 1_555 1_555
H9_2 C17_2 1_555 1_555
C18_2 N4_2 1_555 1_555
H10_2 C18_2 1_555 1_555
Co6_2 O4_2 1_555 1_555
C17_2 C18_2 1_555 1_555
Co1_3 O1_3 1_555 1_555
O1_3 Co8_2 1_555 1_555
N1_3 Co1_3 1_555 1_555
O2_3 Co1_3 1_555 1_555
O3_3 Co1_3 1_555 1_555
Co8_2 O5_3 1_555 1_555
C1_3 N1_3 1_555 1_555
C2_3 N1_3 1_555 1_555
C3_3 O2_3 1_555 1_555
C4_3 O3_3 1_555 1_555
C5_3 O6_3 1_555 1_555
O5_3 C3_3 1_555 1_555
O6_3 Co9_3 1_555 1_555
H1_3 C1_3 1_555 1_555
C6_3 C1_3 1_555 1_555
C7_3 C2_3 1_555 1_555
H2_3 C2_3 1_555 1_555
C8_3 C3_3 1_555 1_555
C10_3 C5_3 1_555 1_555
H4_3 C7_3 1_555 1_555
S1_3 C8_3 1_555 1_555
C12_3 C8_3 1_555 1_555
H6_3 C12_3 1_555 1_555
O7_3 C14_3 1_555 1_555
C14_3 O16 1_555 1_555
C15_3 S1_3 1_555 1_555
C16_3 C12_3 1_555 1_555
H8_3 C16_3 1_555 1_555
O9_3 C4_3 1_555 1_555
Co3_3 N3_3 1_555 1_555
N3_3 C19_3 1_555 1_555
O10_3 Co1_3 1_555 1_555
C19_3 H11_3 1_555 1_555
C20_3 N3_3 1_555 1_555
C21_3 O10_3 1_555 1_555
O11_3 Co8_2 1_555 1_555
C22_3 C19_3 1_555 1_555
C23_3 C20_3 1_555 1_555
H12_3 C20_3 1_555 1_555
C24_3 C21_3 1_555 1_555
H13_3 C22_3 1_555 1_555
H14_3 C23_3 1_555 1_555
Co5 O7_3 1_555 1_555
Co4_2 O1_3 1_555 1_555
O12_3 Co3_3 1_555 1_555
O13_3 Co3_3 1_555 1_555
O14_3 Co3_3 1_555 1_555
O15_3 Co3_3 1_555 1_555
O17_3 Co8_2 1_555 1_555
N4_3 Co8_2 1_555 1_555
C6_3 C10_3 1_555 1_555
C7_3 C10_3 1_555 1_555
C14_3 C15_3 1_555 1_555
C15_3 C16_3 1_555 1_555
O9_3 Co4_2 1_555 1_555
C21_3 O11_3 1_555 1_555
C22_3 C24_3 1_555 1_555
C23_3 C24_3 1_555 1_555
N4_3 C11_3 1_555 1_555
C11_3 C13_3 1_555 1_555
C13_3 C9_3 1_555 1_555
H5_3 C11_3 1_555 1_555
H7_3 C13_3 1_555 1_555
C17_3 C9_3 1_555 1_555
H9_3 C17_3 1_555 1_555
C18_3 N4_3 1_555 1_555
H10_3 C18_3 1_555 1_555
Co6_3 O4_3 1_555 1_555
C17_3 C18_3 1_555 1_555
Co3_4 N3_4 1_555 1_555
N3_4 C19_4 1_555 1_555
C19_4 H11_4 1_555 1_555
C20_4 N3_4 1_555 1_555
C22_4 C19_4 1_555 1_555
C23_4 C20_4 1_555 1_555
H12_4 C20_4 1_555 1_555
H13_4 C22_4 1_555 1_555
H14_4 C23_4 1_555 1_555
O12_3 Co3_4 1_555 1_555
O13_4 Co3_4 1_555 1_555
O14_4 Co3_4 1_555 1_555
O15_4 Co3_4 1_555 1_555
C22_4 C24_4 1_555 1_555
C23_4 C24_4 1_555 1_555
N1_4 Co4 1_555 1_555
C1_4 N1_4 1_555 1_555
C2_4 N1_4 1_555 1_555
C5_4 O6_4 1_555 1_555
O6_4 Co9 1_555 1_555
H1_4 C1_4 1_555 1_555
C6_4 C1_4 1_555 1_555
C7_4 C2_4 1_555 1_555
H2_4 C2_4 1_555 1_555
C10_4 C5_4 1_555 1_555
H4_4 C7_4 1_555 1_555
O10_4 Co4 1_555 1_555
C21_4 O10_4 1_555 1_555
C6_4 C10_4 1_555 1_555
C7_4 C10_4 1_555 1_555
C21_4 O17_2 1_555 1_555
Co6_4 O4_4 1_555 1_555
N1_5 Co5 1_555 1_555
C1_5 N1_5 1_555 1_555
C2_5 N1_5 1_555 1_555
C5_5 O6_5 1_555 1_555
O6_5 Co9_3 1_555 1_555
H1_5 C1_5 1_555 1_555
C6_5 C1_5 1_555 1_555
C7_5 C2_5 1_555 1_555
H2_5 C2_5 1_555 1_555
C10_5 C5_5 1_555 1_555
H4_5 C7_5 1_555 1_555
O10_5 Co5 1_555 1_555
C21_5 O10_5 1_555 1_555
C6_5 C10_5 1_555 1_555
C7_5 C10_5 1_555 1_555
C21_5 O17 1_555 1_555
Co6_5 O4_5 1_555 1_555
Co3_5 N3_5 1_555 1_555
N3_5 C19_5 1_555 1_555
C19_5 H11_5 1_555 1_555
C20_5 N3_5 1_555 1_555
C22_5 C19_5 1_555 1_555
C23_5 C20_5 1_555 1_555
H12_5 C20_5 1_555 1_555
H13_5 C22_5 1_555 1_555
H14_5 C23_5 1_555 1_555
O12_2 Co3_5 1_555 1_555
O13_5 Co3_5 1_555 1_555
O14_5 Co3_5 1_555 1_555
O15_5 Co3_5 1_555 1_555
C22_5 C24_5 1_555 1_555
C23_5 C24_5 1_555 1_555
N1_6 Co4_2 1_555 1_555
C1_6 N1_6 1_555 1_555
C2_6 N1_6 1_555 1_555
C5_6 O6_6 1_555 1_555
O6_6 Co9_2 1_555 1_555
H1_6 C1_6 1_555 1_555
C6_6 C1_6 1_555 1_555
C7_6 C2_6 1_555 1_555
H2_6 C2_6 1_555 1_555
C10_6 C5_6 1_555 1_555
H4_6 C7_6 1_555 1_555
Co3_6 N3_6 1_555 1_555
N3_6 C19_6 1_555 1_555
O10_6 Co4_2 1_555 1_555
C19_6 H11_6 1_555 1_555
C20_6 N3_6 1_555 1_555
C21_6 O10_6 1_555 1_555
C22_6 C19_6 1_555 1_555
C23_6 C20_6 1_555 1_555
H12_6 C20_6 1_555 1_555
C24_6 C21_6 1_555 1_555
H13_6 C22_6 1_555 1_555
H14_6 C23_6 1_555 1_555
O12 Co3_6 1_555 1_555
O13_6 Co3_6 1_555 1_555
O14_6 Co3_6 1_555 1_555
O15_6 Co3_6 1_555 1_555
C6_6 C10_6 1_555 1_555
C7_6 C10_6 1_555 1_555
C21_6 O17_3 1_555 1_555
C22_6 C24_6 1_555 1_555
C23_6 C24_6 1_555 1_555
Co6_6 O4_6 1_555 1_555
O12_3 Co2_2 1_555 1_555
Co2_2 O5_4 1_555 1_555
C3_4 O13_3 1_555 1_555
C4_4 O14_3 1_555 1_555
O5_4 C3_4 1_555 1_555
C8_4 C3_4 1_555 1_555
C9_4 C4_4 1_555 1_555
C11_4 C13_4 1_555 1_555
S1_4 C8_4 1_555 1_555
C12_4 C8_4 1_555 1_555
C13_4 C9_4 1_555 1_555
H5_4 C11_4 1_555 1_555
H6_4 C12_4 1_555 1_555
H7_4 C13_4 1_555 1_555
O13_6 C14_4 1_555 1_555
C14_4 O8_3 1_555 1_555
O8_3 Co8_3 1_555 1_555
C15_4 S1_4 1_555 1_555
C16_4 C12_4 1_555 1_555
H8_4 C16_4 1_555 1_555
O14_4 C4_4 1_555 1_555
C17_4 C9_4 1_555 1_555
H9_4 C17_4 1_555 1_555
H10_4 C18_4 1_555 1_555
Co6_3 N3_7 1_555 1_555
N3_7 C19_7 1_555 1_555
C19_7 H11_7 1_555 1_555
C20_7 N3_7 1_555 1_555
C21_7 O15_3 1_555 1_555
O11_4 Co2_2 1_555 1_555
C22_7 C19_7 1_555 1_555
C23_7 C20_7 1_555 1_555
H12_7 C20_7 1_555 1_555
C24_7 C21_7 1_555 1_555
H13_7 C22_7 1_555 1_555
H14_7 C23_7 1_555 1_555
O12_4 Co6_3 1_555 1_555
O13_7 Co6_3 1_555 1_555
O14_7 Co6_3 1_555 1_555
O16_2 Co2_2 1_555 1_555
O17_4 Co2_2 1_555 1_555
N4_4 Co2_2 1_555 1_555
C14_4 C15_4 1_555 1_555
C15_4 C16_4 1_555 1_555
C17_4 C18_4 1_555 1_555
C21_7 O11_4 1_555 1_555
C22_7 C24_7 1_555 1_555
C23_7 C24_7 1_555 1_555
O12_5 Co6 1_555 1_555
O13_8 Co6 1_555 1_555
O14_8 Co6 1_555 1_555
O12 Co8_3 1_555 1_555
Co8_3 O5_5 1_555 1_555
C3_5 O13 1_555 1_555
C4_5 O14 1_555 1_555
O5_5 C3_5 1_555 1_555
C8_5 C3_5 1_555 1_555
C9_5 C4_5 1_555 1_555
C11_5 C13_5 1_555 1_555
S1_5 C8_5 1_555 1_555
C12_5 C8_5 1_555 1_555
C13_5 C9_5 1_555 1_555
H5_5 C11_5 1_555 1_555
H6_5 C12_5 1_555 1_555
H7_5 C13_5 1_555 1_555
O13_5 C14_5 1_555 1_555
C14_5 O8_4 1_555 1_555
O8_4 Co8_4 1_555 1_555
C15_5 S1_5 1_555 1_555
C16_5 C12_5 1_555 1_555
H8_5 C16_5 1_555 1_555
O14_6 C4_5 1_555 1_555
C17_5 C9_5 1_555 1_555
H9_5 C17_5 1_555 1_555
H10_5 C18_5 1_555 1_555
N3_8 C19_8 1_555 1_555
C20_8 N3_8 1_555 1_555
C21_8 O15 1_555 1_555
O11_5 Co8_3 1_555 1_555
C22_8 C19_8 1_555 1_555
C23_8 C20_8 1_555 1_555
H12_8 C20_8 1_555 1_555
C24_8 C21_8 1_555 1_555
H13_8 C22_8 1_555 1_555
H14_8 C23_8 1_555 1_555
O17_5 Co8_3 1_555 1_555
N4_5 Co8_3 1_555 1_555
C14_5 C15_5 1_555 1_555
C15_5 C16_5 1_555 1_555
C17_5 C18_5 1_555 1_555
C21_8 O11_5 1_555 1_555
C22_8 C24_8 1_555 1_555
C23_8 C24_8 1_555 1_555
O12_2 Co8_4 1_555 1_555
Co8_4 O5_6 1_555 1_555
C3_6 O13_2 1_555 1_555
C4_6 O14_2 1_555 1_555
O5_6 C3_6 1_555 1_555
C8_6 C3_6 1_555 1_555
C9_6 C4_6 1_555 1_555
C11_6 C13_6 1_555 1_555
S1_6 C8_6 1_555 1_555
C12_6 C8_6 1_555 1_555
C13_6 C9_6 1_555 1_555
H5_6 C11_6 1_555 1_555
H6_6 C12_6 1_555 1_555
H7_6 C13_6 1_555 1_555
O13_4 C14_6 1_555 1_555
C14_6 O16_2 1_555 1_555
C15_6 S1_6 1_555 1_555
C16_6 C12_6 1_555 1_555
H8_6 C16_6 1_555 1_555
O14_5 C4_6 1_555 1_555
C17_6 C9_6 1_555 1_555
H9_6 C17_6 1_555 1_555
H10_6 C18_6 1_555 1_555
N3_9 C19_9 1_555 1_555
C20_9 N3_9 1_555 1_555
C21_9 O15_2 1_555 1_555
O11_6 Co8_4 1_555 1_555
C22_9 C19_9 1_555 1_555
C23_9 C20_9 1_555 1_555
H12_9 C20_9 1_555 1_555
C24_9 C21_9 1_555 1_555
H13_9 C22_9 1_555 1_555
H14_9 C23_9 1_555 1_555
O17_6 Co8_4 1_555 1_555
N4_6 Co8_4 1_555 1_555
C14_6 C15_6 1_555 1_555
C15_6 C16_6 1_555 1_555
C17_6 C18_6 1_555 1_555
C21_9 O11_6 1_555 1_555
C22_9 C24_9 1_555 1_555
C23_9 C24_9 1_555 1_555
O12_6 Co6_2 1_555 1_555
O13_9 Co6_2 1_555 1_555
O14_9 Co6_2 1_555 1_555
Co6_6 N3_10 1_555 1_555
N3_10 C19_10 1_555 1_555
C19_10 H11_10 1_555 1_555
C20_10 N3_10 1_555 1_555
C21_10 O15_6 1_555 1_555
C22_10 C19_10 1_555 1_555
C23_10 C20_10 1_555 1_555
H12_10 C20_10 1_555 1_555
C24_10 C21_10 1_555 1_555
H13_10 C22_10 1_555 1_555
H14_10 C23_10 1_555 1_555
O12_6 Co6_6 1_555 1_555
O13_10 Co6_6 1_555 1_555
O14_10 Co6_6 1_555 1_555
C21_10 O17_5 1_555 1_555
C22_10 C24_10 1_555 1_555
C23_10 C24_10 1_555 1_555
N3_11 C19_11 1_555 1_555
C20_11 N3_11 1_555 1_555
C21_11 O15_4 1_555 1_555
C22_11 C19_11 1_555 1_555
C23_11 C20_11 1_555 1_555
H12_11 C20_11 1_555 1_555
C24_11 C21_11 1_555 1_555
H13_11 C22_11 1_555 1_555
H14_11 C23_11 1_555 1_555
C21_11 O17_4 1_555 1_555
C22_11 C24_11 1_555 1_555
C23_11 C24_11 1_555 1_555
O12_5 Co6_4 1_555 1_555
O13_11 Co6_4 1_555 1_555
O14_11 Co6_4 1_555 1_555
O12_4 Co6_5 1_555 1_555
O13_12 Co6_5 1_555 1_555
O14_12 Co6_5 1_555 1_555
N3_12 C19_12 1_555 1_555
C20_12 N3_12 1_555 1_555
C21_12 O15_5 1_555 1_555
C22_12 C19_12 1_555 1_555
C23_12 C20_12 1_555 1_555
H12_12 C20_12 1_555 1_555
C24_12 C21_12 1_555 1_555
H13_12 C22_12 1_555 1_555
H14_12 C23_12 1_555 1_555
C21_12 O17_6 1_555 1_555
C22_12 C24_12 1_555 1_555
C23_12 C24_12 1_555 1_555
C14_7 O8_5 1_555 1_555
O8_5 Co9_3 1_555 1_555
Co9_2 O5_7 1_555 1_555
O5_7 C3_7 1_555 1_555
O16_3 Co9_2 1_555 1_555
N4_7 Co9_2 1_555 1_555
C4_7 O14_9 1_555 1_555
N4_7 C11_7 1_555 1_555
C9_7 C4_7 1_555 1_555
C11_7 C13_7 1_555 1_555
C13_7 C9_7 1_555 1_555
H5_7 C11_7 1_555 1_555
H7_7 C13_7 1_555 1_555
O14_10 C4_7 1_555 1_555
C17_7 C9_7 1_555 1_555
H9_7 C17_7 1_555 1_555
C18_7 N4_7 1_555 1_555
H10_7 C18_7 1_555 1_555
C17_7 C18_7 1_555 1_555
Co9_3 O5_8 1_555 1_555
O5_8 C3_8 1_555 1_555
C8_7 C3_8 1_555 1_555
S1_7 C8_7 1_555 1_555
C12_7 C8_7 1_555 1_555
H6_7 C12_7 1_555 1_555
C15_7 S1_7 1_555 1_555
C16_7 C12_7 1_555 1_555
H8_7 C16_7 1_555 1_555
N4_8 Co9_3 1_555 1_555
C15_7 C16_7 1_555 1_555
C4_8 O14_7 1_555 1_555
N4_8 C11_8 1_555 1_555
C9_8 C4_8 1_555 1_555
C11_8 C13_8 1_555 1_555
C13_8 C9_8 1_555 1_555
H5_8 C11_8 1_555 1_555
H7_8 C13_8 1_555 1_555
O14_12 C4_8 1_555 1_555
C17_8 C9_8 1_555 1_555
H9_8 C17_8 1_555 1_555
C18_8 N4_8 1_555 1_555
H10_8 C18_8 1_555 1_555
C17_8 C18_8 1_555 1_555
C14_8 O8_6 1_555 1_555
O8_6 Co9 1_555 1_555
Co9 O5_9 1_555 1_555
O5_9 C3_9 1_555 1_555
N4_9 Co9 1_555 1_555
C4_9 O14_8 1_555 1_555
N4_9 C11_9 1_555 1_555
C9_9 C4_9 1_555 1_555
C11_9 C13_9 1_555 1_555
C13_9 C9_9 1_555 1_555
H5_9 C11_9 1_555 1_555
H7_9 C13_9 1_555 1_555
O14_11 C4_9 1_555 1_555
C17_9 C9_9 1_555 1_555
H9_9 C17_9 1_555 1_555
C18_9 N4_9 1_555 1_555
H10_9 C18_9 1_555 1_555
C17_9 C18_9 1_555 1_555
S1_8 C8_8 1_555 1_555
C12_8 C8_8 1_555 1_555
H6_8 C12_8 1_555 1_555
C14_9 O16_3 1_555 1_555
C15_8 S1_8 1_555 1_555
C16_8 C12_8 1_555 1_555
H8_8 C16_8 1_555 1_555
C14_9 C15_8 1_555 1_555
C15_8 C16_8 1_555 1_555
S1_9 C8_9 1_555 1_555
C12_9 C8_9 1_555 1_555
H6_9 C12_9 1_555 1_555
C15_9 S1_9 1_555 1_555
C16_9 C12_9 1_555 1_555
H8_9 C16_9 1_555 1_555
C15_9 C16_9 1_555 1_555

#END
