
###############################################################################
#
# This file contains modified crystal structure data generated from the
# MOF subset of the Cambridge Structural Database (CSD) v543 
# hosted by the Cambridge Crystallographic Data Centre (CCDC).
#
# This work is licensed under the Creative Commons
# Attribution-NonCommercial-ShareAlike 4.0 International License.
# To view a copy of this license, visit
# http://creativecommons.org/licenses/by-nc-sa/4.0/
# or send a letter to
# Creative Commons, PO Box 1866, Mountain View, CA 94042, USA.
#
# CIF created using the CSD Python API on 29 September 2022
# The structure has been converted into the P1 space group
# The structure has a 3D framework
# The original CSD entry FAHHIJ is in the rhombohedral crystal system
# The framework has been calculated to contain at least 10.0% void space
# The void calculation uses a probe of radius 1.32A, grid spacing 0.4
#
###############################################################################

data_FAHHIJ
_chemical_formula_moiety         '(C432 H252 N54 O216 Zn54)n'
_symmetry_cell_setting           triclinic
_symmetry_space_group_name_H-M   'P 1'
_symmetry_Int_Tables_number      1
_space_group_name_Hall           'P 1'
loop_
_symmetry_equiv_pos_site_id
_symmetry_equiv_pos_as_xyz
1 x,y,z
_cell_length_a                   31.668(6)
_cell_length_b                   31.668(6)
_cell_length_c                   23.227(4)
_cell_angle_alpha                90
_cell_angle_beta                 90
_cell_angle_gamma                120
_cell_volume                     20172.7
loop_
_atom_site_label
_atom_site_type_symbol
_atom_site_fract_x
_atom_site_fract_y
_atom_site_fract_z
N2 N 0.0913(2) 0.4337(3) 0.0106(2)
O4 O 0.4560(2) 0.4105(3) 0.1074(2)
O6 O 0.4966(2) 0.45185(28) 0.0298(2)
N3 N 0.3465(3) 0.4615(3) 0.0179(3)
C3 C 0.4617(3) 0.4353(4) 0.0639(3)
C4 C 0.4210(3) 0.4452(4) 0.0494(3)
C8 C 0.3392(4) 0.4267(4) 0.0551(4)
H2 H 0.3084 0.4081 0.0712
C9 C 0.0756(4) 0.4227(7) 0.0637(4)
H3 H 0.0956 0.4195 0.0905
C19 C 0.3748(3) 0.4170(4) 0.0707(3)
H9 H 0.3679 0.3914 0.0958
C20 C 0.4305(4) 0.4834(5) 0.0135(5)
C23 C 0.0305(5) 0.4156(8) 0.0825(4)
H13 H 0.0231 0.4111 0.1216
Zn6 Zn 0.49263(3) 0.38171(4) 0.14451(3)
Zn11 Zn 0.55641(3) 0.44191(4) 0.02295(3)
O17 O 0.1837(5) 0.4470(3) 0.05809(19)
O18 O 0.2563(5) 0.4536(3) 0.0576(2)
Zn1 Zn 0.15930(3) 0.44426(3) 0.97784(3)
Zn2 Zn 0.28376(3) 0.45844(3) 0.97930(3)
Zn3 Zn 0.22308(3) 0.44784(3) 0.85628(3)
O1 O 0.22286(15) 0.45304(18) 0.94467(17)
N1 N 0.2244(2) 0.4463(3) 0.7659(3)
O3 O 0.2852(2) 0.5150(2) 0.8553(2)
O5 O 0.5193(2) 0.6993(3) 0.8549(2)
O7 O 0.2633(4) 0.4470(3) 0.55809(19)
O8 O 0.40525(19) 0.59922(19) 0.8960(2)
C1 C 0.2297(4) 0.4492(3) 0.5817(3)
O9 O 0.3262(2) 0.5190(2) 0.9360(2)
O10 O 0.1973(4) 0.4536(3) 0.5576(2)
O12 O 0.4942(2) 0.6658(3) 0.9410(2)
C2 C 0.2280(4) 0.4479(3) 0.6460(3)
C6 C 0.3701(4) 0.6006(5) 0.8154(5)
H1 H 0.3469 0.5929 0.7867
C10 C 0.3914(3) 0.4905(4) 0.9985(5)
H4 H 0.3972 0.5163 0.9743
C11 C 0.4882(3) 0.6704(4) 0.8881(3)
C12 C 0.3223(3) 0.5335(3) 0.8870(3)
C13 C 0.1891(5) 0.4448(8) 0.7336(4)
H5 H 0.1624 0.4432 0.7523
C14 C 0.4386(3) 0.6380(5) 0.8628(3)
C15 C 0.2605(5) 0.4481(7) 0.7362(4)
H6 H 0.2851 0.4467 0.7563
C16 C 0.4192(4) 0.6399(7) 0.8146(4)
H7 H 0.4343 0.6625 0.7852
C17 C 0.3639(3) 0.5773(3) 0.8645(3)
C18 C 0.2643(5) 0.4519(8) 0.6791(3)
H8 H 0.2931 0.4574 0.6618
H10 H 0.4618 0.5041 0.9996
C21 C 0.0603(4) 0.4370(6) 0.9771(4)
H11 H 0.0699 0.4463 0.9392
C22 C 0.0151(4) 0.4282(6) 0.9922(3)
C24 C 0.1892(9) 0.4454(7) 0.6752(4)
H14 H 0.1632 0.4442 0.6552
Zn4 Zn 0.55574(3) 0.71504(4) 0.97784(3)
Zn5 Zn 0.28496(4) 0.44426(3) 0.47784(3)
Zn7 Zn 0.17468(4) 0.45844(3) 0.47930(3)
Zn9 Zn 0.55216(3) 0.77524(4) 0.85628(3)
O13 O 0.2656(2) 0.4130(2) 0.8607(2)
O14 O 0.1227(2) 0.3788(4) 0.9407(2)
O15 O 0.1800(4) 0.4807(2) 0.8549(2)
O16 O 0.1633(2) 0.37808(34) 0.8631(2)
O19 O 0.2658(3) 0.3917(2) 0.9510(2)
O20 O 0.1716(4) 0.5058(2) 0.9410(2)
O2 O 0.9203(2) 0.4011(2) 0.0274(2)
O11 O 0.9416(2) 0.4009(3) 0.1177(2)
C5 C 0.9995(3) 0.4151(3) 0.0473(3)
C7 C 0.9501(3) 0.4050(3) 0.0653(3)
Zn8 Zn 0.87489(3) 0.38291(3) 0.14597(3)
Zn10 Zn 0.88549(3) 0.44359(3) 0.02295(3)
O4_2 O 0.5895(3) 0.0455(4) 0.1074(2)
O6_2 O 0.54815(28) 0.04475(34) 0.0298(2)
C3_2 C 0.5647(4) 0.0264(5) 0.0639(3)
Zn6_2 Zn 0.61829(4) 0.11093(5) 0.14451(3)
Zn11_2 Zn 0.55809(4) 0.11451(5) 0.02295(3)
N2_2 N 0.5663(3) 0.6576(4) 0.0106(2)
O2_2 O 0.5989(2) 0.5192(3) 0.0274(2)
N3_2 N 0.5385(3) 0.8850(4) 0.0179(3)
O11_2 O 0.5991(3) 0.5407(4) 0.1177(2)
C4_2 C 0.5548(4) 0.9758(5) 0.0494(3)
C5_2 C 0.5849(3) 0.5844(4) 0.0473(3)
C7_2 C 0.5950(3) 0.5451(4) 0.0653(3)
C8_2 C 0.5733(4) 0.9125(6) 0.0551(4)
H2_2 H 0.5919 0.9003 0.0712
C9_2 C 0.5773(7) 0.6529(8) 0.0637(4)
H3_2 H 0.5805 0.6761 0.0905
C19_2 C 0.5830(4) 0.9578(5) 0.0707(3)
H9_2 H 0.6086 0.9765 0.0958
C20_2 C 0.5166(5) 0.9471(6) 0.0135(5)
C23_2 C 0.5844(8) 0.6149(9) 0.0825(4)
H13_2 H 0.5889 0.6120 0.1216
Zn8_2 Zn 0.61709(3) 0.49199(4) 0.14597(3)
O17_2 O 0.5530(3) 0.7367(6) 0.05809(19)
O18_2 O 0.5464(3) 0.8027(6) 0.0576(2)
Zn2_2 Zn 0.54156(3) 0.82532(4) 0.97930(3)
O1_2 O 0.54696(18) 0.76982(23) 0.94467(17)
N1_2 N 0.5537(3) 0.7781(4) 0.7659(3)
O3_2 O 0.4850(2) 0.7702(3) 0.8553(2)
O5_2 O 0.3007(3) 0.8200(4) 0.8549(2)
O7_2 O 0.5530(3) 0.8163(5) 0.55809(19)
O8_2 O 0.40078(19) 0.80603(27) 0.8960(2)
C1_2 C 0.5508(3) 0.7805(5) 0.5817(3)
O9_2 O 0.4810(2) 0.8072(3) 0.9360(2)
O10_2 O 0.5464(3) 0.7437(5) 0.5576(2)
O12_2 O 0.3342(3) 0.8284(4) 0.9410(2)
C2_2 C 0.5521(3) 0.7801(5) 0.6460(3)
C6_2 C 0.3994(5) 0.7695(6) 0.8154(5)
H1_2 H 0.4071 0.7540 0.7867
C10_2 C 0.5095(4) 0.9009(5) 0.9985(5)
H4_2 H 0.4837 0.8809 0.9743
C11_2 C 0.3296(4) 0.8178(5) 0.8881(3)
C12_2 C 0.4665(3) 0.7888(4) 0.8870(3)
C13_2 C 0.5552(8) 0.7443(9) 0.7336(4)
H5_2 H 0.5568 0.7192 0.7523
C14_2 C 0.3620(5) 0.8006(6) 0.8628(3)
C15_2 C 0.5519(7) 0.8124(9) 0.7362(4)
H6_2 H 0.5533 0.8384 0.7563
C16_2 C 0.3601(7) 0.7793(8) 0.8146(4)
H7_2 H 0.3375 0.7718 0.7852
C17_2 C 0.4227(3) 0.7866(4) 0.8645(3)
C18_2 C 0.5481(8) 0.8124(9) 0.6791(3)
H8_2 H 0.5426 0.8357 0.6618
H10_2 H 0.4959 0.9577 0.9996
C21_2 C 0.5630(6) 0.6233(7) 0.9771(4)
H11_2 H 0.5537 0.6236 0.9392
C22_2 C 0.5718(6) 0.5869(7) 0.9922(3)
H12 H 0.5690 0.5640 0.9651
C24_2 C 0.5546(7) 0.7438(11) 0.6752(4)
H14_2 H 0.5558 0.7190 0.6552
Zn4_2 Zn 0.28496(4) 0.84070(5) 0.97784(3)
Zn5_2 Zn 0.55574(3) 0.84070(5) 0.47784(3)
Zn7_2 Zn 0.54156(3) 0.71624(5) 0.47930(3)
Zn9_2 Zn 0.22476(4) 0.77692(5) 0.85628(3)
O13_2 O 0.5870(2) 0.8525(3) 0.8607(2)
O14_2 O 0.6212(4) 0.7438(4) 0.9407(2)
O16_2 O 0.62192(34) 0.78518(39) 0.8631(2)
O19_2 O 0.6083(2) 0.8740(4) 0.9510(2)
O2_3 O 0.4808(3) 0.0797(2) 0.0274(2)
O11_3 O 0.4593(4) 0.0584(2) 0.1177(2)
C5_3 C 0.4156(4) 0.0005(3) 0.0473(3)
C7_3 C 0.4549(4) 0.0499(3) 0.0653(3)
Zn8_3 Zn 0.50801(4) 0.12511(3) 0.14597(3)
N2_3 N 0.3424(4) 0.9087(2) 0.0106(2)
N3_3 N 0.1150(4) 0.6535(3) 0.0179(3)
C4_3 C 0.0242(5) 0.5790(3) 0.0494(3)
C8_3 C 0.0875(6) 0.6608(4) 0.0551(4)
H2_3 H 0.0997 0.6916 0.0712
C9_3 C 0.3471(8) 0.9244(4) 0.0637(4)
H3_3 H 0.3239 0.9044 0.0905
C19_3 C 0.0422(5) 0.6252(3) 0.0707(3)
H9_3 H 0.0235 0.6321 0.0958
C20_3 C 0.0529(6) 0.5695(4) 0.0135(5)
C23_3 C 0.3851(9) 0.9695(5) 0.0825(4)
H13_3 H 0.3880 0.9769 0.1216
O17_3 O 0.2633(6) 0.8163(5) 0.05809(19)
O18_3 O 0.1973(6) 0.7437(5) 0.0576(2)
Zn2_3 Zn 0.17468(4) 0.71624(3) 0.97930(3)
O1_3 O 0.23018(23) 0.77714(15) 0.94467(17)
N1_3 N 0.2219(4) 0.7756(2) 0.7659(3)
O3_3 O 0.2298(3) 0.7148(2) 0.8553(2)
O7_3 O 0.1837(5) 0.7367(4) 0.55809(19)
O8_3 O 0.19397(27) 0.59475(19) 0.8960(2)
C1_3 C 0.2195(5) 0.7703(4) 0.5817(3)
O9_3 O 0.1928(3) 0.6738(2) 0.9360(2)
O10_3 O 0.2563(5) 0.8027(4) 0.5576(2)
C2_3 C 0.2199(5) 0.7720(4) 0.6460(3)
C6_3 C 0.2305(6) 0.6299(4) 0.8154(5)
H1_3 H 0.2460 0.6531 0.7867
C10_3 C 0.0991(5) 0.6086(3) 0.9985(5)
H4_3 H 0.1191 0.6028 0.9743
C11_3 C 0.1822(5) 0.5118(3) 0.8881(3)
C12_3 C 0.2112(4) 0.6777(3) 0.8870(3)
C13_3 C 0.2557(9) 0.8109(5) 0.7336(4)
H5_3 H 0.2808 0.8376 0.7523
C14_3 C 0.1994(6) 0.5614(3) 0.8628(3)
C15_3 C 0.1876(9) 0.7395(5) 0.7362(4)
H6_3 H 0.1616 0.7149 0.7563
C16_3 C 0.2207(8) 0.5808(4) 0.8146(4)
H7_3 H 0.2282 0.5657 0.7852
C17_3 C 0.2134(4) 0.6361(3) 0.8645(3)
C18_3 C 0.1876(9) 0.7357(5) 0.6791(3)
H8_3 H 0.1643 0.7069 0.6618
H10_3 H 0.0423 0.5382 0.9996
C21_3 C 0.3767(7) 0.9397(4) 0.9771(4)
H11_3 H 0.3764 0.9301 0.9392
C22_3 C 0.4131(7) 0.9849(4) 0.9922(3)
C24_3 C 0.2562(11) 0.8108(9) 0.6752(4)
H14_3 H 0.2810 0.8368 0.6552
Zn5_3 Zn 0.15930(5) 0.71504(4) 0.47784(3)
Zn7_3 Zn 0.28376(5) 0.82532(4) 0.47930(3)
O13_3 O 0.1475(3) 0.7344(2) 0.8607(2)
O14_3 O 0.2562(4) 0.8773(2) 0.9407(2)
O16_3 O 0.21482(39) 0.8367(2) 0.8631(2)
O19_3 O 0.1260(4) 0.7342(3) 0.9510(2)
O4_3 O 0.9545(4) 0.5440(2) 0.1074(2)
O6_3 O 0.95525(34) 0.5034(2) 0.0298(2)
C3_3 C 0.9736(5) 0.5383(3) 0.0639(3)
Zn6_3 Zn 0.88907(5) 0.50737(3) 0.14451(3)
O2_4 O 0.5989(2) 0.0797(2) 0.5274(2)
O11_4 O 0.5991(3) 0.0584(2) 0.6177(2)
C5_4 C 0.5849(3) 0.0005(3) 0.5473(3)
C7_4 C 0.5950(3) 0.0499(3) 0.5653(3)
H12_2 H 0.5690 0.0050 0.4651
Zn8_4 Zn 0.61709(3) 0.12511(3) 0.64597(3)
Zn10_2 Zn 0.55641(3) 0.11451(3) 0.52295(3)
Zn3_2 Zn 0.55216(3) 0.77692(3) 0.35628(3)
O1_4 O 0.54696(18) 0.77714(15) 0.44467(17)
N1_4 N 0.5537(3) 0.7756(2) 0.2659(3)
N2_4 N 0.5663(3) 0.9087(2) 0.5106(2)
O3_4 O 0.4850(2) 0.7148(2) 0.3553(2)
O4_4 O 0.5895(3) 0.5440(2) 0.6074(2)
O5_3 O 0.3007(3) 0.4807(2) 0.3549(2)
O6_4 O 0.54815(28) 0.5034(2) 0.5298(2)
O8_4 O 0.40078(19) 0.59475(19) 0.3960(2)
C1_4 C 0.5508(3) 0.7703(4) 0.0817(3)
N3_4 N 0.5385(3) 0.6535(3) 0.5179(3)
O9_4 O 0.4810(2) 0.6738(2) 0.4360(2)
O12_3 O 0.3342(3) 0.5058(2) 0.4410(2)
C2_4 C 0.5521(3) 0.7720(4) 0.1460(3)
C3_4 C 0.5647(4) 0.5383(3) 0.5639(3)
C4_4 C 0.5548(4) 0.5790(3) 0.5494(3)
C6_4 C 0.3994(5) 0.6299(4) 0.3154(5)
H1_4 H 0.4071 0.6531 0.2867
C8_4 C 0.5733(4) 0.6608(4) 0.5551(4)
H2_4 H 0.5919 0.6916 0.5712
C9_4 C 0.5773(7) 0.9244(4) 0.5637(4)
H3_4 H 0.5805 0.9044 0.5905
C10_4 C 0.5095(4) 0.6086(3) 0.4985(5)
H4_4 H 0.4837 0.6028 0.4743
C11_4 C 0.3296(4) 0.5118(3) 0.3881(3)
C12_4 C 0.4665(3) 0.6777(3) 0.3870(3)
C13_4 C 0.5552(8) 0.8109(5) 0.2336(4)
H5_4 H 0.5568 0.8376 0.2523
C14_4 C 0.3620(5) 0.5614(3) 0.3628(3)
C15_4 C 0.5519(7) 0.7395(5) 0.2362(4)
H6_4 H 0.5533 0.7149 0.2563
C16_4 C 0.3601(7) 0.5808(4) 0.3146(4)
H7_4 H 0.3375 0.5657 0.2852
C17_4 C 0.4227(3) 0.6361(3) 0.3645(3)
C18_4 C 0.5481(8) 0.7357(5) 0.1791(3)
H8_4 H 0.5426 0.7069 0.1618
C19_4 C 0.5830(4) 0.6252(3) 0.5707(3)
H9_4 H 0.6086 0.6321 0.5958
C20_4 C 0.5166(5) 0.5695(4) 0.5135(5)
H10_4 H 0.4959 0.5382 0.4996
C21_4 C 0.5630(6) 0.9397(4) 0.4771(4)
H11_4 H 0.5537 0.9301 0.4392
C22_4 C 0.5718(6) 0.9849(4) 0.4922(3)
C23_4 C 0.5844(8) 0.9695(5) 0.5825(4)
H13_4 H 0.5889 0.9769 0.6216
C24_4 C 0.5546(7) 0.8108(9) 0.1752(4)
H14_4 H 0.5558 0.8368 0.1552
Zn6_4 Zn 0.61829(4) 0.50737(3) 0.64451(3)
Zn9_3 Zn 0.22476(4) 0.44784(3) 0.35628(3)
Zn11_3 Zn 0.55809(4) 0.44359(3) 0.52295(3)
O13_4 O 0.5870(2) 0.7344(2) 0.3607(2)
O14_4 O 0.6212(4) 0.8773(2) 0.4407(2)
O15_2 O 0.5193(2) 0.8200(4) 0.3549(2)
O16_4 O 0.62192(34) 0.8367(2) 0.3631(2)
O19_4 O 0.6083(2) 0.7342(3) 0.4510(2)
O20_2 O 0.4942(2) 0.8284(4) 0.4410(2)
O1_5 O 0.23018(23) 0.45304(18) 0.44467(17)
N1_5 N 0.2219(4) 0.4463(3) 0.2659(3)
N2_5 N 0.3424(4) 0.4337(3) 0.5106(2)
O2_5 O 0.4808(3) 0.4011(2) 0.5274(2)
O3_5 O 0.2298(3) 0.5150(2) 0.3553(2)
O5_4 O 0.1800(4) 0.6993(3) 0.3549(2)
O8_5 O 0.19397(27) 0.59922(19) 0.3960(2)
C1_5 C 0.2195(5) 0.4492(3) 0.0817(3)
N3_5 N 0.1150(4) 0.4615(3) 0.5179(3)
O9_5 O 0.1928(3) 0.5190(2) 0.4360(2)
O11_5 O 0.4593(4) 0.4009(3) 0.6177(2)
O12_4 O 0.1716(4) 0.6658(3) 0.4410(2)
C2_5 C 0.2199(5) 0.4479(3) 0.1460(3)
C4_5 C 0.0242(5) 0.4452(4) 0.5494(3)
C5_5 C 0.4156(4) 0.4151(3) 0.5473(3)
C6_5 C 0.2305(6) 0.6006(5) 0.3154(5)
H1_5 H 0.2460 0.5929 0.2867
C7_5 C 0.4549(4) 0.4050(3) 0.5653(3)
C8_5 C 0.0875(6) 0.4267(4) 0.5551(4)
H2_5 H 0.0997 0.4081 0.5712
C9_5 C 0.3471(8) 0.4227(7) 0.5637(4)
H3_5 H 0.3239 0.4195 0.5905
C10_5 C 0.0991(5) 0.4905(4) 0.4985(5)
H4_5 H 0.1191 0.5163 0.4743
C11_5 C 0.1822(5) 0.6704(4) 0.3881(3)
C12_5 C 0.2112(4) 0.5335(3) 0.3870(3)
C13_5 C 0.2557(9) 0.4448(8) 0.2336(4)
H5_5 H 0.2808 0.4432 0.2523
C14_5 C 0.1994(6) 0.6380(5) 0.3628(3)
C15_5 C 0.1876(9) 0.4481(7) 0.2362(4)
H6_5 H 0.1616 0.4467 0.2563
C16_5 C 0.2207(8) 0.6399(7) 0.3146(4)
H7_5 H 0.2282 0.6625 0.2852
C17_5 C 0.2134(4) 0.5773(3) 0.3645(3)
C18_5 C 0.1876(9) 0.4519(8) 0.1791(3)
H8_5 H 0.1643 0.4574 0.1618
C19_5 C 0.0422(5) 0.4170(4) 0.5707(3)
H9_5 H 0.0235 0.3914 0.5958
C20_5 C 0.0529(6) 0.4834(5) 0.5135(5)
H10_5 H 0.0423 0.5041 0.4996
C21_5 C 0.3767(7) 0.4370(6) 0.4771(4)
H11_5 H 0.3764 0.4463 0.4392
C22_5 C 0.4131(7) 0.4282(6) 0.4922(3)
H12_3 H 0.4360 0.4310 0.4651
C23_5 C 0.3851(9) 0.4156(8) 0.5825(4)
H13_5 H 0.3880 0.4111 0.6216
C24_5 C 0.2562(11) 0.4454(7) 0.1752(4)
H14_5 H 0.2810 0.4442 0.1552
Zn8_5 Zn 0.50801(4) 0.38291(3) 0.64597(3)
Zn9_4 Zn 0.22308(5) 0.77524(4) 0.35628(3)
O13_5 O 0.1475(3) 0.4130(2) 0.3607(2)
O14_5 O 0.2562(4) 0.3788(4) 0.4407(2)
O16_5 O 0.21482(39) 0.37808(34) 0.3631(2)
O19_5 O 0.1260(4) 0.3917(2) 0.4510(2)
O4_5 O 0.9545(4) 0.4105(3) 0.6074(2)
O6_5 O 0.95525(34) 0.45185(28) 0.5298(2)
C3_5 C 0.9736(5) 0.4353(4) 0.5639(3)
Zn6_5 Zn 0.88907(5) 0.38171(4) 0.64451(3)
Zn11_4 Zn 0.88549(5) 0.44191(4) 0.52295(3)
O4_6 O 0.4560(2) 0.0455(4) 0.6074(2)
O6_6 O 0.4966(2) 0.04475(34) 0.5298(2)
C3_6 C 0.4617(3) 0.0264(5) 0.5639(3)
Zn6_6 Zn 0.49263(3) 0.11093(5) 0.64451(3)
O1_6 O 0.22286(15) 0.76982(23) 0.44467(17)
N1_6 N 0.2244(2) 0.7781(4) 0.2659(3)
N2_6 N 0.0913(2) 0.6576(4) 0.5106(2)
O3_6 O 0.2852(2) 0.7702(3) 0.3553(2)
O8_6 O 0.40525(19) 0.80603(27) 0.3960(2)
C1_6 C 0.2297(4) 0.7805(5) 0.0817(3)
N3_6 N 0.3465(3) 0.8850(4) 0.5179(3)
O9_6 O 0.3262(2) 0.8072(3) 0.4360(2)
C2_6 C 0.2280(4) 0.7801(5) 0.1460(3)
C4_6 C 0.4210(3) 0.9758(5) 0.5494(3)
C6_6 C 0.3701(4) 0.7695(6) 0.3154(5)
H1_6 H 0.3469 0.7540 0.2867
C8_6 C 0.3392(4) 0.9125(6) 0.5551(4)
H2_6 H 0.3084 0.9003 0.5712
C9_6 C 0.0756(4) 0.6529(8) 0.5637(4)
H3_6 H 0.0956 0.6761 0.5905
C10_6 C 0.3914(3) 0.9009(5) 0.4985(5)
H4_6 H 0.3972 0.8809 0.4743
C11_6 C 0.4882(3) 0.8178(5) 0.3881(3)
C12_6 C 0.3223(3) 0.7888(4) 0.3870(3)
C13_6 C 0.1891(5) 0.7443(9) 0.2336(4)
H5_6 H 0.1624 0.7192 0.2523
C14_6 C 0.4386(3) 0.8006(6) 0.3628(3)
C15_6 C 0.2605(5) 0.8124(9) 0.2362(4)
H6_6 H 0.2851 0.8384 0.2563
C16_6 C 0.4192(4) 0.7793(8) 0.3146(4)
H7_6 H 0.4343 0.7718 0.2852
C17_6 C 0.3639(3) 0.7866(4) 0.3645(3)
C18_6 C 0.2643(5) 0.8124(9) 0.1791(3)
H8_6 H 0.2931 0.8357 0.1618
C19_6 C 0.3748(3) 0.9578(5) 0.5707(3)
H9_6 H 0.3679 0.9765 0.5958
C20_6 C 0.4305(4) 0.9471(6) 0.5135(5)
H10_6 H 0.4618 0.9577 0.4996
C21_6 C 0.0603(4) 0.6233(7) 0.4771(4)
H11_6 H 0.0699 0.6236 0.4392
C22_6 C 0.0151(4) 0.5869(7) 0.4922(3)
C23_6 C 0.0305(5) 0.6149(9) 0.5825(4)
H13_6 H 0.0231 0.6120 0.6216
C24_6 C 0.1892(9) 0.7438(11) 0.1752(4)
H14_6 H 0.1632 0.7190 0.1552
O13_6 O 0.2656(2) 0.8525(3) 0.3607(2)
O14_6 O 0.1227(2) 0.7438(4) 0.4407(2)
O16_6 O 0.1633(2) 0.78518(39) 0.3631(2)
O19_6 O 0.2658(3) 0.8740(4) 0.4510(2)
O2_6 O 0.9203(2) 0.5192(3) 0.5274(2)
O11_6 O 0.9416(2) 0.5407(4) 0.6177(2)
C5_6 C 0.9995(3) 0.5844(4) 0.5473(3)
C7_6 C 0.9501(3) 0.5451(4) 0.5653(3)
H12_4 H 0.9950 0.5640 0.4651
Zn8_6 Zn 0.87489(3) 0.49199(4) 0.64597(3)
O5_5 O 0.1860(2) 0.0326(3) 0.1882(2)
C11_7 C 0.1549(3) 0.0037(4) 0.2214(3)
Zn4_3 Zn 0.22241(3) 0.04837(4) 0.31117(3)
Zn9_5 Zn 0.21883(3) 0.10857(4) 0.18961(3)
O8_7 O 0.07192(19) 0.93255(19) 0.2293(2)
N3_7 N 0.0132(3) 0.7948(3) 0.3512(3)
O12_5 O 0.1609(2) 0.9991(3) 0.2743(2)
C3_7 C 0.1284(3) 0.7686(4) 0.3972(3)
C4_7 C 0.0877(3) 0.7785(4) 0.3827(3)
C6_7 C 0.0368(4) 0.9339(5) 0.1487(5)
H1_7 H 0.0136 0.9262 0.1200
C8_7 C 0.0059(4) 0.7600(4) 0.3884(4)
C10_7 C 0.0581(3) 0.8238(4) 0.3318(5)
H4_7 H 0.0639 0.8496 0.3076
C14_7 C 0.1053(3) 0.9713(5) 0.1961(3)
C16_7 C 0.0859(4) 0.9732(7) 0.1479(4)
H7_7 H 0.1010 0.9958 0.1185
C17_7 C 0.0306(3) 0.9106(3) 0.1978(3)
C19_7 C 0.0415(3) 0.7503(4) 0.4040(3)
H9_7 H 0.0346 0.7247 0.4291
C20_7 C 0.0972(4) 0.8167(5) 0.3468(5)
H10_7 H 0.1285 0.8374 0.3329
Zn1_2 Zn 0.82597(3) 0.77759(3) 0.31117(3)
Zn2_4 Zn 0.95043(3) 0.79177(3) 0.31263(3)
Zn3_3 Zn 0.88975(3) 0.78117(3) 0.18961(3)
O1_7 O 0.88953(15) 0.78637(18) 0.27800(17)
N1_7 N 0.8911(2) 0.7796(3) 0.0992(3)
N2_7 N 0.7580(2) 0.7670(3) 0.3439(2)
O3_7 O 0.9519(2) 0.8483(2) 0.1886(2)
O9_7 O 0.9929(2) 0.8523(2) 0.2693(2)
C5_7 C 0.6662(3) 0.7484(3) 0.3806(3)
C7_7 C 0.6168(3) 0.7383(3) 0.3986(3)
H2_7 H 0.9751 0.7414 0.4045
C9_7 C 0.7423(4) 0.7560(7) 0.3970(4)
H3_7 H 0.7623 0.7528 0.4238
C12_7 C 0.9890(3) 0.8668(3) 0.2203(3)
C13_7 C 0.8558(5) 0.7781(8) 0.0669(4)
H5_7 H 0.8291 0.7765 0.0856
C15_7 C 0.9272(5) 0.7814(7) 0.0695(4)
H6_7 H 0.9518 0.7800 0.0896
C18_7 C 0.9310(5) 0.7852(8) 0.0124(3)
C21_7 C 0.7270(4) 0.7703(6) 0.3104(4)
H11_7 H 0.7366 0.7796 0.2725
C22_7 C 0.6818(4) 0.7615(6) 0.3255(3)
H12_5 H 0.6617 0.7643 0.2984
C23_7 C 0.6972(5) 0.7489(8) 0.4158(4)
H13_7 H 0.6898 0.7444 0.4549
C24_7 C 0.8559(9) 0.7787(7) 0.0085(4)
O13_7 O 0.9322(2) 0.7464(2) 0.1941(2)
O14_7 O 0.7893(2) 0.7122(4) 0.2741(2)
O15_3 O 0.8467(4) 0.8140(2) 0.1882(2)
O16_7 O 0.8299(2) 0.71142(34) 0.1965(2)
O17_4 O 0.8504(5) 0.7803(3) 0.39142(19)
O18_4 O 0.9230(5) 0.7869(3) 0.3909(2)
O19_7 O 0.9324(3) 0.7251(2) 0.2844(2)
O20_3 O 0.8383(4) 0.8391(2) 0.2743(2)
O7_4 O 0.9300(4) 0.7803(3) 0.89142(19)
C1_7 C 0.8964(4) 0.7825(3) 0.9150(3)
O10_4 O 0.8640(4) 0.7869(3) 0.8909(2)
C2_7 C 0.8947(4) 0.7812(3) 0.9793(3)
H8_7 H 0.9598 0.7907 0.9951
H14_7 H 0.8299 0.7775 0.9885
Zn5_4 Zn 0.95163(4) 0.77759(3) 0.81117(3)
Zn7_4 Zn 0.84135(4) 0.79177(3) 0.81263(3)
Zn2_5 Zn 0.20823(3) 0.15865(4) 0.31263(3)
O1_8 O 0.21363(18) 0.10315(23) 0.27800(17)
N1_8 N 0.2204(3) 0.1114(4) 0.0992(3)
O3_8 O 0.1517(2) 0.1035(3) 0.1886(2)
O8_8 O 0.06745(19) 0.13936(27) 0.2293(2)
N3_8 N 0.2052(3) 0.2183(4) 0.3512(3)
O9_8 O 0.1477(2) 0.1405(3) 0.2693(2)
O12_6 O 0.0009(3) 0.1617(4) 0.2743(2)
C3_8 C 0.2314(4) 0.3597(5) 0.3972(3)
C4_8 C 0.2215(4) 0.3091(5) 0.3827(3)
C6_8 C 0.0661(5) 0.1028(6) 0.1487(5)
H1_8 H 0.0738 0.0873 0.1200
C8_8 C 0.2400(4) 0.2458(6) 0.3884(4)
H2_8 H 0.2586 0.2336 0.4045
H3_8 H 0.2472 0.0094 0.4238
C10_8 C 0.1762(4) 0.2342(5) 0.3318(5)
H4_8 H 0.1504 0.2142 0.3076
C12_8 C 0.1332(3) 0.1221(4) 0.2203(3)
C13_8 C 0.2219(8) 0.0776(9) 0.0669(4)
H5_8 H 0.2235 0.0525 0.0856
C14_8 C 0.0287(5) 0.1339(6) 0.1961(3)
C15_8 C 0.2186(7) 0.1457(9) 0.0695(4)
H6_8 H 0.2200 0.1717 0.0896
C16_8 C 0.0268(7) 0.1126(8) 0.1479(4)
H7_8 H 0.0042 0.1051 0.1185
C17_8 C 0.0894(3) 0.1199(4) 0.1978(3)
C18_8 C 0.2148(8) 0.1457(9) 0.0124(3)
C19_8 C 0.2497(4) 0.2911(5) 0.4040(3)
H9_8 H 0.2753 0.3098 0.4291
C20_8 C 0.1833(5) 0.2804(6) 0.3468(5)
H10_8 H 0.1626 0.2910 0.3329
C24_8 C 0.2213(7) 0.0771(11) 0.0085(4)
O13_8 O 0.2536(2) 0.1859(3) 0.1941(2)
O14_8 O 0.2878(4) 0.0772(4) 0.2741(2)
O16_8 O 0.28858(34) 0.11852(39) 0.1965(2)
O17_5 O 0.2197(3) 0.0700(6) 0.39142(19)
O18_5 O 0.2131(3) 0.1360(6) 0.3909(2)
O19_8 O 0.2749(2) 0.2074(4) 0.2844(2)
O7_5 O 0.2197(3) 0.1496(5) 0.89142(19)
C1_8 C 0.2175(3) 0.1138(5) 0.9150(3)
O10_5 O 0.2131(3) 0.0770(5) 0.8909(2)
C2_8 C 0.2188(3) 0.1134(5) 0.9793(3)
H8_8 H 0.2093 0.1690 0.9951
H14_8 H 0.2225 0.0523 0.9885
Zn5_5 Zn 0.22241(3) 0.17403(5) 0.81117(3)
Zn7_5 Zn 0.20823(3) 0.04957(5) 0.81263(3)
N2_8 N 0.2330(3) 0.9909(4) 0.3439(2)
C5_8 C 0.2516(3) 0.9177(4) 0.3806(3)
C7_8 C 0.2617(3) 0.8784(4) 0.3986(3)
C9_8 C 0.2440(7) 0.9862(8) 0.3970(4)
C21_8 C 0.2297(6) 0.9566(7) 0.3104(4)
H11_8 H 0.2204 0.9569 0.2725
C22_8 C 0.2385(6) 0.9202(7) 0.3255(3)
H12_6 H 0.2357 0.8973 0.2984
C23_8 C 0.2511(8) 0.9482(9) 0.4158(4)
H13_8 H 0.2556 0.9453 0.4549
O5_6 O 0.9674(3) 0.1533(4) 0.1882(2)
C11_8 C 0.9963(4) 0.1511(5) 0.2214(3)
Zn4_4 Zn 0.95163(4) 0.17403(5) 0.31117(3)
Zn9_6 Zn 0.89143(4) 0.11025(5) 0.18961(3)
N2_9 N 0.0091(4) 0.2420(2) 0.3439(2)
C5_9 C 0.0823(4) 0.3338(3) 0.3806(3)
C7_9 C 0.1216(4) 0.3832(3) 0.3986(3)
C9_9 C 0.0138(8) 0.2577(4) 0.3970(4)
C21_9 C 0.0434(7) 0.2730(4) 0.3104(4)
H11_9 H 0.0431 0.2634 0.2725
C22_9 C 0.0798(7) 0.3182(4) 0.3255(3)
H12_7 H 0.1027 0.3383 0.2984
C23_9 C 0.0518(9) 0.3028(5) 0.4158(4)
H13_9 H 0.0547 0.3102 0.4549
Zn2_6 Zn 0.84135(4) 0.04957(3) 0.31263(3)
O1_9 O 0.89685(23) 0.11047(15) 0.27800(17)
N1_9 N 0.8886(4) 0.1089(2) 0.0992(3)
O3_9 O 0.8965(3) 0.0481(2) 0.1886(2)
O9_9 O 0.8595(3) 0.0071(2) 0.2693(2)
H2_9 H 0.7664 0.0249 0.4045
H3_9 H 0.9906 0.2377 0.4238
C12_9 C 0.8779(4) 0.0110(3) 0.2203(3)
C13_9 C 0.9224(9) 0.1442(5) 0.0669(4)
H5_9 H 0.9475 0.1709 0.0856
C15_9 C 0.8543(9) 0.0728(5) 0.0695(4)
H6_9 H 0.8283 0.0482 0.0896
C18_9 C 0.8543(9) 0.0690(5) 0.0124(3)
C24_9 C 0.9229(11) 0.1441(9) 0.0085(4)
O13_9 O 0.8141(3) 0.0678(2) 0.1941(2)
O14_9 O 0.9228(4) 0.2107(2) 0.2741(2)
O16_9 O 0.88148(39) 0.1701(2) 0.1965(2)
O17_6 O 0.9300(6) 0.1496(5) 0.39142(19)
O18_6 O 0.8640(6) 0.0770(5) 0.3909(2)
O19_9 O 0.7926(4) 0.0676(3) 0.2844(2)
O7_6 O 0.8504(5) 0.0700(4) 0.89142(19)
C1_9 C 0.8862(5) 0.1036(4) 0.9150(3)
O10_6 O 0.9230(5) 0.1360(4) 0.8909(2)
C2_9 C 0.8866(5) 0.1053(4) 0.9793(3)
H8_9 H 0.8310 0.0402 0.9951
H14_9 H 0.9477 0.1701 0.9885
Zn5_6 Zn 0.82597(5) 0.04837(4) 0.81117(3)
Zn7_6 Zn 0.95043(5) 0.15865(4) 0.81263(3)
O8_9 O 0.86064(27) 0.92808(19) 0.2293(2)
N3_9 N 0.7817(4) 0.9868(3) 0.3512(3)
C3_9 C 0.6403(5) 0.8716(3) 0.3972(3)
C4_9 C 0.6909(5) 0.9123(3) 0.3827(3)
C6_9 C 0.8972(6) 0.9632(4) 0.1487(5)
H1_9 H 0.9127 0.9864 0.1200
C8_9 C 0.7542(6) 0.9941(4) 0.3884(4)
C10_9 C 0.7658(5) 0.9419(3) 0.3318(5)
H4_9 H 0.7858 0.9361 0.3076
C11_9 C 0.8489(5) 0.8451(3) 0.2214(3)
C14_9 C 0.8661(6) 0.8947(3) 0.1961(3)
C16_9 C 0.8874(8) 0.9141(4) 0.1479(4)
H7_9 H 0.8949 0.8990 0.1185
C17_9 C 0.8801(4) 0.9694(3) 0.1978(3)
C19_9 C 0.7089(5) 0.9585(3) 0.4040(3)
H9_9 H 0.6902 0.9654 0.4291
C20_9 C 0.7196(6) 0.9028(4) 0.3468(5)
H10_9 H 0.7090 0.8715 0.3329
Zn3_4 Zn 0.21883(3) 0.11025(3) 0.68961(3)
O1_10 O 0.21363(18) 0.11047(15) 0.77800(17)
N1_10 N 0.2204(3) 0.1089(2) 0.5992(3)
N2_10 N 0.2330(3) 0.2420(2) 0.8439(2)
O3_10 O 0.1517(2) 0.0481(2) 0.6886(2)
C1_10 C 0.2175(3) 0.1036(4) 0.4150(3)
O9_10 O 0.1477(2) 0.0071(2) 0.7693(2)
C2_10 C 0.2188(3) 0.1053(4) 0.4793(3)
C5_10 C 0.2516(3) 0.3338(3) 0.8806(3)
C7_10 C 0.2617(3) 0.3832(3) 0.8986(3)
H2_10 H 0.2586 0.0249 0.9045
C9_10 C 0.2440(7) 0.2577(4) 0.8970(4)
H3_10 H 0.2472 0.2377 0.9238
C12_10 C 0.1332(3) 0.0110(3) 0.7203(3)
C13_10 C 0.2219(8) 0.1442(5) 0.5669(4)
H5_10 H 0.2235 0.1709 0.5856
C15_10 C 0.2186(7) 0.0728(5) 0.5695(4)
H6_10 H 0.2200 0.0482 0.5896
C18_10 C 0.2148(8) 0.0690(5) 0.5124(3)
H8_10 H 0.2093 0.0402 0.4951
C21_10 C 0.2297(6) 0.2730(4) 0.8104(4)
H11_10 H 0.2204 0.2634 0.7725
C22_10 C 0.2385(6) 0.3182(4) 0.8255(3)
H12_8 H 0.2357 0.3383 0.7984
C23_10 C 0.2511(8) 0.3028(5) 0.9158(4)
H13_10 H 0.2556 0.3102 0.9549
C24_10 C 0.2213(7) 0.1441(9) 0.5085(4)
H14_10 H 0.2225 0.1701 0.4885
O13_10 O 0.2536(2) 0.0678(2) 0.6941(2)
O14_10 O 0.2878(4) 0.2107(2) 0.7741(2)
O15_4 O 0.1860(2) 0.1533(4) 0.6882(2)
O16_10 O 0.28858(34) 0.1701(2) 0.6965(2)
O19_10 O 0.2749(2) 0.0676(3) 0.7844(2)
O20_4 O 0.1609(2) 0.1617(4) 0.7743(2)
O8_10 O 0.06745(19) 0.92808(19) 0.7293(2)
N3_10 N 0.2052(3) 0.9868(3) 0.8512(3)
O12_7 O 0.0009(3) 0.8391(2) 0.7743(2)
C3_10 C 0.2314(4) 0.8716(3) 0.8972(3)
C4_10 C 0.2215(4) 0.9123(3) 0.8827(3)
C6_10 C 0.0661(5) 0.9632(4) 0.6487(5)
H1_10 H 0.0738 0.9864 0.6200
C8_10 C 0.2400(4) 0.9941(4) 0.8884(4)
C10_10 C 0.1762(4) 0.9419(3) 0.8318(5)
H4_10 H 0.1504 0.9361 0.8076
C14_10 C 0.0287(5) 0.8947(3) 0.6961(3)
C16_10 C 0.0268(7) 0.9141(4) 0.6479(4)
H7_10 H 0.0042 0.8990 0.6185
C17_10 C 0.0894(3) 0.9694(3) 0.6978(3)
C19_10 C 0.2497(4) 0.9585(3) 0.9040(3)
H9_10 H 0.2753 0.9654 0.9291
C20_10 C 0.1833(5) 0.9028(4) 0.8468(5)
H10_10 H 0.1626 0.8715 0.8329
O5_7 O 0.9674(3) 0.8140(2) 0.6882(2)
C11_10 C 0.9963(4) 0.8451(3) 0.7214(3)
Zn9_7 Zn 0.89143(4) 0.78117(3) 0.68961(3)
N2_11 N 0.0091(4) 0.7670(3) 0.8439(2)
C5_11 C 0.0823(4) 0.7484(3) 0.8806(3)
C7_11 C 0.1216(4) 0.7383(3) 0.8986(3)
C9_11 C 0.0138(8) 0.7560(7) 0.8970(4)
C21_11 C 0.0434(7) 0.7703(6) 0.8104(4)
H11_11 H 0.0431 0.7796 0.7725
C22_11 C 0.0798(7) 0.7615(6) 0.8255(3)
H12_9 H 0.1027 0.7643 0.7984
C23_11 C 0.0518(9) 0.7489(8) 0.9158(4)
H13_11 H 0.0547 0.7444 0.9549
O5_8 O 0.8467(4) 0.0326(3) 0.6882(2)
C11_11 C 0.8489(5) 0.0037(4) 0.7214(3)
Zn9_8 Zn 0.88975(5) 0.10857(4) 0.68961(3)
O1_11 O 0.89685(23) 0.78637(18) 0.77800(17)
N1_11 N 0.8886(4) 0.7796(3) 0.5992(3)
O3_11 O 0.8965(3) 0.8483(2) 0.6886(2)
O8_11 O 0.86064(27) 0.93255(19) 0.7293(2)
C1_11 C 0.8862(5) 0.7825(3) 0.4150(3)
N3_11 N 0.7817(4) 0.7948(3) 0.8512(3)
O9_11 O 0.8595(3) 0.8523(2) 0.7693(2)
O12_8 O 0.8383(4) 0.9991(3) 0.7743(2)
C2_11 C 0.8866(5) 0.7812(3) 0.4793(3)
C3_11 C 0.6403(5) 0.7686(4) 0.8972(3)
C4_11 C 0.6909(5) 0.7785(4) 0.8827(3)
C6_11 C 0.8972(6) 0.9339(5) 0.6487(5)
H1_11 H 0.9127 0.9262 0.6200
C8_11 C 0.7542(6) 0.7600(4) 0.8884(4)
H2_11 H 0.7664 0.7414 0.9045
H3_11 H 0.9906 0.7528 0.9238
C10_11 C 0.7658(5) 0.8238(4) 0.8318(5)
H4_11 H 0.7858 0.8496 0.8076
C12_11 C 0.8779(4) 0.8668(3) 0.7203(3)
C13_11 C 0.9224(9) 0.7781(8) 0.5669(4)
H5_11 H 0.9475 0.7765 0.5856
C14_11 C 0.8661(6) 0.9713(5) 0.6961(3)
C15_11 C 0.8543(9) 0.7814(7) 0.5695(4)
H6_11 H 0.8283 0.7800 0.5896
C16_11 C 0.8874(8) 0.9732(7) 0.6479(4)
H7_11 H 0.8949 0.9958 0.6185
C17_11 C 0.8801(4) 0.9106(3) 0.6978(3)
C18_11 C 0.8543(9) 0.7852(8) 0.5124(3)
H8_11 H 0.8310 0.7907 0.4951
C19_11 C 0.7089(5) 0.7503(4) 0.9040(3)
H9_11 H 0.6902 0.7247 0.9291
C20_11 C 0.7196(6) 0.8167(5) 0.8468(5)
H10_11 H 0.7090 0.8374 0.8329
C24_11 C 0.9229(11) 0.7787(7) 0.5085(4)
H14_11 H 0.9477 0.7775 0.4885
O13_11 O 0.8141(3) 0.7464(2) 0.6941(2)
O14_11 O 0.9228(4) 0.7122(4) 0.7741(2)
O16_11 O 0.88148(39) 0.71142(34) 0.6965(2)
O19_11 O 0.7926(4) 0.7251(2) 0.7844(2)
O8_12 O 0.07192(19) 0.13936(27) 0.7293(2)
N3_12 N 0.0132(3) 0.2183(4) 0.8512(3)
C3_12 C 0.1284(3) 0.3597(5) 0.8972(3)
C4_12 C 0.0877(3) 0.3091(5) 0.8827(3)
C6_12 C 0.0368(4) 0.1028(6) 0.6487(5)
H1_12 H 0.0136 0.0873 0.6200
C8_12 C 0.0059(4) 0.2458(6) 0.8884(4)
C10_12 C 0.0581(3) 0.2342(5) 0.8318(5)
H4_12 H 0.0639 0.2142 0.8076
C11_12 C 0.1549(3) 0.1511(5) 0.7214(3)
C14_12 C 0.1053(3) 0.1339(6) 0.6961(3)
C16_12 C 0.0859(4) 0.1126(8) 0.6479(4)
H7_12 H 0.1010 0.1051 0.6185
C17_12 C 0.0306(3) 0.1199(4) 0.6978(3)
C19_12 C 0.0415(3) 0.2911(5) 0.9040(3)
H9_12 H 0.0346 0.3098 0.9291
C20_12 C 0.0972(4) 0.2804(6) 0.8468(5)
H10_12 H 0.1285 0.2910 0.8329
O1_12 O 0.88953(15) 0.10315(23) 0.77800(17)
N1_12 N 0.8911(2) 0.1114(4) 0.5992(3)
O3_12 O 0.9519(2) 0.1035(3) 0.6886(2)
C1_12 C 0.8964(4) 0.1138(5) 0.4150(3)
O9_12 O 0.9929(2) 0.1405(3) 0.7693(2)
C2_12 C 0.8947(4) 0.1134(5) 0.4793(3)
H2_12 H 0.9751 0.2336 0.9045
H3_12 H 0.7623 0.0094 0.9238
C12_12 C 0.9890(3) 0.1221(4) 0.7203(3)
C13_12 C 0.8558(5) 0.0776(9) 0.5669(4)
H5_12 H 0.8291 0.0525 0.5856
C15_12 C 0.9272(5) 0.1457(9) 0.5695(4)
H6_12 H 0.9518 0.1717 0.5896
C18_12 C 0.9310(5) 0.1457(9) 0.5124(3)
H8_12 H 0.9598 0.1690 0.4951
C24_12 C 0.8559(9) 0.0771(11) 0.5085(4)
H14_12 H 0.8299 0.0523 0.4885
O13_12 O 0.9322(2) 0.1859(3) 0.6941(2)
O14_12 O 0.7893(2) 0.0772(4) 0.7741(2)
O16_12 O 0.8299(2) 0.11852(39) 0.6965(2)
O19_12 O 0.9324(3) 0.2074(4) 0.7844(2)
N2_12 N 0.7580(2) 0.9909(4) 0.8439(2)
C5_12 C 0.6662(3) 0.9177(4) 0.8806(3)
C7_12 C 0.6168(3) 0.8784(4) 0.8986(3)
C9_12 C 0.7423(4) 0.9862(8) 0.8970(4)
C21_12 C 0.7270(4) 0.9566(7) 0.8104(4)
H11_12 H 0.7366 0.9569 0.7725
C22_12 C 0.6818(4) 0.9202(7) 0.8255(3)
H12_10 H 0.6617 0.8973 0.7984
C23_12 C 0.6972(5) 0.9482(9) 0.9158(4)
H13_12 H 0.6898 0.9453 0.9549
O1_13 O 0.55619(15) 0.11971(18) 0.61134(17)
N1_13 N 0.5577(2) 0.1130(3) 0.4326(3)
N2_13 N 0.4246(2) 0.1004(3) 0.6773(2)
O3_13 O 0.6185(2) 0.1817(2) 0.5220(2)
O5_9 O 0.8526(2) 0.3660(3) 0.5216(2)
O7_7 O 0.5966(4) 0.1137(3) 0.22476(19)
O8_13 O 0.73858(19) 0.26589(19) 0.5627(2)
C1_13 C 0.5630(4) 0.1159(3) 0.2484(3)
N3_13 N 0.6798(3) 0.1282(3) 0.6846(3)
O9_13 O 0.6595(2) 0.1857(2) 0.6027(2)
O10_7 O 0.5306(4) 0.1203(3) 0.2243(2)
O12_9 O 0.8275(2) 0.3325(3) 0.6077(2)
C2_13 C 0.5613(4) 0.1146(3) 0.3127(3)
C3_13 C 0.7950(3) 0.1020(4) 0.7306(3)
C4_13 C 0.7543(3) 0.1119(4) 0.7161(3)
C5_13 C 0.3328(3) 0.0818(3) 0.7140(3)
C6_13 C 0.7034(4) 0.2673(5) 0.4821(5)
H1_13 H 0.6802 0.2596 0.4534
C7_13 C 0.2834(3) 0.0717(3) 0.7320(3)
C8_13 C 0.6725(4) 0.0934(4) 0.7218(4)
H2_13 H 0.6417 0.0748 0.7379
C9_13 C 0.4089(4) 0.0894(7) 0.7304(4)
H3_13 H 0.4289 0.0862 0.7572
C10_13 C 0.7247(3) 0.1572(4) 0.6652(5)
H4_13 H 0.7305 0.1830 0.6410
C11_13 C 0.8215(3) 0.3371(4) 0.5548(3)
C12_13 C 0.6556(3) 0.2002(3) 0.5537(3)
C13_13 C 0.5224(5) 0.1115(8) 0.4003(4)
H5_13 H 0.4957 0.1099 0.4190
C14_13 C 0.7719(3) 0.3047(5) 0.5295(3)
C15_13 C 0.5938(5) 0.1148(7) 0.4029(4)
H6_13 H 0.6184 0.1134 0.4230
C16_13 C 0.7525(4) 0.3066(7) 0.4813(4)
H7_13 H 0.7676 0.3292 0.4519
C17_13 C 0.6972(3) 0.2440(3) 0.5312(3)
C18_13 C 0.5976(5) 0.1186(8) 0.3458(3)
H8_13 H 0.6264 0.1241 0.3285
C19_13 C 0.7081(3) 0.0837(4) 0.7374(3)
H9_13 H 0.7012 0.0581 0.7625
C20_13 C 0.7638(4) 0.1501(5) 0.6802(5)
H10_13 H 0.7951 0.1708 0.6663
C21_13 C 0.3936(4) 0.1037(6) 0.6438(4)
H11_13 H 0.4032 0.1130 0.6059
C22_13 C 0.3484(4) 0.0949(6) 0.6589(3)
H12_11 H 0.3283 0.0977 0.6318
C23_13 C 0.3638(5) 0.0823(8) 0.7492(4)
H13_13 H 0.3564 0.0778 0.7883
C24_13 C 0.5225(9) 0.1121(7) 0.3419(4)
H14_13 H 0.4965 0.1109 0.3219
O15_5 O 0.5133(4) 0.1474(2) 0.5216(2)
O17_7 O 0.5170(5) 0.1137(3) 0.72476(19)
O18_7 O 0.5896(5) 0.1203(3) 0.7243(2)
O20_5 O 0.5049(4) 0.1725(2) 0.6077(2)
O1_14 O 0.88029(18) 0.43649(23) 0.61134(17)
N1_14 N 0.8870(3) 0.4448(4) 0.4326(3)
N2_14 N 0.8996(3) 0.3243(4) 0.6773(2)
O3_14 O 0.8183(2) 0.4369(3) 0.5220(2)
O5_10 O 0.6340(3) 0.4867(4) 0.5216(2)
O7_8 O 0.8863(3) 0.4830(5) 0.22476(19)
O8_14 O 0.73411(19) 0.47270(27) 0.5627(2)
C1_14 C 0.8841(3) 0.4472(5) 0.2484(3)
N3_14 N 0.8718(3) 0.5517(4) 0.6846(3)
O9_14 O 0.8143(2) 0.4739(3) 0.6027(2)
O10_8 O 0.8797(3) 0.4104(5) 0.2243(2)
O12_10 O 0.6675(3) 0.4951(4) 0.6077(2)
C2_14 C 0.8854(3) 0.4468(5) 0.3127(3)
C3_14 C 0.8980(4) 0.6931(5) 0.7306(3)
C4_14 C 0.8881(4) 0.6425(5) 0.7161(3)
C5_14 C 0.9182(3) 0.2511(4) 0.7140(3)
C6_14 C 0.7327(5) 0.4362(6) 0.4821(5)
H1_14 H 0.7404 0.4207 0.4534
C7_14 C 0.9283(3) 0.2118(4) 0.7320(3)
C8_14 C 0.9066(4) 0.5792(6) 0.7218(4)
H2_14 H 0.9252 0.5670 0.7379
C9_14 C 0.9106(7) 0.3196(8) 0.7304(4)
H3_14 H 0.9138 0.3428 0.7572
C10_14 C 0.8428(4) 0.5676(5) 0.6652(5)
H4_14 H 0.8170 0.5476 0.6410
C11_14 C 0.6629(4) 0.4845(5) 0.5548(3)
C12_14 C 0.7998(3) 0.4555(4) 0.5537(3)
C13_14 C 0.8885(8) 0.4110(9) 0.4003(4)
H5_14 H 0.8901 0.3859 0.4190
C14_14 C 0.6953(5) 0.4673(6) 0.5295(3)
C15_14 C 0.8852(7) 0.4791(9) 0.4029(4)
H6_14 H 0.8866 0.5051 0.4230
C16_14 C 0.6934(7) 0.4460(8) 0.4813(4)
H7_14 H 0.6708 0.4385 0.4519
C17_14 C 0.7560(3) 0.4533(4) 0.5312(3)
C18_14 C 0.8814(8) 0.4791(9) 0.3458(3)
H8_14 H 0.8759 0.5024 0.3285
C19_14 C 0.9163(4) 0.6245(5) 0.7374(3)
H9_14 H 0.9419 0.6432 0.7625
C20_14 C 0.8499(5) 0.6138(6) 0.6802(5)
H10_14 H 0.8292 0.6244 0.6663
C21_14 C 0.8963(6) 0.2900(7) 0.6438(4)
H11_14 H 0.8870 0.2903 0.6059
C22_14 C 0.9051(6) 0.2536(7) 0.6589(3)
H12_12 H 0.9023 0.2307 0.6318
C23_14 C 0.9177(8) 0.2816(9) 0.7492(4)
H13_14 H 0.9222 0.2787 0.7883
C24_14 C 0.8879(7) 0.4105(11) 0.3419(4)
H14_14 H 0.8891 0.3857 0.3219
O17_8 O 0.8863(3) 0.4034(6) 0.72476(19)
O18_8 O 0.8797(3) 0.4694(6) 0.7243(2)
O1_15 O 0.56351(23) 0.44381(15) 0.61134(17)
N1_15 N 0.5552(4) 0.4423(2) 0.4326(3)
N2_15 N 0.6757(4) 0.5754(2) 0.6773(2)
O3_15 O 0.5631(3) 0.3815(2) 0.5220(2)
O7_9 O 0.5170(5) 0.4034(4) 0.22476(19)
O8_15 O 0.52730(27) 0.26142(19) 0.5627(2)
C1_15 C 0.5528(5) 0.4370(4) 0.2484(3)
N3_15 N 0.4483(4) 0.3202(3) 0.6846(3)
O9_15 O 0.5261(3) 0.3405(2) 0.6027(2)
O10_9 O 0.5896(5) 0.4694(4) 0.2243(2)
C2_15 C 0.5532(5) 0.4387(4) 0.3127(3)
C3_15 C 0.3069(5) 0.2050(3) 0.7306(3)
C4_15 C 0.3575(5) 0.2457(3) 0.7161(3)
C5_15 C 0.7489(4) 0.6672(3) 0.7140(3)
C6_15 C 0.5638(6) 0.2966(4) 0.4821(5)
H1_15 H 0.5793 0.3198 0.4534
C7_15 C 0.7882(4) 0.7166(3) 0.7320(3)
C8_15 C 0.4208(6) 0.3275(4) 0.7218(4)
H2_15 H 0.4330 0.3583 0.7379
C9_15 C 0.6804(8) 0.5911(4) 0.7304(4)
H3_15 H 0.6572 0.5711 0.7572
C10_15 C 0.4324(5) 0.2753(3) 0.6652(5)
H4_15 H 0.4524 0.2695 0.6410
C11_15 C 0.5155(5) 0.1785(3) 0.5548(3)
C12_15 C 0.5445(4) 0.3444(3) 0.5537(3)
C13_15 C 0.5890(9) 0.4776(5) 0.4003(4)
H5_15 H 0.6141 0.5043 0.4190
C14_15 C 0.5327(6) 0.2281(3) 0.5295(3)
C15_15 C 0.5209(9) 0.4062(5) 0.4029(4)
H6_15 H 0.4949 0.3816 0.4230
C16_15 C 0.5540(8) 0.2475(4) 0.4813(4)
H7_15 H 0.5615 0.2324 0.4519
C17_15 C 0.5467(4) 0.3028(3) 0.5312(3)
C18_15 C 0.5209(9) 0.4024(5) 0.3458(3)
H8_15 H 0.4976 0.3736 0.3285
C19_15 C 0.3755(5) 0.2919(3) 0.7374(3)
H9_15 H 0.3568 0.2988 0.7625
C20_15 C 0.3862(6) 0.2362(4) 0.6802(5)
H10_15 H 0.3756 0.2049 0.6663
C21_15 C 0.7100(7) 0.6064(4) 0.6438(4)
H11_15 H 0.7097 0.5968 0.6059
C22_15 C 0.7464(7) 0.6516(4) 0.6589(3)
H12_13 H 0.7693 0.6717 0.6318
C23_15 C 0.7184(9) 0.6362(5) 0.7492(4)
H13_15 H 0.7213 0.6436 0.7883
C24_15 C 0.5895(11) 0.4775(9) 0.3419(4)
H14_15 H 0.6143 0.5035 0.3219
O17_9 O 0.5966(6) 0.4830(5) 0.72476(19)
O18_9 O 0.5306(6) 0.4104(5) 0.7243(2)
O1_16 O 0.88029(18) 0.44381(15) 0.11134(17)
N2_16 N 0.8996(3) 0.5754(2) 0.1773(2)
O3_16 O 0.8183(2) 0.3815(2) 0.0220(2)
O5_11 O 0.6340(3) 0.1474(2) 0.0216(2)
O8_16 O 0.73411(19) 0.26142(19) 0.0627(2)
N3_16 N 0.8718(3) 0.3202(3) 0.1846(3)
O9_16 O 0.8143(2) 0.3405(2) 0.1027(2)
O12_11 O 0.6675(3) 0.1725(2) 0.1077(2)
C3_16 C 0.8980(4) 0.2050(3) 0.2306(3)
C4_16 C 0.8881(4) 0.2457(3) 0.2161(3)
C5_16 C 0.9182(3) 0.6672(3) 0.2140(3)
C7_16 C 0.9283(3) 0.7166(3) 0.2320(3)
C8_16 C 0.9066(4) 0.3275(4) 0.2218(4)
H2_16 H 0.9252 0.3583 0.2379
C9_16 C 0.9106(7) 0.5911(4) 0.2304(4)
H3_16 H 0.9138 0.5711 0.2572
C10_16 C 0.8428(4) 0.2753(3) 0.1652(5)
H4_16 H 0.8170 0.2695 0.1410
C11_16 C 0.6629(4) 0.1785(3) 0.0548(3)
C12_16 C 0.7998(3) 0.3444(3) 0.0537(3)
C14_16 C 0.6953(5) 0.2281(3) 0.0295(3)
C17_16 C 0.7560(3) 0.3028(3) 0.0312(3)
C19_16 C 0.9163(4) 0.2919(3) 0.2374(3)
H9_16 H 0.9419 0.2988 0.2625
C20_16 C 0.8499(5) 0.2362(4) 0.1802(5)
H10_16 H 0.8292 0.2049 0.1663
C21_16 C 0.8963(6) 0.6064(4) 0.1438(4)
H11_16 H 0.8870 0.5968 0.1059
C22_16 C 0.9051(6) 0.6516(4) 0.1589(3)
H12_14 H 0.9023 0.6717 0.1318
C23_16 C 0.9177(8) 0.6362(5) 0.2492(4)
H13_16 H 0.9222 0.6436 0.2883
O15_6 O 0.8526(2) 0.4867(4) 0.0216(2)
O20_6 O 0.8275(2) 0.4951(4) 0.1077(2)
N1_16 N 0.8870(3) 0.4423(2) 0.9326(3)
C1_16 C 0.8841(3) 0.4370(4) 0.7484(3)
C2_16 C 0.8854(3) 0.4387(4) 0.8127(3)
C6_16 C 0.7327(5) 0.2966(4) 0.9821(5)
H1_16 H 0.7404 0.3198 0.9534
C13_16 C 0.8885(8) 0.4776(5) 0.9003(4)
H5_16 H 0.8901 0.5043 0.9190
C15_16 C 0.8852(7) 0.4062(5) 0.9029(4)
H6_16 H 0.8866 0.3816 0.9230
C16_16 C 0.6934(7) 0.2475(4) 0.9813(4)
H7_16 H 0.6708 0.2324 0.9519
C18_16 C 0.8814(8) 0.4024(5) 0.8458(3)
H8_16 H 0.8759 0.3736 0.8285
C24_16 C 0.8879(7) 0.4775(9) 0.8419(4)
H14_16 H 0.8891 0.5035 0.8219
O1_17 O 0.56351(23) 0.11971(18) 0.11134(17)
N2_17 N 0.6757(4) 0.1004(3) 0.1773(2)
O3_17 O 0.5631(3) 0.1817(2) 0.0220(2)
O5_12 O 0.5133(4) 0.3660(3) 0.0216(2)
O8_17 O 0.52730(27) 0.26589(19) 0.0627(2)
N3_17 N 0.4483(4) 0.1282(3) 0.1846(3)
O9_17 O 0.5261(3) 0.1857(2) 0.1027(2)
O12_12 O 0.5049(4) 0.3325(3) 0.1077(2)
C3_17 C 0.3069(5) 0.1020(4) 0.2306(3)
C4_17 C 0.3575(5) 0.1119(4) 0.2161(3)
C5_17 C 0.7489(4) 0.0818(3) 0.2140(3)
C7_17 C 0.7882(4) 0.0717(3) 0.2320(3)
C8_17 C 0.4208(6) 0.0934(4) 0.2218(4)
H2_17 H 0.4330 0.0748 0.2379
C9_17 C 0.6804(8) 0.0894(7) 0.2304(4)
H3_17 H 0.6572 0.0862 0.2572
C10_17 C 0.4324(5) 0.1572(4) 0.1652(5)
H4_17 H 0.4524 0.1830 0.1410
C11_17 C 0.5155(5) 0.3371(4) 0.0548(3)
C12_17 C 0.5445(4) 0.2002(3) 0.0537(3)
C14_17 C 0.5327(6) 0.3047(5) 0.0295(3)
C17_17 C 0.5467(4) 0.2440(3) 0.0312(3)
C19_17 C 0.3755(5) 0.0837(4) 0.2374(3)
H9_17 H 0.3568 0.0581 0.2625
C20_17 C 0.3862(6) 0.1501(5) 0.1802(5)
H10_17 H 0.3756 0.1708 0.1663
C21_17 C 0.7100(7) 0.1037(6) 0.1438(4)
H11_17 H 0.7097 0.1130 0.1059
C22_17 C 0.7464(7) 0.0949(6) 0.1589(3)
H12_15 H 0.7693 0.0977 0.1318
C23_17 C 0.7184(9) 0.0823(8) 0.2492(4)
H13_17 H 0.7213 0.0778 0.2883
N1_17 N 0.5552(4) 0.1130(3) 0.9326(3)
C1_17 C 0.5528(5) 0.1159(3) 0.7484(3)
C2_17 C 0.5532(5) 0.1146(3) 0.8127(3)
C6_17 C 0.5638(6) 0.2673(5) 0.9821(5)
H1_17 H 0.5793 0.2596 0.9534
C13_17 C 0.5890(9) 0.1115(8) 0.9003(4)
H5_17 H 0.6141 0.1099 0.9190
C15_17 C 0.5209(9) 0.1148(7) 0.9029(4)
H6_17 H 0.4949 0.1134 0.9230
C16_17 C 0.5540(8) 0.3066(7) 0.9813(4)
H7_17 H 0.5615 0.3292 0.9519
C18_17 C 0.5209(9) 0.1186(8) 0.8458(3)
H8_17 H 0.4976 0.1241 0.8285
C24_17 C 0.5895(11) 0.1121(7) 0.8419(4)
H14_17 H 0.6143 0.1109 0.8219
O1_18 O 0.55619(15) 0.43649(23) 0.11134(17)
N2_18 N 0.4246(2) 0.3243(4) 0.1773(2)
O3_18 O 0.6185(2) 0.4369(3) 0.0220(2)
O8_18 O 0.73858(19) 0.47270(27) 0.0627(2)
N3_18 N 0.6798(3) 0.5517(4) 0.1846(3)
O9_18 O 0.6595(2) 0.4739(3) 0.1027(2)
C3_18 C 0.7950(3) 0.6931(5) 0.2306(3)
C4_18 C 0.7543(3) 0.6425(5) 0.2161(3)
C5_18 C 0.3328(3) 0.2511(4) 0.2140(3)
C7_18 C 0.2834(3) 0.2118(4) 0.2320(3)
C8_18 C 0.6725(4) 0.5792(6) 0.2218(4)
H2_18 H 0.6417 0.5670 0.2379
C9_18 C 0.4089(4) 0.3196(8) 0.2304(4)
H3_18 H 0.4289 0.3428 0.2572
C10_18 C 0.7247(3) 0.5676(5) 0.1652(5)
H4_18 H 0.7305 0.5476 0.1410
C11_18 C 0.8215(3) 0.4845(5) 0.0548(3)
C12_18 C 0.6556(3) 0.4555(4) 0.0537(3)
C14_18 C 0.7719(3) 0.4673(6) 0.0295(3)
C17_18 C 0.6972(3) 0.4533(4) 0.0312(3)
C19_18 C 0.7081(3) 0.6245(5) 0.2374(3)
H9_18 H 0.7012 0.6432 0.2625
C20_18 C 0.7638(4) 0.6138(6) 0.1802(5)
H10_18 H 0.7951 0.6244 0.1663
C21_18 C 0.3936(4) 0.2900(7) 0.1438(4)
H11_18 H 0.4032 0.2903 0.1059
C22_18 C 0.3484(4) 0.2536(7) 0.1589(3)
H12_16 H 0.3283 0.2307 0.1318
C23_18 C 0.3638(5) 0.2816(9) 0.2492(4)
H13_18 H 0.3564 0.2787 0.2883
N1_18 N 0.5577(2) 0.4448(4) 0.9326(3)
C1_18 C 0.5630(4) 0.4472(5) 0.7484(3)
C2_18 C 0.5613(4) 0.4468(5) 0.8127(3)
C6_18 C 0.7034(4) 0.4362(6) 0.9821(5)
H1_18 H 0.6802 0.4207 0.9534
C13_18 C 0.5224(5) 0.4110(9) 0.9003(4)
H5_18 H 0.4957 0.3859 0.9190
C15_18 C 0.5938(5) 0.4791(9) 0.9029(4)
H6_18 H 0.6184 0.5051 0.9230
C16_18 C 0.7525(4) 0.4460(8) 0.9813(4)
H7_18 H 0.7676 0.4385 0.9519
C18_18 C 0.5976(5) 0.4791(9) 0.8458(3)
H8_18 H 0.6264 0.5024 0.8285
C24_18 C 0.5225(9) 0.4105(11) 0.8419(4)
H14_18 H 0.4965 0.3857 0.8219
H12_17 H 0.9950 0.4310 0.9651
H12_18 H 0.4360 0.0050 0.9651
loop_
_geom_bond_atom_site_label_1
_geom_bond_atom_site_label_2
_geom_bond_site_symmetry_1
_geom_bond_site_symmetry_2
O4 C3 1_555 1_555
O6 C3 1_555 1_555
C3 C4 1_555 1_555
C4 C19 1_555 1_555
C8 N3 1_555 1_555
H2 C8 1_555 1_555
C9 N2 1_555 1_555
H3 C9 1_555 1_555
C19 C8 1_555 1_555
H9 C19 1_555 1_555
C20 C4 1_555 1_555
H13 C23 1_555 1_555
Zn6 O4 1_555 1_555
Zn11 O6 1_555 1_555
C9 C23 1_555 1_555
Zn1 O1 1_555 1_555
Zn2 O1 1_555 1_555
Zn3 O1 1_555 1_555
N1 Zn3 1_555 1_555
O3 Zn3 1_555 1_555
O5 C11 1_555 1_555
O7 C1 1_555 1_555
O8 C14 1_555 1_555
C1 O10 1_555 1_555
O9 Zn2 1_555 1_555
O10 Zn7 1_555 1_555
O12 C11 1_555 1_555
C2 C1 1_555 1_555
C6 H1 1_555 1_555
H4 C10 1_555 1_555
C11 C14 1_555 1_555
C12 O3 1_555 1_555
C13 N1 1_555 1_555
H5 C13 1_555 1_555
C14 C16 1_555 1_555
C15 N1 1_555 1_555
H6 C15 1_555 1_555
C16 C6 1_555 1_555
H7 C16 1_555 1_555
C17 O8 1_555 1_555
C18 C2 1_555 1_555
H8 C18 1_555 1_555
H11 C21 1_555 1_555
C24 C2 1_555 1_555
H14 C24 1_555 1_555
Zn4 O12 1_555 1_555
Zn5 O7 1_555 1_555
Zn9 O5 1_555 1_555
O13 Zn3 1_555 1_555
O14 Zn1 1_555 1_555
O15 Zn3 1_555 1_555
O16 Zn3 1_555 1_555
O19 Zn2 1_555 1_555
O20 Zn1 1_555 1_555
O9 C12 1_555 1_555
C6 C17 1_555 1_555
C12 C17 1_555 1_555
C13 C24 1_555 1_555
C15 C18 1_555 1_555
C21 C22 1_555 1_555
O2 C7 1_555 1_555
O11 C7 1_555 1_555
C5 C7 1_555 1_555
Zn8 O11 1_555 1_555
Zn10 O2 1_555 1_555
O4_2 C3_2 1_555 1_555
O6_2 C3_2 1_555 1_555
Zn6_2 O4_2 1_555 1_555
Zn11_2 O6_2 1_555 1_555
O2_2 C7_2 1_555 1_555
O11_2 C7_2 1_555 1_555
C4_2 C19_2 1_555 1_555
C5_2 C7_2 1_555 1_555
C8_2 N3_2 1_555 1_555
H2_2 C8_2 1_555 1_555
C9_2 N2_2 1_555 1_555
H3_2 C9_2 1_555 1_555
C19_2 C8_2 1_555 1_555
H9_2 C19_2 1_555 1_555
C20_2 C4_2 1_555 1_555
C23_2 C5_2 1_555 1_555
H13_2 C23_2 1_555 1_555
Zn8_2 O11_2 1_555 1_555
Zn11 O2_2 1_555 1_555
C9_2 C23_2 1_555 1_555
Zn4 O1_2 1_555 1_555
Zn2_2 O1_2 1_555 1_555
Zn9 O1_2 1_555 1_555
N1_2 Zn9 1_555 1_555
O3_2 Zn9 1_555 1_555
O5_2 C11_2 1_555 1_555
O7_2 C1_2 1_555 1_555
O8_2 C14_2 1_555 1_555
C1_2 O10_2 1_555 1_555
O9_2 Zn2_2 1_555 1_555
O10_2 Zn7_2 1_555 1_555
O12_2 C11_2 1_555 1_555
C2_2 C1_2 1_555 1_555
C6_2 H1_2 1_555 1_555
H4_2 C10_2 1_555 1_555
C11_2 C14_2 1_555 1_555
C12_2 O3_2 1_555 1_555
C13_2 N1_2 1_555 1_555
H5_2 C13_2 1_555 1_555
C14_2 C16_2 1_555 1_555
C15_2 N1_2 1_555 1_555
H6_2 C15_2 1_555 1_555
C16_2 C6_2 1_555 1_555
H7_2 C16_2 1_555 1_555
C17_2 O8_2 1_555 1_555
C18_2 C2_2 1_555 1_555
H8_2 C18_2 1_555 1_555
H11_2 C21_2 1_555 1_555
H12 C22_2 1_555 1_555
C24_2 C2_2 1_555 1_555
H14_2 C24_2 1_555 1_555
Zn4_2 O12_2 1_555 1_555
Zn5_2 O7_2 1_555 1_555
Zn9_2 O5_2 1_555 1_555
O13_2 Zn9 1_555 1_555
O14_2 Zn4 1_555 1_555
O16_2 Zn9 1_555 1_555
O19_2 Zn2_2 1_555 1_555
O9_2 C12_2 1_555 1_555
C6_2 C17_2 1_555 1_555
C12_2 C17_2 1_555 1_555
C13_2 C24_2 1_555 1_555
C15_2 C18_2 1_555 1_555
C21_2 C22_2 1_555 1_555
O2_3 C7_3 1_555 1_555
O11_3 C7_3 1_555 1_555
C5_3 C7_3 1_555 1_555
Zn8_3 O11_3 1_555 1_555
Zn11_2 O2_3 1_555 1_555
C4_3 C19_3 1_555 1_555
C8_3 N3_3 1_555 1_555
H2_3 C8_3 1_555 1_555
C9_3 N2_3 1_555 1_555
H3_3 C9_3 1_555 1_555
C19_3 C8_3 1_555 1_555
H9_3 C19_3 1_555 1_555
C20_3 C4_3 1_555 1_555
H13_3 C23_3 1_555 1_555
C9_3 C23_3 1_555 1_555
Zn4_2 O1_3 1_555 1_555
Zn2_3 O1_3 1_555 1_555
Zn9_2 O1_3 1_555 1_555
N1_3 Zn9_2 1_555 1_555
O3_3 Zn9_2 1_555 1_555
O15 C11_3 1_555 1_555
O7_3 C1_3 1_555 1_555
O8_3 C14_3 1_555 1_555
C1_3 O10_3 1_555 1_555
O9_3 Zn2_3 1_555 1_555
O10_3 Zn7_3 1_555 1_555
O20 C11_3 1_555 1_555
C2_3 C1_3 1_555 1_555
C6_3 H1_3 1_555 1_555
H4_3 C10_3 1_555 1_555
C11_3 C14_3 1_555 1_555
C12_3 O3_3 1_555 1_555
C13_3 N1_3 1_555 1_555
H5_3 C13_3 1_555 1_555
C14_3 C16_3 1_555 1_555
C15_3 N1_3 1_555 1_555
H6_3 C15_3 1_555 1_555
C16_3 C6_3 1_555 1_555
H7_3 C16_3 1_555 1_555
C17_3 O8_3 1_555 1_555
C18_3 C2_3 1_555 1_555
H8_3 C18_3 1_555 1_555
H11_3 C21_3 1_555 1_555
C24_3 C2_3 1_555 1_555
H14_3 C24_3 1_555 1_555
Zn5_3 O7_3 1_555 1_555
O13_3 Zn9_2 1_555 1_555
O14_3 Zn4_2 1_555 1_555
O16_3 Zn9_2 1_555 1_555
O19_3 Zn2_3 1_555 1_555
O9_3 C12_3 1_555 1_555
C6_3 C17_3 1_555 1_555
C12_3 C17_3 1_555 1_555
C13_3 C24_3 1_555 1_555
C15_3 C18_3 1_555 1_555
C21_3 C22_3 1_555 1_555
O4_3 C3_3 1_555 1_555
O6_3 C3_3 1_555 1_555
Zn6_3 O4_3 1_555 1_555
Zn10 O6_3 1_555 1_555
O2_4 C7_4 1_555 1_555
O11_4 C7_4 1_555 1_555
C5_4 C7_4 1_555 1_555
Zn8_4 O11_4 1_555 1_555
Zn10_2 O2_4 1_555 1_555
Zn5_2 O1_4 1_555 1_555
Zn7_2 O1_4 1_555 1_555
Zn3_2 O1_4 1_555 1_555
N1_4 Zn3_2 1_555 1_555
N2_4 Zn5_2 1_555 1_555
O3_4 Zn3_2 1_555 1_555
O4_4 C3_4 1_555 1_555
O5_3 C11_4 1_555 1_555
O6_4 C3_4 1_555 1_555
O17_2 C1_4 1_555 1_555
O8_4 C14_4 1_555 1_555
C1_4 O18_2 1_555 1_555
N3_4 Zn7_2 1_555 1_555
O9_4 Zn7_2 1_555 1_555
O12_3 C11_4 1_555 1_555
C2_4 C1_4 1_555 1_555
C3_4 C4_4 1_555 1_555
C4_4 C19_4 1_555 1_555
C6_4 H1_4 1_555 1_555
C8_4 N3_4 1_555 1_555
H2_4 C8_4 1_555 1_555
C9_4 N2_4 1_555 1_555
H3_4 C9_4 1_555 1_555
C10_4 N3_4 1_555 1_555
H4_4 C10_4 1_555 1_555
C11_4 C14_4 1_555 1_555
C12_4 O3_4 1_555 1_555
C13_4 N1_4 1_555 1_555
H5_4 C13_4 1_555 1_555
C14_4 C16_4 1_555 1_555
C15_4 N1_4 1_555 1_555
H6_4 C15_4 1_555 1_555
C16_4 C6_4 1_555 1_555
H7_4 C16_4 1_555 1_555
C17_4 O8_4 1_555 1_555
C18_4 C2_4 1_555 1_555
H8_4 C18_4 1_555 1_555
C19_4 C8_4 1_555 1_555
H9_4 C19_4 1_555 1_555
C20_4 C4_4 1_555 1_555
H10_4 C20_4 1_555 1_555
C21_4 N2_4 1_555 1_555
H11_4 C21_4 1_555 1_555
H13_4 C23_4 1_555 1_555
C24_4 C2_4 1_555 1_555
H14_4 C24_4 1_555 1_555
Zn5 O12_3 1_555 1_555
Zn6_4 O4_4 1_555 1_555
Zn9_3 O5_3 1_555 1_555
Zn11_3 O6_4 1_555 1_555
O13_4 Zn3_2 1_555 1_555
O14_4 Zn5_2 1_555 1_555
O15_2 Zn3_2 1_555 1_555
O16_4 Zn3_2 1_555 1_555
O19_4 Zn7_2 1_555 1_555
O20_2 Zn5_2 1_555 1_555
O9_4 C12_4 1_555 1_555
C6_4 C17_4 1_555 1_555
C9_4 C23_4 1_555 1_555
C10_4 C20_4 1_555 1_555
C12_4 C17_4 1_555 1_555
C13_4 C24_4 1_555 1_555
C15_4 C18_4 1_555 1_555
C21_4 C22_4 1_555 1_555
Zn5 O1_5 1_555 1_555
Zn7 O1_5 1_555 1_555
Zn9_3 O1_5 1_555 1_555
N1_5 Zn9_3 1_555 1_555
N2_5 Zn5 1_555 1_555
O2_5 C7_5 1_555 1_555
O3_5 Zn9_3 1_555 1_555
O5_4 C11_5 1_555 1_555
O17 C1_5 1_555 1_555
O8_5 C14_5 1_555 1_555
C1_5 O18 1_555 1_555
N3_5 Zn7 1_555 1_555
O9_5 Zn7 1_555 1_555
O11_5 C7_5 1_555 1_555
O12_4 C11_5 1_555 1_555
C2_5 C1_5 1_555 1_555
C4_5 C19_5 1_555 1_555
C5_5 C7_5 1_555 1_555
C6_5 H1_5 1_555 1_555
C8_5 N3_5 1_555 1_555
H2_5 C8_5 1_555 1_555
C9_5 N2_5 1_555 1_555
H3_5 C9_5 1_555 1_555
C10_5 N3_5 1_555 1_555
H4_5 C10_5 1_555 1_555
C11_5 C14_5 1_555 1_555
C12_5 O3_5 1_555 1_555
C13_5 N1_5 1_555 1_555
H5_5 C13_5 1_555 1_555
C14_5 C16_5 1_555 1_555
C15_5 N1_5 1_555 1_555
H6_5 C15_5 1_555 1_555
C16_5 C6_5 1_555 1_555
H7_5 C16_5 1_555 1_555
C17_5 O8_5 1_555 1_555
C18_5 C2_5 1_555 1_555
H8_5 C18_5 1_555 1_555
C19_5 C8_5 1_555 1_555
H9_5 C19_5 1_555 1_555
C20_5 C4_5 1_555 1_555
H10_5 C20_5 1_555 1_555
C21_5 N2_5 1_555 1_555
H11_5 C21_5 1_555 1_555
C22_5 C5_5 1_555 1_555
H12_3 C22_5 1_555 1_555
C23_5 C5_5 1_555 1_555
H13_5 C23_5 1_555 1_555
C24_5 C2_5 1_555 1_555
H14_5 C24_5 1_555 1_555
Zn5_3 O12_4 1_555 1_555
Zn8_5 O11_5 1_555 1_555
Zn9_4 O5_4 1_555 1_555
Zn11_3 O2_5 1_555 1_555
O13_5 Zn9_3 1_555 1_555
O14_5 Zn5 1_555 1_555
O16_5 Zn9_3 1_555 1_555
O19_5 Zn7 1_555 1_555
O9_5 C12_5 1_555 1_555
C6_5 C17_5 1_555 1_555
C9_5 C23_5 1_555 1_555
C10_5 C20_5 1_555 1_555
C12_5 C17_5 1_555 1_555
C13_5 C24_5 1_555 1_555
C15_5 C18_5 1_555 1_555
C21_5 C22_5 1_555 1_555
O4_5 C3_5 1_555 1_555
O6_5 C3_5 1_555 1_555
Zn6_5 O4_5 1_555 1_555
Zn11_4 O6_5 1_555 1_555
O4_6 C3_6 1_555 1_555
O6_6 C3_6 1_555 1_555
Zn6_6 O4_6 1_555 1_555
Zn10_2 O6_6 1_555 1_555
Zn5_3 O1_6 1_555 1_555
Zn7_3 O1_6 1_555 1_555
Zn9_4 O1_6 1_555 1_555
N1_6 Zn9_4 1_555 1_555
N2_6 Zn5_3 1_555 1_555
O3_6 Zn9_4 1_555 1_555
O15_2 C11_6 1_555 1_555
O17_3 C1_6 1_555 1_555
O8_6 C14_6 1_555 1_555
C1_6 O18_3 1_555 1_555
N3_6 Zn7_3 1_555 1_555
O9_6 Zn7_3 1_555 1_555
O20_2 C11_6 1_555 1_555
C2_6 C1_6 1_555 1_555
C4_6 C19_6 1_555 1_555
C6_6 H1_6 1_555 1_555
C8_6 N3_6 1_555 1_555
H2_6 C8_6 1_555 1_555
C9_6 N2_6 1_555 1_555
H3_6 C9_6 1_555 1_555
C10_6 N3_6 1_555 1_555
H4_6 C10_6 1_555 1_555
C11_6 C14_6 1_555 1_555
C12_6 O3_6 1_555 1_555
C13_6 N1_6 1_555 1_555
H5_6 C13_6 1_555 1_555
C14_6 C16_6 1_555 1_555
C15_6 N1_6 1_555 1_555
H6_6 C15_6 1_555 1_555
C16_6 C6_6 1_555 1_555
H7_6 C16_6 1_555 1_555
C17_6 O8_6 1_555 1_555
C18_6 C2_6 1_555 1_555
H8_6 C18_6 1_555 1_555
C19_6 C8_6 1_555 1_555
H9_6 C19_6 1_555 1_555
C20_6 C4_6 1_555 1_555
H10_6 C20_6 1_555 1_555
C21_6 N2_6 1_555 1_555
H11_6 C21_6 1_555 1_555
H13_6 C23_6 1_555 1_555
C24_6 C2_6 1_555 1_555
H14_6 C24_6 1_555 1_555
O13_6 Zn9_4 1_555 1_555
O14_6 Zn5_3 1_555 1_555
O16_6 Zn9_4 1_555 1_555
O19_6 Zn7_3 1_555 1_555
O9_6 C12_6 1_555 1_555
C6_6 C17_6 1_555 1_555
C9_6 C23_6 1_555 1_555
C10_6 C20_6 1_555 1_555
C12_6 C17_6 1_555 1_555
C13_6 C24_6 1_555 1_555
C15_6 C18_6 1_555 1_555
C21_6 C22_6 1_555 1_555
O2_6 C7_6 1_555 1_555
O11_6 C7_6 1_555 1_555
C5_6 C7_6 1_555 1_555
Zn8_6 O11_6 1_555 1_555
Zn11_4 O2_6 1_555 1_555
O5_5 C11_7 1_555 1_555
Zn9_5 O5_5 1_555 1_555
O14_6 C3_7 1_555 1_555
O16_6 C3_7 1_555 1_555
O8_7 C14_7 1_555 1_555
C3_7 C4_7 1_555 1_555
C4_7 C19_7 1_555 1_555
C6_7 H1_7 1_555 1_555
C8_7 N3_7 1_555 1_555
C10_7 N3_7 1_555 1_555
H4_7 C10_7 1_555 1_555
C14_7 C16_7 1_555 1_555
C16_7 C6_7 1_555 1_555
H7_7 C16_7 1_555 1_555
C17_7 O8_7 1_555 1_555
C19_7 C8_7 1_555 1_555
H9_7 C19_7 1_555 1_555
C20_7 C4_7 1_555 1_555
H10_7 C20_7 1_555 1_555
C6_7 C17_7 1_555 1_555
C10_7 C20_7 1_555 1_555
Zn1_2 O1_7 1_555 1_555
Zn2_4 O1_7 1_555 1_555
Zn3_3 O1_7 1_555 1_555
N1_7 Zn3_3 1_555 1_555
N2_7 Zn1_2 1_555 1_555
O13_4 C7_7 1_555 1_555
O3_7 Zn3_3 1_555 1_555
O9_7 Zn2_4 1_555 1_555
O19_4 C7_7 1_555 1_555
C5_7 C7_7 1_555 1_555
C9_7 N2_7 1_555 1_555
H3_7 C9_7 1_555 1_555
C12_7 O3_7 1_555 1_555
C13_7 N1_7 1_555 1_555
H5_7 C13_7 1_555 1_555
C15_7 N1_7 1_555 1_555
H6_7 C15_7 1_555 1_555
C21_7 N2_7 1_555 1_555
H11_7 C21_7 1_555 1_555
C22_7 C5_7 1_555 1_555
H12_5 C22_7 1_555 1_555
C23_7 C5_7 1_555 1_555
H13_7 C23_7 1_555 1_555
O13_7 Zn3_3 1_555 1_555
O14_7 Zn1_2 1_555 1_555
O15_3 Zn3_3 1_555 1_555
O16_7 Zn3_3 1_555 1_555
O17_4 Zn1_2 1_555 1_555
O18_4 Zn2_4 1_555 1_555
O19_7 Zn2_4 1_555 1_555
O20_3 Zn1_2 1_555 1_555
O9_7 C12_7 1_555 1_555
C9_7 C23_7 1_555 1_555
C13_7 C24_7 1_555 1_555
C15_7 C18_7 1_555 1_555
C21_7 C22_7 1_555 1_555
O7_4 C1_7 1_555 1_555
C1_7 O10_4 1_555 1_555
O10_4 Zn7_4 1_555 1_555
C2_7 C1_7 1_555 1_555
Zn5_4 O7_4 1_555 1_555
Zn4_3 O1_8 1_555 1_555
Zn2_5 O1_8 1_555 1_555
Zn9_5 O1_8 1_555 1_555
N1_8 Zn9_5 1_555 1_555
O3_8 Zn9_5 1_555 1_555
O14_5 C3_8 1_555 1_555
O16_5 C3_8 1_555 1_555
O8_8 C14_8 1_555 1_555
N3_8 Zn2_5 1_555 1_555
O9_8 Zn2_5 1_555 1_555
C3_8 C4_8 1_555 1_555
C4_8 C19_8 1_555 1_555
C6_8 H1_8 1_555 1_555
C8_8 N3_8 1_555 1_555
H2_8 C8_8 1_555 1_555
C10_8 N3_8 1_555 1_555
H4_8 C10_8 1_555 1_555
C12_8 O3_8 1_555 1_555
C13_8 N1_8 1_555 1_555
H5_8 C13_8 1_555 1_555
C14_8 C16_8 1_555 1_555
C15_8 N1_8 1_555 1_555
H6_8 C15_8 1_555 1_555
C16_8 C6_8 1_555 1_555
H7_8 C16_8 1_555 1_555
C17_8 O8_8 1_555 1_555
C19_8 C8_8 1_555 1_555
H9_8 C19_8 1_555 1_555
C20_8 C4_8 1_555 1_555
H10_8 C20_8 1_555 1_555
O13_8 Zn9_5 1_555 1_555
O14_8 Zn4_3 1_555 1_555
O16_8 Zn9_5 1_555 1_555
O17_5 Zn4_3 1_555 1_555
O18_5 Zn2_5 1_555 1_555
O19_8 Zn2_5 1_555 1_555
O9_8 C12_8 1_555 1_555
C6_8 C17_8 1_555 1_555
C10_8 C20_8 1_555 1_555
C12_8 C17_8 1_555 1_555
C13_8 C24_8 1_555 1_555
C15_8 C18_8 1_555 1_555
O7_5 C1_8 1_555 1_555
C1_8 O10_5 1_555 1_555
O10_5 Zn7_5 1_555 1_555
C2_8 C1_8 1_555 1_555
Zn5_5 O7_5 1_555 1_555
O13_6 C7_8 1_555 1_555
O19_6 C7_8 1_555 1_555
C5_8 C7_8 1_555 1_555
C9_8 N2_8 1_555 1_555
C21_8 N2_8 1_555 1_555
H11_8 C21_8 1_555 1_555
C22_8 C5_8 1_555 1_555
H12_6 C22_8 1_555 1_555
C23_8 C5_8 1_555 1_555
H13_8 C23_8 1_555 1_555
C9_8 C23_8 1_555 1_555
C21_8 C22_8 1_555 1_555
O5_6 C11_8 1_555 1_555
Zn9_6 O5_6 1_555 1_555
O13_5 C7_9 1_555 1_555
O19_5 C7_9 1_555 1_555
C5_9 C7_9 1_555 1_555
C9_9 N2_9 1_555 1_555
C21_9 N2_9 1_555 1_555
H11_9 C21_9 1_555 1_555
C22_9 C5_9 1_555 1_555
H12_7 C22_9 1_555 1_555
C23_9 C5_9 1_555 1_555
H13_9 C23_9 1_555 1_555
C9_9 C23_9 1_555 1_555
C21_9 C22_9 1_555 1_555
Zn4_4 O1_9 1_555 1_555
Zn2_6 O1_9 1_555 1_555
Zn9_6 O1_9 1_555 1_555
N1_9 Zn9_6 1_555 1_555
O3_9 Zn9_6 1_555 1_555
O9_9 Zn2_6 1_555 1_555
C12_9 O3_9 1_555 1_555
C13_9 N1_9 1_555 1_555
H5_9 C13_9 1_555 1_555
C15_9 N1_9 1_555 1_555
H6_9 C15_9 1_555 1_555
O13_9 Zn9_6 1_555 1_555
O14_9 Zn4_4 1_555 1_555
O16_9 Zn9_6 1_555 1_555
O17_6 Zn4_4 1_555 1_555
O18_6 Zn2_6 1_555 1_555
O19_9 Zn2_6 1_555 1_555
O9_9 C12_9 1_555 1_555
C13_9 C24_9 1_555 1_555
C15_9 C18_9 1_555 1_555
O7_6 C1_9 1_555 1_555
C1_9 O10_6 1_555 1_555
O10_6 Zn7_6 1_555 1_555
C2_9 C1_9 1_555 1_555
Zn5_6 O7_6 1_555 1_555
O14_4 C3_9 1_555 1_555
O15_3 C11_9 1_555 1_555
O16_4 C3_9 1_555 1_555
O8_9 C14_9 1_555 1_555
O20_3 C11_9 1_555 1_555
C3_9 C4_9 1_555 1_555
C4_9 C19_9 1_555 1_555
C6_9 H1_9 1_555 1_555
C8_9 N3_9 1_555 1_555
C10_9 N3_9 1_555 1_555
H4_9 C10_9 1_555 1_555
C11_9 C14_9 1_555 1_555
C14_9 C16_9 1_555 1_555
C16_9 C6_9 1_555 1_555
H7_9 C16_9 1_555 1_555
C17_9 O8_9 1_555 1_555
C19_9 C8_9 1_555 1_555
H9_9 C19_9 1_555 1_555
C20_9 C4_9 1_555 1_555
H10_9 C20_9 1_555 1_555
C6_9 C17_9 1_555 1_555
C10_9 C20_9 1_555 1_555
Zn5_5 O1_10 1_555 1_555
Zn7_5 O1_10 1_555 1_555
Zn3_4 O1_10 1_555 1_555
N1_10 Zn3_4 1_555 1_555
N2_10 Zn5_5 1_555 1_555
O13 C7_10 1_555 1_555
O3_10 Zn3_4 1_555 1_555
O17_5 C1_10 1_555 1_555
C1_10 O18_5 1_555 1_555
O9_10 Zn7_5 1_555 1_555
O19 C7_10 1_555 1_555
C2_10 C1_10 1_555 1_555
C5_10 C7_10 1_555 1_555
C9_10 N2_10 1_555 1_555
H3_10 C9_10 1_555 1_555
C12_10 O3_10 1_555 1_555
C13_10 N1_10 1_555 1_555
H5_10 C13_10 1_555 1_555
C15_10 N1_10 1_555 1_555
H6_10 C15_10 1_555 1_555
C18_10 C2_10 1_555 1_555
H8_10 C18_10 1_555 1_555
C21_10 N2_10 1_555 1_555
H11_10 C21_10 1_555 1_555
C22_10 C5_10 1_555 1_555
H12_8 C22_10 1_555 1_555
C23_10 C5_10 1_555 1_555
H13_10 C23_10 1_555 1_555
C24_10 C2_10 1_555 1_555
H14_10 C24_10 1_555 1_555
O13_10 Zn3_4 1_555 1_555
O14_10 Zn5_5 1_555 1_555
O15_4 Zn3_4 1_555 1_555
O16_10 Zn3_4 1_555 1_555
O19_10 Zn7_5 1_555 1_555
O20_4 Zn5_5 1_555 1_555
O9_10 C12_10 1_555 1_555
C9_10 C23_10 1_555 1_555
C13_10 C24_10 1_555 1_555
C15_10 C18_10 1_555 1_555
C21_10 C22_10 1_555 1_555
O14_3 C3_10 1_555 1_555
O16_3 C3_10 1_555 1_555
O8_10 C14_10 1_555 1_555
C3_10 C4_10 1_555 1_555
C4_10 C19_10 1_555 1_555
C6_10 H1_10 1_555 1_555
C8_10 N3_10 1_555 1_555
C10_10 N3_10 1_555 1_555
H4_10 C10_10 1_555 1_555
C14_10 C16_10 1_555 1_555
C16_10 C6_10 1_555 1_555
H7_10 C16_10 1_555 1_555
C17_10 O8_10 1_555 1_555
C19_10 C8_10 1_555 1_555
H9_10 C19_10 1_555 1_555
C20_10 C4_10 1_555 1_555
H10_10 C20_10 1_555 1_555
C6_10 C17_10 1_555 1_555
C10_10 C20_10 1_555 1_555
O5_7 C11_10 1_555 1_555
Zn9_7 O5_7 1_555 1_555
O13_3 C7_11 1_555 1_555
O19_3 C7_11 1_555 1_555
C5_11 C7_11 1_555 1_555
C9_11 N2_11 1_555 1_555
C21_11 N2_11 1_555 1_555
H11_11 C21_11 1_555 1_555
C22_11 C5_11 1_555 1_555
H12_9 C22_11 1_555 1_555
C23_11 C5_11 1_555 1_555
H13_11 C23_11 1_555 1_555
C9_11 C23_11 1_555 1_555
C21_11 C22_11 1_555 1_555
O5_8 C11_11 1_555 1_555
Zn9_8 O5_8 1_555 1_555
Zn5_4 O1_11 1_555 1_555
Zn7_4 O1_11 1_555 1_555
Zn9_7 O1_11 1_555 1_555
N1_11 Zn9_7 1_555 1_555
O3_11 Zn9_7 1_555 1_555
O14_2 C3_11 1_555 1_555
O16_2 C3_11 1_555 1_555
O17_4 C1_11 1_555 1_555
O8_11 C14_11 1_555 1_555
C1_11 O18_4 1_555 1_555
N3_11 Zn7_4 1_555 1_555
O9_11 Zn7_4 1_555 1_555
C2_11 C1_11 1_555 1_555
C3_11 C4_11 1_555 1_555
C4_11 C19_11 1_555 1_555
C6_11 H1_11 1_555 1_555
C8_11 N3_11 1_555 1_555
H2_11 C8_11 1_555 1_555
C10_11 N3_11 1_555 1_555
H4_11 C10_11 1_555 1_555
C12_11 O3_11 1_555 1_555
C13_11 N1_11 1_555 1_555
H5_11 C13_11 1_555 1_555
C14_11 C16_11 1_555 1_555
C15_11 N1_11 1_555 1_555
H6_11 C15_11 1_555 1_555
C16_11 C6_11 1_555 1_555
H7_11 C16_11 1_555 1_555
C17_11 O8_11 1_555 1_555
C18_11 C2_11 1_555 1_555
H8_11 C18_11 1_555 1_555
C19_11 C8_11 1_555 1_555
H9_11 C19_11 1_555 1_555
C20_11 C4_11 1_555 1_555
H10_11 C20_11 1_555 1_555
C24_11 C2_11 1_555 1_555
H14_11 C24_11 1_555 1_555
O13_11 Zn9_7 1_555 1_555
O14_11 Zn5_4 1_555 1_555
O16_11 Zn9_7 1_555 1_555
O19_11 Zn7_4 1_555 1_555
O9_11 C12_11 1_555 1_555
C6_11 C17_11 1_555 1_555
C10_11 C20_11 1_555 1_555
C12_11 C17_11 1_555 1_555
C13_11 C24_11 1_555 1_555
C15_11 C18_11 1_555 1_555
O14 C3_12 1_555 1_555
O15_4 C11_12 1_555 1_555
O16 C3_12 1_555 1_555
O8_12 C14_12 1_555 1_555
O20_4 C11_12 1_555 1_555
C3_12 C4_12 1_555 1_555
C4_12 C19_12 1_555 1_555
C6_12 H1_12 1_555 1_555
C8_12 N3_12 1_555 1_555
C10_12 N3_12 1_555 1_555
H4_12 C10_12 1_555 1_555
C11_12 C14_12 1_555 1_555
C14_12 C16_12 1_555 1_555
C16_12 C6_12 1_555 1_555
H7_12 C16_12 1_555 1_555
C17_12 O8_12 1_555 1_555
C19_12 C8_12 1_555 1_555
H9_12 C19_12 1_555 1_555
C20_12 C4_12 1_555 1_555
H10_12 C20_12 1_555 1_555
C6_12 C17_12 1_555 1_555
C10_12 C20_12 1_555 1_555
Zn5_6 O1_12 1_555 1_555
Zn7_6 O1_12 1_555 1_555
Zn9_8 O1_12 1_555 1_555
N1_12 Zn9_8 1_555 1_555
O3_12 Zn9_8 1_555 1_555
O17_6 C1_12 1_555 1_555
C1_12 O18_6 1_555 1_555
O9_12 Zn7_6 1_555 1_555
C2_12 C1_12 1_555 1_555
C12_12 O3_12 1_555 1_555
C13_12 N1_12 1_555 1_555
H5_12 C13_12 1_555 1_555
C15_12 N1_12 1_555 1_555
H6_12 C15_12 1_555 1_555
C18_12 C2_12 1_555 1_555
H8_12 C18_12 1_555 1_555
C24_12 C2_12 1_555 1_555
H14_12 C24_12 1_555 1_555
O13_12 Zn9_8 1_555 1_555
O14_12 Zn5_6 1_555 1_555
O16_12 Zn9_8 1_555 1_555
O19_12 Zn7_6 1_555 1_555
O9_12 C12_12 1_555 1_555
C13_12 C24_12 1_555 1_555
C15_12 C18_12 1_555 1_555
O13_2 C7_12 1_555 1_555
O19_2 C7_12 1_555 1_555
C5_12 C7_12 1_555 1_555
C9_12 N2_12 1_555 1_555
C21_12 N2_12 1_555 1_555
H11_12 C21_12 1_555 1_555
C22_12 C5_12 1_555 1_555
H12_10 C22_12 1_555 1_555
C23_12 C5_12 1_555 1_555
H13_12 C23_12 1_555 1_555
C9_12 C23_12 1_555 1_555
C21_12 C22_12 1_555 1_555
Zn6_6 O1_13 1_555 1_555
Zn8_4 O1_13 1_555 1_555
Zn10_2 O1_13 1_555 1_555
N1_13 Zn10_2 1_555 1_555
N2_13 Zn6_6 1_555 1_555
O13_10 C7_13 1_555 1_555
O3_13 Zn10_2 1_555 1_555
O14_12 C3_13 1_555 1_555
O5_9 C11_13 1_555 1_555
O16_12 C3_13 1_555 1_555
O7_7 C1_13 1_555 1_555
O8_13 C14_13 1_555 1_555
C1_13 O10_7 1_555 1_555
N3_13 Zn8_4 1_555 1_555
O9_13 Zn8_4 1_555 1_555
O10_7 Zn8_3 1_555 1_555
O19_10 C7_13 1_555 1_555
O12_9 C11_13 1_555 1_555
C2_13 C1_13 1_555 1_555
C3_13 C4_13 1_555 1_555
C4_13 C19_13 1_555 1_555
C5_13 C7_13 1_555 1_555
C6_13 H1_13 1_555 1_555
C8_13 N3_13 1_555 1_555
H2_13 C8_13 1_555 1_555
C9_13 N2_13 1_555 1_555
H3_13 C9_13 1_555 1_555
C10_13 N3_13 1_555 1_555
H4_13 C10_13 1_555 1_555
C11_13 C14_13 1_555 1_555
C12_13 O3_13 1_555 1_555
C13_13 N1_13 1_555 1_555
H5_13 C13_13 1_555 1_555
C14_13 C16_13 1_555 1_555
C15_13 N1_13 1_555 1_555
H6_13 C15_13 1_555 1_555
C16_13 C6_13 1_555 1_555
H7_13 C16_13 1_555 1_555
C17_13 O8_13 1_555 1_555
C18_13 C2_13 1_555 1_555
H8_13 C18_13 1_555 1_555
C19_13 C8_13 1_555 1_555
H9_13 C19_13 1_555 1_555
C20_13 C4_13 1_555 1_555
H10_13 C20_13 1_555 1_555
C21_13 N2_13 1_555 1_555
H11_13 C21_13 1_555 1_555
C22_13 C5_13 1_555 1_555
H12_11 C22_13 1_555 1_555
C23_13 C5_13 1_555 1_555
H13_13 C23_13 1_555 1_555
C24_13 C2_13 1_555 1_555
H14_13 C24_13 1_555 1_555
Zn6_5 O12_9 1_555 1_555
Zn6_2 O7_7 1_555 1_555
Zn11_4 O5_9 1_555 1_555
O15_5 Zn10_2 1_555 1_555
O17_7 Zn6_6 1_555 1_555
O18_7 Zn8_4 1_555 1_555
O20_5 Zn6_6 1_555 1_555
O9_13 C12_13 1_555 1_555
C6_13 C17_13 1_555 1_555
C9_13 C23_13 1_555 1_555
C10_13 C20_13 1_555 1_555
C12_13 C17_13 1_555 1_555
C13_13 C24_13 1_555 1_555
C15_13 C18_13 1_555 1_555
C21_13 C22_13 1_555 1_555
Zn6_5 O1_14 1_555 1_555
Zn8_6 O1_14 1_555 1_555
Zn11_4 O1_14 1_555 1_555
N1_14 Zn11_4 1_555 1_555
N2_14 Zn6_5 1_555 1_555
O13_12 C7_14 1_555 1_555
O3_14 Zn11_4 1_555 1_555
O14_11 C3_14 1_555 1_555
O5_10 C11_14 1_555 1_555
O16_11 C3_14 1_555 1_555
O7_8 C1_14 1_555 1_555
O8_14 C14_14 1_555 1_555
C1_14 O10_8 1_555 1_555
N3_14 Zn8_6 1_555 1_555
O9_14 Zn8_6 1_555 1_555
O10_8 Zn8 1_555 1_555
O19_12 C7_14 1_555 1_555
O12_10 C11_14 1_555 1_555
C2_14 C1_14 1_555 1_555
C3_14 C4_14 1_555 1_555
C4_14 C19_14 1_555 1_555
C5_14 C7_14 1_555 1_555
C6_14 H1_14 1_555 1_555
C8_14 N3_14 1_555 1_555
H2_14 C8_14 1_555 1_555
C9_14 N2_14 1_555 1_555
H3_14 C9_14 1_555 1_555
C10_14 N3_14 1_555 1_555
H4_14 C10_14 1_555 1_555
C11_14 C14_14 1_555 1_555
C12_14 O3_14 1_555 1_555
C13_14 N1_14 1_555 1_555
H5_14 C13_14 1_555 1_555
C14_14 C16_14 1_555 1_555
C15_14 N1_14 1_555 1_555
H6_14 C15_14 1_555 1_555
C16_14 C6_14 1_555 1_555
H7_14 C16_14 1_555 1_555
C17_14 O8_14 1_555 1_555
C18_14 C2_14 1_555 1_555
H8_14 C18_14 1_555 1_555
C19_14 C8_14 1_555 1_555
H9_14 C19_14 1_555 1_555
C20_14 C4_14 1_555 1_555
H10_14 C20_14 1_555 1_555
C21_14 N2_14 1_555 1_555
H11_14 C21_14 1_555 1_555
C22_14 C5_14 1_555 1_555
H12_12 C22_14 1_555 1_555
C23_14 C5_14 1_555 1_555
H13_14 C23_14 1_555 1_555
C24_14 C2_14 1_555 1_555
H14_14 C24_14 1_555 1_555
Zn6_4 O12_10 1_555 1_555
Zn6_3 O7_8 1_555 1_555
Zn11_3 O5_10 1_555 1_555
O17_8 Zn6_5 1_555 1_555
O18_8 Zn8_6 1_555 1_555
O9_14 C12_14 1_555 1_555
C6_14 C17_14 1_555 1_555
C9_14 C23_14 1_555 1_555
C10_14 C20_14 1_555 1_555
C12_14 C17_14 1_555 1_555
C13_14 C24_14 1_555 1_555
C15_14 C18_14 1_555 1_555
C21_14 C22_14 1_555 1_555
Zn6_4 O1_15 1_555 1_555
Zn8_5 O1_15 1_555 1_555
Zn11_3 O1_15 1_555 1_555
N1_15 Zn11_3 1_555 1_555
N2_15 Zn6_4 1_555 1_555
O13_11 C7_15 1_555 1_555
O3_15 Zn11_3 1_555 1_555
O14_10 C3_15 1_555 1_555
O15_5 C11_15 1_555 1_555
O16_10 C3_15 1_555 1_555
O7_9 C1_15 1_555 1_555
O8_15 C14_15 1_555 1_555
C1_15 O10_9 1_555 1_555
N3_15 Zn8_5 1_555 1_555
O9_15 Zn8_5 1_555 1_555
O10_9 Zn8_2 1_555 1_555
O19_11 C7_15 1_555 1_555
O20_5 C11_15 1_555 1_555
C2_15 C1_15 1_555 1_555
C3_15 C4_15 1_555 1_555
C4_15 C19_15 1_555 1_555
C5_15 C7_15 1_555 1_555
C6_15 H1_15 1_555 1_555
C8_15 N3_15 1_555 1_555
H2_15 C8_15 1_555 1_555
C9_15 N2_15 1_555 1_555
H3_15 C9_15 1_555 1_555
C10_15 N3_15 1_555 1_555
H4_15 C10_15 1_555 1_555
C11_15 C14_15 1_555 1_555
C12_15 O3_15 1_555 1_555
C13_15 N1_15 1_555 1_555
H5_15 C13_15 1_555 1_555
C14_15 C16_15 1_555 1_555
C15_15 N1_15 1_555 1_555
H6_15 C15_15 1_555 1_555
C16_15 C6_15 1_555 1_555
H7_15 C16_15 1_555 1_555
C17_15 O8_15 1_555 1_555
C18_15 C2_15 1_555 1_555
H8_15 C18_15 1_555 1_555
C19_15 C8_15 1_555 1_555
H9_15 C19_15 1_555 1_555
C20_15 C4_15 1_555 1_555
H10_15 C20_15 1_555 1_555
C21_15 N2_15 1_555 1_555
H11_15 C21_15 1_555 1_555
C22_15 C5_15 1_555 1_555
H12_13 C22_15 1_555 1_555
C23_15 C5_15 1_555 1_555
H13_15 C23_15 1_555 1_555
C24_15 C2_15 1_555 1_555
H14_15 C24_15 1_555 1_555
Zn6 O7_9 1_555 1_555
O17_9 Zn6_4 1_555 1_555
O18_9 Zn8_5 1_555 1_555
O9_15 C12_15 1_555 1_555
C6_15 C17_15 1_555 1_555
C9_15 C23_15 1_555 1_555
C10_15 C20_15 1_555 1_555
C12_15 C17_15 1_555 1_555
C13_15 C24_15 1_555 1_555
C15_15 C18_15 1_555 1_555
C21_15 C22_15 1_555 1_555
Zn6_3 O1_16 1_555 1_555
Zn8 O1_16 1_555 1_555
Zn10 O1_16 1_555 1_555
N2_16 Zn6_3 1_555 1_555
O13_7 C7_16 1_555 1_555
O3_16 Zn10 1_555 1_555
O14_9 C3_16 1_555 1_555
O5_11 C11_16 1_555 1_555
O16_9 C3_16 1_555 1_555
O8_16 C14_16 1_555 1_555
N3_16 Zn8 1_555 1_555
O9_16 Zn8 1_555 1_555
O19_7 C7_16 1_555 1_555
O12_11 C11_16 1_555 1_555
C3_16 C4_16 1_555 1_555
C4_16 C19_16 1_555 1_555
C5_16 C7_16 1_555 1_555
C8_16 N3_16 1_555 1_555
H2_16 C8_16 1_555 1_555
C9_16 N2_16 1_555 1_555
H3_16 C9_16 1_555 1_555
C10_16 N3_16 1_555 1_555
H4_16 C10_16 1_555 1_555
C11_16 C14_16 1_555 1_555
C12_16 O3_16 1_555 1_555
C17_16 O8_16 1_555 1_555
C19_16 C8_16 1_555 1_555
H9_16 C19_16 1_555 1_555
C20_16 C4_16 1_555 1_555
H10_16 C20_16 1_555 1_555
C21_16 N2_16 1_555 1_555
H11_16 C21_16 1_555 1_555
C22_16 C5_16 1_555 1_555
H12_14 C22_16 1_555 1_555
C23_16 C5_16 1_555 1_555
H13_16 C23_16 1_555 1_555
Zn6_2 O12_11 1_555 1_555
Zn11_2 O5_11 1_555 1_555
O15_6 Zn10 1_555 1_555
O20_6 Zn6_3 1_555 1_555
O9_16 C12_16 1_555 1_555
C9_16 C23_16 1_555 1_555
C10_16 C20_16 1_555 1_555
C12_16 C17_16 1_555 1_555
C21_16 C22_16 1_555 1_555
O17_8 C1_16 1_555 1_555
C1_16 O18_8 1_555 1_555
C2_16 C1_16 1_555 1_555
C6_16 H1_16 1_555 1_555
C13_16 N1_16 1_555 1_555
H5_16 C13_16 1_555 1_555
C15_16 N1_16 1_555 1_555
H6_16 C15_16 1_555 1_555
C16_16 C6_16 1_555 1_555
H7_16 C16_16 1_555 1_555
C18_16 C2_16 1_555 1_555
H8_16 C18_16 1_555 1_555
C24_16 C2_16 1_555 1_555
H14_16 C24_16 1_555 1_555
C13_16 C24_16 1_555 1_555
C15_16 C18_16 1_555 1_555
Zn6_2 O1_17 1_555 1_555
Zn8_3 O1_17 1_555 1_555
Zn11_2 O1_17 1_555 1_555
N2_17 Zn6_2 1_555 1_555
O13_9 C7_17 1_555 1_555
O3_17 Zn11_2 1_555 1_555
O14_8 C3_17 1_555 1_555
O5_12 C11_17 1_555 1_555
O16_8 C3_17 1_555 1_555
O8_17 C14_17 1_555 1_555
N3_17 Zn8_3 1_555 1_555
O9_17 Zn8_3 1_555 1_555
O19_9 C7_17 1_555 1_555
O12_12 C11_17 1_555 1_555
C3_17 C4_17 1_555 1_555
C4_17 C19_17 1_555 1_555
C5_17 C7_17 1_555 1_555
C8_17 N3_17 1_555 1_555
H2_17 C8_17 1_555 1_555
C9_17 N2_17 1_555 1_555
H3_17 C9_17 1_555 1_555
C10_17 N3_17 1_555 1_555
H4_17 C10_17 1_555 1_555
C11_17 C14_17 1_555 1_555
C12_17 O3_17 1_555 1_555
C17_17 O8_17 1_555 1_555
C19_17 C8_17 1_555 1_555
H9_17 C19_17 1_555 1_555
C20_17 C4_17 1_555 1_555
H10_17 C20_17 1_555 1_555
C21_17 N2_17 1_555 1_555
H11_17 C21_17 1_555 1_555
C22_17 C5_17 1_555 1_555
H12_15 C22_17 1_555 1_555
C23_17 C5_17 1_555 1_555
H13_17 C23_17 1_555 1_555
Zn6 O12_12 1_555 1_555
Zn11 O5_12 1_555 1_555
O9_17 C12_17 1_555 1_555
C9_17 C23_17 1_555 1_555
C10_17 C20_17 1_555 1_555
C12_17 C17_17 1_555 1_555
C21_17 C22_17 1_555 1_555
O17_7 C1_17 1_555 1_555
C1_17 O18_7 1_555 1_555
C2_17 C1_17 1_555 1_555
C6_17 H1_17 1_555 1_555
C13_17 N1_17 1_555 1_555
H5_17 C13_17 1_555 1_555
C15_17 N1_17 1_555 1_555
H6_17 C15_17 1_555 1_555
C16_17 C6_17 1_555 1_555
H7_17 C16_17 1_555 1_555
C18_17 C2_17 1_555 1_555
H8_17 C18_17 1_555 1_555
C24_17 C2_17 1_555 1_555
H14_17 C24_17 1_555 1_555
C13_17 C24_17 1_555 1_555
C15_17 C18_17 1_555 1_555
Zn6 O1_18 1_555 1_555
Zn8_2 O1_18 1_555 1_555
Zn11 O1_18 1_555 1_555
N2_18 Zn6 1_555 1_555
O13_8 C7_18 1_555 1_555
O3_18 Zn11 1_555 1_555
O14_7 C3_18 1_555 1_555
O15_6 C11_18 1_555 1_555
O16_7 C3_18 1_555 1_555
O8_18 C14_18 1_555 1_555
N3_18 Zn8_2 1_555 1_555
O9_18 Zn8_2 1_555 1_555
O19_8 C7_18 1_555 1_555
O20_6 C11_18 1_555 1_555
C3_18 C4_18 1_555 1_555
C4_18 C19_18 1_555 1_555
C5_18 C7_18 1_555 1_555
C8_18 N3_18 1_555 1_555
H2_18 C8_18 1_555 1_555
C9_18 N2_18 1_555 1_555
H3_18 C9_18 1_555 1_555
C10_18 N3_18 1_555 1_555
H4_18 C10_18 1_555 1_555
C11_18 C14_18 1_555 1_555
C12_18 O3_18 1_555 1_555
C17_18 O8_18 1_555 1_555
C19_18 C8_18 1_555 1_555
H9_18 C19_18 1_555 1_555
C20_18 C4_18 1_555 1_555
H10_18 C20_18 1_555 1_555
C21_18 N2_18 1_555 1_555
H11_18 C21_18 1_555 1_555
C22_18 C5_18 1_555 1_555
H12_16 C22_18 1_555 1_555
C23_18 C5_18 1_555 1_555
H13_18 C23_18 1_555 1_555
O9_18 C12_18 1_555 1_555
C9_18 C23_18 1_555 1_555
C10_18 C20_18 1_555 1_555
C12_18 C17_18 1_555 1_555
C21_18 C22_18 1_555 1_555
O17_9 C1_18 1_555 1_555
C1_18 O18_9 1_555 1_555
C2_18 C1_18 1_555 1_555
C6_18 H1_18 1_555 1_555
C13_18 N1_18 1_555 1_555
H5_18 C13_18 1_555 1_555
C15_18 N1_18 1_555 1_555
H6_18 C15_18 1_555 1_555
C16_18 C6_18 1_555 1_555
H7_18 C16_18 1_555 1_555
C18_18 C2_18 1_555 1_555
H8_18 C18_18 1_555 1_555
C24_18 C2_18 1_555 1_555
H14_18 C24_18 1_555 1_555
C13_18 C24_18 1_555 1_555
C15_18 C18_18 1_555 1_555

#END
