
###############################################################################
#
# This file contains modified crystal structure data generated from the
# MOF subset of the Cambridge Structural Database (CSD) v543 
# hosted by the Cambridge Crystallographic Data Centre (CCDC).
#
# This work is licensed under the Creative Commons
# Attribution-NonCommercial-ShareAlike 4.0 International License.
# To view a copy of this license, visit
# http://creativecommons.org/licenses/by-nc-sa/4.0/
# or send a letter to
# Creative Commons, PO Box 1866, Mountain View, CA 94042, USA.
#
# CIF created using the CSD Python API on 29 September 2022
# The structure has been converted into the P1 space group
# The structure has a 3D framework
# The original CSD entry FAHJEH is in the cubic crystal system
# The framework has been calculated to contain at least 10.0% void space
# The void calculation uses a probe of radius 1.32A, grid spacing 0.4
#
###############################################################################

data_FAHJEH
_chemical_formula_moiety         '(C576 H288 N144 O160 Zr31)n'
_symmetry_cell_setting           triclinic
_symmetry_space_group_name_H-M   'P 1'
_symmetry_Int_Tables_number      1
_space_group_name_Hall           'P 1'
loop_
_symmetry_equiv_pos_site_id
_symmetry_equiv_pos_as_xyz
1 x,y,z
_cell_length_a                   32.2837(12)
_cell_length_b                   32.2837(12)
_cell_length_c                   32.2837(12)
_cell_angle_alpha                90
_cell_angle_beta                 90
_cell_angle_gamma                90
_cell_volume                     33647.3
loop_
_atom_site_label
_atom_site_type_symbol
_atom_site_fract_x
_atom_site_fract_y
_atom_site_fract_z
Zr8 Zr 0.500000 0.07613(4) -0.000000
Zr1 Zr 0.500000 0.42387(4) 0.500000
O1 O 0.5384(2) 0.4616(2) 0.5384(2)
O2 O 0.500000 0.3896(3) 0.4414(3)
C1 C 0.500000 0.3712(3) 0.3712(3)
C2 C 0.500000 0.4043(4) 0.4043(4)
C3 C 0.500000 0.3106(4) 0.3106(4)
C4 C 0.500000 0.3291(5) 0.3834(6)
H1 H 0.500000 0.321961 0.411904
C5 C 0.500000 0.2974(5) 0.3524(5)
H2 H 0.500000 0.268861 0.359610
C6 C 0.500000 0.2777(6) 0.2777(6)
N1 N 0.500000 0.2368(5) 0.2941(5)
O3 O 0.500000 0.4414(3) 0.3896(3)
C7 C 0.500000 0.3834(6) 0.3291(5)
H3 H 0.500000 0.411904 0.321961
C8 C 0.500000 0.3524(5) 0.2974(5)
H4 H 0.500000 0.359610 0.268861
N2 N 0.500000 0.2941(5) 0.2368(5)
O4 O 0.500000 0.1104(3) 0.0586(3)
C9 C 0.500000 0.1288(3) 0.1288(3)
C10 C 0.500000 0.0957(4) 0.0957(4)
C11 C 0.500000 0.1894(4) 0.1894(4)
C12 C 0.500000 0.1709(5) 0.1166(6)
H5 H 0.500000 0.178039 0.088096
C13 C 0.500000 0.2026(5) 0.1476(5)
H6 H 0.500000 0.231139 0.140390
C14 C 0.500000 0.2223(6) 0.2223(6)
N3 N 0.500000 0.2632(5) 0.2059(5)
O5 O 0.500000 0.0586(3) 0.1104(3)
C15 C 0.500000 0.1166(6) 0.1709(5)
H7 H 0.500000 0.088096 0.178039
C16 C 0.500000 0.1476(5) 0.2026(5)
H8 H 0.500000 0.140390 0.231139
N4 N 0.500000 0.2059(5) 0.2632(5)
O6 O 0.4616(2) 0.4616(2) 0.4616(2)
O7 O 0.500000 0.3896(3) 0.5586(3)
C17 C 0.500000 0.3712(3) 0.6288(3)
C18 C 0.500000 0.4043(4) 0.5957(4)
C19 C 0.500000 0.3106(4) 0.6894(4)
C20 C 0.500000 0.3291(5) 0.6166(6)
H9 H 0.500000 0.321961 0.588096
C21 C 0.500000 0.2974(5) 0.6476(5)
H10 H 0.500000 0.268861 0.640390
C22 C 0.500000 0.2777(6) 0.7223(6)
N5 N 0.500000 0.2368(5) 0.7059(5)
O8 O 0.500000 0.4414(3) 0.6104(3)
C23 C 0.500000 0.3834(6) 0.6709(5)
H11 H 0.500000 0.411904 0.678039
C24 C 0.500000 0.3524(5) 0.7026(5)
H12 H 0.500000 0.359610 0.731139
N6 N 0.500000 0.2941(5) 0.7632(5)
O9 O 0.500000 0.1104(3) 0.9414(3)
C25 C 0.500000 0.1288(3) 0.8712(3)
C26 C 0.500000 0.0957(4) 0.9043(4)
C27 C 0.500000 0.1894(4) 0.8106(4)
C28 C 0.500000 0.1709(5) 0.8834(6)
H13 H 0.500000 0.178039 0.911904
C29 C 0.500000 0.2026(5) 0.8524(5)
H14 H 0.500000 0.231139 0.859610
C30 C 0.500000 0.2223(6) 0.7777(6)
N7 N 0.500000 0.2632(5) 0.7941(5)
O10 O 0.500000 0.0586(3) 0.8896(3)
C31 C 0.500000 0.1166(6) 0.8291(5)
H15 H 0.500000 0.088096 0.821961
C32 C 0.500000 0.1476(5) 0.7974(5)
H16 H 0.500000 0.140390 0.768861
N8 N 0.500000 0.2059(5) 0.7368(5)
Zr2 Zr 0.500000 0.500000 0.42387(4)
O11 O 0.5384(2) 0.5384(2) 0.4616(2)
O12 O 0.4414(3) 0.500000 0.3896(3)
C33 C 0.3712(3) 0.500000 0.3712(3)
C34 C 0.4043(4) 0.500000 0.4043(4)
C35 C 0.3106(4) 0.500000 0.3106(4)
C36 C 0.3834(6) 0.500000 0.3291(5)
H17 H 0.411904 0.500000 0.321961
C37 C 0.3524(5) 0.500000 0.2974(5)
H18 H 0.359610 0.500000 0.268861
C38 C 0.2777(6) 0.500000 0.2777(6)
N9 N 0.2941(5) 0.500000 0.2368(5)
O13 O 0.3896(3) 0.500000 0.4414(3)
C39 C 0.3291(5) 0.500000 0.3834(6)
H19 H 0.321961 0.500000 0.411904
C40 C 0.2974(5) 0.500000 0.3524(5)
H20 H 0.268861 0.500000 0.359610
N10 N 0.2368(5) 0.500000 0.2941(5)
O14 O 0.0586(3) 0.500000 0.1104(3)
C41 C 0.1288(3) 0.500000 0.1288(3)
C42 C 0.0957(4) 0.500000 0.0957(4)
C43 C 0.1894(4) 0.500000 0.1894(4)
C44 C 0.1166(6) 0.500000 0.1709(5)
H21 H 0.088096 0.500000 0.178039
C45 C 0.1476(5) 0.500000 0.2026(5)
H22 H 0.140390 0.500000 0.231139
C46 C 0.2223(6) 0.500000 0.2223(6)
N11 N 0.2059(5) 0.500000 0.2632(5)
O15 O 0.1104(3) 0.500000 0.0586(3)
C47 C 0.1709(5) 0.500000 0.1166(6)
H23 H 0.178039 0.500000 0.088096
C48 C 0.2026(5) 0.500000 0.1476(5)
H24 H 0.231139 0.500000 0.140390
N12 N 0.2632(5) 0.500000 0.2059(5)
Zr3 Zr 0.500000 0.500000 0.57613(4)
O16 O 0.4616(2) 0.5384(2) 0.5384(2)
Zr4 Zr 0.500000 0.57613(4) 0.500000
Zr5 Zr 0.42387(4) 0.500000 0.500000
Zr6 Zr 0.57613(4) 0.500000 0.500000
Zr8_2 Zr 0.500000 0.07613(4) 1.000000
Zr9 Zr 0.500000 -0.000000 0.92387(4)
Zr10 Zr 0.500000 -0.000000 0.07613(4)
Zr11 Zr -0.000000 0.500000 0.07613(4)
Zr12 Zr 0.07613(4) 0.500000 0.000000
O17 O 0.4616(2) 0.5384(2) 0.4616(2)
O18 O 0.5384(2) 0.4616(2) 0.4616(2)
O19 O 0.4616(2) 0.4616(2) 0.5384(2)
O20 O 0.5384(2) 0.5384(2) 0.5384(2)
O21 O 0.4414(3) 0.500000 0.6104(3)
O22 O 0.5586(3) 0.500000 0.3896(3)
O23 O 0.5586(3) 0.500000 0.6104(3)
O24 O 0.500000 0.5586(3) 0.6104(3)
O25 O 0.500000 0.5586(3) 0.3896(3)
O26 O 0.4414(3) 0.3896(3) 0.500000
O27 O 0.5586(3) 0.3896(3) 0.500000
Zr12_2 Zr 0.07613(4) 0.500000 1.000000
Zr9_2 Zr 0.500000 1.000000 0.92387(4)
Zr10_2 Zr 0.500000 1.000000 0.07613(4)
Zr11_2 Zr 1.000000 0.500000 0.07613(4)
Zr8_3 Zr 0.500000 0.92387(4) -0.000000
O2_2 O 0.500000 0.6104(3) 0.4414(3)
C1_2 C 0.500000 0.6288(3) 0.3712(3)
C2_2 C 0.500000 0.5957(4) 0.4043(4)
C3_2 C 0.500000 0.6894(4) 0.3106(4)
C4_2 C 0.500000 0.6709(5) 0.3834(6)
H1_2 H 0.500000 0.678039 0.411904
C5_2 C 0.500000 0.7026(5) 0.3524(5)
H2_2 H 0.500000 0.731139 0.359610
C6_2 C 0.500000 0.7223(6) 0.2777(6)
N1_2 N 0.500000 0.7632(5) 0.2941(5)
C7_2 C 0.500000 0.6166(6) 0.3291(5)
H3_2 H 0.500000 0.588096 0.321961
C8_2 C 0.500000 0.6476(5) 0.2974(5)
H4_2 H 0.500000 0.640390 0.268861
N2_2 N 0.500000 0.7059(5) 0.2368(5)
O4_2 O 0.500000 0.8896(3) 0.0586(3)
C9_2 C 0.500000 0.8712(3) 0.1288(3)
C10_2 C 0.500000 0.9043(4) 0.0957(4)
C11_2 C 0.500000 0.8106(4) 0.1894(4)
C12_2 C 0.500000 0.8291(5) 0.1166(6)
H5_2 H 0.500000 0.821961 0.088096
C13_2 C 0.500000 0.7974(5) 0.1476(5)
H6_2 H 0.500000 0.768861 0.140390
C14_2 C 0.500000 0.7777(6) 0.2223(6)
N3_2 N 0.500000 0.7368(5) 0.2059(5)
O5_2 O 0.500000 0.9414(3) 0.1104(3)
C15_2 C 0.500000 0.8834(6) 0.1709(5)
H7_2 H 0.500000 0.911904 0.178039
C16_2 C 0.500000 0.8524(5) 0.2026(5)
H8_2 H 0.500000 0.859610 0.231139
N4_2 N 0.500000 0.7941(5) 0.2632(5)
O7_2 O 0.500000 0.6104(3) 0.5586(3)
C17_2 C 0.500000 0.6288(3) 0.6288(3)
C18_2 C 0.500000 0.5957(4) 0.5957(4)
C19_2 C 0.500000 0.6894(4) 0.6894(4)
C20_2 C 0.500000 0.6709(5) 0.6166(6)
H9_2 H 0.500000 0.678039 0.588096
C21_2 C 0.500000 0.7026(5) 0.6476(5)
H10_2 H 0.500000 0.731139 0.640390
C22_2 C 0.500000 0.7223(6) 0.7223(6)
N5_2 N 0.500000 0.7632(5) 0.7059(5)
C23_2 C 0.500000 0.6166(6) 0.6709(5)
H11_2 H 0.500000 0.588096 0.678039
C24_2 C 0.500000 0.6476(5) 0.7026(5)
H12_2 H 0.500000 0.640390 0.731139
N6_2 N 0.500000 0.7059(5) 0.7632(5)
O9_2 O 0.500000 0.8896(3) 0.9414(3)
C25_2 C 0.500000 0.8712(3) 0.8712(3)
C26_2 C 0.500000 0.9043(4) 0.9043(4)
C27_2 C 0.500000 0.8106(4) 0.8106(4)
C28_2 C 0.500000 0.8291(5) 0.8834(6)
H13_2 H 0.500000 0.821961 0.911904
C29_2 C 0.500000 0.7974(5) 0.8524(5)
H14_2 H 0.500000 0.768861 0.859610
C30_2 C 0.500000 0.7777(6) 0.7777(6)
N7_2 N 0.500000 0.7368(5) 0.7941(5)
O10_2 O 0.500000 0.9414(3) 0.8896(3)
C31_2 C 0.500000 0.8834(6) 0.8291(5)
H15_2 H 0.500000 0.911904 0.821961
C32_2 C 0.500000 0.8524(5) 0.7974(5)
H16_2 H 0.500000 0.859610 0.768861
N8_2 N 0.500000 0.7941(5) 0.7368(5)
C33_2 C 0.6288(3) 0.500000 0.3712(3)
C34_2 C 0.5957(4) 0.500000 0.4043(4)
C35_2 C 0.6894(4) 0.500000 0.3106(4)
C36_2 C 0.6166(6) 0.500000 0.3291(5)
H17_2 H 0.588096 0.500000 0.321961
C37_2 C 0.6476(5) 0.500000 0.2974(5)
H18_2 H 0.640390 0.500000 0.268861
C38_2 C 0.7223(6) 0.500000 0.2777(6)
N9_2 N 0.7059(5) 0.500000 0.2368(5)
O13_2 O 0.6104(3) 0.500000 0.4414(3)
C39_2 C 0.6709(5) 0.500000 0.3834(6)
H19_2 H 0.678039 0.500000 0.411904
C40_2 C 0.7026(5) 0.500000 0.3524(5)
H20_2 H 0.731139 0.500000 0.359610
N10_2 N 0.7632(5) 0.500000 0.2941(5)
O14_2 O 0.9414(3) 0.500000 0.1104(3)
C41_2 C 0.8712(3) 0.500000 0.1288(3)
C42_2 C 0.9043(4) 0.500000 0.0957(4)
C43_2 C 0.8106(4) 0.500000 0.1894(4)
C44_2 C 0.8834(6) 0.500000 0.1709(5)
H21_2 H 0.911904 0.500000 0.178039
C45_2 C 0.8524(5) 0.500000 0.2026(5)
H22_2 H 0.859610 0.500000 0.231139
C46_2 C 0.7777(6) 0.500000 0.2223(6)
N11_2 N 0.7941(5) 0.500000 0.2632(5)
O15_2 O 0.8896(3) 0.500000 0.0586(3)
C47_2 C 0.8291(5) 0.500000 0.1166(6)
H23_2 H 0.821961 0.500000 0.088096
C48_2 C 0.7974(5) 0.500000 0.1476(5)
H24_2 H 0.768861 0.500000 0.140390
N12_2 N 0.7368(5) 0.500000 0.2059(5)
Zr8_4 Zr 0.500000 0.92387(4) 1.000000
Zr12_3 Zr 0.92387(4) 0.500000 0.000000
O26_2 O 0.5586(3) 0.6104(3) 0.500000
O27_2 O 0.4414(3) 0.6104(3) 0.500000
Zr12_4 Zr 0.92387(4) 0.500000 1.000000
Zr11_3 Zr 0.000000 0.500000 0.92387(4)
C33_3 C 0.6288(3) 0.500000 0.6288(3)
C34_3 C 0.5957(4) 0.500000 0.5957(4)
C35_3 C 0.6894(4) 0.500000 0.6894(4)
C36_3 C 0.6166(6) 0.500000 0.6709(5)
H17_3 H 0.588096 0.500000 0.678039
C37_3 C 0.6476(5) 0.500000 0.7026(5)
H18_3 H 0.640390 0.500000 0.731139
C38_3 C 0.7223(6) 0.500000 0.7223(6)
N9_3 N 0.7059(5) 0.500000 0.7632(5)
O13_3 O 0.6104(3) 0.500000 0.5586(3)
C39_3 C 0.6709(5) 0.500000 0.6166(6)
H19_3 H 0.678039 0.500000 0.588096
C40_3 C 0.7026(5) 0.500000 0.6476(5)
H20_3 H 0.731139 0.500000 0.640390
N10_3 N 0.7632(5) 0.500000 0.7059(5)
O14_3 O 0.9414(3) 0.500000 0.8896(3)
C41_3 C 0.8712(3) 0.500000 0.8712(3)
C42_3 C 0.9043(4) 0.500000 0.9043(4)
C43_3 C 0.8106(4) 0.500000 0.8106(4)
C44_3 C 0.8834(6) 0.500000 0.8291(5)
H21_3 H 0.911904 0.500000 0.821961
C45_3 C 0.8524(5) 0.500000 0.7974(5)
H22_3 H 0.859610 0.500000 0.768861
C46_3 C 0.7777(6) 0.500000 0.7777(6)
N11_3 N 0.7941(5) 0.500000 0.7368(5)
O15_3 O 0.8896(3) 0.500000 0.9414(3)
C47_3 C 0.8291(5) 0.500000 0.8834(6)
H23_3 H 0.821961 0.500000 0.911904
C48_3 C 0.7974(5) 0.500000 0.8524(5)
H24_3 H 0.768861 0.500000 0.859610
N12_3 N 0.7368(5) 0.500000 0.7941(5)
Zr11_4 Zr 1.000000 0.500000 0.92387(4)
C33_4 C 0.3712(3) 0.500000 0.6288(3)
C34_4 C 0.4043(4) 0.500000 0.5957(4)
C35_4 C 0.3106(4) 0.500000 0.6894(4)
C36_4 C 0.3834(6) 0.500000 0.6709(5)
H17_4 H 0.411904 0.500000 0.678039
C37_4 C 0.3524(5) 0.500000 0.7026(5)
H18_4 H 0.359610 0.500000 0.731139
C38_4 C 0.2777(6) 0.500000 0.7223(6)
N9_4 N 0.2941(5) 0.500000 0.7632(5)
O13_4 O 0.3896(3) 0.500000 0.5586(3)
C39_4 C 0.3291(5) 0.500000 0.6166(6)
H19_4 H 0.321961 0.500000 0.588096
C40_4 C 0.2974(5) 0.500000 0.6476(5)
H20_4 H 0.268861 0.500000 0.640390
N10_4 N 0.2368(5) 0.500000 0.7059(5)
O14_4 O 0.0586(3) 0.500000 0.8896(3)
C41_4 C 0.1288(3) 0.500000 0.8712(3)
C42_4 C 0.0957(4) 0.500000 0.9043(4)
C43_4 C 0.1894(4) 0.500000 0.8106(4)
C44_4 C 0.1166(6) 0.500000 0.8291(5)
H21_4 H 0.088096 0.500000 0.821961
C45_4 C 0.1476(5) 0.500000 0.7974(5)
H22_4 H 0.140390 0.500000 0.768861
C46_4 C 0.2223(6) 0.500000 0.7777(6)
N11_4 N 0.2059(5) 0.500000 0.7368(5)
O15_4 O 0.1104(3) 0.500000 0.9414(3)
C47_4 C 0.1709(5) 0.500000 0.8834(6)
H23_4 H 0.178039 0.500000 0.911904
C48_4 C 0.2026(5) 0.500000 0.8524(5)
H24_4 H 0.231139 0.500000 0.859610
N12_4 N 0.2632(5) 0.500000 0.7941(5)
O12_2 O 0.3896(3) 0.4414(3) 0.500000
C33_5 C 0.3712(3) 0.3712(3) 0.500000
C34_5 C 0.4043(4) 0.4043(4) 0.500000
C35_5 C 0.3106(4) 0.3106(4) 0.500000
C36_5 C 0.3291(5) 0.3834(6) 0.500000
H17_5 H 0.321961 0.411904 0.500000
C37_5 C 0.2974(5) 0.3524(5) 0.500000
H18_5 H 0.268861 0.359610 0.500000
C38_5 C 0.2777(6) 0.2777(6) 0.500000
N9_5 N 0.2368(5) 0.2941(5) 0.500000
C39_5 C 0.3834(6) 0.3291(5) 0.500000
H19_5 H 0.411904 0.321961 0.500000
C40_5 C 0.3524(5) 0.2974(5) 0.500000
H20_5 H 0.359610 0.268861 0.500000
N10_5 N 0.2941(5) 0.2368(5) 0.500000
O14_5 O 0.1104(3) 0.0586(3) 0.500000
C41_5 C 0.1288(3) 0.1288(3) 0.500000
C42_5 C 0.0957(4) 0.0957(4) 0.500000
C43_5 C 0.1894(4) 0.1894(4) 0.500000
C44_5 C 0.1709(5) 0.1166(6) 0.500000
H21_5 H 0.178039 0.088096 0.500000
C45_5 C 0.2026(5) 0.1476(5) 0.500000
H22_5 H 0.231139 0.140390 0.500000
C46_5 C 0.2223(6) 0.2223(6) 0.500000
N11_5 N 0.2632(5) 0.2059(5) 0.500000
O15_5 O 0.0586(3) 0.1104(3) 0.500000
C47_5 C 0.1166(6) 0.1709(5) 0.500000
H23_5 H 0.088096 0.178039 0.500000
C48_5 C 0.1476(5) 0.2026(5) 0.500000
H24_5 H 0.140390 0.231139 0.500000
N12_5 N 0.2059(5) 0.2632(5) 0.500000
Zr11_5 Zr 0.07613(4) -0.000000 0.500000
Zr12_5 Zr -0.000000 0.07613(4) 0.500000
O21_2 O 0.6104(3) 0.4414(3) 0.500000
O22_2 O 0.3896(3) 0.5586(3) 0.500000
O23_2 O 0.6104(3) 0.5586(3) 0.500000
Zr11_6 Zr 0.07613(4) 1.000000 0.500000
Zr12_6 Zr 1.000000 0.07613(4) 0.500000
C33_6 C 0.3712(3) 0.6288(3) 0.500000
C34_6 C 0.4043(4) 0.5957(4) 0.500000
C35_6 C 0.3106(4) 0.6894(4) 0.500000
C36_6 C 0.3291(5) 0.6166(6) 0.500000
H17_6 H 0.321961 0.588096 0.500000
C37_6 C 0.2974(5) 0.6476(5) 0.500000
H18_6 H 0.268861 0.640390 0.500000
C38_6 C 0.2777(6) 0.7223(6) 0.500000
N9_6 N 0.2368(5) 0.7059(5) 0.500000
C39_6 C 0.3834(6) 0.6709(5) 0.500000
H19_6 H 0.411904 0.678039 0.500000
C40_6 C 0.3524(5) 0.7026(5) 0.500000
H20_6 H 0.359610 0.731139 0.500000
N10_6 N 0.2941(5) 0.7632(5) 0.500000
O14_6 O 0.1104(3) 0.9414(3) 0.500000
C41_6 C 0.1288(3) 0.8712(3) 0.500000
C42_6 C 0.0957(4) 0.9043(4) 0.500000
C43_6 C 0.1894(4) 0.8106(4) 0.500000
C44_6 C 0.1709(5) 0.8834(6) 0.500000
H21_6 H 0.178039 0.911904 0.500000
C45_6 C 0.2026(5) 0.8524(5) 0.500000
H22_6 H 0.231139 0.859610 0.500000
C46_6 C 0.2223(6) 0.7777(6) 0.500000
N11_6 N 0.2632(5) 0.7941(5) 0.500000
O15_6 O 0.0586(3) 0.8896(3) 0.500000
C47_6 C 0.1166(6) 0.8291(5) 0.500000
H23_6 H 0.088096 0.821961 0.500000
C48_6 C 0.1476(5) 0.7974(5) 0.500000
H24_6 H 0.140390 0.768861 0.500000
N12_6 N 0.2059(5) 0.7368(5) 0.500000
Zr12_7 Zr -0.000000 0.92387(4) 0.500000
Zr12_8 Zr 1.000000 0.92387(4) 0.500000
Zr11_7 Zr 0.92387(4) 0.000000 0.500000
C33_7 C 0.6288(3) 0.6288(3) 0.500000
C34_7 C 0.5957(4) 0.5957(4) 0.500000
C35_7 C 0.6894(4) 0.6894(4) 0.500000
C36_7 C 0.6709(5) 0.6166(6) 0.500000
H17_7 H 0.678039 0.588096 0.500000
C37_7 C 0.7026(5) 0.6476(5) 0.500000
H18_7 H 0.731139 0.640390 0.500000
C38_7 C 0.7223(6) 0.7223(6) 0.500000
N9_7 N 0.7632(5) 0.7059(5) 0.500000
C39_7 C 0.6166(6) 0.6709(5) 0.500000
H19_7 H 0.588096 0.678039 0.500000
C40_7 C 0.6476(5) 0.7026(5) 0.500000
H20_7 H 0.640390 0.731139 0.500000
N10_7 N 0.7059(5) 0.7632(5) 0.500000
O14_7 O 0.8896(3) 0.9414(3) 0.500000
C41_7 C 0.8712(3) 0.8712(3) 0.500000
C42_7 C 0.9043(4) 0.9043(4) 0.500000
C43_7 C 0.8106(4) 0.8106(4) 0.500000
C44_7 C 0.8291(5) 0.8834(6) 0.500000
H21_7 H 0.821961 0.911904 0.500000
C45_7 C 0.7974(5) 0.8524(5) 0.500000
H22_7 H 0.768861 0.859610 0.500000
C46_7 C 0.7777(6) 0.7777(6) 0.500000
N11_7 N 0.7368(5) 0.7941(5) 0.500000
O15_7 O 0.9414(3) 0.8896(3) 0.500000
C47_7 C 0.8834(6) 0.8291(5) 0.500000
H23_7 H 0.911904 0.821961 0.500000
C48_7 C 0.8524(5) 0.7974(5) 0.500000
H24_7 H 0.859610 0.768861 0.500000
N12_7 N 0.7941(5) 0.7368(5) 0.500000
Zr11_8 Zr 0.92387(4) 1.000000 0.500000
C33_8 C 0.6288(3) 0.3712(3) 0.500000
C34_8 C 0.5957(4) 0.4043(4) 0.500000
C35_8 C 0.6894(4) 0.3106(4) 0.500000
C36_8 C 0.6709(5) 0.3834(6) 0.500000
H17_8 H 0.678039 0.411904 0.500000
C37_8 C 0.7026(5) 0.3524(5) 0.500000
H18_8 H 0.731139 0.359610 0.500000
C38_8 C 0.7223(6) 0.2777(6) 0.500000
N9_8 N 0.7632(5) 0.2941(5) 0.500000
C39_8 C 0.6166(6) 0.3291(5) 0.500000
H19_8 H 0.588096 0.321961 0.500000
C40_8 C 0.6476(5) 0.2974(5) 0.500000
H20_8 H 0.640390 0.268861 0.500000
N10_8 N 0.7059(5) 0.2368(5) 0.500000
O14_8 O 0.8896(3) 0.0586(3) 0.500000
C41_8 C 0.8712(3) 0.1288(3) 0.500000
C42_8 C 0.9043(4) 0.0957(4) 0.500000
C43_8 C 0.8106(4) 0.1894(4) 0.500000
C44_8 C 0.8291(5) 0.1166(6) 0.500000
H21_8 H 0.821961 0.088096 0.500000
C45_8 C 0.7974(5) 0.1476(5) 0.500000
H22_8 H 0.768861 0.140390 0.500000
C46_8 C 0.7777(6) 0.2223(6) 0.500000
N11_8 N 0.7368(5) 0.2059(5) 0.500000
O15_8 O 0.9414(3) 0.1104(3) 0.500000
C47_8 C 0.8834(6) 0.1709(5) 0.500000
H23_8 H 0.911904 0.178039 0.500000
C48_8 C 0.8524(5) 0.2026(5) 0.500000
H24_8 H 0.859610 0.231139 0.500000
N12_8 N 0.7941(5) 0.2632(5) 0.500000
O16_2 O 0.4616(2) 0.0384(2) 0.0384(2)
Zr5_2 Zr 0.42387(4) -0.000000 -0.000000
Zr6_2 Zr 0.57613(4) -0.000000 -0.000000
O20_2 O 0.5384(2) 0.0384(2) 0.0384(2)
O21_3 O 0.4414(3) -0.000000 0.1104(3)
O23_3 O 0.5586(3) -0.000000 0.1104(3)
O11_2 O 0.5384(2) 0.0384(2) 0.9616(2)
O12_3 O 0.4414(3) -0.000000 0.8896(3)
C33_9 C 0.3712(3) -0.000000 0.8712(3)
C34_9 C 0.4043(4) -0.000000 0.9043(4)
C35_9 C 0.3106(4) -0.000000 0.8106(4)
C36_9 C 0.3834(6) -0.000000 0.8291(5)
H17_9 H 0.411904 -0.000000 0.821961
C37_9 C 0.3524(5) -0.000000 0.7974(5)
H18_9 H 0.359610 -0.000000 0.768861
C38_9 C 0.2777(6) -0.000000 0.7777(6)
N9_9 N 0.2941(5) -0.000000 0.7368(5)
O13_5 O 0.3896(3) -0.000000 0.9414(3)
C39_9 C 0.3291(5) -0.000000 0.8834(6)
H19_9 H 0.321961 -0.000000 0.911904
C40_9 C 0.2974(5) -0.000000 0.8524(5)
H20_9 H 0.268861 -0.000000 0.859610
N10_9 N 0.2368(5) -0.000000 0.7941(5)
O14_9 O 0.0586(3) -0.000000 0.6104(3)
C41_9 C 0.1288(3) -0.000000 0.6288(3)
C42_9 C 0.0957(4) -0.000000 0.5957(4)
C43_9 C 0.1894(4) -0.000000 0.6894(4)
C44_9 C 0.1166(6) -0.000000 0.6709(5)
H21_9 H 0.088096 -0.000000 0.678039
C45_9 C 0.1476(5) -0.000000 0.7026(5)
H22_9 H 0.140390 -0.000000 0.731139
C46_9 C 0.2223(6) -0.000000 0.7223(6)
N11_9 N 0.2059(5) -0.000000 0.7632(5)
O15_9 O 0.1104(3) -0.000000 0.5586(3)
C47_9 C 0.1709(5) -0.000000 0.6166(6)
H23_9 H 0.178039 -0.000000 0.588096
C48_9 C 0.2026(5) -0.000000 0.6476(5)
H24_9 H 0.231139 -0.000000 0.640390
N12_9 N 0.2632(5) -0.000000 0.7059(5)
Zr5_3 Zr 0.42387(4) -0.000000 1.000000
Zr6_3 Zr 0.57613(4) -0.000000 1.000000
Zr11_9 Zr -0.000000 -0.000000 0.57613(4)
O17_2 O 0.4616(2) 0.0384(2) 0.9616(2)
O22_3 O 0.5586(3) -0.000000 0.8896(3)
O1_2 O 0.5384(2) 0.9616(2) 0.0384(2)
Zr5_4 Zr 0.42387(4) 1.000000 -0.000000
Zr6_4 Zr 0.57613(4) 1.000000 -0.000000
O19_2 O 0.4616(2) 0.9616(2) 0.0384(2)
O21_4 O 0.4414(3) 1.000000 0.1104(3)
O23_4 O 0.5586(3) 1.000000 0.1104(3)
O26_3 O 0.4414(3) 0.8896(3) -0.000000
O27_3 O 0.5586(3) 0.8896(3) -0.000000
O6_2 O 0.4616(2) 0.9616(2) 0.9616(2)
O12_4 O 0.4414(3) 1.000000 0.8896(3)
C33_10 C 0.3712(3) 1.000000 0.8712(3)
C34_10 C 0.4043(4) 1.000000 0.9043(4)
C35_10 C 0.3106(4) 1.000000 0.8106(4)
C36_10 C 0.3834(6) 1.000000 0.8291(5)
H17_10 H 0.411904 1.000000 0.821961
C37_10 C 0.3524(5) 1.000000 0.7974(5)
H18_10 H 0.359610 1.000000 0.768861
C38_10 C 0.2777(6) 1.000000 0.7777(6)
N9_10 N 0.2941(5) 1.000000 0.7368(5)
O13_6 O 0.3896(3) 1.000000 0.9414(3)
C39_10 C 0.3291(5) 1.000000 0.8834(6)
H19_10 H 0.321961 1.000000 0.911904
C40_10 C 0.2974(5) 1.000000 0.8524(5)
H20_10 H 0.268861 1.000000 0.859610
N10_10 N 0.2368(5) 1.000000 0.7941(5)
O14_10 O 0.0586(3) 1.000000 0.6104(3)
C41_10 C 0.1288(3) 1.000000 0.6288(3)
C42_10 C 0.0957(4) 1.000000 0.5957(4)
C43_10 C 0.1894(4) 1.000000 0.6894(4)
C44_10 C 0.1166(6) 1.000000 0.6709(5)
H21_10 H 0.088096 1.000000 0.678039
C45_10 C 0.1476(5) 1.000000 0.7026(5)
H22_10 H 0.140390 1.000000 0.731139
C46_10 C 0.2223(6) 1.000000 0.7223(6)
N11_10 N 0.2059(5) 1.000000 0.7632(5)
O15_10 O 0.1104(3) 1.000000 0.5586(3)
C47_10 C 0.1709(5) 1.000000 0.6166(6)
H23_10 H 0.178039 1.000000 0.588096
C48_10 C 0.2026(5) 1.000000 0.6476(5)
H24_10 H 0.231139 1.000000 0.640390
N12_10 N 0.2632(5) 1.000000 0.7059(5)
Zr5_5 Zr 0.42387(4) 1.000000 1.000000
Zr6_5 Zr 0.57613(4) 1.000000 1.000000
Zr11_10 Zr -0.000000 1.000000 0.57613(4)
O18_2 O 0.5384(2) 0.9616(2) 0.9616(2)
O22_4 O 0.5586(3) 1.000000 0.8896(3)
O26_4 O 0.4414(3) 0.8896(3) 1.000000
O27_4 O 0.5586(3) 0.8896(3) 1.000000
Zr11_11 Zr 1.000000 -0.000000 0.57613(4)
Zr11_12 Zr 1.000000 1.000000 0.57613(4)
O26_5 O 0.5586(3) 0.1104(3) -0.000000
O27_5 O 0.4414(3) 0.1104(3) -0.000000
C33_11 C 0.6288(3) 0.000000 0.8712(3)
C34_11 C 0.5957(4) 0.000000 0.9043(4)
C35_11 C 0.6894(4) 0.000000 0.8106(4)
C36_11 C 0.6166(6) 0.000000 0.8291(5)
H17_11 H 0.588096 0.000000 0.821961
C37_11 C 0.6476(5) 0.000000 0.7974(5)
H18_11 H 0.640390 0.000000 0.768861
C38_11 C 0.7223(6) 0.000000 0.7777(6)
N9_11 N 0.7059(5) 0.000000 0.7368(5)
O13_7 O 0.6104(3) 0.000000 0.9414(3)
C39_11 C 0.6709(5) 0.000000 0.8834(6)
H19_11 H 0.678039 0.000000 0.911904
C40_11 C 0.7026(5) 0.000000 0.8524(5)
H20_11 H 0.731139 0.000000 0.859610
N10_11 N 0.7632(5) 0.000000 0.7941(5)
O14_11 O 0.9414(3) 0.000000 0.6104(3)
C41_11 C 0.8712(3) 0.000000 0.6288(3)
C42_11 C 0.9043(4) 0.000000 0.5957(4)
C43_11 C 0.8106(4) 0.000000 0.6894(4)
C44_11 C 0.8834(6) 0.000000 0.6709(5)
H21_11 H 0.911904 0.000000 0.678039
C45_11 C 0.8524(5) 0.000000 0.7026(5)
H22_11 H 0.859610 0.000000 0.731139
C46_11 C 0.7777(6) 0.000000 0.7223(6)
N11_11 N 0.7941(5) 0.000000 0.7632(5)
O15_11 O 0.8896(3) 0.000000 0.5586(3)
C47_11 C 0.8291(5) 0.000000 0.6166(6)
H23_11 H 0.821961 0.000000 0.588096
C48_11 C 0.7974(5) 0.000000 0.6476(5)
H24_11 H 0.768861 0.000000 0.640390
N12_11 N 0.7368(5) 0.000000 0.7059(5)
O26_6 O 0.5586(3) 0.1104(3) 1.000000
O27_6 O 0.4414(3) 0.1104(3) 1.000000
C33_12 C 0.6288(3) 1.000000 0.8712(3)
C34_12 C 0.5957(4) 1.000000 0.9043(4)
C35_12 C 0.6894(4) 1.000000 0.8106(4)
C36_12 C 0.6166(6) 1.000000 0.8291(5)
H17_12 H 0.588096 1.000000 0.821961
C37_12 C 0.6476(5) 1.000000 0.7974(5)
H18_12 H 0.640390 1.000000 0.768861
C38_12 C 0.7223(6) 1.000000 0.7777(6)
N9_12 N 0.7059(5) 1.000000 0.7368(5)
O13_8 O 0.6104(3) 1.000000 0.9414(3)
C39_12 C 0.6709(5) 1.000000 0.8834(6)
H19_12 H 0.678039 1.000000 0.911904
C40_12 C 0.7026(5) 1.000000 0.8524(5)
H20_12 H 0.731139 1.000000 0.859610
N10_12 N 0.7632(5) 1.000000 0.7941(5)
O14_12 O 0.9414(3) 1.000000 0.6104(3)
C41_12 C 0.8712(3) 1.000000 0.6288(3)
C42_12 C 0.9043(4) 1.000000 0.5957(4)
C43_12 C 0.8106(4) 1.000000 0.6894(4)
C44_12 C 0.8834(6) 1.000000 0.6709(5)
H21_12 H 0.911904 1.000000 0.678039
C45_12 C 0.8524(5) 1.000000 0.7026(5)
H22_12 H 0.859610 1.000000 0.731139
C46_12 C 0.7777(6) 1.000000 0.7223(6)
N11_12 N 0.7941(5) 1.000000 0.7632(5)
O15_12 O 0.8896(3) 1.000000 0.5586(3)
C47_12 C 0.8291(5) 1.000000 0.6166(6)
H23_12 H 0.821961 1.000000 0.588096
C48_12 C 0.7974(5) 1.000000 0.6476(5)
H24_12 H 0.768861 1.000000 0.640390
N12_12 N 0.7368(5) 1.000000 0.7059(5)
Zr11_13 Zr 0.000000 -0.000000 0.42387(4)
Zr11_14 Zr 0.000000 1.000000 0.42387(4)
C33_13 C 0.6288(3) -0.000000 0.1288(3)
C34_13 C 0.5957(4) -0.000000 0.0957(4)
C35_13 C 0.6894(4) -0.000000 0.1894(4)
C36_13 C 0.6166(6) -0.000000 0.1709(5)
H17_13 H 0.588096 -0.000000 0.178039
C37_13 C 0.6476(5) -0.000000 0.2026(5)
H18_13 H 0.640390 -0.000000 0.231139
C38_13 C 0.7223(6) -0.000000 0.2223(6)
N9_13 N 0.7059(5) -0.000000 0.2632(5)
O13_9 O 0.6104(3) -0.000000 0.0586(3)
C39_13 C 0.6709(5) -0.000000 0.1166(6)
H19_13 H 0.678039 -0.000000 0.088096
C40_13 C 0.7026(5) -0.000000 0.1476(5)
H20_13 H 0.731139 -0.000000 0.140390
N10_13 N 0.7632(5) -0.000000 0.2059(5)
O14_13 O 0.9414(3) -0.000000 0.3896(3)
C41_13 C 0.8712(3) -0.000000 0.3712(3)
C42_13 C 0.9043(4) -0.000000 0.4043(4)
C43_13 C 0.8106(4) -0.000000 0.3106(4)
C44_13 C 0.8834(6) -0.000000 0.3291(5)
H21_13 H 0.911904 -0.000000 0.321961
C45_13 C 0.8524(5) -0.000000 0.2974(5)
H22_13 H 0.859610 -0.000000 0.268861
C46_13 C 0.7777(6) -0.000000 0.2777(6)
N11_13 N 0.7941(5) -0.000000 0.2368(5)
O15_13 O 0.8896(3) -0.000000 0.4414(3)
C47_13 C 0.8291(5) -0.000000 0.3834(6)
H23_13 H 0.821961 -0.000000 0.411904
C48_13 C 0.7974(5) -0.000000 0.3524(5)
H24_13 H 0.768861 -0.000000 0.359610
N12_13 N 0.7368(5) -0.000000 0.2941(5)
Zr11_15 Zr 1.000000 -0.000000 0.42387(4)
C33_14 C 0.6288(3) 1.000000 0.1288(3)
C34_14 C 0.5957(4) 1.000000 0.0957(4)
C35_14 C 0.6894(4) 1.000000 0.1894(4)
C36_14 C 0.6166(6) 1.000000 0.1709(5)
H17_14 H 0.588096 1.000000 0.178039
C37_14 C 0.6476(5) 1.000000 0.2026(5)
H18_14 H 0.640390 1.000000 0.231139
C38_14 C 0.7223(6) 1.000000 0.2223(6)
N9_14 N 0.7059(5) 1.000000 0.2632(5)
O13_10 O 0.6104(3) 1.000000 0.0586(3)
C39_14 C 0.6709(5) 1.000000 0.1166(6)
H19_14 H 0.678039 1.000000 0.088096
C40_14 C 0.7026(5) 1.000000 0.1476(5)
H20_14 H 0.731139 1.000000 0.140390
N10_14 N 0.7632(5) 1.000000 0.2059(5)
O14_14 O 0.9414(3) 1.000000 0.3896(3)
C41_14 C 0.8712(3) 1.000000 0.3712(3)
C42_14 C 0.9043(4) 1.000000 0.4043(4)
C43_14 C 0.8106(4) 1.000000 0.3106(4)
C44_14 C 0.8834(6) 1.000000 0.3291(5)
H21_14 H 0.911904 1.000000 0.321961
C45_14 C 0.8524(5) 1.000000 0.2974(5)
H22_14 H 0.859610 1.000000 0.268861
C46_14 C 0.7777(6) 1.000000 0.2777(6)
N11_14 N 0.7941(5) 1.000000 0.2368(5)
O15_14 O 0.8896(3) 1.000000 0.4414(3)
C47_14 C 0.8291(5) 1.000000 0.3834(6)
H23_14 H 0.821961 1.000000 0.411904
C48_14 C 0.7974(5) 1.000000 0.3524(5)
H24_14 H 0.768861 1.000000 0.359610
N12_14 N 0.7368(5) 1.000000 0.2941(5)
Zr11_16 Zr 1.000000 1.000000 0.42387(4)
C33_15 C 0.3712(3) 0.000000 0.1288(3)
C34_15 C 0.4043(4) 0.000000 0.0957(4)
C35_15 C 0.3106(4) 0.000000 0.1894(4)
C36_15 C 0.3834(6) 0.000000 0.1709(5)
H17_15 H 0.411904 0.000000 0.178039
C37_15 C 0.3524(5) 0.000000 0.2026(5)
H18_15 H 0.359610 0.000000 0.231139
C38_15 C 0.2777(6) 0.000000 0.2223(6)
N9_15 N 0.2941(5) 0.000000 0.2632(5)
O13_11 O 0.3896(3) 0.000000 0.0586(3)
C39_15 C 0.3291(5) 0.000000 0.1166(6)
H19_15 H 0.321961 0.000000 0.088096
C40_15 C 0.2974(5) 0.000000 0.1476(5)
H20_15 H 0.268861 0.000000 0.140390
N10_15 N 0.2368(5) 0.000000 0.2059(5)
O14_15 O 0.0586(3) 0.000000 0.3896(3)
C41_15 C 0.1288(3) 0.000000 0.3712(3)
C42_15 C 0.0957(4) 0.000000 0.4043(4)
C43_15 C 0.1894(4) 0.000000 0.3106(4)
C44_15 C 0.1166(6) 0.000000 0.3291(5)
H21_15 H 0.088096 0.000000 0.321961
C45_15 C 0.1476(5) 0.000000 0.2974(5)
H22_15 H 0.140390 0.000000 0.268861
C46_15 C 0.2223(6) 0.000000 0.2777(6)
N11_15 N 0.2059(5) 0.000000 0.2368(5)
O15_15 O 0.1104(3) 0.000000 0.4414(3)
C47_15 C 0.1709(5) 0.000000 0.3834(6)
H23_15 H 0.178039 0.000000 0.411904
C48_15 C 0.2026(5) 0.000000 0.3524(5)
H24_15 H 0.231139 0.000000 0.359610
N12_15 N 0.2632(5) 0.000000 0.2941(5)
C33_16 C 0.3712(3) 1.000000 0.1288(3)
C34_16 C 0.4043(4) 1.000000 0.0957(4)
C35_16 C 0.3106(4) 1.000000 0.1894(4)
C36_16 C 0.3834(6) 1.000000 0.1709(5)
H17_16 H 0.411904 1.000000 0.178039
C37_16 C 0.3524(5) 1.000000 0.2026(5)
H18_16 H 0.359610 1.000000 0.231139
C38_16 C 0.2777(6) 1.000000 0.2223(6)
N9_16 N 0.2941(5) 1.000000 0.2632(5)
O13_12 O 0.3896(3) 1.000000 0.0586(3)
C39_16 C 0.3291(5) 1.000000 0.1166(6)
H19_16 H 0.321961 1.000000 0.088096
C40_16 C 0.2974(5) 1.000000 0.1476(5)
H20_16 H 0.268861 1.000000 0.140390
N10_16 N 0.2368(5) 1.000000 0.2059(5)
O14_16 O 0.0586(3) 1.000000 0.3896(3)
C41_16 C 0.1288(3) 1.000000 0.3712(3)
C42_16 C 0.0957(4) 1.000000 0.4043(4)
C43_16 C 0.1894(4) 1.000000 0.3106(4)
C44_16 C 0.1166(6) 1.000000 0.3291(5)
H21_16 H 0.088096 1.000000 0.321961
C45_16 C 0.1476(5) 1.000000 0.2974(5)
H22_16 H 0.140390 1.000000 0.268861
C46_16 C 0.2223(6) 1.000000 0.2777(6)
N11_16 N 0.2059(5) 1.000000 0.2368(5)
O15_16 O 0.1104(3) 1.000000 0.4414(3)
C47_16 C 0.1709(5) 1.000000 0.3834(6)
H23_16 H 0.178039 1.000000 0.411904
C48_16 C 0.2026(5) 1.000000 0.3524(5)
H24_16 H 0.231139 1.000000 0.359610
N12_16 N 0.2632(5) 1.000000 0.2941(5)
O22_5 O 0.3896(3) 0.0586(3) -0.000000
O23_5 O 0.6104(3) 0.0586(3) -0.000000
O22_6 O 0.3896(3) 0.0586(3) 1.000000
O23_6 O 0.6104(3) 0.0586(3) 1.000000
O12_5 O 0.3896(3) 0.9414(3) -0.000000
C33_17 C 0.3712(3) 0.8712(3) -0.000000
C34_17 C 0.4043(4) 0.9043(4) -0.000000
C35_17 C 0.3106(4) 0.8106(4) -0.000000
C36_17 C 0.3291(5) 0.8834(6) -0.000000
H17_17 H 0.321961 0.911904 -0.000000
C37_17 C 0.2974(5) 0.8524(5) -0.000000
H18_17 H 0.268861 0.859610 -0.000000
C38_17 C 0.2777(6) 0.7777(6) -0.000000
N9_17 N 0.2368(5) 0.7941(5) -0.000000
C39_17 C 0.3834(6) 0.8291(5) -0.000000
H19_17 H 0.411904 0.821961 -0.000000
C40_17 C 0.3524(5) 0.7974(5) -0.000000
H20_17 H 0.359610 0.768861 -0.000000
N10_17 N 0.2941(5) 0.7368(5) -0.000000
O14_17 O 0.1104(3) 0.5586(3) -0.000000
C41_17 C 0.1288(3) 0.6288(3) -0.000000
C42_17 C 0.0957(4) 0.5957(4) -0.000000
C43_17 C 0.1894(4) 0.6894(4) -0.000000
C44_17 C 0.1709(5) 0.6166(6) -0.000000
H21_17 H 0.178039 0.588096 -0.000000
C45_17 C 0.2026(5) 0.6476(5) -0.000000
H22_17 H 0.231139 0.640390 -0.000000
C46_17 C 0.2223(6) 0.7223(6) -0.000000
N11_17 N 0.2632(5) 0.7059(5) -0.000000
O15_17 O 0.0586(3) 0.6104(3) -0.000000
C47_17 C 0.1166(6) 0.6709(5) -0.000000
H23_17 H 0.088096 0.678039 -0.000000
C48_17 C 0.1476(5) 0.7026(5) -0.000000
H24_17 H 0.140390 0.731139 -0.000000
N12_17 N 0.2059(5) 0.7632(5) -0.000000
Zr12_9 Zr -0.000000 0.57613(4) -0.000000
O21_5 O 0.6104(3) 0.9414(3) -0.000000
O12_6 O 0.3896(3) 0.9414(3) 1.000000
C33_18 C 0.3712(3) 0.8712(3) 1.000000
C34_18 C 0.4043(4) 0.9043(4) 1.000000
C35_18 C 0.3106(4) 0.8106(4) 1.000000
C36_18 C 0.3291(5) 0.8834(6) 1.000000
H17_18 H 0.321961 0.911904 1.000000
C37_18 C 0.2974(5) 0.8524(5) 1.000000
H18_18 H 0.268861 0.859610 1.000000
C38_18 C 0.2777(6) 0.7777(6) 1.000000
N9_18 N 0.2368(5) 0.7941(5) 1.000000
C39_18 C 0.3834(6) 0.8291(5) 1.000000
H19_18 H 0.411904 0.821961 1.000000
C40_18 C 0.3524(5) 0.7974(5) 1.000000
H20_18 H 0.359610 0.768861 1.000000
N10_18 N 0.2941(5) 0.7368(5) 1.000000
O14_18 O 0.1104(3) 0.5586(3) 1.000000
C41_18 C 0.1288(3) 0.6288(3) 1.000000
C42_18 C 0.0957(4) 0.5957(4) 1.000000
C43_18 C 0.1894(4) 0.6894(4) 1.000000
C44_18 C 0.1709(5) 0.6166(6) 1.000000
H21_18 H 0.178039 0.588096 1.000000
C45_18 C 0.2026(5) 0.6476(5) 1.000000
H22_18 H 0.231139 0.640390 1.000000
C46_18 C 0.2223(6) 0.7223(6) 1.000000
N11_18 N 0.2632(5) 0.7059(5) 1.000000
O15_18 O 0.0586(3) 0.6104(3) 1.000000
C47_18 C 0.1166(6) 0.6709(5) 1.000000
H23_18 H 0.088096 0.678039 1.000000
C48_18 C 0.1476(5) 0.7026(5) 1.000000
H24_18 H 0.140390 0.731139 1.000000
N12_18 N 0.2059(5) 0.7632(5) 1.000000
Zr12_10 Zr -0.000000 0.57613(4) 1.000000
O21_6 O 0.6104(3) 0.9414(3) 1.000000
Zr12_11 Zr 1.000000 0.57613(4) -0.000000
Zr12_12 Zr 1.000000 0.57613(4) 1.000000
C33_19 C 0.3712(3) 0.1288(3) 0.000000
C34_19 C 0.4043(4) 0.0957(4) 0.000000
C35_19 C 0.3106(4) 0.1894(4) 0.000000
C36_19 C 0.3291(5) 0.1166(6) 0.000000
H17_19 H 0.321961 0.088096 0.000000
C37_19 C 0.2974(5) 0.1476(5) 0.000000
H18_19 H 0.268861 0.140390 0.000000
C38_19 C 0.2777(6) 0.2223(6) 0.000000
N9_19 N 0.2368(5) 0.2059(5) 0.000000
C39_19 C 0.3834(6) 0.1709(5) 0.000000
H19_19 H 0.411904 0.178039 0.000000
C40_19 C 0.3524(5) 0.2026(5) 0.000000
H20_19 H 0.359610 0.231139 0.000000
N10_19 N 0.2941(5) 0.2632(5) 0.000000
O14_19 O 0.1104(3) 0.4414(3) 0.000000
C41_19 C 0.1288(3) 0.3712(3) 0.000000
C42_19 C 0.0957(4) 0.4043(4) 0.000000
C43_19 C 0.1894(4) 0.3106(4) 0.000000
C44_19 C 0.1709(5) 0.3834(6) 0.000000
H21_19 H 0.178039 0.411904 0.000000
C45_19 C 0.2026(5) 0.3524(5) 0.000000
H22_19 H 0.231139 0.359610 0.000000
C46_19 C 0.2223(6) 0.2777(6) 0.000000
N11_19 N 0.2632(5) 0.2941(5) 0.000000
O15_19 O 0.0586(3) 0.3896(3) 0.000000
C47_19 C 0.1166(6) 0.3291(5) 0.000000
H23_19 H 0.088096 0.321961 0.000000
C48_19 C 0.1476(5) 0.2974(5) 0.000000
H24_19 H 0.140390 0.268861 0.000000
N12_19 N 0.2059(5) 0.2368(5) 0.000000
Zr12_13 Zr -0.000000 0.42387(4) 0.000000
C33_20 C 0.3712(3) 0.1288(3) 1.000000
C34_20 C 0.4043(4) 0.0957(4) 1.000000
C35_20 C 0.3106(4) 0.1894(4) 1.000000
C36_20 C 0.3291(5) 0.1166(6) 1.000000
H17_20 H 0.321961 0.088096 1.000000
C37_20 C 0.2974(5) 0.1476(5) 1.000000
H18_20 H 0.268861 0.140390 1.000000
C38_20 C 0.2777(6) 0.2223(6) 1.000000
N9_20 N 0.2368(5) 0.2059(5) 1.000000
C39_20 C 0.3834(6) 0.1709(5) 1.000000
H19_20 H 0.411904 0.178039 1.000000
C40_20 C 0.3524(5) 0.2026(5) 1.000000
H20_20 H 0.359610 0.231139 1.000000
N10_20 N 0.2941(5) 0.2632(5) 1.000000
O14_20 O 0.1104(3) 0.4414(3) 1.000000
C41_20 C 0.1288(3) 0.3712(3) 1.000000
C42_20 C 0.0957(4) 0.4043(4) 1.000000
C43_20 C 0.1894(4) 0.3106(4) 1.000000
C44_20 C 0.1709(5) 0.3834(6) 1.000000
H21_20 H 0.178039 0.411904 1.000000
C45_20 C 0.2026(5) 0.3524(5) 1.000000
H22_20 H 0.231139 0.359610 1.000000
C46_20 C 0.2223(6) 0.2777(6) 1.000000
N11_20 N 0.2632(5) 0.2941(5) 1.000000
O15_20 O 0.0586(3) 0.3896(3) 1.000000
C47_20 C 0.1166(6) 0.3291(5) 1.000000
H23_20 H 0.088096 0.321961 1.000000
C48_20 C 0.1476(5) 0.2974(5) 1.000000
H24_20 H 0.140390 0.268861 1.000000
N12_20 N 0.2059(5) 0.2368(5) 1.000000
Zr12_14 Zr -0.000000 0.42387(4) 1.000000
Zr12_15 Zr 1.000000 0.42387(4) 0.000000
Zr12_16 Zr 1.000000 0.42387(4) 1.000000
C33_21 C 0.6288(3) 0.1288(3) -0.000000
C34_21 C 0.5957(4) 0.0957(4) -0.000000
C35_21 C 0.6894(4) 0.1894(4) -0.000000
C36_21 C 0.6709(5) 0.1166(6) -0.000000
H17_21 H 0.678039 0.088096 -0.000000
C37_21 C 0.7026(5) 0.1476(5) -0.000000
H18_21 H 0.731139 0.140390 -0.000000
C38_21 C 0.7223(6) 0.2223(6) -0.000000
N9_21 N 0.7632(5) 0.2059(5) -0.000000
C39_21 C 0.6166(6) 0.1709(5) -0.000000
H19_21 H 0.588096 0.178039 -0.000000
C40_21 C 0.6476(5) 0.2026(5) -0.000000
H20_21 H 0.640390 0.231139 -0.000000
N10_21 N 0.7059(5) 0.2632(5) -0.000000
O14_21 O 0.8896(3) 0.4414(3) -0.000000
C41_21 C 0.8712(3) 0.3712(3) -0.000000
C42_21 C 0.9043(4) 0.4043(4) -0.000000
C43_21 C 0.8106(4) 0.3106(4) -0.000000
C44_21 C 0.8291(5) 0.3834(6) -0.000000
H21_21 H 0.821961 0.411904 -0.000000
C45_21 C 0.7974(5) 0.3524(5) -0.000000
H22_21 H 0.768861 0.359610 -0.000000
C46_21 C 0.7777(6) 0.2777(6) -0.000000
N11_21 N 0.7368(5) 0.2941(5) -0.000000
O15_21 O 0.9414(3) 0.3896(3) -0.000000
C47_21 C 0.8834(6) 0.3291(5) -0.000000
H23_21 H 0.911904 0.321961 -0.000000
C48_21 C 0.8524(5) 0.2974(5) -0.000000
H24_21 H 0.859610 0.268861 -0.000000
N12_21 N 0.7941(5) 0.2368(5) -0.000000
C33_22 C 0.6288(3) 0.1288(3) 1.000000
C34_22 C 0.5957(4) 0.0957(4) 1.000000
C35_22 C 0.6894(4) 0.1894(4) 1.000000
C36_22 C 0.6709(5) 0.1166(6) 1.000000
H17_22 H 0.678039 0.088096 1.000000
C37_22 C 0.7026(5) 0.1476(5) 1.000000
H18_22 H 0.731139 0.140390 1.000000
C38_22 C 0.7223(6) 0.2223(6) 1.000000
N9_22 N 0.7632(5) 0.2059(5) 1.000000
C39_22 C 0.6166(6) 0.1709(5) 1.000000
H19_22 H 0.588096 0.178039 1.000000
C40_22 C 0.6476(5) 0.2026(5) 1.000000
H20_22 H 0.640390 0.231139 1.000000
N10_22 N 0.7059(5) 0.2632(5) 1.000000
O14_22 O 0.8896(3) 0.4414(3) 1.000000
C41_22 C 0.8712(3) 0.3712(3) 1.000000
C42_22 C 0.9043(4) 0.4043(4) 1.000000
C43_22 C 0.8106(4) 0.3106(4) 1.000000
C44_22 C 0.8291(5) 0.3834(6) 1.000000
H21_22 H 0.821961 0.411904 1.000000
C45_22 C 0.7974(5) 0.3524(5) 1.000000
H22_22 H 0.768861 0.359610 1.000000
C46_22 C 0.7777(6) 0.2777(6) 1.000000
N11_22 N 0.7368(5) 0.2941(5) 1.000000
O15_22 O 0.9414(3) 0.3896(3) 1.000000
C47_22 C 0.8834(6) 0.3291(5) 1.000000
H23_22 H 0.911904 0.321961 1.000000
C48_22 C 0.8524(5) 0.2974(5) 1.000000
H24_22 H 0.859610 0.268861 1.000000
N12_22 N 0.7941(5) 0.2368(5) 1.000000
C33_23 C 0.6288(3) 0.8712(3) 0.000000
C34_23 C 0.5957(4) 0.9043(4) 0.000000
C35_23 C 0.6894(4) 0.8106(4) 0.000000
C36_23 C 0.6709(5) 0.8834(6) 0.000000
H17_23 H 0.678039 0.911904 0.000000
C37_23 C 0.7026(5) 0.8524(5) 0.000000
H18_23 H 0.731139 0.859610 0.000000
C38_23 C 0.7223(6) 0.7777(6) 0.000000
N9_23 N 0.7632(5) 0.7941(5) 0.000000
C39_23 C 0.6166(6) 0.8291(5) 0.000000
H19_23 H 0.588096 0.821961 0.000000
C40_23 C 0.6476(5) 0.7974(5) 0.000000
H20_23 H 0.640390 0.768861 0.000000
N10_23 N 0.7059(5) 0.7368(5) 0.000000
O14_23 O 0.8896(3) 0.5586(3) 0.000000
C41_23 C 0.8712(3) 0.6288(3) 0.000000
C42_23 C 0.9043(4) 0.5957(4) 0.000000
C43_23 C 0.8106(4) 0.6894(4) 0.000000
C44_23 C 0.8291(5) 0.6166(6) 0.000000
H21_23 H 0.821961 0.588096 0.000000
C45_23 C 0.7974(5) 0.6476(5) 0.000000
H22_23 H 0.768861 0.640390 0.000000
C46_23 C 0.7777(6) 0.7223(6) 0.000000
N11_23 N 0.7368(5) 0.7059(5) 0.000000
O15_23 O 0.9414(3) 0.6104(3) 0.000000
C47_23 C 0.8834(6) 0.6709(5) 0.000000
H23_23 H 0.911904 0.678039 0.000000
C48_23 C 0.8524(5) 0.7026(5) 0.000000
H24_23 H 0.859610 0.731139 0.000000
N12_23 N 0.7941(5) 0.7632(5) 0.000000
C33_24 C 0.6288(3) 0.8712(3) 1.000000
C34_24 C 0.5957(4) 0.9043(4) 1.000000
C35_24 C 0.6894(4) 0.8106(4) 1.000000
C36_24 C 0.6709(5) 0.8834(6) 1.000000
H17_24 H 0.678039 0.911904 1.000000
C37_24 C 0.7026(5) 0.8524(5) 1.000000
H18_24 H 0.731139 0.859610 1.000000
C38_24 C 0.7223(6) 0.7777(6) 1.000000
N9_24 N 0.7632(5) 0.7941(5) 1.000000
C39_24 C 0.6166(6) 0.8291(5) 1.000000
H19_24 H 0.588096 0.821961 1.000000
C40_24 C 0.6476(5) 0.7974(5) 1.000000
H20_24 H 0.640390 0.768861 1.000000
N10_24 N 0.7059(5) 0.7368(5) 1.000000
O14_24 O 0.8896(3) 0.5586(3) 1.000000
C41_24 C 0.8712(3) 0.6288(3) 1.000000
C42_24 C 0.9043(4) 0.5957(4) 1.000000
C43_24 C 0.8106(4) 0.6894(4) 1.000000
C44_24 C 0.8291(5) 0.6166(6) 1.000000
H21_24 H 0.821961 0.588096 1.000000
C45_24 C 0.7974(5) 0.6476(5) 1.000000
H22_24 H 0.768861 0.640390 1.000000
C46_24 C 0.7777(6) 0.7223(6) 1.000000
N11_24 N 0.7368(5) 0.7059(5) 1.000000
O15_24 O 0.9414(3) 0.6104(3) 1.000000
C47_24 C 0.8834(6) 0.6709(5) 1.000000
H23_24 H 0.911904 0.678039 1.000000
C48_24 C 0.8524(5) 0.7026(5) 1.000000
H24_24 H 0.859610 0.731139 1.000000
N12_24 N 0.7941(5) 0.7632(5) 1.000000
O1_3 O 0.0384(2) 0.4616(2) 0.0384(2)
O7_3 O -0.000000 0.3896(3) 0.0586(3)
C17_3 C -0.000000 0.3712(3) 0.1288(3)
C18_3 C -0.000000 0.4043(4) 0.0957(4)
C19_3 C -0.000000 0.3106(4) 0.1894(4)
C20_3 C -0.000000 0.3291(5) 0.1166(6)
H9_3 H -0.000000 0.321961 0.088096
C21_3 C -0.000000 0.2974(5) 0.1476(5)
H10_3 H -0.000000 0.268861 0.140390
C22_3 C -0.000000 0.2777(6) 0.2223(6)
N5_3 N -0.000000 0.2368(5) 0.2059(5)
O8_2 O -0.000000 0.4414(3) 0.1104(3)
C23_3 C -0.000000 0.3834(6) 0.1709(5)
H11_3 H -0.000000 0.411904 0.178039
C24_3 C -0.000000 0.3524(5) 0.2026(5)
H12_3 H -0.000000 0.359610 0.231139
N6_3 N -0.000000 0.2941(5) 0.2632(5)
O9_3 O -0.000000 0.1104(3) 0.4414(3)
C25_3 C -0.000000 0.1288(3) 0.3712(3)
C26_3 C 0.000000 0.0957(4) 0.4043(4)
C27_3 C -0.000000 0.1894(4) 0.3106(4)
C28_3 C -0.000000 0.1709(5) 0.3834(6)
H13_3 H -0.000000 0.178039 0.411904
C29_3 C -0.000000 0.2026(5) 0.3524(5)
H14_3 H -0.000000 0.231139 0.359610
C30_3 C -0.000000 0.2223(6) 0.2777(6)
N7_3 N -0.000000 0.2632(5) 0.2941(5)
O10_3 O -0.000000 0.0586(3) 0.3896(3)
C31_3 C -0.000000 0.1166(6) 0.3291(5)
H15_3 H -0.000000 0.088096 0.321961
C32_3 C -0.000000 0.1476(5) 0.2974(5)
H16_3 H -0.000000 0.140390 0.268861
N8_3 N -0.000000 0.2059(5) 0.2368(5)
O20_3 O 0.0384(2) 0.5384(2) 0.0384(2)
O24_2 O -0.000000 0.5586(3) 0.1104(3)
O2_3 O -0.000000 0.3896(3) 0.9414(3)
C1_3 C -0.000000 0.3712(3) 0.8712(3)
C2_3 C -0.000000 0.4043(4) 0.9043(4)
C3_3 C -0.000000 0.3106(4) 0.8106(4)
C4_3 C -0.000000 0.3291(5) 0.8834(6)
H1_3 H -0.000000 0.321961 0.911904
C5_3 C -0.000000 0.2974(5) 0.8524(5)
H2_3 H -0.000000 0.268861 0.859610
C6_3 C -0.000000 0.2777(6) 0.7777(6)
N1_3 N -0.000000 0.2368(5) 0.7941(5)
O3_2 O -0.000000 0.4414(3) 0.8896(3)
C7_3 C -0.000000 0.3834(6) 0.8291(5)
H3_3 H -0.000000 0.411904 0.821961
C8_3 C -0.000000 0.3524(5) 0.7974(5)
H4_3 H -0.000000 0.359610 0.768861
N2_3 N -0.000000 0.2941(5) 0.7368(5)
O4_3 O -0.000000 0.1104(3) 0.5586(3)
C9_3 C -0.000000 0.1288(3) 0.6288(3)
C10_3 C -0.000000 0.0957(4) 0.5957(4)
C11_3 C -0.000000 0.1894(4) 0.6894(4)
C12_3 C -0.000000 0.1709(5) 0.6166(6)
H5_3 H -0.000000 0.178039 0.588096
C13_3 C -0.000000 0.2026(5) 0.6476(5)
H6_3 H -0.000000 0.231139 0.640390
C14_3 C -0.000000 0.2223(6) 0.7223(6)
N3_3 N -0.000000 0.2632(5) 0.7059(5)
O5_3 O -0.000000 0.0586(3) 0.6104(3)
C15_3 C -0.000000 0.1166(6) 0.6709(5)
H7_3 H -0.000000 0.088096 0.678039
C16_3 C -0.000000 0.1476(5) 0.7026(5)
H8_3 H -0.000000 0.140390 0.731139
N4_3 N -0.000000 0.2059(5) 0.7632(5)
O11_3 O 0.0384(2) 0.5384(2) 0.9616(2)
O18_3 O 0.0384(2) 0.4616(2) 0.9616(2)
O25_2 O -0.000000 0.5586(3) 0.8896(3)
O7_4 O 1.000000 0.3896(3) 0.0586(3)
C17_4 C 1.000000 0.3712(3) 0.1288(3)
C18_4 C 1.000000 0.4043(4) 0.0957(4)
C19_4 C 1.000000 0.3106(4) 0.1894(4)
C20_4 C 1.000000 0.3291(5) 0.1166(6)
H9_4 H 1.000000 0.321961 0.088096
C21_4 C 1.000000 0.2974(5) 0.1476(5)
H10_4 H 1.000000 0.268861 0.140390
C22_4 C 1.000000 0.2777(6) 0.2223(6)
N5_4 N 1.000000 0.2368(5) 0.2059(5)
O8_3 O 1.000000 0.4414(3) 0.1104(3)
C23_4 C 1.000000 0.3834(6) 0.1709(5)
H11_4 H 1.000000 0.411904 0.178039
C24_4 C 1.000000 0.3524(5) 0.2026(5)
H12_4 H 1.000000 0.359610 0.231139
N6_4 N 1.000000 0.2941(5) 0.2632(5)
O9_4 O 1.000000 0.1104(3) 0.4414(3)
C25_4 C 1.000000 0.1288(3) 0.3712(3)
C26_4 C 1.000000 0.0957(4) 0.4043(4)
C27_4 C 1.000000 0.1894(4) 0.3106(4)
C28_4 C 1.000000 0.1709(5) 0.3834(6)
H13_4 H 1.000000 0.178039 0.411904
C29_4 C 1.000000 0.2026(5) 0.3524(5)
H14_4 H 1.000000 0.231139 0.359610
C30_4 C 1.000000 0.2223(6) 0.2777(6)
N7_4 N 1.000000 0.2632(5) 0.2941(5)
O10_4 O 1.000000 0.0586(3) 0.3896(3)
C31_4 C 1.000000 0.1166(6) 0.3291(5)
H15_4 H 1.000000 0.088096 0.321961
C32_4 C 1.000000 0.1476(5) 0.2974(5)
H16_4 H 1.000000 0.140390 0.268861
N8_4 N 1.000000 0.2059(5) 0.2368(5)
O16_3 O 0.9616(2) 0.5384(2) 0.0384(2)
O19_3 O 0.9616(2) 0.4616(2) 0.0384(2)
O24_3 O 1.000000 0.5586(3) 0.1104(3)
O2_4 O 1.000000 0.3896(3) 0.9414(3)
C1_4 C 1.000000 0.3712(3) 0.8712(3)
C2_4 C 1.000000 0.4043(4) 0.9043(4)
C3_4 C 1.000000 0.3106(4) 0.8106(4)
C4_4 C 1.000000 0.3291(5) 0.8834(6)
H1_4 H 1.000000 0.321961 0.911904
C5_4 C 1.000000 0.2974(5) 0.8524(5)
H2_4 H 1.000000 0.268861 0.859610
C6_4 C 1.000000 0.2777(6) 0.7777(6)
N1_4 N 1.000000 0.2368(5) 0.7941(5)
O3_3 O 1.000000 0.4414(3) 0.8896(3)
C7_4 C 1.000000 0.3834(6) 0.8291(5)
H3_4 H 1.000000 0.411904 0.821961
C8_4 C 1.000000 0.3524(5) 0.7974(5)
H4_4 H 1.000000 0.359610 0.768861
N2_4 N 1.000000 0.2941(5) 0.7368(5)
O4_4 O 1.000000 0.1104(3) 0.5586(3)
C9_4 C 1.000000 0.1288(3) 0.6288(3)
C10_4 C 1.000000 0.0957(4) 0.5957(4)
C11_4 C 1.000000 0.1894(4) 0.6894(4)
C12_4 C 1.000000 0.1709(5) 0.6166(6)
H5_4 H 1.000000 0.178039 0.588096
C13_4 C 1.000000 0.2026(5) 0.6476(5)
H6_4 H 1.000000 0.231139 0.640390
C14_4 C 1.000000 0.2223(6) 0.7223(6)
N3_4 N 1.000000 0.2632(5) 0.7059(5)
O5_4 O 1.000000 0.0586(3) 0.6104(3)
C15_4 C 1.000000 0.1166(6) 0.6709(5)
H7_4 H 1.000000 0.088096 0.678039
C16_4 C 1.000000 0.1476(5) 0.7026(5)
H8_4 H 1.000000 0.140390 0.731139
N4_4 N 1.000000 0.2059(5) 0.7632(5)
O6_3 O 0.9616(2) 0.4616(2) 0.9616(2)
O17_3 O 0.9616(2) 0.5384(2) 0.9616(2)
O25_3 O 1.000000 0.5586(3) 0.8896(3)
O7_5 O 0.000000 0.6104(3) 0.0586(3)
C17_5 C 0.000000 0.6288(3) 0.1288(3)
C18_5 C 0.000000 0.5957(4) 0.0957(4)
C19_5 C 0.000000 0.6894(4) 0.1894(4)
C20_5 C 0.000000 0.6709(5) 0.1166(6)
H9_5 H 0.000000 0.678039 0.088096
C21_5 C 0.000000 0.7026(5) 0.1476(5)
H10_5 H 0.000000 0.731139 0.140390
C22_5 C 0.000000 0.7223(6) 0.2223(6)
N5_5 N 0.000000 0.7632(5) 0.2059(5)
C23_5 C 0.000000 0.6166(6) 0.1709(5)
H11_5 H 0.000000 0.588096 0.178039
C24_5 C 0.000000 0.6476(5) 0.2026(5)
H12_5 H 0.000000 0.640390 0.231139
N6_5 N 0.000000 0.7059(5) 0.2632(5)
O9_5 O -0.000000 0.8896(3) 0.4414(3)
C25_5 C 0.000000 0.8712(3) 0.3712(3)
C26_5 C -0.000000 0.9043(4) 0.4043(4)
C27_5 C 0.000000 0.8106(4) 0.3106(4)
C28_5 C 0.000000 0.8291(5) 0.3834(6)
H13_5 H -0.000000 0.821961 0.411904
C29_5 C 0.000000 0.7974(5) 0.3524(5)
H14_5 H 0.000000 0.768861 0.359610
C30_5 C 0.000000 0.7777(6) 0.2777(6)
N7_5 N 0.000000 0.7368(5) 0.2941(5)
O10_5 O 0.000000 0.9414(3) 0.3896(3)
C31_5 C 0.000000 0.8834(6) 0.3291(5)
H15_5 H 0.000000 0.911904 0.321961
C32_5 C 0.000000 0.8524(5) 0.2974(5)
H16_5 H 0.000000 0.859610 0.268861
N8_5 N 0.000000 0.7941(5) 0.2368(5)
O2_5 O 0.000000 0.6104(3) 0.9414(3)
C1_5 C 0.000000 0.6288(3) 0.8712(3)
C2_5 C 0.000000 0.5957(4) 0.9043(4)
C3_5 C 0.000000 0.6894(4) 0.8106(4)
C4_5 C 0.000000 0.6709(5) 0.8834(6)
H1_5 H 0.000000 0.678039 0.911904
C5_5 C 0.000000 0.7026(5) 0.8524(5)
H2_5 H 0.000000 0.731139 0.859610
C6_5 C 0.000000 0.7223(6) 0.7777(6)
N1_5 N 0.000000 0.7632(5) 0.7941(5)
C7_5 C 0.000000 0.6166(6) 0.8291(5)
H3_5 H 0.000000 0.588096 0.821961
C8_5 C 0.000000 0.6476(5) 0.7974(5)
H4_5 H 0.000000 0.640390 0.768861
N2_5 N 0.000000 0.7059(5) 0.7368(5)
O4_5 O 0.000000 0.8896(3) 0.5586(3)
C9_5 C 0.000000 0.8712(3) 0.6288(3)
C10_5 C 0.000000 0.9043(4) 0.5957(4)
C11_5 C 0.000000 0.8106(4) 0.6894(4)
C12_5 C 0.000000 0.8291(5) 0.6166(6)
H5_5 H 0.000000 0.821961 0.588096
C13_5 C 0.000000 0.7974(5) 0.6476(5)
H6_5 H 0.000000 0.768861 0.640390
C14_5 C 0.000000 0.7777(6) 0.7223(6)
N3_5 N 0.000000 0.7368(5) 0.7059(5)
O5_5 O 0.000000 0.9414(3) 0.6104(3)
C15_5 C 0.000000 0.8834(6) 0.6709(5)
H7_5 H 0.000000 0.911904 0.678039
C16_5 C 0.000000 0.8524(5) 0.7026(5)
H8_5 H 0.000000 0.859610 0.731139
N4_5 N 0.000000 0.7941(5) 0.7632(5)
O7_6 O 1.000000 0.6104(3) 0.0586(3)
C17_6 C 1.000000 0.6288(3) 0.1288(3)
C18_6 C 1.000000 0.5957(4) 0.0957(4)
C19_6 C 1.000000 0.6894(4) 0.1894(4)
C20_6 C 1.000000 0.6709(5) 0.1166(6)
H9_6 H 1.000000 0.678039 0.088096
C21_6 C 1.000000 0.7026(5) 0.1476(5)
H10_6 H 1.000000 0.731139 0.140390
C22_6 C 1.000000 0.7223(6) 0.2223(6)
N5_6 N 1.000000 0.7632(5) 0.2059(5)
C23_6 C 1.000000 0.6166(6) 0.1709(5)
H11_6 H 1.000000 0.588096 0.178039
C24_6 C 1.000000 0.6476(5) 0.2026(5)
H12_6 H 1.000000 0.640390 0.231139
N6_6 N 1.000000 0.7059(5) 0.2632(5)
O9_6 O 1.000000 0.8896(3) 0.4414(3)
C25_6 C 1.000000 0.8712(3) 0.3712(3)
C26_6 C 1.000000 0.9043(4) 0.4043(4)
C27_6 C 1.000000 0.8106(4) 0.3106(4)
C28_6 C 1.000000 0.8291(5) 0.3834(6)
H13_6 H 1.000000 0.821961 0.411904
C29_6 C 1.000000 0.7974(5) 0.3524(5)
H14_6 H 1.000000 0.768861 0.359610
C30_6 C 1.000000 0.7777(6) 0.2777(6)
N7_6 N 1.000000 0.7368(5) 0.2941(5)
O10_6 O 1.000000 0.9414(3) 0.3896(3)
C31_6 C 1.000000 0.8834(6) 0.3291(5)
H15_6 H 1.000000 0.911904 0.321961
C32_6 C 1.000000 0.8524(5) 0.2974(5)
H16_6 H 1.000000 0.859610 0.268861
N8_6 N 1.000000 0.7941(5) 0.2368(5)
O2_6 O 1.000000 0.6104(3) 0.9414(3)
C1_6 C 1.000000 0.6288(3) 0.8712(3)
C2_6 C 1.000000 0.5957(4) 0.9043(4)
C3_6 C 1.000000 0.6894(4) 0.8106(4)
C4_6 C 1.000000 0.6709(5) 0.8834(6)
H1_6 H 1.000000 0.678039 0.911904
C5_6 C 1.000000 0.7026(5) 0.8524(5)
H2_6 H 1.000000 0.731139 0.859610
C6_6 C 1.000000 0.7223(6) 0.7777(6)
N1_6 N 1.000000 0.7632(5) 0.7941(5)
C7_6 C 1.000000 0.6166(6) 0.8291(5)
H3_6 H 1.000000 0.588096 0.821961
C8_6 C 1.000000 0.6476(5) 0.7974(5)
H4_6 H 1.000000 0.640390 0.768861
N2_6 N 1.000000 0.7059(5) 0.7368(5)
O4_6 O 1.000000 0.8896(3) 0.5586(3)
C9_6 C 1.000000 0.8712(3) 0.6288(3)
C10_6 C 1.000000 0.9043(4) 0.5957(4)
C11_6 C 1.000000 0.8106(4) 0.6894(4)
C12_6 C 1.000000 0.8291(5) 0.6166(6)
H5_6 H 1.000000 0.821961 0.588096
C13_6 C 1.000000 0.7974(5) 0.6476(5)
H6_6 H 1.000000 0.768861 0.640390
C14_6 C 1.000000 0.7777(6) 0.7223(6)
N3_6 N 1.000000 0.7368(5) 0.7059(5)
O5_6 O 1.000000 0.9414(3) 0.6104(3)
C15_6 C 1.000000 0.8834(6) 0.6709(5)
H7_6 H 1.000000 0.911904 0.678039
C16_6 C 1.000000 0.8524(5) 0.7026(5)
H8_6 H 1.000000 0.859610 0.731139
N4_6 N 1.000000 0.7941(5) 0.7632(5)
O11_4 O 0.0384(2) 0.0384(2) 0.4616(2)
O20_4 O 0.0384(2) 0.0384(2) 0.5384(2)
O1_4 O 0.0384(2) 0.9616(2) 0.5384(2)
O18_4 O 0.0384(2) 0.9616(2) 0.4616(2)
O16_4 O 0.9616(2) 0.0384(2) 0.5384(2)
O17_4 O 0.9616(2) 0.0384(2) 0.4616(2)
O6_4 O 0.9616(2) 0.9616(2) 0.4616(2)
O19_4 O 0.9616(2) 0.9616(2) 0.5384(2)
loop_
_geom_bond_atom_site_label_1
_geom_bond_atom_site_label_2
_geom_bond_site_symmetry_1
_geom_bond_site_symmetry_2
Zr1 O1 1_555 1_555
O1 Zr3 1_555 1_555
O2 Zr1 1_555 1_555
C1 C2 1_555 1_555
C2 O2 1_555 1_555
C3 C5 1_555 1_555
C4 C1 1_555 1_555
H1 C4 1_555 1_555
C5 C4 1_555 1_555
H2 C5 1_555 1_555
C6 C3 1_555 1_555
N1 C6 1_555 1_555
O3 C2 1_555 1_555
C7 C1 1_555 1_555
H3 C7 1_555 1_555
C8 C3 1_555 1_555
H4 C8 1_555 1_555
N2 C6 1_555 1_555
O4 C10 1_555 1_555
C9 C10 1_555 1_555
C10 O5 1_555 1_555
C11 C13 1_555 1_555
C12 C9 1_555 1_555
H5 C12 1_555 1_555
C13 C12 1_555 1_555
H6 C13 1_555 1_555
C14 C11 1_555 1_555
N3 N2 1_555 1_555
O5 Zr10 1_555 1_555
C15 C9 1_555 1_555
H7 C15 1_555 1_555
C16 C11 1_555 1_555
H8 C16 1_555 1_555
N4 N1 1_555 1_555
O6 Zr1 1_555 1_555
O7 Zr1 1_555 1_555
C17 C18 1_555 1_555
C18 O7 1_555 1_555
C19 C21 1_555 1_555
C20 C17 1_555 1_555
H9 C20 1_555 1_555
C21 C20 1_555 1_555
H10 C21 1_555 1_555
C22 C19 1_555 1_555
N5 C22 1_555 1_555
O8 C18 1_555 1_555
C23 C17 1_555 1_555
H11 C23 1_555 1_555
C24 C19 1_555 1_555
H12 C24 1_555 1_555
N6 C22 1_555 1_555
O9 C26 1_555 1_555
C25 C26 1_555 1_555
C26 O10 1_555 1_555
C27 C29 1_555 1_555
C28 C25 1_555 1_555
H13 C28 1_555 1_555
C29 C28 1_555 1_555
H14 C29 1_555 1_555
C30 C27 1_555 1_555
N7 N6 1_555 1_555
O10 Zr9 1_555 1_555
C31 C25 1_555 1_555
H15 C31 1_555 1_555
C32 C27 1_555 1_555
H16 C32 1_555 1_555
N8 N5 1_555 1_555
Zr2 O3 1_555 1_555
O11 Zr2 1_555 1_555
O12 Zr2 1_555 1_555
C33 C34 1_555 1_555
C34 O12 1_555 1_555
C35 C37 1_555 1_555
C36 C33 1_555 1_555
H17 C36 1_555 1_555
C37 C36 1_555 1_555
H18 C37 1_555 1_555
C38 C35 1_555 1_555
N9 C38 1_555 1_555
O13 C34 1_555 1_555
C39 C33 1_555 1_555
H19 C39 1_555 1_555
C40 C35 1_555 1_555
H20 C40 1_555 1_555
N10 C38 1_555 1_555
O14 C42 1_555 1_555
C41 C42 1_555 1_555
C42 O15 1_555 1_555
C43 C45 1_555 1_555
C44 C41 1_555 1_555
H21 C44 1_555 1_555
C45 C44 1_555 1_555
H22 C45 1_555 1_555
C46 C43 1_555 1_555
N11 N10 1_555 1_555
O15 Zr12 1_555 1_555
C47 C41 1_555 1_555
H23 C47 1_555 1_555
C48 C43 1_555 1_555
H24 C48 1_555 1_555
N12 N9 1_555 1_555
Zr3 O8 1_555 1_555
O16 Zr3 1_555 1_555
Zr4 O11 1_555 1_555
Zr5 O6 1_555 1_555
Zr6 O1 1_555 1_555
Zr8 O4 1_555 1_555
Zr8_2 O9 1_555 1_555
Zr11 O14 1_555 1_555
O17 Zr2 1_555 1_555
O18 Zr1 1_555 1_555
O19 Zr1 1_555 1_555
O20 Zr3 1_555 1_555
O21 Zr3 1_555 1_555
O22 Zr2 1_555 1_555
O23 Zr3 1_555 1_555
O24 Zr3 1_555 1_555
O25 Zr2 1_555 1_555
O26 Zr1 1_555 1_555
O27 Zr1 1_555 1_555
C7 C8 1_555 1_555
C14 N3 1_555 1_555
C14 N4 1_555 1_555
C15 C16 1_555 1_555
O6 Zr2 1_555 1_555
C23 C24 1_555 1_555
C30 N7 1_555 1_555
C30 N8 1_555 1_555
C31 C32 1_555 1_555
Zr2 O18 1_555 1_555
O11 Zr6 1_555 1_555
O13 Zr5 1_555 1_555
C39 C40 1_555 1_555
C46 N11 1_555 1_555
C46 N12 1_555 1_555
C47 C48 1_555 1_555
Zr3 O19 1_555 1_555
O16 Zr4 1_555 1_555
O16 Zr5 1_555 1_555
Zr4 O17 1_555 1_555
Zr4 O20 1_555 1_555
Zr5 O17 1_555 1_555
Zr5 O19 1_555 1_555
Zr6 O18 1_555 1_555
Zr6 O20 1_555 1_555
O2_2 Zr4 1_555 1_555
C1_2 C2_2 1_555 1_555
C2_2 O2_2 1_555 1_555
C3_2 C5_2 1_555 1_555
C4_2 C1_2 1_555 1_555
H1_2 C4_2 1_555 1_555
C5_2 C4_2 1_555 1_555
H2_2 C5_2 1_555 1_555
C6_2 C3_2 1_555 1_555
N1_2 C6_2 1_555 1_555
O25 C2_2 1_555 1_555
C7_2 C1_2 1_555 1_555
H3_2 C7_2 1_555 1_555
C8_2 C3_2 1_555 1_555
H4_2 C8_2 1_555 1_555
N2_2 C6_2 1_555 1_555
O4_2 C10_2 1_555 1_555
C9_2 C10_2 1_555 1_555
C10_2 O5_2 1_555 1_555
C11_2 C13_2 1_555 1_555
C12_2 C9_2 1_555 1_555
H5_2 C12_2 1_555 1_555
C13_2 C12_2 1_555 1_555
H6_2 C13_2 1_555 1_555
C14_2 C11_2 1_555 1_555
N3_2 N2_2 1_555 1_555
O5_2 Zr10_2 1_555 1_555
C15_2 C9_2 1_555 1_555
H7_2 C15_2 1_555 1_555
C16_2 C11_2 1_555 1_555
H8_2 C16_2 1_555 1_555
N4_2 N1_2 1_555 1_555
O7_2 Zr4 1_555 1_555
C17_2 C18_2 1_555 1_555
C18_2 O7_2 1_555 1_555
C19_2 C21_2 1_555 1_555
C20_2 C17_2 1_555 1_555
H9_2 C20_2 1_555 1_555
C21_2 C20_2 1_555 1_555
H10_2 C21_2 1_555 1_555
C22_2 C19_2 1_555 1_555
N5_2 C22_2 1_555 1_555
O24 C18_2 1_555 1_555
C23_2 C17_2 1_555 1_555
H11_2 C23_2 1_555 1_555
C24_2 C19_2 1_555 1_555
H12_2 C24_2 1_555 1_555
N6_2 C22_2 1_555 1_555
O9_2 C26_2 1_555 1_555
C25_2 C26_2 1_555 1_555
C26_2 O10_2 1_555 1_555
C27_2 C29_2 1_555 1_555
C28_2 C25_2 1_555 1_555
H13_2 C28_2 1_555 1_555
C29_2 C28_2 1_555 1_555
H14_2 C29_2 1_555 1_555
C30_2 C27_2 1_555 1_555
N7_2 N6_2 1_555 1_555
O10_2 Zr9_2 1_555 1_555
C31_2 C25_2 1_555 1_555
H15_2 C31_2 1_555 1_555
C32_2 C27_2 1_555 1_555
H16_2 C32_2 1_555 1_555
N8_2 N5_2 1_555 1_555
C33_2 C34_2 1_555 1_555
C34_2 O22 1_555 1_555
C35_2 C37_2 1_555 1_555
C36_2 C33_2 1_555 1_555
H17_2 C36_2 1_555 1_555
C37_2 C36_2 1_555 1_555
H18_2 C37_2 1_555 1_555
C38_2 C35_2 1_555 1_555
N9_2 C38_2 1_555 1_555
O13_2 C34_2 1_555 1_555
C39_2 C33_2 1_555 1_555
H19_2 C39_2 1_555 1_555
C40_2 C35_2 1_555 1_555
H20_2 C40_2 1_555 1_555
N10_2 C38_2 1_555 1_555
O14_2 C42_2 1_555 1_555
C41_2 C42_2 1_555 1_555
C42_2 O15_2 1_555 1_555
C43_2 C45_2 1_555 1_555
C44_2 C41_2 1_555 1_555
H21_2 C44_2 1_555 1_555
C45_2 C44_2 1_555 1_555
H22_2 C45_2 1_555 1_555
C46_2 C43_2 1_555 1_555
N11_2 N10_2 1_555 1_555
O15_2 Zr12_3 1_555 1_555
C47_2 C41_2 1_555 1_555
H23_2 C47_2 1_555 1_555
C48_2 C43_2 1_555 1_555
H24_2 C48_2 1_555 1_555
N12_2 N9_2 1_555 1_555
Zr8_3 O4_2 1_555 1_555
Zr8_4 O9_2 1_555 1_555
Zr11_2 O14_2 1_555 1_555
O26_2 Zr4 1_555 1_555
O27_2 Zr4 1_555 1_555
C7_2 C8_2 1_555 1_555
C14_2 N3_2 1_555 1_555
C14_2 N4_2 1_555 1_555
C15_2 C16_2 1_555 1_555
C23_2 C24_2 1_555 1_555
C30_2 N7_2 1_555 1_555
C30_2 N8_2 1_555 1_555
C31_2 C32_2 1_555 1_555
O13_2 Zr6 1_555 1_555
C39_2 C40_2 1_555 1_555
C46_2 N11_2 1_555 1_555
C46_2 N12_2 1_555 1_555
C47_2 C48_2 1_555 1_555
C33_3 C34_3 1_555 1_555
C34_3 O23 1_555 1_555
C35_3 C37_3 1_555 1_555
C36_3 C33_3 1_555 1_555
H17_3 C36_3 1_555 1_555
C37_3 C36_3 1_555 1_555
H18_3 C37_3 1_555 1_555
C38_3 C35_3 1_555 1_555
N9_3 C38_3 1_555 1_555
O13_3 C34_3 1_555 1_555
C39_3 C33_3 1_555 1_555
H19_3 C39_3 1_555 1_555
C40_3 C35_3 1_555 1_555
H20_3 C40_3 1_555 1_555
N10_3 C38_3 1_555 1_555
O14_3 C42_3 1_555 1_555
C41_3 C42_3 1_555 1_555
C42_3 O15_3 1_555 1_555
C43_3 C45_3 1_555 1_555
C44_3 C41_3 1_555 1_555
H21_3 C44_3 1_555 1_555
C45_3 C44_3 1_555 1_555
H22_3 C45_3 1_555 1_555
C46_3 C43_3 1_555 1_555
N11_3 N10_3 1_555 1_555
O15_3 Zr12_4 1_555 1_555
C47_3 C41_3 1_555 1_555
H23_3 C47_3 1_555 1_555
C48_3 C43_3 1_555 1_555
H24_3 C48_3 1_555 1_555
N12_3 N9_3 1_555 1_555
Zr11_4 O14_3 1_555 1_555
O13_3 Zr6 1_555 1_555
C39_3 C40_3 1_555 1_555
C46_3 N11_3 1_555 1_555
C46_3 N12_3 1_555 1_555
C47_3 C48_3 1_555 1_555
C33_4 C34_4 1_555 1_555
C34_4 O21 1_555 1_555
C35_4 C37_4 1_555 1_555
C36_4 C33_4 1_555 1_555
H17_4 C36_4 1_555 1_555
C37_4 C36_4 1_555 1_555
H18_4 C37_4 1_555 1_555
C38_4 C35_4 1_555 1_555
N9_4 C38_4 1_555 1_555
O13_4 C34_4 1_555 1_555
C39_4 C33_4 1_555 1_555
H19_4 C39_4 1_555 1_555
C40_4 C35_4 1_555 1_555
H20_4 C40_4 1_555 1_555
N10_4 C38_4 1_555 1_555
O14_4 C42_4 1_555 1_555
C41_4 C42_4 1_555 1_555
C42_4 O15_4 1_555 1_555
C43_4 C45_4 1_555 1_555
C44_4 C41_4 1_555 1_555
H21_4 C44_4 1_555 1_555
C45_4 C44_4 1_555 1_555
H22_4 C45_4 1_555 1_555
C46_4 C43_4 1_555 1_555
N11_4 N10_4 1_555 1_555
O15_4 Zr12_2 1_555 1_555
C47_4 C41_4 1_555 1_555
H23_4 C47_4 1_555 1_555
C48_4 C43_4 1_555 1_555
H24_4 C48_4 1_555 1_555
N12_4 N9_4 1_555 1_555
Zr11_3 O14_4 1_555 1_555
O13_4 Zr5 1_555 1_555
C39_4 C40_4 1_555 1_555
C46_4 N11_4 1_555 1_555
C46_4 N12_4 1_555 1_555
C47_4 C48_4 1_555 1_555
O12_2 Zr5 1_555 1_555
C33_5 C34_5 1_555 1_555
C34_5 O12_2 1_555 1_555
C35_5 C37_5 1_555 1_555
C36_5 C33_5 1_555 1_555
H17_5 C36_5 1_555 1_555
C37_5 C36_5 1_555 1_555
H18_5 C37_5 1_555 1_555
C38_5 C35_5 1_555 1_555
N9_5 C38_5 1_555 1_555
O26 C34_5 1_555 1_555
C39_5 C33_5 1_555 1_555
H19_5 C39_5 1_555 1_555
C40_5 C35_5 1_555 1_555
H20_5 C40_5 1_555 1_555
N10_5 C38_5 1_555 1_555
O14_5 C42_5 1_555 1_555
C41_5 C42_5 1_555 1_555
C42_5 O15_5 1_555 1_555
C43_5 C45_5 1_555 1_555
C44_5 C41_5 1_555 1_555
H21_5 C44_5 1_555 1_555
C45_5 C44_5 1_555 1_555
H22_5 C45_5 1_555 1_555
C46_5 C43_5 1_555 1_555
N11_5 N10_5 1_555 1_555
O15_5 Zr12_5 1_555 1_555
C47_5 C41_5 1_555 1_555
H23_5 C47_5 1_555 1_555
C48_5 C43_5 1_555 1_555
H24_5 C48_5 1_555 1_555
N12_5 N9_5 1_555 1_555
Zr11_5 O14_5 1_555 1_555
O21_2 Zr6 1_555 1_555
O22_2 Zr5 1_555 1_555
O23_2 Zr6 1_555 1_555
C39_5 C40_5 1_555 1_555
C46_5 N11_5 1_555 1_555
C46_5 N12_5 1_555 1_555
C47_5 C48_5 1_555 1_555
C33_6 C34_6 1_555 1_555
C34_6 O22_2 1_555 1_555
C35_6 C37_6 1_555 1_555
C36_6 C33_6 1_555 1_555
H17_6 C36_6 1_555 1_555
C37_6 C36_6 1_555 1_555
H18_6 C37_6 1_555 1_555
C38_6 C35_6 1_555 1_555
N9_6 C38_6 1_555 1_555
O27_2 C34_6 1_555 1_555
C39_6 C33_6 1_555 1_555
H19_6 C39_6 1_555 1_555
C40_6 C35_6 1_555 1_555
H20_6 C40_6 1_555 1_555
N10_6 C38_6 1_555 1_555
O14_6 C42_6 1_555 1_555
C41_6 C42_6 1_555 1_555
C42_6 O15_6 1_555 1_555
C43_6 C45_6 1_555 1_555
C44_6 C41_6 1_555 1_555
H21_6 C44_6 1_555 1_555
C45_6 C44_6 1_555 1_555
H22_6 C45_6 1_555 1_555
C46_6 C43_6 1_555 1_555
N11_6 N10_6 1_555 1_555
O15_6 Zr12_7 1_555 1_555
C47_6 C41_6 1_555 1_555
H23_6 C47_6 1_555 1_555
C48_6 C43_6 1_555 1_555
H24_6 C48_6 1_555 1_555
N12_6 N9_6 1_555 1_555
Zr11_6 O14_6 1_555 1_555
C39_6 C40_6 1_555 1_555
C46_6 N11_6 1_555 1_555
C46_6 N12_6 1_555 1_555
C47_6 C48_6 1_555 1_555
C33_7 C34_7 1_555 1_555
C34_7 O23_2 1_555 1_555
C35_7 C37_7 1_555 1_555
C36_7 C33_7 1_555 1_555
H17_7 C36_7 1_555 1_555
C37_7 C36_7 1_555 1_555
H18_7 C37_7 1_555 1_555
C38_7 C35_7 1_555 1_555
N9_7 C38_7 1_555 1_555
O26_2 C34_7 1_555 1_555
C39_7 C33_7 1_555 1_555
H19_7 C39_7 1_555 1_555
C40_7 C35_7 1_555 1_555
H20_7 C40_7 1_555 1_555
N10_7 C38_7 1_555 1_555
O14_7 C42_7 1_555 1_555
C41_7 C42_7 1_555 1_555
C42_7 O15_7 1_555 1_555
C43_7 C45_7 1_555 1_555
C44_7 C41_7 1_555 1_555
H21_7 C44_7 1_555 1_555
C45_7 C44_7 1_555 1_555
H22_7 C45_7 1_555 1_555
C46_7 C43_7 1_555 1_555
N11_7 N10_7 1_555 1_555
O15_7 Zr12_8 1_555 1_555
C47_7 C41_7 1_555 1_555
H23_7 C47_7 1_555 1_555
C48_7 C43_7 1_555 1_555
H24_7 C48_7 1_555 1_555
N12_7 N9_7 1_555 1_555
Zr11_8 O14_7 1_555 1_555
C39_7 C40_7 1_555 1_555
C46_7 N11_7 1_555 1_555
C46_7 N12_7 1_555 1_555
C47_7 C48_7 1_555 1_555
C33_8 C34_8 1_555 1_555
C34_8 O21_2 1_555 1_555
C35_8 C37_8 1_555 1_555
C36_8 C33_8 1_555 1_555
H17_8 C36_8 1_555 1_555
C37_8 C36_8 1_555 1_555
H18_8 C37_8 1_555 1_555
C38_8 C35_8 1_555 1_555
N9_8 C38_8 1_555 1_555
O27 C34_8 1_555 1_555
C39_8 C33_8 1_555 1_555
H19_8 C39_8 1_555 1_555
C40_8 C35_8 1_555 1_555
H20_8 C40_8 1_555 1_555
N10_8 C38_8 1_555 1_555
O14_8 C42_8 1_555 1_555
C41_8 C42_8 1_555 1_555
C42_8 O15_8 1_555 1_555
C43_8 C45_8 1_555 1_555
C44_8 C41_8 1_555 1_555
H21_8 C44_8 1_555 1_555
C45_8 C44_8 1_555 1_555
H22_8 C45_8 1_555 1_555
C46_8 C43_8 1_555 1_555
N11_8 N10_8 1_555 1_555
O15_8 Zr12_6 1_555 1_555
C47_8 C41_8 1_555 1_555
H23_8 C47_8 1_555 1_555
C48_8 C43_8 1_555 1_555
H24_8 C48_8 1_555 1_555
N12_8 N9_8 1_555 1_555
Zr11_7 O14_8 1_555 1_555
C39_8 C40_8 1_555 1_555
C46_8 N11_8 1_555 1_555
C46_8 N12_8 1_555 1_555
C47_8 C48_8 1_555 1_555
O16_2 Zr10 1_555 1_555
O20_2 Zr10 1_555 1_555
O21_3 Zr10 1_555 1_555
O23_3 Zr10 1_555 1_555
O16_2 Zr8 1_555 1_555
O16_2 Zr5_2 1_555 1_555
Zr8 O20_2 1_555 1_555
Zr6_2 O20_2 1_555 1_555
O11_2 Zr9 1_555 1_555
O12_3 Zr9 1_555 1_555
C33_9 C34_9 1_555 1_555
C34_9 O12_3 1_555 1_555
C35_9 C37_9 1_555 1_555
C36_9 C33_9 1_555 1_555
H17_9 C36_9 1_555 1_555
C37_9 C36_9 1_555 1_555
H18_9 C37_9 1_555 1_555
C38_9 C35_9 1_555 1_555
N9_9 C38_9 1_555 1_555
O13_5 C34_9 1_555 1_555
C39_9 C33_9 1_555 1_555
H19_9 C39_9 1_555 1_555
C40_9 C35_9 1_555 1_555
H20_9 C40_9 1_555 1_555
N10_9 C38_9 1_555 1_555
O14_9 C42_9 1_555 1_555
C41_9 C42_9 1_555 1_555
C42_9 O15_9 1_555 1_555
C43_9 C45_9 1_555 1_555
C44_9 C41_9 1_555 1_555
H21_9 C44_9 1_555 1_555
C45_9 C44_9 1_555 1_555
H22_9 C45_9 1_555 1_555
C46_9 C43_9 1_555 1_555
N11_9 N10_9 1_555 1_555
O15_9 Zr11_5 1_555 1_555
C47_9 C41_9 1_555 1_555
H23_9 C47_9 1_555 1_555
C48_9 C43_9 1_555 1_555
H24_9 C48_9 1_555 1_555
N12_9 N9_9 1_555 1_555
Zr8_2 O11_2 1_555 1_555
Zr11_9 O14_9 1_555 1_555
O17_2 Zr9 1_555 1_555
O22_3 Zr9 1_555 1_555
O11_2 Zr6_3 1_555 1_555
O13_5 Zr5_3 1_555 1_555
C39_9 C40_9 1_555 1_555
C46_9 N11_9 1_555 1_555
C46_9 N12_9 1_555 1_555
C47_9 C48_9 1_555 1_555
Zr8_2 O17_2 1_555 1_555
Zr5_3 O17_2 1_555 1_555
Zr8_3 O1_2 1_555 1_555
O1_2 Zr10_2 1_555 1_555
Zr6_4 O1_2 1_555 1_555
O19_2 Zr8_3 1_555 1_555
O21_4 Zr10_2 1_555 1_555
O23_4 Zr10_2 1_555 1_555
O26_3 Zr8_3 1_555 1_555
O27_3 Zr8_3 1_555 1_555
Zr10_2 O19_2 1_555 1_555
Zr5_4 O19_2 1_555 1_555
O6_2 Zr8_4 1_555 1_555
O12_4 Zr9_2 1_555 1_555
C33_10 C34_10 1_555 1_555
C34_10 O12_4 1_555 1_555
C35_10 C37_10 1_555 1_555
C36_10 C33_10 1_555 1_555
H17_10 C36_10 1_555 1_555
C37_10 C36_10 1_555 1_555
H18_10 C37_10 1_555 1_555
C38_10 C35_10 1_555 1_555
N9_10 C38_10 1_555 1_555
O13_6 C34_10 1_555 1_555
C39_10 C33_10 1_555 1_555
H19_10 C39_10 1_555 1_555
C40_10 C35_10 1_555 1_555
H20_10 C40_10 1_555 1_555
N10_10 C38_10 1_555 1_555
O14_10 C42_10 1_555 1_555
C41_10 C42_10 1_555 1_555
C42_10 O15_10 1_555 1_555
C43_10 C45_10 1_555 1_555
C44_10 C41_10 1_555 1_555
H21_10 C44_10 1_555 1_555
C45_10 C44_10 1_555 1_555
H22_10 C45_10 1_555 1_555
C46_10 C43_10 1_555 1_555
N11_10 N10_10 1_555 1_555
O15_10 Zr11_6 1_555 1_555
C47_10 C41_10 1_555 1_555
H23_10 C47_10 1_555 1_555
C48_10 C43_10 1_555 1_555
H24_10 C48_10 1_555 1_555
N12_10 N9_10 1_555 1_555
Zr5_5 O6_2 1_555 1_555
Zr11_10 O14_10 1_555 1_555
O18_2 Zr8_4 1_555 1_555
O22_4 Zr9_2 1_555 1_555
O26_4 Zr8_4 1_555 1_555
O27_4 Zr8_4 1_555 1_555
O6_2 Zr9_2 1_555 1_555
Zr9_2 O18_2 1_555 1_555
O13_6 Zr5_5 1_555 1_555
C39_10 C40_10 1_555 1_555
C46_10 N11_10 1_555 1_555
C46_10 N12_10 1_555 1_555
C47_10 C48_10 1_555 1_555
Zr6_5 O18_2 1_555 1_555
O26_5 Zr8 1_555 1_555
O27_5 Zr8 1_555 1_555
C33_11 C34_11 1_555 1_555
C34_11 O22_3 1_555 1_555
C35_11 C37_11 1_555 1_555
C36_11 C33_11 1_555 1_555
H17_11 C36_11 1_555 1_555
C37_11 C36_11 1_555 1_555
H18_11 C37_11 1_555 1_555
C38_11 C35_11 1_555 1_555
N9_11 C38_11 1_555 1_555
O13_7 C34_11 1_555 1_555
C39_11 C33_11 1_555 1_555
H19_11 C39_11 1_555 1_555
C40_11 C35_11 1_555 1_555
H20_11 C40_11 1_555 1_555
N10_11 C38_11 1_555 1_555
O14_11 C42_11 1_555 1_555
C41_11 C42_11 1_555 1_555
C42_11 O15_11 1_555 1_555
C43_11 C45_11 1_555 1_555
C44_11 C41_11 1_555 1_555
H21_11 C44_11 1_555 1_555
C45_11 C44_11 1_555 1_555
H22_11 C45_11 1_555 1_555
C46_11 C43_11 1_555 1_555
N11_11 N10_11 1_555 1_555
O15_11 Zr11_7 1_555 1_555
C47_11 C41_11 1_555 1_555
H23_11 C47_11 1_555 1_555
C48_11 C43_11 1_555 1_555
H24_11 C48_11 1_555 1_555
N12_11 N9_11 1_555 1_555
Zr11_11 O14_11 1_555 1_555
O26_6 Zr8_2 1_555 1_555
O27_6 Zr8_2 1_555 1_555
O13_7 Zr6_3 1_555 1_555
C39_11 C40_11 1_555 1_555
C46_11 N11_11 1_555 1_555
C46_11 N12_11 1_555 1_555
C47_11 C48_11 1_555 1_555
C33_12 C34_12 1_555 1_555
C34_12 O22_4 1_555 1_555
C35_12 C37_12 1_555 1_555
C36_12 C33_12 1_555 1_555
H17_12 C36_12 1_555 1_555
C37_12 C36_12 1_555 1_555
H18_12 C37_12 1_555 1_555
C38_12 C35_12 1_555 1_555
N9_12 C38_12 1_555 1_555
O13_8 C34_12 1_555 1_555
C39_12 C33_12 1_555 1_555
H19_12 C39_12 1_555 1_555
C40_12 C35_12 1_555 1_555
H20_12 C40_12 1_555 1_555
N10_12 C38_12 1_555 1_555
O14_12 C42_12 1_555 1_555
C41_12 C42_12 1_555 1_555
C42_12 O15_12 1_555 1_555
C43_12 C45_12 1_555 1_555
C44_12 C41_12 1_555 1_555
H21_12 C44_12 1_555 1_555
C45_12 C44_12 1_555 1_555
H22_12 C45_12 1_555 1_555
C46_12 C43_12 1_555 1_555
N11_12 N10_12 1_555 1_555
O15_12 Zr11_8 1_555 1_555
C47_12 C41_12 1_555 1_555
H23_12 C47_12 1_555 1_555
C48_12 C43_12 1_555 1_555
H24_12 C48_12 1_555 1_555
N12_12 N9_12 1_555 1_555
Zr11_12 O14_12 1_555 1_555
O13_8 Zr6_5 1_555 1_555
C39_12 C40_12 1_555 1_555
C46_12 N11_12 1_555 1_555
C46_12 N12_12 1_555 1_555
C47_12 C48_12 1_555 1_555
C33_13 C34_13 1_555 1_555
C34_13 O23_3 1_555 1_555
C35_13 C37_13 1_555 1_555
C36_13 C33_13 1_555 1_555
H17_13 C36_13 1_555 1_555
C37_13 C36_13 1_555 1_555
H18_13 C37_13 1_555 1_555
C38_13 C35_13 1_555 1_555
N9_13 C38_13 1_555 1_555
O13_9 C34_13 1_555 1_555
C39_13 C33_13 1_555 1_555
H19_13 C39_13 1_555 1_555
C40_13 C35_13 1_555 1_555
H20_13 C40_13 1_555 1_555
N10_13 C38_13 1_555 1_555
O14_13 C42_13 1_555 1_555
C41_13 C42_13 1_555 1_555
C42_13 O15_13 1_555 1_555
C43_13 C45_13 1_555 1_555
C44_13 C41_13 1_555 1_555
H21_13 C44_13 1_555 1_555
C45_13 C44_13 1_555 1_555
H22_13 C45_13 1_555 1_555
C46_13 C43_13 1_555 1_555
N11_13 N10_13 1_555 1_555
O15_13 Zr11_7 1_555 1_555
C47_13 C41_13 1_555 1_555
H23_13 C47_13 1_555 1_555
C48_13 C43_13 1_555 1_555
H24_13 C48_13 1_555 1_555
N12_13 N9_13 1_555 1_555
Zr11_15 O14_13 1_555 1_555
O13_9 Zr6_2 1_555 1_555
C39_13 C40_13 1_555 1_555
C46_13 N11_13 1_555 1_555
C46_13 N12_13 1_555 1_555
C47_13 C48_13 1_555 1_555
C33_14 C34_14 1_555 1_555
C34_14 O23_4 1_555 1_555
C35_14 C37_14 1_555 1_555
C36_14 C33_14 1_555 1_555
H17_14 C36_14 1_555 1_555
C37_14 C36_14 1_555 1_555
H18_14 C37_14 1_555 1_555
C38_14 C35_14 1_555 1_555
N9_14 C38_14 1_555 1_555
O13_10 C34_14 1_555 1_555
C39_14 C33_14 1_555 1_555
H19_14 C39_14 1_555 1_555
C40_14 C35_14 1_555 1_555
H20_14 C40_14 1_555 1_555
N10_14 C38_14 1_555 1_555
O14_14 C42_14 1_555 1_555
C41_14 C42_14 1_555 1_555
C42_14 O15_14 1_555 1_555
C43_14 C45_14 1_555 1_555
C44_14 C41_14 1_555 1_555
H21_14 C44_14 1_555 1_555
C45_14 C44_14 1_555 1_555
H22_14 C45_14 1_555 1_555
C46_14 C43_14 1_555 1_555
N11_14 N10_14 1_555 1_555
O15_14 Zr11_8 1_555 1_555
C47_14 C41_14 1_555 1_555
H23_14 C47_14 1_555 1_555
C48_14 C43_14 1_555 1_555
H24_14 C48_14 1_555 1_555
N12_14 N9_14 1_555 1_555
Zr11_16 O14_14 1_555 1_555
O13_10 Zr6_4 1_555 1_555
C39_14 C40_14 1_555 1_555
C46_14 N11_14 1_555 1_555
C46_14 N12_14 1_555 1_555
C47_14 C48_14 1_555 1_555
C33_15 C34_15 1_555 1_555
C34_15 O21_3 1_555 1_555
C35_15 C37_15 1_555 1_555
C36_15 C33_15 1_555 1_555
H17_15 C36_15 1_555 1_555
C37_15 C36_15 1_555 1_555
H18_15 C37_15 1_555 1_555
C38_15 C35_15 1_555 1_555
N9_15 C38_15 1_555 1_555
O13_11 C34_15 1_555 1_555
C39_15 C33_15 1_555 1_555
H19_15 C39_15 1_555 1_555
C40_15 C35_15 1_555 1_555
H20_15 C40_15 1_555 1_555
N10_15 C38_15 1_555 1_555
O14_15 C42_15 1_555 1_555
C41_15 C42_15 1_555 1_555
C42_15 O15_15 1_555 1_555
C43_15 C45_15 1_555 1_555
C44_15 C41_15 1_555 1_555
H21_15 C44_15 1_555 1_555
C45_15 C44_15 1_555 1_555
H22_15 C45_15 1_555 1_555
C46_15 C43_15 1_555 1_555
N11_15 N10_15 1_555 1_555
O15_15 Zr11_5 1_555 1_555
C47_15 C41_15 1_555 1_555
H23_15 C47_15 1_555 1_555
C48_15 C43_15 1_555 1_555
H24_15 C48_15 1_555 1_555
N12_15 N9_15 1_555 1_555
Zr11_13 O14_15 1_555 1_555
O13_11 Zr5_2 1_555 1_555
C39_15 C40_15 1_555 1_555
C46_15 N11_15 1_555 1_555
C46_15 N12_15 1_555 1_555
C47_15 C48_15 1_555 1_555
C33_16 C34_16 1_555 1_555
C34_16 O21_4 1_555 1_555
C35_16 C37_16 1_555 1_555
C36_16 C33_16 1_555 1_555
H17_16 C36_16 1_555 1_555
C37_16 C36_16 1_555 1_555
H18_16 C37_16 1_555 1_555
C38_16 C35_16 1_555 1_555
N9_16 C38_16 1_555 1_555
O13_12 C34_16 1_555 1_555
C39_16 C33_16 1_555 1_555
H19_16 C39_16 1_555 1_555
C40_16 C35_16 1_555 1_555
H20_16 C40_16 1_555 1_555
N10_16 C38_16 1_555 1_555
O14_16 C42_16 1_555 1_555
C41_16 C42_16 1_555 1_555
C42_16 O15_16 1_555 1_555
C43_16 C45_16 1_555 1_555
C44_16 C41_16 1_555 1_555
H21_16 C44_16 1_555 1_555
C45_16 C44_16 1_555 1_555
H22_16 C45_16 1_555 1_555
C46_16 C43_16 1_555 1_555
N11_16 N10_16 1_555 1_555
O15_16 Zr11_6 1_555 1_555
C47_16 C41_16 1_555 1_555
H23_16 C47_16 1_555 1_555
C48_16 C43_16 1_555 1_555
H24_16 C48_16 1_555 1_555
N12_16 N9_16 1_555 1_555
Zr11_14 O14_16 1_555 1_555
O13_12 Zr5_4 1_555 1_555
C39_16 C40_16 1_555 1_555
C46_16 N11_16 1_555 1_555
C46_16 N12_16 1_555 1_555
C47_16 C48_16 1_555 1_555
O22_5 Zr5_2 1_555 1_555
O23_5 Zr6_2 1_555 1_555
O22_6 Zr5_3 1_555 1_555
O23_6 Zr6_3 1_555 1_555
O12_5 Zr5_4 1_555 1_555
C33_17 C34_17 1_555 1_555
C34_17 O12_5 1_555 1_555
C35_17 C37_17 1_555 1_555
C36_17 C33_17 1_555 1_555
H17_17 C36_17 1_555 1_555
C37_17 C36_17 1_555 1_555
H18_17 C37_17 1_555 1_555
C38_17 C35_17 1_555 1_555
N9_17 C38_17 1_555 1_555
O26_3 C34_17 1_555 1_555
C39_17 C33_17 1_555 1_555
H19_17 C39_17 1_555 1_555
C40_17 C35_17 1_555 1_555
H20_17 C40_17 1_555 1_555
N10_17 C38_17 1_555 1_555
O14_17 C42_17 1_555 1_555
C41_17 C42_17 1_555 1_555
C42_17 O15_17 1_555 1_555
C43_17 C45_17 1_555 1_555
C44_17 C41_17 1_555 1_555
H21_17 C44_17 1_555 1_555
C45_17 C44_17 1_555 1_555
H22_17 C45_17 1_555 1_555
C46_17 C43_17 1_555 1_555
N11_17 N10_17 1_555 1_555
O15_17 Zr12_9 1_555 1_555
C47_17 C41_17 1_555 1_555
H23_17 C47_17 1_555 1_555
C48_17 C43_17 1_555 1_555
H24_17 C48_17 1_555 1_555
N12_17 N9_17 1_555 1_555
Zr12 O14_17 1_555 1_555
O21_5 Zr6_4 1_555 1_555
C39_17 C40_17 1_555 1_555
C46_17 N11_17 1_555 1_555
C46_17 N12_17 1_555 1_555
C47_17 C48_17 1_555 1_555
O12_6 Zr5_5 1_555 1_555
C33_18 C34_18 1_555 1_555
C34_18 O12_6 1_555 1_555
C35_18 C37_18 1_555 1_555
C36_18 C33_18 1_555 1_555
H17_18 C36_18 1_555 1_555
C37_18 C36_18 1_555 1_555
H18_18 C37_18 1_555 1_555
C38_18 C35_18 1_555 1_555
N9_18 C38_18 1_555 1_555
O26_4 C34_18 1_555 1_555
C39_18 C33_18 1_555 1_555
H19_18 C39_18 1_555 1_555
C40_18 C35_18 1_555 1_555
H20_18 C40_18 1_555 1_555
N10_18 C38_18 1_555 1_555
O14_18 C42_18 1_555 1_555
C41_18 C42_18 1_555 1_555
C42_18 O15_18 1_555 1_555
C43_18 C45_18 1_555 1_555
C44_18 C41_18 1_555 1_555
H21_18 C44_18 1_555 1_555
C45_18 C44_18 1_555 1_555
H22_18 C45_18 1_555 1_555
C46_18 C43_18 1_555 1_555
N11_18 N10_18 1_555 1_555
O15_18 Zr12_10 1_555 1_555
C47_18 C41_18 1_555 1_555
H23_18 C47_18 1_555 1_555
C48_18 C43_18 1_555 1_555
H24_18 C48_18 1_555 1_555
N12_18 N9_18 1_555 1_555
Zr12_2 O14_18 1_555 1_555
O21_6 Zr6_5 1_555 1_555
C39_18 C40_18 1_555 1_555
C46_18 N11_18 1_555 1_555
C46_18 N12_18 1_555 1_555
C47_18 C48_18 1_555 1_555
C33_19 C34_19 1_555 1_555
C34_19 O22_5 1_555 1_555
C35_19 C37_19 1_555 1_555
C36_19 C33_19 1_555 1_555
H17_19 C36_19 1_555 1_555
C37_19 C36_19 1_555 1_555
H18_19 C37_19 1_555 1_555
C38_19 C35_19 1_555 1_555
N9_19 C38_19 1_555 1_555
O27_5 C34_19 1_555 1_555
C39_19 C33_19 1_555 1_555
H19_19 C39_19 1_555 1_555
C40_19 C35_19 1_555 1_555
H20_19 C40_19 1_555 1_555
N10_19 C38_19 1_555 1_555
O14_19 C42_19 1_555 1_555
C41_19 C42_19 1_555 1_555
C42_19 O15_19 1_555 1_555
C43_19 C45_19 1_555 1_555
C44_19 C41_19 1_555 1_555
H21_19 C44_19 1_555 1_555
C45_19 C44_19 1_555 1_555
H22_19 C45_19 1_555 1_555
C46_19 C43_19 1_555 1_555
N11_19 N10_19 1_555 1_555
O15_19 Zr12_13 1_555 1_555
C47_19 C41_19 1_555 1_555
H23_19 C47_19 1_555 1_555
C48_19 C43_19 1_555 1_555
H24_19 C48_19 1_555 1_555
N12_19 N9_19 1_555 1_555
Zr12 O14_19 1_555 1_555
C39_19 C40_19 1_555 1_555
C46_19 N11_19 1_555 1_555
C46_19 N12_19 1_555 1_555
C47_19 C48_19 1_555 1_555
C33_20 C34_20 1_555 1_555
C34_20 O22_6 1_555 1_555
C35_20 C37_20 1_555 1_555
C36_20 C33_20 1_555 1_555
H17_20 C36_20 1_555 1_555
C37_20 C36_20 1_555 1_555
H18_20 C37_20 1_555 1_555
C38_20 C35_20 1_555 1_555
N9_20 C38_20 1_555 1_555
O27_6 C34_20 1_555 1_555
C39_20 C33_20 1_555 1_555
H19_20 C39_20 1_555 1_555
C40_20 C35_20 1_555 1_555
H20_20 C40_20 1_555 1_555
N10_20 C38_20 1_555 1_555
O14_20 C42_20 1_555 1_555
C41_20 C42_20 1_555 1_555
C42_20 O15_20 1_555 1_555
C43_20 C45_20 1_555 1_555
C44_20 C41_20 1_555 1_555
H21_20 C44_20 1_555 1_555
C45_20 C44_20 1_555 1_555
H22_20 C45_20 1_555 1_555
C46_20 C43_20 1_555 1_555
N11_20 N10_20 1_555 1_555
O15_20 Zr12_14 1_555 1_555
C47_20 C41_20 1_555 1_555
H23_20 C47_20 1_555 1_555
C48_20 C43_20 1_555 1_555
H24_20 C48_20 1_555 1_555
N12_20 N9_20 1_555 1_555
Zr12_2 O14_20 1_555 1_555
C39_20 C40_20 1_555 1_555
C46_20 N11_20 1_555 1_555
C46_20 N12_20 1_555 1_555
C47_20 C48_20 1_555 1_555
C33_21 C34_21 1_555 1_555
C34_21 O23_5 1_555 1_555
C35_21 C37_21 1_555 1_555
C36_21 C33_21 1_555 1_555
H17_21 C36_21 1_555 1_555
C37_21 C36_21 1_555 1_555
H18_21 C37_21 1_555 1_555
C38_21 C35_21 1_555 1_555
N9_21 C38_21 1_555 1_555
O26_5 C34_21 1_555 1_555
C39_21 C33_21 1_555 1_555
H19_21 C39_21 1_555 1_555
C40_21 C35_21 1_555 1_555
H20_21 C40_21 1_555 1_555
N10_21 C38_21 1_555 1_555
O14_21 C42_21 1_555 1_555
C41_21 C42_21 1_555 1_555
C42_21 O15_21 1_555 1_555
C43_21 C45_21 1_555 1_555
C44_21 C41_21 1_555 1_555
H21_21 C44_21 1_555 1_555
C45_21 C44_21 1_555 1_555
H22_21 C45_21 1_555 1_555
C46_21 C43_21 1_555 1_555
N11_21 N10_21 1_555 1_555
O15_21 Zr12_15 1_555 1_555
C47_21 C41_21 1_555 1_555
H23_21 C47_21 1_555 1_555
C48_21 C43_21 1_555 1_555
H24_21 C48_21 1_555 1_555
N12_21 N9_21 1_555 1_555
Zr12_3 O14_21 1_555 1_555
C39_21 C40_21 1_555 1_555
C46_21 N11_21 1_555 1_555
C46_21 N12_21 1_555 1_555
C47_21 C48_21 1_555 1_555
C33_22 C34_22 1_555 1_555
C34_22 O23_6 1_555 1_555
C35_22 C37_22 1_555 1_555
C36_22 C33_22 1_555 1_555
H17_22 C36_22 1_555 1_555
C37_22 C36_22 1_555 1_555
H18_22 C37_22 1_555 1_555
C38_22 C35_22 1_555 1_555
N9_22 C38_22 1_555 1_555
O26_6 C34_22 1_555 1_555
C39_22 C33_22 1_555 1_555
H19_22 C39_22 1_555 1_555
C40_22 C35_22 1_555 1_555
H20_22 C40_22 1_555 1_555
N10_22 C38_22 1_555 1_555
O14_22 C42_22 1_555 1_555
C41_22 C42_22 1_555 1_555
C42_22 O15_22 1_555 1_555
C43_22 C45_22 1_555 1_555
C44_22 C41_22 1_555 1_555
H21_22 C44_22 1_555 1_555
C45_22 C44_22 1_555 1_555
H22_22 C45_22 1_555 1_555
C46_22 C43_22 1_555 1_555
N11_22 N10_22 1_555 1_555
O15_22 Zr12_16 1_555 1_555
C47_22 C41_22 1_555 1_555
H23_22 C47_22 1_555 1_555
C48_22 C43_22 1_555 1_555
H24_22 C48_22 1_555 1_555
N12_22 N9_22 1_555 1_555
Zr12_4 O14_22 1_555 1_555
C39_22 C40_22 1_555 1_555
C46_22 N11_22 1_555 1_555
C46_22 N12_22 1_555 1_555
C47_22 C48_22 1_555 1_555
C33_23 C34_23 1_555 1_555
C34_23 O21_5 1_555 1_555
C35_23 C37_23 1_555 1_555
C36_23 C33_23 1_555 1_555
H17_23 C36_23 1_555 1_555
C37_23 C36_23 1_555 1_555
H18_23 C37_23 1_555 1_555
C38_23 C35_23 1_555 1_555
N9_23 C38_23 1_555 1_555
O27_3 C34_23 1_555 1_555
C39_23 C33_23 1_555 1_555
H19_23 C39_23 1_555 1_555
C40_23 C35_23 1_555 1_555
H20_23 C40_23 1_555 1_555
N10_23 C38_23 1_555 1_555
O14_23 C42_23 1_555 1_555
C41_23 C42_23 1_555 1_555
C42_23 O15_23 1_555 1_555
C43_23 C45_23 1_555 1_555
C44_23 C41_23 1_555 1_555
H21_23 C44_23 1_555 1_555
C45_23 C44_23 1_555 1_555
H22_23 C45_23 1_555 1_555
C46_23 C43_23 1_555 1_555
N11_23 N10_23 1_555 1_555
O15_23 Zr12_11 1_555 1_555
C47_23 C41_23 1_555 1_555
H23_23 C47_23 1_555 1_555
C48_23 C43_23 1_555 1_555
H24_23 C48_23 1_555 1_555
N12_23 N9_23 1_555 1_555
Zr12_3 O14_23 1_555 1_555
C39_23 C40_23 1_555 1_555
C46_23 N11_23 1_555 1_555
C46_23 N12_23 1_555 1_555
C47_23 C48_23 1_555 1_555
C33_24 C34_24 1_555 1_555
C34_24 O21_6 1_555 1_555
C35_24 C37_24 1_555 1_555
C36_24 C33_24 1_555 1_555
H17_24 C36_24 1_555 1_555
C37_24 C36_24 1_555 1_555
H18_24 C37_24 1_555 1_555
C38_24 C35_24 1_555 1_555
N9_24 C38_24 1_555 1_555
O27_4 C34_24 1_555 1_555
C39_24 C33_24 1_555 1_555
H19_24 C39_24 1_555 1_555
C40_24 C35_24 1_555 1_555
H20_24 C40_24 1_555 1_555
N10_24 C38_24 1_555 1_555
O14_24 C42_24 1_555 1_555
C41_24 C42_24 1_555 1_555
C42_24 O15_24 1_555 1_555
C43_24 C45_24 1_555 1_555
C44_24 C41_24 1_555 1_555
H21_24 C44_24 1_555 1_555
C45_24 C44_24 1_555 1_555
H22_24 C45_24 1_555 1_555
C46_24 C43_24 1_555 1_555
N11_24 N10_24 1_555 1_555
O15_24 Zr12_12 1_555 1_555
C47_24 C41_24 1_555 1_555
H23_24 C47_24 1_555 1_555
C48_24 C43_24 1_555 1_555
H24_24 C48_24 1_555 1_555
N12_24 N9_24 1_555 1_555
Zr12_4 O14_24 1_555 1_555
C39_24 C40_24 1_555 1_555
C46_24 N11_24 1_555 1_555
C46_24 N12_24 1_555 1_555
C47_24 C48_24 1_555 1_555
Zr12_13 O1_3 1_555 1_555
O1_3 Zr11 1_555 1_555
O7_3 Zr12_13 1_555 1_555
C17_3 C18_3 1_555 1_555
C18_3 O7_3 1_555 1_555
C19_3 C21_3 1_555 1_555
C20_3 C17_3 1_555 1_555
H9_3 C20_3 1_555 1_555
C21_3 C20_3 1_555 1_555
H10_3 C21_3 1_555 1_555
C22_3 C19_3 1_555 1_555
N5_3 C22_3 1_555 1_555
O8_2 C18_3 1_555 1_555
C23_3 C17_3 1_555 1_555
H11_3 C23_3 1_555 1_555
C24_3 C19_3 1_555 1_555
H12_3 C24_3 1_555 1_555
N6_3 C22_3 1_555 1_555
O9_3 C26_3 1_555 1_555
C25_3 C26_3 1_555 1_555
C26_3 O10_3 1_555 1_555
C27_3 C29_3 1_555 1_555
C28_3 C25_3 1_555 1_555
H13_3 C28_3 1_555 1_555
C29_3 C28_3 1_555 1_555
H14_3 C29_3 1_555 1_555
C30_3 C27_3 1_555 1_555
N7_3 N6_3 1_555 1_555
O10_3 Zr11_13 1_555 1_555
C31_3 C25_3 1_555 1_555
H15_3 C31_3 1_555 1_555
C32_3 C27_3 1_555 1_555
H16_3 C32_3 1_555 1_555
N8_3 N5_3 1_555 1_555
Zr11 O8_2 1_555 1_555
Zr12 O1_3 1_555 1_555
Zr12_5 O9_3 1_555 1_555
O20_3 Zr11 1_555 1_555
O24_2 Zr11 1_555 1_555
C23_3 C24_3 1_555 1_555
C30_3 N7_3 1_555 1_555
C30_3 N8_3 1_555 1_555
C31_3 C32_3 1_555 1_555
Zr12_9 O20_3 1_555 1_555
Zr12 O20_3 1_555 1_555
O2_3 Zr12_14 1_555 1_555
C1_3 C2_3 1_555 1_555
C2_3 O2_3 1_555 1_555
C3_3 C5_3 1_555 1_555
C4_3 C1_3 1_555 1_555
H1_3 C4_3 1_555 1_555
C5_3 C4_3 1_555 1_555
H2_3 C5_3 1_555 1_555
C6_3 C3_3 1_555 1_555
N1_3 C6_3 1_555 1_555
O3_2 C2_3 1_555 1_555
C7_3 C1_3 1_555 1_555
H3_3 C7_3 1_555 1_555
C8_3 C3_3 1_555 1_555
H4_3 C8_3 1_555 1_555
N2_3 C6_3 1_555 1_555
O4_3 C10_3 1_555 1_555
C9_3 C10_3 1_555 1_555
C10_3 O5_3 1_555 1_555
C11_3 C13_3 1_555 1_555
C12_3 C9_3 1_555 1_555
H5_3 C12_3 1_555 1_555
C13_3 C12_3 1_555 1_555
H6_3 C13_3 1_555 1_555
C14_3 C11_3 1_555 1_555
N3_3 N2_3 1_555 1_555
O5_3 Zr11_9 1_555 1_555
C15_3 C9_3 1_555 1_555
H7_3 C15_3 1_555 1_555
C16_3 C11_3 1_555 1_555
H8_3 C16_3 1_555 1_555
N4_3 N1_3 1_555 1_555
Zr11_3 O3_2 1_555 1_555
O11_3 Zr11_3 1_555 1_555
Zr12_10 O11_3 1_555 1_555
Zr12_5 O4_3 1_555 1_555
O18_3 Zr12_14 1_555 1_555
O25_2 Zr11_3 1_555 1_555
C7_3 C8_3 1_555 1_555
C14_3 N3_3 1_555 1_555
C14_3 N4_3 1_555 1_555
C15_3 C16_3 1_555 1_555
Zr11_3 O18_3 1_555 1_555
O11_3 Zr12_2 1_555 1_555
Zr12_2 O18_3 1_555 1_555
O7_4 Zr12_15 1_555 1_555
C17_4 C18_4 1_555 1_555
C18_4 O7_4 1_555 1_555
C19_4 C21_4 1_555 1_555
C20_4 C17_4 1_555 1_555
H9_4 C20_4 1_555 1_555
C21_4 C20_4 1_555 1_555
H10_4 C21_4 1_555 1_555
C22_4 C19_4 1_555 1_555
N5_4 C22_4 1_555 1_555
O8_3 C18_4 1_555 1_555
C23_4 C17_4 1_555 1_555
H11_4 C23_4 1_555 1_555
C24_4 C19_4 1_555 1_555
H12_4 C24_4 1_555 1_555
N6_4 C22_4 1_555 1_555
O9_4 C26_4 1_555 1_555
C25_4 C26_4 1_555 1_555
C26_4 O10_4 1_555 1_555
C27_4 C29_4 1_555 1_555
C28_4 C25_4 1_555 1_555
H13_4 C28_4 1_555 1_555
C29_4 C28_4 1_555 1_555
H14_4 C29_4 1_555 1_555
C30_4 C27_4 1_555 1_555
N7_4 N6_4 1_555 1_555
O10_4 Zr11_15 1_555 1_555
C31_4 C25_4 1_555 1_555
H15_4 C31_4 1_555 1_555
C32_4 C27_4 1_555 1_555
H16_4 C32_4 1_555 1_555
N8_4 N5_4 1_555 1_555
Zr11_2 O8_3 1_555 1_555
O16_3 Zr11_2 1_555 1_555
Zr12_6 O9_4 1_555 1_555
O19_3 Zr12_15 1_555 1_555
O24_3 Zr11_2 1_555 1_555
C23_4 C24_4 1_555 1_555
C30_4 N7_4 1_555 1_555
C30_4 N8_4 1_555 1_555
C31_4 C32_4 1_555 1_555
Zr11_2 O19_3 1_555 1_555
O16_3 Zr12_11 1_555 1_555
O16_3 Zr12_3 1_555 1_555
Zr12_3 O19_3 1_555 1_555
O2_4 Zr12_16 1_555 1_555
C1_4 C2_4 1_555 1_555
C2_4 O2_4 1_555 1_555
C3_4 C5_4 1_555 1_555
C4_4 C1_4 1_555 1_555
H1_4 C4_4 1_555 1_555
C5_4 C4_4 1_555 1_555
H2_4 C5_4 1_555 1_555
C6_4 C3_4 1_555 1_555
N1_4 C6_4 1_555 1_555
O3_3 C2_4 1_555 1_555
C7_4 C1_4 1_555 1_555
H3_4 C7_4 1_555 1_555
C8_4 C3_4 1_555 1_555
H4_4 C8_4 1_555 1_555
N2_4 C6_4 1_555 1_555
O4_4 C10_4 1_555 1_555
C9_4 C10_4 1_555 1_555
C10_4 O5_4 1_555 1_555
C11_4 C13_4 1_555 1_555
C12_4 C9_4 1_555 1_555
H5_4 C12_4 1_555 1_555
C13_4 C12_4 1_555 1_555
H6_4 C13_4 1_555 1_555
C14_4 C11_4 1_555 1_555
N3_4 N2_4 1_555 1_555
O5_4 Zr11_11 1_555 1_555
C15_4 C9_4 1_555 1_555
H7_4 C15_4 1_555 1_555
C16_4 C11_4 1_555 1_555
H8_4 C16_4 1_555 1_555
N4_4 N1_4 1_555 1_555
O6_3 Zr12_16 1_555 1_555
Zr11_4 O3_3 1_555 1_555
Zr12_4 O6_3 1_555 1_555
Zr12_6 O4_4 1_555 1_555
O17_3 Zr11_4 1_555 1_555
O25_3 Zr11_4 1_555 1_555
C7_4 C8_4 1_555 1_555
C14_4 N3_4 1_555 1_555
C14_4 N4_4 1_555 1_555
C15_4 C16_4 1_555 1_555
O6_3 Zr11_4 1_555 1_555
Zr12_12 O17_3 1_555 1_555
Zr12_4 O17_3 1_555 1_555
O7_5 Zr12_9 1_555 1_555
C17_5 C18_5 1_555 1_555
C18_5 O7_5 1_555 1_555
C19_5 C21_5 1_555 1_555
C20_5 C17_5 1_555 1_555
H9_5 C20_5 1_555 1_555
C21_5 C20_5 1_555 1_555
H10_5 C21_5 1_555 1_555
C22_5 C19_5 1_555 1_555
N5_5 C22_5 1_555 1_555
O24_2 C18_5 1_555 1_555
C23_5 C17_5 1_555 1_555
H11_5 C23_5 1_555 1_555
C24_5 C19_5 1_555 1_555
H12_5 C24_5 1_555 1_555
N6_5 C22_5 1_555 1_555
O9_5 C26_5 1_555 1_555
C25_5 C26_5 1_555 1_555
C26_5 O10_5 1_555 1_555
C27_5 C29_5 1_555 1_555
C28_5 C25_5 1_555 1_555
H13_5 C28_5 1_555 1_555
C29_5 C28_5 1_555 1_555
H14_5 C29_5 1_555 1_555
C30_5 C27_5 1_555 1_555
N7_5 N6_5 1_555 1_555
O10_5 Zr11_14 1_555 1_555
C31_5 C25_5 1_555 1_555
H15_5 C31_5 1_555 1_555
C32_5 C27_5 1_555 1_555
H16_5 C32_5 1_555 1_555
N8_5 N5_5 1_555 1_555
Zr12_7 O9_5 1_555 1_555
C23_5 C24_5 1_555 1_555
C30_5 N7_5 1_555 1_555
C30_5 N8_5 1_555 1_555
C31_5 C32_5 1_555 1_555
O2_5 Zr12_10 1_555 1_555
C1_5 C2_5 1_555 1_555
C2_5 O2_5 1_555 1_555
C3_5 C5_5 1_555 1_555
C4_5 C1_5 1_555 1_555
H1_5 C4_5 1_555 1_555
C5_5 C4_5 1_555 1_555
H2_5 C5_5 1_555 1_555
C6_5 C3_5 1_555 1_555
N1_5 C6_5 1_555 1_555
O25_2 C2_5 1_555 1_555
C7_5 C1_5 1_555 1_555
H3_5 C7_5 1_555 1_555
C8_5 C3_5 1_555 1_555
H4_5 C8_5 1_555 1_555
N2_5 C6_5 1_555 1_555
O4_5 C10_5 1_555 1_555
C9_5 C10_5 1_555 1_555
C10_5 O5_5 1_555 1_555
C11_5 C13_5 1_555 1_555
C12_5 C9_5 1_555 1_555
H5_5 C12_5 1_555 1_555
C13_5 C12_5 1_555 1_555
H6_5 C13_5 1_555 1_555
C14_5 C11_5 1_555 1_555
N3_5 N2_5 1_555 1_555
O5_5 Zr11_10 1_555 1_555
C15_5 C9_5 1_555 1_555
H7_5 C15_5 1_555 1_555
C16_5 C11_5 1_555 1_555
H8_5 C16_5 1_555 1_555
N4_5 N1_5 1_555 1_555
Zr12_7 O4_5 1_555 1_555
C7_5 C8_5 1_555 1_555
C14_5 N3_5 1_555 1_555
C14_5 N4_5 1_555 1_555
C15_5 C16_5 1_555 1_555
O7_6 Zr12_11 1_555 1_555
C17_6 C18_6 1_555 1_555
C18_6 O7_6 1_555 1_555
C19_6 C21_6 1_555 1_555
C20_6 C17_6 1_555 1_555
H9_6 C20_6 1_555 1_555
C21_6 C20_6 1_555 1_555
H10_6 C21_6 1_555 1_555
C22_6 C19_6 1_555 1_555
N5_6 C22_6 1_555 1_555
O24_3 C18_6 1_555 1_555
C23_6 C17_6 1_555 1_555
H11_6 C23_6 1_555 1_555
C24_6 C19_6 1_555 1_555
H12_6 C24_6 1_555 1_555
N6_6 C22_6 1_555 1_555
O9_6 C26_6 1_555 1_555
C25_6 C26_6 1_555 1_555
C26_6 O10_6 1_555 1_555
C27_6 C29_6 1_555 1_555
C28_6 C25_6 1_555 1_555
H13_6 C28_6 1_555 1_555
C29_6 C28_6 1_555 1_555
H14_6 C29_6 1_555 1_555
C30_6 C27_6 1_555 1_555
N7_6 N6_6 1_555 1_555
O10_6 Zr11_16 1_555 1_555
C31_6 C25_6 1_555 1_555
H15_6 C31_6 1_555 1_555
C32_6 C27_6 1_555 1_555
H16_6 C32_6 1_555 1_555
N8_6 N5_6 1_555 1_555
Zr12_8 O9_6 1_555 1_555
C23_6 C24_6 1_555 1_555
C30_6 N7_6 1_555 1_555
C30_6 N8_6 1_555 1_555
C31_6 C32_6 1_555 1_555
O2_6 Zr12_12 1_555 1_555
C1_6 C2_6 1_555 1_555
C2_6 O2_6 1_555 1_555
C3_6 C5_6 1_555 1_555
C4_6 C1_6 1_555 1_555
H1_6 C4_6 1_555 1_555
C5_6 C4_6 1_555 1_555
H2_6 C5_6 1_555 1_555
C6_6 C3_6 1_555 1_555
N1_6 C6_6 1_555 1_555
O25_3 C2_6 1_555 1_555
C7_6 C1_6 1_555 1_555
H3_6 C7_6 1_555 1_555
C8_6 C3_6 1_555 1_555
H4_6 C8_6 1_555 1_555
N2_6 C6_6 1_555 1_555
O4_6 C10_6 1_555 1_555
C9_6 C10_6 1_555 1_555
C10_6 O5_6 1_555 1_555
C11_6 C13_6 1_555 1_555
C12_6 C9_6 1_555 1_555
H5_6 C12_6 1_555 1_555
C13_6 C12_6 1_555 1_555
H6_6 C13_6 1_555 1_555
C14_6 C11_6 1_555 1_555
N3_6 N2_6 1_555 1_555
O5_6 Zr11_12 1_555 1_555
C15_6 C9_6 1_555 1_555
H7_6 C15_6 1_555 1_555
C16_6 C11_6 1_555 1_555
H8_6 C16_6 1_555 1_555
N4_6 N1_6 1_555 1_555
Zr12_8 O4_6 1_555 1_555
C7_6 C8_6 1_555 1_555
C14_6 N3_6 1_555 1_555
C14_6 N4_6 1_555 1_555
C15_6 C16_6 1_555 1_555
O11_4 Zr11_13 1_555 1_555
Zr12_5 O11_4 1_555 1_555
O20_4 Zr11_9 1_555 1_555
O11_4 Zr11_5 1_555 1_555
Zr12_5 O20_4 1_555 1_555
Zr11_5 O20_4 1_555 1_555
Zr12_7 O1_4 1_555 1_555
O1_4 Zr11_10 1_555 1_555
Zr11_6 O1_4 1_555 1_555
O18_4 Zr12_7 1_555 1_555
Zr11_14 O18_4 1_555 1_555
Zr11_6 O18_4 1_555 1_555
O16_4 Zr11_11 1_555 1_555
O17_4 Zr11_15 1_555 1_555
O16_4 Zr12_6 1_555 1_555
O16_4 Zr11_7 1_555 1_555
Zr12_6 O17_4 1_555 1_555
Zr11_7 O17_4 1_555 1_555
O6_4 Zr12_8 1_555 1_555
Zr11_8 O6_4 1_555 1_555
O19_4 Zr12_8 1_555 1_555
O6_4 Zr11_16 1_555 1_555
Zr11_12 O19_4 1_555 1_555
Zr11_8 O19_4 1_555 1_555

#END
