
###############################################################################
#
# This file contains modified crystal structure data generated from the
# MOF subset of the Cambridge Structural Database (CSD) v543 
# hosted by the Cambridge Crystallographic Data Centre (CCDC).
#
# This work is licensed under the Creative Commons
# Attribution-NonCommercial-ShareAlike 4.0 International License.
# To view a copy of this license, visit
# http://creativecommons.org/licenses/by-nc-sa/4.0/
# or send a letter to
# Creative Commons, PO Box 1866, Mountain View, CA 94042, USA.
#
# CIF created using the CSD Python API on 29 September 2022
# The structure has been converted into the P1 space group
# The structure has a 3D framework
# The original CSD entry FAHPOV is in the orthorhombic crystal system
# The framework has been calculated to contain at least 10.0% void space
# The void calculation uses a probe of radius 1.32A, grid spacing 0.4
# H atom positions have been added when not included in the experimental data
# Generated hydrogen atom positions removed from atoms on special positions
#
###############################################################################

data_FAHPOV
_chemical_formula_moiety         '(C216 H132 O70 Zn20)n'
_symmetry_cell_setting           triclinic
_symmetry_space_group_name_H-M   'P 1'
_symmetry_Int_Tables_number      1
_space_group_name_Hall           'P 1'
loop_
_symmetry_equiv_pos_site_id
_symmetry_equiv_pos_as_xyz
1 x,y,z
_cell_length_a                   19.8070(3)
_cell_length_b                   27.7140(5)
_cell_length_c                   27.8470(5)
_cell_angle_alpha                90
_cell_angle_beta                 90
_cell_angle_gamma                90
_cell_volume                     15286.1
loop_
_atom_site_label
_atom_site_type_symbol
_atom_site_fract_x
_atom_site_fract_y
_atom_site_fract_z
C18 C 0.0024(3) 0.0000 0.3888(3)
C19 C 0.0343(4) -0.0000 0.3452(4)
H9 H 0.0084 0.0000 0.3165
C20 C 0.1045(4) -0.0000 0.3427(3)
H10 H 0.1264 -0.0000 0.3124
C21 C 0.1428(4) -0.0000 0.3851(3)
C22 C 0.1074(4) -0.0000 0.4272(3)
H11 H 0.1316 -0.0000 0.4566
C23 C 0.0376(4) -0.0000 0.4285(3)
H12 H 0.0150 0.0000 0.4586
C24 C 0.2151(4) -0.0000 0.3844(3)
C25 C 0.2747(4) 0.0000 0.3816(3)
C26 C 0.3470(4) -0.0000 0.3792(3)
C29 C 0.4870(3) -0.0000 0.3752(2)
C30 C 0.5646(3) 0.0000 0.3764(2)
Zn7 Zn 0.68856(3) 0.05763(2) 0.381992(19)
O19 O 0.59241(15) 0.04037(13) 0.37688(12)
C47 C 0.3817(3) 0.0436(3) 0.3782(2)
H23 H 0.3580 0.0734 0.3782
C48 C 0.4513(3) 0.0427(3) 0.3772(2)
H24 H 0.4754 0.0723 0.3779
O8 O 0.59241(15) 0.95963(13) 0.37688(12)
C18_2 C 0.0024(3) 1.0000 0.3888(3)
C19_2 C 0.0343(4) 1.0000 0.3452(4)
H9_2 H 0.0084 1.0000 0.3165
C20_2 C 0.1045(4) 1.0000 0.3427(3)
H10_2 H 0.1264 1.0000 0.3124
C21_2 C 0.1428(4) 1.0000 0.3851(3)
C22_2 C 0.1074(4) 1.0000 0.4272(3)
H11_2 H 0.1316 1.0000 0.4566
C23_2 C 0.0376(4) 1.0000 0.4285(3)
H12_2 H 0.0150 1.0000 0.4586
C24_2 C 0.2151(4) 1.0000 0.3844(3)
C25_2 C 0.2747(4) 1.0000 0.3816(3)
C26_2 C 0.3470(4) 1.0000 0.3792(3)
C27 C 0.3817(3) 0.9564(3) 0.3782(2)
H13 H 0.3580 0.9266 0.3782
C28 C 0.4513(3) 0.9573(3) 0.3772(2)
H14 H 0.4754 0.9277 0.3779
C29_2 C 0.4870(3) 1.0000 0.3752(2)
C30_2 C 0.5646(3) 1.0000 0.3764(2)
Zn6 Zn 0.68856(3) 0.94237(2) 0.381992(19)
Zn2 Zn 0.80041(3) 0.0000 0.43794(2)
Zn3 Zn 0.80124(4) 0.0000 0.32423(3)
O1 O 0.74407(19) 0.0000 0.38170(13)
O2 O 0.68989(18) 0.08457(15) 0.44813(15)
O3 O 0.7824(2) 0.05424(14) 0.48100(12)
O4 O 0.7948(2) 0.4001(2) 0.8295(2)
O5 O 0.7034(3) 0.4382(3) 0.7959(3)
O6 O 0.8959(2) -0.0000 0.34774(17)
O7 O 0.8978(2) 0.0000 0.42907(16)
O9 O 0.7002(5) -0.0000 0.2803(5)
O10 O 0.8545(8) 0.0000 0.2520(4)
C1 C 0.7340(3) 0.0827(2) 0.4794(2)
C2 C 0.7291(3) 0.1177(2) 0.5202(2)
C3 C 0.6770(4) 0.1492(3) 0.5242(3)
H1 H 0.6419 0.1485 0.5010
C4 C 0.6737(5) 0.1830(3) 0.5618(3)
H2 H 0.6363 0.2044 0.5635
C5 C 0.7237(5) 0.1855(3) 0.5964(3)
C6 C 0.7713(5) 0.1525(3) 0.5928(3)
H3 H 0.8053 0.1524 0.6169
C7 C 0.7765(4) 0.1172(3) 0.5561(3)
H4 H 0.8117 0.0939 0.5563
C8 C 0.7236(4) 0.2204(4) 0.6310(3)
C9 C 0.7246(5) 0.2509(4) 0.6612(4)
C10 C 0.7300(5) 0.2883(4) 0.6980(4)
C11 C 0.7785(5) 0.2898(4) 0.7305(4)
H5 H 0.8101 0.2641 0.7317
C12 C 0.7854(4) 0.3278(4) 0.7632(3)
H6 H 0.8227 0.3288 0.7846
C13 C 0.7398(4) 0.3620(4) 0.7640(4)
C14 C 0.6922(5) 0.3644(4) 0.7298(5)
H7 H 0.6627 0.3914 0.7278
C15 C 0.6872(5) 0.3266(5) 0.6974(5)
H8 H 0.6524 0.3275 0.6739
C16 C 0.7458(4) 0.4065(5) 0.7958(4)
C17 C 0.9245(3) -0.0000 0.3885(3)
Zn5 Zn 0.81144(3) 0.44237(2) 0.881992(19)
Zn9 Zn 0.69876(4) 0.5000 0.82423(3)
O14 O 0.7052(2) 0.0999(2) 0.3295(2)
O17 O 0.7966(3) 0.0618(3) 0.2959(3)
H25 H 0.673616 0.0292553 0.288443
H26 H 0.710593 4.13699e-18 0.245416
H27 H 0.841332 0.0292553 0.233666
H28 H 0.904121 4.13699e-18 0.257089
Zn2_2 Zn 0.80041(3) 1.0000 0.43794(2)
Zn3_2 Zn 0.80124(4) 1.0000 0.32423(3)
O1_2 O 0.74407(19) 1.0000 0.38170(13)
O6_2 O 0.8959(2) 1.0000 0.34774(17)
O7_2 O 0.8978(2) 1.0000 0.42907(16)
O9_2 O 0.7002(5) 1.0000 0.2803(5)
O10_2 O 0.8545(8) 1.0000 0.2520(4)
C17_2 C 0.9245(3) 1.0000 0.3885(3)
Zn8 Zn 0.81144(3) 0.55763(2) 0.881992(19)
O11 O 0.68989(18) 0.91543(15) 0.44813(15)
O12 O 0.7824(2) 0.94576(14) 0.48100(12)
O13 O 0.7948(2) 0.5999(2) 0.8295(2)
O15 O 0.7052(2) 0.9001(2) 0.3295(2)
O16 O 0.7034(3) 0.5618(3) 0.7959(3)
O18 O 0.7966(3) 0.9382(3) 0.2959(3)
C31 C 0.7340(3) 0.9173(2) 0.4794(2)
C32 C 0.7291(3) 0.8823(2) 0.5202(2)
C33 C 0.6770(4) 0.8508(3) 0.5242(3)
H15 H 0.6419 0.8515 0.5010
C34 C 0.6737(5) 0.8170(3) 0.5618(3)
H16 H 0.6363 0.7956 0.5635
C35 C 0.7237(5) 0.8145(3) 0.5964(3)
C36 C 0.7713(5) 0.8475(3) 0.5928(3)
H17 H 0.8053 0.8476 0.6169
C37 C 0.7765(4) 0.8828(3) 0.5561(3)
H18 H 0.8117 0.9061 0.5563
C38 C 0.7236(4) 0.7796(4) 0.6310(3)
C39 C 0.7246(5) 0.7491(4) 0.6612(4)
C40 C 0.7300(5) 0.7117(4) 0.6980(4)
C41 C 0.7785(5) 0.7102(4) 0.7305(4)
H19 H 0.8101 0.7359 0.7317
C42 C 0.7854(4) 0.6722(4) 0.7632(3)
H20 H 0.8227 0.6712 0.7846
C43 C 0.7398(4) 0.6380(4) 0.7640(4)
C44 C 0.6922(5) 0.6356(4) 0.7298(5)
H21 H 0.6627 0.6086 0.7278
C45 C 0.6872(5) 0.6734(5) 0.6974(5)
H22 H 0.6524 0.6725 0.6739
C46 C 0.7458(4) 0.5935(5) 0.7958(4)
H26_2 H 0.710593 1 0.245416
H28_2 H 0.904121 1 0.257089
C2_2 C 0.7709(3) 0.3823(2) 0.0202(2)
C3_2 C 0.8230(4) 0.3508(3) 0.0242(3)
H1_2 H 0.8581 0.3515 0.0010
C4_2 C 0.8263(5) 0.3170(3) 0.0618(3)
H2_2 H 0.8637 0.2956 0.0635
C5_2 C 0.7763(5) 0.3145(3) 0.0964(3)
C6_2 C 0.7287(5) 0.3475(3) 0.0928(3)
H3_2 H 0.6947 0.3476 0.1169
C7_2 C 0.7235(4) 0.3828(3) 0.0561(3)
H4_2 H 0.6883 0.4061 0.0563
C8_2 C 0.7764(4) 0.2796(4) 0.1310(3)
C9_2 C 0.7754(5) 0.2491(4) 0.1612(4)
C10_2 C 0.7700(5) 0.2117(4) 0.1980(4)
C11_2 C 0.7215(5) 0.2102(4) 0.2305(4)
H5_2 H 0.6899 0.2359 0.2317
C12_2 C 0.7146(4) 0.1722(4) 0.2632(3)
H6_2 H 0.6773 0.1712 0.2846
C13_2 C 0.7602(4) 0.1380(4) 0.2640(4)
C14_2 C 0.8078(5) 0.1356(4) 0.2298(5)
H7_2 H 0.8373 0.1086 0.2278
C15_2 C 0.8128(5) 0.1734(5) 0.1974(5)
H8_2 H 0.8476 0.1725 0.1739
C16_2 C 0.7542(4) 0.0935(5) 0.2958(4)
C32_2 C 0.7709(3) 0.6177(2) 0.0202(2)
C33_2 C 0.8230(4) 0.6492(3) 0.0242(3)
H15_2 H 0.8581 0.6485 0.0010
C34_2 C 0.8263(5) 0.6830(3) 0.0618(3)
H16_2 H 0.8637 0.7044 0.0635
C35_2 C 0.7763(5) 0.6855(3) 0.0964(3)
C36_2 C 0.7287(5) 0.6525(3) 0.0928(3)
H17_2 H 0.6947 0.6524 0.1169
C37_2 C 0.7235(4) 0.6172(3) 0.0561(3)
H18_2 H 0.6883 0.5939 0.0563
C38_2 C 0.7764(4) 0.7204(4) 0.1310(3)
C39_2 C 0.7754(5) 0.7509(4) 0.1612(4)
C40_2 C 0.7700(5) 0.7883(4) 0.1980(4)
C41_2 C 0.7215(5) 0.7898(4) 0.2305(4)
H19_2 H 0.6899 0.7641 0.2317
C42_2 C 0.7146(4) 0.8278(4) 0.2632(3)
H20_2 H 0.6773 0.8288 0.2846
C43_2 C 0.7602(4) 0.8620(4) 0.2640(4)
C44_2 C 0.8078(5) 0.8644(4) 0.2298(5)
H21_2 H 0.8373 0.8914 0.2278
C45_2 C 0.8128(5) 0.8266(5) 0.1974(5)
H22_2 H 0.8476 0.8275 0.1739
C46_2 C 0.7542(4) 0.9065(5) 0.2958(4)
Zn2_3 Zn 0.69959(3) 0.5000 0.93794(2)
O1_3 O 0.75593(19) 0.5000 0.88170(13)
O2_2 O 0.81011(18) 0.41543(15) 0.94813(15)
O3_2 O 0.7176(2) 0.44576(14) 0.98100(12)
O6_3 O 0.6041(2) 0.5000 0.84774(17)
O7_3 O 0.6022(2) 0.5000 0.92907(16)
O9_3 O 0.7998(5) 0.5000 0.7803(5)
O10_3 O 0.6455(8) 0.5000 0.7520(4)
C1_2 C 0.7660(3) 0.4173(2) 0.9794(2)
C17_3 C 0.5755(3) 0.5000 0.8885(3)
C18_3 C 0.4976(3) 0.5000 0.8888(3)
C19_3 C 0.4657(4) 0.5000 0.8452(4)
H9_3 H 0.4916 0.5000 0.8165
C20_3 C 0.3955(4) 0.5000 0.8427(3)
H10_3 H 0.3736 0.5000 0.8124
C21_3 C 0.3572(4) 0.5000 0.8851(3)
C22_3 C 0.3926(4) 0.5000 0.9272(3)
H11_3 H 0.3684 0.5000 0.9566
C23_3 C 0.4624(4) 0.5000 0.9285(3)
H12_3 H 0.4850 0.5000 0.9586
C24_3 C 0.2849(4) 0.5000 0.8844(3)
C25_3 C 0.2253(4) 0.5000 0.8816(3)
C26_3 C 0.1530(4) 0.5000 0.8792(3)
C27_2 C 0.1183(3) 0.5436(3) 0.8782(2)
H13_2 H 0.1420 0.5734 0.8782
C28_2 C 0.0487(3) 0.5427(3) 0.8772(2)
H14_2 H 0.0246 0.5723 0.8779
C29_3 C 0.0130(3) 0.5000 0.8752(2)
O11_2 O 0.81011(18) 0.58457(15) 0.94813(15)
O12_2 O 0.7176(2) 0.55424(14) 0.98100(12)
O20 O 0.90759(15) 0.45963(13) 0.87688(12)
O21 O 0.90759(15) 0.54037(13) 0.87688(12)
C31_2 C 0.7660(3) 0.5827(2) 0.9794(2)
C47_2 C 0.1183(3) 0.4564(3) 0.8782(2)
H23_2 H 0.1420 0.4266 0.8782
C48_2 C 0.0487(3) 0.4573(3) 0.8772(2)
H24_2 H 0.0246 0.4277 0.8779
C30_3 C 0.9354(3) 0.5000 0.8764(2)
H25_2 H 0.673616 0.970745 0.288443
H27_2 H 0.841332 0.970745 0.233666
O8_2 O 0.09241(15) 0.54037(13) 0.12312(12)
C30_4 C 0.0646(3) 0.5000 0.1236(2)
Zn6_2 Zn 0.18856(3) 0.55763(2) 0.118008(19)
Zn7_2 Zn 0.18856(3) 0.44237(2) 0.118008(19)
O19_2 O 0.09241(15) 0.45963(13) 0.12312(12)
Zn10 Zn 0.19876(4) -0.0000 0.67577(3)
Zn2_4 Zn 0.30041(3) 0.5000 0.06206(2)
Zn3_3 Zn 0.30124(4) 0.5000 0.17577(3)
O1_4 O 0.24407(19) 0.5000 0.11830(13)
O2_3 O 0.18989(18) 0.41543(15) 0.05187(15)
O3_3 O 0.2824(2) 0.44576(14) 0.01900(12)
O6_4 O 0.3959(2) 0.5000 0.15226(17)
O7_4 O 0.3978(2) 0.5000 0.07093(16)
O9_4 O 0.2002(5) 0.5000 0.2197(5)
O10_4 O 0.3545(8) 0.5000 0.2480(4)
C1_3 C 0.2340(3) 0.4173(2) 0.0206(2)
C17_4 C 0.4245(3) 0.5000 0.1115(3)
C18_4 C 0.5024(3) 0.5000 0.1112(3)
C19_4 C 0.5343(4) 0.5000 0.1548(4)
H9_4 H 0.5084 0.5000 0.1835
C20_4 C 0.6045(4) 0.5000 0.1573(3)
H10_4 H 0.6264 0.5000 0.1876
C21_4 C 0.6428(4) 0.5000 0.1149(3)
C22_4 C 0.6074(4) 0.5000 0.0728(3)
H11_4 H 0.6316 0.5000 0.0434
C23_4 C 0.5376(4) 0.5000 0.0715(3)
H12_4 H 0.5150 0.5000 0.0414
C24_4 C 0.7151(4) 0.5000 0.1156(3)
C25_4 C 0.7747(4) 0.5000 0.1184(3)
C26_4 C 0.8470(4) 0.5000 0.1208(3)
C27_3 C 0.8817(3) 0.5436(3) 0.1218(2)
H13_3 H 0.8580 0.5734 0.1218
C28_3 C 0.9513(3) 0.5427(3) 0.1228(2)
H14_3 H 0.9754 0.5723 0.1221
C29_4 C 0.9870(3) 0.5000 0.1248(2)
O11_3 O 0.18989(18) 0.58457(15) 0.05187(15)
O12_3 O 0.2824(2) 0.55424(14) 0.01900(12)
O14_2 O 0.2052(2) 0.4001(2) 0.1705(2)
O15_2 O 0.2052(2) 0.5999(2) 0.1705(2)
O17_2 O 0.2966(3) 0.4382(3) 0.2041(3)
O18_2 O 0.2966(3) 0.5618(3) 0.2041(3)
C31_3 C 0.2340(3) 0.5827(2) 0.0206(2)
C47_3 C 0.8817(3) 0.4564(3) 0.1218(2)
H23_3 H 0.8580 0.4266 0.1218
C48_3 C 0.9513(3) 0.4573(3) 0.1228(2)
H24_3 H 0.9754 0.4277 0.1221
O4_2 O 0.2948(2) 0.0999(2) 0.6705(2)
O5_2 O 0.2034(3) 0.0618(3) 0.7041(3)
C2_3 C 0.2291(3) 0.3823(2) 0.9798(2)
C3_3 C 0.1770(4) 0.3508(3) 0.9758(3)
H1_3 H 0.1419 0.3515 0.9990
C4_3 C 0.1737(5) 0.3170(3) 0.9382(3)
H2_3 H 0.1363 0.2956 0.9365
C5_3 C 0.2237(5) 0.3145(3) 0.9036(3)
C6_3 C 0.2713(5) 0.3475(3) 0.9072(3)
H3_3 H 0.3053 0.3476 0.8831
C7_3 C 0.2765(4) 0.3828(3) 0.9439(3)
H4_3 H 0.3117 0.4061 0.9437
C8_3 C 0.2236(4) 0.2796(4) 0.8690(3)
C9_3 C 0.2246(5) 0.2491(4) 0.8388(4)
C10_3 C 0.2300(5) 0.2117(4) 0.8020(4)
C11_3 C 0.2785(5) 0.2102(4) 0.7695(4)
H5_3 H 0.3101 0.2359 0.7683
C12_3 C 0.2854(4) 0.1722(4) 0.7368(3)
H6_3 H 0.3227 0.1712 0.7154
C13_3 C 0.2398(4) 0.1380(4) 0.7360(4)
C14_3 C 0.1922(5) 0.1356(4) 0.7702(5)
H7_3 H 0.1627 0.1086 0.7722
C15_3 C 0.1872(5) 0.1734(5) 0.8026(5)
H8_3 H 0.1524 0.1725 0.8261
C16_3 C 0.2458(4) 0.0935(5) 0.7042(4)
Zn5_2 Zn 0.31144(3) 0.05763(2) 0.618008(19)
Zn8_2 Zn 0.31144(3) 0.94237(2) 0.618008(19)
Zn10_2 Zn 0.19876(4) 1.0000 0.67577(3)
O13_2 O 0.2948(2) 0.9001(2) 0.6705(2)
O16_2 O 0.2034(3) 0.9382(3) 0.7041(3)
C32_3 C 0.2291(3) 0.6177(2) 0.9798(2)
C33_3 C 0.1770(4) 0.6492(3) 0.9758(3)
H15_3 H 0.1419 0.6485 0.9990
C34_3 C 0.1737(5) 0.6830(3) 0.9382(3)
H16_3 H 0.1363 0.7044 0.9365
C35_3 C 0.2237(5) 0.6855(3) 0.9036(3)
C36_3 C 0.2713(5) 0.6525(3) 0.9072(3)
H17_3 H 0.3053 0.6524 0.8831
C37_3 C 0.2765(4) 0.6172(3) 0.9439(3)
H18_3 H 0.3117 0.5939 0.9437
C38_3 C 0.2236(4) 0.7204(4) 0.8690(3)
C39_3 C 0.2246(5) 0.7509(4) 0.8388(4)
C40_3 C 0.2300(5) 0.7883(4) 0.8020(4)
C41_3 C 0.2785(5) 0.7898(4) 0.7695(4)
H19_3 H 0.3101 0.7641 0.7683
C42_3 C 0.2854(4) 0.8278(4) 0.7368(3)
H20_3 H 0.3227 0.8288 0.7154
C43_3 C 0.2398(4) 0.8620(4) 0.7360(4)
C44_3 C 0.1922(5) 0.8644(4) 0.7702(5)
H21_3 H 0.1627 0.8914 0.7722
C45_3 C 0.1872(5) 0.8266(5) 0.8026(5)
H22_3 H 0.1524 0.8275 0.8261
C46_3 C 0.2458(4) 0.9065(5) 0.7042(4)
Zn2_5 Zn 0.19959(3) -0.0000 0.56206(2)
O1_5 O 0.25593(19) 0.0000 0.61830(13)
O2_4 O 0.31011(18) 0.08457(15) 0.55187(15)
O3_4 O 0.2176(2) 0.05424(14) 0.51900(12)
O6_5 O 0.1041(2) 0.0000 0.65226(17)
O7_5 O 0.1022(2) 0.0000 0.57093(16)
O9_5 O 0.2998(5) -0.0000 0.7197(5)
O10_5 O 0.1455(8) 0.0000 0.7480(4)
C1_4 C 0.2660(3) 0.0827(2) 0.5206(2)
C2_4 C 0.2709(3) 0.1177(2) 0.4798(2)
C3_4 C 0.3230(4) 0.1492(3) 0.4758(3)
H1_4 H 0.3581 0.1485 0.4990
C4_4 C 0.3263(5) 0.1830(3) 0.4382(3)
H2_4 H 0.3637 0.2044 0.4365
C5_4 C 0.2763(5) 0.1855(3) 0.4036(3)
C6_4 C 0.2287(5) 0.1525(3) 0.4072(3)
H3_4 H 0.1947 0.1524 0.3831
C7_4 C 0.2235(4) 0.1172(3) 0.4439(3)
H4_4 H 0.1883 0.0939 0.4437
C8_4 C 0.2764(4) 0.2204(4) 0.3690(3)
C9_4 C 0.2754(5) 0.2509(4) 0.3388(4)
C10_4 C 0.2700(5) 0.2883(4) 0.3020(4)
C11_4 C 0.2215(5) 0.2898(4) 0.2695(4)
H5_4 H 0.1899 0.2641 0.2683
C12_4 C 0.2146(4) 0.3278(4) 0.2368(3)
H6_4 H 0.1773 0.3288 0.2154
C13_4 C 0.2602(4) 0.3620(4) 0.2360(4)
C14_4 C 0.3078(5) 0.3644(4) 0.2702(5)
H7_4 H 0.3373 0.3914 0.2722
C15_4 C 0.3128(5) 0.3266(5) 0.3026(5)
H8_4 H 0.3476 0.3275 0.3261
C16_4 C 0.2542(4) 0.4065(5) 0.2042(4)
C17_5 C 0.0755(3) -0.0000 0.6115(3)
O20_2 O 0.40759(15) 0.04037(13) 0.62312(12)
H25_3 H 0.326384 0.0292553 0.711557
H26_3 H 0.289407 4.13699e-18 0.754584
H27_3 H 0.158668 0.0292553 0.766334
H28_3 H 0.0958793 4.13699e-18 0.742911
Zn2_6 Zn 0.19959(3) 1.0000 0.56206(2)
O1_6 O 0.25593(19) 1.0000 0.61830(13)
O6_6 O 0.1041(2) 1.0000 0.65226(17)
O7_6 O 0.1022(2) 1.0000 0.57093(16)
O9_6 O 0.2998(5) 1.0000 0.7197(5)
O10_6 O 0.1455(8) 1.0000 0.7480(4)
C17_6 C 0.0755(3) 1.0000 0.6115(3)
O11_4 O 0.31011(18) 0.91543(15) 0.55187(15)
O12_4 O 0.2176(2) 0.94576(14) 0.51900(12)
O21_2 O 0.40759(15) 0.95963(13) 0.62312(12)
C31_4 C 0.2660(3) 0.9173(2) 0.5206(2)
C32_4 C 0.2709(3) 0.8823(2) 0.4798(2)
C33_4 C 0.3230(4) 0.8508(3) 0.4758(3)
H15_4 H 0.3581 0.8515 0.4990
C34_4 C 0.3263(5) 0.8170(3) 0.4382(3)
H16_4 H 0.3637 0.7956 0.4365
C35_4 C 0.2763(5) 0.8145(3) 0.4036(3)
C36_4 C 0.2287(5) 0.8475(3) 0.4072(3)
H17_4 H 0.1947 0.8476 0.3831
C37_4 C 0.2235(4) 0.8828(3) 0.4439(3)
H18_4 H 0.1883 0.9061 0.4437
C38_4 C 0.2764(4) 0.7796(4) 0.3690(3)
C39_4 C 0.2754(5) 0.7491(4) 0.3388(4)
C40_4 C 0.2700(5) 0.7117(4) 0.3020(4)
C41_4 C 0.2215(5) 0.7102(4) 0.2695(4)
H19_4 H 0.1899 0.7359 0.2683
C42_4 C 0.2146(4) 0.6722(4) 0.2368(3)
H20_4 H 0.1773 0.6712 0.2154
C43_4 C 0.2602(4) 0.6380(4) 0.2360(4)
C44_4 C 0.3078(5) 0.6356(4) 0.2702(5)
H21_4 H 0.3373 0.6086 0.2722
C45_4 C 0.3128(5) 0.6734(5) 0.3026(5)
H22_4 H 0.3476 0.6725 0.3261
C46_4 C 0.2542(4) 0.5935(5) 0.2042(4)
H26_4 H 0.289407 1 0.754584
H28_4 H 0.0958793 1 0.742911
C18_5 C 0.9976(3) -0.0000 0.6112(3)
C19_5 C 0.9657(4) -0.0000 0.6548(4)
H9_5 H 0.9916 -0.0000 0.6835
C20_5 C 0.8955(4) 0.0000 0.6573(3)
H10_5 H 0.8736 0.0000 0.6876
C21_5 C 0.8572(4) 0.0000 0.6149(3)
C22_5 C 0.8926(4) 0.0000 0.5728(3)
H11_5 H 0.8684 0.0000 0.5434
C23_5 C 0.9624(4) -0.0000 0.5715(3)
H12_5 H 0.9850 -0.0000 0.5414
C24_5 C 0.7849(4) 0.0000 0.6156(3)
C25_5 C 0.7253(4) 0.0000 0.6184(3)
C26_5 C 0.6530(4) -0.0000 0.6208(3)
C29_5 C 0.5130(3) -0.0000 0.6248(2)
C30_5 C 0.4354(3) -0.0000 0.6236(2)
C47_4 C 0.6183(3) 0.0436(3) 0.6218(2)
H23_4 H 0.6420 0.0734 0.6218
C48_4 C 0.5487(3) 0.0427(3) 0.6228(2)
H24_4 H 0.5246 0.0723 0.6221
C18_6 C 0.9976(3) 1.0000 0.6112(3)
C19_6 C 0.9657(4) 1.0000 0.6548(4)
H9_6 H 0.9916 1.0000 0.6835
C20_6 C 0.8955(4) 1.0000 0.6573(3)
H10_6 H 0.8736 1.0000 0.6876
C21_6 C 0.8572(4) 1.0000 0.6149(3)
C22_6 C 0.8926(4) 1.0000 0.5728(3)
H11_6 H 0.8684 1.0000 0.5434
C23_6 C 0.9624(4) 1.0000 0.5715(3)
H12_6 H 0.9850 1.0000 0.5414
C24_6 C 0.7849(4) 1.0000 0.6156(3)
C25_6 C 0.7253(4) 1.0000 0.6184(3)
C26_6 C 0.6530(4) 1.0000 0.6208(3)
C27_4 C 0.6183(3) 0.9564(3) 0.6218(2)
H13_4 H 0.6420 0.9266 0.6218
C28_4 C 0.5487(3) 0.9573(3) 0.6228(2)
H14_4 H 0.5246 0.9277 0.6221
C29_6 C 0.5130(3) 1.0000 0.6248(2)
C30_6 C 0.4354(3) 1.0000 0.6236(2)
H25_4 H 0.326384 0.970745 0.711557
H27_4 H 0.158668 0.970745 0.766334
loop_
_geom_bond_atom_site_label_1
_geom_bond_atom_site_label_2
_geom_bond_site_symmetry_1
_geom_bond_site_symmetry_2
C19 C18 1_555 1_555
H9 C19 1_555 1_555
C20 C19 1_555 1_555
H10 C20 1_555 1_555
C21 C20 1_555 1_555
C22 C21 1_555 1_555
H11 C22 1_555 1_555
C23 C18 1_555 1_555
H12 C23 1_555 1_555
C24 C21 1_555 1_555
C25 C24 1_555 1_555
C26 C25 1_555 1_555
C30 C29 1_555 1_555
Zn7 O19 1_555 1_555
O19 C30 1_555 1_555
C47 C26 1_555 1_555
H23 C47 1_555 1_555
C48 C29 1_555 1_555
H24 C48 1_555 1_555
C22 C23 1_555 1_555
C47 C48 1_555 1_555
O8 C30_2 1_555 1_555
C19_2 C18_2 1_555 1_555
H9_2 C19_2 1_555 1_555
C20_2 C19_2 1_555 1_555
H10_2 C20_2 1_555 1_555
C21_2 C20_2 1_555 1_555
C22_2 C21_2 1_555 1_555
H11_2 C22_2 1_555 1_555
C23_2 C18_2 1_555 1_555
H12_2 C23_2 1_555 1_555
C24_2 C21_2 1_555 1_555
C25_2 C24_2 1_555 1_555
C26_2 C25_2 1_555 1_555
C27 C26_2 1_555 1_555
H13 C27 1_555 1_555
C28 C27 1_555 1_555
H14 C28 1_555 1_555
C29_2 C28 1_555 1_555
C30_2 C29_2 1_555 1_555
Zn6 O8 1_555 1_555
C22_2 C23_2 1_555 1_555
Zn7 O1 1_555 1_555
Zn2 O1 1_555 1_555
Zn3 O1 1_555 1_555
O2 Zn7 1_555 1_555
O3 Zn2 1_555 1_555
O4 C16 1_555 1_555
O5 C16 1_555 1_555
O6 Zn3 1_555 1_555
O7 Zn2 1_555 1_555
O9 Zn3 1_555 1_555
O10 Zn3 1_555 1_555
C1 O2 1_555 1_555
C2 C1 1_555 1_555
C3 C2 1_555 1_555
H1 C3 1_555 1_555
C4 C3 1_555 1_555
H2 C4 1_555 1_555
C5 C4 1_555 1_555
C6 C5 1_555 1_555
H3 C6 1_555 1_555
C7 C2 1_555 1_555
H4 C7 1_555 1_555
C8 C5 1_555 1_555
C9 C8 1_555 1_555
C10 C9 1_555 1_555
C11 C10 1_555 1_555
H5 C11 1_555 1_555
C12 C11 1_555 1_555
H6 C12 1_555 1_555
C13 C12 1_555 1_555
C14 C13 1_555 1_555
H7 C14 1_555 1_555
C15 C10 1_555 1_555
H8 C15 1_555 1_555
C16 C13 1_555 1_555
C17 O6 1_555 1_555
Zn5 O4 1_555 1_555
Zn9 O5 1_555 1_555
O14 Zn7 1_555 1_555
O17 Zn3 1_555 1_555
O3 C1 1_555 1_555
O7 C17 1_555 1_555
C6 C7 1_555 1_555
C14 C15 1_555 1_555
O9 H25 1_555 1_555
O9 H26 1_555 1_555
O10 H27 1_555 1_555
O10 H28 1_555 1_555
Zn2_2 O1_2 1_555 1_555
Zn3_2 O1_2 1_555 1_555
O1_2 Zn6 1_555 1_555
O6_2 Zn3_2 1_555 1_555
O7_2 Zn2_2 1_555 1_555
O9_2 Zn3_2 1_555 1_555
O10_2 Zn3_2 1_555 1_555
C17_2 O6_2 1_555 1_555
Zn6 O11 1_555 1_555
Zn8 O13 1_555 1_555
Zn9 O16 1_555 1_555
O11 C31 1_555 1_555
O12 Zn2_2 1_555 1_555
O13 C46 1_555 1_555
O15 Zn6 1_555 1_555
O16 C46 1_555 1_555
O18 Zn3_2 1_555 1_555
C31 O12 1_555 1_555
C32 C31 1_555 1_555
C33 C32 1_555 1_555
H15 C33 1_555 1_555
C34 C33 1_555 1_555
H16 C34 1_555 1_555
C35 C34 1_555 1_555
C36 C35 1_555 1_555
H17 C36 1_555 1_555
C37 C32 1_555 1_555
H18 C37 1_555 1_555
C38 C35 1_555 1_555
C39 C38 1_555 1_555
C40 C39 1_555 1_555
C41 C40 1_555 1_555
H19 C41 1_555 1_555
C42 C41 1_555 1_555
H20 C42 1_555 1_555
C43 C42 1_555 1_555
C44 C43 1_555 1_555
H21 C44 1_555 1_555
C45 C40 1_555 1_555
H22 C45 1_555 1_555
C46 C43 1_555 1_555
O7_2 C17_2 1_555 1_555
C36 C37 1_555 1_555
C44 C45 1_555 1_555
O9_2 H26_2 1_555 1_555
O10_2 H28_2 1_555 1_555
O14 C16_2 1_555 1_555
O17 C16_2 1_555 1_555
C3_2 C2_2 1_555 1_555
H1_2 C3_2 1_555 1_555
C4_2 C3_2 1_555 1_555
H2_2 C4_2 1_555 1_555
C5_2 C4_2 1_555 1_555
C6_2 C5_2 1_555 1_555
H3_2 C6_2 1_555 1_555
C7_2 C2_2 1_555 1_555
H4_2 C7_2 1_555 1_555
C8_2 C5_2 1_555 1_555
C9_2 C8_2 1_555 1_555
C10_2 C9_2 1_555 1_555
C11_2 C10_2 1_555 1_555
H5_2 C11_2 1_555 1_555
C12_2 C11_2 1_555 1_555
H6_2 C12_2 1_555 1_555
C13_2 C12_2 1_555 1_555
C14_2 C13_2 1_555 1_555
H7_2 C14_2 1_555 1_555
C15_2 C10_2 1_555 1_555
H8_2 C15_2 1_555 1_555
C16_2 C13_2 1_555 1_555
O15 C46_2 1_555 1_555
O18 C46_2 1_555 1_555
C33_2 C32_2 1_555 1_555
H15_2 C33_2 1_555 1_555
C34_2 C33_2 1_555 1_555
H16_2 C34_2 1_555 1_555
C35_2 C34_2 1_555 1_555
C36_2 C35_2 1_555 1_555
H17_2 C36_2 1_555 1_555
C37_2 C32_2 1_555 1_555
H18_2 C37_2 1_555 1_555
C38_2 C35_2 1_555 1_555
C39_2 C38_2 1_555 1_555
C40_2 C39_2 1_555 1_555
C41_2 C40_2 1_555 1_555
H19_2 C41_2 1_555 1_555
C42_2 C41_2 1_555 1_555
H20_2 C42_2 1_555 1_555
C43_2 C42_2 1_555 1_555
C44_2 C43_2 1_555 1_555
H21_2 C44_2 1_555 1_555
C45_2 C40_2 1_555 1_555
H22_2 C45_2 1_555 1_555
C46_2 C43_2 1_555 1_555
C6_2 C7_2 1_555 1_555
C14_2 C15_2 1_555 1_555
C36_2 C37_2 1_555 1_555
C44_2 C45_2 1_555 1_555
Zn5 O1_3 1_555 1_555
Zn2_3 O1_3 1_555 1_555
Zn9 O1_3 1_555 1_555
O1_3 Zn8 1_555 1_555
O2_2 Zn5 1_555 1_555
O3_2 Zn2_3 1_555 1_555
O6_3 Zn9 1_555 1_555
O7_3 Zn2_3 1_555 1_555
O9_3 Zn9 1_555 1_555
O10_3 Zn9 1_555 1_555
C1_2 O2_2 1_555 1_555
C17_3 O6_3 1_555 1_555
C18_3 C17_3 1_555 1_555
C19_3 C18_3 1_555 1_555
H9_3 C19_3 1_555 1_555
C20_3 C19_3 1_555 1_555
H10_3 C20_3 1_555 1_555
C21_3 C20_3 1_555 1_555
C22_3 C21_3 1_555 1_555
H11_3 C22_3 1_555 1_555
C23_3 C18_3 1_555 1_555
H12_3 C23_3 1_555 1_555
C24_3 C21_3 1_555 1_555
C25_3 C24_3 1_555 1_555
C26_3 C25_3 1_555 1_555
C27_2 C26_3 1_555 1_555
H13_2 C27_2 1_555 1_555
C28_2 C27_2 1_555 1_555
H14_2 C28_2 1_555 1_555
C29_3 C28_2 1_555 1_555
Zn8 O11_2 1_555 1_555
O11_2 C31_2 1_555 1_555
O12_2 Zn2_3 1_555 1_555
O20 Zn5 1_555 1_555
O21 Zn8 1_555 1_555
C31_2 O12_2 1_555 1_555
C47_2 C26_3 1_555 1_555
H23_2 C47_2 1_555 1_555
C48_2 C29_3 1_555 1_555
H24_2 C48_2 1_555 1_555
O3_2 C1_2 1_555 1_555
O7_3 C17_3 1_555 1_555
C22_3 C23_3 1_555 1_555
C47_2 C48_2 1_555 1_555
O21 C30_3 1_555 1_555
O20 C30_3 1_555 1_555
O9_2 H25_2 1_555 1_555
O10_2 H27_2 1_555 1_555
O8_2 C30_4 1_555 1_555
Zn6_2 O8_2 1_555 1_555
Zn7_2 O19_2 1_555 1_555
O19_2 C30_4 1_555 1_555
Zn7_2 O1_4 1_555 1_555
Zn2_4 O1_4 1_555 1_555
Zn3_3 O1_4 1_555 1_555
O1_4 Zn6_2 1_555 1_555
O2_3 Zn7_2 1_555 1_555
O3_3 Zn2_4 1_555 1_555
O6_4 Zn3_3 1_555 1_555
O7_4 Zn2_4 1_555 1_555
O9_4 Zn3_3 1_555 1_555
O10_4 Zn3_3 1_555 1_555
C1_3 O2_3 1_555 1_555
C17_4 O6_4 1_555 1_555
C18_4 C17_4 1_555 1_555
C19_4 C18_4 1_555 1_555
H9_4 C19_4 1_555 1_555
C20_4 C19_4 1_555 1_555
H10_4 C20_4 1_555 1_555
C21_4 C20_4 1_555 1_555
C22_4 C21_4 1_555 1_555
H11_4 C22_4 1_555 1_555
C23_4 C18_4 1_555 1_555
H12_4 C23_4 1_555 1_555
C24_4 C21_4 1_555 1_555
C25_4 C24_4 1_555 1_555
C26_4 C25_4 1_555 1_555
C27_3 C26_4 1_555 1_555
H13_3 C27_3 1_555 1_555
C28_3 C27_3 1_555 1_555
H14_3 C28_3 1_555 1_555
C29_4 C28_3 1_555 1_555
Zn6_2 O11_3 1_555 1_555
O11_3 C31_3 1_555 1_555
O12_3 Zn2_4 1_555 1_555
O14_2 Zn7_2 1_555 1_555
O15_2 Zn6_2 1_555 1_555
O17_2 Zn3_3 1_555 1_555
O18_2 Zn3_3 1_555 1_555
C31_3 O12_3 1_555 1_555
C47_3 C26_4 1_555 1_555
H23_3 C47_3 1_555 1_555
C48_3 C29_4 1_555 1_555
H24_3 C48_3 1_555 1_555
O3_3 C1_3 1_555 1_555
O7_4 C17_4 1_555 1_555
C22_4 C23_4 1_555 1_555
C47_3 C48_3 1_555 1_555
O4_2 C16_3 1_555 1_555
O5_2 C16_3 1_555 1_555
C3_3 C2_3 1_555 1_555
H1_3 C3_3 1_555 1_555
C4_3 C3_3 1_555 1_555
H2_3 C4_3 1_555 1_555
C5_3 C4_3 1_555 1_555
C6_3 C5_3 1_555 1_555
H3_3 C6_3 1_555 1_555
C7_3 C2_3 1_555 1_555
H4_3 C7_3 1_555 1_555
C8_3 C5_3 1_555 1_555
C9_3 C8_3 1_555 1_555
C10_3 C9_3 1_555 1_555
C11_3 C10_3 1_555 1_555
H5_3 C11_3 1_555 1_555
C12_3 C11_3 1_555 1_555
H6_3 C12_3 1_555 1_555
C13_3 C12_3 1_555 1_555
C14_3 C13_3 1_555 1_555
H7_3 C14_3 1_555 1_555
C15_3 C10_3 1_555 1_555
H8_3 C15_3 1_555 1_555
C16_3 C13_3 1_555 1_555
Zn5_2 O4_2 1_555 1_555
Zn8_2 O13_2 1_555 1_555
Zn10 O5_2 1_555 1_555
Zn10_2 O16_2 1_555 1_555
O13_2 C46_3 1_555 1_555
O16_2 C46_3 1_555 1_555
C33_3 C32_3 1_555 1_555
H15_3 C33_3 1_555 1_555
C34_3 C33_3 1_555 1_555
H16_3 C34_3 1_555 1_555
C35_3 C34_3 1_555 1_555
C36_3 C35_3 1_555 1_555
H17_3 C36_3 1_555 1_555
C37_3 C32_3 1_555 1_555
H18_3 C37_3 1_555 1_555
C38_3 C35_3 1_555 1_555
C39_3 C38_3 1_555 1_555
C40_3 C39_3 1_555 1_555
C41_3 C40_3 1_555 1_555
H19_3 C41_3 1_555 1_555
C42_3 C41_3 1_555 1_555
H20_3 C42_3 1_555 1_555
C43_3 C42_3 1_555 1_555
C44_3 C43_3 1_555 1_555
H21_3 C44_3 1_555 1_555
C45_3 C40_3 1_555 1_555
H22_3 C45_3 1_555 1_555
C46_3 C43_3 1_555 1_555
C6_3 C7_3 1_555 1_555
C14_3 C15_3 1_555 1_555
C36_3 C37_3 1_555 1_555
C44_3 C45_3 1_555 1_555
Zn5_2 O1_5 1_555 1_555
Zn2_5 O1_5 1_555 1_555
Zn10 O1_5 1_555 1_555
O2_4 Zn5_2 1_555 1_555
O3_4 Zn2_5 1_555 1_555
O14_2 C16_4 1_555 1_555
O17_2 C16_4 1_555 1_555
O6_5 Zn10 1_555 1_555
O7_5 Zn2_5 1_555 1_555
O9_5 Zn10 1_555 1_555
O10_5 Zn10 1_555 1_555
C1_4 O2_4 1_555 1_555
C2_4 C1_4 1_555 1_555
C3_4 C2_4 1_555 1_555
H1_4 C3_4 1_555 1_555
C4_4 C3_4 1_555 1_555
H2_4 C4_4 1_555 1_555
C5_4 C4_4 1_555 1_555
C6_4 C5_4 1_555 1_555
H3_4 C6_4 1_555 1_555
C7_4 C2_4 1_555 1_555
H4_4 C7_4 1_555 1_555
C8_4 C5_4 1_555 1_555
C9_4 C8_4 1_555 1_555
C10_4 C9_4 1_555 1_555
C11_4 C10_4 1_555 1_555
H5_4 C11_4 1_555 1_555
C12_4 C11_4 1_555 1_555
H6_4 C12_4 1_555 1_555
C13_4 C12_4 1_555 1_555
C14_4 C13_4 1_555 1_555
H7_4 C14_4 1_555 1_555
C15_4 C10_4 1_555 1_555
H8_4 C15_4 1_555 1_555
C16_4 C13_4 1_555 1_555
C17_5 O6_5 1_555 1_555
O20_2 Zn5_2 1_555 1_555
O3_4 C1_4 1_555 1_555
O7_5 C17_5 1_555 1_555
C6_4 C7_4 1_555 1_555
C14_4 C15_4 1_555 1_555
O9_5 H25_3 1_555 1_555
O9_5 H26_3 1_555 1_555
O10_5 H27_3 1_555 1_555
O10_5 H28_3 1_555 1_555
Zn2_6 O1_6 1_555 1_555
Zn10_2 O1_6 1_555 1_555
O1_6 Zn8_2 1_555 1_555
O6_6 Zn10_2 1_555 1_555
O7_6 Zn2_6 1_555 1_555
O9_6 Zn10_2 1_555 1_555
O10_6 Zn10_2 1_555 1_555
C17_6 O6_6 1_555 1_555
Zn8_2 O11_4 1_555 1_555
O11_4 C31_4 1_555 1_555
O12_4 Zn2_6 1_555 1_555
O15_2 C46_4 1_555 1_555
O18_2 C46_4 1_555 1_555
O21_2 Zn8_2 1_555 1_555
C31_4 O12_4 1_555 1_555
C32_4 C31_4 1_555 1_555
C33_4 C32_4 1_555 1_555
H15_4 C33_4 1_555 1_555
C34_4 C33_4 1_555 1_555
H16_4 C34_4 1_555 1_555
C35_4 C34_4 1_555 1_555
C36_4 C35_4 1_555 1_555
H17_4 C36_4 1_555 1_555
C37_4 C32_4 1_555 1_555
H18_4 C37_4 1_555 1_555
C38_4 C35_4 1_555 1_555
C39_4 C38_4 1_555 1_555
C40_4 C39_4 1_555 1_555
C41_4 C40_4 1_555 1_555
H19_4 C41_4 1_555 1_555
C42_4 C41_4 1_555 1_555
H20_4 C42_4 1_555 1_555
C43_4 C42_4 1_555 1_555
C44_4 C43_4 1_555 1_555
H21_4 C44_4 1_555 1_555
C45_4 C40_4 1_555 1_555
H22_4 C45_4 1_555 1_555
C46_4 C43_4 1_555 1_555
O7_6 C17_6 1_555 1_555
C36_4 C37_4 1_555 1_555
C44_4 C45_4 1_555 1_555
O9_6 H26_4 1_555 1_555
O10_6 H28_4 1_555 1_555
C19_5 C18_5 1_555 1_555
H9_5 C19_5 1_555 1_555
C20_5 C19_5 1_555 1_555
H10_5 C20_5 1_555 1_555
C21_5 C20_5 1_555 1_555
C22_5 C21_5 1_555 1_555
H11_5 C22_5 1_555 1_555
C23_5 C18_5 1_555 1_555
H12_5 C23_5 1_555 1_555
C24_5 C21_5 1_555 1_555
C25_5 C24_5 1_555 1_555
C26_5 C25_5 1_555 1_555
C30_5 C29_5 1_555 1_555
O20_2 C30_5 1_555 1_555
C47_4 C26_5 1_555 1_555
H23_4 C47_4 1_555 1_555
C48_4 C29_5 1_555 1_555
H24_4 C48_4 1_555 1_555
C22_5 C23_5 1_555 1_555
C47_4 C48_4 1_555 1_555
O21_2 C30_6 1_555 1_555
C19_6 C18_6 1_555 1_555
H9_6 C19_6 1_555 1_555
C20_6 C19_6 1_555 1_555
H10_6 C20_6 1_555 1_555
C21_6 C20_6 1_555 1_555
C22_6 C21_6 1_555 1_555
H11_6 C22_6 1_555 1_555
C23_6 C18_6 1_555 1_555
H12_6 C23_6 1_555 1_555
C24_6 C21_6 1_555 1_555
C25_6 C24_6 1_555 1_555
C26_6 C25_6 1_555 1_555
C27_4 C26_6 1_555 1_555
H13_4 C27_4 1_555 1_555
C28_4 C27_4 1_555 1_555
H14_4 C28_4 1_555 1_555
C29_6 C28_4 1_555 1_555
C30_6 C29_6 1_555 1_555
C22_6 C23_6 1_555 1_555
O9_6 H25_4 1_555 1_555
O10_6 H27_4 1_555 1_555

#END
