
###############################################################################
#
# This file contains modified crystal structure data generated from the
# MOF subset of the Cambridge Structural Database (CSD) v543 
# hosted by the Cambridge Crystallographic Data Centre (CCDC).
#
# This work is licensed under the Creative Commons
# Attribution-NonCommercial-ShareAlike 4.0 International License.
# To view a copy of this license, visit
# http://creativecommons.org/licenses/by-nc-sa/4.0/
# or send a letter to
# Creative Commons, PO Box 1866, Mountain View, CA 94042, USA.
#
# CIF created using the CSD Python API on 29 September 2022
# The structure has been converted into the P1 space group
# The structure has a 3D framework
# The original CSD entry FAHQIR is in the monoclinic crystal system
# The framework has been calculated to contain at least 10.0% void space
# The void calculation uses a probe of radius 1.32A, grid spacing 0.4
#
###############################################################################

data_FAHQIR
_chemical_formula_moiety         '(C200 H168 Co14 N16 O64)n'
_symmetry_cell_setting           triclinic
_symmetry_space_group_name_H-M   'P 1'
_symmetry_Int_Tables_number      1
_space_group_name_Hall           'P 1'
loop_
_symmetry_equiv_pos_site_id
_symmetry_equiv_pos_as_xyz
1 x,y,z
_cell_length_a                   20.600(5)
_cell_length_b                   10.4271(11)
_cell_length_c                   29.646(5)
_cell_angle_alpha                90
_cell_angle_beta                 113.51(2)
_cell_angle_gamma                90
_cell_volume                     5839.31
loop_
_atom_site_label
_atom_site_type_symbol
_atom_site_fract_x
_atom_site_fract_y
_atom_site_fract_z
O3 O 0.3022(3) 0.0175(5) 0.1728(2)
O4 O 0.2496(3) 0.2088(5) 0.14893(18)
H1 H 0.0871 0.0112 0.3425
C4 C 0.1786(4) 0.0312(6) 0.1485(3)
C5 C 0.2492(4) 0.0896(7) 0.1575(3)
C6 C 0.1208(4) 0.0394(7) 0.1026(3)
C9 C 0.1255(4) 0.1014(7) 0.0589(3)
C10 C 0.1821(5) 0.0716(7) 0.0464(3)
H6 H 0.2184 0.0186 0.0665
C11 C 0.1840(5) 0.1222(8) 0.0033(3)
C15 C 0.0741(4) 0.1855(8) 0.0299(3)
H9 H 0.0376 0.2101 0.0390
C22 C 0.3383(8) 0.0737(14) 0.4258(6)
H16 H 0.3755 0.0675 0.4565
C23 C 0.3265(9) 0.1856(14) 0.3986(7)
H17 H 0.3583 0.2535 0.4094
C24 C 0.2694(9) 0.1949(12) 0.3570(6)
H18 H 0.2574 0.2720 0.3400
C25 C 0.2288(6) 0.0884(9) 0.3400(4)
H19 H 0.1910 0.0942 0.3095
Co5 Co 0.33486(5) 0.32583(9) 0.16298(4)
O5 O 0.0850(3) 0.3292(5) 0.9010(2)
O6 O 0.1694(3) 0.1875(5) 0.90838(19)
H7 H 0.2218 0.1024 0.9950
C12 C 0.1299(4) 0.2021(7) 0.9723(3)
C13 C 0.1289(5) 0.2447(8) 0.9239(3)
C14 C 0.0771(5) 0.2336(8) 0.9866(3)
H8 H 0.0416 0.2891 0.9671
Co7 Co 0.16514(5) 0.17417(9) 0.83702(4)
Co1 Co 0.0000 0.65927(12) 0.2500
Co2 Co 0.16514(5) 0.82583(9) 0.33702(4)
O1 O 0.0402(3) 0.8053(4) 0.21925(18)
O2 O 0.1552(3) 0.8441(5) 0.26513(19)
O7 O 0.0810(3) 0.9554(5) 0.31836(19)
H2 H 0.0402 0.9154 0.3122
O8 O 0.0904(3) 0.6623(5) 0.31578(18)
N1 N 0.0503(4) 0.5137(6) 0.2220(2)
N2 N 0.2385(4) 0.9792(6) 0.3628(3)
C1 C 0.1006(4) 0.8506(7) 0.2257(3)
C2 C 0.1073(4) 0.9133(7) 0.1832(3)
C3 C 0.1704(4) 0.9692(6) 0.1871(3)
H3 H 0.2091 0.9648 0.2172
C7 C 0.0588(4) 0.9817(7) 0.0988(3)
H4 H 0.0203 0.9829 0.0686
C8 C 0.0512(4) 0.9229(7) 0.1376(3)
H5 H 0.0075 0.8884 0.1334
C16 C 0.0728(8) 0.4074(12) 0.2432(5)
H10 H 0.0656 0.3872 0.2714
C17 C 0.1111(10) 0.3125(16) 0.2240(7)
H11 H 0.1253 0.2321 0.2381
C18 C 0.1224(10) 0.3513(17) 0.1867(7)
H12 H 0.1480 0.2981 0.1747
C19 C 0.1010(12) 0.456(2) 0.1655(8)
H13 H 0.1069 0.4788 0.1370
C20 C 0.0685(8) 0.5355(14) 0.1865(6)
H14 H 0.0582 0.6173 0.1730
C21 C 0.2925(6) 0.9695(10) 0.4057(4)
H15 H 0.3005 0.8926 0.4229
H20 H 0.083(4) 0.668(6) 0.3423(15)
H21 H 0.123(3) 0.609(5) 0.316(2)
O18 O 0.2504(3) 0.7088(5) 0.35107(18)
O20 O 0.1694(3) 0.8125(5) 0.40838(19)
O11 O 0.6978(3) 0.0175(5) 0.3272(2)
O12 O 0.7504(3) 0.2088(5) 0.35107(18)
O13 O 0.9150(3) 0.3292(5) 0.5990(2)
O14 O 0.8306(3) 0.1875(5) 0.59162(19)
H22 H 0.9129 0.0112 0.1575
C29 C 0.8214(4) 0.0312(6) 0.3515(3)
C30 C 0.7508(4) 0.0896(7) 0.3425(3)
C31 C 0.8792(4) 0.0394(7) 0.3974(3)
C34 C 0.8745(4) 0.1014(7) 0.4411(3)
C35 C 0.8179(5) 0.0716(7) 0.4536(3)
H27 H 0.7816 0.0186 0.4335
C36 C 0.8160(5) 0.1222(8) 0.4967(3)
H28 H 0.7782 0.1024 0.5050
C37 C 0.8701(4) 0.2021(7) 0.5277(3)
C38 C 0.8711(5) 0.2447(8) 0.5761(3)
C39 C 0.9229(5) 0.2336(8) 0.5134(3)
H29 H 0.9584 0.2891 0.5329
C40 C 0.9259(4) 0.1855(8) 0.4701(3)
H30 H 0.9624 0.2101 0.4610
C47 C 0.6617(8) 0.0737(14) 0.0742(6)
H37 H 0.6245 0.0675 0.0435
C48 C 0.6735(9) 0.1856(14) 0.1014(7)
H38 H 0.6417 0.2535 0.0906
C49 C 0.7306(9) 0.1949(12) 0.1430(6)
H39 H 0.7426 0.2720 0.1600
C50 C 0.7712(6) 0.0884(9) 0.1600(4)
H40 H 0.8090 0.0942 0.1905
Co4 Co 0.66514(5) 0.32583(9) 0.33702(4)
Co6 Co 0.83486(5) 0.17417(9) 0.66298(4)
Co1_2 Co 1.0000 0.65927(12) 0.2500
Co3 Co 0.83486(5) 0.82583(9) 0.16298(4)
O9 O 0.9598(3) 0.8053(4) 0.28075(18)
O10 O 0.8448(3) 0.8441(5) 0.23487(19)
O15 O 0.9190(3) 0.9554(5) 0.18164(19)
H23 H 0.9598 0.9154 0.1878
O16 O 0.9096(3) 0.6623(5) 0.18422(18)
N3 N 0.9497(4) 0.5137(6) 0.2780(2)
N4 N 0.7615(4) 0.9792(6) 0.1372(3)
C26 C 0.8994(4) 0.8506(7) 0.2743(3)
C27 C 0.8927(4) 0.9133(7) 0.3168(3)
C28 C 0.8296(4) 0.9692(6) 0.3129(3)
H24 H 0.7909 0.9648 0.2828
C32 C 0.9412(4) 0.9817(7) 0.4012(3)
H25 H 0.9797 0.9829 0.4314
C33 C 0.9488(4) 0.9229(7) 0.3624(3)
H26 H 0.9925 0.8884 0.3666
C41 C 0.9272(8) 0.4074(12) 0.2568(5)
H31 H 0.9344 0.3872 0.2286
C42 C 0.8889(10) 0.3125(16) 0.2760(7)
H32 H 0.8747 0.2321 0.2619
C43 C 0.8776(10) 0.3513(17) 0.3133(7)
H33 H 0.8520 0.2981 0.3253
C44 C 0.8990(12) 0.456(2) 0.3345(8)
H34 H 0.8931 0.4788 0.3630
C45 C 0.9315(8) 0.5355(14) 0.3135(6)
H35 H 0.9418 0.6173 0.3270
C46 C 0.7075(6) 0.9695(10) 0.0943(4)
H36 H 0.6995 0.8926 0.0771
H41 H 0.917(4) 0.668(6) 0.1577(15)
H42 H 0.877(3) 0.609(5) 0.184(2)
O17 O 0.7496(3) 0.7088(5) 0.14893(18)
O19 O 0.8306(3) 0.8125(5) 0.09162(19)
Co1_3 Co 0.5000 0.15927(12) 0.2500
O1_2 O 0.5402(3) 0.3053(4) 0.21925(18)
O2_2 O 0.6552(3) 0.3441(5) 0.26513(19)
O3_2 O 0.8022(3) 0.5175(5) 0.1728(2)
O7_2 O 0.5810(3) 0.4554(5) 0.31836(19)
H1_2 H 0.5871 0.5112 0.3425
H2_2 H 0.5402 0.4154 0.3122
O8_2 O 0.5904(3) 0.1623(5) 0.31578(18)
N1_2 N 0.5503(4) 0.0137(6) 0.2220(2)
N2_2 N 0.7385(4) 0.4792(6) 0.3628(3)
C1_2 C 0.6006(4) 0.3506(7) 0.2257(3)
C2_2 C 0.6073(4) 0.4133(7) 0.1832(3)
C3_2 C 0.6704(4) 0.4692(6) 0.1871(3)
H3_2 H 0.7091 0.4648 0.2172
C4_2 C 0.6786(4) 0.5312(6) 0.1485(3)
C5_2 C 0.7492(4) 0.5896(7) 0.1575(3)
C6_2 C 0.6208(4) 0.5394(7) 0.1026(3)
C7_2 C 0.5588(4) 0.4817(7) 0.0988(3)
H4_2 H 0.5203 0.4829 0.0686
C8_2 C 0.5512(4) 0.4229(7) 0.1376(3)
H5_2 H 0.5075 0.3884 0.1334
C9_2 C 0.6255(4) 0.6014(7) 0.0589(3)
C10_2 C 0.6821(5) 0.5716(7) 0.0464(3)
H6_2 H 0.7184 0.5186 0.0665
C11_2 C 0.6840(5) 0.6222(8) 0.0033(3)
C15_2 C 0.5741(4) 0.6855(8) 0.0299(3)
H9_2 H 0.5376 0.7101 0.0390
C20_2 C 0.5685(8) 0.0355(14) 0.1865(6)
H14_2 H 0.5582 0.1173 0.1730
C21_2 C 0.7925(6) 0.4695(10) 0.4057(4)
H15_2 H 0.8005 0.3926 0.4229
C22_2 C 0.8383(8) 0.5737(14) 0.4258(6)
H16_2 H 0.8755 0.5675 0.4565
C23_2 C 0.8265(9) 0.6856(14) 0.3986(7)
H17_2 H 0.8583 0.7535 0.4094
C24_2 C 0.7694(9) 0.6949(12) 0.3570(6)
H18_2 H 0.7574 0.7720 0.3400
C25_2 C 0.7288(6) 0.5884(9) 0.3400(4)
H19_2 H 0.6910 0.5942 0.3095
H20_2 H 0.583(4) 0.168(6) 0.3423(15)
H21_2 H 0.623(3) 0.109(5) 0.316(2)
O9_2 O 0.4598(3) 0.3053(4) 0.28075(18)
O10_2 O 0.3448(3) 0.3441(5) 0.23487(19)
O11_2 O 0.1978(3) 0.5175(5) 0.3272(2)
O13_2 O 0.4150(3) 0.8292(5) 0.5990(2)
O14_2 O 0.3306(3) 0.6875(5) 0.59162(19)
O15_2 O 0.4190(3) 0.4554(5) 0.18164(19)
H22_2 H 0.4129 0.5112 0.1575
H23_2 H 0.4598 0.4154 0.1878
O16_2 O 0.4096(3) 0.1623(5) 0.18422(18)
N3_2 N 0.4497(4) 0.0137(6) 0.2780(2)
N4_2 N 0.2615(4) 0.4792(6) 0.1372(3)
C26_2 C 0.3994(4) 0.3506(7) 0.2743(3)
C27_2 C 0.3927(4) 0.4133(7) 0.3168(3)
C28_2 C 0.3296(4) 0.4692(6) 0.3129(3)
H24_2 H 0.2909 0.4648 0.2828
C29_2 C 0.3214(4) 0.5312(6) 0.3515(3)
C30_2 C 0.2508(4) 0.5896(7) 0.3425(3)
C31_2 C 0.3792(4) 0.5394(7) 0.3974(3)
C32_2 C 0.4412(4) 0.4817(7) 0.4012(3)
H25_2 H 0.4797 0.4829 0.4314
C33_2 C 0.4488(4) 0.4229(7) 0.3624(3)
H26_2 H 0.4925 0.3884 0.3666
C34_2 C 0.3745(4) 0.6014(7) 0.4411(3)
C35_2 C 0.3179(5) 0.5716(7) 0.4536(3)
H27_2 H 0.2816 0.5186 0.4335
C36_2 C 0.3160(5) 0.6222(8) 0.4967(3)
H28_2 H 0.2782 0.6024 0.5050
C37_2 C 0.3701(4) 0.7021(7) 0.5277(3)
C38_2 C 0.3711(5) 0.7447(8) 0.5761(3)
C39_2 C 0.4229(5) 0.7336(8) 0.5134(3)
H29_2 H 0.4584 0.7891 0.5329
C40_2 C 0.4259(4) 0.6855(8) 0.4701(3)
H30_2 H 0.4624 0.7101 0.4610
C45_2 C 0.4315(8) 0.0355(14) 0.3135(6)
H35_2 H 0.4418 0.1173 0.3270
C46_2 C 0.2075(6) 0.4695(10) 0.0943(4)
H36_2 H 0.1995 0.3926 0.0771
C47_2 C 0.1617(8) 0.5737(14) 0.0742(6)
H37_2 H 0.1245 0.5675 0.0435
C48_2 C 0.1735(9) 0.6856(14) 0.1014(7)
H38_2 H 0.1417 0.7535 0.0906
C49_2 C 0.2306(9) 0.6949(12) 0.1430(6)
H39_2 H 0.2426 0.7720 0.1600
C50_2 C 0.2712(6) 0.5884(9) 0.1600(4)
H40_2 H 0.3090 0.5942 0.1905
H41_2 H 0.417(4) 0.168(6) 0.1577(15)
H42_2 H 0.377(3) 0.109(5) 0.184(2)
Co6_2 Co 0.33486(5) 0.67417(9) 0.66298(4)
O19_2 O 0.3306(3) 0.3125(5) 0.09162(19)
O20_2 O 0.6694(3) 0.3125(5) 0.40838(19)
O5_2 O 0.5850(3) 0.8292(5) 0.9010(2)
O6_2 O 0.6694(3) 0.6875(5) 0.90838(19)
H7_2 H 0.7218 0.6024 0.9950
C12_2 C 0.6299(4) 0.7021(7) 0.9723(3)
C13_2 C 0.6289(5) 0.7447(8) 0.9239(3)
C14_2 C 0.5771(5) 0.7336(8) 0.9866(3)
H8_2 H 0.5416 0.7891 0.9671
Co7_2 Co 0.66514(5) 0.67417(9) 0.83702(4)
Co1_4 Co 0.0000 0.34073(12) 0.7500
O9_3 O 0.0402(3) 0.1947(4) 0.71925(18)
O10_3 O 0.1552(3) 0.1559(5) 0.76513(19)
O15_3 O 0.0810(3) 0.0446(5) 0.81836(19)
H23_3 H 0.0402 0.0846 0.8122
O16_3 O 0.0904(3) 0.3377(5) 0.81578(18)
N3_3 N 0.0503(4) 0.4863(6) 0.7220(2)
N4_3 N 0.2385(4) 0.0208(6) 0.8628(3)
C26_3 C 0.1006(4) 0.1494(7) 0.7257(3)
C27_3 C 0.1073(4) 0.0867(7) 0.6832(3)
C28_3 C 0.1704(4) 0.0308(6) 0.6871(3)
H24_3 H 0.2091 0.0352 0.7172
C32_3 C 0.0588(4) 0.0183(7) 0.5988(3)
H25_3 H 0.0203 0.0171 0.5686
C33_3 C 0.0512(4) 0.0771(7) 0.6376(3)
H26_3 H 0.0075 0.1116 0.6334
C41_2 C 0.0728(8) 0.5926(12) 0.7432(5)
H31_2 H 0.0656 0.6128 0.7714
C42_2 C 0.1111(10) 0.6875(16) 0.7240(7)
H32_2 H 0.1253 0.7679 0.7381
C43_2 C 0.1224(10) 0.6487(17) 0.6867(7)
H33_2 H 0.1480 0.7019 0.6747
C44_2 C 0.1010(12) 0.544(2) 0.6655(8)
H34_2 H 0.1069 0.5212 0.6370
C45_3 C 0.0685(8) 0.4645(14) 0.6865(6)
H35_3 H 0.0582 0.3827 0.6730
C46_3 C 0.2925(6) 0.0305(10) 0.9057(4)
H36_3 H 0.3005 0.1074 0.9229
H41_3 H 0.083(4) 0.332(6) 0.8423(15)
H42_3 H 0.123(3) 0.391(5) 0.816(2)
O17_2 O 0.2504(3) 0.2912(5) 0.85107(18)
O11_3 O 0.3022(3) 0.9825(5) 0.6728(2)
O12_2 O 0.2496(3) 0.7912(5) 0.64893(18)
O13_3 O 0.0850(3) 0.6708(5) 0.4010(2)
H22_3 H 0.0871 0.9888 0.8425
C29_3 C 0.1786(4) 0.9688(6) 0.6485(3)
C30_3 C 0.2492(4) 0.9104(7) 0.6575(3)
C31_3 C 0.1208(4) 0.9606(7) 0.6026(3)
C34_3 C 0.1255(4) 0.8986(7) 0.5589(3)
C35_3 C 0.1821(5) 0.9284(7) 0.5464(3)
H27_3 H 0.2184 0.9814 0.5665
C36_3 C 0.1840(5) 0.8778(8) 0.5033(3)
H28_3 H 0.2218 0.8976 0.4950
C37_3 C 0.1299(4) 0.7979(7) 0.4723(3)
C38_3 C 0.1289(5) 0.7553(8) 0.4239(3)
C39_3 C 0.0771(5) 0.7664(8) 0.4866(3)
H29_3 H 0.0416 0.7109 0.4671
C40_3 C 0.0741(4) 0.8145(8) 0.5299(3)
H30_3 H 0.0376 0.7899 0.5390
C47_3 C 0.3383(8) 0.9263(14) 0.9258(6)
H37_3 H 0.3755 0.9325 0.9565
C48_3 C 0.3265(9) 0.8144(14) 0.8986(7)
H38_3 H 0.3583 0.7465 0.9094
C49_3 C 0.2694(9) 0.8051(12) 0.8570(6)
H39_3 H 0.2574 0.7280 0.8400
C50_3 C 0.2288(6) 0.9116(9) 0.8400(4)
H40_3 H 0.1910 0.9058 0.8095
Co1_5 Co 1.0000 0.34073(12) 0.7500
O1_3 O 0.9598(3) 0.1947(4) 0.78075(18)
O2_3 O 0.8448(3) 0.1559(5) 0.73487(19)
O7_3 O 0.9190(3) 0.0446(5) 0.68164(19)
H2_3 H 0.9598 0.0846 0.6878
O8_3 O 0.9096(3) 0.3377(5) 0.68422(18)
N1_3 N 0.9497(4) 0.4863(6) 0.7780(2)
N2_3 N 0.7615(4) 0.0208(6) 0.6372(3)
C1_3 C 0.8994(4) 0.1494(7) 0.7743(3)
C2_3 C 0.8927(4) 0.0867(7) 0.8168(3)
C3_3 C 0.8296(4) 0.0308(6) 0.8129(3)
H3_3 H 0.7909 0.0352 0.7828
C7_3 C 0.9412(4) 0.0183(7) 0.9012(3)
H4_3 H 0.9797 0.0171 0.9314
C8_3 C 0.9488(4) 0.0771(7) 0.8624(3)
H5_3 H 0.9925 0.1116 0.8666
C16_2 C 0.9272(8) 0.5926(12) 0.7568(5)
H10_2 H 0.9344 0.6128 0.7286
C17_2 C 0.8889(10) 0.6875(16) 0.7760(7)
H11_2 H 0.8747 0.7679 0.7619
C18_2 C 0.8776(10) 0.6487(17) 0.8133(7)
H12_2 H 0.8520 0.7019 0.8253
C19_2 C 0.8990(12) 0.544(2) 0.8345(8)
H13_2 H 0.8931 0.5212 0.8630
C20_3 C 0.9315(8) 0.4645(14) 0.8135(6)
H14_3 H 0.9418 0.3827 0.8270
C21_3 C 0.7075(6) 0.0305(10) 0.5943(4)
H15_3 H 0.6995 0.1074 0.5771
H20_3 H 0.917(4) 0.332(6) 0.6577(15)
H21_3 H 0.877(3) 0.391(5) 0.684(2)
O18_2 O 0.7496(3) 0.2912(5) 0.64893(18)
O5_3 O 0.9150(3) 0.6708(5) 0.0990(2)
H7_3 H 0.7782 0.8976 0.0050
C12_3 C 0.8701(4) 0.7979(7) 0.0277(3)
C13_3 C 0.8711(5) 0.7553(8) 0.0761(3)
C14_3 C 0.9229(5) 0.7664(8) 0.0134(3)
H8_3 H 0.9584 0.7109 0.0329
O3_3 O 0.6978(3) 0.9825(5) 0.8272(2)
O4_2 O 0.7504(3) 0.7912(5) 0.85107(18)
H1_3 H 0.9129 0.9888 0.6575
C4_3 C 0.8214(4) 0.9688(6) 0.8515(3)
C5_3 C 0.7508(4) 0.9104(7) 0.8425(3)
C6_3 C 0.8792(4) 0.9606(7) 0.8974(3)
C9_3 C 0.8745(4) 0.8986(7) 0.9411(3)
C10_3 C 0.8179(5) 0.9284(7) 0.9536(3)
H6_3 H 0.7816 0.9814 0.9335
C11_3 C 0.8160(5) 0.8778(8) 0.9967(3)
C15_3 C 0.9259(4) 0.8145(8) 0.9701(3)
H9_3 H 0.9624 0.7899 0.9610
C22_3 C 0.6617(8) 0.9263(14) 0.5742(6)
H16_3 H 0.6245 0.9325 0.5435
C23_3 C 0.6735(9) 0.8144(14) 0.6014(7)
H17_3 H 0.6417 0.7465 0.5906
C24_3 C 0.7306(9) 0.8051(12) 0.6430(6)
H18_3 H 0.7426 0.7280 0.6600
C25_3 C 0.7712(6) 0.9116(9) 0.6600(4)
H19_3 H 0.8090 0.9058 0.6905
O5_4 O 0.4150(3) 0.1708(5) 0.0990(2)
H7_4 H 0.2782 0.3976 0.0050
C12_4 C 0.3701(4) 0.2979(7) 0.0277(3)
C13_4 C 0.3711(5) 0.2553(8) 0.0761(3)
C14_4 C 0.4229(5) 0.2664(8) 0.0134(3)
H8_4 H 0.4584 0.2109 0.0329
Co1_6 Co 0.5000 0.84073(12) 0.7500
O1_4 O 0.4598(3) 0.6947(4) 0.78075(18)
O2_4 O 0.3448(3) 0.6559(5) 0.73487(19)
O3_4 O 0.1978(3) 0.4825(5) 0.8272(2)
O7_4 O 0.4190(3) 0.5446(5) 0.68164(19)
H1_4 H 0.4129 0.4888 0.6575
H2_4 H 0.4598 0.5846 0.6878
O8_4 O 0.4096(3) 0.8377(5) 0.68422(18)
N1_4 N 0.4497(4) 0.9863(6) 0.7780(2)
N2_4 N 0.2615(4) 0.5208(6) 0.6372(3)
C1_4 C 0.3994(4) 0.6494(7) 0.7743(3)
C2_4 C 0.3927(4) 0.5867(7) 0.8168(3)
C3_4 C 0.3296(4) 0.5308(6) 0.8129(3)
H3_4 H 0.2909 0.5352 0.7828
C4_4 C 0.3214(4) 0.4688(6) 0.8515(3)
C5_4 C 0.2508(4) 0.4104(7) 0.8425(3)
C6_4 C 0.3792(4) 0.4606(7) 0.8974(3)
C7_4 C 0.4412(4) 0.5183(7) 0.9012(3)
H4_4 H 0.4797 0.5171 0.9314
C8_4 C 0.4488(4) 0.5771(7) 0.8624(3)
H5_4 H 0.4925 0.6116 0.8666
C9_4 C 0.3745(4) 0.3986(7) 0.9411(3)
C10_4 C 0.3179(5) 0.4284(7) 0.9536(3)
H6_4 H 0.2816 0.4814 0.9335
C11_4 C 0.3160(5) 0.3778(8) 0.9967(3)
C15_4 C 0.4259(4) 0.3145(8) 0.9701(3)
H9_4 H 0.4624 0.2899 0.9610
C20_4 C 0.4315(8) 0.9645(14) 0.8135(6)
H14_4 H 0.4418 0.8827 0.8270
C21_4 C 0.2075(6) 0.5305(10) 0.5943(4)
H15_4 H 0.1995 0.6074 0.5771
C22_4 C 0.1617(8) 0.4263(14) 0.5742(6)
H16_4 H 0.1245 0.4325 0.5435
C23_4 C 0.1735(9) 0.3144(14) 0.6014(7)
H17_4 H 0.1417 0.2465 0.5906
C24_4 C 0.2306(9) 0.3051(12) 0.6430(6)
H18_4 H 0.2426 0.2280 0.6600
C25_4 C 0.2712(6) 0.4116(9) 0.6600(4)
H19_4 H 0.3090 0.4058 0.6905
H20_4 H 0.417(4) 0.832(6) 0.6577(15)
H21_4 H 0.377(3) 0.891(5) 0.684(2)
O9_4 O 0.5402(3) 0.6947(4) 0.71925(18)
O10_4 O 0.6552(3) 0.6559(5) 0.76513(19)
O11_4 O 0.8022(3) 0.4825(5) 0.6728(2)
O13_4 O 0.5850(3) 0.1708(5) 0.4010(2)
O15_4 O 0.5810(3) 0.5446(5) 0.81836(19)
H22_4 H 0.5871 0.4888 0.8425
H23_4 H 0.5402 0.5846 0.8122
O16_4 O 0.5904(3) 0.8377(5) 0.81578(18)
N3_4 N 0.5503(4) 0.9863(6) 0.7220(2)
N4_4 N 0.7385(4) 0.5208(6) 0.8628(3)
C26_4 C 0.6006(4) 0.6494(7) 0.7257(3)
C27_4 C 0.6073(4) 0.5867(7) 0.6832(3)
C28_4 C 0.6704(4) 0.5308(6) 0.6871(3)
H24_4 H 0.7091 0.5352 0.7172
C29_4 C 0.6786(4) 0.4688(6) 0.6485(3)
C30_4 C 0.7492(4) 0.4104(7) 0.6575(3)
C31_4 C 0.6208(4) 0.4606(7) 0.6026(3)
C32_4 C 0.5588(4) 0.5183(7) 0.5988(3)
H25_4 H 0.5203 0.5171 0.5686
C33_4 C 0.5512(4) 0.5771(7) 0.6376(3)
H26_4 H 0.5075 0.6116 0.6334
C34_4 C 0.6255(4) 0.3986(7) 0.5589(3)
C35_4 C 0.6821(5) 0.4284(7) 0.5464(3)
H27_4 H 0.7184 0.4814 0.5665
C36_4 C 0.6840(5) 0.3778(8) 0.5033(3)
H28_4 H 0.7218 0.3976 0.4950
C37_4 C 0.6299(4) 0.2979(7) 0.4723(3)
C38_4 C 0.6289(5) 0.2553(8) 0.4239(3)
C39_4 C 0.5771(5) 0.2664(8) 0.4866(3)
H29_4 H 0.5416 0.2109 0.4671
C40_4 C 0.5741(4) 0.3145(8) 0.5299(3)
H30_4 H 0.5376 0.2899 0.5390
C45_4 C 0.5685(8) 0.9645(14) 0.6865(6)
H35_4 H 0.5582 0.8827 0.6730
C46_4 C 0.7925(6) 0.5305(10) 0.9057(4)
H36_4 H 0.8005 0.6074 0.9229
C47_4 C 0.8383(8) 0.4263(14) 0.9258(6)
H37_4 H 0.8755 0.4325 0.9565
C48_4 C 0.8265(9) 0.3144(14) 0.8986(7)
H38_4 H 0.8583 0.2465 0.9094
C49_4 C 0.7694(9) 0.3051(12) 0.8570(6)
H39_4 H 0.7574 0.2280 0.8400
C50_4 C 0.7288(6) 0.4116(9) 0.8400(4)
H40_4 H 0.6910 0.4058 0.8095
H41_4 H 0.583(4) 0.832(6) 0.8423(15)
H42_4 H 0.623(3) 0.891(5) 0.816(2)
C16_3 C 0.5728(8) 0.9074(12) 0.2432(5)
H10_3 H 0.5656 0.8872 0.2714
C17_3 C 0.6111(10) 0.8125(16) 0.2240(7)
H11_3 H 0.6253 0.7321 0.2381
C18_3 C 0.6224(10) 0.8513(17) 0.1867(7)
H12_3 H 0.6480 0.7981 0.1747
C19_3 C 0.6010(12) 0.956(2) 0.1655(8)
H13_3 H 0.6069 0.9788 0.1370
C41_3 C 0.4272(8) 0.9074(12) 0.2568(5)
H31_3 H 0.4344 0.8872 0.2286
C42_3 C 0.3889(10) 0.8125(16) 0.2760(7)
H32_3 H 0.3747 0.7321 0.2619
C43_3 C 0.3776(10) 0.8513(17) 0.3133(7)
H33_3 H 0.3520 0.7981 0.3253
C44_3 C 0.3990(12) 0.956(2) 0.3345(8)
H34_3 H 0.3931 0.9788 0.3630
C16_4 C 0.4272(8) 0.0926(12) 0.7568(5)
H10_4 H 0.4344 0.1128 0.7286
C17_4 C 0.3889(10) 0.1875(16) 0.7760(7)
H11_4 H 0.3747 0.2679 0.7619
C18_4 C 0.3776(10) 0.1487(17) 0.8133(7)
H12_4 H 0.3520 0.2019 0.8253
C19_4 C 0.3990(12) 0.044(2) 0.8345(8)
H13_4 H 0.3931 0.0212 0.8630
C41_4 C 0.5728(8) 0.0926(12) 0.7432(5)
H31_4 H 0.5656 0.1128 0.7714
C42_4 C 0.6111(10) 0.1875(16) 0.7240(7)
H32_4 H 0.6253 0.2679 0.7381
C43_4 C 0.6224(10) 0.1487(17) 0.6867(7)
H33_4 H 0.6480 0.2019 0.6747
C44_4 C 0.6010(12) 0.044(2) 0.6655(8)
H34_4 H 0.6069 0.0212 0.6370
loop_
_geom_bond_atom_site_label_1
_geom_bond_atom_site_label_2
_geom_bond_site_symmetry_1
_geom_bond_site_symmetry_2
O3 C5 1_555 1_555
O4 C5 1_555 1_555
C5 C4 1_555 1_555
C6 C4 1_555 1_555
C9 C6 1_555 1_555
C10 C9 1_555 1_555
H6 C10 1_555 1_555
C11 C10 1_555 1_555
C15 C9 1_555 1_555
H9 C15 1_555 1_555
H16 C22 1_555 1_555
C23 C22 1_555 1_555
H17 C23 1_555 1_555
C24 C23 1_555 1_555
H18 C24 1_555 1_555
H19 C25 1_555 1_555
Co5 O4 1_555 1_555
C24 C25 1_555 1_555
O5 C13 1_555 1_555
O6 C13 1_555 1_555
C13 C12 1_555 1_555
C14 C12 1_555 1_555
H8 C14 1_555 1_555
Co7 O6 1_555 1_555
Co1 O1 1_555 1_555
Co2 O2 1_555 1_555
O1 C1 1_555 1_555
O2 C1 1_555 1_555
O7 Co2 1_555 1_555
H2 O7 1_555 1_555
O8 Co1 1_555 1_555
N1 Co1 1_555 1_555
N2 Co2 1_555 1_555
C1 C2 1_555 1_555
C2 C3 1_555 1_555
C3 H3 1_555 1_555
H4 C7 1_555 1_555
C8 C2 1_555 1_555
H5 C8 1_555 1_555
C16 N1 1_555 1_555
H10 C16 1_555 1_555
C17 C16 1_555 1_555
H11 C17 1_555 1_555
C18 C17 1_555 1_555
H12 C18 1_555 1_555
C19 C18 1_555 1_555
H13 C19 1_555 1_555
C20 N1 1_555 1_555
H14 C20 1_555 1_555
C21 N2 1_555 1_555
H15 C21 1_555 1_555
H20 O8 1_555 1_555
H21 O8 1_555 1_555
O18 Co2 1_555 1_555
O20 Co2 1_555 1_555
Co2 O8 1_555 1_555
C7 C8 1_555 1_555
C19 C20 1_555 1_555
O11 C30 1_555 1_555
O12 C30 1_555 1_555
O13 C38 1_555 1_555
O14 C38 1_555 1_555
C30 C29 1_555 1_555
C31 C29 1_555 1_555
C34 C31 1_555 1_555
C35 C34 1_555 1_555
H27 C35 1_555 1_555
C36 C35 1_555 1_555
H28 C36 1_555 1_555
C37 C36 1_555 1_555
C38 C37 1_555 1_555
C39 C37 1_555 1_555
H29 C39 1_555 1_555
C40 C34 1_555 1_555
H30 C40 1_555 1_555
H37 C47 1_555 1_555
C48 C47 1_555 1_555
H38 C48 1_555 1_555
C49 C48 1_555 1_555
H39 C49 1_555 1_555
H40 C50 1_555 1_555
Co4 O12 1_555 1_555
Co6 O14 1_555 1_555
C39 C40 1_555 1_555
C49 C50 1_555 1_555
Co3 O10 1_555 1_555
O9 Co1_2 1_555 1_555
O10 C26 1_555 1_555
O15 Co3 1_555 1_555
H23 O15 1_555 1_555
O16 Co1_2 1_555 1_555
N3 Co1_2 1_555 1_555
N4 Co3 1_555 1_555
C26 O9 1_555 1_555
C27 C26 1_555 1_555
C28 C27 1_555 1_555
H24 C28 1_555 1_555
H25 C32 1_555 1_555
C33 C27 1_555 1_555
H26 C33 1_555 1_555
C41 N3 1_555 1_555
H31 C41 1_555 1_555
C42 C41 1_555 1_555
H32 C42 1_555 1_555
C43 C42 1_555 1_555
H33 C43 1_555 1_555
C44 C43 1_555 1_555
H34 C44 1_555 1_555
C45 N3 1_555 1_555
H35 C45 1_555 1_555
C46 N4 1_555 1_555
H36 C46 1_555 1_555
H41 O16 1_555 1_555
H42 O16 1_555 1_555
O17 Co3 1_555 1_555
O19 Co3 1_555 1_555
Co3 O16 1_555 1_555
C32 C33 1_555 1_555
C44 C45 1_555 1_555
Co1_3 O1_2 1_555 1_555
Co4 O2_2 1_555 1_555
O1_2 C1_2 1_555 1_555
O2_2 C1_2 1_555 1_555
O3_2 C5_2 1_555 1_555
O17 C5_2 1_555 1_555
O7_2 Co4 1_555 1_555
H1_2 O7_2 1_555 1_555
H2_2 O7_2 1_555 1_555
O8_2 Co1_3 1_555 1_555
N1_2 Co1_3 1_555 1_555
N2_2 Co4 1_555 1_555
C1_2 C2_2 1_555 1_555
C2_2 C3_2 1_555 1_555
C3_2 H3_2 1_555 1_555
C4_2 C3_2 1_555 1_555
C5_2 C4_2 1_555 1_555
C6_2 C4_2 1_555 1_555
C7_2 C6_2 1_555 1_555
H4_2 C7_2 1_555 1_555
C8_2 C2_2 1_555 1_555
H5_2 C8_2 1_555 1_555
C9_2 C6_2 1_555 1_555
C10_2 C9_2 1_555 1_555
H6_2 C10_2 1_555 1_555
C11_2 C10_2 1_555 1_555
C15_2 C9_2 1_555 1_555
H9_2 C15_2 1_555 1_555
C20_2 N1_2 1_555 1_555
H14_2 C20_2 1_555 1_555
C21_2 N2_2 1_555 1_555
H15_2 C21_2 1_555 1_555
C22_2 C21_2 1_555 1_555
H16_2 C22_2 1_555 1_555
C23_2 C22_2 1_555 1_555
H17_2 C23_2 1_555 1_555
C24_2 C23_2 1_555 1_555
H18_2 C24_2 1_555 1_555
C25_2 N2_2 1_555 1_555
H19_2 C25_2 1_555 1_555
H20_2 O8_2 1_555 1_555
H21_2 O8_2 1_555 1_555
Co5 O10_2 1_555 1_555
O9_2 Co1_3 1_555 1_555
O10_2 C26_2 1_555 1_555
O11_2 C30_2 1_555 1_555
O18 C30_2 1_555 1_555
O13_2 C38_2 1_555 1_555
O14_2 C38_2 1_555 1_555
O15_2 Co5 1_555 1_555
H22_2 O15_2 1_555 1_555
H23_2 O15_2 1_555 1_555
O16_2 Co1_3 1_555 1_555
N3_2 Co1_3 1_555 1_555
N4_2 Co5 1_555 1_555
C26_2 O9_2 1_555 1_555
C27_2 C26_2 1_555 1_555
C28_2 C27_2 1_555 1_555
H24_2 C28_2 1_555 1_555
C29_2 C28_2 1_555 1_555
C30_2 C29_2 1_555 1_555
C31_2 C29_2 1_555 1_555
C32_2 C31_2 1_555 1_555
H25_2 C32_2 1_555 1_555
C33_2 C27_2 1_555 1_555
H26_2 C33_2 1_555 1_555
C34_2 C31_2 1_555 1_555
C35_2 C34_2 1_555 1_555
H27_2 C35_2 1_555 1_555
C36_2 C35_2 1_555 1_555
H28_2 C36_2 1_555 1_555
C37_2 C36_2 1_555 1_555
C38_2 C37_2 1_555 1_555
C39_2 C37_2 1_555 1_555
H29_2 C39_2 1_555 1_555
C40_2 C34_2 1_555 1_555
H30_2 C40_2 1_555 1_555
C45_2 N3_2 1_555 1_555
H35_2 C45_2 1_555 1_555
C46_2 N4_2 1_555 1_555
H36_2 C46_2 1_555 1_555
C47_2 C46_2 1_555 1_555
H37_2 C47_2 1_555 1_555
C48_2 C47_2 1_555 1_555
H38_2 C48_2 1_555 1_555
C49_2 C48_2 1_555 1_555
H39_2 C49_2 1_555 1_555
C50_2 N4_2 1_555 1_555
H40_2 C50_2 1_555 1_555
H41_2 O16_2 1_555 1_555
H42_2 O16_2 1_555 1_555
Co6_2 O14_2 1_555 1_555
O19_2 Co5 1_555 1_555
O20_2 Co4 1_555 1_555
Co4 O8_2 1_555 1_555
C7_2 C8_2 1_555 1_555
C24_2 C25_2 1_555 1_555
Co5 O16_2 1_555 1_555
C32_2 C33_2 1_555 1_555
C39_2 C40_2 1_555 1_555
C49_2 C50_2 1_555 1_555
O5_2 C13_2 1_555 1_555
O6_2 C13_2 1_555 1_555
C13_2 C12_2 1_555 1_555
C14_2 C12_2 1_555 1_555
H8_2 C14_2 1_555 1_555
Co7_2 O6_2 1_555 1_555
Co7 O10_3 1_555 1_555
O9_3 Co1_4 1_555 1_555
O10_3 C26_3 1_555 1_555
O15_3 Co7 1_555 1_555
H23_3 O15_3 1_555 1_555
O16_3 Co1_4 1_555 1_555
N3_3 Co1_4 1_555 1_555
N4_3 Co7 1_555 1_555
C26_3 O9_3 1_555 1_555
C27_3 C26_3 1_555 1_555
C28_3 C27_3 1_555 1_555
H24_3 C28_3 1_555 1_555
H25_3 C32_3 1_555 1_555
C33_3 C27_3 1_555 1_555
H26_3 C33_3 1_555 1_555
C41_2 N3_3 1_555 1_555
H31_2 C41_2 1_555 1_555
C42_2 C41_2 1_555 1_555
H32_2 C42_2 1_555 1_555
C43_2 C42_2 1_555 1_555
H33_2 C43_2 1_555 1_555
C44_2 C43_2 1_555 1_555
H34_2 C44_2 1_555 1_555
C45_3 N3_3 1_555 1_555
H35_3 C45_3 1_555 1_555
C46_3 N4_3 1_555 1_555
H36_3 C46_3 1_555 1_555
H41_3 O16_3 1_555 1_555
H42_3 O16_3 1_555 1_555
O17_2 Co7 1_555 1_555
Co7 O16_3 1_555 1_555
C32_3 C33_3 1_555 1_555
C44_2 C45_3 1_555 1_555
O11_3 C30_3 1_555 1_555
O12_2 C30_3 1_555 1_555
O13_3 C38_3 1_555 1_555
O20 C38_3 1_555 1_555
C30_3 C29_3 1_555 1_555
C31_3 C29_3 1_555 1_555
C34_3 C31_3 1_555 1_555
C35_3 C34_3 1_555 1_555
H27_3 C35_3 1_555 1_555
C36_3 C35_3 1_555 1_555
H28_3 C36_3 1_555 1_555
C37_3 C36_3 1_555 1_555
C38_3 C37_3 1_555 1_555
C39_3 C37_3 1_555 1_555
H29_3 C39_3 1_555 1_555
C40_3 C34_3 1_555 1_555
H30_3 C40_3 1_555 1_555
H37_3 C47_3 1_555 1_555
C48_3 C47_3 1_555 1_555
H38_3 C48_3 1_555 1_555
C49_3 C48_3 1_555 1_555
H39_3 C49_3 1_555 1_555
H40_3 C50_3 1_555 1_555
Co6_2 O12_2 1_555 1_555
C39_3 C40_3 1_555 1_555
C49_3 C50_3 1_555 1_555
Co1_5 O1_3 1_555 1_555
Co6 O2_3 1_555 1_555
O1_3 C1_3 1_555 1_555
O2_3 C1_3 1_555 1_555
O7_3 Co6 1_555 1_555
H2_3 O7_3 1_555 1_555
O8_3 Co1_5 1_555 1_555
N1_3 Co1_5 1_555 1_555
N2_3 Co6 1_555 1_555
C1_3 C2_3 1_555 1_555
C2_3 C3_3 1_555 1_555
C3_3 H3_3 1_555 1_555
H4_3 C7_3 1_555 1_555
C8_3 C2_3 1_555 1_555
H5_3 C8_3 1_555 1_555
C16_2 N1_3 1_555 1_555
H10_2 C16_2 1_555 1_555
C17_2 C16_2 1_555 1_555
H11_2 C17_2 1_555 1_555
C18_2 C17_2 1_555 1_555
H12_2 C18_2 1_555 1_555
C19_2 C18_2 1_555 1_555
H13_2 C19_2 1_555 1_555
C20_3 N1_3 1_555 1_555
H14_3 C20_3 1_555 1_555
C21_3 N2_3 1_555 1_555
H15_3 C21_3 1_555 1_555
H20_3 O8_3 1_555 1_555
H21_3 O8_3 1_555 1_555
O18_2 Co6 1_555 1_555
Co6 O8_3 1_555 1_555
C7_3 C8_3 1_555 1_555
C19_2 C20_3 1_555 1_555
O5_3 C13_3 1_555 1_555
O19 C13_3 1_555 1_555
C13_3 C12_3 1_555 1_555
C14_3 C12_3 1_555 1_555
H8_3 C14_3 1_555 1_555
O3_3 C5_3 1_555 1_555
O4_2 C5_3 1_555 1_555
C5_3 C4_3 1_555 1_555
C6_3 C4_3 1_555 1_555
C9_3 C6_3 1_555 1_555
C10_3 C9_3 1_555 1_555
H6_3 C10_3 1_555 1_555
C11_3 C10_3 1_555 1_555
C15_3 C9_3 1_555 1_555
H9_3 C15_3 1_555 1_555
H16_3 C22_3 1_555 1_555
C23_3 C22_3 1_555 1_555
H17_3 C23_3 1_555 1_555
C24_3 C23_3 1_555 1_555
H18_3 C24_3 1_555 1_555
H19_3 C25_3 1_555 1_555
Co7_2 O4_2 1_555 1_555
C24_3 C25_3 1_555 1_555
O5_4 C13_4 1_555 1_555
O19_2 C13_4 1_555 1_555
C13_4 C12_4 1_555 1_555
C14_4 C12_4 1_555 1_555
H8_4 C14_4 1_555 1_555
Co1_6 O1_4 1_555 1_555
Co6_2 O2_4 1_555 1_555
O1_4 C1_4 1_555 1_555
O2_4 C1_4 1_555 1_555
O3_4 C5_4 1_555 1_555
O17_2 C5_4 1_555 1_555
O7_4 Co6_2 1_555 1_555
H1_4 O7_4 1_555 1_555
H2_4 O7_4 1_555 1_555
O8_4 Co1_6 1_555 1_555
N1_4 Co1_6 1_555 1_555
N2_4 Co6_2 1_555 1_555
C1_4 C2_4 1_555 1_555
C2_4 C3_4 1_555 1_555
C3_4 H3_4 1_555 1_555
C4_4 C3_4 1_555 1_555
C5_4 C4_4 1_555 1_555
C6_4 C4_4 1_555 1_555
C7_4 C6_4 1_555 1_555
H4_4 C7_4 1_555 1_555
C8_4 C2_4 1_555 1_555
H5_4 C8_4 1_555 1_555
C9_4 C6_4 1_555 1_555
C10_4 C9_4 1_555 1_555
H6_4 C10_4 1_555 1_555
C11_4 C10_4 1_555 1_555
C15_4 C9_4 1_555 1_555
H9_4 C15_4 1_555 1_555
C20_4 N1_4 1_555 1_555
H14_4 C20_4 1_555 1_555
C21_4 N2_4 1_555 1_555
H15_4 C21_4 1_555 1_555
C22_4 C21_4 1_555 1_555
H16_4 C22_4 1_555 1_555
C23_4 C22_4 1_555 1_555
H17_4 C23_4 1_555 1_555
C24_4 C23_4 1_555 1_555
H18_4 C24_4 1_555 1_555
C25_4 N2_4 1_555 1_555
H19_4 C25_4 1_555 1_555
H20_4 O8_4 1_555 1_555
H21_4 O8_4 1_555 1_555
Co7_2 O10_4 1_555 1_555
O9_4 Co1_6 1_555 1_555
O10_4 C26_4 1_555 1_555
O11_4 C30_4 1_555 1_555
O18_2 C30_4 1_555 1_555
O13_4 C38_4 1_555 1_555
O20_2 C38_4 1_555 1_555
O15_4 Co7_2 1_555 1_555
H22_4 O15_4 1_555 1_555
H23_4 O15_4 1_555 1_555
O16_4 Co1_6 1_555 1_555
N3_4 Co1_6 1_555 1_555
N4_4 Co7_2 1_555 1_555
C26_4 O9_4 1_555 1_555
C27_4 C26_4 1_555 1_555
C28_4 C27_4 1_555 1_555
H24_4 C28_4 1_555 1_555
C29_4 C28_4 1_555 1_555
C30_4 C29_4 1_555 1_555
C31_4 C29_4 1_555 1_555
C32_4 C31_4 1_555 1_555
H25_4 C32_4 1_555 1_555
C33_4 C27_4 1_555 1_555
H26_4 C33_4 1_555 1_555
C34_4 C31_4 1_555 1_555
C35_4 C34_4 1_555 1_555
H27_4 C35_4 1_555 1_555
C36_4 C35_4 1_555 1_555
H28_4 C36_4 1_555 1_555
C37_4 C36_4 1_555 1_555
C38_4 C37_4 1_555 1_555
C39_4 C37_4 1_555 1_555
H29_4 C39_4 1_555 1_555
C40_4 C34_4 1_555 1_555
H30_4 C40_4 1_555 1_555
C45_4 N3_4 1_555 1_555
H35_4 C45_4 1_555 1_555
C46_4 N4_4 1_555 1_555
H36_4 C46_4 1_555 1_555
C47_4 C46_4 1_555 1_555
H37_4 C47_4 1_555 1_555
C48_4 C47_4 1_555 1_555
H38_4 C48_4 1_555 1_555
C49_4 C48_4 1_555 1_555
H39_4 C49_4 1_555 1_555
C50_4 N4_4 1_555 1_555
H40_4 C50_4 1_555 1_555
H41_4 O16_4 1_555 1_555
H42_4 O16_4 1_555 1_555
Co6_2 O8_4 1_555 1_555
C7_4 C8_4 1_555 1_555
C24_4 C25_4 1_555 1_555
Co7_2 O16_4 1_555 1_555
C32_4 C33_4 1_555 1_555
C39_4 C40_4 1_555 1_555
C49_4 C50_4 1_555 1_555
H10_3 C16_3 1_555 1_555
C17_3 C16_3 1_555 1_555
H11_3 C17_3 1_555 1_555
C18_3 C17_3 1_555 1_555
H12_3 C18_3 1_555 1_555
C19_3 C18_3 1_555 1_555
H13_3 C19_3 1_555 1_555
H31_3 C41_3 1_555 1_555
C42_3 C41_3 1_555 1_555
H32_3 C42_3 1_555 1_555
C43_3 C42_3 1_555 1_555
H33_3 C43_3 1_555 1_555
C44_3 C43_3 1_555 1_555
H34_3 C44_3 1_555 1_555
H10_4 C16_4 1_555 1_555
C17_4 C16_4 1_555 1_555
H11_4 C17_4 1_555 1_555
C18_4 C17_4 1_555 1_555
H12_4 C18_4 1_555 1_555
C19_4 C18_4 1_555 1_555
H13_4 C19_4 1_555 1_555
H31_4 C41_4 1_555 1_555
C42_4 C41_4 1_555 1_555
H32_4 C42_4 1_555 1_555
C43_4 C42_4 1_555 1_555
H33_4 C43_4 1_555 1_555
C44_4 C43_4 1_555 1_555
H34_4 C44_4 1_555 1_555

#END
