
###############################################################################
#
# This file contains modified crystal structure data generated from the
# MOF subset of the Cambridge Structural Database (CSD) v543 
# hosted by the Cambridge Crystallographic Data Centre (CCDC).
#
# This work is licensed under the Creative Commons
# Attribution-NonCommercial-ShareAlike 4.0 International License.
# To view a copy of this license, visit
# http://creativecommons.org/licenses/by-nc-sa/4.0/
# or send a letter to
# Creative Commons, PO Box 1866, Mountain View, CA 94042, USA.
#
# CIF created using the CSD Python API on 29 September 2022
# The structure has been converted into the P1 space group
# The structure has a 3D framework
# The original CSD entry FAHQIQ is in the orthorhombic crystal system
# The framework has been calculated to contain at least 10.0% void space
# The void calculation uses a probe of radius 1.32A, grid spacing 0.4
# The framework is charged, counterions have been retained in the structure
#
###############################################################################

data_FAHQIQ
_chemical_formula_moiety         '(C960 H768 In28 N32 O256)n'
_symmetry_cell_setting           triclinic
_symmetry_space_group_name_H-M   'P 1'
_symmetry_Int_Tables_number      1
_space_group_name_Hall           'P 1'
loop_
_symmetry_equiv_pos_site_id
_symmetry_equiv_pos_as_xyz
1 x,y,z
_cell_length_a                   23.129(5)
_cell_length_b                   39.470(8)
_cell_length_c                   40.610(8)
_cell_angle_alpha                90
_cell_angle_beta                 90
_cell_angle_gamma                90
_cell_volume                     37072.9
loop_
_atom_site_label
_atom_site_type_symbol
_atom_site_fract_x
_atom_site_fract_y
_atom_site_fract_z
O3 O 0.13825(13) 0.45873(7) 0.58373(7)
O4 O 0.05225(13) 0.47103(6) 0.60078(6)
C1 C 0.0017(2) 0.32227(14) 0.44189(14)
H1 H 0.0254 0.3124 0.4261
C2 C 0.0243(3) 0.34400(13) 0.46505(13)
H2 H 0.0642 0.3471 0.4649
C7 C 0.0939(2) 0.41897(12) 0.53203(12)
H5 H 0.1323 0.4258 0.5301
C8 C 0.0710(2) 0.39655(11) 0.50912(12)
H6 H 0.0939 0.3890 0.4918
C9 C 0.0152(2) 0.38545(10) 0.51183(10)
C11 C 0.0044(2) 0.42116(10) 0.56013(10)
C12 C 0.0604(2) 0.43134(9) 0.55774(10)
C14 C 0.0844(2) 0.45553(9) 0.58232(9)
In2 In 0.1250 0.498659(8) 0.6250
In1 In 0.8750 0.248659(8) 0.3750
O1 O 0.94754(15) 0.27871(7) 0.39685(7)
O2 O 0.86686(16) 0.28670(8) 0.41831(8)
C3 C 0.99350(18) 0.36133(9) 0.48809(10)
C4 C 0.9375(2) 0.35117(13) 0.48942(13)
H3 H 0.9140 0.3602 0.5058
C5 C 0.9137(3) 0.32807(13) 0.46772(12)
H4 H 0.8756 0.3211 0.4708
C6 C 0.9440(2) 0.31548(10) 0.44236(10)
C10 C 0.9829(2) 0.39745(9) 0.53715(10)
H7 H 0.9451 0.3897 0.5395
H8 H 0.9806 0.4297 0.5766
C13 C 0.9179(2) 0.29217(9) 0.41779(10)
In3 In 0.6250 0.498659(8) 0.1250
O5 O 0.80246(15) 0.27871(7) 0.35315(7)
O6 O 0.88314(16) 0.28670(8) 0.33169(8)
O7 O 0.61175(13) 0.45873(7) 0.16627(7)
O8 O 0.86175(13) 0.20873(7) 0.33373(7)
O9 O 0.88825(13) 0.20873(7) 0.41627(7)
O10 O 0.69775(13) 0.47103(6) 0.14922(6)
O11 O 0.94775(13) 0.22103(6) 0.35078(6)
O12 O 0.80225(13) 0.22103(6) 0.39922(6)
C15 C 0.7483(2) 0.32227(14) 0.30811(14)
H9 H 0.7246 0.3124 0.3239
C16 C 0.7257(3) 0.34400(13) 0.28495(13)
H10 H 0.6858 0.3471 0.2851
C17 C 0.75650(18) 0.36133(9) 0.26191(10)
C18 C 0.8125(2) 0.35117(13) 0.26058(13)
H11 H 0.8360 0.3602 0.2442
C19 C 0.8363(3) 0.32807(13) 0.28228(12)
H12 H 0.8744 0.3211 0.2792
C20 C 0.8060(2) 0.31548(10) 0.30764(10)
C21 C 0.6561(2) 0.41897(12) 0.21797(12)
H13 H 0.6177 0.4258 0.2199
C22 C 0.6790(2) 0.39655(11) 0.24088(12)
H14 H 0.6561 0.3890 0.2582
C23 C 0.7348(2) 0.38545(10) 0.23817(10)
C24 C 0.7671(2) 0.39745(9) 0.21285(10)
H15 H 0.8049 0.3897 0.2105
C25 C 0.7456(2) 0.42116(10) 0.18987(10)
H16 H 0.7694 0.4297 0.1734
C26 C 0.6896(2) 0.43134(9) 0.19226(10)
C27 C 0.8321(2) 0.29217(9) 0.33221(10)
C28 C 0.6656(2) 0.45553(9) 0.16768(9)
O3_2 O 0.13825(13) 0.95873(7) 0.08373(7)
O4_2 O 0.05225(13) 0.97103(6) 0.10078(6)
C7_2 C 0.0939(2) 0.91897(12) 0.03203(12)
H5_2 H 0.1323 0.9258 0.0301
C8_2 C 0.0710(2) 0.89655(11) 0.00912(12)
C9_2 C 0.0152(2) 0.88545(10) 0.01183(10)
C11_2 C 0.0044(2) 0.92116(10) 0.06013(10)
C12_2 C 0.0604(2) 0.93134(9) 0.05774(10)
C14_2 C 0.0844(2) 0.95553(9) 0.08232(9)
In2_2 In 0.1250 0.998659(8) 0.1250
In1_2 In 0.8750 0.748659(8) 0.8750
O1_2 O 0.94754(15) 0.77871(7) 0.89685(7)
O2_2 O 0.86686(16) 0.78670(8) 0.91831(8)
C3_2 C 0.99350(18) 0.86133(9) 0.98809(10)
C4_2 C 0.9375(2) 0.85117(13) 0.98942(13)
C5_2 C 0.9137(3) 0.82807(13) 0.96772(12)
H4_2 H 0.8756 0.8211 0.9708
C6_2 C 0.9440(2) 0.81548(10) 0.94236(10)
C13_2 C 0.9179(2) 0.79217(9) 0.91779(10)
In3_2 In 0.6250 0.998659(8) 0.6250
O5_2 O 0.80246(15) 0.77871(7) 0.85315(7)
O6_2 O 0.88314(16) 0.78670(8) 0.83169(8)
O7_2 O 0.61175(13) 0.95873(7) 0.66627(7)
O8_2 O 0.86175(13) 0.70873(7) 0.83373(7)
O9_2 O 0.88825(13) 0.70873(7) 0.91627(7)
O10_2 O 0.69775(13) 0.97103(6) 0.64922(6)
O11_2 O 0.94775(13) 0.72103(6) 0.85078(6)
O12_2 O 0.80225(13) 0.72103(6) 0.89922(6)
C15_2 C 0.7483(2) 0.82227(14) 0.80811(14)
H9_2 H 0.7246 0.8124 0.8239
C16_2 C 0.7257(3) 0.84400(13) 0.78495(13)
H10_2 H 0.6858 0.8471 0.7851
C17_2 C 0.75650(18) 0.86133(9) 0.76191(10)
C18_2 C 0.8125(2) 0.85117(13) 0.76058(13)
H11_2 H 0.8360 0.8602 0.7442
C19_2 C 0.8363(3) 0.82807(13) 0.78228(12)
H12_2 H 0.8744 0.8211 0.7792
C20_2 C 0.8060(2) 0.81548(10) 0.80764(10)
C21_2 C 0.6561(2) 0.91897(12) 0.71797(12)
H13_2 H 0.6177 0.9258 0.7199
C22_2 C 0.6790(2) 0.89655(11) 0.74088(12)
H14_2 H 0.6561 0.8890 0.7582
C23_2 C 0.7348(2) 0.88545(10) 0.73817(10)
C24_2 C 0.7671(2) 0.89745(9) 0.71285(10)
H15_2 H 0.8049 0.8897 0.7105
C25_2 C 0.7456(2) 0.92116(10) 0.68987(10)
H16_2 H 0.7694 0.9297 0.6734
C26_2 C 0.6896(2) 0.93134(9) 0.69226(10)
C27_2 C 0.8321(2) 0.79217(9) 0.83221(10)
C28_2 C 0.6656(2) 0.95553(9) 0.66768(9)
O3_3 O 0.63825(13) 0.45873(7) 0.08373(7)
O4_3 O 0.55225(13) 0.47103(6) 0.10078(6)
H3_2 H 0.4140 0.3602 0.0058
C7_3 C 0.5939(2) 0.41897(12) 0.03203(12)
H5_3 H 0.6323 0.4258 0.0301
C8_3 C 0.5710(2) 0.39655(11) 0.00912(12)
C9_3 C 0.5152(2) 0.38545(10) 0.01183(10)
C10_2 C 0.4829(2) 0.39745(9) 0.03715(10)
H7_2 H 0.4451 0.3897 0.0395
C11_3 C 0.5044(2) 0.42116(10) 0.06013(10)
H8_2 H 0.4806 0.4297 0.0766
C12_3 C 0.5604(2) 0.43134(9) 0.05774(10)
C14_3 C 0.5844(2) 0.45553(9) 0.08232(9)
In1_3 In 0.3750 0.248659(8) 0.8750
O1_3 O 0.44754(15) 0.27871(7) 0.89685(7)
O2_3 O 0.36686(16) 0.28670(8) 0.91831(8)
C1_2 C 0.5017(2) 0.32227(14) 0.94189(14)
H1_2 H 0.5254 0.3124 0.9261
C2_2 C 0.5243(3) 0.34400(13) 0.96505(13)
H2_2 H 0.5642 0.3471 0.9649
C3_3 C 0.49350(18) 0.36133(9) 0.98809(10)
C4_3 C 0.4375(2) 0.35117(13) 0.98942(13)
C5_3 C 0.4137(3) 0.32807(13) 0.96772(12)
H4_3 H 0.3756 0.3211 0.9708
C6_3 C 0.4440(2) 0.31548(10) 0.94236(10)
H6_2 H 0.5939 0.3890 0.9918
C13_3 C 0.4179(2) 0.29217(9) 0.91779(10)
O5_3 O 0.30246(15) 0.27871(7) 0.85315(7)
O6_3 O 0.38314(16) 0.28670(8) 0.83169(8)
O7_3 O 0.11175(13) 0.45873(7) 0.66627(7)
O8_3 O 0.36175(13) 0.20873(7) 0.83373(7)
O9_3 O 0.38825(13) 0.20873(7) 0.91627(7)
O10_3 O 0.19775(13) 0.47103(6) 0.64922(6)
O11_3 O 0.44775(13) 0.22103(6) 0.85078(6)
O12_3 O 0.30225(13) 0.22103(6) 0.89922(6)
C15_3 C 0.2483(2) 0.32227(14) 0.80811(14)
H9_3 H 0.2246 0.3124 0.8239
C16_3 C 0.2257(3) 0.34400(13) 0.78495(13)
H10_3 H 0.1858 0.3471 0.7851
C17_3 C 0.25650(18) 0.36133(9) 0.76191(10)
C18_3 C 0.3125(2) 0.35117(13) 0.76058(13)
H11_3 H 0.3360 0.3602 0.7442
C19_3 C 0.3363(3) 0.32807(13) 0.78228(12)
H12_3 H 0.3744 0.3211 0.7792
C20_3 C 0.3060(2) 0.31548(10) 0.80764(10)
C21_3 C 0.1561(2) 0.41897(12) 0.71797(12)
H13_3 H 0.1177 0.4258 0.7199
C22_3 C 0.1790(2) 0.39655(11) 0.74088(12)
H14_3 H 0.1561 0.3890 0.7582
C23_3 C 0.2348(2) 0.38545(10) 0.73817(10)
C24_3 C 0.2671(2) 0.39745(9) 0.71285(10)
H15_3 H 0.3049 0.3897 0.7105
C25_3 C 0.2456(2) 0.42116(10) 0.68987(10)
H16_3 H 0.2694 0.4297 0.6734
C26_3 C 0.1896(2) 0.43134(9) 0.69226(10)
C27_3 C 0.3321(2) 0.29217(9) 0.83221(10)
C28_3 C 0.1656(2) 0.45553(9) 0.66768(9)
In1_4 In 0.3750 0.748659(8) 0.3750
O1_4 O 0.44754(15) 0.77871(7) 0.39685(7)
O2_4 O 0.36686(16) 0.78670(8) 0.41831(8)
O3_4 O 0.63825(13) 0.95873(7) 0.58373(7)
O4_4 O 0.55225(13) 0.97103(6) 0.60078(6)
C1_3 C 0.5017(2) 0.82227(14) 0.44189(14)
H1_3 H 0.5254 0.8124 0.4261
C2_3 C 0.5243(3) 0.84400(13) 0.46505(13)
H2_3 H 0.5642 0.8471 0.4649
C3_4 C 0.49350(18) 0.86133(9) 0.48809(10)
C4_4 C 0.4375(2) 0.85117(13) 0.48942(13)
H3_3 H 0.4140 0.8602 0.5058
C5_4 C 0.4137(3) 0.82807(13) 0.46772(12)
H4_4 H 0.3756 0.8211 0.4708
C6_4 C 0.4440(2) 0.81548(10) 0.44236(10)
C7_4 C 0.5939(2) 0.91897(12) 0.53203(12)
H5_4 H 0.6323 0.9258 0.5301
C8_4 C 0.5710(2) 0.89655(11) 0.50912(12)
H6_3 H 0.5939 0.8890 0.4918
C9_4 C 0.5152(2) 0.88545(10) 0.51183(10)
C10_3 C 0.4829(2) 0.89745(9) 0.53715(10)
H7_3 H 0.4451 0.8897 0.5395
C11_4 C 0.5044(2) 0.92116(10) 0.56013(10)
H8_3 H 0.4806 0.9297 0.5766
C12_4 C 0.5604(2) 0.93134(9) 0.55774(10)
C13_4 C 0.4179(2) 0.79217(9) 0.41779(10)
C14_4 C 0.5844(2) 0.95553(9) 0.58232(9)
O5_4 O 0.30246(15) 0.77871(7) 0.35315(7)
O6_4 O 0.38314(16) 0.78670(8) 0.33169(8)
O7_4 O 0.11175(13) 0.95873(7) 0.16627(7)
O8_4 O 0.36175(13) 0.70873(7) 0.33373(7)
O9_4 O 0.38825(13) 0.70873(7) 0.41627(7)
O10_4 O 0.19775(13) 0.97103(6) 0.14922(6)
O11_4 O 0.44775(13) 0.72103(6) 0.35078(6)
O12_4 O 0.30225(13) 0.72103(6) 0.39922(6)
C15_4 C 0.2483(2) 0.82227(14) 0.30811(14)
H9_4 H 0.2246 0.8124 0.3239
C16_4 C 0.2257(3) 0.84400(13) 0.28495(13)
H10_4 H 0.1858 0.8471 0.2851
C17_4 C 0.25650(18) 0.86133(9) 0.26191(10)
C18_4 C 0.3125(2) 0.85117(13) 0.26058(13)
H11_4 H 0.3360 0.8602 0.2442
C19_4 C 0.3363(3) 0.82807(13) 0.28228(12)
H12_4 H 0.3744 0.8211 0.2792
C20_4 C 0.3060(2) 0.81548(10) 0.30764(10)
C21_4 C 0.1561(2) 0.91897(12) 0.21797(12)
H13_4 H 0.1177 0.9258 0.2199
C22_4 C 0.1790(2) 0.89655(11) 0.24088(12)
H14_4 H 0.1561 0.8890 0.2582
C23_4 C 0.2348(2) 0.88545(10) 0.23817(10)
C24_4 C 0.2671(2) 0.89745(9) 0.21285(10)
H15_4 H 0.3049 0.8897 0.2105
C25_4 C 0.2456(2) 0.92116(10) 0.18987(10)
H16_4 H 0.2694 0.9297 0.1734
C26_4 C 0.1896(2) 0.93134(9) 0.19226(10)
C27_4 C 0.3321(2) 0.79217(9) 0.33221(10)
C28_4 C 0.1656(2) 0.95553(9) 0.16768(9)
O1_5 O 0.19754(15) 0.52871(7) 0.60315(7)
O2_5 O 0.11686(16) 0.53670(8) 0.58169(8)
C1_4 C 0.2517(2) 0.57227(14) 0.55811(14)
H1_4 H 0.2754 0.5624 0.5739
C2_4 C 0.2743(3) 0.59400(13) 0.53495(13)
H2_4 H 0.3142 0.5971 0.5351
C3_5 C 0.24350(18) 0.61133(9) 0.51191(10)
C4_5 C 0.1875(2) 0.60117(13) 0.51058(13)
H3_4 H 0.1640 0.6102 0.4942
C5_5 C 0.1637(3) 0.57807(13) 0.53228(12)
H4_5 H 0.1256 0.5711 0.5292
C6_5 C 0.1940(2) 0.56548(10) 0.55764(10)
C7_5 C 0.3439(2) 0.66897(12) 0.46797(12)
H5_5 H 0.3823 0.6758 0.4699
C8_5 C 0.3210(2) 0.64655(11) 0.49088(12)
H6_4 H 0.3439 0.6390 0.5082
C9_5 C 0.2652(2) 0.63545(10) 0.48817(10)
C10_4 C 0.2329(2) 0.64745(9) 0.46285(10)
H7_4 H 0.1951 0.6397 0.4605
C11_5 C 0.2544(2) 0.67116(10) 0.43987(10)
H8_4 H 0.2306 0.6797 0.4234
C12_5 C 0.3104(2) 0.68134(9) 0.44226(10)
C13_5 C 0.1679(2) 0.54217(9) 0.58221(10)
C14_5 C 0.3344(2) 0.70553(9) 0.41768(9)
O5_5 O 0.05246(15) 0.52871(7) 0.64685(7)
O6_5 O 0.13314(16) 0.53670(8) 0.66831(8)
C17_5 C 0.00650(18) 0.61133(9) 0.73809(10)
C18_5 C 0.0625(2) 0.60117(13) 0.73942(13)
H11_5 H 0.0860 0.6102 0.7558
C19_5 C 0.0863(3) 0.57807(13) 0.71772(12)
H12_5 H 0.1244 0.5711 0.7208
C20_5 C 0.0560(2) 0.56548(10) 0.69236(10)
C24_5 C 0.0171(2) 0.64745(9) 0.78715(10)
H15_5 H 0.0549 0.6397 0.7895
H16_5 H 0.0194 0.6797 0.8266
C27_5 C 0.0821(2) 0.54217(9) 0.66779(10)
C15_5 C 0.9983(2) 0.57227(14) 0.69189(14)
H9_5 H 0.9746 0.5624 0.6761
C16_5 C 0.9757(3) 0.59400(13) 0.71505(13)
H10_5 H 0.9358 0.5971 0.7149
C21_5 C 0.9061(2) 0.66897(12) 0.78203(12)
H13_5 H 0.8677 0.6758 0.7801
C22_5 C 0.9290(2) 0.64655(11) 0.75912(12)
H14_5 H 0.9061 0.6390 0.7418
C23_5 C 0.9848(2) 0.63545(10) 0.76183(10)
C25_5 C 0.9956(2) 0.67116(10) 0.81013(10)
C26_5 C 0.9396(2) 0.68134(9) 0.80774(10)
C28_5 C 0.9156(2) 0.70553(9) 0.83232(9)
H3_5 H 0.1640 0.1102 0.9942
C7_6 C 0.3439(2) 0.16897(12) 0.96797(12)
H5_6 H 0.3823 0.1758 0.9699
C8_6 C 0.3210(2) 0.14655(11) 0.99088(12)
C9_6 C 0.2652(2) 0.13545(10) 0.98817(10)
C10_5 C 0.2329(2) 0.14745(9) 0.96285(10)
H7_5 H 0.1951 0.1397 0.9605
C11_6 C 0.2544(2) 0.17116(10) 0.93987(10)
H8_5 H 0.2306 0.1797 0.9234
C12_6 C 0.3104(2) 0.18134(9) 0.94226(10)
C14_6 C 0.3344(2) 0.20553(9) 0.91768(9)
C15_6 C 0.9983(2) 0.07227(14) 0.19189(14)
H9_6 H 0.9746 0.0624 0.1761
C16_6 C 0.9757(3) 0.09400(13) 0.21505(13)
H10_6 H 0.9358 0.0971 0.2149
C21_6 C 0.9061(2) 0.16897(12) 0.28203(12)
H13_6 H 0.8677 0.1758 0.2801
C22_6 C 0.9290(2) 0.14655(11) 0.25912(12)
H14_6 H 0.9061 0.1390 0.2418
C23_6 C 0.9848(2) 0.13545(10) 0.26183(10)
C25_6 C 0.9956(2) 0.17116(10) 0.31013(10)
C26_6 C 0.9396(2) 0.18134(9) 0.30774(10)
C28_6 C 0.9156(2) 0.20553(9) 0.33232(9)
O1_6 O 0.69754(15) 0.52871(7) 0.10315(7)
O2_6 O 0.61686(16) 0.53670(8) 0.08169(8)
C1_5 C 0.7517(2) 0.57227(14) 0.05811(14)
H1_5 H 0.7754 0.5624 0.0739
C2_5 C 0.7743(3) 0.59400(13) 0.03495(13)
H2_5 H 0.8142 0.5971 0.0351
C3_6 C 0.74350(18) 0.61133(9) 0.01191(10)
C4_6 C 0.6875(2) 0.60117(13) 0.01058(13)
C5_6 C 0.6637(3) 0.57807(13) 0.03228(12)
H4_6 H 0.6256 0.5711 0.0292
C6_6 C 0.6940(2) 0.56548(10) 0.05764(10)
H6_5 H 0.8439 0.6390 0.0082
C13_6 C 0.6679(2) 0.54217(9) 0.08221(10)
O5_6 O 0.55246(15) 0.52871(7) 0.14685(7)
O6_6 O 0.63314(16) 0.53670(8) 0.16831(8)
C15_7 C 0.4983(2) 0.57227(14) 0.19189(14)
H9_7 H 0.4746 0.5624 0.1761
C16_7 C 0.4757(3) 0.59400(13) 0.21505(13)
H10_7 H 0.4358 0.5971 0.2149
C17_6 C 0.50650(18) 0.61133(9) 0.23809(10)
C18_6 C 0.5625(2) 0.60117(13) 0.23942(13)
H11_6 H 0.5860 0.6102 0.2558
C19_6 C 0.5863(3) 0.57807(13) 0.21772(12)
H12_6 H 0.6244 0.5711 0.2208
C20_6 C 0.5560(2) 0.56548(10) 0.19236(10)
C21_7 C 0.4061(2) 0.66897(12) 0.28203(12)
H13_7 H 0.3677 0.6758 0.2801
C22_7 C 0.4290(2) 0.64655(11) 0.25912(12)
H14_7 H 0.4061 0.6390 0.2418
C23_7 C 0.4848(2) 0.63545(10) 0.26183(10)
C24_6 C 0.5171(2) 0.64745(9) 0.28715(10)
H15_6 H 0.5549 0.6397 0.2895
C25_7 C 0.4956(2) 0.67116(10) 0.31013(10)
H16_6 H 0.5194 0.6797 0.3266
C26_7 C 0.4396(2) 0.68134(9) 0.30774(10)
C27_6 C 0.5821(2) 0.54217(9) 0.16779(10)
C28_7 C 0.4156(2) 0.70553(9) 0.33232(9)
H3_6 H 0.6640 0.6102 0.9942
C7_7 C 0.8439(2) 0.66897(12) 0.96797(12)
H5_7 H 0.8823 0.6758 0.9699
C8_7 C 0.8210(2) 0.64655(11) 0.99088(12)
C9_7 C 0.7652(2) 0.63545(10) 0.98817(10)
C10_6 C 0.7329(2) 0.64745(9) 0.96285(10)
H7_6 H 0.6951 0.6397 0.9605
C11_7 C 0.7544(2) 0.67116(10) 0.93987(10)
H8_6 H 0.7306 0.6797 0.9234
C12_7 C 0.8104(2) 0.68134(9) 0.94226(10)
C14_7 C 0.8344(2) 0.70553(9) 0.91768(9)
O1_7 O 0.69754(15) 0.02871(7) 0.60315(7)
O2_7 O 0.61686(16) 0.03670(8) 0.58169(8)
C1_6 C 0.7517(2) 0.07227(14) 0.55811(14)
H1_6 H 0.7754 0.0624 0.5739
C2_6 C 0.7743(3) 0.09400(13) 0.53495(13)
H2_6 H 0.8142 0.0971 0.5351
C3_7 C 0.74350(18) 0.11133(9) 0.51191(10)
C4_7 C 0.6875(2) 0.10117(13) 0.51058(13)
H3_7 H 0.6640 0.1102 0.4942
C5_7 C 0.6637(3) 0.07807(13) 0.53228(12)
H4_7 H 0.6256 0.0711 0.5292
C6_7 C 0.6940(2) 0.06548(10) 0.55764(10)
C7_8 C 0.8439(2) 0.16897(12) 0.46797(12)
H5_8 H 0.8823 0.1758 0.4699
C8_8 C 0.8210(2) 0.14655(11) 0.49088(12)
H6_6 H 0.8439 0.1390 0.5082
C9_8 C 0.7652(2) 0.13545(10) 0.48817(10)
C10_7 C 0.7329(2) 0.14745(9) 0.46285(10)
H7_7 H 0.6951 0.1397 0.4605
C11_8 C 0.7544(2) 0.17116(10) 0.43987(10)
H8_7 H 0.7306 0.1797 0.4234
C12_8 C 0.8104(2) 0.18134(9) 0.44226(10)
C13_7 C 0.6679(2) 0.04217(9) 0.58221(10)
C14_8 C 0.8344(2) 0.20553(9) 0.41768(9)
O5_7 O 0.55246(15) 0.02871(7) 0.64685(7)
O6_7 O 0.63314(16) 0.03670(8) 0.66831(8)
C15_8 C 0.4983(2) 0.07227(14) 0.69189(14)
H9_8 H 0.4746 0.0624 0.6761
C16_8 C 0.4757(3) 0.09400(13) 0.71505(13)
H10_8 H 0.4358 0.0971 0.7149
C17_7 C 0.50650(18) 0.11133(9) 0.73809(10)
C18_7 C 0.5625(2) 0.10117(13) 0.73942(13)
H11_7 H 0.5860 0.1102 0.7558
C19_7 C 0.5863(3) 0.07807(13) 0.71772(12)
H12_7 H 0.6244 0.0711 0.7208
C20_7 C 0.5560(2) 0.06548(10) 0.69236(10)
C21_8 C 0.4061(2) 0.16897(12) 0.78203(12)
H13_8 H 0.3677 0.1758 0.7801
C22_8 C 0.4290(2) 0.14655(11) 0.75912(12)
H14_8 H 0.4061 0.1390 0.7418
C23_8 C 0.4848(2) 0.13545(10) 0.76183(10)
C24_7 C 0.5171(2) 0.14745(9) 0.78715(10)
H15_7 H 0.5549 0.1397 0.7895
C25_8 C 0.4956(2) 0.17116(10) 0.81013(10)
H16_7 H 0.5194 0.1797 0.8266
C26_8 C 0.4396(2) 0.18134(9) 0.80774(10)
C27_7 C 0.5821(2) 0.04217(9) 0.66779(10)
C28_8 C 0.4156(2) 0.20553(9) 0.83232(9)
In3_3 In 0.1250 0.251341(8) 0.1250
O7_5 O 0.13825(13) 0.29127(7) 0.16627(7)
O10_5 O 0.05225(13) 0.27897(6) 0.14922(6)
C15_9 C 0.0017(2) 0.42773(14) 0.30811(14)
H9_9 H 0.0254 0.4376 0.3239
C16_9 C 0.0243(3) 0.40600(13) 0.28495(13)
H10_9 H 0.0642 0.4029 0.2851
C21_9 C 0.0939(2) 0.33103(12) 0.21797(12)
H13_9 H 0.1323 0.3242 0.2199
C22_9 C 0.0710(2) 0.35345(11) 0.24088(12)
H14_9 H 0.0939 0.3610 0.2582
C23_9 C 0.0152(2) 0.36455(10) 0.23817(10)
C25_9 C 0.0044(2) 0.32884(10) 0.18987(10)
C26_9 C 0.0604(2) 0.31866(9) 0.19226(10)
C28_9 C 0.0844(2) 0.29447(9) 0.16768(9)
In1_5 In 0.8750 0.501341(8) 0.3750
O1_8 O 0.80246(15) 0.47129(7) 0.39685(7)
O2_8 O 0.88314(16) 0.46330(8) 0.41831(8)
O3_5 O 0.61175(13) 0.29127(7) 0.58373(7)
O4_5 O 0.69775(13) 0.27897(6) 0.60078(6)
C1_7 C 0.7483(2) 0.42773(14) 0.44189(14)
H1_7 H 0.7246 0.4376 0.4261
C2_7 C 0.7257(3) 0.40600(13) 0.46505(13)
H2_7 H 0.6858 0.4029 0.4649
C3_8 C 0.75650(18) 0.38867(9) 0.48809(10)
C4_8 C 0.8125(2) 0.39883(13) 0.48942(13)
H3_8 H 0.8360 0.3898 0.5058
C5_8 C 0.8363(3) 0.42193(13) 0.46772(12)
H4_8 H 0.8744 0.4289 0.4708
C6_8 C 0.8060(2) 0.43452(10) 0.44236(10)
C7_9 C 0.6561(2) 0.33103(12) 0.53203(12)
H5_9 H 0.6177 0.3242 0.5301
C8_9 C 0.6790(2) 0.35345(11) 0.50912(12)
H6_7 H 0.6561 0.3610 0.4918
C9_9 C 0.7348(2) 0.36455(10) 0.51183(10)
C10_8 C 0.7671(2) 0.35255(9) 0.53715(10)
H7_8 H 0.8049 0.3603 0.5395
C11_9 C 0.7456(2) 0.32884(10) 0.56013(10)
H8_8 H 0.7694 0.3203 0.5766
C12_9 C 0.6896(2) 0.31866(9) 0.55774(10)
C13_8 C 0.8321(2) 0.45783(9) 0.41779(10)
C14_9 C 0.6656(2) 0.29447(9) 0.58232(9)
In2_3 In 0.6250 0.251341(8) 0.6250
O5_8 O 0.94754(15) 0.47129(7) 0.35315(7)
O6_8 O 0.86686(16) 0.46330(8) 0.33169(8)
O8_5 O 0.88825(13) 0.54127(7) 0.33373(7)
O9_5 O 0.86175(13) 0.54127(7) 0.41627(7)
O11_5 O 0.80225(13) 0.52897(6) 0.35078(6)
O12_5 O 0.94775(13) 0.52897(6) 0.39922(6)
C17_8 C 0.99350(18) 0.38867(9) 0.26191(10)
C18_8 C 0.9375(2) 0.39883(13) 0.26058(13)
H11_8 H 0.9140 0.3898 0.2442
C19_8 C 0.9137(3) 0.42193(13) 0.28228(12)
H12_8 H 0.8756 0.4289 0.2792
C20_8 C 0.9440(2) 0.43452(10) 0.30764(10)
C24_8 C 0.9829(2) 0.35255(9) 0.21285(10)
H15_8 H 0.9451 0.3603 0.2105
H16_8 H 0.9806 0.3203 0.1734
C27_8 C 0.9179(2) 0.45783(9) 0.33221(10)
In3_4 In 0.1250 0.751341(8) 0.6250
O7_6 O 0.13825(13) 0.79127(7) 0.66627(7)
O10_6 O 0.05225(13) 0.77897(6) 0.64922(6)
C15_10 C 0.0017(2) 0.92773(14) 0.80811(14)
H9_10 H 0.0254 0.9376 0.8239
C16_10 C 0.0243(3) 0.90600(13) 0.78495(13)
H10_10 H 0.0642 0.9029 0.7851
C21_10 C 0.0939(2) 0.83103(12) 0.71797(12)
H13_10 H 0.1323 0.8242 0.7199
C22_10 C 0.0710(2) 0.85345(11) 0.74088(12)
H14_10 H 0.0939 0.8610 0.7582
C23_10 C 0.0152(2) 0.86455(10) 0.73817(10)
C25_10 C 0.0044(2) 0.82884(10) 0.68987(10)
C26_10 C 0.0604(2) 0.81866(9) 0.69226(10)
C28_10 C 0.0844(2) 0.79447(9) 0.66768(9)
In1_6 In 0.8750 0.001341(8) 0.8750
O8_6 O 0.88825(13) 0.04127(7) 0.83373(7)
O9_6 O 0.86175(13) 0.04127(7) 0.91627(7)
O11_6 O 0.80225(13) 0.02897(6) 0.85078(6)
O12_6 O 0.94775(13) 0.02897(6) 0.89922(6)
O3_6 O 0.61175(13) 0.79127(7) 0.08373(7)
O4_6 O 0.69775(13) 0.77897(6) 0.10078(6)
H3_9 H 0.8360 0.8898 0.0058
C7_10 C 0.6561(2) 0.83103(12) 0.03203(12)
H5_10 H 0.6177 0.8242 0.0301
C8_10 C 0.6790(2) 0.85345(11) 0.00912(12)
C9_10 C 0.7348(2) 0.86455(10) 0.01183(10)
C10_9 C 0.7671(2) 0.85255(9) 0.03715(10)
H7_9 H 0.8049 0.8603 0.0395
C11_10 C 0.7456(2) 0.82884(10) 0.06013(10)
H8_9 H 0.7694 0.8203 0.0766
C12_10 C 0.6896(2) 0.81866(9) 0.05774(10)
C14_10 C 0.6656(2) 0.79447(9) 0.08232(9)
In2_4 In 0.6250 0.751341(8) 0.1250
O3_7 O 0.11175(13) 0.29127(7) 0.08373(7)
O4_7 O 0.19775(13) 0.27897(6) 0.10078(6)
H3_10 H 0.3360 0.3898 0.0058
C7_11 C 0.1561(2) 0.33103(12) 0.03203(12)
H5_11 H 0.1177 0.3242 0.0301
C8_11 C 0.1790(2) 0.35345(11) 0.00912(12)
C9_11 C 0.2348(2) 0.36455(10) 0.01183(10)
C10_10 C 0.2671(2) 0.35255(9) 0.03715(10)
H7_10 H 0.3049 0.3603 0.0395
C11_11 C 0.2456(2) 0.32884(10) 0.06013(10)
H8_10 H 0.2694 0.3203 0.0766
C12_11 C 0.1896(2) 0.31866(9) 0.05774(10)
C14_11 C 0.1656(2) 0.29447(9) 0.08232(9)
In1_7 In 0.3750 0.501341(8) 0.8750
O1_9 O 0.30246(15) 0.47129(7) 0.89685(7)
O2_9 O 0.38314(16) 0.46330(8) 0.91831(8)
C1_8 C 0.2483(2) 0.42773(14) 0.94189(14)
H1_8 H 0.2246 0.4376 0.9261
C2_8 C 0.2257(3) 0.40600(13) 0.96505(13)
H2_8 H 0.1858 0.4029 0.9649
C3_9 C 0.25650(18) 0.38867(9) 0.98809(10)
C4_9 C 0.3125(2) 0.39883(13) 0.98942(13)
C5_9 C 0.3363(3) 0.42193(13) 0.96772(12)
H4_9 H 0.3744 0.4289 0.9708
C6_9 C 0.3060(2) 0.43452(10) 0.94236(10)
H6_8 H 0.1561 0.3610 0.9918
C13_9 C 0.3321(2) 0.45783(9) 0.91779(10)
O5_9 O 0.44754(15) 0.47129(7) 0.85315(7)
O6_9 O 0.36686(16) 0.46330(8) 0.83169(8)
O7_7 O 0.63825(13) 0.29127(7) 0.66627(7)
O8_7 O 0.38825(13) 0.54127(7) 0.83373(7)
O9_7 O 0.36175(13) 0.54127(7) 0.91627(7)
O10_7 O 0.55225(13) 0.27897(6) 0.64922(6)
O11_7 O 0.30225(13) 0.52897(6) 0.85078(6)
O12_7 O 0.44775(13) 0.52897(6) 0.89922(6)
C15_11 C 0.5017(2) 0.42773(14) 0.80811(14)
H9_11 H 0.5254 0.4376 0.8239
C16_11 C 0.5243(3) 0.40600(13) 0.78495(13)
H10_11 H 0.5642 0.4029 0.7851
C17_9 C 0.49350(18) 0.38867(9) 0.76191(10)
C18_9 C 0.4375(2) 0.39883(13) 0.76058(13)
H11_9 H 0.4140 0.3898 0.7442
C19_9 C 0.4137(3) 0.42193(13) 0.78228(12)
H12_9 H 0.3756 0.4289 0.7792
C20_9 C 0.4440(2) 0.43452(10) 0.80764(10)
C21_11 C 0.5939(2) 0.33103(12) 0.71797(12)
H13_11 H 0.6323 0.3242 0.7199
C22_11 C 0.5710(2) 0.35345(11) 0.74088(12)
H14_11 H 0.5939 0.3610 0.7582
C23_11 C 0.5152(2) 0.36455(10) 0.73817(10)
C24_9 C 0.4829(2) 0.35255(9) 0.71285(10)
H15_9 H 0.4451 0.3603 0.7105
C25_11 C 0.5044(2) 0.32884(10) 0.68987(10)
H16_9 H 0.4806 0.3203 0.6734
C26_11 C 0.5604(2) 0.31866(9) 0.69226(10)
C27_9 C 0.4179(2) 0.45783(9) 0.83221(10)
C28_11 C 0.5844(2) 0.29447(9) 0.66768(9)
In1_8 In 0.3750 0.001341(8) 0.3750
O8_8 O 0.38825(13) 0.04127(7) 0.33373(7)
O9_8 O 0.36175(13) 0.04127(7) 0.41627(7)
O11_8 O 0.30225(13) 0.02897(6) 0.35078(6)
O12_8 O 0.44775(13) 0.02897(6) 0.39922(6)
O1_10 O 0.30246(15) 0.97129(7) 0.39685(7)
O2_10 O 0.38314(16) 0.96330(8) 0.41831(8)
O3_8 O 0.11175(13) 0.79127(7) 0.58373(7)
O4_8 O 0.19775(13) 0.77897(6) 0.60078(6)
C1_9 C 0.2483(2) 0.92773(14) 0.44189(14)
H1_9 H 0.2246 0.9376 0.4261
C2_9 C 0.2257(3) 0.90600(13) 0.46505(13)
H2_9 H 0.1858 0.9029 0.4649
C3_10 C 0.25650(18) 0.88867(9) 0.48809(10)
C4_10 C 0.3125(2) 0.89883(13) 0.48942(13)
H3_11 H 0.3360 0.8898 0.5058
C5_10 C 0.3363(3) 0.92193(13) 0.46772(12)
H4_10 H 0.3744 0.9289 0.4708
C6_10 C 0.3060(2) 0.93452(10) 0.44236(10)
C7_12 C 0.1561(2) 0.83103(12) 0.53203(12)
H5_12 H 0.1177 0.8242 0.5301
C8_12 C 0.1790(2) 0.85345(11) 0.50912(12)
H6_9 H 0.1561 0.8610 0.4918
C9_12 C 0.2348(2) 0.86455(10) 0.51183(10)
C10_11 C 0.2671(2) 0.85255(9) 0.53715(10)
H7_11 H 0.3049 0.8603 0.5395
C11_12 C 0.2456(2) 0.82884(10) 0.56013(10)
H8_11 H 0.2694 0.8203 0.5766
C12_12 C 0.1896(2) 0.81866(9) 0.55774(10)
C13_10 C 0.3321(2) 0.95783(9) 0.41779(10)
C14_12 C 0.1656(2) 0.79447(9) 0.58232(9)
O5_10 O 0.44754(15) 0.97129(7) 0.35315(7)
O6_10 O 0.36686(16) 0.96330(8) 0.33169(8)
O7_8 O 0.63825(13) 0.79127(7) 0.16627(7)
O10_8 O 0.55225(13) 0.77897(6) 0.14922(6)
C15_12 C 0.5017(2) 0.92773(14) 0.30811(14)
H9_12 H 0.5254 0.9376 0.3239
C16_12 C 0.5243(3) 0.90600(13) 0.28495(13)
H10_12 H 0.5642 0.9029 0.2851
C17_10 C 0.49350(18) 0.88867(9) 0.26191(10)
C18_10 C 0.4375(2) 0.89883(13) 0.26058(13)
H11_10 H 0.4140 0.8898 0.2442
C19_10 C 0.4137(3) 0.92193(13) 0.28228(12)
H12_10 H 0.3756 0.9289 0.2792
C20_10 C 0.4440(2) 0.93452(10) 0.30764(10)
C21_12 C 0.5939(2) 0.83103(12) 0.21797(12)
H13_12 H 0.6323 0.8242 0.2199
C22_12 C 0.5710(2) 0.85345(11) 0.24088(12)
H14_12 H 0.5939 0.8610 0.2582
C23_12 C 0.5152(2) 0.86455(10) 0.23817(10)
C24_10 C 0.4829(2) 0.85255(9) 0.21285(10)
H15_10 H 0.4451 0.8603 0.2105
C25_12 C 0.5044(2) 0.82884(10) 0.18987(10)
H16_10 H 0.4806 0.8203 0.1734
C26_12 C 0.5604(2) 0.81866(9) 0.19226(10)
C27_10 C 0.4179(2) 0.95783(9) 0.33221(10)
C28_12 C 0.5844(2) 0.79447(9) 0.16768(9)
O1_11 O 0.05246(15) 0.72129(7) 0.60315(7)
O2_11 O 0.13314(16) 0.71330(8) 0.58169(8)
C3_11 C 0.00650(18) 0.63867(9) 0.51191(10)
C4_11 C 0.0625(2) 0.64883(13) 0.51058(13)
H3_12 H 0.0860 0.6398 0.4942
C5_11 C 0.0863(3) 0.67193(13) 0.53228(12)
H4_11 H 0.1244 0.6789 0.5292
C6_11 C 0.0560(2) 0.68452(10) 0.55764(10)
C10_12 C 0.0171(2) 0.60255(9) 0.46285(10)
H7_12 H 0.0549 0.6103 0.4605
H8_12 H 0.0194 0.5703 0.4234
C13_11 C 0.0821(2) 0.70783(9) 0.58221(10)
O5_11 O 0.19754(15) 0.72129(7) 0.64685(7)
O6_11 O 0.11686(16) 0.71330(8) 0.66831(8)
C15_13 C 0.2517(2) 0.67773(14) 0.69189(14)
H9_13 H 0.2754 0.6876 0.6761
C16_13 C 0.2743(3) 0.65600(13) 0.71505(13)
H10_13 H 0.3142 0.6529 0.7149
C17_11 C 0.24350(18) 0.63867(9) 0.73809(10)
C18_11 C 0.1875(2) 0.64883(13) 0.73942(13)
H11_11 H 0.1640 0.6398 0.7558
C19_11 C 0.1637(3) 0.67193(13) 0.71772(12)
H12_11 H 0.1256 0.6789 0.7208
C20_11 C 0.1940(2) 0.68452(10) 0.69236(10)
C21_13 C 0.3439(2) 0.58103(12) 0.78203(12)
H13_13 H 0.3823 0.5742 0.7801
C22_13 C 0.3210(2) 0.60345(11) 0.75912(12)
H14_13 H 0.3439 0.6110 0.7418
C23_13 C 0.2652(2) 0.61455(10) 0.76183(10)
C24_11 C 0.2329(2) 0.60255(9) 0.78715(10)
H15_11 H 0.1951 0.6103 0.7895
C25_13 C 0.2544(2) 0.57884(10) 0.81013(10)
H16_11 H 0.2306 0.5703 0.8266
C26_13 C 0.3104(2) 0.56866(9) 0.80774(10)
C27_11 C 0.1679(2) 0.70783(9) 0.66779(10)
C28_13 C 0.3344(2) 0.54447(9) 0.83232(9)
C1_10 C 0.9983(2) 0.67773(14) 0.55811(14)
H1_10 H 0.9746 0.6876 0.5739
C2_10 C 0.9757(3) 0.65600(13) 0.53495(13)
H2_10 H 0.9358 0.6529 0.5351
C7_13 C 0.9061(2) 0.58103(12) 0.46797(12)
H5_13 H 0.8677 0.5742 0.4699
C8_13 C 0.9290(2) 0.60345(11) 0.49088(12)
H6_10 H 0.9061 0.6110 0.5082
C9_13 C 0.9848(2) 0.61455(10) 0.48817(10)
C11_13 C 0.9956(2) 0.57884(10) 0.43987(10)
C12_13 C 0.9396(2) 0.56866(9) 0.44226(10)
C14_13 C 0.9156(2) 0.54447(9) 0.41768(9)
O1_12 O 0.05246(15) 0.22129(7) 0.10315(7)
O2_12 O 0.13314(16) 0.21330(8) 0.08169(8)
C3_12 C 0.00650(18) 0.13867(9) 0.01191(10)
C4_12 C 0.0625(2) 0.14883(13) 0.01058(13)
C5_12 C 0.0863(3) 0.17193(13) 0.03228(12)
H4_12 H 0.1244 0.1789 0.0292
C6_12 C 0.0560(2) 0.18452(10) 0.05764(10)
C13_12 C 0.0821(2) 0.20783(9) 0.08221(10)
O5_12 O 0.19754(15) 0.22129(7) 0.14685(7)
O6_12 O 0.11686(16) 0.21330(8) 0.16831(8)
C15_14 C 0.2517(2) 0.17773(14) 0.19189(14)
H9_14 H 0.2754 0.1876 0.1761
C16_14 C 0.2743(3) 0.15600(13) 0.21505(13)
H10_14 H 0.3142 0.1529 0.2149
C17_12 C 0.24350(18) 0.13867(9) 0.23809(10)
C18_12 C 0.1875(2) 0.14883(13) 0.23942(13)
H11_12 H 0.1640 0.1398 0.2558
C19_12 C 0.1637(3) 0.17193(13) 0.21772(12)
H12_12 H 0.1256 0.1789 0.2208
C20_12 C 0.1940(2) 0.18452(10) 0.19236(10)
C21_14 C 0.3439(2) 0.08103(12) 0.28203(12)
H13_14 H 0.3823 0.0742 0.2801
C22_14 C 0.3210(2) 0.10345(11) 0.25912(12)
H14_14 H 0.3439 0.1110 0.2418
C23_14 C 0.2652(2) 0.11455(10) 0.26183(10)
C24_12 C 0.2329(2) 0.10255(9) 0.28715(10)
H15_12 H 0.1951 0.1103 0.2895
C25_14 C 0.2544(2) 0.07884(10) 0.31013(10)
H16_12 H 0.2306 0.0703 0.3266
C26_14 C 0.3104(2) 0.06866(9) 0.30774(10)
C27_12 C 0.1679(2) 0.20783(9) 0.16779(10)
C28_14 C 0.3344(2) 0.04447(9) 0.33232(9)
C7_14 C 0.9061(2) 0.08103(12) 0.96797(12)
H5_14 H 0.8677 0.0742 0.9699
C8_14 C 0.9290(2) 0.10345(11) 0.99088(12)
C9_14 C 0.9848(2) 0.11455(10) 0.98817(10)
C11_14 C 0.9956(2) 0.07884(10) 0.93987(10)
C12_14 C 0.9396(2) 0.06866(9) 0.94226(10)
C14_14 C 0.9156(2) 0.04447(9) 0.91768(9)
O1_13 O 0.55246(15) 0.72129(7) 0.10315(7)
O2_13 O 0.63314(16) 0.71330(8) 0.08169(8)
C1_11 C 0.4983(2) 0.67773(14) 0.05811(14)
H1_11 H 0.4746 0.6876 0.0739
C2_11 C 0.4757(3) 0.65600(13) 0.03495(13)
H2_11 H 0.4358 0.6529 0.0351
C3_13 C 0.50650(18) 0.63867(9) 0.01191(10)
C4_13 C 0.5625(2) 0.64883(13) 0.01058(13)
C5_13 C 0.5863(3) 0.67193(13) 0.03228(12)
H4_13 H 0.6244 0.6789 0.0292
C6_13 C 0.5560(2) 0.68452(10) 0.05764(10)
H6_11 H 0.4061 0.6110 0.0082
C13_13 C 0.5821(2) 0.70783(9) 0.08221(10)
O5_13 O 0.69754(15) 0.72129(7) 0.14685(7)
O6_13 O 0.61686(16) 0.71330(8) 0.16831(8)
C15_15 C 0.7517(2) 0.67773(14) 0.19189(14)
H9_15 H 0.7754 0.6876 0.1761
C16_15 C 0.7743(3) 0.65600(13) 0.21505(13)
H10_15 H 0.8142 0.6529 0.2149
C17_13 C 0.74350(18) 0.63867(9) 0.23809(10)
C18_13 C 0.6875(2) 0.64883(13) 0.23942(13)
H11_13 H 0.6640 0.6398 0.2558
C19_13 C 0.6637(3) 0.67193(13) 0.21772(12)
H12_13 H 0.6256 0.6789 0.2208
C20_13 C 0.6940(2) 0.68452(10) 0.19236(10)
C21_15 C 0.8439(2) 0.58103(12) 0.28203(12)
H13_15 H 0.8823 0.5742 0.2801
C22_15 C 0.8210(2) 0.60345(11) 0.25912(12)
H14_15 H 0.8439 0.6110 0.2418
C23_15 C 0.7652(2) 0.61455(10) 0.26183(10)
C24_13 C 0.7329(2) 0.60255(9) 0.28715(10)
H15_13 H 0.6951 0.6103 0.2895
C25_15 C 0.7544(2) 0.57884(10) 0.31013(10)
H16_13 H 0.7306 0.5703 0.3266
C26_15 C 0.8104(2) 0.56866(9) 0.30774(10)
C27_13 C 0.6679(2) 0.70783(9) 0.16779(10)
C28_15 C 0.8344(2) 0.54447(9) 0.33232(9)
H3_13 H 0.5860 0.6398 0.9942
C7_15 C 0.4061(2) 0.58103(12) 0.96797(12)
H5_15 H 0.3677 0.5742 0.9699
C8_15 C 0.4290(2) 0.60345(11) 0.99088(12)
C9_15 C 0.4848(2) 0.61455(10) 0.98817(10)
C10_13 C 0.5171(2) 0.60255(9) 0.96285(10)
H7_13 H 0.5549 0.6103 0.9605
C11_15 C 0.4956(2) 0.57884(10) 0.93987(10)
H8_13 H 0.5194 0.5703 0.9234
C12_15 C 0.4396(2) 0.56866(9) 0.94226(10)
C14_15 C 0.4156(2) 0.54447(9) 0.91768(9)
O1_14 O 0.55246(15) 0.22129(7) 0.60315(7)
O2_14 O 0.63314(16) 0.21330(8) 0.58169(8)
C1_12 C 0.4983(2) 0.17773(14) 0.55811(14)
H1_12 H 0.4746 0.1876 0.5739
C2_12 C 0.4757(3) 0.15600(13) 0.53495(13)
H2_12 H 0.4358 0.1529 0.5351
C3_14 C 0.50650(18) 0.13867(9) 0.51191(10)
C4_14 C 0.5625(2) 0.14883(13) 0.51058(13)
H3_14 H 0.5860 0.1398 0.4942
C5_14 C 0.5863(3) 0.17193(13) 0.53228(12)
H4_14 H 0.6244 0.1789 0.5292
C6_14 C 0.5560(2) 0.18452(10) 0.55764(10)
C7_16 C 0.4061(2) 0.08103(12) 0.46797(12)
H5_16 H 0.3677 0.0742 0.4699
C8_16 C 0.4290(2) 0.10345(11) 0.49088(12)
H6_12 H 0.4061 0.1110 0.5082
C9_16 C 0.4848(2) 0.11455(10) 0.48817(10)
C10_14 C 0.5171(2) 0.10255(9) 0.46285(10)
H7_14 H 0.5549 0.1103 0.4605
C11_16 C 0.4956(2) 0.07884(10) 0.43987(10)
H8_14 H 0.5194 0.0703 0.4234
C12_16 C 0.4396(2) 0.06866(9) 0.44226(10)
C13_14 C 0.5821(2) 0.20783(9) 0.58221(10)
C14_16 C 0.4156(2) 0.04447(9) 0.41768(9)
O5_14 O 0.69754(15) 0.22129(7) 0.64685(7)
O6_14 O 0.61686(16) 0.21330(8) 0.66831(8)
C15_16 C 0.7517(2) 0.17773(14) 0.69189(14)
H9_16 H 0.7754 0.1876 0.6761
C16_16 C 0.7743(3) 0.15600(13) 0.71505(13)
H10_16 H 0.8142 0.1529 0.7149
C17_14 C 0.74350(18) 0.13867(9) 0.73809(10)
C18_14 C 0.6875(2) 0.14883(13) 0.73942(13)
H11_14 H 0.6640 0.1398 0.7558
C19_14 C 0.6637(3) 0.17193(13) 0.71772(12)
H12_14 H 0.6256 0.1789 0.7208
C20_14 C 0.6940(2) 0.18452(10) 0.69236(10)
C21_16 C 0.8439(2) 0.08103(12) 0.78203(12)
H13_16 H 0.8823 0.0742 0.7801
C22_16 C 0.8210(2) 0.10345(11) 0.75912(12)
H14_16 H 0.8439 0.1110 0.7418
C23_16 C 0.7652(2) 0.11455(10) 0.76183(10)
C24_14 C 0.7329(2) 0.10255(9) 0.78715(10)
H15_14 H 0.6951 0.1103 0.7895
C25_16 C 0.7544(2) 0.07884(10) 0.81013(10)
H16_14 H 0.7306 0.0703 0.8266
C26_16 C 0.8104(2) 0.06866(9) 0.80774(10)
C27_14 C 0.6679(2) 0.20783(9) 0.66779(10)
C28_16 C 0.8344(2) 0.04447(9) 0.83232(9)
C1_13 C 0.0017(2) 0.82227(14) 0.94189(14)
H1_13 H 0.0254 0.8124 0.9261
C2_13 C 0.0243(3) 0.84400(13) 0.96505(13)
H2_13 H 0.0642 0.8471 0.9649
H6_13 H 0.0939 0.8890 0.9918
H3_15 H 0.9140 0.8602 0.0058
C10_15 C 0.9829(2) 0.89745(9) 0.03715(10)
H7_15 H 0.9451 0.8897 0.0395
H8_15 H 0.9806 0.9297 0.0766
O1_15 O 0.80246(15) 0.97129(7) 0.89685(7)
O2_15 O 0.88314(16) 0.96330(8) 0.91831(8)
C1_14 C 0.7483(2) 0.92773(14) 0.94189(14)
H1_14 H 0.7246 0.9376 0.9261
C2_14 C 0.7257(3) 0.90600(13) 0.96505(13)
H2_14 H 0.6858 0.9029 0.9649
C3_15 C 0.75650(18) 0.88867(9) 0.98809(10)
C4_15 C 0.8125(2) 0.89883(13) 0.98942(13)
C5_15 C 0.8363(3) 0.92193(13) 0.96772(12)
H4_15 H 0.8744 0.9289 0.9708
C6_15 C 0.8060(2) 0.93452(10) 0.94236(10)
H6_14 H 0.6561 0.8610 0.9918
C13_15 C 0.8321(2) 0.95783(9) 0.91779(10)
O5_15 O 0.94754(15) 0.97129(7) 0.85315(7)
O6_15 O 0.86686(16) 0.96330(8) 0.83169(8)
C17_15 C 0.99350(18) 0.88867(9) 0.76191(10)
C18_15 C 0.9375(2) 0.89883(13) 0.76058(13)
H11_15 H 0.9140 0.8898 0.7442
C19_15 C 0.9137(3) 0.92193(13) 0.78228(12)
H12_15 H 0.8756 0.9289 0.7792
C20_15 C 0.9440(2) 0.93452(10) 0.80764(10)
C24_15 C 0.9829(2) 0.85255(9) 0.71285(10)
H15_15 H 0.9451 0.8603 0.7105
H16_15 H 0.9806 0.8203 0.6734
C27_15 C 0.9179(2) 0.95783(9) 0.83221(10)
H3_16 H 0.0860 0.1398 0.9942
C10_16 C 0.0171(2) 0.10255(9) 0.96285(10)
H7_16 H 0.0549 0.1103 0.9605
H8_16 H 0.0194 0.0703 0.9234
C1_15 C 0.9983(2) 0.17773(14) 0.05811(14)
H1_15 H 0.9746 0.1876 0.0739
C2_15 C 0.9757(3) 0.15600(13) 0.03495(13)
H2_15 H 0.9358 0.1529 0.0351
H6_15 H 0.9061 0.1110 0.0082
O1_16 O 0.19754(15) 0.02871(7) 0.10315(7)
O2_16 O 0.11686(16) 0.03670(8) 0.08169(8)
C1_16 C 0.2517(2) 0.07227(14) 0.05811(14)
H1_16 H 0.2754 0.0624 0.0739
C2_16 C 0.2743(3) 0.09400(13) 0.03495(13)
H2_16 H 0.3142 0.0971 0.0351
C3_16 C 0.24350(18) 0.11133(9) 0.01191(10)
C4_16 C 0.1875(2) 0.10117(13) 0.01058(13)
C5_16 C 0.1637(3) 0.07807(13) 0.03228(12)
H4_16 H 0.1256 0.0711 0.0292
C6_16 C 0.1940(2) 0.06548(10) 0.05764(10)
H6_16 H 0.3439 0.1390 0.0082
C13_16 C 0.1679(2) 0.04217(9) 0.08221(10)
O5_16 O 0.05246(15) 0.02871(7) 0.14685(7)
O6_16 O 0.13314(16) 0.03670(8) 0.16831(8)
C17_16 C 0.00650(18) 0.11133(9) 0.23809(10)
C18_16 C 0.0625(2) 0.10117(13) 0.23942(13)
H11_16 H 0.0860 0.1102 0.2558
C19_16 C 0.0863(3) 0.07807(13) 0.21772(12)
H12_16 H 0.1244 0.0711 0.2208
C20_16 C 0.0560(2) 0.06548(10) 0.19236(10)
C24_16 C 0.0171(2) 0.14745(9) 0.28715(10)
H15_16 H 0.0549 0.1397 0.2895
H16_16 H 0.0194 0.1797 0.3266
C27_16 C 0.0821(2) 0.04217(9) 0.16779(10)
In4 In 0.6250 0.6250 0.387266(8)
O13 O 0.62403(14) 0.66489(7) 0.34804(7)
O14 O 0.70849(13) 0.64771(6) 0.36414(6)
O15 O 0.89711(15) 0.83597(7) 0.18099(7)
O16 O 0.81132(14) 0.84323(6) 0.16256(7)
C29 C 0.6712(2) 0.71319(11) 0.30564(12)
H17 H 0.6314 0.7138 0.3091
C30 C 0.6964(3) 0.73519(11) 0.28359(13)
H18 H 0.6732 0.7507 0.2726
C31 C 0.7551(2) 0.73491(10) 0.27726(11)
C32 C 0.7881(2) 0.71128(11) 0.29398(11)
H19 H 0.8276 0.7097 0.2900
C33 C 0.7627(2) 0.69034(11) 0.31635(11)
H20 H 0.7861 0.6753 0.3280
C34 C 0.7049(2) 0.69021(9) 0.32261(10)
C35 C 0.8591(2) 0.79221(12) 0.23157(12)
H21 H 0.8973 0.7992 0.2331
C36 C 0.8353(2) 0.76993(11) 0.25446(12)
H22 H 0.8585 0.7622 0.2716
C37 C 0.7790(2) 0.75881(9) 0.25296(11)
C38 C 0.7453(2) 0.77049(10) 0.22680(11)
H23 H 0.7074 0.7630 0.2246
C39 C 0.7677(2) 0.79327(9) 0.20394(11)
H24 H 0.7443 0.8014 0.1871
C40 C 0.8232(2) 0.80367(10) 0.20610(10)
C41 C 0.6786(2) 0.66596(9) 0.34654(10)
C42 C 0.8465(2) 0.82872(10) 0.18262(11)
In5 In 0.8750 0.8750 0.137266(8)
In6 In 0.3750 0.3750 0.137266(8)
O17 O 0.62597(14) 0.58511(7) 0.34804(7)
O18 O 0.54151(13) 0.60229(6) 0.36414(6)
O19 O 0.35289(15) 0.41403(7) 0.18099(7)
O20 O 0.64711(15) 0.66403(7) 0.43099(7)
O21 O 0.60289(15) 0.58597(7) 0.43099(7)
O22 O 0.43868(14) 0.40677(6) 0.16256(7)
O23 O 0.56132(14) 0.65677(6) 0.41256(7)
O24 O 0.68868(14) 0.59323(6) 0.41256(7)
C43 C 0.5788(2) 0.53681(11) 0.30564(12)
H25 H 0.6186 0.5362 0.3091
C44 C 0.5536(3) 0.51481(11) 0.28359(13)
H26 H 0.5768 0.4993 0.2726
C45 C 0.4949(2) 0.51509(10) 0.27726(11)
C46 C 0.4619(2) 0.53872(11) 0.29398(11)
H27 H 0.4224 0.5403 0.2900
C47 C 0.4873(2) 0.55966(11) 0.31635(11)
H28 H 0.4639 0.5747 0.3280
C48 C 0.5451(2) 0.55979(9) 0.32261(10)
C49 C 0.3909(2) 0.45779(12) 0.23157(12)
H29 H 0.3527 0.4508 0.2331
C50 C 0.4147(2) 0.48007(11) 0.25446(12)
H30 H 0.3915 0.4878 0.2716
C51 C 0.4710(2) 0.49119(9) 0.25296(11)
C52 C 0.5047(2) 0.47951(10) 0.22680(11)
H31 H 0.5426 0.4870 0.2246
C53 C 0.4823(2) 0.45673(9) 0.20394(11)
H32 H 0.5057 0.4486 0.1871
C54 C 0.4268(2) 0.44633(10) 0.20610(10)
C55 C 0.5714(2) 0.58404(9) 0.34654(10)
C56 C 0.4035(2) 0.42128(10) 0.18262(11)
In4_2 In 0.1250 0.1250 0.387266(8)
O13_2 O 0.12597(14) 0.08511(7) 0.34804(7)
O14_2 O 0.04151(13) 0.10229(6) 0.36414(6)
C29_2 C 0.0788(2) 0.03681(11) 0.30564(12)
H17_2 H 0.1186 0.0362 0.3091
C30_2 C 0.0536(3) 0.01481(11) 0.28359(13)
C34_2 C 0.0451(2) 0.05979(9) 0.32261(10)
C41_2 C 0.0714(2) 0.08404(9) 0.34654(10)
O17_2 O 0.12403(14) 0.16489(7) 0.34804(7)
O18_2 O 0.20849(13) 0.14771(6) 0.36414(6)
O19_2 O 0.39711(15) 0.33597(7) 0.18099(7)
O20_2 O 0.10289(15) 0.08597(7) 0.43099(7)
O21_2 O 0.14711(15) 0.16403(7) 0.43099(7)
O22_2 O 0.31132(14) 0.34323(6) 0.16256(7)
O23_2 O 0.18868(14) 0.09323(6) 0.41256(7)
O24_2 O 0.06132(14) 0.15677(6) 0.41256(7)
C43_2 C 0.1712(2) 0.21319(11) 0.30564(12)
H25_2 H 0.1314 0.2138 0.3091
C44_2 C 0.1964(3) 0.23519(11) 0.28359(13)
H26_2 H 0.1732 0.2507 0.2726
C45_2 C 0.2551(2) 0.23491(10) 0.27726(11)
C46_2 C 0.2881(2) 0.21128(11) 0.29398(11)
H27_2 H 0.3276 0.2097 0.2900
C47_2 C 0.2627(2) 0.19034(11) 0.31635(11)
H28_2 H 0.2861 0.1753 0.3280
C48_2 C 0.2049(2) 0.19021(9) 0.32261(10)
C49_2 C 0.3591(2) 0.29221(12) 0.23157(12)
H29_2 H 0.3973 0.2992 0.2331
C50_2 C 0.3353(2) 0.26993(11) 0.25446(12)
H30_2 H 0.3585 0.2622 0.2716
C51_2 C 0.2790(2) 0.25881(9) 0.25296(11)
C52_2 C 0.2453(2) 0.27049(10) 0.22680(11)
H31_2 H 0.2074 0.2630 0.2246
C53_2 C 0.2677(2) 0.29327(9) 0.20394(11)
H32_2 H 0.2443 0.3014 0.1871
C54_2 C 0.3232(2) 0.30367(10) 0.20610(10)
C55_2 C 0.1786(2) 0.16596(9) 0.34654(10)
C56_2 C 0.3465(2) 0.32872(10) 0.18262(11)
O15_2 O 0.85289(15) 0.91403(7) 0.18099(7)
O16_2 O 0.93868(14) 0.90677(6) 0.16256(7)
C35_2 C 0.8909(2) 0.95779(12) 0.23157(12)
H21_2 H 0.8527 0.9508 0.2331
C36_2 C 0.9147(2) 0.98007(11) 0.25446(12)
H22_2 H 0.8915 0.9878 0.2716
C37_2 C 0.9710(2) 0.99119(9) 0.25296(11)
C39_2 C 0.9823(2) 0.95673(9) 0.20394(11)
C40_2 C 0.9268(2) 0.94633(10) 0.20610(10)
C42_2 C 0.9035(2) 0.92128(10) 0.18262(11)
In4_3 In 0.6250 0.1250 0.887266(8)
O13_3 O 0.62403(14) 0.16489(7) 0.84804(7)
O14_3 O 0.70849(13) 0.14771(6) 0.86414(6)
O15_3 O 0.89711(15) 0.33597(7) 0.68099(7)
O16_3 O 0.81132(14) 0.34323(6) 0.66256(7)
C29_3 C 0.6712(2) 0.21319(11) 0.80564(12)
H17_3 H 0.6314 0.2138 0.8091
C30_3 C 0.6964(3) 0.23519(11) 0.78359(13)
H18_2 H 0.6732 0.2507 0.7726
C31_2 C 0.7551(2) 0.23491(10) 0.77726(11)
C32_2 C 0.7881(2) 0.21128(11) 0.79398(11)
H19_2 H 0.8276 0.2097 0.7900
C33_2 C 0.7627(2) 0.19034(11) 0.81635(11)
H20_2 H 0.7861 0.1753 0.8280
C34_3 C 0.7049(2) 0.19021(9) 0.82261(10)
C35_3 C 0.8591(2) 0.29221(12) 0.73157(12)
H21_3 H 0.8973 0.2992 0.7331
C36_3 C 0.8353(2) 0.26993(11) 0.75446(12)
H22_3 H 0.8585 0.2622 0.7716
C37_3 C 0.7790(2) 0.25881(9) 0.75296(11)
C38_2 C 0.7453(2) 0.27049(10) 0.72680(11)
H23_2 H 0.7074 0.2630 0.7246
C39_3 C 0.7677(2) 0.29327(9) 0.70394(11)
H24_2 H 0.7443 0.3014 0.6871
C40_3 C 0.8232(2) 0.30367(10) 0.70610(10)
C41_3 C 0.6786(2) 0.16596(9) 0.84654(10)
C42_3 C 0.8465(2) 0.32872(10) 0.68262(11)
In5_2 In 0.8750 0.3750 0.637266(8)
O17_3 O 0.62597(14) 0.08511(7) 0.84804(7)
O18_3 O 0.54151(13) 0.10229(6) 0.86414(6)
O20_3 O 0.64711(15) 0.16403(7) 0.93099(7)
O21_3 O 0.60289(15) 0.08597(7) 0.93099(7)
O23_3 O 0.56132(14) 0.15677(6) 0.91256(7)
O24_3 O 0.68868(14) 0.09323(6) 0.91256(7)
C43_3 C 0.5788(2) 0.03681(11) 0.80564(12)
H25_3 H 0.6186 0.0362 0.8091
C44_3 C 0.5536(3) 0.01481(11) 0.78359(13)
C45_3 C 0.4949(2) 0.01509(10) 0.77726(11)
C46_3 C 0.4619(2) 0.03872(11) 0.79398(11)
H27_3 H 0.4224 0.0403 0.7900
C47_3 C 0.4873(2) 0.05966(11) 0.81635(11)
H28_3 H 0.4639 0.0747 0.8280
C48_3 C 0.5451(2) 0.05979(9) 0.82261(10)
C55_3 C 0.5714(2) 0.08404(9) 0.84654(10)
In6_2 In 0.3750 0.8750 0.637266(8)
O19_3 O 0.35289(15) 0.91403(7) 0.68099(7)
O22_3 O 0.43868(14) 0.90677(6) 0.66256(7)
H26_3 H 0.5768 0.9993 0.7726
C49_3 C 0.3909(2) 0.95779(12) 0.73157(12)
H29_3 H 0.3527 0.9508 0.7331
C50_3 C 0.4147(2) 0.98007(11) 0.75446(12)
H30_3 H 0.3915 0.9878 0.7716
C51_3 C 0.4710(2) 0.99119(9) 0.75296(11)
C52_3 C 0.5047(2) 0.97951(10) 0.72680(11)
H31_3 H 0.5426 0.9870 0.7246
C53_3 C 0.4823(2) 0.95673(9) 0.70394(11)
H32_3 H 0.5057 0.9486 0.6871
C54_3 C 0.4268(2) 0.94633(10) 0.70610(10)
C56_3 C 0.4035(2) 0.92128(10) 0.68262(11)
In4_4 In 0.1250 0.6250 0.887266(8)
O13_4 O 0.12597(14) 0.58511(7) 0.84804(7)
O14_4 O 0.04151(13) 0.60229(6) 0.86414(6)
C29_4 C 0.0788(2) 0.53681(11) 0.80564(12)
H17_4 H 0.1186 0.5362 0.8091
C30_4 C 0.0536(3) 0.51481(11) 0.78359(13)
H18_3 H 0.0768 0.4993 0.7726
C34_4 C 0.0451(2) 0.55979(9) 0.82261(10)
C38_3 C 0.0047(2) 0.47951(10) 0.72680(11)
H23_3 H 0.0426 0.4870 0.7246
H24_3 H 0.0057 0.4486 0.6871
C41_4 C 0.0714(2) 0.58404(9) 0.84654(10)
O17_4 O 0.12403(14) 0.66489(7) 0.84804(7)
O18_4 O 0.20849(13) 0.64771(6) 0.86414(6)
O19_4 O 0.39711(15) 0.83597(7) 0.68099(7)
O20_4 O 0.10289(15) 0.58597(7) 0.93099(7)
O21_4 O 0.14711(15) 0.66403(7) 0.93099(7)
O22_4 O 0.31132(14) 0.84323(6) 0.66256(7)
O23_4 O 0.18868(14) 0.59323(6) 0.91256(7)
O24_4 O 0.06132(14) 0.65677(6) 0.91256(7)
C43_4 C 0.1712(2) 0.71319(11) 0.80564(12)
H25_4 H 0.1314 0.7138 0.8091
C44_4 C 0.1964(3) 0.73519(11) 0.78359(13)
H26_4 H 0.1732 0.7507 0.7726
C45_4 C 0.2551(2) 0.73491(10) 0.77726(11)
C46_4 C 0.2881(2) 0.71128(11) 0.79398(11)
H27_4 H 0.3276 0.7097 0.7900
C47_4 C 0.2627(2) 0.69034(11) 0.81635(11)
H28_4 H 0.2861 0.6753 0.8280
C48_4 C 0.2049(2) 0.69021(9) 0.82261(10)
C49_4 C 0.3591(2) 0.79221(12) 0.73157(12)
H29_4 H 0.3973 0.7992 0.7331
C50_4 C 0.3353(2) 0.76993(11) 0.75446(12)
H30_4 H 0.3585 0.7622 0.7716
C51_4 C 0.2790(2) 0.75881(9) 0.75296(11)
C52_4 C 0.2453(2) 0.77049(10) 0.72680(11)
H31_4 H 0.2074 0.7630 0.7246
C53_4 C 0.2677(2) 0.79327(9) 0.70394(11)
H32_4 H 0.2443 0.8014 0.6871
C54_4 C 0.3232(2) 0.80367(10) 0.70610(10)
C55_4 C 0.1786(2) 0.66596(9) 0.84654(10)
C56_4 C 0.3465(2) 0.82872(10) 0.68262(11)
O15_4 O 0.85289(15) 0.41403(7) 0.68099(7)
O16_4 O 0.93868(14) 0.40677(6) 0.66256(7)
C31_3 C 0.9949(2) 0.51509(10) 0.77726(11)
C32_3 C 0.9619(2) 0.53872(11) 0.79398(11)
H19_3 H 0.9224 0.5403 0.7900
C33_3 C 0.9873(2) 0.55966(11) 0.81635(11)
H20_3 H 0.9639 0.5747 0.8280
C35_4 C 0.8909(2) 0.45779(12) 0.73157(12)
H21_4 H 0.8527 0.4508 0.7331
C36_4 C 0.9147(2) 0.48007(11) 0.75446(12)
H22_4 H 0.8915 0.4878 0.7716
C37_4 C 0.9710(2) 0.49119(9) 0.75296(11)
C39_4 C 0.9823(2) 0.45673(9) 0.70394(11)
C40_4 C 0.9268(2) 0.44633(10) 0.70610(10)
C42_4 C 0.9035(2) 0.42128(10) 0.68262(11)
C31_4 C 0.0051(2) 0.26509(10) 0.52726(11)
C32_4 C 0.0381(2) 0.28872(11) 0.54398(11)
H19_4 H 0.0776 0.2903 0.5400
C33_4 C 0.0127(2) 0.30966(11) 0.56635(11)
H20_4 H 0.0361 0.3247 0.5780
C35_5 C 0.1091(2) 0.20779(12) 0.48157(12)
H21_5 H 0.1473 0.2008 0.4831
C36_5 C 0.0853(2) 0.23007(11) 0.50446(12)
H22_5 H 0.1085 0.2378 0.5216
C37_5 C 0.0290(2) 0.24119(9) 0.50296(11)
C39_5 C 0.0177(2) 0.20673(9) 0.45394(11)
C40_5 C 0.0732(2) 0.19633(10) 0.45610(10)
C42_5 C 0.0965(2) 0.17128(10) 0.43262(11)
O13_5 O 0.87403(14) 0.33511(7) 0.59804(7)
O14_5 O 0.95849(13) 0.35229(6) 0.61414(6)
C29_5 C 0.9212(2) 0.28681(11) 0.55564(12)
H17_5 H 0.8814 0.2862 0.5591
C30_5 C 0.9464(3) 0.26481(11) 0.53359(13)
H18_4 H 0.9232 0.2493 0.5226
C34_5 C 0.9549(2) 0.30979(9) 0.57261(10)
C38_4 C 0.9953(2) 0.22951(10) 0.47680(11)
H23_4 H 0.9574 0.2370 0.4746
H24_4 H 0.9943 0.1986 0.4371
C41_5 C 0.9286(2) 0.33404(9) 0.59654(10)
O17_5 O 0.87597(14) 0.41489(7) 0.59804(7)
O18_5 O 0.79151(13) 0.39771(6) 0.61414(6)
C43_5 C 0.8288(2) 0.46319(11) 0.55564(12)
H25_5 H 0.8686 0.4638 0.5591
C44_5 C 0.8036(3) 0.48519(11) 0.53359(13)
H26_5 H 0.8268 0.5007 0.5226
C45_5 C 0.7449(2) 0.48491(10) 0.52726(11)
C46_5 C 0.7119(2) 0.46128(11) 0.54398(11)
H27_5 H 0.6724 0.4597 0.5400
C47_5 C 0.7373(2) 0.44034(11) 0.56635(11)
H28_5 H 0.7139 0.4253 0.5780
C48_5 C 0.7951(2) 0.44021(9) 0.57261(10)
C49_5 C 0.6409(2) 0.54221(12) 0.48157(12)
H29_5 H 0.6027 0.5492 0.4831
C50_5 C 0.6647(2) 0.51993(11) 0.50446(12)
H30_5 H 0.6415 0.5122 0.5216
C51_5 C 0.7210(2) 0.50881(9) 0.50296(11)
C52_5 C 0.7547(2) 0.52049(10) 0.47680(11)
H31_5 H 0.7926 0.5130 0.4746
C53_5 C 0.7323(2) 0.54327(9) 0.45394(11)
H32_5 H 0.7557 0.5514 0.4371
C54_5 C 0.6768(2) 0.55367(10) 0.45610(10)
C55_5 C 0.8214(2) 0.41596(9) 0.59654(10)
C56_5 C 0.6535(2) 0.57872(10) 0.43262(11)
H18_5 H 0.3268 0.0007 0.5226
C35_6 C 0.1409(2) 0.04221(12) 0.48157(12)
H21_6 H 0.1027 0.0492 0.4831
C36_6 C 0.1647(2) 0.01993(11) 0.50446(12)
H22_6 H 0.1415 0.0122 0.5216
C37_6 C 0.2210(2) 0.00881(9) 0.50296(11)
C38_5 C 0.2547(2) 0.02049(10) 0.47680(11)
H23_5 H 0.2926 0.0130 0.4746
C39_6 C 0.2323(2) 0.04327(9) 0.45394(11)
H24_5 H 0.2557 0.0514 0.4371
C40_6 C 0.1768(2) 0.05367(10) 0.45610(10)
C42_6 C 0.1535(2) 0.07872(10) 0.43262(11)
O13_6 O 0.37597(14) 0.91489(7) 0.59804(7)
O14_6 O 0.29151(13) 0.89771(6) 0.61414(6)
C29_6 C 0.3288(2) 0.96319(11) 0.55564(12)
H17_6 H 0.3686 0.9638 0.5591
C30_6 C 0.3036(3) 0.98519(11) 0.53359(13)
C31_5 C 0.2449(2) 0.98491(10) 0.52726(11)
C32_5 C 0.2119(2) 0.96128(11) 0.54398(11)
H19_5 H 0.1724 0.9597 0.5400
C33_5 C 0.2373(2) 0.94034(11) 0.56635(11)
H20_5 H 0.2139 0.9253 0.5780
C34_6 C 0.2951(2) 0.94021(9) 0.57261(10)
C41_6 C 0.3214(2) 0.91596(9) 0.59654(10)
O17_6 O 0.37403(14) 0.83511(7) 0.59804(7)
O18_6 O 0.45849(13) 0.85229(6) 0.61414(6)
C43_6 C 0.4212(2) 0.78681(11) 0.55564(12)
H25_6 H 0.3814 0.7862 0.5591
C44_6 C 0.4464(3) 0.76481(11) 0.53359(13)
H26_6 H 0.4232 0.7493 0.5226
C45_6 C 0.5051(2) 0.76509(10) 0.52726(11)
C46_6 C 0.5381(2) 0.78872(11) 0.54398(11)
H27_6 H 0.5776 0.7903 0.5400
C47_6 C 0.5127(2) 0.80966(11) 0.56635(11)
H28_6 H 0.5361 0.8247 0.5780
C48_6 C 0.4549(2) 0.80979(9) 0.57261(10)
C49_6 C 0.6091(2) 0.70779(12) 0.48157(12)
H29_6 H 0.6473 0.7008 0.4831
C50_6 C 0.5853(2) 0.73007(11) 0.50446(12)
H30_6 H 0.6085 0.7378 0.5216
C51_6 C 0.5290(2) 0.74119(9) 0.50296(11)
C52_6 C 0.4953(2) 0.72951(10) 0.47680(11)
H31_6 H 0.4574 0.7370 0.4746
C53_6 C 0.5177(2) 0.70673(9) 0.45394(11)
H32_6 H 0.4943 0.6986 0.4371
C54_6 C 0.5732(2) 0.69633(10) 0.45610(10)
C55_6 C 0.4286(2) 0.83404(9) 0.59654(10)
C56_6 C 0.5965(2) 0.67128(10) 0.43262(11)
C35_7 C 0.1091(2) 0.70779(12) 0.98157(12)
H21_7 H 0.1473 0.7008 0.9831
C39_7 C 0.0177(2) 0.70673(9) 0.95394(11)
C40_7 C 0.0732(2) 0.69633(10) 0.95610(10)
C42_7 C 0.0965(2) 0.67128(10) 0.93262(11)
C49_7 C 0.6409(2) 0.04221(12) 0.98157(12)
H29_7 H 0.6027 0.0492 0.9831
C52_7 C 0.7547(2) 0.02049(10) 0.97680(11)
H31_7 H 0.7926 0.0130 0.9746
C53_7 C 0.7323(2) 0.04327(9) 0.95394(11)
H32_7 H 0.7557 0.0514 0.9371
C54_7 C 0.6768(2) 0.05367(10) 0.95610(10)
C56_7 C 0.6535(2) 0.07872(10) 0.93262(11)
O13_7 O 0.87403(14) 0.83511(7) 0.09804(7)
O14_7 O 0.95849(13) 0.85229(6) 0.11414(6)
C29_7 C 0.9212(2) 0.78681(11) 0.05564(12)
H17_7 H 0.8814 0.7862 0.0591
C30_7 C 0.9464(3) 0.76481(11) 0.03359(13)
H18_6 H 0.9232 0.7493 0.0226
C34_7 C 0.9549(2) 0.80979(9) 0.07261(10)
C41_7 C 0.9286(2) 0.83404(9) 0.09654(10)
O17_7 O 0.87597(14) 0.91489(7) 0.09804(7)
O18_7 O 0.79151(13) 0.89771(6) 0.11414(6)
C43_7 C 0.8288(2) 0.96319(11) 0.05564(12)
H25_7 H 0.8686 0.9638 0.0591
C44_7 C 0.8036(3) 0.98519(11) 0.03359(13)
C45_7 C 0.7449(2) 0.98491(10) 0.02726(11)
C46_7 C 0.7119(2) 0.96128(11) 0.04398(11)
H27_7 H 0.6724 0.9597 0.0400
C47_7 C 0.7373(2) 0.94034(11) 0.06635(11)
H28_7 H 0.7139 0.9253 0.0780
C48_7 C 0.7951(2) 0.94021(9) 0.07261(10)
C55_7 C 0.8214(2) 0.91596(9) 0.09654(10)
O13_8 O 0.37597(14) 0.41489(7) 0.09804(7)
O14_8 O 0.29151(13) 0.39771(6) 0.11414(6)
C29_8 C 0.3288(2) 0.46319(11) 0.05564(12)
H17_8 H 0.3686 0.4638 0.0591
C30_8 C 0.3036(3) 0.48519(11) 0.03359(13)
H18_7 H 0.3268 0.5007 0.0226
C31_6 C 0.2449(2) 0.48491(10) 0.02726(11)
C32_6 C 0.2119(2) 0.46128(11) 0.04398(11)
H19_6 H 0.1724 0.4597 0.0400
C33_6 C 0.2373(2) 0.44034(11) 0.06635(11)
H20_6 H 0.2139 0.4253 0.0780
C34_8 C 0.2951(2) 0.44021(9) 0.07261(10)
C36_7 C 0.1647(2) 0.51993(11) 0.00446(12)
H22_7 H 0.1415 0.5122 0.0216
C37_7 C 0.2210(2) 0.50881(9) 0.00296(11)
C41_8 C 0.3214(2) 0.41596(9) 0.09654(10)
O17_8 O 0.37403(14) 0.33511(7) 0.09804(7)
O18_8 O 0.45849(13) 0.35229(6) 0.11414(6)
C43_8 C 0.4212(2) 0.28681(11) 0.05564(12)
H25_8 H 0.3814 0.2862 0.0591
C44_8 C 0.4464(3) 0.26481(11) 0.03359(13)
H26_7 H 0.4232 0.2493 0.0226
C45_8 C 0.5051(2) 0.26509(10) 0.02726(11)
C46_8 C 0.5381(2) 0.28872(11) 0.04398(11)
H27_8 H 0.5776 0.2903 0.0400
C47_8 C 0.5127(2) 0.30966(11) 0.06635(11)
H28_8 H 0.5361 0.3247 0.0780
C48_8 C 0.4549(2) 0.30979(9) 0.07261(10)
C50_7 C 0.5853(2) 0.23007(11) 0.00446(12)
H30_7 H 0.6085 0.2378 0.0216
C51_7 C 0.5290(2) 0.24119(9) 0.00296(11)
C55_8 C 0.4286(2) 0.33404(9) 0.09654(10)
C35_8 C 0.1409(2) 0.54221(12) 0.98157(12)
H21_8 H 0.1027 0.5492 0.9831
C38_6 C 0.2547(2) 0.52049(10) 0.97680(11)
H23_6 H 0.2926 0.5130 0.9746
C39_8 C 0.2323(2) 0.54327(9) 0.95394(11)
H24_6 H 0.2557 0.5514 0.9371
C40_8 C 0.1768(2) 0.55367(10) 0.95610(10)
C42_8 C 0.1535(2) 0.57872(10) 0.93262(11)
C49_8 C 0.6091(2) 0.20779(12) 0.98157(12)
H29_8 H 0.6473 0.2008 0.9831
C52_8 C 0.4953(2) 0.22951(10) 0.97680(11)
H31_8 H 0.4574 0.2370 0.9746
C53_8 C 0.5177(2) 0.20673(9) 0.95394(11)
H32_8 H 0.4943 0.1986 0.9371
C54_8 C 0.5732(2) 0.19633(10) 0.95610(10)
C56_8 C 0.5965(2) 0.17128(10) 0.93262(11)
H18_8 H 0.0768 0.9993 0.2726
C38_7 C 0.0047(2) 0.97951(10) 0.22680(11)
H23_7 H 0.0426 0.9870 0.2246
H24_7 H 0.0057 0.9486 0.1871
C31_7 C 0.9949(2) 0.01509(10) 0.27726(11)
C32_7 C 0.9619(2) 0.03872(11) 0.29398(11)
H19_7 H 0.9224 0.0403 0.2900
C33_7 C 0.9873(2) 0.05966(11) 0.31635(11)
H20_7 H 0.9639 0.0747 0.3280
In4_5 In 0.1250 0.6250 0.362734(8)
O13_9 O 0.12597(14) 0.66489(7) 0.40196(7)
O14_9 O 0.04151(13) 0.64771(6) 0.38586(6)
C29_9 C 0.0788(2) 0.71319(11) 0.44436(12)
H17_9 H 0.1186 0.7138 0.4409
C30_9 C 0.0536(3) 0.73519(11) 0.46641(13)
H18_9 H 0.0768 0.7507 0.4774
C34_9 C 0.0451(2) 0.69021(9) 0.42739(10)
C38_8 C 0.0047(2) 0.77049(10) 0.52320(11)
H23_8 H 0.0426 0.7630 0.5254
H24_8 H 0.0057 0.8014 0.5629
C41_9 C 0.0714(2) 0.66596(9) 0.40346(10)
In6_3 In 0.3750 0.3750 0.612734(8)
O17_9 O 0.12403(14) 0.58511(7) 0.40196(7)
O18_9 O 0.20849(13) 0.60229(6) 0.38586(6)
O19_5 O 0.39711(15) 0.41403(7) 0.56901(7)
O20_5 O 0.10289(15) 0.66403(7) 0.31901(7)
O21_5 O 0.14711(15) 0.58597(7) 0.31901(7)
O22_5 O 0.31132(14) 0.40677(6) 0.58744(7)
O23_5 O 0.18868(14) 0.65677(6) 0.33744(7)
O24_5 O 0.06132(14) 0.59323(6) 0.33744(7)
C43_9 C 0.1712(2) 0.53681(11) 0.44436(12)
H25_9 H 0.1314 0.5362 0.4409
C44_9 C 0.1964(3) 0.51481(11) 0.46641(13)
H26_8 H 0.1732 0.4993 0.4774
C45_9 C 0.2551(2) 0.51509(10) 0.47274(11)
C46_9 C 0.2881(2) 0.53872(11) 0.45602(11)
H27_9 H 0.3276 0.5403 0.4600
C47_9 C 0.2627(2) 0.55966(11) 0.43365(11)
H28_9 H 0.2861 0.5747 0.4220
C48_9 C 0.2049(2) 0.55979(9) 0.42739(10)
C49_9 C 0.3591(2) 0.45779(12) 0.51843(12)
H29_9 H 0.3973 0.4508 0.5169
C50_8 C 0.3353(2) 0.48007(11) 0.49554(12)
H30_8 H 0.3585 0.4878 0.4784
C51_8 C 0.2790(2) 0.49119(9) 0.49704(11)
C52_9 C 0.2453(2) 0.47951(10) 0.52320(11)
H31_9 H 0.2074 0.4870 0.5254
C53_9 C 0.2677(2) 0.45673(9) 0.54606(11)
H32_9 H 0.2443 0.4486 0.5629
C54_9 C 0.3232(2) 0.44633(10) 0.54390(10)
C55_9 C 0.1786(2) 0.58404(9) 0.40346(10)
C56_9 C 0.3465(2) 0.42128(10) 0.56738(11)
O15_5 O 0.85289(15) 0.83597(7) 0.56901(7)
O16_5 O 0.93868(14) 0.84323(6) 0.58744(7)
C31_8 C 0.9949(2) 0.73491(10) 0.47274(11)
C32_8 C 0.9619(2) 0.71128(11) 0.45602(11)
H19_8 H 0.9224 0.7097 0.4600
C33_8 C 0.9873(2) 0.69034(11) 0.43365(11)
H20_8 H 0.9639 0.6753 0.4220
C35_9 C 0.8909(2) 0.79221(12) 0.51843(12)
H21_9 H 0.8527 0.7992 0.5169
C36_8 C 0.9147(2) 0.76993(11) 0.49554(12)
H22_8 H 0.8915 0.7622 0.4784
C37_8 C 0.9710(2) 0.75881(9) 0.49704(11)
C39_9 C 0.9823(2) 0.79327(9) 0.54606(11)
C40_9 C 0.9268(2) 0.80367(10) 0.54390(10)
C42_9 C 0.9035(2) 0.82872(10) 0.56738(11)
In5_3 In 0.8750 0.8750 0.612734(8)
In4_6 In 0.6250 0.1250 0.362734(8)
O13_10 O 0.62403(14) 0.08511(7) 0.40196(7)
O14_10 O 0.70849(13) 0.10229(6) 0.38586(6)
C29_10 C 0.6712(2) 0.03681(11) 0.44436(12)
H17_10 H 0.6314 0.0362 0.4409
C30_10 C 0.6964(3) 0.01481(11) 0.46641(13)
C31_9 C 0.7551(2) 0.01509(10) 0.47274(11)
C32_9 C 0.7881(2) 0.03872(11) 0.45602(11)
H19_9 H 0.8276 0.0403 0.4600
C33_9 C 0.7627(2) 0.05966(11) 0.43365(11)
H20_9 H 0.7861 0.0747 0.4220
C34_10 C 0.7049(2) 0.05979(9) 0.42739(10)
C41_10 C 0.6786(2) 0.08404(9) 0.40346(10)
O17_10 O 0.62597(14) 0.16489(7) 0.40196(7)
O18_10 O 0.54151(13) 0.14771(6) 0.38586(6)
O19_6 O 0.35289(15) 0.33597(7) 0.56901(7)
O20_6 O 0.64711(15) 0.08597(7) 0.31901(7)
O21_6 O 0.60289(15) 0.16403(7) 0.31901(7)
O22_6 O 0.43868(14) 0.34323(6) 0.58744(7)
O23_6 O 0.56132(14) 0.09323(6) 0.33744(7)
O24_6 O 0.68868(14) 0.15677(6) 0.33744(7)
C43_10 C 0.5788(2) 0.21319(11) 0.44436(12)
H25_10 H 0.6186 0.2138 0.4409
C44_10 C 0.5536(3) 0.23519(11) 0.46641(13)
H26_9 H 0.5768 0.2507 0.4774
C45_10 C 0.4949(2) 0.23491(10) 0.47274(11)
C46_10 C 0.4619(2) 0.21128(11) 0.45602(11)
H27_10 H 0.4224 0.2097 0.4600
C47_10 C 0.4873(2) 0.19034(11) 0.43365(11)
H28_10 H 0.4639 0.1753 0.4220
C48_10 C 0.5451(2) 0.19021(9) 0.42739(10)
C49_10 C 0.3909(2) 0.29221(12) 0.51843(12)
H29_10 H 0.3527 0.2992 0.5169
C50_9 C 0.4147(2) 0.26993(11) 0.49554(12)
H30_9 H 0.3915 0.2622 0.4784
C51_9 C 0.4710(2) 0.25881(9) 0.49704(11)
C52_10 C 0.5047(2) 0.27049(10) 0.52320(11)
H31_10 H 0.5426 0.2630 0.5254
C53_10 C 0.4823(2) 0.29327(9) 0.54606(11)
H32_10 H 0.5057 0.3014 0.5629
C54_10 C 0.4268(2) 0.30367(10) 0.54390(10)
C55_10 C 0.5714(2) 0.16596(9) 0.40346(10)
C56_10 C 0.4035(2) 0.32872(10) 0.56738(11)
O15_6 O 0.89711(15) 0.91403(7) 0.56901(7)
O16_6 O 0.81132(14) 0.90677(6) 0.58744(7)
H18_10 H 0.6732 0.9993 0.4774
C35_10 C 0.8591(2) 0.95779(12) 0.51843(12)
H21_10 H 0.8973 0.9508 0.5169
C36_9 C 0.8353(2) 0.98007(11) 0.49554(12)
H22_9 H 0.8585 0.9878 0.4784
C37_9 C 0.7790(2) 0.99119(9) 0.49704(11)
C38_9 C 0.7453(2) 0.97951(10) 0.52320(11)
H23_9 H 0.7074 0.9870 0.5254
C39_10 C 0.7677(2) 0.95673(9) 0.54606(11)
H24_9 H 0.7443 0.9486 0.5629
C40_10 C 0.8232(2) 0.94633(10) 0.54390(10)
C42_10 C 0.8465(2) 0.92128(10) 0.56738(11)
In4_7 In 0.1250 0.1250 0.862734(8)
O13_11 O 0.12597(14) 0.16489(7) 0.90196(7)
O14_11 O 0.04151(13) 0.14771(6) 0.88586(6)
C29_11 C 0.0788(2) 0.21319(11) 0.94436(12)
H17_11 H 0.1186 0.2138 0.9409
C30_11 C 0.0536(3) 0.23519(11) 0.96641(13)
H18_11 H 0.0768 0.2507 0.9774
C34_11 C 0.0451(2) 0.19021(9) 0.92739(10)
C41_11 C 0.0714(2) 0.16596(9) 0.90346(10)
O17_11 O 0.12403(14) 0.08511(7) 0.90196(7)
O18_11 O 0.20849(13) 0.10229(6) 0.88586(6)
O20_7 O 0.10289(15) 0.16403(7) 0.81901(7)
O21_7 O 0.14711(15) 0.08597(7) 0.81901(7)
O23_7 O 0.18868(14) 0.15677(6) 0.83744(7)
O24_7 O 0.06132(14) 0.09323(6) 0.83744(7)
C43_11 C 0.1712(2) 0.03681(11) 0.94436(12)
H25_11 H 0.1314 0.0362 0.9409
C44_11 C 0.1964(3) 0.01481(11) 0.96641(13)
C45_11 C 0.2551(2) 0.01509(10) 0.97274(11)
C46_11 C 0.2881(2) 0.03872(11) 0.95602(11)
H27_11 H 0.3276 0.0403 0.9600
C47_11 C 0.2627(2) 0.05966(11) 0.93365(11)
H28_11 H 0.2861 0.0747 0.9220
C48_11 C 0.2049(2) 0.05979(9) 0.92739(10)
C55_11 C 0.1786(2) 0.08404(9) 0.90346(10)
In6_4 In 0.3750 0.8750 0.112734(8)
O19_7 O 0.39711(15) 0.91403(7) 0.06901(7)
O22_7 O 0.31132(14) 0.90677(6) 0.08744(7)
C49_11 C 0.3591(2) 0.95779(12) 0.01843(12)
H29_11 H 0.3973 0.9508 0.0169
C52_11 C 0.2453(2) 0.97951(10) 0.02320(11)
H31_11 H 0.2074 0.9870 0.0254
C53_11 C 0.2677(2) 0.95673(9) 0.04606(11)
H32_11 H 0.2443 0.9486 0.0629
C54_11 C 0.3232(2) 0.94633(10) 0.04390(10)
C56_11 C 0.3465(2) 0.92128(10) 0.06738(11)
O15_7 O 0.85289(15) 0.33597(7) 0.06901(7)
O16_7 O 0.93868(14) 0.34323(6) 0.08744(7)
C35_11 C 0.8909(2) 0.29221(12) 0.01843(12)
H21_11 H 0.8527 0.2992 0.0169
C39_11 C 0.9823(2) 0.29327(9) 0.04606(11)
C40_11 C 0.9268(2) 0.30367(10) 0.04390(10)
C42_11 C 0.9035(2) 0.32872(10) 0.06738(11)
In5_4 In 0.8750 0.3750 0.112734(8)
O15_8 O 0.89711(15) 0.41403(7) 0.06901(7)
O16_8 O 0.81132(14) 0.40677(6) 0.08744(7)
C35_12 C 0.8591(2) 0.45779(12) 0.01843(12)
H21_12 H 0.8973 0.4508 0.0169
C38_10 C 0.7453(2) 0.47951(10) 0.02320(11)
H23_10 H 0.7074 0.4870 0.0254
C39_12 C 0.7677(2) 0.45673(9) 0.04606(11)
H24_10 H 0.7443 0.4486 0.0629
C40_12 C 0.8232(2) 0.44633(10) 0.04390(10)
C42_12 C 0.8465(2) 0.42128(10) 0.06738(11)
O19_8 O 0.35289(15) 0.83597(7) 0.06901(7)
O22_8 O 0.43868(14) 0.84323(6) 0.08744(7)
C49_12 C 0.3909(2) 0.79221(12) 0.01843(12)
H29_12 H 0.3527 0.7992 0.0169
C52_12 C 0.5047(2) 0.77049(10) 0.02320(11)
H31_12 H 0.5426 0.7630 0.0254
C53_12 C 0.4823(2) 0.79327(9) 0.04606(11)
H32_12 H 0.5057 0.8014 0.0629
C54_12 C 0.4268(2) 0.80367(10) 0.04390(10)
C56_12 C 0.4035(2) 0.82872(10) 0.06738(11)
In4_8 In 0.6250 0.6250 0.862734(8)
O13_12 O 0.62403(14) 0.58511(7) 0.90196(7)
O14_12 O 0.70849(13) 0.60229(6) 0.88586(6)
C29_12 C 0.6712(2) 0.53681(11) 0.94436(12)
H17_12 H 0.6314 0.5362 0.9409
C30_12 C 0.6964(3) 0.51481(11) 0.96641(13)
H18_12 H 0.6732 0.4993 0.9774
C31_10 C 0.7551(2) 0.51509(10) 0.97274(11)
C32_10 C 0.7881(2) 0.53872(11) 0.95602(11)
H19_10 H 0.8276 0.5403 0.9600
C33_10 C 0.7627(2) 0.55966(11) 0.93365(11)
H20_10 H 0.7861 0.5747 0.9220
C34_12 C 0.7049(2) 0.55979(9) 0.92739(10)
C36_10 C 0.8353(2) 0.48007(11) 0.99554(12)
H22_10 H 0.8585 0.4878 0.9784
C37_10 C 0.7790(2) 0.49119(9) 0.99704(11)
C41_12 C 0.6786(2) 0.58404(9) 0.90346(10)
O17_12 O 0.62597(14) 0.66489(7) 0.90196(7)
O18_12 O 0.54151(13) 0.64771(6) 0.88586(6)
O20_8 O 0.64711(15) 0.58597(7) 0.81901(7)
O21_8 O 0.60289(15) 0.66403(7) 0.81901(7)
O23_8 O 0.56132(14) 0.59323(6) 0.83744(7)
O24_8 O 0.68868(14) 0.65677(6) 0.83744(7)
C43_12 C 0.5788(2) 0.71319(11) 0.94436(12)
H25_12 H 0.6186 0.7138 0.9409
C44_12 C 0.5536(3) 0.73519(11) 0.96641(13)
H26_10 H 0.5768 0.7507 0.9774
C45_12 C 0.4949(2) 0.73491(10) 0.97274(11)
C46_12 C 0.4619(2) 0.71128(11) 0.95602(11)
H27_12 H 0.4224 0.7097 0.9600
C47_12 C 0.4873(2) 0.69034(11) 0.93365(11)
H28_12 H 0.4639 0.6753 0.9220
C48_12 C 0.5451(2) 0.69021(9) 0.92739(10)
C50_10 C 0.4147(2) 0.76993(11) 0.99554(12)
H30_10 H 0.3915 0.7622 0.9784
C51_10 C 0.4710(2) 0.75881(9) 0.99704(11)
C55_12 C 0.5714(2) 0.66596(9) 0.90346(10)
O13_13 O 0.37597(14) 0.33511(7) 0.65196(7)
O14_13 O 0.29151(13) 0.35229(6) 0.63586(6)
C29_13 C 0.3288(2) 0.28681(11) 0.69436(12)
H17_13 H 0.3686 0.2862 0.6909
C30_13 C 0.3036(3) 0.26481(11) 0.71641(13)
H18_13 H 0.3268 0.2493 0.7274
C31_11 C 0.2449(2) 0.26509(10) 0.72274(11)
C32_11 C 0.2119(2) 0.28872(11) 0.70602(11)
H19_11 H 0.1724 0.2903 0.7100
C33_11 C 0.2373(2) 0.30966(11) 0.68365(11)
H20_11 H 0.2139 0.3247 0.6720
C34_13 C 0.2951(2) 0.30979(9) 0.67739(10)
C35_13 C 0.1409(2) 0.20779(12) 0.76843(12)
H21_13 H 0.1027 0.2008 0.7669
C36_11 C 0.1647(2) 0.23007(11) 0.74554(12)
H22_11 H 0.1415 0.2378 0.7284
C37_11 C 0.2210(2) 0.24119(9) 0.74704(11)
C38_11 C 0.2547(2) 0.22951(10) 0.77320(11)
H23_11 H 0.2926 0.2370 0.7754
C39_13 C 0.2323(2) 0.20673(9) 0.79606(11)
H24_11 H 0.2557 0.1986 0.8129
C40_13 C 0.1768(2) 0.19633(10) 0.79390(10)
C41_13 C 0.3214(2) 0.33404(9) 0.65346(10)
C42_13 C 0.1535(2) 0.17128(10) 0.81738(11)
O17_13 O 0.37403(14) 0.41489(7) 0.65196(7)
O18_13 O 0.45849(13) 0.39771(6) 0.63586(6)
C43_13 C 0.4212(2) 0.46319(11) 0.69436(12)
H25_13 H 0.3814 0.4638 0.6909
C44_13 C 0.4464(3) 0.48519(11) 0.71641(13)
H26_11 H 0.4232 0.5007 0.7274
C45_13 C 0.5051(2) 0.48491(10) 0.72274(11)
C46_13 C 0.5381(2) 0.46128(11) 0.70602(11)
H27_13 H 0.5776 0.4597 0.7100
C47_13 C 0.5127(2) 0.44034(11) 0.68365(11)
H28_13 H 0.5361 0.4253 0.6720
C48_13 C 0.4549(2) 0.44021(9) 0.67739(10)
C49_13 C 0.6091(2) 0.54221(12) 0.76843(12)
H29_13 H 0.6473 0.5492 0.7669
C50_11 C 0.5853(2) 0.51993(11) 0.74554(12)
H30_11 H 0.6085 0.5122 0.7284
C51_11 C 0.5290(2) 0.50881(9) 0.74704(11)
C52_13 C 0.4953(2) 0.52049(10) 0.77320(11)
H31_13 H 0.4574 0.5130 0.7754
C53_13 C 0.5177(2) 0.54327(9) 0.79606(11)
H32_13 H 0.4943 0.5514 0.8129
C54_13 C 0.5732(2) 0.55367(10) 0.79390(10)
C55_13 C 0.4286(2) 0.41596(9) 0.65346(10)
C56_13 C 0.5965(2) 0.57872(10) 0.81738(11)
C35_14 C 0.1091(2) 0.04221(12) 0.76843(12)
H21_14 H 0.1473 0.0492 0.7669
C36_12 C 0.0853(2) 0.01993(11) 0.74554(12)
H22_12 H 0.1085 0.0122 0.7284
C37_12 C 0.0290(2) 0.00881(9) 0.74704(11)
C39_14 C 0.0177(2) 0.04327(9) 0.79606(11)
C40_14 C 0.0732(2) 0.05367(10) 0.79390(10)
C42_14 C 0.0965(2) 0.07872(10) 0.81738(11)
O13_14 O 0.87403(14) 0.91489(7) 0.65196(7)
O14_14 O 0.95849(13) 0.89771(6) 0.63586(6)
C29_14 C 0.9212(2) 0.96319(11) 0.69436(12)
H17_14 H 0.8814 0.9638 0.6909
C30_14 C 0.9464(3) 0.98519(11) 0.71641(13)
C34_14 C 0.9549(2) 0.94021(9) 0.67739(10)
C41_14 C 0.9286(2) 0.91596(9) 0.65346(10)
O17_14 O 0.87597(14) 0.83511(7) 0.65196(7)
O18_14 O 0.79151(13) 0.85229(6) 0.63586(6)
C43_14 C 0.8288(2) 0.78681(11) 0.69436(12)
H25_14 H 0.8686 0.7862 0.6909
C44_14 C 0.8036(3) 0.76481(11) 0.71641(13)
H26_12 H 0.8268 0.7493 0.7274
C45_14 C 0.7449(2) 0.76509(10) 0.72274(11)
C46_14 C 0.7119(2) 0.78872(11) 0.70602(11)
H27_14 H 0.6724 0.7903 0.7100
C47_14 C 0.7373(2) 0.80966(11) 0.68365(11)
H28_14 H 0.7139 0.8247 0.6720
C48_14 C 0.7951(2) 0.80979(9) 0.67739(10)
C49_14 C 0.6409(2) 0.70779(12) 0.76843(12)
H29_14 H 0.6027 0.7008 0.7669
C50_12 C 0.6647(2) 0.73007(11) 0.74554(12)
H30_12 H 0.6415 0.7378 0.7284
C51_12 C 0.7210(2) 0.74119(9) 0.74704(11)
C52_14 C 0.7547(2) 0.72951(10) 0.77320(11)
H31_14 H 0.7926 0.7370 0.7754
C53_14 C 0.7323(2) 0.70673(9) 0.79606(11)
H32_14 H 0.7557 0.6986 0.8129
C54_14 C 0.6768(2) 0.69633(10) 0.79390(10)
C55_14 C 0.8214(2) 0.83404(9) 0.65346(10)
C56_14 C 0.6535(2) 0.67128(10) 0.81738(11)
H26_13 H 0.4232 0.0007 0.2274
C49_15 C 0.6091(2) 0.04221(12) 0.26843(12)
H29_15 H 0.6473 0.0492 0.2669
C50_13 C 0.5853(2) 0.01993(11) 0.24554(12)
H30_13 H 0.6085 0.0122 0.2284
C51_13 C 0.5290(2) 0.00881(9) 0.24704(11)
C52_15 C 0.4953(2) 0.02049(10) 0.27320(11)
H31_15 H 0.4574 0.0130 0.2754
C53_15 C 0.5177(2) 0.04327(9) 0.29606(11)
H32_15 H 0.4943 0.0514 0.3129
C54_15 C 0.5732(2) 0.05367(10) 0.29390(10)
C56_15 C 0.5965(2) 0.07872(10) 0.31738(11)
O13_15 O 0.37597(14) 0.83511(7) 0.15196(7)
O14_15 O 0.29151(13) 0.85229(6) 0.13586(6)
C29_15 C 0.3288(2) 0.78681(11) 0.19436(12)
H17_15 H 0.3686 0.7862 0.1909
C30_15 C 0.3036(3) 0.76481(11) 0.21641(13)
H18_14 H 0.3268 0.7493 0.2274
C31_12 C 0.2449(2) 0.76509(10) 0.22274(11)
C32_12 C 0.2119(2) 0.78872(11) 0.20602(11)
H19_12 H 0.1724 0.7903 0.2100
C33_12 C 0.2373(2) 0.80966(11) 0.18365(11)
H20_12 H 0.2139 0.8247 0.1720
C34_15 C 0.2951(2) 0.80979(9) 0.17739(10)
C35_15 C 0.1409(2) 0.70779(12) 0.26843(12)
H21_15 H 0.1027 0.7008 0.2669
C36_13 C 0.1647(2) 0.73007(11) 0.24554(12)
H22_13 H 0.1415 0.7378 0.2284
C37_13 C 0.2210(2) 0.74119(9) 0.24704(11)
C38_12 C 0.2547(2) 0.72951(10) 0.27320(11)
H23_12 H 0.2926 0.7370 0.2754
C39_15 C 0.2323(2) 0.70673(9) 0.29606(11)
H24_12 H 0.2557 0.6986 0.3129
C40_15 C 0.1768(2) 0.69633(10) 0.29390(10)
C41_15 C 0.3214(2) 0.83404(9) 0.15346(10)
C42_15 C 0.1535(2) 0.67128(10) 0.31738(11)
O17_15 O 0.37403(14) 0.91489(7) 0.15196(7)
O18_15 O 0.45849(13) 0.89771(6) 0.13586(6)
C43_15 C 0.4212(2) 0.96319(11) 0.19436(12)
H25_15 H 0.3814 0.9638 0.1909
C44_15 C 0.4464(3) 0.98519(11) 0.21641(13)
C45_15 C 0.5051(2) 0.98491(10) 0.22274(11)
C46_15 C 0.5381(2) 0.96128(11) 0.20602(11)
H27_15 H 0.5776 0.9597 0.2100
C47_15 C 0.5127(2) 0.94034(11) 0.18365(11)
H28_15 H 0.5361 0.9253 0.1720
C48_15 C 0.4549(2) 0.94021(9) 0.17739(10)
C55_15 C 0.4286(2) 0.91596(9) 0.15346(10)
C31_13 C 0.0051(2) 0.48491(10) 0.22274(11)
C32_13 C 0.0381(2) 0.46128(11) 0.20602(11)
H19_13 H 0.0776 0.4597 0.2100
C33_13 C 0.0127(2) 0.44034(11) 0.18365(11)
H20_13 H 0.0361 0.4253 0.1720
C35_16 C 0.1091(2) 0.54221(12) 0.26843(12)
H21_16 H 0.1473 0.5492 0.2669
C36_14 C 0.0853(2) 0.51993(11) 0.24554(12)
H22_14 H 0.1085 0.5122 0.2284
C37_14 C 0.0290(2) 0.50881(9) 0.24704(11)
C39_16 C 0.0177(2) 0.54327(9) 0.29606(11)
C40_16 C 0.0732(2) 0.55367(10) 0.29390(10)
C42_16 C 0.0965(2) 0.57872(10) 0.31738(11)
O13_16 O 0.87403(14) 0.41489(7) 0.15196(7)
O14_16 O 0.95849(13) 0.39771(6) 0.13586(6)
C29_16 C 0.9212(2) 0.46319(11) 0.19436(12)
H17_16 H 0.8814 0.4638 0.1909
C30_16 C 0.9464(3) 0.48519(11) 0.21641(13)
H18_15 H 0.9232 0.5007 0.2274
C34_16 C 0.9549(2) 0.44021(9) 0.17739(10)
C38_13 C 0.9953(2) 0.52049(10) 0.27320(11)
H23_13 H 0.9574 0.5130 0.2754
H24_13 H 0.9943 0.5514 0.3129
C41_16 C 0.9286(2) 0.41596(9) 0.15346(10)
O17_16 O 0.87597(14) 0.33511(7) 0.15196(7)
O18_16 O 0.79151(13) 0.35229(6) 0.13586(6)
C43_16 C 0.8288(2) 0.28681(11) 0.19436(12)
H25_16 H 0.8686 0.2862 0.1909
C44_16 C 0.8036(3) 0.26481(11) 0.21641(13)
H26_14 H 0.8268 0.2493 0.2274
C45_16 C 0.7449(2) 0.26509(10) 0.22274(11)
C46_16 C 0.7119(2) 0.28872(11) 0.20602(11)
H27_16 H 0.6724 0.2903 0.2100
C47_16 C 0.7373(2) 0.30966(11) 0.18365(11)
H28_16 H 0.7139 0.3247 0.1720
C48_16 C 0.7951(2) 0.30979(9) 0.17739(10)
C49_16 C 0.6409(2) 0.20779(12) 0.26843(12)
H29_16 H 0.6027 0.2008 0.2669
C50_14 C 0.6647(2) 0.23007(11) 0.24554(12)
H30_14 H 0.6415 0.2378 0.2284
C51_14 C 0.7210(2) 0.24119(9) 0.24704(11)
C52_16 C 0.7547(2) 0.22951(10) 0.27320(11)
H31_16 H 0.7926 0.2370 0.2754
C53_16 C 0.7323(2) 0.20673(9) 0.29606(11)
H32_16 H 0.7557 0.1986 0.3129
C54_16 C 0.6768(2) 0.19633(10) 0.29390(10)
C55_16 C 0.8214(2) 0.33404(9) 0.15346(10)
C56_16 C 0.6535(2) 0.17128(10) 0.31738(11)
C38_14 C 0.0047(2) 0.27049(10) 0.02320(11)
H23_14 H 0.0426 0.2630 0.0254
H24_14 H 0.0057 0.3014 0.0629
H26_15 H 0.1732 0.9993 0.9774
C50_15 C 0.3353(2) 0.98007(11) 0.99554(12)
H30_15 H 0.3585 0.9878 0.9784
C51_15 C 0.2790(2) 0.99119(9) 0.99704(11)
C31_14 C 0.9949(2) 0.23491(10) 0.97274(11)
C32_14 C 0.9619(2) 0.21128(11) 0.95602(11)
H19_14 H 0.9224 0.2097 0.9600
C33_14 C 0.9873(2) 0.19034(11) 0.93365(11)
H20_14 H 0.9639 0.1753 0.9220
C36_15 C 0.9147(2) 0.26993(11) 0.99554(12)
H22_15 H 0.8915 0.2622 0.9784
C37_15 C 0.9710(2) 0.25881(9) 0.99704(11)
C31_15 C 0.0051(2) 0.98491(10) 0.72274(11)
C32_15 C 0.0381(2) 0.96128(11) 0.70602(11)
H19_15 H 0.0776 0.9597 0.7100
C33_15 C 0.0127(2) 0.94034(11) 0.68365(11)
H20_15 H 0.0361 0.9253 0.6720
H18_16 H 0.9232 0.0007 0.7274
C38_15 C 0.9953(2) 0.02049(10) 0.77320(11)
H23_15 H 0.9574 0.0130 0.7754
H24_15 H 0.9943 0.0514 0.8129
C31_16 C 0.0051(2) 0.76509(10) 0.02726(11)
C32_16 C 0.0381(2) 0.78872(11) 0.04398(11)
H19_16 H 0.0776 0.7903 0.0400
C33_16 C 0.0127(2) 0.80966(11) 0.06635(11)
H20_16 H 0.0361 0.8247 0.0780
C36_16 C 0.0853(2) 0.73007(11) 0.00446(12)
H22_16 H 0.1085 0.7378 0.0216
C37_16 C 0.0290(2) 0.74119(9) 0.00296(11)
H26_16 H 0.8268 0.0007 0.0226
C50_16 C 0.6647(2) 0.01993(11) 0.00446(12)
H30_16 H 0.6415 0.0122 0.0216
C51_16 C 0.7210(2) 0.00881(9) 0.00296(11)
C38_16 C 0.9953(2) 0.72951(10) 0.97680(11)
H23_16 H 0.9574 0.7370 0.9746
H24_16 H 0.9943 0.6986 0.9371
N1 N 0.4622(6) 0.1089(3) 0.9214(2)
H33 H 0.4426 0.0892 0.9214
H34 H 0.4977 0.1050 0.9133
C57 C 0.4317(7) 0.1338(3) 0.9004(3)
H35 H 0.4342 0.1268 0.8778
H36 H 0.4494 0.1556 0.9028
H37 H 0.3919 0.1351 0.9068
C58 C 0.4669(8) 0.1215(4) 0.9550(3)
H38 H 0.4850 0.1046 0.9685
H39 H 0.4291 0.1264 0.9634
H40 H 0.4899 0.1417 0.9551
N1_2 N 0.2878(6) 0.6411(3) 0.9214(2)
H33_2 H 0.3074 0.6608 0.9214
H34_2 H 0.2523 0.6450 0.9133
C57_2 C 0.3183(7) 0.6162(3) 0.9004(3)
H35_2 H 0.3158 0.6232 0.8778
H36_2 H 0.3006 0.5944 0.9028
H37_2 H 0.3581 0.6149 0.9068
C58_2 C 0.2831(8) 0.6285(4) 0.9550(3)
H38_2 H 0.2650 0.6454 0.9685
H39_2 H 0.3209 0.6236 0.9634
H40_2 H 0.2601 0.6083 0.9551
N1_3 N 0.2878(6) 0.1089(3) 0.8286(2)
H33_3 H 0.3074 0.0892 0.8286
H34_3 H 0.2523 0.1050 0.8367
C57_3 C 0.3183(7) 0.1338(3) 0.8496(3)
H35_3 H 0.3158 0.1268 0.8722
H36_3 H 0.3006 0.1556 0.8472
H37_3 H 0.3581 0.1351 0.8432
C58_3 C 0.2831(8) 0.1215(4) 0.7950(3)
H38_3 H 0.2650 0.1046 0.7815
H39_3 H 0.3209 0.1264 0.7866
H40_3 H 0.2601 0.1417 0.7949
N1_4 N 0.4622(6) 0.6411(3) 0.8286(2)
H33_4 H 0.4426 0.6608 0.8286
H34_4 H 0.4977 0.6450 0.8367
C57_4 C 0.4317(7) 0.6162(3) 0.8496(3)
H35_4 H 0.4342 0.6232 0.8722
H36_4 H 0.4494 0.5944 0.8472
H37_4 H 0.3919 0.6149 0.8432
C58_4 C 0.4669(8) 0.6285(4) 0.7950(3)
H38_4 H 0.4850 0.6454 0.7815
H39_4 H 0.4291 0.6236 0.7866
H40_4 H 0.4899 0.6083 0.7949
N1_5 N 0.4622(6) 0.6089(3) 0.4214(2)
H33_5 H 0.4426 0.5892 0.4214
H34_5 H 0.4977 0.6050 0.4133
C57_5 C 0.4317(7) 0.6338(3) 0.4004(3)
H35_5 H 0.4342 0.6268 0.3778
H36_5 H 0.4494 0.6556 0.4028
H37_5 H 0.3919 0.6351 0.4068
C58_5 C 0.4669(8) 0.6215(4) 0.4550(3)
H38_5 H 0.4850 0.6046 0.4685
H39_5 H 0.4291 0.6264 0.4634
H40_5 H 0.4899 0.6417 0.4551
N1_6 N 0.2878(6) 0.1411(3) 0.4214(2)
H33_6 H 0.3074 0.1608 0.4214
H34_6 H 0.2523 0.1450 0.4133
C57_6 C 0.3183(7) 0.1162(3) 0.4004(3)
H35_6 H 0.3158 0.1232 0.3778
H36_6 H 0.3006 0.0944 0.4028
H37_6 H 0.3581 0.1149 0.4068
C58_6 C 0.2831(8) 0.1285(4) 0.4550(3)
H38_6 H 0.2650 0.1454 0.4685
H39_6 H 0.3209 0.1236 0.4634
H40_6 H 0.2601 0.1083 0.4551
N1_7 N 0.2878(6) 0.6089(3) 0.3286(2)
H33_7 H 0.3074 0.5892 0.3286
H34_7 H 0.2523 0.6050 0.3367
C57_7 C 0.3183(7) 0.6338(3) 0.3496(3)
H35_7 H 0.3158 0.6268 0.3722
H36_7 H 0.3006 0.6556 0.3472
H37_7 H 0.3581 0.6351 0.3432
C58_7 C 0.2831(8) 0.6215(4) 0.2950(3)
H38_7 H 0.2650 0.6046 0.2815
H39_7 H 0.3209 0.6264 0.2866
H40_7 H 0.2601 0.6417 0.2949
N1_8 N 0.4622(6) 0.1411(3) 0.3286(2)
H33_8 H 0.4426 0.1608 0.3286
H34_8 H 0.4977 0.1450 0.3367
C57_8 C 0.4317(7) 0.1162(3) 0.3496(3)
H35_8 H 0.4342 0.1232 0.3722
H36_8 H 0.4494 0.0944 0.3472
H37_8 H 0.3919 0.1149 0.3432
C58_8 C 0.4669(8) 0.1285(4) 0.2950(3)
H38_8 H 0.4850 0.1454 0.2815
H39_8 H 0.4291 0.1236 0.2866
H40_8 H 0.4899 0.1083 0.2949
N1_9 N 0.9622(6) 0.1089(3) 0.4214(2)
H33_9 H 0.9426 0.0892 0.4214
H34_9 H 0.9977 0.1050 0.4133
C57_9 C 0.9317(7) 0.1338(3) 0.4004(3)
H35_9 H 0.9342 0.1268 0.3778
H36_9 H 0.9494 0.1556 0.4028
H37_9 H 0.8919 0.1351 0.4068
C58_9 C 0.9669(8) 0.1215(4) 0.4550(3)
H38_9 H 0.9850 0.1046 0.4685
H39_9 H 0.9291 0.1264 0.4634
H40_9 H 0.9899 0.1417 0.4551
N1_10 N 0.7878(6) 0.6411(3) 0.4214(2)
H33_10 H 0.8074 0.6608 0.4214
H34_10 H 0.7523 0.6450 0.4133
C57_10 C 0.8183(7) 0.6162(3) 0.4004(3)
H35_10 H 0.8158 0.6232 0.3778
H36_10 H 0.8006 0.5944 0.4028
H37_10 H 0.8581 0.6149 0.4068
C58_10 C 0.7831(8) 0.6285(4) 0.4550(3)
H38_10 H 0.7650 0.6454 0.4685
H39_10 H 0.8209 0.6236 0.4634
H40_10 H 0.7601 0.6083 0.4551
N1_11 N 0.7878(6) 0.1089(3) 0.3286(2)
H33_11 H 0.8074 0.0892 0.3286
H34_11 H 0.7523 0.1050 0.3367
C57_11 C 0.8183(7) 0.1338(3) 0.3496(3)
H35_11 H 0.8158 0.1268 0.3722
H36_11 H 0.8006 0.1556 0.3472
H37_11 H 0.8581 0.1351 0.3432
C58_11 C 0.7831(8) 0.1215(4) 0.2950(3)
H38_11 H 0.7650 0.1046 0.2815
H39_11 H 0.8209 0.1264 0.2866
H40_11 H 0.7601 0.1417 0.2949
N1_12 N 0.9622(6) 0.6411(3) 0.3286(2)
H33_12 H 0.9426 0.6608 0.3286
H34_12 H 0.9977 0.6450 0.3367
C57_12 C 0.9317(7) 0.6162(3) 0.3496(3)
H35_12 H 0.9342 0.6232 0.3722
H36_12 H 0.9494 0.5944 0.3472
H37_12 H 0.8919 0.6149 0.3432
C58_12 C 0.9669(8) 0.6285(4) 0.2950(3)
H38_12 H 0.9850 0.6454 0.2815
H39_12 H 0.9291 0.6236 0.2866
H40_12 H 0.9899 0.6083 0.2949
N1_13 N 0.9622(6) 0.6089(3) 0.9214(2)
H33_13 H 0.9426 0.5892 0.9214
H34_13 H 0.9977 0.6050 0.9133
C57_13 C 0.9317(7) 0.6338(3) 0.9004(3)
H35_13 H 0.9342 0.6268 0.8778
H36_13 H 0.9494 0.6556 0.9028
H37_13 H 0.8919 0.6351 0.9068
C58_13 C 0.9669(8) 0.6215(4) 0.9550(3)
H38_13 H 0.9850 0.6046 0.9685
H39_13 H 0.9291 0.6264 0.9634
H40_13 H 0.9899 0.6417 0.9551
N1_14 N 0.7878(6) 0.1411(3) 0.9214(2)
H33_14 H 0.8074 0.1608 0.9214
H34_14 H 0.7523 0.1450 0.9133
C57_14 C 0.8183(7) 0.1162(3) 0.9004(3)
H35_14 H 0.8158 0.1232 0.8778
H36_14 H 0.8006 0.0944 0.9028
H37_14 H 0.8581 0.1149 0.9068
C58_14 C 0.7831(8) 0.1285(4) 0.9550(3)
H38_14 H 0.7650 0.1454 0.9685
H39_14 H 0.8209 0.1236 0.9634
H40_14 H 0.7601 0.1083 0.9551
N1_15 N 0.7878(6) 0.6089(3) 0.8286(2)
H33_15 H 0.8074 0.5892 0.8286
H34_15 H 0.7523 0.6050 0.8367
C57_15 C 0.8183(7) 0.6338(3) 0.8496(3)
H35_15 H 0.8158 0.6268 0.8722
H36_15 H 0.8006 0.6556 0.8472
H37_15 H 0.8581 0.6351 0.8432
C58_15 C 0.7831(8) 0.6215(4) 0.7950(3)
H38_15 H 0.7650 0.6046 0.7815
H39_15 H 0.8209 0.6264 0.7866
H40_15 H 0.7601 0.6417 0.7949
N1_16 N 0.9622(6) 0.1411(3) 0.8286(2)
H33_16 H 0.9426 0.1608 0.8286
H34_16 H 0.9977 0.1450 0.8367
C57_16 C 0.9317(7) 0.1162(3) 0.8496(3)
H35_16 H 0.9342 0.1232 0.8722
H36_16 H 0.9494 0.0944 0.8472
H37_16 H 0.8919 0.1149 0.8432
C58_16 C 0.9669(8) 0.1285(4) 0.7950(3)
H38_16 H 0.9850 0.1454 0.7815
H39_16 H 0.9291 0.1236 0.7866
H40_16 H 0.9899 0.1083 0.7949
N1_17 N 0.5378(6) 0.8911(3) 0.0786(2)
H33_17 H 0.5574 0.9108 0.0786
H34_17 H 0.5023 0.8950 0.0867
C57_17 C 0.5683(7) 0.8662(3) 0.0996(3)
H35_17 H 0.5658 0.8732 0.1222
H36_17 H 0.5506 0.8444 0.0972
H37_17 H 0.6081 0.8649 0.0932
C58_17 C 0.5331(8) 0.8785(4) 0.0450(3)
H38_17 H 0.5150 0.8954 0.0315
H39_17 H 0.5709 0.8736 0.0366
H40_17 H 0.5101 0.8583 0.0449
N1_18 N 0.7122(6) 0.3589(3) 0.0786(2)
H33_18 H 0.6926 0.3392 0.0786
H34_18 H 0.7477 0.3550 0.0867
C57_18 C 0.6817(7) 0.3838(3) 0.0996(3)
H35_18 H 0.6842 0.3768 0.1222
H36_18 H 0.6994 0.4056 0.0972
H37_18 H 0.6419 0.3851 0.0932
C58_18 C 0.7169(8) 0.3715(4) 0.0450(3)
H38_18 H 0.7350 0.3546 0.0315
H39_18 H 0.6791 0.3764 0.0366
H40_18 H 0.7399 0.3917 0.0449
N1_19 N 0.7122(6) 0.8911(3) 0.1714(2)
H33_19 H 0.6926 0.9108 0.1714
H34_19 H 0.7477 0.8950 0.1633
C57_19 C 0.6817(7) 0.8662(3) 0.1504(3)
H35_19 H 0.6842 0.8732 0.1278
H36_19 H 0.6994 0.8444 0.1528
H37_19 H 0.6419 0.8649 0.1568
C58_19 C 0.7169(8) 0.8785(4) 0.2050(3)
H38_19 H 0.7350 0.8954 0.2185
H39_19 H 0.6791 0.8736 0.2134
H40_19 H 0.7399 0.8583 0.2051
N1_20 N 0.5378(6) 0.3589(3) 0.1714(2)
H33_20 H 0.5574 0.3392 0.1714
H34_20 H 0.5023 0.3550 0.1633
C57_20 C 0.5683(7) 0.3838(3) 0.1504(3)
H35_20 H 0.5658 0.3768 0.1278
H36_20 H 0.5506 0.4056 0.1528
H37_20 H 0.6081 0.3851 0.1568
C58_20 C 0.5331(8) 0.3715(4) 0.2050(3)
H38_20 H 0.5150 0.3546 0.2185
H39_20 H 0.5709 0.3764 0.2134
H40_20 H 0.5101 0.3917 0.2051
N1_21 N 0.5378(6) 0.3911(3) 0.5786(2)
H33_21 H 0.5574 0.4108 0.5786
H34_21 H 0.5023 0.3950 0.5867
C57_21 C 0.5683(7) 0.3662(3) 0.5996(3)
H35_21 H 0.5658 0.3732 0.6222
H36_21 H 0.5506 0.3444 0.5972
H37_21 H 0.6081 0.3649 0.5932
C58_21 C 0.5331(8) 0.3785(4) 0.5450(3)
H38_21 H 0.5150 0.3954 0.5315
H39_21 H 0.5709 0.3736 0.5366
H40_21 H 0.5101 0.3583 0.5449
N1_22 N 0.7122(6) 0.8589(3) 0.5786(2)
H33_22 H 0.6926 0.8392 0.5786
H34_22 H 0.7477 0.8550 0.5867
C57_22 C 0.6817(7) 0.8838(3) 0.5996(3)
H35_22 H 0.6842 0.8768 0.6222
H36_22 H 0.6994 0.9056 0.5972
H37_22 H 0.6419 0.8851 0.5932
C58_22 C 0.7169(8) 0.8715(4) 0.5450(3)
H38_22 H 0.7350 0.8546 0.5315
H39_22 H 0.6791 0.8764 0.5366
H40_22 H 0.7399 0.8917 0.5449
N1_23 N 0.7122(6) 0.3911(3) 0.6714(2)
H33_23 H 0.6926 0.4108 0.6714
H34_23 H 0.7477 0.3950 0.6633
C57_23 C 0.6817(7) 0.3662(3) 0.6504(3)
H35_23 H 0.6842 0.3732 0.6278
H36_23 H 0.6994 0.3444 0.6528
H37_23 H 0.6419 0.3649 0.6568
C58_23 C 0.7169(8) 0.3785(4) 0.7050(3)
H38_23 H 0.7350 0.3954 0.7185
H39_23 H 0.6791 0.3736 0.7134
H40_23 H 0.7399 0.3583 0.7051
N1_24 N 0.5378(6) 0.8589(3) 0.6714(2)
H33_24 H 0.5574 0.8392 0.6714
H34_24 H 0.5023 0.8550 0.6633
C57_24 C 0.5683(7) 0.8838(3) 0.6504(3)
H35_24 H 0.5658 0.8768 0.6278
H36_24 H 0.5506 0.9056 0.6528
H37_24 H 0.6081 0.8851 0.6568
C58_24 C 0.5331(8) 0.8715(4) 0.7050(3)
H38_24 H 0.5150 0.8546 0.7185
H39_24 H 0.5709 0.8764 0.7134
H40_24 H 0.5101 0.8917 0.7051
N1_25 N 0.0378(6) 0.8911(3) 0.5786(2)
H33_25 H 0.0574 0.9108 0.5786
H34_25 H 0.0023 0.8950 0.5867
C57_25 C 0.0683(7) 0.8662(3) 0.5996(3)
H35_25 H 0.0658 0.8732 0.6222
H36_25 H 0.0506 0.8444 0.5972
H37_25 H 0.1081 0.8649 0.5932
C58_25 C 0.0331(8) 0.8785(4) 0.5450(3)
H38_25 H 0.0150 0.8954 0.5315
H39_25 H 0.0709 0.8736 0.5366
H40_25 H 0.0101 0.8583 0.5449
N1_26 N 0.2122(6) 0.3589(3) 0.5786(2)
H33_26 H 0.1926 0.3392 0.5786
H34_26 H 0.2477 0.3550 0.5867
C57_26 C 0.1817(7) 0.3838(3) 0.5996(3)
H35_26 H 0.1842 0.3768 0.6222
H36_26 H 0.1994 0.4056 0.5972
H37_26 H 0.1419 0.3851 0.5932
C58_26 C 0.2169(8) 0.3715(4) 0.5450(3)
H38_26 H 0.2350 0.3546 0.5315
H39_26 H 0.1791 0.3764 0.5366
H40_26 H 0.2399 0.3917 0.5449
N1_27 N 0.2122(6) 0.8911(3) 0.6714(2)
H33_27 H 0.1926 0.9108 0.6714
H34_27 H 0.2477 0.8950 0.6633
C57_27 C 0.1817(7) 0.8662(3) 0.6504(3)
H35_27 H 0.1842 0.8732 0.6278
H36_27 H 0.1994 0.8444 0.6528
H37_27 H 0.1419 0.8649 0.6568
C58_27 C 0.2169(8) 0.8785(4) 0.7050(3)
H38_27 H 0.2350 0.8954 0.7185
H39_27 H 0.1791 0.8736 0.7134
H40_27 H 0.2399 0.8583 0.7051
N1_28 N 0.0378(6) 0.3589(3) 0.6714(2)
H33_28 H 0.0574 0.3392 0.6714
H34_28 H 0.0023 0.3550 0.6633
C57_28 C 0.0683(7) 0.3838(3) 0.6504(3)
H35_28 H 0.0658 0.3768 0.6278
H36_28 H 0.0506 0.4056 0.6528
H37_28 H 0.1081 0.3851 0.6568
C58_28 C 0.0331(8) 0.3715(4) 0.7050(3)
H38_28 H 0.0150 0.3546 0.7185
H39_28 H 0.0709 0.3764 0.7134
H40_28 H 0.0101 0.3917 0.7051
N1_29 N 0.0378(6) 0.3911(3) 0.0786(2)
H33_29 H 0.0574 0.4108 0.0786
H34_29 H 0.0023 0.3950 0.0867
C57_29 C 0.0683(7) 0.3662(3) 0.0996(3)
H35_29 H 0.0658 0.3732 0.1222
H36_29 H 0.0506 0.3444 0.0972
H37_29 H 0.1081 0.3649 0.0932
C58_29 C 0.0331(8) 0.3785(4) 0.0450(3)
H38_29 H 0.0150 0.3954 0.0315
H39_29 H 0.0709 0.3736 0.0366
H40_29 H 0.0101 0.3583 0.0449
N1_30 N 0.2122(6) 0.8589(3) 0.0786(2)
H33_30 H 0.1926 0.8392 0.0786
H34_30 H 0.2477 0.8550 0.0867
C57_30 C 0.1817(7) 0.8838(3) 0.0996(3)
H35_30 H 0.1842 0.8768 0.1222
H36_30 H 0.1994 0.9056 0.0972
H37_30 H 0.1419 0.8851 0.0932
C58_30 C 0.2169(8) 0.8715(4) 0.0450(3)
H38_30 H 0.2350 0.8546 0.0315
H39_30 H 0.1791 0.8764 0.0366
H40_30 H 0.2399 0.8917 0.0449
N1_31 N 0.2122(6) 0.3911(3) 0.1714(2)
H33_31 H 0.1926 0.4108 0.1714
H34_31 H 0.2477 0.3950 0.1633
C57_31 C 0.1817(7) 0.3662(3) 0.1504(3)
H35_31 H 0.1842 0.3732 0.1278
H36_31 H 0.1994 0.3444 0.1528
H37_31 H 0.1419 0.3649 0.1568
C58_31 C 0.2169(8) 0.3785(4) 0.2050(3)
H38_31 H 0.2350 0.3954 0.2185
H39_31 H 0.1791 0.3736 0.2134
H40_31 H 0.2399 0.3583 0.2051
N1_32 N 0.0378(6) 0.8589(3) 0.1714(2)
H33_32 H 0.0574 0.8392 0.1714
H34_32 H 0.0023 0.8550 0.1633
C57_32 C 0.0683(7) 0.8838(3) 0.1504(3)
H35_32 H 0.0658 0.8768 0.1278
H36_32 H 0.0506 0.9056 0.1528
H37_32 H 0.1081 0.8851 0.1568
C58_32 C 0.0331(8) 0.8715(4) 0.2050(3)
H38_32 H 0.0150 0.8546 0.2185
H39_32 H 0.0709 0.8764 0.2134
H40_32 H 0.0101 0.8917 0.2051
loop_
_geom_bond_atom_site_label_1
_geom_bond_atom_site_label_2
_geom_bond_site_symmetry_1
_geom_bond_site_symmetry_2
O3 C14 1_555 1_555
O4 C14 1_555 1_555
C1 H1 1_555 1_555
C2 C1 1_555 1_555
H2 C2 1_555 1_555
C7 H5 1_555 1_555
C8 C7 1_555 1_555
H6 C8 1_555 1_555
C12 C7 1_555 1_555
C14 C12 1_555 1_555
In2 O3 1_555 1_555
O4 In2 1_555 1_555
C8 C9 1_555 1_555
C11 C12 1_555 1_555
In1 O1 1_555 1_555
O1 C13 1_555 1_555
O2 In1 1_555 1_555
C4 C3 1_555 1_555
H3 C4 1_555 1_555
C5 C4 1_555 1_555
H4 C5 1_555 1_555
H7 C10 1_555 1_555
C13 O2 1_555 1_555
In3 O7 1_555 1_555
O5 In1 1_555 1_555
O6 In1 1_555 1_555
O7 C28 1_555 1_555
O8 In1 1_555 1_555
O9 In1 1_555 1_555
O10 In3 1_555 1_555
O11 In1 1_555 1_555
O12 In1 1_555 1_555
C15 H9 1_555 1_555
C16 C15 1_555 1_555
H10 C16 1_555 1_555
C17 C16 1_555 1_555
C18 C17 1_555 1_555
H11 C18 1_555 1_555
C19 C18 1_555 1_555
H12 C19 1_555 1_555
C20 C15 1_555 1_555
C21 H13 1_555 1_555
C22 C21 1_555 1_555
H14 C22 1_555 1_555
C23 C17 1_555 1_555
C24 C23 1_555 1_555
H15 C24 1_555 1_555
C25 C24 1_555 1_555
H16 C25 1_555 1_555
C26 C21 1_555 1_555
C27 O5 1_555 1_555
C28 O10 1_555 1_555
C5 C6 1_555 1_555
C6 C13 1_555 1_555
O6 C27 1_555 1_555
C19 C20 1_555 1_555
C20 C27 1_555 1_555
C22 C23 1_555 1_555
C25 C26 1_555 1_555
C26 C28 1_555 1_555
O3_2 C14_2 1_555 1_555
O4_2 C14_2 1_555 1_555
C7_2 H5_2 1_555 1_555
C8_2 C7_2 1_555 1_555
C12_2 C7_2 1_555 1_555
C14_2 C12_2 1_555 1_555
In2_2 O3_2 1_555 1_555
O4_2 In2_2 1_555 1_555
C8_2 C9_2 1_555 1_555
C11_2 C12_2 1_555 1_555
In1_2 O1_2 1_555 1_555
O1_2 C13_2 1_555 1_555
O2_2 In1_2 1_555 1_555
C4_2 C3_2 1_555 1_555
C5_2 C4_2 1_555 1_555
H4_2 C5_2 1_555 1_555
C13_2 O2_2 1_555 1_555
In3_2 O7_2 1_555 1_555
O5_2 In1_2 1_555 1_555
O6_2 In1_2 1_555 1_555
O7_2 C28_2 1_555 1_555
O8_2 In1_2 1_555 1_555
O9_2 In1_2 1_555 1_555
O10_2 In3_2 1_555 1_555
O11_2 In1_2 1_555 1_555
O12_2 In1_2 1_555 1_555
C15_2 H9_2 1_555 1_555
C16_2 C15_2 1_555 1_555
H10_2 C16_2 1_555 1_555
C17_2 C16_2 1_555 1_555
C18_2 C17_2 1_555 1_555
H11_2 C18_2 1_555 1_555
C19_2 C18_2 1_555 1_555
H12_2 C19_2 1_555 1_555
C20_2 C15_2 1_555 1_555
C21_2 H13_2 1_555 1_555
C22_2 C21_2 1_555 1_555
H14_2 C22_2 1_555 1_555
C23_2 C17_2 1_555 1_555
C24_2 C23_2 1_555 1_555
H15_2 C24_2 1_555 1_555
C25_2 C24_2 1_555 1_555
H16_2 C25_2 1_555 1_555
C26_2 C21_2 1_555 1_555
C27_2 O5_2 1_555 1_555
C28_2 O10_2 1_555 1_555
C5_2 C6_2 1_555 1_555
C6_2 C13_2 1_555 1_555
O6_2 C27_2 1_555 1_555
C19_2 C20_2 1_555 1_555
C20_2 C27_2 1_555 1_555
C22_2 C23_2 1_555 1_555
C25_2 C26_2 1_555 1_555
C26_2 C28_2 1_555 1_555
O3_3 C14_3 1_555 1_555
O4_3 C14_3 1_555 1_555
C7_3 H5_3 1_555 1_555
C8_3 C7_3 1_555 1_555
C10_2 C9_3 1_555 1_555
H7_2 C10_2 1_555 1_555
C11_3 C10_2 1_555 1_555
H8_2 C11_3 1_555 1_555
C12_3 C7_3 1_555 1_555
C14_3 C12_3 1_555 1_555
In3 O3_3 1_555 1_555
O4_3 In3 1_555 1_555
C8_3 C9_3 1_555 1_555
C11_3 C12_3 1_555 1_555
In1_3 O1_3 1_555 1_555
O1_3 C13_3 1_555 1_555
O2_3 In1_3 1_555 1_555
C1_2 H1_2 1_555 1_555
C2_2 C1_2 1_555 1_555
H2_2 C2_2 1_555 1_555
C3_3 C2_2 1_555 1_555
C4_3 C3_3 1_555 1_555
C5_3 C4_3 1_555 1_555
H4_3 C5_3 1_555 1_555
C6_3 C1_2 1_555 1_555
C13_3 O2_3 1_555 1_555
In2 O7_3 1_555 1_555
O5_3 In1_3 1_555 1_555
O6_3 In1_3 1_555 1_555
O7_3 C28_3 1_555 1_555
O8_3 In1_3 1_555 1_555
O9_3 In1_3 1_555 1_555
O10_3 In2 1_555 1_555
O11_3 In1_3 1_555 1_555
O12_3 In1_3 1_555 1_555
C15_3 H9_3 1_555 1_555
C16_3 C15_3 1_555 1_555
H10_3 C16_3 1_555 1_555
C17_3 C16_3 1_555 1_555
C18_3 C17_3 1_555 1_555
H11_3 C18_3 1_555 1_555
C19_3 C18_3 1_555 1_555
H12_3 C19_3 1_555 1_555
C20_3 C15_3 1_555 1_555
C21_3 H13_3 1_555 1_555
C22_3 C21_3 1_555 1_555
H14_3 C22_3 1_555 1_555
C23_3 C17_3 1_555 1_555
C24_3 C23_3 1_555 1_555
H15_3 C24_3 1_555 1_555
C25_3 C24_3 1_555 1_555
H16_3 C25_3 1_555 1_555
C26_3 C21_3 1_555 1_555
C27_3 O5_3 1_555 1_555
C28_3 O10_3 1_555 1_555
C5_3 C6_3 1_555 1_555
C6_3 C13_3 1_555 1_555
O6_3 C27_3 1_555 1_555
C19_3 C20_3 1_555 1_555
C20_3 C27_3 1_555 1_555
C22_3 C23_3 1_555 1_555
C25_3 C26_3 1_555 1_555
C26_3 C28_3 1_555 1_555
In1_4 O1_4 1_555 1_555
O1_4 C13_4 1_555 1_555
O2_4 In1_4 1_555 1_555
O3_4 C14_4 1_555 1_555
O4_4 C14_4 1_555 1_555
C1_3 H1_3 1_555 1_555
C2_3 C1_3 1_555 1_555
H2_3 C2_3 1_555 1_555
C3_4 C2_3 1_555 1_555
C4_4 C3_4 1_555 1_555
H3_3 C4_4 1_555 1_555
C5_4 C4_4 1_555 1_555
H4_4 C5_4 1_555 1_555
C6_4 C1_3 1_555 1_555
C7_4 H5_4 1_555 1_555
C8_4 C7_4 1_555 1_555
H6_3 C8_4 1_555 1_555
C9_4 C3_4 1_555 1_555
C10_3 C9_4 1_555 1_555
H7_3 C10_3 1_555 1_555
C11_4 C10_3 1_555 1_555
H8_3 C11_4 1_555 1_555
C12_4 C7_4 1_555 1_555
C13_4 O2_4 1_555 1_555
C14_4 C12_4 1_555 1_555
In3_2 O3_4 1_555 1_555
In2_2 O7_4 1_555 1_555
O5_4 In1_4 1_555 1_555
O6_4 In1_4 1_555 1_555
O7_4 C28_4 1_555 1_555
O8_4 In1_4 1_555 1_555
O9_4 In1_4 1_555 1_555
O10_4 In2_2 1_555 1_555
O11_4 In1_4 1_555 1_555
O12_4 In1_4 1_555 1_555
C15_4 H9_4 1_555 1_555
C16_4 C15_4 1_555 1_555
H10_4 C16_4 1_555 1_555
C17_4 C16_4 1_555 1_555
C18_4 C17_4 1_555 1_555
H11_4 C18_4 1_555 1_555
C19_4 C18_4 1_555 1_555
H12_4 C19_4 1_555 1_555
C20_4 C15_4 1_555 1_555
C21_4 H13_4 1_555 1_555
C22_4 C21_4 1_555 1_555
H14_4 C22_4 1_555 1_555
C23_4 C17_4 1_555 1_555
C24_4 C23_4 1_555 1_555
H15_4 C24_4 1_555 1_555
C25_4 C24_4 1_555 1_555
H16_4 C25_4 1_555 1_555
C26_4 C21_4 1_555 1_555
C27_4 O5_4 1_555 1_555
C28_4 O10_4 1_555 1_555
O4_4 In3_2 1_555 1_555
C5_4 C6_4 1_555 1_555
C6_4 C13_4 1_555 1_555
C8_4 C9_4 1_555 1_555
C11_4 C12_4 1_555 1_555
O6_4 C27_4 1_555 1_555
C19_4 C20_4 1_555 1_555
C20_4 C27_4 1_555 1_555
C22_4 C23_4 1_555 1_555
C25_4 C26_4 1_555 1_555
C26_4 C28_4 1_555 1_555
In2 O1_5 1_555 1_555
O1_5 C13_5 1_555 1_555
O2_5 In2 1_555 1_555
O9_4 C14_5 1_555 1_555
O12_4 C14_5 1_555 1_555
C1_4 H1_4 1_555 1_555
C2_4 C1_4 1_555 1_555
H2_4 C2_4 1_555 1_555
C3_5 C2_4 1_555 1_555
C4_5 C3_5 1_555 1_555
H3_4 C4_5 1_555 1_555
C5_5 C4_5 1_555 1_555
H4_5 C5_5 1_555 1_555
C6_5 C1_4 1_555 1_555
C7_5 H5_5 1_555 1_555
C8_5 C7_5 1_555 1_555
H6_4 C8_5 1_555 1_555
C9_5 C3_5 1_555 1_555
C10_4 C9_5 1_555 1_555
H7_4 C10_4 1_555 1_555
C11_5 C10_4 1_555 1_555
H8_4 C11_5 1_555 1_555
C12_5 C7_5 1_555 1_555
C13_5 O2_5 1_555 1_555
C14_5 C12_5 1_555 1_555
O5_5 In2 1_555 1_555
O6_5 In2 1_555 1_555
C18_5 C17_5 1_555 1_555
H11_5 C18_5 1_555 1_555
C19_5 C18_5 1_555 1_555
H12_5 C19_5 1_555 1_555
H15_5 C24_5 1_555 1_555
C27_5 O5_5 1_555 1_555
C5_5 C6_5 1_555 1_555
C6_5 C13_5 1_555 1_555
C8_5 C9_5 1_555 1_555
C11_5 C12_5 1_555 1_555
O6_5 C27_5 1_555 1_555
C19_5 C20_5 1_555 1_555
C20_5 C27_5 1_555 1_555
O8_2 C28_5 1_555 1_555
C15_5 H9_5 1_555 1_555
C16_5 C15_5 1_555 1_555
H10_5 C16_5 1_555 1_555
C21_5 H13_5 1_555 1_555
C22_5 C21_5 1_555 1_555
H14_5 C22_5 1_555 1_555
C26_5 C21_5 1_555 1_555
C28_5 O11_2 1_555 1_555
C22_5 C23_5 1_555 1_555
C25_5 C26_5 1_555 1_555
C26_5 C28_5 1_555 1_555
O9_3 C14_6 1_555 1_555
O12_3 C14_6 1_555 1_555
C7_6 H5_6 1_555 1_555
C8_6 C7_6 1_555 1_555
C10_5 C9_6 1_555 1_555
H7_5 C10_5 1_555 1_555
C11_6 C10_5 1_555 1_555
H8_5 C11_6 1_555 1_555
C12_6 C7_6 1_555 1_555
C14_6 C12_6 1_555 1_555
C8_6 C9_6 1_555 1_555
C11_6 C12_6 1_555 1_555
O8 C28_6 1_555 1_555
C15_6 H9_6 1_555 1_555
C16_6 C15_6 1_555 1_555
H10_6 C16_6 1_555 1_555
C21_6 H13_6 1_555 1_555
C22_6 C21_6 1_555 1_555
H14_6 C22_6 1_555 1_555
C26_6 C21_6 1_555 1_555
C28_6 O11 1_555 1_555
C22_6 C23_6 1_555 1_555
C25_6 C26_6 1_555 1_555
C26_6 C28_6 1_555 1_555
In3 O1_6 1_555 1_555
O1_6 C13_6 1_555 1_555
O2_6 In3 1_555 1_555
C1_5 H1_5 1_555 1_555
C2_5 C1_5 1_555 1_555
H2_5 C2_5 1_555 1_555
C3_6 C2_5 1_555 1_555
C4_6 C3_6 1_555 1_555
C5_6 C4_6 1_555 1_555
H4_6 C5_6 1_555 1_555
C6_6 C1_5 1_555 1_555
C13_6 O2_6 1_555 1_555
O5_6 In3 1_555 1_555
O6_6 In3 1_555 1_555
O8_4 C28_7 1_555 1_555
C15_7 H9_7 1_555 1_555
C16_7 C15_7 1_555 1_555
H10_7 C16_7 1_555 1_555
C17_6 C16_7 1_555 1_555
C18_6 C17_6 1_555 1_555
H11_6 C18_6 1_555 1_555
C19_6 C18_6 1_555 1_555
H12_6 C19_6 1_555 1_555
C20_6 C15_7 1_555 1_555
C21_7 H13_7 1_555 1_555
C22_7 C21_7 1_555 1_555
H14_7 C22_7 1_555 1_555
C23_7 C17_6 1_555 1_555
C24_6 C23_7 1_555 1_555
H15_6 C24_6 1_555 1_555
C25_7 C24_6 1_555 1_555
H16_6 C25_7 1_555 1_555
C26_7 C21_7 1_555 1_555
C27_6 O5_6 1_555 1_555
C28_7 O11_4 1_555 1_555
C5_6 C6_6 1_555 1_555
C6_6 C13_6 1_555 1_555
O6_6 C27_6 1_555 1_555
C19_6 C20_6 1_555 1_555
C20_6 C27_6 1_555 1_555
C22_7 C23_7 1_555 1_555
C25_7 C26_7 1_555 1_555
C26_7 C28_7 1_555 1_555
O9_2 C14_7 1_555 1_555
O12_2 C14_7 1_555 1_555
C7_7 H5_7 1_555 1_555
C8_7 C7_7 1_555 1_555
C10_6 C9_7 1_555 1_555
H7_6 C10_6 1_555 1_555
C11_7 C10_6 1_555 1_555
H8_6 C11_7 1_555 1_555
C12_7 C7_7 1_555 1_555
C14_7 C12_7 1_555 1_555
C8_7 C9_7 1_555 1_555
C11_7 C12_7 1_555 1_555
O1_7 C13_7 1_555 1_555
O9 C14_8 1_555 1_555
O12 C14_8 1_555 1_555
C1_6 H1_6 1_555 1_555
C2_6 C1_6 1_555 1_555
H2_6 C2_6 1_555 1_555
C3_7 C2_6 1_555 1_555
C4_7 C3_7 1_555 1_555
H3_7 C4_7 1_555 1_555
C5_7 C4_7 1_555 1_555
H4_7 C5_7 1_555 1_555
C6_7 C1_6 1_555 1_555
C7_8 H5_8 1_555 1_555
C8_8 C7_8 1_555 1_555
H6_6 C8_8 1_555 1_555
C9_8 C3_7 1_555 1_555
C10_7 C9_8 1_555 1_555
H7_7 C10_7 1_555 1_555
C11_8 C10_7 1_555 1_555
H8_7 C11_8 1_555 1_555
C12_8 C7_8 1_555 1_555
C13_7 O2_7 1_555 1_555
C14_8 C12_8 1_555 1_555
O8_3 C28_8 1_555 1_555
C15_8 H9_8 1_555 1_555
C16_8 C15_8 1_555 1_555
H10_8 C16_8 1_555 1_555
C17_7 C16_8 1_555 1_555
C18_7 C17_7 1_555 1_555
H11_7 C18_7 1_555 1_555
C19_7 C18_7 1_555 1_555
H12_7 C19_7 1_555 1_555
C20_7 C15_8 1_555 1_555
C21_8 H13_8 1_555 1_555
C22_8 C21_8 1_555 1_555
H14_8 C22_8 1_555 1_555
C23_8 C17_7 1_555 1_555
C24_7 C23_8 1_555 1_555
H15_7 C24_7 1_555 1_555
C25_8 C24_7 1_555 1_555
H16_7 C25_8 1_555 1_555
C26_8 C21_8 1_555 1_555
C27_7 O5_7 1_555 1_555
C28_8 O11_3 1_555 1_555
C5_7 C6_7 1_555 1_555
C6_7 C13_7 1_555 1_555
C8_8 C9_8 1_555 1_555
C11_8 C12_8 1_555 1_555
O6_7 C27_7 1_555 1_555
C19_7 C20_7 1_555 1_555
C20_7 C27_7 1_555 1_555
C22_8 C23_8 1_555 1_555
C25_8 C26_8 1_555 1_555
C26_8 C28_8 1_555 1_555
In3_3 O7_5 1_555 1_555
O7_5 C28_9 1_555 1_555
O10_5 In3_3 1_555 1_555
C15_9 H9_9 1_555 1_555
C16_9 C15_9 1_555 1_555
H10_9 C16_9 1_555 1_555
C21_9 H13_9 1_555 1_555
C22_9 C21_9 1_555 1_555
H14_9 C22_9 1_555 1_555
C26_9 C21_9 1_555 1_555
C28_9 O10_5 1_555 1_555
C22_9 C23_9 1_555 1_555
C25_9 C26_9 1_555 1_555
C26_9 C28_9 1_555 1_555
In1_5 O1_8 1_555 1_555
O1_8 C13_8 1_555 1_555
O2_8 In1_5 1_555 1_555
O3_5 C14_9 1_555 1_555
O4_5 C14_9 1_555 1_555
C1_7 H1_7 1_555 1_555
C2_7 C1_7 1_555 1_555
H2_7 C2_7 1_555 1_555
C3_8 C2_7 1_555 1_555
C4_8 C3_8 1_555 1_555
H3_8 C4_8 1_555 1_555
C5_8 C4_8 1_555 1_555
H4_8 C5_8 1_555 1_555
C6_8 C1_7 1_555 1_555
C7_9 H5_9 1_555 1_555
C8_9 C7_9 1_555 1_555
H6_7 C8_9 1_555 1_555
C9_9 C3_8 1_555 1_555
C10_8 C9_9 1_555 1_555
H7_8 C10_8 1_555 1_555
C11_9 C10_8 1_555 1_555
H8_8 C11_9 1_555 1_555
C12_9 C7_9 1_555 1_555
C13_8 O2_8 1_555 1_555
C14_9 C12_9 1_555 1_555
In2_3 O3_5 1_555 1_555
O5_8 In1_5 1_555 1_555
O6_8 In1_5 1_555 1_555
O8_5 In1_5 1_555 1_555
O9_5 In1_5 1_555 1_555
O11_5 In1_5 1_555 1_555
O12_5 In1_5 1_555 1_555
C18_8 C17_8 1_555 1_555
H11_8 C18_8 1_555 1_555
C19_8 C18_8 1_555 1_555
H12_8 C19_8 1_555 1_555
H15_8 C24_8 1_555 1_555
C27_8 O5_8 1_555 1_555
O4_5 In2_3 1_555 1_555
C5_8 C6_8 1_555 1_555
C6_8 C13_8 1_555 1_555
C8_9 C9_9 1_555 1_555
C11_9 C12_9 1_555 1_555
O6_8 C27_8 1_555 1_555
C19_8 C20_8 1_555 1_555
C20_8 C27_8 1_555 1_555
In3_4 O7_6 1_555 1_555
O7_6 C28_10 1_555 1_555
O10_6 In3_4 1_555 1_555
C15_10 H9_10 1_555 1_555
C16_10 C15_10 1_555 1_555
H10_10 C16_10 1_555 1_555
C21_10 H13_10 1_555 1_555
C22_10 C21_10 1_555 1_555
H14_10 C22_10 1_555 1_555
C26_10 C21_10 1_555 1_555
C28_10 O10_6 1_555 1_555
C22_10 C23_10 1_555 1_555
C25_10 C26_10 1_555 1_555
C26_10 C28_10 1_555 1_555
O8_6 In1_6 1_555 1_555
O9_6 In1_6 1_555 1_555
O11_6 In1_6 1_555 1_555
O12_6 In1_6 1_555 1_555
O3_6 C14_10 1_555 1_555
O4_6 C14_10 1_555 1_555
C7_10 H5_10 1_555 1_555
C8_10 C7_10 1_555 1_555
C10_9 C9_10 1_555 1_555
H7_9 C10_9 1_555 1_555
C11_10 C10_9 1_555 1_555
H8_9 C11_10 1_555 1_555
C12_10 C7_10 1_555 1_555
C14_10 C12_10 1_555 1_555
In2_4 O3_6 1_555 1_555
O4_6 In2_4 1_555 1_555
C8_10 C9_10 1_555 1_555
C11_10 C12_10 1_555 1_555
O3_7 C14_11 1_555 1_555
O4_7 C14_11 1_555 1_555
C7_11 H5_11 1_555 1_555
C8_11 C7_11 1_555 1_555
C10_10 C9_11 1_555 1_555
H7_10 C10_10 1_555 1_555
C11_11 C10_10 1_555 1_555
H8_10 C11_11 1_555 1_555
C12_11 C7_11 1_555 1_555
C14_11 C12_11 1_555 1_555
In3_3 O3_7 1_555 1_555
O4_7 In3_3 1_555 1_555
C8_11 C9_11 1_555 1_555
C11_11 C12_11 1_555 1_555
In1_7 O1_9 1_555 1_555
O1_9 C13_9 1_555 1_555
O2_9 In1_7 1_555 1_555
C1_8 H1_8 1_555 1_555
C2_8 C1_8 1_555 1_555
H2_8 C2_8 1_555 1_555
C3_9 C2_8 1_555 1_555
C4_9 C3_9 1_555 1_555
C5_9 C4_9 1_555 1_555
H4_9 C5_9 1_555 1_555
C6_9 C1_8 1_555 1_555
C13_9 O2_9 1_555 1_555
In2_3 O7_7 1_555 1_555
O5_9 In1_7 1_555 1_555
O6_9 In1_7 1_555 1_555
O7_7 C28_11 1_555 1_555
O8_7 In1_7 1_555 1_555
O9_7 In1_7 1_555 1_555
O10_7 In2_3 1_555 1_555
O11_7 In1_7 1_555 1_555
O12_7 In1_7 1_555 1_555
C15_11 H9_11 1_555 1_555
C16_11 C15_11 1_555 1_555
H10_11 C16_11 1_555 1_555
C17_9 C16_11 1_555 1_555
C18_9 C17_9 1_555 1_555
H11_9 C18_9 1_555 1_555
C19_9 C18_9 1_555 1_555
H12_9 C19_9 1_555 1_555
C20_9 C15_11 1_555 1_555
C21_11 H13_11 1_555 1_555
C22_11 C21_11 1_555 1_555
H14_11 C22_11 1_555 1_555
C23_11 C17_9 1_555 1_555
C24_9 C23_11 1_555 1_555
H15_9 C24_9 1_555 1_555
C25_11 C24_9 1_555 1_555
H16_9 C25_11 1_555 1_555
C26_11 C21_11 1_555 1_555
C27_9 O5_9 1_555 1_555
C28_11 O10_7 1_555 1_555
C5_9 C6_9 1_555 1_555
C6_9 C13_9 1_555 1_555
O6_9 C27_9 1_555 1_555
C19_9 C20_9 1_555 1_555
C20_9 C27_9 1_555 1_555
C22_11 C23_11 1_555 1_555
C25_11 C26_11 1_555 1_555
C26_11 C28_11 1_555 1_555
O8_8 In1_8 1_555 1_555
O9_8 In1_8 1_555 1_555
O11_8 In1_8 1_555 1_555
O12_8 In1_8 1_555 1_555
O1_10 C13_10 1_555 1_555
O3_8 C14_12 1_555 1_555
O4_8 C14_12 1_555 1_555
C1_9 H1_9 1_555 1_555
C2_9 C1_9 1_555 1_555
H2_9 C2_9 1_555 1_555
C3_10 C2_9 1_555 1_555
C4_10 C3_10 1_555 1_555
H3_11 C4_10 1_555 1_555
C5_10 C4_10 1_555 1_555
H4_10 C5_10 1_555 1_555
C6_10 C1_9 1_555 1_555
C7_12 H5_12 1_555 1_555
C8_12 C7_12 1_555 1_555
H6_9 C8_12 1_555 1_555
C9_12 C3_10 1_555 1_555
C10_11 C9_12 1_555 1_555
H7_11 C10_11 1_555 1_555
C11_12 C10_11 1_555 1_555
H8_11 C11_12 1_555 1_555
C12_12 C7_12 1_555 1_555
C13_10 O2_10 1_555 1_555
C14_12 C12_12 1_555 1_555
In3_4 O3_8 1_555 1_555
In2_4 O7_8 1_555 1_555
O7_8 C28_12 1_555 1_555
O10_8 In2_4 1_555 1_555
C15_12 H9_12 1_555 1_555
C16_12 C15_12 1_555 1_555
H10_12 C16_12 1_555 1_555
C17_10 C16_12 1_555 1_555
C18_10 C17_10 1_555 1_555
H11_10 C18_10 1_555 1_555
C19_10 C18_10 1_555 1_555
H12_10 C19_10 1_555 1_555
C20_10 C15_12 1_555 1_555
C21_12 H13_12 1_555 1_555
C22_12 C21_12 1_555 1_555
H14_12 C22_12 1_555 1_555
C23_12 C17_10 1_555 1_555
C24_10 C23_12 1_555 1_555
H15_10 C24_10 1_555 1_555
C25_12 C24_10 1_555 1_555
H16_10 C25_12 1_555 1_555
C26_12 C21_12 1_555 1_555
C27_10 O5_10 1_555 1_555
C28_12 O10_8 1_555 1_555
O4_8 In3_4 1_555 1_555
C5_10 C6_10 1_555 1_555
C6_10 C13_10 1_555 1_555
C8_12 C9_12 1_555 1_555
C11_12 C12_12 1_555 1_555
O6_10 C27_10 1_555 1_555
C19_10 C20_10 1_555 1_555
C20_10 C27_10 1_555 1_555
C22_12 C23_12 1_555 1_555
C25_12 C26_12 1_555 1_555
C26_12 C28_12 1_555 1_555
In3_4 O1_11 1_555 1_555
O1_11 C13_11 1_555 1_555
O2_11 In3_4 1_555 1_555
C4_11 C3_11 1_555 1_555
H3_12 C4_11 1_555 1_555
C5_11 C4_11 1_555 1_555
H4_11 C5_11 1_555 1_555
H7_12 C10_12 1_555 1_555
C13_11 O2_11 1_555 1_555
O5_11 In3_4 1_555 1_555
O6_11 In3_4 1_555 1_555
O8_7 C28_13 1_555 1_555
C15_13 H9_13 1_555 1_555
C16_13 C15_13 1_555 1_555
H10_13 C16_13 1_555 1_555
C17_11 C16_13 1_555 1_555
C18_11 C17_11 1_555 1_555
H11_11 C18_11 1_555 1_555
C19_11 C18_11 1_555 1_555
H12_11 C19_11 1_555 1_555
C20_11 C15_13 1_555 1_555
C21_13 H13_13 1_555 1_555
C22_13 C21_13 1_555 1_555
H14_13 C22_13 1_555 1_555
C23_13 C17_11 1_555 1_555
C24_11 C23_13 1_555 1_555
H15_11 C24_11 1_555 1_555
C25_13 C24_11 1_555 1_555
H16_11 C25_13 1_555 1_555
C26_13 C21_13 1_555 1_555
C27_11 O5_11 1_555 1_555
C28_13 O11_7 1_555 1_555
C5_11 C6_11 1_555 1_555
C6_11 C13_11 1_555 1_555
O6_11 C27_11 1_555 1_555
C19_11 C20_11 1_555 1_555
C20_11 C27_11 1_555 1_555
C22_13 C23_13 1_555 1_555
C25_13 C26_13 1_555 1_555
C26_13 C28_13 1_555 1_555
O9_5 C14_13 1_555 1_555
O12_5 C14_13 1_555 1_555
C1_10 H1_10 1_555 1_555
C2_10 C1_10 1_555 1_555
H2_10 C2_10 1_555 1_555
C7_13 H5_13 1_555 1_555
C8_13 C7_13 1_555 1_555
H6_10 C8_13 1_555 1_555
C12_13 C7_13 1_555 1_555
C14_13 C12_13 1_555 1_555
C8_13 C9_13 1_555 1_555
C11_13 C12_13 1_555 1_555
In3_3 O1_12 1_555 1_555
O1_12 C13_12 1_555 1_555
O2_12 In3_3 1_555 1_555
C4_12 C3_12 1_555 1_555
C5_12 C4_12 1_555 1_555
H4_12 C5_12 1_555 1_555
C13_12 O2_12 1_555 1_555
O5_12 In3_3 1_555 1_555
O6_12 In3_3 1_555 1_555
O8_8 C28_14 1_555 1_555
C15_14 H9_14 1_555 1_555
C16_14 C15_14 1_555 1_555
H10_14 C16_14 1_555 1_555
C17_12 C16_14 1_555 1_555
C18_12 C17_12 1_555 1_555
H11_12 C18_12 1_555 1_555
C19_12 C18_12 1_555 1_555
H12_12 C19_12 1_555 1_555
C20_12 C15_14 1_555 1_555
C21_14 H13_14 1_555 1_555
C22_14 C21_14 1_555 1_555
H14_14 C22_14 1_555 1_555
C23_14 C17_12 1_555 1_555
C24_12 C23_14 1_555 1_555
H15_12 C24_12 1_555 1_555
C25_14 C24_12 1_555 1_555
H16_12 C25_14 1_555 1_555
C26_14 C21_14 1_555 1_555
C27_12 O5_12 1_555 1_555
C28_14 O11_8 1_555 1_555
C5_12 C6_12 1_555 1_555
C6_12 C13_12 1_555 1_555
O6_12 C27_12 1_555 1_555
C19_12 C20_12 1_555 1_555
C20_12 C27_12 1_555 1_555
C22_14 C23_14 1_555 1_555
C25_14 C26_14 1_555 1_555
C26_14 C28_14 1_555 1_555
O9_6 C14_14 1_555 1_555
O12_6 C14_14 1_555 1_555
C7_14 H5_14 1_555 1_555
C8_14 C7_14 1_555 1_555
C12_14 C7_14 1_555 1_555
C14_14 C12_14 1_555 1_555
C8_14 C9_14 1_555 1_555
C11_14 C12_14 1_555 1_555
In2_4 O1_13 1_555 1_555
O1_13 C13_13 1_555 1_555
O2_13 In2_4 1_555 1_555
C1_11 H1_11 1_555 1_555
C2_11 C1_11 1_555 1_555
H2_11 C2_11 1_555 1_555
C3_13 C2_11 1_555 1_555
C4_13 C3_13 1_555 1_555
C5_13 C4_13 1_555 1_555
H4_13 C5_13 1_555 1_555
C6_13 C1_11 1_555 1_555
C13_13 O2_13 1_555 1_555
O5_13 In2_4 1_555 1_555
O6_13 In2_4 1_555 1_555
O8_5 C28_15 1_555 1_555
C15_15 H9_15 1_555 1_555
C16_15 C15_15 1_555 1_555
H10_15 C16_15 1_555 1_555
C17_13 C16_15 1_555 1_555
C18_13 C17_13 1_555 1_555
H11_13 C18_13 1_555 1_555
C19_13 C18_13 1_555 1_555
H12_13 C19_13 1_555 1_555
C20_13 C15_15 1_555 1_555
C21_15 H13_15 1_555 1_555
C22_15 C21_15 1_555 1_555
H14_15 C22_15 1_555 1_555
C23_15 C17_13 1_555 1_555
C24_13 C23_15 1_555 1_555
H15_13 C24_13 1_555 1_555
C25_15 C24_13 1_555 1_555
H16_13 C25_15 1_555 1_555
C26_15 C21_15 1_555 1_555
C27_13 O5_13 1_555 1_555
C28_15 O11_5 1_555 1_555
C5_13 C6_13 1_555 1_555
C6_13 C13_13 1_555 1_555
O6_13 C27_13 1_555 1_555
C19_13 C20_13 1_555 1_555
C20_13 C27_13 1_555 1_555
C22_15 C23_15 1_555 1_555
C25_15 C26_15 1_555 1_555
C26_15 C28_15 1_555 1_555
O9_7 C14_15 1_555 1_555
O12_7 C14_15 1_555 1_555
C7_15 H5_15 1_555 1_555
C8_15 C7_15 1_555 1_555
C10_13 C9_15 1_555 1_555
H7_13 C10_13 1_555 1_555
C11_15 C10_13 1_555 1_555
H8_13 C11_15 1_555 1_555
C12_15 C7_15 1_555 1_555
C14_15 C12_15 1_555 1_555
C8_15 C9_15 1_555 1_555
C11_15 C12_15 1_555 1_555
In2_3 O1_14 1_555 1_555
O1_14 C13_14 1_555 1_555
O2_14 In2_3 1_555 1_555
O9_8 C14_16 1_555 1_555
O12_8 C14_16 1_555 1_555
C1_12 H1_12 1_555 1_555
C2_12 C1_12 1_555 1_555
H2_12 C2_12 1_555 1_555
C3_14 C2_12 1_555 1_555
C4_14 C3_14 1_555 1_555
H3_14 C4_14 1_555 1_555
C5_14 C4_14 1_555 1_555
H4_14 C5_14 1_555 1_555
C6_14 C1_12 1_555 1_555
C7_16 H5_16 1_555 1_555
C8_16 C7_16 1_555 1_555
H6_12 C8_16 1_555 1_555
C9_16 C3_14 1_555 1_555
C10_14 C9_16 1_555 1_555
H7_14 C10_14 1_555 1_555
C11_16 C10_14 1_555 1_555
H8_14 C11_16 1_555 1_555
C12_16 C7_16 1_555 1_555
C13_14 O2_14 1_555 1_555
C14_16 C12_16 1_555 1_555
O5_14 In2_3 1_555 1_555
O6_14 In2_3 1_555 1_555
O8_6 C28_16 1_555 1_555
C15_16 H9_16 1_555 1_555
C16_16 C15_16 1_555 1_555
H10_16 C16_16 1_555 1_555
C17_14 C16_16 1_555 1_555
C18_14 C17_14 1_555 1_555
H11_14 C18_14 1_555 1_555
C19_14 C18_14 1_555 1_555
H12_14 C19_14 1_555 1_555
C20_14 C15_16 1_555 1_555
C21_16 H13_16 1_555 1_555
C22_16 C21_16 1_555 1_555
H14_16 C22_16 1_555 1_555
C23_16 C17_14 1_555 1_555
C24_14 C23_16 1_555 1_555
H15_14 C24_14 1_555 1_555
C25_16 C24_14 1_555 1_555
H16_14 C25_16 1_555 1_555
C26_16 C21_16 1_555 1_555
C27_14 O5_14 1_555 1_555
C28_16 O11_6 1_555 1_555
C5_14 C6_14 1_555 1_555
C6_14 C13_14 1_555 1_555
C8_16 C9_16 1_555 1_555
C11_16 C12_16 1_555 1_555
O6_14 C27_14 1_555 1_555
C19_14 C20_14 1_555 1_555
C20_14 C27_14 1_555 1_555
C22_16 C23_16 1_555 1_555
C25_16 C26_16 1_555 1_555
C26_16 C28_16 1_555 1_555
C1_13 H1_13 1_555 1_555
C2_13 C1_13 1_555 1_555
H2_13 C2_13 1_555 1_555
H7_15 C10_15 1_555 1_555
O1_15 C13_15 1_555 1_555
C1_14 H1_14 1_555 1_555
C2_14 C1_14 1_555 1_555
H2_14 C2_14 1_555 1_555
C3_15 C2_14 1_555 1_555
C4_15 C3_15 1_555 1_555
C5_15 C4_15 1_555 1_555
H4_15 C5_15 1_555 1_555
C6_15 C1_14 1_555 1_555
C13_15 O2_15 1_555 1_555
C18_15 C17_15 1_555 1_555
H11_15 C18_15 1_555 1_555
C19_15 C18_15 1_555 1_555
H12_15 C19_15 1_555 1_555
H15_15 C24_15 1_555 1_555
C27_15 O5_15 1_555 1_555
C5_15 C6_15 1_555 1_555
C6_15 C13_15 1_555 1_555
O6_15 C27_15 1_555 1_555
C19_15 C20_15 1_555 1_555
C20_15 C27_15 1_555 1_555
H7_16 C10_16 1_555 1_555
C1_15 H1_15 1_555 1_555
C2_15 C1_15 1_555 1_555
H2_15 C2_15 1_555 1_555
O1_16 C13_16 1_555 1_555
C1_16 H1_16 1_555 1_555
C2_16 C1_16 1_555 1_555
H2_16 C2_16 1_555 1_555
C3_16 C2_16 1_555 1_555
C4_16 C3_16 1_555 1_555
C5_16 C4_16 1_555 1_555
H4_16 C5_16 1_555 1_555
C6_16 C1_16 1_555 1_555
C13_16 O2_16 1_555 1_555
C18_16 C17_16 1_555 1_555
H11_16 C18_16 1_555 1_555
C19_16 C18_16 1_555 1_555
H12_16 C19_16 1_555 1_555
H15_16 C24_16 1_555 1_555
C27_16 O5_16 1_555 1_555
C5_16 C6_16 1_555 1_555
C6_16 C13_16 1_555 1_555
O6_16 C27_16 1_555 1_555
C19_16 C20_16 1_555 1_555
C20_16 C27_16 1_555 1_555
In4 O13 1_555 1_555
O13 C41 1_555 1_555
O14 In4 1_555 1_555
O15 C42 1_555 1_555
O16 C42 1_555 1_555
C29 H17 1_555 1_555
C30 C29 1_555 1_555
H18 C30 1_555 1_555
C31 C30 1_555 1_555
C32 C31 1_555 1_555
H19 C32 1_555 1_555
C33 C32 1_555 1_555
H20 C33 1_555 1_555
C34 C29 1_555 1_555
C35 H21 1_555 1_555
C36 C35 1_555 1_555
H22 C36 1_555 1_555
C37 C31 1_555 1_555
C38 C37 1_555 1_555
H23 C38 1_555 1_555
C39 C38 1_555 1_555
H24 C39 1_555 1_555
C40 C35 1_555 1_555
C41 O14 1_555 1_555
C42 C40 1_555 1_555
In5 O15 1_555 1_555
In6 O19 1_555 1_555
O17 In4 1_555 1_555
O18 In4 1_555 1_555
O19 C56 1_555 1_555
O20 In4 1_555 1_555
O21 In4 1_555 1_555
O22 In6 1_555 1_555
O23 In4 1_555 1_555
O24 In4 1_555 1_555
C43 H25 1_555 1_555
C44 C43 1_555 1_555
H26 C44 1_555 1_555
C45 C44 1_555 1_555
C46 C45 1_555 1_555
H27 C46 1_555 1_555
C47 C46 1_555 1_555
H28 C47 1_555 1_555
C48 C43 1_555 1_555
C49 H29 1_555 1_555
C50 C49 1_555 1_555
H30 C50 1_555 1_555
C51 C45 1_555 1_555
C52 C51 1_555 1_555
H31 C52 1_555 1_555
C53 C52 1_555 1_555
H32 C53 1_555 1_555
C54 C49 1_555 1_555
C55 O17 1_555 1_555
C56 O22 1_555 1_555
O16 In5 1_555 1_555
C33 C34 1_555 1_555
C34 C41 1_555 1_555
C36 C37 1_555 1_555
C39 C40 1_555 1_555
O18 C55 1_555 1_555
C47 C48 1_555 1_555
C48 C55 1_555 1_555
C50 C51 1_555 1_555
C53 C54 1_555 1_555
C54 C56 1_555 1_555
In4_2 O13_2 1_555 1_555
O13_2 C41_2 1_555 1_555
O14_2 In4_2 1_555 1_555
C29_2 H17_2 1_555 1_555
C30_2 C29_2 1_555 1_555
C34_2 C29_2 1_555 1_555
C41_2 O14_2 1_555 1_555
In6 O19_2 1_555 1_555
O17_2 In4_2 1_555 1_555
O18_2 In4_2 1_555 1_555
O19_2 C56_2 1_555 1_555
O20_2 In4_2 1_555 1_555
O21_2 In4_2 1_555 1_555
O22_2 In6 1_555 1_555
O23_2 In4_2 1_555 1_555
O24_2 In4_2 1_555 1_555
C43_2 H25_2 1_555 1_555
C44_2 C43_2 1_555 1_555
H26_2 C44_2 1_555 1_555
C45_2 C44_2 1_555 1_555
C46_2 C45_2 1_555 1_555
H27_2 C46_2 1_555 1_555
C47_2 C46_2 1_555 1_555
H28_2 C47_2 1_555 1_555
C48_2 C43_2 1_555 1_555
C49_2 H29_2 1_555 1_555
C50_2 C49_2 1_555 1_555
H30_2 C50_2 1_555 1_555
C51_2 C45_2 1_555 1_555
C52_2 C51_2 1_555 1_555
H31_2 C52_2 1_555 1_555
C53_2 C52_2 1_555 1_555
H32_2 C53_2 1_555 1_555
C54_2 C49_2 1_555 1_555
C55_2 O17_2 1_555 1_555
C56_2 O22_2 1_555 1_555
C34_2 C41_2 1_555 1_555
O18_2 C55_2 1_555 1_555
C47_2 C48_2 1_555 1_555
C48_2 C55_2 1_555 1_555
C50_2 C51_2 1_555 1_555
C53_2 C54_2 1_555 1_555
C54_2 C56_2 1_555 1_555
O15_2 C42_2 1_555 1_555
O16_2 C42_2 1_555 1_555
C35_2 H21_2 1_555 1_555
C36_2 C35_2 1_555 1_555
H22_2 C36_2 1_555 1_555
C40_2 C35_2 1_555 1_555
C42_2 C40_2 1_555 1_555
In5 O15_2 1_555 1_555
O16_2 In5 1_555 1_555
C36_2 C37_2 1_555 1_555
C39_2 C40_2 1_555 1_555
In4_3 O13_3 1_555 1_555
O13_3 C41_3 1_555 1_555
O14_3 In4_3 1_555 1_555
O15_3 C42_3 1_555 1_555
O16_3 C42_3 1_555 1_555
C29_3 H17_3 1_555 1_555
C30_3 C29_3 1_555 1_555
H18_2 C30_3 1_555 1_555
C31_2 C30_3 1_555 1_555
C32_2 C31_2 1_555 1_555
H19_2 C32_2 1_555 1_555
C33_2 C32_2 1_555 1_555
H20_2 C33_2 1_555 1_555
C34_3 C29_3 1_555 1_555
C35_3 H21_3 1_555 1_555
C36_3 C35_3 1_555 1_555
H22_3 C36_3 1_555 1_555
C37_3 C31_2 1_555 1_555
C38_2 C37_3 1_555 1_555
H23_2 C38_2 1_555 1_555
C39_3 C38_2 1_555 1_555
H24_2 C39_3 1_555 1_555
C40_3 C35_3 1_555 1_555
C41_3 O14_3 1_555 1_555
C42_3 C40_3 1_555 1_555
In5_2 O15_3 1_555 1_555
O17_3 In4_3 1_555 1_555
O18_3 In4_3 1_555 1_555
O20_3 In4_3 1_555 1_555
O21_3 In4_3 1_555 1_555
O23_3 In4_3 1_555 1_555
O24_3 In4_3 1_555 1_555
C43_3 H25_3 1_555 1_555
C44_3 C43_3 1_555 1_555
C45_3 C44_3 1_555 1_555
C46_3 C45_3 1_555 1_555
H27_3 C46_3 1_555 1_555
C47_3 C46_3 1_555 1_555
H28_3 C47_3 1_555 1_555
C48_3 C43_3 1_555 1_555
C55_3 O17_3 1_555 1_555
O16_3 In5_2 1_555 1_555
C33_2 C34_3 1_555 1_555
C34_3 C41_3 1_555 1_555
C36_3 C37_3 1_555 1_555
C39_3 C40_3 1_555 1_555
O18_3 C55_3 1_555 1_555
C47_3 C48_3 1_555 1_555
C48_3 C55_3 1_555 1_555
In6_2 O19_3 1_555 1_555
O19_3 C56_3 1_555 1_555
O22_3 In6_2 1_555 1_555
C49_3 H29_3 1_555 1_555
C50_3 C49_3 1_555 1_555
H30_3 C50_3 1_555 1_555
C52_3 C51_3 1_555 1_555
H31_3 C52_3 1_555 1_555
C53_3 C52_3 1_555 1_555
H32_3 C53_3 1_555 1_555
C54_3 C49_3 1_555 1_555
C56_3 O22_3 1_555 1_555
C50_3 C51_3 1_555 1_555
C53_3 C54_3 1_555 1_555
C54_3 C56_3 1_555 1_555
In4_4 O13_4 1_555 1_555
O13_4 C41_4 1_555 1_555
O14_4 In4_4 1_555 1_555
C29_4 H17_4 1_555 1_555
C30_4 C29_4 1_555 1_555
H18_3 C30_4 1_555 1_555
C34_4 C29_4 1_555 1_555
H23_3 C38_3 1_555 1_555
C41_4 O14_4 1_555 1_555
In6_2 O19_4 1_555 1_555
O17_4 In4_4 1_555 1_555
O18_4 In4_4 1_555 1_555
O19_4 C56_4 1_555 1_555
O20_4 In4_4 1_555 1_555
O21_4 In4_4 1_555 1_555
O22_4 In6_2 1_555 1_555
O23_4 In4_4 1_555 1_555
O24_4 In4_4 1_555 1_555
C43_4 H25_4 1_555 1_555
C44_4 C43_4 1_555 1_555
H26_4 C44_4 1_555 1_555
C45_4 C44_4 1_555 1_555
C46_4 C45_4 1_555 1_555
H27_4 C46_4 1_555 1_555
C47_4 C46_4 1_555 1_555
H28_4 C47_4 1_555 1_555
C48_4 C43_4 1_555 1_555
C49_4 H29_4 1_555 1_555
C50_4 C49_4 1_555 1_555
H30_4 C50_4 1_555 1_555
C51_4 C45_4 1_555 1_555
C52_4 C51_4 1_555 1_555
H31_4 C52_4 1_555 1_555
C53_4 C52_4 1_555 1_555
H32_4 C53_4 1_555 1_555
C54_4 C49_4 1_555 1_555
C55_4 O17_4 1_555 1_555
C56_4 O22_4 1_555 1_555
C34_4 C41_4 1_555 1_555
O18_4 C55_4 1_555 1_555
C47_4 C48_4 1_555 1_555
C48_4 C55_4 1_555 1_555
C50_4 C51_4 1_555 1_555
C53_4 C54_4 1_555 1_555
C54_4 C56_4 1_555 1_555
O15_4 C42_4 1_555 1_555
O16_4 C42_4 1_555 1_555
C32_3 C31_3 1_555 1_555
H19_3 C32_3 1_555 1_555
C33_3 C32_3 1_555 1_555
H20_3 C33_3 1_555 1_555
C35_4 H21_4 1_555 1_555
C36_4 C35_4 1_555 1_555
H22_4 C36_4 1_555 1_555
C37_4 C31_3 1_555 1_555
C40_4 C35_4 1_555 1_555
C42_4 C40_4 1_555 1_555
In5_2 O15_4 1_555 1_555
O16_4 In5_2 1_555 1_555
C36_4 C37_4 1_555 1_555
C39_4 C40_4 1_555 1_555
O21_2 C42_5 1_555 1_555
O24_2 C42_5 1_555 1_555
C32_4 C31_4 1_555 1_555
H19_4 C32_4 1_555 1_555
C33_4 C32_4 1_555 1_555
H20_4 C33_4 1_555 1_555
C35_5 H21_5 1_555 1_555
C36_5 C35_5 1_555 1_555
H22_5 C36_5 1_555 1_555
C37_5 C31_4 1_555 1_555
C40_5 C35_5 1_555 1_555
C42_5 C40_5 1_555 1_555
C36_5 C37_5 1_555 1_555
C39_5 C40_5 1_555 1_555
In5_2 O13_5 1_555 1_555
O13_5 C41_5 1_555 1_555
O14_5 In5_2 1_555 1_555
C29_5 H17_5 1_555 1_555
C30_5 C29_5 1_555 1_555
H18_4 C30_5 1_555 1_555
C34_5 C29_5 1_555 1_555
H23_4 C38_4 1_555 1_555
C41_5 O14_5 1_555 1_555
O17_5 In5_2 1_555 1_555
O18_5 In5_2 1_555 1_555
O21 C56_5 1_555 1_555
C43_5 H25_5 1_555 1_555
C44_5 C43_5 1_555 1_555
H26_5 C44_5 1_555 1_555
C45_5 C44_5 1_555 1_555
C46_5 C45_5 1_555 1_555
H27_5 C46_5 1_555 1_555
C47_5 C46_5 1_555 1_555
H28_5 C47_5 1_555 1_555
C48_5 C43_5 1_555 1_555
C49_5 H29_5 1_555 1_555
C50_5 C49_5 1_555 1_555
H30_5 C50_5 1_555 1_555
C51_5 C45_5 1_555 1_555
C52_5 C51_5 1_555 1_555
H31_5 C52_5 1_555 1_555
C53_5 C52_5 1_555 1_555
H32_5 C53_5 1_555 1_555
C54_5 C49_5 1_555 1_555
C55_5 O17_5 1_555 1_555
C56_5 O24 1_555 1_555
C34_5 C41_5 1_555 1_555
O18_5 C55_5 1_555 1_555
C47_5 C48_5 1_555 1_555
C48_5 C55_5 1_555 1_555
C50_5 C51_5 1_555 1_555
C53_5 C54_5 1_555 1_555
C54_5 C56_5 1_555 1_555
O20_2 C42_6 1_555 1_555
O23_2 C42_6 1_555 1_555
C35_6 H21_6 1_555 1_555
C36_6 C35_6 1_555 1_555
H22_6 C36_6 1_555 1_555
C38_5 C37_6 1_555 1_555
H23_5 C38_5 1_555 1_555
C39_6 C38_5 1_555 1_555
H24_5 C39_6 1_555 1_555
C40_6 C35_6 1_555 1_555
C42_6 C40_6 1_555 1_555
C36_6 C37_6 1_555 1_555
C39_6 C40_6 1_555 1_555
In6_2 O13_6 1_555 1_555
O13_6 C41_6 1_555 1_555
O14_6 In6_2 1_555 1_555
C29_6 H17_6 1_555 1_555
C30_6 C29_6 1_555 1_555
C31_5 C30_6 1_555 1_555
C32_5 C31_5 1_555 1_555
H19_5 C32_5 1_555 1_555
C33_5 C32_5 1_555 1_555
H20_5 C33_5 1_555 1_555
C34_6 C29_6 1_555 1_555
C41_6 O14_6 1_555 1_555
O17_6 In6_2 1_555 1_555
O18_6 In6_2 1_555 1_555
O20 C56_6 1_555 1_555
C43_6 H25_6 1_555 1_555
C44_6 C43_6 1_555 1_555
H26_6 C44_6 1_555 1_555
C45_6 C44_6 1_555 1_555
C46_6 C45_6 1_555 1_555
H27_6 C46_6 1_555 1_555
C47_6 C46_6 1_555 1_555
H28_6 C47_6 1_555 1_555
C48_6 C43_6 1_555 1_555
C49_6 H29_6 1_555 1_555
C50_6 C49_6 1_555 1_555
H30_6 C50_6 1_555 1_555
C51_6 C45_6 1_555 1_555
C52_6 C51_6 1_555 1_555
H31_6 C52_6 1_555 1_555
C53_6 C52_6 1_555 1_555
H32_6 C53_6 1_555 1_555
C54_6 C49_6 1_555 1_555
C55_6 O17_6 1_555 1_555
C56_6 O23 1_555 1_555
C33_5 C34_6 1_555 1_555
C34_6 C41_6 1_555 1_555
O18_6 C55_6 1_555 1_555
C47_6 C48_6 1_555 1_555
C48_6 C55_6 1_555 1_555
C50_6 C51_6 1_555 1_555
C53_6 C54_6 1_555 1_555
C54_6 C56_6 1_555 1_555
O21_4 C42_7 1_555 1_555
O24_4 C42_7 1_555 1_555
C35_7 H21_7 1_555 1_555
C40_7 C35_7 1_555 1_555
C42_7 C40_7 1_555 1_555
C39_7 C40_7 1_555 1_555
O21_3 C56_7 1_555 1_555
C49_7 H29_7 1_555 1_555
H31_7 C52_7 1_555 1_555
C53_7 C52_7 1_555 1_555
H32_7 C53_7 1_555 1_555
C54_7 C49_7 1_555 1_555
C56_7 O24_3 1_555 1_555
C53_7 C54_7 1_555 1_555
C54_7 C56_7 1_555 1_555
In5 O13_7 1_555 1_555
O13_7 C41_7 1_555 1_555
O14_7 In5 1_555 1_555
C29_7 H17_7 1_555 1_555
C30_7 C29_7 1_555 1_555
H18_6 C30_7 1_555 1_555
C34_7 C29_7 1_555 1_555
C41_7 O14_7 1_555 1_555
O17_7 In5 1_555 1_555
O18_7 In5 1_555 1_555
C43_7 H25_7 1_555 1_555
C44_7 C43_7 1_555 1_555
C45_7 C44_7 1_555 1_555
C46_7 C45_7 1_555 1_555
H27_7 C46_7 1_555 1_555
C47_7 C46_7 1_555 1_555
H28_7 C47_7 1_555 1_555
C48_7 C43_7 1_555 1_555
C55_7 O17_7 1_555 1_555
C34_7 C41_7 1_555 1_555
O18_7 C55_7 1_555 1_555
C47_7 C48_7 1_555 1_555
C48_7 C55_7 1_555 1_555
In6 O13_8 1_555 1_555
O13_8 C41_8 1_555 1_555
O14_8 In6 1_555 1_555
C29_8 H17_8 1_555 1_555
C30_8 C29_8 1_555 1_555
H18_7 C30_8 1_555 1_555
C31_6 C30_8 1_555 1_555
C32_6 C31_6 1_555 1_555
H19_6 C32_6 1_555 1_555
C33_6 C32_6 1_555 1_555
H20_6 C33_6 1_555 1_555
C34_8 C29_8 1_555 1_555
H22_7 C36_7 1_555 1_555
C37_7 C31_6 1_555 1_555
C41_8 O14_8 1_555 1_555
O17_8 In6 1_555 1_555
O18_8 In6 1_555 1_555
C43_8 H25_8 1_555 1_555
C44_8 C43_8 1_555 1_555
H26_7 C44_8 1_555 1_555
C45_8 C44_8 1_555 1_555
C46_8 C45_8 1_555 1_555
H27_8 C46_8 1_555 1_555
C47_8 C46_8 1_555 1_555
H28_8 C47_8 1_555 1_555
C48_8 C43_8 1_555 1_555
H30_7 C50_7 1_555 1_555
C51_7 C45_8 1_555 1_555
C55_8 O17_8 1_555 1_555
C33_6 C34_8 1_555 1_555
C34_8 C41_8 1_555 1_555
C36_7 C37_7 1_555 1_555
O18_8 C55_8 1_555 1_555
C47_8 C48_8 1_555 1_555
C48_8 C55_8 1_555 1_555
C50_7 C51_7 1_555 1_555
O20_4 C42_8 1_555 1_555
O23_4 C42_8 1_555 1_555
C35_8 H21_8 1_555 1_555
H23_6 C38_6 1_555 1_555
C39_8 C38_6 1_555 1_555
H24_6 C39_8 1_555 1_555
C40_8 C35_8 1_555 1_555
C42_8 C40_8 1_555 1_555
O20_3 C56_8 1_555 1_555
C49_8 H29_8 1_555 1_555
H31_8 C52_8 1_555 1_555
C53_8 C52_8 1_555 1_555
H32_8 C53_8 1_555 1_555
C54_8 C49_8 1_555 1_555
C56_8 O23_3 1_555 1_555
C39_8 C40_8 1_555 1_555
C53_8 C54_8 1_555 1_555
C54_8 C56_8 1_555 1_555
H23_7 C38_7 1_555 1_555
C32_7 C31_7 1_555 1_555
H19_7 C32_7 1_555 1_555
C33_7 C32_7 1_555 1_555
H20_7 C33_7 1_555 1_555
In4_5 O13_9 1_555 1_555
O13_9 C41_9 1_555 1_555
O14_9 In4_5 1_555 1_555
C29_9 H17_9 1_555 1_555
C30_9 C29_9 1_555 1_555
H18_9 C30_9 1_555 1_555
C34_9 C29_9 1_555 1_555
H23_8 C38_8 1_555 1_555
C41_9 O14_9 1_555 1_555
In6_3 O19_5 1_555 1_555
O17_9 In4_5 1_555 1_555
O18_9 In4_5 1_555 1_555
O19_5 C56_9 1_555 1_555
O20_5 In4_5 1_555 1_555
O21_5 In4_5 1_555 1_555
O22_5 In6_3 1_555 1_555
O23_5 In4_5 1_555 1_555
O24_5 In4_5 1_555 1_555
C43_9 H25_9 1_555 1_555
C44_9 C43_9 1_555 1_555
H26_8 C44_9 1_555 1_555
C45_9 C44_9 1_555 1_555
C46_9 C45_9 1_555 1_555
H27_9 C46_9 1_555 1_555
C47_9 C46_9 1_555 1_555
H28_9 C47_9 1_555 1_555
C48_9 C43_9 1_555 1_555
C49_9 H29_9 1_555 1_555
C50_8 C49_9 1_555 1_555
H30_8 C50_8 1_555 1_555
C51_8 C45_9 1_555 1_555
C52_9 C51_8 1_555 1_555
H31_9 C52_9 1_555 1_555
C53_9 C52_9 1_555 1_555
H32_9 C53_9 1_555 1_555
C54_9 C49_9 1_555 1_555
C55_9 O17_9 1_555 1_555
C56_9 O22_5 1_555 1_555
C34_9 C41_9 1_555 1_555
O18_9 C55_9 1_555 1_555
C47_9 C48_9 1_555 1_555
C48_9 C55_9 1_555 1_555
C50_8 C51_8 1_555 1_555
C53_9 C54_9 1_555 1_555
C54_9 C56_9 1_555 1_555
O15_5 C42_9 1_555 1_555
O16_5 C42_9 1_555 1_555
C32_8 C31_8 1_555 1_555
H19_8 C32_8 1_555 1_555
C33_8 C32_8 1_555 1_555
H20_8 C33_8 1_555 1_555
C35_9 H21_9 1_555 1_555
C36_8 C35_9 1_555 1_555
H22_8 C36_8 1_555 1_555
C37_8 C31_8 1_555 1_555
C40_9 C35_9 1_555 1_555
C42_9 C40_9 1_555 1_555
In5_3 O15_5 1_555 1_555
O16_5 In5_3 1_555 1_555
C36_8 C37_8 1_555 1_555
C39_9 C40_9 1_555 1_555
In4_6 O13_10 1_555 1_555
O13_10 C41_10 1_555 1_555
O14_10 In4_6 1_555 1_555
C29_10 H17_10 1_555 1_555
C30_10 C29_10 1_555 1_555
C31_9 C30_10 1_555 1_555
C32_9 C31_9 1_555 1_555
H19_9 C32_9 1_555 1_555
C33_9 C32_9 1_555 1_555
H20_9 C33_9 1_555 1_555
C34_10 C29_10 1_555 1_555
C41_10 O14_10 1_555 1_555
In6_3 O19_6 1_555 1_555
O17_10 In4_6 1_555 1_555
O18_10 In4_6 1_555 1_555
O19_6 C56_10 1_555 1_555
O20_6 In4_6 1_555 1_555
O21_6 In4_6 1_555 1_555
O22_6 In6_3 1_555 1_555
O23_6 In4_6 1_555 1_555
O24_6 In4_6 1_555 1_555
C43_10 H25_10 1_555 1_555
C44_10 C43_10 1_555 1_555
H26_9 C44_10 1_555 1_555
C45_10 C44_10 1_555 1_555
C46_10 C45_10 1_555 1_555
H27_10 C46_10 1_555 1_555
C47_10 C46_10 1_555 1_555
H28_10 C47_10 1_555 1_555
C48_10 C43_10 1_555 1_555
C49_10 H29_10 1_555 1_555
C50_9 C49_10 1_555 1_555
H30_9 C50_9 1_555 1_555
C51_9 C45_10 1_555 1_555
C52_10 C51_9 1_555 1_555
H31_10 C52_10 1_555 1_555
C53_10 C52_10 1_555 1_555
H32_10 C53_10 1_555 1_555
C54_10 C49_10 1_555 1_555
C55_10 O17_10 1_555 1_555
C56_10 O22_6 1_555 1_555
C33_9 C34_10 1_555 1_555
C34_10 C41_10 1_555 1_555
O18_10 C55_10 1_555 1_555
C47_10 C48_10 1_555 1_555
C48_10 C55_10 1_555 1_555
C50_9 C51_9 1_555 1_555
C53_10 C54_10 1_555 1_555
C54_10 C56_10 1_555 1_555
O15_6 C42_10 1_555 1_555
O16_6 C42_10 1_555 1_555
C35_10 H21_10 1_555 1_555
C36_9 C35_10 1_555 1_555
H22_9 C36_9 1_555 1_555
C38_9 C37_9 1_555 1_555
H23_9 C38_9 1_555 1_555
C39_10 C38_9 1_555 1_555
H24_9 C39_10 1_555 1_555
C40_10 C35_10 1_555 1_555
C42_10 C40_10 1_555 1_555
In5_3 O15_6 1_555 1_555
O16_6 In5_3 1_555 1_555
C36_9 C37_9 1_555 1_555
C39_10 C40_10 1_555 1_555
In4_7 O13_11 1_555 1_555
O13_11 C41_11 1_555 1_555
O14_11 In4_7 1_555 1_555
C29_11 H17_11 1_555 1_555
C30_11 C29_11 1_555 1_555
H18_11 C30_11 1_555 1_555
C34_11 C29_11 1_555 1_555
C41_11 O14_11 1_555 1_555
O17_11 In4_7 1_555 1_555
O18_11 In4_7 1_555 1_555
O20_7 In4_7 1_555 1_555
O21_7 In4_7 1_555 1_555
O23_7 In4_7 1_555 1_555
O24_7 In4_7 1_555 1_555
C43_11 H25_11 1_555 1_555
C44_11 C43_11 1_555 1_555
C45_11 C44_11 1_555 1_555
C46_11 C45_11 1_555 1_555
H27_11 C46_11 1_555 1_555
C47_11 C46_11 1_555 1_555
H28_11 C47_11 1_555 1_555
C48_11 C43_11 1_555 1_555
C55_11 O17_11 1_555 1_555
C34_11 C41_11 1_555 1_555
O18_11 C55_11 1_555 1_555
C47_11 C48_11 1_555 1_555
C48_11 C55_11 1_555 1_555
In6_4 O19_7 1_555 1_555
O19_7 C56_11 1_555 1_555
O22_7 In6_4 1_555 1_555
C49_11 H29_11 1_555 1_555
H31_11 C52_11 1_555 1_555
C53_11 C52_11 1_555 1_555
H32_11 C53_11 1_555 1_555
C54_11 C49_11 1_555 1_555
C56_11 O22_7 1_555 1_555
C53_11 C54_11 1_555 1_555
C54_11 C56_11 1_555 1_555
O15_7 C42_11 1_555 1_555
O16_7 C42_11 1_555 1_555
C35_11 H21_11 1_555 1_555
C40_11 C35_11 1_555 1_555
C42_11 C40_11 1_555 1_555
In5_4 O15_7 1_555 1_555
O16_7 In5_4 1_555 1_555
C39_11 C40_11 1_555 1_555
O15_8 C42_12 1_555 1_555
O16_8 C42_12 1_555 1_555
C35_12 H21_12 1_555 1_555
H23_10 C38_10 1_555 1_555
C39_12 C38_10 1_555 1_555
H24_10 C39_12 1_555 1_555
C40_12 C35_12 1_555 1_555
C42_12 C40_12 1_555 1_555
In5_4 O15_8 1_555 1_555
In6_4 O19_8 1_555 1_555
O19_8 C56_12 1_555 1_555
O22_8 In6_4 1_555 1_555
C49_12 H29_12 1_555 1_555
H31_12 C52_12 1_555 1_555
C53_12 C52_12 1_555 1_555
H32_12 C53_12 1_555 1_555
C54_12 C49_12 1_555 1_555
C56_12 O22_8 1_555 1_555
O16_8 In5_4 1_555 1_555
C39_12 C40_12 1_555 1_555
C53_12 C54_12 1_555 1_555
C54_12 C56_12 1_555 1_555
In4_8 O13_12 1_555 1_555
O13_12 C41_12 1_555 1_555
O14_12 In4_8 1_555 1_555
C29_12 H17_12 1_555 1_555
C30_12 C29_12 1_555 1_555
H18_12 C30_12 1_555 1_555
C31_10 C30_12 1_555 1_555
C32_10 C31_10 1_555 1_555
H19_10 C32_10 1_555 1_555
C33_10 C32_10 1_555 1_555
H20_10 C33_10 1_555 1_555
C34_12 C29_12 1_555 1_555
H22_10 C36_10 1_555 1_555
C37_10 C31_10 1_555 1_555
C41_12 O14_12 1_555 1_555
O17_12 In4_8 1_555 1_555
O18_12 In4_8 1_555 1_555
O20_8 In4_8 1_555 1_555
O21_8 In4_8 1_555 1_555
O23_8 In4_8 1_555 1_555
O24_8 In4_8 1_555 1_555
C43_12 H25_12 1_555 1_555
C44_12 C43_12 1_555 1_555
H26_10 C44_12 1_555 1_555
C45_12 C44_12 1_555 1_555
C46_12 C45_12 1_555 1_555
H27_12 C46_12 1_555 1_555
C47_12 C46_12 1_555 1_555
H28_12 C47_12 1_555 1_555
C48_12 C43_12 1_555 1_555
H30_10 C50_10 1_555 1_555
C51_10 C45_12 1_555 1_555
C55_12 O17_12 1_555 1_555
C33_10 C34_12 1_555 1_555
C34_12 C41_12 1_555 1_555
C36_10 C37_10 1_555 1_555
O18_12 C55_12 1_555 1_555
C47_12 C48_12 1_555 1_555
C48_12 C55_12 1_555 1_555
C50_10 C51_10 1_555 1_555
In6_3 O13_13 1_555 1_555
O13_13 C41_13 1_555 1_555
O14_13 In6_3 1_555 1_555
O20_7 C42_13 1_555 1_555
O23_7 C42_13 1_555 1_555
C29_13 H17_13 1_555 1_555
C30_13 C29_13 1_555 1_555
H18_13 C30_13 1_555 1_555
C31_11 C30_13 1_555 1_555
C32_11 C31_11 1_555 1_555
H19_11 C32_11 1_555 1_555
C33_11 C32_11 1_555 1_555
H20_11 C33_11 1_555 1_555
C34_13 C29_13 1_555 1_555
C35_13 H21_13 1_555 1_555
C36_11 C35_13 1_555 1_555
H22_11 C36_11 1_555 1_555
C37_11 C31_11 1_555 1_555
C38_11 C37_11 1_555 1_555
H23_11 C38_11 1_555 1_555
C39_13 C38_11 1_555 1_555
H24_11 C39_13 1_555 1_555
C40_13 C35_13 1_555 1_555
C41_13 O14_13 1_555 1_555
C42_13 C40_13 1_555 1_555
O17_13 In6_3 1_555 1_555
O18_13 In6_3 1_555 1_555
O20_8 C56_13 1_555 1_555
C43_13 H25_13 1_555 1_555
C44_13 C43_13 1_555 1_555
H26_11 C44_13 1_555 1_555
C45_13 C44_13 1_555 1_555
C46_13 C45_13 1_555 1_555
H27_13 C46_13 1_555 1_555
C47_13 C46_13 1_555 1_555
H28_13 C47_13 1_555 1_555
C48_13 C43_13 1_555 1_555
C49_13 H29_13 1_555 1_555
C50_11 C49_13 1_555 1_555
H30_11 C50_11 1_555 1_555
C51_11 C45_13 1_555 1_555
C52_13 C51_11 1_555 1_555
H31_13 C52_13 1_555 1_555
C53_13 C52_13 1_555 1_555
H32_13 C53_13 1_555 1_555
C54_13 C49_13 1_555 1_555
C55_13 O17_13 1_555 1_555
C56_13 O23_8 1_555 1_555
C33_11 C34_13 1_555 1_555
C34_13 C41_13 1_555 1_555
C36_11 C37_11 1_555 1_555
C39_13 C40_13 1_555 1_555
O18_13 C55_13 1_555 1_555
C47_13 C48_13 1_555 1_555
C48_13 C55_13 1_555 1_555
C50_11 C51_11 1_555 1_555
C53_13 C54_13 1_555 1_555
C54_13 C56_13 1_555 1_555
O21_7 C42_14 1_555 1_555
O24_7 C42_14 1_555 1_555
C35_14 H21_14 1_555 1_555
C36_12 C35_14 1_555 1_555
H22_12 C36_12 1_555 1_555
C40_14 C35_14 1_555 1_555
C42_14 C40_14 1_555 1_555
C36_12 C37_12 1_555 1_555
C39_14 C40_14 1_555 1_555
In5_3 O13_14 1_555 1_555
O13_14 C41_14 1_555 1_555
O14_14 In5_3 1_555 1_555
C29_14 H17_14 1_555 1_555
C30_14 C29_14 1_555 1_555
C34_14 C29_14 1_555 1_555
C41_14 O14_14 1_555 1_555
O17_14 In5_3 1_555 1_555
O18_14 In5_3 1_555 1_555
O21_8 C56_14 1_555 1_555
C43_14 H25_14 1_555 1_555
C44_14 C43_14 1_555 1_555
H26_12 C44_14 1_555 1_555
C45_14 C44_14 1_555 1_555
C46_14 C45_14 1_555 1_555
H27_14 C46_14 1_555 1_555
C47_14 C46_14 1_555 1_555
H28_14 C47_14 1_555 1_555
C48_14 C43_14 1_555 1_555
C49_14 H29_14 1_555 1_555
C50_12 C49_14 1_555 1_555
H30_12 C50_12 1_555 1_555
C51_12 C45_14 1_555 1_555
C52_14 C51_12 1_555 1_555
H31_14 C52_14 1_555 1_555
C53_14 C52_14 1_555 1_555
H32_14 C53_14 1_555 1_555
C54_14 C49_14 1_555 1_555
C55_14 O17_14 1_555 1_555
C56_14 O24_8 1_555 1_555
C34_14 C41_14 1_555 1_555
O18_14 C55_14 1_555 1_555
C47_14 C48_14 1_555 1_555
C48_14 C55_14 1_555 1_555
C50_12 C51_12 1_555 1_555
C53_14 C54_14 1_555 1_555
C54_14 C56_14 1_555 1_555
O20_6 C56_15 1_555 1_555
C49_15 H29_15 1_555 1_555
C50_13 C49_15 1_555 1_555
H30_13 C50_13 1_555 1_555
C52_15 C51_13 1_555 1_555
H31_15 C52_15 1_555 1_555
C53_15 C52_15 1_555 1_555
H32_15 C53_15 1_555 1_555
C54_15 C49_15 1_555 1_555
C56_15 O23_6 1_555 1_555
C50_13 C51_13 1_555 1_555
C53_15 C54_15 1_555 1_555
C54_15 C56_15 1_555 1_555
In6_4 O13_15 1_555 1_555
O13_15 C41_15 1_555 1_555
O14_15 In6_4 1_555 1_555
O20_5 C42_15 1_555 1_555
O23_5 C42_15 1_555 1_555
C29_15 H17_15 1_555 1_555
C30_15 C29_15 1_555 1_555
H18_14 C30_15 1_555 1_555
C31_12 C30_15 1_555 1_555
C32_12 C31_12 1_555 1_555
H19_12 C32_12 1_555 1_555
C33_12 C32_12 1_555 1_555
H20_12 C33_12 1_555 1_555
C34_15 C29_15 1_555 1_555
C35_15 H21_15 1_555 1_555
C36_13 C35_15 1_555 1_555
H22_13 C36_13 1_555 1_555
C37_13 C31_12 1_555 1_555
C38_12 C37_13 1_555 1_555
H23_12 C38_12 1_555 1_555
C39_15 C38_12 1_555 1_555
H24_12 C39_15 1_555 1_555
C40_15 C35_15 1_555 1_555
C41_15 O14_15 1_555 1_555
C42_15 C40_15 1_555 1_555
O17_15 In6_4 1_555 1_555
O18_15 In6_4 1_555 1_555
C43_15 H25_15 1_555 1_555
C44_15 C43_15 1_555 1_555
C45_15 C44_15 1_555 1_555
C46_15 C45_15 1_555 1_555
H27_15 C46_15 1_555 1_555
C47_15 C46_15 1_555 1_555
H28_15 C47_15 1_555 1_555
C48_15 C43_15 1_555 1_555
C55_15 O17_15 1_555 1_555
C33_12 C34_15 1_555 1_555
C34_15 C41_15 1_555 1_555
C36_13 C37_13 1_555 1_555
C39_15 C40_15 1_555 1_555
O18_15 C55_15 1_555 1_555
C47_15 C48_15 1_555 1_555
C48_15 C55_15 1_555 1_555
O21_5 C42_16 1_555 1_555
O24_5 C42_16 1_555 1_555
C32_13 C31_13 1_555 1_555
H19_13 C32_13 1_555 1_555
C33_13 C32_13 1_555 1_555
H20_13 C33_13 1_555 1_555
C35_16 H21_16 1_555 1_555
C36_14 C35_16 1_555 1_555
H22_14 C36_14 1_555 1_555
C37_14 C31_13 1_555 1_555
C40_16 C35_16 1_555 1_555
C42_16 C40_16 1_555 1_555
C36_14 C37_14 1_555 1_555
C39_16 C40_16 1_555 1_555
In5_4 O13_16 1_555 1_555
O13_16 C41_16 1_555 1_555
O14_16 In5_4 1_555 1_555
C29_16 H17_16 1_555 1_555
C30_16 C29_16 1_555 1_555
H18_15 C30_16 1_555 1_555
C34_16 C29_16 1_555 1_555
H23_13 C38_13 1_555 1_555
C41_16 O14_16 1_555 1_555
O17_16 In5_4 1_555 1_555
O18_16 In5_4 1_555 1_555
O21_6 C56_16 1_555 1_555
C43_16 H25_16 1_555 1_555
C44_16 C43_16 1_555 1_555
H26_14 C44_16 1_555 1_555
C45_16 C44_16 1_555 1_555
C46_16 C45_16 1_555 1_555
H27_16 C46_16 1_555 1_555
C47_16 C46_16 1_555 1_555
H28_16 C47_16 1_555 1_555
C48_16 C43_16 1_555 1_555
C49_16 H29_16 1_555 1_555
C50_14 C49_16 1_555 1_555
H30_14 C50_14 1_555 1_555
C51_14 C45_16 1_555 1_555
C52_16 C51_14 1_555 1_555
H31_16 C52_16 1_555 1_555
C53_16 C52_16 1_555 1_555
H32_16 C53_16 1_555 1_555
C54_16 C49_16 1_555 1_555
C55_16 O17_16 1_555 1_555
C56_16 O24_6 1_555 1_555
C34_16 C41_16 1_555 1_555
O18_16 C55_16 1_555 1_555
C47_16 C48_16 1_555 1_555
C48_16 C55_16 1_555 1_555
C50_14 C51_14 1_555 1_555
C53_16 C54_16 1_555 1_555
C54_16 C56_16 1_555 1_555
H23_14 C38_14 1_555 1_555
H30_15 C50_15 1_555 1_555
C50_15 C51_15 1_555 1_555
C32_14 C31_14 1_555 1_555
H19_14 C32_14 1_555 1_555
C33_14 C32_14 1_555 1_555
H20_14 C33_14 1_555 1_555
H22_15 C36_15 1_555 1_555
C37_15 C31_14 1_555 1_555
C36_15 C37_15 1_555 1_555
C32_15 C31_15 1_555 1_555
H19_15 C32_15 1_555 1_555
C33_15 C32_15 1_555 1_555
H20_15 C33_15 1_555 1_555
H23_15 C38_15 1_555 1_555
C32_16 C31_16 1_555 1_555
H19_16 C32_16 1_555 1_555
C33_16 C32_16 1_555 1_555
H20_16 C33_16 1_555 1_555
H22_16 C36_16 1_555 1_555
C37_16 C31_16 1_555 1_555
C36_16 C37_16 1_555 1_555
H30_16 C50_16 1_555 1_555
C50_16 C51_16 1_555 1_555
H23_16 C38_16 1_555 1_555
N1 H33 1_555 1_555
H34 N1 1_555 1_555
C57 N1 1_555 1_555
H35 C57 1_555 1_555
H36 C57 1_555 1_555
H37 C57 1_555 1_555
C58 N1 1_555 1_555
H38 C58 1_555 1_555
H39 C58 1_555 1_555
H40 C58 1_555 1_555
N1_2 H33_2 1_555 1_555
H34_2 N1_2 1_555 1_555
C57_2 N1_2 1_555 1_555
H35_2 C57_2 1_555 1_555
H36_2 C57_2 1_555 1_555
H37_2 C57_2 1_555 1_555
C58_2 N1_2 1_555 1_555
H38_2 C58_2 1_555 1_555
H39_2 C58_2 1_555 1_555
H40_2 C58_2 1_555 1_555
N1_3 H33_3 1_555 1_555
H34_3 N1_3 1_555 1_555
C57_3 N1_3 1_555 1_555
H35_3 C57_3 1_555 1_555
H36_3 C57_3 1_555 1_555
H37_3 C57_3 1_555 1_555
C58_3 N1_3 1_555 1_555
H38_3 C58_3 1_555 1_555
H39_3 C58_3 1_555 1_555
H40_3 C58_3 1_555 1_555
N1_4 H33_4 1_555 1_555
H34_4 N1_4 1_555 1_555
C57_4 N1_4 1_555 1_555
H35_4 C57_4 1_555 1_555
H36_4 C57_4 1_555 1_555
H37_4 C57_4 1_555 1_555
C58_4 N1_4 1_555 1_555
H38_4 C58_4 1_555 1_555
H39_4 C58_4 1_555 1_555
H40_4 C58_4 1_555 1_555
N1_5 H33_5 1_555 1_555
H34_5 N1_5 1_555 1_555
C57_5 N1_5 1_555 1_555
H35_5 C57_5 1_555 1_555
H36_5 C57_5 1_555 1_555
H37_5 C57_5 1_555 1_555
C58_5 N1_5 1_555 1_555
H38_5 C58_5 1_555 1_555
H39_5 C58_5 1_555 1_555
H40_5 C58_5 1_555 1_555
N1_6 H33_6 1_555 1_555
H34_6 N1_6 1_555 1_555
C57_6 N1_6 1_555 1_555
H35_6 C57_6 1_555 1_555
H36_6 C57_6 1_555 1_555
H37_6 C57_6 1_555 1_555
C58_6 N1_6 1_555 1_555
H38_6 C58_6 1_555 1_555
H39_6 C58_6 1_555 1_555
H40_6 C58_6 1_555 1_555
N1_7 H33_7 1_555 1_555
H34_7 N1_7 1_555 1_555
C57_7 N1_7 1_555 1_555
H35_7 C57_7 1_555 1_555
H36_7 C57_7 1_555 1_555
H37_7 C57_7 1_555 1_555
C58_7 N1_7 1_555 1_555
H38_7 C58_7 1_555 1_555
H39_7 C58_7 1_555 1_555
H40_7 C58_7 1_555 1_555
N1_8 H33_8 1_555 1_555
H34_8 N1_8 1_555 1_555
C57_8 N1_8 1_555 1_555
H35_8 C57_8 1_555 1_555
H36_8 C57_8 1_555 1_555
H37_8 C57_8 1_555 1_555
C58_8 N1_8 1_555 1_555
H38_8 C58_8 1_555 1_555
H39_8 C58_8 1_555 1_555
H40_8 C58_8 1_555 1_555
N1_9 H33_9 1_555 1_555
H34_9 N1_9 1_555 1_555
C57_9 N1_9 1_555 1_555
H35_9 C57_9 1_555 1_555
H36_9 C57_9 1_555 1_555
H37_9 C57_9 1_555 1_555
C58_9 N1_9 1_555 1_555
H38_9 C58_9 1_555 1_555
H39_9 C58_9 1_555 1_555
H40_9 C58_9 1_555 1_555
N1_10 H33_10 1_555 1_555
H34_10 N1_10 1_555 1_555
C57_10 N1_10 1_555 1_555
H35_10 C57_10 1_555 1_555
H36_10 C57_10 1_555 1_555
H37_10 C57_10 1_555 1_555
C58_10 N1_10 1_555 1_555
H38_10 C58_10 1_555 1_555
H39_10 C58_10 1_555 1_555
H40_10 C58_10 1_555 1_555
N1_11 H33_11 1_555 1_555
H34_11 N1_11 1_555 1_555
C57_11 N1_11 1_555 1_555
H35_11 C57_11 1_555 1_555
H36_11 C57_11 1_555 1_555
H37_11 C57_11 1_555 1_555
C58_11 N1_11 1_555 1_555
H38_11 C58_11 1_555 1_555
H39_11 C58_11 1_555 1_555
H40_11 C58_11 1_555 1_555
N1_12 H33_12 1_555 1_555
H34_12 N1_12 1_555 1_555
C57_12 N1_12 1_555 1_555
H35_12 C57_12 1_555 1_555
H36_12 C57_12 1_555 1_555
H37_12 C57_12 1_555 1_555
C58_12 N1_12 1_555 1_555
H38_12 C58_12 1_555 1_555
H39_12 C58_12 1_555 1_555
H40_12 C58_12 1_555 1_555
N1_13 H33_13 1_555 1_555
H34_13 N1_13 1_555 1_555
C57_13 N1_13 1_555 1_555
H35_13 C57_13 1_555 1_555
H36_13 C57_13 1_555 1_555
H37_13 C57_13 1_555 1_555
C58_13 N1_13 1_555 1_555
H38_13 C58_13 1_555 1_555
H39_13 C58_13 1_555 1_555
H40_13 C58_13 1_555 1_555
N1_14 H33_14 1_555 1_555
H34_14 N1_14 1_555 1_555
C57_14 N1_14 1_555 1_555
H35_14 C57_14 1_555 1_555
H36_14 C57_14 1_555 1_555
H37_14 C57_14 1_555 1_555
C58_14 N1_14 1_555 1_555
H38_14 C58_14 1_555 1_555
H39_14 C58_14 1_555 1_555
H40_14 C58_14 1_555 1_555
N1_15 H33_15 1_555 1_555
H34_15 N1_15 1_555 1_555
C57_15 N1_15 1_555 1_555
H35_15 C57_15 1_555 1_555
H36_15 C57_15 1_555 1_555
H37_15 C57_15 1_555 1_555
C58_15 N1_15 1_555 1_555
H38_15 C58_15 1_555 1_555
H39_15 C58_15 1_555 1_555
H40_15 C58_15 1_555 1_555
N1_16 H33_16 1_555 1_555
H34_16 N1_16 1_555 1_555
C57_16 N1_16 1_555 1_555
H35_16 C57_16 1_555 1_555
H36_16 C57_16 1_555 1_555
H37_16 C57_16 1_555 1_555
C58_16 N1_16 1_555 1_555
H38_16 C58_16 1_555 1_555
H39_16 C58_16 1_555 1_555
H40_16 C58_16 1_555 1_555
N1_17 H33_17 1_555 1_555
H34_17 N1_17 1_555 1_555
C57_17 N1_17 1_555 1_555
H35_17 C57_17 1_555 1_555
H36_17 C57_17 1_555 1_555
H37_17 C57_17 1_555 1_555
C58_17 N1_17 1_555 1_555
H38_17 C58_17 1_555 1_555
H39_17 C58_17 1_555 1_555
H40_17 C58_17 1_555 1_555
N1_18 H33_18 1_555 1_555
H34_18 N1_18 1_555 1_555
C57_18 N1_18 1_555 1_555
H35_18 C57_18 1_555 1_555
H36_18 C57_18 1_555 1_555
H37_18 C57_18 1_555 1_555
C58_18 N1_18 1_555 1_555
H38_18 C58_18 1_555 1_555
H39_18 C58_18 1_555 1_555
H40_18 C58_18 1_555 1_555
N1_19 H33_19 1_555 1_555
H34_19 N1_19 1_555 1_555
C57_19 N1_19 1_555 1_555
H35_19 C57_19 1_555 1_555
H36_19 C57_19 1_555 1_555
H37_19 C57_19 1_555 1_555
C58_19 N1_19 1_555 1_555
H38_19 C58_19 1_555 1_555
H39_19 C58_19 1_555 1_555
H40_19 C58_19 1_555 1_555
N1_20 H33_20 1_555 1_555
H34_20 N1_20 1_555 1_555
C57_20 N1_20 1_555 1_555
H35_20 C57_20 1_555 1_555
H36_20 C57_20 1_555 1_555
H37_20 C57_20 1_555 1_555
C58_20 N1_20 1_555 1_555
H38_20 C58_20 1_555 1_555
H39_20 C58_20 1_555 1_555
H40_20 C58_20 1_555 1_555
N1_21 H33_21 1_555 1_555
H34_21 N1_21 1_555 1_555
C57_21 N1_21 1_555 1_555
H35_21 C57_21 1_555 1_555
H36_21 C57_21 1_555 1_555
H37_21 C57_21 1_555 1_555
C58_21 N1_21 1_555 1_555
H38_21 C58_21 1_555 1_555
H39_21 C58_21 1_555 1_555
H40_21 C58_21 1_555 1_555
N1_22 H33_22 1_555 1_555
H34_22 N1_22 1_555 1_555
C57_22 N1_22 1_555 1_555
H35_22 C57_22 1_555 1_555
H36_22 C57_22 1_555 1_555
H37_22 C57_22 1_555 1_555
C58_22 N1_22 1_555 1_555
H38_22 C58_22 1_555 1_555
H39_22 C58_22 1_555 1_555
H40_22 C58_22 1_555 1_555
N1_23 H33_23 1_555 1_555
H34_23 N1_23 1_555 1_555
C57_23 N1_23 1_555 1_555
H35_23 C57_23 1_555 1_555
H36_23 C57_23 1_555 1_555
H37_23 C57_23 1_555 1_555
C58_23 N1_23 1_555 1_555
H38_23 C58_23 1_555 1_555
H39_23 C58_23 1_555 1_555
H40_23 C58_23 1_555 1_555
N1_24 H33_24 1_555 1_555
H34_24 N1_24 1_555 1_555
C57_24 N1_24 1_555 1_555
H35_24 C57_24 1_555 1_555
H36_24 C57_24 1_555 1_555
H37_24 C57_24 1_555 1_555
C58_24 N1_24 1_555 1_555
H38_24 C58_24 1_555 1_555
H39_24 C58_24 1_555 1_555
H40_24 C58_24 1_555 1_555
N1_25 H33_25 1_555 1_555
H34_25 N1_25 1_555 1_555
C57_25 N1_25 1_555 1_555
H35_25 C57_25 1_555 1_555
H36_25 C57_25 1_555 1_555
H37_25 C57_25 1_555 1_555
C58_25 N1_25 1_555 1_555
H38_25 C58_25 1_555 1_555
H39_25 C58_25 1_555 1_555
H40_25 C58_25 1_555 1_555
N1_26 H33_26 1_555 1_555
H34_26 N1_26 1_555 1_555
C57_26 N1_26 1_555 1_555
H35_26 C57_26 1_555 1_555
H36_26 C57_26 1_555 1_555
H37_26 C57_26 1_555 1_555
C58_26 N1_26 1_555 1_555
H38_26 C58_26 1_555 1_555
H39_26 C58_26 1_555 1_555
H40_26 C58_26 1_555 1_555
N1_27 H33_27 1_555 1_555
H34_27 N1_27 1_555 1_555
C57_27 N1_27 1_555 1_555
H35_27 C57_27 1_555 1_555
H36_27 C57_27 1_555 1_555
H37_27 C57_27 1_555 1_555
C58_27 N1_27 1_555 1_555
H38_27 C58_27 1_555 1_555
H39_27 C58_27 1_555 1_555
H40_27 C58_27 1_555 1_555
N1_28 H33_28 1_555 1_555
H34_28 N1_28 1_555 1_555
C57_28 N1_28 1_555 1_555
H35_28 C57_28 1_555 1_555
H36_28 C57_28 1_555 1_555
H37_28 C57_28 1_555 1_555
C58_28 N1_28 1_555 1_555
H38_28 C58_28 1_555 1_555
H39_28 C58_28 1_555 1_555
H40_28 C58_28 1_555 1_555
N1_29 H33_29 1_555 1_555
H34_29 N1_29 1_555 1_555
C57_29 N1_29 1_555 1_555
H35_29 C57_29 1_555 1_555
H36_29 C57_29 1_555 1_555
H37_29 C57_29 1_555 1_555
C58_29 N1_29 1_555 1_555
H38_29 C58_29 1_555 1_555
H39_29 C58_29 1_555 1_555
H40_29 C58_29 1_555 1_555
N1_30 H33_30 1_555 1_555
H34_30 N1_30 1_555 1_555
C57_30 N1_30 1_555 1_555
H35_30 C57_30 1_555 1_555
H36_30 C57_30 1_555 1_555
H37_30 C57_30 1_555 1_555
C58_30 N1_30 1_555 1_555
H38_30 C58_30 1_555 1_555
H39_30 C58_30 1_555 1_555
H40_30 C58_30 1_555 1_555
N1_31 H33_31 1_555 1_555
H34_31 N1_31 1_555 1_555
C57_31 N1_31 1_555 1_555
H35_31 C57_31 1_555 1_555
H36_31 C57_31 1_555 1_555
H37_31 C57_31 1_555 1_555
C58_31 N1_31 1_555 1_555
H38_31 C58_31 1_555 1_555
H39_31 C58_31 1_555 1_555
H40_31 C58_31 1_555 1_555
N1_32 H33_32 1_555 1_555
H34_32 N1_32 1_555 1_555
C57_32 N1_32 1_555 1_555
H35_32 C57_32 1_555 1_555
H36_32 C57_32 1_555 1_555
H37_32 C57_32 1_555 1_555
C58_32 N1_32 1_555 1_555
H38_32 C58_32 1_555 1_555
H39_32 C58_32 1_555 1_555
H40_32 C58_32 1_555 1_555

#END
