
###############################################################################
#
# This file contains modified crystal structure data generated from the
# MOF subset of the Cambridge Structural Database (CSD) v543 
# hosted by the Cambridge Crystallographic Data Centre (CCDC).
#
# This work is licensed under the Creative Commons
# Attribution-NonCommercial-ShareAlike 4.0 International License.
# To view a copy of this license, visit
# http://creativecommons.org/licenses/by-nc-sa/4.0/
# or send a letter to
# Creative Commons, PO Box 1866, Mountain View, CA 94042, USA.
#
# CIF created using the CSD Python API on 29 September 2022
# The structure has been converted into the P1 space group
# The structure has a 3D framework
# The original CSD entry FAHVAM is in the hexagonal crystal system
# The framework has been calculated to contain at least 10.0% void space
# The void calculation uses a probe of radius 1.32A, grid spacing 0.4
# H atom positions have been added when not included in the experimental data
# Generated hydrogen atom positions removed from atoms on special positions
#
###############################################################################

data_FAHVAM
_chemical_formula_moiety         '(C84 H132 Mn15 N12 O66 Tb2)n'
_symmetry_cell_setting           triclinic
_symmetry_space_group_name_H-M   'P 1'
_symmetry_Int_Tables_number      1
_space_group_name_Hall           'P 1'
loop_
_symmetry_equiv_pos_site_id
_symmetry_equiv_pos_as_xyz
1 x,y,z
_cell_length_a                   15.351(4)
_cell_length_b                   15.351(4)
_cell_length_c                   15.812(8)
_cell_angle_alpha                90
_cell_angle_beta                 90
_cell_angle_gamma                120
_cell_volume                     3226.94
loop_
_atom_site_label
_atom_site_type_symbol
_atom_site_fract_x
_atom_site_fract_y
_atom_site_fract_z
Mn3 Mn -0.0000 0.5000 0.5000
Mn4 Mn 0.0000 0.5000 0.0000
O11 O 0.06500(4) 0.44922(3) 0.09331(3)
O37 O 0.14438(6) 0.65349(4) 0.0000
Mn4_2 Mn 0.0000 0.5000 1.0000
O10 O 0.06500(4) 0.44922(3) 0.90669(3)
O37_2 O 0.14438(6) 0.65349(4) 1.0000
Mn9 Mn 0.5000 -0.0000 0.5000
Mn1 Mn 0.5000 0.5000 0.0000
N1 N 0.47923(5) 0.23961(2) 0.2500
O1 O 0.44922(3) 0.38422(3) 0.09331(3)
O2 O 0.58720(3) 0.38758(3) 0.14458(3)
O3 O 0.65349(4) 0.50911(4) 0.0000
C1 C 0.49385(4) 0.35265(4) 0.13999(4)
C2 C 0.42750(4) 0.26544(4) 0.19739(4)
C3 C 0.32513(5) 0.21513(5) 0.19464(5)
H1 H 0.2913 0.2335 0.1562
C4 C 0.27244(7) 0.13622(3) 0.2500
H2 H 0.2025 0.1012 0.2500
Tb1 Tb 0.6667 0.3333 0.2500
Mn3_2 Mn 1.0000 0.5000 0.5000
Mn4_3 Mn 1.0000 0.5000 0.0000
Mn7 Mn 0.5000 0.0000 0.0000
Mn8 Mn 0.5000 0.5000 0.5000
Mn9_2 Mn 0.5000 1.0000 0.5000
N2 N 0.76038(5) 0.52077(5) 0.2500
N7 N 0.76039(2) 0.23962(5) 0.2500
N8 N 0.52077(5) 0.76039(2) 0.2500
O4 O 0.44922(3) 0.06500(4) 0.40669(3)
O5 O 0.44922(3) 0.06500(4) 0.59331(3)
O6 O 0.93500(4) 0.38422(3) 0.40669(3)
O7 O 0.93500(4) 0.55078(3) 0.09331(3)
O16 O 0.55078(3) 0.61578(3) 0.09331(3)
O18 O 0.61578(3) 0.55078(3) 0.40669(3)
O19 O 0.61578(3) 0.06500(4) 0.09331(3)
O20 O 0.55078(3) 0.93500(4) 0.40669(3)
O21 O 0.80038(4) 0.38758(3) 0.35542(3)
O30 O 0.80038(4) 0.41280(3) 0.14458(3)
O31 O 0.61242(3) 0.19962(4) 0.14458(3)
O32 O 0.58720(3) 0.19962(4) 0.35542(3)
O33 O 0.61242(3) 0.41280(3) 0.35542(3)
O34 O 0.41280(3) 0.61242(3) 0.14458(3)
O35 O 0.41280(3) 0.80038(4) 0.35542(3)
O36 O 0.85562(6) 0.34651(4) 0.0000
O38 O 0.65349(4) 0.14438(6) 0.5000
O40 O 0.34651(4) 0.49089(4) 0.0000
C5 C 0.49385(4) 0.14120(6) 0.36001(4)
C6 C 0.85880(6) 0.35265(4) 0.36001(4)
C7 C 0.85880(6) 0.50615(4) 0.13999(4)
C12 C 0.64735(4) 0.50615(4) 0.36001(4)
C13 C 0.64735(4) 0.14120(6) 0.13999(4)
C14 C 0.50615(4) 0.64735(4) 0.13999(4)
C15 C 0.50615(4) 0.85880(6) 0.36001(4)
C16 C 0.42750(4) 0.16206(6) 0.30261(4)
C17 C 0.83794(6) 0.57250(4) 0.19739(4)
C21 C 0.73456(4) 0.57250(4) 0.30261(4)
C22 C 0.83794(6) 0.26544(4) 0.30261(4)
C24 C 0.73456(4) 0.16206(6) 0.19739(4)
C25 C 0.57250(4) 0.73456(4) 0.19739(4)
C26 C 0.57250(4) 0.83794(6) 0.30261(4)
C27 C 0.32513(5) 0.11000(7) 0.30536(5)
C28 C 0.89000(7) 0.67487(5) 0.19464(5)
C32 C 0.89000(7) 0.21513(5) 0.30536(5)
C33 C 0.78487(5) 0.67487(5) 0.30536(5)
C35 C 0.78487(5) 0.11000(7) 0.19464(5)
C36 C 0.67487(5) 0.78487(5) 0.19464(5)
C37 C 0.67487(5) 0.89000(7) 0.30536(5)
H3 H 0.2913 0.0578 0.3438
H4 H 0.9422 0.7087 0.1562
H8 H 0.9422 0.2335 0.3438
H9 H 0.7665 0.7087 0.3438
H11 H 0.7665 0.0578 0.1562
H12 H 0.7087 0.7665 0.1562
H13 H 0.7087 0.9422 0.3438
C38 C 0.86378(8) 0.72756(7) 0.2500
C41 C 0.86378(3) 0.13622(8) 0.2500
C42 C 0.72756(7) 0.86378(3) 0.2500
H14 H 0.8987 0.7975 0.2500
H17 H 0.8988 0.1013 0.2500
H18 H 0.7975 0.8988 0.2500
Tb4 Tb 0.3333 0.6666 0.2500
Mn1_2 Mn 0.5000 0.5000 1.0000
O3_2 O 0.65349(4) 0.50911(4) 1.0000
Mn4_4 Mn 1.0000 0.5000 1.0000
Mn7_2 Mn 0.5000 0.0000 1.0000
N3 N 0.76038(5) 0.52077(5) 0.7500
N4 N 0.52077(5) 0.76038(5) 0.7500
N5 N 0.76039(2) 0.23962(5) 0.7500
N6 N 0.47923(5) 0.23961(2) 0.7500
O8 O 0.93500(4) 0.55078(3) 0.90669(3)
O9 O 0.55078(3) 0.93500(4) 0.59331(3)
O14 O 0.44922(3) 0.38422(3) 0.90669(3)
O15 O 0.55078(3) 0.61578(3) 0.90669(3)
O22 O 0.80038(4) 0.41280(3) 0.85542(3)
O23 O 0.41280(3) 0.80038(4) 0.64458(3)
O24 O 0.41280(3) 0.61242(3) 0.85542(3)
O25 O 0.61242(3) 0.41280(3) 0.64458(3)
O26 O 0.61242(3) 0.19962(4) 0.85542(3)
O27 O 0.58720(3) 0.38758(3) 0.85542(3)
O28 O 0.58720(3) 0.19962(4) 0.64458(3)
O29 O 0.80038(4) 0.38758(3) 0.64458(3)
O36_2 O 0.85562(6) 0.34651(4) 1.0000
O40_2 O 0.34651(4) 0.49089(4) 1.0000
C8 C 0.50615(4) 0.85880(6) 0.63999(4)
C9 C 0.49385(4) 0.35265(4) 0.86001(4)
C10 C 0.49385(4) 0.14120(6) 0.63999(4)
C11 C 0.50615(4) 0.64735(4) 0.86001(4)
C18 C 0.57250(4) 0.83794(6) 0.69739(4)
C19 C 0.42750(4) 0.26544(4) 0.80261(4)
C20 C 0.42750(4) 0.16206(6) 0.69739(4)
C23 C 0.57250(4) 0.73456(4) 0.80261(4)
C29 C 0.67487(5) 0.89000(7) 0.69464(5)
C30 C 0.32513(5) 0.21513(5) 0.80536(5)
C31 C 0.32513(5) 0.11000(7) 0.69464(5)
C34 C 0.67487(5) 0.78487(5) 0.80536(5)
H5 H 0.7087 0.9422 0.6562
H6 H 0.2913 0.2335 0.8438
H7 H 0.2913 0.0578 0.6562
H10 H 0.7087 0.7665 0.8438
C39 C 0.72756(7) 0.86378(3) 0.7500
C40 C 0.27244(7) 0.13622(3) 0.7500
H15 H 0.7975 0.8988 0.7500
H16 H 0.2025 0.1012 0.7500
Tb2 Tb 0.6666 0.3333 0.7500
Tb3 Tb 0.3333 0.6666 0.7500
Mn7_3 Mn 0.5000 1.0000 0.0000
O39 O 0.34651(4) 0.85562(6) 0.5000
Mn7_4 Mn 0.5000 1.0000 1.0000
O12 O 0.06500(4) 0.61578(5) 0.59331(3)
O13 O 0.06500(4) 0.61578(5) 0.40669(3)
O39_2 O 0.14438(6) 0.49089(7) 0.5000
O3_3 O 0.49089(4) 0.14438(6) 0.0000
O5_2 O 0.93500(4) 0.38422(5) 0.59331(3)
O38_2 O 0.85562(6) 0.50911(7) 0.5000
O3_4 O 0.49089(4) 0.14438(6) 1.0000
O14_2 O 0.61578(3) 0.06500(4) 0.90669(3)
C9_2 C 0.64735(4) 0.14120(6) 0.86001(4)
C10_2 C 0.85880(6) 0.35265(7) 0.63999(4)
C19_2 C 0.73456(4) 0.16206(6) 0.80261(4)
C20_2 C 0.83794(6) 0.26544(7) 0.69739(4)
C30_2 C 0.78487(5) 0.11000(7) 0.80536(5)
C31_2 C 0.89000(7) 0.21513(9) 0.69464(5)
H6_2 H 0.7665 0.0578 0.8438
H7_2 H 0.9422 0.2335 0.6562
C40_2 C 0.86378(3) 0.13622(8) 0.7500
H16_2 H 0.8988 0.1013 0.7500
N8_2 N 0.23961(2) 0.76038(5) 0.2500
O16_2 O 0.38422(3) 0.93500(4) 0.09331(3)
O34_2 O 0.38758(3) 0.80038(4) 0.14458(3)
O35_2 O 0.19962(4) 0.61242(5) 0.35542(3)
O40_3 O 0.50911(4) 0.85562(6) 0.0000
C14_2 C 0.35265(4) 0.85880(6) 0.13999(4)
C15_2 C 0.14120(6) 0.64735(7) 0.36001(4)
C25_2 C 0.26544(4) 0.83794(6) 0.19739(4)
C26_2 C 0.16206(6) 0.73456(7) 0.30261(4)
C36_2 C 0.21513(5) 0.89000(7) 0.19464(5)
C37_2 C 0.11000(7) 0.78487(9) 0.30536(5)
H12_2 H 0.2335 0.9422 0.1562
H13_2 H 0.0578 0.7665 0.3438
C42_2 C 0.13622(3) 0.86378(8) 0.2500
H18_2 H 0.1012 0.8987 0.2500
N4_2 N 0.23962(5) 0.76039(7) 0.7500
O15_2 O 0.38422(3) 0.93500(4) 0.90669(3)
O23_2 O 0.19962(4) 0.61242(5) 0.64458(3)
O24_2 O 0.38758(3) 0.80038(4) 0.85542(3)
O40_4 O 0.50911(4) 0.85562(6) 1.0000
C8_2 C 0.14120(6) 0.64735(7) 0.63999(4)
C11_2 C 0.35265(4) 0.85880(6) 0.86001(4)
C18_2 C 0.16206(6) 0.73456(7) 0.69739(4)
C23_2 C 0.26544(4) 0.83794(6) 0.80261(4)
C29_2 C 0.11000(7) 0.78487(9) 0.69464(5)
C34_2 C 0.21513(5) 0.89000(7) 0.80536(5)
H5_2 H 0.0578 0.7665 0.6562
H10_2 H 0.2335 0.9422 0.8438
C39_2 C 0.13622(3) 0.86378(8) 0.7500
H15_2 H 0.1012 0.8987 0.7500
N8_3 N 0.23962(5) 0.47923(5) 0.2500
O20_2 O 0.38422(5) 0.44922(3) 0.40669(3)
O34_3 O 0.19962(4) 0.58720(3) 0.14458(3)
O35_3 O 0.38758(5) 0.58720(3) 0.35542(3)
C14_3 C 0.14120(6) 0.49385(4) 0.13999(4)
C15_3 C 0.35265(7) 0.49385(4) 0.36001(4)
C25_3 C 0.16206(6) 0.42750(4) 0.19739(4)
C26_3 C 0.26544(7) 0.42750(4) 0.30261(4)
C36_3 C 0.11000(7) 0.32513(5) 0.19464(5)
C37_3 C 0.21513(9) 0.32513(5) 0.30536(5)
H12_3 H 0.0578 0.2913 0.1562
H13_3 H 0.2335 0.2913 0.3438
C42_3 C 0.13622(8) 0.27244(7) 0.2500
H18_3 H 0.1013 0.2025 0.2500
N4_3 N 0.23961(7) 0.47923(5) 0.7500
O9_2 O 0.38422(5) 0.44922(3) 0.59331(3)
O23_3 O 0.38758(5) 0.58720(3) 0.64458(3)
O24_3 O 0.19962(4) 0.58720(3) 0.85542(3)
C8_3 C 0.35265(7) 0.49385(4) 0.63999(4)
C11_3 C 0.14120(6) 0.49385(4) 0.86001(4)
C18_3 C 0.26544(7) 0.42750(4) 0.69739(4)
C23_3 C 0.16206(6) 0.42750(4) 0.80261(4)
C29_3 C 0.21513(9) 0.32513(5) 0.69464(5)
C34_3 C 0.11000(7) 0.32513(5) 0.80536(5)
H5_3 H 0.2335 0.2913 0.6562
H10_3 H 0.0578 0.2913 0.8438
C39_3 C 0.13622(8) 0.27244(7) 0.7500
H15_3 H 0.1013 0.2025 0.7500
O5_3 O 0.61578(5) 0.55078(3) 0.59331(3)
O38_3 O 0.49089(7) 0.34651(4) 0.5000
O39_3 O 0.50911(7) 0.65349(4) 0.5000
C9_3 C 0.85880(6) 0.50615(4) 0.86001(4)
C10_3 C 0.64735(7) 0.50615(4) 0.63999(4)
C19_3 C 0.83794(6) 0.57250(4) 0.80261(4)
C20_3 C 0.73456(7) 0.57250(4) 0.69739(4)
C30_3 C 0.89000(7) 0.67487(5) 0.80536(5)
C31_3 C 0.78487(9) 0.67487(5) 0.69464(5)
H6_3 H 0.9422 0.7087 0.8438
H7_3 H 0.7665 0.7087 0.6562
C40_3 C 0.86378(8) 0.72756(7) 0.7500
H16_3 H 0.8987 0.7975 0.7500
loop_
_geom_bond_atom_site_label_1
_geom_bond_atom_site_label_2
_geom_bond_site_symmetry_1
_geom_bond_site_symmetry_2
O11 Mn4 1_555 1_555
O37 Mn4 1_555 1_555
O10 Mn4_2 1_555 1_555
O37_2 Mn4_2 1_555 1_555
Mn1 O1 1_555 1_555
N1 C2 1_555 1_555
O1 C1 1_555 1_555
O2 C1 1_555 1_555
O3 Mn1 1_555 1_555
C1 C2 1_555 1_555
C2 C3 1_555 1_555
C3 H1 1_555 1_555
C4 C3 1_555 1_555
H2 C4 1_555 1_555
Tb1 N1 1_555 1_555
Mn9 O4 1_555 1_555
Mn3_2 O6 1_555 1_555
Mn4_3 O7 1_555 1_555
Mn7 O19 1_555 1_555
Mn8 O18 1_555 1_555
Mn9_2 O20 1_555 1_555
N2 Tb1 1_555 1_555
N7 Tb1 1_555 1_555
N8 C25 1_555 1_555
O4 C5 1_555 1_555
O5 Mn9 1_555 1_555
O6 C6 1_555 1_555
O7 C7 1_555 1_555
O16 Mn1 1_555 1_555
O18 C12 1_555 1_555
O19 C13 1_555 1_555
O20 C15 1_555 1_555
O21 Tb1 1_555 1_555
O30 Tb1 1_555 1_555
O31 Tb1 1_555 1_555
O32 Tb1 1_555 1_555
O33 Tb1 1_555 1_555
O34 C14 1_555 1_555
O35 C15 1_555 1_555
O36 Mn4_3 1_555 1_555
O38 Mn9 1_555 1_555
O40 Mn1 1_555 1_555
C5 O32 1_555 1_555
C6 O21 1_555 1_555
C7 O30 1_555 1_555
C12 O33 1_555 1_555
C13 O31 1_555 1_555
C14 O16 1_555 1_555
C15 C26 1_555 1_555
C16 N1 1_555 1_555
C17 N2 1_555 1_555
C21 N2 1_555 1_555
C22 N7 1_555 1_555
C24 N7 1_555 1_555
C25 C14 1_555 1_555
C26 N8 1_555 1_555
C27 C4 1_555 1_555
C28 C17 1_555 1_555
C32 C22 1_555 1_555
C33 C21 1_555 1_555
C35 C24 1_555 1_555
C36 C25 1_555 1_555
C37 C26 1_555 1_555
H3 C27 1_555 1_555
H4 C28 1_555 1_555
H8 C32 1_555 1_555
H9 C33 1_555 1_555
H11 C35 1_555 1_555
H12 C36 1_555 1_555
H13 C37 1_555 1_555
C38 C28 1_555 1_555
C41 C32 1_555 1_555
C42 C36 1_555 1_555
H14 C38 1_555 1_555
H17 C41 1_555 1_555
H18 C42 1_555 1_555
Tb4 N8 1_555 1_555
O2 Tb1 1_555 1_555
O34 Tb4 1_555 1_555
O35 Tb4 1_555 1_555
C5 C16 1_555 1_555
C6 C22 1_555 1_555
C7 C17 1_555 1_555
C12 C21 1_555 1_555
C13 C24 1_555 1_555
C16 C27 1_555 1_555
C33 C38 1_555 1_555
C35 C41 1_555 1_555
C37 C42 1_555 1_555
O3_2 Mn1_2 1_555 1_555
Mn9_2 O9 1_555 1_555
N3 Tb2 1_555 1_555
N4 C18 1_555 1_555
N5 Tb2 1_555 1_555
N6 C19 1_555 1_555
O8 Mn4_4 1_555 1_555
O9 C8 1_555 1_555
O14 Mn1_2 1_555 1_555
O15 Mn1_2 1_555 1_555
O5 C10 1_555 1_555
O22 Tb2 1_555 1_555
O23 C8 1_555 1_555
O24 C11 1_555 1_555
O25 Tb2 1_555 1_555
O26 Tb2 1_555 1_555
O27 C9 1_555 1_555
O28 C10 1_555 1_555
O29 Tb2 1_555 1_555
O36_2 Mn4_4 1_555 1_555
O40_2 Mn1_2 1_555 1_555
C8 C18 1_555 1_555
C9 O14 1_555 1_555
C10 C20 1_555 1_555
C11 O15 1_555 1_555
C18 C29 1_555 1_555
C19 C9 1_555 1_555
C20 N6 1_555 1_555
C23 N4 1_555 1_555
C29 H5 1_555 1_555
C30 C19 1_555 1_555
C31 C20 1_555 1_555
C34 C23 1_555 1_555
H6 C30 1_555 1_555
H7 C31 1_555 1_555
H10 C34 1_555 1_555
C39 C29 1_555 1_555
C40 C30 1_555 1_555
H15 C39 1_555 1_555
H16 C40 1_555 1_555
Tb2 N6 1_555 1_555
Tb3 N4 1_555 1_555
O23 Tb3 1_555 1_555
O24 Tb3 1_555 1_555
O27 Tb2 1_555 1_555
O28 Tb2 1_555 1_555
C11 C23 1_555 1_555
C31 C40 1_555 1_555
C34 C39 1_555 1_555
O39 Mn9_2 1_555 1_555
O12 Mn3 1_555 1_555
O13 Mn3 1_555 1_555
O39_2 Mn3 1_555 1_555
O3_3 Mn7 1_555 1_555
O5_2 Mn3_2 1_555 1_555
O38_2 Mn3_2 1_555 1_555
O3_4 Mn7_2 1_555 1_555
N5 C19_2 1_555 1_555
O14_2 Mn7_2 1_555 1_555
O5_2 C10_2 1_555 1_555
O26 C9_2 1_555 1_555
O29 C10_2 1_555 1_555
C9_2 O14_2 1_555 1_555
C10_2 C20_2 1_555 1_555
C19_2 C9_2 1_555 1_555
C20_2 N5 1_555 1_555
C30_2 C19_2 1_555 1_555
C31_2 C20_2 1_555 1_555
H6_2 C30_2 1_555 1_555
H7_2 C31_2 1_555 1_555
C40_2 C30_2 1_555 1_555
H16_2 C40_2 1_555 1_555
C31_2 C40_2 1_555 1_555
N8_2 C25_2 1_555 1_555
O16_2 Mn7_3 1_555 1_555
O13 C15_2 1_555 1_555
O34_2 C14_2 1_555 1_555
O35_2 C15_2 1_555 1_555
O40_3 Mn7_3 1_555 1_555
C14_2 O16_2 1_555 1_555
C15_2 C26_2 1_555 1_555
C25_2 C14_2 1_555 1_555
C26_2 N8_2 1_555 1_555
C36_2 C25_2 1_555 1_555
C37_2 C26_2 1_555 1_555
H12_2 C36_2 1_555 1_555
H13_2 C37_2 1_555 1_555
C42_2 C36_2 1_555 1_555
H18_2 C42_2 1_555 1_555
Tb4 N8_2 1_555 1_555
O34_2 Tb4 1_555 1_555
O35_2 Tb4 1_555 1_555
C37_2 C42_2 1_555 1_555
N4_2 C18_2 1_555 1_555
O12 C8_2 1_555 1_555
O15_2 Mn7_4 1_555 1_555
O23_2 C8_2 1_555 1_555
O24_2 C11_2 1_555 1_555
O40_4 Mn7_4 1_555 1_555
C8_2 C18_2 1_555 1_555
C11_2 O15_2 1_555 1_555
C18_2 C29_2 1_555 1_555
C23_2 N4_2 1_555 1_555
C29_2 H5_2 1_555 1_555
C34_2 C23_2 1_555 1_555
H10_2 C34_2 1_555 1_555
C39_2 C29_2 1_555 1_555
H15_2 C39_2 1_555 1_555
Tb3 N4_2 1_555 1_555
O23_2 Tb3 1_555 1_555
O24_2 Tb3 1_555 1_555
C11_2 C23_2 1_555 1_555
C34_2 C39_2 1_555 1_555
Mn8 O20_2 1_555 1_555
N8_3 C25_3 1_555 1_555
O20_2 C15_3 1_555 1_555
O34_3 C14_3 1_555 1_555
O35_3 C15_3 1_555 1_555
C14_3 O11 1_555 1_555
C15_3 C26_3 1_555 1_555
C25_3 C14_3 1_555 1_555
C26_3 N8_3 1_555 1_555
C36_3 C25_3 1_555 1_555
C37_3 C26_3 1_555 1_555
H12_3 C36_3 1_555 1_555
H13_3 C37_3 1_555 1_555
C42_3 C36_3 1_555 1_555
H18_3 C42_3 1_555 1_555
Tb4 N8_3 1_555 1_555
O34_3 Tb4 1_555 1_555
O35_3 Tb4 1_555 1_555
C37_3 C42_3 1_555 1_555
Mn8 O9_2 1_555 1_555
N4_3 C18_3 1_555 1_555
O9_2 C8_3 1_555 1_555
O23_3 C8_3 1_555 1_555
O24_3 C11_3 1_555 1_555
C8_3 C18_3 1_555 1_555
C11_3 O10 1_555 1_555
C18_3 C29_3 1_555 1_555
C23_3 N4_3 1_555 1_555
C29_3 H5_3 1_555 1_555
C34_3 C23_3 1_555 1_555
H10_3 C34_3 1_555 1_555
C39_3 C29_3 1_555 1_555
H15_3 C39_3 1_555 1_555
Tb3 N4_3 1_555 1_555
O23_3 Tb3 1_555 1_555
O24_3 Tb3 1_555 1_555
C11_3 C23_3 1_555 1_555
C34_3 C39_3 1_555 1_555
O5_3 Mn8 1_555 1_555
O38_3 Mn8 1_555 1_555
O39_3 Mn8 1_555 1_555
N3 C19_3 1_555 1_555
O5_3 C10_3 1_555 1_555
O22 C9_3 1_555 1_555
O25 C10_3 1_555 1_555
C9_3 O8 1_555 1_555
C10_3 C20_3 1_555 1_555
C19_3 C9_3 1_555 1_555
C20_3 N3 1_555 1_555
C30_3 C19_3 1_555 1_555
C31_3 C20_3 1_555 1_555
H6_3 C30_3 1_555 1_555
H7_3 C31_3 1_555 1_555
C40_3 C30_3 1_555 1_555
H16_3 C40_3 1_555 1_555
C31_3 C40_3 1_555 1_555

#END
