
###############################################################################
#
# This file contains modified crystal structure data generated from the
# MOF subset of the Cambridge Structural Database (CSD) v543 
# hosted by the Cambridge Crystallographic Data Centre (CCDC).
#
# This work is licensed under the Creative Commons
# Attribution-NonCommercial-ShareAlike 4.0 International License.
# To view a copy of this license, visit
# http://creativecommons.org/licenses/by-nc-sa/4.0/
# or send a letter to
# Creative Commons, PO Box 1866, Mountain View, CA 94042, USA.
#
# CIF created using the CSD Python API on 29 September 2022
# The structure has been converted into the P1 space group
# The structure has a 3D framework
# The original CSD entry FAJYAT is in the hexagonal crystal system
# The original CSD entry FAJYAT is in a Sohncke space group
# The framework has been calculated to contain at least 10.0% void space
# The void calculation uses a probe of radius 1.32A, grid spacing 0.4
# The framework is charged, counterions have been retained in the structure
#
###############################################################################

data_FAJYAT
_chemical_formula_moiety         '(C228 H168 Ag6 N24 6+)n'
_symmetry_cell_setting           triclinic
_symmetry_space_group_name_H-M   'P 1'
_symmetry_Int_Tables_number      1
_space_group_name_Hall           'P 1'
loop_
_symmetry_equiv_pos_site_id
_symmetry_equiv_pos_as_xyz
1 x,y,z
_cell_length_a                   17.311(2)
_cell_length_b                   17.311(2)
_cell_length_c                   27.636(6)
_cell_angle_alpha                90
_cell_angle_beta                 90
_cell_angle_gamma                120
_cell_volume                     7172.16
loop_
_atom_site_label
_atom_site_type_symbol
_atom_site_fract_x
_atom_site_fract_y
_atom_site_fract_z
C26 C 0.0454(17) 0.0781(17) 0.3547(8)
N3 N 0.0809(10) 0.1532(11) 0.3638(4)
Ag4 Ag 0.16275(6) 0.29356(6) 0.38641(11)
C25 C 0.0023(10) 0.9906(9) 0.3369(6)
C27 C 0.0250(13) 0.9301(11) 0.3594(6)
H19 H 0.0667 0.9461 0.3841
C33 C 0.0190(11) 0.5829(9) 0.3211(5)
H25 H 0.0473 0.6444 0.3251
C34 C 0.0624(9) 0.5368(11) 0.3342(6)
H26 H 0.1197 0.5675 0.3470
C35 C 0.0201(13) 0.4449(11) 0.3282(7)
C36 C 0.0538(15) 0.3918(15) 0.3443(7)
N4 N 0.0891(18) 0.3485(17) 0.3557(8)
C1 C 0.8409(15) 0.6788(17) 0.0044(8)
C2 C 0.8370(10) 0.6509(10) 0.0538(3)
C3 C 0.8752(9) 0.6067(9) 0.0769(4)
H1 H 0.9024 0.5817 0.0587
C4 C 0.8726(8) 0.5999(8) 0.1270(4)
H2 H 0.8982 0.5703 0.1424
C5 C 0.8320(7) 0.6373(8) 0.1542(3)
C6 C 0.7938(9) 0.6814(9) 0.1311(5)
H3 H 0.7665 0.7064 0.1493
C7 C 0.7963(11) 0.6882(11) 0.0810(5)
H4 H 0.7707 0.7178 0.0655
C8 C 0.8384(8) 0.6367(8) 0.2070(4)
C9 C 0.7357(6) 0.5851(6) 0.2265(3)
H5 H 0.7063 0.6179 0.2169
H6 H 0.7036 0.5261 0.2121
C10 C 0.7342(7) 0.5773(7) 0.2795(3)
C11 C 0.6316(9) 0.5335(14) 0.2976(7)
C12 C 0.5571(11) 0.4971(12) 0.2677(5)
H7 H 0.5640 0.5062 0.2344
C13 C 0.4723(10) 0.4471(12) 0.2874(6)
H8 H 0.4224 0.4228 0.2674
C14 C 0.4620(11) 0.4336(15) 0.3371(6)
C15 C 0.375(3) 0.394(2) 0.3495(12)
C16 C 0.5320(13) 0.4574(16) 0.3698(9)
H9 H 0.5178 0.4469 0.4025
C17 C 0.6213(14) 0.4956(18) 0.3569(8)
H10 H 0.6672 0.5001 0.3764
C18 C 0.7813(11) 0.6764(10) 0.2920(5)
H11 H 0.7541 0.7040 0.2734
H12 H 0.7711 0.6825 0.3259
C19 C 0.7848(9) 0.5343(9) 0.2949(4)
H13 H 0.7545 0.4734 0.2830
H14 H 0.7841 0.5317 0.3300
C20 C 0.8824(7) 0.7277(7) 0.2366(3)
H15 H 0.9446 0.7615 0.2271
H16 H 0.8544 0.7611 0.2256
C21 C 0.8801(15) 0.7269(14) 0.2828(7)
C22 C 0.9215(12) 0.8166(8) 0.3023(6)
C23 C 0.8870(8) 0.8713(9) 0.2901(5)
H17 H 0.8369 0.8497 0.2704
C24 C 0.9274(9) 0.9583(9) 0.3074(5)
H18 H 0.9043 0.9949 0.2992
C28 C 0.9777(13) 0.8447(11) 0.3400(7)
H20 H 0.9861 0.8014 0.3552
C29 C 0.9241(8) 0.6714(8) 0.2966(4)
H21 H 0.9859 0.7039 0.2861
H22 H 0.9244 0.6676 0.3316
C30 C 0.8837(9) 0.5892(9) 0.2254(4)
H23 H 0.8547 0.5298 0.2115
H24 H 0.9449 0.6202 0.2140
C31 C 0.8844(6) 0.5814(6) 0.2774(3)
C32 C 0.9332(11) 0.5371(13) 0.3020(7)
C37 C 0.9371(15) 0.4045(16) 0.3122(7)
H27 H 0.9137 0.3438 0.3068
C38 C 0.8773(15) 0.4337(15) 0.3017(8)
H28 H 0.8165 0.3985 0.2958
N2 N 0.2987(8) 0.3529(8) 0.3614(4)
N1 N 0.8476(7) 0.6971(8) 0.9667(4)
Ag1 Ag 0.83725(6) 0.70644(6) 0.88641(11)
N5 N 0.7013(8) 0.6471(8) 0.8614(4)
N6 N 0.9191(10) 0.8468(11) 0.8638(4)
N7 N 0.9109(18) 0.6515(17) 0.8557(8)
C1_2 C 0.1591(15) 0.3212(17) 0.5044(8)
C2_2 C 0.1630(10) 0.3491(10) 0.5538(3)
C3_2 C 0.1248(9) 0.3933(9) 0.5769(4)
H1_2 H 0.0976 0.4183 0.5587
C4_2 C 0.1274(8) 0.4001(8) 0.6270(4)
H2_2 H 0.1018 0.4297 0.6424
C5_2 C 0.1680(7) 0.3627(8) 0.6542(3)
C6_2 C 0.2062(9) 0.3186(9) 0.6311(5)
H3_2 H 0.2335 0.2936 0.6493
C7_2 C 0.2037(11) 0.3118(11) 0.5810(5)
H4_2 H 0.2293 0.2822 0.5655
C8_2 C 0.1616(8) 0.3633(8) 0.7070(4)
C9_2 C 0.2643(6) 0.4149(6) 0.7265(3)
H5_2 H 0.2937 0.3821 0.7169
H6_2 H 0.2964 0.4739 0.7121
C10_2 C 0.2658(7) 0.4227(7) 0.7795(3)
C11_2 C 0.3684(9) 0.4665(14) 0.7976(7)
C12_2 C 0.4429(11) 0.5029(12) 0.7677(5)
H7_2 H 0.4360 0.4938 0.7344
C13_2 C 0.5277(10) 0.5529(12) 0.7874(6)
H8_2 H 0.5776 0.5772 0.7674
C14_2 C 0.5380(11) 0.5664(15) 0.8371(6)
C15_2 C 0.625(3) 0.606(2) 0.8495(12)
C16_2 C 0.4680(13) 0.5426(16) 0.8698(9)
H9_2 H 0.4822 0.5531 0.9025
C17_2 C 0.3787(14) 0.5044(18) 0.8569(8)
H10_2 H 0.3328 0.4999 0.8764
C18_2 C 0.2187(11) 0.3236(10) 0.7920(5)
H11_2 H 0.2459 0.2960 0.7734
H12_2 H 0.2289 0.3175 0.8259
C19_2 C 0.2152(9) 0.4657(9) 0.7949(4)
H13_2 H 0.2455 0.5266 0.7830
H14_2 H 0.2159 0.4683 0.8300
C20_2 C 0.1176(7) 0.2723(7) 0.7366(3)
H15_2 H 0.0554 0.2385 0.7271
H16_2 H 0.1456 0.2389 0.7256
C21_2 C 0.1199(15) 0.2731(14) 0.7828(7)
C22_2 C 0.0785(12) 0.1834(8) 0.8023(6)
C23_2 C 0.1130(8) 0.1287(9) 0.7901(5)
H17_2 H 0.1631 0.1503 0.7704
C24_2 C 0.0726(9) 0.0417(9) 0.8074(5)
H18_2 H 0.0957 0.0051 0.7992
C28_2 C 0.0223(13) 0.1553(11) 0.8400(7)
H20_2 H 0.0139 0.1986 0.8552
C29_2 C 0.0759(8) 0.3286(8) 0.7966(4)
H21_2 H 0.0141 0.2961 0.7861
H22_2 H 0.0756 0.3324 0.8316
C30_2 C 0.1163(9) 0.4108(9) 0.7254(4)
H23_2 H 0.1453 0.4702 0.7115
H24_2 H 0.0551 0.3798 0.7140
C31_2 C 0.1156(6) 0.4186(6) 0.7774(3)
C32_2 C 0.0668(11) 0.4629(13) 0.8020(7)
C37_2 C 0.0629(15) 0.5955(16) 0.8122(7)
H27_2 H 0.0863 0.6562 0.8068
C38_2 C 0.1227(15) 0.5663(15) 0.8017(8)
H28_2 H 0.1835 0.6015 0.7958
N1_2 N 0.1524(7) 0.3029(8) 0.4667(4)
C25_2 C 0.9977(10) 0.0094(9) 0.8369(6)
C27_2 C 0.9750(13) 0.0699(11) 0.8594(6)
H19_2 H 0.9333 0.0539 0.8841
C33_2 C 0.9810(11) 0.4171(9) 0.8211(5)
H25_2 H 0.9527 0.3556 0.8251
C34_2 C 0.9376(9) 0.4632(11) 0.8342(6)
H26_2 H 0.8803 0.4325 0.8470
C35_2 C 0.9799(13) 0.5551(11) 0.8282(7)
C36_2 C 0.9462(15) 0.6082(15) 0.8443(7)
C26_2 C 0.9546(17) 0.9219(17) 0.8547(8)
C14_3 C 0.5664(15) 0.0284(19) 0.0038(6)
C16_3 C 0.5426(16) 0.0746(21) 0.0365(9)
H9_3 H 0.5531 0.0709 0.0692
C17_3 C 0.5044(18) 0.1257(23) 0.0236(8)
H10_3 H 0.4999 0.1671 0.0431
C25_3 C 0.0094(9) 0.0117(13) 0.0036(6)
C27_3 C 0.0699(11) 0.0949(17) 0.0261(6)
H19_3 H 0.0539 0.1206 0.0508
C28_3 C 0.1553(11) 0.1330(17) 0.0067(7)
H20_3 H 0.1986 0.1847 0.0219
C34_3 C 0.4632(11) 0.5256(14) 0.0009(6)
H26_3 H 0.4325 0.5522 0.0137
C36_3 C 0.6082(15) 0.6620(21) 0.0110(7)
N4_2 N 0.6515(17) 0.7406(25) 0.0224(8)
Ag3 Ag 0.70644(6) 0.86919(8) 0.05308(11)
C1_3 C 0.3212(17) 0.1621(23) 0.6711(8)
C2_3 C 0.3491(10) 0.1861(14) 0.7205(3)
C3_3 C 0.3933(9) 0.2685(13) 0.7436(4)
H1_3 H 0.4183 0.3207 0.7254
C4_3 C 0.4001(8) 0.2727(11) 0.7937(4)
H2_3 H 0.4297 0.3279 0.8091
C5_3 C 0.3627(8) 0.1947(11) 0.8209(3)
C6_3 C 0.3186(9) 0.1124(13) 0.7978(5)
H3_3 H 0.2936 0.0601 0.8160
C7_3 C 0.3118(11) 0.1081(16) 0.7477(5)
H4_3 H 0.2822 0.0529 0.7322
C8_3 C 0.3633(8) 0.2017(11) 0.8737(4)
C9_3 C 0.4149(6) 0.1506(8) 0.8932(3)
H5_3 H 0.3821 0.0884 0.8836
H6_3 H 0.4739 0.1775 0.8788
C10_3 C 0.4227(7) 0.1569(10) 0.9462(3)
C11_3 C 0.4665(14) 0.0981(17) 0.9643(7)
C12_3 C 0.5029(12) 0.0600(16) 0.9344(5)
H7_3 H 0.4938 0.0578 0.9011
C13_3 C 0.5529(12) 0.0252(16) 0.9541(6)
C18_3 C 0.3236(10) 0.1049(15) 0.9587(5)
H11_3 H 0.2960 0.0501 0.9401
H12_3 H 0.3175 0.0886 0.9926
C19_3 C 0.4657(9) 0.2505(13) 0.9616(4)
H13_3 H 0.5266 0.2811 0.9497
H14_3 H 0.4683 0.2524 0.9967
C20_3 C 0.2723(7) 0.1547(10) 0.9033(3)
H15_3 H 0.2385 0.1831 0.8938
H16_3 H 0.2389 0.0933 0.8923
C21_3 C 0.2731(14) 0.1532(21) 0.9495(7)
C22_3 C 0.1834(8) 0.1049(14) 0.9690(6)
C23_3 C 0.1287(9) 0.0157(12) 0.9568(5)
C29_3 C 0.3286(8) 0.2527(11) 0.9633(4)
H21_3 H 0.2961 0.2820 0.9528
H22_3 H 0.3324 0.2568 0.9983
C30_3 C 0.4108(9) 0.2945(13) 0.8921(4)
H23_3 H 0.4702 0.3249 0.8782
H24_3 H 0.3798 0.3247 0.8807
C31_3 C 0.4186(6) 0.3030(8) 0.9441(3)
C32_3 C 0.4629(13) 0.3961(17) 0.9687(7)
C33_3 C 0.4171(9) 0.4361(14) 0.9878(5)
H25_3 H 0.3556 0.4029 0.9918
C35_3 C 0.5551(11) 0.5752(17) 0.9949(7)
C37_3 C 0.5955(16) 0.5326(22) 0.9789(7)
H27_3 H 0.6562 0.5699 0.9735
C38_3 C 0.5663(15) 0.4436(21) 0.9684(8)
H28_3 H 0.6015 0.4180 0.9625
N1_3 N 0.3029(8) 0.1505(11) 0.6334(4)
Ag1_2 Ag 0.29356(6) 0.13081(8) 0.55308(11)
N5_2 N 0.3529(8) 0.0542(11) 0.5281(4)
N6_2 N 0.1532(11) 0.0723(15) 0.5305(4)
N7_2 N 0.3485(17) 0.2594(25) 0.5224(8)
C15_3 C 0.606(2) 0.981(4) 0.0162(12)
N2_2 N 0.6471(8) 0.9458(11) 0.0281(4)
C26_3 C 0.9219(17) 0.9673(24) 0.0214(8)
N3_2 N 0.8468(11) 0.9277(15) 0.0305(4)
C26_4 C 0.0781(17) 0.0327(24) 0.5214(8)
H8_3 H 0.4228 0.0004 0.4341
C15_4 C 0.394(2) 0.019(4) 0.5162(12)
H17_3 H 0.8497 0.0128 0.4371
C24_3 C 0.9583(9) 0.0309(13) 0.4741(5)
H18_3 H 0.9949 0.0906 0.4659
C1_4 C 0.6788(17) 0.8379(23) 0.1711(8)
C2_4 C 0.6509(10) 0.8139(14) 0.2205(3)
C3_4 C 0.6067(9) 0.7315(13) 0.2436(4)
H1_4 H 0.5817 0.6793 0.2254
C4_4 C 0.5999(8) 0.7273(11) 0.2937(4)
H2_4 H 0.5703 0.6721 0.3091
C5_4 C 0.6373(8) 0.8053(11) 0.3209(3)
C6_4 C 0.6814(9) 0.8876(13) 0.2978(5)
H3_4 H 0.7064 0.9399 0.3160
C7_4 C 0.6882(11) 0.8919(16) 0.2477(5)
H4_4 H 0.7178 0.9471 0.2322
C8_4 C 0.6367(8) 0.7983(11) 0.3737(4)
C9_4 C 0.5851(6) 0.8494(8) 0.3932(3)
H5_4 H 0.6179 0.9116 0.3836
H6_4 H 0.5261 0.8225 0.3788
C10_4 C 0.5773(7) 0.8431(10) 0.4462(3)
C11_4 C 0.5335(14) 0.9019(17) 0.4643(7)
C12_4 C 0.4971(12) 0.9400(16) 0.4344(5)
H7_4 H 0.5062 0.9422 0.4011
C13_4 C 0.4471(12) 0.9748(16) 0.4541(6)
C14_4 C 0.4336(15) 0.9716(19) 0.5038(6)
C16_4 C 0.4574(16) 0.9254(21) 0.5365(9)
H9_4 H 0.4469 0.9291 0.5692
C17_4 C 0.4956(18) 0.8743(23) 0.5236(8)
H10_4 H 0.5001 0.8329 0.5431
C18_4 C 0.6764(10) 0.8951(15) 0.4587(5)
H11_4 H 0.7040 0.9499 0.4401
H12_4 H 0.6825 0.9114 0.4926
C19_4 C 0.5343(9) 0.7495(13) 0.4616(4)
H13_4 H 0.4734 0.7189 0.4497
H14_4 H 0.5317 0.7476 0.4967
C20_4 C 0.7277(7) 0.8453(10) 0.4033(3)
H15_4 H 0.7615 0.8169 0.3938
H16_4 H 0.7611 0.9067 0.3923
C21_4 C 0.7269(14) 0.8468(21) 0.4495(7)
C22_4 C 0.8166(8) 0.8951(14) 0.4690(6)
C23_4 C 0.8713(9) 0.9843(12) 0.4568(5)
C25_4 C 0.9906(9) 0.9883(13) 0.5036(6)
C27_4 C 0.9301(11) 0.9051(17) 0.5261(6)
H19_4 H 0.9461 0.8794 0.5508
C28_4 C 0.8447(11) 0.8670(17) 0.5067(7)
H20_4 H 0.8014 0.8153 0.5219
C29_4 C 0.6714(8) 0.7473(11) 0.4633(4)
H21_4 H 0.7039 0.7180 0.4528
H22_4 H 0.6676 0.7432 0.4983
C30_4 C 0.5892(9) 0.7055(13) 0.3921(4)
H23_4 H 0.5298 0.6751 0.3782
H24_4 H 0.6202 0.6753 0.3807
C31_4 C 0.5814(6) 0.6970(8) 0.4441(3)
C32_4 C 0.5371(13) 0.6039(17) 0.4687(7)
C33_4 C 0.5829(9) 0.5639(14) 0.4878(5)
H25_4 H 0.6444 0.5971 0.4918
C34_4 C 0.5368(11) 0.4744(14) 0.5009(6)
H26_4 H 0.5675 0.4478 0.5137
C35_4 C 0.4449(11) 0.4248(17) 0.4949(7)
C36_4 C 0.3918(15) 0.3380(21) 0.5110(7)
C37_4 C 0.4045(16) 0.4674(22) 0.4789(7)
H27_4 H 0.3438 0.4301 0.4735
C38_4 C 0.4337(15) 0.5564(21) 0.4684(8)
H28_4 H 0.3985 0.5820 0.4625
N1_4 N 0.6971(8) 0.8495(11) 0.1334(4)
H8_4 H 0.5772 0.9996 0.9341
H17_4 H 0.1503 0.9872 0.9371
C24_4 C 0.0417(9) 0.9691(13) 0.9741(5)
H18_4 H 0.0051 0.9094 0.9659
H8_5 H 0.0004 0.5776 0.6007
C15_5 C 0.019(4) 0.625(3) 0.6828(12)
H17_5 H 0.0128 0.1631 0.6037
C24_5 C 0.0309(13) 0.0726(9) 0.6407(5)
H18_5 H 0.0906 0.0957 0.6325
N2_3 N 0.0542(11) 0.7013(8) 0.6947(4)
Ag2 Ag 0.13081(8) 0.83725(6) 0.71974(11)
C26_5 C 0.0327(24) 0.9546(17) 0.6880(8)
N3_3 N 0.0723(15) 0.9191(10) 0.6971(4)
C25_5 C 0.9883(13) 0.9977(10) 0.6702(6)
C27_5 C 0.9051(17) 0.9750(13) 0.6927(6)
H19_5 H 0.8794 0.9333 0.7174
C33_5 C 0.5639(14) 0.9810(11) 0.6544(5)
H25_5 H 0.5971 0.9527 0.6584
C34_5 C 0.4744(14) 0.9376(9) 0.6675(6)
H26_5 H 0.4478 0.8803 0.6803
C35_5 C 0.4248(17) 0.9799(13) 0.6615(7)
C36_5 C 0.3380(21) 0.9462(15) 0.6776(7)
N4_3 N 0.2594(25) 0.9109(18) 0.6890(8)
C1_5 C 0.1621(23) 0.8409(15) 0.8377(8)
C2_5 C 0.1861(14) 0.8370(10) 0.8871(3)
C3_5 C 0.2685(13) 0.8752(9) 0.9102(4)
H1_5 H 0.3207 0.9024 0.8920
C4_5 C 0.2727(11) 0.8726(8) 0.9603(4)
H2_5 H 0.3279 0.8982 0.9757
C5_5 C 0.1947(11) 0.8320(7) 0.9875(3)
C6_5 C 0.1124(13) 0.7938(9) 0.9644(5)
H3_5 H 0.0601 0.7665 0.9826
C7_5 C 0.1081(16) 0.7963(11) 0.9143(5)
H4_5 H 0.0529 0.7707 0.8988
N1_5 N 0.1505(11) 0.8476(7) 0.8000(4)
C1_6 C 0.8379(23) 0.1591(15) 0.3377(8)
C2_6 C 0.8139(14) 0.1630(10) 0.3871(3)
C3_6 C 0.7315(13) 0.1248(9) 0.4102(4)
H1_6 H 0.6793 0.0976 0.3920
C4_6 C 0.7273(11) 0.1274(8) 0.4603(4)
H2_6 H 0.6721 0.1018 0.4757
C5_6 C 0.8053(11) 0.1680(7) 0.4875(3)
C6_6 C 0.8876(13) 0.2062(9) 0.4644(5)
H3_6 H 0.9399 0.2335 0.4826
C7_6 C 0.8919(16) 0.2037(11) 0.4143(5)
H4_6 H 0.9471 0.2293 0.3988
C8_5 C 0.7983(11) 0.1616(8) 0.5403(4)
C9_5 C 0.8494(8) 0.2643(6) 0.5598(3)
H5_5 H 0.9116 0.2937 0.5502
H6_5 H 0.8225 0.2964 0.5454
C10_5 C 0.8431(10) 0.2658(7) 0.6128(3)
C11_5 C 0.9019(17) 0.3684(9) 0.6309(7)
C12_5 C 0.9400(16) 0.4429(11) 0.6010(5)
H7_5 H 0.9422 0.4360 0.5677
C13_5 C 0.9748(16) 0.5277(10) 0.6207(6)
C14_5 C 0.9716(19) 0.5380(11) 0.6704(6)
C16_5 C 0.9254(21) 0.4680(13) 0.7031(9)
H9_5 H 0.9291 0.4822 0.7358
C17_5 C 0.8743(23) 0.3787(14) 0.6902(8)
H10_5 H 0.8329 0.3328 0.7097
C18_5 C 0.8951(15) 0.2187(11) 0.6253(5)
H11_5 H 0.9499 0.2459 0.6067
H12_5 H 0.9114 0.2289 0.6592
C19_5 C 0.7495(13) 0.2152(9) 0.6282(4)
H13_5 H 0.7189 0.2455 0.6163
H14_5 H 0.7476 0.2159 0.6633
C20_5 C 0.8453(10) 0.1176(7) 0.5699(3)
H15_5 H 0.8169 0.0554 0.5604
H16_5 H 0.9067 0.1456 0.5589
C21_5 C 0.8468(21) 0.1199(15) 0.6161(7)
C22_5 C 0.8951(14) 0.0785(12) 0.6356(6)
C23_5 C 0.9843(12) 0.1130(8) 0.6234(5)
C28_5 C 0.8670(17) 0.0223(13) 0.6733(7)
H20_5 H 0.8153 0.0139 0.6885
C29_5 C 0.7473(11) 0.0759(8) 0.6299(4)
H21_5 H 0.7180 0.0141 0.6194
H22_5 H 0.7432 0.0756 0.6649
C30_5 C 0.7055(13) 0.1163(9) 0.5587(4)
H23_5 H 0.6751 0.1453 0.5448
H24_5 H 0.6753 0.0551 0.5473
C31_5 C 0.6970(8) 0.1156(6) 0.6107(3)
C32_5 C 0.6039(17) 0.0668(11) 0.6353(7)
C37_5 C 0.4674(22) 0.0629(15) 0.6455(7)
H27_5 H 0.4301 0.0863 0.6401
C38_5 C 0.5564(21) 0.1227(15) 0.6350(8)
H28_5 H 0.5820 0.1835 0.6291
N1_6 N 0.8495(11) 0.1524(7) 0.3000(4)
Ag1_3 Ag 0.86919(8) 0.16275(6) 0.21974(11)
N5_3 N 0.9458(11) 0.2987(8) 0.1947(4)
N6_3 N 0.9277(15) 0.0809(10) 0.1971(4)
N7_3 N 0.7406(25) 0.0891(18) 0.1890(8)
C25_6 C 0.0117(13) 0.0023(10) 0.1702(6)
C27_6 C 0.0949(17) 0.0250(13) 0.1927(6)
H19_6 H 0.1206 0.0667 0.2174
C33_6 C 0.4361(14) 0.0190(11) 0.1544(5)
H25_6 H 0.4029 0.0473 0.1584
C34_6 C 0.5256(14) 0.0624(9) 0.1675(6)
H26_6 H 0.5522 0.1197 0.1803
C35_6 C 0.5752(17) 0.0201(13) 0.1615(7)
C36_6 C 0.6620(21) 0.0538(15) 0.1776(7)
C26_6 C 0.9673(24) 0.0454(17) 0.1880(8)
H8_6 H 0.9996 0.4224 0.1007
C15_6 C 0.981(4) 0.375(3) 0.1828(12)
H17_6 H 0.9872 0.8369 0.1037
C24_6 C 0.9691(13) 0.9274(9) 0.1407(5)
H18_6 H 0.9094 0.9043 0.1325
C8_6 C 0.2017(11) 0.8384(8) 0.0403(4)
C9_6 C 0.1506(8) 0.7357(6) 0.0598(3)
H5_6 H 0.0884 0.7063 0.0502
H6_6 H 0.1775 0.7036 0.0454
C10_6 C 0.1569(10) 0.7342(7) 0.1128(3)
C11_6 C 0.0981(17) 0.6316(9) 0.1309(7)
C12_6 C 0.0600(16) 0.5571(11) 0.1010(5)
H7_6 H 0.0578 0.5640 0.0677
C13_6 C 0.0252(16) 0.4723(10) 0.1207(6)
C14_6 C 0.0284(19) 0.4620(11) 0.1704(6)
C16_6 C 0.0746(21) 0.5320(13) 0.2031(9)
H9_6 H 0.0709 0.5178 0.2358
C17_6 C 0.1257(23) 0.6213(14) 0.1902(8)
H10_6 H 0.1671 0.6672 0.2097
C18_6 C 0.1049(15) 0.7813(11) 0.1253(5)
H11_6 H 0.0501 0.7541 0.1067
H12_6 H 0.0886 0.7711 0.1592
C19_6 C 0.2505(13) 0.7848(9) 0.1282(4)
H13_6 H 0.2811 0.7545 0.1163
H14_6 H 0.2524 0.7841 0.1633
C20_6 C 0.1547(10) 0.8824(7) 0.0699(3)
H15_6 H 0.1831 0.9446 0.0604
H16_6 H 0.0933 0.8544 0.0589
C21_6 C 0.1532(21) 0.8801(15) 0.1161(7)
C22_6 C 0.1049(14) 0.9215(12) 0.1356(6)
C23_6 C 0.0157(12) 0.8870(8) 0.1234(5)
C28_6 C 0.1330(17) 0.9777(13) 0.1733(7)
H20_6 H 0.1847 0.9861 0.1885
C29_6 C 0.2527(11) 0.9241(8) 0.1299(4)
H21_6 H 0.2820 0.9859 0.1194
H22_6 H 0.2568 0.9244 0.1649
C30_6 C 0.2945(13) 0.8837(9) 0.0587(4)
H23_6 H 0.3249 0.8547 0.0448
H24_6 H 0.3247 0.9449 0.0473
C31_6 C 0.3030(8) 0.8844(6) 0.1107(3)
C32_6 C 0.3961(17) 0.9332(11) 0.1353(7)
C37_6 C 0.5326(22) 0.9371(15) 0.1455(7)
H27_6 H 0.5699 0.9137 0.1401
C38_6 C 0.4436(21) 0.8773(15) 0.1350(8)
H28_6 H 0.4180 0.8165 0.1291
loop_
_geom_bond_atom_site_label_1
_geom_bond_atom_site_label_2
_geom_bond_site_symmetry_1
_geom_bond_site_symmetry_2
N3 C26 1_555 1_555
Ag4 N3 1_555 1_555
C27 C25 1_555 1_555
H19 C27 1_555 1_555
H25 C33 1_555 1_555
C34 C33 1_555 1_555
H26 C34 1_555 1_555
C35 C34 1_555 1_555
C36 C35 1_555 1_555
N4 C36 1_555 1_555
Ag4 N4 1_555 1_555
C1 C2 1_555 1_555
C2 C3 1_555 1_555
C3 H1 1_555 1_555
C4 C3 1_555 1_555
H2 C4 1_555 1_555
C5 C4 1_555 1_555
C6 C5 1_555 1_555
H3 C6 1_555 1_555
C7 C2 1_555 1_555
H4 C7 1_555 1_555
C8 C5 1_555 1_555
C9 C8 1_555 1_555
H5 C9 1_555 1_555
H6 C9 1_555 1_555
C10 C9 1_555 1_555
C11 C10 1_555 1_555
C12 C11 1_555 1_555
H7 C12 1_555 1_555
C13 C12 1_555 1_555
H8 C13 1_555 1_555
C14 C13 1_555 1_555
C15 C14 1_555 1_555
C16 C14 1_555 1_555
H9 C16 1_555 1_555
C17 C11 1_555 1_555
H10 C17 1_555 1_555
C18 C10 1_555 1_555
H11 C18 1_555 1_555
H12 C18 1_555 1_555
C19 C10 1_555 1_555
H13 C19 1_555 1_555
H14 C19 1_555 1_555
C20 C8 1_555 1_555
H15 C20 1_555 1_555
H16 C20 1_555 1_555
C21 C18 1_555 1_555
C22 C21 1_555 1_555
C23 C22 1_555 1_555
H17 C23 1_555 1_555
C24 C23 1_555 1_555
H18 C24 1_555 1_555
C28 C22 1_555 1_555
H20 C28 1_555 1_555
C29 C21 1_555 1_555
H21 C29 1_555 1_555
H22 C29 1_555 1_555
C30 C8 1_555 1_555
H23 C30 1_555 1_555
H24 C30 1_555 1_555
C31 C19 1_555 1_555
C32 C31 1_555 1_555
H27 C37 1_555 1_555
C38 C32 1_555 1_555
H28 C38 1_555 1_555
N2 C15 1_555 1_555
Ag4 N2 1_555 1_555
C6 C7 1_555 1_555
C16 C17 1_555 1_555
C20 C21 1_555 1_555
C29 C31 1_555 1_555
C30 C31 1_555 1_555
C37 C38 1_555 1_555
Ag1 N1 1_555 1_555
N5 Ag1 1_555 1_555
N6 Ag1 1_555 1_555
N7 Ag1 1_555 1_555
C1_2 C2_2 1_555 1_555
C2_2 C3_2 1_555 1_555
C3_2 H1_2 1_555 1_555
C4_2 C3_2 1_555 1_555
H2_2 C4_2 1_555 1_555
C5_2 C4_2 1_555 1_555
C6_2 C5_2 1_555 1_555
H3_2 C6_2 1_555 1_555
C7_2 C2_2 1_555 1_555
H4_2 C7_2 1_555 1_555
C8_2 C5_2 1_555 1_555
C9_2 C8_2 1_555 1_555
H5_2 C9_2 1_555 1_555
H6_2 C9_2 1_555 1_555
C10_2 C9_2 1_555 1_555
C11_2 C10_2 1_555 1_555
C12_2 C11_2 1_555 1_555
H7_2 C12_2 1_555 1_555
C13_2 C12_2 1_555 1_555
H8_2 C13_2 1_555 1_555
C14_2 C13_2 1_555 1_555
C15_2 C14_2 1_555 1_555
C16_2 C14_2 1_555 1_555
H9_2 C16_2 1_555 1_555
C17_2 C11_2 1_555 1_555
H10_2 C17_2 1_555 1_555
C18_2 C10_2 1_555 1_555
H11_2 C18_2 1_555 1_555
H12_2 C18_2 1_555 1_555
C19_2 C10_2 1_555 1_555
H13_2 C19_2 1_555 1_555
H14_2 C19_2 1_555 1_555
C20_2 C8_2 1_555 1_555
H15_2 C20_2 1_555 1_555
H16_2 C20_2 1_555 1_555
C21_2 C18_2 1_555 1_555
C22_2 C21_2 1_555 1_555
C23_2 C22_2 1_555 1_555
H17_2 C23_2 1_555 1_555
C24_2 C23_2 1_555 1_555
H18_2 C24_2 1_555 1_555
C28_2 C22_2 1_555 1_555
H20_2 C28_2 1_555 1_555
C29_2 C21_2 1_555 1_555
H21_2 C29_2 1_555 1_555
H22_2 C29_2 1_555 1_555
C30_2 C8_2 1_555 1_555
H23_2 C30_2 1_555 1_555
H24_2 C30_2 1_555 1_555
C31_2 C19_2 1_555 1_555
C32_2 C31_2 1_555 1_555
H27_2 C37_2 1_555 1_555
C38_2 C32_2 1_555 1_555
H28_2 C38_2 1_555 1_555
N1_2 C1_2 1_555 1_555
N5 C15_2 1_555 1_555
Ag4 N1_2 1_555 1_555
C6_2 C7_2 1_555 1_555
C16_2 C17_2 1_555 1_555
C20_2 C21_2 1_555 1_555
C29_2 C31_2 1_555 1_555
C30_2 C31_2 1_555 1_555
C37_2 C38_2 1_555 1_555
C27_2 C25_2 1_555 1_555
H19_2 C27_2 1_555 1_555
H25_2 C33_2 1_555 1_555
C34_2 C33_2 1_555 1_555
H26_2 C34_2 1_555 1_555
C35_2 C34_2 1_555 1_555
C36_2 C35_2 1_555 1_555
N7 C36_2 1_555 1_555
N6 C26_2 1_555 1_555
C16_3 C14_3 1_555 1_555
H9_3 C16_3 1_555 1_555
H10_3 C17_3 1_555 1_555
C27_3 C25_3 1_555 1_555
H19_3 C27_3 1_555 1_555
H20_3 C28_3 1_555 1_555
H26_3 C34_3 1_555 1_555
N4_2 C36_3 1_555 1_555
Ag3 N4_2 1_555 1_555
C16_3 C17_3 1_555 1_555
C27_3 C28_3 1_555 1_555
C1_3 C2_3 1_555 1_555
C2_3 C3_3 1_555 1_555
C3_3 H1_3 1_555 1_555
C4_3 C3_3 1_555 1_555
H2_3 C4_3 1_555 1_555
C5_3 C4_3 1_555 1_555
C6_3 C5_3 1_555 1_555
H3_3 C6_3 1_555 1_555
C7_3 C2_3 1_555 1_555
H4_3 C7_3 1_555 1_555
C8_3 C5_3 1_555 1_555
C9_3 C8_3 1_555 1_555
H5_3 C9_3 1_555 1_555
H6_3 C9_3 1_555 1_555
C10_3 C9_3 1_555 1_555
C11_3 C10_3 1_555 1_555
C12_3 C11_3 1_555 1_555
H7_3 C12_3 1_555 1_555
C13_3 C12_3 1_555 1_555
C18_3 C10_3 1_555 1_555
H11_3 C18_3 1_555 1_555
H12_3 C18_3 1_555 1_555
C19_3 C10_3 1_555 1_555
H13_3 C19_3 1_555 1_555
H14_3 C19_3 1_555 1_555
C20_3 C8_3 1_555 1_555
H15_3 C20_3 1_555 1_555
H16_3 C20_3 1_555 1_555
C21_3 C18_3 1_555 1_555
C22_3 C21_3 1_555 1_555
C23_3 C22_3 1_555 1_555
C29_3 C21_3 1_555 1_555
H21_3 C29_3 1_555 1_555
H22_3 C29_3 1_555 1_555
C30_3 C8_3 1_555 1_555
H23_3 C30_3 1_555 1_555
H24_3 C30_3 1_555 1_555
C31_3 C19_3 1_555 1_555
C32_3 C31_3 1_555 1_555
C33_3 C32_3 1_555 1_555
H25_3 C33_3 1_555 1_555
C37_3 C35_3 1_555 1_555
H27_3 C37_3 1_555 1_555
C38_3 C32_3 1_555 1_555
H28_3 C38_3 1_555 1_555
N1_3 C1_3 1_555 1_555
Ag1_2 N1_3 1_555 1_555
N5_2 Ag1_2 1_555 1_555
N6_2 Ag1_2 1_555 1_555
N7_2 Ag1_2 1_555 1_555
C6_3 C7_3 1_555 1_555
C20_3 C21_3 1_555 1_555
C29_3 C31_3 1_555 1_555
C30_3 C31_3 1_555 1_555
C37_3 C38_3 1_555 1_555
N2_2 C15_3 1_555 1_555
Ag3 N2_2 1_555 1_555
N3_2 C26_3 1_555 1_555
Ag3 N3_2 1_555 1_555
N6_2 C26_4 1_555 1_555
H18_3 C24_3 1_555 1_555
N5_2 C15_4 1_555 1_555
C1_4 C2_4 1_555 1_555
C2_4 C3_4 1_555 1_555
C3_4 H1_4 1_555 1_555
C4_4 C3_4 1_555 1_555
H2_4 C4_4 1_555 1_555
C5_4 C4_4 1_555 1_555
C6_4 C5_4 1_555 1_555
H3_4 C6_4 1_555 1_555
C7_4 C2_4 1_555 1_555
H4_4 C7_4 1_555 1_555
C8_4 C5_4 1_555 1_555
C9_4 C8_4 1_555 1_555
H5_4 C9_4 1_555 1_555
H6_4 C9_4 1_555 1_555
C10_4 C9_4 1_555 1_555
C11_4 C10_4 1_555 1_555
C12_4 C11_4 1_555 1_555
H7_4 C12_4 1_555 1_555
C13_4 C12_4 1_555 1_555
C14_4 C13_4 1_555 1_555
C16_4 C14_4 1_555 1_555
H9_4 C16_4 1_555 1_555
C17_4 C11_4 1_555 1_555
H10_4 C17_4 1_555 1_555
C18_4 C10_4 1_555 1_555
H11_4 C18_4 1_555 1_555
H12_4 C18_4 1_555 1_555
C19_4 C10_4 1_555 1_555
H13_4 C19_4 1_555 1_555
H14_4 C19_4 1_555 1_555
C20_4 C8_4 1_555 1_555
H15_4 C20_4 1_555 1_555
H16_4 C20_4 1_555 1_555
C21_4 C18_4 1_555 1_555
C22_4 C21_4 1_555 1_555
C23_4 C22_4 1_555 1_555
C27_4 C25_4 1_555 1_555
H19_4 C27_4 1_555 1_555
C28_4 C22_4 1_555 1_555
H20_4 C28_4 1_555 1_555
C29_4 C21_4 1_555 1_555
H21_4 C29_4 1_555 1_555
H22_4 C29_4 1_555 1_555
C30_4 C8_4 1_555 1_555
H23_4 C30_4 1_555 1_555
H24_4 C30_4 1_555 1_555
C31_4 C19_4 1_555 1_555
C32_4 C31_4 1_555 1_555
C33_4 C32_4 1_555 1_555
H25_4 C33_4 1_555 1_555
C34_4 C33_4 1_555 1_555
H26_4 C34_4 1_555 1_555
C35_4 C34_4 1_555 1_555
C36_4 C35_4 1_555 1_555
C37_4 C35_4 1_555 1_555
H27_4 C37_4 1_555 1_555
C38_4 C32_4 1_555 1_555
H28_4 C38_4 1_555 1_555
N1_4 C1_4 1_555 1_555
N7_2 C36_4 1_555 1_555
Ag3 N1_4 1_555 1_555
C6_4 C7_4 1_555 1_555
C16_4 C17_4 1_555 1_555
C20_4 C21_4 1_555 1_555
C27_4 C28_4 1_555 1_555
C29_4 C31_4 1_555 1_555
C30_4 C31_4 1_555 1_555
C37_4 C38_4 1_555 1_555
H18_4 C24_4 1_555 1_555
H18_5 C24_5 1_555 1_555
N2_3 C15_5 1_555 1_555
Ag2 N2_3 1_555 1_555
N3_3 C26_5 1_555 1_555
Ag2 N3_3 1_555 1_555
C27_5 C25_5 1_555 1_555
H19_5 C27_5 1_555 1_555
H25_5 C33_5 1_555 1_555
C34_5 C33_5 1_555 1_555
H26_5 C34_5 1_555 1_555
C35_5 C34_5 1_555 1_555
C36_5 C35_5 1_555 1_555
N4_3 C36_5 1_555 1_555
Ag2 N4_3 1_555 1_555
C1_5 C2_5 1_555 1_555
C2_5 C3_5 1_555 1_555
C3_5 H1_5 1_555 1_555
C4_5 C3_5 1_555 1_555
H2_5 C4_5 1_555 1_555
C5_5 C4_5 1_555 1_555
C6_5 C5_5 1_555 1_555
H3_5 C6_5 1_555 1_555
C7_5 C2_5 1_555 1_555
H4_5 C7_5 1_555 1_555
N1_5 C1_5 1_555 1_555
Ag2 N1_5 1_555 1_555
C6_5 C7_5 1_555 1_555
C1_6 C2_6 1_555 1_555
C2_6 C3_6 1_555 1_555
C3_6 H1_6 1_555 1_555
C4_6 C3_6 1_555 1_555
H2_6 C4_6 1_555 1_555
C5_6 C4_6 1_555 1_555
C6_6 C5_6 1_555 1_555
H3_6 C6_6 1_555 1_555
C7_6 C2_6 1_555 1_555
H4_6 C7_6 1_555 1_555
C8_5 C5_6 1_555 1_555
C9_5 C8_5 1_555 1_555
H5_5 C9_5 1_555 1_555
H6_5 C9_5 1_555 1_555
C10_5 C9_5 1_555 1_555
C11_5 C10_5 1_555 1_555
C12_5 C11_5 1_555 1_555
H7_5 C12_5 1_555 1_555
C13_5 C12_5 1_555 1_555
C14_5 C13_5 1_555 1_555
C16_5 C14_5 1_555 1_555
H9_5 C16_5 1_555 1_555
C17_5 C11_5 1_555 1_555
H10_5 C17_5 1_555 1_555
C18_5 C10_5 1_555 1_555
H11_5 C18_5 1_555 1_555
H12_5 C18_5 1_555 1_555
C19_5 C10_5 1_555 1_555
H13_5 C19_5 1_555 1_555
H14_5 C19_5 1_555 1_555
C20_5 C8_5 1_555 1_555
H15_5 C20_5 1_555 1_555
H16_5 C20_5 1_555 1_555
C21_5 C18_5 1_555 1_555
C22_5 C21_5 1_555 1_555
C23_5 C22_5 1_555 1_555
C28_5 C22_5 1_555 1_555
H20_5 C28_5 1_555 1_555
C29_5 C21_5 1_555 1_555
H21_5 C29_5 1_555 1_555
H22_5 C29_5 1_555 1_555
C30_5 C8_5 1_555 1_555
H23_5 C30_5 1_555 1_555
H24_5 C30_5 1_555 1_555
C31_5 C19_5 1_555 1_555
C32_5 C31_5 1_555 1_555
H27_5 C37_5 1_555 1_555
C38_5 C32_5 1_555 1_555
H28_5 C38_5 1_555 1_555
N1_6 C1_6 1_555 1_555
Ag1_3 N1_6 1_555 1_555
N5_3 Ag1_3 1_555 1_555
N6_3 Ag1_3 1_555 1_555
N7_3 Ag1_3 1_555 1_555
C6_6 C7_6 1_555 1_555
C16_5 C17_5 1_555 1_555
C20_5 C21_5 1_555 1_555
C29_5 C31_5 1_555 1_555
C30_5 C31_5 1_555 1_555
C37_5 C38_5 1_555 1_555
C27_6 C25_6 1_555 1_555
H19_6 C27_6 1_555 1_555
H25_6 C33_6 1_555 1_555
C34_6 C33_6 1_555 1_555
H26_6 C34_6 1_555 1_555
C35_6 C34_6 1_555 1_555
C36_6 C35_6 1_555 1_555
N7_3 C36_6 1_555 1_555
N6_3 C26_6 1_555 1_555
H18_6 C24_6 1_555 1_555
N5_3 C15_6 1_555 1_555
C9_6 C8_6 1_555 1_555
H5_6 C9_6 1_555 1_555
H6_6 C9_6 1_555 1_555
C10_6 C9_6 1_555 1_555
C11_6 C10_6 1_555 1_555
C12_6 C11_6 1_555 1_555
H7_6 C12_6 1_555 1_555
C13_6 C12_6 1_555 1_555
C14_6 C13_6 1_555 1_555
C16_6 C14_6 1_555 1_555
H9_6 C16_6 1_555 1_555
C17_6 C11_6 1_555 1_555
H10_6 C17_6 1_555 1_555
C18_6 C10_6 1_555 1_555
H11_6 C18_6 1_555 1_555
H12_6 C18_6 1_555 1_555
C19_6 C10_6 1_555 1_555
H13_6 C19_6 1_555 1_555
H14_6 C19_6 1_555 1_555
C20_6 C8_6 1_555 1_555
H15_6 C20_6 1_555 1_555
H16_6 C20_6 1_555 1_555
C21_6 C18_6 1_555 1_555
C22_6 C21_6 1_555 1_555
C23_6 C22_6 1_555 1_555
C28_6 C22_6 1_555 1_555
H20_6 C28_6 1_555 1_555
C29_6 C21_6 1_555 1_555
H21_6 C29_6 1_555 1_555
H22_6 C29_6 1_555 1_555
C30_6 C8_6 1_555 1_555
H23_6 C30_6 1_555 1_555
H24_6 C30_6 1_555 1_555
C31_6 C19_6 1_555 1_555
C32_6 C31_6 1_555 1_555
H27_6 C37_6 1_555 1_555
C38_6 C32_6 1_555 1_555
H28_6 C38_6 1_555 1_555
C16_6 C17_6 1_555 1_555
C20_6 C21_6 1_555 1_555
C29_6 C31_6 1_555 1_555
C30_6 C31_6 1_555 1_555
C37_6 C38_6 1_555 1_555

#END
