
###############################################################################
#
# This file contains modified crystal structure data generated from the
# MOF subset of the Cambridge Structural Database (CSD) v543 
# hosted by the Cambridge Crystallographic Data Centre (CCDC).
#
# This work is licensed under the Creative Commons
# Attribution-NonCommercial-ShareAlike 4.0 International License.
# To view a copy of this license, visit
# http://creativecommons.org/licenses/by-nc-sa/4.0/
# or send a letter to
# Creative Commons, PO Box 1866, Mountain View, CA 94042, USA.
#
# CIF created using the CSD Python API on 29 September 2022
# The structure has been converted into the P1 space group
# The structure has a 3D framework
# The original CSD entry FAJYIB is in the hexagonal crystal system
# The original CSD entry FAJYIB is in a Sohncke space group
# The framework has been calculated to contain at least 10.0% void space
# The void calculation uses a probe of radius 1.32A, grid spacing 0.4
# The framework is charged, counterions have been retained in the structure
#
###############################################################################

data_FAJYIB
_chemical_formula_moiety         '(C236 H168 Ag6 N24 6+)n'
_symmetry_cell_setting           triclinic
_symmetry_space_group_name_H-M   'P 1'
_symmetry_Int_Tables_number      1
_space_group_name_Hall           'P 1'
loop_
_symmetry_equiv_pos_site_id
_symmetry_equiv_pos_as_xyz
1 x,y,z
_cell_length_a                   17.4299(5)
_cell_length_b                   17.4299(5)
_cell_length_c                   28.4893(12)
_cell_angle_alpha                90
_cell_angle_beta                 90
_cell_angle_gamma                120
_cell_volume                     7495.53
loop_
_atom_site_label
_atom_site_type_symbol
_atom_site_fract_x
_atom_site_fract_y
_atom_site_fract_z
C1 C 0.0931(8) 0.0494(10) 0.6173(6)
C2 C 0.0046(5) 0.0051(6) 0.5976(4)
N1 N 0.1619(10) 0.0782(11) 0.6310(6)
Ag1 Ag 0.30522(5) 0.15893(5) 0.65459(3)
N5 N 0.3001(9) 0.1483(9) 0.7364(5)
N6 N 0.3610(9) 0.0735(9) 0.6265(5)
N7 N 0.3855(9) 0.2975(8) 0.6333(5)
C3 C 0.9518(6) 0.0415(6) 0.6085(5)
H1 H 0.9750 0.0936 0.6258
C4 C 0.8642(6) 0.0000(7) 0.5936(5)
H2 H 0.8288 0.0244 0.6009
C25 C 0.4455(7) 0.0000(7) 0.5938(4)
C26 C 0.5359(7) 0.0396(6) 0.6025(4)
H19 H 0.5651 0.0934 0.6183
H20 H 0.6431 0.0253 0.5932
C28 C 0.4008(12) 0.0417(13) 0.6100(6)
C4_2 C 0.8642(6) 1.0000(7) 0.5936(5)
C5 C 0.8294(5) 0.9221(6) 0.5677(4)
C6 C 0.8822(6) 0.8857(6) 0.5568(4)
H3 H 0.8590 0.8335 0.5395
C7 C 0.9698(6) 0.9272(7) 0.5718(5)
C8 C 0.7317(7) 0.8719(8) 0.5484(4)
C9 C 0.7339(8) 0.8729(7) 0.4947(4)
H5 H 0.7642 0.9335 0.4834
H6 H 0.7659 0.8442 0.4835
C10 C 0.6436(8) 0.8264(8) 0.4770(4)
C11 C 0.6450(6) 0.8247(6) 0.4211(2)
C12 C 0.6972(8) 0.7947(8) 0.4002(3)
H7 H 0.7255 0.7723 0.4186
C13 C 0.7071(8) 0.7981(8) 0.3517(3)
H8 H 0.7420 0.7781 0.3377
C14 C 0.6647(7) 0.8316(6) 0.3241(2)
C15 C 0.6125(6) 0.8616(7) 0.3450(3)
H9 H 0.5842 0.8840 0.3266
C16 C 0.6027(6) 0.8582(6) 0.3935(3)
H10 H 0.5678 0.8782 0.4075
C17 C 0.6866(8) 0.8506(8) 0.2734(5)
C18 C 0.5970(7) 0.8745(6) 0.4928(4)
H11 H 0.5387 0.8470 0.4786
H12 H 0.6298 0.9353 0.4819
C19 C 0.5949(8) 0.7308(7) 0.4930(5)
H13 H 0.6263 0.7012 0.4824
H14 H 0.5359 0.7006 0.4795
C20 C 0.6814(9) 0.9219(8) 0.5635(5)
H15 H 0.6842 0.9284 0.5974
H16 H 0.7110 0.9808 0.5499
C21 C 0.5866(8) 0.8743(8) 0.5484(4)
C22 C 0.5390(5) 0.9184(6) 0.5637(4)
C23 C 0.4486(5) 0.8788(5) 0.5551(3)
H17 H 0.4194 0.8250 0.5392
C24 C 0.4018(5) 0.9196(7) 0.5701(4)
H18 H 0.3414 0.8931 0.5644
C25_2 C 0.4455(7) 1.0000(7) 0.5938(4)
C27 C 0.5826(5) 0.9988(6) 0.5874(4)
C29 C 0.5433(7) 0.7779(7) 0.5629(4)
H21 H 0.5387 0.7752 0.5968
H22 H 0.4834 0.7476 0.5505
C30 C 0.6814(8) 0.7751(8) 0.5662(4)
H23 H 0.7124 0.7447 0.5561
H24 H 0.6802 0.7748 0.6002
C31 C 0.5885(7) 0.7272(7) 0.5477(4)
C32 C 0.5397(5) 0.6302(4) 0.5663(3)
C33 C 0.5189(7) 0.5602(5) 0.5358(2)
H25 H 0.5321 0.5712 0.5040
C34 C 0.4784(7) 0.4740(5) 0.5527(3)
H26 H 0.4645 0.4271 0.5323
C35 C 0.4587(6) 0.4576(4) 0.6002(3)
C36 C 0.4794(6) 0.5276(5) 0.6307(2)
H27 H 0.4662 0.5167 0.6625
C37 C 0.5199(6) 0.6139(4) 0.6138(3)
H28 H 0.5338 0.6607 0.6342
C38 C 0.4186(9) 0.3657(10) 0.6177(5)
N2 N 0.6999(9) 0.8517(9) 0.2364(5)
Ag4 Ag 0.69478(5) 0.84107(5) 0.15459(3)
C4_3 C 0.1358(6) 0.0000(7) 0.0936(5)
C5_2 C 0.1706(5) 0.0779(6) 0.0677(4)
C6_2 C 0.1178(6) 0.1143(6) 0.0568(4)
H3_2 H 0.1410 0.1665 0.0395
C7_2 C 0.0302(6) 0.0728(7) 0.0718(5)
C8_2 C 0.2683(7) 0.1281(8) 0.0484(4)
C20_2 C 0.3186(9) 0.0781(8) 0.0635(5)
H15_2 H 0.3158 0.0716 0.0974
H16_2 H 0.2890 0.0192 0.0499
C21_2 C 0.4134(8) 0.1257(8) 0.0484(4)
C22_2 C 0.4610(5) 0.0816(6) 0.0637(4)
C23_2 C 0.5514(5) 0.1212(5) 0.0551(3)
H17_2 H 0.5806 0.1750 0.0392
C24_2 C 0.5982(5) 0.0804(7) 0.0701(4)
H18_2 H 0.6586 0.1069 0.0644
C25_3 C 0.5545(7) 0.0000(7) 0.0938(4)
C27_2 C 0.4174(5) 0.0012(6) 0.0874(4)
C29_2 C 0.4567(7) 0.2221(7) 0.0629(4)
H21_2 H 0.4613 0.2248 0.0968
H22_2 H 0.5166 0.2524 0.0505
C30_2 C 0.3186(8) 0.2249(8) 0.0662(4)
H23_2 H 0.2876 0.2553 0.0561
H24_2 H 0.3198 0.2252 0.1002
C31_2 C 0.4115(7) 0.2728(7) 0.0477(4)
C32_2 C 0.4603(5) 0.3698(4) 0.0663(3)
C33_2 C 0.4811(7) 0.4398(5) 0.0358(2)
H25_2 H 0.4679 0.4288 0.0040
C34_2 C 0.5216(7) 0.5260(5) 0.0527(3)
H26_2 H 0.5355 0.5729 0.0323
C35_2 C 0.5413(6) 0.5424(4) 0.1002(3)
C36_2 C 0.5206(6) 0.4724(5) 0.1307(2)
H27_2 H 0.5338 0.4833 0.1625
C37_2 C 0.4801(6) 0.3861(4) 0.1138(3)
H28_2 H 0.4662 0.3393 0.1342
C38_2 C 0.5814(9) 0.6343(10) 0.1177(5)
N4 N 0.6145(9) 0.7025(8) 0.1333(5)
C9_2 C 0.2661(8) 0.1271(7) 0.9947(4)
H5_2 H 0.2358 0.0665 0.9834
H6_2 H 0.2341 0.1558 0.9835
C10_2 C 0.3564(8) 0.1736(8) 0.9770(4)
C11_2 C 0.3550(6) 0.1753(6) 0.9211(2)
C12_2 C 0.3028(8) 0.2053(8) 0.9002(3)
H7_2 H 0.2745 0.2277 0.9186
C13_2 C 0.2929(8) 0.2019(8) 0.8517(3)
H8_2 H 0.2580 0.2219 0.8377
C14_2 C 0.3353(7) 0.1684(6) 0.8241(2)
C15_2 C 0.3875(6) 0.1384(7) 0.8450(3)
H9_2 H 0.4158 0.1160 0.8266
C16_2 C 0.3973(6) 0.1418(6) 0.8935(3)
H10_2 H 0.4322 0.1218 0.9075
C17_2 C 0.3134(8) 0.1494(8) 0.7734(5)
C18_2 C 0.4030(7) 0.1255(6) 0.9928(4)
H11_2 H 0.4613 0.1530 0.9786
H12_2 H 0.3702 0.0647 0.9819
C19_2 C 0.4051(8) 0.2692(7) 0.9930(5)
H13_2 H 0.3737 0.2988 0.9824
H14_2 H 0.4641 0.2994 0.9795
C3_2 C 0.0482(6) 0.9585(6) 0.1085(5)
H1_2 H 0.0250 0.9064 0.1258
C4_4 C 0.1358(6) 1.0000(7) 0.0936(5)
H2_2 H 0.1712 0.9756 0.1009
C25_4 C 0.5545(7) 1.0000(7) 0.0938(4)
C26_2 C 0.4641(7) 0.9604(6) 0.1025(4)
H19_2 H 0.4349 0.9066 0.1183
H20_2 H 0.3569 0.9747 0.0932
C28_2 C 0.5992(12) 0.9583(13) 0.1100(6)
N3 N 0.6390(9) 0.9265(9) 0.1265(5)
C1_2 C 0.9069(8) 0.9506(10) 0.1173(6)
C2_2 C 0.9954(5) 0.9949(6) 0.0976(4)
N1_2 N 0.8381(10) 0.9218(11) 0.1310(6)
H4 H 0.0052 0.9028 0.5645
H4_2 H 0.9948 0.0972 0.0645
H3_3 H 0.1665 0.0255 0.8728
C7_3 C 0.0728(7) 0.0426(9) 0.9051(5)
H4_3 H 0.0972 0.1024 0.8978
C34_3 C 0.5260(5) 0.0044(9) 0.8860(3)
H26_3 H 0.5729 0.0374 0.8656
C35_3 C 0.5424(4) 0.0011(7) 0.9335(3)
C38_3 C 0.6343(10) 0.0529(13) 0.9510(5)
N4_2 N 0.7025(8) 0.0880(12) 0.9666(5)
Ag2 Ag 0.84107(5) 0.14629(7) 0.98792(3)
C1_3 C 0.9506(10) 0.0437(13) 0.9506(6)
N1_3 N 0.9218(11) 0.0837(15) 0.9643(6)
N6_2 N 0.9265(9) 0.2875(13) 0.9598(5)
C2_3 C 0.9949(6) 0.9995(8) 0.9309(4)
C3_3 C 0.9585(6) 0.9103(8) 0.9418(5)
H1_3 H 0.9064 0.8814 0.9591
C4_5 C 1.0000(7) 0.8642(9) 0.9269(5)
H2_3 H 0.9756 0.8044 0.9342
C25_5 C 1.0000(7) 0.4455(10) 0.9271(4)
C26_3 C 0.9604(6) 0.4963(9) 0.9358(4)
H19_3 H 0.9066 0.4717 0.9516
H20_3 H 0.9747 0.6178 0.9265
C28_3 C 0.9583(13) 0.3591(18) 0.9433(6)
C4_6 C -0.0000(7) 0.8642(9) 0.9269(5)
C5_3 C 0.0779(6) 0.9073(8) 0.9010(4)
C6_3 C 0.1143(6) 0.9965(8) 0.8901(4)
C8_3 C 0.1281(8) 0.8598(11) 0.8817(4)
C9_3 C 0.1271(7) 0.8610(11) 0.8280(4)
H5_3 H 0.0665 0.8307 0.8167
H6_3 H 0.1558 0.9217 0.8168
C10_3 C 0.1736(8) 0.8172(11) 0.8103(4)
C11_3 C 0.1753(6) 0.8203(8) 0.7544(2)
C12_3 C 0.2053(8) 0.9025(11) 0.7335(3)
H7_3 H 0.2277 0.9532 0.7519
C13_3 C 0.2019(8) 0.9090(11) 0.6850(3)
H8_3 H 0.2219 0.9639 0.6710
C14_3 C 0.1684(6) 0.8331(9) 0.6574(2)
C15_3 C 0.1384(7) 0.7509(9) 0.6783(3)
H9_3 H 0.1160 0.7002 0.6599
C16_3 C 0.1418(6) 0.7445(8) 0.7268(3)
H10_3 H 0.1218 0.6896 0.7408
C17_3 C 0.1494(8) 0.8360(11) 0.6067(5)
C18_3 C 0.1255(6) 0.7225(9) 0.8261(4)
H11_3 H 0.1530 0.6917 0.8119
H12_3 H 0.0647 0.6945 0.8152
C19_3 C 0.2692(7) 0.8641(11) 0.8263(5)
H13_3 H 0.2988 0.9251 0.8157
H14_3 H 0.2994 0.8353 0.8128
C20_3 C 0.0781(8) 0.7595(12) 0.8968(5)
H15_3 H 0.0716 0.7558 0.9307
H16_3 H 0.0192 0.7302 0.8832
C21_3 C 0.1257(8) 0.7123(11) 0.8817(4)
C22_3 C 0.0816(6) 0.6206(8) 0.8970(4)
C23_3 C 0.1212(5) 0.5698(7) 0.8884(3)
H17_3 H 0.1750 0.5944 0.8725
C24_3 C 0.0804(7) 0.4822(9) 0.9034(4)
H18_3 H 0.1069 0.4483 0.8977
C25_6 C -0.0000(7) 0.4455(10) 0.9271(4)
C27_3 C 0.0012(6) 0.5838(8) 0.9207(4)
C29_3 C 0.2221(7) 0.7654(10) 0.8962(4)
H21_3 H 0.2248 0.7635 0.9301
H22_3 H 0.2524 0.7358 0.8838
C30_3 C 0.2249(8) 0.9063(11) 0.8995(4)
H23_3 H 0.2553 0.9677 0.8894
H24_3 H 0.2252 0.9054 0.9335
C31_3 C 0.2728(7) 0.8613(10) 0.8810(4)
C32_3 C 0.3698(4) 0.9095(6) 0.8996(3)
C33_3 C 0.4398(5) 0.9587(9) 0.8691(2)
H25_3 H 0.4288 0.9609 0.8373
C36_3 C 0.4724(5) 0.9518(8) 0.9640(2)
H27_3 H 0.4833 0.9495 0.9958
C37_3 C 0.3861(4) 0.9060(7) 0.9471(3)
H28_3 H 0.3393 0.8731 0.9675
N2_2 N 0.1483(9) 0.8482(13) 0.5697(5)
Ag4_2 Ag 0.15893(5) 0.85371(7) 0.48792(3)
C2_4 C 0.0051(6) 0.0005(8) 0.4309(4)
C3_4 C 0.0415(6) 0.0897(8) 0.4418(5)
H1_4 H 0.0936 0.1186 0.4591
C4_7 C -0.0000(7) 0.1358(9) 0.4269(5)
H2_4 H 0.0244 0.1956 0.4342
C25_7 C -0.0000(7) 0.5545(10) 0.4271(4)
C26_4 C 0.0396(6) 0.5037(9) 0.4358(4)
H19_4 H 0.0934 0.5283 0.4516
H20_4 H 0.0253 0.3822 0.4265
C28_4 C 0.0417(13) 0.6409(18) 0.4433(6)
N3_2 N 0.0735(9) 0.7125(13) 0.4598(5)
C1_4 C 0.0494(10) 0.9563(13) 0.4506(6)
N1_4 N 0.0782(11) 0.9163(15) 0.4643(6)
N7_2 N 0.2975(8) 0.9120(12) 0.4666(5)
H3_4 H 0.8335 0.9745 0.3728
C7_4 C 0.9272(7) 0.9574(9) 0.4051(5)
H4_4 H 0.9028 0.8976 0.3978
C34_4 C 0.4740(5) 0.9956(9) 0.3860(3)
H26_4 H 0.4271 0.9626 0.3656
C35_4 C 0.4576(4) 0.9989(7) 0.4335(3)
C38_4 C 0.3657(10) 0.9471(13) 0.4510(5)
N5_2 N 0.8517(9) 0.1518(13) 0.0697(5)
C4_8 C 1.0000(7) 0.1358(9) 0.4269(5)
C5_4 C 0.9221(6) 0.0927(8) 0.4010(4)
C6_4 C 0.8857(6) 0.0035(8) 0.3901(4)
C8_4 C 0.8719(8) 0.1402(11) 0.3817(4)
C9_4 C 0.8729(7) 0.1390(11) 0.3280(4)
H5_4 H 0.9335 0.1693 0.3167
H6_4 H 0.8442 0.0783 0.3168
C10_4 C 0.8264(8) 0.1828(11) 0.3103(4)
C11_4 C 0.8247(6) 0.1797(8) 0.2544(2)
C12_4 C 0.7947(8) 0.0975(11) 0.2335(3)
H7_4 H 0.7723 0.0468 0.2519
C13_4 C 0.7981(8) 0.0910(11) 0.1850(3)
H8_4 H 0.7781 0.0361 0.1710
C14_4 C 0.8316(6) 0.1669(9) 0.1574(2)
C15_4 C 0.8616(7) 0.2491(9) 0.1783(3)
H9_4 H 0.8840 0.2998 0.1599
C16_4 C 0.8582(6) 0.2555(8) 0.2268(3)
H10_4 H 0.8782 0.3104 0.2408
C17_4 C 0.8506(8) 0.1640(11) 0.1067(5)
C18_4 C 0.8745(6) 0.2775(9) 0.3261(4)
H11_4 H 0.8470 0.3083 0.3119
H12_4 H 0.9353 0.3055 0.3152
C19_4 C 0.7308(7) 0.1359(11) 0.3263(5)
H13_4 H 0.7012 0.0749 0.3157
H14_4 H 0.7006 0.1647 0.3128
C20_4 C 0.9219(8) 0.2405(12) 0.3968(5)
H15_4 H 0.9284 0.2442 0.4307
H16_4 H 0.9808 0.2698 0.3832
C21_4 C 0.8743(8) 0.2877(11) 0.3817(4)
C22_4 C 0.9184(6) 0.3794(8) 0.3970(4)
C23_4 C 0.8788(5) 0.4302(7) 0.3884(3)
H17_4 H 0.8250 0.4056 0.3725
C24_4 C 0.9196(7) 0.5178(9) 0.4034(4)
H18_4 H 0.8931 0.5517 0.3977
C25_8 C 1.0000(7) 0.5545(10) 0.4271(4)
C27_4 C 0.9988(6) 0.4162(8) 0.4207(4)
C29_4 C 0.7779(7) 0.2346(10) 0.3962(4)
H21_4 H 0.7752 0.2365 0.4301
H22_4 H 0.7476 0.2642 0.3838
C30_4 C 0.7751(8) 0.0937(11) 0.3995(4)
H23_4 H 0.7447 0.0323 0.3894
H24_4 H 0.7748 0.0946 0.4335
C31_4 C 0.7272(7) 0.1387(10) 0.3810(4)
C32_4 C 0.6302(4) 0.0905(6) 0.3996(3)
C33_4 C 0.5602(5) 0.0413(9) 0.3691(2)
H25_4 H 0.5712 0.0391 0.3373
C36_4 C 0.5276(5) 0.0482(8) 0.4640(2)
H27_4 H 0.5167 0.0505 0.4958
C37_4 C 0.6139(4) 0.0940(7) 0.4471(3)
H28_4 H 0.6607 0.1269 0.4675
C3_5 C 0.0897(8) 0.0482(6) 0.2752(5)
H1_5 H 0.1186 0.0250 0.2925
C4_9 C 0.1358(9) 0.1358(6) 0.2603(5)
H2_5 H 0.1956 0.1712 0.2676
C5_5 C 0.0927(8) 0.1706(5) 0.2344(4)
C6_5 C 0.0035(8) 0.1178(6) 0.2235(4)
C8_5 C 0.1402(11) 0.2683(7) 0.2151(4)
C9_5 C 0.1390(11) 0.2661(8) 0.1614(4)
H5_5 H 0.1693 0.2358 0.1501
H6_5 H 0.0783 0.2341 0.1502
C10_5 C 0.1828(11) 0.3564(8) 0.1437(4)
C11_5 C 0.1797(8) 0.3550(6) 0.0878(2)
C12_5 C 0.0975(11) 0.3028(8) 0.0669(3)
H7_5 H 0.0468 0.2745 0.0853
C13_5 C 0.0910(11) 0.2929(8) 0.0184(3)
H8_5 H 0.0361 0.2580 0.0044
C15_5 C 0.2491(9) 0.3875(6) 0.0117(3)
C16_5 C 0.2555(8) 0.3973(6) 0.0602(3)
H10_5 H 0.3104 0.4322 0.0742
C18_5 C 0.2775(9) 0.4030(7) 0.1595(4)
H11_5 H 0.3083 0.4613 0.1453
H12_5 H 0.3055 0.3702 0.1486
C19_5 C 0.1359(11) 0.4051(8) 0.1597(5)
H13_5 H 0.0749 0.3737 0.1491
H14_5 H 0.1647 0.4641 0.1462
C20_5 C 0.2405(12) 0.3186(9) 0.2302(5)
H15_5 H 0.2442 0.3158 0.2641
H16_5 H 0.2698 0.2890 0.2166
C21_5 C 0.2877(11) 0.4134(8) 0.2151(4)
C22_5 C 0.3794(8) 0.4610(5) 0.2304(4)
C23_5 C 0.4302(7) 0.5514(5) 0.2218(3)
H17_5 H 0.4056 0.5806 0.2059
C24_5 C 0.5178(9) 0.5982(5) 0.2368(4)
H18_5 H 0.5517 0.6586 0.2311
C25_9 C 0.5545(10) 0.5545(7) 0.2605(4)
C26_5 C 0.5037(9) 0.4641(7) 0.2692(4)
H19_5 H 0.5283 0.4349 0.2850
C27_5 C 0.4162(8) 0.4174(5) 0.2541(4)
H20_5 H 0.3822 0.3569 0.2599
C28_5 C 0.6409(18) 0.5992(12) 0.2767(6)
C29_5 C 0.2346(10) 0.4567(7) 0.2296(4)
H21_5 H 0.2365 0.4613 0.2635
H22_5 H 0.2642 0.5166 0.2172
C30_5 C 0.0937(11) 0.3186(8) 0.2329(4)
H23_5 H 0.0323 0.2876 0.2228
H24_5 H 0.0946 0.3198 0.2669
C31_5 C 0.1387(10) 0.4115(7) 0.2144(4)
C32_5 C 0.0905(6) 0.4603(5) 0.2330(3)
C33_5 C 0.0413(9) 0.4811(7) 0.2025(2)
H25_5 H 0.0391 0.4679 0.1707
C36_5 C 0.0482(8) 0.5206(6) 0.2974(2)
H27_5 H 0.0505 0.5338 0.3292
C37_5 C 0.0940(7) 0.4801(6) 0.2805(3)
H28_5 H 0.1269 0.4662 0.3009
N3_3 N 0.7125(13) 0.6390(9) 0.2932(5)
Ag3 Ag 0.85371(7) 0.69478(5) 0.32126(3)
C14_5 C 0.1669(9) 0.3353(7) 0.9908(2)
H9_5 H 0.2998 0.4158 0.9933
C17_5 C 0.1640(11) 0.3134(8) 0.9401(5)
N2_3 N 0.1518(13) 0.3001(9) 0.9031(5)
Ag4_3 Ag 0.14629(7) 0.30522(5) 0.82126(3)
H3_5 H 0.9745 0.1410 0.2062
C7_5 C 0.9574(9) 0.0302(6) 0.2385(5)
C34_5 C 0.9956(9) 0.5216(7) 0.2194(3)
H26_5 H 0.9626 0.5355 0.1990
C35_5 C 0.9989(7) 0.5413(6) 0.2669(3)
C38_5 C 0.9471(13) 0.5814(9) 0.2844(5)
N4_3 N 0.9120(12) 0.6145(9) 0.3000(5)
C1_5 C 0.9563(13) 0.9069(8) 0.2840(6)
H4_5 H 0.8976 0.9948 0.2312
N1_5 N 0.9163(15) 0.8381(10) 0.2977(6)
N5_3 N 0.8482(13) 0.6999(9) 0.4031(5)
C1_6 C 0.0437(13) 0.0931(8) 0.7840(6)
H4_6 H 0.1024 0.0052 0.7312
N1_6 N 0.0837(15) 0.1619(10) 0.7977(6)
N6_3 N 0.2875(13) 0.3610(9) 0.7932(5)
N7_3 N 0.0880(12) 0.3855(9) 0.8000(5)
H3_6 H 0.0255 0.8590 0.7062
C7_6 C 0.0426(9) 0.9698(6) 0.7385(5)
C34_6 C 0.0044(9) 0.4784(7) 0.7194(3)
H26_6 H 0.0374 0.4645 0.6990
C35_6 C 0.0011(7) 0.4587(6) 0.7669(3)
C38_6 C 0.0529(13) 0.4186(9) 0.7844(5)
C3_6 C 0.9103(8) 0.9518(6) 0.7752(5)
H1_6 H 0.8814 0.9750 0.7925
C4_10 C 0.8642(9) 0.8642(6) 0.7603(5)
H2_6 H 0.8044 0.8288 0.7676
C5_6 C 0.9073(8) 0.8294(5) 0.7344(4)
C6_6 C 0.9965(8) 0.8822(6) 0.7235(4)
C8_6 C 0.8598(11) 0.7317(7) 0.7151(4)
C9_6 C 0.8610(11) 0.7339(8) 0.6614(4)
H5_6 H 0.8307 0.7642 0.6501
H6_6 H 0.9217 0.7659 0.6502
C10_6 C 0.8172(11) 0.6436(8) 0.6437(4)
C11_6 C 0.8203(8) 0.6450(6) 0.5878(2)
C12_6 C 0.9025(11) 0.6972(8) 0.5669(3)
H7_6 H 0.9532 0.7255 0.5853
C13_6 C 0.9090(11) 0.7071(8) 0.5184(3)
H8_6 H 0.9639 0.7420 0.5044
C14_6 C 0.8331(9) 0.6647(7) 0.4908(2)
C15_6 C 0.7509(9) 0.6125(6) 0.5117(3)
H9_6 H 0.7002 0.5842 0.4933
C16_6 C 0.7445(8) 0.6027(6) 0.5602(3)
H10_6 H 0.6896 0.5678 0.5742
C17_6 C 0.8360(11) 0.6866(8) 0.4401(5)
C18_6 C 0.7225(9) 0.5970(7) 0.6595(4)
H11_6 H 0.6917 0.5387 0.6453
H12_6 H 0.6945 0.6298 0.6486
C19_6 C 0.8641(11) 0.5949(8) 0.6597(5)
H13_6 H 0.9251 0.6263 0.6491
H14_6 H 0.8353 0.5359 0.6462
C20_6 C 0.7595(12) 0.6814(9) 0.7302(5)
H15_6 H 0.7558 0.6842 0.7641
H16_6 H 0.7302 0.7110 0.7166
C21_6 C 0.7123(11) 0.5866(8) 0.7151(4)
C22_6 C 0.6206(8) 0.5390(5) 0.7304(4)
C23_6 C 0.5698(7) 0.4486(5) 0.7218(3)
H17_6 H 0.5944 0.4194 0.7059
C24_6 C 0.4822(9) 0.4018(5) 0.7368(4)
H18_6 H 0.4483 0.3414 0.7311
C25_10 C 0.4455(10) 0.4455(7) 0.7605(4)
C26_6 C 0.4963(9) 0.5359(7) 0.7692(4)
H19_6 H 0.4717 0.5651 0.7850
C27_6 C 0.5838(8) 0.5826(5) 0.7541(4)
H20_6 H 0.6178 0.6431 0.7599
C28_6 C 0.3591(18) 0.4008(12) 0.7767(6)
C29_6 C 0.7654(10) 0.5433(7) 0.7296(4)
H21_6 H 0.7635 0.5387 0.7635
H22_6 H 0.7358 0.4834 0.7172
C30_6 C 0.9063(11) 0.6814(8) 0.7329(4)
H23_6 H 0.9677 0.7124 0.7228
H24_6 H 0.9054 0.6802 0.7669
C31_6 C 0.8613(10) 0.5885(7) 0.7144(4)
C32_6 C 0.9095(6) 0.5397(5) 0.7330(3)
C33_6 C 0.9587(9) 0.5189(7) 0.7025(2)
H25_6 H 0.9609 0.5321 0.6707
C36_6 C 0.9518(8) 0.4794(6) 0.7974(2)
H27_6 H 0.9495 0.4662 0.8292
C37_6 C 0.9060(7) 0.5199(6) 0.7805(3)
H28_6 H 0.8731 0.5338 0.8009
C2_5 C 0.0005(8) 0.9954(5) 0.2643(4)
C2_6 C 0.9995(8) 0.0046(5) 0.7643(4)
loop_
_geom_bond_atom_site_label_1
_geom_bond_atom_site_label_2
_geom_bond_site_symmetry_1
_geom_bond_site_symmetry_2
C1 C2 1_555 1_555
N1 C1 1_555 1_555
Ag1 N1 1_555 1_555
N5 Ag1 1_555 1_555
N6 Ag1 1_555 1_555
N7 Ag1 1_555 1_555
C3 H1 1_555 1_555
C4 C3 1_555 1_555
H2 C4 1_555 1_555
C26 C25 1_555 1_555
H19 C26 1_555 1_555
C28 C25 1_555 1_555
N6 C28 1_555 1_555
C5 C4_2 1_555 1_555
C6 C5 1_555 1_555
H3 C6 1_555 1_555
C8 C5 1_555 1_555
C9 C8 1_555 1_555
H5 C9 1_555 1_555
H6 C9 1_555 1_555
C10 C9 1_555 1_555
C11 C10 1_555 1_555
C12 C11 1_555 1_555
H7 C12 1_555 1_555
C13 C12 1_555 1_555
H8 C13 1_555 1_555
C14 C13 1_555 1_555
C15 C14 1_555 1_555
H9 C15 1_555 1_555
C16 C11 1_555 1_555
H10 C16 1_555 1_555
C17 C14 1_555 1_555
C18 C10 1_555 1_555
H11 C18 1_555 1_555
H12 C18 1_555 1_555
C19 C10 1_555 1_555
H13 C19 1_555 1_555
H14 C19 1_555 1_555
C20 C8 1_555 1_555
H15 C20 1_555 1_555
H16 C20 1_555 1_555
C21 C18 1_555 1_555
C22 C21 1_555 1_555
C23 C22 1_555 1_555
H17 C23 1_555 1_555
C24 C23 1_555 1_555
H18 C24 1_555 1_555
C25_2 C24 1_555 1_555
C27 C22 1_555 1_555
C29 C21 1_555 1_555
H21 C29 1_555 1_555
H22 C29 1_555 1_555
C30 C8 1_555 1_555
H23 C30 1_555 1_555
H24 C30 1_555 1_555
C31 C19 1_555 1_555
C32 C31 1_555 1_555
C33 C32 1_555 1_555
H25 C33 1_555 1_555
C34 C33 1_555 1_555
H26 C34 1_555 1_555
C35 C34 1_555 1_555
C36 C35 1_555 1_555
H27 C36 1_555 1_555
C37 C32 1_555 1_555
H28 C37 1_555 1_555
C38 C35 1_555 1_555
N2 C17 1_555 1_555
N7 C38 1_555 1_555
Ag4 N2 1_555 1_555
C6 C7 1_555 1_555
C15 C16 1_555 1_555
C20 C21 1_555 1_555
C29 C31 1_555 1_555
C30 C31 1_555 1_555
C36 C37 1_555 1_555
C5_2 C4_3 1_555 1_555
C6_2 C5_2 1_555 1_555
H3_2 C6_2 1_555 1_555
C8_2 C5_2 1_555 1_555
C20_2 C8_2 1_555 1_555
H15_2 C20_2 1_555 1_555
H16_2 C20_2 1_555 1_555
C22_2 C21_2 1_555 1_555
C23_2 C22_2 1_555 1_555
H17_2 C23_2 1_555 1_555
C24_2 C23_2 1_555 1_555
H18_2 C24_2 1_555 1_555
C25_3 C24_2 1_555 1_555
C27_2 C22_2 1_555 1_555
C29_2 C21_2 1_555 1_555
H21_2 C29_2 1_555 1_555
H22_2 C29_2 1_555 1_555
C30_2 C8_2 1_555 1_555
H23_2 C30_2 1_555 1_555
H24_2 C30_2 1_555 1_555
C32_2 C31_2 1_555 1_555
C33_2 C32_2 1_555 1_555
H25_2 C33_2 1_555 1_555
C34_2 C33_2 1_555 1_555
H26_2 C34_2 1_555 1_555
C35_2 C34_2 1_555 1_555
C36_2 C35_2 1_555 1_555
H27_2 C36_2 1_555 1_555
C37_2 C32_2 1_555 1_555
H28_2 C37_2 1_555 1_555
C38_2 C35_2 1_555 1_555
N4 C38_2 1_555 1_555
Ag4 N4 1_555 1_555
C6_2 C7_2 1_555 1_555
C20_2 C21_2 1_555 1_555
C29_2 C31_2 1_555 1_555
C30_2 C31_2 1_555 1_555
C36_2 C37_2 1_555 1_555
H5_2 C9_2 1_555 1_555
H6_2 C9_2 1_555 1_555
C10_2 C9_2 1_555 1_555
C11_2 C10_2 1_555 1_555
C12_2 C11_2 1_555 1_555
H7_2 C12_2 1_555 1_555
C13_2 C12_2 1_555 1_555
H8_2 C13_2 1_555 1_555
C14_2 C13_2 1_555 1_555
C15_2 C14_2 1_555 1_555
H9_2 C15_2 1_555 1_555
C16_2 C11_2 1_555 1_555
H10_2 C16_2 1_555 1_555
C17_2 C14_2 1_555 1_555
C18_2 C10_2 1_555 1_555
H11_2 C18_2 1_555 1_555
H12_2 C18_2 1_555 1_555
C19_2 C10_2 1_555 1_555
H13_2 C19_2 1_555 1_555
H14_2 C19_2 1_555 1_555
N5 C17_2 1_555 1_555
C15_2 C16_2 1_555 1_555
C3_2 H1_2 1_555 1_555
C4_4 C3_2 1_555 1_555
H2_2 C4_4 1_555 1_555
C26_2 C25_4 1_555 1_555
H19_2 C26_2 1_555 1_555
C28_2 C25_4 1_555 1_555
N3 C28_2 1_555 1_555
Ag4 N3 1_555 1_555
C1_2 C2_2 1_555 1_555
N1_2 C1_2 1_555 1_555
Ag4 N1_2 1_555 1_555
H4_3 C7_3 1_555 1_555
H26_3 C34_3 1_555 1_555
C35_3 C34_3 1_555 1_555
C38_3 C35_3 1_555 1_555
N4_2 C38_3 1_555 1_555
Ag2 N4_2 1_555 1_555
N1_3 C1_3 1_555 1_555
Ag2 N1_3 1_555 1_555
N6_2 Ag2 1_555 1_555
C2_3 C3_3 1_555 1_555
C3_3 H1_3 1_555 1_555
C4_5 C3_3 1_555 1_555
H2_3 C4_5 1_555 1_555
C26_3 C25_5 1_555 1_555
H19_3 C26_3 1_555 1_555
C28_3 C25_5 1_555 1_555
N6_2 C28_3 1_555 1_555
C5_3 C4_6 1_555 1_555
C6_3 C5_3 1_555 1_555
C8_3 C5_3 1_555 1_555
C9_3 C8_3 1_555 1_555
H5_3 C9_3 1_555 1_555
H6_3 C9_3 1_555 1_555
C10_3 C9_3 1_555 1_555
C11_3 C10_3 1_555 1_555
C12_3 C11_3 1_555 1_555
H7_3 C12_3 1_555 1_555
C13_3 C12_3 1_555 1_555
H8_3 C13_3 1_555 1_555
C14_3 C13_3 1_555 1_555
C15_3 C14_3 1_555 1_555
H9_3 C15_3 1_555 1_555
C16_3 C11_3 1_555 1_555
H10_3 C16_3 1_555 1_555
C17_3 C14_3 1_555 1_555
C18_3 C10_3 1_555 1_555
H11_3 C18_3 1_555 1_555
H12_3 C18_3 1_555 1_555
C19_3 C10_3 1_555 1_555
H13_3 C19_3 1_555 1_555
H14_3 C19_3 1_555 1_555
C20_3 C8_3 1_555 1_555
H15_3 C20_3 1_555 1_555
H16_3 C20_3 1_555 1_555
C21_3 C18_3 1_555 1_555
C22_3 C21_3 1_555 1_555
C23_3 C22_3 1_555 1_555
H17_3 C23_3 1_555 1_555
C24_3 C23_3 1_555 1_555
H18_3 C24_3 1_555 1_555
C25_6 C24_3 1_555 1_555
C27_3 C22_3 1_555 1_555
C29_3 C21_3 1_555 1_555
H21_3 C29_3 1_555 1_555
H22_3 C29_3 1_555 1_555
C30_3 C8_3 1_555 1_555
H23_3 C30_3 1_555 1_555
H24_3 C30_3 1_555 1_555
C31_3 C19_3 1_555 1_555
C32_3 C31_3 1_555 1_555
C33_3 C32_3 1_555 1_555
H25_3 C33_3 1_555 1_555
H27_3 C36_3 1_555 1_555
C37_3 C32_3 1_555 1_555
H28_3 C37_3 1_555 1_555
N2_2 C17_3 1_555 1_555
Ag4_2 N2_2 1_555 1_555
C15_3 C16_3 1_555 1_555
C20_3 C21_3 1_555 1_555
C29_3 C31_3 1_555 1_555
C30_3 C31_3 1_555 1_555
C36_3 C37_3 1_555 1_555
C2_4 C3_4 1_555 1_555
C3_4 H1_4 1_555 1_555
C4_7 C3_4 1_555 1_555
H2_4 C4_7 1_555 1_555
C26_4 C25_7 1_555 1_555
H19_4 C26_4 1_555 1_555
C28_4 C25_7 1_555 1_555
N3_2 C28_4 1_555 1_555
Ag4_2 N3_2 1_555 1_555
N1_4 C1_4 1_555 1_555
Ag4_2 N1_4 1_555 1_555
N7_2 Ag4_2 1_555 1_555
H4_4 C7_4 1_555 1_555
H26_4 C34_4 1_555 1_555
C35_4 C34_4 1_555 1_555
C38_4 C35_4 1_555 1_555
N7_2 C38_4 1_555 1_555
C5_4 C4_8 1_555 1_555
C6_4 C5_4 1_555 1_555
C8_4 C5_4 1_555 1_555
C9_4 C8_4 1_555 1_555
H5_4 C9_4 1_555 1_555
H6_4 C9_4 1_555 1_555
C10_4 C9_4 1_555 1_555
C11_4 C10_4 1_555 1_555
C12_4 C11_4 1_555 1_555
H7_4 C12_4 1_555 1_555
C13_4 C12_4 1_555 1_555
H8_4 C13_4 1_555 1_555
C14_4 C13_4 1_555 1_555
C15_4 C14_4 1_555 1_555
H9_4 C15_4 1_555 1_555
C16_4 C11_4 1_555 1_555
H10_4 C16_4 1_555 1_555
C17_4 C14_4 1_555 1_555
C18_4 C10_4 1_555 1_555
H11_4 C18_4 1_555 1_555
H12_4 C18_4 1_555 1_555
C19_4 C10_4 1_555 1_555
H13_4 C19_4 1_555 1_555
H14_4 C19_4 1_555 1_555
C20_4 C8_4 1_555 1_555
H15_4 C20_4 1_555 1_555
H16_4 C20_4 1_555 1_555
C21_4 C18_4 1_555 1_555
C22_4 C21_4 1_555 1_555
C23_4 C22_4 1_555 1_555
H17_4 C23_4 1_555 1_555
C24_4 C23_4 1_555 1_555
H18_4 C24_4 1_555 1_555
C25_8 C24_4 1_555 1_555
C27_4 C22_4 1_555 1_555
C29_4 C21_4 1_555 1_555
H21_4 C29_4 1_555 1_555
H22_4 C29_4 1_555 1_555
C30_4 C8_4 1_555 1_555
H23_4 C30_4 1_555 1_555
H24_4 C30_4 1_555 1_555
C31_4 C19_4 1_555 1_555
C32_4 C31_4 1_555 1_555
C33_4 C32_4 1_555 1_555
H25_4 C33_4 1_555 1_555
H27_4 C36_4 1_555 1_555
C37_4 C32_4 1_555 1_555
H28_4 C37_4 1_555 1_555
N5_2 C17_4 1_555 1_555
C15_4 C16_4 1_555 1_555
C20_4 C21_4 1_555 1_555
C29_4 C31_4 1_555 1_555
C30_4 C31_4 1_555 1_555
C36_4 C37_4 1_555 1_555
C3_5 H1_5 1_555 1_555
C4_9 C3_5 1_555 1_555
H2_5 C4_9 1_555 1_555
C5_5 C4_9 1_555 1_555
C6_5 C5_5 1_555 1_555
C8_5 C5_5 1_555 1_555
C9_5 C8_5 1_555 1_555
H5_5 C9_5 1_555 1_555
H6_5 C9_5 1_555 1_555
C10_5 C9_5 1_555 1_555
C11_5 C10_5 1_555 1_555
C12_5 C11_5 1_555 1_555
H7_5 C12_5 1_555 1_555
C13_5 C12_5 1_555 1_555
H8_5 C13_5 1_555 1_555
C16_5 C11_5 1_555 1_555
H10_5 C16_5 1_555 1_555
C18_5 C10_5 1_555 1_555
H11_5 C18_5 1_555 1_555
H12_5 C18_5 1_555 1_555
C19_5 C10_5 1_555 1_555
H13_5 C19_5 1_555 1_555
H14_5 C19_5 1_555 1_555
C20_5 C8_5 1_555 1_555
H15_5 C20_5 1_555 1_555
H16_5 C20_5 1_555 1_555
C21_5 C18_5 1_555 1_555
C22_5 C21_5 1_555 1_555
C23_5 C22_5 1_555 1_555
H17_5 C23_5 1_555 1_555
C24_5 C23_5 1_555 1_555
H18_5 C24_5 1_555 1_555
C25_9 C24_5 1_555 1_555
C26_5 C25_9 1_555 1_555
H19_5 C26_5 1_555 1_555
C27_5 C22_5 1_555 1_555
H20_5 C27_5 1_555 1_555
C28_5 C25_9 1_555 1_555
C29_5 C21_5 1_555 1_555
H21_5 C29_5 1_555 1_555
H22_5 C29_5 1_555 1_555
C30_5 C8_5 1_555 1_555
H23_5 C30_5 1_555 1_555
H24_5 C30_5 1_555 1_555
C31_5 C19_5 1_555 1_555
C32_5 C31_5 1_555 1_555
C33_5 C32_5 1_555 1_555
H25_5 C33_5 1_555 1_555
H27_5 C36_5 1_555 1_555
C37_5 C32_5 1_555 1_555
H28_5 C37_5 1_555 1_555
N3_3 C28_5 1_555 1_555
Ag3 N3_3 1_555 1_555
C15_5 C16_5 1_555 1_555
C20_5 C21_5 1_555 1_555
C26_5 C27_5 1_555 1_555
C29_5 C31_5 1_555 1_555
C30_5 C31_5 1_555 1_555
C36_5 C37_5 1_555 1_555
C17_5 C14_5 1_555 1_555
N2_3 C17_5 1_555 1_555
Ag4_3 N2_3 1_555 1_555
H26_5 C34_5 1_555 1_555
C35_5 C34_5 1_555 1_555
C38_5 C35_5 1_555 1_555
N4_3 C38_5 1_555 1_555
Ag3 N4_3 1_555 1_555
N1_5 C1_5 1_555 1_555
Ag3 N1_5 1_555 1_555
N5_3 Ag3 1_555 1_555
N1_6 C1_6 1_555 1_555
Ag4_3 N1_6 1_555 1_555
N6_3 Ag4_3 1_555 1_555
N7_3 Ag4_3 1_555 1_555
H26_6 C34_6 1_555 1_555
C35_6 C34_6 1_555 1_555
C38_6 C35_6 1_555 1_555
N7_3 C38_6 1_555 1_555
C3_6 H1_6 1_555 1_555
C4_10 C3_6 1_555 1_555
H2_6 C4_10 1_555 1_555
C5_6 C4_10 1_555 1_555
C6_6 C5_6 1_555 1_555
C8_6 C5_6 1_555 1_555
C9_6 C8_6 1_555 1_555
H5_6 C9_6 1_555 1_555
H6_6 C9_6 1_555 1_555
C10_6 C9_6 1_555 1_555
C11_6 C10_6 1_555 1_555
C12_6 C11_6 1_555 1_555
H7_6 C12_6 1_555 1_555
C13_6 C12_6 1_555 1_555
H8_6 C13_6 1_555 1_555
C14_6 C13_6 1_555 1_555
C15_6 C14_6 1_555 1_555
H9_6 C15_6 1_555 1_555
C16_6 C11_6 1_555 1_555
H10_6 C16_6 1_555 1_555
C17_6 C14_6 1_555 1_555
C18_6 C10_6 1_555 1_555
H11_6 C18_6 1_555 1_555
H12_6 C18_6 1_555 1_555
C19_6 C10_6 1_555 1_555
H13_6 C19_6 1_555 1_555
H14_6 C19_6 1_555 1_555
C20_6 C8_6 1_555 1_555
H15_6 C20_6 1_555 1_555
H16_6 C20_6 1_555 1_555
C21_6 C18_6 1_555 1_555
C22_6 C21_6 1_555 1_555
C23_6 C22_6 1_555 1_555
H17_6 C23_6 1_555 1_555
C24_6 C23_6 1_555 1_555
H18_6 C24_6 1_555 1_555
C25_10 C24_6 1_555 1_555
C26_6 C25_10 1_555 1_555
H19_6 C26_6 1_555 1_555
C27_6 C22_6 1_555 1_555
H20_6 C27_6 1_555 1_555
C28_6 C25_10 1_555 1_555
C29_6 C21_6 1_555 1_555
H21_6 C29_6 1_555 1_555
H22_6 C29_6 1_555 1_555
C30_6 C8_6 1_555 1_555
H23_6 C30_6 1_555 1_555
H24_6 C30_6 1_555 1_555
C31_6 C19_6 1_555 1_555
C32_6 C31_6 1_555 1_555
C33_6 C32_6 1_555 1_555
H25_6 C33_6 1_555 1_555
H27_6 C36_6 1_555 1_555
C37_6 C32_6 1_555 1_555
H28_6 C37_6 1_555 1_555
N5_3 C17_6 1_555 1_555
N6_3 C28_6 1_555 1_555
C15_6 C16_6 1_555 1_555
C20_6 C21_6 1_555 1_555
C26_6 C27_6 1_555 1_555
C29_6 C31_6 1_555 1_555
C30_6 C31_6 1_555 1_555
C36_6 C37_6 1_555 1_555

#END
