
###############################################################################
#
# This file contains modified crystal structure data generated from the
# MOF subset of the Cambridge Structural Database (CSD) v543 
# hosted by the Cambridge Crystallographic Data Centre (CCDC).
#
# This work is licensed under the Creative Commons
# Attribution-NonCommercial-ShareAlike 4.0 International License.
# To view a copy of this license, visit
# http://creativecommons.org/licenses/by-nc-sa/4.0/
# or send a letter to
# Creative Commons, PO Box 1866, Mountain View, CA 94042, USA.
#
# CIF created using the CSD Python API on 29 September 2022
# The structure has been converted into the P1 space group
# The structure has a 3D framework
# The original CSD entry FAJYAS is in the monoclinic crystal system
# The framework has been calculated to contain at least 10.0% void space
# The void calculation uses a probe of radius 1.32A, grid spacing 0.4
# H atom positions have been added when not included in the experimental data
#
###############################################################################

data_FAJYAS
_chemical_formula_moiety         '(C252 H180 Co11 N28 O82)n'
_symmetry_cell_setting           triclinic
_symmetry_space_group_name_H-M   'P 1'
_symmetry_Int_Tables_number      1
_space_group_name_Hall           'P 1'
loop_
_symmetry_equiv_pos_site_id
_symmetry_equiv_pos_as_xyz
1 x,y,z
_cell_length_a                   13.8773(6)
_cell_length_b                   21.6080(8)
_cell_length_c                   34.9221(14)
_cell_angle_alpha                90
_cell_angle_beta                 96.2360(10)
_cell_angle_gamma                90
_cell_volume                     10409.8
loop_
_atom_site_label
_atom_site_type_symbol
_atom_site_fract_x
_atom_site_fract_y
_atom_site_fract_z
C17 C 0.0253(4) 0.0275(2) 0.72781(14)
O16 O 0.1049(3) 0.05471(18) 0.72599(10)
C57 C 0.0226(4) 0.0336(3) 0.83571(15)
H34 H 0.0663 0.0438 0.8577
C60 C 0.0521(4) 0.0375(3) 0.79872(17)
H36 H 0.1159 0.0511 0.7957
Co5 Co 0.02164(6) 0.00654(3) 0.648653(18)
Co7 Co 0.20022(5) 0.08416(3) 0.687812(17)
Co1 Co 0.52164(6) 0.49346(3) 0.148653(18)
Co2 Co 0.70022(5) 0.41584(3) 0.187812(17)
O2 O 0.4988(2) 0.06932(13) 0.09031(8)
O3 O 0.8516(2) 0.08870(14) 0.07321(9)
O4 O 0.6629(3) 0.48847(12) 0.14948(8)
O8 O 0.4756(3) 0.41388(16) 0.12609(11)
N3 N 0.4012(3) 0.14043(16) 0.05936(10)
H6 H 0.3526 0.1447 0.0411
C7 C 0.4019(3) 0.03746(18) 0.03456(10)
N5 N 0.8839(3) 0.16485(17) 0.03283(11)
H8 H 0.9063 0.1727 0.0107
C9 C 0.4376(3) 0.08354(17) 0.06441(11)
C10 C 0.8721(3) 0.1051(2) 0.04169(12)
O13 O 0.5960(4) 0.36065(17) 0.15943(12)
C13 C 0.8806(3) 0.0572(2) 0.01037(12)
O15 O 0.7391(3) 0.3435(2) 0.22634(11)
C18 C 0.4319(3) 0.19506(19) 0.08011(13)
C23 C 0.8635(4) 0.2173(2) 0.05583(13)
O19 O 0.7974(4) 0.37608(19) 0.15334(10)
C32 C 0.4884(4) 0.3045(2) 0.11698(13)
C33 C 0.5198(5) 0.3655(3) 0.13648(15)
O20 O 0.7399(5) 0.4198(2) 0.09641(13)
C41 C 0.8151(5) 0.3220(3) 0.09569(15)
C43 C 0.4007(4) 0.3004(2) 0.09566(16)
H21 H 0.3595 0.3356 0.0932
C44 C 0.8364(5) 0.2708(2) 0.03647(16)
H22 H 0.8347 0.2724 0.0092
C45 C 0.8601(5) 0.2160(3) 0.09510(15)
H23 H 0.8738 0.1785 0.1088
C46 C 0.3702(4) 0.2456(2) 0.07748(16)
H24 H 0.3078 0.2428 0.0634
C47 C 0.8372(5) 0.2682(2) 0.11458(15)
H25 H 0.8369 0.2667 0.1417
C49 C 0.5218(4) 0.1989(2) 0.10124(16)
H27 H 0.5647 0.1645 0.1033
C50 C 0.5472(4) 0.2540(2) 0.11920(16)
H28 H 0.6089 0.2569 0.1339
C55 C 0.8118(5) 0.3223(3) 0.05661(16)
H32 H 0.7920 0.3589 0.0429
C58 C 0.7818(7) 0.3770(3) 0.11767(19)
N7 N 0.7035(8) 0.2530(3) 0.2563(2)
C61 C 0.6956(11) 0.3000(4) 0.2298(3)
C62 C 0.6287(12) 0.2030(5) 0.2596(3)
H37 H 0.5719 0.2110 0.2411
H38 H 0.6092 0.2029 0.2858
H39 H 0.6565 0.1626 0.2542
C63 C 0.7896(11) 0.2553(9) 0.2797(5)
H40 H 0.8282 0.2903 0.2722
H41 H 0.8256 0.2168 0.2772
H42 H 0.7765 0.2605 0.3066
Co8 Co 0.72829(6) 0.56851(3) 0.162255(19)
O24 O 0.4753(3) 0.49616(13) 0.19968(8)
O25 O 0.8048(2) 0.46783(15) 0.22048(8)
O26 O 0.4685(3) 0.56575(15) 0.11886(10)
O27 O 0.6049(3) 0.44529(18) 0.22599(10)
H45 H 0.635018 0.294282 0.207508
O1 O 0.3987(2) 0.07344(12) 0.91691(7)
O5 O 0.9997(2) 0.08011(15) 0.90750(8)
C2 C 0.3865(3) 0.05263(18) 0.99544(10)
H3 H 0.3916 0.0945 0.9876
C3 C 0.3551(3) 0.02774(17) 0.92650(10)
O9 O 0.9753(3) 0.00384(13) 0.69968(8)
O11 O 0.3048(2) 0.03217(15) 0.72048(8)
C5 C 0.3637(3) 0.00710(16) 0.96796(11)
N6 N 0.8979(3) 0.00898(18) 0.87674(11)
C8 C 0.9021(3) 0.07184(19) 0.97319(11)
H10 H 0.9180 0.1131 0.9668
C21 C 0.8998(3) 0.0249(2) 0.94562(12)
C27 C 0.9912(4) 0.0223(2) 0.76706(14)
C28 C 0.3201(4) 0.0435(2) 0.83931(12)
H14 H 0.3400 0.0810 0.8520
C29 C 0.3170(4) 0.0398(2) 0.80063(13)
H15 H 0.3368 0.0745 0.7867
C34 C 0.9363(3) 0.0407(2) 0.90812(12)
C36 C 0.9306(3) 0.0151(2) 0.83987(13)
C38 C 0.9000(4) 0.0022(2) 0.77200(15)
C1 C 0.3744(3) 0.92969(17) 0.01828(10)
O6 O 0.3141(3) 0.82783(14) 0.01156(9)
N2 N 0.4379(3) 0.84564(14) 0.05840(9)
H2 H 0.4772 0.8749 0.0682
C4 C 0.3960(3) 0.97555(17) 0.04519(11)
H4 H 0.4070 0.9647 0.0717
N4 N 0.8578(3) 0.86769(17) 0.03824(11)
H7 H 0.8950 0.8934 0.0527
C11 C 0.5321(4) 0.7797(2) 0.10290(13)
H11 H 0.5746 0.8136 0.1090
O14 O 0.5812(3) 0.60866(16) 0.15966(9)
C12 C 0.8617(3) 0.9972(2) 0.01966(13)
H12 H 0.8511 0.9877 0.0454
C14 C 0.8331(3) 0.8859(2) 0.00135(12)
C19 C 0.4519(3) 0.78717(19) 0.07545(12)
C22 C 0.3709(3) 0.86351(18) 0.02842(11)
C24 C 0.5146(4) 0.6126(2) 0.13202(13)
O17 O 0.7344(3) 0.60620(17) 0.10299(10)
O18 O 0.7811(3) 0.65538(18) 0.15570(11)
C26 C 0.5502(4) 0.7244(2) 0.12106(14)
H13 H 0.6048 0.7209 0.1398
C31 C 0.4091(4) 0.6820(2) 0.08637(16)
H17 H 0.3649 0.6487 0.0813
C35 C 0.8319(3) 0.8131(2) 0.05643(13)
C39 C 0.4918(4) 0.6735(2) 0.11303(13)
C42 C 0.7910(4) 0.7086(3) 0.09687(15)
C48 C 0.8281(6) 0.7607(3) 0.11467(17)
H26 H 0.8396 0.7615 0.1420
C51 C 0.3911(4) 0.7372(2) 0.06765(15)
H29 H 0.3361 0.7412 0.0491
C52 C 0.7687(5) 0.6533(3) 0.11934(16)
C53 C 0.8489(6) 0.8109(3) 0.09450(17)
H30 H 0.8766 0.8460 0.1079
C54 C 0.7965(6) 0.7626(3) 0.03787(18)
H31 H 0.7846 0.7628 0.0106
C59 C 0.7771(6) 0.7097(3) 0.05823(17)
H35 H 0.7537 0.6737 0.0446
O21 O 0.8714(4) 0.5317(3) 0.15525(16)
O23 O 0.7428(3) 0.56356(15) 0.22079(9)
H43 H 0.911611 0.56461 0.145088
H44 H 0.902888 0.51725 0.180565
N1 N 0.2970(2) 0.99213(14) 0.90090(9)
H1 H 0.2574 0.9661 0.9107
O7 O 0.2428(3) 0.93644(15) 0.72079(9)
O10 O 0.7917(2) 0.85075(13) 0.97689(9)
C6 C 0.3577(3) 0.94668(16) 0.97901(10)
H5 H 0.3420 0.9157 0.9601
H9 H 0.8500 0.9832 0.8794
C15 C 0.2947(3) 0.99327(18) 0.86084(11)
C16 C 0.8575(3) 0.9496(2) 0.99264(12)
C20 C 0.2853(4) 0.9861(2) 0.78049(12)
C25 C 0.2784(4) 0.9839(2) 0.73725(14)
C30 C 0.8749(3) 0.9648(2) 0.95462(12)
H16 H 0.8696 0.9339 0.9352
C37 C 0.2622(4) 0.9395(2) 0.84126(12)
H18 H 0.2436 0.9048 0.8554
H19 H 0.8571 0.9901 0.7502
C40 C 0.2569(4) 0.9365(2) 0.80128(14)
H20 H 0.2336 0.8999 0.7883
C56 C 0.8693(4) 0.9993(3) 0.80810(15)
H33 H 0.8051 0.9861 0.8110
Co9 Co 0.22829(6) 0.93149(3) 0.662255(19)
O22 O 0.1629(3) 0.01153(12) 0.64948(8)
O3_2 O 0.3516(2) 0.41130(14) 0.57321(9)
O5_2 O 0.4997(2) 0.41989(15) 0.40750(8)
O10_2 O 0.2917(2) 0.64925(13) 0.47689(9)
N4_2 N 0.3578(3) 0.63231(17) 0.53824(11)
H7_2 H 0.3950 0.6066 0.5527
N5_2 N 0.3839(3) 0.33515(17) 0.53283(11)
H8_2 H 0.4063 0.3273 0.5107
N6_2 N 0.3979(3) 0.49102(18) 0.37674(11)
H9_2 H 0.3500 0.5168 0.3794
C8_2 C 0.4021(3) 0.42816(19) 0.47319(11)
H10_2 H 0.4180 0.3869 0.4668
C10_2 C 0.3721(3) 0.3949(2) 0.54169(12)
O13_2 O 0.0960(4) 0.13935(17) 0.65943(12)
C11_2 C 0.0321(4) 0.7203(2) 0.60290(13)
H11_2 H 0.0746 0.6864 0.6090
O14_2 O 0.0812(3) 0.89134(16) 0.65966(9)
C12_2 C 0.3617(3) 0.5028(2) 0.51966(13)
H12_2 H 0.3511 0.5123 0.5454
C13_2 C 0.3806(3) 0.4428(2) 0.51037(12)
C14_2 C 0.3331(3) 0.6141(2) 0.50135(12)
C16_2 C 0.3575(3) 0.5504(2) 0.49264(12)
O15_2 O 0.2391(3) 0.1565(2) 0.72634(11)
C17_2 C 0.5253(4) 0.4725(2) 0.22781(14)
C21_2 C 0.3998(3) 0.4751(2) 0.44562(12)
C23_2 C 0.3635(4) 0.2827(2) 0.55583(13)
C24_2 C 0.0146(4) 0.8874(2) 0.63202(13)
O17_2 O 0.2344(3) 0.89380(17) 0.60299(10)
O18_2 O 0.2811(3) 0.84462(18) 0.65570(11)
C26_2 C 0.0502(4) 0.7756(2) 0.62106(14)
H13_2 H 0.1048 0.7791 0.6398
C27_2 C 0.4912(4) 0.4777(2) 0.26706(14)
C30_2 C 0.3749(3) 0.5352(2) 0.45462(12)
H16_2 H 0.3696 0.5661 0.4352
O19_2 O 0.2974(4) 0.12392(19) 0.65334(10)
C33_2 C 0.0198(5) 0.1345(3) 0.63648(15)
C34_2 C 0.4363(3) 0.4593(2) 0.40812(12)
C35_2 C 0.3319(3) 0.6869(2) 0.55643(13)
C36_2 C 0.4306(3) 0.4849(2) 0.33987(13)
C38_2 C 0.4000(4) 0.4978(2) 0.27200(15)
H19_2 H 0.3571 0.5099 0.2502
O20_2 O 0.2399(5) 0.0802(2) 0.59641(13)
C41_2 C 0.3151(5) 0.1780(3) 0.59569(15)
C42_2 C 0.2910(4) 0.7914(3) 0.59687(15)
C44_2 C 0.3364(5) 0.2292(2) 0.53647(16)
H22_2 H 0.3347 0.2276 0.5092
C45_2 C 0.3601(5) 0.2840(3) 0.59510(15)
H23_2 H 0.3738 0.3215 0.6088
C47_2 C 0.3372(5) 0.2318(2) 0.61458(15)
H25_2 H 0.3369 0.2333 0.6417
C48_2 C 0.3281(6) 0.7393(3) 0.61467(17)
H26_2 H 0.3396 0.7385 0.6420
C49_2 C 0.0218(4) 0.3011(2) 0.60124(16)
H27_2 H 0.0647 0.3355 0.6033
C50_2 C 0.0472(4) 0.2460(2) 0.61920(16)
H28_2 H 0.1089 0.2431 0.6339
C52_2 C 0.2687(5) 0.8467(3) 0.61934(16)
C53_2 C 0.3489(6) 0.6891(3) 0.59450(17)
H30_2 H 0.3766 0.6540 0.6079
C54_2 C 0.2965(6) 0.7374(3) 0.53787(18)
H31_2 H 0.2846 0.7372 0.5106
C55_2 C 0.3118(5) 0.1777(3) 0.55661(16)
H32_2 H 0.2920 0.1411 0.5429
C56_2 C 0.3693(4) 0.5007(3) 0.30810(15)
H33_2 H 0.3051 0.5139 0.3110
C57_2 C 0.5226(4) 0.4664(3) 0.33571(15)
H34_2 H 0.5663 0.4562 0.3577
C58_2 C 0.2818(7) 0.1230(3) 0.61767(19)
C59_2 C 0.2771(6) 0.7903(3) 0.55823(17)
H35_2 H 0.2537 0.8263 0.5446
C60_2 C 0.5521(4) 0.4625(3) 0.29872(17)
H36_2 H 0.6159 0.4489 0.2957
N7_2 N 0.2035(8) 0.2470(3) 0.7563(2)
C61_2 C 0.1956(11) 0.2000(4) 0.7298(3)
C62_2 C 0.1287(12) 0.2970(5) 0.7596(3)
H37_2 H 0.0719 0.2890 0.7411
H38_2 H 0.1092 0.2971 0.7858
H39_2 H 0.1565 0.3374 0.7542
C63_2 C 0.2896(11) 0.2447(9) 0.7797(5)
H40_2 H 0.3282 0.2097 0.7722
H41_2 H 0.3256 0.2832 0.7772
H42_2 H 0.2765 0.2395 0.8066
O21_2 O 0.3714(4) 0.9683(3) 0.65525(16)
H43_2 H 0.411611 0.93539 0.645088
H44_2 H 0.402888 0.98275 0.680565
H45_2 H 0.135018 0.205718 0.707508
O1_2 O 0.8987(2) 0.42656(12) 0.41691(7)
O2_2 O 0.9988(2) 0.43068(13) 0.59031(8)
N1_2 N 0.7970(2) 0.50787(14) 0.40090(9)
H1_2 H 0.7574 0.5339 0.4107
C1_2 C 0.8744(3) 0.57031(17) 0.51828(10)
O6_2 O 0.8141(3) 0.67217(14) 0.51156(9)
N2_2 N 0.9379(3) 0.65436(14) 0.55840(9)
H2_2 H 0.9772 0.6251 0.5682
O8_2 O 0.9756(3) 0.08612(16) 0.62609(11)
C2_2 C 0.8865(3) 0.44737(18) 0.49544(10)
H3_2 H 0.8916 0.4055 0.4876
C3_2 C 0.8551(3) 0.47226(17) 0.42650(10)
C4_2 C 0.8960(3) 0.52445(17) 0.54519(11)
H4_2 H 0.9070 0.5353 0.5717
O12 O 0.9685(3) 0.93425(15) 0.61886(10)
C5_2 C 0.8637(3) 0.49290(16) 0.46796(11)
C6_2 C 0.8577(3) 0.55332(16) 0.47901(10)
H5_2 H 0.8420 0.5843 0.4601
N3_2 N 0.9012(3) 0.35957(16) 0.55936(10)
H6_2 H 0.8526 0.3553 0.5411
C7_2 C 0.9019(3) 0.46254(18) 0.53456(10)
C9_2 C 0.9376(3) 0.41646(17) 0.56441(11)
C15_2 C 0.7947(3) 0.50673(18) 0.36084(11)
C18_2 C 0.9319(3) 0.30494(19) 0.58011(13)
C19_2 C 0.9519(3) 0.71283(19) 0.57545(12)
C20_2 C 0.7853(4) 0.5139(2) 0.28049(12)
C22_2 C 0.8709(3) 0.63649(18) 0.52842(11)
C25_2 C 0.7784(4) 0.5161(2) 0.23725(14)
C28_2 C 0.8201(4) 0.4565(2) 0.33931(12)
H14_2 H 0.8400 0.4190 0.3520
C29_2 C 0.8170(4) 0.4602(2) 0.30063(13)
H15_2 H 0.8368 0.4255 0.2867
C31_2 C 0.9091(4) 0.8180(2) 0.58637(16)
H17_2 H 0.8649 0.8513 0.5813
C32_2 C 0.9884(4) 0.1955(2) 0.61698(13)
C37_2 C 0.7622(4) 0.5605(2) 0.34126(12)
H18_2 H 0.7436 0.5952 0.3554
C39_2 C 0.9918(4) 0.8265(2) 0.61303(13)
C40_2 C 0.7569(4) 0.5635(2) 0.30128(14)
H20_2 H 0.7336 0.6001 0.2883
C43_2 C 0.9007(4) 0.1996(2) 0.59566(16)
H21_2 H 0.8595 0.1644 0.5932
C46_2 C 0.8702(4) 0.2544(2) 0.57748(16)
H24_2 H 0.8078 0.2572 0.5634
C51_2 C 0.8911(4) 0.7628(2) 0.56765(15)
H29_2 H 0.8361 0.7588 0.5491
O26_2 O 0.0315(3) 0.06575(15) 0.38114(10)
O1_3 O 0.1013(2) 0.57344(12) 0.58309(7)
O2_3 O 0.0012(2) 0.56932(13) 0.40969(8)
N1_3 N 0.2030(2) 0.49213(14) 0.59910(9)
H1_3 H 0.2426 0.4661 0.5893
C1_3 C 0.1256(3) 0.42969(17) 0.48172(10)
O6_3 O 0.1859(3) 0.32783(14) 0.48844(9)
N2_3 N 0.0621(3) 0.34564(14) 0.44160(9)
H2_3 H 0.0228 0.3749 0.4318
O7_2 O 0.2572(3) 0.43644(15) 0.77921(9)
O8_3 O 0.0244(3) 0.91388(16) 0.37391(11)
C2_3 C 0.1135(3) 0.55263(18) 0.50456(10)
H3_3 H 0.1084 0.5945 0.5124
C3_3 C 0.1449(3) 0.52774(17) 0.57350(10)
O11_2 O 0.1952(2) 0.53217(15) 0.77952(8)
C4_3 C 0.1040(3) 0.47555(17) 0.45481(11)
H4_3 H 0.0930 0.4647 0.4283
C5_3 C 0.1363(3) 0.50710(16) 0.53204(11)
C6_3 C 0.1423(3) 0.44668(16) 0.52099(10)
H5_3 H 0.1580 0.4157 0.5399
N3_3 N 0.0988(3) 0.64043(16) 0.44064(10)
H6_3 H 0.1474 0.6447 0.4589
C7_3 C 0.0981(3) 0.53746(18) 0.46544(10)
C9_3 C 0.0624(3) 0.58354(17) 0.43559(11)
C15_3 C 0.2053(3) 0.49327(18) 0.63916(11)
C18_3 C 0.0681(3) 0.69506(19) 0.41989(13)
C19_3 C 0.0481(3) 0.28717(19) 0.42455(12)
C20_3 C 0.2147(4) 0.4861(2) 0.71951(12)
C22_3 C 0.1291(3) 0.36351(18) 0.47158(11)
C25_3 C 0.2216(4) 0.4839(2) 0.76275(14)
C28_3 C 0.1799(4) 0.5435(2) 0.66069(12)
H14_3 H 0.1600 0.5810 0.6480
C29_3 C 0.1830(4) 0.5398(2) 0.69937(13)
H15_3 H 0.1632 0.5745 0.7133
C31_3 C 0.0909(4) 0.1820(2) 0.41363(16)
H17_3 H 0.1351 0.1487 0.4187
C32_3 C 0.0116(4) 0.8045(2) 0.38302(13)
C37_3 C 0.2378(4) 0.4395(2) 0.65874(12)
H18_3 H 0.2564 0.4048 0.6446
C39_3 C 0.0082(4) 0.1735(2) 0.38697(13)
C40_3 C 0.2431(4) 0.4365(2) 0.69872(14)
H20_3 H 0.2664 0.3999 0.7117
C43_3 C 0.0993(4) 0.8004(2) 0.40434(16)
H21_3 H 0.1405 0.8356 0.4068
C46_3 C 0.1298(4) 0.7456(2) 0.42252(16)
H24_3 H 0.1922 0.7428 0.4366
C51_3 C 0.1089(4) 0.2372(2) 0.43235(15)
H29_3 H 0.1639 0.2412 0.4509
Co6 Co 0.29978(5) 0.58416(3) 0.812188(17)
Co9_2 Co 0.27171(6) 0.43149(3) 0.837745(19)
O24_2 O 0.0247(3) 0.99616(13) 0.30032(8)
Co8_2 Co 0.77171(6) 0.06851(3) 0.337745(19)
Co1_2 Co 0.97836(6) 0.99346(3) 0.351347(18)
Co2_2 Co 0.79978(5) 0.91584(3) 0.312188(17)
O3_3 O 0.6484(2) 0.58870(14) 0.42679(9)
O4_2 O 0.8371(3) 0.98847(12) 0.35052(8)
O5_3 O 0.5003(2) 0.58011(15) 0.59250(8)
O9_2 O 0.5247(3) 0.50384(13) 0.80032(8)
O10_3 O 0.7083(2) 0.35075(13) 0.52311(9)
N4_3 N 0.6422(3) 0.36769(17) 0.46176(11)
H7_3 H 0.6050 0.3934 0.4473
N5_3 N 0.6161(3) 0.66485(17) 0.46717(11)
H8_3 H 0.5937 0.6727 0.4893
N6_3 N 0.6021(3) 0.50898(18) 0.62326(11)
H9_3 H 0.6500 0.4832 0.6206
C8_3 C 0.5979(3) 0.57184(19) 0.52681(11)
H10_3 H 0.5820 0.6131 0.5332
C10_3 C 0.6279(3) 0.6051(2) 0.45831(12)
O13_3 O 0.9040(4) 0.86065(17) 0.34057(12)
C11_3 C 0.9679(4) 0.2797(2) 0.39710(13)
H11_3 H 0.9254 0.3136 0.3910
O14_3 O 0.9188(3) 0.10866(16) 0.34034(9)
C12_3 C 0.6383(3) 0.4972(2) 0.48034(13)
H12_3 H 0.6489 0.4877 0.4546
C13_3 C 0.6194(3) 0.5572(2) 0.48963(12)
C14_3 C 0.6669(3) 0.3859(2) 0.49865(12)
C16_3 C 0.6425(3) 0.4496(2) 0.50736(12)
O15_3 O 0.7609(3) 0.8435(2) 0.27366(11)
C17_3 C 0.4747(4) 0.5275(2) 0.77219(14)
C21_3 C 0.6002(3) 0.5249(2) 0.55438(12)
O16_2 O 0.3951(3) 0.55471(18) 0.77401(10)
C23_3 C 0.6365(4) 0.7173(2) 0.44417(13)
C24_3 C 0.9854(4) 0.1126(2) 0.36798(13)
O17_3 O 0.7656(3) 0.10620(17) 0.39701(10)
O18_3 O 0.7189(3) 0.15538(18) 0.34430(11)
C26_3 C 0.9498(4) 0.2244(2) 0.37894(14)
H13_3 H 0.8952 0.2209 0.3602
C27_3 C 0.5088(4) 0.5223(2) 0.73294(14)
C30_3 C 0.6251(3) 0.4648(2) 0.54538(12)
H16_3 H 0.6304 0.4339 0.5648
O19_3 O 0.7026(4) 0.87608(19) 0.34666(10)
C33_3 C 0.9802(5) 0.8655(3) 0.36352(15)
C34_3 C 0.5637(3) 0.5407(2) 0.59188(12)
C35_3 C 0.6681(3) 0.3131(2) 0.44357(13)
C36_3 C 0.5694(3) 0.5151(2) 0.66013(13)
C38_3 C 0.6000(4) 0.5022(2) 0.72800(15)
H19_3 H 0.6429 0.4901 0.7498
O20_3 O 0.7601(5) 0.9198(2) 0.40359(13)
C41_3 C 0.6849(5) 0.8220(3) 0.40431(15)
C42_3 C 0.7090(4) 0.2086(3) 0.40313(15)
C44_3 C 0.6636(5) 0.7708(2) 0.46353(16)
H22_3 H 0.6653 0.7724 0.4908
C45_3 C 0.6399(5) 0.7160(3) 0.40490(15)
H23_3 H 0.6262 0.6785 0.3912
C47_3 C 0.6628(5) 0.7682(2) 0.38542(15)
H25_3 H 0.6631 0.7667 0.3583
C48_3 C 0.6719(6) 0.2607(3) 0.38533(17)
H26_3 H 0.6604 0.2615 0.3580
C49_3 C 0.9782(4) 0.6989(2) 0.39876(16)
H27_3 H 0.9353 0.6645 0.3967
C50_3 C 0.9528(4) 0.7540(2) 0.38080(16)
H28_3 H 0.8911 0.7569 0.3661
C52_3 C 0.7313(5) 0.1533(3) 0.38066(16)
C53_3 C 0.6511(6) 0.3109(3) 0.40550(17)
H30_3 H 0.6234 0.3460 0.3921
C54_3 C 0.7035(6) 0.2626(3) 0.46213(18)
H31_3 H 0.7154 0.2628 0.4894
C55_3 C 0.6882(5) 0.8223(3) 0.44339(16)
H32_3 H 0.7080 0.8589 0.4571
C56_3 C 0.6307(4) 0.4993(3) 0.69190(15)
H33_3 H 0.6949 0.4861 0.6890
C57_3 C 0.4774(4) 0.5336(3) 0.66429(15)
H34_3 H 0.4337 0.5438 0.6423
C58_3 C 0.7182(7) 0.8770(3) 0.38233(19)
C59_3 C 0.7229(6) 0.2097(3) 0.44177(17)
H35_3 H 0.7463 0.1737 0.4554
C60_3 C 0.4479(4) 0.5375(3) 0.70128(17)
H36_3 H 0.3841 0.5511 0.7043
N7_3 N 0.7965(8) 0.7530(3) 0.2437(2)
C61_3 C 0.8044(11) 0.8000(4) 0.2702(3)
C62_3 C 0.8713(12) 0.7030(5) 0.2404(3)
H37_3 H 0.9281 0.7110 0.2589
H38_3 H 0.8908 0.7029 0.2142
H39_3 H 0.8435 0.6626 0.2458
C63_3 C 0.7104(11) 0.7553(9) 0.2203(5)
H40_3 H 0.6718 0.7903 0.2278
H41_3 H 0.6744 0.7168 0.2228
H42_3 H 0.7235 0.7605 0.1934
O21_3 O 0.6286(4) 0.0317(3) 0.34475(16)
Co5_2 Co 0.47836(6) 0.50654(3) 0.851347(18)
O23_2 O 0.7572(3) 0.06356(15) 0.27921(9)
O25_2 O 0.6952(2) 0.96783(15) 0.27952(8)
O27_2 O 0.8951(3) 0.94529(18) 0.27401(10)
H43_3 H 0.588389 0.06461 0.354912
H44_3 H 0.597112 0.0172499 0.319435
H45_3 H 0.864982 0.794282 0.292492
N1_4 N 0.7030(2) 0.00787(14) 0.09910(9)
H1_4 H 0.7426 0.0339 0.0893
O10_4 O 0.2083(2) 0.14925(13) 0.02311(9)
C6_4 C 0.6423(3) 0.05332(16) 0.02099(10)
H5_4 H 0.6580 0.0843 0.0399
H9_4 H 0.1500 0.0168 0.1206
C15_4 C 0.7053(3) 0.00673(18) 0.13916(11)
C16_4 C 0.1425(3) 0.0504(2) 0.00736(12)
C20_4 C 0.7147(4) 0.0139(2) 0.21951(12)
C25_4 C 0.7216(4) 0.0161(2) 0.26275(14)
C30_4 C 0.1251(3) 0.0352(2) 0.04538(12)
H16_4 H 0.1304 0.0661 0.0648
C37_4 C 0.7378(4) 0.0605(2) 0.15874(12)
H18_4 H 0.7564 0.0952 0.1446
H19_4 H 0.1429 0.0099 0.2498
C40_4 C 0.7431(4) 0.0635(2) 0.19872(14)
H20_4 H 0.7664 0.1001 0.2117
C56_4 C 0.1307(4) 0.0007(3) 0.19190(15)
H33_4 H 0.1949 0.0139 0.1890
C1_4 C 0.6256(3) 0.07031(17) 0.98172(10)
O6_4 O 0.6859(3) 0.17217(14) 0.98844(9)
N2_4 N 0.5621(3) 0.15436(14) 0.94160(9)
H2_4 H 0.5228 0.1251 0.9318
C4_4 C 0.6040(3) 0.02445(17) 0.95481(11)
H4_4 H 0.5930 0.0353 0.9283
O12_2 O 0.5315(3) 0.43425(15) 0.88114(10)
N4_4 N 0.1422(3) 0.13231(17) 0.96176(11)
H7_4 H 0.1050 0.1066 0.9473
C11_4 C 0.4679(4) 0.2203(2) 0.89710(13)
H11_4 H 0.4254 0.1864 0.8910
O14_4 O 0.4188(3) 0.39134(16) 0.84034(9)
C12_4 C 0.1383(3) 0.0028(2) 0.98034(13)
H12_4 H 0.1489 0.0123 0.9546
C14_4 C 0.1669(3) 0.1141(2) 0.99865(12)
C19_4 C 0.5481(3) 0.21283(19) 0.92455(12)
C22_4 C 0.6291(3) 0.13649(18) 0.97158(11)
C24_4 C 0.4854(4) 0.3874(2) 0.86798(13)
O17_4 O 0.2656(3) 0.39380(17) 0.89701(10)
O18_4 O 0.2189(3) 0.34462(18) 0.84430(11)
C26_4 C 0.4498(4) 0.2756(2) 0.87894(14)
H13_4 H 0.3952 0.2791 0.8602
C31_4 C 0.5909(4) 0.3180(2) 0.91363(16)
H17_4 H 0.6351 0.3513 0.9187
C35_4 C 0.1681(3) 0.1869(2) 0.94357(13)
C39_4 C 0.5082(4) 0.3265(2) 0.88697(13)
C42_4 C 0.2090(4) 0.2914(3) 0.90313(15)
C48_4 C 0.1719(6) 0.2393(3) 0.88533(17)
H26_4 H 0.1604 0.2385 0.8580
C51_4 C 0.6089(4) 0.2628(2) 0.93235(15)
H29_4 H 0.6639 0.2588 0.9509
C52_4 C 0.2313(5) 0.3467(3) 0.88066(16)
C53_4 C 0.1511(6) 0.1891(3) 0.90550(17)
H30_4 H 0.1234 0.1540 0.8921
C54_4 C 0.2035(6) 0.2374(3) 0.96213(18)
H31_4 H 0.2154 0.2372 0.9894
C59_4 C 0.2229(6) 0.2903(3) 0.94177(17)
H35_4 H 0.2463 0.3263 0.9554
O21_4 O 0.1286(4) 0.4683(3) 0.84475(16)
O22_2 O 0.3371(3) 0.51153(12) 0.85052(8)
H43_4 H 0.088389 0.43539 0.854912
H44_4 H 0.0971119 0.48275 0.819435
O1_4 O 0.6013(2) 0.92656(12) 0.08309(7)
O5_4 O 0.0003(2) 0.91989(15) 0.09250(8)
C2_4 C 0.6135(3) 0.94737(18) 0.00456(10)
H3_4 H 0.6084 0.9055 0.0124
C3_4 C 0.6449(3) 0.97226(17) 0.07350(10)
C5_4 C 0.6363(3) 0.99290(16) 0.03204(11)
N6_4 N 0.1021(3) 0.99102(18) 0.12326(11)
C8_4 C 0.0979(3) 0.92816(19) 0.02681(11)
H10_4 H 0.0820 0.8869 0.0332
C21_4 C 0.1002(3) 0.9751(2) 0.05438(12)
C27_4 C 0.0088(4) 0.9777(2) 0.23294(14)
C28_4 C 0.6799(4) 0.9565(2) 0.16069(12)
H14_4 H 0.6600 0.9190 0.1480
C29_4 C 0.6830(4) 0.9602(2) 0.19937(13)
H15_4 H 0.6632 0.9255 0.2133
C34_4 C 0.0637(3) 0.9593(2) 0.09188(12)
C36_4 C 0.0694(3) 0.9849(2) 0.16013(13)
C38_4 C 0.1000(4) 0.9978(2) 0.22800(15)
O2_4 O 0.5012(2) 0.93068(13) 0.90969(8)
O3_4 O 0.1484(2) 0.91130(14) 0.92679(9)
O8_4 O 0.5244(3) 0.58612(16) 0.87391(11)
N3_4 N 0.5988(3) 0.85957(16) 0.94064(10)
H6_4 H 0.6474 0.8553 0.9589
C7_4 C 0.5981(3) 0.96254(18) 0.96544(10)
N5_4 N 0.1161(3) 0.83515(17) 0.96717(11)
H8_4 H 0.0937 0.8273 0.9893
C9_4 C 0.5624(3) 0.91646(17) 0.93559(11)
C10_4 C 0.1279(3) 0.8949(2) 0.95831(12)
O13_4 O 0.4040(4) 0.63935(17) 0.84057(12)
C13_4 C 0.1194(3) 0.9428(2) 0.98963(12)
O15_4 O 0.2609(3) 0.6565(2) 0.77366(11)
C18_4 C 0.5681(3) 0.80494(19) 0.91989(13)
C23_4 C 0.1365(4) 0.7827(2) 0.94417(13)
O19_4 O 0.2026(4) 0.62392(19) 0.84666(10)
C32_4 C 0.5116(4) 0.6955(2) 0.88302(13)
C33_4 C 0.4802(5) 0.6345(3) 0.86352(15)
O20_4 O 0.2601(5) 0.5802(2) 0.90359(13)
C41_4 C 0.1849(5) 0.6780(3) 0.90431(15)
C43_4 C 0.5993(4) 0.6996(2) 0.90434(16)
H21_4 H 0.6405 0.6644 0.9068
C44_4 C 0.1636(5) 0.7292(2) 0.96353(16)
H22_4 H 0.1653 0.7276 0.9908
C45_4 C 0.1399(5) 0.7840(3) 0.90490(15)
H23_4 H 0.1262 0.8215 0.8912
C46_4 C 0.6298(4) 0.7544(2) 0.92252(16)
H24_4 H 0.6922 0.7572 0.9366
C47_4 C 0.1628(5) 0.7318(2) 0.88542(15)
H25_4 H 0.1631 0.7333 0.8583
C49_4 C 0.4782(4) 0.8011(2) 0.89876(16)
H27_4 H 0.4353 0.8355 0.8967
C50_4 C 0.4528(4) 0.7460(2) 0.88080(16)
H28_4 H 0.3911 0.7431 0.8661
C55_4 C 0.1882(5) 0.6777(3) 0.94339(16)
H32_4 H 0.2080 0.6411 0.9571
C58_4 C 0.2182(7) 0.6230(3) 0.88233(19)
N7_4 N 0.2965(8) 0.7470(3) 0.7437(2)
C61_4 C 0.3044(11) 0.7000(4) 0.7702(3)
C62_4 C 0.3713(12) 0.7970(5) 0.7404(3)
H37_4 H 0.4281 0.7890 0.7589
H38_4 H 0.3908 0.7971 0.7142
H39_4 H 0.3435 0.8374 0.7458
C63_4 C 0.2104(11) 0.7447(9) 0.7203(5)
H40_4 H 0.1718 0.7097 0.7278
H41_4 H 0.1744 0.7832 0.7228
H42_4 H 0.2235 0.7395 0.6934
H45_4 H 0.364982 0.705718 0.792492
C17_4 C 0.9747(4) 0.9725(2) 0.27219(14)
C57_4 C 0.9774(4) 0.9664(3) 0.16429(15)
H34_4 H 0.9337 0.9562 0.1423
C60_4 C 0.9479(4) 0.9625(3) 0.20128(17)
H36_4 H 0.8841 0.9489 0.2043
loop_
_geom_bond_atom_site_label_1
_geom_bond_atom_site_label_2
_geom_bond_site_symmetry_1
_geom_bond_site_symmetry_2
C17 O16 1_555 1_555
O16 Co7 1_555 1_555
H34 C57 1_555 1_555
H36 C60 1_555 1_555
C57 C60 1_555 1_555
Co1 O4 1_555 1_555
Co2 O4 1_555 1_555
O2 C9 1_555 1_555
O3 C10 1_555 1_555
O4 Co8 1_555 1_555
O8 Co1 1_555 1_555
N3 H6 1_555 1_555
N5 H8 1_555 1_555
C9 N3 1_555 1_555
C10 N5 1_555 1_555
O13 Co2 1_555 1_555
O15 Co2 1_555 1_555
C18 N3 1_555 1_555
C23 N5 1_555 1_555
O19 Co2 1_555 1_555
C32 C33 1_555 1_555
C33 O8 1_555 1_555
O20 C58 1_555 1_555
C41 C47 1_555 1_555
C43 C32 1_555 1_555
H21 C43 1_555 1_555
C44 C23 1_555 1_555
H22 C44 1_555 1_555
C45 C23 1_555 1_555
H23 C45 1_555 1_555
C46 C18 1_555 1_555
H24 C46 1_555 1_555
C47 C45 1_555 1_555
H25 C47 1_555 1_555
C49 C18 1_555 1_555
H27 C49 1_555 1_555
C50 C32 1_555 1_555
H28 C50 1_555 1_555
C55 C41 1_555 1_555
H32 C55 1_555 1_555
C58 O19 1_555 1_555
N7 C61 1_555 1_555
C61 O15 1_555 1_555
C62 N7 1_555 1_555
H37 C62 1_555 1_555
H38 C62 1_555 1_555
H39 C62 1_555 1_555
C63 N7 1_555 1_555
H40 C63 1_555 1_555
H41 C63 1_555 1_555
H42 C63 1_555 1_555
O24 Co1 1_555 1_555
O25 Co2 1_555 1_555
O26 Co1 1_555 1_555
O27 Co2 1_555 1_555
C7 C9 1_555 1_555
C10 C13 1_555 1_555
O13 C33 1_555 1_555
C41 C58 1_555 1_555
C43 C46 1_555 1_555
C44 C55 1_555 1_555
C49 C50 1_555 1_555
C61 H45 1_555 1_555
O1 C3 1_555 1_555
O5 C34 1_555 1_555
C2 H3 1_555 1_555
C5 C2 1_555 1_555
C8 H10 1_555 1_555
C21 C8 1_555 1_555
H14 C28 1_555 1_555
H15 C29 1_555 1_555
C34 N6 1_555 1_555
C36 N6 1_555 1_555
C38 C27 1_555 1_555
Co7 O11 1_555 1_555
C3 C5 1_555 1_555
C21 C34 1_555 1_555
C28 C29 1_555 1_555
Co8 O14 1_555 1_555
C1 C4 1_555 1_555
O6 C22 1_555 1_555
N2 H2 1_555 1_555
C4 H4 1_555 1_555
O26 C24 1_555 1_555
N4 H7 1_555 1_555
C11 H11 1_555 1_555
O14 C24 1_555 1_555
C12 H12 1_555 1_555
C14 N4 1_555 1_555
C19 N2 1_555 1_555
C22 C1 1_555 1_555
C24 C39 1_555 1_555
O17 Co8 1_555 1_555
O18 Co8 1_555 1_555
C26 C11 1_555 1_555
H13 C26 1_555 1_555
C31 H17 1_555 1_555
C35 N4 1_555 1_555
C39 C26 1_555 1_555
C42 C48 1_555 1_555
C48 H26 1_555 1_555
C51 C19 1_555 1_555
H29 C51 1_555 1_555
C52 O17 1_555 1_555
C53 C35 1_555 1_555
H30 C53 1_555 1_555
C54 C35 1_555 1_555
H31 C54 1_555 1_555
C59 C42 1_555 1_555
H35 C59 1_555 1_555
O21 Co8 1_555 1_555
O23 Co8 1_555 1_555
N2 C22 1_555 1_555
C11 C19 1_555 1_555
O18 C52 1_555 1_555
C31 C39 1_555 1_555
C31 C51 1_555 1_555
C42 C52 1_555 1_555
C48 C53 1_555 1_555
C54 C59 1_555 1_555
O21 H43 1_555 1_555
O21 H44 1_555 1_555
N1 H1 1_555 1_555
O7 C25 1_555 1_555
H5 C6 1_555 1_555
C15 N1 1_555 1_555
C20 C25 1_555 1_555
C30 C16 1_555 1_555
H16 C30 1_555 1_555
C37 C15 1_555 1_555
H18 C37 1_555 1_555
C40 C20 1_555 1_555
H20 C40 1_555 1_555
H33 C56 1_555 1_555
Co9 O7 1_555 1_555
C37 C40 1_555 1_555
Co5 O22 1_555 1_555
Co7 O22 1_555 1_555
Co9 O14_2 1_555 1_555
O3_2 C10_2 1_555 1_555
O5_2 C34_2 1_555 1_555
O24 C17_2 1_555 1_555
O10_2 C14_2 1_555 1_555
N4_2 H7_2 1_555 1_555
N5_2 H8_2 1_555 1_555
N6_2 H9_2 1_555 1_555
C8_2 H10_2 1_555 1_555
C10_2 N5_2 1_555 1_555
O13_2 Co7 1_555 1_555
C11_2 H11_2 1_555 1_555
O14_2 C24_2 1_555 1_555
C12_2 H12_2 1_555 1_555
C13_2 C8_2 1_555 1_555
C14_2 N4_2 1_555 1_555
C16_2 C12_2 1_555 1_555
O15_2 Co7 1_555 1_555
C17_2 O27 1_555 1_555
C21_2 C8_2 1_555 1_555
C23_2 N5_2 1_555 1_555
O17_2 Co9 1_555 1_555
O18_2 Co9 1_555 1_555
C26_2 C11_2 1_555 1_555
H13_2 C26_2 1_555 1_555
C27_2 C17_2 1_555 1_555
C30_2 C16_2 1_555 1_555
H16_2 C30_2 1_555 1_555
O19_2 Co7 1_555 1_555
C34_2 N6_2 1_555 1_555
C35_2 N4_2 1_555 1_555
C36_2 N6_2 1_555 1_555
C38_2 C27_2 1_555 1_555
H19_2 C38_2 1_555 1_555
O20_2 C58_2 1_555 1_555
C41_2 C47_2 1_555 1_555
C42_2 C48_2 1_555 1_555
C44_2 C23_2 1_555 1_555
H22_2 C44_2 1_555 1_555
C45_2 C23_2 1_555 1_555
H23_2 C45_2 1_555 1_555
C47_2 C45_2 1_555 1_555
H25_2 C47_2 1_555 1_555
C48_2 H26_2 1_555 1_555
H27_2 C49_2 1_555 1_555
H28_2 C50_2 1_555 1_555
C52_2 O17_2 1_555 1_555
C53_2 C35_2 1_555 1_555
H30_2 C53_2 1_555 1_555
C54_2 C35_2 1_555 1_555
H31_2 C54_2 1_555 1_555
C55_2 C41_2 1_555 1_555
H32_2 C55_2 1_555 1_555
C56_2 C36_2 1_555 1_555
H33_2 C56_2 1_555 1_555
C57_2 C36_2 1_555 1_555
H34_2 C57_2 1_555 1_555
C58_2 O19_2 1_555 1_555
C59_2 C42_2 1_555 1_555
H35_2 C59_2 1_555 1_555
C60_2 C27_2 1_555 1_555
H36_2 C60_2 1_555 1_555
N7_2 C61_2 1_555 1_555
C61_2 O15_2 1_555 1_555
C62_2 N7_2 1_555 1_555
H37_2 C62_2 1_555 1_555
H38_2 C62_2 1_555 1_555
H39_2 C62_2 1_555 1_555
C63_2 N7_2 1_555 1_555
H40_2 C63_2 1_555 1_555
H41_2 C63_2 1_555 1_555
H42_2 C63_2 1_555 1_555
O21_2 Co9 1_555 1_555
C10_2 C13_2 1_555 1_555
O13_2 C33_2 1_555 1_555
C12_2 C13_2 1_555 1_555
C14_2 C16_2 1_555 1_555
C21_2 C30_2 1_555 1_555
C21_2 C34_2 1_555 1_555
O18_2 C52_2 1_555 1_555
C38_2 C56_2 1_555 1_555
C41_2 C58_2 1_555 1_555
C42_2 C52_2 1_555 1_555
C44_2 C55_2 1_555 1_555
C48_2 C53_2 1_555 1_555
C49_2 C50_2 1_555 1_555
C54_2 C59_2 1_555 1_555
C57_2 C60_2 1_555 1_555
O21_2 H43_2 1_555 1_555
O21_2 H44_2 1_555 1_555
C61_2 H45_2 1_555 1_555
O1_2 C3_2 1_555 1_555
O2_2 C9_2 1_555 1_555
N1_2 H1_2 1_555 1_555
C1_2 C4_2 1_555 1_555
O6_2 C22_2 1_555 1_555
N2_2 H2_2 1_555 1_555
O23 C25_2 1_555 1_555
C2_2 H3_2 1_555 1_555
C3_2 N1_2 1_555 1_555
O25 C25_2 1_555 1_555
C4_2 H4_2 1_555 1_555
C5_2 C2_2 1_555 1_555
C6_2 C1_2 1_555 1_555
H5_2 C6_2 1_555 1_555
N3_2 H6_2 1_555 1_555
C7_2 C2_2 1_555 1_555
C9_2 N3_2 1_555 1_555
C15_2 N1_2 1_555 1_555
C18_2 N3_2 1_555 1_555
C19_2 N2_2 1_555 1_555
C20_2 C25_2 1_555 1_555
C22_2 C1_2 1_555 1_555
C28_2 C15_2 1_555 1_555
H14_2 C28_2 1_555 1_555
C29_2 C20_2 1_555 1_555
H15_2 C29_2 1_555 1_555
C31_2 H17_2 1_555 1_555
C37_2 C15_2 1_555 1_555
H18_2 C37_2 1_555 1_555
C40_2 C20_2 1_555 1_555
H20_2 C40_2 1_555 1_555
C43_2 C32_2 1_555 1_555
H21_2 C43_2 1_555 1_555
C46_2 C18_2 1_555 1_555
H24_2 C46_2 1_555 1_555
C51_2 C19_2 1_555 1_555
H29_2 C51_2 1_555 1_555
N2_2 C22_2 1_555 1_555
C3_2 C5_2 1_555 1_555
C4_2 C7_2 1_555 1_555
C5_2 C6_2 1_555 1_555
C7_2 C9_2 1_555 1_555
C28_2 C29_2 1_555 1_555
C31_2 C39_2 1_555 1_555
C31_2 C51_2 1_555 1_555
C37_2 C40_2 1_555 1_555
C43_2 C46_2 1_555 1_555
O1_3 C3_3 1_555 1_555
O2_3 C9_3 1_555 1_555
N1_3 H1_3 1_555 1_555
C1_3 C4_3 1_555 1_555
O6_3 C22_3 1_555 1_555
N2_3 H2_3 1_555 1_555
O7_2 C25_3 1_555 1_555
C2_3 H3_3 1_555 1_555
C3_3 N1_3 1_555 1_555
O11_2 C25_3 1_555 1_555
C4_3 H4_3 1_555 1_555
C5_3 C2_3 1_555 1_555
C6_3 C1_3 1_555 1_555
H5_3 C6_3 1_555 1_555
N3_3 H6_3 1_555 1_555
C7_3 C2_3 1_555 1_555
C9_3 N3_3 1_555 1_555
C15_3 N1_3 1_555 1_555
C18_3 N3_3 1_555 1_555
C19_3 N2_3 1_555 1_555
C20_3 C25_3 1_555 1_555
C22_3 C1_3 1_555 1_555
C28_3 C15_3 1_555 1_555
H14_3 C28_3 1_555 1_555
C29_3 C20_3 1_555 1_555
H15_3 C29_3 1_555 1_555
C31_3 H17_3 1_555 1_555
C37_3 C15_3 1_555 1_555
H18_3 C37_3 1_555 1_555
C40_3 C20_3 1_555 1_555
H20_3 C40_3 1_555 1_555
C43_3 C32_3 1_555 1_555
H21_3 C43_3 1_555 1_555
C46_3 C18_3 1_555 1_555
H24_3 C46_3 1_555 1_555
C51_3 C19_3 1_555 1_555
H29_3 C51_3 1_555 1_555
Co6 O11_2 1_555 1_555
Co9_2 O7_2 1_555 1_555
N2_3 C22_3 1_555 1_555
C3_3 C5_3 1_555 1_555
C4_3 C7_3 1_555 1_555
C5_3 C6_3 1_555 1_555
C7_3 C9_3 1_555 1_555
C28_3 C29_3 1_555 1_555
C31_3 C39_3 1_555 1_555
C31_3 C51_3 1_555 1_555
C37_3 C40_3 1_555 1_555
C43_3 C46_3 1_555 1_555
Co1_2 O4_2 1_555 1_555
Co2_2 O4_2 1_555 1_555
Co8_2 O14_3 1_555 1_555
O3_3 C10_3 1_555 1_555
O5_3 C34_3 1_555 1_555
O9_2 C17_3 1_555 1_555
O10_3 C14_3 1_555 1_555
N4_3 H7_3 1_555 1_555
N5_3 H8_3 1_555 1_555
N6_3 H9_3 1_555 1_555
C8_3 H10_3 1_555 1_555
C10_3 N5_3 1_555 1_555
O13_3 Co2_2 1_555 1_555
C11_3 H11_3 1_555 1_555
O14_3 C24_3 1_555 1_555
C12_3 H12_3 1_555 1_555
C13_3 C8_3 1_555 1_555
C14_3 N4_3 1_555 1_555
C16_3 C12_3 1_555 1_555
O15_3 Co2_2 1_555 1_555
C17_3 O16_2 1_555 1_555
C21_3 C8_3 1_555 1_555
O16_2 Co6 1_555 1_555
C23_3 N5_3 1_555 1_555
O17_3 Co8_2 1_555 1_555
O18_3 Co8_2 1_555 1_555
C26_3 C11_3 1_555 1_555
H13_3 C26_3 1_555 1_555
C27_3 C17_3 1_555 1_555
C30_3 C16_3 1_555 1_555
H16_3 C30_3 1_555 1_555
O19_3 Co2_2 1_555 1_555
C34_3 N6_3 1_555 1_555
C35_3 N4_3 1_555 1_555
C36_3 N6_3 1_555 1_555
C38_3 C27_3 1_555 1_555
H19_3 C38_3 1_555 1_555
O20_3 C58_3 1_555 1_555
C41_3 C47_3 1_555 1_555
C42_3 C48_3 1_555 1_555
C44_3 C23_3 1_555 1_555
H22_3 C44_3 1_555 1_555
C45_3 C23_3 1_555 1_555
H23_3 C45_3 1_555 1_555
C47_3 C45_3 1_555 1_555
H25_3 C47_3 1_555 1_555
C48_3 H26_3 1_555 1_555
H27_3 C49_3 1_555 1_555
H28_3 C50_3 1_555 1_555
C52_3 O17_3 1_555 1_555
C53_3 C35_3 1_555 1_555
H30_3 C53_3 1_555 1_555
C54_3 C35_3 1_555 1_555
H31_3 C54_3 1_555 1_555
C55_3 C41_3 1_555 1_555
H32_3 C55_3 1_555 1_555
C56_3 C36_3 1_555 1_555
H33_3 C56_3 1_555 1_555
C57_3 C36_3 1_555 1_555
H34_3 C57_3 1_555 1_555
C58_3 O19_3 1_555 1_555
C59_3 C42_3 1_555 1_555
H35_3 C59_3 1_555 1_555
C60_3 C27_3 1_555 1_555
H36_3 C60_3 1_555 1_555
N7_3 C61_3 1_555 1_555
C61_3 O15_3 1_555 1_555
C62_3 N7_3 1_555 1_555
H37_3 C62_3 1_555 1_555
H38_3 C62_3 1_555 1_555
H39_3 C62_3 1_555 1_555
C63_3 N7_3 1_555 1_555
H40_3 C63_3 1_555 1_555
H41_3 C63_3 1_555 1_555
H42_3 C63_3 1_555 1_555
O21_3 Co8_2 1_555 1_555
Co5_2 O9_2 1_555 1_555
O23_2 Co8_2 1_555 1_555
O25_2 Co2_2 1_555 1_555
O27_2 Co2_2 1_555 1_555
C10_3 C13_3 1_555 1_555
O13_3 C33_3 1_555 1_555
C12_3 C13_3 1_555 1_555
C14_3 C16_3 1_555 1_555
C21_3 C30_3 1_555 1_555
C21_3 C34_3 1_555 1_555
O18_3 C52_3 1_555 1_555
C38_3 C56_3 1_555 1_555
C41_3 C58_3 1_555 1_555
C42_3 C52_3 1_555 1_555
C44_3 C55_3 1_555 1_555
C48_3 C53_3 1_555 1_555
C49_3 C50_3 1_555 1_555
C54_3 C59_3 1_555 1_555
C57_3 C60_3 1_555 1_555
O21_3 H43_3 1_555 1_555
O21_3 H44_3 1_555 1_555
C61_3 H45_3 1_555 1_555
N1_4 H1_4 1_555 1_555
O23_2 C25_4 1_555 1_555
H5_4 C6_4 1_555 1_555
C15_4 N1_4 1_555 1_555
C20_4 C25_4 1_555 1_555
C30_4 C16_4 1_555 1_555
H16_4 C30_4 1_555 1_555
C37_4 C15_4 1_555 1_555
H18_4 C37_4 1_555 1_555
C40_4 C20_4 1_555 1_555
H20_4 C40_4 1_555 1_555
H33_4 C56_4 1_555 1_555
C37_4 C40_4 1_555 1_555
Co9_2 O14_4 1_555 1_555
C1_4 C4_4 1_555 1_555
O6_4 C22_4 1_555 1_555
N2_4 H2_4 1_555 1_555
C4_4 H4_4 1_555 1_555
O12_2 C24_4 1_555 1_555
N4_4 H7_4 1_555 1_555
C11_4 H11_4 1_555 1_555
O14_4 C24_4 1_555 1_555
C12_4 H12_4 1_555 1_555
C14_4 N4_4 1_555 1_555
C19_4 N2_4 1_555 1_555
C22_4 C1_4 1_555 1_555
C24_4 C39_4 1_555 1_555
O17_4 Co9_2 1_555 1_555
O18_4 Co9_2 1_555 1_555
C26_4 C11_4 1_555 1_555
H13_4 C26_4 1_555 1_555
C31_4 H17_4 1_555 1_555
C35_4 N4_4 1_555 1_555
C39_4 C26_4 1_555 1_555
C42_4 C48_4 1_555 1_555
C48_4 H26_4 1_555 1_555
C51_4 C19_4 1_555 1_555
H29_4 C51_4 1_555 1_555
C52_4 O17_4 1_555 1_555
C53_4 C35_4 1_555 1_555
H30_4 C53_4 1_555 1_555
C54_4 C35_4 1_555 1_555
H31_4 C54_4 1_555 1_555
C59_4 C42_4 1_555 1_555
H35_4 C59_4 1_555 1_555
O21_4 Co9_2 1_555 1_555
Co5_2 O12_2 1_555 1_555
O22_2 Co9_2 1_555 1_555
N2_4 C22_4 1_555 1_555
C11_4 C19_4 1_555 1_555
O18_4 C52_4 1_555 1_555
C31_4 C39_4 1_555 1_555
C31_4 C51_4 1_555 1_555
C42_4 C52_4 1_555 1_555
C48_4 C53_4 1_555 1_555
C54_4 C59_4 1_555 1_555
Co5_2 O22_2 1_555 1_555
O21_4 H43_4 1_555 1_555
O21_4 H44_4 1_555 1_555
O1_4 C3_4 1_555 1_555
O5_4 C34_4 1_555 1_555
C2_4 H3_4 1_555 1_555
C5_4 C2_4 1_555 1_555
C8_4 H10_4 1_555 1_555
C21_4 C8_4 1_555 1_555
H14_4 C28_4 1_555 1_555
H15_4 C29_4 1_555 1_555
C34_4 N6_4 1_555 1_555
C36_4 N6_4 1_555 1_555
C38_4 C27_4 1_555 1_555
C3_4 C5_4 1_555 1_555
C21_4 C34_4 1_555 1_555
C28_4 C29_4 1_555 1_555
Co6 O22_2 1_555 1_555
O2_4 C9_4 1_555 1_555
O3_4 C10_4 1_555 1_555
O8_4 Co5_2 1_555 1_555
N3_4 H6_4 1_555 1_555
N5_4 H8_4 1_555 1_555
C9_4 N3_4 1_555 1_555
C10_4 N5_4 1_555 1_555
O13_4 Co6 1_555 1_555
O15_4 Co6 1_555 1_555
C18_4 N3_4 1_555 1_555
C23_4 N5_4 1_555 1_555
O19_4 Co6 1_555 1_555
C32_4 C33_4 1_555 1_555
C33_4 O8_4 1_555 1_555
O20_4 C58_4 1_555 1_555
C41_4 C47_4 1_555 1_555
C43_4 C32_4 1_555 1_555
H21_4 C43_4 1_555 1_555
C44_4 C23_4 1_555 1_555
H22_4 C44_4 1_555 1_555
C45_4 C23_4 1_555 1_555
H23_4 C45_4 1_555 1_555
C46_4 C18_4 1_555 1_555
H24_4 C46_4 1_555 1_555
C47_4 C45_4 1_555 1_555
H25_4 C47_4 1_555 1_555
C49_4 C18_4 1_555 1_555
H27_4 C49_4 1_555 1_555
C50_4 C32_4 1_555 1_555
H28_4 C50_4 1_555 1_555
C55_4 C41_4 1_555 1_555
H32_4 C55_4 1_555 1_555
C58_4 O19_4 1_555 1_555
N7_4 C61_4 1_555 1_555
C61_4 O15_4 1_555 1_555
C62_4 N7_4 1_555 1_555
H37_4 C62_4 1_555 1_555
H38_4 C62_4 1_555 1_555
H39_4 C62_4 1_555 1_555
C63_4 N7_4 1_555 1_555
H40_4 C63_4 1_555 1_555
H41_4 C63_4 1_555 1_555
H42_4 C63_4 1_555 1_555
C7_4 C9_4 1_555 1_555
C10_4 C13_4 1_555 1_555
O13_4 C33_4 1_555 1_555
C41_4 C58_4 1_555 1_555
C43_4 C46_4 1_555 1_555
C44_4 C55_4 1_555 1_555
C49_4 C50_4 1_555 1_555
C61_4 H45_4 1_555 1_555
C17_4 O27_2 1_555 1_555
H34_4 C57_4 1_555 1_555
H36_4 C60_4 1_555 1_555
C57_4 C60_4 1_555 1_555

#END
