
###############################################################################
#
# This file contains modified crystal structure data generated from the
# MOF subset of the Cambridge Structural Database (CSD) v543 
# hosted by the Cambridge Crystallographic Data Centre (CCDC).
#
# This work is licensed under the Creative Commons
# Attribution-NonCommercial-ShareAlike 4.0 International License.
# To view a copy of this license, visit
# http://creativecommons.org/licenses/by-nc-sa/4.0/
# or send a letter to
# Creative Commons, PO Box 1866, Mountain View, CA 94042, USA.
#
# CIF created using the CSD Python API on 29 September 2022
# The structure has been converted into the P1 space group
# The structure has a 3D framework
# The original CSD entry FAJZIC is in the monoclinic crystal system
# The original CSD entry FAJZIC is in a Sohncke space group
# The framework has been calculated to contain at least 10.0% void space
# The void calculation uses a probe of radius 1.32A, grid spacing 0.4
# The framework is charged, counterions have been retained in the structure
#
###############################################################################

data_FAJZIC
_chemical_formula_moiety         '(C228 H168 Ag6 N24 6+)n'
_symmetry_cell_setting           triclinic
_symmetry_space_group_name_H-M   'P 1'
_symmetry_Int_Tables_number      1
_space_group_name_Hall           'P 1'
loop_
_symmetry_equiv_pos_site_id
_symmetry_equiv_pos_as_xyz
1 x,y,z
_cell_length_a                   16.7489(2)
_cell_length_b                   28.5492(3)
_cell_length_c                   17.0230(2)
_cell_angle_alpha                90
_cell_angle_beta                 116.7870(18)
_cell_angle_gamma                90
_cell_volume                     7266.35
loop_
_atom_site_label
_atom_site_type_symbol
_atom_site_fract_x
_atom_site_fract_y
_atom_site_fract_z
C34 C 0.0058(3) 0.48745(18) 0.5280(3)
C35 C 0.0953(4) 0.4688(2) 0.5778(4)
H25 H 0.0464 0.5556 0.5385
N4 N 0.1646(3) 0.45471(18) 0.6159(4)
Ag3 Ag 0.30775(2) 0.43484(2) 0.69517(2)
C1 C 0.4236(5) 0.4876(3) 0.6041(5)
C2 C 0.4632(4) 0.5050(2) 0.5509(5)
C3 C 0.5249(7) 0.5379(3) 0.5786(6)
H1 H 0.5412 0.5519 0.6330
C4 C 0.5659(6) 0.5521(3) 0.5270(5)
H2 H 0.6110 0.5745 0.5495
C5 C 0.5441(3) 0.53537(17) 0.4497(4)
C6 C 0.4734(5) 0.5037(3) 0.4153(5)
H3 H 0.4524 0.4925 0.3582
C7 C 0.4347(5) 0.4892(3) 0.4686(7)
H4 H 0.3876 0.4679 0.4464
C8 C 0.5919(3) 0.55064(17) 0.3959(4)
C9 C 0.5943(3) 0.60432(17) 0.3875(3)
H5 H 0.5335 0.6161 0.3582
H6 H 0.6229 0.6181 0.4459
C10 C 0.5469(3) 0.53016(18) 0.3013(3)
H7 H 0.5460 0.4963 0.3045
H8 H 0.4855 0.5410 0.2713
C11 C 0.7423(3) 0.60002(18) 0.3851(3)
H9 H 0.7764 0.6095 0.3544
H10 H 0.7712 0.6129 0.4441
C12 C 0.6447(3) 0.61953(16) 0.3356(3)
C13 C 0.6508(3) 0.67285(18) 0.3347(4)
C14 C 0.6892(4) 0.6984(2) 0.4108(4)
H11 H 0.7110 0.6823 0.4639
C15 C 0.6311(5) 0.7450(2) 0.2566(5)
H12 H 0.6135 0.7612 0.2040
C16 C 0.6656(4) 0.7686(2) 0.3305(4)
C17 C 0.6774(4) 0.8196(2) 0.3357(5)
C18 C 0.6973(4) 0.74524(19) 0.4137(4)
H13 H 0.7221 0.7616 0.4666
C19 C 0.6199(5) 0.6970(2) 0.2537(4)
H14 H 0.5928 0.6812 0.2004
C20 C 0.5983(3) 0.59783(19) 0.2439(3)
H15 H 0.5376 0.6096 0.2135
H16 H 0.6297 0.6069 0.2103
C21 C 0.5964(3) 0.54472(18) 0.2490(3)
C22 C 0.5492(4) 0.5219(2) 0.1564(4)
C23 C 0.5329(4) 0.4753(2) 0.1467(4)
H17 H 0.5549 0.4561 0.1961
C24 C 0.4836(4) 0.4560(2) 0.0638(4)
H18 H 0.4697 0.4242 0.0589
C27 C 0.4828(16) 0.5285(4) 0.0027(6)
C28 C 0.5244(11) 0.5487(3) 0.0802(6)
H20 H 0.5372 0.5806 0.0842
C29 C 0.6927(3) 0.5254(2) 0.2966(3)
H21 H 0.6912 0.4915 0.3000
H22 H 0.7252 0.5336 0.2636
C30 C 0.7407(3) 0.54609(17) 0.3898(3)
C31 C 0.8366(3) 0.52550(17) 0.4377(3)
C32 C 0.8456(3) 0.47802(19) 0.4477(4)
H23 H 0.7956 0.4587 0.4232
C33 C 0.9333(3) 0.45821(18) 0.4965(3)
H24 H 0.9407 0.4261 0.5065
C36 C 0.9965(3) 0.5361(2) 0.5162(3)
C37 C 0.9106(3) 0.55467(18) 0.4701(3)
H26 H 0.9030 0.5868 0.4611
C38 C 0.6885(3) 0.53197(17) 0.4413(3)
H27 H 0.6875 0.4981 0.4453
H28 H 0.7187 0.5444 0.5006
N1 N 0.3883(5) 0.4724(3) 0.6408(5)
N2 N 0.6833(5) 0.8582(2) 0.3306(6)
N5 N 0.3167(5) 0.3582(2) 0.6694(6)
N6 N 0.3662(6) 0.4472(2) 0.8402(3)
Ag4 Ag 0.69225(2) 0.93484(2) 0.30483(2)
C25 C 0.4567(6) 0.4809(2) 0.9936(4)
C26 C 0.4072(7) 0.4620(3) 0.9060(4)
H19 H 0.4701 0.5460 0.9525
C2_2 C 0.5368(4) 0.0050(2) 0.4491(5)
C3_2 C 0.4751(7) 0.0379(3) 0.4214(6)
H1_2 H 0.4588 0.0519 0.3670
C4_2 C 0.4341(6) 0.0521(3) 0.4730(5)
H2_2 H 0.3890 0.0745 0.4505
C5_2 C 0.4559(3) 0.03537(17) 0.5503(4)
C6_2 C 0.5266(5) 0.0037(3) 0.5847(5)
C8_2 C 0.4081(3) 0.05064(17) 0.6041(4)
C9_2 C 0.4057(3) 0.10432(17) 0.6125(3)
H5_2 H 0.4665 0.1161 0.6418
H6_2 H 0.3771 0.1181 0.5541
C10_2 C 0.4531(3) 0.03016(18) 0.6987(3)
H8_2 H 0.5145 0.0410 0.7287
C11_2 C 0.2577(3) 0.10002(18) 0.6149(3)
H9_2 H 0.2236 0.1095 0.6456
H10_2 H 0.2288 0.1129 0.5559
C12_2 C 0.3553(3) 0.11953(16) 0.6644(3)
C13_2 C 0.3492(3) 0.17285(18) 0.6653(4)
C14_2 C 0.3108(4) 0.1984(2) 0.5892(4)
H11_2 H 0.2890 0.1823 0.5361
C15_2 C 0.3689(5) 0.2450(2) 0.7434(5)
H12_2 H 0.3865 0.2612 0.7960
C16_2 C 0.3344(4) 0.2686(2) 0.6695(4)
C17_2 C 0.3226(4) 0.3196(2) 0.6643(5)
C18_2 C 0.3027(4) 0.24524(19) 0.5863(4)
H13_2 H 0.2779 0.2616 0.5334
C19_2 C 0.3801(5) 0.1970(2) 0.7463(4)
H14_2 H 0.4072 0.1812 0.7996
C20_2 C 0.4017(3) 0.09783(19) 0.7561(3)
H15_2 H 0.4624 0.1096 0.7865
H16_2 H 0.3703 0.1069 0.7897
C21_2 C 0.4036(3) 0.04472(18) 0.7510(3)
C22_2 C 0.4508(4) 0.0219(2) 0.8436(4)
C27_2 C 0.5172(16) 0.0285(4) 0.9973(6)
C28_2 C 0.4756(11) 0.0487(3) 0.9198(6)
H20_2 H 0.4628 0.0806 0.9158
C29_2 C 0.3073(3) 0.0254(2) 0.7034(3)
H22_2 H 0.2748 0.0336 0.7364
C30_2 C 0.2593(3) 0.04609(17) 0.6102(3)
C31_2 C 0.1634(3) 0.02550(17) 0.5623(3)
C36_2 C 0.0035(3) 0.0361(2) 0.4838(3)
C37_2 C 0.0894(3) 0.05467(18) 0.5299(3)
H26_2 H 0.0970 0.0868 0.5389
C38_2 C 0.3115(3) 0.03197(17) 0.5587(3)
H28_2 H 0.2813 0.0444 0.4994
C25_2 C 0.5433(6) 0.9809(2) 0.0064(4)
C26_2 C 0.5928(7) 0.9620(3) 0.0940(4)
N3 N 0.6338(6) 0.9472(2) 0.1598(3)
C1_2 C 0.5764(5) 0.9876(3) 0.3959(5)
H3_2 H 0.5476 0.9925 0.6418
C7_2 C 0.5653(5) 0.9892(3) 0.5314(7)
H4_2 H 0.6124 0.9679 0.5536
H7_2 H 0.4540 0.9963 0.6955
C23_2 C 0.4671(4) 0.9753(2) 0.8533(4)
H17_2 H 0.4451 0.9561 0.8039
C24_2 C 0.5164(4) 0.9560(2) 0.9362(4)
H18_2 H 0.5303 0.9242 0.9411
H21_2 H 0.3088 0.9915 0.7000
C32_2 C 0.1544(3) 0.97802(19) 0.5523(4)
H23_2 H 0.2044 0.9587 0.5768
C33_2 C 0.0667(3) 0.95821(18) 0.5035(3)
H24_2 H 0.0593 0.9261 0.4935
H27_2 H 0.3125 0.9981 0.5547
N1_2 N 0.6117(5) 0.9724(3) 0.3592(5)
N7 N 0.8354(3) 0.95471(18) 0.3841(4)
C34_2 C 0.9942(3) 0.98745(18) 0.4720(3)
C35_2 C 0.9047(4) 0.9688(2) 0.4222(4)
H19_2 H 0.5299 0.0460 0.0475
H25_2 H 0.9536 0.0556 0.4615
C51 C 0.0476(8) 0.1609(4) 0.0018(7)
H36 H 0.1041 0.1501 0.0406
C52 C 0.0054(6) 0.1930(3) 0.0269(5)
C53 C 0.0495(8) 0.2125(4) 0.1150(6)
N9 N 0.0843(7) 0.2281(3) 0.1808(5)
Ag8 Ag 0.16868(2) 0.25475(2) 0.31382(2)
C50 C 0.0031(8) 0.1437(4) 0.9137(6)
H35 H 0.0305 0.1213 0.8945
C70 C 0.0204(4) 0.17927(19) 0.6133(4)
H51 H 0.0453 0.1846 0.6736
C71 C 0.0663(4) 0.19372(19) 0.5658(5)
H52 H 0.1229 0.2070 0.5953
C72 C 0.0288(5) 0.1883(2) 0.4778(5)
C73 C 0.0705(5) 0.2064(3) 0.4289(5)
N11 N 0.1056(6) 0.2249(3) 0.3943(5)
H30 H 0.8634 0.0048 0.7933
C43 C 0.8222(4) 0.0174(2) 0.6633(4)
H31 H 0.7783 0.0095 0.5312
C46 C 0.8262(3) 0.0703(2) 0.6662(3)
C47 C 0.8688(4) 0.0887(2) 0.7607(4)
H33 H 0.9290 0.0764 0.7922
H34 H 0.8345 0.0779 0.7903
C48 C 0.8721(4) 0.1429(2) 0.7623(4)
C49 C 0.9184(5) 0.1606(2) 0.8563(4)
C54 C 0.9229(7) 0.2126(5) 0.9711(8)
H37 H 0.8971 0.2365 0.9891
C55 C 0.8825(6) 0.1942(4) 0.8886(7)
H38 H 0.8259 0.2054 0.8508
C56 C 0.7760(4) 0.1610(2) 0.7127(4)
H39 H 0.7763 0.1950 0.7137
H40 H 0.7413 0.1501 0.7419
C57 C 0.9275(3) 0.1595(2) 0.7143(3)
H41 H 0.9297 0.1934 0.7144
H42 H 0.9883 0.1479 0.7456
C58 C 0.7310(3) 0.0892(2) 0.6172(3)
H43 H 0.6957 0.0783 0.6457
H44 H 0.7037 0.0775 0.5572
C59 C 0.7318(3) 0.1439(2) 0.6163(4)
C60 C 0.6365(4) 0.1616(2) 0.5654(4)
C61 C 0.5982(4) 0.1912(2) 0.6037(5)
H45 H 0.6296 0.1993 0.6628
C62 C 0.5135(5) 0.2084(3) 0.5538(6)
H46 H 0.4877 0.2287 0.5786
C63 C 0.4673(4) 0.1953(3) 0.4672(6)
C64 C 0.3777(5) 0.2121(4) 0.4121(7)
C65 C 0.5023(5) 0.1650(3) 0.4301(6)
H47 H 0.4687 0.1561 0.3718
C66 C 0.5884(5) 0.1468(3) 0.4784(5)
H48 H 0.6126 0.1257 0.4534
C67 C 0.7876(4) 0.1603(2) 0.5716(4)
H49 H 0.7888 0.1943 0.5715
H50 H 0.7596 0.1499 0.5108
C68 C 0.8853(3) 0.14140(18) 0.6183(3)
C69 C 0.9369(4) 0.15684(18) 0.5699(4)
C74 C 0.9448(5) 0.1662(2) 0.4319(4)
H53 H 0.9191 0.1627 0.3711
C75 C 0.9007(4) 0.1495(2) 0.4798(4)
H54 H 0.8470 0.1334 0.4509
C76 C 0.8801(3) 0.0880(2) 0.6182(3)
H55 H 0.9402 0.0752 0.6469
H56 H 0.8520 0.0768 0.5580
N10 N 0.3096(5) 0.2287(4) 0.3765(6)
C39 C 0.8022(4) 0.8712(2) 0.6570(5)
C40 C 0.8058(4) 0.9182(2) 0.6557(4)
C41 C 0.8363(5) 0.9425(3) 0.7365(4)
H29 H 0.8515 0.9258 0.7883
C42 C 0.8436(4) 0.9898(2) 0.7393(4)
C44 C 0.7929(4) 0.99287(19) 0.5829(4)
C45 C 0.7857(4) 0.9455(2) 0.5797(4)
H32 H 0.7670 0.9305 0.5258
N8 N 0.8082(4) 0.8312(3) 0.6635(6)
Ag5 Ag 0.83132(2) 0.75475(2) 0.68618(2)
N12 N 0.9157(7) 0.7281(3) 0.8192(5)
N13 N 0.6904(5) 0.7287(4) 0.6235(6)
N14 N 0.8944(6) 0.7249(3) 0.6057(5)
C39_2 C 0.1978(4) 0.3712(2) 0.3430(5)
C40_2 C 0.1942(4) 0.4182(2) 0.3443(4)
C41_2 C 0.1637(5) 0.4425(3) 0.2635(4)
H29_2 H 0.1485 0.4258 0.2117
C42_2 C 0.1564(4) 0.4898(2) 0.2607(4)
H30_2 H 0.1366 0.5048 0.2067
C43_2 C 0.1778(4) 0.5174(2) 0.3367(4)
C44_2 C 0.2071(4) 0.49287(19) 0.4171(4)
H31_2 H 0.2217 0.5095 0.4688
C45_2 C 0.2143(4) 0.4455(2) 0.4203(4)
H32_2 H 0.2330 0.4305 0.4742
C46_2 C 0.1738(3) 0.5703(2) 0.3338(3)
C47_2 C 0.1312(4) 0.5887(2) 0.2393(4)
H33_2 H 0.0710 0.5764 0.2078
H34_2 H 0.1655 0.5779 0.2097
C48_2 C 0.1279(4) 0.6429(2) 0.2377(4)
C49_2 C 0.0816(5) 0.6606(2) 0.1437(4)
C54_2 C 0.0771(7) 0.7126(5) 0.0289(8)
H37_2 H 0.1029 0.7365 0.0109
C55_2 C 0.1175(6) 0.6942(4) 0.1114(7)
H38_2 H 0.1741 0.7054 0.1492
C56_2 C 0.2240(4) 0.6610(2) 0.2873(4)
H39_2 H 0.2237 0.6950 0.2863
H40_2 H 0.2587 0.6501 0.2581
C57_2 C 0.0725(3) 0.6595(2) 0.2857(3)
H41_2 H 0.0703 0.6934 0.2856
H42_2 H 0.0117 0.6479 0.2544
C58_2 C 0.2690(3) 0.5892(2) 0.3828(3)
H43_2 H 0.3043 0.5783 0.3543
H44_2 H 0.2963 0.5775 0.4428
C59_2 C 0.2682(3) 0.6439(2) 0.3837(4)
C60_2 C 0.3635(4) 0.6616(2) 0.4346(4)
C61_2 C 0.4018(4) 0.6912(2) 0.3963(5)
H45_2 H 0.3704 0.6993 0.3372
C62_2 C 0.4865(5) 0.7084(3) 0.4462(6)
H46_2 H 0.5123 0.7287 0.4214
C63_2 C 0.5327(4) 0.6953(3) 0.5328(6)
C64_2 C 0.6223(5) 0.7121(4) 0.5879(7)
C65_2 C 0.4977(5) 0.6650(3) 0.5699(6)
H47_2 H 0.5313 0.6561 0.6282
C66_2 C 0.4116(5) 0.6468(3) 0.5216(5)
H48_2 H 0.3874 0.6257 0.5466
C67_2 C 0.2124(4) 0.6603(2) 0.4284(4)
H49_2 H 0.2112 0.6943 0.4285
H50_2 H 0.2404 0.6499 0.4892
C68_2 C 0.1147(3) 0.64140(18) 0.3817(3)
C69_2 C 0.0631(4) 0.65684(18) 0.4301(4)
C74_2 C 0.0552(5) 0.6662(2) 0.5681(4)
H53_2 H 0.0809 0.6627 0.6289
C75_2 C 0.0993(4) 0.6495(2) 0.5202(4)
H54_2 H 0.1530 0.6334 0.5491
C76_2 C 0.1199(3) 0.5880(2) 0.3818(3)
H55_2 H 0.0598 0.5752 0.3531
H56_2 H 0.1480 0.5768 0.4420
N8_2 N 0.1918(4) 0.3312(3) 0.3365(6)
C50_2 C 0.9969(8) 0.6437(4) 0.0863(6)
H35_2 H 0.9695 0.6213 0.1055
C70_2 C 0.9796(4) 0.67927(19) 0.3867(4)
H51_2 H 0.9547 0.6846 0.3264
C71_2 C 0.9337(4) 0.69372(19) 0.4342(5)
H52_2 H 0.8771 0.7070 0.4047
C72_2 C 0.9712(5) 0.6883(2) 0.5222(5)
C73_2 C 0.9295(5) 0.7064(3) 0.5711(5)
C51_2 C 0.9524(8) 0.6609(4) 0.9982(7)
H36_2 H 0.8959 0.6501 0.9594
C52_2 C 0.9946(6) 0.6930(3) 0.9731(5)
C53_2 C 0.9505(8) 0.7125(4) 0.8850(6)
C79 C 0.0540(5) 0.3204(3) 0.0435(5)
H57 H 0.1102 0.3066 0.0697
C80 C 0.0139(4) 0.3379(3) 0.0946(5)
H58 H 0.0443 0.3357 0.1556
C88 C 0.0247(3) 0.3702(2) 0.4032(3)
H63 H 0.0509 0.3902 0.3784
C89 C 0.0751(3) 0.35471(19) 0.4894(3)
H64 H 0.1338 0.3647 0.5222
C90 C 0.0365(3) 0.32441(18) 0.5252(4)
C91 C 0.0883(4) 0.30823(18) 0.6126(4)
N16 N 0.1297(3) 0.29412(18) 0.6826(3)
Ag11 Ag 0.17725(2) 0.26311(2) 0.81696(2)
C77 C 0.0432(6) 0.3046(4) 0.8957(6)
C78 C 0.0049(6) 0.3248(4) 0.9497(5)
N15 N 0.0770(5) 0.2891(4) 0.8611(5)
N20 N 0.3034(5) 0.3028(3) 0.9052(5)
N21 N 0.1967(5) 0.18657(19) 0.8365(4)
C82 C 0.8922(6) 0.3670(3) 0.9664(5)
H59 H 0.8391 0.3840 0.9407
C83 C 0.9273(7) 0.3525(5) 0.9152(7)
H60 H 0.9005 0.3607 0.8560
C101 C 0.4642(4) 0.3305(2) 0.9909(4)
C102 C 0.3712(4) 0.3131(3) 0.9465(5)
C103 C 0.5016(4) 0.3510(2) 0.9449(4)
H75 H 0.4679 0.3552 0.8846
C104 C 0.5882(4) 0.3657(2) 0.9850(4)
H76 H 0.6126 0.3808 0.9524
C107 C 0.1670(3) 0.00094(19) 0.8351(4)
C108 C 0.1238(3) 0.02722(18) 0.7616(3)
H79 H 0.0874 0.0126 0.7086
C109 C 0.1330(3) 0.07553(19) 0.7639(4)
H80 H 0.1048 0.0931 0.7126
C110 C 0.1844(4) 0.09703(18) 0.8431(4)
C111 C 0.1924(5) 0.1484(2) 0.8418(5)
C112 C 0.2232(7) 0.0738(2) 0.9185(5)
H81 H 0.2535 0.0895 0.9716
C113 C 0.2173(6) 0.0240(2) 0.9160(4)
H82 H 0.2464 0.0067 0.9675
C81 C 0.9290(4) 0.3587(2) 0.0549(4)
C84 C 0.8843(3) 0.37502(19) 0.1102(3)
C85 C 0.9323(3) 0.35759(18) 0.2052(3)
H61 H 0.9934 0.3690 0.2322
H62 H 0.9341 0.3236 0.2056
C86 C 0.8847(3) 0.37437(17) 0.2594(3)
C87 C 0.9363(3) 0.35633(17) 0.3532(3)
C92 C 0.9479(4) 0.3102(2) 0.4763(4)
H65 H 0.9215 0.2903 0.5012
C93 C 0.8996(4) 0.32550(19) 0.3912(4)
H66 H 0.8413 0.3150 0.3584
C94 C 0.7878(3) 0.35680(16) 0.2163(3)
H67 H 0.7574 0.3680 0.2495
H68 H 0.7873 0.3228 0.2172
C95 C 0.8839(3) 0.42873(18) 0.2586(3)
H69 H 0.8545 0.4401 0.2926
H70 H 0.9449 0.4403 0.2857
C96 C 0.7866(3) 0.35762(17) 0.0690(3)
H71 H 0.7552 0.3690 0.0091
H72 H 0.7860 0.3237 0.0672
C97 C 0.7384(3) 0.37421(17) 0.1208(3)
C98 C 0.6419(3) 0.35805(17) 0.0778(3)
C99 C 0.5990(4) 0.3363(2) 0.1208(4)
H73 H 0.6310 0.3316 0.1812
C100 C 0.5107(4) 0.3210(3) 0.0788(5)
H74 H 0.4847 0.3052 0.1091
C105 C 0.7385(3) 0.42869(17) 0.1227(3)
H77 H 0.7063 0.4407 0.0633
H78 H 0.7084 0.4396 0.1564
C106 C 0.8350(3) 0.44715(16) 0.1645(3)
C107_2 C 0.8330(3) 0.50094(19) 0.1649(4)
C108_2 C 0.8762(3) 0.52722(18) 0.2384(3)
H79_2 H 0.9126 0.5126 0.2914
C109_2 C 0.8670(3) 0.57553(19) 0.2361(4)
H80_2 H 0.8952 0.5931 0.2874
C110_2 C 0.8156(4) 0.59703(18) 0.1569(4)
C111_2 C 0.8076(5) 0.6484(2) 0.1582(5)
C112_2 C 0.7768(7) 0.5738(2) 0.0815(5)
H81_2 H 0.7465 0.5895 0.0284
C113_2 C 0.7827(6) 0.5240(2) 0.0840(4)
H82_2 H 0.7536 0.5067 0.0325
C114 C 0.8840(3) 0.42935(18) 0.1119(3)
H83 H 0.9451 0.4408 0.1389
H84 H 0.8543 0.4413 0.0522
N18 N 0.8033(5) 0.68657(19) 0.1635(4)
Ag12 Ag 0.82275(2) 0.76311(2) 0.18304(2)
C82_2 C 0.1078(6) 0.8670(3) 0.0336(5)
H59_2 H 0.1609 0.8840 0.0593
C83_2 C 0.0727(7) 0.8525(5) 0.0848(7)
H60_2 H 0.0995 0.8607 0.1440
C101_2 C 0.5358(4) 0.8305(2) 0.0091(4)
C102_2 C 0.6288(4) 0.8131(3) 0.0535(5)
C103_2 C 0.4984(4) 0.8510(2) 0.0551(4)
H75_2 H 0.5321 0.8552 0.1154
C104_2 C 0.4118(4) 0.8657(2) 0.0150(4)
H76_2 H 0.3874 0.8808 0.0476
N17 N 0.6966(5) 0.8028(3) 0.0948(5)
C77_2 C 0.9568(6) 0.8046(4) 0.1043(6)
C78_2 C 0.9951(6) 0.8248(4) 0.0503(5)
N15_2 N 0.9230(5) 0.7891(4) 0.1389(5)
N19 N 0.8703(3) 0.79412(18) 0.3174(3)
C79_2 C 0.9460(5) 0.8204(3) 0.9565(5)
H57_2 H 0.8898 0.8066 0.9303
C80_2 C 0.9861(4) 0.8379(3) 0.9054(5)
H58_2 H 0.9557 0.8357 0.8444
C88_2 C 0.9753(3) 0.8702(2) 0.5968(3)
H63_2 H 0.9491 0.8902 0.6216
C89_2 C 0.9249(3) 0.85471(19) 0.5106(3)
H64_2 H 0.8662 0.8647 0.4778
C90_2 C 0.9635(3) 0.82441(18) 0.4748(4)
C91_2 C 0.9117(4) 0.80823(18) 0.3874(4)
C81_2 C 0.0710(4) 0.8587(2) 0.9451(4)
C84_2 C 0.1157(3) 0.87502(19) 0.8898(3)
C85_2 C 0.0677(3) 0.85759(18) 0.7948(3)
H61_2 H 0.0066 0.8690 0.7678
H62_2 H 0.0659 0.8236 0.7944
C86_2 C 0.1153(3) 0.87437(17) 0.7406(3)
C87_2 C 0.0637(3) 0.85633(17) 0.6468(3)
C92_2 C 0.0521(4) 0.8102(2) 0.5237(4)
H65_2 H 0.0785 0.7903 0.4988
C93_2 C 0.1004(4) 0.82550(19) 0.6088(4)
H66_2 H 0.1587 0.8150 0.6416
C94_2 C 0.2122(3) 0.85680(16) 0.7837(3)
H67_2 H 0.2426 0.8680 0.7505
H68_2 H 0.2127 0.8228 0.7828
C95_2 C 0.1161(3) 0.92873(18) 0.7414(3)
H69_2 H 0.1455 0.9401 0.7074
H70_2 H 0.0551 0.9403 0.7143
C96_2 C 0.2134(3) 0.85762(17) 0.9310(3)
H71_2 H 0.2448 0.8690 0.9909
H72_2 H 0.2140 0.8237 0.9328
C97_2 C 0.2616(3) 0.87421(17) 0.8792(3)
C98_2 C 0.3581(3) 0.85805(17) 0.9222(3)
C99_2 C 0.4010(4) 0.8363(2) 0.8792(4)
H73_2 H 0.3690 0.8316 0.8188
C100_2 C 0.4893(4) 0.8210(3) 0.9212(5)
H74_2 H 0.5153 0.8052 0.8909
C105_2 C 0.2615(3) 0.92869(17) 0.8773(3)
H77_2 H 0.2937 0.9407 0.9367
H78_2 H 0.2916 0.9396 0.8436
C106_2 C 0.1650(3) 0.94715(16) 0.8355(3)
C114_2 C 0.1160(3) 0.92935(18) 0.8881(3)
H83_2 H 0.0549 0.9408 0.8611
H84_2 H 0.1457 0.9413 0.9478
loop_
_geom_bond_atom_site_label_1
_geom_bond_atom_site_label_2
_geom_bond_site_symmetry_1
_geom_bond_site_symmetry_2
C35 C34 1_555 1_555
N4 C35 1_555 1_555
Ag3 N4 1_555 1_555
C1 C2 1_555 1_555
C2 C3 1_555 1_555
C3 H1 1_555 1_555
C4 C3 1_555 1_555
H2 C4 1_555 1_555
C5 C4 1_555 1_555
C6 C5 1_555 1_555
H3 C6 1_555 1_555
C7 C2 1_555 1_555
H4 C7 1_555 1_555
C8 C5 1_555 1_555
C9 C8 1_555 1_555
H5 C9 1_555 1_555
H6 C9 1_555 1_555
C10 C8 1_555 1_555
H7 C10 1_555 1_555
H8 C10 1_555 1_555
C11 H9 1_555 1_555
H10 C11 1_555 1_555
C12 C9 1_555 1_555
C13 C12 1_555 1_555
C14 C13 1_555 1_555
H11 C14 1_555 1_555
C15 H12 1_555 1_555
C16 C15 1_555 1_555
C17 C16 1_555 1_555
C18 C14 1_555 1_555
H13 C18 1_555 1_555
C19 C13 1_555 1_555
H14 C19 1_555 1_555
C20 C12 1_555 1_555
H15 C20 1_555 1_555
H16 C20 1_555 1_555
C21 C10 1_555 1_555
C22 C21 1_555 1_555
C23 C22 1_555 1_555
H17 C23 1_555 1_555
C24 C23 1_555 1_555
H18 C24 1_555 1_555
C28 C22 1_555 1_555
H20 C28 1_555 1_555
C29 C21 1_555 1_555
H21 C29 1_555 1_555
H22 C29 1_555 1_555
C30 C11 1_555 1_555
C31 C30 1_555 1_555
C32 C31 1_555 1_555
H23 C32 1_555 1_555
C33 C32 1_555 1_555
H24 C33 1_555 1_555
C37 C31 1_555 1_555
H26 C37 1_555 1_555
C38 C8 1_555 1_555
H27 C38 1_555 1_555
H28 C38 1_555 1_555
N1 C1 1_555 1_555
N2 C17 1_555 1_555
Ag3 N1 1_555 1_555
N5 Ag3 1_555 1_555
N6 Ag3 1_555 1_555
Ag4 N2 1_555 1_555
C6 C7 1_555 1_555
C11 C12 1_555 1_555
C15 C19 1_555 1_555
C16 C18 1_555 1_555
C20 C21 1_555 1_555
C27 C28 1_555 1_555
C29 C30 1_555 1_555
C30 C38 1_555 1_555
C36 C37 1_555 1_555
C26 C25 1_555 1_555
N6 C26 1_555 1_555
C2_2 C3_2 1_555 1_555
C3_2 H1_2 1_555 1_555
C4_2 C3_2 1_555 1_555
H2_2 C4_2 1_555 1_555
C5_2 C4_2 1_555 1_555
C6_2 C5_2 1_555 1_555
C8_2 C5_2 1_555 1_555
C9_2 C8_2 1_555 1_555
H5_2 C9_2 1_555 1_555
H6_2 C9_2 1_555 1_555
C10_2 C8_2 1_555 1_555
H8_2 C10_2 1_555 1_555
C11_2 H9_2 1_555 1_555
H10_2 C11_2 1_555 1_555
C12_2 C9_2 1_555 1_555
C13_2 C12_2 1_555 1_555
C14_2 C13_2 1_555 1_555
H11_2 C14_2 1_555 1_555
C15_2 H12_2 1_555 1_555
C16_2 C15_2 1_555 1_555
C17_2 C16_2 1_555 1_555
C18_2 C14_2 1_555 1_555
H13_2 C18_2 1_555 1_555
C19_2 C13_2 1_555 1_555
H14_2 C19_2 1_555 1_555
C20_2 C12_2 1_555 1_555
H15_2 C20_2 1_555 1_555
H16_2 C20_2 1_555 1_555
C21_2 C10_2 1_555 1_555
C22_2 C21_2 1_555 1_555
C28_2 C22_2 1_555 1_555
H20_2 C28_2 1_555 1_555
C29_2 C21_2 1_555 1_555
H22_2 C29_2 1_555 1_555
C30_2 C11_2 1_555 1_555
C31_2 C30_2 1_555 1_555
C37_2 C31_2 1_555 1_555
H26_2 C37_2 1_555 1_555
C38_2 C8_2 1_555 1_555
H28_2 C38_2 1_555 1_555
N5 C17_2 1_555 1_555
C11_2 C12_2 1_555 1_555
C15_2 C19_2 1_555 1_555
C16_2 C18_2 1_555 1_555
C20_2 C21_2 1_555 1_555
C27_2 C28_2 1_555 1_555
C29_2 C30_2 1_555 1_555
C30_2 C38_2 1_555 1_555
C36_2 C37_2 1_555 1_555
C26_2 C25_2 1_555 1_555
N3 C26_2 1_555 1_555
Ag4 N3 1_555 1_555
H4_2 C7_2 1_555 1_555
H17_2 C23_2 1_555 1_555
C24_2 C23_2 1_555 1_555
H18_2 C24_2 1_555 1_555
H23_2 C32_2 1_555 1_555
C33_2 C32_2 1_555 1_555
H24_2 C33_2 1_555 1_555
N1_2 C1_2 1_555 1_555
Ag4 N1_2 1_555 1_555
N7 Ag4 1_555 1_555
C35_2 C34_2 1_555 1_555
N7 C35_2 1_555 1_555
H36 C51 1_555 1_555
C52 C51 1_555 1_555
C53 C52 1_555 1_555
N9 C53 1_555 1_555
Ag8 N9 1_555 1_555
H35 C50 1_555 1_555
H51 C70 1_555 1_555
C71 C70 1_555 1_555
H52 C71 1_555 1_555
C72 C71 1_555 1_555
C73 C72 1_555 1_555
N11 C73 1_555 1_555
Ag8 N11 1_555 1_555
C46 C43 1_555 1_555
C47 C46 1_555 1_555
H33 C47 1_555 1_555
H34 C47 1_555 1_555
C48 C47 1_555 1_555
C49 C48 1_555 1_555
H37 C54 1_555 1_555
C55 C49 1_555 1_555
H38 C55 1_555 1_555
C56 C48 1_555 1_555
H39 C56 1_555 1_555
H40 C56 1_555 1_555
C57 C48 1_555 1_555
H41 C57 1_555 1_555
H42 C57 1_555 1_555
C58 C46 1_555 1_555
H43 C58 1_555 1_555
H44 C58 1_555 1_555
C59 C56 1_555 1_555
C60 C59 1_555 1_555
C61 C60 1_555 1_555
H45 C61 1_555 1_555
C62 C61 1_555 1_555
H46 C62 1_555 1_555
C63 C62 1_555 1_555
C64 C63 1_555 1_555
C65 C63 1_555 1_555
H47 C65 1_555 1_555
C66 C60 1_555 1_555
H48 C66 1_555 1_555
C67 C59 1_555 1_555
H49 C67 1_555 1_555
H50 C67 1_555 1_555
C68 C57 1_555 1_555
C69 C68 1_555 1_555
H53 C74 1_555 1_555
C75 C69 1_555 1_555
H54 C75 1_555 1_555
C76 C46 1_555 1_555
H55 C76 1_555 1_555
H56 C76 1_555 1_555
N10 C64 1_555 1_555
Ag8 N10 1_555 1_555
C54 C55 1_555 1_555
C58 C59 1_555 1_555
C65 C66 1_555 1_555
C67 C68 1_555 1_555
C68 C76 1_555 1_555
C74 C75 1_555 1_555
C39 C40 1_555 1_555
C40 C41 1_555 1_555
C41 H29 1_555 1_555
C42 C41 1_555 1_555
C45 C40 1_555 1_555
H32 C45 1_555 1_555
N8 C39 1_555 1_555
Ag5 N8 1_555 1_555
N12 Ag5 1_555 1_555
N13 Ag5 1_555 1_555
N14 Ag5 1_555 1_555
C44 C45 1_555 1_555
C39_2 C40_2 1_555 1_555
C40_2 C41_2 1_555 1_555
C41_2 H29_2 1_555 1_555
C42_2 C41_2 1_555 1_555
H30_2 C42_2 1_555 1_555
C43_2 C42_2 1_555 1_555
C44_2 C43_2 1_555 1_555
H31_2 C44_2 1_555 1_555
C45_2 C40_2 1_555 1_555
H32_2 C45_2 1_555 1_555
C46_2 C43_2 1_555 1_555
C47_2 C46_2 1_555 1_555
H33_2 C47_2 1_555 1_555
H34_2 C47_2 1_555 1_555
C48_2 C47_2 1_555 1_555
C49_2 C48_2 1_555 1_555
H37_2 C54_2 1_555 1_555
C55_2 C49_2 1_555 1_555
H38_2 C55_2 1_555 1_555
C56_2 C48_2 1_555 1_555
H39_2 C56_2 1_555 1_555
H40_2 C56_2 1_555 1_555
C57_2 C48_2 1_555 1_555
H41_2 C57_2 1_555 1_555
H42_2 C57_2 1_555 1_555
C58_2 C46_2 1_555 1_555
H43_2 C58_2 1_555 1_555
H44_2 C58_2 1_555 1_555
C59_2 C56_2 1_555 1_555
C60_2 C59_2 1_555 1_555
C61_2 C60_2 1_555 1_555
H45_2 C61_2 1_555 1_555
C62_2 C61_2 1_555 1_555
H46_2 C62_2 1_555 1_555
C63_2 C62_2 1_555 1_555
C64_2 C63_2 1_555 1_555
C65_2 C63_2 1_555 1_555
H47_2 C65_2 1_555 1_555
C66_2 C60_2 1_555 1_555
H48_2 C66_2 1_555 1_555
C67_2 C59_2 1_555 1_555
H49_2 C67_2 1_555 1_555
H50_2 C67_2 1_555 1_555
C68_2 C57_2 1_555 1_555
C69_2 C68_2 1_555 1_555
H53_2 C74_2 1_555 1_555
C75_2 C69_2 1_555 1_555
H54_2 C75_2 1_555 1_555
C76_2 C46_2 1_555 1_555
H55_2 C76_2 1_555 1_555
H56_2 C76_2 1_555 1_555
N8_2 C39_2 1_555 1_555
N13 C64_2 1_555 1_555
Ag8 N8_2 1_555 1_555
C44_2 C45_2 1_555 1_555
C54_2 C55_2 1_555 1_555
C58_2 C59_2 1_555 1_555
C65_2 C66_2 1_555 1_555
C67_2 C68_2 1_555 1_555
C68_2 C76_2 1_555 1_555
C74_2 C75_2 1_555 1_555
H35_2 C50_2 1_555 1_555
H51_2 C70_2 1_555 1_555
C71_2 C70_2 1_555 1_555
H52_2 C71_2 1_555 1_555
C72_2 C71_2 1_555 1_555
C73_2 C72_2 1_555 1_555
N14 C73_2 1_555 1_555
H36_2 C51_2 1_555 1_555
C52_2 C51_2 1_555 1_555
C53_2 C52_2 1_555 1_555
N12 C53_2 1_555 1_555
C79 H57 1_555 1_555
C80 C79 1_555 1_555
H58 C80 1_555 1_555
H63 C88 1_555 1_555
C89 C88 1_555 1_555
H64 C89 1_555 1_555
C90 C89 1_555 1_555
C91 C90 1_555 1_555
N16 C91 1_555 1_555
Ag11 N16 1_555 1_555
C77 C78 1_555 1_555
N15 C77 1_555 1_555
Ag11 N15 1_555 1_555
N20 Ag11 1_555 1_555
N21 Ag11 1_555 1_555
H59 C82 1_555 1_555
H60 C83 1_555 1_555
C102 C101 1_555 1_555
C103 C101 1_555 1_555
H75 C103 1_555 1_555
H76 C104 1_555 1_555
N20 C102 1_555 1_555
C82 C83 1_555 1_555
C103 C104 1_555 1_555
C108 C107 1_555 1_555
H79 C108 1_555 1_555
C109 C108 1_555 1_555
H80 C109 1_555 1_555
C110 C109 1_555 1_555
C111 C110 1_555 1_555
C112 C110 1_555 1_555
H81 C112 1_555 1_555
C113 C107 1_555 1_555
H82 C113 1_555 1_555
N21 C111 1_555 1_555
C112 C113 1_555 1_555
C84 C81 1_555 1_555
C85 C84 1_555 1_555
H61 C85 1_555 1_555
H62 C85 1_555 1_555
C86 C85 1_555 1_555
C87 C86 1_555 1_555
H65 C92 1_555 1_555
C93 C87 1_555 1_555
H66 C93 1_555 1_555
C94 C86 1_555 1_555
H67 C94 1_555 1_555
H68 C94 1_555 1_555
C95 C86 1_555 1_555
H69 C95 1_555 1_555
H70 C95 1_555 1_555
C96 C84 1_555 1_555
H71 C96 1_555 1_555
H72 C96 1_555 1_555
C97 C94 1_555 1_555
C98 C97 1_555 1_555
C99 C98 1_555 1_555
H73 C99 1_555 1_555
C100 C99 1_555 1_555
H74 C100 1_555 1_555
C105 C97 1_555 1_555
H77 C105 1_555 1_555
H78 C105 1_555 1_555
C106 C95 1_555 1_555
C107_2 C106 1_555 1_555
C108_2 C107_2 1_555 1_555
H79_2 C108_2 1_555 1_555
C109_2 C108_2 1_555 1_555
H80_2 C109_2 1_555 1_555
C110_2 C109_2 1_555 1_555
C111_2 C110_2 1_555 1_555
C112_2 C110_2 1_555 1_555
H81_2 C112_2 1_555 1_555
C113_2 C107_2 1_555 1_555
H82_2 C113_2 1_555 1_555
C114 C84 1_555 1_555
H83 C114 1_555 1_555
H84 C114 1_555 1_555
N18 C111_2 1_555 1_555
Ag12 N18 1_555 1_555
C92 C93 1_555 1_555
C96 C97 1_555 1_555
C105 C106 1_555 1_555
C106 C114 1_555 1_555
C112_2 C113_2 1_555 1_555
H59_2 C82_2 1_555 1_555
H60_2 C83_2 1_555 1_555
C102_2 C101_2 1_555 1_555
C103_2 C101_2 1_555 1_555
H75_2 C103_2 1_555 1_555
H76_2 C104_2 1_555 1_555
N17 C102_2 1_555 1_555
Ag12 N17 1_555 1_555
C82_2 C83_2 1_555 1_555
C103_2 C104_2 1_555 1_555
C77_2 C78_2 1_555 1_555
N15_2 C77_2 1_555 1_555
Ag12 N15_2 1_555 1_555
N19 Ag12 1_555 1_555
C79_2 H57_2 1_555 1_555
C80_2 C79_2 1_555 1_555
H58_2 C80_2 1_555 1_555
H63_2 C88_2 1_555 1_555
C89_2 C88_2 1_555 1_555
H64_2 C89_2 1_555 1_555
C90_2 C89_2 1_555 1_555
C91_2 C90_2 1_555 1_555
N19 C91_2 1_555 1_555
C84_2 C81_2 1_555 1_555
C85_2 C84_2 1_555 1_555
H61_2 C85_2 1_555 1_555
H62_2 C85_2 1_555 1_555
C86_2 C85_2 1_555 1_555
C87_2 C86_2 1_555 1_555
H65_2 C92_2 1_555 1_555
C93_2 C87_2 1_555 1_555
H66_2 C93_2 1_555 1_555
C94_2 C86_2 1_555 1_555
H67_2 C94_2 1_555 1_555
H68_2 C94_2 1_555 1_555
C95_2 C86_2 1_555 1_555
H69_2 C95_2 1_555 1_555
H70_2 C95_2 1_555 1_555
C96_2 C84_2 1_555 1_555
H71_2 C96_2 1_555 1_555
H72_2 C96_2 1_555 1_555
C97_2 C94_2 1_555 1_555
C98_2 C97_2 1_555 1_555
C99_2 C98_2 1_555 1_555
H73_2 C99_2 1_555 1_555
C100_2 C99_2 1_555 1_555
H74_2 C100_2 1_555 1_555
C105_2 C97_2 1_555 1_555
H77_2 C105_2 1_555 1_555
H78_2 C105_2 1_555 1_555
C106_2 C95_2 1_555 1_555
C114_2 C84_2 1_555 1_555
H83_2 C114_2 1_555 1_555
H84_2 C114_2 1_555 1_555
C92_2 C93_2 1_555 1_555
C96_2 C97_2 1_555 1_555
C105_2 C106_2 1_555 1_555
C106_2 C114_2 1_555 1_555

#END
