
###############################################################################
#
# This file contains modified crystal structure data generated from the
# MOF subset of the Cambridge Structural Database (CSD) v543 
# hosted by the Cambridge Crystallographic Data Centre (CCDC).
#
# This work is licensed under the Creative Commons
# Attribution-NonCommercial-ShareAlike 4.0 International License.
# To view a copy of this license, visit
# http://creativecommons.org/licenses/by-nc-sa/4.0/
# or send a letter to
# Creative Commons, PO Box 1866, Mountain View, CA 94042, USA.
#
# CIF created using the CSD Python API on 29 September 2022
# The structure has been converted into the P1 space group
# The structure has a 3D framework
# The original CSD entry FAKLOU is in the trigonal crystal system
# The framework has been calculated to contain at least 10.0% void space
# The void calculation uses a probe of radius 1.32A, grid spacing 0.4
# The framework is charged, counterions have been retained in the structure
#
###############################################################################

data_FAKLOU
_chemical_formula_moiety         '(C44 H12 Cd2 N12 1-)n'
_symmetry_cell_setting           triclinic
_symmetry_space_group_name_H-M   'P 1'
_symmetry_Int_Tables_number      1
_space_group_name_Hall           'P 1'
loop_
_symmetry_equiv_pos_site_id
_symmetry_equiv_pos_as_xyz
1 x,y,z
_cell_length_a                   12.9515(4)
_cell_length_b                   12.9515(4)
_cell_length_c                   10.8818(2)
_cell_angle_alpha                90
_cell_angle_beta                 90
_cell_angle_gamma                120
_cell_volume                     1580.78
loop_
_atom_site_label
_atom_site_type_symbol
_atom_site_fract_x
_atom_site_fract_y
_atom_site_fract_z
Cd11 Cd 0.6667 0.3334 0.5000
N19 N 0.5180(4) 0.1920(6) 0.3758(3)
C13 C 0.4419(4) -0.0000(6) 0.2564(3)
C24 C 0.4713(4) -0.0000(6) 0.1258(3)
C44 C 0.5386(4) 0.1049(6) 0.0615(3)
H19 H 0.5666 0.1789 0.1027
C67 C 0.4844(4) 0.1061(6) 0.3220(3)
N20 N 0.6740(4) 0.1920(6) 0.6242(3)
C12 C 0.5581(4) -0.0000(6) 0.7436(3)
C23 C 0.5287(4) 0.0000(6) 0.8742(3)
C45 C 0.5663(4) 0.1049(6) 0.9385(3)
H18 H 0.6123 0.1789 0.8973
C68 C 0.6217(4) 0.1061(6) 0.6780(3)
Cd7 Cd 0.3333 0.6667 0.5000
N10 N 0.4820(4) 0.6740(4) 0.3758(3)
N11 N 0.6740(4) 0.4820(4) 0.3758(3)
N18 N 0.3260(4) 0.8080(6) 0.3758(3)
N22 N 0.1920(6) 0.5180(4) 0.3758(3)
C9 C 0.5581(4) 0.5581(4) 0.2564(3)
C13_2 C 0.4419(4) 1.0000(6) 0.2564(3)
C15 C 0.0000(6) 0.4419(4) 0.2564(3)
C20 C 0.5287(4) 0.5287(4) 0.1258(3)
C24_2 C 0.4713(4) 1.0000(6) 0.1258(3)
C26 C 0.0000(6) 0.4713(4) 0.1258(3)
C35 C 0.4614(4) 0.5663(4) 0.0615(3)
C36 C 0.5663(4) 0.4614(4) 0.0615(3)
C43 C 0.4337(4) 0.8951(6) 0.0615(3)
C47 C 0.1049(6) 0.5386(4) 0.0615(3)
H11 H 0.6123 0.4334 0.1027
H12 H 0.4334 0.6123 0.1027
H20 H 0.3877 0.8211 0.1027
H24 H 0.1789 0.5666 0.1027
C58 C 0.5156(4) 0.6217(4) 0.3220(3)
C59 C 0.6217(4) 0.5156(4) 0.3220(3)
C66 C 0.3783(4) 0.8939(6) 0.3220(3)
C70 C 0.1061(6) 0.4844(4) 0.3220(3)
N9 N 0.3260(4) 0.5180(4) 0.6242(3)
N12 N 0.5180(4) 0.3260(4) 0.6242(3)
N17 N 0.4820(4) 0.8080(6) 0.6242(3)
N21 N 0.1920(6) 0.6740(4) 0.6242(3)
N33 N 0.8080(6) 0.3260(4) 0.3758(3)
N35 N 0.8080(6) 0.4820(4) 0.6242(3)
C8 C 0.4419(4) 0.4419(4) 0.7436(3)
C12_2 C 0.5581(4) 1.0000(6) 0.7436(3)
C14 C -0.0000(6) 0.5581(4) 0.7436(3)
C19 C 0.4713(4) 0.4713(4) 0.8742(3)
C23_2 C 0.5287(4) 1.0000(6) 0.8742(3)
C25 C -0.0000(6) 0.5287(4) 0.8742(3)
C34 C 0.4337(4) 0.5386(4) 0.9385(3)
C37 C 0.5386(4) 0.4337(4) 0.9385(3)
C42 C 0.4614(4) 0.8951(6) 0.9385(3)
C46 C 0.1049(6) 0.5663(4) 0.9385(3)
H9 H 0.3877 0.5666 0.8973
H10 H 0.5666 0.3877 0.8973
H17 H 0.4334 0.8211 0.8973
H21 H 0.1789 0.6123 0.8973
C57 C 0.3783(4) 0.4844(4) 0.6780(3)
C60 C 0.4844(4) 0.3783(4) 0.6780(3)
C65 C 0.5156(4) 0.8939(6) 0.6780(3)
C69 C 0.1061(6) 0.6217(4) 0.6780(3)
C15_2 C 1.0000(6) 0.4419(4) 0.2564(3)
C26_2 C 1.0000(6) 0.4713(4) 0.1258(3)
C48 C 0.8951(6) 0.4337(4) 0.0615(3)
H23 H 0.8211 0.3877 0.1027
C71 C 0.8939(6) 0.3783(4) 0.3220(3)
C14_2 C 1.0000(6) 0.5581(4) 0.7436(3)
C25_2 C 1.0000(6) 0.5287(4) 0.8742(3)
C49 C 0.8951(6) 0.4614(4) 0.9385(3)
H22 H 0.8211 0.4334 0.8973
C72 C 0.8939(6) 0.5156(4) 0.6780(3)
loop_
_geom_bond_atom_site_label_1
_geom_bond_atom_site_label_2
_geom_bond_site_symmetry_1
_geom_bond_site_symmetry_2
Cd11 N19 1_555 1_555
N19 C67 1_555 1_555
C13 C24 1_555 1_555
C44 C24 1_555 1_555
H19 C44 1_555 1_555
C67 C13 1_555 1_555
N20 Cd11 1_555 1_555
C12 C23 1_555 1_555
C45 C23 1_555 1_555
H18 C45 1_555 1_555
C68 N20 1_555 1_555
C12 C68 1_555 1_555
Cd7 N10 1_555 1_555
Cd11 N11 1_555 1_555
N10 C58 1_555 1_555
N11 C59 1_555 1_555
N18 Cd7 1_555 1_555
N22 Cd7 1_555 1_555
C9 C20 1_555 1_555
C13_2 C24_2 1_555 1_555
C15 C26 1_555 1_555
C20 C35 1_555 1_555
C24_2 C43 1_555 1_555
C26 C47 1_555 1_555
C35 H12 1_555 1_555
C36 C20 1_555 1_555
C43 H20 1_555 1_555
C47 H24 1_555 1_555
H11 C36 1_555 1_555
C58 C9 1_555 1_555
C59 C9 1_555 1_555
C66 N18 1_555 1_555
C70 N22 1_555 1_555
C13_2 C66 1_555 1_555
C15 C70 1_555 1_555
N9 Cd7 1_555 1_555
N12 Cd11 1_555 1_555
N17 Cd7 1_555 1_555
N21 Cd7 1_555 1_555
N33 Cd11 1_555 1_555
N35 Cd11 1_555 1_555
C8 C19 1_555 1_555
C12_2 C23_2 1_555 1_555
C14 C25 1_555 1_555
C19 C34 1_555 1_555
C23_2 C42 1_555 1_555
C25 C46 1_555 1_555
C37 C19 1_555 1_555
H9 C34 1_555 1_555
H10 C37 1_555 1_555
H17 C42 1_555 1_555
H21 C46 1_555 1_555
C57 N9 1_555 1_555
C60 N12 1_555 1_555
C65 N17 1_555 1_555
C69 N21 1_555 1_555
C8 C57 1_555 1_555
C8 C60 1_555 1_555
C12_2 C65 1_555 1_555
C14 C69 1_555 1_555
N33 C71 1_555 1_555
C15_2 C26_2 1_555 1_555
C48 C26_2 1_555 1_555
H23 C48 1_555 1_555
C71 C15_2 1_555 1_555
C14_2 C25_2 1_555 1_555
C49 C25_2 1_555 1_555
H22 C49 1_555 1_555
C72 N35 1_555 1_555
C14_2 C72 1_555 1_555

#END
