
###############################################################################
#
# This file contains modified crystal structure data generated from the
# MOF subset of the Cambridge Structural Database (CSD) v543 
# hosted by the Cambridge Crystallographic Data Centre (CCDC).
#
# This work is licensed under the Creative Commons
# Attribution-NonCommercial-ShareAlike 4.0 International License.
# To view a copy of this license, visit
# http://creativecommons.org/licenses/by-nc-sa/4.0/
# or send a letter to
# Creative Commons, PO Box 1866, Mountain View, CA 94042, USA.
#
# CIF created using the CSD Python API on 29 September 2022
# The structure has been converted into the P1 space group
# The structure has a 3D framework
# The original CSD entry FAKLIO is in the trigonal crystal system
# The framework has been calculated to contain at least 10.0% void space
# The void calculation uses a probe of radius 1.32A, grid spacing 0.4
# The framework is charged, counterions have been retained in the structure
#
###############################################################################

data_FAKLIO
_chemical_formula_moiety         '(C44 H12 Mn2 N12 1-)n'
_symmetry_cell_setting           triclinic
_symmetry_space_group_name_H-M   'P 1'
_symmetry_Int_Tables_number      1
_space_group_name_Hall           'P 1'
loop_
_symmetry_equiv_pos_site_id
_symmetry_equiv_pos_as_xyz
1 x,y,z
_cell_length_a                   13.0158(9)
_cell_length_b                   13.0158(9)
_cell_length_c                   10.8532(4)
_cell_angle_alpha                90
_cell_angle_beta                 90
_cell_angle_gamma                120
_cell_volume                     1592.32
loop_
_atom_site_label
_atom_site_type_symbol
_atom_site_fract_x
_atom_site_fract_y
_atom_site_fract_z
Mn8 Mn 0.3334 0.6667 0.0000
Mn8_2 Mn 0.3334 0.6667 1.0000
N10 N 0.1930(6) 0.6606(4) 0.1200(3)
N12 N 0.1930(6) 0.5324(4) 0.8800(3)
C13 C 0.1050(7) 0.6085(5) 0.1742(3)
C15 C 0.1050(7) 0.4965(5) 0.8258(3)
C31 C -0.0000(8) 0.5460(6) 0.2395(5)
C32 C -0.0000(8) 0.4540(6) 0.7605(5)
C42 C 0.0000(8) 0.5223(6) 0.3736(5)
C43 C -0.0000(8) 0.4777(6) 0.6264(5)
C57 C 0.1070(7) 0.5650(5) 0.4377(4)
C58 C 0.1070(7) 0.5420(5) 0.5623(4)
H9 H 0.1802 0.6100 0.3954
H12 H 0.1802 0.5702 0.6046
Mn3 Mn 0.6667 0.3333 0.0000
N29 N 0.5324(4) 0.3394(4) 0.1200(3)
N30 N 0.8070(6) 0.4676(4) 0.1200(3)
N31 N 0.6606(4) 0.1930(6) 0.1200(3)
N34 N 0.3394(4) 0.5324(4) 0.1200(3)
N35 N 0.4676(4) 0.8070(6) 0.1200(3)
C1 C 0.4965(5) 0.3915(5) 0.1742(3)
C2 C 0.4540(6) 0.4540(6) 0.2395(5)
C3 C 0.4777(6) 0.4777(6) 0.3736(5)
C4 C 0.4350(5) 0.5420(5) 0.4377(4)
H1 H 0.3900 0.5702 0.3954
Mn3_2 Mn 0.6667 0.3333 1.0000
N3 N 0.6606(4) 0.4676(4) 0.8800(3)
N4 N 0.4676(4) 0.6606(4) 0.8800(3)
N7 N 0.5324(4) 0.1930(6) 0.8800(3)
N11 N 0.8070(6) 0.3394(4) 0.8800(3)
N32 N 0.3394(4) 0.8070(6) 0.8800(3)
C5 C 0.3915(5) 0.4965(5) 0.1742(3)
C6 C 0.6085(5) 0.5035(5) 0.8258(3)
C7 C 0.5035(5) 0.6085(5) 0.8258(3)
C8 C 0.6085(5) 0.1050(7) 0.1742(3)
C10 C 0.4965(5) 0.1050(7) 0.8258(3)
C12 C 0.8950(7) 0.5035(5) 0.1742(3)
C14 C 0.8950(7) 0.3915(5) 0.8258(3)
C28 C 0.5460(6) 0.5460(6) 0.7605(5)
C29 C 0.5460(6) 0.0000(8) 0.2395(5)
C30 C 0.4540(6) -0.0000(8) 0.7605(5)
C31_2 C 1.0000(8) 0.5460(6) 0.2395(5)
C32_2 C 1.0000(8) 0.4540(6) 0.7605(5)
C39 C 0.5223(6) 0.5223(6) 0.6264(5)
C40 C 0.5223(6) 0.0000(8) 0.3736(5)
C41 C 0.4777(6) -0.0000(8) 0.6264(5)
C42_2 C 1.0000(8) 0.5223(6) 0.3736(5)
C43_2 C 1.0000(8) 0.4777(6) 0.6264(5)
C50 C 0.4580(5) 0.5650(5) 0.5623(4)
C51 C 0.5650(5) 0.4580(5) 0.5623(4)
C52 C 0.5420(5) 0.4350(5) 0.4377(4)
C55 C 0.5420(5) 0.1070(7) 0.5623(4)
C56 C 0.5650(5) 0.1070(7) 0.4377(4)
C59 C 0.8930(7) 0.4350(5) 0.5623(4)
C60 C 0.8930(7) 0.4580(5) 0.4377(4)
H2 H 0.5702 0.3900 0.3954
H3 H 0.6100 0.4298 0.6046
H4 H 0.4298 0.6100 0.6046
H6 H 0.6100 0.1802 0.3954
H7 H 0.5702 0.1802 0.6046
H10 H 0.8198 0.4298 0.3954
H11 H 0.8198 0.3900 0.6046
C9 C 0.5035(5) 0.8950(7) 0.1742(3)
C11 C 0.3915(5) 0.8950(7) 0.8258(3)
C29_2 C 0.5460(6) 1.0000(8) 0.2395(5)
C30_2 C 0.4540(6) 1.0000(8) 0.7605(5)
C40_2 C 0.5223(6) 1.0000(8) 0.3736(5)
C41_2 C 0.4777(6) 1.0000(8) 0.6264(5)
C53 C 0.4580(5) 0.8930(7) 0.4377(4)
C54 C 0.4350(5) 0.8930(7) 0.5623(4)
H5 H 0.4298 0.8198 0.3954
H8 H 0.3900 0.8198 0.6046
loop_
_geom_bond_atom_site_label_1
_geom_bond_atom_site_label_2
_geom_bond_site_symmetry_1
_geom_bond_site_symmetry_2
Mn8 N10 1_555 1_555
Mn8_2 N12 1_555 1_555
N10 C13 1_555 1_555
N12 C15 1_555 1_555
C13 C31 1_555 1_555
C15 C32 1_555 1_555
C42 C31 1_555 1_555
C43 C32 1_555 1_555
C57 C42 1_555 1_555
C58 C43 1_555 1_555
H9 C57 1_555 1_555
H12 C58 1_555 1_555
C57 C58 1_555 1_555
N29 Mn3 1_555 1_555
N30 Mn3 1_555 1_555
N31 Mn3 1_555 1_555
N34 Mn8 1_555 1_555
N35 Mn8 1_555 1_555
N29 C1 1_555 1_555
C1 C2 1_555 1_555
C2 C3 1_555 1_555
C3 C4 1_555 1_555
C4 H1 1_555 1_555
Mn3_2 N3 1_555 1_555
Mn8_2 N4 1_555 1_555
N34 C5 1_555 1_555
N3 C6 1_555 1_555
N4 C7 1_555 1_555
N7 Mn3_2 1_555 1_555
N11 Mn3_2 1_555 1_555
N32 Mn8_2 1_555 1_555
C5 C2 1_555 1_555
C6 C28 1_555 1_555
C7 C28 1_555 1_555
C8 N31 1_555 1_555
C10 N7 1_555 1_555
C12 N30 1_555 1_555
C14 N11 1_555 1_555
C28 C39 1_555 1_555
C29 C8 1_555 1_555
C30 C10 1_555 1_555
C31_2 C12 1_555 1_555
C32_2 C14 1_555 1_555
C39 C50 1_555 1_555
C40 C29 1_555 1_555
C41 C30 1_555 1_555
C42_2 C31_2 1_555 1_555
C43_2 C32_2 1_555 1_555
C50 C4 1_555 1_555
C51 C39 1_555 1_555
C52 C3 1_555 1_555
C55 C41 1_555 1_555
C56 C40 1_555 1_555
C59 C43_2 1_555 1_555
C60 C42_2 1_555 1_555
H2 C52 1_555 1_555
H3 C51 1_555 1_555
H4 C50 1_555 1_555
H6 C56 1_555 1_555
H7 C55 1_555 1_555
H10 C60 1_555 1_555
H11 C59 1_555 1_555
C51 C52 1_555 1_555
C55 C56 1_555 1_555
C59 C60 1_555 1_555
N35 C9 1_555 1_555
N32 C11 1_555 1_555
C9 C29_2 1_555 1_555
C11 C30_2 1_555 1_555
C40_2 C29_2 1_555 1_555
C41_2 C30_2 1_555 1_555
C53 C40_2 1_555 1_555
C54 C41_2 1_555 1_555
H5 C53 1_555 1_555
H8 C54 1_555 1_555
C53 C54 1_555 1_555

#END
