
###############################################################################
#
# This file contains modified crystal structure data generated from the
# MOF subset of the Cambridge Structural Database (CSD) v543 
# hosted by the Cambridge Crystallographic Data Centre (CCDC).
#
# This work is licensed under the Creative Commons
# Attribution-NonCommercial-ShareAlike 4.0 International License.
# To view a copy of this license, visit
# http://creativecommons.org/licenses/by-nc-sa/4.0/
# or send a letter to
# Creative Commons, PO Box 1866, Mountain View, CA 94042, USA.
#
# CIF created using the CSD Python API on 29 September 2022
# The structure has been converted into the P1 space group
# The structure has a 3D framework
# The original CSD entry FAKMIR is in the hexagonal crystal system
# The framework has been calculated to contain at least 10.0% void space
# The void calculation uses a probe of radius 1.32A, grid spacing 0.4
# H atom positions have been added when not included in the experimental data
# Generated hydrogen atom positions removed from atoms on special positions
#
###############################################################################

data_FAKMIR
_chemical_formula_moiety         '(C264 H324 O124 Zr32)n'
_symmetry_cell_setting           triclinic
_symmetry_space_group_name_H-M   'P 1'
_symmetry_Int_Tables_number      1
_space_group_name_Hall           'P 1'
loop_
_symmetry_equiv_pos_site_id
_symmetry_equiv_pos_as_xyz
1 x,y,z
_cell_length_a                   39.587(3)
_cell_length_b                   39.587(3)
_cell_length_c                   16.4985(18)
_cell_angle_alpha                90
_cell_angle_beta                 90
_cell_angle_gamma                120
_cell_volume                     22391.3
loop_
_atom_site_label
_atom_site_type_symbol
_atom_site_fract_x
_atom_site_fract_y
_atom_site_fract_z
Zr4 Zr 0.07114(3) 0.53557(2) 0.0000
Zr6 Zr 0.46443(2) 0.53557(4) 0.0000
Zr2 Zr 0.0000 0.45500(2) 0.10783(5)
O1 O 0.10444(13) 0.51880(16) 0.0806(2)
O2 O 0.05915(16) 0.46781(19) 0.1521(3)
O3 O 0.03598(17) 0.46955(16) 0.0000
O4 O -0.0000 0.4585(2) 0.2410(5)
O5 O -0.0000 0.3998(2) 0.0998(6)
C1 C 0.0943(2) 0.4938(3) 0.1336(5)
C2 C 0.1258(2) 0.4934(3) 0.1834(5)
C3 C 0.1171(3) 0.4651(3) 0.2428(5)
H1 H 0.0910 0.4445 0.2504
C4 C 0.1479(3) 0.4678(3) 0.2917(5)
H2 H 0.1422 0.4493 0.3336
C5 C 0.1860(2) 0.4967(3) 0.2797(5)
C6 C 0.1932(3) 0.5237(3) 0.2195(5)
H3 H 0.2192 0.5444 0.2110
C7 C 0.1637(2) 0.5213(3) 0.1715(5)
H4 H 0.1700 0.5396 0.1289
C8 C 0.2178(3) 0.4966(3) 0.3291(5)
C9 C 0.2478(2) 0.4956(5) 0.2884(8)
H5 H 0.2471 0.4941 0.2309
C10 C 0.2177(3) 0.4981(4) 0.4147(5)
C11 C 0.1882(3) 0.4992(3) 0.4583(5)
H6 H 0.1677 0.5000 0.4300
C12 C 0.2482(3) 0.4965(5) 0.4574(7)
O6 O 0.0353(4) 0.51767(18) 0.1081(7)
O7 O 0.41436(21) 0.51880(16) 0.9194(2)
O8 O 0.40866(25) 0.46781(19) 0.8479(3)
C13 C 0.3995(4) 0.4938(3) 0.8664(5)
C14 C 0.3676(4) 0.4934(3) 0.8166(5)
C15 C 0.3480(4) 0.4651(3) 0.7572(5)
H7 H 0.3535 0.4445 0.7496
C16 C 0.3199(4) 0.4678(3) 0.7083(5)
H8 H 0.3071 0.4493 0.6664
C17 C 0.3107(4) 0.4967(3) 0.7203(5)
C18 C 0.3305(4) 0.5237(3) 0.7805(5)
H9 H 0.3252 0.5444 0.7890
C19 C 0.3576(4) 0.5213(3) 0.8285(5)
H10 H 0.3696 0.5396 0.8711
C20 C 0.2788(4) 0.4966(3) 0.6709(5)
C21 C 0.2478(5) 0.4956(5) 0.7116(8)
H11 H 0.2470 0.4941 0.7691
C22 C 0.2804(5) 0.4981(4) 0.5853(5)
C23 C 0.3110(4) 0.4992(3) 0.5417(5)
H12 H 0.3323 0.5000 0.5700
C24 C 0.2483(6) 0.4965(5) 0.5426(7)
O9 O 0.10444(13) 0.51880(16) 0.9194(2)
O10 O 0.05915(16) 0.46781(19) 0.8479(3)
C25 C 0.0943(2) 0.4938(3) 0.8664(5)
C26 C 0.1258(2) 0.4934(3) 0.8166(5)
C27 C 0.1171(3) 0.4651(3) 0.7572(5)
H13 H 0.0910 0.4445 0.7496
C28 C 0.1479(3) 0.4678(3) 0.7083(5)
H14 H 0.1422 0.4493 0.6664
C29 C 0.1860(2) 0.4967(3) 0.7203(5)
C30 C 0.1932(3) 0.5237(3) 0.7805(5)
H15 H 0.2192 0.5444 0.7890
C31 C 0.1637(2) 0.5213(3) 0.8285(5)
H16 H 0.1700 0.5396 0.8711
C32 C 0.2178(3) 0.4966(3) 0.6709(5)
C33 C 0.2177(3) 0.4981(4) 0.5853(5)
C34 C 0.1882(3) 0.4992(3) 0.5417(5)
H17 H 0.1677 0.5000 0.5700
O11 O 0.41436(21) 0.51880(16) 0.0806(2)
O12 O 0.40866(25) 0.46781(19) 0.1521(3)
C35 C 0.3995(4) 0.4938(3) 0.1336(5)
C36 C 0.3676(4) 0.4934(3) 0.1834(5)
C37 C 0.3480(4) 0.4651(3) 0.2428(5)
H18 H 0.3535 0.4445 0.2504
C38 C 0.3199(4) 0.4678(3) 0.2917(5)
H19 H 0.3071 0.4493 0.3336
C39 C 0.3107(4) 0.4967(3) 0.2797(5)
C40 C 0.3305(4) 0.5237(3) 0.2195(5)
H20 H 0.3252 0.5444 0.2110
C41 C 0.3576(4) 0.5213(3) 0.1715(5)
H21 H 0.3696 0.5396 0.1289
C42 C 0.2788(4) 0.4966(3) 0.3291(5)
C43 C 0.2804(5) 0.4981(4) 0.4147(5)
C44 C 0.3110(4) 0.4992(3) 0.4583(5)
H22 H 0.3323 0.5000 0.4300
O13 O 0.03598(17) 0.56643(23) 0.0000
Zr4_2 Zr 0.07114(3) 0.53557(2) 1.0000
Zr6_2 Zr 0.46443(2) 0.53557(4) 1.0000
Zr7 Zr 0.0000 0.54500(2) 0.10783(5)
Zr8 Zr 0.45500(2) 0.45500(2) 0.10783(5)
Zr9 Zr 0.45500(2) 0.45500(2) 0.89217(5)
Zr11 Zr 0.0000 0.45500(2) 0.89217(5)
O19 O 0.10444(13) 0.58564(21) 0.0806(2)
O3_2 O 0.03598(17) 0.46955(16) 1.0000
Zr3 Zr 0.0000 0.54500(2) 0.89217(5)
O13_2 O 0.03598(17) 0.56643(23) 1.0000
O14 O 0.0000 0.5415(2) 0.7590(5)
O15 O 0.0000 0.6002(2) 0.9002(6)
O16 O 0.0353(4) 0.51763(44) 0.8919(7)
O17 O 0.10444(13) 0.58564(21) 0.9194(2)
O20 O 0.05915(16) 0.59134(25) 0.8479(3)
Zr2_2 Zr 1.0000 0.45500(2) 0.10783(5)
O4_2 O 1.0000 0.4585(2) 0.2410(5)
O5_2 O 1.0000 0.3998(2) 0.0998(6)
Zr7_2 Zr 1.0000 0.54500(2) 0.10783(5)
Zr11_2 Zr 1.0000 0.45500(2) 0.89217(5)
O22 O 0.94085(16) 0.40866(25) 0.1521(3)
O23 O 0.96402(17) 0.53045(16) 0.0000
O24 O 0.96402(17) 0.43357(23) 0.0000
O25 O 0.9647(4) 0.48233(18) 0.1081(7)
Zr3_2 Zr 1.0000 0.54500(2) 0.89217(5)
O14_2 O 1.0000 0.5415(2) 0.7590(5)
O15_2 O 1.0000 0.6002(2) 0.9002(6)
O21 O 0.94085(16) 0.53219(19) 0.8479(3)
O23_2 O 0.96402(17) 0.53045(16) 1.0000
O24_2 O 0.96402(17) 0.43357(23) 1.0000
O26 O 0.9647(4) 0.48237(44) 0.8919(7)
Zr4_3 Zr 0.53557(4) 0.07114(3) 0.0000
Zr6_3 Zr 0.92886(4) 0.46443(2) 0.0000
Zr2_3 Zr 0.54500(2) 0.0000 0.10783(5)
O1_2 O 0.58564(21) 0.10444(13) 0.0806(2)
O2_2 O 0.59134(25) 0.05915(16) 0.1521(3)
O3_3 O 0.56643(23) 0.03598(17) 0.0000
O4_3 O 0.5415(2) -0.0000 0.2410(5)
O5_3 O 0.6002(2) -0.0000 0.0998(6)
C1_2 C 0.6005(4) 0.0943(2) 0.1336(5)
C2_2 C 0.6324(4) 0.1258(2) 0.1834(5)
C3_2 C 0.6520(4) 0.1171(3) 0.2428(5)
H1_2 H 0.6465 0.0910 0.2504
C4_2 C 0.6801(4) 0.1479(3) 0.2917(5)
H2_2 H 0.6929 0.1422 0.3336
C5_2 C 0.6893(4) 0.1860(2) 0.2797(5)
C6_2 C 0.6695(4) 0.1932(3) 0.2195(5)
H3_2 H 0.6748 0.2192 0.2110
C7_2 C 0.6424(4) 0.1637(2) 0.1715(5)
H4_2 H 0.6304 0.1700 0.1289
C8_2 C 0.7212(4) 0.2178(3) 0.3291(5)
C9_2 C 0.7522(5) 0.2478(2) 0.2884(8)
H5_2 H 0.7530 0.2471 0.2309
C10_2 C 0.7196(5) 0.2177(3) 0.4147(5)
C11_2 C 0.6890(4) 0.1882(3) 0.4583(5)
H6_2 H 0.6677 0.1677 0.4300
C12_2 C 0.7517(6) 0.2482(3) 0.4574(7)
O6_2 O 0.51763(44) 0.0353(4) 0.1081(7)
O7_2 O 0.89556(26) 0.41436(21) 0.9194(2)
O8_2 O 0.94085(31) 0.40866(25) 0.8479(3)
C13_2 C 0.9057(5) 0.3995(4) 0.8664(5)
C14_2 C 0.8742(5) 0.3676(4) 0.8166(5)
C15_2 C 0.8829(5) 0.3480(4) 0.7572(5)
H7_2 H 0.9090 0.3535 0.7496
C16_2 C 0.8521(5) 0.3199(4) 0.7083(5)
H8_2 H 0.8578 0.3071 0.6664
C17_2 C 0.8140(5) 0.3107(4) 0.7203(5)
C18_2 C 0.8068(5) 0.3305(4) 0.7805(5)
H9_2 H 0.7808 0.3252 0.7890
C19_2 C 0.8363(5) 0.3576(4) 0.8285(5)
H10_2 H 0.8300 0.3696 0.8711
C20_2 C 0.7822(5) 0.2788(4) 0.6709(5)
C21_2 C 0.7522(7) 0.2478(5) 0.7116(8)
H11_2 H 0.7529 0.2470 0.7691
C22_2 C 0.7823(6) 0.2804(5) 0.5853(5)
C23_2 C 0.8118(5) 0.3110(4) 0.5417(5)
H12_2 H 0.8323 0.3323 0.5700
C24_2 C 0.7518(8) 0.2483(6) 0.5426(7)
O9_2 O 0.58564(21) 0.10444(13) 0.9194(2)
O10_2 O 0.59134(25) 0.05915(16) 0.8479(3)
C25_2 C 0.6005(4) 0.0943(2) 0.8664(5)
C26_2 C 0.6324(4) 0.1258(2) 0.8166(5)
C27_2 C 0.6520(4) 0.1171(3) 0.7572(5)
H13_2 H 0.6465 0.0910 0.7496
C28_2 C 0.6801(4) 0.1479(3) 0.7083(5)
H14_2 H 0.6929 0.1422 0.6664
C29_2 C 0.6893(4) 0.1860(2) 0.7203(5)
C30_2 C 0.6695(4) 0.1932(3) 0.7805(5)
H15_2 H 0.6748 0.2192 0.7890
C31_2 C 0.6424(4) 0.1637(2) 0.8285(5)
H16_2 H 0.6304 0.1700 0.8711
C32_2 C 0.7212(4) 0.2178(3) 0.6709(5)
C33_2 C 0.7196(5) 0.2177(3) 0.5853(5)
C34_2 C 0.6890(4) 0.1882(3) 0.5417(5)
H17_2 H 0.6677 0.1677 0.5700
O11_2 O 0.89556(26) 0.41436(21) 0.0806(2)
C35_2 C 0.9057(5) 0.3995(4) 0.1336(5)
C36_2 C 0.8742(5) 0.3676(4) 0.1834(5)
C37_2 C 0.8829(5) 0.3480(4) 0.2428(5)
H18_2 H 0.9090 0.3535 0.2504
C38_2 C 0.8521(5) 0.3199(4) 0.2917(5)
H19_2 H 0.8578 0.3071 0.3336
C39_2 C 0.8140(5) 0.3107(4) 0.2797(5)
C40_2 C 0.8068(5) 0.3305(4) 0.2195(5)
H20_2 H 0.7808 0.3252 0.2110
C41_2 C 0.8363(5) 0.3576(4) 0.1715(5)
H21_2 H 0.8300 0.3696 0.1289
C42_2 C 0.7822(5) 0.2788(4) 0.3291(5)
C43_2 C 0.7823(6) 0.2804(5) 0.4147(5)
C44_2 C 0.8118(5) 0.3110(4) 0.4583(5)
H22_2 H 0.8323 0.3323 0.4300
O13_3 O 0.46955(29) 0.03598(17) 0.0000
Zr4_4 Zr 0.53557(4) 0.07114(3) 1.0000
Zr6_4 Zr 0.92886(4) 0.46443(2) 1.0000
Zr7_3 Zr 0.45500(2) 0.0000 0.10783(5)
Zr11_3 Zr 0.54500(2) 0.0000 0.89217(5)
O19_2 O 0.51880(25) 0.10444(13) 0.0806(2)
O3_4 O 0.56643(23) 0.03598(17) 1.0000
Zr3_3 Zr 0.45500(2) 0.0000 0.89217(5)
O13_4 O 0.46955(29) 0.03598(17) 1.0000
O14_3 O 0.4585(2) 0.0000 0.7590(5)
O15_3 O 0.3998(2) 0.0000 0.9002(6)
O16_2 O 0.51767(59) 0.0353(4) 0.8919(7)
O17_2 O 0.51880(25) 0.10444(13) 0.9194(2)
O20_2 O 0.46781(30) 0.05915(16) 0.8479(3)
Zr2_4 Zr 0.54500(2) 1.0000 0.10783(5)
O4_4 O 0.5415(2) 1.0000 0.2410(5)
O5_4 O 0.6002(2) 1.0000 0.0998(6)
Zr7_4 Zr 0.45500(2) 1.0000 0.10783(5)
Zr11_4 Zr 0.54500(2) 1.0000 0.89217(5)
O22_2 O 0.53219(30) 0.94085(16) 0.1521(3)
O23_3 O 0.43357(23) 0.96402(17) 0.0000
O24_3 O 0.53045(29) 0.96402(17) 0.0000
O25_2 O 0.48237(44) 0.9647(4) 0.1081(7)
Zr3_4 Zr 0.45500(2) 1.0000 0.89217(5)
O14_4 O 0.4585(2) 1.0000 0.7590(5)
O15_4 O 0.3998(2) 1.0000 0.9002(6)
O21_2 O 0.40866(25) 0.94085(16) 0.8479(3)
O23_4 O 0.43357(23) 0.96402(17) 1.0000
O24_4 O 0.53045(29) 0.96402(17) 1.0000
O26_2 O 0.48233(59) 0.9647(4) 0.8919(7)
Zr6_5 Zr 0.46443(4) 0.92886(4) 0.0000
Zr2_5 Zr 0.54500(2) 0.54500(2) 0.10783(5)
O1_3 O 0.48120(16) 0.58564(21) 0.0806(2)
O2_3 O 0.53219(19) 0.59134(25) 0.1521(3)
O3_5 O 0.53045(16) 0.56643(23) 0.0000
O4_5 O 0.5415(2) 0.5415(2) 0.2410(5)
O5_5 O 0.6002(2) 0.6002(2) 0.0998(6)
C1_3 C 0.5062(3) 0.6005(4) 0.1336(5)
C2_3 C 0.5066(3) 0.6324(4) 0.1834(5)
C3_3 C 0.5349(3) 0.6520(4) 0.2428(5)
H1_3 H 0.5555 0.6465 0.2504
C4_3 C 0.5322(3) 0.6801(4) 0.2917(5)
H2_3 H 0.5507 0.6929 0.3336
C5_3 C 0.5033(3) 0.6893(4) 0.2797(5)
C6_3 C 0.4763(3) 0.6695(4) 0.2195(5)
H3_3 H 0.4556 0.6748 0.2110
C7_3 C 0.4787(3) 0.6424(4) 0.1715(5)
H4_3 H 0.4604 0.6304 0.1289
C8_3 C 0.5034(3) 0.7212(4) 0.3291(5)
C9_3 C 0.5044(5) 0.7522(5) 0.2884(8)
H5_3 H 0.5059 0.7530 0.2309
C10_3 C 0.5019(4) 0.7196(5) 0.4147(5)
C11_3 C 0.5008(3) 0.6890(4) 0.4583(5)
H6_3 H 0.5000 0.6677 0.4300
C12_3 C 0.5035(5) 0.7517(6) 0.4574(7)
O6_3 O 0.48233(18) 0.51763(44) 0.1081(7)
O7_3 O 0.48120(16) 0.89556(26) 0.9194(2)
O8_3 O 0.53219(19) 0.94085(31) 0.8479(3)
C13_3 C 0.5062(3) 0.9057(5) 0.8664(5)
C14_3 C 0.5066(3) 0.8742(5) 0.8166(5)
C15_3 C 0.5349(3) 0.8829(5) 0.7572(5)
H7_3 H 0.5555 0.9090 0.7496
C16_3 C 0.5322(3) 0.8521(5) 0.7083(5)
H8_3 H 0.5507 0.8578 0.6664
C17_3 C 0.5033(3) 0.8140(5) 0.7203(5)
C18_3 C 0.4763(3) 0.8068(5) 0.7805(5)
H9_3 H 0.4556 0.7808 0.7890
C19_3 C 0.4787(3) 0.8363(5) 0.8285(5)
H10_3 H 0.4604 0.8300 0.8711
C20_3 C 0.5034(3) 0.7822(5) 0.6709(5)
C21_3 C 0.5044(5) 0.7522(7) 0.7116(8)
H11_3 H 0.5059 0.7529 0.7691
C22_3 C 0.5019(4) 0.7823(6) 0.5853(5)
C23_3 C 0.5008(3) 0.8118(5) 0.5417(5)
H12_3 H 0.5000 0.8323 0.5700
C24_3 C 0.5035(5) 0.7518(8) 0.5426(7)
O9_3 O 0.48120(16) 0.58564(21) 0.9194(2)
O10_3 O 0.53219(19) 0.59134(25) 0.8479(3)
C25_3 C 0.5062(3) 0.6005(4) 0.8664(5)
C26_3 C 0.5066(3) 0.6324(4) 0.8166(5)
C27_3 C 0.5349(3) 0.6520(4) 0.7572(5)
H13_3 H 0.5555 0.6465 0.7496
C28_3 C 0.5322(3) 0.6801(4) 0.7083(5)
H14_3 H 0.5507 0.6929 0.6664
C29_3 C 0.5033(3) 0.6893(4) 0.7203(5)
C30_3 C 0.4763(3) 0.6695(4) 0.7805(5)
H15_3 H 0.4556 0.6748 0.7890
C31_3 C 0.4787(3) 0.6424(4) 0.8285(5)
H16_3 H 0.4604 0.6304 0.8711
C32_3 C 0.5034(3) 0.7212(4) 0.6709(5)
C33_3 C 0.5019(4) 0.7196(5) 0.5853(5)
C34_3 C 0.5008(3) 0.6890(4) 0.5417(5)
H17_3 H 0.5000 0.6677 0.5700
O11_3 O 0.48120(16) 0.89556(26) 0.0806(2)
C35_3 C 0.5062(3) 0.9057(5) 0.1336(5)
C36_3 C 0.5066(3) 0.8742(5) 0.1834(5)
C37_3 C 0.5349(3) 0.8829(5) 0.2428(5)
H18_3 H 0.5555 0.9090 0.2504
C38_3 C 0.5322(3) 0.8521(5) 0.2917(5)
H19_3 H 0.5507 0.8578 0.3336
C39_3 C 0.5033(3) 0.8140(5) 0.2797(5)
C40_3 C 0.4763(3) 0.8068(5) 0.2195(5)
H20_3 H 0.4556 0.7808 0.2110
C41_3 C 0.4787(3) 0.8363(5) 0.1715(5)
H21_3 H 0.4604 0.8300 0.1289
C42_3 C 0.5034(3) 0.7822(5) 0.3291(5)
C43_3 C 0.5019(4) 0.7823(6) 0.4147(5)
C44_3 C 0.5008(3) 0.8118(5) 0.4583(5)
H22_3 H 0.5000 0.8323 0.4300
O13_5 O 0.43357(23) 0.46955(29) 0.0000
Zr6_6 Zr 0.46443(4) 0.92886(4) 1.0000
Zr11_5 Zr 0.54500(2) 0.54500(2) 0.89217(5)
O22_3 O 0.59134(25) 0.53219(30) 0.1521(3)
O23_5 O 0.46955(16) 0.43357(23) 0.0000
O24_5 O 0.56643(23) 0.53045(29) 0.0000
O25_3 O 0.51767(18) 0.48237(44) 0.1081(7)
O3_6 O 0.53045(16) 0.56643(23) 1.0000
O13_6 O 0.43357(23) 0.46955(29) 1.0000
O14_5 O 0.4585(2) 0.4585(2) 0.7590(5)
O15_5 O 0.3998(2) 0.3998(2) 0.9002(6)
O16_3 O 0.48237(44) 0.51767(59) 0.8919(7)
O21_3 O 0.46781(19) 0.40866(25) 0.8479(3)
O23_6 O 0.46955(16) 0.43357(23) 1.0000
O24_6 O 0.56643(23) 0.53045(29) 1.0000
O26_3 O 0.51763(44) 0.48233(59) 0.8919(7)
O4_6 O 0.0000 0.5415(2) 0.2410(5)
O5_6 O 0.0000 0.6002(2) 0.0998(6)
O22_4 O 0.05915(16) 0.59134(25) 0.1521(3)
O14_6 O -0.0000 0.4585(2) 0.7590(5)
O15_6 O -0.0000 0.3998(2) 0.9002(6)
Zr6_7 Zr 0.53557(2) 0.46443(4) 0.0000
O1_4 O 0.89556(13) 0.48120(16) 0.0806(2)
O2_4 O 0.94085(16) 0.53219(19) 0.1521(3)
O4_7 O 1.0000 0.5415(2) 0.2410(5)
O5_7 O 1.0000 0.6002(2) 0.0998(6)
C1_4 C 0.9057(2) 0.5062(3) 0.1336(5)
C2_4 C 0.8742(2) 0.5066(3) 0.1834(5)
C3_4 C 0.8829(3) 0.5349(3) 0.2428(5)
H1_4 H 0.9090 0.5555 0.2504
C4_4 C 0.8521(3) 0.5322(3) 0.2917(5)
H2_4 H 0.8578 0.5507 0.3336
C5_4 C 0.8140(2) 0.5033(3) 0.2797(5)
C6_4 C 0.8068(3) 0.4763(3) 0.2195(5)
H3_4 H 0.7808 0.4556 0.2110
C7_4 C 0.8363(2) 0.4787(3) 0.1715(5)
H4_4 H 0.8300 0.4604 0.1289
C8_4 C 0.7822(3) 0.5034(3) 0.3291(5)
C9_4 C 0.7522(2) 0.5044(5) 0.2884(8)
H5_4 H 0.7529 0.5059 0.2309
C10_4 C 0.7823(3) 0.5019(4) 0.4147(5)
C11_4 C 0.8118(3) 0.5008(3) 0.4583(5)
H6_4 H 0.8323 0.5000 0.4300
C12_4 C 0.7518(3) 0.5035(5) 0.4574(7)
O7_4 O 0.58564(21) 0.48120(16) 0.9194(2)
O8_4 O 0.59134(25) 0.53219(19) 0.8479(3)
C13_4 C 0.6005(4) 0.5062(3) 0.8664(5)
C14_4 C 0.6324(4) 0.5066(3) 0.8166(5)
C15_4 C 0.6520(4) 0.5349(3) 0.7572(5)
H7_4 H 0.6465 0.5555 0.7496
C16_4 C 0.6801(4) 0.5322(3) 0.7083(5)
H8_4 H 0.6929 0.5507 0.6664
C17_4 C 0.6893(4) 0.5033(3) 0.7203(5)
C18_4 C 0.6695(4) 0.4763(3) 0.7805(5)
H9_4 H 0.6748 0.4556 0.7890
C19_4 C 0.6424(4) 0.4787(3) 0.8285(5)
H10_4 H 0.6304 0.4604 0.8711
C20_4 C 0.7212(4) 0.5034(3) 0.6709(5)
C21_4 C 0.7522(5) 0.5044(5) 0.7116(8)
H11_4 H 0.7530 0.5059 0.7691
C22_4 C 0.7196(5) 0.5019(4) 0.5853(5)
C23_4 C 0.6890(4) 0.5008(3) 0.5417(5)
H12_4 H 0.6677 0.5000 0.5700
C24_4 C 0.7517(6) 0.5035(5) 0.5426(7)
O9_4 O 0.89556(13) 0.48120(16) 0.9194(2)
C25_4 C 0.9057(2) 0.5062(3) 0.8664(5)
C26_4 C 0.8742(2) 0.5066(3) 0.8166(5)
C27_4 C 0.8829(3) 0.5349(3) 0.7572(5)
H13_4 H 0.9090 0.5555 0.7496
C28_4 C 0.8521(3) 0.5322(3) 0.7083(5)
H14_4 H 0.8578 0.5507 0.6664
C29_4 C 0.8140(2) 0.5033(3) 0.7203(5)
C30_4 C 0.8068(3) 0.4763(3) 0.7805(5)
H15_4 H 0.7808 0.4556 0.7890
C31_4 C 0.8363(2) 0.4787(3) 0.8285(5)
H16_4 H 0.8300 0.4604 0.8711
C32_4 C 0.7822(3) 0.5034(3) 0.6709(5)
C33_4 C 0.7823(3) 0.5019(4) 0.5853(5)
C34_4 C 0.8118(3) 0.5008(3) 0.5417(5)
H17_4 H 0.8323 0.5000 0.5700
O11_4 O 0.58564(21) 0.48120(16) 0.0806(2)
C35_4 C 0.6005(4) 0.5062(3) 0.1336(5)
C36_4 C 0.6324(4) 0.5066(3) 0.1834(5)
C37_4 C 0.6520(4) 0.5349(3) 0.2428(5)
H18_4 H 0.6465 0.5555 0.2504
C38_4 C 0.6801(4) 0.5322(3) 0.2917(5)
H19_4 H 0.6929 0.5507 0.3336
C39_4 C 0.6893(4) 0.5033(3) 0.2797(5)
C40_4 C 0.6695(4) 0.4763(3) 0.2195(5)
H20_4 H 0.6748 0.4556 0.2110
C41_4 C 0.6424(4) 0.4787(3) 0.1715(5)
H21_4 H 0.6304 0.4604 0.1289
C42_4 C 0.7212(4) 0.5034(3) 0.3291(5)
C43_4 C 0.7196(5) 0.5019(4) 0.4147(5)
C44_4 C 0.6890(4) 0.5008(3) 0.4583(5)
H22_4 H 0.6677 0.5000 0.4300
Zr6_8 Zr 0.53557(2) 0.46443(4) 1.0000
O14_7 O 1.0000 0.4585(2) 0.7590(5)
O15_7 O 1.0000 0.3998(2) 0.9002(6)
O4_8 O 0.4585(2) 0.0000 0.2410(5)
O5_8 O 0.3998(2) 0.0000 0.0998(6)
O22_5 O 0.46781(30) 0.05915(16) 0.1521(3)
O14_8 O 0.5415(2) -0.0000 0.7590(5)
O15_8 O 0.6002(2) -0.0000 0.9002(6)
O1_5 O 0.41436(21) 0.89556(13) 0.0806(2)
O2_5 O 0.40866(25) 0.94085(16) 0.1521(3)
O4_9 O 0.4585(2) 1.0000 0.2410(5)
O5_9 O 0.3998(2) 1.0000 0.0998(6)
C1_5 C 0.3995(4) 0.9057(2) 0.1336(5)
C2_5 C 0.3676(4) 0.8742(2) 0.1834(5)
C3_5 C 0.3480(4) 0.8829(3) 0.2428(5)
H1_5 H 0.3535 0.9090 0.2504
C4_5 C 0.3199(4) 0.8521(3) 0.2917(5)
H2_5 H 0.3071 0.8578 0.3336
C5_5 C 0.3107(4) 0.8140(2) 0.2797(5)
C6_5 C 0.3305(4) 0.8068(3) 0.2195(5)
H3_5 H 0.3252 0.7808 0.2110
C7_5 C 0.3576(4) 0.8363(2) 0.1715(5)
H4_5 H 0.3696 0.8300 0.1289
C8_5 C 0.2788(4) 0.7822(3) 0.3291(5)
C9_5 C 0.2478(5) 0.7522(2) 0.2884(8)
H5_5 H 0.2470 0.7529 0.2309
C10_5 C 0.2804(5) 0.7823(3) 0.4147(5)
C11_5 C 0.3110(4) 0.8118(3) 0.4583(5)
H6_5 H 0.3323 0.8323 0.4300
C12_5 C 0.2483(6) 0.7518(3) 0.4574(7)
C13_5 C 0.0943(5) 0.6005(4) 0.8664(5)
C14_5 C 0.1258(5) 0.6324(4) 0.8166(5)
C15_5 C 0.1171(5) 0.6520(4) 0.7572(5)
H7_5 H 0.0910 0.6465 0.7496
C16_5 C 0.1479(5) 0.6801(4) 0.7083(5)
H8_5 H 0.1422 0.6929 0.6664
C17_5 C 0.1860(5) 0.6893(4) 0.7203(5)
C18_5 C 0.1932(5) 0.6695(4) 0.7805(5)
H9_5 H 0.2192 0.6748 0.7890
C19_5 C 0.1637(5) 0.6424(4) 0.8285(5)
H10_5 H 0.1700 0.6304 0.8711
C20_5 C 0.2178(5) 0.7212(4) 0.6709(5)
C21_5 C 0.2478(7) 0.7522(5) 0.7116(8)
H11_5 H 0.2471 0.7530 0.7691
C22_5 C 0.2177(6) 0.7196(5) 0.5853(5)
C23_5 C 0.1882(5) 0.6890(4) 0.5417(5)
H12_5 H 0.1677 0.6677 0.5700
C24_5 C 0.2482(8) 0.7517(6) 0.5426(7)
O9_5 O 0.41436(21) 0.89556(13) 0.9194(2)
C25_5 C 0.3995(4) 0.9057(2) 0.8664(5)
C26_5 C 0.3676(4) 0.8742(2) 0.8166(5)
C27_5 C 0.3480(4) 0.8829(3) 0.7572(5)
H13_5 H 0.3535 0.9090 0.7496
C28_5 C 0.3199(4) 0.8521(3) 0.7083(5)
H14_5 H 0.3071 0.8578 0.6664
C29_5 C 0.3107(4) 0.8140(2) 0.7203(5)
C30_5 C 0.3305(4) 0.8068(3) 0.7805(5)
H15_5 H 0.3252 0.7808 0.7890
C31_5 C 0.3576(4) 0.8363(2) 0.8285(5)
H16_5 H 0.3696 0.8300 0.8711
C32_5 C 0.2788(4) 0.7822(3) 0.6709(5)
C33_5 C 0.2804(5) 0.7823(3) 0.5853(5)
C34_5 C 0.3110(4) 0.8118(3) 0.5417(5)
H17_5 H 0.3323 0.8323 0.5700
C35_5 C 0.0943(5) 0.6005(4) 0.1336(5)
C36_5 C 0.1258(5) 0.6324(4) 0.1834(5)
C37_5 C 0.1171(5) 0.6520(4) 0.2428(5)
H18_5 H 0.0910 0.6465 0.2504
C38_5 C 0.1479(5) 0.6801(4) 0.2917(5)
H19_5 H 0.1422 0.6929 0.3336
C39_5 C 0.1860(5) 0.6893(4) 0.2797(5)
C40_5 C 0.1932(5) 0.6695(4) 0.2195(5)
H20_5 H 0.2192 0.6748 0.2110
C41_5 C 0.1637(5) 0.6424(4) 0.1715(5)
H21_5 H 0.1700 0.6304 0.1289
C42_5 C 0.2178(5) 0.7212(4) 0.3291(5)
C43_5 C 0.2177(6) 0.7196(5) 0.4147(5)
C44_5 C 0.1882(5) 0.6890(4) 0.4583(5)
H22_5 H 0.1677 0.6677 0.4300
O14_9 O 0.5415(2) 1.0000 0.7590(5)
O15_9 O 0.6002(2) 1.0000 0.9002(6)
O1_6 O 0.51880(16) 0.41436(21) 0.0806(2)
O2_6 O 0.46781(19) 0.40866(25) 0.1521(3)
O4_10 O 0.4585(2) 0.4585(2) 0.2410(5)
O5_10 O 0.3998(2) 0.3998(2) 0.0998(6)
C1_6 C 0.4938(3) 0.3995(4) 0.1336(5)
C2_6 C 0.4934(3) 0.3676(4) 0.1834(5)
C3_6 C 0.4651(3) 0.3480(4) 0.2428(5)
H1_6 H 0.4445 0.3535 0.2504
C4_6 C 0.4678(3) 0.3199(4) 0.2917(5)
H2_6 H 0.4493 0.3071 0.3336
C5_6 C 0.4967(3) 0.3107(4) 0.2797(5)
C6_6 C 0.5237(3) 0.3305(4) 0.2195(5)
H3_6 H 0.5444 0.3252 0.2110
C7_6 C 0.5213(3) 0.3576(4) 0.1715(5)
H4_6 H 0.5396 0.3696 0.1289
C8_6 C 0.4966(3) 0.2788(4) 0.3291(5)
C9_6 C 0.4956(5) 0.2478(5) 0.2884(8)
H5_6 H 0.4941 0.2470 0.2309
C10_6 C 0.4981(4) 0.2804(5) 0.4147(5)
C11_6 C 0.4992(3) 0.3110(4) 0.4583(5)
H6_6 H 0.5000 0.3323 0.4300
C12_6 C 0.4965(5) 0.2483(6) 0.4574(7)
C13_6 C 0.4938(3) 0.0943(5) 0.8664(5)
C14_6 C 0.4934(3) 0.1258(5) 0.8166(5)
C15_6 C 0.4651(3) 0.1171(5) 0.7572(5)
H7_6 H 0.4445 0.0910 0.7496
C16_6 C 0.4678(3) 0.1479(5) 0.7083(5)
H8_6 H 0.4493 0.1422 0.6664
C17_6 C 0.4967(3) 0.1860(5) 0.7203(5)
C18_6 C 0.5237(3) 0.1932(5) 0.7805(5)
H9_6 H 0.5444 0.2192 0.7890
C19_6 C 0.5213(3) 0.1637(5) 0.8285(5)
H10_6 H 0.5396 0.1700 0.8711
C20_6 C 0.4966(3) 0.2178(5) 0.6709(5)
C21_6 C 0.4956(5) 0.2478(7) 0.7116(8)
H11_6 H 0.4941 0.2471 0.7691
C22_6 C 0.4981(4) 0.2177(6) 0.5853(5)
C23_6 C 0.4992(3) 0.1882(5) 0.5417(5)
H12_6 H 0.5000 0.1677 0.5700
C24_6 C 0.4965(5) 0.2482(8) 0.5426(7)
O9_6 O 0.51880(16) 0.41436(21) 0.9194(2)
C25_6 C 0.4938(3) 0.3995(4) 0.8664(5)
C26_6 C 0.4934(3) 0.3676(4) 0.8166(5)
C27_6 C 0.4651(3) 0.3480(4) 0.7572(5)
H13_6 H 0.4445 0.3535 0.7496
C28_6 C 0.4678(3) 0.3199(4) 0.7083(5)
H14_6 H 0.4493 0.3071 0.6664
C29_6 C 0.4967(3) 0.3107(4) 0.7203(5)
C30_6 C 0.5237(3) 0.3305(4) 0.7805(5)
H15_6 H 0.5444 0.3252 0.7890
C31_6 C 0.5213(3) 0.3576(4) 0.8285(5)
H16_6 H 0.5396 0.3696 0.8711
C32_6 C 0.4966(3) 0.2788(4) 0.6709(5)
C33_6 C 0.4981(4) 0.2804(5) 0.5853(5)
C34_6 C 0.4992(3) 0.3110(4) 0.5417(5)
H17_6 H 0.5000 0.3323 0.5700
C35_6 C 0.4938(3) 0.0943(5) 0.1336(5)
C36_6 C 0.4934(3) 0.1258(5) 0.1834(5)
C37_6 C 0.4651(3) 0.1171(5) 0.2428(5)
H18_6 H 0.4445 0.0910 0.2504
C38_6 C 0.4678(3) 0.1479(5) 0.2917(5)
H19_6 H 0.4493 0.1422 0.3336
C39_6 C 0.4967(3) 0.1860(5) 0.2797(5)
C40_6 C 0.5237(3) 0.1932(5) 0.2195(5)
H20_6 H 0.5444 0.2192 0.2110
C41_6 C 0.5213(3) 0.1637(5) 0.1715(5)
H21_6 H 0.5396 0.1700 0.1289
C42_6 C 0.4966(3) 0.2178(5) 0.3291(5)
C43_6 C 0.4981(4) 0.2177(6) 0.4147(5)
C44_6 C 0.4992(3) 0.1882(5) 0.4583(5)
H22_6 H 0.5000 0.1677 0.4300
O14_10 O 0.5415(2) 0.5415(2) 0.7590(5)
O15_10 O 0.6002(2) 0.6002(2) 0.9002(6)
loop_
_geom_bond_atom_site_label_1
_geom_bond_atom_site_label_2
_geom_bond_site_symmetry_1
_geom_bond_site_symmetry_2
Zr4 O1 1_555 1_555
Zr2 O2 1_555 1_555
O1 C1 1_555 1_555
O2 C1 1_555 1_555
O3 Zr4 1_555 1_555
O4 Zr2 1_555 1_555
O5 Zr2 1_555 1_555
C1 C2 1_555 1_555
C2 C3 1_555 1_555
C3 H1 1_555 1_555
C4 C3 1_555 1_555
H2 C4 1_555 1_555
C5 C4 1_555 1_555
C6 C5 1_555 1_555
H3 C6 1_555 1_555
C7 C2 1_555 1_555
H4 C7 1_555 1_555
C8 C5 1_555 1_555
C9 C8 1_555 1_555
H5 C9 1_555 1_555
C10 C8 1_555 1_555
C11 C10 1_555 1_555
H6 C11 1_555 1_555
C12 C10 1_555 1_555
O6 Zr4 1_555 1_555
O7 C13 1_555 1_555
O8 C13 1_555 1_555
C13 C14 1_555 1_555
C14 C15 1_555 1_555
C15 H7 1_555 1_555
C16 C15 1_555 1_555
H8 C16 1_555 1_555
C17 C16 1_555 1_555
C18 C17 1_555 1_555
H9 C18 1_555 1_555
C19 C14 1_555 1_555
H10 C19 1_555 1_555
C20 C17 1_555 1_555
C21 C20 1_555 1_555
H11 C21 1_555 1_555
C22 C20 1_555 1_555
C23 C22 1_555 1_555
H12 C23 1_555 1_555
C24 C12 1_555 1_555
O9 C25 1_555 1_555
O10 C25 1_555 1_555
C25 C26 1_555 1_555
C26 C27 1_555 1_555
C27 H13 1_555 1_555
C28 C27 1_555 1_555
H14 C28 1_555 1_555
C29 C28 1_555 1_555
C30 C29 1_555 1_555
H15 C30 1_555 1_555
C31 C26 1_555 1_555
H16 C31 1_555 1_555
C32 C21 1_555 1_555
C33 C24 1_555 1_555
C34 C11 1_555 1_555
H17 C34 1_555 1_555
O11 C35 1_555 1_555
O12 C35 1_555 1_555
C35 C36 1_555 1_555
C36 C37 1_555 1_555
C37 H18 1_555 1_555
C38 C37 1_555 1_555
H19 C38 1_555 1_555
C39 C38 1_555 1_555
C40 C39 1_555 1_555
H20 C40 1_555 1_555
C41 C36 1_555 1_555
H21 C41 1_555 1_555
C42 C9 1_555 1_555
C43 C12 1_555 1_555
C44 C23 1_555 1_555
H22 C44 1_555 1_555
O13 Zr4 1_555 1_555
Zr4_2 O9 1_555 1_555
Zr6 O11 1_555 1_555
Zr6_2 O7 1_555 1_555
Zr7 O6 1_555 1_555
Zr8 O12 1_555 1_555
Zr9 O8 1_555 1_555
Zr11 O10 1_555 1_555
O19 Zr4 1_555 1_555
Zr2 O3 1_555 1_555
Zr2 O6 1_555 1_555
C6 C7 1_555 1_555
C18 C19 1_555 1_555
C22 C24 1_555 1_555
C29 C32 1_555 1_555
C30 C31 1_555 1_555
C32 C33 1_555 1_555
C33 C34 1_555 1_555
C39 C42 1_555 1_555
C40 C41 1_555 1_555
C42 C43 1_555 1_555
C43 C44 1_555 1_555
O13 Zr7 1_555 1_555
O3_2 Zr4_2 1_555 1_555
Zr3 O13_2 1_555 1_555
O13_2 Zr4_2 1_555 1_555
O14 Zr3 1_555 1_555
O15 Zr3 1_555 1_555
O16 Zr4_2 1_555 1_555
Zr11 O3_2 1_555 1_555
O17 Zr4_2 1_555 1_555
O20 Zr3 1_555 1_555
Zr3 O16 1_555 1_555
O16 Zr11 1_555 1_555
O4_2 Zr2_2 1_555 1_555
O5_2 Zr2_2 1_555 1_555
O22 Zr2_2 1_555 1_555
O24 Zr2_2 1_555 1_555
O25 Zr2_2 1_555 1_555
Zr7_2 O23 1_555 1_555
Zr7_2 O25 1_555 1_555
O14_2 Zr3_2 1_555 1_555
O15_2 Zr3_2 1_555 1_555
O21 Zr3_2 1_555 1_555
O23_2 Zr3_2 1_555 1_555
O26 Zr3_2 1_555 1_555
Zr11_2 O24_2 1_555 1_555
Zr11_2 O26 1_555 1_555
Zr4_3 O1_2 1_555 1_555
Zr2_3 O2_2 1_555 1_555
O1_2 C1_2 1_555 1_555
O2_2 C1_2 1_555 1_555
O3_3 Zr4_3 1_555 1_555
O4_3 Zr2_3 1_555 1_555
O5_3 Zr2_3 1_555 1_555
C1_2 C2_2 1_555 1_555
C2_2 C3_2 1_555 1_555
C3_2 H1_2 1_555 1_555
C4_2 C3_2 1_555 1_555
H2_2 C4_2 1_555 1_555
C5_2 C4_2 1_555 1_555
C6_2 C5_2 1_555 1_555
H3_2 C6_2 1_555 1_555
C7_2 C2_2 1_555 1_555
H4_2 C7_2 1_555 1_555
C8_2 C5_2 1_555 1_555
C9_2 C8_2 1_555 1_555
H5_2 C9_2 1_555 1_555
C10_2 C8_2 1_555 1_555
C11_2 C10_2 1_555 1_555
H6_2 C11_2 1_555 1_555
C12_2 C10_2 1_555 1_555
O6_2 Zr4_3 1_555 1_555
O7_2 C13_2 1_555 1_555
O8_2 C13_2 1_555 1_555
C13_2 C14_2 1_555 1_555
C14_2 C15_2 1_555 1_555
C15_2 H7_2 1_555 1_555
C16_2 C15_2 1_555 1_555
H8_2 C16_2 1_555 1_555
C17_2 C16_2 1_555 1_555
C18_2 C17_2 1_555 1_555
H9_2 C18_2 1_555 1_555
C19_2 C14_2 1_555 1_555
H10_2 C19_2 1_555 1_555
C20_2 C17_2 1_555 1_555
C21_2 C20_2 1_555 1_555
H11_2 C21_2 1_555 1_555
C22_2 C20_2 1_555 1_555
C23_2 C22_2 1_555 1_555
H12_2 C23_2 1_555 1_555
C24_2 C12_2 1_555 1_555
O9_2 C25_2 1_555 1_555
O10_2 C25_2 1_555 1_555
C25_2 C26_2 1_555 1_555
C26_2 C27_2 1_555 1_555
C27_2 H13_2 1_555 1_555
C28_2 C27_2 1_555 1_555
H14_2 C28_2 1_555 1_555
C29_2 C28_2 1_555 1_555
C30_2 C29_2 1_555 1_555
H15_2 C30_2 1_555 1_555
C31_2 C26_2 1_555 1_555
H16_2 C31_2 1_555 1_555
C32_2 C21_2 1_555 1_555
C33_2 C24_2 1_555 1_555
C34_2 C11_2 1_555 1_555
H17_2 C34_2 1_555 1_555
O11_2 C35_2 1_555 1_555
O22 C35_2 1_555 1_555
C35_2 C36_2 1_555 1_555
C36_2 C37_2 1_555 1_555
C37_2 H18_2 1_555 1_555
C38_2 C37_2 1_555 1_555
H19_2 C38_2 1_555 1_555
C39_2 C38_2 1_555 1_555
C40_2 C39_2 1_555 1_555
H20_2 C40_2 1_555 1_555
C41_2 C36_2 1_555 1_555
H21_2 C41_2 1_555 1_555
C42_2 C9_2 1_555 1_555
C43_2 C12_2 1_555 1_555
C44_2 C23_2 1_555 1_555
H22_2 C44_2 1_555 1_555
O13_3 Zr4_3 1_555 1_555
Zr4_4 O9_2 1_555 1_555
Zr6_3 O11_2 1_555 1_555
Zr6_4 O7_2 1_555 1_555
Zr7_3 O6_2 1_555 1_555
Zr11_2 O8_2 1_555 1_555
Zr11_3 O10_2 1_555 1_555
O19_2 Zr4_3 1_555 1_555
Zr2_3 O3_3 1_555 1_555
Zr2_3 O6_2 1_555 1_555
C6_2 C7_2 1_555 1_555
C18_2 C19_2 1_555 1_555
C22_2 C24_2 1_555 1_555
C29_2 C32_2 1_555 1_555
C30_2 C31_2 1_555 1_555
C32_2 C33_2 1_555 1_555
C33_2 C34_2 1_555 1_555
C39_2 C42_2 1_555 1_555
C40_2 C41_2 1_555 1_555
C42_2 C43_2 1_555 1_555
C43_2 C44_2 1_555 1_555
O13_3 Zr7_3 1_555 1_555
O3_4 Zr4_4 1_555 1_555
Zr3_3 O13_4 1_555 1_555
O13_4 Zr4_4 1_555 1_555
O14_3 Zr3_3 1_555 1_555
O15_3 Zr3_3 1_555 1_555
O16_2 Zr4_4 1_555 1_555
Zr11_3 O3_4 1_555 1_555
O17_2 Zr4_4 1_555 1_555
O20_2 Zr3_3 1_555 1_555
Zr3_3 O16_2 1_555 1_555
O16_2 Zr11_3 1_555 1_555
O4_4 Zr2_4 1_555 1_555
O5_4 Zr2_4 1_555 1_555
O22_2 Zr2_4 1_555 1_555
O24_3 Zr2_4 1_555 1_555
O25_2 Zr2_4 1_555 1_555
Zr7_4 O23_3 1_555 1_555
Zr7_4 O25_2 1_555 1_555
O14_4 Zr3_4 1_555 1_555
O15_4 Zr3_4 1_555 1_555
O21_2 Zr3_4 1_555 1_555
O23_4 Zr3_4 1_555 1_555
O26_2 Zr3_4 1_555 1_555
Zr11_4 O24_4 1_555 1_555
Zr11_4 O26_2 1_555 1_555
Zr6 O1_3 1_555 1_555
Zr2_5 O2_3 1_555 1_555
O1_3 C1_3 1_555 1_555
O2_3 C1_3 1_555 1_555
O3_5 Zr6 1_555 1_555
O4_5 Zr2_5 1_555 1_555
O5_5 Zr2_5 1_555 1_555
C1_3 C2_3 1_555 1_555
C2_3 C3_3 1_555 1_555
C3_3 H1_3 1_555 1_555
C4_3 C3_3 1_555 1_555
H2_3 C4_3 1_555 1_555
C5_3 C4_3 1_555 1_555
C6_3 C5_3 1_555 1_555
H3_3 C6_3 1_555 1_555
C7_3 C2_3 1_555 1_555
H4_3 C7_3 1_555 1_555
C8_3 C5_3 1_555 1_555
C9_3 C8_3 1_555 1_555
H5_3 C9_3 1_555 1_555
C10_3 C8_3 1_555 1_555
C11_3 C10_3 1_555 1_555
H6_3 C11_3 1_555 1_555
C12_3 C10_3 1_555 1_555
O6_3 Zr6 1_555 1_555
O7_3 C13_3 1_555 1_555
O8_3 C13_3 1_555 1_555
C13_3 C14_3 1_555 1_555
C14_3 C15_3 1_555 1_555
C15_3 H7_3 1_555 1_555
C16_3 C15_3 1_555 1_555
H8_3 C16_3 1_555 1_555
C17_3 C16_3 1_555 1_555
C18_3 C17_3 1_555 1_555
H9_3 C18_3 1_555 1_555
C19_3 C14_3 1_555 1_555
H10_3 C19_3 1_555 1_555
C20_3 C17_3 1_555 1_555
C21_3 C20_3 1_555 1_555
H11_3 C21_3 1_555 1_555
C22_3 C20_3 1_555 1_555
C23_3 C22_3 1_555 1_555
H12_3 C23_3 1_555 1_555
C24_3 C12_3 1_555 1_555
O9_3 C25_3 1_555 1_555
O10_3 C25_3 1_555 1_555
C25_3 C26_3 1_555 1_555
C26_3 C27_3 1_555 1_555
C27_3 H13_3 1_555 1_555
C28_3 C27_3 1_555 1_555
H14_3 C28_3 1_555 1_555
C29_3 C28_3 1_555 1_555
C30_3 C29_3 1_555 1_555
H15_3 C30_3 1_555 1_555
C31_3 C26_3 1_555 1_555
H16_3 C31_3 1_555 1_555
C32_3 C21_3 1_555 1_555
C33_3 C24_3 1_555 1_555
C34_3 C11_3 1_555 1_555
H17_3 C34_3 1_555 1_555
O11_3 C35_3 1_555 1_555
O22_2 C35_3 1_555 1_555
C35_3 C36_3 1_555 1_555
C36_3 C37_3 1_555 1_555
C37_3 H18_3 1_555 1_555
C38_3 C37_3 1_555 1_555
H19_3 C38_3 1_555 1_555
C39_3 C38_3 1_555 1_555
C40_3 C39_3 1_555 1_555
H20_3 C40_3 1_555 1_555
C41_3 C36_3 1_555 1_555
H21_3 C41_3 1_555 1_555
C42_3 C9_3 1_555 1_555
C43_3 C12_3 1_555 1_555
C44_3 C23_3 1_555 1_555
H22_3 C44_3 1_555 1_555
O13_5 Zr6 1_555 1_555
Zr6_2 O9_3 1_555 1_555
Zr6_5 O11_3 1_555 1_555
Zr6_6 O7_3 1_555 1_555
Zr8 O6_3 1_555 1_555
Zr11_4 O8_3 1_555 1_555
Zr11_5 O10_3 1_555 1_555
O22_3 Zr2_5 1_555 1_555
O24_5 Zr2_5 1_555 1_555
O25_3 Zr2_5 1_555 1_555
Zr2_5 O3_5 1_555 1_555
Zr2_5 O6_3 1_555 1_555
C6_3 C7_3 1_555 1_555
C18_3 C19_3 1_555 1_555
C22_3 C24_3 1_555 1_555
C29_3 C32_3 1_555 1_555
C30_3 C31_3 1_555 1_555
C32_3 C33_3 1_555 1_555
C33_3 C34_3 1_555 1_555
C39_3 C42_3 1_555 1_555
C40_3 C41_3 1_555 1_555
C42_3 C43_3 1_555 1_555
C43_3 C44_3 1_555 1_555
O13_5 Zr8 1_555 1_555
Zr8 O23_5 1_555 1_555
Zr8 O25_3 1_555 1_555
O3_6 Zr6_2 1_555 1_555
Zr9 O13_6 1_555 1_555
O13_6 Zr6_2 1_555 1_555
O14_5 Zr9 1_555 1_555
O15_5 Zr9 1_555 1_555
O16_3 Zr6_2 1_555 1_555
Zr11_5 O3_6 1_555 1_555
O21_3 Zr9 1_555 1_555
O23_6 Zr9 1_555 1_555
O26_3 Zr9 1_555 1_555
Zr9 O16_3 1_555 1_555
O16_3 Zr11_5 1_555 1_555
Zr11_5 O24_6 1_555 1_555
Zr11_5 O26_3 1_555 1_555
O4_6 Zr7 1_555 1_555
O5_6 Zr7 1_555 1_555
O22_4 Zr7 1_555 1_555
O14_6 Zr11 1_555 1_555
O15_6 Zr11 1_555 1_555
Zr6_3 O1_4 1_555 1_555
Zr7_2 O2_4 1_555 1_555
O1_4 C1_4 1_555 1_555
O2_4 C1_4 1_555 1_555
O23 Zr6_3 1_555 1_555
O4_7 Zr7_2 1_555 1_555
O5_7 Zr7_2 1_555 1_555
C1_4 C2_4 1_555 1_555
C2_4 C3_4 1_555 1_555
C3_4 H1_4 1_555 1_555
C4_4 C3_4 1_555 1_555
H2_4 C4_4 1_555 1_555
C5_4 C4_4 1_555 1_555
C6_4 C5_4 1_555 1_555
H3_4 C6_4 1_555 1_555
C7_4 C2_4 1_555 1_555
H4_4 C7_4 1_555 1_555
C8_4 C5_4 1_555 1_555
C9_4 C8_4 1_555 1_555
H5_4 C9_4 1_555 1_555
C10_4 C8_4 1_555 1_555
C11_4 C10_4 1_555 1_555
H6_4 C11_4 1_555 1_555
C12_4 C10_4 1_555 1_555
O25 Zr6_3 1_555 1_555
O7_4 C13_4 1_555 1_555
O8_4 C13_4 1_555 1_555
C13_4 C14_4 1_555 1_555
C14_4 C15_4 1_555 1_555
C15_4 H7_4 1_555 1_555
C16_4 C15_4 1_555 1_555
H8_4 C16_4 1_555 1_555
C17_4 C16_4 1_555 1_555
C18_4 C17_4 1_555 1_555
H9_4 C18_4 1_555 1_555
C19_4 C14_4 1_555 1_555
H10_4 C19_4 1_555 1_555
C20_4 C17_4 1_555 1_555
C21_4 C20_4 1_555 1_555
H11_4 C21_4 1_555 1_555
C22_4 C20_4 1_555 1_555
C23_4 C22_4 1_555 1_555
H12_4 C23_4 1_555 1_555
C24_4 C12_4 1_555 1_555
O9_4 C25_4 1_555 1_555
O21 C25_4 1_555 1_555
C25_4 C26_4 1_555 1_555
C26_4 C27_4 1_555 1_555
C27_4 H13_4 1_555 1_555
C28_4 C27_4 1_555 1_555
H14_4 C28_4 1_555 1_555
C29_4 C28_4 1_555 1_555
C30_4 C29_4 1_555 1_555
H15_4 C30_4 1_555 1_555
C31_4 C26_4 1_555 1_555
H16_4 C31_4 1_555 1_555
C32_4 C21_4 1_555 1_555
C33_4 C24_4 1_555 1_555
C34_4 C11_4 1_555 1_555
H17_4 C34_4 1_555 1_555
O11_4 C35_4 1_555 1_555
O22_3 C35_4 1_555 1_555
C35_4 C36_4 1_555 1_555
C36_4 C37_4 1_555 1_555
C37_4 H18_4 1_555 1_555
C38_4 C37_4 1_555 1_555
H19_4 C38_4 1_555 1_555
C39_4 C38_4 1_555 1_555
C40_4 C39_4 1_555 1_555
H20_4 C40_4 1_555 1_555
C41_4 C36_4 1_555 1_555
H21_4 C41_4 1_555 1_555
C42_4 C9_4 1_555 1_555
C43_4 C12_4 1_555 1_555
C44_4 C23_4 1_555 1_555
H22_4 C44_4 1_555 1_555
O24 Zr6_3 1_555 1_555
Zr6_4 O9_4 1_555 1_555
Zr6_7 O11_4 1_555 1_555
Zr6_8 O7_4 1_555 1_555
Zr11_5 O8_4 1_555 1_555
C6_4 C7_4 1_555 1_555
C18_4 C19_4 1_555 1_555
C22_4 C24_4 1_555 1_555
C29_4 C32_4 1_555 1_555
C30_4 C31_4 1_555 1_555
C32_4 C33_4 1_555 1_555
C33_4 C34_4 1_555 1_555
C39_4 C42_4 1_555 1_555
C40_4 C41_4 1_555 1_555
C42_4 C43_4 1_555 1_555
C43_4 C44_4 1_555 1_555
O23_2 Zr6_4 1_555 1_555
O24_2 Zr6_4 1_555 1_555
O14_7 Zr11_2 1_555 1_555
O15_7 Zr11_2 1_555 1_555
O26 Zr6_4 1_555 1_555
O4_8 Zr7_3 1_555 1_555
O5_8 Zr7_3 1_555 1_555
O22_5 Zr7_3 1_555 1_555
O14_8 Zr11_3 1_555 1_555
O15_8 Zr11_3 1_555 1_555
Zr6_5 O1_5 1_555 1_555
Zr7_4 O2_5 1_555 1_555
O1_5 C1_5 1_555 1_555
O2_5 C1_5 1_555 1_555
O23_3 Zr6_5 1_555 1_555
O4_9 Zr7_4 1_555 1_555
O5_9 Zr7_4 1_555 1_555
C1_5 C2_5 1_555 1_555
C2_5 C3_5 1_555 1_555
C3_5 H1_5 1_555 1_555
C4_5 C3_5 1_555 1_555
H2_5 C4_5 1_555 1_555
C5_5 C4_5 1_555 1_555
C6_5 C5_5 1_555 1_555
H3_5 C6_5 1_555 1_555
C7_5 C2_5 1_555 1_555
H4_5 C7_5 1_555 1_555
C8_5 C5_5 1_555 1_555
C9_5 C8_5 1_555 1_555
H5_5 C9_5 1_555 1_555
C10_5 C8_5 1_555 1_555
C11_5 C10_5 1_555 1_555
H6_5 C11_5 1_555 1_555
C12_5 C10_5 1_555 1_555
O25_2 Zr6_5 1_555 1_555
O17 C13_5 1_555 1_555
O20 C13_5 1_555 1_555
C13_5 C14_5 1_555 1_555
C14_5 C15_5 1_555 1_555
C15_5 H7_5 1_555 1_555
C16_5 C15_5 1_555 1_555
H8_5 C16_5 1_555 1_555
C17_5 C16_5 1_555 1_555
C18_5 C17_5 1_555 1_555
H9_5 C18_5 1_555 1_555
C19_5 C14_5 1_555 1_555
H10_5 C19_5 1_555 1_555
C20_5 C17_5 1_555 1_555
C21_5 C20_5 1_555 1_555
H11_5 C21_5 1_555 1_555
C22_5 C20_5 1_555 1_555
C23_5 C22_5 1_555 1_555
H12_5 C23_5 1_555 1_555
C24_5 C12_5 1_555 1_555
O9_5 C25_5 1_555 1_555
O21_2 C25_5 1_555 1_555
C25_5 C26_5 1_555 1_555
C26_5 C27_5 1_555 1_555
C27_5 H13_5 1_555 1_555
C28_5 C27_5 1_555 1_555
H14_5 C28_5 1_555 1_555
C29_5 C28_5 1_555 1_555
C30_5 C29_5 1_555 1_555
H15_5 C30_5 1_555 1_555
C31_5 C26_5 1_555 1_555
H16_5 C31_5 1_555 1_555
C32_5 C21_5 1_555 1_555
C33_5 C24_5 1_555 1_555
C34_5 C11_5 1_555 1_555
H17_5 C34_5 1_555 1_555
O19 C35_5 1_555 1_555
O22_4 C35_5 1_555 1_555
C35_5 C36_5 1_555 1_555
C36_5 C37_5 1_555 1_555
C37_5 H18_5 1_555 1_555
C38_5 C37_5 1_555 1_555
H19_5 C38_5 1_555 1_555
C39_5 C38_5 1_555 1_555
C40_5 C39_5 1_555 1_555
H20_5 C40_5 1_555 1_555
C41_5 C36_5 1_555 1_555
H21_5 C41_5 1_555 1_555
C42_5 C9_5 1_555 1_555
C43_5 C12_5 1_555 1_555
C44_5 C23_5 1_555 1_555
H22_5 C44_5 1_555 1_555
O24_3 Zr6_5 1_555 1_555
Zr6_6 O9_5 1_555 1_555
C6_5 C7_5 1_555 1_555
C18_5 C19_5 1_555 1_555
C22_5 C24_5 1_555 1_555
C29_5 C32_5 1_555 1_555
C30_5 C31_5 1_555 1_555
C32_5 C33_5 1_555 1_555
C33_5 C34_5 1_555 1_555
C39_5 C42_5 1_555 1_555
C40_5 C41_5 1_555 1_555
C42_5 C43_5 1_555 1_555
C43_5 C44_5 1_555 1_555
O23_4 Zr6_6 1_555 1_555
O24_4 Zr6_6 1_555 1_555
O14_9 Zr11_4 1_555 1_555
O15_9 Zr11_4 1_555 1_555
O26_2 Zr6_6 1_555 1_555
Zr6_7 O1_6 1_555 1_555
Zr8 O2_6 1_555 1_555
O1_6 C1_6 1_555 1_555
O2_6 C1_6 1_555 1_555
O23_5 Zr6_7 1_555 1_555
O4_10 Zr8 1_555 1_555
O5_10 Zr8 1_555 1_555
C1_6 C2_6 1_555 1_555
C2_6 C3_6 1_555 1_555
C3_6 H1_6 1_555 1_555
C4_6 C3_6 1_555 1_555
H2_6 C4_6 1_555 1_555
C5_6 C4_6 1_555 1_555
C6_6 C5_6 1_555 1_555
H3_6 C6_6 1_555 1_555
C7_6 C2_6 1_555 1_555
H4_6 C7_6 1_555 1_555
C8_6 C5_6 1_555 1_555
C9_6 C8_6 1_555 1_555
H5_6 C9_6 1_555 1_555
C10_6 C8_6 1_555 1_555
C11_6 C10_6 1_555 1_555
H6_6 C11_6 1_555 1_555
C12_6 C10_6 1_555 1_555
O25_3 Zr6_7 1_555 1_555
O17_2 C13_6 1_555 1_555
O20_2 C13_6 1_555 1_555
C13_6 C14_6 1_555 1_555
C14_6 C15_6 1_555 1_555
C15_6 H7_6 1_555 1_555
C16_6 C15_6 1_555 1_555
H8_6 C16_6 1_555 1_555
C17_6 C16_6 1_555 1_555
C18_6 C17_6 1_555 1_555
H9_6 C18_6 1_555 1_555
C19_6 C14_6 1_555 1_555
H10_6 C19_6 1_555 1_555
C20_6 C17_6 1_555 1_555
C21_6 C20_6 1_555 1_555
H11_6 C21_6 1_555 1_555
C22_6 C20_6 1_555 1_555
C23_6 C22_6 1_555 1_555
H12_6 C23_6 1_555 1_555
C24_6 C12_6 1_555 1_555
O9_6 C25_6 1_555 1_555
O21_3 C25_6 1_555 1_555
C25_6 C26_6 1_555 1_555
C26_6 C27_6 1_555 1_555
C27_6 H13_6 1_555 1_555
C28_6 C27_6 1_555 1_555
H14_6 C28_6 1_555 1_555
C29_6 C28_6 1_555 1_555
C30_6 C29_6 1_555 1_555
H15_6 C30_6 1_555 1_555
C31_6 C26_6 1_555 1_555
H16_6 C31_6 1_555 1_555
C32_6 C21_6 1_555 1_555
C33_6 C24_6 1_555 1_555
C34_6 C11_6 1_555 1_555
H17_6 C34_6 1_555 1_555
O19_2 C35_6 1_555 1_555
O22_5 C35_6 1_555 1_555
C35_6 C36_6 1_555 1_555
C36_6 C37_6 1_555 1_555
C37_6 H18_6 1_555 1_555
C38_6 C37_6 1_555 1_555
H19_6 C38_6 1_555 1_555
C39_6 C38_6 1_555 1_555
C40_6 C39_6 1_555 1_555
H20_6 C40_6 1_555 1_555
C41_6 C36_6 1_555 1_555
H21_6 C41_6 1_555 1_555
C42_6 C9_6 1_555 1_555
C43_6 C12_6 1_555 1_555
C44_6 C23_6 1_555 1_555
H22_6 C44_6 1_555 1_555
O24_5 Zr6_7 1_555 1_555
Zr6_8 O9_6 1_555 1_555
C6_6 C7_6 1_555 1_555
C18_6 C19_6 1_555 1_555
C22_6 C24_6 1_555 1_555
C29_6 C32_6 1_555 1_555
C30_6 C31_6 1_555 1_555
C32_6 C33_6 1_555 1_555
C33_6 C34_6 1_555 1_555
C39_6 C42_6 1_555 1_555
C40_6 C41_6 1_555 1_555
C42_6 C43_6 1_555 1_555
C43_6 C44_6 1_555 1_555
O23_6 Zr6_8 1_555 1_555
O24_6 Zr6_8 1_555 1_555
O14_10 Zr11_5 1_555 1_555
O15_10 Zr11_5 1_555 1_555
O26_3 Zr6_8 1_555 1_555

#END
