
###############################################################################
#
# This file contains modified crystal structure data generated from the
# MOF subset of the Cambridge Structural Database (CSD) v543 
# hosted by the Cambridge Crystallographic Data Centre (CCDC).
#
# This work is licensed under the Creative Commons
# Attribution-NonCommercial-ShareAlike 4.0 International License.
# To view a copy of this license, visit
# http://creativecommons.org/licenses/by-nc-sa/4.0/
# or send a letter to
# Creative Commons, PO Box 1866, Mountain View, CA 94042, USA.
#
# CIF created using the CSD Python API on 29 September 2022
# The structure has been converted into the P1 space group
# The structure has a 3D framework
# The original CSD entry FAKMOX is in the hexagonal crystal system
# The framework has been calculated to contain at least 10.0% void space
# The void calculation uses a probe of radius 1.32A, grid spacing 0.4
# The framework is charged, counterions have been retained in the structure
# H atom positions have been added when not included in the experimental data
# Generated hydrogen atom positions removed from atoms on special positions
#
###############################################################################

data_FAKMOX
_chemical_formula_moiety         '(C264 H312 Br12 O124 Zr26 6-)n'
_symmetry_cell_setting           triclinic
_symmetry_space_group_name_H-M   'P 1'
_symmetry_Int_Tables_number      1
_space_group_name_Hall           'P 1'
loop_
_symmetry_equiv_pos_site_id
_symmetry_equiv_pos_as_xyz
1 x,y,z
_cell_length_a                   39.3143(4)
_cell_length_b                   39.3143(4)
_cell_length_c                   16.54970(10)
_cell_angle_alpha                90
_cell_angle_beta                 90
_cell_angle_gamma                120
_cell_volume                     22152.5
loop_
_atom_site_label
_atom_site_type_symbol
_atom_site_fract_x
_atom_site_fract_y
_atom_site_fract_z
Br1 Br 0.92292(7) 0.46146(3) 0.19116(14)
Br1_2 Br 0.53854(3) 0.46146(8) 0.19116(14)
Br1_3 Br 0.53854(8) 0.07708(7) 0.19116(14)
Br1_4 Br 0.07708(7) 0.53854(3) 0.19116(14)
Br1_5 Br 0.46146(3) 0.53854(8) 0.19116(14)
Br1_6 Br 0.46146(8) 0.92292(7) 0.19116(14)
Br1_7 Br 0.46146(3) 0.92292(7) 0.80884(14)
Br1_8 Br 0.46146(8) 0.53854(3) 0.80884(14)
Br1_9 Br 0.07708(7) 0.53854(8) 0.80884(14)
Br1_10 Br 0.53854(3) 0.07708(7) 0.80884(14)
Br1_11 Br 0.53854(8) 0.46146(3) 0.80884(14)
Br1_12 Br 0.92292(7) 0.46146(8) 0.80884(14)
O1 O 0.0795(4) 0.6663(5) 0.5000
H23 H 0.104758 0.6663 0.5
O1_2 O 0.3337(5) 0.4132(6) 0.5000
H23_2 H 0.3337 0.438458 0.5
O1_3 O 0.5868(6) 0.9205(4) 0.5000
H23_3 H 0.561542 0.895242 0.5
O1_4 O 0.9205(4) 0.3337(5) 0.5000
H23_4 H 0.895242 0.3337 0.5
O1_5 O 0.6663(5) 0.5868(6) 0.5000
H23_5 H 0.6663 0.561542 0.5
O1_6 O 0.4132(6) 0.0795(4) 0.5000
H23_6 H 0.438458 0.104758 0.5
O1_7 O 0.6663(5) 0.0795(4) 0.5000
H23_7 H 0.6663 0.104758 0.5
O1_8 O 0.4132(6) 0.3337(5) 0.5000
H23_8 H 0.438458 0.3337 0.5
O1_9 O 0.9205(4) 0.5868(6) 0.5000
H23_9 H 0.895242 0.561542 0.5
O1_10 O 0.3337(5) 0.9205(4) 0.5000
H23_10 H 0.3337 0.895242 0.5
O1_11 O 0.5868(6) 0.6663(5) 0.5000
H23_11 H 0.561542 0.6663 0.5
O1_12 O 0.0795(4) 0.4132(6) 0.5000
H23_12 H 0.104758 0.438458 0.5
Zr2 Zr -0.0000 0.54515(2) 0.39360(2)
O6 O -0.0000 0.54225(16) 0.2598(3)
O7 O -0.0000 0.60061(14) 0.4058(4)
Zr3 Zr -0.0000 0.45485(2) 0.39360(2)
O14 O -0.0000 0.45775(16) 0.2598(3)
O15 O -0.0000 0.39939(14) 0.4058(4)
Zr9 Zr -0.0000 0.54515(2) 0.60640(2)
Zr11 Zr -0.0000 0.45485(2) 0.60640(2)
O18 O 0.03575(11) 0.47172(14) 0.5000
O19 O 0.03575(11) 0.56403(18) 0.5000
O23 O 0.03440(14) 0.51720(7) 0.3941(3)
O24 O 0.05836(8) 0.46647(11) 0.34936(19)
O26 O 0.05836(8) 0.59189(14) 0.34936(19)
Zr1 Zr 0.92820(2) 0.46410(2) 0.5000
Zr2_2 Zr 1.0000 0.54515(2) 0.39360(2)
O2 O 0.96425(11) 0.52828(14) 0.5000
O3 O 0.89527(7) 0.48097(9) 0.41888(14)
O4 O 0.96560(14) 0.48280(7) 0.3941(3)
O5 O 0.94164(8) 0.53353(11) 0.34936(19)
O6_2 O 1.0000 0.54225(16) 0.2598(3)
O7_2 O 1.0000 0.60061(14) 0.4058(4)
C1 C 0.90646(10) 0.50702(14) 0.3653(2)
C2 C 0.81603(13) 0.50725(19) 0.2199(2)
C3 C 0.87448(11) 0.50752(15) 0.3164(2)
C4 C 0.83621(12) 0.47928(17) 0.3258(3)
H1 H 0.8295 0.4595 0.3656
C5 C 0.75328(14) 0.5066(3) 0.2107(3)
H2 H 0.7533 0.5067 0.2681
C6 C 0.80702(12) 0.47874(19) 0.2788(2)
H3 H 0.7805 0.4587 0.2866
C7 C 0.78448(14) 0.5064(2) 0.0863(2)
C8 C 0.78388(14) 0.5065(2) 0.1710(2)
C9 C 0.88389(14) 0.53662(18) 0.2580(3)
H4 H 0.9104 0.5570 0.2516
C10 C 0.75323(14) 0.5065(3) 0.0440(3)
C11 C 0.85483(15) 0.5358(2) 0.2096(3)
H5 H 0.8617 0.5552 0.1688
C12 C 0.81449(15) 0.5051(2) 0.0414(2)
H6 H 0.8351 0.5041 0.0694
O12 O 0.58570(11) 0.48097(9) 0.41888(14)
O13 O 0.59189(14) 0.53353(11) 0.34936(19)
C35 C 0.60056(17) 0.50702(14) 0.3653(2)
C36 C 0.69122(23) 0.50725(19) 0.2199(2)
C37 C 0.63304(19) 0.50752(15) 0.3164(2)
C38 C 0.64307(21) 0.47928(17) 0.3258(3)
H18 H 0.6300 0.4595 0.3656
C39 C 0.67172(22) 0.47874(19) 0.2788(2)
H19 H 0.6782 0.4587 0.2866
C40 C 0.72192(24) 0.5064(2) 0.0863(2)
C41 C 0.72262(24) 0.5065(2) 0.1710(2)
C42 C 0.65273(23) 0.53662(18) 0.2580(3)
H20 H 0.6466 0.5570 0.2516
C43 C 0.68097(25) 0.5358(2) 0.2096(3)
H21 H 0.6935 0.5552 0.1688
C44 C 0.69061(25) 0.5051(2) 0.0414(2)
H22 H 0.6690 0.5041 0.0694
Zr3_2 Zr 1.0000 0.45485(2) 0.39360(2)
O14_2 O 1.0000 0.45775(16) 0.2598(3)
O15_2 O 1.0000 0.39939(14) 0.4058(4)
O16 O 0.96425(11) 0.43597(18) 0.5000
O17 O 0.96560(14) 0.48280(16) 0.6059(3)
Zr6 Zr 0.53590(2) 0.46410(3) 0.5000
Zr7 Zr 0.54515(2) 0.54515(2) 0.39360(2)
Zr9_2 Zr 1.0000 0.54515(2) 0.60640(2)
Zr11_2 Zr 1.0000 0.45485(2) 0.60640(2)
O20 O 0.89527(7) 0.41430(11) 0.58112(14)
O21 O 0.89527(7) 0.48097(9) 0.58112(14)
O22 O 0.89527(7) 0.41430(11) 0.41888(14)
O25 O 0.94164(8) 0.40811(14) 0.34936(19)
O8 O 0.58570(11) 0.48097(9) 0.58112(14)
O9 O 0.59189(14) 0.53353(11) 0.65064(19)
C13 C 0.60056(17) 0.50702(14) 0.6347(2)
C14 C 0.69122(23) 0.50725(19) 0.7801(2)
C15 C 0.63304(19) 0.50752(15) 0.6836(2)
C16 C 0.64307(21) 0.47928(17) 0.6742(3)
H7 H 0.6300 0.4595 0.6344
C17 C 0.75332(33) 0.5066(3) 0.7893(3)
H8 H 0.7534 0.5067 0.7319
C18 C 0.67172(22) 0.47874(19) 0.7212(2)
H9 H 0.6782 0.4587 0.7134
C19 C 0.72192(24) 0.5064(2) 0.9137(2)
C20 C 0.72262(24) 0.5065(2) 0.8290(2)
C21 C 0.65273(23) 0.53662(18) 0.7420(3)
H10 H 0.6466 0.5570 0.7484
C22 C 0.75327(33) 0.5065(3) 0.9560(3)
C23 C 0.68097(25) 0.5358(2) 0.7904(3)
H11 H 0.6935 0.5552 0.8312
C24 C 0.69061(25) 0.5051(2) 0.9586(2)
H12 H 0.6690 0.5041 0.9306
O11 O 0.94164(8) 0.53353(11) 0.65064(19)
C25 C 0.90646(10) 0.50702(14) 0.6347(2)
C26 C 0.81603(13) 0.50725(19) 0.7801(2)
C27 C 0.87448(11) 0.50752(15) 0.6836(2)
C28 C 0.83621(12) 0.47928(17) 0.6742(3)
H13 H 0.8295 0.4595 0.6344
C29 C 0.80702(12) 0.47874(19) 0.7212(2)
H14 H 0.7805 0.4587 0.7134
C30 C 0.78448(14) 0.5064(2) 0.9137(2)
C31 C 0.78388(14) 0.5065(2) 0.8290(2)
C32 C 0.88389(14) 0.53662(18) 0.7420(3)
H15 H 0.9104 0.5570 0.7484
C33 C 0.85483(15) 0.5358(2) 0.7904(3)
H16 H 0.8617 0.5552 0.8312
C34 C 0.81449(15) 0.5051(2) 0.9586(2)
H17 H 0.8351 0.5041 0.9306
Zr10 Zr 0.54515(2) 0.54515(2) 0.60640(2)
Zr2_3 Zr 0.45485(2) 0.45485(2) 0.39360(2)
O2_2 O 0.47172(14) 0.43597(18) 0.5000
O3_2 O 0.51903(9) 0.41430(11) 0.41888(14)
O4_2 O 0.51720(7) 0.48280(16) 0.3941(3)
O5_2 O 0.46647(11) 0.40811(14) 0.34936(19)
O6_3 O 0.45775(16) 0.45775(16) 0.2598(3)
O7_3 O 0.39939(14) 0.39939(14) 0.4058(4)
C1_2 C 0.49298(14) 0.39944(17) 0.3653(2)
C2_2 C 0.49275(19) 0.30878(23) 0.2199(2)
C3_2 C 0.49248(15) 0.36696(19) 0.3164(2)
C4_2 C 0.52072(17) 0.35693(21) 0.3258(3)
H1_2 H 0.5405 0.3700 0.3656
C5_2 C 0.4934(3) 0.24668(33) 0.2107(3)
H2_2 H 0.4933 0.2466 0.2681
C6_2 C 0.52126(19) 0.32828(22) 0.2788(2)
H3_2 H 0.5413 0.3218 0.2866
C7_2 C 0.4936(2) 0.27808(24) 0.0863(2)
C8_2 C 0.4935(2) 0.27738(24) 0.1710(2)
C9_2 C 0.46338(18) 0.34727(23) 0.2580(3)
H4_2 H 0.4430 0.3534 0.2516
C10_2 C 0.4935(3) 0.24673(33) 0.0440(3)
C11_2 C 0.4642(2) 0.31903(25) 0.2096(3)
H5_2 H 0.4448 0.3065 0.1688
C12_2 C 0.4949(2) 0.30939(25) 0.0414(2)
H6_2 H 0.4959 0.3310 0.0694
O12_2 O 0.51903(9) 0.10473(14) 0.41888(14)
O13_2 O 0.46647(11) 0.05836(18) 0.34936(19)
C35_2 C 0.49298(14) 0.09354(22) 0.3653(2)
C36_2 C 0.49275(19) 0.18397(30) 0.2199(2)
C37_2 C 0.49248(15) 0.12552(24) 0.3164(2)
C38_2 C 0.52072(17) 0.16379(27) 0.3258(3)
H18_2 H 0.5405 0.1705 0.3656
C39_2 C 0.52126(19) 0.19298(29) 0.2788(2)
H19_2 H 0.5413 0.2195 0.2866
C40_2 C 0.4936(2) 0.21552(31) 0.0863(2)
C41_2 C 0.4935(2) 0.21612(31) 0.1710(2)
C42_2 C 0.46338(18) 0.11611(29) 0.2580(3)
H20_2 H 0.4430 0.0896 0.2516
C43_2 C 0.4642(2) 0.14517(32) 0.2096(3)
H21_2 H 0.4448 0.1383 0.1688
C44_2 C 0.4949(2) 0.18551(32) 0.0414(2)
H22_2 H 0.4959 0.1649 0.0694
O14_3 O 0.54225(16) 0.54225(16) 0.2598(3)
O15_3 O 0.60061(14) 0.60061(14) 0.4058(4)
O16_2 O 0.56403(18) 0.52828(21) 0.5000
O17_2 O 0.51720(16) 0.48280(21) 0.6059(3)
Zr6_2 Zr 0.53590(3) 0.07180(4) 0.5000
Zr7_2 Zr 0.45485(2) 0.00000(3) 0.39360(2)
Zr9_3 Zr 0.45485(2) 0.45485(2) 0.60640(2)
O18_2 O 0.52828(14) 0.56403(18) 0.5000
O19_2 O 0.43597(18) 0.47172(21) 0.5000
O21_2 O 0.51903(9) 0.41430(11) 0.58112(14)
O23_2 O 0.48280(7) 0.51720(16) 0.3941(3)
O24_2 O 0.53353(11) 0.59189(14) 0.34936(19)
O26_2 O 0.40811(14) 0.46647(16) 0.34936(19)
O8_2 O 0.51903(9) 0.10473(14) 0.58112(14)
O9_2 O 0.46647(11) 0.05836(18) 0.65064(19)
C13_2 C 0.49298(14) 0.09354(22) 0.6347(2)
C14_2 C 0.49275(19) 0.18397(30) 0.7801(2)
C15_2 C 0.49248(15) 0.12552(24) 0.6836(2)
C16_2 C 0.52072(17) 0.16379(27) 0.6742(3)
H7_2 H 0.5405 0.1705 0.6344
C17_2 C 0.4934(3) 0.24672(45) 0.7893(3)
H8_2 H 0.4933 0.2467 0.7319
C18_2 C 0.52126(19) 0.19298(29) 0.7212(2)
H9_2 H 0.5413 0.2195 0.7134
C19_2 C 0.4936(2) 0.21552(31) 0.9137(2)
C20_2 C 0.4935(2) 0.21612(31) 0.8290(2)
C21_2 C 0.46338(18) 0.11611(29) 0.7420(3)
H10_2 H 0.4430 0.0896 0.7484
C22_2 C 0.4935(3) 0.24677(45) 0.9560(3)
C23_2 C 0.4642(2) 0.14517(32) 0.7904(3)
H11_2 H 0.4448 0.1383 0.8312
C24_2 C 0.4949(2) 0.18551(32) 0.9586(2)
H12_2 H 0.4959 0.1649 0.9306
O11_2 O 0.46647(11) 0.40811(14) 0.65064(19)
C25_2 C 0.49298(14) 0.39944(17) 0.6347(2)
C26_2 C 0.49275(19) 0.30878(23) 0.7801(2)
C27_2 C 0.49248(15) 0.36696(19) 0.6836(2)
C28_2 C 0.52072(17) 0.35693(21) 0.6742(3)
H13_2 H 0.5405 0.3700 0.6344
C29_2 C 0.52126(19) 0.32828(22) 0.7212(2)
H14_2 H 0.5413 0.3218 0.7134
C30_2 C 0.4936(2) 0.27808(24) 0.9137(2)
C31_2 C 0.4935(2) 0.27738(24) 0.8290(2)
C32_2 C 0.46338(18) 0.34727(23) 0.7420(3)
H15_2 H 0.4430 0.3534 0.7484
C33_2 C 0.4642(2) 0.31903(25) 0.7904(3)
H16_2 H 0.4448 0.3065 0.8312
C34_2 C 0.4949(2) 0.30939(25) 0.9586(2)
H17_2 H 0.4959 0.3310 0.9306
Zr10_2 Zr 0.45485(2) 0.00000(3) 0.60640(2)
Zr7_3 Zr 0.45485(2) 1.00000(3) 0.39360(2)
Zr10_3 Zr 0.45485(2) 1.00000(3) 0.60640(2)
Zr2_4 Zr 0.54515(2) 0.0000 0.39360(2)
O2_3 O 0.56403(18) 0.03575(11) 0.5000
O3_3 O 0.58570(11) 0.10473(7) 0.41888(14)
O4_3 O 0.51720(16) 0.03440(14) 0.3941(3)
O5_3 O 0.59189(14) 0.05836(8) 0.34936(19)
O6_4 O 0.54225(16) 0.0000 0.2598(3)
O7_4 O 0.60061(14) 0.0000 0.4058(4)
C1_3 C 0.60056(17) 0.09354(10) 0.3653(2)
C2_3 C 0.69122(23) 0.18397(13) 0.2199(2)
C3_3 C 0.63304(19) 0.12552(11) 0.3164(2)
C4_3 C 0.64307(21) 0.16379(12) 0.3258(3)
H1_3 H 0.6300 0.1705 0.3656
C5_3 C 0.75332(33) 0.24672(14) 0.2107(3)
H2_3 H 0.7534 0.2467 0.2681
C6_3 C 0.67172(22) 0.19298(12) 0.2788(2)
H3_3 H 0.6782 0.2195 0.2866
C7_3 C 0.72192(24) 0.21552(14) 0.0863(2)
C8_3 C 0.72262(24) 0.21612(14) 0.1710(2)
C9_3 C 0.65273(23) 0.11611(14) 0.2580(3)
H4_3 H 0.6466 0.0896 0.2516
C10_3 C 0.75327(33) 0.24677(14) 0.0440(3)
C11_3 C 0.68097(25) 0.14517(15) 0.2096(3)
H5_3 H 0.6935 0.1383 0.1688
C12_3 C 0.69061(25) 0.18551(15) 0.0414(2)
H6_3 H 0.6690 0.1649 0.0694
C35_3 C 0.90646(22) 0.39944(17) 0.3653(2)
C36_3 C 0.81603(30) 0.30878(23) 0.2199(2)
C37_3 C 0.87448(24) 0.36696(19) 0.3164(2)
C38_3 C 0.83621(27) 0.35693(21) 0.3258(3)
H18_3 H 0.8295 0.3700 0.3656
C39_3 C 0.80702(29) 0.32828(22) 0.2788(2)
H19_3 H 0.7805 0.3218 0.2866
C40_3 C 0.78448(31) 0.27808(24) 0.0863(2)
C41_3 C 0.78388(31) 0.27738(24) 0.1710(2)
C42_3 C 0.88389(29) 0.34727(23) 0.2580(3)
H20_3 H 0.9104 0.3534 0.2516
C43_3 C 0.85483(32) 0.31903(25) 0.2096(3)
H21_3 H 0.8617 0.3065 0.1688
C44_3 C 0.81449(32) 0.30939(25) 0.0414(2)
H22_3 H 0.8351 0.3310 0.0694
O14_4 O 0.45775(16) 0.0000 0.2598(3)
O15_4 O 0.39939(14) 0.0000 0.4058(4)
O16_3 O 0.47172(21) 0.03575(11) 0.5000
O17_3 O 0.51720(21) 0.03440(14) 0.6059(3)
Zr9_4 Zr 0.54515(2) 0.0000 0.60640(2)
O21_3 O 0.58570(11) 0.10473(7) 0.58112(14)
O9_3 O 0.94164(18) 0.40811(14) 0.65064(19)
C13_3 C 0.90646(22) 0.39944(17) 0.6347(2)
C14_3 C 0.81603(30) 0.30878(23) 0.7801(2)
C15_3 C 0.87448(24) 0.36696(19) 0.6836(2)
C16_3 C 0.83621(27) 0.35693(21) 0.6742(3)
H7_3 H 0.8295 0.3700 0.6344
C17_3 C 0.75328(45) 0.24668(33) 0.7893(3)
H8_3 H 0.7533 0.2466 0.7319
C18_3 C 0.80702(29) 0.32828(22) 0.7212(2)
H9_3 H 0.7805 0.3218 0.7134
C19_3 C 0.78448(31) 0.27808(24) 0.9137(2)
C20_3 C 0.78388(31) 0.27738(24) 0.8290(2)
C21_3 C 0.88389(29) 0.34727(23) 0.7420(3)
H10_3 H 0.9104 0.3534 0.7484
C22_3 C 0.75323(45) 0.24673(33) 0.9560(3)
C23_3 C 0.85483(32) 0.31903(25) 0.7904(3)
H11_3 H 0.8617 0.3065 0.8312
C24_3 C 0.81449(32) 0.30939(25) 0.9586(2)
H12_3 H 0.8351 0.3310 0.9306
O11_3 O 0.59189(14) 0.05836(8) 0.65064(19)
C25_3 C 0.60056(17) 0.09354(10) 0.6347(2)
C26_3 C 0.69122(23) 0.18397(13) 0.7801(2)
C27_3 C 0.63304(19) 0.12552(11) 0.6836(2)
C28_3 C 0.64307(21) 0.16379(12) 0.6742(3)
H13_3 H 0.6300 0.1705 0.6344
C29_3 C 0.67172(22) 0.19298(12) 0.7212(2)
H14_3 H 0.6782 0.2195 0.7134
C30_3 C 0.72192(24) 0.21552(14) 0.9137(2)
C31_3 C 0.72262(24) 0.21612(14) 0.8290(2)
C32_3 C 0.65273(23) 0.11611(14) 0.7420(3)
H15_3 H 0.6466 0.0896 0.7484
C33_3 C 0.68097(25) 0.14517(15) 0.7904(3)
H16_3 H 0.6935 0.1383 0.8312
C34_3 C 0.69061(25) 0.18551(15) 0.9586(2)
H17_3 H 0.6690 0.1649 0.9306
Zr2_5 Zr 0.54515(2) 1.0000 0.39360(2)
O6_5 O 0.54225(16) 1.0000 0.2598(3)
O7_5 O 0.60061(14) 1.0000 0.4058(4)
O14_5 O 0.45775(16) 1.0000 0.2598(3)
O15_5 O 0.39939(14) 1.0000 0.4058(4)
Zr9_5 Zr 0.54515(2) 1.0000 0.60640(2)
O18_3 O 0.43597(18) 0.96425(11) 0.5000
O19_3 O 0.52828(21) 0.96425(11) 0.5000
O23_3 O 0.48280(16) 0.96560(14) 0.3941(3)
O24_3 O 0.40811(14) 0.94164(8) 0.34936(19)
O26_3 O 0.53353(16) 0.94164(8) 0.34936(19)
Zr1_2 Zr 0.07180(2) 0.53590(2) 0.5000
O3_4 O 0.10473(7) 0.51903(9) 0.41888(14)
C1_4 C 0.09354(10) 0.49298(14) 0.3653(2)
C2_4 C 0.18397(13) 0.49275(19) 0.2199(2)
C3_4 C 0.12552(11) 0.49248(15) 0.3164(2)
C4_4 C 0.16379(12) 0.52072(17) 0.3258(3)
H1_4 H 0.1705 0.5405 0.3656
C5_4 C 0.24672(14) 0.4934(3) 0.2107(3)
H2_4 H 0.2467 0.4933 0.2681
C6_4 C 0.19298(12) 0.52126(19) 0.2788(2)
H3_4 H 0.2195 0.5413 0.2866
C7_4 C 0.21552(14) 0.4936(2) 0.0863(2)
C8_4 C 0.21612(14) 0.4935(2) 0.1710(2)
C9_4 C 0.11611(14) 0.46338(18) 0.2580(3)
H4_4 H 0.0896 0.4430 0.2516
C10_4 C 0.24677(14) 0.4935(3) 0.0440(3)
C11_4 C 0.14517(15) 0.4642(2) 0.2096(3)
H5_4 H 0.1383 0.4448 0.1688
C12_4 C 0.18551(15) 0.4949(2) 0.0414(2)
H6_4 H 0.1649 0.4959 0.0694
O12_3 O 0.41430(11) 0.51903(9) 0.41888(14)
C35_4 C 0.39944(17) 0.49298(14) 0.3653(2)
C36_4 C 0.30878(23) 0.49275(19) 0.2199(2)
C37_4 C 0.36696(19) 0.49248(15) 0.3164(2)
C38_4 C 0.35693(21) 0.52072(17) 0.3258(3)
H18_4 H 0.3700 0.5405 0.3656
C39_4 C 0.32828(22) 0.52126(19) 0.2788(2)
H19_4 H 0.3218 0.5413 0.2866
C40_4 C 0.27808(24) 0.4936(2) 0.0863(2)
C41_4 C 0.27738(24) 0.4935(2) 0.1710(2)
C42_4 C 0.34727(23) 0.46338(18) 0.2580(3)
H20_4 H 0.3534 0.4430 0.2516
C43_4 C 0.31903(25) 0.4642(2) 0.2096(3)
H21_4 H 0.3065 0.4448 0.1688
C44_4 C 0.30939(25) 0.4949(2) 0.0414(2)
H22_4 H 0.3310 0.4959 0.0694
O17_4 O 0.03440(14) 0.51720(16) 0.6059(3)
Zr6_3 Zr 0.46410(2) 0.53590(3) 0.5000
O20_2 O 0.10473(7) 0.58570(11) 0.58112(14)
O21_4 O 0.10473(7) 0.51903(9) 0.58112(14)
O22_2 O 0.10473(7) 0.58570(11) 0.41888(14)
O8_3 O 0.41430(11) 0.51903(9) 0.58112(14)
O9_4 O 0.40811(14) 0.46647(11) 0.65064(19)
C13_4 C 0.39944(17) 0.49298(14) 0.6347(2)
C14_4 C 0.30878(23) 0.49275(19) 0.7801(2)
C15_4 C 0.36696(19) 0.49248(15) 0.6836(2)
C16_4 C 0.35693(21) 0.52072(17) 0.6742(3)
H7_4 H 0.3700 0.5405 0.6344
C17_4 C 0.24668(33) 0.4934(3) 0.7893(3)
H8_4 H 0.2466 0.4933 0.7319
C18_4 C 0.32828(22) 0.52126(19) 0.7212(2)
H9_4 H 0.3218 0.5413 0.7134
C19_4 C 0.27808(24) 0.4936(2) 0.9137(2)
C20_4 C 0.27738(24) 0.4935(2) 0.8290(2)
C21_4 C 0.34727(23) 0.46338(18) 0.7420(3)
H10_4 H 0.3534 0.4430 0.7484
C22_4 C 0.24673(33) 0.4935(3) 0.9560(3)
C23_4 C 0.31903(25) 0.4642(2) 0.7904(3)
H11_4 H 0.3065 0.4448 0.8312
C24_4 C 0.30939(25) 0.4949(2) 0.9586(2)
H12_4 H 0.3310 0.4959 0.9306
O11_4 O 0.05836(8) 0.46647(11) 0.65064(19)
C25_4 C 0.09354(10) 0.49298(14) 0.6347(2)
C26_4 C 0.18397(13) 0.49275(19) 0.7801(2)
C27_4 C 0.12552(11) 0.49248(15) 0.6836(2)
C28_4 C 0.16379(12) 0.52072(17) 0.6742(3)
H13_4 H 0.1705 0.5405 0.6344
C29_4 C 0.19298(12) 0.52126(19) 0.7212(2)
H14_4 H 0.2195 0.5413 0.7134
C30_4 C 0.21552(14) 0.4936(2) 0.9137(2)
C31_4 C 0.21612(14) 0.4935(2) 0.8290(2)
C32_4 C 0.11611(14) 0.46338(18) 0.7420(3)
H15_4 H 0.0896 0.4430 0.7484
C33_4 C 0.14517(15) 0.4642(2) 0.7904(3)
H16_4 H 0.1383 0.4448 0.8312
C34_4 C 0.18551(15) 0.4949(2) 0.9586(2)
H17_4 H 0.1649 0.4959 0.9306
O3_5 O 0.48097(9) 0.58570(11) 0.41888(14)
C1_5 C 0.50702(14) 0.60056(17) 0.3653(2)
C2_5 C 0.50725(19) 0.69122(23) 0.2199(2)
C3_5 C 0.50752(15) 0.63304(19) 0.3164(2)
C4_5 C 0.47928(17) 0.64307(21) 0.3258(3)
H1_5 H 0.4595 0.6300 0.3656
C5_5 C 0.5066(3) 0.75332(33) 0.2107(3)
H2_5 H 0.5067 0.7534 0.2681
C6_5 C 0.47874(19) 0.67172(22) 0.2788(2)
H3_5 H 0.4587 0.6782 0.2866
C7_5 C 0.5064(2) 0.72192(24) 0.0863(2)
C8_5 C 0.5065(2) 0.72262(24) 0.1710(2)
C9_5 C 0.53662(18) 0.65273(23) 0.2580(3)
H4_5 H 0.5570 0.6466 0.2516
C10_5 C 0.5065(3) 0.75327(33) 0.0440(3)
C11_5 C 0.5358(2) 0.68097(25) 0.2096(3)
H5_5 H 0.5552 0.6935 0.1688
C12_5 C 0.5051(2) 0.69061(25) 0.0414(2)
H6_5 H 0.5041 0.6690 0.0694
O12_4 O 0.48097(9) 0.89527(14) 0.41888(14)
C35_5 C 0.50702(14) 0.90646(22) 0.3653(2)
C36_5 C 0.50725(19) 0.81603(30) 0.2199(2)
C37_5 C 0.50752(15) 0.87448(24) 0.3164(2)
C38_5 C 0.47928(17) 0.83621(27) 0.3258(3)
H18_5 H 0.4595 0.8295 0.3656
C39_5 C 0.47874(19) 0.80702(29) 0.2788(2)
H19_5 H 0.4587 0.7805 0.2866
C40_5 C 0.5064(2) 0.78448(31) 0.0863(2)
C41_5 C 0.5065(2) 0.78388(31) 0.1710(2)
C42_5 C 0.53662(18) 0.88389(29) 0.2580(3)
H20_5 H 0.5570 0.9104 0.2516
C43_5 C 0.5358(2) 0.85483(32) 0.2096(3)
H21_5 H 0.5552 0.8617 0.1688
C44_5 C 0.5051(2) 0.81449(32) 0.0414(2)
H22_5 H 0.5041 0.8351 0.0694
O17_5 O 0.48280(16) 0.51720(21) 0.6059(3)
Zr6_4 Zr 0.46410(3) 0.92820(4) 0.5000
O21_5 O 0.48097(9) 0.58570(11) 0.58112(14)
O8_4 O 0.48097(9) 0.89527(14) 0.58112(14)
O9_5 O 0.53353(11) 0.94164(18) 0.65064(19)
C13_5 C 0.50702(14) 0.90646(22) 0.6347(2)
C14_5 C 0.50725(19) 0.81603(30) 0.7801(2)
C15_5 C 0.50752(15) 0.87448(24) 0.6836(2)
C16_5 C 0.47928(17) 0.83621(27) 0.6742(3)
H7_5 H 0.4595 0.8295 0.6344
C17_5 C 0.5066(3) 0.75328(45) 0.7893(3)
H8_5 H 0.5067 0.7533 0.7319
C18_5 C 0.47874(19) 0.80702(29) 0.7212(2)
H9_5 H 0.4587 0.7805 0.7134
C19_5 C 0.5064(2) 0.78448(31) 0.9137(2)
C20_5 C 0.5065(2) 0.78388(31) 0.8290(2)
C21_5 C 0.53662(18) 0.88389(29) 0.7420(3)
H10_5 H 0.5570 0.9104 0.7484
C22_5 C 0.5065(3) 0.75323(45) 0.9560(3)
C23_5 C 0.5358(2) 0.85483(32) 0.7904(3)
H11_5 H 0.5552 0.8617 0.8312
C24_5 C 0.5051(2) 0.81449(32) 0.9586(2)
H12_5 H 0.5041 0.8351 0.9306
O11_5 O 0.53353(11) 0.59189(14) 0.65064(19)
C25_5 C 0.50702(14) 0.60056(17) 0.6347(2)
C26_5 C 0.50725(19) 0.69122(23) 0.7801(2)
C27_5 C 0.50752(15) 0.63304(19) 0.6836(2)
C28_5 C 0.47928(17) 0.64307(21) 0.6742(3)
H13_5 H 0.4595 0.6300 0.6344
C29_5 C 0.47874(19) 0.67172(22) 0.7212(2)
H14_5 H 0.4587 0.6782 0.7134
C30_5 C 0.5064(2) 0.72192(24) 0.9137(2)
C31_5 C 0.5065(2) 0.72262(24) 0.8290(2)
C32_5 C 0.53662(18) 0.65273(23) 0.7420(3)
H15_5 H 0.5570 0.6466 0.7484
C33_5 C 0.5358(2) 0.68097(25) 0.7904(3)
H16_5 H 0.5552 0.6935 0.8312
C34_5 C 0.5051(2) 0.69061(25) 0.9586(2)
H17_5 H 0.5041 0.6690 0.9306
O3_6 O 0.41430(11) 0.89527(7) 0.41888(14)
C1_6 C 0.39944(17) 0.90646(10) 0.3653(2)
C2_6 C 0.30878(23) 0.81603(13) 0.2199(2)
C3_6 C 0.36696(19) 0.87448(11) 0.3164(2)
C4_6 C 0.35693(21) 0.83621(12) 0.3258(3)
H1_6 H 0.3700 0.8295 0.3656
C5_6 C 0.24668(33) 0.75328(14) 0.2107(3)
H2_6 H 0.2466 0.7533 0.2681
C6_6 C 0.32828(22) 0.80702(12) 0.2788(2)
H3_6 H 0.3218 0.7805 0.2866
C7_6 C 0.27808(24) 0.78448(14) 0.0863(2)
C8_6 C 0.27738(24) 0.78388(14) 0.1710(2)
C9_6 C 0.34727(23) 0.88389(14) 0.2580(3)
H4_6 H 0.3534 0.9104 0.2516
C10_6 C 0.24673(33) 0.75323(14) 0.0440(3)
C11_6 C 0.31903(25) 0.85483(15) 0.2096(3)
H5_6 H 0.3065 0.8617 0.1688
C12_6 C 0.30939(25) 0.81449(15) 0.0414(2)
H6_6 H 0.3310 0.8351 0.0694
C35_6 C 0.09354(22) 0.60056(17) 0.3653(2)
C36_6 C 0.18397(30) 0.69122(23) 0.2199(2)
C37_6 C 0.12552(24) 0.63304(19) 0.3164(2)
C38_6 C 0.16379(27) 0.64307(21) 0.3258(3)
H18_6 H 0.1705 0.6300 0.3656
C39_6 C 0.19298(29) 0.67172(22) 0.2788(2)
H19_6 H 0.2195 0.6782 0.2866
C40_6 C 0.21552(31) 0.72192(24) 0.0863(2)
C41_6 C 0.21612(31) 0.72262(24) 0.1710(2)
C42_6 C 0.11611(29) 0.65273(23) 0.2580(3)
H20_6 H 0.0896 0.6466 0.2516
C43_6 C 0.14517(32) 0.68097(25) 0.2096(3)
H21_6 H 0.1383 0.6935 0.1688
C44_6 C 0.18551(32) 0.69061(25) 0.0414(2)
H22_6 H 0.1649 0.6690 0.0694
O17_6 O 0.48280(21) 0.96560(14) 0.6059(3)
O21_6 O 0.41430(11) 0.89527(7) 0.58112(14)
O9_6 O 0.05836(18) 0.59189(14) 0.65064(19)
C13_6 C 0.09354(22) 0.60056(17) 0.6347(2)
C14_6 C 0.18397(30) 0.69122(23) 0.7801(2)
C15_6 C 0.12552(24) 0.63304(19) 0.6836(2)
C16_6 C 0.16379(27) 0.64307(21) 0.6742(3)
H7_6 H 0.1705 0.6300 0.6344
C17_6 C 0.24672(45) 0.75332(33) 0.7893(3)
H8_6 H 0.2467 0.7534 0.7319
C18_6 C 0.19298(29) 0.67172(22) 0.7212(2)
H9_6 H 0.2195 0.6782 0.7134
C19_6 C 0.21552(31) 0.72192(24) 0.9137(2)
C20_6 C 0.21612(31) 0.72262(24) 0.8290(2)
C21_6 C 0.11611(29) 0.65273(23) 0.7420(3)
H10_6 H 0.0896 0.6466 0.7484
C22_6 C 0.24677(45) 0.75327(33) 0.9560(3)
C23_6 C 0.14517(32) 0.68097(25) 0.7904(3)
H11_6 H 0.1383 0.6935 0.8312
C24_6 C 0.18551(32) 0.69061(25) 0.9586(2)
H12_6 H 0.1649 0.6690 0.9306
O11_6 O 0.40811(14) 0.94164(8) 0.65064(19)
C25_6 C 0.39944(17) 0.90646(10) 0.6347(2)
C26_6 C 0.30878(23) 0.81603(13) 0.7801(2)
C27_6 C 0.36696(19) 0.87448(11) 0.6836(2)
C28_6 C 0.35693(21) 0.83621(12) 0.6742(3)
H13_6 H 0.3700 0.8295 0.6344
C29_6 C 0.32828(22) 0.80702(12) 0.7212(2)
H14_6 H 0.3218 0.7805 0.7134
C30_6 C 0.27808(24) 0.78448(14) 0.9137(2)
C31_6 C 0.27738(24) 0.78388(14) 0.8290(2)
C32_6 C 0.34727(23) 0.88389(14) 0.7420(3)
H15_6 H 0.3534 0.9104 0.7484
C33_6 C 0.31903(25) 0.85483(15) 0.7904(3)
H16_6 H 0.3065 0.8617 0.8312
C34_6 C 0.30939(25) 0.81449(15) 0.9586(2)
H17_6 H 0.3310 0.8351 0.9306
O6_6 O 0.54225(16) -0.0000 0.7402(3)
O7_6 O 0.60061(14) 0.0000 0.5942(4)
O14_6 O 0.45775(16) -0.0000 0.7402(3)
O15_6 O 0.39939(14) 0.0000 0.5942(4)
O6_7 O 0.54225(16) 1.0000 0.7402(3)
O7_7 O 0.60061(14) 1.0000 0.5942(4)
O14_7 O 0.45775(16) 1.0000 0.7402(3)
O15_7 O 0.39939(14) 1.0000 0.5942(4)
O6_8 O 0.45775(16) 0.45775(16) 0.7402(3)
O7_8 O 0.39939(14) 0.39939(14) 0.5942(4)
O14_8 O 0.54225(16) 0.54225(16) 0.7402(3)
O15_8 O 0.60061(14) 0.60061(14) 0.5942(4)
O6_9 O -0.0000 0.54225(16) 0.7402(3)
O7_9 O -0.0000 0.60061(14) 0.5942(4)
O14_9 O -0.0000 0.45775(16) 0.7402(3)
O15_9 O 0.0000 0.39939(14) 0.5942(4)
O6_10 O 1.0000 0.54225(16) 0.7402(3)
O7_10 O 1.0000 0.60061(14) 0.5942(4)
O14_10 O 1.0000 0.45775(16) 0.7402(3)
O15_10 O 1.0000 0.39939(14) 0.5942(4)
loop_
_geom_bond_atom_site_label_1
_geom_bond_atom_site_label_2
_geom_bond_site_symmetry_1
_geom_bond_site_symmetry_2
O1 H23 1_555 1_555
O1_2 H23_2 1_555 1_555
O1_3 H23_3 1_555 1_555
O1_4 H23_4 1_555 1_555
O1_5 H23_5 1_555 1_555
O1_6 H23_6 1_555 1_555
O1_7 H23_7 1_555 1_555
O1_8 H23_8 1_555 1_555
O1_9 H23_9 1_555 1_555
O1_10 H23_10 1_555 1_555
O1_11 H23_11 1_555 1_555
O1_12 H23_12 1_555 1_555
O6 Zr2 1_555 1_555
O7 Zr2 1_555 1_555
O14 Zr3 1_555 1_555
O15 Zr3 1_555 1_555
O18 Zr3 1_555 1_555
O19 Zr2 1_555 1_555
O23 Zr2 1_555 1_555
O24 Zr3 1_555 1_555
O26 Zr2 1_555 1_555
Zr3 O23 1_555 1_555
Zr9 O19 1_555 1_555
Zr11 O18 1_555 1_555
Zr1 O2 1_555 1_555
Zr2_2 O2 1_555 1_555
O2 Zr9_2 1_555 1_555
O3 Zr1 1_555 1_555
O4 Zr1 1_555 1_555
O5 Zr2_2 1_555 1_555
O6_2 Zr2_2 1_555 1_555
O7_2 Zr2_2 1_555 1_555
C1 O3 1_555 1_555
C2 C6 1_555 1_555
C3 C1 1_555 1_555
C4 C3 1_555 1_555
H1 C4 1_555 1_555
C5 H2 1_555 1_555
C6 C4 1_555 1_555
H3 C6 1_555 1_555
C7 C8 1_555 1_555
C8 C2 1_555 1_555
C9 C3 1_555 1_555
H4 C9 1_555 1_555
C10 C7 1_555 1_555
C11 C2 1_555 1_555
H5 C11 1_555 1_555
C12 C7 1_555 1_555
H6 C12 1_555 1_555
O12 C35 1_555 1_555
O13 C35 1_555 1_555
C35 C37 1_555 1_555
C36 C39 1_555 1_555
C37 C38 1_555 1_555
C38 H18 1_555 1_555
C39 C38 1_555 1_555
H19 C39 1_555 1_555
C40 C10 1_555 1_555
C41 C5 1_555 1_555
C42 C37 1_555 1_555
H20 C42 1_555 1_555
C43 C36 1_555 1_555
H21 C43 1_555 1_555
H22 C44 1_555 1_555
Zr3_2 O4 1_555 1_555
O14_2 Zr3_2 1_555 1_555
O15_2 Zr3_2 1_555 1_555
O16 Zr1 1_555 1_555
O17 Zr1 1_555 1_555
Zr6 O12 1_555 1_555
Zr7 O13 1_555 1_555
Zr9_2 O17 1_555 1_555
Zr11_2 O16 1_555 1_555
O20 Zr1 1_555 1_555
O21 Zr1 1_555 1_555
O22 Zr1 1_555 1_555
O25 Zr3_2 1_555 1_555
Zr2_2 O4 1_555 1_555
O5 C1 1_555 1_555
C5 C8 1_555 1_555
C9 C11 1_555 1_555
C36 C41 1_555 1_555
C40 C41 1_555 1_555
C40 C44 1_555 1_555
C42 C43 1_555 1_555
Zr3_2 O16 1_555 1_555
O17 Zr11_2 1_555 1_555
O8 C13 1_555 1_555
O9 C13 1_555 1_555
C13 C15 1_555 1_555
C14 C18 1_555 1_555
C15 C16 1_555 1_555
C16 H7 1_555 1_555
C17 H8 1_555 1_555
C18 C16 1_555 1_555
H9 C18 1_555 1_555
C19 C20 1_555 1_555
C20 C14 1_555 1_555
C21 C15 1_555 1_555
H10 C21 1_555 1_555
C23 C14 1_555 1_555
H11 C23 1_555 1_555
C24 C19 1_555 1_555
H12 C24 1_555 1_555
O21 C25 1_555 1_555
O11 C25 1_555 1_555
C25 C27 1_555 1_555
C26 C29 1_555 1_555
C27 C28 1_555 1_555
C28 H13 1_555 1_555
C29 C28 1_555 1_555
H14 C29 1_555 1_555
C30 C22 1_555 1_555
C31 C17 1_555 1_555
C32 C27 1_555 1_555
H15 C32 1_555 1_555
C33 C26 1_555 1_555
H16 C33 1_555 1_555
H17 C34 1_555 1_555
Zr6 O8 1_555 1_555
Zr9_2 O11 1_555 1_555
Zr10 O9 1_555 1_555
C17 C20 1_555 1_555
C19 C22 1_555 1_555
C21 C23 1_555 1_555
C26 C31 1_555 1_555
C30 C31 1_555 1_555
C30 C34 1_555 1_555
C32 C33 1_555 1_555
Zr6 O2_2 1_555 1_555
Zr2_3 O2_2 1_555 1_555
O2_2 Zr9_3 1_555 1_555
O3_2 Zr6 1_555 1_555
O4_2 Zr6 1_555 1_555
O5_2 Zr2_3 1_555 1_555
O6_3 Zr2_3 1_555 1_555
O7_3 Zr2_3 1_555 1_555
C1_2 O3_2 1_555 1_555
C2_2 C6_2 1_555 1_555
C3_2 C1_2 1_555 1_555
C4_2 C3_2 1_555 1_555
H1_2 C4_2 1_555 1_555
C5_2 H2_2 1_555 1_555
C6_2 C4_2 1_555 1_555
H3_2 C6_2 1_555 1_555
C7_2 C8_2 1_555 1_555
C8_2 C2_2 1_555 1_555
C9_2 C3_2 1_555 1_555
H4_2 C9_2 1_555 1_555
C10_2 C7_2 1_555 1_555
C11_2 C2_2 1_555 1_555
H5_2 C11_2 1_555 1_555
C12_2 C7_2 1_555 1_555
H6_2 C12_2 1_555 1_555
O12_2 C35_2 1_555 1_555
O13_2 C35_2 1_555 1_555
C35_2 C37_2 1_555 1_555
C36_2 C39_2 1_555 1_555
C37_2 C38_2 1_555 1_555
C38_2 H18_2 1_555 1_555
C39_2 C38_2 1_555 1_555
H19_2 C39_2 1_555 1_555
C40_2 C10_2 1_555 1_555
C41_2 C5_2 1_555 1_555
C42_2 C37_2 1_555 1_555
H20_2 C42_2 1_555 1_555
C43_2 C36_2 1_555 1_555
H21_2 C43_2 1_555 1_555
H22_2 C44_2 1_555 1_555
Zr7 O4_2 1_555 1_555
O14_3 Zr7 1_555 1_555
O15_3 Zr7 1_555 1_555
O16_2 Zr6 1_555 1_555
O17_2 Zr6 1_555 1_555
Zr6_2 O12_2 1_555 1_555
Zr7_2 O13_2 1_555 1_555
Zr9_3 O17_2 1_555 1_555
Zr10 O16_2 1_555 1_555
O18_2 Zr7 1_555 1_555
O19_2 Zr2_3 1_555 1_555
O21_2 Zr6 1_555 1_555
O23_2 Zr2_3 1_555 1_555
O24_2 Zr7 1_555 1_555
O26_2 Zr2_3 1_555 1_555
Zr2_3 O4_2 1_555 1_555
O5_2 C1_2 1_555 1_555
C5_2 C8_2 1_555 1_555
C9_2 C11_2 1_555 1_555
C36_2 C41_2 1_555 1_555
C40_2 C41_2 1_555 1_555
C40_2 C44_2 1_555 1_555
C42_2 C43_2 1_555 1_555
Zr7 O16_2 1_555 1_555
Zr7 O23_2 1_555 1_555
O17_2 Zr10 1_555 1_555
Zr9_3 O19_2 1_555 1_555
Zr10 O18_2 1_555 1_555
O8_2 C13_2 1_555 1_555
O9_2 C13_2 1_555 1_555
C13_2 C15_2 1_555 1_555
C14_2 C18_2 1_555 1_555
C15_2 C16_2 1_555 1_555
C16_2 H7_2 1_555 1_555
C17_2 H8_2 1_555 1_555
C18_2 C16_2 1_555 1_555
H9_2 C18_2 1_555 1_555
C19_2 C20_2 1_555 1_555
C20_2 C14_2 1_555 1_555
C21_2 C15_2 1_555 1_555
H10_2 C21_2 1_555 1_555
C23_2 C14_2 1_555 1_555
H11_2 C23_2 1_555 1_555
C24_2 C19_2 1_555 1_555
H12_2 C24_2 1_555 1_555
O21_2 C25_2 1_555 1_555
O11_2 C25_2 1_555 1_555
C25_2 C27_2 1_555 1_555
C26_2 C29_2 1_555 1_555
C27_2 C28_2 1_555 1_555
C28_2 H13_2 1_555 1_555
C29_2 C28_2 1_555 1_555
H14_2 C29_2 1_555 1_555
C30_2 C22_2 1_555 1_555
C31_2 C17_2 1_555 1_555
C32_2 C27_2 1_555 1_555
H15_2 C32_2 1_555 1_555
C33_2 C26_2 1_555 1_555
H16_2 C33_2 1_555 1_555
H17_2 C34_2 1_555 1_555
Zr6_2 O8_2 1_555 1_555
Zr9_3 O11_2 1_555 1_555
Zr10_2 O9_2 1_555 1_555
C17_2 C20_2 1_555 1_555
C19_2 C22_2 1_555 1_555
C21_2 C23_2 1_555 1_555
C26_2 C31_2 1_555 1_555
C30_2 C31_2 1_555 1_555
C30_2 C34_2 1_555 1_555
C32_2 C33_2 1_555 1_555
Zr6_2 O2_3 1_555 1_555
Zr2_4 O2_3 1_555 1_555
O2_3 Zr9_4 1_555 1_555
O3_3 Zr6_2 1_555 1_555
O4_3 Zr6_2 1_555 1_555
O5_3 Zr2_4 1_555 1_555
O6_4 Zr2_4 1_555 1_555
O7_4 Zr2_4 1_555 1_555
C1_3 O3_3 1_555 1_555
C2_3 C6_3 1_555 1_555
C3_3 C1_3 1_555 1_555
C4_3 C3_3 1_555 1_555
H1_3 C4_3 1_555 1_555
C5_3 H2_3 1_555 1_555
C6_3 C4_3 1_555 1_555
H3_3 C6_3 1_555 1_555
C7_3 C8_3 1_555 1_555
C8_3 C2_3 1_555 1_555
C9_3 C3_3 1_555 1_555
H4_3 C9_3 1_555 1_555
C10_3 C7_3 1_555 1_555
C11_3 C2_3 1_555 1_555
H5_3 C11_3 1_555 1_555
C12_3 C7_3 1_555 1_555
H6_3 C12_3 1_555 1_555
O22 C35_3 1_555 1_555
O25 C35_3 1_555 1_555
C35_3 C37_3 1_555 1_555
C36_3 C39_3 1_555 1_555
C37_3 C38_3 1_555 1_555
C38_3 H18_3 1_555 1_555
C39_3 C38_3 1_555 1_555
H19_3 C39_3 1_555 1_555
C40_3 C10_3 1_555 1_555
C41_3 C5_3 1_555 1_555
C42_3 C37_3 1_555 1_555
H20_3 C42_3 1_555 1_555
C43_3 C36_3 1_555 1_555
H21_3 C43_3 1_555 1_555
H22_3 C44_3 1_555 1_555
Zr7_2 O4_3 1_555 1_555
O14_4 Zr7_2 1_555 1_555
O15_4 Zr7_2 1_555 1_555
O16_3 Zr6_2 1_555 1_555
O17_3 Zr6_2 1_555 1_555
Zr9_4 O17_3 1_555 1_555
Zr10_2 O16_3 1_555 1_555
O21_3 Zr6_2 1_555 1_555
Zr2_4 O4_3 1_555 1_555
O5_3 C1_3 1_555 1_555
C5_3 C8_3 1_555 1_555
C9_3 C11_3 1_555 1_555
C36_3 C41_3 1_555 1_555
C40_3 C41_3 1_555 1_555
C40_3 C44_3 1_555 1_555
C42_3 C43_3 1_555 1_555
Zr7_2 O16_3 1_555 1_555
O17_3 Zr10_2 1_555 1_555
O20 C13_3 1_555 1_555
O9_3 C13_3 1_555 1_555
C13_3 C15_3 1_555 1_555
C14_3 C18_3 1_555 1_555
C15_3 C16_3 1_555 1_555
C16_3 H7_3 1_555 1_555
C17_3 H8_3 1_555 1_555
C18_3 C16_3 1_555 1_555
H9_3 C18_3 1_555 1_555
C19_3 C20_3 1_555 1_555
C20_3 C14_3 1_555 1_555
C21_3 C15_3 1_555 1_555
H10_3 C21_3 1_555 1_555
C23_3 C14_3 1_555 1_555
H11_3 C23_3 1_555 1_555
C24_3 C19_3 1_555 1_555
H12_3 C24_3 1_555 1_555
O21_3 C25_3 1_555 1_555
O11_3 C25_3 1_555 1_555
C25_3 C27_3 1_555 1_555
C26_3 C29_3 1_555 1_555
C27_3 C28_3 1_555 1_555
C28_3 H13_3 1_555 1_555
C29_3 C28_3 1_555 1_555
H14_3 C29_3 1_555 1_555
C30_3 C22_3 1_555 1_555
C31_3 C17_3 1_555 1_555
C32_3 C27_3 1_555 1_555
H15_3 C32_3 1_555 1_555
C33_3 C26_3 1_555 1_555
H16_3 C33_3 1_555 1_555
H17_3 C34_3 1_555 1_555
Zr9_4 O11_3 1_555 1_555
Zr11_2 O9_3 1_555 1_555
C17_3 C20_3 1_555 1_555
C19_3 C22_3 1_555 1_555
C21_3 C23_3 1_555 1_555
C26_3 C31_3 1_555 1_555
C30_3 C31_3 1_555 1_555
C30_3 C34_3 1_555 1_555
C32_3 C33_3 1_555 1_555
O6_5 Zr2_5 1_555 1_555
O7_5 Zr2_5 1_555 1_555
O14_5 Zr7_3 1_555 1_555
O15_5 Zr7_3 1_555 1_555
O18_3 Zr7_3 1_555 1_555
O19_3 Zr2_5 1_555 1_555
O23_3 Zr2_5 1_555 1_555
O24_3 Zr7_3 1_555 1_555
O26_3 Zr2_5 1_555 1_555
Zr7_3 O23_3 1_555 1_555
Zr9_5 O19_3 1_555 1_555
Zr10_3 O18_3 1_555 1_555
Zr1_2 O18 1_555 1_555
O3_4 Zr1_2 1_555 1_555
O23 Zr1_2 1_555 1_555
C1_4 O3_4 1_555 1_555
C2_4 C6_4 1_555 1_555
C3_4 C1_4 1_555 1_555
C4_4 C3_4 1_555 1_555
H1_4 C4_4 1_555 1_555
C5_4 H2_4 1_555 1_555
C6_4 C4_4 1_555 1_555
H3_4 C6_4 1_555 1_555
C7_4 C8_4 1_555 1_555
C8_4 C2_4 1_555 1_555
C9_4 C3_4 1_555 1_555
H4_4 C9_4 1_555 1_555
C10_4 C7_4 1_555 1_555
C11_4 C2_4 1_555 1_555
H5_4 C11_4 1_555 1_555
C12_4 C7_4 1_555 1_555
H6_4 C12_4 1_555 1_555
O12_3 C35_4 1_555 1_555
O26_2 C35_4 1_555 1_555
C35_4 C37_4 1_555 1_555
C36_4 C39_4 1_555 1_555
C37_4 C38_4 1_555 1_555
C38_4 H18_4 1_555 1_555
C39_4 C38_4 1_555 1_555
H19_4 C39_4 1_555 1_555
C40_4 C10_4 1_555 1_555
C41_4 C5_4 1_555 1_555
C42_4 C37_4 1_555 1_555
H20_4 C42_4 1_555 1_555
C43_4 C36_4 1_555 1_555
H21_4 C43_4 1_555 1_555
H22_4 C44_4 1_555 1_555
O19 Zr1_2 1_555 1_555
O17_4 Zr1_2 1_555 1_555
Zr6_3 O12_3 1_555 1_555
Zr11 O17_4 1_555 1_555
O20_2 Zr1_2 1_555 1_555
O21_4 Zr1_2 1_555 1_555
O22_2 Zr1_2 1_555 1_555
O24 C1_4 1_555 1_555
C5_4 C8_4 1_555 1_555
C9_4 C11_4 1_555 1_555
C36_4 C41_4 1_555 1_555
C40_4 C41_4 1_555 1_555
C40_4 C44_4 1_555 1_555
C42_4 C43_4 1_555 1_555
O17_4 Zr9 1_555 1_555
O8_3 C13_4 1_555 1_555
O9_4 C13_4 1_555 1_555
C13_4 C15_4 1_555 1_555
C14_4 C18_4 1_555 1_555
C15_4 C16_4 1_555 1_555
C16_4 H7_4 1_555 1_555
C17_4 H8_4 1_555 1_555
C18_4 C16_4 1_555 1_555
H9_4 C18_4 1_555 1_555
C19_4 C20_4 1_555 1_555
C20_4 C14_4 1_555 1_555
C21_4 C15_4 1_555 1_555
H10_4 C21_4 1_555 1_555
C23_4 C14_4 1_555 1_555
H11_4 C23_4 1_555 1_555
C24_4 C19_4 1_555 1_555
H12_4 C24_4 1_555 1_555
O21_4 C25_4 1_555 1_555
O11_4 C25_4 1_555 1_555
C25_4 C27_4 1_555 1_555
C26_4 C29_4 1_555 1_555
C27_4 C28_4 1_555 1_555
C28_4 H13_4 1_555 1_555
C29_4 C28_4 1_555 1_555
H14_4 C29_4 1_555 1_555
C30_4 C22_4 1_555 1_555
C31_4 C17_4 1_555 1_555
C32_4 C27_4 1_555 1_555
H15_4 C32_4 1_555 1_555
C33_4 C26_4 1_555 1_555
H16_4 C33_4 1_555 1_555
H17_4 C34_4 1_555 1_555
Zr6_3 O8_3 1_555 1_555
Zr11 O11_4 1_555 1_555
Zr9_3 O9_4 1_555 1_555
C17_4 C20_4 1_555 1_555
C19_4 C22_4 1_555 1_555
C21_4 C23_4 1_555 1_555
C26_4 C31_4 1_555 1_555
C30_4 C31_4 1_555 1_555
C30_4 C34_4 1_555 1_555
C32_4 C33_4 1_555 1_555
Zr6_3 O18_2 1_555 1_555
O3_5 Zr6_3 1_555 1_555
O23_2 Zr6_3 1_555 1_555
C1_5 O3_5 1_555 1_555
C2_5 C6_5 1_555 1_555
C3_5 C1_5 1_555 1_555
C4_5 C3_5 1_555 1_555
H1_5 C4_5 1_555 1_555
C5_5 H2_5 1_555 1_555
C6_5 C4_5 1_555 1_555
H3_5 C6_5 1_555 1_555
C7_5 C8_5 1_555 1_555
C8_5 C2_5 1_555 1_555
C9_5 C3_5 1_555 1_555
H4_5 C9_5 1_555 1_555
C10_5 C7_5 1_555 1_555
C11_5 C2_5 1_555 1_555
H5_5 C11_5 1_555 1_555
C12_5 C7_5 1_555 1_555
H6_5 C12_5 1_555 1_555
O12_4 C35_5 1_555 1_555
O26_3 C35_5 1_555 1_555
C35_5 C37_5 1_555 1_555
C36_5 C39_5 1_555 1_555
C37_5 C38_5 1_555 1_555
C38_5 H18_5 1_555 1_555
C39_5 C38_5 1_555 1_555
H19_5 C39_5 1_555 1_555
C40_5 C10_5 1_555 1_555
C41_5 C5_5 1_555 1_555
C42_5 C37_5 1_555 1_555
H20_5 C42_5 1_555 1_555
C43_5 C36_5 1_555 1_555
H21_5 C43_5 1_555 1_555
H22_5 C44_5 1_555 1_555
O19_2 Zr6_3 1_555 1_555
O17_5 Zr6_3 1_555 1_555
Zr6_4 O12_4 1_555 1_555
Zr10 O17_5 1_555 1_555
O21_5 Zr6_3 1_555 1_555
O24_2 C1_5 1_555 1_555
C5_5 C8_5 1_555 1_555
C9_5 C11_5 1_555 1_555
C36_5 C41_5 1_555 1_555
C40_5 C41_5 1_555 1_555
C40_5 C44_5 1_555 1_555
C42_5 C43_5 1_555 1_555
O17_5 Zr9_3 1_555 1_555
O8_4 C13_5 1_555 1_555
O9_5 C13_5 1_555 1_555
C13_5 C15_5 1_555 1_555
C14_5 C18_5 1_555 1_555
C15_5 C16_5 1_555 1_555
C16_5 H7_5 1_555 1_555
C17_5 H8_5 1_555 1_555
C18_5 C16_5 1_555 1_555
H9_5 C18_5 1_555 1_555
C19_5 C20_5 1_555 1_555
C20_5 C14_5 1_555 1_555
C21_5 C15_5 1_555 1_555
H10_5 C21_5 1_555 1_555
C23_5 C14_5 1_555 1_555
H11_5 C23_5 1_555 1_555
C24_5 C19_5 1_555 1_555
H12_5 C24_5 1_555 1_555
O21_5 C25_5 1_555 1_555
O11_5 C25_5 1_555 1_555
C25_5 C27_5 1_555 1_555
C26_5 C29_5 1_555 1_555
C27_5 C28_5 1_555 1_555
C28_5 H13_5 1_555 1_555
C29_5 C28_5 1_555 1_555
H14_5 C29_5 1_555 1_555
C30_5 C22_5 1_555 1_555
C31_5 C17_5 1_555 1_555
C32_5 C27_5 1_555 1_555
H15_5 C32_5 1_555 1_555
C33_5 C26_5 1_555 1_555
H16_5 C33_5 1_555 1_555
H17_5 C34_5 1_555 1_555
Zr6_4 O8_4 1_555 1_555
Zr10 O11_5 1_555 1_555
Zr9_5 O9_5 1_555 1_555
C17_5 C20_5 1_555 1_555
C19_5 C22_5 1_555 1_555
C21_5 C23_5 1_555 1_555
C26_5 C31_5 1_555 1_555
C30_5 C31_5 1_555 1_555
C30_5 C34_5 1_555 1_555
C32_5 C33_5 1_555 1_555
Zr6_4 O18_3 1_555 1_555
O3_6 Zr6_4 1_555 1_555
O23_3 Zr6_4 1_555 1_555
C1_6 O3_6 1_555 1_555
C2_6 C6_6 1_555 1_555
C3_6 C1_6 1_555 1_555
C4_6 C3_6 1_555 1_555
H1_6 C4_6 1_555 1_555
C5_6 H2_6 1_555 1_555
C6_6 C4_6 1_555 1_555
H3_6 C6_6 1_555 1_555
C7_6 C8_6 1_555 1_555
C8_6 C2_6 1_555 1_555
C9_6 C3_6 1_555 1_555
H4_6 C9_6 1_555 1_555
C10_6 C7_6 1_555 1_555
C11_6 C2_6 1_555 1_555
H5_6 C11_6 1_555 1_555
C12_6 C7_6 1_555 1_555
H6_6 C12_6 1_555 1_555
O22_2 C35_6 1_555 1_555
O26 C35_6 1_555 1_555
C35_6 C37_6 1_555 1_555
C36_6 C39_6 1_555 1_555
C37_6 C38_6 1_555 1_555
C38_6 H18_6 1_555 1_555
C39_6 C38_6 1_555 1_555
H19_6 C39_6 1_555 1_555
C40_6 C10_6 1_555 1_555
C41_6 C5_6 1_555 1_555
C42_6 C37_6 1_555 1_555
H20_6 C42_6 1_555 1_555
C43_6 C36_6 1_555 1_555
H21_6 C43_6 1_555 1_555
H22_6 C44_6 1_555 1_555
O19_3 Zr6_4 1_555 1_555
O17_6 Zr6_4 1_555 1_555
Zr10_3 O17_6 1_555 1_555
O21_6 Zr6_4 1_555 1_555
O24_3 C1_6 1_555 1_555
C5_6 C8_6 1_555 1_555
C9_6 C11_6 1_555 1_555
C36_6 C41_6 1_555 1_555
C40_6 C41_6 1_555 1_555
C40_6 C44_6 1_555 1_555
C42_6 C43_6 1_555 1_555
O17_6 Zr9_5 1_555 1_555
O20_2 C13_6 1_555 1_555
O9_6 C13_6 1_555 1_555
C13_6 C15_6 1_555 1_555
C14_6 C18_6 1_555 1_555
C15_6 C16_6 1_555 1_555
C16_6 H7_6 1_555 1_555
C17_6 H8_6 1_555 1_555
C18_6 C16_6 1_555 1_555
H9_6 C18_6 1_555 1_555
C19_6 C20_6 1_555 1_555
C20_6 C14_6 1_555 1_555
C21_6 C15_6 1_555 1_555
H10_6 C21_6 1_555 1_555
C23_6 C14_6 1_555 1_555
H11_6 C23_6 1_555 1_555
C24_6 C19_6 1_555 1_555
H12_6 C24_6 1_555 1_555
O21_6 C25_6 1_555 1_555
O11_6 C25_6 1_555 1_555
C25_6 C27_6 1_555 1_555
C26_6 C29_6 1_555 1_555
C27_6 C28_6 1_555 1_555
C28_6 H13_6 1_555 1_555
C29_6 C28_6 1_555 1_555
H14_6 C29_6 1_555 1_555
C30_6 C22_6 1_555 1_555
C31_6 C17_6 1_555 1_555
C32_6 C27_6 1_555 1_555
H15_6 C32_6 1_555 1_555
C33_6 C26_6 1_555 1_555
H16_6 C33_6 1_555 1_555
H17_6 C34_6 1_555 1_555
Zr10_3 O11_6 1_555 1_555
Zr9 O9_6 1_555 1_555
C17_6 C20_6 1_555 1_555
C19_6 C22_6 1_555 1_555
C21_6 C23_6 1_555 1_555
C26_6 C31_6 1_555 1_555
C30_6 C31_6 1_555 1_555
C30_6 C34_6 1_555 1_555
C32_6 C33_6 1_555 1_555
O6_6 Zr9_4 1_555 1_555
O7_6 Zr9_4 1_555 1_555
O14_6 Zr10_2 1_555 1_555
O15_6 Zr10_2 1_555 1_555
O6_7 Zr9_5 1_555 1_555
O7_7 Zr9_5 1_555 1_555
O14_7 Zr10_3 1_555 1_555
O15_7 Zr10_3 1_555 1_555
O6_8 Zr9_3 1_555 1_555
O7_8 Zr9_3 1_555 1_555
O14_8 Zr10 1_555 1_555
O15_8 Zr10 1_555 1_555
O6_9 Zr9 1_555 1_555
O7_9 Zr9 1_555 1_555
O14_9 Zr11 1_555 1_555
O15_9 Zr11 1_555 1_555
O6_10 Zr9_2 1_555 1_555
O7_10 Zr9_2 1_555 1_555
O14_10 Zr11_2 1_555 1_555
O15_10 Zr11_2 1_555 1_555

#END
