
###############################################################################
#
# This file contains modified crystal structure data generated from the
# MOF subset of the Cambridge Structural Database (CSD) v543 
# hosted by the Cambridge Crystallographic Data Centre (CCDC).
#
# This work is licensed under the Creative Commons
# Attribution-NonCommercial-ShareAlike 4.0 International License.
# To view a copy of this license, visit
# http://creativecommons.org/licenses/by-nc-sa/4.0/
# or send a letter to
# Creative Commons, PO Box 1866, Mountain View, CA 94042, USA.
#
# CIF created using the CSD Python API on 29 September 2022
# The structure has been converted into the P1 space group
# The structure has a 3D framework
# The original CSD entry FAKPEO is in the monoclinic crystal system
# The framework has been calculated to contain at least 10.0% void space
# The void calculation uses a probe of radius 1.32A, grid spacing 0.4
#
###############################################################################

data_FAKPEO
_chemical_formula_moiety         '(C240 H232 Ag16 N64 O30)n'
_symmetry_cell_setting           triclinic
_symmetry_space_group_name_H-M   'P 1'
_symmetry_Int_Tables_number      1
_space_group_name_Hall           'P 1'
loop_
_symmetry_equiv_pos_site_id
_symmetry_equiv_pos_as_xyz
1 x,y,z
_cell_length_a                   25.317(12)
_cell_length_b                   9.877(5)
_cell_length_c                   26.864(12)
_cell_angle_alpha                90
_cell_angle_beta                 104.382(16)
_cell_angle_gamma                90
_cell_volume                     6506.99
loop_
_atom_site_label
_atom_site_type_symbol
_atom_site_fract_x
_atom_site_fract_y
_atom_site_fract_z
C13 C 0.0164(4) 0.1862(9) 0.3186(4)
H14 H 0.0117 0.2814 0.3147
C14 C 0.0606(4) 0.1249(9) 0.3392(3)
H15 H 0.0943 0.1684 0.3542
H32 H 0.1526 0.0526 0.6969
H33 H 0.2078 0.0291 0.6401
H38 H 0.1392 0.0193 0.4510
H39 H 0.1343 0.0129 0.5092
H40 H 0.1922 0.0404 0.4972
C46 C 0.0266(5) 0.1603(11) 0.6940(5)
H45 H 0.0004 0.2299 0.6982
H46 H 0.0560 0.1543 0.7254
H47 H 0.0419 0.1842 0.6650
C15 C 0.0016(3) 0.9723(10) 0.3162(3)
N4 N 0.0528(3) 0.9834(8) 0.3367(3)
Ag7 Ag 0.11509(2) 0.83997(7) 0.37133(2)
C31 C 0.1790(3) 0.8530(8) 0.6116(3)
C32 C 0.1418(3) 0.7578(8) 0.6144(3)
H30 H 0.1379 0.6810 0.5925
C33 C 0.1096(3) 0.7691(8) 0.6482(3)
H31 H 0.0838 0.6999 0.6492
C34 C 0.1135(3) 0.8764(9) 0.6803(3)
C35 C 0.1496(4) 0.9737(13) 0.6761(4)
C36 C 0.1823(5) 0.9598(12) 0.6418(4)
C37 C 0.2193(3) 0.8347(9) 0.5789(3)
H34 H 0.2492 0.7751 0.5973
H35 H 0.2353 0.9238 0.5743
C38 C 0.1950(3) 0.6447(9) 0.5159(3)
H36 H 0.2108 0.5725 0.5379
C39 C 0.1683(3) 0.6345(9) 0.4661(3)
H37 H 0.1621 0.5530 0.4467
C40 C 0.1680(3) 0.8459(8) 0.4871(3)
C41 C 0.1576(4) 0.9916(10) 0.4861(4)
C42 C 0.0813(3) 0.8847(9) 0.7199(3)
H41 H 0.0967 0.9568 0.7448
H42 H 0.0844 0.7979 0.7388
N9 N 0.1952(2) 0.7769(7) 0.5287(2)
N10 N 0.1516(2) 0.7613(7) 0.4478(2)
N12 N 0.0244(3) 0.9132(8) 0.6973(3)
Ag2 Ag 0.88491(2) 0.16003(7) 0.62867(2)
C1 C 0.8210(3) 0.1470(8) 0.3884(3)
C2 C 0.8582(3) 0.2422(8) 0.3856(3)
H1 H 0.8621 0.3190 0.4075
C3 C 0.8904(3) 0.2309(8) 0.3518(3)
H2 H 0.9162 0.3001 0.3508
C4 C 0.8865(3) 0.1236(9) 0.3197(3)
C5 C 0.8504(4) 0.0263(13) 0.3239(4)
C6 C 0.8177(5) 0.0402(12) 0.3582(4)
C7 C 0.7807(3) 0.1653(9) 0.4211(3)
H5 H 0.7508 0.2249 0.4027
H6 H 0.7647 0.0762 0.4257
C8 C 0.8050(3) 0.3553(9) 0.4841(3)
H7 H 0.7892 0.4275 0.4621
C9 C 0.8317(3) 0.3655(9) 0.5339(3)
H8 H 0.8379 0.4470 0.5533
C10 C 0.8320(3) 0.1541(8) 0.5129(3)
C11 C 0.8424(4) 0.0084(10) 0.5139(4)
C12 C 0.9187(3) 0.1153(9) 0.2801(3)
H12 H 0.9033 0.0432 0.2552
H13 H 0.9156 0.2021 0.2612
C25 C 0.7351(3) 0.2276(7) 0.7905(3)
H28 H 0.7275 0.2574 0.8216
C26 C 0.7003(3) 0.1390(6) 0.7592(3)
H29 H 0.6672 0.1150 0.7675
C27 C 0.7569(3) 0.1239(6) 0.7052(3)
C28 C 0.7895(2) 0.2276(6) 0.7338(2)
C29 C 0.7737(3) 0.0414(7) 0.6640(3)
C30 C 0.8352(3) 0.2990(7) 0.7164(3)
N1 N 0.8048(2) 0.2231(7) 0.4713(2)
N2 N 0.8484(2) 0.2387(7) 0.5522(2)
N3 N 0.9756(3) 0.0868(8) 0.3027(3)
N7 N 0.7117(2) 0.0863(5) 0.7182(2)
N8 N 0.7800(2) 0.2729(5) 0.7772(2)
O2 O 0.8231(2) 0.0189(5) 0.6716(2)
O3 O 0.82771(19) 0.3166(5) 0.66937(18)
O4 O 0.87450(19) 0.3366(5) 0.75126(19)
Ag4 Ag 0.84463(2) 0.42401(6) 0.83225(2)
C45 C 0.9984(3) 0.0277(10) 0.6838(3)
N13 N 0.9472(3) 0.0166(8) 0.6633(3)
Ag1 Ag 0.65537(2) 0.92401(6) 0.66775(2)
H3 H 0.8474 0.9474 0.3031
H4 H 0.7922 0.9709 0.3599
H9 H 0.8608 0.9807 0.5490
H10 H 0.8657 0.9871 0.4908
H11 H 0.8078 0.9596 0.5028
C16 C 0.9734(5) 0.8397(11) 0.3060(5)
H16 H 0.9996 0.7701 0.3018
H17 H 0.9440 0.8457 0.2746
H18 H 0.9581 0.8158 0.3350
C17 C 0.4944(4) 0.5661(8) 0.5432(3)
H19 H 0.4911 0.6103 0.5737
C18 C 0.4919(3) 0.6409(7) 0.4995(3)
C19 C 0.5018(4) 0.4270(8) 0.5435(3)
H20 H 0.5024 0.3773 0.5739
C20 C 0.4829(3) 0.7911(8) 0.4986(3)
H21 H 0.4958 0.8307 0.4699
H22 H 0.4434 0.8095 0.4921
C21 C 0.4865(3) 0.9102(7) 0.5824(3)
H23 H 0.4484 0.9180 0.5795
C22 C 0.5268(3) 0.9485(7) 0.6222(3)
H24 H 0.5220 0.9899 0.6527
C23 C 0.5650(3) 0.8647(7) 0.5659(3)
C24 C 0.6058(4) 0.8194(10) 0.5387(4)
H25 H 0.6406 0.8645 0.5535
H26 H 0.5933 0.8425 0.5022
H27 H 0.6105 0.7211 0.5424
N5 N 0.5111(2) 0.8571(6) 0.5464(2)
N6 N 0.5762(2) 0.9185(6) 0.6122(2)
O1 O 0.7369(2) 0.9981(5) 0.6283(2)
Ag3 Ag 0.34463(2) 0.07599(6) 0.33225(2)
Ag6 Ag 0.61509(2) 0.66003(7) 0.87133(2)
C43 C 0.9836(4) 0.8138(9) 0.6814(4)
H43 H 0.9883 0.7186 0.6853
C44 C 0.9394(4) 0.8751(9) 0.6608(3)
H44 H 0.9057 0.8316 0.6458
C47 C 0.5056(4) 0.4339(8) 0.4568(3)
H48 H 0.5089 0.3897 0.4263
C48 C 0.5081(3) 0.3591(7) 0.5005(3)
C49 C 0.4982(4) 0.5730(8) 0.4565(3)
H49 H 0.4976 0.6227 0.4261
C50 C 0.5171(3) 0.2089(8) 0.5014(3)
H50 H 0.5042 0.1693 0.5301
H51 H 0.5566 0.1905 0.5079
C51 C 0.5135(3) 0.0898(7) 0.4176(3)
H52 H 0.5516 0.0820 0.4205
C52 C 0.4732(3) 0.0515(7) 0.3778(3)
H53 H 0.4780 0.0101 0.3473
C53 C 0.4350(3) 0.1353(7) 0.4341(3)
C54 C 0.3942(4) 0.1806(10) 0.4613(4)
H54 H 0.3594 0.1355 0.4465
H55 H 0.4067 0.1575 0.4978
H56 H 0.3895 0.2789 0.4576
C55 C 0.7649(3) 0.7276(7) 0.7095(3)
H57 H 0.7725 0.7574 0.6784
C56 C 0.7997(3) 0.6390(6) 0.7408(3)
H58 H 0.8328 0.6150 0.7325
C57 C 0.7431(3) 0.6239(6) 0.7948(3)
C58 C 0.7105(2) 0.7276(6) 0.7662(2)
C59 C 0.7263(3) 0.5414(7) 0.8360(3)
C60 C 0.6648(3) 0.7990(7) 0.7836(3)
N11 N 0.6516(2) 0.7387(7) 0.9478(2)
N14 N 0.5528(3) 0.5166(8) 0.8367(3)
N15 N 0.4889(2) 0.1429(6) 0.4536(2)
N16 N 0.4238(2) 0.0815(6) 0.3878(2)
N17 N 0.7883(2) 0.5863(5) 0.7818(2)
N19 N 0.7200(2) 0.7729(5) 0.7228(2)
N20 N 0.2800(2) 0.2271(5) 0.2772(2)
O5 O 0.7631(2) 0.4981(5) 0.8717(2)
O6 O 0.2631(2) 0.0019(5) 0.3717(2)
O7 O 0.6769(2) 0.5189(5) 0.8284(2)
O8 O 0.67229(19) 0.8166(5) 0.83063(18)
O9 O 0.62550(19) 0.8366(5) 0.74874(19)
O10 O 0.37450(19) 0.1634(5) 0.25126(19)
N18 N 0.2883(2) 0.9137(5) 0.2818(2)
C18_2 C 0.0081(3) 0.1409(7) 0.0005(3)
C20_2 C 0.0171(3) 0.2911(8) 0.0014(3)
H21_2 H 0.0042 0.3307 0.0301
H22_2 H 0.0566 0.3095 0.0079
C49_2 C 0.0018(4) 0.0730(8) 0.0435(3)
H49_2 H 0.0024 0.1227 0.0739
Ag3_2 Ag 0.15537(2) 0.57599(6) 0.16775(2)
C52_2 C 0.0268(3) 0.5515(7) 0.1222(3)
H53_2 H 0.0220 0.5101 0.1527
C53_2 C 0.0650(3) 0.6353(7) 0.0659(3)
C54_2 C 0.1058(4) 0.6806(10) 0.0387(4)
H54_2 H 0.1406 0.6355 0.0535
H55_2 H 0.0933 0.6575 0.0022
H56_2 H 0.1105 0.7789 0.0424
N15_2 N 0.0111(2) 0.6429(6) 0.0464(2)
N16_2 N 0.0762(2) 0.5815(6) 0.1122(2)
N18_2 N 0.2117(2) 0.4137(5) 0.2182(2)
N20_2 N 0.2200(2) 0.7271(5) 0.2228(2)
O6_2 O 0.2369(2) 0.5019(5) 0.1283(2)
O10_2 O 0.12550(19) 0.6634(5) 0.24874(19)
C1_2 C 0.6790(3) 0.6470(8) 0.1116(3)
C2_2 C 0.6418(3) 0.7422(8) 0.1144(3)
H1_2 H 0.6379 0.8190 0.0925
C3_2 C 0.6096(3) 0.7309(8) 0.1482(3)
H2_2 H 0.5838 0.8001 0.1492
C4_2 C 0.6135(3) 0.6236(9) 0.1803(3)
C5_2 C 0.6496(4) 0.5263(13) 0.1761(4)
H3_2 H 0.6526 0.4474 0.1969
C6_2 C 0.6823(5) 0.5402(12) 0.1418(4)
H4_2 H 0.7078 0.4709 0.1401
C7_2 C 0.7193(3) 0.6653(9) 0.0789(3)
H5_2 H 0.7492 0.7249 0.0973
H6_2 H 0.7353 0.5762 0.0743
C8_2 C 0.6950(3) 0.8553(9) 0.0159(3)
H7_2 H 0.7108 0.9275 0.0379
H10_2 H 0.6343 0.4871 0.0092
C12_2 C 0.5813(3) 0.6153(9) 0.2199(3)
H12_2 H 0.5967 0.5432 0.2448
H13_2 H 0.5844 0.7021 0.2388
C13_2 C 0.4836(4) 0.6862(9) 0.1814(4)
H14_2 H 0.4883 0.7814 0.1853
C14_2 C 0.4394(4) 0.6249(9) 0.1608(3)
H15_2 H 0.4057 0.6684 0.1458
C15_2 C 0.4984(3) 0.4723(10) 0.1838(3)
C16_2 C 0.5266(5) 0.3397(11) 0.1940(5)
H16_2 H 0.5004 0.2701 0.1982
H17_2 H 0.5560 0.3457 0.2254
H18_2 H 0.5419 0.3158 0.1650
N1_2 N 0.6952(2) 0.7231(7) 0.0287(2)
N3_2 N 0.5244(3) 0.5868(8) 0.1973(3)
N4_2 N 0.4472(3) 0.4834(8) 0.1633(3)
Ag7_2 Ag 0.38491(2) 0.33997(7) 0.12867(2)
C39_2 C 0.3317(3) 0.1345(9) 0.0339(3)
H37_2 H 0.3379 0.0530 0.0533
C40_2 C 0.3320(3) 0.3459(8) 0.0129(3)
C41_2 C 0.3424(4) 0.4916(10) 0.0139(4)
H38_2 H 0.3608 0.5193 0.0490
H40_2 H 0.3078 0.5404 0.0028
N10_2 N 0.3484(2) 0.2613(7) 0.0522(2)
C9_2 C 0.6683(3) 0.8655(9) 0.9661(3)
H8_2 H 0.6621 0.9470 0.9467
C10_2 C 0.6680(3) 0.6541(8) 0.9871(3)
C11_2 C 0.6576(4) 0.5084(10) 0.9861(4)
H9_2 H 0.6392 0.4807 0.9510
H11_2 H 0.6922 0.4596 0.9972
C22_2 C 0.9732(3) 0.4485(7) 0.8778(3)
H24_2 H 0.9780 0.4899 0.8473
C23_2 C 0.9350(3) 0.3647(7) 0.9341(3)
C24_2 C 0.8942(4) 0.3194(10) 0.9613(4)
H25_2 H 0.8594 0.3645 0.9465
H26_2 H 0.9067 0.3425 0.9978
H27_2 H 0.8895 0.2211 0.9576
N5_2 N 0.9889(2) 0.3571(6) 0.9536(2)
N6_2 N 0.9238(2) 0.4185(6) 0.8878(2)
C31_2 C 0.3210(3) 0.3530(8) 0.8884(3)
C32_2 C 0.3582(3) 0.2578(8) 0.8856(3)
H30_2 H 0.3621 0.1810 0.9075
C33_2 C 0.3904(3) 0.2691(8) 0.8518(3)
H31_2 H 0.4162 0.1999 0.8508
C34_2 C 0.3865(3) 0.3764(9) 0.8197(3)
C35_2 C 0.3504(4) 0.4737(13) 0.8239(4)
H32_2 H 0.3474 0.5526 0.8031
C36_2 C 0.3177(5) 0.4598(12) 0.8582(4)
H33_2 H 0.2922 0.5291 0.8599
C37_2 C 0.2807(3) 0.3347(9) 0.9211(3)
H34_2 H 0.2508 0.2751 0.9027
H35_2 H 0.2647 0.4238 0.9257
C38_2 C 0.3050(3) 0.1447(9) 0.9841(3)
H36_2 H 0.2892 0.0725 0.9621
H39_2 H 0.3657 0.5129 0.9908
C42_2 C 0.4187(3) 0.3847(9) 0.7801(3)
H41_2 H 0.4033 0.4568 0.7552
H42_2 H 0.4156 0.2979 0.7612
C43_2 C 0.5164(4) 0.3138(9) 0.8186(4)
H43_2 H 0.5117 0.2186 0.8147
C44_2 C 0.5606(4) 0.3751(9) 0.8392(3)
H44_2 H 0.5943 0.3316 0.8542
C45_2 C 0.5016(3) 0.5277(10) 0.8162(3)
C46_2 C 0.4734(5) 0.6603(11) 0.8060(5)
H45_2 H 0.4996 0.7299 0.8018
H46_2 H 0.4440 0.6543 0.7746
H47_2 H 0.4581 0.6842 0.8350
N9_2 N 0.3048(2) 0.2769(7) 0.9713(2)
N12_2 N 0.4756(3) 0.4132(8) 0.8027(3)
C19_2 C 0.9982(4) 0.9270(8) 0.9565(3)
H20_2 H 0.9976 0.8773 0.9261
C48_2 C 0.9919(3) 0.8591(7) 0.9995(3)
C50_2 C 0.9829(3) 0.7089(8) 0.9986(3)
H50_2 H 0.9958 0.6693 0.9699
H51_2 H 0.9434 0.6905 0.9921
C55_2 C 0.2351(3) 0.2724(7) 0.2905(3)
H57_2 H 0.2275 0.2426 0.3216
C56_2 C 0.2003(3) 0.3610(6) 0.2592(3)
H58_2 H 0.1672 0.3850 0.2675
C57_2 C 0.2569(3) 0.3761(6) 0.2052(3)
C58_2 C 0.2895(2) 0.2724(6) 0.2338(2)
C59_2 C 0.2737(3) 0.4586(7) 0.1640(3)
C60_2 C 0.3352(3) 0.2010(7) 0.2164(3)
O7_2 O 0.3231(2) 0.4811(5) 0.1716(2)
O8_2 O 0.32771(19) 0.1834(5) 0.16937(18)
C25_2 C 0.2649(3) 0.7724(7) 0.2095(3)
H28_2 H 0.2725 0.7426 0.1784
C26_2 C 0.2997(3) 0.8610(6) 0.2408(3)
H29_2 H 0.3328 0.8850 0.2325
C27_2 C 0.2431(3) 0.8761(6) 0.2948(3)
C28_2 C 0.2105(2) 0.7724(6) 0.2662(2)
C29_2 C 0.2263(3) 0.9586(7) 0.3360(3)
C30_2 C 0.1648(3) 0.7010(7) 0.2836(3)
O2_2 O 0.1769(2) 0.9811(5) 0.3284(2)
O3_2 O 0.17229(19) 0.6834(5) 0.33063(18)
C1_3 C 0.1790(3) 0.1470(8) 0.1116(3)
C2_3 C 0.1418(3) 0.2422(8) 0.1144(3)
H1_3 H 0.1379 0.3190 0.0925
C3_3 C 0.1096(3) 0.2309(8) 0.1482(3)
H2_3 H 0.0838 0.3001 0.1492
C4_3 C 0.1135(3) 0.1236(9) 0.1803(3)
C5_3 C 0.1496(4) 0.0263(13) 0.1761(4)
C6_3 C 0.1823(5) 0.0402(12) 0.1418(4)
C7_3 C 0.2193(3) 0.1653(9) 0.0789(3)
H5_3 H 0.2492 0.2249 0.0973
H6_3 H 0.2353 0.0762 0.0743
C8_3 C 0.1950(3) 0.3553(9) 0.0159(3)
H7_3 H 0.2108 0.4275 0.0379
C12_3 C 0.0813(3) 0.1153(9) 0.2199(3)
H12_3 H 0.0967 0.0432 0.2448
H13_3 H 0.0844 0.2021 0.2388
N1_3 N 0.1952(2) 0.2231(7) 0.0287(2)
N3_3 N 0.0244(3) 0.0868(8) 0.1973(3)
Ag2_2 Ag 0.11509(2) 0.16003(7) 0.87133(2)
C9_3 C 0.1683(3) 0.3655(9) 0.9661(3)
H8_3 H 0.1621 0.4470 0.9467
C10_3 C 0.1680(3) 0.1541(8) 0.9871(3)
C11_3 C 0.1576(4) 0.0084(10) 0.9861(4)
C25_3 C 0.2649(3) 0.2276(7) 0.7095(3)
H28_3 H 0.2725 0.2574 0.6784
C26_3 C 0.2997(3) 0.1390(6) 0.7408(3)
H29_3 H 0.3328 0.1150 0.7325
C27_3 C 0.2431(3) 0.1239(6) 0.7948(3)
C28_3 C 0.2105(2) 0.2276(6) 0.7662(2)
C29_3 C 0.2263(3) 0.0414(7) 0.8360(3)
C30_3 C 0.1648(3) 0.2990(7) 0.7836(3)
N2_2 N 0.1516(2) 0.2387(7) 0.9478(2)
N7_2 N 0.2883(2) 0.0863(5) 0.7818(2)
N8_2 N 0.2200(2) 0.2729(5) 0.7228(2)
O2_3 O 0.1769(2) 0.0189(5) 0.8284(2)
O3_3 O 0.17229(19) 0.3166(5) 0.83063(18)
O4_2 O 0.12550(19) 0.3366(5) 0.74874(19)
Ag4_2 Ag 0.15537(2) 0.42401(6) 0.66775(2)
C45_3 C 0.0016(3) 0.0277(10) 0.8162(3)
N13_2 N 0.0528(3) 0.0166(8) 0.8367(3)
H3_3 H 0.1526 0.9474 0.1969
H4_3 H 0.2078 0.9709 0.1401
H10_3 H 0.1343 0.9871 0.0092
C16_3 C 0.0266(5) 0.8397(11) 0.1940(5)
H16_3 H 0.0004 0.7701 0.1982
H17_3 H 0.0560 0.8457 0.2254
H18_3 H 0.0419 0.8158 0.1650
C18_3 C 0.5081(3) 0.6409(7) 0.0005(3)
C20_3 C 0.5171(3) 0.7911(8) 0.0014(3)
H21_3 H 0.5042 0.8307 0.0301
H22_3 H 0.5566 0.8095 0.0079
Ag3_3 Ag 0.65537(2) 0.07599(6) 0.16775(2)
C47_2 C 0.4944(4) 0.4339(8) 0.0432(3)
H48_2 H 0.4911 0.3897 0.0737
C49_3 C 0.5018(4) 0.5730(8) 0.0435(3)
H49_3 H 0.5024 0.6227 0.0739
C51_2 C 0.4865(3) 0.0898(7) 0.0824(3)
H52_2 H 0.4484 0.0820 0.0795
C52_3 C 0.5268(3) 0.0515(7) 0.1222(3)
H53_3 H 0.5220 0.0101 0.1527
C53_3 C 0.5650(3) 0.1353(7) 0.0659(3)
C54_3 C 0.6058(4) 0.1806(10) 0.0387(4)
H54_3 H 0.6406 0.1355 0.0535
H55_3 H 0.5933 0.1575 0.0022
H56_3 H 0.6105 0.2789 0.0424
N15_3 N 0.5111(2) 0.1429(6) 0.0464(2)
N16_3 N 0.5762(2) 0.0815(6) 0.1122(2)
N20_3 N 0.7200(2) 0.2271(5) 0.2228(2)
O6_3 O 0.7369(2) 0.0019(5) 0.1283(2)
O10_3 O 0.62550(19) 0.1634(5) 0.24874(19)
Ag1_2 Ag 0.34463(2) 0.92401(6) 0.83225(2)
H9_3 H 0.1392 0.9807 0.9510
H11_3 H 0.1922 0.9596 0.9972
C17_2 C 0.5056(4) 0.5661(8) 0.9568(3)
H19_2 H 0.5089 0.6103 0.9263
C19_3 C 0.4982(4) 0.4270(8) 0.9565(3)
H20_3 H 0.4976 0.3773 0.9261
C21_2 C 0.5135(3) 0.9102(7) 0.9176(3)
H23_2 H 0.5516 0.9180 0.9205
C22_3 C 0.4732(3) 0.9485(7) 0.8778(3)
H24_3 H 0.4780 0.9899 0.8473
C23_3 C 0.4350(3) 0.8647(7) 0.9341(3)
C24_3 C 0.3942(4) 0.8194(10) 0.9613(4)
H25_3 H 0.3594 0.8645 0.9465
H26_3 H 0.4067 0.8425 0.9978
H27_3 H 0.3895 0.7211 0.9576
N5_3 N 0.4889(2) 0.8571(6) 0.9536(2)
N6_3 N 0.4238(2) 0.9185(6) 0.8878(2)
O1_2 O 0.2631(2) 0.9981(5) 0.8717(2)
Ag6_2 Ag 0.38491(2) 0.66003(7) 0.62867(2)
C43_3 C 0.0164(4) 0.8138(9) 0.8186(4)
H43_3 H 0.0117 0.7186 0.8147
C44_3 C 0.0606(4) 0.8751(9) 0.8392(3)
H44_3 H 0.0943 0.8316 0.8542
C48_3 C 0.4919(3) 0.3591(7) 0.9995(3)
C50_3 C 0.4829(3) 0.2089(8) 0.9986(3)
H50_3 H 0.4958 0.1693 0.9699
H51_3 H 0.4434 0.1905 0.9921
C55_3 C 0.2351(3) 0.7276(7) 0.7905(3)
H57_3 H 0.2275 0.7574 0.8216
C56_3 C 0.2003(3) 0.6390(6) 0.7592(3)
H58_3 H 0.1672 0.6150 0.7675
C57_3 C 0.2569(3) 0.6239(6) 0.7052(3)
C58_3 C 0.2895(2) 0.7276(6) 0.7338(2)
C59_3 C 0.2737(3) 0.5414(7) 0.6640(3)
C60_3 C 0.3352(3) 0.7990(7) 0.7164(3)
N11_2 N 0.3484(2) 0.7387(7) 0.5522(2)
N14_2 N 0.4472(3) 0.5166(8) 0.6633(3)
N17_2 N 0.2117(2) 0.5863(5) 0.7182(2)
N19_2 N 0.2800(2) 0.7729(5) 0.7772(2)
O5_2 O 0.2369(2) 0.4981(5) 0.6283(2)
O7_3 O 0.3231(2) 0.5189(5) 0.6716(2)
O8_3 O 0.32771(19) 0.8166(5) 0.66937(18)
O9_2 O 0.37450(19) 0.8366(5) 0.75126(19)
N18_3 N 0.7117(2) 0.9137(5) 0.2182(2)
C13_3 C 0.9836(4) 0.1862(9) 0.1814(4)
H14_3 H 0.9883 0.2814 0.1853
C14_3 C 0.9394(4) 0.1249(9) 0.1608(3)
H15_3 H 0.9057 0.1684 0.1458
H38_3 H 0.8608 0.0193 0.0490
H40_3 H 0.8078 0.0404 0.0028
H32_3 H 0.8474 0.0526 0.8031
H33_3 H 0.7922 0.0291 0.8599
H39_3 H 0.8657 0.0129 0.9908
C46_3 C 0.9734(5) 0.1603(11) 0.8060(5)
H45_3 H 0.9996 0.2299 0.8018
H46_3 H 0.9440 0.1543 0.7746
H47_3 H 0.9581 0.1842 0.8350
C15_3 C 0.9984(3) 0.9723(10) 0.1838(3)
N4_3 N 0.9472(3) 0.9834(8) 0.1633(3)
Ag7_3 Ag 0.88491(2) 0.83997(7) 0.12867(2)
C39_3 C 0.8317(3) 0.6345(9) 0.0339(3)
H37_3 H 0.8379 0.5530 0.0533
C40_3 C 0.8320(3) 0.8459(8) 0.0129(3)
C41_3 C 0.8424(4) 0.9916(10) 0.0139(4)
N10_3 N 0.8484(2) 0.7613(7) 0.0522(2)
C1_4 C 0.3210(3) 0.6470(8) 0.3884(3)
C2_4 C 0.3582(3) 0.7422(8) 0.3856(3)
H1_4 H 0.3621 0.8190 0.4075
C3_4 C 0.3904(3) 0.7309(8) 0.3518(3)
H2_4 H 0.4162 0.8001 0.3508
C4_4 C 0.3865(3) 0.6236(9) 0.3197(3)
C5_4 C 0.3504(4) 0.5263(13) 0.3239(4)
H3_4 H 0.3474 0.4474 0.3031
C6_4 C 0.3177(5) 0.5402(12) 0.3582(4)
H4_4 H 0.2922 0.4709 0.3599
C7_4 C 0.2807(3) 0.6653(9) 0.4211(3)
H5_4 H 0.2508 0.7249 0.4027
H6_4 H 0.2647 0.5762 0.4257
C8_4 C 0.3050(3) 0.8553(9) 0.4841(3)
H7_4 H 0.2892 0.9275 0.4621
C9_4 C 0.3317(3) 0.8655(9) 0.5339(3)
H8_4 H 0.3379 0.9470 0.5533
C10_4 C 0.3320(3) 0.6541(8) 0.5129(3)
C11_4 C 0.3424(4) 0.5084(10) 0.5139(4)
H9_4 H 0.3608 0.4807 0.5490
H10_4 H 0.3657 0.4871 0.4908
H11_4 H 0.3078 0.4596 0.5028
C12_4 C 0.4187(3) 0.6153(9) 0.2801(3)
H12_4 H 0.4033 0.5432 0.2552
H13_4 H 0.4156 0.7021 0.2612
C13_4 C 0.5164(4) 0.6862(9) 0.3186(4)
H14_4 H 0.5117 0.7814 0.3147
C14_4 C 0.5606(4) 0.6249(9) 0.3392(3)
H15_4 H 0.5943 0.6684 0.3542
C15_4 C 0.5016(3) 0.4723(10) 0.3162(3)
C16_4 C 0.4734(5) 0.3397(11) 0.3060(5)
H16_4 H 0.4996 0.2701 0.3018
H17_4 H 0.4440 0.3457 0.2746
H18_4 H 0.4581 0.3158 0.3350
C22_4 C 0.0268(3) 0.4485(7) 0.6222(3)
H24_4 H 0.0220 0.4899 0.6527
C23_4 C 0.0650(3) 0.3647(7) 0.5659(3)
C24_4 C 0.1058(4) 0.3194(10) 0.5387(4)
H25_4 H 0.1406 0.3645 0.5535
H26_4 H 0.0933 0.3425 0.5022
H27_4 H 0.1105 0.2211 0.5424
N1_4 N 0.3048(2) 0.7231(7) 0.4713(2)
N3_4 N 0.4756(3) 0.5868(8) 0.3027(3)
N4_4 N 0.5528(3) 0.4834(8) 0.3367(3)
N5_4 N 0.0111(2) 0.3571(6) 0.5464(2)
N6_4 N 0.0762(2) 0.4185(6) 0.6122(2)
Ag7_4 Ag 0.61509(2) 0.33997(7) 0.37133(2)
C31_3 C 0.6790(3) 0.3530(8) 0.6116(3)
C32_3 C 0.6418(3) 0.2578(8) 0.6144(3)
H30_3 H 0.6379 0.1810 0.5925
C33_3 C 0.6096(3) 0.2691(8) 0.6482(3)
H31_3 H 0.5838 0.1999 0.6492
C34_3 C 0.6135(3) 0.3764(9) 0.6803(3)
C35_3 C 0.6496(4) 0.4737(13) 0.6761(4)
H32_4 H 0.6526 0.5526 0.6969
C36_3 C 0.6823(5) 0.4598(12) 0.6418(4)
H33_4 H 0.7078 0.5291 0.6401
C37_3 C 0.7193(3) 0.3347(9) 0.5789(3)
H34_3 H 0.7492 0.2751 0.5973
H35_3 H 0.7353 0.4238 0.5743
C38_3 C 0.6950(3) 0.1447(9) 0.5159(3)
H36_3 H 0.7108 0.0725 0.5379
C39_4 C 0.6683(3) 0.1345(9) 0.4661(3)
H37_4 H 0.6621 0.0530 0.4467
C40_4 C 0.6680(3) 0.3459(8) 0.4871(3)
C41_4 C 0.6576(4) 0.4916(10) 0.4861(4)
H38_4 H 0.6392 0.5193 0.4510
H39_4 H 0.6343 0.5129 0.5092
H40_4 H 0.6922 0.5404 0.4972
C42_3 C 0.5813(3) 0.3847(9) 0.7199(3)
H41_3 H 0.5967 0.4568 0.7448
H42_3 H 0.5844 0.2979 0.7388
C43_4 C 0.4836(4) 0.3138(9) 0.6814(4)
H43_4 H 0.4883 0.2186 0.6853
C44_4 C 0.4394(4) 0.3751(9) 0.6608(3)
H44_4 H 0.4057 0.3316 0.6458
C45_4 C 0.4984(3) 0.5277(10) 0.6838(3)
C46_4 C 0.5266(5) 0.6603(11) 0.6940(5)
H45_4 H 0.5004 0.7299 0.6982
H46_4 H 0.5560 0.6543 0.7254
H47_4 H 0.5419 0.6842 0.6650
N9_3 N 0.6952(2) 0.2769(7) 0.5287(2)
N10_4 N 0.6516(2) 0.2613(7) 0.4478(2)
N12_3 N 0.5244(3) 0.4132(8) 0.6973(3)
C19_4 C 0.0018(4) 0.9270(8) 0.5435(3)
H20_4 H 0.0024 0.8773 0.5739
C47_3 C 0.0056(4) 0.9339(8) 0.4568(3)
H48_3 H 0.0089 0.8897 0.4263
C48_4 C 0.0081(3) 0.8591(7) 0.5005(3)
C50_4 C 0.0171(3) 0.7089(8) 0.5014(3)
H50_4 H 0.0042 0.6693 0.5301
H51_4 H 0.0566 0.6905 0.5079
C51_3 C 0.0135(3) 0.5898(7) 0.4176(3)
H52_3 H 0.0516 0.5820 0.4205
C17_3 C 0.9944(4) 0.0661(8) 0.5432(3)
H19_3 H 0.9911 0.1103 0.5737
C18_4 C 0.9919(3) 0.1409(7) 0.4995(3)
C20_4 C 0.9829(3) 0.2911(8) 0.4986(3)
H21_4 H 0.9958 0.3307 0.4699
H22_4 H 0.9434 0.3095 0.4921
C21_3 C 0.9865(3) 0.4102(7) 0.5824(3)
H23_3 H 0.9484 0.4180 0.5795
C49_4 C 0.9982(4) 0.0730(8) 0.4565(3)
H49_4 H 0.9976 0.1227 0.4261
Ag3_4 Ag 0.84463(2) 0.57599(6) 0.33225(2)
C52_4 C 0.9732(3) 0.5515(7) 0.3778(3)
H53_4 H 0.9780 0.5101 0.3473
C53_4 C 0.9350(3) 0.6353(7) 0.4341(3)
C54_4 C 0.8942(4) 0.6806(10) 0.4613(4)
H54_4 H 0.8594 0.6355 0.4465
H55_4 H 0.9067 0.6575 0.4978
H56_4 H 0.8895 0.7789 0.4576
N15_4 N 0.9889(2) 0.6429(6) 0.4536(2)
N16_4 N 0.9238(2) 0.5815(6) 0.3878(2)
N18_4 N 0.7883(2) 0.4137(5) 0.2818(2)
N20_4 N 0.7800(2) 0.7271(5) 0.2772(2)
O6_4 O 0.7631(2) 0.5019(5) 0.3717(2)
O10_4 O 0.87450(19) 0.6634(5) 0.25126(19)
C55_4 C 0.7649(3) 0.2724(7) 0.2095(3)
H57_4 H 0.7725 0.2426 0.1784
C56_4 C 0.7997(3) 0.3610(6) 0.2408(3)
H58_4 H 0.8328 0.3850 0.2325
C57_4 C 0.7431(3) 0.3761(6) 0.2948(3)
C58_4 C 0.7105(2) 0.2724(6) 0.2662(2)
C59_4 C 0.7263(3) 0.4586(7) 0.3360(3)
C60_4 C 0.6648(3) 0.2010(7) 0.2836(3)
O7_4 O 0.6769(2) 0.4811(5) 0.3284(2)
O8_4 O 0.67229(19) 0.1834(5) 0.33063(18)
C25_4 C 0.7351(3) 0.7724(7) 0.2905(3)
H28_4 H 0.7275 0.7426 0.3216
C26_4 C 0.7003(3) 0.8610(6) 0.2592(3)
H29_4 H 0.6672 0.8850 0.2675
C27_4 C 0.7569(3) 0.8761(6) 0.2052(3)
C28_4 C 0.7895(2) 0.7724(6) 0.2338(2)
C29_4 C 0.7737(3) 0.9586(7) 0.1640(3)
C30_4 C 0.8352(3) 0.7010(7) 0.2164(3)
O2_4 O 0.8231(2) 0.9811(5) 0.1716(2)
O3_4 O 0.82771(19) 0.6834(5) 0.16937(18)
C31_4 C 0.8210(3) 0.8530(8) 0.8884(3)
C32_4 C 0.8582(3) 0.7578(8) 0.8856(3)
H30_4 H 0.8621 0.6810 0.9075
C33_4 C 0.8904(3) 0.7691(8) 0.8518(3)
H31_4 H 0.9162 0.6999 0.8508
C34_4 C 0.8865(3) 0.8764(9) 0.8197(3)
C35_4 C 0.8504(4) 0.9737(13) 0.8239(4)
C36_4 C 0.8177(5) 0.9598(12) 0.8582(4)
C37_4 C 0.7807(3) 0.8347(9) 0.9211(3)
H34_4 H 0.7508 0.7751 0.9027
H35_4 H 0.7647 0.9238 0.9257
C38_4 C 0.8050(3) 0.6447(9) 0.9841(3)
H36_4 H 0.7892 0.5725 0.9621
C42_4 C 0.9187(3) 0.8847(9) 0.7801(3)
H41_4 H 0.9033 0.9568 0.7552
H42_4 H 0.9156 0.7979 0.7612
N9_4 N 0.8048(2) 0.7769(7) 0.9713(2)
N12_4 N 0.9756(3) 0.9132(8) 0.8027(3)
C17_4 C 0.0056(4) 0.0661(8) 0.9568(3)
H19_4 H 0.0089 0.1103 0.9263
C21_4 C 0.0135(3) 0.4102(7) 0.9176(3)
H23_4 H 0.0516 0.4180 0.9205
C47_4 C 0.9944(4) 0.9339(8) 0.0432(3)
H48_4 H 0.9911 0.8897 0.0737
C51_4 C 0.9865(3) 0.5898(7) 0.0824(3)
H52_4 H 0.9484 0.5820 0.0795
loop_
_geom_bond_atom_site_label_1
_geom_bond_atom_site_label_2
_geom_bond_site_symmetry_1
_geom_bond_site_symmetry_2
C13 H14 1_555 1_555
C14 C13 1_555 1_555
H15 C14 1_555 1_555
C46 H45 1_555 1_555
H46 C46 1_555 1_555
H47 C46 1_555 1_555
Ag7 N4 1_555 1_555
C31 C32 1_555 1_555
C32 H30 1_555 1_555
C33 C32 1_555 1_555
H31 C33 1_555 1_555
C34 C33 1_555 1_555
C35 C34 1_555 1_555
C36 C31 1_555 1_555
C37 C31 1_555 1_555
H34 C37 1_555 1_555
H35 C37 1_555 1_555
C38 H36 1_555 1_555
C39 C38 1_555 1_555
H37 C39 1_555 1_555
C40 C41 1_555 1_555
C42 C34 1_555 1_555
H41 C42 1_555 1_555
H42 C42 1_555 1_555
N9 C37 1_555 1_555
N10 Ag7 1_555 1_555
N12 C42 1_555 1_555
C15 N4 1_555 1_555
C35 C36 1_555 1_555
C38 N9 1_555 1_555
C39 N10 1_555 1_555
C40 N9 1_555 1_555
C40 N10 1_555 1_555
Ag2 N2 1_555 1_555
C1 C2 1_555 1_555
C2 H1 1_555 1_555
C3 C2 1_555 1_555
H2 C3 1_555 1_555
C4 C3 1_555 1_555
C5 C4 1_555 1_555
C6 C1 1_555 1_555
C7 C1 1_555 1_555
H5 C7 1_555 1_555
H6 C7 1_555 1_555
C8 H7 1_555 1_555
C9 C8 1_555 1_555
H8 C9 1_555 1_555
C10 C11 1_555 1_555
C12 C4 1_555 1_555
H12 C12 1_555 1_555
H13 C12 1_555 1_555
C25 H28 1_555 1_555
C26 C25 1_555 1_555
H29 C26 1_555 1_555
C27 C28 1_555 1_555
C28 C30 1_555 1_555
C29 C27 1_555 1_555
C30 O3 1_555 1_555
N1 C7 1_555 1_555
N2 C9 1_555 1_555
N3 C12 1_555 1_555
N8 C25 1_555 1_555
O2 Ag2 1_555 1_555
O3 Ag2 1_555 1_555
O4 C30 1_555 1_555
Ag4 N8 1_555 1_555
N13 Ag2 1_555 1_555
C5 C6 1_555 1_555
C8 N1 1_555 1_555
C10 N1 1_555 1_555
C10 N2 1_555 1_555
C26 N7 1_555 1_555
C27 N7 1_555 1_555
C28 N8 1_555 1_555
C29 O2 1_555 1_555
O4 Ag4 1_555 1_555
C45 N13 1_555 1_555
Ag1 N6 1_555 1_555
C16 H16 1_555 1_555
H17 C16 1_555 1_555
H18 C16 1_555 1_555
C17 H19 1_555 1_555
C18 C17 1_555 1_555
C19 C17 1_555 1_555
H20 C19 1_555 1_555
C20 C18 1_555 1_555
H21 C20 1_555 1_555
H22 C20 1_555 1_555
C21 H23 1_555 1_555
C22 C21 1_555 1_555
H24 C22 1_555 1_555
C23 C24 1_555 1_555
C24 H25 1_555 1_555
H26 C24 1_555 1_555
H27 C24 1_555 1_555
N5 C20 1_555 1_555
N6 C22 1_555 1_555
O1 Ag1 1_555 1_555
Ag3 N16 1_555 1_555
Ag4 N17 1_555 1_555
Ag6 N11 1_555 1_555
C43 H43 1_555 1_555
C44 C43 1_555 1_555
H44 C44 1_555 1_555
C47 H48 1_555 1_555
C48 C19 1_555 1_555
C49 C18 1_555 1_555
H49 C49 1_555 1_555
C50 C48 1_555 1_555
H50 C50 1_555 1_555
H51 C50 1_555 1_555
C51 H52 1_555 1_555
C52 C51 1_555 1_555
H53 C52 1_555 1_555
C53 C54 1_555 1_555
C54 H54 1_555 1_555
H55 C54 1_555 1_555
H56 C54 1_555 1_555
C55 H57 1_555 1_555
C56 C55 1_555 1_555
H58 C56 1_555 1_555
C57 C58 1_555 1_555
C58 C60 1_555 1_555
C59 C57 1_555 1_555
C60 O8 1_555 1_555
N14 Ag6 1_555 1_555
N15 C50 1_555 1_555
N16 C52 1_555 1_555
N17 C56 1_555 1_555
N19 Ag1 1_555 1_555
N20 Ag3 1_555 1_555
O5 Ag4 1_555 1_555
O6 Ag3 1_555 1_555
O7 Ag6 1_555 1_555
O8 Ag6 1_555 1_555
O9 Ag1 1_555 1_555
O10 Ag3 1_555 1_555
C21 N5 1_555 1_555
C23 N5 1_555 1_555
C23 N6 1_555 1_555
C47 C48 1_555 1_555
C47 C49 1_555 1_555
C51 N15 1_555 1_555
C53 N15 1_555 1_555
C53 N16 1_555 1_555
C55 N19 1_555 1_555
C57 N17 1_555 1_555
C58 N19 1_555 1_555
C59 O5 1_555 1_555
C59 O7 1_555 1_555
C60 O9 1_555 1_555
C20_2 C18_2 1_555 1_555
H21_2 C20_2 1_555 1_555
H22_2 C20_2 1_555 1_555
C49_2 C18_2 1_555 1_555
H49_2 C49_2 1_555 1_555
Ag3_2 N16_2 1_555 1_555
H53_2 C52_2 1_555 1_555
C53_2 C54_2 1_555 1_555
C54_2 H54_2 1_555 1_555
H55_2 C54_2 1_555 1_555
H56_2 C54_2 1_555 1_555
N16_2 C52_2 1_555 1_555
N18_2 Ag3_2 1_555 1_555
N20_2 Ag3_2 1_555 1_555
O6_2 Ag3_2 1_555 1_555
O10_2 Ag3_2 1_555 1_555
C53_2 N15_2 1_555 1_555
C53_2 N16_2 1_555 1_555
C1_2 C2_2 1_555 1_555
C2_2 H1_2 1_555 1_555
C3_2 C2_2 1_555 1_555
H2_2 C3_2 1_555 1_555
C4_2 C3_2 1_555 1_555
C5_2 C4_2 1_555 1_555
H3_2 C5_2 1_555 1_555
C6_2 C1_2 1_555 1_555
H4_2 C6_2 1_555 1_555
C7_2 C1_2 1_555 1_555
H5_2 C7_2 1_555 1_555
H6_2 C7_2 1_555 1_555
C8_2 H7_2 1_555 1_555
C12_2 C4_2 1_555 1_555
H12_2 C12_2 1_555 1_555
H13_2 C12_2 1_555 1_555
C13_2 H14_2 1_555 1_555
C14_2 C13_2 1_555 1_555
H15_2 C14_2 1_555 1_555
C15_2 C16_2 1_555 1_555
C16_2 H16_2 1_555 1_555
H17_2 C16_2 1_555 1_555
H18_2 C16_2 1_555 1_555
N1_2 C7_2 1_555 1_555
N3_2 C12_2 1_555 1_555
N4_2 C14_2 1_555 1_555
Ag7_2 N4_2 1_555 1_555
H37_2 C39_2 1_555 1_555
C40_2 C41_2 1_555 1_555
C41_2 H38_2 1_555 1_555
H40_2 C41_2 1_555 1_555
N10_2 Ag7_2 1_555 1_555
C5_2 C6_2 1_555 1_555
C8_2 N1_2 1_555 1_555
C13_2 N3_2 1_555 1_555
C15_2 N3_2 1_555 1_555
C15_2 N4_2 1_555 1_555
C39_2 N10_2 1_555 1_555
C40_2 N10_2 1_555 1_555
Ag4 N6_2 1_555 1_555
H8_2 C9_2 1_555 1_555
C10_2 C11_2 1_555 1_555
C11_2 H9_2 1_555 1_555
H11_2 C11_2 1_555 1_555
H24_2 C22_2 1_555 1_555
C23_2 C24_2 1_555 1_555
C24_2 H25_2 1_555 1_555
H26_2 C24_2 1_555 1_555
H27_2 C24_2 1_555 1_555
N11 C9_2 1_555 1_555
N6_2 C22_2 1_555 1_555
C31_2 C32_2 1_555 1_555
C32_2 H30_2 1_555 1_555
C33_2 C32_2 1_555 1_555
H31_2 C33_2 1_555 1_555
C34_2 C33_2 1_555 1_555
C35_2 C34_2 1_555 1_555
H32_2 C35_2 1_555 1_555
C36_2 C31_2 1_555 1_555
H33_2 C36_2 1_555 1_555
C37_2 C31_2 1_555 1_555
H34_2 C37_2 1_555 1_555
H35_2 C37_2 1_555 1_555
C38_2 H36_2 1_555 1_555
C42_2 C34_2 1_555 1_555
H41_2 C42_2 1_555 1_555
H42_2 C42_2 1_555 1_555
C43_2 H43_2 1_555 1_555
C44_2 C43_2 1_555 1_555
H44_2 C44_2 1_555 1_555
C45_2 C46_2 1_555 1_555
C46_2 H45_2 1_555 1_555
H46_2 C46_2 1_555 1_555
H47_2 C46_2 1_555 1_555
N9_2 C37_2 1_555 1_555
N12_2 C42_2 1_555 1_555
C10_2 N11 1_555 1_555
C23_2 N5_2 1_555 1_555
C23_2 N6_2 1_555 1_555
C35_2 C36_2 1_555 1_555
C38_2 N9_2 1_555 1_555
C43_2 N12_2 1_555 1_555
C44_2 N14 1_555 1_555
C45_2 N12_2 1_555 1_555
C45_2 N14 1_555 1_555
H20_2 C19_2 1_555 1_555
C48_2 C19_2 1_555 1_555
C50_2 C48_2 1_555 1_555
H50_2 C50_2 1_555 1_555
H51_2 C50_2 1_555 1_555
C55_2 H57_2 1_555 1_555
C56_2 C55_2 1_555 1_555
H58_2 C56_2 1_555 1_555
C57_2 C58_2 1_555 1_555
C58_2 C60_2 1_555 1_555
C59_2 C57_2 1_555 1_555
C60_2 O8_2 1_555 1_555
N18_2 C56_2 1_555 1_555
O7_2 Ag7_2 1_555 1_555
O8_2 Ag7_2 1_555 1_555
C55_2 N20 1_555 1_555
C57_2 N18_2 1_555 1_555
C58_2 N20 1_555 1_555
C59_2 O6_2 1_555 1_555
C59_2 O7_2 1_555 1_555
C60_2 O10 1_555 1_555
C25_2 H28_2 1_555 1_555
C26_2 C25_2 1_555 1_555
H29_2 C26_2 1_555 1_555
C27_2 C28_2 1_555 1_555
C28_2 C30_2 1_555 1_555
C29_2 C27_2 1_555 1_555
C30_2 O3_2 1_555 1_555
N20_2 C25_2 1_555 1_555
O2_2 Ag7 1_555 1_555
O3_2 Ag7 1_555 1_555
O10_2 C30_2 1_555 1_555
C26_2 N18 1_555 1_555
C27_2 N18 1_555 1_555
C28_2 N20_2 1_555 1_555
C29_2 O2_2 1_555 1_555
C1_3 C2_3 1_555 1_555
C2_3 H1_3 1_555 1_555
C3_3 C2_3 1_555 1_555
H2_3 C3_3 1_555 1_555
C4_3 C3_3 1_555 1_555
C5_3 C4_3 1_555 1_555
C6_3 C1_3 1_555 1_555
C7_3 C1_3 1_555 1_555
H5_3 C7_3 1_555 1_555
H6_3 C7_3 1_555 1_555
C8_3 H7_3 1_555 1_555
C12_3 C4_3 1_555 1_555
H12_3 C12_3 1_555 1_555
H13_3 C12_3 1_555 1_555
N1_3 C7_3 1_555 1_555
N3_3 C12_3 1_555 1_555
C5_3 C6_3 1_555 1_555
C8_3 N1_3 1_555 1_555
Ag2_2 N2_2 1_555 1_555
H8_3 C9_3 1_555 1_555
C10_3 C11_3 1_555 1_555
C25_3 H28_3 1_555 1_555
C26_3 C25_3 1_555 1_555
H29_3 C26_3 1_555 1_555
C27_3 C28_3 1_555 1_555
C28_3 C30_3 1_555 1_555
C29_3 C27_3 1_555 1_555
C30_3 O3_3 1_555 1_555
N2_2 C9_3 1_555 1_555
N8_2 C25_3 1_555 1_555
O2_3 Ag2_2 1_555 1_555
O3_3 Ag2_2 1_555 1_555
O4_2 C30_3 1_555 1_555
Ag4_2 N8_2 1_555 1_555
N13_2 Ag2_2 1_555 1_555
C10_3 N2_2 1_555 1_555
C26_3 N7_2 1_555 1_555
C27_3 N7_2 1_555 1_555
C28_3 N8_2 1_555 1_555
C29_3 O2_3 1_555 1_555
O4_2 Ag4_2 1_555 1_555
C45_3 N13_2 1_555 1_555
C16_3 H16_3 1_555 1_555
H17_3 C16_3 1_555 1_555
H18_3 C16_3 1_555 1_555
C20_3 C18_3 1_555 1_555
H21_3 C20_3 1_555 1_555
H22_3 C20_3 1_555 1_555
Ag3_3 N16_3 1_555 1_555
C47_2 H48_2 1_555 1_555
C49_3 C18_3 1_555 1_555
H49_3 C49_3 1_555 1_555
C51_2 H52_2 1_555 1_555
C52_3 C51_2 1_555 1_555
H53_3 C52_3 1_555 1_555
C53_3 C54_3 1_555 1_555
C54_3 H54_3 1_555 1_555
H55_3 C54_3 1_555 1_555
H56_3 C54_3 1_555 1_555
N16_3 C52_3 1_555 1_555
N20_3 Ag3_3 1_555 1_555
O6_3 Ag3_3 1_555 1_555
O10_3 Ag3_3 1_555 1_555
C47_2 C49_3 1_555 1_555
C51_2 N15_3 1_555 1_555
C53_3 N15_3 1_555 1_555
C53_3 N16_3 1_555 1_555
Ag1_2 N6_3 1_555 1_555
C17_2 H19_2 1_555 1_555
C19_3 C17_2 1_555 1_555
H20_3 C19_3 1_555 1_555
C21_2 H23_2 1_555 1_555
C22_3 C21_2 1_555 1_555
H24_3 C22_3 1_555 1_555
C23_3 C24_3 1_555 1_555
C24_3 H25_3 1_555 1_555
H26_3 C24_3 1_555 1_555
H27_3 C24_3 1_555 1_555
N6_3 C22_3 1_555 1_555
O1_2 Ag1_2 1_555 1_555
Ag4_2 N17_2 1_555 1_555
Ag6_2 N11_2 1_555 1_555
C43_3 H43_3 1_555 1_555
C44_3 C43_3 1_555 1_555
H44_3 C44_3 1_555 1_555
C48_3 C19_3 1_555 1_555
C50_3 C48_3 1_555 1_555
H50_3 C50_3 1_555 1_555
H51_3 C50_3 1_555 1_555
C55_3 H57_3 1_555 1_555
C56_3 C55_3 1_555 1_555
H58_3 C56_3 1_555 1_555
C57_3 C58_3 1_555 1_555
C58_3 C60_3 1_555 1_555
C59_3 C57_3 1_555 1_555
C60_3 O8_3 1_555 1_555
N14_2 Ag6_2 1_555 1_555
N17_2 C56_3 1_555 1_555
N19_2 Ag1_2 1_555 1_555
O5_2 Ag4_2 1_555 1_555
O7_3 Ag6_2 1_555 1_555
O8_3 Ag6_2 1_555 1_555
O9_2 Ag1_2 1_555 1_555
C21_2 N5_3 1_555 1_555
C23_3 N5_3 1_555 1_555
C23_3 N6_3 1_555 1_555
C55_3 N19_2 1_555 1_555
C57_3 N17_2 1_555 1_555
C58_3 N19_2 1_555 1_555
C59_3 O5_2 1_555 1_555
C59_3 O7_3 1_555 1_555
C60_3 O9_2 1_555 1_555
C13_3 H14_3 1_555 1_555
C14_3 C13_3 1_555 1_555
H15_3 C14_3 1_555 1_555
C46_3 H45_3 1_555 1_555
H46_3 C46_3 1_555 1_555
H47_3 C46_3 1_555 1_555
Ag7_3 N4_3 1_555 1_555
H37_3 C39_3 1_555 1_555
C40_3 C41_3 1_555 1_555
N10_3 Ag7_3 1_555 1_555
C15_3 N4_3 1_555 1_555
C39_3 N10_3 1_555 1_555
C40_3 N10_3 1_555 1_555
Ag4_2 N6_4 1_555 1_555
C1_4 C2_4 1_555 1_555
C2_4 H1_4 1_555 1_555
C3_4 C2_4 1_555 1_555
H2_4 C3_4 1_555 1_555
C4_4 C3_4 1_555 1_555
C5_4 C4_4 1_555 1_555
H3_4 C5_4 1_555 1_555
C6_4 C1_4 1_555 1_555
H4_4 C6_4 1_555 1_555
C7_4 C1_4 1_555 1_555
H5_4 C7_4 1_555 1_555
H6_4 C7_4 1_555 1_555
C8_4 H7_4 1_555 1_555
C9_4 C8_4 1_555 1_555
H8_4 C9_4 1_555 1_555
C10_4 C11_4 1_555 1_555
C11_4 H9_4 1_555 1_555
H10_4 C11_4 1_555 1_555
H11_4 C11_4 1_555 1_555
C12_4 C4_4 1_555 1_555
H12_4 C12_4 1_555 1_555
H13_4 C12_4 1_555 1_555
C13_4 H14_4 1_555 1_555
C14_4 C13_4 1_555 1_555
H15_4 C14_4 1_555 1_555
C15_4 C16_4 1_555 1_555
C16_4 H16_4 1_555 1_555
H17_4 C16_4 1_555 1_555
H18_4 C16_4 1_555 1_555
H24_4 C22_4 1_555 1_555
C23_4 C24_4 1_555 1_555
C24_4 H25_4 1_555 1_555
H26_4 C24_4 1_555 1_555
H27_4 C24_4 1_555 1_555
N1_4 C7_4 1_555 1_555
N11_2 C9_4 1_555 1_555
N3_4 C12_4 1_555 1_555
N4_4 C14_4 1_555 1_555
N6_4 C22_4 1_555 1_555
Ag7_4 N4_4 1_555 1_555
C31_3 C32_3 1_555 1_555
C32_3 H30_3 1_555 1_555
C33_3 C32_3 1_555 1_555
H31_3 C33_3 1_555 1_555
C34_3 C33_3 1_555 1_555
C35_3 C34_3 1_555 1_555
H32_4 C35_3 1_555 1_555
C36_3 C31_3 1_555 1_555
H33_4 C36_3 1_555 1_555
C37_3 C31_3 1_555 1_555
H34_3 C37_3 1_555 1_555
H35_3 C37_3 1_555 1_555
C38_3 H36_3 1_555 1_555
C39_4 C38_3 1_555 1_555
H37_4 C39_4 1_555 1_555
C40_4 C41_4 1_555 1_555
C41_4 H38_4 1_555 1_555
H39_4 C41_4 1_555 1_555
H40_4 C41_4 1_555 1_555
C42_3 C34_3 1_555 1_555
H41_3 C42_3 1_555 1_555
H42_3 C42_3 1_555 1_555
C43_4 H43_4 1_555 1_555
C44_4 C43_4 1_555 1_555
H44_4 C44_4 1_555 1_555
C45_4 C46_4 1_555 1_555
C46_4 H45_4 1_555 1_555
H46_4 C46_4 1_555 1_555
H47_4 C46_4 1_555 1_555
N9_3 C37_3 1_555 1_555
N10_4 Ag7_4 1_555 1_555
N12_3 C42_3 1_555 1_555
C5_4 C6_4 1_555 1_555
C8_4 N1_4 1_555 1_555
C10_4 N1_4 1_555 1_555
C10_4 N11_2 1_555 1_555
C13_4 N3_4 1_555 1_555
C15_4 N3_4 1_555 1_555
C15_4 N4_4 1_555 1_555
C23_4 N5_4 1_555 1_555
C23_4 N6_4 1_555 1_555
C35_3 C36_3 1_555 1_555
C38_3 N9_3 1_555 1_555
C39_4 N10_4 1_555 1_555
C40_4 N9_3 1_555 1_555
C40_4 N10_4 1_555 1_555
C43_4 N12_3 1_555 1_555
C44_4 N14_2 1_555 1_555
C45_4 N12_3 1_555 1_555
C45_4 N14_2 1_555 1_555
H20_4 C19_4 1_555 1_555
C47_3 H48_3 1_555 1_555
C48_4 C19_4 1_555 1_555
C50_4 C48_4 1_555 1_555
H50_4 C50_4 1_555 1_555
H51_4 C50_4 1_555 1_555
C51_3 H52_3 1_555 1_555
C47_3 C48_4 1_555 1_555
C17_3 H19_3 1_555 1_555
C18_4 C17_3 1_555 1_555
C20_4 C18_4 1_555 1_555
H21_4 C20_4 1_555 1_555
H22_4 C20_4 1_555 1_555
C21_3 H23_3 1_555 1_555
C49_4 C18_4 1_555 1_555
H49_4 C49_4 1_555 1_555
Ag3_4 N16_4 1_555 1_555
H53_4 C52_4 1_555 1_555
C53_4 C54_4 1_555 1_555
C54_4 H54_4 1_555 1_555
H55_4 C54_4 1_555 1_555
H56_4 C54_4 1_555 1_555
N16_4 C52_4 1_555 1_555
N18_4 Ag3_4 1_555 1_555
N20_4 Ag3_4 1_555 1_555
O6_4 Ag3_4 1_555 1_555
O10_4 Ag3_4 1_555 1_555
C53_4 N15_4 1_555 1_555
C53_4 N16_4 1_555 1_555
C55_4 H57_4 1_555 1_555
C56_4 C55_4 1_555 1_555
H58_4 C56_4 1_555 1_555
C57_4 C58_4 1_555 1_555
C58_4 C60_4 1_555 1_555
C59_4 C57_4 1_555 1_555
C60_4 O8_4 1_555 1_555
N18_4 C56_4 1_555 1_555
O7_4 Ag7_4 1_555 1_555
O8_4 Ag7_4 1_555 1_555
C55_4 N20_3 1_555 1_555
C57_4 N18_4 1_555 1_555
C58_4 N20_3 1_555 1_555
C59_4 O6_4 1_555 1_555
C59_4 O7_4 1_555 1_555
C60_4 O10_3 1_555 1_555
C25_4 H28_4 1_555 1_555
C26_4 C25_4 1_555 1_555
H29_4 C26_4 1_555 1_555
C27_4 C28_4 1_555 1_555
C28_4 C30_4 1_555 1_555
C29_4 C27_4 1_555 1_555
C30_4 O3_4 1_555 1_555
N20_4 C25_4 1_555 1_555
O2_4 Ag7_3 1_555 1_555
O3_4 Ag7_3 1_555 1_555
O10_4 C30_4 1_555 1_555
C26_4 N18_3 1_555 1_555
C27_4 N18_3 1_555 1_555
C28_4 N20_4 1_555 1_555
C29_4 O2_4 1_555 1_555
C31_4 C32_4 1_555 1_555
C32_4 H30_4 1_555 1_555
C33_4 C32_4 1_555 1_555
H31_4 C33_4 1_555 1_555
C34_4 C33_4 1_555 1_555
C35_4 C34_4 1_555 1_555
C36_4 C31_4 1_555 1_555
C37_4 C31_4 1_555 1_555
H34_4 C37_4 1_555 1_555
H35_4 C37_4 1_555 1_555
C38_4 H36_4 1_555 1_555
C42_4 C34_4 1_555 1_555
H41_4 C42_4 1_555 1_555
H42_4 C42_4 1_555 1_555
N9_4 C37_4 1_555 1_555
N12_4 C42_4 1_555 1_555
C35_4 C36_4 1_555 1_555
C38_4 N9_4 1_555 1_555
C17_4 H19_4 1_555 1_555
C21_4 H23_4 1_555 1_555
C47_4 H48_4 1_555 1_555
C51_4 H52_4 1_555 1_555

#END
