
###############################################################################
#
# This file contains modified crystal structure data generated from the
# MOF subset of the Cambridge Structural Database (CSD) v543 
# hosted by the Cambridge Crystallographic Data Centre (CCDC).
#
# This work is licensed under the Creative Commons
# Attribution-NonCommercial-ShareAlike 4.0 International License.
# To view a copy of this license, visit
# http://creativecommons.org/licenses/by-nc-sa/4.0/
# or send a letter to
# Creative Commons, PO Box 1866, Mountain View, CA 94042, USA.
#
# CIF created using the CSD Python API on 29 September 2022
# The structure has been converted into the P1 space group
# The structure has a 3D framework
# The original CSD entry FAKXOI is in the monoclinic crystal system
# The framework has been calculated to contain at least 10.0% void space
# The void calculation uses a probe of radius 1.32A, grid spacing 0.4
# H atom positions have been added when not included in the experimental data
#
###############################################################################

data_FAKXOI
_chemical_formula_moiety         '(C192 H100 N36 O54 Pb12)n'
_symmetry_cell_setting           triclinic
_symmetry_space_group_name_H-M   'P 1'
_symmetry_Int_Tables_number      1
_space_group_name_Hall           'P 1'
loop_
_symmetry_equiv_pos_site_id
_symmetry_equiv_pos_as_xyz
1 x,y,z
_cell_length_a                   15.600(3)
_cell_length_b                   35.225(7)
_cell_length_c                   14.139(3)
_cell_angle_alpha                90
_cell_angle_beta                 111.94(3)
_cell_angle_gamma                90
_cell_volume                     7206.82
loop_
_atom_site_label
_atom_site_type_symbol
_atom_site_fract_x
_atom_site_fract_y
_atom_site_fract_z
O3 O 0.0250(7) 0.6554(3) 0.0601(6)
O4 O 0.0658(6) 0.7083(3) 0.1458(8)
C16 C 0.0057(8) 0.6858(4) 0.0819(9)
Pb7 Pb 0.19251(3) 0.66489(2) 0.21810(4)
Pb8 Pb 0.26383(3) 0.82750(2) 0.01134(3)
O7 O 0.0968(5) 0.8482(3) 0.8554(7)
O8 O 0.1144(6) 0.8029(3) 0.9721(6)
C48 C 0.0582(8) 0.8223(3) 0.8854(8)
Pb5 Pb 0.19251(3) 0.83511(2) 0.71810(4)
O11 O 0.7099(6) 0.3668(3) 0.0110(6)
C13 C 0.9087(8) 0.6968(4) 0.0497(9)
C14 C 0.8828(7) 0.7283(3) 0.0963(8)
H6 H 0.9275 0.7435 0.1434
C15 C 0.7862(7) 0.7362(4) 0.0692(8)
H7 H 0.7672 0.7562 0.0996
Pb4 Pb 0.86003(3) 0.34129(2) 0.09446(4)
Pb1 Pb 0.13997(3) 0.65871(2) 0.90554(4)
Pb3 Pb 0.26383(3) 0.67250(2) 0.51134(3)
O1 O 0.6227(6) 0.7855(3) 0.9407(7)
O2 O 0.5803(7) 0.6594(3) 0.9976(9)
O5 O 0.6240(6) 0.8550(3) 0.7669(6)
O6 O 0.6758(5) 0.7293(3) 0.7133(7)
O9 O 0.4198(9) 0.5102(3) 0.6364(7)
O10 O 0.3667(6) 0.4977(3) 0.9351(6)
O12 O 0.7679(5) 0.3886(3) 0.9001(6)
O13 O 0.4309(7) 0.6518(3) 0.6675(9)
O14 O 0.0034(7) 0.6875(4) 0.7386(10)
N1 N 0.2184(7) 0.7143(3) 0.8654(8)
N2 N 0.2391(6) 0.7757(3) 0.8384(8)
N3 N 0.6277(6) 0.7213(3) 0.9757(8)
N4 N 0.2920(8) 0.7316(3) 0.6012(9)
N5 N 0.2637(6) 0.7927(3) 0.6304(8)
N6 N 0.6744(6) 0.7941(3) 0.7427(8)
N7 N 0.2099(8) 0.6391(3) 0.6253(8)
N8 N 0.1785(7) 0.6321(3) 0.7720(7)
N9 N 0.4153(7) 0.4961(3) 0.7990(7)
C1 C 0.1819(8) 0.7479(3) 0.8373(9)
H1 H 0.1187 0.7520 0.8175
C2 C 0.3247(7) 0.7598(3) 0.8726(8)
C3 C 0.3118(7) 0.7212(3) 0.8847(8)
C4 C 0.4127(7) 0.7755(3) 0.8907(8)
H2 H 0.4204 0.8013 0.8823
C5 C 0.3873(8) 0.6960(4) 0.9212(8)
H3 H 0.3800 0.6706 0.9348
C6 C 0.4866(7) 0.7508(3) 0.9213(9)
C7 C 0.4721(7) 0.7112(3) 0.9355(8)
C8 C 0.5834(7) 0.7567(3) 0.9461(8)
C9 C 0.5593(8) 0.6922(3) 0.9703(7)
C10 C 0.7229(7) 0.7140(4) 0.9984(8)
C11 C 0.7512(9) 0.6832(5) 0.9533(11)
H4 H 0.7079 0.6686 0.9034
C12 C 0.8416(9) 0.6755(4) 0.9834(11)
H5 H 0.8589 0.6539 0.9569
C17 C 0.2294(7) 0.7591(4) 0.6014(9)
H8 H 0.1667 0.7541 0.5819
C18 C 0.3738(6) 0.7509(3) 0.6341(8)
C19 C 0.3623(6) 0.7894(3) 0.6545(8)
C20 C 0.4651(7) 0.7375(3) 0.6522(8)
H9 H 0.4771 0.7123 0.6419
C21 C 0.4316(7) 0.8172(4) 0.6908(9)
H10 H 0.4215 0.8423 0.7048
C22 C 0.5338(6) 0.7641(3) 0.6856(8)
C23 C 0.5169(6) 0.8020(3) 0.7028(8)
C24 C 0.6361(7) 0.7585(4) 0.7146(8)
C25 C 0.6040(8) 0.8239(3) 0.7499(8)
C26 C 0.7709(8) 0.8011(4) 0.7806(8)
C27 C 0.8334(7) 0.7760(4) 0.8523(9)
H11 H 0.8114 0.7548 0.8753
C28 C 0.9275(7) 0.7835(3) 0.8878(8)
H12 H 0.9690 0.7672 0.9346
C29 C 0.9597(7) 0.8158(4) 0.8525(8)
C30 C 0.9023(8) 0.8381(4) 0.7829(10)
H13 H 0.9261 0.8584 0.7583
C31 C 0.8051(8) 0.8323(3) 0.7440(9)
H14 H 0.7654 0.8487 0.6958
C32 C 0.1660(10) 0.6528(4) 0.6860(10)
H15 H 0.1302 0.6747 0.6698
C33 C 0.2462(10) 0.6043(4) 0.6715(9)
C34 C 0.2277(8) 0.6010(3) 0.7627(8)
C35 C 0.2965(9) 0.5776(3) 0.6434(9)
H16 H 0.3084 0.5800 0.5840
C36 C 0.2586(8) 0.5698(3) 0.8260(8)
H17 H 0.2432 0.5660 0.8828
C37 C 0.3286(9) 0.5467(4) 0.7088(10)
C38 C 0.3141(8) 0.5444(4) 0.7993(8)
C39 C 0.3916(10) 0.5166(4) 0.7042(11)
C40 C 0.3686(8) 0.5099(3) 0.8591(7)
C41 C 0.4867(9) 0.4679(4) 0.8302(10)
C42 C 0.5700(9) 0.4739(4) 0.8091(10)
H18 H 0.5779 0.4957 0.7761
C43 C 0.6346(9) 0.4470(4) 0.8388(13)
H19 H 0.6855 0.4495 0.8200
C44 C 0.6306(6) 0.4151(3) 0.8969(8)
C45 C 0.5473(8) 0.4098(4) 0.9176(10)
H20 H 0.5400 0.3886 0.9530
C46 C 0.4783(8) 0.4372(3) 0.8831(9)
H21 H 0.4249 0.4343 0.8969
C47 C 0.7085(9) 0.3886(3) 0.9358(9)
Pb6 Pb 0.80749(3) 0.33511(2) 0.78190(4)
O15 O 0.0250(7) 0.8446(3) 0.5601(6)
O16 O 0.0658(6) 0.7917(3) 0.6458(8)
O18 O 0.0968(5) 0.6518(3) 0.3554(7)
O19 O 0.1144(6) 0.6971(3) 0.4721(6)
O20 O 0.2901(6) 0.6332(3) 0.9890(6)
O21 O 0.2321(5) 0.8886(3) 0.5999(6)
H22 H 0.424308 0.653955 0.734483
H23 H 0.446414 0.625196 0.656948
H24 H 0.0237769 0.687462 0.679937
O18_2 O 0.9032(5) 0.1518(3) 0.1446(7)
O19_2 O 0.8856(6) 0.1971(3) 0.0279(6)
Pb1_2 Pb 0.86003(3) 0.15871(2) 0.59446(4)
Pb3_2 Pb 0.73617(3) 0.17250(2) 0.98866(3)
O1_2 O 0.3773(6) 0.2855(3) 0.5593(7)
O2_2 O 0.4197(7) 0.1594(3) 0.5024(9)
O5_2 O 0.3760(6) 0.3550(3) 0.7331(6)
O6_2 O 0.3242(5) 0.2293(3) 0.7867(7)
O9_2 O 0.5802(9) 0.0102(3) 0.8636(7)
O13_2 O 0.5691(7) 0.1518(3) 0.8325(9)
O14_2 O 0.9966(7) 0.1875(4) 0.7614(10)
N1_2 N 0.7816(7) 0.2143(3) 0.6346(8)
N2_2 N 0.7609(6) 0.2757(3) 0.6616(8)
N3_2 N 0.3723(6) 0.2213(3) 0.5243(8)
N4_2 N 0.7080(8) 0.2316(3) 0.8988(9)
N5_2 N 0.7363(6) 0.2927(3) 0.8696(8)
N6_2 N 0.3256(6) 0.2941(3) 0.7573(8)
N7_2 N 0.7901(8) 0.1391(3) 0.8747(8)
N8_2 N 0.8215(7) 0.1321(3) 0.7280(7)
C1_2 C 0.8181(8) 0.2479(3) 0.6627(9)
H1_2 H 0.8813 0.2520 0.6825
C2_2 C 0.6753(7) 0.2598(3) 0.6274(8)
C3_2 C 0.6882(7) 0.2212(3) 0.6153(8)
C4_2 C 0.5873(7) 0.2755(3) 0.6093(8)
H2_2 H 0.5796 0.3013 0.6177
C5_2 C 0.6127(8) 0.1960(4) 0.5788(8)
H3_2 H 0.6200 0.1706 0.5652
C6_2 C 0.5134(7) 0.2508(3) 0.5787(9)
C7_2 C 0.5279(7) 0.2112(3) 0.5645(8)
C8_2 C 0.4166(7) 0.2567(3) 0.5539(8)
C9_2 C 0.4407(8) 0.1922(3) 0.5297(7)
C10_2 C 0.2771(7) 0.2140(4) 0.5016(8)
C11_2 C 0.2488(9) 0.1832(5) 0.5467(11)
H4_2 H 0.2921 0.1686 0.5966
C12_2 C 0.1584(9) 0.1755(4) 0.5166(11)
H5_2 H 0.1411 0.1539 0.5431
C13_2 C 0.0913(8) 0.1968(4) 0.4503(9)
C14_2 C 0.1172(7) 0.2283(3) 0.4037(8)
H6_2 H 0.0725 0.2435 0.3566
C15_2 C 0.2138(7) 0.2362(4) 0.4308(8)
H7_2 H 0.2328 0.2562 0.4004
C17_2 C 0.7706(7) 0.2591(4) 0.8986(9)
H8_2 H 0.8333 0.2541 0.9181
C18_2 C 0.6262(6) 0.2509(3) 0.8659(8)
C19_2 C 0.6377(6) 0.2894(3) 0.8455(8)
C20_2 C 0.5349(7) 0.2375(3) 0.8478(8)
H9_2 H 0.5229 0.2123 0.8581
C21_2 C 0.5684(7) 0.3172(4) 0.8092(9)
H10_2 H 0.5785 0.3423 0.7952
C22_2 C 0.4662(6) 0.2641(3) 0.8144(8)
C23_2 C 0.4831(6) 0.3020(3) 0.7972(8)
C24_2 C 0.3639(7) 0.2585(4) 0.7854(8)
C25_2 C 0.3960(8) 0.3239(3) 0.7501(8)
C26_2 C 0.2291(8) 0.3011(4) 0.7194(8)
C27_2 C 0.1666(7) 0.2760(4) 0.6477(9)
H11_2 H 0.1886 0.2548 0.6247
C28_2 C 0.0725(7) 0.2835(3) 0.6122(8)
H12_2 H 0.0310 0.2672 0.5654
C29_2 C 0.0403(7) 0.3158(4) 0.6475(8)
C30_2 C 0.0977(8) 0.3381(4) 0.7171(10)
H13_2 H 0.0739 0.3584 0.7417
C31_2 C 0.1949(8) 0.3323(3) 0.7560(9)
H14_2 H 0.2346 0.3487 0.8042
C32_2 C 0.8340(10) 0.1528(4) 0.8140(10)
H15_2 H 0.8698 0.1747 0.8302
C33_2 C 0.7538(10) 0.1043(4) 0.8285(9)
C34_2 C 0.7723(8) 0.1010(3) 0.7373(8)
C35_2 C 0.7035(9) 0.0776(3) 0.8566(9)
H16_2 H 0.6916 0.0800 0.9160
C36_2 C 0.7414(8) 0.0698(3) 0.6740(8)
H17_2 H 0.7568 0.0660 0.6172
C37_2 C 0.6714(9) 0.0467(4) 0.7912(10)
C38_2 C 0.6859(8) 0.0444(4) 0.7007(8)
C39_2 C 0.6084(10) 0.0166(4) 0.7958(11)
C40_2 C 0.6314(8) 0.0099(3) 0.6409(7)
O15_2 O 0.9750(7) 0.3446(3) 0.9399(6)
O16_2 O 0.9342(6) 0.2917(3) 0.8542(8)
O17 O 0.9032(5) 0.3482(3) 0.6446(7)
O20_2 O 0.7099(6) 0.1332(3) 0.5110(6)
H22_2 H 0.575692 0.153955 0.765517
H23_2 H 0.553586 0.125196 0.843052
H24_2 H 0.976223 0.187462 0.820063
O10_2 O 0.6333(6) 0.9977(3) 0.5649(6)
O11_2 O 0.2901(6) 0.8668(3) 0.4890(6)
N9_2 N 0.5847(7) 0.9961(3) 0.7010(7)
C41_2 C 0.5133(9) 0.9679(4) 0.6698(10)
C42_2 C 0.4300(9) 0.9739(4) 0.6909(10)
H18_2 H 0.4221 0.9957 0.7239
C43_2 C 0.3654(9) 0.9470(4) 0.6612(13)
H19_2 H 0.3145 0.9495 0.6800
C44_2 C 0.3694(6) 0.9151(3) 0.6031(8)
C45_2 C 0.4527(8) 0.9098(4) 0.5824(10)
H20_2 H 0.4600 0.8886 0.5470
C46_2 C 0.5217(8) 0.9372(3) 0.6169(9)
H21_2 H 0.5751 0.9343 0.6031
C47_2 C 0.2915(9) 0.8886(3) 0.5642(9)
Pb4_2 Pb 0.13997(3) 0.84129(2) 0.40554(4)
O3_2 O 0.9750(7) 0.1554(3) 0.4399(6)
O4_2 O 0.9342(6) 0.2083(3) 0.3542(8)
O8_2 O 0.8856(6) 0.3029(3) 0.5279(6)
C16_2 C 0.9943(8) 0.1858(4) 0.4181(9)
C48_2 C 0.9418(8) 0.3223(3) 0.6146(8)
Pb7_2 Pb 0.80749(3) 0.16489(2) 0.28190(4)
Pb8_2 Pb 0.73617(3) 0.32750(2) 0.48866(3)
O1_3 O 0.3773(6) 0.2145(3) 0.0593(7)
O2_3 O 0.4197(7) 0.3406(3) 0.0024(9)
O5_3 O 0.3760(6) 0.1450(3) 0.2331(6)
O6_3 O 0.3242(5) 0.2707(3) 0.2867(7)
O9_3 O 0.5802(9) 0.4898(3) 0.3636(7)
O10_3 O 0.6333(6) 0.5023(3) 0.0649(6)
O12_2 O 0.2321(5) 0.6114(3) 0.0999(6)
O13_3 O 0.5691(7) 0.3482(3) 0.3325(9)
O14_3 O 0.9966(7) 0.3125(4) 0.2614(10)
N1_3 N 0.7816(7) 0.2857(3) 0.1346(8)
N2_3 N 0.7609(6) 0.2243(3) 0.1616(8)
N3_3 N 0.3723(6) 0.2787(3) 0.0243(8)
N4_3 N 0.7080(8) 0.2684(3) 0.3988(9)
N5_3 N 0.7363(6) 0.2073(3) 0.3696(8)
N6_3 N 0.3256(6) 0.2059(3) 0.2573(8)
N7_3 N 0.7901(8) 0.3609(3) 0.3747(8)
N8_3 N 0.8215(7) 0.3679(3) 0.2280(7)
N9_3 N 0.5847(7) 0.5039(3) 0.2010(7)
C1_3 C 0.8181(8) 0.2521(3) 0.1627(9)
H1_3 H 0.8813 0.2480 0.1825
C2_3 C 0.6753(7) 0.2402(3) 0.1274(8)
C3_3 C 0.6882(7) 0.2788(3) 0.1153(8)
C4_3 C 0.5873(7) 0.2245(3) 0.1093(8)
H2_3 H 0.5796 0.1987 0.1177
C5_3 C 0.6127(8) 0.3040(4) 0.0788(8)
H3_3 H 0.6200 0.3294 0.0652
C6_3 C 0.5134(7) 0.2492(3) 0.0787(9)
C7_3 C 0.5279(7) 0.2888(3) 0.0645(8)
C8_3 C 0.4166(7) 0.2433(3) 0.0539(8)
C9_3 C 0.4407(8) 0.3078(3) 0.0297(7)
C10_3 C 0.2771(7) 0.2860(4) 0.0016(8)
C11_3 C 0.2488(9) 0.3168(5) 0.0467(11)
H4_3 H 0.2921 0.3314 0.0966
C12_3 C 0.1584(9) 0.3245(4) 0.0166(11)
H5_3 H 0.1411 0.3461 0.0431
C17_3 C 0.7706(7) 0.2409(4) 0.3986(9)
H8_3 H 0.8333 0.2459 0.4181
C18_3 C 0.6262(6) 0.2491(3) 0.3659(8)
C19_3 C 0.6377(6) 0.2106(3) 0.3455(8)
C20_3 C 0.5349(7) 0.2625(3) 0.3478(8)
H9_3 H 0.5229 0.2877 0.3581
C21_3 C 0.5684(7) 0.1828(4) 0.3092(9)
H10_3 H 0.5785 0.1577 0.2952
C22_3 C 0.4662(6) 0.2359(3) 0.3144(8)
C23_3 C 0.4831(6) 0.1980(3) 0.2972(8)
C24_3 C 0.3639(7) 0.2415(4) 0.2854(8)
C25_3 C 0.3960(8) 0.1761(3) 0.2501(8)
C26_3 C 0.2291(8) 0.1989(4) 0.2194(8)
C27_3 C 0.1666(7) 0.2240(4) 0.1477(9)
H11_3 H 0.1886 0.2452 0.1247
C28_3 C 0.0725(7) 0.2165(3) 0.1122(8)
H12_3 H 0.0310 0.2328 0.0654
C29_3 C 0.0403(7) 0.1842(4) 0.1475(8)
C30_3 C 0.0977(8) 0.1619(4) 0.2171(10)
H13_3 H 0.0739 0.1416 0.2417
C31_3 C 0.1949(8) 0.1677(3) 0.2560(9)
H14_3 H 0.2346 0.1513 0.3042
C32_3 C 0.8340(10) 0.3472(4) 0.3140(10)
H15_3 H 0.8698 0.3253 0.3302
C33_3 C 0.7538(10) 0.3957(4) 0.3285(9)
C34_3 C 0.7723(8) 0.3990(3) 0.2373(8)
C35_3 C 0.7035(9) 0.4224(3) 0.3566(9)
H16_3 H 0.6916 0.4200 0.4160
C36_3 C 0.7414(8) 0.4302(3) 0.1740(8)
H17_3 H 0.7568 0.4340 0.1172
C37_3 C 0.6714(9) 0.4533(4) 0.2912(10)
C38_3 C 0.6859(8) 0.4556(4) 0.2007(8)
C39_3 C 0.6084(10) 0.4834(4) 0.2958(11)
C40_3 C 0.6314(8) 0.4901(3) 0.1409(7)
C41_3 C 0.5133(9) 0.5321(4) 0.1698(10)
C42_3 C 0.4300(9) 0.5261(4) 0.1909(10)
H18_3 H 0.4221 0.5043 0.2239
C43_3 C 0.3654(9) 0.5530(4) 0.1612(13)
H19_3 H 0.3145 0.5505 0.1800
C44_3 C 0.3694(6) 0.5849(3) 0.1031(8)
C45_3 C 0.4527(8) 0.5902(4) 0.0824(10)
H20_3 H 0.4600 0.6114 0.0470
C46_3 C 0.5217(8) 0.5628(3) 0.1169(9)
H21_3 H 0.5751 0.5657 0.1031
C47_3 C 0.2915(9) 0.6114(3) 0.0642(9)
O21_2 O 0.7679(5) 0.1114(3) 0.4001(6)
H22_3 H 0.575692 0.346045 0.265517
H23_3 H 0.553586 0.374804 0.343052
H24_3 H 0.976223 0.312538 0.320063
C13_3 C 0.0913(8) 0.3032(4) 0.9503(9)
C14_3 C 0.1172(7) 0.2717(3) 0.9037(8)
H6_3 H 0.0725 0.2565 0.8566
C15_3 C 0.2138(7) 0.2638(4) 0.9308(8)
H7_3 H 0.2328 0.2438 0.9004
C48_3 C 0.9418(8) 0.1777(3) 0.1146(8)
C16_3 C 0.9943(8) 0.3142(4) 0.9181(9)
C16_4 C 0.0057(8) 0.8142(4) 0.5819(9)
C48_4 C 0.0582(8) 0.6777(3) 0.3854(8)
O10_4 O 0.3667(6) 0.0023(3) 0.4351(6)
N9_4 N 0.4153(7) 0.0039(3) 0.2990(7)
C41_4 C 0.4867(9) 0.0321(4) 0.3302(10)
C42_4 C 0.5700(9) 0.0261(4) 0.3091(10)
H18_4 H 0.5779 0.0043 0.2761
C43_4 C 0.6346(9) 0.0530(4) 0.3388(13)
H19_4 H 0.6855 0.0505 0.3200
C44_4 C 0.6306(6) 0.0849(3) 0.3969(8)
C45_4 C 0.5473(8) 0.0902(4) 0.4176(10)
H20_4 H 0.5400 0.1114 0.4530
C46_4 C 0.4783(8) 0.0628(3) 0.3831(9)
H21_4 H 0.4249 0.0657 0.3969
C47_4 C 0.7085(9) 0.1114(3) 0.4358(9)
O1_4 O 0.6227(6) 0.7145(3) 0.4407(7)
O2_4 O 0.5803(7) 0.8406(3) 0.4976(9)
O5_4 O 0.6240(6) 0.6450(3) 0.2669(6)
O6_4 O 0.6758(5) 0.7707(3) 0.2133(7)
O9_4 O 0.4198(9) 0.9898(3) 0.1364(7)
O13_4 O 0.4309(7) 0.8482(3) 0.1675(9)
O14_4 O 0.0034(7) 0.8125(4) 0.2386(10)
N1_4 N 0.2184(7) 0.7857(3) 0.3654(8)
N2_4 N 0.2391(6) 0.7243(3) 0.3384(8)
N3_4 N 0.6277(6) 0.7787(3) 0.4757(8)
N4_4 N 0.2920(8) 0.7684(3) 0.1012(9)
N5_4 N 0.2637(6) 0.7073(3) 0.1304(8)
N6_4 N 0.6744(6) 0.7059(3) 0.2427(8)
N7_4 N 0.2099(8) 0.8609(3) 0.1253(8)
N8_4 N 0.1785(7) 0.8679(3) 0.2720(7)
C1_4 C 0.1819(8) 0.7521(3) 0.3373(9)
H1_4 H 0.1187 0.7480 0.3175
C2_4 C 0.3247(7) 0.7402(3) 0.3726(8)
C3_4 C 0.3118(7) 0.7788(3) 0.3847(8)
C4_4 C 0.4127(7) 0.7245(3) 0.3907(8)
H2_4 H 0.4204 0.6987 0.3823
C5_4 C 0.3873(8) 0.8040(4) 0.4212(8)
H3_4 H 0.3800 0.8294 0.4348
C6_4 C 0.4866(7) 0.7492(3) 0.4213(9)
C7_4 C 0.4721(7) 0.7888(3) 0.4355(8)
C8_4 C 0.5834(7) 0.7433(3) 0.4461(8)
C9_4 C 0.5593(8) 0.8078(3) 0.4703(7)
C10_4 C 0.7229(7) 0.7860(4) 0.4984(8)
C11_4 C 0.7512(9) 0.8168(5) 0.4533(11)
H4_4 H 0.7079 0.8314 0.4034
C12_4 C 0.8416(9) 0.8245(4) 0.4834(11)
H5_4 H 0.8589 0.8461 0.4569
C13_4 C 0.9087(8) 0.8032(4) 0.5497(9)
C14_4 C 0.8828(7) 0.7717(3) 0.5963(8)
H6_4 H 0.9275 0.7565 0.6434
C15_4 C 0.7862(7) 0.7638(4) 0.5692(8)
H7_4 H 0.7672 0.7438 0.5996
C17_4 C 0.2294(7) 0.7409(4) 0.1014(9)
H8_4 H 0.1667 0.7459 0.0819
C18_4 C 0.3738(6) 0.7491(3) 0.1341(8)
C19_4 C 0.3623(6) 0.7106(3) 0.1545(8)
C20_4 C 0.4651(7) 0.7625(3) 0.1522(8)
H9_4 H 0.4771 0.7877 0.1419
C21_4 C 0.4316(7) 0.6828(4) 0.1908(9)
H10_4 H 0.4215 0.6577 0.2048
C22_4 C 0.5338(6) 0.7359(3) 0.1856(8)
C23_4 C 0.5169(6) 0.6980(3) 0.2028(8)
C24_4 C 0.6361(7) 0.7415(4) 0.2146(8)
C25_4 C 0.6040(8) 0.6761(3) 0.2499(8)
C26_4 C 0.7709(8) 0.6989(4) 0.2806(8)
C27_4 C 0.8334(7) 0.7240(4) 0.3523(9)
H11_4 H 0.8114 0.7452 0.3753
C28_4 C 0.9275(7) 0.7165(3) 0.3878(8)
H12_4 H 0.9690 0.7328 0.4346
C29_4 C 0.9597(7) 0.6842(4) 0.3525(8)
C30_4 C 0.9023(8) 0.6619(4) 0.2829(10)
H13_4 H 0.9261 0.6416 0.2583
C31_4 C 0.8051(8) 0.6677(3) 0.2440(9)
H14_4 H 0.7654 0.6513 0.1958
C32_4 C 0.1660(10) 0.8472(4) 0.1860(10)
H15_4 H 0.1302 0.8253 0.1698
C33_4 C 0.2462(10) 0.8957(4) 0.1715(9)
C34_4 C 0.2277(8) 0.8990(3) 0.2627(8)
C35_4 C 0.2965(9) 0.9224(3) 0.1434(9)
H16_4 H 0.3084 0.9200 0.0840
C36_4 C 0.2586(8) 0.9302(3) 0.3260(8)
H17_4 H 0.2432 0.9340 0.3828
C37_4 C 0.3286(9) 0.9533(4) 0.2088(10)
C38_4 C 0.3141(8) 0.9556(4) 0.2993(8)
C39_4 C 0.3916(10) 0.9834(4) 0.2042(11)
C40_4 C 0.3686(8) 0.9901(3) 0.3591(7)
H22_4 H 0.424308 0.846045 0.234483
H23_4 H 0.446414 0.874804 0.156948
H24_4 H 0.0237769 0.812538 0.179937
H25 H 0.947023 0.671649 0.72199
H25_2 H 0.0529772 0.171649 0.77801
H25_3 H 0.0529772 0.328351 0.27801
H25_4 H 0.947023 0.828351 0.22199
loop_
_geom_bond_atom_site_label_1
_geom_bond_atom_site_label_2
_geom_bond_site_symmetry_1
_geom_bond_site_symmetry_2
O3 C16 1_555 1_555
O4 C16 1_555 1_555
Pb7 O3 1_555 1_555
O4 Pb7 1_555 1_555
O7 C48 1_555 1_555
O8 C48 1_555 1_555
Pb5 O7 1_555 1_555
C14 C13 1_555 1_555
H6 C14 1_555 1_555
H7 C15 1_555 1_555
Pb4 O11 1_555 1_555
C14 C15 1_555 1_555
Pb1 O14 1_555 1_555
Pb5 N2 1_555 1_555
Pb3 O13 1_555 1_555
O1 C8 1_555 1_555
O2 C9 1_555 1_555
O5 C25 1_555 1_555
O6 C24 1_555 1_555
O9 C39 1_555 1_555
O10 C40 1_555 1_555
O12 C47 1_555 1_555
N1 Pb1 1_555 1_555
N2 C1 1_555 1_555
N3 C8 1_555 1_555
N4 Pb3 1_555 1_555
N5 Pb5 1_555 1_555
N6 C24 1_555 1_555
N7 Pb3 1_555 1_555
N8 Pb1 1_555 1_555
N9 C39 1_555 1_555
C1 N1 1_555 1_555
H1 C1 1_555 1_555
C2 N2 1_555 1_555
C3 N1 1_555 1_555
C4 C2 1_555 1_555
H2 C4 1_555 1_555
C5 C3 1_555 1_555
H3 C5 1_555 1_555
C6 C4 1_555 1_555
C7 C5 1_555 1_555
C8 C6 1_555 1_555
C9 N3 1_555 1_555
C10 N3 1_555 1_555
C11 C10 1_555 1_555
H4 C11 1_555 1_555
C12 C11 1_555 1_555
H5 C12 1_555 1_555
C17 N4 1_555 1_555
H8 C17 1_555 1_555
C18 N4 1_555 1_555
C19 N5 1_555 1_555
C20 C18 1_555 1_555
H9 C20 1_555 1_555
C21 C19 1_555 1_555
H10 C21 1_555 1_555
C22 C20 1_555 1_555
C23 C21 1_555 1_555
C24 C22 1_555 1_555
C25 N6 1_555 1_555
C26 N6 1_555 1_555
C27 C26 1_555 1_555
H11 C27 1_555 1_555
C28 C27 1_555 1_555
H12 C28 1_555 1_555
C29 C28 1_555 1_555
C30 C29 1_555 1_555
H13 C30 1_555 1_555
C31 C26 1_555 1_555
H14 C31 1_555 1_555
C32 N7 1_555 1_555
H15 C32 1_555 1_555
C33 N7 1_555 1_555
C34 N8 1_555 1_555
C35 C33 1_555 1_555
H16 C35 1_555 1_555
C36 C34 1_555 1_555
H17 C36 1_555 1_555
C37 C35 1_555 1_555
C38 C36 1_555 1_555
C39 C37 1_555 1_555
C40 N9 1_555 1_555
C41 N9 1_555 1_555
C42 C41 1_555 1_555
H18 C42 1_555 1_555
C43 C42 1_555 1_555
H19 C43 1_555 1_555
C44 C43 1_555 1_555
C45 C44 1_555 1_555
H20 C45 1_555 1_555
C46 C41 1_555 1_555
H21 C46 1_555 1_555
C47 C44 1_555 1_555
Pb6 O12 1_555 1_555
O15 Pb5 1_555 1_555
O16 Pb5 1_555 1_555
O18 Pb3 1_555 1_555
O19 Pb3 1_555 1_555
O20 Pb1 1_555 1_555
O21 Pb5 1_555 1_555
N5 C17 1_555 1_555
N8 C32 1_555 1_555
C2 C3 1_555 1_555
C6 C7 1_555 1_555
C7 C9 1_555 1_555
C18 C19 1_555 1_555
C22 C23 1_555 1_555
C23 C25 1_555 1_555
C30 C31 1_555 1_555
C33 C34 1_555 1_555
C37 C38 1_555 1_555
C38 C40 1_555 1_555
C45 C46 1_555 1_555
O13 H22 1_555 1_555
O13 H23 1_555 1_555
O14 H24 1_555 1_555
Pb1_2 O14_2 1_555 1_555
Pb6 N2_2 1_555 1_555
Pb3_2 O13_2 1_555 1_555
O1_2 C8_2 1_555 1_555
O2_2 C9_2 1_555 1_555
O5_2 C25_2 1_555 1_555
O6_2 C24_2 1_555 1_555
O9_2 C39_2 1_555 1_555
N1_2 Pb1_2 1_555 1_555
N2_2 C1_2 1_555 1_555
N3_2 C8_2 1_555 1_555
N4_2 Pb3_2 1_555 1_555
N5_2 Pb6 1_555 1_555
N6_2 C24_2 1_555 1_555
N7_2 Pb3_2 1_555 1_555
N8_2 Pb1_2 1_555 1_555
C1_2 N1_2 1_555 1_555
H1_2 C1_2 1_555 1_555
C2_2 N2_2 1_555 1_555
C3_2 N1_2 1_555 1_555
C4_2 C2_2 1_555 1_555
H2_2 C4_2 1_555 1_555
C5_2 C3_2 1_555 1_555
H3_2 C5_2 1_555 1_555
C6_2 C4_2 1_555 1_555
C7_2 C5_2 1_555 1_555
C8_2 C6_2 1_555 1_555
C9_2 N3_2 1_555 1_555
C10_2 N3_2 1_555 1_555
C11_2 C10_2 1_555 1_555
H4_2 C11_2 1_555 1_555
C12_2 C11_2 1_555 1_555
H5_2 C12_2 1_555 1_555
C13_2 C12_2 1_555 1_555
C14_2 C13_2 1_555 1_555
H6_2 C14_2 1_555 1_555
C15_2 C10_2 1_555 1_555
H7_2 C15_2 1_555 1_555
C17_2 N4_2 1_555 1_555
H8_2 C17_2 1_555 1_555
C18_2 N4_2 1_555 1_555
C19_2 N5_2 1_555 1_555
C20_2 C18_2 1_555 1_555
H9_2 C20_2 1_555 1_555
C21_2 C19_2 1_555 1_555
H10_2 C21_2 1_555 1_555
C22_2 C20_2 1_555 1_555
C23_2 C21_2 1_555 1_555
C24_2 C22_2 1_555 1_555
C25_2 N6_2 1_555 1_555
C26_2 N6_2 1_555 1_555
C27_2 C26_2 1_555 1_555
H11_2 C27_2 1_555 1_555
C28_2 C27_2 1_555 1_555
H12_2 C28_2 1_555 1_555
C29_2 C28_2 1_555 1_555
C30_2 C29_2 1_555 1_555
H13_2 C30_2 1_555 1_555
C31_2 C26_2 1_555 1_555
H14_2 C31_2 1_555 1_555
C32_2 N7_2 1_555 1_555
H15_2 C32_2 1_555 1_555
C33_2 N7_2 1_555 1_555
C34_2 N8_2 1_555 1_555
C35_2 C33_2 1_555 1_555
H16_2 C35_2 1_555 1_555
C36_2 C34_2 1_555 1_555
H17_2 C36_2 1_555 1_555
C37_2 C35_2 1_555 1_555
C38_2 C36_2 1_555 1_555
C39_2 C37_2 1_555 1_555
O15_2 Pb6 1_555 1_555
O16_2 Pb6 1_555 1_555
O17 Pb6 1_555 1_555
O20_2 Pb1_2 1_555 1_555
N5_2 C17_2 1_555 1_555
N8_2 C32_2 1_555 1_555
C2_2 C3_2 1_555 1_555
C6_2 C7_2 1_555 1_555
C7_2 C9_2 1_555 1_555
C14_2 C15_2 1_555 1_555
C18_2 C19_2 1_555 1_555
C22_2 C23_2 1_555 1_555
C23_2 C25_2 1_555 1_555
C30_2 C31_2 1_555 1_555
C33_2 C34_2 1_555 1_555
C37_2 C38_2 1_555 1_555
C38_2 C40_2 1_555 1_555
O13_2 H22_2 1_555 1_555
O13_2 H23_2 1_555 1_555
O14_2 H24_2 1_555 1_555
O11_2 C47_2 1_555 1_555
O21 C47_2 1_555 1_555
C41_2 N9_2 1_555 1_555
C42_2 C41_2 1_555 1_555
H18_2 C42_2 1_555 1_555
C43_2 C42_2 1_555 1_555
H19_2 C43_2 1_555 1_555
C44_2 C43_2 1_555 1_555
C45_2 C44_2 1_555 1_555
H20_2 C45_2 1_555 1_555
C46_2 C41_2 1_555 1_555
H21_2 C46_2 1_555 1_555
C47_2 C44_2 1_555 1_555
Pb4_2 O11_2 1_555 1_555
C45_2 C46_2 1_555 1_555
O3_2 C16_2 1_555 1_555
O4_2 C16_2 1_555 1_555
O17 C48_2 1_555 1_555
O8_2 C48_2 1_555 1_555
Pb7_2 O3_2 1_555 1_555
Pb8_2 O17 1_555 1_555
O4_2 Pb7_2 1_555 1_555
O8_2 Pb8_2 1_555 1_555
Pb4 O14_3 1_555 1_555
Pb7_2 N2_3 1_555 1_555
Pb8_2 O13_3 1_555 1_555
O1_3 C8_3 1_555 1_555
O2_3 C9_3 1_555 1_555
O5_3 C25_3 1_555 1_555
O6_3 C24_3 1_555 1_555
O9_3 C39_3 1_555 1_555
O10_3 C40_3 1_555 1_555
O12_2 C47_3 1_555 1_555
N1_3 Pb4 1_555 1_555
N2_3 C1_3 1_555 1_555
N3_3 C8_3 1_555 1_555
N4_3 Pb8_2 1_555 1_555
N5_3 Pb7_2 1_555 1_555
N6_3 C24_3 1_555 1_555
N7_3 Pb8_2 1_555 1_555
N8_3 Pb4 1_555 1_555
N9_3 C39_3 1_555 1_555
C1_3 N1_3 1_555 1_555
H1_3 C1_3 1_555 1_555
C2_3 N2_3 1_555 1_555
C3_3 N1_3 1_555 1_555
C4_3 C2_3 1_555 1_555
H2_3 C4_3 1_555 1_555
C5_3 C3_3 1_555 1_555
H3_3 C5_3 1_555 1_555
C6_3 C4_3 1_555 1_555
C7_3 C5_3 1_555 1_555
C8_3 C6_3 1_555 1_555
C9_3 N3_3 1_555 1_555
C10_3 N3_3 1_555 1_555
C11_3 C10_3 1_555 1_555
H4_3 C11_3 1_555 1_555
C12_3 C11_3 1_555 1_555
H5_3 C12_3 1_555 1_555
C17_3 N4_3 1_555 1_555
H8_3 C17_3 1_555 1_555
C18_3 N4_3 1_555 1_555
C19_3 N5_3 1_555 1_555
C20_3 C18_3 1_555 1_555
H9_3 C20_3 1_555 1_555
C21_3 C19_3 1_555 1_555
H10_3 C21_3 1_555 1_555
C22_3 C20_3 1_555 1_555
C23_3 C21_3 1_555 1_555
C24_3 C22_3 1_555 1_555
C25_3 N6_3 1_555 1_555
C26_3 N6_3 1_555 1_555
C27_3 C26_3 1_555 1_555
H11_3 C27_3 1_555 1_555
C28_3 C27_3 1_555 1_555
H12_3 C28_3 1_555 1_555
C29_3 C28_3 1_555 1_555
C30_3 C29_3 1_555 1_555
H13_3 C30_3 1_555 1_555
C31_3 C26_3 1_555 1_555
H14_3 C31_3 1_555 1_555
C32_3 N7_3 1_555 1_555
H15_3 C32_3 1_555 1_555
C33_3 N7_3 1_555 1_555
C34_3 N8_3 1_555 1_555
C35_3 C33_3 1_555 1_555
H16_3 C35_3 1_555 1_555
C36_3 C34_3 1_555 1_555
H17_3 C36_3 1_555 1_555
C37_3 C35_3 1_555 1_555
C38_3 C36_3 1_555 1_555
C39_3 C37_3 1_555 1_555
C40_3 N9_3 1_555 1_555
C41_3 N9_3 1_555 1_555
C42_3 C41_3 1_555 1_555
H18_3 C42_3 1_555 1_555
C43_3 C42_3 1_555 1_555
H19_3 C43_3 1_555 1_555
C44_3 C43_3 1_555 1_555
C45_3 C44_3 1_555 1_555
H20_3 C45_3 1_555 1_555
C46_3 C41_3 1_555 1_555
H21_3 C46_3 1_555 1_555
C47_3 C44_3 1_555 1_555
Pb7 O12_2 1_555 1_555
O18_2 Pb7_2 1_555 1_555
O21_2 Pb7_2 1_555 1_555
N5_3 C17_3 1_555 1_555
N8_3 C32_3 1_555 1_555
C2_3 C3_3 1_555 1_555
C6_3 C7_3 1_555 1_555
C7_3 C9_3 1_555 1_555
C18_3 C19_3 1_555 1_555
C22_3 C23_3 1_555 1_555
C23_3 C25_3 1_555 1_555
C30_3 C31_3 1_555 1_555
C33_3 C34_3 1_555 1_555
C37_3 C38_3 1_555 1_555
C38_3 C40_3 1_555 1_555
C45_3 C46_3 1_555 1_555
O13_3 H22_3 1_555 1_555
O13_3 H23_3 1_555 1_555
O14_3 H24_3 1_555 1_555
C14_3 C13_3 1_555 1_555
H6_3 C14_3 1_555 1_555
H7_3 C15_3 1_555 1_555
C14_3 C15_3 1_555 1_555
O18_2 C48_3 1_555 1_555
O19_2 C48_3 1_555 1_555
O15_2 C16_3 1_555 1_555
O16_2 C16_3 1_555 1_555
O15 C16_4 1_555 1_555
O16 C16_4 1_555 1_555
O18 C48_4 1_555 1_555
O19 C48_4 1_555 1_555
Pb7 O18 1_555 1_555
O20_2 C47_4 1_555 1_555
O21_2 C47_4 1_555 1_555
C41_4 N9_4 1_555 1_555
C42_4 C41_4 1_555 1_555
H18_4 C42_4 1_555 1_555
C43_4 C42_4 1_555 1_555
H19_4 C43_4 1_555 1_555
C44_4 C43_4 1_555 1_555
C45_4 C44_4 1_555 1_555
H20_4 C45_4 1_555 1_555
C46_4 C41_4 1_555 1_555
H21_4 C46_4 1_555 1_555
C47_4 C44_4 1_555 1_555
C45_4 C46_4 1_555 1_555
Pb4_2 O14_4 1_555 1_555
Pb7 N2_4 1_555 1_555
Pb8 O13_4 1_555 1_555
O1_4 C8_4 1_555 1_555
O2_4 C9_4 1_555 1_555
O5_4 C25_4 1_555 1_555
O6_4 C24_4 1_555 1_555
O9_4 C39_4 1_555 1_555
N1_4 Pb4_2 1_555 1_555
N2_4 C1_4 1_555 1_555
N3_4 C8_4 1_555 1_555
N4_4 Pb8 1_555 1_555
N5_4 Pb7 1_555 1_555
N6_4 C24_4 1_555 1_555
N7_4 Pb8 1_555 1_555
N8_4 Pb4_2 1_555 1_555
C1_4 N1_4 1_555 1_555
H1_4 C1_4 1_555 1_555
C2_4 N2_4 1_555 1_555
C3_4 N1_4 1_555 1_555
C4_4 C2_4 1_555 1_555
H2_4 C4_4 1_555 1_555
C5_4 C3_4 1_555 1_555
H3_4 C5_4 1_555 1_555
C6_4 C4_4 1_555 1_555
C7_4 C5_4 1_555 1_555
C8_4 C6_4 1_555 1_555
C9_4 N3_4 1_555 1_555
C10_4 N3_4 1_555 1_555
C11_4 C10_4 1_555 1_555
H4_4 C11_4 1_555 1_555
C12_4 C11_4 1_555 1_555
H5_4 C12_4 1_555 1_555
C13_4 C12_4 1_555 1_555
C14_4 C13_4 1_555 1_555
H6_4 C14_4 1_555 1_555
C15_4 C10_4 1_555 1_555
H7_4 C15_4 1_555 1_555
C17_4 N4_4 1_555 1_555
H8_4 C17_4 1_555 1_555
C18_4 N4_4 1_555 1_555
C19_4 N5_4 1_555 1_555
C20_4 C18_4 1_555 1_555
H9_4 C20_4 1_555 1_555
C21_4 C19_4 1_555 1_555
H10_4 C21_4 1_555 1_555
C22_4 C20_4 1_555 1_555
C23_4 C21_4 1_555 1_555
C24_4 C22_4 1_555 1_555
C25_4 N6_4 1_555 1_555
C26_4 N6_4 1_555 1_555
C27_4 C26_4 1_555 1_555
H11_4 C27_4 1_555 1_555
C28_4 C27_4 1_555 1_555
H12_4 C28_4 1_555 1_555
C29_4 C28_4 1_555 1_555
C30_4 C29_4 1_555 1_555
H13_4 C30_4 1_555 1_555
C31_4 C26_4 1_555 1_555
H14_4 C31_4 1_555 1_555
C32_4 N7_4 1_555 1_555
H15_4 C32_4 1_555 1_555
C33_4 N7_4 1_555 1_555
C34_4 N8_4 1_555 1_555
C35_4 C33_4 1_555 1_555
H16_4 C35_4 1_555 1_555
C36_4 C34_4 1_555 1_555
H17_4 C36_4 1_555 1_555
C37_4 C35_4 1_555 1_555
C38_4 C36_4 1_555 1_555
C39_4 C37_4 1_555 1_555
N5_4 C17_4 1_555 1_555
N8_4 C32_4 1_555 1_555
C2_4 C3_4 1_555 1_555
C6_4 C7_4 1_555 1_555
C7_4 C9_4 1_555 1_555
C14_4 C15_4 1_555 1_555
C18_4 C19_4 1_555 1_555
C22_4 C23_4 1_555 1_555
C23_4 C25_4 1_555 1_555
C30_4 C31_4 1_555 1_555
C33_4 C34_4 1_555 1_555
C37_4 C38_4 1_555 1_555
C38_4 C40_4 1_555 1_555
O13_4 H22_4 1_555 1_555
O13_4 H23_4 1_555 1_555
O14_4 H24_4 1_555 1_555

#END
