
###############################################################################
#
# This file contains modified crystal structure data generated from the
# MOF subset of the Cambridge Structural Database (CSD) v543 
# hosted by the Cambridge Crystallographic Data Centre (CCDC).
#
# This work is licensed under the Creative Commons
# Attribution-NonCommercial-ShareAlike 4.0 International License.
# To view a copy of this license, visit
# http://creativecommons.org/licenses/by-nc-sa/4.0/
# or send a letter to
# Creative Commons, PO Box 1866, Mountain View, CA 94042, USA.
#
# CIF created using the CSD Python API on 29 September 2022
# The structure has been converted into the P1 space group
# The structure has a 3D framework
# The original CSD entry FALDAA is in the monoclinic crystal system
# The framework has been calculated to contain at least 10.0% void space
# The void calculation uses a probe of radius 1.32A, grid spacing 0.4
#
###############################################################################

data_FALDAA
_chemical_formula_moiety         '(C186 H184 Cd6 N16 O44)n'
_symmetry_cell_setting           triclinic
_symmetry_space_group_name_H-M   'P 1'
_symmetry_Int_Tables_number      1
_space_group_name_Hall           'P 1'
loop_
_symmetry_equiv_pos_site_id
_symmetry_equiv_pos_as_xyz
1 x,y,z
_cell_length_a                   9.3663(7)
_cell_length_b                   34.9276(16)
_cell_length_c                   17.1862(13)
_cell_angle_alpha                90
_cell_angle_beta                 99.356(2)
_cell_angle_gamma                90
_cell_volume                     5547.54
loop_
_atom_site_label
_atom_site_type_symbol
_atom_site_fract_x
_atom_site_fract_y
_atom_site_fract_z
H30 H 0.5487 0.0086 0.0771
C1 C 0.3294(4) 0.01798(12) 0.5469(2)
C3 C 0.1293(4) 0.01124(12) 0.4387(2)
C4 C 0.1132(4) 0.05068(12) 0.4363(2)
C5 C 0.1998(4) 0.07323(12) 0.4912(2)
C6 C 0.3051(4) 0.05702(12) 0.5480(2)
C7 C 0.3928(4) 0.08270(12) 0.6115(2)
H1 H 0.4498 0.0669 0.6505
H2 H 0.3277 0.0980 0.6361
H3 H 0.4554 0.0991 0.5874
C8 C 0.4532(4) 0.00001(12) 0.6014(2)
H5 H 0.5274 0.0189 0.6188
H13 H 0.0264 0.0689 0.3240
C12 C 0.1795(5) 0.11695(13) 0.4887(3)
H14 H 0.2652 0.1305 0.5140
H15 H 0.1502 0.1265 0.4355
C27 C 0.0086(5) 0.15547(12) 0.5522(2)
C32 C 0.0361(4) 0.18732(11) 0.5087(2)
H27 H 0.1048 0.1861 0.4753
O9 O 0.0589(3) 0.11838(8) 0.53646(16)
C34 C 0.5445(5) 0.91981(13) 0.0509(3)
H28 H 0.6267 0.9198 0.0270
C35 C 0.6073(5) 0.98650(13) 0.0928(3)
H29 H 0.6547 0.9896 0.1463
H31 H 0.6786 0.9837 0.0589
C36 C 0.3863(5) 0.95426(14) 0.1268(3)
H32 H 0.3006 0.9572 0.0883
H33 H 0.3968 0.9759 0.1616
H34 H 0.3787 0.9313 0.1567
C37 C 0.5901(6) 0.78917(15) 0.1775(3)
H35 H 0.6660 0.7745 0.1648
C38 C 0.4748(6) 0.81872(15) 0.2747(3)
H36 H 0.4955 0.8455 0.2707
H37 H 0.4635 0.8128 0.3279
H38 H 0.3870 0.8126 0.2397
C39 C 0.7094(6) 0.78294(15) 0.3187(3)
H39 H 0.7545 0.7601 0.3034
H40 H 0.6657 0.7778 0.3644
H41 H 0.7809 0.8027 0.3308
H42 H 0.2446 0.8142 0.0253
Cd1 Cd 0.57087(3) 0.831992(9) 0.014669(17)
N1 N 0.5134(4) 0.95157(10) 0.0867(2)
N2 N 0.5959(4) 0.79585(11) 0.2527(2)
O10 O 0.4710(3) 0.88999(8) 0.04712(17)
O11 O 0.5003(3) 0.79910(9) 0.12074(17)
O14 O 0.7587(3) 0.84939(9) 0.10320(16)
C2 C 0.2377(4) 0.99475(12) 0.4939(2)
C8_2 C 0.4532(4) 1.00001(12) 0.6014(2)
H4 H 0.4958 0.9795 0.5748
C9 C 0.2609(5) 0.95099(12) 0.4970(3)
H6 H 0.3323 0.9446 0.5418
H7 H 0.2936 0.9427 0.4496
H8 H 0.1713 0.9385 0.5015
C10 C 0.0289(5) 0.98551(13) 0.3844(2)
C13 C 0.4779(4) 0.95989(12) 0.7156(2)
C14 C 0.4129(4) 0.94020(12) 0.7702(2)
H16 H 0.3161 0.9446 0.7734
C15 C 0.4913(4) 0.91407(12) 0.8198(2)
H17 H 0.4484 0.9020 0.8584
C16 C 0.6338(4) 0.90550(11) 0.8130(2)
C17 C 0.6959(5) 0.92456(12) 0.7592(2)
H18 H 0.7909 0.9188 0.7542
C18 C 0.6214(4) 0.95284(12) 0.7102(3)
H19 H 0.6675 0.9665 0.6750
C19 C 0.7165(4) 0.87644(12) 0.8643(2)
C20 C 0.0558(4) 0.94147(13) 0.2797(2)
C21 C 0.1493(5) 0.92258(12) 0.2377(2)
H20 H 0.2478 0.9281 0.2471
C22 C 0.0952(4) 0.89545(12) 0.1815(2)
H21 H 0.1577 0.8827 0.1535
C40 C 0.2462(4) 0.81499(12) 0.9713(2)
C41 C 0.1744(5) 0.81657(12) 0.8459(2)
C42 C 0.1001(5) 0.81963(13) 0.7673(3)
C43 C 0.1809(5) 0.81952(13) 0.7061(3)
H44 H 0.1336 0.8207 0.6542
C44 C 0.3369(5) 0.81753(13) 0.7220(3)
H45 H 0.3892 0.8177 0.6804
C45 C 0.4092(5) 0.81533(13) 0.7993(2)
H46 H 0.5095 0.8134 0.8104
C46 C 0.3263(4) 0.81611(11) 0.8595(2)
N3 N 0.3703(3) 0.81510(10) 0.94063(19)
N4 N 0.1241(4) 0.81605(10) 0.9168(2)
O1 O 0.6705(3) 0.86577(9) 0.92475(17)
O2 O 0.8320(3) 0.86450(8) 0.84792(15)
O3 O 0.3927(3) 0.98491(8) 0.66920(16)
O6 O 0.1211(3) 0.96855(8) 0.33098(16)
Cd6 Cd 0.90322(3) 0.820658(9) 0.940282(17)
O16 O 0.7244(3) 0.78369(8) 0.98452(16)
H10 H 0.9501 0.0001 0.3548
C11 C 0.9962(5) 0.06939(13) 0.3748(2)
H11 H 0.9821 0.0955 0.3896
H12 H 0.9070 0.0555 0.3724
C28 C 0.9189(5) 0.15891(13) 0.6079(3)
H24 H 0.9079 0.1386 0.6414
C29 C 0.8451(5) 0.19295(13) 0.6136(3)
H25 H 0.7838 0.1953 0.6508
C30 C 0.8616(5) 0.22352(12) 0.5641(3)
C31 C 0.9609(4) 0.22080(11) 0.5153(2)
H26 H 0.9789 0.2420 0.4855
C33 C 0.7726(5) 0.25857(12) 0.5681(3)
O7 O 0.7756(3) 0.28369(8) 0.51548(16)
O8 O 0.6948(3) 0.26233(8) 0.61875(17)
Cd4 Cd 0.92913(3) 0.331992(9) 0.485331(17)
Cd7 Cd 0.59678(3) 0.320658(9) 0.559718(17)
H9 H 0.9887 0.9657 0.4140
C23 C 0.9477(4) 0.88728(12) 0.1671(2)
C24 C 0.8572(4) 0.90584(12) 0.2119(2)
H22 H 0.7592 0.8999 0.2042
C25 C 0.9115(4) 0.93307(12) 0.2677(2)
H23 H 0.8500 0.9455 0.2968
C26 C 0.8848(4) 0.85997(12) 0.1028(2)
H43 H 0.9998 0.8217 0.7569
O4 O 0.9668(3) 0.84961(8) 0.05701(16)
O17 O 0.8052(3) 0.76233(8) 0.88125(17)
C2_2 C 0.2623(4) 0.49475(12) 0.0061(2)
C3_2 C 0.3707(4) 0.51124(12) 0.0613(2)
C4_2 C 0.3868(4) 0.55068(12) 0.0637(2)
C5_2 C 0.3002(4) 0.57323(12) 0.0088(2)
C9_2 C 0.2391(5) 0.45099(12) 0.0030(3)
H7_2 H 0.2064 0.4427 0.0504
C10_2 C 0.4711(5) 0.48551(13) 0.1156(2)
H9_2 H 0.5113 0.4657 0.0860
H10_2 H 0.5499 0.5001 0.1452
C11_2 C 0.5038(5) 0.56939(13) 0.1252(2)
H11_2 H 0.5179 0.5955 0.1104
H12_2 H 0.5930 0.5555 0.1276
H13_2 H 0.4736 0.5689 0.1760
C12_2 C 0.3205(5) 0.61695(13) 0.0113(3)
H15_2 H 0.3498 0.6265 0.0645
C20_2 C 0.4442(4) 0.44147(13) 0.2203(2)
C21_2 C 0.3507(5) 0.42258(12) 0.2623(2)
H20_2 H 0.2522 0.4281 0.2529
C22_2 C 0.4048(4) 0.39545(12) 0.3185(2)
H21_2 H 0.3423 0.3827 0.3465
C23_2 C 0.5523(4) 0.38728(12) 0.3329(2)
C24_2 C 0.6428(4) 0.40584(12) 0.2881(2)
H22_2 H 0.7408 0.3999 0.2958
C25_2 C 0.5885(4) 0.43307(12) 0.2323(2)
H23_2 H 0.6500 0.4455 0.2032
C26_2 C 0.6152(4) 0.35997(12) 0.3972(2)
H26_2 H 0.5211 0.7420 0.0145
H27_2 H 0.3952 0.6861 0.0247
O4_2 O 0.5332(3) 0.34961(8) 0.44299(16)
O5 O 0.7413(3) 0.34939(9) 0.39680(16)
O6_2 O 0.3789(3) 0.46855(8) 0.16902(16)
N5 N 0.3759(4) 0.31605(10) 0.5832(2)
O12 O 0.8295(3) 0.36577(9) 0.57525(17)
O13 O 0.6680(3) 0.36450(8) 0.65208(15)
C1_2 C 0.1706(4) 0.51798(12) 0.9531(2)
C6_2 C 0.1949(4) 0.55702(12) 0.9520(2)
C7_2 C 0.1072(4) 0.58270(12) 0.8885(2)
H1_2 H 0.0502 0.5669 0.8495
H2_2 H 0.1723 0.5980 0.8639
H3_2 H 0.0446 0.5991 0.9126
C8_3 C 0.0468(4) 0.50001(12) 0.8986(2)
H4_2 H 0.0042 0.4795 0.9252
H6_2 H 0.1677 0.4446 0.9582
H8_2 H 0.3287 0.4385 0.9985
H14_2 H 0.2348 0.6305 0.9860
C13_2 C 0.0221(4) 0.45989(12) 0.7844(2)
C14_2 C 0.0871(4) 0.44020(12) 0.7298(2)
H16_2 H 0.1839 0.4446 0.7266
C15_2 C 0.0087(4) 0.41407(12) 0.6802(2)
H17_2 H 0.0516 0.4020 0.6416
C27_2 C 0.4914(5) 0.65547(12) 0.9478(2)
C28_2 C 0.5811(5) 0.65891(13) 0.8921(3)
H24_2 H 0.5921 0.6386 0.8586
C29_2 C 0.6549(5) 0.69295(13) 0.8864(3)
H25_2 H 0.7162 0.6953 0.8492
C30_2 C 0.6384(5) 0.72352(12) 0.9359(3)
C31_2 C 0.5391(4) 0.72080(11) 0.9847(2)
C32_2 C 0.4639(4) 0.68732(11) 0.9913(2)
C33_2 C 0.7274(5) 0.75857(12) 0.9319(3)
C36_2 C 0.1137(5) 0.45426(14) 0.3732(3)
H32_2 H 0.1994 0.4572 0.4117
H33_2 H 0.1032 0.4759 0.3384
H34_2 H 0.1213 0.4313 0.3433
C38_2 C 0.0252(6) 0.31872(15) 0.2253(3)
H36_2 H 0.0045 0.3455 0.2293
H37_2 H 0.0365 0.3128 0.1721
H38_2 H 0.1130 0.3126 0.2603
C40_2 C 0.2538(4) 0.31499(12) 0.5287(2)
H42_2 H 0.2554 0.3142 0.4747
C41_2 C 0.3256(5) 0.31657(12) 0.6541(2)
C42_2 C 0.3999(5) 0.31963(13) 0.7327(3)
H43_2 H 0.5002 0.3217 0.7431
C43_2 C 0.3191(5) 0.31952(13) 0.7939(3)
H44_2 H 0.3664 0.3207 0.8458
C44_2 C 0.1631(5) 0.31753(13) 0.7780(3)
H45_2 H 0.1108 0.3177 0.8196
C45_2 C 0.0908(5) 0.31533(13) 0.7007(2)
C46_2 C 0.1737(4) 0.31611(11) 0.6405(2)
N3_2 N 0.1297(3) 0.31510(10) 0.55937(19)
O3_2 O 0.1073(3) 0.48491(8) 0.83080(16)
O9_2 O 0.4411(3) 0.61838(8) 0.96354(16)
O10_2 O 0.0290(3) 0.38999(8) 0.45288(17)
H5_2 H 0.9726 0.5189 0.8812
C16_2 C 0.8662(4) 0.40550(11) 0.6870(2)
C17_2 C 0.8041(5) 0.42456(12) 0.7408(2)
H18_2 H 0.7091 0.4188 0.7458
C18_2 C 0.8786(4) 0.45284(12) 0.7898(3)
H19_2 H 0.8325 0.4665 0.8250
C19_2 C 0.7835(4) 0.37644(12) 0.6357(2)
C34_2 C 0.9555(5) 0.41981(13) 0.4491(3)
H28_2 H 0.8733 0.4198 0.4730
C35_2 C 0.8927(5) 0.48650(13) 0.4072(3)
H29_2 H 0.8453 0.4896 0.3537
H30_2 H 0.9513 0.5086 0.4229
H31_2 H 0.8214 0.4837 0.4411
C37_2 C 0.9099(6) 0.28917(15) 0.3225(3)
H35_2 H 0.8340 0.2745 0.3352
C39_2 C 0.7906(6) 0.28294(15) 0.1813(3)
H39_2 H 0.7455 0.2601 0.1966
H40_2 H 0.8343 0.2778 0.1356
H41_2 H 0.7191 0.3027 0.1692
H46_2 H 0.9905 0.3134 0.6896
N1_2 N 0.9866(4) 0.45157(10) 0.4133(2)
N2_2 N 0.9041(4) 0.29585(11) 0.2473(2)
O11_2 O 0.9997(3) 0.29910(9) 0.37926(17)
Cd2 Cd 0.09678(3) 0.179342(9) 0.059718(17)
O12_2 O 0.3295(3) 0.13423(9) 0.07525(17)
O13_2 O 0.1680(3) 0.13550(8) 0.15208(15)
O15 O 0.2756(3) 0.21631(8) 0.01548(16)
O17_2 O 0.1948(3) 0.23767(8) 0.11875(17)
H9_3 H 0.0113 0.0343 0.5860
C23_3 C 0.0523(4) 0.11272(12) 0.8329(2)
C24_3 C 0.1428(4) 0.09416(12) 0.7881(2)
H22_3 H 0.2408 0.1001 0.7958
C25_3 C 0.0885(4) 0.06693(12) 0.7323(2)
H23_3 H 0.1500 0.0545 0.7032
C26_3 C 0.1152(4) 0.14003(12) 0.8972(2)
H43_3 H 0.0002 0.1783 0.2431
O4_3 O 0.0332(3) 0.15039(8) 0.94299(16)
O5_2 O 0.2413(3) 0.15061(9) 0.89680(16)
Cd3 Cd 0.42913(3) 0.168008(9) 0.985331(17)
H10_3 H 0.0499 0.9999 0.6452
C11_3 C 0.0038(5) 0.93061(13) 0.6252(2)
H11_3 H 0.0179 0.9045 0.6104
H12_3 H 0.0930 0.9445 0.6276
C28_3 C 0.0811(5) 0.84109(13) 0.3921(3)
H24_3 H 0.0921 0.8614 0.3586
C29_3 C 0.1549(5) 0.80705(13) 0.3864(3)
H25_3 H 0.2162 0.8047 0.3492
C30_3 C 0.1384(5) 0.77648(12) 0.4359(3)
C31_3 C 0.0391(4) 0.77920(11) 0.4847(2)
H26_3 H 0.0211 0.7580 0.5145
C33_3 C 0.2274(5) 0.74143(12) 0.4319(3)
O7_2 O 0.2244(3) 0.71631(8) 0.48452(16)
O8_2 O 0.3052(3) 0.73767(8) 0.38125(17)
Cd4_2 Cd 0.07087(3) 0.668008(9) 0.514669(17)
Cd7_2 Cd 0.40322(3) 0.679342(9) 0.440282(17)
N5_2 N 0.8759(4) 0.18395(10) 0.0832(2)
C2_3 C 0.7623(4) 0.00525(12) 0.5061(2)
C8_4 C 0.5468(4) -0.00001(12) 0.3986(2)
H4_3 H 0.5042 0.0205 0.4252
C9_3 C 0.7391(5) 0.04901(12) 0.5030(3)
H6_3 H 0.6677 0.0554 0.4582
H7_3 H 0.7064 0.0573 0.5504
H8_3 H 0.8287 0.0615 0.4985
C10_3 C 0.9711(5) 0.01449(13) 0.6156(2)
C13_3 C 0.5221(4) 0.04011(12) 0.2844(2)
C14_3 C 0.5871(4) 0.05980(12) 0.2298(2)
H16_3 H 0.6839 0.0554 0.2266
C15_3 C 0.5087(4) 0.08593(12) 0.1802(2)
H17_3 H 0.5516 0.0980 0.1416
C16_3 C 0.3662(4) 0.09450(11) 0.1870(2)
C17_3 C 0.3041(5) 0.07544(12) 0.2408(2)
H18_3 H 0.2091 0.0812 0.2458
C18_3 C 0.3786(4) 0.04716(12) 0.2898(3)
H19_3 H 0.3325 0.0335 0.3250
C19_3 C 0.2835(4) 0.12356(12) 0.1357(2)
C20_3 C 0.9442(4) 0.05853(13) 0.7203(2)
C21_3 C 0.8507(5) 0.07742(12) 0.7623(2)
H20_3 H 0.7522 0.0719 0.7529
C22_3 C 0.9048(4) 0.10455(12) 0.8185(2)
H21_3 H 0.8423 0.1173 0.8465
C40_3 C 0.7538(4) 0.18501(12) 0.0287(2)
C41_3 C 0.8256(5) 0.18343(12) 0.1541(2)
C42_3 C 0.8999(5) 0.18037(13) 0.2327(3)
C43_3 C 0.8191(5) 0.18048(13) 0.2939(3)
H44_3 H 0.8664 0.1793 0.3458
C44_3 C 0.6631(5) 0.18247(13) 0.2780(3)
H45_3 H 0.6108 0.1823 0.3196
C45_3 C 0.5908(5) 0.18467(13) 0.2007(2)
H46_3 H 0.4905 0.1866 0.1896
C46_3 C 0.6737(4) 0.18389(11) 0.1405(2)
N3_3 N 0.6297(3) 0.18490(10) 0.05937(19)
O3_3 O 0.6073(3) 0.01509(8) 0.33080(16)
O6_3 O 0.8789(3) 0.03145(8) 0.66902(16)
C34_3 C 0.4555(5) 0.08019(13) 0.9491(3)
H28_3 H 0.3733 0.0802 0.9730
C35_3 C 0.3927(5) 0.01350(13) 0.9072(3)
H29_3 H 0.3453 0.0104 0.8537
H31_3 H 0.3214 0.0163 0.9411
C36_3 C 0.6137(5) 0.04574(14) 0.8732(3)
H32_3 H 0.6994 0.0428 0.9117
H33_3 H 0.6032 0.0241 0.8384
H34_3 H 0.6213 0.0687 0.8433
C37_3 C 0.4099(6) 0.21083(15) 0.8225(3)
H35_3 H 0.3340 0.2255 0.8352
C38_3 C 0.5252(6) 0.18128(15) 0.7253(3)
H36_3 H 0.5045 0.1545 0.7293
H37_3 H 0.5365 0.1872 0.6721
H38_3 H 0.6130 0.1874 0.7603
C39_3 C 0.2906(6) 0.21706(15) 0.6813(3)
H39_3 H 0.2455 0.2399 0.6966
H40_3 H 0.3343 0.2222 0.6356
H41_3 H 0.2191 0.1973 0.6692
H42_3 H 0.7554 0.1858 0.9747
N1_3 N 0.4866(4) 0.04843(10) 0.9133(2)
N2_3 N 0.4041(4) 0.20415(11) 0.7473(2)
O10_3 O 0.5290(3) 0.11001(8) 0.95288(17)
O11_3 O 0.4997(3) 0.20090(9) 0.87926(17)
H5_3 H 0.0274 0.4811 0.1188
C16_4 C 0.1338(4) 0.59450(11) 0.3130(2)
C17_4 C 0.1959(5) 0.57544(12) 0.2592(2)
H18_4 H 0.2909 0.5812 0.2542
C18_4 C 0.1214(4) 0.54716(12) 0.2102(3)
H19_4 H 0.1675 0.5335 0.1750
C19_4 C 0.2165(4) 0.62356(12) 0.3643(2)
C34_4 C 0.0445(5) 0.58019(13) 0.5509(3)
H28_4 H 0.1267 0.5802 0.5270
C35_4 C 0.1073(5) 0.51350(13) 0.5928(3)
H29_4 H 0.1547 0.5104 0.6463
H30_3 H 0.0487 0.4914 0.5771
H31_4 H 0.1786 0.5163 0.5589
C37_4 C 0.0901(6) 0.71083(15) 0.6775(3)
H35_4 H 0.1660 0.7255 0.6648
C39_4 C 0.2094(6) 0.71706(15) 0.8187(3)
H39_4 H 0.2545 0.7399 0.8034
H40_4 H 0.1657 0.7222 0.8644
H41_4 H 0.2809 0.6973 0.8308
H46_4 H 0.0095 0.6866 0.3104
N1_4 N 0.0134(4) 0.54843(10) 0.5867(2)
N2_4 N 0.0959(4) 0.70415(11) 0.7527(2)
O1_2 O 0.1705(3) 0.63423(9) 0.42475(17)
O2_2 O 0.3320(3) 0.63550(8) 0.34792(15)
O11_4 O 0.0003(3) 0.70090(9) 0.62074(17)
O14_2 O 0.2587(3) 0.65061(9) 0.60320(16)
C1_3 C 0.8294(4) 0.48202(12) 0.0469(2)
C6_3 C 0.8051(4) 0.44298(12) 0.0480(2)
C7_3 C 0.8928(4) 0.41730(12) 0.1115(2)
H1_3 H 0.9498 0.4331 0.1505
H2_3 H 0.8277 0.4020 0.1361
H3_3 H 0.9554 0.4009 0.0874
C8_5 C 0.9532(4) 0.49999(12) 0.1014(2)
H4_4 H 0.9958 0.5205 0.0748
H6_4 H 0.8323 0.5554 0.0418
H8_4 H 0.6713 0.5615 0.0015
H14_3 H 0.7652 0.3695 0.0140
C13_4 C 0.9779(4) 0.54011(12) 0.2156(2)
C14_4 C 0.9129(4) 0.55980(12) 0.2702(2)
H16_4 H 0.8161 0.5554 0.2734
C15_4 C 0.9913(4) 0.58593(12) 0.3198(2)
H17_4 H 0.9484 0.5980 0.3584
C27_3 C 0.5086(5) 0.34453(12) 0.0522(2)
C28_4 C 0.4189(5) 0.34109(13) 0.1079(3)
H24_4 H 0.4079 0.3614 0.1414
C29_4 C 0.3451(5) 0.30705(13) 0.1136(3)
H25_4 H 0.2838 0.3047 0.1508
C30_4 C 0.3616(5) 0.27648(12) 0.0641(3)
C31_4 C 0.4609(4) 0.27920(11) 0.0153(2)
C32_3 C 0.5361(4) 0.31268(11) 0.0087(2)
C33_4 C 0.2726(5) 0.24143(12) 0.0681(3)
C36_4 C 0.8863(5) 0.54574(14) 0.6268(3)
H32_4 H 0.8006 0.5428 0.5883
H33_4 H 0.8968 0.5241 0.6616
H34_4 H 0.8787 0.5687 0.6567
C38_4 C 0.9748(6) 0.68128(15) 0.7747(3)
H36_4 H 0.9955 0.6545 0.7707
H37_4 H 0.9635 0.6872 0.8279
H38_4 H 0.8870 0.6874 0.7397
C40_4 C 0.7462(4) 0.68501(12) 0.4713(2)
H42_4 H 0.7446 0.6858 0.5253
C41_4 C 0.6744(5) 0.68343(12) 0.3459(2)
C42_4 C 0.6001(5) 0.68037(13) 0.2673(3)
H43_4 H 0.4998 0.6783 0.2569
C43_4 C 0.6809(5) 0.68048(13) 0.2061(3)
H44_4 H 0.6336 0.6793 0.1542
C44_4 C 0.8369(5) 0.68247(13) 0.2220(3)
H45_4 H 0.8892 0.6823 0.1804
C45_4 C 0.9092(5) 0.68467(13) 0.2993(2)
C46_4 C 0.8263(4) 0.68389(11) 0.3595(2)
N3_4 N 0.8703(3) 0.68490(10) 0.44063(19)
N4_2 N 0.6241(4) 0.68395(10) 0.4168(2)
O3_4 O 0.8927(3) 0.51509(8) 0.16920(16)
O9_3 O 0.5589(3) 0.38162(8) 0.03646(16)
O10_4 O 0.9710(3) 0.61001(8) 0.54712(17)
C2_4 C 0.7377(4) 0.50525(12) 0.9939(2)
C3_3 C 0.6293(4) 0.48876(12) 0.9387(2)
C4_3 C 0.6132(4) 0.44932(12) 0.9363(2)
C5_3 C 0.6998(4) 0.42677(12) 0.9912(2)
C9_4 C 0.7609(5) 0.54901(12) 0.9970(3)
H7_4 H 0.7936 0.5573 0.9496
C10_4 C 0.5289(5) 0.51449(13) 0.8844(2)
H9_4 H 0.4887 0.5343 0.9140
H10_4 H 0.4501 0.4999 0.8548
C11_4 C 0.4962(5) 0.43061(13) 0.8748(2)
H11_4 H 0.4821 0.4045 0.8896
H12_4 H 0.4070 0.4445 0.8724
H13_3 H 0.5264 0.4311 0.8240
C12_3 C 0.6795(5) 0.38305(13) 0.9887(3)
H15_3 H 0.6502 0.3735 0.9355
C20_4 C 0.5558(4) 0.55853(13) 0.7797(2)
C21_4 C 0.6493(5) 0.57742(12) 0.7377(2)
H20_4 H 0.7478 0.5719 0.7471
C22_4 C 0.5952(4) 0.60455(12) 0.6815(2)
H21_4 H 0.6577 0.6173 0.6535
C23_4 C 0.4477(4) 0.61272(12) 0.6671(2)
C24_4 C 0.3572(4) 0.59416(12) 0.7119(2)
H22_4 H 0.2592 0.6001 0.7042
C25_4 C 0.4115(4) 0.56693(12) 0.7677(2)
H23_4 H 0.3500 0.5545 0.7968
C26_4 C 0.3848(4) 0.64003(12) 0.6028(2)
H26_4 H 0.4789 0.2580 0.9855
H27_3 H 0.6048 0.3139 0.9753
O4_4 O 0.4668(3) 0.65039(8) 0.55701(16)
O6_4 O 0.6211(3) 0.53145(8) 0.83098(16)
C1_4 C 0.6706(4) 0.98202(12) 0.4531(2)
C3_4 C 0.8707(4) 0.98876(12) 0.5613(2)
C4_4 C 0.8868(4) 0.94932(12) 0.5637(2)
C5_4 C 0.8002(4) 0.92677(12) 0.5088(2)
C6_4 C 0.6949(4) 0.94298(12) 0.4520(2)
C7_4 C 0.6072(4) 0.91730(12) 0.3885(2)
H1_4 H 0.5502 0.9331 0.3495
H2_4 H 0.6723 0.9020 0.3639
H3_4 H 0.5446 0.9009 0.4126
C8_6 C 0.5468(4) 0.99999(12) 0.3986(2)
H5_4 H 0.4726 0.9811 0.3812
H13_4 H 0.9736 0.9311 0.6760
C12_4 C 0.8205(5) 0.88305(13) 0.5113(3)
H14_4 H 0.7348 0.8695 0.4860
H15_4 H 0.8498 0.8735 0.5645
C27_4 C 0.9914(5) 0.84453(12) 0.4478(2)
C32_4 C 0.9639(4) 0.81268(11) 0.4913(2)
H27_4 H 0.8952 0.8139 0.5247
O9_4 O 0.9411(3) 0.88162(8) 0.46354(16)
H30_4 H 0.4513 0.9914 0.9229
loop_
_geom_bond_atom_site_label_1
_geom_bond_atom_site_label_2
_geom_bond_site_symmetry_1
_geom_bond_site_symmetry_2
C3 C4 1_555 1_555
C4 C5 1_555 1_555
C5 C6 1_555 1_555
C6 C1 1_555 1_555
C7 C6 1_555 1_555
H1 C7 1_555 1_555
H2 C7 1_555 1_555
H3 C7 1_555 1_555
C8 C1 1_555 1_555
H5 C8 1_555 1_555
C12 C5 1_555 1_555
H14 C12 1_555 1_555
H15 C12 1_555 1_555
C32 C27 1_555 1_555
H27 C32 1_555 1_555
O9 C12 1_555 1_555
C27 O9 1_555 1_555
C34 H28 1_555 1_555
C35 H29 1_555 1_555
H31 C35 1_555 1_555
C36 H32 1_555 1_555
H33 C36 1_555 1_555
H34 C36 1_555 1_555
C37 H35 1_555 1_555
C38 H36 1_555 1_555
H37 C38 1_555 1_555
H38 C38 1_555 1_555
C39 H39 1_555 1_555
H40 C39 1_555 1_555
H41 C39 1_555 1_555
N1 C34 1_555 1_555
N2 C37 1_555 1_555
O10 C34 1_555 1_555
O11 C37 1_555 1_555
O14 Cd1 1_555 1_555
C35 N1 1_555 1_555
C36 N1 1_555 1_555
C38 N2 1_555 1_555
C39 N2 1_555 1_555
Cd1 O10 1_555 1_555
Cd1 O11 1_555 1_555
H4 C8_2 1_555 1_555
C9 C2 1_555 1_555
H6 C9 1_555 1_555
H7 C9 1_555 1_555
H8 C9 1_555 1_555
C13 C14 1_555 1_555
C14 H16 1_555 1_555
C15 C14 1_555 1_555
H17 C15 1_555 1_555
C16 C15 1_555 1_555
C17 C16 1_555 1_555
H18 C17 1_555 1_555
C18 C13 1_555 1_555
H19 C18 1_555 1_555
C19 C16 1_555 1_555
C20 C21 1_555 1_555
C21 H20 1_555 1_555
C22 C21 1_555 1_555
H21 C22 1_555 1_555
C41 C42 1_555 1_555
C43 C42 1_555 1_555
H44 C43 1_555 1_555
C44 C43 1_555 1_555
H45 C44 1_555 1_555
C45 C44 1_555 1_555
H46 C45 1_555 1_555
C46 C41 1_555 1_555
N3 C40 1_555 1_555
N4 C40 1_555 1_555
O1 C19 1_555 1_555
O2 C19 1_555 1_555
O3 C8_2 1_555 1_555
O6 C10 1_555 1_555
Cd6 O1 1_555 1_555
C13 O3 1_555 1_555
C17 C18 1_555 1_555
C20 O6 1_555 1_555
C41 N4 1_555 1_555
C45 C46 1_555 1_555
C46 N3 1_555 1_555
O2 Cd6 1_555 1_555
Cd6 O16 1_555 1_555
H11 C11 1_555 1_555
H12 C11 1_555 1_555
C28 H24 1_555 1_555
C29 C28 1_555 1_555
H25 C29 1_555 1_555
C30 C29 1_555 1_555
C31 C30 1_555 1_555
H26 C31 1_555 1_555
C33 C30 1_555 1_555
O7 C33 1_555 1_555
O8 C33 1_555 1_555
Cd4 O7 1_555 1_555
Cd7 O7 1_555 1_555
O8 Cd7 1_555 1_555
C24 C23 1_555 1_555
H22 C24 1_555 1_555
H23 C25 1_555 1_555
C26 C23 1_555 1_555
O4 C26 1_555 1_555
O14 C26 1_555 1_555
C24 C25 1_555 1_555
O17 Cd6 1_555 1_555
C2_2 C3_2 1_555 1_555
C3_2 C4_2 1_555 1_555
C4_2 C5_2 1_555 1_555
C9_2 C2_2 1_555 1_555
H7_2 C9_2 1_555 1_555
C10_2 C3_2 1_555 1_555
H9_2 C10_2 1_555 1_555
H10_2 C10_2 1_555 1_555
C11_2 C4_2 1_555 1_555
H11_2 C11_2 1_555 1_555
H12_2 C11_2 1_555 1_555
H13_2 C11_2 1_555 1_555
C12_2 C5_2 1_555 1_555
H15_2 C12_2 1_555 1_555
C20_2 C21_2 1_555 1_555
C21_2 H20_2 1_555 1_555
C22_2 C21_2 1_555 1_555
H21_2 C22_2 1_555 1_555
C23_2 C22_2 1_555 1_555
C24_2 C23_2 1_555 1_555
H22_2 C24_2 1_555 1_555
C25_2 C20_2 1_555 1_555
H23_2 C25_2 1_555 1_555
C26_2 C23_2 1_555 1_555
Cd7 O4_2 1_555 1_555
O4_2 C26_2 1_555 1_555
O5 C26_2 1_555 1_555
O6_2 C10_2 1_555 1_555
Cd4 O5 1_555 1_555
N5 Cd7 1_555 1_555
O12 Cd7 1_555 1_555
O13 Cd7 1_555 1_555
C20_2 O6_2 1_555 1_555
C24_2 C25_2 1_555 1_555
Cd4 O12 1_555 1_555
C6_2 C1_2 1_555 1_555
C7_2 C6_2 1_555 1_555
H1_2 C7_2 1_555 1_555
H2_2 C7_2 1_555 1_555
H3_2 C7_2 1_555 1_555
C8_3 C1_2 1_555 1_555
H4_2 C8_3 1_555 1_555
C13_2 C14_2 1_555 1_555
C14_2 H16_2 1_555 1_555
C15_2 C14_2 1_555 1_555
H17_2 C15_2 1_555 1_555
C27_2 C28_2 1_555 1_555
C28_2 H24_2 1_555 1_555
C29_2 C28_2 1_555 1_555
H25_2 C29_2 1_555 1_555
C30_2 C29_2 1_555 1_555
C31_2 C30_2 1_555 1_555
C32_2 C27_2 1_555 1_555
C33_2 C30_2 1_555 1_555
C36_2 H32_2 1_555 1_555
H33_2 C36_2 1_555 1_555
H34_2 C36_2 1_555 1_555
C38_2 H36_2 1_555 1_555
H37_2 C38_2 1_555 1_555
H38_2 C38_2 1_555 1_555
C40_2 H42_2 1_555 1_555
C41_2 C42_2 1_555 1_555
C42_2 H43_2 1_555 1_555
C43_2 C42_2 1_555 1_555
H44_2 C43_2 1_555 1_555
C44_2 C43_2 1_555 1_555
H45_2 C44_2 1_555 1_555
C45_2 C44_2 1_555 1_555
C46_2 C41_2 1_555 1_555
N3_2 C40_2 1_555 1_555
N5 C40_2 1_555 1_555
O3_2 C8_3 1_555 1_555
O16 C33_2 1_555 1_555
O17 C33_2 1_555 1_555
C13_2 O3_2 1_555 1_555
C27_2 O9_2 1_555 1_555
C31_2 C32_2 1_555 1_555
C41_2 N5 1_555 1_555
C45_2 C46_2 1_555 1_555
C46_2 N3_2 1_555 1_555
C17_2 C16_2 1_555 1_555
H18_2 C17_2 1_555 1_555
H19_2 C18_2 1_555 1_555
C19_2 C16_2 1_555 1_555
C34_2 H28_2 1_555 1_555
C35_2 H29_2 1_555 1_555
H30_2 C35_2 1_555 1_555
H31_2 C35_2 1_555 1_555
C37_2 H35_2 1_555 1_555
C39_2 H39_2 1_555 1_555
H40_2 C39_2 1_555 1_555
H41_2 C39_2 1_555 1_555
N1_2 C34_2 1_555 1_555
N2_2 C37_2 1_555 1_555
O12 C19_2 1_555 1_555
O13 C19_2 1_555 1_555
O11_2 C37_2 1_555 1_555
C17_2 C18_2 1_555 1_555
C35_2 N1_2 1_555 1_555
C39_2 N2_2 1_555 1_555
Cd4 O11_2 1_555 1_555
O12_2 Cd2 1_555 1_555
O13_2 Cd2 1_555 1_555
O15 Cd2 1_555 1_555
O17_2 Cd2 1_555 1_555
C24_3 C23_3 1_555 1_555
H22_3 C24_3 1_555 1_555
H23_3 C25_3 1_555 1_555
C26_3 C23_3 1_555 1_555
O4_3 C26_3 1_555 1_555
O5_2 C26_3 1_555 1_555
Cd3 O5_2 1_555 1_555
C24_3 C25_3 1_555 1_555
H11_3 C11_3 1_555 1_555
H12_3 C11_3 1_555 1_555
C28_3 H24_3 1_555 1_555
C29_3 C28_3 1_555 1_555
H25_3 C29_3 1_555 1_555
C30_3 C29_3 1_555 1_555
C31_3 C30_3 1_555 1_555
H26_3 C31_3 1_555 1_555
C33_3 C30_3 1_555 1_555
O7_2 C33_3 1_555 1_555
O8_2 C33_3 1_555 1_555
Cd4_2 O7_2 1_555 1_555
Cd7_2 O7_2 1_555 1_555
O8_2 Cd7_2 1_555 1_555
H4_3 C8_4 1_555 1_555
C9_3 C2_3 1_555 1_555
H6_3 C9_3 1_555 1_555
H7_3 C9_3 1_555 1_555
H8_3 C9_3 1_555 1_555
C13_3 C14_3 1_555 1_555
C14_3 H16_3 1_555 1_555
C15_3 C14_3 1_555 1_555
H17_3 C15_3 1_555 1_555
C16_3 C15_3 1_555 1_555
C17_3 C16_3 1_555 1_555
H18_3 C17_3 1_555 1_555
C18_3 C13_3 1_555 1_555
H19_3 C18_3 1_555 1_555
C19_3 C16_3 1_555 1_555
C20_3 C21_3 1_555 1_555
C21_3 H20_3 1_555 1_555
C22_3 C21_3 1_555 1_555
H21_3 C22_3 1_555 1_555
C41_3 C42_3 1_555 1_555
C43_3 C42_3 1_555 1_555
H44_3 C43_3 1_555 1_555
C44_3 C43_3 1_555 1_555
H45_3 C44_3 1_555 1_555
C45_3 C44_3 1_555 1_555
H46_3 C45_3 1_555 1_555
C46_3 C41_3 1_555 1_555
N3_3 C40_3 1_555 1_555
N5_2 C40_3 1_555 1_555
O12_2 C19_3 1_555 1_555
O13_2 C19_3 1_555 1_555
O3_3 C8_4 1_555 1_555
O6_3 C10_3 1_555 1_555
C13_3 O3_3 1_555 1_555
C17_3 C18_3 1_555 1_555
C20_3 O6_3 1_555 1_555
C41_3 N5_2 1_555 1_555
C45_3 C46_3 1_555 1_555
C46_3 N3_3 1_555 1_555
C34_3 H28_3 1_555 1_555
C35_3 H29_3 1_555 1_555
H31_3 C35_3 1_555 1_555
C36_3 H32_3 1_555 1_555
H33_3 C36_3 1_555 1_555
H34_3 C36_3 1_555 1_555
C37_3 H35_3 1_555 1_555
C38_3 H36_3 1_555 1_555
H37_3 C38_3 1_555 1_555
H38_3 C38_3 1_555 1_555
C39_3 H39_3 1_555 1_555
H40_3 C39_3 1_555 1_555
H41_3 C39_3 1_555 1_555
N1_3 C34_3 1_555 1_555
N2_3 C37_3 1_555 1_555
O10_3 C34_3 1_555 1_555
O11_3 C37_3 1_555 1_555
C35_3 N1_3 1_555 1_555
C36_3 N1_3 1_555 1_555
C38_3 N2_3 1_555 1_555
C39_3 N2_3 1_555 1_555
Cd3 O10_3 1_555 1_555
Cd3 O11_3 1_555 1_555
C17_4 C16_4 1_555 1_555
H18_4 C17_4 1_555 1_555
H19_4 C18_4 1_555 1_555
C19_4 C16_4 1_555 1_555
C34_4 H28_4 1_555 1_555
C35_4 H29_4 1_555 1_555
H30_3 C35_4 1_555 1_555
H31_4 C35_4 1_555 1_555
C37_4 H35_4 1_555 1_555
C39_4 H39_4 1_555 1_555
H40_4 C39_4 1_555 1_555
H41_4 C39_4 1_555 1_555
N1_4 C34_4 1_555 1_555
N2_4 C37_4 1_555 1_555
O1_2 C19_4 1_555 1_555
O2_2 C19_4 1_555 1_555
O11_4 C37_4 1_555 1_555
Cd7_2 O1_2 1_555 1_555
O14_2 Cd4_2 1_555 1_555
C17_4 C18_4 1_555 1_555
C35_4 N1_4 1_555 1_555
C39_4 N2_4 1_555 1_555
Cd4_2 O1_2 1_555 1_555
Cd4_2 O11_4 1_555 1_555
O2_2 Cd7_2 1_555 1_555
C6_3 C1_3 1_555 1_555
C7_3 C6_3 1_555 1_555
H1_3 C7_3 1_555 1_555
H2_3 C7_3 1_555 1_555
H3_3 C7_3 1_555 1_555
C8_5 C1_3 1_555 1_555
H4_4 C8_5 1_555 1_555
C13_4 C14_4 1_555 1_555
C14_4 H16_4 1_555 1_555
C15_4 C14_4 1_555 1_555
H17_4 C15_4 1_555 1_555
C27_3 C28_4 1_555 1_555
C28_4 H24_4 1_555 1_555
C29_4 C28_4 1_555 1_555
H25_4 C29_4 1_555 1_555
C30_4 C29_4 1_555 1_555
C31_4 C30_4 1_555 1_555
C32_3 C27_3 1_555 1_555
C33_4 C30_4 1_555 1_555
C36_4 H32_4 1_555 1_555
H33_4 C36_4 1_555 1_555
H34_4 C36_4 1_555 1_555
C38_4 H36_4 1_555 1_555
H37_4 C38_4 1_555 1_555
H38_4 C38_4 1_555 1_555
C40_4 H42_4 1_555 1_555
C41_4 C42_4 1_555 1_555
C42_4 H43_4 1_555 1_555
C43_4 C42_4 1_555 1_555
H44_4 C43_4 1_555 1_555
C44_4 C43_4 1_555 1_555
H45_4 C44_4 1_555 1_555
C45_4 C44_4 1_555 1_555
C46_4 C41_4 1_555 1_555
N3_4 C40_4 1_555 1_555
N4_2 C40_4 1_555 1_555
O3_4 C8_5 1_555 1_555
O15 C33_4 1_555 1_555
O17_2 C33_4 1_555 1_555
Cd7_2 N4_2 1_555 1_555
C13_4 O3_4 1_555 1_555
C27_3 O9_3 1_555 1_555
C31_4 C32_3 1_555 1_555
C41_4 N4_2 1_555 1_555
C45_4 C46_4 1_555 1_555
C46_4 N3_4 1_555 1_555
C2_4 C3_3 1_555 1_555
C3_3 C4_3 1_555 1_555
C4_3 C5_3 1_555 1_555
C9_4 C2_4 1_555 1_555
H7_4 C9_4 1_555 1_555
C10_4 C3_3 1_555 1_555
H9_4 C10_4 1_555 1_555
H10_4 C10_4 1_555 1_555
C11_4 C4_3 1_555 1_555
H11_4 C11_4 1_555 1_555
H12_4 C11_4 1_555 1_555
H13_3 C11_4 1_555 1_555
C12_3 C5_3 1_555 1_555
H15_3 C12_3 1_555 1_555
C20_4 C21_4 1_555 1_555
C21_4 H20_4 1_555 1_555
C22_4 C21_4 1_555 1_555
H21_4 C22_4 1_555 1_555
C23_4 C22_4 1_555 1_555
C24_4 C23_4 1_555 1_555
H22_4 C24_4 1_555 1_555
C25_4 C20_4 1_555 1_555
H23_4 C25_4 1_555 1_555
C26_4 C23_4 1_555 1_555
Cd7_2 O4_4 1_555 1_555
O4_4 C26_4 1_555 1_555
O14_2 C26_4 1_555 1_555
O6_4 C10_4 1_555 1_555
C20_4 O6_4 1_555 1_555
C24_4 C25_4 1_555 1_555
C3_4 C4_4 1_555 1_555
C4_4 C5_4 1_555 1_555
C5_4 C6_4 1_555 1_555
C6_4 C1_4 1_555 1_555
C7_4 C6_4 1_555 1_555
H1_4 C7_4 1_555 1_555
H2_4 C7_4 1_555 1_555
H3_4 C7_4 1_555 1_555
C8_6 C1_4 1_555 1_555
H5_4 C8_6 1_555 1_555
C12_4 C5_4 1_555 1_555
H14_4 C12_4 1_555 1_555
H15_4 C12_4 1_555 1_555
C32_4 C27_4 1_555 1_555
H27_4 C32_4 1_555 1_555
O9_4 C12_4 1_555 1_555
C27_4 O9_4 1_555 1_555

#END
