
###############################################################################
#
# This file contains modified crystal structure data generated from the
# MOF subset of the Cambridge Structural Database (CSD) v543 
# hosted by the Cambridge Crystallographic Data Centre (CCDC).
#
# This work is licensed under the Creative Commons
# Attribution-NonCommercial-ShareAlike 4.0 International License.
# To view a copy of this license, visit
# http://creativecommons.org/licenses/by-nc-sa/4.0/
# or send a letter to
# Creative Commons, PO Box 1866, Mountain View, CA 94042, USA.
#
# CIF created using the CSD Python API on 29 September 2022
# The structure has been converted into the P1 space group
# The structure has a 3D framework
# The original CSD entry FALRUJ is in the tetragonal crystal system
# The original CSD entry FALRUJ is in a Sohncke space group
# The framework has been calculated to contain at least 10.0% void space
# The void calculation uses a probe of radius 1.32A, grid spacing 0.4
#
###############################################################################

data_FALRUJ
_chemical_formula_moiety         '(C240 H132 Ca5 Cr8 Cu8 N32 O96)n'
_symmetry_cell_setting           triclinic
_symmetry_space_group_name_H-M   'P 1'
_symmetry_Int_Tables_number      1
_space_group_name_Hall           'P 1'
loop_
_symmetry_equiv_pos_site_id
_symmetry_equiv_pos_as_xyz
1 x,y,z
_cell_length_a                   16.19560(10)
_cell_length_b                   16.19560(10)
_cell_length_c                   26.5448(2)
_cell_angle_alpha                90
_cell_angle_beta                 90
_cell_angle_gamma                90
_cell_volume                     6962.63
loop_
_atom_site_label
_atom_site_type_symbol
_atom_site_fract_x
_atom_site_fract_y
_atom_site_fract_z
C19 C 0.2627(3) 0.0269(3) 0.17549(16)
H9 H 0.212051 0.002184 0.182389
C20 C 0.2834(4) 0.0991(3) 0.20161(18)
H10 H 0.247232 0.122117 0.224931
C21 C 0.3580(4) 0.1350(3) 0.19198(19)
H11 H 0.373718 0.182383 0.209282
C22 C 0.4108(3) 0.1003(3) 0.15607(18)
C23 C 0.3845(2) 0.0288(2) 0.13141(14)
C25 C 0.5101(2) 0.0274(3) 0.07980(18)
H12 H 0.606376 0.011512 0.031237
C29 C 0.4899(3) 0.1347(3) 0.1428(2)
H15 H 0.509381 0.180768 0.159977
C30 C 0.5361(3) 0.1011(3) 0.1060(2)
H16 H 0.585797 0.125926 0.097214
O21 O 0.12489(18) 0.00058(17) 0.59014(10)
O22 O 0.1501(2) 0.13301(18) 0.56906(12)
O24 O 0.26230(19) 0.07891(18) 0.50126(12)
C35 C 0.1601(2) 0.0586(2) 0.56504(13)
C36 C 0.2230(2) 0.0282(2) 0.52548(12)
H18 H 0.10127 0.000004 0.348871
Ca3 Ca 0.22179(4) 0.22179(4) 0.50
Cr1 Cr 0.11112(3) 0.83216(3) 0.92677(2)
O1 O 0.13846(17) 0.92004(16) 0.97611(9)
O3 O 0.21370(15) 0.78219(16) 0.95351(10)
O5 O 0.17531(17) 0.88528(16) 0.87156(9)
O6 O 0.24781(18) 0.84301(18) 0.80442(10)
O7 O 0.09971(16) 0.74211(16) 0.87742(9)
O8 O 0.1638(2) 0.69772(18) 0.80804(10)
O11 O 0.04984(16) 0.76899(17) 0.97766(9)
C2 C 0.2398(2) 0.8177(2) 0.99369(13)
C3 C 0.1962(2) 0.8326(2) 0.83791(12)
C4 C 0.1503(2) 0.7494(2) 0.84065(12)
H13 H 0.561134 0.888743 0.997626
Ca1 Ca 0.27821(4) 0.72179(4) 0.75
Cu2 Cu 0.11827(3) 0.70274(3) 0.40236(2)
Cr2 Cr 0.16784(3) 0.88888(3) 0.57323(2)
O13 O 0.07996(16) 0.86154(17) 0.52389(9)
O14 O 0.05630(19) 0.7750(2) 0.46031(10)
O15 O 0.21781(16) 0.78630(15) 0.54649(10)
O16 O 0.2090(2) 0.7072(2) 0.47776(12)
O17 O 0.11472(16) 0.82469(17) 0.62844(9)
O18 O 0.15699(18) 0.75219(18) 0.69558(10)
O19 O 0.25789(16) 0.90029(16) 0.62258(9)
O20 O 0.30228(18) 0.8362(2) 0.69196(10)
O23 O 0.23101(17) 0.95016(16) 0.52234(9)
C31 C 0.0985(2) 0.8017(2) 0.49529(13)
C32 C 0.1823(2) 0.7602(2) 0.50631(13)
C33 C 0.1674(2) 0.8038(2) 0.66209(12)
C34 C 0.2506(2) 0.8497(2) 0.65935(12)
N5 N 0.1486(2) 0.8110(2) 0.37068(12)
N6 N 0.22851(19) 0.66724(19) 0.36747(11)
N7 N 0.0081(2) 0.6890(2) 0.35836(11)
N8 N 0.0808(2) 0.59253(19) 0.42763(12)
C37 C 0.1079(3) 0.8819(3) 0.37339(19)
H17 H 0.062023 0.88537 0.394375
C38 C 0.1311(3) 0.9512(3) 0.3461(2)
H18_2 H 0.10127 1.000004 0.348871
C39 C 0.1986(3) 0.9469(3) 0.31501(19)
H19 H 0.214659 0.992979 0.296531
C40 C 0.2433(3) 0.8731(3) 0.31109(15)
C41 C 0.2158(2) 0.8064(2) 0.34010(13)
C42 C 0.2602(2) 0.7299(2) 0.33956(12)
C43 C 0.3327(2) 0.7230(3) 0.31144(13)
C44 C 0.3752(3) 0.6473(3) 0.31406(16)
H20 H 0.423999 0.639765 0.296212
C45 C 0.3440(3) 0.5853(3) 0.34305(18)
H21 H 0.372205 0.535433 0.34565
C46 C 0.2700(3) 0.5964(2) 0.36872(15)
H22 H 0.248787 0.552804 0.387453
C47 C 0.3599(3) 0.7923(3) 0.28170(15)
H23 H 0.407992 0.788043 0.262771
C48 C 0.3165(3) 0.8627(3) 0.28104(16)
H24 H 0.334072 0.905969 0.260638
C54 C 0.0094(2) 0.5653(2) 0.40661(14)
C56 C 0.0118(3) 0.4429(3) 0.4578(2)
C57 C 0.0841(4) 0.4701(3) 0.47809(18)
H29 H 0.111257 0.438866 0.502374
C58 C 0.1174(3) 0.5458(3) 0.46197(15)
H30 H 0.166882 0.563802 0.475941
O25 O 0.36699(18) 0.6501(2) 0.81906(12)
O26 O 0.3499(2) 0.63301(18) 0.68094(12)
O27 O 0.42109(18) 0.76230(19) 0.75126(12)
O28 O 0.23770(19) 0.57891(18) 0.74874(12)
H2 H 0.999996 0.89873 0.151129
Ca2 Ca 0.77821(4) 0.77821(4) 0.00
O9 O 0.99942(17) 0.87511(18) 0.90986(10)
O10 O 0.86699(18) 0.8499(2) 0.93094(12)
O12 O 0.92109(18) 0.73770(19) 0.99874(12)
C5 C 0.9414(2) 0.8399(2) 0.93496(13)
C6 C 0.9718(2) 0.7770(2) 0.97452(12)
C49 C 0.9731(3) 0.7373(3) 0.32451(16)
H25 H 0.997816 0.787949 0.317611
C50 C 0.9009(3) 0.7166(4) 0.29839(18)
H26 H 0.877883 0.752768 0.275069
C51 C 0.8650(3) 0.6420(4) 0.30802(19)
H27 H 0.817617 0.626282 0.290718
C52 C 0.8997(3) 0.5892(3) 0.34393(18)
C53 C 0.9712(2) 0.6155(2) 0.36859(14)
C55 C 0.9726(3) 0.4899(2) 0.42020(18)
H28 H 0.988488 0.393624 0.468763
C59 C 0.8653(3) 0.5101(3) 0.3572(2)
H31 H 0.819232 0.490619 0.340023
C60 C 0.8989(3) 0.4639(3) 0.3940(2)
H32 H 0.874074 0.414203 0.402786
Ca2_2 Ca 0.77821(4) 0.77821(4) 1.00
Cu2_2 Cu 0.61827(3) 0.79726(3) 0.34764(2)
Cr2_2 Cr 0.66784(3) 0.61112(3) 0.17677(2)
O13_2 O 0.57996(16) 0.63846(17) 0.22611(9)
O14_2 O 0.55630(19) 0.7250(2) 0.28969(10)
O15_2 O 0.71781(16) 0.71370(15) 0.20351(10)
O16_2 O 0.7090(2) 0.7928(2) 0.27224(12)
O17_2 O 0.61472(16) 0.67531(17) 0.12156(9)
O18_2 O 0.65699(18) 0.74781(18) 0.05442(10)
O19_2 O 0.75789(16) 0.59971(16) 0.12742(9)
O20_2 O 0.80228(18) 0.6638(2) 0.05804(10)
O21_2 O 0.62489(18) 0.49942(17) 0.15986(10)
O22_2 O 0.6501(2) 0.36699(18) 0.18094(12)
O23_2 O 0.73101(17) 0.54984(16) 0.22766(9)
O24_2 O 0.76230(19) 0.42109(18) 0.24874(12)
C31_2 C 0.5985(2) 0.6983(2) 0.25471(13)
C32_2 C 0.6823(2) 0.7398(2) 0.24369(13)
C33_2 C 0.6674(2) 0.6962(2) 0.08791(12)
C34_2 C 0.7506(2) 0.6503(2) 0.09065(12)
C35_2 C 0.6601(2) 0.4414(2) 0.18496(13)
C36_2 C 0.7230(2) 0.4718(2) 0.22452(12)
N5_2 N 0.6486(2) 0.6890(2) 0.37932(12)
N6_2 N 0.72851(19) 0.83276(19) 0.38253(11)
N7_2 N 0.5081(2) 0.8110(2) 0.39164(11)
N8_2 N 0.5808(2) 0.90747(19) 0.32237(12)
C37_2 C 0.6079(3) 0.6181(3) 0.37661(19)
H17_2 H 0.562023 0.61463 0.355625
C38_2 C 0.6311(3) 0.5488(3) 0.4039(2)
H18_3 H 0.60127 0.499996 0.401129
C39_2 C 0.6986(3) 0.5531(3) 0.43499(19)
H19_2 H 0.714659 0.507021 0.453469
C40_2 C 0.7433(3) 0.6269(3) 0.43891(15)
C41_2 C 0.7158(2) 0.6936(2) 0.40990(13)
C42_2 C 0.7602(2) 0.7701(2) 0.41044(12)
C43_2 C 0.8327(2) 0.7770(3) 0.43856(13)
C44_2 C 0.8752(3) 0.8527(3) 0.43594(16)
H20_2 H 0.923999 0.860235 0.453788
C45_2 C 0.8440(3) 0.9147(3) 0.40695(18)
H21_2 H 0.872205 0.964567 0.40435
C46_2 C 0.7700(3) 0.9036(2) 0.38128(15)
H22_2 H 0.748787 0.947196 0.362547
C47_2 C 0.8599(3) 0.7077(3) 0.46830(15)
H23_2 H 0.907992 0.711957 0.487229
C48_2 C 0.8165(3) 0.6373(3) 0.46896(16)
H24_2 H 0.834072 0.594031 0.489362
C49_2 C 0.4731(3) 0.7627(3) 0.42549(16)
H25_2 H 0.497816 0.712051 0.432389
C50_2 C 0.4009(3) 0.7834(4) 0.45161(18)
H26_2 H 0.377883 0.747232 0.474931
C51_2 C 0.3650(3) 0.8580(4) 0.44198(19)
H27_2 H 0.317617 0.873718 0.459282
C52_2 C 0.3997(3) 0.9108(3) 0.40607(18)
C53_2 C 0.4712(2) 0.8845(2) 0.38141(14)
C54_2 C 0.5094(2) 0.9347(2) 0.34339(14)
C58_2 C 0.6174(3) 0.9542(3) 0.28803(15)
H30_2 H 0.666882 0.936198 0.274059
C59_2 C 0.3653(3) 0.9899(3) 0.3928(2)
O26_2 O 0.8499(2) 0.86699(18) 0.06906(12)
O28_2 O 0.73770(19) 0.92109(18) 0.00126(12)
Ca3_2 Ca 0.72179(4) 0.27821(4) 0.25
Cu1 Cu 0.79726(3) 0.61827(3) 0.65236(2)
Cr1_2 Cr 0.61112(3) 0.66784(3) 0.82323(2)
O1_2 O 0.63846(17) 0.57996(16) 0.77389(9)
O2 O 0.7250(2) 0.55630(19) 0.71031(10)
O3_2 O 0.71370(15) 0.71781(16) 0.79649(10)
O4 O 0.7928(2) 0.7090(2) 0.72776(12)
O5_2 O 0.67531(17) 0.61472(16) 0.87844(9)
O6_2 O 0.74781(18) 0.65699(18) 0.94558(10)
O7_2 O 0.59971(16) 0.75789(16) 0.87258(9)
O8_2 O 0.6638(2) 0.80228(18) 0.94196(10)
O9_2 O 0.49942(17) 0.62489(18) 0.84014(10)
O11_2 O 0.54984(16) 0.73101(17) 0.77234(9)
C1 C 0.6983(2) 0.5985(2) 0.74529(13)
C2_2 C 0.7398(2) 0.6823(2) 0.75631(13)
C3_2 C 0.6962(2) 0.6674(2) 0.91209(12)
C4_2 C 0.6503(2) 0.7506(2) 0.90935(12)
C5_2 C 0.4414(2) 0.6601(2) 0.81504(13)
C6_2 C 0.4718(2) 0.7230(2) 0.77548(12)
N1 N 0.6890(2) 0.6486(2) 0.62068(12)
N2 N 0.83276(19) 0.72851(19) 0.61747(11)
N3 N 0.8110(2) 0.5081(2) 0.60836(11)
N4 N 0.90747(19) 0.5808(2) 0.67763(12)
C7 C 0.6181(3) 0.6079(3) 0.62339(19)
H1 H 0.61463 0.562023 0.644375
C8 C 0.5488(3) 0.6311(3) 0.5961(2)
H2_2 H 0.499996 0.60127 0.598871
C9 C 0.5531(3) 0.6986(3) 0.56501(19)
H3 H 0.507021 0.714659 0.546531
C10 C 0.6269(3) 0.7433(3) 0.56109(15)
C11 C 0.6936(2) 0.7158(2) 0.59010(13)
C12 C 0.7701(2) 0.7602(2) 0.58956(12)
C13 C 0.7770(3) 0.8327(2) 0.56144(13)
C14 C 0.8527(3) 0.8752(3) 0.56406(16)
H4 H 0.860235 0.923999 0.546212
C15 C 0.9147(3) 0.8440(3) 0.59305(18)
H5 H 0.964567 0.872205 0.59565
C16 C 0.9036(2) 0.7700(3) 0.61872(15)
H6 H 0.947196 0.748787 0.637453
C17 C 0.7077(3) 0.8599(3) 0.53170(15)
H7 H 0.711957 0.907992 0.512771
C18 C 0.6373(3) 0.8165(3) 0.53104(16)
H8 H 0.594031 0.834072 0.510638
C19_2 C 0.7627(3) 0.4731(3) 0.57451(16)
H9_2 H 0.712051 0.497816 0.567611
C20_2 C 0.7834(4) 0.4009(3) 0.54839(18)
H10_2 H 0.747232 0.377883 0.525069
C21_2 C 0.8580(4) 0.3650(3) 0.55802(19)
H11_2 H 0.873718 0.317617 0.540718
C22_2 C 0.9108(3) 0.3997(3) 0.59393(18)
C23_2 C 0.8845(2) 0.4712(2) 0.61859(14)
C24 C 0.9347(2) 0.5094(2) 0.65661(14)
C28 C 0.9542(3) 0.6174(3) 0.71197(15)
H14 H 0.936198 0.666882 0.725941
C29_2 C 0.9899(3) 0.3653(3) 0.6072(2)
O9_3 O 0.00058(17) 0.12489(18) 0.40986(10)
O10_2 O 0.13301(18) 0.1501(2) 0.43094(12)
O12_2 O 0.07891(18) 0.26230(19) 0.49874(12)
C5_3 C 0.0586(2) 0.1601(2) 0.43496(13)
C6_3 C 0.0282(2) 0.2230(2) 0.47452(12)
H2_3 H 0.000004 0.10127 0.651129
Cu1_2 Cu 0.70274(3) 0.11827(3) 0.59764(2)
Cr1_3 Cr 0.88888(3) 0.16784(3) 0.42677(2)
O1_3 O 0.86154(17) 0.07996(16) 0.47611(9)
O2_2 O 0.7750(2) 0.05630(19) 0.53969(10)
O3_3 O 0.78630(15) 0.21781(16) 0.45351(10)
O4_2 O 0.7072(2) 0.2090(2) 0.52224(12)
O5_3 O 0.82469(17) 0.11472(16) 0.37156(9)
O6_3 O 0.75219(18) 0.15699(18) 0.30442(10)
O7_3 O 0.90029(16) 0.25789(16) 0.37742(9)
O8_3 O 0.8362(2) 0.30228(18) 0.30804(10)
O11_3 O 0.95016(16) 0.23101(17) 0.47766(9)
C1_2 C 0.8017(2) 0.0985(2) 0.50471(13)
C2_3 C 0.7602(2) 0.1823(2) 0.49369(13)
C3_3 C 0.8038(2) 0.1674(2) 0.33791(12)
C4_3 C 0.8497(2) 0.2506(2) 0.34065(12)
N1_2 N 0.8110(2) 0.1486(2) 0.62932(12)
N2_2 N 0.66724(19) 0.22851(19) 0.63253(11)
N3_2 N 0.6890(2) 0.0081(2) 0.64164(11)
N4_2 N 0.59253(19) 0.0808(2) 0.57237(12)
C7_2 C 0.8819(3) 0.1079(3) 0.62661(19)
H1_2 H 0.88537 0.062023 0.605625
C8_2 C 0.9512(3) 0.1311(3) 0.6539(2)
H2_4 H 1.000004 0.10127 0.651129
C9_2 C 0.9469(3) 0.1986(3) 0.68499(19)
H3_2 H 0.992979 0.214659 0.703469
C10_2 C 0.8731(3) 0.2433(3) 0.68891(15)
C11_2 C 0.8064(2) 0.2158(2) 0.65990(13)
C12_2 C 0.7299(2) 0.2602(2) 0.66044(12)
C13_2 C 0.7230(3) 0.3327(2) 0.68856(13)
C14_2 C 0.6473(3) 0.3752(3) 0.68594(16)
H4_2 H 0.639765 0.423999 0.703788
C15_2 C 0.5853(3) 0.3440(3) 0.65695(18)
H5_2 H 0.535433 0.372205 0.65435
C16_2 C 0.5964(2) 0.2700(3) 0.63128(15)
H6_2 H 0.552804 0.248787 0.612547
C17_2 C 0.7923(3) 0.3599(3) 0.71830(15)
H7_2 H 0.788043 0.407992 0.737229
C18_2 C 0.8627(3) 0.3165(3) 0.71896(16)
H8_2 H 0.905969 0.334072 0.739362
C24_2 C 0.5653(2) 0.0094(2) 0.59339(14)
C26 C 0.4429(3) 0.0118(3) 0.5422(2)
C27 C 0.4701(3) 0.0841(4) 0.52191(18)
H13_2 H 0.438866 0.111257 0.497626
C28_2 C 0.5458(3) 0.1174(3) 0.53803(15)
H14_2 H 0.563802 0.166882 0.524059
Cr2_3 Cr 0.83216(3) 0.11112(3) 0.07323(2)
O13_3 O 0.92004(16) 0.13846(17) 0.02389(9)
O15_3 O 0.78219(16) 0.21370(15) 0.04649(10)
O17_3 O 0.88528(16) 0.17531(17) 0.12844(9)
O18_3 O 0.84301(18) 0.24781(18) 0.19558(10)
O19_3 O 0.74211(16) 0.09971(16) 0.12258(9)
O20_3 O 0.69772(18) 0.1638(2) 0.19196(10)
O23_3 O 0.76899(17) 0.04984(16) 0.02234(9)
C32_3 C 0.8177(2) 0.2398(2) 0.00631(13)
C33_3 C 0.8326(2) 0.1962(2) 0.16209(12)
C34_3 C 0.7494(2) 0.1503(2) 0.15935(12)
H29_2 H 0.888743 0.561134 0.002374
O25_2 O 0.63301(18) 0.3499(2) 0.31906(12)
O27_2 O 0.57891(18) 0.23770(19) 0.25126(12)
C19_3 C 0.7373(3) 0.9731(3) 0.67549(16)
H9_3 H 0.787949 0.997816 0.682389
C20_3 C 0.7166(4) 0.9009(3) 0.70161(18)
H10_3 H 0.752768 0.877883 0.724931
C21_3 C 0.6420(4) 0.8650(3) 0.69198(19)
H11_3 H 0.626282 0.817617 0.709282
C22_3 C 0.5892(3) 0.8997(3) 0.65607(18)
C23_3 C 0.6155(2) 0.9712(2) 0.63141(14)
C25_2 C 0.4899(2) 0.9726(3) 0.57980(18)
H12_2 H 0.393624 0.988488 0.531237
C29_3 C 0.5101(3) 0.8653(3) 0.6428(2)
H15_2 H 0.490619 0.819232 0.659977
C30_2 C 0.4639(3) 0.8989(3) 0.6060(2)
H16_2 H 0.414203 0.874074 0.597214
O21_3 O 0.87511(18) 0.99942(17) 0.09014(10)
C35_3 C 0.8399(2) 0.9414(2) 0.06504(13)
C36_3 C 0.7770(2) 0.9718(2) 0.02548(12)
H18_4 H 0.89873 0.999996 0.848871
Cu1_3 Cu 0.20274(3) 0.38173(3) 0.15236(2)
Cr1_4 Cr 0.38888(3) 0.33216(3) 0.32323(2)
O1_4 O 0.36154(17) 0.42004(16) 0.27389(9)
O2_3 O 0.2750(2) 0.44370(19) 0.21031(10)
O3_4 O 0.28630(15) 0.28219(16) 0.29649(10)
O4_3 O 0.2072(2) 0.2910(2) 0.22776(12)
O5_4 O 0.32469(17) 0.38528(16) 0.37844(9)
O6_4 O 0.25219(18) 0.34301(18) 0.44558(10)
O7_4 O 0.40029(16) 0.24211(16) 0.37258(9)
O8_4 O 0.3362(2) 0.19772(18) 0.44196(10)
O9_4 O 0.50058(17) 0.37511(18) 0.34014(10)
O11_4 O 0.45016(16) 0.26899(17) 0.27234(9)
C1_3 C 0.3017(2) 0.4015(2) 0.24529(13)
C2_4 C 0.2602(2) 0.3177(2) 0.25631(13)
C3_4 C 0.3038(2) 0.3326(2) 0.41209(12)
C4_4 C 0.3497(2) 0.2494(2) 0.40935(12)
C5_4 C 0.5586(2) 0.3399(2) 0.31504(13)
C6_4 C 0.5282(2) 0.2770(2) 0.27548(12)
N1_3 N 0.3110(2) 0.3514(2) 0.12068(12)
N2_3 N 0.16724(19) 0.27149(19) 0.11747(11)
N3_3 N 0.1890(2) 0.4919(2) 0.10836(11)
N4_3 N 0.09253(19) 0.4192(2) 0.17763(12)
C7_3 C 0.3819(3) 0.3921(3) 0.12339(19)
H1_3 H 0.38537 0.437977 0.144375
C8_3 C 0.4512(3) 0.3689(3) 0.0961(2)
H2_5 H 0.500004 0.39873 0.098871
C9_3 C 0.4469(3) 0.3014(3) 0.06501(19)
H3_3 H 0.492979 0.285341 0.046531
C10_3 C 0.3731(3) 0.2567(3) 0.06109(15)
C11_3 C 0.3064(2) 0.2842(2) 0.09010(13)
C12_3 C 0.2299(2) 0.2398(2) 0.08956(12)
C13_3 C 0.2230(3) 0.1673(2) 0.06144(13)
C14_3 C 0.1473(3) 0.1248(3) 0.06406(16)
H4_3 H 0.139765 0.076001 0.046212
C15_3 C 0.0853(3) 0.1560(3) 0.09305(18)
H5_3 H 0.035433 0.127795 0.09565
C16_3 C 0.0964(2) 0.2300(3) 0.11872(15)
H6_3 H 0.052804 0.251213 0.137453
C17_3 C 0.2923(3) 0.1401(3) 0.03170(15)
H7_3 H 0.288043 0.092008 0.012771
C18_3 C 0.3627(3) 0.1835(3) 0.03104(16)
H8_3 H 0.405969 0.165928 0.010638
C19_4 C 0.2373(3) 0.5269(3) 0.07451(16)
H9_4 H 0.287949 0.502184 0.067611
C20_4 C 0.2166(4) 0.5991(3) 0.04839(18)
H10_4 H 0.252768 0.622117 0.025069
C21_4 C 0.1420(4) 0.6350(3) 0.05802(19)
H11_4 H 0.126282 0.682383 0.040718
C22_4 C 0.0892(3) 0.6003(3) 0.09393(18)
C23_4 C 0.1155(2) 0.5288(2) 0.11859(14)
C24_3 C 0.0653(2) 0.4906(2) 0.15661(14)
C28_3 C 0.0458(3) 0.3826(3) 0.21197(15)
H14_3 H 0.063802 0.333118 0.225941
C29_4 C 0.0101(3) 0.6347(3) 0.1072(2)
Cu2_3 Cu 0.38173(3) 0.20274(3) 0.84764(2)
Cr2_4 Cr 0.33216(3) 0.38888(3) 0.67677(2)
O13_4 O 0.42004(16) 0.36154(17) 0.72611(9)
O14_3 O 0.44370(19) 0.2750(2) 0.78969(10)
O15_4 O 0.28219(16) 0.28630(15) 0.70351(10)
O16_3 O 0.2910(2) 0.2072(2) 0.77224(12)
O17_4 O 0.38528(16) 0.32469(17) 0.62156(9)
O18_4 O 0.34301(18) 0.25219(18) 0.55442(10)
O19_4 O 0.24211(16) 0.40029(16) 0.62742(9)
O20_4 O 0.19772(18) 0.3362(2) 0.55804(10)
O21_4 O 0.37511(18) 0.50058(17) 0.65986(10)
O23_4 O 0.26899(17) 0.45016(16) 0.72766(9)
C31_3 C 0.4015(2) 0.3017(2) 0.75471(13)
C32_4 C 0.3177(2) 0.2602(2) 0.74369(13)
C33_4 C 0.3326(2) 0.3038(2) 0.58791(12)
C34_4 C 0.2494(2) 0.3497(2) 0.59065(12)
C35_4 C 0.3399(2) 0.5586(2) 0.68496(13)
C36_4 C 0.2770(2) 0.5282(2) 0.72452(12)
N5_3 N 0.3514(2) 0.3110(2) 0.87932(12)
N6_3 N 0.27149(19) 0.16724(19) 0.88253(11)
N7_3 N 0.4919(2) 0.1890(2) 0.89164(11)
N8_3 N 0.4192(2) 0.09253(19) 0.82237(12)
C37_3 C 0.3921(3) 0.3819(3) 0.87661(19)
H17_3 H 0.437977 0.38537 0.855625
C38_3 C 0.3689(3) 0.4512(3) 0.9039(2)
H18_5 H 0.39873 0.500004 0.901129
C39_3 C 0.3014(3) 0.4469(3) 0.93499(19)
H19_3 H 0.285341 0.492979 0.953469
C40_3 C 0.2567(3) 0.3731(3) 0.93891(15)
C41_3 C 0.2842(2) 0.3064(2) 0.90990(13)
C42_3 C 0.2398(2) 0.2299(2) 0.91044(12)
C43_3 C 0.1673(2) 0.2230(3) 0.93856(13)
C44_3 C 0.1248(3) 0.1473(3) 0.93594(16)
H20_3 H 0.076001 0.139765 0.953788
C45_3 C 0.1560(3) 0.0853(3) 0.90695(18)
H21_3 H 0.127795 0.035433 0.90435
C46_3 C 0.2300(3) 0.0964(2) 0.88128(15)
H22_3 H 0.251213 0.052804 0.862547
C47_3 C 0.1401(3) 0.2923(3) 0.96830(15)
H23_3 H 0.092008 0.288043 0.987229
C48_3 C 0.1835(3) 0.3627(3) 0.96896(16)
H24_3 H 0.165928 0.405969 0.989362
C49_3 C 0.5269(3) 0.2373(3) 0.92549(16)
H25_3 H 0.502184 0.287949 0.932389
C50_3 C 0.5991(3) 0.2166(4) 0.95161(18)
H26_3 H 0.622117 0.252768 0.974931
C51_3 C 0.6350(3) 0.1420(4) 0.94198(19)
H27_3 H 0.682383 0.126282 0.959282
C52_3 C 0.6003(3) 0.0892(3) 0.90607(18)
C53_3 C 0.5288(2) 0.1155(2) 0.88141(14)
C54_3 C 0.4906(2) 0.0653(2) 0.84339(14)
C58_3 C 0.3826(3) 0.0458(3) 0.78803(15)
H30_3 H 0.333118 0.063802 0.774059
C59_3 C 0.6347(3) 0.0101(3) 0.8928(2)
Cu1_4 Cu 0.29726(3) 0.88173(3) 0.09764(2)
O2_4 O 0.2250(2) 0.94370(19) 0.03969(10)
O4_4 O 0.2928(2) 0.7910(2) 0.02224(12)
C1_4 C 0.1983(2) 0.9015(2) 0.00471(13)
N1_4 N 0.1890(2) 0.8514(2) 0.12932(12)
N2_4 N 0.33276(19) 0.77149(19) 0.13253(11)
N3_4 N 0.3110(2) 0.9919(2) 0.14164(11)
N4_4 N 0.40747(19) 0.9192(2) 0.07237(12)
C7_4 C 0.1181(3) 0.8921(3) 0.12661(19)
H1_4 H 0.11463 0.937977 0.105625
C8_4 C 0.0488(3) 0.8689(3) 0.1539(2)
H2_6 H -0.000004 0.89873 0.151129
C9_4 C 0.0531(3) 0.8014(3) 0.18499(19)
H3_4 H 0.007021 0.785341 0.203469
C10_4 C 0.1269(3) 0.7567(3) 0.18891(15)
C11_4 C 0.1936(2) 0.7842(2) 0.15990(13)
C12_4 C 0.2701(2) 0.7398(2) 0.16044(12)
C13_4 C 0.2770(3) 0.6673(2) 0.18856(13)
C14_4 C 0.3527(3) 0.6248(3) 0.18594(16)
H4_4 H 0.360235 0.576001 0.203788
C15_4 C 0.4147(3) 0.6560(3) 0.15695(18)
H5_4 H 0.464567 0.627795 0.15435
C16_4 C 0.4036(2) 0.7300(3) 0.13128(15)
H6_4 H 0.447196 0.751213 0.112547
C17_4 C 0.2077(3) 0.6401(3) 0.21830(15)
H7_4 H 0.211957 0.592008 0.237229
C18_4 C 0.1373(3) 0.6835(3) 0.21896(16)
H8_4 H 0.094031 0.665928 0.239362
C24_4 C 0.4347(2) 0.9906(2) 0.09339(14)
C26_2 C 0.5571(3) 0.9882(3) 0.0422(2)
C27_2 C 0.5299(3) 0.9159(4) 0.02191(18)
C28_4 C 0.4542(3) 0.8826(3) 0.03803(15)
H14_4 H 0.436198 0.833118 0.024059
C25_3 C 0.0101(2) 0.4726(3) 0.67020(18)
C26_3 C 0.0571(3) 0.5118(3) 0.7078(2)
H12_3 H 0.106376 0.488488 0.718763
C27_3 C 0.0299(3) 0.5841(4) 0.72809(18)
H13_3 H 0.061134 0.611257 0.752374
H15_3 H 0.009381 0.319232 0.590023
C30_3 C 0.0361(3) 0.3989(3) 0.6440(2)
H16_3 H 0.085797 0.374074 0.652786
C55_2 C 0.4726(3) 0.0101(2) 0.32980(18)
C56_2 C 0.5118(3) 0.0571(3) 0.2922(2)
H28_2 H 0.488488 0.106376 0.281237
C57_2 C 0.5841(4) 0.0299(3) 0.27191(18)
H29_3 H 0.611257 0.061134 0.247626
H31_2 H 0.319232 0.009381 0.409977
C60_2 C 0.3989(3) 0.0361(3) 0.3560(2)
H32_2 H 0.374074 0.085797 0.347214
C49_4 C 0.0269(3) 0.2627(3) 0.82451(16)
H25_4 H 0.002184 0.212051 0.817611
C50_4 C 0.0991(3) 0.2834(4) 0.79839(18)
H26_4 H 0.122117 0.247232 0.775069
C51_4 C 0.1350(3) 0.3580(4) 0.80802(19)
H27_4 H 0.182383 0.373718 0.790718
C52_4 C 0.1003(3) 0.4108(3) 0.84393(18)
C53_4 C 0.0288(2) 0.3845(2) 0.86859(14)
C55_3 C 0.0274(3) 0.5101(2) 0.92020(18)
H28_3 H 0.011512 0.606376 0.968763
C59_4 C 0.1347(3) 0.4899(3) 0.8572(2)
H31_3 H 0.180768 0.509381 0.840023
C60_3 C 0.1011(3) 0.5361(3) 0.8940(2)
H32_3 H 0.125926 0.585797 0.902786
Cu2_4 Cu 0.88173(3) 0.29726(3) 0.90236(2)
O14_4 O 0.94370(19) 0.2250(2) 0.96031(10)
O16_4 O 0.7910(2) 0.2928(2) 0.97776(12)
C31_4 C 0.9015(2) 0.1983(2) 0.99529(13)
N5_4 N 0.8514(2) 0.1890(2) 0.87068(12)
N6_4 N 0.77149(19) 0.33276(19) 0.86747(11)
N7_4 N 0.9919(2) 0.3110(2) 0.85836(11)
N8_4 N 0.9192(2) 0.40747(19) 0.92763(12)
C37_4 C 0.8921(3) 0.1181(3) 0.87339(19)
H17_4 H 0.937977 0.11463 0.894375
C38_4 C 0.8689(3) 0.0488(3) 0.8461(2)
H18_6 H 0.89873 -0.000004 0.848871
C39_4 C 0.8014(3) 0.0531(3) 0.81501(19)
H19_4 H 0.785341 0.007021 0.796531
C40_4 C 0.7567(3) 0.1269(3) 0.81109(15)
C41_4 C 0.7842(2) 0.1936(2) 0.84010(13)
C42_4 C 0.7398(2) 0.2701(2) 0.83956(12)
C43_4 C 0.6673(2) 0.2770(3) 0.81144(13)
C44_4 C 0.6248(3) 0.3527(3) 0.81406(16)
H20_4 H 0.576001 0.360235 0.796212
C45_4 C 0.6560(3) 0.4147(3) 0.84305(18)
H21_4 H 0.627795 0.464567 0.84565
C46_4 C 0.7300(3) 0.4036(2) 0.86872(15)
H22_4 H 0.751213 0.447196 0.887453
C47_4 C 0.6401(3) 0.2077(3) 0.78170(15)
H23_4 H 0.592008 0.211957 0.762771
C48_4 C 0.6835(3) 0.1373(3) 0.78104(16)
H24_4 H 0.665928 0.094031 0.760638
C54_4 C 0.9906(2) 0.4347(2) 0.90661(14)
C56_3 C 0.9882(3) 0.5571(3) 0.9578(2)
C57_3 C 0.9159(4) 0.5299(3) 0.97809(18)
C58_4 C 0.8826(3) 0.4542(3) 0.96197(15)
H30_4 H 0.833118 0.436198 0.975941
C55_4 C 0.5274(3) 0.9899(2) 0.82980(18)
C56_4 C 0.4882(3) 0.9429(3) 0.7922(2)
H28_4 H 0.511512 0.893624 0.781237
C57_4 C 0.4159(4) 0.9701(3) 0.77191(18)
H29_4 H 0.388743 0.938866 0.747626
H31_4 H 0.680768 0.990619 0.909977
C60_4 C 0.6011(3) 0.9639(3) 0.8560(2)
H32_4 H 0.625926 0.914203 0.847214
C25_4 C 0.9899(2) 0.5274(3) 0.17020(18)
C26_4 C 0.9429(3) 0.4882(3) 0.2078(2)
H12_4 H 0.893624 0.511512 0.218763
C27_4 C 0.9701(3) 0.4159(4) 0.22809(18)
H13_4 H 0.938866 0.388743 0.252374
H15_4 H 0.990619 0.680768 0.090023
C30_4 C 0.9639(3) 0.6011(3) 0.1440(2)
H16_4 H 0.914203 0.625926 0.152786
loop_
_geom_bond_atom_site_label_1
_geom_bond_atom_site_label_2
_geom_bond_site_symmetry_1
_geom_bond_site_symmetry_2
H9 C19 1_555 1_555
C20 C19 1_555 1_555
H10 C20 1_555 1_555
C21 C20 1_555 1_555
H11 C21 1_555 1_555
C22 C21 1_555 1_555
C29 C22 1_555 1_555
H15 C29 1_555 1_555
C30 C25 1_555 1_555
H16 C30 1_555 1_555
C22 C23 1_555 1_555
C29 C30 1_555 1_555
O22 C35 1_555 1_555
O24 C36 1_555 1_555
C35 O21 1_555 1_555
Ca3 O22 1_555 1_555
O24 Ca3 1_555 1_555
C35 C36 1_555 1_555
Cr1 O1 1_555 1_555
O3 Cr1 1_555 1_555
O5 Cr1 1_555 1_555
O6 C3 1_555 1_555
O7 Cr1 1_555 1_555
O8 C4 1_555 1_555
O11 Cr1 1_555 1_555
C2 O3 1_555 1_555
C3 O5 1_555 1_555
C4 O7 1_555 1_555
Ca1 O6 1_555 1_555
Cu2 O14 1_555 1_555
Cr2 O13 1_555 1_555
O13 C31 1_555 1_555
O14 C31 1_555 1_555
O15 Cr2 1_555 1_555
O16 Cu2 1_555 1_555
O17 Cr2 1_555 1_555
O18 Ca1 1_555 1_555
O19 Cr2 1_555 1_555
O20 Ca1 1_555 1_555
O23 Cr2 1_555 1_555
C31 C32 1_555 1_555
C32 O15 1_555 1_555
C33 O17 1_555 1_555
C34 O19 1_555 1_555
N5 Cu2 1_555 1_555
N6 Cu2 1_555 1_555
N7 Cu2 1_555 1_555
N8 Cu2 1_555 1_555
C37 N5 1_555 1_555
H17 C37 1_555 1_555
C38 C37 1_555 1_555
H18_2 C38 1_555 1_555
C39 C38 1_555 1_555
H19 C39 1_555 1_555
C40 C39 1_555 1_555
C41 N5 1_555 1_555
C42 N6 1_555 1_555
C43 C42 1_555 1_555
C44 C43 1_555 1_555
H20 C44 1_555 1_555
C45 C44 1_555 1_555
H21 C45 1_555 1_555
C46 N6 1_555 1_555
H22 C46 1_555 1_555
C47 C43 1_555 1_555
H23 C47 1_555 1_555
C48 C40 1_555 1_555
H24 C48 1_555 1_555
C54 N8 1_555 1_555
C57 C56 1_555 1_555
H29 C57 1_555 1_555
C58 N8 1_555 1_555
H30 C58 1_555 1_555
O25 Ca1 1_555 1_555
O26 Ca1 1_555 1_555
O27 Ca1 1_555 1_555
O28 Ca1 1_555 1_555
O8 Ca1 1_555 1_555
C3 C4 1_555 1_555
O16 C32 1_555 1_555
O18 C33 1_555 1_555
O20 C34 1_555 1_555
C33 C34 1_555 1_555
C40 C41 1_555 1_555
C41 C42 1_555 1_555
C45 C46 1_555 1_555
C47 C48 1_555 1_555
C57 C58 1_555 1_555
O10 C5 1_555 1_555
O12 C6 1_555 1_555
C5 O9 1_555 1_555
H25 C49 1_555 1_555
C50 C49 1_555 1_555
H26 C50 1_555 1_555
C51 C50 1_555 1_555
H27 C51 1_555 1_555
C52 C51 1_555 1_555
C59 C52 1_555 1_555
H31 C59 1_555 1_555
C60 C55 1_555 1_555
H32 C60 1_555 1_555
Ca2_2 O10 1_555 1_555
O12 Ca2_2 1_555 1_555
C5 C6 1_555 1_555
C52 C53 1_555 1_555
C59 C60 1_555 1_555
Cu2_2 O14_2 1_555 1_555
Cr2_2 O13_2 1_555 1_555
O13_2 C31_2 1_555 1_555
O14_2 C31_2 1_555 1_555
O15_2 Cr2_2 1_555 1_555
O16_2 Cu2_2 1_555 1_555
O17_2 Cr2_2 1_555 1_555
O18_2 Ca2 1_555 1_555
O19_2 Cr2_2 1_555 1_555
O20_2 Ca2 1_555 1_555
O21_2 Cr2_2 1_555 1_555
O22_2 C35_2 1_555 1_555
O23_2 Cr2_2 1_555 1_555
O24_2 C36_2 1_555 1_555
C31_2 C32_2 1_555 1_555
C32_2 O15_2 1_555 1_555
C33_2 O17_2 1_555 1_555
C34_2 O19_2 1_555 1_555
C35_2 O21_2 1_555 1_555
C36_2 O23_2 1_555 1_555
N5_2 Cu2_2 1_555 1_555
N6_2 Cu2_2 1_555 1_555
N7_2 Cu2_2 1_555 1_555
N8_2 Cu2_2 1_555 1_555
C37_2 N5_2 1_555 1_555
H17_2 C37_2 1_555 1_555
C38_2 C37_2 1_555 1_555
H18_3 C38_2 1_555 1_555
C39_2 C38_2 1_555 1_555
H19_2 C39_2 1_555 1_555
C40_2 C39_2 1_555 1_555
C41_2 N5_2 1_555 1_555
C42_2 N6_2 1_555 1_555
C43_2 C42_2 1_555 1_555
C44_2 C43_2 1_555 1_555
H20_2 C44_2 1_555 1_555
C45_2 C44_2 1_555 1_555
H21_2 C45_2 1_555 1_555
C46_2 N6_2 1_555 1_555
H22_2 C46_2 1_555 1_555
C47_2 C43_2 1_555 1_555
H23_2 C47_2 1_555 1_555
C48_2 C40_2 1_555 1_555
H24_2 C48_2 1_555 1_555
C49_2 N7_2 1_555 1_555
H25_2 C49_2 1_555 1_555
C50_2 C49_2 1_555 1_555
H26_2 C50_2 1_555 1_555
C51_2 C50_2 1_555 1_555
H27_2 C51_2 1_555 1_555
C52_2 C51_2 1_555 1_555
C53_2 N7_2 1_555 1_555
C54_2 N8_2 1_555 1_555
C58_2 N8_2 1_555 1_555
H30_2 C58_2 1_555 1_555
C59_2 C52_2 1_555 1_555
O26_2 Ca2 1_555 1_555
O28_2 Ca2 1_555 1_555
Ca3_2 O22_2 1_555 1_555
O16_2 C32_2 1_555 1_555
O18_2 C33_2 1_555 1_555
O20_2 C34_2 1_555 1_555
O24_2 Ca3_2 1_555 1_555
C33_2 C34_2 1_555 1_555
C35_2 C36_2 1_555 1_555
C40_2 C41_2 1_555 1_555
C41_2 C42_2 1_555 1_555
C45_2 C46_2 1_555 1_555
C47_2 C48_2 1_555 1_555
C52_2 C53_2 1_555 1_555
C53_2 C54_2 1_555 1_555
Cu1 O2 1_555 1_555
Cr1_2 O1_2 1_555 1_555
O1_2 C1 1_555 1_555
O2 C1 1_555 1_555
O3_2 Cr1_2 1_555 1_555
O4 Cu1 1_555 1_555
O5_2 Cr1_2 1_555 1_555
O6_2 C3_2 1_555 1_555
O7_2 Cr1_2 1_555 1_555
O8_2 C4_2 1_555 1_555
O9_2 Cr1_2 1_555 1_555
O25 C5_2 1_555 1_555
O11_2 Cr1_2 1_555 1_555
O27 C6_2 1_555 1_555
C1 C2_2 1_555 1_555
C2_2 O3_2 1_555 1_555
C3_2 O5_2 1_555 1_555
C4_2 O7_2 1_555 1_555
C5_2 O9_2 1_555 1_555
C6_2 O11_2 1_555 1_555
N1 Cu1 1_555 1_555
N2 Cu1 1_555 1_555
N3 Cu1 1_555 1_555
N4 Cu1 1_555 1_555
C7 N1 1_555 1_555
H1 C7 1_555 1_555
C8 C7 1_555 1_555
H2_2 C8 1_555 1_555
C9 C8 1_555 1_555
H3 C9 1_555 1_555
C10 C9 1_555 1_555
C11 N1 1_555 1_555
C12 N2 1_555 1_555
C13 C12 1_555 1_555
C14 C13 1_555 1_555
H4 C14 1_555 1_555
C15 C14 1_555 1_555
H5 C15 1_555 1_555
C16 N2 1_555 1_555
H6 C16 1_555 1_555
C17 C13 1_555 1_555
H7 C17 1_555 1_555
C18 C10 1_555 1_555
H8 C18 1_555 1_555
C19_2 N3 1_555 1_555
H9_2 C19_2 1_555 1_555
C20_2 C19_2 1_555 1_555
H10_2 C20_2 1_555 1_555
C21_2 C20_2 1_555 1_555
H11_2 C21_2 1_555 1_555
C22_2 C21_2 1_555 1_555
C23_2 N3 1_555 1_555
C24 N4 1_555 1_555
C28 N4 1_555 1_555
H14 C28 1_555 1_555
C29_2 C22_2 1_555 1_555
Ca2_2 O6_2 1_555 1_555
O4 C2_2 1_555 1_555
O8_2 Ca2_2 1_555 1_555
C3_2 C4_2 1_555 1_555
C5_2 C6_2 1_555 1_555
C10 C11 1_555 1_555
C11 C12 1_555 1_555
C15 C16 1_555 1_555
C17 C18 1_555 1_555
C22_2 C23_2 1_555 1_555
C23_2 C24 1_555 1_555
O10_2 C5_3 1_555 1_555
O12_2 C6_3 1_555 1_555
C5_3 O9_3 1_555 1_555
Ca3 O10_2 1_555 1_555
O12_2 Ca3 1_555 1_555
C5_3 C6_3 1_555 1_555
Cu1_2 O2_2 1_555 1_555
Cr1_3 O1_3 1_555 1_555
O1_3 C1_2 1_555 1_555
O2_2 C1_2 1_555 1_555
O3_3 Cr1_3 1_555 1_555
O4_2 Cu1_2 1_555 1_555
O5_3 Cr1_3 1_555 1_555
O6_3 C3_3 1_555 1_555
O7_3 Cr1_3 1_555 1_555
O8_3 C4_3 1_555 1_555
O11_3 Cr1_3 1_555 1_555
C1_2 C2_3 1_555 1_555
C2_3 O3_3 1_555 1_555
C3_3 O5_3 1_555 1_555
C4_3 O7_3 1_555 1_555
N1_2 Cu1_2 1_555 1_555
N2_2 Cu1_2 1_555 1_555
N3_2 Cu1_2 1_555 1_555
N4_2 Cu1_2 1_555 1_555
C7_2 N1_2 1_555 1_555
H1_2 C7_2 1_555 1_555
C8_2 C7_2 1_555 1_555
H2_4 C8_2 1_555 1_555
C9_2 C8_2 1_555 1_555
H3_2 C9_2 1_555 1_555
C10_2 C9_2 1_555 1_555
C11_2 N1_2 1_555 1_555
C12_2 N2_2 1_555 1_555
C13_2 C12_2 1_555 1_555
C14_2 C13_2 1_555 1_555
H4_2 C14_2 1_555 1_555
C15_2 C14_2 1_555 1_555
H5_2 C15_2 1_555 1_555
C16_2 N2_2 1_555 1_555
H6_2 C16_2 1_555 1_555
C17_2 C13_2 1_555 1_555
H7_2 C17_2 1_555 1_555
C18_2 C10_2 1_555 1_555
H8_2 C18_2 1_555 1_555
C24_2 N4_2 1_555 1_555
C27 C26 1_555 1_555
H13_2 C27 1_555 1_555
C28_2 N4_2 1_555 1_555
H14_2 C28_2 1_555 1_555
Ca3_2 O6_3 1_555 1_555
Cr2_3 O13_3 1_555 1_555
O15_3 Cr2_3 1_555 1_555
O17_3 Cr2_3 1_555 1_555
O18_3 Ca3_2 1_555 1_555
O19_3 Cr2_3 1_555 1_555
O20_3 Ca3_2 1_555 1_555
O23_3 Cr2_3 1_555 1_555
C32_3 O15_3 1_555 1_555
C33_3 O17_3 1_555 1_555
C34_3 O19_3 1_555 1_555
O25_2 Ca3_2 1_555 1_555
O27_2 Ca3_2 1_555 1_555
O4_2 C2_3 1_555 1_555
O8_3 Ca3_2 1_555 1_555
C3_3 C4_3 1_555 1_555
C10_2 C11_2 1_555 1_555
C11_2 C12_2 1_555 1_555
C15_2 C16_2 1_555 1_555
C17_2 C18_2 1_555 1_555
C27 C28_2 1_555 1_555
O18_3 C33_3 1_555 1_555
O20_3 C34_3 1_555 1_555
C33_3 C34_3 1_555 1_555
H9_3 C19_3 1_555 1_555
C20_3 C19_3 1_555 1_555
H10_3 C20_3 1_555 1_555
C21_3 C20_3 1_555 1_555
H11_3 C21_3 1_555 1_555
C22_3 C21_3 1_555 1_555
C29_3 C22_3 1_555 1_555
H15_2 C29_3 1_555 1_555
C30_2 C25_2 1_555 1_555
H16_2 C30_2 1_555 1_555
O26_2 C35_3 1_555 1_555
O28_2 C36_3 1_555 1_555
C35_3 O21_3 1_555 1_555
C22_3 C23_3 1_555 1_555
C29_3 C30_2 1_555 1_555
C35_3 C36_3 1_555 1_555
Cu1_3 O2_3 1_555 1_555
Cr1_4 O1_4 1_555 1_555
O1_4 C1_3 1_555 1_555
O2_3 C1_3 1_555 1_555
O3_4 Cr1_4 1_555 1_555
O4_3 Cu1_3 1_555 1_555
O5_4 Cr1_4 1_555 1_555
O6_4 C3_4 1_555 1_555
O7_4 Cr1_4 1_555 1_555
O8_4 C4_4 1_555 1_555
O9_4 Cr1_4 1_555 1_555
O25_2 C5_4 1_555 1_555
O11_4 Cr1_4 1_555 1_555
O27_2 C6_4 1_555 1_555
C1_3 C2_4 1_555 1_555
C2_4 O3_4 1_555 1_555
C3_4 O5_4 1_555 1_555
C4_4 O7_4 1_555 1_555
C5_4 O9_4 1_555 1_555
C6_4 O11_4 1_555 1_555
N1_3 Cu1_3 1_555 1_555
N2_3 Cu1_3 1_555 1_555
N3_3 Cu1_3 1_555 1_555
N4_3 Cu1_3 1_555 1_555
C7_3 N1_3 1_555 1_555
H1_3 C7_3 1_555 1_555
C8_3 C7_3 1_555 1_555
H2_5 C8_3 1_555 1_555
C9_3 C8_3 1_555 1_555
H3_3 C9_3 1_555 1_555
C10_3 C9_3 1_555 1_555
C11_3 N1_3 1_555 1_555
C12_3 N2_3 1_555 1_555
C13_3 C12_3 1_555 1_555
C14_3 C13_3 1_555 1_555
H4_3 C14_3 1_555 1_555
C15_3 C14_3 1_555 1_555
H5_3 C15_3 1_555 1_555
C16_3 N2_3 1_555 1_555
H6_3 C16_3 1_555 1_555
C17_3 C13_3 1_555 1_555
H7_3 C17_3 1_555 1_555
C18_3 C10_3 1_555 1_555
H8_3 C18_3 1_555 1_555
C19_4 N3_3 1_555 1_555
H9_4 C19_4 1_555 1_555
C20_4 C19_4 1_555 1_555
H10_4 C20_4 1_555 1_555
C21_4 C20_4 1_555 1_555
H11_4 C21_4 1_555 1_555
C22_4 C21_4 1_555 1_555
C23_4 N3_3 1_555 1_555
C24_3 N4_3 1_555 1_555
C28_3 N4_3 1_555 1_555
H14_3 C28_3 1_555 1_555
C29_4 C22_4 1_555 1_555
Ca3 O6_4 1_555 1_555
Cu2_3 O14_3 1_555 1_555
Cr2_4 O13_4 1_555 1_555
O13_4 C31_3 1_555 1_555
O14_3 C31_3 1_555 1_555
O15_4 Cr2_4 1_555 1_555
O16_3 Cu2_3 1_555 1_555
O17_4 Cr2_4 1_555 1_555
O18_4 Ca3 1_555 1_555
O19_4 Cr2_4 1_555 1_555
O20_4 Ca3 1_555 1_555
O21_4 Cr2_4 1_555 1_555
O26 C35_4 1_555 1_555
O23_4 Cr2_4 1_555 1_555
O28 C36_4 1_555 1_555
C31_3 C32_4 1_555 1_555
C32_4 O15_4 1_555 1_555
C33_4 O17_4 1_555 1_555
C34_4 O19_4 1_555 1_555
C35_4 O21_4 1_555 1_555
C36_4 O23_4 1_555 1_555
N5_3 Cu2_3 1_555 1_555
N6_3 Cu2_3 1_555 1_555
N7_3 Cu2_3 1_555 1_555
N8_3 Cu2_3 1_555 1_555
C37_3 N5_3 1_555 1_555
H17_3 C37_3 1_555 1_555
C38_3 C37_3 1_555 1_555
H18_5 C38_3 1_555 1_555
C39_3 C38_3 1_555 1_555
H19_3 C39_3 1_555 1_555
C40_3 C39_3 1_555 1_555
C41_3 N5_3 1_555 1_555
C42_3 N6_3 1_555 1_555
C43_3 C42_3 1_555 1_555
C44_3 C43_3 1_555 1_555
H20_3 C44_3 1_555 1_555
C45_3 C44_3 1_555 1_555
H21_3 C45_3 1_555 1_555
C46_3 N6_3 1_555 1_555
H22_3 C46_3 1_555 1_555
C47_3 C43_3 1_555 1_555
H23_3 C47_3 1_555 1_555
C48_3 C40_3 1_555 1_555
H24_3 C48_3 1_555 1_555
C49_3 N7_3 1_555 1_555
H25_3 C49_3 1_555 1_555
C50_3 C49_3 1_555 1_555
H26_3 C50_3 1_555 1_555
C51_3 C50_3 1_555 1_555
H27_3 C51_3 1_555 1_555
C52_3 C51_3 1_555 1_555
C53_3 N7_3 1_555 1_555
C54_3 N8_3 1_555 1_555
C58_3 N8_3 1_555 1_555
H30_3 C58_3 1_555 1_555
C59_3 C52_3 1_555 1_555
O4_3 C2_4 1_555 1_555
O8_4 Ca3 1_555 1_555
C3_4 C4_4 1_555 1_555
C5_4 C6_4 1_555 1_555
C10_3 C11_3 1_555 1_555
C11_3 C12_3 1_555 1_555
C15_3 C16_3 1_555 1_555
C17_3 C18_3 1_555 1_555
C22_4 C23_4 1_555 1_555
C23_4 C24_3 1_555 1_555
O16_3 C32_4 1_555 1_555
O18_4 C33_4 1_555 1_555
O20_4 C34_4 1_555 1_555
C33_4 C34_4 1_555 1_555
C35_4 C36_4 1_555 1_555
C40_3 C41_3 1_555 1_555
C41_3 C42_3 1_555 1_555
C45_3 C46_3 1_555 1_555
C47_3 C48_3 1_555 1_555
C52_3 C53_3 1_555 1_555
C53_3 C54_3 1_555 1_555
Cu1_4 O2_4 1_555 1_555
O2_4 C1_4 1_555 1_555
O4_4 Cu1_4 1_555 1_555
N1_4 Cu1_4 1_555 1_555
N2_4 Cu1_4 1_555 1_555
N3_4 Cu1_4 1_555 1_555
N4_4 Cu1_4 1_555 1_555
C7_4 N1_4 1_555 1_555
H1_4 C7_4 1_555 1_555
C8_4 C7_4 1_555 1_555
H2_6 C8_4 1_555 1_555
C9_4 C8_4 1_555 1_555
H3_4 C9_4 1_555 1_555
C10_4 C9_4 1_555 1_555
C11_4 N1_4 1_555 1_555
C12_4 N2_4 1_555 1_555
C13_4 C12_4 1_555 1_555
C14_4 C13_4 1_555 1_555
H4_4 C14_4 1_555 1_555
C15_4 C14_4 1_555 1_555
H5_4 C15_4 1_555 1_555
C16_4 N2_4 1_555 1_555
H6_4 C16_4 1_555 1_555
C17_4 C13_4 1_555 1_555
H7_4 C17_4 1_555 1_555
C18_4 C10_4 1_555 1_555
H8_4 C18_4 1_555 1_555
C24_4 N4_4 1_555 1_555
C27_2 C26_2 1_555 1_555
C28_4 N4_4 1_555 1_555
H14_4 C28_4 1_555 1_555
C10_4 C11_4 1_555 1_555
C11_4 C12_4 1_555 1_555
C15_4 C16_4 1_555 1_555
C17_4 C18_4 1_555 1_555
C27_2 C28_4 1_555 1_555
C26_3 C25_3 1_555 1_555
H12_3 C26_3 1_555 1_555
C27_3 C26_3 1_555 1_555
H13_3 C27_3 1_555 1_555
C30_3 C25_3 1_555 1_555
H16_3 C30_3 1_555 1_555
C56_2 C55_2 1_555 1_555
H28_2 C56_2 1_555 1_555
C57_2 C56_2 1_555 1_555
H29_3 C57_2 1_555 1_555
C60_2 C55_2 1_555 1_555
H32_2 C60_2 1_555 1_555
H25_4 C49_4 1_555 1_555
C50_4 C49_4 1_555 1_555
H26_4 C50_4 1_555 1_555
C51_4 C50_4 1_555 1_555
H27_4 C51_4 1_555 1_555
C52_4 C51_4 1_555 1_555
C59_4 C52_4 1_555 1_555
H31_3 C59_4 1_555 1_555
C60_3 C55_3 1_555 1_555
H32_3 C60_3 1_555 1_555
C52_4 C53_4 1_555 1_555
C59_4 C60_3 1_555 1_555
Cu2_4 O14_4 1_555 1_555
O14_4 C31_4 1_555 1_555
O16_4 Cu2_4 1_555 1_555
N5_4 Cu2_4 1_555 1_555
N6_4 Cu2_4 1_555 1_555
N7_4 Cu2_4 1_555 1_555
N8_4 Cu2_4 1_555 1_555
C37_4 N5_4 1_555 1_555
H17_4 C37_4 1_555 1_555
C38_4 C37_4 1_555 1_555
H18_6 C38_4 1_555 1_555
C39_4 C38_4 1_555 1_555
H19_4 C39_4 1_555 1_555
C40_4 C39_4 1_555 1_555
C41_4 N5_4 1_555 1_555
C42_4 N6_4 1_555 1_555
C43_4 C42_4 1_555 1_555
C44_4 C43_4 1_555 1_555
H20_4 C44_4 1_555 1_555
C45_4 C44_4 1_555 1_555
H21_4 C45_4 1_555 1_555
C46_4 N6_4 1_555 1_555
H22_4 C46_4 1_555 1_555
C47_4 C43_4 1_555 1_555
H23_4 C47_4 1_555 1_555
C48_4 C40_4 1_555 1_555
H24_4 C48_4 1_555 1_555
C54_4 N8_4 1_555 1_555
C57_3 C56_3 1_555 1_555
C58_4 N8_4 1_555 1_555
H30_4 C58_4 1_555 1_555
C40_4 C41_4 1_555 1_555
C41_4 C42_4 1_555 1_555
C45_4 C46_4 1_555 1_555
C47_4 C48_4 1_555 1_555
C57_3 C58_4 1_555 1_555
C56_4 C55_4 1_555 1_555
H28_4 C56_4 1_555 1_555
C57_4 C56_4 1_555 1_555
H29_4 C57_4 1_555 1_555
C60_4 C55_4 1_555 1_555
H32_4 C60_4 1_555 1_555
C26_4 C25_4 1_555 1_555
H12_4 C26_4 1_555 1_555
C27_4 C26_4 1_555 1_555
H13_4 C27_4 1_555 1_555
C30_4 C25_4 1_555 1_555
H16_4 C30_4 1_555 1_555

#END
