
###############################################################################
#
# This file contains modified crystal structure data generated from the
# MOF subset of the Cambridge Structural Database (CSD) v543 
# hosted by the Cambridge Crystallographic Data Centre (CCDC).
#
# This work is licensed under the Creative Commons
# Attribution-NonCommercial-ShareAlike 4.0 International License.
# To view a copy of this license, visit
# http://creativecommons.org/licenses/by-nc-sa/4.0/
# or send a letter to
# Creative Commons, PO Box 1866, Mountain View, CA 94042, USA.
#
# CIF created using the CSD Python API on 29 September 2022
# The structure has been converted into the P1 space group
# The structure has a 3D framework
# The original CSD entry FALTUK is in the tetragonal crystal system
# The framework has been calculated to contain at least 10.0% void space
# The void calculation uses a probe of radius 1.32A, grid spacing 0.4
#
###############################################################################

data_FALTUK
_chemical_formula_moiety         '(C200 H92 Cu6 N16 O80)n'
_symmetry_cell_setting           triclinic
_symmetry_space_group_name_H-M   'P 1'
_symmetry_Int_Tables_number      1
_space_group_name_Hall           'P 1'
loop_
_symmetry_equiv_pos_site_id
_symmetry_equiv_pos_as_xyz
1 x,y,z
_cell_length_a                   18.7721(4)
_cell_length_b                   18.7721(4)
_cell_length_c                   34.7704(14)
_cell_angle_alpha                90
_cell_angle_beta                 90
_cell_angle_gamma                90
_cell_volume                     12252.8
loop_
_atom_site_label
_atom_site_type_symbol
_atom_site_fract_x
_atom_site_fract_y
_atom_site_fract_z
_atom_site_U_iso_or_equiv
_atom_site_thermal_displace_type
C1 C 0.0087(7) 0.4620(4) 0.000 0.0456 Uiso
C2 C 0.0215(5) 0.4269(3) 0.03493(12) 0.0456 Uiso
C3 C 0.0471(5) 0.3567(3) 0.03493(12) 0.0456 Uiso
C4 C 0.0599(7) 0.3217(4) 0.000 0.0456 Uiso
H1 H 0.0130(6) 0.4502(3) 0.05809(12) 0.0684 Uiso
H2 H 0.0769(11) 0.2751(5) 0.000 0.0684 Uiso
C5 C 0.0590(6) 0.3170(7) 0.07186(18) 0.0184 Uiso
O1 O 0.116(4) 0.280(7) 0.0783(9) 0.0184 Uiso
N1 N 0.012(3) 0.334(5) 0.0986(7) 0.0184 Uiso
C6 C 0.0123(4) 0.3070(3) 0.13817(14) 0.0184 Uiso
C9 C 0.0137(5) 0.2662(5) 0.2157(2) 0.0184 Uiso
C10 C 0.0778(5) 0.2719(5) 0.1953(2) 0.0184 Uiso
C11 C 0.0771(4) 0.2923(5) 0.15652(16) 0.0184 Uiso
H5 H 0.0141(6) 0.2527(6) 0.2414(2) 0.0279 Uiso
H6 H 0.1197(4) 0.2960(7) 0.14298(19) 0.0279 Uiso
C13 C 0.1459(7) 0.2563(7) 0.2146(3) 0.0184 Uiso
O4 O 0.2049(9) 0.2732(12) 0.1970(5) 0.0184 Uiso
O5 O 0.1443(11) 0.2264(10) 0.2484(4) 0.0184 Uiso
H9 H 0.019(6) 0.635(9) 0.0923(13) 0.0279 Uiso
C20 C 0.0517(4) 0.6986(6) 0.15857(16) 0.0184 Uiso
C21 C 0.0511(5) 0.7190(7) 0.1973(2) 0.0184 Uiso
H10 H 0.0947(4) 0.6888(7) 0.14638(19) 0.0279 Uiso
C25 C 0.1185(7) 0.7250(11) 0.2188(3) 0.0184 Uiso
O7 O 0.1764(9) 0.7001(15) 0.2030(5) 0.0184 Uiso
O8 O 0.1175(11) 0.7549(14) 0.2526(4) 0.0184 Uiso
Cu2 Cu 0.2604(7) 0.7041(6) 0.2230(4) 0.0184 Uiso
Cu4 Cu 0.2959(6) 0.2604(7) 0.2230(4) 0.0184 Uiso
O21 O 0.2999(15) 0.1764(9) 0.2030(5) 0.0184 Uiso
O23 O 0.2549(14) 0.6175(11) 0.2474(4) 0.0184 Uiso
O25 O 0.3825(11) 0.2549(14) 0.2474(4) 0.0184 Uiso
O27 O 0.2732(12) 0.7951(9) 0.1970(5) 0.0184 Uiso
O29 O 0.3557(11) 0.7264(10) 0.2516(4) 0.0184 Uiso
O31 O 0.2736(10) 0.3557(11) 0.2516(4) 0.0184 Uiso
Cu9 Cu 0.2041(6) 0.7604(7) 0.2770(4) 0.0184 Uiso
Cu15 Cu 0.2396(7) 0.2041(6) 0.2770(4) 0.0184 Uiso
C1_2 C 0.0087(7) 0.4620(4) 1.000 0.0456 Uiso
C4_2 C 0.0599(7) 0.3217(4) 1.000 0.0456 Uiso
H2_2 H 0.0769(11) 0.2751(5) 1.000 0.0684 Uiso
C27 C 0.0215(5) 0.4269(3) 0.96507(12) 0.0456 Uiso
C28 C 0.0471(5) 0.3567(3) 0.96507(12) 0.0456 Uiso
H13 H 0.0130(6) 0.4502(3) 0.94191(12) 0.0684 Uiso
C29 C 0.0590(6) 0.3170(7) 0.92814(18) 0.0184 Uiso
O11 O 0.116(4) 0.280(7) 0.9217(9) 0.0184 Uiso
N3 N 0.012(3) 0.334(5) 0.9014(7) 0.0184 Uiso
C30 C 0.0123(4) 0.3070(3) 0.86183(14) 0.0184 Uiso
C33 C 0.0137(5) 0.2662(5) 0.7843(2) 0.0184 Uiso
C34 C 0.0778(5) 0.2719(5) 0.8047(2) 0.0184 Uiso
C35 C 0.0771(4) 0.2923(5) 0.84348(16) 0.0184 Uiso
H16 H 0.0141(6) 0.2527(6) 0.7586(2) 0.0279 Uiso
H17 H 0.1197(4) 0.2960(7) 0.85702(19) 0.0279 Uiso
C37 C 0.1459(7) 0.2563(7) 0.7854(3) 0.0184 Uiso
O14 O 0.2049(9) 0.2732(12) 0.8030(5) 0.0184 Uiso
O15 O 0.1443(11) 0.2264(10) 0.7516(4) 0.0184 Uiso
H19 H 0.019(6) 0.635(9) 0.9077(13) 0.0279 Uiso
C42 C 0.0517(4) 0.6986(6) 0.84143(16) 0.0184 Uiso
C43 C 0.0511(5) 0.7190(7) 0.8027(2) 0.0184 Uiso
H20 H 0.0947(4) 0.6888(7) 0.85362(19) 0.0279 Uiso
C47 C 0.1185(7) 0.7250(11) 0.7812(3) 0.0184 Uiso
O17 O 0.1764(9) 0.7001(15) 0.7970(5) 0.0184 Uiso
O18 O 0.1175(11) 0.7549(14) 0.7474(4) 0.0184 Uiso
Cu10 Cu 0.2041(6) 0.7604(7) 0.7230(4) 0.0184 Uiso
Cu11 Cu 0.2959(6) 0.2604(7) 0.7770(4) 0.0184 Uiso
Cu14 Cu 0.2604(7) 0.7041(6) 0.7770(4) 0.0184 Uiso
Cu16 Cu 0.2396(7) 0.2041(6) 0.7230(4) 0.0184 Uiso
H3 H 0.981(6) 0.365(9) 0.0923(13) 0.0279 Uiso
C7 C 0.9483(4) 0.3014(6) 0.15857(16) 0.0184 Uiso
C8 C 0.9489(5) 0.2810(7) 0.1973(2) 0.0184 Uiso
H4 H 0.9053(4) 0.3112(7) 0.14638(19) 0.0279 Uiso
C12 C 0.8815(7) 0.2750(11) 0.2188(3) 0.0184 Uiso
O2 O 0.8236(9) 0.2999(15) 0.2030(5) 0.0184 Uiso
O3 O 0.8825(11) 0.2451(14) 0.2526(4) 0.0184 Uiso
Cu1 Cu 0.7396(7) 0.2959(6) 0.2230(4) 0.0184 Uiso
C14 C 0.9913(7) 0.5380(4) 0.000 0.0456 Uiso
C15 C 0.9785(5) 0.5731(3) 0.03493(12) 0.0456 Uiso
C16 C 0.9529(5) 0.6433(3) 0.03493(12) 0.0456 Uiso
C17 C 0.9401(7) 0.6783(4) 0.000 0.0456 Uiso
H7 H 0.9870(6) 0.5498(3) 0.05809(12) 0.0684 Uiso
H8 H 0.9231(11) 0.7249(5) 0.000 0.0684 Uiso
C18 C 0.9410(6) 0.6830(7) 0.07186(18) 0.0184 Uiso
O6 O 0.884(4) 0.720(7) 0.0783(9) 0.0184 Uiso
N2 N 0.988(3) 0.666(5) 0.0986(7) 0.0184 Uiso
C19 C 0.9877(4) 0.6930(3) 0.13817(14) 0.0184 Uiso
C22 C 0.9863(5) 0.7338(5) 0.2157(2) 0.0184 Uiso
C23 C 0.9222(5) 0.7281(5) 0.1953(2) 0.0184 Uiso
C24 C 0.9229(4) 0.7077(5) 0.15652(16) 0.0184 Uiso
H11 H 0.9859(6) 0.7473(6) 0.2414(2) 0.0279 Uiso
H12 H 0.8803(4) 0.7040(7) 0.14298(19) 0.0279 Uiso
C26 C 0.8541(7) 0.7437(7) 0.2146(3) 0.0184 Uiso
O9 O 0.7951(9) 0.7268(12) 0.1970(5) 0.0184 Uiso
O10 O 0.8557(11) 0.7736(10) 0.2484(4) 0.0184 Uiso
Cu3 Cu 0.7959(6) 0.2396(7) 0.2770(4) 0.0184 Uiso
O22 O 0.7999(15) 0.3236(9) 0.2970(5) 0.0184 Uiso
O24 O 0.7451(14) 0.3825(11) 0.2474(4) 0.0184 Uiso
O26 O 0.7268(12) 0.2049(9) 0.1970(5) 0.0184 Uiso
O28 O 0.7049(9) 0.2268(12) 0.3030(5) 0.0184 Uiso
O30 O 0.7736(10) 0.1443(11) 0.2484(4) 0.0184 Uiso
O32 O 0.6443(11) 0.2736(10) 0.2516(4) 0.0184 Uiso
Cu5 Cu 0.7604(7) 0.7959(6) 0.2770(4) 0.0184 Uiso
Cu8 Cu 0.7041(6) 0.7396(7) 0.2230(4) 0.0184 Uiso
C14_2 C 0.9913(7) 0.5380(4) 1.000 0.0456 Uiso
C17_2 C 0.9401(7) 0.6783(4) 1.000 0.0456 Uiso
H8_2 H 0.9231(11) 0.7249(5) 1.000 0.0684 Uiso
H14 H 0.981(6) 0.365(9) 0.9077(13) 0.0279 Uiso
C31 C 0.9483(4) 0.3014(6) 0.84143(16) 0.0184 Uiso
C32 C 0.9489(5) 0.2810(7) 0.8027(2) 0.0184 Uiso
H15 H 0.9053(4) 0.3112(7) 0.85362(19) 0.0279 Uiso
C36 C 0.8815(7) 0.2750(11) 0.7812(3) 0.0184 Uiso
O12 O 0.8236(9) 0.2999(15) 0.7970(5) 0.0184 Uiso
O13 O 0.8825(11) 0.2451(14) 0.7474(4) 0.0184 Uiso
C38 C 0.9785(5) 0.5731(3) 0.96507(12) 0.0456 Uiso
C39 C 0.9529(5) 0.6433(3) 0.96507(12) 0.0456 Uiso
H18 H 0.9870(6) 0.5498(3) 0.94191(12) 0.0684 Uiso
C40 C 0.9410(6) 0.6830(7) 0.92814(18) 0.0184 Uiso
O16 O 0.884(4) 0.720(7) 0.9217(9) 0.0184 Uiso
N4 N 0.988(3) 0.666(5) 0.9014(7) 0.0184 Uiso
C41 C 0.9877(4) 0.6930(3) 0.86183(14) 0.0184 Uiso
C44 C 0.9863(5) 0.7338(5) 0.7843(2) 0.0184 Uiso
C45 C 0.9222(5) 0.7281(5) 0.8047(2) 0.0184 Uiso
C46 C 0.9229(4) 0.7077(5) 0.84348(16) 0.0184 Uiso
H21 H 0.9859(6) 0.7473(6) 0.7586(2) 0.0279 Uiso
H22 H 0.8803(4) 0.7040(7) 0.85702(19) 0.0279 Uiso
C48 C 0.8541(7) 0.7437(7) 0.7854(3) 0.0184 Uiso
O19 O 0.7951(9) 0.7268(12) 0.8030(5) 0.0184 Uiso
O20 O 0.8557(11) 0.7736(10) 0.7516(4) 0.0184 Uiso
Cu6 Cu 0.7604(7) 0.7959(6) 0.7230(4) 0.0184 Uiso
Cu7 Cu 0.7041(6) 0.7396(7) 0.7770(4) 0.0184 Uiso
Cu12 Cu 0.7959(6) 0.2396(7) 0.7230(4) 0.0184 Uiso
Cu13 Cu 0.7396(7) 0.2959(6) 0.7770(4) 0.0184 Uiso
O22_2 O 0.2001(15) 0.6764(9) 0.2970(5) 0.0184 Uiso
O28_2 O 0.2951(9) 0.7732(12) 0.3030(5) 0.0184 Uiso
O30_2 O 0.2264(10) 0.8557(11) 0.2484(4) 0.0184 Uiso
O21_2 O 0.7001(15) 0.8236(9) 0.2030(5) 0.0184 Uiso
O25_2 O 0.6175(11) 0.7451(14) 0.2474(4) 0.0184 Uiso
O31_2 O 0.7264(10) 0.6443(11) 0.2516(4) 0.0184 Uiso
C14_3 C 0.5087(7) 0.0380(4) 0.500 0.0456 Uiso
C15_2 C 0.5215(5) 0.0731(3) 0.46507(12) 0.0456 Uiso
C16_2 C 0.5471(5) 0.1433(3) 0.46507(12) 0.0456 Uiso
C17_3 C 0.5599(7) 0.1783(4) 0.500 0.0456 Uiso
H7_2 H 0.5130(6) 0.0498(3) 0.44191(12) 0.0684 Uiso
H8_3 H 0.5769(11) 0.2249(5) 0.500 0.0684 Uiso
C18_2 C 0.5590(6) 0.1830(7) 0.42814(18) 0.0184 Uiso
O6_2 O 0.616(4) 0.220(7) 0.4217(9) 0.0184 Uiso
N2_2 N 0.512(3) 0.166(5) 0.4014(7) 0.0184 Uiso
H9_2 H 0.481(6) 0.135(9) 0.4077(13) 0.0279 Uiso
C19_2 C 0.5123(4) 0.1930(3) 0.36183(14) 0.0184 Uiso
C20_2 C 0.4483(4) 0.1986(6) 0.34143(16) 0.0184 Uiso
C21_2 C 0.4489(5) 0.2190(7) 0.3027(2) 0.0184 Uiso
C22_2 C 0.5137(5) 0.2338(5) 0.2843(2) 0.0184 Uiso
C23_2 C 0.5778(5) 0.2281(5) 0.3047(2) 0.0184 Uiso
C24_2 C 0.5771(4) 0.2077(5) 0.34348(16) 0.0184 Uiso
H10_2 H 0.4053(4) 0.1888(7) 0.35362(19) 0.0279 Uiso
H11_2 H 0.5141(6) 0.2473(6) 0.2586(2) 0.0279 Uiso
H12_2 H 0.6197(4) 0.2040(7) 0.35702(19) 0.0279 Uiso
C25_2 C 0.3815(7) 0.2250(11) 0.2812(3) 0.0184 Uiso
O7_2 O 0.3236(9) 0.2001(15) 0.2970(5) 0.0184 Uiso
C26_2 C 0.6459(7) 0.2437(7) 0.2854(3) 0.0184 Uiso
C38_2 C 0.5215(5) 0.0731(3) 0.53493(12) 0.0456 Uiso
C39_2 C 0.5471(5) 0.1433(3) 0.53493(12) 0.0456 Uiso
H18_2 H 0.5130(6) 0.0498(3) 0.55809(12) 0.0684 Uiso
C40_2 C 0.5590(6) 0.1830(7) 0.57186(18) 0.0184 Uiso
O16_2 O 0.616(4) 0.220(7) 0.5783(9) 0.0184 Uiso
N4_2 N 0.512(3) 0.166(5) 0.5986(7) 0.0184 Uiso
H19_2 H 0.481(6) 0.135(9) 0.5923(13) 0.0279 Uiso
C41_2 C 0.5123(4) 0.1930(3) 0.63817(14) 0.0184 Uiso
C42_2 C 0.4483(4) 0.1986(6) 0.65857(16) 0.0184 Uiso
C43_2 C 0.4489(5) 0.2190(7) 0.6973(2) 0.0184 Uiso
C44_2 C 0.5137(5) 0.2338(5) 0.7157(2) 0.0184 Uiso
C45_2 C 0.5778(5) 0.2281(5) 0.6953(2) 0.0184 Uiso
C46_2 C 0.5771(4) 0.2077(5) 0.65652(16) 0.0184 Uiso
H20_2 H 0.4053(4) 0.1888(7) 0.64638(19) 0.0279 Uiso
H21_2 H 0.5141(6) 0.2473(6) 0.7414(2) 0.0279 Uiso
H22_2 H 0.6197(4) 0.2040(7) 0.64298(19) 0.0279 Uiso
C47_2 C 0.3815(7) 0.2250(11) 0.7188(3) 0.0184 Uiso
O17_2 O 0.3236(9) 0.2001(15) 0.7030(5) 0.0184 Uiso
O18_2 O 0.3825(11) 0.2549(14) 0.7526(4) 0.0184 Uiso
C48_2 C 0.6459(7) 0.2437(7) 0.7146(3) 0.0184 Uiso
O19_2 O 0.7049(9) 0.2268(12) 0.6970(5) 0.0184 Uiso
O20_2 O 0.6443(11) 0.2736(10) 0.7484(4) 0.0184 Uiso
O23_2 O 0.2451(14) 0.1175(11) 0.2526(4) 0.0184 Uiso
O27_2 O 0.2268(12) 0.2951(9) 0.3030(5) 0.0184 Uiso
C1_3 C 0.4913(7) 0.9620(4) 0.500 0.0456 Uiso
C2_2 C 0.4785(5) 0.9269(3) 0.46507(12) 0.0456 Uiso
C3_2 C 0.4529(5) 0.8567(3) 0.46507(12) 0.0456 Uiso
C4_3 C 0.4401(7) 0.8217(4) 0.500 0.0456 Uiso
H1_2 H 0.4870(6) 0.9502(3) 0.44191(12) 0.0684 Uiso
H2_3 H 0.4231(11) 0.7751(5) 0.500 0.0684 Uiso
C5_2 C 0.4410(6) 0.8170(7) 0.42814(18) 0.0184 Uiso
O1_2 O 0.384(4) 0.780(7) 0.4217(9) 0.0184 Uiso
N1_2 N 0.488(3) 0.834(5) 0.4014(7) 0.0184 Uiso
H3_2 H 0.519(6) 0.865(9) 0.4077(13) 0.0279 Uiso
C6_2 C 0.4877(4) 0.8070(3) 0.36183(14) 0.0184 Uiso
C7_2 C 0.5517(4) 0.8014(6) 0.34143(16) 0.0184 Uiso
C8_2 C 0.5511(5) 0.7810(7) 0.3027(2) 0.0184 Uiso
C9_2 C 0.4863(5) 0.7662(5) 0.2843(2) 0.0184 Uiso
C10_2 C 0.4222(5) 0.7719(5) 0.3047(2) 0.0184 Uiso
C11_2 C 0.4229(4) 0.7923(5) 0.34348(16) 0.0184 Uiso
H4_2 H 0.5947(4) 0.8112(7) 0.35362(19) 0.0279 Uiso
H5_2 H 0.4859(6) 0.7527(6) 0.2586(2) 0.0279 Uiso
H6_2 H 0.3803(4) 0.7960(7) 0.35702(19) 0.0279 Uiso
C12_2 C 0.6185(7) 0.7750(11) 0.2812(3) 0.0184 Uiso
O2_2 O 0.6764(9) 0.7999(15) 0.2970(5) 0.0184 Uiso
C13_2 C 0.3541(7) 0.7563(7) 0.2854(3) 0.0184 Uiso
C27_2 C 0.4785(5) 0.9269(3) 0.53493(12) 0.0456 Uiso
C28_2 C 0.4529(5) 0.8567(3) 0.53493(12) 0.0456 Uiso
H13_2 H 0.4870(6) 0.9502(3) 0.55809(12) 0.0684 Uiso
C29_2 C 0.4410(6) 0.8170(7) 0.57186(18) 0.0184 Uiso
O11_2 O 0.384(4) 0.780(7) 0.5783(9) 0.0184 Uiso
N3_2 N 0.488(3) 0.834(5) 0.5986(7) 0.0184 Uiso
H14_2 H 0.519(6) 0.865(9) 0.5923(13) 0.0279 Uiso
C30_2 C 0.4877(4) 0.8070(3) 0.63817(14) 0.0184 Uiso
C31_2 C 0.5517(4) 0.8014(6) 0.65857(16) 0.0184 Uiso
C32_2 C 0.5511(5) 0.7810(7) 0.6973(2) 0.0184 Uiso
C33_2 C 0.4863(5) 0.7662(5) 0.7157(2) 0.0184 Uiso
C34_2 C 0.4222(5) 0.7719(5) 0.6953(2) 0.0184 Uiso
C35_2 C 0.4229(4) 0.7923(5) 0.65652(16) 0.0184 Uiso
H15_2 H 0.5947(4) 0.8112(7) 0.64638(19) 0.0279 Uiso
H16_2 H 0.4859(6) 0.7527(6) 0.7414(2) 0.0279 Uiso
H17_2 H 0.3803(4) 0.7960(7) 0.64298(19) 0.0279 Uiso
C36_2 C 0.6185(7) 0.7750(11) 0.7188(3) 0.0184 Uiso
O12_2 O 0.6764(9) 0.7999(15) 0.7030(5) 0.0184 Uiso
O13_2 O 0.6175(11) 0.7451(14) 0.7526(4) 0.0184 Uiso
C37_2 C 0.3541(7) 0.7563(7) 0.7146(3) 0.0184 Uiso
O14_2 O 0.2951(9) 0.7732(12) 0.6970(5) 0.0184 Uiso
O15_2 O 0.3557(11) 0.7264(10) 0.7484(4) 0.0184 Uiso
O24_2 O 0.7549(14) 0.8825(11) 0.2526(4) 0.0184 Uiso
O26_2 O 0.7732(12) 0.7049(9) 0.3030(5) 0.0184 Uiso
C1_4 C 0.5380(4) 0.0087(7) 0.000 0.0456 Uiso
C2_3 C 0.5731(3) 0.0215(5) 0.03493(12) 0.0456 Uiso
C3_3 C 0.6433(3) 0.0471(5) 0.03493(12) 0.0456 Uiso
C4_4 C 0.6783(4) 0.0599(7) 0.000 0.0456 Uiso
H1_3 H 0.5498(3) 0.0130(6) 0.05809(12) 0.0684 Uiso
H2_4 H 0.7249(5) 0.0769(11) 0.000 0.0684 Uiso
C5_3 C 0.6830(7) 0.0590(6) 0.07186(18) 0.0184 Uiso
O1_3 O 0.720(7) 0.116(4) 0.0783(9) 0.0184 Uiso
N1_3 N 0.666(5) 0.012(3) 0.0986(7) 0.0184 Uiso
C6_3 C 0.6930(3) 0.0123(4) 0.13817(14) 0.0184 Uiso
C9_3 C 0.7338(5) 0.0137(5) 0.2157(2) 0.0184 Uiso
C10_3 C 0.7281(5) 0.0778(5) 0.1953(2) 0.0184 Uiso
C11_3 C 0.7077(5) 0.0771(4) 0.15652(16) 0.0184 Uiso
H5_3 H 0.7473(6) 0.0141(6) 0.2414(2) 0.0279 Uiso
H6_3 H 0.7040(7) 0.1197(4) 0.14298(19) 0.0279 Uiso
C13_3 C 0.7437(7) 0.1459(7) 0.2146(3) 0.0184 Uiso
H9_3 H 0.365(9) 0.019(6) 0.0923(13) 0.0279 Uiso
C20_3 C 0.3014(6) 0.0517(4) 0.15857(16) 0.0184 Uiso
C21_3 C 0.2810(7) 0.0511(5) 0.1973(2) 0.0184 Uiso
H10_3 H 0.3112(7) 0.0947(4) 0.14638(19) 0.0279 Uiso
C25_3 C 0.2750(11) 0.1185(7) 0.2188(3) 0.0184 Uiso
C1_5 C 0.5380(4) 0.0087(7) 1.000 0.0456 Uiso
C4_5 C 0.6783(4) 0.0599(7) 1.000 0.0456 Uiso
H2_5 H 0.7249(5) 0.0769(11) 1.000 0.0684 Uiso
C27_3 C 0.5731(3) 0.0215(5) 0.96507(12) 0.0456 Uiso
C28_3 C 0.6433(3) 0.0471(5) 0.96507(12) 0.0456 Uiso
H13_3 H 0.5498(3) 0.0130(6) 0.94191(12) 0.0684 Uiso
C29_3 C 0.6830(7) 0.0590(6) 0.92814(18) 0.0184 Uiso
O11_3 O 0.720(7) 0.116(4) 0.9217(9) 0.0184 Uiso
N3_3 N 0.666(5) 0.012(3) 0.9014(7) 0.0184 Uiso
C30_3 C 0.6930(3) 0.0123(4) 0.86183(14) 0.0184 Uiso
C33_3 C 0.7338(5) 0.0137(5) 0.7843(2) 0.0184 Uiso
C34_3 C 0.7281(5) 0.0778(5) 0.8047(2) 0.0184 Uiso
C35_3 C 0.7077(5) 0.0771(4) 0.84348(16) 0.0184 Uiso
H16_3 H 0.7473(6) 0.0141(6) 0.7586(2) 0.0279 Uiso
H17_3 H 0.7040(7) 0.1197(4) 0.85702(19) 0.0279 Uiso
C37_3 C 0.7437(7) 0.1459(7) 0.7854(3) 0.0184 Uiso
O14_3 O 0.7268(12) 0.2049(9) 0.8030(5) 0.0184 Uiso
O15_3 O 0.7736(10) 0.1443(11) 0.7516(4) 0.0184 Uiso
H19_3 H 0.365(9) 0.019(6) 0.9077(13) 0.0279 Uiso
C42_3 C 0.3014(6) 0.0517(4) 0.84143(16) 0.0184 Uiso
C43_3 C 0.2810(7) 0.0511(5) 0.8027(2) 0.0184 Uiso
H20_3 H 0.3112(7) 0.0947(4) 0.85362(19) 0.0279 Uiso
C47_3 C 0.2750(11) 0.1185(7) 0.7812(3) 0.0184 Uiso
O17_3 O 0.2999(15) 0.1764(9) 0.7970(5) 0.0184 Uiso
O18_3 O 0.2451(14) 0.1175(11) 0.7474(4) 0.0184 Uiso
H3_3 H 0.635(9) 0.981(6) 0.0923(13) 0.0279 Uiso
C7_3 C 0.6986(6) 0.9483(4) 0.15857(16) 0.0184 Uiso
C8_3 C 0.7190(7) 0.9489(5) 0.1973(2) 0.0184 Uiso
H4_3 H 0.6888(7) 0.9053(4) 0.14638(19) 0.0279 Uiso
C12_3 C 0.7250(11) 0.8815(7) 0.2188(3) 0.0184 Uiso
C14_4 C 0.4620(4) 0.9913(7) 0.000 0.0456 Uiso
C15_3 C 0.4269(3) 0.9785(5) 0.03493(12) 0.0456 Uiso
C16_3 C 0.3567(3) 0.9529(5) 0.03493(12) 0.0456 Uiso
C17_4 C 0.3217(4) 0.9401(7) 0.000 0.0456 Uiso
H7_3 H 0.4502(3) 0.9870(6) 0.05809(12) 0.0684 Uiso
H8_4 H 0.2751(5) 0.9231(11) 0.000 0.0684 Uiso
C18_3 C 0.3170(7) 0.9410(6) 0.07186(18) 0.0184 Uiso
O6_3 O 0.280(7) 0.884(4) 0.0783(9) 0.0184 Uiso
N2_3 N 0.334(5) 0.988(3) 0.0986(7) 0.0184 Uiso
C19_3 C 0.3070(3) 0.9877(4) 0.13817(14) 0.0184 Uiso
C22_3 C 0.2662(5) 0.9863(5) 0.2157(2) 0.0184 Uiso
C23_3 C 0.2719(5) 0.9222(5) 0.1953(2) 0.0184 Uiso
C24_3 C 0.2923(5) 0.9229(4) 0.15652(16) 0.0184 Uiso
H11_3 H 0.2527(6) 0.9859(6) 0.2414(2) 0.0279 Uiso
H12_3 H 0.2960(7) 0.8803(4) 0.14298(19) 0.0279 Uiso
C26_3 C 0.2563(7) 0.8541(7) 0.2146(3) 0.0184 Uiso
C14_5 C 0.4620(4) 0.9913(7) 1.000 0.0456 Uiso
C17_5 C 0.3217(4) 0.9401(7) 1.000 0.0456 Uiso
H8_5 H 0.2751(5) 0.9231(11) 1.000 0.0684 Uiso
H14_3 H 0.635(9) 0.981(6) 0.9077(13) 0.0279 Uiso
C31_3 C 0.6986(6) 0.9483(4) 0.84143(16) 0.0184 Uiso
C32_3 C 0.7190(7) 0.9489(5) 0.8027(2) 0.0184 Uiso
H15_3 H 0.6888(7) 0.9053(4) 0.85362(19) 0.0279 Uiso
C36_3 C 0.7250(11) 0.8815(7) 0.7812(3) 0.0184 Uiso
O12_3 O 0.7001(15) 0.8236(9) 0.7970(5) 0.0184 Uiso
O13_3 O 0.7549(14) 0.8825(11) 0.7474(4) 0.0184 Uiso
C38_3 C 0.4269(3) 0.9785(5) 0.96507(12) 0.0456 Uiso
C39_3 C 0.3567(3) 0.9529(5) 0.96507(12) 0.0456 Uiso
H18_3 H 0.4502(3) 0.9870(6) 0.94191(12) 0.0684 Uiso
C40_3 C 0.3170(7) 0.9410(6) 0.92814(18) 0.0184 Uiso
O16_3 O 0.280(7) 0.884(4) 0.9217(9) 0.0184 Uiso
N4_3 N 0.334(5) 0.988(3) 0.9014(7) 0.0184 Uiso
C41_3 C 0.3070(3) 0.9877(4) 0.86183(14) 0.0184 Uiso
C44_3 C 0.2662(5) 0.9863(5) 0.7843(2) 0.0184 Uiso
C45_3 C 0.2719(5) 0.9222(5) 0.8047(2) 0.0184 Uiso
C46_3 C 0.2923(5) 0.9229(4) 0.84348(16) 0.0184 Uiso
H21_3 H 0.2527(6) 0.9859(6) 0.7586(2) 0.0279 Uiso
H22_3 H 0.2960(7) 0.8803(4) 0.85702(19) 0.0279 Uiso
C48_3 C 0.2563(7) 0.8541(7) 0.7854(3) 0.0184 Uiso
O19_3 O 0.2732(12) 0.7951(9) 0.8030(5) 0.0184 Uiso
O20_3 O 0.2264(10) 0.8557(11) 0.7516(4) 0.0184 Uiso
C1_6 C 0.0380(4) 0.4913(7) 0.500 0.0456 Uiso
C2_4 C 0.0731(3) 0.4785(5) 0.46507(12) 0.0456 Uiso
C3_4 C 0.1433(3) 0.4529(5) 0.46507(12) 0.0456 Uiso
C4_6 C 0.1783(4) 0.4401(7) 0.500 0.0456 Uiso
H1_4 H 0.0498(3) 0.4870(6) 0.44191(12) 0.0684 Uiso
H2_6 H 0.2249(5) 0.4231(11) 0.500 0.0684 Uiso
C5_4 C 0.1830(7) 0.4410(6) 0.42814(18) 0.0184 Uiso
O1_4 O 0.220(7) 0.384(4) 0.4217(9) 0.0184 Uiso
N1_4 N 0.166(5) 0.488(3) 0.4014(7) 0.0184 Uiso
H3_4 H 0.135(9) 0.519(6) 0.4077(13) 0.0279 Uiso
C6_4 C 0.1930(3) 0.4877(4) 0.36183(14) 0.0184 Uiso
C7_4 C 0.1986(6) 0.5517(4) 0.34143(16) 0.0184 Uiso
C8_4 C 0.2190(7) 0.5511(5) 0.3027(2) 0.0184 Uiso
C9_4 C 0.2338(5) 0.4863(5) 0.2843(2) 0.0184 Uiso
C10_4 C 0.2281(5) 0.4222(5) 0.3047(2) 0.0184 Uiso
C11_4 C 0.2077(5) 0.4229(4) 0.34348(16) 0.0184 Uiso
H4_4 H 0.1888(7) 0.5947(4) 0.35362(19) 0.0279 Uiso
H5_4 H 0.2473(6) 0.4859(6) 0.2586(2) 0.0279 Uiso
H6_4 H 0.2040(7) 0.3803(4) 0.35702(19) 0.0279 Uiso
C12_4 C 0.2250(11) 0.6185(7) 0.2812(3) 0.0184 Uiso
C13_4 C 0.2437(7) 0.3541(7) 0.2854(3) 0.0184 Uiso
C27_4 C 0.0731(3) 0.4785(5) 0.53493(12) 0.0456 Uiso
C28_4 C 0.1433(3) 0.4529(5) 0.53493(12) 0.0456 Uiso
H13_4 H 0.0498(3) 0.4870(6) 0.55809(12) 0.0684 Uiso
C29_4 C 0.1830(7) 0.4410(6) 0.57186(18) 0.0184 Uiso
O11_4 O 0.220(7) 0.384(4) 0.5783(9) 0.0184 Uiso
N3_4 N 0.166(5) 0.488(3) 0.5986(7) 0.0184 Uiso
H14_4 H 0.135(9) 0.519(6) 0.5923(13) 0.0279 Uiso
C30_4 C 0.1930(3) 0.4877(4) 0.63817(14) 0.0184 Uiso
C31_4 C 0.1986(6) 0.5517(4) 0.65857(16) 0.0184 Uiso
C32_4 C 0.2190(7) 0.5511(5) 0.6973(2) 0.0184 Uiso
C33_4 C 0.2338(5) 0.4863(5) 0.7157(2) 0.0184 Uiso
C34_4 C 0.2281(5) 0.4222(5) 0.6953(2) 0.0184 Uiso
C35_4 C 0.2077(5) 0.4229(4) 0.65652(16) 0.0184 Uiso
H15_4 H 0.1888(7) 0.5947(4) 0.64638(19) 0.0279 Uiso
H16_4 H 0.2473(6) 0.4859(6) 0.7414(2) 0.0279 Uiso
H17_4 H 0.2040(7) 0.3803(4) 0.64298(19) 0.0279 Uiso
C36_4 C 0.2250(11) 0.6185(7) 0.7188(3) 0.0184 Uiso
O12_4 O 0.2001(15) 0.6764(9) 0.7030(5) 0.0184 Uiso
O13_4 O 0.2549(14) 0.6175(11) 0.7526(4) 0.0184 Uiso
C37_4 C 0.2437(7) 0.3541(7) 0.7146(3) 0.0184 Uiso
O14_4 O 0.2268(12) 0.2951(9) 0.6970(5) 0.0184 Uiso
O15_4 O 0.2736(10) 0.3557(11) 0.7484(4) 0.0184 Uiso
C14_6 C 0.9620(4) 0.5087(7) 0.500 0.0456 Uiso
C15_4 C 0.9269(3) 0.5215(5) 0.46507(12) 0.0456 Uiso
C16_4 C 0.8567(3) 0.5471(5) 0.46507(12) 0.0456 Uiso
C17_6 C 0.8217(4) 0.5599(7) 0.500 0.0456 Uiso
H7_4 H 0.9502(3) 0.5130(6) 0.44191(12) 0.0684 Uiso
H8_6 H 0.7751(5) 0.5769(11) 0.500 0.0684 Uiso
C18_4 C 0.8170(7) 0.5590(6) 0.42814(18) 0.0184 Uiso
O6_4 O 0.780(7) 0.616(4) 0.4217(9) 0.0184 Uiso
N2_4 N 0.834(5) 0.512(3) 0.4014(7) 0.0184 Uiso
H9_4 H 0.865(9) 0.481(6) 0.4077(13) 0.0279 Uiso
C19_4 C 0.8070(3) 0.5123(4) 0.36183(14) 0.0184 Uiso
C20_4 C 0.8014(6) 0.4483(4) 0.34143(16) 0.0184 Uiso
C21_4 C 0.7810(7) 0.4489(5) 0.3027(2) 0.0184 Uiso
C22_4 C 0.7662(5) 0.5137(5) 0.2843(2) 0.0184 Uiso
C23_4 C 0.7719(5) 0.5778(5) 0.3047(2) 0.0184 Uiso
C24_4 C 0.7923(5) 0.5771(4) 0.34348(16) 0.0184 Uiso
H10_4 H 0.8112(7) 0.4053(4) 0.35362(19) 0.0279 Uiso
H11_4 H 0.7527(6) 0.5141(6) 0.2586(2) 0.0279 Uiso
H12_4 H 0.7960(7) 0.6197(4) 0.35702(19) 0.0279 Uiso
C25_4 C 0.7750(11) 0.3815(7) 0.2812(3) 0.0184 Uiso
C26_4 C 0.7563(7) 0.6459(7) 0.2854(3) 0.0184 Uiso
C38_4 C 0.9269(3) 0.5215(5) 0.53493(12) 0.0456 Uiso
C39_4 C 0.8567(3) 0.5471(5) 0.53493(12) 0.0456 Uiso
H18_4 H 0.9502(3) 0.5130(6) 0.55809(12) 0.0684 Uiso
C40_4 C 0.8170(7) 0.5590(6) 0.57186(18) 0.0184 Uiso
O16_4 O 0.780(7) 0.616(4) 0.5783(9) 0.0184 Uiso
N4_4 N 0.834(5) 0.512(3) 0.5986(7) 0.0184 Uiso
H19_4 H 0.865(9) 0.481(6) 0.5923(13) 0.0279 Uiso
C41_4 C 0.8070(3) 0.5123(4) 0.63817(14) 0.0184 Uiso
C42_4 C 0.8014(6) 0.4483(4) 0.65857(16) 0.0184 Uiso
C43_4 C 0.7810(7) 0.4489(5) 0.6973(2) 0.0184 Uiso
C44_4 C 0.7662(5) 0.5137(5) 0.7157(2) 0.0184 Uiso
C45_4 C 0.7719(5) 0.5778(5) 0.6953(2) 0.0184 Uiso
C46_4 C 0.7923(5) 0.5771(4) 0.65652(16) 0.0184 Uiso
H20_4 H 0.8112(7) 0.4053(4) 0.64638(19) 0.0279 Uiso
H21_4 H 0.7527(6) 0.5141(6) 0.7414(2) 0.0279 Uiso
H22_4 H 0.7960(7) 0.6197(4) 0.64298(19) 0.0279 Uiso
C47_4 C 0.7750(11) 0.3815(7) 0.7188(3) 0.0184 Uiso
O17_4 O 0.7999(15) 0.3236(9) 0.7030(5) 0.0184 Uiso
O18_4 O 0.7451(14) 0.3825(11) 0.7526(4) 0.0184 Uiso
C48_4 C 0.7563(7) 0.6459(7) 0.7146(3) 0.0184 Uiso
O19_4 O 0.7732(12) 0.7049(9) 0.6970(5) 0.0184 Uiso
O20_4 O 0.7264(10) 0.6443(11) 0.7484(4) 0.0184 Uiso
loop_
_geom_bond_atom_site_label_1
_geom_bond_atom_site_label_2
_geom_bond_site_symmetry_1
_geom_bond_site_symmetry_2
C1 C2 1_555 1_555
C2 C3 1_555 1_555
C3 C4 1_555 1_555
C4 H2 1_555 1_555
H1 C2 1_555 1_555
C5 C3 1_555 1_555
O1 C5 1_555 1_555
N1 C5 1_555 1_555
C6 N1 1_555 1_555
C10 C9 1_555 1_555
C11 C6 1_555 1_555
H5 C9 1_555 1_555
H6 C11 1_555 1_555
C13 C10 1_555 1_555
O4 C13 1_555 1_555
O5 C13 1_555 1_555
C21 C20 1_555 1_555
H10 C20 1_555 1_555
C25 C21 1_555 1_555
O7 C25 1_555 1_555
O8 C25 1_555 1_555
Cu2 O7 1_555 1_555
Cu4 O4 1_555 1_555
O21 Cu4 1_555 1_555
O23 Cu2 1_555 1_555
O25 Cu4 1_555 1_555
O27 Cu2 1_555 1_555
O29 Cu2 1_555 1_555
O31 Cu4 1_555 1_555
Cu9 O8 1_555 1_555
Cu15 O5 1_555 1_555
C10 C11 1_555 1_555
Cu2 Cu9 1_555 1_555
Cu4 Cu15 1_555 1_555
C4_2 H2_2 1_555 1_555
C27 C1_2 1_555 1_555
C28 C4_2 1_555 1_555
H13 C27 1_555 1_555
C29 C28 1_555 1_555
O11 C29 1_555 1_555
N3 C29 1_555 1_555
C30 N3 1_555 1_555
C34 C33 1_555 1_555
C35 C30 1_555 1_555
H16 C33 1_555 1_555
H17 C35 1_555 1_555
C37 C34 1_555 1_555
O14 C37 1_555 1_555
O15 C37 1_555 1_555
C43 C42 1_555 1_555
H20 C42 1_555 1_555
C47 C43 1_555 1_555
O17 C47 1_555 1_555
O18 C47 1_555 1_555
Cu10 O18 1_555 1_555
Cu11 O14 1_555 1_555
Cu14 O17 1_555 1_555
Cu16 O15 1_555 1_555
C27 C28 1_555 1_555
C34 C35 1_555 1_555
Cu10 Cu14 1_555 1_555
Cu11 Cu16 1_555 1_555
C8 C7 1_555 1_555
H4 C7 1_555 1_555
C12 C8 1_555 1_555
O2 C12 1_555 1_555
O3 C12 1_555 1_555
Cu1 O2 1_555 1_555
C15 C14 1_555 1_555
C16 C15 1_555 1_555
C17 C16 1_555 1_555
H7 C15 1_555 1_555
H8 C17 1_555 1_555
C18 C16 1_555 1_555
O6 C18 1_555 1_555
N2 C18 1_555 1_555
C19 N2 1_555 1_555
C23 C22 1_555 1_555
C24 C19 1_555 1_555
H11 C22 1_555 1_555
H12 C24 1_555 1_555
C26 C23 1_555 1_555
O9 C26 1_555 1_555
O10 C26 1_555 1_555
Cu3 O3 1_555 1_555
O22 Cu3 1_555 1_555
O24 Cu1 1_555 1_555
O26 Cu1 1_555 1_555
O28 Cu3 1_555 1_555
O30 Cu3 1_555 1_555
O32 Cu1 1_555 1_555
Cu5 O10 1_555 1_555
Cu8 O9 1_555 1_555
Cu1 Cu3 1_555 1_555
C23 C24 1_555 1_555
Cu5 Cu8 1_555 1_555
H8_2 C17_2 1_555 1_555
C32 C31 1_555 1_555
H15 C31 1_555 1_555
C36 C32 1_555 1_555
O12 C36 1_555 1_555
O13 C36 1_555 1_555
C38 C14_2 1_555 1_555
C39 C17_2 1_555 1_555
H18 C38 1_555 1_555
C40 C39 1_555 1_555
O16 C40 1_555 1_555
N4 C40 1_555 1_555
C41 N4 1_555 1_555
C45 C44 1_555 1_555
C46 C41 1_555 1_555
H21 C44 1_555 1_555
H22 C46 1_555 1_555
C48 C45 1_555 1_555
O19 C48 1_555 1_555
O20 C48 1_555 1_555
Cu6 O20 1_555 1_555
Cu7 O19 1_555 1_555
Cu12 O13 1_555 1_555
Cu13 O12 1_555 1_555
C38 C39 1_555 1_555
C45 C46 1_555 1_555
Cu6 Cu7 1_555 1_555
Cu12 Cu13 1_555 1_555
O22_2 Cu9 1_555 1_555
O28_2 Cu9 1_555 1_555
O30_2 Cu9 1_555 1_555
O21_2 Cu8 1_555 1_555
O25_2 Cu8 1_555 1_555
O31_2 Cu8 1_555 1_555
C15_2 C14_3 1_555 1_555
C16_2 C15_2 1_555 1_555
C17_3 C16_2 1_555 1_555
H7_2 C15_2 1_555 1_555
H8_3 C17_3 1_555 1_555
C18_2 C16_2 1_555 1_555
O6_2 C18_2 1_555 1_555
N2_2 C18_2 1_555 1_555
H9_2 N2_2 1_555 1_555
C19_2 N2_2 1_555 1_555
C20_2 C19_2 1_555 1_555
C21_2 C20_2 1_555 1_555
C22_2 C21_2 1_555 1_555
C23_2 C22_2 1_555 1_555
C24_2 C19_2 1_555 1_555
H10_2 C20_2 1_555 1_555
H11_2 C22_2 1_555 1_555
H12_2 C24_2 1_555 1_555
C25_2 C21_2 1_555 1_555
O7_2 C25_2 1_555 1_555
O25 C25_2 1_555 1_555
C26_2 C23_2 1_555 1_555
O28 C26_2 1_555 1_555
O32 C26_2 1_555 1_555
C38_2 C14_3 1_555 1_555
C39_2 C17_3 1_555 1_555
H18_2 C38_2 1_555 1_555
C40_2 C39_2 1_555 1_555
O16_2 C40_2 1_555 1_555
N4_2 C40_2 1_555 1_555
H19_2 N4_2 1_555 1_555
C41_2 N4_2 1_555 1_555
C42_2 C41_2 1_555 1_555
C43_2 C42_2 1_555 1_555
C44_2 C43_2 1_555 1_555
C45_2 C44_2 1_555 1_555
C46_2 C41_2 1_555 1_555
H20_2 C42_2 1_555 1_555
H21_2 C44_2 1_555 1_555
H22_2 C46_2 1_555 1_555
C47_2 C43_2 1_555 1_555
O17_2 C47_2 1_555 1_555
O18_2 C47_2 1_555 1_555
C48_2 C45_2 1_555 1_555
O19_2 C48_2 1_555 1_555
O20_2 C48_2 1_555 1_555
Cu15 O7_2 1_555 1_555
O23_2 Cu15 1_555 1_555
O27_2 Cu15 1_555 1_555
Cu13 O20_2 1_555 1_555
Cu12 O19_2 1_555 1_555
Cu11 O18_2 1_555 1_555
Cu16 O17_2 1_555 1_555
C23_2 C24_2 1_555 1_555
C38_2 C39_2 1_555 1_555
C45_2 C46_2 1_555 1_555
C1_3 C2_2 1_555 1_555
C2_2 C3_2 1_555 1_555
C3_2 C4_3 1_555 1_555
C4_3 H2_3 1_555 1_555
H1_2 C2_2 1_555 1_555
C5_2 C3_2 1_555 1_555
O1_2 C5_2 1_555 1_555
N1_2 C5_2 1_555 1_555
H3_2 N1_2 1_555 1_555
C6_2 N1_2 1_555 1_555
C7_2 C6_2 1_555 1_555
C8_2 C7_2 1_555 1_555
C9_2 C8_2 1_555 1_555
C10_2 C9_2 1_555 1_555
C11_2 C6_2 1_555 1_555
H4_2 C7_2 1_555 1_555
H5_2 C9_2 1_555 1_555
H6_2 C11_2 1_555 1_555
C12_2 C8_2 1_555 1_555
O2_2 C12_2 1_555 1_555
O25_2 C12_2 1_555 1_555
C13_2 C10_2 1_555 1_555
O28_2 C13_2 1_555 1_555
O29 C13_2 1_555 1_555
Cu5 O2_2 1_555 1_555
C27_2 C1_3 1_555 1_555
C28_2 C4_3 1_555 1_555
H13_2 C27_2 1_555 1_555
C29_2 C28_2 1_555 1_555
O11_2 C29_2 1_555 1_555
N3_2 C29_2 1_555 1_555
H14_2 N3_2 1_555 1_555
C30_2 N3_2 1_555 1_555
C31_2 C30_2 1_555 1_555
C32_2 C31_2 1_555 1_555
C33_2 C32_2 1_555 1_555
C34_2 C33_2 1_555 1_555
C35_2 C30_2 1_555 1_555
H15_2 C31_2 1_555 1_555
H16_2 C33_2 1_555 1_555
H17_2 C35_2 1_555 1_555
C36_2 C32_2 1_555 1_555
O12_2 C36_2 1_555 1_555
O13_2 C36_2 1_555 1_555
C37_2 C34_2 1_555 1_555
O14_2 C37_2 1_555 1_555
O15_2 C37_2 1_555 1_555
O24_2 Cu5 1_555 1_555
O26_2 Cu5 1_555 1_555
Cu10 O14_2 1_555 1_555
Cu7 O13_2 1_555 1_555
Cu6 O12_2 1_555 1_555
Cu14 O15_2 1_555 1_555
C10_2 C11_2 1_555 1_555
C27_2 C28_2 1_555 1_555
C34_2 C35_2 1_555 1_555
C1_4 C2_3 1_555 1_555
C2_3 C3_3 1_555 1_555
C3_3 C4_4 1_555 1_555
C4_4 H2_4 1_555 1_555
H1_3 C2_3 1_555 1_555
C5_3 C3_3 1_555 1_555
O1_3 C5_3 1_555 1_555
N1_3 C5_3 1_555 1_555
C6_3 N1_3 1_555 1_555
C10_3 C9_3 1_555 1_555
C11_3 C6_3 1_555 1_555
H5_3 C9_3 1_555 1_555
H6_3 C11_3 1_555 1_555
C13_3 C10_3 1_555 1_555
O26 C13_3 1_555 1_555
O30 C13_3 1_555 1_555
C21_3 C20_3 1_555 1_555
H10_3 C20_3 1_555 1_555
C25_3 C21_3 1_555 1_555
O21 C25_3 1_555 1_555
O23_2 C25_3 1_555 1_555
C10_3 C11_3 1_555 1_555
C4_5 H2_5 1_555 1_555
C27_3 C1_5 1_555 1_555
C28_3 C4_5 1_555 1_555
H13_3 C27_3 1_555 1_555
C29_3 C28_3 1_555 1_555
O11_3 C29_3 1_555 1_555
N3_3 C29_3 1_555 1_555
C30_3 N3_3 1_555 1_555
C34_3 C33_3 1_555 1_555
C35_3 C30_3 1_555 1_555
H16_3 C33_3 1_555 1_555
H17_3 C35_3 1_555 1_555
C37_3 C34_3 1_555 1_555
O14_3 C37_3 1_555 1_555
O15_3 C37_3 1_555 1_555
C43_3 C42_3 1_555 1_555
H20_3 C42_3 1_555 1_555
C47_3 C43_3 1_555 1_555
O17_3 C47_3 1_555 1_555
O18_3 C47_3 1_555 1_555
Cu16 O18_3 1_555 1_555
Cu13 O14_3 1_555 1_555
Cu11 O17_3 1_555 1_555
Cu12 O15_3 1_555 1_555
C27_3 C28_3 1_555 1_555
C34_3 C35_3 1_555 1_555
C8_3 C7_3 1_555 1_555
H4_3 C7_3 1_555 1_555
C12_3 C8_3 1_555 1_555
O21_2 C12_3 1_555 1_555
O24_2 C12_3 1_555 1_555
C15_3 C14_4 1_555 1_555
C16_3 C15_3 1_555 1_555
C17_4 C16_3 1_555 1_555
H7_3 C15_3 1_555 1_555
H8_4 C17_4 1_555 1_555
C18_3 C16_3 1_555 1_555
O6_3 C18_3 1_555 1_555
N2_3 C18_3 1_555 1_555
C19_3 N2_3 1_555 1_555
C23_3 C22_3 1_555 1_555
C24_3 C19_3 1_555 1_555
H11_3 C22_3 1_555 1_555
H12_3 C24_3 1_555 1_555
C26_3 C23_3 1_555 1_555
O27 C26_3 1_555 1_555
O30_2 C26_3 1_555 1_555
C23_3 C24_3 1_555 1_555
H8_5 C17_5 1_555 1_555
C32_3 C31_3 1_555 1_555
H15_3 C31_3 1_555 1_555
C36_3 C32_3 1_555 1_555
O12_3 C36_3 1_555 1_555
O13_3 C36_3 1_555 1_555
C38_3 C14_5 1_555 1_555
C39_3 C17_5 1_555 1_555
H18_3 C38_3 1_555 1_555
C40_3 C39_3 1_555 1_555
O16_3 C40_3 1_555 1_555
N4_3 C40_3 1_555 1_555
C41_3 N4_3 1_555 1_555
C45_3 C44_3 1_555 1_555
C46_3 C41_3 1_555 1_555
H21_3 C44_3 1_555 1_555
H22_3 C46_3 1_555 1_555
C48_3 C45_3 1_555 1_555
O19_3 C48_3 1_555 1_555
O20_3 C48_3 1_555 1_555
Cu10 O20_3 1_555 1_555
Cu14 O19_3 1_555 1_555
Cu6 O13_3 1_555 1_555
Cu7 O12_3 1_555 1_555
C38_3 C39_3 1_555 1_555
C45_3 C46_3 1_555 1_555
C1_6 C2_4 1_555 1_555
C2_4 C3_4 1_555 1_555
C3_4 C4_6 1_555 1_555
C4_6 H2_6 1_555 1_555
H1_4 C2_4 1_555 1_555
C5_4 C3_4 1_555 1_555
O1_4 C5_4 1_555 1_555
N1_4 C5_4 1_555 1_555
H3_4 N1_4 1_555 1_555
C6_4 N1_4 1_555 1_555
C7_4 C6_4 1_555 1_555
C8_4 C7_4 1_555 1_555
C9_4 C8_4 1_555 1_555
C10_4 C9_4 1_555 1_555
C11_4 C6_4 1_555 1_555
H4_4 C7_4 1_555 1_555
H5_4 C9_4 1_555 1_555
H6_4 C11_4 1_555 1_555
C12_4 C8_4 1_555 1_555
O22_2 C12_4 1_555 1_555
O23 C12_4 1_555 1_555
C13_4 C10_4 1_555 1_555
O27_2 C13_4 1_555 1_555
O31 C13_4 1_555 1_555
C27_4 C1_6 1_555 1_555
C28_4 C4_6 1_555 1_555
H13_4 C27_4 1_555 1_555
C29_4 C28_4 1_555 1_555
O11_4 C29_4 1_555 1_555
N3_4 C29_4 1_555 1_555
H14_4 N3_4 1_555 1_555
C30_4 N3_4 1_555 1_555
C31_4 C30_4 1_555 1_555
C32_4 C31_4 1_555 1_555
C33_4 C32_4 1_555 1_555
C34_4 C33_4 1_555 1_555
C35_4 C30_4 1_555 1_555
H15_4 C31_4 1_555 1_555
H16_4 C33_4 1_555 1_555
H17_4 C35_4 1_555 1_555
C36_4 C32_4 1_555 1_555
O12_4 C36_4 1_555 1_555
O13_4 C36_4 1_555 1_555
C37_4 C34_4 1_555 1_555
O14_4 C37_4 1_555 1_555
O15_4 C37_4 1_555 1_555
Cu16 O14_4 1_555 1_555
Cu14 O13_4 1_555 1_555
Cu10 O12_4 1_555 1_555
Cu11 O15_4 1_555 1_555
C10_4 C11_4 1_555 1_555
C27_4 C28_4 1_555 1_555
C34_4 C35_4 1_555 1_555
C15_4 C14_6 1_555 1_555
C16_4 C15_4 1_555 1_555
C17_6 C16_4 1_555 1_555
H7_4 C15_4 1_555 1_555
H8_6 C17_6 1_555 1_555
C18_4 C16_4 1_555 1_555
O6_4 C18_4 1_555 1_555
N2_4 C18_4 1_555 1_555
H9_4 N2_4 1_555 1_555
C19_4 N2_4 1_555 1_555
C20_4 C19_4 1_555 1_555
C21_4 C20_4 1_555 1_555
C22_4 C21_4 1_555 1_555
C23_4 C22_4 1_555 1_555
C24_4 C19_4 1_555 1_555
H10_4 C20_4 1_555 1_555
H11_4 C22_4 1_555 1_555
H12_4 C24_4 1_555 1_555
C25_4 C21_4 1_555 1_555
O22 C25_4 1_555 1_555
O24 C25_4 1_555 1_555
C26_4 C23_4 1_555 1_555
O26_2 C26_4 1_555 1_555
O31_2 C26_4 1_555 1_555
C38_4 C14_6 1_555 1_555
C39_4 C17_6 1_555 1_555
H18_4 C38_4 1_555 1_555
C40_4 C39_4 1_555 1_555
O16_4 C40_4 1_555 1_555
N4_4 C40_4 1_555 1_555
H19_4 N4_4 1_555 1_555
C41_4 N4_4 1_555 1_555
C42_4 C41_4 1_555 1_555
C43_4 C42_4 1_555 1_555
C44_4 C43_4 1_555 1_555
C45_4 C44_4 1_555 1_555
C46_4 C41_4 1_555 1_555
H20_4 C42_4 1_555 1_555
H21_4 C44_4 1_555 1_555
H22_4 C46_4 1_555 1_555
C47_4 C43_4 1_555 1_555
O17_4 C47_4 1_555 1_555
O18_4 C47_4 1_555 1_555
C48_4 C45_4 1_555 1_555
O19_4 C48_4 1_555 1_555
O20_4 C48_4 1_555 1_555
Cu7 O20_4 1_555 1_555
Cu6 O19_4 1_555 1_555
Cu13 O18_4 1_555 1_555
Cu12 O17_4 1_555 1_555
C23_4 C24_4 1_555 1_555
C38_4 C39_4 1_555 1_555
C45_4 C46_4 1_555 1_555

#END
