
###############################################################################
#
# This file contains modified crystal structure data generated from the
# MOF subset of the Cambridge Structural Database (CSD) v543 
# hosted by the Cambridge Crystallographic Data Centre (CCDC).
#
# This work is licensed under the Creative Commons
# Attribution-NonCommercial-ShareAlike 4.0 International License.
# To view a copy of this license, visit
# http://creativecommons.org/licenses/by-nc-sa/4.0/
# or send a letter to
# Creative Commons, PO Box 1866, Mountain View, CA 94042, USA.
#
# CIF created using the CSD Python API on 29 September 2022
# The structure has been converted into the P1 space group
# The structure has a 3D framework
# The original CSD entry FALVUL02 is in the monoclinic crystal system
# The framework has been calculated to contain at least 10.0% void space
# The void calculation uses a probe of radius 1.32A, grid spacing 0.4
# The framework is charged, counterions have been retained in the structure
# H atom positions have been added when not included in the experimental data
# Generated hydrogen atom positions removed from atoms on special positions
#
###############################################################################

data_FALVUL02
_chemical_formula_moiety         '(C100 H184 Cu8 O126 Pr8 2+)n'
_symmetry_cell_setting           triclinic
_symmetry_space_group_name_H-M   'P 1'
_symmetry_Int_Tables_number      1
_space_group_name_Hall           'P 1'
loop_
_symmetry_equiv_pos_site_id
_symmetry_equiv_pos_as_xyz
1 x,y,z
_cell_length_a                   10.906(2)
_cell_length_b                   20.212(4)
_cell_length_c                   19.769(4)
_cell_angle_alpha                90
_cell_angle_beta                 99.22(3)
_cell_angle_gamma                90
_cell_volume                     4301.42
loop_
_atom_site_label
_atom_site_type_symbol
_atom_site_fract_x
_atom_site_fract_y
_atom_site_fract_z
O72 O 0.0737(4) 0.11708(19) 0.1079(2)
Pr8 Pr 0.03240(2) 0.373687(13) 0.845064(13)
Pr2 Pr 0.83304(3) 0.123936(13) 0.082800(13)
O19 O 0.7242(3) 0.20695(19) 0.00757(18)
O25 O 0.6568(4) 0.1626(2) 0.14459(19)
O26 O 0.8660(6) 0.0763(2) 0.2043(2)
O27 O 0.8750(4) 0.00202(19) 0.0795(2)
O28 O 0.6398(4) 0.0620(2) 0.0380(2)
Cu8 Cu 0.78846(5) 0.32535(3) 0.08907(3)
O70 O 0.9912(3) 0.19207(18) 0.03358(18)
O76 O 0.9012(3) 0.2169(2) 0.16028(19)
H24 H 0.643984 0.0170813 0.0585872
Cu1 Cu 0.07202(6) 0.17265(3) 0.83172(3)
Cu2 Cu 0.28846(5) 0.17465(3) 0.58907(3)
C10 C 0.0299(5) 0.1722(3) 0.6059(2)
C13 C 0.0490(5) 0.0470(3) 0.4607(3)
H3 H 0.0826 0.0782 0.4343
C16 C 0.4494(5) 0.2057(3) 0.8265(2)
C17 C 0.4792(5) 0.2430(3) 0.7718(3)
C18 C 0.5816(5) 0.2857(3) 0.7830(3)
H4 H 0.5992 0.3119 0.7471
C19 C 0.6571(4) 0.2897(3) 0.8462(3)
C20 C 0.6273(4) 0.2516(3) 0.9008(2)
C21 C 0.5252(5) 0.2099(3) 0.8909(3)
H5 H 0.5067 0.1845 0.9272
C22 C 0.3318(5) 0.1648(3) 0.8231(2)
C23 C 0.4096(5) 0.2348(3) 0.7007(3)
C24 C 0.7768(5) 0.3284(3) 0.8537(2)
C25 C 0.6957(4) 0.2584(3) 0.9728(2)
O7 O 0.1310(3) 0.20651(19) 0.61441(18)
O8 O 0.0239(4) 0.11182(19) 0.6021(2)
O13 O 0.2315(3) 0.19662(18) 0.80321(17)
O14 O 0.3388(4) 0.1070(2) 0.8436(2)
O15 O 0.3676(3) 0.17725(19) 0.68455(18)
O16 O 0.4012(3) 0.2831(2) 0.66028(19)
O17 O 0.7851(4) 0.38107(19) 0.8212(2)
O18 O 0.8708(3) 0.30260(19) 0.89071(18)
O20 O 0.7129(3) 0.31714(18) 0.99410(18)
O29 O 0.8834(4) 0.0806(2) 0.9700(2)
O31 O 0.0556(4) 0.0647(2) 0.8067(2)
O32 O 0.4593(3) 0.18074(19) 0.55983(18)
C26 C 0.1264(5) 0.0139(3) 0.5129(3)
C29 C 0.2617(5) 0.0320(3) 0.5249(3)
O33 O 0.3065(3) 0.06637(19) 0.57587(19)
O34 O 0.3239(3) 0.01214(19) 0.47975(19)
Pr12 Pr 0.33304(3) 0.376064(13) 0.582800(13)
O66 O 0.1336(3) 0.28272(19) 0.91589(18)
O68 O 0.1535(4) 0.17311(19) 0.92729(18)
O82 O 0.2129(3) 0.18286(18) 0.49410(18)
H23 H 0.631412 0.0582161 0.987386
H29 H 0.101202 0.0548056 0.768256
H30 H 0.0916613 0.0384788 0.847554
H37 H 0.435269 0.0196094 0.681722
H38 H 0.581 0.010298 0.676164
C27 C 0.0776(4) 0.9660(2) 0.5522(2)
C30 C 0.1598(5) 0.9259(3) 0.6058(3)
O35 O 0.2754(3) 0.92554(19) 0.60354(19)
O36 O 0.1088(4) 0.8942(2) 0.6484(2)
Pr3 Pr 0.46760(2) 0.873687(13) 0.654936(13)
C31 C 0.2618(5) 0.7390(3) 0.4785(2)
C32 C 0.2938(5) 0.7028(3) 0.4236(3)
C33 C 0.2196(5) 0.7065(3) 0.3593(2)
H7 H 0.2383 0.6806 0.3235
C34 C 0.1179(5) 0.7488(3) 0.3486(2)
C35 C 0.0859(5) 0.7856(3) 0.4031(2)
C36 C 0.1577(5) 0.7801(3) 0.4682(3)
H8 H 0.1360 0.8039 0.5048
C37 C 0.3321(4) 0.7317(3) 0.5500(2)
C38 C 0.4160(5) 0.6671(3) 0.4284(2)
C39 C 0.0515(4) 0.7588(3) 0.2773(2)
O37 O 0.3664(3) 0.78272(19) 0.58411(18)
O38 O 0.3465(4) 0.67311(19) 0.57271(18)
O39 O 0.5088(3) 0.69207(18) 0.46642(18)
O40 O 0.4263(4) 0.61708(19) 0.3921(2)
O41 O 0.0445(4) 0.71191(19) 0.23568(18)
O42 O 0.0091(3) 0.81599(19) 0.26273(18)
O53 O 0.4879(3) 0.91063(19) 0.53386(19)
O54 O 0.4948(4) 0.99888(19) 0.6550(2)
O55 O 0.4883(5) 0.9207(2) 0.7732(2)
O56 O 0.2920(3) 0.82795(18) 0.71443(18)
O62 O 0.0919(4) 0.8262(2) 0.1336(2)
Pr10 Pr 0.66696(3) 0.623936(13) 0.417200(13)
Cu5 Cu 0.42798(6) 0.67265(3) 0.66828(3)
O73 O 0.5445(4) 0.78809(19) 0.73568(18)
O77 O 0.7149(4) 0.88107(19) 0.6788(2)
O79 O 0.6292(3) 0.80260(19) 0.60929(18)
H53 H 0.0333487 0.94708 0.206811
Pr1 Pr 0.53240(2) 0.126313(13) 0.345064(13)
C1 C 0.7382(5) 0.2610(3) 0.5215(2)
C2 C 0.7062(5) 0.2972(3) 0.5764(3)
C3 C 0.7804(5) 0.2935(3) 0.6407(2)
H1 H 0.7617 0.3194 0.6765
C4 C 0.8821(5) 0.2512(3) 0.6514(2)
C5 C 0.9141(5) 0.2144(3) 0.5969(2)
C6 C 0.8423(5) 0.2199(3) 0.5318(3)
H2 H 0.8640 0.1961 0.4952
C7 C 0.6679(4) 0.2683(3) 0.4500(2)
C8 C 0.5840(5) 0.3329(3) 0.5716(2)
C9 C 0.9485(4) 0.2412(3) 0.7227(2)
C12 C 0.9224(4) 0.0340(2) 0.4478(2)
C15 C 0.8402(5) 0.0741(3) 0.3942(3)
O1 O 0.6336(3) 0.21728(19) 0.41589(18)
O2 O 0.6535(4) 0.32689(19) 0.42729(18)
O3 O 0.4912(3) 0.30793(18) 0.53358(18)
O4 O 0.5737(4) 0.38292(19) 0.6079(2)
O5 O 0.9555(4) 0.28809(19) 0.76432(18)
O6 O 0.9909(3) 0.18401(19) 0.73727(18)
O11 O 0.7246(3) 0.07446(19) 0.39646(19)
O12 O 0.8912(4) 0.1058(2) 0.3516(2)
O21 O 0.5121(3) 0.08937(19) 0.46614(19)
O22 O 0.5052(4) 0.00112(19) 0.3450(2)
O23 O 0.5117(5) 0.0793(2) 0.2268(2)
O24 O 0.7080(3) 0.17205(18) 0.28557(18)
O30 O 0.9081(4) 0.1738(2) 0.8664(2)
Cu6 Cu 0.57202(6) 0.32735(3) 0.33172(3)
O74 O 0.4555(4) 0.21191(19) 0.26432(18)
O78 O 0.2851(4) 0.11893(19) 0.3212(2)
O80 O 0.3708(3) 0.19740(19) 0.39071(18)
C11 C 0.8736(5) 0.9861(3) 0.4871(3)
C14 C 0.7383(5) 0.9680(3) 0.4751(3)
O9 O 0.6935(3) 0.93363(19) 0.42413(19)
O10 O 0.6761(3) 0.98786(19) 0.52025(19)
C28 C 0.9510(5) 0.9530(3) 0.5393(3)
H6 H 0.9174 0.9218 0.5657
Cu3 Cu 0.92798(6) 0.82735(3) 0.16828(3)
Cu4 Cu 0.71154(5) 0.82535(3) 0.41093(3)
C40 C 0.9701(5) 0.8278(3) 0.3941(2)
C41 C 0.5506(5) 0.7943(3) 0.1735(2)
C42 C 0.5208(5) 0.7570(3) 0.2282(3)
C43 C 0.4184(5) 0.7143(3) 0.2170(3)
H9 H 0.4008 0.6881 0.2529
C44 C 0.3429(4) 0.7103(3) 0.1538(3)
C45 C 0.3727(4) 0.7484(3) 0.0992(2)
C46 C 0.4748(5) 0.7901(3) 0.1091(3)
H10 H 0.4933 0.8155 0.0728
C47 C 0.6682(5) 0.8352(3) 0.1769(2)
C48 C 0.5904(5) 0.7652(3) 0.2993(3)
C49 C 0.2232(5) 0.6716(3) 0.1463(2)
C50 C 0.3043(4) 0.7416(3) 0.0272(2)
O43 O 0.8690(3) 0.79349(19) 0.38559(18)
O44 O 0.9761(4) 0.88818(19) 0.3979(2)
O45 O 0.7685(3) 0.80338(18) 0.19679(17)
O46 O 0.6612(4) 0.8930(2) 0.1564(2)
O47 O 0.6324(3) 0.82275(19) 0.31545(18)
O48 O 0.5988(3) 0.7169(2) 0.33972(19)
O49 O 0.2149(4) 0.61893(19) 0.1788(2)
O50 O 0.1292(3) 0.69740(19) 0.10929(18)
O52 O 0.2871(3) 0.68286(18) 0.00590(18)
O61 O 0.1166(4) 0.9194(2) 0.0300(2)
O63 O 0.9444(4) 0.9353(2) 0.1933(2)
O64 O 0.5407(3) 0.81926(19) 0.44017(18)
Pr6 Pr 0.96760(2) 0.626313(13) 0.154936(13)
O65 O 0.8664(3) 0.71728(19) 0.08411(18)
O67 O 0.8465(4) 0.82689(19) 0.07271(18)
O81 O 0.7871(3) 0.81714(18) 0.50590(18)
H11 H 0.464885 0.987887 0.384542
H12 H 0.45236 0.987197 0.301696
H54 H 0.908339 0.961521 0.152446
Pr4 Pr 0.16696(3) 0.876064(13) 0.917200(13)
O51 O 0.2758(3) 0.79305(19) 0.99243(18)
O57 O 0.3432(4) 0.8374(2) 0.85541(19)
O58 O 0.1340(6) 0.9237(2) 0.7957(2)
O59 O 0.1250(4) 0.99798(19) 0.9205(2)
O60 O 0.3602(4) 0.9380(2) 0.9620(2)
Cu7 Cu 0.21154(5) 0.67465(3) 0.91093(3)
O69 O 0.0088(3) 0.80793(18) 0.96642(18)
O75 O 0.0988(3) 0.7831(2) 0.83972(19)
H47 H 0.433092 0.914008 0.949847
H48 H 0.356016 0.982919 0.941413
O71 O 0.9263(4) 0.88292(19) 0.8921(2)
C43_2 C 0.0816(5) 0.2143(3) 0.2830(3)
H9_2 H 0.0992 0.1881 0.2471
C44_2 C 0.1571(4) 0.2103(3) 0.3462(3)
C45_2 C 0.1273(4) 0.2484(3) 0.4008(2)
C46_2 C 0.0252(5) 0.2901(3) 0.3909(3)
H10_2 H 0.0067 0.3155 0.4272
C49_2 C 0.2768(5) 0.1716(3) 0.3537(2)
C50_2 C 0.1957(4) 0.2416(3) 0.4728(2)
O51_2 O 0.2242(3) 0.29305(19) 0.50757(18)
O57_2 O 0.1568(4) 0.3374(2) 0.64459(19)
O58_2 O 0.3660(6) 0.4237(2) 0.7043(2)
O59_2 O 0.3750(4) 0.49798(19) 0.5795(2)
O60_2 O 0.1398(4) 0.4380(2) 0.5380(2)
O61_2 O 0.3834(4) 0.4194(2) 0.4700(2)
H11_2 H 0.0351151 0.487887 0.115458
H12_2 H 0.0476402 0.487197 0.198304
H14 H 0.0429139 0.539731 0.276634
H31 H 0.0360792 0.622854 0.012374
H32 H 0.0315983 0.546141 0.0358685
H57 H 0.0204689 0.344582 0.0925003
H2_2 H 0.6360 0.6961 0.0048
C7_2 C 0.8321(4) 0.7683(3) 0.0500(2)
C11_2 C 0.6264(5) 0.4861(3) 0.0129(3)
C12_2 C 0.5776(4) 0.5340(2) 0.0522(2)
C13_2 C 0.4510(5) 0.5470(3) 0.0393(3)
H3_2 H 0.4174 0.5782 0.0657
C14_2 C 0.7617(5) 0.4680(3) 0.0249(3)
C15_2 C 0.6598(5) 0.5741(3) 0.1058(3)
O9_2 O 0.8065(3) 0.43363(19) 0.07587(19)
O11_2 O 0.7754(3) 0.57446(19) 0.10354(19)
O12_2 O 0.6088(4) 0.6058(2) 0.1484(2)
O21_2 O 0.9879(3) 0.58937(19) 0.03386(19)
O22_2 O 0.9948(4) 0.50112(19) 0.1550(2)
O23_2 O 0.9883(5) 0.5793(2) 0.2732(2)
O24_2 O 0.7920(3) 0.67205(18) 0.21443(18)
O34_2 O 0.1761(3) 0.51214(19) 0.02025(19)
C31_2 C 0.2382(5) 0.2390(3) 0.0215(2)
C32_2 C 0.2062(5) 0.2028(3) 0.0764(3)
C33_2 C 0.2804(5) 0.2065(3) 0.1407(2)
H7_2 H 0.2617 0.1806 0.1765
C34_2 C 0.3821(5) 0.2488(3) 0.1514(2)
C35_2 C 0.4141(5) 0.2856(3) 0.0969(2)
C36_2 C 0.3423(5) 0.2801(3) 0.0318(3)
C38_2 C 0.0840(5) 0.1671(3) 0.0716(2)
C39_2 C 0.4485(4) 0.2588(3) 0.2227(2)
C40_2 C 0.5299(5) 0.3278(3) 0.1059(2)
C41_2 C 0.9494(5) 0.2943(3) 0.3265(2)
C42_2 C 0.9792(5) 0.2570(3) 0.2718(3)
C47_2 C 0.8318(5) 0.3352(3) 0.3231(2)
C48_2 C 0.9096(5) 0.2652(3) 0.2007(3)
O42_2 O 0.4909(3) 0.31599(19) 0.23727(18)
O43_2 O 0.6310(3) 0.29349(19) 0.11441(18)
O44_2 O 0.5239(4) 0.38818(19) 0.1021(2)
O45_2 O 0.7315(3) 0.30338(18) 0.30321(17)
O46_2 O 0.8388(4) 0.3930(2) 0.3436(2)
O47_2 O 0.8676(3) 0.32275(19) 0.18455(18)
O62_2 O 0.4081(4) 0.3262(2) 0.3664(2)
O63_2 O 0.5556(4) 0.4353(2) 0.3067(2)
O64_2 O 0.9593(3) 0.31926(19) 0.05983(18)
H13 H 0.905027 0.566451 0.282992
H58 H 0.985342 0.272192 0.0596564
C1_2 C 0.7618(5) 0.7610(3) 0.9785(2)
C2_2 C 0.7938(5) 0.7972(3) 0.9236(3)
C3_2 C 0.7196(5) 0.7935(3) 0.8593(2)
H1_2 H 0.7383 0.8194 0.8235
C4_2 C 0.6179(5) 0.7512(3) 0.8486(2)
C5_2 C 0.5859(5) 0.7144(3) 0.9031(2)
C6_2 C 0.6577(5) 0.7199(3) 0.9682(3)
C8_2 C 0.9160(5) 0.8329(3) 0.9284(2)
C9_2 C 0.5515(4) 0.7412(3) 0.7773(2)
C10_2 C 0.4701(5) 0.6722(3) 0.8941(2)
C16_2 C 0.0506(5) 0.7057(3) 0.6735(2)
C17_2 C 0.0208(5) 0.7430(3) 0.7282(3)
C22_2 C 0.1682(5) 0.6648(3) 0.6769(2)
C23_2 C 0.0904(5) 0.7348(3) 0.7993(3)
O6_2 O 0.5091(3) 0.68401(19) 0.76273(18)
O7_2 O 0.3690(3) 0.70651(19) 0.88559(18)
O8_2 O 0.4761(4) 0.61182(19) 0.8979(2)
O10_2 O 0.8239(3) 0.48786(19) 0.97975(19)
O13_2 O 0.2685(3) 0.69662(18) 0.69679(17)
O14_2 O 0.1612(4) 0.6070(2) 0.6564(2)
O15_2 O 0.1324(3) 0.67725(19) 0.81545(18)
O30_2 O 0.5919(4) 0.6738(2) 0.6336(2)
O31_2 O 0.4444(4) 0.5647(2) 0.6933(2)
O32_2 O 0.0407(3) 0.68074(19) 0.94017(18)
C26_2 C 0.3736(5) 0.5139(3) 0.9871(3)
C27_2 C 0.4224(4) 0.4660(2) 0.9478(2)
C28_2 C 0.5490(5) 0.4530(3) 0.9607(3)
H6_2 H 0.5826 0.4218 0.9343
C29_2 C 0.2383(5) 0.5320(3) 0.9751(3)
C30_2 C 0.3402(5) 0.4259(3) 0.8942(3)
O33_2 O 0.1935(3) 0.56637(19) 0.92413(19)
O35_2 O 0.2246(3) 0.42554(19) 0.89646(19)
O36_2 O 0.3912(4) 0.3942(2) 0.8516(2)
H8_2 H 0.3640 0.3039 0.9952
C37_2 C 0.1679(4) 0.2317(3) 0.9500(2)
O53_2 O 0.0121(3) 0.41063(19) 0.96614(19)
O54_2 O 0.0052(4) 0.49888(19) 0.8450(2)
O55_2 O 0.0117(5) 0.4207(2) 0.7268(2)
O56_2 O 0.2080(3) 0.32795(18) 0.78557(18)
H34 H 0.00684095 0.635526 0.943971
H35 H 0.0237494 0.459286 0.97003
H37_2 H 0.0647314 0.519609 0.818278
H39 H 0.0847545 0.407576 0.705681
C18_2 C 0.9184(5) 0.7857(3) 0.7170(3)
H4_2 H 0.9008 0.8119 0.7529
C19_2 C 0.8429(4) 0.7897(3) 0.6538(3)
C20_2 C 0.8727(4) 0.7516(3) 0.5992(2)
C21_2 C 0.9748(5) 0.7099(3) 0.6091(3)
H5_2 H 0.9933 0.6845 0.5728
C24_2 C 0.7232(5) 0.8284(3) 0.6463(2)
C25_2 C 0.8043(4) 0.7584(3) 0.5272(2)
O19_2 O 0.7758(3) 0.70695(19) 0.49243(18)
O25_2 O 0.8432(4) 0.6626(2) 0.35541(19)
O26_2 O 0.6340(6) 0.5763(2) 0.2957(2)
O27_2 O 0.6250(4) 0.50202(19) 0.4205(2)
O28_2 O 0.8602(4) 0.5620(2) 0.4620(2)
O29_2 O 0.6166(4) 0.5806(2) 0.5300(2)
H33 H 0.983846 0.706351 0.905498
H36 H 0.928312 0.398818 0.975922
H38_2 H 0.919 0.510298 0.823836
H40 H 0.934748 0.403493 0.698606
H47_2 H 0.566908 0.0859924 0.0501528
H11_3 H 0.535115 0.0121129 0.615458
H12_3 H 0.54764 0.0128026 0.698304
H53_2 H 0.966651 0.0529197 0.793189
H23_2 H 0.368588 0.941784 0.0126136
H29_2 H 0.898798 0.945194 0.231744
H37_3 H 0.564731 0.980391 0.318278
H38_3 H 0.419 0.989702 0.323836
H33_2 H 0.0161545 0.293649 0.0945022
H36_2 H 0.0716885 0.601182 0.0240775
H38_4 H 0.0809997 0.489702 0.176164
H40_2 H 0.0652523 0.596507 0.301394
H34_2 H 0.993159 0.364474 0.0560293
H35_2 H 0.976251 0.540714 0.0299704
H37_4 H 0.935269 0.480391 0.181722
H39_2 H 0.915245 0.592424 0.294319
H13_2 H 0.0949733 0.433549 0.717008
H58_2 H 0.014658 0.727808 0.940344
H11_4 H 0.964885 0.512113 0.884542
H12_4 H 0.95236 0.512803 0.801696
H14_2 H 0.957086 0.460269 0.723366
H31_2 H 0.963921 0.377146 0.987626
H32_2 H 0.968402 0.453859 0.964131
H57_2 H 0.979531 0.655418 0.9075
H21 H 0.920854 0.992154 0.0411521
H22 H 0.925717 0.988126 0.123461
H45 H 0.795035 0.97753 0.0725806
H45_2 H 0.204965 0.02247 0.927419
H46 H 0.0742829 0.0118743 0.876539
H21_2 H 0.0791461 0.00784597 0.958848
loop_
_geom_bond_atom_site_label_1
_geom_bond_atom_site_label_2
_geom_bond_site_symmetry_1
_geom_bond_site_symmetry_2
Pr2 O19 1_555 1_555
O25 Pr2 1_555 1_555
O26 Pr2 1_555 1_555
O27 Pr2 1_555 1_555
O28 Pr2 1_555 1_555
O70 Pr2 1_555 1_555
O76 Pr2 1_555 1_555
Cu8 O76 1_555 1_555
O28 H24 1_555 1_555
Cu2 O7 1_555 1_555
C13 H3 1_555 1_555
C16 C17 1_555 1_555
C17 C18 1_555 1_555
C18 H4 1_555 1_555
C19 C18 1_555 1_555
C20 C19 1_555 1_555
C21 C16 1_555 1_555
H5 C21 1_555 1_555
C22 C16 1_555 1_555
C23 C17 1_555 1_555
C24 C19 1_555 1_555
C25 C20 1_555 1_555
O7 C10 1_555 1_555
O8 C10 1_555 1_555
O13 Cu1 1_555 1_555
O14 C22 1_555 1_555
O15 Cu2 1_555 1_555
O16 Cu2 1_555 1_555
O17 C24 1_555 1_555
O18 C24 1_555 1_555
O20 C25 1_555 1_555
O31 Cu1 1_555 1_555
O32 Cu2 1_555 1_555
C26 C13 1_555 1_555
C29 C26 1_555 1_555
O33 Cu2 1_555 1_555
O34 C29 1_555 1_555
Pr12 O16 1_555 1_555
O66 Cu1 1_555 1_555
O68 Cu1 1_555 1_555
O82 Cu2 1_555 1_555
C20 C21 1_555 1_555
C22 O13 1_555 1_555
C23 O15 1_555 1_555
C23 O16 1_555 1_555
C29 O33 1_555 1_555
Pr8 O66 1_555 1_555
O31 H29 1_555 1_555
O31 H30 1_555 1_555
C30 C27 1_555 1_555
O35 C30 1_555 1_555
O36 C30 1_555 1_555
Pr3 O35 1_555 1_555
C31 C32 1_555 1_555
C32 C33 1_555 1_555
C33 H7 1_555 1_555
C34 C33 1_555 1_555
C35 C34 1_555 1_555
C36 C31 1_555 1_555
H8 C36 1_555 1_555
C37 C31 1_555 1_555
C38 C32 1_555 1_555
C39 C34 1_555 1_555
O37 Pr3 1_555 1_555
O38 C37 1_555 1_555
O39 C38 1_555 1_555
O40 C38 1_555 1_555
O41 C39 1_555 1_555
O42 C39 1_555 1_555
O53 Pr3 1_555 1_555
O54 Pr3 1_555 1_555
O55 Pr3 1_555 1_555
O56 Pr3 1_555 1_555
Pr10 O39 1_555 1_555
Cu5 O37 1_555 1_555
O73 Pr3 1_555 1_555
O77 Pr3 1_555 1_555
O79 Pr3 1_555 1_555
C35 C36 1_555 1_555
C37 O37 1_555 1_555
O38 Cu5 1_555 1_555
O40 Pr10 1_555 1_555
Pr1 O1 1_555 1_555
C1 C2 1_555 1_555
C2 C3 1_555 1_555
C3 H1 1_555 1_555
C4 C3 1_555 1_555
C5 C4 1_555 1_555
C6 C1 1_555 1_555
H2 C6 1_555 1_555
C7 C1 1_555 1_555
C8 C2 1_555 1_555
C9 C4 1_555 1_555
C15 C12 1_555 1_555
O1 C7 1_555 1_555
O2 C7 1_555 1_555
O3 C8 1_555 1_555
O4 C8 1_555 1_555
O5 C9 1_555 1_555
O6 C9 1_555 1_555
O11 Pr1 1_555 1_555
O12 C15 1_555 1_555
O21 Pr1 1_555 1_555
O22 Pr1 1_555 1_555
O23 Pr1 1_555 1_555
O24 Pr1 1_555 1_555
Pr12 O3 1_555 1_555
Cu6 O1 1_555 1_555
O74 Pr1 1_555 1_555
O78 Pr1 1_555 1_555
O80 Pr1 1_555 1_555
C5 C6 1_555 1_555
C15 O11 1_555 1_555
O2 Cu6 1_555 1_555
O4 Pr12 1_555 1_555
C14 C11 1_555 1_555
O9 C14 1_555 1_555
O10 C14 1_555 1_555
C28 C11 1_555 1_555
H6 C28 1_555 1_555
Cu4 O9 1_555 1_555
C41 C42 1_555 1_555
C42 C43 1_555 1_555
C43 H9 1_555 1_555
C44 C43 1_555 1_555
C45 C44 1_555 1_555
C46 C41 1_555 1_555
H10 C46 1_555 1_555
C47 C41 1_555 1_555
C48 C42 1_555 1_555
C49 C44 1_555 1_555
C50 C45 1_555 1_555
O43 Cu4 1_555 1_555
O44 C40 1_555 1_555
O45 Cu3 1_555 1_555
O46 C47 1_555 1_555
O47 Cu4 1_555 1_555
O48 Cu4 1_555 1_555
O49 C49 1_555 1_555
O50 C49 1_555 1_555
O52 C50 1_555 1_555
O63 Cu3 1_555 1_555
O64 Cu4 1_555 1_555
Pr10 O48 1_555 1_555
O65 Cu3 1_555 1_555
O67 Cu3 1_555 1_555
O81 Cu4 1_555 1_555
C40 O43 1_555 1_555
C45 C46 1_555 1_555
C47 O45 1_555 1_555
C48 O47 1_555 1_555
C48 O48 1_555 1_555
Pr6 O65 1_555 1_555
O63 H54 1_555 1_555
Pr4 O51 1_555 1_555
O57 Pr4 1_555 1_555
O58 Pr4 1_555 1_555
O59 Pr4 1_555 1_555
O60 Pr4 1_555 1_555
O69 Pr4 1_555 1_555
O75 Pr4 1_555 1_555
Cu7 O75 1_555 1_555
O60 H47 1_555 1_555
O60 H48 1_555 1_555
Pr12 O51_2 1_555 1_555
C43_2 H9_2 1_555 1_555
C44_2 C43_2 1_555 1_555
C45_2 C44_2 1_555 1_555
H10_2 C46_2 1_555 1_555
C49_2 C44_2 1_555 1_555
C50_2 C45_2 1_555 1_555
O78 C49_2 1_555 1_555
O80 C49_2 1_555 1_555
O51_2 C50_2 1_555 1_555
O82 C50_2 1_555 1_555
O57_2 Pr12 1_555 1_555
O58_2 Pr12 1_555 1_555
O59_2 Pr12 1_555 1_555
O60_2 Pr12 1_555 1_555
O61_2 Pr12 1_555 1_555
C45_2 C46_2 1_555 1_555
C11_2 C12_2 1_555 1_555
C12_2 C13_2 1_555 1_555
C13_2 H3_2 1_555 1_555
C14_2 C11_2 1_555 1_555
C15_2 C12_2 1_555 1_555
O65 C7_2 1_555 1_555
O67 C7_2 1_555 1_555
O9_2 C14_2 1_555 1_555
O11_2 Pr6 1_555 1_555
O12_2 C15_2 1_555 1_555
O21_2 Pr6 1_555 1_555
O22_2 Pr6 1_555 1_555
O23_2 Pr6 1_555 1_555
O24_2 Pr6 1_555 1_555
Cu6 O42_2 1_555 1_555
Cu8 O9_2 1_555 1_555
C31_2 C32_2 1_555 1_555
C32_2 C33_2 1_555 1_555
C33_2 H7_2 1_555 1_555
C34_2 C33_2 1_555 1_555
C35_2 C34_2 1_555 1_555
C36_2 C31_2 1_555 1_555
C38_2 C32_2 1_555 1_555
C39_2 C34_2 1_555 1_555
C40_2 C35_2 1_555 1_555
C41_2 C42_2 1_555 1_555
C47_2 C41_2 1_555 1_555
C48_2 C42_2 1_555 1_555
O72 C38_2 1_555 1_555
O74 C39_2 1_555 1_555
O42_2 C39_2 1_555 1_555
O43_2 Cu8 1_555 1_555
O44_2 C40_2 1_555 1_555
O45_2 Cu6 1_555 1_555
O46_2 C47_2 1_555 1_555
O47_2 Cu8 1_555 1_555
O62_2 Cu6 1_555 1_555
O63_2 Cu6 1_555 1_555
O64_2 Cu8 1_555 1_555
C15_2 O11_2 1_555 1_555
C35_2 C36_2 1_555 1_555
C40_2 O43_2 1_555 1_555
C47_2 O45_2 1_555 1_555
C48_2 O47_2 1_555 1_555
C48_2 O76 1_555 1_555
O23_2 H13 1_555 1_555
O64_2 H58 1_555 1_555
Cu5 O6_2 1_555 1_555
Cu7 O7_2 1_555 1_555
C1_2 C2_2 1_555 1_555
C2_2 C3_2 1_555 1_555
C3_2 H1_2 1_555 1_555
C4_2 C3_2 1_555 1_555
C5_2 C4_2 1_555 1_555
C6_2 C1_2 1_555 1_555
C8_2 C2_2 1_555 1_555
C9_2 C4_2 1_555 1_555
C10_2 C5_2 1_555 1_555
C16_2 C17_2 1_555 1_555
C22_2 C16_2 1_555 1_555
C23_2 C17_2 1_555 1_555
O71 C8_2 1_555 1_555
O73 C9_2 1_555 1_555
O6_2 C9_2 1_555 1_555
O7_2 C10_2 1_555 1_555
O8_2 C10_2 1_555 1_555
O13_2 Cu5 1_555 1_555
O14_2 C22_2 1_555 1_555
O15_2 Cu7 1_555 1_555
O30_2 Cu5 1_555 1_555
O31_2 Cu5 1_555 1_555
O32_2 Cu7 1_555 1_555
C27_2 C26_2 1_555 1_555
H6_2 C28_2 1_555 1_555
C29_2 C26_2 1_555 1_555
C30_2 C27_2 1_555 1_555
O33_2 Cu7 1_555 1_555
O35_2 C30_2 1_555 1_555
O36_2 C30_2 1_555 1_555
Pr8 O35_2 1_555 1_555
O68 C37_2 1_555 1_555
O53_2 Pr8 1_555 1_555
O54_2 Pr8 1_555 1_555
O55_2 Pr8 1_555 1_555
O56_2 Pr8 1_555 1_555
C5_2 C6_2 1_555 1_555
C22_2 O13_2 1_555 1_555
C23_2 O15_2 1_555 1_555
C23_2 O75 1_555 1_555
C27_2 C28_2 1_555 1_555
C29_2 O33_2 1_555 1_555
C37_2 O66 1_555 1_555
O32_2 H34 1_555 1_555
O53_2 H35 1_555 1_555
O54_2 H37_2 1_555 1_555
O55_2 H39 1_555 1_555
Pr10 O19_2 1_555 1_555
C18_2 H4_2 1_555 1_555
C19_2 C18_2 1_555 1_555
C20_2 C19_2 1_555 1_555
H5_2 C21_2 1_555 1_555
C24_2 C19_2 1_555 1_555
C25_2 C20_2 1_555 1_555
O77 C24_2 1_555 1_555
O79 C24_2 1_555 1_555
O19_2 C25_2 1_555 1_555
O81 C25_2 1_555 1_555
O25_2 Pr10 1_555 1_555
O26_2 Pr10 1_555 1_555
O27_2 Pr10 1_555 1_555
O28_2 Pr10 1_555 1_555
O29_2 Pr10 1_555 1_555
C20_2 C21_2 1_555 1_555
O28 H47_2 1_555 1_555
O63 H29_2 1_555 1_555
O64_2 H34_2 1_555 1_555
O21_2 H35_2 1_555 1_555
O22_2 H37_4 1_555 1_555
O23_2 H39_2 1_555 1_555
O55_2 H13_2 1_555 1_555
O32_2 H58_2 1_555 1_555

#END
