
###############################################################################
#
# This file contains modified crystal structure data generated from the
# MOF subset of the Cambridge Structural Database (CSD) v543 
# hosted by the Cambridge Crystallographic Data Centre (CCDC).
#
# This work is licensed under the Creative Commons
# Attribution-NonCommercial-ShareAlike 4.0 International License.
# To view a copy of this license, visit
# http://creativecommons.org/licenses/by-nc-sa/4.0/
# or send a letter to
# Creative Commons, PO Box 1866, Mountain View, CA 94042, USA.
#
# CIF created using the CSD Python API on 29 September 2022
# The structure has been converted into the P1 space group
# The structure has a 3D framework
# The original CSD entry FALVUL01 is in the monoclinic crystal system
# The framework has been calculated to contain at least 10.0% void space
# The void calculation uses a probe of radius 1.32A, grid spacing 0.4
# H atom positions have been added when not included in the experimental data
# Generated hydrogen atom positions removed from atoms on special positions
#
###############################################################################

data_FALVUL01
_chemical_formula_moiety         '(C100 H184 Cu8 O127 Pr8)n'
_symmetry_cell_setting           triclinic
_symmetry_space_group_name_H-M   'P 1'
_symmetry_Int_Tables_number      1
_space_group_name_Hall           'P 1'
loop_
_symmetry_equiv_pos_site_id
_symmetry_equiv_pos_as_xyz
1 x,y,z
_cell_length_a                   10.920(2)
_cell_length_b                   20.369(4)
_cell_length_c                   19.792(4)
_cell_angle_alpha                90
_cell_angle_beta                 99.59(3)
_cell_angle_gamma                90
_cell_volume                     4340.8
loop_
_atom_site_label
_atom_site_type_symbol
_atom_site_fract_x
_atom_site_fract_y
_atom_site_fract_z
Cu2 Cu 0.29507(4) 0.17310(2) 0.58911(2)
C10 C 0.0344(3) 0.17169(19) 0.60493(18)
O7 O 0.1362(2) 0.20441(14) 0.61331(14)
O8 O 0.0245(3) 0.11220(16) 0.60178(18)
O32 O 0.4666(3) 0.17776(14) 0.56217(15)
Pr4 Pr 0.037244(17) 0.372470(9) 0.845159(10)
Cu4 Cu 0.07855(4) 0.17338(2) 0.83025(2)
C36 C 0.1270(3) 0.01263(18) 0.51262(19)
C38 C 0.0494(3) 0.04653(19) 0.46142(19)
H8 H 0.0828 0.0777 0.4353
C39 C 0.2622(3) 0.03017(18) 0.52339(19)
O43 O 0.3083(3) 0.06429(14) 0.57480(15)
O45 O 0.3236(3) 0.01061(16) 0.47831(15)
O54 O 0.3746(3) 0.17749(14) 0.68504(13)
O64 O 0.2218(3) 0.18231(13) 0.49350(13)
Pr5 Pr 0.462756(17) 0.872470(9) 0.654841(10)
C37 C 0.0773(3) 0.96576(19) 0.55110(19)
C40 C 0.1576(4) 0.9253(2) 0.6042(2)
O46 O 0.2738(2) 0.92495(15) 0.60360(15)
O48 O 0.1070(3) 0.8927(2) 0.6457(2)
Pr7 Pr 0.839380(19) 0.126350(9) 0.081240(10)
Cu11 Cu 0.79507(4) 0.32690(2) 0.08911(2)
O61 O 0.7293(3) 0.20909(14) 0.00728(14)
Pr1 Pr 0.537244(17) 0.127530(9) 0.345159(10)
Pr2 Pr 0.339380(19) 0.373650(9) 0.581240(10)
Cu1 Cu 0.57855(4) 0.32662(2) 0.33025(2)
C1 C 0.7441(3) 0.26067(19) 0.51998(17)
C2 C 0.7121(3) 0.29665(18) 0.57495(18)
C3 C 0.7861(3) 0.29288(19) 0.63881(18)
H1 H 0.7676 0.3185 0.6746
C4 C 0.8882(3) 0.25086(19) 0.64974(16)
C5 C 0.9202(3) 0.21468(19) 0.59537(18)
C6 C 0.8476(3) 0.2202(2) 0.53054(18)
H2 H 0.8688 0.1964 0.4941
C7 C 0.6734(3) 0.26787(18) 0.44879(18)
C8 C 0.5896(3) 0.33130(19) 0.56951(18)
C9 C 0.9555(3) 0.2414(2) 0.72115(17)
C12 C 0.9227(3) 0.03424(19) 0.44890(19)
C15 C 0.8424(4) 0.0747(2) 0.3958(2)
C18 C 0.0879(3) 0.2140(2) 0.28210(18)
H4 H 0.1064 0.1886 0.2461
C19 C 0.1626(3) 0.20956(19) 0.34591(18)
C20 C 0.1329(3) 0.24696(19) 0.40045(17)
C21 C 0.0306(3) 0.28775(19) 0.39026(18)
H5 H 0.0113 0.3123 0.4267
C23 C 0.2835(3) 0.17193(19) 0.35324(19)
C24 C 0.2018(3) 0.23996(19) 0.47244(17)
O1 O 0.6393(3) 0.21790(15) 0.41440(14)
O2 O 0.6570(3) 0.32583(14) 0.42641(13)
O3 O 0.4968(2) 0.30586(14) 0.53162(13)
O4 O 0.5789(3) 0.38131(15) 0.60519(17)
O5 O 0.9620(3) 0.28839(16) 0.76223(14)
O6 O 0.9981(3) 0.18529(15) 0.73615(13)
O11 O 0.7262(2) 0.07505(15) 0.39640(15)
O12 O 0.8930(3) 0.1073(2) 0.3543(2)
O17 O 0.2922(3) 0.11971(14) 0.32240(18)
O18 O 0.3772(2) 0.19950(14) 0.38895(14)
O19 O 0.2293(3) 0.29091(14) 0.50728(14)
O21 O 0.5124(3) 0.08899(14) 0.46484(14)
O22 O 0.4991(4) 0.00282(16) 0.34465(18)
O23 O 0.5158(5) 0.0785(2) 0.2270(2)
O24 O 0.7131(3) 0.17131(14) 0.28436(14)
O25 O 0.1624(3) 0.33571(16) 0.64216(16)
O26 O 0.3834(5) 0.42060(19) 0.70146(19)
O27 O 0.3863(4) 0.49587(17) 0.57865(18)
O28 O 0.1452(3) 0.4378(2) 0.5382(2)
O29 O 0.3807(4) 0.41679(17) 0.46671(17)
O30 O 0.4102(3) 0.32753(15) 0.36130(15)
O31 O 0.5702(5) 0.43393(19) 0.3088(2)
C26 C 0.2441(3) 0.23933(19) 0.01998(17)
C27 C 0.2121(3) 0.20335(18) 0.07495(18)
C28 C 0.2861(3) 0.20712(19) 0.13881(18)
H6 H 0.2676 0.1815 0.1746
C29 C 0.3882(3) 0.24914(19) 0.14974(16)
C30 C 0.4202(3) 0.28532(19) 0.09537(18)
C31 C 0.3476(3) 0.2798(2) 0.03054(18)
C33 C 0.0896(3) 0.16870(19) 0.06951(18)
C34 C 0.4555(3) 0.2586(2) 0.22115(17)
C35 C 0.5344(3) 0.32831(19) 0.10493(18)
C41 C 0.4558(3) 0.20737(19) 0.82613(17)
C42 C 0.4855(3) 0.24385(19) 0.77114(17)
C43 C 0.5879(3) 0.2860(2) 0.78210(18)
H9 H 0.6064 0.3114 0.7461
C44 C 0.6626(3) 0.29044(19) 0.84591(18)
C45 C 0.6329(3) 0.25304(19) 0.90045(17)
C46 C 0.5306(3) 0.21225(19) 0.89026(18)
H10 H 0.5113 0.1877 0.9267
C47 C 0.4165(3) 0.23419(19) 0.70004(18)
C48 C 0.7835(3) 0.32807(19) 0.85324(19)
C49 C 0.7018(3) 0.26004(19) 0.97244(17)
O36 O 0.0789(3) 0.11869(15) 0.10519(17)
O37 O 0.4620(3) 0.21161(16) 0.26223(14)
O39 O 0.4981(3) 0.31471(15) 0.23615(13)
O41 O 0.6362(2) 0.29559(14) 0.11331(14)
O42 O 0.5245(3) 0.38780(16) 0.10178(18)
O44 O 0.8083(3) 0.43571(14) 0.07480(15)
O49 O 0.2392(2) 0.19737(14) 0.80368(14)
O50 O 0.7392(2) 0.30263(14) 0.30368(14)
O52 O 0.3486(3) 0.10862(16) 0.84093(19)
O55 O 0.8746(3) 0.32251(14) 0.18504(13)
O56 O 0.4076(3) 0.28115(15) 0.65864(14)
O57 O 0.7922(3) 0.38029(14) 0.82240(18)
O59 O 0.8772(2) 0.30050(14) 0.88895(14)
O63 O 0.7218(3) 0.31769(13) 0.99350(13)
O77 O 0.9666(3) 0.32224(14) 0.06217(15)
C50 C 0.3401(4) 0.16653(19) 0.82229(19)
H55 H 0.961069 0.299271 0.0175097
H56 H 0.998888 0.367386 0.05807
H7 H 0.3688 0.3036 0.9941
C32 C 0.1734(3) 0.23213(18) 0.94879(18)
O33 O 0.1393(3) 0.28210(15) 0.91440(14)
O34 O 0.1570(3) 0.17417(14) 0.92641(13)
O47 O 0.2262(2) 0.42495(15) 0.89640(15)
O66 O 0.0124(3) 0.41101(14) 0.96484(14)
O68 O 0.0158(5) 0.4215(2) 0.7270(2)
O69 O 0.2131(3) 0.32869(14) 0.78436(14)
O76 O 0.0702(5) 0.06607(19) 0.8088(2)
H35 H 0.0956198 0.416383 0.993392
H53 H 0.0799154 0.520595 0.850206
C11 C 0.8730(3) 0.98737(18) 0.48738(19)
C13 C 0.9506(3) 0.95347(19) 0.53858(19)
H3 H 0.9172 0.9223 0.5647
C14 C 0.7378(3) 0.96983(18) 0.47661(19)
O9 O 0.6917(3) 0.93571(14) 0.42520(15)
O10 O 0.6764(3) 0.98939(16) 0.52169(15)
Cu8 Cu 0.70493(4) 0.82690(2) 0.41089(2)
H27 H 0.45516 0.991072 0.383033
H28 H 0.447509 0.98987 0.300515
C16 C 0.9558(3) 0.29263(19) 0.32613(17)
C17 C 0.9855(3) 0.25615(19) 0.27114(17)
C22 C 0.9165(3) 0.26581(19) 0.20004(18)
O14 O 0.8486(3) 0.39138(16) 0.34093(19)
O16 O 0.9076(3) 0.21885(15) 0.15864(14)
C25 C 0.8401(4) 0.33347(19) 0.32229(19)
O35 O 0.9968(2) 0.19414(14) 0.03162(13)
O70 O 0.6624(3) 0.16429(16) 0.14216(16)
O71 O 0.8834(5) 0.07940(19) 0.20146(19)
O72 O 0.8863(4) 0.00413(17) 0.07865(18)
O73 O 0.6452(3) 0.0622(2) 0.0382(2)
O67 O 0.9991(4) 0.49718(16) 0.84465(18)
O74 O 0.8807(4) 0.08321(17) 0.96671(17)
O75 O 0.9102(3) 0.17247(15) 0.86130(15)
H36 H 0.967867 0.453694 0.961459
H41 H 0.979595 0.3884 0.692546
H42 H 0.96049 0.460455 0.724038
H54 H 0.947509 0.51013 0.800515
H53_2 H 0.420085 0.0205953 0.649794
H54_2 H 0.552491 0.01013 0.699485
C16_2 C 0.5442(3) 0.79263(19) 0.17387(17)
C17_2 C 0.5145(3) 0.75615(19) 0.22886(17)
C18_2 C 0.4121(3) 0.7140(2) 0.21790(18)
H4_2 H 0.3936 0.6886 0.2539
C19_2 C 0.3374(3) 0.70956(19) 0.15409(18)
C20_2 C 0.3671(3) 0.74696(19) 0.09955(17)
C21_2 C 0.4694(3) 0.78775(19) 0.10974(18)
H5_2 H 0.4887 0.8123 0.0733
C22_2 C 0.5835(3) 0.76581(19) 0.29996(18)
C23_2 C 0.2165(3) 0.67193(19) 0.14676(19)
C24_2 C 0.2982(3) 0.73996(19) 0.02756(17)
O13 O 0.7608(2) 0.80263(14) 0.19632(14)
O14_2 O 0.6514(3) 0.89138(16) 0.15907(19)
O15 O 0.6254(3) 0.82251(14) 0.31496(13)
O16_2 O 0.5924(3) 0.71885(15) 0.34136(14)
O17_2 O 0.2078(3) 0.61971(14) 0.17760(18)
O18_2 O 0.1228(2) 0.69950(14) 0.11105(14)
O20 O 0.2782(3) 0.68231(13) 0.00650(13)
O22_2 O 0.0009(4) 0.50282(16) 0.15535(18)
O29_2 O 0.1193(4) 0.91679(17) 0.03329(17)
O30_2 O 0.0898(3) 0.82753(15) 0.13870(15)
C25_2 C 0.6599(4) 0.83347(19) 0.17771(19)
Pr6 Pr 0.660620(19) 0.626350(9) 0.418760(10)
Cu3 Cu 0.42145(4) 0.67338(2) 0.66975(2)
Cu5 Cu 0.92145(4) 0.82662(2) 0.16975(2)
C26_2 C 0.2559(3) 0.73933(19) 0.48002(17)
C27_2 C 0.2879(3) 0.70335(18) 0.42505(18)
C28_2 C 0.2139(3) 0.70712(19) 0.36119(18)
H6_2 H 0.2324 0.6815 0.3254
C29_2 C 0.1118(3) 0.74914(19) 0.35026(16)
C30_2 C 0.0798(3) 0.78532(19) 0.40463(18)
C31_2 C 0.1524(3) 0.7798(2) 0.46946(18)
H7_2 H 0.1312 0.8036 0.5059
C32_2 C 0.3266(3) 0.73213(18) 0.55121(18)
C33_2 C 0.4104(3) 0.66870(19) 0.43049(18)
C34_2 C 0.0445(3) 0.7586(2) 0.27885(17)
O33_2 O 0.3607(3) 0.78210(15) 0.58560(14)
O34_2 O 0.3430(3) 0.67417(14) 0.57359(13)
O35_2 O 0.5032(2) 0.69414(14) 0.46838(13)
O36_2 O 0.4211(3) 0.61869(15) 0.39481(17)
O37_2 O 0.0380(3) 0.71161(16) 0.23777(14)
O38 O 0.5380(3) 0.78839(16) 0.73777(14)
O39_2 O 0.0019(3) 0.81471(15) 0.26385(13)
O40 O 0.5019(3) 0.68529(15) 0.76385(13)
O51 O 0.2608(2) 0.69737(14) 0.69632(14)
O58 O 0.7078(3) 0.88029(14) 0.67760(18)
O60 O 0.6228(2) 0.80050(14) 0.61105(14)
O62 O 0.7707(3) 0.70909(14) 0.49272(14)
O66_2 O 0.4876(3) 0.91101(14) 0.53516(14)
O67_2 O 0.5009(4) 0.99718(16) 0.65535(18)
O68_2 O 0.4842(5) 0.9215(2) 0.7730(2)
O69_2 O 0.2869(3) 0.82869(14) 0.71564(14)
O70_2 O 0.8376(3) 0.66429(16) 0.35784(16)
O71_2 O 0.6166(5) 0.57940(19) 0.29854(19)
O72_2 O 0.6137(4) 0.50413(17) 0.42135(18)
O73_2 O 0.8548(3) 0.5622(2) 0.4618(2)
O74_2 O 0.6193(4) 0.58321(17) 0.53329(17)
O75_2 O 0.5898(3) 0.67247(15) 0.63870(15)
O76_2 O 0.4298(5) 0.56607(19) 0.6912(2)
H13 H 0.0359522 0.622053 0.0137702
H14 H 0.032133 0.546306 0.0385406
H20 H 0.0395103 0.539545 0.275962
H27_2 H 0.04484 0.491072 0.116967
H28_2 H 0.0524913 0.48987 0.199485
Pr2_2 Pr 0.160620(19) 0.873650(9) 0.918760(10)
O3_2 O 0.0032(2) 0.80586(14) 0.96838(13)
O19_2 O 0.2707(3) 0.79091(14) 0.99272(14)
O25_2 O 0.3376(3) 0.83571(16) 0.85784(16)
O26_2 O 0.1166(5) 0.92060(19) 0.79854(19)
O27_2 O 0.1137(4) 0.99587(17) 0.92135(18)
O28_2 O 0.3548(3) 0.9378(2) 0.9618(2)
Cu10 Cu 0.20493(4) 0.67310(2) 0.91089(2)
C41_2 C 0.0442(3) 0.70737(19) 0.67387(17)
C42_2 C 0.0145(3) 0.74385(19) 0.72886(17)
C47_2 C 0.0835(3) 0.73419(19) 0.79996(18)
O52_2 O 0.1514(3) 0.60862(16) 0.65907(19)
O53 O 0.1254(3) 0.67749(14) 0.81496(13)
O56_2 O 0.0924(3) 0.78115(15) 0.84136(14)
C50_2 C 0.1599(4) 0.66653(19) 0.67771(19)
Pr1_2 Pr 0.962756(17) 0.627530(9) 0.154841(10)
H2_2 H 0.6312 0.6964 0.0059
C7_2 C 0.8266(3) 0.76787(18) 0.05121(18)
C11_2 C 0.6270(3) 0.48737(18) 0.01262(19)
C12_2 C 0.5773(3) 0.53424(19) 0.05110(19)
C14_2 C 0.7622(3) 0.46983(18) 0.02339(19)
C15_2 C 0.6576(4) 0.5747(2) 0.1042(2)
O1_2 O 0.8607(3) 0.71790(15) 0.08560(14)
O2_2 O 0.8430(3) 0.82583(14) 0.07359(13)
O11_2 O 0.7738(2) 0.57505(15) 0.10360(15)
O12_2 O 0.6070(3) 0.6073(2) 0.1457(2)
O21_2 O 0.9876(3) 0.58899(14) 0.03516(14)
O23_2 O 0.9842(5) 0.5785(2) 0.2730(2)
O24_2 O 0.7869(3) 0.67131(14) 0.21564(14)
O31_2 O 0.9298(5) 0.93393(19) 0.1912(2)
C35_2 C 0.9656(3) 0.82831(19) 0.39507(18)
C38_2 C 0.4506(3) 0.54653(19) 0.03858(19)
H8_2 H 0.4172 0.5777 0.0647
O41_2 O 0.8638(2) 0.79559(14) 0.38669(14)
O42_2 O 0.9755(3) 0.88780(16) 0.39822(18)
O45_2 O 0.1764(3) 0.51061(16) 0.02169(15)
O65 O 0.7782(3) 0.81769(13) 0.50650(13)
O77_2 O 0.5334(3) 0.82224(14) 0.43783(15)
H19 H 0.901143 0.565018 0.282187
C1_2 C 0.7559(3) 0.76067(19) 0.98002(17)
C2_2 C 0.7879(3) 0.79665(18) 0.92505(18)
C3_2 C 0.7139(3) 0.79288(19) 0.86119(18)
H1_2 H 0.7324 0.8185 0.8254
C4_2 C 0.6118(3) 0.75086(19) 0.85026(16)
C5_2 C 0.5798(3) 0.71468(19) 0.90463(18)
C6_2 C 0.6524(3) 0.7202(2) 0.96946(18)
C8_2 C 0.9104(3) 0.83130(19) 0.93049(18)
C9_2 C 0.5445(3) 0.7414(2) 0.77885(17)
C10_2 C 0.4656(3) 0.67169(19) 0.89507(18)
C13_2 C 0.5494(3) 0.45347(19) 0.96142(19)
H3_2 H 0.5828 0.4223 0.9353
O4_2 O 0.9211(3) 0.88131(15) 0.89481(17)
O7_2 O 0.3638(2) 0.70441(14) 0.88669(14)
O8_2 O 0.4755(3) 0.61220(16) 0.89822(18)
O10_2 O 0.8236(3) 0.48939(16) 0.97831(15)
O32_2 O 0.0334(3) 0.67776(14) 0.93783(15)
C36_2 C 0.3730(3) 0.51263(18) 0.98738(19)
C37_2 C 0.4227(3) 0.46576(19) 0.94890(19)
C39_2 C 0.2378(3) 0.53017(18) 0.97661(19)
C40_2 C 0.3424(4) 0.4253(2) 0.8958(2)
C43_2 C 0.9121(3) 0.7860(2) 0.71790(18)
H9_2 H 0.8936 0.8114 0.7539
C44_2 C 0.8374(3) 0.79044(19) 0.65409(18)
C45_2 C 0.8671(3) 0.75304(19) 0.59955(17)
C46_2 C 0.9694(3) 0.71225(19) 0.60974(18)
H10_2 H 0.9887 0.6877 0.5733
C48_2 C 0.7165(3) 0.82807(19) 0.64676(19)
C49_2 C 0.7982(3) 0.76004(19) 0.52756(17)
O43_2 O 0.1917(3) 0.56429(14) 0.92520(15)
O48_2 O 0.3930(3) 0.3927(2) 0.8543(2)
H26 H 0.00111229 0.632614 0.94193
H41_2 H 0.0204048 0.6116 0.307454
H27_3 H 0.54484 0.00892754 0.616967
H35_2 H 0.90438 0.583617 0.00660817
H53_3 H 0.920085 0.479405 0.149794
H55_2 H 0.0389307 0.700729 0.98249
H19_2 H 0.0988574 0.434982 0.717813
H13_2 H 0.964048 0.377947 0.98623
H27_4 H 0.95516 0.508928 0.883033
H53_4 H 0.579915 0.979405 0.350206
H47 H 0.863833 0.982799 0.120012
H48 H 0.837163 0.984237 0.0369385
H17 H 0.114932 0.010048 0.969462
H18 H 0.177453 0.0206864 0.901481
H25 H 0.97639 0.702213 0.902226
H47_2 H 0.136167 0.0172012 0.879988
H48_2 H 0.162837 0.0157632 0.963061
H25_2 H 0.0236098 0.297787 0.0977741
H17_2 H 0.885068 0.989952 0.0305383
H18_2 H 0.822547 0.979314 0.0985194
loop_
_geom_bond_atom_site_label_1
_geom_bond_atom_site_label_2
_geom_bond_site_symmetry_1
_geom_bond_site_symmetry_2
Cu2 O7 1_555 1_555
O7 C10 1_555 1_555
O8 C10 1_555 1_555
O32 Cu2 1_555 1_555
H8 C38 1_555 1_555
C39 C36 1_555 1_555
O43 Cu2 1_555 1_555
O45 C39 1_555 1_555
O54 Cu2 1_555 1_555
O64 Cu2 1_555 1_555
C36 C38 1_555 1_555
C39 O43 1_555 1_555
Pr5 O46 1_555 1_555
C40 C37 1_555 1_555
O46 C40 1_555 1_555
O48 C40 1_555 1_555
Pr7 O61 1_555 1_555
Pr1 O1 1_555 1_555
Pr2 O3 1_555 1_555
Cu1 O2 1_555 1_555
C1 C2 1_555 1_555
C2 C3 1_555 1_555
C3 H1 1_555 1_555
C4 C3 1_555 1_555
C5 C4 1_555 1_555
C6 C1 1_555 1_555
H2 C6 1_555 1_555
C7 C1 1_555 1_555
C8 C2 1_555 1_555
C9 C4 1_555 1_555
C12 C15 1_555 1_555
C15 O11 1_555 1_555
C18 H4 1_555 1_555
C19 C18 1_555 1_555
C20 C19 1_555 1_555
H5 C21 1_555 1_555
C23 C19 1_555 1_555
C24 C20 1_555 1_555
O1 C7 1_555 1_555
O2 C7 1_555 1_555
O3 C8 1_555 1_555
O4 Pr2 1_555 1_555
O5 C9 1_555 1_555
O6 C9 1_555 1_555
O11 Pr1 1_555 1_555
O12 C15 1_555 1_555
O17 Pr1 1_555 1_555
O18 Pr1 1_555 1_555
O19 Pr2 1_555 1_555
O64 C24 1_555 1_555
O21 Pr1 1_555 1_555
O22 Pr1 1_555 1_555
O23 Pr1 1_555 1_555
O24 Pr1 1_555 1_555
O25 Pr2 1_555 1_555
O26 Pr2 1_555 1_555
O27 Pr2 1_555 1_555
O28 Pr2 1_555 1_555
O29 Pr2 1_555 1_555
O30 Cu1 1_555 1_555
O31 Cu1 1_555 1_555
Cu4 O49 1_555 1_555
Cu11 O41 1_555 1_555
C26 C27 1_555 1_555
C27 C28 1_555 1_555
C28 H6 1_555 1_555
C29 C28 1_555 1_555
C30 C29 1_555 1_555
C31 C26 1_555 1_555
C33 C27 1_555 1_555
C34 C29 1_555 1_555
C35 C30 1_555 1_555
C41 C42 1_555 1_555
C42 C43 1_555 1_555
C43 H9 1_555 1_555
C44 C43 1_555 1_555
C45 C44 1_555 1_555
C46 C41 1_555 1_555
H10 C46 1_555 1_555
C47 C42 1_555 1_555
C48 C44 1_555 1_555
C49 C45 1_555 1_555
O37 Pr1 1_555 1_555
O39 Cu1 1_555 1_555
O41 C35 1_555 1_555
O42 C35 1_555 1_555
O44 Cu11 1_555 1_555
O49 C50 1_555 1_555
O50 Cu1 1_555 1_555
O52 C50 1_555 1_555
O55 Cu11 1_555 1_555
O56 Pr2 1_555 1_555
O63 C49 1_555 1_555
O77 Cu11 1_555 1_555
C50 C41 1_555 1_555
C5 C6 1_555 1_555
C8 O4 1_555 1_555
C20 C21 1_555 1_555
C23 O17 1_555 1_555
C23 O18 1_555 1_555
C24 O19 1_555 1_555
C30 C31 1_555 1_555
C33 O36 1_555 1_555
C34 O37 1_555 1_555
C34 O39 1_555 1_555
C45 C46 1_555 1_555
C47 O54 1_555 1_555
C47 O56 1_555 1_555
C48 O57 1_555 1_555
C48 O59 1_555 1_555
O77 H55 1_555 1_555
O77 H56 1_555 1_555
Pr4 O33 1_555 1_555
Cu4 O34 1_555 1_555
O33 C32 1_555 1_555
O34 C32 1_555 1_555
O47 Pr4 1_555 1_555
O66 Pr4 1_555 1_555
O68 Pr4 1_555 1_555
O69 Pr4 1_555 1_555
O76 Cu4 1_555 1_555
O66 H35 1_555 1_555
C13 C11 1_555 1_555
H3 C13 1_555 1_555
C14 C11 1_555 1_555
O9 C14 1_555 1_555
O10 C14 1_555 1_555
Cu8 O9 1_555 1_555
C16 C17 1_555 1_555
C22 C17 1_555 1_555
O50 C25 1_555 1_555
O14 C25 1_555 1_555
O55 C22 1_555 1_555
O16 C22 1_555 1_555
C25 C16 1_555 1_555
Pr7 O16 1_555 1_555
O35 Pr7 1_555 1_555
O70 Pr7 1_555 1_555
O71 Pr7 1_555 1_555
O72 Pr7 1_555 1_555
O73 Pr7 1_555 1_555
O67 H54 1_555 1_555
C16_2 C17_2 1_555 1_555
C17_2 C18_2 1_555 1_555
C18_2 H4_2 1_555 1_555
C19_2 C18_2 1_555 1_555
C20_2 C19_2 1_555 1_555
C21_2 C16_2 1_555 1_555
H5_2 C21_2 1_555 1_555
C22_2 C17_2 1_555 1_555
C23_2 C19_2 1_555 1_555
C24_2 C20_2 1_555 1_555
O13 C25_2 1_555 1_555
O14_2 C25_2 1_555 1_555
O15 C22_2 1_555 1_555
O16_2 C22_2 1_555 1_555
O20 C24_2 1_555 1_555
C25_2 C16_2 1_555 1_555
Pr5 O33_2 1_555 1_555
Pr6 O16_2 1_555 1_555
Cu3 O34_2 1_555 1_555
Cu5 O13 1_555 1_555
Cu8 O15 1_555 1_555
C26_2 C27_2 1_555 1_555
C27_2 C28_2 1_555 1_555
C28_2 H6_2 1_555 1_555
C29_2 C28_2 1_555 1_555
C30_2 C29_2 1_555 1_555
C31_2 C26_2 1_555 1_555
H7_2 C31_2 1_555 1_555
C32_2 C26_2 1_555 1_555
C33_2 C27_2 1_555 1_555
C34_2 C29_2 1_555 1_555
O33_2 C32_2 1_555 1_555
O34_2 C32_2 1_555 1_555
O35_2 Pr6 1_555 1_555
O36_2 Pr6 1_555 1_555
O38 Pr5 1_555 1_555
O40 Cu3 1_555 1_555
O51 Cu3 1_555 1_555
O58 Pr5 1_555 1_555
O60 Pr5 1_555 1_555
O62 Pr6 1_555 1_555
O66_2 Pr5 1_555 1_555
O67_2 Pr5 1_555 1_555
O68_2 Pr5 1_555 1_555
O69_2 Pr5 1_555 1_555
O70_2 Pr6 1_555 1_555
O71_2 Pr6 1_555 1_555
O72_2 Pr6 1_555 1_555
O73_2 Pr6 1_555 1_555
O74_2 Pr6 1_555 1_555
O75_2 Cu3 1_555 1_555
O76_2 Cu3 1_555 1_555
C20_2 C21_2 1_555 1_555
C23_2 O17_2 1_555 1_555
C23_2 O18_2 1_555 1_555
C30_2 C31_2 1_555 1_555
C33_2 O35_2 1_555 1_555
C33_2 O36_2 1_555 1_555
C34_2 O37_2 1_555 1_555
C34_2 O39_2 1_555 1_555
O22_2 H27_2 1_555 1_555
O22_2 H28_2 1_555 1_555
Pr2_2 O3_2 1_555 1_555
O19_2 Pr2_2 1_555 1_555
O25_2 Pr2_2 1_555 1_555
O26_2 Pr2_2 1_555 1_555
O27_2 Pr2_2 1_555 1_555
O28_2 Pr2_2 1_555 1_555
C41_2 C42_2 1_555 1_555
C47_2 C42_2 1_555 1_555
O51 C50_2 1_555 1_555
O52_2 C50_2 1_555 1_555
O53 Cu10 1_555 1_555
O56_2 Pr2_2 1_555 1_555
C50_2 C41_2 1_555 1_555
C47_2 O53 1_555 1_555
C47_2 O56_2 1_555 1_555
Pr1_2 O1_2 1_555 1_555
Cu5 O2_2 1_555 1_555
C11_2 C12_2 1_555 1_555
C12_2 C15_2 1_555 1_555
C14_2 C11_2 1_555 1_555
C15_2 O11_2 1_555 1_555
O1_2 C7_2 1_555 1_555
O2_2 C7_2 1_555 1_555
O44 C14_2 1_555 1_555
O11_2 Pr1_2 1_555 1_555
O12_2 C15_2 1_555 1_555
O21_2 Pr1_2 1_555 1_555
O23_2 Pr1_2 1_555 1_555
O24_2 Pr1_2 1_555 1_555
O31_2 Cu5 1_555 1_555
Cu8 O41_2 1_555 1_555
C38_2 C12_2 1_555 1_555
H8_2 C38_2 1_555 1_555
O41_2 C35_2 1_555 1_555
O42_2 C35_2 1_555 1_555
O65 Cu8 1_555 1_555
O77_2 Cu8 1_555 1_555
O23_2 H19 1_555 1_555
Cu10 O7_2 1_555 1_555
C1_2 C2_2 1_555 1_555
C2_2 C3_2 1_555 1_555
C3_2 H1_2 1_555 1_555
C4_2 C3_2 1_555 1_555
C5_2 C4_2 1_555 1_555
C6_2 C1_2 1_555 1_555
C8_2 C2_2 1_555 1_555
C9_2 C4_2 1_555 1_555
C10_2 C5_2 1_555 1_555
H3_2 C13_2 1_555 1_555
O38 C9_2 1_555 1_555
O40 C9_2 1_555 1_555
O7_2 C10_2 1_555 1_555
O8_2 C10_2 1_555 1_555
O32_2 Cu10 1_555 1_555
C36_2 C37_2 1_555 1_555
C37_2 C13_2 1_555 1_555
C39_2 C36_2 1_555 1_555
C40_2 C37_2 1_555 1_555
C43_2 H9_2 1_555 1_555
C44_2 C43_2 1_555 1_555
C45_2 C44_2 1_555 1_555
H10_2 C46_2 1_555 1_555
C48_2 C44_2 1_555 1_555
C49_2 C45_2 1_555 1_555
O43_2 Cu10 1_555 1_555
O47 C40_2 1_555 1_555
O48_2 C40_2 1_555 1_555
O62 C49_2 1_555 1_555
O65 C49_2 1_555 1_555
C5_2 C6_2 1_555 1_555
C8_2 O4_2 1_555 1_555
C39_2 O43_2 1_555 1_555
C45_2 C46_2 1_555 1_555
C48_2 O58 1_555 1_555
C48_2 O60 1_555 1_555
O32_2 H26 1_555 1_555
O21_2 H35_2 1_555 1_555
O32_2 H55_2 1_555 1_555
O68 H19_2 1_555 1_555
O67 H27_4 1_555 1_555

#END
