
###############################################################################
#
# This file contains modified crystal structure data generated from the
# MOF subset of the Cambridge Structural Database (CSD) v543 
# hosted by the Cambridge Crystallographic Data Centre (CCDC).
#
# This work is licensed under the Creative Commons
# Attribution-NonCommercial-ShareAlike 4.0 International License.
# To view a copy of this license, visit
# http://creativecommons.org/licenses/by-nc-sa/4.0/
# or send a letter to
# Creative Commons, PO Box 1866, Mountain View, CA 94042, USA.
#
# CIF created using the CSD Python API on 29 September 2022
# The structure has been converted into the P1 space group
# The structure has a 3D framework
# The original CSD entry FAMBUS is in the triclinic crystal system
# The framework has been calculated to contain at least 10.0% void space
# The void calculation uses a probe of radius 1.32A, grid spacing 0.4
#
###############################################################################

data_FAMBUS
_chemical_formula_moiety         '(C48 H28 Cd3 O16)n'
_symmetry_cell_setting           triclinic
_symmetry_space_group_name_H-M   'P 1'
_symmetry_Int_Tables_number      1
_space_group_name_Hall           'P 1'
loop_
_symmetry_equiv_pos_site_id
_symmetry_equiv_pos_as_xyz
1 x,y,z
_cell_length_a                   9.862(6)
_cell_length_b                   10.381(6)
_cell_length_c                   18.348(11)
_cell_angle_alpha                100.222(8)
_cell_angle_beta                 104.613(7)
_cell_angle_gamma                91.281(8)
_cell_volume                     1784.36
loop_
_atom_site_label
_atom_site_type_symbol
_atom_site_fract_x
_atom_site_fract_y
_atom_site_fract_z
_atom_site_U_iso_or_equiv
_atom_site_thermal_displace_type
C14 C 0.0309(4) 0.4312(4) 0.1828(2) 0.0687 Uani
H8 H 0.1072 0.3918 0.2090 0.0820 Uiso
H9 H 0.0339 0.3409 0.0761 0.0740 Uiso
H10 H 0.0565 0.4988 0.3265 0.0720 Uiso
H11 H 0.0593 0.6442 0.3154 0.0720 Uiso
C20 C 0.0236(6) 0.7032(5) 0.5784(3) 0.0457 Uani
H13 H 0.0535 0.7266 0.6316 0.0550 Uiso
C21 C 0.1235(6) 0.6796(6) 0.5359(3) 0.0477 Uani
C22 C 0.0797(6) 0.6438(6) 0.4558(3) 0.0518 Uani
H14 H 0.1451 0.6300 0.4270 0.0620 Uiso
C24 C 0.2764(6) 0.6969(6) 0.5790(3) 0.0471 Uani
O9 O 0.3189(4) 0.7549(3) 0.6460(2) 0.0520 Uani
O10 O 0.3530(4) 0.6496(4) 0.5379(2) 0.0553 Uani
Cd4 Cd 0.5000 0.5000 0.5000 0.0477 Uani
Cd10 Cd 0.55787(4) 0.76003(4) 0.65782(2) 0.0456 Uani
Cd11 Cd 0.44213(4) 0.23997(4) 0.34218(2) 0.0456 Uani
O13 O 0.4430(4) 0.0204(3) 0.3481(2) 0.0484 Uani
O16 O 0.3808(4) 0.0679(3) 0.2325(2) 0.0454 Uani
C10 C 0.8731(4) 0.4596(4) 0.06400(15) 0.0537 Uani
C11 C 0.8030(4) 0.5490(4) 0.1045(2) 0.0605 Uani
H6 H 0.7268 0.5884 0.0783 0.0730 Uiso
C12 C 0.8469(4) 0.5795(4) 0.1841(2) 0.0636 Uani
H7 H 0.8000 0.6393 0.2111 0.0760 Uiso
C13 C 0.9609(4) 0.5206(4) 0.22323(15) 0.0632 Uani
C15 C 0.9870(4) 0.4007(4) 0.1032(2) 0.0616 Uani
C16 C 0.9994(7) 0.5639(6) 0.3042(3) 0.0602 Uani
C17 C 0.9355(6) 0.6290(5) 0.4199(3) 0.0447 Uani
C18 C 0.8369(6) 0.6550(5) 0.4610(3) 0.0494 Uani
H12 H 0.7420 0.6484 0.4355 0.0590 Uiso
C19 C 0.8796(6) 0.6920(6) 0.5421(3) 0.0486 Uani
C23 C 0.7745(5) 0.7182(5) 0.5883(3) 0.0444 Uani
O6 O 0.8951(4) 0.5881(4) 0.3431(2) 0.0518 Uani
O7 O 0.6490(3) 0.6869(3) 0.5538(2) 0.0427 Uani
O8 O 0.8106(4) 0.7680(4) 0.6576(2) 0.0502 Uani
C1 C 0.6034(6) 0.3807(5) 0.7362(3) 0.0457 Uani
C2 C 0.5874(6) 0.2474(5) 0.7054(3) 0.0519 Uani
H1 H 0.5634 0.2178 0.6526 0.0620 Uiso
C3 C 0.6080(6) 0.1600(6) 0.7550(3) 0.0526 Uani
C4 C 0.6426(6) 0.2014(6) 0.8334(3) 0.0512 Uani
H2 H 0.6543 0.1414 0.8662 0.0610 Uiso
C5 C 0.6597(7) 0.3377(6) 0.8624(3) 0.0596 Uani
C6 C 0.6378(6) 0.4290(5) 0.8145(3) 0.0525 Uani
H3 H 0.6458 0.5187 0.8341 0.0630 Uiso
C7 C 0.5757(6) 0.4736(5) 0.6839(3) 0.0420 Uani
C8 C 0.5950(6) 0.0144(6) 0.7231(3) 0.0521 Uani
C9 C 0.8343(7) 0.4321(6) 0.9826(3) 0.0608 Uani
H4 H 0.9036 0.3777 0.9658 0.0730 Uiso
H5 H 0.8409 0.5144 0.9651 0.0730 Uiso
O1 O 0.5486(4) 0.4367(4) 0.6140(2) 0.0504 Uani
O2 O 0.5950(4) 0.5939(3) 0.7170(2) 0.0517 Uani
O5 O 0.6974(4) 0.3683(4) 0.9440(2) 0.0570 Uani
C25 C 0.3966(6) 0.6193(5) 0.2638(3) 0.0457 Uani
C26 C 0.4126(6) 0.7526(5) 0.2946(3) 0.0519 Uani
H15 H 0.4366 0.7822 0.3474 0.0620 Uiso
C27 C 0.3920(6) 0.8400(6) 0.2450(3) 0.0526 Uani
C28 C 0.3574(6) 0.7986(6) 0.1666(3) 0.0512 Uani
H16 H 0.3457 0.8586 0.1338 0.0610 Uiso
C29 C 0.3403(7) 0.6623(6) 0.1376(3) 0.0596 Uani
C30 C 0.3622(6) 0.5710(5) 0.1855(3) 0.0525 Uani
H17 H 0.3542 0.4813 0.1659 0.0630 Uiso
C31 C 0.4243(6) 0.5264(5) 0.3161(3) 0.0420 Uani
C32 C 0.4050(6) 0.9856(6) 0.2769(3) 0.0521 Uani
C33 C 0.1657(7) 0.5679(6) 0.0174(3) 0.0608 Uani
H18 H 0.0964 0.6223 0.0342 0.0730 Uiso
H19 H 0.1591 0.4856 0.0349 0.0730 Uiso
O11 O 0.4514(4) 0.5633(4) 0.3860(2) 0.0504 Uani
O12 O 0.4050(4) 0.4061(3) 0.2830(2) 0.0517 Uani
O14 O 0.5570(4) 0.9796(3) 0.6519(2) 0.0484 Uani
O17 O 0.6192(4) 0.9321(3) 0.7675(2) 0.0454 Uani
O19 O 0.3026(4) 0.6317(4) 0.0560(2) 0.0570 Uani
O23 O 0.3510(3) 0.3131(3) 0.4462(2) 0.0427 Uani
O26 O 0.1894(4) 0.2320(4) 0.3424(2) 0.0502 Uani
O29 O 0.6811(4) 0.2451(3) 0.3540(2) 0.0520 Uani
O32 O 0.6470(4) 0.3504(4) 0.4621(2) 0.0553 Uani
C34 C 0.1269(4) 0.5404(4) 0.93600(15) 0.0537 Uani
C35 C 0.1970(4) 0.4510(4) 0.8955(2) 0.0605 Uani
H20 H 0.2732 0.4116 0.9217 0.0730 Uiso
C36 C 0.1531(4) 0.4205(4) 0.8159(2) 0.0636 Uani
H21 H 0.2000 0.3607 0.7889 0.0760 Uiso
C37 C 0.0391(4) 0.4794(4) 0.77677(15) 0.0632 Uani
C39 C 0.0130(4) 0.5993(4) 0.8968(2) 0.0616 Uani
C40 C 0.0006(7) 0.4361(6) 0.6958(3) 0.0602 Uani
C41 C 0.0645(6) 0.3710(5) 0.5801(3) 0.0447 Uani
C42 C 0.1631(6) 0.3450(5) 0.5390(3) 0.0494 Uani
H26 H 0.2580 0.3516 0.5645 0.0590 Uiso
C43 C 0.1204(6) 0.3080(6) 0.4579(3) 0.0486 Uani
C47 C 0.2255(5) 0.2818(5) 0.4117(3) 0.0444 Uani
O20 O 0.1049(4) 0.4119(4) 0.6569(2) 0.0518 Uani
C38 C 0.9691(4) 0.5688(4) 0.8172(2) 0.0687 Uani
H22 H 0.8928 0.6082 0.7910 0.0820 Uiso
H23 H 0.9661 0.6591 0.9239 0.0740 Uiso
H24 H 0.9435 0.5012 0.6735 0.0720 Uiso
H25 H 0.9407 0.3558 0.6846 0.0720 Uiso
C44 C 0.9764(6) 0.2968(5) 0.4216(3) 0.0457 Uani
H27 H 0.9465 0.2734 0.3684 0.0550 Uiso
C45 C 0.8765(6) 0.3204(6) 0.4641(3) 0.0477 Uani
C46 C 0.9203(6) 0.3562(6) 0.5442(3) 0.0518 Uani
H28 H 0.8549 0.3700 0.5730 0.0620 Uiso
C48 C 0.7236(6) 0.3031(6) 0.4210(3) 0.0471 Uani
loop_
_atom_site_aniso_label
_atom_site_aniso_U_11
_atom_site_aniso_U_22
_atom_site_aniso_U_33
_atom_site_aniso_U_23
_atom_site_aniso_U_13
_atom_site_aniso_U_12
C14 0.071 0.08 0.052 0.009 0.014 -0.007
C20 0.052 0.055 0.039 0.026 0.015 0.016
C21 0.05 0.057 0.036 0.006 0.012 0.016
C22 0.049 0.065 0.041 0.007 0.013 0.004
C24 0.039 0.058 0.05 0.017 0.018 -0.004
O9 0.047 0.043 0.057 0.0125 -0.0056 0.0129
O10 0.055 0.064 0.051 0.0199 0.0146 0.01
Cd4 0.0491 0.0516 0.0371 0.0025 0.0061 -0.0014
Cd10 0.0562 0.039 0.0417 0.00466 0.01459 0.00681
Cd11 0.0562 0.039 0.0417 0.00466 0.01459 0.00681
O13 0.062 0.0357 0.05 0.0009 0.0255 -0.0127
O16 0.064 0.0341 0.044 0.0098 0.0223 0.0143
C10 0.06 0.045 0.054 0.01 0.013 -0.023
C11 0.061 0.052 0.064 0.003 0.015 -0.009
C12 0.058 0.059 0.077 0.007 0.027 0.009
C13 0.059 0.067 0.06 0.013 0.008 0.006
C15 0.071 0.076 0.049 0.013 0.034 0.021
C16 0.077 0.043 0.057 -0.009 0.023 0.012
C17 0.052 0.044 0.044 0.015 0.018 0.009
C18 0.052 0.05 0.046 0.006 0.014 0.011
C19 0.046 0.059 0.043 0.002 0.02 0.011
C23 0.035 0.045 0.051 0.009 0.008 -0.008
O6 0.067 0.054 0.04 0.009 0.0232 0.0148
O7 0.0353 0.0405 0.05 -0.0035 0.0161 -0.0098
O8 0.057 0.051 0.042 -0.0026 0.0194 0.0072
C1 0.062 0.049 0.038 0.022 0.024 0.015
C2 0.075 0.039 0.038 0.002 0.012 0.001
C3 0.061 0.056 0.045 0.009 0.02 0.026
C4 0.065 0.053 0.04 0.02 0.014 0.005
C5 0.077 0.058 0.044 0.015 0.012 0.012
C6 0.074 0.034 0.052 0.017 0.013 0.022
C7 0.064 0.032 0.039 0.014 0.023 0.023
C8 0.057 0.047 0.054 0.01 0.019 -0.016
C9 0.072 0.054 0.057 0.021 0.01 0.011
O1 0.062 0.045 0.043 0.0069 0.0135 -0.01
O2 0.065 0.043 0.041 0.0069 0.0029 0.0086
O5 0.069 0.048 0.046 0.0105 -0.0006 0.0045
C25 0.062 0.049 0.038 0.022 0.024 0.015
C26 0.075 0.039 0.038 0.002 0.012 0.001
C27 0.061 0.056 0.045 0.009 0.02 0.026
C28 0.065 0.053 0.04 0.02 0.014 0.005
C29 0.077 0.058 0.044 0.015 0.012 0.012
C30 0.074 0.034 0.052 0.017 0.013 0.022
C31 0.064 0.032 0.039 0.014 0.023 0.023
C32 0.057 0.047 0.054 0.01 0.019 -0.016
C33 0.072 0.054 0.057 0.021 0.01 0.011
O11 0.062 0.045 0.043 0.0069 0.0135 -0.01
O12 0.065 0.043 0.041 0.0069 0.0029 0.0086
O14 0.062 0.0357 0.05 0.0009 0.0255 -0.0127
O17 0.064 0.0341 0.044 0.0098 0.0223 0.0143
O19 0.069 0.048 0.046 0.0105 -0.0006 0.0045
O23 0.0353 0.0405 0.05 -0.0035 0.0161 -0.0098
O26 0.057 0.051 0.042 -0.0026 0.0194 0.0072
O29 0.047 0.043 0.057 0.0125 -0.0056 0.0129
O32 0.055 0.064 0.051 0.0199 0.0146 0.01
C34 0.06 0.045 0.054 0.01 0.013 -0.023
C35 0.061 0.052 0.064 0.003 0.015 -0.009
C36 0.058 0.059 0.077 0.007 0.027 0.009
C37 0.059 0.067 0.06 0.013 0.008 0.006
C39 0.071 0.076 0.049 0.013 0.034 0.021
C40 0.077 0.043 0.057 -0.009 0.023 0.012
C41 0.052 0.044 0.044 0.015 0.018 0.009
C42 0.052 0.05 0.046 0.006 0.014 0.011
C43 0.046 0.059 0.043 0.002 0.02 0.011
C47 0.035 0.045 0.051 0.009 0.008 -0.008
O20 0.067 0.054 0.04 0.009 0.0232 0.0148
C38 0.071 0.08 0.052 0.009 0.014 -0.007
C44 0.052 0.055 0.039 0.026 0.015 0.016
C45 0.05 0.057 0.036 0.006 0.012 0.016
C46 0.049 0.065 0.041 0.007 0.013 0.004
C48 0.039 0.058 0.05 0.017 0.018 -0.004
loop_
_geom_bond_atom_site_label_1
_geom_bond_atom_site_label_2
_geom_bond_site_symmetry_1
_geom_bond_site_symmetry_2
H8 C14 1_555 1_555
H13 C20 1_555 1_555
C21 C20 1_555 1_555
H14 C22 1_555 1_555
C24 C21 1_555 1_555
O9 C24 1_555 1_555
O10 C24 1_555 1_555
Cd4 O10 1_555 1_555
Cd10 O9 1_555 1_555
C21 C22 1_555 1_555
Cd11 O13 1_555 1_555
Cd11 O16 1_555 1_555
C11 C10 1_555 1_555
H6 C11 1_555 1_555
C12 C11 1_555 1_555
H7 C12 1_555 1_555
C13 C12 1_555 1_555
C15 C10 1_555 1_555
C16 C13 1_555 1_555
C17 C18 1_555 1_555
C18 H12 1_555 1_555
C19 C18 1_555 1_555
C23 C19 1_555 1_555
O6 C16 1_555 1_555
O7 C23 1_555 1_555
O8 C23 1_555 1_555
Cd4 O7 1_555 1_555
Cd10 O7 1_555 1_555
C17 O6 1_555 1_555
O8 Cd10 1_555 1_555
C1 C2 1_555 1_555
C2 H1 1_555 1_555
C3 C2 1_555 1_555
C4 C3 1_555 1_555
H2 C4 1_555 1_555
C5 C4 1_555 1_555
C6 C1 1_555 1_555
H3 C6 1_555 1_555
C7 C1 1_555 1_555
C8 C3 1_555 1_555
C9 H4 1_555 1_555
H5 C9 1_555 1_555
Cd4 O1 1_555 1_555
Cd10 O2 1_555 1_555
O1 C7 1_555 1_555
O2 C7 1_555 1_555
O5 C5 1_555 1_555
C25 C26 1_555 1_555
C26 H15 1_555 1_555
C27 C26 1_555 1_555
C28 C27 1_555 1_555
H16 C28 1_555 1_555
C29 C28 1_555 1_555
C30 C25 1_555 1_555
H17 C30 1_555 1_555
C31 C25 1_555 1_555
C32 C27 1_555 1_555
C33 H18 1_555 1_555
H19 C33 1_555 1_555
Cd11 O12 1_555 1_555
O11 Cd4 1_555 1_555
O12 C31 1_555 1_555
O14 Cd10 1_555 1_555
O17 Cd10 1_555 1_555
O19 C29 1_555 1_555
O23 Cd4 1_555 1_555
O26 Cd11 1_555 1_555
O29 Cd11 1_555 1_555
O32 Cd4 1_555 1_555
C5 C6 1_555 1_555
C9 O5 1_555 1_555
C29 C30 1_555 1_555
C31 O11 1_555 1_555
C33 O19 1_555 1_555
Cd11 O23 1_555 1_555
C35 C34 1_555 1_555
H20 C35 1_555 1_555
C36 C35 1_555 1_555
H21 C36 1_555 1_555
C37 C36 1_555 1_555
C39 C34 1_555 1_555
C40 C37 1_555 1_555
C41 C42 1_555 1_555
C42 H26 1_555 1_555
C43 C42 1_555 1_555
C47 C43 1_555 1_555
O20 C40 1_555 1_555
O23 C47 1_555 1_555
O26 C47 1_555 1_555
C41 O20 1_555 1_555
H22 C38 1_555 1_555
H27 C44 1_555 1_555
C45 C44 1_555 1_555
H28 C46 1_555 1_555
C48 C45 1_555 1_555
O29 C48 1_555 1_555
O32 C48 1_555 1_555
C45 C46 1_555 1_555

#END
