
###############################################################################
#
# This file contains modified crystal structure data generated from the
# MOF subset of the Cambridge Structural Database (CSD) v543 
# hosted by the Cambridge Crystallographic Data Centre (CCDC).
#
# This work is licensed under the Creative Commons
# Attribution-NonCommercial-ShareAlike 4.0 International License.
# To view a copy of this license, visit
# http://creativecommons.org/licenses/by-nc-sa/4.0/
# or send a letter to
# Creative Commons, PO Box 1866, Mountain View, CA 94042, USA.
#
# CIF created using the CSD Python API on 29 September 2022
# The structure has been converted into the P1 space group
# The structure has a 3D framework
# The original CSD entry FAMGAD is in the monoclinic crystal system
# The framework has been calculated to contain at least 10.0% void space
# The void calculation uses a probe of radius 1.32A, grid spacing 0.4
#
###############################################################################

data_FAMGAD
_chemical_formula_moiety         '(C236 H160 Cd8 F48 N16 O48)n'
_symmetry_cell_setting           triclinic
_symmetry_space_group_name_H-M   'P 1'
_symmetry_Int_Tables_number      1
_space_group_name_Hall           'P 1'
loop_
_symmetry_equiv_pos_site_id
_symmetry_equiv_pos_as_xyz
1 x,y,z
_cell_length_a                   16.472(3)
_cell_length_b                   14.387(3)
_cell_length_c                   29.279(6)
_cell_angle_alpha                90
_cell_angle_beta                 93.820(4)
_cell_angle_gamma                90
_cell_volume                     6923.2
loop_
_atom_site_label
_atom_site_type_symbol
_atom_site_fract_x
_atom_site_fract_y
_atom_site_fract_z
F3 F 0.0398(3) 0.3461(4) 0.46064(15)
C15 C 0.0984(4) 0.2044(5) 0.3006(2)
C16 C 0.1589(4) 0.1750(4) 0.3363(2)
C17 C 0.2164(5) 0.1088(5) 0.3283(2)
H9 H 0.2208 0.0862 0.2988
C19 C 0.2067(5) 0.1760(5) 0.4152(3)
H10 H 0.2031 0.1998 0.4446
C20 C 0.1573(5) 0.2110(5) 0.3798(2)
H11 H 0.1223 0.2598 0.3852
C21 C 0.2617(5) 0.1061(5) 0.4080(3)
C22 C 0.3211(6) 0.0663(5) 0.4454(3)
C30 C 0.3975(9) 0.1174(10) 0.4481(6)
C31 C 0.2824(9) 0.0710(12) 0.4903(6)
C59 C 0.2683(5) 0.0753(5) 0.3641(3)
H40 H 0.3078 0.0316 0.3582
F7 F 0.3788(5) 0.2143(4) 0.4482(3)
F8 F 0.4362(4) 0.1104(4) 0.4104(3)
F9 F 0.4486(6) 0.1086(5) 0.4813(3)
F10 F 0.2821(6) 0.1591(4) 0.5096(2)
F11 F 0.3314(7) 0.0241(5) 0.5239(2)
F12 F 0.2110(6) 0.0427(4) 0.49242(17)
O7 O 0.0560(3) 0.2749(3) 0.30670(15)
O8 O 0.0862(3) 0.1549(3) 0.26578(14)
C1 C 0.9508(4) 0.2834(5) 0.6548(2)
C2 C 0.9391(4) 0.2883(4) 0.60377(19)
C3 C 0.9074(4) 0.3652(5) 0.5820(2)
H1 H 0.8939 0.4167 0.5992
C4 C 0.9595(4) 0.2144(5) 0.5777(2)
H2 H 0.9813 0.1614 0.5920
C5 C 0.9485(4) 0.2166(5) 0.5311(2)
H3 H 0.9640 0.1658 0.5140
C6 C 0.8952(4) 0.3677(5) 0.5354(2)
H4 H 0.8733 0.4208 0.5213
C7 C 0.9147(4) 0.2934(5) 0.50920(19)
C8 C 0.9013(4) 0.3024(5) 0.45656(19)
C9 C 0.8141(4) 0.3386(4) 0.44273(18)
C10 C 0.7965(4) 0.3946(5) 0.40581(19)
H5 H 0.8385 0.4142 0.3884
C11 C 0.7184(4) 0.4227(4) 0.39374(19)
H6 H 0.7078 0.4596 0.3680
C12 C 0.6558(4) 0.3964(4) 0.41974(18)
C13 C 0.6732(4) 0.3413(4) 0.45666(19)
H7 H 0.6314 0.3231 0.4746
C14 C 0.7513(4) 0.3117(5) 0.4682(2)
H8 H 0.7616 0.2732 0.4934
C18 C 0.5708(4) 0.4302(4) 0.4083(2)
C23 C 0.3350(6) 0.9616(5) 0.4373(3)
C24 C 0.2705(5) 0.9044(5) 0.4261(3)
H12 H 0.2182 0.9289 0.4231
C25 C 0.2822(5) 0.8111(5) 0.4192(2)
H13 H 0.2377 0.7741 0.4100
C26 C 0.4110(6) 0.9225(6) 0.4456(3)
H14 H 0.4552 0.9594 0.4553
C27 C 0.4209(5) 0.8266(5) 0.4394(3)
H15 H 0.4722 0.8003 0.4449
C28 C 0.3569(5) 0.7713(4) 0.4255(2)
C29 C 0.3709(5) 0.6694(4) 0.4181(2)
C32 C 0.9670(5) 0.3682(7) 0.4410(2)
C33 C 0.9084(6) 0.2089(7) 0.4321(3)
C34 C 0.3953(4) 0.3994(4) 0.5066(2)
H16 H 0.4514 0.3995 0.5047
C35 C 0.3636(4) 0.3632(4) 0.5457(2)
H17 H 0.3979 0.3397 0.5694
C36 C 0.2690(4) 0.4322(4) 0.4762(2)
H18 H 0.2358 0.4570 0.4523
C37 C 0.2321(4) 0.3978(4) 0.51221(19)
H19 H 0.1758 0.3976 0.5128
C38 C 0.2819(4) 0.3625(4) 0.5487(2)
C39 C 0.0659(4) 0.5774(4) 0.7116(2)
H20 H 0.0100 0.5858 0.7066
C40 C 0.1879(4) 0.6299(5) 0.7417(2)
H21 H 0.2184 0.6742 0.7584
C41 C 0.2270(4) 0.5542(4) 0.7263(2)
H22 H 0.2831 0.5483 0.7317
C42 C 0.0988(4) 0.4987(4) 0.69555(19)
H23 H 0.0665 0.4541 0.6802
C43 C 0.1831(4) 0.4863(4) 0.70276(19)
C44 C 0.2796(4) 0.1542(4) 0.76980(19)
C45 C 0.3594(4) 0.1659(5) 0.7816(2)
H24 H 0.3922 0.2007 0.7634
C46 C 0.2344(4) 0.1015(5) 0.7976(2)
H25 H 0.1792 0.0920 0.7905
C47 C 0.2719(4) 0.0635(4) 0.8359(2)
H26 H 0.2407 0.0272 0.8544
C48 C 0.3908(4) 0.1251(5) 0.8213(2)
H27 H 0.4458 0.1341 0.8294
C49 C 0.1784(4) 0.0261(4) 0.6693(2)
C50 C 0.0945(5) 0.0239(5) 0.6755(3)
H28 H 0.0602 0.0703 0.6633
C54 C 0.1772(4) 0.3364(4) 0.66964(19)
H32 H 0.1444 0.3557 0.6425
H33 H 0.1410 0.3142 0.6921
C55 C 0.2924(4) 0.2920(4) 0.62218(17)
H34 H 0.3289 0.3394 0.6351
H35 H 0.3246 0.2403 0.6122
C56 C 0.2894(4) 0.2312(4) 0.69904(19)
H36 H 0.3298 0.1868 0.6902
H37 H 0.3174 0.2851 0.7123
C57 C 0.1814(4) 0.1820(4) 0.6395(2)
H38 H 0.1309 0.1833 0.6548
H39 H 0.1683 0.1915 0.6071
C58 C 0.2350(4) 0.2597(4) 0.65756(18)
Cd1 Cd 0.41048(3) 0.48914(3) 0.410806(13)
Cd2 Cd 0.03883(3) 0.77231(3) 0.753169(14)
F1 F 0.9534(3) 0.4551(4) 0.45287(15)
F2 F 0.9749(3) 0.3671(4) 0.39643(13)
F4 F 0.8874(3) 0.2165(4) 0.38794(13)
F5 F 0.8597(3) 0.1451(3) 0.44886(16)
F6 F 0.9831(3) 0.1739(4) 0.43534(15)
N1 N 0.3487(3) 0.4338(3) 0.47191(14)
N2 N 0.1090(3) 0.6443(3) 0.73422(16)
N3 N 0.3492(3) 0.0747(3) 0.84859(15)
O1 O 0.5188(3) 0.4109(3) 0.43569(16)
O2 O 0.5543(3) 0.4770(4) 0.37394(16)
O3 O 0.9232(3) 0.3480(4) 0.67757(14)
O4 O 0.9864(3) 0.2174(3) 0.67394(14)
O5 O 0.4394(3) 0.6371(3) 0.42620(17)
O6 O 0.3123(3) 0.6206(3) 0.40439(15)
O9 O 0.2428(2) 0.3290(3) 0.58432(12)
O10 O 0.2240(2) 0.4132(3) 0.68790(13)
O11 O 0.2186(3) 0.0931(3) 0.64626(16)
O12 O 0.2394(2) 0.1904(3) 0.73152(13)
Cd3 Cd 0.41048(3) 0.01086(3) 0.910806(13)
Cd5 Cd 0.96117(3) 0.27231(3) 0.746831(14)
N5 N 0.3492(3) 0.4253(3) 0.34859(15)
N6 N 0.1065(4) 0.8836(4) 0.71512(17)
O13 O 0.0768(3) 0.8480(4) 0.82243(14)
O14 O 0.0136(3) 0.7174(3) 0.82606(14)
C51 C 0.2218(5) 0.9524(5) 0.6846(3)
H29 H 0.2771 0.9484 0.6801
C52 C 0.0658(5) 0.9557(5) 0.6987(3)
H30 H 0.0109 0.9583 0.7041
C53 C 0.1830(5) 0.8824(5) 0.7072(3)
H31 H 0.2138 0.8313 0.7173
Cd6 Cd 0.96117(3) 0.22769(3) 0.246831(14)
Cd6_2 Cd 0.03883(3) 0.72769(3) 0.253169(14)
C39_2 C 0.9341(4) 0.0774(4) 0.7884(2)
H20_2 H 0.9900 0.0858 0.7934
C40_2 C 0.8121(4) 0.1299(5) 0.7583(2)
H21_2 H 0.7816 0.1742 0.7416
C41_2 C 0.7730(4) 0.0542(4) 0.7737(2)
H22_2 H 0.7169 0.0483 0.7683
F10_2 F 0.7179(6) 0.6591(4) 0.9904(2)
F11_2 F 0.6686(7) 0.5241(5) 0.9761(2)
N2_2 N 0.8910(3) 0.1443(3) 0.76578(16)
N6_2 N 0.8935(4) 0.3836(4) 0.78488(17)
C8_2 C 0.0987(4) 0.8024(5) 0.04344(19)
C9_2 C 0.1859(4) 0.8386(4) 0.05727(18)
C10_2 C 0.2035(4) 0.8946(5) 0.09419(19)
H5_2 H 0.1615 0.9142 0.1116
C11_2 C 0.2816(4) 0.9227(4) 0.10626(19)
H6_2 H 0.2922 0.9596 0.1320
C12_2 C 0.3442(4) 0.8964(4) 0.08026(18)
C13_2 C 0.3268(4) 0.8413(4) 0.04334(19)
H7_2 H 0.3686 0.8231 0.0254
C14_2 C 0.2487(4) 0.8117(5) 0.0318(2)
H8_2 H 0.2384 0.7732 0.0066
C18_2 C 0.4292(4) 0.9302(4) 0.0917(2)
C32_2 C 0.0330(5) 0.8682(7) 0.0590(2)
C33_2 C 0.0916(6) 0.7089(7) 0.0679(3)
C36_2 C 0.7310(4) 0.9322(4) 0.0238(2)
H18_2 H 0.7642 0.9570 0.0477
Cd1_2 Cd 0.58952(3) 0.98914(3) 0.089194(13)
F1_2 F 0.0466(3) 0.9551(4) 0.04713(15)
F2_2 F 0.0251(3) 0.8671(4) 0.10357(13)
F4_2 F 0.1126(3) 0.7165(4) 0.11206(13)
F5_2 F 0.1403(3) 0.6451(3) 0.05114(16)
F6_2 F 0.0169(3) 0.6739(4) 0.06466(15)
N1_2 N 0.6513(3) 0.9338(3) 0.02809(14)
O1_2 O 0.4812(3) 0.9109(3) 0.06431(16)
O2_2 O 0.4457(3) 0.9770(4) 0.12606(16)
N5_2 N 0.6508(3) 0.9253(3) 0.15141(15)
C1_2 C 0.0492(4) 0.7834(5) 0.8452(2)
C2_2 C 0.0609(4) 0.7883(4) 0.89623(19)
C3_2 C 0.0926(4) 0.8652(5) 0.9180(2)
H1_2 H 0.1061 0.9167 0.9008
C4_2 C 0.0405(4) 0.7144(5) 0.9223(2)
H2_2 H 0.0187 0.6614 0.9080
C5_2 C 0.0515(4) 0.7166(5) 0.9689(2)
H3_2 H 0.0360 0.6658 0.9860
C6_2 C 0.1048(4) 0.8677(5) 0.9646(2)
H4_2 H 0.1267 0.9208 0.9787
C7_2 C 0.0853(4) 0.7934(5) 0.99080(19)
C34_2 C 0.6047(4) 0.8994(4) 0.9934(2)
H16_2 H 0.5486 0.8995 0.9953
C35_2 C 0.6364(4) 0.8632(4) 0.9543(2)
H17_2 H 0.6021 0.8397 0.9306
C37_2 C 0.7679(4) 0.8978(4) 0.98779(19)
H19_2 H 0.8242 0.8976 0.9872
C38_2 C 0.7181(4) 0.8625(4) 0.9513(2)
C42_2 C 0.9012(4) 0.9987(4) 0.80445(19)
H23_2 H 0.9335 0.9541 0.8198
C43_2 C 0.8169(4) 0.9863(4) 0.79724(19)
C44_2 C 0.7204(4) 0.6542(4) 0.73020(19)
C45_2 C 0.6406(4) 0.6659(5) 0.7184(2)
H24_2 H 0.6078 0.7007 0.7366
C46_2 C 0.7656(4) 0.6015(5) 0.7024(2)
H25_2 H 0.8208 0.5920 0.7095
C47_2 C 0.7281(4) 0.5635(4) 0.6641(2)
H26_2 H 0.7593 0.5272 0.6456
C48_2 C 0.6092(4) 0.6251(5) 0.6787(2)
H27_2 H 0.5542 0.6341 0.6706
C49_2 C 0.8216(4) 0.5261(4) 0.8307(2)
C50_2 C 0.9055(5) 0.5239(5) 0.8245(3)
H28_2 H 0.9398 0.5703 0.8367
C51_2 C 0.7782(5) 0.4524(5) 0.8154(3)
H29_2 H 0.7229 0.4484 0.8199
C52_2 C 0.9342(5) 0.4557(5) 0.8013(3)
H30_2 H 0.9891 0.4583 0.7959
C53_2 C 0.8170(5) 0.3824(5) 0.7928(3)
H31_2 H 0.7862 0.3313 0.7827
C54_2 C 0.8228(4) 0.8364(4) 0.83036(19)
H32_2 H 0.8556 0.8557 0.8575
H33_2 H 0.8590 0.8142 0.8079
C55_2 C 0.7076(4) 0.7920(4) 0.87782(17)
H34_2 H 0.6711 0.8394 0.8649
H35_2 H 0.6754 0.7403 0.8878
C56_2 C 0.7106(4) 0.7312(4) 0.80096(19)
H36_2 H 0.6702 0.6868 0.8098
H37_2 H 0.6826 0.7851 0.7877
C57_2 C 0.8186(4) 0.6820(4) 0.8605(2)
H38_2 H 0.8691 0.6833 0.8452
H39_2 H 0.8317 0.6915 0.8929
C58_2 C 0.7650(4) 0.7597(4) 0.84244(18)
N3_2 N 0.6508(3) 0.5747(3) 0.65141(15)
O9_2 O 0.7572(2) 0.8290(3) 0.91568(12)
O10_2 O 0.7760(2) 0.9132(3) 0.81210(13)
O11_2 O 0.7814(3) 0.5931(3) 0.85374(16)
O12_2 O 0.7606(2) 0.6904(3) 0.76848(13)
Cd3_2 Cd 0.58952(3) 0.51086(3) 0.589194(13)
C51_3 C 0.7782(5) 0.0476(5) 0.3154(3)
H29_3 H 0.7229 0.0516 0.3199
C52_3 C 0.9342(5) 0.0443(5) 0.3013(3)
H30_3 H 0.9891 0.0417 0.2959
C53_3 C 0.8170(5) 0.1176(5) 0.2928(3)
H31_3 H 0.7862 0.1687 0.2827
N4 N 0.8935(4) 0.1164(4) 0.28488(17)
C1_3 C 0.0492(4) 0.7166(5) 0.3452(2)
C2_3 C 0.0609(4) 0.7117(4) 0.39623(19)
C3_3 C 0.0926(4) 0.6348(5) 0.4180(2)
H1_3 H 0.1061 0.5833 0.4008
C4_3 C 0.0405(4) 0.7856(5) 0.4223(2)
H2_3 H 0.0187 0.8386 0.4080
C5_3 C 0.0515(4) 0.7834(5) 0.4689(2)
H3_3 H 0.0360 0.8342 0.4860
C6_3 C 0.1048(4) 0.6323(5) 0.4646(2)
H4_3 H 0.1267 0.5792 0.4787
C7_3 C 0.0853(4) 0.7066(5) 0.49080(19)
C8_3 C 0.0987(4) 0.6976(5) 0.54344(19)
C9_3 C 0.1859(4) 0.6614(4) 0.55727(18)
C10_3 C 0.2035(4) 0.6054(5) 0.59419(19)
H5_3 H 0.1615 0.5858 0.6116
C11_3 C 0.2816(4) 0.5773(4) 0.60626(19)
H6_3 H 0.2922 0.5404 0.6320
C12_3 C 0.3442(4) 0.6036(4) 0.58026(18)
C13_3 C 0.3268(4) 0.6587(4) 0.54334(19)
H7_3 H 0.3686 0.6769 0.5254
C14_3 C 0.2487(4) 0.6883(5) 0.5318(2)
H8_3 H 0.2384 0.7268 0.5066
C18_3 C 0.4292(4) 0.5698(4) 0.5917(2)
C23_2 C 0.6650(6) 0.0384(5) 0.5627(3)
C24_2 C 0.7295(5) 0.0956(5) 0.5739(3)
H12_2 H 0.7818 0.0711 0.5769
C25_2 C 0.7178(5) 0.1889(5) 0.5808(2)
H13_2 H 0.7623 0.2259 0.5900
C26_2 C 0.5890(6) 0.0775(6) 0.5544(3)
H14_2 H 0.5448 0.0406 0.5447
C27_2 C 0.5791(5) 0.1734(5) 0.5606(3)
H15_2 H 0.5278 0.1997 0.5551
C28_2 C 0.6431(5) 0.2287(4) 0.5745(2)
C29_2 C 0.6291(5) 0.3306(4) 0.5819(2)
C32_3 C 0.0330(5) 0.6318(7) 0.5590(2)
C33_3 C 0.0916(6) 0.7911(7) 0.5679(3)
C34_3 C 0.6047(4) 0.6006(4) 0.4934(2)
H16_3 H 0.5486 0.6005 0.4953
C35_3 C 0.6364(4) 0.6368(4) 0.4543(2)
H17_3 H 0.6021 0.6603 0.4306
C36_3 C 0.7310(4) 0.5678(4) 0.5238(2)
H18_3 H 0.7642 0.5430 0.5477
C37_3 C 0.7679(4) 0.6022(4) 0.48779(19)
H19_3 H 0.8242 0.6024 0.4872
C38_3 C 0.7181(4) 0.6375(4) 0.4513(2)
C39_3 C 0.9341(4) 0.4226(4) 0.2884(2)
H20_3 H 0.9900 0.4142 0.2934
C40_3 C 0.8121(4) 0.3701(5) 0.2583(2)
H21_3 H 0.7816 0.3258 0.2416
C41_3 C 0.7730(4) 0.4458(4) 0.2737(2)
H22_3 H 0.7169 0.4517 0.2683
C42_3 C 0.9012(4) 0.5013(4) 0.30445(19)
H23_3 H 0.9335 0.5459 0.3198
C43_3 C 0.8169(4) 0.5137(4) 0.29724(19)
C44_3 C 0.7204(4) 0.8458(4) 0.23020(19)
C45_3 C 0.6406(4) 0.8341(5) 0.2184(2)
H24_3 H 0.6078 0.7993 0.2366
C46_3 C 0.7656(4) 0.8985(5) 0.2024(2)
H25_3 H 0.8208 0.9080 0.2095
C47_3 C 0.7281(4) 0.9365(4) 0.1641(2)
H26_3 H 0.7593 0.9728 0.1456
C48_3 C 0.6092(4) 0.8749(5) 0.1787(2)
H27_3 H 0.5542 0.8659 0.1706
C49_3 C 0.8216(4) 0.9739(4) 0.3307(2)
C50_3 C 0.9055(5) 0.9761(5) 0.3245(3)
H28_3 H 0.9398 0.9297 0.3367
C54_3 C 0.8228(4) 0.6636(4) 0.33036(19)
H32_3 H 0.8556 0.6443 0.3575
H33_3 H 0.8590 0.6858 0.3079
C55_3 C 0.7076(4) 0.7080(4) 0.37782(17)
H34_3 H 0.6711 0.6606 0.3649
H35_3 H 0.6754 0.7597 0.3878
C56_3 C 0.7106(4) 0.7688(4) 0.30096(19)
H36_3 H 0.6702 0.8132 0.3098
H37_3 H 0.6826 0.7149 0.2877
C57_3 C 0.8186(4) 0.8180(4) 0.3605(2)
H38_3 H 0.8691 0.8167 0.3452
H39_3 H 0.8317 0.8085 0.3929
C58_3 C 0.7650(4) 0.7403(4) 0.34244(18)
F1_3 F 0.0466(3) 0.5449(4) 0.54713(15)
F2_3 F 0.0251(3) 0.6329(4) 0.60357(13)
F4_3 F 0.1126(3) 0.7835(4) 0.61206(13)
F5_3 F 0.1403(3) 0.8549(3) 0.55114(16)
F6_3 F 0.0169(3) 0.8261(4) 0.56466(15)
N1_3 N 0.6513(3) 0.5662(3) 0.52809(14)
N2_3 N 0.8910(3) 0.3557(3) 0.26578(16)
O1_3 O 0.4812(3) 0.5891(3) 0.56431(16)
O2_3 O 0.4457(3) 0.5230(4) 0.62606(16)
O3_2 O 0.0768(3) 0.6520(4) 0.32243(14)
O4_2 O 0.0136(3) 0.7826(3) 0.32606(14)
O5_2 O 0.5606(3) 0.3629(3) 0.57380(17)
O6_2 O 0.6877(3) 0.3794(3) 0.59561(15)
O9_3 O 0.7572(2) 0.6710(3) 0.41568(12)
O10_3 O 0.7760(2) 0.5868(3) 0.31210(13)
O11_3 O 0.7814(3) 0.9069(3) 0.35374(16)
O12_3 O 0.7606(2) 0.8096(3) 0.26848(13)
O13_2 O 0.9232(3) 0.1520(4) 0.17757(14)
O14_2 O 0.9864(3) 0.2826(3) 0.17394(14)
C1_4 C 0.9508(4) 0.2166(5) 0.1548(2)
C2_4 C 0.9391(4) 0.2117(4) 0.10377(19)
C3_4 C 0.9074(4) 0.1348(5) 0.0820(2)
H1_4 H 0.8939 0.0833 0.0992
C4_4 C 0.9595(4) 0.2856(5) 0.0777(2)
H2_4 H 0.9813 0.3386 0.0920
C5_4 C 0.9485(4) 0.2834(5) 0.0311(2)
H3_4 H 0.9640 0.3342 0.0140
C6_4 C 0.8952(4) 0.1323(5) 0.0354(2)
H4_4 H 0.8733 0.0792 0.0213
C7_4 C 0.9147(4) 0.2066(5) 0.00920(19)
C34_4 C 0.3953(4) 0.1006(4) 0.0066(2)
H16_4 H 0.4514 0.1005 0.0047
C35_4 C 0.3636(4) 0.1368(4) 0.0457(2)
H17_4 H 0.3979 0.1603 0.0694
C37_4 C 0.2321(4) 0.1022(4) 0.01221(19)
H19_4 H 0.1758 0.1024 0.0128
C38_4 C 0.2819(4) 0.1375(4) 0.0487(2)
C42_4 C 0.0988(4) 0.0013(4) 0.19555(19)
H23_4 H 0.0665 0.0459 0.1802
C43_4 C 0.1831(4) 0.0137(4) 0.20276(19)
C44_4 C 0.2796(4) 0.3458(4) 0.26980(19)
C45_4 C 0.3594(4) 0.3341(5) 0.2816(2)
H24_4 H 0.3922 0.2993 0.2634
C46_4 C 0.2344(4) 0.3985(5) 0.2976(2)
H25_4 H 0.1792 0.4080 0.2905
C47_4 C 0.2719(4) 0.4365(4) 0.3359(2)
H26_4 H 0.2407 0.4728 0.3544
C48_4 C 0.3908(4) 0.3749(5) 0.3213(2)
H27_4 H 0.4458 0.3659 0.3294
C49_4 C 0.1784(4) 0.4739(4) 0.1693(2)
C50_4 C 0.0945(5) 0.4761(5) 0.1755(3)
H28_4 H 0.0602 0.4297 0.1633
C51_4 C 0.2218(5) 0.5476(5) 0.1846(3)
H29_4 H 0.2771 0.5516 0.1801
C52_4 C 0.0658(5) 0.5443(5) 0.1987(3)
H30_4 H 0.0109 0.5417 0.2041
C53_4 C 0.1830(5) 0.6176(5) 0.2072(3)
H31_4 H 0.2138 0.6687 0.2173
C54_4 C 0.1772(4) 0.1636(4) 0.16964(19)
H32_4 H 0.1444 0.1443 0.1425
H33_4 H 0.1410 0.1858 0.1921
C55_4 C 0.2924(4) 0.2080(4) 0.12218(17)
H34_4 H 0.3289 0.1606 0.1351
H35_4 H 0.3246 0.2597 0.1122
C56_4 C 0.2894(4) 0.2688(4) 0.19904(19)
H36_4 H 0.3298 0.3132 0.1902
H37_4 H 0.3174 0.2149 0.2123
C57_4 C 0.1814(4) 0.3180(4) 0.1395(2)
H38_4 H 0.1309 0.3167 0.1548
H39_4 H 0.1683 0.3085 0.1071
C58_4 C 0.2350(4) 0.2403(4) 0.15756(18)
N4_2 N 0.1065(4) 0.6164(4) 0.21512(17)
O9_4 O 0.2428(2) 0.1710(3) 0.08432(12)
O10_4 O 0.2240(2) 0.0868(3) 0.18790(13)
O11_4 O 0.2186(3) 0.4069(3) 0.14626(16)
O12_4 O 0.2394(2) 0.3096(3) 0.23152(13)
C8_4 C 0.9013(4) 0.1976(5) 0.95656(19)
C9_4 C 0.8141(4) 0.1614(4) 0.94273(18)
C10_4 C 0.7965(4) 0.1054(5) 0.90581(19)
H5_4 H 0.8385 0.0858 0.8884
C11_4 C 0.7184(4) 0.0773(4) 0.89374(19)
H6_4 H 0.7078 0.0404 0.8680
C12_4 C 0.6558(4) 0.1036(4) 0.91974(18)
C13_4 C 0.6732(4) 0.1587(4) 0.95666(19)
H7_4 H 0.6314 0.1769 0.9746
C14_4 C 0.7513(4) 0.1883(5) 0.9682(2)
H8_4 H 0.7616 0.2268 0.9934
C18_4 C 0.5708(4) 0.0698(4) 0.9083(2)
C32_4 C 0.9670(5) 0.1318(7) 0.9410(2)
C33_4 C 0.9084(6) 0.2911(7) 0.9321(3)
C36_4 C 0.2690(4) 0.0678(4) 0.9762(2)
H18_4 H 0.2358 0.0430 0.9523
F1_4 F 0.9534(3) 0.0449(4) 0.95287(15)
F2_4 F 0.9749(3) 0.1329(4) 0.89643(13)
F4_4 F 0.8874(3) 0.2835(4) 0.88794(13)
F5_4 F 0.8597(3) 0.3549(3) 0.94886(16)
F6_4 F 0.9831(3) 0.3261(4) 0.93534(15)
N1_4 N 0.3487(3) 0.0662(3) 0.97191(14)
O1_4 O 0.5188(3) 0.0891(3) 0.93569(16)
O2_4 O 0.5543(3) 0.0230(4) 0.87394(16)
C39_4 C 0.0659(4) 0.9226(4) 0.2116(2)
H20_4 H 0.0100 0.9142 0.2066
C40_4 C 0.1879(4) 0.8701(5) 0.2417(2)
H21_4 H 0.2184 0.8258 0.2584
C41_4 C 0.2270(4) 0.9458(4) 0.2263(2)
H22_4 H 0.2831 0.9517 0.2317
F10_3 F 0.2821(6) 0.3409(4) 0.0096(2)
F11_3 F 0.3314(7) 0.4759(5) 0.0239(2)
N2_4 N 0.1090(3) 0.8557(3) 0.23422(16)
O15 O 0.9440(3) 0.7251(3) 0.69330(15)
O16 O 0.9138(3) 0.8451(3) 0.73422(14)
C15_2 C 0.9016(4) 0.7956(5) 0.6994(2)
C16_2 C 0.8411(4) 0.8250(4) 0.6637(2)
C17_2 C 0.7836(5) 0.8912(5) 0.6717(2)
H9_2 H 0.7792 0.9138 0.7012
C19_2 C 0.7933(5) 0.8240(5) 0.5848(3)
H10_2 H 0.7969 0.8002 0.5554
C20_2 C 0.8427(5) 0.7890(5) 0.6202(2)
H11_2 H 0.8777 0.7402 0.6148
C21_2 C 0.7383(5) 0.8939(5) 0.5920(3)
C22_2 C 0.6789(6) 0.9337(5) 0.5546(3)
C30_2 C 0.6025(9) 0.8826(10) 0.5519(6)
C31_2 C 0.7176(9) 0.9290(12) 0.5097(6)
C59_2 C 0.7317(5) 0.9247(5) 0.6359(3)
H40_2 H 0.6922 0.9684 0.6418
F7_2 F 0.6212(5) 0.7857(4) 0.5518(3)
F8_2 F 0.5638(4) 0.8896(4) 0.5896(3)
F9_2 F 0.5514(6) 0.8914(5) 0.5187(3)
F10_4 F 0.7179(6) 0.8409(4) 0.4904(2)
F11_4 F 0.6686(7) 0.9759(5) 0.4761(2)
F12_2 F 0.7890(6) 0.9573(4) 0.50758(17)
O15_2 O 0.0560(3) 0.2251(3) 0.80670(15)
O16_2 O 0.0862(3) 0.3451(3) 0.76578(14)
C15_3 C 0.0984(4) 0.2956(5) 0.8006(2)
C16_3 C 0.1589(4) 0.3250(4) 0.8363(2)
C17_3 C 0.2164(5) 0.3912(5) 0.8283(2)
H9_3 H 0.2208 0.4138 0.7988
C19_3 C 0.2067(5) 0.3240(5) 0.9152(3)
H10_3 H 0.2031 0.3002 0.9446
C20_3 C 0.1573(5) 0.2890(5) 0.8798(2)
H11_3 H 0.1223 0.2402 0.8852
C21_3 C 0.2617(5) 0.3939(5) 0.9080(3)
C22_3 C 0.3211(6) 0.4337(5) 0.9454(3)
C23_3 C 0.3350(6) 0.5384(5) 0.9373(3)
C24_3 C 0.2705(5) 0.5956(5) 0.9261(3)
H12_3 H 0.2182 0.5711 0.9231
C25_3 C 0.2822(5) 0.6889(5) 0.9192(2)
H13_3 H 0.2377 0.7259 0.9100
C26_3 C 0.4110(6) 0.5775(6) 0.9456(3)
H14_3 H 0.4552 0.5406 0.9553
C27_3 C 0.4209(5) 0.6734(5) 0.9394(3)
H15_3 H 0.4722 0.6997 0.9449
C28_3 C 0.3569(5) 0.7287(4) 0.9255(2)
C29_3 C 0.3709(5) 0.8306(4) 0.9181(2)
C30_3 C 0.3975(9) 0.3826(10) 0.9481(6)
C31_3 C 0.2824(9) 0.4290(12) 0.9903(6)
C59_3 C 0.2683(5) 0.4247(5) 0.8641(3)
H40_3 H 0.3078 0.4684 0.8582
F7_3 F 0.3788(5) 0.2857(4) 0.9482(3)
F8_3 F 0.4362(4) 0.3896(4) 0.9104(3)
F9_3 F 0.4486(6) 0.3914(5) 0.9813(3)
F12_3 F 0.2110(6) 0.4573(4) 0.99242(17)
O5_3 O 0.4394(3) 0.8629(3) 0.92620(17)
O6_3 O 0.3123(3) 0.8794(3) 0.90439(15)
C15_4 C 0.9016(4) 0.7044(5) 0.1994(2)
C16_4 C 0.8411(4) 0.6750(4) 0.1637(2)
C17_4 C 0.7836(5) 0.6088(5) 0.1717(2)
H9_4 H 0.7792 0.5862 0.2012
C19_4 C 0.7933(5) 0.6760(5) 0.0848(3)
H10_4 H 0.7969 0.6998 0.0554
C20_4 C 0.8427(5) 0.7110(5) 0.1202(2)
H11_4 H 0.8777 0.7598 0.1148
C21_4 C 0.7383(5) 0.6061(5) 0.0920(3)
C22_4 C 0.6789(6) 0.5663(5) 0.0546(3)
C23_4 C 0.6650(6) 0.4616(5) 0.0627(3)
C24_4 C 0.7295(5) 0.4044(5) 0.0739(3)
H12_4 H 0.7818 0.4289 0.0769
C25_4 C 0.7178(5) 0.3111(5) 0.0808(2)
H13_4 H 0.7623 0.2741 0.0900
C26_4 C 0.5890(6) 0.4225(6) 0.0544(3)
H14_4 H 0.5448 0.4594 0.0447
C27_4 C 0.5791(5) 0.3266(5) 0.0606(3)
H15_4 H 0.5278 0.3003 0.0551
C28_4 C 0.6431(5) 0.2713(4) 0.0745(2)
C29_4 C 0.6291(5) 0.1694(4) 0.0819(2)
C30_4 C 0.6025(9) 0.6174(10) 0.0519(6)
C31_4 C 0.7176(9) 0.5710(12) 0.0097(6)
C59_4 C 0.7317(5) 0.5753(5) 0.1359(3)
H40_4 H 0.6922 0.5316 0.1418
F7_4 F 0.6212(5) 0.7143(4) 0.0518(3)
F8_4 F 0.5638(4) 0.6104(4) 0.0896(3)
F9_4 F 0.5514(6) 0.6086(5) 0.0187(3)
F12_4 F 0.7890(6) 0.5427(4) 0.00758(17)
O5_4 O 0.5606(3) 0.1371(3) 0.07380(17)
O6_4 O 0.6877(3) 0.1206(3) 0.09561(15)
O7_2 O 0.9440(3) 0.7749(3) 0.19330(15)
O8_2 O 0.9138(3) 0.6549(3) 0.23422(14)
F3_2 F 0.9602(3) 0.8461(4) 0.03936(15)
F3_3 F 0.9602(3) 0.6539(4) 0.53936(15)
F3_4 F 0.0398(3) 0.1539(4) 0.96064(15)
loop_
_geom_bond_atom_site_label_1
_geom_bond_atom_site_label_2
_geom_bond_site_symmetry_1
_geom_bond_site_symmetry_2
C15 C16 1_555 1_555
C16 C17 1_555 1_555
C17 H9 1_555 1_555
C19 H10 1_555 1_555
C20 C16 1_555 1_555
H11 C20 1_555 1_555
C21 C19 1_555 1_555
C22 C21 1_555 1_555
C30 C22 1_555 1_555
C31 C22 1_555 1_555
C59 C17 1_555 1_555
H40 C59 1_555 1_555
F7 C30 1_555 1_555
F8 C30 1_555 1_555
F9 C30 1_555 1_555
F10 C31 1_555 1_555
F11 C31 1_555 1_555
F12 C31 1_555 1_555
O7 C15 1_555 1_555
O8 C15 1_555 1_555
C19 C20 1_555 1_555
C21 C59 1_555 1_555
C1 C2 1_555 1_555
C2 C3 1_555 1_555
C3 H1 1_555 1_555
C4 C2 1_555 1_555
H2 C4 1_555 1_555
C5 C4 1_555 1_555
H3 C5 1_555 1_555
C6 C3 1_555 1_555
H4 C6 1_555 1_555
C7 C5 1_555 1_555
C8 C7 1_555 1_555
C9 C8 1_555 1_555
C10 C9 1_555 1_555
H5 C10 1_555 1_555
C11 C10 1_555 1_555
H6 C11 1_555 1_555
C12 C11 1_555 1_555
C13 C12 1_555 1_555
H7 C13 1_555 1_555
C14 C9 1_555 1_555
H8 C14 1_555 1_555
C18 C12 1_555 1_555
C24 C23 1_555 1_555
H12 C24 1_555 1_555
C25 C24 1_555 1_555
H13 C25 1_555 1_555
C26 C23 1_555 1_555
H14 C26 1_555 1_555
C27 C26 1_555 1_555
H15 C27 1_555 1_555
C28 C25 1_555 1_555
C29 C28 1_555 1_555
C32 C8 1_555 1_555
C33 C8 1_555 1_555
C34 H16 1_555 1_555
C35 C34 1_555 1_555
H17 C35 1_555 1_555
C36 H18 1_555 1_555
C37 C36 1_555 1_555
H19 C37 1_555 1_555
C38 C35 1_555 1_555
C39 H20 1_555 1_555
C40 H21 1_555 1_555
C41 C40 1_555 1_555
H22 C41 1_555 1_555
C42 C39 1_555 1_555
H23 C42 1_555 1_555
C43 C41 1_555 1_555
C44 C45 1_555 1_555
C45 H24 1_555 1_555
C46 C44 1_555 1_555
H25 C46 1_555 1_555
C47 C46 1_555 1_555
H26 C47 1_555 1_555
C48 C45 1_555 1_555
H27 C48 1_555 1_555
C49 C50 1_555 1_555
C50 H28 1_555 1_555
C54 H32 1_555 1_555
H33 C54 1_555 1_555
C55 H34 1_555 1_555
H35 C55 1_555 1_555
C56 H36 1_555 1_555
H37 C56 1_555 1_555
C57 H38 1_555 1_555
H39 C57 1_555 1_555
C58 C54 1_555 1_555
Cd1 N1 1_555 1_555
Cd2 N2 1_555 1_555
F1 C32 1_555 1_555
F2 C32 1_555 1_555
F4 C33 1_555 1_555
F5 C33 1_555 1_555
F6 C33 1_555 1_555
N1 C34 1_555 1_555
N2 C39 1_555 1_555
N3 C47 1_555 1_555
O1 C18 1_555 1_555
O2 C18 1_555 1_555
O3 C1 1_555 1_555
O4 C1 1_555 1_555
O5 C29 1_555 1_555
O6 C29 1_555 1_555
O9 C38 1_555 1_555
O10 C43 1_555 1_555
O11 C49 1_555 1_555
O12 C44 1_555 1_555
Cd3 N3 1_555 1_555
Cd5 O3 1_555 1_555
N5 Cd1 1_555 1_555
N6 Cd2 1_555 1_555
O13 Cd2 1_555 1_555
O14 Cd2 1_555 1_555
C6 C7 1_555 1_555
C13 C14 1_555 1_555
C27 C28 1_555 1_555
C36 N1 1_555 1_555
C37 C38 1_555 1_555
C40 N2 1_555 1_555
C42 C43 1_555 1_555
C48 N3 1_555 1_555
C54 O10 1_555 1_555
C55 C58 1_555 1_555
C55 O9 1_555 1_555
C56 C58 1_555 1_555
C56 O12 1_555 1_555
C57 C58 1_555 1_555
C57 O11 1_555 1_555
Cd1 O1 1_555 1_555
Cd1 O2 1_555 1_555
Cd1 O5 1_555 1_555
Cd1 O6 1_555 1_555
O4 Cd5 1_555 1_555
H29 C51 1_555 1_555
H30 C52 1_555 1_555
C53 C51 1_555 1_555
H31 C53 1_555 1_555
N6 C52 1_555 1_555
C53 N6 1_555 1_555
C39_2 H20_2 1_555 1_555
C40_2 H21_2 1_555 1_555
C41_2 C40_2 1_555 1_555
H22_2 C41_2 1_555 1_555
Cd5 N2_2 1_555 1_555
N2_2 C39_2 1_555 1_555
N6_2 Cd5 1_555 1_555
C40_2 N2_2 1_555 1_555
C9_2 C8_2 1_555 1_555
C10_2 C9_2 1_555 1_555
H5_2 C10_2 1_555 1_555
C11_2 C10_2 1_555 1_555
H6_2 C11_2 1_555 1_555
C12_2 C11_2 1_555 1_555
C13_2 C12_2 1_555 1_555
H7_2 C13_2 1_555 1_555
C14_2 C9_2 1_555 1_555
H8_2 C14_2 1_555 1_555
C18_2 C12_2 1_555 1_555
C32_2 C8_2 1_555 1_555
C33_2 C8_2 1_555 1_555
C36_2 H18_2 1_555 1_555
Cd1_2 N1_2 1_555 1_555
F1_2 C32_2 1_555 1_555
F2_2 C32_2 1_555 1_555
F4_2 C33_2 1_555 1_555
F5_2 C33_2 1_555 1_555
F6_2 C33_2 1_555 1_555
O1_2 C18_2 1_555 1_555
O2_2 C18_2 1_555 1_555
N5_2 Cd1_2 1_555 1_555
C13_2 C14_2 1_555 1_555
C36_2 N1_2 1_555 1_555
Cd1_2 O1_2 1_555 1_555
Cd1_2 O2_2 1_555 1_555
C1_2 C2_2 1_555 1_555
C2_2 C3_2 1_555 1_555
C3_2 H1_2 1_555 1_555
C4_2 C2_2 1_555 1_555
H2_2 C4_2 1_555 1_555
C5_2 C4_2 1_555 1_555
H3_2 C5_2 1_555 1_555
C6_2 C3_2 1_555 1_555
H4_2 C6_2 1_555 1_555
C7_2 C5_2 1_555 1_555
C34_2 H16_2 1_555 1_555
C35_2 C34_2 1_555 1_555
H17_2 C35_2 1_555 1_555
H19_2 C37_2 1_555 1_555
C38_2 C35_2 1_555 1_555
H23_2 C42_2 1_555 1_555
C44_2 C45_2 1_555 1_555
C45_2 H24_2 1_555 1_555
C46_2 C44_2 1_555 1_555
H25_2 C46_2 1_555 1_555
C47_2 C46_2 1_555 1_555
H26_2 C47_2 1_555 1_555
C48_2 C45_2 1_555 1_555
H27_2 C48_2 1_555 1_555
C49_2 C50_2 1_555 1_555
C50_2 H28_2 1_555 1_555
C51_2 C49_2 1_555 1_555
H29_2 C51_2 1_555 1_555
C52_2 C50_2 1_555 1_555
H30_2 C52_2 1_555 1_555
C53_2 C51_2 1_555 1_555
H31_2 C53_2 1_555 1_555
C54_2 H32_2 1_555 1_555
H33_2 C54_2 1_555 1_555
C55_2 H34_2 1_555 1_555
H35_2 C55_2 1_555 1_555
C56_2 H36_2 1_555 1_555
H37_2 C56_2 1_555 1_555
C57_2 H38_2 1_555 1_555
H39_2 C57_2 1_555 1_555
C58_2 C54_2 1_555 1_555
N3_2 C47_2 1_555 1_555
N6_2 C52_2 1_555 1_555
O13 C1_2 1_555 1_555
O14 C1_2 1_555 1_555
O9_2 C38_2 1_555 1_555
O10_2 C43_2 1_555 1_555
O11_2 C49_2 1_555 1_555
O12_2 C44_2 1_555 1_555
Cd3_2 N3_2 1_555 1_555
C6_2 C7_2 1_555 1_555
C37_2 C38_2 1_555 1_555
C42_2 C43_2 1_555 1_555
C48_2 N3_2 1_555 1_555
C53_2 N6_2 1_555 1_555
C54_2 O10_2 1_555 1_555
C55_2 C58_2 1_555 1_555
C55_2 O9_2 1_555 1_555
C56_2 C58_2 1_555 1_555
C56_2 O12_2 1_555 1_555
C57_2 C58_2 1_555 1_555
C57_2 O11_2 1_555 1_555
H29_3 C51_3 1_555 1_555
H30_3 C52_3 1_555 1_555
C53_3 C51_3 1_555 1_555
H31_3 C53_3 1_555 1_555
N4 C52_3 1_555 1_555
Cd6 N4 1_555 1_555
C53_3 N4 1_555 1_555
C1_3 C2_3 1_555 1_555
C2_3 C3_3 1_555 1_555
C3_3 H1_3 1_555 1_555
C4_3 C2_3 1_555 1_555
H2_3 C4_3 1_555 1_555
C5_3 C4_3 1_555 1_555
H3_3 C5_3 1_555 1_555
C6_3 C3_3 1_555 1_555
H4_3 C6_3 1_555 1_555
C7_3 C5_3 1_555 1_555
C8_3 C7_3 1_555 1_555
C9_3 C8_3 1_555 1_555
C10_3 C9_3 1_555 1_555
H5_3 C10_3 1_555 1_555
C11_3 C10_3 1_555 1_555
H6_3 C11_3 1_555 1_555
C12_3 C11_3 1_555 1_555
C13_3 C12_3 1_555 1_555
H7_3 C13_3 1_555 1_555
C14_3 C9_3 1_555 1_555
H8_3 C14_3 1_555 1_555
C18_3 C12_3 1_555 1_555
C24_2 C23_2 1_555 1_555
H12_2 C24_2 1_555 1_555
C25_2 C24_2 1_555 1_555
H13_2 C25_2 1_555 1_555
C26_2 C23_2 1_555 1_555
H14_2 C26_2 1_555 1_555
C27_2 C26_2 1_555 1_555
H15_2 C27_2 1_555 1_555
C28_2 C25_2 1_555 1_555
C29_2 C28_2 1_555 1_555
C32_3 C8_3 1_555 1_555
C33_3 C8_3 1_555 1_555
C34_3 H16_3 1_555 1_555
C35_3 C34_3 1_555 1_555
H17_3 C35_3 1_555 1_555
C36_3 H18_3 1_555 1_555
C37_3 C36_3 1_555 1_555
H19_3 C37_3 1_555 1_555
C38_3 C35_3 1_555 1_555
C39_3 H20_3 1_555 1_555
C40_3 H21_3 1_555 1_555
C41_3 C40_3 1_555 1_555
H22_3 C41_3 1_555 1_555
C42_3 C39_3 1_555 1_555
H23_3 C42_3 1_555 1_555
C43_3 C41_3 1_555 1_555
C44_3 C45_3 1_555 1_555
C45_3 H24_3 1_555 1_555
C46_3 C44_3 1_555 1_555
H25_3 C46_3 1_555 1_555
C47_3 C46_3 1_555 1_555
H26_3 C47_3 1_555 1_555
C48_3 C45_3 1_555 1_555
H27_3 C48_3 1_555 1_555
C49_3 C50_3 1_555 1_555
C50_3 H28_3 1_555 1_555
C54_3 H32_3 1_555 1_555
H33_3 C54_3 1_555 1_555
C55_3 H34_3 1_555 1_555
H35_3 C55_3 1_555 1_555
C56_3 H36_3 1_555 1_555
H37_3 C56_3 1_555 1_555
C57_3 H38_3 1_555 1_555
H39_3 C57_3 1_555 1_555
C58_3 C54_3 1_555 1_555
Cd3_2 N1_3 1_555 1_555
Cd6 N2_3 1_555 1_555
F1_3 C32_3 1_555 1_555
F2_3 C32_3 1_555 1_555
F4_3 C33_3 1_555 1_555
F5_3 C33_3 1_555 1_555
F6_3 C33_3 1_555 1_555
N1_3 C34_3 1_555 1_555
N2_3 C39_3 1_555 1_555
N5_2 C47_3 1_555 1_555
O1_3 C18_3 1_555 1_555
O2_3 C18_3 1_555 1_555
O3_2 C1_3 1_555 1_555
O4_2 C1_3 1_555 1_555
O5_2 C29_2 1_555 1_555
O6_2 C29_2 1_555 1_555
O9_3 C38_3 1_555 1_555
O10_3 C43_3 1_555 1_555
O11_3 C49_3 1_555 1_555
O12_3 C44_3 1_555 1_555
Cd6_2 O3_2 1_555 1_555
O13_2 Cd6 1_555 1_555
O14_2 Cd6 1_555 1_555
C6_3 C7_3 1_555 1_555
C13_3 C14_3 1_555 1_555
C27_2 C28_2 1_555 1_555
C36_3 N1_3 1_555 1_555
C37_3 C38_3 1_555 1_555
C40_3 N2_3 1_555 1_555
C42_3 C43_3 1_555 1_555
C48_3 N5_2 1_555 1_555
C54_3 O10_3 1_555 1_555
C55_3 C58_3 1_555 1_555
C55_3 O9_3 1_555 1_555
C56_3 C58_3 1_555 1_555
C56_3 O12_3 1_555 1_555
C57_3 C58_3 1_555 1_555
C57_3 O11_3 1_555 1_555
Cd3_2 O1_3 1_555 1_555
Cd3_2 O2_3 1_555 1_555
Cd3_2 O5_2 1_555 1_555
Cd3_2 O6_2 1_555 1_555
O4_2 Cd6_2 1_555 1_555
C1_4 C2_4 1_555 1_555
C2_4 C3_4 1_555 1_555
C3_4 H1_4 1_555 1_555
C4_4 C2_4 1_555 1_555
H2_4 C4_4 1_555 1_555
C5_4 C4_4 1_555 1_555
H3_4 C5_4 1_555 1_555
C6_4 C3_4 1_555 1_555
H4_4 C6_4 1_555 1_555
C7_4 C5_4 1_555 1_555
C34_4 H16_4 1_555 1_555
C35_4 C34_4 1_555 1_555
H17_4 C35_4 1_555 1_555
H19_4 C37_4 1_555 1_555
C38_4 C35_4 1_555 1_555
H23_4 C42_4 1_555 1_555
C44_4 C45_4 1_555 1_555
C45_4 H24_4 1_555 1_555
C46_4 C44_4 1_555 1_555
H25_4 C46_4 1_555 1_555
C47_4 C46_4 1_555 1_555
H26_4 C47_4 1_555 1_555
C48_4 C45_4 1_555 1_555
H27_4 C48_4 1_555 1_555
C49_4 C50_4 1_555 1_555
C50_4 H28_4 1_555 1_555
C51_4 C49_4 1_555 1_555
H29_4 C51_4 1_555 1_555
C52_4 C50_4 1_555 1_555
H30_4 C52_4 1_555 1_555
C53_4 C51_4 1_555 1_555
H31_4 C53_4 1_555 1_555
C54_4 H32_4 1_555 1_555
H33_4 C54_4 1_555 1_555
C55_4 H34_4 1_555 1_555
H35_4 C55_4 1_555 1_555
C56_4 H36_4 1_555 1_555
H37_4 C56_4 1_555 1_555
C57_4 H38_4 1_555 1_555
H39_4 C57_4 1_555 1_555
C58_4 C54_4 1_555 1_555
N5 C47_4 1_555 1_555
N4_2 C52_4 1_555 1_555
O13_2 C1_4 1_555 1_555
O14_2 C1_4 1_555 1_555
O9_4 C38_4 1_555 1_555
O10_4 C43_4 1_555 1_555
O11_4 C49_4 1_555 1_555
O12_4 C44_4 1_555 1_555
Cd6_2 N4_2 1_555 1_555
C6_4 C7_4 1_555 1_555
C37_4 C38_4 1_555 1_555
C42_4 C43_4 1_555 1_555
C48_4 N5 1_555 1_555
C53_4 N4_2 1_555 1_555
C54_4 O10_4 1_555 1_555
C55_4 C58_4 1_555 1_555
C55_4 O9_4 1_555 1_555
C56_4 C58_4 1_555 1_555
C56_4 O12_4 1_555 1_555
C57_4 C58_4 1_555 1_555
C57_4 O11_4 1_555 1_555
C9_4 C8_4 1_555 1_555
C10_4 C9_4 1_555 1_555
H5_4 C10_4 1_555 1_555
C11_4 C10_4 1_555 1_555
H6_4 C11_4 1_555 1_555
C12_4 C11_4 1_555 1_555
C13_4 C12_4 1_555 1_555
H7_4 C13_4 1_555 1_555
C14_4 C9_4 1_555 1_555
H8_4 C14_4 1_555 1_555
C18_4 C12_4 1_555 1_555
C32_4 C8_4 1_555 1_555
C33_4 C8_4 1_555 1_555
C36_4 H18_4 1_555 1_555
Cd3 N1_4 1_555 1_555
F1_4 C32_4 1_555 1_555
F2_4 C32_4 1_555 1_555
F4_4 C33_4 1_555 1_555
F5_4 C33_4 1_555 1_555
F6_4 C33_4 1_555 1_555
O1_4 C18_4 1_555 1_555
O2_4 C18_4 1_555 1_555
C13_4 C14_4 1_555 1_555
C36_4 N1_4 1_555 1_555
Cd3 O1_4 1_555 1_555
Cd3 O2_4 1_555 1_555
C39_4 H20_4 1_555 1_555
C40_4 H21_4 1_555 1_555
C41_4 C40_4 1_555 1_555
H22_4 C41_4 1_555 1_555
Cd6_2 N2_4 1_555 1_555
N2_4 C39_4 1_555 1_555
C40_4 N2_4 1_555 1_555
C15_2 C16_2 1_555 1_555
C16_2 C17_2 1_555 1_555
C17_2 H9_2 1_555 1_555
C19_2 H10_2 1_555 1_555
C20_2 C16_2 1_555 1_555
H11_2 C20_2 1_555 1_555
C21_2 C19_2 1_555 1_555
C22_2 C21_2 1_555 1_555
C30_2 C22_2 1_555 1_555
C31_2 C22_2 1_555 1_555
C59_2 C17_2 1_555 1_555
H40_2 C59_2 1_555 1_555
F7_2 C30_2 1_555 1_555
F8_2 C30_2 1_555 1_555
F9_2 C30_2 1_555 1_555
F10_4 C31_2 1_555 1_555
F11_4 C31_2 1_555 1_555
F12_2 C31_2 1_555 1_555
O15 C15_2 1_555 1_555
O16 C15_2 1_555 1_555
C19_2 C20_2 1_555 1_555
C21_2 C59_2 1_555 1_555
C15_3 C16_3 1_555 1_555
C16_3 C17_3 1_555 1_555
C17_3 H9_3 1_555 1_555
C19_3 H10_3 1_555 1_555
C20_3 C16_3 1_555 1_555
H11_3 C20_3 1_555 1_555
C21_3 C19_3 1_555 1_555
C22_3 C21_3 1_555 1_555
C23_3 C22_3 1_555 1_555
C24_3 C23_3 1_555 1_555
H12_3 C24_3 1_555 1_555
C25_3 C24_3 1_555 1_555
H13_3 C25_3 1_555 1_555
C26_3 C23_3 1_555 1_555
H14_3 C26_3 1_555 1_555
C27_3 C26_3 1_555 1_555
H15_3 C27_3 1_555 1_555
C28_3 C25_3 1_555 1_555
C29_3 C28_3 1_555 1_555
C30_3 C22_3 1_555 1_555
C31_3 C22_3 1_555 1_555
C59_3 C17_3 1_555 1_555
H40_3 C59_3 1_555 1_555
F7_3 C30_3 1_555 1_555
F8_3 C30_3 1_555 1_555
F9_3 C30_3 1_555 1_555
F12_3 C31_3 1_555 1_555
O5_3 C29_3 1_555 1_555
O6_3 C29_3 1_555 1_555
O15_2 C15_3 1_555 1_555
O16_2 C15_3 1_555 1_555
C19_3 C20_3 1_555 1_555
C21_3 C59_3 1_555 1_555
C27_3 C28_3 1_555 1_555
C15_4 C16_4 1_555 1_555
C16_4 C17_4 1_555 1_555
C17_4 H9_4 1_555 1_555
C19_4 H10_4 1_555 1_555
C20_4 C16_4 1_555 1_555
H11_4 C20_4 1_555 1_555
C21_4 C19_4 1_555 1_555
C22_4 C21_4 1_555 1_555
C23_4 C22_4 1_555 1_555
C24_4 C23_4 1_555 1_555
H12_4 C24_4 1_555 1_555
C25_4 C24_4 1_555 1_555
H13_4 C25_4 1_555 1_555
C26_4 C23_4 1_555 1_555
H14_4 C26_4 1_555 1_555
C27_4 C26_4 1_555 1_555
H15_4 C27_4 1_555 1_555
C28_4 C25_4 1_555 1_555
C29_4 C28_4 1_555 1_555
C30_4 C22_4 1_555 1_555
C31_4 C22_4 1_555 1_555
C59_4 C17_4 1_555 1_555
H40_4 C59_4 1_555 1_555
F7_4 C30_4 1_555 1_555
F8_4 C30_4 1_555 1_555
F9_4 C30_4 1_555 1_555
F12_4 C31_4 1_555 1_555
O5_4 C29_4 1_555 1_555
O6_4 C29_4 1_555 1_555
O7_2 C15_4 1_555 1_555
O8_2 C15_4 1_555 1_555
C19_4 C20_4 1_555 1_555
C21_4 C59_4 1_555 1_555
C27_4 C28_4 1_555 1_555

#END
