
###############################################################################
#
# This file contains modified crystal structure data generated from the
# MOF subset of the Cambridge Structural Database (CSD) v543 
# hosted by the Cambridge Crystallographic Data Centre (CCDC).
#
# This work is licensed under the Creative Commons
# Attribution-NonCommercial-ShareAlike 4.0 International License.
# To view a copy of this license, visit
# http://creativecommons.org/licenses/by-nc-sa/4.0/
# or send a letter to
# Creative Commons, PO Box 1866, Mountain View, CA 94042, USA.
#
# CIF created using the CSD Python API on 29 September 2022
# The structure has been converted into the P1 space group
# The structure has a 3D framework
# The original CSD entry FAMQES is in the tetragonal crystal system
# The framework has been calculated to contain at least 10.0% void space
# The void calculation uses a probe of radius 1.32A, grid spacing 0.4
#
###############################################################################

data_FAMQES
_chemical_formula_moiety         '(C200 H124 Cu16 N16 O96)n'
_symmetry_cell_setting           triclinic
_symmetry_space_group_name_H-M   'P 1'
_symmetry_Int_Tables_number      1
_space_group_name_Hall           'P 1'
loop_
_symmetry_equiv_pos_site_id
_symmetry_equiv_pos_as_xyz
1 x,y,z
_cell_length_a                   18.6841(7)
_cell_length_b                   18.6841(7)
_cell_length_c                   34.6796(17)
_cell_angle_alpha                90
_cell_angle_beta                 90
_cell_angle_gamma                90
_cell_volume                     12106.5
loop_
_atom_site_label
_atom_site_type_symbol
_atom_site_fract_x
_atom_site_fract_y
_atom_site_fract_z
O2 O 0.2124(2) 0.2672(2) 0.19641(9)
O3 O 0.1538(2) 0.2225(2) 0.24758(10)
C2 C 0.1556(3) 0.2507(3) 0.21443(13)
C3 C 0.0876(3) 0.2671(3) 0.19459(13)
C5 C 0.0230(3) 0.2641(3) 0.21442(13)
H3 H 0.0214 0.2473 0.2396
C6 C 0.0891(3) 0.2912(4) 0.15650(14)
H4 H 0.1324 0.2934 0.1433
C7 C 0.0262(3) 0.3118(4) 0.13840(14)
C9 C 0.0128(5) 0.4619(5) 0.0000
C10 C 0.0726(5) 0.3246(7) 0.0000
H6 H 0.0954 0.2804 0.0000
C11 C 0.0284(4) 0.4253(5) 0.03432(14)
H7 H 0.0198 0.4480 0.0577
C12 C 0.0557(4) 0.3575(5) 0.03445(15)
O6 O 0.1221(4) 0.2808(4) 0.07506(13)
C13 C 0.0704(5) 0.3209(5) 0.07152(16)
N1 N 0.0240(3) 0.3351(5) 0.09972(14)
O7 O 0.1630(2) 0.6872(2) 0.20199(9)
C14 C 0.1106(3) 0.7173(3) 0.21685(14)
C17 C 0.0399(3) 0.7131(3) 0.19583(14)
C21 C 0.0380(3) 0.6906(4) 0.15841(14)
H11 H 0.0802 0.6768 0.1462
H14 H 0.0117 0.6383 0.0935
O11 O 0.10937(19) 0.7507(2) 0.24900(9)
Cu2 Cu 0.26199(4) 0.69531(4) 0.22116(2)
O22 O 0.3134(3) 0.6420(3) 0.17439(12)
H25 H 0.3315 0.5918 0.1741
H26 H 0.3244 0.6622 0.1483
Cu4 Cu 0.30469(4) 0.26199(4) 0.22116(2)
O24 O 0.3580(3) 0.3134(3) 0.17439(12)
H29 H 0.4082 0.3315 0.1741
H30 H 0.3378 0.3244 0.1483
Cu6 Cu 0.23801(4) 0.19531(4) 0.27884(2)
Cu8 Cu 0.19531(4) 0.76199(4) 0.27884(2)
O25 O 0.3128(2) 0.1630(2) 0.20199(9)
O28 O 0.2672(2) 0.7876(2) 0.19641(9)
O32 O 0.3462(2) 0.7225(2) 0.25242(10)
O33 O 0.2775(2) 0.3462(2) 0.25242(10)
O34 O 0.39063(19) 0.2507(2) 0.25100(9)
O36 O 0.2507(2) 0.60937(19) 0.25100(9)
C9_2 C 0.0128(5) 0.4619(5) 1.0000
C10_2 C 0.0726(5) 0.3246(7) 1.0000
H6_2 H 0.0954 0.2804 1.0000
O12 O 0.1630(2) 0.6872(2) 0.79801(9)
C27 C 0.1106(3) 0.7173(3) 0.78315(14)
C30 C 0.0399(3) 0.7131(3) 0.80417(14)
C34 C 0.0380(3) 0.6906(4) 0.84159(14)
H17 H 0.0802 0.6768 0.8538
H19 H 0.0117 0.6383 0.9065
O16 O 0.10937(19) 0.7507(2) 0.75100(9)
C39 C 0.1556(3) 0.2507(3) 0.78557(13)
C40 C 0.0876(3) 0.2671(3) 0.80541(13)
C42 C 0.0230(3) 0.2641(3) 0.78558(13)
H20 H 0.0214 0.2473 0.7604
C43 C 0.0891(3) 0.2912(4) 0.84350(14)
H21 H 0.1324 0.2934 0.8567
C44 C 0.0262(3) 0.3118(4) 0.86160(14)
C46 C 0.0284(4) 0.4253(5) 0.96568(14)
H23 H 0.0198 0.4480 0.9423
C47 C 0.0557(4) 0.3575(5) 0.96555(15)
O18 O 0.1221(4) 0.2808(4) 0.92494(13)
C48 C 0.0704(5) 0.3209(5) 0.92848(16)
N4 N 0.0240(3) 0.3351(5) 0.90028(14)
O19 O 0.2124(2) 0.2672(2) 0.80359(9)
O20 O 0.1538(2) 0.2225(2) 0.75242(10)
Cu9 Cu 0.26199(4) 0.69531(4) 0.77884(2)
Cu10 Cu 0.30469(4) 0.26199(4) 0.77884(2)
Cu14 Cu 0.23801(4) 0.19531(4) 0.72116(2)
Cu15 Cu 0.19531(4) 0.76199(4) 0.72116(2)
Cu1 Cu 0.73801(4) 0.30469(4) 0.22116(2)
O1 O 0.8370(2) 0.3128(2) 0.20199(9)
O4 O 0.89063(19) 0.2493(2) 0.24900(9)
C1 C 0.8894(3) 0.2827(3) 0.21685(14)
O5 O 0.6866(3) 0.3580(3) 0.17439(12)
H1 H 0.6685 0.4082 0.1741
H2 H 0.6756 0.3378 0.1483
C4 C 0.9601(3) 0.2869(3) 0.19583(14)
C8 C 0.9620(3) 0.3094(4) 0.15841(14)
H5 H 0.9198 0.3232 0.1462
H8 H 0.9883 0.3617 0.0935
C15 C 0.8444(3) 0.7493(3) 0.21443(13)
C16 C 0.9124(3) 0.7329(3) 0.19459(13)
C18 C 0.9770(3) 0.7359(3) 0.21442(13)
H9 H 0.9786 0.7527 0.2396
C19 C 0.9109(3) 0.7088(4) 0.15650(14)
H10 H 0.8676 0.7066 0.1433
C20 C 0.9738(3) 0.6882(4) 0.13840(14)
C22 C 0.9872(5) 0.5381(5) 0.0000
C23 C 0.9274(5) 0.6754(7) 0.0000
H12 H 0.9046 0.7196 0.0000
C24 C 0.9716(4) 0.5747(5) 0.03432(14)
H13 H 0.9802 0.5520 0.0577
C25 C 0.9443(4) 0.6425(5) 0.03445(15)
O8 O 0.8779(4) 0.7192(4) 0.07506(13)
C26 C 0.9296(5) 0.6791(5) 0.07152(16)
N2 N 0.9760(3) 0.6649(5) 0.09972(14)
O9 O 0.7876(2) 0.7328(2) 0.19641(9)
O10 O 0.8462(2) 0.7775(2) 0.24758(10)
Cu3 Cu 0.80469(4) 0.23801(4) 0.27884(2)
O23 O 0.8580(3) 0.1866(3) 0.32561(12)
H27 H 0.9082 0.1685 0.3259
H28 H 0.8378 0.1756 0.3517
Cu5 Cu 0.69531(4) 0.73801(4) 0.22116(2)
Cu7 Cu 0.76199(4) 0.80469(4) 0.27884(2)
O26 O 0.8128(2) 0.3370(2) 0.29801(9)
O27 O 0.7328(2) 0.2124(2) 0.19641(9)
O29 O 0.7124(2) 0.2328(2) 0.30359(9)
O30 O 0.7775(2) 0.1538(2) 0.24758(10)
O31 O 0.6538(2) 0.2775(2) 0.25242(10)
O35 O 0.7493(2) 0.39063(19) 0.25100(9)
C22_2 C 0.9872(5) 0.5381(5) 1.0000
C23_2 C 0.9274(5) 0.6754(7) 1.0000
H12_2 H 0.9046 0.7196 1.0000
C28 C 0.8444(3) 0.7493(3) 0.78557(13)
C29 C 0.9124(3) 0.7329(3) 0.80541(13)
C31 C 0.9770(3) 0.7359(3) 0.78558(13)
H15 H 0.9786 0.7527 0.7604
C32 C 0.9109(3) 0.7088(4) 0.84350(14)
H16 H 0.8676 0.7066 0.8567
C33 C 0.9738(3) 0.6882(4) 0.86160(14)
C35 C 0.9716(4) 0.5747(5) 0.96568(14)
H18 H 0.9802 0.5520 0.9423
C36 C 0.9443(4) 0.6425(5) 0.96555(15)
O13 O 0.8779(4) 0.7192(4) 0.92494(13)
C37 C 0.9296(5) 0.6791(5) 0.92848(16)
N3 N 0.9760(3) 0.6649(5) 0.90028(14)
O14 O 0.7876(2) 0.7328(2) 0.80359(9)
O15 O 0.8462(2) 0.7775(2) 0.75242(10)
O17 O 0.8370(2) 0.3128(2) 0.79801(9)
C38 C 0.8894(3) 0.2827(3) 0.78315(14)
C41 C 0.9601(3) 0.2869(3) 0.80417(14)
C45 C 0.9620(3) 0.3094(4) 0.84159(14)
H22 H 0.9198 0.3232 0.8538
H24 H 0.9883 0.3617 0.9065
O21 O 0.89063(19) 0.2493(2) 0.75100(9)
Cu11 Cu 0.73801(4) 0.30469(4) 0.77884(2)
Cu12 Cu 0.69531(4) 0.73801(4) 0.77884(2)
Cu13 Cu 0.76199(4) 0.80469(4) 0.72116(2)
Cu16 Cu 0.80469(4) 0.23801(4) 0.72116(2)
C2_2 C 0.7493(3) 0.1556(3) 0.21443(13)
C3_2 C 0.7329(3) 0.0876(3) 0.19459(13)
C5_2 C 0.7359(3) 0.0230(3) 0.21442(13)
H3_2 H 0.7527 0.0214 0.2396
C6_2 C 0.7088(4) 0.0891(3) 0.15650(14)
H4_2 H 0.7066 0.1324 0.1433
C7_2 C 0.6882(4) 0.0262(3) 0.13840(14)
C9_3 C 0.5381(5) 0.0128(5) 0.0000
C10_3 C 0.6754(7) 0.0726(5) 0.0000
H6_3 H 0.7196 0.0954 0.0000
C11_2 C 0.5747(5) 0.0284(4) 0.03432(14)
H7_2 H 0.5520 0.0198 0.0577
C12_2 C 0.6425(5) 0.0557(4) 0.03445(15)
O6_2 O 0.7192(4) 0.1221(4) 0.07506(13)
C13_2 C 0.6791(5) 0.0704(5) 0.07152(16)
N1_2 N 0.6649(5) 0.0240(3) 0.09972(14)
C14_2 C 0.2827(3) 0.1106(3) 0.21685(14)
C17_2 C 0.2869(3) 0.0399(3) 0.19583(14)
C21_2 C 0.3094(4) 0.0380(3) 0.15841(14)
H11_2 H 0.3232 0.0802 0.1462
H14_2 H 0.3617 0.0117 0.0935
O11_2 O 0.2493(2) 0.10937(19) 0.24900(9)
C9_4 C 0.5381(5) 0.0128(5) 1.0000
C10_4 C 0.6754(7) 0.0726(5) 1.0000
H6_4 H 0.7196 0.0954 1.0000
O12_2 O 0.3128(2) 0.1630(2) 0.79801(9)
C27_2 C 0.2827(3) 0.1106(3) 0.78315(14)
C30_2 C 0.2869(3) 0.0399(3) 0.80417(14)
C34_2 C 0.3094(4) 0.0380(3) 0.84159(14)
H17_2 H 0.3232 0.0802 0.8538
H19_2 H 0.3617 0.0117 0.9065
O16_2 O 0.2493(2) 0.10937(19) 0.75100(9)
C39_2 C 0.7493(3) 0.1556(3) 0.78557(13)
C40_2 C 0.7329(3) 0.0876(3) 0.80541(13)
C42_2 C 0.7359(3) 0.0230(3) 0.78558(13)
H20_2 H 0.7527 0.0214 0.7604
C43_2 C 0.7088(4) 0.0891(3) 0.84350(14)
H21_2 H 0.7066 0.1324 0.8567
C44_2 C 0.6882(4) 0.0262(3) 0.86160(14)
C46_2 C 0.5747(5) 0.0284(4) 0.96568(14)
H23_2 H 0.5520 0.0198 0.9423
C47_2 C 0.6425(5) 0.0557(4) 0.96555(15)
O18_2 O 0.7192(4) 0.1221(4) 0.92494(13)
C48_2 C 0.6791(5) 0.0704(5) 0.92848(16)
N4_2 N 0.6649(5) 0.0240(3) 0.90028(14)
O19_2 O 0.7328(2) 0.2124(2) 0.80359(9)
O20_2 O 0.7775(2) 0.1538(2) 0.75242(10)
O1_2 O 0.6872(2) 0.8370(2) 0.20199(9)
O4_2 O 0.7507(2) 0.89063(19) 0.24900(9)
C1_2 C 0.7173(3) 0.8894(3) 0.21685(14)
O5_2 O 0.6420(3) 0.6866(3) 0.17439(12)
H1_2 H 0.5918 0.6685 0.1741
H2_2 H 0.6622 0.6756 0.1483
C4_2 C 0.7131(3) 0.9601(3) 0.19583(14)
C8_2 C 0.6906(4) 0.9620(3) 0.15841(14)
H5_2 H 0.6768 0.9198 0.1462
H8_2 H 0.6383 0.9883 0.0935
C15_2 C 0.2507(3) 0.8444(3) 0.21443(13)
C16_2 C 0.2671(3) 0.9124(3) 0.19459(13)
C18_2 C 0.2641(3) 0.9770(3) 0.21442(13)
H9_2 H 0.2473 0.9786 0.2396
C19_2 C 0.2912(4) 0.9109(3) 0.15650(14)
H10_2 H 0.2934 0.8676 0.1433
C20_2 C 0.3118(4) 0.9738(3) 0.13840(14)
C22_3 C 0.4619(5) 0.9872(5) 0.0000
C23_3 C 0.3246(7) 0.9274(5) 0.0000
H12_3 H 0.2804 0.9046 0.0000
C24_2 C 0.4253(5) 0.9716(4) 0.03432(14)
H13_2 H 0.4480 0.9802 0.0577
C25_2 C 0.3575(5) 0.9443(4) 0.03445(15)
O8_2 O 0.2808(4) 0.8779(4) 0.07506(13)
C26_2 C 0.3209(5) 0.9296(5) 0.07152(16)
N2_2 N 0.3351(5) 0.9760(3) 0.09972(14)
O10_2 O 0.2225(2) 0.8462(2) 0.24758(10)
O23_2 O 0.8134(3) 0.8580(3) 0.32561(12)
H27_2 H 0.8315 0.9082 0.3259
H28_2 H 0.8244 0.8378 0.3517
O26_2 O 0.6630(2) 0.8128(2) 0.29801(9)
O29_2 O 0.7672(2) 0.7124(2) 0.30359(9)
O31_2 O 0.7225(2) 0.6538(2) 0.25242(10)
O35_2 O 0.60937(19) 0.7493(2) 0.25100(9)
C22_4 C 0.4619(5) 0.9872(5) 1.0000
C23_4 C 0.3246(7) 0.9274(5) 1.0000
H12_4 H 0.2804 0.9046 1.0000
C28_2 C 0.2507(3) 0.8444(3) 0.78557(13)
C29_2 C 0.2671(3) 0.9124(3) 0.80541(13)
C31_2 C 0.2641(3) 0.9770(3) 0.78558(13)
H15_2 H 0.2473 0.9786 0.7604
C32_2 C 0.2912(4) 0.9109(3) 0.84350(14)
H16_2 H 0.2934 0.8676 0.8567
C33_2 C 0.3118(4) 0.9738(3) 0.86160(14)
C35_2 C 0.4253(5) 0.9716(4) 0.96568(14)
H18_2 H 0.4480 0.9802 0.9423
C36_2 C 0.3575(5) 0.9443(4) 0.96555(15)
O13_2 O 0.2808(4) 0.8779(4) 0.92494(13)
C37_2 C 0.3209(5) 0.9296(5) 0.92848(16)
N3_2 N 0.3351(5) 0.9760(3) 0.90028(14)
O14_2 O 0.2672(2) 0.7876(2) 0.80359(9)
O15_2 O 0.2225(2) 0.8462(2) 0.75242(10)
O17_2 O 0.6872(2) 0.8370(2) 0.79801(9)
C38_2 C 0.7173(3) 0.8894(3) 0.78315(14)
C41_2 C 0.7131(3) 0.9601(3) 0.80417(14)
C45_2 C 0.6906(4) 0.9620(3) 0.84159(14)
H22_2 H 0.6768 0.9198 0.8538
H24_2 H 0.6383 0.9883 0.9065
O21_2 O 0.7507(2) 0.89063(19) 0.75100(9)
O23_3 O 0.1420(3) 0.8134(3) 0.32561(12)
H27_3 H 0.0918 0.8315 0.3259
H28_3 H 0.1622 0.8244 0.3517
O26_3 O 0.1872(2) 0.6630(2) 0.29801(9)
O29_3 O 0.2876(2) 0.7672(2) 0.30359(9)
O23_4 O 0.1866(3) 0.1420(3) 0.32561(12)
H27_4 H 0.1685 0.0918 0.3259
H28_4 H 0.1756 0.1622 0.3517
O26_4 O 0.3370(2) 0.1872(2) 0.29801(9)
O29_4 O 0.2328(2) 0.2876(2) 0.30359(9)
C1_3 C 0.3894(3) 0.2173(3) 0.28315(14)
C2_3 C 0.6556(3) 0.2493(3) 0.28557(13)
C3_3 C 0.5876(3) 0.2329(3) 0.30541(13)
C4_3 C 0.4601(3) 0.2131(3) 0.30417(14)
C5_3 C 0.5230(3) 0.2359(3) 0.28558(13)
H3_3 H 0.5214 0.2527 0.2604
C6_3 C 0.5891(3) 0.2088(4) 0.34350(14)
H4_3 H 0.6324 0.2066 0.3567
C7_3 C 0.5262(3) 0.1882(4) 0.36160(14)
C8_3 C 0.4620(3) 0.1906(4) 0.34159(14)
H5_3 H 0.4198 0.1768 0.3538
C9_5 C 0.5128(5) 0.0381(5) 0.5000
C10_5 C 0.5726(5) 0.1754(7) 0.5000
H6_5 H 0.5954 0.2196 0.5000
C11_3 C 0.5284(4) 0.0747(5) 0.46568(14)
H7_3 H 0.5198 0.0520 0.4423
C12_3 C 0.5557(4) 0.1425(5) 0.46555(15)
O6_3 O 0.6221(4) 0.2192(4) 0.42494(13)
C13_3 C 0.5704(5) 0.1791(5) 0.42848(16)
N1_3 N 0.5240(3) 0.1649(5) 0.40028(14)
H8_3 H 0.4883 0.1383 0.4065
O17_3 O 0.3370(2) 0.1872(2) 0.70199(9)
C38_3 C 0.3894(3) 0.2173(3) 0.71685(14)
C39_3 C 0.6556(3) 0.2493(3) 0.71443(13)
C40_3 C 0.5876(3) 0.2329(3) 0.69459(13)
C41_3 C 0.4601(3) 0.2131(3) 0.69583(14)
C42_3 C 0.5230(3) 0.2359(3) 0.71442(13)
H20_3 H 0.5214 0.2527 0.7396
C43_3 C 0.5891(3) 0.2088(4) 0.65650(14)
H21_3 H 0.6324 0.2066 0.6433
C44_3 C 0.5262(3) 0.1882(4) 0.63840(14)
C45_3 C 0.4620(3) 0.1906(4) 0.65841(14)
H22_3 H 0.4198 0.1768 0.6462
C46_3 C 0.5284(4) 0.0747(5) 0.53432(14)
H23_3 H 0.5198 0.0520 0.5577
C47_3 C 0.5557(4) 0.1425(5) 0.53445(15)
O18_3 O 0.6221(4) 0.2192(4) 0.57506(13)
C48_3 C 0.5704(5) 0.1791(5) 0.57152(16)
N4_3 N 0.5240(3) 0.1649(5) 0.59972(14)
H24_3 H 0.4883 0.1383 0.5935
O19_3 O 0.7124(2) 0.2328(2) 0.69641(9)
O20_3 O 0.6538(2) 0.2775(2) 0.74758(10)
O21_3 O 0.39063(19) 0.2507(2) 0.74900(9)
C14_3 C 0.6106(3) 0.7827(3) 0.28315(14)
C15_3 C 0.3444(3) 0.7507(3) 0.28557(13)
C16_3 C 0.4124(3) 0.7671(3) 0.30541(13)
C17_3 C 0.5399(3) 0.7869(3) 0.30417(14)
C18_3 C 0.4770(3) 0.7641(3) 0.28558(13)
H9_3 H 0.4786 0.7473 0.2604
C19_3 C 0.4109(3) 0.7912(4) 0.34350(14)
H10_3 H 0.3676 0.7934 0.3567
C20_3 C 0.4738(3) 0.8118(4) 0.36160(14)
C21_3 C 0.5380(3) 0.8094(4) 0.34159(14)
H11_3 H 0.5802 0.8232 0.3538
C22_5 C 0.4872(5) 0.9619(5) 0.5000
C23_5 C 0.4274(5) 0.8246(7) 0.5000
H12_5 H 0.4046 0.7804 0.5000
C24_3 C 0.4716(4) 0.9253(5) 0.46568(14)
H13_3 H 0.4802 0.9480 0.4423
C25_3 C 0.4443(4) 0.8575(5) 0.46555(15)
O8_3 O 0.3779(4) 0.7808(4) 0.42494(13)
C26_3 C 0.4296(5) 0.8209(5) 0.42848(16)
N2_3 N 0.4760(3) 0.8351(5) 0.40028(14)
H14_3 H 0.5117 0.8617 0.4065
O12_3 O 0.6630(2) 0.8128(2) 0.70199(9)
C27_3 C 0.6106(3) 0.7827(3) 0.71685(14)
C28_3 C 0.3444(3) 0.7507(3) 0.71443(13)
C29_3 C 0.4124(3) 0.7671(3) 0.69459(13)
C30_3 C 0.5399(3) 0.7869(3) 0.69583(14)
C31_3 C 0.4770(3) 0.7641(3) 0.71442(13)
H15_3 H 0.4786 0.7473 0.7396
C32_3 C 0.4109(3) 0.7912(4) 0.65650(14)
H16_3 H 0.3676 0.7934 0.6433
C33_3 C 0.4738(3) 0.8118(4) 0.63840(14)
C34_3 C 0.5380(3) 0.8094(4) 0.65841(14)
H17_3 H 0.5802 0.8232 0.6462
C35_3 C 0.4716(4) 0.9253(5) 0.53432(14)
H18_3 H 0.4802 0.9480 0.5577
C36_3 C 0.4443(4) 0.8575(5) 0.53445(15)
O13_3 O 0.3779(4) 0.7808(4) 0.57506(13)
C37_3 C 0.4296(5) 0.8209(5) 0.57152(16)
N3_3 N 0.4760(3) 0.8351(5) 0.59972(14)
H19_3 H 0.5117 0.8617 0.5935
O14_3 O 0.2876(2) 0.7672(2) 0.69641(9)
O15_3 O 0.3462(2) 0.7225(2) 0.74758(10)
O16_3 O 0.60937(19) 0.7493(2) 0.74900(9)
C14_4 C 0.2173(3) 0.6106(3) 0.28315(14)
C15_4 C 0.2493(3) 0.3444(3) 0.28557(13)
C16_4 C 0.2329(3) 0.4124(3) 0.30541(13)
C17_4 C 0.2131(3) 0.5399(3) 0.30417(14)
C18_4 C 0.2359(3) 0.4770(3) 0.28558(13)
H9_4 H 0.2527 0.4786 0.2604
C19_4 C 0.2088(4) 0.4109(3) 0.34350(14)
H10_4 H 0.2066 0.3676 0.3567
C20_4 C 0.1882(4) 0.4738(3) 0.36160(14)
C21_4 C 0.1906(4) 0.5380(3) 0.34159(14)
H11_4 H 0.1768 0.5802 0.3538
C22_6 C 0.0381(5) 0.4872(5) 0.5000
C23_6 C 0.1754(7) 0.4274(5) 0.5000
H12_6 H 0.2196 0.4046 0.5000
C24_4 C 0.0747(5) 0.4716(4) 0.46568(14)
H13_4 H 0.0520 0.4802 0.4423
C25_4 C 0.1425(5) 0.4443(4) 0.46555(15)
O8_4 O 0.2192(4) 0.3779(4) 0.42494(13)
C26_4 C 0.1791(5) 0.4296(5) 0.42848(16)
N2_4 N 0.1649(5) 0.4760(3) 0.40028(14)
H14_4 H 0.1383 0.5117 0.4065
O12_4 O 0.1872(2) 0.6630(2) 0.70199(9)
C27_4 C 0.2173(3) 0.6106(3) 0.71685(14)
C28_4 C 0.2493(3) 0.3444(3) 0.71443(13)
C29_4 C 0.2329(3) 0.4124(3) 0.69459(13)
C30_4 C 0.2131(3) 0.5399(3) 0.69583(14)
C31_4 C 0.2359(3) 0.4770(3) 0.71442(13)
H15_4 H 0.2527 0.4786 0.7396
C32_4 C 0.2088(4) 0.4109(3) 0.65650(14)
H16_4 H 0.2066 0.3676 0.6433
C33_4 C 0.1882(4) 0.4738(3) 0.63840(14)
C34_4 C 0.1906(4) 0.5380(3) 0.65841(14)
H17_4 H 0.1768 0.5802 0.6462
C35_4 C 0.0747(5) 0.4716(4) 0.53432(14)
H18_4 H 0.0520 0.4802 0.5577
C36_4 C 0.1425(5) 0.4443(4) 0.53445(15)
O13_4 O 0.2192(4) 0.3779(4) 0.57506(13)
C37_4 C 0.1791(5) 0.4296(5) 0.57152(16)
N3_4 N 0.1649(5) 0.4760(3) 0.59972(14)
H19_4 H 0.1383 0.5117 0.5935
O14_4 O 0.2328(2) 0.2876(2) 0.69641(9)
O15_4 O 0.2775(2) 0.3462(2) 0.74758(10)
O16_4 O 0.2507(2) 0.60937(19) 0.74900(9)
C1_4 C 0.7827(3) 0.3894(3) 0.28315(14)
C2_4 C 0.7507(3) 0.6556(3) 0.28557(13)
C3_4 C 0.7671(3) 0.5876(3) 0.30541(13)
C4_4 C 0.7869(3) 0.4601(3) 0.30417(14)
C5_4 C 0.7641(3) 0.5230(3) 0.28558(13)
H3_4 H 0.7473 0.5214 0.2604
C6_4 C 0.7912(4) 0.5891(3) 0.34350(14)
H4_4 H 0.7934 0.6324 0.3567
C7_4 C 0.8118(4) 0.5262(3) 0.36160(14)
C8_4 C 0.8094(4) 0.4620(3) 0.34159(14)
H5_4 H 0.8232 0.4198 0.3538
C9_6 C 0.9619(5) 0.5128(5) 0.5000
C10_6 C 0.8246(7) 0.5726(5) 0.5000
H6_6 H 0.7804 0.5954 0.5000
C11_4 C 0.9253(5) 0.5284(4) 0.46568(14)
H7_4 H 0.9480 0.5198 0.4423
C12_4 C 0.8575(5) 0.5557(4) 0.46555(15)
O6_4 O 0.7808(4) 0.6221(4) 0.42494(13)
C13_4 C 0.8209(5) 0.5704(5) 0.42848(16)
N1_4 N 0.8351(5) 0.5240(3) 0.40028(14)
H8_4 H 0.8617 0.4883 0.4065
O17_4 O 0.8128(2) 0.3370(2) 0.70199(9)
C38_4 C 0.7827(3) 0.3894(3) 0.71685(14)
C39_4 C 0.7507(3) 0.6556(3) 0.71443(13)
C40_4 C 0.7671(3) 0.5876(3) 0.69459(13)
C41_4 C 0.7869(3) 0.4601(3) 0.69583(14)
C42_4 C 0.7641(3) 0.5230(3) 0.71442(13)
H20_4 H 0.7473 0.5214 0.7396
C43_4 C 0.7912(4) 0.5891(3) 0.65650(14)
H21_4 H 0.7934 0.6324 0.6433
C44_4 C 0.8118(4) 0.5262(3) 0.63840(14)
C45_4 C 0.8094(4) 0.4620(3) 0.65841(14)
H22_4 H 0.8232 0.4198 0.6462
C46_4 C 0.9253(5) 0.5284(4) 0.53432(14)
H23_4 H 0.9480 0.5198 0.5577
C47_4 C 0.8575(5) 0.5557(4) 0.53445(15)
O18_4 O 0.7808(4) 0.6221(4) 0.57506(13)
C48_4 C 0.8209(5) 0.5704(5) 0.57152(16)
N4_4 N 0.8351(5) 0.5240(3) 0.59972(14)
H24_4 H 0.8617 0.4883 0.5935
O19_4 O 0.7672(2) 0.7124(2) 0.69641(9)
O20_4 O 0.7225(2) 0.6538(2) 0.74758(10)
O21_4 O 0.7493(2) 0.39063(19) 0.74900(9)
O5_3 O 0.3134(3) 0.6420(3) 0.82561(12)
H1_3 H 0.3315 0.5918 0.8259
H2_3 H 0.3244 0.6622 0.8517
O23_5 O 0.1420(3) 0.8134(3) 0.67439(12)
H27_5 H 0.0918 0.8315 0.6741
H28_5 H 0.1622 0.8244 0.6483
O22_2 O 0.6866(3) 0.3580(3) 0.82561(12)
H25_2 H 0.6685 0.4082 0.8259
H26_2 H 0.6756 0.3378 0.8517
O24_2 O 0.6420(3) 0.6866(3) 0.82561(12)
H29_2 H 0.5918 0.6685 0.8259
H30_2 H 0.6622 0.6756 0.8517
O5_4 O 0.3580(3) 0.3134(3) 0.82561(12)
H1_4 H 0.4082 0.3315 0.8259
H2_4 H 0.3378 0.3244 0.8517
O23_6 O 0.1866(3) 0.1420(3) 0.67439(12)
H27_6 H 0.1685 0.0918 0.6741
H28_6 H 0.1756 0.1622 0.6483
O23_7 O 0.8580(3) 0.1866(3) 0.67439(12)
H27_7 H 0.9082 0.1685 0.6741
H28_7 H 0.8378 0.1756 0.6483
O23_8 O 0.8134(3) 0.8580(3) 0.67439(12)
H27_8 H 0.8315 0.9082 0.6741
H28_8 H 0.8244 0.8378 0.6483
loop_
_geom_bond_atom_site_label_1
_geom_bond_atom_site_label_2
_geom_bond_site_symmetry_1
_geom_bond_site_symmetry_2
O2 C2 1_555 1_555
O3 C2 1_555 1_555
C2 C3 1_555 1_555
C3 C5 1_555 1_555
C5 H3 1_555 1_555
C6 C3 1_555 1_555
H4 C6 1_555 1_555
C7 C6 1_555 1_555
C9 C11 1_555 1_555
C10 H6 1_555 1_555
C11 H7 1_555 1_555
C12 C10 1_555 1_555
O6 C13 1_555 1_555
C13 C12 1_555 1_555
N1 C7 1_555 1_555
O7 C14 1_555 1_555
C14 C17 1_555 1_555
C21 C17 1_555 1_555
H11 C21 1_555 1_555
O11 C14 1_555 1_555
Cu2 O7 1_555 1_555
O22 Cu2 1_555 1_555
H25 O22 1_555 1_555
H26 O22 1_555 1_555
Cu4 O2 1_555 1_555
O24 Cu4 1_555 1_555
H29 O24 1_555 1_555
H30 O24 1_555 1_555
Cu6 O3 1_555 1_555
Cu8 O11 1_555 1_555
O25 Cu4 1_555 1_555
O28 Cu2 1_555 1_555
O32 Cu2 1_555 1_555
O33 Cu4 1_555 1_555
O34 Cu4 1_555 1_555
O36 Cu2 1_555 1_555
C11 C12 1_555 1_555
C13 N1 1_555 1_555
Cu2 Cu8 1_555 1_555
Cu4 Cu6 1_555 1_555
C10_2 H6_2 1_555 1_555
O12 C27 1_555 1_555
C27 C30 1_555 1_555
C34 C30 1_555 1_555
H17 C34 1_555 1_555
O16 C27 1_555 1_555
C39 C40 1_555 1_555
C40 C42 1_555 1_555
C42 H20 1_555 1_555
C43 C40 1_555 1_555
H21 C43 1_555 1_555
C44 C43 1_555 1_555
C46 C9_2 1_555 1_555
H23 C46 1_555 1_555
C47 C10_2 1_555 1_555
O18 C48 1_555 1_555
C48 C47 1_555 1_555
N4 C44 1_555 1_555
O19 C39 1_555 1_555
O20 C39 1_555 1_555
Cu9 O12 1_555 1_555
Cu10 O19 1_555 1_555
Cu14 O20 1_555 1_555
Cu15 O16 1_555 1_555
C46 C47 1_555 1_555
C48 N4 1_555 1_555
Cu9 Cu15 1_555 1_555
Cu10 Cu14 1_555 1_555
Cu1 O1 1_555 1_555
O1 C1 1_555 1_555
O4 C1 1_555 1_555
C1 C4 1_555 1_555
O5 Cu1 1_555 1_555
H1 O5 1_555 1_555
H2 O5 1_555 1_555
C8 C4 1_555 1_555
H5 C8 1_555 1_555
C15 C16 1_555 1_555
C16 C18 1_555 1_555
C18 H9 1_555 1_555
C19 C16 1_555 1_555
H10 C19 1_555 1_555
C20 C19 1_555 1_555
C23 H12 1_555 1_555
C24 C22 1_555 1_555
H13 C24 1_555 1_555
C25 C23 1_555 1_555
O8 C26 1_555 1_555
C26 C25 1_555 1_555
N2 C20 1_555 1_555
O9 C15 1_555 1_555
O10 C15 1_555 1_555
Cu3 Cu1 1_555 1_555
O23 Cu3 1_555 1_555
H27 O23 1_555 1_555
H28 O23 1_555 1_555
Cu5 O9 1_555 1_555
Cu7 O10 1_555 1_555
O26 Cu3 1_555 1_555
O27 Cu1 1_555 1_555
O29 Cu3 1_555 1_555
O30 Cu3 1_555 1_555
O31 Cu1 1_555 1_555
O35 Cu1 1_555 1_555
O4 Cu3 1_555 1_555
C24 C25 1_555 1_555
C26 N2 1_555 1_555
Cu5 Cu7 1_555 1_555
C23_2 H12_2 1_555 1_555
C28 C29 1_555 1_555
C29 C31 1_555 1_555
C31 H15 1_555 1_555
C32 C29 1_555 1_555
H16 C32 1_555 1_555
C33 C32 1_555 1_555
C35 C22_2 1_555 1_555
H18 C35 1_555 1_555
C36 C23_2 1_555 1_555
O13 C37 1_555 1_555
C37 C36 1_555 1_555
N3 C33 1_555 1_555
O14 C28 1_555 1_555
O15 C28 1_555 1_555
O17 C38 1_555 1_555
C38 C41 1_555 1_555
C45 C41 1_555 1_555
H22 C45 1_555 1_555
O21 C38 1_555 1_555
Cu11 O17 1_555 1_555
Cu12 O14 1_555 1_555
Cu13 O15 1_555 1_555
Cu16 O21 1_555 1_555
C35 C36 1_555 1_555
C37 N3 1_555 1_555
Cu11 Cu16 1_555 1_555
Cu12 Cu13 1_555 1_555
O27 C2_2 1_555 1_555
O30 C2_2 1_555 1_555
C2_2 C3_2 1_555 1_555
C3_2 C5_2 1_555 1_555
C5_2 H3_2 1_555 1_555
C6_2 C3_2 1_555 1_555
H4_2 C6_2 1_555 1_555
C7_2 C6_2 1_555 1_555
C9_3 C11_2 1_555 1_555
C10_3 H6_3 1_555 1_555
C11_2 H7_2 1_555 1_555
C12_2 C10_3 1_555 1_555
O6_2 C13_2 1_555 1_555
C13_2 C12_2 1_555 1_555
N1_2 C7_2 1_555 1_555
O25 C14_2 1_555 1_555
C14_2 C17_2 1_555 1_555
C21_2 C17_2 1_555 1_555
H11_2 C21_2 1_555 1_555
O11_2 C14_2 1_555 1_555
Cu6 O11_2 1_555 1_555
C11_2 C12_2 1_555 1_555
C13_2 N1_2 1_555 1_555
C10_4 H6_4 1_555 1_555
O12_2 C27_2 1_555 1_555
C27_2 C30_2 1_555 1_555
C34_2 C30_2 1_555 1_555
H17_2 C34_2 1_555 1_555
O16_2 C27_2 1_555 1_555
C39_2 C40_2 1_555 1_555
C40_2 C42_2 1_555 1_555
C42_2 H20_2 1_555 1_555
C43_2 C40_2 1_555 1_555
H21_2 C43_2 1_555 1_555
C44_2 C43_2 1_555 1_555
C46_2 C9_4 1_555 1_555
H23_2 C46_2 1_555 1_555
C47_2 C10_4 1_555 1_555
O18_2 C48_2 1_555 1_555
C48_2 C47_2 1_555 1_555
N4_2 C44_2 1_555 1_555
O19_2 C39_2 1_555 1_555
O20_2 C39_2 1_555 1_555
Cu10 O12_2 1_555 1_555
Cu11 O19_2 1_555 1_555
Cu16 O20_2 1_555 1_555
Cu14 O16_2 1_555 1_555
C46_2 C47_2 1_555 1_555
C48_2 N4_2 1_555 1_555
Cu5 O1_2 1_555 1_555
O1_2 C1_2 1_555 1_555
O4_2 C1_2 1_555 1_555
C1_2 C4_2 1_555 1_555
O5_2 Cu5 1_555 1_555
H1_2 O5_2 1_555 1_555
H2_2 O5_2 1_555 1_555
C8_2 C4_2 1_555 1_555
H5_2 C8_2 1_555 1_555
C15_2 C16_2 1_555 1_555
C16_2 C18_2 1_555 1_555
C18_2 H9_2 1_555 1_555
C19_2 C16_2 1_555 1_555
H10_2 C19_2 1_555 1_555
C20_2 C19_2 1_555 1_555
C23_3 H12_3 1_555 1_555
C24_2 C22_3 1_555 1_555
H13_2 C24_2 1_555 1_555
C25_2 C23_3 1_555 1_555
O8_2 C26_2 1_555 1_555
C26_2 C25_2 1_555 1_555
N2_2 C20_2 1_555 1_555
O28 C15_2 1_555 1_555
O10_2 C15_2 1_555 1_555
O23_2 Cu7 1_555 1_555
H27_2 O23_2 1_555 1_555
H28_2 O23_2 1_555 1_555
Cu8 O10_2 1_555 1_555
O26_2 Cu7 1_555 1_555
O29_2 Cu7 1_555 1_555
O31_2 Cu5 1_555 1_555
O35_2 Cu5 1_555 1_555
O4_2 Cu7 1_555 1_555
C24_2 C25_2 1_555 1_555
C26_2 N2_2 1_555 1_555
C23_4 H12_4 1_555 1_555
C28_2 C29_2 1_555 1_555
C29_2 C31_2 1_555 1_555
C31_2 H15_2 1_555 1_555
C32_2 C29_2 1_555 1_555
H16_2 C32_2 1_555 1_555
C33_2 C32_2 1_555 1_555
C35_2 C22_4 1_555 1_555
H18_2 C35_2 1_555 1_555
C36_2 C23_4 1_555 1_555
O13_2 C37_2 1_555 1_555
C37_2 C36_2 1_555 1_555
N3_2 C33_2 1_555 1_555
O14_2 C28_2 1_555 1_555
O15_2 C28_2 1_555 1_555
O17_2 C38_2 1_555 1_555
C38_2 C41_2 1_555 1_555
C45_2 C41_2 1_555 1_555
H22_2 C45_2 1_555 1_555
O21_2 C38_2 1_555 1_555
Cu12 O17_2 1_555 1_555
Cu9 O14_2 1_555 1_555
Cu15 O15_2 1_555 1_555
Cu13 O21_2 1_555 1_555
C35_2 C36_2 1_555 1_555
C37_2 N3_2 1_555 1_555
O23_3 Cu8 1_555 1_555
H27_3 O23_3 1_555 1_555
H28_3 O23_3 1_555 1_555
O26_3 Cu8 1_555 1_555
O29_3 Cu8 1_555 1_555
O23_4 Cu6 1_555 1_555
H27_4 O23_4 1_555 1_555
H28_4 O23_4 1_555 1_555
O26_4 Cu6 1_555 1_555
O29_4 Cu6 1_555 1_555
O26_4 C1_3 1_555 1_555
O29 C2_3 1_555 1_555
O31 C2_3 1_555 1_555
O34 C1_3 1_555 1_555
C1_3 C4_3 1_555 1_555
C2_3 C3_3 1_555 1_555
C3_3 C5_3 1_555 1_555
C4_3 C5_3 1_555 1_555
C5_3 H3_3 1_555 1_555
C6_3 C3_3 1_555 1_555
H4_3 C6_3 1_555 1_555
C7_3 C6_3 1_555 1_555
C8_3 C4_3 1_555 1_555
H5_3 C8_3 1_555 1_555
C9_5 C11_3 1_555 1_555
C10_5 H6_5 1_555 1_555
C11_3 H7_3 1_555 1_555
C12_3 C10_5 1_555 1_555
O6_3 C13_3 1_555 1_555
C13_3 C12_3 1_555 1_555
N1_3 C7_3 1_555 1_555
H8_3 N1_3 1_555 1_555
O17_3 C38_3 1_555 1_555
C38_3 C41_3 1_555 1_555
C39_3 C40_3 1_555 1_555
C40_3 C42_3 1_555 1_555
C41_3 C42_3 1_555 1_555
C42_3 H20_3 1_555 1_555
C43_3 C40_3 1_555 1_555
H21_3 C43_3 1_555 1_555
C44_3 C43_3 1_555 1_555
C45_3 C41_3 1_555 1_555
H22_3 C45_3 1_555 1_555
C46_3 C9_5 1_555 1_555
H23_3 C46_3 1_555 1_555
C47_3 C10_5 1_555 1_555
O18_3 C48_3 1_555 1_555
C48_3 C47_3 1_555 1_555
N4_3 C44_3 1_555 1_555
H24_3 N4_3 1_555 1_555
O19_3 C39_3 1_555 1_555
O20_3 C39_3 1_555 1_555
O21_3 C38_3 1_555 1_555
Cu16 O19_3 1_555 1_555
Cu14 O17_3 1_555 1_555
Cu11 O20_3 1_555 1_555
Cu10 O21_3 1_555 1_555
C7_3 C8_3 1_555 1_555
C11_3 C12_3 1_555 1_555
C13_3 N1_3 1_555 1_555
C44_3 C45_3 1_555 1_555
C46_3 C47_3 1_555 1_555
C48_3 N4_3 1_555 1_555
O26_2 C14_3 1_555 1_555
C14_3 C17_3 1_555 1_555
C15_3 C16_3 1_555 1_555
C16_3 C18_3 1_555 1_555
C17_3 C18_3 1_555 1_555
C18_3 H9_3 1_555 1_555
C19_3 C16_3 1_555 1_555
H10_3 C19_3 1_555 1_555
C20_3 C19_3 1_555 1_555
C21_3 C17_3 1_555 1_555
H11_3 C21_3 1_555 1_555
C23_5 H12_5 1_555 1_555
C24_3 C22_5 1_555 1_555
H13_3 C24_3 1_555 1_555
C25_3 C23_5 1_555 1_555
O8_3 C26_3 1_555 1_555
C26_3 C25_3 1_555 1_555
N2_3 C20_3 1_555 1_555
H14_3 N2_3 1_555 1_555
O29_3 C15_3 1_555 1_555
O32 C15_3 1_555 1_555
O35_2 C14_3 1_555 1_555
O12_3 C27_3 1_555 1_555
C27_3 C30_3 1_555 1_555
C28_3 C29_3 1_555 1_555
C29_3 C31_3 1_555 1_555
C30_3 C31_3 1_555 1_555
C31_3 H15_3 1_555 1_555
C32_3 C29_3 1_555 1_555
H16_3 C32_3 1_555 1_555
C33_3 C32_3 1_555 1_555
C34_3 C30_3 1_555 1_555
H17_3 C34_3 1_555 1_555
C35_3 C22_5 1_555 1_555
H18_3 C35_3 1_555 1_555
C36_3 C23_5 1_555 1_555
O13_3 C37_3 1_555 1_555
C37_3 C36_3 1_555 1_555
N3_3 C33_3 1_555 1_555
H19_3 N3_3 1_555 1_555
O14_3 C28_3 1_555 1_555
O15_3 C28_3 1_555 1_555
O16_3 C27_3 1_555 1_555
Cu13 O12_3 1_555 1_555
Cu15 O14_3 1_555 1_555
Cu9 O15_3 1_555 1_555
Cu12 O16_3 1_555 1_555
C20_3 C21_3 1_555 1_555
C24_3 C25_3 1_555 1_555
C26_3 N2_3 1_555 1_555
C33_3 C34_3 1_555 1_555
C35_3 C36_3 1_555 1_555
C37_3 N3_3 1_555 1_555
O26_3 C14_4 1_555 1_555
C14_4 C17_4 1_555 1_555
C15_4 C16_4 1_555 1_555
C16_4 C18_4 1_555 1_555
C17_4 C18_4 1_555 1_555
C18_4 H9_4 1_555 1_555
C19_4 C16_4 1_555 1_555
H10_4 C19_4 1_555 1_555
C20_4 C19_4 1_555 1_555
C21_4 C17_4 1_555 1_555
H11_4 C21_4 1_555 1_555
C23_6 H12_6 1_555 1_555
C24_4 C22_6 1_555 1_555
H13_4 C24_4 1_555 1_555
C25_4 C23_6 1_555 1_555
O8_4 C26_4 1_555 1_555
C26_4 C25_4 1_555 1_555
N2_4 C20_4 1_555 1_555
H14_4 N2_4 1_555 1_555
O29_4 C15_4 1_555 1_555
O33 C15_4 1_555 1_555
O36 C14_4 1_555 1_555
O12_4 C27_4 1_555 1_555
C27_4 C30_4 1_555 1_555
C28_4 C29_4 1_555 1_555
C29_4 C31_4 1_555 1_555
C30_4 C31_4 1_555 1_555
C31_4 H15_4 1_555 1_555
C32_4 C29_4 1_555 1_555
H16_4 C32_4 1_555 1_555
C33_4 C32_4 1_555 1_555
C34_4 C30_4 1_555 1_555
H17_4 C34_4 1_555 1_555
C35_4 C22_6 1_555 1_555
H18_4 C35_4 1_555 1_555
C36_4 C23_6 1_555 1_555
O13_4 C37_4 1_555 1_555
C37_4 C36_4 1_555 1_555
N3_4 C33_4 1_555 1_555
H19_4 N3_4 1_555 1_555
O14_4 C28_4 1_555 1_555
O15_4 C28_4 1_555 1_555
O16_4 C27_4 1_555 1_555
Cu15 O12_4 1_555 1_555
Cu14 O14_4 1_555 1_555
Cu10 O15_4 1_555 1_555
Cu9 O16_4 1_555 1_555
C20_4 C21_4 1_555 1_555
C24_4 C25_4 1_555 1_555
C26_4 N2_4 1_555 1_555
C33_4 C34_4 1_555 1_555
C35_4 C36_4 1_555 1_555
C37_4 N3_4 1_555 1_555
O26 C1_4 1_555 1_555
O29_2 C2_4 1_555 1_555
O31_2 C2_4 1_555 1_555
O35 C1_4 1_555 1_555
C1_4 C4_4 1_555 1_555
C2_4 C3_4 1_555 1_555
C3_4 C5_4 1_555 1_555
C4_4 C5_4 1_555 1_555
C5_4 H3_4 1_555 1_555
C6_4 C3_4 1_555 1_555
H4_4 C6_4 1_555 1_555
C7_4 C6_4 1_555 1_555
C8_4 C4_4 1_555 1_555
H5_4 C8_4 1_555 1_555
C9_6 C11_4 1_555 1_555
C10_6 H6_6 1_555 1_555
C11_4 H7_4 1_555 1_555
C12_4 C10_6 1_555 1_555
O6_4 C13_4 1_555 1_555
C13_4 C12_4 1_555 1_555
N1_4 C7_4 1_555 1_555
H8_4 N1_4 1_555 1_555
O17_4 C38_4 1_555 1_555
C38_4 C41_4 1_555 1_555
C39_4 C40_4 1_555 1_555
C40_4 C42_4 1_555 1_555
C41_4 C42_4 1_555 1_555
C42_4 H20_4 1_555 1_555
C43_4 C40_4 1_555 1_555
H21_4 C43_4 1_555 1_555
C44_4 C43_4 1_555 1_555
C45_4 C41_4 1_555 1_555
H22_4 C45_4 1_555 1_555
C46_4 C9_6 1_555 1_555
H23_4 C46_4 1_555 1_555
C47_4 C10_6 1_555 1_555
O18_4 C48_4 1_555 1_555
C48_4 C47_4 1_555 1_555
N4_4 C44_4 1_555 1_555
H24_4 N4_4 1_555 1_555
O19_4 C39_4 1_555 1_555
O20_4 C39_4 1_555 1_555
O21_4 C38_4 1_555 1_555
Cu13 O19_4 1_555 1_555
Cu16 O17_4 1_555 1_555
Cu12 O20_4 1_555 1_555
Cu11 O21_4 1_555 1_555
C7_4 C8_4 1_555 1_555
C11_4 C12_4 1_555 1_555
C13_4 N1_4 1_555 1_555
C44_4 C45_4 1_555 1_555
C46_4 C47_4 1_555 1_555
C48_4 N4_4 1_555 1_555
O5_3 Cu9 1_555 1_555
H1_3 O5_3 1_555 1_555
H2_3 O5_3 1_555 1_555
O23_5 Cu15 1_555 1_555
H27_5 O23_5 1_555 1_555
H28_5 O23_5 1_555 1_555
O22_2 Cu11 1_555 1_555
H25_2 O22_2 1_555 1_555
H26_2 O22_2 1_555 1_555
O24_2 Cu12 1_555 1_555
H29_2 O24_2 1_555 1_555
H30_2 O24_2 1_555 1_555
O5_4 Cu10 1_555 1_555
H1_4 O5_4 1_555 1_555
H2_4 O5_4 1_555 1_555
O23_6 Cu14 1_555 1_555
H27_6 O23_6 1_555 1_555
H28_6 O23_6 1_555 1_555
O23_7 Cu16 1_555 1_555
H27_7 O23_7 1_555 1_555
H28_7 O23_7 1_555 1_555
O23_8 Cu13 1_555 1_555
H27_8 O23_8 1_555 1_555
H28_8 O23_8 1_555 1_555

#END
