
###############################################################################
#
# This file contains modified crystal structure data generated from the
# MOF subset of the Cambridge Structural Database (CSD) v543 
# hosted by the Cambridge Crystallographic Data Centre (CCDC).
#
# This work is licensed under the Creative Commons
# Attribution-NonCommercial-ShareAlike 4.0 International License.
# To view a copy of this license, visit
# http://creativecommons.org/licenses/by-nc-sa/4.0/
# or send a letter to
# Creative Commons, PO Box 1866, Mountain View, CA 94042, USA.
#
# CIF created using the CSD Python API on 29 September 2022
# The structure has been converted into the P1 space group
# The structure has a 3D framework
# The original CSD entry FAMSUH is in the triclinic crystal system
# The framework has been calculated to contain at least 10.0% void space
# The void calculation uses a probe of radius 1.32A, grid spacing 0.4
# H atom positions have been added when not included in the experimental data
# Generated hydrogen atom positions removed from atoms on special positions
#
###############################################################################

data_FAMSUH
_chemical_formula_moiety         '(C12 H24 O18 Zn10)n'
_symmetry_cell_setting           triclinic
_symmetry_space_group_name_H-M   'P 1'
_symmetry_Int_Tables_number      1
_space_group_name_Hall           'P 1'
loop_
_symmetry_equiv_pos_site_id
_symmetry_equiv_pos_as_xyz
1 x,y,z
_cell_length_a                   8.150(2)
_cell_length_b                   8.150(6)
_cell_length_c                   8.150(2)
_cell_angle_alpha                91.25(4)
_cell_angle_beta                 91.25(2)
_cell_angle_gamma                88.78(5)
_cell_volume                     540.968
loop_
_atom_site_label
_atom_site_type_symbol
_atom_site_fract_x
_atom_site_fract_y
_atom_site_fract_z
Zn3 Zn 0.0000 0.5000 0.0000
Zn3_2 Zn 0.0000 0.5000 1.0000
Zn4 Zn -0.0000 0.0000 0.5000
Zn4_2 Zn 0.0000 1.0000 0.5000
Zn7 Zn 0.5000 0.0000 0.0000
Zn7_2 Zn 0.5000 0.0000 1.0000
O3 O 0.2728(3) 0.0814(4) 0.0722(4)
C4 C 0.6185(5) 0.5436(5) 0.0077(5)
O5 O 0.7598(3) 0.5988(3) 0.0173(4)
Zn3_3 Zn 1.0000 0.5000 0.0000
C6 C 0.0061(5) 0.3813(5) 0.5430(5)
C10 C 0.4542(5) 0.6187(5) 0.0025(5)
O16 O 0.3963(4) 0.7631(3) 0.0094(4)
Zn7_3 Zn 0.5000 1.0000 0.0000
O21 O 0.0723(4) 0.7271(3) 0.0810(4)
O23 O 0.0164(4) 0.2391(3) 0.5982(4)
C12 C 0.0059(5) 0.5451(5) 0.6174(5)
O25 O 0.0089(4) 0.6041(4) 0.7636(3)
H12 H 0.0834537 0.728417 0.202592
O2 O 0.4015(4) 0.0172(4) 0.7598(3)
C1 C 0.4562(5) 0.0063(5) 0.6171(5)
C2 C 0.5458(5) 0.3813(5) 0.9975(5)
C3 C 0.3811(5) 0.0037(5) 0.4532(5)
O4 O 0.2373(3) 0.0094(4) 0.3960(4)
Zn3_4 Zn 1.0000 0.5000 1.0000
O11 O 0.6037(4) 0.2369(3) 0.9906(4)
C8 C 0.3815(5) 0.4564(5) 0.9923(5)
O14 O 0.2402(3) 0.4012(3) 0.9827(4)
Zn4_3 Zn 1.0000 0.0000 0.5000
Zn7_4 Zn 0.5000 1.0000 1.0000
H3 H 0.155379 0.0125179 0.775597
H5 H 0.0115861 0.224492 0.844685
H8 H 0.799455 0.0138992 0.915254
O12 O 0.5985(4) 0.9828(4) 0.2402(3)
O6 O 0.0813(4) 0.9283(4) 0.7273(3)
O10 O 0.7272(3) 0.9186(4) 0.9278(4)
C7 C 0.6189(5) 0.9963(5) 0.5468(5)
C9 C 0.5438(5) 0.9937(5) 0.3829(5)
O13 O 0.7627(3) 0.9906(4) 0.6040(4)
Zn4_4 Zn 1.0000 1.0000 0.5000
C5 C 0.9941(5) 0.4549(5) 0.3826(5)
O22 O 0.9911(4) 0.3959(4) 0.2364(3)
C11 C 0.9939(5) 0.6187(5) 0.4570(5)
O24 O 0.9836(4) 0.7609(3) 0.4018(4)
H6 H 0.915457 0.200726 0.0143794
H11 H 0.988959 0.810936 0.04683
O8 O 0.9277(4) 0.2729(3) 0.9190(4)
O17 O 0.9187(4) 0.0717(4) 0.2727(3)
H10 H 0.797086 0.0824417 0.271395
H4 H 0.985981 0.915852 0.799511
H9 H 0.953087 0.988335 0.18895
H4_2 H 0.0140191 0.0841483 0.200489
H9_2 H 0.0469128 0.0116646 0.81105
H10_2 H 0.202914 0.917558 0.728605
H6_2 H 0.084543 0.799274 0.985621
H11_2 H 0.0110415 0.189064 0.95317
H3_2 H 0.844621 0.987482 0.224403
H5_2 H 0.988414 0.775508 0.155315
H8_2 H 0.200545 0.986101 0.0847458
H12_2 H 0.916546 0.271583 0.797408
loop_
_geom_bond_atom_site_label_1
_geom_bond_atom_site_label_2
_geom_bond_site_symmetry_1
_geom_bond_site_symmetry_2
O3 Zn7 1_555 1_555
C4 O5 1_555 1_555
O5 Zn3_3 1_555 1_555
C6 O23 1_555 1_555
C10 C4 1_555 1_555
O16 C10 1_555 1_555
Zn7_3 O16 1_555 1_555
O21 Zn3 1_555 1_555
O23 Zn4 1_555 1_555
C12 C6 1_555 1_555
O25 C12 1_555 1_555
Zn3_2 O25 1_555 1_555
O21 H12 1_555 1_555
O2 Zn7_2 1_555 1_555
C1 O2 1_555 1_555
C3 C1 1_555 1_555
O4 C3 1_555 1_555
Zn4 O4 1_555 1_555
O11 Zn7_2 1_555 1_555
C8 C2 1_555 1_555
O14 C8 1_555 1_555
Zn3_2 O14 1_555 1_555
C2 O11 1_555 1_555
O12 Zn7_3 1_555 1_555
O6 Zn4_2 1_555 1_555
O10 Zn7_4 1_555 1_555
O13 C7 1_555 1_555
O12 C9 1_555 1_555
Zn4_4 O13 1_555 1_555
C7 C9 1_555 1_555
O22 C5 1_555 1_555
C11 C5 1_555 1_555
O24 C11 1_555 1_555
Zn4_4 O24 1_555 1_555
Zn3_3 O22 1_555 1_555
O8 Zn3_4 1_555 1_555
O17 Zn4_3 1_555 1_555
O17 H10 1_555 1_555
O6 H10_2 1_555 1_555
O8 H12_2 1_555 1_555

#END
