
###############################################################################
#
# This file contains modified crystal structure data generated from the
# MOF subset of the Cambridge Structural Database (CSD) v543 
# hosted by the Cambridge Crystallographic Data Centre (CCDC).
#
# This work is licensed under the Creative Commons
# Attribution-NonCommercial-ShareAlike 4.0 International License.
# To view a copy of this license, visit
# http://creativecommons.org/licenses/by-nc-sa/4.0/
# or send a letter to
# Creative Commons, PO Box 1866, Mountain View, CA 94042, USA.
#
# CIF created using the CSD Python API on 29 September 2022
# The structure has been converted into the P1 space group
# The structure has a 3D framework
# The original CSD entry FANNUG is in the monoclinic crystal system
# The framework has been calculated to contain at least 10.0% void space
# The void calculation uses a probe of radius 1.32A, grid spacing 0.4
# H atom positions have been added when not included in the experimental data
#
###############################################################################

data_FANNUG
_chemical_formula_moiety         '(C144 H80 Cd18 N80 O64)n'
_symmetry_cell_setting           triclinic
_symmetry_space_group_name_H-M   'P 1'
_symmetry_Int_Tables_number      1
_space_group_name_Hall           'P 1'
loop_
_symmetry_equiv_pos_site_id
_symmetry_equiv_pos_as_xyz
1 x,y,z
_cell_length_a                   22.552(5)
_cell_length_b                   22.119(4)
_cell_length_c                   19.125(4)
_cell_angle_alpha                90
_cell_angle_beta                 114.67(3)
_cell_angle_gamma                90
_cell_volume                     8669.33
loop_
_atom_site_label
_atom_site_type_symbol
_atom_site_fract_x
_atom_site_fract_y
_atom_site_fract_z
C2 C 0.3415(5) 0.5748(5) 0.1165(6)
O5 O 0.4198(4) 0.6509(4) 0.1288(4)
O6 O 0.4223(4) 0.6111(3) 0.2331(5)
C8 C 0.3969(6) 0.6121(5) 0.1637(7)
Cd1 Cd 0.18920(3) 0.38094(3) 0.22429(4)
Cd2 Cd -0.000000 0.18521(5) 0.250000
C9 C 0.2359(6) 0.4562(6) 0.1473(7)
N6 N 0.1032(4) 0.3164(4) 0.1811(5)
N7 N 0.0389(5) 0.2515(4) 0.1894(5)
O7 O 0.2638(4) 0.4548(4) 0.2222(5)
C10 C 0.2645(6) 0.4970(5) 0.1108(6)
C11 C 0.0205(5) 0.2631(6) 0.1131(6)
N8 N 0.0928(4) 0.2849(4) 0.2303(5)
O8 O 0.1875(4) 0.4247(4) 0.1104(5)
N9 N 0.0626(4) 0.3054(5) 0.1068(5)
C14 C 0.3163(5) 0.5324(5) 0.1502(6)
H4 H 0.336462 0.528160 0.203410
C16 C 0.3108(6) 0.5804(6) 0.0363(7)
H6 H 0.326130 0.608778 0.012019
C17 C 0.2319(5) 0.5024(6) 0.0306(7)
H7 H 0.194716 0.479813 0.002612
N22 N 0.1482(4) 0.4431(4) 0.2859(5)
O18 O 0.2682(4) 0.3063(4) 0.2389(5)
O20 O 0.2740(4) 0.3483(4) 0.3472(4)
O22 O 0.0802(4) 0.1509(4) 0.3712(4)
O24 O 0.0777(4) 0.1111(3) 0.2669(5)
Cd11 Cd 0.500000 0.68521(5) 0.250000
H17 H 0.0631213 0.323817 0.0584498
C1 C 0.1705(6) 0.5370(5) 0.8555(8)
N1 N 0.1482(4) 0.5569(4) 0.7859(5)
N2 N 0.0918(4) 0.5267(4) 0.7472(5)
N3 N 0.0810(4) 0.4919(4) 0.7944(6)
N4 N 0.1314(4) 0.4949(4) 0.8681(6)
N5 N 0.2308(6) 0.5548(6) 0.9143(6)
H1 H 0.254839 0.575742 0.898394
Cd3 Cd 0.000000 0.42498(5) 0.750000
C15 C 0.2583(6) 0.5447(6) 0.9927(6)
O9 O 0.0022(5) 0.3830(4) 0.6370(5)
O10 O 0.0706(4) 0.3503(4) 0.7467(5)
C21 C 0.0457(6) 0.3478(5) 0.6766(8)
O11 O 0.2318(4) 0.1937(4) 0.7611(5)
O12 O 0.2260(4) 0.1517(4) 0.6528(4)
C22 C 0.2038(5) 0.1872(5) 0.6886(7)
C23 C 0.1459(6) 0.2231(5) 0.6448(7)
C24 C 0.1255(6) 0.2648(5) 0.6807(6)
H10 H 0.146646 0.270677 0.733585
C25 C 0.0668(6) 0.3016(6) 0.6315(7)
C30 C 0.0572(6) 0.2455(6) 0.5214(6)
C31 C 0.0378(6) 0.2928(6) 0.5568(6)
H11 H 0.003983 0.318313 0.526687
N20 N 0.0275(5) 0.2344(6) 0.4421(6)
H13 H 0.043128 0.204113 0.427135
C36 C 0.1098(5) 0.2112(5) 0.5650(6)
H16 H 0.122384 0.179503 0.542228
Cd6 Cd 0.18920(3) 0.61906(3) 0.72429(4)
Cd7 Cd 0.31080(3) 0.11906(3) 0.77571(4)
H20 H 0.137391 0.472443 0.916884
Cd2_2 Cd 1.000000 0.18521(5) 0.250000
N10 N 0.9725(5) 0.2344(6) 0.0579(6)
H5 H 0.956872 0.204113 0.072865
O21 O 0.9198(4) 0.1509(4) 0.1288(4)
O23 O 0.9223(4) 0.1111(3) 0.2331(5)
N23 N 0.9611(5) 0.2515(4) 0.3106(5)
O1 O 0.9978(5) 0.3830(4) 0.8630(5)
O2 O 0.9294(4) 0.3503(4) 0.7533(5)
C3 C 0.9543(6) 0.3478(5) 0.8234(8)
O3 O 0.7682(4) 0.1937(4) 0.7389(5)
O4 O 0.7740(4) 0.1517(4) 0.8472(4)
C4 C 0.7962(5) 0.1872(5) 0.8114(7)
C5 C 0.8541(6) 0.2231(5) 0.8552(7)
C6 C 0.8745(6) 0.2648(5) 0.8193(6)
H2 H 0.853354 0.270677 0.766415
C7 C 0.9332(6) 0.3016(6) 0.8685(7)
Cd3_2 Cd 1.000000 0.42498(5) 0.750000
C12 C 0.9428(6) 0.2455(6) 0.9786(6)
C13 C 0.9622(6) 0.2928(6) 0.9432(6)
H3 H 0.996017 0.318313 0.973313
C18 C 0.8902(5) 0.2112(5) 0.9350(6)
H8 H 0.877616 0.179503 0.957772
C19 C 0.8295(6) 0.5370(5) 0.6445(8)
C20 C 0.6585(5) 0.5748(5) 0.3835(6)
N11 N 0.8518(4) 0.5569(4) 0.7141(5)
N12 N 0.9082(4) 0.5267(4) 0.7528(5)
N13 N 0.9190(4) 0.4919(4) 0.7056(6)
N14 N 0.8686(4) 0.4949(4) 0.6319(6)
N15 N 0.7692(6) 0.5548(6) 0.5857(6)
H9 H 0.745161 0.575742 0.601606
O13 O 0.5802(4) 0.6509(4) 0.3712(4)
O14 O 0.5777(4) 0.6111(3) 0.2669(5)
C26 C 0.6031(6) 0.6121(5) 0.3363(7)
Cd4 Cd 0.81080(3) 0.38094(3) 0.27571(4)
C27 C 0.7641(6) 0.4562(6) 0.3527(7)
N16 N 0.8968(4) 0.3164(4) 0.3189(5)
O15 O 0.7362(4) 0.4548(4) 0.2778(5)
C28 C 0.7355(6) 0.4970(5) 0.3892(6)
C29 C 0.9795(5) 0.2631(6) 0.3869(6)
N18 N 0.9072(4) 0.2849(4) 0.2697(5)
O16 O 0.8125(4) 0.4247(4) 0.3896(5)
N19 N 0.9374(4) 0.3054(5) 0.3932(5)
C32 C 0.6837(5) 0.5324(5) 0.3498(6)
H12 H 0.663538 0.528160 0.296590
C33 C 0.7417(6) 0.5447(6) 0.5073(6)
C34 C 0.6892(6) 0.5804(6) 0.4637(7)
H14 H 0.673870 0.608778 0.487981
C35 C 0.7681(5) 0.5024(6) 0.4694(7)
H15 H 0.805284 0.479813 0.497388
N21 N 0.8518(4) 0.4431(4) 0.2141(5)
O17 O 0.7318(4) 0.3063(4) 0.2611(5)
O19 O 0.7260(4) 0.3483(4) 0.1528(4)
Cd5 Cd 0.81080(3) 0.61906(3) 0.77571(4)
Cd8 Cd 0.68920(3) 0.11906(3) 0.72429(4)
H18 H 0.862609 0.472443 0.583116
H19 H 0.936879 0.323817 0.44155
C2_2 C 0.8415(5) 0.0748(5) 0.1165(6)
C8_2 C 0.8969(6) 0.1121(5) 0.1637(7)
C14_2 C 0.8163(5) 0.0324(5) 0.1502(6)
H4_2 H 0.836462 0.028160 0.203410
C16_2 C 0.8108(6) 0.0804(6) 0.0363(7)
H6_2 H 0.826130 0.108778 0.012019
C17_2 C 0.7319(5) 0.0024(6) 0.0306(7)
C1_2 C 0.6705(6) 0.0370(5) 0.8555(8)
N1_2 N 0.6482(4) 0.0569(4) 0.7859(5)
N2_2 N 0.5918(4) 0.0267(4) 0.7472(5)
N5_2 N 0.7308(6) 0.0548(6) 0.9143(6)
H1_2 H 0.754839 0.075742 0.898394
C15_2 C 0.7583(6) 0.0447(6) 0.9927(6)
C19_2 C 0.3295(6) 0.0370(5) 0.6445(8)
C20_2 C 0.1585(5) 0.0748(5) 0.3835(6)
N11_2 N 0.3518(4) 0.0569(4) 0.7141(5)
N12_2 N 0.4082(4) 0.0267(4) 0.7528(5)
N15_2 N 0.2692(6) 0.0548(6) 0.5857(6)
H9_2 H 0.245161 0.075742 0.601606
C26_2 C 0.1031(6) 0.1121(5) 0.3363(7)
C32_2 C 0.1837(5) 0.0324(5) 0.3498(6)
H12_2 H 0.163538 0.028160 0.296590
C33_2 C 0.2417(6) 0.0447(6) 0.5073(6)
C34_2 C 0.1892(6) 0.0804(6) 0.4637(7)
H14_2 H 0.173870 0.108778 0.487981
C35_2 C 0.2681(5) 0.0024(6) 0.4694(7)
Cd1_2 Cd 0.68920(3) 0.88094(3) 0.22429(4)
C9_2 C 0.7359(6) 0.9562(6) 0.1473(7)
N6_2 N 0.6032(4) 0.8164(4) 0.1811(5)
N7_2 N 0.5389(5) 0.7515(4) 0.1894(5)
O7_2 O 0.7638(4) 0.9548(4) 0.2222(5)
C10_2 C 0.7645(6) 0.9970(5) 0.1108(6)
C11_2 C 0.5205(5) 0.7631(6) 0.1131(6)
N8_2 N 0.5928(4) 0.7849(4) 0.2303(5)
O8_2 O 0.6875(4) 0.9247(4) 0.1104(5)
N9_2 N 0.5626(4) 0.8054(5) 0.1068(5)
N10_2 N 0.4725(5) 0.7344(6) 0.0579(6)
H5_2 H 0.456872 0.704113 0.072865
H7_2 H 0.694716 0.979813 0.002612
N22_2 N 0.6482(4) 0.9431(4) 0.2859(5)
O18_2 O 0.7682(4) 0.8063(4) 0.2389(5)
O20_2 O 0.7740(4) 0.8483(4) 0.3472(4)
N23_2 N 0.4611(5) 0.7515(4) 0.3106(5)
H17_2 H 0.563121 0.823817 0.0584498
N3_2 N 0.5810(4) 0.9919(4) 0.7944(6)
N4_2 N 0.6314(4) 0.9949(4) 0.8681(6)
O1_2 O 0.4978(5) 0.8830(4) 0.8630(5)
O2_2 O 0.4294(4) 0.8503(4) 0.7533(5)
C3_2 C 0.4543(6) 0.8478(5) 0.8234(8)
O3_2 O 0.2682(4) 0.6937(4) 0.7389(5)
O4_2 O 0.2740(4) 0.6517(4) 0.8472(4)
C4_2 C 0.2962(5) 0.6872(5) 0.8114(7)
C5_2 C 0.3541(6) 0.7231(5) 0.8552(7)
C6_2 C 0.3745(6) 0.7648(5) 0.8193(6)
H2_2 H 0.353354 0.770677 0.766415
C7_2 C 0.4332(6) 0.8016(6) 0.8685(7)
Cd3_3 Cd 0.500000 0.92498(5) 0.750000
C12_2 C 0.4428(6) 0.7455(6) 0.9786(6)
C13_2 C 0.4622(6) 0.7928(6) 0.9432(6)
H3_2 H 0.496017 0.818313 0.973313
C18_2 C 0.3902(5) 0.7112(5) 0.9350(6)
H8_2 H 0.377616 0.679503 0.957772
N13_2 N 0.4190(4) 0.9919(4) 0.7056(6)
N14_2 N 0.3686(4) 0.9949(4) 0.6319(6)
O9_2 O 0.5022(5) 0.8830(4) 0.6370(5)
O10_2 O 0.5706(4) 0.8503(4) 0.7467(5)
C21_2 C 0.5457(6) 0.8478(5) 0.6766(8)
O11_2 O 0.7318(4) 0.6937(4) 0.7611(5)
O12_2 O 0.7260(4) 0.6517(4) 0.6528(4)
C22_2 C 0.7038(5) 0.6872(5) 0.6886(7)
C23_2 C 0.6459(6) 0.7231(5) 0.6448(7)
C24_2 C 0.6255(6) 0.7648(5) 0.6807(6)
H10_2 H 0.646646 0.770677 0.733585
C25_2 C 0.5668(6) 0.8016(6) 0.6315(7)
Cd4_2 Cd 0.31080(3) 0.88094(3) 0.27571(4)
C27_2 C 0.2641(6) 0.9562(6) 0.3527(7)
N16_2 N 0.3968(4) 0.8164(4) 0.3189(5)
O15_2 O 0.2362(4) 0.9548(4) 0.2778(5)
C28_2 C 0.2355(6) 0.9970(5) 0.3892(6)
C29_2 C 0.4795(5) 0.7631(6) 0.3869(6)
N18_2 N 0.4072(4) 0.7849(4) 0.2697(5)
O16_2 O 0.3125(4) 0.9247(4) 0.3896(5)
N19_2 N 0.4374(4) 0.8054(5) 0.3932(5)
C30_2 C 0.5572(6) 0.7455(6) 0.5214(6)
C31_2 C 0.5378(6) 0.7928(6) 0.5568(6)
H11_2 H 0.503983 0.818313 0.526687
N20_2 N 0.5275(5) 0.7344(6) 0.4421(6)
H13_2 H 0.543128 0.704113 0.427135
H15_2 H 0.305284 0.979813 0.497388
C36_2 C 0.6098(5) 0.7112(5) 0.5650(6)
H16_2 H 0.622384 0.679503 0.542228
N21_2 N 0.3518(4) 0.9431(4) 0.2141(5)
O17_2 O 0.2318(4) 0.8063(4) 0.2611(5)
O19_2 O 0.2260(4) 0.8483(4) 0.1528(4)
H18_2 H 0.362609 0.972443 0.583116
H19_2 H 0.436879 0.823817 0.44155
H20_2 H 0.637391 0.972443 0.916884
O1_3 O 0.0022(5) 0.6170(4) 0.1370(5)
O2_3 O 0.0706(4) 0.6497(4) 0.2467(5)
C3_3 C 0.0457(6) 0.6522(5) 0.1766(8)
C4_3 C 0.2038(5) 0.8128(5) 0.1886(7)
C5_3 C 0.1459(6) 0.7769(5) 0.1448(7)
C6_3 C 0.1255(6) 0.7352(5) 0.1807(6)
H2_3 H 0.146646 0.729323 0.233585
C7_3 C 0.0668(6) 0.6984(6) 0.1315(7)
Cd3_4 Cd -0.000000 0.57502(5) 0.250000
C12_3 C 0.0572(6) 0.7545(6) 0.0214(6)
C13_3 C 0.0378(6) 0.7072(6) 0.0568(6)
H3_3 H 0.003983 0.681687 0.026687
C18_3 C 0.1098(5) 0.7888(5) 0.0650(6)
H8_3 H 0.122384 0.820497 0.042228
C19_3 C 0.1705(6) 0.4630(5) 0.3555(8)
C20_3 C 0.3415(5) 0.4252(5) 0.6165(6)
N12_3 N 0.0918(4) 0.4733(4) 0.2472(5)
N13_3 N 0.0810(4) 0.5081(4) 0.2944(6)
N14_3 N 0.1314(4) 0.5051(4) 0.3681(6)
N15_3 N 0.2308(6) 0.4452(6) 0.4143(6)
H9_3 H 0.254839 0.424258 0.398394
O13_2 O 0.4198(4) 0.3491(4) 0.6288(4)
O14_2 O 0.4223(4) 0.3889(3) 0.7331(5)
C26_3 C 0.3969(6) 0.3879(5) 0.6637(7)
C27_3 C 0.2359(6) 0.5438(6) 0.6473(7)
N16_3 N 0.1032(4) 0.6836(4) 0.6811(5)
N17 N 0.0389(5) 0.7485(4) 0.6894(5)
O15_3 O 0.2638(4) 0.5452(4) 0.7222(5)
C28_3 C 0.2645(6) 0.5030(5) 0.6108(6)
C29_3 C 0.0205(5) 0.7369(6) 0.6131(6)
N18_3 N 0.0928(4) 0.7151(4) 0.7303(5)
O16_3 O 0.1875(4) 0.5753(4) 0.6104(5)
N19_3 N 0.0626(4) 0.6946(5) 0.6068(5)
C32_3 C 0.3163(5) 0.4676(5) 0.6502(6)
H12_3 H 0.336462 0.471840 0.703410
C33_3 C 0.2583(6) 0.4553(6) 0.4927(6)
C34_3 C 0.3108(6) 0.4196(6) 0.5363(7)
H14_3 H 0.326130 0.391222 0.512019
C35_3 C 0.2319(5) 0.4976(6) 0.5306(7)
H15_3 H 0.194716 0.520187 0.502612
Cd9 Cd 0.000000 0.81479(5) 0.750000
Cd10 Cd 0.500000 0.31479(5) 0.750000
H18_3 H 0.137391 0.527557 0.416884
H19_3 H 0.0631213 0.676183 0.55845
N10_3 N 0.0275(5) 0.7656(6) 0.9421(6)
H5_3 H 0.043128 0.795887 0.927135
O21_2 O 0.0802(4) 0.8491(4) 0.8712(4)
O23_2 O 0.0777(4) 0.8889(3) 0.7669(5)
C1_3 C 0.8295(6) 0.4630(5) 0.1445(8)
N2_3 N 0.9082(4) 0.4733(4) 0.2528(5)
N3_3 N 0.9190(4) 0.5081(4) 0.2056(6)
N4_3 N 0.8686(4) 0.5051(4) 0.1319(6)
N5_3 N 0.7692(6) 0.4452(6) 0.0857(6)
H1_3 H 0.745161 0.424258 0.101606
Cd3_5 Cd 1.000000 0.57502(5) 0.250000
C15_3 C 0.7417(6) 0.4553(6) 0.0073(6)
O9_3 O 0.9978(5) 0.6170(4) 0.3630(5)
O10_3 O 0.9294(4) 0.6497(4) 0.2533(5)
C21_3 C 0.9543(6) 0.6522(5) 0.3234(8)
C22_3 C 0.7962(5) 0.8128(5) 0.3114(7)
C23_3 C 0.8541(6) 0.7769(5) 0.3552(7)
C24_3 C 0.8745(6) 0.7352(5) 0.3193(6)
H10_3 H 0.853354 0.729323 0.266415
C25_3 C 0.9332(6) 0.6984(6) 0.3685(7)
C30_3 C 0.9428(6) 0.7545(6) 0.4786(6)
C31_3 C 0.9622(6) 0.7072(6) 0.4432(6)
H11_3 H 0.996017 0.681687 0.473313
N20_3 N 0.9725(5) 0.7656(6) 0.5579(6)
H13_3 H 0.956872 0.795887 0.572865
C36_3 C 0.8902(5) 0.7888(5) 0.4350(6)
H16_3 H 0.877616 0.820497 0.457772
Cd9_2 Cd 1.000000 0.81479(5) 0.750000
H20_3 H 0.862609 0.527557 0.0831164
C2_3 C 0.6585(5) 0.4252(5) 0.8835(6)
O5_2 O 0.5802(4) 0.3491(4) 0.8712(4)
O6_2 O 0.5777(4) 0.3889(3) 0.7669(5)
C8_3 C 0.6031(6) 0.3879(5) 0.8363(7)
C9_3 C 0.7641(6) 0.5438(6) 0.8527(7)
N6_3 N 0.8968(4) 0.6836(4) 0.8189(5)
N7_3 N 0.9611(5) 0.7485(4) 0.8106(5)
O7_3 O 0.7362(4) 0.5452(4) 0.7778(5)
C10_3 C 0.7355(6) 0.5030(5) 0.8892(6)
C11_3 C 0.9795(5) 0.7369(6) 0.8869(6)
N8_3 N 0.9072(4) 0.7151(4) 0.7697(5)
O8_3 O 0.8125(4) 0.5753(4) 0.8896(5)
N9_3 N 0.9374(4) 0.6946(5) 0.8932(5)
C14_3 C 0.6837(5) 0.4676(5) 0.8498(6)
H4_3 H 0.663538 0.471840 0.796590
C16_3 C 0.6892(6) 0.4196(6) 0.9637(7)
H6_3 H 0.673870 0.391222 0.987981
C17_3 C 0.7681(5) 0.4976(6) 0.9694(7)
H7_3 H 0.805284 0.520187 0.997388
O22_2 O 0.9198(4) 0.8491(4) 0.6288(4)
O24_2 O 0.9223(4) 0.8889(3) 0.7331(5)
H17_3 H 0.936879 0.676183 0.94155
N3_4 N 0.4190(4) 0.0081(4) 0.2056(6)
N4_4 N 0.3686(4) 0.0051(4) 0.1319(6)
O1_4 O 0.5022(5) 0.1170(4) 0.1370(5)
O2_4 O 0.5706(4) 0.1497(4) 0.2467(5)
C3_4 C 0.5457(6) 0.1522(5) 0.1766(8)
C4_4 C 0.7038(5) 0.3128(5) 0.1886(7)
C5_4 C 0.6459(6) 0.2769(5) 0.1448(7)
C6_4 C 0.6255(6) 0.2352(5) 0.1807(6)
H2_4 H 0.646646 0.229323 0.233585
C7_4 C 0.5668(6) 0.1984(6) 0.1315(7)
Cd3_6 Cd 0.500000 0.07502(5) 0.250000
C12_4 C 0.5572(6) 0.2545(6) 0.0214(6)
C13_4 C 0.5378(6) 0.2072(6) 0.0568(6)
H3_4 H 0.503983 0.181687 0.026687
C18_4 C 0.6098(5) 0.2888(5) 0.0650(6)
H8_4 H 0.622384 0.320497 0.042228
N13_4 N 0.5810(4) 0.0081(4) 0.2944(6)
N14_4 N 0.6314(4) 0.0051(4) 0.3681(6)
O9_4 O 0.4978(5) 0.1170(4) 0.3630(5)
O10_4 O 0.4294(4) 0.1497(4) 0.2533(5)
C21_4 C 0.4543(6) 0.1522(5) 0.3234(8)
C22_4 C 0.2962(5) 0.3128(5) 0.3114(7)
C23_4 C 0.3541(6) 0.2769(5) 0.3552(7)
C24_4 C 0.3745(6) 0.2352(5) 0.3193(6)
H10_4 H 0.353354 0.229323 0.266415
C25_4 C 0.4332(6) 0.1984(6) 0.3685(7)
C27_4 C 0.7359(6) 0.0438(6) 0.6473(7)
N16_4 N 0.6032(4) 0.1836(4) 0.6811(5)
N17_2 N 0.5389(5) 0.2485(4) 0.6894(5)
O15_4 O 0.7638(4) 0.0452(4) 0.7222(5)
C28_4 C 0.7645(6) 0.0030(5) 0.6108(6)
C29_4 C 0.5205(5) 0.2369(6) 0.6131(6)
N18_4 N 0.5928(4) 0.2151(4) 0.7303(5)
O16_4 O 0.6875(4) 0.0753(4) 0.6104(5)
N19_4 N 0.5626(4) 0.1946(5) 0.6068(5)
C30_4 C 0.4428(6) 0.2545(6) 0.4786(6)
C31_4 C 0.4622(6) 0.2072(6) 0.4432(6)
H11_4 H 0.496017 0.181687 0.473313
N20_4 N 0.4725(5) 0.2656(6) 0.5579(6)
H13_4 H 0.456872 0.295887 0.572865
H15_4 H 0.694716 0.020187 0.502612
C36_4 C 0.3902(5) 0.2888(5) 0.4350(6)
H16_4 H 0.377616 0.320497 0.457772
H18_4 H 0.637391 0.0275568 0.416884
H19_4 H 0.563121 0.176183 0.55845
H20_4 H 0.362609 0.0275568 0.0831164
C9_4 C 0.2641(6) 0.0438(6) 0.8527(7)
N6_4 N 0.3968(4) 0.1836(4) 0.8189(5)
N7_4 N 0.4611(5) 0.2485(4) 0.8106(5)
O7_4 O 0.2362(4) 0.0452(4) 0.7778(5)
C10_4 C 0.2355(6) 0.0030(5) 0.8892(6)
C11_4 C 0.4795(5) 0.2369(6) 0.8869(6)
N8_4 N 0.4072(4) 0.2151(4) 0.7697(5)
O8_4 O 0.3125(4) 0.0753(4) 0.8896(5)
N9_4 N 0.4374(4) 0.1946(5) 0.8932(5)
N10_4 N 0.5275(5) 0.2656(6) 0.9421(6)
H5_4 H 0.543128 0.295887 0.927135
H7_4 H 0.305284 0.020187 0.997388
H17_4 H 0.436879 0.176183 0.94155
C1_4 C 0.3295(6) 0.9630(5) 0.1445(8)
N2_4 N 0.4082(4) 0.9733(4) 0.2528(5)
N5_4 N 0.2692(6) 0.9452(6) 0.0857(6)
H1_4 H 0.245161 0.924258 0.101606
C15_4 C 0.2417(6) 0.9553(6) 0.0073(6)
C19_4 C 0.6705(6) 0.9630(5) 0.3555(8)
C20_4 C 0.8415(5) 0.9252(5) 0.6165(6)
N12_4 N 0.5918(4) 0.9733(4) 0.2472(5)
N15_4 N 0.7308(6) 0.9452(6) 0.4143(6)
H9_4 H 0.754839 0.924258 0.398394
C26_4 C 0.8969(6) 0.8879(5) 0.6637(7)
C32_4 C 0.8163(5) 0.9676(5) 0.6502(6)
H12_4 H 0.836462 0.971840 0.703410
C33_4 C 0.7583(6) 0.9553(6) 0.4927(6)
C34_4 C 0.8108(6) 0.9196(6) 0.5363(7)
H14_4 H 0.826130 0.891222 0.512019
C35_4 C 0.7319(5) 0.9976(6) 0.5306(7)
C2_4 C 0.1585(5) 0.9252(5) 0.8835(6)
C8_4 C 0.1031(6) 0.8879(5) 0.8363(7)
C14_4 C 0.1837(5) 0.9676(5) 0.8498(6)
H4_4 H 0.163538 0.971840 0.796590
C16_4 C 0.1892(6) 0.9196(6) 0.9637(7)
H6_4 H 0.173870 0.891222 0.987981
C17_4 C 0.2681(5) 0.9976(6) 0.9694(7)
loop_
_geom_bond_atom_site_label_1
_geom_bond_atom_site_label_2
_geom_bond_site_symmetry_1
_geom_bond_site_symmetry_2
C2 C8 1_555 1_555
O5 C8 1_555 1_555
O6 C8 1_555 1_555
Cd1 N6 1_555 1_555
Cd2 N7 1_555 1_555
C9 O7 1_555 1_555
N6 N8 1_555 1_555
N7 C11 1_555 1_555
O7 Cd1 1_555 1_555
C10 C9 1_555 1_555
C11 N9 1_555 1_555
N8 N7 1_555 1_555
O8 Cd1 1_555 1_555
N9 N6 1_555 1_555
C14 C2 1_555 1_555
H4 C14 1_555 1_555
C16 C2 1_555 1_555
H6 C16 1_555 1_555
C17 C10 1_555 1_555
H7 C17 1_555 1_555
N22 Cd1 1_555 1_555
O18 Cd1 1_555 1_555
O20 Cd1 1_555 1_555
O22 Cd2 1_555 1_555
O24 Cd2 1_555 1_555
Cd11 O5 1_555 1_555
O6 Cd11 1_555 1_555
C9 O8 1_555 1_555
C10 C14 1_555 1_555
N9 H17 1_555 1_555
C1 N1 1_555 1_555
N1 N2 1_555 1_555
N2 N3 1_555 1_555
N3 N4 1_555 1_555
N4 C1 1_555 1_555
N5 C1 1_555 1_555
H1 N5 1_555 1_555
Cd3 N3 1_555 1_555
C15 N5 1_555 1_555
O9 Cd3 1_555 1_555
O10 Cd3 1_555 1_555
C21 O9 1_555 1_555
O11 C22 1_555 1_555
O12 C22 1_555 1_555
C22 C23 1_555 1_555
C23 C24 1_555 1_555
C24 H10 1_555 1_555
C25 C21 1_555 1_555
C30 C31 1_555 1_555
C31 C25 1_555 1_555
H11 C31 1_555 1_555
H13 N20 1_555 1_555
C36 C23 1_555 1_555
H16 C36 1_555 1_555
Cd6 N1 1_555 1_555
Cd7 O11 1_555 1_555
O10 C21 1_555 1_555
O12 Cd7 1_555 1_555
C24 C25 1_555 1_555
C30 N20 1_555 1_555
C30 C36 1_555 1_555
N4 H20 1_555 1_555
H5 N10 1_555 1_555
O21 Cd2_2 1_555 1_555
O23 Cd2_2 1_555 1_555
N23 Cd2_2 1_555 1_555
O1 C3 1_555 1_555
O2 C3 1_555 1_555
C3 C7 1_555 1_555
O3 C4 1_555 1_555
O4 C4 1_555 1_555
C4 C5 1_555 1_555
C5 C6 1_555 1_555
C6 H2 1_555 1_555
C7 C6 1_555 1_555
C12 C13 1_555 1_555
C13 C7 1_555 1_555
H3 C13 1_555 1_555
C18 C5 1_555 1_555
H8 C18 1_555 1_555
C19 N11 1_555 1_555
C20 C26 1_555 1_555
N11 N12 1_555 1_555
N12 N13 1_555 1_555
N13 Cd3_2 1_555 1_555
N14 C19 1_555 1_555
N15 C19 1_555 1_555
H9 N15 1_555 1_555
O13 C26 1_555 1_555
O14 C26 1_555 1_555
Cd4 N16 1_555 1_555
C27 O15 1_555 1_555
N16 N18 1_555 1_555
N23 C29 1_555 1_555
O15 Cd4 1_555 1_555
C28 C27 1_555 1_555
C29 N19 1_555 1_555
N18 N23 1_555 1_555
O16 Cd4 1_555 1_555
N19 N16 1_555 1_555
C32 C20 1_555 1_555
H12 C32 1_555 1_555
C33 N15 1_555 1_555
C34 C20 1_555 1_555
H14 C34 1_555 1_555
C35 C28 1_555 1_555
H15 C35 1_555 1_555
N21 Cd4 1_555 1_555
O17 Cd4 1_555 1_555
O19 Cd4 1_555 1_555
Cd5 N11 1_555 1_555
Cd8 O3 1_555 1_555
Cd11 O13 1_555 1_555
O1 Cd3_2 1_555 1_555
O2 Cd3_2 1_555 1_555
O4 Cd8 1_555 1_555
C12 C18 1_555 1_555
N13 N14 1_555 1_555
O14 Cd11 1_555 1_555
C27 O16 1_555 1_555
C28 C32 1_555 1_555
C33 C34 1_555 1_555
C33 C35 1_555 1_555
N14 H18 1_555 1_555
N19 H19 1_555 1_555
C2_2 C8_2 1_555 1_555
O21 C8_2 1_555 1_555
O23 C8_2 1_555 1_555
C14_2 C2_2 1_555 1_555
H4_2 C14_2 1_555 1_555
C16_2 C2_2 1_555 1_555
H6_2 C16_2 1_555 1_555
C1_2 N1_2 1_555 1_555
N1_2 N2_2 1_555 1_555
N5_2 C1_2 1_555 1_555
H1_2 N5_2 1_555 1_555
C15_2 N5_2 1_555 1_555
C19_2 N11_2 1_555 1_555
C20_2 C26_2 1_555 1_555
N11_2 N12_2 1_555 1_555
N15_2 C19_2 1_555 1_555
H9_2 N15_2 1_555 1_555
O22 C26_2 1_555 1_555
O24 C26_2 1_555 1_555
C32_2 C20_2 1_555 1_555
H12_2 C32_2 1_555 1_555
C33_2 N15_2 1_555 1_555
C34_2 C20_2 1_555 1_555
H14_2 C34_2 1_555 1_555
Cd7 N11_2 1_555 1_555
Cd8 N1_2 1_555 1_555
C33_2 C34_2 1_555 1_555
C33_2 C35_2 1_555 1_555
Cd1_2 N6_2 1_555 1_555
Cd11 N7_2 1_555 1_555
C9_2 O7_2 1_555 1_555
N6_2 N8_2 1_555 1_555
N7_2 C11_2 1_555 1_555
O7_2 Cd1_2 1_555 1_555
C10_2 C9_2 1_555 1_555
C11_2 N9_2 1_555 1_555
N8_2 N7_2 1_555 1_555
O8_2 Cd1_2 1_555 1_555
N9_2 N6_2 1_555 1_555
N10_2 C11_2 1_555 1_555
H5_2 N10_2 1_555 1_555
N22_2 Cd1_2 1_555 1_555
O18_2 Cd1_2 1_555 1_555
O20_2 Cd1_2 1_555 1_555
N23_2 Cd11 1_555 1_555
C9_2 O8_2 1_555 1_555
N9_2 H17_2 1_555 1_555
N3_2 N4_2 1_555 1_555
O1_2 C3_2 1_555 1_555
O2_2 C3_2 1_555 1_555
C3_2 C7_2 1_555 1_555
O3_2 C4_2 1_555 1_555
O4_2 C4_2 1_555 1_555
C4_2 C5_2 1_555 1_555
C5_2 C6_2 1_555 1_555
C6_2 H2_2 1_555 1_555
C7_2 C6_2 1_555 1_555
Cd3_3 N3_2 1_555 1_555
C12_2 C13_2 1_555 1_555
C13_2 C7_2 1_555 1_555
H3_2 C13_2 1_555 1_555
C18_2 C5_2 1_555 1_555
H8_2 C18_2 1_555 1_555
N13_2 Cd3_3 1_555 1_555
O9_2 Cd3_3 1_555 1_555
O10_2 Cd3_3 1_555 1_555
C21_2 O9_2 1_555 1_555
O11_2 C22_2 1_555 1_555
O12_2 C22_2 1_555 1_555
C22_2 C23_2 1_555 1_555
C23_2 C24_2 1_555 1_555
C24_2 H10_2 1_555 1_555
C25_2 C21_2 1_555 1_555
Cd4_2 N16_2 1_555 1_555
C27_2 O15_2 1_555 1_555
N16_2 N18_2 1_555 1_555
N23_2 C29_2 1_555 1_555
O15_2 Cd4_2 1_555 1_555
C28_2 C27_2 1_555 1_555
C29_2 N19_2 1_555 1_555
N18_2 N23_2 1_555 1_555
O16_2 Cd4_2 1_555 1_555
N19_2 N16_2 1_555 1_555
C30_2 C31_2 1_555 1_555
C31_2 C25_2 1_555 1_555
H11_2 C31_2 1_555 1_555
N20_2 C29_2 1_555 1_555
H13_2 N20_2 1_555 1_555
C36_2 C23_2 1_555 1_555
H16_2 C36_2 1_555 1_555
N21_2 Cd4_2 1_555 1_555
O17_2 Cd4_2 1_555 1_555
O19_2 Cd4_2 1_555 1_555
Cd5 O11_2 1_555 1_555
Cd6 O3_2 1_555 1_555
O1_2 Cd3_3 1_555 1_555
O2_2 Cd3_3 1_555 1_555
O4_2 Cd6 1_555 1_555
C12_2 C18_2 1_555 1_555
N13_2 N14_2 1_555 1_555
O10_2 C21_2 1_555 1_555
O12_2 Cd5 1_555 1_555
C24_2 C25_2 1_555 1_555
C27_2 O16_2 1_555 1_555
C30_2 N20_2 1_555 1_555
C30_2 C36_2 1_555 1_555
N14_2 H18_2 1_555 1_555
N19_2 H19_2 1_555 1_555
N4_2 H20_2 1_555 1_555
O1_3 C3_3 1_555 1_555
O2_3 C3_3 1_555 1_555
C3_3 C7_3 1_555 1_555
O17_2 C4_3 1_555 1_555
O19_2 C4_3 1_555 1_555
C4_3 C5_3 1_555 1_555
C5_3 C6_3 1_555 1_555
C6_3 H2_3 1_555 1_555
C7_3 C6_3 1_555 1_555
C12_3 C13_3 1_555 1_555
C13_3 C7_3 1_555 1_555
H3_3 C13_3 1_555 1_555
C18_3 C5_3 1_555 1_555
H8_3 C18_3 1_555 1_555
C19_3 N22 1_555 1_555
C20_3 C26_3 1_555 1_555
N22 N12_3 1_555 1_555
N12_3 N13_3 1_555 1_555
N13_3 Cd3_4 1_555 1_555
N14_3 C19_3 1_555 1_555
N15_3 C19_3 1_555 1_555
H9_3 N15_3 1_555 1_555
O13_2 C26_3 1_555 1_555
O14_2 C26_3 1_555 1_555
Cd6 N16_3 1_555 1_555
C27_3 O15_3 1_555 1_555
N16_3 N18_3 1_555 1_555
N17 C29_3 1_555 1_555
O15_3 Cd6 1_555 1_555
C28_3 C27_3 1_555 1_555
C29_3 N19_3 1_555 1_555
N18_3 N17 1_555 1_555
O16_3 Cd6 1_555 1_555
N19_3 N16_3 1_555 1_555
C32_3 C20_3 1_555 1_555
H12_3 C32_3 1_555 1_555
C33_3 N15_3 1_555 1_555
C34_3 C20_3 1_555 1_555
H14_3 C34_3 1_555 1_555
C35_3 C28_3 1_555 1_555
H15_3 C35_3 1_555 1_555
Cd9 N17 1_555 1_555
Cd10 O13_2 1_555 1_555
O1_3 Cd3_4 1_555 1_555
O2_3 Cd3_4 1_555 1_555
C12_3 C18_3 1_555 1_555
N13_3 N14_3 1_555 1_555
O14_2 Cd10 1_555 1_555
C27_3 O16_3 1_555 1_555
C28_3 C32_3 1_555 1_555
C33_3 C34_3 1_555 1_555
C33_3 C35_3 1_555 1_555
N14_3 H18_3 1_555 1_555
N19_3 H19_3 1_555 1_555
H5_3 N10_3 1_555 1_555
O21_2 Cd9 1_555 1_555
O23_2 Cd9 1_555 1_555
C1_3 N21 1_555 1_555
N21 N2_3 1_555 1_555
N2_3 N3_3 1_555 1_555
N3_3 N4_3 1_555 1_555
N4_3 C1_3 1_555 1_555
N5_3 C1_3 1_555 1_555
H1_3 N5_3 1_555 1_555
Cd3_5 N3_3 1_555 1_555
C15_3 N5_3 1_555 1_555
O9_3 Cd3_5 1_555 1_555
O10_3 Cd3_5 1_555 1_555
C21_3 O9_3 1_555 1_555
O18_2 C22_3 1_555 1_555
O20_2 C22_3 1_555 1_555
C22_3 C23_3 1_555 1_555
C23_3 C24_3 1_555 1_555
C24_3 H10_3 1_555 1_555
C25_3 C21_3 1_555 1_555
C30_3 C31_3 1_555 1_555
C31_3 C25_3 1_555 1_555
H11_3 C31_3 1_555 1_555
H13_3 N20_3 1_555 1_555
C36_3 C23_3 1_555 1_555
H16_3 C36_3 1_555 1_555
O10_3 C21_3 1_555 1_555
C24_3 C25_3 1_555 1_555
C30_3 N20_3 1_555 1_555
C30_3 C36_3 1_555 1_555
N4_3 H20_3 1_555 1_555
C2_3 C8_3 1_555 1_555
O5_2 C8_3 1_555 1_555
O6_2 C8_3 1_555 1_555
Cd5 N6_3 1_555 1_555
Cd9_2 N7_3 1_555 1_555
C9_3 O7_3 1_555 1_555
N6_3 N8_3 1_555 1_555
N7_3 C11_3 1_555 1_555
O7_3 Cd5 1_555 1_555
C10_3 C9_3 1_555 1_555
C11_3 N9_3 1_555 1_555
N8_3 N7_3 1_555 1_555
O8_3 Cd5 1_555 1_555
N9_3 N6_3 1_555 1_555
C14_3 C2_3 1_555 1_555
H4_3 C14_3 1_555 1_555
C16_3 C2_3 1_555 1_555
H6_3 C16_3 1_555 1_555
C17_3 C10_3 1_555 1_555
H7_3 C17_3 1_555 1_555
O22_2 Cd9_2 1_555 1_555
O24_2 Cd9_2 1_555 1_555
Cd10 O5_2 1_555 1_555
O6_2 Cd10 1_555 1_555
C9_3 O8_3 1_555 1_555
C10_3 C14_3 1_555 1_555
N9_3 H17_3 1_555 1_555
N3_4 N4_4 1_555 1_555
O1_4 C3_4 1_555 1_555
O2_4 C3_4 1_555 1_555
C3_4 C7_4 1_555 1_555
O17 C4_4 1_555 1_555
O19 C4_4 1_555 1_555
C4_4 C5_4 1_555 1_555
C5_4 C6_4 1_555 1_555
C6_4 H2_4 1_555 1_555
C7_4 C6_4 1_555 1_555
Cd3_6 N3_4 1_555 1_555
C12_4 C13_4 1_555 1_555
C13_4 C7_4 1_555 1_555
H3_4 C13_4 1_555 1_555
C18_4 C5_4 1_555 1_555
H8_4 C18_4 1_555 1_555
N13_4 Cd3_6 1_555 1_555
O9_4 Cd3_6 1_555 1_555
O10_4 Cd3_6 1_555 1_555
C21_4 O9_4 1_555 1_555
O18 C22_4 1_555 1_555
O20 C22_4 1_555 1_555
C22_4 C23_4 1_555 1_555
C23_4 C24_4 1_555 1_555
C24_4 H10_4 1_555 1_555
C25_4 C21_4 1_555 1_555
Cd8 N16_4 1_555 1_555
C27_4 O15_4 1_555 1_555
N16_4 N18_4 1_555 1_555
N17_2 C29_4 1_555 1_555
O15_4 Cd8 1_555 1_555
C28_4 C27_4 1_555 1_555
C29_4 N19_4 1_555 1_555
N18_4 N17_2 1_555 1_555
O16_4 Cd8 1_555 1_555
N19_4 N16_4 1_555 1_555
C30_4 C31_4 1_555 1_555
C31_4 C25_4 1_555 1_555
H11_4 C31_4 1_555 1_555
N20_4 C29_4 1_555 1_555
H13_4 N20_4 1_555 1_555
C36_4 C23_4 1_555 1_555
H16_4 C36_4 1_555 1_555
Cd10 N17_2 1_555 1_555
O1_4 Cd3_6 1_555 1_555
O2_4 Cd3_6 1_555 1_555
C12_4 C18_4 1_555 1_555
N13_4 N14_4 1_555 1_555
O10_4 C21_4 1_555 1_555
C24_4 C25_4 1_555 1_555
C27_4 O16_4 1_555 1_555
C30_4 N20_4 1_555 1_555
C30_4 C36_4 1_555 1_555
N14_4 H18_4 1_555 1_555
N19_4 H19_4 1_555 1_555
N4_4 H20_4 1_555 1_555
Cd7 N6_4 1_555 1_555
Cd10 N7_4 1_555 1_555
C9_4 O7_4 1_555 1_555
N6_4 N8_4 1_555 1_555
N7_4 C11_4 1_555 1_555
O7_4 Cd7 1_555 1_555
C10_4 C9_4 1_555 1_555
C11_4 N9_4 1_555 1_555
N8_4 N7_4 1_555 1_555
O8_4 Cd7 1_555 1_555
N9_4 N6_4 1_555 1_555
N10_4 C11_4 1_555 1_555
H5_4 N10_4 1_555 1_555
C9_4 O8_4 1_555 1_555
N9_4 H17_4 1_555 1_555
C1_4 N21_2 1_555 1_555
N21_2 N2_4 1_555 1_555
N5_4 C1_4 1_555 1_555
H1_4 N5_4 1_555 1_555
C15_4 N5_4 1_555 1_555
C19_4 N22_2 1_555 1_555
C20_4 C26_4 1_555 1_555
N22_2 N12_4 1_555 1_555
N15_4 C19_4 1_555 1_555
H9_4 N15_4 1_555 1_555
O22_2 C26_4 1_555 1_555
O24_2 C26_4 1_555 1_555
C32_4 C20_4 1_555 1_555
H12_4 C32_4 1_555 1_555
C33_4 N15_4 1_555 1_555
C34_4 C20_4 1_555 1_555
H14_4 C34_4 1_555 1_555
C33_4 C34_4 1_555 1_555
C33_4 C35_4 1_555 1_555
C2_4 C8_4 1_555 1_555
O21_2 C8_4 1_555 1_555
O23_2 C8_4 1_555 1_555
C14_4 C2_4 1_555 1_555
H4_4 C14_4 1_555 1_555
C16_4 C2_4 1_555 1_555
H6_4 C16_4 1_555 1_555

#END
