
###############################################################################
#
# This file contains modified crystal structure data generated from the
# MOF subset of the Cambridge Structural Database (CSD) v543 
# hosted by the Cambridge Crystallographic Data Centre (CCDC).
#
# This work is licensed under the Creative Commons
# Attribution-NonCommercial-ShareAlike 4.0 International License.
# To view a copy of this license, visit
# http://creativecommons.org/licenses/by-nc-sa/4.0/
# or send a letter to
# Creative Commons, PO Box 1866, Mountain View, CA 94042, USA.
#
# CIF created using the CSD Python API on 29 September 2022
# The structure has been converted into the P1 space group
# The structure has a 3D framework
# The original CSD entry FANPAO is in the orthorhombic crystal system
# The framework has been calculated to contain at least 10.0% void space
# The void calculation uses a probe of radius 1.32A, grid spacing 0.4
#
###############################################################################

data_FANPAO
_chemical_formula_moiety         '(C144 H80 N80 O64 Zn19)n'
_symmetry_cell_setting           triclinic
_symmetry_space_group_name_H-M   'P 1'
_symmetry_Int_Tables_number      1
_space_group_name_Hall           'P 1'
loop_
_symmetry_equiv_pos_site_id
_symmetry_equiv_pos_as_xyz
1 x,y,z
_cell_length_a                   17.8735(9)
_cell_length_b                   20.9554(14)
_cell_length_c                   20.7462(13)
_cell_angle_alpha                90
_cell_angle_beta                 90
_cell_angle_gamma                90
_cell_volume                     7770.41
loop_
_atom_site_label
_atom_site_type_symbol
_atom_site_fract_x
_atom_site_fract_y
_atom_site_fract_z
Zn13 Zn -0.000000 0.000000 0.67260(9)
O6 O 0.0238(7) 0.7924(7) 0.8803(8)
Zn8 Zn 0.02676(6) 0.69630(6) 0.97684(13)
Zn13_2 Zn -0.000000 1.000000 0.67260(9)
Zn2 Zn 0.000000 -0.000000 0.27974(9)
Zn3 Zn 0.500000 -0.000000 0.17260(9)
O22 O 0.4349(8) 0.0492(8) 0.2273(8)
N21 N 0.5407(6) 0.0698(6) 0.1150(6)
N23 N 0.0516(6) 0.0683(6) 0.3377(6)
Zn10 Zn 0.500000 0.000000 0.77974(9)
Zn13_3 Zn 1.000000 0.000000 0.67260(9)
Zn2_2 Zn 0.000000 1.000000 0.27974(9)
Zn3_2 Zn 0.500000 1.000000 0.17260(9)
O2 O 0.0856(5) 0.9634(5) 0.2391(4)
O3 O 0.0027(5) 0.9023(6) 0.1825(5)
O4 O 0.0911(6) 0.7413(5) 0.0328(5)
N1 N 0.4593(6) 0.9302(6) 0.1150(6)
N2 N 0.4777(6) 0.8624(5) 0.0444(5)
N6 N 0.3351(9) 0.9079(9) 0.1455(9)
H2 H 0.340110 0.932990 0.179264
N7 N 0.5083(7) 0.9076(6) 0.0737(6)
H3 H 0.554200 0.921704 0.067693
N8 N 0.4074(8) 0.8510(7) 0.0618(7)
C2 C 0.0693(8) 0.9227(7) 0.1952(8)
C3 C 0.1325(7) 0.8887(8) 0.1607(8)
C4 C 0.3966(9) 0.8971(8) 0.1107(8)
C5 C 0.2632(10) 0.8833(9) 0.1340(8)
C7 C 0.2046(8) 0.9103(8) 0.1663(8)
H5 H 0.214287 0.945549 0.193796
C8 C 0.1172(9) 0.8443(7) 0.1126(8)
H6 H 0.066745 0.833249 0.103541
C9 C 0.2448(10) 0.8408(9) 0.0842(10)
H7 H 0.282153 0.828571 0.054034
C10 C 0.1734(10) 0.8164(11) 0.0780(11)
C18 C 0.1569(9) 0.7632(8) 0.0295(8)
O20 O 0.5911(6) 0.7587(5) 0.0328(5)
O21 O 0.5651(8) 0.9508(8) 0.2273(8)
O1 O 0.9424(5) 0.7453(5) 0.9476(5)
C1 C 0.9576(8) 0.7854(10) 0.9071(8)
Zn1 Zn 0.52676(6) 0.80370(6) 0.97684(13)
O5 O 0.9349(8) 0.9508(8) 0.7273(8)
O7 O 0.1982(7) 0.7508(8) 0.9922(8)
O8 O 0.8382(11) 0.9994(10) 0.7410(10)
N3 N 0.5659(7) 0.8620(6) 0.9069(6)
N4 N 0.5516(6) 0.9317(6) 0.8377(6)
N5 N 0.6959(8) 0.8491(8) 0.8980(8)
H1 H 0.692890 0.820495 0.928924
N9 N 0.5151(8) 0.8933(7) 0.8789(7)
H4 H 0.466533 0.890558 0.885046
N10 N 0.6219(6) 0.9215(6) 0.8327(6)
C6 C 0.6338(7) 0.8745(7) 0.8807(7)
C11 C 0.7878(7) 0.9075(6) 0.8293(6)
H8 H 0.750313 0.936067 0.814402
C12 C 0.7685(7) 0.8611(6) 0.8742(7)
C13 C 0.8251(6) 0.8239(7) 0.9008(7)
H9 H 0.812815 0.795308 0.934709
C14 C 0.9112(9) 0.8735(8) 0.8331(8)
H10 H 0.960923 0.878861 0.817834
C15 C 0.8564(8) 0.9131(7) 0.8067(7)
C16 C 0.8995(6) 0.8270(7) 0.8797(7)
C17 C 0.8759(9) 0.9570(8) 0.7556(8)
O18 O 0.4424(5) 0.7547(5) 0.9476(5)
Zn10_2 Zn 0.500000 1.000000 0.77974(9)
Zn13_4 Zn 1.000000 1.000000 0.67260(9)
Zn2_3 Zn 1.000000 -0.000000 0.27974(9)
O10 O 0.9144(5) 0.0366(5) 0.2391(4)
O11 O 0.9973(5) 0.0977(6) 0.1825(5)
O12 O 0.9089(6) 0.2587(5) 0.0328(5)
N12 N 0.5223(6) 0.1376(5) 0.0444(5)
N16 N 0.6649(9) 0.0921(9) 0.1455(9)
H12 H 0.659890 0.067010 0.179264
N17 N 0.4917(7) 0.0924(6) 0.0737(6)
H13 H 0.445800 0.078296 0.067693
N18 N 0.5926(8) 0.1490(7) 0.0618(7)
C20 C 0.9307(8) 0.0773(7) 0.1952(8)
C21 C 0.8675(7) 0.1113(8) 0.1607(8)
C22 C 0.6034(9) 0.1029(8) 0.1107(8)
C23 C 0.7368(10) 0.1167(9) 0.1340(8)
C25 C 0.7954(8) 0.0897(8) 0.1663(8)
H15 H 0.785713 0.054451 0.193796
C26 C 0.8828(9) 0.1557(7) 0.1126(8)
H16 H 0.933255 0.166751 0.103541
C27 C 0.7552(10) 0.1592(9) 0.0842(10)
H17 H 0.717847 0.171429 0.054034
C28 C 0.8266(10) 0.1836(11) 0.0780(11)
C36 C 0.8431(9) 0.2368(8) 0.0295(8)
O19 O 0.4089(6) 0.2413(5) 0.0328(5)
O9 O 0.0576(5) 0.2547(5) 0.9476(5)
C19 C 0.0424(8) 0.2146(10) 0.9071(8)
Zn4 Zn 0.47324(6) 0.19630(6) 0.97684(13)
O13 O 0.0651(8) 0.0492(8) 0.7273(8)
O15 O 0.8018(7) 0.2492(8) 0.9922(8)
O16 O 0.1618(11) 0.0006(10) 0.7410(10)
N13 N 0.4341(7) 0.1380(6) 0.9069(6)
N14 N 0.4484(6) 0.0683(6) 0.8377(6)
N15 N 0.3041(8) 0.1509(8) 0.8980(8)
H11 H 0.307110 0.179505 0.928924
N19 N 0.4849(8) 0.1067(7) 0.8789(7)
H14 H 0.533467 0.109442 0.885046
N20 N 0.3781(6) 0.0785(6) 0.8327(6)
C24 C 0.3662(7) 0.1255(7) 0.8807(7)
C29 C 0.2122(7) 0.0925(6) 0.8293(6)
H18 H 0.249687 0.063933 0.814402
C30 C 0.2315(7) 0.1389(6) 0.8742(7)
C31 C 0.1749(6) 0.1761(7) 0.9008(7)
H19 H 0.187185 0.204692 0.934709
C32 C 0.0888(9) 0.1265(8) 0.8331(8)
H20 H 0.039077 0.121139 0.817834
C33 C 0.1436(8) 0.0869(7) 0.8067(7)
C34 C 0.1005(6) 0.1730(7) 0.8797(7)
C35 C 0.1241(9) 0.0430(8) 0.7556(8)
O17 O 0.5576(5) 0.2453(5) 0.9476(5)
Zn6 Zn 0.97324(6) 0.30370(6) 0.97684(13)
Zn2_4 Zn 1.000000 1.000000 0.27974(9)
N22 N 0.9484(6) 0.9317(6) 0.3377(6)
O14 O 0.9762(7) 0.2076(7) 0.8803(8)
O9_2 O 0.4424(5) 0.2547(5) 0.4476(5)
C19_2 C 0.4576(8) 0.2146(10) 0.4071(8)
Zn4_2 Zn 0.02676(6) 0.19630(6) 0.47684(13)
O14_2 O 0.5238(7) 0.2076(7) 0.3803(8)
O16_2 O 0.3382(11) 0.0006(10) 0.2410(10)
N13_2 N 0.0659(7) 0.1380(6) 0.4069(6)
N15_2 N 0.1959(8) 0.1509(8) 0.3980(8)
H11_2 H 0.192890 0.179505 0.428924
N17_2 N 0.0083(7) 0.0924(6) 0.5737(6)
H13_2 H 0.054200 0.078296 0.567693
N19_2 N 0.0151(8) 0.1067(7) 0.3789(7)
N20_2 N 0.1219(6) 0.0785(6) 0.3327(6)
C24_2 C 0.1338(7) 0.1255(7) 0.3807(7)
C29_2 C 0.2878(7) 0.0925(6) 0.3293(6)
H18_2 H 0.250313 0.063933 0.314402
C30_2 C 0.2685(7) 0.1389(6) 0.3742(7)
C31_2 C 0.3251(6) 0.1761(7) 0.4008(7)
H19_2 H 0.312815 0.204692 0.434709
C32_2 C 0.4112(9) 0.1265(8) 0.3331(8)
H20_2 H 0.460923 0.121139 0.317834
C33_2 C 0.3564(8) 0.0869(7) 0.3067(7)
C34_2 C 0.3995(6) 0.1730(7) 0.3797(7)
C35_2 C 0.3759(9) 0.0430(8) 0.2556(8)
Zn5 Zn 0.52676(6) 0.30370(6) 0.47684(13)
O19_2 O 0.0911(6) 0.2413(5) 0.5328(5)
O10_2 O 0.5856(5) 0.0366(5) 0.7391(4)
O11_2 O 0.5027(5) 0.0977(6) 0.6825(5)
O12_2 O 0.5911(6) 0.2587(5) 0.5328(5)
O15_2 O 0.6982(7) 0.2492(8) 0.4922(8)
N11 N 0.9593(6) 0.0698(6) 0.6150(6)
N12_2 N 0.9777(6) 0.1376(5) 0.5444(5)
N16_2 N 0.8351(9) 0.0921(9) 0.6455(9)
H12_2 H 0.840110 0.067010 0.679264
N18_2 N 0.9074(8) 0.1490(7) 0.5618(7)
H14_2 H 0.966533 0.109442 0.385046
C20_2 C 0.5693(8) 0.0773(7) 0.6952(8)
C21_2 C 0.6325(7) 0.1113(8) 0.6607(8)
C22_2 C 0.8966(9) 0.1029(8) 0.6107(8)
C23_2 C 0.7632(10) 0.1167(9) 0.6340(8)
C25_2 C 0.7046(8) 0.0897(8) 0.6663(8)
H15_2 H 0.714287 0.054451 0.693796
C26_2 C 0.6172(9) 0.1557(7) 0.6126(8)
H16_2 H 0.566745 0.166751 0.603541
C27_2 C 0.7448(10) 0.1592(9) 0.5842(10)
H17_2 H 0.782153 0.171429 0.554034
C28_2 C 0.6734(10) 0.1836(11) 0.5780(11)
C36_2 C 0.6569(9) 0.2368(8) 0.5295(8)
O17_2 O 0.9424(5) 0.2453(5) 0.4476(5)
O2_2 O 0.4144(5) 0.9634(5) 0.7391(4)
O3_2 O 0.4973(5) 0.9023(6) 0.6825(5)
O4_2 O 0.4089(6) 0.7413(5) 0.5328(5)
O7_2 O 0.3018(7) 0.7508(8) 0.4922(8)
N1_2 N 0.0407(6) 0.9302(6) 0.6150(6)
N2_2 N 0.0223(6) 0.8624(5) 0.5444(5)
N6_2 N 0.1649(9) 0.9079(9) 0.6455(9)
H2_2 H 0.159890 0.932990 0.679264
N8_2 N 0.0926(8) 0.8510(7) 0.5618(7)
H4_2 H 0.033467 0.890558 0.385046
C2_2 C 0.4307(8) 0.9227(7) 0.6952(8)
C3_2 C 0.3675(7) 0.8887(8) 0.6607(8)
C4_2 C 0.1034(9) 0.8971(8) 0.6107(8)
C5_2 C 0.2368(10) 0.8833(9) 0.6340(8)
C7_2 C 0.2954(8) 0.9103(8) 0.6663(8)
H5_2 H 0.285713 0.945549 0.693796
C8_2 C 0.3828(9) 0.8443(7) 0.6126(8)
H6_2 H 0.433255 0.833249 0.603541
C9_2 C 0.2552(10) 0.8408(9) 0.5842(10)
H7_2 H 0.217847 0.828571 0.554034
C10_2 C 0.3266(10) 0.8164(11) 0.5780(11)
C18_2 C 0.3431(9) 0.7632(8) 0.5295(8)
O18_2 O 0.0576(5) 0.7547(5) 0.4476(5)
Zn7 Zn 0.47324(6) 0.69630(6) 0.47684(13)
O1_2 O 0.5576(5) 0.7453(5) 0.4476(5)
C1_2 C 0.5424(8) 0.7854(10) 0.4071(8)
Zn1_2 Zn 0.97324(6) 0.80370(6) 0.47684(13)
O6_2 O 0.4762(7) 0.7924(7) 0.3803(8)
O8_2 O 0.6618(11) 0.9994(10) 0.2410(10)
N3_2 N 0.9341(7) 0.8620(6) 0.4069(6)
N5_2 N 0.8041(8) 0.8491(8) 0.3980(8)
H1_2 H 0.807110 0.820495 0.428924
N7_2 N 0.9917(7) 0.9076(6) 0.5737(6)
H3_2 H 0.945800 0.921704 0.567693
N9_2 N 0.9849(8) 0.8933(7) 0.3789(7)
N10_2 N 0.8781(6) 0.9215(6) 0.3327(6)
C6_2 C 0.8662(7) 0.8745(7) 0.3807(7)
C11_2 C 0.7122(7) 0.9075(6) 0.3293(6)
H8_2 H 0.749687 0.936067 0.314402
C12_2 C 0.7315(7) 0.8611(6) 0.3742(7)
C13_2 C 0.6749(6) 0.8239(7) 0.4008(7)
H9_2 H 0.687185 0.795308 0.434709
C14_2 C 0.5888(9) 0.8735(8) 0.3331(8)
H10_2 H 0.539077 0.878861 0.317834
C15_2 C 0.6436(8) 0.9131(7) 0.3067(7)
C16_2 C 0.6005(6) 0.8270(7) 0.3797(7)
C17_2 C 0.6241(9) 0.9570(8) 0.2556(8)
O20_2 O 0.9089(6) 0.7587(5) 0.5328(5)
O6_3 O 0.0238(7) 0.2924(7) 0.3803(8)
Zn13_5 Zn -0.000000 0.500000 0.17260(9)
C1_3 C 0.9576(8) 0.2854(10) 0.4071(8)
Zn2_5 Zn 0.000000 0.500000 0.77974(9)
Zn3_3 Zn 0.500000 0.500000 0.67260(9)
O2_3 O 0.0856(5) 0.4634(5) 0.7391(4)
O3_3 O 0.0027(5) 0.4023(6) 0.6825(5)
O5_2 O 0.9349(8) 0.4508(8) 0.2273(8)
O7_3 O 0.1982(7) 0.2508(8) 0.4922(8)
O8_3 O 0.8382(11) 0.4994(10) 0.2410(10)
N1_3 N 0.4593(6) 0.4302(6) 0.6150(6)
N2_3 N 0.4777(6) 0.3624(5) 0.5444(5)
N3_3 N 0.5659(7) 0.3620(6) 0.4069(6)
N4_2 N 0.5516(6) 0.4317(6) 0.3377(6)
N5_3 N 0.6959(8) 0.3491(8) 0.3980(8)
H1_3 H 0.692890 0.320495 0.428924
N6_3 N 0.3351(9) 0.4079(9) 0.6455(9)
H2_3 H 0.340110 0.432990 0.679264
N7_3 N 0.5083(7) 0.4076(6) 0.5737(6)
H3_3 H 0.554200 0.421704 0.567693
N8_3 N 0.4074(8) 0.3510(7) 0.5618(7)
N9_3 N 0.5151(8) 0.3933(7) 0.3789(7)
H4_3 H 0.466533 0.390558 0.385046
N10_3 N 0.6219(6) 0.4215(6) 0.3327(6)
C2_3 C 0.0693(8) 0.4227(7) 0.6952(8)
C3_3 C 0.1325(7) 0.3887(8) 0.6607(8)
C4_3 C 0.3966(9) 0.3971(8) 0.6107(8)
C5_3 C 0.2632(10) 0.3833(9) 0.6340(8)
C6_3 C 0.6338(7) 0.3745(7) 0.3807(7)
C7_3 C 0.2046(8) 0.4103(8) 0.6663(8)
H5_3 H 0.214287 0.445549 0.693796
C8_3 C 0.1172(9) 0.3443(7) 0.6126(8)
H6_3 H 0.066745 0.333249 0.603541
C9_3 C 0.2448(10) 0.3408(9) 0.5842(10)
H7_3 H 0.282153 0.328571 0.554034
C10_3 C 0.1734(10) 0.3164(11) 0.5780(11)
C11_3 C 0.7878(7) 0.4075(6) 0.3293(6)
H8_3 H 0.750313 0.436067 0.314402
C12_3 C 0.7685(7) 0.3611(6) 0.3742(7)
C13_3 C 0.8251(6) 0.3239(7) 0.4008(7)
H9_3 H 0.812815 0.295308 0.434709
C14_3 C 0.9112(9) 0.3735(8) 0.3331(8)
H10_3 H 0.960923 0.378861 0.317834
C15_3 C 0.8564(8) 0.4131(7) 0.3067(7)
C16_3 C 0.8995(6) 0.3270(7) 0.3797(7)
C17_3 C 0.8759(9) 0.4570(8) 0.2556(8)
C18_3 C 0.1569(9) 0.2632(8) 0.5295(8)
Zn10_3 Zn 0.500000 0.500000 0.27974(9)
Zn13_6 Zn 1.000000 0.500000 0.17260(9)
O21_2 O 0.5651(8) 0.4508(8) 0.7273(8)
O22_2 O 0.4349(8) 0.5492(8) 0.7273(8)
N21_2 N 0.5407(6) 0.5698(6) 0.6150(6)
N23_2 N 0.0516(6) 0.5683(6) 0.8377(6)
Zn2_6 Zn 1.000000 0.500000 0.77974(9)
C19_3 C 0.0424(8) 0.7146(10) 0.4071(8)
O10_3 O 0.9144(5) 0.5366(5) 0.7391(4)
O11_3 O 0.9973(5) 0.5977(6) 0.6825(5)
O13_2 O 0.0651(8) 0.5492(8) 0.2273(8)
O15_3 O 0.8018(7) 0.7492(8) 0.4922(8)
O16_3 O 0.1618(11) 0.5006(10) 0.2410(10)
N12_3 N 0.5223(6) 0.6376(5) 0.5444(5)
N13_3 N 0.4341(7) 0.6380(6) 0.4069(6)
N14_2 N 0.4484(6) 0.5683(6) 0.3377(6)
N15_3 N 0.3041(8) 0.6509(8) 0.3980(8)
H11_3 H 0.307110 0.679505 0.428924
N16_3 N 0.6649(9) 0.5921(9) 0.6455(9)
H12_3 H 0.659890 0.567010 0.679264
N17_3 N 0.4917(7) 0.5924(6) 0.5737(6)
H13_3 H 0.445800 0.578296 0.567693
N18_3 N 0.5926(8) 0.6490(7) 0.5618(7)
N19_3 N 0.4849(8) 0.6067(7) 0.3789(7)
H14_3 H 0.533467 0.609442 0.385046
N20_3 N 0.3781(6) 0.5785(6) 0.3327(6)
C20_3 C 0.9307(8) 0.5773(7) 0.6952(8)
C21_3 C 0.8675(7) 0.6113(8) 0.6607(8)
C22_3 C 0.6034(9) 0.6029(8) 0.6107(8)
C23_3 C 0.7368(10) 0.6167(9) 0.6340(8)
C24_3 C 0.3662(7) 0.6255(7) 0.3807(7)
C25_3 C 0.7954(8) 0.5897(8) 0.6663(8)
H15_3 H 0.785713 0.554451 0.693796
C26_3 C 0.8828(9) 0.6557(7) 0.6126(8)
H16_3 H 0.933255 0.666751 0.603541
C27_3 C 0.7552(10) 0.6592(9) 0.5842(10)
H17_3 H 0.717847 0.671429 0.554034
C28_3 C 0.8266(10) 0.6836(11) 0.5780(11)
C29_3 C 0.2122(7) 0.5925(6) 0.3293(6)
H18_3 H 0.249687 0.563933 0.314402
C30_3 C 0.2315(7) 0.6389(6) 0.3742(7)
C31_3 C 0.1749(6) 0.6761(7) 0.4008(7)
H19_3 H 0.187185 0.704692 0.434709
C32_3 C 0.0888(9) 0.6265(8) 0.3331(8)
H20_3 H 0.039077 0.621139 0.317834
C33_3 C 0.1436(8) 0.5869(7) 0.3067(7)
C34_3 C 0.1005(6) 0.6730(7) 0.3797(7)
C35_3 C 0.1241(9) 0.5430(8) 0.2556(8)
C36_3 C 0.8431(9) 0.7368(8) 0.5295(8)
N22_2 N 0.9484(6) 0.4317(6) 0.8377(6)
O14_3 O 0.9762(7) 0.7076(7) 0.3803(8)
N17_4 N 0.0083(7) 0.5924(6) 0.0737(6)
H13_4 H 0.054200 0.578296 0.067693
C19_4 C 0.4576(8) 0.7146(10) 0.9071(8)
O14_4 O 0.5238(7) 0.7076(7) 0.8803(8)
O16_4 O 0.3382(11) 0.5006(10) 0.7410(10)
N13_4 N 0.0659(7) 0.6380(6) 0.9069(6)
N15_4 N 0.1959(8) 0.6509(8) 0.8980(8)
H11_4 H 0.192890 0.679505 0.928924
N19_4 N 0.0151(8) 0.6067(7) 0.8789(7)
N20_4 N 0.1219(6) 0.5785(6) 0.8327(6)
C24_4 C 0.1338(7) 0.6255(7) 0.8807(7)
C29_4 C 0.2878(7) 0.5925(6) 0.8293(6)
H18_4 H 0.250313 0.563933 0.814402
C30_4 C 0.2685(7) 0.6389(6) 0.8742(7)
C31_4 C 0.3251(6) 0.6761(7) 0.9008(7)
H19_4 H 0.312815 0.704692 0.934709
C32_4 C 0.4112(9) 0.6265(8) 0.8331(8)
H20_4 H 0.460923 0.621139 0.817834
C33_4 C 0.3564(8) 0.5869(7) 0.8067(7)
C34_4 C 0.3995(6) 0.6730(7) 0.8797(7)
C35_4 C 0.3759(9) 0.5430(8) 0.7556(8)
O2_4 O 0.4144(5) 0.4634(5) 0.2391(4)
O3_4 O 0.4973(5) 0.4023(6) 0.1825(5)
N1_4 N 0.0407(6) 0.4302(6) 0.1150(6)
N2_4 N 0.0223(6) 0.3624(5) 0.0444(5)
N6_4 N 0.1649(9) 0.4079(9) 0.1455(9)
H2_4 H 0.159890 0.432990 0.179264
N8_4 N 0.0926(8) 0.3510(7) 0.0618(7)
C2_4 C 0.4307(8) 0.4227(7) 0.1952(8)
C3_4 C 0.3675(7) 0.3887(8) 0.1607(8)
C4_4 C 0.1034(9) 0.3971(8) 0.1107(8)
C5_4 C 0.2368(10) 0.3833(9) 0.1340(8)
C7_4 C 0.2954(8) 0.4103(8) 0.1663(8)
H5_4 H 0.285713 0.445549 0.193796
C8_4 C 0.3828(9) 0.3443(7) 0.1126(8)
H6_4 H 0.433255 0.333249 0.103541
C9_4 C 0.2552(10) 0.3408(9) 0.0842(10)
H7_4 H 0.217847 0.328571 0.054034
C10_4 C 0.3266(10) 0.3164(11) 0.0780(11)
C18_4 C 0.3431(9) 0.2632(8) 0.0295(8)
O10_4 O 0.5856(5) 0.5366(5) 0.2391(4)
O11_4 O 0.5027(5) 0.5977(6) 0.1825(5)
N11_2 N 0.9593(6) 0.5698(6) 0.1150(6)
N12_4 N 0.9777(6) 0.6376(5) 0.0444(5)
N16_4 N 0.8351(9) 0.5921(9) 0.1455(9)
H12_4 H 0.840110 0.567010 0.179264
N18_4 N 0.9074(8) 0.6490(7) 0.0618(7)
C20_4 C 0.5693(8) 0.5773(7) 0.1952(8)
C21_4 C 0.6325(7) 0.6113(8) 0.1607(8)
C22_4 C 0.8966(9) 0.6029(8) 0.1107(8)
C23_4 C 0.7632(10) 0.6167(9) 0.1340(8)
C25_4 C 0.7046(8) 0.5897(8) 0.1663(8)
H15_4 H 0.714287 0.554451 0.193796
C26_4 C 0.6172(9) 0.6557(7) 0.1126(8)
H16_4 H 0.566745 0.666751 0.103541
C27_4 C 0.7448(10) 0.6592(9) 0.0842(10)
H17_4 H 0.782153 0.671429 0.054034
C28_4 C 0.6734(10) 0.6836(11) 0.0780(11)
C36_4 C 0.6569(9) 0.7368(8) 0.0295(8)
O7_4 O 0.3018(7) 0.2508(8) 0.9922(8)
H4_4 H 0.033467 0.390558 0.885046
O15_4 O 0.6982(7) 0.7492(8) 0.9922(8)
H14_4 H 0.966533 0.609442 0.885046
N7_4 N 0.9917(7) 0.4076(6) 0.0737(6)
H3_4 H 0.945800 0.421704 0.067693
C1_4 C 0.5424(8) 0.2854(10) 0.9071(8)
O6_4 O 0.4762(7) 0.2924(7) 0.8803(8)
O8_4 O 0.6618(11) 0.4994(10) 0.7410(10)
N3_4 N 0.9341(7) 0.3620(6) 0.9069(6)
N5_4 N 0.8041(8) 0.3491(8) 0.8980(8)
H1_4 H 0.807110 0.320495 0.928924
N9_4 N 0.9849(8) 0.3933(7) 0.8789(7)
N10_4 N 0.8781(6) 0.4215(6) 0.8327(6)
C6_4 C 0.8662(7) 0.3745(7) 0.8807(7)
C11_4 C 0.7122(7) 0.4075(6) 0.8293(6)
H8_4 H 0.749687 0.436067 0.814402
C12_4 C 0.7315(7) 0.3611(6) 0.8742(7)
C13_4 C 0.6749(6) 0.3239(7) 0.9008(7)
H9_4 H 0.687185 0.295308 0.934709
C14_4 C 0.5888(9) 0.3735(8) 0.8331(8)
H10_4 H 0.539077 0.378861 0.817834
C15_4 C 0.6436(8) 0.4131(7) 0.8067(7)
C16_4 C 0.6005(6) 0.3270(7) 0.8797(7)
C17_4 C 0.6241(9) 0.4570(8) 0.7556(8)
loop_
_geom_bond_atom_site_label_1
_geom_bond_atom_site_label_2
_geom_bond_site_symmetry_1
_geom_bond_site_symmetry_2
O22 Zn3 1_555 1_555
N21 Zn3 1_555 1_555
N23 Zn2 1_555 1_555
Zn2_2 O2 1_555 1_555
Zn3_2 N1 1_555 1_555
O2 C2 1_555 1_555
O3 C2 1_555 1_555
O4 C18 1_555 1_555
N1 N7 1_555 1_555
N2 N7 1_555 1_555
N6 H2 1_555 1_555
N7 H3 1_555 1_555
N8 N2 1_555 1_555
C2 C3 1_555 1_555
C3 C7 1_555 1_555
C4 N1 1_555 1_555
C5 N6 1_555 1_555
C7 C5 1_555 1_555
H5 C7 1_555 1_555
C8 C3 1_555 1_555
H6 C8 1_555 1_555
C9 C5 1_555 1_555
H7 C9 1_555 1_555
C10 C8 1_555 1_555
C18 C10 1_555 1_555
O21 Zn3_2 1_555 1_555
N6 C4 1_555 1_555
N8 C4 1_555 1_555
C9 C10 1_555 1_555
O1 C1 1_555 1_555
O5 C17 1_555 1_555
O8 C17 1_555 1_555
N3 Zn1 1_555 1_555
N4 N9 1_555 1_555
N5 H1 1_555 1_555
N9 N3 1_555 1_555
H4 N9 1_555 1_555
N10 N4 1_555 1_555
C6 N3 1_555 1_555
C11 H8 1_555 1_555
C12 N5 1_555 1_555
C13 C12 1_555 1_555
H9 C13 1_555 1_555
C14 H10 1_555 1_555
C15 C11 1_555 1_555
C16 C1 1_555 1_555
C17 C15 1_555 1_555
O18 Zn1 1_555 1_555
Zn10_2 N4 1_555 1_555
Zn13_4 O5 1_555 1_555
N5 C6 1_555 1_555
N10 C6 1_555 1_555
C11 C12 1_555 1_555
C13 C16 1_555 1_555
C14 C15 1_555 1_555
C14 C16 1_555 1_555
O10 Zn2_3 1_555 1_555
O11 C20 1_555 1_555
O12 C36 1_555 1_555
N21 N17 1_555 1_555
N12 N17 1_555 1_555
N16 H12 1_555 1_555
N17 H13 1_555 1_555
N18 N12 1_555 1_555
C20 O10 1_555 1_555
C21 C20 1_555 1_555
C22 N21 1_555 1_555
C23 N16 1_555 1_555
C25 C21 1_555 1_555
H15 C25 1_555 1_555
C26 C21 1_555 1_555
H16 C26 1_555 1_555
C27 C23 1_555 1_555
H17 C27 1_555 1_555
C28 C26 1_555 1_555
C36 C28 1_555 1_555
N16 C22 1_555 1_555
N18 C22 1_555 1_555
C23 C25 1_555 1_555
C27 C28 1_555 1_555
O9 C19 1_555 1_555
O13 C35 1_555 1_555
O16 C35 1_555 1_555
N13 Zn4 1_555 1_555
N14 N19 1_555 1_555
N15 H11 1_555 1_555
N19 N13 1_555 1_555
H14 N19 1_555 1_555
N20 N14 1_555 1_555
C24 N13 1_555 1_555
C29 H18 1_555 1_555
C30 N15 1_555 1_555
C31 C30 1_555 1_555
H19 C31 1_555 1_555
C32 H20 1_555 1_555
C33 C29 1_555 1_555
C34 C19 1_555 1_555
C35 C33 1_555 1_555
O17 Zn4 1_555 1_555
Zn10 N14 1_555 1_555
Zn13 O13 1_555 1_555
N15 C24 1_555 1_555
N20 C24 1_555 1_555
C29 C30 1_555 1_555
C31 C34 1_555 1_555
C32 C33 1_555 1_555
C32 C34 1_555 1_555
N22 Zn2_4 1_555 1_555
O9_2 C19_2 1_555 1_555
C19_2 O14_2 1_555 1_555
O22 C35_2 1_555 1_555
O16_2 C35_2 1_555 1_555
N13_2 Zn4_2 1_555 1_555
N23 N19_2 1_555 1_555
N15_2 H11_2 1_555 1_555
N17_2 H13_2 1_555 1_555
N19_2 N13_2 1_555 1_555
N20_2 N23 1_555 1_555
C24_2 N13_2 1_555 1_555
C29_2 H18_2 1_555 1_555
C30_2 N15_2 1_555 1_555
C31_2 C30_2 1_555 1_555
H19_2 C31_2 1_555 1_555
C32_2 H20_2 1_555 1_555
C33_2 C29_2 1_555 1_555
C34_2 C19_2 1_555 1_555
C35_2 C33_2 1_555 1_555
Zn5 O9_2 1_555 1_555
O19_2 Zn4_2 1_555 1_555
N15_2 C24_2 1_555 1_555
N20_2 C24_2 1_555 1_555
C29_2 C30_2 1_555 1_555
C31_2 C34_2 1_555 1_555
C32_2 C33_2 1_555 1_555
C32_2 C34_2 1_555 1_555
O10_2 Zn10 1_555 1_555
O11_2 C20_2 1_555 1_555
O12_2 C36_2 1_555 1_555
O15_2 C36_2 1_555 1_555
N16_2 H12_2 1_555 1_555
N18_2 N12_2 1_555 1_555
C20_2 O10_2 1_555 1_555
C21_2 C20_2 1_555 1_555
C22_2 N11 1_555 1_555
C23_2 N16_2 1_555 1_555
C25_2 C21_2 1_555 1_555
H15_2 C25_2 1_555 1_555
C26_2 C21_2 1_555 1_555
H16_2 C26_2 1_555 1_555
C27_2 C23_2 1_555 1_555
H17_2 C27_2 1_555 1_555
C28_2 C26_2 1_555 1_555
C36_2 C28_2 1_555 1_555
Zn5 O12_2 1_555 1_555
Zn13_3 N11 1_555 1_555
N16_2 C22_2 1_555 1_555
N18_2 C22_2 1_555 1_555
C23_2 C25_2 1_555 1_555
C27_2 C28_2 1_555 1_555
Zn10_2 O2_2 1_555 1_555
Zn13_2 N1_2 1_555 1_555
O2_2 C2_2 1_555 1_555
O3_2 C2_2 1_555 1_555
O4_2 C18_2 1_555 1_555
O7_2 C18_2 1_555 1_555
N6_2 H2_2 1_555 1_555
N8_2 N2_2 1_555 1_555
C2_2 C3_2 1_555 1_555
C3_2 C7_2 1_555 1_555
C4_2 N1_2 1_555 1_555
C5_2 N6_2 1_555 1_555
C7_2 C5_2 1_555 1_555
H5_2 C7_2 1_555 1_555
C8_2 C3_2 1_555 1_555
H6_2 C8_2 1_555 1_555
C9_2 C5_2 1_555 1_555
H7_2 C9_2 1_555 1_555
C10_2 C8_2 1_555 1_555
C18_2 C10_2 1_555 1_555
Zn7 O4_2 1_555 1_555
N6_2 C4_2 1_555 1_555
N8_2 C4_2 1_555 1_555
C9_2 C10_2 1_555 1_555
O1_2 C1_2 1_555 1_555
C1_2 O6_2 1_555 1_555
O21 C17_2 1_555 1_555
O8_2 C17_2 1_555 1_555
N3_2 Zn1_2 1_555 1_555
N22 N9_2 1_555 1_555
N5_2 H1_2 1_555 1_555
N7_2 H3_2 1_555 1_555
N9_2 N3_2 1_555 1_555
N10_2 N22 1_555 1_555
C6_2 N3_2 1_555 1_555
C11_2 H8_2 1_555 1_555
C12_2 N5_2 1_555 1_555
C13_2 C12_2 1_555 1_555
H9_2 C13_2 1_555 1_555
C14_2 H10_2 1_555 1_555
C15_2 C11_2 1_555 1_555
C16_2 C1_2 1_555 1_555
C17_2 C15_2 1_555 1_555
Zn7 O1_2 1_555 1_555
O20_2 Zn1_2 1_555 1_555
N5_2 C6_2 1_555 1_555
N10_2 C6_2 1_555 1_555
C11_2 C12_2 1_555 1_555
C13_2 C16_2 1_555 1_555
C14_2 C15_2 1_555 1_555
C14_2 C16_2 1_555 1_555
O17_2 C1_3 1_555 1_555
Zn5 N2_3 1_555 1_555
Zn2_5 O2_3 1_555 1_555
Zn3_3 N1_3 1_555 1_555
O2_3 C2_3 1_555 1_555
O3_3 C2_3 1_555 1_555
O19_2 C18_3 1_555 1_555
O5_2 C17_3 1_555 1_555
O7_3 C18_3 1_555 1_555
O8_3 C17_3 1_555 1_555
N1_3 N7_3 1_555 1_555
N2_3 N7_3 1_555 1_555
N3_3 Zn5 1_555 1_555
N4_2 N9_3 1_555 1_555
N5_3 H1_3 1_555 1_555
N6_3 H2_3 1_555 1_555
N7_3 H3_3 1_555 1_555
N8_3 N2_3 1_555 1_555
N9_3 N3_3 1_555 1_555
H4_3 N9_3 1_555 1_555
N10_3 N4_2 1_555 1_555
C2_3 C3_3 1_555 1_555
C3_3 C7_3 1_555 1_555
C4_3 N1_3 1_555 1_555
C5_3 N6_3 1_555 1_555
C6_3 N3_3 1_555 1_555
C7_3 C5_3 1_555 1_555
H5_3 C7_3 1_555 1_555
C8_3 C3_3 1_555 1_555
H6_3 C8_3 1_555 1_555
C9_3 C5_3 1_555 1_555
H7_3 C9_3 1_555 1_555
C10_3 C8_3 1_555 1_555
C11_3 H8_3 1_555 1_555
C12_3 N5_3 1_555 1_555
C13_3 C12_3 1_555 1_555
H9_3 C13_3 1_555 1_555
C14_3 H10_3 1_555 1_555
C15_3 C11_3 1_555 1_555
C16_3 C1_3 1_555 1_555
C17_3 C15_3 1_555 1_555
C18_3 C10_3 1_555 1_555
Zn10_3 N4_2 1_555 1_555
Zn13_6 O5_2 1_555 1_555
O21_2 Zn3_3 1_555 1_555
O22_2 Zn3_3 1_555 1_555
N21_2 Zn3_3 1_555 1_555
N23_2 Zn2_5 1_555 1_555
N5_3 C6_3 1_555 1_555
N6_3 C4_3 1_555 1_555
N8_3 C4_3 1_555 1_555
N10_3 C6_3 1_555 1_555
C9_3 C10_3 1_555 1_555
C11_3 C12_3 1_555 1_555
C13_3 C16_3 1_555 1_555
C14_3 C15_3 1_555 1_555
C14_3 C16_3 1_555 1_555
O18_2 C19_3 1_555 1_555
Zn7 N12_3 1_555 1_555
O10_3 Zn2_6 1_555 1_555
O11_3 C20_3 1_555 1_555
O20_2 C36_3 1_555 1_555
O13_2 C35_3 1_555 1_555
O15_3 C36_3 1_555 1_555
O16_3 C35_3 1_555 1_555
N21_2 N17_3 1_555 1_555
N12_3 N17_3 1_555 1_555
N13_3 Zn7 1_555 1_555
N14_2 N19_3 1_555 1_555
N15_3 H11_3 1_555 1_555
N16_3 H12_3 1_555 1_555
N17_3 H13_3 1_555 1_555
N18_3 N12_3 1_555 1_555
N19_3 N13_3 1_555 1_555
H14_3 N19_3 1_555 1_555
N20_3 N14_2 1_555 1_555
C20_3 O10_3 1_555 1_555
C21_3 C20_3 1_555 1_555
C22_3 N21_2 1_555 1_555
C23_3 N16_3 1_555 1_555
C24_3 N13_3 1_555 1_555
C25_3 C21_3 1_555 1_555
H15_3 C25_3 1_555 1_555
C26_3 C21_3 1_555 1_555
H16_3 C26_3 1_555 1_555
C27_3 C23_3 1_555 1_555
H17_3 C27_3 1_555 1_555
C28_3 C26_3 1_555 1_555
C29_3 H18_3 1_555 1_555
C30_3 N15_3 1_555 1_555
C31_3 C30_3 1_555 1_555
H19_3 C31_3 1_555 1_555
C32_3 H20_3 1_555 1_555
C33_3 C29_3 1_555 1_555
C34_3 C19_3 1_555 1_555
C35_3 C33_3 1_555 1_555
C36_3 C28_3 1_555 1_555
Zn10_3 N14_2 1_555 1_555
Zn13_5 O13_2 1_555 1_555
N22_2 Zn2_6 1_555 1_555
N15_3 C24_3 1_555 1_555
N16_3 C22_3 1_555 1_555
N18_3 C22_3 1_555 1_555
N20_3 C24_3 1_555 1_555
C23_3 C25_3 1_555 1_555
C27_3 C28_3 1_555 1_555
C29_3 C30_3 1_555 1_555
C31_3 C34_3 1_555 1_555
C32_3 C33_3 1_555 1_555
C32_3 C34_3 1_555 1_555
N17_4 H13_4 1_555 1_555
O18 C19_4 1_555 1_555
C19_4 O14_4 1_555 1_555
O22_2 C35_4 1_555 1_555
O16_4 C35_4 1_555 1_555
N13_4 Zn8 1_555 1_555
N23_2 N19_4 1_555 1_555
N15_4 H11_4 1_555 1_555
N19_4 N13_4 1_555 1_555
N20_4 N23_2 1_555 1_555
C24_4 N13_4 1_555 1_555
C29_4 H18_4 1_555 1_555
C30_4 N15_4 1_555 1_555
C31_4 C30_4 1_555 1_555
H19_4 C31_4 1_555 1_555
C32_4 H20_4 1_555 1_555
C33_4 C29_4 1_555 1_555
C34_4 C19_4 1_555 1_555
C35_4 C33_4 1_555 1_555
N15_4 C24_4 1_555 1_555
N20_4 C24_4 1_555 1_555
C29_4 C30_4 1_555 1_555
C31_4 C34_4 1_555 1_555
C32_4 C33_4 1_555 1_555
C32_4 C34_4 1_555 1_555
Zn10_3 O2_4 1_555 1_555
Zn13_5 N1_4 1_555 1_555
O2_4 C2_4 1_555 1_555
O3_4 C2_4 1_555 1_555
O19 C18_4 1_555 1_555
N6_4 H2_4 1_555 1_555
N8_4 N2_4 1_555 1_555
C2_4 C3_4 1_555 1_555
C3_4 C7_4 1_555 1_555
C4_4 N1_4 1_555 1_555
C5_4 N6_4 1_555 1_555
C7_4 C5_4 1_555 1_555
H5_4 C7_4 1_555 1_555
C8_4 C3_4 1_555 1_555
H6_4 C8_4 1_555 1_555
C9_4 C5_4 1_555 1_555
H7_4 C9_4 1_555 1_555
C10_4 C8_4 1_555 1_555
C18_4 C10_4 1_555 1_555
O10_4 Zn10_3 1_555 1_555
O11_4 C20_4 1_555 1_555
O20 C36_4 1_555 1_555
N16_4 H12_4 1_555 1_555
N18_4 N12_4 1_555 1_555
C20_4 O10_4 1_555 1_555
C21_4 C20_4 1_555 1_555
C22_4 N11_2 1_555 1_555
C23_4 N16_4 1_555 1_555
C25_4 C21_4 1_555 1_555
H15_4 C25_4 1_555 1_555
C26_4 C21_4 1_555 1_555
H16_4 C26_4 1_555 1_555
C27_4 C23_4 1_555 1_555
H17_4 C27_4 1_555 1_555
C28_4 C26_4 1_555 1_555
C36_4 C28_4 1_555 1_555
Zn13_6 N11_2 1_555 1_555
N6_4 C4_4 1_555 1_555
N8_4 C4_4 1_555 1_555
C9_4 C10_4 1_555 1_555
N16_4 C22_4 1_555 1_555
N18_4 C22_4 1_555 1_555
C23_4 C25_4 1_555 1_555
C27_4 C28_4 1_555 1_555
N7_4 H3_4 1_555 1_555
O17 C1_4 1_555 1_555
C1_4 O6_4 1_555 1_555
O21_2 C17_4 1_555 1_555
O8_4 C17_4 1_555 1_555
N3_4 Zn6 1_555 1_555
N22_2 N9_4 1_555 1_555
N5_4 H1_4 1_555 1_555
N9_4 N3_4 1_555 1_555
N10_4 N22_2 1_555 1_555
C6_4 N3_4 1_555 1_555
C11_4 H8_4 1_555 1_555
C12_4 N5_4 1_555 1_555
C13_4 C12_4 1_555 1_555
H9_4 C13_4 1_555 1_555
C14_4 H10_4 1_555 1_555
C15_4 C11_4 1_555 1_555
C16_4 C1_4 1_555 1_555
C17_4 C15_4 1_555 1_555
N5_4 C6_4 1_555 1_555
N10_4 C6_4 1_555 1_555
C11_4 C12_4 1_555 1_555
C13_4 C16_4 1_555 1_555
C14_4 C15_4 1_555 1_555
C14_4 C16_4 1_555 1_555

#END
