
###############################################################################
#
# This file contains modified crystal structure data generated from the
# MOF subset of the Cambridge Structural Database (CSD) v543 
# hosted by the Cambridge Crystallographic Data Centre (CCDC).
#
# This work is licensed under the Creative Commons
# Attribution-NonCommercial-ShareAlike 4.0 International License.
# To view a copy of this license, visit
# http://creativecommons.org/licenses/by-nc-sa/4.0/
# or send a letter to
# Creative Commons, PO Box 1866, Mountain View, CA 94042, USA.
#
# CIF created using the CSD Python API on 29 September 2022
# The structure has been converted into the P1 space group
# The structure has a 3D framework
# The original CSD entry FANQER is in the monoclinic crystal system
# The framework has been calculated to contain at least 10.0% void space
# The void calculation uses a probe of radius 1.32A, grid spacing 0.4
#
###############################################################################

data_FANQER
_chemical_formula_moiety         '(C44 H32 Mn13 N35 O8 W4)n'
_symmetry_cell_setting           triclinic
_symmetry_space_group_name_H-M   'P 1'
_symmetry_Int_Tables_number      1
_space_group_name_Hall           'P 1'
loop_
_symmetry_equiv_pos_site_id
_symmetry_equiv_pos_as_xyz
1 x,y,z
_cell_length_a                   7.247(2)
_cell_length_b                   14.983(5)
_cell_length_c                   22.489(7)
_cell_angle_alpha                90
_cell_angle_beta                 90.905(3)
_cell_angle_gamma                90
_cell_volume                     2441.59
loop_
_atom_site_label
_atom_site_type_symbol
_atom_site_fract_x
_atom_site_fract_y
_atom_site_fract_z
N7 N 0.1496(9) 0.6867(5) 0.3985(3)
C7 C 0.0161(9) 0.6975(4) 0.3726(3)
Mn3 Mn 0.24665(11) 0.47324(5) 0.23323(4)
Mn6 Mn 0.25335(11) 0.97324(5) 0.26677(4)
N15 N 0.0132(7) 0.8931(4) 0.2936(2)
N16 N 0.0028(8) 0.5457(4) 0.2661(3)
W1 W 0.76222(3) 0.713770(10) 0.321800(10)
Mn2 Mn 0.5000 0.5000 0.5000
O1 O 0.2305(7) 0.5368(4) 0.1480(2)
O2 O 0.7107(9) 0.4015(5) 0.5012(3)
N1 N 0.4314(7) 0.5824(3) 0.2679(2)
N2 N 0.0669(7) 0.3606(4) 0.2042(3)
N3 N 0.4868(7) 0.3931(4) 0.2064(2)
N5 N 0.6376(8) 0.5743(4) 0.4275(2)
N6 N 0.7128(9) 0.8302(5) 0.4453(3)
N8 N 0.7526(10) 0.7478(6) 0.1761(3)
N9 N 0.2791(7) 0.4014(4) 0.3251(2)
N10 N 0.3587(8) 0.4139(4) 0.4271(2)
C1 C 0.5428(8) 0.6306(4) 0.2869(3)
C2 C 0.5423(8) 0.8087(4) 0.3066(3)
C3 C 0.9254(7) 0.8310(4) 0.3035(3)
C4 C 0.9139(8) 0.6028(4) 0.2856(3)
C5 C 0.6832(8) 0.6208(4) 0.3905(3)
C6 C 0.7288(9) 0.7905(4) 0.4026(3)
C8 C 0.7580(9) 0.7341(4) 0.2265(3)
C9 C 0.3201(8) 0.4478(4) 0.3739(3)
C10 C 0.3496(11) 0.3246(5) 0.4327(3)
C11 C 0.3018(12) 0.2718(5) 0.3853(4)
C12 C 0.2702(11) 0.3128(5) 0.3304(3)
H1 H 0.3214(8) 0.5110(4) 0.3703(3)
H2 H 0.3769(11) 0.2978(5) 0.4701(3)
H3 H 0.2903(12) 0.2090(5) 0.3897(4)
H4 H 0.2417(11) 0.2773(5) 0.2965(3)
H5 H 0.323(8) 0.542(8) 0.119(3)
H6 H 0.115(5) 0.550(6) 0.130(3)
H7 H 0.805(8) 0.419(10) 0.475(4)
H8 H 0.765(9) 0.374(5) 0.535(2)
W3 W 0.23778(3) 0.286230(10) 0.678200(10)
W4 W 0.73778(3) 0.213770(10) 0.178200(10)
Mn4 Mn 0.75335(11) 0.52676(5) 0.76677(4)
O3 O 0.7695(7) 0.4632(4) 0.8520(2)
O4 O 0.2893(9) 0.5985(5) 0.4988(3)
N11 N 0.5686(7) 0.4176(3) 0.7321(2)
N12 N 0.9331(7) 0.6394(4) 0.7958(3)
N13 N 0.4331(7) 0.8606(4) 0.2958(3)
N14 N 0.5132(7) 0.6069(4) 0.7936(2)
N17 N 0.9972(8) 0.4543(4) 0.7339(3)
N18 N 0.3624(8) 0.4257(4) 0.5725(2)
N19 N 0.2872(9) 0.1698(5) 0.5547(3)
N21 N 0.2474(10) 0.2522(6) 0.8239(3)
N22 N 0.7209(7) 0.5986(4) 0.6749(2)
N23 N 0.6413(8) 0.5861(4) 0.5729(2)
C13 C 0.4572(8) 0.3694(4) 0.7131(3)
C15 C 0.4577(8) 0.1913(4) 0.6934(3)
C16 C 0.0746(7) 0.1690(4) 0.6965(3)
C17 C 0.5746(7) 0.3310(4) 0.1965(3)
C18 C 0.0861(8) 0.3972(4) 0.7144(3)
C20 C 0.3168(8) 0.3792(4) 0.6095(3)
C21 C 0.2712(9) 0.2095(4) 0.5974(3)
C23 C 0.2420(9) 0.2659(4) 0.7735(3)
C24 C 0.6799(8) 0.5522(4) 0.6261(3)
C25 C 0.6504(11) 0.6754(5) 0.5673(3)
C26 C 0.6982(12) 0.7282(5) 0.6147(4)
C27 C 0.7298(11) 0.6872(5) 0.6696(3)
H9 H 0.6786(8) 0.4890(4) 0.6297(3)
H10 H 0.6231(11) 0.7022(5) 0.5299(3)
H11 H 0.7097(12) 0.7910(5) 0.6103(4)
H12 H 0.7583(11) 0.7227(5) 0.7035(3)
H13 H 0.677(8) 0.458(8) 0.881(3)
H14 H 0.885(5) 0.450(6) 0.870(3)
H15 H 0.195(8) 0.581(10) 0.525(4)
H16 H 0.235(9) 0.626(5) 0.465(2)
N20 N 0.8504(9) 0.3133(5) 0.6015(3)
C14 C 0.9577(8) 0.3087(4) 0.1934(3)
C22 C 0.9839(9) 0.3025(4) 0.6274(3)
Mn2_2 Mn 0.0000 0.0000 0.0000
O1_2 O 0.2695(7) 0.0368(4) 0.3520(2)
N1_2 N 0.0686(7) 0.0824(3) 0.2321(2)
N4 N 0.4972(8) 0.0457(4) 0.2339(3)
H1_2 H 0.1786(8) 0.0110(4) 0.1297(3)
H5_2 H 0.177(8) 0.042(8) 0.381(3)
H6_2 H 0.385(5) 0.050(6) 0.370(3)
O4_2 O 0.2107(9) 0.0985(5) 0.0012(3)
C19 C 0.5861(8) 0.1028(4) 0.2144(3)
H16_2 H 0.265(9) 0.126(5) 0.035(2)
Mn2_3 Mn 0.0000 0.0000 1.0000
H15_2 H 0.305(8) 0.081(10) 0.975(4)
Mn2_4 Mn 0.0000 1.0000 0.0000
N9_2 N 0.2209(7) 0.9014(4) 0.1749(2)
N10_2 N 0.1413(8) 0.9139(4) 0.0729(2)
C9_2 C 0.1799(8) 0.9478(4) 0.1261(3)
C10_2 C 0.1504(11) 0.8246(5) 0.0673(3)
C11_2 C 0.1982(12) 0.7718(5) 0.1147(4)
C12_2 C 0.2298(11) 0.8128(5) 0.1696(3)
H2_2 H 0.1231(11) 0.7978(5) 0.0299(3)
H3_2 H 0.2097(12) 0.7090(5) 0.1103(4)
H4_2 H 0.2583(11) 0.7773(5) 0.2035(3)
Mn2_5 Mn 0.0000 1.0000 1.0000
W3_2 W 0.26222(3) 0.786230(10) 0.821800(10)
N18_2 N 0.1376(8) 0.9257(4) 0.9275(2)
N19_2 N 0.2128(9) 0.6698(5) 0.9453(3)
N20_2 N 0.6496(9) 0.8133(5) 0.8985(3)
N21_2 N 0.2526(10) 0.7522(6) 0.6761(3)
C13_2 C 0.0428(8) 0.8694(4) 0.7869(3)
C15_2 C 0.0423(8) 0.6913(4) 0.8066(3)
C16_2 C 0.4254(7) 0.6690(4) 0.8035(3)
C18_2 C 0.4139(8) 0.8972(4) 0.7856(3)
C20_2 C 0.1832(8) 0.8792(4) 0.8905(3)
C21_2 C 0.2288(9) 0.7095(4) 0.9026(3)
C22_2 C 0.5161(9) 0.8025(4) 0.8726(3)
C23_2 C 0.2580(9) 0.7659(4) 0.7265(3)
Mn2_6 Mn 1.0000 0.0000 0.0000
N5_2 N 0.8624(8) 0.0743(4) 0.0725(2)
N6_2 N 0.7872(9) 0.3302(5) 0.0547(3)
N7_2 N 0.3504(9) 0.1867(5) 0.1015(3)
N8_2 N 0.7474(10) 0.2478(6) 0.3239(3)
C1_2 C 0.9572(8) 0.1306(4) 0.2131(3)
C5_2 C 0.8168(8) 0.1208(4) 0.1095(3)
C6_2 C 0.7712(9) 0.2905(4) 0.0974(3)
C7_2 C 0.4839(9) 0.1975(4) 0.1274(3)
C8_2 C 0.7420(9) 0.2341(4) 0.2735(3)
Mn2_7 Mn 1.0000 0.0000 1.0000
Mn4_2 Mn 0.74665(11) 0.02676(5) 0.73323(4)
N12_2 N 0.5669(7) 0.1394(4) 0.7042(3)
N14_2 N 0.9868(7) 0.1069(4) 0.7064(2)
N22_2 N 0.7791(7) 0.0986(4) 0.8251(2)
N23_2 N 0.8587(8) 0.0861(4) 0.9271(2)
C24_2 C 0.8201(8) 0.0522(4) 0.8739(3)
C25_2 C 0.8496(11) 0.1754(5) 0.9327(3)
C26_2 C 0.8018(12) 0.2282(5) 0.8853(4)
C27_2 C 0.7702(11) 0.1872(5) 0.8304(3)
H10_2 H 0.8769(11) 0.2022(5) 0.9701(3)
H11_2 H 0.7903(12) 0.2910(5) 0.8897(4)
H12_2 H 0.7417(11) 0.2227(5) 0.7965(3)
Mn2_8 Mn 1.0000 1.0000 0.0000
H7_2 H 0.695(8) 0.919(10) 0.025(4)
Mn2_9 Mn 1.0000 1.0000 1.0000
O2_2 O 0.7893(9) 0.9015(5) 0.9988(3)
H8_2 H 0.735(9) 0.874(5) 0.965(2)
O3_2 O 0.7305(7) 0.9632(4) 0.6480(2)
N11_2 N 0.9314(7) 0.9176(3) 0.7679(2)
N17_2 N 0.5028(8) 0.9543(4) 0.7661(3)
H9_2 H 0.8214(8) 0.9890(4) 0.8703(3)
H13_2 H 0.823(8) 0.958(8) 0.619(3)
H14_2 H 0.615(5) 0.950(6) 0.630(3)
loop_
_geom_bond_atom_site_label_1
_geom_bond_atom_site_label_2
_geom_bond_site_symmetry_1
_geom_bond_site_symmetry_2
N7 C7 1_555 1_555
Mn3 N16 1_555 1_555
Mn6 N15 1_555 1_555
W1 C1 1_555 1_555
Mn3 O1 1_555 1_555
Mn2 O2 1_555 1_555
O1 H5 1_555 1_555
O2 H7 1_555 1_555
N1 Mn3 1_555 1_555
N2 Mn3 1_555 1_555
N3 Mn3 1_555 1_555
N5 Mn2 1_555 1_555
N6 C6 1_555 1_555
N8 C8 1_555 1_555
N9 Mn3 1_555 1_555
N10 Mn2 1_555 1_555
C1 N1 1_555 1_555
C2 W1 1_555 1_555
C3 W1 1_555 1_555
C4 W1 1_555 1_555
C5 W1 1_555 1_555
C6 W1 1_555 1_555
C8 W1 1_555 1_555
C9 N9 1_555 1_555
C10 N10 1_555 1_555
C11 C10 1_555 1_555
C12 N9 1_555 1_555
H1 C9 1_555 1_555
H2 C10 1_555 1_555
H3 C11 1_555 1_555
H4 C12 1_555 1_555
H6 O1 1_555 1_555
H8 O2 1_555 1_555
W3 C13 1_555 1_555
W4 C17 1_555 1_555
Mn4 O3 1_555 1_555
Mn6 N13 1_555 1_555
O3 H13 1_555 1_555
O4 Mn2 1_555 1_555
N11 Mn4 1_555 1_555
N12 Mn4 1_555 1_555
N13 C2 1_555 1_555
N14 Mn4 1_555 1_555
N17 Mn4 1_555 1_555
N18 Mn2 1_555 1_555
N19 C21 1_555 1_555
N21 C23 1_555 1_555
N22 Mn4 1_555 1_555
N23 Mn2 1_555 1_555
C13 N11 1_555 1_555
C15 W3 1_555 1_555
C16 W3 1_555 1_555
C17 N3 1_555 1_555
C18 W3 1_555 1_555
C20 W3 1_555 1_555
C21 W3 1_555 1_555
C23 W3 1_555 1_555
C24 N22 1_555 1_555
C25 N23 1_555 1_555
C26 C25 1_555 1_555
C27 N22 1_555 1_555
H9 C24 1_555 1_555
H10 C25 1_555 1_555
H11 C26 1_555 1_555
H12 C27 1_555 1_555
H14 O3 1_555 1_555
H15 O4 1_555 1_555
H16 O4 1_555 1_555
N5 C5 1_555 1_555
N10 C9 1_555 1_555
C11 C12 1_555 1_555
N18 C20 1_555 1_555
N23 C24 1_555 1_555
C26 C27 1_555 1_555
W4 C14 1_555 1_555
N20 C22 1_555 1_555
O1_2 H5_2 1_555 1_555
H6_2 O1_2 1_555 1_555
W4 C19 1_555 1_555
O4_2 Mn2_2 1_555 1_555
C19 N4 1_555 1_555
H16_2 O4_2 1_555 1_555
N9_2 Mn6 1_555 1_555
N10_2 Mn2_4 1_555 1_555
C9_2 N9_2 1_555 1_555
C10_2 N10_2 1_555 1_555
C11_2 C10_2 1_555 1_555
C12_2 N9_2 1_555 1_555
H2_2 C10_2 1_555 1_555
H3_2 C11_2 1_555 1_555
H4_2 C12_2 1_555 1_555
N10_2 C9_2 1_555 1_555
C11_2 C12_2 1_555 1_555
W3_2 C13_2 1_555 1_555
N18_2 Mn2_5 1_555 1_555
N19_2 C21_2 1_555 1_555
N20_2 C22_2 1_555 1_555
N21_2 C23_2 1_555 1_555
C15_2 W3_2 1_555 1_555
C16_2 W3_2 1_555 1_555
C18_2 W3_2 1_555 1_555
C20_2 W3_2 1_555 1_555
C21_2 W3_2 1_555 1_555
C22_2 W3_2 1_555 1_555
C23_2 W3_2 1_555 1_555
N18_2 C20_2 1_555 1_555
W4 C1_2 1_555 1_555
N5_2 Mn2_6 1_555 1_555
N6_2 C6_2 1_555 1_555
N7_2 C7_2 1_555 1_555
N8_2 C8_2 1_555 1_555
C5_2 W4 1_555 1_555
C6_2 W4 1_555 1_555
C7_2 W4 1_555 1_555
C8_2 W4 1_555 1_555
N5_2 C5_2 1_555 1_555
N12_2 Mn4_2 1_555 1_555
N14_2 Mn4_2 1_555 1_555
N22_2 Mn4_2 1_555 1_555
N23_2 Mn2_7 1_555 1_555
C24_2 N22_2 1_555 1_555
C25_2 N23_2 1_555 1_555
C26_2 C25_2 1_555 1_555
C27_2 N22_2 1_555 1_555
H10_2 C25_2 1_555 1_555
H11_2 C26_2 1_555 1_555
H12_2 C27_2 1_555 1_555
N23_2 C24_2 1_555 1_555
C26_2 C27_2 1_555 1_555
Mn2_9 O2_2 1_555 1_555
H8_2 O2_2 1_555 1_555
O3_2 H13_2 1_555 1_555
H14_2 O3_2 1_555 1_555
N12_2 C15 1_555 1_555
C16_2 N14 1_555 1_555
N17_2 C18_2 1_555 1_555

#END
