
###############################################################################
#
# This file contains modified crystal structure data generated from the
# MOF subset of the Cambridge Structural Database (CSD) v543 
# hosted by the Cambridge Crystallographic Data Centre (CCDC).
#
# This work is licensed under the Creative Commons
# Attribution-NonCommercial-ShareAlike 4.0 International License.
# To view a copy of this license, visit
# http://creativecommons.org/licenses/by-nc-sa/4.0/
# or send a letter to
# Creative Commons, PO Box 1866, Mountain View, CA 94042, USA.
#
# CIF created using the CSD Python API on 29 September 2022
# The structure has been converted into the P1 space group
# The structure has a 3D framework
# The original CSD entry FANWIC is in the trigonal crystal system
# The framework has been calculated to contain at least 10.0% void space
# The void calculation uses a probe of radius 1.32A, grid spacing 0.4
#
###############################################################################

data_FANWIC
_chemical_formula_moiety         '(C156 H108 N36 O25 Zn8)n'
_symmetry_cell_setting           triclinic
_symmetry_space_group_name_H-M   'P 1'
_symmetry_Int_Tables_number      1
_space_group_name_Hall           'P 1'
loop_
_symmetry_equiv_pos_site_id
_symmetry_equiv_pos_as_xyz
1 x,y,z
_cell_length_a                   18.9863(11)
_cell_length_b                   18.9863(11)
_cell_length_c                   18.0965(10)
_cell_angle_alpha                90
_cell_angle_beta                 90
_cell_angle_gamma                120
_cell_volume                     5649.45
loop_
_atom_site_label
_atom_site_type_symbol
_atom_site_fract_x
_atom_site_fract_y
_atom_site_fract_z
O14 O 0.1638(3) 0.6562(2) 0.0412(3)
C35 C 0.0472(6) 0.5505(4) 0.7331(4)
C37 C 0.0528(6) 0.5834(4) 0.6660(4)
H23 H 0.1036 0.6240 0.6482
C41 C 0.0786(6) 0.6650(5) 0.8631(6)
H27 H 0.1094 0.7120 0.8946
H29 H 0.0310 0.6246 0.8896
H31 H 0.0616 0.6813 0.8189
C43 C 0.1300(4) 0.6298(3) 0.8423(4)
C45 C 0.1764(4) 0.5590(3) 0.7854(4)
C51 C 0.0009(6) 0.3125(4) 0.4340(5)
C53 C 0.0840(6) 0.3590(4) 0.4362(5)
H35 H 0.1159 0.3383 0.4169
C55 C 0.1209(5) 0.4359(3) 0.4666(4)
C57 C 0.0747(6) 0.4672(4) 0.4913(4)
H37 H 0.0997 0.5206 0.5098
C61 C 0.2438(8) 0.5148(6) 0.3369(5)
H41 H 0.2930 0.5478 0.3086
H43 H 0.2069 0.5357 0.3304
H45 H 0.2180 0.4590 0.3197
C63 C 0.2647(6) 0.5180(4) 0.4165(4)
C65 C 0.2535(6) 0.5035(4) 0.5359(4)
C67 C 0.2189(6) 0.4761(4) 0.6111(4)
C69 C 0.1910(8) 0.3962(5) 0.6321(5)
H47 H 0.1912 0.3590 0.5980
C71 C 0.1630(9) 0.3714(5) 0.7031(7)
H49 H 0.1458 0.3177 0.7178
C73 C 0.1603(8) 0.4248(5) 0.7522(5)
H51 H 0.1422 0.4073 0.8007
C75 C 0.1831(5) 0.5028(3) 0.7326(4)
C77 C 0.2132(6) 0.5284(4) 0.6610(4)
H53 H 0.2300 0.5821 0.6465
N7 N 0.1943(4) 0.6391(3) 0.8772(3)
N9 N 0.2232(4) 0.5938(3) 0.8422(3)
N11 N 0.1173(4) 0.5809(3) 0.7824(3)
N13 N 0.3385(6) 0.5564(4) 0.4438(4)
N15 N 0.3313(6) 0.5466(4) 0.5213(4)
N17 N 0.2086(4) 0.4830(3) 0.4716(3)
O7 O 0.3333 0.6666 0.9921(4)
O19 O 0.3205(2) 0.8213(3) 0.9883(3)
Zn3 Zn 0.25711(4) 0.70488(3) 0.96496(4)
O13 O 0.3438(2) 0.5076(2) 0.0412(3)
C1 C 0.5320(3) 0.3638(4) 0.6051(4)
C2 C 0.5028(3) 0.4112(3) 0.6496(4)
C3 C 0.5371(4) 0.4399(5) 0.7192(5)
H1 H 0.5778 0.4300 0.7373
C4 C 0.5104(5) 0.4833(6) 0.7615(6)
H2 H 0.5329 0.5033 0.8084
C5 C 0.4495(4) 0.4967(4) 0.7331(4)
C6 C 0.4166(4) 0.4694(4) 0.6660(4)
H3 H 0.3760 0.4796 0.6482
C7 C 0.4425(4) 0.4260(4) 0.6232(4)
H4 H 0.4195 0.4067 0.5764
C8 C 0.3350(5) 0.4136(4) 0.8631(6)
H5 H 0.2880 0.3974 0.8946
H6 H 0.3754 0.4064 0.8896
H7 H 0.3187 0.3803 0.8189
C9 C 0.3702(3) 0.5002(3) 0.8423(4)
C10 C 0.4410(3) 0.6174(3) 0.7854(4)
C11 C 0.7112(4) 0.5711(4) 0.4597(4)
C12 C 0.6586(3) 0.6119(3) 0.4608(4)
C13 C 0.6875(4) 0.6884(4) 0.4340(5)
H8 H 0.7400 0.7166 0.4136
C14 C 0.6410(4) 0.7250(4) 0.4362(5)
H9 H 0.6617 0.7776 0.4169
C15 C 0.5641(3) 0.6850(4) 0.4666(4)
C16 C 0.5328(4) 0.6075(4) 0.4913(4)
H10 H 0.4794 0.5791 0.5098
C17 C 0.5794(4) 0.5704(4) 0.4893(4)
H11 H 0.5579 0.5170 0.5071
C18 C 0.4852(6) 0.7290(6) 0.3369(5)
H12 H 0.4522 0.7452 0.3086
H13 H 0.4643 0.6712 0.3304
H14 H 0.5410 0.7590 0.3197
C19 C 0.4820(4) 0.7467(4) 0.4165(4)
C20 C 0.4965(4) 0.7500(4) 0.5359(4)
C21 C 0.5239(4) 0.7428(4) 0.6111(4)
C22 C 0.6038(5) 0.7948(6) 0.6321(5)
H15 H 0.6410 0.8322 0.5980
C23 C 0.6286(5) 0.7916(8) 0.7031(7)
H16 H 0.6823 0.8281 0.7178
C24 C 0.5752(5) 0.7355(6) 0.7522(5)
H17 H 0.5927 0.7349 0.8007
C25 C 0.4972(3) 0.6803(4) 0.7326(4)
C26 C 0.4716(4) 0.6848(4) 0.6610(4)
H18 H 0.4179 0.6479 0.6465
N1 N 0.3609(3) 0.5552(3) 0.8772(3)
N2 N 0.4062(3) 0.6294(3) 0.8422(3)
N3 N 0.4191(3) 0.5364(3) 0.7824(3)
N4 N 0.4436(4) 0.7821(4) 0.4438(4)
N5 N 0.4534(4) 0.7847(4) 0.5213(4)
N6 N 0.5170(3) 0.7256(3) 0.4716(3)
O1 O 0.6667 0.3333 0.4921(4)
O2 O 0.5809(3) 0.3480(3) 0.6401(3)
O3 O 0.5076(2) 0.3438(2) 0.5412(3)
O4 O 0.6795(2) 0.5008(2) 0.4883(3)
O5 O 0.7795(3) 0.6073(3) 0.4311(3)
Zn1 Zn 0.6667 0.3333 0.59782(6)
Zn2 Zn 0.29512(3) 0.55223(3) 0.96496(4)
C27 C 0.8318(5) 0.4680(3) 0.6051(4)
C28 C 0.6362(4) 0.1682(5) 0.6051(4)
C29 C 0.9084(4) 0.4972(3) 0.6496(4)
C30 C 0.5888(3) 0.0916(4) 0.6496(4)
C31 C 0.9028(6) 0.4629(4) 0.7192(5)
C32 C 0.5601(5) 0.0972(6) 0.7192(5)
H19 H 0.8522 0.4222 0.7373
H20 H 0.5700 0.1478 0.7373
C33 C 0.9729(8) 0.4896(5) 0.7615(6)
C34 C 0.5167(6) 0.0271(8) 0.7615(6)
H21 H 0.9704 0.4671 0.8084
H22 H 0.4967 0.0296 0.8084
C39 C 0.9835(6) 0.5575(4) 0.6232(4)
C40 C 0.5740(4) 0.0165(6) 0.6232(4)
H25 H 0.9872 0.5805 0.5764
H26 H 0.5933 0.0128 0.5764
C47 C 0.8599(6) 0.2888(4) 0.4597(4)
C48 C 0.4289(4) 0.1401(6) 0.4597(4)
C49 C 0.9533(4) 0.3414(3) 0.4608(4)
C50 C 0.3881(3) 0.0467(4) 0.4608(4)
H33 H 0.9766 0.2600 0.4136
H34 H 0.2834 0.0234 0.4136
C59 C 0.9910(6) 0.4206(4) 0.4893(4)
C60 C 0.4296(4) 0.0090(6) 0.4893(4)
H39 H 0.9591 0.4421 0.5071
H40 H 0.4830 0.0409 0.5071
O9 O 0.7671(4) 0.4191(3) 0.6401(3)
O10 O 0.6520(3) 0.2329(4) 0.6401(3)
O11 O 0.8362(3) 0.4924(2) 0.5412(3)
O12 O 0.6562(2) 0.1638(3) 0.5412(3)
O16 O 0.8213(3) 0.3205(2) 0.4883(3)
O17 O 0.4992(2) 0.1787(3) 0.4883(3)
O18 O 0.1787(3) 0.4992(2) 0.9883(3)
O21 O 0.8278(4) 0.2205(3) 0.4311(3)
O22 O 0.3927(3) 0.1722(4) 0.4311(3)
Zn5 Zn 0.74289(4) 0.44777(3) 0.46496(4)
Zn6 Zn 0.55223(3) 0.29512(3) 0.46496(4)
Zn7 Zn 0.70488(3) 0.25711(4) 0.46496(4)
O15 O 0.4924(2) 0.8362(3) 0.0412(3)
C36 C 0.5033(4) 0.9528(6) 0.7331(4)
C38 C 0.5306(4) 0.9472(6) 0.6660(4)
H24 H 0.5204 0.8964 0.6482
C42 C 0.5864(4) 0.9214(6) 0.8631(6)
H28 H 0.6026 0.8906 0.8946
H30 H 0.5936 0.9690 0.8896
H32 H 0.6197 0.9384 0.8189
C44 C 0.4998(3) 0.8700(4) 0.8423(4)
C46 C 0.3826(3) 0.8236(4) 0.7854(4)
C52 C 0.3116(4) 0.9991(6) 0.4340(5)
C54 C 0.2750(4) 0.9160(6) 0.4362(5)
H36 H 0.2224 0.8841 0.4169
C56 C 0.3150(4) 0.8791(5) 0.4666(4)
C58 C 0.3925(4) 0.9253(6) 0.4913(4)
H38 H 0.4209 0.9003 0.5098
C62 C 0.2710(6) 0.7562(8) 0.3369(5)
H42 H 0.2548 0.7070 0.3086
H44 H 0.3288 0.7931 0.3304
H46 H 0.2410 0.7820 0.3197
C64 C 0.2533(4) 0.7353(6) 0.4165(4)
C66 C 0.2500(4) 0.7465(6) 0.5359(4)
C68 C 0.2572(4) 0.7811(6) 0.6111(4)
C70 C 0.2052(6) 0.8090(8) 0.6321(5)
H48 H 0.1678 0.8088 0.5980
C72 C 0.2084(8) 0.8370(9) 0.7031(7)
H50 H 0.1719 0.8542 0.7178
C74 C 0.2645(6) 0.8397(8) 0.7522(5)
H52 H 0.2651 0.8578 0.8007
C76 C 0.3197(4) 0.8169(5) 0.7326(4)
C78 C 0.3152(4) 0.7868(6) 0.6610(4)
H54 H 0.3521 0.7700 0.6465
N8 N 0.4448(3) 0.8057(4) 0.8772(3)
N10 N 0.3706(3) 0.7768(4) 0.8422(3)
N12 N 0.4636(3) 0.8827(4) 0.7824(3)
N14 N 0.2179(4) 0.6615(6) 0.4438(4)
N16 N 0.2153(4) 0.6687(6) 0.5213(4)
N18 N 0.2744(3) 0.7914(4) 0.4716(3)
O20 O 0.5008(2) 0.6795(2) 0.9883(3)
Zn4 Zn 0.44777(3) 0.74289(4) 0.96496(4)
C35_2 C 0.5505(4) 0.0472(6) 0.2331(4)
C37_2 C 0.5834(4) 0.0528(6) 0.1660(4)
H23_2 H 0.6240 0.1036 0.1482
C41_2 C 0.6650(5) 0.0786(6) 0.3631(6)
H27_2 H 0.7120 0.1094 0.3946
H29_2 H 0.6246 0.0310 0.3896
H31_2 H 0.6813 0.0616 0.3189
C43_2 C 0.6298(3) 0.1300(4) 0.3423(4)
C45_2 C 0.5590(3) 0.1764(4) 0.2854(4)
H37_2 H 0.5206 0.0997 0.0098
C65_2 C 0.5035(4) 0.2535(6) 0.0359(4)
C67_2 C 0.4761(4) 0.2189(6) 0.1111(4)
C69_2 C 0.3962(5) 0.1910(8) 0.1321(5)
H47_2 H 0.3590 0.1912 0.0980
C71_2 C 0.3714(5) 0.1630(9) 0.2031(7)
H49_2 H 0.3177 0.1458 0.2178
C73_2 C 0.4248(5) 0.1603(8) 0.2522(5)
H51_2 H 0.4073 0.1422 0.3007
C75_2 C 0.5028(3) 0.1831(5) 0.2326(4)
C77_2 C 0.5284(4) 0.2132(6) 0.1610(4)
H53_2 H 0.5821 0.2300 0.1465
N7_2 N 0.6391(3) 0.1943(4) 0.3772(3)
N9_2 N 0.5938(3) 0.2232(4) 0.3422(3)
N11_2 N 0.5809(3) 0.1173(4) 0.2824(3)
N15_2 N 0.5466(4) 0.3313(6) 0.0213(4)
C1_2 C 0.3638(4) 0.5320(3) 0.1051(4)
C2_2 C 0.4112(3) 0.5028(3) 0.1496(4)
C3_2 C 0.4399(5) 0.5371(4) 0.2192(5)
H1_2 H 0.4300 0.5778 0.2373
C4_2 C 0.4833(6) 0.5104(5) 0.2615(6)
H2_2 H 0.5033 0.5329 0.3084
C5_2 C 0.4967(4) 0.4495(4) 0.2331(4)
C6_2 C 0.4694(4) 0.4166(4) 0.1660(4)
H3_2 H 0.4796 0.3760 0.1482
C7_2 C 0.4260(4) 0.4425(4) 0.1232(4)
H4_2 H 0.4067 0.4195 0.0764
C8_2 C 0.4136(4) 0.3350(5) 0.3631(6)
H5_2 H 0.3974 0.2880 0.3946
H6_2 H 0.4064 0.3754 0.3896
H7_2 H 0.3803 0.3187 0.3189
C9_2 C 0.5002(3) 0.3702(3) 0.3423(4)
C10_2 C 0.6174(3) 0.4410(3) 0.2854(4)
H10_2 H 0.5791 0.4794 0.0098
H11_2 H 0.5170 0.5579 0.0071
C20_2 C 0.7500(4) 0.4965(4) 0.0359(4)
C21_2 C 0.7428(4) 0.5239(4) 0.1111(4)
C22_2 C 0.7948(6) 0.6038(5) 0.1321(5)
H15_2 H 0.8322 0.6410 0.0980
C23_2 C 0.7916(8) 0.6286(5) 0.2031(7)
H16_2 H 0.8281 0.6823 0.2178
C24_2 C 0.7355(6) 0.5752(5) 0.2522(5)
H17_2 H 0.7349 0.5927 0.3007
C25_2 C 0.6803(4) 0.4972(3) 0.2326(4)
C26_2 C 0.6848(4) 0.4716(4) 0.1610(4)
H18_2 H 0.6479 0.4179 0.1465
N1_2 N 0.5552(3) 0.3609(3) 0.3772(3)
N2_2 N 0.6294(3) 0.4062(3) 0.3422(3)
N3_2 N 0.5364(3) 0.4191(3) 0.2824(3)
N5_2 N 0.7847(4) 0.4534(4) 0.0213(4)
O2_2 O 0.3480(3) 0.5809(3) 0.1401(3)
Zn1_2 Zn 0.3333 0.6667 0.09782(6)
C27_2 C 0.4680(3) 0.8318(5) 0.1051(4)
C28_2 C 0.1682(5) 0.6362(4) 0.1051(4)
C29_2 C 0.4972(3) 0.9084(4) 0.1496(4)
C30_2 C 0.0916(4) 0.5888(3) 0.1496(4)
C31_2 C 0.4629(4) 0.9028(6) 0.2192(5)
C32_2 C 0.0972(6) 0.5601(5) 0.2192(5)
H19_2 H 0.4222 0.8522 0.2373
H20_2 H 0.1478 0.5700 0.2373
C33_2 C 0.4896(5) 0.9729(8) 0.2615(6)
C34_2 C 0.0271(8) 0.5167(6) 0.2615(6)
H21_2 H 0.4671 0.9704 0.3084
H22_2 H 0.0296 0.4967 0.3084
C39_2 C 0.5575(4) 0.9835(6) 0.1232(4)
C40_2 C 0.0165(6) 0.5740(4) 0.1232(4)
H25_2 H 0.5805 0.9872 0.0764
H26_2 H 0.0128 0.5933 0.0764
H39_2 H 0.4421 0.9591 0.0071
H40_2 H 0.0409 0.4830 0.0071
O9_2 O 0.4191(3) 0.7671(4) 0.1401(3)
O10_2 O 0.2329(4) 0.6520(3) 0.1401(3)
C11_2 C 0.5711(4) 0.7112(4) 0.9597(4)
C12_2 C 0.6119(3) 0.6586(3) 0.9608(4)
C13_2 C 0.6884(4) 0.6875(4) 0.9340(5)
H8_2 H 0.7166 0.7400 0.9136
C14_2 C 0.7250(4) 0.6410(4) 0.9362(5)
H9_2 H 0.7776 0.6617 0.9169
C15_2 C 0.6850(4) 0.5641(3) 0.9666(4)
C16_2 C 0.6075(4) 0.5328(4) 0.9913(4)
C17_2 C 0.5704(4) 0.5794(4) 0.9893(4)
C18_2 C 0.7290(6) 0.4852(6) 0.8369(5)
H12_2 H 0.7452 0.4522 0.8086
H13_2 H 0.6712 0.4643 0.8304
H14_2 H 0.7590 0.5410 0.8197
C19_2 C 0.7467(4) 0.4820(4) 0.9165(4)
N4_2 N 0.7821(4) 0.4436(4) 0.9438(4)
N6_2 N 0.7256(3) 0.5170(3) 0.9716(3)
O5_2 O 0.6073(3) 0.7795(3) 0.9311(3)
C47_2 C 0.2888(4) 0.8599(6) 0.9597(4)
C48_2 C 0.1401(6) 0.4289(4) 0.9597(4)
C49_2 C 0.3414(3) 0.9533(4) 0.9608(4)
C50_2 C 0.0467(4) 0.3881(3) 0.9608(4)
H33_2 H 0.2600 0.9766 0.9136
H34_2 H 0.0234 0.2834 0.9136
C59_2 C 0.4206(4) 0.9910(6) 0.9893(4)
C60_2 C 0.0090(6) 0.4296(4) 0.9893(4)
O21_2 O 0.2205(3) 0.8278(4) 0.9311(3)
O22_2 O 0.1722(4) 0.3927(3) 0.9311(3)
C36_2 C 0.9528(6) 0.5033(4) 0.2331(4)
C38_2 C 0.9472(6) 0.5306(4) 0.1660(4)
H24_2 H 0.8964 0.5204 0.1482
C42_2 C 0.9214(6) 0.5864(4) 0.3631(6)
H28_2 H 0.8906 0.6026 0.3946
H30_2 H 0.9690 0.5936 0.3896
H32_2 H 0.9384 0.6197 0.3189
C44_2 C 0.8700(4) 0.4998(3) 0.3423(4)
C46_2 C 0.8236(4) 0.3826(3) 0.2854(4)
H38_2 H 0.9003 0.4209 0.0098
C66_2 C 0.7465(6) 0.2500(4) 0.0359(4)
C68_2 C 0.7811(6) 0.2572(4) 0.1111(4)
C70_2 C 0.8090(8) 0.2052(6) 0.1321(5)
H48_2 H 0.8088 0.1678 0.0980
C72_2 C 0.8370(9) 0.2084(8) 0.2031(7)
H50_2 H 0.8542 0.1719 0.2178
C74_2 C 0.8397(8) 0.2645(6) 0.2522(5)
H52_2 H 0.8578 0.2651 0.3007
C76_2 C 0.8169(5) 0.3197(4) 0.2326(4)
C78_2 C 0.7868(6) 0.3152(4) 0.1610(4)
H54_2 H 0.7700 0.3521 0.1465
N8_2 N 0.8057(4) 0.4448(3) 0.3772(3)
N10_2 N 0.7768(4) 0.3706(3) 0.3422(3)
N12_2 N 0.8827(4) 0.4636(3) 0.2824(3)
N16_2 N 0.6687(6) 0.2153(4) 0.0213(4)
C51_2 C 0.3125(4) 0.0009(6) 0.9340(5)
C53_2 C 0.3590(4) 0.0840(6) 0.9362(5)
H35_2 H 0.3383 0.1159 0.9169
C55_2 C 0.4359(3) 0.1209(5) 0.9666(4)
C57_2 C 0.4672(4) 0.0747(6) 0.9913(4)
C61_2 C 0.5148(6) 0.2438(8) 0.8369(5)
H41_2 H 0.5478 0.2930 0.8086
H43_2 H 0.5357 0.2069 0.8304
H45_2 H 0.4590 0.2180 0.8197
C63_2 C 0.5180(4) 0.2647(6) 0.9165(4)
N13_2 N 0.5564(4) 0.3385(6) 0.9438(4)
N17_2 N 0.4830(3) 0.2086(4) 0.9716(3)
C52_2 C 0.9991(6) 0.3116(4) 0.9340(5)
C54_2 C 0.9160(6) 0.2750(4) 0.9362(5)
H36_2 H 0.8841 0.2224 0.9169
C56_2 C 0.8791(5) 0.3150(4) 0.9666(4)
C58_2 C 0.9253(6) 0.3925(4) 0.9913(4)
C62_2 C 0.7562(8) 0.2710(6) 0.8369(5)
H42_2 H 0.7070 0.2548 0.8086
H44_2 H 0.7931 0.3288 0.8304
H46_2 H 0.7820 0.2410 0.8197
C64_2 C 0.7353(6) 0.2533(4) 0.9165(4)
N14_2 N 0.6615(6) 0.2179(4) 0.9438(4)
N18_2 N 0.7914(4) 0.2744(3) 0.9716(3)
loop_
_geom_bond_atom_site_label_1
_geom_bond_atom_site_label_2
_geom_bond_site_symmetry_1
_geom_bond_site_symmetry_2
C37 C35 1_555 1_555
H23 C37 1_555 1_555
C41 H27 1_555 1_555
H29 C41 1_555 1_555
H31 C41 1_555 1_555
C43 C41 1_555 1_555
C45 C75 1_555 1_555
C53 C51 1_555 1_555
H35 C53 1_555 1_555
C55 C53 1_555 1_555
C57 C55 1_555 1_555
H37 C57 1_555 1_555
C61 H41 1_555 1_555
H43 C61 1_555 1_555
H45 C61 1_555 1_555
C63 C61 1_555 1_555
C65 C67 1_555 1_555
C67 C69 1_555 1_555
C69 H47 1_555 1_555
C71 C69 1_555 1_555
H49 C71 1_555 1_555
C73 C71 1_555 1_555
H51 C73 1_555 1_555
C75 C73 1_555 1_555
C77 C67 1_555 1_555
H53 C77 1_555 1_555
N7 C43 1_555 1_555
N9 C45 1_555 1_555
N11 C35 1_555 1_555
N13 C63 1_555 1_555
N15 C65 1_555 1_555
N17 C55 1_555 1_555
O7 Zn3 1_555 1_555
O19 Zn3 1_555 1_555
Zn3 N7 1_555 1_555
C43 N11 1_555 1_555
C45 N11 1_555 1_555
C63 N17 1_555 1_555
C65 N17 1_555 1_555
C75 C77 1_555 1_555
N7 N9 1_555 1_555
N13 N15 1_555 1_555
C1 C2 1_555 1_555
C2 C3 1_555 1_555
C3 H1 1_555 1_555
C4 C3 1_555 1_555
H2 C4 1_555 1_555
C5 C4 1_555 1_555
C6 C5 1_555 1_555
H3 C6 1_555 1_555
C7 C2 1_555 1_555
H4 C7 1_555 1_555
C8 H5 1_555 1_555
H6 C8 1_555 1_555
H7 C8 1_555 1_555
C9 C8 1_555 1_555
C10 C25 1_555 1_555
C11 C12 1_555 1_555
C12 C13 1_555 1_555
C13 H8 1_555 1_555
C14 C13 1_555 1_555
H9 C14 1_555 1_555
C15 C14 1_555 1_555
C16 C15 1_555 1_555
H10 C16 1_555 1_555
C17 C12 1_555 1_555
H11 C17 1_555 1_555
C18 H12 1_555 1_555
H13 C18 1_555 1_555
H14 C18 1_555 1_555
C19 C18 1_555 1_555
C20 C21 1_555 1_555
C21 C22 1_555 1_555
C22 H15 1_555 1_555
C23 C22 1_555 1_555
H16 C23 1_555 1_555
C24 C23 1_555 1_555
H17 C24 1_555 1_555
C25 C24 1_555 1_555
C26 C21 1_555 1_555
H18 C26 1_555 1_555
N1 C9 1_555 1_555
N2 C10 1_555 1_555
N3 C5 1_555 1_555
N4 C19 1_555 1_555
N5 C20 1_555 1_555
N6 C15 1_555 1_555
O1 Zn1 1_555 1_555
O2 C1 1_555 1_555
O3 C1 1_555 1_555
O4 C11 1_555 1_555
O5 C11 1_555 1_555
Zn1 O2 1_555 1_555
Zn2 N1 1_555 1_555
C27 C29 1_555 1_555
C28 C30 1_555 1_555
C29 C31 1_555 1_555
C30 C32 1_555 1_555
C31 H19 1_555 1_555
C32 H20 1_555 1_555
C33 C31 1_555 1_555
C34 C32 1_555 1_555
H21 C33 1_555 1_555
H22 C34 1_555 1_555
C39 C29 1_555 1_555
C40 C30 1_555 1_555
H25 C39 1_555 1_555
H26 C40 1_555 1_555
C47 C49 1_555 1_555
C48 C50 1_555 1_555
C59 C49 1_555 1_555
C60 C50 1_555 1_555
H39 C59 1_555 1_555
H40 C60 1_555 1_555
O7 Zn2 1_555 1_555
O9 Zn1 1_555 1_555
O10 Zn1 1_555 1_555
O11 C27 1_555 1_555
O12 C28 1_555 1_555
O16 C47 1_555 1_555
O17 C48 1_555 1_555
O18 Zn2 1_555 1_555
O21 C47 1_555 1_555
O22 C48 1_555 1_555
Zn5 O1 1_555 1_555
Zn6 O1 1_555 1_555
Zn7 O1 1_555 1_555
C6 C7 1_555 1_555
C9 N3 1_555 1_555
C10 N3 1_555 1_555
C16 C17 1_555 1_555
C19 N6 1_555 1_555
C20 N6 1_555 1_555
C25 C26 1_555 1_555
N1 N2 1_555 1_555
N4 N5 1_555 1_555
O3 Zn6 1_555 1_555
O4 Zn5 1_555 1_555
C27 O9 1_555 1_555
C28 O10 1_555 1_555
O11 Zn5 1_555 1_555
O12 Zn7 1_555 1_555
O16 Zn7 1_555 1_555
O17 Zn6 1_555 1_555
C38 C36 1_555 1_555
H24 C38 1_555 1_555
C42 H28 1_555 1_555
H30 C42 1_555 1_555
H32 C42 1_555 1_555
C44 C42 1_555 1_555
C46 C76 1_555 1_555
C54 C52 1_555 1_555
H36 C54 1_555 1_555
C56 C54 1_555 1_555
C58 C56 1_555 1_555
H38 C58 1_555 1_555
C62 H42 1_555 1_555
H44 C62 1_555 1_555
H46 C62 1_555 1_555
C64 C62 1_555 1_555
C66 C68 1_555 1_555
C68 C70 1_555 1_555
C70 H48 1_555 1_555
C72 C70 1_555 1_555
H50 C72 1_555 1_555
C74 C72 1_555 1_555
H52 C74 1_555 1_555
C76 C74 1_555 1_555
C78 C68 1_555 1_555
H54 C78 1_555 1_555
N8 C44 1_555 1_555
N10 C46 1_555 1_555
N12 C36 1_555 1_555
N14 C64 1_555 1_555
N16 C66 1_555 1_555
N18 C56 1_555 1_555
O7 Zn4 1_555 1_555
O20 Zn4 1_555 1_555
Zn4 N8 1_555 1_555
C44 N12 1_555 1_555
C46 N12 1_555 1_555
C64 N18 1_555 1_555
C66 N18 1_555 1_555
C76 C78 1_555 1_555
N8 N10 1_555 1_555
N14 N16 1_555 1_555
C37_2 C35_2 1_555 1_555
H23_2 C37_2 1_555 1_555
C41_2 H27_2 1_555 1_555
H29_2 C41_2 1_555 1_555
H31_2 C41_2 1_555 1_555
C43_2 C41_2 1_555 1_555
C45_2 C75_2 1_555 1_555
C65_2 C67_2 1_555 1_555
C67_2 C69_2 1_555 1_555
C69_2 H47_2 1_555 1_555
C71_2 C69_2 1_555 1_555
H49_2 C71_2 1_555 1_555
C73_2 C71_2 1_555 1_555
H51_2 C73_2 1_555 1_555
C75_2 C73_2 1_555 1_555
C77_2 C67_2 1_555 1_555
H53_2 C77_2 1_555 1_555
N7_2 C43_2 1_555 1_555
N9_2 C45_2 1_555 1_555
N11_2 C35_2 1_555 1_555
N15_2 C65_2 1_555 1_555
Zn7 N7_2 1_555 1_555
C43_2 N11_2 1_555 1_555
C45_2 N11_2 1_555 1_555
C75_2 C77_2 1_555 1_555
N7_2 N9_2 1_555 1_555
C1_2 C2_2 1_555 1_555
C2_2 C3_2 1_555 1_555
C3_2 H1_2 1_555 1_555
C4_2 C3_2 1_555 1_555
H2_2 C4_2 1_555 1_555
C5_2 C4_2 1_555 1_555
C6_2 C5_2 1_555 1_555
H3_2 C6_2 1_555 1_555
C7_2 C2_2 1_555 1_555
H4_2 C7_2 1_555 1_555
C8_2 H5_2 1_555 1_555
H6_2 C8_2 1_555 1_555
H7_2 C8_2 1_555 1_555
C9_2 C8_2 1_555 1_555
C10_2 C25_2 1_555 1_555
C20_2 C21_2 1_555 1_555
C21_2 C22_2 1_555 1_555
C22_2 H15_2 1_555 1_555
C23_2 C22_2 1_555 1_555
H16_2 C23_2 1_555 1_555
C24_2 C23_2 1_555 1_555
H17_2 C24_2 1_555 1_555
C25_2 C24_2 1_555 1_555
C26_2 C21_2 1_555 1_555
H18_2 C26_2 1_555 1_555
N1_2 C9_2 1_555 1_555
N2_2 C10_2 1_555 1_555
N3_2 C5_2 1_555 1_555
N5_2 C20_2 1_555 1_555
O2_2 C1_2 1_555 1_555
O13 C1_2 1_555 1_555
Zn1_2 O2_2 1_555 1_555
Zn6 N1_2 1_555 1_555
C27_2 C29_2 1_555 1_555
C28_2 C30_2 1_555 1_555
C29_2 C31_2 1_555 1_555
C30_2 C32_2 1_555 1_555
C31_2 H19_2 1_555 1_555
C32_2 H20_2 1_555 1_555
C33_2 C31_2 1_555 1_555
C34_2 C32_2 1_555 1_555
H21_2 C33_2 1_555 1_555
H22_2 C34_2 1_555 1_555
C39_2 C29_2 1_555 1_555
C40_2 C30_2 1_555 1_555
H25_2 C39_2 1_555 1_555
H26_2 C40_2 1_555 1_555
O9_2 Zn1_2 1_555 1_555
O10_2 Zn1_2 1_555 1_555
O15 C27_2 1_555 1_555
O14 C28_2 1_555 1_555
C6_2 C7_2 1_555 1_555
C9_2 N3_2 1_555 1_555
C10_2 N3_2 1_555 1_555
C25_2 C26_2 1_555 1_555
N1_2 N2_2 1_555 1_555
C27_2 O9_2 1_555 1_555
C28_2 O10_2 1_555 1_555
C11_2 C12_2 1_555 1_555
C12_2 C13_2 1_555 1_555
C13_2 H8_2 1_555 1_555
C14_2 C13_2 1_555 1_555
H9_2 C14_2 1_555 1_555
C15_2 C14_2 1_555 1_555
C16_2 C15_2 1_555 1_555
C17_2 C12_2 1_555 1_555
C18_2 H12_2 1_555 1_555
H13_2 C18_2 1_555 1_555
H14_2 C18_2 1_555 1_555
C19_2 C18_2 1_555 1_555
N4_2 C19_2 1_555 1_555
N6_2 C15_2 1_555 1_555
O20 C11_2 1_555 1_555
O5_2 C11_2 1_555 1_555
C47_2 C49_2 1_555 1_555
C48_2 C50_2 1_555 1_555
C59_2 C49_2 1_555 1_555
C60_2 C50_2 1_555 1_555
O19 C47_2 1_555 1_555
O18 C48_2 1_555 1_555
O21_2 C47_2 1_555 1_555
O22_2 C48_2 1_555 1_555
C16_2 C17_2 1_555 1_555
C19_2 N6_2 1_555 1_555
C38_2 C36_2 1_555 1_555
H24_2 C38_2 1_555 1_555
C42_2 H28_2 1_555 1_555
H30_2 C42_2 1_555 1_555
H32_2 C42_2 1_555 1_555
C44_2 C42_2 1_555 1_555
C46_2 C76_2 1_555 1_555
C66_2 C68_2 1_555 1_555
C68_2 C70_2 1_555 1_555
C70_2 H48_2 1_555 1_555
C72_2 C70_2 1_555 1_555
H50_2 C72_2 1_555 1_555
C74_2 C72_2 1_555 1_555
H52_2 C74_2 1_555 1_555
C76_2 C74_2 1_555 1_555
C78_2 C68_2 1_555 1_555
H54_2 C78_2 1_555 1_555
N8_2 C44_2 1_555 1_555
N10_2 C46_2 1_555 1_555
N12_2 C36_2 1_555 1_555
N16_2 C66_2 1_555 1_555
Zn5 N8_2 1_555 1_555
C44_2 N12_2 1_555 1_555
C46_2 N12_2 1_555 1_555
C76_2 C78_2 1_555 1_555
N8_2 N10_2 1_555 1_555
C53_2 C51_2 1_555 1_555
H35_2 C53_2 1_555 1_555
C55_2 C53_2 1_555 1_555
C57_2 C55_2 1_555 1_555
C61_2 H41_2 1_555 1_555
H43_2 C61_2 1_555 1_555
H45_2 C61_2 1_555 1_555
C63_2 C61_2 1_555 1_555
N13_2 C63_2 1_555 1_555
N17_2 C55_2 1_555 1_555
C63_2 N17_2 1_555 1_555
C54_2 C52_2 1_555 1_555
H36_2 C54_2 1_555 1_555
C56_2 C54_2 1_555 1_555
C58_2 C56_2 1_555 1_555
C62_2 H42_2 1_555 1_555
H44_2 C62_2 1_555 1_555
H46_2 C62_2 1_555 1_555
C64_2 C62_2 1_555 1_555
N14_2 C64_2 1_555 1_555
N18_2 C56_2 1_555 1_555
C64_2 N18_2 1_555 1_555

#END
