
###############################################################################
#
# This file contains modified crystal structure data generated from the
# MOF subset of the Cambridge Structural Database (CSD) v543 
# hosted by the Cambridge Crystallographic Data Centre (CCDC).
#
# This work is licensed under the Creative Commons
# Attribution-NonCommercial-ShareAlike 4.0 International License.
# To view a copy of this license, visit
# http://creativecommons.org/licenses/by-nc-sa/4.0/
# or send a letter to
# Creative Commons, PO Box 1866, Mountain View, CA 94042, USA.
#
# CIF created using the CSD Python API on 29 September 2022
# The structure has been converted into the P1 space group
# The structure has a 3D framework
# The original CSD entry FANWOI is in the trigonal crystal system
# The framework has been calculated to contain at least 10.0% void space
# The void calculation uses a probe of radius 1.32A, grid spacing 0.4
#
###############################################################################

data_FANWOI
_chemical_formula_moiety         '(C156 H108 N36 O25 Zn8)n'
_symmetry_cell_setting           triclinic
_symmetry_space_group_name_H-M   'P 1'
_symmetry_Int_Tables_number      1
_space_group_name_Hall           'P 1'
loop_
_symmetry_equiv_pos_site_id
_symmetry_equiv_pos_as_xyz
1 x,y,z
_cell_length_a                   19.2401(8)
_cell_length_b                   19.2401(8)
_cell_length_c                   17.8208(9)
_cell_angle_alpha                90
_cell_angle_beta                 90
_cell_angle_gamma                120
_cell_volume                     5713.11
loop_
_atom_site_label
_atom_site_type_symbol
_atom_site_fract_x
_atom_site_fract_y
_atom_site_fract_z
O14 O 0.16802(17) 0.66085(12) 0.04142(11)
C35 C 0.04825(27) 0.55665(18) 0.73239(18)
C37 C 0.0509(3) 0.5901(2) 0.66335(18)
H23 H 0.1002 0.6318 0.6439
C41 C 0.0837(3) 0.6728(2) 0.8626(3)
H27 H 0.1088 0.7087 0.9055
H29 H 0.0298 0.6301 0.8766
H31 H 0.0800 0.7035 0.8204
C43 C 0.13333(24) 0.63673(17) 0.84022(16)
C45 C 0.17671(23) 0.56475(16) 0.78147(15)
C53 C 0.0830(3) 0.3644(2) 0.4289(2)
H35 H 0.1144 0.3430 0.4095
C55 C 0.11995(24) 0.44106(17) 0.45849(16)
C57 C 0.07478(25) 0.47413(18) 0.48567(17)
H37 H 0.1004 0.5275 0.5045
C61 C 0.2409(4) 0.5171(3) 0.3255(2)
H41 H 0.2892 0.5530 0.2968
H43 H 0.2010 0.5342 0.3198
H45 H 0.2186 0.4621 0.3069
C63 C 0.26217(28) 0.5202(2) 0.40624(18)
C65 C 0.25181(25) 0.50687(18) 0.52835(17)
C67 C 0.21629(27) 0.48049(19) 0.60423(17)
C69 C 0.1879(4) 0.4018(2) 0.6257(2)
H47 H 0.1886 0.3646 0.5911
C71 C 0.1583(5) 0.3770(3) 0.6972(3)
H49 H 0.1404 0.3232 0.7119
C73 C 0.1542(4) 0.4300(2) 0.7481(2)
H51 H 0.1332 0.4123 0.7971
C75 C 0.18113(26) 0.50882(18) 0.72671(16)
C77 C 0.21261(25) 0.53408(18) 0.65503(16)
H53 H 0.2318 0.5882 0.6405
N7 N 0.19664(18) 0.64424(13) 0.87471(12)
N9 N 0.22430(19) 0.59839(14) 0.83869(13)
N11 N 0.11875(22) 0.58774(16) 0.77927(15)
N13 N 0.33567(28) 0.5567(2) 0.43395(17)
N15 N 0.32842(26) 0.54822(18) 0.51280(16)
N17 N 0.20650(21) 0.48671(15) 0.46375(13)
O7 O 0.3333 0.6666 0.99218(16)
O19 O 0.32727(13) 0.82298(18) 0.98802(12)
Zn3 Zn 0.260490(23) 0.707770(16) 0.965170(15)
O13 O 0.33915(12) 0.50717(12) 0.04142(11)
C1 C 0.53193(17) 0.36212(17) 0.60689(15)
C2 C 0.49924(17) 0.40690(18) 0.65005(15)
C3 C 0.5322(3) 0.4389(3) 0.7196(3)
H1 H 0.5745 0.4321 0.7388
C4 C 0.5043(3) 0.4802(4) 0.7611(3)
H2 H 0.5266 0.5009 0.8090
C5 C 0.44335(18) 0.4916(2) 0.73239(18)
C6 C 0.4099(2) 0.4608(2) 0.66335(18)
H3 H 0.3682 0.4684 0.6439
C7 C 0.4384(2) 0.4180(2) 0.62212(18)
H4 H 0.4156 0.3963 0.5745
C8 C 0.3272(2) 0.4109(2) 0.8626(3)
H5 H 0.2913 0.4001 0.9055
H6 H 0.3699 0.3997 0.8766
H7 H 0.2965 0.3765 0.8204
C9 C 0.36327(17) 0.49660(17) 0.84022(16)
C10 C 0.43525(16) 0.61196(17) 0.78147(15)
C11 C 0.70296(18) 0.56446(19) 0.45654(17)
C12 C 0.65129(17) 0.60370(17) 0.45707(16)
C13 C 0.6817(2) 0.6808(2) 0.4277(2)
H8 H 0.7341 0.7078 0.4068
C14 C 0.6356(2) 0.7186(2) 0.4289(2)
H9 H 0.6570 0.7714 0.4095
C15 C 0.55894(17) 0.67889(17) 0.45849(16)
C16 C 0.52587(18) 0.60065(18) 0.48567(17)
H10 H 0.4725 0.5729 0.5045
C17 C 0.57288(18) 0.56396(17) 0.48465(17)
H11 H 0.5509 0.5108 0.5032
C18 C 0.4829(3) 0.7238(3) 0.3255(2)
H12 H 0.4470 0.7362 0.2968
H13 H 0.4658 0.6668 0.3198
H14 H 0.5379 0.7565 0.3069
C19 C 0.4798(2) 0.74197(19) 0.40624(18)
C20 C 0.49313(18) 0.74494(18) 0.52835(17)
C21 C 0.51951(19) 0.73580(19) 0.60423(17)
C22 C 0.5982(2) 0.7861(3) 0.6257(2)
H15 H 0.6354 0.8240 0.5911
C23 C 0.6230(3) 0.7813(4) 0.6972(3)
H16 H 0.6768 0.8172 0.7119
C24 C 0.5700(2) 0.7242(4) 0.7481(2)
H17 H 0.5877 0.7209 0.7971
C25 C 0.49118(18) 0.67231(19) 0.72671(16)
C26 C 0.46592(18) 0.67853(18) 0.65503(16)
H18 H 0.4118 0.6436 0.6405
N1 N 0.35576(13) 0.55240(13) 0.87471(12)
N2 N 0.40161(14) 0.62591(13) 0.83869(13)
N3 N 0.41226(16) 0.53101(15) 0.77927(15)
N4 N 0.4433(2) 0.77897(19) 0.43395(17)
N5 N 0.45178(18) 0.78020(19) 0.51280(16)
N6 N 0.51329(15) 0.71979(15) 0.46375(13)
O1 O 0.6667 0.3333 0.49218(16)
O2 O 0.58291(14) 0.35058(15) 0.64204(11)
O3 O 0.50717(12) 0.33915(12) 0.54142(11)
O4 O 0.67273(13) 0.49571(12) 0.48802(12)
O5 O 0.76942(15) 0.59887(17) 0.42559(15)
Zn1 Zn 0.6667 0.3333 0.60008(2)
Zn2 Zn 0.292230(16) 0.552720(16) 0.965170(15)
C27 C 0.83019(24) 0.46807(17) 0.60689(15)
C28 C 0.63788(17) 0.16981(24) 0.60689(15)
C29 C 0.90766(25) 0.50076(17) 0.65005(15)
C30 C 0.59310(18) 0.09234(25) 0.65005(15)
C31 C 0.9067(4) 0.4678(3) 0.7196(3)
C32 C 0.5611(3) 0.0933(4) 0.7196(3)
H19 H 0.8576 0.4255 0.7388
H20 H 0.5679 0.1424 0.7388
C33 C 0.9759(5) 0.4957(3) 0.7611(3)
C34 C 0.5198(4) 0.0241(5) 0.7611(3)
H21 H 0.9743 0.4734 0.8090
H22 H 0.4991 0.0257 0.8090
C39 C 0.9796(3) 0.5616(2) 0.62212(18)
C40 C 0.5820(2) 0.0204(3) 0.62212(18)
H25 H 0.9807 0.5844 0.5745
H26 H 0.6037 0.0193 0.5745
C47 C 0.86150(26) 0.29704(18) 0.45654(17)
C48 C 0.43554(19) 0.13850(26) 0.45654(17)
C49 C 0.95241(24) 0.34871(17) 0.45707(16)
C50 C 0.39630(17) 0.04759(24) 0.45707(16)
C51 C 0.9991(3) 0.3183(2) 0.4277(2)
C52 C 0.3192(2) 0.0009(3) 0.4277(2)
H33 H 0.9737 0.2659 0.4068
H34 H 0.2922 0.0263 0.4068
C59 C 0.99108(25) 0.42712(18) 0.48465(17)
C60 C 0.43604(17) 0.00892(25) 0.48465(17)
H39 H 0.9599 0.4491 0.5032
H40 H 0.4892 0.0401 0.5032
O9 O 0.76767(21) 0.41709(14) 0.64204(11)
O10 O 0.64942(15) 0.23233(21) 0.64204(11)
O11 O 0.83198(17) 0.49283(12) 0.54142(11)
O12 O 0.66085(12) 0.16802(17) 0.54142(11)
O16 O 0.82298(18) 0.32727(13) 0.48802(12)
O17 O 0.50429(12) 0.17702(18) 0.48802(12)
O18 O 0.17702(18) 0.50429(12) 0.98802(12)
O21 O 0.82945(23) 0.23058(15) 0.42559(15)
O22 O 0.40113(17) 0.17055(23) 0.42559(15)
Zn5 Zn 0.739510(23) 0.447280(16) 0.465170(15)
Zn6 Zn 0.552720(16) 0.292230(16) 0.465170(15)
Zn7 Zn 0.707770(16) 0.260490(23) 0.465170(15)
O15 O 0.49283(12) 0.83198(17) 0.04142(11)
C36 C 0.5084(2) 0.95175(27) 0.73239(18)
C38 C 0.5392(2) 0.9491(3) 0.66335(18)
H24 H 0.5316 0.8998 0.6439
C42 C 0.5891(2) 0.9163(3) 0.8626(3)
H28 H 0.5999 0.8912 0.9055
H30 H 0.6003 0.9702 0.8766
H32 H 0.6235 0.9200 0.8204
C44 C 0.50340(17) 0.86667(24) 0.84022(16)
C46 C 0.38804(17) 0.82329(23) 0.78147(15)
C54 C 0.2814(2) 0.9170(3) 0.4289(2)
H36 H 0.2286 0.8856 0.4095
C56 C 0.32111(17) 0.88005(24) 0.45849(16)
C58 C 0.39935(18) 0.92522(25) 0.48567(17)
H38 H 0.4271 0.8996 0.5045
C62 C 0.2762(3) 0.7591(4) 0.3255(2)
H42 H 0.2638 0.7108 0.2968
H44 H 0.3332 0.7990 0.3198
H46 H 0.2435 0.7814 0.3069
C64 C 0.25803(19) 0.73783(28) 0.40624(18)
C66 C 0.25506(18) 0.74819(25) 0.52835(17)
C68 C 0.26420(19) 0.78371(27) 0.60423(17)
C70 C 0.2139(3) 0.8121(4) 0.6257(2)
H48 H 0.1760 0.8114 0.5911
C72 C 0.2187(4) 0.8417(5) 0.6972(3)
H50 H 0.1828 0.8596 0.7119
C74 C 0.2758(4) 0.8458(4) 0.7481(2)
H52 H 0.2791 0.8668 0.7971
C76 C 0.32769(19) 0.81887(26) 0.72671(16)
C78 C 0.32147(18) 0.78739(25) 0.65503(16)
H54 H 0.3564 0.7682 0.6405
N8 N 0.44760(13) 0.80336(18) 0.87471(12)
N10 N 0.37409(13) 0.77570(19) 0.83869(13)
N12 N 0.46899(15) 0.88125(22) 0.77927(15)
N14 N 0.22103(19) 0.66433(28) 0.43395(17)
N16 N 0.21980(19) 0.67158(26) 0.51280(16)
N18 N 0.28021(15) 0.79350(21) 0.46375(13)
O20 O 0.49571(12) 0.67273(13) 0.98802(12)
Zn4 Zn 0.447280(16) 0.739510(23) 0.965170(15)
C35_2 C 0.55665(18) 0.04825(27) 0.23239(18)
C37_2 C 0.5901(2) 0.0509(3) 0.16335(18)
H23_2 H 0.6318 0.1002 0.1439
C41_2 C 0.6728(2) 0.0837(3) 0.3626(3)
H27_2 H 0.7087 0.1088 0.4055
H29_2 H 0.6301 0.0298 0.3766
H31_2 H 0.7035 0.0800 0.3204
C43_2 C 0.63673(17) 0.13333(24) 0.34022(16)
C45_2 C 0.56475(16) 0.17671(23) 0.28147(15)
H37_2 H 0.5275 0.1004 0.0045
C65_2 C 0.50687(18) 0.25181(25) 0.02835(17)
C67_2 C 0.48049(19) 0.21629(27) 0.10423(17)
C69_2 C 0.4018(2) 0.1879(4) 0.1257(2)
H47_2 H 0.3646 0.1886 0.0911
C71_2 C 0.3770(3) 0.1583(5) 0.1972(3)
H49_2 H 0.3232 0.1404 0.2119
C73_2 C 0.4300(2) 0.1542(4) 0.2481(2)
H51_2 H 0.4123 0.1332 0.2971
C75_2 C 0.50882(18) 0.18113(26) 0.22671(16)
C77_2 C 0.53408(18) 0.21261(25) 0.15503(16)
H53_2 H 0.5882 0.2318 0.1405
N7_2 N 0.64424(13) 0.19664(18) 0.37471(12)
N9_2 N 0.59839(14) 0.22430(19) 0.33869(13)
N11_2 N 0.58774(16) 0.11875(22) 0.27927(15)
N15_2 N 0.54822(18) 0.32842(26) 0.01280(16)
C1_2 C 0.36212(17) 0.53193(17) 0.10689(15)
C2_2 C 0.40690(18) 0.49924(17) 0.15005(15)
C3_2 C 0.4389(3) 0.5322(3) 0.2196(3)
H1_2 H 0.4321 0.5745 0.2388
C4_2 C 0.4802(4) 0.5043(3) 0.2611(3)
H2_2 H 0.5009 0.5266 0.3090
C5_2 C 0.4916(2) 0.44335(18) 0.23239(18)
C6_2 C 0.4608(2) 0.4099(2) 0.16335(18)
H3_2 H 0.4684 0.3682 0.1439
C7_2 C 0.4180(2) 0.4384(2) 0.12212(18)
H4_2 H 0.3963 0.4156 0.0745
C8_2 C 0.4109(2) 0.3272(2) 0.3626(3)
H5_2 H 0.4001 0.2913 0.4055
H6_2 H 0.3997 0.3699 0.3766
H7_2 H 0.3765 0.2965 0.3204
C9_2 C 0.49660(17) 0.36327(17) 0.34022(16)
C10_2 C 0.61196(17) 0.43525(16) 0.28147(15)
H10_2 H 0.5729 0.4725 0.0045
H11_2 H 0.5108 0.5509 0.0032
C20_2 C 0.74494(18) 0.49313(18) 0.02835(17)
C21_2 C 0.73580(19) 0.51951(19) 0.10423(17)
C22_2 C 0.7861(3) 0.5982(2) 0.1257(2)
H15_2 H 0.8240 0.6354 0.0911
C23_2 C 0.7813(4) 0.6230(3) 0.1972(3)
H16_2 H 0.8172 0.6768 0.2119
C24_2 C 0.7242(4) 0.5700(2) 0.2481(2)
H17_2 H 0.7209 0.5877 0.2971
C25_2 C 0.67231(19) 0.49118(18) 0.22671(16)
C26_2 C 0.67853(18) 0.46592(18) 0.15503(16)
H18_2 H 0.6436 0.4118 0.1405
N1_2 N 0.55240(13) 0.35576(13) 0.37471(12)
N2_2 N 0.62591(13) 0.40161(14) 0.33869(13)
N3_2 N 0.53101(15) 0.41226(16) 0.27927(15)
N5_2 N 0.78020(19) 0.45178(18) 0.01280(16)
O2_2 O 0.35058(15) 0.58291(14) 0.14204(11)
Zn1_2 Zn 0.3333 0.6667 0.10008(2)
C27_2 C 0.46807(17) 0.83019(24) 0.10689(15)
C28_2 C 0.16981(24) 0.63788(17) 0.10689(15)
C29_2 C 0.50076(17) 0.90766(25) 0.15005(15)
C30_2 C 0.09234(25) 0.59310(18) 0.15005(15)
C31_2 C 0.4678(3) 0.9067(4) 0.2196(3)
C32_2 C 0.0933(4) 0.5611(3) 0.2196(3)
H19_2 H 0.4255 0.8576 0.2388
H20_2 H 0.1424 0.5679 0.2388
C33_2 C 0.4957(3) 0.9759(5) 0.2611(3)
C34_2 C 0.0241(5) 0.5198(4) 0.2611(3)
H21_2 H 0.4734 0.9743 0.3090
H22_2 H 0.0257 0.4991 0.3090
C39_2 C 0.5616(2) 0.9796(3) 0.12212(18)
C40_2 C 0.0204(3) 0.5820(2) 0.12212(18)
H25_2 H 0.5844 0.9807 0.0745
H26_2 H 0.0193 0.6037 0.0745
H39_2 H 0.4491 0.9599 0.0032
H40_2 H 0.0401 0.4892 0.0032
O9_2 O 0.41709(14) 0.76767(21) 0.14204(11)
O10_2 O 0.23233(21) 0.64942(15) 0.14204(11)
C11_2 C 0.56446(19) 0.70296(18) 0.95654(17)
C12_2 C 0.60370(17) 0.65129(17) 0.95707(16)
C13_2 C 0.6808(2) 0.6817(2) 0.9277(2)
H8_2 H 0.7078 0.7341 0.9068
C14_2 C 0.7186(2) 0.6356(2) 0.9289(2)
H9_2 H 0.7714 0.6570 0.9095
C15_2 C 0.67889(17) 0.55894(17) 0.95849(16)
C16_2 C 0.60065(18) 0.52587(18) 0.98567(17)
C17_2 C 0.56396(17) 0.57288(18) 0.98465(17)
C18_2 C 0.7238(3) 0.4829(3) 0.8255(2)
H12_2 H 0.7362 0.4470 0.7968
H13_2 H 0.6668 0.4658 0.8198
H14_2 H 0.7565 0.5379 0.8069
C19_2 C 0.74197(19) 0.4798(2) 0.90624(18)
N4_2 N 0.77897(19) 0.4433(2) 0.93395(17)
N6_2 N 0.71979(15) 0.51329(15) 0.96375(13)
O5_2 O 0.59887(17) 0.76942(15) 0.92559(15)
C47_2 C 0.29704(18) 0.86150(26) 0.95654(17)
C48_2 C 0.13850(26) 0.43554(19) 0.95654(17)
C49_2 C 0.34871(17) 0.95241(24) 0.95707(16)
C50_2 C 0.04759(24) 0.39630(17) 0.95707(16)
C51_2 C 0.3183(2) 0.9991(3) 0.9277(2)
C52_2 C 0.0009(3) 0.3192(2) 0.9277(2)
H33_2 H 0.2659 0.9737 0.9068
H34_2 H 0.0263 0.2922 0.9068
C59_2 C 0.42712(18) 0.99108(25) 0.98465(17)
C60_2 C 0.00892(25) 0.43604(17) 0.98465(17)
O21_2 O 0.23058(15) 0.82945(23) 0.92559(15)
O22_2 O 0.17055(23) 0.40113(17) 0.92559(15)
C36_2 C 0.95175(27) 0.5084(2) 0.23239(18)
C38_2 C 0.9491(3) 0.5392(2) 0.16335(18)
H24_2 H 0.8998 0.5316 0.1439
C42_2 C 0.9163(3) 0.5891(2) 0.3626(3)
H28_2 H 0.8912 0.5999 0.4055
H30_2 H 0.9702 0.6003 0.3766
H32_2 H 0.9200 0.6235 0.3204
C44_2 C 0.86667(24) 0.50340(17) 0.34022(16)
C46_2 C 0.82329(23) 0.38804(17) 0.28147(15)
H38_2 H 0.8996 0.4271 0.0045
C66_2 C 0.74819(25) 0.25506(18) 0.02835(17)
C68_2 C 0.78371(27) 0.26420(19) 0.10423(17)
C70_2 C 0.8121(4) 0.2139(3) 0.1257(2)
H48_2 H 0.8114 0.1760 0.0911
C72_2 C 0.8417(5) 0.2187(4) 0.1972(3)
H50_2 H 0.8596 0.1828 0.2119
C74_2 C 0.8458(4) 0.2758(4) 0.2481(2)
H52_2 H 0.8668 0.2791 0.2971
C76_2 C 0.81887(26) 0.32769(19) 0.22671(16)
C78_2 C 0.78739(25) 0.32147(18) 0.15503(16)
H54_2 H 0.7682 0.3564 0.1405
N8_2 N 0.80336(18) 0.44760(13) 0.37471(12)
N10_2 N 0.77570(19) 0.37409(13) 0.33869(13)
N12_2 N 0.88125(22) 0.46899(15) 0.27927(15)
N16_2 N 0.67158(26) 0.21980(19) 0.01280(16)
C53_2 C 0.3644(2) 0.0830(3) 0.9289(2)
H35_2 H 0.3430 0.1144 0.9095
C55_2 C 0.44106(17) 0.11995(24) 0.95849(16)
C57_2 C 0.47413(18) 0.07478(25) 0.98567(17)
C61_2 C 0.5171(3) 0.2409(4) 0.8255(2)
H41_2 H 0.5530 0.2892 0.7968
H43_2 H 0.5342 0.2010 0.8198
H45_2 H 0.4621 0.2186 0.8069
C63_2 C 0.5202(2) 0.26217(28) 0.90624(18)
N13_2 N 0.5567(2) 0.33567(28) 0.93395(17)
N17_2 N 0.48671(15) 0.20650(21) 0.96375(13)
C54_2 C 0.9170(3) 0.2814(2) 0.9289(2)
H36_2 H 0.8856 0.2286 0.9095
C56_2 C 0.88005(24) 0.32111(17) 0.95849(16)
C58_2 C 0.92522(25) 0.39935(18) 0.98567(17)
C62_2 C 0.7591(4) 0.2762(3) 0.8255(2)
H42_2 H 0.7108 0.2638 0.7968
H44_2 H 0.7990 0.3332 0.8198
H46_2 H 0.7814 0.2435 0.8069
C64_2 C 0.73783(28) 0.25803(19) 0.90624(18)
N14_2 N 0.66433(28) 0.22103(19) 0.93395(17)
N18_2 N 0.79350(21) 0.28021(15) 0.96375(13)
loop_
_geom_bond_atom_site_label_1
_geom_bond_atom_site_label_2
_geom_bond_site_symmetry_1
_geom_bond_site_symmetry_2
C37 C35 1_555 1_555
H23 C37 1_555 1_555
C41 H27 1_555 1_555
H29 C41 1_555 1_555
H31 C41 1_555 1_555
C43 C41 1_555 1_555
C45 C75 1_555 1_555
H35 C53 1_555 1_555
C55 C53 1_555 1_555
C57 C55 1_555 1_555
H37 C57 1_555 1_555
C61 H41 1_555 1_555
H43 C61 1_555 1_555
H45 C61 1_555 1_555
C63 C61 1_555 1_555
C65 C67 1_555 1_555
C67 C69 1_555 1_555
C69 H47 1_555 1_555
C71 C69 1_555 1_555
H49 C71 1_555 1_555
C73 C71 1_555 1_555
H51 C73 1_555 1_555
C75 C73 1_555 1_555
C77 C67 1_555 1_555
H53 C77 1_555 1_555
N7 C43 1_555 1_555
N9 C45 1_555 1_555
N11 C35 1_555 1_555
N13 C63 1_555 1_555
N15 C65 1_555 1_555
N17 C55 1_555 1_555
O7 Zn3 1_555 1_555
O19 Zn3 1_555 1_555
Zn3 N7 1_555 1_555
C43 N11 1_555 1_555
C45 N11 1_555 1_555
C63 N17 1_555 1_555
C65 N17 1_555 1_555
C75 C77 1_555 1_555
N7 N9 1_555 1_555
N13 N15 1_555 1_555
C1 C2 1_555 1_555
C2 C3 1_555 1_555
C3 H1 1_555 1_555
C4 C3 1_555 1_555
H2 C4 1_555 1_555
C5 C4 1_555 1_555
C6 C5 1_555 1_555
H3 C6 1_555 1_555
C7 C2 1_555 1_555
H4 C7 1_555 1_555
C8 H5 1_555 1_555
H6 C8 1_555 1_555
H7 C8 1_555 1_555
C9 C8 1_555 1_555
C10 C25 1_555 1_555
C11 C12 1_555 1_555
C12 C13 1_555 1_555
C13 H8 1_555 1_555
C14 C13 1_555 1_555
H9 C14 1_555 1_555
C15 C14 1_555 1_555
C16 C15 1_555 1_555
H10 C16 1_555 1_555
C17 C12 1_555 1_555
H11 C17 1_555 1_555
C18 H12 1_555 1_555
H13 C18 1_555 1_555
H14 C18 1_555 1_555
C19 C18 1_555 1_555
C20 C21 1_555 1_555
C21 C22 1_555 1_555
C22 H15 1_555 1_555
C23 C22 1_555 1_555
H16 C23 1_555 1_555
C24 C23 1_555 1_555
H17 C24 1_555 1_555
C25 C24 1_555 1_555
C26 C21 1_555 1_555
H18 C26 1_555 1_555
N1 C9 1_555 1_555
N2 C10 1_555 1_555
N3 C5 1_555 1_555
N4 C19 1_555 1_555
N5 C20 1_555 1_555
N6 C15 1_555 1_555
O1 Zn1 1_555 1_555
O2 C1 1_555 1_555
O3 C1 1_555 1_555
O4 C11 1_555 1_555
O5 C11 1_555 1_555
Zn1 O2 1_555 1_555
Zn2 N1 1_555 1_555
C27 C29 1_555 1_555
C28 C30 1_555 1_555
C29 C31 1_555 1_555
C30 C32 1_555 1_555
C31 H19 1_555 1_555
C32 H20 1_555 1_555
C33 C31 1_555 1_555
C34 C32 1_555 1_555
H21 C33 1_555 1_555
H22 C34 1_555 1_555
C39 C29 1_555 1_555
C40 C30 1_555 1_555
H25 C39 1_555 1_555
H26 C40 1_555 1_555
C47 C49 1_555 1_555
C48 C50 1_555 1_555
C49 C51 1_555 1_555
C50 C52 1_555 1_555
C51 H33 1_555 1_555
C52 H34 1_555 1_555
C59 C49 1_555 1_555
C60 C50 1_555 1_555
H39 C59 1_555 1_555
H40 C60 1_555 1_555
O7 Zn2 1_555 1_555
O9 Zn1 1_555 1_555
O10 Zn1 1_555 1_555
O11 C27 1_555 1_555
O12 C28 1_555 1_555
O16 C47 1_555 1_555
O17 C48 1_555 1_555
O18 Zn2 1_555 1_555
O21 C47 1_555 1_555
O22 C48 1_555 1_555
Zn5 O1 1_555 1_555
Zn6 O1 1_555 1_555
Zn7 O1 1_555 1_555
C6 C7 1_555 1_555
C9 N3 1_555 1_555
C10 N3 1_555 1_555
C16 C17 1_555 1_555
C19 N6 1_555 1_555
C20 N6 1_555 1_555
C25 C26 1_555 1_555
N1 N2 1_555 1_555
N4 N5 1_555 1_555
O3 Zn6 1_555 1_555
O4 Zn5 1_555 1_555
C27 O9 1_555 1_555
C28 O10 1_555 1_555
O11 Zn5 1_555 1_555
O12 Zn7 1_555 1_555
O16 Zn7 1_555 1_555
O17 Zn6 1_555 1_555
C38 C36 1_555 1_555
H24 C38 1_555 1_555
C42 H28 1_555 1_555
H30 C42 1_555 1_555
H32 C42 1_555 1_555
C44 C42 1_555 1_555
C46 C76 1_555 1_555
H36 C54 1_555 1_555
C56 C54 1_555 1_555
C58 C56 1_555 1_555
H38 C58 1_555 1_555
C62 H42 1_555 1_555
H44 C62 1_555 1_555
H46 C62 1_555 1_555
C64 C62 1_555 1_555
C66 C68 1_555 1_555
C68 C70 1_555 1_555
C70 H48 1_555 1_555
C72 C70 1_555 1_555
H50 C72 1_555 1_555
C74 C72 1_555 1_555
H52 C74 1_555 1_555
C76 C74 1_555 1_555
C78 C68 1_555 1_555
H54 C78 1_555 1_555
N8 C44 1_555 1_555
N10 C46 1_555 1_555
N12 C36 1_555 1_555
N14 C64 1_555 1_555
N16 C66 1_555 1_555
N18 C56 1_555 1_555
O7 Zn4 1_555 1_555
O20 Zn4 1_555 1_555
Zn4 N8 1_555 1_555
C44 N12 1_555 1_555
C46 N12 1_555 1_555
C64 N18 1_555 1_555
C66 N18 1_555 1_555
C76 C78 1_555 1_555
N8 N10 1_555 1_555
N14 N16 1_555 1_555
C37_2 C35_2 1_555 1_555
H23_2 C37_2 1_555 1_555
C41_2 H27_2 1_555 1_555
H29_2 C41_2 1_555 1_555
H31_2 C41_2 1_555 1_555
C43_2 C41_2 1_555 1_555
C45_2 C75_2 1_555 1_555
C65_2 C67_2 1_555 1_555
C67_2 C69_2 1_555 1_555
C69_2 H47_2 1_555 1_555
C71_2 C69_2 1_555 1_555
H49_2 C71_2 1_555 1_555
C73_2 C71_2 1_555 1_555
H51_2 C73_2 1_555 1_555
C75_2 C73_2 1_555 1_555
C77_2 C67_2 1_555 1_555
H53_2 C77_2 1_555 1_555
N7_2 C43_2 1_555 1_555
N9_2 C45_2 1_555 1_555
N11_2 C35_2 1_555 1_555
N15_2 C65_2 1_555 1_555
Zn7 N7_2 1_555 1_555
C43_2 N11_2 1_555 1_555
C45_2 N11_2 1_555 1_555
C75_2 C77_2 1_555 1_555
N7_2 N9_2 1_555 1_555
C1_2 C2_2 1_555 1_555
C2_2 C3_2 1_555 1_555
C3_2 H1_2 1_555 1_555
C4_2 C3_2 1_555 1_555
H2_2 C4_2 1_555 1_555
C5_2 C4_2 1_555 1_555
C6_2 C5_2 1_555 1_555
H3_2 C6_2 1_555 1_555
C7_2 C2_2 1_555 1_555
H4_2 C7_2 1_555 1_555
C8_2 H5_2 1_555 1_555
H6_2 C8_2 1_555 1_555
H7_2 C8_2 1_555 1_555
C9_2 C8_2 1_555 1_555
C10_2 C25_2 1_555 1_555
C20_2 C21_2 1_555 1_555
C21_2 C22_2 1_555 1_555
C22_2 H15_2 1_555 1_555
C23_2 C22_2 1_555 1_555
H16_2 C23_2 1_555 1_555
C24_2 C23_2 1_555 1_555
H17_2 C24_2 1_555 1_555
C25_2 C24_2 1_555 1_555
C26_2 C21_2 1_555 1_555
H18_2 C26_2 1_555 1_555
N1_2 C9_2 1_555 1_555
N2_2 C10_2 1_555 1_555
N3_2 C5_2 1_555 1_555
N5_2 C20_2 1_555 1_555
O2_2 C1_2 1_555 1_555
O13 C1_2 1_555 1_555
Zn1_2 O2_2 1_555 1_555
Zn6 N1_2 1_555 1_555
C27_2 C29_2 1_555 1_555
C28_2 C30_2 1_555 1_555
C29_2 C31_2 1_555 1_555
C30_2 C32_2 1_555 1_555
C31_2 H19_2 1_555 1_555
C32_2 H20_2 1_555 1_555
C33_2 C31_2 1_555 1_555
C34_2 C32_2 1_555 1_555
H21_2 C33_2 1_555 1_555
H22_2 C34_2 1_555 1_555
C39_2 C29_2 1_555 1_555
C40_2 C30_2 1_555 1_555
H25_2 C39_2 1_555 1_555
H26_2 C40_2 1_555 1_555
O9_2 Zn1_2 1_555 1_555
O10_2 Zn1_2 1_555 1_555
O15 C27_2 1_555 1_555
O14 C28_2 1_555 1_555
C6_2 C7_2 1_555 1_555
C9_2 N3_2 1_555 1_555
C10_2 N3_2 1_555 1_555
C25_2 C26_2 1_555 1_555
N1_2 N2_2 1_555 1_555
C27_2 O9_2 1_555 1_555
C28_2 O10_2 1_555 1_555
C11_2 C12_2 1_555 1_555
C12_2 C13_2 1_555 1_555
C13_2 H8_2 1_555 1_555
C14_2 C13_2 1_555 1_555
H9_2 C14_2 1_555 1_555
C15_2 C14_2 1_555 1_555
C16_2 C15_2 1_555 1_555
C17_2 C12_2 1_555 1_555
C18_2 H12_2 1_555 1_555
H13_2 C18_2 1_555 1_555
H14_2 C18_2 1_555 1_555
C19_2 C18_2 1_555 1_555
N4_2 C19_2 1_555 1_555
N6_2 C15_2 1_555 1_555
O20 C11_2 1_555 1_555
O5_2 C11_2 1_555 1_555
C47_2 C49_2 1_555 1_555
C48_2 C50_2 1_555 1_555
C49_2 C51_2 1_555 1_555
C50_2 C52_2 1_555 1_555
C51_2 H33_2 1_555 1_555
C52_2 H34_2 1_555 1_555
C59_2 C49_2 1_555 1_555
C60_2 C50_2 1_555 1_555
O19 C47_2 1_555 1_555
O18 C48_2 1_555 1_555
O21_2 C47_2 1_555 1_555
O22_2 C48_2 1_555 1_555
C16_2 C17_2 1_555 1_555
C19_2 N6_2 1_555 1_555
C38_2 C36_2 1_555 1_555
H24_2 C38_2 1_555 1_555
C42_2 H28_2 1_555 1_555
H30_2 C42_2 1_555 1_555
H32_2 C42_2 1_555 1_555
C44_2 C42_2 1_555 1_555
C46_2 C76_2 1_555 1_555
C66_2 C68_2 1_555 1_555
C68_2 C70_2 1_555 1_555
C70_2 H48_2 1_555 1_555
C72_2 C70_2 1_555 1_555
H50_2 C72_2 1_555 1_555
C74_2 C72_2 1_555 1_555
H52_2 C74_2 1_555 1_555
C76_2 C74_2 1_555 1_555
C78_2 C68_2 1_555 1_555
H54_2 C78_2 1_555 1_555
N8_2 C44_2 1_555 1_555
N10_2 C46_2 1_555 1_555
N12_2 C36_2 1_555 1_555
N16_2 C66_2 1_555 1_555
Zn5 N8_2 1_555 1_555
C44_2 N12_2 1_555 1_555
C46_2 N12_2 1_555 1_555
C76_2 C78_2 1_555 1_555
N8_2 N10_2 1_555 1_555
H35_2 C53_2 1_555 1_555
C55_2 C53_2 1_555 1_555
C57_2 C55_2 1_555 1_555
C61_2 H41_2 1_555 1_555
H43_2 C61_2 1_555 1_555
H45_2 C61_2 1_555 1_555
C63_2 C61_2 1_555 1_555
N13_2 C63_2 1_555 1_555
N17_2 C55_2 1_555 1_555
C63_2 N17_2 1_555 1_555
H36_2 C54_2 1_555 1_555
C56_2 C54_2 1_555 1_555
C58_2 C56_2 1_555 1_555
C62_2 H42_2 1_555 1_555
H44_2 C62_2 1_555 1_555
H46_2 C62_2 1_555 1_555
C64_2 C62_2 1_555 1_555
N14_2 C64_2 1_555 1_555
N18_2 C56_2 1_555 1_555
C64_2 N18_2 1_555 1_555

#END
