
###############################################################################
#
# This file contains modified crystal structure data generated from the
# MOF subset of the Cambridge Structural Database (CSD) v543 
# hosted by the Cambridge Crystallographic Data Centre (CCDC).
#
# This work is licensed under the Creative Commons
# Attribution-NonCommercial-ShareAlike 4.0 International License.
# To view a copy of this license, visit
# http://creativecommons.org/licenses/by-nc-sa/4.0/
# or send a letter to
# Creative Commons, PO Box 1866, Mountain View, CA 94042, USA.
#
# CIF created using the CSD Python API on 29 September 2022
# The structure has been converted into the P1 space group
# The structure has a 3D framework
# The original CSD entry FAPTOH is in the orthorhombic crystal system
# The framework has been calculated to contain at least 10.0% void space
# The void calculation uses a probe of radius 1.32A, grid spacing 0.4
#
###############################################################################

data_FAPTOH
_chemical_formula_moiety         '(C104 H72 Cd6 N16 O32)n'
_symmetry_cell_setting           triclinic
_symmetry_space_group_name_H-M   'P 1'
_symmetry_Int_Tables_number      1
_space_group_name_Hall           'P 1'
loop_
_symmetry_equiv_pos_site_id
_symmetry_equiv_pos_as_xyz
1 x,y,z
_cell_length_a                   14.296(4)
_cell_length_b                   17.317(5)
_cell_length_c                   11.714(6)
_cell_angle_alpha                90
_cell_angle_beta                 90
_cell_angle_gamma                90
_cell_volume                     2899.96
loop_
_atom_site_label
_atom_site_type_symbol
_atom_site_fract_x
_atom_site_fract_y
_atom_site_fract_z
Cd4 Cd 0.36545(3) 0.01744(2) 0.0000
O1 O 0.5032(3) 0.0902(2) 0.0000
O2 O 0.6523(4) 0.1140(3) 0.0000
C1 C 0.5692(5) 0.1361(3) 0.0000
C2 C 0.5519(5) 0.2214(4) 0.0000
C3 C 0.6140(5) 0.3527(4) 0.0000
O3 O 0.7774(4) 0.3738(3) 0.0000
C4 C 0.4498(6) 0.3314(5) 0.0000
C5 C 0.6968(5) 0.4035(4) 0.0000
N1 N 0.3714(3) 0.0195(2) 0.1980(5)
C6 C 0.4614(6) 0.2519(4) 0.0000
H1 H 0.4097 0.2193 0.0000
C7 C 0.3880(7) 0.0800(6) 0.2549(9)
H2 H 0.4031 0.1247 0.2148
C8 C 0.5233(7) 0.3801(5) 0.0000
H3 H 0.5127 0.4331 0.0000
C9 C 0.6283(4) 0.2724(4) 0.0000
H4 H 0.6889 0.2529 0.0000
C12 C 0.3691(4) 0.0223(4) 0.4351(6)
C13 C 0.3850(7) 0.0842(6) 0.3733(8)
H7 H 0.3944 0.1315 0.4092
O4 O 0.6882(5) 0.4746(3) 0.0000
N2 N 0.3592(9) 0.3602(12) 0.0000
H8 H 0.3498 0.4092 0.0000
H9 H 0.3124 0.3290 0.0000
Cd3 Cd 0.86545(3) 0.48256(2) 0.0000
Cd4_2 Cd 0.36545(3) 0.01744(2) 1.0000
O6 O 0.2774(4) 0.1262(3) 0.0000
N3 N 0.3714(3) 0.0195(2) 0.8020(5)
C14 C 0.3880(7) 0.0800(6) 0.7451(9)
H10 H 0.4031 0.1247 0.7852
C17 C 0.3691(4) 0.0223(4) 0.5649(6)
C18 C 0.3850(7) 0.0842(6) 0.6267(8)
H13 H 0.3944 0.1315 0.5908
O7 O 0.1882(5) 0.0254(3) 0.0000
O1_2 O 0.5032(3) 0.0902(2) 1.0000
O2_2 O 0.6523(4) 0.1140(3) 1.0000
C1_2 C 0.5692(5) 0.1361(3) 1.0000
C2_2 C 0.5519(5) 0.2214(4) 1.0000
C3_2 C 0.6140(5) 0.3527(4) 1.0000
O3_2 O 0.7774(4) 0.3738(3) 1.0000
C4_2 C 0.4498(6) 0.3314(5) 1.0000
C5_2 C 0.6968(5) 0.4035(4) 1.0000
C6_2 C 0.4614(6) 0.2519(4) 1.0000
H1_2 H 0.4097 0.2193 1.0000
C8_2 C 0.5233(7) 0.3801(5) 1.0000
H3_2 H 0.5127 0.4331 1.0000
C9_2 C 0.6283(4) 0.2724(4) 1.0000
H4_2 H 0.6889 0.2529 1.0000
O4_2 O 0.6882(5) 0.4746(3) 1.0000
N2_2 N 0.3592(9) 0.3602(12) 1.0000
H8_2 H 0.3498 0.4092 1.0000
H9_2 H 0.3124 0.3290 1.0000
Cd3_2 Cd 0.86545(3) 0.48256(2) 1.0000
O6_2 O 0.2774(4) 0.1262(3) 1.0000
O7_2 O 0.1882(5) 0.0254(3) 1.0000
C10 C 0.3583(7) 0.9584(7) 0.3748(10)
H5 H 0.3508 0.9115 0.4124
C11 C 0.3579(7) 0.9600(8) 0.2574(11)
H6 H 0.3468 0.9138 0.2192
O5 O 0.3477(4) 0.8860(3) 0.0000
Cd2 Cd 0.63455(3) 0.98256(2) 0.0000
C15 C 0.3583(7) 0.9584(7) 0.6252(10)
H11 H 0.3508 0.9115 0.5876
C16 C 0.3579(7) 0.9600(8) 0.7426(11)
H12 H 0.3468 0.9138 0.7808
O5_2 O 0.3477(4) 0.8860(3) 1.0000
Cd2_2 Cd 0.63455(3) 0.98256(2) 1.0000
C10_2 C 0.6417(7) 0.0416(7) 0.3748(10)
H5_2 H 0.6492 0.0885 0.4124
C11_2 C 0.6421(7) 0.0400(8) 0.2574(11)
H6_2 H 0.6532 0.0862 0.2192
C15_2 C 0.6417(7) 0.0416(7) 0.6252(10)
H11_2 H 0.6492 0.0885 0.5876
C16_2 C 0.6421(7) 0.0400(8) 0.7426(11)
H12_2 H 0.6532 0.0862 0.7808
O1_3 O 0.4968(3) 0.9098(2) 0.0000
C1_3 C 0.4308(5) 0.8639(3) 0.0000
C2_3 C 0.4481(5) 0.7786(4) 0.0000
C3_3 C 0.3860(5) 0.6473(4) 0.0000
O3_3 O 0.2226(4) 0.6262(3) 0.0000
C4_3 C 0.5502(6) 0.6686(5) 0.0000
C5_3 C 0.3032(5) 0.5965(4) 0.0000
N1_2 N 0.6286(3) 0.9805(2) 0.1980(5)
C6_3 C 0.5386(6) 0.7481(4) 0.0000
H1_3 H 0.5903 0.7807 0.0000
C7_2 C 0.6120(7) 0.9200(6) 0.2549(9)
H2_2 H 0.5969 0.8753 0.2148
C8_3 C 0.4767(7) 0.6199(5) 0.0000
H3_3 H 0.4873 0.5669 0.0000
C9_3 C 0.3717(4) 0.7276(4) 0.0000
H4_3 H 0.3111 0.7471 0.0000
C12_2 C 0.6309(4) 0.9777(4) 0.4351(6)
C13_2 C 0.6150(7) 0.9158(6) 0.3733(8)
H7_2 H 0.6056 0.8685 0.4092
O4_3 O 0.3118(5) 0.5254(3) 0.0000
N2_3 N 0.6408(9) 0.6398(12) 0.0000
H8_3 H 0.6502 0.5908 0.0000
H9_3 H 0.6876 0.6710 0.0000
Cd3_3 Cd 0.13455(3) 0.51744(2) 0.0000
O6_3 O 0.7226(4) 0.8738(3) 0.0000
N3_2 N 0.6286(3) 0.9805(2) 0.8020(5)
C14_2 C 0.6120(7) 0.9200(6) 0.7451(9)
H10_2 H 0.5969 0.8753 0.7852
C17_2 C 0.6309(4) 0.9777(4) 0.5649(6)
C18_2 C 0.6150(7) 0.9158(6) 0.6267(8)
H13_2 H 0.6056 0.8685 0.5908
O7_3 O 0.8118(5) 0.9746(3) 0.0000
O1_4 O 0.4968(3) 0.9098(2) 1.0000
C1_4 C 0.4308(5) 0.8639(3) 1.0000
C2_4 C 0.4481(5) 0.7786(4) 1.0000
C3_4 C 0.3860(5) 0.6473(4) 1.0000
O3_4 O 0.2226(4) 0.6262(3) 1.0000
C4_4 C 0.5502(6) 0.6686(5) 1.0000
C5_4 C 0.3032(5) 0.5965(4) 1.0000
C6_4 C 0.5386(6) 0.7481(4) 1.0000
H1_4 H 0.5903 0.7807 1.0000
C8_4 C 0.4767(7) 0.6199(5) 1.0000
H3_4 H 0.4873 0.5669 1.0000
C9_4 C 0.3717(4) 0.7276(4) 1.0000
H4_4 H 0.3111 0.7471 1.0000
O4_4 O 0.3118(5) 0.5254(3) 1.0000
N2_4 N 0.6408(9) 0.6398(12) 1.0000
H8_4 H 0.6502 0.5908 1.0000
H9_4 H 0.6876 0.6710 1.0000
Cd3_4 Cd 0.13455(3) 0.51744(2) 1.0000
O6_4 O 0.7226(4) 0.8738(3) 1.0000
O7_4 O 0.8118(5) 0.9746(3) 1.0000
O1_5 O 0.0032(3) 0.4098(2) 0.0000
O2_3 O 0.1523(4) 0.3860(3) 0.0000
C1_5 C 0.0692(5) 0.3639(3) 0.0000
C2_5 C 0.0519(5) 0.2786(4) 0.0000
C3_5 C 0.1140(5) 0.1473(4) 0.0000
C5_5 C 0.1968(5) 0.0965(4) 0.0000
C8_5 C 0.0233(7) 0.1199(5) 0.0000
H3_5 H 0.0127 0.0669 0.0000
C9_5 C 0.1283(4) 0.2276(4) 0.0000
H4_5 H 0.1889 0.2471 0.0000
O1_6 O 0.0032(3) 0.4098(2) 1.0000
O2_4 O 0.1523(4) 0.3860(3) 1.0000
C1_6 C 0.0692(5) 0.3639(3) 1.0000
C2_6 C 0.0519(5) 0.2786(4) 1.0000
C3_6 C 0.1140(5) 0.1473(4) 1.0000
C5_6 C 0.1968(5) 0.0965(4) 1.0000
C8_6 C 0.0233(7) 0.1199(5) 1.0000
H3_6 H 0.0127 0.0669 1.0000
C9_6 C 0.1283(4) 0.2276(4) 1.0000
H4_6 H 0.1889 0.2471 1.0000
C4_5 C 0.9498(6) 0.1686(5) 0.0000
C6_5 C 0.9614(6) 0.2481(4) 0.0000
H1_5 H 0.9097 0.2807 0.0000
N2_5 N 0.8592(9) 0.1398(12) 0.0000
H8_5 H 0.8498 0.0908 0.0000
H9_5 H 0.8124 0.1710 0.0000
O5_3 O 0.8477(4) 0.6140(3) 0.0000
N4 N 0.8714(3) 0.4805(2) 0.1980(5)
C4_6 C 0.9498(6) 0.1686(5) 1.0000
N1_3 N 0.8714(3) 0.4805(2) 0.8020(5)
C6_6 C 0.9614(6) 0.2481(4) 1.0000
H1_6 H 0.9097 0.2807 1.0000
C7_3 C 0.8880(7) 0.4200(6) 0.7451(9)
H2_3 H 0.9031 0.3753 0.7852
C10_3 C 0.8583(7) 0.5416(7) 0.6252(10)
H5_3 H 0.8508 0.5885 0.5876
C11_3 C 0.8579(7) 0.5400(8) 0.7426(11)
H6_3 H 0.8468 0.5862 0.7808
C12_3 C 0.8691(4) 0.4777(4) 0.5649(6)
C13_3 C 0.8850(7) 0.4158(6) 0.6267(8)
H7_3 H 0.8944 0.3685 0.5908
N2_6 N 0.8592(9) 0.1398(12) 1.0000
H8_6 H 0.8498 0.0908 1.0000
H9_6 H 0.8124 0.1710 1.0000
O5_4 O 0.8477(4) 0.6140(3) 1.0000
C14_3 C 0.8880(7) 0.4200(6) 0.2549(9)
H10_3 H 0.9031 0.3753 0.2148
C15_3 C 0.8583(7) 0.5416(7) 0.3748(10)
H11_3 H 0.8508 0.5885 0.4124
C16_3 C 0.8579(7) 0.5400(8) 0.2574(11)
H12_3 H 0.8468 0.5862 0.2192
C17_3 C 0.8691(4) 0.4777(4) 0.4351(6)
C18_3 C 0.8850(7) 0.4158(6) 0.3733(8)
H13_3 H 0.8944 0.3685 0.4092
C4_7 C 0.0502(6) 0.8314(5) 0.0000
C6_7 C 0.0386(6) 0.7519(4) 0.0000
H1_7 H 0.0903 0.7193 0.0000
N2_7 N 0.1408(9) 0.8602(12) 0.0000
H8_7 H 0.1502 0.9092 0.0000
H9_7 H 0.1876 0.8290 0.0000
N4_2 N 0.1286(3) 0.5195(2) 0.1980(5)
C4_8 C 0.0502(6) 0.8314(5) 1.0000
N1_4 N 0.1286(3) 0.5195(2) 0.8020(5)
C6_8 C 0.0386(6) 0.7519(4) 1.0000
H1_8 H 0.0903 0.7193 1.0000
C7_4 C 0.1120(7) 0.5800(6) 0.7451(9)
H2_4 H 0.0969 0.6247 0.7852
C10_4 C 0.1417(7) 0.4584(7) 0.6252(10)
H5_4 H 0.1492 0.4115 0.5876
C11_4 C 0.1421(7) 0.4600(8) 0.7426(11)
H6_4 H 0.1532 0.4138 0.7808
C12_4 C 0.1309(4) 0.5223(4) 0.5649(6)
C13_4 C 0.1150(7) 0.5842(6) 0.6267(8)
H7_4 H 0.1056 0.6315 0.5908
N2_8 N 0.1408(9) 0.8602(12) 1.0000
H8_8 H 0.1502 0.9092 1.0000
H9_8 H 0.1876 0.8290 1.0000
C14_4 C 0.1120(7) 0.5800(6) 0.2549(9)
H10_4 H 0.0969 0.6247 0.2148
C15_4 C 0.1417(7) 0.4584(7) 0.3748(10)
H11_4 H 0.1492 0.4115 0.4124
C16_4 C 0.1421(7) 0.4600(8) 0.2574(11)
H12_4 H 0.1532 0.4138 0.2192
C17_4 C 0.1309(4) 0.5223(4) 0.4351(6)
C18_4 C 0.1150(7) 0.5842(6) 0.3733(8)
H13_4 H 0.1056 0.6315 0.4092
O1_7 O 0.9968(3) 0.5902(2) 0.0000
C1_7 C 0.9308(5) 0.6361(3) 0.0000
C2_7 C 0.9481(5) 0.7214(4) 0.0000
C3_7 C 0.8860(5) 0.8527(4) 0.0000
C5_7 C 0.8032(5) 0.9035(4) 0.0000
C8_7 C 0.9767(7) 0.8801(5) 0.0000
H3_7 H 0.9873 0.9331 0.0000
C9_7 C 0.8717(4) 0.7724(4) 0.0000
H4_7 H 0.8111 0.7529 0.0000
O1_8 O 0.9968(3) 0.5902(2) 1.0000
C1_8 C 0.9308(5) 0.6361(3) 1.0000
C2_8 C 0.9481(5) 0.7214(4) 1.0000
C3_8 C 0.8860(5) 0.8527(4) 1.0000
C5_8 C 0.8032(5) 0.9035(4) 1.0000
C8_8 C 0.9767(7) 0.8801(5) 1.0000
H3_8 H 0.9873 0.9331 1.0000
C9_8 C 0.8717(4) 0.7724(4) 1.0000
H4_8 H 0.8111 0.7529 1.0000
loop_
_geom_bond_atom_site_label_1
_geom_bond_atom_site_label_2
_geom_bond_site_symmetry_1
_geom_bond_site_symmetry_2
O1 C1 1_555 1_555
O2 C1 1_555 1_555
C1 C2 1_555 1_555
Cd4 O1 1_555 1_555
C2 C6 1_555 1_555
C3 C5 1_555 1_555
O3 C5 1_555 1_555
C4 C6 1_555 1_555
C5 O4 1_555 1_555
N1 Cd4 1_555 1_555
C6 H1 1_555 1_555
C7 N1 1_555 1_555
H2 C7 1_555 1_555
C8 C3 1_555 1_555
H3 C8 1_555 1_555
C9 C2 1_555 1_555
H4 C9 1_555 1_555
C13 C7 1_555 1_555
H7 C13 1_555 1_555
O4 Cd3 1_555 1_555
N2 C4 1_555 1_555
H8 N2 1_555 1_555
H9 N2 1_555 1_555
Cd3 O3 1_555 1_555
Cd4_2 N3 1_555 1_555
O6 Cd4 1_555 1_555
N3 C14 1_555 1_555
C14 H10 1_555 1_555
C17 C12 1_555 1_555
C18 C14 1_555 1_555
H13 C18 1_555 1_555
O7 Cd4 1_555 1_555
C3 C9 1_555 1_555
C4 C8 1_555 1_555
C12 C13 1_555 1_555
C17 C18 1_555 1_555
O1_2 C1_2 1_555 1_555
O2_2 C1_2 1_555 1_555
C1_2 C2_2 1_555 1_555
Cd4_2 O1_2 1_555 1_555
C2_2 C6_2 1_555 1_555
C3_2 C5_2 1_555 1_555
O3_2 C5_2 1_555 1_555
C4_2 C6_2 1_555 1_555
C5_2 O4_2 1_555 1_555
C6_2 H1_2 1_555 1_555
C8_2 C3_2 1_555 1_555
H3_2 C8_2 1_555 1_555
C9_2 C2_2 1_555 1_555
H4_2 C9_2 1_555 1_555
O4_2 Cd3_2 1_555 1_555
N2_2 C4_2 1_555 1_555
H8_2 N2_2 1_555 1_555
H9_2 N2_2 1_555 1_555
Cd3_2 O3_2 1_555 1_555
O6_2 Cd4_2 1_555 1_555
O7_2 Cd4_2 1_555 1_555
C3_2 C9_2 1_555 1_555
C4_2 C8_2 1_555 1_555
C10 H5 1_555 1_555
H6 C11 1_555 1_555
C15 H11 1_555 1_555
H12 C16 1_555 1_555
C10 C11 1_555 1_555
C15 C16 1_555 1_555
C10_2 H5_2 1_555 1_555
H6_2 C11_2 1_555 1_555
C15_2 H11_2 1_555 1_555
H12_2 C16_2 1_555 1_555
C10_2 C11_2 1_555 1_555
C15_2 C16_2 1_555 1_555
O1_3 C1_3 1_555 1_555
O5 C1_3 1_555 1_555
C1_3 C2_3 1_555 1_555
Cd2 O1_3 1_555 1_555
C2_3 C6_3 1_555 1_555
C3_3 C5_3 1_555 1_555
O3_3 C5_3 1_555 1_555
C4_3 C6_3 1_555 1_555
C5_3 O4_3 1_555 1_555
N1_2 Cd2 1_555 1_555
C6_3 H1_3 1_555 1_555
C7_2 N1_2 1_555 1_555
H2_2 C7_2 1_555 1_555
C8_3 C3_3 1_555 1_555
H3_3 C8_3 1_555 1_555
C9_3 C2_3 1_555 1_555
H4_3 C9_3 1_555 1_555
C13_2 C7_2 1_555 1_555
H7_2 C13_2 1_555 1_555
O4_3 Cd3_3 1_555 1_555
N2_3 C4_3 1_555 1_555
H8_3 N2_3 1_555 1_555
H9_3 N2_3 1_555 1_555
Cd3_3 O3_3 1_555 1_555
Cd2_2 N3_2 1_555 1_555
O6_3 Cd2 1_555 1_555
N3_2 C14_2 1_555 1_555
C14_2 H10_2 1_555 1_555
C17_2 C12_2 1_555 1_555
C18_2 C14_2 1_555 1_555
H13_2 C18_2 1_555 1_555
O7_3 Cd2 1_555 1_555
C3_3 C9_3 1_555 1_555
C4_3 C8_3 1_555 1_555
C12_2 C13_2 1_555 1_555
C17_2 C18_2 1_555 1_555
O1_4 C1_4 1_555 1_555
O5_2 C1_4 1_555 1_555
C1_4 C2_4 1_555 1_555
Cd2_2 O1_4 1_555 1_555
C2_4 C6_4 1_555 1_555
C3_4 C5_4 1_555 1_555
O3_4 C5_4 1_555 1_555
C4_4 C6_4 1_555 1_555
C5_4 O4_4 1_555 1_555
C6_4 H1_4 1_555 1_555
C8_4 C3_4 1_555 1_555
H3_4 C8_4 1_555 1_555
C9_4 C2_4 1_555 1_555
H4_4 C9_4 1_555 1_555
O4_4 Cd3_4 1_555 1_555
N2_4 C4_4 1_555 1_555
H8_4 N2_4 1_555 1_555
H9_4 N2_4 1_555 1_555
Cd3_4 O3_4 1_555 1_555
O6_4 Cd2_2 1_555 1_555
O7_4 Cd2_2 1_555 1_555
C3_4 C9_4 1_555 1_555
C4_4 C8_4 1_555 1_555
O1_5 C1_5 1_555 1_555
O2_3 C1_5 1_555 1_555
C1_5 C2_5 1_555 1_555
C3_5 C5_5 1_555 1_555
O6 C5_5 1_555 1_555
C5_5 O7 1_555 1_555
C8_5 C3_5 1_555 1_555
H3_5 C8_5 1_555 1_555
C9_5 C2_5 1_555 1_555
H4_5 C9_5 1_555 1_555
Cd3_3 O2_3 1_555 1_555
C3_5 C9_5 1_555 1_555
O1_6 C1_6 1_555 1_555
O2_4 C1_6 1_555 1_555
C1_6 C2_6 1_555 1_555
C3_6 C5_6 1_555 1_555
O6_2 C5_6 1_555 1_555
C5_6 O7_2 1_555 1_555
C8_6 C3_6 1_555 1_555
H3_6 C8_6 1_555 1_555
C9_6 C2_6 1_555 1_555
H4_6 C9_6 1_555 1_555
Cd3_4 O2_4 1_555 1_555
C3_6 C9_6 1_555 1_555
C4_5 C6_5 1_555 1_555
C6_5 H1_5 1_555 1_555
N2_5 C4_5 1_555 1_555
H8_5 N2_5 1_555 1_555
H9_5 N2_5 1_555 1_555
O5_3 Cd3 1_555 1_555
N4 Cd3 1_555 1_555
C4_6 C6_6 1_555 1_555
N1_3 Cd3_2 1_555 1_555
C6_6 H1_6 1_555 1_555
C7_3 N1_3 1_555 1_555
H2_3 C7_3 1_555 1_555
C10_3 H5_3 1_555 1_555
C11_3 N1_3 1_555 1_555
H6_3 C11_3 1_555 1_555
C12_3 C10_3 1_555 1_555
C13_3 C7_3 1_555 1_555
H7_3 C13_3 1_555 1_555
N2_6 C4_6 1_555 1_555
H8_6 N2_6 1_555 1_555
H9_6 N2_6 1_555 1_555
O5_4 Cd3_2 1_555 1_555
N4 C14_3 1_555 1_555
C14_3 H10_3 1_555 1_555
C15_3 H11_3 1_555 1_555
C16_3 N4 1_555 1_555
H12_3 C16_3 1_555 1_555
C17_3 C12_3 1_555 1_555
C18_3 C14_3 1_555 1_555
H13_3 C18_3 1_555 1_555
C10_3 C11_3 1_555 1_555
C12_3 C13_3 1_555 1_555
C15_3 C16_3 1_555 1_555
C15_3 C17_3 1_555 1_555
C17_3 C18_3 1_555 1_555
C4_7 C6_7 1_555 1_555
C6_7 H1_7 1_555 1_555
N2_7 C4_7 1_555 1_555
H8_7 N2_7 1_555 1_555
H9_7 N2_7 1_555 1_555
N4_2 Cd3_3 1_555 1_555
C4_8 C6_8 1_555 1_555
N1_4 Cd3_4 1_555 1_555
C6_8 H1_8 1_555 1_555
C7_4 N1_4 1_555 1_555
H2_4 C7_4 1_555 1_555
C10_4 H5_4 1_555 1_555
C11_4 N1_4 1_555 1_555
H6_4 C11_4 1_555 1_555
C12_4 C10_4 1_555 1_555
C13_4 C7_4 1_555 1_555
H7_4 C13_4 1_555 1_555
N2_8 C4_8 1_555 1_555
H8_8 N2_8 1_555 1_555
H9_8 N2_8 1_555 1_555
N4_2 C14_4 1_555 1_555
C14_4 H10_4 1_555 1_555
C15_4 H11_4 1_555 1_555
C16_4 N4_2 1_555 1_555
H12_4 C16_4 1_555 1_555
C17_4 C12_4 1_555 1_555
C18_4 C14_4 1_555 1_555
H13_4 C18_4 1_555 1_555
C10_4 C11_4 1_555 1_555
C12_4 C13_4 1_555 1_555
C15_4 C16_4 1_555 1_555
C15_4 C17_4 1_555 1_555
C17_4 C18_4 1_555 1_555
O1_7 C1_7 1_555 1_555
O5_3 C1_7 1_555 1_555
C1_7 C2_7 1_555 1_555
C3_7 C5_7 1_555 1_555
O6_3 C5_7 1_555 1_555
C5_7 O7_3 1_555 1_555
C8_7 C3_7 1_555 1_555
H3_7 C8_7 1_555 1_555
C9_7 C2_7 1_555 1_555
H4_7 C9_7 1_555 1_555
C3_7 C9_7 1_555 1_555
O1_8 C1_8 1_555 1_555
O5_4 C1_8 1_555 1_555
C1_8 C2_8 1_555 1_555
C3_8 C5_8 1_555 1_555
O6_4 C5_8 1_555 1_555
C5_8 O7_4 1_555 1_555
C8_8 C3_8 1_555 1_555
H3_8 C8_8 1_555 1_555
C9_8 C2_8 1_555 1_555
H4_8 C9_8 1_555 1_555
C3_8 C9_8 1_555 1_555

#END
