
###############################################################################
#
# This file contains modified crystal structure data generated from the
# MOF subset of the Cambridge Structural Database (CSD) v543 
# hosted by the Cambridge Crystallographic Data Centre (CCDC).
#
# This work is licensed under the Creative Commons
# Attribution-NonCommercial-ShareAlike 4.0 International License.
# To view a copy of this license, visit
# http://creativecommons.org/licenses/by-nc-sa/4.0/
# or send a letter to
# Creative Commons, PO Box 1866, Mountain View, CA 94042, USA.
#
# CIF created using the CSD Python API on 29 September 2022
# The structure has been converted into the P1 space group
# The structure has a 3D framework
# The original CSD entry FAPVAV is in the orthorhombic crystal system
# The framework has been calculated to contain at least 10.0% void space
# The void calculation uses a probe of radius 1.32A, grid spacing 0.4
#
###############################################################################

data_FAPVAV
_chemical_formula_moiety         '(C104 H72 Co8 N16 O32)n'
_symmetry_cell_setting           triclinic
_symmetry_space_group_name_H-M   'P 1'
_symmetry_Int_Tables_number      1
_space_group_name_Hall           'P 1'
loop_
_symmetry_equiv_pos_site_id
_symmetry_equiv_pos_as_xyz
1 x,y,z
_cell_length_a                   14.324(3)
_cell_length_b                   16.713(3)
_cell_length_c                   11.371(2)
_cell_angle_alpha                90
_cell_angle_beta                 90
_cell_angle_gamma                90
_cell_volume                     2722.18
loop_
_atom_site_label
_atom_site_type_symbol
_atom_site_fract_x
_atom_site_fract_y
_atom_site_fract_z
C1 C 0.0572(7) 0.1259(5) 0.0000
C2 C 0.0514(7) 0.2172(6) 0.0000
C5 C 0.0357(7) 0.3803(6) 0.0000
H2 H 0.0299 0.4357 0.0000
C6 C 0.1237(7) 0.3476(6) 0.0000
C7 C 0.1307(7) 0.2653(6) 0.0000
H3 H 0.1894 0.2415 0.0000
C8 C 0.2086(6) 0.3985(5) 0.0000
O2 O 0.1373(4) 0.0969(3) 0.0000
O3 O 0.2857(4) 0.3648(4) 0.0000
O4 O 0.2034(4) 0.4728(3) 0.0000
Co3 Co 0.36236(8) 0.47405(7) 0.0000
C1_2 C 0.0572(7) 0.1259(5) 1.0000
C2_2 C 0.0514(7) 0.2172(6) 1.0000
C5_2 C 0.0357(7) 0.3803(6) 1.0000
H2_2 H 0.0299 0.4357 1.0000
C6_2 C 0.1237(7) 0.3476(6) 1.0000
C7_2 C 0.1307(7) 0.2653(6) 1.0000
H3_2 H 0.1894 0.2415 1.0000
C8_2 C 0.2086(6) 0.3985(5) 1.0000
O2_2 O 0.1373(4) 0.0969(3) 1.0000
O3_2 O 0.2857(4) 0.3648(4) 1.0000
O4_2 O 0.2034(4) 0.4728(3) 1.0000
Co3_2 Co 0.36236(8) 0.47405(7) 1.0000
Co2 Co 0.13764(8) 0.97405(7) 0.0000
Co2_2 Co 0.13764(8) 0.97405(7) 1.0000
Co4 Co 0.86236(8) 0.02595(7) 0.0000
C3 C 0.9635(7) 0.2519(6) 0.0000
H1 H 0.9101 0.2202 0.0000
C4 C 0.9565(7) 0.3352(6) 0.0000
C11 C 0.8642(5) 0.0232(4) 0.4348(5)
C12 C 0.8982(7) 0.0843(4) 0.3691(7)
H6 H 0.9228 0.1287 0.4075
C13 C 0.8980(6) 0.0835(5) 0.2512(6)
H7 H 0.9232 0.1274 0.2121
N1 N 0.8644(4) 0.0244(3) 0.1874(4)
N2 N 0.8654(5) 0.3698(5) 0.0000
H8 H 0.8591 0.4210 0.0000
H9 H 0.8169 0.3396 0.0000
O1 O 0.9825(4) 0.0888(3) 0.0000
Co4_2 Co 0.86236(8) 0.02595(7) 1.0000
C16 C 0.8642(5) 0.0232(4) 0.5652(5)
C17 C 0.8982(7) 0.0843(4) 0.6309(7)
H12 H 0.9228 0.1287 0.5925
C18 C 0.8980(6) 0.0835(5) 0.7488(6)
H13 H 0.9232 0.1274 0.7879
N3 N 0.8644(4) 0.0244(3) 0.8126(4)
O6 O 0.7857(4) 0.1352(4) 0.0000
O7 O 0.7034(4) 0.0272(3) 0.0000
C3_2 C 0.9635(7) 0.2519(6) 1.0000
H1_2 H 0.9101 0.2202 1.0000
C4_2 C 0.9565(7) 0.3352(6) 1.0000
N2_2 N 0.8654(5) 0.3698(5) 1.0000
H8_2 H 0.8591 0.4210 1.0000
H9_2 H 0.8169 0.3396 1.0000
O1_2 O 0.9825(4) 0.0888(3) 1.0000
O6_2 O 0.7857(4) 0.1352(4) 1.0000
O7_2 O 0.7034(4) 0.0272(3) 1.0000
C9 C 0.8321(6) 0.9642(5) 0.2495(7)
H4 H 0.8084 0.9206 0.2084
C10 C 0.8304(6) 0.9601(4) 0.3709(6)
H5 H 0.8067 0.9151 0.4087
C14 C 0.8321(6) 0.9642(5) 0.7505(7)
H10 H 0.8084 0.9206 0.7916
C15 C 0.8304(6) 0.9601(4) 0.6291(6)
H11 H 0.8067 0.9151 0.5913
O5 O 0.8627(4) 0.9031(3) 0.0000
O5_2 O 0.8627(4) 0.9031(3) 1.0000
C9_2 C 0.1679(6) 0.0358(5) 0.2495(7)
H4_2 H 0.1916 0.0794 0.2084
C10_2 C 0.1696(6) 0.0399(4) 0.3709(6)
H5_2 H 0.1933 0.0849 0.4087
C14_2 C 0.1679(6) 0.0358(5) 0.7505(7)
H10_2 H 0.1916 0.0794 0.7916
C15_2 C 0.1696(6) 0.0399(4) 0.6291(6)
H11_2 H 0.1933 0.0849 0.5913
C3_3 C 0.0365(7) 0.7481(6) 0.0000
H1_3 H 0.0899 0.7798 0.0000
C4_3 C 0.0435(7) 0.6648(6) 0.0000
C11_2 C 0.1358(5) 0.9768(4) 0.4348(5)
C12_2 C 0.1018(7) 0.9157(4) 0.3691(7)
H6_2 H 0.0772 0.8713 0.4075
C13_2 C 0.1020(6) 0.9165(5) 0.2512(6)
H7_2 H 0.0768 0.8726 0.2121
N1_2 N 0.1356(4) 0.9756(3) 0.1874(4)
N2_3 N 0.1346(5) 0.6302(5) 0.0000
H8_3 H 0.1409 0.5790 0.0000
H9_3 H 0.1831 0.6604 0.0000
O1_3 O 0.0175(4) 0.9112(3) 0.0000
C16_2 C 0.1358(5) 0.9768(4) 0.5652(5)
C17_2 C 0.1018(7) 0.9157(4) 0.6309(7)
H12_2 H 0.0772 0.8713 0.5925
C18_2 C 0.1020(6) 0.9165(5) 0.7488(6)
H13_2 H 0.0768 0.8726 0.7879
N3_2 N 0.1356(4) 0.9756(3) 0.8126(4)
O6_3 O 0.2143(4) 0.8648(4) 0.0000
O7_3 O 0.2966(4) 0.9728(3) 0.0000
C3_4 C 0.0365(7) 0.7481(6) 1.0000
H1_4 H 0.0899 0.7798 1.0000
C4_4 C 0.0435(7) 0.6648(6) 1.0000
N2_4 N 0.1346(5) 0.6302(5) 1.0000
H8_4 H 0.1409 0.5790 1.0000
H9_4 H 0.1831 0.6604 1.0000
O1_4 O 0.0175(4) 0.9112(3) 1.0000
O6_4 O 0.2143(4) 0.8648(4) 1.0000
O7_4 O 0.2966(4) 0.9728(3) 1.0000
C1_3 C 0.9428(7) 0.8741(5) 0.0000
C2_3 C 0.9486(7) 0.7828(6) 0.0000
C5_3 C 0.9643(7) 0.6197(6) 0.0000
H2_3 H 0.9701 0.5643 0.0000
C6_3 C 0.8763(7) 0.6524(6) 0.0000
C7_3 C 0.8693(7) 0.7347(6) 0.0000
H3_3 H 0.8106 0.7585 0.0000
C8_3 C 0.7914(6) 0.6015(5) 0.0000
O3_3 O 0.7143(4) 0.6352(4) 0.0000
O4_3 O 0.7966(4) 0.5272(3) 0.0000
Co3_3 Co 0.63764(8) 0.52595(7) 0.0000
C1_4 C 0.9428(7) 0.8741(5) 1.0000
C2_4 C 0.9486(7) 0.7828(6) 1.0000
C5_4 C 0.9643(7) 0.6197(6) 1.0000
H2_4 H 0.9701 0.5643 1.0000
C6_4 C 0.8763(7) 0.6524(6) 1.0000
C7_4 C 0.8693(7) 0.7347(6) 1.0000
H3_4 H 0.8106 0.7585 1.0000
C8_4 C 0.7914(6) 0.6015(5) 1.0000
O3_4 O 0.7143(4) 0.6352(4) 1.0000
O4_4 O 0.7966(4) 0.5272(3) 1.0000
Co3_4 Co 0.63764(8) 0.52595(7) 1.0000
C1_5 C 0.5572(7) 0.3741(5) 0.0000
C2_5 C 0.5514(7) 0.2828(6) 0.0000
C3_5 C 0.4635(7) 0.2481(6) 0.0000
H1_5 H 0.4101 0.2798 0.0000
C4_5 C 0.4565(7) 0.1648(6) 0.0000
C5_5 C 0.5357(7) 0.1197(6) 0.0000
H2_5 H 0.5299 0.0643 0.0000
C6_5 C 0.6237(7) 0.1524(6) 0.0000
C7_5 C 0.6307(7) 0.2347(6) 0.0000
H3_5 H 0.6894 0.2585 0.0000
C8_5 C 0.7086(6) 0.1015(5) 0.0000
N2_5 N 0.3654(5) 0.1302(5) 0.0000
H8_5 H 0.3591 0.0790 0.0000
H9_5 H 0.3169 0.1604 0.0000
O1_5 O 0.4825(4) 0.4112(3) 0.0000
O2_3 O 0.6373(4) 0.4031(3) 0.0000
N4 N 0.3644(4) 0.4756(3) 0.1874(4)
O5_3 O 0.3627(4) 0.5969(3) 0.0000
C1_6 C 0.5572(7) 0.3741(5) 1.0000
C2_6 C 0.5514(7) 0.2828(6) 1.0000
C3_6 C 0.4635(7) 0.2481(6) 1.0000
H1_6 H 0.4101 0.2798 1.0000
C4_6 C 0.4565(7) 0.1648(6) 1.0000
C5_6 C 0.5357(7) 0.1197(6) 1.0000
H2_6 H 0.5299 0.0643 1.0000
C6_6 C 0.6237(7) 0.1524(6) 1.0000
C7_6 C 0.6307(7) 0.2347(6) 1.0000
H3_6 H 0.6894 0.2585 1.0000
C8_6 C 0.7086(6) 0.1015(5) 1.0000
C9_3 C 0.3321(6) 0.5358(5) 0.7505(7)
H4_3 H 0.3084 0.5794 0.7916
C10_3 C 0.3304(6) 0.5399(4) 0.6291(6)
H5_3 H 0.3067 0.5849 0.5913
C11_3 C 0.3642(5) 0.4768(4) 0.5652(5)
C12_3 C 0.3982(7) 0.4157(4) 0.6309(7)
H6_3 H 0.4228 0.3713 0.5925
C13_3 C 0.3980(6) 0.4165(5) 0.7488(6)
H7_3 H 0.4232 0.3726 0.7879
N1_3 N 0.3644(4) 0.4756(3) 0.8126(4)
N2_6 N 0.3654(5) 0.1302(5) 1.0000
H8_6 H 0.3591 0.0790 1.0000
H9_6 H 0.3169 0.1604 1.0000
O1_6 O 0.4825(4) 0.4112(3) 1.0000
O2_4 O 0.6373(4) 0.4031(3) 1.0000
C14_3 C 0.3321(6) 0.5358(5) 0.2495(7)
H10_3 H 0.3084 0.5794 0.2084
C15_3 C 0.3304(6) 0.5399(4) 0.3709(6)
H11_3 H 0.3067 0.5849 0.4087
C16_3 C 0.3642(5) 0.4768(4) 0.4348(5)
C17_3 C 0.3982(7) 0.4157(4) 0.3691(7)
H12_3 H 0.4228 0.3713 0.4075
C18_3 C 0.3980(6) 0.4165(5) 0.2512(6)
H13_3 H 0.4232 0.3726 0.2121
O5_4 O 0.3627(4) 0.5969(3) 1.0000
C1_7 C 0.4428(7) 0.6259(5) 0.0000
C2_7 C 0.4486(7) 0.7172(6) 0.0000
C3_7 C 0.5365(7) 0.7519(6) 0.0000
H1_7 H 0.5899 0.7202 0.0000
C4_7 C 0.5435(7) 0.8352(6) 0.0000
C5_7 C 0.4643(7) 0.8803(6) 0.0000
H2_7 H 0.4701 0.9357 0.0000
C6_7 C 0.3763(7) 0.8476(6) 0.0000
C7_7 C 0.3693(7) 0.7653(6) 0.0000
H3_7 H 0.3106 0.7415 0.0000
C8_7 C 0.2914(6) 0.8985(5) 0.0000
N2_7 N 0.6346(5) 0.8698(5) 0.0000
H8_7 H 0.6409 0.9210 0.0000
H9_7 H 0.6831 0.8396 0.0000
O1_7 O 0.5175(4) 0.5888(3) 0.0000
N4_2 N 0.6356(4) 0.5244(3) 0.1874(4)
C1_8 C 0.4428(7) 0.6259(5) 1.0000
C2_8 C 0.4486(7) 0.7172(6) 1.0000
C3_8 C 0.5365(7) 0.7519(6) 1.0000
H1_8 H 0.5899 0.7202 1.0000
C4_8 C 0.5435(7) 0.8352(6) 1.0000
C5_8 C 0.4643(7) 0.8803(6) 1.0000
H2_8 H 0.4701 0.9357 1.0000
C6_8 C 0.3763(7) 0.8476(6) 1.0000
C7_8 C 0.3693(7) 0.7653(6) 1.0000
H3_8 H 0.3106 0.7415 1.0000
C8_8 C 0.2914(6) 0.8985(5) 1.0000
C9_4 C 0.6679(6) 0.4642(5) 0.7505(7)
H4_4 H 0.6916 0.4206 0.7916
C10_4 C 0.6696(6) 0.4601(4) 0.6291(6)
H5_4 H 0.6933 0.4151 0.5913
C11_4 C 0.6358(5) 0.5232(4) 0.5652(5)
C12_4 C 0.6018(7) 0.5843(4) 0.6309(7)
H6_4 H 0.5772 0.6287 0.5925
C13_4 C 0.6020(6) 0.5835(5) 0.7488(6)
H7_4 H 0.5768 0.6274 0.7879
N1_4 N 0.6356(4) 0.5244(3) 0.8126(4)
N2_8 N 0.6346(5) 0.8698(5) 1.0000
H8_8 H 0.6409 0.9210 1.0000
H9_8 H 0.6831 0.8396 1.0000
O1_8 O 0.5175(4) 0.5888(3) 1.0000
C14_4 C 0.6679(6) 0.4642(5) 0.2495(7)
H10_4 H 0.6916 0.4206 0.2084
C15_4 C 0.6696(6) 0.4601(4) 0.3709(6)
H11_4 H 0.6933 0.4151 0.4087
C16_4 C 0.6358(5) 0.5232(4) 0.4348(5)
C17_4 C 0.6018(7) 0.5843(4) 0.3691(7)
H12_4 H 0.5772 0.6287 0.4075
C18_4 C 0.6020(6) 0.5835(5) 0.2512(6)
H13_4 H 0.5768 0.6274 0.2121
loop_
_geom_bond_atom_site_label_1
_geom_bond_atom_site_label_2
_geom_bond_site_symmetry_1
_geom_bond_site_symmetry_2
C1 C2 1_555 1_555
H2 C5 1_555 1_555
C6 C5 1_555 1_555
C7 C2 1_555 1_555
H3 C7 1_555 1_555
C8 C6 1_555 1_555
O2 C1 1_555 1_555
O3 C8 1_555 1_555
O4 C8 1_555 1_555
Co3 O3 1_555 1_555
C6 C7 1_555 1_555
O4 Co3 1_555 1_555
C1_2 C2_2 1_555 1_555
H2_2 C5_2 1_555 1_555
C6_2 C5_2 1_555 1_555
C7_2 C2_2 1_555 1_555
H3_2 C7_2 1_555 1_555
C8_2 C6_2 1_555 1_555
O2_2 C1_2 1_555 1_555
O3_2 C8_2 1_555 1_555
O4_2 C8_2 1_555 1_555
Co3_2 O3_2 1_555 1_555
C6_2 C7_2 1_555 1_555
O4_2 Co3_2 1_555 1_555
Co4 N1 1_555 1_555
C3 H1 1_555 1_555
C4 C3 1_555 1_555
C12 C11 1_555 1_555
H6 C12 1_555 1_555
C13 C12 1_555 1_555
H7 C13 1_555 1_555
N2 C4 1_555 1_555
H8 N2 1_555 1_555
H9 N2 1_555 1_555
O1 Co4 1_555 1_555
Co4_2 N3 1_555 1_555
C16 C11 1_555 1_555
C17 C16 1_555 1_555
H12 C17 1_555 1_555
C18 C17 1_555 1_555
H13 C18 1_555 1_555
O6 Co4 1_555 1_555
O7 Co4 1_555 1_555
C13 N1 1_555 1_555
C18 N3 1_555 1_555
C3_2 H1_2 1_555 1_555
C4_2 C3_2 1_555 1_555
N2_2 C4_2 1_555 1_555
H8_2 N2_2 1_555 1_555
H9_2 N2_2 1_555 1_555
O1_2 Co4_2 1_555 1_555
O6_2 Co4_2 1_555 1_555
O7_2 Co4_2 1_555 1_555
C9 H4 1_555 1_555
C10 C9 1_555 1_555
H5 C10 1_555 1_555
C14 H10 1_555 1_555
C15 C14 1_555 1_555
H11 C15 1_555 1_555
C9_2 H4_2 1_555 1_555
C10_2 C9_2 1_555 1_555
H5_2 C10_2 1_555 1_555
C14_2 H10_2 1_555 1_555
C15_2 C14_2 1_555 1_555
H11_2 C15_2 1_555 1_555
Co2 N1_2 1_555 1_555
C3_3 H1_3 1_555 1_555
C4_3 C3_3 1_555 1_555
C12_2 C11_2 1_555 1_555
H6_2 C12_2 1_555 1_555
C13_2 C12_2 1_555 1_555
H7_2 C13_2 1_555 1_555
N2_3 C4_3 1_555 1_555
H8_3 N2_3 1_555 1_555
H9_3 N2_3 1_555 1_555
O1_3 Co2 1_555 1_555
Co2_2 N3_2 1_555 1_555
C16_2 C11_2 1_555 1_555
C17_2 C16_2 1_555 1_555
H12_2 C17_2 1_555 1_555
C18_2 C17_2 1_555 1_555
H13_2 C18_2 1_555 1_555
O6_3 Co2 1_555 1_555
O7_3 Co2 1_555 1_555
C13_2 N1_2 1_555 1_555
C18_2 N3_2 1_555 1_555
C3_4 H1_4 1_555 1_555
C4_4 C3_4 1_555 1_555
N2_4 C4_4 1_555 1_555
H8_4 N2_4 1_555 1_555
H9_4 N2_4 1_555 1_555
O1_4 Co2_2 1_555 1_555
O6_4 Co2_2 1_555 1_555
O7_4 Co2_2 1_555 1_555
C1_3 C2_3 1_555 1_555
H2_3 C5_3 1_555 1_555
C6_3 C5_3 1_555 1_555
C7_3 C2_3 1_555 1_555
H3_3 C7_3 1_555 1_555
C8_3 C6_3 1_555 1_555
O5 C1_3 1_555 1_555
O3_3 C8_3 1_555 1_555
O4_3 C8_3 1_555 1_555
Co3_3 O3_3 1_555 1_555
C6_3 C7_3 1_555 1_555
O4_3 Co3_3 1_555 1_555
C1_4 C2_4 1_555 1_555
H2_4 C5_4 1_555 1_555
C6_4 C5_4 1_555 1_555
C7_4 C2_4 1_555 1_555
H3_4 C7_4 1_555 1_555
C8_4 C6_4 1_555 1_555
O5_2 C1_4 1_555 1_555
O3_4 C8_4 1_555 1_555
O4_4 C8_4 1_555 1_555
Co3_4 O3_4 1_555 1_555
C6_4 C7_4 1_555 1_555
O4_4 Co3_4 1_555 1_555
C1_5 C2_5 1_555 1_555
C2_5 C3_5 1_555 1_555
C3_5 H1_5 1_555 1_555
C4_5 C3_5 1_555 1_555
C5_5 C4_5 1_555 1_555
H2_5 C5_5 1_555 1_555
C6_5 C5_5 1_555 1_555
C7_5 C2_5 1_555 1_555
H3_5 C7_5 1_555 1_555
C8_5 C6_5 1_555 1_555
N2_5 C4_5 1_555 1_555
H8_5 N2_5 1_555 1_555
H9_5 N2_5 1_555 1_555
O1_5 Co3 1_555 1_555
O2_3 C1_5 1_555 1_555
O6 C8_5 1_555 1_555
O7 C8_5 1_555 1_555
Co3_3 O2_3 1_555 1_555
N4 Co3 1_555 1_555
O5_3 Co3 1_555 1_555
C1_5 O1_5 1_555 1_555
C6_5 C7_5 1_555 1_555
Co3_2 N1_3 1_555 1_555
C1_6 C2_6 1_555 1_555
C2_6 C3_6 1_555 1_555
C3_6 H1_6 1_555 1_555
C4_6 C3_6 1_555 1_555
C5_6 C4_6 1_555 1_555
H2_6 C5_6 1_555 1_555
C6_6 C5_6 1_555 1_555
C7_6 C2_6 1_555 1_555
H3_6 C7_6 1_555 1_555
C8_6 C6_6 1_555 1_555
C9_3 H4_3 1_555 1_555
C10_3 C9_3 1_555 1_555
H5_3 C10_3 1_555 1_555
C11_3 C10_3 1_555 1_555
C12_3 C11_3 1_555 1_555
H6_3 C12_3 1_555 1_555
C13_3 C12_3 1_555 1_555
H7_3 C13_3 1_555 1_555
N1_3 C9_3 1_555 1_555
N2_6 C4_6 1_555 1_555
H8_6 N2_6 1_555 1_555
H9_6 N2_6 1_555 1_555
O1_6 Co3_2 1_555 1_555
O2_4 C1_6 1_555 1_555
O6_2 C8_6 1_555 1_555
O7_2 C8_6 1_555 1_555
Co3_4 O2_4 1_555 1_555
C14_3 H10_3 1_555 1_555
C15_3 C14_3 1_555 1_555
H11_3 C15_3 1_555 1_555
C16_3 C11_3 1_555 1_555
C17_3 C16_3 1_555 1_555
H12_3 C17_3 1_555 1_555
C18_3 C17_3 1_555 1_555
H13_3 C18_3 1_555 1_555
N4 C14_3 1_555 1_555
O5_4 Co3_2 1_555 1_555
C1_6 O1_6 1_555 1_555
C6_6 C7_6 1_555 1_555
C13_3 N1_3 1_555 1_555
C15_3 C16_3 1_555 1_555
C18_3 N4 1_555 1_555
C1_7 C2_7 1_555 1_555
C2_7 C3_7 1_555 1_555
C3_7 H1_7 1_555 1_555
C4_7 C3_7 1_555 1_555
C5_7 C4_7 1_555 1_555
H2_7 C5_7 1_555 1_555
C6_7 C5_7 1_555 1_555
C7_7 C2_7 1_555 1_555
H3_7 C7_7 1_555 1_555
C8_7 C6_7 1_555 1_555
N2_7 C4_7 1_555 1_555
H8_7 N2_7 1_555 1_555
H9_7 N2_7 1_555 1_555
O1_7 Co3_3 1_555 1_555
O5_3 C1_7 1_555 1_555
O6_3 C8_7 1_555 1_555
O7_3 C8_7 1_555 1_555
N4_2 Co3_3 1_555 1_555
C1_7 O1_7 1_555 1_555
C6_7 C7_7 1_555 1_555
Co3_4 N1_4 1_555 1_555
C1_8 C2_8 1_555 1_555
C2_8 C3_8 1_555 1_555
C3_8 H1_8 1_555 1_555
C4_8 C3_8 1_555 1_555
C5_8 C4_8 1_555 1_555
H2_8 C5_8 1_555 1_555
C6_8 C5_8 1_555 1_555
C7_8 C2_8 1_555 1_555
H3_8 C7_8 1_555 1_555
C8_8 C6_8 1_555 1_555
C9_4 H4_4 1_555 1_555
C10_4 C9_4 1_555 1_555
H5_4 C10_4 1_555 1_555
C11_4 C10_4 1_555 1_555
C12_4 C11_4 1_555 1_555
H6_4 C12_4 1_555 1_555
C13_4 C12_4 1_555 1_555
H7_4 C13_4 1_555 1_555
N1_4 C9_4 1_555 1_555
N2_8 C4_8 1_555 1_555
H8_8 N2_8 1_555 1_555
H9_8 N2_8 1_555 1_555
O1_8 Co3_4 1_555 1_555
O5_4 C1_8 1_555 1_555
O6_4 C8_8 1_555 1_555
O7_4 C8_8 1_555 1_555
C14_4 H10_4 1_555 1_555
C15_4 C14_4 1_555 1_555
H11_4 C15_4 1_555 1_555
C16_4 C11_4 1_555 1_555
C17_4 C16_4 1_555 1_555
H12_4 C17_4 1_555 1_555
C18_4 C17_4 1_555 1_555
H13_4 C18_4 1_555 1_555
N4_2 C14_4 1_555 1_555
C1_8 O1_8 1_555 1_555
C6_8 C7_8 1_555 1_555
C13_4 N1_4 1_555 1_555
C15_4 C16_4 1_555 1_555
C18_4 N4_2 1_555 1_555

#END
