
###############################################################################
#
# This file contains modified crystal structure data generated from the
# MOF subset of the Cambridge Structural Database (CSD) v543 
# hosted by the Cambridge Crystallographic Data Centre (CCDC).
#
# This work is licensed under the Creative Commons
# Attribution-NonCommercial-ShareAlike 4.0 International License.
# To view a copy of this license, visit
# http://creativecommons.org/licenses/by-nc-sa/4.0/
# or send a letter to
# Creative Commons, PO Box 1866, Mountain View, CA 94042, USA.
#
# CIF created using the CSD Python API on 29 September 2022
# The structure has been converted into the P1 space group
# The structure has a 3D framework
# The original CSD entry FAQDOU is in the orthorhombic crystal system
# The framework has been calculated to contain at least 10.0% void space
# The void calculation uses a probe of radius 1.32A, grid spacing 0.4
#
###############################################################################

data_FAQDOU
_chemical_formula_moiety         '(C112 H119 N8 O69 Zn16)n'
_symmetry_cell_setting           triclinic
_symmetry_space_group_name_H-M   'P 1'
_symmetry_Int_Tables_number      1
_space_group_name_Hall           'P 1'
loop_
_symmetry_equiv_pos_site_id
_symmetry_equiv_pos_as_xyz
1 x,y,z
_cell_length_a                   14.7894(2)
_cell_length_b                   16.4229(3)
_cell_length_c                   18.9429(3)
_cell_angle_alpha                90
_cell_angle_beta                 90
_cell_angle_gamma                90
_cell_volume                     4600.94
loop_
_atom_site_label
_atom_site_type_symbol
_atom_site_fract_x
_atom_site_fract_y
_atom_site_fract_z
Zn5 Zn 0.03183(2) 0.59120(2) 0.134315(18)
Zn1 Zn 0.49790(2) 0.42645(2) 0.446189(18)
Zn2 Zn 0.53183(2) 0.59120(2) 0.365685(18)
O1 O 0.63516(15) 0.44267(14) 0.42343(12)
O2 O 0.36316(16) 0.39524(15) 0.46490(12)
H1 H 0.3310 0.4373 0.4635
H2 H 0.3504 0.3634 0.4969
O3 O 0.65003(15) 0.54243(14) 0.34432(12)
O4 O 0.94953(15) 0.54747(13) 0.20806(11)
O5 O 0.97404(15) 0.42206(13) 0.16391(11)
O6 O 0.95508(15) 0.20630(13) 0.34728(12)
O7 O 0.84485(17) 0.21224(15) 0.42822(13)
O8 O 0.47156(14) 0.55270(13) 0.44915(11)
H3 H 0.4185(9) 0.565(2) 0.4486(17)
O9 O 0.52281(17) 0.30294(15) 0.45777(13)
C1 C 0.76226(19) 0.43848(19) 0.34844(16)
C2 C 0.80964(19) 0.4733(2) 0.29365(16)
H4 H 0.7901 0.5235 0.2739
C3 C 0.88719(19) 0.43419(19) 0.26695(16)
C4 C 0.9123(2) 0.35891(19) 0.29476(17)
H5 H 0.9625 0.3306 0.2754
C5 C 0.8643(2) 0.32469(19) 0.35079(16)
C6 C 0.7902(2) 0.3655(2) 0.37780(16)
H6 H 0.7583 0.3433 0.4168
C7 C 0.67602(19) 0.47735(18) 0.37448(17)
C8 C 0.9389(2) 0.47043(19) 0.20793(16)
C9 C 0.8906(2) 0.24254(19) 0.37885(16)
C10 C 0.5625(3) 0.2517(2) 0.4221(2)
C11 C 0.5881(3) 0.2581(2) 0.3439(2)
H7 H 0.5334 0.2597 0.3138
H8 H 0.6245 0.3076 0.3350
C12 C 0.6426(3) 0.1824(3) 0.3299(2)
H9 H 0.7071 0.1963 0.3229
H10 H 0.6202 0.1544 0.2870
C13 C 0.6312(3) 0.1279(3) 0.3945(2)
H11 H 0.5917 0.0808 0.3838
H12 H 0.6904 0.1077 0.4114
C14 C 0.5736(4) 0.1552(3) 0.5168(3)
H13 H 0.5533 0.2020 0.5448
H14 H 0.6294 0.1333 0.5371
H15 H 0.5267 0.1131 0.5172
N1 N 0.5900(2) 0.1806(2) 0.44580(19)
Zn3 Zn 0.50210(2) 0.57355(2) 0.553811(18)
Zn4 Zn 0.99790(2) 0.42645(2) 0.053811(18)
Zn6 Zn 0.96817(2) 0.09120(2) 0.365685(18)
O10 O 0.44953(15) 0.54747(13) 0.29194(11)
O11 O 0.47404(15) 0.42206(13) 0.33609(11)
O12 O 0.54492(15) 0.70630(13) 0.34728(12)
O13 O 0.52844(14) 0.44730(13) 0.55085(11)
Zn1_2 Zn 0.00210(2) 0.57355(2) 0.946189(18)
O2_2 O 0.13684(16) 0.60476(15) 0.96490(12)
H1_2 H 0.1690 0.5627 0.9635
H2_2 H 0.1496 0.6366 0.9969
O8_2 O 0.02844(14) 0.44730(13) 0.94915(11)
H3_2 H 0.0815(9) 0.435(2) 0.9486(17)
O10_2 O 0.05047(15) 0.45253(13) 0.79194(11)
O11_2 O 0.02596(15) 0.57794(13) 0.83609(11)
C14_2 C 0.9264(4) 0.8448(3) 0.0168(3)
H13_2 H 0.9467 0.7980 0.0448
H14_2 H 0.8706 0.8667 0.0371
H15_2 H 0.9733 0.8869 0.0172
O13_2 O 0.97156(14) 0.55270(13) 0.05085(11)
Zn2_2 Zn 0.96817(2) 0.40880(2) 0.865685(18)
O1_2 O 0.86484(15) 0.55733(14) 0.92343(12)
O3_2 O 0.84997(15) 0.45757(14) 0.84432(12)
O4_2 O 0.55047(15) 0.45253(13) 0.70806(11)
O5_2 O 0.52596(15) 0.57794(13) 0.66391(11)
O6_2 O 0.54492(15) 0.79370(13) 0.84728(12)
O7_2 O 0.65515(17) 0.78776(15) 0.92822(13)
O9_2 O 0.97719(17) 0.69706(15) 0.95777(13)
C1_2 C 0.73774(19) 0.56152(19) 0.84844(16)
C2_2 C 0.69036(19) 0.5267(2) 0.79365(16)
H4_2 H 0.7099 0.4765 0.7739
C3_2 C 0.61281(19) 0.56581(19) 0.76695(16)
C4_2 C 0.5877(2) 0.64109(19) 0.79476(17)
H5_2 H 0.5375 0.6694 0.7754
C5_2 C 0.6357(2) 0.67531(19) 0.85079(16)
C6_2 C 0.7098(2) 0.6345(2) 0.87780(16)
H6_2 H 0.7417 0.6567 0.9168
C7_2 C 0.82398(19) 0.52265(18) 0.87448(17)
C8_2 C 0.5611(2) 0.52957(19) 0.70793(16)
C9_2 C 0.6094(2) 0.75746(19) 0.87885(16)
C10_2 C 0.9375(3) 0.7483(2) 0.9221(2)
C11_2 C 0.9119(3) 0.7419(2) 0.8439(2)
H7_2 H 0.9666 0.7403 0.8138
H8_2 H 0.8755 0.6924 0.8350
C12_2 C 0.8574(3) 0.8176(3) 0.8299(2)
H9_2 H 0.7929 0.8037 0.8229
H10_2 H 0.8798 0.8456 0.7870
C13_2 C 0.8688(3) 0.8721(3) 0.8945(2)
H11_2 H 0.9083 0.9192 0.8838
H12_2 H 0.8096 0.8923 0.9114
N1_2 N 0.9100(2) 0.8194(2) 0.94580(19)
Zn5_2 Zn 0.46817(2) 0.40880(2) 0.634315(18)
Zn6_2 Zn 0.53183(2) 0.90880(2) 0.865685(18)
O12_2 O 0.95508(15) 0.29370(13) 0.84728(12)
Zn2_3 Zn 0.46817(2) 0.09120(2) 0.134315(18)
O3_3 O 0.34997(15) 0.04243(14) 0.15568(12)
O4_3 O 0.05047(15) 0.04747(13) 0.29194(11)
O8_3 O 0.52844(14) 0.05270(13) 0.05085(11)
H3_3 H 0.5815(9) 0.065(2) 0.0514(17)
H4_3 H 0.2099 0.0235 0.2261
O10_3 O 0.55047(15) 0.04747(13) 0.20806(11)
O12_3 O 0.45508(15) 0.20630(13) 0.15272(12)
Zn3_2 Zn 0.49790(2) 0.07355(2) 0.946189(18)
Zn1_3 Zn 0.50210(2) 0.92645(2) 0.053811(18)
O1_3 O 0.36484(15) 0.94267(14) 0.07657(12)
O2_3 O 0.63684(16) 0.89524(15) 0.03510(12)
H1_3 H 0.6690 0.9373 0.0365
H2_3 H 0.6496 0.8634 0.0031
O5_3 O 0.02596(15) 0.92206(13) 0.33609(11)
O6_3 O 0.04492(15) 0.70630(13) 0.15272(12)
O7_3 O 0.15515(17) 0.71224(15) 0.07178(13)
O9_3 O 0.47719(17) 0.80294(15) 0.04223(13)
C1_3 C 0.23774(19) 0.93848(19) 0.15156(16)
C2_3 C 0.19036(19) 0.9733(2) 0.20635(16)
C3_3 C 0.11281(19) 0.93419(19) 0.23305(16)
C4_3 C 0.0877(2) 0.85891(19) 0.20524(17)
H5_3 H 0.0375 0.8306 0.2246
C5_3 C 0.1357(2) 0.82469(19) 0.14921(16)
C6_3 C 0.2098(2) 0.8655(2) 0.12220(16)
H6_3 H 0.2417 0.8433 0.0832
C7_3 C 0.32398(19) 0.97735(18) 0.12552(17)
C8_3 C 0.0611(2) 0.97043(19) 0.29207(16)
C9_3 C 0.1094(2) 0.74254(19) 0.12115(16)
C10_3 C 0.4375(3) 0.7517(2) 0.0779(2)
C11_3 C 0.4119(3) 0.7581(2) 0.1561(2)
H7_3 H 0.4666 0.7597 0.1862
H8_3 H 0.3755 0.8076 0.1650
C12_3 C 0.3574(3) 0.6824(3) 0.1701(2)
H9_3 H 0.2929 0.6963 0.1771
H10_3 H 0.3798 0.6544 0.2130
C13_3 C 0.3688(3) 0.6279(3) 0.1055(2)
H11_3 H 0.4083 0.5808 0.1162
H12_3 H 0.3096 0.6077 0.0886
N1_3 N 0.4100(2) 0.6806(2) 0.05420(19)
Zn4_2 Zn 0.00210(2) 0.92645(2) 0.446189(18)
O11_3 O 0.52596(15) 0.92206(13) 0.16391(11)
C14_3 C 0.4264(4) 0.6552(3) 0.9832(3)
H13_3 H 0.4467 0.7020 0.9552
H14_3 H 0.3706 0.6333 0.9629
H15_3 H 0.4733 0.6131 0.9828
O13_3 O 0.47156(14) 0.94730(13) 0.94915(11)
O1_4 O 0.13516(15) 0.05733(14) 0.57657(12)
O5_4 O 0.47404(15) 0.07794(13) 0.83609(11)
O6_4 O 0.45508(15) 0.29370(13) 0.65272(12)
O7_4 O 0.34485(17) 0.28776(15) 0.57178(13)
O9_4 O 0.02281(17) 0.19706(15) 0.54223(13)
C1_4 C 0.26226(19) 0.06152(19) 0.65156(16)
C2_4 C 0.30964(19) 0.0267(2) 0.70635(16)
C3_4 C 0.38719(19) 0.06581(19) 0.73305(16)
C4_4 C 0.4123(2) 0.14109(19) 0.70524(17)
H5_4 H 0.4625 0.1694 0.7246
C5_4 C 0.3643(2) 0.17531(19) 0.64921(16)
C6_4 C 0.2902(2) 0.1345(2) 0.62220(16)
H6_4 H 0.2583 0.1567 0.5832
C7_4 C 0.17602(19) 0.02265(18) 0.62552(17)
C8_4 C 0.4389(2) 0.02957(19) 0.79207(16)
C9_4 C 0.3906(2) 0.25746(19) 0.62115(16)
C10_4 C 0.0625(3) 0.2483(2) 0.5779(2)
C11_4 C 0.0881(3) 0.2419(2) 0.6561(2)
H7_4 H 0.0334 0.2403 0.6862
H8_4 H 0.1245 0.1924 0.6650
C12_4 C 0.1426(3) 0.3176(3) 0.6701(2)
H9_4 H 0.2071 0.3037 0.6771
H10_4 H 0.1202 0.3456 0.7130
C13_4 C 0.1312(3) 0.3721(3) 0.6055(2)
H11_4 H 0.0917 0.4192 0.6162
H12_4 H 0.1904 0.3923 0.5886
C14_4 C 0.0736(4) 0.3448(3) 0.4832(3)
H13_4 H 0.0533 0.2980 0.4552
H14_4 H 0.1294 0.3667 0.4629
H15_4 H 0.0267 0.3869 0.4828
N1_4 N 0.0900(2) 0.3194(2) 0.55420(19)
O13_4 O 0.02844(14) 0.05270(13) 0.44915(11)
Zn2_4 Zn 0.03183(2) 0.90880(2) 0.634315(18)
O3_4 O 0.15003(15) 0.95757(14) 0.65568(12)
O4_4 O 0.44953(15) 0.95253(13) 0.79194(11)
H4_4 H 0.2901 0.9765 0.7261
O12_4 O 0.04492(15) 0.79370(13) 0.65272(12)
Zn1_4 Zn 0.99790(2) 0.07355(2) 0.553811(18)
O2_4 O 0.86316(16) 0.10476(15) 0.53510(12)
H1_4 H 0.8310 0.0627 0.5365
H2_4 H 0.8504 0.1366 0.5031
O11_4 O 0.97404(15) 0.07794(13) 0.66391(11)
O8_4 O 0.97156(14) 0.94730(13) 0.55085(11)
H3_4 H 0.9185(9) 0.935(2) 0.5514(17)
O10_4 O 0.94953(15) 0.95253(13) 0.70806(11)
O1_5 O 0.36484(15) 0.55733(14) 0.57657(12)
O2_5 O 0.63684(16) 0.60476(15) 0.53510(12)
H1_5 H 0.6690 0.5627 0.5365
H2_5 H 0.6496 0.6366 0.5031
O3_5 O 0.34997(15) 0.45757(14) 0.65568(12)
O7_5 O 0.15515(17) 0.78776(15) 0.57178(13)
H3_5 H 0.5815(9) 0.435(2) 0.5514(17)
O9_5 O 0.47719(17) 0.69706(15) 0.54223(13)
C1_5 C 0.23774(19) 0.56152(19) 0.65156(16)
C2_5 C 0.19036(19) 0.5267(2) 0.70635(16)
H4_5 H 0.2099 0.4765 0.7261
C3_5 C 0.11281(19) 0.56581(19) 0.73305(16)
C4_5 C 0.0877(2) 0.64109(19) 0.70524(17)
H5_5 H 0.0375 0.6694 0.7246
C5_5 C 0.1357(2) 0.67531(19) 0.64921(16)
C6_5 C 0.2098(2) 0.6345(2) 0.62220(16)
H6_5 H 0.2417 0.6567 0.5832
C7_5 C 0.32398(19) 0.52265(18) 0.62552(17)
C8_5 C 0.0611(2) 0.52957(19) 0.79207(16)
C9_5 C 0.1094(2) 0.75746(19) 0.62115(16)
C10_5 C 0.4375(3) 0.7483(2) 0.5779(2)
C11_5 C 0.4119(3) 0.7419(2) 0.6561(2)
H7_5 H 0.4666 0.7403 0.6862
H8_5 H 0.3755 0.6924 0.6650
C12_5 C 0.3574(3) 0.8176(3) 0.6701(2)
H9_5 H 0.2929 0.8037 0.6771
H10_5 H 0.3798 0.8456 0.7130
C13_5 C 0.3688(3) 0.8721(3) 0.6055(2)
H11_5 H 0.4083 0.9192 0.6162
H12_5 H 0.3096 0.8923 0.5886
C14_5 C 0.4264(4) 0.8448(3) 0.4832(3)
H13_5 H 0.4467 0.7980 0.4552
H14_5 H 0.3706 0.8667 0.4629
H15_5 H 0.4733 0.8869 0.4828
N1_5 N 0.4100(2) 0.8194(2) 0.55420(19)
O1_6 O 0.13516(15) 0.44267(14) 0.07657(12)
O3_6 O 0.15003(15) 0.54243(14) 0.15568(12)
O7_6 O 0.34485(17) 0.21224(15) 0.07178(13)
O9_6 O 0.02281(17) 0.30294(15) 0.04223(13)
C1_6 C 0.26226(19) 0.43848(19) 0.15156(16)
C2_6 C 0.30964(19) 0.4733(2) 0.20635(16)
H4_6 H 0.2901 0.5235 0.2261
C3_6 C 0.38719(19) 0.43419(19) 0.23305(16)
C4_6 C 0.4123(2) 0.35891(19) 0.20524(17)
H5_6 H 0.4625 0.3306 0.2246
C5_6 C 0.3643(2) 0.32469(19) 0.14921(16)
C6_6 C 0.2902(2) 0.3655(2) 0.12220(16)
H6_6 H 0.2583 0.3433 0.0832
C7_6 C 0.17602(19) 0.47735(18) 0.12552(17)
C8_6 C 0.4389(2) 0.47043(19) 0.29207(16)
C9_6 C 0.3906(2) 0.24254(19) 0.12115(16)
C10_6 C 0.0625(3) 0.2517(2) 0.0779(2)
C11_6 C 0.0881(3) 0.2581(2) 0.1561(2)
H7_6 H 0.0334 0.2597 0.1862
H8_6 H 0.1245 0.3076 0.1650
C12_6 C 0.1426(3) 0.1824(3) 0.1701(2)
H9_6 H 0.2071 0.1963 0.1771
H10_6 H 0.1202 0.1544 0.2130
C13_6 C 0.1312(3) 0.1279(3) 0.1055(2)
H11_6 H 0.0917 0.0808 0.1162
H12_6 H 0.1904 0.1077 0.0886
N1_6 N 0.0900(2) 0.1806(2) 0.05420(19)
C14_6 C 0.0736(4) 0.1552(3) 0.9832(3)
H13_6 H 0.0533 0.2020 0.9552
H14_6 H 0.1294 0.1333 0.9629
H15_6 H 0.0267 0.1131 0.9828
O2_6 O 0.86316(16) 0.39524(15) 0.03510(12)
H1_6 H 0.8310 0.4373 0.0365
H2_6 H 0.8504 0.3634 0.0031
H3_6 H 0.9185(9) 0.565(2) 0.0514(17)
C14_7 C 0.5736(4) 0.3448(3) 0.0168(3)
H13_7 H 0.5533 0.2980 0.0448
H14_7 H 0.6294 0.3667 0.0371
H15_7 H 0.5267 0.3869 0.0172
O1_7 O 0.63516(15) 0.05733(14) 0.92343(12)
O2_7 O 0.36316(16) 0.10476(15) 0.96490(12)
H1_7 H 0.3310 0.0627 0.9635
H2_7 H 0.3504 0.1366 0.9969
O7_7 O 0.84485(17) 0.28776(15) 0.92822(13)
O9_7 O 0.52281(17) 0.19706(15) 0.95777(13)
C1_7 C 0.76226(19) 0.06152(19) 0.84844(16)
C2_7 C 0.80964(19) 0.0267(2) 0.79365(16)
C3_7 C 0.88719(19) 0.06581(19) 0.76695(16)
C4_7 C 0.9123(2) 0.14109(19) 0.79476(17)
H5_7 H 0.9625 0.1694 0.7754
C5_7 C 0.8643(2) 0.17531(19) 0.85079(16)
C6_7 C 0.7902(2) 0.1345(2) 0.87780(16)
H6_7 H 0.7583 0.1567 0.9168
C7_7 C 0.67602(19) 0.02265(18) 0.87448(17)
C8_7 C 0.9389(2) 0.02957(19) 0.70793(16)
C9_7 C 0.8906(2) 0.25746(19) 0.87885(16)
C10_7 C 0.5625(3) 0.2483(2) 0.9221(2)
C11_7 C 0.5881(3) 0.2419(2) 0.8439(2)
H7_7 H 0.5334 0.2403 0.8138
H8_7 H 0.6245 0.1924 0.8350
C12_7 C 0.6426(3) 0.3176(3) 0.8299(2)
H9_7 H 0.7071 0.3037 0.8229
H10_7 H 0.6202 0.3456 0.7870
C13_7 C 0.6312(3) 0.3721(3) 0.8945(2)
H11_7 H 0.5917 0.4192 0.8838
H12_7 H 0.6904 0.3923 0.9114
N1_7 N 0.5900(2) 0.3194(2) 0.94580(19)
O3_7 O 0.65003(15) 0.95757(14) 0.84432(12)
H3_7 H 0.4185(9) 0.935(2) 0.9486(17)
H4_7 H 0.7901 0.9765 0.7739
H3_8 H 0.0815(9) 0.065(2) 0.4486(17)
O2_8 O 0.13684(16) 0.89524(15) 0.46490(12)
H1_8 H 0.1690 0.9373 0.4635
H2_8 H 0.1496 0.8634 0.4969
O3_8 O 0.84997(15) 0.04243(14) 0.34432(12)
H4_8 H 0.7099 0.0235 0.2739
O1_8 O 0.86484(15) 0.94267(14) 0.42343(12)
O7_8 O 0.65515(17) 0.71224(15) 0.42822(13)
O9_8 O 0.97719(17) 0.80294(15) 0.45777(13)
C1_8 C 0.73774(19) 0.93848(19) 0.34844(16)
C2_8 C 0.69036(19) 0.9733(2) 0.29365(16)
C3_8 C 0.61281(19) 0.93419(19) 0.26695(16)
C4_8 C 0.5877(2) 0.85891(19) 0.29476(17)
H5_8 H 0.5375 0.8306 0.2754
C5_8 C 0.6357(2) 0.82469(19) 0.35079(16)
C6_8 C 0.7098(2) 0.8655(2) 0.37780(16)
H6_8 H 0.7417 0.8433 0.4168
C7_8 C 0.82398(19) 0.97735(18) 0.37448(17)
C8_8 C 0.5611(2) 0.97043(19) 0.20793(16)
C9_8 C 0.6094(2) 0.74254(19) 0.37885(16)
C10_8 C 0.9375(3) 0.7517(2) 0.4221(2)
C11_8 C 0.9119(3) 0.7581(2) 0.3439(2)
H7_8 H 0.9666 0.7597 0.3138
H8_8 H 0.8755 0.8076 0.3350
C12_8 C 0.8574(3) 0.6824(3) 0.3299(2)
H9_8 H 0.7929 0.6963 0.3229
H10_8 H 0.8798 0.6544 0.2870
C13_8 C 0.8688(3) 0.6279(3) 0.3945(2)
H11_8 H 0.9083 0.5808 0.3838
H12_8 H 0.8096 0.6077 0.4114
C14_8 C 0.9264(4) 0.6552(3) 0.5168(3)
H13_8 H 0.9467 0.7020 0.5448
H14_8 H 0.8706 0.6333 0.5371
H15_8 H 0.9733 0.6131 0.5172
N1_8 N 0.9100(2) 0.6806(2) 0.44580(19)
loop_
_geom_bond_atom_site_label_1
_geom_bond_atom_site_label_2
_geom_bond_site_symmetry_1
_geom_bond_site_symmetry_2
Zn1 O1 1_555 1_555
Zn2 O3 1_555 1_555
O1 C7 1_555 1_555
O2 Zn1 1_555 1_555
H1 O2 1_555 1_555
H2 O2 1_555 1_555
O3 C7 1_555 1_555
O4 C8 1_555 1_555
O5 C8 1_555 1_555
O6 C9 1_555 1_555
O7 C9 1_555 1_555
O8 Zn1 1_555 1_555
H3 O8 1_555 1_555
O9 Zn1 1_555 1_555
C1 C2 1_555 1_555
C2 H4 1_555 1_555
C3 C2 1_555 1_555
C4 C3 1_555 1_555
H5 C4 1_555 1_555
C5 C4 1_555 1_555
C6 C1 1_555 1_555
H6 C6 1_555 1_555
C7 C1 1_555 1_555
C8 C3 1_555 1_555
C9 C5 1_555 1_555
C10 O9 1_555 1_555
C11 C10 1_555 1_555
H7 C11 1_555 1_555
H8 C11 1_555 1_555
C12 C11 1_555 1_555
H9 C12 1_555 1_555
H10 C12 1_555 1_555
C13 C12 1_555 1_555
H11 C13 1_555 1_555
H12 C13 1_555 1_555
C14 H13 1_555 1_555
H14 C14 1_555 1_555
H15 C14 1_555 1_555
N1 C10 1_555 1_555
Zn3 O8 1_555 1_555
Zn4 O5 1_555 1_555
Zn6 O6 1_555 1_555
O10 Zn2 1_555 1_555
O11 Zn1 1_555 1_555
O12 Zn2 1_555 1_555
O13 Zn1 1_555 1_555
Zn2 O8 1_555 1_555
C5 C6 1_555 1_555
C13 N1 1_555 1_555
C14 N1 1_555 1_555
Zn3 O13 1_555 1_555
O2_2 Zn1_2 1_555 1_555
H1_2 O2_2 1_555 1_555
H2_2 O2_2 1_555 1_555
O8_2 Zn1_2 1_555 1_555
H3_2 O8_2 1_555 1_555
O11_2 Zn1_2 1_555 1_555
C14_2 H13_2 1_555 1_555
H14_2 C14_2 1_555 1_555
H15_2 C14_2 1_555 1_555
Zn4 O13_2 1_555 1_555
Zn2_2 O3_2 1_555 1_555
O1_2 C7_2 1_555 1_555
O3_2 C7_2 1_555 1_555
O4_2 C8_2 1_555 1_555
O5_2 C8_2 1_555 1_555
O6_2 C9_2 1_555 1_555
O7_2 C9_2 1_555 1_555
C1_2 C2_2 1_555 1_555
C2_2 H4_2 1_555 1_555
C3_2 C2_2 1_555 1_555
C4_2 C3_2 1_555 1_555
H5_2 C4_2 1_555 1_555
C5_2 C4_2 1_555 1_555
C6_2 C1_2 1_555 1_555
H6_2 C6_2 1_555 1_555
C7_2 C1_2 1_555 1_555
C8_2 C3_2 1_555 1_555
C9_2 C5_2 1_555 1_555
C10_2 O9_2 1_555 1_555
C11_2 C10_2 1_555 1_555
H7_2 C11_2 1_555 1_555
H8_2 C11_2 1_555 1_555
C12_2 C11_2 1_555 1_555
H9_2 C12_2 1_555 1_555
H10_2 C12_2 1_555 1_555
C13_2 C12_2 1_555 1_555
H11_2 C13_2 1_555 1_555
H12_2 C13_2 1_555 1_555
N1_2 C10_2 1_555 1_555
Zn3 O5_2 1_555 1_555
Zn5_2 O4_2 1_555 1_555
Zn6_2 O6_2 1_555 1_555
O12_2 Zn2_2 1_555 1_555
C5_2 C6_2 1_555 1_555
C13_2 N1_2 1_555 1_555
Zn2_3 O3_3 1_555 1_555
H3_3 O8_3 1_555 1_555
O10_3 Zn2_3 1_555 1_555
O12_3 Zn2_3 1_555 1_555
Zn2_3 O8_3 1_555 1_555
Zn1_3 O1_3 1_555 1_555
O1_3 C7_3 1_555 1_555
O2_3 Zn1_3 1_555 1_555
H1_3 O2_3 1_555 1_555
H2_3 O2_3 1_555 1_555
O5_3 C8_3 1_555 1_555
O6_3 C9_3 1_555 1_555
O7_3 C9_3 1_555 1_555
O9_3 Zn1_3 1_555 1_555
C1_3 C2_3 1_555 1_555
C3_3 C2_3 1_555 1_555
C4_3 C3_3 1_555 1_555
H5_3 C4_3 1_555 1_555
C5_3 C4_3 1_555 1_555
C6_3 C1_3 1_555 1_555
H6_3 C6_3 1_555 1_555
C7_3 C1_3 1_555 1_555
C8_3 C3_3 1_555 1_555
C9_3 C5_3 1_555 1_555
C10_3 O9_3 1_555 1_555
C11_3 C10_3 1_555 1_555
H7_3 C11_3 1_555 1_555
H8_3 C11_3 1_555 1_555
C12_3 C11_3 1_555 1_555
H9_3 C12_3 1_555 1_555
H10_3 C12_3 1_555 1_555
C13_3 C12_3 1_555 1_555
H11_3 C13_3 1_555 1_555
H12_3 C13_3 1_555 1_555
N1_3 C10_3 1_555 1_555
Zn4_2 O5_3 1_555 1_555
Zn5 O6_3 1_555 1_555
O11_3 Zn1_3 1_555 1_555
C5_3 C6_3 1_555 1_555
C13_3 N1_3 1_555 1_555
C14_3 H13_3 1_555 1_555
H14_3 C14_3 1_555 1_555
H15_3 C14_3 1_555 1_555
O1_4 C7_4 1_555 1_555
O5_4 C8_4 1_555 1_555
O6_4 C9_4 1_555 1_555
O7_4 C9_4 1_555 1_555
C1_4 C2_4 1_555 1_555
C3_4 C2_4 1_555 1_555
C4_4 C3_4 1_555 1_555
H5_4 C4_4 1_555 1_555
C5_4 C4_4 1_555 1_555
C6_4 C1_4 1_555 1_555
H6_4 C6_4 1_555 1_555
C7_4 C1_4 1_555 1_555
C8_4 C3_4 1_555 1_555
C9_4 C5_4 1_555 1_555
C10_4 O9_4 1_555 1_555
C11_4 C10_4 1_555 1_555
H7_4 C11_4 1_555 1_555
H8_4 C11_4 1_555 1_555
C12_4 C11_4 1_555 1_555
H9_4 C12_4 1_555 1_555
H10_4 C12_4 1_555 1_555
C13_4 C12_4 1_555 1_555
H11_4 C13_4 1_555 1_555
H12_4 C13_4 1_555 1_555
C14_4 H13_4 1_555 1_555
H14_4 C14_4 1_555 1_555
H15_4 C14_4 1_555 1_555
N1_4 C10_4 1_555 1_555
Zn3_2 O5_4 1_555 1_555
Zn5_2 O6_4 1_555 1_555
C5_4 C6_4 1_555 1_555
C13_4 N1_4 1_555 1_555
C14_4 N1_4 1_555 1_555
Zn2_4 O3_4 1_555 1_555
Zn6_2 O4_4 1_555 1_555
O12_4 Zn2_4 1_555 1_555
O2_4 Zn1_4 1_555 1_555
H1_4 O2_4 1_555 1_555
H2_4 O2_4 1_555 1_555
O11_4 Zn1_4 1_555 1_555
H3_4 O8_4 1_555 1_555
Zn3 O1_5 1_555 1_555
Zn5_2 O3_5 1_555 1_555
O1_5 C7_5 1_555 1_555
O2_5 Zn3 1_555 1_555
H1_5 O2_5 1_555 1_555
H2_5 O2_5 1_555 1_555
O3_5 C7_5 1_555 1_555
O10_2 C8_5 1_555 1_555
O11_2 C8_5 1_555 1_555
O12_4 C9_5 1_555 1_555
O7_5 C9_5 1_555 1_555
H3_5 O13 1_555 1_555
O9_5 Zn3 1_555 1_555
C1_5 C2_5 1_555 1_555
C2_5 H4_5 1_555 1_555
C3_5 C2_5 1_555 1_555
C4_5 C3_5 1_555 1_555
H5_5 C4_5 1_555 1_555
C5_5 C4_5 1_555 1_555
C6_5 C1_5 1_555 1_555
H6_5 C6_5 1_555 1_555
C7_5 C1_5 1_555 1_555
C8_5 C3_5 1_555 1_555
C9_5 C5_5 1_555 1_555
C10_5 O9_5 1_555 1_555
C11_5 C10_5 1_555 1_555
H7_5 C11_5 1_555 1_555
H8_5 C11_5 1_555 1_555
C12_5 C11_5 1_555 1_555
H9_5 C12_5 1_555 1_555
H10_5 C12_5 1_555 1_555
C13_5 C12_5 1_555 1_555
H11_5 C13_5 1_555 1_555
H12_5 C13_5 1_555 1_555
C14_5 H13_5 1_555 1_555
H14_5 C14_5 1_555 1_555
H15_5 C14_5 1_555 1_555
N1_5 C10_5 1_555 1_555
Zn5_2 O13 1_555 1_555
C5_5 C6_5 1_555 1_555
C13_5 N1_5 1_555 1_555
C14_5 N1_5 1_555 1_555
Zn5 O3_6 1_555 1_555
O1_6 C7_6 1_555 1_555
O3_6 C7_6 1_555 1_555
O10 C8_6 1_555 1_555
O11 C8_6 1_555 1_555
O12_3 C9_6 1_555 1_555
O7_6 C9_6 1_555 1_555
C1_6 C2_6 1_555 1_555
C2_6 H4_6 1_555 1_555
C3_6 C2_6 1_555 1_555
C4_6 C3_6 1_555 1_555
H5_6 C4_6 1_555 1_555
C5_6 C4_6 1_555 1_555
C6_6 C1_6 1_555 1_555
H6_6 C6_6 1_555 1_555
C7_6 C1_6 1_555 1_555
C8_6 C3_6 1_555 1_555
C9_6 C5_6 1_555 1_555
C10_6 O9_6 1_555 1_555
C11_6 C10_6 1_555 1_555
H7_6 C11_6 1_555 1_555
H8_6 C11_6 1_555 1_555
C12_6 C11_6 1_555 1_555
H9_6 C12_6 1_555 1_555
H10_6 C12_6 1_555 1_555
C13_6 C12_6 1_555 1_555
H11_6 C13_6 1_555 1_555
H12_6 C13_6 1_555 1_555
N1_6 C10_6 1_555 1_555
C5_6 C6_6 1_555 1_555
C13_6 N1_6 1_555 1_555
C14_6 H13_6 1_555 1_555
H14_6 C14_6 1_555 1_555
H15_6 C14_6 1_555 1_555
O2_6 Zn4 1_555 1_555
H1_6 O2_6 1_555 1_555
H2_6 O2_6 1_555 1_555
H3_6 O13_2 1_555 1_555
C14_7 H13_7 1_555 1_555
H14_7 C14_7 1_555 1_555
H15_7 C14_7 1_555 1_555
Zn3_2 O1_7 1_555 1_555
O1_7 C7_7 1_555 1_555
O2_7 Zn3_2 1_555 1_555
H1_7 O2_7 1_555 1_555
H2_7 O2_7 1_555 1_555
O11_4 C8_7 1_555 1_555
O12_2 C9_7 1_555 1_555
O7_7 C9_7 1_555 1_555
O9_7 Zn3_2 1_555 1_555
C1_7 C2_7 1_555 1_555
C3_7 C2_7 1_555 1_555
C4_7 C3_7 1_555 1_555
H5_7 C4_7 1_555 1_555
C5_7 C4_7 1_555 1_555
C6_7 C1_7 1_555 1_555
H6_7 C6_7 1_555 1_555
C7_7 C1_7 1_555 1_555
C8_7 C3_7 1_555 1_555
C9_7 C5_7 1_555 1_555
C10_7 O9_7 1_555 1_555
C11_7 C10_7 1_555 1_555
H7_7 C11_7 1_555 1_555
H8_7 C11_7 1_555 1_555
C12_7 C11_7 1_555 1_555
H9_7 C12_7 1_555 1_555
H10_7 C12_7 1_555 1_555
C13_7 C12_7 1_555 1_555
H11_7 C13_7 1_555 1_555
H12_7 C13_7 1_555 1_555
N1_7 C10_7 1_555 1_555
C5_7 C6_7 1_555 1_555
C13_7 N1_7 1_555 1_555
Zn6_2 O3_7 1_555 1_555
H3_7 O13_3 1_555 1_555
Zn6_2 O13_3 1_555 1_555
H3_8 O13_4 1_555 1_555
O2_8 Zn4_2 1_555 1_555
H1_8 O2_8 1_555 1_555
H2_8 O2_8 1_555 1_555
Zn6 O3_8 1_555 1_555
O1_8 C7_8 1_555 1_555
O11_3 C8_8 1_555 1_555
O12 C9_8 1_555 1_555
O7_8 C9_8 1_555 1_555
C1_8 C2_8 1_555 1_555
C3_8 C2_8 1_555 1_555
C4_8 C3_8 1_555 1_555
H5_8 C4_8 1_555 1_555
C5_8 C4_8 1_555 1_555
C6_8 C1_8 1_555 1_555
H6_8 C6_8 1_555 1_555
C7_8 C1_8 1_555 1_555
C8_8 C3_8 1_555 1_555
C9_8 C5_8 1_555 1_555
C10_8 O9_8 1_555 1_555
C11_8 C10_8 1_555 1_555
H7_8 C11_8 1_555 1_555
H8_8 C11_8 1_555 1_555
C12_8 C11_8 1_555 1_555
H9_8 C12_8 1_555 1_555
H10_8 C12_8 1_555 1_555
C13_8 C12_8 1_555 1_555
H11_8 C13_8 1_555 1_555
H12_8 C13_8 1_555 1_555
C14_8 H13_8 1_555 1_555
H14_8 C14_8 1_555 1_555
H15_8 C14_8 1_555 1_555
N1_8 C10_8 1_555 1_555
C5_8 C6_8 1_555 1_555
C13_8 N1_8 1_555 1_555
C14_8 N1_8 1_555 1_555

#END
