
###############################################################################
#
# This file contains modified crystal structure data generated from the
# MOF subset of the Cambridge Structural Database (CSD) v543 
# hosted by the Cambridge Crystallographic Data Centre (CCDC).
#
# This work is licensed under the Creative Commons
# Attribution-NonCommercial-ShareAlike 4.0 International License.
# To view a copy of this license, visit
# http://creativecommons.org/licenses/by-nc-sa/4.0/
# or send a letter to
# Creative Commons, PO Box 1866, Mountain View, CA 94042, USA.
#
# CIF created using the CSD Python API on 29 September 2022
# The structure has been converted into the P1 space group
# The structure has a 3D framework
# The original CSD entry FAQLER is in the tetragonal crystal system
# The original CSD entry FAQLER is in a Sohncke space group
# The framework has been calculated to contain at least 10.0% void space
# The void calculation uses a probe of radius 1.32A, grid spacing 0.4
#
###############################################################################

data_FAQLER
_chemical_formula_moiety         '(C84 H38 O33 V7)n'
_symmetry_cell_setting           triclinic
_symmetry_space_group_name_H-M   'P 1'
_symmetry_Int_Tables_number      1
_space_group_name_Hall           'P 1'
loop_
_symmetry_equiv_pos_site_id
_symmetry_equiv_pos_as_xyz
1 x,y,z
_cell_length_a                   15.1171(12)
_cell_length_b                   15.1171(12)
_cell_length_c                   12.0833(10)
_cell_angle_alpha                90
_cell_angle_beta                 90
_cell_angle_gamma                90
_cell_volume                     2761.36
loop_
_atom_site_label
_atom_site_type_symbol
_atom_site_fract_x
_atom_site_fract_y
_atom_site_fract_z
V1 V 0.69028(2) 0.30972(2) 0.0000
O1 O 0.74974(13) 0.2500 0.1250
H1 H 0.7996(14) 0.2500 0.1250
O3 O 0.61643(11) 0.12237(10) 0.14102(11)
C1 C 0.5000 -0.0000 0.04391(19)
H2 H 0.5000 -0.0000 0.1209
C4 C 0.58938(13) 0.13989(13) 0.04527(15)
V5 V 0.69028(2) 0.19028(2) 0.2500
O15 O 0.78905(8) 0.39826(9) 0.00648(13)
O18 O 0.61643(11) 0.37763(10) 0.10898(11)
V1_2 V 0.69028(2) 0.30972(2) 1.0000
O2 O 0.60174(9) 0.21095(8) 0.99352(13)
C2 C 0.5000 -0.0000 0.8114(2)
C3 C 0.54062(13) 0.06814(12) 0.98574(16)
C5 C 0.53810(14) 0.06907(14) 0.87084(17)
H3 H 0.5623 0.1168 0.8329
O4 O 0.71095(8) 0.10174(9) 0.50648(13)
C6 C 0.5000 0.0000 0.45609(19)
H4 H 0.5000 -0.0000 0.3791
C7 C 0.5000 0.0000 0.6886(2)
C8 C 0.56814(12) 0.04062(13) 0.51426(16)
C9 C 0.63989(13) 0.08938(13) 0.45473(15)
C10 C 0.56907(14) 0.03810(14) 0.62916(17)
H5 H 0.6168 0.0623 0.6671
O5 O 0.62237(10) 0.11643(11) 0.35898(11)
V4 V 0.80972(2) 0.19028(2) 0.5000
O11 O 0.7500 0.24974(13) 0.3750
O12 O 0.7500 0.25026(13) 0.8750
O13 O 0.78905(8) 0.10174(9) 0.24352(13)
O14 O 0.60174(9) 0.28905(8) 0.25648(13)
O17 O 0.62237(10) 0.38357(11) 0.89102(11)
C1_2 C 0.5000 1.0000 0.04391(19)
H2_2 H 0.5000 1.0000 0.1209
C12 C 0.41062(13) 0.86011(13) 0.04527(15)
O7 O 0.38357(11) 0.87763(10) 0.14102(11)
V7 V 0.30972(2) 0.69028(2) 0.0000
V9 V 0.30972(2) 0.80972(2) 0.2500
C2_2 C 0.5000 1.0000 0.8114(2)
C6_2 C 0.5000 1.0000 0.45609(19)
H4_2 H 0.5000 1.0000 0.3791
C7_2 C 0.5000 1.0000 0.6886(2)
O6 O 0.39826(9) 0.78905(8) 0.99352(13)
C11 C 0.45938(13) 0.93186(12) 0.98574(16)
C13 C 0.46190(14) 0.93093(14) 0.87084(17)
H6 H 0.4377 0.8832 0.8329
O8 O 0.28905(8) 0.89826(9) 0.50648(13)
C14 C 0.43186(12) 0.95938(13) 0.51426(16)
C15 C 0.36011(13) 0.91062(13) 0.45473(15)
C16 C 0.43093(14) 0.96190(14) 0.62916(17)
H7 H 0.3832 0.9377 0.6671
O9 O 0.37763(10) 0.88357(11) 0.35898(11)
V6 V 0.19028(2) 0.80972(2) 0.5000
V7_2 V 0.30972(2) 0.69028(2) 1.0000
C1_3 C 0.0000 0.5000 0.54391(19)
H2_3 H 0.0000 0.5000 0.6209
C2_3 C 0.0000 0.5000 0.3114(2)
C7_3 C 0.0000 0.5000 0.1886(2)
O6_2 O 0.10174(9) 0.71095(8) 0.49352(13)
C11_2 C 0.04062(13) 0.56814(12) 0.48574(16)
C12_2 C 0.08938(13) 0.63989(13) 0.54527(15)
C13_2 C 0.03810(14) 0.56907(14) 0.37084(17)
H6_2 H 0.0623 0.6168 0.3329
O7_2 O 0.11643(11) 0.62237(10) 0.64102(11)
O8_2 O 0.21095(8) 0.60174(9) 0.00648(13)
C14_2 C 0.06814(12) 0.54062(13) 0.01426(16)
C16_2 C 0.06907(14) 0.53810(14) 0.12916(17)
H7_2 H 0.1168 0.5623 0.1671
V9_2 V 0.19028(2) 0.69028(2) 0.7500
C6_3 C 0.0000 0.5000 0.95609(19)
H4_3 H 0.0000 0.5000 0.8791
C15_2 C 0.13989(13) 0.58938(13) 0.95473(15)
O9_2 O 0.12237(10) 0.61643(11) 0.85898(11)
O1_2 O 0.75026(13) 0.2500 0.6250
H1_2 H 0.7004(14) 0.2500 0.6250
O2_2 O 0.89826(9) 0.28905(8) 0.49352(13)
O3_2 O 0.88357(11) 0.37763(10) 0.64102(11)
C1_4 C 1.0000 0.5000 0.54391(19)
H2_4 H 1.0000 0.5000 0.6209
C2_4 C 1.0000 0.5000 0.3114(2)
C3_2 C 0.95938(13) 0.43186(12) 0.48574(16)
C4_2 C 0.91062(13) 0.36011(13) 0.54527(15)
C5_2 C 0.96190(14) 0.43093(14) 0.37084(17)
H3_2 H 0.9377 0.3832 0.3329
C7_4 C 1.0000 0.5000 0.1886(2)
C8_2 C 0.93186(12) 0.45938(13) 0.01426(16)
C10_2 C 0.93093(14) 0.46190(14) 0.12916(17)
H5_2 H 0.8832 0.4377 0.1671
V5_2 V 0.80972(2) 0.30972(2) 0.7500
O17_2 O 0.87763(10) 0.11643(11) 0.39102(11)
O18_2 O 0.88357(11) 0.12237(10) 0.60898(11)
C6_4 C 1.0000 0.5000 0.95609(19)
H4_4 H 1.0000 0.5000 0.8791
C9_2 C 0.86011(13) 0.41062(13) 0.95473(15)
O5_2 O 0.87763(10) 0.38357(11) 0.85898(11)
O13_2 O 0.71095(8) 0.39826(9) 0.74352(13)
O14_2 O 0.89826(9) 0.21095(8) 0.75648(13)
C1_5 C -0.0000 1.0000 0.29391(19)
H2_5 H -0.0000 1.0000 0.3709
C2_5 C -0.0000 1.0000 0.0614(2)
O6_3 O 0.21095(8) 0.89826(9) 0.24352(13)
C11_3 C 0.06814(12) 0.95938(13) 0.23574(16)
C12_3 C 0.13989(13) 0.91062(13) 0.29527(15)
C13_3 C 0.06907(14) 0.96190(14) 0.12084(17)
H6_3 H 0.1168 0.9377 0.0829
O7_3 O 0.12237(10) 0.88357(11) 0.39102(11)
C6_5 C -0.0000 1.0000 0.70609(19)
H4_5 H -0.0000 1.0000 0.6291
C7_5 C -0.0000 1.0000 0.9386(2)
O8_3 O 0.10174(9) 0.78905(8) 0.75648(13)
C14_3 C 0.04062(13) 0.93186(12) 0.76426(16)
C15_3 C 0.08938(13) 0.86011(13) 0.70473(15)
C16_3 C 0.03810(14) 0.93093(14) 0.87916(17)
H7_3 H 0.0623 0.8832 0.9171
O9_3 O 0.11643(11) 0.87763(10) 0.60898(11)
H1_3 H 0.7500 0.2996(14) 0.3750
C1_6 C 1.0000 -0.0000 0.29391(19)
H2_6 H 1.0000 -0.0000 0.3709
C2_6 C 1.0000 -0.0000 0.0614(2)
C3_3 C 0.93186(12) 0.04062(13) 0.23574(16)
C4_3 C 0.86011(13) 0.08938(13) 0.29527(15)
C5_3 C 0.93093(14) 0.03810(14) 0.12084(17)
H3_3 H 0.8832 0.0623 0.0829
C6_6 C 1.0000 -0.0000 0.70609(19)
H4_6 H 1.0000 -0.0000 0.6291
C7_6 C 1.0000 -0.0000 0.9386(2)
C8_3 C 0.95938(13) 0.06814(12) 0.76426(16)
C9_3 C 0.91062(13) 0.13989(13) 0.70473(15)
C10_3 C 0.96190(14) 0.06907(14) 0.87916(17)
H5_3 H 0.9377 0.1168 0.9171
H1_4 H 0.7500 0.2004(14) 0.8750
C1_7 C 0.5000 0.5000 0.79391(19)
H2_7 H 0.5000 0.5000 0.8709
C2_7 C 0.5000 0.5000 0.5614(2)
C3_4 C 0.56814(12) 0.45938(13) 0.73574(16)
C4_4 C 0.63989(13) 0.41062(13) 0.79527(15)
C5_4 C 0.56907(14) 0.46190(14) 0.62084(17)
H3_4 H 0.6168 0.4377 0.5829
C6_7 C 0.5000 0.5000 0.20609(19)
H4_7 H 0.5000 0.5000 0.1291
C7_7 C 0.5000 0.5000 0.4386(2)
C8_4 C 0.54062(13) 0.43186(12) 0.26426(16)
C9_4 C 0.58938(13) 0.36011(13) 0.20473(15)
C10_4 C 0.53810(14) 0.43093(14) 0.37916(17)
H5_4 H 0.5623 0.3832 0.4171
O6_4 O 0.28905(8) 0.60174(9) 0.74352(13)
C11_4 C 0.43186(12) 0.54062(13) 0.73574(16)
C12_4 C 0.36011(13) 0.58938(13) 0.79527(15)
C13_4 C 0.43093(14) 0.53810(14) 0.62084(17)
H6_4 H 0.3832 0.5623 0.5829
O7_4 O 0.37763(10) 0.61643(11) 0.89102(11)
O8_4 O 0.39826(9) 0.71095(8) 0.25648(13)
C14_4 C 0.45938(13) 0.56814(12) 0.26426(16)
C15_4 C 0.41062(13) 0.63989(13) 0.20473(15)
C16_4 C 0.46190(14) 0.56907(14) 0.37916(17)
H7_4 H 0.4377 0.6168 0.4171
O9_4 O 0.38357(11) 0.62237(10) 0.10898(11)
O1_3 O 0.24974(13) 0.7500 0.6250
H1_5 H 0.2996(14) 0.7500 0.6250
O12_2 O 0.2500 0.75026(13) 0.3750
O11_2 O 0.2500 0.74974(13) 0.8750
O1_4 O 0.25026(13) 0.7500 0.1250
H1_6 H 0.2004(14) 0.7500 0.1250
H1_7 H 0.2500 0.7996(14) 0.8750
H1_8 H 0.2500 0.7004(14) 0.3750
C1_8 C -0.0000 -0.0000 0.29391(19)
H2_8 H 0.0000 -0.0000 0.3709
C2_8 C -0.0000 -0.0000 0.0614(2)
C6_8 C -0.0000 -0.0000 0.70609(19)
H4_8 H -0.0000 -0.0000 0.6291
C7_8 C -0.0000 -0.0000 0.9386(2)
C1_9 C 1.0000 1.0000 0.29391(19)
H2_9 H 1.0000 1.0000 0.3709
C2_9 C 1.0000 1.0000 0.0614(2)
C6_9 C 1.0000 1.0000 0.70609(19)
H4_9 H 1.0000 1.0000 0.6291
C7_9 C 1.0000 1.0000 0.9386(2)
loop_
_geom_bond_atom_site_label_1
_geom_bond_atom_site_label_2
_geom_bond_site_symmetry_1
_geom_bond_site_symmetry_2
V1 O1 1_555 1_555
O1 H1 1_555 1_555
O3 C4 1_555 1_555
C1 H2 1_555 1_555
V5 O1 1_555 1_555
O15 V1 1_555 1_555
O18 V1 1_555 1_555
O3 V5 1_555 1_555
O2 V1_2 1_555 1_555
C2 C5 1_555 1_555
C5 C3 1_555 1_555
H3 C5 1_555 1_555
O4 C9 1_555 1_555
C6 H4 1_555 1_555
C7 C2 1_555 1_555
C8 C6 1_555 1_555
C9 C8 1_555 1_555
C10 C7 1_555 1_555
H5 C10 1_555 1_555
O5 C9 1_555 1_555
V5 O5 1_555 1_555
V4 O4 1_555 1_555
O11 V5 1_555 1_555
O12 V1_2 1_555 1_555
O13 V5 1_555 1_555
O14 V5 1_555 1_555
O17 V1_2 1_555 1_555
C8 C10 1_555 1_555
V4 O11 1_555 1_555
C1_2 H2_2 1_555 1_555
O7 C12 1_555 1_555
V9 O7 1_555 1_555
C6_2 H4_2 1_555 1_555
C7_2 C2_2 1_555 1_555
C13 C2_2 1_555 1_555
H6 C13 1_555 1_555
O8 C15 1_555 1_555
C14 C6_2 1_555 1_555
C15 C14 1_555 1_555
C16 C7_2 1_555 1_555
H7 C16 1_555 1_555
O9 C15 1_555 1_555
V6 O8 1_555 1_555
V7_2 O6 1_555 1_555
V9 O9 1_555 1_555
C11 C13 1_555 1_555
C14 C16 1_555 1_555
C1_3 H2_3 1_555 1_555
C7_3 C2_3 1_555 1_555
O6_2 C12_2 1_555 1_555
C11_2 C1_3 1_555 1_555
C12_2 C11_2 1_555 1_555
C13_2 C2_3 1_555 1_555
H6_2 C13_2 1_555 1_555
O7_2 C12_2 1_555 1_555
C16_2 C7_3 1_555 1_555
H7_2 C16_2 1_555 1_555
V7 O8_2 1_555 1_555
V6 O6_2 1_555 1_555
V9_2 O7_2 1_555 1_555
C11_2 C13_2 1_555 1_555
C14_2 C16_2 1_555 1_555
C6_3 H4_3 1_555 1_555
O9_2 C15_2 1_555 1_555
V9_2 O9_2 1_555 1_555
V4 O1_2 1_555 1_555
O1_2 H1_2 1_555 1_555
O2_2 V4 1_555 1_555
O3_2 C4_2 1_555 1_555
C1_4 H2_4 1_555 1_555
C2_4 C5_2 1_555 1_555
C3_2 C1_4 1_555 1_555
C4_2 O2_2 1_555 1_555
C5_2 C3_2 1_555 1_555
H3_2 C5_2 1_555 1_555
C7_4 C2_4 1_555 1_555
C10_2 C7_4 1_555 1_555
H5_2 C10_2 1_555 1_555
V5_2 O1_2 1_555 1_555
O17_2 V4 1_555 1_555
O18_2 V4 1_555 1_555
O3_2 V5_2 1_555 1_555
C3_2 C4_2 1_555 1_555
C8_2 C10_2 1_555 1_555
C6_4 H4_4 1_555 1_555
O5_2 C9_2 1_555 1_555
V5_2 O5_2 1_555 1_555
O12 V5_2 1_555 1_555
O13_2 V5_2 1_555 1_555
O14_2 V5_2 1_555 1_555
C1_5 H2_5 1_555 1_555
O6_3 C12_3 1_555 1_555
C11_3 C1_5 1_555 1_555
C12_3 C11_3 1_555 1_555
C13_3 C2_5 1_555 1_555
H6_3 C13_3 1_555 1_555
O7_3 C12_3 1_555 1_555
V9 O6_3 1_555 1_555
V6 O7_3 1_555 1_555
C11_3 C13_3 1_555 1_555
C6_5 H4_5 1_555 1_555
O8_3 C15_3 1_555 1_555
C14_3 C6_5 1_555 1_555
C15_3 C14_3 1_555 1_555
C16_3 C7_5 1_555 1_555
H7_3 C16_3 1_555 1_555
O9_3 C15_3 1_555 1_555
V9_2 O8_3 1_555 1_555
V6 O9_3 1_555 1_555
C14_3 C16_3 1_555 1_555
O11 H1_3 1_555 1_555
O17_2 C4_3 1_555 1_555
C1_6 H2_6 1_555 1_555
C2_6 C5_3 1_555 1_555
C3_3 C1_6 1_555 1_555
C4_3 O13 1_555 1_555
C5_3 C3_3 1_555 1_555
H3_3 C5_3 1_555 1_555
C3_3 C4_3 1_555 1_555
O14_2 C9_3 1_555 1_555
C6_6 H4_6 1_555 1_555
C8_3 C6_6 1_555 1_555
C9_3 C8_3 1_555 1_555
C10_3 C7_6 1_555 1_555
H5_3 C10_3 1_555 1_555
O18_2 C9_3 1_555 1_555
C8_3 C10_3 1_555 1_555
O12 H1_4 1_555 1_555
O17 C4_4 1_555 1_555
C1_7 H2_7 1_555 1_555
C2_7 C5_4 1_555 1_555
C3_4 C1_7 1_555 1_555
C4_4 O13_2 1_555 1_555
C5_4 C3_4 1_555 1_555
H3_4 C5_4 1_555 1_555
O14 C9_4 1_555 1_555
C6_7 H4_7 1_555 1_555
C7_7 C2_7 1_555 1_555
C8_4 C6_7 1_555 1_555
C9_4 C8_4 1_555 1_555
C10_4 C7_7 1_555 1_555
H5_4 C10_4 1_555 1_555
O18 C9_4 1_555 1_555
O6_4 C12_4 1_555 1_555
C11_4 C1_7 1_555 1_555
C12_4 C11_4 1_555 1_555
C13_4 C2_7 1_555 1_555
H6_4 C13_4 1_555 1_555
O7_4 C12_4 1_555 1_555
O8_4 C15_4 1_555 1_555
C14_4 C6_7 1_555 1_555
C15_4 C14_4 1_555 1_555
C16_4 C7_7 1_555 1_555
H7_4 C16_4 1_555 1_555
O9_4 C15_4 1_555 1_555
V9 O8_4 1_555 1_555
V9_2 O6_4 1_555 1_555
V7 O9_4 1_555 1_555
V7_2 O7_4 1_555 1_555
C3_4 C4_4 1_555 1_555
C8_4 C10_4 1_555 1_555
C11_4 C13_4 1_555 1_555
C14_4 C16_4 1_555 1_555
V6 O1_3 1_555 1_555
O1_3 H1_5 1_555 1_555
V9_2 O1_3 1_555 1_555
O12_2 V6 1_555 1_555
O11_2 V9_2 1_555 1_555
V7_2 O11_2 1_555 1_555
V7 O1_4 1_555 1_555
O1_4 H1_6 1_555 1_555
V9 O1_4 1_555 1_555
O12_2 V9 1_555 1_555
O11_2 H1_7 1_555 1_555
O12_2 H1_8 1_555 1_555
C1_8 H2_8 1_555 1_555
C6_8 H4_8 1_555 1_555
C1_9 H2_9 1_555 1_555
C6_9 H4_9 1_555 1_555

#END
