
###############################################################################
#
# This file contains modified crystal structure data generated from the
# MOF subset of the Cambridge Structural Database (CSD) v543 
# hosted by the Cambridge Crystallographic Data Centre (CCDC).
#
# This work is licensed under the Creative Commons
# Attribution-NonCommercial-ShareAlike 4.0 International License.
# To view a copy of this license, visit
# http://creativecommons.org/licenses/by-nc-sa/4.0/
# or send a letter to
# Creative Commons, PO Box 1866, Mountain View, CA 94042, USA.
#
# CIF created using the CSD Python API on 29 September 2022
# The structure has been converted into the P1 space group
# The structure has a 3D framework
# The original CSD entry FAQLIV is in the tetragonal crystal system
# The original CSD entry FAQLIV is in a Sohncke space group
# The framework has been calculated to contain at least 10.0% void space
# The void calculation uses a probe of radius 1.32A, grid spacing 0.4
#
###############################################################################

data_FAQLIV
_chemical_formula_moiety         '(C84 H34 O33 V9)n'
_symmetry_cell_setting           triclinic
_symmetry_space_group_name_H-M   'P 1'
_symmetry_Int_Tables_number      1
_space_group_name_Hall           'P 1'
loop_
_symmetry_equiv_pos_site_id
_symmetry_equiv_pos_as_xyz
1 x,y,z
_cell_length_a                   15.0241(10)
_cell_length_b                   15.0241(10)
_cell_length_c                   11.9360(11)
_cell_angle_alpha                90
_cell_angle_beta                 90
_cell_angle_gamma                90
_cell_volume                     2694.24
loop_
_atom_site_label
_atom_site_type_symbol
_atom_site_fract_x
_atom_site_fract_y
_atom_site_fract_z
V1 V 0.19635(4) 0.19635(4) 0.0000
O2 O 0.2434(2) 0.2500 0.1250
O3 O 0.12136(17) 0.37751(17) 0.14330(16)
C1 C -0.0000 0.5000 0.0474(3)
H1 H -0.0000 0.5000 0.1253
C2 C 0.0916(2) 0.3598(2) 0.0467(2)
V7 V 0.19635(4) 0.30365(4) 0.2500
O13 O 0.28789(15) 0.10244(15) 0.00589(19)
O17 O 0.12136(17) 0.12249(17) 0.10670(16)
V1_2 V 0.19635(4) 0.19635(4) 1.0000
O1 O 0.10244(15) 0.28789(15) 0.99411(19)
C3 C -0.0000 0.5000 0.8125(3)
C4 C 0.0414(2) 0.4320(2) 0.9884(3)
C5 C 0.0392(3) 0.4309(3) 0.8717(3)
H2 H 0.0642 0.3833 0.8331
C6 C -0.0000 0.5000 0.4526(3)
H3 H -0.0000 0.5000 0.3747
C8 C 0.0000 0.5000 0.6875(3)
O8 O 0.21211(15) 0.39756(15) 0.50589(19)
C14 C 0.1402(2) 0.4084(2) 0.4533(2)
C15 C 0.0680(2) 0.4586(2) 0.5116(3)
C16 C 0.0691(3) 0.4608(3) 0.6283(3)
H6 H 0.1167 0.4358 0.6669
O9 O 0.12249(17) 0.37864(17) 0.35670(16)
V4 V 0.30365(4) 0.30365(4) 0.5000
O11 O 0.10244(15) 0.21211(15) 0.25589(19)
O12 O 0.28789(15) 0.39756(15) 0.24411(19)
O14 O 0.2500 0.2434(2) 0.8750
O15 O 0.2500 0.2566(2) 0.3750
O18 O 0.12249(17) 0.12136(17) 0.89330(16)
C1_2 C 1.0000 0.5000 0.0474(3)
H1_2 H 1.0000 0.5000 0.1253
C11 C 0.9084(2) 0.6402(2) 0.0467(2)
O7 O 0.87864(17) 0.62249(17) 0.14330(16)
V6 V 0.80365(4) 0.69635(4) 0.2500
V9 V 0.80365(4) 0.80365(4) 0.0000
C3_2 C 1.0000 0.5000 0.8125(3)
O4 O 0.78789(15) 0.60244(15) 0.50589(19)
C6_2 C 1.0000 0.5000 0.4526(3)
H3_2 H 1.0000 0.5000 0.3747
C7 C 0.8598(2) 0.5916(2) 0.4533(2)
C8_2 C 1.0000 0.5000 0.6875(3)
C9 C 0.9320(2) 0.5414(2) 0.5116(3)
C10 C 0.9309(3) 0.5392(3) 0.6283(3)
H4 H 0.8833 0.5642 0.6669
O5 O 0.87751(17) 0.62136(17) 0.35670(16)
O6 O 0.89756(15) 0.71211(15) 0.99411(19)
C12 C 0.9586(2) 0.5680(2) 0.9884(3)
C13 C 0.9608(3) 0.5691(3) 0.8717(3)
H5 H 0.9358 0.6167 0.8331
V8 V 0.69635(4) 0.69635(4) 0.5000
V9_2 V 0.80365(4) 0.80365(4) 1.0000
O1_2 O 0.39756(15) 0.21211(15) 0.49411(19)
O2_2 O 0.2566(2) 0.2500 0.6250
O3_2 O 0.37864(17) 0.12249(17) 0.64330(16)
C1_3 C 0.5000 0.0000 0.5474(3)
H1_3 H 0.5000 0.0000 0.6253
C2_2 C 0.4084(2) 0.1402(2) 0.5467(2)
C3_3 C 0.5000 0.0000 0.3125(3)
C4_2 C 0.4586(2) 0.0680(2) 0.4884(3)
C5_2 C 0.4608(3) 0.0691(3) 0.3717(3)
H2_2 H 0.4358 0.1167 0.3331
C8_3 C 0.5000 0.0000 0.1875(3)
C15_2 C 0.4320(2) 0.0414(2) 0.0116(3)
C16_2 C 0.4309(3) 0.0392(3) 0.1283(3)
H6_2 H 0.3833 0.0642 0.1669
V7_2 V 0.30365(4) 0.19635(4) 0.7500
O17_2 O 0.37864(17) 0.37751(17) 0.60670(16)
O18_2 O 0.37751(17) 0.37864(17) 0.39330(16)
C6_3 C 0.5000 0.0000 0.9526(3)
H3_3 H 0.5000 -0.0000 0.8747
C14_2 C 0.3598(2) 0.0916(2) 0.9533(2)
O9_2 O 0.37751(17) 0.12136(17) 0.85670(16)
O11_2 O 0.39756(15) 0.28789(15) 0.75589(19)
O12_2 O 0.21211(15) 0.10244(15) 0.74411(19)
C1_4 C 0.5000 1.0000 0.5474(3)
H1_4 H 0.5000 1.0000 0.6253
C3_4 C 0.5000 1.0000 0.3125(3)
O4_2 O 0.71211(15) 0.89756(15) 0.00589(19)
C8_4 C 0.5000 1.0000 0.1875(3)
C9_2 C 0.5680(2) 0.9586(2) 0.0116(3)
C10_2 C 0.5691(3) 0.9608(3) 0.1283(3)
H4_2 H 0.6167 0.9358 0.1669
O6_2 O 0.60244(15) 0.78789(15) 0.49411(19)
C11_2 C 0.5916(2) 0.8598(2) 0.5467(2)
C12_2 C 0.5414(2) 0.9320(2) 0.4884(3)
C13_2 C 0.5392(3) 0.9309(3) 0.3717(3)
H5_2 H 0.5642 0.8833 0.3331
O7_2 O 0.62136(17) 0.87751(17) 0.64330(16)
V6_2 V 0.69635(4) 0.80365(4) 0.7500
C6_4 C 0.5000 1.0000 0.9526(3)
H3_4 H 0.5000 1.0000 0.8747
C7_2 C 0.6402(2) 0.9084(2) 0.9533(2)
O5_2 O 0.62249(17) 0.87864(17) 0.85670(16)
O1_3 O 0.71211(15) 0.60244(15) 0.24411(19)
O2_3 O 0.7500 0.7434(2) 0.3750
O3_3 O 0.62249(17) 0.62136(17) 0.39330(16)
C1_5 C 0.5000 0.5000 0.2974(3)
H1_5 H 0.5000 0.5000 0.3753
C2_3 C 0.6402(2) 0.5916(2) 0.2967(2)
C3_5 C 0.5000 0.5000 0.0625(3)
C4_3 C 0.5680(2) 0.5414(2) 0.2384(3)
C5_3 C 0.5691(3) 0.5392(3) 0.1217(3)
H2_3 H 0.6167 0.5642 0.0831
C11_3 C 0.3598(2) 0.4084(2) 0.2967(2)
C12_3 C 0.4320(2) 0.4586(2) 0.2384(3)
C13_3 C 0.4309(3) 0.4608(3) 0.1217(3)
H5_3 H 0.3833 0.4358 0.0831
O13_2 O 0.89756(15) 0.78789(15) 0.25589(19)
O14_2 O 0.7566(2) 0.7500 0.1250
C6_5 C 0.5000 0.5000 0.7026(3)
H3_5 H 0.5000 0.5000 0.6247
C7_3 C 0.4084(2) 0.3598(2) 0.7033(2)
C8_5 C 0.5000 0.5000 0.9375(3)
C9_3 C 0.4586(2) 0.4320(2) 0.7616(3)
C10_3 C 0.4608(3) 0.4309(3) 0.8783(3)
H4_3 H 0.4358 0.3833 0.9169
O8_2 O 0.60244(15) 0.71211(15) 0.75589(19)
C14_3 C 0.5916(2) 0.6402(2) 0.7033(2)
C15_3 C 0.5414(2) 0.5680(2) 0.7616(3)
C16_3 C 0.5392(3) 0.5691(3) 0.8783(3)
H6_3 H 0.5642 0.6167 0.9169
O9_3 O 0.62136(17) 0.62249(17) 0.60670(16)
O15_2 O 0.7434(2) 0.7500 0.6250
C1_6 C -0.0000 0.0000 0.7974(3)
H1_6 H -0.0000 0.0000 0.8753
C3_6 C -0.0000 -0.0000 0.5625(3)
C6_6 C -0.0000 0.0000 0.2026(3)
H3_6 H -0.0000 0.0000 0.1247
C7_4 C 0.0916(2) 0.1402(2) 0.2033(2)
C8_6 C -0.0000 -0.0000 0.4375(3)
C9_4 C 0.0414(2) 0.0680(2) 0.2616(3)
C10_4 C 0.0392(3) 0.0691(3) 0.3783(3)
H4_4 H 0.0642 0.1167 0.4169
C11_4 C 0.1402(2) 0.0916(2) 0.7967(2)
C12_4 C 0.0680(2) 0.0414(2) 0.7384(3)
C13_4 C 0.0691(3) 0.0392(3) 0.6217(3)
H5_4 H 0.1167 0.0642 0.5831
O1_4 O 0.78789(15) 0.89756(15) 0.74411(19)
O2_4 O 0.7500 0.7566(2) 0.8750
O3_4 O 0.87751(17) 0.87864(17) 0.89330(16)
C1_7 C 1.0000 1.0000 0.7974(3)
H1_7 H 1.0000 1.0000 0.8753
C2_4 C 0.8598(2) 0.9084(2) 0.7967(2)
C3_7 C 1.0000 1.0000 0.5625(3)
C4_4 C 0.9320(2) 0.9586(2) 0.7384(3)
C5_4 C 0.9309(3) 0.9608(3) 0.6217(3)
H2_4 H 0.8833 0.9358 0.5831
C6_7 C 1.0000 1.0000 0.2026(3)
H3_7 H 1.0000 1.0000 0.1247
C8_7 C 1.0000 1.0000 0.4375(3)
C14_4 C 0.9084(2) 0.8598(2) 0.2033(2)
C15_4 C 0.9586(2) 0.9320(2) 0.2616(3)
C16_4 C 0.9608(3) 0.9309(3) 0.3783(3)
H6_4 H 0.9358 0.8833 0.4169
O9_4 O 0.87864(17) 0.87751(17) 0.10670(16)
C1_8 C -0.0000 1.0000 0.7974(3)
H1_8 H -0.0000 1.0000 0.8753
C3_8 C -0.0000 1.0000 0.5625(3)
C6_8 C -0.0000 1.0000 0.2026(3)
H3_8 H 0.0000 1.0000 0.1247
C8_8 C -0.0000 1.0000 0.4375(3)
C1_9 C 1.0000 0.0000 0.7974(3)
H1_9 H 1.0000 0.0000 0.8753
C3_9 C 1.0000 -0.0000 0.5625(3)
C6_9 C 1.0000 0.0000 0.2026(3)
H3_9 H 1.0000 0.0000 0.1247
C8_9 C 1.0000 -0.0000 0.4375(3)
loop_
_geom_bond_atom_site_label_1
_geom_bond_atom_site_label_2
_geom_bond_site_symmetry_1
_geom_bond_site_symmetry_2
O2 V1 1_555 1_555
O3 C2 1_555 1_555
C1 H1 1_555 1_555
V7 O2 1_555 1_555
O13 V1 1_555 1_555
O17 V1 1_555 1_555
O3 V7 1_555 1_555
V1_2 O1 1_555 1_555
C3 C5 1_555 1_555
C5 C4 1_555 1_555
H2 C5 1_555 1_555
C6 H3 1_555 1_555
C8 C3 1_555 1_555
O8 C14 1_555 1_555
C14 C15 1_555 1_555
C15 C6 1_555 1_555
C16 C8 1_555 1_555
H6 C16 1_555 1_555
O9 C14 1_555 1_555
V7 O9 1_555 1_555
V4 O8 1_555 1_555
O11 V7 1_555 1_555
O12 V7 1_555 1_555
O14 V1_2 1_555 1_555
O15 V7 1_555 1_555
O18 V1_2 1_555 1_555
C15 C16 1_555 1_555
V4 O15 1_555 1_555
C1_2 H1_2 1_555 1_555
O7 C11 1_555 1_555
V6 O7 1_555 1_555
O4 C7 1_555 1_555
C6_2 H3_2 1_555 1_555
C7 C9 1_555 1_555
C8_2 C3_2 1_555 1_555
C9 C6_2 1_555 1_555
C10 C8_2 1_555 1_555
H4 C10 1_555 1_555
O5 C7 1_555 1_555
C13 C3_2 1_555 1_555
H5 C13 1_555 1_555
V6 O5 1_555 1_555
V8 O4 1_555 1_555
V9_2 O6 1_555 1_555
C9 C10 1_555 1_555
C12 C13 1_555 1_555
V4 O1_2 1_555 1_555
O1_2 C2_2 1_555 1_555
O2_2 V4 1_555 1_555
O3_2 C2_2 1_555 1_555
C1_3 H1_3 1_555 1_555
C2_2 C4_2 1_555 1_555
C3_3 C5_2 1_555 1_555
C4_2 C1_3 1_555 1_555
C5_2 C4_2 1_555 1_555
H2_2 C5_2 1_555 1_555
C8_3 C3_3 1_555 1_555
C16_2 C8_3 1_555 1_555
H6_2 C16_2 1_555 1_555
V7_2 O2_2 1_555 1_555
O17_2 V4 1_555 1_555
O18_2 V4 1_555 1_555
O3_2 V7_2 1_555 1_555
C15_2 C16_2 1_555 1_555
C6_3 H3_3 1_555 1_555
O9_2 C14_2 1_555 1_555
V7_2 O9_2 1_555 1_555
O11_2 V7_2 1_555 1_555
O12_2 V7_2 1_555 1_555
O14 V7_2 1_555 1_555
C1_4 H1_4 1_555 1_555
C8_4 C3_4 1_555 1_555
C10_2 C8_4 1_555 1_555
H4_2 C10_2 1_555 1_555
O6_2 C11_2 1_555 1_555
C11_2 C12_2 1_555 1_555
C12_2 C1_4 1_555 1_555
C13_2 C3_4 1_555 1_555
H5_2 C13_2 1_555 1_555
O7_2 C11_2 1_555 1_555
V6_2 O7_2 1_555 1_555
V9 O4_2 1_555 1_555
V8 O6_2 1_555 1_555
C9_2 C10_2 1_555 1_555
C12_2 C13_2 1_555 1_555
C6_4 H3_4 1_555 1_555
O5_2 C7_2 1_555 1_555
V6_2 O5_2 1_555 1_555
V6 O1_3 1_555 1_555
O1_3 C2_3 1_555 1_555
O2_3 V6 1_555 1_555
O3_3 C2_3 1_555 1_555
C1_5 H1_5 1_555 1_555
C2_3 C4_3 1_555 1_555
C3_5 C5_3 1_555 1_555
C4_3 C1_5 1_555 1_555
C5_3 C4_3 1_555 1_555
H2_3 C5_3 1_555 1_555
O12 C11_3 1_555 1_555
C11_3 C12_3 1_555 1_555
C12_3 C1_5 1_555 1_555
C13_3 C3_5 1_555 1_555
H5_3 C13_3 1_555 1_555
O18_2 C11_3 1_555 1_555
V8 O2_3 1_555 1_555
O13_2 V6 1_555 1_555
O14_2 V6 1_555 1_555
O3_3 V8 1_555 1_555
C12_3 C13_3 1_555 1_555
O11_2 C7_3 1_555 1_555
C6_5 H3_5 1_555 1_555
C7_3 C9_3 1_555 1_555
C9_3 C6_5 1_555 1_555
C10_3 C8_5 1_555 1_555
H4_3 C10_3 1_555 1_555
O17_2 C7_3 1_555 1_555
O8_2 C14_3 1_555 1_555
C14_3 C15_3 1_555 1_555
C15_3 C6_5 1_555 1_555
C16_3 C8_5 1_555 1_555
H6_3 C16_3 1_555 1_555
O9_3 C14_3 1_555 1_555
V8 O9_3 1_555 1_555
V6_2 O8_2 1_555 1_555
O15_2 V8 1_555 1_555
C9_3 C10_3 1_555 1_555
C15_3 C16_3 1_555 1_555
V6_2 O15_2 1_555 1_555
C1_6 H1_6 1_555 1_555
O11 C7_4 1_555 1_555
C6_6 H3_6 1_555 1_555
C7_4 C9_4 1_555 1_555
C8_6 C3_6 1_555 1_555
C9_4 C6_6 1_555 1_555
C10_4 C8_6 1_555 1_555
H4_4 C10_4 1_555 1_555
O17 C7_4 1_555 1_555
O12_2 C11_4 1_555 1_555
C11_4 C12_4 1_555 1_555
C12_4 C1_6 1_555 1_555
C13_4 C3_6 1_555 1_555
H5_4 C13_4 1_555 1_555
O18 C11_4 1_555 1_555
C9_4 C10_4 1_555 1_555
C12_4 C13_4 1_555 1_555
V6_2 O1_4 1_555 1_555
O1_4 C2_4 1_555 1_555
O2_4 V6_2 1_555 1_555
O3_4 C2_4 1_555 1_555
C1_7 H1_7 1_555 1_555
C2_4 C4_4 1_555 1_555
C3_7 C5_4 1_555 1_555
C4_4 C1_7 1_555 1_555
C5_4 C4_4 1_555 1_555
H2_4 C5_4 1_555 1_555
C6_7 H3_7 1_555 1_555
C8_7 C3_7 1_555 1_555
O13_2 C14_4 1_555 1_555
C14_4 C15_4 1_555 1_555
C15_4 C6_7 1_555 1_555
C16_4 C8_7 1_555 1_555
H6_4 C16_4 1_555 1_555
O9_4 C14_4 1_555 1_555
V9 O9_4 1_555 1_555
V9_2 O2_4 1_555 1_555
O14_2 V9 1_555 1_555
O3_4 V9_2 1_555 1_555
C15_4 C16_4 1_555 1_555
C1_8 H1_8 1_555 1_555
C6_8 H3_8 1_555 1_555
C8_8 C3_8 1_555 1_555
C1_9 H1_9 1_555 1_555
C6_9 H3_9 1_555 1_555
C8_9 C3_9 1_555 1_555

#END
