
###############################################################################
#
# This file contains modified crystal structure data generated from the
# MOF subset of the Cambridge Structural Database (CSD) v543 
# hosted by the Cambridge Crystallographic Data Centre (CCDC).
#
# This work is licensed under the Creative Commons
# Attribution-NonCommercial-ShareAlike 4.0 International License.
# To view a copy of this license, visit
# http://creativecommons.org/licenses/by-nc-sa/4.0/
# or send a letter to
# Creative Commons, PO Box 1866, Mountain View, CA 94042, USA.
#
# CIF created using the CSD Python API on 29 September 2022
# The structure has been converted into the P1 space group
# The structure has a 3D framework
# The original CSD entry FAQLER01 is in the tetragonal crystal system
# The original CSD entry FAQLER01 is in a Sohncke space group
# The framework has been calculated to contain at least 10.0% void space
# The void calculation uses a probe of radius 1.32A, grid spacing 0.4
#
###############################################################################

data_FAQLER01
_chemical_formula_moiety         '(C84 H40 O34 V6)n'
_symmetry_cell_setting           triclinic
_symmetry_space_group_name_H-M   'P 1'
_symmetry_Int_Tables_number      1
_space_group_name_Hall           'P 1'
loop_
_symmetry_equiv_pos_site_id
_symmetry_equiv_pos_as_xyz
1 x,y,z
_cell_length_a                   15.13549(4)
_cell_length_b                   15.13549(4)
_cell_length_c                   12.06324(4)
_cell_angle_alpha                90
_cell_angle_beta                 90
_cell_angle_gamma                90
_cell_volume                     2763.48
loop_
_atom_site_label
_atom_site_type_symbol
_atom_site_fract_x
_atom_site_fract_y
_atom_site_fract_z
_atom_site_U_iso_or_equiv
_atom_site_thermal_displace_type
C6 C 0.6411(3) 0.4081(3) 0.2892(4) 0.0206 Uiso
C7 C 0.5681(3) 0.4586(3) 0.2368(4) 0.0206 Uiso
C8 C 0.500 0.500 0.2920(5) 0.0206 Uiso
C9 C 0.5673(3) 0.4544(3) 0.1182(3) 0.0206 Uiso
C10 C 0.500 0.500 0.0628(4) 0.0206 Uiso
H4 H 0.500 0.500 0.369(3) 0.0248 Uiso
H5 H 0.61838 0.42682 0.09265 0.0248 Uiso
O4 O 0.70767(19) 0.39717(19) 0.2329(2) 0.0128 Uiso
O5 O 0.6189(2) 0.3729(2) 0.3826(2) 0.0128 Uiso
C11 C 0.3589(3) 0.5919(3) 0.2892(4) 0.0206 Uiso
C12 C 0.4319(3) 0.5414(3) 0.2368(4) 0.0206 Uiso
C13 C 0.4327(3) 0.5456(3) 0.1182(3) 0.0206 Uiso
H6 H 0.38162 0.57318 0.09265 0.0248 Uiso
O6 O 0.29233(19) 0.60283(19) 0.2329(2) 0.0128 Uiso
O7 O 0.3811(2) 0.6271(2) 0.3826(2) 0.0128 Uiso
V2 V 0.81014(7) 0.31014(7) 0.250 0.0127 Uiso
O10 O 0.7557(3) 0.250 0.125 0.0128 Uiso
H8 H 0.694 0.250 0.125 0.0248 Uiso
V3 V 0.68986(7) 0.31014(7) 0.500 0.0127 Uiso
V5 V 0.81014(7) 0.18986(7) 0.000 0.0127 Uiso
V7 V 0.18986(7) 0.68986(7) 0.250 0.0127 Uiso
V9 V 0.31014(7) 0.68986(7) 0.500 0.0127 Uiso
O12 O 0.750 0.2557(3) 0.375 0.0128 Uiso
O15 O 0.89717(19) 0.20767(19) 0.2671(2) 0.0128 Uiso
O16 O 0.8729(2) 0.3811(2) 0.1326(2) 0.0128 Uiso
O18 O 0.8811(2) 0.3729(2) 0.3674(2) 0.0128 Uiso
O1 O 0.7443(3) 0.250 0.625 0.0128 Uiso
O2 O 0.60283(19) 0.29233(19) 0.7671(2) 0.0128 Uiso
O3 O 0.6271(2) 0.3811(2) 0.6174(2) 0.0128 Uiso
C1 C 0.5919(3) 0.3589(3) 0.7108(4) 0.0206 Uiso
C2 C 0.5414(3) 0.4319(3) 0.7632(4) 0.0206 Uiso
C3 C 0.500 0.500 0.7080(5) 0.0206 Uiso
C4 C 0.5456(3) 0.4327(3) 0.8818(3) 0.0206 Uiso
C5 C 0.500 0.500 0.9372(4) 0.0206 Uiso
H1 H 0.500 0.500 0.631(3) 0.0248 Uiso
H2 H 0.57318 0.38162 0.90735 0.0248 Uiso
H3 H 0.806 0.250 0.625 0.0248 Uiso
C14 C 0.4081(3) 0.6411(3) 0.7108(4) 0.0206 Uiso
C15 C 0.4586(3) 0.5681(3) 0.7632(4) 0.0206 Uiso
C16 C 0.4544(3) 0.5673(3) 0.8818(3) 0.0206 Uiso
H7 H 0.42682 0.61838 0.90735 0.0248 Uiso
O8 O 0.39717(19) 0.70767(19) 0.7671(2) 0.0128 Uiso
O9 O 0.3729(2) 0.6189(2) 0.6174(2) 0.0128 Uiso
V4 V 0.68986(7) 0.18986(7) 0.750 0.0127 Uiso
V5_2 V 0.81014(7) 0.18986(7) 1.000 0.0127 Uiso
V6 V 0.31014(7) 0.81014(7) 0.750 0.0127 Uiso
O13 O 0.79233(19) 0.39717(19) 0.5171(2) 0.0128 Uiso
O14 O 0.60283(19) 0.20767(19) 0.4829(2) 0.0128 Uiso
C3_2 C -0.000 0.500 0.0420(5) 0.0206 Uiso
H1_2 H -0.000 0.500 0.119(3) 0.0248 Uiso
C14_2 C 0.0919(3) 0.6411(3) 0.0392(4) 0.0206 Uiso
O9_2 O 0.1271(2) 0.6189(2) 0.1326(2) 0.0128 Uiso
V6_2 V 0.18986(7) 0.81014(7) 0.000 0.0127 Uiso
C5_2 C -0.000 0.500 0.8128(4) 0.0206 Uiso
C8_2 C -0.000 0.500 0.4580(5) 0.0206 Uiso
C10_2 C -0.000 0.500 0.6872(4) 0.0206 Uiso
H4_2 H -0.000 0.500 0.381(3) 0.0248 Uiso
C11_2 C 0.1411(3) 0.5919(3) 0.4608(4) 0.0206 Uiso
C12_2 C 0.0681(3) 0.5414(3) 0.5132(4) 0.0206 Uiso
C13_2 C 0.0673(3) 0.5456(3) 0.6318(3) 0.0206 Uiso
H6_2 H 0.11838 0.57318 0.65735 0.0248 Uiso
O6_2 O 0.20767(19) 0.60283(19) 0.5171(2) 0.0128 Uiso
O7_2 O 0.1189(2) 0.6271(2) 0.3674(2) 0.0128 Uiso
C15_2 C 0.0414(3) 0.5681(3) 0.9868(4) 0.0206 Uiso
C16_2 C 0.0456(3) 0.5673(3) 0.8682(3) 0.0206 Uiso
H7_2 H 0.07318 0.61838 0.84265 0.0248 Uiso
O8_2 O 0.10283(19) 0.70767(19) 0.9829(2) 0.0128 Uiso
V6_3 V 0.18986(7) 0.81014(7) 1.000 0.0127 Uiso
C1_2 C 0.9081(3) 0.3589(3) 0.0392(4) 0.0206 Uiso
C3_3 C 1.000 0.500 0.0420(5) 0.0206 Uiso
H1_3 H 1.000 0.500 0.119(3) 0.0248 Uiso
O2_2 O 0.89717(19) 0.29233(19) 0.9829(2) 0.0128 Uiso
C2_2 C 0.9586(3) 0.4319(3) 0.9868(4) 0.0206 Uiso
C4_2 C 0.9544(3) 0.4327(3) 0.8682(3) 0.0206 Uiso
C5_3 C 1.000 0.500 0.8128(4) 0.0206 Uiso
H2_2 H 0.92682 0.38162 0.84265 0.0248 Uiso
C6_2 C 0.8589(3) 0.4081(3) 0.4608(4) 0.0206 Uiso
C7_2 C 0.9319(3) 0.4586(3) 0.5132(4) 0.0206 Uiso
C8_3 C 1.000 0.500 0.4580(5) 0.0206 Uiso
C9_2 C 0.9327(3) 0.4544(3) 0.6318(3) 0.0206 Uiso
C10_3 C 1.000 0.500 0.6872(4) 0.0206 Uiso
H4_3 H 1.000 0.500 0.381(3) 0.0248 Uiso
H5_2 H 0.88162 0.42682 0.65735 0.0248 Uiso
H3_2 H 0.750 0.194 0.375 0.0248 Uiso
O10_2 O 0.750 0.2443(3) 0.875 0.0128 Uiso
H8_2 H 0.750 0.306 0.875 0.0248 Uiso
O15_2 O 0.79233(19) 0.10283(19) 0.7329(2) 0.0128 Uiso
O16_2 O 0.6189(2) 0.1271(2) 0.8674(2) 0.0128 Uiso
O18_2 O 0.6271(2) 0.1189(2) 0.6326(2) 0.0128 Uiso
O2_3 O 0.70767(19) 0.10283(19) 0.0171(2) 0.0128 Uiso
C2_3 C 0.5681(3) 0.0414(3) 0.0132(4) 0.0206 Uiso
C4_3 C 0.5673(3) 0.0456(3) 0.1318(3) 0.0206 Uiso
C5_4 C 0.500 0.000 0.1872(4) 0.0206 Uiso
H2_3 H 0.61838 0.07318 0.15735 0.0248 Uiso
C6_3 C 0.5919(3) 0.1411(3) 0.5392(4) 0.0206 Uiso
C7_3 C 0.5414(3) 0.0681(3) 0.4868(4) 0.0206 Uiso
C8_4 C 0.500 0.000 0.5420(5) 0.0206 Uiso
C9_3 C 0.5456(3) 0.0673(3) 0.3682(3) 0.0206 Uiso
C10_4 C 0.500 0.000 0.3128(4) 0.0206 Uiso
H4_4 H 0.500 -0.000 0.619(3) 0.0248 Uiso
H5_3 H 0.57318 0.11838 0.34265 0.0248 Uiso
C1_3 C 0.6411(3) 0.0919(3) 0.9608(4) 0.0206 Uiso
C3_4 C 0.500 0.000 0.9580(5) 0.0206 Uiso
H1_4 H 0.500 0.000 0.881(3) 0.0248 Uiso
C5_5 C 0.500 1.000 0.1872(4) 0.0206 Uiso
C8_5 C 0.500 1.000 0.5420(5) 0.0206 Uiso
C10_5 C 0.500 1.000 0.3128(4) 0.0206 Uiso
H4_5 H 0.500 1.000 0.619(3) 0.0248 Uiso
C11_3 C 0.4081(3) 0.8589(3) 0.5392(4) 0.0206 Uiso
C12_3 C 0.4586(3) 0.9319(3) 0.4868(4) 0.0206 Uiso
C13_3 C 0.4544(3) 0.9327(3) 0.3682(3) 0.0206 Uiso
H6_3 H 0.42682 0.88162 0.34265 0.0248 Uiso
O6_3 O 0.39717(19) 0.79233(19) 0.4829(2) 0.0128 Uiso
O7_3 O 0.3729(2) 0.8811(2) 0.6326(2) 0.0128 Uiso
C15_3 C 0.4319(3) 0.9586(3) 0.0132(4) 0.0206 Uiso
C16_3 C 0.4327(3) 0.9544(3) 0.1318(3) 0.0206 Uiso
H7_3 H 0.38162 0.92682 0.15735 0.0248 Uiso
O8_3 O 0.29233(19) 0.89717(19) 0.0171(2) 0.0128 Uiso
C3_5 C 0.500 1.000 0.9580(5) 0.0206 Uiso
H1_5 H 0.500 1.000 0.881(3) 0.0248 Uiso
C14_3 C 0.3589(3) 0.9081(3) 0.9608(4) 0.0206 Uiso
O9_3 O 0.3811(2) 0.8729(2) 0.8674(2) 0.0128 Uiso
O18_3 O 0.8729(2) 0.1189(2) 0.1174(2) 0.0128 Uiso
O16_3 O 0.8811(2) 0.1271(2) 0.8826(2) 0.0128 Uiso
C3_6 C -0.000 1.000 0.7920(5) 0.0206 Uiso
C5_6 C -0.000 1.000 0.5628(4) 0.0206 Uiso
H1_6 H -0.000 1.000 0.869(3) 0.0248 Uiso
C8_6 C -0.000 1.000 0.2080(5) 0.0206 Uiso
C10_6 C -0.000 1.000 0.4372(4) 0.0206 Uiso
H4_6 H -0.000 1.000 0.131(3) 0.0248 Uiso
C11_4 C 0.0919(3) 0.8589(3) 0.2108(4) 0.0206 Uiso
C12_4 C 0.0414(3) 0.9319(3) 0.2632(4) 0.0206 Uiso
C13_4 C 0.0456(3) 0.9327(3) 0.3818(3) 0.0206 Uiso
H6_4 H 0.07318 0.88162 0.40735 0.0248 Uiso
O6_4 O 0.10283(19) 0.79233(19) 0.2671(2) 0.0128 Uiso
O7_4 O 0.1271(2) 0.8811(2) 0.1174(2) 0.0128 Uiso
C14_4 C 0.1411(3) 0.9081(3) 0.7892(4) 0.0206 Uiso
C15_4 C 0.0681(3) 0.9586(3) 0.7368(4) 0.0206 Uiso
C16_4 C 0.0673(3) 0.9544(3) 0.6182(3) 0.0206 Uiso
H7_4 H 0.11838 0.92682 0.59265 0.0248 Uiso
O8_4 O 0.20767(19) 0.89717(19) 0.7329(2) 0.0128 Uiso
O9_4 O 0.1189(2) 0.8729(2) 0.8826(2) 0.0128 Uiso
C1_4 C 0.8589(3) 0.0919(3) 0.7892(4) 0.0206 Uiso
C2_4 C 0.9319(3) 0.0414(3) 0.7368(4) 0.0206 Uiso
C3_7 C 1.000 0.000 0.7920(5) 0.0206 Uiso
C4_4 C 0.9327(3) 0.0456(3) 0.6182(3) 0.0206 Uiso
C5_7 C 1.000 0.000 0.5628(4) 0.0206 Uiso
H1_7 H 1.000 0.000 0.869(3) 0.0248 Uiso
H2_4 H 0.88162 0.07318 0.59265 0.0248 Uiso
C6_4 C 0.9081(3) 0.1411(3) 0.2108(4) 0.0206 Uiso
C7_4 C 0.9586(3) 0.0681(3) 0.2632(4) 0.0206 Uiso
C8_7 C 1.000 -0.000 0.2080(5) 0.0206 Uiso
C9_4 C 0.9544(3) 0.0673(3) 0.3818(3) 0.0206 Uiso
C10_7 C 1.000 0.000 0.4372(4) 0.0206 Uiso
H4_7 H 1.000 0.000 0.131(3) 0.0248 Uiso
H5_4 H 0.92682 0.11838 0.40735 0.0248 Uiso
O1_2 O 0.2443(3) 0.750 0.125 0.0128 Uiso
H3_3 H 0.306 0.750 0.125 0.0248 Uiso
O10_3 O 0.2557(3) 0.750 0.625 0.0128 Uiso
H8_3 H 0.194 0.750 0.625 0.0248 Uiso
O12_2 O 0.250 0.7557(3) 0.875 0.0128 Uiso
H3_4 H 0.250 0.694 0.875 0.0248 Uiso
O10_4 O 0.250 0.7443(3) 0.375 0.0128 Uiso
H8_4 H 0.250 0.806 0.375 0.0248 Uiso
C3_8 C -0.000 0.000 0.7920(5) 0.0206 Uiso
C5_8 C -0.000 0.000 0.5628(4) 0.0206 Uiso
H1_8 H -0.000 0.000 0.869(3) 0.0248 Uiso
C8_8 C -0.000 -0.000 0.2080(5) 0.0206 Uiso
C10_8 C -0.000 0.000 0.4372(4) 0.0206 Uiso
H4_8 H -0.000 0.000 0.131(3) 0.0248 Uiso
C3_9 C 1.000 1.000 0.7920(5) 0.0206 Uiso
C5_9 C 1.000 1.000 0.5628(4) 0.0206 Uiso
H1_9 H 1.000 1.000 0.869(3) 0.0248 Uiso
C8_9 C 1.000 1.000 0.2080(5) 0.0206 Uiso
C10_9 C 1.000 1.000 0.4372(4) 0.0206 Uiso
H4_9 H 1.000 1.000 0.131(3) 0.0248 Uiso
loop_
_geom_bond_atom_site_label_1
_geom_bond_atom_site_label_2
_geom_bond_site_symmetry_1
_geom_bond_site_symmetry_2
C6 C7 1_555 1_555
C7 C8 1_555 1_555
C8 H4 1_555 1_555
C9 C7 1_555 1_555
H5 C9 1_555 1_555
O4 C6 1_555 1_555
O5 C6 1_555 1_555
C11 C12 1_555 1_555
C12 C8 1_555 1_555
C13 C10 1_555 1_555
H6 C13 1_555 1_555
O6 C11 1_555 1_555
O7 C11 1_555 1_555
V2 O4 1_555 1_555
O10 V2 1_555 1_555
H8 O10 1_555 1_555
V3 O5 1_555 1_555
V5 O10 1_555 1_555
V7 O6 1_555 1_555
V9 O7 1_555 1_555
O12 V2 1_555 1_555
O15 V2 1_555 1_555
O16 V2 1_555 1_555
O18 V2 1_555 1_555
C9 C10 1_555 1_555
C12 C13 1_555 1_555
V3 O12 1_555 1_555
V3 O1 1_555 1_555
O1 H3 1_555 1_555
O2 C1 1_555 1_555
O3 V3 1_555 1_555
C1 O3 1_555 1_555
C2 C1 1_555 1_555
C3 C2 1_555 1_555
C4 C2 1_555 1_555
C5 C4 1_555 1_555
H1 C3 1_555 1_555
H2 C4 1_555 1_555
C14 C15 1_555 1_555
C15 C3 1_555 1_555
C16 C5 1_555 1_555
H7 C16 1_555 1_555
O8 C14 1_555 1_555
O9 C14 1_555 1_555
V4 O1 1_555 1_555
V6 O8 1_555 1_555
V9 O9 1_555 1_555
O13 V3 1_555 1_555
O14 V3 1_555 1_555
O2 V4 1_555 1_555
C15 C16 1_555 1_555
H1_2 C3_2 1_555 1_555
O9_2 C14_2 1_555 1_555
V7 O9_2 1_555 1_555
C8_2 H4_2 1_555 1_555
C10_2 C5_2 1_555 1_555
C11_2 C12_2 1_555 1_555
C12_2 C8_2 1_555 1_555
C13_2 C10_2 1_555 1_555
H6_2 C13_2 1_555 1_555
O6_2 C11_2 1_555 1_555
O7_2 C11_2 1_555 1_555
C16_2 C5_2 1_555 1_555
H7_2 C16_2 1_555 1_555
V6_3 O8_2 1_555 1_555
V9 O6_2 1_555 1_555
V7 O7_2 1_555 1_555
C12_2 C13_2 1_555 1_555
C15_2 C16_2 1_555 1_555
C1_2 O16 1_555 1_555
H1_3 C3_3 1_555 1_555
C4_2 C2_2 1_555 1_555
C5_3 C4_2 1_555 1_555
H2_2 C4_2 1_555 1_555
C6_2 C7_2 1_555 1_555
C7_2 C8_3 1_555 1_555
C8_3 H4_3 1_555 1_555
C9_2 C7_2 1_555 1_555
C10_3 C5_3 1_555 1_555
H5_2 C9_2 1_555 1_555
O13 C6_2 1_555 1_555
O18 C6_2 1_555 1_555
O2_2 V5_2 1_555 1_555
C9_2 C10_3 1_555 1_555
O12 H3_2 1_555 1_555
O10_2 V4 1_555 1_555
H8_2 O10_2 1_555 1_555
V5_2 O10_2 1_555 1_555
O15_2 V4 1_555 1_555
O16_2 V4 1_555 1_555
O18_2 V4 1_555 1_555
C4_3 C2_3 1_555 1_555
C5_4 C4_3 1_555 1_555
H2_3 C4_3 1_555 1_555
C6_3 C7_3 1_555 1_555
C7_3 C8_4 1_555 1_555
C8_4 H4_4 1_555 1_555
C9_3 C7_3 1_555 1_555
C10_4 C5_4 1_555 1_555
H5_3 C9_3 1_555 1_555
O14 C6_3 1_555 1_555
O18_2 C6_3 1_555 1_555
O2_3 V5 1_555 1_555
C9_3 C10_4 1_555 1_555
C1_3 O16_2 1_555 1_555
H1_4 C3_4 1_555 1_555
C8_5 H4_5 1_555 1_555
C10_5 C5_5 1_555 1_555
C11_3 C12_3 1_555 1_555
C12_3 C8_5 1_555 1_555
C13_3 C10_5 1_555 1_555
H6_3 C13_3 1_555 1_555
O6_3 C11_3 1_555 1_555
O7_3 C11_3 1_555 1_555
C16_3 C5_5 1_555 1_555
H7_3 C16_3 1_555 1_555
V6_2 O8_3 1_555 1_555
V9 O6_3 1_555 1_555
V6 O7_3 1_555 1_555
C12_3 C13_3 1_555 1_555
C15_3 C16_3 1_555 1_555
H1_5 C3_5 1_555 1_555
O9_3 C14_3 1_555 1_555
V6 O9_3 1_555 1_555
O18_3 V5 1_555 1_555
O16_3 V5_2 1_555 1_555
H1_6 C3_6 1_555 1_555
C8_6 H4_6 1_555 1_555
C10_6 C5_6 1_555 1_555
C11_4 C12_4 1_555 1_555
C12_4 C8_6 1_555 1_555
C13_4 C10_6 1_555 1_555
H6_4 C13_4 1_555 1_555
O6_4 C11_4 1_555 1_555
O7_4 C11_4 1_555 1_555
C14_4 C15_4 1_555 1_555
C15_4 C3_6 1_555 1_555
C16_4 C5_6 1_555 1_555
H7_4 C16_4 1_555 1_555
O8_4 C14_4 1_555 1_555
O9_4 C14_4 1_555 1_555
V6 O8_4 1_555 1_555
V7 O6_4 1_555 1_555
V6_3 O9_4 1_555 1_555
V6_2 O7_4 1_555 1_555
C12_4 C13_4 1_555 1_555
C15_4 C16_4 1_555 1_555
O15_2 C1_4 1_555 1_555
C1_4 O16_3 1_555 1_555
C2_4 C1_4 1_555 1_555
C3_7 C2_4 1_555 1_555
C4_4 C2_4 1_555 1_555
C5_7 C4_4 1_555 1_555
H1_7 C3_7 1_555 1_555
H2_4 C4_4 1_555 1_555
C6_4 C7_4 1_555 1_555
C7_4 C8_7 1_555 1_555
C8_7 H4_7 1_555 1_555
C9_4 C7_4 1_555 1_555
C10_7 C5_7 1_555 1_555
H5_4 C9_4 1_555 1_555
O15 C6_4 1_555 1_555
O18_3 C6_4 1_555 1_555
C9_4 C10_7 1_555 1_555
V6_2 O1_2 1_555 1_555
O1_2 H3_3 1_555 1_555
O10_3 V6 1_555 1_555
H8_3 O10_3 1_555 1_555
V7 O1_2 1_555 1_555
V9 O10_3 1_555 1_555
O12_2 V6 1_555 1_555
V6_3 O12_2 1_555 1_555
O12_2 H3_4 1_555 1_555
O10_4 V7 1_555 1_555
H8_4 O10_4 1_555 1_555
V9 O10_4 1_555 1_555
H1_8 C3_8 1_555 1_555
C8_8 H4_8 1_555 1_555
C10_8 C5_8 1_555 1_555
H1_9 C3_9 1_555 1_555
C8_9 H4_9 1_555 1_555
C10_9 C5_9 1_555 1_555

#END
