
###############################################################################
#
# This file contains modified crystal structure data generated from the
# MOF subset of the Cambridge Structural Database (CSD) v543 
# hosted by the Cambridge Crystallographic Data Centre (CCDC).
#
# This work is licensed under the Creative Commons
# Attribution-NonCommercial-ShareAlike 4.0 International License.
# To view a copy of this license, visit
# http://creativecommons.org/licenses/by-nc-sa/4.0/
# or send a letter to
# Creative Commons, PO Box 1866, Mountain View, CA 94042, USA.
#
# CIF created using the CSD Python API on 29 September 2022
# The structure has been converted into the P1 space group
# The structure has a 3D framework
# The original CSD entry FAQQUN is in the monoclinic crystal system
# The framework has been calculated to contain at least 10.0% void space
# The void calculation uses a probe of radius 1.32A, grid spacing 0.4
#
###############################################################################

data_FAQQUN
_chemical_formula_moiety         '(C360 H200 Cl8 Cu32 N80 O80 S40)n'
_symmetry_cell_setting           triclinic
_symmetry_space_group_name_H-M   'P 1'
_symmetry_Int_Tables_number      1
_space_group_name_Hall           'P 1'
loop_
_symmetry_equiv_pos_site_id
_symmetry_equiv_pos_as_xyz
1 x,y,z
_cell_length_a                   29.328(3)
_cell_length_b                   18.5655(18)
_cell_length_c                   21.383(2)
_cell_angle_alpha                90
_cell_angle_beta                 109.715(2)
_cell_angle_gamma                90
_cell_volume                     10960.3
loop_
_atom_site_label
_atom_site_type_symbol
_atom_site_fract_x
_atom_site_fract_y
_atom_site_fract_z
Cu3 Cu 0.31306(4) 0.16347(6) 0.66405(5)
Cl1 Cl 0.32567(8) 0.03884(12) 0.67974(11)
N5 N 0.2952(2) 0.2037(3) 0.3306(3)
N6 N 0.3079(2) 0.1901(4) 0.5749(3)
O5 O 0.29188(18) 0.1309(3) 0.2163(2)
O6 O 0.28638(19) 0.2325(3) 0.1598(3)
S1 S 0.04796(8) 0.02725(12) 0.62835(11)
S3 S 0.31382(10) 0.33596(13) 0.36089(12)
C19 C 0.3035(3) 0.2494(4) 0.3799(4)
C20 C 0.2971(3) 0.2391(5) 0.2746(4)
C21 C 0.3061(3) 0.3103(5) 0.2820(4)
H11 H 0.3078 0.3410 0.2485
C22 C 0.2907(3) 0.1998(5) 0.2109(4)
C23 C 0.3011(3) 0.1413(5) 0.5269(4)
H12 H 0.2977 0.0933 0.5371
C24 C 0.2988(3) 0.1578(5) 0.4625(4)
H13 H 0.2933 0.1216 0.4307
C25 C 0.3047(3) 0.2280(5) 0.4464(4)
C26 C 0.3128(3) 0.2790(5) 0.4976(4)
H14 H 0.3170 0.3273 0.4894
C27 C 0.3142(3) 0.2575(5) 0.5588(4)
H15 H 0.3201 0.2924 0.5918
Cu5 Cu 0.29279(3) 0.08241(5) 0.13664(4)
N12 N 0.3190(2) 0.1948(4) 0.7536(3)
Cu7 Cu 0.06775(4) 0.72533(7) 0.02573(5)
Cu1 Cu 0.29279(3) 0.91759(5) 0.63664(4)
Cu2 Cu 0.04560(3) 0.81216(6) 0.50557(4)
N1 N 0.0452(2) 0.9211(3) 0.5520(3)
N2 N 0.2237(2) 0.9464(3) 0.6178(3)
N3 N 0.3617(2) 0.8880(3) 0.6426(3)
N4 N 0.4226(2) 0.7959(5) 0.8832(3)
N7 N 0.1129(2) 0.7860(3) 0.5061(3)
N8 N 0.1810(2) 0.6948(4) 0.7464(3)
N9 N 0.0565(2) 0.6840(4) 0.6981(3)
N10 N 0.0713(2) 0.7007(5) 0.9409(3)
O3 O 0.2872(2) 0.9395(3) 0.5450(2)
O4 O 0.3296(2) 0.9591(4) 0.4788(3)
O7 O 0.03778(19) 0.8434(3) 0.4153(2)
O8 O 0.07458(19) 0.8498(3) 0.3398(2)
O9 O 0.05042(18) 0.7622(4) 0.5864(2)
O10 O 0.0344(2) 0.6657(4) 0.5237(3)
S2 S 0.44698(8) 0.85089(14) 0.65171(11)
S4 S 0.19577(8) 0.74403(13) 0.50998(11)
S5 S 0.05224(9) 0.54987(13) 0.71664(14)
C1 C 0.0750(3) 0.9681(4) 0.5895(4)
C5 C 0.1906(3) 0.9393(4) 0.5583(4)
H2 H 0.2003 0.9266 0.5227
C6 C 0.1419(3) 0.9503(4) 0.5475(4)
H3 H 0.1195 0.9453 0.5049
C7 C 0.1264(3) 0.9685(4) 0.5992(4)
C8 C 0.1613(3) 0.9809(4) 0.6600(4)
H4 H 0.1528 0.9971 0.6957
C9 C 0.2090(3) 0.9690(4) 0.6669(4)
H5 H 0.2323 0.9773 0.7083
C10 C 0.4007(3) 0.8580(4) 0.6836(4)
C11 C 0.3681(3) 0.9054(4) 0.5833(4)
C12 C 0.4115(3) 0.8900(5) 0.5798(4)
H6 H 0.4210 0.8993 0.5433
C13 C 0.3254(3) 0.9377(5) 0.5308(4)
C14 C 0.4353(3) 0.7535(5) 0.8425(4)
H7 H 0.4497 0.7097 0.8586
C15 C 0.4283(3) 0.7706(5) 0.7775(4)
H8 H 0.4373 0.7384 0.7505
C16 C 0.4077(3) 0.8361(5) 0.7522(4)
C17 C 0.3946(3) 0.8811(5) 0.7943(4)
H9 H 0.3805 0.9255 0.7794
C18 C 0.4026(3) 0.8598(6) 0.8583(4)
H10 H 0.3937 0.8911 0.8862
C28 C 0.1521(3) 0.7562(4) 0.5468(4)
C29 C 0.1170(3) 0.8008(4) 0.4445(4)
C30 C 0.1586(3) 0.7808(4) 0.4381(4)
H16 H 0.1664 0.7863 0.3997
C31 C 0.0736(3) 0.8342(4) 0.3954(4)
C32 C 0.1860(3) 0.6482(5) 0.7026(4)
H17 H 0.1953 0.6013 0.7161
C33 C 0.1777(3) 0.6672(5) 0.6377(4)
H18 H 0.1830 0.6337 0.6085
C34 C 0.1619(3) 0.7347(5) 0.6156(4)
C35 C 0.1565(3) 0.7821(5) 0.6619(4)
H19 H 0.1456 0.8287 0.6493
C36 C 0.1671(3) 0.7609(5) 0.7269(4)
H20 H 0.1643 0.7942 0.7580
C37 C 0.0591(3) 0.6378(5) 0.7445(4)
C38 C 0.0487(3) 0.6510(5) 0.6378(4)
C39 C 0.0463(3) 0.5802(6) 0.6399(5)
H21 H 0.0418 0.5505 0.6033
C40 C 0.0438(3) 0.6955(6) 0.5780(4)
C41 C 0.0651(3) 0.7478(5) 0.8915(4)
H22 H 0.0632 0.7965 0.9006
C42 C 0.0614(3) 0.7286(5) 0.8284(4)
H23 H 0.0564 0.7640 0.7960
C43 C 0.0648(3) 0.6587(5) 0.8121(4)
C44 C 0.0731(3) 0.6088(5) 0.8631(5)
H24 H 0.0768 0.5603 0.8552
C45 C 0.0756(3) 0.6317(6) 0.9254(5)
H25 H 0.0807 0.5973 0.9587
Cu6 Cu 0.18694(4) 0.66347(6) 0.83595(5)
Cu8 Cu 0.43225(4) 0.77467(7) 0.97427(5)
O11 O 0.29188(18) 0.8691(3) 0.7163(2)
Cu4 Cu 0.93225(4) 0.72533(7) 0.47427(5)
O1 O 0.97535(18) 0.8262(3) 0.4874(2)
O2 O 0.91844(19) 0.8908(3) 0.5088(3)
C2 C 0.9991(3) 0.9315(5) 0.5516(4)
C3 C 0.9945(3) 0.9864(5) 0.5907(4)
H1 H 0.9655 0.9999 0.5960
C4 C 0.9610(3) 0.8806(5) 0.5133(4)
N11 N 0.9226(2) 0.7041(5) 0.3832(3)
N13 N 0.9287(2) 0.7007(5) 0.5591(3)
O1_2 O 0.02465(18) 0.8262(3) 0.0126(2)
N11_2 N 0.0774(2) 0.7041(5) 0.1168(3)
O2_2 O 0.08156(19) 0.8908(3) 0.9912(3)
C2_2 C 0.0009(3) 0.9315(5) 0.9484(4)
C3_2 C 0.0055(3) 0.9864(5) 0.9093(4)
H1_2 H 0.0345 0.9999 0.9040
C4_2 C 0.0390(3) 0.8806(5) 0.9867(4)
N5_2 N 0.7048(2) 0.2037(3) 0.1694(3)
O5_2 O 0.70812(18) 0.1309(3) 0.2837(2)
O6_2 O 0.71362(19) 0.2325(3) 0.3402(3)
S3_2 S 0.68618(10) 0.33596(13) 0.13911(12)
C19_2 C 0.6965(3) 0.2494(4) 0.1201(4)
C20_2 C 0.7029(3) 0.2391(5) 0.2254(4)
C21_2 C 0.6939(3) 0.3103(5) 0.2180(4)
H11_2 H 0.6922 0.3410 0.2515
C22_2 C 0.7093(3) 0.1998(5) 0.2891(4)
C24_2 C 0.7012(3) 0.1578(5) 0.0375(4)
H13_2 H 0.7067 0.1216 0.0693
C25_2 C 0.6953(3) 0.2280(5) 0.0536(4)
C26_2 C 0.6872(3) 0.2790(5) 0.0024(4)
H14_2 H 0.6830 0.3273 0.0106
Cu5_2 Cu 0.70721(3) 0.08241(5) 0.36336(4)
Cu3_2 Cu 0.68694(4) 0.16347(6) 0.83595(5)
Cl1_2 Cl 0.67433(8) 0.03884(12) 0.82026(11)
N6_2 N 0.6921(2) 0.1901(4) 0.9251(3)
S1_2 S 0.95204(8) 0.02725(12) 0.87165(11)
C23_2 C 0.6989(3) 0.1413(5) 0.9731(4)
H12_2 H 0.7023 0.0933 0.9629
C27_2 C 0.6858(3) 0.2575(5) 0.9412(4)
H15_2 H 0.6799 0.2924 0.9082
N12_2 N 0.6810(2) 0.1948(4) 0.7464(3)
Cu1_2 Cu 0.70721(3) 0.91759(5) 0.86336(4)
Cu2_2 Cu 0.95440(3) 0.81216(6) 0.99443(4)
N1_2 N 0.9548(2) 0.9211(3) 0.9480(3)
N2_2 N 0.7763(2) 0.9464(3) 0.8822(3)
N3_2 N 0.6383(2) 0.8880(3) 0.8574(3)
N4_2 N 0.5774(2) 0.7959(5) 0.6168(3)
N7_2 N 0.8871(2) 0.7860(3) 0.9939(3)
N8_2 N 0.8190(2) 0.6948(4) 0.7536(3)
N9_2 N 0.9435(2) 0.6840(4) 0.8019(3)
O3_2 O 0.7128(2) 0.9395(3) 0.9550(2)
O9_2 O 0.94958(18) 0.7622(4) 0.9136(2)
O10_2 O 0.9656(2) 0.6657(4) 0.9763(3)
S2_2 S 0.55302(8) 0.85089(14) 0.84829(11)
S4_2 S 0.80423(8) 0.74403(13) 0.99002(11)
S5_2 S 0.94776(9) 0.54987(13) 0.78336(14)
C1_2 C 0.9250(3) 0.9681(4) 0.9105(4)
C5_2 C 0.8094(3) 0.9393(4) 0.9417(4)
H2_2 H 0.7997 0.9266 0.9773
C6_2 C 0.8581(3) 0.9503(4) 0.9525(4)
H3_2 H 0.8805 0.9453 0.9951
C7_2 C 0.8736(3) 0.9685(4) 0.9008(4)
C8_2 C 0.8387(3) 0.9809(4) 0.8400(4)
H4_2 H 0.8472 0.9971 0.8043
C9_2 C 0.7910(3) 0.9690(4) 0.8331(4)
H5_2 H 0.7677 0.9773 0.7917
C10_2 C 0.5993(3) 0.8580(4) 0.8164(4)
C11_2 C 0.6319(3) 0.9054(4) 0.9167(4)
C12_2 C 0.5885(3) 0.8900(5) 0.9202(4)
H6_2 H 0.5790 0.8993 0.9567
C13_2 C 0.6746(3) 0.9377(5) 0.9692(4)
C14_2 C 0.5647(3) 0.7535(5) 0.6575(4)
H7_2 H 0.5503 0.7097 0.6414
C15_2 C 0.5717(3) 0.7706(5) 0.7225(4)
H8_2 H 0.5627 0.7384 0.7495
C16_2 C 0.5923(3) 0.8361(5) 0.7478(4)
C17_2 C 0.6054(3) 0.8811(5) 0.7057(4)
H9_2 H 0.6195 0.9255 0.7206
C18_2 C 0.5974(3) 0.8598(6) 0.6417(4)
H10_2 H 0.6063 0.8911 0.6138
C28_2 C 0.8479(3) 0.7562(4) 0.9532(4)
C32_2 C 0.8140(3) 0.6482(5) 0.7974(4)
H17_2 H 0.8047 0.6013 0.7839
C33_2 C 0.8223(3) 0.6672(5) 0.8623(4)
H18_2 H 0.8170 0.6337 0.8915
C34_2 C 0.8381(3) 0.7347(5) 0.8844(4)
C35_2 C 0.8435(3) 0.7821(5) 0.8381(4)
H19_2 H 0.8544 0.8287 0.8507
C36_2 C 0.8329(3) 0.7609(5) 0.7731(4)
H20_2 H 0.8357 0.7942 0.7420
C37_2 C 0.9409(3) 0.6378(5) 0.7555(4)
C38_2 C 0.9513(3) 0.6510(5) 0.8622(4)
C39_2 C 0.9537(3) 0.5802(6) 0.8601(5)
H21_2 H 0.9582 0.5505 0.8967
C40_2 C 0.9562(3) 0.6955(6) 0.9220(4)
C41_2 C 0.9349(3) 0.7478(5) 0.6085(4)
H22_2 H 0.9368 0.7965 0.5994
C42_2 C 0.9386(3) 0.7286(5) 0.6716(4)
H23_2 H 0.9436 0.7640 0.7040
C43_2 C 0.9352(3) 0.6587(5) 0.6879(4)
C44_2 C 0.9269(3) 0.6088(5) 0.6369(5)
H24_2 H 0.9232 0.5603 0.6448
C45_2 C 0.9244(3) 0.6317(6) 0.5746(5)
H25_2 H 0.9193 0.5973 0.5413
Cu6_2 Cu 0.81306(4) 0.66347(6) 0.66405(5)
Cu8_2 Cu 0.56775(4) 0.77467(7) 0.52573(5)
O11_2 O 0.70812(18) 0.8691(3) 0.7837(2)
Cu7_2 Cu 0.56775(4) 0.22533(7) 0.02573(5)
Cu1_3 Cu 0.79279(3) 0.41759(5) 0.63664(4)
Cu2_3 Cu 0.54560(3) 0.31216(6) 0.50557(4)
Cu4_2 Cu 0.43225(4) 0.22533(7) 0.47427(5)
Cl1_3 Cl 0.82567(8) 0.53884(12) 0.67974(11)
N1_3 N 0.5452(2) 0.4211(3) 0.5520(3)
N2_3 N 0.7237(2) 0.4464(3) 0.6178(3)
N3_3 N 0.8617(2) 0.3880(3) 0.6426(3)
N4_3 N 0.9226(2) 0.2959(5) 0.8832(3)
N5_3 N 0.7952(2) 0.7037(3) 0.3306(3)
N6_3 N 0.8079(2) 0.6901(4) 0.5749(3)
N7_3 N 0.6129(2) 0.2860(3) 0.5061(3)
N9_3 N 0.5565(2) 0.1840(4) 0.6981(3)
N10_2 N 0.5713(2) 0.2007(5) 0.9409(3)
O1_3 O 0.47535(18) 0.3262(3) 0.4874(2)
O2_3 O 0.41844(19) 0.3908(3) 0.5088(3)
O3_3 O 0.7872(2) 0.4395(3) 0.5450(2)
O4_2 O 0.8296(2) 0.4591(4) 0.4788(3)
O5_3 O 0.79188(18) 0.6309(3) 0.2163(2)
O6_3 O 0.78638(19) 0.7325(3) 0.1598(3)
O7_2 O 0.53778(19) 0.3434(3) 0.4153(2)
O8_2 O 0.57458(19) 0.3498(3) 0.3398(2)
O9_3 O 0.55042(18) 0.2622(4) 0.5864(2)
O10_3 O 0.5344(2) 0.1657(4) 0.5237(3)
S1_3 S 0.54796(8) 0.52725(12) 0.62835(11)
S2_3 S 0.94698(8) 0.35089(14) 0.65171(11)
S3_3 S 0.81382(10) 0.83596(13) 0.36089(12)
S4_3 S 0.69577(8) 0.24403(13) 0.50998(11)
S5_3 S 0.55224(9) 0.04987(13) 0.71664(14)
C1_3 C 0.5750(3) 0.4681(4) 0.5895(4)
C2_3 C 0.4991(3) 0.4315(5) 0.5516(4)
C3_3 C 0.4945(3) 0.4864(5) 0.5907(4)
H1_3 H 0.4655 0.4999 0.5960
C4_3 C 0.4610(3) 0.3806(5) 0.5133(4)
C5_3 C 0.6906(3) 0.4393(4) 0.5583(4)
H2_3 H 0.7003 0.4266 0.5227
C6_3 C 0.6419(3) 0.4503(4) 0.5475(4)
H3_3 H 0.6195 0.4453 0.5049
C7_3 C 0.6264(3) 0.4685(4) 0.5992(4)
C8_3 C 0.6613(3) 0.4809(4) 0.6600(4)
H4_3 H 0.6528 0.4971 0.6957
C9_3 C 0.7090(3) 0.4690(4) 0.6669(4)
H5_3 H 0.7323 0.4773 0.7083
C10_3 C 0.9007(3) 0.3580(4) 0.6836(4)
C11_3 C 0.8681(3) 0.4054(4) 0.5833(4)
C12_3 C 0.9115(3) 0.3900(5) 0.5798(4)
H6_3 H 0.9210 0.3993 0.5433
C13_3 C 0.8254(3) 0.4377(5) 0.5308(4)
C14_3 C 0.9353(3) 0.2535(5) 0.8425(4)
H7_3 H 0.9497 0.2097 0.8586
C15_3 C 0.9283(3) 0.2706(5) 0.7775(4)
H8_3 H 0.9373 0.2384 0.7505
C16_3 C 0.9077(3) 0.3361(5) 0.7522(4)
C17_3 C 0.8946(3) 0.3811(5) 0.7943(4)
H9_3 H 0.8805 0.4255 0.7794
C18_3 C 0.9026(3) 0.3598(6) 0.8583(4)
H10_3 H 0.8937 0.3911 0.8862
C19_3 C 0.8035(3) 0.7494(4) 0.3799(4)
C20_3 C 0.7971(3) 0.7391(5) 0.2746(4)
C21_3 C 0.8061(3) 0.8103(5) 0.2820(4)
H11_3 H 0.8078 0.8410 0.2485
C22_3 C 0.7907(3) 0.6998(5) 0.2109(4)
C23_3 C 0.8011(3) 0.6413(5) 0.5269(4)
H12_3 H 0.7977 0.5933 0.5371
C24_3 C 0.7988(3) 0.6578(5) 0.4625(4)
H13_3 H 0.7933 0.6216 0.4307
C25_3 C 0.8047(3) 0.7280(5) 0.4464(4)
C26_3 C 0.8128(3) 0.7790(5) 0.4976(4)
H14_3 H 0.8170 0.8273 0.4894
C27_3 C 0.8142(3) 0.7575(5) 0.5588(4)
H15_3 H 0.8201 0.7924 0.5918
C28_3 C 0.6521(3) 0.2562(4) 0.5468(4)
C29_2 C 0.6170(3) 0.3008(4) 0.4445(4)
C30_2 C 0.6586(3) 0.2808(4) 0.4381(4)
H16_2 H 0.6664 0.2863 0.3997
C31_2 C 0.5736(3) 0.3342(4) 0.3954(4)
C32_3 C 0.6860(3) 0.1482(5) 0.7026(4)
H17_3 H 0.6953 0.1013 0.7161
C33_3 C 0.6777(3) 0.1672(5) 0.6377(4)
H18_3 H 0.6830 0.1337 0.6085
C34_3 C 0.6619(3) 0.2347(5) 0.6156(4)
C35_3 C 0.6565(3) 0.2821(5) 0.6619(4)
H19_3 H 0.6456 0.3287 0.6493
C36_3 C 0.6671(3) 0.2609(5) 0.7269(4)
H20_3 H 0.6643 0.2942 0.7580
C37_3 C 0.5591(3) 0.1378(5) 0.7445(4)
C38_3 C 0.5487(3) 0.1510(5) 0.6378(4)
C39_3 C 0.5463(3) 0.0802(6) 0.6399(5)
H21_3 H 0.5418 0.0505 0.6033
C40_3 C 0.5438(3) 0.1955(6) 0.5780(4)
C41_3 C 0.5651(3) 0.2478(5) 0.8915(4)
H22_3 H 0.5632 0.2965 0.9006
C42_3 C 0.5614(3) 0.2286(5) 0.8284(4)
H23_3 H 0.5564 0.2640 0.7960
C43_3 C 0.5648(3) 0.1587(5) 0.8121(4)
C44_3 C 0.5731(3) 0.1088(5) 0.8631(5)
H24_3 H 0.5768 0.0603 0.8552
C45_3 C 0.5756(3) 0.1317(6) 0.9254(5)
H25_3 H 0.5807 0.0973 0.9587
Cu5_3 Cu 0.79279(3) 0.58241(5) 0.13664(4)
Cu8_3 Cu 0.93225(4) 0.27467(7) 0.97427(5)
N11_3 N 0.4226(2) 0.2041(5) 0.3832(3)
N13_2 N 0.4287(2) 0.2007(5) 0.5591(3)
O11_3 O 0.79188(18) 0.3691(3) 0.7163(2)
N5_4 N 0.2048(2) 0.7037(3) 0.1694(3)
O1_4 O 0.52465(18) 0.3262(3) 0.0126(2)
O4_3 O 0.1704(2) 0.4591(4) 0.0212(3)
O5_4 O 0.20812(18) 0.6309(3) 0.2837(2)
O6_4 O 0.21362(19) 0.7325(3) 0.3402(3)
O7_3 O 0.46222(19) 0.3434(3) 0.0847(2)
O8_3 O 0.42542(19) 0.3498(3) 0.1602(2)
S3_4 S 0.18618(10) 0.83596(13) 0.13911(12)
C19_4 C 0.1965(3) 0.7494(4) 0.1201(4)
C20_4 C 0.2029(3) 0.7391(5) 0.2254(4)
C21_4 C 0.1939(3) 0.8103(5) 0.2180(4)
H11_4 H 0.1922 0.8410 0.2515
C22_4 C 0.2093(3) 0.6998(5) 0.2891(4)
C24_4 C 0.2012(3) 0.6578(5) 0.0375(4)
H13_4 H 0.2067 0.6216 0.0693
C25_4 C 0.1953(3) 0.7280(5) 0.0536(4)
C26_4 C 0.1872(3) 0.7790(5) 0.0024(4)
H14_4 H 0.1830 0.8273 0.0106
C29_3 C 0.3830(3) 0.3008(4) 0.0555(4)
C30_3 C 0.3414(3) 0.2808(4) 0.0619(4)
H16_3 H 0.3336 0.2863 0.1003
C31_3 C 0.4264(3) 0.3342(4) 0.1046(4)
Cu5_4 Cu 0.20721(3) 0.58241(5) 0.36336(4)
N11_4 N 0.5774(2) 0.2041(5) 0.1168(3)
Cu1_4 Cu 0.20721(3) 0.41759(5) 0.86336(4)
Cu2_4 Cu 0.45440(3) 0.31216(6) 0.99443(4)
Cl1_4 Cl 0.17433(8) 0.53884(12) 0.82026(11)
N1_4 N 0.4548(2) 0.4211(3) 0.9480(3)
N2_4 N 0.2763(2) 0.4464(3) 0.8822(3)
N3_4 N 0.1383(2) 0.3880(3) 0.8574(3)
N4_4 N 0.0774(2) 0.2959(5) 0.6168(3)
N6_4 N 0.1921(2) 0.6901(4) 0.9251(3)
N7_4 N 0.3871(2) 0.2860(3) 0.9939(3)
N9_4 N 0.4435(2) 0.1840(4) 0.8019(3)
O2_4 O 0.58156(19) 0.3908(3) 0.9912(3)
O3_4 O 0.2128(2) 0.4395(3) 0.9550(2)
O9_4 O 0.44958(18) 0.2622(4) 0.9136(2)
O10_4 O 0.4656(2) 0.1657(4) 0.9763(3)
S1_4 S 0.45204(8) 0.52725(12) 0.87165(11)
S2_4 S 0.05302(8) 0.35089(14) 0.84829(11)
S4_4 S 0.30423(8) 0.24403(13) 0.99002(11)
S5_4 S 0.44776(9) 0.04987(13) 0.78336(14)
C1_4 C 0.4250(3) 0.4681(4) 0.9105(4)
C2_4 C 0.5009(3) 0.4315(5) 0.9484(4)
C3_4 C 0.5055(3) 0.4864(5) 0.9093(4)
H1_4 H 0.5345 0.4999 0.9040
C4_4 C 0.5390(3) 0.3806(5) 0.9867(4)
C5_4 C 0.3094(3) 0.4393(4) 0.9417(4)
H2_4 H 0.2997 0.4266 0.9773
C6_4 C 0.3581(3) 0.4503(4) 0.9525(4)
H3_4 H 0.3805 0.4453 0.9951
C7_4 C 0.3736(3) 0.4685(4) 0.9008(4)
C8_4 C 0.3387(3) 0.4809(4) 0.8400(4)
H4_4 H 0.3472 0.4971 0.8043
C9_4 C 0.2910(3) 0.4690(4) 0.8331(4)
H5_4 H 0.2677 0.4773 0.7917
C10_4 C 0.0993(3) 0.3580(4) 0.8164(4)
C11_4 C 0.1319(3) 0.4054(4) 0.9167(4)
C12_4 C 0.0885(3) 0.3900(5) 0.9202(4)
H6_4 H 0.0790 0.3993 0.9567
C13_4 C 0.1746(3) 0.4377(5) 0.9692(4)
C14_4 C 0.0647(3) 0.2535(5) 0.6575(4)
H7_4 H 0.0503 0.2097 0.6414
C15_4 C 0.0717(3) 0.2706(5) 0.7225(4)
H8_4 H 0.0627 0.2384 0.7495
C16_4 C 0.0923(3) 0.3361(5) 0.7478(4)
C17_4 C 0.1054(3) 0.3811(5) 0.7057(4)
H9_4 H 0.1195 0.4255 0.7206
C18_4 C 0.0974(3) 0.3598(6) 0.6417(4)
H10_4 H 0.1063 0.3911 0.6138
C23_4 C 0.1989(3) 0.6413(5) 0.9731(4)
H12_4 H 0.2023 0.5933 0.9629
C27_4 C 0.1858(3) 0.7575(5) 0.9412(4)
H15_4 H 0.1799 0.7924 0.9082
C28_4 C 0.3479(3) 0.2562(4) 0.9532(4)
C32_4 C 0.3140(3) 0.1482(5) 0.7974(4)
H17_4 H 0.3047 0.1013 0.7839
C33_4 C 0.3223(3) 0.1672(5) 0.8623(4)
H18_4 H 0.3170 0.1337 0.8915
C34_4 C 0.3381(3) 0.2347(5) 0.8844(4)
C35_4 C 0.3435(3) 0.2821(5) 0.8381(4)
H19_4 H 0.3544 0.3287 0.8507
C36_4 C 0.3329(3) 0.2609(5) 0.7731(4)
H20_4 H 0.3357 0.2942 0.7420
C37_4 C 0.4409(3) 0.1378(5) 0.7555(4)
C38_4 C 0.4513(3) 0.1510(5) 0.8622(4)
C39_4 C 0.4537(3) 0.0802(6) 0.8601(5)
H21_4 H 0.4582 0.0505 0.8967
C40_4 C 0.4562(3) 0.1955(6) 0.9220(4)
C41_4 C 0.4349(3) 0.2478(5) 0.6085(4)
H22_4 H 0.4368 0.2965 0.5994
C42_4 C 0.4386(3) 0.2286(5) 0.6716(4)
H23_4 H 0.4436 0.2640 0.7040
C43_4 C 0.4352(3) 0.1587(5) 0.6879(4)
C44_4 C 0.4269(3) 0.1088(5) 0.6369(5)
H24_4 H 0.4232 0.0603 0.6448
C45_4 C 0.4244(3) 0.1317(6) 0.5746(5)
H25_4 H 0.4193 0.0973 0.5413
Cu8_4 Cu 0.06775(4) 0.27467(7) 0.52573(5)
O11_4 O 0.20812(18) 0.3691(3) 0.7837(2)
O1_5 O 0.02465(18) 0.1738(3) 0.5126(2)
O2_5 O 0.08156(19) 0.1092(3) 0.4912(3)
C2_5 C 0.0009(3) 0.0685(5) 0.4484(4)
C3_5 C 0.0055(3) 0.0136(5) 0.4093(4)
H1_5 H 0.0345 0.0001 0.4040
C4_5 C 0.0390(3) 0.1194(5) 0.4867(4)
N13_3 N 0.0713(2) 0.2993(5) 0.4409(3)
Cu2_5 Cu 0.95440(3) 0.18784(6) 0.49443(4)
N1_5 N 0.9548(2) 0.0789(3) 0.4480(3)
N2_5 N 0.7763(2) 0.0536(3) 0.3822(3)
N3_5 N 0.6383(2) 0.1120(3) 0.3574(3)
N7_5 N 0.8871(2) 0.2140(3) 0.4939(3)
N8_3 N 0.8190(2) 0.3052(4) 0.2536(3)
N9_5 N 0.9435(2) 0.3160(4) 0.3019(3)
N10_3 N 0.9287(2) 0.2993(5) 0.0591(3)
O3_5 O 0.7128(2) 0.0605(3) 0.4550(2)
O4_4 O 0.6704(2) 0.0409(4) 0.5212(3)
O7_4 O 0.96222(19) 0.1566(3) 0.5847(2)
O8_4 O 0.92542(19) 0.1502(3) 0.6602(2)
O9_5 O 0.94958(18) 0.2378(4) 0.4136(2)
O10_5 O 0.9656(2) 0.3343(4) 0.4763(3)
S2_5 S 0.55302(8) 0.14911(14) 0.34829(11)
S4_5 S 0.80423(8) 0.25597(13) 0.49002(11)
S5_5 S 0.94776(9) 0.45013(13) 0.28336(14)
C1_5 C 0.9250(3) 0.0319(4) 0.4105(4)
C5_5 C 0.8094(3) 0.0607(4) 0.4417(4)
H2_5 H 0.7997 0.0734 0.4773
C6_5 C 0.8581(3) 0.0497(4) 0.4525(4)
H3_5 H 0.8805 0.0547 0.4951
C7_5 C 0.8736(3) 0.0315(4) 0.4008(4)
C8_5 C 0.8387(3) 0.0191(4) 0.3400(4)
H4_5 H 0.8472 0.0029 0.3043
C9_5 C 0.7910(3) 0.0310(4) 0.3331(4)
H5_5 H 0.7677 0.0227 0.2917
C10_5 C 0.5993(3) 0.1420(4) 0.3164(4)
C11_5 C 0.6319(3) 0.0946(4) 0.4167(4)
C12_5 C 0.5885(3) 0.1100(5) 0.4202(4)
H6_5 H 0.5790 0.1007 0.4567
C13_5 C 0.6746(3) 0.0623(5) 0.4692(4)
C14_5 C 0.5647(3) 0.2465(5) 0.1575(4)
H7_5 H 0.5503 0.2903 0.1414
C15_5 C 0.5717(3) 0.2294(5) 0.2225(4)
H8_5 H 0.5627 0.2616 0.2495
C16_5 C 0.5923(3) 0.1639(5) 0.2478(4)
C17_5 C 0.6054(3) 0.1189(5) 0.2057(4)
H9_5 H 0.6195 0.0745 0.2206
C18_5 C 0.5974(3) 0.1402(6) 0.1417(4)
H10_5 H 0.6063 0.1089 0.1138
C28_5 C 0.8479(3) 0.2438(4) 0.4532(4)
C29_4 C 0.8830(3) 0.1992(4) 0.5555(4)
C30_4 C 0.8414(3) 0.2192(4) 0.5619(4)
H16_4 H 0.8336 0.2137 0.6003
C31_4 C 0.9264(3) 0.1658(4) 0.6046(4)
C32_5 C 0.8140(3) 0.3518(5) 0.2974(4)
H17_5 H 0.8047 0.3987 0.2839
C33_5 C 0.8223(3) 0.3328(5) 0.3623(4)
H18_5 H 0.8170 0.3663 0.3915
C34_5 C 0.8381(3) 0.2653(5) 0.3844(4)
C35_5 C 0.8435(3) 0.2179(5) 0.3381(4)
H19_5 H 0.8544 0.1713 0.3507
C36_5 C 0.8329(3) 0.2391(5) 0.2731(4)
H20_5 H 0.8357 0.2058 0.2420
C37_5 C 0.9409(3) 0.3622(5) 0.2555(4)
C38_5 C 0.9513(3) 0.3490(5) 0.3622(4)
C39_5 C 0.9537(3) 0.4198(6) 0.3601(5)
H21_5 H 0.9582 0.4495 0.3967
C40_5 C 0.9562(3) 0.3045(6) 0.4220(4)
C41_5 C 0.9349(3) 0.2522(5) 0.1085(4)
H22_5 H 0.9368 0.2035 0.0994
C42_5 C 0.9386(3) 0.2714(5) 0.1716(4)
H23_5 H 0.9436 0.2360 0.2040
C43_5 C 0.9352(3) 0.3413(5) 0.1879(4)
C44_5 C 0.9269(3) 0.3912(5) 0.1369(5)
H24_5 H 0.9232 0.4397 0.1448
C45_5 C 0.9244(3) 0.3683(6) 0.0746(5)
H25_5 H 0.9193 0.4027 0.0413
Cu6_3 Cu 0.81306(4) 0.33653(6) 0.16405(5)
Cu3_3 Cu 0.68694(4) 0.83653(6) 0.33595(5)
Cl1_5 Cl 0.67433(8) 0.96116(12) 0.32026(11)
N5_5 N 0.7048(2) 0.7963(3) 0.6694(3)
N6_5 N 0.6921(2) 0.8099(4) 0.4251(3)
O6_5 O 0.71362(19) 0.7675(3) 0.8402(3)
S1_5 S 0.95204(8) 0.97275(12) 0.37165(11)
S3_5 S 0.68618(10) 0.66404(13) 0.63911(12)
C19_5 C 0.6965(3) 0.7506(4) 0.6201(4)
C20_5 C 0.7029(3) 0.7609(5) 0.7254(4)
C21_5 C 0.6939(3) 0.6897(5) 0.7180(4)
H11_5 H 0.6922 0.6590 0.7515
C22_5 C 0.7093(3) 0.8002(5) 0.7891(4)
C23_5 C 0.6989(3) 0.8587(5) 0.4731(4)
H12_5 H 0.7023 0.9067 0.4629
C24_5 C 0.7012(3) 0.8422(5) 0.5375(4)
H13_5 H 0.7067 0.8784 0.5693
C25_5 C 0.6953(3) 0.7720(5) 0.5536(4)
C26_5 C 0.6872(3) 0.7210(5) 0.5024(4)
H14_5 H 0.6830 0.6727 0.5106
C27_5 C 0.6858(3) 0.7425(5) 0.4412(4)
H15_5 H 0.6799 0.7076 0.4082
N12_3 N 0.6810(2) 0.8052(4) 0.2464(3)
Cu2_6 Cu 0.04560(3) 0.18784(6) 0.00557(4)
N1_6 N 0.0452(2) 0.0789(3) 0.0520(3)
N2_6 N 0.2237(2) 0.0536(3) 0.1178(3)
N3_6 N 0.3617(2) 0.1120(3) 0.1426(3)
N7_6 N 0.1129(2) 0.2140(3) 0.0061(3)
N8_4 N 0.1810(2) 0.3052(4) 0.2464(3)
N9_6 N 0.0565(2) 0.3160(4) 0.1981(3)
O3_6 O 0.2872(2) 0.0605(3) 0.0450(2)
O9_6 O 0.05042(18) 0.2378(4) 0.0864(2)
O10_6 O 0.0344(2) 0.3343(4) 0.0237(3)
S2_6 S 0.44698(8) 0.14911(14) 0.15171(11)
S4_6 S 0.19577(8) 0.25597(13) 0.00998(11)
S5_6 S 0.05224(9) 0.45013(13) 0.21664(14)
C1_6 C 0.0750(3) 0.0319(4) 0.0895(4)
C5_6 C 0.1906(3) 0.0607(4) 0.0583(4)
H2_6 H 0.2003 0.0734 0.0227
C6_6 C 0.1419(3) 0.0497(4) 0.0475(4)
H3_6 H 0.1195 0.0547 0.0049
C7_6 C 0.1264(3) 0.0315(4) 0.0992(4)
C8_6 C 0.1613(3) 0.0191(4) 0.1600(4)
H4_6 H 0.1528 0.0029 0.1957
C9_6 C 0.2090(3) 0.0310(4) 0.1669(4)
H5_6 H 0.2323 0.0227 0.2083
C10_6 C 0.4007(3) 0.1420(4) 0.1836(4)
C11_6 C 0.3681(3) 0.0946(4) 0.0833(4)
C12_6 C 0.4115(3) 0.1100(5) 0.0798(4)
H6_6 H 0.4210 0.1007 0.0433
C13_6 C 0.3254(3) 0.0623(5) 0.0308(4)
C14_6 C 0.4353(3) 0.2465(5) 0.3425(4)
H7_6 H 0.4497 0.2903 0.3586
C15_6 C 0.4283(3) 0.2294(5) 0.2775(4)
H8_6 H 0.4373 0.2616 0.2505
C16_6 C 0.4077(3) 0.1639(5) 0.2522(4)
C17_6 C 0.3946(3) 0.1189(5) 0.2943(4)
H9_6 H 0.3805 0.0745 0.2794
C18_6 C 0.4026(3) 0.1402(6) 0.3583(4)
H10_6 H 0.3937 0.1089 0.3862
C28_6 C 0.1521(3) 0.2438(4) 0.0468(4)
C32_6 C 0.1860(3) 0.3518(5) 0.2026(4)
H17_6 H 0.1953 0.3987 0.2161
C33_6 C 0.1777(3) 0.3328(5) 0.1377(4)
H18_6 H 0.1830 0.3663 0.1085
C34_6 C 0.1619(3) 0.2653(5) 0.1156(4)
C35_6 C 0.1565(3) 0.2179(5) 0.1619(4)
H19_6 H 0.1456 0.1713 0.1493
C36_6 C 0.1671(3) 0.2391(5) 0.2269(4)
H20_6 H 0.1643 0.2058 0.2580
C37_6 C 0.0591(3) 0.3622(5) 0.2445(4)
C38_6 C 0.0487(3) 0.3490(5) 0.1378(4)
C39_6 C 0.0463(3) 0.4198(6) 0.1399(5)
H21_6 H 0.0418 0.4495 0.1033
C40_6 C 0.0438(3) 0.3045(6) 0.0780(4)
C41_6 C 0.0651(3) 0.2522(5) 0.3915(4)
H22_6 H 0.0632 0.2035 0.4006
C42_6 C 0.0614(3) 0.2714(5) 0.3284(4)
H23_6 H 0.0564 0.2360 0.2960
C43_6 C 0.0648(3) 0.3413(5) 0.3121(4)
C44_6 C 0.0731(3) 0.3912(5) 0.3631(5)
H24_6 H 0.0768 0.4397 0.3552
C45_6 C 0.0756(3) 0.3683(6) 0.4254(5)
H25_6 H 0.0807 0.4027 0.4587
Cu6_4 Cu 0.18694(4) 0.33653(6) 0.33595(5)
Cu3_4 Cu 0.31306(4) 0.83653(6) 0.16405(5)
Cl1_6 Cl 0.32567(8) 0.96116(12) 0.17974(11)
N6_6 N 0.3079(2) 0.8099(4) 0.0749(3)
S1_6 S 0.04796(8) 0.97275(12) 0.12835(11)
C23_6 C 0.3011(3) 0.8587(5) 0.0269(4)
H12_6 H 0.2977 0.9067 0.0371
C27_6 C 0.3142(3) 0.7425(5) 0.0588(4)
H15_6 H 0.3201 0.7076 0.0918
N12_4 N 0.3190(2) 0.8052(4) 0.2536(3)
N5_6 N 0.2952(2) 0.7963(3) 0.8306(3)
O6_6 O 0.28638(19) 0.7675(3) 0.6598(3)
S3_6 S 0.31382(10) 0.66404(13) 0.86089(12)
C19_6 C 0.3035(3) 0.7506(4) 0.8799(4)
C20_6 C 0.2971(3) 0.7609(5) 0.7746(4)
C21_6 C 0.3061(3) 0.6897(5) 0.7820(4)
H11_6 H 0.3078 0.6590 0.7485
C22_6 C 0.2907(3) 0.8002(5) 0.7109(4)
C24_6 C 0.2988(3) 0.8422(5) 0.9625(4)
H13_6 H 0.2933 0.8784 0.9307
C25_6 C 0.3047(3) 0.7720(5) 0.9464(4)
C26_6 C 0.3128(3) 0.7210(5) 0.9976(4)
H14_6 H 0.3170 0.6727 0.9894
O2_6 O 0.91844(19) 0.1092(3) 0.0088(3)
C2_6 C 0.9991(3) 0.0685(5) 0.0516(4)
C3_6 C 0.9945(3) 0.0136(5) 0.0907(4)
H1_6 H 0.9655 0.0001 0.0960
C4_6 C 0.9610(3) 0.1194(5) 0.0133(4)
O1_6 O 0.97535(18) 0.1738(3) 0.9874(2)
Cu2_7 Cu 0.45440(3) 0.68784(6) 0.49443(4)
Cl1_7 Cl 0.17433(8) 0.46116(12) 0.32026(11)
N1_7 N 0.4548(2) 0.5789(3) 0.4480(3)
N2_7 N 0.2763(2) 0.5536(3) 0.3822(3)
N3_7 N 0.1383(2) 0.6120(3) 0.3574(3)
N5_7 N 0.2048(2) 0.2963(3) 0.6694(3)
N6_7 N 0.1921(2) 0.3099(4) 0.4251(3)
N7_7 N 0.3871(2) 0.7140(3) 0.4939(3)
N9_7 N 0.4435(2) 0.8160(4) 0.3019(3)
N10_4 N 0.4287(2) 0.7993(5) 0.0591(3)
O1_7 O 0.52465(18) 0.6738(3) 0.5126(2)
O2_7 O 0.58156(19) 0.6092(3) 0.4912(3)
O3_7 O 0.2128(2) 0.5605(3) 0.4550(2)
O4_5 O 0.1704(2) 0.5409(4) 0.5212(3)
O6_7 O 0.21362(19) 0.2675(3) 0.8402(3)
O7_5 O 0.46222(19) 0.6566(3) 0.5847(2)
O8_5 O 0.42542(19) 0.6502(3) 0.6602(2)
O9_7 O 0.44958(18) 0.7378(4) 0.4136(2)
O10_7 O 0.4656(2) 0.8343(4) 0.4763(3)
S1_7 S 0.45204(8) 0.47275(12) 0.37165(11)
S2_7 S 0.05302(8) 0.64911(14) 0.34829(11)
S3_7 S 0.18618(10) 0.16404(13) 0.63911(12)
S4_7 S 0.30423(8) 0.75597(13) 0.49002(11)
S5_7 S 0.44776(9) 0.95013(13) 0.28336(14)
C1_7 C 0.4250(3) 0.5319(4) 0.4105(4)
C2_7 C 0.5009(3) 0.5685(5) 0.4484(4)
C3_7 C 0.5055(3) 0.5136(5) 0.4093(4)
H1_7 H 0.5345 0.5001 0.4040
C4_7 C 0.5390(3) 0.6194(5) 0.4867(4)
C5_7 C 0.3094(3) 0.5607(4) 0.4417(4)
H2_7 H 0.2997 0.5734 0.4773
C6_7 C 0.3581(3) 0.5497(4) 0.4525(4)
H3_7 H 0.3805 0.5547 0.4951
C7_7 C 0.3736(3) 0.5315(4) 0.4008(4)
C8_7 C 0.3387(3) 0.5191(4) 0.3400(4)
H4_7 H 0.3472 0.5029 0.3043
C9_7 C 0.2910(3) 0.5310(4) 0.3331(4)
H5_7 H 0.2677 0.5227 0.2917
C10_7 C 0.0993(3) 0.6420(4) 0.3164(4)
C11_7 C 0.1319(3) 0.5946(4) 0.4167(4)
C12_7 C 0.0885(3) 0.6100(5) 0.4202(4)
H6_7 H 0.0790 0.6007 0.4567
C13_7 C 0.1746(3) 0.5623(5) 0.4692(4)
C14_7 C 0.0647(3) 0.7465(5) 0.1575(4)
H7_7 H 0.0503 0.7903 0.1414
C15_7 C 0.0717(3) 0.7294(5) 0.2225(4)
H8_7 H 0.0627 0.7616 0.2495
C16_7 C 0.0923(3) 0.6639(5) 0.2478(4)
C17_7 C 0.1054(3) 0.6189(5) 0.2057(4)
H9_7 H 0.1195 0.5745 0.2206
C18_7 C 0.0974(3) 0.6402(6) 0.1417(4)
H10_7 H 0.1063 0.6089 0.1138
C19_7 C 0.1965(3) 0.2506(4) 0.6201(4)
C20_7 C 0.2029(3) 0.2609(5) 0.7254(4)
C21_7 C 0.1939(3) 0.1897(5) 0.7180(4)
H11_7 H 0.1922 0.1590 0.7515
C22_7 C 0.2093(3) 0.3002(5) 0.7891(4)
C23_7 C 0.1989(3) 0.3587(5) 0.4731(4)
H12_7 H 0.2023 0.4067 0.4629
C24_7 C 0.2012(3) 0.3422(5) 0.5375(4)
H13_7 H 0.2067 0.3784 0.5693
C25_7 C 0.1953(3) 0.2720(5) 0.5536(4)
C26_7 C 0.1872(3) 0.2210(5) 0.5024(4)
H14_7 H 0.1830 0.1727 0.5106
C27_7 C 0.1858(3) 0.2425(5) 0.4412(4)
H15_7 H 0.1799 0.2076 0.4082
C28_7 C 0.3479(3) 0.7438(4) 0.4532(4)
C29_5 C 0.3830(3) 0.6992(4) 0.5555(4)
C30_5 C 0.3414(3) 0.7192(4) 0.5619(4)
H16_5 H 0.3336 0.7137 0.6003
C31_5 C 0.4264(3) 0.6658(4) 0.6046(4)
C32_7 C 0.3140(3) 0.8518(5) 0.2974(4)
H17_7 H 0.3047 0.8987 0.2839
C33_7 C 0.3223(3) 0.8328(5) 0.3623(4)
H18_7 H 0.3170 0.8663 0.3915
C34_7 C 0.3381(3) 0.7653(5) 0.3844(4)
C35_7 C 0.3435(3) 0.7179(5) 0.3381(4)
H19_7 H 0.3544 0.6713 0.3507
C36_7 C 0.3329(3) 0.7391(5) 0.2731(4)
H20_7 H 0.3357 0.7058 0.2420
C37_7 C 0.4409(3) 0.8622(5) 0.2555(4)
C38_7 C 0.4513(3) 0.8490(5) 0.3622(4)
C39_7 C 0.4537(3) 0.9198(6) 0.3601(5)
H21_7 H 0.4582 0.9495 0.3967
C40_7 C 0.4562(3) 0.8045(6) 0.4220(4)
C41_7 C 0.4349(3) 0.7522(5) 0.1085(4)
H22_7 H 0.4368 0.7035 0.0994
C42_7 C 0.4386(3) 0.7714(5) 0.1716(4)
H23_7 H 0.4436 0.7360 0.2040
C43_7 C 0.4352(3) 0.8413(5) 0.1879(4)
C44_7 C 0.4269(3) 0.8912(5) 0.1369(5)
H24_7 H 0.4232 0.9397 0.1448
C45_7 C 0.4244(3) 0.8683(6) 0.0746(5)
H25_7 H 0.4193 0.9027 0.0413
N13_4 N 0.5713(2) 0.7993(5) 0.4409(3)
Cu2_8 Cu 0.54560(3) 0.68784(6) 0.00557(4)
Cl1_8 Cl 0.82567(8) 0.46116(12) 0.17974(11)
N1_8 N 0.5452(2) 0.5789(3) 0.0520(3)
N2_8 N 0.7237(2) 0.5536(3) 0.1178(3)
N3_8 N 0.8617(2) 0.6120(3) 0.1426(3)
N6_8 N 0.8079(2) 0.3099(4) 0.0749(3)
N7_8 N 0.6129(2) 0.7140(3) 0.0061(3)
N9_8 N 0.5565(2) 0.8160(4) 0.1981(3)
O2_8 O 0.41844(19) 0.6092(3) 0.0088(3)
O3_8 O 0.7872(2) 0.5605(3) 0.0450(2)
O9_8 O 0.55042(18) 0.7378(4) 0.0864(2)
O10_8 O 0.5344(2) 0.8343(4) 0.0237(3)
S1_8 S 0.54796(8) 0.47275(12) 0.12835(11)
S2_8 S 0.94698(8) 0.64911(14) 0.15171(11)
S4_8 S 0.69577(8) 0.75597(13) 0.00998(11)
S5_8 S 0.55224(9) 0.95013(13) 0.21664(14)
C1_8 C 0.5750(3) 0.5319(4) 0.0895(4)
C2_8 C 0.4991(3) 0.5685(5) 0.0516(4)
C3_8 C 0.4945(3) 0.5136(5) 0.0907(4)
H1_8 H 0.4655 0.5001 0.0960
C4_8 C 0.4610(3) 0.6194(5) 0.0133(4)
C5_8 C 0.6906(3) 0.5607(4) 0.0583(4)
H2_8 H 0.7003 0.5734 0.0227
C6_8 C 0.6419(3) 0.5497(4) 0.0475(4)
H3_8 H 0.6195 0.5547 0.0049
C7_8 C 0.6264(3) 0.5315(4) 0.0992(4)
C8_8 C 0.6613(3) 0.5191(4) 0.1600(4)
H4_8 H 0.6528 0.5029 0.1957
C9_8 C 0.7090(3) 0.5310(4) 0.1669(4)
H5_8 H 0.7323 0.5227 0.2083
C10_8 C 0.9007(3) 0.6420(4) 0.1836(4)
C11_8 C 0.8681(3) 0.5946(4) 0.0833(4)
C12_8 C 0.9115(3) 0.6100(5) 0.0798(4)
H6_8 H 0.9210 0.6007 0.0433
C13_8 C 0.8254(3) 0.5623(5) 0.0308(4)
C14_8 C 0.9353(3) 0.7465(5) 0.3425(4)
H7_8 H 0.9497 0.7903 0.3586
C15_8 C 0.9283(3) 0.7294(5) 0.2775(4)
H8_8 H 0.9373 0.7616 0.2505
C16_8 C 0.9077(3) 0.6639(5) 0.2522(4)
C17_8 C 0.8946(3) 0.6189(5) 0.2943(4)
H9_8 H 0.8805 0.5745 0.2794
C18_8 C 0.9026(3) 0.6402(6) 0.3583(4)
H10_8 H 0.8937 0.6089 0.3862
C23_8 C 0.8011(3) 0.3587(5) 0.0269(4)
H12_8 H 0.7977 0.4067 0.0371
C27_8 C 0.8142(3) 0.2425(5) 0.0588(4)
H15_8 H 0.8201 0.2076 0.0918
C28_8 C 0.6521(3) 0.7438(4) 0.0468(4)
C32_8 C 0.6860(3) 0.8518(5) 0.2026(4)
H17_8 H 0.6953 0.8987 0.2161
C33_8 C 0.6777(3) 0.8328(5) 0.1377(4)
H18_8 H 0.6830 0.8663 0.1085
C34_8 C 0.6619(3) 0.7653(5) 0.1156(4)
C35_8 C 0.6565(3) 0.7179(5) 0.1619(4)
H19_8 H 0.6456 0.6713 0.1493
C36_8 C 0.6671(3) 0.7391(5) 0.2269(4)
H20_8 H 0.6643 0.7058 0.2580
C37_8 C 0.5591(3) 0.8622(5) 0.2445(4)
C38_8 C 0.5487(3) 0.8490(5) 0.1378(4)
C39_8 C 0.5463(3) 0.9198(6) 0.1399(5)
H21_8 H 0.5418 0.9495 0.1033
C40_8 C 0.5438(3) 0.8045(6) 0.0780(4)
C41_8 C 0.5651(3) 0.7522(5) 0.3915(4)
H22_8 H 0.5632 0.7035 0.4006
C42_8 C 0.5614(3) 0.7714(5) 0.3284(4)
H23_8 H 0.5564 0.7360 0.2960
C43_8 C 0.5648(3) 0.8413(5) 0.3121(4)
C44_8 C 0.5731(3) 0.8912(5) 0.3631(5)
H24_8 H 0.5768 0.9397 0.3552
C45_8 C 0.5756(3) 0.8683(6) 0.4254(5)
H25_8 H 0.5807 0.9027 0.4587
N5_8 N 0.7952(2) 0.2963(3) 0.8306(3)
O1_8 O 0.47535(18) 0.6738(3) 0.9874(2)
O4_6 O 0.8296(2) 0.5409(4) 0.9788(3)
O6_8 O 0.78638(19) 0.2675(3) 0.6598(3)
O7_6 O 0.53778(19) 0.6566(3) 0.9153(2)
O8_6 O 0.57458(19) 0.6502(3) 0.8398(2)
S3_8 S 0.81382(10) 0.16404(13) 0.86089(12)
C19_8 C 0.8035(3) 0.2506(4) 0.8799(4)
C20_8 C 0.7971(3) 0.2609(5) 0.7746(4)
C21_8 C 0.8061(3) 0.1897(5) 0.7820(4)
H11_8 H 0.8078 0.1590 0.7485
C22_8 C 0.7907(3) 0.3002(5) 0.7109(4)
C24_8 C 0.7988(3) 0.3422(5) 0.9625(4)
H13_8 H 0.7933 0.3784 0.9307
C25_8 C 0.8047(3) 0.2720(5) 0.9464(4)
C26_8 C 0.8128(3) 0.2210(5) 0.9976(4)
H14_8 H 0.8170 0.1727 0.9894
C29_6 C 0.6170(3) 0.6992(4) 0.9445(4)
C30_6 C 0.6586(3) 0.7192(4) 0.9381(4)
H16_6 H 0.6664 0.7137 0.8997
C31_6 C 0.5736(3) 0.6658(4) 0.8954(4)
O4_7 O 0.6704(2) 0.9591(4) 0.0212(3)
O7_7 O 0.96222(19) 0.8434(3) 0.0847(2)
O8_7 O 0.92542(19) 0.8498(3) 0.1602(2)
C29_7 C 0.8830(3) 0.8008(4) 0.0555(4)
C30_7 C 0.8414(3) 0.7808(4) 0.0619(4)
H16_7 H 0.8336 0.7863 0.1003
C31_7 C 0.9264(3) 0.8342(4) 0.1046(4)
O4_8 O 0.3296(2) 0.0409(4) 0.9788(3)
O7_8 O 0.03778(19) 0.1566(3) 0.9153(2)
O8_8 O 0.07458(19) 0.1502(3) 0.8398(2)
C29_8 C 0.1170(3) 0.1992(4) 0.9445(4)
C30_8 C 0.1586(3) 0.2192(4) 0.9381(4)
H16_8 H 0.1664 0.2137 0.8997
C31_8 C 0.0736(3) 0.1658(4) 0.8954(4)
loop_
_geom_bond_atom_site_label_1
_geom_bond_atom_site_label_2
_geom_bond_site_symmetry_1
_geom_bond_site_symmetry_2
Cu3 Cl1 1_555 1_555
N5 C19 1_555 1_555
N6 Cu3 1_555 1_555
O5 C22 1_555 1_555
O6 C22 1_555 1_555
S3 C19 1_555 1_555
C19 C25 1_555 1_555
C20 N5 1_555 1_555
C21 S3 1_555 1_555
H11 C21 1_555 1_555
C22 C20 1_555 1_555
C23 N6 1_555 1_555
H12 C23 1_555 1_555
C24 C23 1_555 1_555
H13 C24 1_555 1_555
C25 C24 1_555 1_555
C26 C25 1_555 1_555
H14 C26 1_555 1_555
C27 N6 1_555 1_555
H15 C27 1_555 1_555
Cu5 O5 1_555 1_555
N12 Cu3 1_555 1_555
C20 C21 1_555 1_555
C26 C27 1_555 1_555
Cu2 N1 1_555 1_555
N1 C1 1_555 1_555
N2 Cu1 1_555 1_555
N3 Cu1 1_555 1_555
N4 C14 1_555 1_555
N7 Cu2 1_555 1_555
N8 C32 1_555 1_555
N9 C37 1_555 1_555
N10 C41 1_555 1_555
O3 Cu1 1_555 1_555
O4 C13 1_555 1_555
O7 Cu2 1_555 1_555
O8 C31 1_555 1_555
O9 Cu2 1_555 1_555
O10 Cu2 1_555 1_555
S2 C10 1_555 1_555
S4 C28 1_555 1_555
S5 C37 1_555 1_555
C1 C7 1_555 1_555
C5 N2 1_555 1_555
H2 C5 1_555 1_555
C6 C5 1_555 1_555
H3 C6 1_555 1_555
C7 C6 1_555 1_555
C8 C7 1_555 1_555
H4 C8 1_555 1_555
C9 N2 1_555 1_555
H5 C9 1_555 1_555
C10 N3 1_555 1_555
C11 N3 1_555 1_555
C12 S2 1_555 1_555
H6 C12 1_555 1_555
C13 O3 1_555 1_555
C14 H7 1_555 1_555
C15 C14 1_555 1_555
H8 C15 1_555 1_555
C16 C10 1_555 1_555
C17 C16 1_555 1_555
H9 C17 1_555 1_555
C18 N4 1_555 1_555
H10 C18 1_555 1_555
C28 N7 1_555 1_555
C29 N7 1_555 1_555
C30 S4 1_555 1_555
H16 C30 1_555 1_555
C31 O7 1_555 1_555
C32 H17 1_555 1_555
C33 C32 1_555 1_555
H18 C33 1_555 1_555
C34 C28 1_555 1_555
C35 C34 1_555 1_555
H19 C35 1_555 1_555
C36 N8 1_555 1_555
H20 C36 1_555 1_555
C37 C43 1_555 1_555
C38 N9 1_555 1_555
C39 S5 1_555 1_555
H21 C39 1_555 1_555
C40 O9 1_555 1_555
C41 H22 1_555 1_555
C42 C41 1_555 1_555
H23 C42 1_555 1_555
C43 C42 1_555 1_555
C44 C43 1_555 1_555
H24 C44 1_555 1_555
C45 N10 1_555 1_555
H25 C45 1_555 1_555
Cu6 N8 1_555 1_555
Cu8 N4 1_555 1_555
O11 Cu1 1_555 1_555
O10 C40 1_555 1_555
C8 C9 1_555 1_555
C11 C12 1_555 1_555
C11 C13 1_555 1_555
C15 C16 1_555 1_555
C17 C18 1_555 1_555
C29 C30 1_555 1_555
C29 C31 1_555 1_555
C33 C34 1_555 1_555
C35 C36 1_555 1_555
C38 C39 1_555 1_555
C38 C40 1_555 1_555
C44 C45 1_555 1_555
Cu4 O1 1_555 1_555
O2 C4 1_555 1_555
H1 C3 1_555 1_555
C4 O1 1_555 1_555
N11 Cu4 1_555 1_555
N13 Cu4 1_555 1_555
C2 C3 1_555 1_555
C2 C4 1_555 1_555
Cu7 O1_2 1_555 1_555
N11_2 Cu7 1_555 1_555
O2_2 C4_2 1_555 1_555
H1_2 C3_2 1_555 1_555
C2_2 C3_2 1_555 1_555
C2_2 C4_2 1_555 1_555
N5_2 C19_2 1_555 1_555
O5_2 C22_2 1_555 1_555
O6_2 C22_2 1_555 1_555
S3_2 C19_2 1_555 1_555
C19_2 C25_2 1_555 1_555
C20_2 N5_2 1_555 1_555
C21_2 S3_2 1_555 1_555
H11_2 C21_2 1_555 1_555
C22_2 C20_2 1_555 1_555
H13_2 C24_2 1_555 1_555
C25_2 C24_2 1_555 1_555
C26_2 C25_2 1_555 1_555
H14_2 C26_2 1_555 1_555
Cu5_2 O5_2 1_555 1_555
C20_2 C21_2 1_555 1_555
Cu3_2 Cl1_2 1_555 1_555
N6_2 Cu3_2 1_555 1_555
C23_2 N6_2 1_555 1_555
H12_2 C23_2 1_555 1_555
C27_2 N6_2 1_555 1_555
H15_2 C27_2 1_555 1_555
N12_2 Cu3_2 1_555 1_555
Cu2_2 N1_2 1_555 1_555
N1_2 C1_2 1_555 1_555
N2_2 Cu1_2 1_555 1_555
N3_2 Cu1_2 1_555 1_555
N4_2 C14_2 1_555 1_555
N7_2 Cu2_2 1_555 1_555
N8_2 C32_2 1_555 1_555
N9_2 C37_2 1_555 1_555
N13 C41_2 1_555 1_555
O3_2 Cu1_2 1_555 1_555
O9_2 Cu2_2 1_555 1_555
O10_2 Cu2_2 1_555 1_555
S2_2 C10_2 1_555 1_555
S4_2 C28_2 1_555 1_555
S5_2 C37_2 1_555 1_555
C1_2 C7_2 1_555 1_555
C5_2 N2_2 1_555 1_555
H2_2 C5_2 1_555 1_555
C6_2 C5_2 1_555 1_555
H3_2 C6_2 1_555 1_555
C7_2 C6_2 1_555 1_555
C8_2 C7_2 1_555 1_555
H4_2 C8_2 1_555 1_555
C9_2 N2_2 1_555 1_555
H5_2 C9_2 1_555 1_555
C10_2 N3_2 1_555 1_555
C11_2 N3_2 1_555 1_555
C12_2 S2_2 1_555 1_555
H6_2 C12_2 1_555 1_555
C13_2 O3_2 1_555 1_555
C14_2 H7_2 1_555 1_555
C15_2 C14_2 1_555 1_555
H8_2 C15_2 1_555 1_555
C16_2 C10_2 1_555 1_555
C17_2 C16_2 1_555 1_555
H9_2 C17_2 1_555 1_555
C18_2 N4_2 1_555 1_555
H10_2 C18_2 1_555 1_555
C28_2 N7_2 1_555 1_555
C32_2 H17_2 1_555 1_555
C33_2 C32_2 1_555 1_555
H18_2 C33_2 1_555 1_555
C34_2 C28_2 1_555 1_555
C35_2 C34_2 1_555 1_555
H19_2 C35_2 1_555 1_555
C36_2 N8_2 1_555 1_555
H20_2 C36_2 1_555 1_555
C37_2 C43_2 1_555 1_555
C38_2 N9_2 1_555 1_555
C39_2 S5_2 1_555 1_555
H21_2 C39_2 1_555 1_555
C40_2 O9_2 1_555 1_555
C41_2 H22_2 1_555 1_555
C42_2 C41_2 1_555 1_555
H23_2 C42_2 1_555 1_555
C43_2 C42_2 1_555 1_555
C44_2 C43_2 1_555 1_555
H24_2 C44_2 1_555 1_555
C45_2 N13 1_555 1_555
H25_2 C45_2 1_555 1_555
Cu6_2 N8_2 1_555 1_555
Cu8_2 N4_2 1_555 1_555
O11_2 Cu1_2 1_555 1_555
O10_2 C40_2 1_555 1_555
C8_2 C9_2 1_555 1_555
C11_2 C12_2 1_555 1_555
C11_2 C13_2 1_555 1_555
C15_2 C16_2 1_555 1_555
C17_2 C18_2 1_555 1_555
C33_2 C34_2 1_555 1_555
C35_2 C36_2 1_555 1_555
C38_2 C39_2 1_555 1_555
C38_2 C40_2 1_555 1_555
C44_2 C45_2 1_555 1_555
Cu1_3 Cl1_3 1_555 1_555
Cu2_3 N1_3 1_555 1_555
Cu6_2 Cl1_3 1_555 1_555
Cu4_2 O1_3 1_555 1_555
N1_3 C1_3 1_555 1_555
N2_3 Cu1_3 1_555 1_555
N3_3 Cu1_3 1_555 1_555
N4_3 C14_3 1_555 1_555
N5_3 C19_3 1_555 1_555
N6_3 Cu6_2 1_555 1_555
N7_3 Cu2_3 1_555 1_555
N12_2 C32_3 1_555 1_555
N9_3 C37_3 1_555 1_555
N10_2 C41_3 1_555 1_555
O1_3 Cu2_3 1_555 1_555
O2_3 C4_3 1_555 1_555
O3_3 Cu1_3 1_555 1_555
O4_2 C13_3 1_555 1_555
O5_3 C22_3 1_555 1_555
O6_3 C22_3 1_555 1_555
O7_2 Cu2_3 1_555 1_555
O8_2 C31_2 1_555 1_555
O9_3 Cu2_3 1_555 1_555
O10_3 Cu2_3 1_555 1_555
S1_3 C1_3 1_555 1_555
S2_3 C10_3 1_555 1_555
S3_3 C19_3 1_555 1_555
S4_3 C28_3 1_555 1_555
S5_3 C37_3 1_555 1_555
C1_3 C7_3 1_555 1_555
C2_3 N1_3 1_555 1_555
C3_3 S1_3 1_555 1_555
H1_3 C3_3 1_555 1_555
C4_3 O1_3 1_555 1_555
C5_3 N2_3 1_555 1_555
H2_3 C5_3 1_555 1_555
C6_3 C5_3 1_555 1_555
H3_3 C6_3 1_555 1_555
C7_3 C6_3 1_555 1_555
C8_3 C7_3 1_555 1_555
H4_3 C8_3 1_555 1_555
C9_3 N2_3 1_555 1_555
H5_3 C9_3 1_555 1_555
C10_3 N3_3 1_555 1_555
C11_3 N3_3 1_555 1_555
C12_3 S2_3 1_555 1_555
H6_3 C12_3 1_555 1_555
C13_3 O3_3 1_555 1_555
C14_3 H7_3 1_555 1_555
C15_3 C14_3 1_555 1_555
H8_3 C15_3 1_555 1_555
C16_3 C10_3 1_555 1_555
C17_3 C16_3 1_555 1_555
H9_3 C17_3 1_555 1_555
C18_3 N4_3 1_555 1_555
H10_3 C18_3 1_555 1_555
C19_3 C25_3 1_555 1_555
C20_3 N5_3 1_555 1_555
C21_3 S3_3 1_555 1_555
H11_3 C21_3 1_555 1_555
C22_3 C20_3 1_555 1_555
C23_3 N6_3 1_555 1_555
H12_3 C23_3 1_555 1_555
C24_3 C23_3 1_555 1_555
H13_3 C24_3 1_555 1_555
C25_3 C24_3 1_555 1_555
C26_3 C25_3 1_555 1_555
H14_3 C26_3 1_555 1_555
C27_3 N6_3 1_555 1_555
H15_3 C27_3 1_555 1_555
C28_3 N7_3 1_555 1_555
C29_2 N7_3 1_555 1_555
C30_2 S4_3 1_555 1_555
H16_2 C30_2 1_555 1_555
C31_2 O7_2 1_555 1_555
C32_3 H17_3 1_555 1_555
C33_3 C32_3 1_555 1_555
H18_3 C33_3 1_555 1_555
C34_3 C28_3 1_555 1_555
C35_3 C34_3 1_555 1_555
H19_3 C35_3 1_555 1_555
C36_3 N12_2 1_555 1_555
H20_3 C36_3 1_555 1_555
C37_3 C43_3 1_555 1_555
C38_3 N9_3 1_555 1_555
C39_3 S5_3 1_555 1_555
H21_3 C39_3 1_555 1_555
C40_3 O9_3 1_555 1_555
C41_3 H22_3 1_555 1_555
C42_3 C41_3 1_555 1_555
H23_3 C42_3 1_555 1_555
C43_3 C42_3 1_555 1_555
C44_3 C43_3 1_555 1_555
H24_3 C44_3 1_555 1_555
C45_3 N10_2 1_555 1_555
H25_3 C45_3 1_555 1_555
Cu5_3 O5_3 1_555 1_555
Cu8_3 N4_3 1_555 1_555
N11_3 Cu4_2 1_555 1_555
N13_2 Cu4_2 1_555 1_555
O11_3 Cu1_3 1_555 1_555
O10_3 C40_3 1_555 1_555
C2_3 C3_3 1_555 1_555
C2_3 C4_3 1_555 1_555
C8_3 C9_3 1_555 1_555
C11_3 C12_3 1_555 1_555
C11_3 C13_3 1_555 1_555
C15_3 C16_3 1_555 1_555
C17_3 C18_3 1_555 1_555
C20_3 C21_3 1_555 1_555
C26_3 C27_3 1_555 1_555
C29_2 C30_2 1_555 1_555
C29_2 C31_2 1_555 1_555
C33_3 C34_3 1_555 1_555
C35_3 C36_3 1_555 1_555
C38_3 C39_3 1_555 1_555
C38_3 C40_3 1_555 1_555
C44_3 C45_3 1_555 1_555
Cu7_2 O1_4 1_555 1_555
N5_4 C19_4 1_555 1_555
O5_4 C22_4 1_555 1_555
O6_4 C22_4 1_555 1_555
O8_3 C31_3 1_555 1_555
S3_4 C19_4 1_555 1_555
C19_4 C25_4 1_555 1_555
C20_4 N5_4 1_555 1_555
C21_4 S3_4 1_555 1_555
H11_4 C21_4 1_555 1_555
C22_4 C20_4 1_555 1_555
H13_4 C24_4 1_555 1_555
C25_4 C24_4 1_555 1_555
C26_4 C25_4 1_555 1_555
H14_4 C26_4 1_555 1_555
H16_3 C30_3 1_555 1_555
C31_3 O7_3 1_555 1_555
Cu5_4 O5_4 1_555 1_555
N11_4 Cu7_2 1_555 1_555
C20_4 C21_4 1_555 1_555
C29_3 C30_3 1_555 1_555
C29_3 C31_3 1_555 1_555
Cu1_4 Cl1_4 1_555 1_555
Cu2_4 N1_4 1_555 1_555
Cu6 Cl1_4 1_555 1_555
N1_4 C1_4 1_555 1_555
N2_4 Cu1_4 1_555 1_555
N3_4 Cu1_4 1_555 1_555
N4_4 C14_4 1_555 1_555
N6_4 Cu6 1_555 1_555
N7_4 Cu2_4 1_555 1_555
N12 C32_4 1_555 1_555
N9_4 C37_4 1_555 1_555
N13_2 C41_4 1_555 1_555
O2_4 C4_4 1_555 1_555
O3_4 Cu1_4 1_555 1_555
O9_4 Cu2_4 1_555 1_555
O10_4 Cu2_4 1_555 1_555
S1_4 C1_4 1_555 1_555
S2_4 C10_4 1_555 1_555
S4_4 C28_4 1_555 1_555
S5_4 C37_4 1_555 1_555
C1_4 C7_4 1_555 1_555
C2_4 N1_4 1_555 1_555
C3_4 S1_4 1_555 1_555
H1_4 C3_4 1_555 1_555
C5_4 N2_4 1_555 1_555
H2_4 C5_4 1_555 1_555
C6_4 C5_4 1_555 1_555
H3_4 C6_4 1_555 1_555
C7_4 C6_4 1_555 1_555
C8_4 C7_4 1_555 1_555
H4_4 C8_4 1_555 1_555
C9_4 N2_4 1_555 1_555
H5_4 C9_4 1_555 1_555
C10_4 N3_4 1_555 1_555
C11_4 N3_4 1_555 1_555
C12_4 S2_4 1_555 1_555
H6_4 C12_4 1_555 1_555
C13_4 O3_4 1_555 1_555
C14_4 H7_4 1_555 1_555
C15_4 C14_4 1_555 1_555
H8_4 C15_4 1_555 1_555
C16_4 C10_4 1_555 1_555
C17_4 C16_4 1_555 1_555
H9_4 C17_4 1_555 1_555
C18_4 N4_4 1_555 1_555
H10_4 C18_4 1_555 1_555
C23_4 N6_4 1_555 1_555
H12_4 C23_4 1_555 1_555
C27_4 N6_4 1_555 1_555
H15_4 C27_4 1_555 1_555
C28_4 N7_4 1_555 1_555
C32_4 H17_4 1_555 1_555
C33_4 C32_4 1_555 1_555
H18_4 C33_4 1_555 1_555
C34_4 C28_4 1_555 1_555
C35_4 C34_4 1_555 1_555
H19_4 C35_4 1_555 1_555
C36_4 N12 1_555 1_555
H20_4 C36_4 1_555 1_555
C37_4 C43_4 1_555 1_555
C38_4 N9_4 1_555 1_555
C39_4 S5_4 1_555 1_555
H21_4 C39_4 1_555 1_555
C40_4 O9_4 1_555 1_555
C41_4 H22_4 1_555 1_555
C42_4 C41_4 1_555 1_555
H23_4 C42_4 1_555 1_555
C43_4 C42_4 1_555 1_555
C44_4 C43_4 1_555 1_555
H24_4 C44_4 1_555 1_555
C45_4 N13_2 1_555 1_555
H25_4 C45_4 1_555 1_555
Cu8_4 N4_4 1_555 1_555
O11_4 Cu1_4 1_555 1_555
O10_4 C40_4 1_555 1_555
C2_4 C3_4 1_555 1_555
C2_4 C4_4 1_555 1_555
C8_4 C9_4 1_555 1_555
C11_4 C12_4 1_555 1_555
C11_4 C13_4 1_555 1_555
C15_4 C16_4 1_555 1_555
C17_4 C18_4 1_555 1_555
C33_4 C34_4 1_555 1_555
C35_4 C36_4 1_555 1_555
C38_4 C39_4 1_555 1_555
C38_4 C40_4 1_555 1_555
C44_4 C45_4 1_555 1_555
Cu8_4 O1_5 1_555 1_555
O2_5 C4_5 1_555 1_555
H1_5 C3_5 1_555 1_555
C4_5 O1_5 1_555 1_555
N13_3 Cu8_4 1_555 1_555
C2_5 C3_5 1_555 1_555
C2_5 C4_5 1_555 1_555
Cu2_5 N1_5 1_555 1_555
N1_5 C1_5 1_555 1_555
N2_5 Cu5_2 1_555 1_555
N3_5 Cu5_2 1_555 1_555
N11_4 C14_5 1_555 1_555
N7_5 Cu2_5 1_555 1_555
N8_3 C32_5 1_555 1_555
N9_5 C37_5 1_555 1_555
N10_3 C41_5 1_555 1_555
O3_5 Cu5_2 1_555 1_555
O4_4 C13_5 1_555 1_555
O7_4 Cu2_5 1_555 1_555
O8_4 C31_4 1_555 1_555
O9_5 Cu2_5 1_555 1_555
O10_5 Cu2_5 1_555 1_555
S2_5 C10_5 1_555 1_555
S4_5 C28_5 1_555 1_555
S5_5 C37_5 1_555 1_555
C1_5 C7_5 1_555 1_555
C5_5 N2_5 1_555 1_555
H2_5 C5_5 1_555 1_555
C6_5 C5_5 1_555 1_555
H3_5 C6_5 1_555 1_555
C7_5 C6_5 1_555 1_555
C8_5 C7_5 1_555 1_555
H4_5 C8_5 1_555 1_555
C9_5 N2_5 1_555 1_555
H5_5 C9_5 1_555 1_555
C10_5 N3_5 1_555 1_555
C11_5 N3_5 1_555 1_555
C12_5 S2_5 1_555 1_555
H6_5 C12_5 1_555 1_555
C13_5 O3_5 1_555 1_555
C14_5 H7_5 1_555 1_555
C15_5 C14_5 1_555 1_555
H8_5 C15_5 1_555 1_555
C16_5 C10_5 1_555 1_555
C17_5 C16_5 1_555 1_555
H9_5 C17_5 1_555 1_555
C18_5 N11_4 1_555 1_555
H10_5 C18_5 1_555 1_555
C28_5 N7_5 1_555 1_555
C29_4 N7_5 1_555 1_555
C30_4 S4_5 1_555 1_555
H16_4 C30_4 1_555 1_555
C31_4 O7_4 1_555 1_555
C32_5 H17_5 1_555 1_555
C33_5 C32_5 1_555 1_555
H18_5 C33_5 1_555 1_555
C34_5 C28_5 1_555 1_555
C35_5 C34_5 1_555 1_555
H19_5 C35_5 1_555 1_555
C36_5 N8_3 1_555 1_555
H20_5 C36_5 1_555 1_555
C37_5 C43_5 1_555 1_555
C38_5 N9_5 1_555 1_555
C39_5 S5_5 1_555 1_555
H21_5 C39_5 1_555 1_555
C40_5 O9_5 1_555 1_555
C41_5 H22_5 1_555 1_555
C42_5 C41_5 1_555 1_555
H23_5 C42_5 1_555 1_555
C43_5 C42_5 1_555 1_555
C44_5 C43_5 1_555 1_555
H24_5 C44_5 1_555 1_555
C45_5 N10_3 1_555 1_555
H25_5 C45_5 1_555 1_555
Cu6_3 N8_3 1_555 1_555
O10_5 C40_5 1_555 1_555
C8_5 C9_5 1_555 1_555
C11_5 C12_5 1_555 1_555
C11_5 C13_5 1_555 1_555
C15_5 C16_5 1_555 1_555
C17_5 C18_5 1_555 1_555
C29_4 C30_4 1_555 1_555
C29_4 C31_4 1_555 1_555
C33_5 C34_5 1_555 1_555
C35_5 C36_5 1_555 1_555
C38_5 C39_5 1_555 1_555
C38_5 C40_5 1_555 1_555
C44_5 C45_5 1_555 1_555
Cu3_3 Cl1_5 1_555 1_555
N5_5 C19_5 1_555 1_555
N6_5 Cu3_3 1_555 1_555
O11_2 C22_5 1_555 1_555
O6_5 C22_5 1_555 1_555
S3_5 C19_5 1_555 1_555
C19_5 C25_5 1_555 1_555
C20_5 N5_5 1_555 1_555
C21_5 S3_5 1_555 1_555
H11_5 C21_5 1_555 1_555
C22_5 C20_5 1_555 1_555
C23_5 N6_5 1_555 1_555
H12_5 C23_5 1_555 1_555
C24_5 C23_5 1_555 1_555
H13_5 C24_5 1_555 1_555
C25_5 C24_5 1_555 1_555
C26_5 C25_5 1_555 1_555
H14_5 C26_5 1_555 1_555
C27_5 N6_5 1_555 1_555
H15_5 C27_5 1_555 1_555
N12_3 Cu3_3 1_555 1_555
C20_5 C21_5 1_555 1_555
C26_5 C27_5 1_555 1_555
Cu2_6 N1_6 1_555 1_555
N1_6 C1_6 1_555 1_555
N2_6 Cu5 1_555 1_555
N3_6 Cu5 1_555 1_555
N11_3 C14_6 1_555 1_555
N7_6 Cu2_6 1_555 1_555
N8_4 C32_6 1_555 1_555
N9_6 C37_6 1_555 1_555
N13_3 C41_6 1_555 1_555
O3_6 Cu5 1_555 1_555
O9_6 Cu2_6 1_555 1_555
O10_6 Cu2_6 1_555 1_555
S2_6 C10_6 1_555 1_555
S4_6 C28_6 1_555 1_555
S5_6 C37_6 1_555 1_555
C1_6 C7_6 1_555 1_555
C5_6 N2_6 1_555 1_555
H2_6 C5_6 1_555 1_555
C6_6 C5_6 1_555 1_555
H3_6 C6_6 1_555 1_555
C7_6 C6_6 1_555 1_555
C8_6 C7_6 1_555 1_555
H4_6 C8_6 1_555 1_555
C9_6 N2_6 1_555 1_555
H5_6 C9_6 1_555 1_555
C10_6 N3_6 1_555 1_555
C11_6 N3_6 1_555 1_555
C12_6 S2_6 1_555 1_555
H6_6 C12_6 1_555 1_555
C13_6 O3_6 1_555 1_555
C14_6 H7_6 1_555 1_555
C15_6 C14_6 1_555 1_555
H8_6 C15_6 1_555 1_555
C16_6 C10_6 1_555 1_555
C17_6 C16_6 1_555 1_555
H9_6 C17_6 1_555 1_555
C18_6 N11_3 1_555 1_555
H10_6 C18_6 1_555 1_555
C28_6 N7_6 1_555 1_555
C32_6 H17_6 1_555 1_555
C33_6 C32_6 1_555 1_555
H18_6 C33_6 1_555 1_555
C34_6 C28_6 1_555 1_555
C35_6 C34_6 1_555 1_555
H19_6 C35_6 1_555 1_555
C36_6 N8_4 1_555 1_555
H20_6 C36_6 1_555 1_555
C37_6 C43_6 1_555 1_555
C38_6 N9_6 1_555 1_555
C39_6 S5_6 1_555 1_555
H21_6 C39_6 1_555 1_555
C40_6 O9_6 1_555 1_555
C41_6 H22_6 1_555 1_555
C42_6 C41_6 1_555 1_555
H23_6 C42_6 1_555 1_555
C43_6 C42_6 1_555 1_555
C44_6 C43_6 1_555 1_555
H24_6 C44_6 1_555 1_555
C45_6 N13_3 1_555 1_555
H25_6 C45_6 1_555 1_555
Cu6_4 N8_4 1_555 1_555
O10_6 C40_6 1_555 1_555
C8_6 C9_6 1_555 1_555
C11_6 C12_6 1_555 1_555
C11_6 C13_6 1_555 1_555
C15_6 C16_6 1_555 1_555
C17_6 C18_6 1_555 1_555
C33_6 C34_6 1_555 1_555
C35_6 C36_6 1_555 1_555
C38_6 C39_6 1_555 1_555
C38_6 C40_6 1_555 1_555
C44_6 C45_6 1_555 1_555
Cu3_4 Cl1_6 1_555 1_555
N6_6 Cu3_4 1_555 1_555
C23_6 N6_6 1_555 1_555
H12_6 C23_6 1_555 1_555
C27_6 N6_6 1_555 1_555
H15_6 C27_6 1_555 1_555
N12_4 Cu3_4 1_555 1_555
N5_6 C19_6 1_555 1_555
O11 C22_6 1_555 1_555
O6_6 C22_6 1_555 1_555
S3_6 C19_6 1_555 1_555
C19_6 C25_6 1_555 1_555
C20_6 N5_6 1_555 1_555
C21_6 S3_6 1_555 1_555
H11_6 C21_6 1_555 1_555
C22_6 C20_6 1_555 1_555
H13_6 C24_6 1_555 1_555
C25_6 C24_6 1_555 1_555
C26_6 C25_6 1_555 1_555
H14_6 C26_6 1_555 1_555
C20_6 C21_6 1_555 1_555
O2_6 C4_6 1_555 1_555
H1_6 C3_6 1_555 1_555
C2_6 C3_6 1_555 1_555
C2_6 C4_6 1_555 1_555
Cu8_3 O1_6 1_555 1_555
Cu5_4 Cl1_7 1_555 1_555
Cu2_7 N1_7 1_555 1_555
Cu6_4 Cl1_7 1_555 1_555
Cu8_2 O1_7 1_555 1_555
N1_7 C1_7 1_555 1_555
N2_7 Cu5_4 1_555 1_555
N3_7 Cu5_4 1_555 1_555
N11_2 C14_7 1_555 1_555
N5_7 C19_7 1_555 1_555
N6_7 Cu6_4 1_555 1_555
N7_7 Cu2_7 1_555 1_555
N12_4 C32_7 1_555 1_555
N9_7 C37_7 1_555 1_555
N10_4 C41_7 1_555 1_555
O1_7 Cu2_7 1_555 1_555
O2_7 C4_7 1_555 1_555
O3_7 Cu5_4 1_555 1_555
O4_5 C13_7 1_555 1_555
O11_4 C22_7 1_555 1_555
O6_7 C22_7 1_555 1_555
O7_5 Cu2_7 1_555 1_555
O8_5 C31_5 1_555 1_555
O9_7 Cu2_7 1_555 1_555
O10_7 Cu2_7 1_555 1_555
S1_7 C1_7 1_555 1_555
S2_7 C10_7 1_555 1_555
S3_7 C19_7 1_555 1_555
S4_7 C28_7 1_555 1_555
S5_7 C37_7 1_555 1_555
C1_7 C7_7 1_555 1_555
C2_7 N1_7 1_555 1_555
C3_7 S1_7 1_555 1_555
H1_7 C3_7 1_555 1_555
C4_7 O1_7 1_555 1_555
C5_7 N2_7 1_555 1_555
H2_7 C5_7 1_555 1_555
C6_7 C5_7 1_555 1_555
H3_7 C6_7 1_555 1_555
C7_7 C6_7 1_555 1_555
C8_7 C7_7 1_555 1_555
H4_7 C8_7 1_555 1_555
C9_7 N2_7 1_555 1_555
H5_7 C9_7 1_555 1_555
C10_7 N3_7 1_555 1_555
C11_7 N3_7 1_555 1_555
C12_7 S2_7 1_555 1_555
H6_7 C12_7 1_555 1_555
C13_7 O3_7 1_555 1_555
C14_7 H7_7 1_555 1_555
C15_7 C14_7 1_555 1_555
H8_7 C15_7 1_555 1_555
C16_7 C10_7 1_555 1_555
C17_7 C16_7 1_555 1_555
H9_7 C17_7 1_555 1_555
C18_7 N11_2 1_555 1_555
H10_7 C18_7 1_555 1_555
C19_7 C25_7 1_555 1_555
C20_7 N5_7 1_555 1_555
C21_7 S3_7 1_555 1_555
H11_7 C21_7 1_555 1_555
C22_7 C20_7 1_555 1_555
C23_7 N6_7 1_555 1_555
H12_7 C23_7 1_555 1_555
C24_7 C23_7 1_555 1_555
H13_7 C24_7 1_555 1_555
C25_7 C24_7 1_555 1_555
C26_7 C25_7 1_555 1_555
H14_7 C26_7 1_555 1_555
C27_7 N6_7 1_555 1_555
H15_7 C27_7 1_555 1_555
C28_7 N7_7 1_555 1_555
C29_5 N7_7 1_555 1_555
C30_5 S4_7 1_555 1_555
H16_5 C30_5 1_555 1_555
C31_5 O7_5 1_555 1_555
C32_7 H17_7 1_555 1_555
C33_7 C32_7 1_555 1_555
H18_7 C33_7 1_555 1_555
C34_7 C28_7 1_555 1_555
C35_7 C34_7 1_555 1_555
H19_7 C35_7 1_555 1_555
C36_7 N12_4 1_555 1_555
H20_7 C36_7 1_555 1_555
C37_7 C43_7 1_555 1_555
C38_7 N9_7 1_555 1_555
C39_7 S5_7 1_555 1_555
H21_7 C39_7 1_555 1_555
C40_7 O9_7 1_555 1_555
C41_7 H22_7 1_555 1_555
C42_7 C41_7 1_555 1_555
H23_7 C42_7 1_555 1_555
C43_7 C42_7 1_555 1_555
C44_7 C43_7 1_555 1_555
H24_7 C44_7 1_555 1_555
C45_7 N10_4 1_555 1_555
H25_7 C45_7 1_555 1_555
N13_4 Cu8_2 1_555 1_555
O10_7 C40_7 1_555 1_555
C2_7 C3_7 1_555 1_555
C2_7 C4_7 1_555 1_555
C8_7 C9_7 1_555 1_555
C11_7 C12_7 1_555 1_555
C11_7 C13_7 1_555 1_555
C15_7 C16_7 1_555 1_555
C17_7 C18_7 1_555 1_555
C20_7 C21_7 1_555 1_555
C26_7 C27_7 1_555 1_555
C29_5 C30_5 1_555 1_555
C29_5 C31_5 1_555 1_555
C33_7 C34_7 1_555 1_555
C35_7 C36_7 1_555 1_555
C38_7 C39_7 1_555 1_555
C38_7 C40_7 1_555 1_555
C44_7 C45_7 1_555 1_555
Cu5_3 Cl1_8 1_555 1_555
Cu2_8 N1_8 1_555 1_555
Cu6_3 Cl1_8 1_555 1_555
N1_8 C1_8 1_555 1_555
N2_8 Cu5_3 1_555 1_555
N3_8 Cu5_3 1_555 1_555
N11 C14_8 1_555 1_555
N6_8 Cu6_3 1_555 1_555
N7_8 Cu2_8 1_555 1_555
N12_3 C32_8 1_555 1_555
N9_8 C37_8 1_555 1_555
N13_4 C41_8 1_555 1_555
O2_8 C4_8 1_555 1_555
O3_8 Cu5_3 1_555 1_555
O9_8 Cu2_8 1_555 1_555
O10_8 Cu2_8 1_555 1_555
S1_8 C1_8 1_555 1_555
S2_8 C10_8 1_555 1_555
S4_8 C28_8 1_555 1_555
S5_8 C37_8 1_555 1_555
C1_8 C7_8 1_555 1_555
C2_8 N1_8 1_555 1_555
C3_8 S1_8 1_555 1_555
H1_8 C3_8 1_555 1_555
C5_8 N2_8 1_555 1_555
H2_8 C5_8 1_555 1_555
C6_8 C5_8 1_555 1_555
H3_8 C6_8 1_555 1_555
C7_8 C6_8 1_555 1_555
C8_8 C7_8 1_555 1_555
H4_8 C8_8 1_555 1_555
C9_8 N2_8 1_555 1_555
H5_8 C9_8 1_555 1_555
C10_8 N3_8 1_555 1_555
C11_8 N3_8 1_555 1_555
C12_8 S2_8 1_555 1_555
H6_8 C12_8 1_555 1_555
C13_8 O3_8 1_555 1_555
C14_8 H7_8 1_555 1_555
C15_8 C14_8 1_555 1_555
H8_8 C15_8 1_555 1_555
C16_8 C10_8 1_555 1_555
C17_8 C16_8 1_555 1_555
H9_8 C17_8 1_555 1_555
C18_8 N11 1_555 1_555
H10_8 C18_8 1_555 1_555
C23_8 N6_8 1_555 1_555
H12_8 C23_8 1_555 1_555
C27_8 N6_8 1_555 1_555
H15_8 C27_8 1_555 1_555
C28_8 N7_8 1_555 1_555
C32_8 H17_8 1_555 1_555
C33_8 C32_8 1_555 1_555
H18_8 C33_8 1_555 1_555
C34_8 C28_8 1_555 1_555
C35_8 C34_8 1_555 1_555
H19_8 C35_8 1_555 1_555
C36_8 N12_3 1_555 1_555
H20_8 C36_8 1_555 1_555
C37_8 C43_8 1_555 1_555
C38_8 N9_8 1_555 1_555
C39_8 S5_8 1_555 1_555
H21_8 C39_8 1_555 1_555
C40_8 O9_8 1_555 1_555
C41_8 H22_8 1_555 1_555
C42_8 C41_8 1_555 1_555
H23_8 C42_8 1_555 1_555
C43_8 C42_8 1_555 1_555
C44_8 C43_8 1_555 1_555
H24_8 C44_8 1_555 1_555
C45_8 N13_4 1_555 1_555
H25_8 C45_8 1_555 1_555
O10_8 C40_8 1_555 1_555
C2_8 C3_8 1_555 1_555
C2_8 C4_8 1_555 1_555
C8_8 C9_8 1_555 1_555
C11_8 C12_8 1_555 1_555
C11_8 C13_8 1_555 1_555
C15_8 C16_8 1_555 1_555
C17_8 C18_8 1_555 1_555
C33_8 C34_8 1_555 1_555
C35_8 C36_8 1_555 1_555
C38_8 C39_8 1_555 1_555
C38_8 C40_8 1_555 1_555
C44_8 C45_8 1_555 1_555
Cu8 O1_8 1_555 1_555
N5_8 C19_8 1_555 1_555
O11_3 C22_8 1_555 1_555
O6_8 C22_8 1_555 1_555
O8_6 C31_6 1_555 1_555
S3_8 C19_8 1_555 1_555
C19_8 C25_8 1_555 1_555
C20_8 N5_8 1_555 1_555
C21_8 S3_8 1_555 1_555
H11_8 C21_8 1_555 1_555
C22_8 C20_8 1_555 1_555
H13_8 C24_8 1_555 1_555
C25_8 C24_8 1_555 1_555
C26_8 C25_8 1_555 1_555
H14_8 C26_8 1_555 1_555
H16_6 C30_6 1_555 1_555
C31_6 O7_6 1_555 1_555
C20_8 C21_8 1_555 1_555
C29_6 C30_6 1_555 1_555
C29_6 C31_6 1_555 1_555
O8_7 C31_7 1_555 1_555
H16_7 C30_7 1_555 1_555
C31_7 O7_7 1_555 1_555
C29_7 C30_7 1_555 1_555
C29_7 C31_7 1_555 1_555
O8_8 C31_8 1_555 1_555
H16_8 C30_8 1_555 1_555
C31_8 O7_8 1_555 1_555
C29_8 C30_8 1_555 1_555
C29_8 C31_8 1_555 1_555

#END
