
###############################################################################
#
# This file contains modified crystal structure data generated from the
# MOF subset of the Cambridge Structural Database (CSD) v543 
# hosted by the Cambridge Crystallographic Data Centre (CCDC).
#
# This work is licensed under the Creative Commons
# Attribution-NonCommercial-ShareAlike 4.0 International License.
# To view a copy of this license, visit
# http://creativecommons.org/licenses/by-nc-sa/4.0/
# or send a letter to
# Creative Commons, PO Box 1866, Mountain View, CA 94042, USA.
#
# CIF created using the CSD Python API on 29 September 2022
# The structure has been converted into the P1 space group
# The structure has a 3D framework
# The original CSD entry FAQSOG is in the triclinic crystal system
# The framework has been calculated to contain at least 10.0% void space
# The void calculation uses a probe of radius 1.32A, grid spacing 0.4
# H atom positions have been added when not included in the experimental data
#
###############################################################################

data_FAQSOG
_chemical_formula_moiety         '(C22 H30 Cl8 Cu7 N6 O6)n'
_symmetry_cell_setting           triclinic
_symmetry_space_group_name_H-M   'P 1'
_symmetry_Int_Tables_number      1
_space_group_name_Hall           'P 1'
loop_
_symmetry_equiv_pos_site_id
_symmetry_equiv_pos_as_xyz
1 x,y,z
_cell_length_a                   8.7853(9)
_cell_length_b                   10.3602(9)
_cell_length_c                   12.8505(14)
_cell_angle_alpha                99.351(8)
_cell_angle_beta                 105.516(9)
_cell_angle_gamma                89.395(8)
_cell_volume                     1111.35
loop_
_atom_site_label
_atom_site_type_symbol
_atom_site_fract_x
_atom_site_fract_y
_atom_site_fract_z
Cu7 Cu 0.34409(5) 0.16150(4) 0.05170(4)
Cu3 Cu 0.65591(5) 0.83850(4) 0.94830(4)
Cl3 Cl 0.79800(1) 0.95411(1) 0.87182(8)
O1 O 0.0799(3) 0.5997(3) 0.6124(2)
O2 O 0.5848(3) 0.5782(2) 0.8158(2)
O3 O 0.3368(3) 0.9543(2) 0.8544(2)
N1 N 0.3303(3) 0.5835(3) 0.7063(3)
N2 N 0.4627(4) 0.7673(3) 0.8314(3)
N3 N 0.1987(4) 0.7853(3) 0.7272(3)
C1 C 0.2059(4) 0.6600(4) 0.6836(3)
C2 C 0.4548(4) 0.6436(3) 0.7808(3)
C3 C 0.3308(4) 0.8329(3) 0.8006(3)
C7 C 0.5876(4) 0.4384(4) 0.7699(3)
C8 C 0.6410(5) 0.4245(4) 0.6690(4)
C9 C 0.7886(6) 0.3859(4) 0.6691(5)
H1 H 0.874(10) 0.357(8) 0.727(7)
H2 H 0.105(4) 0.981(4) 0.848(3)
H3 H 0.020(6) 0.830(5) 0.526(4)
H5 H 0.481(5) 0.406(4) 0.756(4)
H9 H 0.833(6) 0.389(5) 0.626(4)
H11 H 0.663(6) 0.399(5) 0.824(4)
H14 H 0.588(5) 0.461(4) 0.615(4)
Cu6 Cu 0.63883(6) 0.22305(4) 0.60502(4)
Cu9 Cu 0.65473(6) 0.94110(5) 0.69401(4)
Cl1 Cl 0.81415(1) 0.05572(8) 0.59654(8)
Cu8 Cu 0.34527(6) 0.05890(5) 0.30599(4)
Cl5 Cl 0.46361(1) 0.11089(9) 0.67836(8)
Cl7 Cl 0.44847(1) 0.23992(9) 0.42915(8)
H22 H 0.590213 0.410076 0.735005
Cu1 Cu 0.73766(5) 0.86432(4) 0.47072(4)
Cl2 Cl 0.53639(1) 0.88911(9) 0.32164(8)
Cl4 Cl 0.55153(1) 0.76008(9) 0.57085(8)
C4 C 0.9353(4) 0.6742(3) 0.5874(3)
C5 C 0.9430(4) 0.7583(3) 0.5040(3)
C6 C 0.8640(4) 0.7239(4) 0.3976(3)
H4 H 0.921(6) 0.713(5) 0.632(4)
H7 H 0.810(5) 0.664(4) 0.381(3)
H8 H 0.849(4) 0.614(3) 0.564(3)
H13 H 0.898(6) 0.769(5) 0.350(4)
Cu5 Cu 0.36117(6) 0.77695(4) 0.39498(4)
Cu1_2 Cu 0.26234(5) 0.13568(4) 0.52928(4)
C4_2 C 0.0647(4) 0.3258(3) 0.4126(3)
C5_2 C 0.0570(4) 0.2417(3) 0.4960(3)
C6_2 C 0.1360(4) 0.2761(4) 0.6024(3)
H4_2 H 0.079(6) 0.287(5) 0.368(4)
H7_2 H 0.190(5) 0.336(4) 0.619(3)
H8_2 H 0.151(4) 0.386(3) 0.436(3)
H13_2 H 0.102(6) 0.231(5) 0.650(4)
Cl6 Cl 0.20200(1) 0.04589(1) 0.12818(8)
Cl1_2 Cl 0.18585(1) 0.94428(8) 0.40346(8)
C13 C 0.3590(5) 0.5755(4) 0.3310(4)
C14 C 0.2114(6) 0.6141(4) 0.3309(5)
H16 H 0.126(10) 0.643(8) 0.273(7)
H17 H 0.167(6) 0.611(5) 0.374(4)
H20 H 0.412(5) 0.539(4) 0.385(4)
H22_2 H 0.409787 0.589924 0.264995
O1_2 O 0.9201(3) 0.4003(3) 0.3876(2)
O2_2 O 0.4152(3) 0.4218(2) 0.1842(2)
O3_2 O 0.6632(3) 0.0457(2) 0.1456(2)
N1_2 N 0.6697(3) 0.4165(3) 0.2937(3)
N2_2 N 0.5373(4) 0.2327(3) 0.1686(3)
N3_2 N 0.8013(4) 0.2147(3) 0.2728(3)
C1_2 C 0.7941(4) 0.3400(4) 0.3164(3)
C2_2 C 0.5452(4) 0.3564(3) 0.2192(3)
C3_2 C 0.6692(4) 0.1671(3) 0.1994(3)
C7_2 C 0.4124(4) 0.5616(4) 0.2301(3)
H2_2 H 0.895(4) 0.019(4) 0.152(3)
H3_2 H 0.980(6) 0.170(5) 0.474(4)
H5_2 H 0.519(5) 0.594(4) 0.244(4)
H11_2 H 0.337(6) 0.601(5) 0.176(4)
C10 C 0.1922(4) 0.0278(4) 0.8278(3)
C11 C 0.2246(4) 0.1630(4) 0.8909(3)
C12 C 0.3686(5) 0.2310(4) 0.9182(3)
H6 H 0.155(6) 0.034(5) 0.749(4)
H10 H 0.369(5) 0.325(5) 0.937(4)
H12 H 0.136(5) 0.212(4) 0.894(4)
H15 H 0.467(6) 0.179(5) 0.890(4)
H23 H 0.215494 0.0570089 0.866899
C15 C 0.7754(4) 0.8370(4) 0.1091(3)
C16 C 0.6314(5) 0.7690(4) 0.0818(3)
H18 H 0.631(5) 0.675(5) 0.063(4)
H19 H 0.864(5) 0.788(4) 0.106(4)
H21 H 0.533(6) 0.821(5) 0.110(4)
H23_2 H 0.784506 0.942991 0.133101
C10_2 C 0.8078(4) 0.9722(4) 0.1722(3)
H6_2 H 0.845(6) 0.966(5) 0.251(4)
loop_
_geom_bond_atom_site_label_1
_geom_bond_atom_site_label_2
_geom_bond_site_symmetry_1
_geom_bond_site_symmetry_2
Cu3 Cl3 1_555 1_555
Cl3 Cu9 1_555 1_555
O1 C1 1_555 1_555
O2 C2 1_555 1_555
O3 C3 1_555 1_555
N1 C1 1_555 1_555
N2 Cu3 1_555 1_555
N3 C1 1_555 1_555
C2 N1 1_555 1_555
C3 N2 1_555 1_555
C7 O2 1_555 1_555
C8 C7 1_555 1_555
C9 C8 1_555 1_555
H1 C9 1_555 1_555
H5 C7 1_555 1_555
H9 C9 1_555 1_555
H11 C7 1_555 1_555
H14 C8 1_555 1_555
Cu6 C8 1_555 1_555
N2 C2 1_555 1_555
N3 C3 1_555 1_555
C9 Cu6 1_555 1_555
Cu6 Cl1 1_555 1_555
Cl5 Cu6 1_555 1_555
Cl7 Cu6 1_555 1_555
Cu8 Cl7 1_555 1_555
C8 H22 1_555 1_555
Cl2 Cu1 1_555 1_555
Cl4 Cu1 1_555 1_555
C5 Cu1 1_555 1_555
C6 Cu1 1_555 1_555
H4 C4 1_555 1_555
H7 C6 1_555 1_555
H8 C4 1_555 1_555
H13 C6 1_555 1_555
Cu5 Cl2 1_555 1_555
Cu9 Cl4 1_555 1_555
Cl4 Cu5 1_555 1_555
C4 C5 1_555 1_555
C5 C6 1_555 1_555
Cl5 Cu1_2 1_555 1_555
Cl7 Cu1_2 1_555 1_555
C5_2 Cu1_2 1_555 1_555
C6_2 Cu1_2 1_555 1_555
H4_2 C4_2 1_555 1_555
H7_2 C6_2 1_555 1_555
H8_2 C4_2 1_555 1_555
H13_2 C6_2 1_555 1_555
Cl6 Cu8 1_555 1_555
C4_2 C5_2 1_555 1_555
C5_2 C6_2 1_555 1_555
Cu5 Cl1_2 1_555 1_555
C13 Cu5 1_555 1_555
C14 Cu5 1_555 1_555
H16 C14 1_555 1_555
H17 C14 1_555 1_555
H20 C13 1_555 1_555
C13 C14 1_555 1_555
C13 H22_2 1_555 1_555
Cu7 Cl6 1_555 1_555
O1_2 C1_2 1_555 1_555
O2_2 C2_2 1_555 1_555
O3_2 C3_2 1_555 1_555
N1_2 C1_2 1_555 1_555
N2_2 Cu7 1_555 1_555
N3_2 C1_2 1_555 1_555
C2_2 N1_2 1_555 1_555
C3_2 N2_2 1_555 1_555
C7_2 O2_2 1_555 1_555
C13 C7_2 1_555 1_555
H5_2 C7_2 1_555 1_555
H11_2 C7_2 1_555 1_555
N2_2 C2_2 1_555 1_555
N3_2 C3_2 1_555 1_555
C11 C10 1_555 1_555
C12 C11 1_555 1_555
H6 C10 1_555 1_555
H10 C12 1_555 1_555
H12 C11 1_555 1_555
H15 C12 1_555 1_555
C11 H23 1_555 1_555
H18 C16 1_555 1_555
H19 C15 1_555 1_555
H21 C16 1_555 1_555
C15 C16 1_555 1_555
C15 H23_2 1_555 1_555
C15 C10_2 1_555 1_555
H6_2 C10_2 1_555 1_555

#END
