
###############################################################################
#
# This file contains modified crystal structure data generated from the
# MOF subset of the Cambridge Structural Database (CSD) v543 
# hosted by the Cambridge Crystallographic Data Centre (CCDC).
#
# This work is licensed under the Creative Commons
# Attribution-NonCommercial-ShareAlike 4.0 International License.
# To view a copy of this license, visit
# http://creativecommons.org/licenses/by-nc-sa/4.0/
# or send a letter to
# Creative Commons, PO Box 1866, Mountain View, CA 94042, USA.
#
# CIF created using the CSD Python API on 29 September 2022
# The structure has been converted into the P1 space group
# The structure has a 3D framework
# The original CSD entry FAQVEA is in the monoclinic crystal system
# The framework has been calculated to contain at least 10.0% void space
# The void calculation uses a probe of radius 1.32A, grid spacing 0.4
#
###############################################################################

data_FAQVEA
_chemical_formula_moiety         '(C68 H56 N40 O16 Zn8)n'
_symmetry_cell_setting           triclinic
_symmetry_space_group_name_H-M   'P 1'
_symmetry_Int_Tables_number      1
_space_group_name_Hall           'P 1'
loop_
_symmetry_equiv_pos_site_id
_symmetry_equiv_pos_as_xyz
1 x,y,z
_cell_length_a                   16.896(3)
_cell_length_b                   16.987(3)
_cell_length_c                   9.7748(19)
_cell_angle_alpha                90
_cell_angle_beta                 119.087(2)
_cell_angle_gamma                90
_cell_volume                     2451.67
loop_
_atom_site_label
_atom_site_type_symbol
_atom_site_fract_x
_atom_site_fract_y
_atom_site_fract_z
Zn1 Zn 0.23336(3) 0.39258(2) 0.15347(4)
O1 O 0.14095(17) 0.31088(17) 0.0896(3)
C1 C 0.0634(3) 0.3405(2) -0.0001(4)
H2 H 0.0565 0.1826 0.0069
N6 N 0.34296(19) 0.31985(17) 0.2643(3)
N7 N 0.2461(2) 0.47525(18) 0.3070(3)
C1_2 C 0.0634(3) 0.3405(2) 0.9999(4)
O2 O 0.0501(2) 0.41099(18) 0.9796(4)
C2 C 0.2089(2) 0.5113(2) 0.8983(4)
N1 N 0.2469(2) 0.44728(17) 0.9849(3)
N3 N 0.3082(2) 0.4212(2) 0.9454(4)
C8 C 0.1383(3) 0.5604(3) 0.9017(6)
H5 H 0.0890 0.5667 0.7971
H6 H 0.1630 0.6111 0.9446
H7 H 0.1167 0.5355 0.9654
N4 N 0.2461(2) 0.52475(18) 0.8070(3)
N5 N 0.3078(2) 0.4670(2) 0.8394(4)
Zn3 Zn 0.23336(3) 0.60742(2) 0.65347(4)
C3 C 0.9866(2) 0.2831(2) 0.9186(4)
C4 C 0.9013(2) 0.3106(2) 0.8182(4)
H1 H 0.8910 0.3644 0.8006
C5 C 0.9995(3) 0.2031(2) 0.9401(5)
C6 C 0.8313(2) 0.2581(2) 0.7441(4)
H3 H 0.7736 0.2774 0.6774
C7 C 0.9262(3) 0.1540(2) 0.8609(5)
H4 H 0.9353 0.0999 0.8753
N2 N 0.84296(19) 0.18015(17) 0.7643(3)
Zn2 Zn 0.73336(3) 0.10742(2) 0.65347(4)
C2_2 C 0.7089(2) 0.0113(2) 0.8983(4)
C8_2 C 0.6383(3) 0.0604(3) 0.9017(6)
H5_2 H 0.5890 0.0667 0.7971
H6_2 H 0.6630 0.1111 0.9446
H7_2 H 0.6167 0.0355 0.9654
N4_2 N 0.7461(2) 0.02475(18) 0.8070(3)
C1_3 C 0.5634(3) 0.8405(2) 0.9999(4)
O2_2 O 0.5501(2) 0.91099(18) 0.9796(4)
N1_2 N 0.7469(2) 0.94728(17) 0.9849(3)
C3_2 C 0.4866(2) 0.7831(2) 0.9186(4)
C4_2 C 0.4013(2) 0.8106(2) 0.8182(4)
H1_2 H 0.3910 0.8644 0.8006
C5_2 C 0.4995(3) 0.7031(2) 0.9401(5)
C6_2 C 0.3313(2) 0.7581(2) 0.7441(4)
H3_2 H 0.2736 0.7774 0.6774
C7_2 C 0.4262(3) 0.6540(2) 0.8609(5)
H4_2 H 0.4353 0.5999 0.8753
N2_2 N 0.34296(19) 0.68015(17) 0.7643(3)
N3_2 N 0.8082(2) 0.9212(2) 0.9454(4)
N5_2 N 0.8078(2) 0.9670(2) 0.8394(4)
O1_2 O 0.14095(17) 0.68912(17) 0.5896(3)
C1_4 C 0.0634(3) 0.6595(2) 0.4999(4)
O2_3 O 0.0501(2) 0.58901(18) 0.4796(4)
C2_3 C 0.2089(2) 0.4887(2) 0.3983(4)
N1_3 N 0.2469(2) 0.55272(17) 0.4849(3)
H2_2 H 0.0565 0.8174 0.5069
N3_3 N 0.3082(2) 0.5788(2) 0.4454(4)
C8_3 C 0.1383(3) 0.4396(3) 0.4017(6)
H5_3 H 0.0890 0.4333 0.2971
H6_3 H 0.1630 0.3889 0.4446
H7_3 H 0.1167 0.4645 0.4654
N5_3 N 0.3078(2) 0.5330(2) 0.3394(4)
O1_3 O 0.64095(17) 0.18912(17) 0.5896(3)
C1_5 C 0.5634(3) 0.1595(2) 0.4999(4)
O2_4 O 0.5501(2) 0.08901(18) 0.4796(4)
N1_4 N 0.7469(2) 0.05272(17) 0.4849(3)
C3_3 C 0.4866(2) 0.2169(2) 0.4186(4)
C4_3 C 0.4013(2) 0.1894(2) 0.3182(4)
H1_3 H 0.3910 0.1356 0.3006
C5_3 C 0.4995(3) 0.2969(2) 0.4401(5)
H2_3 H 0.5565 0.3174 0.5069
C6_3 C 0.3313(2) 0.2419(2) 0.2441(4)
H3_3 H 0.2736 0.2226 0.1774
C7_3 C 0.4262(3) 0.3460(2) 0.3609(5)
H4_3 H 0.4353 0.4001 0.3753
N3_4 N 0.8082(2) 0.0788(2) 0.4454(4)
N5_4 N 0.8078(2) 0.0330(2) 0.3394(4)
C3_4 C 0.0134(2) 0.2831(2) 0.5814(4)
C4_4 C 0.0987(2) 0.3106(2) 0.6818(4)
H1_4 H 0.1090 0.3644 0.6994
C5_4 C 0.0005(3) 0.2031(2) 0.5599(5)
C6_4 C 0.1687(2) 0.2581(2) 0.7559(4)
H3_4 H 0.2264 0.2774 0.8226
C7_4 C 0.0738(3) 0.1540(2) 0.6391(5)
H4_4 H 0.0647 0.0999 0.6247
N2_3 N 0.15704(19) 0.18015(17) 0.7357(3)
Zn2_2 Zn 0.26664(3) 0.10742(2) 0.84653(4)
C2_4 C 0.2911(2) 0.0113(2) 0.6017(4)
C8_4 C 0.3617(3) 0.0604(3) 0.5983(6)
H5_4 H 0.4110 0.0667 0.7029
H6_4 H 0.3370 0.1111 0.5554
H7_4 H 0.3833 0.0355 0.5346
N4_3 N 0.2539(2) 0.02475(18) 0.6930(3)
O1_4 O 0.35905(17) 0.18912(17) 0.9104(3)
C1_6 C 0.4366(3) 0.1595(2) 1.0001(4)
H2_4 H 0.4435 0.3174 0.9931
Zn1_2 Zn 0.76664(3) 0.39258(2) 0.34653(4)
O1_5 O 0.85905(17) 0.31088(17) 0.4104(3)
C1_7 C 0.9366(3) 0.3405(2) 0.5001(4)
O2_5 O 0.9499(2) 0.41099(18) 0.5204(4)
C2_5 C 0.7911(2) 0.5113(2) 0.6017(4)
N1_5 N 0.7531(2) 0.44728(17) 0.5151(3)
H2_5 H 0.9435 0.1826 0.4931
N3_5 N 0.6918(2) 0.4212(2) 0.5546(4)
C8_5 C 0.8617(3) 0.5604(3) 0.5983(6)
H5_5 H 0.9110 0.5667 0.7029
H6_5 H 0.8370 0.6111 0.5554
H7_5 H 0.8833 0.5355 0.5346
N4_4 N 0.7539(2) 0.52475(18) 0.6930(3)
N5_5 N 0.6922(2) 0.4670(2) 0.6606(4)
Zn3_2 Zn 0.76664(3) 0.60742(2) 0.84653(4)
N6_2 N 0.65704(19) 0.31985(17) 0.2357(3)
N7_2 N 0.7539(2) 0.47525(18) 0.1930(3)
Zn1_3 Zn 0.26664(3) 0.89258(2) 0.34653(4)
O1_6 O 0.35905(17) 0.81088(17) 0.4104(3)
C1_8 C 0.4366(3) 0.8405(2) 0.5001(4)
O2_6 O 0.4499(2) 0.91099(18) 0.5204(4)
N1_6 N 0.2531(2) 0.94728(17) 0.5151(3)
C3_5 C 0.5134(2) 0.7831(2) 0.5814(4)
C4_5 C 0.5987(2) 0.8106(2) 0.6818(4)
H1_5 H 0.6090 0.8644 0.6994
C5_5 C 0.5005(3) 0.7031(2) 0.5599(5)
H2_6 H 0.4435 0.6826 0.4931
C6_5 C 0.6687(2) 0.7581(2) 0.7559(4)
H3_5 H 0.7264 0.7774 0.8226
C7_5 C 0.5738(3) 0.6540(2) 0.6391(5)
H4_5 H 0.5647 0.5999 0.6247
N2_4 N 0.65704(19) 0.68015(17) 0.7357(3)
N3_6 N 0.1918(2) 0.9212(2) 0.5546(4)
N5_6 N 0.1922(2) 0.9670(2) 0.6606(4)
N6_3 N 0.15704(19) 0.81985(17) 0.2357(3)
N7_3 N 0.2539(2) 0.97525(18) 0.1930(3)
C3_6 C 0.0134(2) 0.7169(2) 0.0814(4)
C4_6 C 0.0987(2) 0.6894(2) 0.1818(4)
H1_6 H 0.1090 0.6356 0.1994
C5_6 C 0.0005(3) 0.7969(2) 0.0599(5)
C6_6 C 0.1687(2) 0.7419(2) 0.2559(4)
H3_6 H 0.2264 0.7226 0.3226
C7_6 C 0.0738(3) 0.8460(2) 0.1391(5)
H4_6 H 0.0647 0.9001 0.1247
C1_9 C 0.9366(3) 0.6595(2) 0.0001(4)
O2_7 O 0.9499(2) 0.58901(18) 0.0204(4)
C2_6 C 0.7911(2) 0.4887(2) 0.1017(4)
N1_7 N 0.7531(2) 0.55272(17) 0.0151(3)
N3_7 N 0.6918(2) 0.5788(2) 0.0546(4)
C8_6 C 0.8617(3) 0.4396(3) 0.0983(6)
H5_6 H 0.9110 0.4333 0.2029
H6_6 H 0.8370 0.3889 0.0554
H7_6 H 0.8833 0.4645 0.0346
N5_7 N 0.6922(2) 0.5330(2) 0.1606(4)
O1_7 O 0.85905(17) 0.68912(17) 0.9104(3)
C1_10 C 0.9366(3) 0.6595(2) 1.0001(4)
H2_7 H 0.9435 0.8174 0.9931
C1_11 C 0.4366(3) 0.1595(2) 0.0001(4)
O2_8 O 0.4499(2) 0.08901(18) 0.0204(4)
N1_8 N 0.2531(2) 0.05272(17) 0.0151(3)
C3_7 C 0.5134(2) 0.2169(2) 0.0814(4)
C4_7 C 0.5987(2) 0.1894(2) 0.1818(4)
H1_7 H 0.6090 0.1356 0.1994
C5_7 C 0.5005(3) 0.2969(2) 0.0599(5)
C6_7 C 0.6687(2) 0.2419(2) 0.2559(4)
H3_7 H 0.7264 0.2226 0.3226
C7_7 C 0.5738(3) 0.3460(2) 0.1391(5)
H4_7 H 0.5647 0.4001 0.1247
N3_8 N 0.1918(2) 0.0788(2) 0.0546(4)
N5_8 N 0.1922(2) 0.0330(2) 0.1606(4)
C2_7 C 0.2911(2) 0.9887(2) 0.1017(4)
C8_7 C 0.3617(3) 0.9396(3) 0.0983(6)
H5_7 H 0.4110 0.9333 0.2029
H6_7 H 0.3370 0.8889 0.0554
H7_7 H 0.3833 0.9645 0.0346
Zn1_4 Zn 0.73336(3) 0.89258(2) 0.15347(4)
O1_8 O 0.64095(17) 0.81088(17) 0.0896(3)
C1_12 C 0.5634(3) 0.8405(2) -0.0001(4)
H2_8 H 0.5565 0.6826 0.0069
N6_4 N 0.84296(19) 0.81985(17) 0.2643(3)
N7_4 N 0.7461(2) 0.97525(18) 0.3070(3)
C3_8 C 0.9866(2) 0.7169(2) 0.4186(4)
C4_8 C 0.9013(2) 0.6894(2) 0.3182(4)
H1_8 H 0.8910 0.6356 0.3006
C5_8 C 0.9995(3) 0.7969(2) 0.4401(5)
C6_8 C 0.8313(2) 0.7419(2) 0.2441(4)
H3_8 H 0.7736 0.7226 0.1774
C7_8 C 0.9262(3) 0.8460(2) 0.3609(5)
H4_8 H 0.9353 0.9001 0.3753
C2_8 C 0.7089(2) 0.9887(2) 0.3983(4)
C8_8 C 0.6383(3) 0.9396(3) 0.4017(6)
H5_8 H 0.5890 0.9333 0.2971
H6_8 H 0.6630 0.8889 0.4446
H7_8 H 0.6167 0.9645 0.4654
loop_
_geom_bond_atom_site_label_1
_geom_bond_atom_site_label_2
_geom_bond_site_symmetry_1
_geom_bond_site_symmetry_2
Zn1 O1 1_555 1_555
O1 C1 1_555 1_555
N6 Zn1 1_555 1_555
N7 Zn1 1_555 1_555
C1_2 O2 1_555 1_555
C2 N1 1_555 1_555
N3 N1 1_555 1_555
C8 C2 1_555 1_555
H5 C8 1_555 1_555
H6 C8 1_555 1_555
H7 C8 1_555 1_555
N4 C2 1_555 1_555
N5 N3 1_555 1_555
Zn3 N4 1_555 1_555
N4 N5 1_555 1_555
C4 C3 1_555 1_555
H1 C4 1_555 1_555
C5 C3 1_555 1_555
C6 C4 1_555 1_555
H3 C6 1_555 1_555
C7 C5 1_555 1_555
H4 C7 1_555 1_555
N2 C6 1_555 1_555
Zn2 N2 1_555 1_555
C7 N2 1_555 1_555
C8_2 C2_2 1_555 1_555
H5_2 C8_2 1_555 1_555
H6_2 C8_2 1_555 1_555
H7_2 C8_2 1_555 1_555
N4_2 C2_2 1_555 1_555
Zn2 N4_2 1_555 1_555
C1_3 O2_2 1_555 1_555
C3_2 C1_3 1_555 1_555
C4_2 C3_2 1_555 1_555
H1_2 C4_2 1_555 1_555
C5_2 C3_2 1_555 1_555
C6_2 C4_2 1_555 1_555
H3_2 C6_2 1_555 1_555
C7_2 C5_2 1_555 1_555
H4_2 C7_2 1_555 1_555
N2_2 C6_2 1_555 1_555
N3_2 N1_2 1_555 1_555
N5_2 N3_2 1_555 1_555
Zn3 N2_2 1_555 1_555
C7_2 N2_2 1_555 1_555
Zn3 O1_2 1_555 1_555
O1_2 C1_4 1_555 1_555
C1_4 O2_3 1_555 1_555
C2_3 N1_3 1_555 1_555
N1_3 Zn3 1_555 1_555
N3_3 N1_3 1_555 1_555
C8_3 C2_3 1_555 1_555
H5_3 C8_3 1_555 1_555
H6_3 C8_3 1_555 1_555
H7_3 C8_3 1_555 1_555
N7 C2_3 1_555 1_555
N5_3 N3_3 1_555 1_555
N7 N5_3 1_555 1_555
Zn2 O1_3 1_555 1_555
O1_3 C1_5 1_555 1_555
C1_5 O2_4 1_555 1_555
N1_4 Zn2 1_555 1_555
C3_3 C1_5 1_555 1_555
C4_3 C3_3 1_555 1_555
H1_3 C4_3 1_555 1_555
C5_3 C3_3 1_555 1_555
H2_3 C5_3 1_555 1_555
C6_3 C4_3 1_555 1_555
H3_3 C6_3 1_555 1_555
C7_3 C5_3 1_555 1_555
H4_3 C7_3 1_555 1_555
N6 C6_3 1_555 1_555
N3_4 N1_4 1_555 1_555
N5_4 N3_4 1_555 1_555
C7_3 N6 1_555 1_555
C4_4 C3_4 1_555 1_555
H1_4 C4_4 1_555 1_555
C5_4 C3_4 1_555 1_555
C6_4 C4_4 1_555 1_555
H3_4 C6_4 1_555 1_555
C7_4 C5_4 1_555 1_555
H4_4 C7_4 1_555 1_555
N2_3 C6_4 1_555 1_555
Zn2_2 N2_3 1_555 1_555
C7_4 N2_3 1_555 1_555
C8_4 C2_4 1_555 1_555
H5_4 C8_4 1_555 1_555
H6_4 C8_4 1_555 1_555
H7_4 C8_4 1_555 1_555
N4_3 C2_4 1_555 1_555
Zn2_2 N4_3 1_555 1_555
Zn2_2 O1_4 1_555 1_555
O1_4 C1_6 1_555 1_555
Zn1_2 O1_5 1_555 1_555
O1_5 C1_7 1_555 1_555
C1_7 O2_5 1_555 1_555
C2_5 N1_5 1_555 1_555
N1_5 Zn1_2 1_555 1_555
N3_5 N1_5 1_555 1_555
C8_5 C2_5 1_555 1_555
H5_5 C8_5 1_555 1_555
H6_5 C8_5 1_555 1_555
H7_5 C8_5 1_555 1_555
N4_4 C2_5 1_555 1_555
N5_5 N3_5 1_555 1_555
Zn3_2 N4_4 1_555 1_555
N6_2 Zn1_2 1_555 1_555
N7_2 Zn1_2 1_555 1_555
N4_4 N5_5 1_555 1_555
Zn1_3 O1_6 1_555 1_555
O1_6 C1_8 1_555 1_555
C1_8 O2_6 1_555 1_555
N1_6 Zn1_3 1_555 1_555
C3_5 C1_8 1_555 1_555
C4_5 C3_5 1_555 1_555
H1_5 C4_5 1_555 1_555
C5_5 C3_5 1_555 1_555
H2_6 C5_5 1_555 1_555
C6_5 C4_5 1_555 1_555
H3_5 C6_5 1_555 1_555
C7_5 C5_5 1_555 1_555
H4_5 C7_5 1_555 1_555
N2_4 C6_5 1_555 1_555
N3_6 N1_6 1_555 1_555
N5_6 N3_6 1_555 1_555
Zn3_2 N2_4 1_555 1_555
N6_3 Zn1_3 1_555 1_555
N7_3 Zn1_3 1_555 1_555
C7_5 N2_4 1_555 1_555
C4_6 C3_6 1_555 1_555
H1_6 C4_6 1_555 1_555
C5_6 C3_6 1_555 1_555
C6_6 C4_6 1_555 1_555
H3_6 C6_6 1_555 1_555
C7_6 C5_6 1_555 1_555
H4_6 C7_6 1_555 1_555
N6_3 C6_6 1_555 1_555
C7_6 N6_3 1_555 1_555
C1_9 O2_7 1_555 1_555
C2_6 N1_7 1_555 1_555
N3_7 N1_7 1_555 1_555
C8_6 C2_6 1_555 1_555
H5_6 C8_6 1_555 1_555
H6_6 C8_6 1_555 1_555
H7_6 C8_6 1_555 1_555
N7_2 C2_6 1_555 1_555
N5_7 N3_7 1_555 1_555
N7_2 N5_7 1_555 1_555
Zn3_2 O1_7 1_555 1_555
O1_7 C1_10 1_555 1_555
C1_11 O2_8 1_555 1_555
C3_7 C1_11 1_555 1_555
C4_7 C3_7 1_555 1_555
H1_7 C4_7 1_555 1_555
C5_7 C3_7 1_555 1_555
C6_7 C4_7 1_555 1_555
H3_7 C6_7 1_555 1_555
C7_7 C5_7 1_555 1_555
H4_7 C7_7 1_555 1_555
N6_2 C6_7 1_555 1_555
N3_8 N1_8 1_555 1_555
N5_8 N3_8 1_555 1_555
C7_7 N6_2 1_555 1_555
C8_7 C2_7 1_555 1_555
H5_7 C8_7 1_555 1_555
H6_7 C8_7 1_555 1_555
H7_7 C8_7 1_555 1_555
N7_3 C2_7 1_555 1_555
Zn1_4 O1_8 1_555 1_555
O1_8 C1_12 1_555 1_555
N6_4 Zn1_4 1_555 1_555
N7_4 Zn1_4 1_555 1_555
C4_8 C3_8 1_555 1_555
H1_8 C4_8 1_555 1_555
C5_8 C3_8 1_555 1_555
C6_8 C4_8 1_555 1_555
H3_8 C6_8 1_555 1_555
C7_8 C5_8 1_555 1_555
H4_8 C7_8 1_555 1_555
N6_4 C6_8 1_555 1_555
C7_8 N6_4 1_555 1_555
C8_8 C2_8 1_555 1_555
H5_8 C8_8 1_555 1_555
H6_8 C8_8 1_555 1_555
H7_8 C8_8 1_555 1_555
N7_4 C2_8 1_555 1_555

#END
