
###############################################################################
#
# This file contains modified crystal structure data generated from the
# MOF subset of the Cambridge Structural Database (CSD) v543 
# hosted by the Cambridge Crystallographic Data Centre (CCDC).
#
# This work is licensed under the Creative Commons
# Attribution-NonCommercial-ShareAlike 4.0 International License.
# To view a copy of this license, visit
# http://creativecommons.org/licenses/by-nc-sa/4.0/
# or send a letter to
# Creative Commons, PO Box 1866, Mountain View, CA 94042, USA.
#
# CIF created using the CSD Python API on 29 September 2022
# The structure has been converted into the P1 space group
# The structure has a 3D framework
# The original CSD entry FAQYUR is in the monoclinic crystal system
# The framework has been calculated to contain at least 10.0% void space
# The void calculation uses a probe of radius 1.32A, grid spacing 0.4
# H atom positions have been added when not included in the experimental data
# Generated hydrogen atom positions removed from atoms on special positions
#
###############################################################################

data_FAQYUR
_chemical_formula_moiety         '(C62 H104 Nd6 O48)n'
_symmetry_cell_setting           triclinic
_symmetry_space_group_name_H-M   'P 1'
_symmetry_Int_Tables_number      1
_space_group_name_Hall           'P 1'
loop_
_symmetry_equiv_pos_site_id
_symmetry_equiv_pos_as_xyz
1 x,y,z
_cell_length_a                   8.1174(1)
_cell_length_b                   15.1841(3)
_cell_length_c                   19.8803(3)
_cell_angle_alpha                90
_cell_angle_beta                 93.762(1)
_cell_angle_gamma                90
_cell_volume                     2445.07
loop_
_atom_site_label
_atom_site_type_symbol
_atom_site_fract_x
_atom_site_fract_y
_atom_site_fract_z
Nd3 Nd 0.2456(1) 0.0377(1) 0.4881(1)
H14 H 0.0647(4) 0.2206(2) 0.5920(2)
O15 O 0.0142(3) 0.5448(1) 0.4384(1)
H18 H 0.0476(4) 0.3562(2) 0.6618(2)
Nd7 Nd 0.2544(1) 0.4623(1) 0.5119(1)
C8 C 0.0000 0.8660(3) 0.7500
H8 H 0.0074(4) 0.7674(2) 0.6794(2)
H10 H 0.0851 0.9036(3) 0.7335
O9 O 0.0150(2) 0.9203(1) 0.4656(1)
C10 C 0.0746(4) 0.8097(2) 0.8080(2)
C12 C 0.1334(3) 0.8621(2) 0.8701(2)
H11 H 0.1672(4) 0.7769(2) 0.7923(2)
O12 O 0.1534(3) 0.9449(2) 0.8665(1)
O13 O 0.1679(3) 0.8222(1) 0.9258(1)
Nd6 Nd 0.2456(1) 0.9623(1) 0.9881(1)
O1 O 0.5142(3) 0.0448(1) 0.4384(1)
O2 O 0.7681(3) 0.0496(2) 0.4057(1)
O3 O 0.9850(2) 0.0797(1) 0.5344(1)
O4 O 0.7339(2) 0.1158(1) 0.5599(1)
C1 C 0.6202(3) 0.0742(2) 0.3985(1)
C2 C 0.5717(4) 0.1410(2) 0.3446(2)
C3 C 0.6406(5) 0.2332(2) 0.3644(2)
C4 C 0.5518(4) 0.2744(2) 0.4218(2)
C5 C 0.8843(3) 0.1359(2) 0.5568(2)
H1 H 0.6144(4) 0.1228(2) 0.3023(2)
H2 H 0.4524(4) 0.1438(2) 0.3382(2)
H3 H 0.6295(5) 0.2716(2) 0.3254(2)
H4 H 0.7573(5) 0.2281(2) 0.3779(2)
H5 H 0.5620(4) 0.2353(2) 0.4604(2)
H6 H 0.4353(4) 0.2794(2) 0.4080(2)
C9 C 0.6157(3) 0.3641(2) 0.4432(2)
C11 C 0.9482(4) 0.2256(2) 0.5782(2)
O10 O 0.5150(2) 0.4203(1) 0.4656(1)
O11 O 0.7661(2) 0.3842(1) 0.4401(1)
C13 C 0.8594(5) 0.2668(2) 0.6356(2)
H13 H 0.9380(4) 0.2647(2) 0.5396(2)
Nd5 Nd 0.7456(1) 0.5377(1) 0.4881(1)
C14 C 0.9283(4) 0.3590(2) 0.6554(2)
H15 H 0.8705(5) 0.2284(2) 0.6746(2)
H16 H 0.7427(5) 0.2719(2) 0.6221(2)
O14 O 0.4850(2) 0.5797(1) 0.5344(1)
O16 O 0.9858(3) 0.4552(1) 0.5616(1)
O17 O 0.7319(3) 0.4504(2) 0.5943(1)
O18 O 0.6534(3) 0.5551(2) 0.3665(1)
O19 O 0.6679(3) 0.6778(1) 0.4258(1)
O20 O 0.8882(3) 0.6483(2) 0.5619(1)
C15 C 0.8798(3) 0.4258(2) 0.6015(1)
H17 H 0.8856(4) 0.3772(2) 0.6977(2)
C16 C 0.6334(3) 0.6379(2) 0.3701(2)
Nd1 Nd 0.7544(1) 0.9623(1) 0.5119(1)
O5 O 0.8466(3) 0.9449(2) 0.6335(1)
O6 O 0.8321(3) 0.8222(1) 0.5742(1)
O7 O 0.6118(3) 0.8517(2) 0.4381(1)
C6 C 0.8666(3) 0.8621(2) 0.6299(2)
C7 C 0.9254(4) 0.8097(2) 0.6920(2)
C8_2 C 1.0000 0.8660(3) 0.7500
H7 H 0.8328(4) 0.7769(2) 0.7077(2)
H9 H 0.9149 0.9036(3) 0.7665
O8 O 0.4858(3) 0.9552(1) 0.5616(1)
H12 H 0.9926(4) 0.7674(2) 0.8206(2)
O1_2 O 0.4858(3) 0.0448(1) 0.0616(1)
O2_2 O 0.2319(3) 0.0496(2) 0.0943(1)
C1_2 C 0.3798(3) 0.0742(2) 0.1015(1)
C2_2 C 0.4283(4) 0.1410(2) 0.1554(2)
C3_2 C 0.3594(5) 0.2332(2) 0.1356(2)
C4_2 C 0.4482(4) 0.2744(2) 0.0782(2)
H1_2 H 0.3856(4) 0.1228(2) 0.1977(2)
H2_2 H 0.5476(4) 0.1438(2) 0.1618(2)
H3_2 H 0.3705(5) 0.2716(2) 0.1746(2)
H4_2 H 0.2427(5) 0.2281(2) 0.1221(2)
H5_2 H 0.4380(4) 0.2353(2) 0.0396(2)
H6_2 H 0.5647(4) 0.2794(2) 0.0920(2)
Nd2 Nd 0.7544(1) 0.0377(1) 0.0119(1)
C9_2 C 0.3843(3) 0.3641(2) 0.0568(2)
O10_2 O 0.4850(2) 0.4203(1) 0.0344(1)
O11_2 O 0.2339(2) 0.3842(1) 0.0599(1)
Nd5_2 Nd 0.2544(1) 0.5377(1) 0.0119(1)
O18_2 O 0.3466(3) 0.5551(2) 0.1335(1)
O19_2 O 0.3321(3) 0.6778(1) 0.0742(1)
C16_2 C 0.3666(3) 0.6379(2) 0.1299(2)
O3_2 O 0.0150(2) 0.0797(1) 0.9656(1)
O4_2 O 0.2661(2) 0.1158(1) 0.9401(1)
C5_2 C 0.1157(3) 0.1359(2) 0.9432(2)
C11_2 C 0.0518(4) 0.2256(2) 0.9218(2)
C13_2 C 0.1406(5) 0.2668(2) 0.8644(2)
H13_2 H 0.0620(4) 0.2647(2) 0.9604(2)
Nd4 Nd 0.7456(1) 0.4623(1) 0.9881(1)
C14_2 C 0.0717(4) 0.3590(2) 0.8446(2)
H15_2 H 0.1295(5) 0.2284(2) 0.8254(2)
H16_2 H 0.2573(5) 0.2719(2) 0.8779(2)
O14_2 O 0.5150(2) 0.5797(1) 0.9656(1)
O16_2 O 0.0142(3) 0.4552(1) 0.9384(1)
O17_2 O 0.2681(3) 0.4504(2) 0.9057(1)
O20_2 O 0.1118(3) 0.6483(2) 0.9381(1)
C15_2 C 0.1202(3) 0.4258(2) 0.8985(1)
H17_2 H 0.1144(4) 0.3772(2) 0.8023(2)
O8_2 O 0.5142(3) 0.9552(1) 0.9384(1)
O15_2 O 0.9858(3) 0.5448(1) 0.0616(1)
H14_2 H 0.9353(4) 0.2206(2) 0.9080(2)
H18_2 H 0.9524(4) 0.3562(2) 0.8382(2)
O9_2 O 0.9850(2) 0.9203(1) 0.0344(1)
O18_3 O 0.1534(3) 0.0551(2) 0.3665(1)
O19_3 O 0.1679(3) 0.1778(1) 0.4258(1)
O20_3 O 0.3882(3) 0.1483(2) 0.5619(1)
C16_3 C 0.1334(3) 0.1379(2) 0.3701(2)
O2_3 O 0.2681(3) 0.5496(2) 0.4057(1)
O4_3 O 0.2339(2) 0.6158(1) 0.5599(1)
O5_2 O 0.3466(3) 0.4449(2) 0.6335(1)
O6_2 O 0.3321(3) 0.3222(1) 0.5742(1)
O7_2 O 0.1118(3) 0.3517(2) 0.4381(1)
C1_3 C 0.1202(3) 0.5742(2) 0.3985(1)
C2_3 C 0.0717(4) 0.6410(2) 0.3446(2)
C3_3 C 0.1406(5) 0.7332(2) 0.3644(2)
C4_3 C 0.0518(4) 0.7744(2) 0.4218(2)
C5_3 C 0.3843(3) 0.6359(2) 0.5568(2)
C6_2 C 0.3666(3) 0.3621(2) 0.6299(2)
C7_2 C 0.4254(4) 0.3097(2) 0.6920(2)
C8_3 C 0.5000 0.3660(3) 0.7500
H1_3 H 0.1144(4) 0.6228(2) 0.3023(2)
H3_3 H 0.1295(5) 0.7716(2) 0.3254(2)
H4_3 H 0.2573(5) 0.7281(2) 0.3779(2)
H5_3 H 0.0620(4) 0.7353(2) 0.4604(2)
H7_2 H 0.3328(4) 0.2769(2) 0.7077(2)
H8_2 H 0.5074(4) 0.2674(2) 0.6794(2)
H9_2 H 0.4149 0.4036(3) 0.7665
H10_2 H 0.5851 0.4036(3) 0.7335
C9_3 C 0.1157(3) 0.8641(2) 0.4432(2)
C10_2 C 0.5746(4) 0.3097(2) 0.8080(2)
C11_3 C 0.4482(4) 0.7256(2) 0.5782(2)
O11_3 O 0.2661(2) 0.8842(1) 0.4401(1)
C12_2 C 0.6334(3) 0.3621(2) 0.8701(2)
H11_2 H 0.6672(4) 0.2769(2) 0.7923(2)
H12_2 H 0.4926(4) 0.2674(2) 0.8206(2)
C13_3 C 0.3594(5) 0.7668(2) 0.6356(2)
H13_3 H 0.4380(4) 0.7647(2) 0.5396(2)
H14_3 H 0.5647(4) 0.7206(2) 0.5920(2)
O12_2 O 0.6534(3) 0.4449(2) 0.8665(1)
O13_2 O 0.6679(3) 0.3222(1) 0.9258(1)
C14_3 C 0.4283(4) 0.8590(2) 0.6554(2)
H15_3 H 0.3705(5) 0.7284(2) 0.6746(2)
H16_3 H 0.2427(5) 0.7719(2) 0.6221(2)
O17_3 O 0.2319(3) 0.9504(2) 0.5943(1)
C15_3 C 0.3798(3) 0.9258(2) 0.6015(1)
H17_3 H 0.3856(4) 0.8772(2) 0.6977(2)
H18_3 H 0.5476(4) 0.8562(2) 0.6618(2)
H2_3 H 0.9524(4) 0.6438(2) 0.3382(2)
H6_3 H 0.9353(4) 0.7794(2) 0.4080(2)
H2_4 H 0.0476(4) 0.6438(2) 0.1618(2)
H6_4 H 0.0647(4) 0.7794(2) 0.0920(2)
O18_4 O 0.8466(3) 0.0551(2) 0.1335(1)
O19_4 O 0.8321(3) 0.1778(1) 0.0742(1)
C16_4 C 0.8666(3) 0.1379(2) 0.1299(2)
O2_4 O 0.7319(3) 0.5496(2) 0.0943(1)
O7_3 O 0.8882(3) 0.3517(2) 0.0619(1)
C1_4 C 0.8798(3) 0.5742(2) 0.1015(1)
C2_4 C 0.9283(4) 0.6410(2) 0.1554(2)
C3_4 C 0.8594(5) 0.7332(2) 0.1356(2)
C4_4 C 0.9482(4) 0.7744(2) 0.0782(2)
H1_4 H 0.8856(4) 0.6228(2) 0.1977(2)
H3_4 H 0.8705(5) 0.7716(2) 0.1746(2)
H4_4 H 0.7427(5) 0.7281(2) 0.1221(2)
H5_4 H 0.9380(4) 0.7353(2) 0.0396(2)
C9_4 C 0.8843(3) 0.8641(2) 0.0568(2)
O11_4 O 0.7339(2) 0.8842(1) 0.0599(1)
O4_4 O 0.7661(2) 0.6158(1) 0.9401(1)
C5_4 C 0.6157(3) 0.6359(2) 0.9432(2)
C11_4 C 0.5518(4) 0.7256(2) 0.9218(2)
C13_4 C 0.6406(5) 0.7668(2) 0.8644(2)
H13_4 H 0.5620(4) 0.7647(2) 0.9604(2)
H14_4 H 0.4353(4) 0.7206(2) 0.9080(2)
C14_4 C 0.5717(4) 0.8590(2) 0.8446(2)
H15_4 H 0.6295(5) 0.7284(2) 0.8254(2)
H16_4 H 0.7573(5) 0.7719(2) 0.8779(2)
O17_4 O 0.7681(3) 0.9504(2) 0.9057(1)
C15_4 C 0.6202(3) 0.9258(2) 0.8985(1)
H17_4 H 0.6144(4) 0.8772(2) 0.8023(2)
H18_4 H 0.4524(4) 0.8562(2) 0.8382(2)
C7_3 C 0.0746(4) 0.1903(2) 0.3080(2)
C8_4 C -0.0000 0.1340(3) 0.2500
H7_3 H 0.1672(4) 0.2231(2) 0.2923(2)
H9_3 H 0.0851 0.0964(3) 0.2335
H12_3 H 0.0074(4) 0.2326(2) 0.1794(2)
C8_5 C 1.0000 0.1340(3) 0.2500
H8_3 H 0.9926(4) 0.2326(2) 0.3206(2)
H10_3 H 0.9149 0.0964(3) 0.2665
C10_3 C 0.9254(4) 0.1903(2) 0.1920(2)
H11_3 H 0.8328(4) 0.2231(2) 0.2077(2)
C7_4 C 0.5746(4) 0.6903(2) 0.3080(2)
C8_6 C 0.5000 0.6340(3) 0.2500
H7_4 H 0.6672(4) 0.7231(2) 0.2923(2)
H8_4 H 0.4926(4) 0.7326(2) 0.3206(2)
H9_4 H 0.5851 0.5964(3) 0.2335
H10_4 H 0.4149 0.5964(3) 0.2665
C10_4 C 0.4254(4) 0.6903(2) 0.1920(2)
H11_4 H 0.3328(4) 0.7231(2) 0.2077(2)
H12_4 H 0.5074(4) 0.7326(2) 0.1794(2)
O7_4 O 0.3882(3) 0.8517(2) 0.0619(1)
O20_4 O 0.6118(3) 0.1483(2) 0.9381(1)
loop_
_geom_bond_atom_site_label_1
_geom_bond_atom_site_label_2
_geom_bond_site_symmetry_1
_geom_bond_site_symmetry_2
Nd7 O15 1_555 1_555
H10 C8 1_555 1_555
C10 C8 1_555 1_555
C12 C10 1_555 1_555
H11 C10 1_555 1_555
O12 C12 1_555 1_555
O13 C12 1_555 1_555
Nd6 O12 1_555 1_555
O13 Nd6 1_555 1_555
O1 C1 1_555 1_555
C1 O2 1_555 1_555
C2 C1 1_555 1_555
C3 C2 1_555 1_555
C4 C3 1_555 1_555
C5 O3 1_555 1_555
H1 C2 1_555 1_555
H2 C2 1_555 1_555
H3 C3 1_555 1_555
H4 C3 1_555 1_555
H5 C4 1_555 1_555
H6 C4 1_555 1_555
Nd3 O1 1_555 1_555
C9 C4 1_555 1_555
C11 C5 1_555 1_555
O10 C9 1_555 1_555
O11 C9 1_555 1_555
C13 C11 1_555 1_555
H13 C11 1_555 1_555
Nd7 O10 1_555 1_555
Nd5 O10 1_555 1_555
C14 C13 1_555 1_555
H15 C13 1_555 1_555
H16 C13 1_555 1_555
O14 Nd7 1_555 1_555
O16 Nd5 1_555 1_555
O17 Nd5 1_555 1_555
O18 Nd5 1_555 1_555
O19 Nd5 1_555 1_555
O20 Nd5 1_555 1_555
C15 C14 1_555 1_555
H17 C14 1_555 1_555
C16 O18 1_555 1_555
O4 C5 1_555 1_555
O11 Nd5 1_555 1_555
Nd5 O14 1_555 1_555
O16 C15 1_555 1_555
O17 C15 1_555 1_555
O19 C16 1_555 1_555
O5 Nd1 1_555 1_555
O6 Nd1 1_555 1_555
O7 Nd1 1_555 1_555
C6 O5 1_555 1_555
C7 C6 1_555 1_555
C8_2 C7 1_555 1_555
H7 C7 1_555 1_555
H9 C8_2 1_555 1_555
O8 Nd1 1_555 1_555
O6 C6 1_555 1_555
O1_2 C1_2 1_555 1_555
C1_2 O2_2 1_555 1_555
C2_2 C1_2 1_555 1_555
C3_2 C2_2 1_555 1_555
C4_2 C3_2 1_555 1_555
H1_2 C2_2 1_555 1_555
H2_2 C2_2 1_555 1_555
H3_2 C3_2 1_555 1_555
H4_2 C3_2 1_555 1_555
H5_2 C4_2 1_555 1_555
H6_2 C4_2 1_555 1_555
Nd2 O1_2 1_555 1_555
C9_2 C4_2 1_555 1_555
O10_2 C9_2 1_555 1_555
O11_2 C9_2 1_555 1_555
Nd5_2 O10_2 1_555 1_555
O18_2 Nd5_2 1_555 1_555
O19_2 Nd5_2 1_555 1_555
C16_2 O18_2 1_555 1_555
O11_2 Nd5_2 1_555 1_555
O19_2 C16_2 1_555 1_555
C5_2 O3_2 1_555 1_555
C11_2 C5_2 1_555 1_555
C13_2 C11_2 1_555 1_555
H13_2 C11_2 1_555 1_555
C14_2 C13_2 1_555 1_555
H15_2 C13_2 1_555 1_555
H16_2 C13_2 1_555 1_555
O14_2 Nd4 1_555 1_555
C15_2 C14_2 1_555 1_555
H17_2 C14_2 1_555 1_555
O4_2 C5_2 1_555 1_555
O16_2 C15_2 1_555 1_555
O17_2 C15_2 1_555 1_555
O8_2 Nd6 1_555 1_555
O18_3 Nd3 1_555 1_555
O19_3 Nd3 1_555 1_555
O20_3 Nd3 1_555 1_555
C16_3 O18_3 1_555 1_555
O19_3 C16_3 1_555 1_555
O15 C1_3 1_555 1_555
O2_3 Nd7 1_555 1_555
O4_3 Nd7 1_555 1_555
O5_2 Nd7 1_555 1_555
O6_2 Nd7 1_555 1_555
O7_2 Nd7 1_555 1_555
C1_3 O2_3 1_555 1_555
C2_3 C1_3 1_555 1_555
C3_3 C2_3 1_555 1_555
C4_3 C3_3 1_555 1_555
C5_3 O14 1_555 1_555
C6_2 O5_2 1_555 1_555
C7_2 C6_2 1_555 1_555
C8_3 C7_2 1_555 1_555
H1_3 C2_3 1_555 1_555
H3_3 C3_3 1_555 1_555
H4_3 C3_3 1_555 1_555
H5_3 C4_3 1_555 1_555
H7_2 C7_2 1_555 1_555
H8_2 C7_2 1_555 1_555
H9_2 C8_3 1_555 1_555
H10_2 C8_3 1_555 1_555
C9_3 C4_3 1_555 1_555
C10_2 C8_3 1_555 1_555
C11_3 C5_3 1_555 1_555
O9 C9_3 1_555 1_555
O11_3 C9_3 1_555 1_555
C12_2 C10_2 1_555 1_555
H11_2 C10_2 1_555 1_555
H12_2 C10_2 1_555 1_555
C13_3 C11_3 1_555 1_555
H13_3 C11_3 1_555 1_555
H14_3 C11_3 1_555 1_555
O12_2 C12_2 1_555 1_555
O13_2 C12_2 1_555 1_555
C14_3 C13_3 1_555 1_555
H15_3 C13_3 1_555 1_555
H16_3 C13_3 1_555 1_555
Nd4 O12_2 1_555 1_555
C15_3 C14_3 1_555 1_555
H17_3 C14_3 1_555 1_555
H18_3 C14_3 1_555 1_555
O4_3 C5_3 1_555 1_555
O6_2 C6_2 1_555 1_555
O13_2 Nd4 1_555 1_555
O8 C15_3 1_555 1_555
O17_3 C15_3 1_555 1_555
O18_4 Nd2 1_555 1_555
O19_4 Nd2 1_555 1_555
C16_4 O18_4 1_555 1_555
O19_4 C16_4 1_555 1_555
O15_2 C1_4 1_555 1_555
C1_4 O2_4 1_555 1_555
C2_4 C1_4 1_555 1_555
C3_4 C2_4 1_555 1_555
C4_4 C3_4 1_555 1_555
H1_4 C2_4 1_555 1_555
H3_4 C3_4 1_555 1_555
H4_4 C3_4 1_555 1_555
H5_4 C4_4 1_555 1_555
C9_4 C4_4 1_555 1_555
O9_2 C9_4 1_555 1_555
O11_4 C9_4 1_555 1_555
O4_4 Nd4 1_555 1_555
C5_4 O14_2 1_555 1_555
C11_4 C5_4 1_555 1_555
C13_4 C11_4 1_555 1_555
H13_4 C11_4 1_555 1_555
H14_4 C11_4 1_555 1_555
C14_4 C13_4 1_555 1_555
H15_4 C13_4 1_555 1_555
H16_4 C13_4 1_555 1_555
C15_4 C14_4 1_555 1_555
H17_4 C14_4 1_555 1_555
H18_4 C14_4 1_555 1_555
O4_4 C5_4 1_555 1_555
O8_2 C15_4 1_555 1_555
O17_4 C15_4 1_555 1_555
C7_3 C16_3 1_555 1_555
C8_4 C7_3 1_555 1_555
H7_3 C7_3 1_555 1_555
H9_3 C8_4 1_555 1_555
H10_3 C8_5 1_555 1_555
C10_3 C8_5 1_555 1_555
C16_4 C10_3 1_555 1_555
H11_3 C10_3 1_555 1_555
C7_4 C16 1_555 1_555
C8_6 C7_4 1_555 1_555
H7_4 C7_4 1_555 1_555
H8_4 C7_4 1_555 1_555
H9_4 C8_6 1_555 1_555
H10_4 C8_6 1_555 1_555
C10_4 C8_6 1_555 1_555
C16_2 C10_4 1_555 1_555
H11_4 C10_4 1_555 1_555
H12_4 C10_4 1_555 1_555

#END
