
###############################################################################
#
# This file contains modified crystal structure data generated from the
# MOF subset of the Cambridge Structural Database (CSD) v543 
# hosted by the Cambridge Crystallographic Data Centre (CCDC).
#
# This work is licensed under the Creative Commons
# Attribution-NonCommercial-ShareAlike 4.0 International License.
# To view a copy of this license, visit
# http://creativecommons.org/licenses/by-nc-sa/4.0/
# or send a letter to
# Creative Commons, PO Box 1866, Mountain View, CA 94042, USA.
#
# CIF created using the CSD Python API on 29 September 2022
# The structure has been converted into the P1 space group
# The structure has a 3D framework
# The original CSD entry FARBOS is in the orthorhombic crystal system
# The framework has been calculated to contain at least 10.0% void space
# The void calculation uses a probe of radius 1.32A, grid spacing 0.4
#
###############################################################################

data_FARBOS
_chemical_formula_moiety         '(C64 H24 O36 P6 Zn8)n'
_symmetry_cell_setting           triclinic
_symmetry_space_group_name_H-M   'P 1'
_symmetry_Int_Tables_number      1
_space_group_name_Hall           'P 1'
loop_
_symmetry_equiv_pos_site_id
_symmetry_equiv_pos_as_xyz
1 x,y,z
_cell_length_a                   10.7239(3)
_cell_length_b                   15.3597(3)
_cell_length_c                   17.7316(3)
_cell_angle_alpha                90
_cell_angle_beta                 90
_cell_angle_gamma                90
_cell_volume                     2920.68
loop_
_atom_site_label
_atom_site_type_symbol
_atom_site_fract_x
_atom_site_fract_y
_atom_site_fract_z
O6 O 0.09269(16) 0.03624(11) 0.79612(9)
Zn8 Zn 0.07202(3) 0.150197(19) 0.842661(14)
Zn1 Zn 0.42798(3) 0.650197(19) 0.842661(14)
P1 P -0.0000 0.98466(5) 0.7500
O2 O 0.0158(2) 0.90007(13) 0.45768(9)
O3 O 0.3376(2) 0.73382(12) 0.77744(9)
O4 O 0.40308(19) 0.69904(14) 0.66143(9)
O5 O 0.1803(2) 0.82279(15) 0.43673(9)
C1 C 0.1103(3) 0.86166(16) 0.48113(13)
C2 C 0.2430(2) 0.80216(15) 0.67338(12)
C3 C 0.3356(3) 0.73993(16) 0.70675(12)
C4 C 0.1372(3) 0.86137(15) 0.56458(12)
C5 C 0.2260(3) 0.80540(15) 0.59500(12)
H1 H 0.2749 0.7696 0.5628
C6 C 0.0870(2) 0.91396(15) 0.68903(12)
C7 C 0.1728(2) 0.85601(15) 0.71964(11)
H2 H 0.1834 0.8533 0.7728
C8 C 0.0686(2) 0.91564(15) 0.61101(12)
H3 H 0.0087 0.9541 0.5898
Zn4 Zn 0.07202(3) 0.849803(19) 0.342661(14)
Zn6 Zn 0.57202(3) 0.650197(19) 0.657339(14)
O11 O 0.40731(16) 0.53624(11) 0.79612(9)
O13 O 0.4842(2) 0.59993(13) 0.95768(9)
O16 O 0.59692(19) 0.69904(14) 0.83857(9)
O17 O 0.3197(2) 0.67721(15) 0.93673(9)
O1 O 0.90731(16) 0.03624(11) 0.70388(9)
Zn7 Zn 0.92798(3) 0.150197(19) 0.657339(14)
O7 O 0.9842(2) 0.90007(13) 0.04232(9)
O10 O 0.8197(2) 0.82279(15) 0.06327(9)
C9 C 0.8897(3) 0.86166(16) 0.01887(13)
Zn5 Zn 0.92798(3) 0.849803(19) 0.157339(14)
P1_2 P 1.0000 0.98466(5) 0.7500
O8 O 0.6624(2) 0.73382(12) 0.72256(9)
C10 C 0.7570(2) 0.80216(15) 0.82662(12)
C11 C 0.6644(3) 0.73993(16) 0.79325(12)
C12 C 0.8628(3) 0.86137(15) 0.93542(12)
C13 C 0.7740(3) 0.80540(15) 0.90500(12)
H4 H 0.7251 0.7696 0.9372
C14 C 0.9130(2) 0.91396(15) 0.81097(12)
C15 C 0.8272(2) 0.85601(15) 0.78036(11)
H5 H 0.8166 0.8533 0.7272
C16 C 0.9314(2) 0.91564(15) 0.88899(12)
H6 H 0.9913 0.9541 0.9102
O12 O 0.59269(16) 0.53624(11) 0.70388(9)
O14 O 0.5158(2) 0.59993(13) 0.54232(9)
O18 O 0.6803(2) 0.67721(15) 0.56327(9)
O15 O 0.09692(19) 0.80096(14) 0.16143(9)
P1_3 P 0.5000 0.51534(5) 0.2500
O1_2 O 0.59269(16) 0.46376(11) 0.20388(9)
O3_2 O 0.1624(2) 0.76618(12) 0.27744(9)
C2_2 C 0.2570(2) 0.69784(15) 0.17338(12)
C3_2 C 0.1644(3) 0.76007(16) 0.20675(12)
C4_2 C 0.3628(3) 0.63863(15) 0.06458(12)
C5_2 C 0.2740(3) 0.69460(15) 0.09500(12)
H1_2 H 0.2251 0.7304 0.0628
C6_2 C 0.4130(2) 0.58604(15) 0.18903(12)
C7_2 C 0.3272(2) 0.64399(15) 0.21964(11)
H2_2 H 0.3166 0.6467 0.2728
C8_2 C 0.4314(2) 0.58436(15) 0.11101(12)
H3_2 H 0.4913 0.5459 0.0898
O6_2 O 0.40731(16) 0.46376(11) 0.29612(9)
O8_2 O 0.8376(2) 0.76618(12) 0.22256(9)
O9 O 0.90308(19) 0.80096(14) 0.33857(9)
C9_2 C 0.6103(3) 0.63834(16) 0.51887(13)
C10_2 C 0.7430(2) 0.69784(15) 0.32662(12)
C11_2 C 0.8356(3) 0.76007(16) 0.29325(12)
C12_2 C 0.6372(3) 0.63863(15) 0.43542(12)
C13_2 C 0.7260(3) 0.69460(15) 0.40500(12)
H4_2 H 0.7749 0.7304 0.4372
C14_2 C 0.5870(2) 0.58604(15) 0.31097(12)
C15_2 C 0.6728(2) 0.64399(15) 0.28036(11)
H5_2 H 0.6834 0.6467 0.2272
C16_2 C 0.5686(2) 0.58436(15) 0.38899(12)
H6_2 H 0.5087 0.5459 0.4102
Zn7_2 Zn 0.57202(3) 0.349803(19) 0.157339(14)
Zn8_2 Zn 0.42798(3) 0.349803(19) 0.342661(14)
O11_2 O 0.09269(16) 0.96376(11) 0.29612(9)
O12_2 O 0.90731(16) 0.96376(11) 0.20388(9)
C1_2 C 0.3897(3) 0.63834(16) 0.98113(13)
P1_4 P 0.0000 0.01534(5) 0.2500
O8_3 O 0.3376(2) 0.26618(12) 0.27744(9)
O9_2 O 0.40308(19) 0.30096(14) 0.16143(9)
C10_3 C 0.2430(2) 0.19784(15) 0.17338(12)
C11_3 C 0.3356(3) 0.26007(16) 0.20675(12)
C12_3 C 0.1372(3) 0.13863(15) 0.06458(12)
C13_3 C 0.2260(3) 0.19460(15) 0.09500(12)
H4_3 H 0.2749 0.2304 0.0628
C14_3 C 0.0870(2) 0.08604(15) 0.18903(12)
C15_3 C 0.1728(2) 0.14399(15) 0.21964(11)
H5_3 H 0.1834 0.1467 0.2728
C16_3 C 0.0686(2) 0.08436(15) 0.11101(12)
H6_3 H 0.0087 0.0459 0.0898
O14_2 O 0.4842(2) 0.40007(13) 0.45768(9)
O15_2 O 0.59692(19) 0.30096(14) 0.33857(9)
O18_2 O 0.3197(2) 0.32279(15) 0.43673(9)
O7_2 O 0.0158(2) 0.09993(13) 0.95768(9)
O10_2 O 0.1803(2) 0.17721(15) 0.93673(9)
C9_3 C 0.1103(3) 0.13834(16) 0.98113(13)
P1_5 P 1.0000 0.01534(5) 0.2500
O2_2 O 0.9842(2) 0.09993(13) 0.54232(9)
O3_3 O 0.6624(2) 0.26618(12) 0.22256(9)
O5_2 O 0.8197(2) 0.17721(15) 0.56327(9)
C1_3 C 0.8897(3) 0.13834(16) 0.51887(13)
C2_3 C 0.7570(2) 0.19784(15) 0.32662(12)
C3_3 C 0.6644(3) 0.26007(16) 0.29325(12)
C4_3 C 0.8628(3) 0.13863(15) 0.43542(12)
C5_3 C 0.7740(3) 0.19460(15) 0.40500(12)
H1_3 H 0.7251 0.2304 0.4372
C6_3 C 0.9130(2) 0.08604(15) 0.31097(12)
C7_3 C 0.8272(2) 0.14399(15) 0.28036(11)
H2_3 H 0.8166 0.1467 0.2272
C8_3 C 0.9314(2) 0.08436(15) 0.38899(12)
H3_3 H 0.9913 0.0459 0.4102
O13_2 O 0.5158(2) 0.40007(13) 0.04232(9)
O17_2 O 0.6803(2) 0.32279(15) 0.06327(9)
O16_2 O 0.09692(19) 0.19904(14) 0.66143(9)
C1_4 C 0.6103(3) 0.36166(16) 0.01887(13)
P1_6 P 0.5000 0.48466(5) 0.7500
O3_4 O 0.8376(2) 0.23382(12) 0.72256(9)
O4_2 O 0.90308(19) 0.19904(14) 0.83857(9)
C2_4 C 0.7430(2) 0.30216(15) 0.82662(12)
C3_4 C 0.8356(3) 0.23993(16) 0.79325(12)
C4_4 C 0.6372(3) 0.36137(15) 0.93542(12)
C5_4 C 0.7260(3) 0.30540(15) 0.90500(12)
H1_4 H 0.7749 0.2696 0.9372
C6_4 C 0.5870(2) 0.41396(15) 0.81097(12)
C7_4 C 0.6728(2) 0.35601(15) 0.78036(11)
H2_4 H 0.6834 0.3533 0.7272
C8_4 C 0.5686(2) 0.41564(15) 0.88899(12)
H3_4 H 0.5087 0.4541 0.9102
O8_4 O 0.1624(2) 0.23382(12) 0.77744(9)
C9_4 C 0.3897(3) 0.36166(16) 0.48113(13)
C10_4 C 0.2570(2) 0.30216(15) 0.67338(12)
C11_4 C 0.1644(3) 0.23993(16) 0.70675(12)
C12_4 C 0.3628(3) 0.36137(15) 0.56458(12)
C13_4 C 0.2740(3) 0.30540(15) 0.59500(12)
H4_4 H 0.2251 0.2696 0.5628
C14_4 C 0.4130(2) 0.41396(15) 0.68903(12)
C15_4 C 0.3272(2) 0.35601(15) 0.71964(11)
H5_4 H 0.3166 0.3533 0.7728
C16_4 C 0.4314(2) 0.41564(15) 0.61101(12)
H6_4 H 0.4913 0.4541 0.5898
loop_
_geom_bond_atom_site_label_1
_geom_bond_atom_site_label_2
_geom_bond_site_symmetry_1
_geom_bond_site_symmetry_2
Zn8 O6 1_555 1_555
Zn1 O3 1_555 1_555
O2 C1 1_555 1_555
O3 C3 1_555 1_555
O4 C3 1_555 1_555
O5 C1 1_555 1_555
C1 C4 1_555 1_555
C2 C3 1_555 1_555
C4 C5 1_555 1_555
C5 C2 1_555 1_555
H1 C5 1_555 1_555
C6 P1 1_555 1_555
C7 C2 1_555 1_555
H2 C7 1_555 1_555
C8 C4 1_555 1_555
H3 C8 1_555 1_555
Zn4 O2 1_555 1_555
Zn6 O4 1_555 1_555
O11 Zn1 1_555 1_555
O13 Zn1 1_555 1_555
O16 Zn1 1_555 1_555
O17 Zn1 1_555 1_555
O5 Zn4 1_555 1_555
C6 C7 1_555 1_555
C6 C8 1_555 1_555
O1 Zn7 1_555 1_555
O7 C9 1_555 1_555
O10 C9 1_555 1_555
Zn5 O7 1_555 1_555
O10 Zn5 1_555 1_555
O8 C11 1_555 1_555
O16 C11 1_555 1_555
C10 C11 1_555 1_555
C12 C13 1_555 1_555
C13 C10 1_555 1_555
H4 C13 1_555 1_555
C14 P1_2 1_555 1_555
C15 C10 1_555 1_555
H5 C15 1_555 1_555
C16 C12 1_555 1_555
H6 C16 1_555 1_555
Zn6 O8 1_555 1_555
O12 Zn6 1_555 1_555
O14 Zn6 1_555 1_555
O18 Zn6 1_555 1_555
C14 C15 1_555 1_555
C14 C16 1_555 1_555
Zn4 O3_2 1_555 1_555
P1_3 O1_2 1_555 1_555
O1_2 Zn7_2 1_555 1_555
O3_2 C3_2 1_555 1_555
O15 C3_2 1_555 1_555
C2_2 C3_2 1_555 1_555
C4_2 C5_2 1_555 1_555
C5_2 C2_2 1_555 1_555
H1_2 C5_2 1_555 1_555
C6_2 P1_3 1_555 1_555
C7_2 C2_2 1_555 1_555
H2_2 C7_2 1_555 1_555
C8_2 C4_2 1_555 1_555
H3_2 C8_2 1_555 1_555
O6_2 P1_3 1_555 1_555
O14 C9_2 1_555 1_555
O8_2 C11_2 1_555 1_555
O9 C11_2 1_555 1_555
O18 C9_2 1_555 1_555
C9_2 C12_2 1_555 1_555
C10_2 C11_2 1_555 1_555
C12_2 C13_2 1_555 1_555
C13_2 C10_2 1_555 1_555
H4_2 C13_2 1_555 1_555
C14_2 P1_3 1_555 1_555
C15_2 C10_2 1_555 1_555
H5_2 C15_2 1_555 1_555
C16_2 C12_2 1_555 1_555
H6_2 C16_2 1_555 1_555
Zn5 O8_2 1_555 1_555
Zn8_2 O6_2 1_555 1_555
O11_2 Zn4 1_555 1_555
O12_2 Zn5 1_555 1_555
C6_2 C7_2 1_555 1_555
C6_2 C8_2 1_555 1_555
C14_2 C15_2 1_555 1_555
C14_2 C16_2 1_555 1_555
O13 C1_2 1_555 1_555
O17 C1_2 1_555 1_555
O8_3 C11_3 1_555 1_555
O9_2 C11_3 1_555 1_555
C10_3 C11_3 1_555 1_555
C12_3 C13_3 1_555 1_555
C13_3 C10_3 1_555 1_555
H4_3 C13_3 1_555 1_555
C14_3 P1_4 1_555 1_555
C15_3 C10_3 1_555 1_555
H5_3 C15_3 1_555 1_555
C16_3 C12_3 1_555 1_555
H6_3 C16_3 1_555 1_555
Zn8_2 O8_3 1_555 1_555
Zn7_2 O9_2 1_555 1_555
O14_2 Zn8_2 1_555 1_555
O15_2 Zn8_2 1_555 1_555
O18_2 Zn8_2 1_555 1_555
C14_3 C15_3 1_555 1_555
C14_3 C16_3 1_555 1_555
O7_2 C9_3 1_555 1_555
O10_2 C9_3 1_555 1_555
Zn8 O7_2 1_555 1_555
O10_2 Zn8 1_555 1_555
Zn7_2 O3_3 1_555 1_555
O2_2 C1_3 1_555 1_555
O3_3 C3_3 1_555 1_555
O15_2 C3_3 1_555 1_555
O5_2 C1_3 1_555 1_555
C1_3 C4_3 1_555 1_555
C2_3 C3_3 1_555 1_555
C4_3 C5_3 1_555 1_555
C5_3 C2_3 1_555 1_555
H1_3 C5_3 1_555 1_555
C6_3 P1_5 1_555 1_555
C7_3 C2_3 1_555 1_555
H2_3 C7_3 1_555 1_555
C8_3 C4_3 1_555 1_555
H3_3 C8_3 1_555 1_555
Zn7 O2_2 1_555 1_555
O13_2 Zn7_2 1_555 1_555
O17_2 Zn7_2 1_555 1_555
O5_2 Zn7 1_555 1_555
C6_3 C7_3 1_555 1_555
C6_3 C8_3 1_555 1_555
O13_2 C1_4 1_555 1_555
O17_2 C1_4 1_555 1_555
Zn7 O3_4 1_555 1_555
P1_6 O11 1_555 1_555
O3_4 C3_4 1_555 1_555
O4_2 C3_4 1_555 1_555
C2_4 C3_4 1_555 1_555
C4_4 C5_4 1_555 1_555
C5_4 C2_4 1_555 1_555
H1_4 C5_4 1_555 1_555
C6_4 P1_6 1_555 1_555
C7_4 C2_4 1_555 1_555
H2_4 C7_4 1_555 1_555
C8_4 C4_4 1_555 1_555
H3_4 C8_4 1_555 1_555
O12 P1_6 1_555 1_555
O14_2 C9_4 1_555 1_555
O8_4 C11_4 1_555 1_555
O16_2 C11_4 1_555 1_555
O18_2 C9_4 1_555 1_555
C9_4 C12_4 1_555 1_555
C10_4 C11_4 1_555 1_555
C12_4 C13_4 1_555 1_555
C13_4 C10_4 1_555 1_555
H4_4 C13_4 1_555 1_555
C14_4 P1_6 1_555 1_555
C15_4 C10_4 1_555 1_555
H5_4 C15_4 1_555 1_555
C16_4 C12_4 1_555 1_555
H6_4 C16_4 1_555 1_555
Zn8 O8_4 1_555 1_555
C6_4 C7_4 1_555 1_555
C6_4 C8_4 1_555 1_555
C14_4 C15_4 1_555 1_555
C14_4 C16_4 1_555 1_555

#END
