
###############################################################################
#
# This file contains modified crystal structure data generated from the
# MOF subset of the Cambridge Structural Database (CSD) v543 
# hosted by the Cambridge Crystallographic Data Centre (CCDC).
#
# This work is licensed under the Creative Commons
# Attribution-NonCommercial-ShareAlike 4.0 International License.
# To view a copy of this license, visit
# http://creativecommons.org/licenses/by-nc-sa/4.0/
# or send a letter to
# Creative Commons, PO Box 1866, Mountain View, CA 94042, USA.
#
# CIF created using the CSD Python API on 29 September 2022
# The structure has been converted into the P1 space group
# The structure has a 3D framework
# The original CSD entry FARFUA is in the monoclinic crystal system
# The framework has been calculated to contain at least 10.0% void space
# The void calculation uses a probe of radius 1.32A, grid spacing 0.4
#
###############################################################################

data_FARFUA
_chemical_formula_moiety         '(C288 H192 I48 N92 Zn24)n'
_symmetry_cell_setting           triclinic
_symmetry_space_group_name_H-M   'P 1'
_symmetry_Int_Tables_number      1
_space_group_name_Hall           'P 1'
loop_
_symmetry_equiv_pos_site_id
_symmetry_equiv_pos_as_xyz
1 x,y,z
_cell_length_a                   34.1126(11)
_cell_length_b                   15.1010(5)
_cell_length_c                   30.2397(10)
_cell_angle_alpha                90
_cell_angle_beta                 101.1170(10)
_cell_angle_gamma                90
_cell_volume                     15285.2
loop_
_atom_site_label
_atom_site_type_symbol
_atom_site_fract_x
_atom_site_fract_y
_atom_site_fract_z
H18 H 0.2636 0.0068 0.6643
N10 N 0.3105(3) 0.0090(5) 0.7156(4)
Zn5 Zn 0.32027(7) 0.14395(9) 0.71808(7)
C1 C 0.9723(3) 0.9674(5) 0.4461(3)
H1 H 0.9900 0.9808 0.4263
C2 C 0.9785(3) 0.8911(5) 0.4713(3)
H2 H 0.9997 0.8517 0.4689
C3 C 0.9522(3) 0.8736(5) 0.5008(3)
C4 C 0.9230(3) 0.9334(7) 0.5050(4)
H3 H 0.9061 0.9242 0.5261
C6 C 0.9559(3) 0.7902(6) 0.5284(3)
C7 C 0.9871(3) 0.6620(6) 0.5504(3)
C8 C 0.9353(3) 0.7075(7) 0.5812(3)
C11 C 0.9086(4) 0.6922(7) 0.6131(4)
C12 C 0.8713(4) 0.7353(7) 0.6064(5)
H6 H 0.8638 0.7759 0.5823
C13 C 0.8454(5) 0.7169(8) 0.6361(5)
H7 H 0.8198 0.7439 0.6313
C14 C 0.9174(5) 0.6366(11) 0.6485(5)
H8 H 0.9422 0.6059 0.6538
C36 C 0.8910(5) 0.6234(12) 0.6775(6)
H24 H 0.8983 0.5852 0.7027
I3 I 0.86454(6) 0.67659(9) 0.79491(5)
I4 I 0.75566(5) 0.72476(7) 0.68777(6)
N2 N 0.9843(3) 0.7323(5) 0.5233(3)
N3 N 0.9639(3) 0.6473(6) 0.5799(3)
N4 N 0.9304(3) 0.7796(5) 0.5563(3)
N11 N 0.8560(5) 0.6628(7) 0.6707(4)
Zn3 Zn 0.82027(7) 0.64395(9) 0.71808(7)
N14 N 0.8105(3) 0.5090(5) 0.7156(4)
C1_2 C 0.4723(3) 0.4674(5) 0.4461(3)
H1_2 H 0.4900 0.4808 0.4263
C2_2 C 0.4785(3) 0.3911(5) 0.4713(3)
H2_2 H 0.4997 0.3517 0.4689
C3_2 C 0.4522(3) 0.3736(5) 0.5008(3)
C4_2 C 0.4230(3) 0.4334(7) 0.5050(4)
H3_2 H 0.4061 0.4242 0.5261
C5 C 0.4188(3) 0.5078(6) 0.4776(4)
H4 H 0.3982 0.5488 0.4800
C6_2 C 0.4559(3) 0.2902(6) 0.5284(3)
C7_2 C 0.4871(3) 0.1620(6) 0.5504(3)
C8_2 C 0.4353(3) 0.2075(7) 0.5812(3)
C9 C 0.5184(3) 0.0958(6) 0.5472(4)
C10 C 0.5298(4) 0.0373(11) 0.5836(6)
H5 H 0.5165 0.0363 0.6084
C11_2 C 0.4086(4) 0.1922(7) 0.6131(4)
C12_2 C 0.3713(4) 0.2353(7) 0.6064(5)
H6_2 H 0.3638 0.2759 0.5823
C13_2 C 0.3454(5) 0.2169(8) 0.6361(5)
H7_2 H 0.3198 0.2439 0.6313
C14_2 C 0.4174(5) 0.1366(11) 0.6485(5)
H8_2 H 0.4422 0.1059 0.6538
C17 C 0.8349(3) 0.0487(5) 0.7882(3)
C18 C 0.8675(4) 0.0868(6) 0.8151(4)
H11 H 0.8740 0.1469 0.8108
C19 C 0.8907(4) 0.0375(7) 0.8485(4)
H12 H 0.9127 0.0659 0.8672
C20 C 0.8100(3) 0.0990(5) 0.7519(3)
C21 C 0.7577(3) 0.1062(5) 0.6935(3)
C22 C 0.7937(3) 0.2292(5) 0.7160(3)
C23 C 0.7261(3) 0.0586(6) 0.6621(4)
C26 C 0.6751(4) 0.0554(7) 0.5960(4)
H15 H 0.6598 0.0852 0.5708
C27 C 0.7030(3) 0.1022(6) 0.6253(4)
H16 H 0.7067 0.1637 0.6208
C28 C 0.8004(3) 0.3257(5) 0.7138(3)
C29 C 0.7743(4) 0.3802(7) 0.6852(5)
H17 H 0.7520 0.3554 0.6654
C30 C 0.7806(4) 0.4706(7) 0.6856(5)
H18_2 H 0.7636 0.5068 0.6643
C31 C 0.8354(4) 0.4557(7) 0.7429(4)
H19 H 0.8571 0.4822 0.7629
C32 C 0.8318(3) 0.3655(6) 0.7439(4)
H20 H 0.8500 0.3309 0.7645
C33 C 0.5686(3) 0.0346(7) 0.5114(4)
H21 H 0.5812 0.0332 0.4860
C34 C 0.5375(3) 0.0945(6) 0.5129(4)
H22 H 0.5299 0.1352 0.4888
C36_2 C 0.3910(5) 0.1234(12) 0.6775(6)
H24_2 H 0.3983 0.0852 0.7027
I1 I 0.48095(3) 0.65182(6) 0.35877(3)
I2 I 0.38571(3) 0.73618(4) 0.43686(3)
I3_2 I 0.36454(6) 0.17659(9) 0.79491(5)
I4_2 I 0.25566(5) 0.22476(7) 0.68777(6)
N1 N 0.4421(2) 0.5244(5) 0.4482(3)
N2_2 N 0.4843(3) 0.2323(5) 0.5233(3)
N3_2 N 0.4639(3) 0.1473(6) 0.5799(3)
N4_2 N 0.4304(3) 0.2796(5) 0.5563(3)
N6 N 0.8186(2) 0.1848(4) 0.7476(3)
N7 N 0.7631(2) 0.1934(5) 0.6876(3)
N8 N 0.7793(2) 0.0577(4) 0.7267(3)
N11_2 N 0.3560(5) 0.1628(7) 0.6707(4)
Zn2 Zn 0.42456(4) 0.62279(7) 0.40052(4)
N13 N 0.3843(3) 0.5466(5) 0.3562(3)
C9_2 C 0.0184(3) 0.4042(6) 0.0472(4)
C10_2 C 0.0298(4) 0.4627(11) 0.0836(6)
H5_2 H 0.0165 0.4637 0.1084
C15 C 0.3513(4) 0.5833(6) 0.3314(4)
H9 H 0.3450 0.6426 0.3379
C16 C 0.3264(3) 0.5402(6) 0.2974(4)
H10 H 0.3038 0.5694 0.2803
C17_2 C 0.3349(3) 0.4513(5) 0.2882(3)
C18_2 C 0.3675(4) 0.4132(6) 0.3151(4)
H11_2 H 0.3740 0.3531 0.3108
C19_2 C 0.3907(4) 0.4625(7) 0.3485(4)
H12_2 H 0.4127 0.4341 0.3672
C20_2 C 0.3100(3) 0.4010(5) 0.2519(3)
C21_2 C 0.2577(3) 0.3938(5) 0.1935(3)
C22_2 C 0.2937(3) 0.2708(5) 0.2160(3)
C23_2 C 0.2261(3) 0.4414(6) 0.1621(4)
C24 C 0.2193(3) 0.5299(6) 0.1680(4)
H13 H 0.2341 0.5612 0.1930
C25 C 0.1905(3) 0.5723(7) 0.1369(5)
H14 H 0.1861 0.6336 0.1410
C26_2 C 0.1751(4) 0.4446(7) 0.0960(4)
H15_2 H 0.1598 0.4148 0.0708
C27_2 C 0.2030(3) 0.3978(6) 0.1253(4)
H16_2 H 0.2067 0.3363 0.1208
C28_2 C 0.3004(3) 0.1743(5) 0.2138(3)
C29_2 C 0.2743(4) 0.1198(7) 0.1852(5)
H17_2 H 0.2520 0.1446 0.1654
C30_2 C 0.2806(4) 0.0294(7) 0.1856(5)
C31_2 C 0.3354(4) 0.0443(7) 0.2429(4)
H19_2 H 0.3571 0.0178 0.2629
C32_2 C 0.3318(3) 0.1345(6) 0.2439(4)
H20_2 H 0.3500 0.1691 0.2645
C33_2 C 0.0686(3) 0.4654(7) 0.0114(4)
C34_2 C 0.0375(3) 0.4055(6) 0.0129(4)
C35 C 0.0616(5) 0.5190(12) 0.0815(7)
H23 H 0.0705 0.5579 0.1061
I5 I 0.11432(4) 0.74607(5) 0.08646(5)
N6_2 N 0.3186(2) 0.3152(4) 0.2476(3)
N7_2 N 0.2631(2) 0.3066(5) 0.1876(3)
N8_2 N 0.2793(2) 0.4423(4) 0.2267(3)
N9 N 0.1686(3) 0.5318(5) 0.1016(4)
N12 N 0.0802(3) 0.5207(6) 0.0461(4)
Zn1 Zn 0.13030(5) 0.60063(8) 0.05200(6)
C9_3 C 0.0184(3) 0.5958(6) 0.5472(4)
C10_3 C 0.0298(4) 0.5373(11) 0.5836(6)
H5_3 H 0.0165 0.5363 0.6084
C15_2 C 0.3513(4) 0.4167(6) 0.8314(4)
H9_2 H 0.3450 0.3574 0.8379
C16_2 C 0.3264(3) 0.4598(6) 0.7974(4)
H10_2 H 0.3038 0.4306 0.7803
C17_3 C 0.3349(3) 0.5487(5) 0.7882(3)
C18_3 C 0.3675(4) 0.5868(6) 0.8151(4)
H11_3 H 0.3740 0.6469 0.8108
C19_3 C 0.3907(4) 0.5375(7) 0.8485(4)
H12_3 H 0.4127 0.5659 0.8672
C20_3 C 0.3100(3) 0.5990(5) 0.7519(3)
C21_3 C 0.2577(3) 0.6062(5) 0.6935(3)
C22_3 C 0.2937(3) 0.7292(5) 0.7160(3)
C23_3 C 0.2261(3) 0.5586(6) 0.6621(4)
C24_2 C 0.2193(3) 0.4701(6) 0.6680(4)
H13_2 H 0.2341 0.4388 0.6930
C25_2 C 0.1905(3) 0.4277(7) 0.6369(5)
H14_2 H 0.1861 0.3664 0.6410
C26_3 C 0.1751(4) 0.5554(7) 0.5960(4)
H15_3 H 0.1598 0.5852 0.5708
C27_3 C 0.2030(3) 0.6022(6) 0.6253(4)
H16_3 H 0.2067 0.6637 0.6208
C28_3 C 0.3004(3) 0.8257(5) 0.7138(3)
C29_3 C 0.2743(4) 0.8802(7) 0.6852(5)
H17_3 H 0.2520 0.8554 0.6654
C30_3 C 0.2806(4) 0.9706(7) 0.6856(5)
C31_3 C 0.3354(4) 0.9557(7) 0.7429(4)
H19_3 H 0.3571 0.9822 0.7629
C32_3 C 0.3318(3) 0.8655(6) 0.7439(4)
H20_3 H 0.3500 0.8309 0.7645
C33_3 C 0.0686(3) 0.5346(7) 0.5114(4)
H21_2 H 0.0812 0.5332 0.4860
C34_3 C 0.0375(3) 0.5945(6) 0.5129(4)
H22_2 H 0.0299 0.6352 0.4888
C35_2 C 0.0616(5) 0.4810(12) 0.5815(7)
H23_2 H 0.0705 0.4421 0.6061
I5_2 I 0.11432(4) 0.25393(5) 0.58646(5)
I6 I 0.15885(4) 0.41999(10) 0.48207(5)
N5 N 0.3843(3) 0.4534(5) 0.8562(3)
N6_3 N 0.3186(2) 0.6848(4) 0.7476(3)
N7_3 N 0.2631(2) 0.6934(5) 0.6876(3)
N8_3 N 0.2793(2) 0.5577(4) 0.7267(3)
N9_2 N 0.1686(3) 0.4682(5) 0.6016(4)
N12_2 N 0.0802(3) 0.4793(6) 0.5461(4)
Zn1_2 Zn 0.13030(5) 0.39937(8) 0.55200(6)
Zn4 Zn 0.42456(4) 0.37721(7) 0.90052(4)
C1_3 C 0.4723(3) 0.5326(5) 0.9461(3)
H1_3 H 0.4900 0.5192 0.9263
C2_3 C 0.4785(3) 0.6089(5) 0.9713(3)
H2_3 H 0.4997 0.6483 0.9689
C5_2 C 0.4188(3) 0.4922(6) 0.9776(4)
H4_2 H 0.3982 0.4512 0.9800
H21_3 H 0.5812 0.9668 0.9860
H22_3 H 0.5299 0.8648 0.9888
I1_2 I 0.48095(3) 0.34818(6) 0.85877(3)
I2_2 I 0.38571(3) 0.26382(4) 0.93686(3)
N1_2 N 0.4421(2) 0.4756(5) 0.9482(3)
C5_3 C 0.9188(3) 0.0078(6) 0.4776(4)
H4_3 H 0.8982 0.0488 0.4800
I1_3 I 0.98095(3) 0.15182(6) 0.35877(3)
I2_3 I 0.88571(3) 0.23618(4) 0.43686(3)
N1_3 N 0.9421(2) 0.0244(5) 0.4482(3)
Zn2_2 Zn 0.92456(4) 0.12279(7) 0.40052(4)
N13_2 N 0.8843(3) 0.0466(5) 0.3562(3)
C15_3 C 0.8513(4) 0.0833(6) 0.3314(4)
H9_3 H 0.8450 0.1426 0.3379
C16_3 C 0.8264(3) 0.0402(6) 0.2974(4)
H10_3 H 0.8038 0.0694 0.2803
C24_3 C 0.7193(3) 0.0299(6) 0.1680(4)
H13_3 H 0.7341 0.0612 0.1930
C25_3 C 0.6905(3) 0.0723(7) 0.1369(5)
H14_3 H 0.6861 0.1336 0.1410
C35_3 C 0.5616(5) 0.0190(12) 0.0815(7)
H23_3 H 0.5705 0.0579 0.1061
I5_3 I 0.61432(4) 0.24607(5) 0.08646(5)
N9_3 N 0.6686(3) 0.0318(5) 0.1016(4)
N12_3 N 0.5802(3) 0.0207(6) 0.0461(4)
Zn1_3 Zn 0.63030(5) 0.10063(8) 0.05200(6)
C15_4 C 0.8513(4) 0.9167(6) 0.8314(4)
H9_4 H 0.8450 0.8574 0.8379
C16_4 C 0.8264(3) 0.9598(6) 0.7974(4)
H10_4 H 0.8038 0.9306 0.7803
C24_4 C 0.7193(3) 0.9701(6) 0.6680(4)
H13_4 H 0.7341 0.9388 0.6930
C25_4 C 0.6905(3) 0.9277(7) 0.6369(5)
H14_4 H 0.6861 0.8664 0.6410
C35_4 C 0.5616(5) 0.9810(12) 0.5815(7)
H23_4 H 0.5705 0.9421 0.6061
I5_4 I 0.61432(4) 0.75393(5) 0.58646(5)
I6_2 I 0.65885(4) 0.91999(10) 0.48207(5)
N5_2 N 0.8843(3) 0.9534(5) 0.8562(3)
N9_4 N 0.6686(3) 0.9682(5) 0.6016(4)
N12_4 N 0.5802(3) 0.9793(6) 0.5461(4)
Zn1_4 Zn 0.63030(5) 0.89937(8) 0.55200(6)
Zn4_2 Zn 0.92456(4) 0.87721(7) 0.90052(4)
C5_4 C 0.9188(3) 0.9922(6) 0.9776(4)
H4_4 H 0.8982 0.9512 0.9800
I1_4 I 0.98095(3) 0.84818(6) 0.85877(3)
I2_4 I 0.88571(3) 0.76382(4) 0.93686(3)
N1_4 N 0.9421(2) 0.9756(5) 0.9482(3)
C5_5 C 0.0812(3) 0.0078(6) 0.0224(4)
H4_5 H 0.1018 0.0488 0.0200
I1_5 I 0.01905(3) 0.15182(6) 0.14123(3)
I2_5 I 0.11429(3) 0.23618(4) 0.06314(3)
N1_5 N 0.0579(2) 0.0244(5) 0.0518(3)
Zn2_3 Zn 0.07544(4) 0.12279(7) 0.09948(4)
N13_3 N 0.1157(3) 0.0466(5) 0.1438(3)
C15_5 C 0.1487(4) 0.0833(6) 0.1686(4)
H9_5 H 0.1550 0.1426 0.1621
C16_5 C 0.1736(3) 0.0402(6) 0.2026(4)
H10_5 H 0.1962 0.0694 0.2197
C24_5 C 0.2807(3) 0.0299(6) 0.3320(4)
H13_5 H 0.2659 0.0612 0.3070
C25_5 C 0.3095(3) 0.0723(7) 0.3631(5)
H14_5 H 0.3139 0.1336 0.3590
C35_5 C 0.4384(5) 0.0190(12) 0.4185(7)
H23_5 H 0.4295 0.0579 0.3939
I5_5 I 0.38568(4) 0.24607(5) 0.41354(5)
I6_3 I 0.34115(4) 0.08001(10) 0.51793(5)
N9_5 N 0.3314(3) 0.0318(5) 0.3984(4)
N12_5 N 0.4198(3) 0.0207(6) 0.4539(4)
Zn1_5 Zn 0.36970(5) 0.10063(8) 0.44800(6)
C1_4 C 0.0277(3) 0.9674(5) 0.0539(3)
H1_4 H 0.0100 0.9808 0.0737
C2_4 C 0.0215(3) 0.8911(5) 0.0287(3)
H2_4 H 0.0003 0.8517 0.0311
C3_3 C 0.0478(3) 0.8736(5) 0.9992(3)
C4_3 C 0.0770(3) 0.9334(7) 0.9950(4)
H3_3 H 0.0939 0.9242 0.9739
C6_3 C 0.0441(3) 0.7902(6) 0.9716(3)
C7_3 C 0.0129(3) 0.6620(6) 0.9496(3)
C8_3 C 0.0647(3) 0.7075(7) 0.9188(3)
C11_3 C 0.0914(4) 0.6922(7) 0.8869(4)
C12_3 C 0.1287(4) 0.7353(7) 0.8936(5)
H6_3 H 0.1362 0.7759 0.9177
C13_3 C 0.1546(5) 0.7169(8) 0.8639(5)
H7_3 H 0.1802 0.7439 0.8687
C14_3 C 0.0826(5) 0.6366(11) 0.8515(5)
H8_3 H 0.0578 0.6059 0.8462
C36_3 C 0.1090(5) 0.6234(12) 0.8225(6)
H24_3 H 0.1017 0.5852 0.7973
I3_3 I 0.13546(6) 0.67659(9) 0.70509(5)
I4_3 I 0.24434(5) 0.72476(7) 0.81223(6)
N2_3 N 0.0157(3) 0.7323(5) 0.9767(3)
N3_3 N 0.0361(3) 0.6473(6) 0.9201(3)
N4_3 N 0.0696(3) 0.7796(5) 0.9437(3)
N11_3 N 0.1440(5) 0.6628(7) 0.8293(4)
Zn3_2 Zn 0.17973(7) 0.64395(9) 0.78192(7)
N14_2 N 0.1895(3) 0.5090(5) 0.7844(4)
H18_3 H 0.7364 0.0068 0.8357
N10_2 N 0.6895(3) 0.0090(5) 0.7844(4)
Zn5_2 Zn 0.67973(7) 0.14395(9) 0.78192(7)
C3_4 C 0.5478(3) 0.3736(5) 0.9992(3)
C4_4 C 0.5770(3) 0.4334(7) 0.9950(4)
H3_4 H 0.5939 0.4242 0.9739
C6_4 C 0.5441(3) 0.2902(6) 0.9716(3)
C7_4 C 0.5129(3) 0.1620(6) 0.9496(3)
C8_4 C 0.5647(3) 0.2075(7) 0.9188(3)
C9_4 C 0.4816(3) 0.0958(6) 0.9528(4)
C10_4 C 0.4702(4) 0.0373(11) 0.9164(6)
H5_4 H 0.4835 0.0363 0.8916
C11_4 C 0.5914(4) 0.1922(7) 0.8869(4)
C12_4 C 0.6287(4) 0.2353(7) 0.8936(5)
H6_4 H 0.6362 0.2759 0.9177
C13_4 C 0.6546(5) 0.2169(8) 0.8639(5)
H7_4 H 0.6802 0.2439 0.8687
C14_4 C 0.5826(5) 0.1366(11) 0.8515(5)
H8_4 H 0.5578 0.1059 0.8462
C17_4 C 0.1651(3) 0.0487(5) 0.7118(3)
C18_4 C 0.1325(4) 0.0868(6) 0.6849(4)
H11_4 H 0.1260 0.1469 0.6892
C19_4 C 0.1093(4) 0.0375(7) 0.6515(4)
H12_4 H 0.0873 0.0659 0.6328
C20_4 C 0.1900(3) 0.0990(5) 0.7481(3)
C21_4 C 0.2423(3) 0.1062(5) 0.8065(3)
C22_4 C 0.2063(3) 0.2292(5) 0.7840(3)
C23_4 C 0.2739(3) 0.0586(6) 0.8379(4)
C26_4 C 0.3249(4) 0.0554(7) 0.9040(4)
H15_4 H 0.3402 0.0852 0.9292
C27_4 C 0.2970(3) 0.1022(6) 0.8747(4)
H16_4 H 0.2933 0.1637 0.8792
C28_4 C 0.1996(3) 0.3257(5) 0.7862(3)
C29_4 C 0.2257(4) 0.3802(7) 0.8148(5)
H17_4 H 0.2480 0.3554 0.8346
C30_4 C 0.2194(4) 0.4706(7) 0.8144(5)
H18_4 H 0.2364 0.5068 0.8357
C31_4 C 0.1646(4) 0.4557(7) 0.7571(4)
H19_4 H 0.1429 0.4822 0.7371
C32_4 C 0.1682(3) 0.3655(6) 0.7561(4)
H20_4 H 0.1500 0.3309 0.7355
C33_4 C 0.4314(3) 0.0346(7) 0.9886(4)
C34_4 C 0.4625(3) 0.0945(6) 0.9871(4)
C36_4 C 0.6090(5) 0.1234(12) 0.8225(6)
H24_4 H 0.6017 0.0852 0.7973
I3_4 I 0.63546(6) 0.17659(9) 0.70509(5)
I4_4 I 0.74434(5) 0.22476(7) 0.81223(6)
N2_4 N 0.5157(3) 0.2323(5) 0.9767(3)
N3_4 N 0.5361(3) 0.1473(6) 0.9201(3)
N4_4 N 0.5696(3) 0.2796(5) 0.9437(3)
N6_4 N 0.1814(2) 0.1848(4) 0.7524(3)
N7_4 N 0.2369(2) 0.1934(5) 0.8124(3)
N8_4 N 0.2207(2) 0.0577(4) 0.7733(3)
N11_4 N 0.6440(5) 0.1628(7) 0.8293(4)
H21_4 H 0.9188 0.5332 0.0140
H22_4 H 0.9701 0.6352 0.0112
I6_4 I 0.84115(4) 0.41999(10) 0.01793(5)
C9_5 C 0.9816(3) 0.5958(6) 0.9528(4)
C10_5 C 0.9702(4) 0.5373(11) 0.9164(6)
H5_5 H 0.9835 0.5363 0.8916
C15_6 C 0.6487(4) 0.4167(6) 0.6686(4)
H9_6 H 0.6550 0.3574 0.6621
C16_6 C 0.6736(3) 0.4598(6) 0.7026(4)
H10_6 H 0.6962 0.4306 0.7197
C17_5 C 0.6651(3) 0.5487(5) 0.7118(3)
C18_5 C 0.6325(4) 0.5868(6) 0.6849(4)
H11_5 H 0.6260 0.6469 0.6892
C19_5 C 0.6093(4) 0.5375(7) 0.6515(4)
H12_5 H 0.5873 0.5659 0.6328
C20_5 C 0.6900(3) 0.5990(5) 0.7481(3)
C21_5 C 0.7423(3) 0.6062(5) 0.8065(3)
C22_5 C 0.7063(3) 0.7292(5) 0.7840(3)
C23_5 C 0.7739(3) 0.5586(6) 0.8379(4)
C24_6 C 0.7807(3) 0.4701(6) 0.8320(4)
H13_6 H 0.7659 0.4388 0.8070
C25_6 C 0.8095(3) 0.4277(7) 0.8631(5)
H14_6 H 0.8139 0.3664 0.8590
C26_5 C 0.8249(4) 0.5554(7) 0.9040(4)
H15_5 H 0.8402 0.5852 0.9292
C27_5 C 0.7970(3) 0.6022(6) 0.8747(4)
H16_5 H 0.7933 0.6637 0.8792
C28_5 C 0.6996(3) 0.8257(5) 0.7862(3)
C29_5 C 0.7257(4) 0.8802(7) 0.8148(5)
H17_5 H 0.7480 0.8554 0.8346
C30_5 C 0.7194(4) 0.9706(7) 0.8144(5)
C31_5 C 0.6646(4) 0.9557(7) 0.7571(4)
H19_5 H 0.6429 0.9822 0.7371
C32_5 C 0.6682(3) 0.8655(6) 0.7561(4)
H20_5 H 0.6500 0.8309 0.7355
C33_5 C 0.9314(3) 0.5346(7) 0.9886(4)
C34_5 C 0.9625(3) 0.5945(6) 0.9871(4)
C35_6 C 0.9384(5) 0.4810(12) 0.9185(7)
H23_6 H 0.9295 0.4421 0.8939
I5_6 I 0.88568(4) 0.25393(5) 0.91354(5)
N5_3 N 0.6157(3) 0.4534(5) 0.6438(3)
N6_5 N 0.6814(2) 0.6848(4) 0.7524(3)
N7_5 N 0.7369(2) 0.6934(5) 0.8124(3)
N8_5 N 0.7207(2) 0.5577(4) 0.7733(3)
N9_6 N 0.8314(3) 0.4682(5) 0.8984(4)
N12_6 N 0.9198(3) 0.4793(6) 0.9539(4)
Zn1_6 Zn 0.86970(5) 0.39937(8) 0.94800(6)
Zn4_3 Zn 0.57544(4) 0.37721(7) 0.59948(4)
C1_5 C 0.0277(3) 0.0326(5) 0.5539(3)
H1_5 H 0.0100 0.0192 0.5737
C2_5 C 0.0215(3) 0.1089(5) 0.5287(3)
H2_5 H 0.0003 0.1483 0.5311
C3_5 C 0.0478(3) 0.1264(5) 0.4992(3)
C4_5 C 0.0770(3) 0.0666(7) 0.4950(4)
H3_5 H 0.0939 0.0758 0.4739
C6_5 C 0.0441(3) 0.2098(6) 0.4716(3)
C7_5 C 0.0129(3) 0.3380(6) 0.4496(3)
C8_5 C 0.0647(3) 0.2925(7) 0.4188(3)
C11_5 C 0.0914(4) 0.3078(7) 0.3869(4)
C12_5 C 0.1287(4) 0.2647(7) 0.3936(5)
H6_5 H 0.1362 0.2241 0.4177
C13_5 C 0.1546(5) 0.2831(8) 0.3639(5)
H7_5 H 0.1802 0.2561 0.3687
C14_5 C 0.0826(5) 0.3634(11) 0.3515(5)
H8_5 H 0.0578 0.3941 0.3462
C36_5 C 0.1090(5) 0.3766(12) 0.3225(6)
H24_5 H 0.1017 0.4148 0.2973
I3_5 I 0.13546(6) 0.32341(9) 0.20509(5)
I4_5 I 0.24434(5) 0.27524(7) 0.31223(6)
N2_5 N 0.0157(3) 0.2677(5) 0.4767(3)
N3_5 N 0.0361(3) 0.3527(6) 0.4201(3)
N4_5 N 0.0696(3) 0.2204(5) 0.4437(3)
N11_5 N 0.1440(5) 0.3372(7) 0.3293(4)
Zn3_3 Zn 0.17973(7) 0.35605(9) 0.28192(7)
N14_3 N 0.1895(3) 0.4910(5) 0.2844(4)
H18_5 H 0.7364 0.9932 0.3357
N10_3 N 0.6895(3) 0.9910(5) 0.2844(4)
Zn5_3 Zn 0.67973(7) 0.85605(9) 0.28192(7)
C1_6 C 0.5277(3) 0.5326(5) 0.5539(3)
H1_6 H 0.5100 0.5192 0.5737
C2_6 C 0.5215(3) 0.6089(5) 0.5287(3)
H2_6 H 0.5003 0.6483 0.5311
C3_6 C 0.5478(3) 0.6264(5) 0.4992(3)
C4_6 C 0.5770(3) 0.5666(7) 0.4950(4)
H3_6 H 0.5939 0.5758 0.4739
C5_6 C 0.5812(3) 0.4922(6) 0.5224(4)
H4_6 H 0.6018 0.4512 0.5200
C6_6 C 0.5441(3) 0.7098(6) 0.4716(3)
C7_6 C 0.5129(3) 0.8380(6) 0.4496(3)
C8_6 C 0.5647(3) 0.7925(7) 0.4188(3)
C9_6 C 0.4816(3) 0.9042(6) 0.4528(4)
C10_6 C 0.4702(4) 0.9627(11) 0.4164(6)
H5_6 H 0.4835 0.9637 0.3916
C11_6 C 0.5914(4) 0.8078(7) 0.3869(4)
C12_6 C 0.6287(4) 0.7647(7) 0.3936(5)
H6_6 H 0.6362 0.7241 0.4177
C13_6 C 0.6546(5) 0.7831(8) 0.3639(5)
H7_6 H 0.6802 0.7561 0.3687
C14_6 C 0.5826(5) 0.8634(11) 0.3515(5)
H8_6 H 0.5578 0.8941 0.3462
C17_6 C 0.1651(3) 0.9513(5) 0.2118(3)
C18_6 C 0.1325(4) 0.9132(6) 0.1849(4)
H11_6 H 0.1260 0.8531 0.1892
C19_6 C 0.1093(4) 0.9625(7) 0.1515(4)
H12_6 H 0.0873 0.9341 0.1328
C20_6 C 0.1900(3) 0.9010(5) 0.2481(3)
C21_6 C 0.2423(3) 0.8938(5) 0.3065(3)
C22_6 C 0.2063(3) 0.7708(5) 0.2840(3)
C23_6 C 0.2739(3) 0.9414(6) 0.3379(4)
C26_6 C 0.3249(4) 0.9446(7) 0.4040(4)
H15_6 H 0.3402 0.9148 0.4292
C27_6 C 0.2970(3) 0.8978(6) 0.3747(4)
H16_6 H 0.2933 0.8363 0.3792
C28_6 C 0.1996(3) 0.6743(5) 0.2862(3)
C29_6 C 0.2257(4) 0.6198(7) 0.3148(5)
H17_6 H 0.2480 0.6446 0.3346
C30_6 C 0.2194(4) 0.5294(7) 0.3144(5)
H18_6 H 0.2364 0.4932 0.3357
C31_6 C 0.1646(4) 0.5443(7) 0.2571(4)
H19_6 H 0.1429 0.5178 0.2371
C32_6 C 0.1682(3) 0.6345(6) 0.2561(4)
H20_6 H 0.1500 0.6691 0.2355
C33_6 C 0.4314(3) 0.9654(7) 0.4886(4)
H21_5 H 0.4188 0.9668 0.5140
C34_6 C 0.4625(3) 0.9055(6) 0.4871(4)
H22_5 H 0.4701 0.8648 0.5112
C36_6 C 0.6090(5) 0.8766(12) 0.3225(6)
H24_6 H 0.6017 0.9148 0.2973
I1_6 I 0.51905(3) 0.34818(6) 0.64123(3)
I2_6 I 0.61429(3) 0.26382(4) 0.56314(3)
I3_6 I 0.63546(6) 0.82341(9) 0.20509(5)
I4_6 I 0.74434(5) 0.77524(7) 0.31223(6)
N1_6 N 0.5579(2) 0.4756(5) 0.5518(3)
N2_6 N 0.5157(3) 0.7677(5) 0.4767(3)
N3_6 N 0.5361(3) 0.8527(6) 0.4201(3)
N4_6 N 0.5696(3) 0.7204(5) 0.4437(3)
N6_6 N 0.1814(2) 0.8152(4) 0.2524(3)
N7_6 N 0.2369(2) 0.8066(5) 0.3124(3)
N8_6 N 0.2207(2) 0.9423(4) 0.2733(3)
N11_6 N 0.6440(5) 0.8372(7) 0.3293(4)
C1_7 C 0.5277(3) 0.4674(5) 0.0539(3)
H1_7 H 0.5100 0.4808 0.0737
C2_7 C 0.5215(3) 0.3911(5) 0.0287(3)
H2_7 H 0.5003 0.3517 0.0311
C5_7 C 0.5812(3) 0.5078(6) 0.0224(4)
H4_7 H 0.6018 0.5488 0.0200
H21_6 H 0.4188 0.0332 0.0140
H22_6 H 0.4701 0.1352 0.0112
I1_7 I 0.51905(3) 0.65182(6) 0.14123(3)
I2_7 I 0.61429(3) 0.73618(4) 0.06314(3)
N1_7 N 0.5579(2) 0.5244(5) 0.0518(3)
Zn2_4 Zn 0.57544(4) 0.62279(7) 0.09948(4)
N13_4 N 0.6157(3) 0.5466(5) 0.1438(3)
C9_7 C 0.9816(3) 0.4042(6) 0.4528(4)
C10_7 C 0.9702(4) 0.4627(11) 0.4164(6)
H5_7 H 0.9835 0.4637 0.3916
C15_7 C 0.6487(4) 0.5833(6) 0.1686(4)
H9_7 H 0.6550 0.6426 0.1621
C16_7 C 0.6736(3) 0.5402(6) 0.2026(4)
H10_7 H 0.6962 0.5694 0.2197
C17_7 C 0.6651(3) 0.4513(5) 0.2118(3)
C18_7 C 0.6325(4) 0.4132(6) 0.1849(4)
H11_7 H 0.6260 0.3531 0.1892
C19_7 C 0.6093(4) 0.4625(7) 0.1515(4)
H12_7 H 0.5873 0.4341 0.1328
C20_7 C 0.6900(3) 0.4010(5) 0.2481(3)
C21_7 C 0.7423(3) 0.3938(5) 0.3065(3)
C22_7 C 0.7063(3) 0.2708(5) 0.2840(3)
C23_7 C 0.7739(3) 0.4414(6) 0.3379(4)
C24_7 C 0.7807(3) 0.5299(6) 0.3320(4)
H13_7 H 0.7659 0.5612 0.3070
C25_7 C 0.8095(3) 0.5723(7) 0.3631(5)
H14_7 H 0.8139 0.6336 0.3590
C26_7 C 0.8249(4) 0.4446(7) 0.4040(4)
H15_7 H 0.8402 0.4148 0.4292
C27_7 C 0.7970(3) 0.3978(6) 0.3747(4)
H16_7 H 0.7933 0.3363 0.3792
C28_7 C 0.6996(3) 0.1743(5) 0.2862(3)
C29_7 C 0.7257(4) 0.1198(7) 0.3148(5)
H17_7 H 0.7480 0.1446 0.3346
C30_7 C 0.7194(4) 0.0294(7) 0.3144(5)
C31_7 C 0.6646(4) 0.0443(7) 0.2571(4)
H19_7 H 0.6429 0.0178 0.2371
C32_7 C 0.6682(3) 0.1345(6) 0.2561(4)
H20_7 H 0.6500 0.1691 0.2355
C33_7 C 0.9314(3) 0.4654(7) 0.4886(4)
H21_7 H 0.9188 0.4668 0.5140
C34_7 C 0.9625(3) 0.4055(6) 0.4871(4)
H22_7 H 0.9701 0.3648 0.5112
C35_7 C 0.9384(5) 0.5190(12) 0.4185(7)
H23_7 H 0.9295 0.5579 0.3939
I5_7 I 0.88568(4) 0.74607(5) 0.41354(5)
I6_5 I 0.84115(4) 0.58001(10) 0.51793(5)
N6_7 N 0.6814(2) 0.3152(4) 0.2524(3)
N7_7 N 0.7369(2) 0.3066(5) 0.3124(3)
N8_7 N 0.7207(2) 0.4423(4) 0.2733(3)
N9_7 N 0.8314(3) 0.5318(5) 0.3984(4)
N12_7 N 0.9198(3) 0.5207(6) 0.4539(4)
Zn1_7 Zn 0.86970(5) 0.60063(8) 0.44800(6)
I6_6 I 0.34115(4) 0.91999(10) 0.01793(5)
C15_8 C 0.1487(4) 0.9167(6) 0.6686(4)
H9_8 H 0.1550 0.8574 0.6621
C16_8 C 0.1736(3) 0.9598(6) 0.7026(4)
H10_8 H 0.1962 0.9306 0.7197
C24_8 C 0.2807(3) 0.9701(6) 0.8320(4)
H13_8 H 0.2659 0.9388 0.8070
C25_8 C 0.3095(3) 0.9277(7) 0.8631(5)
H14_8 H 0.3139 0.8664 0.8590
C35_8 C 0.4384(5) 0.9810(12) 0.9185(7)
H23_8 H 0.4295 0.9421 0.8939
I5_8 I 0.38568(4) 0.75393(5) 0.91354(5)
N5_4 N 0.1157(3) 0.9534(5) 0.6438(3)
N9_8 N 0.3314(3) 0.9682(5) 0.8984(4)
N12_8 N 0.4198(3) 0.9793(6) 0.9539(4)
Zn1_8 Zn 0.36970(5) 0.89937(8) 0.94800(6)
Zn4_4 Zn 0.07544(4) 0.87721(7) 0.59948(4)
C5_8 C 0.0812(3) 0.9922(6) 0.5224(4)
H4_8 H 0.1018 0.9512 0.5200
I1_8 I 0.01905(3) 0.84818(6) 0.64123(3)
I2_8 I 0.11429(3) 0.76382(4) 0.56314(3)
N1_8 N 0.0579(2) 0.9756(5) 0.5518(3)
H21_8 H 0.0812 0.4668 0.9860
H22_8 H 0.0299 0.3648 0.9888
I6_7 I 0.15885(4) 0.58001(10) 0.98207(5)
H18_7 H 0.2636 0.9932 0.1643
N10_4 N 0.3105(3) 0.9910(5) 0.2156(4)
Zn5_4 Zn 0.32027(7) 0.85605(9) 0.21808(7)
C3_7 C 0.9522(3) 0.1264(5) 0.0008(3)
C4_7 C 0.9230(3) 0.0666(7) 0.0050(4)
H3_7 H 0.9061 0.0758 0.0261
C6_7 C 0.9559(3) 0.2098(6) 0.0284(3)
C7_7 C 0.9871(3) 0.3380(6) 0.0504(3)
C8_7 C 0.9353(3) 0.2925(7) 0.0812(3)
C11_7 C 0.9086(4) 0.3078(7) 0.1131(4)
C12_7 C 0.8713(4) 0.2647(7) 0.1064(5)
H6_7 H 0.8638 0.2241 0.0823
C13_7 C 0.8454(5) 0.2831(8) 0.1361(5)
H7_7 H 0.8198 0.2561 0.1313
C14_7 C 0.9174(5) 0.3634(11) 0.1485(5)
H8_7 H 0.9422 0.3941 0.1538
C36_7 C 0.8910(5) 0.3766(12) 0.1775(6)
H24_7 H 0.8983 0.4148 0.2027
I3_7 I 0.86454(6) 0.32341(9) 0.29491(5)
I4_7 I 0.75566(5) 0.27524(7) 0.18777(6)
N2_7 N 0.9843(3) 0.2677(5) 0.0233(3)
N3_7 N 0.9639(3) 0.3527(6) 0.0799(3)
N4_7 N 0.9304(3) 0.2204(5) 0.0563(3)
N11_7 N 0.8560(5) 0.3372(7) 0.1707(4)
Zn3_4 Zn 0.82027(7) 0.35605(9) 0.21808(7)
N14_4 N 0.8105(3) 0.4910(5) 0.2156(4)
C3_8 C 0.4522(3) 0.6264(5) 0.0008(3)
C4_8 C 0.4230(3) 0.5666(7) 0.0050(4)
H3_8 H 0.4061 0.5758 0.0261
C6_8 C 0.4559(3) 0.7098(6) 0.0284(3)
C7_8 C 0.4871(3) 0.8380(6) 0.0504(3)
C8_8 C 0.4353(3) 0.7925(7) 0.0812(3)
C9_8 C 0.5184(3) 0.9042(6) 0.0472(4)
C10_8 C 0.5298(4) 0.9627(11) 0.0836(6)
H5_8 H 0.5165 0.9637 0.1084
C11_8 C 0.4086(4) 0.8078(7) 0.1131(4)
C12_8 C 0.3713(4) 0.7647(7) 0.1064(5)
H6_8 H 0.3638 0.7241 0.0823
C13_8 C 0.3454(5) 0.7831(8) 0.1361(5)
H7_8 H 0.3198 0.7561 0.1313
C14_8 C 0.4174(5) 0.8634(11) 0.1485(5)
H8_8 H 0.4422 0.8941 0.1538
C17_8 C 0.8349(3) 0.9513(5) 0.2882(3)
C18_8 C 0.8675(4) 0.9132(6) 0.3151(4)
H11_8 H 0.8740 0.8531 0.3108
C19_8 C 0.8907(4) 0.9625(7) 0.3485(4)
H12_8 H 0.9127 0.9341 0.3672
C20_8 C 0.8100(3) 0.9010(5) 0.2519(3)
C21_8 C 0.7577(3) 0.8938(5) 0.1935(3)
C22_8 C 0.7937(3) 0.7708(5) 0.2160(3)
C23_8 C 0.7261(3) 0.9414(6) 0.1621(4)
C26_8 C 0.6751(4) 0.9446(7) 0.0960(4)
H15_8 H 0.6598 0.9148 0.0708
C27_8 C 0.7030(3) 0.8978(6) 0.1253(4)
H16_8 H 0.7067 0.8363 0.1208
C28_8 C 0.8004(3) 0.6743(5) 0.2138(3)
C29_8 C 0.7743(4) 0.6198(7) 0.1852(5)
H17_8 H 0.7520 0.6446 0.1654
C30_8 C 0.7806(4) 0.5294(7) 0.1856(5)
H18_8 H 0.7636 0.4932 0.1643
C31_8 C 0.8354(4) 0.5443(7) 0.2429(4)
H19_8 H 0.8571 0.5178 0.2629
C32_8 C 0.8318(3) 0.6345(6) 0.2439(4)
H20_8 H 0.8500 0.6691 0.2645
C33_8 C 0.5686(3) 0.9654(7) 0.0114(4)
C34_8 C 0.5375(3) 0.9055(6) 0.0129(4)
C36_8 C 0.3910(5) 0.8766(12) 0.1775(6)
H24_8 H 0.3983 0.9148 0.2027
I3_8 I 0.36454(6) 0.82341(9) 0.29491(5)
I4_8 I 0.25566(5) 0.77524(7) 0.18777(6)
N2_8 N 0.4843(3) 0.7677(5) 0.0233(3)
N3_8 N 0.4639(3) 0.8527(6) 0.0799(3)
N4_8 N 0.4304(3) 0.7204(5) 0.0563(3)
N6_8 N 0.8186(2) 0.8152(4) 0.2476(3)
N7_8 N 0.7631(2) 0.8066(5) 0.1876(3)
N8_8 N 0.7793(2) 0.9423(4) 0.2267(3)
N11_8 N 0.3560(5) 0.8372(7) 0.1707(4)
C1_8 C 0.9723(3) 0.0326(5) 0.9461(3)
H1_8 H 0.9900 0.0192 0.9263
C2_8 C 0.9785(3) 0.1089(5) 0.9713(3)
H2_8 H 0.9997 0.1483 0.9689
I6_8 I 0.65885(4) 0.08001(10) 0.98207(5)
loop_
_geom_bond_atom_site_label_1
_geom_bond_atom_site_label_2
_geom_bond_site_symmetry_1
_geom_bond_site_symmetry_2
Zn5 N10 1_555 1_555
C1 H1 1_555 1_555
C2 C1 1_555 1_555
H2 C2 1_555 1_555
C3 C2 1_555 1_555
C4 C3 1_555 1_555
H3 C4 1_555 1_555
C6 C3 1_555 1_555
C8 C11 1_555 1_555
C11 C12 1_555 1_555
C12 H6 1_555 1_555
C13 C12 1_555 1_555
H7 C13 1_555 1_555
C14 C11 1_555 1_555
H8 C14 1_555 1_555
C36 C14 1_555 1_555
H24 C36 1_555 1_555
I3 Zn3 1_555 1_555
I4 Zn3 1_555 1_555
N2 C6 1_555 1_555
N3 C7 1_555 1_555
N4 C6 1_555 1_555
N11 C13 1_555 1_555
Zn3 N11 1_555 1_555
N14 Zn3 1_555 1_555
C7 N2 1_555 1_555
C8 N3 1_555 1_555
C8 N4 1_555 1_555
C36 N11 1_555 1_555
C1_2 H1_2 1_555 1_555
C2_2 C1_2 1_555 1_555
H2_2 C2_2 1_555 1_555
C3_2 C2_2 1_555 1_555
C4_2 C3_2 1_555 1_555
H3_2 C4_2 1_555 1_555
C5 C4_2 1_555 1_555
H4 C5 1_555 1_555
C6_2 C3_2 1_555 1_555
C7_2 C9 1_555 1_555
C8_2 C11_2 1_555 1_555
C9 C10 1_555 1_555
C10 H5 1_555 1_555
C11_2 C12_2 1_555 1_555
C12_2 H6_2 1_555 1_555
C13_2 C12_2 1_555 1_555
H7_2 C13_2 1_555 1_555
C14_2 C11_2 1_555 1_555
H8_2 C14_2 1_555 1_555
C18 C17 1_555 1_555
H11 C18 1_555 1_555
C19 C18 1_555 1_555
H12 C19 1_555 1_555
C20 C17 1_555 1_555
C21 C23 1_555 1_555
C22 C28 1_555 1_555
C26 H15 1_555 1_555
C27 C23 1_555 1_555
H16 C27 1_555 1_555
C28 C29 1_555 1_555
C29 H17 1_555 1_555
C30 C29 1_555 1_555
H18_2 C30 1_555 1_555
C31 H19 1_555 1_555
C32 C28 1_555 1_555
H20 C32 1_555 1_555
C33 H21 1_555 1_555
C34 C9 1_555 1_555
H22 C34 1_555 1_555
C36_2 C14_2 1_555 1_555
H24_2 C36_2 1_555 1_555
I1 Zn2 1_555 1_555
I2 Zn2 1_555 1_555
I3_2 Zn5 1_555 1_555
I4_2 Zn5 1_555 1_555
N1 C1_2 1_555 1_555
N2_2 C6_2 1_555 1_555
N3_2 C7_2 1_555 1_555
N4_2 C6_2 1_555 1_555
N6 C20 1_555 1_555
N7 C21 1_555 1_555
N8 C20 1_555 1_555
N14 C30 1_555 1_555
N11_2 C13_2 1_555 1_555
Zn2 N1 1_555 1_555
Zn5 N11_2 1_555 1_555
N13 Zn2 1_555 1_555
C5 N1 1_555 1_555
C7_2 N2_2 1_555 1_555
C8_2 N3_2 1_555 1_555
C8_2 N4_2 1_555 1_555
C21 N8 1_555 1_555
C22 N6 1_555 1_555
C22 N7 1_555 1_555
C26 C27 1_555 1_555
C31 C32 1_555 1_555
C31 N14 1_555 1_555
C33 C34 1_555 1_555
C36_2 N11_2 1_555 1_555
C9_2 C10_2 1_555 1_555
C10_2 H5_2 1_555 1_555
C15 H9 1_555 1_555
C16 C15 1_555 1_555
H10 C16 1_555 1_555
C17_2 C16 1_555 1_555
C18_2 C17_2 1_555 1_555
H11_2 C18_2 1_555 1_555
C19_2 C18_2 1_555 1_555
H12_2 C19_2 1_555 1_555
C20_2 C17_2 1_555 1_555
C21_2 C23_2 1_555 1_555
C22_2 C28_2 1_555 1_555
C23_2 C24 1_555 1_555
C24 H13 1_555 1_555
C25 C24 1_555 1_555
H14 C25 1_555 1_555
C26_2 H15_2 1_555 1_555
C27_2 C23_2 1_555 1_555
H16_2 C27_2 1_555 1_555
C28_2 C29_2 1_555 1_555
C29_2 H17_2 1_555 1_555
C30_2 C29_2 1_555 1_555
C31_2 H19_2 1_555 1_555
C32_2 C28_2 1_555 1_555
H20_2 C32_2 1_555 1_555
C34_2 C9_2 1_555 1_555
C35 C10_2 1_555 1_555
H23 C35 1_555 1_555
I5 Zn1 1_555 1_555
N13 C15 1_555 1_555
N6_2 C20_2 1_555 1_555
N7_2 C21_2 1_555 1_555
N8_2 C20_2 1_555 1_555
N9 C25 1_555 1_555
N12 C33_2 1_555 1_555
Zn1 N9 1_555 1_555
C19_2 N13 1_555 1_555
C21_2 N8_2 1_555 1_555
C22_2 N6_2 1_555 1_555
C22_2 N7_2 1_555 1_555
C26_2 C27_2 1_555 1_555
C26_2 N9 1_555 1_555
C31_2 C32_2 1_555 1_555
C33_2 C34_2 1_555 1_555
C35 N12 1_555 1_555
N12 Zn1 1_555 1_555
C9_3 C10_3 1_555 1_555
C10_3 H5_3 1_555 1_555
C15_2 H9_2 1_555 1_555
C16_2 C15_2 1_555 1_555
H10_2 C16_2 1_555 1_555
C17_3 C16_2 1_555 1_555
C18_3 C17_3 1_555 1_555
H11_3 C18_3 1_555 1_555
C19_3 C18_3 1_555 1_555
H12_3 C19_3 1_555 1_555
C20_3 C17_3 1_555 1_555
C21_3 C23_3 1_555 1_555
C22_3 C28_3 1_555 1_555
C23_3 C24_2 1_555 1_555
C24_2 H13_2 1_555 1_555
C25_2 C24_2 1_555 1_555
H14_2 C25_2 1_555 1_555
C26_3 H15_3 1_555 1_555
C27_3 C23_3 1_555 1_555
H16_3 C27_3 1_555 1_555
C28_3 C29_3 1_555 1_555
C29_3 H17_3 1_555 1_555
C30_3 C29_3 1_555 1_555
C31_3 H19_3 1_555 1_555
C32_3 C28_3 1_555 1_555
H20_3 C32_3 1_555 1_555
C33_3 H21_2 1_555 1_555
C34_3 C9_3 1_555 1_555
H22_2 C34_3 1_555 1_555
C35_2 C10_3 1_555 1_555
H23_2 C35_2 1_555 1_555
I5_2 Zn1_2 1_555 1_555
I6 Zn1_2 1_555 1_555
N5 C15_2 1_555 1_555
N6_3 C20_3 1_555 1_555
N7_3 C21_3 1_555 1_555
N8_3 C20_3 1_555 1_555
N9_2 C25_2 1_555 1_555
N12_2 C33_3 1_555 1_555
Zn1_2 N9_2 1_555 1_555
Zn4 N5 1_555 1_555
C19_3 N5 1_555 1_555
C21_3 N8_3 1_555 1_555
C22_3 N6_3 1_555 1_555
C22_3 N7_3 1_555 1_555
C26_3 C27_3 1_555 1_555
C26_3 N9_2 1_555 1_555
C31_3 C32_3 1_555 1_555
C33_3 C34_3 1_555 1_555
C35_2 N12_2 1_555 1_555
N12_2 Zn1_2 1_555 1_555
C1_3 H1_3 1_555 1_555
C2_3 C1_3 1_555 1_555
H2_3 C2_3 1_555 1_555
H4_2 C5_2 1_555 1_555
I1_2 Zn4 1_555 1_555
I2_2 Zn4 1_555 1_555
N1_2 C1_3 1_555 1_555
Zn4 N1_2 1_555 1_555
C5_2 N1_2 1_555 1_555
H4_3 C5_3 1_555 1_555
I1_3 Zn2_2 1_555 1_555
I2_3 Zn2_2 1_555 1_555
Zn2_2 N1_3 1_555 1_555
N13_2 Zn2_2 1_555 1_555
C5_3 N1_3 1_555 1_555
C15_3 H9_3 1_555 1_555
C16_3 C15_3 1_555 1_555
H10_3 C16_3 1_555 1_555
C24_3 H13_3 1_555 1_555
C25_3 C24_3 1_555 1_555
H14_3 C25_3 1_555 1_555
H23_3 C35_3 1_555 1_555
I5_3 Zn1_3 1_555 1_555
N13_2 C15_3 1_555 1_555
N9_3 C25_3 1_555 1_555
Zn1_3 N9_3 1_555 1_555
C35_3 N12_3 1_555 1_555
N12_3 Zn1_3 1_555 1_555
C15_4 H9_4 1_555 1_555
C16_4 C15_4 1_555 1_555
H10_4 C16_4 1_555 1_555
C24_4 H13_4 1_555 1_555
C25_4 C24_4 1_555 1_555
H14_4 C25_4 1_555 1_555
H23_4 C35_4 1_555 1_555
I5_4 Zn1_4 1_555 1_555
I6_2 Zn1_4 1_555 1_555
N5_2 C15_4 1_555 1_555
N9_4 C25_4 1_555 1_555
Zn1_4 N9_4 1_555 1_555
Zn4_2 N5_2 1_555 1_555
C35_4 N12_4 1_555 1_555
N12_4 Zn1_4 1_555 1_555
H4_4 C5_4 1_555 1_555
I1_4 Zn4_2 1_555 1_555
I2_4 Zn4_2 1_555 1_555
Zn4_2 N1_4 1_555 1_555
C5_4 N1_4 1_555 1_555
H4_5 C5_5 1_555 1_555
I1_5 Zn2_3 1_555 1_555
I2_5 Zn2_3 1_555 1_555
Zn2_3 N1_5 1_555 1_555
N13_3 Zn2_3 1_555 1_555
C5_5 N1_5 1_555 1_555
C15_5 H9_5 1_555 1_555
C16_5 C15_5 1_555 1_555
H10_5 C16_5 1_555 1_555
C24_5 H13_5 1_555 1_555
C25_5 C24_5 1_555 1_555
H14_5 C25_5 1_555 1_555
H23_5 C35_5 1_555 1_555
I5_5 Zn1_5 1_555 1_555
I6_3 Zn1_5 1_555 1_555
N13_3 C15_5 1_555 1_555
N9_5 C25_5 1_555 1_555
Zn1_5 N9_5 1_555 1_555
C35_5 N12_5 1_555 1_555
N12_5 Zn1_5 1_555 1_555
C1_4 H1_4 1_555 1_555
C2_4 C1_4 1_555 1_555
H2_4 C2_4 1_555 1_555
C4_3 C3_3 1_555 1_555
H3_3 C4_3 1_555 1_555
C6_3 C3_3 1_555 1_555
C8_3 C11_3 1_555 1_555
C11_3 C12_3 1_555 1_555
C12_3 H6_3 1_555 1_555
C13_3 C12_3 1_555 1_555
H7_3 C13_3 1_555 1_555
C14_3 C11_3 1_555 1_555
H8_3 C14_3 1_555 1_555
C36_3 C14_3 1_555 1_555
H24_3 C36_3 1_555 1_555
I3_3 Zn3_2 1_555 1_555
I4_3 Zn3_2 1_555 1_555
N2_3 C6_3 1_555 1_555
N3_3 C7_3 1_555 1_555
N4_3 C6_3 1_555 1_555
N11_3 C13_3 1_555 1_555
Zn3_2 N11_3 1_555 1_555
N14_2 Zn3_2 1_555 1_555
C7_3 N2_3 1_555 1_555
C8_3 N3_3 1_555 1_555
C8_3 N4_3 1_555 1_555
C36_3 N11_3 1_555 1_555
Zn5_2 N10_2 1_555 1_555
C4_4 C3_4 1_555 1_555
H3_4 C4_4 1_555 1_555
C6_4 C3_4 1_555 1_555
C7_4 C9_4 1_555 1_555
C8_4 C11_4 1_555 1_555
C9_4 C10_4 1_555 1_555
C10_4 H5_4 1_555 1_555
C11_4 C12_4 1_555 1_555
C12_4 H6_4 1_555 1_555
C13_4 C12_4 1_555 1_555
H7_4 C13_4 1_555 1_555
C14_4 C11_4 1_555 1_555
H8_4 C14_4 1_555 1_555
C18_4 C17_4 1_555 1_555
H11_4 C18_4 1_555 1_555
C19_4 C18_4 1_555 1_555
H12_4 C19_4 1_555 1_555
C20_4 C17_4 1_555 1_555
C21_4 C23_4 1_555 1_555
C22_4 C28_4 1_555 1_555
C26_4 H15_4 1_555 1_555
C27_4 C23_4 1_555 1_555
H16_4 C27_4 1_555 1_555
C28_4 C29_4 1_555 1_555
C29_4 H17_4 1_555 1_555
C30_4 C29_4 1_555 1_555
H18_4 C30_4 1_555 1_555
C31_4 H19_4 1_555 1_555
C32_4 C28_4 1_555 1_555
H20_4 C32_4 1_555 1_555
C34_4 C9_4 1_555 1_555
C36_4 C14_4 1_555 1_555
H24_4 C36_4 1_555 1_555
I3_4 Zn5_2 1_555 1_555
I4_4 Zn5_2 1_555 1_555
N2_4 C6_4 1_555 1_555
N3_4 C7_4 1_555 1_555
N4_4 C6_4 1_555 1_555
N6_4 C20_4 1_555 1_555
N7_4 C21_4 1_555 1_555
N8_4 C20_4 1_555 1_555
N14_2 C30_4 1_555 1_555
N11_4 C13_4 1_555 1_555
Zn5_2 N11_4 1_555 1_555
C7_4 N2_4 1_555 1_555
C8_4 N3_4 1_555 1_555
C8_4 N4_4 1_555 1_555
C21_4 N8_4 1_555 1_555
C22_4 N6_4 1_555 1_555
C22_4 N7_4 1_555 1_555
C26_4 C27_4 1_555 1_555
C31_4 C32_4 1_555 1_555
C31_4 N14_2 1_555 1_555
C33_4 C34_4 1_555 1_555
C36_4 N11_4 1_555 1_555
C9_5 C10_5 1_555 1_555
C10_5 H5_5 1_555 1_555
C15_6 H9_6 1_555 1_555
C16_6 C15_6 1_555 1_555
H10_6 C16_6 1_555 1_555
C17_5 C16_6 1_555 1_555
C18_5 C17_5 1_555 1_555
H11_5 C18_5 1_555 1_555
C19_5 C18_5 1_555 1_555
H12_5 C19_5 1_555 1_555
C20_5 C17_5 1_555 1_555
C21_5 C23_5 1_555 1_555
C22_5 C28_5 1_555 1_555
C23_5 C24_6 1_555 1_555
C24_6 H13_6 1_555 1_555
C25_6 C24_6 1_555 1_555
H14_6 C25_6 1_555 1_555
C26_5 H15_5 1_555 1_555
C27_5 C23_5 1_555 1_555
H16_5 C27_5 1_555 1_555
C28_5 C29_5 1_555 1_555
C29_5 H17_5 1_555 1_555
C30_5 C29_5 1_555 1_555
C31_5 H19_5 1_555 1_555
C32_5 C28_5 1_555 1_555
H20_5 C32_5 1_555 1_555
C34_5 C9_5 1_555 1_555
C35_6 C10_5 1_555 1_555
H23_6 C35_6 1_555 1_555
I5_6 Zn1_6 1_555 1_555
N5_3 C15_6 1_555 1_555
N6_5 C20_5 1_555 1_555
N7_5 C21_5 1_555 1_555
N8_5 C20_5 1_555 1_555
N9_6 C25_6 1_555 1_555
N12_6 C33_5 1_555 1_555
Zn1_6 N9_6 1_555 1_555
Zn4_3 N5_3 1_555 1_555
C19_5 N5_3 1_555 1_555
C21_5 N8_5 1_555 1_555
C22_5 N6_5 1_555 1_555
C22_5 N7_5 1_555 1_555
C26_5 C27_5 1_555 1_555
C26_5 N9_6 1_555 1_555
C31_5 C32_5 1_555 1_555
C33_5 C34_5 1_555 1_555
C35_6 N12_6 1_555 1_555
N12_6 Zn1_6 1_555 1_555
C1_5 H1_5 1_555 1_555
C2_5 C1_5 1_555 1_555
H2_5 C2_5 1_555 1_555
C3_5 C2_5 1_555 1_555
C4_5 C3_5 1_555 1_555
H3_5 C4_5 1_555 1_555
C6_5 C3_5 1_555 1_555
C8_5 C11_5 1_555 1_555
C11_5 C12_5 1_555 1_555
C12_5 H6_5 1_555 1_555
C13_5 C12_5 1_555 1_555
H7_5 C13_5 1_555 1_555
C14_5 C11_5 1_555 1_555
H8_5 C14_5 1_555 1_555
C36_5 C14_5 1_555 1_555
H24_5 C36_5 1_555 1_555
I3_5 Zn3_3 1_555 1_555
I4_5 Zn3_3 1_555 1_555
N2_5 C6_5 1_555 1_555
N3_5 C7_5 1_555 1_555
N4_5 C6_5 1_555 1_555
N11_5 C13_5 1_555 1_555
Zn3_3 N11_5 1_555 1_555
N14_3 Zn3_3 1_555 1_555
C7_5 N2_5 1_555 1_555
C8_5 N3_5 1_555 1_555
C8_5 N4_5 1_555 1_555
C36_5 N11_5 1_555 1_555
Zn5_3 N10_3 1_555 1_555
C1_6 H1_6 1_555 1_555
C2_6 C1_6 1_555 1_555
H2_6 C2_6 1_555 1_555
C3_6 C2_6 1_555 1_555
C4_6 C3_6 1_555 1_555
H3_6 C4_6 1_555 1_555
C5_6 C4_6 1_555 1_555
H4_6 C5_6 1_555 1_555
C6_6 C3_6 1_555 1_555
C7_6 C9_6 1_555 1_555
C8_6 C11_6 1_555 1_555
C9_6 C10_6 1_555 1_555
C10_6 H5_6 1_555 1_555
C11_6 C12_6 1_555 1_555
C12_6 H6_6 1_555 1_555
C13_6 C12_6 1_555 1_555
H7_6 C13_6 1_555 1_555
C14_6 C11_6 1_555 1_555
H8_6 C14_6 1_555 1_555
C18_6 C17_6 1_555 1_555
H11_6 C18_6 1_555 1_555
C19_6 C18_6 1_555 1_555
H12_6 C19_6 1_555 1_555
C20_6 C17_6 1_555 1_555
C21_6 C23_6 1_555 1_555
C22_6 C28_6 1_555 1_555
C26_6 H15_6 1_555 1_555
C27_6 C23_6 1_555 1_555
H16_6 C27_6 1_555 1_555
C28_6 C29_6 1_555 1_555
C29_6 H17_6 1_555 1_555
C30_6 C29_6 1_555 1_555
H18_6 C30_6 1_555 1_555
C31_6 H19_6 1_555 1_555
C32_6 C28_6 1_555 1_555
H20_6 C32_6 1_555 1_555
C33_6 H21_5 1_555 1_555
C34_6 C9_6 1_555 1_555
H22_5 C34_6 1_555 1_555
C36_6 C14_6 1_555 1_555
H24_6 C36_6 1_555 1_555
I1_6 Zn4_3 1_555 1_555
I2_6 Zn4_3 1_555 1_555
I3_6 Zn5_3 1_555 1_555
I4_6 Zn5_3 1_555 1_555
N1_6 C1_6 1_555 1_555
N2_6 C6_6 1_555 1_555
N3_6 C7_6 1_555 1_555
N4_6 C6_6 1_555 1_555
N6_6 C20_6 1_555 1_555
N7_6 C21_6 1_555 1_555
N8_6 C20_6 1_555 1_555
N14_3 C30_6 1_555 1_555
N11_6 C13_6 1_555 1_555
Zn4_3 N1_6 1_555 1_555
Zn5_3 N11_6 1_555 1_555
C5_6 N1_6 1_555 1_555
C7_6 N2_6 1_555 1_555
C8_6 N3_6 1_555 1_555
C8_6 N4_6 1_555 1_555
C21_6 N8_6 1_555 1_555
C22_6 N6_6 1_555 1_555
C22_6 N7_6 1_555 1_555
C26_6 C27_6 1_555 1_555
C31_6 C32_6 1_555 1_555
C31_6 N14_3 1_555 1_555
C33_6 C34_6 1_555 1_555
C36_6 N11_6 1_555 1_555
C1_7 H1_7 1_555 1_555
C2_7 C1_7 1_555 1_555
H2_7 C2_7 1_555 1_555
H4_7 C5_7 1_555 1_555
I1_7 Zn2_4 1_555 1_555
I2_7 Zn2_4 1_555 1_555
N1_7 C1_7 1_555 1_555
Zn2_4 N1_7 1_555 1_555
N13_4 Zn2_4 1_555 1_555
C5_7 N1_7 1_555 1_555
C9_7 C10_7 1_555 1_555
C10_7 H5_7 1_555 1_555
C15_7 H9_7 1_555 1_555
C16_7 C15_7 1_555 1_555
H10_7 C16_7 1_555 1_555
C17_7 C16_7 1_555 1_555
C18_7 C17_7 1_555 1_555
H11_7 C18_7 1_555 1_555
C19_7 C18_7 1_555 1_555
H12_7 C19_7 1_555 1_555
C20_7 C17_7 1_555 1_555
C21_7 C23_7 1_555 1_555
C22_7 C28_7 1_555 1_555
C23_7 C24_7 1_555 1_555
C24_7 H13_7 1_555 1_555
C25_7 C24_7 1_555 1_555
H14_7 C25_7 1_555 1_555
C26_7 H15_7 1_555 1_555
C27_7 C23_7 1_555 1_555
H16_7 C27_7 1_555 1_555
C28_7 C29_7 1_555 1_555
C29_7 H17_7 1_555 1_555
C30_7 C29_7 1_555 1_555
C31_7 H19_7 1_555 1_555
C32_7 C28_7 1_555 1_555
H20_7 C32_7 1_555 1_555
C33_7 H21_7 1_555 1_555
C34_7 C9_7 1_555 1_555
H22_7 C34_7 1_555 1_555
C35_7 C10_7 1_555 1_555
H23_7 C35_7 1_555 1_555
I5_7 Zn1_7 1_555 1_555
I6_5 Zn1_7 1_555 1_555
N13_4 C15_7 1_555 1_555
N6_7 C20_7 1_555 1_555
N7_7 C21_7 1_555 1_555
N8_7 C20_7 1_555 1_555
N9_7 C25_7 1_555 1_555
N12_7 C33_7 1_555 1_555
Zn1_7 N9_7 1_555 1_555
C19_7 N13_4 1_555 1_555
C21_7 N8_7 1_555 1_555
C22_7 N6_7 1_555 1_555
C22_7 N7_7 1_555 1_555
C26_7 C27_7 1_555 1_555
C26_7 N9_7 1_555 1_555
C31_7 C32_7 1_555 1_555
C33_7 C34_7 1_555 1_555
C35_7 N12_7 1_555 1_555
N12_7 Zn1_7 1_555 1_555
C15_8 H9_8 1_555 1_555
C16_8 C15_8 1_555 1_555
H10_8 C16_8 1_555 1_555
C24_8 H13_8 1_555 1_555
C25_8 C24_8 1_555 1_555
H14_8 C25_8 1_555 1_555
H23_8 C35_8 1_555 1_555
I5_8 Zn1_8 1_555 1_555
N5_4 C15_8 1_555 1_555
N9_8 C25_8 1_555 1_555
Zn1_8 N9_8 1_555 1_555
Zn4_4 N5_4 1_555 1_555
C35_8 N12_8 1_555 1_555
N12_8 Zn1_8 1_555 1_555
H4_8 C5_8 1_555 1_555
I1_8 Zn4_4 1_555 1_555
I2_8 Zn4_4 1_555 1_555
Zn4_4 N1_8 1_555 1_555
C5_8 N1_8 1_555 1_555
Zn5_4 N10_4 1_555 1_555
C4_7 C3_7 1_555 1_555
H3_7 C4_7 1_555 1_555
C6_7 C3_7 1_555 1_555
C8_7 C11_7 1_555 1_555
C11_7 C12_7 1_555 1_555
C12_7 H6_7 1_555 1_555
C13_7 C12_7 1_555 1_555
H7_7 C13_7 1_555 1_555
C14_7 C11_7 1_555 1_555
H8_7 C14_7 1_555 1_555
C36_7 C14_7 1_555 1_555
H24_7 C36_7 1_555 1_555
I3_7 Zn3_4 1_555 1_555
I4_7 Zn3_4 1_555 1_555
N2_7 C6_7 1_555 1_555
N3_7 C7_7 1_555 1_555
N4_7 C6_7 1_555 1_555
N11_7 C13_7 1_555 1_555
Zn3_4 N11_7 1_555 1_555
N14_4 Zn3_4 1_555 1_555
C7_7 N2_7 1_555 1_555
C8_7 N3_7 1_555 1_555
C8_7 N4_7 1_555 1_555
C36_7 N11_7 1_555 1_555
C4_8 C3_8 1_555 1_555
H3_8 C4_8 1_555 1_555
C6_8 C3_8 1_555 1_555
C7_8 C9_8 1_555 1_555
C8_8 C11_8 1_555 1_555
C9_8 C10_8 1_555 1_555
C10_8 H5_8 1_555 1_555
C11_8 C12_8 1_555 1_555
C12_8 H6_8 1_555 1_555
C13_8 C12_8 1_555 1_555
H7_8 C13_8 1_555 1_555
C14_8 C11_8 1_555 1_555
H8_8 C14_8 1_555 1_555
C18_8 C17_8 1_555 1_555
H11_8 C18_8 1_555 1_555
C19_8 C18_8 1_555 1_555
H12_8 C19_8 1_555 1_555
C20_8 C17_8 1_555 1_555
C21_8 C23_8 1_555 1_555
C22_8 C28_8 1_555 1_555
C26_8 H15_8 1_555 1_555
C27_8 C23_8 1_555 1_555
H16_8 C27_8 1_555 1_555
C28_8 C29_8 1_555 1_555
C29_8 H17_8 1_555 1_555
C30_8 C29_8 1_555 1_555
H18_8 C30_8 1_555 1_555
C31_8 H19_8 1_555 1_555
C32_8 C28_8 1_555 1_555
H20_8 C32_8 1_555 1_555
C34_8 C9_8 1_555 1_555
C36_8 C14_8 1_555 1_555
H24_8 C36_8 1_555 1_555
I3_8 Zn5_4 1_555 1_555
I4_8 Zn5_4 1_555 1_555
N2_8 C6_8 1_555 1_555
N3_8 C7_8 1_555 1_555
N4_8 C6_8 1_555 1_555
N6_8 C20_8 1_555 1_555
N7_8 C21_8 1_555 1_555
N8_8 C20_8 1_555 1_555
N14_4 C30_8 1_555 1_555
N11_8 C13_8 1_555 1_555
Zn5_4 N11_8 1_555 1_555
C7_8 N2_8 1_555 1_555
C8_8 N3_8 1_555 1_555
C8_8 N4_8 1_555 1_555
C21_8 N8_8 1_555 1_555
C22_8 N6_8 1_555 1_555
C22_8 N7_8 1_555 1_555
C26_8 C27_8 1_555 1_555
C31_8 C32_8 1_555 1_555
C31_8 N14_4 1_555 1_555
C33_8 C34_8 1_555 1_555
C36_8 N11_8 1_555 1_555
C1_8 H1_8 1_555 1_555
C2_8 C1_8 1_555 1_555
H2_8 C2_8 1_555 1_555

#END
