
###############################################################################
#
# This file contains modified crystal structure data generated from the
# MOF subset of the Cambridge Structural Database (CSD) v543 
# hosted by the Cambridge Crystallographic Data Centre (CCDC).
#
# This work is licensed under the Creative Commons
# Attribution-NonCommercial-ShareAlike 4.0 International License.
# To view a copy of this license, visit
# http://creativecommons.org/licenses/by-nc-sa/4.0/
# or send a letter to
# Creative Commons, PO Box 1866, Mountain View, CA 94042, USA.
#
# CIF created using the CSD Python API on 29 September 2022
# The structure has been converted into the P1 space group
# The structure has a 3D framework
# The original CSD entry FARFIO is in the monoclinic crystal system
# The framework has been calculated to contain at least 10.0% void space
# The void calculation uses a probe of radius 1.32A, grid spacing 0.4
#
###############################################################################

data_FARFIO
_chemical_formula_moiety         '(C288 H192 I48 N96 Zn24)n'
_symmetry_cell_setting           triclinic
_symmetry_space_group_name_H-M   'P 1'
_symmetry_Int_Tables_number      1
_space_group_name_Hall           'P 1'
loop_
_symmetry_equiv_pos_site_id
_symmetry_equiv_pos_as_xyz
1 x,y,z
_cell_length_a                   35.3779(19)
_cell_length_b                   14.9202(8)
_cell_length_c                   31.2333(17)
_cell_angle_alpha                90
_cell_angle_beta                 103.5340(10)
_cell_angle_gamma                90
_cell_volume                     16028.5
loop_
_atom_site_label
_atom_site_type_symbol
_atom_site_fract_x
_atom_site_fract_y
_atom_site_fract_z
C37 C 0.0889(2) 0.0005(5) 0.5200(3)
H25 H 0.1095 0.0413 0.5197
I7 I 0.02464(2) 0.15068(5) 0.627686(19)
I8 I 0.11966(3) 0.22980(3) 0.56068(2)
N13 N 0.06581(18) 0.0173(4) 0.54696(18)
N15 N 0.12096(18) 0.0483(3) 0.64150(18)
Zn4 Zn 0.08106(3) 0.11829(5) 0.59358(3)
C45 C 0.1760(2) 0.0440(4) 0.7019(2)
H31 H 0.1973 0.0747 0.7201
C46 C 0.1514(2) 0.0875(4) 0.6677(2)
H32 H 0.1565 0.1486 0.6626
C53 C 0.31498(18) 0.0738(4) 0.8580(2)
H35 H 0.3190 0.1361 0.8547
C54 C 0.28613(18) 0.0312(4) 0.8275(2)
H36 H 0.2707 0.0635 0.8035
N20 N 0.33749(15) 0.0309(3) 0.89215(17)
Zn9 Zn 0.37580(2) 0.09831(5) 0.94197(3)
C1 C 0.0889(2) 0.9995(5) 0.0200(3)
H1 H 0.1095 0.9587 0.0197
C9 C 0.1760(2) 0.9560(4) 0.2019(2)
H7 H 0.1973 0.9253 0.2201
C10 C 0.1514(2) 0.9125(4) 0.1677(2)
H8 H 0.1565 0.8514 0.1626
C17 C 0.31498(18) 0.9262(4) 0.3580(2)
H11 H 0.3190 0.8639 0.3547
C18 C 0.28613(18) 0.9688(4) 0.3275(2)
H12 H 0.2707 0.9365 0.3035
I1 I 0.02464(2) 0.84932(5) 0.127686(19)
I2 I 0.11966(3) 0.77020(3) 0.06068(2)
I5 I 0.387427(19) 0.75039(3) 0.40992(2)
I6 I 0.350670(17) 0.92546(4) 0.511017(18)
N1 N 0.06581(18) 0.9827(4) 0.04696(18)
N2 N 0.12096(18) 0.9517(3) 0.14150(18)
N7 N 0.33749(15) 0.9691(3) 0.39215(17)
Zn1 Zn 0.08106(3) 0.88171(5) 0.09358(3)
Zn3 Zn 0.37580(2) 0.90169(5) 0.44197(3)
N27 N 0.42600(16) 0.9759(4) 0.44859(18)
C68 C 0.98770(19) 0.5909(4) 0.4467(2)
C69 C 0.9644(2) 0.6033(5) 0.4756(2)
H45 H 0.9691 0.6521 0.4957
C70 C 0.9812(2) 0.5134(6) 0.4213(3)
H46 H 0.9979 0.4985 0.4026
C71 C 0.9342(2) 0.5453(5) 0.4755(2)
H47 H 0.9185 0.5556 0.4958
C72 C 0.9505(3) 0.4583(6) 0.4233(3)
H48 H 0.9466 0.4054 0.4058
I12 I 0.850670(17) 0.57454(4) 0.011017(18)
N26 N 0.92600(16) 0.4759(4) 0.44859(18)
Zn8 Zn 0.87580(2) 0.40169(5) 0.44197(3)
C32 C 0.98770(19) 0.4091(4) 0.9467(2)
C33 C 0.9644(2) 0.3967(5) 0.9756(2)
H21 H 0.9691 0.3479 0.9957
C34 C 0.9812(2) 0.4866(6) 0.9213(3)
H22 H 0.9979 0.5015 0.9026
C35 C 0.9342(2) 0.4547(5) 0.9755(2)
H23 H 0.9185 0.4444 0.9958
C36 C 0.9505(3) 0.5417(6) 0.9233(3)
H24 H 0.9466 0.5946 0.9058
N12 N 0.92600(16) 0.5241(4) 0.94859(18)
I11 I 0.887427(19) 0.74961(3) 0.90992(2)
N21 N 0.83749(15) 0.5309(3) 0.89215(17)
Zn7 Zn 0.87580(2) 0.59831(5) 0.94197(3)
H15 H 0.7385 0.0137 0.3271
I3 I 0.63088(2) 0.17752(4) 0.20524(2)
I4 I 0.73759(2) 0.23537(3) 0.30801(2)
N6 N 0.68916(17) 0.0098(3) 0.28233(19)
Zn2 Zn 0.67572(3) 0.14553(5) 0.28014(3)
C37_2 C 0.5889(2) 0.5005(5) 0.5200(3)
H25_2 H 0.6095 0.5413 0.5197
C38 C 0.5846(2) 0.4269(4) 0.4921(3)
H26 H 0.6016 0.4179 0.4730
C39 C 0.55500(19) 0.3669(4) 0.4930(2)
C40 C 0.52999(19) 0.3857(4) 0.5199(2)
H27 H 0.5088 0.3469 0.5203
C41 C 0.5361(2) 0.4612(5) 0.5460(2)
H28 H 0.5186 0.4739 0.5641
C60 C 0.6527(2) 0.2091(4) 0.3617(2)
H41 H 0.6778 0.2354 0.3677
C61 C 0.6291(2) 0.2249(4) 0.3903(2)
H42 H 0.6377 0.2631 0.4151
C62 C 0.59307(19) 0.1847(4) 0.3828(2)
C63 C 0.5816(2) 0.1305(5) 0.3457(2)
H43 H 0.5571 0.1010 0.3396
C64 C 0.6064(2) 0.1206(5) 0.3179(3)
H44 H 0.5980 0.0855 0.2920
C65 C 0.56784(19) 0.1994(4) 0.4137(2)
C66 C 0.55069(18) 0.2833(4) 0.46605(19)
C67 C 0.51950(18) 0.1541(4) 0.4445(2)
C68_2 C 0.48770(19) 0.0909(4) 0.4467(2)
C69_2 C 0.4644(2) 0.1033(5) 0.4756(2)
H45_2 H 0.4691 0.1521 0.4957
C70_2 C 0.4812(2) 0.0134(6) 0.4213(3)
C71_2 C 0.4342(2) 0.0453(5) 0.4755(2)
H47_2 H 0.4185 0.0556 0.4958
I7_2 I 0.52464(2) 0.65068(5) 0.627686(19)
I8_2 I 0.61966(3) 0.72980(3) 0.56068(2)
I12_2 I 0.350670(17) 0.07454(4) 0.011017(18)
N13_2 N 0.56581(18) 0.5173(4) 0.54696(18)
N15_2 N 0.62096(18) 0.5483(3) 0.64150(18)
N22 N 0.64152(19) 0.1582(4) 0.3258(2)
N23 N 0.57416(15) 0.2736(3) 0.43858(17)
N24 N 0.52381(15) 0.2245(3) 0.47157(16)
N25 N 0.54013(15) 0.1387(3) 0.41436(17)
Zn4_2 Zn 0.58106(3) 0.61829(5) 0.59358(3)
H22_2 H 0.4979 0.0015 0.9026
C36_2 C 0.4505(3) 0.0417(6) 0.9233(3)
H24_2 H 0.4466 0.0946 0.9058
N12_2 N 0.42600(16) 0.0241(4) 0.94859(18)
C42 C 0.6139(3) 0.4621(4) 0.6492(3)
H29 H 0.5919 0.4335 0.6310
C43 C 0.6375(2) 0.4138(4) 0.6823(2)
H30 H 0.6319 0.3527 0.6866
C44 C 0.66921(19) 0.4545(4) 0.7094(2)
C45_2 C 0.6760(2) 0.5440(4) 0.7019(2)
H31_2 H 0.6973 0.5747 0.7201
C46_2 C 0.6514(2) 0.5875(4) 0.6677(2)
H32_2 H 0.6565 0.6486 0.6626
C47 C 0.69516(18) 0.4021(4) 0.74510(19)
C48 C 0.71112(18) 0.2714(4) 0.7801(2)
C49 C 0.74781(18) 0.3939(4) 0.8015(2)
C50 C 0.78000(18) 0.4398(4) 0.8324(2)
C51 C 0.8041(2) 0.3948(4) 0.8674(2)
H33 H 0.8014 0.3322 0.8713
C52 C 0.8320(2) 0.4430(4) 0.8964(2)
H34 H 0.8481 0.4124 0.9206
C53_2 C 0.81498(18) 0.5738(4) 0.8580(2)
H35_2 H 0.8190 0.6361 0.8547
C54_2 C 0.78613(18) 0.5312(4) 0.8275(2)
H36_2 H 0.7707 0.5635 0.8035
C55 C 0.70361(19) 0.1734(4) 0.7819(2)
C56 C 0.6710(2) 0.1368(4) 0.7548(2)
H37 H 0.6529 0.1740 0.7354
C57 C 0.6648(2) 0.0455(4) 0.7560(2)
H38 H 0.6420 0.0211 0.7373
C58 C 0.7208(2) 0.0253(4) 0.8084(2)
C59 C 0.7290(2) 0.1158(4) 0.8097(2)
H40 H 0.7517 0.1385 0.8293
I11_2 I 0.387427(19) 0.24961(3) 0.90992(2)
N16 N 0.68562(15) 0.3169(3) 0.74955(17)
N17 N 0.74234(15) 0.3057(3) 0.80768(16)
N18 N 0.72578(15) 0.4442(3) 0.76975(16)
C1_2 C 0.5889(2) 0.4995(5) 0.0200(3)
H1_2 H 0.6095 0.4587 0.0197
C4 C 0.52999(19) 0.6143(4) 0.0199(2)
H3 H 0.5088 0.6531 0.0203
C5 C 0.5361(2) 0.5388(5) 0.0460(2)
H4 H 0.5186 0.5261 0.0641
C6 C 0.6139(3) 0.5379(4) 0.1492(3)
H5 H 0.5919 0.5665 0.1310
C7 C 0.6375(2) 0.5862(4) 0.1823(2)
H6 H 0.6319 0.6473 0.1866
C8 C 0.66921(19) 0.5455(4) 0.2094(2)
C9_2 C 0.6760(2) 0.4560(4) 0.2019(2)
H7_2 H 0.6973 0.4253 0.2201
C10_2 C 0.6514(2) 0.4125(4) 0.1677(2)
H8_2 H 0.6565 0.3514 0.1626
C11 C 0.69516(18) 0.5979(4) 0.24510(19)
C12 C 0.71112(18) 0.7286(4) 0.2801(2)
C13 C 0.74781(18) 0.6061(4) 0.3015(2)
C14 C 0.78000(18) 0.5602(4) 0.3324(2)
C15 C 0.8041(2) 0.6052(4) 0.3674(2)
H9 H 0.8014 0.6678 0.3713
C16 C 0.8320(2) 0.5570(4) 0.3964(2)
H10 H 0.8481 0.5876 0.4206
C17_2 C 0.81498(18) 0.4262(4) 0.3580(2)
H11_2 H 0.8190 0.3639 0.3547
C18_2 C 0.78613(18) 0.4688(4) 0.3275(2)
H12_2 H 0.7707 0.4365 0.3035
C19 C 0.70361(19) 0.8266(4) 0.2819(2)
C20 C 0.6710(2) 0.8632(4) 0.2548(2)
H13 H 0.6529 0.8260 0.2354
C21 C 0.6648(2) 0.9545(4) 0.2560(2)
H14 H 0.6420 0.9789 0.2373
C22 C 0.7208(2) 0.9747(4) 0.3084(2)
C23 C 0.7290(2) 0.8842(4) 0.3097(2)
H16 H 0.7517 0.8615 0.3293
I1_2 I 0.52464(2) 0.34932(5) 0.127686(19)
I2_2 I 0.61966(3) 0.27020(3) 0.06068(2)
I5_2 I 0.887427(19) 0.25039(3) 0.40992(2)
I6_2 I 0.850670(17) 0.42546(4) 0.511017(18)
N1_2 N 0.56581(18) 0.4827(4) 0.04696(18)
N2_2 N 0.62096(18) 0.4517(3) 0.14150(18)
N3 N 0.68562(15) 0.6831(3) 0.24955(17)
N4 N 0.74234(15) 0.6943(3) 0.30768(16)
N5 N 0.72578(15) 0.5558(3) 0.26975(16)
N7_2 N 0.83749(15) 0.4691(3) 0.39215(17)
Zn1_2 Zn 0.58106(3) 0.38171(5) 0.09358(3)
H46_2 H 0.4979 0.9985 0.4026
C72_2 C 0.4505(3) 0.9583(6) 0.4233(3)
H48_2 H 0.4466 0.9054 0.4058
C2 C 0.5846(2) 0.5731(4) 0.9921(3)
H2 H 0.6016 0.5821 0.9730
C3 C 0.55500(19) 0.6331(4) 0.9930(2)
C24 C 0.6527(2) 0.7909(4) 0.8617(2)
H17 H 0.6778 0.7646 0.8677
C25 C 0.6291(2) 0.7751(4) 0.8903(2)
H18 H 0.6377 0.7369 0.9151
C26 C 0.59307(19) 0.8153(4) 0.8828(2)
C27 C 0.5816(2) 0.8695(5) 0.8457(2)
H19 H 0.5571 0.8990 0.8396
C28 C 0.6064(2) 0.8794(5) 0.8179(3)
H20 H 0.5980 0.9145 0.7920
C29 C 0.56784(19) 0.8006(4) 0.9137(2)
C30 C 0.55069(18) 0.7167(4) 0.96605(19)
C31 C 0.51950(18) 0.8459(4) 0.9445(2)
C32_2 C 0.48770(19) 0.9091(4) 0.9467(2)
C33_2 C 0.4644(2) 0.8967(5) 0.9756(2)
H21_2 H 0.4691 0.8479 0.9957
C34_2 C 0.4812(2) 0.9866(6) 0.9213(3)
C35_2 C 0.4342(2) 0.9547(5) 0.9755(2)
H23_2 H 0.4185 0.9444 0.9958
N8 N 0.64152(19) 0.8418(4) 0.8258(2)
N9 N 0.57416(15) 0.7264(3) 0.93858(17)
N10 N 0.52381(15) 0.7755(3) 0.97157(16)
N11 N 0.54013(15) 0.8613(3) 0.91436(17)
H39 H 0.7385 0.9863 0.8271
I9 I 0.63088(2) 0.82248(4) 0.70524(2)
I10 I 0.73759(2) 0.76463(3) 0.80801(2)
N19 N 0.68916(17) 0.9902(3) 0.78233(19)
Zn6 Zn 0.67572(3) 0.85447(5) 0.78014(3)
C4_2 C 0.02999(19) 0.1143(4) 0.0199(2)
H3_2 H 0.0088 0.1531 0.0203
C5_2 C 0.0361(2) 0.0388(5) 0.0460(2)
H4_2 H 0.0186 0.0261 0.0641
C6_2 C 0.1139(3) 0.0379(4) 0.1492(3)
H5_2 H 0.0919 0.0665 0.1310
C7_2 C 0.1375(2) 0.0862(4) 0.1823(2)
H6_2 H 0.1319 0.1473 0.1866
C8_2 C 0.16921(19) 0.0455(4) 0.2094(2)
C11_2 C 0.19516(18) 0.0979(4) 0.24510(19)
C12_2 C 0.21112(18) 0.2286(4) 0.2801(2)
C13_2 C 0.24781(18) 0.1061(4) 0.3015(2)
C14_2 C 0.28000(18) 0.0602(4) 0.3324(2)
C15_2 C 0.3041(2) 0.1052(4) 0.3674(2)
H9_2 H 0.3014 0.1678 0.3713
C16_2 C 0.3320(2) 0.0570(4) 0.3964(2)
H10_2 H 0.3481 0.0876 0.4206
C19_2 C 0.20361(19) 0.3266(4) 0.2819(2)
C20_2 C 0.1710(2) 0.3632(4) 0.2548(2)
H13_2 H 0.1529 0.3260 0.2354
C21_2 C 0.1648(2) 0.4545(4) 0.2560(2)
H14_2 H 0.1420 0.4789 0.2373
C22_2 C 0.2208(2) 0.4747(4) 0.3084(2)
H15_2 H 0.2385 0.5137 0.3271
C23_2 C 0.2290(2) 0.3842(4) 0.3097(2)
H16_2 H 0.2517 0.3615 0.3293
I3_2 I 0.13088(2) 0.67752(4) 0.20524(2)
I4_2 I 0.23759(2) 0.73537(3) 0.30801(2)
N3_2 N 0.18562(15) 0.1831(3) 0.24955(17)
N4_2 N 0.24234(15) 0.1943(3) 0.30768(16)
N5_2 N 0.22578(15) 0.0558(3) 0.26975(16)
N6_2 N 0.18916(17) 0.5098(3) 0.28233(19)
Zn2_2 Zn 0.17572(3) 0.64553(5) 0.28014(3)
C38_2 C 0.0846(2) 0.9269(4) 0.4921(3)
H26_2 H 0.1016 0.9179 0.4730
C39_2 C 0.05500(19) 0.8669(4) 0.4930(2)
C40_2 C 0.02999(19) 0.8857(4) 0.5199(2)
H27_2 H 0.0088 0.8469 0.5203
C41_2 C 0.0361(2) 0.9612(5) 0.5460(2)
H28_2 H 0.0186 0.9739 0.5641
C60_2 C 0.1527(2) 0.7091(4) 0.3617(2)
H41_2 H 0.1778 0.7354 0.3677
C61_2 C 0.1291(2) 0.7249(4) 0.3903(2)
H42_2 H 0.1377 0.7631 0.4151
C62_2 C 0.09307(19) 0.6847(4) 0.3828(2)
C63_2 C 0.0816(2) 0.6305(5) 0.3457(2)
H43_2 H 0.0571 0.6010 0.3396
C64_2 C 0.1064(2) 0.6206(5) 0.3179(3)
H44_2 H 0.0980 0.5855 0.2920
C65_2 C 0.06784(19) 0.6994(4) 0.4137(2)
C66_2 C 0.05069(18) 0.7833(4) 0.46605(19)
C67_2 C 0.01950(18) 0.6541(4) 0.4445(2)
N22_2 N 0.14152(19) 0.6582(4) 0.3258(2)
N23_2 N 0.07416(15) 0.7736(3) 0.43858(17)
N24_2 N 0.02381(15) 0.7245(3) 0.47157(16)
N25_2 N 0.04013(15) 0.6387(3) 0.41436(17)
C2_2 C 0.0846(2) 0.0731(4) 0.9921(3)
H2_2 H 0.1016 0.0821 0.9730
C3_2 C 0.05500(19) 0.1331(4) 0.9930(2)
C24_2 C 0.1527(2) 0.2909(4) 0.8617(2)
H17_2 H 0.1778 0.2646 0.8677
C25_2 C 0.1291(2) 0.2751(4) 0.8903(2)
H18_2 H 0.1377 0.2369 0.9151
C26_2 C 0.09307(19) 0.3153(4) 0.8828(2)
C27_2 C 0.0816(2) 0.3695(5) 0.8457(2)
H19_2 H 0.0571 0.3990 0.8396
C28_2 C 0.1064(2) 0.3794(5) 0.8179(3)
H20_2 H 0.0980 0.4145 0.7920
C29_2 C 0.06784(19) 0.3006(4) 0.9137(2)
C30_2 C 0.05069(18) 0.2167(4) 0.96605(19)
C31_2 C 0.01950(18) 0.3459(4) 0.9445(2)
N8_2 N 0.14152(19) 0.3418(4) 0.8258(2)
N9_2 N 0.07416(15) 0.2264(3) 0.93858(17)
N10_2 N 0.02381(15) 0.2755(3) 0.97157(16)
N11_2 N 0.04013(15) 0.3613(3) 0.91436(17)
C42_2 C 0.1139(3) 0.9621(4) 0.6492(3)
H29_2 H 0.0919 0.9335 0.6310
C43_2 C 0.1375(2) 0.9138(4) 0.6823(2)
H30_2 H 0.1319 0.8527 0.6866
C44_2 C 0.16921(19) 0.9545(4) 0.7094(2)
C47_2 C 0.19516(18) 0.9021(4) 0.74510(19)
C48_2 C 0.21112(18) 0.7714(4) 0.7801(2)
C49_2 C 0.24781(18) 0.8939(4) 0.8015(2)
C50_2 C 0.28000(18) 0.9398(4) 0.8324(2)
C51_2 C 0.3041(2) 0.8948(4) 0.8674(2)
H33_2 H 0.3014 0.8322 0.8713
C52_2 C 0.3320(2) 0.9430(4) 0.8964(2)
H34_2 H 0.3481 0.9124 0.9206
C55_2 C 0.20361(19) 0.6734(4) 0.7819(2)
C56_2 C 0.1710(2) 0.6368(4) 0.7548(2)
H37_2 H 0.1529 0.6740 0.7354
C57_2 C 0.1648(2) 0.5455(4) 0.7560(2)
H38_2 H 0.1420 0.5211 0.7373
C58_2 C 0.2208(2) 0.5253(4) 0.8084(2)
H39_2 H 0.2385 0.4863 0.8271
C59_2 C 0.2290(2) 0.6158(4) 0.8097(2)
H40_2 H 0.2517 0.6385 0.8293
I9_2 I 0.13088(2) 0.32248(4) 0.70524(2)
I10_2 I 0.23759(2) 0.26463(3) 0.80801(2)
N16_2 N 0.18562(15) 0.8169(3) 0.74955(17)
N17_2 N 0.24234(15) 0.8057(3) 0.80768(16)
N18_2 N 0.22578(15) 0.9442(3) 0.76975(16)
N19_2 N 0.18916(17) 0.4902(3) 0.78233(19)
Zn6_2 Zn 0.17572(3) 0.35447(5) 0.78014(3)
C32_3 C 0.01230(19) 0.4091(4) 0.5533(2)
C33_3 C 0.0356(2) 0.3967(5) 0.5244(2)
H21_3 H 0.0309 0.3479 0.5043
C34_3 C 0.0188(2) 0.4866(6) 0.5787(3)
H22_3 H 0.0021 0.5015 0.5974
C35_3 C 0.0658(2) 0.4547(5) 0.5245(2)
H23_3 H 0.0815 0.4444 0.5042
C36_3 C 0.0495(3) 0.5417(6) 0.5767(3)
H24_3 H 0.0534 0.5946 0.5942
N12_3 N 0.07400(16) 0.5241(4) 0.55141(18)
C68_3 C 0.01230(19) 0.5909(4) 0.0533(2)
C69_3 C 0.0356(2) 0.6033(5) 0.0244(2)
H45_3 H 0.0309 0.6521 0.0043
C70_3 C 0.0188(2) 0.5134(6) 0.0787(3)
H46_3 H 0.0021 0.4985 0.0974
C71_3 C 0.0658(2) 0.5453(5) 0.0245(2)
H47_3 H 0.0815 0.5556 0.0042
C72_3 C 0.0495(3) 0.4583(6) 0.0767(3)
H48_3 H 0.0534 0.4054 0.0942
I11_3 I 0.112573(19) 0.74961(3) 0.59008(2)
I12_3 I 0.149330(17) 0.57454(4) 0.488983(18)
N21_2 N 0.16251(15) 0.5309(3) 0.60785(17)
N26_2 N 0.07400(16) 0.4759(4) 0.05141(18)
Zn7_2 Zn 0.12420(2) 0.59831(5) 0.55803(3)
Zn8_2 Zn 0.12420(2) 0.40169(5) 0.05803(3)
C45_3 C 0.8240(2) 0.0440(4) 0.7981(2)
H31_3 H 0.8027 0.0747 0.7799
C46_3 C 0.8486(2) 0.0875(4) 0.8323(2)
H32_3 H 0.8435 0.1486 0.8374
C53_3 C 0.68502(18) 0.0738(4) 0.6420(2)
H35_3 H 0.6810 0.1361 0.6453
C54_3 C 0.71387(18) 0.0312(4) 0.6725(2)
H36_3 H 0.7293 0.0635 0.6965
N14 N 0.87904(18) 0.0483(3) 0.85850(18)
N20_2 N 0.66251(15) 0.0309(3) 0.60785(17)
Zn5 Zn 0.91894(3) 0.11829(5) 0.90642(3)
Zn9_2 Zn 0.62420(2) 0.09831(5) 0.55803(3)
C37_3 C 0.9111(2) 0.0005(5) 0.9800(3)
H25_3 H 0.8905 0.0413 0.9803
I7_3 I 0.97536(2) 0.15068(5) 0.872314(19)
I8_3 I 0.88034(3) 0.22980(3) 0.93932(2)
N13_3 N 0.93419(18) 0.0173(4) 0.95304(18)
C1_3 C 0.9111(2) 0.9995(5) 0.4800(3)
H1_3 H 0.8905 0.9587 0.4803
C9_3 C 0.8240(2) 0.9560(4) 0.2981(2)
H7_3 H 0.8027 0.9253 0.2799
C10_3 C 0.8486(2) 0.9125(4) 0.3323(2)
H8_3 H 0.8435 0.8514 0.3374
C17_3 C 0.68502(18) 0.9262(4) 0.1420(2)
H11_3 H 0.6810 0.8639 0.1453
C18_3 C 0.71387(18) 0.9688(4) 0.1725(2)
H12_3 H 0.7293 0.9365 0.1965
I1_3 I 0.97536(2) 0.84932(5) 0.372314(19)
I2_3 I 0.88034(3) 0.77020(3) 0.43932(2)
I5_3 I 0.612573(19) 0.75039(3) 0.09008(2)
N1_3 N 0.93419(18) 0.9827(4) 0.45304(18)
N2_3 N 0.87904(18) 0.9517(3) 0.35850(18)
N7_3 N 0.66251(15) 0.9691(3) 0.10785(17)
Zn1_3 Zn 0.91894(3) 0.88171(5) 0.40642(3)
Zn3_2 Zn 0.62420(2) 0.90169(5) 0.05803(3)
N27_2 N 0.57400(16) 0.9759(4) 0.05141(18)
I6_3 I 0.649330(17) 0.92546(4) 0.988983(18)
H15_3 H 0.2615 0.0137 0.1729
H22_4 H 0.5021 0.0015 0.5974
C36_4 C 0.5495(3) 0.0417(6) 0.5767(3)
H24_4 H 0.5534 0.0946 0.5942
I3_3 I 0.36912(2) 0.17752(4) 0.29476(2)
I4_3 I 0.26241(2) 0.23537(3) 0.19199(2)
N6_3 N 0.31084(17) 0.0098(3) 0.21767(19)
N12_4 N 0.57400(16) 0.0241(4) 0.55141(18)
Zn2_3 Zn 0.32428(3) 0.14553(5) 0.21986(3)
C38_3 C 0.4154(2) 0.4269(4) 0.0079(3)
H26_3 H 0.3984 0.4179 0.0270
C39_3 C 0.44500(19) 0.3669(4) 0.0070(2)
C42_3 C 0.3861(3) 0.4621(4) 0.8508(3)
H29_3 H 0.4081 0.4335 0.8690
C43_3 C 0.3625(2) 0.4138(4) 0.8177(2)
H30_3 H 0.3681 0.3527 0.8134
C44_3 C 0.33079(19) 0.4545(4) 0.7906(2)
C45_4 C 0.3240(2) 0.5440(4) 0.7981(2)
H31_4 H 0.3027 0.5747 0.7799
C46_4 C 0.3486(2) 0.5875(4) 0.8323(2)
H32_4 H 0.3435 0.6486 0.8374
C47_3 C 0.30484(18) 0.4021(4) 0.75490(19)
C48_3 C 0.28888(18) 0.2714(4) 0.7199(2)
C49_3 C 0.25219(18) 0.3939(4) 0.6985(2)
C50_3 C 0.22000(18) 0.4398(4) 0.6676(2)
C51_3 C 0.1959(2) 0.3948(4) 0.6326(2)
H33_3 H 0.1986 0.3322 0.6287
C52_3 C 0.1680(2) 0.4430(4) 0.6036(2)
H34_3 H 0.1519 0.4124 0.5794
C53_4 C 0.18502(18) 0.5738(4) 0.6420(2)
H35_4 H 0.1810 0.6361 0.6453
C54_4 C 0.21387(18) 0.5312(4) 0.6725(2)
H36_4 H 0.2293 0.5635 0.6965
C55_3 C 0.29639(19) 0.1734(4) 0.7181(2)
C56_3 C 0.3290(2) 0.1368(4) 0.7452(2)
H37_3 H 0.3471 0.1740 0.7646
C57_3 C 0.3352(2) 0.0455(4) 0.7440(2)
H38_3 H 0.3580 0.0211 0.7627
C58_3 C 0.2792(2) 0.0253(4) 0.6916(2)
C59_3 C 0.2710(2) 0.1158(4) 0.6903(2)
H40_3 H 0.2483 0.1385 0.6707
C60_3 C 0.3473(2) 0.2091(4) 0.1383(2)
H41_3 H 0.3222 0.2354 0.1323
C61_3 C 0.3709(2) 0.2249(4) 0.1097(2)
H42_3 H 0.3623 0.2631 0.0849
C62_3 C 0.40693(19) 0.1847(4) 0.1172(2)
C63_3 C 0.4184(2) 0.1305(5) 0.1543(2)
H43_3 H 0.4429 0.1010 0.1604
C64_3 C 0.3936(2) 0.1206(5) 0.1821(3)
H44_3 H 0.4020 0.0855 0.2080
C65_3 C 0.43216(19) 0.1994(4) 0.0863(2)
C66_3 C 0.44931(18) 0.2833(4) 0.03395(19)
C67_3 C 0.48050(18) 0.1541(4) 0.0555(2)
C68_4 C 0.51230(19) 0.0909(4) 0.0533(2)
C69_4 C 0.5356(2) 0.1033(5) 0.0244(2)
H45_4 H 0.5309 0.1521 0.0043
C70_4 C 0.5188(2) 0.0134(6) 0.0787(3)
C71_4 C 0.5658(2) 0.0453(5) 0.0245(2)
H47_4 H 0.5815 0.0556 0.0042
I11_4 I 0.612573(19) 0.24961(3) 0.59008(2)
I12_4 I 0.649330(17) 0.07454(4) 0.488983(18)
N14_2 N 0.37904(18) 0.5483(3) 0.85850(18)
N16_3 N 0.31438(15) 0.3169(3) 0.75045(17)
N17_3 N 0.25766(15) 0.3057(3) 0.69232(16)
N18_3 N 0.27422(15) 0.4442(3) 0.73025(16)
N22_3 N 0.35848(19) 0.1582(4) 0.1742(2)
N23_3 N 0.42584(15) 0.2736(3) 0.06142(17)
N24_3 N 0.47619(15) 0.2245(3) 0.02843(16)
N25_3 N 0.45987(15) 0.1387(3) 0.08564(17)
Zn5_2 Zn 0.41894(3) 0.61829(5) 0.90642(3)
C37_4 C 0.4111(2) 0.5005(5) 0.9800(3)
H25_4 H 0.3905 0.5413 0.9803
C40_3 C 0.47001(19) 0.3857(4) 0.9801(2)
H27_3 H 0.4912 0.3469 0.9797
C41_3 C 0.4639(2) 0.4612(5) 0.9540(2)
H28_3 H 0.4814 0.4739 0.9359
I7_4 I 0.47536(2) 0.65068(5) 0.872314(19)
I8_4 I 0.38034(3) 0.72980(3) 0.93932(2)
N13_4 N 0.43419(18) 0.5173(4) 0.95304(18)
C1_4 C 0.4111(2) 0.4995(5) 0.4800(3)
H1_4 H 0.3905 0.4587 0.4803
C2_3 C 0.4154(2) 0.5731(4) 0.5079(3)
H2_3 H 0.3984 0.5821 0.5270
C3_3 C 0.44500(19) 0.6331(4) 0.5070(2)
C4_3 C 0.47001(19) 0.6143(4) 0.4801(2)
H3_3 H 0.4912 0.6531 0.4797
C5_3 C 0.4639(2) 0.5388(5) 0.4540(2)
H4_3 H 0.4814 0.5261 0.4359
C6_3 C 0.3861(3) 0.5379(4) 0.3508(3)
H5_3 H 0.4081 0.5665 0.3690
C7_3 C 0.3625(2) 0.5862(4) 0.3177(2)
H6_3 H 0.3681 0.6473 0.3134
C8_3 C 0.33079(19) 0.5455(4) 0.2906(2)
C9_4 C 0.3240(2) 0.4560(4) 0.2981(2)
H7_4 H 0.3027 0.4253 0.2799
C10_4 C 0.3486(2) 0.4125(4) 0.3323(2)
H8_4 H 0.3435 0.3514 0.3374
C11_3 C 0.30484(18) 0.5979(4) 0.25490(19)
C12_3 C 0.28888(18) 0.7286(4) 0.2199(2)
C13_3 C 0.25219(18) 0.6061(4) 0.1985(2)
C14_3 C 0.22000(18) 0.5602(4) 0.1676(2)
C15_3 C 0.1959(2) 0.6052(4) 0.1326(2)
H9_3 H 0.1986 0.6678 0.1287
C16_3 C 0.1680(2) 0.5570(4) 0.1036(2)
H10_3 H 0.1519 0.5876 0.0794
C17_4 C 0.18502(18) 0.4262(4) 0.1420(2)
H11_4 H 0.1810 0.3639 0.1453
C18_4 C 0.21387(18) 0.4688(4) 0.1725(2)
H12_4 H 0.2293 0.4365 0.1965
C19_3 C 0.29639(19) 0.8266(4) 0.2181(2)
C20_3 C 0.3290(2) 0.8632(4) 0.2452(2)
H13_3 H 0.3471 0.8260 0.2646
C21_3 C 0.3352(2) 0.9545(4) 0.2440(2)
H14_3 H 0.3580 0.9789 0.2627
C22_3 C 0.2792(2) 0.9747(4) 0.1916(2)
C23_3 C 0.2710(2) 0.8842(4) 0.1903(2)
H16_3 H 0.2483 0.8615 0.1707
C24_3 C 0.3473(2) 0.7909(4) 0.6383(2)
H17_3 H 0.3222 0.7646 0.6323
C25_3 C 0.3709(2) 0.7751(4) 0.6097(2)
H18_3 H 0.3623 0.7369 0.5849
C26_3 C 0.40693(19) 0.8153(4) 0.6172(2)
C27_3 C 0.4184(2) 0.8695(5) 0.6543(2)
H19_3 H 0.4429 0.8990 0.6604
C28_3 C 0.3936(2) 0.8794(5) 0.6821(3)
H20_3 H 0.4020 0.9145 0.7080
C29_3 C 0.43216(19) 0.8006(4) 0.5863(2)
C30_3 C 0.44931(18) 0.7167(4) 0.53395(19)
C31_3 C 0.48050(18) 0.8459(4) 0.5555(2)
C32_4 C 0.51230(19) 0.9091(4) 0.5533(2)
C33_4 C 0.5356(2) 0.8967(5) 0.5244(2)
H21_4 H 0.5309 0.8479 0.5043
C34_4 C 0.5188(2) 0.9866(6) 0.5787(3)
C35_4 C 0.5658(2) 0.9547(5) 0.5245(2)
H23_4 H 0.5815 0.9444 0.5042
I1_4 I 0.47536(2) 0.34932(5) 0.372314(19)
I2_4 I 0.38034(3) 0.27020(3) 0.43932(2)
I5_4 I 0.112573(19) 0.25039(3) 0.09008(2)
N1_4 N 0.43419(18) 0.4827(4) 0.45304(18)
N2_4 N 0.37904(18) 0.4517(3) 0.35850(18)
N3_3 N 0.31438(15) 0.6831(3) 0.25045(17)
N4_3 N 0.25766(15) 0.6943(3) 0.19232(16)
N5_3 N 0.27422(15) 0.5558(3) 0.23025(16)
N7_4 N 0.16251(15) 0.4691(3) 0.10785(17)
N8_3 N 0.35848(19) 0.8418(4) 0.6742(2)
N9_3 N 0.42584(15) 0.7264(3) 0.56142(17)
N10_3 N 0.47619(15) 0.7755(3) 0.52843(16)
N11_3 N 0.45987(15) 0.8613(3) 0.58564(17)
Zn1_4 Zn 0.41894(3) 0.38171(5) 0.40642(3)
H39_3 H 0.2615 0.9863 0.6729
H46_4 H 0.5021 0.9985 0.0974
C72_4 C 0.5495(3) 0.9583(6) 0.0767(3)
H48_4 H 0.5534 0.9054 0.0942
I9_3 I 0.36912(2) 0.82248(4) 0.79476(2)
I10_3 I 0.26241(2) 0.76463(3) 0.69199(2)
N19_3 N 0.31084(17) 0.9902(3) 0.71767(19)
Zn6_3 Zn 0.32428(3) 0.85447(5) 0.71986(3)
I6_4 I 0.149330(17) 0.42546(4) 0.988983(18)
C2_4 C 0.9154(2) 0.0731(4) 0.5079(3)
H2_4 H 0.8984 0.0821 0.5270
C3_4 C 0.94500(19) 0.1331(4) 0.5070(2)
C4_4 C 0.97001(19) 0.1143(4) 0.4801(2)
H3_4 H 0.9912 0.1531 0.4797
C5_4 C 0.9639(2) 0.0388(5) 0.4540(2)
H4_4 H 0.9814 0.0261 0.4359
C6_4 C 0.8861(3) 0.0379(4) 0.3508(3)
H5_4 H 0.9081 0.0665 0.3690
C7_4 C 0.8625(2) 0.0862(4) 0.3177(2)
H6_4 H 0.8681 0.1473 0.3134
C8_4 C 0.83079(19) 0.0455(4) 0.2906(2)
C11_4 C 0.80484(18) 0.0979(4) 0.25490(19)
C12_4 C 0.78888(18) 0.2286(4) 0.2199(2)
C13_4 C 0.75219(18) 0.1061(4) 0.1985(2)
C14_4 C 0.72000(18) 0.0602(4) 0.1676(2)
C15_4 C 0.6959(2) 0.1052(4) 0.1326(2)
H9_4 H 0.6986 0.1678 0.1287
C16_4 C 0.6680(2) 0.0570(4) 0.1036(2)
H10_4 H 0.6519 0.0876 0.0794
C19_4 C 0.79639(19) 0.3266(4) 0.2181(2)
C20_4 C 0.8290(2) 0.3632(4) 0.2452(2)
H13_4 H 0.8471 0.3260 0.2646
C21_4 C 0.8352(2) 0.4545(4) 0.2440(2)
H14_4 H 0.8580 0.4789 0.2627
C22_4 C 0.7792(2) 0.4747(4) 0.1916(2)
H15_4 H 0.7615 0.5137 0.1729
C23_4 C 0.7710(2) 0.3842(4) 0.1903(2)
H16_4 H 0.7483 0.3615 0.1707
C24_4 C 0.8473(2) 0.2909(4) 0.6383(2)
H17_4 H 0.8222 0.2646 0.6323
C25_4 C 0.8709(2) 0.2751(4) 0.6097(2)
H18_4 H 0.8623 0.2369 0.5849
C26_4 C 0.90693(19) 0.3153(4) 0.6172(2)
C27_4 C 0.9184(2) 0.3695(5) 0.6543(2)
H19_4 H 0.9429 0.3990 0.6604
C28_4 C 0.8936(2) 0.3794(5) 0.6821(3)
H20_4 H 0.9020 0.4145 0.7080
C29_4 C 0.93216(19) 0.3006(4) 0.5863(2)
C30_4 C 0.94931(18) 0.2167(4) 0.53395(19)
C31_4 C 0.98050(18) 0.3459(4) 0.5555(2)
I3_4 I 0.86912(2) 0.67752(4) 0.29476(2)
I4_4 I 0.76241(2) 0.73537(3) 0.19199(2)
N3_4 N 0.81438(15) 0.1831(3) 0.25045(17)
N4_4 N 0.75766(15) 0.1943(3) 0.19232(16)
N5_4 N 0.77422(15) 0.0558(3) 0.23025(16)
N6_4 N 0.81084(17) 0.5098(3) 0.21767(19)
N8_4 N 0.85848(19) 0.3418(4) 0.6742(2)
N9_4 N 0.92584(15) 0.2264(3) 0.56142(17)
N10_4 N 0.97619(15) 0.2755(3) 0.52843(16)
N11_4 N 0.95987(15) 0.3613(3) 0.58564(17)
Zn2_4 Zn 0.82428(3) 0.64553(5) 0.21986(3)
C38_4 C 0.9154(2) 0.9269(4) 0.0079(3)
H26_4 H 0.8984 0.9179 0.0270
C39_4 C 0.94500(19) 0.8669(4) 0.0070(2)
C42_4 C 0.8861(3) 0.9621(4) 0.8508(3)
H29_4 H 0.9081 0.9335 0.8690
C43_4 C 0.8625(2) 0.9138(4) 0.8177(2)
H30_4 H 0.8681 0.8527 0.8134
C44_4 C 0.83079(19) 0.9545(4) 0.7906(2)
C47_4 C 0.80484(18) 0.9021(4) 0.75490(19)
C48_4 C 0.78888(18) 0.7714(4) 0.7199(2)
C49_4 C 0.75219(18) 0.8939(4) 0.6985(2)
C50_4 C 0.72000(18) 0.9398(4) 0.6676(2)
C51_4 C 0.6959(2) 0.8948(4) 0.6326(2)
H33_4 H 0.6986 0.8322 0.6287
C52_4 C 0.6680(2) 0.9430(4) 0.6036(2)
H34_4 H 0.6519 0.9124 0.5794
C55_4 C 0.79639(19) 0.6734(4) 0.7181(2)
C56_4 C 0.8290(2) 0.6368(4) 0.7452(2)
H37_4 H 0.8471 0.6740 0.7646
C57_4 C 0.8352(2) 0.5455(4) 0.7440(2)
H38_4 H 0.8580 0.5211 0.7627
C58_4 C 0.7792(2) 0.5253(4) 0.6916(2)
H39_4 H 0.7615 0.4863 0.6729
C59_4 C 0.7710(2) 0.6158(4) 0.6903(2)
H40_4 H 0.7483 0.6385 0.6707
C60_4 C 0.8473(2) 0.7091(4) 0.1383(2)
H41_4 H 0.8222 0.7354 0.1323
C61_4 C 0.8709(2) 0.7249(4) 0.1097(2)
H42_4 H 0.8623 0.7631 0.0849
C62_4 C 0.90693(19) 0.6847(4) 0.1172(2)
C63_4 C 0.9184(2) 0.6305(5) 0.1543(2)
H43_4 H 0.9429 0.6010 0.1604
C64_4 C 0.8936(2) 0.6206(5) 0.1821(3)
H44_4 H 0.9020 0.5855 0.2080
C65_4 C 0.93216(19) 0.6994(4) 0.0863(2)
C66_4 C 0.94931(18) 0.7833(4) 0.03395(19)
C67_4 C 0.98050(18) 0.6541(4) 0.0555(2)
I9_4 I 0.86912(2) 0.32248(4) 0.79476(2)
I10_4 I 0.76241(2) 0.26463(3) 0.69199(2)
N16_4 N 0.81438(15) 0.8169(3) 0.75045(17)
N17_4 N 0.75766(15) 0.8057(3) 0.69232(16)
N18_4 N 0.77422(15) 0.9442(3) 0.73025(16)
N19_4 N 0.81084(17) 0.4902(3) 0.71767(19)
N22_4 N 0.85848(19) 0.6582(4) 0.1742(2)
N23_4 N 0.92584(15) 0.7736(3) 0.06142(17)
N24_4 N 0.97619(15) 0.7245(3) 0.02843(16)
N25_4 N 0.95987(15) 0.6387(3) 0.08564(17)
Zn6_4 Zn 0.82428(3) 0.35447(5) 0.71986(3)
C40_4 C 0.97001(19) 0.8857(4) 0.9801(2)
H27_4 H 0.9912 0.8469 0.9797
C41_4 C 0.9639(2) 0.9612(5) 0.9540(2)
H28_4 H 0.9814 0.9739 0.9359
loop_
_geom_bond_atom_site_label_1
_geom_bond_atom_site_label_2
_geom_bond_site_symmetry_1
_geom_bond_site_symmetry_2
C37 H25 1_555 1_555
I7 Zn4 1_555 1_555
I8 Zn4 1_555 1_555
N13 C37 1_555 1_555
N15 Zn4 1_555 1_555
Zn4 N13 1_555 1_555
H31 C45 1_555 1_555
C46 C45 1_555 1_555
H32 C46 1_555 1_555
C53 H35 1_555 1_555
H36 C54 1_555 1_555
Zn9 N20 1_555 1_555
C46 N15 1_555 1_555
C53 C54 1_555 1_555
C53 N20 1_555 1_555
C1 H1 1_555 1_555
H7 C9 1_555 1_555
C10 C9 1_555 1_555
H8 C10 1_555 1_555
C17 H11 1_555 1_555
H12 C18 1_555 1_555
I1 Zn1 1_555 1_555
I2 Zn1 1_555 1_555
I5 Zn3 1_555 1_555
I6 Zn3 1_555 1_555
N1 C1 1_555 1_555
Zn1 N1 1_555 1_555
Zn3 N7 1_555 1_555
N27 Zn3 1_555 1_555
C10 N2 1_555 1_555
C17 C18 1_555 1_555
C17 N7 1_555 1_555
N2 Zn1 1_555 1_555
C68 C69 1_555 1_555
C69 H45 1_555 1_555
C70 C68 1_555 1_555
H46 C70 1_555 1_555
C71 C69 1_555 1_555
H47 C71 1_555 1_555
C72 C70 1_555 1_555
H48 C72 1_555 1_555
N26 C71 1_555 1_555
Zn8 N26 1_555 1_555
C72 N26 1_555 1_555
C32 C33 1_555 1_555
C33 H21 1_555 1_555
C34 C32 1_555 1_555
H22 C34 1_555 1_555
C35 C33 1_555 1_555
H23 C35 1_555 1_555
C36 C34 1_555 1_555
H24 C36 1_555 1_555
N12 C35 1_555 1_555
I11 Zn7 1_555 1_555
N21 Zn7 1_555 1_555
Zn7 N12 1_555 1_555
C36 N12 1_555 1_555
I3 Zn2 1_555 1_555
I4 Zn2 1_555 1_555
Zn2 N6 1_555 1_555
C37_2 H25_2 1_555 1_555
C38 C37_2 1_555 1_555
H26 C38 1_555 1_555
C39 C38 1_555 1_555
C40 C39 1_555 1_555
H27 C40 1_555 1_555
C41 C40 1_555 1_555
H28 C41 1_555 1_555
C60 H41 1_555 1_555
C61 C60 1_555 1_555
H42 C61 1_555 1_555
C62 C61 1_555 1_555
C63 C62 1_555 1_555
H43 C63 1_555 1_555
C64 C63 1_555 1_555
H44 C64 1_555 1_555
C65 C62 1_555 1_555
C66 C39 1_555 1_555
C67 C68_2 1_555 1_555
C68_2 C69_2 1_555 1_555
C69_2 H45_2 1_555 1_555
C70_2 C68_2 1_555 1_555
C71_2 C69_2 1_555 1_555
H47_2 C71_2 1_555 1_555
I7_2 Zn4_2 1_555 1_555
I8_2 Zn4_2 1_555 1_555
N13_2 C37_2 1_555 1_555
N15_2 Zn4_2 1_555 1_555
N22 Zn2 1_555 1_555
N23 C65 1_555 1_555
N24 C66 1_555 1_555
N25 C65 1_555 1_555
Zn4_2 N13_2 1_555 1_555
C41 N13_2 1_555 1_555
C60 N22 1_555 1_555
C64 N22 1_555 1_555
C66 N23 1_555 1_555
C67 N24 1_555 1_555
C67 N25 1_555 1_555
H24_2 C36_2 1_555 1_555
C42 H29 1_555 1_555
C43 C42 1_555 1_555
H30 C43 1_555 1_555
C44 C43 1_555 1_555
C45_2 C44 1_555 1_555
H31_2 C45_2 1_555 1_555
C46_2 C45_2 1_555 1_555
H32_2 C46_2 1_555 1_555
C47 C44 1_555 1_555
C48 C55 1_555 1_555
C49 C50 1_555 1_555
C50 C51 1_555 1_555
C51 H33 1_555 1_555
C52 C51 1_555 1_555
H34 C52 1_555 1_555
C53_2 H35_2 1_555 1_555
C54_2 C50 1_555 1_555
H36_2 C54_2 1_555 1_555
C55 C56 1_555 1_555
C56 H37 1_555 1_555
C57 C56 1_555 1_555
H38 C57 1_555 1_555
C59 C55 1_555 1_555
H40 C59 1_555 1_555
I11_2 Zn9 1_555 1_555
N15_2 C42 1_555 1_555
N16 C47 1_555 1_555
N17 C48 1_555 1_555
N18 C47 1_555 1_555
N21 C52 1_555 1_555
Zn9 N12_2 1_555 1_555
C36_2 N12_2 1_555 1_555
C46_2 N15_2 1_555 1_555
C48 N16 1_555 1_555
C49 N17 1_555 1_555
C49 N18 1_555 1_555
C53_2 C54_2 1_555 1_555
C53_2 N21 1_555 1_555
C58 C59 1_555 1_555
C1_2 H1_2 1_555 1_555
H3 C4 1_555 1_555
C5 C4 1_555 1_555
H4 C5 1_555 1_555
C6 H5 1_555 1_555
C7 C6 1_555 1_555
H6 C7 1_555 1_555
C8 C7 1_555 1_555
C9_2 C8 1_555 1_555
H7_2 C9_2 1_555 1_555
C10_2 C9_2 1_555 1_555
H8_2 C10_2 1_555 1_555
C11 C8 1_555 1_555
C12 C19 1_555 1_555
C13 C14 1_555 1_555
C14 C15 1_555 1_555
C15 H9 1_555 1_555
C16 C15 1_555 1_555
H10 C16 1_555 1_555
C17_2 H11_2 1_555 1_555
C18_2 C14 1_555 1_555
H12_2 C18_2 1_555 1_555
C19 C20 1_555 1_555
C20 H13 1_555 1_555
C21 C20 1_555 1_555
H14 C21 1_555 1_555
C23 C19 1_555 1_555
H16 C23 1_555 1_555
I1_2 Zn1_2 1_555 1_555
I2_2 Zn1_2 1_555 1_555
I5_2 Zn8 1_555 1_555
I6_2 Zn8 1_555 1_555
N1_2 C1_2 1_555 1_555
N2_2 C6 1_555 1_555
N3 C11 1_555 1_555
N4 C12 1_555 1_555
N5 C11 1_555 1_555
N7_2 C16 1_555 1_555
Zn1_2 N1_2 1_555 1_555
Zn8 N7_2 1_555 1_555
H48_2 C72_2 1_555 1_555
C5 N1_2 1_555 1_555
C10_2 N2_2 1_555 1_555
C12 N3 1_555 1_555
C13 N4 1_555 1_555
C13 N5 1_555 1_555
C17_2 C18_2 1_555 1_555
C17_2 N7_2 1_555 1_555
C22 C23 1_555 1_555
N2_2 Zn1_2 1_555 1_555
C72_2 N27 1_555 1_555
H2 C2 1_555 1_555
C3 C2 1_555 1_555
C24 H17 1_555 1_555
C25 C24 1_555 1_555
H18 C25 1_555 1_555
C26 C25 1_555 1_555
C27 C26 1_555 1_555
H19 C27 1_555 1_555
C28 C27 1_555 1_555
H20 C28 1_555 1_555
C29 C26 1_555 1_555
C30 C3 1_555 1_555
C31 C32_2 1_555 1_555
C32_2 C33_2 1_555 1_555
C33_2 H21_2 1_555 1_555
C34_2 C32_2 1_555 1_555
C35_2 C33_2 1_555 1_555
H23_2 C35_2 1_555 1_555
N8 C24 1_555 1_555
N9 C29 1_555 1_555
N10 C30 1_555 1_555
N11 C29 1_555 1_555
I9 Zn6 1_555 1_555
I10 Zn6 1_555 1_555
Zn6 N8 1_555 1_555
C28 N8 1_555 1_555
C30 N9 1_555 1_555
C31 N10 1_555 1_555
C31 N11 1_555 1_555
N19 Zn6 1_555 1_555
H3_2 C4_2 1_555 1_555
C5_2 C4_2 1_555 1_555
H4_2 C5_2 1_555 1_555
C6_2 H5_2 1_555 1_555
C7_2 C6_2 1_555 1_555
H6_2 C7_2 1_555 1_555
C8_2 C7_2 1_555 1_555
C11_2 C8_2 1_555 1_555
C12_2 C19_2 1_555 1_555
C13_2 C14_2 1_555 1_555
C14_2 C15_2 1_555 1_555
C15_2 H9_2 1_555 1_555
C16_2 C15_2 1_555 1_555
H10_2 C16_2 1_555 1_555
C19_2 C20_2 1_555 1_555
C20_2 H13_2 1_555 1_555
C21_2 C20_2 1_555 1_555
H14_2 C21_2 1_555 1_555
C22_2 H15_2 1_555 1_555
C23_2 C19_2 1_555 1_555
H16_2 C23_2 1_555 1_555
I3_2 Zn2_2 1_555 1_555
I4_2 Zn2_2 1_555 1_555
N3_2 C11_2 1_555 1_555
N4_2 C12_2 1_555 1_555
N5_2 C11_2 1_555 1_555
N6_2 C21_2 1_555 1_555
Zn2_2 N6_2 1_555 1_555
H26_2 C38_2 1_555 1_555
C39_2 C38_2 1_555 1_555
C40_2 C39_2 1_555 1_555
H27_2 C40_2 1_555 1_555
C41_2 C40_2 1_555 1_555
H28_2 C41_2 1_555 1_555
C60_2 H41_2 1_555 1_555
C61_2 C60_2 1_555 1_555
H42_2 C61_2 1_555 1_555
C62_2 C61_2 1_555 1_555
C63_2 C62_2 1_555 1_555
H43_2 C63_2 1_555 1_555
C64_2 C63_2 1_555 1_555
H44_2 C64_2 1_555 1_555
C65_2 C62_2 1_555 1_555
C66_2 C39_2 1_555 1_555
N22_2 Zn2_2 1_555 1_555
N23_2 C65_2 1_555 1_555
N24_2 C66_2 1_555 1_555
N25_2 C65_2 1_555 1_555
C12_2 N3_2 1_555 1_555
C13_2 N4_2 1_555 1_555
C13_2 N5_2 1_555 1_555
C22_2 C23_2 1_555 1_555
C22_2 N6_2 1_555 1_555
C60_2 N22_2 1_555 1_555
C64_2 N22_2 1_555 1_555
C66_2 N23_2 1_555 1_555
C67_2 N24_2 1_555 1_555
C67_2 N25_2 1_555 1_555
H2_2 C2_2 1_555 1_555
C3_2 C2_2 1_555 1_555
C24_2 H17_2 1_555 1_555
C25_2 C24_2 1_555 1_555
H18_2 C25_2 1_555 1_555
C26_2 C25_2 1_555 1_555
C27_2 C26_2 1_555 1_555
H19_2 C27_2 1_555 1_555
C28_2 C27_2 1_555 1_555
H20_2 C28_2 1_555 1_555
C29_2 C26_2 1_555 1_555
C30_2 C3_2 1_555 1_555
N8_2 C24_2 1_555 1_555
N9_2 C29_2 1_555 1_555
N10_2 C30_2 1_555 1_555
N11_2 C29_2 1_555 1_555
C42_2 H29_2 1_555 1_555
C43_2 C42_2 1_555 1_555
H30_2 C43_2 1_555 1_555
C44_2 C43_2 1_555 1_555
C47_2 C44_2 1_555 1_555
C48_2 C55_2 1_555 1_555
C49_2 C50_2 1_555 1_555
C50_2 C51_2 1_555 1_555
C51_2 H33_2 1_555 1_555
C52_2 C51_2 1_555 1_555
H34_2 C52_2 1_555 1_555
C55_2 C56_2 1_555 1_555
C56_2 H37_2 1_555 1_555
C57_2 C56_2 1_555 1_555
H38_2 C57_2 1_555 1_555
C58_2 H39_2 1_555 1_555
C59_2 C55_2 1_555 1_555
H40_2 C59_2 1_555 1_555
I9_2 Zn6_2 1_555 1_555
I10_2 Zn6_2 1_555 1_555
N16_2 C47_2 1_555 1_555
N17_2 C48_2 1_555 1_555
N18_2 C47_2 1_555 1_555
N19_2 C57_2 1_555 1_555
Zn6_2 N8_2 1_555 1_555
C28_2 N8_2 1_555 1_555
C30_2 N9_2 1_555 1_555
C31_2 N10_2 1_555 1_555
C31_2 N11_2 1_555 1_555
C48_2 N16_2 1_555 1_555
C49_2 N17_2 1_555 1_555
C49_2 N18_2 1_555 1_555
C58_2 C59_2 1_555 1_555
C58_2 N19_2 1_555 1_555
N19_2 Zn6_2 1_555 1_555
C32_3 C33_3 1_555 1_555
C33_3 H21_3 1_555 1_555
C34_3 C32_3 1_555 1_555
H22_3 C34_3 1_555 1_555
C35_3 C33_3 1_555 1_555
H23_3 C35_3 1_555 1_555
C36_3 C34_3 1_555 1_555
H24_3 C36_3 1_555 1_555
N12_3 C35_3 1_555 1_555
C68_3 C69_3 1_555 1_555
C69_3 H45_3 1_555 1_555
C70_3 C68_3 1_555 1_555
H46_3 C70_3 1_555 1_555
C71_3 C69_3 1_555 1_555
H47_3 C71_3 1_555 1_555
C72_3 C70_3 1_555 1_555
H48_3 C72_3 1_555 1_555
I11_3 Zn7_2 1_555 1_555
I12_3 Zn7_2 1_555 1_555
N21_2 Zn7_2 1_555 1_555
N26_2 C71_3 1_555 1_555
Zn7_2 N12_3 1_555 1_555
Zn8_2 N26_2 1_555 1_555
C36_3 N12_3 1_555 1_555
C72_3 N26_2 1_555 1_555
H31_3 C45_3 1_555 1_555
C46_3 C45_3 1_555 1_555
H32_3 C46_3 1_555 1_555
C53_3 H35_3 1_555 1_555
H36_3 C54_3 1_555 1_555
Zn5 N14 1_555 1_555
Zn9_2 N20_2 1_555 1_555
C46_3 N14 1_555 1_555
C53_3 C54_3 1_555 1_555
C53_3 N20_2 1_555 1_555
C37_3 H25_3 1_555 1_555
I7_3 Zn5 1_555 1_555
I8_3 Zn5 1_555 1_555
N13_3 C37_3 1_555 1_555
Zn5 N13_3 1_555 1_555
C1_3 H1_3 1_555 1_555
H7_3 C9_3 1_555 1_555
C10_3 C9_3 1_555 1_555
H8_3 C10_3 1_555 1_555
C17_3 H11_3 1_555 1_555
H12_3 C18_3 1_555 1_555
I1_3 Zn1_3 1_555 1_555
I2_3 Zn1_3 1_555 1_555
I5_3 Zn3_2 1_555 1_555
N1_3 C1_3 1_555 1_555
Zn1_3 N1_3 1_555 1_555
Zn3_2 N7_3 1_555 1_555
N27_2 Zn3_2 1_555 1_555
C10_3 N2_3 1_555 1_555
C17_3 C18_3 1_555 1_555
C17_3 N7_3 1_555 1_555
N2_3 Zn1_3 1_555 1_555
H24_4 C36_4 1_555 1_555
I3_3 Zn2_3 1_555 1_555
I4_3 Zn2_3 1_555 1_555
Zn2_3 N6_3 1_555 1_555
H26_3 C38_3 1_555 1_555
C39_3 C38_3 1_555 1_555
C42_3 H29_3 1_555 1_555
C43_3 C42_3 1_555 1_555
H30_3 C43_3 1_555 1_555
C44_3 C43_3 1_555 1_555
C45_4 C44_3 1_555 1_555
H31_4 C45_4 1_555 1_555
C46_4 C45_4 1_555 1_555
H32_4 C46_4 1_555 1_555
C47_3 C44_3 1_555 1_555
C48_3 C55_3 1_555 1_555
C49_3 C50_3 1_555 1_555
C50_3 C51_3 1_555 1_555
C51_3 H33_3 1_555 1_555
C52_3 C51_3 1_555 1_555
H34_3 C52_3 1_555 1_555
C53_4 H35_4 1_555 1_555
C54_4 C50_3 1_555 1_555
H36_4 C54_4 1_555 1_555
C55_3 C56_3 1_555 1_555
C56_3 H37_3 1_555 1_555
C57_3 C56_3 1_555 1_555
H38_3 C57_3 1_555 1_555
C59_3 C55_3 1_555 1_555
H40_3 C59_3 1_555 1_555
C60_3 H41_3 1_555 1_555
C61_3 C60_3 1_555 1_555
H42_3 C61_3 1_555 1_555
C62_3 C61_3 1_555 1_555
C63_3 C62_3 1_555 1_555
H43_3 C63_3 1_555 1_555
C64_3 C63_3 1_555 1_555
H44_3 C64_3 1_555 1_555
C65_3 C62_3 1_555 1_555
C66_3 C39_3 1_555 1_555
C67_3 C68_4 1_555 1_555
C68_4 C69_4 1_555 1_555
C69_4 H45_4 1_555 1_555
C70_4 C68_4 1_555 1_555
C71_4 C69_4 1_555 1_555
H47_4 C71_4 1_555 1_555
I11_4 Zn9_2 1_555 1_555
I12_4 Zn9_2 1_555 1_555
N14_2 C42_3 1_555 1_555
N16_3 C47_3 1_555 1_555
N17_3 C48_3 1_555 1_555
N18_3 C47_3 1_555 1_555
N21_2 C52_3 1_555 1_555
N22_3 Zn2_3 1_555 1_555
N23_3 C65_3 1_555 1_555
N24_3 C66_3 1_555 1_555
N25_3 C65_3 1_555 1_555
Zn5_2 N14_2 1_555 1_555
Zn9_2 N12_4 1_555 1_555
C36_4 N12_4 1_555 1_555
C46_4 N14_2 1_555 1_555
C48_3 N16_3 1_555 1_555
C49_3 N17_3 1_555 1_555
C49_3 N18_3 1_555 1_555
C53_4 C54_4 1_555 1_555
C53_4 N21_2 1_555 1_555
C58_3 C59_3 1_555 1_555
C60_3 N22_3 1_555 1_555
C64_3 N22_3 1_555 1_555
C66_3 N23_3 1_555 1_555
C67_3 N24_3 1_555 1_555
C67_3 N25_3 1_555 1_555
C37_4 H25_4 1_555 1_555
H27_3 C40_3 1_555 1_555
C41_3 C40_3 1_555 1_555
H28_3 C41_3 1_555 1_555
I7_4 Zn5_2 1_555 1_555
I8_4 Zn5_2 1_555 1_555
N13_4 C37_4 1_555 1_555
Zn5_2 N13_4 1_555 1_555
C41_3 N13_4 1_555 1_555
C1_4 H1_4 1_555 1_555
C2_3 C1_4 1_555 1_555
H2_3 C2_3 1_555 1_555
C3_3 C2_3 1_555 1_555
C4_3 C3_3 1_555 1_555
H3_3 C4_3 1_555 1_555
C5_3 C4_3 1_555 1_555
H4_3 C5_3 1_555 1_555
C6_3 H5_3 1_555 1_555
C7_3 C6_3 1_555 1_555
H6_3 C7_3 1_555 1_555
C8_3 C7_3 1_555 1_555
C9_4 C8_3 1_555 1_555
H7_4 C9_4 1_555 1_555
C10_4 C9_4 1_555 1_555
H8_4 C10_4 1_555 1_555
C11_3 C8_3 1_555 1_555
C12_3 C19_3 1_555 1_555
C13_3 C14_3 1_555 1_555
C14_3 C15_3 1_555 1_555
C15_3 H9_3 1_555 1_555
C16_3 C15_3 1_555 1_555
H10_3 C16_3 1_555 1_555
C17_4 H11_4 1_555 1_555
C18_4 C14_3 1_555 1_555
H12_4 C18_4 1_555 1_555
C19_3 C20_3 1_555 1_555
C20_3 H13_3 1_555 1_555
C21_3 C20_3 1_555 1_555
H14_3 C21_3 1_555 1_555
C23_3 C19_3 1_555 1_555
H16_3 C23_3 1_555 1_555
C24_3 H17_3 1_555 1_555
C25_3 C24_3 1_555 1_555
H18_3 C25_3 1_555 1_555
C26_3 C25_3 1_555 1_555
C27_3 C26_3 1_555 1_555
H19_3 C27_3 1_555 1_555
C28_3 C27_3 1_555 1_555
H20_3 C28_3 1_555 1_555
C29_3 C26_3 1_555 1_555
C30_3 C3_3 1_555 1_555
C31_3 C32_4 1_555 1_555
C32_4 C33_4 1_555 1_555
C33_4 H21_4 1_555 1_555
C34_4 C32_4 1_555 1_555
C35_4 C33_4 1_555 1_555
H23_4 C35_4 1_555 1_555
I1_4 Zn1_4 1_555 1_555
I2_4 Zn1_4 1_555 1_555
I5_4 Zn8_2 1_555 1_555
N1_4 C1_4 1_555 1_555
N2_4 C6_3 1_555 1_555
N3_3 C11_3 1_555 1_555
N4_3 C12_3 1_555 1_555
N5_3 C11_3 1_555 1_555
N7_4 C16_3 1_555 1_555
N8_3 C24_3 1_555 1_555
N9_3 C29_3 1_555 1_555
N10_3 C30_3 1_555 1_555
N11_3 C29_3 1_555 1_555
Zn1_4 N1_4 1_555 1_555
Zn8_2 N7_4 1_555 1_555
H48_4 C72_4 1_555 1_555
I9_3 Zn6_3 1_555 1_555
I10_3 Zn6_3 1_555 1_555
Zn6_3 N8_3 1_555 1_555
C5_3 N1_4 1_555 1_555
C10_4 N2_4 1_555 1_555
C12_3 N3_3 1_555 1_555
C13_3 N4_3 1_555 1_555
C13_3 N5_3 1_555 1_555
C17_4 C18_4 1_555 1_555
C17_4 N7_4 1_555 1_555
C22_3 C23_3 1_555 1_555
C28_3 N8_3 1_555 1_555
C30_3 N9_3 1_555 1_555
C31_3 N10_3 1_555 1_555
C31_3 N11_3 1_555 1_555
N2_4 Zn1_4 1_555 1_555
C72_4 N27_2 1_555 1_555
N19_3 Zn6_3 1_555 1_555
H2_4 C2_4 1_555 1_555
C3_4 C2_4 1_555 1_555
C4_4 C3_4 1_555 1_555
H3_4 C4_4 1_555 1_555
C5_4 C4_4 1_555 1_555
H4_4 C5_4 1_555 1_555
C6_4 H5_4 1_555 1_555
C7_4 C6_4 1_555 1_555
H6_4 C7_4 1_555 1_555
C8_4 C7_4 1_555 1_555
C11_4 C8_4 1_555 1_555
C12_4 C19_4 1_555 1_555
C13_4 C14_4 1_555 1_555
C14_4 C15_4 1_555 1_555
C15_4 H9_4 1_555 1_555
C16_4 C15_4 1_555 1_555
H10_4 C16_4 1_555 1_555
C19_4 C20_4 1_555 1_555
C20_4 H13_4 1_555 1_555
C21_4 C20_4 1_555 1_555
H14_4 C21_4 1_555 1_555
C22_4 H15_4 1_555 1_555
C23_4 C19_4 1_555 1_555
H16_4 C23_4 1_555 1_555
C24_4 H17_4 1_555 1_555
C25_4 C24_4 1_555 1_555
H18_4 C25_4 1_555 1_555
C26_4 C25_4 1_555 1_555
C27_4 C26_4 1_555 1_555
H19_4 C27_4 1_555 1_555
C28_4 C27_4 1_555 1_555
H20_4 C28_4 1_555 1_555
C29_4 C26_4 1_555 1_555
C30_4 C3_4 1_555 1_555
I3_4 Zn2_4 1_555 1_555
I4_4 Zn2_4 1_555 1_555
N3_4 C11_4 1_555 1_555
N4_4 C12_4 1_555 1_555
N5_4 C11_4 1_555 1_555
N6_4 C21_4 1_555 1_555
N8_4 C24_4 1_555 1_555
N9_4 C29_4 1_555 1_555
N10_4 C30_4 1_555 1_555
N11_4 C29_4 1_555 1_555
Zn2_4 N6_4 1_555 1_555
H26_4 C38_4 1_555 1_555
C39_4 C38_4 1_555 1_555
C42_4 H29_4 1_555 1_555
C43_4 C42_4 1_555 1_555
H30_4 C43_4 1_555 1_555
C44_4 C43_4 1_555 1_555
C47_4 C44_4 1_555 1_555
C48_4 C55_4 1_555 1_555
C49_4 C50_4 1_555 1_555
C50_4 C51_4 1_555 1_555
C51_4 H33_4 1_555 1_555
C52_4 C51_4 1_555 1_555
H34_4 C52_4 1_555 1_555
C55_4 C56_4 1_555 1_555
C56_4 H37_4 1_555 1_555
C57_4 C56_4 1_555 1_555
H38_4 C57_4 1_555 1_555
C58_4 H39_4 1_555 1_555
C59_4 C55_4 1_555 1_555
H40_4 C59_4 1_555 1_555
C60_4 H41_4 1_555 1_555
C61_4 C60_4 1_555 1_555
H42_4 C61_4 1_555 1_555
C62_4 C61_4 1_555 1_555
C63_4 C62_4 1_555 1_555
H43_4 C63_4 1_555 1_555
C64_4 C63_4 1_555 1_555
H44_4 C64_4 1_555 1_555
C65_4 C62_4 1_555 1_555
C66_4 C39_4 1_555 1_555
I9_4 Zn6_4 1_555 1_555
I10_4 Zn6_4 1_555 1_555
N16_4 C47_4 1_555 1_555
N17_4 C48_4 1_555 1_555
N18_4 C47_4 1_555 1_555
N19_4 C57_4 1_555 1_555
N22_4 Zn2_4 1_555 1_555
N23_4 C65_4 1_555 1_555
N24_4 C66_4 1_555 1_555
N25_4 C65_4 1_555 1_555
Zn6_4 N8_4 1_555 1_555
C12_4 N3_4 1_555 1_555
C13_4 N4_4 1_555 1_555
C13_4 N5_4 1_555 1_555
C22_4 C23_4 1_555 1_555
C22_4 N6_4 1_555 1_555
C28_4 N8_4 1_555 1_555
C30_4 N9_4 1_555 1_555
C31_4 N10_4 1_555 1_555
C31_4 N11_4 1_555 1_555
C48_4 N16_4 1_555 1_555
C49_4 N17_4 1_555 1_555
C49_4 N18_4 1_555 1_555
C58_4 C59_4 1_555 1_555
C58_4 N19_4 1_555 1_555
C60_4 N22_4 1_555 1_555
C64_4 N22_4 1_555 1_555
C66_4 N23_4 1_555 1_555
C67_4 N24_4 1_555 1_555
C67_4 N25_4 1_555 1_555
N19_4 Zn6_4 1_555 1_555
H27_4 C40_4 1_555 1_555
C41_4 C40_4 1_555 1_555
H28_4 C41_4 1_555 1_555

#END
