
###############################################################################
#
# This file contains modified crystal structure data generated from the
# MOF subset of the Cambridge Structural Database (CSD) v543 
# hosted by the Cambridge Crystallographic Data Centre (CCDC).
#
# This work is licensed under the Creative Commons
# Attribution-NonCommercial-ShareAlike 4.0 International License.
# To view a copy of this license, visit
# http://creativecommons.org/licenses/by-nc-sa/4.0/
# or send a letter to
# Creative Commons, PO Box 1866, Mountain View, CA 94042, USA.
#
# CIF created using the CSD Python API on 29 September 2022
# The structure has been converted into the P1 space group
# The structure has a 3D framework
# The original CSD entry FARGIQ is in the hexagonal crystal system
# The framework has been calculated to contain at least 10.0% void space
# The void calculation uses a probe of radius 1.32A, grid spacing 0.4
# The framework is charged, counterions have been retained in the structure
#
###############################################################################

data_FARGIQ
_chemical_formula_moiety         '(C160 H120 K12 N4 O72 Pb12 4+)n'
_symmetry_cell_setting           triclinic
_symmetry_space_group_name_H-M   'P 1'
_symmetry_Int_Tables_number      1
_space_group_name_Hall           'P 1'
loop_
_symmetry_equiv_pos_site_id
_symmetry_equiv_pos_as_xyz
1 x,y,z
_cell_length_a                   15.8708(6)
_cell_length_b                   15.8708(6)
_cell_length_c                   24.2726(16)
_cell_angle_alpha                90
_cell_angle_beta                 90
_cell_angle_gamma                120
_cell_volume                     5294.74
loop_
_atom_site_label
_atom_site_type_symbol
_atom_site_fract_x
_atom_site_fract_y
_atom_site_fract_z
K1 K 0.0885(2) 0.17700(23) 0.86174(13)
K1_2 K 0.91150(30) 0.0885(2) 0.36174(13)
K1_3 K 0.82300(23) 0.91150(30) 0.86174(13)
K1_4 K 0.9115(2) 0.82300(23) 0.36174(13)
K1_5 K 0.08850(30) 0.9115(2) 0.86174(13)
K1_6 K 0.17700(23) 0.08850(30) 0.36174(13)
K1_7 K 0.82300(23) 0.9115(2) 0.63826(13)
K1_8 K 0.91150(30) 0.82300(23) 0.13826(13)
K1_9 K 0.0885(2) 0.91150(30) 0.63826(13)
K1_10 K 0.17700(23) 0.0885(2) 0.13826(13)
K1_11 K 0.08850(30) 0.17700(23) 0.63826(13)
K1_12 K 0.9115(2) 0.08850(30) 0.13826(13)
N1 N 0.3333 0.6667 0.4499(6)
C1 C 0.3333 0.6667 0.5113(8)
H1 H 0.3004 0.6008 0.5245
C2 C 0.3851(8) 0.6149(4) 0.4300(4)
H2 H 0.3857 0.6147 0.3904
H3 H 0.4509 0.6481 0.4433
H4 H 0.3992 0.6996 0.5245
H5 H 0.3004 0.6996 0.5245
C3 C 0.3851(4) 0.7702(9) 0.4300(4)
C4 C 0.2298(9) 0.6149(8) 0.4300(4)
H6 H 0.3853 0.7710 0.3904
H7 H 0.2290 0.6143 0.3904
H8 H 0.3519 0.5491 0.4433
H9 H 0.3519 0.8028 0.4433
H10 H 0.4509 0.8028 0.4433
H11 H 0.1972 0.5491 0.4433
H12 H 0.1972 0.6481 0.4433
C1_2 C 0.6666 0.3333 0.0113(8)
H1_2 H 0.6996 0.3004 0.0245
H4_2 H 0.6996 0.3992 0.0245
H5_2 H 0.6008 0.3004 0.0245
N1_2 N 0.6666 0.3333 0.9499(6)
C2_2 C 0.7702(9) 0.3851(8) 0.9300(4)
H2_2 H 0.7710 0.3857 0.8904
H3_2 H 0.8028 0.4509 0.9433
C3_2 C 0.6149(10) 0.3851(4) 0.9300(4)
C4_2 C 0.6149(12) 0.2298(9) 0.9300(4)
H6_2 H 0.6143 0.3853 0.8904
H7_2 H 0.6147 0.2290 0.8904
H8_2 H 0.8028 0.3519 0.9433
H9_2 H 0.5491 0.3519 0.9433
H10_2 H 0.6481 0.4509 0.9433
H11_2 H 0.6481 0.1972 0.9433
H12_2 H 0.5491 0.1972 0.9433
N1_3 N 0.3333 0.6667 0.0501(6)
C2_3 C 0.3851(4) 0.6149(8) 0.0700(4)
H2_3 H 0.3853 0.6143 0.1096
H3_3 H 0.3519 0.5491 0.0567
C3_3 C 0.2298(9) 0.6149(4) 0.0700(4)
C4_3 C 0.3851(8) 0.7702(9) 0.0700(4)
H6_3 H 0.2290 0.6147 0.1096
H7_3 H 0.3857 0.7710 0.1096
H8_3 H 0.4509 0.6481 0.0567
H9_3 H 0.1972 0.6481 0.0567
H10_3 H 0.1972 0.5491 0.0567
H11_3 H 0.4509 0.8028 0.0567
H12_3 H 0.3519 0.8028 0.0567
C1_3 C 0.3333 0.6667 0.9887(8)
H1_3 H 0.3992 0.6996 0.9755
H4_3 H 0.3004 0.6008 0.9755
H5_3 H 0.3004 0.6996 0.9755
N1_4 N 0.6666 0.3333 0.5501(6)
C1_4 C 0.6666 0.3333 0.4887(8)
H1_4 H 0.6996 0.3992 0.4755
C2_4 C 0.7702(9) 0.3851(4) 0.5700(4)
H2_4 H 0.7710 0.3853 0.6096
H3_4 H 0.8028 0.3519 0.5567
H4_4 H 0.6996 0.3004 0.4755
H5_4 H 0.6008 0.3004 0.4755
C3_4 C 0.6149(10) 0.2298(9) 0.5700(4)
C4_4 C 0.6149(12) 0.3851(8) 0.5700(4)
H6_4 H 0.6143 0.2290 0.6096
H7_4 H 0.6147 0.3857 0.6096
H8_4 H 0.8028 0.4509 0.5567
H9_4 H 0.5491 0.1972 0.5567
H10_4 H 0.6481 0.1972 0.5567
H11_4 H 0.6481 0.4509 0.5567
H12_4 H 0.5491 0.3519 0.5567
Pb18 Pb 0.140335(12) 0.280670(26) 0.024143(14)
Pb19 Pb 0.140335(23) 0.859665(12) 0.024143(14)
H45 H 0.0111 0.3797 0.1526
H46 H 0.0111 0.6314 0.1526
C113 C 0.0188(5) 0.5094(7) 0.1602(4)
H60 H 0.0492 0.5246 0.1944
O22 O 0.1121(3) 0.4040(5) 0.99231(19)
O23 O 0.1121(3) 0.7081(4) 0.99231(19)
O51 O 0.0441(4) 0.2958(7) 0.9249(2)
O52 O 0.0441(4) 0.7483(6) 0.9249(2)
C32 C 0.0690(5) 0.3763(9) 0.9460(3)
C33 C 0.0690(5) 0.6927(7) 0.9460(3)
C57 C 0.0682(3) 0.5341(5) 0.9420(4)
H27 H 0.0970 0.5485 0.9767
C77 C 0.0474(5) 0.4472(9) 0.9169(3)
C78 C 0.0474(5) 0.6002(7) 0.9169(3)
C100 C 0.0033(6) 0.4263(10) 0.8650(3)
C101 C 0.0033(6) 0.5770(8) 0.8650(3)
Pb16 Pb 0.719330(26) 0.859665(23) 0.024143(14)
O8 O 0.4040(5) 0.1121(3) 0.00769(19)
O9 O 0.7081(4) 0.1121(3) 0.00769(19)
O16 O 0.4040(5) 0.2919(4) 0.00769(19)
O17 O 0.7081(4) 0.5960(5) 0.00769(19)
O20 O 0.8879(3) 0.2919(4) 0.00769(19)
O21 O 0.8879(3) 0.5960(5) 0.00769(19)
O37 O 0.2958(7) 0.0441(4) 0.0751(2)
O38 O 0.7483(6) 0.0441(4) 0.0751(2)
O45 O 0.2958(7) 0.2517(6) 0.0751(2)
O46 O 0.7483(6) 0.7042(7) 0.0751(2)
O49 O 0.9559(4) 0.2517(6) 0.0751(2)
O50 O 0.9559(4) 0.7042(7) 0.0751(2)
O61 O 0.2958(7) 0.0441(4) 0.4249(2)
O84 O 0.1856(5) 0.3712(9) 0.1038(3)
C18 C 0.3763(9) 0.0690(5) 0.0540(3)
C19 C 0.6927(7) 0.0690(5) 0.0540(3)
C26 C 0.3763(9) 0.3073(7) 0.0540(3)
C27 C 0.6927(7) 0.6237(9) 0.0540(3)
C30 C 0.9310(5) 0.3073(7) 0.0540(3)
C31 C 0.9310(5) 0.6237(9) 0.0540(3)
C50 C 0.5341(5) 0.0682(3) 0.0580(4)
C54 C 0.5341(4) 0.4659(5) 0.0580(4)
C56 C 0.9318(3) 0.4659(4) 0.0580(4)
H20 H 0.5485 0.0970 0.0233
H24 H 0.5485 0.4515 0.0233
H26 H 0.9030 0.4515 0.0233
C63 C 0.4472(9) 0.0474(5) 0.0831(3)
C64 C 0.6002(7) 0.0474(5) 0.0831(3)
C71 C 0.4472(9) 0.3998(7) 0.0831(3)
C72 C 0.6002(7) 0.5528(9) 0.0831(3)
C75 C 0.9526(5) 0.3998(7) 0.0831(3)
C76 C 0.9526(5) 0.5528(9) 0.0831(3)
C86 C 0.4263(10) 0.0033(6) 0.1350(3)
C87 C 0.5770(8) 0.0033(6) 0.1350(3)
C94 C 0.4263(10) 0.4230(8) 0.1350(3)
C95 C 0.5770(8) 0.5737(10) 0.1350(3)
C98 C 0.9967(6) 0.4230(8) 0.1350(3)
C99 C 0.9967(6) 0.5737(10) 0.1350(3)
H41 H 0.3686 0.3797 0.1526
H42 H 0.6203 0.6314 0.1526
C111 C 0.4906(7) 0.5094(9) 0.1602(4)
H58 H 0.4754 0.5246 0.1944
H14 H 0.3797 0.0111 0.8474
C10 C 0.5094(7) 0.0188(5) 0.8398(4)
H15 H 0.5246 0.0492 0.8056
Pb4 Pb 0.280670(26) 0.140335(12) 0.975857(14)
Pb5 Pb 0.859665(12) 0.140335(23) 0.975857(14)
Pb11 Pb 0.859665(23) 0.719330(26) 0.975857(14)
Pb15 Pb 0.280670(26) 0.140335(23) 0.524143(14)
Pb17 Pb 0.859665(23) 0.140335(12) 0.524143(14)
O18 O 0.2919(4) 0.4040(5) 0.99231(19)
O19 O 0.5960(5) 0.7081(4) 0.99231(19)
O47 O 0.2517(6) 0.2958(7) 0.9249(2)
O48 O 0.7042(7) 0.7483(6) 0.9249(2)
O74 O 0.3712(9) 0.1856(5) 0.8962(3)
O75 O 0.3712(9) 0.1856(7) 0.6038(3)
O76 O 0.8144(5) 0.1856(7) 0.8962(3)
O77 O 0.8144(7) 0.1856(5) 0.6038(3)
O83 O 0.8144(7) 0.6288(9) 0.8962(3)
O90 O 0.2234(7) 0.1117(5) 0.8560(3)
O91 O 0.2234(7) 0.1117(5) 0.6440(3)
O92 O 0.8883(5) 0.1117(5) 0.8560(3)
O93 O 0.8883(5) 0.1117(5) 0.6440(3)
C28 C 0.3073(7) 0.3763(9) 0.9460(3)
C29 C 0.6237(9) 0.6927(7) 0.9460(3)
C43 C 0.3138(14) 0.1569(8) 0.8546(4)
C44 C 0.3138(14) 0.1569(12) 0.6454(4)
C45 C 0.8431(8) 0.1569(12) 0.8546(4)
C46 C 0.8431(12) 0.1569(8) 0.6454(4)
C55 C 0.4659(5) 0.5341(4) 0.9420(4)
H25 H 0.4515 0.5485 0.9767
C73 C 0.3998(7) 0.4472(9) 0.9169(3)
C74 C 0.5528(9) 0.6002(7) 0.9169(3)
C96 C 0.4230(8) 0.4263(10) 0.8650(3)
C97 C 0.5737(10) 0.5770(8) 0.8650(3)
H30 H 0.6314 0.0111 0.8474
H43 H 0.3797 0.3686 0.8474
H44 H 0.6314 0.6203 0.8474
H47 H 0.9889 0.3686 0.8474
H48 H 0.9889 0.6203 0.8474
C112 C 0.5094(9) 0.4906(7) 0.8398(4)
C114 C 0.9812(5) 0.4906(9) 0.8398(4)
H59 H 0.5246 0.4754 0.8056
H61 H 0.9508 0.4754 0.8056
C119 C 0.3125(16) 0.1563(11) 0.7500
C120 C 0.8438(12) 0.1563(11) 0.7500
H66 H 0.2448 0.1224 0.7500
H67 H 0.8776 0.1224 0.7500
C127 C 0.3659(13) 0.1830(7) 0.8000(4)
C128 C 0.3659(13) 0.1829(11) 0.7000(4)
C129 C 0.8171(11) 0.1830(7) 0.8000(4)
C130 C 0.8170(7) 0.1829(11) 0.7000(4)
C138 C 0.4653(16) 0.2327(9) 0.7990(5)
C139 C 0.4653(16) 0.2326(13) 0.7010(5)
C140 C 0.7674(13) 0.2327(9) 0.7990(5)
C141 C 0.7673(9) 0.2326(13) 0.7010(5)
H74 H 0.5000 0.2500 0.8319
H75 H 0.5000 0.2500 0.6681
H76 H 0.7500 0.2500 0.8319
H77 H 0.7500 0.2500 0.6681
C146 C 0.5139(24) 0.2569(16) 0.7500
C147 C 0.7430(18) 0.2569(16) 0.7500
H82 H 0.5816 0.2908 0.7500
H83 H 0.7092 0.2908 0.7500
O3 O 0.1856(7) 0.8144(5) 0.1038(3)
O4 O 0.1117(5) 0.8883(5) 0.1440(3)
C6 C 0.1569(12) 0.8431(8) 0.1454(4)
C11 C 0.1562(12) 0.8437(11) 0.2500
H16 H 0.1224 0.8776 0.2500
C12 C 0.1829(11) 0.8170(7) 0.2000(4)
C13 C 0.2326(13) 0.7673(9) 0.2010(5)
H17 H 0.2500 0.7500 0.1681
C14 C 0.2570(18) 0.7431(16) 0.2500
H18 H 0.2908 0.7092 0.2500
Pb8 Pb 0.140335(12) 0.859665(23) 0.475857(14)
Pb13 Pb 0.719330(26) 0.859665(12) 0.475857(14)
Pb14 Pb 0.140335(23) 0.280670(26) 0.475857(14)
O29 O 0.1121(3) 0.7081(4) 0.50769(19)
O30 O 0.2919(4) 0.8879(3) 0.50769(19)
O59 O 0.0441(4) 0.7483(6) 0.5751(2)
O62 O 0.2517(6) 0.9559(4) 0.5751(2)
O69 O 0.1856(5) 0.8144(7) 0.3962(3)
O70 O 0.6288(9) 0.8144(7) 0.1038(3)
O71 O 0.6288(9) 0.8144(5) 0.3962(3)
O73 O 0.1856(7) 0.3712(9) 0.3962(3)
O85 O 0.1117(5) 0.8883(5) 0.3560(3)
O86 O 0.7766(7) 0.8883(5) 0.1440(3)
O87 O 0.7766(7) 0.8883(5) 0.3560(3)
O88 O 0.1117(5) 0.2234(7) 0.1440(3)
O89 O 0.1117(5) 0.2234(7) 0.3560(3)
C38 C 0.1569(8) 0.8431(12) 0.3546(4)
C39 C 0.6862(14) 0.8431(12) 0.1454(4)
C40 C 0.6862(14) 0.8431(8) 0.3546(4)
C41 C 0.1569(8) 0.3138(14) 0.1454(4)
C42 C 0.1569(12) 0.3138(14) 0.3546(4)
H33 H 0.3686 0.9889 0.1526
H34 H 0.6203 0.9889 0.1526
C107 C 0.4906(9) 0.9812(5) 0.1602(4)
H54 H 0.4754 0.9508 0.1944
C117 C 0.6875(16) 0.8437(11) 0.2500
C118 C 0.1563(11) 0.3125(16) 0.2500
H64 H 0.7552 0.8776 0.2500
H65 H 0.1224 0.2448 0.2500
C122 C 0.1830(7) 0.8171(11) 0.3000(4)
C123 C 0.6341(13) 0.8170(7) 0.2000(4)
C124 C 0.6341(13) 0.8171(11) 0.3000(4)
C125 C 0.1830(7) 0.3659(13) 0.2000(4)
C126 C 0.1829(11) 0.3659(13) 0.3000(4)
C133 C 0.2327(9) 0.7674(13) 0.2990(5)
C134 C 0.5347(16) 0.7673(9) 0.2010(5)
C135 C 0.5347(16) 0.7674(13) 0.2990(5)
C136 C 0.2327(9) 0.4653(16) 0.2010(5)
C137 C 0.2326(13) 0.4653(16) 0.2990(5)
H69 H 0.2500 0.7500 0.3319
H70 H 0.5000 0.7500 0.1681
H71 H 0.5000 0.7500 0.3319
H72 H 0.2500 0.5000 0.1681
H73 H 0.2500 0.5000 0.3319
C144 C 0.4861(24) 0.7431(16) 0.2500
C145 C 0.2569(16) 0.5139(24) 0.2500
H80 H 0.4184 0.7092 0.2500
H81 H 0.2908 0.5816 0.2500
O1 O 0.2919(4) 0.8879(3) 0.99231(19)
O2 O 0.2517(6) 0.9559(4) 0.9249(2)
C5 C 0.3073(7) 0.9310(5) 0.9460(3)
C7 C 0.4659(4) 0.9318(3) 0.9420(4)
H13 H 0.4515 0.9030 0.9767
C8 C 0.3998(7) 0.9526(5) 0.9169(3)
C9 C 0.4230(8) 0.9967(6) 0.8650(3)
O5 O 0.5960(5) 0.8879(3) 0.99231(19)
O34 O 0.7042(7) 0.9559(4) 0.9249(2)
C15 C 0.6237(9) 0.9310(5) 0.9460(3)
C60 C 0.5528(9) 0.9526(5) 0.9169(3)
C83 C 0.5737(10) 0.9967(6) 0.8650(3)
O60 O 0.9559(4) 0.7042(7) 0.4249(2)
Pb20 Pb 0.859665(12) 0.719330(26) 0.524143(14)
O79 O 0.8144(5) 0.6288(9) 0.6038(3)
O94 O 0.8883(5) 0.7766(7) 0.8560(3)
O95 O 0.8883(5) 0.7766(7) 0.6440(3)
C47 C 0.8431(12) 0.6862(14) 0.8546(4)
C48 C 0.8431(8) 0.6862(14) 0.6454(4)
C121 C 0.8437(11) 0.6875(16) 0.7500
H68 H 0.8776 0.7552 0.7500
C131 C 0.8170(7) 0.6341(13) 0.8000(4)
C132 C 0.8171(11) 0.6341(13) 0.7000(4)
C142 C 0.7673(9) 0.5347(16) 0.7990(5)
C143 C 0.7674(13) 0.5347(16) 0.7010(5)
H78 H 0.7500 0.5000 0.8319
H79 H 0.7500 0.5000 0.6681
C148 C 0.7431(16) 0.4861(24) 0.7500
H84 H 0.7092 0.4184 0.7500
O15 O 0.1121(6) 0.4040(5) 0.50769(19)
O32 O 0.2919(6) 0.4040(5) 0.50769(19)
O44 O 0.0441(9) 0.2958(7) 0.5751(2)
O65 O 0.2958(7) 0.2517(6) 0.4249(2)
O66 O 0.2517(8) 0.2958(7) 0.5751(2)
C24 C 0.0690(11) 0.6927(7) 0.5540(3)
C25 C 0.0690(11) 0.3763(9) 0.5540(3)
C53 C 0.0682(6) 0.5341(4) 0.5580(4)
H23 H 0.0970 0.5485 0.5233
C69 C 0.0474(11) 0.6002(7) 0.5831(3)
C70 C 0.0474(11) 0.4472(9) 0.5831(3)
C92 C 0.0033(13) 0.5770(8) 0.6350(3)
C93 C 0.0033(13) 0.4263(10) 0.6350(3)
H37 H 0.0111 0.6314 0.3474
H38 H 0.0111 0.3797 0.3474
C109 C 0.0188(11) 0.5094(9) 0.3398(4)
H56 H 0.0492 0.5246 0.3056
O22_2 O 0.7081(6) 0.1121(3) 0.49231(19)
O23_2 O 0.4040(5) 0.1121(3) 0.49231(19)
O51_2 O 0.7483(8) 0.0441(4) 0.4249(2)
C32_2 C 0.6927(10) 0.0690(5) 0.4460(3)
C33_2 C 0.3763(9) 0.0690(5) 0.4460(3)
C57_2 C 0.5341(6) 0.0682(3) 0.4420(4)
H27_2 H 0.5485 0.0970 0.4767
C77_2 C 0.6002(10) 0.0474(5) 0.4169(3)
C78_2 C 0.4472(9) 0.0474(5) 0.4169(3)
C100_2 C 0.5770(12) 0.0033(6) 0.3650(3)
C101_2 C 0.4263(10) 0.0033(6) 0.3650(3)
H45_2 H 0.6314 0.0111 0.6526
H46_2 H 0.3797 0.0111 0.6526
C113_2 C 0.5094(9) 0.0188(5) 0.6602(4)
H60_2 H 0.5246 0.0492 0.6944
O1_2 O 0.4040(5) 0.2919(4) 0.49231(19)
C5_2 C 0.3763(9) 0.3073(7) 0.4460(3)
C7_2 C 0.5341(5) 0.4659(4) 0.4420(4)
H13_2 H 0.5485 0.4515 0.4767
C8_2 C 0.4472(9) 0.3998(7) 0.4169(3)
C9_2 C 0.4263(10) 0.4230(8) 0.3650(3)
H14_2 H 0.3686 0.3797 0.3474
C10_2 C 0.4906(9) 0.5094(7) 0.3398(4)
H15_2 H 0.4754 0.5246 0.3056
O5_2 O 0.7081(6) 0.5960(5) 0.49231(19)
O9_2 O 0.5960(5) 0.7081(4) 0.50769(19)
O12 O 0.8879(6) 0.5960(5) 0.49231(19)
O13 O 0.8879(6) 0.2919(4) 0.49231(19)
O20_2 O 0.5960(5) 0.8879(3) 0.50769(19)
O34_2 O 0.7483(8) 0.7042(7) 0.4249(2)
O38_2 O 0.7042(7) 0.7483(6) 0.5751(2)
O42 O 0.9559(9) 0.2517(6) 0.4249(2)
O49_2 O 0.7042(7) 0.9559(4) 0.5751(2)
C15_2 C 0.6927(10) 0.6237(9) 0.4460(3)
C18_2 C 0.3073(10) 0.3763(9) 0.5540(3)
C19_2 C 0.6237(9) 0.6927(7) 0.5540(3)
C22 C 0.9310(11) 0.6237(9) 0.4460(3)
C23 C 0.9310(11) 0.3073(7) 0.4460(3)
C30_2 C 0.6237(9) 0.9310(5) 0.5540(3)
C31_2 C 0.3073(10) 0.9310(5) 0.5540(3)
C50_2 C 0.4659(6) 0.5341(5) 0.5580(4)
C52 C 0.9318(6) 0.4659(5) 0.4420(4)
C56_2 C 0.4659(5) 0.9318(3) 0.5580(4)
H20_2 H 0.4515 0.5485 0.5233
H22 H 0.9030 0.4515 0.4767
H26_2 H 0.4515 0.9030 0.5233
C60_2 C 0.6002(10) 0.5528(9) 0.4169(3)
C63_2 C 0.3998(10) 0.4472(9) 0.5831(3)
C64_2 C 0.5528(9) 0.6002(7) 0.5831(3)
C67 C 0.9526(11) 0.5528(9) 0.4169(3)
C68 C 0.9526(11) 0.3998(7) 0.4169(3)
C75_2 C 0.5528(9) 0.9526(5) 0.5831(3)
C76_2 C 0.3998(10) 0.9526(5) 0.5831(3)
C83_2 C 0.5770(12) 0.5737(10) 0.3650(3)
C86_2 C 0.4230(12) 0.4263(10) 0.6350(3)
C87_2 C 0.5737(10) 0.5770(8) 0.6350(3)
C90 C 0.9967(13) 0.5737(10) 0.3650(3)
C91 C 0.9967(13) 0.4230(8) 0.3650(3)
C98_2 C 0.5737(10) 0.9967(6) 0.6350(3)
C99_2 C 0.4230(12) 0.9967(6) 0.6350(3)
H30_2 H 0.6203 0.6314 0.3474
H33_2 H 0.3797 0.3686 0.6526
H34_2 H 0.6314 0.6203 0.6526
H39 H 0.9889 0.6203 0.6526
H40 H 0.9889 0.3686 0.6526
H47_2 H 0.6203 0.9889 0.3474
H48_2 H 0.3686 0.9889 0.3474
C107_2 C 0.5094(10) 0.4906(9) 0.6602(4)
C110 C 0.9812(11) 0.4906(7) 0.6602(4)
C114_2 C 0.4906(10) 0.9812(5) 0.3398(4)
H54_2 H 0.5246 0.4754 0.6944
H57 H 0.9508 0.4754 0.6944
H61_2 H 0.4754 0.9508 0.3056
loop_
_geom_bond_atom_site_label_1
_geom_bond_atom_site_label_2
_geom_bond_site_symmetry_1
_geom_bond_site_symmetry_2
N1 C1 1_555 1_555
C1 H1 1_555 1_555
C2 N1 1_555 1_555
H2 C2 1_555 1_555
H3 C2 1_555 1_555
H4 C1 1_555 1_555
H5 C1 1_555 1_555
C3 N1 1_555 1_555
C4 N1 1_555 1_555
H6 C3 1_555 1_555
H7 C4 1_555 1_555
H8 C2 1_555 1_555
H9 C3 1_555 1_555
H10 C3 1_555 1_555
H11 C4 1_555 1_555
H12 C4 1_555 1_555
C1_2 H1_2 1_555 1_555
H4_2 C1_2 1_555 1_555
H5_2 C1_2 1_555 1_555
C2_2 N1_2 1_555 1_555
H2_2 C2_2 1_555 1_555
H3_2 C2_2 1_555 1_555
C3_2 N1_2 1_555 1_555
C4_2 N1_2 1_555 1_555
H6_2 C3_2 1_555 1_555
H7_2 C4_2 1_555 1_555
H8_2 C2_2 1_555 1_555
H9_2 C3_2 1_555 1_555
H10_2 C3_2 1_555 1_555
H11_2 C4_2 1_555 1_555
H12_2 C4_2 1_555 1_555
C2_3 N1_3 1_555 1_555
H2_3 C2_3 1_555 1_555
H3_3 C2_3 1_555 1_555
C3_3 N1_3 1_555 1_555
C4_3 N1_3 1_555 1_555
H6_3 C3_3 1_555 1_555
H7_3 C4_3 1_555 1_555
H8_3 C2_3 1_555 1_555
H9_3 C3_3 1_555 1_555
H10_3 C3_3 1_555 1_555
H11_3 C4_3 1_555 1_555
H12_3 C4_3 1_555 1_555
C1_3 H1_3 1_555 1_555
H4_3 C1_3 1_555 1_555
H5_3 C1_3 1_555 1_555
N1_4 C1_4 1_555 1_555
C1_4 H1_4 1_555 1_555
C2_4 N1_4 1_555 1_555
H2_4 C2_4 1_555 1_555
H3_4 C2_4 1_555 1_555
H4_4 C1_4 1_555 1_555
H5_4 C1_4 1_555 1_555
C3_4 N1_4 1_555 1_555
C4_4 N1_4 1_555 1_555
H6_4 C3_4 1_555 1_555
H7_4 C4_4 1_555 1_555
H8_4 C2_4 1_555 1_555
H9_4 C3_4 1_555 1_555
H10_4 C3_4 1_555 1_555
H11_4 C4_4 1_555 1_555
H12_4 C4_4 1_555 1_555
H60 C113 1_555 1_555
O22 C32 1_555 1_555
O23 C33 1_555 1_555
C32 O51 1_555 1_555
C33 O52 1_555 1_555
C57 H27 1_555 1_555
C77 C32 1_555 1_555
C78 C33 1_555 1_555
C100 C77 1_555 1_555
C101 C78 1_555 1_555
C57 C77 1_555 1_555
C57 C78 1_555 1_555
O9 C19 1_555 1_555
O17 C27 1_555 1_555
O84 Pb18 1_555 1_555
C18 O8 1_555 1_555
C19 O38 1_555 1_555
C26 O16 1_555 1_555
C27 O46 1_555 1_555
C30 O20 1_555 1_555
C31 O21 1_555 1_555
C50 H20 1_555 1_555
C54 H24 1_555 1_555
C56 H26 1_555 1_555
C63 C18 1_555 1_555
C64 C19 1_555 1_555
C71 C26 1_555 1_555
C72 C27 1_555 1_555
C75 C30 1_555 1_555
C76 C31 1_555 1_555
C86 C63 1_555 1_555
C87 C64 1_555 1_555
C94 C71 1_555 1_555
C95 C72 1_555 1_555
C98 C75 1_555 1_555
C99 C76 1_555 1_555
H41 C94 1_555 1_555
H42 C95 1_555 1_555
C111 C94 1_555 1_555
H58 C111 1_555 1_555
Pb18 O45 1_555 1_555
Pb16 O46 1_555 1_555
O37 C18 1_555 1_555
O45 C26 1_555 1_555
O49 C30 1_555 1_555
O50 C31 1_555 1_555
C50 C63 1_555 1_555
C50 C64 1_555 1_555
C54 C71 1_555 1_555
C54 C72 1_555 1_555
C56 C75 1_555 1_555
C56 C76 1_555 1_555
C95 C111 1_555 1_555
H15 C10 1_555 1_555
Pb15 O75 1_555 1_555
Pb17 O77 1_555 1_555
O18 C28 1_555 1_555
O19 C29 1_555 1_555
O47 Pb4 1_555 1_555
O48 Pb11 1_555 1_555
O74 Pb4 1_555 1_555
O75 C44 1_555 1_555
O76 Pb5 1_555 1_555
O77 C46 1_555 1_555
O83 Pb11 1_555 1_555
O90 C43 1_555 1_555
O91 C44 1_555 1_555
O92 C45 1_555 1_555
O93 C46 1_555 1_555
C28 O47 1_555 1_555
C29 O48 1_555 1_555
C43 O74 1_555 1_555
C44 C128 1_555 1_555
C45 O76 1_555 1_555
C46 C130 1_555 1_555
C55 H25 1_555 1_555
C73 C28 1_555 1_555
C74 C29 1_555 1_555
C96 C73 1_555 1_555
C97 C74 1_555 1_555
H43 C96 1_555 1_555
H44 C97 1_555 1_555
C112 C96 1_555 1_555
H59 C112 1_555 1_555
H61 C114 1_555 1_555
C119 H66 1_555 1_555
C120 H67 1_555 1_555
C127 C43 1_555 1_555
C128 C119 1_555 1_555
C129 C45 1_555 1_555
C130 C120 1_555 1_555
C138 C127 1_555 1_555
C139 C128 1_555 1_555
C140 C129 1_555 1_555
C141 C130 1_555 1_555
H74 C138 1_555 1_555
H75 C139 1_555 1_555
H76 C140 1_555 1_555
H77 C141 1_555 1_555
C146 C138 1_555 1_555
C147 C140 1_555 1_555
H82 C146 1_555 1_555
H83 C147 1_555 1_555
C55 C73 1_555 1_555
C55 C74 1_555 1_555
C97 C112 1_555 1_555
C119 C127 1_555 1_555
C120 C129 1_555 1_555
C139 C146 1_555 1_555
C141 C147 1_555 1_555
O3 Pb19 1_555 1_555
O4 C6 1_555 1_555
C6 O3 1_555 1_555
C11 H16 1_555 1_555
C12 C6 1_555 1_555
C13 C12 1_555 1_555
H17 C13 1_555 1_555
C14 C13 1_555 1_555
H18 C14 1_555 1_555
Pb8 O29 1_555 1_555
Pb13 O71 1_555 1_555
Pb14 O73 1_555 1_555
O30 Pb8 1_555 1_555
O59 Pb8 1_555 1_555
O62 Pb8 1_555 1_555
O69 Pb8 1_555 1_555
O70 Pb16 1_555 1_555
O71 C40 1_555 1_555
O73 C42 1_555 1_555
O85 C38 1_555 1_555
O86 C39 1_555 1_555
O87 C40 1_555 1_555
O88 C41 1_555 1_555
O89 C42 1_555 1_555
C38 O69 1_555 1_555
C39 O70 1_555 1_555
C40 C124 1_555 1_555
C41 O84 1_555 1_555
C42 C126 1_555 1_555
H54 C107 1_555 1_555
C117 H64 1_555 1_555
C118 H65 1_555 1_555
C122 C11 1_555 1_555
C123 C39 1_555 1_555
C124 C117 1_555 1_555
C125 C41 1_555 1_555
C126 C118 1_555 1_555
C133 C14 1_555 1_555
C134 C123 1_555 1_555
C135 C124 1_555 1_555
C136 C125 1_555 1_555
C137 C126 1_555 1_555
H69 C133 1_555 1_555
H70 C134 1_555 1_555
H71 C135 1_555 1_555
H72 C136 1_555 1_555
H73 C137 1_555 1_555
C144 C134 1_555 1_555
C145 C136 1_555 1_555
H80 C144 1_555 1_555
H81 C145 1_555 1_555
C11 C12 1_555 1_555
C38 C122 1_555 1_555
C117 C123 1_555 1_555
C118 C125 1_555 1_555
C122 C133 1_555 1_555
C135 C144 1_555 1_555
C137 C145 1_555 1_555
O1 C5 1_555 1_555
C5 O2 1_555 1_555
C7 H13 1_555 1_555
C8 C5 1_555 1_555
C9 C8 1_555 1_555
O5 C15 1_555 1_555
C15 O34 1_555 1_555
C60 C7 1_555 1_555
C7 C8 1_555 1_555
C15 C60 1_555 1_555
C60 C83 1_555 1_555
Pb20 O79 1_555 1_555
O79 C48 1_555 1_555
O94 C47 1_555 1_555
O95 C48 1_555 1_555
C47 O83 1_555 1_555
C48 C132 1_555 1_555
C121 H68 1_555 1_555
C131 C47 1_555 1_555
C132 C121 1_555 1_555
C142 C131 1_555 1_555
C143 C132 1_555 1_555
H78 C142 1_555 1_555
H79 C143 1_555 1_555
C148 C142 1_555 1_555
H84 C148 1_555 1_555
C121 C131 1_555 1_555
C143 C148 1_555 1_555
Pb14 O15 1_555 1_555
O29 C24 1_555 1_555
O15 C25 1_555 1_555
O32 Pb14 1_555 1_555
O65 Pb14 1_555 1_555
O66 Pb14 1_555 1_555
C24 O59 1_555 1_555
C25 O44 1_555 1_555
C53 H23 1_555 1_555
C69 C24 1_555 1_555
C70 C25 1_555 1_555
C92 C69 1_555 1_555
C93 C70 1_555 1_555
H56 C109 1_555 1_555
Pb14 O44 1_555 1_555
C53 C69 1_555 1_555
C53 C70 1_555 1_555
Pb17 O22_2 1_555 1_555
Pb15 O23_2 1_555 1_555
O22_2 C32_2 1_555 1_555
O23_2 C33_2 1_555 1_555
C32_2 O51_2 1_555 1_555
C33_2 O61 1_555 1_555
C57_2 H27_2 1_555 1_555
C77_2 C32_2 1_555 1_555
C78_2 C33_2 1_555 1_555
C100_2 C77_2 1_555 1_555
C101_2 C78_2 1_555 1_555
H60_2 C113_2 1_555 1_555
Pb17 O51_2 1_555 1_555
Pb15 O61 1_555 1_555
C57_2 C77_2 1_555 1_555
C57_2 C78_2 1_555 1_555
Pb15 O1_2 1_555 1_555
O1_2 C5_2 1_555 1_555
O65 Pb15 1_555 1_555
C5_2 O65 1_555 1_555
C7_2 H13_2 1_555 1_555
C8_2 C5_2 1_555 1_555
C9_2 C8_2 1_555 1_555
H14_2 C9_2 1_555 1_555
C10_2 C9_2 1_555 1_555
H15_2 C10_2 1_555 1_555
Pb20 O5_2 1_555 1_555
Pb13 O9_2 1_555 1_555
O5_2 C15_2 1_555 1_555
O9_2 C19_2 1_555 1_555
O12 Pb20 1_555 1_555
O13 Pb17 1_555 1_555
O20_2 Pb13 1_555 1_555
O34_2 Pb20 1_555 1_555
O66 Pb15 1_555 1_555
O38_2 Pb20 1_555 1_555
O60 Pb20 1_555 1_555
O42 Pb17 1_555 1_555
O49_2 Pb13 1_555 1_555
C15_2 O34_2 1_555 1_555
C18_2 O32 1_555 1_555
C19_2 O38_2 1_555 1_555
C22 O12 1_555 1_555
C23 O13 1_555 1_555
C30_2 O20_2 1_555 1_555
C31_2 O30 1_555 1_555
C50_2 H20_2 1_555 1_555
C52 H22 1_555 1_555
C56_2 H26_2 1_555 1_555
C60_2 C7_2 1_555 1_555
C63_2 C18_2 1_555 1_555
C64_2 C19_2 1_555 1_555
C67 C22 1_555 1_555
C68 C23 1_555 1_555
C75_2 C30_2 1_555 1_555
C76_2 C31_2 1_555 1_555
C83_2 C10_2 1_555 1_555
C86_2 C63_2 1_555 1_555
C87_2 C64_2 1_555 1_555
C90 C67 1_555 1_555
C91 C68 1_555 1_555
C98_2 C75_2 1_555 1_555
C99_2 C76_2 1_555 1_555
H30_2 C83_2 1_555 1_555
H33_2 C86_2 1_555 1_555
H34_2 C87_2 1_555 1_555
C107_2 C86_2 1_555 1_555
H54_2 C107_2 1_555 1_555
H57 C110 1_555 1_555
H61_2 C114_2 1_555 1_555
C7_2 C8_2 1_555 1_555
Pb13 O34_2 1_555 1_555
Pb13 O38_2 1_555 1_555
O66 C18_2 1_555 1_555
O60 C22 1_555 1_555
O42 C23 1_555 1_555
O49_2 C30_2 1_555 1_555
O62 C31_2 1_555 1_555
C15_2 C60_2 1_555 1_555
C50_2 C63_2 1_555 1_555
C50_2 C64_2 1_555 1_555
C52 C67 1_555 1_555
C52 C68 1_555 1_555
C56_2 C75_2 1_555 1_555
C56_2 C76_2 1_555 1_555
C60_2 C83_2 1_555 1_555
C87_2 C107_2 1_555 1_555

#END
