
###############################################################################
#
# This file contains modified crystal structure data generated from the
# MOF subset of the Cambridge Structural Database (CSD) v543 
# hosted by the Cambridge Crystallographic Data Centre (CCDC).
#
# This work is licensed under the Creative Commons
# Attribution-NonCommercial-ShareAlike 4.0 International License.
# To view a copy of this license, visit
# http://creativecommons.org/licenses/by-nc-sa/4.0/
# or send a letter to
# Creative Commons, PO Box 1866, Mountain View, CA 94042, USA.
#
# CIF created using the CSD Python API on 29 September 2022
# The structure has been converted into the P1 space group
# The structure has a 3D framework
# The original CSD entry FASFOX is in the tetragonal crystal system
# The framework has been calculated to contain at least 10.0% void space
# The void calculation uses a probe of radius 1.32A, grid spacing 0.4
# H atom positions have been added when not included in the experimental data
# Generated hydrogen atom positions removed from atoms on special positions
#
###############################################################################

data_FASFOX
_chemical_formula_moiety         '(C116 H124 La1 N12 O40 S12 10+)n'
_symmetry_cell_setting           triclinic
_symmetry_space_group_name_H-M   'P 1'
_symmetry_Int_Tables_number      1
_space_group_name_Hall           'P 1'
loop_
_symmetry_equiv_pos_site_id
_symmetry_equiv_pos_as_xyz
1 x,y,z
_cell_length_a                   15.440(4)
_cell_length_b                   15.440(4)
_cell_length_c                   10.021(4)
_cell_angle_alpha                90
_cell_angle_beta                 90
_cell_angle_gamma                90
_cell_volume                     2388.94
loop_
_atom_site_label
_atom_site_type_symbol
_atom_site_fract_x
_atom_site_fract_y
_atom_site_fract_z
N1 N 0.1290(3) 0.0305(3) 0.0000
C7 C 0.2757(4) 0.0203(3) 0.0000
C8 C 0.2562(3) 0.1049(3) 0.0000
H4 H 0.2957 0.1504 0.0000
C9 C 0.1652(3) 0.1126(3) 0.0000
S2 S 0.31495(7) 0.52633(7) 0.0000
O3 O 0.36700(17) 0.53163(16) 0.1179(3)
O4 O 0.24649(19) 0.58815(19) 0.0000
C10 C 0.2641(3) 0.4241(3) 0.0000
C13 C 0.1689(3) 0.2712(3) 0.0000
C14 C 0.1181(3) 0.1898(3) 0.0000
C15 C 0.0281(3) 0.1973(3) 0.0000
H7 H 0.0029 0.3313 0.0000
C32 C 0.2418(2) 0.3864(2) 0.1190(4)
H17 H 0.2584 0.4114 0.1996
C33 C 0.1937(2) 0.3101(2) 0.1169(5)
H18 H 0.1780 0.2846 0.1974
La4 La 0.5000 0.5000 0.2500
N1_2 N 0.1290(3) 0.0305(3) 1.0000
C7_2 C 0.2757(4) 0.0203(3) 1.0000
C8_2 C 0.2562(3) 0.1049(3) 1.0000
H4_2 H 0.2957 0.1504 1.0000
C9_2 C 0.1652(3) 0.1126(3) 1.0000
S2_2 S 0.31495(7) 0.52633(7) 1.0000
O4_2 O 0.24649(19) 0.58815(19) 1.0000
C10_2 C 0.2641(3) 0.4241(3) 1.0000
C11 C 0.2418(2) 0.3864(2) 0.8810(4)
H5 H 0.2584 0.4114 0.8004
C12 C 0.1937(2) 0.3101(2) 0.8831(5)
H6 H 0.1780 0.2846 0.8026
C13_2 C 0.1689(3) 0.2712(3) 1.0000
C14_2 C 0.1181(3) 0.1898(3) 1.0000
C15_2 C 0.0281(3) 0.1973(3) 1.0000
H7_2 H 0.0029 0.3313 1.0000
O9 O 0.36700(17) 0.53163(16) 0.8821(3)
La8 La 0.5000 0.5000 0.7500
S1 S 0.52633(7) 0.68505(7) 0.0000
O1 O 0.53163(16) 0.63300(17) 0.1179(3)
O2 O 0.58815(19) 0.75351(19) 0.0000
C1 C 0.4241(3) 0.7359(3) 0.0000
C4 C 0.2712(3) 0.8311(3) 0.0000
C5 C 0.1898(3) 0.8819(3) 0.0000
C6 C 0.1973(3) 0.9719(3) 0.0000
H3 H 0.3313 0.9971 0.0000
N3 N 0.0305(3) 0.8710(3) 0.0000
C25 C 0.0203(3) 0.7243(4) 0.0000
C26 C 0.1049(3) 0.7438(3) 0.0000
H12 H 0.1504 0.7043 0.0000
C27 C 0.1126(3) 0.8348(3) 0.0000
C28 C 0.3864(2) 0.7582(2) 0.1190(4)
H13 H 0.4114 0.7416 0.1996
C29 C 0.3101(2) 0.8063(2) 0.1169(5)
H14 H 0.2846 0.8220 0.1974
O13 O 0.46837(16) 0.36700(17) 0.1179(3)
O15 O 0.63300(17) 0.46837(16) 0.1179(3)
O16 O 0.46837(16) 0.63300(17) 0.3821(3)
O17 O 0.53163(16) 0.36700(17) 0.3821(3)
O18 O 0.63300(17) 0.53163(16) 0.3821(3)
O19 O 0.36700(17) 0.46837(16) 0.3821(3)
H26 H 0.0159485 0.935108 0
S1_2 S 0.52633(7) 0.68505(7) 1.0000
O2_2 O 0.58815(19) 0.75351(19) 1.0000
C1_2 C 0.4241(3) 0.7359(3) 1.0000
C2 C 0.3864(2) 0.7582(2) 0.8810(4)
H1 H 0.4114 0.7416 0.8004
C3 C 0.3101(2) 0.8063(2) 0.8831(5)
H2 H 0.2846 0.8220 0.8026
C4_2 C 0.2712(3) 0.8311(3) 1.0000
C5_2 C 0.1898(3) 0.8819(3) 1.0000
C6_2 C 0.1973(3) 0.9719(3) 1.0000
H3_2 H 0.3313 0.9971 1.0000
N3_2 N 0.0305(3) 0.8710(3) 1.0000
C25_2 C 0.0203(3) 0.7243(4) 1.0000
C26_2 C 0.1049(3) 0.7438(3) 1.0000
H12_2 H 0.1504 0.7043 1.0000
C27_2 C 0.1126(3) 0.8348(3) 1.0000
O7 O 0.53163(16) 0.63300(17) 0.8821(3)
H26_2 H 0.0159485 0.935108 1
N2 N 0.9695(3) 0.1290(3) 0.0000
C16 C 0.9797(3) 0.2757(4) 0.0000
C17 C 0.8951(3) 0.2562(3) 0.0000
H8 H 0.8496 0.2957 0.0000
C18 C 0.8874(3) 0.1652(3) 0.0000
S4 S 0.47367(7) 0.31495(7) 0.0000
O11 O 0.41185(19) 0.24649(19) 0.0000
C34 C 0.5759(3) 0.2641(3) 0.0000
C37 C 0.7288(3) 0.1689(3) 0.0000
C38 C 0.8102(3) 0.1181(3) 0.0000
C39 C 0.8027(3) 0.0281(3) 0.0000
H21 H 0.6687 0.0029 0.0000
C43 C 0.6136(2) 0.2418(2) 0.1190(4)
H23 H 0.5886 0.2584 0.1996
C44 C 0.6899(2) 0.1937(2) 0.1169(5)
H24 H 0.7154 0.1780 0.1974
H25 H 0.984051 0.0648924 0
N2_2 N 0.9695(3) 0.1290(3) 1.0000
C16_2 C 0.9797(3) 0.2757(4) 1.0000
C17_2 C 0.8951(3) 0.2562(3) 1.0000
H8_2 H 0.8496 0.2957 1.0000
C18_2 C 0.8874(3) 0.1652(3) 1.0000
S4_2 S 0.47367(7) 0.31495(7) 1.0000
O11_2 O 0.41185(19) 0.24649(19) 1.0000
C34_2 C 0.5759(3) 0.2641(3) 1.0000
C35 C 0.6136(2) 0.2418(2) 0.8810(4)
H19 H 0.5886 0.2584 0.8004
C36 C 0.6899(2) 0.1937(2) 0.8831(5)
H20 H 0.7154 0.1780 0.8026
C37_2 C 0.7288(3) 0.1689(3) 1.0000
C38_2 C 0.8102(3) 0.1181(3) 1.0000
C39_2 C 0.8027(3) 0.0281(3) 1.0000
H21_2 H 0.6687 0.0029 1.0000
O12 O 0.46837(16) 0.36700(17) 0.8821(3)
H25_2 H 0.984051 0.0648924 1
S3 S 0.68505(7) 0.47367(7) 0.0000
O6 O 0.75351(19) 0.41185(19) 0.0000
C19 C 0.7359(3) 0.5759(3) 0.0000
C22 C 0.8311(3) 0.7288(3) 0.0000
C23 C 0.8819(3) 0.8102(3) 0.0000
C24 C 0.9719(3) 0.8027(3) 0.0000
H11 H 0.9971 0.6687 0.0000
C30 C 0.7582(2) 0.6136(2) 0.1190(4)
H15 H 0.7416 0.5886 0.1996
C31 C 0.8063(2) 0.6899(2) 0.1169(5)
H16 H 0.8220 0.7154 0.1974
N4 N 0.8710(3) 0.9695(3) 0.0000
C40 C 0.7243(4) 0.9797(3) 0.0000
C41 C 0.7438(3) 0.8951(3) 0.0000
H22 H 0.7043 0.8496 0.0000
C42 C 0.8348(3) 0.8874(3) 0.0000
S3_2 S 0.68505(7) 0.47367(7) 1.0000
O6_2 O 0.75351(19) 0.41185(19) 1.0000
C19_2 C 0.7359(3) 0.5759(3) 1.0000
C20 C 0.7582(2) 0.6136(2) 0.8810(4)
H9 H 0.7416 0.5886 0.8004
C21 C 0.8063(2) 0.6899(2) 0.8831(5)
H10 H 0.8220 0.7154 0.8026
C22_2 C 0.8311(3) 0.7288(3) 1.0000
C23_2 C 0.8819(3) 0.8102(3) 1.0000
C24_2 C 0.9719(3) 0.8027(3) 1.0000
H11_2 H 0.9971 0.6687 1.0000
O8 O 0.63300(17) 0.46837(16) 0.8821(3)
N4_2 N 0.8710(3) 0.9695(3) 1.0000
C40_2 C 0.7243(4) 0.9797(3) 1.0000
C41_2 C 0.7438(3) 0.8951(3) 1.0000
H22_2 H 0.7043 0.8496 1.0000
C42_2 C 0.8348(3) 0.8874(3) 1.0000
H26_3 H 0.0648924 0.0159485 0
H26_4 H 0.0648924 0.0159485 1
H25_3 H 0.935108 0.984051 0
H25_4 H 0.935108 0.984051 1
N2_3 N 0.0305(3) 0.1290(3) 0.5000
C16_3 C 0.0203(3) 0.2757(4) 0.5000
C17_3 C 0.1049(3) 0.2562(3) 0.5000
H8_3 H 0.1504 0.2957 0.5000
C18_3 C 0.1126(3) 0.1652(3) 0.5000
S4_3 S 0.52633(7) 0.31495(7) 0.5000
O11_3 O 0.58815(19) 0.24649(19) 0.5000
C34_3 C 0.4241(3) 0.2641(3) 0.5000
C35_2 C 0.3864(2) 0.2418(2) 0.6190(4)
H19_2 H 0.4114 0.2584 0.6996
C36_2 C 0.3101(2) 0.1937(2) 0.6169(5)
H20_2 H 0.2846 0.1780 0.6974
C37_3 C 0.2712(3) 0.1689(3) 0.5000
C38_3 C 0.1898(3) 0.1181(3) 0.5000
C39_3 C 0.1973(3) 0.0281(3) 0.5000
H21_3 H 0.3313 0.0029 0.5000
O12_2 O 0.53163(16) 0.36700(17) 0.6179(3)
C43_2 C 0.3864(2) 0.2418(2) 0.3810(4)
H23_2 H 0.4114 0.2584 0.3004
C44_2 C 0.3101(2) 0.1937(2) 0.3831(5)
H24_2 H 0.2846 0.1780 0.3026
H25_5 H 0.0159485 0.0648924 0.5
S3_3 S 0.31495(7) 0.47367(7) 0.5000
O6_3 O 0.24649(19) 0.41185(19) 0.5000
C19_3 C 0.2641(3) 0.5759(3) 0.5000
C20_2 C 0.2418(2) 0.6136(2) 0.6190(4)
H9_2 H 0.2584 0.5886 0.6996
C21_2 C 0.1937(2) 0.6899(2) 0.6169(5)
H10_2 H 0.1780 0.7154 0.6974
C22_3 C 0.1689(3) 0.7288(3) 0.5000
C23_3 C 0.1181(3) 0.8102(3) 0.5000
C24_3 C 0.0281(3) 0.8027(3) 0.5000
H11_3 H 0.0029 0.6687 0.5000
O8_2 O 0.36700(17) 0.46837(16) 0.6179(3)
C30_2 C 0.2418(2) 0.6136(2) 0.3810(4)
H15_2 H 0.2584 0.5886 0.3004
C31_2 C 0.1937(2) 0.6899(2) 0.3831(5)
H16_2 H 0.1780 0.7154 0.3026
N4_3 N 0.1290(3) 0.9695(3) 0.5000
C40_3 C 0.2757(4) 0.9797(3) 0.5000
C41_3 C 0.2562(3) 0.8951(3) 0.5000
H22_3 H 0.2957 0.8496 0.5000
C42_3 C 0.1652(3) 0.8874(3) 0.5000
N1_3 N 0.8710(3) 0.0305(3) 0.5000
C7_3 C 0.7243(4) 0.0203(3) 0.5000
C8_3 C 0.7438(3) 0.1049(3) 0.5000
H4_3 H 0.7043 0.1504 0.5000
C9_3 C 0.8348(3) 0.1126(3) 0.5000
S2_3 S 0.68505(7) 0.52633(7) 0.5000
O4_3 O 0.75351(19) 0.58815(19) 0.5000
C10_3 C 0.7359(3) 0.4241(3) 0.5000
C11_2 C 0.7582(2) 0.3864(2) 0.6190(4)
H5_2 H 0.7416 0.4114 0.6996
C12_2 C 0.8063(2) 0.3101(2) 0.6169(5)
H6_2 H 0.8220 0.2846 0.6974
C13_3 C 0.8311(3) 0.2712(3) 0.5000
C14_3 C 0.8819(3) 0.1898(3) 0.5000
C15_3 C 0.9719(3) 0.1973(3) 0.5000
H7_3 H 0.9971 0.3313 0.5000
O9_2 O 0.63300(17) 0.53163(16) 0.6179(3)
C32_2 C 0.7582(2) 0.3864(2) 0.3810(4)
H17_2 H 0.7416 0.4114 0.3004
C33_2 C 0.8063(2) 0.3101(2) 0.3831(5)
H18_2 H 0.8220 0.2846 0.3026
S1_3 S 0.47367(7) 0.68505(7) 0.5000
O2_3 O 0.41185(19) 0.75351(19) 0.5000
C1_3 C 0.5759(3) 0.7359(3) 0.5000
C2_2 C 0.6136(2) 0.7582(2) 0.6190(4)
H1_2 H 0.5886 0.7416 0.6996
C3_2 C 0.6899(2) 0.8063(2) 0.6169(5)
H2_2 H 0.7154 0.8220 0.6974
C4_3 C 0.7288(3) 0.8311(3) 0.5000
C5_3 C 0.8102(3) 0.8819(3) 0.5000
C6_3 C 0.8027(3) 0.9719(3) 0.5000
H3_3 H 0.6687 0.9971 0.5000
N3_3 N 0.9695(3) 0.8710(3) 0.5000
C25_3 C 0.9797(3) 0.7243(4) 0.5000
C26_3 C 0.8951(3) 0.7438(3) 0.5000
H12_3 H 0.8496 0.7043 0.5000
C27_3 C 0.8874(3) 0.8348(3) 0.5000
O7_2 O 0.46837(16) 0.63300(17) 0.6179(3)
C28_2 C 0.6136(2) 0.7582(2) 0.3810(4)
H13_2 H 0.5886 0.7416 0.3004
C29_2 C 0.6899(2) 0.8063(2) 0.3831(5)
H14_2 H 0.7154 0.8220 0.3026
H26_5 H 0.984051 0.935108 0.5
H25_6 H 0.0648924 0.984051 0.5
H26_6 H 0.935108 0.0159485 0.5
O20 O -0.0000 -0.0000 0.0000
O20_2 O -0.0000 -0.0000 1.0000
O20_3 O -0.0000 1.0000 0.0000
O20_4 O -0.0000 1.0000 1.0000
O20_5 O 1.0000 -0.0000 0.0000
O20_6 O 1.0000 -0.0000 1.0000
O20_7 O 1.0000 1.0000 0.0000
O20_8 O 1.0000 1.0000 1.0000
O20_9 O 0.0000 -0.0000 0.5000
O20_10 O -0.0000 1.0000 0.5000
O20_11 O 1.0000 -0.0000 0.5000
O20_12 O 1.0000 1.0000 0.5000
loop_
_geom_bond_atom_site_label_1
_geom_bond_atom_site_label_2
_geom_bond_site_symmetry_1
_geom_bond_site_symmetry_2
C8 C7 1_555 1_555
H4 C8 1_555 1_555
C9 N1 1_555 1_555
S2 O3 1_555 1_555
O3 La4 1_555 1_555
O4 S2 1_555 1_555
C10 S2 1_555 1_555
C14 C9 1_555 1_555
C15 C14 1_555 1_555
C32 C10 1_555 1_555
H17 C32 1_555 1_555
C33 C13 1_555 1_555
H18 C33 1_555 1_555
C8 C9 1_555 1_555
C13 C14 1_555 1_555
C32 C33 1_555 1_555
C8_2 C7_2 1_555 1_555
H4_2 C8_2 1_555 1_555
C9_2 N1_2 1_555 1_555
O4_2 S2_2 1_555 1_555
C10_2 S2_2 1_555 1_555
C11 C10_2 1_555 1_555
H5 C11 1_555 1_555
C12 C11 1_555 1_555
H6 C12 1_555 1_555
C13_2 C12 1_555 1_555
C14_2 C9_2 1_555 1_555
C15_2 C14_2 1_555 1_555
O9 S2_2 1_555 1_555
La8 O9 1_555 1_555
C8_2 C9_2 1_555 1_555
C13_2 C14_2 1_555 1_555
La4 O1 1_555 1_555
S1 O1 1_555 1_555
O2 S1 1_555 1_555
C1 S1 1_555 1_555
C5 C4 1_555 1_555
C6 C5 1_555 1_555
C26 C25 1_555 1_555
H12 C26 1_555 1_555
C27 C5 1_555 1_555
C28 C1 1_555 1_555
H13 C28 1_555 1_555
C29 C4 1_555 1_555
H14 C29 1_555 1_555
O13 La4 1_555 1_555
O15 La4 1_555 1_555
O16 La4 1_555 1_555
O17 La4 1_555 1_555
O18 La4 1_555 1_555
O19 La4 1_555 1_555
N3 C27 1_555 1_555
C26 C27 1_555 1_555
C28 C29 1_555 1_555
N3 H26 1_555 1_555
O2_2 S1_2 1_555 1_555
C1_2 S1_2 1_555 1_555
C2 C1_2 1_555 1_555
H1 C2 1_555 1_555
C3 C2 1_555 1_555
H2 C3 1_555 1_555
C4_2 C3 1_555 1_555
C5_2 C4_2 1_555 1_555
C6_2 C5_2 1_555 1_555
C26_2 C25_2 1_555 1_555
H12_2 C26_2 1_555 1_555
C27_2 C5_2 1_555 1_555
O7 S1_2 1_555 1_555
La8 O7 1_555 1_555
N3_2 C27_2 1_555 1_555
C26_2 C27_2 1_555 1_555
N3_2 H26_2 1_555 1_555
C17 C16 1_555 1_555
H8 C17 1_555 1_555
C18 N2 1_555 1_555
S4 O13 1_555 1_555
O11 S4 1_555 1_555
C34 S4 1_555 1_555
C38 C18 1_555 1_555
C39 C38 1_555 1_555
C43 C34 1_555 1_555
H23 C43 1_555 1_555
C44 C37 1_555 1_555
H24 C44 1_555 1_555
C17 C18 1_555 1_555
C37 C38 1_555 1_555
C43 C44 1_555 1_555
N2 H25 1_555 1_555
C17_2 C16_2 1_555 1_555
H8_2 C17_2 1_555 1_555
C18_2 N2_2 1_555 1_555
O11_2 S4_2 1_555 1_555
C34_2 S4_2 1_555 1_555
C35 C34_2 1_555 1_555
H19 C35 1_555 1_555
C36 C35 1_555 1_555
H20 C36 1_555 1_555
C37_2 C36 1_555 1_555
C38_2 C18_2 1_555 1_555
C39_2 C38_2 1_555 1_555
O12 S4_2 1_555 1_555
La8 O12 1_555 1_555
C17_2 C18_2 1_555 1_555
C37_2 C38_2 1_555 1_555
N2_2 H25_2 1_555 1_555
S3 O15 1_555 1_555
O6 S3 1_555 1_555
C19 S3 1_555 1_555
C23 C22 1_555 1_555
C24 C23 1_555 1_555
C30 C19 1_555 1_555
H15 C30 1_555 1_555
C31 C22 1_555 1_555
H16 C31 1_555 1_555
C41 C40 1_555 1_555
H22 C41 1_555 1_555
C42 C23 1_555 1_555
C30 C31 1_555 1_555
N4 C42 1_555 1_555
C41 C42 1_555 1_555
O6_2 S3_2 1_555 1_555
C19_2 S3_2 1_555 1_555
C20 C19_2 1_555 1_555
H9 C20 1_555 1_555
C21 C20 1_555 1_555
H10 C21 1_555 1_555
C22_2 C21 1_555 1_555
C23_2 C22_2 1_555 1_555
C24_2 C23_2 1_555 1_555
O8 S3_2 1_555 1_555
C41_2 C40_2 1_555 1_555
H22_2 C41_2 1_555 1_555
C42_2 C23_2 1_555 1_555
La8 O8 1_555 1_555
N4_2 C42_2 1_555 1_555
C41_2 C42_2 1_555 1_555
N1 H26_3 1_555 1_555
N1_2 H26_4 1_555 1_555
N4 H25_3 1_555 1_555
N4_2 H25_4 1_555 1_555
C17_3 C16_3 1_555 1_555
H8_3 C17_3 1_555 1_555
C18_3 N2_3 1_555 1_555
S4_3 O17 1_555 1_555
O11_3 S4_3 1_555 1_555
C34_3 S4_3 1_555 1_555
C35_2 C34_3 1_555 1_555
H19_2 C35_2 1_555 1_555
C36_2 C35_2 1_555 1_555
H20_2 C36_2 1_555 1_555
C37_3 C36_2 1_555 1_555
C38_3 C18_3 1_555 1_555
C39_3 C38_3 1_555 1_555
O12_2 S4_3 1_555 1_555
C43_2 C34_3 1_555 1_555
H23_2 C43_2 1_555 1_555
C44_2 C37_3 1_555 1_555
H24_2 C44_2 1_555 1_555
La8 O12_2 1_555 1_555
C17_3 C18_3 1_555 1_555
C37_3 C38_3 1_555 1_555
C43_2 C44_2 1_555 1_555
N2_3 H25_5 1_555 1_555
S3_3 O19 1_555 1_555
O6_3 S3_3 1_555 1_555
C19_3 S3_3 1_555 1_555
C20_2 C19_3 1_555 1_555
H9_2 C20_2 1_555 1_555
C21_2 C20_2 1_555 1_555
H10_2 C21_2 1_555 1_555
C22_3 C21_2 1_555 1_555
C23_3 C22_3 1_555 1_555
C24_3 C23_3 1_555 1_555
O8_2 S3_3 1_555 1_555
C30_2 C19_3 1_555 1_555
H15_2 C30_2 1_555 1_555
C31_2 C22_3 1_555 1_555
H16_2 C31_2 1_555 1_555
C41_3 C40_3 1_555 1_555
H22_3 C41_3 1_555 1_555
C42_3 C23_3 1_555 1_555
La8 O8_2 1_555 1_555
C30_2 C31_2 1_555 1_555
N4_3 C42_3 1_555 1_555
C41_3 C42_3 1_555 1_555
C8_3 C7_3 1_555 1_555
H4_3 C8_3 1_555 1_555
C9_3 N1_3 1_555 1_555
S2_3 O18 1_555 1_555
O4_3 S2_3 1_555 1_555
C10_3 S2_3 1_555 1_555
C11_2 C10_3 1_555 1_555
H5_2 C11_2 1_555 1_555
C12_2 C11_2 1_555 1_555
H6_2 C12_2 1_555 1_555
C13_3 C12_2 1_555 1_555
C14_3 C9_3 1_555 1_555
C15_3 C14_3 1_555 1_555
O9_2 S2_3 1_555 1_555
C32_2 C10_3 1_555 1_555
H17_2 C32_2 1_555 1_555
C33_2 C13_3 1_555 1_555
H18_2 C33_2 1_555 1_555
La8 O9_2 1_555 1_555
C8_3 C9_3 1_555 1_555
C13_3 C14_3 1_555 1_555
C32_2 C33_2 1_555 1_555
S1_3 O16 1_555 1_555
O2_3 S1_3 1_555 1_555
C1_3 S1_3 1_555 1_555
C2_2 C1_3 1_555 1_555
H1_2 C2_2 1_555 1_555
C3_2 C2_2 1_555 1_555
H2_2 C3_2 1_555 1_555
C4_3 C3_2 1_555 1_555
C5_3 C4_3 1_555 1_555
C6_3 C5_3 1_555 1_555
C26_3 C25_3 1_555 1_555
H12_3 C26_3 1_555 1_555
C27_3 C5_3 1_555 1_555
O7_2 S1_3 1_555 1_555
C28_2 C1_3 1_555 1_555
H13_2 C28_2 1_555 1_555
C29_2 C4_3 1_555 1_555
H14_2 C29_2 1_555 1_555
La8 O7_2 1_555 1_555
N3_3 C27_3 1_555 1_555
C26_3 C27_3 1_555 1_555
C28_2 C29_2 1_555 1_555
N3_3 H26_5 1_555 1_555
N4_3 H25_6 1_555 1_555
N1_3 H26_6 1_555 1_555

#END
