
###############################################################################
#
# This file contains modified crystal structure data generated from the
# MOF subset of the Cambridge Structural Database (CSD) v543 
# hosted by the Cambridge Crystallographic Data Centre (CCDC).
#
# This work is licensed under the Creative Commons
# Attribution-NonCommercial-ShareAlike 4.0 International License.
# To view a copy of this license, visit
# http://creativecommons.org/licenses/by-nc-sa/4.0/
# or send a letter to
# Creative Commons, PO Box 1866, Mountain View, CA 94042, USA.
#
# CIF created using the CSD Python API on 29 September 2022
# The structure has been converted into the P1 space group
# The structure has a 3D framework
# The original CSD entry FASHAK is in the tetragonal crystal system
# The original CSD entry FASHAK is in a Sohncke space group
# The framework has been calculated to contain at least 10.0% void space
# The void calculation uses a probe of radius 1.32A, grid spacing 0.4
# H atom positions have been added when not included in the experimental data
#
###############################################################################

data_FASHAK
_chemical_formula_moiety         '(C106 H73 O70 Pr8)n'
_symmetry_cell_setting           triclinic
_symmetry_space_group_name_H-M   'P 1'
_symmetry_Int_Tables_number      1
_space_group_name_Hall           'P 1'
loop_
_symmetry_equiv_pos_site_id
_symmetry_equiv_pos_as_xyz
1 x,y,z
_cell_length_a                   17.116(9)
_cell_length_b                   17.116(9)
_cell_length_c                   14.083(10)
_cell_angle_alpha                90
_cell_angle_beta                 90
_cell_angle_gamma                90
_cell_volume                     4125.72
loop_
_atom_site_label
_atom_site_type_symbol
_atom_site_fract_x
_atom_site_fract_y
_atom_site_fract_z
O6 O 0.2345(9) 0.1151(6) 0.4492(12)
C4 C 0.2482(5) 0.0044(4) 0.5492(7)
H4 H 0.2592 0.0361 0.6012
C5 C 0.2334(6) 0.0378(3) 0.4611(8)
H5 H 0.2070 0.0128 0.3245
H14 H 0.287022 0.135583 0.465853
H7 H 0.0000 0.0000 0.0192
H8 H 0.0033 0.1748 0.1790
Pr7 Pr 0.15250(3) 0.79875(3) 0.1137(4)
Pr1 Pr 0.20125(3) 0.65250(3) 0.3637(4)
O1 O 0.1403(10) 0.5321(8) 0.4240(12)
H1 H 0.1748 0.4967 0.4290
H2 H 0.1027 0.5082 0.4507
O2 O 0.1814(5) 0.7916(4) 0.3155(8)
O3 O 0.1994(7) 0.8948(5) 0.2295(8)
O4 O 0.2715(5) 0.8181(5) 0.6656(8)
O5 O 0.2680(6) 0.9358(5) 0.7264(8)
O7 O 0.0762(5) 0.6318(6) 0.2876(8)
O8 O 0.0625(7) 0.6948(7) 0.1568(10)
C1 C 0.2154(3) 0.9097(4) 0.3939(6)
C2 C 0.2302(3) 0.8763(3) 0.4820(7)
H3 H 0.2292 0.8223 0.4890
C3 C 0.2467(3) 0.9237(4) 0.5597(6)
C6 C 0.2169(5) 0.9905(4) 0.3834(7)
C7 C 0.1976(4) 0.8618(7) 0.3091(10)
C8 C 0.2628(4) 0.8905(6) 0.6545(9)
C9 C 0.0276(2) 0.56463(16) 0.1537(4)
C10 C 0.0276(2) 0.56463(16) 0.0551(4)
H6 H 0.0461 0.6079 0.0222
C11 C -0.0000 0.5000 0.0055(4)
C12 C -0.0000 0.5000 0.2032(4)
H7_2 H -0.0000 0.5000 0.2692
C13 C 0.0579(4) 0.6355(7) 0.2046(10)
Pr2 Pr 0.34750(3) 0.70125(3) 0.6137(4)
Pr4 Pr 0.29875(3) 0.84750(3) 0.8637(4)
O10 O 0.4679(8) 0.6403(10) 0.6740(12)
H8_2 H 0.5033 0.6748 0.6790
H9 H 0.4918 0.6027 0.7007
O11 O 0.2084(4) 0.6814(5) 0.5655(8)
O12 O 0.3186(5) 0.7084(4) 0.8155(8)
O13 O 0.1052(5) 0.6994(7) 0.4795(8)
O14 O 0.3006(7) 0.6052(5) 0.7295(8)
O15 O 0.1819(5) 0.7715(5) 0.9156(8)
O16 O 0.2285(5) 0.6819(5) 0.1656(8)
O17 O 0.3181(5) 0.7285(5) 0.4156(8)
O18 O 0.0642(5) 0.7680(6) 0.9764(8)
O19 O 0.2320(6) 0.5642(5) 0.2264(8)
O20 O 0.4358(5) 0.7320(6) 0.4764(8)
O23 O 0.3682(6) 0.5762(5) 0.5376(8)
O25 O 0.3052(7) 0.5625(7) 0.4068(10)
O26 O 0.4375(7) 0.8052(7) 0.6568(10)
C14 C 0.0903(4) 0.7154(3) 0.6439(6)
C15 C 0.1237(3) 0.7302(3) 0.7320(7)
H10 H 0.1777 0.7292 0.7390
C16 C 0.0763(4) 0.7467(3) 0.8097(6)
C19 C 0.0095(4) 0.7169(5) 0.6334(7)
C20 C 0.1382(7) 0.6976(4) 0.5591(10)
C21 C 0.1095(6) 0.7628(4) 0.9045(9)
C11_2 C 1.0000 0.5000 0.0055(4)
C12_2 C 1.0000 0.5000 0.2032(4)
H7_3 H 1.0000 0.5000 0.2692
Pr5 Pr 0.79875(3) 0.34750(3) 0.3637(4)
Pr6 Pr 0.84750(3) 0.20125(3) 0.1137(4)
O21 O 0.8849(6) 0.7345(9) 0.6992(12)
O22 O 0.9238(5) 0.3682(6) 0.2876(8)
O24 O 0.9375(7) 0.3052(7) 0.1568(10)
C17 C 0.9956(4) 0.7482(5) 0.7992(7)
H11 H 0.9639 0.7592 0.8512
C18 C 0.9622(3) 0.7334(6) 0.7111(8)
H12 H 0.9872 0.7070 0.5745
C22 C 0.9724(2) 0.43537(16) 0.1537(4)
C23 C 0.9724(2) 0.43537(16) 0.0551(4)
H13 H 0.9539 0.3921 0.0222
C24 C 0.9421(4) 0.3645(7) 0.2046(10)
H16 H 0.864417 0.787022 0.715853
H8_3 H 0.3252 0.0033 0.9290
O12_2 O 0.2916(4) 0.8186(5) 0.0655(8)
C16_2 C 0.2533(3) 0.5763(4) 0.0597(6)
C17_2 C 0.2518(5) 0.4956(4) 0.0492(7)
H11_2 H 0.2408 0.4639 0.1012
C21_2 C 0.2372(4) 0.6095(6) 0.1545(9)
O9 O 0.5000 0.5000 0.1614(11)
C9_2 C 0.43537(16) 0.5276(2) 0.4037(4)
C10_2 C 0.43537(16) 0.5276(2) 0.3051(4)
H6_2 H 0.3921 0.5461 0.2722
C11_3 C 0.5000 0.5000 0.2555(4)
C12_3 C 0.5000 0.5000 0.4532(4)
H7_4 H 0.5000 0.5000 0.5192
C13_2 C 0.3645(7) 0.5579(4) 0.4546(10)
Pr5_2 Pr 0.65250(3) 0.29875(3) 0.6137(4)
O10_2 O 0.3597(10) 0.9679(8) 0.9240(12)
H9_2 H 0.3973 0.9918 0.9507
O14_2 O 0.3948(5) 0.8006(7) 0.9795(8)
O21_2 O 0.2655(9) 0.3849(6) 0.9492(12)
O22_2 O 0.6318(6) 0.4238(5) 0.5376(8)
O23_2 O 0.4238(5) 0.8682(6) 0.7876(8)
O24_2 O 0.6948(7) 0.4375(7) 0.4068(10)
O26_2 O 0.1948(7) 0.9375(7) 0.9068(10)
C14_2 C 0.2846(3) 0.5903(4) 0.8939(6)
C15_2 C 0.2698(3) 0.6237(3) 0.9820(7)
H10_2 H 0.2708 0.6777 0.9890
C18_2 C 0.2666(6) 0.4622(3) 0.9611(8)
C19_2 C 0.2831(5) 0.5095(4) 0.8834(7)
H12_2 H 0.2930 0.4872 0.8245
C20_2 C 0.3024(4) 0.6382(7) 0.8091(10)
C22_2 C 0.56463(16) 0.4724(2) 0.4037(4)
C23_2 C 0.56463(16) 0.4724(2) 0.3051(4)
H13_2 H 0.6079 0.4539 0.2722
C24_2 C 0.6355(7) 0.4421(4) 0.4546(10)
H15 H 0.493452 0.554305 0.137896
H16_2 H 0.212978 0.364417 0.965853
O9_2 O 0.5000 0.0000 0.4114(11)
C11_4 C 0.5000 0.0000 0.5055(4)
C12_4 C 0.5000 0.0000 0.7032(4)
H7_5 H 0.5000 0.0000 0.7692
Pr5_3 Pr 0.70125(3) 0.15250(3) 0.8637(4)
O22_3 O 0.5762(5) 0.1318(6) 0.7876(8)
O24_3 O 0.5625(7) 0.1948(7) 0.6568(10)
C22_3 C 0.5276(2) 0.06463(16) 0.6537(4)
C23_3 C 0.5276(2) 0.06463(16) 0.5551(4)
H13_3 H 0.5461 0.1079 0.5222
C24_3 C 0.5579(4) 0.1355(7) 0.7046(10)
O10_3 O 0.0321(8) 0.8597(10) 0.1740(12)
H9_3 H 0.0082 0.8973 0.2007
O21_3 O 0.6151(6) 0.7655(9) 0.1992(12)
O23_3 O 0.1318(6) 0.9238(5) 0.0376(8)
C14_3 C 0.4097(4) 0.7846(3) 0.1439(6)
C15_3 C 0.3763(3) 0.7698(3) 0.2320(7)
H10_3 H 0.3223 0.7708 0.2390
C16_3 C 0.4237(4) 0.7533(3) 0.3097(6)
C17_3 C 0.5044(4) 0.7518(5) 0.2992(7)
H11_3 H 0.5361 0.7408 0.3512
C18_3 C 0.5378(3) 0.7666(6) 0.2111(8)
C19_3 C 0.4905(4) 0.7831(5) 0.1334(7)
H12_3 H 0.5128 0.7930 0.0745
C20_3 C 0.3618(7) 0.8024(4) 0.0591(10)
C21_3 C 0.3905(6) 0.7372(4) 0.4045(9)
H16_3 H 0.635583 0.712978 0.215853
O9_3 O 0.5000 1.0000 0.4114(11)
C9_3 C 0.4724(2) 0.93537(16) 0.6537(4)
C10_3 C 0.4724(2) 0.93537(16) 0.5551(4)
H6_3 H 0.4539 0.8921 0.5222
C11_5 C 0.5000 1.0000 0.5055(4)
C12_5 C 0.5000 1.0000 0.7032(4)
H7_6 H 0.5000 1.0000 0.7692
C13_3 C 0.4421(4) 0.8645(7) 0.7046(10)
H15_2 H 0.445695 0.993452 0.387896
H7_7 H 0.0000 1.0000 0.0192
O9_4 O -0.0000 1.0000 0.6614(11)
C9_4 C 0.06463(16) 0.9724(2) 0.9037(4)
C10_4 C 0.06463(16) 0.9724(2) 0.8051(4)
H6_4 H 0.1079 0.9539 0.7722
C11_6 C -0.0000 1.0000 0.7555(4)
C12_6 C 0.0000 1.0000 0.9532(4)
C13_4 C 0.1355(7) 0.9421(4) 0.9546(10)
H15_3 H 0.0065478 0.945695 0.637896
H7_8 H 1.0000 0.0000 0.0192
O22_4 O 0.8682(6) 0.0762(5) 0.0376(8)
O9_5 O 1.0000 0.0000 0.6614(11)
C11_7 C 1.0000 0.0000 0.7555(4)
C12_7 C 1.0000 0.0000 0.9532(4)
O24_4 O 0.8052(7) 0.0625(7) 0.9068(10)
C22_4 C 0.93537(16) 0.0276(2) 0.9037(4)
C23_4 C 0.93537(16) 0.0276(2) 0.8051(4)
H13_4 H 0.8921 0.0461 0.7722
C24_4 C 0.8645(7) 0.0579(4) 0.9546(10)
O4_2 O 0.7715(5) 0.3181(5) 0.1656(8)
O5_2 O 0.7680(6) 0.4358(5) 0.2264(8)
C3_2 C 0.7467(3) 0.4237(4) 0.0597(6)
C4_2 C 0.7482(5) 0.5044(4) 0.0492(7)
H4_2 H 0.7592 0.5361 0.1012
C8_2 C 0.7628(4) 0.3905(6) 0.1545(9)
O10_4 O 0.9679(8) 0.1403(10) 0.1740(12)
H9_4 H 0.9918 0.1027 0.2007
O11_2 O 0.7084(4) 0.1814(5) 0.0655(8)
O12_3 O 0.8186(5) 0.2084(4) 0.3155(8)
O14_3 O 0.8006(7) 0.1052(5) 0.2295(8)
O15_2 O 0.6819(5) 0.2715(5) 0.4156(8)
O18_2 O 0.5642(5) 0.2680(6) 0.4764(8)
O21_4 O 0.3849(6) 0.2345(9) 0.1992(12)
C14_4 C 0.5903(4) 0.2154(3) 0.1439(6)
C15_4 C 0.6237(3) 0.2302(3) 0.2320(7)
H10_4 H 0.6777 0.2292 0.2390
C16_4 C 0.5763(4) 0.2467(3) 0.3097(6)
C17_4 C 0.4956(4) 0.2482(5) 0.2992(7)
H11_4 H 0.4639 0.2592 0.3512
C18_4 C 0.4622(3) 0.2334(6) 0.2111(8)
C19_4 C 0.5095(4) 0.2169(5) 0.1334(7)
H12_4 H 0.4872 0.2070 0.0745
C20_4 C 0.6382(7) 0.1976(4) 0.0591(10)
C21_4 C 0.6095(6) 0.2628(4) 0.4045(9)
H16_4 H 0.364417 0.287022 0.215853
O1_2 O 0.6403(10) 0.0321(8) 0.9240(12)
H2_2 H 0.6027 0.0082 0.9507
O2_2 O 0.6814(5) 0.2916(4) 0.8155(8)
O3_2 O 0.6994(7) 0.3948(5) 0.7295(8)
O6_2 O 0.7345(9) 0.6151(6) 0.9492(12)
C1_2 C 0.7154(3) 0.4097(4) 0.8939(6)
C2_2 C 0.7302(3) 0.3763(3) 0.9820(7)
H3_2 H 0.7292 0.3223 0.9890
C5_2 C 0.7334(6) 0.5378(3) 0.9611(8)
C6_2 C 0.7169(5) 0.4905(4) 0.8834(7)
H5_2 H 0.7070 0.5128 0.8245
C7_2 C 0.6976(4) 0.3618(7) 0.8091(10)
O13_2 O 0.6052(5) 0.1994(7) 0.9795(8)
O16_2 O 0.7285(5) 0.1819(5) 0.6656(8)
O17_2 O 0.8181(5) 0.2285(5) 0.9156(8)
O19_2 O 0.7320(6) 0.0642(5) 0.7264(8)
O20_2 O 0.9358(5) 0.2320(6) 0.9764(8)
H14_2 H 0.787022 0.635583 0.965853
H15_4 H 0.554305 0.0065478 0.387896
H1_2 H 0.6748 0.9967 0.9290
O10_5 O 0.8597(10) 0.4679(8) 0.4240(12)
H8_4 H 0.8252 0.5033 0.4290
H9_5 H 0.8973 0.4918 0.4507
O12_4 O 0.7916(4) 0.3186(5) 0.5655(8)
O14_4 O 0.8948(5) 0.3006(7) 0.4795(8)
C14_5 C 0.7846(3) 0.0903(4) 0.3939(6)
C15_5 C 0.7698(3) 0.1237(3) 0.4820(7)
H10_5 H 0.7708 0.1777 0.4890
C16_5 C 0.7533(3) 0.0763(4) 0.5597(6)
C19_5 C 0.7831(5) 0.0095(4) 0.3834(7)
C20_5 C 0.8024(4) 0.1382(7) 0.3091(10)
C21_5 C 0.7372(4) 0.1095(6) 0.6545(9)
H15_5 H 0.993452 0.0543046 0.637896
O21_5 O 0.1151(6) 0.2655(9) 0.6992(12)
C17_5 C 0.0044(4) 0.2518(5) 0.7992(7)
H11_5 H 0.0361 0.2408 0.8512
C18_5 C 0.0378(3) 0.2666(6) 0.7111(8)
H12_5 H 0.0128 0.2930 0.5745
H16_5 H 0.135583 0.212978 0.715853
O10_6 O 0.5321(8) 0.3597(10) 0.6740(12)
H8_5 H 0.4967 0.3252 0.6790
H9_6 H 0.5082 0.3973 0.7007
C14_6 C 0.9097(4) 0.2846(3) 0.6439(6)
C15_6 C 0.8763(3) 0.2698(3) 0.7320(7)
H10_6 H 0.8223 0.2708 0.7390
C16_6 C 0.9237(4) 0.2533(3) 0.8097(6)
C19_6 C 0.9905(4) 0.2831(5) 0.6334(7)
C20_6 C 0.8618(7) 0.3024(4) 0.5591(10)
C21_6 C 0.8905(6) 0.2372(4) 0.9045(9)
H15_6 H 0.506548 0.445695 0.137896
O9_6 O -0.0000 0.5000 0.9114(11)
H15_7 H 0.0543046 0.506548 0.887896
O9_7 O 1.0000 0.5000 0.9114(11)
H15_8 H 0.945695 0.493452 0.887896
H8_6 H 0.9967 0.8252 0.1790
H7_9 H 1.0000 1.0000 0.0192
O21_6 O 0.7655(9) 0.8849(6) 0.4492(12)
C17_6 C 0.7518(5) 0.9956(4) 0.5492(7)
H11_6 H 0.7408 0.9639 0.6012
C18_6 C 0.7666(6) 0.9622(3) 0.4611(8)
H12_6 H 0.7930 0.9872 0.3245
H16_6 H 0.712978 0.864417 0.465853
O9_8 O 0.0000 0.0000 0.6614(11)
C11_8 C 0.0000 0.0000 0.7555(4)
C12_8 C -0.0000 0.0000 0.9532(4)
O9_9 O 1.0000 1.0000 0.6614(11)
C11_9 C 1.0000 1.0000 0.7555(4)
C12_9 C 1.0000 1.0000 0.9532(4)
loop_
_geom_bond_atom_site_label_1
_geom_bond_atom_site_label_2
_geom_bond_site_symmetry_1
_geom_bond_site_symmetry_2
O6 C5 1_555 1_555
H4 C4 1_555 1_555
C5 C4 1_555 1_555
O6 H14 1_555 1_555
Pr1 O1 1_555 1_555
O1 H1 1_555 1_555
H2 O1 1_555 1_555
O2 Pr1 1_555 1_555
O3 C7 1_555 1_555
O4 C8 1_555 1_555
O5 C8 1_555 1_555
O7 Pr1 1_555 1_555
O8 C13 1_555 1_555
C1 C2 1_555 1_555
C2 H3 1_555 1_555
C3 C2 1_555 1_555
C6 C1 1_555 1_555
C7 O2 1_555 1_555
C8 C3 1_555 1_555
C9 C10 1_555 1_555
C10 H6 1_555 1_555
C11 C10 1_555 1_555
C12 C9 1_555 1_555
H7_2 C12 1_555 1_555
C13 O7 1_555 1_555
Pr2 O4 1_555 1_555
Pr7 O2 1_555 1_555
Pr4 O4 1_555 1_555
O10 Pr2 1_555 1_555
H8_2 O10 1_555 1_555
H9 O10 1_555 1_555
O11 Pr1 1_555 1_555
O12 Pr2 1_555 1_555
O13 Pr1 1_555 1_555
O14 Pr2 1_555 1_555
O15 Pr4 1_555 1_555
O16 Pr1 1_555 1_555
O17 Pr1 1_555 1_555
O19 Pr1 1_555 1_555
O20 Pr2 1_555 1_555
O23 Pr2 1_555 1_555
O25 Pr1 1_555 1_555
O26 Pr2 1_555 1_555
C14 C15 1_555 1_555
C15 H10 1_555 1_555
C16 C15 1_555 1_555
C19 C14 1_555 1_555
C20 O11 1_555 1_555
C21 O15 1_555 1_555
O3 Pr7 1_555 1_555
O5 Pr4 1_555 1_555
O8 Pr7 1_555 1_555
C1 C7 1_555 1_555
C9 C13 1_555 1_555
Pr2 O11 1_555 1_555
Pr2 O17 1_555 1_555
Pr7 O16 1_555 1_555
Pr4 O12 1_555 1_555
O13 C20 1_555 1_555
O18 C21 1_555 1_555
C14 C20 1_555 1_555
C16 C21 1_555 1_555
H7_3 C12_2 1_555 1_555
Pr5 O22 1_555 1_555
Pr6 O24 1_555 1_555
O21 C18 1_555 1_555
O22 C24 1_555 1_555
O24 C24 1_555 1_555
H11 C17 1_555 1_555
C18 C17 1_555 1_555
C22 C12_2 1_555 1_555
C23 C11_2 1_555 1_555
H13 C23 1_555 1_555
C24 C22 1_555 1_555
C22 C23 1_555 1_555
O21 H16 1_555 1_555
C17_2 C16_2 1_555 1_555
H11_2 C17_2 1_555 1_555
C21_2 O16 1_555 1_555
Pr7 O12_2 1_555 1_555
O19 C21_2 1_555 1_555
C16_2 C21_2 1_555 1_555
O25 C13_2 1_555 1_555
O9 C11_3 1_555 1_555
C9_2 C10_2 1_555 1_555
C10_2 H6_2 1_555 1_555
C11_3 C10_2 1_555 1_555
C12_3 C9_2 1_555 1_555
H7_4 C12_3 1_555 1_555
C13_2 O23 1_555 1_555
Pr5_2 O22_2 1_555 1_555
Pr5 O24_2 1_555 1_555
O10_2 Pr4 1_555 1_555
H9_2 O10_2 1_555 1_555
O14_2 Pr4 1_555 1_555
O21_2 C18_2 1_555 1_555
O22_2 C24_2 1_555 1_555
O23_2 Pr4 1_555 1_555
O24_2 C24_2 1_555 1_555
O26_2 Pr4 1_555 1_555
C14_2 C15_2 1_555 1_555
C15_2 H10_2 1_555 1_555
C19_2 C14_2 1_555 1_555
H12_2 C19_2 1_555 1_555
C20_2 O12 1_555 1_555
C22_2 C12_3 1_555 1_555
C23_2 C11_3 1_555 1_555
H13_2 C23_2 1_555 1_555
C24_2 C22_2 1_555 1_555
C9_2 C13_2 1_555 1_555
O14 C20_2 1_555 1_555
C14_2 C20_2 1_555 1_555
C18_2 C19_2 1_555 1_555
C22_2 C23_2 1_555 1_555
O9 H15 1_555 1_555
O21_2 H16_2 1_555 1_555
O9_2 C11_4 1_555 1_555
H7_5 C12_4 1_555 1_555
Pr5_3 O22_3 1_555 1_555
Pr5_2 O24_3 1_555 1_555
O22_3 C24_3 1_555 1_555
O24_3 C24_3 1_555 1_555
C22_3 C12_4 1_555 1_555
C23_3 C11_4 1_555 1_555
H13_3 C23_3 1_555 1_555
C24_3 C22_3 1_555 1_555
C22_3 C23_3 1_555 1_555
O10_3 Pr7 1_555 1_555
H9_3 O10_3 1_555 1_555
O21_3 C18_3 1_555 1_555
O23_3 Pr7 1_555 1_555
C14_3 C15_3 1_555 1_555
C15_3 H10_3 1_555 1_555
C16_3 C15_3 1_555 1_555
C17_3 C16_3 1_555 1_555
H11_3 C17_3 1_555 1_555
C18_3 C17_3 1_555 1_555
C19_3 C14_3 1_555 1_555
H12_3 C19_3 1_555 1_555
C20_3 O12_2 1_555 1_555
C21_3 O17 1_555 1_555
O20 C21_3 1_555 1_555
C14_3 C20_3 1_555 1_555
C16_3 C21_3 1_555 1_555
C18_3 C19_3 1_555 1_555
O21_3 H16_3 1_555 1_555
O26 C13_3 1_555 1_555
O9_3 C11_5 1_555 1_555
C9_3 C10_3 1_555 1_555
C10_3 H6_3 1_555 1_555
C11_5 C10_3 1_555 1_555
C12_5 C9_3 1_555 1_555
H7_6 C12_5 1_555 1_555
C13_3 O23_2 1_555 1_555
C9_3 C13_3 1_555 1_555
O9_3 H15_2 1_555 1_555
O26_2 C13_4 1_555 1_555
O9_4 C11_6 1_555 1_555
C9_4 C10_4 1_555 1_555
C10_4 H6_4 1_555 1_555
C11_6 C10_4 1_555 1_555
C12_6 C9_4 1_555 1_555
C9_4 C13_4 1_555 1_555
O9_4 H15_3 1_555 1_555
Pr6 O22_4 1_555 1_555
O9_5 C11_7 1_555 1_555
Pr5_3 O24_4 1_555 1_555
O24_4 C24_4 1_555 1_555
C22_4 C12_7 1_555 1_555
C23_4 C11_7 1_555 1_555
H13_4 C23_4 1_555 1_555
C24_4 C22_4 1_555 1_555
C22_4 C23_4 1_555 1_555
O4_2 C8_2 1_555 1_555
O5_2 C8_2 1_555 1_555
C4_2 C3_2 1_555 1_555
H4_2 C4_2 1_555 1_555
C8_2 C3_2 1_555 1_555
Pr6 O4_2 1_555 1_555
Pr5 O4_2 1_555 1_555
Pr5_2 O15_2 1_555 1_555
O10_4 Pr6 1_555 1_555
H9_4 O10_4 1_555 1_555
O12_3 Pr6 1_555 1_555
O14_3 Pr6 1_555 1_555
O15_2 Pr5 1_555 1_555
O18_2 Pr5_2 1_555 1_555
O21_4 C18_4 1_555 1_555
C14_4 C15_4 1_555 1_555
C15_4 H10_4 1_555 1_555
C16_4 C15_4 1_555 1_555
C17_4 C16_4 1_555 1_555
H11_4 C17_4 1_555 1_555
C18_4 C17_4 1_555 1_555
C19_4 C14_4 1_555 1_555
H12_4 C19_4 1_555 1_555
C20_4 O11_2 1_555 1_555
C21_4 O15_2 1_555 1_555
O5_2 Pr5 1_555 1_555
Pr6 O11_2 1_555 1_555
Pr5 O12_3 1_555 1_555
O18_2 C21_4 1_555 1_555
C14_4 C20_4 1_555 1_555
C16_4 C21_4 1_555 1_555
C18_4 C19_4 1_555 1_555
O21_4 H16_4 1_555 1_555
Pr5_3 O1_2 1_555 1_555
H2_2 O1_2 1_555 1_555
O2_2 Pr5_3 1_555 1_555
O3_2 C7_2 1_555 1_555
O6_2 C5_2 1_555 1_555
C1_2 C2_2 1_555 1_555
C2_2 H3_2 1_555 1_555
C6_2 C1_2 1_555 1_555
H5_2 C6_2 1_555 1_555
C7_2 O2_2 1_555 1_555
Pr5_2 O2_2 1_555 1_555
O13_2 Pr5_3 1_555 1_555
O16_2 Pr5_3 1_555 1_555
O17_2 Pr5_3 1_555 1_555
O19_2 Pr5_3 1_555 1_555
O3_2 Pr5_2 1_555 1_555
C1_2 C7_2 1_555 1_555
C5_2 C6_2 1_555 1_555
Pr5_2 O16_2 1_555 1_555
O6_2 H14_2 1_555 1_555
O9_2 H15_4 1_555 1_555
O10_5 Pr5 1_555 1_555
H8_4 O10_5 1_555 1_555
H9_5 O10_5 1_555 1_555
O12_4 Pr5 1_555 1_555
O14_4 Pr5 1_555 1_555
C14_5 C15_5 1_555 1_555
C15_5 H10_5 1_555 1_555
C16_5 C15_5 1_555 1_555
C19_5 C14_5 1_555 1_555
C20_5 O12_3 1_555 1_555
C21_5 O16_2 1_555 1_555
Pr5_2 O12_4 1_555 1_555
O14_3 C20_5 1_555 1_555
O19_2 C21_5 1_555 1_555
C14_5 C20_5 1_555 1_555
C16_5 C21_5 1_555 1_555
O9_5 H15_5 1_555 1_555
O21_5 C18_5 1_555 1_555
H11_5 C17_5 1_555 1_555
C18_5 C17_5 1_555 1_555
O21_5 H16_5 1_555 1_555
O10_6 Pr5_2 1_555 1_555
H8_5 O10_6 1_555 1_555
H9_6 O10_6 1_555 1_555
C14_6 C15_6 1_555 1_555
C15_6 H10_6 1_555 1_555
C16_6 C15_6 1_555 1_555
C19_6 C14_6 1_555 1_555
C20_6 O12_4 1_555 1_555
C21_6 O17_2 1_555 1_555
O14_4 C20_6 1_555 1_555
O20_2 C21_6 1_555 1_555
C14_6 C20_6 1_555 1_555
C16_6 C21_6 1_555 1_555
O9 H15_6 1_555 1_555
O9_6 H15_7 1_555 1_555
O9_7 H15_8 1_555 1_555
O21_6 C18_6 1_555 1_555
H11_6 C17_6 1_555 1_555
C18_6 C17_6 1_555 1_555
O21_6 H16_6 1_555 1_555
O9_8 C11_8 1_555 1_555
O9_9 C11_9 1_555 1_555

#END
