
###############################################################################
#
# This file contains modified crystal structure data generated from the
# MOF subset of the Cambridge Structural Database (CSD) v543 
# hosted by the Cambridge Crystallographic Data Centre (CCDC).
#
# This work is licensed under the Creative Commons
# Attribution-NonCommercial-ShareAlike 4.0 International License.
# To view a copy of this license, visit
# http://creativecommons.org/licenses/by-nc-sa/4.0/
# or send a letter to
# Creative Commons, PO Box 1866, Mountain View, CA 94042, USA.
#
# CIF created using the CSD Python API on 29 September 2022
# The structure has been converted into the P1 space group
# The structure has a 3D framework
# The original CSD entry FATJOB is in the monoclinic crystal system
# The framework has been calculated to contain at least 10.0% void space
# The void calculation uses a probe of radius 1.32A, grid spacing 0.4
#
###############################################################################

data_FATJOB
_chemical_formula_moiety         '(C464 H352 Co16 N64 O92 S16)n'
_symmetry_cell_setting           triclinic
_symmetry_space_group_name_H-M   'P 1'
_symmetry_Int_Tables_number      1
_space_group_name_Hall           'P 1'
loop_
_symmetry_equiv_pos_site_id
_symmetry_equiv_pos_as_xyz
1 x,y,z
_cell_length_a                   21.5101(12)
_cell_length_b                   21.2306(12)
_cell_length_c                   27.8549(17)
_cell_angle_alpha                90
_cell_angle_beta                 103.1110(10)
_cell_angle_gamma                90
_cell_volume                     12389
loop_
_atom_site_label
_atom_site_type_symbol
_atom_site_fract_x
_atom_site_fract_y
_atom_site_fract_z
N1 N 0.20172(19) 0.23087(18) 0.69870(15)
C1 C 0.2576(3) 0.2527(2) 0.6935(2)
H1 H 0.2624 0.2961 0.6915
O4 O 0.62842(19) 0.22081(19) 0.27239(14)
O5 O 0.68992(18) 0.14882(18) 0.25294(14)
C10 C 0.6737(3) 0.1828(3) 0.2850(2)
C11 C 0.7074(3) 0.1801(3) 0.3380(2)
C12 C 0.6919(3) 0.2185(3) 0.3734(2)
H8 H 0.6575 0.2459 0.3647
C13 C 0.7256(3) 0.2169(3) 0.4206(2)
H9 H 0.7151 0.2438 0.4438
C14 C 0.7579(3) 0.1377(3) 0.3528(2)
H10 H 0.7680 0.1102 0.3297
C15 C 0.7931(3) 0.1356(3) 0.4007(2)
H11 H 0.8273 0.1080 0.4097
C16 C 0.7768(3) 0.1744(3) 0.4345(2)
O6 O 0.8076(2) 0.1763(2) 0.48369(15)
C17 C 0.8638(3) 0.1392(3) 0.4992(2)
H12 H 0.8995 0.1589 0.4891
H13 H 0.8574 0.0975 0.4846
N2 N 0.1884(2) 0.15773(18) 0.56238(16)
C18 C 0.1843(2) 0.0975(2) 0.5712(2)
H14 H 0.1472 0.0828 0.5792
C19 C 0.2318(3) 0.0543(2) 0.5693(2)
H15 H 0.2261 0.0118 0.5752
C20 C 0.2427(3) 0.1774(2) 0.5529(2)
H16 H 0.2471 0.2203 0.5475
C21 C 0.2936(3) 0.1383(2) 0.5505(2)
H17 H 0.3308 0.1546 0.5436
C22 C 0.2876(3) 0.0754(2) 0.5584(2)
S2 S 0.35658(7) 0.02959(6) 0.69410(6)
N3 N 0.3939(3) 0.0548(2) 0.5485(2)
N4 N 0.4101(2) 0.1331(2) 0.6852(3)
N5 N 0.4364(3) 0.0075(3) 0.5436(3)
N6 N 0.4542(2) 0.0873(2) 0.6822(2)
O11 O 0.8368(2) 0.03250(19) 0.55934(16)
C28 C 0.3027(2) 0.1502(2) 0.6946(2)
C32 C 0.3408(3) 0.0327(2) 0.5552(2)
C35 C 0.3564(3) 0.1094(2) 0.6909(2)
C40 C 0.4332(2) 0.0312(2) 0.6862(2)
C43 C 0.3090(3) 0.2151(2) 0.6911(2)
H27 H 0.3471 0.2328 0.6871
C44 C 0.2454(3) 0.1271(2) 0.7017(2)
H28 H 0.2400 0.0841 0.7056
H29 H 0.5537 0.0243 0.6841
C50 C 0.8275(3) 0.0964(3) 0.5732(2)
H33 H 0.8336 0.0999 0.6087
H34 H 0.7847 0.1106 0.5579
C51 C 0.7488(3) 0.0009(3) 0.5943(2)
H35 H 0.7397 0.0424 0.6010
C54 C 0.8768(3) 0.1349(3) 0.5553(2)
H38 H 0.9185 0.1162 0.5676
H39 H 0.8777 0.1771 0.5689
C58 C 0.1964(3) 0.1683(2) 0.7030(2)
H44 H 0.1578 0.1520 0.7071
Co3 Co 0.12487(3) 0.29939(3) 0.69440(2)
Co4 Co 0.62487(3) 0.20061(3) 0.19440(2)
Co5 Co 0.11096(3) 0.22306(3) 0.55785(2)
O10 O 0.55006(18) 0.33002(17) 0.00145(14)
Co6 Co 0.61096(3) 0.27694(3) 0.05785(2)
O1 O 0.58151(16) 0.67549(15) 0.61164(13)
O2 O 0.55514(15) 0.73806(15) 0.66799(14)
C2 C 0.5529(2) 0.6865(2) 0.6446(2)
C3 C 0.5134(2) 0.6354(2) 0.65989(18)
C4 C 0.4686(3) 0.6479(3) 0.68696(19)
H2 H 0.4625 0.6890 0.6966
C5 C 0.4326(3) 0.5989(3) 0.6997(2)
H3 H 0.4016 0.6075 0.7173
C6 C 0.5220(3) 0.5737(2) 0.6476(2)
H4 H 0.5529 0.5648 0.6301
C7 C 0.4873(3) 0.5249(3) 0.6601(2)
H5 H 0.4942 0.4839 0.6507
C8 C 0.4423(3) 0.5376(3) 0.6865(2)
O3 O 0.40412(19) 0.49316(19) 0.70101(16)
C9 C 0.4124(3) 0.4296(3) 0.6874(2)
H6 H 0.4067 0.4263 0.6519
H7 H 0.4551 0.4152 0.7028
Co1 Co 0.62487(3) 0.79939(3) 0.69440(2)
Co2 Co 0.61096(3) 0.72306(3) 0.55785(2)
S1 S 0.33949(7) 0.95197(7) 0.56022(6)
N7 N 0.5376(2) 0.79413(19) 0.55007(16)
O7 O 0.65451(18) 0.84828(15) 0.64128(14)
N8 N 0.55528(19) 0.87327(18) 0.68970(15)
O8 O 0.67948(16) 0.78777(15) 0.58251(14)
O9 O 0.60981(18) 0.25961(18) 0.97821(14)
C23 C 0.7744(3) 0.8775(3) 0.5728(2)
H18 H 0.7837 0.8363 0.5657
C24 C 0.4524(2) 0.9150(2) 0.6883(2)
H19 H 0.4100 0.9078 0.6889
C25 C 0.6837(2) 0.8381(2) 0.6070(2)
O12 O 0.4300(2) 0.3347(2) 0.77097(15)
C26 C 0.4544(3) 0.8955(3) 0.5498(2)
C27 C 0.4396(2) 0.8363(2) 0.5630(2)
H20 H 0.4012 0.8287 0.5720
C29 C 0.7233(2) 0.8890(2) 0.59489(19)
C30 C 0.4940(2) 0.8646(2) 0.68980(19)
H21 H 0.4786 0.8238 0.6909
C31 C 0.4147(3) 0.9511(3) 0.5503(2)
C33 C 0.5665(3) 0.2991(3) 0.9680(2)
C34 C 0.7978(3) 0.9876(3) 0.5720(2)
C36 C 0.5308(3) 0.3100(3) 0.9161(2)
C37 C 0.4743(2) 0.9758(2) 0.68581(18)
C38 C 0.4821(3) 0.7883(2) 0.5628(2)
H22 H 0.4712 0.7486 0.5723
C39 C 0.5758(2) 0.9321(2) 0.6873(2)
H23 H 0.6184 0.9383 0.6869
C41 C 0.5120(3) 0.9037(3) 0.5348(2)
H24 H 0.5234 0.9428 0.5245
C42 C 0.3788(3) 0.3799(3) 0.7587(2)
H25 H 0.3416 0.3645 0.7693
H26 H 0.3918 0.4195 0.7754
C45 C 0.4612(3) 0.3270(3) 0.8202(2)
C46 C 0.5372(2) 0.9840(2) 0.6855(2)
C47 C 0.5516(3) 0.8517(3) 0.5360(2)
H30 H 0.5899 0.8572 0.5266
C48 C 0.7125(3) 0.9512(2) 0.6069(2)
H31 H 0.6806 0.9599 0.6235
C49 C 0.5444(3) 0.2755(3) 0.8764(2)
H32 H 0.5775 0.2463 0.8823
C52 C 0.4455(3) 0.3613(3) 0.8587(2)
H36 H 0.4119 0.3899 0.8528
C53 C 0.8117(3) 0.9260(3) 0.5612(2)
H37 H 0.8454 0.9174 0.5465
C55 C 0.5100(3) 0.2843(3) 0.8295(2)
H40 H 0.5196 0.2611 0.8038
C56 C 0.4807(3) 0.3513(3) 0.9046(2)
H41 H 0.4704 0.3741 0.9303
C57 C 0.3631(3) 0.3896(3) 0.7044(2)
H42 H 0.3602 0.3489 0.6882
H43 H 0.3217 0.4098 0.6947
N9 N 0.70172(19) 0.73087(18) 0.69870(15)
O13 O 0.62842(19) 0.77919(19) 0.77239(14)
O14 O 0.68992(18) 0.85118(18) 0.75294(14)
N10 N 0.6884(2) 0.65773(18) 0.56238(16)
O15 O 0.60981(18) 0.74039(18) 0.47821(14)
O16 O 0.55006(18) 0.66998(17) 0.50145(14)
O1_2 O 0.08151(16) 0.17549(15) 0.61164(13)
O2_2 O 0.05514(15) 0.23806(15) 0.66799(14)
C2_2 C 0.0529(2) 0.1865(2) 0.6446(2)
C3_2 C 0.0134(2) 0.1354(2) 0.65989(18)
C6_2 C 0.0220(3) 0.0737(2) 0.6476(2)
H4_2 H 0.0529 0.0648 0.6301
O4_2 O 0.12842(19) 0.72081(19) 0.27239(14)
O5_2 O 0.18992(18) 0.64882(18) 0.25294(14)
C10_2 C 0.1737(3) 0.6828(3) 0.2850(2)
C11_2 C 0.2074(3) 0.6801(3) 0.3380(2)
C12_2 C 0.1919(3) 0.7185(3) 0.3734(2)
H8_2 H 0.1575 0.7459 0.3647
C13_2 C 0.2256(3) 0.7169(3) 0.4206(2)
H9_2 H 0.2151 0.7438 0.4438
C14_2 C 0.2579(3) 0.6377(3) 0.3528(2)
H10_2 H 0.2680 0.6102 0.3297
C15_2 C 0.2931(3) 0.6356(3) 0.4007(2)
H11_2 H 0.3273 0.6080 0.4097
C16_2 C 0.2768(3) 0.6744(3) 0.4345(2)
O6_2 O 0.3076(2) 0.6763(2) 0.48369(15)
C17_2 C 0.3638(3) 0.6392(3) 0.4992(2)
H12_2 H 0.3995 0.6589 0.4891
H13_2 H 0.3574 0.5975 0.4846
N7_2 N 0.0376(2) 0.29413(19) 0.55007(16)
O7_2 O 0.15451(18) 0.34828(15) 0.64128(14)
N8_2 N 0.05528(19) 0.37327(18) 0.68970(15)
O8_2 O 0.17948(16) 0.28777(15) 0.58251(14)
C23_2 C 0.2744(3) 0.3775(3) 0.5728(2)
H18_2 H 0.2837 0.3363 0.5657
C25_2 C 0.1837(2) 0.3381(2) 0.6070(2)
O11_2 O 0.3368(2) 0.53250(19) 0.55934(16)
C29_2 C 0.2233(2) 0.3890(2) 0.59489(19)
C34_2 C 0.2978(3) 0.4876(3) 0.5720(2)
C39_2 C 0.0758(2) 0.4321(2) 0.6873(2)
H23_2 H 0.1184 0.4383 0.6869
C41_2 C 0.0120(3) 0.4037(3) 0.5348(2)
H24_2 H 0.0234 0.4428 0.5245
C46_2 C 0.0372(2) 0.4840(2) 0.6855(2)
H29_2 H 0.0537 0.5243 0.6841
C47_2 C 0.0516(3) 0.3517(3) 0.5360(2)
H30_2 H 0.0899 0.3572 0.5266
C48_2 C 0.2125(3) 0.4512(2) 0.6069(2)
H31_2 H 0.1806 0.4599 0.6235
C50_2 C 0.3275(3) 0.5964(3) 0.5732(2)
H33_2 H 0.3336 0.5999 0.6087
H34_2 H 0.2847 0.6106 0.5579
C51_2 C 0.2488(3) 0.5009(3) 0.5943(2)
H35_2 H 0.2397 0.5424 0.6010
C53_2 C 0.3117(3) 0.4260(3) 0.5612(2)
H37_2 H 0.3454 0.4174 0.5465
C54_2 C 0.3768(3) 0.6349(3) 0.5553(2)
H38_2 H 0.4185 0.6162 0.5676
H39_2 H 0.3777 0.6771 0.5689
O13_2 O 0.12842(19) 0.27919(19) 0.77239(14)
O14_2 O 0.18992(18) 0.35118(18) 0.75294(14)
Co4_2 Co 0.12487(3) 0.70061(3) 0.19440(2)
O15_2 O 0.10981(18) 0.24039(18) 0.47821(14)
O16_2 O 0.05006(18) 0.16998(17) 0.50145(14)
O10_2 O 0.05006(18) 0.83002(17) 0.00145(14)
Co6_2 Co 0.11096(3) 0.77694(3) 0.05785(2)
O9_2 O 0.10981(18) 0.75961(18) 0.97821(14)
C33_2 C 0.0665(3) 0.7991(3) 0.9680(2)
C36_2 C 0.0308(3) 0.8100(3) 0.9161(2)
C49_2 C 0.0444(3) 0.7755(3) 0.8764(2)
H32_2 H 0.0775 0.7463 0.8823
C55_2 C 0.0100(3) 0.7843(3) 0.8295(2)
H40_2 H 0.0196 0.7611 0.8038
C1_2 C 0.7576(3) 0.7527(2) 0.6935(2)
H1_2 H 0.7624 0.7961 0.6915
C4_2 C 0.9686(3) 0.1479(3) 0.68696(19)
H2_2 H 0.9625 0.1890 0.6966
C5_2 C 0.9326(3) 0.0989(3) 0.6997(2)
H3_2 H 0.9016 0.1075 0.7173
C7_2 C 0.9873(3) 0.0249(3) 0.6601(2)
C8_2 C 0.9423(3) 0.0376(3) 0.6865(2)
C18_2 C 0.6843(2) 0.5975(2) 0.5712(2)
H14_2 H 0.6472 0.5828 0.5792
C19_2 C 0.7318(3) 0.5543(2) 0.5693(2)
H15_2 H 0.7261 0.5118 0.5752
C20_2 C 0.7427(3) 0.6774(2) 0.5529(2)
H16_2 H 0.7471 0.7203 0.5475
C21_2 C 0.7936(3) 0.6383(2) 0.5505(2)
H17_2 H 0.8308 0.6546 0.5436
C22_2 C 0.7876(3) 0.5754(2) 0.5584(2)
S1_2 S 0.83949(7) 0.45197(7) 0.56022(6)
S2_2 S 0.85658(7) 0.52959(6) 0.69410(6)
N3_2 N 0.8939(3) 0.5548(2) 0.5485(2)
N4_2 N 0.9101(2) 0.6331(2) 0.6852(3)
N5_2 N 0.9364(3) 0.5075(3) 0.5436(3)
N6_2 N 0.9542(2) 0.5873(2) 0.6822(2)
C24_2 C 0.9524(2) 0.4150(2) 0.6883(2)
H19_2 H 0.9100 0.4078 0.6889
C26_2 C 0.9544(3) 0.3955(3) 0.5498(2)
C27_2 C 0.9396(2) 0.3363(2) 0.5630(2)
H20_2 H 0.9012 0.3287 0.5720
C28_2 C 0.8027(2) 0.6502(2) 0.6946(2)
C30_2 C 0.9940(2) 0.3646(2) 0.68980(19)
H21_2 H 0.9786 0.3238 0.6909
C31_2 C 0.9147(3) 0.4511(3) 0.5503(2)
C32_2 C 0.8408(3) 0.5327(2) 0.5552(2)
C35_2 C 0.8564(3) 0.6094(2) 0.6909(2)
C37_2 C 0.9743(2) 0.4758(2) 0.68581(18)
C38_2 C 0.9821(3) 0.2883(2) 0.5628(2)
H22_2 H 0.9712 0.2486 0.5723
C40_2 C 0.9332(2) 0.5312(2) 0.6862(2)
C43_2 C 0.8090(3) 0.7151(2) 0.6911(2)
H27_2 H 0.8471 0.7328 0.6871
C44_2 C 0.7454(3) 0.6271(2) 0.7017(2)
H28_2 H 0.7400 0.5841 0.7056
C58_2 C 0.6964(3) 0.6683(2) 0.7030(2)
H44_2 H 0.6578 0.6520 0.7071
O1_3 O 0.58151(16) 0.32451(15) 0.11164(13)
O2_3 O 0.55514(15) 0.26194(15) 0.16799(14)
C2_3 C 0.5529(2) 0.3135(2) 0.1446(2)
C3_3 C 0.5134(2) 0.3646(2) 0.15989(18)
C4_3 C 0.4686(3) 0.3521(3) 0.18696(19)
H2_3 H 0.4625 0.3110 0.1966
C5_3 C 0.4326(3) 0.4011(3) 0.1997(2)
H3_3 H 0.4016 0.3925 0.2173
C6_3 C 0.5220(3) 0.4263(2) 0.1476(2)
H4_3 H 0.5529 0.4352 0.1301
C7_3 C 0.4873(3) 0.4751(3) 0.1601(2)
H5_2 H 0.4942 0.5161 0.1507
C8_3 C 0.4423(3) 0.4624(3) 0.1865(2)
O3_2 O 0.40412(19) 0.50684(19) 0.20101(16)
C9_2 C 0.4124(3) 0.5704(3) 0.1874(2)
H6_2 H 0.4067 0.5737 0.1519
H7_2 H 0.4551 0.5848 0.2028
S1_3 S 0.33949(7) 0.04803(7) 0.06022(6)
N7_3 N 0.5376(2) 0.20587(19) 0.05007(16)
O7_3 O 0.65451(18) 0.15172(15) 0.14128(14)
N8_3 N 0.55528(19) 0.12673(18) 0.18970(15)
O8_3 O 0.67948(16) 0.21223(15) 0.08251(14)
C23_3 C 0.7744(3) 0.1225(3) 0.0728(2)
H18_3 H 0.7837 0.1637 0.0657
C24_3 C 0.4524(2) 0.0850(2) 0.1883(2)
H19_3 H 0.4100 0.0922 0.1889
C25_3 C 0.6837(2) 0.1619(2) 0.1070(2)
O12_2 O 0.4300(2) 0.6653(2) 0.27097(15)
C26_3 C 0.4544(3) 0.1045(3) 0.0498(2)
C27_3 C 0.4396(2) 0.1637(2) 0.0630(2)
H20_3 H 0.4012 0.1713 0.0720
C29_3 C 0.7233(2) 0.1110(2) 0.09489(19)
C30_3 C 0.4940(2) 0.1354(2) 0.18980(19)
H21_3 H 0.4786 0.1762 0.1909
C31_3 C 0.4147(3) 0.0489(3) 0.0503(2)
C33_3 C 0.5665(3) 0.7009(3) 0.4680(2)
C34_3 C 0.7978(3) 0.0124(3) 0.0720(2)
C36_3 C 0.5308(3) 0.6900(3) 0.4161(2)
C37_3 C 0.4743(2) 0.0242(2) 0.18581(18)
C38_3 C 0.4821(3) 0.2117(2) 0.0628(2)
H22_3 H 0.4712 0.2514 0.0723
C39_3 C 0.5758(2) 0.0679(2) 0.1873(2)
H23_3 H 0.6184 0.0617 0.1869
C41_3 C 0.5120(3) 0.0963(3) 0.0348(2)
H24_3 H 0.5234 0.0572 0.0245
C42_2 C 0.3788(3) 0.6201(3) 0.2587(2)
H25_2 H 0.3416 0.6355 0.2693
H26_2 H 0.3918 0.5805 0.2754
C45_2 C 0.4612(3) 0.6730(3) 0.3202(2)
C46_3 C 0.5372(2) 0.0160(2) 0.1855(2)
C47_3 C 0.5516(3) 0.1483(3) 0.0360(2)
H30_3 H 0.5899 0.1428 0.0266
C48_3 C 0.7125(3) 0.0488(2) 0.1069(2)
H31_3 H 0.6806 0.0401 0.1235
C49_3 C 0.5444(3) 0.7245(3) 0.3764(2)
H32_3 H 0.5775 0.7537 0.3823
C52_2 C 0.4455(3) 0.6387(3) 0.3587(2)
H36_2 H 0.4119 0.6101 0.3528
C53_3 C 0.8117(3) 0.0740(3) 0.0612(2)
H37_3 H 0.8454 0.0826 0.0465
C55_3 C 0.5100(3) 0.7157(3) 0.3295(2)
H40_3 H 0.5196 0.7389 0.3038
C56_2 C 0.4807(3) 0.6487(3) 0.4046(2)
H41_2 H 0.4704 0.6259 0.4303
C57_2 C 0.3631(3) 0.6104(3) 0.2044(2)
H42_2 H 0.3602 0.6511 0.1882
H43_2 H 0.3217 0.5902 0.1947
N9_2 N 0.70172(19) 0.26913(18) 0.19870(15)
N10_2 N 0.6884(2) 0.34227(18) 0.06238(16)
N1_2 N 0.20172(19) 0.76913(18) 0.19870(15)
C1_3 C 0.2576(3) 0.7473(2) 0.1935(2)
H1_3 H 0.2624 0.7039 0.1915
N2_2 N 0.1884(2) 0.84227(18) 0.06238(16)
C18_3 C 0.1843(2) 0.9025(2) 0.0712(2)
H14_3 H 0.1472 0.9172 0.0792
C19_3 C 0.2318(3) 0.9457(2) 0.0693(2)
H15_3 H 0.2261 0.9882 0.0752
C20_3 C 0.2427(3) 0.8226(2) 0.0529(2)
H16_3 H 0.2471 0.7797 0.0475
C21_3 C 0.2936(3) 0.8617(2) 0.0505(2)
H17_3 H 0.3308 0.8454 0.0436
C22_3 C 0.2876(3) 0.9246(2) 0.0584(2)
S2_3 S 0.35658(7) 0.97041(6) 0.19410(6)
N3_3 N 0.3939(3) 0.9452(2) 0.0485(2)
N4_3 N 0.4101(2) 0.8669(2) 0.1852(3)
N5_3 N 0.4364(3) 0.9925(3) 0.0436(3)
N6_3 N 0.4542(2) 0.9127(2) 0.1822(2)
O11_3 O 0.8368(2) 0.96750(19) 0.05934(16)
C28_3 C 0.3027(2) 0.8498(2) 0.1946(2)
C32_3 C 0.3408(3) 0.9673(2) 0.0552(2)
C35_3 C 0.3564(3) 0.8906(2) 0.1909(2)
C40_3 C 0.4332(2) 0.9688(2) 0.1862(2)
C43_3 C 0.3090(3) 0.7849(2) 0.1911(2)
H27_3 H 0.3471 0.7672 0.1871
C44_3 C 0.2454(3) 0.8729(2) 0.2017(2)
H28_3 H 0.2400 0.9159 0.2056
H29_3 H 0.5537 0.9757 0.1841
C50_3 C 0.8275(3) 0.9036(3) 0.0732(2)
H33_3 H 0.8336 0.9001 0.1087
H34_3 H 0.7847 0.8894 0.0579
C51_3 C 0.7488(3) 0.9991(3) 0.0943(2)
H35_3 H 0.7397 0.9576 0.1010
C54_3 C 0.8768(3) 0.8651(3) 0.0553(2)
H38_3 H 0.9185 0.8838 0.0676
H39_3 H 0.8777 0.8229 0.0689
C58_3 C 0.1964(3) 0.8317(2) 0.2030(2)
H44_3 H 0.1578 0.8480 0.2071
C10_3 C 0.6737(3) 0.8172(3) 0.7850(2)
C11_3 C 0.7074(3) 0.8199(3) 0.8380(2)
C12_3 C 0.6919(3) 0.7815(3) 0.8734(2)
H8_3 H 0.6575 0.7541 0.8647
C13_3 C 0.7256(3) 0.7831(3) 0.9206(2)
H9_3 H 0.7151 0.7562 0.9438
C14_3 C 0.7579(3) 0.8623(3) 0.8528(2)
H10_3 H 0.7680 0.8898 0.8297
C15_3 C 0.7931(3) 0.8644(3) 0.9007(2)
H11_3 H 0.8273 0.8920 0.9097
C16_3 C 0.7768(3) 0.8256(3) 0.9345(2)
O6_3 O 0.8076(2) 0.8237(2) 0.98369(15)
C17_3 C 0.8638(3) 0.8608(3) 0.9992(2)
H12_3 H 0.8995 0.8411 0.9891
H13_3 H 0.8574 0.9025 0.9846
C33_4 C 0.0665(3) 0.2009(3) 0.4680(2)
C36_4 C 0.0308(3) 0.1900(3) 0.4161(2)
C49_4 C 0.0444(3) 0.2245(3) 0.3764(2)
H32_4 H 0.0775 0.2537 0.3823
C55_4 C 0.0100(3) 0.2157(3) 0.3295(2)
H40_4 H 0.0196 0.2389 0.3038
O1_4 O 0.08151(16) 0.82451(15) 0.11164(13)
O2_4 O 0.05514(15) 0.76194(15) 0.16799(14)
C2_4 C 0.0529(2) 0.8135(2) 0.1446(2)
C3_4 C 0.0134(2) 0.8646(2) 0.15989(18)
C6_4 C 0.0220(3) 0.9263(2) 0.1476(2)
H4_4 H 0.0529 0.9352 0.1301
N7_4 N 0.0376(2) 0.70587(19) 0.05007(16)
O7_4 O 0.15451(18) 0.65172(15) 0.14128(14)
N8_4 N 0.05528(19) 0.62673(18) 0.18970(15)
O8_4 O 0.17948(16) 0.71223(15) 0.08251(14)
C23_4 C 0.2744(3) 0.6225(3) 0.0728(2)
H18_4 H 0.2837 0.6637 0.0657
C25_4 C 0.1837(2) 0.6619(2) 0.1070(2)
O11_4 O 0.3368(2) 0.46750(19) 0.05934(16)
C29_4 C 0.2233(2) 0.6110(2) 0.09489(19)
C34_4 C 0.2978(3) 0.5124(3) 0.0720(2)
C39_4 C 0.0758(2) 0.5679(2) 0.1873(2)
H23_4 H 0.1184 0.5617 0.1869
C41_4 C 0.0120(3) 0.5963(3) 0.0348(2)
H24_4 H 0.0234 0.5572 0.0245
C46_4 C 0.0372(2) 0.5160(2) 0.1855(2)
H29_4 H 0.0537 0.4757 0.1841
C47_4 C 0.0516(3) 0.6483(3) 0.0360(2)
H30_4 H 0.0899 0.6428 0.0266
C48_4 C 0.2125(3) 0.5488(2) 0.1069(2)
H31_4 H 0.1806 0.5401 0.1235
C50_4 C 0.3275(3) 0.4036(3) 0.0732(2)
H33_4 H 0.3336 0.4001 0.1087
H34_4 H 0.2847 0.3894 0.0579
C51_4 C 0.2488(3) 0.4991(3) 0.0943(2)
H35_4 H 0.2397 0.4576 0.1010
C53_4 C 0.3117(3) 0.5740(3) 0.0612(2)
H37_4 H 0.3454 0.5826 0.0465
C54_4 C 0.3768(3) 0.3651(3) 0.0553(2)
H38_4 H 0.4185 0.3838 0.0676
H39_4 H 0.3777 0.3229 0.0689
C10_4 C 0.1737(3) 0.3172(3) 0.7850(2)
C11_4 C 0.2074(3) 0.3199(3) 0.8380(2)
C12_4 C 0.1919(3) 0.2815(3) 0.8734(2)
H8_4 H 0.1575 0.2541 0.8647
C13_4 C 0.2256(3) 0.2831(3) 0.9206(2)
H9_4 H 0.2151 0.2562 0.9438
C14_4 C 0.2579(3) 0.3623(3) 0.8528(2)
H10_4 H 0.2680 0.3898 0.8297
C15_4 C 0.2931(3) 0.3644(3) 0.9007(2)
H11_4 H 0.3273 0.3920 0.9097
C16_4 C 0.2768(3) 0.3256(3) 0.9345(2)
O6_4 O 0.3076(2) 0.3237(2) 0.98369(15)
C17_4 C 0.3638(3) 0.3608(3) 0.9992(2)
H12_4 H 0.3995 0.3411 0.9891
H13_4 H 0.3574 0.4025 0.9846
C1_4 C 0.7576(3) 0.2473(2) 0.1935(2)
H1_4 H 0.7624 0.2039 0.1915
C4_4 C 0.9686(3) 0.8521(3) 0.18696(19)
H2_4 H 0.9625 0.8110 0.1966
C5_4 C 0.9326(3) 0.9011(3) 0.1997(2)
H3_4 H 0.9016 0.8925 0.2173
C7_4 C 0.9873(3) 0.9751(3) 0.1601(2)
C8_4 C 0.9423(3) 0.9624(3) 0.1865(2)
C18_4 C 0.6843(2) 0.4025(2) 0.0712(2)
H14_4 H 0.6472 0.4172 0.0792
C19_4 C 0.7318(3) 0.4457(2) 0.0693(2)
H15_4 H 0.7261 0.4882 0.0752
C20_4 C 0.7427(3) 0.3226(2) 0.0529(2)
H16_4 H 0.7471 0.2797 0.0475
C21_4 C 0.7936(3) 0.3617(2) 0.0505(2)
H17_4 H 0.8308 0.3454 0.0436
C22_4 C 0.7876(3) 0.4246(2) 0.0584(2)
S1_4 S 0.83949(7) 0.54803(7) 0.06022(6)
S2_4 S 0.85658(7) 0.47041(6) 0.19410(6)
N3_4 N 0.8939(3) 0.4452(2) 0.0485(2)
N4_4 N 0.9101(2) 0.3669(2) 0.1852(3)
N5_4 N 0.9364(3) 0.4925(3) 0.0436(3)
N6_4 N 0.9542(2) 0.4127(2) 0.1822(2)
C24_4 C 0.9524(2) 0.5850(2) 0.1883(2)
H19_4 H 0.9100 0.5922 0.1889
C26_4 C 0.9544(3) 0.6045(3) 0.0498(2)
C27_4 C 0.9396(2) 0.6637(2) 0.0630(2)
H20_4 H 0.9012 0.6713 0.0720
C28_4 C 0.8027(2) 0.3498(2) 0.1946(2)
C30_4 C 0.9940(2) 0.6354(2) 0.18980(19)
H21_4 H 0.9786 0.6762 0.1909
C31_4 C 0.9147(3) 0.5489(3) 0.0503(2)
C32_4 C 0.8408(3) 0.4673(2) 0.0552(2)
C35_4 C 0.8564(3) 0.3906(2) 0.1909(2)
C37_4 C 0.9743(2) 0.5242(2) 0.18581(18)
C38_4 C 0.9821(3) 0.7117(2) 0.0628(2)
H22_4 H 0.9712 0.7514 0.0723
C40_4 C 0.9332(2) 0.4688(2) 0.1862(2)
C43_4 C 0.8090(3) 0.2849(2) 0.1911(2)
H27_4 H 0.8471 0.2672 0.1871
C44_4 C 0.7454(3) 0.3729(2) 0.2017(2)
H28_4 H 0.7400 0.4159 0.2056
C58_4 C 0.6964(3) 0.3317(2) 0.2030(2)
H44_4 H 0.6578 0.3480 0.2071
O4_3 O 0.37158(19) 0.22081(19) 0.22761(14)
O5_3 O 0.31008(18) 0.14882(18) 0.24706(14)
C10_5 C 0.3263(3) 0.1828(3) 0.2150(2)
C11_5 C 0.2926(3) 0.1801(3) 0.1620(2)
C12_5 C 0.3081(3) 0.2185(3) 0.1266(2)
H8_5 H 0.3425 0.2459 0.1353
C13_5 C 0.2744(3) 0.2169(3) 0.0794(2)
H9_5 H 0.2849 0.2438 0.0562
C14_5 C 0.2421(3) 0.1377(3) 0.1472(2)
H10_5 H 0.2320 0.1102 0.1703
C15_5 C 0.2069(3) 0.1356(3) 0.0993(2)
H11_5 H 0.1727 0.1080 0.0903
C16_5 C 0.2232(3) 0.1744(3) 0.0655(2)
O6_5 O 0.1924(2) 0.1763(2) 0.01631(15)
C17_5 C 0.1362(3) 0.1392(3) 0.0008(2)
H12_5 H 0.1005 0.1589 0.0109
H13_5 H 0.1426 0.0975 0.0154
Co4_3 Co 0.37513(3) 0.20061(3) 0.30560(2)
N1_3 N 0.79828(19) 0.23087(18) 0.80130(15)
C1_5 C 0.7424(3) 0.2527(2) 0.8065(2)
H1_5 H 0.7376 0.2961 0.8085
N2_3 N 0.8116(2) 0.15773(18) 0.93762(16)
C18_5 C 0.8157(2) 0.0975(2) 0.9288(2)
H14_5 H 0.8528 0.0828 0.9208
C19_5 C 0.7682(3) 0.0543(2) 0.9307(2)
H15_5 H 0.7739 0.0118 0.9248
C20_5 C 0.7573(3) 0.1774(2) 0.9471(2)
H16_5 H 0.7529 0.2203 0.9525
C21_5 C 0.7064(3) 0.1383(2) 0.9495(2)
H17_5 H 0.6692 0.1546 0.9564
C22_5 C 0.7124(3) 0.0754(2) 0.9416(2)
S2_5 S 0.64342(7) 0.02959(6) 0.80590(6)
N3_5 N 0.6061(3) 0.0548(2) 0.9515(2)
N4_5 N 0.5899(2) 0.1331(2) 0.8148(3)
N5_5 N 0.5636(3) 0.0075(3) 0.9564(3)
N6_5 N 0.5458(2) 0.0873(2) 0.8178(2)
O11_5 O 0.1632(2) 0.03250(19) 0.94066(16)
C28_5 C 0.6973(2) 0.1502(2) 0.8054(2)
C32_5 C 0.6592(3) 0.0327(2) 0.9448(2)
C35_5 C 0.6436(3) 0.1094(2) 0.8091(2)
C40_5 C 0.5668(2) 0.0312(2) 0.8138(2)
C43_5 C 0.6910(3) 0.2151(2) 0.8089(2)
H27_5 H 0.6529 0.2328 0.8129
C44_5 C 0.7546(3) 0.1271(2) 0.7983(2)
H28_5 H 0.7600 0.0841 0.7944
H29_5 H 0.4463 0.0243 0.8159
C50_5 C 0.1725(3) 0.0964(3) 0.9268(2)
H33_5 H 0.1664 0.0999 0.8913
H34_5 H 0.2153 0.1106 0.9421
C51_5 C 0.2512(3) 0.0009(3) 0.9057(2)
H35_5 H 0.2603 0.0424 0.8990
C54_5 C 0.1232(3) 0.1349(3) 0.9447(2)
H38_5 H 0.0815 0.1162 0.9324
H39_5 H 0.1223 0.1771 0.9311
C58_5 C 0.8036(3) 0.1683(2) 0.7970(2)
H44_5 H 0.8422 0.1520 0.7929
Co3_2 Co 0.87513(3) 0.29939(3) 0.80560(2)
Co5_2 Co 0.88904(3) 0.22306(3) 0.94215(2)
O15_3 O 0.39019(18) 0.74039(18) 0.02179(14)
O1_5 O 0.41849(16) 0.67549(15) 0.88836(13)
O2_5 O 0.44486(15) 0.73806(15) 0.83201(14)
C2_5 C 0.4471(2) 0.6865(2) 0.8554(2)
C3_5 C 0.4866(2) 0.6354(2) 0.84011(18)
C4_5 C 0.5314(3) 0.6479(3) 0.81304(19)
H2_5 H 0.5375 0.6890 0.8034
C5_5 C 0.5674(3) 0.5989(3) 0.8003(2)
H3_5 H 0.5984 0.6075 0.7827
C6_5 C 0.4780(3) 0.5737(2) 0.8524(2)
H4_5 H 0.4471 0.5648 0.8699
C7_5 C 0.5127(3) 0.5249(3) 0.8399(2)
H5_3 H 0.5058 0.4839 0.8493
C8_5 C 0.5577(3) 0.5376(3) 0.8135(2)
O3_3 O 0.59588(19) 0.49316(19) 0.79899(16)
C9_3 C 0.5876(3) 0.4296(3) 0.8126(2)
H6_3 H 0.5933 0.4263 0.8481
H7_3 H 0.5449 0.4152 0.7972
Co1_2 Co 0.37513(3) 0.79939(3) 0.80560(2)
Co2_2 Co 0.38904(3) 0.72306(3) 0.94215(2)
S1_5 S 0.66051(7) 0.95197(7) 0.93978(6)
N7_5 N 0.4624(2) 0.79413(19) 0.94993(16)
O7_5 O 0.34549(18) 0.84828(15) 0.85872(14)
N8_5 N 0.44472(19) 0.87327(18) 0.81030(15)
O8_5 O 0.32052(16) 0.78777(15) 0.91749(14)
O9_3 O 0.39019(18) 0.25961(18) 0.52179(14)
O10_3 O 0.44994(18) 0.33002(17) 0.49855(14)
C23_5 C 0.2256(3) 0.8775(3) 0.9272(2)
H18_5 H 0.2163 0.8363 0.9343
C24_5 C 0.5476(2) 0.9150(2) 0.8117(2)
H19_5 H 0.5900 0.9078 0.8111
C25_5 C 0.3163(2) 0.8381(2) 0.8930(2)
O12_3 O 0.5700(2) 0.3347(2) 0.72903(15)
C26_5 C 0.5456(3) 0.8955(3) 0.9502(2)
C27_5 C 0.5604(2) 0.8363(2) 0.9370(2)
H20_5 H 0.5988 0.8287 0.9280
C29_5 C 0.2767(2) 0.8890(2) 0.90511(19)
C30_5 C 0.5060(2) 0.8646(2) 0.81020(19)
H21_5 H 0.5214 0.8238 0.8091
C31_5 C 0.5853(3) 0.9511(3) 0.9497(2)
C33_5 C 0.4335(3) 0.2991(3) 0.5320(2)
C34_5 C 0.2022(3) 0.9876(3) 0.9280(2)
C36_5 C 0.4692(3) 0.3100(3) 0.5839(2)
C37_5 C 0.5257(2) 0.9758(2) 0.81419(18)
C38_5 C 0.5179(3) 0.7883(2) 0.9372(2)
H22_5 H 0.5288 0.7486 0.9277
C39_5 C 0.4242(2) 0.9321(2) 0.8127(2)
H23_5 H 0.3816 0.9383 0.8131
C41_5 C 0.4880(3) 0.9037(3) 0.9652(2)
H24_5 H 0.4766 0.9428 0.9755
C42_3 C 0.6212(3) 0.3799(3) 0.7413(2)
H25_3 H 0.6584 0.3645 0.7307
H26_3 H 0.6082 0.4195 0.7246
C45_3 C 0.5388(3) 0.3270(3) 0.6798(2)
C46_5 C 0.4628(2) 0.9840(2) 0.8145(2)
C47_5 C 0.4484(3) 0.8517(3) 0.9640(2)
H30_5 H 0.4101 0.8572 0.9734
C48_5 C 0.2875(3) 0.9512(2) 0.8931(2)
H31_5 H 0.3194 0.9599 0.8765
C49_5 C 0.4556(3) 0.2755(3) 0.6236(2)
H32_5 H 0.4225 0.2463 0.6177
C52_3 C 0.5545(3) 0.3613(3) 0.6413(2)
H36_3 H 0.5881 0.3899 0.6472
C53_5 C 0.1883(3) 0.9260(3) 0.9388(2)
H37_5 H 0.1546 0.9174 0.9535
C55_5 C 0.4900(3) 0.2843(3) 0.6705(2)
H40_5 H 0.4804 0.2611 0.6962
C56_3 C 0.5193(3) 0.3513(3) 0.5954(2)
H41_3 H 0.5296 0.3741 0.5697
C57_3 C 0.6369(3) 0.3896(3) 0.7956(2)
H42_3 H 0.6398 0.3489 0.8118
H43_3 H 0.6783 0.4098 0.8053
N9_3 N 0.29828(19) 0.73087(18) 0.80130(15)
O13_3 O 0.37158(19) 0.77919(19) 0.72761(14)
O14_3 O 0.31008(18) 0.85118(18) 0.74706(14)
N10_3 N 0.3116(2) 0.65773(18) 0.93762(16)
Co6_3 Co 0.38904(3) 0.27694(3) 0.44215(2)
O16_3 O 0.44994(18) 0.66998(17) 0.99855(14)
C1_6 C 0.2424(3) 0.7527(2) 0.8065(2)
H1_6 H 0.2376 0.7961 0.8085
C4_6 C 0.0314(3) 0.1479(3) 0.81304(19)
H2_6 H 0.0375 0.1890 0.8034
C5_6 C 0.0674(3) 0.0989(3) 0.8003(2)
H3_6 H 0.0984 0.1075 0.7827
C7_6 C 0.0127(3) 0.0249(3) 0.8399(2)
C8_6 C 0.0577(3) 0.0376(3) 0.8135(2)
C18_6 C 0.3157(2) 0.5975(2) 0.9288(2)
H14_6 H 0.3528 0.5828 0.9208
C19_6 C 0.2682(3) 0.5543(2) 0.9307(2)
H15_6 H 0.2739 0.5118 0.9248
C20_6 C 0.2573(3) 0.6774(2) 0.9471(2)
H16_6 H 0.2529 0.7203 0.9525
C21_6 C 0.2064(3) 0.6383(2) 0.9495(2)
H17_6 H 0.1692 0.6546 0.9564
C22_6 C 0.2124(3) 0.5754(2) 0.9416(2)
S1_6 S 0.16051(7) 0.45197(7) 0.93978(6)
S2_6 S 0.14342(7) 0.52959(6) 0.80590(6)
N3_6 N 0.1061(3) 0.5548(2) 0.9515(2)
N4_6 N 0.0899(2) 0.6331(2) 0.8148(3)
N5_6 N 0.0636(3) 0.5075(3) 0.9564(3)
N6_6 N 0.0458(2) 0.5873(2) 0.8178(2)
C24_6 C 0.0476(2) 0.4150(2) 0.8117(2)
H19_6 H 0.0900 0.4078 0.8111
C26_6 C 0.0456(3) 0.3955(3) 0.9502(2)
C27_6 C 0.0604(2) 0.3363(2) 0.9370(2)
H20_6 H 0.0988 0.3287 0.9280
C28_6 C 0.1973(2) 0.6502(2) 0.8054(2)
C30_6 C 0.0060(2) 0.3646(2) 0.81020(19)
H21_6 H 0.0214 0.3238 0.8091
C31_6 C 0.0853(3) 0.4511(3) 0.9497(2)
C32_6 C 0.1592(3) 0.5327(2) 0.9448(2)
C35_6 C 0.1436(3) 0.6094(2) 0.8091(2)
C37_6 C 0.0257(2) 0.4758(2) 0.81419(18)
C38_6 C 0.0179(3) 0.2883(2) 0.9372(2)
H22_6 H 0.0288 0.2486 0.9277
C40_6 C 0.0668(2) 0.5312(2) 0.8138(2)
C43_6 C 0.1910(3) 0.7151(2) 0.8089(2)
H27_6 H 0.1529 0.7328 0.8129
C44_6 C 0.2546(3) 0.6271(2) 0.7983(2)
H28_6 H 0.2600 0.5841 0.7944
C58_6 C 0.3036(3) 0.6683(2) 0.7970(2)
H44_6 H 0.3422 0.6520 0.7929
O4_4 O 0.87158(19) 0.72081(19) 0.22761(14)
O5_4 O 0.81008(18) 0.64882(18) 0.24706(14)
C10_6 C 0.8263(3) 0.6828(3) 0.2150(2)
C11_6 C 0.7926(3) 0.6801(3) 0.1620(2)
C12_6 C 0.8081(3) 0.7185(3) 0.1266(2)
H8_6 H 0.8425 0.7459 0.1353
C13_6 C 0.7744(3) 0.7169(3) 0.0794(2)
H9_6 H 0.7849 0.7438 0.0562
C14_6 C 0.7421(3) 0.6377(3) 0.1472(2)
H10_6 H 0.7320 0.6102 0.1703
C15_6 C 0.7069(3) 0.6356(3) 0.0993(2)
H11_6 H 0.6727 0.6080 0.0903
C16_6 C 0.7232(3) 0.6744(3) 0.0655(2)
O6_6 O 0.6924(2) 0.6763(2) 0.01631(15)
C17_6 C 0.6362(3) 0.6392(3) 0.0008(2)
H12_6 H 0.6005 0.6589 0.0109
H13_6 H 0.6426 0.5975 0.0154
Co4_4 Co 0.87513(3) 0.70061(3) 0.30560(2)
O15_4 O 0.89019(18) 0.24039(18) 0.02179(14)
O1_6 O 0.91849(16) 0.17549(15) 0.88836(13)
O2_6 O 0.94486(15) 0.23806(15) 0.83201(14)
C2_6 C 0.9471(2) 0.1865(2) 0.8554(2)
C3_6 C 0.9866(2) 0.1354(2) 0.84011(18)
C6_6 C 0.9780(3) 0.0737(2) 0.8524(2)
H4_6 H 0.9471 0.0648 0.8699
N7_6 N 0.9624(2) 0.29413(19) 0.94993(16)
O7_6 O 0.84549(18) 0.34828(15) 0.85872(14)
N8_6 N 0.94472(19) 0.37327(18) 0.81030(15)
O8_6 O 0.82052(16) 0.28777(15) 0.91749(14)
C23_6 C 0.7256(3) 0.3775(3) 0.9272(2)
H18_6 H 0.7163 0.3363 0.9343
C25_6 C 0.8163(2) 0.3381(2) 0.8930(2)
O11_6 O 0.6632(2) 0.53250(19) 0.94066(16)
C29_6 C 0.7767(2) 0.3890(2) 0.90511(19)
C34_6 C 0.7022(3) 0.4876(3) 0.9280(2)
C39_6 C 0.9242(2) 0.4321(2) 0.8127(2)
H23_6 H 0.8816 0.4383 0.8131
C41_6 C 0.9880(3) 0.4037(3) 0.9652(2)
H24_6 H 0.9766 0.4428 0.9755
C46_6 C 0.9628(2) 0.4840(2) 0.8145(2)
H29_6 H 0.9463 0.5243 0.8159
C47_6 C 0.9484(3) 0.3517(3) 0.9640(2)
H30_6 H 0.9101 0.3572 0.9734
C48_6 C 0.7875(3) 0.4512(2) 0.8931(2)
H31_6 H 0.8194 0.4599 0.8765
C50_6 C 0.6725(3) 0.5964(3) 0.9268(2)
H33_6 H 0.6664 0.5999 0.8913
H34_6 H 0.7153 0.6106 0.9421
C51_6 C 0.7512(3) 0.5009(3) 0.9057(2)
H35_6 H 0.7603 0.5424 0.8990
C53_6 C 0.6883(3) 0.4260(3) 0.9388(2)
H37_6 H 0.6546 0.4174 0.9535
C54_6 C 0.6232(3) 0.6349(3) 0.9447(2)
H38_6 H 0.5815 0.6162 0.9324
H39_6 H 0.6223 0.6771 0.9311
O13_4 O 0.87158(19) 0.27919(19) 0.72761(14)
O14_4 O 0.81008(18) 0.35118(18) 0.74706(14)
O16_4 O 0.94994(18) 0.16998(17) 0.99855(14)
O9_4 O 0.89019(18) 0.75961(18) 0.52179(14)
O10_4 O 0.94994(18) 0.83002(17) 0.49855(14)
C33_6 C 0.9335(3) 0.7991(3) 0.5320(2)
C36_6 C 0.9692(3) 0.8100(3) 0.5839(2)
C49_6 C 0.9556(3) 0.7755(3) 0.6236(2)
H32_6 H 0.9225 0.7463 0.6177
C55_6 C 0.9900(3) 0.7843(3) 0.6705(2)
H40_6 H 0.9804 0.7611 0.6962
Co6_4 Co 0.88904(3) 0.77694(3) 0.44215(2)
O1_7 O 0.41849(16) 0.32451(15) 0.38836(13)
O2_7 O 0.44486(15) 0.26194(15) 0.33201(14)
C2_7 C 0.4471(2) 0.3135(2) 0.3554(2)
C3_7 C 0.4866(2) 0.3646(2) 0.34011(18)
C4_7 C 0.5314(3) 0.3521(3) 0.31304(19)
H2_7 H 0.5375 0.3110 0.3034
C5_7 C 0.5674(3) 0.4011(3) 0.3003(2)
H3_7 H 0.5984 0.3925 0.2827
C6_7 C 0.4780(3) 0.4263(2) 0.3524(2)
H4_7 H 0.4471 0.4352 0.3699
C7_7 C 0.5127(3) 0.4751(3) 0.3399(2)
H5_4 H 0.5058 0.5161 0.3493
C8_7 C 0.5577(3) 0.4624(3) 0.3135(2)
O3_4 O 0.59588(19) 0.50684(19) 0.29899(16)
C9_4 C 0.5876(3) 0.5704(3) 0.3126(2)
H6_4 H 0.5933 0.5737 0.3481
H7_4 H 0.5449 0.5848 0.2972
S1_7 S 0.66051(7) 0.04803(7) 0.43978(6)
N7_7 N 0.4624(2) 0.20587(19) 0.44993(16)
O7_7 O 0.34549(18) 0.15172(15) 0.35872(14)
N8_7 N 0.44472(19) 0.12673(18) 0.31030(15)
O8_7 O 0.32052(16) 0.21223(15) 0.41749(14)
C23_7 C 0.2256(3) 0.1225(3) 0.4272(2)
H18_7 H 0.2163 0.1637 0.4343
C24_7 C 0.5476(2) 0.0850(2) 0.3117(2)
H19_7 H 0.5900 0.0922 0.3111
C25_7 C 0.3163(2) 0.1619(2) 0.3930(2)
O12_4 O 0.5700(2) 0.6653(2) 0.22903(15)
C26_7 C 0.5456(3) 0.1045(3) 0.4502(2)
C27_7 C 0.5604(2) 0.1637(2) 0.4370(2)
H20_7 H 0.5988 0.1713 0.4280
C29_7 C 0.2767(2) 0.1110(2) 0.40511(19)
C30_7 C 0.5060(2) 0.1354(2) 0.31020(19)
H21_7 H 0.5214 0.1762 0.3091
C31_7 C 0.5853(3) 0.0489(3) 0.4497(2)
C33_7 C 0.4335(3) 0.7009(3) 0.0320(2)
C34_7 C 0.2022(3) 0.0124(3) 0.4280(2)
C36_7 C 0.4692(3) 0.6900(3) 0.0839(2)
C37_7 C 0.5257(2) 0.0242(2) 0.31419(18)
C38_7 C 0.5179(3) 0.2117(2) 0.4372(2)
H22_7 H 0.5288 0.2514 0.4277
C39_7 C 0.4242(2) 0.0679(2) 0.3127(2)
H23_7 H 0.3816 0.0617 0.3131
C41_7 C 0.4880(3) 0.0963(3) 0.4652(2)
H24_7 H 0.4766 0.0572 0.4755
C42_4 C 0.6212(3) 0.6201(3) 0.2413(2)
H25_4 H 0.6584 0.6355 0.2307
H26_4 H 0.6082 0.5805 0.2246
C45_4 C 0.5388(3) 0.6730(3) 0.1798(2)
C46_7 C 0.4628(2) 0.0160(2) 0.3145(2)
C47_7 C 0.4484(3) 0.1483(3) 0.4640(2)
H30_7 H 0.4101 0.1428 0.4734
C48_7 C 0.2875(3) 0.0488(2) 0.3931(2)
H31_7 H 0.3194 0.0401 0.3765
C49_7 C 0.4556(3) 0.7245(3) 0.1236(2)
H32_7 H 0.4225 0.7537 0.1177
C52_4 C 0.5545(3) 0.6387(3) 0.1413(2)
H36_4 H 0.5881 0.6101 0.1472
C53_7 C 0.1883(3) 0.0740(3) 0.4388(2)
H37_7 H 0.1546 0.0826 0.4535
C55_7 C 0.4900(3) 0.7157(3) 0.1705(2)
H40_7 H 0.4804 0.7389 0.1962
C56_4 C 0.5193(3) 0.6487(3) 0.0954(2)
H41_4 H 0.5296 0.6259 0.0697
C57_4 C 0.6369(3) 0.6104(3) 0.2956(2)
H42_4 H 0.6398 0.6511 0.3118
H43_4 H 0.6783 0.5902 0.3053
N9_4 N 0.29828(19) 0.26913(18) 0.30130(15)
N10_4 N 0.3116(2) 0.34227(18) 0.43762(16)
N1_4 N 0.79828(19) 0.76913(18) 0.30130(15)
C1_7 C 0.7424(3) 0.7473(2) 0.3065(2)
H1_7 H 0.7376 0.7039 0.3085
C10_7 C 0.3263(3) 0.8172(3) 0.7150(2)
C11_7 C 0.2926(3) 0.8199(3) 0.6620(2)
C12_7 C 0.3081(3) 0.7815(3) 0.6266(2)
H8_7 H 0.3425 0.7541 0.6353
C13_7 C 0.2744(3) 0.7831(3) 0.5794(2)
H9_7 H 0.2849 0.7562 0.5562
C14_7 C 0.2421(3) 0.8623(3) 0.6472(2)
H10_7 H 0.2320 0.8898 0.6703
C15_7 C 0.2069(3) 0.8644(3) 0.5993(2)
H11_7 H 0.1727 0.8920 0.5903
C16_7 C 0.2232(3) 0.8256(3) 0.5655(2)
O6_7 O 0.1924(2) 0.8237(2) 0.51631(15)
C17_7 C 0.1362(3) 0.8608(3) 0.5008(2)
H12_7 H 0.1005 0.8411 0.5109
H13_7 H 0.1426 0.9025 0.5154
N2_4 N 0.8116(2) 0.84227(18) 0.43762(16)
C18_7 C 0.8157(2) 0.9025(2) 0.4288(2)
H14_7 H 0.8528 0.9172 0.4208
C19_7 C 0.7682(3) 0.9457(2) 0.4307(2)
H15_7 H 0.7739 0.9882 0.4248
C20_7 C 0.7573(3) 0.8226(2) 0.4471(2)
H16_7 H 0.7529 0.7797 0.4525
C21_7 C 0.7064(3) 0.8617(2) 0.4495(2)
H17_7 H 0.6692 0.8454 0.4564
C22_7 C 0.7124(3) 0.9246(2) 0.4416(2)
S2_7 S 0.64342(7) 0.97041(6) 0.30590(6)
N3_7 N 0.6061(3) 0.9452(2) 0.4515(2)
N4_7 N 0.5899(2) 0.8669(2) 0.3148(3)
N5_7 N 0.5636(3) 0.9925(3) 0.4564(3)
N6_7 N 0.5458(2) 0.9127(2) 0.3178(2)
O11_7 O 0.1632(2) 0.96750(19) 0.44066(16)
C28_7 C 0.6973(2) 0.8498(2) 0.3054(2)
C32_7 C 0.6592(3) 0.9673(2) 0.4448(2)
C35_7 C 0.6436(3) 0.8906(2) 0.3091(2)
C40_7 C 0.5668(2) 0.9688(2) 0.3138(2)
C43_7 C 0.6910(3) 0.7849(2) 0.3089(2)
H27_7 H 0.6529 0.7672 0.3129
C44_7 C 0.7546(3) 0.8729(2) 0.2983(2)
H28_7 H 0.7600 0.9159 0.2944
H29_7 H 0.4463 0.9757 0.3159
C50_7 C 0.1725(3) 0.9036(3) 0.4268(2)
H33_7 H 0.1664 0.9001 0.3913
H34_7 H 0.2153 0.8894 0.4421
C51_7 C 0.2512(3) 0.9991(3) 0.4057(2)
H35_7 H 0.2603 0.9576 0.3990
C54_7 C 0.1232(3) 0.8651(3) 0.4447(2)
H38_7 H 0.0815 0.8838 0.4324
H39_7 H 0.1223 0.8229 0.4311
C58_7 C 0.8036(3) 0.8317(2) 0.2970(2)
H44_7 H 0.8422 0.8480 0.2929
C1_8 C 0.2424(3) 0.2473(2) 0.3065(2)
H1_8 H 0.2376 0.2039 0.3085
C4_8 C 0.0314(3) 0.8521(3) 0.31304(19)
H2_8 H 0.0375 0.8110 0.3034
C5_8 C 0.0674(3) 0.9011(3) 0.3003(2)
H3_8 H 0.0984 0.8925 0.2827
C7_8 C 0.0127(3) 0.9751(3) 0.3399(2)
C8_8 C 0.0577(3) 0.9624(3) 0.3135(2)
C18_8 C 0.3157(2) 0.4025(2) 0.4288(2)
H14_8 H 0.3528 0.4172 0.4208
C19_8 C 0.2682(3) 0.4457(2) 0.4307(2)
H15_8 H 0.2739 0.4882 0.4248
C20_8 C 0.2573(3) 0.3226(2) 0.4471(2)
H16_8 H 0.2529 0.2797 0.4525
C21_8 C 0.2064(3) 0.3617(2) 0.4495(2)
H17_8 H 0.1692 0.3454 0.4564
C22_8 C 0.2124(3) 0.4246(2) 0.4416(2)
S1_8 S 0.16051(7) 0.54803(7) 0.43978(6)
S2_8 S 0.14342(7) 0.47041(6) 0.30590(6)
N3_8 N 0.1061(3) 0.4452(2) 0.4515(2)
N4_8 N 0.0899(2) 0.3669(2) 0.3148(3)
N5_8 N 0.0636(3) 0.4925(3) 0.4564(3)
N6_8 N 0.0458(2) 0.4127(2) 0.3178(2)
C24_8 C 0.0476(2) 0.5850(2) 0.3117(2)
H19_8 H 0.0900 0.5922 0.3111
C26_8 C 0.0456(3) 0.6045(3) 0.4502(2)
C27_8 C 0.0604(2) 0.6637(2) 0.4370(2)
H20_8 H 0.0988 0.6713 0.4280
C28_8 C 0.1973(2) 0.3498(2) 0.3054(2)
C30_8 C 0.0060(2) 0.6354(2) 0.31020(19)
H21_8 H 0.0214 0.6762 0.3091
C31_8 C 0.0853(3) 0.5489(3) 0.4497(2)
C32_8 C 0.1592(3) 0.4673(2) 0.4448(2)
C35_8 C 0.1436(3) 0.3906(2) 0.3091(2)
C37_8 C 0.0257(2) 0.5242(2) 0.31419(18)
C38_8 C 0.0179(3) 0.7117(2) 0.4372(2)
H22_8 H 0.0288 0.7514 0.4277
C40_8 C 0.0668(2) 0.4688(2) 0.3138(2)
C43_8 C 0.1910(3) 0.2849(2) 0.3089(2)
H27_8 H 0.1529 0.2672 0.3129
C44_8 C 0.2546(3) 0.3729(2) 0.2983(2)
H28_8 H 0.2600 0.4159 0.2944
C58_8 C 0.3036(3) 0.3317(2) 0.2970(2)
H44_8 H 0.3422 0.3480 0.2929
C33_8 C 0.9335(3) 0.2009(3) 0.0320(2)
C36_8 C 0.9692(3) 0.1900(3) 0.0839(2)
C49_8 C 0.9556(3) 0.2245(3) 0.1236(2)
H32_8 H 0.9225 0.2537 0.1177
C55_8 C 0.9900(3) 0.2157(3) 0.1705(2)
H40_8 H 0.9804 0.2389 0.1962
O1_8 O 0.91849(16) 0.82451(15) 0.38836(13)
O2_8 O 0.94486(15) 0.76194(15) 0.33201(14)
C2_8 C 0.9471(2) 0.8135(2) 0.3554(2)
C3_8 C 0.9866(2) 0.8646(2) 0.34011(18)
C6_8 C 0.9780(3) 0.9263(2) 0.3524(2)
H4_8 H 0.9471 0.9352 0.3699
C10_8 C 0.8263(3) 0.3172(3) 0.7150(2)
C11_8 C 0.7926(3) 0.3199(3) 0.6620(2)
C12_8 C 0.8081(3) 0.2815(3) 0.6266(2)
H8_8 H 0.8425 0.2541 0.6353
C13_8 C 0.7744(3) 0.2831(3) 0.5794(2)
H9_8 H 0.7849 0.2562 0.5562
C14_8 C 0.7421(3) 0.3623(3) 0.6472(2)
H10_8 H 0.7320 0.3898 0.6703
C15_8 C 0.7069(3) 0.3644(3) 0.5993(2)
H11_8 H 0.6727 0.3920 0.5903
C16_8 C 0.7232(3) 0.3256(3) 0.5655(2)
O6_8 O 0.6924(2) 0.3237(2) 0.51631(15)
C17_8 C 0.6362(3) 0.3608(3) 0.5008(2)
H12_8 H 0.6005 0.3411 0.5109
H13_8 H 0.6426 0.4025 0.5154
N7_8 N 0.9624(2) 0.70587(19) 0.44993(16)
O7_8 O 0.84549(18) 0.65172(15) 0.35872(14)
N8_8 N 0.94472(19) 0.62673(18) 0.31030(15)
O8_8 O 0.82052(16) 0.71223(15) 0.41749(14)
C23_8 C 0.7256(3) 0.6225(3) 0.4272(2)
H18_8 H 0.7163 0.6637 0.4343
C25_8 C 0.8163(2) 0.6619(2) 0.3930(2)
O11_8 O 0.6632(2) 0.46750(19) 0.44066(16)
C29_8 C 0.7767(2) 0.6110(2) 0.40511(19)
C34_8 C 0.7022(3) 0.5124(3) 0.4280(2)
C39_8 C 0.9242(2) 0.5679(2) 0.3127(2)
H23_8 H 0.8816 0.5617 0.3131
C41_8 C 0.9880(3) 0.5963(3) 0.4652(2)
H24_8 H 0.9766 0.5572 0.4755
C46_8 C 0.9628(2) 0.5160(2) 0.3145(2)
H29_8 H 0.9463 0.4757 0.3159
C47_8 C 0.9484(3) 0.6483(3) 0.4640(2)
H30_8 H 0.9101 0.6428 0.4734
C48_8 C 0.7875(3) 0.5488(2) 0.3931(2)
H31_8 H 0.8194 0.5401 0.3765
C50_8 C 0.6725(3) 0.4036(3) 0.4268(2)
H33_8 H 0.6664 0.4001 0.3913
H34_8 H 0.7153 0.3894 0.4421
C51_8 C 0.7512(3) 0.4991(3) 0.4057(2)
H35_8 H 0.7603 0.4576 0.3990
C53_8 C 0.6883(3) 0.5740(3) 0.4388(2)
H37_8 H 0.6546 0.5826 0.4535
C54_8 C 0.6232(3) 0.3651(3) 0.4447(2)
H38_8 H 0.5815 0.3838 0.4324
H39_8 H 0.6223 0.3229 0.4311
H5_5 H 0.9942 0.9839 0.6507
O3_5 O 0.90412(19) 0.99316(19) 0.70101(16)
C9_5 C 0.9124(3) 0.9296(3) 0.6874(2)
H6_5 H 0.9067 0.9263 0.6519
H7_5 H 0.9551 0.9152 0.7028
O12_5 O 0.9300(2) 0.8347(2) 0.77097(15)
C42_5 C 0.8788(3) 0.8799(3) 0.7587(2)
H25_5 H 0.8416 0.8645 0.7693
H26_5 H 0.8918 0.9195 0.7754
C45_5 C 0.9612(3) 0.8270(3) 0.8202(2)
C52_5 C 0.9455(3) 0.8613(3) 0.8587(2)
H36_5 H 0.9119 0.8899 0.8528
C56_5 C 0.9807(3) 0.8513(3) 0.9046(2)
H41_5 H 0.9704 0.8741 0.9303
C57_5 C 0.8631(3) 0.8896(3) 0.7044(2)
H42_5 H 0.8602 0.8489 0.6882
H43_5 H 0.8217 0.9098 0.6947
H5_6 H 0.0058 0.9839 0.8493
O3_6 O 0.09588(19) 0.99316(19) 0.79899(16)
C9_6 C 0.0876(3) 0.9296(3) 0.8126(2)
H6_6 H 0.0933 0.9263 0.8481
H7_6 H 0.0449 0.9152 0.7972
O12_6 O 0.0700(2) 0.8347(2) 0.72903(15)
C42_6 C 0.1212(3) 0.8799(3) 0.7413(2)
H25_6 H 0.1584 0.8645 0.7307
H26_6 H 0.1082 0.9195 0.7246
C45_6 C 0.0388(3) 0.8270(3) 0.6798(2)
C52_6 C 0.0545(3) 0.8613(3) 0.6413(2)
H36_6 H 0.0881 0.8899 0.6472
C56_6 C 0.0193(3) 0.8513(3) 0.5954(2)
H41_6 H 0.0296 0.8741 0.5697
C57_6 C 0.1369(3) 0.8896(3) 0.7956(2)
H42_6 H 0.1398 0.8489 0.8118
H43_6 H 0.1783 0.9098 0.8053
H5_7 H 0.0058 0.0161 0.3493
O3_7 O 0.09588(19) 0.00684(19) 0.29899(16)
C9_7 C 0.0876(3) 0.0704(3) 0.3126(2)
H6_7 H 0.0933 0.0737 0.3481
H7_7 H 0.0449 0.0848 0.2972
O12_7 O 0.0700(2) 0.1653(2) 0.22903(15)
C42_7 C 0.1212(3) 0.1201(3) 0.2413(2)
H25_7 H 0.1584 0.1355 0.2307
H26_7 H 0.1082 0.0805 0.2246
C45_7 C 0.0388(3) 0.1730(3) 0.1798(2)
C52_7 C 0.0545(3) 0.1387(3) 0.1413(2)
H36_7 H 0.0881 0.1101 0.1472
C56_7 C 0.0193(3) 0.1487(3) 0.0954(2)
H41_7 H 0.0296 0.1259 0.0697
C57_7 C 0.1369(3) 0.1104(3) 0.2956(2)
H42_7 H 0.1398 0.1511 0.3118
H43_7 H 0.1783 0.0902 0.3053
H5_8 H 0.9942 0.0161 0.1507
O3_8 O 0.90412(19) 0.00684(19) 0.20101(16)
C9_8 C 0.9124(3) 0.0704(3) 0.1874(2)
H6_8 H 0.9067 0.0737 0.1519
H7_8 H 0.9551 0.0848 0.2028
O12_8 O 0.9300(2) 0.1653(2) 0.27097(15)
C42_8 C 0.8788(3) 0.1201(3) 0.2587(2)
H25_8 H 0.8416 0.1355 0.2693
H26_8 H 0.8918 0.0805 0.2754
C45_8 C 0.9612(3) 0.1730(3) 0.3202(2)
C52_8 C 0.9455(3) 0.1387(3) 0.3587(2)
H36_8 H 0.9119 0.1101 0.3528
C56_8 C 0.9807(3) 0.1487(3) 0.4046(2)
H41_8 H 0.9704 0.1259 0.4303
C57_8 C 0.8631(3) 0.1104(3) 0.2044(2)
H42_8 H 0.8602 0.1511 0.1882
H43_8 H 0.8217 0.0902 0.1947
loop_
_geom_bond_atom_site_label_1
_geom_bond_atom_site_label_2
_geom_bond_site_symmetry_1
_geom_bond_site_symmetry_2
N1 C1 1_555 1_555
C1 H1 1_555 1_555
O4 C10 1_555 1_555
O5 C10 1_555 1_555
C10 C11 1_555 1_555
C11 C12 1_555 1_555
C12 H8 1_555 1_555
C13 C12 1_555 1_555
H9 C13 1_555 1_555
C14 C11 1_555 1_555
H10 C14 1_555 1_555
C15 C14 1_555 1_555
H11 C15 1_555 1_555
C16 C13 1_555 1_555
O6 C16 1_555 1_555
C17 O6 1_555 1_555
H12 C17 1_555 1_555
H13 C17 1_555 1_555
N2 C18 1_555 1_555
C18 H14 1_555 1_555
C19 C18 1_555 1_555
H15 C19 1_555 1_555
C20 N2 1_555 1_555
H16 C20 1_555 1_555
C21 C20 1_555 1_555
H17 C21 1_555 1_555
C22 C19 1_555 1_555
S2 C35 1_555 1_555
N3 N5 1_555 1_555
N4 N6 1_555 1_555
N6 C40 1_555 1_555
C28 C35 1_555 1_555
C32 C22 1_555 1_555
C35 N4 1_555 1_555
C40 S2 1_555 1_555
C43 C1 1_555 1_555
H27 C43 1_555 1_555
C44 C28 1_555 1_555
H28 C44 1_555 1_555
C50 O11 1_555 1_555
H33 C50 1_555 1_555
H34 C50 1_555 1_555
H35 C51 1_555 1_555
C54 C17 1_555 1_555
H38 C54 1_555 1_555
H39 C54 1_555 1_555
C58 N1 1_555 1_555
H44 C58 1_555 1_555
Co3 N1 1_555 1_555
Co4 O4 1_555 1_555
Co5 N2 1_555 1_555
O5 Co4 1_555 1_555
C15 C16 1_555 1_555
C21 C22 1_555 1_555
N3 C32 1_555 1_555
C28 C43 1_555 1_555
C44 C58 1_555 1_555
C50 C54 1_555 1_555
O10 Co6 1_555 1_555
O1 C2 1_555 1_555
O2 C2 1_555 1_555
C2 C3 1_555 1_555
C3 C4 1_555 1_555
C4 H2 1_555 1_555
C5 C4 1_555 1_555
H3 C5 1_555 1_555
C6 C3 1_555 1_555
H4 C6 1_555 1_555
C7 C6 1_555 1_555
H5 C7 1_555 1_555
C8 C5 1_555 1_555
O3 C8 1_555 1_555
C9 O3 1_555 1_555
H6 C9 1_555 1_555
H7 C9 1_555 1_555
Co1 O2 1_555 1_555
Co2 O1 1_555 1_555
S1 C31 1_555 1_555
N7 Co2 1_555 1_555
O7 Co1 1_555 1_555
N8 Co1 1_555 1_555
O8 Co2 1_555 1_555
O9 C33 1_555 1_555
C23 H18 1_555 1_555
C24 H19 1_555 1_555
C25 O7 1_555 1_555
O12 C42 1_555 1_555
C26 C27 1_555 1_555
C27 H20 1_555 1_555
C29 C23 1_555 1_555
C30 N8 1_555 1_555
H21 C30 1_555 1_555
C31 C26 1_555 1_555
C33 C36 1_555 1_555
C36 C49 1_555 1_555
C37 C24 1_555 1_555
C38 N7 1_555 1_555
H22 C38 1_555 1_555
C39 N8 1_555 1_555
H23 C39 1_555 1_555
C41 C26 1_555 1_555
H24 C41 1_555 1_555
C42 H25 1_555 1_555
H26 C42 1_555 1_555
C45 O12 1_555 1_555
C46 C37 1_555 1_555
C47 N7 1_555 1_555
H30 C47 1_555 1_555
C48 C29 1_555 1_555
H31 C48 1_555 1_555
C49 H32 1_555 1_555
C52 C45 1_555 1_555
H36 C52 1_555 1_555
C53 C23 1_555 1_555
H37 C53 1_555 1_555
C55 C45 1_555 1_555
H40 C55 1_555 1_555
C56 C36 1_555 1_555
H41 C56 1_555 1_555
C57 C9 1_555 1_555
H42 C57 1_555 1_555
H43 C57 1_555 1_555
N9 Co1 1_555 1_555
O13 Co1 1_555 1_555
O14 Co1 1_555 1_555
N10 Co2 1_555 1_555
O15 Co2 1_555 1_555
O16 Co2 1_555 1_555
C7 C8 1_555 1_555
O8 C25 1_555 1_555
C24 C30 1_555 1_555
C25 C29 1_555 1_555
C27 C38 1_555 1_555
C34 C53 1_555 1_555
C39 C46 1_555 1_555
C41 C47 1_555 1_555
C42 C57 1_555 1_555
C49 C55 1_555 1_555
C52 C56 1_555 1_555
O1_2 C2_2 1_555 1_555
O2_2 C2_2 1_555 1_555
C2_2 C3_2 1_555 1_555
C6_2 C3_2 1_555 1_555
H4_2 C6_2 1_555 1_555
O4_2 C10_2 1_555 1_555
O5_2 C10_2 1_555 1_555
C10_2 C11_2 1_555 1_555
C11_2 C12_2 1_555 1_555
C12_2 H8_2 1_555 1_555
C13_2 C12_2 1_555 1_555
H9_2 C13_2 1_555 1_555
C14_2 C11_2 1_555 1_555
H10_2 C14_2 1_555 1_555
C15_2 C14_2 1_555 1_555
H11_2 C15_2 1_555 1_555
C16_2 C13_2 1_555 1_555
O6_2 C16_2 1_555 1_555
C17_2 O6_2 1_555 1_555
H12_2 C17_2 1_555 1_555
H13_2 C17_2 1_555 1_555
Co3 O2_2 1_555 1_555
Co5 O1_2 1_555 1_555
N7_2 Co5 1_555 1_555
O7_2 Co3 1_555 1_555
N8_2 Co3 1_555 1_555
O8_2 Co5 1_555 1_555
C23_2 H18_2 1_555 1_555
C25_2 O7_2 1_555 1_555
O11_2 C34_2 1_555 1_555
C29_2 C23_2 1_555 1_555
C34_2 C51_2 1_555 1_555
C39_2 N8_2 1_555 1_555
H23_2 C39_2 1_555 1_555
H24_2 C41_2 1_555 1_555
H29_2 C46_2 1_555 1_555
C47_2 N7_2 1_555 1_555
H30_2 C47_2 1_555 1_555
C48_2 C29_2 1_555 1_555
H31_2 C48_2 1_555 1_555
C50_2 O11_2 1_555 1_555
H33_2 C50_2 1_555 1_555
H34_2 C50_2 1_555 1_555
C51_2 C48_2 1_555 1_555
H35_2 C51_2 1_555 1_555
C53_2 C23_2 1_555 1_555
H37_2 C53_2 1_555 1_555
C54_2 C17_2 1_555 1_555
H38_2 C54_2 1_555 1_555
H39_2 C54_2 1_555 1_555
O13_2 Co3 1_555 1_555
O14_2 Co3 1_555 1_555
Co4_2 O4_2 1_555 1_555
O15_2 Co5 1_555 1_555
O16_2 Co5 1_555 1_555
O5_2 Co4_2 1_555 1_555
C15_2 C16_2 1_555 1_555
O8_2 C25_2 1_555 1_555
C25_2 C29_2 1_555 1_555
C34_2 C53_2 1_555 1_555
C39_2 C46_2 1_555 1_555
C41_2 C47_2 1_555 1_555
C50_2 C54_2 1_555 1_555
O10_2 Co6_2 1_555 1_555
O9_2 C33_2 1_555 1_555
C33_2 C36_2 1_555 1_555
C36_2 C49_2 1_555 1_555
C49_2 H32_2 1_555 1_555
H40_2 C55_2 1_555 1_555
C49_2 C55_2 1_555 1_555
N9 C1_2 1_555 1_555
C1_2 H1_2 1_555 1_555
C4_2 H2_2 1_555 1_555
C5_2 C4_2 1_555 1_555
H3_2 C5_2 1_555 1_555
C8_2 C5_2 1_555 1_555
N10 C18_2 1_555 1_555
C18_2 H14_2 1_555 1_555
C19_2 C18_2 1_555 1_555
H15_2 C19_2 1_555 1_555
C20_2 N10 1_555 1_555
H16_2 C20_2 1_555 1_555
C21_2 C20_2 1_555 1_555
H17_2 C21_2 1_555 1_555
C22_2 C19_2 1_555 1_555
S1_2 C31_2 1_555 1_555
S2_2 C35_2 1_555 1_555
N3_2 N5_2 1_555 1_555
N4_2 N6_2 1_555 1_555
N5_2 C31_2 1_555 1_555
N6_2 C40_2 1_555 1_555
C24_2 H19_2 1_555 1_555
C26_2 C27_2 1_555 1_555
C27_2 H20_2 1_555 1_555
C28_2 C35_2 1_555 1_555
H21_2 C30_2 1_555 1_555
C31_2 C26_2 1_555 1_555
C32_2 C22_2 1_555 1_555
C35_2 N4_2 1_555 1_555
C37_2 C24_2 1_555 1_555
H22_2 C38_2 1_555 1_555
C40_2 S2_2 1_555 1_555
C43_2 C1_2 1_555 1_555
H27_2 C43_2 1_555 1_555
C44_2 C28_2 1_555 1_555
H28_2 C44_2 1_555 1_555
C58_2 N9 1_555 1_555
H44_2 C58_2 1_555 1_555
C7_2 C8_2 1_555 1_555
C21_2 C22_2 1_555 1_555
S1_2 C32_2 1_555 1_555
N3_2 C32_2 1_555 1_555
C24_2 C30_2 1_555 1_555
C27_2 C38_2 1_555 1_555
C28_2 C43_2 1_555 1_555
C37_2 C40_2 1_555 1_555
C44_2 C58_2 1_555 1_555
O1_3 C2_3 1_555 1_555
O2_3 C2_3 1_555 1_555
C2_3 C3_3 1_555 1_555
C3_3 C4_3 1_555 1_555
C4_3 H2_3 1_555 1_555
C5_3 C4_3 1_555 1_555
H3_3 C5_3 1_555 1_555
C6_3 C3_3 1_555 1_555
H4_3 C6_3 1_555 1_555
C7_3 C6_3 1_555 1_555
H5_2 C7_3 1_555 1_555
C8_3 C5_3 1_555 1_555
O3_2 C8_3 1_555 1_555
C9_2 O3_2 1_555 1_555
H6_2 C9_2 1_555 1_555
H7_2 C9_2 1_555 1_555
Co4 O2_3 1_555 1_555
Co6 O1_3 1_555 1_555
S1_3 C31_3 1_555 1_555
N7_3 Co6 1_555 1_555
O7_3 Co4 1_555 1_555
N8_3 Co4 1_555 1_555
O8_3 Co6 1_555 1_555
O15 C33_3 1_555 1_555
O16 C33_3 1_555 1_555
C23_3 H18_3 1_555 1_555
C24_3 H19_3 1_555 1_555
C25_3 O7_3 1_555 1_555
O12_2 C42_2 1_555 1_555
C26_3 C27_3 1_555 1_555
C27_3 H20_3 1_555 1_555
C29_3 C23_3 1_555 1_555
C30_3 N8_3 1_555 1_555
H21_3 C30_3 1_555 1_555
C31_3 C26_3 1_555 1_555
C33_3 C36_3 1_555 1_555
C36_3 C49_3 1_555 1_555
C37_3 C24_3 1_555 1_555
C38_3 N7_3 1_555 1_555
H22_3 C38_3 1_555 1_555
C39_3 N8_3 1_555 1_555
H23_3 C39_3 1_555 1_555
C41_3 C26_3 1_555 1_555
H24_3 C41_3 1_555 1_555
C42_2 H25_2 1_555 1_555
H26_2 C42_2 1_555 1_555
C45_2 O12_2 1_555 1_555
C46_3 C37_3 1_555 1_555
C47_3 N7_3 1_555 1_555
H30_3 C47_3 1_555 1_555
C48_3 C29_3 1_555 1_555
H31_3 C48_3 1_555 1_555
C49_3 H32_3 1_555 1_555
C52_2 C45_2 1_555 1_555
H36_2 C52_2 1_555 1_555
C53_3 C23_3 1_555 1_555
H37_3 C53_3 1_555 1_555
C55_3 C45_2 1_555 1_555
H40_3 C55_3 1_555 1_555
C56_2 C36_3 1_555 1_555
H41_2 C56_2 1_555 1_555
C57_2 C9_2 1_555 1_555
H42_2 C57_2 1_555 1_555
H43_2 C57_2 1_555 1_555
N9_2 Co4 1_555 1_555
N10_2 Co6 1_555 1_555
C7_3 C8_3 1_555 1_555
O8_3 C25_3 1_555 1_555
C24_3 C30_3 1_555 1_555
C25_3 C29_3 1_555 1_555
C27_3 C38_3 1_555 1_555
C34_3 C53_3 1_555 1_555
C39_3 C46_3 1_555 1_555
C41_3 C47_3 1_555 1_555
C42_2 C57_2 1_555 1_555
C49_3 C55_3 1_555 1_555
C52_2 C56_2 1_555 1_555
N1_2 C1_3 1_555 1_555
C1_3 H1_3 1_555 1_555
N2_2 C18_3 1_555 1_555
C18_3 H14_3 1_555 1_555
C19_3 C18_3 1_555 1_555
H15_3 C19_3 1_555 1_555
C20_3 N2_2 1_555 1_555
H16_3 C20_3 1_555 1_555
C21_3 C20_3 1_555 1_555
H17_3 C21_3 1_555 1_555
C22_3 C19_3 1_555 1_555
S2_3 C35_3 1_555 1_555
N3_3 N5_3 1_555 1_555
N4_3 N6_3 1_555 1_555
N6_3 C40_3 1_555 1_555
C28_3 C35_3 1_555 1_555
C32_3 C22_3 1_555 1_555
C35_3 N4_3 1_555 1_555
C40_3 S2_3 1_555 1_555
C43_3 C1_3 1_555 1_555
H27_3 C43_3 1_555 1_555
C44_3 C28_3 1_555 1_555
H28_3 C44_3 1_555 1_555
C50_3 O11_3 1_555 1_555
H33_3 C50_3 1_555 1_555
H34_3 C50_3 1_555 1_555
H35_3 C51_3 1_555 1_555
H38_3 C54_3 1_555 1_555
H39_3 C54_3 1_555 1_555
C58_3 N1_2 1_555 1_555
H44_3 C58_3 1_555 1_555
Co4_2 N1_2 1_555 1_555
Co6_2 N2_2 1_555 1_555
C21_3 C22_3 1_555 1_555
N3_3 C32_3 1_555 1_555
C28_3 C43_3 1_555 1_555
C44_3 C58_3 1_555 1_555
C50_3 C54_3 1_555 1_555
O13 C10_3 1_555 1_555
O14 C10_3 1_555 1_555
C10_3 C11_3 1_555 1_555
C11_3 C12_3 1_555 1_555
C12_3 H8_3 1_555 1_555
C13_3 C12_3 1_555 1_555
H9_3 C13_3 1_555 1_555
C14_3 C11_3 1_555 1_555
H10_3 C14_3 1_555 1_555
C15_3 C14_3 1_555 1_555
H11_3 C15_3 1_555 1_555
C16_3 C13_3 1_555 1_555
O6_3 C16_3 1_555 1_555
C17_3 O6_3 1_555 1_555
H12_3 C17_3 1_555 1_555
H13_3 C17_3 1_555 1_555
C15_3 C16_3 1_555 1_555
O15_2 C33_4 1_555 1_555
O16_2 C33_4 1_555 1_555
C33_4 C36_4 1_555 1_555
C36_4 C49_4 1_555 1_555
C49_4 H32_4 1_555 1_555
H40_4 C55_4 1_555 1_555
C49_4 C55_4 1_555 1_555
O1_4 C2_4 1_555 1_555
O2_4 C2_4 1_555 1_555
C2_4 C3_4 1_555 1_555
C6_4 C3_4 1_555 1_555
H4_4 C6_4 1_555 1_555
Co4_2 O2_4 1_555 1_555
Co6_2 O1_4 1_555 1_555
N7_4 Co6_2 1_555 1_555
O7_4 Co4_2 1_555 1_555
N8_4 Co4_2 1_555 1_555
O8_4 Co6_2 1_555 1_555
C23_4 H18_4 1_555 1_555
C25_4 O7_4 1_555 1_555
O11_4 C34_4 1_555 1_555
C29_4 C23_4 1_555 1_555
C34_4 C51_4 1_555 1_555
C39_4 N8_4 1_555 1_555
H23_4 C39_4 1_555 1_555
H24_4 C41_4 1_555 1_555
H29_4 C46_4 1_555 1_555
C47_4 N7_4 1_555 1_555
H30_4 C47_4 1_555 1_555
C48_4 C29_4 1_555 1_555
H31_4 C48_4 1_555 1_555
C50_4 O11_4 1_555 1_555
H33_4 C50_4 1_555 1_555
H34_4 C50_4 1_555 1_555
C51_4 C48_4 1_555 1_555
H35_4 C51_4 1_555 1_555
C53_4 C23_4 1_555 1_555
H37_4 C53_4 1_555 1_555
H38_4 C54_4 1_555 1_555
H39_4 C54_4 1_555 1_555
O8_4 C25_4 1_555 1_555
C25_4 C29_4 1_555 1_555
C34_4 C53_4 1_555 1_555
C39_4 C46_4 1_555 1_555
C41_4 C47_4 1_555 1_555
C50_4 C54_4 1_555 1_555
O13_2 C10_4 1_555 1_555
O14_2 C10_4 1_555 1_555
C10_4 C11_4 1_555 1_555
C11_4 C12_4 1_555 1_555
C12_4 H8_4 1_555 1_555
C13_4 C12_4 1_555 1_555
H9_4 C13_4 1_555 1_555
C14_4 C11_4 1_555 1_555
H10_4 C14_4 1_555 1_555
C15_4 C14_4 1_555 1_555
H11_4 C15_4 1_555 1_555
C16_4 C13_4 1_555 1_555
O6_4 C16_4 1_555 1_555
C17_4 O6_4 1_555 1_555
H12_4 C17_4 1_555 1_555
H13_4 C17_4 1_555 1_555
C15_4 C16_4 1_555 1_555
N9_2 C1_4 1_555 1_555
C1_4 H1_4 1_555 1_555
C4_4 H2_4 1_555 1_555
C5_4 C4_4 1_555 1_555
H3_4 C5_4 1_555 1_555
C8_4 C5_4 1_555 1_555
N10_2 C18_4 1_555 1_555
C18_4 H14_4 1_555 1_555
C19_4 C18_4 1_555 1_555
H15_4 C19_4 1_555 1_555
C20_4 N10_2 1_555 1_555
H16_4 C20_4 1_555 1_555
C21_4 C20_4 1_555 1_555
H17_4 C21_4 1_555 1_555
C22_4 C19_4 1_555 1_555
S1_4 C31_4 1_555 1_555
S2_4 C35_4 1_555 1_555
N3_4 N5_4 1_555 1_555
N4_4 N6_4 1_555 1_555
N5_4 C31_4 1_555 1_555
N6_4 C40_4 1_555 1_555
C24_4 H19_4 1_555 1_555
C26_4 C27_4 1_555 1_555
C27_4 H20_4 1_555 1_555
C28_4 C35_4 1_555 1_555
H21_4 C30_4 1_555 1_555
C31_4 C26_4 1_555 1_555
C32_4 C22_4 1_555 1_555
C35_4 N4_4 1_555 1_555
C37_4 C24_4 1_555 1_555
H22_4 C38_4 1_555 1_555
C40_4 S2_4 1_555 1_555
C43_4 C1_4 1_555 1_555
H27_4 C43_4 1_555 1_555
C44_4 C28_4 1_555 1_555
H28_4 C44_4 1_555 1_555
C58_4 N9_2 1_555 1_555
H44_4 C58_4 1_555 1_555
C7_4 C8_4 1_555 1_555
C21_4 C22_4 1_555 1_555
S1_4 C32_4 1_555 1_555
N3_4 C32_4 1_555 1_555
C24_4 C30_4 1_555 1_555
C27_4 C38_4 1_555 1_555
C28_4 C43_4 1_555 1_555
C37_4 C40_4 1_555 1_555
C44_4 C58_4 1_555 1_555
O4_3 C10_5 1_555 1_555
O5_3 C10_5 1_555 1_555
C10_5 C11_5 1_555 1_555
C11_5 C12_5 1_555 1_555
C12_5 H8_5 1_555 1_555
C13_5 C12_5 1_555 1_555
H9_5 C13_5 1_555 1_555
C14_5 C11_5 1_555 1_555
H10_5 C14_5 1_555 1_555
C15_5 C14_5 1_555 1_555
H11_5 C15_5 1_555 1_555
C16_5 C13_5 1_555 1_555
O6_5 C16_5 1_555 1_555
C17_5 O6_5 1_555 1_555
H12_5 C17_5 1_555 1_555
H13_5 C17_5 1_555 1_555
Co4_3 O4_3 1_555 1_555
O5_3 Co4_3 1_555 1_555
C15_5 C16_5 1_555 1_555
N1_3 C1_5 1_555 1_555
C1_5 H1_5 1_555 1_555
N2_3 C18_5 1_555 1_555
C18_5 H14_5 1_555 1_555
C19_5 C18_5 1_555 1_555
H15_5 C19_5 1_555 1_555
C20_5 N2_3 1_555 1_555
H16_5 C20_5 1_555 1_555
C21_5 C20_5 1_555 1_555
H17_5 C21_5 1_555 1_555
C22_5 C19_5 1_555 1_555
S2_5 C35_5 1_555 1_555
N3_5 N5_5 1_555 1_555
N4_5 N6_5 1_555 1_555
N6_5 C40_5 1_555 1_555
C28_5 C35_5 1_555 1_555
C32_5 C22_5 1_555 1_555
C35_5 N4_5 1_555 1_555
C40_5 S2_5 1_555 1_555
C43_5 C1_5 1_555 1_555
H27_5 C43_5 1_555 1_555
C44_5 C28_5 1_555 1_555
H28_5 C44_5 1_555 1_555
C50_5 O11_5 1_555 1_555
H33_5 C50_5 1_555 1_555
H34_5 C50_5 1_555 1_555
H35_5 C51_5 1_555 1_555
H38_5 C54_5 1_555 1_555
H39_5 C54_5 1_555 1_555
C58_5 N1_3 1_555 1_555
H44_5 C58_5 1_555 1_555
Co3_2 N1_3 1_555 1_555
Co5_2 N2_3 1_555 1_555
C21_5 C22_5 1_555 1_555
N3_5 C32_5 1_555 1_555
C28_5 C43_5 1_555 1_555
C44_5 C58_5 1_555 1_555
C50_5 C54_5 1_555 1_555
O1_5 C2_5 1_555 1_555
O2_5 C2_5 1_555 1_555
C2_5 C3_5 1_555 1_555
C3_5 C4_5 1_555 1_555
C4_5 H2_5 1_555 1_555
C5_5 C4_5 1_555 1_555
H3_5 C5_5 1_555 1_555
C6_5 C3_5 1_555 1_555
H4_5 C6_5 1_555 1_555
C7_5 C6_5 1_555 1_555
H5_3 C7_5 1_555 1_555
C8_5 C5_5 1_555 1_555
O3_3 C8_5 1_555 1_555
C9_3 O3_3 1_555 1_555
H6_3 C9_3 1_555 1_555
H7_3 C9_3 1_555 1_555
Co1_2 O2_5 1_555 1_555
Co2_2 O1_5 1_555 1_555
S1_5 C31_5 1_555 1_555
N7_5 Co2_2 1_555 1_555
O7_5 Co1_2 1_555 1_555
N8_5 Co1_2 1_555 1_555
O8_5 Co2_2 1_555 1_555
O9_3 C33_5 1_555 1_555
O10_3 C33_5 1_555 1_555
C23_5 H18_5 1_555 1_555
C24_5 H19_5 1_555 1_555
C25_5 O7_5 1_555 1_555
O12_3 C42_3 1_555 1_555
C26_5 C27_5 1_555 1_555
C27_5 H20_5 1_555 1_555
C29_5 C23_5 1_555 1_555
C30_5 N8_5 1_555 1_555
H21_5 C30_5 1_555 1_555
C31_5 C26_5 1_555 1_555
C33_5 C36_5 1_555 1_555
C36_5 C49_5 1_555 1_555
C37_5 C24_5 1_555 1_555
C38_5 N7_5 1_555 1_555
H22_5 C38_5 1_555 1_555
C39_5 N8_5 1_555 1_555
H23_5 C39_5 1_555 1_555
C41_5 C26_5 1_555 1_555
H24_5 C41_5 1_555 1_555
C42_3 H25_3 1_555 1_555
H26_3 C42_3 1_555 1_555
C45_3 O12_3 1_555 1_555
C46_5 C37_5 1_555 1_555
C47_5 N7_5 1_555 1_555
H30_5 C47_5 1_555 1_555
C48_5 C29_5 1_555 1_555
H31_5 C48_5 1_555 1_555
C49_5 H32_5 1_555 1_555
C52_3 C45_3 1_555 1_555
H36_3 C52_3 1_555 1_555
C53_5 C23_5 1_555 1_555
H37_5 C53_5 1_555 1_555
C55_5 C45_3 1_555 1_555
H40_5 C55_5 1_555 1_555
C56_3 C36_5 1_555 1_555
H41_3 C56_3 1_555 1_555
C57_3 C9_3 1_555 1_555
H42_3 C57_3 1_555 1_555
H43_3 C57_3 1_555 1_555
N9_3 Co1_2 1_555 1_555
O13_3 Co1_2 1_555 1_555
O14_3 Co1_2 1_555 1_555
N10_3 Co2_2 1_555 1_555
Co6_3 O9_3 1_555 1_555
O16_3 Co2_2 1_555 1_555
C7_5 C8_5 1_555 1_555
O8_5 C25_5 1_555 1_555
O10_3 Co6_3 1_555 1_555
C24_5 C30_5 1_555 1_555
C25_5 C29_5 1_555 1_555
C27_5 C38_5 1_555 1_555
C34_5 C53_5 1_555 1_555
C39_5 C46_5 1_555 1_555
C41_5 C47_5 1_555 1_555
C42_3 C57_3 1_555 1_555
C49_5 C55_5 1_555 1_555
C52_3 C56_3 1_555 1_555
N9_3 C1_6 1_555 1_555
C1_6 H1_6 1_555 1_555
C4_6 H2_6 1_555 1_555
C5_6 C4_6 1_555 1_555
H3_6 C5_6 1_555 1_555
C8_6 C5_6 1_555 1_555
N10_3 C18_6 1_555 1_555
C18_6 H14_6 1_555 1_555
C19_6 C18_6 1_555 1_555
H15_6 C19_6 1_555 1_555
C20_6 N10_3 1_555 1_555
H16_6 C20_6 1_555 1_555
C21_6 C20_6 1_555 1_555
H17_6 C21_6 1_555 1_555
C22_6 C19_6 1_555 1_555
S1_6 C31_6 1_555 1_555
S2_6 C35_6 1_555 1_555
N3_6 N5_6 1_555 1_555
N4_6 N6_6 1_555 1_555
N5_6 C31_6 1_555 1_555
N6_6 C40_6 1_555 1_555
C24_6 H19_6 1_555 1_555
C26_6 C27_6 1_555 1_555
C27_6 H20_6 1_555 1_555
C28_6 C35_6 1_555 1_555
H21_6 C30_6 1_555 1_555
C31_6 C26_6 1_555 1_555
C32_6 C22_6 1_555 1_555
C35_6 N4_6 1_555 1_555
C37_6 C24_6 1_555 1_555
H22_6 C38_6 1_555 1_555
C40_6 S2_6 1_555 1_555
C43_6 C1_6 1_555 1_555
H27_6 C43_6 1_555 1_555
C44_6 C28_6 1_555 1_555
H28_6 C44_6 1_555 1_555
C58_6 N9_3 1_555 1_555
H44_6 C58_6 1_555 1_555
C7_6 C8_6 1_555 1_555
C21_6 C22_6 1_555 1_555
S1_6 C32_6 1_555 1_555
N3_6 C32_6 1_555 1_555
C24_6 C30_6 1_555 1_555
C27_6 C38_6 1_555 1_555
C28_6 C43_6 1_555 1_555
C37_6 C40_6 1_555 1_555
C44_6 C58_6 1_555 1_555
O4_4 C10_6 1_555 1_555
O5_4 C10_6 1_555 1_555
C10_6 C11_6 1_555 1_555
C11_6 C12_6 1_555 1_555
C12_6 H8_6 1_555 1_555
C13_6 C12_6 1_555 1_555
H9_6 C13_6 1_555 1_555
C14_6 C11_6 1_555 1_555
H10_6 C14_6 1_555 1_555
C15_6 C14_6 1_555 1_555
H11_6 C15_6 1_555 1_555
C16_6 C13_6 1_555 1_555
O6_6 C16_6 1_555 1_555
C17_6 O6_6 1_555 1_555
H12_6 C17_6 1_555 1_555
H13_6 C17_6 1_555 1_555
Co4_4 O4_4 1_555 1_555
O5_4 Co4_4 1_555 1_555
C15_6 C16_6 1_555 1_555
O1_6 C2_6 1_555 1_555
O2_6 C2_6 1_555 1_555
C2_6 C3_6 1_555 1_555
C6_6 C3_6 1_555 1_555
H4_6 C6_6 1_555 1_555
Co3_2 O2_6 1_555 1_555
Co5_2 O1_6 1_555 1_555
N7_6 Co5_2 1_555 1_555
O7_6 Co3_2 1_555 1_555
N8_6 Co3_2 1_555 1_555
O8_6 Co5_2 1_555 1_555
C23_6 H18_6 1_555 1_555
C25_6 O7_6 1_555 1_555
O11_6 C34_6 1_555 1_555
C29_6 C23_6 1_555 1_555
C34_6 C51_6 1_555 1_555
C39_6 N8_6 1_555 1_555
H23_6 C39_6 1_555 1_555
H24_6 C41_6 1_555 1_555
H29_6 C46_6 1_555 1_555
C47_6 N7_6 1_555 1_555
H30_6 C47_6 1_555 1_555
C48_6 C29_6 1_555 1_555
H31_6 C48_6 1_555 1_555
C50_6 O11_6 1_555 1_555
H33_6 C50_6 1_555 1_555
H34_6 C50_6 1_555 1_555
C51_6 C48_6 1_555 1_555
H35_6 C51_6 1_555 1_555
C53_6 C23_6 1_555 1_555
H37_6 C53_6 1_555 1_555
H38_6 C54_6 1_555 1_555
H39_6 C54_6 1_555 1_555
O13_4 Co3_2 1_555 1_555
O14_4 Co3_2 1_555 1_555
O16_4 Co5_2 1_555 1_555
O8_6 C25_6 1_555 1_555
C25_6 C29_6 1_555 1_555
C34_6 C53_6 1_555 1_555
C39_6 C46_6 1_555 1_555
C41_6 C47_6 1_555 1_555
C50_6 C54_6 1_555 1_555
O9_4 C33_6 1_555 1_555
O10_4 C33_6 1_555 1_555
C33_6 C36_6 1_555 1_555
C36_6 C49_6 1_555 1_555
C49_6 H32_6 1_555 1_555
H40_6 C55_6 1_555 1_555
Co6_4 O9_4 1_555 1_555
O10_4 Co6_4 1_555 1_555
C49_6 C55_6 1_555 1_555
O1_7 C2_7 1_555 1_555
O2_7 C2_7 1_555 1_555
C2_7 C3_7 1_555 1_555
C3_7 C4_7 1_555 1_555
C4_7 H2_7 1_555 1_555
C5_7 C4_7 1_555 1_555
H3_7 C5_7 1_555 1_555
C6_7 C3_7 1_555 1_555
H4_7 C6_7 1_555 1_555
C7_7 C6_7 1_555 1_555
H5_4 C7_7 1_555 1_555
C8_7 C5_7 1_555 1_555
O3_4 C8_7 1_555 1_555
C9_4 O3_4 1_555 1_555
H6_4 C9_4 1_555 1_555
H7_4 C9_4 1_555 1_555
Co4_3 O2_7 1_555 1_555
Co6_3 O1_7 1_555 1_555
S1_7 C31_7 1_555 1_555
N7_7 Co6_3 1_555 1_555
O7_7 Co4_3 1_555 1_555
N8_7 Co4_3 1_555 1_555
O8_7 Co6_3 1_555 1_555
O15_3 C33_7 1_555 1_555
C23_7 H18_7 1_555 1_555
C24_7 H19_7 1_555 1_555
C25_7 O7_7 1_555 1_555
O12_4 C42_4 1_555 1_555
C26_7 C27_7 1_555 1_555
C27_7 H20_7 1_555 1_555
C29_7 C23_7 1_555 1_555
C30_7 N8_7 1_555 1_555
H21_7 C30_7 1_555 1_555
C31_7 C26_7 1_555 1_555
C33_7 C36_7 1_555 1_555
C36_7 C49_7 1_555 1_555
C37_7 C24_7 1_555 1_555
C38_7 N7_7 1_555 1_555
H22_7 C38_7 1_555 1_555
C39_7 N8_7 1_555 1_555
H23_7 C39_7 1_555 1_555
C41_7 C26_7 1_555 1_555
H24_7 C41_7 1_555 1_555
C42_4 H25_4 1_555 1_555
H26_4 C42_4 1_555 1_555
C45_4 O12_4 1_555 1_555
C46_7 C37_7 1_555 1_555
C47_7 N7_7 1_555 1_555
H30_7 C47_7 1_555 1_555
C48_7 C29_7 1_555 1_555
H31_7 C48_7 1_555 1_555
C49_7 H32_7 1_555 1_555
C52_4 C45_4 1_555 1_555
H36_4 C52_4 1_555 1_555
C53_7 C23_7 1_555 1_555
H37_7 C53_7 1_555 1_555
C55_7 C45_4 1_555 1_555
H40_7 C55_7 1_555 1_555
C56_4 C36_7 1_555 1_555
H41_4 C56_4 1_555 1_555
C57_4 C9_4 1_555 1_555
H42_4 C57_4 1_555 1_555
H43_4 C57_4 1_555 1_555
N9_4 Co4_3 1_555 1_555
N10_4 Co6_3 1_555 1_555
C7_7 C8_7 1_555 1_555
O8_7 C25_7 1_555 1_555
C24_7 C30_7 1_555 1_555
C25_7 C29_7 1_555 1_555
C27_7 C38_7 1_555 1_555
C34_7 C53_7 1_555 1_555
C39_7 C46_7 1_555 1_555
C41_7 C47_7 1_555 1_555
C42_4 C57_4 1_555 1_555
C49_7 C55_7 1_555 1_555
C52_4 C56_4 1_555 1_555
N1_4 C1_7 1_555 1_555
C1_7 H1_7 1_555 1_555
O13_3 C10_7 1_555 1_555
O14_3 C10_7 1_555 1_555
C10_7 C11_7 1_555 1_555
C11_7 C12_7 1_555 1_555
C12_7 H8_7 1_555 1_555
C13_7 C12_7 1_555 1_555
H9_7 C13_7 1_555 1_555
C14_7 C11_7 1_555 1_555
H10_7 C14_7 1_555 1_555
C15_7 C14_7 1_555 1_555
H11_7 C15_7 1_555 1_555
C16_7 C13_7 1_555 1_555
O6_7 C16_7 1_555 1_555
C17_7 O6_7 1_555 1_555
H12_7 C17_7 1_555 1_555
H13_7 C17_7 1_555 1_555
N2_4 C18_7 1_555 1_555
C18_7 H14_7 1_555 1_555
C19_7 C18_7 1_555 1_555
H15_7 C19_7 1_555 1_555
C20_7 N2_4 1_555 1_555
H16_7 C20_7 1_555 1_555
C21_7 C20_7 1_555 1_555
H17_7 C21_7 1_555 1_555
C22_7 C19_7 1_555 1_555
S2_7 C35_7 1_555 1_555
N3_7 N5_7 1_555 1_555
N4_7 N6_7 1_555 1_555
N6_7 C40_7 1_555 1_555
C28_7 C35_7 1_555 1_555
C32_7 C22_7 1_555 1_555
C35_7 N4_7 1_555 1_555
C40_7 S2_7 1_555 1_555
C43_7 C1_7 1_555 1_555
H27_7 C43_7 1_555 1_555
C44_7 C28_7 1_555 1_555
H28_7 C44_7 1_555 1_555
C50_7 O11_7 1_555 1_555
H33_7 C50_7 1_555 1_555
H34_7 C50_7 1_555 1_555
H35_7 C51_7 1_555 1_555
C54_7 C17_7 1_555 1_555
H38_7 C54_7 1_555 1_555
H39_7 C54_7 1_555 1_555
C58_7 N1_4 1_555 1_555
H44_7 C58_7 1_555 1_555
Co4_4 N1_4 1_555 1_555
Co6_4 N2_4 1_555 1_555
C15_7 C16_7 1_555 1_555
C21_7 C22_7 1_555 1_555
N3_7 C32_7 1_555 1_555
C28_7 C43_7 1_555 1_555
C44_7 C58_7 1_555 1_555
C50_7 C54_7 1_555 1_555
N9_4 C1_8 1_555 1_555
C1_8 H1_8 1_555 1_555
C4_8 H2_8 1_555 1_555
C5_8 C4_8 1_555 1_555
H3_8 C5_8 1_555 1_555
C8_8 C5_8 1_555 1_555
N10_4 C18_8 1_555 1_555
C18_8 H14_8 1_555 1_555
C19_8 C18_8 1_555 1_555
H15_8 C19_8 1_555 1_555
C20_8 N10_4 1_555 1_555
H16_8 C20_8 1_555 1_555
C21_8 C20_8 1_555 1_555
H17_8 C21_8 1_555 1_555
C22_8 C19_8 1_555 1_555
S1_8 C31_8 1_555 1_555
S2_8 C35_8 1_555 1_555
N3_8 N5_8 1_555 1_555
N4_8 N6_8 1_555 1_555
N5_8 C31_8 1_555 1_555
N6_8 C40_8 1_555 1_555
C24_8 H19_8 1_555 1_555
C26_8 C27_8 1_555 1_555
C27_8 H20_8 1_555 1_555
C28_8 C35_8 1_555 1_555
H21_8 C30_8 1_555 1_555
C31_8 C26_8 1_555 1_555
C32_8 C22_8 1_555 1_555
C35_8 N4_8 1_555 1_555
C37_8 C24_8 1_555 1_555
H22_8 C38_8 1_555 1_555
C40_8 S2_8 1_555 1_555
C43_8 C1_8 1_555 1_555
H27_8 C43_8 1_555 1_555
C44_8 C28_8 1_555 1_555
H28_8 C44_8 1_555 1_555
C58_8 N9_4 1_555 1_555
H44_8 C58_8 1_555 1_555
C7_8 C8_8 1_555 1_555
C21_8 C22_8 1_555 1_555
S1_8 C32_8 1_555 1_555
N3_8 C32_8 1_555 1_555
C24_8 C30_8 1_555 1_555
C27_8 C38_8 1_555 1_555
C28_8 C43_8 1_555 1_555
C37_8 C40_8 1_555 1_555
C44_8 C58_8 1_555 1_555
O15_4 C33_8 1_555 1_555
C33_8 C36_8 1_555 1_555
C36_8 C49_8 1_555 1_555
C49_8 H32_8 1_555 1_555
H40_8 C55_8 1_555 1_555
C49_8 C55_8 1_555 1_555
O1_8 C2_8 1_555 1_555
O2_8 C2_8 1_555 1_555
C2_8 C3_8 1_555 1_555
C6_8 C3_8 1_555 1_555
H4_8 C6_8 1_555 1_555
O13_4 C10_8 1_555 1_555
O14_4 C10_8 1_555 1_555
C10_8 C11_8 1_555 1_555
C11_8 C12_8 1_555 1_555
C12_8 H8_8 1_555 1_555
C13_8 C12_8 1_555 1_555
H9_8 C13_8 1_555 1_555
C14_8 C11_8 1_555 1_555
H10_8 C14_8 1_555 1_555
C15_8 C14_8 1_555 1_555
H11_8 C15_8 1_555 1_555
C16_8 C13_8 1_555 1_555
O6_8 C16_8 1_555 1_555
C17_8 O6_8 1_555 1_555
H12_8 C17_8 1_555 1_555
H13_8 C17_8 1_555 1_555
Co4_4 O2_8 1_555 1_555
Co6_4 O1_8 1_555 1_555
N7_8 Co6_4 1_555 1_555
O7_8 Co4_4 1_555 1_555
N8_8 Co4_4 1_555 1_555
O8_8 Co6_4 1_555 1_555
C23_8 H18_8 1_555 1_555
C25_8 O7_8 1_555 1_555
O11_8 C34_8 1_555 1_555
C29_8 C23_8 1_555 1_555
C34_8 C51_8 1_555 1_555
C39_8 N8_8 1_555 1_555
H23_8 C39_8 1_555 1_555
H24_8 C41_8 1_555 1_555
H29_8 C46_8 1_555 1_555
C47_8 N7_8 1_555 1_555
H30_8 C47_8 1_555 1_555
C48_8 C29_8 1_555 1_555
H31_8 C48_8 1_555 1_555
C50_8 O11_8 1_555 1_555
H33_8 C50_8 1_555 1_555
H34_8 C50_8 1_555 1_555
C51_8 C48_8 1_555 1_555
H35_8 C51_8 1_555 1_555
C53_8 C23_8 1_555 1_555
H37_8 C53_8 1_555 1_555
C54_8 C17_8 1_555 1_555
H38_8 C54_8 1_555 1_555
H39_8 C54_8 1_555 1_555
C15_8 C16_8 1_555 1_555
O8_8 C25_8 1_555 1_555
C25_8 C29_8 1_555 1_555
C34_8 C53_8 1_555 1_555
C39_8 C46_8 1_555 1_555
C41_8 C47_8 1_555 1_555
C50_8 C54_8 1_555 1_555
C9_5 O3_5 1_555 1_555
H6_5 C9_5 1_555 1_555
H7_5 C9_5 1_555 1_555
O12_5 C42_5 1_555 1_555
C42_5 H25_5 1_555 1_555
H26_5 C42_5 1_555 1_555
C45_5 O12_5 1_555 1_555
C52_5 C45_5 1_555 1_555
H36_5 C52_5 1_555 1_555
H41_5 C56_5 1_555 1_555
C57_5 C9_5 1_555 1_555
H42_5 C57_5 1_555 1_555
H43_5 C57_5 1_555 1_555
C42_5 C57_5 1_555 1_555
C52_5 C56_5 1_555 1_555
C9_6 O3_6 1_555 1_555
H6_6 C9_6 1_555 1_555
H7_6 C9_6 1_555 1_555
O12_6 C42_6 1_555 1_555
C42_6 H25_6 1_555 1_555
H26_6 C42_6 1_555 1_555
C45_6 O12_6 1_555 1_555
C52_6 C45_6 1_555 1_555
H36_6 C52_6 1_555 1_555
H41_6 C56_6 1_555 1_555
C57_6 C9_6 1_555 1_555
H42_6 C57_6 1_555 1_555
H43_6 C57_6 1_555 1_555
C42_6 C57_6 1_555 1_555
C52_6 C56_6 1_555 1_555
C9_7 O3_7 1_555 1_555
H6_7 C9_7 1_555 1_555
H7_7 C9_7 1_555 1_555
O12_7 C42_7 1_555 1_555
C42_7 H25_7 1_555 1_555
H26_7 C42_7 1_555 1_555
C45_7 O12_7 1_555 1_555
C52_7 C45_7 1_555 1_555
H36_7 C52_7 1_555 1_555
H41_7 C56_7 1_555 1_555
C57_7 C9_7 1_555 1_555
H42_7 C57_7 1_555 1_555
H43_7 C57_7 1_555 1_555
C42_7 C57_7 1_555 1_555
C52_7 C56_7 1_555 1_555
C9_8 O3_8 1_555 1_555
H6_8 C9_8 1_555 1_555
H7_8 C9_8 1_555 1_555
O12_8 C42_8 1_555 1_555
C42_8 H25_8 1_555 1_555
H26_8 C42_8 1_555 1_555
C45_8 O12_8 1_555 1_555
C52_8 C45_8 1_555 1_555
H36_8 C52_8 1_555 1_555
H41_8 C56_8 1_555 1_555
C57_8 C9_8 1_555 1_555
H42_8 C57_8 1_555 1_555
H43_8 C57_8 1_555 1_555
C42_8 C57_8 1_555 1_555
C52_8 C56_8 1_555 1_555

#END
