
###############################################################################
#
# This file contains modified crystal structure data generated from the
# MOF subset of the Cambridge Structural Database (CSD) v543 
# hosted by the Cambridge Crystallographic Data Centre (CCDC).
#
# This work is licensed under the Creative Commons
# Attribution-NonCommercial-ShareAlike 4.0 International License.
# To view a copy of this license, visit
# http://creativecommons.org/licenses/by-nc-sa/4.0/
# or send a letter to
# Creative Commons, PO Box 1866, Mountain View, CA 94042, USA.
#
# CIF created using the CSD Python API on 29 September 2022
# The structure has been converted into the P1 space group
# The structure has a 3D framework
# The original CSD entry FATKAO is in the monoclinic crystal system
# The framework has been calculated to contain at least 10.0% void space
# The void calculation uses a probe of radius 1.32A, grid spacing 0.4
# H atom positions have been added when not included in the experimental data
#
###############################################################################

data_FATKAO
_chemical_formula_moiety         '(C56 H56 Gd8 N16 O54)n'
_symmetry_cell_setting           triclinic
_symmetry_space_group_name_H-M   'P 1'
_symmetry_Int_Tables_number      1
_space_group_name_Hall           'P 1'
loop_
_symmetry_equiv_pos_site_id
_symmetry_equiv_pos_as_xyz
1 x,y,z
_cell_length_a                   10.190(3)
_cell_length_b                   11.232(3)
_cell_length_c                   22.140(7)
_cell_angle_alpha                90
_cell_angle_beta                 96.863(4)
_cell_angle_gamma                90
_cell_volume                     2515.86
loop_
_atom_site_label
_atom_site_type_symbol
_atom_site_fract_x
_atom_site_fract_y
_atom_site_fract_z
O8 O 0.1278(5) 0.4148(5) 0.5532(3)
C10 C 0.0056(8) 0.3851(7) 0.5474(4)
C12 C 0.0259(9) 0.3454(9) 0.7696(4)
H5 H 0.0699 0.4193 0.7803
H6 H 0.0891 0.2816 0.7736
N4 N 0.0340(7) 0.3713(6) 0.6585(3)
H8 H 0.1180 0.3820 0.6614
Gd6 Gd 0.25888(4) 0.58827(4) 0.563913(18)
Gd1 Gd 0.61105(3) 0.31383(3) 0.725467(17)
O1 O 0.1211(7) 0.6637(6) 0.6310(3)
O3 O 0.3142(6) 0.4866(5) 0.6588(3)
O4 O 0.5971(5) 0.3234(5) 0.6162(3)
O5 O 0.4291(6) 0.4395(5) 0.7474(3)
O6 O 0.6795(6) 0.3701(6) 0.5319(3)
O7 O 0.9400(6) 0.3646(6) 0.4983(3)
O9 O 0.6337(5) 0.5214(5) 0.6882(3)
O10 O 0.7314(6) 0.6965(5) 0.7086(3)
O11 O 0.7273(6) 0.4435(5) 0.7995(3)
O12 O 0.8407(6) 0.6144(5) 0.8160(3)
O13 O 0.2684(8) 0.8045(6) 0.5588(4)
O14 O 0.4826(7) 0.6461(7) 0.5992(4)
O15 O 0.3943(6) 0.4236(5) 0.5344(3)
C1 C 0.0789(8) 0.6887(7) 0.6794(4)
C2 C 0.1506(8) 0.6460(7) 0.7375(4)
C3 C 0.2573(8) 0.5729(7) 0.7515(4)
C4 C 0.3406(8) 0.4952(7) 0.7163(4)
C5 C 0.1879(9) 0.6367(8) 0.8356(4)
C6 C 0.1816(12) 0.6559(10) 0.9026(4)
H1 H 0.2499 0.6103 0.9257
H2 H 0.0969 0.6308 0.9128
H3 H 0.1941 0.7388 0.9121
C7 C 0.6922(7) 0.3472(7) 0.5876(3)
C8 C 0.8257(8) 0.3504(7) 0.6238(4)
C9 C 0.9494(8) 0.3713(8) 0.6057(4)
C11 C 0.9625(8) 0.3513(8) 0.7061(4)
H4 H 0.9598 0.3313 0.7962
C13 C 0.7041(7) 0.5924(6) 0.7215(4)
C14 C 0.7633(8) 0.5467(7) 0.7850(4)
N1 N 0.1052(7) 0.6876(6) 0.7916(3)
N2 N 0.2771(7) 0.5693(6) 0.8138(3)
H7 H 0.3380 0.5295 0.8352
N3 N 0.8354(6) 0.3401(6) 0.6860(3)
Gd4 Gd 0.88895(3) 0.81383(3) 0.774533(17)
Gd5 Gd 0.74112(4) 0.41173(4) 0.436087(18)
O16 O 0.5249(5) 0.2470(5) 0.8178(3)
O17 O 0.3205(6) 0.6299(6) 0.4681(3)
O18 O 0.0600(6) 0.6354(6) 0.5017(3)
O20 O 0.7686(6) 0.1965(5) 0.7914(3)
O21 O 0.6593(6) 0.1144(5) 0.6840(3)
N5 N 0.3948(7) 0.1876(6) 0.7084(3)
H9 H 0.301284 0.836802 0.599561
H10 H 0.32916 0.828514 0.529091
H11 H 0.338177 0.351814 0.52606
H12 H 0.434303 0.44572 0.497211
H13 H 0.508213 0.613289 0.640578
H14 H 0.542988 0.61454 0.570997
O2 O 0.9751(5) 0.7470(5) 0.6822(3)
O17_2 O 0.1795(6) 0.1299(6) 0.0319(3)
Gd2 Gd 0.24112(4) 0.08827(4) 0.936087(18)
O1_2 O 0.3789(7) 0.1637(6) 0.8690(3)
O13_2 O 0.2316(8) 0.3045(6) 0.9412(4)
O14_2 O 0.0174(7) 0.1461(7) 0.9008(4)
C1_2 C 0.4211(8) 0.1887(7) 0.8206(4)
C2_2 C 0.3494(8) 0.1460(7) 0.7625(4)
C3_2 C 0.2427(8) 0.0729(7) 0.7485(4)
C5_2 C 0.3121(9) 0.1367(8) 0.6644(4)
C6_2 C 0.3184(12) 0.1559(10) 0.5974(4)
H1_2 H 0.2501 0.1103 0.5743
H2_2 H 0.4031 0.1308 0.5872
H3_2 H 0.3059 0.2388 0.5879
N2_2 N 0.2229(7) 0.0693(6) 0.6862(3)
H7_2 H 0.1620 0.0295 0.6648
O18_2 O 0.4400(6) 0.1354(6) 0.9983(3)
H9_2 H 0.198716 0.336802 0.900439
H10_2 H 0.17084 0.328514 0.970909
O3_2 O 0.1858(6) 0.9866(5) 0.8412(3)
O5_2 O 0.0709(6) 0.9395(5) 0.7526(3)
O15_2 O 0.1057(6) 0.9236(5) 0.9656(3)
C4_2 C 0.1594(8) 0.9952(7) 0.7837(4)
O19 O 0.3722(5) 0.9148(5) 0.9468(3)
H11_2 H 0.161823 0.851814 0.97394
O9_2 O 0.8663(5) 0.0214(5) 0.8118(3)
C13_2 C 0.7959(7) 0.0924(6) 0.7785(4)
C14_2 C 0.7367(8) 0.0467(7) 0.7150(4)
H13_2 H 0.991787 0.113289 0.859422
H14_2 H 0.957012 0.11454 0.929003
O7_2 O 0.5600(6) 0.8646(6) 0.0017(3)
Gd5_2 Gd 0.75888(4) 0.91173(4) 0.063913(18)
O4_2 O 0.9029(5) 0.8234(5) 0.8838(3)
O6_2 O 0.8205(6) 0.8701(6) 0.9681(3)
O11_2 O 0.7727(6) 0.9435(5) 0.7005(3)
C7_2 C 0.8078(7) 0.8472(7) 0.9124(3)
C8_2 C 0.6743(8) 0.8504(7) 0.8762(4)
C9_2 C 0.5506(8) 0.8713(8) 0.8943(4)
C10_2 C 0.4944(8) 0.8851(7) 0.9526(4)
C11_2 C 0.5375(8) 0.8513(8) 0.7939(4)
C12_2 C 0.4741(9) 0.8454(9) 0.7304(4)
H4_2 H 0.5402 0.8313 0.7038
H5_2 H 0.4301 0.9193 0.7197
H6_2 H 0.4109 0.7816 0.7264
N3_2 N 0.6646(6) 0.8401(6) 0.8140(3)
N4_2 N 0.4660(7) 0.8713(6) 0.8415(3)
H8_2 H 0.3820 0.8820 0.8386
O2_2 O 0.0249(5) 0.2530(5) 0.3178(3)
Gd3 Gd 0.11105(3) 0.18617(3) 0.225467(17)
Gd1_2 Gd 0.38895(3) 0.68617(3) 0.274533(17)
O1_3 O 0.8789(7) 0.3363(6) 0.3690(3)
O3_3 O 0.6858(6) 0.5134(5) 0.3412(3)
O4_3 O 0.4029(5) 0.6766(5) 0.3838(3)
O5_3 O 0.5709(6) 0.5605(5) 0.2526(3)
O9_3 O 0.3663(5) 0.4786(5) 0.3118(3)
O10_2 O 0.2686(6) 0.3035(5) 0.2914(3)
O11_3 O 0.2727(6) 0.5565(5) 0.2005(3)
O12_2 O 0.1593(6) 0.3856(5) 0.1840(3)
O13_3 O 0.7316(8) 0.1955(6) 0.4412(4)
O14_3 O 0.5174(7) 0.3539(7) 0.4008(4)
O15_3 O 0.6057(6) 0.5764(5) 0.4656(3)
C1_3 C 0.9211(8) 0.3113(7) 0.3206(4)
C2_3 C 0.8494(8) 0.3540(7) 0.2625(4)
C3_3 C 0.7427(8) 0.4271(7) 0.2485(4)
C4_3 C 0.6594(8) 0.5048(7) 0.2837(4)
C5_3 C 0.8121(9) 0.3633(8) 0.1644(4)
C6_3 C 0.8184(12) 0.3441(10) 0.0974(4)
H1_3 H 0.7501 0.3897 0.0743
H2_3 H 0.9031 0.3692 0.0872
H3_3 H 0.8059 0.2612 0.0879
C7_3 C 0.3078(7) 0.6528(7) 0.4124(3)
C8_3 C 0.1743(8) 0.6496(7) 0.3762(4)
C9_3 C 0.0506(8) 0.6287(8) 0.3943(4)
C11_3 C 0.0375(8) 0.6487(8) 0.2939(4)
H4_3 H 0.0402 0.6687 0.2038
C13_3 C 0.2959(7) 0.4076(6) 0.2785(4)
C14_3 C 0.2367(8) 0.4533(7) 0.2150(4)
N1_2 N 0.8948(7) 0.3124(6) 0.2084(3)
N2_3 N 0.7229(7) 0.4307(6) 0.1862(3)
H7_3 H 0.6620 0.4705 0.1648
N3_3 N 0.1646(6) 0.6599(6) 0.3140(3)
O16_2 O 0.4751(5) 0.7530(5) 0.1822(3)
O19_2 O 0.8722(5) 0.5852(5) 0.4468(3)
O20_2 O 0.2314(6) 0.8035(5) 0.2086(3)
O21_2 O 0.3407(6) 0.8856(5) 0.3160(3)
N5_2 N 0.6052(7) 0.8124(6) 0.2916(3)
H9_3 H 0.698716 0.163198 0.400439
H10_3 H 0.67084 0.171486 0.470909
H11_3 H 0.661823 0.648186 0.47394
H12_2 H 0.565697 0.55428 0.502789
H13_3 H 0.491787 0.386711 0.359422
H14_3 H 0.457012 0.38546 0.429003
C10_3 C 0.9944(8) 0.6149(7) 0.4526(4)
C12_3 C 0.9741(9) 0.6546(9) 0.2304(4)
H5_3 H 0.9301 0.5807 0.2197
H6_3 H 0.9109 0.7184 0.2264
N4_3 N 0.9660(7) 0.6287(6) 0.3415(3)
H8_3 H 0.8820 0.6180 0.3386
O4_4 O 0.0971(5) 0.1766(5) 0.1162(3)
O8_2 O 0.6278(5) 0.0852(5) 0.0532(3)
O11_4 O 0.2273(6) 0.0565(5) 0.2995(3)
C7_4 C 0.1922(7) 0.1528(7) 0.0876(3)
C8_4 C 0.3257(8) 0.1496(7) 0.1238(4)
C9_4 C 0.4494(8) 0.1287(8) 0.1057(4)
C10_4 C 0.5056(8) 0.1149(7) 0.0474(4)
C11_4 C 0.4625(8) 0.1487(8) 0.2061(4)
C12_4 C 0.5259(9) 0.1546(9) 0.2696(4)
H4_4 H 0.4598 0.1687 0.2962
H5_4 H 0.5699 0.0807 0.2803
H6_4 H 0.5891 0.2184 0.2736
N3_4 N 0.3354(6) 0.1599(6) 0.1860(3)
N4_4 N 0.5340(7) 0.1287(6) 0.1585(3)
H8_4 H 0.6180 0.1180 0.1614
O9_4 O 0.1337(5) 0.9786(5) 0.1882(3)
C13_4 C 0.2041(7) 0.9076(6) 0.2215(4)
C14_4 C 0.2633(8) 0.9533(7) 0.2850(4)
H13_4 H 0.00821319 0.886711 0.140578
H14_4 H 0.0429883 0.88546 0.0709967
O3_4 O 0.8142(6) 0.0134(5) 0.1588(3)
O5_4 O 0.9291(6) 0.0605(5) 0.2474(3)
O15_4 O 0.8943(6) 0.0764(5) 0.0344(3)
C4_4 C 0.8406(8) 0.0048(7) 0.2163(4)
H11_4 H 0.838177 0.148186 0.0260596
O1_4 O 0.6211(7) 0.8363(6) 0.1310(3)
O13_4 O 0.7684(8) 0.6955(6) 0.0588(4)
O14_4 O 0.9826(7) 0.8539(7) 0.0992(4)
C1_4 C 0.5789(8) 0.8113(7) 0.1794(4)
C2_4 C 0.6506(8) 0.8540(7) 0.2375(4)
C3_4 C 0.7573(8) 0.9271(7) 0.2515(4)
C5_4 C 0.6879(9) 0.8633(8) 0.3356(4)
C6_4 C 0.6816(12) 0.8441(10) 0.4026(4)
H1_4 H 0.7499 0.8897 0.4257
H2_4 H 0.5969 0.8692 0.4128
H3_4 H 0.6941 0.7612 0.4121
N2_4 N 0.7771(7) 0.9307(6) 0.3138(3)
H7_4 H 0.8380 0.9705 0.3352
H9_4 H 0.801284 0.663198 0.0995607
H10_4 H 0.82916 0.671486 0.0290915
H12_3 H 0.0656967 0.94572 0.00278938
H12_4 H 0.934303 0.0542803 0.997211
loop_
_geom_bond_atom_site_label_1
_geom_bond_atom_site_label_2
_geom_bond_site_symmetry_1
_geom_bond_site_symmetry_2
O8 C10 1_555 1_555
H5 C12 1_555 1_555
H6 C12 1_555 1_555
H8 N4 1_555 1_555
Gd6 O8 1_555 1_555
Gd1 O4 1_555 1_555
Gd6 O1 1_555 1_555
O1 C1 1_555 1_555
O3 Gd6 1_555 1_555
O4 C7 1_555 1_555
O5 Gd1 1_555 1_555
O6 C7 1_555 1_555
O9 Gd1 1_555 1_555
O10 C13 1_555 1_555
O11 Gd1 1_555 1_555
O12 C14 1_555 1_555
O13 Gd6 1_555 1_555
O14 Gd6 1_555 1_555
O15 Gd6 1_555 1_555
C1 C2 1_555 1_555
C2 C3 1_555 1_555
C3 C4 1_555 1_555
C4 O3 1_555 1_555
C5 C6 1_555 1_555
C6 H1 1_555 1_555
H2 C6 1_555 1_555
H3 C6 1_555 1_555
C7 C8 1_555 1_555
C8 C9 1_555 1_555
C13 O9 1_555 1_555
C14 O11 1_555 1_555
N1 C2 1_555 1_555
N2 C3 1_555 1_555
H7 N2 1_555 1_555
N3 Gd1 1_555 1_555
Gd4 O10 1_555 1_555
Gd5 O6 1_555 1_555
O16 Gd1 1_555 1_555
O17 Gd6 1_555 1_555
O18 Gd6 1_555 1_555
O20 Gd1 1_555 1_555
O21 Gd1 1_555 1_555
N5 Gd1 1_555 1_555
O5 C4 1_555 1_555
O7 Gd5 1_555 1_555
O12 Gd4 1_555 1_555
C5 N1 1_555 1_555
C5 N2 1_555 1_555
C8 N3 1_555 1_555
C11 N3 1_555 1_555
C13 C14 1_555 1_555
O13 H9 1_555 1_555
O13 H10 1_555 1_555
O15 H11 1_555 1_555
O15 H12 1_555 1_555
O14 H13 1_555 1_555
O14 H14 1_555 1_555
Gd4 O2 1_555 1_555
Gd2 O1_2 1_555 1_555
O1_2 C1_2 1_555 1_555
O16 C1_2 1_555 1_555
O13_2 Gd2 1_555 1_555
O14_2 Gd2 1_555 1_555
C1_2 C2_2 1_555 1_555
C2_2 C3_2 1_555 1_555
C5_2 C6_2 1_555 1_555
C6_2 H1_2 1_555 1_555
H2_2 C6_2 1_555 1_555
H3_2 C6_2 1_555 1_555
N5 C2_2 1_555 1_555
N2_2 C3_2 1_555 1_555
H7_2 N2_2 1_555 1_555
O18_2 Gd2 1_555 1_555
C5_2 N5 1_555 1_555
C5_2 N2_2 1_555 1_555
O13_2 H9_2 1_555 1_555
O13_2 H10_2 1_555 1_555
C4_2 O3_2 1_555 1_555
O5_2 C4_2 1_555 1_555
O15_2 H11_2 1_555 1_555
O20 C13_2 1_555 1_555
O21 C14_2 1_555 1_555
C13_2 O9_2 1_555 1_555
C13_2 C14_2 1_555 1_555
O7_2 Gd5_2 1_555 1_555
Gd4 O4_2 1_555 1_555
O4_2 C7_2 1_555 1_555
O6_2 C7_2 1_555 1_555
O19 C10_2 1_555 1_555
O11_2 Gd4 1_555 1_555
C7_2 C8_2 1_555 1_555
C8_2 C9_2 1_555 1_555
C9_2 C10_2 1_555 1_555
C11_2 C12_2 1_555 1_555
C12_2 H4_2 1_555 1_555
H5_2 C12_2 1_555 1_555
H6_2 C12_2 1_555 1_555
N3_2 Gd4 1_555 1_555
N4_2 C9_2 1_555 1_555
H8_2 N4_2 1_555 1_555
C8_2 N3_2 1_555 1_555
C11_2 N3_2 1_555 1_555
C11_2 N4_2 1_555 1_555
Gd3 O2_2 1_555 1_555
Gd1_2 O4_3 1_555 1_555
Gd5 O1_3 1_555 1_555
O1_3 C1_3 1_555 1_555
O3_3 Gd5 1_555 1_555
O4_3 C7_3 1_555 1_555
O5_3 Gd1_2 1_555 1_555
O17 C7_3 1_555 1_555
O9_3 Gd1_2 1_555 1_555
O10_2 C13_3 1_555 1_555
O11_3 Gd1_2 1_555 1_555
O12_2 C14_3 1_555 1_555
O13_3 Gd5 1_555 1_555
O14_3 Gd5 1_555 1_555
O15_3 Gd5 1_555 1_555
C1_3 C2_3 1_555 1_555
C2_3 C3_3 1_555 1_555
C3_3 C4_3 1_555 1_555
C4_3 O3_3 1_555 1_555
C5_3 C6_3 1_555 1_555
C6_3 H1_3 1_555 1_555
H2_3 C6_3 1_555 1_555
H3_3 C6_3 1_555 1_555
C7_3 C8_3 1_555 1_555
C8_3 C9_3 1_555 1_555
C13_3 O9_3 1_555 1_555
C14_3 O11_3 1_555 1_555
N1_2 C2_3 1_555 1_555
N2_3 C3_3 1_555 1_555
H7_3 N2_3 1_555 1_555
N3_3 Gd1_2 1_555 1_555
Gd3 O10_2 1_555 1_555
O16_2 Gd1_2 1_555 1_555
O19_2 Gd5 1_555 1_555
O20_2 Gd1_2 1_555 1_555
O21_2 Gd1_2 1_555 1_555
N5_2 Gd1_2 1_555 1_555
O5_3 C4_3 1_555 1_555
O12_2 Gd3 1_555 1_555
C5_3 N1_2 1_555 1_555
C5_3 N2_3 1_555 1_555
C8_3 N3_3 1_555 1_555
C11_3 N3_3 1_555 1_555
C13_3 C14_3 1_555 1_555
O13_3 H9_3 1_555 1_555
O13_3 H10_3 1_555 1_555
O15_3 H11_3 1_555 1_555
O15_3 H12_2 1_555 1_555
O14_3 H13_3 1_555 1_555
O14_3 H14_3 1_555 1_555
O19_2 C10_3 1_555 1_555
H5_3 C12_3 1_555 1_555
H6_3 C12_3 1_555 1_555
H8_3 N4_3 1_555 1_555
Gd3 O4_4 1_555 1_555
O4_4 C7_4 1_555 1_555
O17_2 C7_4 1_555 1_555
O8_2 C10_4 1_555 1_555
O11_4 Gd3 1_555 1_555
C7_4 C8_4 1_555 1_555
C8_4 C9_4 1_555 1_555
C9_4 C10_4 1_555 1_555
C11_4 C12_4 1_555 1_555
C12_4 H4_4 1_555 1_555
H5_4 C12_4 1_555 1_555
H6_4 C12_4 1_555 1_555
N3_4 Gd3 1_555 1_555
N4_4 C9_4 1_555 1_555
H8_4 N4_4 1_555 1_555
C8_4 N3_4 1_555 1_555
C11_4 N3_4 1_555 1_555
C11_4 N4_4 1_555 1_555
O20_2 C13_4 1_555 1_555
O21_2 C14_4 1_555 1_555
C13_4 O9_4 1_555 1_555
C13_4 C14_4 1_555 1_555
C4_4 O3_4 1_555 1_555
O5_4 C4_4 1_555 1_555
O15_4 H11_4 1_555 1_555
Gd5_2 O1_4 1_555 1_555
O1_4 C1_4 1_555 1_555
O16_2 C1_4 1_555 1_555
O13_4 Gd5_2 1_555 1_555
O14_4 Gd5_2 1_555 1_555
C1_4 C2_4 1_555 1_555
C2_4 C3_4 1_555 1_555
C5_4 C6_4 1_555 1_555
C6_4 H1_4 1_555 1_555
H2_4 C6_4 1_555 1_555
H3_4 C6_4 1_555 1_555
N5_2 C2_4 1_555 1_555
N2_4 C3_4 1_555 1_555
H7_4 N2_4 1_555 1_555
C5_4 N5_2 1_555 1_555
C5_4 N2_4 1_555 1_555
O13_4 H9_4 1_555 1_555
O13_4 H10_4 1_555 1_555

#END
