
###############################################################################
#
# This file contains modified crystal structure data generated from the
# MOF subset of the Cambridge Structural Database (CSD) v543 
# hosted by the Cambridge Crystallographic Data Centre (CCDC).
#
# This work is licensed under the Creative Commons
# Attribution-NonCommercial-ShareAlike 4.0 International License.
# To view a copy of this license, visit
# http://creativecommons.org/licenses/by-nc-sa/4.0/
# or send a letter to
# Creative Commons, PO Box 1866, Mountain View, CA 94042, USA.
#
# CIF created using the CSD Python API on 29 September 2022
# The structure has been converted into the P1 space group
# The structure has a 3D framework
# The original CSD entry FATKES is in the monoclinic crystal system
# The framework has been calculated to contain at least 10.0% void space
# The void calculation uses a probe of radius 1.32A, grid spacing 0.4
#
###############################################################################

data_FATKES
_chemical_formula_moiety         '(C56 H56 N16 Nd8 O54)n'
_symmetry_cell_setting           triclinic
_symmetry_space_group_name_H-M   'P 1'
_symmetry_Int_Tables_number      1
_space_group_name_Hall           'P 1'
loop_
_symmetry_equiv_pos_site_id
_symmetry_equiv_pos_as_xyz
1 x,y,z
_cell_length_a                   10.3246(15)
_cell_length_b                   11.3359(17)
_cell_length_c                   22.316(3)
_cell_angle_alpha                90
_cell_angle_beta                 97.290(2)
_cell_angle_gamma                90
_cell_volume                     2590.72
loop_
_atom_site_label
_atom_site_type_symbol
_atom_site_fract_x
_atom_site_fract_y
_atom_site_fract_z
Nd1 Nd 0.10910(2) 0.69037(2) 0.225433(12)
O1 O 0.0999(3) 0.6789(3) 0.11544(18)
O2 O 0.1802(4) 0.6252(4) 0.03236(18)
O4 O 0.6245(4) 0.5895(3) 0.05439(19)
O5 O 0.2319(4) 0.5586(3) 0.30107(18)
O6 O 0.3422(4) 0.3908(3) 0.31572(19)
O7 O 0.1317(3) 0.4812(3) 0.19039(17)
O8 O 0.2311(4) 0.3086(3) 0.20953(18)
H3 H 0.0425 0.3962 0.1245
H4 H 0.0243 0.2948 0.0946
N1 N 0.3371(4) 0.6630(4) 0.1845(2)
N2 N 0.5322(4) 0.6325(4) 0.1586(2)
H7 H 0.6154 0.6233 0.1617
C1 C 0.3262(5) 0.6492(5) 0.1233(2)
C2 C 0.4485(5) 0.6300(5) 0.1062(2)
C3 C 0.4627(5) 0.6517(5) 0.2047(3)
C4 C 0.1950(5) 0.6511(4) 0.0872(2)
C5 C 0.5061(5) 0.6162(5) 0.0487(3)
C6 C 0.5247(6) 0.6608(6) 0.2691(3)
H9 H 0.4794 0.7190 0.2898
H10 H 0.6145 0.6834 0.2701
H11 H 0.5197 0.5857 0.2886
C7 C 0.2644(5) 0.4581(4) 0.2850(2)
C8 C 0.2042(5) 0.4121(4) 0.2231(3)
Nd3 Nd 0.39090(2) 0.19037(2) 0.274567(12)
Nd6 Nd 0.76161(3) 0.41741(3) 0.064504(13)
O19 O 0.1578(4) 0.8908(3) 0.18428(19)
O20 O 0.2689(4) 0.8086(3) 0.29047(18)
O21 O 0.0219(3) 0.7623(3) 0.31785(17)
O3 O 0.4373(4) 0.6343(4) 0.99877(18)
Nd5 Nd 0.23839(3) 0.58259(3) 0.935496(13)
O9 O 0.4781(3) 0.2623(3) 0.18215(17)
O10 O 0.6249(5) 0.3413(5) 0.1316(2)
O11 O 0.8146(4) 0.5188(3) 0.16183(18)
O12 O 0.9264(4) 0.5644(3) 0.24969(19)
O13 O 0.8935(4) 0.5849(4) 0.0329(2)
H1 H 0.9550 0.6120 0.0582
H2 H 0.9161 0.5551 0.0009
O14 O 0.9896(4) 0.3622(4) 0.0977(2)
O15 O 0.7779(6) 0.1968(4) 0.0611(3)
H5 H 0.8452 0.1570 0.0557
H6 H 0.7080 0.1610 0.0474
N3 N 0.6095(4) 0.3188(4) 0.2909(2)
N4 N 0.7771(5) 0.4365(4) 0.3140(2)
H8 H 0.8363 0.4772 0.3353
C9 C 0.6528(5) 0.3588(5) 0.2384(2)
C10 C 0.7580(5) 0.4318(4) 0.2528(3)
C11 C 0.6876(6) 0.3665(5) 0.3360(3)
C12 C 0.5818(5) 0.3181(5) 0.1804(3)
C13 C 0.8393(5) 0.5104(4) 0.2180(2)
C14 C 0.6798(7) 0.3529(7) 0.4018(3)
H12 H 0.6216 0.4113 0.4144
H13 H 0.7651 0.3631 0.4239
H14 H 0.6477 0.2756 0.4094
O17 O 0.5627(4) 0.3657(4) 0.00123(18)
N5 N 0.8905(4) 0.8188(4) 0.2091(2)
O16 O 0.8198(4) 0.3748(4) 0.96764(18)
O1_2 O 0.4001(3) 0.1789(3) 0.38456(18)
O2_2 O 0.3198(4) 0.1252(4) 0.46764(18)
O3_2 O 0.0627(4) 0.1343(4) 0.50123(18)
O5_2 O 0.2681(4) 0.0586(3) 0.19893(18)
O11_2 O 0.6854(4) 0.0188(3) 0.33817(18)
O12_2 O 0.5736(4) 0.0644(3) 0.25031(19)
O13_2 O 0.6065(4) 0.0849(4) 0.4671(2)
H1_2 H 0.5450 0.1120 0.4418
H2_2 H 0.5839 0.0551 0.4991
N1_2 N 0.1629(4) 0.1630(4) 0.3155(2)
C1_2 C 0.1738(5) 0.1492(5) 0.3767(2)
C2_2 C 0.0515(5) 0.1300(5) 0.3938(2)
C3_2 C 0.0373(5) 0.1517(5) 0.2953(3)
C4_2 C 0.3050(5) 0.1511(4) 0.4128(2)
H9_2 H 0.0206 0.2190 0.2102
C13_2 C 0.6607(5) 0.0104(4) 0.2820(2)
Nd5_2 Nd 0.26161(3) 0.08259(3) 0.564504(13)
O18 O 0.8755(4) 0.0895(3) 0.44561(19)
Nd2 Nd 0.73839(3) 0.91741(3) 0.435496(13)
O7_2 O 0.3683(3) 0.9812(3) 0.30961(17)
O10_2 O 0.8751(5) 0.8413(5) 0.3684(2)
O14_2 O 0.5104(4) 0.8622(4) 0.4023(2)
H3_2 H 0.4575 0.8962 0.3755
H4_2 H 0.4757 0.7948 0.4054
O15_2 O 0.7221(6) 0.6968(4) 0.4389(3)
H5_2 H 0.6548 0.6570 0.4443
H6_2 H 0.7920 0.6610 0.4526
N4_2 N 0.7229(5) 0.9365(4) 0.1860(2)
H8_2 H 0.6637 0.9772 0.1647
C7_2 C 0.2356(5) 0.9581(4) 0.2150(2)
C8_2 C 0.2958(5) 0.9121(4) 0.2769(3)
C9_2 C 0.8472(5) 0.8588(5) 0.2616(2)
C10_2 C 0.7420(5) 0.9318(4) 0.2472(3)
C11_2 C 0.8124(6) 0.8665(5) 0.1640(3)
C12_2 C 0.9182(5) 0.8181(5) 0.3196(3)
C14_2 C 0.8202(7) 0.8529(7) 0.0982(3)
H12_2 H 0.8784 0.9113 0.0856
H13_2 H 0.7349 0.8631 0.0761
H14_2 H 0.8523 0.7756 0.0906
O16_2 O 0.6802(4) 0.8748(4) 0.53236(18)
O17_2 O 0.9373(4) 0.8657(4) 0.49877(18)
N2_2 N 0.9678(4) 0.1325(4) 0.3414(2)
H7_2 H 0.8846 0.1233 0.3383
C5_2 C 0.9939(5) 0.1162(5) 0.4513(3)
C6_2 C 0.9753(6) 0.1608(6) 0.2309(3)
H10_2 H 0.8855 0.1834 0.2299
H11_2 H 0.9803 0.0857 0.2114
O9_2 O 0.5219(3) 0.7377(3) 0.81785(17)
O10_3 O 0.3751(5) 0.6587(5) 0.8684(2)
O11_3 O 0.1854(4) 0.4812(3) 0.83817(18)
O12_3 O 0.0736(4) 0.4356(3) 0.75031(19)
O13_3 O 0.1065(4) 0.4151(4) 0.9671(2)
H1_3 H 0.0450 0.3880 0.9418
H2_3 H 0.0839 0.4449 0.9991
O14_3 O 0.0104(4) 0.6378(4) 0.9023(2)
O15_3 O 0.2221(6) 0.8032(4) 0.9389(3)
H5_3 H 0.1548 0.8430 0.9443
H6_3 H 0.2920 0.8390 0.9526
N3_2 N 0.3905(4) 0.6812(4) 0.7091(2)
N4_3 N 0.2229(5) 0.5635(4) 0.6860(2)
H8_3 H 0.1637 0.5228 0.6647
C9_3 C 0.3472(5) 0.6412(5) 0.7616(2)
C10_3 C 0.2420(5) 0.5682(4) 0.7472(3)
C11_3 C 0.3124(6) 0.6335(5) 0.6640(3)
C12_3 C 0.4182(5) 0.6819(5) 0.8196(3)
C13_3 C 0.1607(5) 0.4896(4) 0.7820(2)
C14_3 C 0.3202(7) 0.6471(7) 0.5982(3)
H12_3 H 0.3784 0.5887 0.5856
H13_3 H 0.2349 0.6369 0.5761
H14_3 H 0.3523 0.7244 0.5906
Nd4 Nd 0.60910(2) 0.80963(2) 0.725433(12)
O18_2 O 0.3755(4) 0.4105(3) 0.94561(19)
N5_2 N 0.1095(4) 0.1812(4) 0.7909(2)
Nd1_2 Nd 0.89090(2) 0.30963(2) 0.774567(12)
O1_3 O 0.9001(3) 0.3211(3) 0.88456(18)
O5_3 O 0.7681(4) 0.4414(3) 0.69893(18)
O6_2 O 0.6578(4) 0.6092(3) 0.68428(19)
O7_3 O 0.8683(3) 0.5188(3) 0.80961(17)
O8_2 O 0.7689(4) 0.6914(3) 0.79047(18)
H3_3 H 0.9575 0.6038 0.8755
H4_3 H 0.9757 0.7052 0.9054
N1_3 N 0.6629(4) 0.3370(4) 0.8155(2)
N2_3 N 0.4678(4) 0.3675(4) 0.8414(2)
H7_3 H 0.3846 0.3767 0.8383
C1_3 C 0.6738(5) 0.3508(5) 0.8767(2)
C2_3 C 0.5515(5) 0.3700(5) 0.8938(2)
C3_3 C 0.5373(5) 0.3483(5) 0.7953(3)
C4_3 C 0.8050(5) 0.3489(4) 0.9128(2)
C5_3 C 0.4939(5) 0.3838(5) 0.9513(3)
C6_3 C 0.4753(6) 0.3392(6) 0.7309(3)
H9_3 H 0.5206 0.2810 0.7102
H10_3 H 0.3855 0.3166 0.7299
H11_3 H 0.4803 0.4143 0.7114
C7_3 C 0.7356(5) 0.5419(4) 0.7150(2)
C8_3 C 0.7958(5) 0.5879(4) 0.7769(3)
O19_2 O 0.8422(4) 0.1092(3) 0.81572(19)
O20_2 O 0.7311(4) 0.1914(3) 0.70953(18)
O21_2 O 0.9781(3) 0.2377(3) 0.68215(17)
O4_2 O 0.1245(4) 0.9105(3) 0.55439(19)
N2_4 N 0.0322(4) 0.8675(4) 0.6586(2)
H7_4 H 0.1154 0.8767 0.6617
C5_4 C 0.0061(5) 0.8838(5) 0.5487(3)
C6_4 C 0.0247(6) 0.8392(6) 0.7691(3)
H10_4 H 0.1145 0.8166 0.7701
H11_4 H 0.0197 0.9143 0.7886
O7_4 O 0.6317(3) 0.0188(3) 0.69039(17)
O10_4 O 0.1249(5) 0.1587(5) 0.6316(2)
O14_4 O 0.4896(4) 0.1378(4) 0.5977(2)
H3_4 H 0.5425 0.1038 0.6245
H4_4 H 0.5243 0.2052 0.5946
O15_4 O 0.2779(6) 0.3032(4) 0.5611(3)
H5_4 H 0.3452 0.3430 0.5557
H6_4 H 0.2080 0.3390 0.5474
N4_4 N 0.2771(5) 0.0635(4) 0.8140(2)
H8_4 H 0.3363 0.0228 0.8353
C7_4 C 0.7644(5) 0.0419(4) 0.7850(2)
C8_4 C 0.7042(5) 0.0879(4) 0.7231(3)
C9_4 C 0.1528(5) 0.1412(5) 0.7384(2)
C10_4 C 0.2580(5) 0.0682(4) 0.7528(3)
C11_4 C 0.1876(6) 0.1335(5) 0.8360(3)
C12_4 C 0.0818(5) 0.1819(5) 0.6804(3)
C14_4 C 0.1798(7) 0.1471(7) 0.9018(3)
H12_4 H 0.1216 0.0887 0.9144
H13_4 H 0.2651 0.1369 0.9239
H14_4 H 0.1477 0.2244 0.9094
O1_4 O 0.5999(3) 0.8211(3) 0.61544(18)
O5_4 O 0.7319(4) 0.9414(3) 0.80107(18)
O11_4 O 0.3146(4) 0.9812(3) 0.66183(18)
O12_4 O 0.4264(4) 0.9356(3) 0.74969(19)
O13_4 O 0.3935(4) 0.9151(4) 0.5329(2)
H1_4 H 0.4550 0.8880 0.5582
H2_4 H 0.4161 0.9449 0.5009
N1_4 N 0.8371(4) 0.8370(4) 0.6845(2)
C1_4 C 0.8262(5) 0.8508(5) 0.6233(2)
C2_4 C 0.9485(5) 0.8700(5) 0.6062(2)
C3_4 C 0.9627(5) 0.8483(5) 0.7047(3)
C4_4 C 0.6950(5) 0.8489(4) 0.5872(2)
H9_4 H 0.9794 0.7810 0.7898
C13_4 C 0.3393(5) 0.9896(4) 0.7180(2)
loop_
_geom_bond_atom_site_label_1
_geom_bond_atom_site_label_2
_geom_bond_site_symmetry_1
_geom_bond_site_symmetry_2
Nd1 O1 1_555 1_555
O1 C4 1_555 1_555
O2 C4 1_555 1_555
O4 C5 1_555 1_555
O5 Nd1 1_555 1_555
O6 C7 1_555 1_555
O7 Nd1 1_555 1_555
O8 C8 1_555 1_555
N1 Nd1 1_555 1_555
N2 H7 1_555 1_555
C1 N1 1_555 1_555
C2 N2 1_555 1_555
C3 N1 1_555 1_555
C4 C1 1_555 1_555
C5 C2 1_555 1_555
C6 C3 1_555 1_555
H9 C6 1_555 1_555
H10 C6 1_555 1_555
H11 C6 1_555 1_555
C7 O5 1_555 1_555
C8 O7 1_555 1_555
Nd3 O6 1_555 1_555
Nd6 O4 1_555 1_555
O19 Nd1 1_555 1_555
O20 Nd1 1_555 1_555
O21 Nd1 1_555 1_555
O8 Nd3 1_555 1_555
N2 C3 1_555 1_555
C1 C2 1_555 1_555
C7 C8 1_555 1_555
O3 Nd5 1_555 1_555
Nd6 O10 1_555 1_555
O9 C12 1_555 1_555
O10 C12 1_555 1_555
O11 Nd6 1_555 1_555
O13 Nd6 1_555 1_555
H1 O13 1_555 1_555
H2 O13 1_555 1_555
O14 Nd6 1_555 1_555
O15 Nd6 1_555 1_555
H5 O15 1_555 1_555
H6 O15 1_555 1_555
N3 C9 1_555 1_555
N4 H8 1_555 1_555
C9 C10 1_555 1_555
C10 N4 1_555 1_555
C11 N3 1_555 1_555
C12 C9 1_555 1_555
C13 O11 1_555 1_555
C14 C11 1_555 1_555
H12 C14 1_555 1_555
H13 C14 1_555 1_555
H14 C14 1_555 1_555
Nd3 O9 1_555 1_555
O17 Nd6 1_555 1_555
O12 C13 1_555 1_555
N3 Nd3 1_555 1_555
N4 C11 1_555 1_555
C10 C13 1_555 1_555
Nd3 O1_2 1_555 1_555
O1_2 C4_2 1_555 1_555
O2_2 C4_2 1_555 1_555
O5_2 Nd3 1_555 1_555
O12_2 Nd3 1_555 1_555
H1_2 O13_2 1_555 1_555
H2_2 O13_2 1_555 1_555
N1_2 Nd3 1_555 1_555
C1_2 N1_2 1_555 1_555
C3_2 N1_2 1_555 1_555
C4_2 C1_2 1_555 1_555
C13_2 O11_2 1_555 1_555
Nd5_2 O2_2 1_555 1_555
O3_2 Nd5_2 1_555 1_555
O12_2 C13_2 1_555 1_555
C1_2 C2_2 1_555 1_555
Nd2 O10_2 1_555 1_555
O19 C7_2 1_555 1_555
O20 C8_2 1_555 1_555
O10_2 C12_2 1_555 1_555
O14_2 Nd2 1_555 1_555
H3_2 O14_2 1_555 1_555
H4_2 O14_2 1_555 1_555
O15_2 Nd2 1_555 1_555
H5_2 O15_2 1_555 1_555
H6_2 O15_2 1_555 1_555
N5 C9_2 1_555 1_555
N4_2 H8_2 1_555 1_555
C8_2 O7_2 1_555 1_555
C9_2 C10_2 1_555 1_555
C10_2 N4_2 1_555 1_555
C11_2 N5 1_555 1_555
C12_2 C9_2 1_555 1_555
C14_2 C11_2 1_555 1_555
H12_2 C14_2 1_555 1_555
H13_2 C14_2 1_555 1_555
H14_2 C14_2 1_555 1_555
O16_2 Nd2 1_555 1_555
O17_2 Nd2 1_555 1_555
N4_2 C11_2 1_555 1_555
C7_2 C8_2 1_555 1_555
O18 C5_2 1_555 1_555
N2_2 H7_2 1_555 1_555
H10_2 C6_2 1_555 1_555
H11_2 C6_2 1_555 1_555
Nd5 O10_3 1_555 1_555
O9_2 C12_3 1_555 1_555
O10_3 C12_3 1_555 1_555
O11_3 Nd5 1_555 1_555
O13_3 Nd5 1_555 1_555
H1_3 O13_3 1_555 1_555
H2_3 O13_3 1_555 1_555
O14_3 Nd5 1_555 1_555
O15_3 Nd5 1_555 1_555
H5_3 O15_3 1_555 1_555
H6_3 O15_3 1_555 1_555
N3_2 C9_3 1_555 1_555
N4_3 H8_3 1_555 1_555
C9_3 C10_3 1_555 1_555
C10_3 N4_3 1_555 1_555
C11_3 N3_2 1_555 1_555
C12_3 C9_3 1_555 1_555
C13_3 O11_3 1_555 1_555
C14_3 C11_3 1_555 1_555
H12_3 C14_3 1_555 1_555
H13_3 C14_3 1_555 1_555
H14_3 C14_3 1_555 1_555
Nd4 O9_2 1_555 1_555
O18_2 Nd5 1_555 1_555
O12_3 C13_3 1_555 1_555
N3_2 Nd4 1_555 1_555
N4_3 C11_3 1_555 1_555
C10_3 C13_3 1_555 1_555
Nd1_2 O1_3 1_555 1_555
O1_3 C4_3 1_555 1_555
O16 C4_3 1_555 1_555
O18_2 C5_3 1_555 1_555
O5_3 Nd1_2 1_555 1_555
O6_2 C7_3 1_555 1_555
O7_3 Nd1_2 1_555 1_555
O8_2 C8_3 1_555 1_555
N1_3 Nd1_2 1_555 1_555
N2_3 H7_3 1_555 1_555
C1_3 N1_3 1_555 1_555
C2_3 N2_3 1_555 1_555
C3_3 N1_3 1_555 1_555
C4_3 C1_3 1_555 1_555
C5_3 C2_3 1_555 1_555
C6_3 C3_3 1_555 1_555
H9_3 C6_3 1_555 1_555
H10_3 C6_3 1_555 1_555
H11_3 C6_3 1_555 1_555
C7_3 O5_3 1_555 1_555
C8_3 O7_3 1_555 1_555
Nd4 O6_2 1_555 1_555
O19_2 Nd1_2 1_555 1_555
O20_2 Nd1_2 1_555 1_555
O21_2 Nd1_2 1_555 1_555
O8_2 Nd4 1_555 1_555
N2_3 C3_3 1_555 1_555
C1_3 C2_3 1_555 1_555
C7_3 C8_3 1_555 1_555
O4_2 C5_4 1_555 1_555
N2_4 H7_4 1_555 1_555
H10_4 C6_4 1_555 1_555
H11_4 C6_4 1_555 1_555
Nd5_2 O10_4 1_555 1_555
O19_2 C7_4 1_555 1_555
O20_2 C8_4 1_555 1_555
O10_4 C12_4 1_555 1_555
O14_4 Nd5_2 1_555 1_555
H3_4 O14_4 1_555 1_555
H4_4 O14_4 1_555 1_555
O15_4 Nd5_2 1_555 1_555
H5_4 O15_4 1_555 1_555
H6_4 O15_4 1_555 1_555
N5_2 C9_4 1_555 1_555
N4_4 H8_4 1_555 1_555
C8_4 O7_4 1_555 1_555
C9_4 C10_4 1_555 1_555
C10_4 N4_4 1_555 1_555
C11_4 N5_2 1_555 1_555
C12_4 C9_4 1_555 1_555
C14_4 C11_4 1_555 1_555
H12_4 C14_4 1_555 1_555
H13_4 C14_4 1_555 1_555
H14_4 C14_4 1_555 1_555
N4_4 C11_4 1_555 1_555
C7_4 C8_4 1_555 1_555
Nd4 O1_4 1_555 1_555
O1_4 C4_4 1_555 1_555
O16_2 C4_4 1_555 1_555
O5_4 Nd4 1_555 1_555
O12_4 Nd4 1_555 1_555
H1_4 O13_4 1_555 1_555
H2_4 O13_4 1_555 1_555
N1_4 Nd4 1_555 1_555
C1_4 N1_4 1_555 1_555
C3_4 N1_4 1_555 1_555
C4_4 C1_4 1_555 1_555
C13_4 O11_4 1_555 1_555
O12_4 C13_4 1_555 1_555
C1_4 C2_4 1_555 1_555

#END
