
###############################################################################
#
# This file contains modified crystal structure data generated from the
# MOF subset of the Cambridge Structural Database (CSD) v543 
# hosted by the Cambridge Crystallographic Data Centre (CCDC).
#
# This work is licensed under the Creative Commons
# Attribution-NonCommercial-ShareAlike 4.0 International License.
# To view a copy of this license, visit
# http://creativecommons.org/licenses/by-nc-sa/4.0/
# or send a letter to
# Creative Commons, PO Box 1866, Mountain View, CA 94042, USA.
#
# CIF created using the CSD Python API on 29 September 2022
# The structure has been converted into the P1 space group
# The structure has a 3D framework
# The original CSD entry FATKIV is in the rhombohedral crystal system
# The framework has been calculated to contain at least 10.0% void space
# The void calculation uses a probe of radius 1.32A, grid spacing 0.4
# H atom positions have been added when not included in the experimental data
#
###############################################################################

data_FATKIV
_chemical_formula_moiety         '(C1224 H1656 Mn54 N162 O180)n'
_symmetry_cell_setting           triclinic
_symmetry_space_group_name_H-M   'P 1'
_symmetry_Int_Tables_number      1
_space_group_name_Hall           'P 1'
loop_
_symmetry_equiv_pos_site_id
_symmetry_equiv_pos_as_xyz
1 x,y,z
_cell_length_a                   51.668(5)
_cell_length_b                   51.668(5)
_cell_length_c                   20.345(3)
_cell_angle_alpha                90
_cell_angle_beta                 90
_cell_angle_gamma                120.00
_cell_volume                     47036.1
loop_
_atom_site_label
_atom_site_type_symbol
_atom_site_fract_x
_atom_site_fract_y
_atom_site_fract_z
O1 O 0.63450(11) 0.04847(11) 0.0113(3)
C1 C 0.64855(16) 0.07831(17) 0.0152(4)
C2 C 0.6728(2) 0.0923(2) 0.0572(6)
H1 H 0.6769 0.0801 0.0855
C3 C 0.6913(3) 0.1226(2) 0.0601(7)
H2 H 0.7087 0.1311 0.0869
C4 C 0.6838(2) 0.1407(2) 0.0220(7)
H3 H 0.6959 0.1619 0.0237
C34 C 0.50051(15) 0.06261(16) 0.0075(4)
H38 H 0.5110 0.0601 0.0456
H39 H 0.4811 0.0439 0.0022
C35 C 0.49480(18) 0.08892(18) 0.0211(4)
H40 H 0.5141 0.1073 0.0301
C36 C 0.4740(2) 0.0824(2) 0.0792(5)
H42 H 0.4834 0.0798 0.1192
H43 H 0.4551 0.0635 0.0712
C37 C 0.4667(2) 0.1077(2) 0.0914(5)
H44 H 0.4853 0.1263 0.1032
H45 H 0.4589 0.1115 0.0503
C38 C 0.4438(3) 0.0998(2) 0.1461(6)
H46 H 0.4254 0.0810 0.1346
H47 H 0.4518 0.0964 0.1873
C39 C 0.4359(3) 0.1238(3) 0.1577(8)
H48 H 0.4543 0.1426 0.1694
H49 H 0.4282 0.1274 0.1162
C40 C 0.4133(3) 0.1168(3) 0.2102(8)
H50 H 0.4196 0.1099 0.2493
H51 H 0.3941 0.0999 0.1950
C41 C 0.4076(4) 0.1420(3) 0.2320(9)
H52 H 0.4261 0.1583 0.2518
H53 H 0.4028 0.1501 0.1929
C42 C 0.3826(4) 0.1318(4) 0.2809(8)
H54 H 0.3888 0.1265 0.3225
H55 H 0.3650 0.1136 0.2639
C43 C 0.3737(4) 0.1558(4) 0.2954(10)
H56 H 0.3909 0.1729 0.3169
H57 H 0.3706 0.1630 0.2527
C44 C 0.3474(4) 0.1478(5) 0.3358(15)
H58 H 0.3300 0.1303 0.3169
H59 H 0.3437 0.1646 0.3372
H60 H 0.3509 0.1431 0.3805
O10 O 0.54115(10) 0.00006(11) 0.1453(3)
N8 N 0.57181(12) 0.00772(12) 0.0581(3)
C55 C 0.55726(16) 0.01578(16) 0.0956(4)
C56 C 0.5571(2) 0.04422(19) 0.0806(6)
H72 H 0.5379 0.0389 0.0594
H73 H 0.5732 0.0558 0.0483
C57 C 0.5614(2) 0.0638(2) 0.1376(7)
H74 H 0.5564 0.0794 0.1252
H75 H 0.5482 0.0519 0.1743
C58 C 0.5931(3) 0.0778(3) 0.1577(7)
H76 H 0.5971 0.0622 0.1745
H77 H 0.6060 0.0871 0.1188
C59 C 0.6011(5) 0.1014(4) 0.2103(9)
H78 H 0.5881 0.0916 0.2487
H79 H 0.5958 0.1161 0.1933
C60 C 0.6324(7) 0.1185(5) 0.2349(15)
H80 H 0.6390 0.1045 0.2500
H81 H 0.6458 0.1309 0.1990
C61 C 0.6342(7) 0.1407(6) 0.2978(17)
H82 H 0.6192 0.1281 0.3310
H83 H 0.6285 0.1551 0.2810
C62 C 0.6649(8) 0.1586(11) 0.333(3)
H90 H 0.681746 0.173252 0.297756
H91 H 0.663183 0.171959 0.372335
H92 H 0.671274 0.143127 0.353564
Mn1 Mn 0.59983(2) 0.02213(2) 0.96669(6)
O2 O 0.60770(9) 0.10340(9) 0.9098(3)
O3 O 0.56326(10) 0.00088(10) 0.9171(3)
N1 N 0.59700(11) 0.05562(12) 0.9301(3)
N2 N 0.57195(11) 0.04733(11) 0.8892(3)
N3 N 0.62343(14) 0.01510(14) 0.8797(4)
C5 C 0.65907(18) 0.12764(17) 0.9828(5)
H4 H 0.6540 0.1400 0.9578
C6 C 0.64122(15) 0.09692(16) 0.9782(4)
C7 C 0.61431(14) 0.08514(15) 0.9368(4)
C8 C 0.55592(15) 0.01824(16) 0.8856(4)
C9 C 0.52847(17) 0.00383(18) 0.8450(4)
H6 H 0.5255 0.0197 0.8253
H10 H 0.5462 0.0020 0.7142
C23 C 0.6642(2) 0.0223(2) 0.8179(6)
H30 H 0.6852 0.0343 0.8115
C24 C 0.6505(2) 0.0299(2) 0.8671(5)
H31 H 0.6625 0.0473 0.8924
H32 H 0.6644 0.0018 0.6837
Mn2 Mn 0.56815(2) 0.08820(2) 0.87027(6)
O4 O 0.58130(11) 0.09380(12) 0.7835(3)
O5 O 0.48705(11) 0.05255(11) 0.7718(3)
O6 O 0.54809(9) 0.08123(10) 0.9543(2)
O7 O 0.57299(13) 0.13329(12) 0.8746(4)
N4 N 0.52704(12) 0.07034(12) 0.8401(3)
N5 N 0.50584(12) 0.06108(12) 0.8912(3)
N6 N 0.54899(19) 0.15001(16) 0.8120(6)
C26 C 0.56653(18) 0.08815(17) 0.7269(5)
C27 C 0.5830(2) 0.0963(2) 0.6695(6)
H34 H 0.6041 0.1053 0.6717
C28 C 0.5692(3) 0.0914(3) 0.6094(7)
H35 H 0.5809 0.0966 0.5704
C29 C 0.5386(3) 0.0789(3) 0.6052(6)
H36 H 0.5291 0.0763 0.5638
C30 C 0.5221(2) 0.0703(2) 0.6625(5)
H37 H 0.5009 0.0606 0.6596
C31 C 0.53509(17) 0.07526(17) 0.7235(4)
C32 C 0.51557(16) 0.06569(16) 0.7811(4)
C33 C 0.51870(15) 0.06799(15) 0.9478(4)
H41 H 0.4859 0.0926 0.9816
C45 C 0.5688(4) 0.1453(3) 0.8407(10)
H61 H 0.5876 0.1590 0.8217
C46 C 0.5195(3) 0.1360(4) 0.8315(9)
H62 H 0.5075 0.1190 0.8025
H63 H 0.5122 0.1502 0.8292
H64 H 0.5179 0.1289 0.8768
C47 C 0.5579(3) 0.1658(3) 0.7529(8)
H65 H 0.5795 0.1796 0.7537
H66 H 0.5475 0.1771 0.7470
H67 H 0.5529 0.1517 0.7163
Mn4 Mn 0.45981(2) 0.03809(2) 0.84784(6)
O8 O 0.45548(11) 0.07149(11) 0.8504(3)
N7 N 0.43320(11) 0.02092(12) 0.9221(3)
C48 C 0.43760(18) 0.07699(17) 0.8881(5)
C49 C 0.4367(2) 0.10354(19) 0.8727(5)
H68 H 0.4491 0.1164 0.8388
C50 C 0.4179(3) 0.1105(2) 0.9069(7)
H69 H 0.4167 0.1276 0.8949
C51 C 0.4008(3) 0.0927(2) 0.9585(7)
H70 H 0.3880 0.0976 0.9821
C52 C 0.4027(2) 0.0672(2) 0.9758(5)
C53 C 0.42010(17) 0.05896(16) 0.9396(4)
C54 C 0.41804(15) 0.03040(15) 0.9572(4)
N11 N 0.42260(24) 0.01689(16) 0.7723(4)
C2_2 C 0.2472(3) 0.0061(2) 0.2761(6)
H1_2 H 0.2635 0.0102 0.2478
C3_2 C 0.2354(4) 0.0246(3) 0.2732(7)
H2_2 H 0.2443 0.0420 0.2464
C4_2 C 0.2098(3) 0.0171(2) 0.3113(7)
H3_2 H 0.2007 0.0292 0.3096
H30_2 H 0.3176 0.0185 0.5218
H33 H 0.3558 0.0148 0.5975
C63 C 0.4215(5) 0.0272(3) 0.7240(9)
H84 H 0.4396 0.0446 0.7118
C64 C 0.3979(6) 0.0185(4) 0.6792(12)
H85 H 0.3974 0.0329 0.6509
H90_2 H 0.175161 0.0150793 0.0355772
Mn3 Mn 0.54019(2) 0.96191(2) 0.15216(6)
O8_2 O 0.54452(11) 0.92851(11) 0.1496(3)
N7_2 N 0.56680(11) 0.97908(12) 0.0779(3)
C48_2 C 0.56240(18) 0.92301(17) 0.1119(5)
C49_2 C 0.5633(2) 0.89646(19) 0.1273(5)
H68_2 H 0.5509 0.8836 0.1612
C50_2 C 0.5821(3) 0.8895(2) 0.0931(7)
H69_2 H 0.5833 0.8724 0.1051
C51_2 C 0.5992(3) 0.9073(2) 0.0415(7)
H70_2 H 0.6120 0.9024 0.0179
C52_2 C 0.5973(2) 0.9328(2) 0.0242(5)
C53_2 C 0.57990(17) 0.94104(16) 0.0604(4)
C54_2 C 0.58196(15) 0.96960(15) 0.0428(4)
O11 O 0.51295(11) 0.94745(11) 0.2282(3)
N10 N 0.49416(12) 0.93892(12) 0.1088(3)
N11_2 N 0.57740(24) 0.98311(16) 0.2277(4)
C2_3 C 0.7528(3) 0.9939(2) 0.7239(6)
H1_3 H 0.7365 0.9898 0.7522
C3_3 C 0.7646(4) 0.9754(3) 0.7268(7)
H2_3 H 0.7557 0.9580 0.7536
C4_3 C 0.7902(3) 0.9829(2) 0.6887(7)
H3_3 H 0.7993 0.9708 0.6904
H30_3 H 0.6824 0.9815 0.4782
H33_2 H 0.6442 0.9852 0.4025
C63_2 C 0.5785(5) 0.9728(3) 0.2760(9)
H84_2 H 0.5604 0.9554 0.2882
C64_2 C 0.6021(6) 0.9815(4) 0.3208(12)
H85_2 H 0.6026 0.9671 0.3491
H90_3 H 0.824839 0.984921 0.964423
Mn1_2 Mn 0.40017(2) 0.97787(2) 0.03331(6)
O2_2 O 0.39230(9) 0.89660(9) 0.0902(3)
O3_2 O 0.43674(10) 0.99912(10) 0.0829(3)
N1_2 N 0.40300(11) 0.94438(12) 0.0699(3)
N2_2 N 0.42805(11) 0.95267(11) 0.1108(3)
N3_2 N 0.37657(14) 0.98490(14) 0.1203(4)
C5_2 C 0.34093(18) 0.87236(17) 0.0172(5)
H4_2 H 0.3460 0.8600 0.0422
C6_2 C 0.35878(15) 0.90308(16) 0.0218(4)
C7_2 C 0.38569(14) 0.91486(15) 0.0632(4)
C8_2 C 0.44408(15) 0.98176(16) 0.1144(4)
C9_2 C 0.47153(17) 0.99617(18) 0.1550(4)
H6_2 H 0.4745 0.9803 0.1747
H10_2 H 0.4538 0.9980 0.2858
C23_2 C 0.3358(2) 0.9777(2) 0.1821(6)
H30_4 H 0.3148 0.9657 0.1885
C24_2 C 0.3495(2) 0.9701(2) 0.1329(5)
H31_2 H 0.3375 0.9527 0.1076
H32_2 H 0.3356 0.9982 0.3163
Mn2_2 Mn 0.43185(2) 0.91180(2) 0.12973(6)
O4_2 O 0.41870(11) 0.90620(12) 0.2165(3)
O6_2 O 0.45191(9) 0.91877(10) 0.0457(2)
O7_2 O 0.42701(13) 0.86671(12) 0.1254(4)
N4_2 N 0.47296(12) 0.92966(12) 0.1599(3)
N6_2 N 0.45101(19) 0.84999(16) 0.1880(6)
C26_2 C 0.43347(18) 0.91185(17) 0.2731(5)
C27_2 C 0.4170(2) 0.9037(2) 0.3305(6)
H34_2 H 0.3959 0.8947 0.3283
C28_2 C 0.4308(3) 0.9086(3) 0.3906(7)
H35_2 H 0.4191 0.9034 0.4296
C29_2 C 0.4614(3) 0.9211(3) 0.3948(6)
H36_2 H 0.4709 0.9237 0.4362
C30_2 C 0.4779(2) 0.9297(2) 0.3375(5)
H37_2 H 0.4991 0.9394 0.3404
C31_2 C 0.46491(17) 0.92474(17) 0.2765(4)
C32_2 C 0.48443(16) 0.93431(16) 0.2189(4)
C33_2 C 0.48130(15) 0.93201(15) 0.0522(4)
H41_2 H 0.5141 0.9074 0.0184
C45_2 C 0.4312(4) 0.8547(3) 0.1593(10)
H61_2 H 0.4124 0.8410 0.1783
C46_2 C 0.4805(3) 0.8640(4) 0.1685(9)
H62_2 H 0.4925 0.8810 0.1975
H63_2 H 0.4878 0.8498 0.1708
H64_2 H 0.4821 0.8711 0.1232
C47_2 C 0.4421(3) 0.8342(3) 0.2471(8)
H65_2 H 0.4205 0.8204 0.2463
H66_2 H 0.4525 0.8229 0.2530
H67_2 H 0.4471 0.8483 0.2837
H5 H 0.5112 0.9917 0.8741
C10 C 0.5285(4) 0.9858(5) 0.7954(9)
H7 H 0.5253 0.9678 0.8194
H8 H 0.5094 0.9797 0.7727
C11 C 0.5466(4) 0.9877(4) 0.7460(9)
H9 H 0.5670 0.9977 0.7647
C12 C 0.5438(4) 0.9609(5) 0.7035(10)
H11 H 0.5468 0.9470 0.7318
H12 H 0.5594 0.9685 0.6689
C13 C 0.5103(4) 0.9430(4) 0.6694(9)
H13 H 0.4950 0.9344 0.7044
H14 H 0.5069 0.9575 0.6442
C14 C 0.5065(7) 0.9172(5) 0.6219(11)
H15 H 0.5127 0.9044 0.6456
H16 H 0.5202 0.9262 0.5841
C15 C 0.4734(8) 0.8964(7) 0.5945(14)
H17 H 0.4597 0.8862 0.6317
H18 H 0.4666 0.9090 0.5719
C16 C 0.4722(8) 0.8739(7) 0.5482(16)
H19 H 0.4870 0.8839 0.5127
H20 H 0.4770 0.8600 0.5715
C17 C 0.4448(6) 0.8589(6) 0.5230(13)
H21 H 0.4303 0.8445 0.5549
H22 H 0.4377 0.8725 0.5076
C18 C 0.4495(12) 0.8451(11) 0.473(3)
H23 H 0.4551 0.8305 0.4891
H24 H 0.4656 0.8596 0.4439
C19 C 0.4194(11) 0.8292(10) 0.4364(19)
H25 H 0.4230 0.8306 0.3889
H26 H 0.4077 0.8387 0.4476
H27 H 0.4084 0.8081 0.4494
C20 C 0.6077(2) 0.9903(3) 0.8470(6)
H28 H 0.5874 0.9776 0.8592
C21 C 0.6190(2) 0.9818(2) 0.7960(7)
H29 H 0.6062 0.9640 0.7722
C22 C 0.6481(2) 0.99815(19) 0.7788(6)
C25 C 0.6616(3) 0.9890(2) 0.7224(7)
H33_3 H 0.6815 0.9924 0.7358
O9 O 0.59916(10) 0.98518(10) 0.9963(3)
N9 N 0.68356(16) 0.92763(18) 0.5610(4)
H71 H 0.6082 0.9444 0.9873
C63_3 C 0.6939(3) 0.9391(4) 0.6093(9)
H84_3 H 0.7113 0.9384 0.6215
C64_3 C 0.6852(4) 0.9540(4) 0.6541(12)
H85_3 H 0.6996 0.9689 0.6824
C65 C 0.6593(4) 0.9478(4) 0.6565(8)
C66 C 0.6430(3) 0.9361(3) 0.5921(9)
H86 H 0.6247 0.9356 0.5829
C67 C 0.6564(2) 0.9263(3) 0.5476(7)
H87 H 0.6468 0.9184 0.5067
C68 C 0.6427(4) 0.9576(4) 0.7040(9)
H88 H 0.6369 0.9450 0.7439
H89 H 0.6242 0.9548 0.6827
Mn5 Mn 0.70476(2) 0.91161(3) 0.48549(6)
Mn1_3 Mn 0.42230(3) 0.40017(2) 0.96669(6)
O2_3 O 0.49570(13) 0.39230(9) 0.9098(3)
O3_3 O 0.43762(14) 0.43674(10) 0.9171(3)
N1_3 N 0.45862(16) 0.40300(11) 0.9301(3)
N2_3 N 0.47538(16) 0.42805(11) 0.8892(3)
N3_3 N 0.39167(20) 0.37657(14) 0.8797(4)
C5_3 C 0.46857(25) 0.34093(18) 0.9828(5)
H4_3 H 0.4860 0.3460 0.9578
C6_3 C 0.45570(22) 0.35878(15) 0.9782(4)
C7_3 C 0.47083(21) 0.38569(14) 0.9368(4)
C8_3 C 0.46232(22) 0.44408(15) 0.8856(4)
C9_3 C 0.47536(25) 0.47153(17) 0.8450(4)
H5_2 H 0.4805 0.4888 0.8741
H6_3 H 0.4942 0.4745 0.8253
C10_2 C 0.4573(6) 0.4715(4) 0.7954(9)
H7_2 H 0.4425 0.4747 0.8194
H8_2 H 0.4703 0.4906 0.7727
C11_2 C 0.4411(6) 0.4534(4) 0.7460(9)
H9_2 H 0.4307 0.4330 0.7647
H10_3 H 0.4558 0.4538 0.7142
C12_2 C 0.4171(6) 0.4562(4) 0.7035(10)
H11_2 H 0.4002 0.4532 0.7318
H12_2 H 0.4091 0.4406 0.6689
C13_2 C 0.4327(6) 0.4897(4) 0.6694(9)
H13_2 H 0.4394 0.5050 0.7044
H14_2 H 0.4506 0.4931 0.6442
C14_2 C 0.4107(9) 0.4935(7) 0.6219(11)
H15_2 H 0.3917 0.4873 0.6456
H16_2 H 0.4060 0.4798 0.5841
C15_2 C 0.4230(11) 0.5266(8) 0.5945(14)
H17_2 H 0.4265 0.5403 0.6317
H18_2 H 0.4424 0.5334 0.5719
C16_2 C 0.4017(11) 0.5278(8) 0.5482(16)
H19_2 H 0.3969 0.5130 0.5127
H20_2 H 0.3830 0.5230 0.5715
C17_2 C 0.4141(8) 0.5552(6) 0.5230(13)
H21_2 H 0.4142 0.5697 0.5549
H22_2 H 0.4348 0.5623 0.5076
C18_2 C 0.3956(16) 0.5505(12) 0.473(3)
H23_2 H 0.3754 0.5449 0.4891
H24_2 H 0.3940 0.5344 0.4439
C19_2 C 0.4098(15) 0.5806(11) 0.4364(19)
H25_2 H 0.4076 0.5770 0.3889
H26_2 H 0.4310 0.5923 0.4476
H27_2 H 0.3997 0.5916 0.4494
C20_2 C 0.3826(4) 0.3923(2) 0.8470(6)
H28_2 H 0.3902 0.4126 0.8592
C21_2 C 0.3628(3) 0.3810(2) 0.7960(7)
H29_2 H 0.3578 0.3938 0.7722
C22_2 C 0.35005(28) 0.3519(2) 0.7788(6)
C23_3 C 0.3581(3) 0.3358(2) 0.8179(6)
H30_5 H 0.3491 0.3148 0.8115
C24_3 C 0.3794(3) 0.3495(2) 0.8671(5)
H31_3 H 0.3848 0.3375 0.8924
C25_2 C 0.3274(4) 0.3384(3) 0.7224(7)
H32_3 H 0.3374 0.3356 0.6837
H33_4 H 0.3109 0.3185 0.7358
Mn2_3 Mn 0.52005(3) 0.43185(2) 0.87027(6)
O4_3 O 0.51250(16) 0.41870(11) 0.7835(3)
O5_2 O 0.56550(16) 0.51295(11) 0.7718(3)
O6_3 O 0.53314(13) 0.45191(9) 0.9543(2)
O7_3 O 0.56030(18) 0.42701(13) 0.8746(4)
N4_3 N 0.54330(17) 0.47296(12) 0.8401(3)
N5_2 N 0.55524(17) 0.49416(12) 0.8912(3)
N6_3 N 0.60102(25) 0.45101(19) 0.8120(6)
C26_3 C 0.52162(25) 0.43347(18) 0.7269(5)
C27_3 C 0.5133(3) 0.4170(2) 0.6695(6)
H34_3 H 0.5012 0.3959 0.6717
C28_3 C 0.5222(4) 0.4308(3) 0.6094(7)
H35_3 H 0.5157 0.4191 0.5704
C29_3 C 0.5403(4) 0.4614(3) 0.6052(6)
H36_3 H 0.5472 0.4709 0.5638
C30_3 C 0.5482(3) 0.4779(2) 0.6625(5)
H37_3 H 0.5597 0.4991 0.6596
C31_3 C 0.54017(24) 0.46491(17) 0.7235(4)
C32_3 C 0.55012(23) 0.48443(16) 0.7811(4)
C33_3 C 0.54929(21) 0.48130(15) 0.9478(4)
H41_3 H 0.6067 0.5141 0.9816
C45_3 C 0.5765(5) 0.4312(4) 0.8407(10)
H61_3 H 0.5714 0.4124 0.8217
C46_3 C 0.6165(5) 0.4805(3) 0.8315(9)
H62_3 H 0.6115 0.4925 0.8025
H63_3 H 0.6380 0.4878 0.8292
H64_3 H 0.6110 0.4821 0.8768
C47_3 C 0.6079(4) 0.4421(3) 0.7529(8)
H65_3 H 0.6001 0.4205 0.7537
H66_3 H 0.6296 0.4525 0.7470
H67_3 H 0.5988 0.4471 0.7163
O9_2 O 0.38602(14) 0.40084(10) 0.9963(3)
N9_2 N 0.24407(24) 0.31644(16) 0.5610(4)
H71_2 H 0.3362 0.3918 0.9873
C63_4 C 0.2452(5) 0.3061(3) 0.6093(9)
H84_4 H 0.2271 0.2887 0.6215
C64_4 C 0.2688(6) 0.3148(4) 0.6541(12)
H85_4 H 0.2693 0.3004 0.6824
C65_2 C 0.2885(6) 0.3407(4) 0.6565(8)
C66_2 C 0.2931(4) 0.3570(3) 0.5921(9)
H86_2 H 0.3109 0.3753 0.5829
C67_2 C 0.2699(4) 0.3436(2) 0.5476(7)
H87_2 H 0.2716 0.3532 0.5067
C68_2 C 0.3149(6) 0.3573(4) 0.7040(9)
H88_2 H 0.3081 0.3631 0.7439
H89_2 H 0.3306 0.3758 0.6827
Mn4_2 Mn 0.57828(3) 0.54019(2) 0.84784(6)
Mn5_2 Mn 0.20686(4) 0.29524(2) 0.48549(6)
Mn1_4 Mn 0.26650(2) 0.35546(2) 0.30002(6)
O1_2 O 0.30117(11) 0.38180(11) 0.3446(3)
O2_4 O 0.27437(9) 0.43673(9) 0.2431(3)
O3_4 O 0.22993(10) 0.33421(10) 0.2504(3)
N1_4 N 0.26367(11) 0.38895(12) 0.2634(3)
N2_4 N 0.23862(11) 0.38066(11) 0.2225(3)
N3_4 N 0.29010(14) 0.34843(14) 0.2130(4)
C1_2 C 0.31522(16) 0.41164(17) 0.3485(4)
C2_4 C 0.3395(2) 0.4256(2) 0.3905(6)
H1_4 H 0.3436 0.4134 0.4188
C3_4 C 0.3580(3) 0.4559(2) 0.3934(7)
H2_4 H 0.3754 0.4644 0.4202
C4_4 C 0.3505(2) 0.4740(2) 0.3553(7)
H3_4 H 0.3626 0.4952 0.3570
C5_4 C 0.32574(18) 0.46097(17) 0.3161(5)
H4_4 H 0.3207 0.4733 0.2911
C6_4 C 0.30789(15) 0.43025(16) 0.3115(4)
C7_4 C 0.28098(14) 0.41847(15) 0.2701(4)
C8_4 C 0.22259(15) 0.35157(16) 0.2189(4)
C9_4 C 0.19514(17) 0.33716(18) 0.1783(4)
H5_3 H 0.1779 0.3250 0.2074
H6_4 H 0.1922 0.3530 0.1586
C10_3 C 0.1952(4) 0.3191(5) 0.1287(9)
H7_3 H 0.1920 0.3011 0.1527
H8_3 H 0.1761 0.3130 0.1060
C11_3 C 0.2133(4) 0.3210(4) 0.0793(9)
H9_3 H 0.2337 0.3310 0.0980
H10_4 H 0.2129 0.3353 0.0475
C12_3 C 0.2105(4) 0.2942(5) 0.0368(10)
H11_3 H 0.2135 0.2803 0.0651
H12_3 H 0.2261 0.3018 0.0022
C13_3 C 0.1770(4) 0.2763(4) 0.0027(9)
H13_3 H 0.1617 0.2677 0.0377
C20_3 C 0.2744(2) 0.3236(3) 0.1803(6)
H28_3 H 0.2541 0.3109 0.1925
C21_3 C 0.2857(2) 0.3151(2) 0.1293(7)
H29_3 H 0.2729 0.2973 0.1055
C22_3 C 0.3148(2) 0.33148(19) 0.1121(6)
C23_4 C 0.3309(2) 0.3556(2) 0.1512(6)
H30_6 H 0.3519 0.3676 0.1448
C24_4 C 0.3172(2) 0.3632(2) 0.2004(5)
H31_4 H 0.3292 0.3806 0.2257
C25_3 C 0.3283(3) 0.3223(2) 0.0557(7)
H32_4 H 0.3311 0.3351 0.0170
H33_5 H 0.3482 0.3257 0.0691
Mn2_4 Mn 0.23482(2) 0.42153(2) 0.20360(6)
O4_4 O 0.24797(11) 0.42713(12) 0.1168(3)
O5_3 O 0.15372(11) 0.38588(11) 0.1051(3)
O6_4 O 0.21476(9) 0.41456(10) 0.2876(2)
O7_4 O 0.23966(13) 0.46662(12) 0.2079(4)
N4_4 N 0.19371(12) 0.40367(12) 0.1734(3)
N5_3 N 0.17251(12) 0.39441(12) 0.2245(3)
N6_4 N 0.21566(19) 0.48334(16) 0.1453(6)
C26_4 C 0.23320(18) 0.42148(17) 0.0602(5)
C27_4 C 0.2497(2) 0.4296(2) 0.0028(6)
H34_4 H 0.2708 0.4386 0.0050
C31_4 C 0.20176(17) 0.40859(17) 0.0568(4)
C32_4 C 0.18224(16) 0.39902(16) 0.1144(4)
C33_4 C 0.18537(15) 0.40132(15) 0.2811(4)
C34_2 C 0.16718(15) 0.39594(16) 0.3408(4)
H38_2 H 0.1777 0.3934 0.3789
H39_2 H 0.1478 0.3772 0.3355
C35_2 C 0.16147(18) 0.42225(18) 0.3544(4)
H40_2 H 0.1808 0.4406 0.3634
H41_4 H 0.1526 0.4259 0.3149
C36_2 C 0.1407(2) 0.4157(2) 0.4125(5)
H42_2 H 0.1501 0.4131 0.4525
H43_2 H 0.1218 0.3968 0.4045
C37_2 C 0.1334(2) 0.4410(2) 0.4247(5)
H44_2 H 0.1520 0.4596 0.4365
H45_2 H 0.1256 0.4448 0.3836
C38_2 C 0.1105(3) 0.4331(2) 0.4794(6)
H46_2 H 0.0921 0.4143 0.4679
H47_2 H 0.1185 0.4297 0.5206
C39_2 C 0.1026(3) 0.4571(3) 0.4910(8)
H48_2 H 0.1210 0.4759 0.5027
H49_2 H 0.0949 0.4607 0.4495
C40_2 C 0.0800(3) 0.4501(3) 0.5435(8)
H50_2 H 0.0863 0.4432 0.5826
H51_2 H 0.0608 0.4332 0.5283
C41_2 C 0.0743(4) 0.4753(3) 0.5653(9)
H52_2 H 0.0928 0.4916 0.5851
H53_2 H 0.0695 0.4834 0.5262
C42_2 C 0.0493(4) 0.4651(4) 0.6142(8)
H54_2 H 0.0555 0.4598 0.6558
H55_2 H 0.0317 0.4469 0.5972
C43_2 C 0.0404(4) 0.4891(4) 0.6287(10)
H56_2 H 0.0576 0.5062 0.6502
H57_2 H 0.0373 0.4963 0.5860
C44_2 C 0.0141(4) 0.4811(5) 0.6691(15)
H59_2 H 0.0104 0.4979 0.6705
H60_2 H 0.0176 0.4764 0.7138
C45_4 C 0.2355(4) 0.4786(3) 0.1740(10)
H61_4 H 0.2543 0.4923 0.1550
C46_4 C 0.1862(3) 0.4693(4) 0.1648(9)
H62_4 H 0.1742 0.4523 0.1358
H63_4 H 0.1789 0.4835 0.1625
H64_4 H 0.1846 0.4622 0.2101
C47_4 C 0.2246(3) 0.4991(3) 0.0862(8)
H65_4 H 0.2462 0.5129 0.0870
H66_4 H 0.2142 0.5104 0.0803
H67_4 H 0.2196 0.4850 0.0496
O8_3 O 0.21119(11) 0.26184(11) 0.4829(3)
O9_3 O 0.26583(10) 0.31851(10) 0.3296(3)
O10_2 O 0.20782(10) 0.33339(11) 0.4786(3)
N7_3 N 0.23347(11) 0.31241(12) 0.4112(3)
N8_2 N 0.23848(12) 0.34105(12) 0.3914(3)
C48_3 C 0.22907(18) 0.25634(17) 0.4452(5)
C49_3 C 0.2300(2) 0.22979(19) 0.4606(5)
H68_3 H 0.2176 0.2169 0.4945
C50_3 C 0.2488(3) 0.2228(2) 0.4264(7)
H69_3 H 0.2500 0.2057 0.4384
C51_3 C 0.2659(3) 0.2406(2) 0.3748(7)
H70_3 H 0.2787 0.2357 0.3512
C52_3 C 0.2640(2) 0.2661(2) 0.3575(5)
H71_3 H 0.2749 0.2777 0.3206
C53_3 C 0.24657(17) 0.27437(16) 0.3937(4)
C54_3 C 0.24863(15) 0.30293(15) 0.3761(4)
C55_2 C 0.22393(16) 0.34911(16) 0.4289(4)
C56_2 C 0.2238(2) 0.37755(19) 0.4139(6)
H72_2 H 0.2046 0.3722 0.3927
H73_2 H 0.2399 0.3891 0.3816
C57_2 C 0.2281(2) 0.3971(2) 0.4709(7)
H74_2 H 0.2231 0.4127 0.4585
H75_2 H 0.2149 0.3852 0.5076
C58_2 C 0.2598(3) 0.4111(3) 0.4910(7)
H76_2 H 0.2638 0.3955 0.5078
H77_2 H 0.2727 0.4204 0.4521
C59_2 C 0.2678(5) 0.4347(4) 0.5436(9)
H78_2 H 0.2548 0.4249 0.5820
H79_2 H 0.2625 0.4494 0.5266
C60_2 C 0.2991(7) 0.4518(5) 0.5682(15)
H80_2 H 0.3057 0.4378 0.5833
H81_2 H 0.3125 0.4642 0.5323
C61_2 C 0.3009(7) 0.4740(6) 0.6311(17)
H82_2 H 0.2859 0.4614 0.6643
H83_2 H 0.2952 0.4884 0.6143
C62_2 C 0.3316(8) 0.4919(11) 0.666(3)
H85_5 H 0.3663 0.3022 0.0157
C68_3 C 0.3094(4) 0.2909(4) 0.0373(9)
H88_3 H 0.3036 0.2783 0.0772
H89_3 H 0.2909 0.2881 0.0160
O11_2 O 0.17962(11) 0.28078(11) 0.5615(3)
N10_2 N 0.16083(12) 0.27225(12) 0.4421(3)
Mn4_3 Mn 0.12648(2) 0.37142(2) 0.18117(6)
H90_4 H 0.348413 0.506585 0.631089
H91_2 H 0.32985 0.505292 0.705668
H92_2 H 0.337941 0.47646 0.686897
Mn1_5 Mn 0.64454(2) 0.91103(3) 0.30002(6)
O1_3 O 0.61820(11) 0.91936(16) 0.3446(3)
O2_5 O 0.56327(9) 0.83763(13) 0.2431(3)
O3_5 O 0.66579(10) 0.89571(14) 0.2504(3)
N1_5 N 0.61105(12) 0.87471(16) 0.2634(3)
N2_5 N 0.61934(11) 0.85795(16) 0.2225(3)
N3_5 N 0.65157(14) 0.94166(20) 0.2130(4)
C1_3 C 0.58836(17) 0.90357(23) 0.3485(4)
C2_5 C 0.5744(2) 0.9138(3) 0.3905(6)
H1_5 H 0.5866 0.9301 0.4188
C3_5 C 0.5441(2) 0.9020(4) 0.3934(7)
H2_5 H 0.5356 0.9109 0.4202
C4_5 C 0.5260(2) 0.8764(3) 0.3553(7)
H3_5 H 0.5048 0.8673 0.3570
C5_5 C 0.53903(17) 0.86476(25) 0.3161(5)
H4_5 H 0.5267 0.8473 0.2911
C6_5 C 0.56975(16) 0.87763(22) 0.3115(4)
C7_5 C 0.58153(15) 0.86250(21) 0.2701(4)
C8_5 C 0.64843(16) 0.87101(22) 0.2189(4)
C9_5 C 0.66284(18) 0.85797(25) 0.1783(4)
H5_4 H 0.6750 0.8528 0.2074
H6_5 H 0.6470 0.8391 0.1586
C10_4 C 0.6809(5) 0.8760(6) 0.1287(9)
H7_4 H 0.6989 0.8908 0.1527
H8_4 H 0.6870 0.8630 0.1060
C11_4 C 0.6790(4) 0.8922(6) 0.0793(9)
H9_4 H 0.6690 0.9026 0.0980
H10_5 H 0.6647 0.8775 0.0475
C12_4 C 0.7058(5) 0.9162(6) 0.0368(10)
H11_4 H 0.7197 0.9331 0.0651
H12_4 H 0.6982 0.9242 0.0022
C13_4 C 0.7237(4) 0.9006(6) 0.0027(9)
H13_4 H 0.7323 0.8939 0.0377
C20_4 C 0.6764(3) 0.9507(4) 0.1803(6)
H28_4 H 0.6891 0.9431 0.1925
C21_4 C 0.6849(2) 0.9705(3) 0.1293(7)
H29_4 H 0.7027 0.9755 0.1055
C22_4 C 0.66852(19) 0.98328(28) 0.1121(6)
C23_5 C 0.6444(2) 0.9752(3) 0.1512(6)
H30_7 H 0.6324 0.9842 0.1448
C24_5 C 0.6368(2) 0.9539(3) 0.2004(5)
H31_5 H 0.6194 0.9485 0.2257
H32_5 H 0.6649 0.9959 0.0170
Mn2_5 Mn 0.57847(2) 0.81328(3) 0.20360(6)
O4_5 O 0.57287(12) 0.82083(16) 0.1168(3)
O5_4 O 0.61412(11) 0.76783(16) 0.1051(3)
O6_5 O 0.58544(10) 0.80019(13) 0.2876(2)
O7_5 O 0.53338(12) 0.77303(18) 0.2079(4)
N4_5 N 0.59633(12) 0.79003(17) 0.1734(3)
N5_4 N 0.60559(12) 0.77809(17) 0.2245(3)
N6_5 N 0.51666(16) 0.73231(25) 0.1453(6)
C26_5 C 0.57852(17) 0.81171(25) 0.0602(5)
C27_5 C 0.5704(2) 0.8200(3) 0.0028(6)
H34_5 H 0.5614 0.8321 0.0050
C31_5 C 0.59141(17) 0.79316(24) 0.0568(4)
C32_5 C 0.60098(16) 0.78321(23) 0.1144(4)
C33_5 C 0.59868(15) 0.78404(21) 0.2811(4)
C34_3 C 0.60406(16) 0.77123(22) 0.3408(4)
H38_3 H 0.6066 0.7842 0.3789
H39_3 H 0.6228 0.7705 0.3355
C35_3 C 0.57775(18) 0.73921(25) 0.3544(4)
H40_3 H 0.5594 0.7401 0.3634
H41_5 H 0.5741 0.7266 0.3149
C36_3 C 0.5843(2) 0.7249(3) 0.4125(5)
H42_3 H 0.5869 0.7369 0.4525
H43_3 H 0.6032 0.7249 0.4045
C37_3 C 0.5590(2) 0.6923(3) 0.4247(5)
H44_3 H 0.5404 0.6923 0.4365
H45_3 H 0.5552 0.6807 0.3836
C38_3 C 0.5669(2) 0.6773(4) 0.4794(6)
H46_3 H 0.5857 0.6777 0.4679
H47_3 H 0.5703 0.6887 0.5206
C39_3 C 0.5429(3) 0.6454(4) 0.4910(8)
H48_3 H 0.5241 0.6450 0.5027
H49_3 H 0.5393 0.6341 0.4495
C40_3 C 0.5499(3) 0.6298(4) 0.5435(8)
H50_3 H 0.5568 0.6430 0.5826
H51_3 H 0.5668 0.6275 0.5283
C41_3 C 0.5247(3) 0.5989(5) 0.5653(9)
H52_3 H 0.5084 0.6011 0.5851
H53_3 H 0.5166 0.5860 0.5262
C42_3 C 0.5349(4) 0.5841(6) 0.6142(8)
H54_3 H 0.5402 0.5956 0.6558
H55_3 H 0.5531 0.5847 0.5972
C43_3 C 0.5109(4) 0.5512(6) 0.6287(10)
H56_3 H 0.4938 0.5513 0.6502
H57_3 H 0.5037 0.5409 0.5860
C44_3 C 0.5189(5) 0.5329(6) 0.6691(15)
H58_2 H 0.5364 0.5330 0.6502
H59_3 H 0.5021 0.5124 0.6705
H60_3 H 0.5236 0.5411 0.7138
C45_5 C 0.5214(3) 0.7568(5) 0.1740(10)
H61_5 H 0.5077 0.7619 0.1550
C46_5 C 0.5307(4) 0.7168(5) 0.1648(9)
H62_5 H 0.5477 0.7218 0.1358
H63_5 H 0.5165 0.6953 0.1625
H64_5 H 0.5378 0.7223 0.2101
C47_5 C 0.5009(3) 0.7254(4) 0.0862(8)
H65_5 H 0.4871 0.7332 0.0870
H66_5 H 0.4896 0.7037 0.0803
H67_5 H 0.5150 0.7345 0.0496
O8_4 O 0.73816(11) 0.94934(16) 0.4829(3)
O9_4 O 0.68149(10) 0.94731(14) 0.3296(3)
O10_3 O 0.66661(11) 0.87442(15) 0.4786(3)
N7_4 N 0.68759(12) 0.92105(16) 0.4112(3)
N8_3 N 0.65895(12) 0.89742(17) 0.3914(3)
C48_4 C 0.74366(17) 0.97272(25) 0.4452(5)
C52_4 C 0.7339(2) 0.9978(3) 0.3575(5)
H71_4 H 0.7223 0.9971 0.3206
C53_4 C 0.72563(16) 0.97219(23) 0.3937(4)
C54_4 C 0.69707(15) 0.94569(21) 0.3761(4)
C55_3 C 0.65089(16) 0.87481(23) 0.4289(4)
C56_3 C 0.62245(19) 0.84621(28) 0.4139(6)
H72_3 H 0.6278 0.8323 0.3927
H73_3 H 0.6109 0.8507 0.3816
C57_3 C 0.6029(2) 0.8309(3) 0.4709(7)
H74_3 H 0.5873 0.8103 0.4585
H75_3 H 0.6148 0.8296 0.5076
C58_3 C 0.5889(3) 0.8486(4) 0.4910(7)
H76_3 H 0.6045 0.8682 0.5078
H77_3 H 0.5796 0.8522 0.4521
C59_3 C 0.5653(4) 0.8330(6) 0.5436(9)
H78_3 H 0.5751 0.8298 0.5820
H79_3 H 0.5506 0.8130 0.5266
C60_3 C 0.5482(5) 0.8472(9) 0.5682(15)
H80_3 H 0.5622 0.8678 0.5833
H81_3 H 0.5358 0.8482 0.5323
C61_3 C 0.5260(6) 0.8268(9) 0.6311(17)
H82_3 H 0.5386 0.8244 0.6643
H83_3 H 0.5116 0.8067 0.6143
C62_3 C 0.5081(11) 0.8396(14) 0.666(3)
O11_3 O 0.71922(11) 0.89883(16) 0.5615(3)
N10_3 N 0.72775(12) 0.88857(17) 0.4421(3)
Mn4_4 Mn 0.62858(2) 0.75505(3) 0.18117(6)
H90_5 H 0.493415 0.841827 0.631089
H91_3 H 0.494708 0.824558 0.705668
H92_3 H 0.52354 0.86148 0.686897
O1_4 O 0.58603(16) 0.63450(11) 0.9887(3)
C1_4 C 0.57024(23) 0.64855(16) 0.9848(4)
C2_6 C 0.5805(3) 0.6728(2) 0.9428(6)
H1_6 H 0.5968 0.6769 0.9145
C3_6 C 0.5687(4) 0.6913(3) 0.9399(7)
H2_6 H 0.5776 0.7087 0.9131
C4_6 C 0.5431(3) 0.6838(2) 0.9780(7)
H3_6 H 0.5340 0.6959 0.9763
C34_4 C 0.43790(22) 0.50051(15) 0.9925(4)
H38_4 H 0.4509 0.5110 0.9544
H39_4 H 0.4372 0.4811 0.9978
C35_4 C 0.40588(25) 0.49480(18) 0.9789(4)
H40_4 H 0.4068 0.5141 0.9699
C36_4 C 0.3916(3) 0.4740(2) 0.9208(5)
H42_4 H 0.4036 0.4834 0.8808
H43_4 H 0.3916 0.4551 0.9288
C37_4 C 0.3590(3) 0.4667(2) 0.9086(5)
H44_4 H 0.3590 0.4853 0.8968
H45_4 H 0.3474 0.4589 0.9497
C38_4 C 0.3440(4) 0.4438(3) 0.8539(6)
H46_4 H 0.3444 0.4254 0.8654
H47_4 H 0.3554 0.4518 0.8127
C39_4 C 0.3121(4) 0.4359(3) 0.8423(8)
H48_4 H 0.3117 0.4543 0.8306
H49_4 H 0.3008 0.4282 0.8838
C40_4 C 0.2965(4) 0.4133(3) 0.7898(8)
H50_4 H 0.3097 0.4196 0.7507
H51_4 H 0.2942 0.3941 0.8050
C41_4 C 0.2656(5) 0.4076(4) 0.7680(9)
H52_4 H 0.2678 0.4261 0.7482
H53_4 H 0.2527 0.4028 0.8071
C42_4 C 0.2508(6) 0.3826(4) 0.7191(8)
H54_4 H 0.2623 0.3888 0.6775
H55_4 H 0.2514 0.3650 0.7361
C43_4 C 0.2179(6) 0.3737(4) 0.7046(10)
H56_4 H 0.2180 0.3909 0.6831
H57_4 H 0.2076 0.3706 0.7473
C44_4 C 0.1996(6) 0.3474(4) 0.6642(15)
H58_3 H 0.1997 0.3300 0.6831
H59_4 H 0.1791 0.3437 0.6628
H60_4 H 0.2078 0.3509 0.6195
O8_5 O 0.61601(16) 0.54452(11) 0.8504(3)
O10_4 O 0.54109(15) 0.54115(10) 0.8547(3)
N7_5 N 0.58772(16) 0.56680(11) 0.9221(3)
N8_4 N 0.56409(17) 0.57181(12) 0.9419(3)
C48_5 C 0.63939(25) 0.56240(18) 0.8881(5)
C49_4 C 0.66684(28) 0.5633(2) 0.8727(5)
H68_4 H 0.6673 0.5509 0.8388
C50_4 C 0.6926(4) 0.5821(3) 0.9069(7)
H69_4 H 0.7109 0.5833 0.8949
C51_4 C 0.6919(4) 0.5992(3) 0.9585(7)
H70_4 H 0.7096 0.6120 0.9821
C52_5 C 0.6645(3) 0.5973(2) 0.9758(5)
C53_5 C 0.63886(23) 0.57990(17) 0.9396(4)
C54_5 C 0.61236(21) 0.58196(15) 0.9572(4)
C55_4 C 0.54148(23) 0.55726(16) 0.9044(4)
C56_4 C 0.51288(28) 0.5571(2) 0.9194(6)
H72_4 H 0.4990 0.5379 0.9406
H73_4 H 0.5174 0.5732 0.9517
C57_4 C 0.4976(3) 0.5614(2) 0.8624(7)
H74_4 H 0.4770 0.5564 0.8748
H75_4 H 0.4963 0.5482 0.8257
C58_4 C 0.5153(4) 0.5931(3) 0.8423(7)
H76_4 H 0.5349 0.5971 0.8255
H77_4 H 0.5189 0.6060 0.8812
C59_4 C 0.4997(6) 0.6011(5) 0.7897(9)
H78_4 H 0.4965 0.5881 0.7513
H79_4 H 0.4797 0.5958 0.8067
C60_4 C 0.5139(9) 0.6324(7) 0.7651(15)
H80_4 H 0.5345 0.6390 0.7500
H81_4 H 0.5149 0.6458 0.8010
C61_4 C 0.4935(9) 0.6342(7) 0.7022(17)
H82_4 H 0.4911 0.6192 0.6690
H83_4 H 0.4734 0.6285 0.7190
C62_4 C 0.5063(14) 0.6649(8) 0.667(3)
N11_3 N 0.59430(29) 0.57740(24) 0.7723(4)
H90_6 H 0.508494 0.681746 0.702244
H91_4 H 0.491225 0.663183 0.627665
H92_4 H 0.528147 0.671274 0.646436
H14_3 H 0.8264 0.7092 0.0225
C14_3 C 0.8268(7) 0.7495(5) 0.0448(11)
H15_3 H 0.8206 0.7623 0.0211
H16_3 H 0.8131 0.7405 0.0826
C15_3 C 0.8599(8) 0.7703(7) 0.0722(14)
H17_3 H 0.8736 0.7805 0.0350
H18_3 H 0.8667 0.7577 0.0948
C16_3 C 0.8611(8) 0.7928(7) 0.1185(16)
H19_3 H 0.8463 0.7828 0.1540
H20_3 H 0.8563 0.8067 0.0952
C17_3 C 0.8885(6) 0.8078(6) 0.1437(13)
H21_3 H 0.9030 0.8222 0.1118
H22_3 H 0.8956 0.7942 0.1591
C18_3 C 0.8838(12) 0.8216(11) 0.194(3)
H23_3 H 0.8782 0.8362 0.1776
H24_3 H 0.8677 0.8071 0.2228
C19_3 C 0.9139(11) 0.8375(10) 0.2303(19)
H25_3 H 0.9103 0.8361 0.2778
H26_3 H 0.9256 0.8280 0.2191
H27_3 H 0.9249 0.8586 0.2173
C28_4 C 0.7641(3) 0.5753(3) 0.0573(7)
H35_4 H 0.7524 0.5701 0.0963
C29_4 C 0.7947(3) 0.5878(3) 0.0615(6)
H36_4 H 0.8042 0.5904 0.1029
C30_4 C 0.8112(2) 0.5964(2) 0.0042(5)
H37_4 H 0.8324 0.6061 0.0071
N9_3 N 0.64977(16) 0.73904(18) 0.1057(4)
C63_5 C 0.6394(3) 0.7276(4) 0.0574(9)
H84_5 H 0.6220 0.7283 0.0452
C64_5 C 0.6481(4) 0.7127(4) 0.0126(12)
C65_3 C 0.6740(4) 0.7189(4) 0.0102(8)
C66_3 C 0.6903(3) 0.7306(3) 0.0746(9)
H86_3 H 0.7086 0.7311 0.0838
C67_3 C 0.6769(2) 0.7404(3) 0.1191(7)
H87_3 H 0.6865 0.7483 0.1600
N9_4 N 0.08926(24) 0.35023(16) 0.1057(4)
C63_6 C 0.0881(5) 0.3606(3) 0.0574(9)
H84_6 H 0.1062 0.3780 0.0452
C64_6 C 0.0645(6) 0.3519(4) 0.0126(12)
C65_4 C 0.0448(6) 0.3260(4) 0.0102(8)
C66_4 C 0.0402(4) 0.3097(3) 0.0746(9)
H86_4 H 0.0224 0.2914 0.0838
C67_4 C 0.0634(4) 0.3231(2) 0.1191(7)
H87_4 H 0.0617 0.3135 0.1600
Mn1_6 Mn 0.06684(2) 0.31120(2) 0.36664(6)
O1_5 O 0.03217(11) 0.28486(11) 0.3220(3)
O2_6 O 0.05897(9) 0.22993(9) 0.4235(3)
O3_6 O 0.10341(10) 0.33245(10) 0.4162(3)
N1_6 N 0.06967(11) 0.27771(12) 0.4032(3)
N2_6 N 0.09472(11) 0.28600(11) 0.4441(3)
N3_6 N 0.04324(14) 0.31823(14) 0.4536(4)
C1_5 C 0.01812(16) 0.25502(17) 0.3181(4)
C5_6 C 0.00760(18) 0.20569(17) 0.3505(5)
H4_6 H 0.0127 0.1933 0.3755
C6_6 C 0.02545(15) 0.23641(16) 0.3551(4)
C7_6 C 0.05236(14) 0.24819(15) 0.3965(4)
C8_6 C 0.11075(15) 0.31509(16) 0.4477(4)
C9_6 C 0.13820(17) 0.32950(18) 0.4883(4)
H5_5 H 0.1555 0.3416 0.4592
H6_6 H 0.1412 0.3136 0.5080
C10_5 C 0.1382(4) 0.3475(5) 0.5379(9)
H7_5 H 0.1414 0.3655 0.5139
H8_5 H 0.1573 0.3536 0.5606
C11_5 C 0.1201(4) 0.3456(4) 0.5873(9)
H9_5 H 0.0997 0.3356 0.5686
H10_6 H 0.1205 0.3313 0.6191
C12_5 C 0.1229(4) 0.3724(5) 0.6298(10)
H11_5 H 0.1199 0.3863 0.6015
H12_5 H 0.1073 0.3648 0.6644
C13_5 C 0.1564(4) 0.3903(4) 0.6639(9)
H13_5 H 0.1717 0.3989 0.6289
H14_4 H 0.1598 0.3758 0.6891
C14_4 C 0.1602(7) 0.4161(5) 0.7114(11)
H15_4 H 0.1540 0.4289 0.6877
H16_4 H 0.1465 0.4071 0.7492
C15_4 C 0.1933(8) 0.4369(7) 0.7388(14)
H17_4 H 0.2070 0.4471 0.7016
H18_4 H 0.2001 0.4243 0.7614
C16_4 C 0.1945(8) 0.4594(7) 0.7851(16)
H19_4 H 0.1797 0.4494 0.8206
H20_4 H 0.1897 0.4733 0.7618
C17_4 C 0.2219(6) 0.4744(6) 0.8103(13)
H21_4 H 0.2364 0.4888 0.7784
H22_4 H 0.2290 0.4608 0.8257
C18_4 C 0.2172(12) 0.4882(11) 0.860(3)
H23_4 H 0.2116 0.5028 0.8442
H24_4 H 0.2011 0.4737 0.8894
C19_4 C 0.2473(11) 0.5041(10) 0.8969(19)
H25_4 H 0.2437 0.5027 0.9444
H26_4 H 0.2590 0.4946 0.8857
H27_4 H 0.2583 0.5252 0.8839
C20_5 C 0.0590(2) 0.3430(3) 0.4863(6)
H28_5 H 0.0793 0.3557 0.4741
C21_5 C 0.0477(2) 0.3515(2) 0.5373(7)
H29_5 H 0.0605 0.3693 0.5611
C22_5 C 0.0186(2) 0.33518(19) 0.5545(6)
C23_6 C 0.0025(2) 0.3110(2) 0.5154(6)
C24_6 C 0.0162(2) 0.3034(2) 0.4662(5)
H31_6 H 0.0042 0.2860 0.4409
C25_4 C 0.0051(3) 0.3443(2) 0.6109(7)
H32_6 H 0.0023 0.3315 0.6496
Mn2_6 Mn 0.09852(2) 0.24513(2) 0.46306(6)
O4_6 O 0.08537(11) 0.23953(12) 0.5498(3)
O6_6 O 0.11858(9) 0.25210(10) 0.3790(2)
O7_6 O 0.09368(13) 0.20004(12) 0.4587(4)
N4_6 N 0.13963(12) 0.26299(12) 0.4932(3)
N6_6 N 0.11768(19) 0.18332(16) 0.5213(6)
C26_6 C 0.10014(18) 0.24518(17) 0.6064(5)
C27_6 C 0.0837(2) 0.2370(2) 0.6638(6)
H34_6 H 0.0626 0.2280 0.6616
C28_5 C 0.0975(3) 0.2419(3) 0.7239(7)
H35_5 H 0.0858 0.2367 0.7629
C29_5 C 0.1281(3) 0.2544(3) 0.7281(6)
H36_5 H 0.1376 0.2570 0.7695
C30_5 C 0.1446(2) 0.2630(2) 0.6708(5)
H37_5 H 0.1658 0.2727 0.6737
C31_6 C 0.13158(17) 0.25807(17) 0.6098(4)
C32_6 C 0.15110(16) 0.26764(16) 0.5522(4)
C33_6 C 0.14797(15) 0.26534(15) 0.3855(4)
C34_5 C 0.16616(15) 0.27072(16) 0.3258(4)
H38_5 H 0.1557 0.2732 0.2877
H39_5 H 0.1856 0.2894 0.3311
C35_5 C 0.17187(18) 0.24441(18) 0.3122(4)
H40_5 H 0.1526 0.2260 0.3032
H41_6 H 0.1808 0.2407 0.3517
C36_5 C 0.1927(2) 0.2509(2) 0.2541(5)
H42_5 H 0.1833 0.2535 0.2141
H43_5 H 0.2116 0.2698 0.2621
C37_5 C 0.2000(2) 0.2256(2) 0.2419(5)
H44_5 H 0.1814 0.2070 0.2301
H45_5 H 0.2078 0.2218 0.2830
C38_5 C 0.2229(3) 0.2335(2) 0.1872(6)
H46_5 H 0.2413 0.2523 0.1987
H47_5 H 0.2149 0.2369 0.1460
C39_5 C 0.2308(3) 0.2095(3) 0.1756(8)
H48_5 H 0.2124 0.1907 0.1639
H49_5 H 0.2385 0.2059 0.2171
C40_5 C 0.2534(3) 0.2165(3) 0.1231(8)
H50_5 H 0.2471 0.2234 0.0840
H51_5 H 0.2726 0.2334 0.1383
C41_5 C 0.2591(4) 0.1913(3) 0.1013(9)
H52_5 H 0.2406 0.1750 0.0815
H53_5 H 0.2639 0.1832 0.1404
C42_5 C 0.2841(4) 0.2015(4) 0.0524(8)
H54_5 H 0.2779 0.2068 0.0108
H55_5 H 0.3017 0.2197 0.0694
C43_5 C 0.2930(4) 0.1775(4) 0.0379(10)
H56_5 H 0.2758 0.1604 0.0164
H57_5 H 0.2961 0.1703 0.0806
H58_4 H 0.3367 0.2030 0.0164
C45_6 C 0.0979(4) 0.1880(3) 0.4926(10)
H61_6 H 0.0791 0.1743 0.5116
C46_6 C 0.1472(3) 0.1973(4) 0.5018(9)
H62_6 H 0.1592 0.2143 0.5308
H63_6 H 0.1545 0.1831 0.5041
H64_6 H 0.1488 0.2044 0.4565
C47_6 C 0.1088(3) 0.1675(3) 0.5804(8)
H65_6 H 0.0872 0.1537 0.5796
H66_6 H 0.1192 0.1562 0.5863
H67_6 H 0.1138 0.1816 0.6170
O8_6 O 0.12215(11) 0.40482(11) 0.1837(3)
O9_5 O 0.06751(10) 0.34815(10) 0.3370(3)
O10_5 O 0.12552(10) 0.33327(11) 0.1880(3)
N7_6 N 0.09987(11) 0.35425(12) 0.2554(3)
N8_5 N 0.09486(12) 0.32561(12) 0.2752(3)
C48_6 C 0.10427(18) 0.41032(17) 0.2214(5)
C49_5 C 0.1034(2) 0.43687(19) 0.2060(5)
H68_5 H 0.1158 0.4497 0.1721
C50_5 C 0.0846(3) 0.4438(2) 0.2402(7)
H69_5 H 0.0834 0.4609 0.2282
C51_5 C 0.0675(3) 0.4260(2) 0.2918(7)
H70_5 H 0.0547 0.4309 0.3154
C52_6 C 0.0694(2) 0.4005(2) 0.3091(5)
H71_5 H 0.0585 0.3889 0.3460
C53_6 C 0.08677(17) 0.39229(16) 0.2729(4)
C54_6 C 0.08471(15) 0.36373(15) 0.2905(4)
C55_5 C 0.10941(16) 0.31755(16) 0.2377(4)
C56_5 C 0.1096(2) 0.28911(19) 0.2527(6)
H72_5 H 0.1288 0.2944 0.2739
H73_5 H 0.0935 0.2775 0.2850
C57_5 C 0.1053(2) 0.2695(2) 0.1957(7)
H74_5 H 0.1103 0.2539 0.2081
H75_5 H 0.1185 0.2814 0.1590
C58_5 C 0.0736(3) 0.2555(3) 0.1756(7)
H76_5 H 0.0696 0.2711 0.1588
H77_5 H 0.0607 0.2462 0.2145
C59_5 C 0.0656(5) 0.2319(4) 0.1230(9)
H78_5 H 0.0786 0.2417 0.0846
H79_5 H 0.0709 0.2172 0.1400
C60_5 C 0.0343(7) 0.2148(5) 0.0984(15)
H80_5 H 0.0277 0.2288 0.0833
H81_5 H 0.0209 0.2024 0.1343
C61_5 C 0.0325(7) 0.1926(6) 0.0355(17)
H82_5 H 0.0475 0.2052 0.0023
H83_5 H 0.0382 0.1782 0.0523
C62_5 C 0.0018(8) 0.1747(11) 0.000(3)
C65_5 C 0.0074(4) 0.3855(4) 0.6768(8)
C66_5 C 0.0237(3) 0.3972(3) 0.7412(9)
H86_5 H 0.0420 0.3977 0.7504
C67_5 C 0.0103(2) 0.4070(3) 0.7857(7)
H87_5 H 0.0199 0.4149 0.8266
C68_4 C 0.0240(4) 0.3757(4) 0.6293(9)
H88_4 H 0.0298 0.3883 0.5894
H89_4 H 0.0425 0.3785 0.6506
Mn1_7 Mn 0.68880(2) 0.75563(3) 0.36664(6)
O1_6 O 0.71514(11) 0.74730(16) 0.3220(3)
O2_7 O 0.77007(9) 0.82903(13) 0.4235(3)
O3_7 O 0.66755(10) 0.77095(14) 0.4162(3)
N1_7 N 0.72229(12) 0.79195(16) 0.4032(3)
N2_7 N 0.71400(11) 0.80871(16) 0.4441(3)
N3_7 N 0.68177(14) 0.72500(20) 0.4536(4)
C1_6 C 0.74498(17) 0.76309(23) 0.3181(4)
C2_7 C 0.7590(2) 0.7528(3) 0.2761(6)
H1_7 H 0.7468 0.7365 0.2478
C3_7 C 0.7893(2) 0.7646(4) 0.2732(7)
H2_7 H 0.7978 0.7557 0.2464
C4_7 C 0.8074(2) 0.7902(3) 0.3113(7)
H3_7 H 0.8286 0.7993 0.3096
C5_7 C 0.79431(17) 0.80190(25) 0.3505(5)
H4_7 H 0.8067 0.8193 0.3755
C6_7 C 0.76359(16) 0.78903(22) 0.3551(4)
C7_7 C 0.75181(15) 0.80416(21) 0.3965(4)
C8_7 C 0.68491(16) 0.79565(22) 0.4477(4)
C9_7 C 0.67050(18) 0.80869(25) 0.4883(4)
H5_6 H 0.6584 0.8138 0.4592
H6_7 H 0.6864 0.8275 0.5080
C10_6 C 0.6525(5) 0.7906(6) 0.5379(9)
H7_6 H 0.6345 0.7758 0.5139
H8_6 H 0.6464 0.8036 0.5606
C11_6 C 0.6544(4) 0.7744(6) 0.5873(9)
H9_6 H 0.6644 0.7640 0.5686
H10_7 H 0.6687 0.7891 0.6191
C12_6 C 0.6276(5) 0.7504(6) 0.6298(10)
H11_6 H 0.6137 0.7335 0.6015
H12_6 H 0.6352 0.7424 0.6644
C13_6 C 0.6097(4) 0.7660(6) 0.6639(9)
H13_6 H 0.6011 0.7727 0.6289
H14_5 H 0.6242 0.7839 0.6891
C14_5 C 0.5839(5) 0.7440(9) 0.7114(11)
H15_5 H 0.5711 0.7250 0.6877
H16_5 H 0.5929 0.7393 0.7492
C15_5 C 0.5631(7) 0.7563(11) 0.7388(14)
H17_5 H 0.5529 0.7598 0.7016
H18_5 H 0.5757 0.7757 0.7614
C16_5 C 0.5406(7) 0.7350(11) 0.7851(16)
H19_5 H 0.5506 0.7302 0.8206
H20_5 H 0.5267 0.7163 0.7618
C17_5 C 0.5256(6) 0.7474(8) 0.8103(13)
H21_5 H 0.5112 0.7475 0.7784
H22_5 H 0.5392 0.7681 0.8257
C18_5 C 0.5118(11) 0.7289(16) 0.860(3)
H23_5 H 0.4972 0.7087 0.8442
H24_5 H 0.5263 0.7273 0.8894
C19_5 C 0.4959(10) 0.7431(15) 0.8969(19)
H25_5 H 0.4973 0.7409 0.9444
H26_5 H 0.5054 0.7643 0.8857
H27_5 H 0.4748 0.7330 0.8839
C20_6 C 0.6570(3) 0.7159(4) 0.4863(6)
H28_6 H 0.6443 0.7235 0.4741
C21_6 C 0.6485(2) 0.6961(3) 0.5373(7)
H29_6 H 0.6307 0.6911 0.5611
C22_6 C 0.66482(19) 0.68338(28) 0.5545(6)
C23_7 C 0.6890(2) 0.6914(3) 0.5154(6)
H30_8 H 0.7010 0.6824 0.5218
C24_7 C 0.6966(2) 0.7127(3) 0.4662(5)
H31_7 H 0.7140 0.7181 0.4409
C25_5 C 0.6557(2) 0.6607(4) 0.6109(7)
H32_7 H 0.6685 0.6707 0.6496
H33_6 H 0.6591 0.6442 0.5975
Mn2_7 Mn 0.75487(2) 0.85338(3) 0.46306(6)
O4_7 O 0.76047(12) 0.84583(16) 0.5498(3)
O6_7 O 0.74790(10) 0.86647(13) 0.3790(2)
O7_7 O 0.79996(12) 0.89363(18) 0.4587(4)
N4_7 N 0.73701(12) 0.87663(17) 0.4932(3)
N6_7 N 0.81668(16) 0.93435(25) 0.5213(6)
C26_7 C 0.75482(17) 0.85495(25) 0.6064(5)
C27_7 C 0.7630(2) 0.8466(3) 0.6638(6)
H34_7 H 0.7720 0.8345 0.6616
C28_6 C 0.7581(3) 0.8555(4) 0.7239(7)
H35_6 H 0.7633 0.8490 0.7629
C29_6 C 0.7456(3) 0.8736(4) 0.7281(6)
H36_6 H 0.7430 0.8805 0.7695
C30_6 C 0.7370(2) 0.8815(3) 0.6708(5)
H37_6 H 0.7273 0.8930 0.6737
C31_7 C 0.74193(17) 0.87350(24) 0.6098(4)
C32_7 C 0.73236(16) 0.88345(23) 0.5522(4)
C33_7 C 0.73466(15) 0.88262(21) 0.3855(4)
C34_6 C 0.72928(16) 0.89543(22) 0.3258(4)
H38_6 H 0.7268 0.8824 0.2877
H39_6 H 0.7106 0.8961 0.3311
C35_6 C 0.75559(18) 0.92745(25) 0.3122(4)
H40_6 H 0.7740 0.9265 0.3032
H41_7 H 0.7593 0.9400 0.3517
C36_6 C 0.7491(2) 0.9417(3) 0.2541(5)
H42_6 H 0.7465 0.9297 0.2141
H43_6 H 0.7302 0.9417 0.2621
C37_6 C 0.7744(2) 0.9743(3) 0.2419(5)
H44_6 H 0.7930 0.9743 0.2301
H45_6 H 0.7782 0.9859 0.2830
C38_6 C 0.7665(2) 0.9893(4) 0.1872(6)
H46_6 H 0.7477 0.9889 0.1987
H47_6 H 0.7631 0.9779 0.1460
C45_7 C 0.8120(3) 0.9098(5) 0.4926(10)
H61_7 H 0.8257 0.9047 0.5116
C46_7 C 0.8027(4) 0.9498(5) 0.5018(9)
H62_7 H 0.7857 0.9448 0.5308
H63_7 H 0.8169 0.9713 0.5041
H64_7 H 0.7956 0.9443 0.4565
C47_7 C 0.8325(3) 0.9412(4) 0.5804(8)
H65_7 H 0.8463 0.9334 0.5796
H66_7 H 0.8438 0.9629 0.5863
H67_7 H 0.8184 0.9321 0.6170
O8_7 O 0.59518(11) 0.71732(16) 0.1837(3)
O9_6 O 0.65185(10) 0.71935(14) 0.3370(3)
O10_6 O 0.66673(11) 0.79224(15) 0.1880(3)
N7_7 N 0.64575(12) 0.74561(16) 0.2554(3)
N8_6 N 0.67439(12) 0.76924(17) 0.2752(3)
C48_7 C 0.58968(17) 0.69394(25) 0.2214(5)
C49_6 C 0.56313(19) 0.66649(28) 0.2060(5)
H68_6 H 0.5503 0.6660 0.1721
C50_6 C 0.5562(2) 0.6407(4) 0.2402(7)
H69_6 H 0.5391 0.6224 0.2282
C51_6 C 0.5740(2) 0.6414(4) 0.2918(7)
H70_6 H 0.5691 0.6237 0.3154
C52_7 C 0.5995(2) 0.6688(3) 0.3091(5)
H71_6 H 0.6111 0.6695 0.3460
C53_7 C 0.60771(16) 0.69447(23) 0.2729(4)
C54_7 C 0.63627(15) 0.72097(21) 0.2905(4)
C55_6 C 0.68245(16) 0.79185(23) 0.2377(4)
C56_6 C 0.71089(19) 0.82045(28) 0.2527(6)
H72_6 H 0.7056 0.8343 0.2739
H73_6 H 0.7225 0.8159 0.2850
C57_6 C 0.7305(2) 0.8357(3) 0.1957(7)
H74_6 H 0.7461 0.8563 0.2081
H75_6 H 0.7186 0.8370 0.1590
C58_6 C 0.7445(3) 0.8180(4) 0.1756(7)
H76_6 H 0.7289 0.7984 0.1588
H77_6 H 0.7538 0.8144 0.2145
C59_6 C 0.7681(4) 0.8336(6) 0.1230(9)
H78_6 H 0.7583 0.8368 0.0846
H79_6 H 0.7828 0.8536 0.1400
C60_6 C 0.7852(5) 0.8194(9) 0.0984(15)
H80_6 H 0.7712 0.7988 0.0833
H81_6 H 0.7976 0.8184 0.1343
C61_6 C 0.8074(6) 0.8398(9) 0.0355(17)
H82_6 H 0.7948 0.8422 0.0023
H83_6 H 0.8218 0.8599 0.0523
C62_6 C 0.8253(11) 0.8270(14) 0.000(3)
C63_7 C 0.6058(4) 0.5785(5) 0.7240(9)
H84_7 H 0.6051 0.5604 0.7118
C64_7 C 0.6207(4) 0.6021(6) 0.6792(12)
H85_6 H 0.6356 0.6026 0.6509
C65_6 C 0.6145(4) 0.6218(6) 0.6768(8)
C66_6 C 0.6028(3) 0.6264(4) 0.7412(9)
H86_6 H 0.6023 0.6442 0.7504
C67_6 C 0.5930(3) 0.6032(4) 0.7857(7)
H87_6 H 0.5851 0.6049 0.8266
C68_5 C 0.6243(4) 0.6482(6) 0.6293(9)
H88_5 H 0.6117 0.6414 0.5894
H89_5 H 0.6215 0.6639 0.6506
H90_7 H 0.839919 0.824839 0.0355772
Mn3_2 Mn 0.03809(2) 0.57828(3) 0.15216(6)
O8_8 O 0.07149(11) 0.61601(16) 0.1496(3)
N7_8 N 0.02092(12) 0.58772(16) 0.0779(3)
C48_8 C 0.07699(17) 0.63939(25) 0.1119(5)
C49_7 C 0.10354(19) 0.66684(28) 0.1273(5)
H68_7 H 0.1164 0.6673 0.1612
C50_7 C 0.1105(2) 0.6926(4) 0.0931(7)
H69_7 H 0.1276 0.7109 0.1051
C51_7 C 0.0927(2) 0.6919(4) 0.0415(7)
H70_7 H 0.0976 0.7096 0.0179
C52_8 C 0.0672(2) 0.6645(3) 0.0242(5)
C53_8 C 0.05896(16) 0.63886(23) 0.0604(4)
C54_8 C 0.03040(15) 0.61236(21) 0.0428(4)
O11_4 O 0.05255(11) 0.56550(16) 0.2282(3)
N10_4 N 0.06108(12) 0.55524(17) 0.1088(3)
N11_4 N 0.01689(16) 0.59430(29) 0.2277(4)
C2_8 C 0.0061(2) 0.7590(2) 0.7239(6)
H1_8 H 0.0102 0.7468 0.7522
C3_8 C 0.0246(3) 0.7893(2) 0.7268(7)
H2_8 H 0.0420 0.7978 0.7536
C4_8 C 0.0171(2) 0.8074(2) 0.6887(7)
H3_8 H 0.0292 0.8286 0.6904
H30_9 H 0.0185 0.7010 0.4782
H33_7 H 0.0148 0.6591 0.4025
C63_8 C 0.0272(3) 0.6058(4) 0.2760(9)
H84_8 H 0.0446 0.6051 0.2882
C64_8 C 0.0185(4) 0.6207(4) 0.3208(12)
H85_7 H 0.0329 0.6356 0.3491
H90_8 H 0.0150793 0.839919 0.964423
Mn1_8 Mn 0.02213(2) 0.42230(3) 0.03331(6)
O2_8 O 0.10340(9) 0.49570(13) 0.0902(3)
O3_8 O 0.00088(10) 0.43762(14) 0.0829(3)
N1_8 N 0.05562(12) 0.45862(16) 0.0699(3)
N2_8 N 0.04733(11) 0.47538(16) 0.1108(3)
N3_8 N 0.01510(14) 0.39167(20) 0.1203(4)
C5_8 C 0.12764(17) 0.46857(25) 0.0172(5)
H4_8 H 0.1400 0.4860 0.0422
C6_8 C 0.09692(16) 0.45570(22) 0.0218(4)
C7_8 C 0.08514(15) 0.47083(21) 0.0632(4)
C8_8 C 0.01824(16) 0.46232(22) 0.1144(4)
C9_8 C 0.00383(18) 0.47536(25) 0.1550(4)
H6_8 H 0.0197 0.4942 0.1747
H10_8 H 0.0020 0.4558 0.2858
C23_8 C 0.0223(2) 0.3581(3) 0.1821(6)
H30_10 H 0.0343 0.3491 0.1885
C24_8 C 0.0299(2) 0.3794(3) 0.1329(5)
H31_8 H 0.0473 0.3848 0.1076
H32_8 H 0.0018 0.3374 0.3163
Mn2_8 Mn 0.08820(2) 0.52005(3) 0.12973(6)
O4_8 O 0.09380(12) 0.51250(16) 0.2165(3)
O6_8 O 0.08123(10) 0.53314(13) 0.0457(2)
O7_8 O 0.13329(12) 0.56030(18) 0.1254(4)
N4_8 N 0.07034(12) 0.54330(17) 0.1599(3)
N6_8 N 0.15001(16) 0.60102(25) 0.1880(6)
C26_8 C 0.08815(17) 0.52162(25) 0.2731(5)
C27_8 C 0.0963(2) 0.5133(3) 0.3305(6)
H34_8 H 0.1053 0.5012 0.3283
C28_7 C 0.0914(3) 0.5222(4) 0.3906(7)
H35_7 H 0.0966 0.5157 0.4296
C29_7 C 0.0789(3) 0.5403(4) 0.3948(6)
H36_7 H 0.0763 0.5472 0.4362
C30_7 C 0.0703(2) 0.5482(3) 0.3375(5)
H37_7 H 0.0606 0.5597 0.3404
C31_8 C 0.07526(17) 0.54017(24) 0.2765(4)
C32_8 C 0.06569(16) 0.55012(23) 0.2189(4)
C33_8 C 0.06799(15) 0.54929(21) 0.0522(4)
H41_8 H 0.0926 0.6067 0.0184
C45_8 C 0.1453(3) 0.5765(5) 0.1593(10)
H61_8 H 0.1590 0.5714 0.1783
C46_8 C 0.1360(4) 0.6165(5) 0.1685(9)
H62_8 H 0.1190 0.6115 0.1975
H63_8 H 0.1502 0.6380 0.1708
H64_8 H 0.1289 0.6110 0.1232
C47_8 C 0.1658(3) 0.6079(4) 0.2471(8)
H65_8 H 0.1796 0.6001 0.2463
H66_8 H 0.1771 0.6296 0.2530
H67_8 H 0.1517 0.5988 0.2837
H5_7 H 0.0083 0.5195 0.8741
C10_7 C 0.0142(5) 0.5427(6) 0.7954(9)
H7_7 H 0.0322 0.5575 0.8194
H8_7 H 0.0203 0.5297 0.7727
C11_7 C 0.0123(4) 0.5589(6) 0.7460(9)
H9_7 H 0.0023 0.5693 0.7647
C12_7 C 0.0391(5) 0.5829(6) 0.7035(10)
H11_7 H 0.0530 0.5998 0.7318
H12_7 H 0.0315 0.5909 0.6689
C13_7 C 0.0570(4) 0.5673(6) 0.6694(9)
H13_7 H 0.0656 0.5606 0.7044
H14_6 H 0.0425 0.5494 0.6442
C14_6 C 0.0828(5) 0.5893(9) 0.6219(11)
H15_6 H 0.0956 0.6083 0.6456
H16_6 H 0.0738 0.5940 0.5841
C15_6 C 0.1036(7) 0.5770(11) 0.5945(14)
H17_6 H 0.1138 0.5735 0.6317
H18_6 H 0.0910 0.5576 0.5719
C16_6 C 0.1261(7) 0.5983(11) 0.5482(16)
H19_6 H 0.1161 0.6031 0.5127
H20_6 H 0.1400 0.6170 0.5715
C17_6 C 0.1411(6) 0.5859(8) 0.5230(13)
H21_6 H 0.1555 0.5858 0.5549
H22_6 H 0.1275 0.5652 0.5076
C18_6 C 0.1549(11) 0.6044(16) 0.473(3)
H23_6 H 0.1695 0.6246 0.4891
H24_6 H 0.1404 0.6060 0.4439
C19_6 C 0.1708(10) 0.5902(15) 0.4364(19)
H25_6 H 0.1694 0.5924 0.3889
H26_6 H 0.1613 0.5690 0.4476
H27_6 H 0.1919 0.6003 0.4494
C20_7 C 0.0097(3) 0.6174(4) 0.8470(6)
H28_7 H 0.0224 0.6098 0.8592
C21_7 C 0.0182(2) 0.6372(3) 0.7960(7)
H29_7 H 0.0360 0.6422 0.7722
C22_7 C 0.00185(19) 0.64995(28) 0.7788(6)
C25_6 C 0.0110(2) 0.6726(4) 0.7224(7)
H33_8 H 0.0076 0.6891 0.7358
O9_7 O 0.01482(10) 0.61398(14) 0.9963(3)
N9_5 N 0.07237(18) 0.75593(24) 0.5610(4)
H71_7 H 0.0556 0.6638 0.9873
C63_9 C 0.0609(4) 0.7548(5) 0.6093(9)
H84_9 H 0.0616 0.7729 0.6215
C64_9 C 0.0460(4) 0.7312(6) 0.6541(12)
H85_8 H 0.0311 0.7307 0.6824
C65_7 C 0.0522(4) 0.7115(6) 0.6565(8)
C66_7 C 0.0639(3) 0.7069(4) 0.5921(9)
H86_7 H 0.0644 0.6891 0.5829
C67_7 C 0.0737(3) 0.7301(4) 0.5476(7)
H87_7 H 0.0816 0.7284 0.5067
C68_6 C 0.0424(4) 0.6851(6) 0.7040(9)
H88_6 H 0.0550 0.6919 0.7439
H89_6 H 0.0452 0.6694 0.6827
Mn5_3 Mn 0.08839(3) 0.79314(4) 0.48549(6)
Mn1_9 Mn 0.08897(3) 0.73350(2) 0.30002(6)
O1_7 O 0.08064(16) 0.69883(11) 0.3446(3)
O2_9 O 0.16237(13) 0.72563(9) 0.2431(3)
O3_9 O 0.10429(14) 0.77007(10) 0.2504(3)
N1_9 N 0.12529(16) 0.73633(11) 0.2634(3)
N2_9 N 0.14205(16) 0.76138(11) 0.2225(3)
N3_9 N 0.05834(20) 0.70990(14) 0.2130(4)
C1_7 C 0.09643(23) 0.68478(16) 0.3485(4)
C2_9 C 0.0862(3) 0.6605(2) 0.3905(6)
H1_9 H 0.0699 0.6564 0.4188
C3_9 C 0.0980(4) 0.6420(3) 0.3934(7)
H2_9 H 0.0891 0.6246 0.4202
C4_9 C 0.1236(3) 0.6495(2) 0.3553(7)
H3_9 H 0.1327 0.6374 0.3570
C5_9 C 0.13524(25) 0.67426(18) 0.3161(5)
H4_9 H 0.1527 0.6793 0.2911
C6_9 C 0.12237(22) 0.69211(15) 0.3115(4)
C7_9 C 0.13750(21) 0.71902(14) 0.2701(4)
C8_9 C 0.12899(22) 0.77741(15) 0.2189(4)
C9_9 C 0.14203(25) 0.80486(17) 0.1783(4)
H5_8 H 0.1472 0.8221 0.2074
H6_9 H 0.1609 0.8078 0.1586
C10_8 C 0.1240(6) 0.8048(4) 0.1287(9)
H7_8 H 0.1092 0.8080 0.1527
H8_8 H 0.1370 0.8239 0.1060
C11_8 C 0.1078(6) 0.7867(4) 0.0793(9)
H9_8 H 0.0974 0.7663 0.0980
H10_9 H 0.1225 0.7871 0.0475
C12_8 C 0.0838(6) 0.7895(4) 0.0368(10)
H11_8 H 0.0669 0.7865 0.0651
H12_8 H 0.0758 0.7739 0.0022
C13_8 C 0.0994(6) 0.8230(4) 0.0027(9)
H13_8 H 0.1061 0.8383 0.0377
C20_8 C 0.0493(4) 0.7256(2) 0.1803(6)
H28_8 H 0.0569 0.7459 0.1925
C21_8 C 0.0295(3) 0.7143(2) 0.1293(7)
H29_8 H 0.0245 0.7271 0.1055
C22_8 C 0.01672(28) 0.6852(2) 0.1121(6)
C23_9 C 0.0248(3) 0.6691(2) 0.1512(6)
H30_11 H 0.0158 0.6481 0.1448
C24_9 C 0.0461(3) 0.6828(2) 0.2004(5)
H31_9 H 0.0515 0.6708 0.2257
H32_9 H 0.0041 0.6689 0.0170
Mn2_9 Mn 0.18672(3) 0.76518(2) 0.20360(6)
O4_9 O 0.17917(16) 0.75203(11) 0.1168(3)
O5_5 O 0.23217(16) 0.84628(11) 0.1051(3)
O6_9 O 0.19981(13) 0.78524(9) 0.2876(2)
O7_9 O 0.22697(18) 0.76034(13) 0.2079(4)
N4_9 N 0.20997(17) 0.80629(12) 0.1734(3)
N5_5 N 0.22191(17) 0.82749(12) 0.2245(3)
N6_9 N 0.26769(25) 0.78434(19) 0.1453(6)
C26_9 C 0.18829(25) 0.76680(18) 0.0602(5)
C27_9 C 0.1800(3) 0.7503(2) 0.0028(6)
H34_9 H 0.1679 0.7292 0.0050
C31_9 C 0.20684(24) 0.79824(17) 0.0568(4)
C32_9 C 0.21679(23) 0.81776(16) 0.1144(4)
C33_9 C 0.21596(21) 0.81463(15) 0.2811(4)
C34_7 C 0.22877(22) 0.83282(15) 0.3408(4)
H38_7 H 0.2158 0.8223 0.3789
H39_7 H 0.2295 0.8522 0.3355
C35_7 C 0.26079(25) 0.83853(18) 0.3544(4)
H40_7 H 0.2599 0.8192 0.3634
H41_9 H 0.2734 0.8474 0.3149
C36_7 C 0.2751(3) 0.8593(2) 0.4125(5)
H42_7 H 0.2631 0.8499 0.4525
H43_7 H 0.2751 0.8782 0.4045
C37_7 C 0.3077(3) 0.8666(2) 0.4247(5)
H44_7 H 0.3077 0.8480 0.4365
H45_7 H 0.3193 0.8744 0.3836
C38_7 C 0.3227(4) 0.8895(3) 0.4794(6)
H46_7 H 0.3223 0.9079 0.4679
H47_7 H 0.3113 0.8815 0.5206
C39_6 C 0.3546(4) 0.8974(3) 0.4910(8)
H48_6 H 0.3550 0.8790 0.5027
H49_6 H 0.3659 0.9051 0.4495
C40_6 C 0.3702(4) 0.9200(3) 0.5435(8)
H50_6 H 0.3570 0.9137 0.5826
H51_6 H 0.3725 0.9392 0.5283
C41_6 C 0.4011(5) 0.9257(4) 0.5653(9)
H52_6 H 0.3989 0.9072 0.5851
H53_6 H 0.4140 0.9305 0.5262
C42_6 C 0.4159(6) 0.9507(4) 0.6142(8)
H54_6 H 0.4044 0.9445 0.6558
H55_6 H 0.4153 0.9683 0.5972
C43_6 C 0.4488(6) 0.9596(4) 0.6287(10)
H56_6 H 0.4487 0.9424 0.6502
H57_6 H 0.4591 0.9627 0.5860
C44_5 C 0.4671(6) 0.9859(4) 0.6691(15)
H59_5 H 0.4876 0.9896 0.6705
H60_5 H 0.4589 0.9824 0.7138
C45_9 C 0.2432(5) 0.7645(4) 0.1740(10)
H61_9 H 0.2381 0.7457 0.1550
C46_9 C 0.2832(5) 0.8138(3) 0.1648(9)
H62_9 H 0.2782 0.8258 0.1358
H63_9 H 0.3047 0.8211 0.1625
H64_9 H 0.2777 0.8154 0.2101
C47_9 C 0.2746(4) 0.7754(3) 0.0862(8)
H65_9 H 0.2668 0.7538 0.0870
H66_9 H 0.2963 0.7858 0.0803
H67_9 H 0.2655 0.7804 0.0496
O8_9 O 0.05066(16) 0.78881(11) 0.4829(3)
O9_8 O 0.05269(14) 0.73417(10) 0.3296(3)
O10_7 O 0.12558(15) 0.79218(10) 0.4786(3)
N7_9 N 0.07895(16) 0.76653(11) 0.4112(3)
N8_7 N 0.10258(17) 0.76152(12) 0.3914(3)
C48_9 C 0.02728(25) 0.77093(18) 0.4452(5)
C52_9 C 0.0022(3) 0.7360(2) 0.3575(5)
H71_8 H 0.0029 0.7251 0.3206
C53_9 C 0.02781(23) 0.75343(17) 0.3937(4)
C54_9 C 0.05431(21) 0.75137(15) 0.3761(4)
C55_7 C 0.12519(23) 0.77607(16) 0.4289(4)
C56_7 C 0.15379(28) 0.7762(2) 0.4139(6)
H72_7 H 0.1677 0.7954 0.3927
H73_7 H 0.1493 0.7601 0.3816
C57_7 C 0.1691(3) 0.7719(2) 0.4709(7)
H74_7 H 0.1897 0.7769 0.4585
H75_7 H 0.1704 0.7851 0.5076
C58_7 C 0.1514(4) 0.7402(3) 0.4910(7)
H76_7 H 0.1318 0.7362 0.5078
H77_7 H 0.1478 0.7273 0.4521
C59_7 C 0.1670(6) 0.7322(5) 0.5436(9)
H78_7 H 0.1702 0.7452 0.5820
H79_7 H 0.1870 0.7375 0.5266
C60_7 C 0.1528(9) 0.7009(7) 0.5682(15)
H80_7 H 0.1322 0.6943 0.5833
H81_7 H 0.1518 0.6875 0.5323
C61_7 C 0.1732(9) 0.6991(7) 0.6311(17)
H82_7 H 0.1756 0.7141 0.6643
H83_7 H 0.1933 0.7048 0.6143
C62_7 C 0.1604(14) 0.6684(8) 0.666(3)
O11_5 O 0.10117(16) 0.82038(11) 0.5615(3)
N10_5 N 0.11143(17) 0.83917(12) 0.4421(3)
Mn4_5 Mn 0.24495(3) 0.87352(2) 0.18117(6)
H90_9 H 0.158173 0.651587 0.631089
H91_5 H 0.175442 0.67015 0.705668
H92_5 H 0.13852 0.662059 0.686897
N9_6 N 0.26096(18) 0.91074(24) 0.1057(4)
C63_10 C 0.2724(4) 0.9119(5) 0.0574(9)
H84_10 H 0.2717 0.8938 0.0452
C64_10 C 0.2873(4) 0.9355(6) 0.0126(12)
C65_8 C 0.2811(4) 0.9552(6) 0.0102(8)
C66_8 C 0.2694(3) 0.9598(4) 0.0746(9)
H86_8 H 0.2689 0.9776 0.0838
C67_8 C 0.2596(3) 0.9366(4) 0.1191(7)
H87_8 H 0.2517 0.9383 0.1600
Mn1_10 Mn 0.24437(3) 0.93316(2) 0.36664(6)
O1_8 O 0.25270(16) 0.96783(11) 0.3220(3)
O2_10 O 0.17097(13) 0.94103(9) 0.4235(3)
O3_10 O 0.22905(14) 0.89659(10) 0.4162(3)
N1_10 N 0.20805(16) 0.93033(11) 0.4032(3)
N2_10 N 0.19129(16) 0.90528(11) 0.4441(3)
N3_10 N 0.27500(20) 0.95676(14) 0.4536(4)
C1_8 C 0.23691(23) 0.98188(16) 0.3181(4)
C5_10 C 0.19810(25) 0.99240(18) 0.3505(5)
H4_10 H 0.1807 0.9873 0.3755
C6_10 C 0.21097(22) 0.97455(15) 0.3551(4)
C7_10 C 0.19584(21) 0.94764(14) 0.3965(4)
C8_10 C 0.20435(22) 0.88925(15) 0.4477(4)
C9_10 C 0.19131(25) 0.86180(17) 0.4883(4)
H5_9 H 0.1862 0.8445 0.4592
H6_10 H 0.1725 0.8588 0.5080
C10_9 C 0.2094(6) 0.8618(4) 0.5379(9)
H7_9 H 0.2242 0.8586 0.5139
H8_9 H 0.1964 0.8427 0.5606
C11_9 C 0.2256(6) 0.8799(4) 0.5873(9)
H9_9 H 0.2360 0.9003 0.5686
H10_10 H 0.2109 0.8795 0.6191
C12_9 C 0.2496(6) 0.8771(4) 0.6298(10)
H11_9 H 0.2665 0.8801 0.6015
H12_9 H 0.2576 0.8927 0.6644
C13_9 C 0.2340(6) 0.8436(4) 0.6639(9)
H13_9 H 0.2273 0.8283 0.6289
H14_7 H 0.2161 0.8402 0.6891
C14_7 C 0.2560(9) 0.8398(7) 0.7114(11)
H15_7 H 0.2750 0.8460 0.6877
H16_7 H 0.2607 0.8535 0.7492
C15_7 C 0.2437(11) 0.8067(8) 0.7388(14)
H17_7 H 0.2402 0.7930 0.7016
H18_7 H 0.2243 0.7999 0.7614
C16_7 C 0.2650(11) 0.8055(8) 0.7851(16)
H19_7 H 0.2698 0.8203 0.8206
H20_7 H 0.2837 0.8103 0.7618
C17_7 C 0.2526(8) 0.7781(6) 0.8103(13)
H21_7 H 0.2525 0.7636 0.7784
H22_7 H 0.2319 0.7710 0.8257
C18_7 C 0.2711(16) 0.7828(12) 0.860(3)
H23_7 H 0.2913 0.7884 0.8442
H24_7 H 0.2727 0.7989 0.8894
C19_7 C 0.2569(15) 0.7527(11) 0.8969(19)
H25_7 H 0.2591 0.7563 0.9444
H26_7 H 0.2357 0.7410 0.8857
H27_7 H 0.2670 0.7417 0.8839
C20_9 C 0.2841(4) 0.9410(2) 0.4863(6)
H28_9 H 0.2765 0.9207 0.4741
C21_9 C 0.3039(3) 0.9523(2) 0.5373(7)
H29_9 H 0.3089 0.9395 0.5611
C22_9 C 0.31662(28) 0.9814(2) 0.5545(6)
C23_10 C 0.3086(3) 0.9975(2) 0.5154(6)
C24_10 C 0.2873(3) 0.9838(2) 0.4662(5)
H31_10 H 0.2819 0.9958 0.4409
C25_7 C 0.3393(4) 0.9949(3) 0.6109(7)
H32_10 H 0.3293 0.9977 0.6496
Mn2_10 Mn 0.14662(3) 0.90148(2) 0.46306(6)
O4_10 O 0.15417(16) 0.91463(11) 0.5498(3)
O6_10 O 0.13353(13) 0.88142(9) 0.3790(2)
O7_10 O 0.10637(18) 0.90632(13) 0.4587(4)
N4_10 N 0.12337(17) 0.86037(12) 0.4932(3)
N6_10 N 0.06565(25) 0.88232(19) 0.5213(6)
C26_10 C 0.14505(25) 0.89986(18) 0.6064(5)
C27_10 C 0.1534(3) 0.9163(2) 0.6638(6)
H34_10 H 0.1655 0.9374 0.6616
C28_8 C 0.1445(4) 0.9025(3) 0.7239(7)
H35_8 H 0.1510 0.9142 0.7629
C29_8 C 0.1264(4) 0.8719(3) 0.7281(6)
H36_8 H 0.1195 0.8624 0.7695
C30_8 C 0.1185(3) 0.8554(2) 0.6708(5)
H37_8 H 0.1070 0.8342 0.6737
C31_10 C 0.12650(24) 0.86842(17) 0.6098(4)
C32_10 C 0.11655(23) 0.84890(16) 0.5522(4)
C33_10 C 0.11738(21) 0.85203(15) 0.3855(4)
C34_8 C 0.10457(22) 0.83384(15) 0.3258(4)
H38_8 H 0.1176 0.8443 0.2877
H39_8 H 0.1039 0.8144 0.3311
C35_8 C 0.07255(25) 0.82813(18) 0.3122(4)
H40_8 H 0.0735 0.8474 0.3032
H41_10 H 0.0600 0.8192 0.3517
C36_8 C 0.0583(3) 0.8073(2) 0.2541(5)
H42_8 H 0.0703 0.8167 0.2141
H43_8 H 0.0583 0.7884 0.2621
C37_8 C 0.0257(3) 0.8000(2) 0.2419(5)
H44_8 H 0.0257 0.8186 0.2301
H45_8 H 0.0141 0.7922 0.2830
C38_8 C 0.0107(4) 0.7771(3) 0.1872(6)
H46_8 H 0.0111 0.7587 0.1987
H47_8 H 0.0221 0.7851 0.1460
C45_10 C 0.0902(5) 0.9021(4) 0.4926(10)
H61_10 H 0.0953 0.9209 0.5116
C46_10 C 0.0502(5) 0.8528(3) 0.5018(9)
H62_10 H 0.0552 0.8408 0.5308
H63_10 H 0.0287 0.8455 0.5041
H64_10 H 0.0557 0.8512 0.4565
C47_10 C 0.0588(4) 0.8912(3) 0.5804(8)
H65_10 H 0.0666 0.9128 0.5796
H66_10 H 0.0371 0.8808 0.5863
H67_10 H 0.0679 0.8862 0.6170
O8_10 O 0.28268(16) 0.87785(11) 0.1837(3)
O9_9 O 0.28065(14) 0.93249(10) 0.3370(3)
O10_8 O 0.20776(15) 0.87448(10) 0.1880(3)
N7_10 N 0.25439(16) 0.90013(11) 0.2554(3)
N8_8 N 0.23076(17) 0.90514(12) 0.2752(3)
C48_10 C 0.30606(25) 0.89573(18) 0.2214(5)
C49_8 C 0.33351(28) 0.8966(2) 0.2060(5)
H68_8 H 0.3340 0.8842 0.1721
C50_8 C 0.3593(4) 0.9154(3) 0.2402(7)
H69_8 H 0.3776 0.9166 0.2282
C51_8 C 0.3586(4) 0.9325(3) 0.2918(7)
H70_8 H 0.3763 0.9453 0.3154
C52_10 C 0.3312(3) 0.9306(2) 0.3091(5)
H71_9 H 0.3305 0.9415 0.3460
C53_10 C 0.30553(23) 0.91323(17) 0.2729(4)
C54_10 C 0.27903(21) 0.91529(15) 0.2905(4)
C55_8 C 0.20815(23) 0.89059(16) 0.2377(4)
C56_8 C 0.17955(28) 0.8904(2) 0.2527(6)
H72_8 H 0.1657 0.8712 0.2739
H73_8 H 0.1841 0.9065 0.2850
C57_8 C 0.1643(3) 0.8947(2) 0.1957(7)
H74_8 H 0.1437 0.8897 0.2081
H75_8 H 0.1630 0.8815 0.1590
C58_8 C 0.1820(4) 0.9264(3) 0.1756(7)
H76_8 H 0.2016 0.9304 0.1588
H77_8 H 0.1856 0.9393 0.2145
C59_8 C 0.1664(6) 0.9344(5) 0.1230(9)
H78_8 H 0.1632 0.9214 0.0846
H79_8 H 0.1464 0.9291 0.1400
C60_8 C 0.1806(9) 0.9657(7) 0.0984(15)
H80_8 H 0.2012 0.9723 0.0833
H81_8 H 0.1816 0.9791 0.1343
C61_8 C 0.1602(9) 0.9675(7) 0.0355(17)
H82_8 H 0.1578 0.9525 0.0023
H83_8 H 0.1401 0.9618 0.0523
C62_8 C 0.1730(14) 0.9982(8) 0.000(3)
C65_9 C 0.3782(6) 0.9926(4) 0.6768(8)
C66_9 C 0.3736(4) 0.9763(3) 0.7412(9)
H86_9 H 0.3558 0.9580 0.7504
C67_9 C 0.3968(4) 0.9897(2) 0.7857(7)
H87_9 H 0.3951 0.9801 0.8266
C68_7 C 0.3518(6) 0.9760(4) 0.6293(9)
H88_7 H 0.3586 0.9702 0.5894
H89_7 H 0.3361 0.9575 0.6506
O1_9 O 0.95153(11) 0.58603(16) 0.0113(3)
C1_9 C 0.92169(17) 0.57024(23) 0.0152(4)
C2_10 C 0.9077(2) 0.5805(3) 0.0572(6)
H1_10 H 0.9199 0.5968 0.0855
C3_10 C 0.8774(2) 0.5687(4) 0.0601(7)
H2_10 H 0.8689 0.5776 0.0869
C4_10 C 0.8593(2) 0.5431(3) 0.0220(7)
H3_10 H 0.8381 0.5340 0.0237
C34_9 C 0.93739(16) 0.43790(22) 0.0075(4)
H38_9 H 0.9399 0.4509 0.0456
H39_9 H 0.9561 0.4372 0.0022
C35_9 C 0.91108(18) 0.40588(25) 0.0211(4)
H40_9 H 0.8927 0.4068 0.0301
C36_9 C 0.9176(2) 0.3916(3) 0.0792(5)
H42_9 H 0.9202 0.4036 0.1192
H43_9 H 0.9365 0.3916 0.0712
C37_9 C 0.8923(2) 0.3590(3) 0.0914(5)
H44_9 H 0.8737 0.3590 0.1032
H45_9 H 0.8885 0.3474 0.0503
C38_9 C 0.9002(2) 0.3440(4) 0.1461(6)
H46_9 H 0.9190 0.3444 0.1346
H47_9 H 0.9036 0.3554 0.1873
C39_7 C 0.8762(3) 0.3121(4) 0.1577(8)
H48_7 H 0.8574 0.3117 0.1694
H49_7 H 0.8726 0.3008 0.1162
C40_7 C 0.8832(3) 0.2965(4) 0.2102(8)
H50_7 H 0.8901 0.3097 0.2493
H51_7 H 0.9001 0.2942 0.1950
C41_7 C 0.8580(3) 0.2656(5) 0.2320(9)
H52_7 H 0.8417 0.2678 0.2518
H53_7 H 0.8499 0.2527 0.1929
C42_7 C 0.8682(4) 0.2508(6) 0.2809(8)
H54_7 H 0.8735 0.2623 0.3225
H55_7 H 0.8864 0.2514 0.2639
C43_7 C 0.8442(4) 0.2179(6) 0.2954(10)
H56_7 H 0.8271 0.2180 0.3169
H57_7 H 0.8370 0.2076 0.2527
C44_6 C 0.8522(5) 0.1996(6) 0.3358(15)
H58_5 H 0.8697 0.1997 0.3169
H59_6 H 0.8354 0.1791 0.3372
H60_6 H 0.8569 0.2078 0.3805
O10_9 O 0.99994(11) 0.54109(15) 0.1453(3)
N8_9 N 0.99228(12) 0.56409(17) 0.0581(3)
C55_9 C 0.98422(16) 0.54148(23) 0.0956(4)
C56_9 C 0.95578(19) 0.51288(28) 0.0806(6)
H72_9 H 0.9611 0.4990 0.0594
H73_9 H 0.9442 0.5174 0.0483
C57_9 C 0.9362(2) 0.4976(3) 0.1376(7)
H74_9 H 0.9206 0.4770 0.1252
H75_9 H 0.9481 0.4963 0.1743
C58_9 C 0.9222(3) 0.5153(4) 0.1577(7)
H76_9 H 0.9378 0.5349 0.1745
H77_9 H 0.9129 0.5189 0.1188
C59_9 C 0.8986(4) 0.4997(6) 0.2103(9)
H78_9 H 0.9084 0.4965 0.2487
H79_9 H 0.8839 0.4797 0.1933
C60_9 C 0.8815(5) 0.5139(9) 0.2349(15)
H80_9 H 0.8955 0.5345 0.2500
H81_9 H 0.8691 0.5149 0.1990
C61_9 C 0.8593(6) 0.4935(9) 0.2978(17)
H82_9 H 0.8719 0.4911 0.3310
H83_9 H 0.8449 0.4734 0.2810
C62_9 C 0.8414(11) 0.5063(14) 0.333(3)
H90_10 H 0.826748 0.508494 0.297756
H91_6 H 0.828041 0.491225 0.372335
H92_6 H 0.856873 0.528147 0.353564
Mn1_11 Mn 0.97787(2) 0.57770(3) 0.96669(6)
O2_11 O 0.89660(9) 0.50430(13) 0.9098(3)
O3_11 O 0.99912(10) 0.56238(14) 0.9171(3)
N1_11 N 0.94438(12) 0.54138(16) 0.9301(3)
N2_11 N 0.95267(11) 0.52462(16) 0.8892(3)
N3_11 N 0.98490(14) 0.60833(20) 0.8797(4)
C5_11 C 0.87236(17) 0.53143(25) 0.9828(5)
H4_11 H 0.8600 0.5140 0.9578
C6_11 C 0.90308(16) 0.54430(22) 0.9782(4)
C7_11 C 0.91486(15) 0.52917(21) 0.9368(4)
C8_11 C 0.98176(16) 0.53768(22) 0.8856(4)
C9_11 C 0.99617(18) 0.52464(25) 0.8450(4)
H6_11 H 0.9803 0.5058 0.8253
H10_11 H 0.9980 0.5442 0.7142
C23_11 C 0.9777(2) 0.6419(3) 0.8179(6)
H30_12 H 0.9657 0.6509 0.8115
C24_11 C 0.9701(2) 0.6206(3) 0.8671(5)
H31_11 H 0.9527 0.6152 0.8924
H32_11 H 0.9982 0.6626 0.6837
Mn2_11 Mn 0.91180(2) 0.47995(3) 0.87027(6)
O4_11 O 0.90620(12) 0.48750(16) 0.7835(3)
O5_6 O 0.94745(11) 0.43450(16) 0.7718(3)
O6_11 O 0.91877(10) 0.46686(13) 0.9543(2)
O7_11 O 0.86671(12) 0.43970(18) 0.8746(4)
N4_11 N 0.92966(12) 0.45670(17) 0.8401(3)
N5_6 N 0.93892(12) 0.44476(17) 0.8912(3)
N6_11 N 0.84999(16) 0.39898(25) 0.8120(6)
C26_11 C 0.91185(17) 0.47838(25) 0.7269(5)
C27_11 C 0.9037(2) 0.4867(3) 0.6695(6)
H34_11 H 0.8947 0.4988 0.6717
C28_9 C 0.9086(3) 0.4778(4) 0.6094(7)
H35_9 H 0.9034 0.4843 0.5704
C29_9 C 0.9211(3) 0.4597(4) 0.6052(6)
H36_9 H 0.9237 0.4528 0.5638
C30_9 C 0.9297(2) 0.4518(3) 0.6625(5)
H37_9 H 0.9394 0.4403 0.6596
C31_11 C 0.92474(17) 0.45983(24) 0.7235(4)
C32_11 C 0.93431(16) 0.44988(23) 0.7811(4)
C33_11 C 0.93201(15) 0.45071(21) 0.9478(4)
H41_11 H 0.9074 0.3933 0.9816
C45_11 C 0.8547(3) 0.4235(5) 0.8407(10)
H61_11 H 0.8410 0.4286 0.8217
C46_11 C 0.8640(4) 0.3835(5) 0.8315(9)
H62_11 H 0.8810 0.3885 0.8025
H63_11 H 0.8498 0.3620 0.8292
H64_11 H 0.8711 0.3890 0.8768
C47_11 C 0.8342(3) 0.3921(4) 0.7529(8)
H65_11 H 0.8204 0.3999 0.7537
H66_11 H 0.8229 0.3704 0.7470
H67_11 H 0.8483 0.4012 0.7163
Mn4_6 Mn 0.96191(2) 0.42172(3) 0.84784(6)
O8_11 O 0.92851(11) 0.38399(16) 0.8504(3)
N7_11 N 0.97908(12) 0.41228(16) 0.9221(3)
C48_11 C 0.92301(17) 0.36061(25) 0.8881(5)
C49_9 C 0.89646(19) 0.33316(28) 0.8727(5)
H68_9 H 0.8836 0.3327 0.8388
C50_9 C 0.8895(2) 0.3074(4) 0.9069(7)
H69_9 H 0.8724 0.2891 0.8949
C51_9 C 0.9073(2) 0.3081(4) 0.9585(7)
H70_9 H 0.9024 0.2904 0.9821
C52_11 C 0.9328(2) 0.3355(3) 0.9758(5)
C53_11 C 0.94104(16) 0.36114(23) 0.9396(4)
C54_11 C 0.96960(15) 0.38764(21) 0.9572(4)
N11_5 N 0.98311(16) 0.40570(29) 0.7723(4)
C2_11 C 0.9939(2) 0.2410(2) 0.2761(6)
H1_11 H 0.9898 0.2532 0.2478
C3_11 C 0.9754(3) 0.2107(2) 0.2732(7)
H2_11 H 0.9580 0.2022 0.2464
C4_11 C 0.9829(2) 0.1926(2) 0.3113(7)
H3_11 H 0.9708 0.1714 0.3096
H30_13 H 0.9815 0.2990 0.5218
H33_9 H 0.9852 0.3409 0.5975
C63_11 C 0.9728(3) 0.3942(4) 0.7240(9)
H84_11 H 0.9554 0.3949 0.7118
C64_11 C 0.9815(4) 0.3793(4) 0.6792(12)
H85_9 H 0.9671 0.3644 0.6509
H90_11 H 0.984921 0.160081 0.0355772
O1_10 O 0.41397(16) 0.36550(11) 0.0113(3)
C1_10 C 0.42976(23) 0.35145(16) 0.0152(4)
C2_12 C 0.4195(3) 0.3272(2) 0.0572(6)
H1_12 H 0.4032 0.3231 0.0855
C3_12 C 0.4313(4) 0.3087(3) 0.0601(7)
H2_12 H 0.4224 0.2913 0.0869
C4_12 C 0.4569(3) 0.3162(2) 0.0220(7)
H3_12 H 0.4660 0.3041 0.0237
C34_10 C 0.56210(22) 0.49949(15) 0.0075(4)
H38_10 H 0.5491 0.4890 0.0456
H39_10 H 0.5628 0.5189 0.0022
C35_10 C 0.59412(25) 0.50520(18) 0.0211(4)
H40_10 H 0.5932 0.4859 0.0301
C36_10 C 0.6084(3) 0.5260(2) 0.0792(5)
H42_10 H 0.5964 0.5166 0.1192
H43_10 H 0.6084 0.5449 0.0712
C37_10 C 0.6410(3) 0.5333(2) 0.0914(5)
H44_10 H 0.6410 0.5147 0.1032
H45_10 H 0.6526 0.5411 0.0503
C38_10 C 0.6560(4) 0.5562(3) 0.1461(6)
H46_10 H 0.6556 0.5746 0.1346
H47_10 H 0.6446 0.5482 0.1873
C39_8 C 0.6879(4) 0.5641(3) 0.1577(8)
H48_8 H 0.6883 0.5457 0.1694
H49_8 H 0.6992 0.5718 0.1162
C40_8 C 0.7035(4) 0.5867(3) 0.2102(8)
H50_8 H 0.6903 0.5804 0.2493
H51_8 H 0.7058 0.6059 0.1950
C41_8 C 0.7344(5) 0.5924(4) 0.2320(9)
H52_8 H 0.7322 0.5739 0.2518
H53_8 H 0.7473 0.5972 0.1929
C42_8 C 0.7492(6) 0.6174(4) 0.2809(8)
H54_8 H 0.7377 0.6112 0.3225
H55_8 H 0.7486 0.6350 0.2639
C43_8 C 0.7821(6) 0.6263(4) 0.2954(10)
H56_8 H 0.7820 0.6091 0.3169
H57_8 H 0.7924 0.6294 0.2527
C44_7 C 0.8004(6) 0.6526(4) 0.3358(15)
H58_6 H 0.8003 0.6700 0.3169
H59_7 H 0.8209 0.6563 0.3372
H60_7 H 0.7922 0.6491 0.3805
Mn3_3 Mn 0.42172(3) 0.45981(2) 0.15216(6)
O8_12 O 0.38399(16) 0.45548(11) 0.1496(3)
O10_10 O 0.45891(15) 0.45885(10) 0.1453(3)
N7_12 N 0.41228(16) 0.43320(11) 0.0779(3)
N8_10 N 0.43591(17) 0.42819(12) 0.0581(3)
C48_12 C 0.36061(25) 0.43760(18) 0.1119(5)
C49_10 C 0.33316(28) 0.4367(2) 0.1273(5)
H68_10 H 0.3327 0.4491 0.1612
C50_10 C 0.3074(4) 0.4179(3) 0.0931(7)
H69_10 H 0.2891 0.4167 0.1051
C51_10 C 0.3081(4) 0.4008(3) 0.0415(7)
H70_10 H 0.2904 0.3880 0.0179
C52_12 C 0.3355(3) 0.4027(2) 0.0242(5)
C53_12 C 0.36114(23) 0.42010(17) 0.0604(4)
C54_12 C 0.38764(21) 0.41804(15) 0.0428(4)
C55_10 C 0.45852(23) 0.44274(16) 0.0956(4)
C56_10 C 0.48712(28) 0.4429(2) 0.0806(6)
H72_10 H 0.5010 0.4621 0.0594
H73_10 H 0.4826 0.4268 0.0483
C57_10 C 0.5024(3) 0.4386(2) 0.1376(7)
H74_10 H 0.5230 0.4436 0.1252
H75_10 H 0.5037 0.4518 0.1743
C58_10 C 0.4847(4) 0.4069(3) 0.1577(7)
H76_10 H 0.4651 0.4029 0.1745
H77_10 H 0.4811 0.3940 0.1188
C59_10 C 0.5003(6) 0.3989(5) 0.2103(9)
H78_10 H 0.5035 0.4119 0.2487
H79_10 H 0.5203 0.4042 0.1933
C60_10 C 0.4861(9) 0.3676(7) 0.2349(15)
H80_10 H 0.4655 0.3610 0.2500
H81_10 H 0.4851 0.3542 0.1990
C61_10 C 0.5065(9) 0.3658(7) 0.2978(17)
H82_10 H 0.5089 0.3808 0.3310
H83_10 H 0.5266 0.3715 0.2810
C62_10 C 0.4937(14) 0.3351(8) 0.333(3)
O11_6 O 0.43450(16) 0.48705(11) 0.2282(3)
N10_6 N 0.44476(17) 0.50584(12) 0.1088(3)
N11_6 N 0.40570(29) 0.42260(24) 0.2277(4)
H90_12 H 0.491506 0.318254 0.297756
H91_7 H 0.508775 0.336817 0.372335
H92_7 H 0.471853 0.328726 0.353564
H14_8 H 0.1736 0.2908 0.9775
C14_8 C 0.1732(7) 0.2505(5) 0.9552(11)
H15_8 H 0.1794 0.2377 0.9789
H16_8 H 0.1869 0.2595 0.9174
C15_8 C 0.1401(8) 0.2297(7) 0.9278(14)
H17_8 H 0.1264 0.2195 0.9650
H18_8 H 0.1333 0.2423 0.9052
C16_8 C 0.1389(8) 0.2072(7) 0.8815(16)
H19_8 H 0.1537 0.2172 0.8460
H20_8 H 0.1437 0.1933 0.9048
C17_8 C 0.1115(6) 0.1922(6) 0.8563(13)
H21_8 H 0.0970 0.1778 0.8882
H22_8 H 0.1044 0.2058 0.8409
C18_8 C 0.1162(12) 0.1784(11) 0.806(3)
H23_8 H 0.1218 0.1638 0.8224
H24_8 H 0.1323 0.1929 0.7772
C19_8 C 0.0861(11) 0.1625(10) 0.7697(19)
H25_8 H 0.0897 0.1639 0.7222
H26_8 H 0.0744 0.1720 0.7809
H27_8 H 0.0751 0.1414 0.7827
C28_10 C 0.2359(3) 0.4247(3) 0.9427(7)
H35_10 H 0.2476 0.4299 0.9037
C29_10 C 0.2053(3) 0.4122(3) 0.9385(6)
H36_10 H 0.1958 0.4096 0.8971
C30_10 C 0.1888(2) 0.4036(2) 0.9958(5)
H37_10 H 0.1676 0.3939 0.9929
N9_7 N 0.35023(16) 0.26096(18) 0.8943(4)
C63_12 C 0.3606(3) 0.2724(4) 0.9426(9)
H84_12 H 0.3780 0.2717 0.9548
C64_12 C 0.3519(4) 0.2873(4) 0.9874(12)
C65_10 C 0.3260(4) 0.2811(4) 0.9898(8)
C66_10 C 0.3097(3) 0.2694(3) 0.9254(9)
H86_10 H 0.2914 0.2689 0.9162
C67_10 C 0.3231(2) 0.2596(3) 0.8809(7)
H87_10 H 0.3135 0.2517 0.8400
Mn5_4 Mn 0.37142(2) 0.24495(3) 0.81883(6)
N9_8 N 0.91074(24) 0.64977(16) 0.8943(4)
C63_13 C 0.9119(5) 0.6394(3) 0.9426(9)
H84_13 H 0.8938 0.6220 0.9548
C64_13 C 0.9355(6) 0.6481(4) 0.9874(12)
C65_11 C 0.9552(6) 0.6740(4) 0.9898(8)
C66_11 C 0.9598(4) 0.6903(3) 0.9254(9)
H86_11 H 0.9776 0.7086 0.9162
C67_11 C 0.9366(4) 0.6769(2) 0.8809(7)
H87_11 H 0.9383 0.6865 0.8400
Mn5_5 Mn 0.87352(4) 0.62858(2) 0.81883(6)
Mn1_12 Mn 0.93316(2) 0.68880(2) 0.63336(6)
O1_11 O 0.96783(11) 0.71514(11) 0.6780(3)
O2_12 O 0.94103(9) 0.77007(9) 0.5765(3)
O3_12 O 0.89659(10) 0.66755(10) 0.5838(3)
N1_12 N 0.93033(11) 0.72229(12) 0.5968(3)
N2_12 N 0.90528(11) 0.71400(11) 0.5559(3)
N3_12 N 0.95676(14) 0.68177(14) 0.5464(4)
C1_11 C 0.98188(16) 0.74498(17) 0.6819(4)
C5_12 C 0.99240(18) 0.79431(17) 0.6495(5)
H4_12 H 0.9873 0.8067 0.6245
C6_12 C 0.97455(15) 0.76359(16) 0.6449(4)
C7_12 C 0.94764(14) 0.75181(15) 0.6035(4)
C8_12 C 0.88925(15) 0.68491(16) 0.5523(4)
C9_12 C 0.86180(17) 0.67050(18) 0.5117(4)
H5_10 H 0.8445 0.6584 0.5408
H6_12 H 0.8588 0.6864 0.4920
C10_10 C 0.8618(4) 0.6525(5) 0.4621(9)
H7_10 H 0.8586 0.6345 0.4861
H8_10 H 0.8427 0.6464 0.4394
C11_10 C 0.8799(4) 0.6544(4) 0.4127(9)
H9_10 H 0.9003 0.6644 0.4314
H10_12 H 0.8795 0.6687 0.3809
C12_10 C 0.8771(4) 0.6276(5) 0.3702(10)
H11_10 H 0.8801 0.6137 0.3985
H12_10 H 0.8927 0.6352 0.3356
C13_10 C 0.8436(4) 0.6097(4) 0.3361(9)
H13_10 H 0.8283 0.6011 0.3711
H14_9 H 0.8402 0.6242 0.3109
C14_9 C 0.8398(7) 0.5839(5) 0.2886(11)
H15_9 H 0.8460 0.5711 0.3123
H16_9 H 0.8535 0.5929 0.2508
C15_9 C 0.8067(8) 0.5631(7) 0.2612(14)
H17_9 H 0.7930 0.5529 0.2984
H18_9 H 0.7999 0.5757 0.2386
C16_9 C 0.8055(8) 0.5406(7) 0.2149(16)
H19_9 H 0.8203 0.5506 0.1794
H20_9 H 0.8103 0.5267 0.2382
C17_9 C 0.7781(6) 0.5256(6) 0.1897(13)
H21_9 H 0.7636 0.5112 0.2216
H22_9 H 0.7710 0.5392 0.1743
C18_9 C 0.7828(12) 0.5118(11) 0.140(3)
H23_9 H 0.7884 0.4972 0.1558
H24_9 H 0.7989 0.5263 0.1106
C19_9 C 0.7527(11) 0.4959(10) 0.1031(19)
H25_9 H 0.7563 0.4973 0.0556
H26_9 H 0.7410 0.5054 0.1143
H27_9 H 0.7417 0.4748 0.1161
C20_10 C 0.9410(2) 0.6570(3) 0.5137(6)
H28_10 H 0.9207 0.6443 0.5259
C21_10 C 0.9523(2) 0.6485(2) 0.4627(7)
H29_10 H 0.9395 0.6307 0.4389
C22_10 C 0.9814(2) 0.66482(19) 0.4455(6)
C23_12 C 0.9975(2) 0.6890(2) 0.4846(6)
C24_12 C 0.9838(2) 0.6966(2) 0.5338(5)
H31_12 H 0.9958 0.7140 0.5591
C25_8 C 0.9949(3) 0.6557(2) 0.3891(7)
H32_12 H 0.9977 0.6685 0.3504
Mn2_12 Mn 0.90148(2) 0.75487(2) 0.53694(6)
O4_12 O 0.91463(11) 0.76047(12) 0.4502(3)
O5_7 O 0.82038(11) 0.71922(11) 0.4385(3)
O6_12 O 0.88142(9) 0.74790(10) 0.6210(2)
O7_12 O 0.90632(13) 0.79996(12) 0.5413(4)
N4_12 N 0.86037(12) 0.73701(12) 0.5068(3)
N5_7 N 0.83917(12) 0.72775(12) 0.5579(3)
N6_12 N 0.88232(19) 0.81668(16) 0.4787(6)
C26_12 C 0.89986(18) 0.75482(17) 0.3936(5)
C27_12 C 0.9163(2) 0.7630(2) 0.3362(6)
H34_12 H 0.9374 0.7720 0.3384
C28_11 C 0.9025(3) 0.7581(3) 0.2761(7)
H35_11 H 0.9142 0.7633 0.2371
C29_11 C 0.8719(3) 0.7456(3) 0.2719(6)
H36_11 H 0.8624 0.7430 0.2305
C30_11 C 0.8554(2) 0.7370(2) 0.3292(5)
H37_11 H 0.8342 0.7273 0.3263
C31_12 C 0.86842(17) 0.74193(17) 0.3902(4)
C32_12 C 0.84890(16) 0.73236(16) 0.4478(4)
C33_12 C 0.85203(15) 0.73466(15) 0.6145(4)
C34_11 C 0.83384(15) 0.72928(16) 0.6742(4)
H38_11 H 0.8443 0.7268 0.7123
H39_11 H 0.8144 0.7106 0.6689
C35_11 C 0.82813(18) 0.75559(18) 0.6878(4)
H40_11 H 0.8474 0.7740 0.6968
H41_12 H 0.8192 0.7593 0.6483
C36_11 C 0.8073(2) 0.7491(2) 0.7459(5)
H42_11 H 0.8167 0.7465 0.7859
H43_11 H 0.7884 0.7302 0.7379
C37_11 C 0.8000(2) 0.7744(2) 0.7581(5)
H44_11 H 0.8186 0.7930 0.7699
H45_11 H 0.7922 0.7782 0.7170
C38_11 C 0.7771(3) 0.7665(2) 0.8128(6)
H46_11 H 0.7587 0.7477 0.8013
H47_11 H 0.7851 0.7631 0.8540
C39_9 C 0.7692(3) 0.7905(3) 0.8244(8)
H48_9 H 0.7876 0.8093 0.8361
H49_9 H 0.7615 0.7941 0.7829
C40_9 C 0.7466(3) 0.7835(3) 0.8769(8)
H50_9 H 0.7529 0.7766 0.9160
H51_9 H 0.7274 0.7666 0.8617
C41_9 C 0.7409(4) 0.8087(3) 0.8987(9)
H52_9 H 0.7594 0.8250 0.9185
H53_9 H 0.7361 0.8168 0.8596
C42_9 C 0.7159(4) 0.7985(4) 0.9476(8)
H54_9 H 0.7221 0.7932 0.9892
H55_9 H 0.6983 0.7803 0.9306
C43_9 C 0.7070(4) 0.8225(4) 0.9621(10)
H56_9 H 0.7242 0.8396 0.9836
H57_9 H 0.7039 0.8297 0.9194
H58_7 H 0.6633 0.7970 0.9836
C45_12 C 0.9021(4) 0.8120(3) 0.5074(10)
H61_12 H 0.9209 0.8257 0.4884
C46_12 C 0.8528(3) 0.8027(4) 0.4982(9)
H62_12 H 0.8408 0.7857 0.4692
H63_12 H 0.8455 0.8169 0.4959
H64_12 H 0.8512 0.7956 0.5435
C47_12 C 0.8912(3) 0.8325(3) 0.4196(8)
H65_12 H 0.9128 0.8463 0.4204
H66_12 H 0.8808 0.8438 0.4137
H67_12 H 0.8862 0.8184 0.3830
O8_13 O 0.87785(11) 0.59518(11) 0.8163(3)
O9_10 O 0.93249(10) 0.65185(10) 0.6630(3)
O10_11 O 0.87448(10) 0.66673(11) 0.8120(3)
N7_13 N 0.90013(11) 0.64575(12) 0.7446(3)
N8_11 N 0.90514(12) 0.67439(12) 0.7248(3)
C48_13 C 0.89573(18) 0.58968(17) 0.7786(5)
C49_11 C 0.8966(2) 0.56313(19) 0.7940(5)
H68_11 H 0.8842 0.5503 0.8279
C50_11 C 0.9154(3) 0.5562(2) 0.7598(7)
H69_11 H 0.9166 0.5391 0.7718
C51_11 C 0.9325(3) 0.5740(2) 0.7082(7)
H70_11 H 0.9453 0.5691 0.6846
C52_13 C 0.9306(2) 0.5995(2) 0.6909(5)
H71_10 H 0.9415 0.6111 0.6540
C53_13 C 0.91323(17) 0.60771(16) 0.7271(4)
C54_13 C 0.91529(15) 0.63627(15) 0.7095(4)
C55_11 C 0.89059(16) 0.68245(16) 0.7623(4)
C56_11 C 0.8904(2) 0.71089(19) 0.7473(6)
H72_11 H 0.8712 0.7056 0.7261
H73_11 H 0.9065 0.7225 0.7150
C57_11 C 0.8947(2) 0.7305(2) 0.8043(7)
H74_11 H 0.8897 0.7461 0.7919
H75_11 H 0.8815 0.7186 0.8410
C58_11 C 0.9264(3) 0.7445(3) 0.8244(7)
H76_11 H 0.9304 0.7289 0.8412
H77_11 H 0.9393 0.7538 0.7855
C59_11 C 0.9344(5) 0.7681(4) 0.8770(9)
H78_11 H 0.9214 0.7583 0.9154
H79_11 H 0.9291 0.7828 0.8600
C60_11 C 0.9657(7) 0.7852(5) 0.9016(15)
H80_11 H 0.9723 0.7712 0.9167
H81_11 H 0.9791 0.7976 0.8657
C61_11 C 0.9675(7) 0.8074(6) 0.9645(17)
H82_11 H 0.9525 0.7948 0.9977
H83_11 H 0.9618 0.8218 0.9477
C62_11 C 0.9982(8) 0.8253(11) 1.000(3)
C65_12 C 0.9926(4) 0.6145(4) 0.3232(8)
C66_12 C 0.9763(3) 0.6028(3) 0.2588(9)
H86_12 H 0.9580 0.6023 0.2496
C67_12 C 0.9897(2) 0.5930(3) 0.2143(7)
H87_12 H 0.9801 0.5851 0.1734
C68_8 C 0.9760(4) 0.6243(4) 0.3707(9)
H88_8 H 0.9702 0.6117 0.4106
H89_8 H 0.9575 0.6215 0.3494
O11_7 O 0.84628(11) 0.61412(11) 0.8949(3)
N10_7 N 0.82749(12) 0.60559(12) 0.7755(3)
Mn4_7 Mn 0.79314(2) 0.70476(2) 0.51451(6)
Mn1_13 Mn 0.31120(2) 0.24437(3) 0.63336(6)
O1_12 O 0.28486(11) 0.25270(16) 0.6780(3)
O2_13 O 0.22993(9) 0.17097(13) 0.5765(3)
O3_13 O 0.33245(10) 0.22905(14) 0.5838(3)
N1_13 N 0.27771(12) 0.20805(16) 0.5968(3)
N2_13 N 0.28600(11) 0.19129(16) 0.5559(3)
N3_13 N 0.31823(14) 0.27500(20) 0.5464(4)
C1_12 C 0.25502(17) 0.23691(23) 0.6819(4)
C2_13 C 0.2410(2) 0.2472(3) 0.7239(6)
H1_13 H 0.2532 0.2635 0.7522
C3_13 C 0.2107(2) 0.2354(4) 0.7268(7)
H2_13 H 0.2022 0.2443 0.7536
C4_13 C 0.1926(2) 0.2098(3) 0.6887(7)
H3_13 H 0.1714 0.2007 0.6904
C5_13 C 0.20569(17) 0.19810(25) 0.6495(5)
H4_13 H 0.1933 0.1807 0.6245
C6_13 C 0.23641(16) 0.21097(22) 0.6449(4)
C7_13 C 0.24819(15) 0.19584(21) 0.6035(4)
C8_13 C 0.31509(16) 0.20435(22) 0.5523(4)
C9_13 C 0.32950(18) 0.19131(25) 0.5117(4)
H5_11 H 0.3416 0.1862 0.5408
H6_13 H 0.3136 0.1725 0.4920
C10_11 C 0.3475(5) 0.2094(6) 0.4621(9)
H7_11 H 0.3655 0.2242 0.4861
H8_11 H 0.3536 0.1964 0.4394
C11_11 C 0.3456(4) 0.2256(6) 0.4127(9)
H9_11 H 0.3356 0.2360 0.4314
H10_13 H 0.3313 0.2109 0.3809
C12_11 C 0.3724(5) 0.2496(6) 0.3702(10)
H11_11 H 0.3863 0.2665 0.3985
H12_11 H 0.3648 0.2576 0.3356
C13_11 C 0.3903(4) 0.2340(6) 0.3361(9)
H13_11 H 0.3989 0.2273 0.3711
H14_10 H 0.3758 0.2161 0.3109
C14_10 C 0.4161(5) 0.2560(9) 0.2886(11)
H15_10 H 0.4289 0.2750 0.3123
H16_10 H 0.4071 0.2607 0.2508
C15_10 C 0.4369(7) 0.2437(11) 0.2612(14)
H17_10 H 0.4471 0.2402 0.2984
H18_10 H 0.4243 0.2243 0.2386
C16_10 C 0.4594(7) 0.2650(11) 0.2149(16)
H19_10 H 0.4494 0.2698 0.1794
H20_10 H 0.4733 0.2837 0.2382
C17_10 C 0.4744(6) 0.2526(8) 0.1897(13)
H21_10 H 0.4888 0.2525 0.2216
H22_10 H 0.4608 0.2319 0.1743
C18_10 C 0.4882(11) 0.2711(16) 0.140(3)
H23_10 H 0.5028 0.2913 0.1558
H24_10 H 0.4737 0.2727 0.1106
C19_10 C 0.5041(10) 0.2569(15) 0.1031(19)
H25_10 H 0.5027 0.2591 0.0556
H26_10 H 0.4946 0.2357 0.1143
H27_10 H 0.5252 0.2670 0.1161
C20_11 C 0.3430(3) 0.2841(4) 0.5137(6)
H28_11 H 0.3557 0.2765 0.5259
C21_11 C 0.3515(2) 0.3039(3) 0.4627(7)
H29_11 H 0.3693 0.3089 0.4389
C22_11 C 0.33518(19) 0.31662(28) 0.4455(6)
C23_13 C 0.3110(2) 0.3086(3) 0.4846(6)
H30_14 H 0.2990 0.3176 0.4782
C24_13 C 0.3034(2) 0.2873(3) 0.5338(5)
H31_13 H 0.2860 0.2819 0.5591
C25_9 C 0.3443(2) 0.3393(4) 0.3891(7)
H32_13 H 0.3315 0.3293 0.3504
H33_10 H 0.3409 0.3558 0.4025
Mn2_13 Mn 0.24513(2) 0.14662(3) 0.53694(6)
O4_13 O 0.23953(12) 0.15417(16) 0.4502(3)
O5_8 O 0.28078(11) 0.10117(16) 0.4385(3)
O6_13 O 0.25210(10) 0.13353(13) 0.6210(2)
O7_13 O 0.20004(12) 0.10637(18) 0.5413(4)
N4_13 N 0.26299(12) 0.12337(17) 0.5068(3)
N5_8 N 0.27225(12) 0.11143(17) 0.5579(3)
N6_13 N 0.18332(16) 0.06565(25) 0.4787(6)
C26_13 C 0.24518(17) 0.14505(25) 0.3936(5)
C27_13 C 0.2370(2) 0.1534(3) 0.3362(6)
H34_13 H 0.2280 0.1655 0.3384
C28_12 C 0.2419(3) 0.1445(4) 0.2761(7)
H35_12 H 0.2367 0.1510 0.2371
C29_12 C 0.2544(3) 0.1264(4) 0.2719(6)
H36_12 H 0.2570 0.1195 0.2305
C30_12 C 0.2630(2) 0.1185(3) 0.3292(5)
H37_12 H 0.2727 0.1070 0.3263
C31_13 C 0.25807(17) 0.12650(24) 0.3902(4)
C32_13 C 0.26764(16) 0.11655(23) 0.4478(4)
C33_13 C 0.26534(15) 0.11738(21) 0.6145(4)
C34_12 C 0.27072(16) 0.10457(22) 0.6742(4)
H38_12 H 0.2732 0.1176 0.7123
H39_12 H 0.2894 0.1039 0.6689
C35_12 C 0.24441(18) 0.07255(25) 0.6878(4)
H40_12 H 0.2260 0.0735 0.6968
H41_13 H 0.2407 0.0600 0.6483
C36_12 C 0.2509(2) 0.0583(3) 0.7459(5)
H42_12 H 0.2535 0.0703 0.7859
H43_12 H 0.2698 0.0583 0.7379
C37_12 C 0.2256(2) 0.0257(3) 0.7581(5)
H44_12 H 0.2070 0.0257 0.7699
H45_12 H 0.2218 0.0141 0.7170
C38_12 C 0.2335(2) 0.0107(4) 0.8128(6)
H46_12 H 0.2523 0.0111 0.8013
H47_12 H 0.2369 0.0221 0.8540
C45_13 C 0.1880(3) 0.0902(5) 0.5074(10)
H61_13 H 0.1743 0.0953 0.4884
C46_13 C 0.1973(4) 0.0502(5) 0.4982(9)
H62_13 H 0.2143 0.0552 0.4692
H63_13 H 0.1831 0.0287 0.4959
H64_13 H 0.2044 0.0557 0.5435
C47_13 C 0.1675(3) 0.0588(4) 0.4196(8)
H65_13 H 0.1537 0.0666 0.4204
H66_13 H 0.1562 0.0371 0.4137
H67_13 H 0.1816 0.0679 0.3830
O8_14 O 0.40482(11) 0.28268(16) 0.8163(3)
O9_11 O 0.34815(10) 0.28065(14) 0.6630(3)
O10_12 O 0.33327(11) 0.20776(15) 0.8120(3)
N7_14 N 0.35425(12) 0.25439(16) 0.7446(3)
N8_12 N 0.32561(12) 0.23076(17) 0.7248(3)
C48_14 C 0.41032(17) 0.30606(25) 0.7786(5)
C49_12 C 0.43687(19) 0.33351(28) 0.7940(5)
H68_12 H 0.4497 0.3340 0.8279
C50_12 C 0.4438(2) 0.3593(4) 0.7598(7)
H69_12 H 0.4609 0.3776 0.7718
C51_12 C 0.4260(2) 0.3586(4) 0.7082(7)
H70_12 H 0.4309 0.3763 0.6846
C52_14 C 0.4005(2) 0.3312(3) 0.6909(5)
H71_11 H 0.3889 0.3305 0.6540
C53_14 C 0.39229(16) 0.30553(23) 0.7271(4)
C54_14 C 0.36373(15) 0.27903(21) 0.7095(4)
C55_12 C 0.31755(16) 0.20815(23) 0.7623(4)
C56_12 C 0.28911(19) 0.17955(28) 0.7473(6)
H72_12 H 0.2944 0.1657 0.7261
H73_12 H 0.2775 0.1841 0.7150
C57_12 C 0.2695(2) 0.1643(3) 0.8043(7)
H74_12 H 0.2539 0.1437 0.7919
H75_12 H 0.2814 0.1630 0.8410
C58_12 C 0.2555(3) 0.1820(4) 0.8244(7)
H76_12 H 0.2711 0.2016 0.8412
H77_12 H 0.2462 0.1856 0.7855
C59_12 C 0.2319(4) 0.1664(6) 0.8770(9)
H78_12 H 0.2417 0.1632 0.9154
H79_12 H 0.2172 0.1464 0.8600
C60_12 C 0.2148(5) 0.1806(9) 0.9016(15)
H80_12 H 0.2288 0.2012 0.9167
H81_12 H 0.2024 0.1816 0.8657
C61_12 C 0.1926(6) 0.1602(9) 0.9645(17)
H82_12 H 0.2052 0.1578 0.9977
H83_12 H 0.1782 0.1401 0.9477
C62_12 C 0.1747(11) 0.1730(14) 1.000(3)
C63_14 C 0.3942(4) 0.4215(5) 0.2760(9)
H84_14 H 0.3949 0.4396 0.2882
C64_14 C 0.3793(4) 0.3979(6) 0.3208(12)
H85_10 H 0.3644 0.3974 0.3491
C65_13 C 0.3855(4) 0.3782(6) 0.3232(8)
C66_13 C 0.3972(3) 0.3736(4) 0.2588(9)
H86_13 H 0.3977 0.3558 0.2496
C67_13 C 0.4070(3) 0.3968(4) 0.2143(7)
H87_13 H 0.4149 0.3951 0.1734
C68_9 C 0.3757(4) 0.3518(6) 0.3707(9)
H88_9 H 0.3883 0.3586 0.4106
H89_9 H 0.3785 0.3361 0.3494
O11_8 O 0.38588(11) 0.23217(16) 0.8949(3)
N10_8 N 0.39441(12) 0.22191(17) 0.7755(3)
Mn4_8 Mn 0.29524(2) 0.08839(3) 0.51451(6)
H90_13 H 0.160081 0.175161 0.964423
H5_12 H 0.4888 0.0083 0.1259
C10_12 C 0.4715(4) 0.0142(5) 0.2046(9)
H7_12 H 0.4747 0.0322 0.1806
H8_12 H 0.4906 0.0203 0.2273
C11_12 C 0.4534(4) 0.0123(4) 0.2540(9)
H9_12 H 0.4330 0.0023 0.2353
C12_12 C 0.4562(4) 0.0391(5) 0.2965(10)
H11_12 H 0.4532 0.0530 0.2682
H12_12 H 0.4406 0.0315 0.3311
C13_12 C 0.4897(4) 0.0570(4) 0.3306(9)
H13_12 H 0.5050 0.0656 0.2956
H14_11 H 0.4931 0.0425 0.3558
C14_11 C 0.4935(7) 0.0828(5) 0.3781(11)
H15_11 H 0.4873 0.0956 0.3544
H16_11 H 0.4798 0.0738 0.4159
C15_11 C 0.5266(8) 0.1036(7) 0.4055(14)
H17_11 H 0.5403 0.1138 0.3683
H18_11 H 0.5334 0.0910 0.4281
C16_11 C 0.5278(8) 0.1261(7) 0.4518(16)
H19_11 H 0.5130 0.1161 0.4873
H20_11 H 0.5230 0.1400 0.4285
C17_11 C 0.5552(6) 0.1411(6) 0.4770(13)
H21_11 H 0.5697 0.1555 0.4451
H22_11 H 0.5623 0.1275 0.4924
C18_11 C 0.5505(12) 0.1549(11) 0.527(3)
H23_11 H 0.5449 0.1695 0.5109
H24_11 H 0.5344 0.1404 0.5561
C19_11 C 0.5806(11) 0.1708(10) 0.5636(19)
H25_11 H 0.5770 0.1694 0.6111
H26_11 H 0.5923 0.1613 0.5524
H27_11 H 0.5916 0.1919 0.5506
C20_12 C 0.3923(2) 0.0097(3) 0.1530(6)
H28_12 H 0.4126 0.0224 0.1408
C21_12 C 0.3810(2) 0.0182(2) 0.2040(7)
H29_12 H 0.3938 0.0360 0.2278
C22_12 C 0.3519(2) 0.00185(19) 0.2212(6)
C25_10 C 0.3384(3) 0.0110(2) 0.2776(7)
H33_11 H 0.3185 0.0076 0.2642
O9_12 O 0.40084(10) 0.01482(10) 0.0037(3)
N9_9 N 0.31644(16) 0.07237(18) 0.4390(4)
H71_12 H 0.3918 0.0556 0.0127
C63_15 C 0.3061(3) 0.0609(4) 0.3907(9)
H84_15 H 0.2887 0.0616 0.3785
C64_15 C 0.3148(4) 0.0460(4) 0.3459(12)
H85_11 H 0.3004 0.0311 0.3176
C65_14 C 0.3407(4) 0.0522(4) 0.3435(8)
C66_14 C 0.3570(3) 0.0639(3) 0.4079(9)
H86_14 H 0.3753 0.0644 0.4171
C67_14 C 0.3436(2) 0.0737(3) 0.4524(7)
H87_14 H 0.3532 0.0816 0.4933
C68_10 C 0.3573(4) 0.0424(4) 0.2960(9)
H88_10 H 0.3631 0.0550 0.2561
H89_10 H 0.3758 0.0452 0.3173
Mn1_14 Mn 0.57770(3) 0.59983(2) 0.03331(6)
O2_14 O 0.50430(13) 0.60770(9) 0.0902(3)
O3_14 O 0.56238(14) 0.56326(10) 0.0829(3)
N1_14 N 0.54138(16) 0.59700(11) 0.0699(3)
N2_14 N 0.52462(16) 0.57195(11) 0.1108(3)
N3_14 N 0.60833(20) 0.62343(14) 0.1203(4)
C5_14 C 0.53143(25) 0.65907(18) 0.0172(5)
H4_14 H 0.5140 0.6540 0.0422
C6_14 C 0.54430(22) 0.64122(15) 0.0218(4)
C7_14 C 0.52917(21) 0.61431(14) 0.0632(4)
C8_14 C 0.53768(22) 0.55592(15) 0.1144(4)
C9_14 C 0.52464(25) 0.52847(17) 0.1550(4)
H5_13 H 0.5195 0.5112 0.1259
H6_14 H 0.5058 0.5255 0.1747
C10_13 C 0.5427(6) 0.5285(4) 0.2046(9)
H7_13 H 0.5575 0.5253 0.1806
H8_13 H 0.5297 0.5094 0.2273
C11_13 C 0.5589(6) 0.5466(4) 0.2540(9)
H9_13 H 0.5693 0.5670 0.2353
H10_14 H 0.5442 0.5462 0.2858
C12_13 C 0.5829(6) 0.5438(4) 0.2965(10)
H11_13 H 0.5998 0.5468 0.2682
H12_13 H 0.5909 0.5594 0.3311
C13_13 C 0.5673(6) 0.5103(4) 0.3306(9)
H13_13 H 0.5606 0.4950 0.2956
H14_12 H 0.5494 0.5069 0.3558
C14_12 C 0.5893(9) 0.5065(7) 0.3781(11)
H15_12 H 0.6083 0.5127 0.3544
H16_12 H 0.5940 0.5202 0.4159
C15_12 C 0.5770(11) 0.4734(8) 0.4055(14)
H17_12 H 0.5735 0.4597 0.3683
H18_12 H 0.5576 0.4666 0.4281
C16_12 C 0.5983(11) 0.4722(8) 0.4518(16)
H19_12 H 0.6031 0.4870 0.4873
H20_12 H 0.6170 0.4770 0.4285
C17_12 C 0.5859(8) 0.4448(6) 0.4770(13)
H21_12 H 0.5858 0.4303 0.4451
H22_12 H 0.5652 0.4377 0.4924
C18_12 C 0.6044(16) 0.4495(12) 0.527(3)
H23_12 H 0.6246 0.4551 0.5109
H24_12 H 0.6060 0.4656 0.5561
C19_12 C 0.5902(15) 0.4194(11) 0.5636(19)
H25_12 H 0.5924 0.4230 0.6111
H26_12 H 0.5690 0.4077 0.5524
H27_12 H 0.6003 0.4084 0.5506
C20_13 C 0.6174(4) 0.6077(2) 0.1530(6)
H28_13 H 0.6098 0.5874 0.1408
C21_13 C 0.6372(3) 0.6190(2) 0.2040(7)
H29_13 H 0.6422 0.6062 0.2278
C22_13 C 0.64995(28) 0.6481(2) 0.2212(6)
C23_14 C 0.6419(3) 0.6642(2) 0.1821(6)
H30_15 H 0.6509 0.6852 0.1885
C24_14 C 0.6206(3) 0.6505(2) 0.1329(5)
H31_14 H 0.6152 0.6625 0.1076
C25_11 C 0.6726(4) 0.6616(3) 0.2776(7)
H32_14 H 0.6626 0.6644 0.3163
H33_12 H 0.6891 0.6815 0.2642
Mn2_14 Mn 0.47995(3) 0.56815(2) 0.12973(6)
O4_14 O 0.48750(16) 0.58130(11) 0.2165(3)
O6_14 O 0.46686(13) 0.54809(9) 0.0457(2)
O7_14 O 0.43970(18) 0.57299(13) 0.1254(4)
N4_14 N 0.45670(17) 0.52704(12) 0.1599(3)
N6_14 N 0.39898(25) 0.54899(19) 0.1880(6)
C26_14 C 0.47838(25) 0.56653(18) 0.2731(5)
C27_14 C 0.4867(3) 0.5830(2) 0.3305(6)
H34_14 H 0.4988 0.6041 0.3283
C28_13 C 0.4778(4) 0.5692(3) 0.3906(7)
H35_13 H 0.4843 0.5809 0.4296
C29_13 C 0.4597(4) 0.5386(3) 0.3948(6)
H36_13 H 0.4528 0.5291 0.4362
C30_13 C 0.4518(3) 0.5221(2) 0.3375(5)
H37_13 H 0.4403 0.5009 0.3404
C31_14 C 0.45983(24) 0.53509(17) 0.2765(4)
C32_14 C 0.44988(23) 0.51557(16) 0.2189(4)
C33_14 C 0.45071(21) 0.51870(15) 0.0522(4)
H41_14 H 0.3933 0.4859 0.0184
C45_14 C 0.4235(5) 0.5688(4) 0.1593(10)
H61_14 H 0.4286 0.5876 0.1783
C46_14 C 0.3835(5) 0.5195(3) 0.1685(9)
H62_14 H 0.3885 0.5075 0.1975
H63_14 H 0.3620 0.5122 0.1708
H64_14 H 0.3890 0.5179 0.1232
C47_14 C 0.3921(4) 0.5579(3) 0.2471(8)
H65_14 H 0.3999 0.5795 0.2463
H66_14 H 0.3704 0.5475 0.2530
H67_14 H 0.4012 0.5529 0.2837
O9_13 O 0.61398(14) 0.59916(10) 0.0037(3)
N9_10 N 0.75593(24) 0.68356(16) 0.4390(4)
H71_13 H 0.6638 0.6082 0.0127
C63_16 C 0.7548(5) 0.6939(3) 0.3907(9)
H84_16 H 0.7729 0.7113 0.3785
C64_16 C 0.7312(6) 0.6852(4) 0.3459(12)
H85_12 H 0.7307 0.6996 0.3176
C65_15 C 0.7115(6) 0.6593(4) 0.3435(8)
C66_15 C 0.7069(4) 0.6430(3) 0.4079(9)
H86_15 H 0.6891 0.6247 0.4171
C67_15 C 0.7301(4) 0.6564(2) 0.4524(7)
H87_15 H 0.7284 0.6468 0.4933
C68_11 C 0.6851(6) 0.6427(4) 0.2960(9)
H88_11 H 0.6919 0.6369 0.2561
H89_11 H 0.6694 0.6242 0.3173
Mn1_15 Mn 0.73350(2) 0.64454(2) 0.69998(6)
O1_13 O 0.69883(11) 0.61820(11) 0.6554(3)
O2_15 O 0.72563(9) 0.56327(9) 0.7569(3)
O3_15 O 0.77007(10) 0.66579(10) 0.7496(3)
N1_15 N 0.73633(11) 0.61105(12) 0.7366(3)
N2_15 N 0.76138(11) 0.61934(11) 0.7775(3)
N3_15 N 0.70990(14) 0.65157(14) 0.7870(4)
C1_13 C 0.68478(16) 0.58836(17) 0.6515(4)
C2_14 C 0.6605(2) 0.5744(2) 0.6095(6)
H1_14 H 0.6564 0.5866 0.5812
C3_14 C 0.6420(3) 0.5441(2) 0.6066(7)
H2_14 H 0.6246 0.5356 0.5798
C4_14 C 0.6495(2) 0.5260(2) 0.6447(7)
H3_14 H 0.6374 0.5048 0.6430
C5_15 C 0.67426(18) 0.53903(17) 0.6839(5)
H4_15 H 0.6793 0.5267 0.7089
C6_15 C 0.69211(15) 0.56975(16) 0.6885(4)
C7_15 C 0.71902(14) 0.58153(15) 0.7299(4)
C8_15 C 0.77741(15) 0.64843(16) 0.7811(4)
C9_15 C 0.80486(17) 0.66284(18) 0.8217(4)
H5_14 H 0.8221 0.6750 0.7926
H6_15 H 0.8078 0.6470 0.8414
C10_14 C 0.8048(4) 0.6809(5) 0.8713(9)
H7_14 H 0.8080 0.6989 0.8473
H8_14 H 0.8239 0.6870 0.8940
C11_14 C 0.7867(4) 0.6790(4) 0.9207(9)
H9_14 H 0.7663 0.6690 0.9020
H10_15 H 0.7871 0.6647 0.9525
C12_14 C 0.7895(4) 0.7058(5) 0.9632(10)
H11_14 H 0.7865 0.7197 0.9349
H12_14 H 0.7739 0.6982 0.9978
C13_14 C 0.8230(4) 0.7237(4) 0.9973(9)
H13_14 H 0.8383 0.7323 0.9623
C20_14 C 0.7256(2) 0.6764(3) 0.8197(6)
H28_14 H 0.7459 0.6891 0.8075
C21_14 C 0.7143(2) 0.6849(2) 0.8707(7)
H29_14 H 0.7271 0.7027 0.8945
C22_14 C 0.6852(2) 0.66852(19) 0.8879(6)
C23_15 C 0.6691(2) 0.6444(2) 0.8488(6)
H30_16 H 0.6481 0.6324 0.8552
C24_15 C 0.6828(2) 0.6368(2) 0.7996(5)
H31_15 H 0.6708 0.6194 0.7743
C25_12 C 0.6717(3) 0.6777(2) 0.9443(7)
H32_15 H 0.6689 0.6649 0.9830
H33_13 H 0.6518 0.6743 0.9309
Mn2_15 Mn 0.76518(2) 0.57847(2) 0.79640(6)
O4_15 O 0.75203(11) 0.57287(12) 0.8832(3)
O6_15 O 0.78524(9) 0.58544(10) 0.7124(2)
O7_15 O 0.76034(13) 0.53338(12) 0.7921(4)
N4_15 N 0.80629(12) 0.59633(12) 0.8266(3)
N6_15 N 0.78434(19) 0.51666(16) 0.8547(6)
C26_15 C 0.76680(18) 0.57852(17) 0.9398(5)
C27_15 C 0.7503(2) 0.5704(2) 0.9972(6)
H34_15 H 0.7292 0.5614 0.9950
C31_15 C 0.79824(17) 0.59141(17) 0.9432(4)
C32_15 C 0.81776(16) 0.60098(16) 0.8856(4)
C33_15 C 0.81463(15) 0.59868(15) 0.7189(4)
C34_13 C 0.83282(15) 0.60406(16) 0.6592(4)
H38_13 H 0.8223 0.6066 0.6211
H39_13 H 0.8522 0.6228 0.6645
C35_13 C 0.83853(18) 0.57775(18) 0.6456(4)
H40_13 H 0.8192 0.5594 0.6366
H41_15 H 0.8474 0.5741 0.6851
C36_13 C 0.8593(2) 0.5843(2) 0.5875(5)
H42_13 H 0.8499 0.5869 0.5475
H43_13 H 0.8782 0.6032 0.5955
C37_13 C 0.8666(2) 0.5590(2) 0.5753(5)
H44_13 H 0.8480 0.5404 0.5635
H45_13 H 0.8744 0.5552 0.6164
C38_13 C 0.8895(3) 0.5669(2) 0.5206(6)
H46_13 H 0.9079 0.5857 0.5321
H47_13 H 0.8815 0.5703 0.4794
C39_10 C 0.8974(3) 0.5429(3) 0.5090(8)
H48_10 H 0.8790 0.5241 0.4973
H49_10 H 0.9051 0.5393 0.5505
C40_10 C 0.9200(3) 0.5499(3) 0.4565(8)
H50_10 H 0.9137 0.5568 0.4174
H51_10 H 0.9392 0.5668 0.4717
C41_10 C 0.9257(4) 0.5247(3) 0.4347(9)
H52_10 H 0.9072 0.5084 0.4149
H53_10 H 0.9305 0.5166 0.4738
C42_10 C 0.9507(4) 0.5349(4) 0.3858(8)
H54_10 H 0.9445 0.5402 0.3442
H55_10 H 0.9683 0.5531 0.4028
C43_10 C 0.9596(4) 0.5109(4) 0.3713(10)
H56_10 H 0.9424 0.4938 0.3498
H57_10 H 0.9627 0.5037 0.4140
C44_8 C 0.9859(4) 0.5189(5) 0.3309(15)
H59_8 H 0.9896 0.5021 0.3295
H60_8 H 0.9824 0.5236 0.2862
C45_15 C 0.7645(4) 0.5214(3) 0.8260(10)
H61_15 H 0.7457 0.5077 0.8450
C46_15 C 0.8138(3) 0.5307(4) 0.8352(9)
H62_15 H 0.8258 0.5477 0.8642
H63_15 H 0.8211 0.5165 0.8375
H64_15 H 0.8154 0.5378 0.7899
C47_15 C 0.7754(3) 0.5009(3) 0.9138(8)
H65_15 H 0.7538 0.4871 0.9130
H66_15 H 0.7858 0.4896 0.9197
H67_15 H 0.7804 0.5150 0.9504
O8_15 O 0.78881(11) 0.73816(11) 0.5171(3)
O9_14 O 0.73417(10) 0.68149(10) 0.6704(3)
O10_13 O 0.79218(10) 0.66661(11) 0.5214(3)
N7_15 N 0.76653(11) 0.68759(12) 0.5888(3)
N8_13 N 0.76152(12) 0.65895(12) 0.6086(3)
C48_15 C 0.77093(18) 0.74366(17) 0.5548(5)
C49_13 C 0.7700(2) 0.77021(19) 0.5394(5)
H68_13 H 0.7824 0.7831 0.5055
C50_13 C 0.7512(3) 0.7772(2) 0.5736(7)
H69_13 H 0.7500 0.7943 0.5616
C51_13 C 0.7341(3) 0.7594(2) 0.6252(7)
H70_13 H 0.7213 0.7643 0.6488
C52_15 C 0.7360(2) 0.7339(2) 0.6425(5)
H71_14 H 0.7251 0.7223 0.6794
C53_15 C 0.75343(17) 0.72563(16) 0.6063(4)
C54_15 C 0.75137(15) 0.69707(15) 0.6239(4)
C55_13 C 0.77607(16) 0.65089(16) 0.5711(4)
C56_13 C 0.7762(2) 0.62245(19) 0.5861(6)
H72_13 H 0.7954 0.6278 0.6073
H73_13 H 0.7601 0.6109 0.6184
C57_13 C 0.7719(2) 0.6029(2) 0.5291(7)
H74_13 H 0.7769 0.5873 0.5415
H75_13 H 0.7851 0.6148 0.4924
C58_13 C 0.7402(3) 0.5889(3) 0.5090(7)
H76_13 H 0.7362 0.6045 0.4922
H77_13 H 0.7273 0.5796 0.5479
C59_13 C 0.7322(5) 0.5653(4) 0.4564(9)
H78_13 H 0.7452 0.5751 0.4180
H79_13 H 0.7375 0.5506 0.4734
C60_13 C 0.7009(7) 0.5482(5) 0.4318(15)
H80_13 H 0.6943 0.5622 0.4167
H81_13 H 0.6875 0.5358 0.4677
C61_13 C 0.6991(7) 0.5260(6) 0.3689(17)
H82_13 H 0.7141 0.5386 0.3357
H83_13 H 0.7048 0.5116 0.3857
C62_13 C 0.6684(8) 0.5081(11) 0.334(3)
H85_13 H 0.6337 0.6978 0.9843
C68_12 C 0.6906(4) 0.7091(4) 0.9627(9)
H88_12 H 0.6964 0.7217 0.9228
H89_12 H 0.7091 0.7119 0.9840
H90_14 H 0.651587 0.493415 0.368911
H91_8 H 0.67015 0.494708 0.294332
H92_8 H 0.662059 0.52354 0.313103
Mn1_16 Mn 0.35546(2) 0.08897(3) 0.69998(6)
O1_14 O 0.38180(11) 0.08064(16) 0.6554(3)
O2_16 O 0.43673(9) 0.16237(13) 0.7569(3)
O3_16 O 0.33421(10) 0.10429(14) 0.7496(3)
N1_16 N 0.38895(12) 0.12529(16) 0.7366(3)
N2_16 N 0.38066(11) 0.14205(16) 0.7775(3)
N3_16 N 0.34843(14) 0.05834(20) 0.7870(4)
C1_14 C 0.41164(17) 0.09643(23) 0.6515(4)
C2_15 C 0.4256(2) 0.0862(3) 0.6095(6)
H1_15 H 0.4134 0.0699 0.5812
C3_15 C 0.4559(2) 0.0980(4) 0.6066(7)
H2_15 H 0.4644 0.0891 0.5798
C4_15 C 0.4740(2) 0.1236(3) 0.6447(7)
H3_15 H 0.4952 0.1327 0.6430
C5_16 C 0.46097(17) 0.13524(25) 0.6839(5)
H4_16 H 0.4733 0.1527 0.7089
C6_16 C 0.43025(16) 0.12237(22) 0.6885(4)
C7_16 C 0.41847(15) 0.13750(21) 0.7299(4)
C8_16 C 0.35157(16) 0.12899(22) 0.7811(4)
C9_16 C 0.33716(18) 0.14203(25) 0.8217(4)
H5_15 H 0.3250 0.1472 0.7926
H6_16 H 0.3530 0.1609 0.8414
C10_15 C 0.3191(5) 0.1240(6) 0.8713(9)
H7_15 H 0.3011 0.1092 0.8473
H8_15 H 0.3130 0.1370 0.8940
C11_15 C 0.3210(4) 0.1078(6) 0.9207(9)
H9_15 H 0.3310 0.0974 0.9020
H10_16 H 0.3353 0.1225 0.9525
C12_15 C 0.2942(5) 0.0838(6) 0.9632(10)
H11_15 H 0.2803 0.0669 0.9349
H12_15 H 0.3018 0.0758 0.9978
C13_15 C 0.2763(4) 0.0994(6) 0.9973(9)
H13_15 H 0.2677 0.1061 0.9623
C20_15 C 0.3236(3) 0.0493(4) 0.8197(6)
H28_15 H 0.3109 0.0569 0.8075
C21_15 C 0.3151(2) 0.0295(3) 0.8707(7)
H29_15 H 0.2973 0.0245 0.8945
C22_15 C 0.33148(19) 0.01672(28) 0.8879(6)
C23_16 C 0.3556(2) 0.0248(3) 0.8488(6)
H30_17 H 0.3676 0.0158 0.8552
C24_16 C 0.3632(2) 0.0461(3) 0.7996(5)
H31_16 H 0.3806 0.0515 0.7743
H32_16 H 0.3351 0.0041 0.9830
Mn2_16 Mn 0.42153(2) 0.18672(3) 0.79640(6)
O4_16 O 0.42713(12) 0.17917(16) 0.8832(3)
O6_16 O 0.41456(10) 0.19981(13) 0.7124(2)
O7_16 O 0.46662(12) 0.22697(18) 0.7921(4)
N4_16 N 0.40367(12) 0.20997(17) 0.8266(3)
N6_16 N 0.48334(16) 0.26769(25) 0.8547(6)
C26_16 C 0.42148(17) 0.18829(25) 0.9398(5)
C27_16 C 0.4296(2) 0.1800(3) 0.9972(6)
H34_16 H 0.4386 0.1679 0.9950
C31_16 C 0.40859(17) 0.20684(24) 0.9432(4)
C32_16 C 0.39902(16) 0.21679(23) 0.8856(4)
C33_16 C 0.40132(15) 0.21596(21) 0.7189(4)
C34_14 C 0.39594(16) 0.22877(22) 0.6592(4)
H38_14 H 0.3934 0.2158 0.6211
H39_14 H 0.3772 0.2295 0.6645
C35_14 C 0.42225(18) 0.26079(25) 0.6456(4)
H40_14 H 0.4406 0.2599 0.6366
H41_16 H 0.4259 0.2734 0.6851
C36_14 C 0.4157(2) 0.2751(3) 0.5875(5)
H42_14 H 0.4131 0.2631 0.5475
H43_14 H 0.3968 0.2751 0.5955
C37_14 C 0.4410(2) 0.3077(3) 0.5753(5)
H44_14 H 0.4596 0.3077 0.5635
H45_14 H 0.4448 0.3193 0.6164
C38_14 C 0.4331(2) 0.3227(4) 0.5206(6)
H46_14 H 0.4143 0.3223 0.5321
H47_14 H 0.4297 0.3113 0.4794
C39_11 C 0.4571(3) 0.3546(4) 0.5090(8)
H48_11 H 0.4759 0.3550 0.4973
H49_11 H 0.4607 0.3659 0.5505
C40_11 C 0.4501(3) 0.3702(4) 0.4565(8)
H50_11 H 0.4432 0.3570 0.4174
H51_11 H 0.4332 0.3725 0.4717
C41_11 C 0.4753(3) 0.4011(5) 0.4347(9)
H52_11 H 0.4916 0.3989 0.4149
H53_11 H 0.4834 0.4140 0.4738
C42_11 C 0.4651(4) 0.4159(6) 0.3858(8)
H54_11 H 0.4598 0.4044 0.3442
H55_11 H 0.4469 0.4153 0.4028
C43_11 C 0.4891(4) 0.4488(6) 0.3713(10)
H56_11 H 0.5062 0.4487 0.3498
H57_11 H 0.4963 0.4591 0.4140
C44_9 C 0.4811(5) 0.4671(6) 0.3309(15)
H58_8 H 0.4636 0.4670 0.3498
H59_9 H 0.4979 0.4876 0.3295
H60_9 H 0.4764 0.4589 0.2862
C45_16 C 0.4786(3) 0.2432(5) 0.8260(10)
H61_16 H 0.4923 0.2381 0.8450
C46_16 C 0.4693(4) 0.2832(5) 0.8352(9)
H62_16 H 0.4523 0.2782 0.8642
H63_16 H 0.4835 0.3047 0.8375
H64_16 H 0.4622 0.2777 0.7899
C47_16 C 0.4991(3) 0.2746(4) 0.9138(8)
H65_16 H 0.5129 0.2668 0.9130
H66_16 H 0.5104 0.2963 0.9197
H67_16 H 0.4850 0.2655 0.9504
O8_16 O 0.26184(11) 0.05066(16) 0.5171(3)
O9_15 O 0.31851(10) 0.05269(14) 0.6704(3)
O10_14 O 0.33339(11) 0.12558(15) 0.5214(3)
N7_16 N 0.31241(12) 0.07895(16) 0.5888(3)
N8_14 N 0.34105(12) 0.10258(17) 0.6086(3)
C48_16 C 0.25634(17) 0.02728(25) 0.5548(5)
C52_16 C 0.2661(2) 0.0022(3) 0.6425(5)
H71_15 H 0.2777 0.0029 0.6794
C53_16 C 0.27437(16) 0.02781(23) 0.6063(4)
C54_16 C 0.30293(15) 0.05431(21) 0.6239(4)
C55_14 C 0.34911(16) 0.12519(23) 0.5711(4)
C56_14 C 0.37755(19) 0.15379(28) 0.5861(6)
H72_14 H 0.3722 0.1677 0.6073
H73_14 H 0.3891 0.1493 0.6184
C57_14 C 0.3971(2) 0.1691(3) 0.5291(7)
H74_14 H 0.4127 0.1897 0.5415
H75_14 H 0.3852 0.1704 0.4924
C58_14 C 0.4111(3) 0.1514(4) 0.5090(7)
H76_14 H 0.3955 0.1318 0.4922
H77_14 H 0.4204 0.1478 0.5479
C59_14 C 0.4347(4) 0.1670(6) 0.4564(9)
H78_14 H 0.4249 0.1702 0.4180
H79_14 H 0.4494 0.1870 0.4734
C60_14 C 0.4518(5) 0.1528(9) 0.4318(15)
H80_14 H 0.4378 0.1322 0.4167
H81_14 H 0.4642 0.1518 0.4677
C61_14 C 0.4740(6) 0.1732(9) 0.3689(17)
H82_14 H 0.4614 0.1756 0.3357
H83_14 H 0.4884 0.1933 0.3857
C62_14 C 0.4919(11) 0.1604(14) 0.334(3)
H90_15 H 0.506585 0.158173 0.368911
H91_9 H 0.505292 0.175442 0.294332
H92_9 H 0.47646 0.13852 0.313103
H58_9 H 0.9967 0.4636 0.6502
C25_13 C 0.6777(2) 0.0059(4) 0.0557(7)
H33_14 H 0.6743 0.0224 0.0691
C49_14 C 0.77021(19) 0.00017(28) 0.4606(5)
H68_14 H 0.7831 0.0006 0.4945
C50_14 C 0.7772(2) 0.0259(4) 0.4264(7)
H69_14 H 0.7943 0.0442 0.4384
C51_14 C 0.7594(2) 0.0252(4) 0.3748(7)
H70_14 H 0.7643 0.0429 0.3512
H85_14 H 0.6978 0.0640 0.0157
C68_13 C 0.7091(4) 0.0184(6) 0.0373(9)
H88_13 H 0.7217 0.0252 0.0772
H89_13 H 0.7119 0.0027 0.0160
N9_11 N 0.73904(18) 0.08926(24) 0.8943(4)
C63_17 C 0.7276(4) 0.0881(5) 0.9426(9)
H84_17 H 0.7283 0.1062 0.9548
C64_17 C 0.7127(4) 0.0645(6) 0.9874(12)
C65_16 C 0.7189(4) 0.0448(6) 0.9898(8)
C66_16 C 0.7306(3) 0.0402(4) 0.9254(9)
H86_16 H 0.7311 0.0224 0.9162
C67_16 C 0.7404(3) 0.0634(4) 0.8809(7)
H87_16 H 0.7483 0.0617 0.8400
Mn5_6 Mn 0.75505(3) 0.12648(4) 0.81883(6)
Mn1_17 Mn 0.75563(3) 0.06684(2) 0.63336(6)
O1_15 O 0.74730(16) 0.03217(11) 0.6780(3)
O2_17 O 0.82903(13) 0.05897(9) 0.5765(3)
O3_17 O 0.77095(14) 0.10341(10) 0.5838(3)
N1_17 N 0.79195(16) 0.06967(11) 0.5968(3)
N2_17 N 0.80871(16) 0.09472(11) 0.5559(3)
N3_17 N 0.72500(20) 0.04324(14) 0.5464(4)
C1_15 C 0.76309(23) 0.01812(16) 0.6819(4)
C5_17 C 0.80190(25) 0.00760(18) 0.6495(5)
H4_17 H 0.8193 0.0127 0.6245
C6_17 C 0.78903(22) 0.02545(15) 0.6449(4)
C7_17 C 0.80416(21) 0.05236(14) 0.6035(4)
C8_17 C 0.79565(22) 0.11075(15) 0.5523(4)
C9_17 C 0.80869(25) 0.13820(17) 0.5117(4)
H5_16 H 0.8138 0.1555 0.5408
H6_17 H 0.8275 0.1412 0.4920
C10_16 C 0.7906(6) 0.1382(4) 0.4621(9)
H7_16 H 0.7758 0.1414 0.4861
H8_16 H 0.8036 0.1573 0.4394
C11_16 C 0.7744(6) 0.1201(4) 0.4127(9)
H9_16 H 0.7640 0.0997 0.4314
H10_17 H 0.7891 0.1205 0.3809
C12_16 C 0.7504(6) 0.1229(4) 0.3702(10)
H11_16 H 0.7335 0.1199 0.3985
H12_16 H 0.7424 0.1073 0.3356
C13_16 C 0.7660(6) 0.1564(4) 0.3361(9)
H13_16 H 0.7727 0.1717 0.3711
H14_13 H 0.7839 0.1598 0.3109
C14_13 C 0.7440(9) 0.1602(7) 0.2886(11)
H15_13 H 0.7250 0.1540 0.3123
H16_13 H 0.7393 0.1465 0.2508
C15_13 C 0.7563(11) 0.1933(8) 0.2612(14)
H17_13 H 0.7598 0.2070 0.2984
H18_13 H 0.7757 0.2001 0.2386
C16_13 C 0.7350(11) 0.1945(8) 0.2149(16)
H19_13 H 0.7302 0.1797 0.1794
H20_13 H 0.7163 0.1897 0.2382
C17_13 C 0.7474(8) 0.2219(6) 0.1897(13)
H21_13 H 0.7475 0.2364 0.2216
H22_13 H 0.7681 0.2290 0.1743
C18_13 C 0.7289(16) 0.2172(12) 0.140(3)
H23_13 H 0.7087 0.2116 0.1558
H24_13 H 0.7273 0.2011 0.1106
C19_13 C 0.7431(15) 0.2473(11) 0.1031(19)
H25_13 H 0.7409 0.2437 0.0556
H26_13 H 0.7643 0.2590 0.1143
H27_13 H 0.7330 0.2583 0.1161
C20_16 C 0.7159(4) 0.0590(2) 0.5137(6)
H28_16 H 0.7235 0.0793 0.5259
C21_16 C 0.6961(3) 0.0477(2) 0.4627(7)
H29_16 H 0.6911 0.0605 0.4389
C22_16 C 0.68338(28) 0.0186(2) 0.4455(6)
C23_17 C 0.6914(3) 0.0025(2) 0.4846(6)
C24_17 C 0.7127(3) 0.0162(2) 0.5338(5)
H31_17 H 0.7181 0.0042 0.5591
C25_14 C 0.6607(4) 0.0051(3) 0.3891(7)
H32_17 H 0.6707 0.0023 0.3504
Mn2_17 Mn 0.85338(3) 0.09852(2) 0.53694(6)
O4_17 O 0.84583(16) 0.08537(11) 0.4502(3)
O5_9 O 0.89883(16) 0.17962(11) 0.4385(3)
O6_17 O 0.86647(13) 0.11858(9) 0.6210(2)
O7_17 O 0.89363(18) 0.09368(13) 0.5413(4)
N4_17 N 0.87663(17) 0.13963(12) 0.5068(3)
N5_9 N 0.88857(17) 0.16083(12) 0.5579(3)
N6_17 N 0.93435(25) 0.11768(19) 0.4787(6)
C26_17 C 0.85495(25) 0.10014(18) 0.3936(5)
C27_17 C 0.8466(3) 0.0837(2) 0.3362(6)
H34_17 H 0.8345 0.0626 0.3384
C28_14 C 0.8555(4) 0.0975(3) 0.2761(7)
H35_14 H 0.8490 0.0858 0.2371
C29_14 C 0.8736(4) 0.1281(3) 0.2719(6)
H36_14 H 0.8805 0.1376 0.2305
C30_14 C 0.8815(3) 0.1446(2) 0.3292(5)
H37_14 H 0.8930 0.1658 0.3263
C31_17 C 0.87350(24) 0.13158(17) 0.3902(4)
C32_17 C 0.88345(23) 0.15110(16) 0.4478(4)
C33_17 C 0.88262(21) 0.14797(15) 0.6145(4)
C34_15 C 0.89543(22) 0.16616(15) 0.6742(4)
H38_15 H 0.8824 0.1557 0.7123
H39_15 H 0.8961 0.1856 0.6689
C35_15 C 0.92745(25) 0.17187(18) 0.6878(4)
H40_15 H 0.9265 0.1526 0.6968
H41_17 H 0.9400 0.1808 0.6483
C36_15 C 0.9417(3) 0.1927(2) 0.7459(5)
H42_15 H 0.9297 0.1833 0.7859
H43_15 H 0.9417 0.2116 0.7379
C37_15 C 0.9743(3) 0.2000(2) 0.7581(5)
H44_15 H 0.9743 0.1814 0.7699
H45_15 H 0.9859 0.2078 0.7170
C38_15 C 0.9893(4) 0.2229(3) 0.8128(6)
H46_15 H 0.9889 0.2413 0.8013
H47_15 H 0.9779 0.2149 0.8540
C45_17 C 0.9098(5) 0.0979(4) 0.5074(10)
H61_17 H 0.9047 0.0791 0.4884
C46_17 C 0.9498(5) 0.1472(3) 0.4982(9)
H62_17 H 0.9448 0.1592 0.4692
H63_17 H 0.9713 0.1545 0.4959
H64_17 H 0.9443 0.1488 0.5435
C47_17 C 0.9412(4) 0.1088(3) 0.4196(8)
H65_17 H 0.9334 0.0872 0.4204
H66_17 H 0.9629 0.1192 0.4137
H67_17 H 0.9321 0.1138 0.3830
O8_17 O 0.71732(16) 0.12215(11) 0.8163(3)
O9_16 O 0.71935(14) 0.06751(10) 0.6630(3)
O10_15 O 0.79224(15) 0.12552(10) 0.8120(3)
N7_17 N 0.74561(16) 0.09987(11) 0.7446(3)
N8_15 N 0.76924(17) 0.09486(12) 0.7248(3)
C48_17 C 0.69394(25) 0.10427(18) 0.7786(5)
C49_15 C 0.66649(28) 0.1034(2) 0.7940(5)
H68_15 H 0.6660 0.1158 0.8279
C50_15 C 0.6407(4) 0.0846(3) 0.7598(7)
H69_15 H 0.6224 0.0834 0.7718
C51_15 C 0.6414(4) 0.0675(3) 0.7082(7)
H70_15 H 0.6237 0.0547 0.6846
C52_17 C 0.6688(3) 0.0694(2) 0.6909(5)
H71_16 H 0.6695 0.0585 0.6540
C53_17 C 0.69447(23) 0.08677(17) 0.7271(4)
C54_17 C 0.72097(21) 0.08471(15) 0.7095(4)
C55_15 C 0.79185(23) 0.10941(16) 0.7623(4)
C56_15 C 0.82045(28) 0.1096(2) 0.7473(6)
H72_15 H 0.8343 0.1288 0.7261
H73_15 H 0.8159 0.0935 0.7150
C57_15 C 0.8357(3) 0.1053(2) 0.8043(7)
H74_15 H 0.8563 0.1103 0.7919
H75_15 H 0.8370 0.1185 0.8410
C58_15 C 0.8180(4) 0.0736(3) 0.8244(7)
H76_15 H 0.7984 0.0696 0.8412
H77_15 H 0.8144 0.0607 0.7855
C59_15 C 0.8336(6) 0.0656(5) 0.8770(9)
H78_15 H 0.8368 0.0786 0.9154
H79_15 H 0.8536 0.0709 0.8600
C60_15 C 0.8194(9) 0.0343(7) 0.9016(15)
H80_15 H 0.7988 0.0277 0.9167
H81_15 H 0.8184 0.0209 0.8657
C61_15 C 0.8398(9) 0.0325(7) 0.9645(17)
H82_15 H 0.8422 0.0475 0.9977
H83_15 H 0.8599 0.0382 0.9477
C62_15 C 0.8270(14) 0.0018(8) 1.000(3)
C65_17 C 0.6218(6) 0.0074(4) 0.3232(8)
C66_17 C 0.6264(4) 0.0237(3) 0.2588(9)
H86_17 H 0.6442 0.0420 0.2496
C67_17 C 0.6032(4) 0.0103(2) 0.2143(7)
H87_17 H 0.6049 0.0199 0.1734
C68_14 C 0.6482(6) 0.0240(4) 0.3707(9)
H88_14 H 0.6414 0.0298 0.4106
H89_14 H 0.6639 0.0425 0.3494
O11_9 O 0.76783(16) 0.15372(11) 0.8949(3)
N10_9 N 0.77809(17) 0.17251(12) 0.7755(3)
Mn4_9 Mn 0.91161(3) 0.20686(2) 0.51451(6)
H5_17 H 0.9917 0.4805 0.1259
C10_17 C 0.9858(5) 0.4573(6) 0.2046(9)
H7_17 H 0.9678 0.4425 0.1806
H8_17 H 0.9797 0.4703 0.2273
C11_17 C 0.9877(4) 0.4411(6) 0.2540(9)
H9_17 H 0.9977 0.4307 0.2353
C12_17 C 0.9609(5) 0.4171(6) 0.2965(10)
H11_17 H 0.9470 0.4002 0.2682
H12_17 H 0.9685 0.4091 0.3311
C13_17 C 0.9430(4) 0.4327(6) 0.3306(9)
H13_17 H 0.9344 0.4394 0.2956
H14_14 H 0.9575 0.4506 0.3558
C14_14 C 0.9172(5) 0.4107(9) 0.3781(11)
H15_14 H 0.9044 0.3917 0.3544
H16_14 H 0.9262 0.4060 0.4159
C15_14 C 0.8964(7) 0.4230(11) 0.4055(14)
H17_14 H 0.8862 0.4265 0.3683
H18_14 H 0.9090 0.4424 0.4281
C16_14 C 0.8739(7) 0.4017(11) 0.4518(16)
H19_14 H 0.8839 0.3969 0.4873
H20_14 H 0.8600 0.3830 0.4285
C17_14 C 0.8589(6) 0.4141(8) 0.4770(13)
H21_14 H 0.8445 0.4142 0.4451
H22_14 H 0.8725 0.4348 0.4924
C18_14 C 0.8451(11) 0.3956(16) 0.527(3)
H23_14 H 0.8305 0.3754 0.5109
H24_14 H 0.8596 0.3940 0.5561
C19_14 C 0.8292(10) 0.4098(15) 0.5636(19)
H25_14 H 0.8306 0.4076 0.6111
H26_14 H 0.8387 0.4310 0.5524
H27_14 H 0.8081 0.3997 0.5506
C20_17 C 0.9903(3) 0.3826(4) 0.1530(6)
H28_17 H 0.9776 0.3902 0.1408
C21_17 C 0.9818(2) 0.3628(3) 0.2040(7)
H29_17 H 0.9640 0.3578 0.2278
C22_17 C 0.99815(19) 0.35005(28) 0.2212(6)
C25_15 C 0.9890(2) 0.3274(4) 0.2776(7)
H33_15 H 0.9924 0.3109 0.2642
O9_17 O 0.98518(10) 0.38602(14) 0.0037(3)
N9_12 N 0.92763(18) 0.24407(24) 0.4390(4)
H71_17 H 0.9444 0.3362 0.0127
C63_18 C 0.9391(4) 0.2452(5) 0.3907(9)
H84_18 H 0.9384 0.2271 0.3785
C64_18 C 0.9540(4) 0.2688(6) 0.3459(12)
H85_15 H 0.9689 0.2693 0.3176
C65_18 C 0.9478(4) 0.2885(6) 0.3435(8)
C66_18 C 0.9361(3) 0.2931(4) 0.4079(9)
H86_18 H 0.9356 0.3109 0.4171
C67_18 C 0.9263(3) 0.2699(4) 0.4524(7)
H87_18 H 0.9184 0.2716 0.4933
C68_15 C 0.9576(4) 0.3149(6) 0.2960(9)
H88_15 H 0.9450 0.3081 0.2561
H89_15 H 0.9548 0.3306 0.3173
Mn1_18 Mn 0.91103(3) 0.26650(2) 0.69998(6)
O1_16 O 0.91936(16) 0.30117(11) 0.6554(3)
O2_18 O 0.83763(13) 0.27437(9) 0.7569(3)
O3_18 O 0.89571(14) 0.22993(10) 0.7496(3)
N1_18 N 0.87471(16) 0.26367(11) 0.7366(3)
N2_18 N 0.85795(16) 0.23862(11) 0.7775(3)
N3_18 N 0.94166(20) 0.29010(14) 0.7870(4)
C1_16 C 0.90357(23) 0.31522(16) 0.6515(4)
C2_16 C 0.9138(3) 0.3395(2) 0.6095(6)
H1_16 H 0.9301 0.3436 0.5812
C3_16 C 0.9020(4) 0.3580(3) 0.6066(7)
H2_16 H 0.9109 0.3754 0.5798
C4_16 C 0.8764(3) 0.3505(2) 0.6447(7)
H3_16 H 0.8673 0.3626 0.6430
C5_18 C 0.86476(25) 0.32574(18) 0.6839(5)
H4_18 H 0.8473 0.3207 0.7089
C6_18 C 0.87763(22) 0.30789(15) 0.6885(4)
C7_18 C 0.86250(21) 0.28098(14) 0.7299(4)
C8_18 C 0.87101(22) 0.22259(15) 0.7811(4)
C9_18 C 0.85797(25) 0.19514(17) 0.8217(4)
H5_18 H 0.8528 0.1779 0.7926
H6_18 H 0.8391 0.1922 0.8414
C10_18 C 0.8760(6) 0.1952(4) 0.8713(9)
H7_18 H 0.8908 0.1920 0.8473
H8_18 H 0.8630 0.1761 0.8940
C11_18 C 0.8922(6) 0.2133(4) 0.9207(9)
H9_18 H 0.9026 0.2337 0.9020
H10_18 H 0.8775 0.2129 0.9525
C12_18 C 0.9162(6) 0.2105(4) 0.9632(10)
H11_18 H 0.9331 0.2135 0.9349
H12_18 H 0.9242 0.2261 0.9978
C13_18 C 0.9006(6) 0.1770(4) 0.9973(9)
H13_18 H 0.8939 0.1617 0.9623
C20_18 C 0.9507(4) 0.2744(2) 0.8197(6)
H28_18 H 0.9431 0.2541 0.8075
C21_18 C 0.9705(3) 0.2857(2) 0.8707(7)
H29_18 H 0.9755 0.2729 0.8945
C22_18 C 0.98328(28) 0.3148(2) 0.8879(6)
C23_18 C 0.9752(3) 0.3309(2) 0.8488(6)
H30_18 H 0.9842 0.3519 0.8552
C24_18 C 0.9539(3) 0.3172(2) 0.7996(5)
H31_18 H 0.9485 0.3292 0.7743
H32_18 H 0.9959 0.3311 0.9830
Mn2_18 Mn 0.81328(3) 0.23482(2) 0.79640(6)
O4_18 O 0.82083(16) 0.24797(11) 0.8832(3)
O6_18 O 0.80019(13) 0.21476(9) 0.7124(2)
O7_18 O 0.77303(18) 0.23966(13) 0.7921(4)
N4_18 N 0.79003(17) 0.19371(12) 0.8266(3)
N6_18 N 0.73231(25) 0.21566(19) 0.8547(6)
C26_18 C 0.81171(25) 0.23320(18) 0.9398(5)
C27_18 C 0.8200(3) 0.2497(2) 0.9972(6)
H34_18 H 0.8321 0.2708 0.9950
C31_18 C 0.79316(24) 0.20176(17) 0.9432(4)
C32_18 C 0.78321(23) 0.18224(16) 0.8856(4)
C33_18 C 0.78404(21) 0.18537(15) 0.7189(4)
C34_16 C 0.77123(22) 0.16718(15) 0.6592(4)
H38_16 H 0.7842 0.1777 0.6211
H39_16 H 0.7705 0.1478 0.6645
C35_16 C 0.73921(25) 0.16147(18) 0.6456(4)
H40_16 H 0.7401 0.1808 0.6366
H41_18 H 0.7266 0.1526 0.6851
C36_16 C 0.7249(3) 0.1407(2) 0.5875(5)
H42_16 H 0.7369 0.1501 0.5475
H43_16 H 0.7249 0.1218 0.5955
C37_16 C 0.6923(3) 0.1334(2) 0.5753(5)
H44_16 H 0.6923 0.1520 0.5635
H45_16 H 0.6807 0.1256 0.6164
C38_16 C 0.6773(4) 0.1105(3) 0.5206(6)
H46_16 H 0.6777 0.0921 0.5321
H47_16 H 0.6887 0.1185 0.4794
C39_12 C 0.6454(4) 0.1026(3) 0.5090(8)
H48_12 H 0.6450 0.1210 0.4973
H49_12 H 0.6341 0.0949 0.5505
C40_12 C 0.6298(4) 0.0800(3) 0.4565(8)
H50_12 H 0.6430 0.0863 0.4174
H51_12 H 0.6275 0.0608 0.4717
C41_12 C 0.5989(5) 0.0743(4) 0.4347(9)
H52_12 H 0.6011 0.0928 0.4149
H53_12 H 0.5860 0.0695 0.4738
C42_12 C 0.5841(6) 0.0493(4) 0.3858(8)
H54_12 H 0.5956 0.0555 0.3442
H55_12 H 0.5847 0.0317 0.4028
C43_12 C 0.5512(6) 0.0404(4) 0.3713(10)
H56_12 H 0.5513 0.0576 0.3498
H57_12 H 0.5409 0.0373 0.4140
C44_10 C 0.5329(6) 0.0141(4) 0.3309(15)
H59_10 H 0.5124 0.0104 0.3295
H60_10 H 0.5411 0.0176 0.2862
C45_18 C 0.7568(5) 0.2355(4) 0.8260(10)
H61_18 H 0.7619 0.2543 0.8450
C46_18 C 0.7168(5) 0.1862(3) 0.8352(9)
H62_18 H 0.7218 0.1742 0.8642
H63_18 H 0.6953 0.1789 0.8375
H64_18 H 0.7223 0.1846 0.7899
C47_18 C 0.7254(4) 0.2246(3) 0.9138(8)
H65_18 H 0.7332 0.2462 0.9130
H66_18 H 0.7037 0.2142 0.9197
H67_18 H 0.7345 0.2196 0.9504
O8_18 O 0.94934(16) 0.21119(11) 0.5171(3)
O9_18 O 0.94731(14) 0.26583(10) 0.6704(3)
O10_16 O 0.87442(15) 0.20782(10) 0.5214(3)
N7_18 N 0.92105(16) 0.23347(11) 0.5888(3)
N8_16 N 0.89742(17) 0.23848(12) 0.6086(3)
C48_18 C 0.97272(25) 0.22907(18) 0.5548(5)
C52_18 C 0.9978(3) 0.2640(2) 0.6425(5)
H71_18 H 0.9971 0.2749 0.6794
C53_18 C 0.97219(23) 0.24657(17) 0.6063(4)
C54_18 C 0.94569(21) 0.24863(15) 0.6239(4)
C55_16 C 0.87481(23) 0.22393(16) 0.5711(4)
C56_16 C 0.84621(28) 0.2238(2) 0.5861(6)
H72_16 H 0.8323 0.2046 0.6073
H73_16 H 0.8507 0.2399 0.6184
C57_16 C 0.8309(3) 0.2281(2) 0.5291(7)
H74_16 H 0.8103 0.2231 0.5415
H75_16 H 0.8296 0.2149 0.4924
C58_16 C 0.8486(4) 0.2598(3) 0.5090(7)
H76_16 H 0.8682 0.2638 0.4922
H77_16 H 0.8522 0.2727 0.5479
C59_16 C 0.8330(6) 0.2678(5) 0.4564(9)
H78_16 H 0.8298 0.2548 0.4180
H79_16 H 0.8130 0.2625 0.4734
C60_16 C 0.8472(9) 0.2991(7) 0.4318(15)
H80_16 H 0.8678 0.3057 0.4167
H81_16 H 0.8482 0.3125 0.4677
C61_16 C 0.8268(9) 0.3009(7) 0.3689(17)
H82_16 H 0.8244 0.2859 0.3357
H83_16 H 0.8067 0.2952 0.3857
C62_16 C 0.8396(14) 0.3316(8) 0.334(3)
H90_16 H 0.841827 0.348413 0.368911
H91_10 H 0.824558 0.32985 0.294332
H92_10 H 0.86148 0.337941 0.313103
H14_15 H 0.7092 0.8827 0.9775
C14_15 C 0.7495(5) 0.9226(9) 0.9552(11)
H15_15 H 0.7623 0.9416 0.9789
H16_15 H 0.7405 0.9273 0.9174
C15_15 C 0.7703(7) 0.9103(11) 0.9278(14)
H17_15 H 0.7805 0.9068 0.9650
H18_15 H 0.7577 0.8909 0.9052
C16_15 C 0.7928(7) 0.9316(11) 0.8815(16)
H19_15 H 0.7828 0.9364 0.8460
H20_15 H 0.8067 0.9503 0.9048
C17_15 C 0.8078(6) 0.9192(8) 0.8563(13)
H21_15 H 0.8222 0.9191 0.8882
H22_15 H 0.7942 0.8985 0.8409
C18_15 C 0.8216(11) 0.9377(16) 0.806(3)
H23_15 H 0.8362 0.9579 0.8224
H24_15 H 0.8071 0.9393 0.7772
C19_15 C 0.8375(10) 0.9235(15) 0.7697(19)
H25_15 H 0.8361 0.9257 0.7222
H26_15 H 0.8280 0.9023 0.7809
H27_15 H 0.8586 0.9336 0.7827
C28_15 C 0.5753(3) 0.8111(4) 0.9427(7)
H35_15 H 0.5701 0.8176 0.9037
C29_15 C 0.5878(3) 0.7930(4) 0.9385(6)
H36_15 H 0.5904 0.7861 0.8971
C30_15 C 0.5964(2) 0.7851(3) 0.9958(5)
H37_15 H 0.6061 0.7736 0.9929
H58_10 H 0.4670 0.0033 0.6502
H14_16 H 0.1173 0.8264 0.9775
C14_16 C 0.0774(9) 0.8268(7) 0.9552(11)
H15_16 H 0.0584 0.8206 0.9789
H16_16 H 0.0727 0.8131 0.9174
C15_16 C 0.0897(11) 0.8599(8) 0.9278(14)
H17_16 H 0.0932 0.8736 0.9650
H18_16 H 0.1091 0.8667 0.9052
C16_16 C 0.0684(11) 0.8611(8) 0.8815(16)
H19_16 H 0.0636 0.8463 0.8460
H20_16 H 0.0497 0.8563 0.9048
C17_16 C 0.0808(8) 0.8885(6) 0.8563(13)
H21_16 H 0.0809 0.9030 0.8882
H22_16 H 0.1015 0.8956 0.8409
C18_16 C 0.0623(16) 0.8838(12) 0.806(3)
H23_16 H 0.0421 0.8782 0.8224
H24_16 H 0.0607 0.8677 0.7772
C19_16 C 0.0765(15) 0.9139(11) 0.7697(19)
H25_16 H 0.0743 0.9103 0.7222
H26_16 H 0.0977 0.9256 0.7809
H27_16 H 0.0664 0.9249 0.7827
C28_16 C 0.1889(4) 0.7641(3) 0.9427(7)
H35_16 H 0.1824 0.7524 0.9037
C29_16 C 0.2070(4) 0.7947(3) 0.9385(6)
H36_16 H 0.2139 0.8042 0.8971
C30_16 C 0.2149(3) 0.8112(2) 0.9958(5)
H37_16 H 0.2264 0.8324 0.9929
C25_16 C 0.9941(4) 0.6717(3) 0.0557(7)
H33_16 H 0.9776 0.6518 0.0691
C49_16 C 0.99983(28) 0.7700(2) 0.4606(5)
H68_16 H 0.9994 0.7824 0.4945
C50_16 C 0.9741(4) 0.7512(3) 0.4264(7)
H69_16 H 0.9558 0.7500 0.4384
C51_16 C 0.9748(4) 0.7341(3) 0.3748(7)
H70_16 H 0.9571 0.7213 0.3512
H85_16 H 0.9360 0.6337 0.0157
C68_16 C 0.9816(6) 0.6906(4) 0.0373(9)
H88_16 H 0.9748 0.6964 0.0772
H89_16 H 0.9973 0.7091 0.0160
H92_11 H 0.00460723 0.809794 0.0202307
C44_11 C 0.6807(4) 0.8145(5) 0.0025(15)
H59_11 H 0.6770 0.8313 0.0039
H60_11 H 0.6842 0.8098 0.0472
H91_11 H 0.996517 0.838625 0.0390017
H91_12 H 0.161375 0.157891 0.0390017
H92_12 H 0.190206 0.194814 0.0202307
C44_12 C 0.1855(5) 0.8663(6) 0.0025(15)
H59_12 H 0.1687 0.8458 0.0039
H60_12 H 0.1902 0.8745 0.0472
C39_13 C 0.2095(3) 0.9788(4) 0.8244(8)
H48_13 H 0.1907 0.9784 0.8361
H49_13 H 0.2059 0.9675 0.7829
C40_13 C 0.2165(3) 0.9632(4) 0.8769(8)
H50_13 H 0.2234 0.9764 0.9160
H51_13 H 0.2334 0.9609 0.8617
C41_13 C 0.1913(3) 0.9323(5) 0.8987(9)
H52_13 H 0.1750 0.9345 0.9185
H53_13 H 0.1832 0.9194 0.8596
C42_13 C 0.2015(4) 0.9175(6) 0.9476(8)
H54_13 H 0.2068 0.9290 0.9892
H55_13 H 0.2197 0.9181 0.9306
C43_13 C 0.1775(4) 0.8846(6) 0.9621(10)
H56_13 H 0.1604 0.8847 0.9836
H57_13 H 0.1703 0.8743 0.9194
H58_11 H 0.2030 0.8664 0.9836
C44_13 C 0.1337(6) 0.3193(4) 0.0025(15)
H59_13 H 0.1542 0.3230 0.0039
H60_13 H 0.1255 0.3158 0.0472
C39_14 C 0.0212(4) 0.2308(3) 0.8244(8)
H48_14 H 0.0216 0.2124 0.8361
H49_14 H 0.0325 0.2385 0.7829
C40_14 C 0.0368(4) 0.2534(3) 0.8769(8)
H50_14 H 0.0236 0.2471 0.9160
H51_14 H 0.0391 0.2726 0.8617
C41_14 C 0.0677(5) 0.2591(4) 0.8987(9)
H52_14 H 0.0655 0.2406 0.9185
H53_14 H 0.0806 0.2639 0.8596
C42_14 C 0.0825(6) 0.2841(4) 0.9476(8)
H54_14 H 0.0710 0.2779 0.9892
H55_14 H 0.0819 0.3017 0.9306
C43_14 C 0.1154(6) 0.2930(4) 0.9621(10)
H56_14 H 0.1153 0.2758 0.9836
H57_14 H 0.1257 0.2961 0.9194
H58_12 H 0.1336 0.3367 0.9836
H91_13 H 0.842109 0.00348328 0.0390017
H92_13 H 0.805186 0.995393 0.0202307
O1_17 O 0.36550(11) 0.95153(11) 0.9887(3)
C1_17 C 0.35145(16) 0.92169(17) 0.9848(4)
C2_17 C 0.3272(2) 0.9077(2) 0.9428(6)
H1_17 H 0.3231 0.9199 0.9145
C3_17 C 0.3087(3) 0.8774(2) 0.9399(7)
H2_17 H 0.2913 0.8689 0.9131
C4_17 C 0.3162(2) 0.8593(2) 0.9780(7)
H3_17 H 0.3041 0.8381 0.9763
C34_17 C 0.49949(15) 0.93739(16) 0.9925(4)
H38_17 H 0.4890 0.9399 0.9544
H39_17 H 0.5189 0.9561 0.9978
C35_17 C 0.50520(18) 0.91108(18) 0.9789(4)
H40_17 H 0.4859 0.8927 0.9699
C36_17 C 0.5260(2) 0.9176(2) 0.9208(5)
H42_17 H 0.5166 0.9202 0.8808
H43_17 H 0.5449 0.9365 0.9288
C37_17 C 0.5333(2) 0.8923(2) 0.9086(5)
H44_17 H 0.5147 0.8737 0.8968
H45_17 H 0.5411 0.8885 0.9497
C38_17 C 0.5562(3) 0.9002(2) 0.8539(6)
H46_17 H 0.5746 0.9190 0.8654
H47_17 H 0.5482 0.9036 0.8127
C39_15 C 0.5641(3) 0.8762(3) 0.8423(8)
H48_15 H 0.5457 0.8574 0.8306
H49_15 H 0.5718 0.8726 0.8838
C40_15 C 0.5867(3) 0.8832(3) 0.7898(8)
H50_15 H 0.5804 0.8901 0.7507
H51_15 H 0.6059 0.9001 0.8050
C41_15 C 0.5924(4) 0.8580(3) 0.7680(9)
H52_15 H 0.5739 0.8417 0.7482
H53_15 H 0.5972 0.8499 0.8071
C42_15 C 0.6174(4) 0.8682(4) 0.7191(8)
H54_15 H 0.6112 0.8735 0.6775
H55_15 H 0.6350 0.8864 0.7361
C43_15 C 0.6263(4) 0.8442(4) 0.7046(10)
H56_15 H 0.6091 0.8271 0.6831
H57_15 H 0.6294 0.8370 0.7473
C44_14 C 0.6526(4) 0.8522(5) 0.6642(15)
H58_13 H 0.6700 0.8697 0.6831
H59_14 H 0.6563 0.8354 0.6628
H60_14 H 0.6491 0.8569 0.6195
O10_17 O 0.45885(10) 0.99994(11) 0.8547(3)
N8_17 N 0.42819(12) 0.99228(12) 0.9419(3)
C55_17 C 0.44274(16) 0.98422(16) 0.9044(4)
C56_17 C 0.4429(2) 0.95578(19) 0.9194(6)
H72_17 H 0.4621 0.9611 0.9406
H73_17 H 0.4268 0.9442 0.9517
C57_17 C 0.4386(2) 0.9362(2) 0.8624(7)
H74_17 H 0.4436 0.9206 0.8748
H75_17 H 0.4518 0.9481 0.8257
C58_17 C 0.4069(3) 0.9222(3) 0.8423(7)
H76_17 H 0.4029 0.9378 0.8255
H77_17 H 0.3940 0.9129 0.8812
C59_17 C 0.3989(5) 0.8986(4) 0.7897(9)
H78_17 H 0.4119 0.9084 0.7513
H79_17 H 0.4042 0.8839 0.8067
C60_17 C 0.3676(7) 0.8815(5) 0.7651(15)
H80_17 H 0.3610 0.8955 0.7500
H81_17 H 0.3542 0.8691 0.8010
C61_17 C 0.3658(7) 0.8593(6) 0.7022(17)
H82_17 H 0.3808 0.8719 0.6690
H83_17 H 0.3715 0.8449 0.7190
C62_17 C 0.3351(8) 0.8414(11) 0.667(3)
H90_17 H 0.318254 0.826748 0.702244
H91_14 H 0.336817 0.828041 0.627665
H92_14 H 0.328726 0.856873 0.646436
O1_18 O 0.04847(11) 0.41397(16) 0.9887(3)
C1_18 C 0.07831(17) 0.42976(23) 0.9848(4)
C2_18 C 0.0923(2) 0.4195(3) 0.9428(6)
H1_18 H 0.0801 0.4032 0.9145
C3_18 C 0.1226(2) 0.4313(4) 0.9399(7)
H2_18 H 0.1311 0.4224 0.9131
C4_18 C 0.1407(2) 0.4569(3) 0.9780(7)
H3_18 H 0.1619 0.4660 0.9763
C34_18 C 0.06261(16) 0.56210(22) 0.9925(4)
H38_18 H 0.0601 0.5491 0.9544
H39_18 H 0.0439 0.5628 0.9978
C35_18 C 0.08892(18) 0.59412(25) 0.9789(4)
H40_18 H 0.1073 0.5932 0.9699
C36_18 C 0.0824(2) 0.6084(3) 0.9208(5)
H42_18 H 0.0798 0.5964 0.8808
H43_18 H 0.0635 0.6084 0.9288
C37_18 C 0.1077(2) 0.6410(3) 0.9086(5)
H44_18 H 0.1263 0.6410 0.8968
H45_18 H 0.1115 0.6526 0.9497
C38_18 C 0.0998(2) 0.6560(4) 0.8539(6)
H46_18 H 0.0810 0.6556 0.8654
H47_18 H 0.0964 0.6446 0.8127
C39_16 C 0.1238(3) 0.6879(4) 0.8423(8)
H48_16 H 0.1426 0.6883 0.8306
H49_16 H 0.1274 0.6992 0.8838
C40_16 C 0.1168(3) 0.7035(4) 0.7898(8)
H50_16 H 0.1099 0.6903 0.7507
H51_16 H 0.0999 0.7058 0.8050
C41_16 C 0.1420(3) 0.7344(5) 0.7680(9)
H52_16 H 0.1583 0.7322 0.7482
H53_16 H 0.1501 0.7473 0.8071
C42_16 C 0.1318(4) 0.7492(6) 0.7191(8)
H54_16 H 0.1265 0.7377 0.6775
H55_16 H 0.1136 0.7486 0.7361
C43_16 C 0.1558(4) 0.7821(6) 0.7046(10)
H56_16 H 0.1729 0.7820 0.6831
H57_16 H 0.1630 0.7924 0.7473
C44_15 C 0.1478(5) 0.8004(6) 0.6642(15)
H58_14 H 0.1303 0.8003 0.6831
H59_15 H 0.1646 0.8209 0.6628
H60_15 H 0.1431 0.7922 0.6195
O10_18 O 0.00006(11) 0.45891(15) 0.8547(3)
N8_18 N 0.00772(12) 0.43591(17) 0.9419(3)
C55_18 C 0.01578(16) 0.45852(23) 0.9044(4)
C56_18 C 0.04422(19) 0.48712(28) 0.9194(6)
H72_18 H 0.0389 0.5010 0.9406
H73_18 H 0.0558 0.4826 0.9517
C57_18 C 0.0638(2) 0.5024(3) 0.8624(7)
H74_18 H 0.0794 0.5230 0.8748
H75_18 H 0.0519 0.5037 0.8257
C58_18 C 0.0778(3) 0.4847(4) 0.8423(7)
H76_18 H 0.0622 0.4651 0.8255
H77_18 H 0.0871 0.4811 0.8812
C59_18 C 0.1014(4) 0.5003(6) 0.7897(9)
H78_18 H 0.0916 0.5035 0.7513
H79_18 H 0.1161 0.5203 0.8067
C60_18 C 0.1185(5) 0.4861(9) 0.7651(15)
H80_18 H 0.1045 0.4655 0.7500
H81_18 H 0.1309 0.4851 0.8010
C61_18 C 0.1407(6) 0.5065(9) 0.7022(17)
H82_18 H 0.1281 0.5089 0.6690
H83_18 H 0.1551 0.5266 0.7190
C62_18 C 0.1586(11) 0.4937(14) 0.667(3)
H90_18 H 0.173252 0.491506 0.702244
H91_15 H 0.171959 0.508775 0.627665
H92_15 H 0.143127 0.471853 0.646436
H58_15 H 0.0033 0.5364 0.3498
H14_17 H 0.2908 0.1173 0.0225
C14_17 C 0.2505(5) 0.0774(9) 0.0448(11)
H15_17 H 0.2377 0.0584 0.0211
H16_17 H 0.2595 0.0727 0.0826
C15_17 C 0.2297(7) 0.0897(11) 0.0722(14)
H17_17 H 0.2195 0.0932 0.0350
H18_17 H 0.2423 0.1091 0.0948
C16_17 C 0.2072(7) 0.0684(11) 0.1185(16)
H19_17 H 0.2172 0.0636 0.1540
H20_17 H 0.1933 0.0497 0.0952
C17_17 C 0.1922(6) 0.0808(8) 0.1437(13)
H21_17 H 0.1778 0.0809 0.1118
H22_17 H 0.2058 0.1015 0.1591
C18_17 C 0.1784(11) 0.0623(16) 0.194(3)
H23_17 H 0.1638 0.0421 0.1776
H24_17 H 0.1929 0.0607 0.2228
C19_17 C 0.1625(10) 0.0765(15) 0.2303(19)
H25_17 H 0.1639 0.0743 0.2778
H26_17 H 0.1720 0.0977 0.2191
H27_17 H 0.1414 0.0664 0.2173
C28_17 C 0.4247(3) 0.1889(4) 0.0573(7)
H35_17 H 0.4299 0.1824 0.0963
C29_17 C 0.4122(3) 0.2070(4) 0.0615(6)
H36_17 H 0.4096 0.2139 0.1029
C30_17 C 0.4036(2) 0.2149(3) 0.0042(5)
H37_17 H 0.3939 0.2264 0.0071
C25_17 C 0.3223(2) 0.9941(4) 0.9443(7)
H33_17 H 0.3257 0.9776 0.9309
C49_17 C 0.22979(19) 0.99983(28) 0.5394(5)
H68_17 H 0.2169 0.9994 0.5055
C50_17 C 0.2228(2) 0.9741(4) 0.5736(7)
H69_17 H 0.2057 0.9558 0.5616
C51_17 C 0.2406(2) 0.9748(4) 0.6252(7)
H70_17 H 0.2357 0.9571 0.6488
H85_17 H 0.3022 0.9360 0.9843
C68_17 C 0.2909(4) 0.9816(6) 0.9627(9)
H88_17 H 0.2783 0.9748 0.9228
H89_17 H 0.2881 0.9973 0.9840
C25_18 C 0.0059(4) 0.3283(3) 0.9443(7)
H33_18 H 0.0224 0.3482 0.9309
C49_18 C 0.00017(28) 0.2300(2) 0.5394(5)
H68_18 H 0.0006 0.2176 0.5055
C50_18 C 0.0259(4) 0.2488(3) 0.5736(7)
H69_18 H 0.0442 0.2500 0.5616
C51_18 C 0.0252(4) 0.2659(3) 0.6252(7)
H70_18 H 0.0429 0.2787 0.6488
H85_18 H 0.0640 0.3663 0.9843
C68_18 C 0.0184(6) 0.3094(4) 0.9627(9)
H88_18 H 0.0252 0.3036 0.9228
H89_18 H 0.0027 0.2909 0.9840
H14_18 H 0.8827 0.1736 0.0225
C14_18 C 0.9226(9) 0.1732(7) 0.0448(11)
H15_18 H 0.9416 0.1794 0.0211
H16_18 H 0.9273 0.1869 0.0826
C15_18 C 0.9103(11) 0.1401(8) 0.0722(14)
H17_18 H 0.9068 0.1264 0.0350
H18_18 H 0.8909 0.1333 0.0948
C16_18 C 0.9316(11) 0.1389(8) 0.1185(16)
H19_18 H 0.9364 0.1537 0.1540
H20_18 H 0.9503 0.1437 0.0952
C17_18 C 0.9192(8) 0.1115(6) 0.1437(13)
H21_18 H 0.9191 0.0970 0.1118
H22_18 H 0.8985 0.1044 0.1591
C18_18 C 0.9377(16) 0.1162(12) 0.194(3)
H23_18 H 0.9579 0.1218 0.1776
H24_18 H 0.9393 0.1323 0.2228
C19_18 C 0.9235(15) 0.0861(11) 0.2303(19)
H25_18 H 0.9257 0.0897 0.2778
H26_18 H 0.9023 0.0744 0.2191
H27_18 H 0.9336 0.0751 0.2173
C28_18 C 0.8111(4) 0.2359(3) 0.0573(7)
H35_18 H 0.8176 0.2476 0.0963
C29_18 C 0.7930(4) 0.2053(3) 0.0615(6)
H36_18 H 0.7861 0.1958 0.1029
C30_18 C 0.7851(3) 0.1888(2) 0.0042(5)
H37_18 H 0.7736 0.1676 0.0071
H58_16 H 0.5330 0.9967 0.3498
C44_16 C 0.3193(4) 0.1855(5) 0.9975(15)
H59_16 H 0.3230 0.1687 0.9961
H60_16 H 0.3158 0.1902 0.9528
H91_16 H 0.00348328 0.161375 0.960998
H92_16 H 0.995393 0.190206 0.979769
C39_17 C 0.7905(3) 0.0212(4) 0.1756(8)
H48_17 H 0.8093 0.0216 0.1639
H49_17 H 0.7941 0.0325 0.2171
C40_17 C 0.7835(3) 0.0368(4) 0.1231(8)
H50_17 H 0.7766 0.0236 0.0840
H51_17 H 0.7666 0.0391 0.1383
C41_17 C 0.8087(3) 0.0677(5) 0.1013(9)
H52_17 H 0.8250 0.0655 0.0815
H53_17 H 0.8168 0.0806 0.1404
C42_17 C 0.7985(4) 0.0825(6) 0.0524(8)
H54_17 H 0.7932 0.0710 0.0108
H55_17 H 0.7803 0.0819 0.0694
C43_17 C 0.8225(4) 0.1154(6) 0.0379(10)
H56_17 H 0.8396 0.1153 0.0164
H57_17 H 0.8297 0.1257 0.0806
H58_17 H 0.7970 0.1336 0.0164
C44_17 C 0.8145(5) 0.1337(6) 0.9975(15)
H59_17 H 0.8313 0.1542 0.9961
H60_17 H 0.8098 0.1255 0.9528
H91_17 H 0.838625 0.842109 0.960998
H92_17 H 0.809794 0.805186 0.979769
H92_18 H 0.194814 0.00460723 0.979769
H91_18 H 0.157891 0.996517 0.960998
C39_18 C 0.9788(4) 0.7692(3) 0.1756(8)
H48_18 H 0.9784 0.7876 0.1639
H49_18 H 0.9675 0.7615 0.2171
C40_18 C 0.9632(4) 0.7466(3) 0.1231(8)
H50_18 H 0.9764 0.7529 0.0840
H51_18 H 0.9609 0.7274 0.1383
C41_18 C 0.9323(5) 0.7409(4) 0.1013(9)
H52_18 H 0.9345 0.7594 0.0815
H53_18 H 0.9194 0.7361 0.1404
C42_18 C 0.9175(6) 0.7159(4) 0.0524(8)
H54_18 H 0.9290 0.7221 0.0108
H55_18 H 0.9181 0.6983 0.0694
C43_18 C 0.8846(6) 0.7070(4) 0.0379(10)
H56_18 H 0.8847 0.7242 0.0164
H57_18 H 0.8743 0.7039 0.0806
H58_18 H 0.8664 0.6633 0.0164
C44_18 C 0.8663(6) 0.6807(4) 0.9975(15)
H59_18 H 0.8458 0.6770 0.9961
H60_18 H 0.8745 0.6842 0.9528
loop_
_geom_bond_atom_site_label_1
_geom_bond_atom_site_label_2
_geom_bond_site_symmetry_1
_geom_bond_site_symmetry_2
O1 C1 1_555 1_555
C1 C2 1_555 1_555
C2 H1 1_555 1_555
C3 C2 1_555 1_555
H2 C3 1_555 1_555
C4 C3 1_555 1_555
H3 C4 1_555 1_555
H38 C34 1_555 1_555
H39 C34 1_555 1_555
C35 C34 1_555 1_555
H40 C35 1_555 1_555
C36 C35 1_555 1_555
H42 C36 1_555 1_555
H43 C36 1_555 1_555
C37 C36 1_555 1_555
H44 C37 1_555 1_555
H45 C37 1_555 1_555
C38 C37 1_555 1_555
H46 C38 1_555 1_555
H47 C38 1_555 1_555
C39 C38 1_555 1_555
H48 C39 1_555 1_555
H49 C39 1_555 1_555
C40 C39 1_555 1_555
H50 C40 1_555 1_555
H51 C40 1_555 1_555
C41 C40 1_555 1_555
H52 C41 1_555 1_555
H53 C41 1_555 1_555
C42 C41 1_555 1_555
H54 C42 1_555 1_555
H55 C42 1_555 1_555
C43 C42 1_555 1_555
H56 C43 1_555 1_555
H57 C43 1_555 1_555
C44 C43 1_555 1_555
H58 C44 1_555 1_555
H59 C44 1_555 1_555
H60 C44 1_555 1_555
C55 O10 1_555 1_555
C56 C55 1_555 1_555
H72 C56 1_555 1_555
H73 C56 1_555 1_555
C57 C56 1_555 1_555
H74 C57 1_555 1_555
H75 C57 1_555 1_555
C58 C57 1_555 1_555
H76 C58 1_555 1_555
H77 C58 1_555 1_555
C59 C58 1_555 1_555
H78 C59 1_555 1_555
H79 C59 1_555 1_555
C60 C59 1_555 1_555
H80 C60 1_555 1_555
H81 C60 1_555 1_555
C61 C60 1_555 1_555
H82 C61 1_555 1_555
H83 C61 1_555 1_555
C62 C61 1_555 1_555
N8 C55 1_555 1_555
C62 H90 1_555 1_555
C62 H91 1_555 1_555
C62 H92 1_555 1_555
O2 C7 1_555 1_555
O3 Mn1 1_555 1_555
N1 Mn1 1_555 1_555
N2 N1 1_555 1_555
N3 Mn1 1_555 1_555
H4 C5 1_555 1_555
C7 N1 1_555 1_555
C8 O3 1_555 1_555
C9 C8 1_555 1_555
H6 C9 1_555 1_555
H30 C23 1_555 1_555
C24 N3 1_555 1_555
H31 C24 1_555 1_555
Mn2 O2 1_555 1_555
O4 Mn2 1_555 1_555
O5 C32 1_555 1_555
O6 Mn2 1_555 1_555
O7 Mn2 1_555 1_555
N4 Mn2 1_555 1_555
N5 N4 1_555 1_555
N6 C45 1_555 1_555
C26 O4 1_555 1_555
C27 C26 1_555 1_555
H34 C27 1_555 1_555
C28 C27 1_555 1_555
H35 C28 1_555 1_555
C29 C28 1_555 1_555
H36 C29 1_555 1_555
C30 C29 1_555 1_555
H37 C30 1_555 1_555
C31 C26 1_555 1_555
C32 N4 1_555 1_555
C33 O6 1_555 1_555
C45 O7 1_555 1_555
H61 C45 1_555 1_555
C46 N6 1_555 1_555
H62 C46 1_555 1_555
H63 C46 1_555 1_555
H64 C46 1_555 1_555
C47 N6 1_555 1_555
H65 C47 1_555 1_555
H66 C47 1_555 1_555
H67 C47 1_555 1_555
Mn4 O5 1_555 1_555
N2 C8 1_555 1_555
N2 Mn2 1_555 1_555
C5 C6 1_555 1_555
C6 C7 1_555 1_555
C23 C24 1_555 1_555
N5 C33 1_555 1_555
N5 Mn4 1_555 1_555
C30 C31 1_555 1_555
C31 C32 1_555 1_555
Mn4 O8 1_555 1_555
O8 C48 1_555 1_555
N7 Mn4 1_555 1_555
C48 C49 1_555 1_555
C49 H68 1_555 1_555
C50 C49 1_555 1_555
H69 C50 1_555 1_555
C51 C50 1_555 1_555
H70 C51 1_555 1_555
C52 C51 1_555 1_555
C53 C48 1_555 1_555
N11 Mn4 1_555 1_555
N7 C54 1_555 1_555
C52 C53 1_555 1_555
C53 C54 1_555 1_555
C2_2 H1_2 1_555 1_555
C3_2 C2_2 1_555 1_555
H2_2 C3_2 1_555 1_555
C4_2 C3_2 1_555 1_555
H3_2 C4_2 1_555 1_555
N11 C63 1_555 1_555
C63 H84 1_555 1_555
C64 C63 1_555 1_555
H85 C64 1_555 1_555
Mn3 O8_2 1_555 1_555
O8_2 C48_2 1_555 1_555
N7_2 Mn3 1_555 1_555
C48_2 C49_2 1_555 1_555
C49_2 H68_2 1_555 1_555
C50_2 C49_2 1_555 1_555
H69_2 C50_2 1_555 1_555
C51_2 C50_2 1_555 1_555
H70_2 C51_2 1_555 1_555
C52_2 C51_2 1_555 1_555
C53_2 C48_2 1_555 1_555
O11 Mn3 1_555 1_555
N10 Mn3 1_555 1_555
N11_2 Mn3 1_555 1_555
N7_2 C54_2 1_555 1_555
C52_2 C53_2 1_555 1_555
C53_2 C54_2 1_555 1_555
C2_3 H1_3 1_555 1_555
C3_3 C2_3 1_555 1_555
H2_3 C3_3 1_555 1_555
C4_3 C3_3 1_555 1_555
H3_3 C4_3 1_555 1_555
N11_2 C63_2 1_555 1_555
C63_2 H84_2 1_555 1_555
C64_2 C63_2 1_555 1_555
H85_2 C64_2 1_555 1_555
O2_2 C7_2 1_555 1_555
O3_2 Mn1_2 1_555 1_555
N1_2 Mn1_2 1_555 1_555
N2_2 N1_2 1_555 1_555
N3_2 Mn1_2 1_555 1_555
H4_2 C5_2 1_555 1_555
C7_2 N1_2 1_555 1_555
C8_2 O3_2 1_555 1_555
C9_2 C8_2 1_555 1_555
H6_2 C9_2 1_555 1_555
H30_4 C23_2 1_555 1_555
C24_2 N3_2 1_555 1_555
H31_2 C24_2 1_555 1_555
Mn2_2 O2_2 1_555 1_555
O4_2 Mn2_2 1_555 1_555
O11 C32_2 1_555 1_555
O6_2 Mn2_2 1_555 1_555
O7_2 Mn2_2 1_555 1_555
N4_2 Mn2_2 1_555 1_555
N10 N4_2 1_555 1_555
N6_2 C45_2 1_555 1_555
C26_2 O4_2 1_555 1_555
C27_2 C26_2 1_555 1_555
H34_2 C27_2 1_555 1_555
C28_2 C27_2 1_555 1_555
H35_2 C28_2 1_555 1_555
C29_2 C28_2 1_555 1_555
H36_2 C29_2 1_555 1_555
C30_2 C29_2 1_555 1_555
H37_2 C30_2 1_555 1_555
C31_2 C26_2 1_555 1_555
C32_2 N4_2 1_555 1_555
C33_2 O6_2 1_555 1_555
C45_2 O7_2 1_555 1_555
H61_2 C45_2 1_555 1_555
C46_2 N6_2 1_555 1_555
H62_2 C46_2 1_555 1_555
H63_2 C46_2 1_555 1_555
H64_2 C46_2 1_555 1_555
C47_2 N6_2 1_555 1_555
H65_2 C47_2 1_555 1_555
H66_2 C47_2 1_555 1_555
H67_2 C47_2 1_555 1_555
N2_2 C8_2 1_555 1_555
N2_2 Mn2_2 1_555 1_555
C5_2 C6_2 1_555 1_555
C6_2 C7_2 1_555 1_555
C23_2 C24_2 1_555 1_555
N10 C33_2 1_555 1_555
C30_2 C31_2 1_555 1_555
C31_2 C32_2 1_555 1_555
H7 C10 1_555 1_555
H8 C10 1_555 1_555
C11 C10 1_555 1_555
H9 C11 1_555 1_555
C12 C11 1_555 1_555
H11 C12 1_555 1_555
H12 C12 1_555 1_555
C13 C12 1_555 1_555
H13 C13 1_555 1_555
H14 C13 1_555 1_555
C14 C13 1_555 1_555
H15 C14 1_555 1_555
H16 C14 1_555 1_555
C15 C14 1_555 1_555
H17 C15 1_555 1_555
H18 C15 1_555 1_555
C16 C15 1_555 1_555
H19 C16 1_555 1_555
H20 C16 1_555 1_555
C17 C16 1_555 1_555
H21 C17 1_555 1_555
H22 C17 1_555 1_555
C18 C17 1_555 1_555
H23 C18 1_555 1_555
H24 C18 1_555 1_555
C19 C18 1_555 1_555
H25 C19 1_555 1_555
H26 C19 1_555 1_555
H27 C19 1_555 1_555
H28 C20 1_555 1_555
C21 C20 1_555 1_555
H29 C21 1_555 1_555
C22 C21 1_555 1_555
C25 C22 1_555 1_555
H33_3 C25 1_555 1_555
N9 C63_3 1_555 1_555
C63_3 H84_3 1_555 1_555
C64_3 C63_3 1_555 1_555
H85_3 C64_3 1_555 1_555
C65 C64_3 1_555 1_555
C66 C65 1_555 1_555
H86 C66 1_555 1_555
C67 N9 1_555 1_555
H87 C67 1_555 1_555
C68 C25 1_555 1_555
H88 C68 1_555 1_555
H89 C68 1_555 1_555
Mn5 N9 1_555 1_555
C65 C68 1_555 1_555
C66 C67 1_555 1_555
O2_3 C7_3 1_555 1_555
O3_3 Mn1_3 1_555 1_555
N1_3 Mn1_3 1_555 1_555
N2_3 N1_3 1_555 1_555
N3_3 Mn1_3 1_555 1_555
H4_3 C5_3 1_555 1_555
C7_3 N1_3 1_555 1_555
C8_3 O3_3 1_555 1_555
C9_3 C8_3 1_555 1_555
H5_2 C9_3 1_555 1_555
H6_3 C9_3 1_555 1_555
C10_2 C9_3 1_555 1_555
H7_2 C10_2 1_555 1_555
H8_2 C10_2 1_555 1_555
C11_2 C10_2 1_555 1_555
H9_2 C11_2 1_555 1_555
H10_3 C11_2 1_555 1_555
C12_2 C11_2 1_555 1_555
H11_2 C12_2 1_555 1_555
H12_2 C12_2 1_555 1_555
C13_2 C12_2 1_555 1_555
H13_2 C13_2 1_555 1_555
H14_2 C13_2 1_555 1_555
C14_2 C13_2 1_555 1_555
H15_2 C14_2 1_555 1_555
H16_2 C14_2 1_555 1_555
C15_2 C14_2 1_555 1_555
H17_2 C15_2 1_555 1_555
H18_2 C15_2 1_555 1_555
C16_2 C15_2 1_555 1_555
H19_2 C16_2 1_555 1_555
H20_2 C16_2 1_555 1_555
C17_2 C16_2 1_555 1_555
H21_2 C17_2 1_555 1_555
H22_2 C17_2 1_555 1_555
C18_2 C17_2 1_555 1_555
H23_2 C18_2 1_555 1_555
H24_2 C18_2 1_555 1_555
C19_2 C18_2 1_555 1_555
H25_2 C19_2 1_555 1_555
H26_2 C19_2 1_555 1_555
H27_2 C19_2 1_555 1_555
C20_2 N3_3 1_555 1_555
H28_2 C20_2 1_555 1_555
C21_2 C20_2 1_555 1_555
H29_2 C21_2 1_555 1_555
C22_2 C21_2 1_555 1_555
C23_3 C22_2 1_555 1_555
H30_5 C23_3 1_555 1_555
C24_3 N3_3 1_555 1_555
H31_3 C24_3 1_555 1_555
C25_2 C22_2 1_555 1_555
H32_3 C25_2 1_555 1_555
H33_4 C25_2 1_555 1_555
Mn2_3 O2_3 1_555 1_555
O4_3 Mn2_3 1_555 1_555
O5_2 C32_3 1_555 1_555
O6_3 Mn2_3 1_555 1_555
O7_3 Mn2_3 1_555 1_555
N4_3 Mn2_3 1_555 1_555
N5_2 N4_3 1_555 1_555
N6_3 C45_3 1_555 1_555
C26_3 O4_3 1_555 1_555
C27_3 C26_3 1_555 1_555
H34_3 C27_3 1_555 1_555
C28_3 C27_3 1_555 1_555
H35_3 C28_3 1_555 1_555
C29_3 C28_3 1_555 1_555
H36_3 C29_3 1_555 1_555
C30_3 C29_3 1_555 1_555
H37_3 C30_3 1_555 1_555
C31_3 C26_3 1_555 1_555
C32_3 N4_3 1_555 1_555
C33_3 O6_3 1_555 1_555
C45_3 O7_3 1_555 1_555
H61_3 C45_3 1_555 1_555
C46_3 N6_3 1_555 1_555
H62_3 C46_3 1_555 1_555
H63_3 C46_3 1_555 1_555
H64_3 C46_3 1_555 1_555
C47_3 N6_3 1_555 1_555
H65_3 C47_3 1_555 1_555
H66_3 C47_3 1_555 1_555
H67_3 C47_3 1_555 1_555
O9_2 Mn1_3 1_555 1_555
N9_2 C63_4 1_555 1_555
C63_4 H84_4 1_555 1_555
C64_4 C63_4 1_555 1_555
H85_4 C64_4 1_555 1_555
C65_2 C64_4 1_555 1_555
C66_2 C65_2 1_555 1_555
H86_2 C66_2 1_555 1_555
C67_2 N9_2 1_555 1_555
H87_2 C67_2 1_555 1_555
C68_2 C25_2 1_555 1_555
H88_2 C68_2 1_555 1_555
H89_2 C68_2 1_555 1_555
Mn4_2 O5_2 1_555 1_555
Mn5_2 N9_2 1_555 1_555
N2_3 C8_3 1_555 1_555
N2_3 Mn2_3 1_555 1_555
C5_3 C6_3 1_555 1_555
C6_3 C7_3 1_555 1_555
C23_3 C24_3 1_555 1_555
N5_2 C33_3 1_555 1_555
N5_2 Mn4_2 1_555 1_555
C30_3 C31_3 1_555 1_555
C31_3 C32_3 1_555 1_555
C65_2 C68_2 1_555 1_555
C66_2 C67_2 1_555 1_555
Mn1_4 O1_2 1_555 1_555
O1_2 C1_2 1_555 1_555
O2_4 C7_4 1_555 1_555
O3_4 Mn1_4 1_555 1_555
N1_4 Mn1_4 1_555 1_555
N2_4 N1_4 1_555 1_555
N3_4 Mn1_4 1_555 1_555
C1_2 C2_4 1_555 1_555
C2_4 H1_4 1_555 1_555
C3_4 C2_4 1_555 1_555
H2_4 C3_4 1_555 1_555
C4_4 C3_4 1_555 1_555
H3_4 C4_4 1_555 1_555
C5_4 C4_4 1_555 1_555
H4_4 C5_4 1_555 1_555
C6_4 C1_2 1_555 1_555
C7_4 N1_4 1_555 1_555
C8_4 O3_4 1_555 1_555
C9_4 C8_4 1_555 1_555
H5_3 C9_4 1_555 1_555
H6_4 C9_4 1_555 1_555
C10_3 C9_4 1_555 1_555
H7_3 C10_3 1_555 1_555
H8_3 C10_3 1_555 1_555
C11_3 C10_3 1_555 1_555
H9_3 C11_3 1_555 1_555
H10_4 C11_3 1_555 1_555
C12_3 C11_3 1_555 1_555
H11_3 C12_3 1_555 1_555
H12_3 C12_3 1_555 1_555
C13_3 C12_3 1_555 1_555
H13_3 C13_3 1_555 1_555
C20_3 N3_4 1_555 1_555
H28_3 C20_3 1_555 1_555
C21_3 C20_3 1_555 1_555
H29_3 C21_3 1_555 1_555
C22_3 C21_3 1_555 1_555
C23_4 C22_3 1_555 1_555
H30_6 C23_4 1_555 1_555
C24_4 N3_4 1_555 1_555
H31_4 C24_4 1_555 1_555
C25_3 C22_3 1_555 1_555
H32_4 C25_3 1_555 1_555
H33_5 C25_3 1_555 1_555
Mn2_4 O2_4 1_555 1_555
O4_4 Mn2_4 1_555 1_555
O5_3 C32_4 1_555 1_555
O6_4 Mn2_4 1_555 1_555
O7_4 Mn2_4 1_555 1_555
N4_4 Mn2_4 1_555 1_555
N5_3 N4_4 1_555 1_555
N6_4 C45_4 1_555 1_555
C26_4 O4_4 1_555 1_555
C27_4 C26_4 1_555 1_555
H34_4 C27_4 1_555 1_555
C31_4 C26_4 1_555 1_555
C32_4 N4_4 1_555 1_555
C33_4 O6_4 1_555 1_555
C34_2 C33_4 1_555 1_555
H38_2 C34_2 1_555 1_555
H39_2 C34_2 1_555 1_555
C35_2 C34_2 1_555 1_555
H40_2 C35_2 1_555 1_555
H41_4 C35_2 1_555 1_555
C36_2 C35_2 1_555 1_555
H42_2 C36_2 1_555 1_555
H43_2 C36_2 1_555 1_555
C37_2 C36_2 1_555 1_555
H44_2 C37_2 1_555 1_555
H45_2 C37_2 1_555 1_555
C38_2 C37_2 1_555 1_555
H46_2 C38_2 1_555 1_555
H47_2 C38_2 1_555 1_555
C39_2 C38_2 1_555 1_555
H48_2 C39_2 1_555 1_555
H49_2 C39_2 1_555 1_555
C40_2 C39_2 1_555 1_555
H50_2 C40_2 1_555 1_555
H51_2 C40_2 1_555 1_555
C41_2 C40_2 1_555 1_555
H52_2 C41_2 1_555 1_555
H53_2 C41_2 1_555 1_555
C42_2 C41_2 1_555 1_555
H54_2 C42_2 1_555 1_555
H55_2 C42_2 1_555 1_555
C43_2 C42_2 1_555 1_555
H56_2 C43_2 1_555 1_555
H57_2 C43_2 1_555 1_555
C44_2 C43_2 1_555 1_555
H59_2 C44_2 1_555 1_555
H60_2 C44_2 1_555 1_555
C45_4 O7_4 1_555 1_555
H61_4 C45_4 1_555 1_555
C46_4 N6_4 1_555 1_555
H62_4 C46_4 1_555 1_555
H63_4 C46_4 1_555 1_555
H64_4 C46_4 1_555 1_555
C47_4 N6_4 1_555 1_555
H65_4 C47_4 1_555 1_555
H66_4 C47_4 1_555 1_555
H67_4 C47_4 1_555 1_555
Mn5_2 O8_3 1_555 1_555
O8_3 C48_3 1_555 1_555
O9_3 Mn1_4 1_555 1_555
O10_2 Mn5_2 1_555 1_555
N7_3 Mn5_2 1_555 1_555
N8_2 Mn1_4 1_555 1_555
C48_3 C49_3 1_555 1_555
C49_3 H68_3 1_555 1_555
C50_3 C49_3 1_555 1_555
H69_3 C50_3 1_555 1_555
C51_3 C50_3 1_555 1_555
H70_3 C51_3 1_555 1_555
C52_3 C51_3 1_555 1_555
H71_3 C52_3 1_555 1_555
C53_3 C48_3 1_555 1_555
C54_3 O9_3 1_555 1_555
C55_2 O10_2 1_555 1_555
C56_2 C55_2 1_555 1_555
H72_2 C56_2 1_555 1_555
H73_2 C56_2 1_555 1_555
C57_2 C56_2 1_555 1_555
H74_2 C57_2 1_555 1_555
H75_2 C57_2 1_555 1_555
C58_2 C57_2 1_555 1_555
H76_2 C58_2 1_555 1_555
H77_2 C58_2 1_555 1_555
C59_2 C58_2 1_555 1_555
H78_2 C59_2 1_555 1_555
H79_2 C59_2 1_555 1_555
C60_2 C59_2 1_555 1_555
H80_2 C60_2 1_555 1_555
H81_2 C60_2 1_555 1_555
C61_2 C60_2 1_555 1_555
H82_2 C61_2 1_555 1_555
H83_2 C61_2 1_555 1_555
C62_2 C61_2 1_555 1_555
C68_3 C25_3 1_555 1_555
H88_3 C68_3 1_555 1_555
H89_3 C68_3 1_555 1_555
O11_2 Mn5_2 1_555 1_555
N10_2 Mn5_2 1_555 1_555
Mn4_3 O5_3 1_555 1_555
N2_4 C8_4 1_555 1_555
N2_4 Mn2_4 1_555 1_555
C5_4 C6_4 1_555 1_555
C6_4 C7_4 1_555 1_555
C23_4 C24_4 1_555 1_555
N5_3 C33_4 1_555 1_555
N5_3 Mn4_3 1_555 1_555
C31_4 C32_4 1_555 1_555
N7_3 N8_2 1_555 1_555
N7_3 C54_3 1_555 1_555
N8_2 C55_2 1_555 1_555
C52_3 C53_3 1_555 1_555
C53_3 C54_3 1_555 1_555
C62_2 H90_4 1_555 1_555
C62_2 H91_2 1_555 1_555
C62_2 H92_2 1_555 1_555
Mn1_5 O1_3 1_555 1_555
O1_3 C1_3 1_555 1_555
O2_5 C7_5 1_555 1_555
O3_5 Mn1_5 1_555 1_555
N1_5 Mn1_5 1_555 1_555
N2_5 N1_5 1_555 1_555
N3_5 Mn1_5 1_555 1_555
C1_3 C2_5 1_555 1_555
C2_5 H1_5 1_555 1_555
C3_5 C2_5 1_555 1_555
H2_5 C3_5 1_555 1_555
C4_5 C3_5 1_555 1_555
H3_5 C4_5 1_555 1_555
C5_5 C4_5 1_555 1_555
H4_5 C5_5 1_555 1_555
C6_5 C1_3 1_555 1_555
C7_5 N1_5 1_555 1_555
C8_5 O3_5 1_555 1_555
C9_5 C8_5 1_555 1_555
H5_4 C9_5 1_555 1_555
H6_5 C9_5 1_555 1_555
C10_4 C9_5 1_555 1_555
H7_4 C10_4 1_555 1_555
H8_4 C10_4 1_555 1_555
C11_4 C10_4 1_555 1_555
H9_4 C11_4 1_555 1_555
H10_5 C11_4 1_555 1_555
C12_4 C11_4 1_555 1_555
H11_4 C12_4 1_555 1_555
H12_4 C12_4 1_555 1_555
C13_4 C12_4 1_555 1_555
H13_4 C13_4 1_555 1_555
C20_4 N3_5 1_555 1_555
H28_4 C20_4 1_555 1_555
C21_4 C20_4 1_555 1_555
H29_4 C21_4 1_555 1_555
C22_4 C21_4 1_555 1_555
C23_5 C22_4 1_555 1_555
H30_7 C23_5 1_555 1_555
C24_5 N3_5 1_555 1_555
H31_5 C24_5 1_555 1_555
Mn2_5 O2_5 1_555 1_555
O4_5 Mn2_5 1_555 1_555
O5_4 C32_5 1_555 1_555
O6_5 Mn2_5 1_555 1_555
O7_5 Mn2_5 1_555 1_555
N4_5 Mn2_5 1_555 1_555
N5_4 N4_5 1_555 1_555
N6_5 C45_5 1_555 1_555
C26_5 O4_5 1_555 1_555
C27_5 C26_5 1_555 1_555
H34_5 C27_5 1_555 1_555
C31_5 C26_5 1_555 1_555
C32_5 N4_5 1_555 1_555
C33_5 O6_5 1_555 1_555
C34_3 C33_5 1_555 1_555
H38_3 C34_3 1_555 1_555
H39_3 C34_3 1_555 1_555
C35_3 C34_3 1_555 1_555
H40_3 C35_3 1_555 1_555
H41_5 C35_3 1_555 1_555
C36_3 C35_3 1_555 1_555
H42_3 C36_3 1_555 1_555
H43_3 C36_3 1_555 1_555
C37_3 C36_3 1_555 1_555
H44_3 C37_3 1_555 1_555
H45_3 C37_3 1_555 1_555
C38_3 C37_3 1_555 1_555
H46_3 C38_3 1_555 1_555
H47_3 C38_3 1_555 1_555
C39_3 C38_3 1_555 1_555
H48_3 C39_3 1_555 1_555
H49_3 C39_3 1_555 1_555
C40_3 C39_3 1_555 1_555
H50_3 C40_3 1_555 1_555
H51_3 C40_3 1_555 1_555
C41_3 C40_3 1_555 1_555
H52_3 C41_3 1_555 1_555
H53_3 C41_3 1_555 1_555
C42_3 C41_3 1_555 1_555
H54_3 C42_3 1_555 1_555
H55_3 C42_3 1_555 1_555
C43_3 C42_3 1_555 1_555
H56_3 C43_3 1_555 1_555
H57_3 C43_3 1_555 1_555
C44_3 C43_3 1_555 1_555
H58_2 C44_3 1_555 1_555
H59_3 C44_3 1_555 1_555
H60_3 C44_3 1_555 1_555
C45_5 O7_5 1_555 1_555
H61_5 C45_5 1_555 1_555
C46_5 N6_5 1_555 1_555
H62_5 C46_5 1_555 1_555
H63_5 C46_5 1_555 1_555
H64_5 C46_5 1_555 1_555
C47_5 N6_5 1_555 1_555
H65_5 C47_5 1_555 1_555
H66_5 C47_5 1_555 1_555
H67_5 C47_5 1_555 1_555
Mn5 O8_4 1_555 1_555
O8_4 C48_4 1_555 1_555
O9_4 Mn1_5 1_555 1_555
O10_3 Mn5 1_555 1_555
N7_4 Mn5 1_555 1_555
N8_3 Mn1_5 1_555 1_555
H71_4 C52_4 1_555 1_555
C53_4 C48_4 1_555 1_555
C54_4 O9_4 1_555 1_555
C55_3 O10_3 1_555 1_555
C56_3 C55_3 1_555 1_555
H72_3 C56_3 1_555 1_555
H73_3 C56_3 1_555 1_555
C57_3 C56_3 1_555 1_555
H74_3 C57_3 1_555 1_555
H75_3 C57_3 1_555 1_555
C58_3 C57_3 1_555 1_555
H76_3 C58_3 1_555 1_555
H77_3 C58_3 1_555 1_555
C59_3 C58_3 1_555 1_555
H78_3 C59_3 1_555 1_555
H79_3 C59_3 1_555 1_555
C60_3 C59_3 1_555 1_555
H80_3 C60_3 1_555 1_555
H81_3 C60_3 1_555 1_555
C61_3 C60_3 1_555 1_555
H82_3 C61_3 1_555 1_555
H83_3 C61_3 1_555 1_555
C62_3 C61_3 1_555 1_555
O11_3 Mn5 1_555 1_555
N10_3 Mn5 1_555 1_555
Mn4_4 O5_4 1_555 1_555
N2_5 C8_5 1_555 1_555
N2_5 Mn2_5 1_555 1_555
C5_5 C6_5 1_555 1_555
C6_5 C7_5 1_555 1_555
C23_5 C24_5 1_555 1_555
N5_4 C33_5 1_555 1_555
N5_4 Mn4_4 1_555 1_555
C31_5 C32_5 1_555 1_555
N7_4 N8_3 1_555 1_555
N7_4 C54_4 1_555 1_555
N8_3 C55_3 1_555 1_555
C52_4 C53_4 1_555 1_555
C53_4 C54_4 1_555 1_555
C62_3 H90_5 1_555 1_555
C62_3 H91_3 1_555 1_555
C62_3 H92_3 1_555 1_555
O1_4 C1_4 1_555 1_555
C1_4 C2_6 1_555 1_555
C2_6 H1_6 1_555 1_555
C3_6 C2_6 1_555 1_555
H2_6 C3_6 1_555 1_555
C4_6 C3_6 1_555 1_555
H3_6 C4_6 1_555 1_555
H38_4 C34_4 1_555 1_555
H39_4 C34_4 1_555 1_555
C35_4 C34_4 1_555 1_555
H40_4 C35_4 1_555 1_555
C36_4 C35_4 1_555 1_555
H42_4 C36_4 1_555 1_555
H43_4 C36_4 1_555 1_555
C37_4 C36_4 1_555 1_555
H44_4 C37_4 1_555 1_555
H45_4 C37_4 1_555 1_555
C38_4 C37_4 1_555 1_555
H46_4 C38_4 1_555 1_555
H47_4 C38_4 1_555 1_555
C39_4 C38_4 1_555 1_555
H48_4 C39_4 1_555 1_555
H49_4 C39_4 1_555 1_555
C40_4 C39_4 1_555 1_555
H50_4 C40_4 1_555 1_555
H51_4 C40_4 1_555 1_555
C41_4 C40_4 1_555 1_555
H52_4 C41_4 1_555 1_555
H53_4 C41_4 1_555 1_555
C42_4 C41_4 1_555 1_555
H54_4 C42_4 1_555 1_555
H55_4 C42_4 1_555 1_555
C43_4 C42_4 1_555 1_555
H56_4 C43_4 1_555 1_555
H57_4 C43_4 1_555 1_555
C44_4 C43_4 1_555 1_555
H58_3 C44_4 1_555 1_555
H59_4 C44_4 1_555 1_555
H60_4 C44_4 1_555 1_555
Mn4_2 O8_5 1_555 1_555
O8_5 C48_5 1_555 1_555
O10_4 Mn4_2 1_555 1_555
N7_5 Mn4_2 1_555 1_555
C48_5 C49_4 1_555 1_555
C49_4 H68_4 1_555 1_555
C50_4 C49_4 1_555 1_555
H69_4 C50_4 1_555 1_555
C51_4 C50_4 1_555 1_555
H70_4 C51_4 1_555 1_555
C52_5 C51_4 1_555 1_555
C53_5 C48_5 1_555 1_555
C55_4 O10_4 1_555 1_555
C56_4 C55_4 1_555 1_555
H72_4 C56_4 1_555 1_555
H73_4 C56_4 1_555 1_555
C57_4 C56_4 1_555 1_555
H74_4 C57_4 1_555 1_555
H75_4 C57_4 1_555 1_555
C58_4 C57_4 1_555 1_555
H76_4 C58_4 1_555 1_555
H77_4 C58_4 1_555 1_555
C59_4 C58_4 1_555 1_555
H78_4 C59_4 1_555 1_555
H79_4 C59_4 1_555 1_555
C60_4 C59_4 1_555 1_555
H80_4 C60_4 1_555 1_555
H81_4 C60_4 1_555 1_555
C61_4 C60_4 1_555 1_555
H82_4 C61_4 1_555 1_555
H83_4 C61_4 1_555 1_555
C62_4 C61_4 1_555 1_555
N11_3 Mn4_2 1_555 1_555
N7_5 N8_4 1_555 1_555
N7_5 C54_5 1_555 1_555
N8_4 C55_4 1_555 1_555
C52_5 C53_5 1_555 1_555
C53_5 C54_5 1_555 1_555
C62_4 H90_6 1_555 1_555
C62_4 H91_4 1_555 1_555
C62_4 H92_4 1_555 1_555
H15_3 C14_3 1_555 1_555
H16_3 C14_3 1_555 1_555
C15_3 C14_3 1_555 1_555
H17_3 C15_3 1_555 1_555
H18_3 C15_3 1_555 1_555
C16_3 C15_3 1_555 1_555
H19_3 C16_3 1_555 1_555
H20_3 C16_3 1_555 1_555
C17_3 C16_3 1_555 1_555
H21_3 C17_3 1_555 1_555
H22_3 C17_3 1_555 1_555
C18_3 C17_3 1_555 1_555
H23_3 C18_3 1_555 1_555
H24_3 C18_3 1_555 1_555
C19_3 C18_3 1_555 1_555
H25_3 C19_3 1_555 1_555
H26_3 C19_3 1_555 1_555
H27_3 C19_3 1_555 1_555
H35_4 C28_4 1_555 1_555
C29_4 C28_4 1_555 1_555
H36_4 C29_4 1_555 1_555
C30_4 C29_4 1_555 1_555
H37_4 C30_4 1_555 1_555
N9_3 C63_5 1_555 1_555
C63_5 H84_5 1_555 1_555
C64_5 C63_5 1_555 1_555
C65_3 C64_5 1_555 1_555
C66_3 C65_3 1_555 1_555
H86_3 C66_3 1_555 1_555
C67_3 N9_3 1_555 1_555
H87_3 C67_3 1_555 1_555
Mn4_4 N9_3 1_555 1_555
C66_3 C67_3 1_555 1_555
N9_4 C63_6 1_555 1_555
C63_6 H84_6 1_555 1_555
C64_6 C63_6 1_555 1_555
C65_4 C64_6 1_555 1_555
C66_4 C65_4 1_555 1_555
H86_4 C66_4 1_555 1_555
C67_4 N9_4 1_555 1_555
H87_4 C67_4 1_555 1_555
Mn4_3 N9_4 1_555 1_555
C66_4 C67_4 1_555 1_555
Mn1_6 O1_5 1_555 1_555
O1_5 C1_5 1_555 1_555
O2_6 C7_6 1_555 1_555
O3_6 Mn1_6 1_555 1_555
N1_6 Mn1_6 1_555 1_555
N2_6 N1_6 1_555 1_555
N3_6 Mn1_6 1_555 1_555
H4_6 C5_6 1_555 1_555
C6_6 C1_5 1_555 1_555
C7_6 N1_6 1_555 1_555
C8_6 O3_6 1_555 1_555
C9_6 C8_6 1_555 1_555
H5_5 C9_6 1_555 1_555
H6_6 C9_6 1_555 1_555
C10_5 C9_6 1_555 1_555
H7_5 C10_5 1_555 1_555
H8_5 C10_5 1_555 1_555
C11_5 C10_5 1_555 1_555
H9_5 C11_5 1_555 1_555
H10_6 C11_5 1_555 1_555
C12_5 C11_5 1_555 1_555
H11_5 C12_5 1_555 1_555
H12_5 C12_5 1_555 1_555
C13_5 C12_5 1_555 1_555
H13_5 C13_5 1_555 1_555
H14_4 C13_5 1_555 1_555
C14_4 C13_5 1_555 1_555
H15_4 C14_4 1_555 1_555
H16_4 C14_4 1_555 1_555
C15_4 C14_4 1_555 1_555
H17_4 C15_4 1_555 1_555
H18_4 C15_4 1_555 1_555
C16_4 C15_4 1_555 1_555
H19_4 C16_4 1_555 1_555
H20_4 C16_4 1_555 1_555
C17_4 C16_4 1_555 1_555
H21_4 C17_4 1_555 1_555
H22_4 C17_4 1_555 1_555
C18_4 C17_4 1_555 1_555
H23_4 C18_4 1_555 1_555
H24_4 C18_4 1_555 1_555
C19_4 C18_4 1_555 1_555
H25_4 C19_4 1_555 1_555
H26_4 C19_4 1_555 1_555
H27_4 C19_4 1_555 1_555
C20_5 N3_6 1_555 1_555
H28_5 C20_5 1_555 1_555
C21_5 C20_5 1_555 1_555
H29_5 C21_5 1_555 1_555
C22_5 C21_5 1_555 1_555
C23_6 C22_5 1_555 1_555
C24_6 N3_6 1_555 1_555
H31_6 C24_6 1_555 1_555
C25_4 C22_5 1_555 1_555
H32_6 C25_4 1_555 1_555
Mn2_6 O2_6 1_555 1_555
O4_6 Mn2_6 1_555 1_555
O11_2 C32_6 1_555 1_555
O6_6 Mn2_6 1_555 1_555
O7_6 Mn2_6 1_555 1_555
N4_6 Mn2_6 1_555 1_555
N10_2 N4_6 1_555 1_555
N6_6 C45_6 1_555 1_555
C26_6 O4_6 1_555 1_555
C27_6 C26_6 1_555 1_555
H34_6 C27_6 1_555 1_555
C28_5 C27_6 1_555 1_555
H35_5 C28_5 1_555 1_555
C29_5 C28_5 1_555 1_555
H36_5 C29_5 1_555 1_555
C30_5 C29_5 1_555 1_555
H37_5 C30_5 1_555 1_555
C31_6 C26_6 1_555 1_555
C32_6 N4_6 1_555 1_555
C33_6 O6_6 1_555 1_555
C34_5 C33_6 1_555 1_555
H38_5 C34_5 1_555 1_555
H39_5 C34_5 1_555 1_555
C35_5 C34_5 1_555 1_555
H40_5 C35_5 1_555 1_555
H41_6 C35_5 1_555 1_555
C36_5 C35_5 1_555 1_555
H42_5 C36_5 1_555 1_555
H43_5 C36_5 1_555 1_555
C37_5 C36_5 1_555 1_555
H44_5 C37_5 1_555 1_555
H45_5 C37_5 1_555 1_555
C38_5 C37_5 1_555 1_555
H46_5 C38_5 1_555 1_555
H47_5 C38_5 1_555 1_555
C39_5 C38_5 1_555 1_555
H48_5 C39_5 1_555 1_555
H49_5 C39_5 1_555 1_555
C40_5 C39_5 1_555 1_555
H50_5 C40_5 1_555 1_555
H51_5 C40_5 1_555 1_555
C41_5 C40_5 1_555 1_555
H52_5 C41_5 1_555 1_555
H53_5 C41_5 1_555 1_555
C42_5 C41_5 1_555 1_555
H54_5 C42_5 1_555 1_555
H55_5 C42_5 1_555 1_555
C43_5 C42_5 1_555 1_555
H56_5 C43_5 1_555 1_555
H57_5 C43_5 1_555 1_555
C45_6 O7_6 1_555 1_555
H61_6 C45_6 1_555 1_555
C46_6 N6_6 1_555 1_555
H62_6 C46_6 1_555 1_555
H63_6 C46_6 1_555 1_555
H64_6 C46_6 1_555 1_555
C47_6 N6_6 1_555 1_555
H65_6 C47_6 1_555 1_555
H66_6 C47_6 1_555 1_555
H67_6 C47_6 1_555 1_555
Mn4_3 O8_6 1_555 1_555
O8_6 C48_6 1_555 1_555
O9_5 Mn1_6 1_555 1_555
O10_5 Mn4_3 1_555 1_555
N7_6 Mn4_3 1_555 1_555
N8_5 Mn1_6 1_555 1_555
C48_6 C49_5 1_555 1_555
C49_5 H68_5 1_555 1_555
C50_5 C49_5 1_555 1_555
H69_5 C50_5 1_555 1_555
C51_5 C50_5 1_555 1_555
H70_5 C51_5 1_555 1_555
C52_6 C51_5 1_555 1_555
H71_5 C52_6 1_555 1_555
C53_6 C48_6 1_555 1_555
C54_6 O9_5 1_555 1_555
C55_5 O10_5 1_555 1_555
C56_5 C55_5 1_555 1_555
H72_5 C56_5 1_555 1_555
H73_5 C56_5 1_555 1_555
C57_5 C56_5 1_555 1_555
H74_5 C57_5 1_555 1_555
H75_5 C57_5 1_555 1_555
C58_5 C57_5 1_555 1_555
H76_5 C58_5 1_555 1_555
H77_5 C58_5 1_555 1_555
C59_5 C58_5 1_555 1_555
H78_5 C59_5 1_555 1_555
H79_5 C59_5 1_555 1_555
C60_5 C59_5 1_555 1_555
H80_5 C60_5 1_555 1_555
H81_5 C60_5 1_555 1_555
C61_5 C60_5 1_555 1_555
H82_5 C61_5 1_555 1_555
H83_5 C61_5 1_555 1_555
C62_5 C61_5 1_555 1_555
C66_5 C65_5 1_555 1_555
H86_5 C66_5 1_555 1_555
H87_5 C67_5 1_555 1_555
C68_4 C25_4 1_555 1_555
H88_4 C68_4 1_555 1_555
H89_4 C68_4 1_555 1_555
N2_6 C8_6 1_555 1_555
N2_6 Mn2_6 1_555 1_555
C5_6 C6_6 1_555 1_555
C6_6 C7_6 1_555 1_555
C23_6 C24_6 1_555 1_555
N10_2 C33_6 1_555 1_555
C30_5 C31_6 1_555 1_555
C31_6 C32_6 1_555 1_555
N7_6 N8_5 1_555 1_555
N7_6 C54_6 1_555 1_555
N8_5 C55_5 1_555 1_555
C52_6 C53_6 1_555 1_555
C53_6 C54_6 1_555 1_555
C65_5 C68_4 1_555 1_555
C66_5 C67_5 1_555 1_555
Mn1_7 O1_6 1_555 1_555
O1_6 C1_6 1_555 1_555
O2_7 C7_7 1_555 1_555
O3_7 Mn1_7 1_555 1_555
N1_7 Mn1_7 1_555 1_555
N2_7 N1_7 1_555 1_555
N3_7 Mn1_7 1_555 1_555
C1_6 C2_7 1_555 1_555
C2_7 H1_7 1_555 1_555
C3_7 C2_7 1_555 1_555
H2_7 C3_7 1_555 1_555
C4_7 C3_7 1_555 1_555
H3_7 C4_7 1_555 1_555
C5_7 C4_7 1_555 1_555
H4_7 C5_7 1_555 1_555
C6_7 C1_6 1_555 1_555
C7_7 N1_7 1_555 1_555
C8_7 O3_7 1_555 1_555
C9_7 C8_7 1_555 1_555
H5_6 C9_7 1_555 1_555
H6_7 C9_7 1_555 1_555
C10_6 C9_7 1_555 1_555
H7_6 C10_6 1_555 1_555
H8_6 C10_6 1_555 1_555
C11_6 C10_6 1_555 1_555
H9_6 C11_6 1_555 1_555
H10_7 C11_6 1_555 1_555
C12_6 C11_6 1_555 1_555
H11_6 C12_6 1_555 1_555
H12_6 C12_6 1_555 1_555
C13_6 C12_6 1_555 1_555
H13_6 C13_6 1_555 1_555
H14_5 C13_6 1_555 1_555
C14_5 C13_6 1_555 1_555
H15_5 C14_5 1_555 1_555
H16_5 C14_5 1_555 1_555
C15_5 C14_5 1_555 1_555
H17_5 C15_5 1_555 1_555
H18_5 C15_5 1_555 1_555
C16_5 C15_5 1_555 1_555
H19_5 C16_5 1_555 1_555
H20_5 C16_5 1_555 1_555
C17_5 C16_5 1_555 1_555
H21_5 C17_5 1_555 1_555
H22_5 C17_5 1_555 1_555
C18_5 C17_5 1_555 1_555
H23_5 C18_5 1_555 1_555
H24_5 C18_5 1_555 1_555
C19_5 C18_5 1_555 1_555
H25_5 C19_5 1_555 1_555
H26_5 C19_5 1_555 1_555
H27_5 C19_5 1_555 1_555
C20_6 N3_7 1_555 1_555
H28_6 C20_6 1_555 1_555
C21_6 C20_6 1_555 1_555
H29_6 C21_6 1_555 1_555
C22_6 C21_6 1_555 1_555
C23_7 C22_6 1_555 1_555
H30_8 C23_7 1_555 1_555
C24_7 N3_7 1_555 1_555
H31_7 C24_7 1_555 1_555
C25_5 C22_6 1_555 1_555
H32_7 C25_5 1_555 1_555
H33_6 C25_5 1_555 1_555
Mn2_7 O2_7 1_555 1_555
O4_7 Mn2_7 1_555 1_555
O11_3 C32_7 1_555 1_555
O6_7 Mn2_7 1_555 1_555
O7_7 Mn2_7 1_555 1_555
N4_7 Mn2_7 1_555 1_555
N10_3 N4_7 1_555 1_555
N6_7 C45_7 1_555 1_555
C26_7 O4_7 1_555 1_555
C27_7 C26_7 1_555 1_555
H34_7 C27_7 1_555 1_555
C28_6 C27_7 1_555 1_555
H35_6 C28_6 1_555 1_555
C29_6 C28_6 1_555 1_555
H36_6 C29_6 1_555 1_555
C30_6 C29_6 1_555 1_555
H37_6 C30_6 1_555 1_555
C31_7 C26_7 1_555 1_555
C32_7 N4_7 1_555 1_555
C33_7 O6_7 1_555 1_555
C34_6 C33_7 1_555 1_555
H38_6 C34_6 1_555 1_555
H39_6 C34_6 1_555 1_555
C35_6 C34_6 1_555 1_555
H40_6 C35_6 1_555 1_555
H41_7 C35_6 1_555 1_555
C36_6 C35_6 1_555 1_555
H42_6 C36_6 1_555 1_555
H43_6 C36_6 1_555 1_555
C37_6 C36_6 1_555 1_555
H44_6 C37_6 1_555 1_555
H45_6 C37_6 1_555 1_555
C38_6 C37_6 1_555 1_555
H46_6 C38_6 1_555 1_555
H47_6 C38_6 1_555 1_555
C45_7 O7_7 1_555 1_555
H61_7 C45_7 1_555 1_555
C46_7 N6_7 1_555 1_555
H62_7 C46_7 1_555 1_555
H63_7 C46_7 1_555 1_555
H64_7 C46_7 1_555 1_555
C47_7 N6_7 1_555 1_555
H65_7 C47_7 1_555 1_555
H66_7 C47_7 1_555 1_555
H67_7 C47_7 1_555 1_555
Mn4_4 O8_7 1_555 1_555
O8_7 C48_7 1_555 1_555
O9_6 Mn1_7 1_555 1_555
O10_6 Mn4_4 1_555 1_555
N7_7 Mn4_4 1_555 1_555
N8_6 Mn1_7 1_555 1_555
N11_3 C63_7 1_555 1_555
C48_7 C49_6 1_555 1_555
C49_6 H68_6 1_555 1_555
C50_6 C49_6 1_555 1_555
H69_6 C50_6 1_555 1_555
C51_6 C50_6 1_555 1_555
H70_6 C51_6 1_555 1_555
C52_7 C51_6 1_555 1_555
H71_6 C52_7 1_555 1_555
C53_7 C48_7 1_555 1_555
C54_7 O9_6 1_555 1_555
C55_6 O10_6 1_555 1_555
C56_6 C55_6 1_555 1_555
H72_6 C56_6 1_555 1_555
H73_6 C56_6 1_555 1_555
C57_6 C56_6 1_555 1_555
H74_6 C57_6 1_555 1_555
H75_6 C57_6 1_555 1_555
C58_6 C57_6 1_555 1_555
H76_6 C58_6 1_555 1_555
H77_6 C58_6 1_555 1_555
C59_6 C58_6 1_555 1_555
H78_6 C59_6 1_555 1_555
H79_6 C59_6 1_555 1_555
C60_6 C59_6 1_555 1_555
H80_6 C60_6 1_555 1_555
H81_6 C60_6 1_555 1_555
C61_6 C60_6 1_555 1_555
H82_6 C61_6 1_555 1_555
H83_6 C61_6 1_555 1_555
C62_6 C61_6 1_555 1_555
C63_7 H84_7 1_555 1_555
C64_7 C63_7 1_555 1_555
H85_6 C64_7 1_555 1_555
C65_6 C64_7 1_555 1_555
C66_6 C65_6 1_555 1_555
H86_6 C66_6 1_555 1_555
C67_6 N11_3 1_555 1_555
H87_6 C67_6 1_555 1_555
C68_5 C25_5 1_555 1_555
H88_5 C68_5 1_555 1_555
H89_5 C68_5 1_555 1_555
N2_7 C8_7 1_555 1_555
N2_7 Mn2_7 1_555 1_555
C5_7 C6_7 1_555 1_555
C6_7 C7_7 1_555 1_555
C23_7 C24_7 1_555 1_555
N10_3 C33_7 1_555 1_555
C30_6 C31_7 1_555 1_555
C31_7 C32_7 1_555 1_555
N7_7 N8_6 1_555 1_555
N7_7 C54_7 1_555 1_555
N8_6 C55_6 1_555 1_555
C52_7 C53_7 1_555 1_555
C53_7 C54_7 1_555 1_555
C65_6 C68_5 1_555 1_555
C66_6 C67_6 1_555 1_555
C62_6 H90_7 1_555 1_555
Mn3_2 O8_8 1_555 1_555
O8_8 C48_8 1_555 1_555
N7_8 Mn3_2 1_555 1_555
C48_8 C49_7 1_555 1_555
C49_7 H68_7 1_555 1_555
C50_7 C49_7 1_555 1_555
H69_7 C50_7 1_555 1_555
C51_7 C50_7 1_555 1_555
H70_7 C51_7 1_555 1_555
C52_8 C51_7 1_555 1_555
C53_8 C48_8 1_555 1_555
O11_4 Mn3_2 1_555 1_555
N10_4 Mn3_2 1_555 1_555
N11_4 Mn3_2 1_555 1_555
N7_8 C54_8 1_555 1_555
C52_8 C53_8 1_555 1_555
C53_8 C54_8 1_555 1_555
C2_8 H1_8 1_555 1_555
C3_8 C2_8 1_555 1_555
H2_8 C3_8 1_555 1_555
C4_8 C3_8 1_555 1_555
H3_8 C4_8 1_555 1_555
N11_4 C63_8 1_555 1_555
C63_8 H84_8 1_555 1_555
C64_8 C63_8 1_555 1_555
H85_7 C64_8 1_555 1_555
O2_8 C7_8 1_555 1_555
O3_8 Mn1_8 1_555 1_555
N1_8 Mn1_8 1_555 1_555
N2_8 N1_8 1_555 1_555
N3_8 Mn1_8 1_555 1_555
H4_8 C5_8 1_555 1_555
C7_8 N1_8 1_555 1_555
C8_8 O3_8 1_555 1_555
C9_8 C8_8 1_555 1_555
H6_8 C9_8 1_555 1_555
H30_10 C23_8 1_555 1_555
C24_8 N3_8 1_555 1_555
H31_8 C24_8 1_555 1_555
Mn2_8 O2_8 1_555 1_555
O4_8 Mn2_8 1_555 1_555
O11_4 C32_8 1_555 1_555
O6_8 Mn2_8 1_555 1_555
O7_8 Mn2_8 1_555 1_555
N4_8 Mn2_8 1_555 1_555
N10_4 N4_8 1_555 1_555
N6_8 C45_8 1_555 1_555
C26_8 O4_8 1_555 1_555
C27_8 C26_8 1_555 1_555
H34_8 C27_8 1_555 1_555
C28_7 C27_8 1_555 1_555
H35_7 C28_7 1_555 1_555
C29_7 C28_7 1_555 1_555
H36_7 C29_7 1_555 1_555
C30_7 C29_7 1_555 1_555
H37_7 C30_7 1_555 1_555
C31_8 C26_8 1_555 1_555
C32_8 N4_8 1_555 1_555
C33_8 O6_8 1_555 1_555
C45_8 O7_8 1_555 1_555
H61_8 C45_8 1_555 1_555
C46_8 N6_8 1_555 1_555
H62_8 C46_8 1_555 1_555
H63_8 C46_8 1_555 1_555
H64_8 C46_8 1_555 1_555
C47_8 N6_8 1_555 1_555
H65_8 C47_8 1_555 1_555
H66_8 C47_8 1_555 1_555
H67_8 C47_8 1_555 1_555
N2_8 C8_8 1_555 1_555
N2_8 Mn2_8 1_555 1_555
C5_8 C6_8 1_555 1_555
C6_8 C7_8 1_555 1_555
C23_8 C24_8 1_555 1_555
N10_4 C33_8 1_555 1_555
C30_7 C31_8 1_555 1_555
C31_8 C32_8 1_555 1_555
H7_7 C10_7 1_555 1_555
H8_7 C10_7 1_555 1_555
C11_7 C10_7 1_555 1_555
H9_7 C11_7 1_555 1_555
C12_7 C11_7 1_555 1_555
H11_7 C12_7 1_555 1_555
H12_7 C12_7 1_555 1_555
C13_7 C12_7 1_555 1_555
H13_7 C13_7 1_555 1_555
H14_6 C13_7 1_555 1_555
C14_6 C13_7 1_555 1_555
H15_6 C14_6 1_555 1_555
H16_6 C14_6 1_555 1_555
C15_6 C14_6 1_555 1_555
H17_6 C15_6 1_555 1_555
H18_6 C15_6 1_555 1_555
C16_6 C15_6 1_555 1_555
H19_6 C16_6 1_555 1_555
H20_6 C16_6 1_555 1_555
C17_6 C16_6 1_555 1_555
H21_6 C17_6 1_555 1_555
H22_6 C17_6 1_555 1_555
C18_6 C17_6 1_555 1_555
H23_6 C18_6 1_555 1_555
H24_6 C18_6 1_555 1_555
C19_6 C18_6 1_555 1_555
H25_6 C19_6 1_555 1_555
H26_6 C19_6 1_555 1_555
H27_6 C19_6 1_555 1_555
H28_7 C20_7 1_555 1_555
C21_7 C20_7 1_555 1_555
H29_7 C21_7 1_555 1_555
C22_7 C21_7 1_555 1_555
C25_6 C22_7 1_555 1_555
H33_8 C25_6 1_555 1_555
N9_5 C63_9 1_555 1_555
C63_9 H84_9 1_555 1_555
C64_9 C63_9 1_555 1_555
H85_8 C64_9 1_555 1_555
C65_7 C64_9 1_555 1_555
C66_7 C65_7 1_555 1_555
H86_7 C66_7 1_555 1_555
C67_7 N9_5 1_555 1_555
H87_7 C67_7 1_555 1_555
C68_6 C25_6 1_555 1_555
H88_6 C68_6 1_555 1_555
H89_6 C68_6 1_555 1_555
Mn5_3 N9_5 1_555 1_555
C65_7 C68_6 1_555 1_555
C66_7 C67_7 1_555 1_555
Mn1_9 O1_7 1_555 1_555
O1_7 C1_7 1_555 1_555
O2_9 C7_9 1_555 1_555
O3_9 Mn1_9 1_555 1_555
N1_9 Mn1_9 1_555 1_555
N2_9 N1_9 1_555 1_555
N3_9 Mn1_9 1_555 1_555
C1_7 C2_9 1_555 1_555
C2_9 H1_9 1_555 1_555
C3_9 C2_9 1_555 1_555
H2_9 C3_9 1_555 1_555
C4_9 C3_9 1_555 1_555
H3_9 C4_9 1_555 1_555
C5_9 C4_9 1_555 1_555
H4_9 C5_9 1_555 1_555
C6_9 C1_7 1_555 1_555
C7_9 N1_9 1_555 1_555
C8_9 O3_9 1_555 1_555
C9_9 C8_9 1_555 1_555
H5_8 C9_9 1_555 1_555
H6_9 C9_9 1_555 1_555
C10_8 C9_9 1_555 1_555
H7_8 C10_8 1_555 1_555
H8_8 C10_8 1_555 1_555
C11_8 C10_8 1_555 1_555
H9_8 C11_8 1_555 1_555
H10_9 C11_8 1_555 1_555
C12_8 C11_8 1_555 1_555
H11_8 C12_8 1_555 1_555
H12_8 C12_8 1_555 1_555
C13_8 C12_8 1_555 1_555
H13_8 C13_8 1_555 1_555
C20_8 N3_9 1_555 1_555
H28_8 C20_8 1_555 1_555
C21_8 C20_8 1_555 1_555
H29_8 C21_8 1_555 1_555
C22_8 C21_8 1_555 1_555
C23_9 C22_8 1_555 1_555
H30_11 C23_9 1_555 1_555
C24_9 N3_9 1_555 1_555
H31_9 C24_9 1_555 1_555
Mn2_9 O2_9 1_555 1_555
O4_9 Mn2_9 1_555 1_555
O5_5 C32_9 1_555 1_555
O6_9 Mn2_9 1_555 1_555
O7_9 Mn2_9 1_555 1_555
N4_9 Mn2_9 1_555 1_555
N5_5 N4_9 1_555 1_555
N6_9 C45_9 1_555 1_555
C26_9 O4_9 1_555 1_555
C27_9 C26_9 1_555 1_555
H34_9 C27_9 1_555 1_555
C31_9 C26_9 1_555 1_555
C32_9 N4_9 1_555 1_555
C33_9 O6_9 1_555 1_555
C34_7 C33_9 1_555 1_555
H38_7 C34_7 1_555 1_555
H39_7 C34_7 1_555 1_555
C35_7 C34_7 1_555 1_555
H40_7 C35_7 1_555 1_555
H41_9 C35_7 1_555 1_555
C36_7 C35_7 1_555 1_555
H42_7 C36_7 1_555 1_555
H43_7 C36_7 1_555 1_555
C37_7 C36_7 1_555 1_555
H44_7 C37_7 1_555 1_555
H45_7 C37_7 1_555 1_555
C38_7 C37_7 1_555 1_555
H46_7 C38_7 1_555 1_555
H47_7 C38_7 1_555 1_555
C39_6 C38_7 1_555 1_555
H48_6 C39_6 1_555 1_555
H49_6 C39_6 1_555 1_555
C40_6 C39_6 1_555 1_555
H50_6 C40_6 1_555 1_555
H51_6 C40_6 1_555 1_555
C41_6 C40_6 1_555 1_555
H52_6 C41_6 1_555 1_555
H53_6 C41_6 1_555 1_555
C42_6 C41_6 1_555 1_555
H54_6 C42_6 1_555 1_555
H55_6 C42_6 1_555 1_555
C43_6 C42_6 1_555 1_555
H56_6 C43_6 1_555 1_555
H57_6 C43_6 1_555 1_555
C44_5 C43_6 1_555 1_555
H59_5 C44_5 1_555 1_555
H60_5 C44_5 1_555 1_555
C45_9 O7_9 1_555 1_555
H61_9 C45_9 1_555 1_555
C46_9 N6_9 1_555 1_555
H62_9 C46_9 1_555 1_555
H63_9 C46_9 1_555 1_555
H64_9 C46_9 1_555 1_555
C47_9 N6_9 1_555 1_555
H65_9 C47_9 1_555 1_555
H66_9 C47_9 1_555 1_555
H67_9 C47_9 1_555 1_555
Mn5_3 O8_9 1_555 1_555
O8_9 C48_9 1_555 1_555
O9_8 Mn1_9 1_555 1_555
O10_7 Mn5_3 1_555 1_555
N7_9 Mn5_3 1_555 1_555
N8_7 Mn1_9 1_555 1_555
H71_8 C52_9 1_555 1_555
C53_9 C48_9 1_555 1_555
C54_9 O9_8 1_555 1_555
C55_7 O10_7 1_555 1_555
C56_7 C55_7 1_555 1_555
H72_7 C56_7 1_555 1_555
H73_7 C56_7 1_555 1_555
C57_7 C56_7 1_555 1_555
H74_7 C57_7 1_555 1_555
H75_7 C57_7 1_555 1_555
C58_7 C57_7 1_555 1_555
H76_7 C58_7 1_555 1_555
H77_7 C58_7 1_555 1_555
C59_7 C58_7 1_555 1_555
H78_7 C59_7 1_555 1_555
H79_7 C59_7 1_555 1_555
C60_7 C59_7 1_555 1_555
H80_7 C60_7 1_555 1_555
H81_7 C60_7 1_555 1_555
C61_7 C60_7 1_555 1_555
H82_7 C61_7 1_555 1_555
H83_7 C61_7 1_555 1_555
C62_7 C61_7 1_555 1_555
O11_5 Mn5_3 1_555 1_555
N10_5 Mn5_3 1_555 1_555
Mn4_5 O5_5 1_555 1_555
N2_9 C8_9 1_555 1_555
N2_9 Mn2_9 1_555 1_555
C5_9 C6_9 1_555 1_555
C6_9 C7_9 1_555 1_555
C23_9 C24_9 1_555 1_555
N5_5 C33_9 1_555 1_555
N5_5 Mn4_5 1_555 1_555
C31_9 C32_9 1_555 1_555
N7_9 N8_7 1_555 1_555
N7_9 C54_9 1_555 1_555
N8_7 C55_7 1_555 1_555
C52_9 C53_9 1_555 1_555
C53_9 C54_9 1_555 1_555
C62_7 H90_9 1_555 1_555
C62_7 H91_5 1_555 1_555
C62_7 H92_5 1_555 1_555
N9_6 C63_10 1_555 1_555
C63_10 H84_10 1_555 1_555
C64_10 C63_10 1_555 1_555
C65_8 C64_10 1_555 1_555
C66_8 C65_8 1_555 1_555
H86_8 C66_8 1_555 1_555
C67_8 N9_6 1_555 1_555
H87_8 C67_8 1_555 1_555
Mn4_5 N9_6 1_555 1_555
C66_8 C67_8 1_555 1_555
Mn1_10 O1_8 1_555 1_555
O1_8 C1_8 1_555 1_555
O2_10 C7_10 1_555 1_555
O3_10 Mn1_10 1_555 1_555
N1_10 Mn1_10 1_555 1_555
N2_10 N1_10 1_555 1_555
N3_10 Mn1_10 1_555 1_555
H4_10 C5_10 1_555 1_555
C6_10 C1_8 1_555 1_555
C7_10 N1_10 1_555 1_555
C8_10 O3_10 1_555 1_555
C9_10 C8_10 1_555 1_555
H5_9 C9_10 1_555 1_555
H6_10 C9_10 1_555 1_555
C10_9 C9_10 1_555 1_555
H7_9 C10_9 1_555 1_555
H8_9 C10_9 1_555 1_555
C11_9 C10_9 1_555 1_555
H9_9 C11_9 1_555 1_555
H10_10 C11_9 1_555 1_555
C12_9 C11_9 1_555 1_555
H11_9 C12_9 1_555 1_555
H12_9 C12_9 1_555 1_555
C13_9 C12_9 1_555 1_555
H13_9 C13_9 1_555 1_555
H14_7 C13_9 1_555 1_555
C14_7 C13_9 1_555 1_555
H15_7 C14_7 1_555 1_555
H16_7 C14_7 1_555 1_555
C15_7 C14_7 1_555 1_555
H17_7 C15_7 1_555 1_555
H18_7 C15_7 1_555 1_555
C16_7 C15_7 1_555 1_555
H19_7 C16_7 1_555 1_555
H20_7 C16_7 1_555 1_555
C17_7 C16_7 1_555 1_555
H21_7 C17_7 1_555 1_555
H22_7 C17_7 1_555 1_555
C18_7 C17_7 1_555 1_555
H23_7 C18_7 1_555 1_555
H24_7 C18_7 1_555 1_555
C19_7 C18_7 1_555 1_555
H25_7 C19_7 1_555 1_555
H26_7 C19_7 1_555 1_555
H27_7 C19_7 1_555 1_555
C20_9 N3_10 1_555 1_555
H28_9 C20_9 1_555 1_555
C21_9 C20_9 1_555 1_555
H29_9 C21_9 1_555 1_555
C22_9 C21_9 1_555 1_555
C23_10 C22_9 1_555 1_555
C24_10 N3_10 1_555 1_555
H31_10 C24_10 1_555 1_555
C25_7 C22_9 1_555 1_555
H32_10 C25_7 1_555 1_555
Mn2_10 O2_10 1_555 1_555
O4_10 Mn2_10 1_555 1_555
O11_5 C32_10 1_555 1_555
O6_10 Mn2_10 1_555 1_555
O7_10 Mn2_10 1_555 1_555
N4_10 Mn2_10 1_555 1_555
N10_5 N4_10 1_555 1_555
N6_10 C45_10 1_555 1_555
C26_10 O4_10 1_555 1_555
C27_10 C26_10 1_555 1_555
H34_10 C27_10 1_555 1_555
C28_8 C27_10 1_555 1_555
H35_8 C28_8 1_555 1_555
C29_8 C28_8 1_555 1_555
H36_8 C29_8 1_555 1_555
C30_8 C29_8 1_555 1_555
H37_8 C30_8 1_555 1_555
C31_10 C26_10 1_555 1_555
C32_10 N4_10 1_555 1_555
C33_10 O6_10 1_555 1_555
C34_8 C33_10 1_555 1_555
H38_8 C34_8 1_555 1_555
H39_8 C34_8 1_555 1_555
C35_8 C34_8 1_555 1_555
H40_8 C35_8 1_555 1_555
H41_10 C35_8 1_555 1_555
C36_8 C35_8 1_555 1_555
H42_8 C36_8 1_555 1_555
H43_8 C36_8 1_555 1_555
C37_8 C36_8 1_555 1_555
H44_8 C37_8 1_555 1_555
H45_8 C37_8 1_555 1_555
C38_8 C37_8 1_555 1_555
H46_8 C38_8 1_555 1_555
H47_8 C38_8 1_555 1_555
C45_10 O7_10 1_555 1_555
H61_10 C45_10 1_555 1_555
C46_10 N6_10 1_555 1_555
H62_10 C46_10 1_555 1_555
H63_10 C46_10 1_555 1_555
H64_10 C46_10 1_555 1_555
C47_10 N6_10 1_555 1_555
H65_10 C47_10 1_555 1_555
H66_10 C47_10 1_555 1_555
H67_10 C47_10 1_555 1_555
Mn4_5 O8_10 1_555 1_555
O8_10 C48_10 1_555 1_555
O9_9 Mn1_10 1_555 1_555
O10_8 Mn4_5 1_555 1_555
N7_10 Mn4_5 1_555 1_555
N8_8 Mn1_10 1_555 1_555
C48_10 C49_8 1_555 1_555
C49_8 H68_8 1_555 1_555
C50_8 C49_8 1_555 1_555
H69_8 C50_8 1_555 1_555
C51_8 C50_8 1_555 1_555
H70_8 C51_8 1_555 1_555
C52_10 C51_8 1_555 1_555
H71_9 C52_10 1_555 1_555
C53_10 C48_10 1_555 1_555
C54_10 O9_9 1_555 1_555
C55_8 O10_8 1_555 1_555
C56_8 C55_8 1_555 1_555
H72_8 C56_8 1_555 1_555
H73_8 C56_8 1_555 1_555
C57_8 C56_8 1_555 1_555
H74_8 C57_8 1_555 1_555
H75_8 C57_8 1_555 1_555
C58_8 C57_8 1_555 1_555
H76_8 C58_8 1_555 1_555
H77_8 C58_8 1_555 1_555
C59_8 C58_8 1_555 1_555
H78_8 C59_8 1_555 1_555
H79_8 C59_8 1_555 1_555
C60_8 C59_8 1_555 1_555
H80_8 C60_8 1_555 1_555
H81_8 C60_8 1_555 1_555
C61_8 C60_8 1_555 1_555
H82_8 C61_8 1_555 1_555
H83_8 C61_8 1_555 1_555
C62_8 C61_8 1_555 1_555
C66_9 C65_9 1_555 1_555
H86_9 C66_9 1_555 1_555
H87_9 C67_9 1_555 1_555
C68_7 C25_7 1_555 1_555
H88_7 C68_7 1_555 1_555
H89_7 C68_7 1_555 1_555
N2_10 C8_10 1_555 1_555
N2_10 Mn2_10 1_555 1_555
C5_10 C6_10 1_555 1_555
C6_10 C7_10 1_555 1_555
C23_10 C24_10 1_555 1_555
N10_5 C33_10 1_555 1_555
C30_8 C31_10 1_555 1_555
C31_10 C32_10 1_555 1_555
N7_10 N8_8 1_555 1_555
N7_10 C54_10 1_555 1_555
N8_8 C55_8 1_555 1_555
C52_10 C53_10 1_555 1_555
C53_10 C54_10 1_555 1_555
C65_9 C68_7 1_555 1_555
C66_9 C67_9 1_555 1_555
O1_9 C1_9 1_555 1_555
C1_9 C2_10 1_555 1_555
C2_10 H1_10 1_555 1_555
C3_10 C2_10 1_555 1_555
H2_10 C3_10 1_555 1_555
C4_10 C3_10 1_555 1_555
H3_10 C4_10 1_555 1_555
H38_9 C34_9 1_555 1_555
H39_9 C34_9 1_555 1_555
C35_9 C34_9 1_555 1_555
H40_9 C35_9 1_555 1_555
C36_9 C35_9 1_555 1_555
H42_9 C36_9 1_555 1_555
H43_9 C36_9 1_555 1_555
C37_9 C36_9 1_555 1_555
H44_9 C37_9 1_555 1_555
H45_9 C37_9 1_555 1_555
C38_9 C37_9 1_555 1_555
H46_9 C38_9 1_555 1_555
H47_9 C38_9 1_555 1_555
C39_7 C38_9 1_555 1_555
H48_7 C39_7 1_555 1_555
H49_7 C39_7 1_555 1_555
C40_7 C39_7 1_555 1_555
H50_7 C40_7 1_555 1_555
H51_7 C40_7 1_555 1_555
C41_7 C40_7 1_555 1_555
H52_7 C41_7 1_555 1_555
H53_7 C41_7 1_555 1_555
C42_7 C41_7 1_555 1_555
H54_7 C42_7 1_555 1_555
H55_7 C42_7 1_555 1_555
C43_7 C42_7 1_555 1_555
H56_7 C43_7 1_555 1_555
H57_7 C43_7 1_555 1_555
C44_6 C43_7 1_555 1_555
H58_5 C44_6 1_555 1_555
H59_6 C44_6 1_555 1_555
H60_6 C44_6 1_555 1_555
C55_9 O10_9 1_555 1_555
C56_9 C55_9 1_555 1_555
H72_9 C56_9 1_555 1_555
H73_9 C56_9 1_555 1_555
C57_9 C56_9 1_555 1_555
H74_9 C57_9 1_555 1_555
H75_9 C57_9 1_555 1_555
C58_9 C57_9 1_555 1_555
H76_9 C58_9 1_555 1_555
H77_9 C58_9 1_555 1_555
C59_9 C58_9 1_555 1_555
H78_9 C59_9 1_555 1_555
H79_9 C59_9 1_555 1_555
C60_9 C59_9 1_555 1_555
H80_9 C60_9 1_555 1_555
H81_9 C60_9 1_555 1_555
C61_9 C60_9 1_555 1_555
H82_9 C61_9 1_555 1_555
H83_9 C61_9 1_555 1_555
C62_9 C61_9 1_555 1_555
N8_9 C55_9 1_555 1_555
C62_9 H90_10 1_555 1_555
C62_9 H91_6 1_555 1_555
C62_9 H92_6 1_555 1_555
O2_11 C7_11 1_555 1_555
O3_11 Mn1_11 1_555 1_555
N1_11 Mn1_11 1_555 1_555
N2_11 N1_11 1_555 1_555
N3_11 Mn1_11 1_555 1_555
H4_11 C5_11 1_555 1_555
C7_11 N1_11 1_555 1_555
C8_11 O3_11 1_555 1_555
C9_11 C8_11 1_555 1_555
H6_11 C9_11 1_555 1_555
H30_12 C23_11 1_555 1_555
C24_11 N3_11 1_555 1_555
H31_11 C24_11 1_555 1_555
Mn2_11 O2_11 1_555 1_555
O4_11 Mn2_11 1_555 1_555
O5_6 C32_11 1_555 1_555
O6_11 Mn2_11 1_555 1_555
O7_11 Mn2_11 1_555 1_555
N4_11 Mn2_11 1_555 1_555
N5_6 N4_11 1_555 1_555
N6_11 C45_11 1_555 1_555
C26_11 O4_11 1_555 1_555
C27_11 C26_11 1_555 1_555
H34_11 C27_11 1_555 1_555
C28_9 C27_11 1_555 1_555
H35_9 C28_9 1_555 1_555
C29_9 C28_9 1_555 1_555
H36_9 C29_9 1_555 1_555
C30_9 C29_9 1_555 1_555
H37_9 C30_9 1_555 1_555
C31_11 C26_11 1_555 1_555
C32_11 N4_11 1_555 1_555
C33_11 O6_11 1_555 1_555
C45_11 O7_11 1_555 1_555
H61_11 C45_11 1_555 1_555
C46_11 N6_11 1_555 1_555
H62_11 C46_11 1_555 1_555
H63_11 C46_11 1_555 1_555
H64_11 C46_11 1_555 1_555
C47_11 N6_11 1_555 1_555
H65_11 C47_11 1_555 1_555
H66_11 C47_11 1_555 1_555
H67_11 C47_11 1_555 1_555
Mn4_6 O5_6 1_555 1_555
N2_11 C8_11 1_555 1_555
N2_11 Mn2_11 1_555 1_555
C5_11 C6_11 1_555 1_555
C6_11 C7_11 1_555 1_555
C23_11 C24_11 1_555 1_555
N5_6 C33_11 1_555 1_555
N5_6 Mn4_6 1_555 1_555
C30_9 C31_11 1_555 1_555
C31_11 C32_11 1_555 1_555
Mn4_6 O8_11 1_555 1_555
O8_11 C48_11 1_555 1_555
N7_11 Mn4_6 1_555 1_555
C48_11 C49_9 1_555 1_555
C49_9 H68_9 1_555 1_555
C50_9 C49_9 1_555 1_555
H69_9 C50_9 1_555 1_555
C51_9 C50_9 1_555 1_555
H70_9 C51_9 1_555 1_555
C52_11 C51_9 1_555 1_555
C53_11 C48_11 1_555 1_555
N11_5 Mn4_6 1_555 1_555
N7_11 C54_11 1_555 1_555
C52_11 C53_11 1_555 1_555
C53_11 C54_11 1_555 1_555
C2_11 H1_11 1_555 1_555
C3_11 C2_11 1_555 1_555
H2_11 C3_11 1_555 1_555
C4_11 C3_11 1_555 1_555
H3_11 C4_11 1_555 1_555
N11_5 C63_11 1_555 1_555
C63_11 H84_11 1_555 1_555
C64_11 C63_11 1_555 1_555
H85_9 C64_11 1_555 1_555
O1_10 C1_10 1_555 1_555
C1_10 C2_12 1_555 1_555
C2_12 H1_12 1_555 1_555
C3_12 C2_12 1_555 1_555
H2_12 C3_12 1_555 1_555
C4_12 C3_12 1_555 1_555
H3_12 C4_12 1_555 1_555
H38_10 C34_10 1_555 1_555
H39_10 C34_10 1_555 1_555
C35_10 C34_10 1_555 1_555
H40_10 C35_10 1_555 1_555
C36_10 C35_10 1_555 1_555
H42_10 C36_10 1_555 1_555
H43_10 C36_10 1_555 1_555
C37_10 C36_10 1_555 1_555
H44_10 C37_10 1_555 1_555
H45_10 C37_10 1_555 1_555
C38_10 C37_10 1_555 1_555
H46_10 C38_10 1_555 1_555
H47_10 C38_10 1_555 1_555
C39_8 C38_10 1_555 1_555
H48_8 C39_8 1_555 1_555
H49_8 C39_8 1_555 1_555
C40_8 C39_8 1_555 1_555
H50_8 C40_8 1_555 1_555
H51_8 C40_8 1_555 1_555
C41_8 C40_8 1_555 1_555
H52_8 C41_8 1_555 1_555
H53_8 C41_8 1_555 1_555
C42_8 C41_8 1_555 1_555
H54_8 C42_8 1_555 1_555
H55_8 C42_8 1_555 1_555
C43_8 C42_8 1_555 1_555
H56_8 C43_8 1_555 1_555
H57_8 C43_8 1_555 1_555
C44_7 C43_8 1_555 1_555
H58_6 C44_7 1_555 1_555
H59_7 C44_7 1_555 1_555
H60_7 C44_7 1_555 1_555
Mn3_3 O8_12 1_555 1_555
O8_12 C48_12 1_555 1_555
O10_10 Mn3_3 1_555 1_555
N7_12 Mn3_3 1_555 1_555
C48_12 C49_10 1_555 1_555
C49_10 H68_10 1_555 1_555
C50_10 C49_10 1_555 1_555
H69_10 C50_10 1_555 1_555
C51_10 C50_10 1_555 1_555
H70_10 C51_10 1_555 1_555
C52_12 C51_10 1_555 1_555
C53_12 C48_12 1_555 1_555
C55_10 O10_10 1_555 1_555
C56_10 C55_10 1_555 1_555
H72_10 C56_10 1_555 1_555
H73_10 C56_10 1_555 1_555
C57_10 C56_10 1_555 1_555
H74_10 C57_10 1_555 1_555
H75_10 C57_10 1_555 1_555
C58_10 C57_10 1_555 1_555
H76_10 C58_10 1_555 1_555
H77_10 C58_10 1_555 1_555
C59_10 C58_10 1_555 1_555
H78_10 C59_10 1_555 1_555
H79_10 C59_10 1_555 1_555
C60_10 C59_10 1_555 1_555
H80_10 C60_10 1_555 1_555
H81_10 C60_10 1_555 1_555
C61_10 C60_10 1_555 1_555
H82_10 C61_10 1_555 1_555
H83_10 C61_10 1_555 1_555
C62_10 C61_10 1_555 1_555
O11_6 Mn3_3 1_555 1_555
N10_6 Mn3_3 1_555 1_555
N11_6 Mn3_3 1_555 1_555
N7_12 N8_10 1_555 1_555
N7_12 C54_12 1_555 1_555
N8_10 C55_10 1_555 1_555
C52_12 C53_12 1_555 1_555
C53_12 C54_12 1_555 1_555
C62_10 H90_12 1_555 1_555
C62_10 H91_7 1_555 1_555
C62_10 H92_7 1_555 1_555
H15_8 C14_8 1_555 1_555
H16_8 C14_8 1_555 1_555
C15_8 C14_8 1_555 1_555
H17_8 C15_8 1_555 1_555
H18_8 C15_8 1_555 1_555
C16_8 C15_8 1_555 1_555
H19_8 C16_8 1_555 1_555
H20_8 C16_8 1_555 1_555
C17_8 C16_8 1_555 1_555
H21_8 C17_8 1_555 1_555
H22_8 C17_8 1_555 1_555
C18_8 C17_8 1_555 1_555
H23_8 C18_8 1_555 1_555
H24_8 C18_8 1_555 1_555
C19_8 C18_8 1_555 1_555
H25_8 C19_8 1_555 1_555
H26_8 C19_8 1_555 1_555
H27_8 C19_8 1_555 1_555
H35_10 C28_10 1_555 1_555
C29_10 C28_10 1_555 1_555
H36_10 C29_10 1_555 1_555
C30_10 C29_10 1_555 1_555
H37_10 C30_10 1_555 1_555
N9_7 C63_12 1_555 1_555
C63_12 H84_12 1_555 1_555
C64_12 C63_12 1_555 1_555
C65_10 C64_12 1_555 1_555
C66_10 C65_10 1_555 1_555
H86_10 C66_10 1_555 1_555
C67_10 N9_7 1_555 1_555
H87_10 C67_10 1_555 1_555
Mn5_4 N9_7 1_555 1_555
C66_10 C67_10 1_555 1_555
N9_8 C63_13 1_555 1_555
C63_13 H84_13 1_555 1_555
C64_13 C63_13 1_555 1_555
C65_11 C64_13 1_555 1_555
C66_11 C65_11 1_555 1_555
H86_11 C66_11 1_555 1_555
C67_11 N9_8 1_555 1_555
H87_11 C67_11 1_555 1_555
Mn5_5 N9_8 1_555 1_555
C66_11 C67_11 1_555 1_555
Mn1_12 O1_11 1_555 1_555
O1_11 C1_11 1_555 1_555
O2_12 C7_12 1_555 1_555
O3_12 Mn1_12 1_555 1_555
N1_12 Mn1_12 1_555 1_555
N2_12 N1_12 1_555 1_555
N3_12 Mn1_12 1_555 1_555
H4_12 C5_12 1_555 1_555
C6_12 C1_11 1_555 1_555
C7_12 N1_12 1_555 1_555
C8_12 O3_12 1_555 1_555
C9_12 C8_12 1_555 1_555
H5_10 C9_12 1_555 1_555
H6_12 C9_12 1_555 1_555
C10_10 C9_12 1_555 1_555
H7_10 C10_10 1_555 1_555
H8_10 C10_10 1_555 1_555
C11_10 C10_10 1_555 1_555
H9_10 C11_10 1_555 1_555
H10_12 C11_10 1_555 1_555
C12_10 C11_10 1_555 1_555
H11_10 C12_10 1_555 1_555
H12_10 C12_10 1_555 1_555
C13_10 C12_10 1_555 1_555
H13_10 C13_10 1_555 1_555
H14_9 C13_10 1_555 1_555
C14_9 C13_10 1_555 1_555
H15_9 C14_9 1_555 1_555
H16_9 C14_9 1_555 1_555
C15_9 C14_9 1_555 1_555
H17_9 C15_9 1_555 1_555
H18_9 C15_9 1_555 1_555
C16_9 C15_9 1_555 1_555
H19_9 C16_9 1_555 1_555
H20_9 C16_9 1_555 1_555
C17_9 C16_9 1_555 1_555
H21_9 C17_9 1_555 1_555
H22_9 C17_9 1_555 1_555
C18_9 C17_9 1_555 1_555
H23_9 C18_9 1_555 1_555
H24_9 C18_9 1_555 1_555
C19_9 C18_9 1_555 1_555
H25_9 C19_9 1_555 1_555
H26_9 C19_9 1_555 1_555
H27_9 C19_9 1_555 1_555
C20_10 N3_12 1_555 1_555
H28_10 C20_10 1_555 1_555
C21_10 C20_10 1_555 1_555
H29_10 C21_10 1_555 1_555
C22_10 C21_10 1_555 1_555
C23_12 C22_10 1_555 1_555
C24_12 N3_12 1_555 1_555
H31_12 C24_12 1_555 1_555
C25_8 C22_10 1_555 1_555
H32_12 C25_8 1_555 1_555
Mn2_12 O2_12 1_555 1_555
O4_12 Mn2_12 1_555 1_555
O5_7 C32_12 1_555 1_555
O6_12 Mn2_12 1_555 1_555
O7_12 Mn2_12 1_555 1_555
N4_12 Mn2_12 1_555 1_555
N5_7 N4_12 1_555 1_555
N6_12 C45_12 1_555 1_555
C26_12 O4_12 1_555 1_555
C27_12 C26_12 1_555 1_555
H34_12 C27_12 1_555 1_555
C28_11 C27_12 1_555 1_555
H35_11 C28_11 1_555 1_555
C29_11 C28_11 1_555 1_555
H36_11 C29_11 1_555 1_555
C30_11 C29_11 1_555 1_555
H37_11 C30_11 1_555 1_555
C31_12 C26_12 1_555 1_555
C32_12 N4_12 1_555 1_555
C33_12 O6_12 1_555 1_555
C34_11 C33_12 1_555 1_555
H38_11 C34_11 1_555 1_555
H39_11 C34_11 1_555 1_555
C35_11 C34_11 1_555 1_555
H40_11 C35_11 1_555 1_555
H41_12 C35_11 1_555 1_555
C36_11 C35_11 1_555 1_555
H42_11 C36_11 1_555 1_555
H43_11 C36_11 1_555 1_555
C37_11 C36_11 1_555 1_555
H44_11 C37_11 1_555 1_555
H45_11 C37_11 1_555 1_555
C38_11 C37_11 1_555 1_555
H46_11 C38_11 1_555 1_555
H47_11 C38_11 1_555 1_555
C39_9 C38_11 1_555 1_555
H48_9 C39_9 1_555 1_555
H49_9 C39_9 1_555 1_555
C40_9 C39_9 1_555 1_555
H50_9 C40_9 1_555 1_555
H51_9 C40_9 1_555 1_555
C41_9 C40_9 1_555 1_555
H52_9 C41_9 1_555 1_555
H53_9 C41_9 1_555 1_555
C42_9 C41_9 1_555 1_555
H54_9 C42_9 1_555 1_555
H55_9 C42_9 1_555 1_555
C43_9 C42_9 1_555 1_555
H56_9 C43_9 1_555 1_555
H57_9 C43_9 1_555 1_555
C45_12 O7_12 1_555 1_555
H61_12 C45_12 1_555 1_555
C46_12 N6_12 1_555 1_555
H62_12 C46_12 1_555 1_555
H63_12 C46_12 1_555 1_555
H64_12 C46_12 1_555 1_555
C47_12 N6_12 1_555 1_555
H65_12 C47_12 1_555 1_555
H66_12 C47_12 1_555 1_555
H67_12 C47_12 1_555 1_555
Mn5_5 O8_13 1_555 1_555
O8_13 C48_13 1_555 1_555
O9_10 Mn1_12 1_555 1_555
O10_11 Mn5_5 1_555 1_555
N7_13 Mn5_5 1_555 1_555
N8_11 Mn1_12 1_555 1_555
C48_13 C49_11 1_555 1_555
C49_11 H68_11 1_555 1_555
C50_11 C49_11 1_555 1_555
H69_11 C50_11 1_555 1_555
C51_11 C50_11 1_555 1_555
H70_11 C51_11 1_555 1_555
C52_13 C51_11 1_555 1_555
H71_10 C52_13 1_555 1_555
C53_13 C48_13 1_555 1_555
C54_13 O9_10 1_555 1_555
C55_11 O10_11 1_555 1_555
C56_11 C55_11 1_555 1_555
H72_11 C56_11 1_555 1_555
H73_11 C56_11 1_555 1_555
C57_11 C56_11 1_555 1_555
H74_11 C57_11 1_555 1_555
H75_11 C57_11 1_555 1_555
C58_11 C57_11 1_555 1_555
H76_11 C58_11 1_555 1_555
H77_11 C58_11 1_555 1_555
C59_11 C58_11 1_555 1_555
H78_11 C59_11 1_555 1_555
H79_11 C59_11 1_555 1_555
C60_11 C59_11 1_555 1_555
H80_11 C60_11 1_555 1_555
H81_11 C60_11 1_555 1_555
C61_11 C60_11 1_555 1_555
H82_11 C61_11 1_555 1_555
H83_11 C61_11 1_555 1_555
C62_11 C61_11 1_555 1_555
C66_12 C65_12 1_555 1_555
H86_12 C66_12 1_555 1_555
H87_12 C67_12 1_555 1_555
C68_8 C25_8 1_555 1_555
H88_8 C68_8 1_555 1_555
H89_8 C68_8 1_555 1_555
O11_7 Mn5_5 1_555 1_555
N10_7 Mn5_5 1_555 1_555
Mn4_7 O5_7 1_555 1_555
N2_12 C8_12 1_555 1_555
N2_12 Mn2_12 1_555 1_555
C5_12 C6_12 1_555 1_555
C6_12 C7_12 1_555 1_555
C23_12 C24_12 1_555 1_555
N5_7 C33_12 1_555 1_555
N5_7 Mn4_7 1_555 1_555
C30_11 C31_12 1_555 1_555
C31_12 C32_12 1_555 1_555
N7_13 N8_11 1_555 1_555
N7_13 C54_13 1_555 1_555
N8_11 C55_11 1_555 1_555
C52_13 C53_13 1_555 1_555
C53_13 C54_13 1_555 1_555
C65_12 C68_8 1_555 1_555
C66_12 C67_12 1_555 1_555
Mn1_13 O1_12 1_555 1_555
O1_12 C1_12 1_555 1_555
O2_13 C7_13 1_555 1_555
O3_13 Mn1_13 1_555 1_555
N1_13 Mn1_13 1_555 1_555
N2_13 N1_13 1_555 1_555
N3_13 Mn1_13 1_555 1_555
C1_12 C2_13 1_555 1_555
C2_13 H1_13 1_555 1_555
C3_13 C2_13 1_555 1_555
H2_13 C3_13 1_555 1_555
C4_13 C3_13 1_555 1_555
H3_13 C4_13 1_555 1_555
C5_13 C4_13 1_555 1_555
H4_13 C5_13 1_555 1_555
C6_13 C1_12 1_555 1_555
C7_13 N1_13 1_555 1_555
C8_13 O3_13 1_555 1_555
C9_13 C8_13 1_555 1_555
H5_11 C9_13 1_555 1_555
H6_13 C9_13 1_555 1_555
C10_11 C9_13 1_555 1_555
H7_11 C10_11 1_555 1_555
H8_11 C10_11 1_555 1_555
C11_11 C10_11 1_555 1_555
H9_11 C11_11 1_555 1_555
H10_13 C11_11 1_555 1_555
C12_11 C11_11 1_555 1_555
H11_11 C12_11 1_555 1_555
H12_11 C12_11 1_555 1_555
C13_11 C12_11 1_555 1_555
H13_11 C13_11 1_555 1_555
H14_10 C13_11 1_555 1_555
C14_10 C13_11 1_555 1_555
H15_10 C14_10 1_555 1_555
H16_10 C14_10 1_555 1_555
C15_10 C14_10 1_555 1_555
H17_10 C15_10 1_555 1_555
H18_10 C15_10 1_555 1_555
C16_10 C15_10 1_555 1_555
H19_10 C16_10 1_555 1_555
H20_10 C16_10 1_555 1_555
C17_10 C16_10 1_555 1_555
H21_10 C17_10 1_555 1_555
H22_10 C17_10 1_555 1_555
C18_10 C17_10 1_555 1_555
H23_10 C18_10 1_555 1_555
H24_10 C18_10 1_555 1_555
C19_10 C18_10 1_555 1_555
H25_10 C19_10 1_555 1_555
H26_10 C19_10 1_555 1_555
H27_10 C19_10 1_555 1_555
C20_11 N3_13 1_555 1_555
H28_11 C20_11 1_555 1_555
C21_11 C20_11 1_555 1_555
H29_11 C21_11 1_555 1_555
C22_11 C21_11 1_555 1_555
C23_13 C22_11 1_555 1_555
H30_14 C23_13 1_555 1_555
C24_13 N3_13 1_555 1_555
H31_13 C24_13 1_555 1_555
C25_9 C22_11 1_555 1_555
H32_13 C25_9 1_555 1_555
H33_10 C25_9 1_555 1_555
Mn2_13 O2_13 1_555 1_555
O4_13 Mn2_13 1_555 1_555
O5_8 C32_13 1_555 1_555
O6_13 Mn2_13 1_555 1_555
O7_13 Mn2_13 1_555 1_555
N4_13 Mn2_13 1_555 1_555
N5_8 N4_13 1_555 1_555
N6_13 C45_13 1_555 1_555
C26_13 O4_13 1_555 1_555
C27_13 C26_13 1_555 1_555
H34_13 C27_13 1_555 1_555
C28_12 C27_13 1_555 1_555
H35_12 C28_12 1_555 1_555
C29_12 C28_12 1_555 1_555
H36_12 C29_12 1_555 1_555
C30_12 C29_12 1_555 1_555
H37_12 C30_12 1_555 1_555
C31_13 C26_13 1_555 1_555
C32_13 N4_13 1_555 1_555
C33_13 O6_13 1_555 1_555
C34_12 C33_13 1_555 1_555
H38_12 C34_12 1_555 1_555
H39_12 C34_12 1_555 1_555
C35_12 C34_12 1_555 1_555
H40_12 C35_12 1_555 1_555
H41_13 C35_12 1_555 1_555
C36_12 C35_12 1_555 1_555
H42_12 C36_12 1_555 1_555
H43_12 C36_12 1_555 1_555
C37_12 C36_12 1_555 1_555
H44_12 C37_12 1_555 1_555
H45_12 C37_12 1_555 1_555
C38_12 C37_12 1_555 1_555
H46_12 C38_12 1_555 1_555
H47_12 C38_12 1_555 1_555
C45_13 O7_13 1_555 1_555
H61_13 C45_13 1_555 1_555
C46_13 N6_13 1_555 1_555
H62_13 C46_13 1_555 1_555
H63_13 C46_13 1_555 1_555
H64_13 C46_13 1_555 1_555
C47_13 N6_13 1_555 1_555
H65_13 C47_13 1_555 1_555
H66_13 C47_13 1_555 1_555
H67_13 C47_13 1_555 1_555
Mn5_4 O8_14 1_555 1_555
O8_14 C48_14 1_555 1_555
O9_11 Mn1_13 1_555 1_555
O10_12 Mn5_4 1_555 1_555
N7_14 Mn5_4 1_555 1_555
N8_12 Mn1_13 1_555 1_555
N11_6 C63_14 1_555 1_555
C48_14 C49_12 1_555 1_555
C49_12 H68_12 1_555 1_555
C50_12 C49_12 1_555 1_555
H69_12 C50_12 1_555 1_555
C51_12 C50_12 1_555 1_555
H70_12 C51_12 1_555 1_555
C52_14 C51_12 1_555 1_555
H71_11 C52_14 1_555 1_555
C53_14 C48_14 1_555 1_555
C54_14 O9_11 1_555 1_555
C55_12 O10_12 1_555 1_555
C56_12 C55_12 1_555 1_555
H72_12 C56_12 1_555 1_555
H73_12 C56_12 1_555 1_555
C57_12 C56_12 1_555 1_555
H74_12 C57_12 1_555 1_555
H75_12 C57_12 1_555 1_555
C58_12 C57_12 1_555 1_555
H76_12 C58_12 1_555 1_555
H77_12 C58_12 1_555 1_555
C59_12 C58_12 1_555 1_555
H78_12 C59_12 1_555 1_555
H79_12 C59_12 1_555 1_555
C60_12 C59_12 1_555 1_555
H80_12 C60_12 1_555 1_555
H81_12 C60_12 1_555 1_555
C61_12 C60_12 1_555 1_555
H82_12 C61_12 1_555 1_555
H83_12 C61_12 1_555 1_555
C62_12 C61_12 1_555 1_555
C63_14 H84_14 1_555 1_555
C64_14 C63_14 1_555 1_555
H85_10 C64_14 1_555 1_555
C65_13 C64_14 1_555 1_555
C66_13 C65_13 1_555 1_555
H86_13 C66_13 1_555 1_555
C67_13 N11_6 1_555 1_555
H87_13 C67_13 1_555 1_555
C68_9 C25_9 1_555 1_555
H88_9 C68_9 1_555 1_555
H89_9 C68_9 1_555 1_555
O11_8 Mn5_4 1_555 1_555
N10_8 Mn5_4 1_555 1_555
Mn4_8 O5_8 1_555 1_555
N2_13 C8_13 1_555 1_555
N2_13 Mn2_13 1_555 1_555
C5_13 C6_13 1_555 1_555
C6_13 C7_13 1_555 1_555
C23_13 C24_13 1_555 1_555
N5_8 C33_13 1_555 1_555
N5_8 Mn4_8 1_555 1_555
C30_12 C31_13 1_555 1_555
C31_13 C32_13 1_555 1_555
N7_14 N8_12 1_555 1_555
N7_14 C54_14 1_555 1_555
N8_12 C55_12 1_555 1_555
C52_14 C53_14 1_555 1_555
C53_14 C54_14 1_555 1_555
C65_13 C68_9 1_555 1_555
C66_13 C67_13 1_555 1_555
C62_12 H90_13 1_555 1_555
H7_12 C10_12 1_555 1_555
H8_12 C10_12 1_555 1_555
C11_12 C10_12 1_555 1_555
H9_12 C11_12 1_555 1_555
C12_12 C11_12 1_555 1_555
H11_12 C12_12 1_555 1_555
H12_12 C12_12 1_555 1_555
C13_12 C12_12 1_555 1_555
H13_12 C13_12 1_555 1_555
H14_11 C13_12 1_555 1_555
C14_11 C13_12 1_555 1_555
H15_11 C14_11 1_555 1_555
H16_11 C14_11 1_555 1_555
C15_11 C14_11 1_555 1_555
H17_11 C15_11 1_555 1_555
H18_11 C15_11 1_555 1_555
C16_11 C15_11 1_555 1_555
H19_11 C16_11 1_555 1_555
H20_11 C16_11 1_555 1_555
C17_11 C16_11 1_555 1_555
H21_11 C17_11 1_555 1_555
H22_11 C17_11 1_555 1_555
C18_11 C17_11 1_555 1_555
H23_11 C18_11 1_555 1_555
H24_11 C18_11 1_555 1_555
C19_11 C18_11 1_555 1_555
H25_11 C19_11 1_555 1_555
H26_11 C19_11 1_555 1_555
H27_11 C19_11 1_555 1_555
H28_12 C20_12 1_555 1_555
C21_12 C20_12 1_555 1_555
H29_12 C21_12 1_555 1_555
C22_12 C21_12 1_555 1_555
C25_10 C22_12 1_555 1_555
H33_11 C25_10 1_555 1_555
N9_9 C63_15 1_555 1_555
C63_15 H84_15 1_555 1_555
C64_15 C63_15 1_555 1_555
H85_11 C64_15 1_555 1_555
C65_14 C64_15 1_555 1_555
C66_14 C65_14 1_555 1_555
H86_14 C66_14 1_555 1_555
C67_14 N9_9 1_555 1_555
H87_14 C67_14 1_555 1_555
C68_10 C25_10 1_555 1_555
H88_10 C68_10 1_555 1_555
H89_10 C68_10 1_555 1_555
Mn4_8 N9_9 1_555 1_555
C65_14 C68_10 1_555 1_555
C66_14 C67_14 1_555 1_555
O2_14 C7_14 1_555 1_555
O3_14 Mn1_14 1_555 1_555
N1_14 Mn1_14 1_555 1_555
N2_14 N1_14 1_555 1_555
N3_14 Mn1_14 1_555 1_555
H4_14 C5_14 1_555 1_555
C7_14 N1_14 1_555 1_555
C8_14 O3_14 1_555 1_555
C9_14 C8_14 1_555 1_555
H5_13 C9_14 1_555 1_555
H6_14 C9_14 1_555 1_555
C10_13 C9_14 1_555 1_555
H7_13 C10_13 1_555 1_555
H8_13 C10_13 1_555 1_555
C11_13 C10_13 1_555 1_555
H9_13 C11_13 1_555 1_555
H10_14 C11_13 1_555 1_555
C12_13 C11_13 1_555 1_555
H11_13 C12_13 1_555 1_555
H12_13 C12_13 1_555 1_555
C13_13 C12_13 1_555 1_555
H13_13 C13_13 1_555 1_555
H14_12 C13_13 1_555 1_555
C14_12 C13_13 1_555 1_555
H15_12 C14_12 1_555 1_555
H16_12 C14_12 1_555 1_555
C15_12 C14_12 1_555 1_555
H17_12 C15_12 1_555 1_555
H18_12 C15_12 1_555 1_555
C16_12 C15_12 1_555 1_555
H19_12 C16_12 1_555 1_555
H20_12 C16_12 1_555 1_555
C17_12 C16_12 1_555 1_555
H21_12 C17_12 1_555 1_555
H22_12 C17_12 1_555 1_555
C18_12 C17_12 1_555 1_555
H23_12 C18_12 1_555 1_555
H24_12 C18_12 1_555 1_555
C19_12 C18_12 1_555 1_555
H25_12 C19_12 1_555 1_555
H26_12 C19_12 1_555 1_555
H27_12 C19_12 1_555 1_555
C20_13 N3_14 1_555 1_555
H28_13 C20_13 1_555 1_555
C21_13 C20_13 1_555 1_555
H29_13 C21_13 1_555 1_555
C22_13 C21_13 1_555 1_555
C23_14 C22_13 1_555 1_555
H30_15 C23_14 1_555 1_555
C24_14 N3_14 1_555 1_555
H31_14 C24_14 1_555 1_555
C25_11 C22_13 1_555 1_555
H32_14 C25_11 1_555 1_555
H33_12 C25_11 1_555 1_555
Mn2_14 O2_14 1_555 1_555
O4_14 Mn2_14 1_555 1_555
O11_6 C32_14 1_555 1_555
O6_14 Mn2_14 1_555 1_555
O7_14 Mn2_14 1_555 1_555
N4_14 Mn2_14 1_555 1_555
N10_6 N4_14 1_555 1_555
N6_14 C45_14 1_555 1_555
C26_14 O4_14 1_555 1_555
C27_14 C26_14 1_555 1_555
H34_14 C27_14 1_555 1_555
C28_13 C27_14 1_555 1_555
H35_13 C28_13 1_555 1_555
C29_13 C28_13 1_555 1_555
H36_13 C29_13 1_555 1_555
C30_13 C29_13 1_555 1_555
H37_13 C30_13 1_555 1_555
C31_14 C26_14 1_555 1_555
C32_14 N4_14 1_555 1_555
C33_14 O6_14 1_555 1_555
C45_14 O7_14 1_555 1_555
H61_14 C45_14 1_555 1_555
C46_14 N6_14 1_555 1_555
H62_14 C46_14 1_555 1_555
H63_14 C46_14 1_555 1_555
H64_14 C46_14 1_555 1_555
C47_14 N6_14 1_555 1_555
H65_14 C47_14 1_555 1_555
H66_14 C47_14 1_555 1_555
H67_14 C47_14 1_555 1_555
O9_13 Mn1_14 1_555 1_555
N9_10 C63_16 1_555 1_555
C63_16 H84_16 1_555 1_555
C64_16 C63_16 1_555 1_555
H85_12 C64_16 1_555 1_555
C65_15 C64_16 1_555 1_555
C66_15 C65_15 1_555 1_555
H86_15 C66_15 1_555 1_555
C67_15 N9_10 1_555 1_555
H87_15 C67_15 1_555 1_555
C68_11 C25_11 1_555 1_555
H88_11 C68_11 1_555 1_555
H89_11 C68_11 1_555 1_555
Mn4_7 N9_10 1_555 1_555
N2_14 C8_14 1_555 1_555
N2_14 Mn2_14 1_555 1_555
C5_14 C6_14 1_555 1_555
C6_14 C7_14 1_555 1_555
C23_14 C24_14 1_555 1_555
N10_6 C33_14 1_555 1_555
C30_13 C31_14 1_555 1_555
C31_14 C32_14 1_555 1_555
C65_15 C68_11 1_555 1_555
C66_15 C67_15 1_555 1_555
Mn1_15 O1_13 1_555 1_555
O1_13 C1_13 1_555 1_555
O2_15 C7_15 1_555 1_555
O3_15 Mn1_15 1_555 1_555
N1_15 Mn1_15 1_555 1_555
N2_15 N1_15 1_555 1_555
N3_15 Mn1_15 1_555 1_555
C1_13 C2_14 1_555 1_555
C2_14 H1_14 1_555 1_555
C3_14 C2_14 1_555 1_555
H2_14 C3_14 1_555 1_555
C4_14 C3_14 1_555 1_555
H3_14 C4_14 1_555 1_555
C5_15 C4_14 1_555 1_555
H4_15 C5_15 1_555 1_555
C6_15 C1_13 1_555 1_555
C7_15 N1_15 1_555 1_555
C8_15 O3_15 1_555 1_555
C9_15 C8_15 1_555 1_555
H5_14 C9_15 1_555 1_555
H6_15 C9_15 1_555 1_555
C10_14 C9_15 1_555 1_555
H7_14 C10_14 1_555 1_555
H8_14 C10_14 1_555 1_555
C11_14 C10_14 1_555 1_555
H9_14 C11_14 1_555 1_555
H10_15 C11_14 1_555 1_555
C12_14 C11_14 1_555 1_555
H11_14 C12_14 1_555 1_555
H12_14 C12_14 1_555 1_555
C13_14 C12_14 1_555 1_555
H13_14 C13_14 1_555 1_555
C20_14 N3_15 1_555 1_555
H28_14 C20_14 1_555 1_555
C21_14 C20_14 1_555 1_555
H29_14 C21_14 1_555 1_555
C22_14 C21_14 1_555 1_555
C23_15 C22_14 1_555 1_555
H30_16 C23_15 1_555 1_555
C24_15 N3_15 1_555 1_555
H31_15 C24_15 1_555 1_555
C25_12 C22_14 1_555 1_555
H32_15 C25_12 1_555 1_555
H33_13 C25_12 1_555 1_555
Mn2_15 O2_15 1_555 1_555
O4_15 Mn2_15 1_555 1_555
O11_7 C32_15 1_555 1_555
O6_15 Mn2_15 1_555 1_555
O7_15 Mn2_15 1_555 1_555
N4_15 Mn2_15 1_555 1_555
N10_7 N4_15 1_555 1_555
N6_15 C45_15 1_555 1_555
C26_15 O4_15 1_555 1_555
C27_15 C26_15 1_555 1_555
H34_15 C27_15 1_555 1_555
C31_15 C26_15 1_555 1_555
C32_15 N4_15 1_555 1_555
C33_15 O6_15 1_555 1_555
C34_13 C33_15 1_555 1_555
H38_13 C34_13 1_555 1_555
H39_13 C34_13 1_555 1_555
C35_13 C34_13 1_555 1_555
H40_13 C35_13 1_555 1_555
H41_15 C35_13 1_555 1_555
C36_13 C35_13 1_555 1_555
H42_13 C36_13 1_555 1_555
H43_13 C36_13 1_555 1_555
C37_13 C36_13 1_555 1_555
H44_13 C37_13 1_555 1_555
H45_13 C37_13 1_555 1_555
C38_13 C37_13 1_555 1_555
H46_13 C38_13 1_555 1_555
H47_13 C38_13 1_555 1_555
C39_10 C38_13 1_555 1_555
H48_10 C39_10 1_555 1_555
H49_10 C39_10 1_555 1_555
C40_10 C39_10 1_555 1_555
H50_10 C40_10 1_555 1_555
H51_10 C40_10 1_555 1_555
C41_10 C40_10 1_555 1_555
H52_10 C41_10 1_555 1_555
H53_10 C41_10 1_555 1_555
C42_10 C41_10 1_555 1_555
H54_10 C42_10 1_555 1_555
H55_10 C42_10 1_555 1_555
C43_10 C42_10 1_555 1_555
H56_10 C43_10 1_555 1_555
H57_10 C43_10 1_555 1_555
C44_8 C43_10 1_555 1_555
H59_8 C44_8 1_555 1_555
H60_8 C44_8 1_555 1_555
C45_15 O7_15 1_555 1_555
H61_15 C45_15 1_555 1_555
C46_15 N6_15 1_555 1_555
H62_15 C46_15 1_555 1_555
H63_15 C46_15 1_555 1_555
H64_15 C46_15 1_555 1_555
C47_15 N6_15 1_555 1_555
H65_15 C47_15 1_555 1_555
H66_15 C47_15 1_555 1_555
H67_15 C47_15 1_555 1_555
Mn4_7 O8_15 1_555 1_555
O8_15 C48_15 1_555 1_555
O9_14 Mn1_15 1_555 1_555
O10_13 Mn4_7 1_555 1_555
N7_15 Mn4_7 1_555 1_555
N8_13 Mn1_15 1_555 1_555
C48_15 C49_13 1_555 1_555
C49_13 H68_13 1_555 1_555
C50_13 C49_13 1_555 1_555
H69_13 C50_13 1_555 1_555
C51_13 C50_13 1_555 1_555
H70_13 C51_13 1_555 1_555
C52_15 C51_13 1_555 1_555
H71_14 C52_15 1_555 1_555
C53_15 C48_15 1_555 1_555
C54_15 O9_14 1_555 1_555
C55_13 O10_13 1_555 1_555
C56_13 C55_13 1_555 1_555
H72_13 C56_13 1_555 1_555
H73_13 C56_13 1_555 1_555
C57_13 C56_13 1_555 1_555
H74_13 C57_13 1_555 1_555
H75_13 C57_13 1_555 1_555
C58_13 C57_13 1_555 1_555
H76_13 C58_13 1_555 1_555
H77_13 C58_13 1_555 1_555
C59_13 C58_13 1_555 1_555
H78_13 C59_13 1_555 1_555
H79_13 C59_13 1_555 1_555
C60_13 C59_13 1_555 1_555
H80_13 C60_13 1_555 1_555
H81_13 C60_13 1_555 1_555
C61_13 C60_13 1_555 1_555
H82_13 C61_13 1_555 1_555
H83_13 C61_13 1_555 1_555
C62_13 C61_13 1_555 1_555
C68_12 C25_12 1_555 1_555
H88_12 C68_12 1_555 1_555
H89_12 C68_12 1_555 1_555
N2_15 C8_15 1_555 1_555
N2_15 Mn2_15 1_555 1_555
C5_15 C6_15 1_555 1_555
C6_15 C7_15 1_555 1_555
C23_15 C24_15 1_555 1_555
N10_7 C33_15 1_555 1_555
C31_15 C32_15 1_555 1_555
N7_15 N8_13 1_555 1_555
N7_15 C54_15 1_555 1_555
N8_13 C55_13 1_555 1_555
C52_15 C53_15 1_555 1_555
C53_15 C54_15 1_555 1_555
C62_13 H90_14 1_555 1_555
C62_13 H91_8 1_555 1_555
C62_13 H92_8 1_555 1_555
Mn1_16 O1_14 1_555 1_555
O1_14 C1_14 1_555 1_555
O2_16 C7_16 1_555 1_555
O3_16 Mn1_16 1_555 1_555
N1_16 Mn1_16 1_555 1_555
N2_16 N1_16 1_555 1_555
N3_16 Mn1_16 1_555 1_555
C1_14 C2_15 1_555 1_555
C2_15 H1_15 1_555 1_555
C3_15 C2_15 1_555 1_555
H2_15 C3_15 1_555 1_555
C4_15 C3_15 1_555 1_555
H3_15 C4_15 1_555 1_555
C5_16 C4_15 1_555 1_555
H4_16 C5_16 1_555 1_555
C6_16 C1_14 1_555 1_555
C7_16 N1_16 1_555 1_555
C8_16 O3_16 1_555 1_555
C9_16 C8_16 1_555 1_555
H5_15 C9_16 1_555 1_555
H6_16 C9_16 1_555 1_555
C10_15 C9_16 1_555 1_555
H7_15 C10_15 1_555 1_555
H8_15 C10_15 1_555 1_555
C11_15 C10_15 1_555 1_555
H9_15 C11_15 1_555 1_555
H10_16 C11_15 1_555 1_555
C12_15 C11_15 1_555 1_555
H11_15 C12_15 1_555 1_555
H12_15 C12_15 1_555 1_555
C13_15 C12_15 1_555 1_555
H13_15 C13_15 1_555 1_555
C20_15 N3_16 1_555 1_555
H28_15 C20_15 1_555 1_555
C21_15 C20_15 1_555 1_555
H29_15 C21_15 1_555 1_555
C22_15 C21_15 1_555 1_555
C23_16 C22_15 1_555 1_555
H30_17 C23_16 1_555 1_555
C24_16 N3_16 1_555 1_555
H31_16 C24_16 1_555 1_555
Mn2_16 O2_16 1_555 1_555
O4_16 Mn2_16 1_555 1_555
O11_8 C32_16 1_555 1_555
O6_16 Mn2_16 1_555 1_555
O7_16 Mn2_16 1_555 1_555
N4_16 Mn2_16 1_555 1_555
N10_8 N4_16 1_555 1_555
N6_16 C45_16 1_555 1_555
C26_16 O4_16 1_555 1_555
C27_16 C26_16 1_555 1_555
H34_16 C27_16 1_555 1_555
C31_16 C26_16 1_555 1_555
C32_16 N4_16 1_555 1_555
C33_16 O6_16 1_555 1_555
C34_14 C33_16 1_555 1_555
H38_14 C34_14 1_555 1_555
H39_14 C34_14 1_555 1_555
C35_14 C34_14 1_555 1_555
H40_14 C35_14 1_555 1_555
H41_16 C35_14 1_555 1_555
C36_14 C35_14 1_555 1_555
H42_14 C36_14 1_555 1_555
H43_14 C36_14 1_555 1_555
C37_14 C36_14 1_555 1_555
H44_14 C37_14 1_555 1_555
H45_14 C37_14 1_555 1_555
C38_14 C37_14 1_555 1_555
H46_14 C38_14 1_555 1_555
H47_14 C38_14 1_555 1_555
C39_11 C38_14 1_555 1_555
H48_11 C39_11 1_555 1_555
H49_11 C39_11 1_555 1_555
C40_11 C39_11 1_555 1_555
H50_11 C40_11 1_555 1_555
H51_11 C40_11 1_555 1_555
C41_11 C40_11 1_555 1_555
H52_11 C41_11 1_555 1_555
H53_11 C41_11 1_555 1_555
C42_11 C41_11 1_555 1_555
H54_11 C42_11 1_555 1_555
H55_11 C42_11 1_555 1_555
C43_11 C42_11 1_555 1_555
H56_11 C43_11 1_555 1_555
H57_11 C43_11 1_555 1_555
C44_9 C43_11 1_555 1_555
H58_8 C44_9 1_555 1_555
H59_9 C44_9 1_555 1_555
H60_9 C44_9 1_555 1_555
C45_16 O7_16 1_555 1_555
H61_16 C45_16 1_555 1_555
C46_16 N6_16 1_555 1_555
H62_16 C46_16 1_555 1_555
H63_16 C46_16 1_555 1_555
H64_16 C46_16 1_555 1_555
C47_16 N6_16 1_555 1_555
H65_16 C47_16 1_555 1_555
H66_16 C47_16 1_555 1_555
H67_16 C47_16 1_555 1_555
Mn4_8 O8_16 1_555 1_555
O8_16 C48_16 1_555 1_555
O9_15 Mn1_16 1_555 1_555
O10_14 Mn4_8 1_555 1_555
N7_16 Mn4_8 1_555 1_555
N8_14 Mn1_16 1_555 1_555
H71_15 C52_16 1_555 1_555
C53_16 C48_16 1_555 1_555
C54_16 O9_15 1_555 1_555
C55_14 O10_14 1_555 1_555
C56_14 C55_14 1_555 1_555
H72_14 C56_14 1_555 1_555
H73_14 C56_14 1_555 1_555
C57_14 C56_14 1_555 1_555
H74_14 C57_14 1_555 1_555
H75_14 C57_14 1_555 1_555
C58_14 C57_14 1_555 1_555
H76_14 C58_14 1_555 1_555
H77_14 C58_14 1_555 1_555
C59_14 C58_14 1_555 1_555
H78_14 C59_14 1_555 1_555
H79_14 C59_14 1_555 1_555
C60_14 C59_14 1_555 1_555
H80_14 C60_14 1_555 1_555
H81_14 C60_14 1_555 1_555
C61_14 C60_14 1_555 1_555
H82_14 C61_14 1_555 1_555
H83_14 C61_14 1_555 1_555
C62_14 C61_14 1_555 1_555
N2_16 C8_16 1_555 1_555
N2_16 Mn2_16 1_555 1_555
C5_16 C6_16 1_555 1_555
C6_16 C7_16 1_555 1_555
C23_16 C24_16 1_555 1_555
N10_8 C33_16 1_555 1_555
C31_16 C32_16 1_555 1_555
N7_16 N8_14 1_555 1_555
N7_16 C54_16 1_555 1_555
N8_14 C55_14 1_555 1_555
C52_16 C53_16 1_555 1_555
C53_16 C54_16 1_555 1_555
C62_14 H90_15 1_555 1_555
C62_14 H91_9 1_555 1_555
C62_14 H92_9 1_555 1_555
H33_14 C25_13 1_555 1_555
C49_14 H68_14 1_555 1_555
C50_14 C49_14 1_555 1_555
H69_14 C50_14 1_555 1_555
C51_14 C50_14 1_555 1_555
H70_14 C51_14 1_555 1_555
C68_13 C25_13 1_555 1_555
H88_13 C68_13 1_555 1_555
H89_13 C68_13 1_555 1_555
N9_11 C63_17 1_555 1_555
C63_17 H84_17 1_555 1_555
C64_17 C63_17 1_555 1_555
C65_16 C64_17 1_555 1_555
C66_16 C65_16 1_555 1_555
H86_16 C66_16 1_555 1_555
C67_16 N9_11 1_555 1_555
H87_16 C67_16 1_555 1_555
Mn5_6 N9_11 1_555 1_555
C66_16 C67_16 1_555 1_555
Mn1_17 O1_15 1_555 1_555
O1_15 C1_15 1_555 1_555
O2_17 C7_17 1_555 1_555
O3_17 Mn1_17 1_555 1_555
N1_17 Mn1_17 1_555 1_555
N2_17 N1_17 1_555 1_555
N3_17 Mn1_17 1_555 1_555
H4_17 C5_17 1_555 1_555
C6_17 C1_15 1_555 1_555
C7_17 N1_17 1_555 1_555
C8_17 O3_17 1_555 1_555
C9_17 C8_17 1_555 1_555
H5_16 C9_17 1_555 1_555
H6_17 C9_17 1_555 1_555
C10_16 C9_17 1_555 1_555
H7_16 C10_16 1_555 1_555
H8_16 C10_16 1_555 1_555
C11_16 C10_16 1_555 1_555
H9_16 C11_16 1_555 1_555
H10_17 C11_16 1_555 1_555
C12_16 C11_16 1_555 1_555
H11_16 C12_16 1_555 1_555
H12_16 C12_16 1_555 1_555
C13_16 C12_16 1_555 1_555
H13_16 C13_16 1_555 1_555
H14_13 C13_16 1_555 1_555
C14_13 C13_16 1_555 1_555
H15_13 C14_13 1_555 1_555
H16_13 C14_13 1_555 1_555
C15_13 C14_13 1_555 1_555
H17_13 C15_13 1_555 1_555
H18_13 C15_13 1_555 1_555
C16_13 C15_13 1_555 1_555
H19_13 C16_13 1_555 1_555
H20_13 C16_13 1_555 1_555
C17_13 C16_13 1_555 1_555
H21_13 C17_13 1_555 1_555
H22_13 C17_13 1_555 1_555
C18_13 C17_13 1_555 1_555
H23_13 C18_13 1_555 1_555
H24_13 C18_13 1_555 1_555
C19_13 C18_13 1_555 1_555
H25_13 C19_13 1_555 1_555
H26_13 C19_13 1_555 1_555
H27_13 C19_13 1_555 1_555
C20_16 N3_17 1_555 1_555
H28_16 C20_16 1_555 1_555
C21_16 C20_16 1_555 1_555
H29_16 C21_16 1_555 1_555
C22_16 C21_16 1_555 1_555
C23_17 C22_16 1_555 1_555
C24_17 N3_17 1_555 1_555
H31_17 C24_17 1_555 1_555
C25_14 C22_16 1_555 1_555
H32_17 C25_14 1_555 1_555
Mn2_17 O2_17 1_555 1_555
O4_17 Mn2_17 1_555 1_555
O5_9 C32_17 1_555 1_555
O6_17 Mn2_17 1_555 1_555
O7_17 Mn2_17 1_555 1_555
N4_17 Mn2_17 1_555 1_555
N5_9 N4_17 1_555 1_555
N6_17 C45_17 1_555 1_555
C26_17 O4_17 1_555 1_555
C27_17 C26_17 1_555 1_555
H34_17 C27_17 1_555 1_555
C28_14 C27_17 1_555 1_555
H35_14 C28_14 1_555 1_555
C29_14 C28_14 1_555 1_555
H36_14 C29_14 1_555 1_555
C30_14 C29_14 1_555 1_555
H37_14 C30_14 1_555 1_555
C31_17 C26_17 1_555 1_555
C32_17 N4_17 1_555 1_555
C33_17 O6_17 1_555 1_555
C34_15 C33_17 1_555 1_555
H38_15 C34_15 1_555 1_555
H39_15 C34_15 1_555 1_555
C35_15 C34_15 1_555 1_555
H40_15 C35_15 1_555 1_555
H41_17 C35_15 1_555 1_555
C36_15 C35_15 1_555 1_555
H42_15 C36_15 1_555 1_555
H43_15 C36_15 1_555 1_555
C37_15 C36_15 1_555 1_555
H44_15 C37_15 1_555 1_555
H45_15 C37_15 1_555 1_555
C38_15 C37_15 1_555 1_555
H46_15 C38_15 1_555 1_555
H47_15 C38_15 1_555 1_555
C45_17 O7_17 1_555 1_555
H61_17 C45_17 1_555 1_555
C46_17 N6_17 1_555 1_555
H62_17 C46_17 1_555 1_555
H63_17 C46_17 1_555 1_555
H64_17 C46_17 1_555 1_555
C47_17 N6_17 1_555 1_555
H65_17 C47_17 1_555 1_555
H66_17 C47_17 1_555 1_555
H67_17 C47_17 1_555 1_555
Mn5_6 O8_17 1_555 1_555
O8_17 C48_17 1_555 1_555
O9_16 Mn1_17 1_555 1_555
O10_15 Mn5_6 1_555 1_555
N7_17 Mn5_6 1_555 1_555
N8_15 Mn1_17 1_555 1_555
C48_17 C49_15 1_555 1_555
C49_15 H68_15 1_555 1_555
C50_15 C49_15 1_555 1_555
H69_15 C50_15 1_555 1_555
C51_15 C50_15 1_555 1_555
H70_15 C51_15 1_555 1_555
C52_17 C51_15 1_555 1_555
H71_16 C52_17 1_555 1_555
C53_17 C48_17 1_555 1_555
C54_17 O9_16 1_555 1_555
C55_15 O10_15 1_555 1_555
C56_15 C55_15 1_555 1_555
H72_15 C56_15 1_555 1_555
H73_15 C56_15 1_555 1_555
C57_15 C56_15 1_555 1_555
H74_15 C57_15 1_555 1_555
H75_15 C57_15 1_555 1_555
C58_15 C57_15 1_555 1_555
H76_15 C58_15 1_555 1_555
H77_15 C58_15 1_555 1_555
C59_15 C58_15 1_555 1_555
H78_15 C59_15 1_555 1_555
H79_15 C59_15 1_555 1_555
C60_15 C59_15 1_555 1_555
H80_15 C60_15 1_555 1_555
H81_15 C60_15 1_555 1_555
C61_15 C60_15 1_555 1_555
H82_15 C61_15 1_555 1_555
H83_15 C61_15 1_555 1_555
C62_15 C61_15 1_555 1_555
C66_17 C65_17 1_555 1_555
H86_17 C66_17 1_555 1_555
H87_17 C67_17 1_555 1_555
C68_14 C25_14 1_555 1_555
H88_14 C68_14 1_555 1_555
H89_14 C68_14 1_555 1_555
O11_9 Mn5_6 1_555 1_555
N10_9 Mn5_6 1_555 1_555
Mn4_9 O5_9 1_555 1_555
N2_17 C8_17 1_555 1_555
N2_17 Mn2_17 1_555 1_555
C5_17 C6_17 1_555 1_555
C6_17 C7_17 1_555 1_555
C23_17 C24_17 1_555 1_555
N5_9 C33_17 1_555 1_555
N5_9 Mn4_9 1_555 1_555
C30_14 C31_17 1_555 1_555
C31_17 C32_17 1_555 1_555
N7_17 N8_15 1_555 1_555
N7_17 C54_17 1_555 1_555
N8_15 C55_15 1_555 1_555
C52_17 C53_17 1_555 1_555
C53_17 C54_17 1_555 1_555
C65_17 C68_14 1_555 1_555
C66_17 C67_17 1_555 1_555
H7_17 C10_17 1_555 1_555
H8_17 C10_17 1_555 1_555
C11_17 C10_17 1_555 1_555
H9_17 C11_17 1_555 1_555
C12_17 C11_17 1_555 1_555
H11_17 C12_17 1_555 1_555
H12_17 C12_17 1_555 1_555
C13_17 C12_17 1_555 1_555
H13_17 C13_17 1_555 1_555
H14_14 C13_17 1_555 1_555
C14_14 C13_17 1_555 1_555
H15_14 C14_14 1_555 1_555
H16_14 C14_14 1_555 1_555
C15_14 C14_14 1_555 1_555
H17_14 C15_14 1_555 1_555
H18_14 C15_14 1_555 1_555
C16_14 C15_14 1_555 1_555
H19_14 C16_14 1_555 1_555
H20_14 C16_14 1_555 1_555
C17_14 C16_14 1_555 1_555
H21_14 C17_14 1_555 1_555
H22_14 C17_14 1_555 1_555
C18_14 C17_14 1_555 1_555
H23_14 C18_14 1_555 1_555
H24_14 C18_14 1_555 1_555
C19_14 C18_14 1_555 1_555
H25_14 C19_14 1_555 1_555
H26_14 C19_14 1_555 1_555
H27_14 C19_14 1_555 1_555
H28_17 C20_17 1_555 1_555
C21_17 C20_17 1_555 1_555
H29_17 C21_17 1_555 1_555
C22_17 C21_17 1_555 1_555
C25_15 C22_17 1_555 1_555
H33_15 C25_15 1_555 1_555
N9_12 C63_18 1_555 1_555
C63_18 H84_18 1_555 1_555
C64_18 C63_18 1_555 1_555
H85_15 C64_18 1_555 1_555
C65_18 C64_18 1_555 1_555
C66_18 C65_18 1_555 1_555
H86_18 C66_18 1_555 1_555
C67_18 N9_12 1_555 1_555
H87_18 C67_18 1_555 1_555
C68_15 C25_15 1_555 1_555
H88_15 C68_15 1_555 1_555
H89_15 C68_15 1_555 1_555
Mn4_9 N9_12 1_555 1_555
C65_18 C68_15 1_555 1_555
C66_18 C67_18 1_555 1_555
Mn1_18 O1_16 1_555 1_555
O1_16 C1_16 1_555 1_555
O2_18 C7_18 1_555 1_555
O3_18 Mn1_18 1_555 1_555
N1_18 Mn1_18 1_555 1_555
N2_18 N1_18 1_555 1_555
N3_18 Mn1_18 1_555 1_555
C1_16 C2_16 1_555 1_555
C2_16 H1_16 1_555 1_555
C3_16 C2_16 1_555 1_555
H2_16 C3_16 1_555 1_555
C4_16 C3_16 1_555 1_555
H3_16 C4_16 1_555 1_555
C5_18 C4_16 1_555 1_555
H4_18 C5_18 1_555 1_555
C6_18 C1_16 1_555 1_555
C7_18 N1_18 1_555 1_555
C8_18 O3_18 1_555 1_555
C9_18 C8_18 1_555 1_555
H5_18 C9_18 1_555 1_555
H6_18 C9_18 1_555 1_555
C10_18 C9_18 1_555 1_555
H7_18 C10_18 1_555 1_555
H8_18 C10_18 1_555 1_555
C11_18 C10_18 1_555 1_555
H9_18 C11_18 1_555 1_555
H10_18 C11_18 1_555 1_555
C12_18 C11_18 1_555 1_555
H11_18 C12_18 1_555 1_555
H12_18 C12_18 1_555 1_555
C13_18 C12_18 1_555 1_555
H13_18 C13_18 1_555 1_555
C20_18 N3_18 1_555 1_555
H28_18 C20_18 1_555 1_555
C21_18 C20_18 1_555 1_555
H29_18 C21_18 1_555 1_555
C22_18 C21_18 1_555 1_555
C23_18 C22_18 1_555 1_555
H30_18 C23_18 1_555 1_555
C24_18 N3_18 1_555 1_555
H31_18 C24_18 1_555 1_555
Mn2_18 O2_18 1_555 1_555
O4_18 Mn2_18 1_555 1_555
O11_9 C32_18 1_555 1_555
O6_18 Mn2_18 1_555 1_555
O7_18 Mn2_18 1_555 1_555
N4_18 Mn2_18 1_555 1_555
N10_9 N4_18 1_555 1_555
N6_18 C45_18 1_555 1_555
C26_18 O4_18 1_555 1_555
C27_18 C26_18 1_555 1_555
H34_18 C27_18 1_555 1_555
C31_18 C26_18 1_555 1_555
C32_18 N4_18 1_555 1_555
C33_18 O6_18 1_555 1_555
C34_16 C33_18 1_555 1_555
H38_16 C34_16 1_555 1_555
H39_16 C34_16 1_555 1_555
C35_16 C34_16 1_555 1_555
H40_16 C35_16 1_555 1_555
H41_18 C35_16 1_555 1_555
C36_16 C35_16 1_555 1_555
H42_16 C36_16 1_555 1_555
H43_16 C36_16 1_555 1_555
C37_16 C36_16 1_555 1_555
H44_16 C37_16 1_555 1_555
H45_16 C37_16 1_555 1_555
C38_16 C37_16 1_555 1_555
H46_16 C38_16 1_555 1_555
H47_16 C38_16 1_555 1_555
C39_12 C38_16 1_555 1_555
H48_12 C39_12 1_555 1_555
H49_12 C39_12 1_555 1_555
C40_12 C39_12 1_555 1_555
H50_12 C40_12 1_555 1_555
H51_12 C40_12 1_555 1_555
C41_12 C40_12 1_555 1_555
H52_12 C41_12 1_555 1_555
H53_12 C41_12 1_555 1_555
C42_12 C41_12 1_555 1_555
H54_12 C42_12 1_555 1_555
H55_12 C42_12 1_555 1_555
C43_12 C42_12 1_555 1_555
H56_12 C43_12 1_555 1_555
H57_12 C43_12 1_555 1_555
C44_10 C43_12 1_555 1_555
H59_10 C44_10 1_555 1_555
H60_10 C44_10 1_555 1_555
C45_18 O7_18 1_555 1_555
H61_18 C45_18 1_555 1_555
C46_18 N6_18 1_555 1_555
H62_18 C46_18 1_555 1_555
H63_18 C46_18 1_555 1_555
H64_18 C46_18 1_555 1_555
C47_18 N6_18 1_555 1_555
H65_18 C47_18 1_555 1_555
H66_18 C47_18 1_555 1_555
H67_18 C47_18 1_555 1_555
Mn4_9 O8_18 1_555 1_555
O8_18 C48_18 1_555 1_555
O9_18 Mn1_18 1_555 1_555
O10_16 Mn4_9 1_555 1_555
N7_18 Mn4_9 1_555 1_555
N8_16 Mn1_18 1_555 1_555
H71_18 C52_18 1_555 1_555
C53_18 C48_18 1_555 1_555
C54_18 O9_18 1_555 1_555
C55_16 O10_16 1_555 1_555
C56_16 C55_16 1_555 1_555
H72_16 C56_16 1_555 1_555
H73_16 C56_16 1_555 1_555
C57_16 C56_16 1_555 1_555
H74_16 C57_16 1_555 1_555
H75_16 C57_16 1_555 1_555
C58_16 C57_16 1_555 1_555
H76_16 C58_16 1_555 1_555
H77_16 C58_16 1_555 1_555
C59_16 C58_16 1_555 1_555
H78_16 C59_16 1_555 1_555
H79_16 C59_16 1_555 1_555
C60_16 C59_16 1_555 1_555
H80_16 C60_16 1_555 1_555
H81_16 C60_16 1_555 1_555
C61_16 C60_16 1_555 1_555
H82_16 C61_16 1_555 1_555
H83_16 C61_16 1_555 1_555
C62_16 C61_16 1_555 1_555
N2_18 C8_18 1_555 1_555
N2_18 Mn2_18 1_555 1_555
C5_18 C6_18 1_555 1_555
C6_18 C7_18 1_555 1_555
C23_18 C24_18 1_555 1_555
N10_9 C33_18 1_555 1_555
C31_18 C32_18 1_555 1_555
N7_18 N8_16 1_555 1_555
N7_18 C54_18 1_555 1_555
N8_16 C55_16 1_555 1_555
C52_18 C53_18 1_555 1_555
C53_18 C54_18 1_555 1_555
C62_16 H90_16 1_555 1_555
C62_16 H91_10 1_555 1_555
C62_16 H92_10 1_555 1_555
H15_15 C14_15 1_555 1_555
H16_15 C14_15 1_555 1_555
C15_15 C14_15 1_555 1_555
H17_15 C15_15 1_555 1_555
H18_15 C15_15 1_555 1_555
C16_15 C15_15 1_555 1_555
H19_15 C16_15 1_555 1_555
H20_15 C16_15 1_555 1_555
C17_15 C16_15 1_555 1_555
H21_15 C17_15 1_555 1_555
H22_15 C17_15 1_555 1_555
C18_15 C17_15 1_555 1_555
H23_15 C18_15 1_555 1_555
H24_15 C18_15 1_555 1_555
C19_15 C18_15 1_555 1_555
H25_15 C19_15 1_555 1_555
H26_15 C19_15 1_555 1_555
H27_15 C19_15 1_555 1_555
H35_15 C28_15 1_555 1_555
C29_15 C28_15 1_555 1_555
H36_15 C29_15 1_555 1_555
C30_15 C29_15 1_555 1_555
H37_15 C30_15 1_555 1_555
H15_16 C14_16 1_555 1_555
H16_16 C14_16 1_555 1_555
C15_16 C14_16 1_555 1_555
H17_16 C15_16 1_555 1_555
H18_16 C15_16 1_555 1_555
C16_16 C15_16 1_555 1_555
H19_16 C16_16 1_555 1_555
H20_16 C16_16 1_555 1_555
C17_16 C16_16 1_555 1_555
H21_16 C17_16 1_555 1_555
H22_16 C17_16 1_555 1_555
C18_16 C17_16 1_555 1_555
H23_16 C18_16 1_555 1_555
H24_16 C18_16 1_555 1_555
C19_16 C18_16 1_555 1_555
H25_16 C19_16 1_555 1_555
H26_16 C19_16 1_555 1_555
H27_16 C19_16 1_555 1_555
H35_16 C28_16 1_555 1_555
C29_16 C28_16 1_555 1_555
H36_16 C29_16 1_555 1_555
C30_16 C29_16 1_555 1_555
H37_16 C30_16 1_555 1_555
H33_16 C25_16 1_555 1_555
C49_16 H68_16 1_555 1_555
C50_16 C49_16 1_555 1_555
H69_16 C50_16 1_555 1_555
C51_16 C50_16 1_555 1_555
H70_16 C51_16 1_555 1_555
C68_16 C25_16 1_555 1_555
H88_16 C68_16 1_555 1_555
H89_16 C68_16 1_555 1_555
H59_11 C44_11 1_555 1_555
H60_11 C44_11 1_555 1_555
H59_12 C44_12 1_555 1_555
H60_12 C44_12 1_555 1_555
H48_13 C39_13 1_555 1_555
H49_13 C39_13 1_555 1_555
C40_13 C39_13 1_555 1_555
H50_13 C40_13 1_555 1_555
H51_13 C40_13 1_555 1_555
C41_13 C40_13 1_555 1_555
H52_13 C41_13 1_555 1_555
H53_13 C41_13 1_555 1_555
C42_13 C41_13 1_555 1_555
H54_13 C42_13 1_555 1_555
H55_13 C42_13 1_555 1_555
C43_13 C42_13 1_555 1_555
H56_13 C43_13 1_555 1_555
H57_13 C43_13 1_555 1_555
H59_13 C44_13 1_555 1_555
H60_13 C44_13 1_555 1_555
H48_14 C39_14 1_555 1_555
H49_14 C39_14 1_555 1_555
C40_14 C39_14 1_555 1_555
H50_14 C40_14 1_555 1_555
H51_14 C40_14 1_555 1_555
C41_14 C40_14 1_555 1_555
H52_14 C41_14 1_555 1_555
H53_14 C41_14 1_555 1_555
C42_14 C41_14 1_555 1_555
H54_14 C42_14 1_555 1_555
H55_14 C42_14 1_555 1_555
C43_14 C42_14 1_555 1_555
H56_14 C43_14 1_555 1_555
H57_14 C43_14 1_555 1_555
O1_17 C1_17 1_555 1_555
C1_17 C2_17 1_555 1_555
C2_17 H1_17 1_555 1_555
C3_17 C2_17 1_555 1_555
H2_17 C3_17 1_555 1_555
C4_17 C3_17 1_555 1_555
H3_17 C4_17 1_555 1_555
H38_17 C34_17 1_555 1_555
H39_17 C34_17 1_555 1_555
C35_17 C34_17 1_555 1_555
H40_17 C35_17 1_555 1_555
C36_17 C35_17 1_555 1_555
H42_17 C36_17 1_555 1_555
H43_17 C36_17 1_555 1_555
C37_17 C36_17 1_555 1_555
H44_17 C37_17 1_555 1_555
H45_17 C37_17 1_555 1_555
C38_17 C37_17 1_555 1_555
H46_17 C38_17 1_555 1_555
H47_17 C38_17 1_555 1_555
C39_15 C38_17 1_555 1_555
H48_15 C39_15 1_555 1_555
H49_15 C39_15 1_555 1_555
C40_15 C39_15 1_555 1_555
H50_15 C40_15 1_555 1_555
H51_15 C40_15 1_555 1_555
C41_15 C40_15 1_555 1_555
H52_15 C41_15 1_555 1_555
H53_15 C41_15 1_555 1_555
C42_15 C41_15 1_555 1_555
H54_15 C42_15 1_555 1_555
H55_15 C42_15 1_555 1_555
C43_15 C42_15 1_555 1_555
H56_15 C43_15 1_555 1_555
H57_15 C43_15 1_555 1_555
C44_14 C43_15 1_555 1_555
H58_13 C44_14 1_555 1_555
H59_14 C44_14 1_555 1_555
H60_14 C44_14 1_555 1_555
C55_17 O10_17 1_555 1_555
C56_17 C55_17 1_555 1_555
H72_17 C56_17 1_555 1_555
H73_17 C56_17 1_555 1_555
C57_17 C56_17 1_555 1_555
H74_17 C57_17 1_555 1_555
H75_17 C57_17 1_555 1_555
C58_17 C57_17 1_555 1_555
H76_17 C58_17 1_555 1_555
H77_17 C58_17 1_555 1_555
C59_17 C58_17 1_555 1_555
H78_17 C59_17 1_555 1_555
H79_17 C59_17 1_555 1_555
C60_17 C59_17 1_555 1_555
H80_17 C60_17 1_555 1_555
H81_17 C60_17 1_555 1_555
C61_17 C60_17 1_555 1_555
H82_17 C61_17 1_555 1_555
H83_17 C61_17 1_555 1_555
C62_17 C61_17 1_555 1_555
N8_17 C55_17 1_555 1_555
C62_17 H90_17 1_555 1_555
C62_17 H91_14 1_555 1_555
C62_17 H92_14 1_555 1_555
O1_18 C1_18 1_555 1_555
C1_18 C2_18 1_555 1_555
C2_18 H1_18 1_555 1_555
C3_18 C2_18 1_555 1_555
H2_18 C3_18 1_555 1_555
C4_18 C3_18 1_555 1_555
H3_18 C4_18 1_555 1_555
H38_18 C34_18 1_555 1_555
H39_18 C34_18 1_555 1_555
C35_18 C34_18 1_555 1_555
H40_18 C35_18 1_555 1_555
C36_18 C35_18 1_555 1_555
H42_18 C36_18 1_555 1_555
H43_18 C36_18 1_555 1_555
C37_18 C36_18 1_555 1_555
H44_18 C37_18 1_555 1_555
H45_18 C37_18 1_555 1_555
C38_18 C37_18 1_555 1_555
H46_18 C38_18 1_555 1_555
H47_18 C38_18 1_555 1_555
C39_16 C38_18 1_555 1_555
H48_16 C39_16 1_555 1_555
H49_16 C39_16 1_555 1_555
C40_16 C39_16 1_555 1_555
H50_16 C40_16 1_555 1_555
H51_16 C40_16 1_555 1_555
C41_16 C40_16 1_555 1_555
H52_16 C41_16 1_555 1_555
H53_16 C41_16 1_555 1_555
C42_16 C41_16 1_555 1_555
H54_16 C42_16 1_555 1_555
H55_16 C42_16 1_555 1_555
C43_16 C42_16 1_555 1_555
H56_16 C43_16 1_555 1_555
H57_16 C43_16 1_555 1_555
C44_15 C43_16 1_555 1_555
H58_14 C44_15 1_555 1_555
H59_15 C44_15 1_555 1_555
H60_15 C44_15 1_555 1_555
C55_18 O10_18 1_555 1_555
C56_18 C55_18 1_555 1_555
H72_18 C56_18 1_555 1_555
H73_18 C56_18 1_555 1_555
C57_18 C56_18 1_555 1_555
H74_18 C57_18 1_555 1_555
H75_18 C57_18 1_555 1_555
C58_18 C57_18 1_555 1_555
H76_18 C58_18 1_555 1_555
H77_18 C58_18 1_555 1_555
C59_18 C58_18 1_555 1_555
H78_18 C59_18 1_555 1_555
H79_18 C59_18 1_555 1_555
C60_18 C59_18 1_555 1_555
H80_18 C60_18 1_555 1_555
H81_18 C60_18 1_555 1_555
C61_18 C60_18 1_555 1_555
H82_18 C61_18 1_555 1_555
H83_18 C61_18 1_555 1_555
C62_18 C61_18 1_555 1_555
N8_18 C55_18 1_555 1_555
C62_18 H90_18 1_555 1_555
C62_18 H91_15 1_555 1_555
C62_18 H92_15 1_555 1_555
H15_17 C14_17 1_555 1_555
H16_17 C14_17 1_555 1_555
C15_17 C14_17 1_555 1_555
H17_17 C15_17 1_555 1_555
H18_17 C15_17 1_555 1_555
C16_17 C15_17 1_555 1_555
H19_17 C16_17 1_555 1_555
H20_17 C16_17 1_555 1_555
C17_17 C16_17 1_555 1_555
H21_17 C17_17 1_555 1_555
H22_17 C17_17 1_555 1_555
C18_17 C17_17 1_555 1_555
H23_17 C18_17 1_555 1_555
H24_17 C18_17 1_555 1_555
C19_17 C18_17 1_555 1_555
H25_17 C19_17 1_555 1_555
H26_17 C19_17 1_555 1_555
H27_17 C19_17 1_555 1_555
H35_17 C28_17 1_555 1_555
C29_17 C28_17 1_555 1_555
H36_17 C29_17 1_555 1_555
C30_17 C29_17 1_555 1_555
H37_17 C30_17 1_555 1_555
H33_17 C25_17 1_555 1_555
C49_17 H68_17 1_555 1_555
C50_17 C49_17 1_555 1_555
H69_17 C50_17 1_555 1_555
C51_17 C50_17 1_555 1_555
H70_17 C51_17 1_555 1_555
C68_17 C25_17 1_555 1_555
H88_17 C68_17 1_555 1_555
H89_17 C68_17 1_555 1_555
H33_18 C25_18 1_555 1_555
C49_18 H68_18 1_555 1_555
C50_18 C49_18 1_555 1_555
H69_18 C50_18 1_555 1_555
C51_18 C50_18 1_555 1_555
H70_18 C51_18 1_555 1_555
C68_18 C25_18 1_555 1_555
H88_18 C68_18 1_555 1_555
H89_18 C68_18 1_555 1_555
H15_18 C14_18 1_555 1_555
H16_18 C14_18 1_555 1_555
C15_18 C14_18 1_555 1_555
H17_18 C15_18 1_555 1_555
H18_18 C15_18 1_555 1_555
C16_18 C15_18 1_555 1_555
H19_18 C16_18 1_555 1_555
H20_18 C16_18 1_555 1_555
C17_18 C16_18 1_555 1_555
H21_18 C17_18 1_555 1_555
H22_18 C17_18 1_555 1_555
C18_18 C17_18 1_555 1_555
H23_18 C18_18 1_555 1_555
H24_18 C18_18 1_555 1_555
C19_18 C18_18 1_555 1_555
H25_18 C19_18 1_555 1_555
H26_18 C19_18 1_555 1_555
H27_18 C19_18 1_555 1_555
H35_18 C28_18 1_555 1_555
C29_18 C28_18 1_555 1_555
H36_18 C29_18 1_555 1_555
C30_18 C29_18 1_555 1_555
H37_18 C30_18 1_555 1_555
H59_16 C44_16 1_555 1_555
H60_16 C44_16 1_555 1_555
H48_17 C39_17 1_555 1_555
H49_17 C39_17 1_555 1_555
C40_17 C39_17 1_555 1_555
H50_17 C40_17 1_555 1_555
H51_17 C40_17 1_555 1_555
C41_17 C40_17 1_555 1_555
H52_17 C41_17 1_555 1_555
H53_17 C41_17 1_555 1_555
C42_17 C41_17 1_555 1_555
H54_17 C42_17 1_555 1_555
H55_17 C42_17 1_555 1_555
C43_17 C42_17 1_555 1_555
H56_17 C43_17 1_555 1_555
H57_17 C43_17 1_555 1_555
H59_17 C44_17 1_555 1_555
H60_17 C44_17 1_555 1_555
H48_18 C39_18 1_555 1_555
H49_18 C39_18 1_555 1_555
C40_18 C39_18 1_555 1_555
H50_18 C40_18 1_555 1_555
H51_18 C40_18 1_555 1_555
C41_18 C40_18 1_555 1_555
H52_18 C41_18 1_555 1_555
H53_18 C41_18 1_555 1_555
C42_18 C41_18 1_555 1_555
H54_18 C42_18 1_555 1_555
H55_18 C42_18 1_555 1_555
C43_18 C42_18 1_555 1_555
H56_18 C43_18 1_555 1_555
H57_18 C43_18 1_555 1_555
H59_18 C44_18 1_555 1_555
H60_18 C44_18 1_555 1_555

#END
