
###############################################################################
#
# This file contains modified crystal structure data generated from the
# MOF subset of the Cambridge Structural Database (CSD) v543 
# hosted by the Cambridge Crystallographic Data Centre (CCDC).
#
# This work is licensed under the Creative Commons
# Attribution-NonCommercial-ShareAlike 4.0 International License.
# To view a copy of this license, visit
# http://creativecommons.org/licenses/by-nc-sa/4.0/
# or send a letter to
# Creative Commons, PO Box 1866, Mountain View, CA 94042, USA.
#
# CIF created using the CSD Python API on 29 September 2022
# The structure has been converted into the P1 space group
# The structure has a 3D framework
# The original CSD entry FATKOC is in the monoclinic crystal system
# The framework has been calculated to contain at least 10.0% void space
# The void calculation uses a probe of radius 1.32A, grid spacing 0.4
# H atom positions have been added when not included in the experimental data
#
###############################################################################

data_FATKOC
_chemical_formula_moiety         '(C56 H56 Eu8 N16 O56)n'
_symmetry_cell_setting           triclinic
_symmetry_space_group_name_H-M   'P 1'
_symmetry_Int_Tables_number      1
_space_group_name_Hall           'P 1'
loop_
_symmetry_equiv_pos_site_id
_symmetry_equiv_pos_as_xyz
1 x,y,z
_cell_length_a                   10.2289(5)
_cell_length_b                   11.2526(5)
_cell_length_c                   22.1877(11)
_cell_angle_alpha                90
_cell_angle_beta                 96.9670(10)
_cell_angle_gamma                90
_cell_volume                     2534.99
loop_
_atom_site_label
_atom_site_type_symbol
_atom_site_fract_x
_atom_site_fract_y
_atom_site_fract_z
Eu1 Eu 0.24046(2) 0.58689(2) 0.436038(10)
O1 O 0.1863(3) 0.4859(3) 0.34053(15)
O2 O 0.0715(3) 0.4385(3) 0.25177(15)
O3 O 0.3783(4) 0.6615(4) 0.36931(16)
O4 O 0.5237(3) 0.7450(3) 0.31779(14)
O5 O 0.9024(3) 0.3234(3) 0.38361(14)
O6 O 0.8204(3) 0.3714(4) 0.46786(15)
O7 O 0.5602(3) 0.3646(4) 0.50131(15)
O8 O 0.3731(3) 0.4139(3) 0.44626(16)
O13 O 0.1068(3) 0.4227(3) 0.46608(18)
H1 H 0.085(5) 0.419(4) 0.5016(9)
H2 H 0.045(4) 0.394(5) 0.4410(11)
O14 O 0.0162(4) 0.6442(4) 0.4014(2)
O15 O 0.2296(5) 0.8058(4) 0.4405(2)
N1 N 0.3934(4) 0.6849(3) 0.20900(17)
N2 N 0.2224(4) 0.5683(3) 0.18642(18)
H5 H 0.1612 0.5290 0.1650
N3 N 0.6638(4) 0.3392(3) 0.31443(17)
N4 N 0.4668(4) 0.3702(4) 0.34087(17)
H6 H 0.3830 0.3811 0.3378
C1 C 0.1594(4) 0.4944(4) 0.2838(2)
C2 C 0.2428(4) 0.5718(4) 0.2484(2)
C3 C 0.3488(4) 0.6458(4) 0.2621(2)
C4 C 0.4207(5) 0.6861(4) 0.3206(2)
C5 C 0.3135(5) 0.6364(4) 0.1643(2)
C6 C 0.3214(6) 0.6513(6) 0.0980(3)
H7 H 0.2736 0.5883 0.0760
H8 H 0.4119 0.6487 0.0906
H9 H 0.2837 0.7263 0.0847
C7 C 0.8062(4) 0.3482(4) 0.41253(19)
C8 C 0.6734(4) 0.3520(4) 0.3769(2)
C9 C 0.5504(4) 0.3710(4) 0.3940(2)
C10 C 0.4927(4) 0.3854(4) 0.4519(2)
C11 C 0.5366(4) 0.3496(4) 0.2945(2)
C12 C 0.4747(5) 0.3438(5) 0.2299(2)
H10 H 0.4811 0.4201 0.2111
H11 H 0.3836 0.3221 0.2287
H12 H 0.5196 0.2855 0.2084
Eu3 Eu 0.75954(2) 0.41311(2) 0.563962(10)
Eu4 Eu 0.61046(2) 0.813100(17) 0.225570(9)
Eu5 Eu 0.88954(2) 0.313100(17) 0.274430(9)
O18 O 0.1796(3) 0.6286(4) 0.53214(15)
O19 O 0.4398(3) 0.6354(4) 0.49869(15)
N5 N 0.1066(4) 0.1849(3) 0.29100(17)
H13 H 0.138453 0.832405 0.426393
H14 H 0.25481 0.832598 0.482961
O9 O 0.6596(3) 0.6139(3) 0.18386(15)
O10 O 0.7711(3) 0.4435(3) 0.19951(14)
O11 O 0.7685(3) 0.6958(3) 0.29145(15)
O12 O 0.8674(3) 0.5211(3) 0.31100(14)
H3 H 0.961(3) 0.602(3) 0.379(3)
H4 H 0.982(3) 0.712(3) 0.406(3)
C13 C 0.7369(4) 0.5453(4) 0.2149(2)
C14 C 0.7958(4) 0.5911(4) 0.2782(2)
O16 O 0.9763(3) 0.2450(3) 0.18221(14)
O20 O 0.8404(3) 0.1139(3) 0.31614(15)
O21 O 0.7315(3) 0.1958(3) 0.20855(15)
Eu1_2 Eu 0.25954(2) 0.08689(2) 0.063962(10)
O3_2 O 0.1217(4) 0.1615(4) 0.13069(16)
O12_2 O 0.6326(3) 0.0211(3) 0.18900(14)
O14_2 O 0.4838(4) 0.1442(4) 0.0986(2)
H3_2 H 0.539(3) 0.102(3) 0.121(3)
H4_2 H 0.518(3) 0.212(3) 0.094(3)
O15_2 O 0.2704(5) 0.3058(4) 0.0595(2)
N2_2 N 0.2776(4) 0.0683(3) 0.31358(18)
H5_2 H 0.3388 0.0290 0.3350
C2_2 C 0.2572(4) 0.0718(4) 0.2516(2)
C3_2 C 0.1512(4) 0.1458(4) 0.2379(2)
C4_2 C 0.0793(5) 0.1861(4) 0.1794(2)
C5_2 C 0.1865(5) 0.1364(4) 0.3357(2)
C6_2 C 0.1786(6) 0.1513(6) 0.4020(3)
H7_2 H 0.2264 0.0883 0.4240
H8_2 H 0.0881 0.1487 0.4094
H9_2 H 0.2163 0.2263 0.4153
C13_2 C 0.7631(4) 0.0453(4) 0.2851(2)
C14_2 C 0.7042(4) 0.0911(4) 0.2218(2)
O19_2 O 0.0602(3) 0.1354(4) 0.00131(15)
H13_2 H 0.361547 0.332405 0.0736066
H14_2 H 0.24519 0.332598 0.0170394
O18_2 O 0.3204(3) 0.1286(4) 0.96786(15)
O1_2 O 0.3137(3) 0.9859(3) 0.15947(15)
O2_2 O 0.4285(3) 0.9385(3) 0.24823(15)
O8_2 O 0.1269(3) 0.9139(3) 0.05374(16)
O10_2 O 0.7289(3) 0.9435(3) 0.30049(14)
O13_2 O 0.3932(3) 0.9227(3) 0.03392(18)
H2_2 H 0.455(4) 0.894(5) 0.0590(11)
N4_2 N 0.0332(4) 0.8702(4) 0.15913(17)
H6_2 H 0.1170 0.8811 0.1622
C1_2 C 0.3406(4) 0.9944(4) 0.2162(2)
C10_2 C 0.0073(4) 0.8854(4) 0.0481(2)
C12_2 C 0.0253(5) 0.8438(5) 0.2701(2)
H10_2 H 0.0189 0.9201 0.2889
H11_2 H 0.1164 0.8221 0.2713
O17 O 0.5976(3) 0.8234(3) 0.11639(14)
N6 N 0.8362(4) 0.8392(3) 0.18557(17)
O6_2 O 0.6796(3) 0.8714(4) 0.03214(15)
C7_2 C 0.6938(4) 0.8482(4) 0.08747(19)
C8_2 C 0.8266(4) 0.8520(4) 0.1231(2)
C9_2 C 0.9496(4) 0.8710(4) 0.1060(2)
C11_2 C 0.9634(4) 0.8496(4) 0.2055(2)
H12_2 H 0.9804 0.7855 0.2916
O7_2 O 0.9398(3) 0.8646(4) 0.99869(15)
Eu3_2 Eu 0.74046(2) 0.91311(2) 0.936038(10)
Eu2 Eu 0.11046(2) 0.686900(17) 0.725570(9)
O9_2 O 0.3404(3) 0.3861(3) 0.81614(15)
O10_3 O 0.2289(3) 0.5565(3) 0.80049(14)
O11_2 O 0.2315(3) 0.3042(3) 0.70855(15)
O12_3 O 0.1326(3) 0.4789(3) 0.68900(14)
H3_3 H 0.039(3) 0.398(3) 0.621(3)
H4_3 H 0.018(3) 0.288(3) 0.594(3)
C13_3 C 0.2631(4) 0.4547(4) 0.7851(2)
C14_3 C 0.2042(4) 0.4089(4) 0.7218(2)
Eu6 Eu 0.38954(2) 0.186900(17) 0.774430(9)
O16_2 O 0.0237(3) 0.7550(3) 0.81779(14)
O17_2 O 0.0976(3) 0.6766(3) 0.61639(14)
O20_2 O 0.1596(3) 0.8861(3) 0.68386(15)
O21_2 O 0.2685(3) 0.8042(3) 0.79145(15)
N6_2 N 0.3362(4) 0.6608(3) 0.68557(17)
O1_3 O 0.8137(3) 0.5141(3) 0.65947(15)
O2_3 O 0.9285(3) 0.5615(3) 0.74823(15)
O3_3 O 0.6217(4) 0.3385(4) 0.63069(16)
O4_2 O 0.4763(3) 0.2550(3) 0.68221(14)
O8_3 O 0.6269(3) 0.5861(3) 0.55374(16)
O13_3 O 0.8932(3) 0.5773(3) 0.53392(18)
H1_2 H 0.915(5) 0.581(4) 0.4984(9)
H2_3 H 0.955(4) 0.606(5) 0.5590(11)
O14_3 O 0.9838(4) 0.3558(4) 0.5986(2)
O15_3 O 0.7704(5) 0.1942(4) 0.5595(2)
N1_2 N 0.6066(4) 0.3151(3) 0.79100(17)
N2_3 N 0.7776(4) 0.4317(3) 0.81358(18)
H5_3 H 0.8388 0.4710 0.8350
N4_3 N 0.5332(4) 0.6298(4) 0.65913(17)
H6_3 H 0.6170 0.6189 0.6622
C1_3 C 0.8406(4) 0.5056(4) 0.7162(2)
C2_3 C 0.7572(4) 0.4282(4) 0.7516(2)
C3_3 C 0.6512(4) 0.3542(4) 0.7379(2)
C4_3 C 0.5793(5) 0.3139(4) 0.6794(2)
C5_3 C 0.6865(5) 0.3636(4) 0.8357(2)
C6_3 C 0.6786(6) 0.3487(6) 0.9020(3)
H7_3 H 0.7264 0.4117 0.9240
H8_3 H 0.5881 0.3513 0.9094
H9_3 H 0.7163 0.2737 0.9153
C7_3 C 0.1938(4) 0.6518(4) 0.58747(19)
C8_3 C 0.3266(4) 0.6480(4) 0.6231(2)
C9_3 C 0.4496(4) 0.6290(4) 0.6060(2)
C10_3 C 0.5073(4) 0.6146(4) 0.5481(2)
C11_3 C 0.4634(4) 0.6504(4) 0.7055(2)
C12_3 C 0.5253(5) 0.6562(5) 0.7701(2)
H10_3 H 0.5189 0.5799 0.7889
H11_3 H 0.6164 0.6779 0.7713
H12_3 H 0.4804 0.7145 0.7916
N5_2 N 0.8934(4) 0.8151(3) 0.70900(17)
H13_3 H 0.861547 0.167595 0.573607
H14_3 H 0.74519 0.167402 0.517039
O5_2 O 0.4024(3) 0.1766(3) 0.88361(14)
N3_2 N 0.1638(4) 0.1608(3) 0.81443(17)
C7_4 C 0.3062(4) 0.1518(4) 0.91253(19)
C8_4 C 0.1734(4) 0.1480(4) 0.8769(2)
C9_4 C 0.0504(4) 0.1290(4) 0.8940(2)
C11_4 C 0.0366(4) 0.1504(4) 0.7945(2)
H12_4 H 0.0196 0.2145 0.7084
O1_4 O 0.6863(3) 0.0141(3) 0.84053(15)
O2_4 O 0.5715(3) 0.0615(3) 0.75177(15)
O8_4 O 0.8731(3) 0.0861(3) 0.94626(16)
O10_4 O 0.2711(3) 0.0565(3) 0.69951(14)
O13_4 O 0.6068(3) 0.0773(3) 0.96608(18)
H2_4 H 0.545(4) 0.106(5) 0.9410(11)
N4_4 N 0.9668(4) 0.1298(4) 0.84087(17)
H6_4 H 0.8830 0.1189 0.8378
C1_4 C 0.6594(4) 0.0056(4) 0.7838(2)
C10_4 C 0.9927(4) 0.1146(4) 0.9519(2)
C12_4 C 0.9747(5) 0.1562(5) 0.7299(2)
H10_4 H 0.9811 0.0799 0.7111
H11_4 H 0.8836 0.1779 0.7287
O3_4 O 0.8783(4) 0.8385(4) 0.86931(16)
O12_4 O 0.3674(3) 0.9789(3) 0.81100(14)
O14_4 O 0.5162(4) 0.8558(4) 0.9014(2)
H3_4 H 0.461(3) 0.898(3) 0.879(3)
H4_4 H 0.482(3) 0.788(3) 0.906(3)
O15_4 O 0.7296(5) 0.6942(4) 0.9405(2)
N2_4 N 0.7224(4) 0.9317(3) 0.68642(18)
H5_4 H 0.6612 0.9710 0.6650
C2_4 C 0.7428(4) 0.9282(4) 0.7484(2)
C3_4 C 0.8488(4) 0.8542(4) 0.7621(2)
C4_4 C 0.9207(5) 0.8139(4) 0.8206(2)
C5_4 C 0.8135(5) 0.8636(4) 0.6643(2)
C6_4 C 0.8214(6) 0.8487(6) 0.5980(3)
H7_4 H 0.7736 0.9117 0.5760
H8_4 H 0.9119 0.8513 0.5906
H9_4 H 0.7837 0.7737 0.5847
C13_4 C 0.2369(4) 0.9547(4) 0.7149(2)
C14_4 C 0.2958(4) 0.9089(4) 0.7782(2)
H13_4 H 0.638453 0.667595 0.926393
H14_4 H 0.75481 0.667402 0.982961
H1_3 H 0.415(5) 0.919(4) 0.9984(9)
H1_4 H 0.585(5) 0.081(4) 0.0016(9)
loop_
_geom_bond_atom_site_label_1
_geom_bond_atom_site_label_2
_geom_bond_site_symmetry_1
_geom_bond_site_symmetry_2
Eu1 O1 1_555 1_555
O1 C1 1_555 1_555
O2 C1 1_555 1_555
O3 Eu1 1_555 1_555
O4 C4 1_555 1_555
O5 C7 1_555 1_555
O6 C7 1_555 1_555
O7 C10 1_555 1_555
O8 Eu1 1_555 1_555
O13 Eu1 1_555 1_555
H1 O13 1_555 1_555
H2 O13 1_555 1_555
O14 Eu1 1_555 1_555
O15 Eu1 1_555 1_555
N1 C3 1_555 1_555
N2 H5 1_555 1_555
N3 C8 1_555 1_555
N4 H6 1_555 1_555
C1 C2 1_555 1_555
C2 N2 1_555 1_555
C3 C2 1_555 1_555
C4 O3 1_555 1_555
C5 N1 1_555 1_555
C6 C5 1_555 1_555
H7 C6 1_555 1_555
H8 C6 1_555 1_555
H9 C6 1_555 1_555
C7 C8 1_555 1_555
C8 C9 1_555 1_555
C9 N4 1_555 1_555
C10 O8 1_555 1_555
C11 N3 1_555 1_555
C12 C11 1_555 1_555
H10 C12 1_555 1_555
H11 C12 1_555 1_555
H12 C12 1_555 1_555
Eu3 O6 1_555 1_555
Eu4 O4 1_555 1_555
Eu5 O5 1_555 1_555
O18 Eu1 1_555 1_555
O19 Eu1 1_555 1_555
O7 Eu3 1_555 1_555
N1 Eu4 1_555 1_555
N2 C5 1_555 1_555
N3 Eu5 1_555 1_555
N4 C11 1_555 1_555
C3 C4 1_555 1_555
C9 C10 1_555 1_555
O15 H13 1_555 1_555
O15 H14 1_555 1_555
O9 C13 1_555 1_555
O10 Eu5 1_555 1_555
O11 C14 1_555 1_555
O12 Eu5 1_555 1_555
C13 O10 1_555 1_555
C14 O12 1_555 1_555
Eu4 O9 1_555 1_555
O16 Eu5 1_555 1_555
O20 Eu5 1_555 1_555
O21 Eu5 1_555 1_555
O11 Eu4 1_555 1_555
C13 C14 1_555 1_555
O3_2 Eu1_2 1_555 1_555
O20 C13_2 1_555 1_555
O21 C14_2 1_555 1_555
O14_2 Eu1_2 1_555 1_555
H3_2 O14_2 1_555 1_555
H4_2 O14_2 1_555 1_555
O15_2 Eu1_2 1_555 1_555
N5 C3_2 1_555 1_555
N2_2 H5_2 1_555 1_555
C2_2 N2_2 1_555 1_555
C3_2 C2_2 1_555 1_555
C4_2 O3_2 1_555 1_555
C5_2 N5 1_555 1_555
C6_2 C5_2 1_555 1_555
H7_2 C6_2 1_555 1_555
H8_2 C6_2 1_555 1_555
H9_2 C6_2 1_555 1_555
C14_2 O12_2 1_555 1_555
O19_2 Eu1_2 1_555 1_555
N2_2 C5_2 1_555 1_555
C3_2 C4_2 1_555 1_555
C13_2 C14_2 1_555 1_555
O15_2 H13_2 1_555 1_555
O15_2 H14_2 1_555 1_555
Eu4 O2_2 1_555 1_555
O1_2 C1_2 1_555 1_555
O2_2 C1_2 1_555 1_555
O10_2 Eu4 1_555 1_555
H2_2 O13_2 1_555 1_555
N4_2 H6_2 1_555 1_555
C10_2 O8_2 1_555 1_555
H10_2 C12_2 1_555 1_555
H11_2 C12_2 1_555 1_555
O17 Eu4 1_555 1_555
N6 Eu4 1_555 1_555
O17 C7_2 1_555 1_555
O6_2 C7_2 1_555 1_555
N6 C8_2 1_555 1_555
C7_2 C8_2 1_555 1_555
C8_2 C9_2 1_555 1_555
C11_2 N6 1_555 1_555
O7_2 Eu3_2 1_555 1_555
O9_2 C13_3 1_555 1_555
O10_3 Eu2 1_555 1_555
O11_2 C14_3 1_555 1_555
O12_3 Eu2 1_555 1_555
C13_3 O10_3 1_555 1_555
C14_3 O12_3 1_555 1_555
Eu6 O9_2 1_555 1_555
O16_2 Eu2 1_555 1_555
O17_2 Eu2 1_555 1_555
O20_2 Eu2 1_555 1_555
O21_2 Eu2 1_555 1_555
N6_2 Eu2 1_555 1_555
O11_2 Eu6 1_555 1_555
C13_3 C14_3 1_555 1_555
Eu3 O1_3 1_555 1_555
O1_3 C1_3 1_555 1_555
O2_3 C1_3 1_555 1_555
O3_3 Eu3 1_555 1_555
O4_2 C4_3 1_555 1_555
O17_2 C7_3 1_555 1_555
O18 C7_3 1_555 1_555
O19 C10_3 1_555 1_555
O8_3 Eu3 1_555 1_555
O13_3 Eu3 1_555 1_555
H1_2 O13_3 1_555 1_555
H2_3 O13_3 1_555 1_555
O14_3 Eu3 1_555 1_555
O15_3 Eu3 1_555 1_555
N1_2 C3_3 1_555 1_555
N2_3 H5_3 1_555 1_555
N6_2 C8_3 1_555 1_555
N4_3 H6_3 1_555 1_555
C1_3 C2_3 1_555 1_555
C2_3 N2_3 1_555 1_555
C3_3 C2_3 1_555 1_555
C4_3 O3_3 1_555 1_555
C5_3 N1_2 1_555 1_555
C6_3 C5_3 1_555 1_555
H7_3 C6_3 1_555 1_555
H8_3 C6_3 1_555 1_555
H9_3 C6_3 1_555 1_555
C7_3 C8_3 1_555 1_555
C8_3 C9_3 1_555 1_555
C9_3 N4_3 1_555 1_555
C10_3 O8_3 1_555 1_555
C11_3 N6_2 1_555 1_555
C12_3 C11_3 1_555 1_555
H10_3 C12_3 1_555 1_555
H11_3 C12_3 1_555 1_555
H12_3 C12_3 1_555 1_555
Eu6 O4_2 1_555 1_555
N1_2 Eu6 1_555 1_555
N2_3 C5_3 1_555 1_555
N4_3 C11_3 1_555 1_555
C3_3 C4_3 1_555 1_555
C9_3 C10_3 1_555 1_555
O15_3 H13_3 1_555 1_555
O15_3 H14_3 1_555 1_555
O5_2 C7_4 1_555 1_555
O18_2 C7_4 1_555 1_555
N3_2 C8_4 1_555 1_555
C7_4 C8_4 1_555 1_555
C8_4 C9_4 1_555 1_555
C11_4 N3_2 1_555 1_555
Eu6 O5_2 1_555 1_555
N3_2 Eu6 1_555 1_555
Eu6 O2_4 1_555 1_555
O1_4 C1_4 1_555 1_555
O2_4 C1_4 1_555 1_555
O10_4 Eu6 1_555 1_555
H2_4 O13_4 1_555 1_555
N4_4 H6_4 1_555 1_555
C10_4 O8_4 1_555 1_555
H10_4 C12_4 1_555 1_555
H11_4 C12_4 1_555 1_555
O3_4 Eu3_2 1_555 1_555
O20_2 C13_4 1_555 1_555
O21_2 C14_4 1_555 1_555
O14_4 Eu3_2 1_555 1_555
H3_4 O14_4 1_555 1_555
H4_4 O14_4 1_555 1_555
O15_4 Eu3_2 1_555 1_555
N5_2 C3_4 1_555 1_555
N2_4 H5_4 1_555 1_555
C2_4 N2_4 1_555 1_555
C3_4 C2_4 1_555 1_555
C4_4 O3_4 1_555 1_555
C5_4 N5_2 1_555 1_555
C6_4 C5_4 1_555 1_555
H7_4 C6_4 1_555 1_555
H8_4 C6_4 1_555 1_555
H9_4 C6_4 1_555 1_555
C14_4 O12_4 1_555 1_555
N2_4 C5_4 1_555 1_555
C3_4 C4_4 1_555 1_555
C13_4 C14_4 1_555 1_555
O15_4 H13_4 1_555 1_555
O15_4 H14_4 1_555 1_555

#END
