
###############################################################################
#
# This file contains modified crystal structure data generated from the
# MOF subset of the Cambridge Structural Database (CSD) v543 
# hosted by the Cambridge Crystallographic Data Centre (CCDC).
#
# This work is licensed under the Creative Commons
# Attribution-NonCommercial-ShareAlike 4.0 International License.
# To view a copy of this license, visit
# http://creativecommons.org/licenses/by-nc-sa/4.0/
# or send a letter to
# Creative Commons, PO Box 1866, Mountain View, CA 94042, USA.
#
# CIF created using the CSD Python API on 29 September 2022
# The structure has been converted into the P1 space group
# The structure has a 3D framework
# The original CSD entry FATKIW is in the monoclinic crystal system
# The framework has been calculated to contain at least 10.0% void space
# The void calculation uses a probe of radius 1.32A, grid spacing 0.4
# H atom positions have been added when not included in the experimental data
#
###############################################################################

data_FATKIW
_chemical_formula_moiety         '(C56 H56 N16 O54 Sm8)n'
_symmetry_cell_setting           triclinic
_symmetry_space_group_name_H-M   'P 1'
_symmetry_Int_Tables_number      1
_space_group_name_Hall           'P 1'
loop_
_symmetry_equiv_pos_site_id
_symmetry_equiv_pos_as_xyz
1 x,y,z
_cell_length_a                   10.255(3)
_cell_length_b                   11.268(4)
_cell_length_c                   22.194(7)
_cell_angle_alpha                90
_cell_angle_beta                 97.061(4)
_cell_angle_gamma                90
_cell_volume                     2545.14
loop_
_atom_site_label
_atom_site_type_symbol
_atom_site_fract_x
_atom_site_fract_y
_atom_site_fract_z
Sm6 Sm 0.26023(5) 0.08515(5) 0.06417(2)
N4 N 0.0318(8) 0.8688(8) 0.1592(4)
H2 H 0.1154 0.8793 0.1620
O10 O 0.1254(7) 0.9114(7) 0.0544(4)
C9 C 0.0071(10) 0.8853(9) 0.0485(5)
C12 C 0.0240(12) 0.8416(12) 0.2691(5)
H6 H 0.1173 0.8527 0.2711
H8 H 0.0063 0.7649 0.2851
N1 N 0.1072(8) 0.1829(8) 0.2906(4)
N2 N 0.2777(8) 0.0666(8) 0.3135(4)
H1 H 0.3373 0.0259 0.3350
O7 O 0.1243(8) 0.1597(8) 0.1311(4)
O14 O 0.4873(8) 0.1418(8) 0.0981(4)
O15 O 0.2724(11) 0.3080(8) 0.0601(5)
C4 C 0.2595(10) 0.0703(8) 0.2523(5)
C5 C 0.1881(11) 0.1364(10) 0.3358(5)
C6 C 0.1802(15) 0.1516(12) 0.4017(6)
H3 H 0.1095 0.2047 0.4073
H4 H 0.2614 0.1841 0.4209
H5 H 0.1648 0.0760 0.4194
C7 C 0.1499(10) 0.1441(9) 0.2382(4)
C8 C 0.0806(10) 0.1850(9) 0.1797(5)
O17 O 0.6330(7) 0.0208(6) 0.1896(3)
O19 O 0.0614(7) 0.1341(8) 0.0015(3)
H9 H 0.543128 0.069581 0.10271
H10 H 0.519488 0.195447 0.0676465
H11 H 0.363407 0.334143 0.0744393
H12 H 0.247632 0.33514 0.0176691
O21 O 0.3203(7) 0.1279(8) 0.9678(3)
Sm1 Sm 0.61008(5) 0.81166(4) 0.22551(2)
N3 N 0.8368(8) 0.8385(7) 0.1847(4)
O1 O 0.6587(7) 0.6118(6) 0.1842(3)
O2 O 0.7717(7) 0.4427(6) 0.1993(3)
O3 O 0.7692(7) 0.6941(6) 0.2910(3)
O4 O 0.8670(7) 0.5208(6) 0.3104(3)
O5 O 0.4277(7) 0.9379(6) 0.2482(3)
O6 O 0.3137(8) 0.9846(7) 0.1602(3)
O11 O 0.6797(7) 0.8721(8) 0.0322(3)
O12 O 0.5977(6) 0.8226(6) 0.1162(3)
O13 O 0.3942(7) 0.9191(7) 0.0334(4)
C1 C 0.7348(9) 0.5448(8) 0.2144(5)
C2 C 0.7958(10) 0.5912(8) 0.2775(5)
C3 C 0.3400(9) 0.9927(9) 0.2164(5)
C10 C 0.9491(9) 0.8695(10) 0.1064(5)
C11 C 0.9645(10) 0.8495(9) 0.2063(5)
H7 H 0.9877 0.9019 0.2926
C13 C 0.8262(9) 0.8501(9) 0.1230(5)
C14 C 0.6938(9) 0.8479(8) 0.0873(5)
Sm4 Sm 0.88992(5) 0.31166(4) 0.27449(2)
N5 N 0.3928(8) 0.6829(8) 0.2094(4)
O16 O 0.7283(7) 0.9427(6) 0.3007(3)
O18 O 0.5245(6) 0.7419(7) 0.3176(3)
H13 H 0.352285 0.842679 0.0422888
O9 O 0.9386(7) 0.8659(8) 0.9985(3)
Sm5 Sm 0.73977(5) 0.91485(5) 0.93583(2)
H14 H 0.400676 0.924586 0.989212
O8 O 0.9755(6) 0.2419(7) 0.1824(3)
Sm2 Sm 0.23977(5) 0.58515(5) 0.43583(2)
N2_2 N 0.2223(8) 0.5666(8) 0.1865(4)
H1_2 H 0.1627 0.5259 0.1650
O5_2 O 0.0723(7) 0.4379(6) 0.2518(3)
O6_2 O 0.1863(8) 0.4846(7) 0.3398(3)
O7_2 O 0.3757(8) 0.6597(8) 0.3689(4)
O13_2 O 0.1058(7) 0.4191(7) 0.4666(4)
O14_2 O 0.0127(8) 0.6418(8) 0.4019(4)
O15_2 O 0.2276(11) 0.8080(8) 0.4399(5)
C3_2 C 0.1600(9) 0.4927(9) 0.2836(5)
C4_2 C 0.2405(10) 0.5703(8) 0.2477(5)
C5_2 C 0.3119(11) 0.6364(10) 0.1642(5)
C6_2 C 0.3198(15) 0.6516(12) 0.0983(6)
H3_2 H 0.3905 0.7047 0.0927
H4_2 H 0.2386 0.6841 0.0791
H5_2 H 0.3352 0.5760 0.0806
C7_2 C 0.3501(10) 0.6441(9) 0.2618(4)
C8_2 C 0.4194(10) 0.6850(9) 0.3203(5)
O19_2 O 0.4386(7) 0.6341(8) 0.4985(3)
O20 O 0.3746(7) 0.4114(7) 0.4456(4)
O21_2 O 0.1797(7) 0.6279(8) 0.5322(3)
H11_2 H 0.136593 0.834143 0.425561
H12_2 H 0.252368 0.83514 0.482331
H13_2 H 0.147715 0.342679 0.457711
H14_2 H 0.0993236 0.424586 0.510788
N3_2 N 0.6632(8) 0.3385(7) 0.3153(4)
N4_2 N 0.4682(8) 0.3688(8) 0.3408(4)
H2_2 H 0.3846 0.3793 0.3380
O1_2 O 0.8413(7) 0.1118(6) 0.3158(3)
O3_2 O 0.7308(7) 0.1941(6) 0.2090(3)
O9_2 O 0.5614(7) 0.3659(8) 0.5015(3)
O11_2 O 0.8203(7) 0.3721(8) 0.4678(3)
O12_2 O 0.9023(6) 0.3226(6) 0.3838(3)
C1_2 C 0.7652(9) 0.0448(8) 0.2856(5)
C2_2 C 0.7042(10) 0.0912(8) 0.2225(5)
C9_2 C 0.4929(10) 0.3853(9) 0.4515(5)
C10_2 C 0.5509(9) 0.3695(10) 0.3936(5)
C11_2 C 0.5355(10) 0.3495(9) 0.2937(5)
C12_2 C 0.4760(12) 0.3416(12) 0.2309(5)
H6_2 H 0.3827 0.3527 0.2289
H7_2 H 0.5123 0.4019 0.2074
H8_2 H 0.4937 0.2649 0.2149
C13_2 C 0.6738(9) 0.3501(9) 0.3770(5)
C14_2 C 0.8062(9) 0.3479(8) 0.4127(5)
Sm5_2 Sm 0.76023(5) 0.41485(5) 0.56417(2)
H9_2 H 0.956872 0.569581 0.39729
H10_2 H 0.980512 0.695447 0.432353
O8_2 O 0.0245(6) 0.7581(7) 0.8176(3)
Sm3 Sm 0.11008(5) 0.68834(4) 0.72551(2)
H14_3 H 0.599324 0.0754141 0.0107883
Sm1_2 Sm 0.38992(5) 0.18834(4) 0.77449(2)
N3_3 N 0.1632(8) 0.1615(7) 0.8153(4)
O1_3 O 0.3413(7) 0.3882(6) 0.8158(3)
O2_2 O 0.2283(7) 0.5573(6) 0.8007(3)
O3_3 O 0.2308(7) 0.3059(6) 0.7090(3)
O4_2 O 0.1330(7) 0.4792(6) 0.6896(3)
O5_3 O 0.5723(7) 0.0621(6) 0.7518(3)
O6_3 O 0.6863(8) 0.0154(7) 0.8398(3)
O12_3 O 0.4023(6) 0.1774(6) 0.8838(3)
O13_3 O 0.6058(7) 0.0809(7) 0.9666(4)
C1_3 C 0.2652(9) 0.4552(8) 0.7856(5)
C2_3 C 0.2042(10) 0.4088(8) 0.7225(5)
C3_3 C 0.6600(9) 0.0073(9) 0.7836(5)
C10_3 C 0.0509(9) 0.1305(10) 0.8936(5)
C11_3 C 0.0355(10) 0.1505(9) 0.7937(5)
H7_3 H 0.0123 0.0981 0.7074
C13_3 C 0.1738(9) 0.1499(9) 0.8770(5)
C14_3 C 0.3062(9) 0.1521(8) 0.9127(5)
N5_2 N 0.6072(8) 0.3171(8) 0.7906(4)
O16_2 O 0.2717(7) 0.0573(6) 0.6993(3)
O18_2 O 0.4755(6) 0.2581(7) 0.6824(3)
O20_2 O 0.8746(7) 0.0886(7) 0.9456(4)
H13_3 H 0.647715 0.157321 0.957711
N1_2 N 0.8928(8) 0.8171(8) 0.7094(4)
N2_3 N 0.7223(8) 0.9334(8) 0.6865(4)
H1_3 H 0.6627 0.9741 0.6650
O7_3 O 0.8757(8) 0.8403(8) 0.8689(4)
O14_3 O 0.5127(8) 0.8582(8) 0.9019(4)
O15_3 O 0.7276(11) 0.6920(8) 0.9399(5)
C4_3 C 0.7405(10) 0.9297(8) 0.7477(5)
C5_3 C 0.8119(11) 0.8636(10) 0.6642(5)
C6_3 C 0.8198(15) 0.8484(12) 0.5983(6)
H3_3 H 0.8905 0.7953 0.5927
H4_3 H 0.7386 0.8159 0.5791
H5_3 H 0.8352 0.9240 0.5806
C7_3 C 0.8501(10) 0.8559(9) 0.7618(4)
C8_3 C 0.9194(10) 0.8150(9) 0.8203(5)
O17_2 O 0.3670(7) 0.9792(6) 0.8104(3)
H9_3 H 0.456872 0.930419 0.89729
H10_3 H 0.480512 0.804553 0.932353
H11_3 H 0.636593 0.665857 0.925561
H12_3 H 0.752368 0.66486 0.982331
N4_3 N 0.9682(8) 0.1312(8) 0.8408(4)
H2_3 H 0.8846 0.1207 0.8380
C9_3 C 0.9929(10) 0.1147(9) 0.9515(5)
C12_3 C 0.9760(12) 0.1584(12) 0.7309(5)
H6_3 H 0.8827 0.1473 0.7289
H8_3 H 0.9937 0.2351 0.7149
N3_4 N 0.3368(8) 0.6615(7) 0.6847(4)
N4_4 N 0.5318(8) 0.6312(8) 0.6592(4)
H2_4 H 0.6154 0.6207 0.6620
O1_4 O 0.1587(7) 0.8882(6) 0.6842(3)
O3_4 O 0.2692(7) 0.8059(6) 0.7910(3)
O10_2 O 0.6254(7) 0.5886(7) 0.5544(4)
O12_4 O 0.0977(6) 0.6774(6) 0.6162(3)
C1_4 C 0.2348(9) 0.9552(8) 0.7144(5)
C2_4 C 0.2958(10) 0.9088(8) 0.7775(5)
C9_4 C 0.5071(10) 0.6147(9) 0.5485(5)
C10_4 C 0.4491(9) 0.6305(10) 0.6064(5)
C11_4 C 0.4645(10) 0.6505(9) 0.7063(5)
C12_4 C 0.5240(12) 0.6584(12) 0.7691(5)
H6_4 H 0.6173 0.6473 0.7711
H7_4 H 0.4877 0.5981 0.7926
H8_4 H 0.5063 0.7351 0.7851
C13_4 C 0.3262(9) 0.6499(9) 0.6230(5)
C14_4 C 0.1938(9) 0.6521(8) 0.5873(5)
H9_4 H 0.0431275 0.430419 0.60271
H10_4 H 0.0194884 0.304553 0.567647
N2_4 N 0.7777(8) 0.4334(8) 0.8135(4)
H1_4 H 0.8373 0.4741 0.8350
O5_4 O 0.9277(7) 0.5621(6) 0.7482(3)
O6_4 O 0.8137(8) 0.5154(7) 0.6602(3)
O7_4 O 0.6243(8) 0.3403(8) 0.6311(4)
O13_4 O 0.8942(7) 0.5809(7) 0.5334(4)
O14_4 O 0.9873(8) 0.3582(8) 0.5981(4)
O15_4 O 0.7724(11) 0.1920(8) 0.5601(5)
C3_4 C 0.8400(9) 0.5073(9) 0.7164(5)
C4_4 C 0.7595(10) 0.4297(8) 0.7523(5)
C5_4 C 0.6881(11) 0.3636(10) 0.8358(5)
C6_4 C 0.6802(15) 0.3484(12) 0.9017(6)
H3_4 H 0.6095 0.2953 0.9073
H4_4 H 0.7614 0.3159 0.9209
H5_4 H 0.6648 0.4240 0.9194
C7_4 C 0.6499(10) 0.3559(9) 0.7382(4)
C8_4 C 0.5806(10) 0.3150(9) 0.6797(5)
H11_4 H 0.863407 0.165857 0.574439
H12_4 H 0.747632 0.16486 0.517669
H13_4 H 0.852285 0.657321 0.542289
H14_4 H 0.900676 0.575414 0.489212
loop_
_geom_bond_atom_site_label_1
_geom_bond_atom_site_label_2
_geom_bond_site_symmetry_1
_geom_bond_site_symmetry_2
N4 H2 1_555 1_555
O10 C9 1_555 1_555
H6 C12 1_555 1_555
H8 C12 1_555 1_555
N1 C5 1_555 1_555
N2 H1 1_555 1_555
O7 Sm6 1_555 1_555
O14 Sm6 1_555 1_555
O15 Sm6 1_555 1_555
C4 N2 1_555 1_555
C5 N2 1_555 1_555
C6 C5 1_555 1_555
H3 C6 1_555 1_555
H4 C6 1_555 1_555
H5 C6 1_555 1_555
C7 N1 1_555 1_555
C8 O7 1_555 1_555
O19 Sm6 1_555 1_555
C4 C7 1_555 1_555
C7 C8 1_555 1_555
O14 H9 1_555 1_555
O14 H10 1_555 1_555
O15 H11 1_555 1_555
O15 H12 1_555 1_555
Sm1 N3 1_555 1_555
N3 C11 1_555 1_555
O1 Sm1 1_555 1_555
O2 C1 1_555 1_555
O3 Sm1 1_555 1_555
O4 C2 1_555 1_555
O5 Sm1 1_555 1_555
O6 C3 1_555 1_555
O11 C14 1_555 1_555
O12 Sm1 1_555 1_555
C1 O1 1_555 1_555
C2 O3 1_555 1_555
C3 O5 1_555 1_555
C13 N3 1_555 1_555
C14 O12 1_555 1_555
Sm4 O2 1_555 1_555
N5 Sm1 1_555 1_555
O16 Sm1 1_555 1_555
O18 Sm1 1_555 1_555
O4 Sm4 1_555 1_555
C1 C2 1_555 1_555
C10 C13 1_555 1_555
C13 C14 1_555 1_555
O13 H13 1_555 1_555
Sm5 O9 1_555 1_555
O8 Sm4 1_555 1_555
Sm2 O6_2 1_555 1_555
N5 C5_2 1_555 1_555
N2_2 H1_2 1_555 1_555
O6_2 C3_2 1_555 1_555
O7_2 Sm2 1_555 1_555
O18 C8_2 1_555 1_555
O13_2 Sm2 1_555 1_555
O14_2 Sm2 1_555 1_555
O15_2 Sm2 1_555 1_555
C3_2 O5_2 1_555 1_555
C4_2 N2_2 1_555 1_555
C5_2 N2_2 1_555 1_555
C6_2 C5_2 1_555 1_555
H3_2 C6_2 1_555 1_555
H4_2 C6_2 1_555 1_555
H5_2 C6_2 1_555 1_555
C7_2 N5 1_555 1_555
C8_2 O7_2 1_555 1_555
O19_2 Sm2 1_555 1_555
O20 Sm2 1_555 1_555
O21_2 Sm2 1_555 1_555
C3_2 C4_2 1_555 1_555
C4_2 C7_2 1_555 1_555
C7_2 C8_2 1_555 1_555
O15_2 H11_2 1_555 1_555
O15_2 H12_2 1_555 1_555
O13_2 H13_2 1_555 1_555
O13_2 H14_2 1_555 1_555
Sm4 N3_2 1_555 1_555
N3_2 C11_2 1_555 1_555
N4_2 H2_2 1_555 1_555
O1_2 Sm4 1_555 1_555
O3_2 Sm4 1_555 1_555
O17 C2_2 1_555 1_555
O9_2 C9_2 1_555 1_555
O20 C9_2 1_555 1_555
O11_2 C14_2 1_555 1_555
O12_2 Sm4 1_555 1_555
C1_2 O1_2 1_555 1_555
C2_2 O3_2 1_555 1_555
C9_2 C10_2 1_555 1_555
C10_2 N4_2 1_555 1_555
C11_2 N4_2 1_555 1_555
C12_2 C11_2 1_555 1_555
H6_2 C12_2 1_555 1_555
H7_2 C12_2 1_555 1_555
H8_2 C12_2 1_555 1_555
C13_2 N3_2 1_555 1_555
C14_2 O12_2 1_555 1_555
Sm5_2 O9_2 1_555 1_555
O11_2 Sm5_2 1_555 1_555
C1_2 C2_2 1_555 1_555
C10_2 C13_2 1_555 1_555
C13_2 C14_2 1_555 1_555
O8_2 Sm3 1_555 1_555
Sm1_2 N3_3 1_555 1_555
N3_3 C11_3 1_555 1_555
O1_3 Sm1_2 1_555 1_555
O2_2 C1_3 1_555 1_555
O3_3 Sm1_2 1_555 1_555
O4_2 C2_3 1_555 1_555
O5_3 Sm1_2 1_555 1_555
O6_3 C3_3 1_555 1_555
O21 C14_3 1_555 1_555
O12_3 Sm1_2 1_555 1_555
C1_3 O1_3 1_555 1_555
C2_3 O3_3 1_555 1_555
C3_3 O5_3 1_555 1_555
C13_3 N3_3 1_555 1_555
C14_3 O12_3 1_555 1_555
Sm3 O2_2 1_555 1_555
N5_2 Sm1_2 1_555 1_555
O16_2 Sm1_2 1_555 1_555
O18_2 Sm1_2 1_555 1_555
O4_2 Sm3 1_555 1_555
C1_3 C2_3 1_555 1_555
C10_3 C13_3 1_555 1_555
C13_3 C14_3 1_555 1_555
O13_3 H13_3 1_555 1_555
N1_2 C5_3 1_555 1_555
N2_3 H1_3 1_555 1_555
O7_3 Sm5 1_555 1_555
O14_3 Sm5 1_555 1_555
O15_3 Sm5 1_555 1_555
C4_3 N2_3 1_555 1_555
C5_3 N2_3 1_555 1_555
C6_3 C5_3 1_555 1_555
H3_3 C6_3 1_555 1_555
H4_3 C6_3 1_555 1_555
H5_3 C6_3 1_555 1_555
C7_3 N1_2 1_555 1_555
C8_3 O7_3 1_555 1_555
C4_3 C7_3 1_555 1_555
C7_3 C8_3 1_555 1_555
O14_3 H9_3 1_555 1_555
O14_3 H10_3 1_555 1_555
O15_3 H11_3 1_555 1_555
O15_3 H12_3 1_555 1_555
N4_3 H2_3 1_555 1_555
O20_2 C9_3 1_555 1_555
H6_3 C12_3 1_555 1_555
H8_3 C12_3 1_555 1_555
Sm3 N3_4 1_555 1_555
N3_4 C11_4 1_555 1_555
N4_4 H2_4 1_555 1_555
O1_4 Sm3 1_555 1_555
O3_4 Sm3 1_555 1_555
O17_2 C2_4 1_555 1_555
O19_2 C9_4 1_555 1_555
O10_2 C9_4 1_555 1_555
O21_2 C14_4 1_555 1_555
O12_4 Sm3 1_555 1_555
C1_4 O1_4 1_555 1_555
C2_4 O3_4 1_555 1_555
C9_4 C10_4 1_555 1_555
C10_4 N4_4 1_555 1_555
C11_4 N4_4 1_555 1_555
C12_4 C11_4 1_555 1_555
H6_4 C12_4 1_555 1_555
H7_4 C12_4 1_555 1_555
H8_4 C12_4 1_555 1_555
C13_4 N3_4 1_555 1_555
C14_4 O12_4 1_555 1_555
Sm5_2 O10_2 1_555 1_555
C1_4 C2_4 1_555 1_555
C10_4 C13_4 1_555 1_555
C13_4 C14_4 1_555 1_555
Sm5_2 O6_4 1_555 1_555
N5_2 C5_4 1_555 1_555
N2_4 H1_4 1_555 1_555
O6_4 C3_4 1_555 1_555
O7_4 Sm5_2 1_555 1_555
O18_2 C8_4 1_555 1_555
O13_4 Sm5_2 1_555 1_555
O14_4 Sm5_2 1_555 1_555
O15_4 Sm5_2 1_555 1_555
C3_4 O5_4 1_555 1_555
C4_4 N2_4 1_555 1_555
C5_4 N2_4 1_555 1_555
C6_4 C5_4 1_555 1_555
H3_4 C6_4 1_555 1_555
H4_4 C6_4 1_555 1_555
H5_4 C6_4 1_555 1_555
C7_4 N5_2 1_555 1_555
C8_4 O7_4 1_555 1_555
C3_4 C4_4 1_555 1_555
C4_4 C7_4 1_555 1_555
C7_4 C8_4 1_555 1_555
O15_4 H11_4 1_555 1_555
O15_4 H12_4 1_555 1_555
O13_4 H13_4 1_555 1_555
O13_4 H14_4 1_555 1_555

#END
