
###############################################################################
#
# This file contains modified crystal structure data generated from the
# MOF subset of the Cambridge Structural Database (CSD) v543 
# hosted by the Cambridge Crystallographic Data Centre (CCDC).
#
# This work is licensed under the Creative Commons
# Attribution-NonCommercial-ShareAlike 4.0 International License.
# To view a copy of this license, visit
# http://creativecommons.org/licenses/by-nc-sa/4.0/
# or send a letter to
# Creative Commons, PO Box 1866, Mountain View, CA 94042, USA.
#
# CIF created using the CSD Python API on 29 September 2022
# The structure has been converted into the P1 space group
# The structure has a 3D framework
# The original CSD entry FAVFUG is in the orthorhombic crystal system
# The framework has been calculated to contain at least 10.0% void space
# The void calculation uses a probe of radius 1.32A, grid spacing 0.4
#
###############################################################################

data_FAVFUG
_chemical_formula_moiety         '(C784 H448 Cd32 K16 N13 O252 3-)n'
_symmetry_cell_setting           triclinic
_symmetry_space_group_name_H-M   'P 1'
_symmetry_Int_Tables_number      1
_space_group_name_Hall           'P 1'
loop_
_symmetry_equiv_pos_site_id
_symmetry_equiv_pos_as_xyz
1 x,y,z
_cell_length_a                   30.4133(18)
_cell_length_b                   34.588(2)
_cell_length_c                   27.5921(18)
_cell_angle_alpha                90
_cell_angle_beta                 90
_cell_angle_gamma                90
_cell_volume                     29025.1
loop_
_atom_site_label
_atom_site_type_symbol
_atom_site_fract_x
_atom_site_fract_y
_atom_site_fract_z
Cd4 Cd 0.00294(2) 0.14372(2) 0.61871(2)
Cd1 Cd 0.74706(2) 0.39372(2) 0.36871(2)
Cd2 Cd 0.83911(2) 0.49782(2) 0.55317(2)
K1 K 0.78907(9) 0.44495(8) 0.46299(12)
O1 O 0.60288(19) 0.29291(16) 0.7388(2)
O2 O 0.7260(2) 0.43260(17) 0.4344(2)
O3 O 0.9392(2) 0.19732(19) 0.6427(2)
O4 O 0.7791(2) 0.50286(18) 0.4578(2)
O5 O 0.7940(2) 0.35241(19) 0.3989(2)
O6 O 0.7653(2) 0.44428(19) 0.5326(2)
O7 O 0.7911(2) 0.46824(19) 0.6019(3)
O8 O 0.6410(2) 0.3064(2) 0.8038(3)
O9 O 0.8001(2) 0.38713(16) 0.4677(2)
O10 O 0.5345(2) 0.6130(2) 0.5545(3)
O11 O 0.9583(2) 0.1773(2) 0.5689(2)
O12 O 0.7903(2) 0.53976(19) 0.5236(3)
O13 O 0.5632(3) 0.5975(2) 0.6252(3)
O14 O 0.6940(2) 0.4471(2) 0.3650(3)
O15 O 0.6490(3) 0.7054(2) 0.2894(3)
C1 C 0.6520(3) 0.3458(2) 0.6831(3)
H1 H 0.6326 0.3296 0.6668
O16 O 0.6224(3) 0.7168(2) 0.3616(4)
C2 C 0.6559(3) 0.3437(3) 0.7334(3)
C3 C 0.9372(3) 0.2001(3) 0.5984(4)
C4 C 0.6777(3) 0.3726(2) 0.6576(3)
C5 C 0.6322(3) 0.3133(3) 0.7613(4)
C6 C 0.6776(3) 0.3736(3) 0.6059(3)
H2 H 0.6594 0.3565 0.5894
C7 C 0.7341(3) 0.4224(3) 0.6060(3)
C8 C 0.9124(3) 0.2320(3) 0.5762(3)
C9 C 0.9078(3) 0.2348(3) 0.5263(4)
H3 H 0.9209 0.2164 0.5064
C10 C 0.6464(3) 0.5128(3) 0.5078(4)
C11 C 0.7020(3) 0.3975(3) 0.5805(4)
H4 H 0.6991 0.3987 0.5470
C12 C 0.8539(3) 0.2977(3) 0.4349(4)
H5 H 0.8491 0.2987 0.4017
C13 C 0.7333(3) 0.4228(3) 0.6539(4)
H6 H 0.7511 0.4405 0.6701
C14 C 0.6728(3) 0.4839(3) 0.4350(4)
C15 C 0.8352(3) 0.3258(3) 0.4646(4)
C16 C 0.6730(3) 0.4851(3) 0.4832(4)
H7 H 0.6904 0.4680 0.5008
C17 C 0.7661(3) 0.4473(3) 0.5774(4)
C18 C 0.8078(3) 0.3584(3) 0.4424(4)
C19 C 0.7066(3) 0.3974(3) 0.6819(4)
C20 C 0.8632(3) 0.2929(3) 0.5355(4)
C21 C 0.8383(3) 0.3237(3) 0.5122(4)
H8 H 0.8244 0.3423 0.5312
C22 C 0.5939(4) 0.5647(3) 0.5063(4)
H9 H 0.5760 0.5811 0.4883
C23 C 0.6214(4) 0.5390(3) 0.4815(4)
C24 C 0.8790(4) 0.2686(3) 0.4536(4)
H10 H 0.8930 0.2512 0.4330
C25 C 0.5923(3) 0.5666(3) 0.5551(4)
C26 C 0.6993(3) 0.4528(3) 0.4095(4)
C27 C 0.7084(4) 0.3954(3) 0.7331(3)
H11 H 0.7262 0.4129 0.7496
C28 C 0.7490(4) 0.5660(3) 0.4609(5)
C29 C 0.8909(4) 0.2610(3) 0.6067(4)
H12 H 0.8932 0.2594 0.6402
C30 C 0.6194(4) 0.5418(3) 0.5824(4)
H13 H 0.6188 0.5427 0.6161
C31 C 0.5618(4) 0.5948(3) 0.5792(4)
C32 C 0.8837(4) 0.2651(3) 0.5053(3)
C33 C 0.7745(3) 0.5336(3) 0.4813(4)
C34 C 0.6484(4) 0.5094(3) 0.4078(5)
H14 H 0.6493 0.5082 0.3741
C35 C 0.6467(4) 0.5164(3) 0.5590(4)
H15 H 0.6658 0.5012 0.5771
C36 C 0.6856(3) 0.3697(3) 0.7589(4)
H16 H 0.6887 0.3683 0.7924
C37 C 0.7032(4) 0.6288(4) 0.4258(5)
C38 C 0.8683(4) 0.2895(3) 0.5867(4)
H17 H 0.8552 0.3078 0.6066
C39 C 0.6471(4) 0.6988(4) 0.3309(7)
C40 C 0.6234(4) 0.5359(4) 0.4299(5)
H18 H 0.6068 0.5528 0.4111
C41 C 0.7267(5) 0.5928(3) 0.4921(5)
H19 H 0.7263 0.5889 0.5254
C42 C 0.7442(4) 0.5685(3) 0.4119(5)
H20 H 0.7561 0.5501 0.3912
C43 C 0.7199(4) 0.6014(3) 0.3938(4)
C44 C 0.7053(6) 0.6254(5) 0.4717(7)
H21 H 0.6928 0.6441 0.4916
C45 C 0.6763(4) 0.6659(4) 0.3564(5)
C46 C 0.6927(5) 0.6393(4) 0.3244(6)
H22 H 0.6881 0.6413 0.2911
C47 C 0.7183(6) 0.6069(5) 0.3457(7)
H23 H 0.7335 0.5901 0.3254
C48 C 0.6776(5) 0.6624(4) 0.4032(5)
H24 H 0.6631 0.6802 0.4229
Cd3 Cd 0.50294(2) 0.64372(2) 0.61871(2)
Cd5 Cd 0.58911(2) 0.75218(2) 0.30317(2)
Cd6 Cd 0.58911(2) 0.25218(2) 0.80317(2)
K2 K 0.53907(9) 0.30505(8) 0.71299(12)
K3 K 0.96093(9) 0.19495(8) 0.71299(12)
O17 O 0.85288(19) 0.45709(16) 0.4888(2)
O18 O 0.8108(2) 0.44732(19) 0.3927(2)
O19 O 0.8910(2) 0.4436(2) 0.5538(3)
O20 O 0.7155(2) 0.3630(2) 0.3045(3)
O21 O 0.7917(2) 0.4273(2) 0.3189(2)
O22 O 0.6868(3) 0.3475(2) 0.3752(3)
O23 O 0.8990(3) 0.5446(2) 0.5394(3)
O24 O 0.8724(3) 0.5332(2) 0.6116(4)
Cd1_2 Cd 0.25294(2) 0.60628(2) 0.36871(2)
Cd2_2 Cd 0.16089(2) 0.50218(2) 0.55317(2)
K1_2 K 0.21093(9) 0.55505(8) 0.46299(12)
O1_2 O 0.39712(19) 0.70709(16) 0.7388(2)
O2_2 O 0.2740(2) 0.56740(17) 0.4344(2)
O3_2 O 0.0608(2) 0.80268(19) 0.6427(2)
O4_2 O 0.2209(2) 0.49714(18) 0.4578(2)
O5_2 O 0.2060(2) 0.64759(19) 0.3989(2)
O6_2 O 0.2347(2) 0.55572(19) 0.5326(2)
O7_2 O 0.2089(2) 0.53176(19) 0.6019(3)
O8_2 O 0.3590(2) 0.6936(2) 0.8038(3)
O9_2 O 0.1999(2) 0.61287(16) 0.4677(2)
O10_2 O 0.4655(2) 0.3870(2) 0.5545(3)
O11_2 O 0.0417(2) 0.8227(2) 0.5689(2)
O12_2 O 0.2097(2) 0.46024(19) 0.5236(3)
O13_2 O 0.4368(3) 0.4025(2) 0.6252(3)
O14_2 O 0.3060(2) 0.5529(2) 0.3650(3)
O15_2 O 0.3510(3) 0.2946(2) 0.2894(3)
C1_2 C 0.3480(3) 0.6542(2) 0.6831(3)
H1_2 H 0.3674 0.6704 0.6668
O16_2 O 0.3776(3) 0.2832(2) 0.3616(4)
C2_2 C 0.3441(3) 0.6563(3) 0.7334(3)
C3_2 C 0.0628(3) 0.7999(3) 0.5984(4)
C4_2 C 0.3223(3) 0.6274(2) 0.6576(3)
C5_2 C 0.3678(3) 0.6867(3) 0.7613(4)
C6_2 C 0.3224(3) 0.6264(3) 0.6059(3)
H2_2 H 0.3406 0.6435 0.5894
C7_2 C 0.2659(3) 0.5776(3) 0.6060(3)
C8_2 C 0.0876(3) 0.7680(3) 0.5762(3)
C9_2 C 0.0922(3) 0.7652(3) 0.5263(4)
H3_2 H 0.0791 0.7836 0.5064
C10_2 C 0.3536(3) 0.4872(3) 0.5078(4)
C11_2 C 0.2980(3) 0.6025(3) 0.5805(4)
H4_2 H 0.3009 0.6013 0.5470
C12_2 C 0.1461(3) 0.7023(3) 0.4349(4)
H5_2 H 0.1509 0.7013 0.4017
C13_2 C 0.2667(3) 0.5772(3) 0.6539(4)
H6_2 H 0.2489 0.5595 0.6701
C14_2 C 0.3272(3) 0.5161(3) 0.4350(4)
C15_2 C 0.1648(3) 0.6742(3) 0.4646(4)
C16_2 C 0.3270(3) 0.5149(3) 0.4832(4)
H7_2 H 0.3096 0.5320 0.5008
C17_2 C 0.2339(3) 0.5527(3) 0.5774(4)
C18_2 C 0.1922(3) 0.6416(3) 0.4424(4)
C19_2 C 0.2934(3) 0.6026(3) 0.6819(4)
C20_2 C 0.1368(3) 0.7071(3) 0.5355(4)
C21_2 C 0.1617(3) 0.6763(3) 0.5122(4)
H8_2 H 0.1756 0.6577 0.5312
C22_2 C 0.4061(4) 0.4353(3) 0.5063(4)
H9_2 H 0.4240 0.4189 0.4883
C23_2 C 0.3786(4) 0.4610(3) 0.4815(4)
C24_2 C 0.1210(4) 0.7314(3) 0.4536(4)
H10_2 H 0.1070 0.7488 0.4330
C25_2 C 0.4077(3) 0.4334(3) 0.5551(4)
C26_2 C 0.3007(3) 0.5472(3) 0.4095(4)
C27_2 C 0.2916(4) 0.6046(3) 0.7331(3)
H11_2 H 0.2738 0.5871 0.7496
C28_2 C 0.2510(4) 0.4340(3) 0.4609(5)
C29_2 C 0.1091(4) 0.7390(3) 0.6067(4)
H12_2 H 0.1068 0.7406 0.6402
C30_2 C 0.3806(4) 0.4582(3) 0.5824(4)
H13_2 H 0.3812 0.4573 0.6161
C31_2 C 0.4382(4) 0.4052(3) 0.5792(4)
C32_2 C 0.1163(4) 0.7349(3) 0.5053(3)
C33_2 C 0.2255(3) 0.4664(3) 0.4813(4)
C34_2 C 0.3516(4) 0.4906(3) 0.4078(5)
H14_2 H 0.3507 0.4918 0.3741
C35_2 C 0.3533(4) 0.4836(3) 0.5590(4)
H15_2 H 0.3342 0.4988 0.5771
C36_2 C 0.3144(3) 0.6303(3) 0.7589(4)
H16_2 H 0.3113 0.6317 0.7924
C37_2 C 0.2968(4) 0.3712(4) 0.4258(5)
C38_2 C 0.1317(4) 0.7105(3) 0.5867(4)
H17_2 H 0.1448 0.6922 0.6066
C39_2 C 0.3529(4) 0.3012(4) 0.3309(7)
C40_2 C 0.3766(4) 0.4641(4) 0.4299(5)
H18_2 H 0.3932 0.4472 0.4111
C41_2 C 0.2733(5) 0.4072(3) 0.4921(5)
H19_2 H 0.2737 0.4111 0.5254
C42_2 C 0.2558(4) 0.4315(3) 0.4119(5)
H20_2 H 0.2439 0.4499 0.3912
C43_2 C 0.2801(4) 0.3986(3) 0.3938(4)
C44_2 C 0.2947(6) 0.3746(5) 0.4717(7)
H21_2 H 0.3072 0.3559 0.4916
C45_2 C 0.3237(4) 0.3341(4) 0.3564(5)
C46_2 C 0.3073(5) 0.3607(4) 0.3244(6)
H22_2 H 0.3119 0.3587 0.2911
C47_2 C 0.2817(6) 0.3931(5) 0.3457(7)
H23_2 H 0.2665 0.4099 0.3254
C48_2 C 0.3224(5) 0.3376(4) 0.4032(5)
H24_2 H 0.3369 0.3198 0.4229
Cd3_2 Cd 0.49706(2) 0.35628(2) 0.61871(2)
Cd5_2 Cd 0.41089(2) 0.24782(2) 0.30317(2)
Cd6_2 Cd 0.41089(2) 0.74782(2) 0.80317(2)
K2_2 K 0.46093(9) 0.69495(8) 0.71299(12)
K3_2 K 0.03907(9) 0.80505(8) 0.71299(12)
O17_2 O 0.14712(19) 0.54291(16) 0.4888(2)
O18_2 O 0.1892(2) 0.55268(19) 0.3927(2)
O19_2 O 0.1090(2) 0.5564(2) 0.5538(3)
O20_2 O 0.2845(2) 0.6370(2) 0.3045(3)
O21_2 O 0.2083(2) 0.5727(2) 0.3189(2)
O22_2 O 0.3132(3) 0.6525(2) 0.3752(3)
O23_2 O 0.1010(3) 0.4554(2) 0.5394(3)
O24_2 O 0.1276(3) 0.4668(2) 0.6116(4)
Cd4_2 Cd 0.99706(2) 0.85628(2) 0.61871(2)
O3_3 O 0.1892(2) 0.05268(19) 0.8927(2)
O11_3 O 0.2083(2) 0.0727(2) 0.8189(2)
C3_3 C 0.1872(3) 0.0499(3) 0.8484(4)
C8_3 C 0.1624(3) 0.0180(3) 0.8262(3)
C9_3 C 0.1578(3) 0.0152(3) 0.7763(4)
H3_3 H 0.1709 0.0336 0.7564
Cd4_3 Cd 0.25294(2) 0.10628(2) 0.86871(2)
K3_3 K 0.21093(9) 0.05505(8) 0.96299(12)
Cd2_3 Cd 0.08911(2) 0.75218(2) 0.80317(2)
O4_3 O 0.0291(2) 0.74714(18) 0.7078(2)
O5_3 O 0.0440(2) 0.89759(19) 0.6489(2)
O6_3 O 0.0153(2) 0.80572(19) 0.7826(2)
O7_3 O 0.0411(2) 0.78176(19) 0.8519(3)
O9_3 O 0.0501(2) 0.86287(16) 0.7177(2)
O12_3 O 0.0403(2) 0.71024(19) 0.7736(3)
C12_3 C 0.1039(3) 0.9523(3) 0.6849(4)
H5_3 H 0.0991 0.9513 0.6517
H6_3 H 0.0011 0.8095 0.9201
C15_3 C 0.0852(3) 0.9242(3) 0.7146(4)
C17_3 C 0.0161(3) 0.8027(3) 0.8274(4)
C18_3 C 0.0578(3) 0.8916(3) 0.6924(4)
C20_3 C 0.1132(3) 0.9571(3) 0.7855(4)
C21_3 C 0.0883(3) 0.9263(3) 0.7622(4)
H8_3 H 0.0744 0.9077 0.7812
C24_3 C 0.1290(4) 0.9814(3) 0.7036(4)
H10_3 H 0.1430 0.9988 0.6830
C29_3 C 0.1409(4) 0.9890(3) 0.8567(4)
H12_3 H 0.1432 0.9906 0.8902
C32_3 C 0.1337(4) 0.9849(3) 0.7553(3)
C33_3 C 0.0245(3) 0.7164(3) 0.7313(4)
C38_3 C 0.1183(4) 0.9605(3) 0.8367(4)
H17_3 H 0.1052 0.9422 0.8566
H20_3 H 0.0061 0.6999 0.6412
O17_3 O 0.10288(19) 0.79291(16) 0.7388(2)
O19_3 O 0.1410(2) 0.8064(2) 0.8038(3)
O23_3 O 0.1490(3) 0.7054(2) 0.7894(3)
O24_3 O 0.1224(3) 0.7168(2) 0.8616(4)
O8_3 O 0.8910(2) 0.9436(2) 0.0538(3)
C5_3 C 0.8822(3) 0.9367(3) 0.0113(4)
C36_3 C 0.9356(3) 0.8803(3) 0.0089(4)
H16_3 H 0.9387 0.8817 0.0424
Cd6_3 Cd 0.83911(2) 0.99782(2) 0.05317(2)
O1_3 O 0.85288(19) 0.95709(16) 0.9888(2)
O2_3 O 0.9760(2) 0.81740(17) 0.6844(2)
O10_3 O 0.7845(2) 0.6370(2) 0.8045(3)
O13_3 O 0.8132(3) 0.6525(2) 0.8752(3)
O14_3 O 0.9440(2) 0.8029(2) 0.6150(3)
C1_3 C 0.9020(3) 0.9042(2) 0.9331(3)
H1_3 H 0.8826 0.9204 0.9168
C2_3 C 0.9059(3) 0.9063(3) 0.9834(3)
C4_3 C 0.9277(3) 0.8774(2) 0.9076(3)
C6_3 C 0.9276(3) 0.8764(3) 0.8559(3)
H2_3 H 0.9094 0.8935 0.8394
C7_3 C 0.9841(3) 0.8276(3) 0.8560(3)
C10_3 C 0.8964(3) 0.7372(3) 0.7578(4)
C11_3 C 0.9520(3) 0.8525(3) 0.8305(4)
H4_3 H 0.9491 0.8513 0.7970
C13_3 C 0.9833(3) 0.8272(3) 0.9039(4)
C14_3 C 0.9228(3) 0.7661(3) 0.6850(4)
C16_3 C 0.9230(3) 0.7649(3) 0.7332(4)
H7_3 H 0.9404 0.7820 0.7508
C19_3 C 0.9566(3) 0.8526(3) 0.9319(4)
C22_3 C 0.8439(4) 0.6853(3) 0.7563(4)
H9_3 H 0.8260 0.6689 0.7383
C23_3 C 0.8714(4) 0.7110(3) 0.7315(4)
C25_3 C 0.8423(3) 0.6834(3) 0.8051(4)
C26_3 C 0.9493(3) 0.7972(3) 0.6595(4)
C27_3 C 0.9584(4) 0.8546(3) 0.9831(3)
H11_3 H 0.9762 0.8371 0.9996
C28_3 C 0.9990(4) 0.6840(3) 0.7109(5)
C30_3 C 0.8694(4) 0.7082(3) 0.8324(4)
H13_3 H 0.8688 0.7073 0.8661
C31_3 C 0.8118(4) 0.6552(3) 0.8292(4)
C34_3 C 0.8984(4) 0.7406(3) 0.6578(5)
H14_3 H 0.8993 0.7418 0.6241
C35_3 C 0.8967(4) 0.7336(3) 0.8090(4)
H15_3 H 0.9158 0.7488 0.8271
C37_3 C 0.9532(4) 0.6212(4) 0.6758(5)
C39_3 C 0.8971(4) 0.5512(4) 0.5809(7)
C40_3 C 0.8734(4) 0.7141(4) 0.6799(5)
H18_3 H 0.8568 0.6972 0.6611
C41_3 C 0.9767(5) 0.6572(3) 0.7421(5)
H19_3 H 0.9763 0.6611 0.7754
C42_3 C 0.9942(4) 0.6815(3) 0.6619(5)
C43_3 C 0.9699(4) 0.6486(3) 0.6438(4)
C44_3 C 0.9553(6) 0.6246(5) 0.7217(7)
H21_3 H 0.9428 0.6059 0.7416
C45_3 C 0.9263(4) 0.5841(4) 0.6064(5)
C46_3 C 0.9427(5) 0.6107(4) 0.5744(6)
H22_3 H 0.9381 0.6087 0.5411
C47_3 C 0.9683(6) 0.6431(5) 0.5957(7)
H23_3 H 0.9835 0.6599 0.5754
C48_3 C 0.9276(5) 0.5876(4) 0.6532(5)
H24_3 H 0.9131 0.5698 0.6729
Cd3_3 Cd 0.75294(2) 0.60628(2) 0.86871(2)
K2_3 K 0.78907(9) 0.94495(8) 0.96299(12)
O20_3 O 0.9655(2) 0.8870(2) 0.5545(3)
O22_3 O 0.9368(3) 0.9025(2) 0.6252(3)
Cd5_3 Cd 0.66089(2) 0.00218(2) 0.55317(2)
O8_4 O 0.6090(2) 0.5564(2) 0.0538(3)
C5_4 C 0.6178(3) 0.5633(3) 0.0113(4)
C36_4 C 0.5644(3) 0.6197(3) 0.0089(4)
H16_4 H 0.5613 0.6183 0.0424
Cd6_4 Cd 0.66089(2) 0.50218(2) 0.05317(2)
O1_4 O 0.64712(19) 0.54291(16) 0.9888(2)
O2_4 O 0.5240(2) 0.68260(17) 0.6844(2)
O3_4 O 0.3108(2) 0.44732(19) 0.8927(2)
O4_4 O 0.4709(2) 0.75286(18) 0.7078(2)
O5_4 O 0.4560(2) 0.60241(19) 0.6489(2)
O6_4 O 0.4847(2) 0.69428(19) 0.7826(2)
O7_4 O 0.4589(2) 0.71824(19) 0.8519(3)
O9_4 O 0.4499(2) 0.63713(16) 0.7177(2)
O10_4 O 0.7155(2) 0.8630(2) 0.8045(3)
O11_4 O 0.2917(2) 0.4273(2) 0.8189(2)
O12_4 O 0.4597(2) 0.78976(19) 0.7736(3)
O13_4 O 0.6868(3) 0.8475(2) 0.8752(3)
O14_4 O 0.5560(2) 0.6971(2) 0.6150(3)
O15_3 O 0.6010(3) 0.9554(2) 0.5394(3)
C1_4 C 0.5980(3) 0.5958(2) 0.9331(3)
H1_4 H 0.6174 0.5796 0.9168
O16_3 O 0.6276(3) 0.9668(2) 0.6116(4)
C2_4 C 0.5941(3) 0.5937(3) 0.9834(3)
C3_4 C 0.3128(3) 0.4501(3) 0.8484(4)
C4_4 C 0.5723(3) 0.6226(2) 0.9076(3)
C6_4 C 0.5724(3) 0.6236(3) 0.8559(3)
H2_4 H 0.5906 0.6065 0.8394
C7_4 C 0.5159(3) 0.6724(3) 0.8560(3)
C8_4 C 0.3376(3) 0.4820(3) 0.8262(3)
C9_4 C 0.3422(3) 0.4848(3) 0.7763(4)
H3_4 H 0.3291 0.4664 0.7564
C10_4 C 0.6036(3) 0.7628(3) 0.7578(4)
C11_4 C 0.5480(3) 0.6475(3) 0.8305(4)
H4_4 H 0.5509 0.6487 0.7970
C12_4 C 0.3961(3) 0.5477(3) 0.6849(4)
H5_4 H 0.4009 0.5487 0.6517
C13_4 C 0.5167(3) 0.6728(3) 0.9039(4)
H6_4 H 0.4989 0.6905 0.9201
C14_4 C 0.5772(3) 0.7339(3) 0.6850(4)
C15_4 C 0.4148(3) 0.5758(3) 0.7146(4)
C16_4 C 0.5770(3) 0.7351(3) 0.7332(4)
H7_4 H 0.5596 0.7180 0.7508
C17_4 C 0.4839(3) 0.6973(3) 0.8274(4)
C18_4 C 0.4422(3) 0.6084(3) 0.6924(4)
C19_4 C 0.5434(3) 0.6474(3) 0.9319(4)
C20_4 C 0.3868(3) 0.5429(3) 0.7855(4)
C21_4 C 0.4117(3) 0.5737(3) 0.7622(4)
H8_4 H 0.4256 0.5923 0.7812
C22_4 C 0.6561(4) 0.8147(3) 0.7563(4)
H9_4 H 0.6740 0.8311 0.7383
C23_4 C 0.6286(4) 0.7890(3) 0.7315(4)
C24_4 C 0.3710(4) 0.5186(3) 0.7036(4)
H10_4 H 0.3570 0.5012 0.6830
C25_4 C 0.6577(3) 0.8166(3) 0.8051(4)
C26_4 C 0.5507(3) 0.7028(3) 0.6595(4)
C27_4 C 0.5416(4) 0.6454(3) 0.9831(3)
H11_4 H 0.5238 0.6629 0.9996
C28_4 C 0.5010(4) 0.8160(3) 0.7109(5)
C29_4 C 0.3591(4) 0.5110(3) 0.8567(4)
H12_4 H 0.3568 0.5094 0.8902
C30_4 C 0.6306(4) 0.7918(3) 0.8324(4)
H13_4 H 0.6312 0.7927 0.8661
C31_4 C 0.6882(4) 0.8448(3) 0.8292(4)
C32_4 C 0.3663(4) 0.5151(3) 0.7553(3)
C33_4 C 0.4755(3) 0.7836(3) 0.7313(4)
C34_4 C 0.6016(4) 0.7594(3) 0.6578(5)
H14_4 H 0.6007 0.7582 0.6241
C35_4 C 0.6033(4) 0.7664(3) 0.8090(4)
H15_4 H 0.5842 0.7512 0.8271
C37_4 C 0.5468(4) 0.8788(4) 0.6758(5)
C38_4 C 0.3817(4) 0.5395(3) 0.8367(4)
H17_4 H 0.3948 0.5578 0.8566
C39_4 C 0.6029(4) 0.9488(4) 0.5809(7)
C40_4 C 0.6266(4) 0.7859(4) 0.6799(5)
H18_4 H 0.6432 0.8028 0.6611
C41_4 C 0.5233(5) 0.8428(3) 0.7421(5)
H19_4 H 0.5237 0.8389 0.7754
C42_4 C 0.5058(4) 0.8185(3) 0.6619(5)
H20_4 H 0.4939 0.8001 0.6412
C43_4 C 0.5301(4) 0.8514(3) 0.6438(4)
C44_4 C 0.5447(6) 0.8754(5) 0.7217(7)
H21_4 H 0.5572 0.8941 0.7416
C45_4 C 0.5737(4) 0.9159(4) 0.6064(5)
C46_4 C 0.5573(5) 0.8893(4) 0.5744(6)
H22_4 H 0.5619 0.8913 0.5411
C47_4 C 0.5317(6) 0.8569(5) 0.5957(7)
H23_4 H 0.5165 0.8401 0.5754
C48_4 C 0.5724(5) 0.9124(4) 0.6532(5)
H24_4 H 0.5869 0.9302 0.6729
Cd3_4 Cd 0.74706(2) 0.89372(2) 0.86871(2)
Cd4_4 Cd 0.24706(2) 0.39372(2) 0.86871(2)
K2_4 K 0.71093(9) 0.55505(8) 0.96299(12)
K3_4 K 0.28907(9) 0.44495(8) 0.96299(12)
O18_3 O 0.4392(2) 0.69732(19) 0.6427(2)
O21_3 O 0.4583(2) 0.6773(2) 0.5689(2)
O23_4 O 0.3510(3) 0.7946(2) 0.7894(3)
O24_4 O 0.3776(3) 0.7832(2) 0.8616(4)
Cd4_5 Cd 0.00294(2) 0.64372(2) 0.11871(2)
O10_5 O 0.5345(2) 0.1130(2) 0.0545(3)
O12_5 O 0.7903(2) 0.03976(19) 0.0236(3)
O13_5 O 0.5632(3) 0.0975(2) 0.1252(3)
C10_5 C 0.6464(3) 0.0128(3) 0.0078(4)
C22_5 C 0.5939(4) 0.0647(3) 0.0063(4)
C25_5 C 0.5923(3) 0.0666(3) 0.0551(4)
C30_5 C 0.6194(4) 0.0418(3) 0.0824(4)
H13_5 H 0.6188 0.0427 0.1161
C31_5 C 0.5618(4) 0.0948(3) 0.0792(4)
C35_5 C 0.6467(4) 0.0164(3) 0.0590(4)
H15_5 H 0.6658 0.0012 0.0771
H19_5 H 0.7263 0.0889 0.0254
Cd3_5 Cd 0.50294(2) 0.14372(2) 0.11871(2)
O23_5 O 0.8990(3) 0.0446(2) 0.0394(3)
O24_5 O 0.8724(3) 0.0332(2) 0.1116(4)
O4_5 O 0.7791(2) 0.00286(18) 0.9578(2)
O15_4 O 0.6490(3) 0.2054(2) 0.7894(3)
O16_4 O 0.6224(3) 0.2168(2) 0.8616(4)
H9_5 H 0.5760 0.0811 0.9883
C23_5 C 0.6214(4) 0.0390(3) 0.9815(4)
C28_5 C 0.7490(4) 0.0660(3) 0.9609(5)
C33_5 C 0.7745(3) 0.0336(3) 0.9813(4)
C34_5 C 0.6484(4) 0.0094(3) 0.9078(5)
H14_5 H 0.6493 0.0082 0.8741
C37_5 C 0.7032(4) 0.1288(4) 0.9258(5)
C39_5 C 0.6471(4) 0.1988(4) 0.8309(7)
C40_5 C 0.6234(4) 0.0359(4) 0.9299(5)
H18_5 H 0.6068 0.0528 0.9111
C41_5 C 0.7267(5) 0.0928(3) 0.9921(5)
C42_5 C 0.7442(4) 0.0685(3) 0.9119(5)
H20_5 H 0.7561 0.0501 0.8912
C43_5 C 0.7199(4) 0.1014(3) 0.8938(4)
C44_5 C 0.7053(6) 0.1254(5) 0.9717(7)
H21_5 H 0.6928 0.1441 0.9916
C45_5 C 0.6763(4) 0.1659(4) 0.8564(5)
C46_5 C 0.6927(5) 0.1393(4) 0.8244(6)
H22_5 H 0.6881 0.1413 0.7911
C47_5 C 0.7183(6) 0.1069(5) 0.8457(7)
H23_5 H 0.7335 0.0901 0.8254
C48_5 C 0.6776(5) 0.1624(4) 0.9032(5)
H24_5 H 0.6631 0.1802 0.9229
O1_5 O 0.60288(19) 0.79291(16) 0.2388(2)
O3_5 O 0.9392(2) 0.69732(19) 0.1427(2)
O6_5 O 0.7653(2) 0.94428(19) 0.0326(2)
O7_5 O 0.7911(2) 0.96824(19) 0.1019(3)
O8_5 O 0.6410(2) 0.8064(2) 0.3038(3)
O11_5 O 0.9583(2) 0.6773(2) 0.0689(2)
C1_5 C 0.6520(3) 0.8458(2) 0.1831(3)
H1_5 H 0.6326 0.8296 0.1668
C2_5 C 0.6559(3) 0.8437(3) 0.2334(3)
C3_5 C 0.9372(3) 0.7001(3) 0.0984(4)
C4_5 C 0.6777(3) 0.8726(2) 0.1576(3)
C5_5 C 0.6322(3) 0.8133(3) 0.2613(4)
C6_5 C 0.6776(3) 0.8736(3) 0.1059(3)
H2_5 H 0.6594 0.8565 0.0894
C7_5 C 0.7341(3) 0.9224(3) 0.1060(3)
C8_5 C 0.9124(3) 0.7320(3) 0.0762(3)
C9_5 C 0.9078(3) 0.7348(3) 0.0263(4)
H3_5 H 0.9209 0.7164 0.0064
C11_5 C 0.7020(3) 0.8975(3) 0.0805(4)
H4_5 H 0.6991 0.8987 0.0470
C13_5 C 0.7333(3) 0.9228(3) 0.1539(4)
H6_5 H 0.7511 0.9405 0.1701
H7_5 H 0.6904 0.9680 0.0008
C17_5 C 0.7661(3) 0.9473(3) 0.0774(4)
C19_5 C 0.7066(3) 0.8974(3) 0.1819(4)
C20_5 C 0.8632(3) 0.7929(3) 0.0355(4)
C21_5 C 0.8383(3) 0.8237(3) 0.0122(4)
H8_5 H 0.8244 0.8423 0.0312
C27_5 C 0.7084(4) 0.8954(3) 0.2331(3)
H11_5 H 0.7262 0.9129 0.2496
C29_5 C 0.8909(4) 0.7610(3) 0.1067(4)
H12_5 H 0.8932 0.7594 0.1402
C32_5 C 0.8837(4) 0.7651(3) 0.0053(3)
C36_5 C 0.6856(3) 0.8697(3) 0.2589(4)
H16_5 H 0.6887 0.8683 0.2924
C38_5 C 0.8683(4) 0.7895(3) 0.0867(4)
H17_5 H 0.8552 0.8078 0.1066
K2_5 K 0.53907(9) 0.80505(8) 0.21299(12)
K3_5 K 0.96093(9) 0.69495(8) 0.21299(12)
O2_5 O 0.7260(2) 0.93260(17) 0.9344(2)
O5_5 O 0.7940(2) 0.85241(19) 0.8989(2)
O9_5 O 0.8001(2) 0.88713(16) 0.9677(2)
O14_5 O 0.6940(2) 0.9471(2) 0.8650(3)
C12_5 C 0.8539(3) 0.7977(3) 0.9349(4)
H5_5 H 0.8491 0.7987 0.9017
C14_5 C 0.6728(3) 0.9839(3) 0.9350(4)
C15_5 C 0.8352(3) 0.8258(3) 0.9646(4)
C16_5 C 0.6730(3) 0.9851(3) 0.9832(4)
C18_5 C 0.8078(3) 0.8584(3) 0.9424(4)
C24_5 C 0.8790(4) 0.7686(3) 0.9536(4)
H10_5 H 0.8930 0.7512 0.9330
C26_5 C 0.6993(3) 0.9528(3) 0.9095(4)
O18_4 O 0.8108(2) 0.94732(19) 0.8927(2)
O21_4 O 0.7917(2) 0.9273(2) 0.8189(2)
Cd2_4 Cd 0.16089(2) 0.00218(2) 0.05317(2)
O1_6 O 0.39712(19) 0.20709(16) 0.2388(2)
O3_6 O 0.0608(2) 0.30268(19) 0.1427(2)
O6_6 O 0.2347(2) 0.05572(19) 0.0326(2)
O7_6 O 0.2089(2) 0.03176(19) 0.1019(3)
O8_6 O 0.3590(2) 0.1936(2) 0.3038(3)
O11_6 O 0.0417(2) 0.3227(2) 0.0689(2)
C1_6 C 0.3480(3) 0.1542(2) 0.1831(3)
H1_6 H 0.3674 0.1704 0.1668
C2_6 C 0.3441(3) 0.1563(3) 0.2334(3)
C3_6 C 0.0628(3) 0.2999(3) 0.0984(4)
C4_6 C 0.3223(3) 0.1274(2) 0.1576(3)
C5_6 C 0.3678(3) 0.1867(3) 0.2613(4)
C6_6 C 0.3224(3) 0.1264(3) 0.1059(3)
H2_6 H 0.3406 0.1435 0.0894
C7_6 C 0.2659(3) 0.0776(3) 0.1060(3)
C8_6 C 0.0876(3) 0.2680(3) 0.0762(3)
C9_6 C 0.0922(3) 0.2652(3) 0.0263(4)
H3_6 H 0.0791 0.2836 0.0064
C11_6 C 0.2980(3) 0.1025(3) 0.0805(4)
H4_6 H 0.3009 0.1013 0.0470
C13_6 C 0.2667(3) 0.0772(3) 0.1539(4)
H6_6 H 0.2489 0.0595 0.1701
H7_6 H 0.3096 0.0320 0.0008
C17_6 C 0.2339(3) 0.0527(3) 0.0774(4)
C19_6 C 0.2934(3) 0.1026(3) 0.1819(4)
C20_6 C 0.1368(3) 0.2071(3) 0.0355(4)
C21_6 C 0.1617(3) 0.1763(3) 0.0122(4)
H8_6 H 0.1756 0.1577 0.0312
C27_6 C 0.2916(4) 0.1046(3) 0.2331(3)
H11_6 H 0.2738 0.0871 0.2496
C29_6 C 0.1091(4) 0.2390(3) 0.1067(4)
H12_6 H 0.1068 0.2406 0.1402
C32_6 C 0.1163(4) 0.2349(3) 0.0053(3)
C36_6 C 0.3144(3) 0.1303(3) 0.2589(4)
H16_6 H 0.3113 0.1317 0.2924
C38_6 C 0.1317(4) 0.2105(3) 0.0867(4)
H17_6 H 0.1448 0.1922 0.1066
K2_6 K 0.46093(9) 0.19495(8) 0.21299(12)
K3_6 K 0.03907(9) 0.30505(8) 0.21299(12)
O19_4 O 0.1090(2) 0.0564(2) 0.0538(3)
O2_6 O 0.2740(2) 0.06740(17) 0.9344(2)
O5_6 O 0.2060(2) 0.14759(19) 0.8989(2)
O9_6 O 0.1999(2) 0.11287(16) 0.9677(2)
O14_6 O 0.3060(2) 0.0529(2) 0.8650(3)
C12_6 C 0.1461(3) 0.2023(3) 0.9349(4)
H5_6 H 0.1509 0.2013 0.9017
C14_6 C 0.3272(3) 0.0161(3) 0.9350(4)
C15_6 C 0.1648(3) 0.1742(3) 0.9646(4)
C16_6 C 0.3270(3) 0.0149(3) 0.9832(4)
C18_6 C 0.1922(3) 0.1416(3) 0.9424(4)
C24_6 C 0.1210(4) 0.2314(3) 0.9536(4)
H10_6 H 0.1070 0.2488 0.9330
C26_6 C 0.3007(3) 0.0472(3) 0.9095(4)
O17_4 O 0.14712(19) 0.04291(16) 0.9888(2)
O20_4 O 0.2845(2) 0.1370(2) 0.8045(3)
O22_4 O 0.3132(3) 0.1525(2) 0.8752(3)
O10_6 O 0.4655(2) 0.8870(2) 0.0545(3)
O12_6 O 0.2097(2) 0.96024(19) 0.0236(3)
O13_6 O 0.4368(3) 0.9025(2) 0.1252(3)
C10_6 C 0.3536(3) 0.9872(3) 0.0078(4)
C22_6 C 0.4061(4) 0.9353(3) 0.0063(4)
C25_6 C 0.4077(3) 0.9334(3) 0.0551(4)
C30_6 C 0.3806(4) 0.9582(3) 0.0824(4)
H13_6 H 0.3812 0.9573 0.1161
C31_6 C 0.4382(4) 0.9052(3) 0.0792(4)
C35_6 C 0.3533(4) 0.9836(3) 0.0590(4)
H15_6 H 0.3342 0.9988 0.0771
H19_6 H 0.2737 0.9111 0.0254
Cd3_6 Cd 0.49706(2) 0.85628(2) 0.11871(2)
O23_6 O 0.1010(3) 0.9554(2) 0.0394(3)
O24_6 O 0.1276(3) 0.9668(2) 0.1116(4)
O4_6 O 0.2209(2) 0.99714(18) 0.9578(2)
H9_6 H 0.4240 0.9189 0.9883
C23_6 C 0.3786(4) 0.9610(3) 0.9815(4)
C28_6 C 0.2510(4) 0.9340(3) 0.9609(5)
C33_6 C 0.2255(3) 0.9664(3) 0.9813(4)
C34_6 C 0.3516(4) 0.9906(3) 0.9078(5)
H14_6 H 0.3507 0.9918 0.8741
C37_6 C 0.2968(4) 0.8712(4) 0.9258(5)
C39_6 C 0.3529(4) 0.8012(4) 0.8309(7)
C40_6 C 0.3766(4) 0.9641(4) 0.9299(5)
H18_6 H 0.3932 0.9472 0.9111
C41_6 C 0.2733(5) 0.9072(3) 0.9921(5)
C42_6 C 0.2558(4) 0.9315(3) 0.9119(5)
H20_6 H 0.2439 0.9499 0.8912
C43_6 C 0.2801(4) 0.8986(3) 0.8938(4)
C44_6 C 0.2947(6) 0.8746(5) 0.9717(7)
H21_6 H 0.3072 0.8559 0.9916
C45_6 C 0.3237(4) 0.8341(4) 0.8564(5)
C46_6 C 0.3073(5) 0.8607(4) 0.8244(6)
H22_6 H 0.3119 0.8587 0.7911
C47_6 C 0.2817(6) 0.8931(5) 0.8457(7)
H23_6 H 0.2665 0.9099 0.8254
C48_6 C 0.3224(5) 0.8376(4) 0.9032(5)
H24_6 H 0.3369 0.8198 0.9229
Cd4_6 Cd 0.99706(2) 0.35628(2) 0.11871(2)
Cd2_5 Cd 0.08911(2) 0.25218(2) 0.30317(2)
O4_7 O 0.0291(2) 0.24714(18) 0.2078(2)
O5_7 O 0.0440(2) 0.39759(19) 0.1489(2)
O6_7 O 0.0153(2) 0.30572(19) 0.2826(2)
O7_7 O 0.0411(2) 0.28176(19) 0.3519(3)
O9_7 O 0.0501(2) 0.36287(16) 0.2177(2)
O12_7 O 0.0403(2) 0.21024(19) 0.2736(3)
C3_7 C 0.1872(3) 0.5499(3) 0.3484(4)
C8_7 C 0.1624(3) 0.5180(3) 0.3262(3)
C9_7 C 0.1578(3) 0.5152(3) 0.2763(4)
H3_7 H 0.1709 0.5336 0.2564
C12_7 C 0.1039(3) 0.4523(3) 0.1849(4)
H5_7 H 0.0991 0.4513 0.1517
H6_7 H 0.0011 0.3095 0.4201
C15_7 C 0.0852(3) 0.4242(3) 0.2146(4)
C17_7 C 0.0161(3) 0.3027(3) 0.3274(4)
C18_7 C 0.0578(3) 0.3916(3) 0.1924(4)
C20_7 C 0.1132(3) 0.4571(3) 0.2855(4)
C21_7 C 0.0883(3) 0.4263(3) 0.2622(4)
H8_7 H 0.0744 0.4077 0.2812
C24_7 C 0.1290(4) 0.4814(3) 0.2036(4)
H10_7 H 0.1430 0.4988 0.1830
C29_7 C 0.1409(4) 0.4890(3) 0.3567(4)
H12_7 H 0.1432 0.4906 0.3902
C32_7 C 0.1337(4) 0.4849(3) 0.2553(3)
C33_7 C 0.0245(3) 0.2164(3) 0.2313(4)
C38_7 C 0.1183(4) 0.4605(3) 0.3367(4)
H17_7 H 0.1052 0.4422 0.3566
H20_7 H 0.0061 0.1999 0.1412
O17_5 O 0.10288(19) 0.29291(16) 0.2388(2)
O19_5 O 0.1410(2) 0.3064(2) 0.3038(3)
O23_7 O 0.1490(3) 0.2054(2) 0.2894(3)
O24_7 O 0.1224(3) 0.2168(2) 0.3616(4)
O2_7 O 0.9760(2) 0.31740(17) 0.1844(2)
O10_7 O 0.7845(2) 0.1370(2) 0.3045(3)
O13_7 O 0.8132(3) 0.1525(2) 0.3752(3)
O14_7 O 0.9440(2) 0.3029(2) 0.1150(3)
C1_7 C 0.9020(3) 0.4042(2) 0.4331(3)
H1_7 H 0.8826 0.4204 0.4168
C2_7 C 0.9059(3) 0.4063(3) 0.4834(3)
C4_7 C 0.9277(3) 0.3774(2) 0.4076(3)
C5_7 C 0.8822(3) 0.4367(3) 0.5113(4)
C6_7 C 0.9276(3) 0.3764(3) 0.3559(3)
H2_7 H 0.9094 0.3935 0.3394
C7_7 C 0.9841(3) 0.3276(3) 0.3560(3)
C10_7 C 0.8964(3) 0.2372(3) 0.2578(4)
C11_7 C 0.9520(3) 0.3525(3) 0.3305(4)
H4_7 H 0.9491 0.3513 0.2970
C13_7 C 0.9833(3) 0.3272(3) 0.4039(4)
C14_7 C 0.9228(3) 0.2661(3) 0.1850(4)
C16_7 C 0.9230(3) 0.2649(3) 0.2332(4)
H7_7 H 0.9404 0.2820 0.2508
C19_7 C 0.9566(3) 0.3526(3) 0.4319(4)
C22_7 C 0.8439(4) 0.1853(3) 0.2563(4)
H9_7 H 0.8260 0.1689 0.2383
C23_7 C 0.8714(4) 0.2110(3) 0.2315(4)
C25_7 C 0.8423(3) 0.1834(3) 0.3051(4)
C26_7 C 0.9493(3) 0.2972(3) 0.1595(4)
C27_7 C 0.9584(4) 0.3546(3) 0.4831(3)
H11_7 H 0.9762 0.3371 0.4996
C28_7 C 0.9990(4) 0.1840(3) 0.2109(5)
C30_7 C 0.8694(4) 0.2082(3) 0.3324(4)
H13_7 H 0.8688 0.2073 0.3661
C31_7 C 0.8118(4) 0.1552(3) 0.3292(4)
C34_7 C 0.8984(4) 0.2406(3) 0.1578(5)
H14_7 H 0.8993 0.2418 0.1241
C35_7 C 0.8967(4) 0.2336(3) 0.3090(4)
H15_7 H 0.9158 0.2488 0.3271
C36_7 C 0.9356(3) 0.3803(3) 0.5089(4)
H16_7 H 0.9387 0.3817 0.5424
C37_7 C 0.9532(4) 0.1212(4) 0.1758(5)
C39_7 C 0.8971(4) 0.0512(4) 0.0809(7)
C40_7 C 0.8734(4) 0.2141(4) 0.1799(5)
H18_7 H 0.8568 0.1972 0.1611
C41_7 C 0.9767(5) 0.1572(3) 0.2421(5)
H19_7 H 0.9763 0.1611 0.2754
C42_7 C 0.9942(4) 0.1815(3) 0.1619(5)
C43_7 C 0.9699(4) 0.1486(3) 0.1438(4)
C44_7 C 0.9553(6) 0.1246(5) 0.2217(7)
H21_7 H 0.9428 0.1059 0.2416
C45_7 C 0.9263(4) 0.0841(4) 0.1064(5)
C46_7 C 0.9427(5) 0.1107(4) 0.0744(6)
H22_7 H 0.9381 0.1087 0.0411
C47_7 C 0.9683(6) 0.1431(5) 0.0957(7)
H23_7 H 0.9835 0.1599 0.0754
C48_7 C 0.9276(5) 0.0876(4) 0.1532(5)
H24_7 H 0.9131 0.0698 0.1729
Cd3_7 Cd 0.75294(2) 0.10628(2) 0.36871(2)
O20_5 O 0.9655(2) 0.3870(2) 0.0545(3)
O22_5 O 0.9368(3) 0.4025(2) 0.1252(3)
O1_7 O 0.64712(19) 0.04291(16) 0.4888(2)
O2_8 O 0.5240(2) 0.18260(17) 0.1844(2)
O4_8 O 0.4709(2) 0.25286(18) 0.2078(2)
O5_8 O 0.4560(2) 0.10241(19) 0.1489(2)
O6_8 O 0.4847(2) 0.19428(19) 0.2826(2)
O7_8 O 0.4589(2) 0.21824(19) 0.3519(3)
O8_7 O 0.6090(2) 0.0564(2) 0.5538(3)
O9_8 O 0.4499(2) 0.13713(16) 0.2177(2)
O12_8 O 0.4597(2) 0.28976(19) 0.2736(3)
O14_8 O 0.5560(2) 0.1971(2) 0.1150(3)
O15_5 O 0.6010(3) 0.4554(2) 0.0394(3)
C1_8 C 0.5980(3) 0.0958(2) 0.4331(3)
H1_8 H 0.6174 0.0796 0.4168
O16_5 O 0.6276(3) 0.4668(2) 0.1116(4)
C2_8 C 0.5941(3) 0.0937(3) 0.4834(3)
C4_8 C 0.5723(3) 0.1226(2) 0.4076(3)
C5_8 C 0.6178(3) 0.0633(3) 0.5113(4)
C6_8 C 0.5724(3) 0.1236(3) 0.3559(3)
H2_8 H 0.5906 0.1065 0.3394
C7_8 C 0.5159(3) 0.1724(3) 0.3560(3)
C10_8 C 0.6036(3) 0.2628(3) 0.2578(4)
C11_8 C 0.5480(3) 0.1475(3) 0.3305(4)
H4_8 H 0.5509 0.1487 0.2970
C12_8 C 0.3961(3) 0.0477(3) 0.1849(4)
H5_8 H 0.4009 0.0487 0.1517
C13_8 C 0.5167(3) 0.1728(3) 0.4039(4)
H6_8 H 0.4989 0.1905 0.4201
C14_8 C 0.5772(3) 0.2339(3) 0.1850(4)
C15_8 C 0.4148(3) 0.0758(3) 0.2146(4)
C16_8 C 0.5770(3) 0.2351(3) 0.2332(4)
H7_8 H 0.5596 0.2180 0.2508
C17_8 C 0.4839(3) 0.1973(3) 0.3274(4)
C18_8 C 0.4422(3) 0.1084(3) 0.1924(4)
C19_8 C 0.5434(3) 0.1474(3) 0.4319(4)
C20_8 C 0.3868(3) 0.0429(3) 0.2855(4)
C21_8 C 0.4117(3) 0.0737(3) 0.2622(4)
H8_8 H 0.4256 0.0923 0.2812
C22_8 C 0.6561(4) 0.3147(3) 0.2563(4)
H9_8 H 0.6740 0.3311 0.2383
C23_8 C 0.6286(4) 0.2890(3) 0.2315(4)
C24_8 C 0.3710(4) 0.0186(3) 0.2036(4)
H10_8 H 0.3570 0.0012 0.1830
C25_8 C 0.6577(3) 0.3166(3) 0.3051(4)
C26_8 C 0.5507(3) 0.2028(3) 0.1595(4)
C27_8 C 0.5416(4) 0.1454(3) 0.4831(3)
H11_8 H 0.5238 0.1629 0.4996
C28_8 C 0.5010(4) 0.3160(3) 0.2109(5)
C29_8 C 0.3591(4) 0.0110(3) 0.3567(4)
H12_8 H 0.3568 0.0094 0.3902
C30_8 C 0.6306(4) 0.2918(3) 0.3324(4)
H13_8 H 0.6312 0.2927 0.3661
C31_8 C 0.6882(4) 0.3448(3) 0.3292(4)
C32_8 C 0.3663(4) 0.0151(3) 0.2553(3)
C33_8 C 0.4755(3) 0.2836(3) 0.2313(4)
C34_8 C 0.6016(4) 0.2594(3) 0.1578(5)
H14_8 H 0.6007 0.2582 0.1241
C35_8 C 0.6033(4) 0.2664(3) 0.3090(4)
H15_8 H 0.5842 0.2512 0.3271
C36_8 C 0.5644(3) 0.1197(3) 0.5089(4)
H16_8 H 0.5613 0.1183 0.5424
C37_8 C 0.5468(4) 0.3788(4) 0.1758(5)
C38_8 C 0.3817(4) 0.0395(3) 0.3367(4)
H17_8 H 0.3948 0.0578 0.3566
C39_8 C 0.6029(4) 0.4488(4) 0.0809(7)
C40_8 C 0.6266(4) 0.2859(4) 0.1799(5)
H18_8 H 0.6432 0.3028 0.1611
C41_8 C 0.5233(5) 0.3428(3) 0.2421(5)
H19_8 H 0.5237 0.3389 0.2754
C42_8 C 0.5058(4) 0.3185(3) 0.1619(5)
H20_8 H 0.4939 0.3001 0.1412
C43_8 C 0.5301(4) 0.3514(3) 0.1438(4)
C44_8 C 0.5447(6) 0.3754(5) 0.2217(7)
H21_8 H 0.5572 0.3941 0.2416
C45_8 C 0.5737(4) 0.4159(4) 0.1064(5)
C46_8 C 0.5573(5) 0.3893(4) 0.0744(6)
H22_8 H 0.5619 0.3913 0.0411
C47_8 C 0.5317(6) 0.3569(5) 0.0957(7)
H23_8 H 0.5165 0.3401 0.0754
C48_8 C 0.5724(5) 0.4124(4) 0.1532(5)
H24_8 H 0.5869 0.4302 0.1729
K2_7 K 0.71093(9) 0.05505(8) 0.46299(12)
O18_5 O 0.4392(2) 0.19732(19) 0.1427(2)
O21_5 O 0.4583(2) 0.1773(2) 0.0689(2)
O3_7 O 0.3108(2) 0.94732(19) 0.3927(2)
O11_7 O 0.2917(2) 0.9273(2) 0.3189(2)
C3_8 C 0.3128(3) 0.9501(3) 0.3484(4)
C8_8 C 0.3376(3) 0.9820(3) 0.3262(3)
C9_8 C 0.3422(3) 0.9848(3) 0.2763(4)
H3_8 H 0.3291 0.9664 0.2564
Cd4_7 Cd 0.24706(2) 0.89372(2) 0.36871(2)
K3_7 K 0.28907(9) 0.94495(8) 0.46299(12)
Cd2_6 Cd 0.33911(2) 0.49782(2) 0.05317(2)
O6_9 O 0.2653(2) 0.44428(19) 0.0326(2)
O7_9 O 0.2911(2) 0.46824(19) 0.1019(3)
O10_8 O 0.0345(2) 0.6130(2) 0.0545(3)
O12_9 O 0.2903(2) 0.53976(19) 0.0236(3)
O13_8 O 0.0632(3) 0.5975(2) 0.1252(3)
C1_9 C 0.1520(3) 0.3458(2) 0.1831(3)
H1_9 H 0.1326 0.3296 0.1668
C2_9 C 0.1559(3) 0.3437(3) 0.2334(3)
C3_9 C 0.4372(3) 0.2001(3) 0.0984(4)
C4_9 C 0.1777(3) 0.3726(2) 0.1576(3)
C5_9 C 0.1322(3) 0.3133(3) 0.2613(4)
C6_9 C 0.1776(3) 0.3736(3) 0.1059(3)
H2_9 H 0.1594 0.3565 0.0894
C7_9 C 0.2341(3) 0.4224(3) 0.1060(3)
C8_9 C 0.4124(3) 0.2320(3) 0.0762(3)
C9_9 C 0.4078(3) 0.2348(3) 0.0263(4)
H3_9 H 0.4209 0.2164 0.0064
C10_9 C 0.1464(3) 0.5128(3) 0.0078(4)
C11_9 C 0.2020(3) 0.3975(3) 0.0805(4)
H4_9 H 0.1991 0.3987 0.0470
C13_9 C 0.2333(3) 0.4228(3) 0.1539(4)
H6_9 H 0.2511 0.4405 0.1701
H7_9 H 0.1904 0.4680 0.0008
C17_9 C 0.2661(3) 0.4473(3) 0.0774(4)
C19_9 C 0.2066(3) 0.3974(3) 0.1819(4)
C20_9 C 0.3632(3) 0.2929(3) 0.0355(4)
C21_9 C 0.3383(3) 0.3237(3) 0.0122(4)
H8_9 H 0.3244 0.3423 0.0312
C22_9 C 0.0939(4) 0.5647(3) 0.0063(4)
C25_9 C 0.0923(3) 0.5666(3) 0.0551(4)
C27_9 C 0.2084(4) 0.3954(3) 0.2331(3)
H11_9 H 0.2262 0.4129 0.2496
C29_9 C 0.3909(4) 0.2610(3) 0.1067(4)
H12_9 H 0.3932 0.2594 0.1402
C30_9 C 0.1194(4) 0.5418(3) 0.0824(4)
H13_9 H 0.1188 0.5427 0.1161
C31_9 C 0.0618(4) 0.5948(3) 0.0792(4)
C32_9 C 0.3837(4) 0.2651(3) 0.0053(3)
C35_9 C 0.1467(4) 0.5164(3) 0.0590(4)
H15_9 H 0.1658 0.5012 0.0771
C36_9 C 0.1856(3) 0.3697(3) 0.2589(4)
H16_9 H 0.1887 0.3683 0.2924
C38_9 C 0.3683(4) 0.2895(3) 0.0867(4)
H17_9 H 0.3552 0.3078 0.1066
H19_9 H 0.2263 0.5889 0.0254
O19_6 O 0.3910(2) 0.4436(2) 0.0538(3)
O23_8 O 0.3990(3) 0.5446(2) 0.0394(3)
O24_8 O 0.3724(3) 0.5332(2) 0.1116(4)
O2_9 O 0.2260(2) 0.43260(17) 0.9344(2)
O4_9 O 0.2791(2) 0.50286(18) 0.9578(2)
O5_9 O 0.2940(2) 0.35241(19) 0.8989(2)
O9_9 O 0.3001(2) 0.38713(16) 0.9677(2)
O14_9 O 0.1940(2) 0.4471(2) 0.8650(3)
C12_9 C 0.3539(3) 0.2977(3) 0.9349(4)
H5_9 H 0.3491 0.2987 0.9017
C14_9 C 0.1728(3) 0.4839(3) 0.9350(4)
C15_9 C 0.3352(3) 0.3258(3) 0.9646(4)
C16_9 C 0.1730(3) 0.4851(3) 0.9832(4)
C18_9 C 0.3078(3) 0.3584(3) 0.9424(4)
H9_9 H 0.0760 0.5811 0.9883
C23_9 C 0.1214(4) 0.5390(3) 0.9815(4)
C24_9 C 0.3790(4) 0.2686(3) 0.9536(4)
H10_9 H 0.3930 0.2512 0.9330
C26_9 C 0.1993(3) 0.4528(3) 0.9095(4)
C28_9 C 0.2490(4) 0.5660(3) 0.9609(5)
C33_9 C 0.2745(3) 0.5336(3) 0.9813(4)
C34_9 C 0.1484(4) 0.5094(3) 0.9078(5)
H14_9 H 0.1493 0.5082 0.8741
C37_9 C 0.2032(4) 0.6288(4) 0.9258(5)
C39_9 C 0.1471(4) 0.6988(4) 0.8309(7)
C40_9 C 0.1234(4) 0.5359(4) 0.9299(5)
H18_9 H 0.1068 0.5528 0.9111
C41_9 C 0.2267(5) 0.5928(3) 0.9921(5)
C42_9 C 0.2442(4) 0.5685(3) 0.9119(5)
H20_9 H 0.2561 0.5501 0.8912
C43_9 C 0.2199(4) 0.6014(3) 0.8938(4)
C44_9 C 0.2053(6) 0.6254(5) 0.9717(7)
H21_9 H 0.1928 0.6441 0.9916
C45_9 C 0.1763(4) 0.6659(4) 0.8564(5)
C46_9 C 0.1927(5) 0.6393(4) 0.8244(6)
H22_9 H 0.1881 0.6413 0.7911
C47_9 C 0.2183(6) 0.6069(5) 0.8457(7)
H23_9 H 0.2335 0.5901 0.8254
C48_9 C 0.1776(5) 0.6624(4) 0.9032(5)
H24_9 H 0.1631 0.6802 0.9229
O17_6 O 0.35288(19) 0.45709(16) 0.9888(2)
O20_6 O 0.2155(2) 0.3630(2) 0.8045(3)
O22_6 O 0.1868(3) 0.3475(2) 0.8752(3)
O1_8 O 0.89712(19) 0.70709(16) 0.2388(2)
O3_8 O 0.5608(2) 0.80268(19) 0.1427(2)
O6_10 O 0.7347(2) 0.55572(19) 0.0326(2)
O7_10 O 0.7089(2) 0.53176(19) 0.1019(3)
O8_8 O 0.8590(2) 0.6936(2) 0.3038(3)
O11_8 O 0.5417(2) 0.8227(2) 0.0689(2)
O12_10 O 0.7097(2) 0.46024(19) 0.0236(3)
C1_10 C 0.8480(3) 0.6542(2) 0.1831(3)
H1_10 H 0.8674 0.6704 0.1668
C2_10 C 0.8441(3) 0.6563(3) 0.2334(3)
C3_10 C 0.5628(3) 0.7999(3) 0.0984(4)
C4_10 C 0.8223(3) 0.6274(2) 0.1576(3)
C5_10 C 0.8678(3) 0.6867(3) 0.2613(4)
C6_10 C 0.8224(3) 0.6264(3) 0.1059(3)
H2_10 H 0.8406 0.6435 0.0894
C7_10 C 0.7659(3) 0.5776(3) 0.1060(3)
C8_10 C 0.5876(3) 0.7680(3) 0.0762(3)
C9_10 C 0.5922(3) 0.7652(3) 0.0263(4)
H3_10 H 0.5791 0.7836 0.0064
C10_10 C 0.8536(3) 0.4872(3) 0.0078(4)
C11_10 C 0.7980(3) 0.6025(3) 0.0805(4)
H4_10 H 0.8009 0.6013 0.0470
C13_10 C 0.7667(3) 0.5772(3) 0.1539(4)
H6_10 H 0.7489 0.5595 0.1701
H7_10 H 0.8096 0.5320 0.0008
C17_10 C 0.7339(3) 0.5527(3) 0.0774(4)
C19_10 C 0.7934(3) 0.6026(3) 0.1819(4)
C20_10 C 0.6368(3) 0.7071(3) 0.0355(4)
C21_10 C 0.6617(3) 0.6763(3) 0.0122(4)
H8_10 H 0.6756 0.6577 0.0312
C22_10 C 0.9061(4) 0.4353(3) 0.0063(4)
C25_10 C 0.9077(3) 0.4334(3) 0.0551(4)
C27_10 C 0.7916(4) 0.6046(3) 0.2331(3)
H11_10 H 0.7738 0.5871 0.2496
C29_10 C 0.6091(4) 0.7390(3) 0.1067(4)
H12_10 H 0.6068 0.7406 0.1402
C30_10 C 0.8806(4) 0.4582(3) 0.0824(4)
H13_10 H 0.8812 0.4573 0.1161
C31_10 C 0.9382(4) 0.4052(3) 0.0792(4)
C32_10 C 0.6163(4) 0.7349(3) 0.0053(3)
C35_10 C 0.8533(4) 0.4836(3) 0.0590(4)
H15_10 H 0.8342 0.4988 0.0771
C36_10 C 0.8144(3) 0.6303(3) 0.2589(4)
H16_10 H 0.8113 0.6317 0.2924
C38_10 C 0.6317(4) 0.7105(3) 0.0867(4)
H17_10 H 0.6448 0.6922 0.1066
H19_10 H 0.7737 0.4111 0.0254
Cd6_5 Cd 0.91089(2) 0.74782(2) 0.30317(2)
O2_10 O 0.7740(2) 0.56740(17) 0.9344(2)
O4_10 O 0.7209(2) 0.49714(18) 0.9578(2)
O5_10 O 0.7060(2) 0.64759(19) 0.8989(2)
O9_10 O 0.6999(2) 0.61287(16) 0.9677(2)
O14_10 O 0.8060(2) 0.5529(2) 0.8650(3)
O15_6 O 0.8510(3) 0.2946(2) 0.7894(3)
O16_6 O 0.8776(3) 0.2832(2) 0.8616(4)
C12_10 C 0.6461(3) 0.7023(3) 0.9349(4)
H5_10 H 0.6509 0.7013 0.9017
C14_10 C 0.8272(3) 0.5161(3) 0.9350(4)
C15_10 C 0.6648(3) 0.6742(3) 0.9646(4)
C16_10 C 0.8270(3) 0.5149(3) 0.9832(4)
C18_10 C 0.6922(3) 0.6416(3) 0.9424(4)
H9_10 H 0.9240 0.4189 0.9883
C23_10 C 0.8786(4) 0.4610(3) 0.9815(4)
C24_10 C 0.6210(4) 0.7314(3) 0.9536(4)
H10_10 H 0.6070 0.7488 0.9330
C26_10 C 0.8007(3) 0.5472(3) 0.9095(4)
C28_10 C 0.7510(4) 0.4340(3) 0.9609(5)
C33_10 C 0.7255(3) 0.4664(3) 0.9813(4)
C34_10 C 0.8516(4) 0.4906(3) 0.9078(5)
H14_10 H 0.8507 0.4918 0.8741
C37_10 C 0.7968(4) 0.3712(4) 0.9258(5)
C39_10 C 0.8529(4) 0.3012(4) 0.8309(7)
C40_10 C 0.8766(4) 0.4641(4) 0.9299(5)
H18_10 H 0.8932 0.4472 0.9111
C41_10 C 0.7733(5) 0.4072(3) 0.9921(5)
C42_10 C 0.7558(4) 0.4315(3) 0.9119(5)
H20_10 H 0.7439 0.4499 0.8912
C43_10 C 0.7801(4) 0.3986(3) 0.8938(4)
C44_10 C 0.7947(6) 0.3746(5) 0.9717(7)
H21_10 H 0.8072 0.3559 0.9916
C45_10 C 0.8237(4) 0.3341(4) 0.8564(5)
C46_10 C 0.8073(5) 0.3607(4) 0.8244(6)
H22_10 H 0.8119 0.3587 0.7911
C47_10 C 0.7817(6) 0.3931(5) 0.8457(7)
H23_10 H 0.7665 0.4099 0.8254
C48_10 C 0.8224(5) 0.3376(4) 0.9032(5)
H24_10 H 0.8369 0.3198 0.9229
Cd5_4 Cd 0.91089(2) 0.24782(2) 0.80317(2)
O18_6 O 0.6892(2) 0.55268(19) 0.8927(2)
O21_6 O 0.7083(2) 0.5727(2) 0.8189(2)
O3_9 O 0.6892(2) 0.05268(19) 0.3927(2)
O11_9 O 0.7083(2) 0.0727(2) 0.3189(2)
C3_11 C 0.6872(3) 0.0499(3) 0.3484(4)
C8_11 C 0.6624(3) 0.0180(3) 0.3262(3)
C9_11 C 0.6578(3) 0.0152(3) 0.2763(4)
H3_11 H 0.6709 0.0336 0.2564
O1_9 O 0.35288(19) 0.95709(16) 0.4888(2)
O2_11 O 0.4760(2) 0.81740(17) 0.1844(2)
O4_11 O 0.5291(2) 0.74714(18) 0.2078(2)
O5_11 O 0.5440(2) 0.89759(19) 0.1489(2)
O6_11 O 0.5153(2) 0.80572(19) 0.2826(2)
O7_11 O 0.5411(2) 0.78176(19) 0.3519(3)
O8_9 O 0.3910(2) 0.9436(2) 0.5538(3)
O9_11 O 0.5501(2) 0.86287(16) 0.2177(2)
O12_11 O 0.5403(2) 0.71024(19) 0.2736(3)
O14_11 O 0.4440(2) 0.8029(2) 0.1150(3)
C1_11 C 0.4020(3) 0.9042(2) 0.4331(3)
H1_11 H 0.3826 0.9204 0.4168
C2_11 C 0.4059(3) 0.9063(3) 0.4834(3)
C4_11 C 0.4277(3) 0.8774(2) 0.4076(3)
C5_11 C 0.3822(3) 0.9367(3) 0.5113(4)
C6_11 C 0.4276(3) 0.8764(3) 0.3559(3)
H2_11 H 0.4094 0.8935 0.3394
C7_11 C 0.4841(3) 0.8276(3) 0.3560(3)
C10_11 C 0.3964(3) 0.7372(3) 0.2578(4)
C11_11 C 0.4520(3) 0.8525(3) 0.3305(4)
H4_11 H 0.4491 0.8513 0.2970
C12_11 C 0.6039(3) 0.9523(3) 0.1849(4)
H5_11 H 0.5991 0.9513 0.1517
C13_11 C 0.4833(3) 0.8272(3) 0.4039(4)
H6_11 H 0.5011 0.8095 0.4201
C14_11 C 0.4228(3) 0.7661(3) 0.1850(4)
C15_11 C 0.5852(3) 0.9242(3) 0.2146(4)
C16_11 C 0.4230(3) 0.7649(3) 0.2332(4)
H7_11 H 0.4404 0.7820 0.2508
C17_11 C 0.5161(3) 0.8027(3) 0.3274(4)
C18_11 C 0.5578(3) 0.8916(3) 0.1924(4)
C19_11 C 0.4566(3) 0.8526(3) 0.4319(4)
C20_11 C 0.6132(3) 0.9571(3) 0.2855(4)
C21_11 C 0.5883(3) 0.9263(3) 0.2622(4)
H8_11 H 0.5744 0.9077 0.2812
C22_11 C 0.3439(4) 0.6853(3) 0.2563(4)
H9_11 H 0.3260 0.6689 0.2383
C23_11 C 0.3714(4) 0.7110(3) 0.2315(4)
C24_11 C 0.6290(4) 0.9814(3) 0.2036(4)
H10_11 H 0.6430 0.9988 0.1830
C25_11 C 0.3423(3) 0.6834(3) 0.3051(4)
C26_11 C 0.4493(3) 0.7972(3) 0.1595(4)
C27_11 C 0.4584(4) 0.8546(3) 0.4831(3)
H11_11 H 0.4762 0.8371 0.4996
C28_11 C 0.4990(4) 0.6840(3) 0.2109(5)
C29_11 C 0.6409(4) 0.9890(3) 0.3567(4)
H12_11 H 0.6432 0.9906 0.3902
C30_11 C 0.3694(4) 0.7082(3) 0.3324(4)
H13_11 H 0.3688 0.7073 0.3661
C31_11 C 0.3118(4) 0.6552(3) 0.3292(4)
C32_11 C 0.6337(4) 0.9849(3) 0.2553(3)
C33_11 C 0.5245(3) 0.7164(3) 0.2313(4)
C34_11 C 0.3984(4) 0.7406(3) 0.1578(5)
H14_11 H 0.3993 0.7418 0.1241
C35_11 C 0.3967(4) 0.7336(3) 0.3090(4)
H15_11 H 0.4158 0.7488 0.3271
C36_11 C 0.4356(3) 0.8803(3) 0.5089(4)
H16_11 H 0.4387 0.8817 0.5424
C37_11 C 0.4532(4) 0.6212(4) 0.1758(5)
C38_11 C 0.6183(4) 0.9605(3) 0.3367(4)
H17_11 H 0.6052 0.9422 0.3566
C39_11 C 0.3971(4) 0.5512(4) 0.0809(7)
C40_11 C 0.3734(4) 0.7141(4) 0.1799(5)
H18_11 H 0.3568 0.6972 0.1611
C41_11 C 0.4767(5) 0.6572(3) 0.2421(5)
H19_11 H 0.4763 0.6611 0.2754
C42_11 C 0.4942(4) 0.6815(3) 0.1619(5)
H20_11 H 0.5061 0.6999 0.1412
C43_11 C 0.4699(4) 0.6486(3) 0.1438(4)
C44_11 C 0.4553(6) 0.6246(5) 0.2217(7)
H21_11 H 0.4428 0.6059 0.2416
C45_11 C 0.4263(4) 0.5841(4) 0.1064(5)
C46_11 C 0.4427(5) 0.6107(4) 0.0744(6)
H22_11 H 0.4381 0.6087 0.0411
C47_11 C 0.4683(6) 0.6431(5) 0.0957(7)
H23_11 H 0.4835 0.6599 0.0754
C48_11 C 0.4276(5) 0.5876(4) 0.1532(5)
H24_11 H 0.4131 0.5698 0.1729
Cd6_6 Cd 0.33911(2) 0.99782(2) 0.55317(2)
O2_12 O 0.0240(2) 0.68260(17) 0.1844(2)
O10_9 O 0.2155(2) 0.8630(2) 0.3045(3)
O13_9 O 0.1868(3) 0.8475(2) 0.3752(3)
O14_12 O 0.0560(2) 0.6971(2) 0.1150(3)
C1_12 C 0.0980(3) 0.5958(2) 0.4331(3)
H1_12 H 0.1174 0.5796 0.4168
C2_12 C 0.0941(3) 0.5937(3) 0.4834(3)
C4_12 C 0.0723(3) 0.6226(2) 0.4076(3)
C5_12 C 0.1178(3) 0.5633(3) 0.5113(4)
C6_12 C 0.0724(3) 0.6236(3) 0.3559(3)
H2_12 H 0.0906 0.6065 0.3394
C7_12 C 0.0159(3) 0.6724(3) 0.3560(3)
C10_12 C 0.1036(3) 0.7628(3) 0.2578(4)
C11_12 C 0.0480(3) 0.6475(3) 0.3305(4)
H4_12 H 0.0509 0.6487 0.2970
C13_12 C 0.0167(3) 0.6728(3) 0.4039(4)
C14_12 C 0.0772(3) 0.7339(3) 0.1850(4)
C16_12 C 0.0770(3) 0.7351(3) 0.2332(4)
H7_12 H 0.0596 0.7180 0.2508
C19_12 C 0.0434(3) 0.6474(3) 0.4319(4)
C22_12 C 0.1561(4) 0.8147(3) 0.2563(4)
H9_12 H 0.1740 0.8311 0.2383
C23_12 C 0.1286(4) 0.7890(3) 0.2315(4)
C25_12 C 0.1577(3) 0.8166(3) 0.3051(4)
C26_12 C 0.0507(3) 0.7028(3) 0.1595(4)
C27_12 C 0.0416(4) 0.6454(3) 0.4831(3)
H11_12 H 0.0238 0.6629 0.4996
C28_12 C 0.0010(4) 0.8160(3) 0.2109(5)
C30_12 C 0.1306(4) 0.7918(3) 0.3324(4)
H13_12 H 0.1312 0.7927 0.3661
C31_12 C 0.1882(4) 0.8448(3) 0.3292(4)
C34_12 C 0.1016(4) 0.7594(3) 0.1578(5)
H14_12 H 0.1007 0.7582 0.1241
C35_12 C 0.1033(4) 0.7664(3) 0.3090(4)
H15_12 H 0.0842 0.7512 0.3271
C36_12 C 0.0644(3) 0.6197(3) 0.5089(4)
H16_12 H 0.0613 0.6183 0.5424
C37_12 C 0.0468(4) 0.8788(4) 0.1758(5)
C39_12 C 0.1029(4) 0.9488(4) 0.0809(7)
C40_12 C 0.1266(4) 0.7859(4) 0.1799(5)
H18_12 H 0.1432 0.8028 0.1611
C41_12 C 0.0233(5) 0.8428(3) 0.2421(5)
H19_12 H 0.0237 0.8389 0.2754
C42_12 C 0.0058(4) 0.8185(3) 0.1619(5)
C43_12 C 0.0301(4) 0.8514(3) 0.1438(4)
C44_12 C 0.0447(6) 0.8754(5) 0.2217(7)
H21_12 H 0.0572 0.8941 0.2416
C45_12 C 0.0737(4) 0.9159(4) 0.1064(5)
C46_12 C 0.0573(5) 0.8893(4) 0.0744(6)
H22_12 H 0.0619 0.8913 0.0411
C47_12 C 0.0317(6) 0.8569(5) 0.0957(7)
H23_12 H 0.0165 0.8401 0.0754
C48_12 C 0.0724(5) 0.9124(4) 0.1532(5)
H24_12 H 0.0869 0.9302 0.1729
O4_12 O 0.9709(2) 0.75286(18) 0.2078(2)
O5_12 O 0.9560(2) 0.60241(19) 0.1489(2)
O6_12 O 0.9847(2) 0.69428(19) 0.2826(2)
O7_12 O 0.9589(2) 0.71824(19) 0.3519(3)
O9_12 O 0.9499(2) 0.63713(16) 0.2177(2)
O12_12 O 0.9597(2) 0.78976(19) 0.2736(3)
C3_12 C 0.8128(3) 0.4501(3) 0.3484(4)
C8_12 C 0.8376(3) 0.4820(3) 0.3262(3)
C9_12 C 0.8422(3) 0.4848(3) 0.2763(4)
H3_12 H 0.8291 0.4664 0.2564
C12_12 C 0.8961(3) 0.5477(3) 0.1849(4)
H5_12 H 0.9009 0.5487 0.1517
H6_12 H 0.9989 0.6905 0.4201
C15_12 C 0.9148(3) 0.5758(3) 0.2146(4)
C17_12 C 0.9839(3) 0.6973(3) 0.3274(4)
C18_12 C 0.9422(3) 0.6084(3) 0.1924(4)
C20_12 C 0.8868(3) 0.5429(3) 0.2855(4)
C21_12 C 0.9117(3) 0.5737(3) 0.2622(4)
H8_12 H 0.9256 0.5923 0.2812
C24_12 C 0.8710(4) 0.5186(3) 0.2036(4)
H10_12 H 0.8570 0.5012 0.1830
C29_12 C 0.8591(4) 0.5110(3) 0.3567(4)
H12_12 H 0.8568 0.5094 0.3902
C32_12 C 0.8663(4) 0.5151(3) 0.2553(3)
C33_12 C 0.9755(3) 0.7836(3) 0.2313(4)
C38_12 C 0.8817(4) 0.5395(3) 0.3367(4)
H17_12 H 0.8948 0.5578 0.3566
H20_12 H 0.9939 0.8001 0.1412
O23_9 O 0.8510(3) 0.7946(2) 0.2894(3)
O24_9 O 0.8776(3) 0.7832(2) 0.3616(4)
O4_13 O 0.2791(2) 0.00286(18) 0.4578(2)
O10_10 O 0.0345(2) 0.1130(2) 0.5545(3)
O12_13 O 0.2903(2) 0.03976(19) 0.5236(3)
O13_10 O 0.0632(3) 0.0975(2) 0.6252(3)
C10_13 C 0.1464(3) 0.0128(3) 0.5078(4)
C22_13 C 0.0939(4) 0.0647(3) 0.5063(4)
H9_13 H 0.0760 0.0811 0.4883
C23_13 C 0.1214(4) 0.0390(3) 0.4815(4)
C25_13 C 0.0923(3) 0.0666(3) 0.5551(4)
C28_13 C 0.2490(4) 0.0660(3) 0.4609(5)
C30_13 C 0.1194(4) 0.0418(3) 0.5824(4)
H13_13 H 0.1188 0.0427 0.6161
C31_13 C 0.0618(4) 0.0948(3) 0.5792(4)
C33_13 C 0.2745(3) 0.0336(3) 0.4813(4)
C34_13 C 0.1484(4) 0.0094(3) 0.4078(5)
H14_13 H 0.1493 0.0082 0.3741
C35_13 C 0.1467(4) 0.0164(3) 0.5590(4)
H15_13 H 0.1658 0.0012 0.5771
C37_13 C 0.2032(4) 0.1288(4) 0.4258(5)
C39_13 C 0.1471(4) 0.1988(4) 0.3309(7)
C40_13 C 0.1234(4) 0.0359(4) 0.4299(5)
H18_13 H 0.1068 0.0528 0.4111
C41_13 C 0.2267(5) 0.0928(3) 0.4921(5)
H19_13 H 0.2263 0.0889 0.5254
C42_13 C 0.2442(4) 0.0685(3) 0.4119(5)
H20_13 H 0.2561 0.0501 0.3912
C43_13 C 0.2199(4) 0.1014(3) 0.3938(4)
C44_13 C 0.2053(6) 0.1254(5) 0.4717(7)
H21_13 H 0.1928 0.1441 0.4916
C45_13 C 0.1763(4) 0.1659(4) 0.3564(5)
C46_13 C 0.1927(5) 0.1393(4) 0.3244(6)
H22_13 H 0.1881 0.1413 0.2911
C47_13 C 0.2183(6) 0.1069(5) 0.3457(7)
H23_13 H 0.2335 0.0901 0.3254
C48_13 C 0.1776(5) 0.1624(4) 0.4032(5)
H24_13 H 0.1631 0.1802 0.4229
O23_10 O 0.3990(3) 0.0446(2) 0.5394(3)
O24_10 O 0.3724(3) 0.0332(2) 0.6116(4)
O2_13 O 0.2260(2) 0.93260(17) 0.4344(2)
O5_13 O 0.2940(2) 0.85241(19) 0.3989(2)
O6_13 O 0.2653(2) 0.94428(19) 0.5326(2)
O7_13 O 0.2911(2) 0.96824(19) 0.6019(3)
O9_13 O 0.3001(2) 0.88713(16) 0.4677(2)
O14_13 O 0.1940(2) 0.9471(2) 0.3650(3)
C1_13 C 0.1520(3) 0.8458(2) 0.6831(3)
H1_13 H 0.1326 0.8296 0.6668
C2_13 C 0.1559(3) 0.8437(3) 0.7334(3)
C3_13 C 0.4372(3) 0.7001(3) 0.5984(4)
C4_13 C 0.1777(3) 0.8726(2) 0.6576(3)
C5_13 C 0.1322(3) 0.8133(3) 0.7613(4)
C6_13 C 0.1776(3) 0.8736(3) 0.6059(3)
H2_13 H 0.1594 0.8565 0.5894
C7_13 C 0.2341(3) 0.9224(3) 0.6060(3)
C8_13 C 0.4124(3) 0.7320(3) 0.5762(3)
C9_13 C 0.4078(3) 0.7348(3) 0.5263(4)
H3_13 H 0.4209 0.7164 0.5064
C11_13 C 0.2020(3) 0.8975(3) 0.5805(4)
H4_13 H 0.1991 0.8987 0.5470
C12_13 C 0.3539(3) 0.7977(3) 0.4349(4)
H5_13 H 0.3491 0.7987 0.4017
C13_13 C 0.2333(3) 0.9228(3) 0.6539(4)
H6_13 H 0.2511 0.9405 0.6701
C14_13 C 0.1728(3) 0.9839(3) 0.4350(4)
C15_13 C 0.3352(3) 0.8258(3) 0.4646(4)
C16_13 C 0.1730(3) 0.9851(3) 0.4832(4)
H7_13 H 0.1904 0.9680 0.5008
C17_13 C 0.2661(3) 0.9473(3) 0.5774(4)
C18_13 C 0.3078(3) 0.8584(3) 0.4424(4)
C19_13 C 0.2066(3) 0.8974(3) 0.6819(4)
C20_13 C 0.3632(3) 0.7929(3) 0.5355(4)
C21_13 C 0.3383(3) 0.8237(3) 0.5122(4)
H8_13 H 0.3244 0.8423 0.5312
C24_13 C 0.3790(4) 0.7686(3) 0.4536(4)
H10_13 H 0.3930 0.7512 0.4330
C26_13 C 0.1993(3) 0.9528(3) 0.4095(4)
C27_13 C 0.2084(4) 0.8954(3) 0.7331(3)
H11_13 H 0.2262 0.9129 0.7496
C29_13 C 0.3909(4) 0.7610(3) 0.6067(4)
H12_13 H 0.3932 0.7594 0.6402
C32_13 C 0.3837(4) 0.7651(3) 0.5053(3)
C36_13 C 0.1856(3) 0.8697(3) 0.7589(4)
H16_13 H 0.1887 0.8683 0.7924
C38_13 C 0.3683(4) 0.7895(3) 0.5867(4)
H17_13 H 0.3552 0.8078 0.6066
O1_10 O 0.89712(19) 0.20709(16) 0.7388(2)
O2_14 O 0.7740(2) 0.06740(17) 0.4344(2)
O3_10 O 0.5608(2) 0.30268(19) 0.6427(2)
O5_14 O 0.7060(2) 0.14759(19) 0.3989(2)
O6_14 O 0.7347(2) 0.05572(19) 0.5326(2)
O7_14 O 0.7089(2) 0.03176(19) 0.6019(3)
O8_10 O 0.8590(2) 0.1936(2) 0.8038(3)
O9_14 O 0.6999(2) 0.11287(16) 0.4677(2)
O11_10 O 0.5417(2) 0.3227(2) 0.5689(2)
O14_14 O 0.8060(2) 0.0529(2) 0.3650(3)
C1_14 C 0.8480(3) 0.1542(2) 0.6831(3)
H1_14 H 0.8674 0.1704 0.6668
C2_14 C 0.8441(3) 0.1563(3) 0.7334(3)
C3_14 C 0.5628(3) 0.2999(3) 0.5984(4)
C4_14 C 0.8223(3) 0.1274(2) 0.6576(3)
C5_14 C 0.8678(3) 0.1867(3) 0.7613(4)
C6_14 C 0.8224(3) 0.1264(3) 0.6059(3)
H2_14 H 0.8406 0.1435 0.5894
C7_14 C 0.7659(3) 0.0776(3) 0.6060(3)
C8_14 C 0.5876(3) 0.2680(3) 0.5762(3)
C9_14 C 0.5922(3) 0.2652(3) 0.5263(4)
H3_14 H 0.5791 0.2836 0.5064
C11_14 C 0.7980(3) 0.1025(3) 0.5805(4)
H4_14 H 0.8009 0.1013 0.5470
C12_14 C 0.6461(3) 0.2023(3) 0.4349(4)
H5_14 H 0.6509 0.2013 0.4017
C13_14 C 0.7667(3) 0.0772(3) 0.6539(4)
H6_14 H 0.7489 0.0595 0.6701
C14_14 C 0.8272(3) 0.0161(3) 0.4350(4)
C15_14 C 0.6648(3) 0.1742(3) 0.4646(4)
C16_14 C 0.8270(3) 0.0149(3) 0.4832(4)
H7_14 H 0.8096 0.0320 0.5008
C17_14 C 0.7339(3) 0.0527(3) 0.5774(4)
C18_14 C 0.6922(3) 0.1416(3) 0.4424(4)
C19_14 C 0.7934(3) 0.1026(3) 0.6819(4)
C20_14 C 0.6368(3) 0.2071(3) 0.5355(4)
C21_14 C 0.6617(3) 0.1763(3) 0.5122(4)
H8_14 H 0.6756 0.1577 0.5312
C24_14 C 0.6210(4) 0.2314(3) 0.4536(4)
H10_14 H 0.6070 0.2488 0.4330
C26_14 C 0.8007(3) 0.0472(3) 0.4095(4)
C27_14 C 0.7916(4) 0.1046(3) 0.7331(3)
H11_14 H 0.7738 0.0871 0.7496
C29_14 C 0.6091(4) 0.2390(3) 0.6067(4)
H12_14 H 0.6068 0.2406 0.6402
C32_14 C 0.6163(4) 0.2349(3) 0.5053(3)
C36_14 C 0.8144(3) 0.1303(3) 0.7589(4)
H16_14 H 0.8113 0.1317 0.7924
C38_14 C 0.6317(4) 0.2105(3) 0.5867(4)
H17_14 H 0.6448 0.1922 0.6066
O4_14 O 0.7209(2) 0.99714(18) 0.4578(2)
O12_14 O 0.7097(2) 0.96024(19) 0.5236(3)
C10_14 C 0.8536(3) 0.9872(3) 0.5078(4)
C22_14 C 0.9061(4) 0.9353(3) 0.5063(4)
H9_14 H 0.9240 0.9189 0.4883
C23_14 C 0.8786(4) 0.9610(3) 0.4815(4)
C25_14 C 0.9077(3) 0.9334(3) 0.5551(4)
C28_14 C 0.7510(4) 0.9340(3) 0.4609(5)
C30_14 C 0.8806(4) 0.9582(3) 0.5824(4)
H13_14 H 0.8812 0.9573 0.6161
C31_14 C 0.9382(4) 0.9052(3) 0.5792(4)
C33_14 C 0.7255(3) 0.9664(3) 0.4813(4)
C34_14 C 0.8516(4) 0.9906(3) 0.4078(5)
H14_14 H 0.8507 0.9918 0.3741
C35_14 C 0.8533(4) 0.9836(3) 0.5590(4)
H15_14 H 0.8342 0.9988 0.5771
C37_14 C 0.7968(4) 0.8712(4) 0.4258(5)
C39_14 C 0.8529(4) 0.8012(4) 0.3309(7)
C40_14 C 0.8766(4) 0.9641(4) 0.4299(5)
H18_14 H 0.8932 0.9472 0.4111
C41_14 C 0.7733(5) 0.9072(3) 0.4921(5)
H19_14 H 0.7737 0.9111 0.5254
C42_14 C 0.7558(4) 0.9315(3) 0.4119(5)
H20_14 H 0.7439 0.9499 0.3912
C43_14 C 0.7801(4) 0.8986(3) 0.3938(4)
C44_14 C 0.7947(6) 0.8746(5) 0.4717(7)
H21_14 H 0.8072 0.8559 0.4916
C45_14 C 0.8237(4) 0.8341(4) 0.3564(5)
C46_14 C 0.8073(5) 0.8607(4) 0.3244(6)
H22_14 H 0.8119 0.8587 0.2911
C47_14 C 0.7817(6) 0.8931(5) 0.3457(7)
H23_14 H 0.7665 0.9099 0.3254
C48_14 C 0.8224(5) 0.8376(4) 0.4032(5)
H24_14 H 0.8369 0.8198 0.4229
C5_15 C 0.3822(3) 0.4367(3) 0.0113(4)
C36_15 C 0.4356(3) 0.3803(3) 0.0089(4)
H16_15 H 0.4387 0.3817 0.0424
O2_15 O 0.4760(2) 0.31740(17) 0.6844(2)
O4_15 O 0.5291(2) 0.24714(18) 0.7078(2)
O5_15 O 0.5440(2) 0.39759(19) 0.6489(2)
O6_15 O 0.5153(2) 0.30572(19) 0.7826(2)
O7_15 O 0.5411(2) 0.28176(19) 0.8519(3)
O9_15 O 0.5501(2) 0.36287(16) 0.7177(2)
O12_15 O 0.5403(2) 0.21024(19) 0.7736(3)
O14_15 O 0.4440(2) 0.3029(2) 0.6150(3)
C1_15 C 0.4020(3) 0.4042(2) 0.9331(3)
H1_15 H 0.3826 0.4204 0.9168
C2_15 C 0.4059(3) 0.4063(3) 0.9834(3)
C3_15 C 0.6872(3) 0.5499(3) 0.8484(4)
C4_15 C 0.4277(3) 0.3774(2) 0.9076(3)
C6_15 C 0.4276(3) 0.3764(3) 0.8559(3)
H2_15 H 0.4094 0.3935 0.8394
C7_15 C 0.4841(3) 0.3276(3) 0.8560(3)
C8_15 C 0.6624(3) 0.5180(3) 0.8262(3)
C9_15 C 0.6578(3) 0.5152(3) 0.7763(4)
H3_15 H 0.6709 0.5336 0.7564
C10_15 C 0.3964(3) 0.2372(3) 0.7578(4)
C11_15 C 0.4520(3) 0.3525(3) 0.8305(4)
H4_15 H 0.4491 0.3513 0.7970
C12_15 C 0.6039(3) 0.4523(3) 0.6849(4)
H5_15 H 0.5991 0.4513 0.6517
C13_15 C 0.4833(3) 0.3272(3) 0.9039(4)
H6_15 H 0.5011 0.3095 0.9201
C14_15 C 0.4228(3) 0.2661(3) 0.6850(4)
C15_15 C 0.5852(3) 0.4242(3) 0.7146(4)
C16_15 C 0.4230(3) 0.2649(3) 0.7332(4)
H7_15 H 0.4404 0.2820 0.7508
C17_15 C 0.5161(3) 0.3027(3) 0.8274(4)
C18_15 C 0.5578(3) 0.3916(3) 0.6924(4)
C19_15 C 0.4566(3) 0.3526(3) 0.9319(4)
C20_15 C 0.6132(3) 0.4571(3) 0.7855(4)
C21_15 C 0.5883(3) 0.4263(3) 0.7622(4)
H8_15 H 0.5744 0.4077 0.7812
C22_15 C 0.3439(4) 0.1853(3) 0.7563(4)
H9_15 H 0.3260 0.1689 0.7383
C23_15 C 0.3714(4) 0.2110(3) 0.7315(4)
C24_15 C 0.6290(4) 0.4814(3) 0.7036(4)
H10_15 H 0.6430 0.4988 0.6830
C25_15 C 0.3423(3) 0.1834(3) 0.8051(4)
C26_15 C 0.4493(3) 0.2972(3) 0.6595(4)
C27_15 C 0.4584(4) 0.3546(3) 0.9831(3)
H11_15 H 0.4762 0.3371 0.9996
C28_15 C 0.4990(4) 0.1840(3) 0.7109(5)
C29_15 C 0.6409(4) 0.4890(3) 0.8567(4)
H12_15 H 0.6432 0.4906 0.8902
C30_15 C 0.3694(4) 0.2082(3) 0.8324(4)
H13_15 H 0.3688 0.2073 0.8661
C31_15 C 0.3118(4) 0.1552(3) 0.8292(4)
C32_15 C 0.6337(4) 0.4849(3) 0.7553(3)
C33_15 C 0.5245(3) 0.2164(3) 0.7313(4)
C34_15 C 0.3984(4) 0.2406(3) 0.6578(5)
H14_15 H 0.3993 0.2418 0.6241
C35_15 C 0.3967(4) 0.2336(3) 0.8090(4)
H15_15 H 0.4158 0.2488 0.8271
C37_15 C 0.4532(4) 0.1212(4) 0.6758(5)
C38_15 C 0.6183(4) 0.4605(3) 0.8367(4)
H17_15 H 0.6052 0.4422 0.8566
C39_15 C 0.3971(4) 0.0512(4) 0.5809(7)
C40_15 C 0.3734(4) 0.2141(4) 0.6799(5)
H18_15 H 0.3568 0.1972 0.6611
C41_15 C 0.4767(5) 0.1572(3) 0.7421(5)
H19_15 H 0.4763 0.1611 0.7754
C42_15 C 0.4942(4) 0.1815(3) 0.6619(5)
H20_15 H 0.5061 0.1999 0.6412
C43_15 C 0.4699(4) 0.1486(3) 0.6438(4)
C44_15 C 0.4553(6) 0.1246(5) 0.7217(7)
H21_15 H 0.4428 0.1059 0.7416
C45_15 C 0.4263(4) 0.0841(4) 0.6064(5)
C46_15 C 0.4427(5) 0.1107(4) 0.5744(6)
H22_15 H 0.4381 0.1087 0.5411
C47_15 C 0.4683(6) 0.1431(5) 0.5957(7)
H23_15 H 0.4835 0.1599 0.5754
C48_15 C 0.4276(5) 0.0876(4) 0.6532(5)
H24_15 H 0.4131 0.0698 0.6729
C5_16 C 0.1178(3) 0.0633(3) 0.0113(4)
C36_16 C 0.0644(3) 0.1197(3) 0.0089(4)
H16_16 H 0.0613 0.1183 0.0424
O2_16 O 0.0240(2) 0.18260(17) 0.6844(2)
O14_16 O 0.0560(2) 0.1971(2) 0.6150(3)
C1_16 C 0.0980(3) 0.0958(2) 0.9331(3)
H1_16 H 0.1174 0.0796 0.9168
C2_16 C 0.0941(3) 0.0937(3) 0.9834(3)
C4_16 C 0.0723(3) 0.1226(2) 0.9076(3)
C6_16 C 0.0724(3) 0.1236(3) 0.8559(3)
H2_16 H 0.0906 0.1065 0.8394
C7_16 C 0.0159(3) 0.1724(3) 0.8560(3)
C10_16 C 0.1036(3) 0.2628(3) 0.7578(4)
C11_16 C 0.0480(3) 0.1475(3) 0.8305(4)
H4_16 H 0.0509 0.1487 0.7970
C13_16 C 0.0167(3) 0.1728(3) 0.9039(4)
C14_16 C 0.0772(3) 0.2339(3) 0.6850(4)
C16_16 C 0.0770(3) 0.2351(3) 0.7332(4)
H7_16 H 0.0596 0.2180 0.7508
C19_16 C 0.0434(3) 0.1474(3) 0.9319(4)
C22_16 C 0.1561(4) 0.3147(3) 0.7563(4)
H9_16 H 0.1740 0.3311 0.7383
C23_16 C 0.1286(4) 0.2890(3) 0.7315(4)
C25_16 C 0.1577(3) 0.3166(3) 0.8051(4)
C26_16 C 0.0507(3) 0.2028(3) 0.6595(4)
C27_16 C 0.0416(4) 0.1454(3) 0.9831(3)
H11_16 H 0.0238 0.1629 0.9996
C28_16 C 0.0010(4) 0.3160(3) 0.7109(5)
C30_16 C 0.1306(4) 0.2918(3) 0.8324(4)
H13_16 H 0.1312 0.2927 0.8661
C31_16 C 0.1882(4) 0.3448(3) 0.8292(4)
C34_16 C 0.1016(4) 0.2594(3) 0.6578(5)
H14_16 H 0.1007 0.2582 0.6241
C35_16 C 0.1033(4) 0.2664(3) 0.8090(4)
H15_16 H 0.0842 0.2512 0.8271
C37_16 C 0.0468(4) 0.3788(4) 0.6758(5)
C39_16 C 0.1029(4) 0.4488(4) 0.5809(7)
C40_16 C 0.1266(4) 0.2859(4) 0.6799(5)
H18_16 H 0.1432 0.3028 0.6611
C41_16 C 0.0233(5) 0.3428(3) 0.7421(5)
H19_16 H 0.0237 0.3389 0.7754
C42_16 C 0.0058(4) 0.3185(3) 0.6619(5)
C43_16 C 0.0301(4) 0.3514(3) 0.6438(4)
C44_16 C 0.0447(6) 0.3754(5) 0.7217(7)
H21_16 H 0.0572 0.3941 0.7416
C45_16 C 0.0737(4) 0.4159(4) 0.6064(5)
C46_16 C 0.0573(5) 0.3893(4) 0.5744(6)
H22_16 H 0.0619 0.3913 0.5411
C47_16 C 0.0317(6) 0.3569(5) 0.5957(7)
H23_16 H 0.0165 0.3401 0.5754
C48_16 C 0.0724(5) 0.4124(4) 0.6532(5)
H24_16 H 0.0869 0.4302 0.6729
O4_16 O 0.9709(2) 0.25286(18) 0.7078(2)
O5_16 O 0.9560(2) 0.10241(19) 0.6489(2)
O6_16 O 0.9847(2) 0.19428(19) 0.7826(2)
O7_16 O 0.9589(2) 0.21824(19) 0.8519(3)
O9_16 O 0.9499(2) 0.13713(16) 0.7177(2)
O12_16 O 0.9597(2) 0.28976(19) 0.7736(3)
C12_16 C 0.8961(3) 0.0477(3) 0.6849(4)
H5_16 H 0.9009 0.0487 0.6517
H6_16 H 0.9989 0.1905 0.9201
C15_16 C 0.9148(3) 0.0758(3) 0.7146(4)
C17_16 C 0.9839(3) 0.1973(3) 0.8274(4)
C18_16 C 0.9422(3) 0.1084(3) 0.6924(4)
C20_16 C 0.8868(3) 0.0429(3) 0.7855(4)
C21_16 C 0.9117(3) 0.0737(3) 0.7622(4)
H8_16 H 0.9256 0.0923 0.7812
C24_16 C 0.8710(4) 0.0186(3) 0.7036(4)
H10_16 H 0.8570 0.0012 0.6830
C29_16 C 0.8591(4) 0.0110(3) 0.8567(4)
H12_16 H 0.8568 0.0094 0.8902
C32_16 C 0.8663(4) 0.0151(3) 0.7553(3)
C33_16 C 0.9755(3) 0.2836(3) 0.7313(4)
C38_16 C 0.8817(4) 0.0395(3) 0.8367(4)
H17_16 H 0.8948 0.0578 0.8566
H20_16 H 0.9939 0.3001 0.6412
C3_16 C 0.8128(3) 0.9501(3) 0.8484(4)
C8_16 C 0.8376(3) 0.9820(3) 0.8262(3)
C9_16 C 0.8422(3) 0.9848(3) 0.7763(4)
H3_16 H 0.8291 0.9664 0.7564
N1 N 0.7500 0.7500 0.2106(10)
H25 H 0.7467 0.7295 0.2298
C49 C 0.7080(6) 0.7553(5) 0.1828(8)
H26 H 0.7146 0.7607 0.1495
H27 H 0.6917 0.7765 0.1963
H28 H 0.6907 0.7321 0.1849
H29 H 0.7533 0.7705 0.2298
C50 C 0.7920(6) 0.7447(5) 0.1828(8)
H30 H 0.7854 0.7393 0.1495
H31 H 0.8083 0.7235 0.1963
H32 H 0.8093 0.7679 0.1849
N1_2 N 0.2500 0.2500 0.2106(10)
H25_2 H 0.2533 0.2705 0.2298
C49_2 C 0.2920(6) 0.2447(5) 0.1828(8)
H26_2 H 0.2854 0.2393 0.1495
H27_2 H 0.3083 0.2235 0.1963
H28_2 H 0.3093 0.2679 0.1849
H29_2 H 0.2467 0.2295 0.2298
C50_2 C 0.2080(6) 0.2553(5) 0.1828(8)
H30_2 H 0.2146 0.2607 0.1495
H31_2 H 0.1917 0.2765 0.1963
H32_2 H 0.1907 0.2321 0.1849
N1_3 N 0.0000 0.5000 0.4606(10)
H29_3 H 0.0033 0.4795 0.4798
C50_3 C 0.0420(6) 0.5053(5) 0.4328(8)
H30_3 H 0.0354 0.5107 0.3995
H31_3 H 0.0583 0.5265 0.4463
H32_3 H 0.0593 0.4821 0.4349
N1_4 N 1.0000 0.5000 0.4606(10)
H25_3 H 0.9967 0.5205 0.4798
C49_3 C 0.9580(6) 0.4947(5) 0.4328(8)
H26_3 H 0.9646 0.4893 0.3995
H27_3 H 0.9417 0.4735 0.4463
H28_3 H 0.9407 0.5179 0.4349
N1_5 N 0.5000 0.0000 0.4606(10)
C49_4 C 0.5420(6) 0.0053(5) 0.4328(8)
H26_4 H 0.5354 0.0107 0.3995
H27_4 H 0.5583 0.0265 0.4463
H29_4 H 0.4967 0.0205 0.4798
H32_4 H 0.4407 0.0179 0.4349
N1_6 N 0.5000 1.0000 0.4606(10)
H25_4 H 0.5033 0.9795 0.4798
H28_4 H 0.5593 0.9821 0.4349
C50_4 C 0.4580(6) 0.9947(5) 0.4328(8)
H30_4 H 0.4646 0.9893 0.3995
H31_4 H 0.4417 0.9735 0.4463
N1_7 N 0.7500 0.2500 0.7106(10)
H25_5 H 0.7467 0.2295 0.7298
C49_5 C 0.7080(6) 0.2553(5) 0.6828(8)
H26_5 H 0.7146 0.2607 0.6495
H27_5 H 0.6917 0.2765 0.6963
H28_5 H 0.6907 0.2321 0.6849
H29_5 H 0.7533 0.2705 0.7298
C50_5 C 0.7920(6) 0.2447(5) 0.6828(8)
H30_5 H 0.7854 0.2393 0.6495
H31_5 H 0.8083 0.2235 0.6963
H32_5 H 0.8093 0.2679 0.6849
N1_8 N 0.2500 0.7500 0.7106(10)
H25_6 H 0.2533 0.7705 0.7298
C49_6 C 0.2920(6) 0.7447(5) 0.6828(8)
H26_6 H 0.2854 0.7393 0.6495
H27_6 H 0.3083 0.7235 0.6963
H28_6 H 0.3093 0.7679 0.6849
H29_6 H 0.2467 0.7295 0.7298
C50_6 C 0.2080(6) 0.7553(5) 0.6828(8)
H30_6 H 0.2146 0.7607 0.6495
H31_6 H 0.1917 0.7765 0.6963
H32_6 H 0.1907 0.7321 0.6849
N1_9 N -0.0000 -0.0000 0.9606(10)
C50_7 C 0.0420(6) 0.0053(5) 0.9328(8)
H30_7 H 0.0354 0.0107 0.8995
H31_7 H 0.0583 0.0265 0.9463
N1_10 N -0.0000 1.0000 0.9606(10)
H29_7 H 0.0033 0.9795 0.9798
H32_7 H 0.0593 0.9821 0.9349
N1_11 N 1.0000 -0.0000 0.9606(10)
H25_7 H 0.9967 0.0205 0.9798
H28_7 H 0.9407 0.0179 0.9349
N1_12 N 1.0000 1.0000 0.9606(10)
C49_7 C 0.9580(6) 0.9947(5) 0.9328(8)
H26_7 H 0.9646 0.9893 0.8995
H27_7 H 0.9417 0.9735 0.9463
N1_13 N 0.5000 0.5000 0.9606(10)
H25_8 H 0.5033 0.4795 0.9798
C49_8 C 0.5420(6) 0.5053(5) 0.9328(8)
H26_8 H 0.5354 0.5107 0.8995
H27_8 H 0.5583 0.5265 0.9463
H28_8 H 0.5593 0.4821 0.9349
H29_8 H 0.4967 0.5205 0.9798
C50_8 C 0.4580(6) 0.4947(5) 0.9328(8)
H30_8 H 0.4646 0.4893 0.8995
H31_8 H 0.4417 0.4735 0.9463
H32_8 H 0.4407 0.5179 0.9349
loop_
_geom_bond_atom_site_label_1
_geom_bond_atom_site_label_2
_geom_bond_site_symmetry_1
_geom_bond_site_symmetry_2
Cd1 O2 1_555 1_555
Cd2 O7 1_555 1_555
K1 O2 1_555 1_555
O1 C5 1_555 1_555
O2 C26 1_555 1_555
O3 C3 1_555 1_555
O4 K1 1_555 1_555
O5 Cd1 1_555 1_555
O6 K1 1_555 1_555
O7 C17 1_555 1_555
O8 C5 1_555 1_555
O9 K1 1_555 1_555
O10 C31 1_555 1_555
O11 C3 1_555 1_555
O12 Cd2 1_555 1_555
O13 C31 1_555 1_555
O14 Cd1 1_555 1_555
O15 C39 1_555 1_555
C1 H1 1_555 1_555
O16 C39 1_555 1_555
C2 C1 1_555 1_555
C3 C8 1_555 1_555
C4 C1 1_555 1_555
C5 C2 1_555 1_555
C6 C4 1_555 1_555
H2 C6 1_555 1_555
C7 C11 1_555 1_555
C8 C9 1_555 1_555
C9 H3 1_555 1_555
C10 C16 1_555 1_555
C11 C6 1_555 1_555
H4 C11 1_555 1_555
C12 H5 1_555 1_555
C13 C7 1_555 1_555
H6 C13 1_555 1_555
C14 C16 1_555 1_555
C15 C12 1_555 1_555
C16 H7 1_555 1_555
C17 O6 1_555 1_555
C18 O5 1_555 1_555
C19 C4 1_555 1_555
C20 C21 1_555 1_555
C21 C15 1_555 1_555
H8 C21 1_555 1_555
C22 H9 1_555 1_555
C23 C10 1_555 1_555
C24 C12 1_555 1_555
H10 C24 1_555 1_555
C25 C22 1_555 1_555
C26 O14 1_555 1_555
C27 C19 1_555 1_555
H11 C27 1_555 1_555
C28 C33 1_555 1_555
C29 C8 1_555 1_555
H12 C29 1_555 1_555
C30 C25 1_555 1_555
H13 C30 1_555 1_555
C31 C25 1_555 1_555
C32 C9 1_555 1_555
C33 O4 1_555 1_555
C34 C14 1_555 1_555
H14 C34 1_555 1_555
C35 C10 1_555 1_555
H15 C35 1_555 1_555
C36 C2 1_555 1_555
H16 C36 1_555 1_555
C37 C43 1_555 1_555
C38 C20 1_555 1_555
H17 C38 1_555 1_555
C39 C45 1_555 1_555
C40 C23 1_555 1_555
H18 C40 1_555 1_555
C41 C28 1_555 1_555
H19 C41 1_555 1_555
C42 C28 1_555 1_555
H20 C42 1_555 1_555
C43 C42 1_555 1_555
C44 C37 1_555 1_555
H21 C44 1_555 1_555
C45 C46 1_555 1_555
C46 H22 1_555 1_555
C47 C43 1_555 1_555
H23 C47 1_555 1_555
C48 C37 1_555 1_555
H24 C48 1_555 1_555
Cd3 O10 1_555 1_555
Cd5 O15 1_555 1_555
Cd6 O1 1_555 1_555
K2 O1 1_555 1_555
K3 O3 1_555 1_555
O17 Cd2 1_555 1_555
O18 Cd1 1_555 1_555
O19 Cd2 1_555 1_555
O20 Cd1 1_555 1_555
O21 Cd1 1_555 1_555
O22 Cd1 1_555 1_555
O23 Cd2 1_555 1_555
O24 Cd2 1_555 1_555
K1 O17 1_555 1_555
K1 O18 1_555 1_555
O8 Cd6 1_555 1_555
O9 C18 1_555 1_555
O12 C33 1_555 1_555
O13 Cd3 1_555 1_555
O16 Cd5 1_555 1_555
C7 C17 1_555 1_555
C13 C19 1_555 1_555
C14 C26 1_555 1_555
C15 C18 1_555 1_555
C20 C32 1_555 1_555
C22 C23 1_555 1_555
C24 C32 1_555 1_555
C27 C36 1_555 1_555
C29 C38 1_555 1_555
C30 C35 1_555 1_555
C34 C40 1_555 1_555
C41 C44 1_555 1_555
C45 C48 1_555 1_555
C46 C47 1_555 1_555
Cd1_2 O2_2 1_555 1_555
Cd2_2 O7_2 1_555 1_555
K1_2 O2_2 1_555 1_555
O1_2 C5_2 1_555 1_555
O2_2 C26_2 1_555 1_555
O3_2 C3_2 1_555 1_555
O4_2 K1_2 1_555 1_555
O5_2 Cd1_2 1_555 1_555
O6_2 K1_2 1_555 1_555
O7_2 C17_2 1_555 1_555
O8_2 C5_2 1_555 1_555
O9_2 K1_2 1_555 1_555
O10_2 C31_2 1_555 1_555
O11_2 C3_2 1_555 1_555
O12_2 Cd2_2 1_555 1_555
O13_2 C31_2 1_555 1_555
O14_2 Cd1_2 1_555 1_555
O15_2 C39_2 1_555 1_555
C1_2 H1_2 1_555 1_555
O16_2 C39_2 1_555 1_555
C2_2 C1_2 1_555 1_555
C3_2 C8_2 1_555 1_555
C4_2 C1_2 1_555 1_555
C5_2 C2_2 1_555 1_555
C6_2 C4_2 1_555 1_555
H2_2 C6_2 1_555 1_555
C7_2 C11_2 1_555 1_555
C8_2 C9_2 1_555 1_555
C9_2 H3_2 1_555 1_555
C10_2 C16_2 1_555 1_555
C11_2 C6_2 1_555 1_555
H4_2 C11_2 1_555 1_555
C12_2 H5_2 1_555 1_555
C13_2 C7_2 1_555 1_555
H6_2 C13_2 1_555 1_555
C14_2 C16_2 1_555 1_555
C15_2 C12_2 1_555 1_555
C16_2 H7_2 1_555 1_555
C17_2 O6_2 1_555 1_555
C18_2 O5_2 1_555 1_555
C19_2 C4_2 1_555 1_555
C20_2 C21_2 1_555 1_555
C21_2 C15_2 1_555 1_555
H8_2 C21_2 1_555 1_555
C22_2 H9_2 1_555 1_555
C23_2 C10_2 1_555 1_555
C24_2 C12_2 1_555 1_555
H10_2 C24_2 1_555 1_555
C25_2 C22_2 1_555 1_555
C26_2 O14_2 1_555 1_555
C27_2 C19_2 1_555 1_555
H11_2 C27_2 1_555 1_555
C28_2 C33_2 1_555 1_555
C29_2 C8_2 1_555 1_555
H12_2 C29_2 1_555 1_555
C30_2 C25_2 1_555 1_555
H13_2 C30_2 1_555 1_555
C31_2 C25_2 1_555 1_555
C32_2 C9_2 1_555 1_555
C33_2 O4_2 1_555 1_555
C34_2 C14_2 1_555 1_555
H14_2 C34_2 1_555 1_555
C35_2 C10_2 1_555 1_555
H15_2 C35_2 1_555 1_555
C36_2 C2_2 1_555 1_555
H16_2 C36_2 1_555 1_555
C37_2 C43_2 1_555 1_555
C38_2 C20_2 1_555 1_555
H17_2 C38_2 1_555 1_555
C39_2 C45_2 1_555 1_555
C40_2 C23_2 1_555 1_555
H18_2 C40_2 1_555 1_555
C41_2 C28_2 1_555 1_555
H19_2 C41_2 1_555 1_555
C42_2 C28_2 1_555 1_555
H20_2 C42_2 1_555 1_555
C43_2 C42_2 1_555 1_555
C44_2 C37_2 1_555 1_555
H21_2 C44_2 1_555 1_555
C45_2 C46_2 1_555 1_555
C46_2 H22_2 1_555 1_555
C47_2 C43_2 1_555 1_555
H23_2 C47_2 1_555 1_555
C48_2 C37_2 1_555 1_555
H24_2 C48_2 1_555 1_555
Cd3_2 O10_2 1_555 1_555
Cd5_2 O15_2 1_555 1_555
Cd6_2 O1_2 1_555 1_555
K2_2 O1_2 1_555 1_555
K3_2 O3_2 1_555 1_555
O17_2 Cd2_2 1_555 1_555
O18_2 Cd1_2 1_555 1_555
O19_2 Cd2_2 1_555 1_555
O20_2 Cd1_2 1_555 1_555
O21_2 Cd1_2 1_555 1_555
O22_2 Cd1_2 1_555 1_555
O23_2 Cd2_2 1_555 1_555
O24_2 Cd2_2 1_555 1_555
K1_2 O17_2 1_555 1_555
K1_2 O18_2 1_555 1_555
O8_2 Cd6_2 1_555 1_555
O9_2 C18_2 1_555 1_555
O12_2 C33_2 1_555 1_555
O13_2 Cd3_2 1_555 1_555
O16_2 Cd5_2 1_555 1_555
C7_2 C17_2 1_555 1_555
C13_2 C19_2 1_555 1_555
C14_2 C26_2 1_555 1_555
C15_2 C18_2 1_555 1_555
C20_2 C32_2 1_555 1_555
C22_2 C23_2 1_555 1_555
C24_2 C32_2 1_555 1_555
C27_2 C36_2 1_555 1_555
C29_2 C38_2 1_555 1_555
C30_2 C35_2 1_555 1_555
C34_2 C40_2 1_555 1_555
C41_2 C44_2 1_555 1_555
C45_2 C48_2 1_555 1_555
C46_2 C47_2 1_555 1_555
O3_3 C3_3 1_555 1_555
O11_3 C3_3 1_555 1_555
C3_3 C8_3 1_555 1_555
C8_3 C9_3 1_555 1_555
C9_3 H3_3 1_555 1_555
Cd4_3 O3_3 1_555 1_555
K3_3 O3_3 1_555 1_555
O11_3 Cd4_3 1_555 1_555
Cd2_3 O7_3 1_555 1_555
O4_3 K3_2 1_555 1_555
O6_3 K3_2 1_555 1_555
O7_3 C17_3 1_555 1_555
O9_3 K3_2 1_555 1_555
O12_3 Cd2_3 1_555 1_555
C12_3 H5_3 1_555 1_555
C15_3 C12_3 1_555 1_555
C17_3 O6_3 1_555 1_555
C18_3 O5_3 1_555 1_555
C20_3 C21_3 1_555 1_555
C21_3 C15_3 1_555 1_555
H8_3 C21_3 1_555 1_555
C24_3 C12_3 1_555 1_555
H10_3 C24_3 1_555 1_555
H12_3 C29_3 1_555 1_555
C33_3 O4_3 1_555 1_555
C38_3 C20_3 1_555 1_555
H17_3 C38_3 1_555 1_555
O17_3 Cd2_3 1_555 1_555
O19_3 Cd2_3 1_555 1_555
O23_3 Cd2_3 1_555 1_555
O24_3 Cd2_3 1_555 1_555
K3_2 O17_3 1_555 1_555
O9_3 C18_3 1_555 1_555
O12_3 C33_3 1_555 1_555
C15_3 C18_3 1_555 1_555
C20_3 C32_3 1_555 1_555
C24_3 C32_3 1_555 1_555
C29_3 C38_3 1_555 1_555
O8_3 C5_3 1_555 1_555
H16_3 C36_3 1_555 1_555
O8_3 Cd6_3 1_555 1_555
Cd4_2 O2_3 1_555 1_555
O2_3 C26_3 1_555 1_555
O10_3 C31_3 1_555 1_555
O13_3 C31_3 1_555 1_555
O14_3 Cd4_2 1_555 1_555
O23 C39_3 1_555 1_555
C1_3 H1_3 1_555 1_555
O24 C39_3 1_555 1_555
C2_3 C1_3 1_555 1_555
C4_3 C1_3 1_555 1_555
C6_3 C4_3 1_555 1_555
H2_3 C6_3 1_555 1_555
C7_3 C11_3 1_555 1_555
C10_3 C16_3 1_555 1_555
C11_3 C6_3 1_555 1_555
H4_3 C11_3 1_555 1_555
C13_3 C7_3 1_555 1_555
C14_3 C16_3 1_555 1_555
C16_3 H7_3 1_555 1_555
C19_3 C4_3 1_555 1_555
C22_3 H9_3 1_555 1_555
C23_3 C10_3 1_555 1_555
C25_3 C22_3 1_555 1_555
C26_3 O14_3 1_555 1_555
C27_3 C19_3 1_555 1_555
H11_3 C27_3 1_555 1_555
C30_3 C25_3 1_555 1_555
H13_3 C30_3 1_555 1_555
C31_3 C25_3 1_555 1_555
C34_3 C14_3 1_555 1_555
H14_3 C34_3 1_555 1_555
C35_3 C10_3 1_555 1_555
H15_3 C35_3 1_555 1_555
C37_3 C43_3 1_555 1_555
C39_3 C45_3 1_555 1_555
C40_3 C23_3 1_555 1_555
H18_3 C40_3 1_555 1_555
C41_3 C28_3 1_555 1_555
H19_3 C41_3 1_555 1_555
C42_3 C28_3 1_555 1_555
C43_3 C42_3 1_555 1_555
C44_3 C37_3 1_555 1_555
H21_3 C44_3 1_555 1_555
C45_3 C46_3 1_555 1_555
C46_3 H22_3 1_555 1_555
C47_3 C43_3 1_555 1_555
H23_3 C47_3 1_555 1_555
C48_3 C37_3 1_555 1_555
H24_3 C48_3 1_555 1_555
Cd3_3 O10_3 1_555 1_555
K2_3 O1_3 1_555 1_555
O20_3 Cd4_2 1_555 1_555
O22_3 Cd4_2 1_555 1_555
O13_3 Cd3_3 1_555 1_555
C13_3 C19_3 1_555 1_555
C14_3 C26_3 1_555 1_555
C22_3 C23_3 1_555 1_555
C30_3 C35_3 1_555 1_555
C34_3 C40_3 1_555 1_555
C41_3 C44_3 1_555 1_555
C45_3 C48_3 1_555 1_555
C46_3 C47_3 1_555 1_555
O8_4 C5_4 1_555 1_555
H16_4 C36_4 1_555 1_555
O8_4 Cd6_4 1_555 1_555
Cd3 O2_4 1_555 1_555
Cd6_2 O7_4 1_555 1_555
K2_2 O2_4 1_555 1_555
O2_4 C26_4 1_555 1_555
O3_4 C3_4 1_555 1_555
O4_4 K2_2 1_555 1_555
O5_4 Cd3 1_555 1_555
O6_4 K2_2 1_555 1_555
O7_4 C17_4 1_555 1_555
O9_4 K2_2 1_555 1_555
O10_4 C31_4 1_555 1_555
O11_4 C3_4 1_555 1_555
O12_4 Cd6_2 1_555 1_555
O13_4 C31_4 1_555 1_555
O14_4 Cd3 1_555 1_555
O15_3 C39_4 1_555 1_555
C1_4 H1_4 1_555 1_555
O16_3 C39_4 1_555 1_555
C2_4 C1_4 1_555 1_555
C3_4 C8_4 1_555 1_555
C4_4 C1_4 1_555 1_555
C6_4 C4_4 1_555 1_555
H2_4 C6_4 1_555 1_555
C7_4 C11_4 1_555 1_555
C8_4 C9_4 1_555 1_555
C9_4 H3_4 1_555 1_555
C10_4 C16_4 1_555 1_555
C11_4 C6_4 1_555 1_555
H4_4 C11_4 1_555 1_555
C12_4 H5_4 1_555 1_555
C13_4 C7_4 1_555 1_555
H6_4 C13_4 1_555 1_555
C14_4 C16_4 1_555 1_555
C15_4 C12_4 1_555 1_555
C16_4 H7_4 1_555 1_555
C17_4 O6_4 1_555 1_555
C18_4 O5_4 1_555 1_555
C19_4 C4_4 1_555 1_555
C20_4 C21_4 1_555 1_555
C21_4 C15_4 1_555 1_555
H8_4 C21_4 1_555 1_555
C22_4 H9_4 1_555 1_555
C23_4 C10_4 1_555 1_555
C24_4 C12_4 1_555 1_555
H10_4 C24_4 1_555 1_555
C25_4 C22_4 1_555 1_555
C26_4 O14_4 1_555 1_555
C27_4 C19_4 1_555 1_555
H11_4 C27_4 1_555 1_555
C28_4 C33_4 1_555 1_555
C29_4 C8_4 1_555 1_555
H12_4 C29_4 1_555 1_555
C30_4 C25_4 1_555 1_555
H13_4 C30_4 1_555 1_555
C31_4 C25_4 1_555 1_555
C32_4 C9_4 1_555 1_555
C33_4 O4_4 1_555 1_555
C34_4 C14_4 1_555 1_555
H14_4 C34_4 1_555 1_555
C35_4 C10_4 1_555 1_555
H15_4 C35_4 1_555 1_555
C37_4 C43_4 1_555 1_555
C38_4 C20_4 1_555 1_555
H17_4 C38_4 1_555 1_555
C39_4 C45_4 1_555 1_555
C40_4 C23_4 1_555 1_555
H18_4 C40_4 1_555 1_555
C41_4 C28_4 1_555 1_555
H19_4 C41_4 1_555 1_555
C42_4 C28_4 1_555 1_555
H20_4 C42_4 1_555 1_555
C43_4 C42_4 1_555 1_555
C44_4 C37_4 1_555 1_555
H21_4 C44_4 1_555 1_555
C45_4 C46_4 1_555 1_555
C46_4 H22_4 1_555 1_555
C47_4 C43_4 1_555 1_555
H23_4 C47_4 1_555 1_555
C48_4 C37_4 1_555 1_555
H24_4 C48_4 1_555 1_555
Cd3_4 O10_4 1_555 1_555
Cd4_4 O3_4 1_555 1_555
K2_4 O1_4 1_555 1_555
K3_4 O3_4 1_555 1_555
O18_3 Cd3 1_555 1_555
O21_3 Cd3 1_555 1_555
O23_4 Cd6_2 1_555 1_555
O24_4 Cd6_2 1_555 1_555
K2_2 O18_3 1_555 1_555
O9_4 C18_4 1_555 1_555
O11_4 Cd4_4 1_555 1_555
O12_4 C33_4 1_555 1_555
O13_4 Cd3_4 1_555 1_555
C7_4 C17_4 1_555 1_555
C13_4 C19_4 1_555 1_555
C14_4 C26_4 1_555 1_555
C15_4 C18_4 1_555 1_555
C20_4 C32_4 1_555 1_555
C22_4 C23_4 1_555 1_555
C24_4 C32_4 1_555 1_555
C29_4 C38_4 1_555 1_555
C30_4 C35_4 1_555 1_555
C34_4 C40_4 1_555 1_555
C41_4 C44_4 1_555 1_555
C45_4 C48_4 1_555 1_555
C46_4 C47_4 1_555 1_555
O10_5 C31_5 1_555 1_555
O13_5 C31_5 1_555 1_555
C25_5 C22_5 1_555 1_555
C30_5 C25_5 1_555 1_555
H13_5 C30_5 1_555 1_555
C31_5 C25_5 1_555 1_555
C35_5 C10_5 1_555 1_555
H15_5 C35_5 1_555 1_555
Cd3_5 O10_5 1_555 1_555
O13_5 Cd3_5 1_555 1_555
C30_5 C35_5 1_555 1_555
O15_4 C39_5 1_555 1_555
O16_4 C39_5 1_555 1_555
C28_5 C33_5 1_555 1_555
C33_5 O4_5 1_555 1_555
H14_5 C34_5 1_555 1_555
C37_5 C43_5 1_555 1_555
C39_5 C45_5 1_555 1_555
C40_5 C23_5 1_555 1_555
H18_5 C40_5 1_555 1_555
C41_5 C28_5 1_555 1_555
C42_5 C28_5 1_555 1_555
H20_5 C42_5 1_555 1_555
C43_5 C42_5 1_555 1_555
C44_5 C37_5 1_555 1_555
H21_5 C44_5 1_555 1_555
C45_5 C46_5 1_555 1_555
C46_5 H22_5 1_555 1_555
C47_5 C43_5 1_555 1_555
H23_5 C47_5 1_555 1_555
C48_5 C37_5 1_555 1_555
H24_5 C48_5 1_555 1_555
Cd6 O15_4 1_555 1_555
O16_4 Cd6 1_555 1_555
C34_5 C40_5 1_555 1_555
C41_5 C44_5 1_555 1_555
C45_5 C48_5 1_555 1_555
C46_5 C47_5 1_555 1_555
Cd6_3 O7_5 1_555 1_555
O1_5 C5_5 1_555 1_555
O3_5 C3_5 1_555 1_555
O7_5 C17_5 1_555 1_555
O8_5 C5_5 1_555 1_555
O11_5 C3_5 1_555 1_555
C1_5 H1_5 1_555 1_555
C2_5 C1_5 1_555 1_555
C3_5 C8_5 1_555 1_555
C4_5 C1_5 1_555 1_555
C5_5 C2_5 1_555 1_555
C6_5 C4_5 1_555 1_555
H2_5 C6_5 1_555 1_555
C7_5 C11_5 1_555 1_555
C8_5 C9_5 1_555 1_555
C9_5 H3_5 1_555 1_555
C11_5 C6_5 1_555 1_555
H4_5 C11_5 1_555 1_555
C13_5 C7_5 1_555 1_555
H6_5 C13_5 1_555 1_555
C17_5 O6_5 1_555 1_555
C19_5 C4_5 1_555 1_555
C20_5 C21_5 1_555 1_555
H8_5 C21_5 1_555 1_555
C27_5 C19_5 1_555 1_555
H11_5 C27_5 1_555 1_555
C29_5 C8_5 1_555 1_555
H12_5 C29_5 1_555 1_555
C32_5 C9_5 1_555 1_555
C36_5 C2_5 1_555 1_555
H16_5 C36_5 1_555 1_555
C38_5 C20_5 1_555 1_555
H17_5 C38_5 1_555 1_555
Cd5 O1_5 1_555 1_555
K2_5 O1_5 1_555 1_555
K3_5 O3_5 1_555 1_555
O8_5 Cd5 1_555 1_555
C7_5 C17_5 1_555 1_555
C13_5 C19_5 1_555 1_555
C20_5 C32_5 1_555 1_555
C27_5 C36_5 1_555 1_555
C29_5 C38_5 1_555 1_555
Cd3_4 O2_5 1_555 1_555
K2_3 O2_5 1_555 1_555
O2_5 C26_5 1_555 1_555
O5_5 Cd3_4 1_555 1_555
O9_5 K2_3 1_555 1_555
O14_5 Cd3_4 1_555 1_555
C12_5 H5_5 1_555 1_555
C14_5 C16_5 1_555 1_555
C15_5 C12_5 1_555 1_555
C18_5 O5_5 1_555 1_555
C24_5 C12_5 1_555 1_555
H10_5 C24_5 1_555 1_555
C26_5 O14_5 1_555 1_555
O18_4 Cd3_4 1_555 1_555
O21_4 Cd3_4 1_555 1_555
K2_3 O18_4 1_555 1_555
O9_5 C18_5 1_555 1_555
C14_5 C26_5 1_555 1_555
C15_5 C18_5 1_555 1_555
Cd2_4 O7_6 1_555 1_555
O1_6 C5_6 1_555 1_555
O3_6 C3_6 1_555 1_555
O7_6 C17_6 1_555 1_555
O8_6 C5_6 1_555 1_555
O11_6 C3_6 1_555 1_555
C1_6 H1_6 1_555 1_555
C2_6 C1_6 1_555 1_555
C3_6 C8_6 1_555 1_555
C4_6 C1_6 1_555 1_555
C5_6 C2_6 1_555 1_555
C6_6 C4_6 1_555 1_555
H2_6 C6_6 1_555 1_555
C7_6 C11_6 1_555 1_555
C8_6 C9_6 1_555 1_555
C9_6 H3_6 1_555 1_555
C11_6 C6_6 1_555 1_555
H4_6 C11_6 1_555 1_555
C13_6 C7_6 1_555 1_555
H6_6 C13_6 1_555 1_555
C17_6 O6_6 1_555 1_555
C19_6 C4_6 1_555 1_555
C20_6 C21_6 1_555 1_555
H8_6 C21_6 1_555 1_555
C27_6 C19_6 1_555 1_555
H11_6 C27_6 1_555 1_555
C29_6 C8_6 1_555 1_555
H12_6 C29_6 1_555 1_555
C32_6 C9_6 1_555 1_555
C36_6 C2_6 1_555 1_555
H16_6 C36_6 1_555 1_555
C38_6 C20_6 1_555 1_555
H17_6 C38_6 1_555 1_555
Cd5_2 O1_6 1_555 1_555
K2_6 O1_6 1_555 1_555
K3_6 O3_6 1_555 1_555
O19_4 Cd2_4 1_555 1_555
O8_6 Cd5_2 1_555 1_555
C7_6 C17_6 1_555 1_555
C13_6 C19_6 1_555 1_555
C20_6 C32_6 1_555 1_555
C27_6 C36_6 1_555 1_555
C29_6 C38_6 1_555 1_555
Cd4_3 O2_6 1_555 1_555
K3_3 O2_6 1_555 1_555
O2_6 C26_6 1_555 1_555
O5_6 Cd4_3 1_555 1_555
O9_6 K3_3 1_555 1_555
O14_6 Cd4_3 1_555 1_555
C12_6 H5_6 1_555 1_555
C14_6 C16_6 1_555 1_555
C15_6 C12_6 1_555 1_555
C18_6 O5_6 1_555 1_555
C24_6 C12_6 1_555 1_555
H10_6 C24_6 1_555 1_555
C26_6 O14_6 1_555 1_555
O20_4 Cd4_3 1_555 1_555
O22_4 Cd4_3 1_555 1_555
K3_3 O17_4 1_555 1_555
O9_6 C18_6 1_555 1_555
C14_6 C26_6 1_555 1_555
C15_6 C18_6 1_555 1_555
O10_6 C31_6 1_555 1_555
O13_6 C31_6 1_555 1_555
C25_6 C22_6 1_555 1_555
C30_6 C25_6 1_555 1_555
H13_6 C30_6 1_555 1_555
C31_6 C25_6 1_555 1_555
C35_6 C10_6 1_555 1_555
H15_6 C35_6 1_555 1_555
Cd3_6 O10_6 1_555 1_555
O13_6 Cd3_6 1_555 1_555
C30_6 C35_6 1_555 1_555
O23_4 C39_6 1_555 1_555
O24_4 C39_6 1_555 1_555
C28_6 C33_6 1_555 1_555
C33_6 O4_6 1_555 1_555
H14_6 C34_6 1_555 1_555
C37_6 C43_6 1_555 1_555
C39_6 C45_6 1_555 1_555
C40_6 C23_6 1_555 1_555
H18_6 C40_6 1_555 1_555
C41_6 C28_6 1_555 1_555
C42_6 C28_6 1_555 1_555
H20_6 C42_6 1_555 1_555
C43_6 C42_6 1_555 1_555
C44_6 C37_6 1_555 1_555
H21_6 C44_6 1_555 1_555
C45_6 C46_6 1_555 1_555
C46_6 H22_6 1_555 1_555
C47_6 C43_6 1_555 1_555
H23_6 C47_6 1_555 1_555
C48_6 C37_6 1_555 1_555
H24_6 C48_6 1_555 1_555
C34_6 C40_6 1_555 1_555
C41_6 C44_6 1_555 1_555
C45_6 C48_6 1_555 1_555
C46_6 C47_6 1_555 1_555
Cd2_5 O7_7 1_555 1_555
O18_2 C3_7 1_555 1_555
O4_7 K3_6 1_555 1_555
O6_7 K3_6 1_555 1_555
O7_7 C17_7 1_555 1_555
O9_7 K3_6 1_555 1_555
O21_2 C3_7 1_555 1_555
O12_7 Cd2_5 1_555 1_555
C3_7 C8_7 1_555 1_555
C8_7 C9_7 1_555 1_555
C9_7 H3_7 1_555 1_555
C12_7 H5_7 1_555 1_555
C15_7 C12_7 1_555 1_555
C17_7 O6_7 1_555 1_555
C18_7 O5_7 1_555 1_555
C20_7 C21_7 1_555 1_555
C21_7 C15_7 1_555 1_555
H8_7 C21_7 1_555 1_555
C24_7 C12_7 1_555 1_555
H10_7 C24_7 1_555 1_555
C29_7 C8_7 1_555 1_555
H12_7 C29_7 1_555 1_555
C32_7 C9_7 1_555 1_555
C33_7 O4_7 1_555 1_555
C38_7 C20_7 1_555 1_555
H17_7 C38_7 1_555 1_555
O17_5 Cd2_5 1_555 1_555
O19_5 Cd2_5 1_555 1_555
O23_7 Cd2_5 1_555 1_555
O24_7 Cd2_5 1_555 1_555
K3_6 O17_5 1_555 1_555
O9_7 C18_7 1_555 1_555
O12_7 C33_7 1_555 1_555
C15_7 C18_7 1_555 1_555
C20_7 C32_7 1_555 1_555
C24_7 C32_7 1_555 1_555
C29_7 C38_7 1_555 1_555
Cd4_6 O2_7 1_555 1_555
O17 C5_7 1_555 1_555
O2_7 C26_7 1_555 1_555
O19 C5_7 1_555 1_555
O10_7 C31_7 1_555 1_555
O13_7 C31_7 1_555 1_555
O14_7 Cd4_6 1_555 1_555
O23_5 C39_7 1_555 1_555
C1_7 H1_7 1_555 1_555
O24_5 C39_7 1_555 1_555
C2_7 C1_7 1_555 1_555
C4_7 C1_7 1_555 1_555
C5_7 C2_7 1_555 1_555
C6_7 C4_7 1_555 1_555
H2_7 C6_7 1_555 1_555
C7_7 C11_7 1_555 1_555
C10_7 C16_7 1_555 1_555
C11_7 C6_7 1_555 1_555
H4_7 C11_7 1_555 1_555
C13_7 C7_7 1_555 1_555
C14_7 C16_7 1_555 1_555
C16_7 H7_7 1_555 1_555
C19_7 C4_7 1_555 1_555
C22_7 H9_7 1_555 1_555
C23_7 C10_7 1_555 1_555
C25_7 C22_7 1_555 1_555
C26_7 O14_7 1_555 1_555
C27_7 C19_7 1_555 1_555
H11_7 C27_7 1_555 1_555
C30_7 C25_7 1_555 1_555
H13_7 C30_7 1_555 1_555
C31_7 C25_7 1_555 1_555
C34_7 C14_7 1_555 1_555
H14_7 C34_7 1_555 1_555
C35_7 C10_7 1_555 1_555
H15_7 C35_7 1_555 1_555
C36_7 C2_7 1_555 1_555
H16_7 C36_7 1_555 1_555
C37_7 C43_7 1_555 1_555
C39_7 C45_7 1_555 1_555
C40_7 C23_7 1_555 1_555
H18_7 C40_7 1_555 1_555
C41_7 C28_7 1_555 1_555
H19_7 C41_7 1_555 1_555
C42_7 C28_7 1_555 1_555
C43_7 C42_7 1_555 1_555
C44_7 C37_7 1_555 1_555
H21_7 C44_7 1_555 1_555
C45_7 C46_7 1_555 1_555
C46_7 H22_7 1_555 1_555
C47_7 C43_7 1_555 1_555
H23_7 C47_7 1_555 1_555
C48_7 C37_7 1_555 1_555
H24_7 C48_7 1_555 1_555
Cd3_7 O10_7 1_555 1_555
O20_5 Cd4_6 1_555 1_555
O22_5 Cd4_6 1_555 1_555
O13_7 Cd3_7 1_555 1_555
C13_7 C19_7 1_555 1_555
C14_7 C26_7 1_555 1_555
C22_7 C23_7 1_555 1_555
C27_7 C36_7 1_555 1_555
C30_7 C35_7 1_555 1_555
C34_7 C40_7 1_555 1_555
C41_7 C44_7 1_555 1_555
C45_7 C48_7 1_555 1_555
C46_7 C47_7 1_555 1_555
Cd3_5 O2_8 1_555 1_555
Cd5_2 O7_8 1_555 1_555
K2_6 O2_8 1_555 1_555
O1_7 C5_8 1_555 1_555
O2_8 C26_8 1_555 1_555
O4_8 K2_6 1_555 1_555
O5_8 Cd3_5 1_555 1_555
O6_8 K2_6 1_555 1_555
O7_8 C17_8 1_555 1_555
O8_7 C5_8 1_555 1_555
O9_8 K2_6 1_555 1_555
O20 C31_8 1_555 1_555
O12_8 Cd5_2 1_555 1_555
O22 C31_8 1_555 1_555
O14_8 Cd3_5 1_555 1_555
O15_5 C39_8 1_555 1_555
C1_8 H1_8 1_555 1_555
O16_5 C39_8 1_555 1_555
C2_8 C1_8 1_555 1_555
C4_8 C1_8 1_555 1_555
C5_8 C2_8 1_555 1_555
C6_8 C4_8 1_555 1_555
H2_8 C6_8 1_555 1_555
C7_8 C11_8 1_555 1_555
C10_8 C16_8 1_555 1_555
C11_8 C6_8 1_555 1_555
H4_8 C11_8 1_555 1_555
C12_8 H5_8 1_555 1_555
C13_8 C7_8 1_555 1_555
H6_8 C13_8 1_555 1_555
C14_8 C16_8 1_555 1_555
C15_8 C12_8 1_555 1_555
C16_8 H7_8 1_555 1_555
C17_8 O6_8 1_555 1_555
C18_8 O5_8 1_555 1_555
C19_8 C4_8 1_555 1_555
C20_8 C21_8 1_555 1_555
C21_8 C15_8 1_555 1_555
H8_8 C21_8 1_555 1_555
C22_8 H9_8 1_555 1_555
C23_8 C10_8 1_555 1_555
C24_8 C12_8 1_555 1_555
H10_8 C24_8 1_555 1_555
C25_8 C22_8 1_555 1_555
C26_8 O14_8 1_555 1_555
C27_8 C19_8 1_555 1_555
H11_8 C27_8 1_555 1_555
C28_8 C33_8 1_555 1_555
H12_8 C29_8 1_555 1_555
C30_8 C25_8 1_555 1_555
H13_8 C30_8 1_555 1_555
C31_8 C25_8 1_555 1_555
C33_8 O4_8 1_555 1_555
C34_8 C14_8 1_555 1_555
H14_8 C34_8 1_555 1_555
C35_8 C10_8 1_555 1_555
H15_8 C35_8 1_555 1_555
C36_8 C2_8 1_555 1_555
H16_8 C36_8 1_555 1_555
C37_8 C43_8 1_555 1_555
C38_8 C20_8 1_555 1_555
H17_8 C38_8 1_555 1_555
C39_8 C45_8 1_555 1_555
C40_8 C23_8 1_555 1_555
H18_8 C40_8 1_555 1_555
C41_8 C28_8 1_555 1_555
H19_8 C41_8 1_555 1_555
C42_8 C28_8 1_555 1_555
H20_8 C42_8 1_555 1_555
C43_8 C42_8 1_555 1_555
C44_8 C37_8 1_555 1_555
H21_8 C44_8 1_555 1_555
C45_8 C46_8 1_555 1_555
C46_8 H22_8 1_555 1_555
C47_8 C43_8 1_555 1_555
H23_8 C47_8 1_555 1_555
C48_8 C37_8 1_555 1_555
H24_8 C48_8 1_555 1_555
Cd6_4 O15_5 1_555 1_555
Cd5_3 O1_7 1_555 1_555
K2_7 O1_7 1_555 1_555
O18_5 Cd3_5 1_555 1_555
O21_5 Cd3_5 1_555 1_555
K2_6 O18_5 1_555 1_555
O8_7 Cd5_3 1_555 1_555
O9_8 C18_8 1_555 1_555
O12_8 C33_8 1_555 1_555
O16_5 Cd6_4 1_555 1_555
C7_8 C17_8 1_555 1_555
C13_8 C19_8 1_555 1_555
C14_8 C26_8 1_555 1_555
C15_8 C18_8 1_555 1_555
C20_8 C32_8 1_555 1_555
C22_8 C23_8 1_555 1_555
C24_8 C32_8 1_555 1_555
C27_8 C36_8 1_555 1_555
C29_8 C38_8 1_555 1_555
C30_8 C35_8 1_555 1_555
C34_8 C40_8 1_555 1_555
C41_8 C44_8 1_555 1_555
C45_8 C48_8 1_555 1_555
C46_8 C47_8 1_555 1_555
O3_7 C3_8 1_555 1_555
O11_7 C3_8 1_555 1_555
C3_8 C8_8 1_555 1_555
C8_8 C9_8 1_555 1_555
C9_8 H3_8 1_555 1_555
Cd4_7 O3_7 1_555 1_555
K3_7 O3_7 1_555 1_555
O11_7 Cd4_7 1_555 1_555
Cd2_6 O7_9 1_555 1_555
O17_5 C5_9 1_555 1_555
O18_5 C3_9 1_555 1_555
O7_9 C17_9 1_555 1_555
O19_5 C5_9 1_555 1_555
O10_8 C31_9 1_555 1_555
O21_5 C3_9 1_555 1_555
O12_9 Cd2_6 1_555 1_555
O13_8 C31_9 1_555 1_555
C1_9 H1_9 1_555 1_555
C2_9 C1_9 1_555 1_555
C3_9 C8_9 1_555 1_555
C4_9 C1_9 1_555 1_555
C5_9 C2_9 1_555 1_555
C6_9 C4_9 1_555 1_555
H2_9 C6_9 1_555 1_555
C7_9 C11_9 1_555 1_555
C8_9 C9_9 1_555 1_555
C9_9 H3_9 1_555 1_555
C11_9 C6_9 1_555 1_555
H4_9 C11_9 1_555 1_555
C13_9 C7_9 1_555 1_555
H6_9 C13_9 1_555 1_555
C17_9 O6_9 1_555 1_555
C19_9 C4_9 1_555 1_555
C20_9 C21_9 1_555 1_555
H8_9 C21_9 1_555 1_555
C25_9 C22_9 1_555 1_555
C27_9 C19_9 1_555 1_555
H11_9 C27_9 1_555 1_555
C29_9 C8_9 1_555 1_555
H12_9 C29_9 1_555 1_555
C30_9 C25_9 1_555 1_555
H13_9 C30_9 1_555 1_555
C31_9 C25_9 1_555 1_555
C32_9 C9_9 1_555 1_555
C35_9 C10_9 1_555 1_555
H15_9 C35_9 1_555 1_555
C36_9 C2_9 1_555 1_555
H16_9 C36_9 1_555 1_555
C38_9 C20_9 1_555 1_555
H17_9 C38_9 1_555 1_555
Cd4_5 O10_8 1_555 1_555
O19_6 Cd2_6 1_555 1_555
O23_8 Cd2_6 1_555 1_555
O24_8 Cd2_6 1_555 1_555
O13_8 Cd4_5 1_555 1_555
C7_9 C17_9 1_555 1_555
C13_9 C19_9 1_555 1_555
C20_9 C32_9 1_555 1_555
C27_9 C36_9 1_555 1_555
C29_9 C38_9 1_555 1_555
C30_9 C35_9 1_555 1_555
Cd4_4 O2_9 1_555 1_555
K3_4 O2_9 1_555 1_555
O2_9 C26_9 1_555 1_555
O4_9 K3_4 1_555 1_555
O5_9 Cd4_4 1_555 1_555
O9_9 K3_4 1_555 1_555
O14_9 Cd4_4 1_555 1_555
O23_3 C39_9 1_555 1_555
O24_3 C39_9 1_555 1_555
C12_9 H5_9 1_555 1_555
C14_9 C16_9 1_555 1_555
C15_9 C12_9 1_555 1_555
C18_9 O5_9 1_555 1_555
C24_9 C12_9 1_555 1_555
H10_9 C24_9 1_555 1_555
C26_9 O14_9 1_555 1_555
C28_9 C33_9 1_555 1_555
C33_9 O4_9 1_555 1_555
C34_9 C14_9 1_555 1_555
H14_9 C34_9 1_555 1_555
C37_9 C43_9 1_555 1_555
C39_9 C45_9 1_555 1_555
C40_9 C23_9 1_555 1_555
H18_9 C40_9 1_555 1_555
C41_9 C28_9 1_555 1_555
C42_9 C28_9 1_555 1_555
H20_9 C42_9 1_555 1_555
C43_9 C42_9 1_555 1_555
C44_9 C37_9 1_555 1_555
H21_9 C44_9 1_555 1_555
C45_9 C46_9 1_555 1_555
C46_9 H22_9 1_555 1_555
C47_9 C43_9 1_555 1_555
H23_9 C47_9 1_555 1_555
C48_9 C37_9 1_555 1_555
H24_9 C48_9 1_555 1_555
O20_6 Cd4_4 1_555 1_555
O22_6 Cd4_4 1_555 1_555
K3_4 O17_6 1_555 1_555
O9_9 C18_9 1_555 1_555
C14_9 C26_9 1_555 1_555
C15_9 C18_9 1_555 1_555
C34_9 C40_9 1_555 1_555
C41_9 C44_9 1_555 1_555
C45_9 C48_9 1_555 1_555
C46_9 C47_9 1_555 1_555
Cd6_4 O7_10 1_555 1_555
O1_8 C5_10 1_555 1_555
O3_8 C3_10 1_555 1_555
O7_10 C17_10 1_555 1_555
O8_8 C5_10 1_555 1_555
O20_5 C31_10 1_555 1_555
O11_8 C3_10 1_555 1_555
O12_10 Cd6_4 1_555 1_555
O22_5 C31_10 1_555 1_555
C1_10 H1_10 1_555 1_555
C2_10 C1_10 1_555 1_555
C3_10 C8_10 1_555 1_555
C4_10 C1_10 1_555 1_555
C5_10 C2_10 1_555 1_555
C6_10 C4_10 1_555 1_555
H2_10 C6_10 1_555 1_555
C7_10 C11_10 1_555 1_555
C8_10 C9_10 1_555 1_555
C9_10 H3_10 1_555 1_555
C11_10 C6_10 1_555 1_555
H4_10 C11_10 1_555 1_555
C13_10 C7_10 1_555 1_555
H6_10 C13_10 1_555 1_555
C17_10 O6_10 1_555 1_555
C19_10 C4_10 1_555 1_555
C20_10 C21_10 1_555 1_555
H8_10 C21_10 1_555 1_555
C25_10 C22_10 1_555 1_555
C27_10 C19_10 1_555 1_555
H11_10 C27_10 1_555 1_555
C29_10 C8_10 1_555 1_555
H12_10 C29_10 1_555 1_555
C30_10 C25_10 1_555 1_555
H13_10 C30_10 1_555 1_555
C31_10 C25_10 1_555 1_555
C32_10 C9_10 1_555 1_555
C35_10 C10_10 1_555 1_555
H15_10 C35_10 1_555 1_555
C36_10 C2_10 1_555 1_555
H16_10 C36_10 1_555 1_555
C38_10 C20_10 1_555 1_555
H17_10 C38_10 1_555 1_555
Cd3_6 O3_8 1_555 1_555
Cd6_5 O1_8 1_555 1_555
K3_5 O1_8 1_555 1_555
K2_5 O3_8 1_555 1_555
O8_8 Cd6_5 1_555 1_555
O11_8 Cd3_6 1_555 1_555
C7_10 C17_10 1_555 1_555
C13_10 C19_10 1_555 1_555
C20_10 C32_10 1_555 1_555
C27_10 C36_10 1_555 1_555
C29_10 C38_10 1_555 1_555
C30_10 C35_10 1_555 1_555
Cd3_3 O2_10 1_555 1_555
K2_4 O2_10 1_555 1_555
O2_10 C26_10 1_555 1_555
O4_10 K2_4 1_555 1_555
O5_10 Cd3_3 1_555 1_555
O9_10 K2_4 1_555 1_555
O14_10 Cd3_3 1_555 1_555
O15_6 C39_10 1_555 1_555
O16_6 C39_10 1_555 1_555
C12_10 H5_10 1_555 1_555
C14_10 C16_10 1_555 1_555
C15_10 C12_10 1_555 1_555
C18_10 O5_10 1_555 1_555
C24_10 C12_10 1_555 1_555
H10_10 C24_10 1_555 1_555
C26_10 O14_10 1_555 1_555
C28_10 C33_10 1_555 1_555
C33_10 O4_10 1_555 1_555
C34_10 C14_10 1_555 1_555
H14_10 C34_10 1_555 1_555
C37_10 C43_10 1_555 1_555
C39_10 C45_10 1_555 1_555
C40_10 C23_10 1_555 1_555
H18_10 C40_10 1_555 1_555
C41_10 C28_10 1_555 1_555
C42_10 C28_10 1_555 1_555
H20_10 C42_10 1_555 1_555
C43_10 C42_10 1_555 1_555
C44_10 C37_10 1_555 1_555
H21_10 C44_10 1_555 1_555
C45_10 C46_10 1_555 1_555
C46_10 H22_10 1_555 1_555
C47_10 C43_10 1_555 1_555
H23_10 C47_10 1_555 1_555
C48_10 C37_10 1_555 1_555
H24_10 C48_10 1_555 1_555
Cd5_4 O15_6 1_555 1_555
O18_6 Cd3_3 1_555 1_555
O21_6 Cd3_3 1_555 1_555
K2_4 O18_6 1_555 1_555
O9_10 C18_10 1_555 1_555
O16_6 Cd5_4 1_555 1_555
C14_10 C26_10 1_555 1_555
C15_10 C18_10 1_555 1_555
C34_10 C40_10 1_555 1_555
C41_10 C44_10 1_555 1_555
C45_10 C48_10 1_555 1_555
C46_10 C47_10 1_555 1_555
O3_9 C3_11 1_555 1_555
O11_9 C3_11 1_555 1_555
C3_11 C8_11 1_555 1_555
C8_11 C9_11 1_555 1_555
C9_11 H3_11 1_555 1_555
Cd3_7 O3_9 1_555 1_555
K2_7 O3_9 1_555 1_555
O11_9 Cd3_7 1_555 1_555
Cd3_6 O2_11 1_555 1_555
Cd5 O7_11 1_555 1_555
K2_5 O2_11 1_555 1_555
O1_9 C5_11 1_555 1_555
O2_11 C26_11 1_555 1_555
O4_11 K2_5 1_555 1_555
O5_11 Cd3_6 1_555 1_555
O6_11 K2_5 1_555 1_555
O7_11 C17_11 1_555 1_555
O8_9 C5_11 1_555 1_555
O9_11 K2_5 1_555 1_555
O20_2 C31_11 1_555 1_555
O12_11 Cd5 1_555 1_555
O22_2 C31_11 1_555 1_555
O14_11 Cd3_6 1_555 1_555
O23_8 C39_11 1_555 1_555
C1_11 H1_11 1_555 1_555
O24_8 C39_11 1_555 1_555
C2_11 C1_11 1_555 1_555
C4_11 C1_11 1_555 1_555
C5_11 C2_11 1_555 1_555
C6_11 C4_11 1_555 1_555
H2_11 C6_11 1_555 1_555
C7_11 C11_11 1_555 1_555
C10_11 C16_11 1_555 1_555
C11_11 C6_11 1_555 1_555
H4_11 C11_11 1_555 1_555
C12_11 H5_11 1_555 1_555
C13_11 C7_11 1_555 1_555
H6_11 C13_11 1_555 1_555
C14_11 C16_11 1_555 1_555
C15_11 C12_11 1_555 1_555
C16_11 H7_11 1_555 1_555
C17_11 O6_11 1_555 1_555
C18_11 O5_11 1_555 1_555
C19_11 C4_11 1_555 1_555
C20_11 C21_11 1_555 1_555
C21_11 C15_11 1_555 1_555
H8_11 C21_11 1_555 1_555
C22_11 H9_11 1_555 1_555
C23_11 C10_11 1_555 1_555
C24_11 C12_11 1_555 1_555
H10_11 C24_11 1_555 1_555
C25_11 C22_11 1_555 1_555
C26_11 O14_11 1_555 1_555
C27_11 C19_11 1_555 1_555
H11_11 C27_11 1_555 1_555
C28_11 C33_11 1_555 1_555
H12_11 C29_11 1_555 1_555
C30_11 C25_11 1_555 1_555
H13_11 C30_11 1_555 1_555
C31_11 C25_11 1_555 1_555
C33_11 O4_11 1_555 1_555
C34_11 C14_11 1_555 1_555
H14_11 C34_11 1_555 1_555
C35_11 C10_11 1_555 1_555
H15_11 C35_11 1_555 1_555
C36_11 C2_11 1_555 1_555
H16_11 C36_11 1_555 1_555
C37_11 C43_11 1_555 1_555
C38_11 C20_11 1_555 1_555
H17_11 C38_11 1_555 1_555
C39_11 C45_11 1_555 1_555
C40_11 C23_11 1_555 1_555
H18_11 C40_11 1_555 1_555
C41_11 C28_11 1_555 1_555
H19_11 C41_11 1_555 1_555
C42_11 C28_11 1_555 1_555
H20_11 C42_11 1_555 1_555
C43_11 C42_11 1_555 1_555
C44_11 C37_11 1_555 1_555
H21_11 C44_11 1_555 1_555
C45_11 C46_11 1_555 1_555
C46_11 H22_11 1_555 1_555
C47_11 C43_11 1_555 1_555
H23_11 C47_11 1_555 1_555
C48_11 C37_11 1_555 1_555
H24_11 C48_11 1_555 1_555
Cd6_6 O1_9 1_555 1_555
K3_7 O1_9 1_555 1_555
O8_9 Cd6_6 1_555 1_555
O9_11 C18_11 1_555 1_555
O12_11 C33_11 1_555 1_555
C7_11 C17_11 1_555 1_555
C13_11 C19_11 1_555 1_555
C14_11 C26_11 1_555 1_555
C15_11 C18_11 1_555 1_555
C20_11 C32_11 1_555 1_555
C22_11 C23_11 1_555 1_555
C24_11 C32_11 1_555 1_555
C27_11 C36_11 1_555 1_555
C29_11 C38_11 1_555 1_555
C30_11 C35_11 1_555 1_555
C34_11 C40_11 1_555 1_555
C41_11 C44_11 1_555 1_555
C45_11 C48_11 1_555 1_555
C46_11 C47_11 1_555 1_555
Cd4_5 O2_12 1_555 1_555
O17_2 C5_12 1_555 1_555
O2_12 C26_12 1_555 1_555
O19_2 C5_12 1_555 1_555
O10_9 C31_12 1_555 1_555
O13_9 C31_12 1_555 1_555
O14_12 Cd4_5 1_555 1_555
O23_6 C39_12 1_555 1_555
C1_12 H1_12 1_555 1_555
O24_6 C39_12 1_555 1_555
C2_12 C1_12 1_555 1_555
C4_12 C1_12 1_555 1_555
C5_12 C2_12 1_555 1_555
C6_12 C4_12 1_555 1_555
H2_12 C6_12 1_555 1_555
C7_12 C11_12 1_555 1_555
C10_12 C16_12 1_555 1_555
C11_12 C6_12 1_555 1_555
H4_12 C11_12 1_555 1_555
C13_12 C7_12 1_555 1_555
C14_12 C16_12 1_555 1_555
C16_12 H7_12 1_555 1_555
C19_12 C4_12 1_555 1_555
C22_12 H9_12 1_555 1_555
C23_12 C10_12 1_555 1_555
C25_12 C22_12 1_555 1_555
C26_12 O14_12 1_555 1_555
C27_12 C19_12 1_555 1_555
H11_12 C27_12 1_555 1_555
C30_12 C25_12 1_555 1_555
H13_12 C30_12 1_555 1_555
C31_12 C25_12 1_555 1_555
C34_12 C14_12 1_555 1_555
H14_12 C34_12 1_555 1_555
C35_12 C10_12 1_555 1_555
H15_12 C35_12 1_555 1_555
C36_12 C2_12 1_555 1_555
H16_12 C36_12 1_555 1_555
C37_12 C43_12 1_555 1_555
C39_12 C45_12 1_555 1_555
C40_12 C23_12 1_555 1_555
H18_12 C40_12 1_555 1_555
C41_12 C28_12 1_555 1_555
H19_12 C41_12 1_555 1_555
C42_12 C28_12 1_555 1_555
C43_12 C42_12 1_555 1_555
C44_12 C37_12 1_555 1_555
H21_12 C44_12 1_555 1_555
C45_12 C46_12 1_555 1_555
C46_12 H22_12 1_555 1_555
C47_12 C43_12 1_555 1_555
H23_12 C47_12 1_555 1_555
C48_12 C37_12 1_555 1_555
H24_12 C48_12 1_555 1_555
Cd4_7 O10_9 1_555 1_555
O13_9 Cd4_7 1_555 1_555
C13_12 C19_12 1_555 1_555
C14_12 C26_12 1_555 1_555
C22_12 C23_12 1_555 1_555
C27_12 C36_12 1_555 1_555
C30_12 C35_12 1_555 1_555
C34_12 C40_12 1_555 1_555
C41_12 C44_12 1_555 1_555
C45_12 C48_12 1_555 1_555
C46_12 C47_12 1_555 1_555
Cd6_5 O7_12 1_555 1_555
O18 C3_12 1_555 1_555
O4_12 K3_5 1_555 1_555
O6_12 K3_5 1_555 1_555
O7_12 C17_12 1_555 1_555
O9_12 K3_5 1_555 1_555
O21 C3_12 1_555 1_555
O12_12 Cd6_5 1_555 1_555
C3_12 C8_12 1_555 1_555
C8_12 C9_12 1_555 1_555
C9_12 H3_12 1_555 1_555
C12_12 H5_12 1_555 1_555
C15_12 C12_12 1_555 1_555
C17_12 O6_12 1_555 1_555
C18_12 O5_12 1_555 1_555
C20_12 C21_12 1_555 1_555
C21_12 C15_12 1_555 1_555
H8_12 C21_12 1_555 1_555
C24_12 C12_12 1_555 1_555
H10_12 C24_12 1_555 1_555
C29_12 C8_12 1_555 1_555
H12_12 C29_12 1_555 1_555
C32_12 C9_12 1_555 1_555
C33_12 O4_12 1_555 1_555
C38_12 C20_12 1_555 1_555
H17_12 C38_12 1_555 1_555
O23_9 Cd6_5 1_555 1_555
O24_9 Cd6_5 1_555 1_555
O9_12 C18_12 1_555 1_555
O12_12 C33_12 1_555 1_555
C15_12 C18_12 1_555 1_555
C20_12 C32_12 1_555 1_555
C24_12 C32_12 1_555 1_555
C29_12 C38_12 1_555 1_555
O10_10 C31_13 1_555 1_555
O13_10 C31_13 1_555 1_555
O23_7 C39_13 1_555 1_555
O24_7 C39_13 1_555 1_555
C22_13 H9_13 1_555 1_555
C23_13 C10_13 1_555 1_555
C25_13 C22_13 1_555 1_555
C28_13 C33_13 1_555 1_555
C30_13 C25_13 1_555 1_555
H13_13 C30_13 1_555 1_555
C31_13 C25_13 1_555 1_555
C33_13 O4_13 1_555 1_555
H14_13 C34_13 1_555 1_555
C35_13 C10_13 1_555 1_555
H15_13 C35_13 1_555 1_555
C37_13 C43_13 1_555 1_555
C39_13 C45_13 1_555 1_555
C40_13 C23_13 1_555 1_555
H18_13 C40_13 1_555 1_555
C41_13 C28_13 1_555 1_555
H19_13 C41_13 1_555 1_555
C42_13 C28_13 1_555 1_555
H20_13 C42_13 1_555 1_555
C43_13 C42_13 1_555 1_555
C44_13 C37_13 1_555 1_555
H21_13 C44_13 1_555 1_555
C45_13 C46_13 1_555 1_555
C46_13 H22_13 1_555 1_555
C47_13 C43_13 1_555 1_555
H23_13 C47_13 1_555 1_555
C48_13 C37_13 1_555 1_555
H24_13 C48_13 1_555 1_555
Cd4 O10_10 1_555 1_555
O12_13 C33_13 1_555 1_555
O13_10 Cd4 1_555 1_555
C22_13 C23_13 1_555 1_555
C30_13 C35_13 1_555 1_555
C34_13 C40_13 1_555 1_555
C41_13 C44_13 1_555 1_555
C45_13 C48_13 1_555 1_555
C46_13 C47_13 1_555 1_555
Cd4_7 O2_13 1_555 1_555
Cd6_6 O7_13 1_555 1_555
K3_7 O2_13 1_555 1_555
O17_3 C5_13 1_555 1_555
O2_13 C26_13 1_555 1_555
O18_3 C3_13 1_555 1_555
O5_13 Cd4_7 1_555 1_555
O6_13 K3_7 1_555 1_555
O7_13 C17_13 1_555 1_555
O19_3 C5_13 1_555 1_555
O9_13 K3_7 1_555 1_555
O21_3 C3_13 1_555 1_555
O14_13 Cd4_7 1_555 1_555
C1_13 H1_13 1_555 1_555
C2_13 C1_13 1_555 1_555
C3_13 C8_13 1_555 1_555
C4_13 C1_13 1_555 1_555
C5_13 C2_13 1_555 1_555
C6_13 C4_13 1_555 1_555
H2_13 C6_13 1_555 1_555
C7_13 C11_13 1_555 1_555
C8_13 C9_13 1_555 1_555
C9_13 H3_13 1_555 1_555
C11_13 C6_13 1_555 1_555
H4_13 C11_13 1_555 1_555
C12_13 H5_13 1_555 1_555
C13_13 C7_13 1_555 1_555
H6_13 C13_13 1_555 1_555
C14_13 C16_13 1_555 1_555
C15_13 C12_13 1_555 1_555
C16_13 H7_13 1_555 1_555
C17_13 O6_13 1_555 1_555
C18_13 O5_13 1_555 1_555
C19_13 C4_13 1_555 1_555
C20_13 C21_13 1_555 1_555
C21_13 C15_13 1_555 1_555
H8_13 C21_13 1_555 1_555
C24_13 C12_13 1_555 1_555
H10_13 C24_13 1_555 1_555
C26_13 O14_13 1_555 1_555
C27_13 C19_13 1_555 1_555
H11_13 C27_13 1_555 1_555
C29_13 C8_13 1_555 1_555
H12_13 C29_13 1_555 1_555
C32_13 C9_13 1_555 1_555
C36_13 C2_13 1_555 1_555
H16_13 C36_13 1_555 1_555
C38_13 C20_13 1_555 1_555
H17_13 C38_13 1_555 1_555
O9_13 C18_13 1_555 1_555
C7_13 C17_13 1_555 1_555
C13_13 C19_13 1_555 1_555
C14_13 C26_13 1_555 1_555
C15_13 C18_13 1_555 1_555
C20_13 C32_13 1_555 1_555
C24_13 C32_13 1_555 1_555
C27_13 C36_13 1_555 1_555
C29_13 C38_13 1_555 1_555
Cd3_7 O2_14 1_555 1_555
Cd5_3 O7_14 1_555 1_555
K2_7 O2_14 1_555 1_555
O1_10 C5_14 1_555 1_555
O2_14 C26_14 1_555 1_555
O3_10 C3_14 1_555 1_555
O5_14 Cd3_7 1_555 1_555
O6_14 K2_7 1_555 1_555
O7_14 C17_14 1_555 1_555
O8_10 C5_14 1_555 1_555
O9_14 K2_7 1_555 1_555
O11_10 C3_14 1_555 1_555
O14_14 Cd3_7 1_555 1_555
C1_14 H1_14 1_555 1_555
C2_14 C1_14 1_555 1_555
C3_14 C8_14 1_555 1_555
C4_14 C1_14 1_555 1_555
C5_14 C2_14 1_555 1_555
C6_14 C4_14 1_555 1_555
H2_14 C6_14 1_555 1_555
C7_14 C11_14 1_555 1_555
C8_14 C9_14 1_555 1_555
C9_14 H3_14 1_555 1_555
C11_14 C6_14 1_555 1_555
H4_14 C11_14 1_555 1_555
C12_14 H5_14 1_555 1_555
C13_14 C7_14 1_555 1_555
H6_14 C13_14 1_555 1_555
C14_14 C16_14 1_555 1_555
C15_14 C12_14 1_555 1_555
C16_14 H7_14 1_555 1_555
C17_14 O6_14 1_555 1_555
C18_14 O5_14 1_555 1_555
C19_14 C4_14 1_555 1_555
C20_14 C21_14 1_555 1_555
C21_14 C15_14 1_555 1_555
H8_14 C21_14 1_555 1_555
C24_14 C12_14 1_555 1_555
H10_14 C24_14 1_555 1_555
C26_14 O14_14 1_555 1_555
C27_14 C19_14 1_555 1_555
H11_14 C27_14 1_555 1_555
C29_14 C8_14 1_555 1_555
H12_14 C29_14 1_555 1_555
C32_14 C9_14 1_555 1_555
C36_14 C2_14 1_555 1_555
H16_14 C36_14 1_555 1_555
C38_14 C20_14 1_555 1_555
H17_14 C38_14 1_555 1_555
Cd3_2 O3_10 1_555 1_555
Cd5_4 O1_10 1_555 1_555
K3 O1_10 1_555 1_555
K2 O3_10 1_555 1_555
O8_10 Cd5_4 1_555 1_555
O9_14 C18_14 1_555 1_555
O11_10 Cd3_2 1_555 1_555
C7_14 C17_14 1_555 1_555
C13_14 C19_14 1_555 1_555
C14_14 C26_14 1_555 1_555
C15_14 C18_14 1_555 1_555
C20_14 C32_14 1_555 1_555
C24_14 C32_14 1_555 1_555
C27_14 C36_14 1_555 1_555
C29_14 C38_14 1_555 1_555
O20_3 C31_14 1_555 1_555
O22_3 C31_14 1_555 1_555
O23_9 C39_14 1_555 1_555
O24_9 C39_14 1_555 1_555
C22_14 H9_14 1_555 1_555
C23_14 C10_14 1_555 1_555
C25_14 C22_14 1_555 1_555
C28_14 C33_14 1_555 1_555
C30_14 C25_14 1_555 1_555
H13_14 C30_14 1_555 1_555
C31_14 C25_14 1_555 1_555
C33_14 O4_14 1_555 1_555
H14_14 C34_14 1_555 1_555
C35_14 C10_14 1_555 1_555
H15_14 C35_14 1_555 1_555
C37_14 C43_14 1_555 1_555
C39_14 C45_14 1_555 1_555
C40_14 C23_14 1_555 1_555
H18_14 C40_14 1_555 1_555
C41_14 C28_14 1_555 1_555
H19_14 C41_14 1_555 1_555
C42_14 C28_14 1_555 1_555
H20_14 C42_14 1_555 1_555
C43_14 C42_14 1_555 1_555
C44_14 C37_14 1_555 1_555
H21_14 C44_14 1_555 1_555
C45_14 C46_14 1_555 1_555
C46_14 H22_14 1_555 1_555
C47_14 C43_14 1_555 1_555
H23_14 C47_14 1_555 1_555
C48_14 C37_14 1_555 1_555
H24_14 C48_14 1_555 1_555
O12_14 C33_14 1_555 1_555
C22_14 C23_14 1_555 1_555
C30_14 C35_14 1_555 1_555
C34_14 C40_14 1_555 1_555
C41_14 C44_14 1_555 1_555
C45_14 C48_14 1_555 1_555
C46_14 C47_14 1_555 1_555
O19_6 C5_15 1_555 1_555
H16_15 C36_15 1_555 1_555
Cd3_2 O2_15 1_555 1_555
Cd6 O7_15 1_555 1_555
K2 O2_15 1_555 1_555
O2_15 C26_15 1_555 1_555
O18_6 C3_15 1_555 1_555
O4_15 K2 1_555 1_555
O5_15 Cd3_2 1_555 1_555
O6_15 K2 1_555 1_555
O7_15 C17_15 1_555 1_555
O9_15 K2 1_555 1_555
O20_4 C31_15 1_555 1_555
O21_6 C3_15 1_555 1_555
O12_15 Cd6 1_555 1_555
O22_4 C31_15 1_555 1_555
O14_15 Cd3_2 1_555 1_555
O23_10 C39_15 1_555 1_555
C1_15 H1_15 1_555 1_555
O24_10 C39_15 1_555 1_555
C2_15 C1_15 1_555 1_555
C3_15 C8_15 1_555 1_555
C4_15 C1_15 1_555 1_555
C6_15 C4_15 1_555 1_555
H2_15 C6_15 1_555 1_555
C7_15 C11_15 1_555 1_555
C8_15 C9_15 1_555 1_555
C9_15 H3_15 1_555 1_555
C10_15 C16_15 1_555 1_555
C11_15 C6_15 1_555 1_555
H4_15 C11_15 1_555 1_555
C12_15 H5_15 1_555 1_555
C13_15 C7_15 1_555 1_555
H6_15 C13_15 1_555 1_555
C14_15 C16_15 1_555 1_555
C15_15 C12_15 1_555 1_555
C16_15 H7_15 1_555 1_555
C17_15 O6_15 1_555 1_555
C18_15 O5_15 1_555 1_555
C19_15 C4_15 1_555 1_555
C20_15 C21_15 1_555 1_555
C21_15 C15_15 1_555 1_555
H8_15 C21_15 1_555 1_555
C22_15 H9_15 1_555 1_555
C23_15 C10_15 1_555 1_555
C24_15 C12_15 1_555 1_555
H10_15 C24_15 1_555 1_555
C25_15 C22_15 1_555 1_555
C26_15 O14_15 1_555 1_555
C27_15 C19_15 1_555 1_555
H11_15 C27_15 1_555 1_555
C28_15 C33_15 1_555 1_555
C29_15 C8_15 1_555 1_555
H12_15 C29_15 1_555 1_555
C30_15 C25_15 1_555 1_555
H13_15 C30_15 1_555 1_555
C31_15 C25_15 1_555 1_555
C32_15 C9_15 1_555 1_555
C33_15 O4_15 1_555 1_555
C34_15 C14_15 1_555 1_555
H14_15 C34_15 1_555 1_555
C35_15 C10_15 1_555 1_555
H15_15 C35_15 1_555 1_555
C37_15 C43_15 1_555 1_555
C38_15 C20_15 1_555 1_555
H17_15 C38_15 1_555 1_555
C39_15 C45_15 1_555 1_555
C40_15 C23_15 1_555 1_555
H18_15 C40_15 1_555 1_555
C41_15 C28_15 1_555 1_555
H19_15 C41_15 1_555 1_555
C42_15 C28_15 1_555 1_555
H20_15 C42_15 1_555 1_555
C43_15 C42_15 1_555 1_555
C44_15 C37_15 1_555 1_555
H21_15 C44_15 1_555 1_555
C45_15 C46_15 1_555 1_555
C46_15 H22_15 1_555 1_555
C47_15 C43_15 1_555 1_555
H23_15 C47_15 1_555 1_555
C48_15 C37_15 1_555 1_555
H24_15 C48_15 1_555 1_555
O9_15 C18_15 1_555 1_555
O12_15 C33_15 1_555 1_555
C7_15 C17_15 1_555 1_555
C13_15 C19_15 1_555 1_555
C14_15 C26_15 1_555 1_555
C15_15 C18_15 1_555 1_555
C20_15 C32_15 1_555 1_555
C22_15 C23_15 1_555 1_555
C24_15 C32_15 1_555 1_555
C29_15 C38_15 1_555 1_555
C30_15 C35_15 1_555 1_555
C34_15 C40_15 1_555 1_555
C41_15 C44_15 1_555 1_555
C45_15 C48_15 1_555 1_555
C46_15 C47_15 1_555 1_555
O19_4 C5_16 1_555 1_555
H16_16 C36_16 1_555 1_555
Cd4 O2_16 1_555 1_555
O2_16 C26_16 1_555 1_555
O20_6 C31_16 1_555 1_555
O22_6 C31_16 1_555 1_555
O14_16 Cd4 1_555 1_555
O23_2 C39_16 1_555 1_555
C1_16 H1_16 1_555 1_555
O24_2 C39_16 1_555 1_555
C2_16 C1_16 1_555 1_555
C4_16 C1_16 1_555 1_555
C6_16 C4_16 1_555 1_555
H2_16 C6_16 1_555 1_555
C7_16 C11_16 1_555 1_555
C10_16 C16_16 1_555 1_555
C11_16 C6_16 1_555 1_555
H4_16 C11_16 1_555 1_555
C13_16 C7_16 1_555 1_555
C14_16 C16_16 1_555 1_555
C16_16 H7_16 1_555 1_555
C19_16 C4_16 1_555 1_555
C22_16 H9_16 1_555 1_555
C23_16 C10_16 1_555 1_555
C25_16 C22_16 1_555 1_555
C26_16 O14_16 1_555 1_555
C27_16 C19_16 1_555 1_555
H11_16 C27_16 1_555 1_555
C30_16 C25_16 1_555 1_555
H13_16 C30_16 1_555 1_555
C31_16 C25_16 1_555 1_555
C34_16 C14_16 1_555 1_555
H14_16 C34_16 1_555 1_555
C35_16 C10_16 1_555 1_555
H15_16 C35_16 1_555 1_555
C37_16 C43_16 1_555 1_555
C39_16 C45_16 1_555 1_555
C40_16 C23_16 1_555 1_555
H18_16 C40_16 1_555 1_555
C41_16 C28_16 1_555 1_555
H19_16 C41_16 1_555 1_555
C42_16 C28_16 1_555 1_555
C43_16 C42_16 1_555 1_555
C44_16 C37_16 1_555 1_555
H21_16 C44_16 1_555 1_555
C45_16 C46_16 1_555 1_555
C46_16 H22_16 1_555 1_555
C47_16 C43_16 1_555 1_555
H23_16 C47_16 1_555 1_555
C48_16 C37_16 1_555 1_555
H24_16 C48_16 1_555 1_555
C13_16 C19_16 1_555 1_555
C14_16 C26_16 1_555 1_555
C22_16 C23_16 1_555 1_555
C30_16 C35_16 1_555 1_555
C34_16 C40_16 1_555 1_555
C41_16 C44_16 1_555 1_555
C45_16 C48_16 1_555 1_555
C46_16 C47_16 1_555 1_555
Cd5_4 O7_16 1_555 1_555
O4_16 K3 1_555 1_555
O6_16 K3 1_555 1_555
O7_16 C17_16 1_555 1_555
O9_16 K3 1_555 1_555
O12_16 Cd5_4 1_555 1_555
C12_16 H5_16 1_555 1_555
C15_16 C12_16 1_555 1_555
C17_16 O6_16 1_555 1_555
C18_16 O5_16 1_555 1_555
C20_16 C21_16 1_555 1_555
C21_16 C15_16 1_555 1_555
H8_16 C21_16 1_555 1_555
C24_16 C12_16 1_555 1_555
H10_16 C24_16 1_555 1_555
H12_16 C29_16 1_555 1_555
C33_16 O4_16 1_555 1_555
C38_16 C20_16 1_555 1_555
H17_16 C38_16 1_555 1_555
O9_16 C18_16 1_555 1_555
O12_16 C33_16 1_555 1_555
C15_16 C18_16 1_555 1_555
C20_16 C32_16 1_555 1_555
C24_16 C32_16 1_555 1_555
C29_16 C38_16 1_555 1_555
O18_4 C3_16 1_555 1_555
O21_4 C3_16 1_555 1_555
C3_16 C8_16 1_555 1_555
C8_16 C9_16 1_555 1_555
C9_16 H3_16 1_555 1_555
N1 H25 1_555 1_555
C49 N1 1_555 1_555
H26 C49 1_555 1_555
H27 C49 1_555 1_555
H28 C49 1_555 1_555
H29 N1 1_555 1_555
C50 N1 1_555 1_555
H30 C50 1_555 1_555
H31 C50 1_555 1_555
H32 C50 1_555 1_555
N1_2 H25_2 1_555 1_555
C49_2 N1_2 1_555 1_555
H26_2 C49_2 1_555 1_555
H27_2 C49_2 1_555 1_555
H28_2 C49_2 1_555 1_555
H29_2 N1_2 1_555 1_555
C50_2 N1_2 1_555 1_555
H30_2 C50_2 1_555 1_555
H31_2 C50_2 1_555 1_555
H32_2 C50_2 1_555 1_555
H29_3 N1_3 1_555 1_555
C50_3 N1_3 1_555 1_555
H30_3 C50_3 1_555 1_555
H31_3 C50_3 1_555 1_555
H32_3 C50_3 1_555 1_555
N1_4 H25_3 1_555 1_555
C49_3 N1_4 1_555 1_555
H26_3 C49_3 1_555 1_555
H27_3 C49_3 1_555 1_555
H28_3 C49_3 1_555 1_555
C49_4 N1_5 1_555 1_555
H26_4 C49_4 1_555 1_555
H27_4 C49_4 1_555 1_555
H29_4 N1_5 1_555 1_555
N1_6 H25_4 1_555 1_555
C50_4 N1_6 1_555 1_555
H30_4 C50_4 1_555 1_555
H31_4 C50_4 1_555 1_555
N1_7 H25_5 1_555 1_555
C49_5 N1_7 1_555 1_555
H26_5 C49_5 1_555 1_555
H27_5 C49_5 1_555 1_555
H28_5 C49_5 1_555 1_555
H29_5 N1_7 1_555 1_555
C50_5 N1_7 1_555 1_555
H30_5 C50_5 1_555 1_555
H31_5 C50_5 1_555 1_555
H32_5 C50_5 1_555 1_555
N1_8 H25_6 1_555 1_555
C49_6 N1_8 1_555 1_555
H26_6 C49_6 1_555 1_555
H27_6 C49_6 1_555 1_555
H28_6 C49_6 1_555 1_555
H29_6 N1_8 1_555 1_555
C50_6 N1_8 1_555 1_555
H30_6 C50_6 1_555 1_555
H31_6 C50_6 1_555 1_555
H32_6 C50_6 1_555 1_555
C50_7 N1_9 1_555 1_555
H30_7 C50_7 1_555 1_555
H31_7 C50_7 1_555 1_555
H29_7 N1_10 1_555 1_555
N1_11 H25_7 1_555 1_555
C49_7 N1_12 1_555 1_555
H26_7 C49_7 1_555 1_555
H27_7 C49_7 1_555 1_555
N1_13 H25_8 1_555 1_555
C49_8 N1_13 1_555 1_555
H26_8 C49_8 1_555 1_555
H27_8 C49_8 1_555 1_555
H28_8 C49_8 1_555 1_555
H29_8 N1_13 1_555 1_555
C50_8 N1_13 1_555 1_555
H30_8 C50_8 1_555 1_555
H31_8 C50_8 1_555 1_555
H32_8 C50_8 1_555 1_555

#END
