
###############################################################################
#
# This file contains modified crystal structure data generated from the
# MOF subset of the Cambridge Structural Database (CSD) v543 
# hosted by the Cambridge Crystallographic Data Centre (CCDC).
#
# This work is licensed under the Creative Commons
# Attribution-NonCommercial-ShareAlike 4.0 International License.
# To view a copy of this license, visit
# http://creativecommons.org/licenses/by-nc-sa/4.0/
# or send a letter to
# Creative Commons, PO Box 1866, Mountain View, CA 94042, USA.
#
# CIF created using the CSD Python API on 29 September 2022
# The structure has been converted into the P1 space group
# The structure has a 3D framework
# The original CSD entry FAVFIU is in the monoclinic crystal system
# The framework has been calculated to contain at least 10.0% void space
# The void calculation uses a probe of radius 1.32A, grid spacing 0.4
# The framework is charged, counterions have been retained in the structure
# H atom positions have been added when not included in the experimental data
#
###############################################################################

data_FAVFIU
_chemical_formula_moiety         '(C308 H168 Cd16 Cs24 O112 2+)n'
_symmetry_cell_setting           triclinic
_symmetry_space_group_name_H-M   'P 1'
_symmetry_Int_Tables_number      1
_space_group_name_Hall           'P 1'
loop_
_symmetry_equiv_pos_site_id
_symmetry_equiv_pos_as_xyz
1 x,y,z
_cell_length_a                   27.806(9)
_cell_length_b                   13.792(4)
_cell_length_c                   28.738(8)
_cell_angle_alpha                90
_cell_angle_beta                 108.289(6)
_cell_angle_gamma                90
_cell_volume                     10464.3
loop_
_atom_site_label
_atom_site_type_symbol
_atom_site_fract_x
_atom_site_fract_y
_atom_site_fract_z
Cs1 Cs 0.40046(4) 0.44689(7) 0.38389(3)
Cs1_2 Cs 0.59954(4) 0.44689(7) 0.11611(3)
Cs1_3 Cs 0.90046(4) 0.94689(7) 0.38389(3)
Cs1_4 Cs 0.09954(4) 0.94689(7) 0.11611(3)
Cs1_5 Cs 0.59954(4) 0.55311(7) 0.61611(3)
Cs1_6 Cs 0.40046(4) 0.55311(7) 0.88389(3)
Cs1_7 Cs 0.09954(4) 0.05311(7) 0.61611(3)
Cs1_8 Cs 0.90046(4) 0.05311(7) 0.88389(3)
Cs2 Cs 0.27787(5) 0.24536(7) 0.28631(4)
Cs2_2 Cs 0.72213(5) 0.24536(7) 0.21369(4)
Cs2_3 Cs 0.77787(5) 0.74536(7) 0.28631(4)
Cs2_4 Cs 0.22213(5) 0.74536(7) 0.21369(4)
Cs2_5 Cs 0.72213(5) 0.75464(7) 0.71369(4)
Cs2_6 Cs 0.27787(5) 0.75464(7) 0.78631(4)
Cs2_7 Cs 0.22213(5) 0.25464(7) 0.71369(4)
Cs2_8 Cs 0.77787(5) 0.25464(7) 0.78631(4)
O21 O 0.5936(3) 0.2792(6) 0.0447(3)
O22 O 0.5291(3) 0.1830(6) 0.0070(3)
C56 C 0.5834(5) 0.0196(10) 0.0539(5)
H28 H 0.5511 0.0110 0.0318
C57 C 0.6034(5) 0.1104(9) 0.0620(5)
C58 C 0.6528(5) 0.1240(10) 0.0944(5)
H29 H 0.6672 0.1854 0.0988
C59 C 0.6795(5) 0.0460(10) 0.1194(5)
H30 H 0.7113 0.0564 0.1421
C62 C 0.5734(5) 0.1966(10) 0.0367(5)
O29 O 0.4806(4) 0.3713(7) 0.0413(3)
O31 O 0.5580(4) 0.5016(7) 0.0018(3)
Cd2 Cd 0.47825(4) 0.34997(7) 0.51253(3)
O3 O 0.4064(3) 0.2792(6) 0.4553(3)
O4 O 0.4709(3) 0.1830(6) 0.4930(3)
O9 O 0.4530(4) 0.3036(7) 0.5815(3)
O10 O 0.5248(4) 0.3821(7) 0.5924(3)
C6 C 0.4166(5) 0.0196(10) 0.4461(5)
H3 H 0.4489 0.0110 0.4682
C7 C 0.3966(5) 0.1104(9) 0.4380(5)
C8 C 0.3472(5) 0.1240(10) 0.4056(5)
H4 H 0.3328 0.1854 0.4012
C9 C 0.3205(5) 0.0460(10) 0.3806(5)
H5 H 0.2887 0.0564 0.3579
C12 C 0.4266(5) 0.1966(10) 0.4633(5)
C25 C 0.4942(6) 0.3383(10) 0.6092(5)
C26 C 0.5052(5) 0.3351(10) 0.6640(5)
C27 C 0.5560(6) 0.3369(10) 0.6954(5)
H13 H 0.5827 0.3414 0.6825
C28 C 0.5650(6) 0.3319(10) 0.7449(5)
H14 H 0.5984 0.3295 0.7654
C29 C 0.5254(5) 0.3302(10) 0.7660(5)
C30 C 0.5332(6) 0.3322(10) 0.8164(5)
H15 H 0.5663 0.3316 0.8375
O15 O 0.5470(4) 0.3036(7) 0.9185(3)
O16 O 0.4752(4) 0.3821(7) 0.9076(3)
C39 C 0.5058(6) 0.3383(10) 0.8908(5)
C40 C 0.4948(5) 0.3351(10) 0.8360(5)
C41 C 0.4440(6) 0.3369(10) 0.8046(5)
H21 H 0.4173 0.3414 0.8175
C42 C 0.4350(6) 0.3319(10) 0.7551(5)
H22 H 0.4016 0.3295 0.7346
C43 C 0.4746(5) 0.3302(10) 0.7340(5)
C44 C 0.4668(6) 0.3322(10) 0.6836(5)
H23 H 0.4337 0.3316 0.6625
Cd4 Cd 0.52175(4) 0.34997(7) 0.98747(3)
O30 O 0.5194(4) 0.3713(7) 0.4587(3)
O32 O 0.4420(4) 0.5016(7) 0.4982(3)
Cd3 Cd 0.74088(4) 0.51970(6) 0.19440(3)
O19 O 0.6725(4) 0.6113(7) 0.1462(3)
O20 O 0.7416(4) 0.6989(7) 0.1785(4)
O23 O 0.7193(4) 0.5627(7) 0.2682(3)
O24 O 0.6764(4) 0.4415(7) 0.2240(3)
O26 O 0.5580(4) 0.4984(7) 0.5018(3)
O27 O 0.8002(4) 0.4052(8) 0.2406(4)
O28 O 0.8283(4) 0.5544(8) 0.2452(4)
C51 C 0.6958(6) 0.6917(11) 0.1527(5)
C52 C 0.6667(6) 0.7782(11) 0.1285(5)
C53 C 0.6168(6) 0.7664(11) 0.0969(5)
H26 H 0.6018 0.7054 0.0934
C54 C 0.5899(6) 0.8429(10) 0.0715(5)
H27 H 0.5577 0.8332 0.0495
C55 C 0.6111(6) 0.9365(10) 0.0788(5)
C60 C 0.6603(5) 0.9512(10) 0.1114(5)
C61 C 0.6881(6) 0.8695(11) 0.1356(5)
H31 H 0.7209 0.8775 0.1566
C63 C 0.6851(6) 0.4965(11) 0.2599(5)
C64 C 0.6526(16) 0.475(3) 0.2926(16)
C65 C 0.6650(9) 0.518(2) 0.3380(10)
H32 H 0.6925 0.5604 0.3476
C66 C 0.637(2) 0.500(5) 0.370(2)
C67 C 0.6496(9) 0.5458(16) 0.4150(9)
H33 H 0.6759 0.5904 0.4240
C68 C 0.6226(10) 0.5251(18) 0.4467(11)
H34 H 0.6321 0.5533 0.4777
C69 C 0.582(3) 0.463(6) 0.433(3)
C70 C 0.5689(13) 0.418(2) 0.3876(14)
H35 H 0.5417 0.3757 0.3784
C71 C 0.596(2) 0.437(4) 0.356(2)
C72 C 0.5833(9) 0.3948(15) 0.3096(8)
H36 H 0.5553 0.3540 0.2994
C73 C 0.6116(10) 0.4131(18) 0.2789(11)
H37 H 0.6028 0.3832 0.2484
C74 C 0.5508(6) 0.4430(10) 0.4665(5)
C75 C 0.8351(6) 0.4647(13) 0.2551(5)
C76 C 0.8887(6) 0.4349(14) 0.2861(6)
H38 H 0.8890 0.4211 0.3190
H39 H 0.9118 0.4869 0.2867
H40 H 0.8988 0.3782 0.2722
Cd8 Cd 0.52175(4) 0.65003(7) 0.48747(3)
O33 O 0.7162(4) 0.3974(7) 0.1306(3)
O34 O 0.7807(4) 0.4887(7) 0.1310(3)
Cd1 Cd 0.25912(4) 0.51970(6) 0.30560(3)
O1 O 0.3275(4) 0.6113(7) 0.3538(3)
O2 O 0.2584(4) 0.6989(7) 0.3215(4)
O5 O 0.2807(4) 0.5627(7) 0.2318(3)
O6 O 0.3236(4) 0.4415(7) 0.2760(3)
O11 O 0.2838(4) 0.3974(7) 0.3694(3)
O12 O 0.2193(4) 0.4887(7) 0.3690(3)
O13 O 0.1998(4) 0.4052(8) 0.2594(4)
O14 O 0.1717(4) 0.5544(8) 0.2548(4)
C1 C 0.3042(6) 0.6917(11) 0.3473(5)
C2 C 0.3333(6) 0.7782(11) 0.3715(5)
C3 C 0.3832(6) 0.7664(11) 0.4031(5)
H1 H 0.3982 0.7054 0.4066
C4 C 0.4101(6) 0.8429(10) 0.4285(5)
H2 H 0.4423 0.8332 0.4505
C5 C 0.3889(6) 0.9365(10) 0.4212(5)
C10 C 0.3397(5) 0.9512(10) 0.3886(5)
C11 C 0.3119(6) 0.8695(11) 0.3644(5)
H6 H 0.2791 0.8775 0.3434
C13 C 0.3149(6) 0.4965(11) 0.2401(5)
C14 C 0.3474(16) 0.475(3) 0.2074(16)
C15 C 0.3350(9) 0.518(2) 0.1620(10)
H7 H 0.3075 0.5604 0.1524
C16 C 0.363(2) 0.500(5) 0.130(2)
C17 C 0.3504(9) 0.5458(16) 0.0850(9)
H8 H 0.3241 0.5904 0.0760
C18 C 0.3774(10) 0.5251(18) 0.0533(11)
H9 H 0.3679 0.5533 0.0223
C19 C 0.418(3) 0.463(6) 0.067(3)
C20 C 0.4311(13) 0.418(2) 0.1124(14)
H10 H 0.4583 0.3757 0.1216
C21 C 0.404(2) 0.437(4) 0.144(2)
C22 C 0.4167(9) 0.3948(15) 0.1904(8)
H11 H 0.4447 0.3540 0.2006
C23 C 0.3884(10) 0.4131(18) 0.2211(11)
H12 H 0.3972 0.3832 0.2516
C24 C 0.4492(6) 0.4430(10) 0.0335(5)
C31 C 0.2493(6) 0.4200(11) 0.3861(5)
C32 C 0.2407(5) 0.3572(10) 0.4269(5)
C33 C 0.2807(5) 0.3087(10) 0.4579(5)
C34 C 0.1928(6) 0.3545(11) 0.4340(5)
H16 H 0.1658 0.3895 0.4135
C35 C 0.1863(6) 0.3009(10) 0.4708(5)
H17 H 0.1543 0.2989 0.4747
C36 C 0.2259(5) 0.2477(10) 0.5036(5)
C37 C 0.1649(6) 0.4647(13) 0.2449(5)
C38 C 0.1113(6) 0.4349(14) 0.2139(6)
H18 H 0.1110 0.4211 0.1810
H19 H 0.0882 0.4869 0.2133
H20 H 0.1012 0.3782 0.2278
O17 O 0.2162(4) 0.1026(7) 0.6306(3)
O18 O 0.2807(4) 0.0113(7) 0.6310(3)
C45 C 0.2507(6) 0.0800(11) 0.6139(5)
C46 C 0.2593(5) 0.1428(10) 0.5731(5)
C47 C 0.2193(5) 0.1913(10) 0.5421(5)
C48 C 0.3072(6) 0.1455(11) 0.5660(5)
H24 H 0.3342 0.1105 0.5865
C49 C 0.3137(6) 0.1991(10) 0.5292(5)
H25 H 0.3457 0.2011 0.5253
C50 C 0.2741(5) 0.2523(10) 0.4964(5)
Cd9 Cd 0.47825(4) 0.65003(7) 0.01253(3)
H41 H 0.317881 0.313485 0.452944
H42 H 0.182119 0.186515 0.547056
O8 O 0.4420(4) 0.4984(7) 0.9982(3)
Cd5 Cd 0.24088(4) 0.98030(6) 0.69440(3)
C31_2 C 0.7507(6) 0.4200(11) 0.1139(5)
C32_2 C 0.7593(5) 0.3572(10) 0.0731(5)
C33_2 C 0.7193(5) 0.3087(10) 0.0421(5)
C34_2 C 0.8072(6) 0.3545(11) 0.0660(5)
H16_2 H 0.8342 0.3895 0.0865
C35_2 C 0.8137(6) 0.3009(10) 0.0292(5)
H17_2 H 0.8457 0.2989 0.0253
C50_2 C 0.7259(5) 0.2523(10) 0.0036(5)
H41_2 H 0.682119 0.313485 0.0470557
C36_2 C 0.7741(5) 0.2477(10) 0.9964(5)
O17_2 O 0.7838(4) 0.1026(7) 0.8694(3)
O18_2 O 0.7193(4) 0.0113(7) 0.8690(3)
C45_2 C 0.7493(6) 0.0800(11) 0.8861(5)
C46_2 C 0.7407(5) 0.1428(10) 0.9269(5)
C47_2 C 0.7807(5) 0.1913(10) 0.9579(5)
C48_2 C 0.6928(6) 0.1455(11) 0.9340(5)
H24_2 H 0.6658 0.1105 0.9135
C49_2 C 0.6863(6) 0.1991(10) 0.9708(5)
H25_2 H 0.6543 0.2011 0.9747
H42_2 H 0.817881 0.186515 0.952944
Cd5_2 Cd 0.75912(4) 0.98030(6) 0.80560(3)
Cd3_2 Cd 0.24088(4) 0.01970(6) 0.19440(3)
O19_2 O 0.1725(4) 0.1113(7) 0.1462(3)
O20_2 O 0.2416(4) 0.1989(7) 0.1785(4)
O21_2 O 0.0936(3) 0.7792(6) 0.0447(3)
O22_2 O 0.0291(3) 0.6830(6) 0.0070(3)
O23_2 O 0.2193(4) 0.0627(7) 0.2682(3)
O28_2 O 0.3283(4) 0.0544(8) 0.2452(4)
C51_2 C 0.1958(6) 0.1917(11) 0.1527(5)
C52_2 C 0.1667(6) 0.2782(11) 0.1285(5)
C53_2 C 0.1168(6) 0.2664(11) 0.0969(5)
H26_2 H 0.1018 0.2054 0.0934
C54_2 C 0.0899(6) 0.3429(10) 0.0715(5)
H27_2 H 0.0577 0.3332 0.0495
C55_2 C 0.1111(6) 0.4365(10) 0.0788(5)
C56_2 C 0.0834(5) 0.5196(10) 0.0539(5)
H28_2 H 0.0511 0.5110 0.0318
C57_2 C 0.1034(5) 0.6104(9) 0.0620(5)
C58_2 C 0.1528(5) 0.6240(10) 0.0944(5)
H29_2 H 0.1672 0.6854 0.0988
C59_2 C 0.1795(5) 0.5460(10) 0.1194(5)
H30_2 H 0.2113 0.5564 0.1421
C60_2 C 0.1603(5) 0.4512(10) 0.1114(5)
C61_2 C 0.1881(6) 0.3695(11) 0.1356(5)
H31_2 H 0.2209 0.3775 0.1566
C62_2 C 0.0734(5) 0.6966(10) 0.0367(5)
C65_2 C 0.1650(9) 0.018(2) 0.3380(10)
H32_2 H 0.1925 0.0604 0.3476
C66_2 C 0.137(2) -0.000(5) 0.370(2)
C67_2 C 0.1496(9) 0.0458(16) 0.4150(9)
H33_2 H 0.1759 0.0904 0.4240
C68_2 C 0.1226(10) 0.0251(18) 0.4467(11)
H34_2 H 0.1321 0.0533 0.4777
Cd8_2 Cd 0.02175(4) 0.15003(7) 0.48747(3)
O10_2 O 0.0248(4) 0.8821(7) 0.5924(3)
C26_2 C 0.0052(5) 0.8351(10) 0.6640(5)
C27_2 C 0.0560(6) 0.8369(10) 0.6954(5)
H13_2 H 0.0827 0.8414 0.6825
C28_2 C 0.0650(6) 0.8319(10) 0.7449(5)
H14_2 H 0.0984 0.8295 0.7654
C29_2 C 0.0254(5) 0.8302(10) 0.7660(5)
C30_2 C 0.0332(6) 0.8322(10) 0.8164(5)
H15_2 H 0.0663 0.8316 0.8375
O15_2 O 0.0470(4) 0.8036(7) 0.9185(3)
C39_2 C 0.0058(6) 0.8383(10) 0.8908(5)
Cd4_2 Cd 0.02175(4) 0.84997(7) 0.98747(3)
O30_2 O 0.0194(4) 0.8713(7) 0.4587(3)
O24_2 O 0.1764(4) 0.9415(7) 0.2240(3)
O26_2 O 0.0580(4) 0.9984(7) 0.5018(3)
O27_2 O 0.3002(4) 0.9052(8) 0.2406(4)
C63_2 C 0.1851(6) 0.9965(11) 0.2599(5)
C64_2 C 0.1526(16) 0.975(3) 0.2926(16)
C66_3 C 0.137(2) 1.000(5) 0.370(2)
C69_2 C 0.082(3) 0.963(6) 0.433(3)
C70_2 C 0.0689(13) 0.918(2) 0.3876(14)
H35_2 H 0.0417 0.8757 0.3784
C71_2 C 0.096(2) 0.937(4) 0.356(2)
C72_2 C 0.0833(9) 0.8948(15) 0.3096(8)
H36_2 H 0.0553 0.8540 0.2994
C73_2 C 0.1116(10) 0.9131(18) 0.2789(11)
H37_2 H 0.1028 0.8832 0.2484
C74_2 C 0.0508(6) 0.9430(10) 0.4665(5)
C75_2 C 0.3351(6) 0.9647(13) 0.2551(5)
C76_2 C 0.3887(6) 0.9349(14) 0.2861(6)
H38_2 H 0.3890 0.9211 0.3190
H39_2 H 0.4118 0.9869 0.2867
H40_2 H 0.3988 0.8782 0.2722
O33_2 O 0.2162(4) 0.8974(7) 0.1306(3)
O34_2 O 0.2807(4) 0.9887(7) 0.1310(3)
O32_2 O 0.9420(4) 0.0016(7) 0.4982(3)
O29_2 O 0.9806(4) 0.8713(7) 0.0413(3)
Cd1_2 Cd 0.75912(4) 0.01970(6) 0.30560(3)
Cd2_2 Cd 0.97825(4) 0.84997(7) 0.51253(3)
O1_2 O 0.8275(4) 0.1113(7) 0.3538(3)
O2_2 O 0.7584(4) 0.1989(7) 0.3215(4)
O3_2 O 0.9064(3) 0.7792(6) 0.4553(3)
O4_2 O 0.9709(3) 0.6830(6) 0.4930(3)
O5_2 O 0.7807(4) 0.0627(7) 0.2318(3)
O9_2 O 0.9530(4) 0.8036(7) 0.5815(3)
O14_2 O 0.6717(4) 0.0544(8) 0.2548(4)
C1_2 C 0.8042(6) 0.1917(11) 0.3473(5)
C2_2 C 0.8333(6) 0.2782(11) 0.3715(5)
C3_2 C 0.8832(6) 0.2664(11) 0.4031(5)
H1_2 H 0.8982 0.2054 0.4066
C4_2 C 0.9101(6) 0.3429(10) 0.4285(5)
H2_2 H 0.9423 0.3332 0.4505
C5_2 C 0.8889(6) 0.4365(10) 0.4212(5)
C6_2 C 0.9166(5) 0.5196(10) 0.4461(5)
H3_2 H 0.9489 0.5110 0.4682
C7_2 C 0.8966(5) 0.6104(9) 0.4380(5)
C8_2 C 0.8472(5) 0.6240(10) 0.4056(5)
H4_2 H 0.8328 0.6854 0.4012
C9_2 C 0.8205(5) 0.5460(10) 0.3806(5)
H5_2 H 0.7887 0.5564 0.3579
C10_2 C 0.8397(5) 0.4512(10) 0.3886(5)
C11_2 C 0.8119(6) 0.3695(11) 0.3644(5)
H6_2 H 0.7791 0.3775 0.3434
C12_2 C 0.9266(5) 0.6966(10) 0.4633(5)
C15_2 C 0.8350(9) 0.018(2) 0.1620(10)
H7_2 H 0.8075 0.0604 0.1524
C16_2 C 0.863(2) -0.000(5) 0.130(2)
C17_2 C 0.8504(9) 0.0458(16) 0.0850(9)
H8_2 H 0.8241 0.0904 0.0760
C18_2 C 0.8774(10) 0.0251(18) 0.0533(11)
H9_2 H 0.8679 0.0533 0.0223
C25_2 C 0.9942(6) 0.8383(10) 0.6092(5)
O16_2 O 0.9752(4) 0.8821(7) 0.9076(3)
C40_2 C 0.9948(5) 0.8351(10) 0.8360(5)
C41_2 C 0.9440(6) 0.8369(10) 0.8046(5)
H21_2 H 0.9173 0.8414 0.8175
C42_2 C 0.9350(6) 0.8319(10) 0.7551(5)
H22_2 H 0.9016 0.8295 0.7346
C43_2 C 0.9746(5) 0.8302(10) 0.7340(5)
C44_2 C 0.9668(6) 0.8322(10) 0.6836(5)
H23_2 H 0.9337 0.8316 0.6625
Cd9_2 Cd 0.97825(4) 0.15003(7) 0.01253(3)
O6_2 O 0.8236(4) 0.9415(7) 0.2760(3)
O11_2 O 0.7838(4) 0.8974(7) 0.3694(3)
O12_2 O 0.7193(4) 0.9887(7) 0.3690(3)
O13_2 O 0.6998(4) 0.9052(8) 0.2594(4)
C13_2 C 0.8149(6) 0.9965(11) 0.2401(5)
C14_2 C 0.8474(16) 0.975(3) 0.2074(16)
C16_3 C 0.863(2) 1.000(5) 0.130(2)
C19_2 C 0.918(3) 0.963(6) 0.067(3)
C20_2 C 0.9311(13) 0.918(2) 0.1124(14)
H10_2 H 0.9583 0.8757 0.1216
C21_2 C 0.904(2) 0.937(4) 0.144(2)
C22_2 C 0.9167(9) 0.8948(15) 0.1904(8)
H11_2 H 0.9447 0.8540 0.2006
C23_2 C 0.8884(10) 0.9131(18) 0.2211(11)
H12_2 H 0.8972 0.8832 0.2516
C24_2 C 0.9492(6) 0.9430(10) 0.0335(5)
C31_3 C 0.7493(6) 0.9200(11) 0.3861(5)
C32_3 C 0.7407(5) 0.8572(10) 0.4269(5)
C33_3 C 0.7807(5) 0.8087(10) 0.4579(5)
C34_3 C 0.6928(6) 0.8545(11) 0.4340(5)
H16_3 H 0.6658 0.8895 0.4135
C35_3 C 0.6863(6) 0.8009(10) 0.4708(5)
H17_3 H 0.6543 0.7989 0.4747
C36_3 C 0.7259(5) 0.7477(10) 0.5036(5)
C37_2 C 0.6649(6) 0.9647(13) 0.2449(5)
C38_2 C 0.6113(6) 0.9349(14) 0.2139(6)
H18_2 H 0.6110 0.9211 0.1810
H19_2 H 0.5882 0.9869 0.2133
H20_2 H 0.6012 0.8782 0.2278
O17_3 O 0.7162(4) 0.6026(7) 0.6306(3)
O18_3 O 0.7807(4) 0.5113(7) 0.6310(3)
C45_3 C 0.7507(6) 0.5800(11) 0.6139(5)
C46_3 C 0.7593(5) 0.6428(10) 0.5731(5)
C47_3 C 0.7193(5) 0.6913(10) 0.5421(5)
C48_3 C 0.8072(6) 0.6455(11) 0.5660(5)
H24_3 H 0.8342 0.6105 0.5865
C49_3 C 0.8137(6) 0.6991(10) 0.5292(5)
H25_3 H 0.8457 0.7011 0.5253
C50_3 C 0.7741(5) 0.7523(10) 0.4964(5)
Cd5_3 Cd 0.74088(4) 0.48030(6) 0.69440(3)
H41_3 H 0.817881 0.813485 0.452944
H42_3 H 0.682119 0.686515 0.547056
C31_4 C 0.2507(6) 0.9200(11) 0.1139(5)
C32_4 C 0.2593(5) 0.8572(10) 0.0731(5)
C33_4 C 0.2193(5) 0.8087(10) 0.0421(5)
C34_4 C 0.3072(6) 0.8545(11) 0.0660(5)
H16_4 H 0.3342 0.8895 0.0865
C35_4 C 0.3137(6) 0.8009(10) 0.0292(5)
H17_4 H 0.3457 0.7989 0.0253
C50_4 C 0.2259(5) 0.7523(10) 0.0036(5)
H41_4 H 0.182119 0.813485 0.0470557
C36_4 C 0.2741(5) 0.7477(10) 0.9964(5)
O17_4 O 0.2838(4) 0.6026(7) 0.8694(3)
O18_4 O 0.2193(4) 0.5113(7) 0.8690(3)
C45_4 C 0.2493(6) 0.5800(11) 0.8861(5)
C46_4 C 0.2407(5) 0.6428(10) 0.9269(5)
C47_4 C 0.2807(5) 0.6913(10) 0.9579(5)
C48_4 C 0.1928(6) 0.6455(11) 0.9340(5)
H24_4 H 0.1658 0.6105 0.9135
C49_4 C 0.1863(6) 0.6991(10) 0.9708(5)
H25_4 H 0.1543 0.7011 0.9747
Cd5_4 Cd 0.25912(4) 0.48030(6) 0.80560(3)
H42_4 H 0.317881 0.686515 0.952944
O1_3 O 0.6725(4) 0.3887(7) 0.6462(3)
O2_3 O 0.7416(4) 0.3011(7) 0.6785(4)
O5_3 O 0.7193(4) 0.4373(7) 0.7682(3)
O6_3 O 0.6764(4) 0.5585(7) 0.7240(3)
O7 O 0.5194(4) 0.6287(7) 0.9587(3)
O13_3 O 0.8002(4) 0.5948(8) 0.7406(4)
O14_3 O 0.8283(4) 0.4456(8) 0.7452(4)
C1_3 C 0.6958(6) 0.3083(11) 0.6527(5)
C2_3 C 0.6667(6) 0.2218(11) 0.6285(5)
C3_3 C 0.6168(6) 0.2336(11) 0.5969(5)
H1_3 H 0.6018 0.2946 0.5934
C4_3 C 0.5899(6) 0.1571(10) 0.5715(5)
H2_3 H 0.5577 0.1668 0.5495
C5_3 C 0.6111(6) 0.0635(10) 0.5788(5)
C10_3 C 0.6603(5) 0.0488(10) 0.6114(5)
C11_3 C 0.6881(6) 0.1305(11) 0.6356(5)
H6_3 H 0.7209 0.1225 0.6566
C13_3 C 0.6851(6) 0.5035(11) 0.7599(5)
C14_3 C 0.6526(16) 0.525(3) 0.7926(16)
C15_3 C 0.6650(9) 0.482(2) 0.8380(10)
H7_3 H 0.6925 0.4396 0.8476
C16_4 C 0.637(2) 0.500(5) 0.870(2)
C17_3 C 0.6496(9) 0.4542(16) 0.9150(9)
H8_3 H 0.6759 0.4096 0.9240
C18_3 C 0.6226(10) 0.4749(18) 0.9467(11)
H9_3 H 0.6321 0.4467 0.9777
C19_3 C 0.582(3) 0.537(6) 0.933(3)
C20_3 C 0.5689(13) 0.582(2) 0.8876(14)
H10_3 H 0.5417 0.6243 0.8784
C21_3 C 0.596(2) 0.563(4) 0.856(2)
C22_3 C 0.5833(9) 0.6052(15) 0.8096(8)
H11_3 H 0.5553 0.6460 0.7994
C23_3 C 0.6116(10) 0.5869(18) 0.7789(11)
H12_3 H 0.6028 0.6168 0.7484
C24_3 C 0.5508(6) 0.5570(10) 0.9665(5)
C37_3 C 0.8351(6) 0.5353(13) 0.7551(5)
C38_3 C 0.8887(6) 0.5651(14) 0.7861(6)
H18_3 H 0.8890 0.5789 0.8190
H19_3 H 0.9118 0.5131 0.7867
H20_3 H 0.8988 0.6218 0.7722
O19_3 O 0.3275(4) 0.3887(7) 0.8538(3)
O20_3 O 0.2584(4) 0.3011(7) 0.8215(4)
O23_3 O 0.2807(4) 0.4373(7) 0.7318(3)
O24_3 O 0.3236(4) 0.5585(7) 0.7760(3)
O25 O 0.4806(4) 0.6287(7) 0.5413(3)
O27_3 O 0.1998(4) 0.5948(8) 0.7594(4)
O28_3 O 0.1717(4) 0.4456(8) 0.7548(4)
C51_3 C 0.3042(6) 0.3083(11) 0.8473(5)
C52_3 C 0.3333(6) 0.2218(11) 0.8715(5)
C53_3 C 0.3832(6) 0.2336(11) 0.9031(5)
H26_3 H 0.3982 0.2946 0.9066
C54_3 C 0.4101(6) 0.1571(10) 0.9285(5)
H27_3 H 0.4423 0.1668 0.9505
C55_3 C 0.3889(6) 0.0635(10) 0.9212(5)
C60_3 C 0.3397(5) 0.0488(10) 0.8886(5)
C61_3 C 0.3119(6) 0.1305(11) 0.8644(5)
H31_3 H 0.2791 0.1225 0.8434
C63_3 C 0.3149(6) 0.5035(11) 0.7401(5)
C64_3 C 0.3474(16) 0.525(3) 0.7074(16)
C65_3 C 0.3350(9) 0.482(2) 0.6620(10)
H32_3 H 0.3075 0.4396 0.6524
C66_4 C 0.363(2) 0.500(5) 0.630(2)
C67_3 C 0.3504(9) 0.4542(16) 0.5850(9)
H33_3 H 0.3241 0.4096 0.5760
C68_3 C 0.3774(10) 0.4749(18) 0.5533(11)
H34_3 H 0.3679 0.4467 0.5223
C69_3 C 0.418(3) 0.537(6) 0.567(3)
C70_3 C 0.4311(13) 0.582(2) 0.6124(14)
H35_3 H 0.4583 0.6243 0.6216
C71_3 C 0.404(2) 0.563(4) 0.644(2)
C72_3 C 0.4167(9) 0.6052(15) 0.6904(8)
H36_3 H 0.4447 0.6460 0.7006
C73_3 C 0.3884(10) 0.5869(18) 0.7211(11)
H37_3 H 0.3972 0.6168 0.7516
C74_3 C 0.4492(6) 0.5570(10) 0.5335(5)
C75_3 C 0.1649(6) 0.5353(13) 0.7449(5)
C76_3 C 0.1113(6) 0.5651(14) 0.7139(6)
H38_3 H 0.1110 0.5789 0.6810
H39_3 H 0.0882 0.5131 0.7133
H40_3 H 0.1012 0.6218 0.7278
O3_3 O 0.5936(3) 0.7208(6) 0.5447(3)
O4_3 O 0.5291(3) 0.8170(6) 0.5070(3)
O9_3 O 0.5470(4) 0.6964(7) 0.4185(3)
O10_3 O 0.4752(4) 0.6179(7) 0.4076(3)
C6_3 C 0.5834(5) 0.9804(10) 0.5539(5)
H3_3 H 0.5511 0.9890 0.5318
C7_3 C 0.6034(5) 0.8896(9) 0.5620(5)
C8_3 C 0.6528(5) 0.8760(10) 0.5944(5)
H4_3 H 0.6672 0.8146 0.5988
C9_3 C 0.6795(5) 0.9540(10) 0.6194(5)
H5_3 H 0.7113 0.9436 0.6421
C12_3 C 0.5734(5) 0.8034(10) 0.5367(5)
C25_3 C 0.5058(6) 0.6617(10) 0.3908(5)
C26_3 C 0.4948(5) 0.6649(10) 0.3360(5)
C27_3 C 0.4440(6) 0.6631(10) 0.3046(5)
H13_3 H 0.4173 0.6586 0.3175
C28_3 C 0.4350(6) 0.6681(10) 0.2551(5)
H14_3 H 0.4016 0.6705 0.2346
C29_3 C 0.4746(5) 0.6698(10) 0.2340(5)
C30_3 C 0.4668(6) 0.6678(10) 0.1836(5)
H15_3 H 0.4337 0.6684 0.1625
O15_3 O 0.4530(4) 0.6964(7) 0.0815(3)
O16_3 O 0.5248(4) 0.6179(7) 0.0924(3)
C39_3 C 0.4942(6) 0.6617(10) 0.1092(5)
C40_3 C 0.5052(5) 0.6649(10) 0.1640(5)
C41_3 C 0.5560(6) 0.6631(10) 0.1954(5)
H21_3 H 0.5827 0.6586 0.1825
C42_3 C 0.5650(6) 0.6681(10) 0.2449(5)
H22_3 H 0.5984 0.6705 0.2654
C43_3 C 0.5254(5) 0.6698(10) 0.2660(5)
C44_3 C 0.5332(6) 0.6678(10) 0.3164(5)
H23_3 H 0.5663 0.6684 0.3375
O21_3 O 0.4064(3) 0.7208(6) 0.9553(3)
O22_3 O 0.4709(3) 0.8170(6) 0.9930(3)
C56_3 C 0.4166(5) 0.9804(10) 0.9461(5)
H28_3 H 0.4489 0.9890 0.9682
C57_3 C 0.3966(5) 0.8896(9) 0.9380(5)
C58_3 C 0.3472(5) 0.8760(10) 0.9056(5)
H29_3 H 0.3328 0.8146 0.9012
C59_3 C 0.3205(5) 0.9540(10) 0.8806(5)
H30_3 H 0.2887 0.9436 0.8579
C62_3 C 0.4266(5) 0.8034(10) 0.9633(5)
O6_4 O 0.1764(4) 0.0585(7) 0.7240(3)
O7_2 O 0.0194(4) 0.1287(7) 0.9587(3)
O13_4 O 0.3002(4) 0.0948(8) 0.7406(4)
C13_4 C 0.1851(6) 0.0035(11) 0.7599(5)
C14_4 C 0.1526(16) 0.025(3) 0.7926(16)
C16_5 C 0.137(2) 0.000(5) 0.870(2)
C19_4 C 0.082(3) 0.037(6) 0.933(3)
C20_4 C 0.0689(13) 0.082(2) 0.8876(14)
H10_4 H 0.0417 0.1243 0.8784
C21_4 C 0.096(2) 0.063(4) 0.856(2)
C22_4 C 0.0833(9) 0.1052(15) 0.8096(8)
H11_4 H 0.0553 0.1460 0.7994
C23_4 C 0.1116(10) 0.0869(18) 0.7789(11)
H12_4 H 0.1028 0.1168 0.7484
C24_4 C 0.0508(6) 0.0570(10) 0.9665(5)
C37_4 C 0.3351(6) 0.0353(13) 0.7551(5)
C38_4 C 0.3887(6) 0.0651(14) 0.7861(6)
H18_4 H 0.3890 0.0789 0.8190
H19_4 H 0.4118 0.0131 0.7867
H20_4 H 0.3988 0.1218 0.7722
O1_4 O 0.1725(4) 0.8887(7) 0.6462(3)
O2_4 O 0.2416(4) 0.8011(7) 0.6785(4)
O3_4 O 0.0936(3) 0.2208(6) 0.5447(3)
O4_4 O 0.0291(3) 0.3170(6) 0.5070(3)
O5_4 O 0.2193(4) 0.9373(7) 0.7682(3)
O9_4 O 0.0470(4) 0.1964(7) 0.4185(3)
O14_4 O 0.3283(4) 0.9456(8) 0.7452(4)
C1_4 C 0.1958(6) 0.8083(11) 0.6527(5)
C2_4 C 0.1667(6) 0.7218(11) 0.6285(5)
C3_4 C 0.1168(6) 0.7336(11) 0.5969(5)
H1_4 H 0.1018 0.7946 0.5934
C4_4 C 0.0899(6) 0.6571(10) 0.5715(5)
H2_4 H 0.0577 0.6668 0.5495
C5_4 C 0.1111(6) 0.5635(10) 0.5788(5)
C6_4 C 0.0834(5) 0.4804(10) 0.5539(5)
H3_4 H 0.0511 0.4890 0.5318
C7_4 C 0.1034(5) 0.3896(9) 0.5620(5)
C8_4 C 0.1528(5) 0.3760(10) 0.5944(5)
H4_4 H 0.1672 0.3146 0.5988
C9_4 C 0.1795(5) 0.4540(10) 0.6194(5)
H5_4 H 0.2113 0.4436 0.6421
C10_4 C 0.1603(5) 0.5488(10) 0.6114(5)
C11_4 C 0.1881(6) 0.6305(11) 0.6356(5)
H6_4 H 0.2209 0.6225 0.6566
C12_4 C 0.0734(5) 0.3034(10) 0.5367(5)
C15_4 C 0.1650(9) 0.982(2) 0.8380(10)
H7_4 H 0.1925 0.9396 0.8476
C16_6 C 0.137(2) 1.000(5) 0.870(2)
C17_4 C 0.1496(9) 0.9542(16) 0.9150(9)
H8_4 H 0.1759 0.9096 0.9240
C18_4 C 0.1226(10) 0.9749(18) 0.9467(11)
H9_4 H 0.1321 0.9467 0.9777
C25_4 C 0.0058(6) 0.1617(10) 0.3908(5)
O16_4 O 0.0248(4) 0.1179(7) 0.0924(3)
C40_4 C 0.0052(5) 0.1649(10) 0.1640(5)
C41_4 C 0.0560(6) 0.1631(10) 0.1954(5)
H21_4 H 0.0827 0.1586 0.1825
C42_4 C 0.0650(6) 0.1681(10) 0.2449(5)
H22_4 H 0.0984 0.1705 0.2654
C43_4 C 0.0254(5) 0.1698(10) 0.2660(5)
C44_4 C 0.0332(6) 0.1678(10) 0.3164(5)
H23_4 H 0.0663 0.1684 0.3375
O24_4 O 0.8236(4) 0.0585(7) 0.7760(3)
O25_2 O 0.9806(4) 0.1287(7) 0.5413(3)
O27_4 O 0.6998(4) 0.0948(8) 0.7594(4)
C63_4 C 0.8149(6) 0.0035(11) 0.7401(5)
C64_4 C 0.8474(16) 0.025(3) 0.7074(16)
C66_5 C 0.863(2) 0.000(5) 0.630(2)
C69_4 C 0.918(3) 0.037(6) 0.567(3)
C70_4 C 0.9311(13) 0.082(2) 0.6124(14)
H35_4 H 0.9583 0.1243 0.6216
C71_4 C 0.904(2) 0.063(4) 0.644(2)
C72_4 C 0.9167(9) 0.1052(15) 0.6904(8)
H36_4 H 0.9447 0.1460 0.7006
C73_4 C 0.8884(10) 0.0869(18) 0.7211(11)
H37_4 H 0.8972 0.1168 0.7516
C74_4 C 0.9492(6) 0.0570(10) 0.5335(5)
C75_4 C 0.6649(6) 0.0353(13) 0.7449(5)
C76_4 C 0.6113(6) 0.0651(14) 0.7139(6)
H38_4 H 0.6110 0.0789 0.6810
H39_4 H 0.5882 0.0131 0.7133
H40_4 H 0.6012 0.1218 0.7278
O10_4 O 0.9752(4) 0.1179(7) 0.4076(3)
C26_4 C 0.9948(5) 0.1649(10) 0.3360(5)
C27_4 C 0.9440(6) 0.1631(10) 0.3046(5)
H13_4 H 0.9173 0.1586 0.3175
C28_4 C 0.9350(6) 0.1681(10) 0.2551(5)
H14_4 H 0.9016 0.1705 0.2346
C29_4 C 0.9746(5) 0.1698(10) 0.2340(5)
C30_4 C 0.9668(6) 0.1678(10) 0.1836(5)
H15_4 H 0.9337 0.1684 0.1625
O15_4 O 0.9530(4) 0.1964(7) 0.0815(3)
C39_4 C 0.9942(6) 0.1617(10) 0.1092(5)
O19_4 O 0.8275(4) 0.8887(7) 0.8538(3)
O20_4 O 0.7584(4) 0.8011(7) 0.8215(4)
O21_4 O 0.9064(3) 0.2208(6) 0.9553(3)
O22_4 O 0.9709(3) 0.3170(6) 0.9930(3)
O23_4 O 0.7807(4) 0.9373(7) 0.7318(3)
O28_4 O 0.6717(4) 0.9456(8) 0.7548(4)
C51_4 C 0.8042(6) 0.8083(11) 0.8473(5)
C52_4 C 0.8333(6) 0.7218(11) 0.8715(5)
C53_4 C 0.8832(6) 0.7336(11) 0.9031(5)
H26_4 H 0.8982 0.7946 0.9066
C54_4 C 0.9101(6) 0.6571(10) 0.9285(5)
H27_4 H 0.9423 0.6668 0.9505
C55_4 C 0.8889(6) 0.5635(10) 0.9212(5)
C56_4 C 0.9166(5) 0.4804(10) 0.9461(5)
H28_4 H 0.9489 0.4890 0.9682
C57_4 C 0.8966(5) 0.3896(9) 0.9380(5)
C58_4 C 0.8472(5) 0.3760(10) 0.9056(5)
H29_4 H 0.8328 0.3146 0.9012
C59_4 C 0.8205(5) 0.4540(10) 0.8806(5)
H30_4 H 0.7887 0.4436 0.8579
C60_4 C 0.8397(5) 0.5488(10) 0.8886(5)
C61_4 C 0.8119(6) 0.6305(11) 0.8644(5)
H31_4 H 0.7791 0.6225 0.8434
C62_4 C 0.9266(5) 0.3034(10) 0.9633(5)
C65_4 C 0.8350(9) 0.982(2) 0.6620(10)
H32_4 H 0.8075 0.9396 0.6524
C66_6 C 0.863(2) 1.000(5) 0.630(2)
C67_4 C 0.8504(9) 0.9542(16) 0.5850(9)
H33_4 H 0.8241 0.9096 0.5760
C68_4 C 0.8774(10) 0.9749(18) 0.5533(11)
H34_4 H 0.8679 0.9467 0.5223
O31_2 O 0.0580(4) 0.0016(7) 0.0018(3)
O8_2 O 0.9420(4) 0.9984(7) 0.9982(3)
Cs3 Cs 0.33829(5) 0.18497(11) 0.15793(5)
Cs3_2 Cs 0.66171(5) 0.18497(11) 0.34207(5)
Cs3_3 Cs 0.83829(5) 0.68497(11) 0.15793(5)
Cs3_4 Cs 0.16171(5) 0.68497(11) 0.34207(5)
Cs3_5 Cs 0.66171(5) 0.81503(11) 0.84207(5)
Cs3_6 Cs 0.33829(5) 0.81503(11) 0.65793(5)
Cs3_7 Cs 0.16171(5) 0.31503(11) 0.84207(5)
Cs3_8 Cs 0.83829(5) 0.31503(11) 0.65793(5)
loop_
_geom_bond_atom_site_label_1
_geom_bond_atom_site_label_2
_geom_bond_site_symmetry_1
_geom_bond_site_symmetry_2
H28 C56 1_555 1_555
C57 C56 1_555 1_555
C58 C57 1_555 1_555
H29 C58 1_555 1_555
C59 C58 1_555 1_555
H30 C59 1_555 1_555
C62 O21 1_555 1_555
O22 C62 1_555 1_555
C57 C62 1_555 1_555
Cd2 O3 1_555 1_555
O3 C12 1_555 1_555
O4 Cd2 1_555 1_555
O9 Cd2 1_555 1_555
O10 Cd2 1_555 1_555
H3 C6 1_555 1_555
C7 C6 1_555 1_555
C8 C7 1_555 1_555
H4 C8 1_555 1_555
C9 C8 1_555 1_555
H5 C9 1_555 1_555
C12 O4 1_555 1_555
C25 O9 1_555 1_555
C26 C25 1_555 1_555
C27 C26 1_555 1_555
H13 C27 1_555 1_555
C28 C27 1_555 1_555
H14 C28 1_555 1_555
C29 C28 1_555 1_555
C30 C29 1_555 1_555
H15 C30 1_555 1_555
O15 C39 1_555 1_555
O16 C39 1_555 1_555
C39 C40 1_555 1_555
C40 C30 1_555 1_555
C41 C40 1_555 1_555
H21 C41 1_555 1_555
C42 C41 1_555 1_555
H22 C42 1_555 1_555
C43 C29 1_555 1_555
C44 C26 1_555 1_555
H23 C44 1_555 1_555
Cd4 O15 1_555 1_555
O30 Cd2 1_555 1_555
O32 Cd2 1_555 1_555
O10 C25 1_555 1_555
C7 C12 1_555 1_555
O16 Cd4 1_555 1_555
C42 C43 1_555 1_555
C43 C44 1_555 1_555
Cd3 O19 1_555 1_555
O19 C51 1_555 1_555
O20 Cd3 1_555 1_555
O23 Cd3 1_555 1_555
O24 Cd3 1_555 1_555
O30 C74 1_555 1_555
O26 C74 1_555 1_555
O27 Cd3 1_555 1_555
O28 Cd3 1_555 1_555
C51 O20 1_555 1_555
C52 C51 1_555 1_555
C53 C52 1_555 1_555
H26 C53 1_555 1_555
C54 C53 1_555 1_555
H27 C54 1_555 1_555
C55 C54 1_555 1_555
C60 C55 1_555 1_555
C61 C52 1_555 1_555
H31 C61 1_555 1_555
C63 O23 1_555 1_555
C64 C63 1_555 1_555
C65 C64 1_555 1_555
H32 C65 1_555 1_555
C66 C65 1_555 1_555
C67 C66 1_555 1_555
H33 C67 1_555 1_555
C68 C67 1_555 1_555
H34 C68 1_555 1_555
C69 C68 1_555 1_555
C70 C69 1_555 1_555
H35 C70 1_555 1_555
C71 C66 1_555 1_555
C72 C71 1_555 1_555
H36 C72 1_555 1_555
C73 C64 1_555 1_555
H37 C73 1_555 1_555
C74 C69 1_555 1_555
C75 O27 1_555 1_555
C76 C75 1_555 1_555
H38 C76 1_555 1_555
H39 C76 1_555 1_555
H40 C76 1_555 1_555
Cd8 O26 1_555 1_555
O33 Cd3 1_555 1_555
O34 Cd3 1_555 1_555
O24 C63 1_555 1_555
O28 C75 1_555 1_555
C60 C61 1_555 1_555
C70 C71 1_555 1_555
C72 C73 1_555 1_555
Cd1 O1 1_555 1_555
O1 C1 1_555 1_555
O2 Cd1 1_555 1_555
O5 Cd1 1_555 1_555
O6 Cd1 1_555 1_555
O29 C24 1_555 1_555
O11 Cd1 1_555 1_555
O12 Cd1 1_555 1_555
O13 Cd1 1_555 1_555
O14 Cd1 1_555 1_555
C1 O2 1_555 1_555
C2 C1 1_555 1_555
C3 C2 1_555 1_555
H1 C3 1_555 1_555
C4 C3 1_555 1_555
H2 C4 1_555 1_555
C5 C4 1_555 1_555
C10 C5 1_555 1_555
C11 C2 1_555 1_555
H6 C11 1_555 1_555
C13 O5 1_555 1_555
C14 C13 1_555 1_555
C15 C14 1_555 1_555
H7 C15 1_555 1_555
C16 C15 1_555 1_555
C17 C16 1_555 1_555
H8 C17 1_555 1_555
C18 C17 1_555 1_555
H9 C18 1_555 1_555
C19 C18 1_555 1_555
C20 C19 1_555 1_555
H10 C20 1_555 1_555
C21 C16 1_555 1_555
C22 C21 1_555 1_555
H11 C22 1_555 1_555
C23 C14 1_555 1_555
H12 C23 1_555 1_555
C24 C19 1_555 1_555
C31 O11 1_555 1_555
C32 C31 1_555 1_555
C33 C32 1_555 1_555
C34 C32 1_555 1_555
H16 C34 1_555 1_555
C35 C34 1_555 1_555
H17 C35 1_555 1_555
C36 C35 1_555 1_555
C37 O13 1_555 1_555
C38 C37 1_555 1_555
H18 C38 1_555 1_555
H19 C38 1_555 1_555
H20 C38 1_555 1_555
O17 C45 1_555 1_555
O18 C45 1_555 1_555
C45 C46 1_555 1_555
C46 C47 1_555 1_555
C47 C36 1_555 1_555
C48 C46 1_555 1_555
H24 C48 1_555 1_555
C49 C48 1_555 1_555
H25 C49 1_555 1_555
C50 C33 1_555 1_555
O6 C13 1_555 1_555
O12 C31 1_555 1_555
O14 C37 1_555 1_555
C10 C11 1_555 1_555
C20 C21 1_555 1_555
C22 C23 1_555 1_555
C36 C50 1_555 1_555
C49 C50 1_555 1_555
C33 H41 1_555 1_555
C47 H42 1_555 1_555
C31_2 O33 1_555 1_555
C32_2 C31_2 1_555 1_555
C33_2 C32_2 1_555 1_555
C34_2 C32_2 1_555 1_555
H16_2 C34_2 1_555 1_555
C35_2 C34_2 1_555 1_555
H17_2 C35_2 1_555 1_555
C50_2 C33_2 1_555 1_555
O34 C31_2 1_555 1_555
C33_2 H41_2 1_555 1_555
O17_2 C45_2 1_555 1_555
O18_2 C45_2 1_555 1_555
C45_2 C46_2 1_555 1_555
C46_2 C47_2 1_555 1_555
C47_2 C36_2 1_555 1_555
C48_2 C46_2 1_555 1_555
H24_2 C48_2 1_555 1_555
C49_2 C48_2 1_555 1_555
H25_2 C49_2 1_555 1_555
C47_2 H42_2 1_555 1_555
Cd3_2 O19_2 1_555 1_555
O19_2 C51_2 1_555 1_555
O20_2 Cd3_2 1_555 1_555
O23_2 Cd3_2 1_555 1_555
O28_2 Cd3_2 1_555 1_555
C51_2 O20_2 1_555 1_555
C52_2 C51_2 1_555 1_555
C53_2 C52_2 1_555 1_555
H26_2 C53_2 1_555 1_555
C54_2 C53_2 1_555 1_555
H27_2 C54_2 1_555 1_555
C55_2 C54_2 1_555 1_555
C56_2 C55_2 1_555 1_555
H28_2 C56_2 1_555 1_555
C57_2 C56_2 1_555 1_555
C58_2 C57_2 1_555 1_555
H29_2 C58_2 1_555 1_555
C59_2 C58_2 1_555 1_555
H30_2 C59_2 1_555 1_555
C60_2 C55_2 1_555 1_555
C61_2 C52_2 1_555 1_555
H31_2 C61_2 1_555 1_555
C62_2 O21_2 1_555 1_555
H32_2 C65_2 1_555 1_555
C66_2 C65_2 1_555 1_555
C67_2 C66_2 1_555 1_555
H33_2 C67_2 1_555 1_555
C68_2 C67_2 1_555 1_555
H34_2 C68_2 1_555 1_555
O22_2 C62_2 1_555 1_555
C57_2 C62_2 1_555 1_555
C59_2 C60_2 1_555 1_555
C60_2 C61_2 1_555 1_555
C27_2 C26_2 1_555 1_555
H13_2 C27_2 1_555 1_555
C28_2 C27_2 1_555 1_555
H14_2 C28_2 1_555 1_555
C29_2 C28_2 1_555 1_555
C30_2 C29_2 1_555 1_555
H15_2 C30_2 1_555 1_555
O15_2 C39_2 1_555 1_555
Cd4_2 O15_2 1_555 1_555
O30_2 C74_2 1_555 1_555
O26_2 C74_2 1_555 1_555
C64_2 C63_2 1_555 1_555
C70_2 C69_2 1_555 1_555
H35_2 C70_2 1_555 1_555
C71_2 C66_3 1_555 1_555
C72_2 C71_2 1_555 1_555
H36_2 C72_2 1_555 1_555
C73_2 C64_2 1_555 1_555
H37_2 C73_2 1_555 1_555
C74_2 C69_2 1_555 1_555
C75_2 O27_2 1_555 1_555
C76_2 C75_2 1_555 1_555
H38_2 C76_2 1_555 1_555
H39_2 C76_2 1_555 1_555
H40_2 C76_2 1_555 1_555
O24_2 C63_2 1_555 1_555
C70_2 C71_2 1_555 1_555
C72_2 C73_2 1_555 1_555
Cd1_2 O1_2 1_555 1_555
Cd2_2 O3_2 1_555 1_555
O1_2 C1_2 1_555 1_555
O2_2 Cd1_2 1_555 1_555
O3_2 C12_2 1_555 1_555
O4_2 Cd2_2 1_555 1_555
O5_2 Cd1_2 1_555 1_555
O9_2 Cd2_2 1_555 1_555
O14_2 Cd1_2 1_555 1_555
C1_2 O2_2 1_555 1_555
C2_2 C1_2 1_555 1_555
C3_2 C2_2 1_555 1_555
H1_2 C3_2 1_555 1_555
C4_2 C3_2 1_555 1_555
H2_2 C4_2 1_555 1_555
C5_2 C4_2 1_555 1_555
C6_2 C5_2 1_555 1_555
H3_2 C6_2 1_555 1_555
C7_2 C6_2 1_555 1_555
C8_2 C7_2 1_555 1_555
H4_2 C8_2 1_555 1_555
C9_2 C8_2 1_555 1_555
H5_2 C9_2 1_555 1_555
C10_2 C5_2 1_555 1_555
C11_2 C2_2 1_555 1_555
H6_2 C11_2 1_555 1_555
C12_2 O4_2 1_555 1_555
H7_2 C15_2 1_555 1_555
C16_2 C15_2 1_555 1_555
C17_2 C16_2 1_555 1_555
H8_2 C17_2 1_555 1_555
C18_2 C17_2 1_555 1_555
H9_2 C18_2 1_555 1_555
C25_2 O9_2 1_555 1_555
C41_2 C40_2 1_555 1_555
H21_2 C41_2 1_555 1_555
C42_2 C41_2 1_555 1_555
H22_2 C42_2 1_555 1_555
H23_2 C44_2 1_555 1_555
C7_2 C12_2 1_555 1_555
C9_2 C10_2 1_555 1_555
C10_2 C11_2 1_555 1_555
C42_2 C43_2 1_555 1_555
C43_2 C44_2 1_555 1_555
O29_2 C24_2 1_555 1_555
C14_2 C13_2 1_555 1_555
C20_2 C19_2 1_555 1_555
H10_2 C20_2 1_555 1_555
C21_2 C16_3 1_555 1_555
C22_2 C21_2 1_555 1_555
H11_2 C22_2 1_555 1_555
C23_2 C14_2 1_555 1_555
H12_2 C23_2 1_555 1_555
C24_2 C19_2 1_555 1_555
C31_3 O11_2 1_555 1_555
C32_3 C31_3 1_555 1_555
C33_3 C32_3 1_555 1_555
C34_3 C32_3 1_555 1_555
H16_3 C34_3 1_555 1_555
C35_3 C34_3 1_555 1_555
H17_3 C35_3 1_555 1_555
C36_3 C35_3 1_555 1_555
C37_2 O13_2 1_555 1_555
C38_2 C37_2 1_555 1_555
H18_2 C38_2 1_555 1_555
H19_2 C38_2 1_555 1_555
H20_2 C38_2 1_555 1_555
O17_3 C45_3 1_555 1_555
O18_3 C45_3 1_555 1_555
C45_3 C46_3 1_555 1_555
C46_3 C47_3 1_555 1_555
C47_3 C36_3 1_555 1_555
C48_3 C46_3 1_555 1_555
H24_3 C48_3 1_555 1_555
C49_3 C48_3 1_555 1_555
H25_3 C49_3 1_555 1_555
C50_3 C33_3 1_555 1_555
Cd5_3 O17_3 1_555 1_555
O6_2 C13_2 1_555 1_555
O12_2 C31_3 1_555 1_555
C20_2 C21_2 1_555 1_555
C22_2 C23_2 1_555 1_555
C36_3 C50_3 1_555 1_555
O18_3 Cd5_3 1_555 1_555
C49_3 C50_3 1_555 1_555
C33_3 H41_3 1_555 1_555
C47_3 H42_3 1_555 1_555
C31_4 O33_2 1_555 1_555
C32_4 C31_4 1_555 1_555
C33_4 C32_4 1_555 1_555
C34_4 C32_4 1_555 1_555
H16_4 C34_4 1_555 1_555
C35_4 C34_4 1_555 1_555
H17_4 C35_4 1_555 1_555
C50_4 C33_4 1_555 1_555
O34_2 C31_4 1_555 1_555
C33_4 H41_4 1_555 1_555
O17_4 C45_4 1_555 1_555
O18_4 C45_4 1_555 1_555
C45_4 C46_4 1_555 1_555
C46_4 C47_4 1_555 1_555
C47_4 C36_4 1_555 1_555
C48_4 C46_4 1_555 1_555
H24_4 C48_4 1_555 1_555
C49_4 C48_4 1_555 1_555
H25_4 C49_4 1_555 1_555
Cd5_4 O17_4 1_555 1_555
O18_4 Cd5_4 1_555 1_555
C47_4 H42_4 1_555 1_555
Cd5_3 O1_3 1_555 1_555
O1_3 C1_3 1_555 1_555
O2_3 Cd5_3 1_555 1_555
O5_3 Cd5_3 1_555 1_555
O6_3 Cd5_3 1_555 1_555
O7 C24_3 1_555 1_555
O13_3 Cd5_3 1_555 1_555
O14_3 Cd5_3 1_555 1_555
C1_3 O2_3 1_555 1_555
C2_3 C1_3 1_555 1_555
C3_3 C2_3 1_555 1_555
H1_3 C3_3 1_555 1_555
C4_3 C3_3 1_555 1_555
H2_3 C4_3 1_555 1_555
C5_3 C4_3 1_555 1_555
C10_3 C5_3 1_555 1_555
C11_3 C2_3 1_555 1_555
H6_3 C11_3 1_555 1_555
C13_3 O5_3 1_555 1_555
C14_3 C13_3 1_555 1_555
C15_3 C14_3 1_555 1_555
H7_3 C15_3 1_555 1_555
C16_4 C15_3 1_555 1_555
C17_3 C16_4 1_555 1_555
H8_3 C17_3 1_555 1_555
C18_3 C17_3 1_555 1_555
H9_3 C18_3 1_555 1_555
C19_3 C18_3 1_555 1_555
C20_3 C19_3 1_555 1_555
H10_3 C20_3 1_555 1_555
C21_3 C16_4 1_555 1_555
C22_3 C21_3 1_555 1_555
H11_3 C22_3 1_555 1_555
C23_3 C14_3 1_555 1_555
H12_3 C23_3 1_555 1_555
C24_3 C19_3 1_555 1_555
C37_3 O13_3 1_555 1_555
C38_3 C37_3 1_555 1_555
H18_3 C38_3 1_555 1_555
H19_3 C38_3 1_555 1_555
H20_3 C38_3 1_555 1_555
O6_3 C13_3 1_555 1_555
O14_3 C37_3 1_555 1_555
C10_3 C11_3 1_555 1_555
C20_3 C21_3 1_555 1_555
C22_3 C23_3 1_555 1_555
Cd5_4 O19_3 1_555 1_555
O19_3 C51_3 1_555 1_555
O20_3 Cd5_4 1_555 1_555
O23_3 Cd5_4 1_555 1_555
O24_3 Cd5_4 1_555 1_555
O25 C74_3 1_555 1_555
O32 C74_3 1_555 1_555
O27_3 Cd5_4 1_555 1_555
O28_3 Cd5_4 1_555 1_555
C51_3 O20_3 1_555 1_555
C52_3 C51_3 1_555 1_555
C53_3 C52_3 1_555 1_555
H26_3 C53_3 1_555 1_555
C54_3 C53_3 1_555 1_555
H27_3 C54_3 1_555 1_555
C55_3 C54_3 1_555 1_555
C60_3 C55_3 1_555 1_555
C61_3 C52_3 1_555 1_555
H31_3 C61_3 1_555 1_555
C63_3 O23_3 1_555 1_555
C64_3 C63_3 1_555 1_555
C65_3 C64_3 1_555 1_555
H32_3 C65_3 1_555 1_555
C66_4 C65_3 1_555 1_555
C67_3 C66_4 1_555 1_555
H33_3 C67_3 1_555 1_555
C68_3 C67_3 1_555 1_555
H34_3 C68_3 1_555 1_555
C69_3 C68_3 1_555 1_555
C70_3 C69_3 1_555 1_555
H35_3 C70_3 1_555 1_555
C71_3 C66_4 1_555 1_555
C72_3 C71_3 1_555 1_555
H36_3 C72_3 1_555 1_555
C73_3 C64_3 1_555 1_555
H37_3 C73_3 1_555 1_555
C74_3 C69_3 1_555 1_555
C75_3 O27_3 1_555 1_555
C76_3 C75_3 1_555 1_555
H38_3 C76_3 1_555 1_555
H39_3 C76_3 1_555 1_555
H40_3 C76_3 1_555 1_555
Cd8 O25 1_555 1_555
O24_3 C63_3 1_555 1_555
O28_3 C75_3 1_555 1_555
C60_3 C61_3 1_555 1_555
C70_3 C71_3 1_555 1_555
C72_3 C73_3 1_555 1_555
Cd8 O3_3 1_555 1_555
O3_3 C12_3 1_555 1_555
O4_3 Cd8 1_555 1_555
O9_3 Cd8 1_555 1_555
O10_3 Cd8 1_555 1_555
H3_3 C6_3 1_555 1_555
C7_3 C6_3 1_555 1_555
C8_3 C7_3 1_555 1_555
H4_3 C8_3 1_555 1_555
C9_3 C8_3 1_555 1_555
H5_3 C9_3 1_555 1_555
C12_3 O4_3 1_555 1_555
C25_3 O9_3 1_555 1_555
C26_3 C25_3 1_555 1_555
C27_3 C26_3 1_555 1_555
H13_3 C27_3 1_555 1_555
C28_3 C27_3 1_555 1_555
H14_3 C28_3 1_555 1_555
C29_3 C28_3 1_555 1_555
C30_3 C29_3 1_555 1_555
H15_3 C30_3 1_555 1_555
O15_3 C39_3 1_555 1_555
O16_3 C39_3 1_555 1_555
C39_3 C40_3 1_555 1_555
C40_3 C30_3 1_555 1_555
C41_3 C40_3 1_555 1_555
H21_3 C41_3 1_555 1_555
C42_3 C41_3 1_555 1_555
H22_3 C42_3 1_555 1_555
C43_3 C29_3 1_555 1_555
C44_3 C26_3 1_555 1_555
H23_3 C44_3 1_555 1_555
Cd9 O15_3 1_555 1_555
O10_3 C25_3 1_555 1_555
C7_3 C12_3 1_555 1_555
O16_3 Cd9 1_555 1_555
C42_3 C43_3 1_555 1_555
C43_3 C44_3 1_555 1_555
H28_3 C56_3 1_555 1_555
C57_3 C56_3 1_555 1_555
C58_3 C57_3 1_555 1_555
H29_3 C58_3 1_555 1_555
C59_3 C58_3 1_555 1_555
H30_3 C59_3 1_555 1_555
C62_3 O21_3 1_555 1_555
O22_3 C62_3 1_555 1_555
C57_3 C62_3 1_555 1_555
O7_2 C24_4 1_555 1_555
C14_4 C13_4 1_555 1_555
C20_4 C19_4 1_555 1_555
H10_4 C20_4 1_555 1_555
C21_4 C16_5 1_555 1_555
C22_4 C21_4 1_555 1_555
H11_4 C22_4 1_555 1_555
C23_4 C14_4 1_555 1_555
H12_4 C23_4 1_555 1_555
C24_4 C19_4 1_555 1_555
C37_4 O13_4 1_555 1_555
C38_4 C37_4 1_555 1_555
H18_4 C38_4 1_555 1_555
H19_4 C38_4 1_555 1_555
H20_4 C38_4 1_555 1_555
O6_4 C13_4 1_555 1_555
C20_4 C21_4 1_555 1_555
C22_4 C23_4 1_555 1_555
Cd5 O1_4 1_555 1_555
Cd8_2 O3_4 1_555 1_555
O1_4 C1_4 1_555 1_555
O2_4 Cd5 1_555 1_555
O3_4 C12_4 1_555 1_555
O4_4 Cd8_2 1_555 1_555
O5_4 Cd5 1_555 1_555
O9_4 Cd8_2 1_555 1_555
O14_4 Cd5 1_555 1_555
C1_4 O2_4 1_555 1_555
C2_4 C1_4 1_555 1_555
C3_4 C2_4 1_555 1_555
H1_4 C3_4 1_555 1_555
C4_4 C3_4 1_555 1_555
H2_4 C4_4 1_555 1_555
C5_4 C4_4 1_555 1_555
C6_4 C5_4 1_555 1_555
H3_4 C6_4 1_555 1_555
C7_4 C6_4 1_555 1_555
C8_4 C7_4 1_555 1_555
H4_4 C8_4 1_555 1_555
C9_4 C8_4 1_555 1_555
H5_4 C9_4 1_555 1_555
C10_4 C5_4 1_555 1_555
C11_4 C2_4 1_555 1_555
H6_4 C11_4 1_555 1_555
C12_4 O4_4 1_555 1_555
H7_4 C15_4 1_555 1_555
C16_6 C15_4 1_555 1_555
C17_4 C16_6 1_555 1_555
H8_4 C17_4 1_555 1_555
C18_4 C17_4 1_555 1_555
H9_4 C18_4 1_555 1_555
C25_4 O9_4 1_555 1_555
C41_4 C40_4 1_555 1_555
H21_4 C41_4 1_555 1_555
C42_4 C41_4 1_555 1_555
H22_4 C42_4 1_555 1_555
H23_4 C44_4 1_555 1_555
C7_4 C12_4 1_555 1_555
C9_4 C10_4 1_555 1_555
C10_4 C11_4 1_555 1_555
C42_4 C43_4 1_555 1_555
C43_4 C44_4 1_555 1_555
O25_2 C74_4 1_555 1_555
O32_2 C74_4 1_555 1_555
C64_4 C63_4 1_555 1_555
C70_4 C69_4 1_555 1_555
H35_4 C70_4 1_555 1_555
C71_4 C66_5 1_555 1_555
C72_4 C71_4 1_555 1_555
H36_4 C72_4 1_555 1_555
C73_4 C64_4 1_555 1_555
H37_4 C73_4 1_555 1_555
C74_4 C69_4 1_555 1_555
C75_4 O27_4 1_555 1_555
C76_4 C75_4 1_555 1_555
H38_4 C76_4 1_555 1_555
H39_4 C76_4 1_555 1_555
H40_4 C76_4 1_555 1_555
O24_4 C63_4 1_555 1_555
C70_4 C71_4 1_555 1_555
C72_4 C73_4 1_555 1_555
C27_4 C26_4 1_555 1_555
H13_4 C27_4 1_555 1_555
C28_4 C27_4 1_555 1_555
H14_4 C28_4 1_555 1_555
C29_4 C28_4 1_555 1_555
C30_4 C29_4 1_555 1_555
H15_4 C30_4 1_555 1_555
O15_4 C39_4 1_555 1_555
Cd9_2 O15_4 1_555 1_555
Cd5_2 O19_4 1_555 1_555
O19_4 C51_4 1_555 1_555
O20_4 Cd5_2 1_555 1_555
O23_4 Cd5_2 1_555 1_555
O28_4 Cd5_2 1_555 1_555
C51_4 O20_4 1_555 1_555
C52_4 C51_4 1_555 1_555
C53_4 C52_4 1_555 1_555
H26_4 C53_4 1_555 1_555
C54_4 C53_4 1_555 1_555
H27_4 C54_4 1_555 1_555
C55_4 C54_4 1_555 1_555
C56_4 C55_4 1_555 1_555
H28_4 C56_4 1_555 1_555
C57_4 C56_4 1_555 1_555
C58_4 C57_4 1_555 1_555
H29_4 C58_4 1_555 1_555
C59_4 C58_4 1_555 1_555
H30_4 C59_4 1_555 1_555
C60_4 C55_4 1_555 1_555
C61_4 C52_4 1_555 1_555
H31_4 C61_4 1_555 1_555
C62_4 O21_4 1_555 1_555
H32_4 C65_4 1_555 1_555
C66_6 C65_4 1_555 1_555
C67_4 C66_6 1_555 1_555
H33_4 C67_4 1_555 1_555
C68_4 C67_4 1_555 1_555
H34_4 C68_4 1_555 1_555
O22_4 C62_4 1_555 1_555
C57_4 C62_4 1_555 1_555
C59_4 C60_4 1_555 1_555
C60_4 C61_4 1_555 1_555

#END
