
###############################################################################
#
# This file contains modified crystal structure data generated from the
# MOF subset of the Cambridge Structural Database (CSD) v543 
# hosted by the Cambridge Crystallographic Data Centre (CCDC).
#
# This work is licensed under the Creative Commons
# Attribution-NonCommercial-ShareAlike 4.0 International License.
# To view a copy of this license, visit
# http://creativecommons.org/licenses/by-nc-sa/4.0/
# or send a letter to
# Creative Commons, PO Box 1866, Mountain View, CA 94042, USA.
#
# CIF created using the CSD Python API on 29 September 2022
# The structure has been converted into the P1 space group
# The structure has a 3D framework
# The original CSD entry FAVGAN is in the orthorhombic crystal system
# The original CSD entry FAVGAN is in a Sohncke space group
# The framework has been calculated to contain at least 10.0% void space
# The void calculation uses a probe of radius 1.32A, grid spacing 0.4
#
###############################################################################

data_FAVGAN
_chemical_formula_moiety         '(C119 H117 Nd8 O72)n'
_symmetry_cell_setting           triclinic
_symmetry_space_group_name_H-M   'P 1'
_symmetry_Int_Tables_number      1
_space_group_name_Hall           'P 1'
loop_
_symmetry_equiv_pos_site_id
_symmetry_equiv_pos_as_xyz
1 x,y,z
_cell_length_a                   12.8414(4)
_cell_length_b                   24.1086(6)
_cell_length_c                   12.3488(3)
_cell_angle_alpha                90
_cell_angle_beta                 90
_cell_angle_gamma                90
_cell_volume                     3823.04
loop_
_atom_site_label
_atom_site_type_symbol
_atom_site_fract_x
_atom_site_fract_y
_atom_site_fract_z
Nd7 Nd 0.60178(4) 0.068202(16) 0.05460(4)
C14 C -0.0000 -0.0000 0.1774(11)
H12 H -0.0000 -0.0000 0.1021
C17 C -0.0000 -0.0000 0.4044(10)
C18 C -0.0000 -0.0000 0.5257(11)
C22 C 0.5000 -0.0000 0.3968(13)
C23 C 0.5128(8) 0.0500(4) 0.4528(9)
H18 H 0.5212 0.0835 0.4164
C24 C 0.5125(9) 0.0474(4) 0.5624(8)
C25 C 0.5000 -0.0000 0.6209(13)
H19 H 0.5000 -0.0000 0.6962
C26 C 0.5000 -0.0000 0.2736(12)
C27 C 0.5104(9) 0.1051(5) 0.7257(9)
H20 H 0.4469 0.0862 0.7498
C28 C 0.6054(9) 0.0783(4) 0.7795(8)
C29 C 0.5040(11) 0.1668(5) 0.7547(11)
H21 H 0.5696 0.1843 0.7398
H22 H 0.4879 0.1707 0.8303
H23 H 0.4504 0.1842 0.7124
O13 O 0.5879(8) 0.0587(3) 0.8708(5)
O14 O 0.6890(6) 0.0791(5) 0.7342(8)
O15 O 0.5196(8) 0.1007(3) 0.6089(6)
H31 H 0.0150 0.0889 0.0484
H34 H 0.0056 0.1834 0.0936
O25 O 0.5463(6) 0.0393(3) 0.2279(6)
Nd18 Nd 0.87512(4) 0.082311(19) 0.72519(4)
O44 O 0.4021(5) 0.0325(2) 0.0405(6)
Nd11 Nd 0.10178(4) 0.431798(16) 0.94540(4)
Nd5 Nd 0.39822(4) 0.931798(16) 0.05460(4)
C3 C 0.3163(7) 0.7561(3) 0.0772(8)
C4 C 0.3117(9) 0.7309(4) 0.1769(9)
H2 H 0.3220 0.7516 0.2396
C5 C 0.2913(8) 0.6735(4) 0.1835(9)
C6 C 0.2731(8) 0.6426(3) 0.0887(9)
H3 H 0.2573 0.6050 0.0927
C10 C 0.2764(8) 0.5951(4) 0.3053(9)
H8 H 0.2116 0.5835 0.2701
C11 C 0.3665(10) 0.5624(4) 0.2577(9)
C12 C 0.2674(10) 0.5857(5) 0.4239(10)
H9 H 0.3279 0.6004 0.4596
H10 H 0.2622 0.5467 0.4381
H11 H 0.2063 0.6042 0.4507
C13 C 0.3398(8) 0.8179(3) 0.0697(8)
C14_2 C -0.0000 1.0000 0.1774(11)
H12_2 H -0.0000 1.0000 0.1021
C15 C 0.0263(7) 0.9518(4) 0.2361(7)
C16 C 0.0276(8) 0.9528(4) 0.3496(8)
H13 H 0.0471 0.9212 0.3879
C17_2 C -0.0000 1.0000 0.4044(10)
C18_2 C 0.0000 1.0000 0.5257(11)
C19 C 0.0505(7) 0.8958(4) 0.0760(8)
C20 C 0.1412(7) 0.9249(4) 0.0174(7)
C21 C 0.0508(9) 0.8335(4) 0.0549(11)
H15 H 0.1156 0.8180 0.0791
C22_2 C 0.5000 1.0000 0.3968(13)
C25_2 C 0.5000 1.0000 0.6209(13)
H19_2 H 0.5000 1.0000 0.6962
C26_2 C 0.5000 1.0000 0.2736(12)
Nd2 Nd 0.62488(4) 0.582311(19) 0.27481(4)
O1 O 0.2920(7) 0.6534(3) 0.2870(7)
O2 O 0.4467(6) 0.5857(5) 0.2313(8)
O3 O 0.3464(10) 0.5107(3) 0.2535(9)
O8 O 0.3623(6) 0.8441(2) 0.1544(5)
O9 O 0.0520(6) 0.9025(3) 0.1906(5)
O10 O 0.2156(5) 0.9397(3) 0.0721(6)
O12 O 0.0416(6) 0.9606(3) 0.5722(5)
O16 O 0.4537(6) 0.9607(3) 0.2279(6)
O17 O 0.6876(7) 0.6713(3) 0.1966(6)
H24 H 0.7191 0.6817 0.1385
H25 H 0.6815 0.7010 0.2355
O18 O 0.7254(8) 0.6103(5) 0.4435(8)
H26 H 0.7383 0.6173 0.5096
H27 H 0.7823 0.6125 0.4087
O19 O 0.5328(9) 0.6626(4) 0.3638(9)
H28 H 0.4817 0.6817 0.3412
H29 H 0.5749 0.6845 0.3953
C35 C 0.4872(8) 0.9500(4) 0.4528(9)
H35 H 0.4788 0.9165 0.4164
C36 C 0.4875(9) 0.9526(4) 0.5624(8)
O24 O 0.4804(8) 0.8993(3) 0.6089(6)
C37 C 0.4896(9) 0.8949(5) 0.7257(9)
H36 H 0.5531 0.9138 0.7498
C38 C 0.3946(9) 0.9217(4) 0.7795(8)
C39 C 0.4960(11) 0.8332(5) 0.7547(11)
H37 H 0.4304 0.8157 0.7398
H38 H 0.5121 0.8293 0.8303
H39 H 0.5496 0.8158 0.7124
O26 O 0.4121(8) 0.9413(3) 0.8708(5)
O27 O 0.3110(6) 0.9209(5) 0.7342(8)
Nd13 Nd 0.37512(4) 0.417689(19) 0.27481(4)
Nd15 Nd 0.12488(4) 0.917689(19) 0.72519(4)
O40 O 0.6536(10) 0.4893(3) 0.2535(9)
O42 O 0.5979(5) 0.9675(2) 0.0405(6)
O45 O 0.5681(5) 0.8793(2) 0.0649(7)
O47 O 0.6331(6) 0.5734(3) 0.0821(6)
O49 O 0.5416(6) 0.5394(3) 0.4278(5)
O54 O 0.8110(6) 0.5791(5) 0.2658(8)
C1 C 0.2789(7) 0.6686(3) 0.9917(9)
C2 C 0.2997(7) 0.7277(3) 0.9854(8)
H1 H 0.3016 0.7456 0.9187
C7 C 0.2364(7) 0.5866(3) 0.8897(8)
H4 H 0.2844 0.5638 0.9324
C8 C 0.1269(7) 0.5804(3) 0.9337(8)
C9 C 0.2412(8) 0.5694(4) 0.7739(9)
H5 H 0.1902 0.5897 0.7331
H6 H 0.2270 0.5304 0.7684
H7 H 0.3093 0.5770 0.7456
H16 H 0.0427 0.8268 0.9788
O4 O 0.2693(5) 0.6435(2) 0.8933(6)
O5 O 0.0979(5) 0.5325(2) 0.9595(6)
O6 O 0.0681(5) 0.6207(2) 0.9351(7)
O7 O 0.3342(6) 0.8411(2) 0.9796(5)
O11 O 0.1331(6) 0.9266(3) 0.9179(6)
C14_3 C 1.0000 -0.0000 0.1774(11)
H12_3 H 1.0000 -0.0000 0.1021
C17_3 C 1.0000 -0.0000 0.4044(10)
C18_3 C 1.0000 -0.0000 0.5257(11)
C30 C 0.9737(7) 0.0482(4) 0.2361(7)
C31 C 0.9724(8) 0.0472(4) 0.3496(8)
H30 H 0.9529 0.0788 0.3879
C32 C 0.9495(7) 0.1042(4) 0.0760(8)
C33 C 0.8588(7) 0.0751(4) 0.0174(7)
C34 C 0.9492(9) 0.1665(4) 0.0549(11)
H32 H 0.8844 0.1820 0.0791
O20 O 0.9480(6) 0.0975(3) 0.1906(5)
O21 O 0.7844(5) 0.0603(3) 0.0721(6)
O23 O 0.9584(6) 0.0394(3) 0.5722(5)
C42 C 0.6837(7) 0.2439(3) 0.0772(8)
C43 C 0.6883(9) 0.2691(4) 0.1769(9)
H41 H 0.6780 0.2484 0.2396
C44 C 0.7087(8) 0.3265(4) 0.1835(9)
C45 C 0.7269(8) 0.3574(3) 0.0887(9)
H42 H 0.7427 0.3950 0.0927
C49 C 0.7236(8) 0.4049(4) 0.3053(9)
H47 H 0.7884 0.4165 0.2701
C50 C 0.6335(10) 0.4376(4) 0.2577(9)
C51 C 0.7326(10) 0.4143(5) 0.4239(10)
H48 H 0.6721 0.3996 0.4596
H49 H 0.7378 0.4533 0.4381
H50 H 0.7937 0.3958 0.4507
C52 C 0.6602(8) 0.1821(3) 0.0697(8)
O28 O 0.7080(7) 0.3466(3) 0.2870(7)
O29 O 0.5533(6) 0.4143(5) 0.2313(8)
O35 O 0.6377(6) 0.1559(2) 0.1544(5)
O36 O 0.3124(7) 0.3287(3) 0.1966(6)
H51 H 0.2809 0.3183 0.1385
H52 H 0.3185 0.2990 0.2355
O37 O 0.2746(8) 0.3897(5) 0.4435(8)
H53 H 0.2617 0.3827 0.5096
H54 H 0.2177 0.3875 0.4087
O38 O 0.4672(9) 0.3374(4) 0.3638(9)
H55 H 0.5183 0.3183 0.3412
H56 H 0.4251 0.3155 0.3953
O46 O 0.4319(5) 0.1207(2) 0.0649(7)
O48 O 0.3669(6) 0.4266(3) 0.0821(6)
O50 O 0.4584(6) 0.4606(3) 0.4278(5)
O53 O 0.1890(6) 0.4209(5) 0.2658(8)
H33 H 0.9573 0.1732 0.9788
O22 O 0.8669(6) 0.0734(3) 0.9179(6)
C40 C 0.7211(7) 0.3314(3) 0.9917(9)
C41 C 0.7003(7) 0.2723(3) 0.9854(8)
H40 H 0.6984 0.2544 0.9187
C46 C 0.7636(7) 0.4134(3) 0.8897(8)
H43 H 0.7156 0.4362 0.9324
C47 C 0.8731(7) 0.4196(3) 0.9337(8)
C48 C 0.7588(8) 0.4306(4) 0.7739(9)
H44 H 0.8098 0.4103 0.7331
H45 H 0.7730 0.4696 0.7684
H46 H 0.6907 0.4230 0.7456
O31 O 0.7307(5) 0.3565(2) 0.8933(6)
O32 O 0.9021(5) 0.4675(2) 0.9595(6)
O33 O 0.9319(5) 0.3793(2) 0.9351(7)
O34 O 0.6658(6) 0.1589(2) 0.9796(5)
Nd9 Nd 0.89822(4) 0.568202(16) 0.94540(4)
C14_4 C 1.0000 1.0000 0.1774(11)
H12_4 H 1.0000 1.0000 0.1021
C17_4 C 1.0000 1.0000 0.4044(10)
C18_4 C 1.0000 1.0000 0.5257(11)
H14 H 0.9850 0.9111 0.0484
H17 H 0.9944 0.8166 0.0936
O40_2 O 0.1536(10) 0.0107(3) 0.7465(9)
C22_3 C -0.0000 0.5000 0.6032(13)
C23_2 C 0.0128(8) 0.4500(4) 0.5472(9)
H18_2 H 0.0212 0.4165 0.5836
C24_2 C 0.0125(9) 0.4526(4) 0.4376(8)
C25_3 C -0.0000 0.5000 0.3791(13)
H19_3 H -0.0000 0.5000 0.3038
C26_3 C -0.0000 0.5000 0.7264(12)
C27_2 C 0.0104(9) 0.3949(5) 0.2743(9)
C28_2 C 0.1054(9) 0.4217(4) 0.2205(8)
C29_2 C 0.0040(11) 0.3332(5) 0.2453(11)
H21_2 H 0.0696 0.3157 0.2602
O13_2 O 0.0879(8) 0.4413(3) 0.1292(5)
O15_2 O 0.0196(8) 0.3993(3) 0.3911(6)
O17_2 O 0.1876(7) 0.8287(3) 0.8034(6)
H24_2 H 0.2191 0.8183 0.8615
H25_2 H 0.1815 0.7990 0.7645
O18_2 O 0.2254(8) 0.8897(5) 0.5565(8)
H26_2 H 0.2383 0.8827 0.4904
H27_2 H 0.2823 0.8875 0.5913
O19_2 O 0.0328(9) 0.8374(4) 0.6362(9)
H29_2 H 0.0749 0.8155 0.6047
O25_2 O 0.0463(6) 0.4607(3) 0.7721(6)
H36_2 H 0.0531 0.5862 0.2502
H38_2 H 0.0121 0.6707 0.1697
H39_2 H 0.0496 0.6842 0.2876
C1_2 C 0.7789(7) 0.8314(3) 0.0083(9)
C2_2 C 0.7997(7) 0.7723(3) 0.0146(8)
H1_2 H 0.8016 0.7544 0.0813
C7_2 C 0.7364(7) 0.9134(3) 0.1103(8)
H4_2 H 0.7844 0.9362 0.0676
C8_2 C 0.6269(7) 0.9196(3) 0.0663(8)
C9_2 C 0.7412(8) 0.9306(4) 0.2261(9)
H5_2 H 0.6902 0.9103 0.2669
H6_2 H 0.7270 0.9696 0.2316
H7_2 H 0.8093 0.9230 0.2544
H16_2 H 0.5427 0.6732 0.0212
O4_2 O 0.7693(5) 0.8565(2) 0.1067(6)
O7_2 O 0.8342(6) 0.6589(2) 0.0204(5)
H33_2 H 0.4573 0.3268 0.0212
C40_2 C 0.2211(7) 0.1686(3) 0.0083(9)
C41_2 C 0.2003(7) 0.2277(3) 0.0146(8)
H40_2 H 0.1984 0.2456 0.0813
C46_2 C 0.2636(7) 0.0866(3) 0.1103(8)
H43_2 H 0.2156 0.0638 0.0676
C47_2 C 0.3731(7) 0.0804(3) 0.0663(8)
C48_2 C 0.2588(8) 0.0694(4) 0.2261(9)
H44_2 H 0.3098 0.0897 0.2669
H45_2 H 0.2730 0.0304 0.2316
H46_2 H 0.1907 0.0770 0.2544
O31_2 O 0.2307(5) 0.1435(2) 0.1067(6)
O34_2 O 0.1658(6) 0.3411(2) 0.0204(5)
O52 O 0.9121(8) 0.5587(3) 0.1292(5)
C3_2 C 0.8163(7) 0.7439(3) 0.9228(8)
C4_2 C 0.8117(9) 0.7691(4) 0.8231(9)
H2_2 H 0.8220 0.7484 0.7604
C5_2 C 0.7913(8) 0.8265(4) 0.8165(9)
C6_2 C 0.7731(8) 0.8574(3) 0.9113(9)
H3_2 H 0.7573 0.8950 0.9073
C10_2 C 0.7764(8) 0.9049(4) 0.6947(9)
H8_2 H 0.7116 0.9165 0.7299
C11_2 C 0.8665(10) 0.9376(4) 0.7423(9)
C12_2 C 0.7674(10) 0.9143(5) 0.5761(10)
H9_2 H 0.8279 0.8996 0.5404
H10_2 H 0.7622 0.9533 0.5619
H11_2 H 0.7063 0.8958 0.5493
C13_2 C 0.8398(8) 0.6821(3) 0.9303(8)
C14_5 C 0.5000 0.5000 0.8226(11)
H12_5 H 0.5000 0.5000 0.8979
C15_2 C 0.5263(7) 0.5482(4) 0.7639(7)
C16_2 C 0.5276(8) 0.5472(4) 0.6504(8)
H13_2 H 0.5471 0.5788 0.6121
C17_5 C 0.5000 0.5000 0.5956(10)
C18_5 C 0.5000 0.5000 0.4743(11)
C19_2 C 0.5505(7) 0.6042(4) 0.9240(8)
H14_2 H 0.4850 0.5889 0.9516
C20_2 C 0.6412(7) 0.5751(4) 0.9826(7)
C21_2 C 0.5508(9) 0.6665(4) 0.9451(11)
H15_2 H 0.6156 0.6820 0.9209
H17_2 H 0.4944 0.6834 0.9064
C22_4 C 1.0000 0.5000 0.6032(13)
C25_4 C 1.0000 0.5000 0.3791(13)
H19_4 H 1.0000 0.5000 0.3038
C26_4 C 1.0000 0.5000 0.7264(12)
H20_2 H 0.9469 0.4138 0.2502
H22_2 H 0.9879 0.3293 0.1697
H23_2 H 0.9504 0.3158 0.2876
O1_2 O 0.7920(7) 0.8466(3) 0.7130(7)
O2_2 O 0.9467(6) 0.9143(5) 0.7687(8)
O3_2 O 0.8464(10) 0.9893(3) 0.7465(9)
O8_2 O 0.8623(6) 0.6559(2) 0.8456(5)
O9_2 O 0.5520(6) 0.5975(3) 0.8094(5)
O10_2 O 0.7156(5) 0.5603(3) 0.9279(6)
O16_2 O 0.9537(6) 0.5393(3) 0.7721(6)
H28_2 H 0.9817 0.8183 0.6588
C30_2 C 0.4737(7) 0.4518(4) 0.7639(7)
C31_2 C 0.4724(8) 0.4528(4) 0.6504(8)
H30_2 H 0.4529 0.4212 0.6121
C32_2 C 0.4495(7) 0.3958(4) 0.9240(8)
H31_2 H 0.5150 0.4111 0.9516
C33_2 C 0.3588(7) 0.4249(4) 0.9826(7)
C34_2 C 0.4492(9) 0.3335(4) 0.9451(11)
H32_2 H 0.3844 0.3180 0.9209
H34_2 H 0.5056 0.3166 0.9064
O20_2 O 0.4480(6) 0.4025(3) 0.8094(5)
O21_2 O 0.2844(5) 0.4397(3) 0.9279(6)
C35_2 C 0.9872(8) 0.5500(4) 0.5472(9)
H35_2 H 0.9788 0.5835 0.5836
C36_2 C 0.9875(9) 0.5474(4) 0.4376(8)
O24_2 O 0.9804(8) 0.6007(3) 0.3911(6)
C37_2 C 0.9896(9) 0.6051(5) 0.2743(9)
C38_2 C 0.8946(9) 0.5783(4) 0.2205(8)
C39_2 C 0.9960(11) 0.6668(5) 0.2453(11)
H37_2 H 0.9304 0.6843 0.2602
C42_2 C 0.1837(7) 0.2561(3) 0.9228(8)
C43_2 C 0.1883(9) 0.2309(4) 0.8231(9)
H41_2 H 0.1780 0.2516 0.7604
C44_2 C 0.2087(8) 0.1735(4) 0.8165(9)
C45_2 C 0.2269(8) 0.1426(3) 0.9113(9)
H42_2 H 0.2427 0.1050 0.9073
C49_2 C 0.2236(8) 0.0951(4) 0.6947(9)
H47_2 H 0.2884 0.0835 0.7299
C50_2 C 0.1335(10) 0.0624(4) 0.7423(9)
C51_2 C 0.2326(10) 0.0857(5) 0.5761(10)
H48_2 H 0.1721 0.1004 0.5404
H49_2 H 0.2378 0.0467 0.5619
H50_2 H 0.2937 0.1042 0.5493
C52_2 C 0.1602(8) 0.3179(3) 0.9303(8)
O28_2 O 0.2080(7) 0.1534(3) 0.7130(7)
O29_2 O 0.0533(6) 0.0857(5) 0.7687(8)
O35_2 O 0.1377(6) 0.3441(2) 0.8456(5)
H55_2 H 0.0183 0.1817 0.6588
O36_2 O 0.8124(7) 0.1713(3) 0.8034(6)
H51_2 H 0.7809 0.1817 0.8615
H52_2 H 0.8185 0.2010 0.7645
O37_2 O 0.7746(8) 0.1103(5) 0.5565(8)
H53_2 H 0.7617 0.1173 0.4904
H54_2 H 0.7177 0.1125 0.5913
O38_2 O 0.9672(9) 0.1626(4) 0.6362(9)
H56_2 H 0.9251 0.1845 0.6047
loop_
_geom_bond_atom_site_label_1
_geom_bond_atom_site_label_2
_geom_bond_site_symmetry_1
_geom_bond_site_symmetry_2
C14 H12 1_555 1_555
C18 C17 1_555 1_555
C22 C23 1_555 1_555
C23 H18 1_555 1_555
C24 C23 1_555 1_555
C25 C24 1_555 1_555
H19 C25 1_555 1_555
C26 C22 1_555 1_555
C27 H20 1_555 1_555
C28 C27 1_555 1_555
C29 C27 1_555 1_555
H21 C29 1_555 1_555
H22 C29 1_555 1_555
H23 C29 1_555 1_555
O13 C28 1_555 1_555
O14 C28 1_555 1_555
O15 C24 1_555 1_555
O25 C26 1_555 1_555
Nd7 O25 1_555 1_555
Nd18 O14 1_555 1_555
C27 O15 1_555 1_555
Nd7 O44 1_555 1_555
C4 C3 1_555 1_555
H2 C4 1_555 1_555
C5 C4 1_555 1_555
H3 C6 1_555 1_555
C10 H8 1_555 1_555
C11 C10 1_555 1_555
C12 C10 1_555 1_555
H9 C12 1_555 1_555
H10 C12 1_555 1_555
H11 C12 1_555 1_555
C13 C3 1_555 1_555
C14_2 H12_2 1_555 1_555
C15 C14_2 1_555 1_555
C16 C15 1_555 1_555
H13 C16 1_555 1_555
C17_2 C16 1_555 1_555
C18_2 C17_2 1_555 1_555
C20 C19 1_555 1_555
C21 C19 1_555 1_555
H15 C21 1_555 1_555
H19_2 C25_2 1_555 1_555
C26_2 C22_2 1_555 1_555
Nd2 O2 1_555 1_555
O1 C5 1_555 1_555
O2 C11 1_555 1_555
O3 C11 1_555 1_555
O8 C13 1_555 1_555
O9 C15 1_555 1_555
O10 C20 1_555 1_555
O12 C18_2 1_555 1_555
O16 C26_2 1_555 1_555
O17 Nd2 1_555 1_555
H24 O17 1_555 1_555
H25 O17 1_555 1_555
O18 Nd2 1_555 1_555
H26 O18 1_555 1_555
H27 O18 1_555 1_555
O19 Nd2 1_555 1_555
H28 O19 1_555 1_555
H29 O19 1_555 1_555
C35 C22_2 1_555 1_555
H35 C35 1_555 1_555
C36 C25_2 1_555 1_555
O24 C36 1_555 1_555
C37 O24 1_555 1_555
H36 C37 1_555 1_555
C38 C37 1_555 1_555
C39 C37 1_555 1_555
H37 C39 1_555 1_555
H38 C39 1_555 1_555
H39 C39 1_555 1_555
O26 C38 1_555 1_555
O27 C38 1_555 1_555
Nd13 O3 1_555 1_555
Nd15 O12 1_555 1_555
O40 Nd2 1_555 1_555
O42 Nd5 1_555 1_555
O45 Nd5 1_555 1_555
O47 Nd2 1_555 1_555
O49 Nd2 1_555 1_555
O54 Nd2 1_555 1_555
C5 C6 1_555 1_555
C10 O1 1_555 1_555
C19 O9 1_555 1_555
Nd5 O8 1_555 1_555
Nd5 O10 1_555 1_555
Nd5 O16 1_555 1_555
C35 C36 1_555 1_555
O27 Nd15 1_555 1_555
C1 C2 1_555 1_555
C2 H1 1_555 1_555
C7 H4 1_555 1_555
C8 C7 1_555 1_555
C9 C7 1_555 1_555
H5 C9 1_555 1_555
H6 C9 1_555 1_555
H7 C9 1_555 1_555
O4 C1 1_555 1_555
O5 C8 1_555 1_555
O6 C8 1_555 1_555
Nd11 O5 1_555 1_555
Nd15 O11 1_555 1_555
C7 O4 1_555 1_555
C14_3 H12_3 1_555 1_555
C18_3 C17_3 1_555 1_555
C30 C14_3 1_555 1_555
C31 C17_3 1_555 1_555
H30 C31 1_555 1_555
C33 C32 1_555 1_555
C34 C32 1_555 1_555
H32 C34 1_555 1_555
O20 C30 1_555 1_555
O21 C33 1_555 1_555
O23 C18_3 1_555 1_555
C43 C42 1_555 1_555
H41 C43 1_555 1_555
C44 C43 1_555 1_555
H42 C45 1_555 1_555
C49 H47 1_555 1_555
C50 C49 1_555 1_555
C51 C49 1_555 1_555
H48 C51 1_555 1_555
H49 C51 1_555 1_555
H50 C51 1_555 1_555
C52 C42 1_555 1_555
Nd7 O21 1_555 1_555
Nd13 O29 1_555 1_555
O28 C44 1_555 1_555
O29 C50 1_555 1_555
O40 C50 1_555 1_555
O35 C52 1_555 1_555
O36 Nd13 1_555 1_555
H51 O36 1_555 1_555
H52 O36 1_555 1_555
O37 Nd13 1_555 1_555
H53 O37 1_555 1_555
H54 O37 1_555 1_555
O38 Nd13 1_555 1_555
H55 O38 1_555 1_555
H56 O38 1_555 1_555
Nd18 O23 1_555 1_555
O46 Nd7 1_555 1_555
O48 Nd13 1_555 1_555
O50 Nd13 1_555 1_555
O53 Nd13 1_555 1_555
C30 C31 1_555 1_555
C32 O20 1_555 1_555
C44 C45 1_555 1_555
C49 O28 1_555 1_555
Nd7 O35 1_555 1_555
C40 C41 1_555 1_555
C41 H40 1_555 1_555
C46 H43 1_555 1_555
C47 C46 1_555 1_555
C48 C46 1_555 1_555
H44 C48 1_555 1_555
H45 C48 1_555 1_555
H46 C48 1_555 1_555
O31 C40 1_555 1_555
O32 C47 1_555 1_555
O33 C47 1_555 1_555
Nd9 O32 1_555 1_555
Nd18 O22 1_555 1_555
C46 O31 1_555 1_555
C14_4 H12_4 1_555 1_555
C18_4 C17_4 1_555 1_555
C22_3 C23_2 1_555 1_555
C23_2 H18_2 1_555 1_555
C24_2 C23_2 1_555 1_555
C25_3 C24_2 1_555 1_555
H19_3 C25_3 1_555 1_555
C26_3 C22_3 1_555 1_555
C28_2 C27_2 1_555 1_555
C29_2 C27_2 1_555 1_555
H21_2 C29_2 1_555 1_555
O13_2 C28_2 1_555 1_555
O53 C28_2 1_555 1_555
O15_2 C24_2 1_555 1_555
O17_2 Nd15 1_555 1_555
H24_2 O17_2 1_555 1_555
H25_2 O17_2 1_555 1_555
O18_2 Nd15 1_555 1_555
H26_2 O18_2 1_555 1_555
H27_2 O18_2 1_555 1_555
O19_2 Nd15 1_555 1_555
H29_2 O19_2 1_555 1_555
O25_2 C26_3 1_555 1_555
Nd11 O25_2 1_555 1_555
C27_2 O15_2 1_555 1_555
C1_2 C2_2 1_555 1_555
C2_2 H1_2 1_555 1_555
C7_2 H4_2 1_555 1_555
C8_2 C7_2 1_555 1_555
C9_2 C7_2 1_555 1_555
H5_2 C9_2 1_555 1_555
H6_2 C9_2 1_555 1_555
H7_2 C9_2 1_555 1_555
O4_2 C1_2 1_555 1_555
O42 C8_2 1_555 1_555
O45 C8_2 1_555 1_555
C40_2 C41_2 1_555 1_555
C41_2 H40_2 1_555 1_555
C46_2 H43_2 1_555 1_555
C47_2 C46_2 1_555 1_555
C48_2 C46_2 1_555 1_555
H44_2 C48_2 1_555 1_555
H45_2 C48_2 1_555 1_555
H46_2 C48_2 1_555 1_555
O31_2 C40_2 1_555 1_555
O44 C47_2 1_555 1_555
O46 C47_2 1_555 1_555
C7_2 O4_2 1_555 1_555
C46_2 O31_2 1_555 1_555
C4_2 C3_2 1_555 1_555
H2_2 C4_2 1_555 1_555
C5_2 C4_2 1_555 1_555
H3_2 C6_2 1_555 1_555
C10_2 H8_2 1_555 1_555
C11_2 C10_2 1_555 1_555
C12_2 C10_2 1_555 1_555
H9_2 C12_2 1_555 1_555
H10_2 C12_2 1_555 1_555
H11_2 C12_2 1_555 1_555
C13_2 C3_2 1_555 1_555
C14_5 H12_5 1_555 1_555
C15_2 C14_5 1_555 1_555
C16_2 C15_2 1_555 1_555
H13_2 C16_2 1_555 1_555
C17_5 C16_2 1_555 1_555
C18_5 C17_5 1_555 1_555
C19_2 H14_2 1_555 1_555
C20_2 C19_2 1_555 1_555
C21_2 C19_2 1_555 1_555
H15_2 C21_2 1_555 1_555
H17_2 C21_2 1_555 1_555
H19_4 C25_4 1_555 1_555
C26_4 C22_4 1_555 1_555
O1_2 C5_2 1_555 1_555
O2_2 C11_2 1_555 1_555
O3_2 C11_2 1_555 1_555
O8_2 C13_2 1_555 1_555
O9_2 C15_2 1_555 1_555
O10_2 C20_2 1_555 1_555
O49 C18_5 1_555 1_555
O16_2 C26_4 1_555 1_555
C30_2 C14_5 1_555 1_555
C31_2 C17_5 1_555 1_555
H30_2 C31_2 1_555 1_555
C32_2 H31_2 1_555 1_555
C33_2 C32_2 1_555 1_555
C34_2 C32_2 1_555 1_555
H32_2 C34_2 1_555 1_555
H34_2 C34_2 1_555 1_555
O20_2 C30_2 1_555 1_555
O21_2 C33_2 1_555 1_555
O50 C18_5 1_555 1_555
C35_2 C22_4 1_555 1_555
H35_2 C35_2 1_555 1_555
C36_2 C25_4 1_555 1_555
O24_2 C36_2 1_555 1_555
C37_2 O24_2 1_555 1_555
C38_2 C37_2 1_555 1_555
C39_2 C37_2 1_555 1_555
H37_2 C39_2 1_555 1_555
O52 C38_2 1_555 1_555
O54 C38_2 1_555 1_555
C43_2 C42_2 1_555 1_555
H41_2 C43_2 1_555 1_555
C44_2 C43_2 1_555 1_555
H42_2 C45_2 1_555 1_555
C49_2 H47_2 1_555 1_555
C50_2 C49_2 1_555 1_555
C51_2 C49_2 1_555 1_555
H48_2 C51_2 1_555 1_555
H49_2 C51_2 1_555 1_555
H50_2 C51_2 1_555 1_555
C52_2 C42_2 1_555 1_555
Nd11 O21_2 1_555 1_555
O28_2 C44_2 1_555 1_555
O29_2 C50_2 1_555 1_555
O40_2 C50_2 1_555 1_555
O35_2 C52_2 1_555 1_555
C5_2 C6_2 1_555 1_555
C10_2 O1_2 1_555 1_555
C19_2 O9_2 1_555 1_555
Nd9 O8_2 1_555 1_555
Nd9 O10_2 1_555 1_555
Nd9 O16_2 1_555 1_555
C30_2 C31_2 1_555 1_555
C32_2 O20_2 1_555 1_555
C35_2 C36_2 1_555 1_555
C44_2 C45_2 1_555 1_555
C49_2 O28_2 1_555 1_555
Nd11 O35_2 1_555 1_555
O36_2 Nd18 1_555 1_555
H51_2 O36_2 1_555 1_555
H52_2 O36_2 1_555 1_555
O37_2 Nd18 1_555 1_555
H53_2 O37_2 1_555 1_555
H54_2 O37_2 1_555 1_555
O38_2 Nd18 1_555 1_555
H56_2 O38_2 1_555 1_555

#END
