
###############################################################################
#
# This file contains modified crystal structure data generated from the
# MOF subset of the Cambridge Structural Database (CSD) v543 
# hosted by the Cambridge Crystallographic Data Centre (CCDC).
#
# This work is licensed under the Creative Commons
# Attribution-NonCommercial-ShareAlike 4.0 International License.
# To view a copy of this license, visit
# http://creativecommons.org/licenses/by-nc-sa/4.0/
# or send a letter to
# Creative Commons, PO Box 1866, Mountain View, CA 94042, USA.
#
# CIF created using the CSD Python API on 29 September 2022
# The structure has been converted into the P1 space group
# The structure has a 3D framework
# The original CSD entry FAVGOB is in the monoclinic crystal system
# The original CSD entry FAVGOB is in a Sohncke space group
# The framework has been calculated to contain at least 10.0% void space
# The void calculation uses a probe of radius 1.32A, grid spacing 0.4
#
###############################################################################

data_FAVGOB
_chemical_formula_moiety         '(C52 H52 O32 Sm4)n'
_symmetry_cell_setting           triclinic
_symmetry_space_group_name_H-M   'P 1'
_symmetry_Int_Tables_number      1
_space_group_name_Hall           'P 1'
loop_
_symmetry_equiv_pos_site_id
_symmetry_equiv_pos_as_xyz
1 x,y,z
_cell_length_a                   11.900(2)
_cell_length_b                   12.494(3)
_cell_length_c                   12.539(3)
_cell_angle_alpha                90
_cell_angle_beta                 98.76(3)
_cell_angle_gamma                90
_cell_volume                     1842.53
loop_
_atom_site_label
_atom_site_type_symbol
_atom_site_fract_x
_atom_site_fract_y
_atom_site_fract_z
Sm6 Sm 0.37261(2) 0.05430(2) 0.131542(19)
C15 C 0.0375(5) 0.4513(5) 0.0123(5)
C16 C 0.1533(5) 0.4280(5) 0.0298(5)
C24 C 0.3180(5) 0.3999(5) 0.1629(6)
H19 H 0.3658 0.4468 0.1261
C25 C 0.3381(5) 0.2839(5) 0.1357(4)
C26 C 0.3468(7) 0.4143(7) 0.2851(6)
H20 H 0.3299 0.4864 0.3039
H21 H 0.4261 0.4002 0.3076
H22 H 0.3023 0.3654 0.3205
O11 O 0.2021(4) 0.4297(4) 0.1359(4)
O12 O 0.2579(4) 0.2182(3) 0.1230(4)
O13 O 0.4387(4) 0.2546(4) 0.1295(3)
O20 O 0.6095(4) 0.5789(4) 0.0467(3)
Sm9 Sm 0.64113(2) 0.27064(2) 0.18695(2)
C1 C 0.5155(6) 0.6598(5) 0.5095(5)
C2 C 0.6112(5) 0.6258(5) 0.4700(5)
H1 H 0.6741 0.6004 0.5162
C3 C 0.6116(5) 0.6305(5) 0.3598(5)
C4 C 0.5171(5) 0.6659(5) 0.2894(5)
H2 H 0.5189 0.6695 0.2156
C5 C 0.4202(5) 0.6956(5) 0.3308(5)
C6 C 0.4194(5) 0.6972(5) 0.4414(5)
H3 H 0.3566 0.7226 0.4696
C7 C 0.5130(5) 0.6590(5) 0.6287(4)
C8 C 0.7210(5) 0.6202(5) 0.2157(5)
H4 H 0.6975 0.6940 0.1976
C9 C 0.6422(4) 0.5439(5) 0.1411(4)
C10 C 0.8441(6) 0.6082(7) 0.2021(6)
H5 H 0.8891 0.6599 0.2464
H6 H 0.8519 0.6196 0.1279
H7 H 0.8698 0.5374 0.2234
C11 C 0.3078(5) 0.7043(5) 0.1559(5)
H8 H 0.3390 0.6333 0.1451
C12 C 0.3678(4) 0.7851(5) 0.0951(4)
C13 C 0.1811(6) 0.7021(6) 0.1159(6)
H9 H 0.1455 0.6505 0.1566
H10 H 0.1681 0.6827 0.0409
H11 H 0.1494 0.7716 0.1247
C17 C 0.2100(5) 0.4093(5) 0.9431(5)
H13 H 0.2877 0.3951 0.9540
C18 C 0.1480(5) 0.4121(5) 0.8377(5)
C19 C 0.0333(5) 0.4339(5) 0.8208(5)
C21 C 0.3132(5) 0.4269(5) 0.7512(6)
H15 H 0.3633 0.3797 0.7994
C22 C 0.3275(5) 0.5420(5) 0.7913(5)
C23 C 0.3417(7) 0.4192(6) 0.6384(6)
H16 H 0.3247 0.3484 0.6107
H17 H 0.4212 0.4336 0.6398
H18 H 0.2976 0.4705 0.5929
O1 O 0.4362(4) 0.7143(4) 0.6623(3)
O2 O 0.5838(4) 0.6023(4) 0.6864(3)
O3 O 0.7117(4) 0.6019(4) 0.3254(3)
O4 O 0.6202(5) 0.4549(4) 0.1744(4)
O6 O 0.3211(4) 0.7250(4) 0.2674(3)
O8 O 0.4071(5) 0.8714(4) 0.1403(4)
O14 O 0.1976(4) 0.3943(3) 0.7483(4)
O15 O 0.2504(4) 0.6089(4) 0.7685(4)
O16 O 0.4238(4) 0.5689(4) 0.8445(3)
O17 O 0.1761(4) 0.8233(4) 0.8604(4)
H23 H 0.1756 0.8731 0.9073
H24 H 0.1152 0.7863 0.8560
O18 O 0.2360(5) 0.8321(6) 0.6503(4)
H25 H 0.2282 0.8891 0.6864
H26 H 0.1951 0.8369 0.5880
Sm1 Sm 0.62739(2) 0.55430(2) 0.868458(19)
Sm2 Sm 0.35887(2) 0.77064(2) 0.81305(2)
O19 O 0.3798(5) 0.9549(4) 0.8256(4)
O21 O 0.3745(4) 0.7627(5) 0.9980(3)
O22 O 0.5929(5) 0.3714(4) 0.8597(4)
O23 O 0.8027(4) 0.5034(4) 0.7994(4)
O24 O 0.8015(3) 0.4783(4) 0.9730(3)
O25 O 0.7421(4) 0.7182(3) 0.8770(4)
O26 O 0.5613(4) 0.7546(4) 0.8705(3)
C14 C 0.9792(5) 0.4540(5) 0.9091(5)
H14 H 0.9928 0.4352 0.7513
C20 C 0.8551(5) 0.4810(5) 0.8917(4)
O9 O 0.1973(4) 0.0034(4) 0.2006(4)
C14_2 C 0.0208(5) 0.9540(5) 0.0909(5)
H14_2 H 0.0072 0.9352 0.2487
C20_2 C 0.1449(5) 0.9810(5) 0.1083(4)
O10 O 0.1985(3) 0.9783(4) 0.0270(3)
O7 O 0.6255(4) 0.2627(5) 0.0020(3)
C1_2 C 0.4845(6) 0.1598(5) 0.4905(5)
C2_2 C 0.3888(5) 0.1258(5) 0.5300(5)
H1_2 H 0.3259 0.1004 0.4838
C3_2 C 0.3884(5) 0.1305(5) 0.6402(5)
C4_2 C 0.4829(5) 0.1659(5) 0.7106(5)
H2_2 H 0.4811 0.1695 0.7844
C5_2 C 0.5798(5) 0.1956(5) 0.6692(5)
C6_2 C 0.5806(5) 0.1972(5) 0.5586(5)
H3_2 H 0.6434 0.2226 0.5304
C7_2 C 0.4870(5) 0.1590(5) 0.3713(4)
C8_2 C 0.2790(5) 0.1202(5) 0.7843(5)
H4_2 H 0.3025 0.1940 0.8024
C9_2 C 0.3578(4) 0.0439(5) 0.8589(4)
C10_2 C 0.1559(6) 0.1082(7) 0.7979(6)
H5_2 H 0.1109 0.1599 0.7536
H6_2 H 0.1481 0.1196 0.8721
H7_2 H 0.1302 0.0374 0.7766
C11_2 C 0.6922(5) 0.2043(5) 0.8441(5)
H8_2 H 0.6610 0.1333 0.8549
C12_2 C 0.6322(4) 0.2851(5) 0.9049(4)
C13_2 C 0.8189(6) 0.2021(6) 0.8841(6)
H9_2 H 0.8545 0.1505 0.8434
H10_2 H 0.8319 0.1827 0.9591
H11_2 H 0.8506 0.2716 0.8753
C22_2 C 0.6725(5) 0.0420(5) 0.2087(5)
O1_2 O 0.5638(4) 0.2143(4) 0.3377(3)
O2_2 O 0.4162(4) 0.1023(4) 0.3136(3)
O3_2 O 0.2883(4) 0.1019(4) 0.6746(3)
O5 O 0.3905(4) 0.0789(4) 0.9533(3)
O6_2 O 0.6789(4) 0.2250(4) 0.7326(3)
O15_2 O 0.7496(4) 0.1089(4) 0.2315(4)
O16_2 O 0.5762(4) 0.0689(4) 0.1555(3)
O17_2 O 0.8239(4) 0.3233(4) 0.1396(4)
H23_2 H 0.8244 0.3731 0.0927
H24_2 H 0.8848 0.2863 0.1440
O18_2 O 0.7640(5) 0.3321(6) 0.3497(4)
H25_2 H 0.7718 0.3891 0.3136
H26_2 H 0.8049 0.3369 0.4120
C17_2 C 0.7900(5) 0.9093(5) 0.0569(5)
H13_2 H 0.7123 0.8951 0.0460
C18_2 C 0.8520(5) 0.9121(5) 0.1623(5)
C19_2 C 0.9667(5) 0.9339(5) 0.1792(5)
C21_2 C 0.6868(5) 0.9269(5) 0.2488(6)
H15_2 H 0.6367 0.8797 0.2006
C23_2 C 0.6583(7) 0.9192(6) 0.3616(6)
H16_2 H 0.6753 0.8484 0.3893
H17_2 H 0.5788 0.9336 0.3602
H18_2 H 0.7024 0.9705 0.4071
O14_2 O 0.8024(4) 0.8943(3) 0.2517(4)
C15_2 C 0.9625(5) 0.9513(5) 0.9877(5)
C16_2 C 0.8467(5) 0.9280(5) 0.9702(5)
C24_2 C 0.6820(5) 0.8999(5) 0.8371(6)
H19_2 H 0.6342 0.9468 0.8739
C25_2 C 0.6619(5) 0.7839(5) 0.8643(4)
C26_2 C 0.6532(7) 0.9143(7) 0.7149(6)
H20_2 H 0.6701 0.9864 0.6961
H21_2 H 0.5739 0.9002 0.6924
H22_2 H 0.6977 0.8654 0.6795
O11_2 O 0.7979(4) 0.9297(4) 0.8641(4)
H12 H 0.9997 0.4651 0.0705
H12_2 H 0.0003 0.9651 0.9295
loop_
_geom_bond_atom_site_label_1
_geom_bond_atom_site_label_2
_geom_bond_site_symmetry_1
_geom_bond_site_symmetry_2
C16 C15 1_555 1_555
C24 H19 1_555 1_555
C25 C24 1_555 1_555
C26 C24 1_555 1_555
H20 C26 1_555 1_555
H21 C26 1_555 1_555
H22 C26 1_555 1_555
O11 C16 1_555 1_555
O12 C25 1_555 1_555
O13 C25 1_555 1_555
Sm6 O12 1_555 1_555
Sm9 O13 1_555 1_555
C24 O11 1_555 1_555
O13 Sm6 1_555 1_555
C1 C2 1_555 1_555
C2 H1 1_555 1_555
C3 C2 1_555 1_555
C4 C3 1_555 1_555
H2 C4 1_555 1_555
C5 C4 1_555 1_555
C6 C1 1_555 1_555
H3 C6 1_555 1_555
C7 C1 1_555 1_555
C8 H4 1_555 1_555
C9 C8 1_555 1_555
C10 C8 1_555 1_555
H5 C10 1_555 1_555
H6 C10 1_555 1_555
H7 C10 1_555 1_555
C11 H8 1_555 1_555
C12 C11 1_555 1_555
C13 C11 1_555 1_555
H9 C13 1_555 1_555
H10 C13 1_555 1_555
H11 C13 1_555 1_555
H13 C17 1_555 1_555
C18 C17 1_555 1_555
C21 H15 1_555 1_555
C22 C21 1_555 1_555
C23 C21 1_555 1_555
H16 C23 1_555 1_555
H17 C23 1_555 1_555
H18 C23 1_555 1_555
O1 C7 1_555 1_555
O2 C7 1_555 1_555
O3 C3 1_555 1_555
O4 C9 1_555 1_555
O20 C9 1_555 1_555
O6 C5 1_555 1_555
O8 C12 1_555 1_555
O14 C18 1_555 1_555
O15 C22 1_555 1_555
O16 C22 1_555 1_555
O17 H23 1_555 1_555
H24 O17 1_555 1_555
O18 H25 1_555 1_555
H26 O18 1_555 1_555
Sm1 O2 1_555 1_555
Sm2 O1 1_555 1_555
O19 Sm2 1_555 1_555
O21 Sm2 1_555 1_555
O22 Sm1 1_555 1_555
O23 Sm1 1_555 1_555
O24 Sm1 1_555 1_555
O25 Sm1 1_555 1_555
O26 Sm1 1_555 1_555
Sm9 O4 1_555 1_555
C5 C6 1_555 1_555
C8 O3 1_555 1_555
C11 O6 1_555 1_555
C18 C19 1_555 1_555
C21 O14 1_555 1_555
O15 Sm2 1_555 1_555
O16 Sm1 1_555 1_555
O16 Sm2 1_555 1_555
O17 Sm2 1_555 1_555
O18 Sm2 1_555 1_555
Sm2 O26 1_555 1_555
C20 C14 1_555 1_555
O23 C20 1_555 1_555
O24 C20 1_555 1_555
Sm6 O9 1_555 1_555
C20_2 C14_2 1_555 1_555
O10 C20_2 1_555 1_555
Sm9 O7 1_555 1_555
C1_2 C2_2 1_555 1_555
C2_2 H1_2 1_555 1_555
C3_2 C2_2 1_555 1_555
C4_2 C3_2 1_555 1_555
H2_2 C4_2 1_555 1_555
C5_2 C4_2 1_555 1_555
C6_2 C1_2 1_555 1_555
H3_2 C6_2 1_555 1_555
C7_2 C1_2 1_555 1_555
C8_2 H4_2 1_555 1_555
C9_2 C8_2 1_555 1_555
C10_2 C8_2 1_555 1_555
H5_2 C10_2 1_555 1_555
H6_2 C10_2 1_555 1_555
H7_2 C10_2 1_555 1_555
C11_2 H8_2 1_555 1_555
C12_2 C11_2 1_555 1_555
C13_2 C11_2 1_555 1_555
H9_2 C13_2 1_555 1_555
H10_2 C13_2 1_555 1_555
H11_2 C13_2 1_555 1_555
O1_2 C7_2 1_555 1_555
O2_2 C7_2 1_555 1_555
O3_2 C3_2 1_555 1_555
O5 C9_2 1_555 1_555
O6_2 C5_2 1_555 1_555
O22 C12_2 1_555 1_555
O15_2 C22_2 1_555 1_555
O16_2 C22_2 1_555 1_555
O17_2 H23_2 1_555 1_555
H24_2 O17_2 1_555 1_555
O18_2 H25_2 1_555 1_555
H26_2 O18_2 1_555 1_555
Sm6 O2_2 1_555 1_555
Sm9 O1_2 1_555 1_555
C5_2 C6_2 1_555 1_555
C8_2 O3_2 1_555 1_555
C11_2 O6_2 1_555 1_555
O15_2 Sm9 1_555 1_555
O16_2 Sm6 1_555 1_555
O16_2 Sm9 1_555 1_555
O17_2 Sm9 1_555 1_555
O18_2 Sm9 1_555 1_555
H13_2 C17_2 1_555 1_555
C18_2 C17_2 1_555 1_555
C21_2 H15_2 1_555 1_555
C23_2 C21_2 1_555 1_555
H16_2 C23_2 1_555 1_555
H17_2 C23_2 1_555 1_555
H18_2 C23_2 1_555 1_555
O14_2 C18_2 1_555 1_555
C18_2 C19_2 1_555 1_555
C21_2 O14_2 1_555 1_555
C16_2 C15_2 1_555 1_555
C24_2 H19_2 1_555 1_555
C25_2 C24_2 1_555 1_555
C26_2 C24_2 1_555 1_555
H20_2 C26_2 1_555 1_555
H21_2 C26_2 1_555 1_555
H22_2 C26_2 1_555 1_555
O11_2 C16_2 1_555 1_555
O25 C25_2 1_555 1_555
O26 C25_2 1_555 1_555
C24_2 O11_2 1_555 1_555

#END
