
###############################################################################
#
# This file contains modified crystal structure data generated from the
# MOF subset of the Cambridge Structural Database (CSD) v543 
# hosted by the Cambridge Crystallographic Data Centre (CCDC).
#
# This work is licensed under the Creative Commons
# Attribution-NonCommercial-ShareAlike 4.0 International License.
# To view a copy of this license, visit
# http://creativecommons.org/licenses/by-nc-sa/4.0/
# or send a letter to
# Creative Commons, PO Box 1866, Mountain View, CA 94042, USA.
#
# CIF created using the CSD Python API on 29 September 2022
# The structure has been converted into the P1 space group
# The structure has a 3D framework
# The original CSD entry FAVGUH is in the monoclinic crystal system
# The original CSD entry FAVGUH is in a Sohncke space group
# The framework has been calculated to contain at least 10.0% void space
# The void calculation uses a probe of radius 1.32A, grid spacing 0.4
#
###############################################################################

data_FAVGUH
_chemical_formula_moiety         '(C52 H52 Eu4 O32)n'
_symmetry_cell_setting           triclinic
_symmetry_space_group_name_H-M   'P 1'
_symmetry_Int_Tables_number      1
_space_group_name_Hall           'P 1'
loop_
_symmetry_equiv_pos_site_id
_symmetry_equiv_pos_as_xyz
1 x,y,z
_cell_length_a                   11.888(2)
_cell_length_b                   12.475(3)
_cell_length_c                   12.542(3)
_cell_angle_alpha                90
_cell_angle_beta                 98.94(3)
_cell_angle_gamma                90
_cell_volume                     1837.42
loop_
_atom_site_label
_atom_site_type_symbol
_atom_site_fract_x
_atom_site_fract_y
_atom_site_fract_z
C14 C 0.0221(5) 0.5465(5) 0.0910(4)
H14 H 0.0075 0.5659 0.2494
C20 C 0.1459(5) 0.5204(4) 0.1084(4)
O9 O 0.1974(3) 0.4969(4) 0.2003(3)
O10 O 0.1985(3) 0.5221(3) 0.0277(3)
Eu4 Eu 0.372636(19) 0.445727(18) 0.131506(17)
O7 O 0.6253(3) 0.2384(4) 0.0015(3)
Eu7 Eu 0.64118(2) 0.229324(18) 0.187082(18)
C1 C 0.4847(5) 0.3397(5) 0.4898(4)
C2 C 0.3887(5) 0.3743(5) 0.5289(4)
H1 H 0.3260 0.4002 0.4824
C3 C 0.3877(5) 0.3695(5) 0.6407(4)
C4 C 0.4817(5) 0.3338(4) 0.7111(4)
H2 H 0.4798 0.3302 0.7849
C5 C 0.5792(5) 0.3035(5) 0.6695(4)
C6 C 0.5801(5) 0.3041(5) 0.5588(4)
H3 H 0.6441 0.2808 0.5312
C7 C 0.4874(5) 0.3414(5) 0.3703(4)
C8 C 0.2794(5) 0.3802(5) 0.7852(4)
H4 H 0.3032 0.3065 0.8043
C9 C 0.3565(4) 0.4579(5) 0.8591(4)
C10 C 0.1558(5) 0.3925(6) 0.7969(5)
H5 H 0.1110 0.3416 0.7511
H6 H 0.1309 0.4638 0.7764
H7 H 0.1468 0.3799 0.8706
C11 C 0.6929(5) 0.2953(5) 0.8443(4)
H8 H 0.6615 0.3664 0.8552
C12 C 0.6324(4) 0.2128(4) 0.9070(4)
C13 C 0.8187(5) 0.2981(5) 0.8829(5)
H9 H 0.8531 0.3516 0.8433
H10 H 0.8510 0.2293 0.8716
H11 H 0.8325 0.3153 0.9584
C17 C 0.7904(5) 0.5912(5) 0.0572(5)
H13 H 0.7128 0.6060 0.0460
C18 C 0.8517(5) 0.5876(4) 0.1630(4)
C19 C 0.9668(5) 0.5667(4) 0.1797(4)
C21 C 0.6865(5) 0.5728(5) 0.2478(5)
H15 H 0.6358 0.6199 0.1996
C22 C 0.6725(5) 0.4586(5) 0.2091(4)
C23 C 0.6595(7) 0.5814(6) 0.3638(5)
H16 H 0.6739 0.6532 0.3899
H17 H 0.7069 0.5324 0.4097
H18 H 0.5809 0.5638 0.3641
O1 O 0.5636(4) 0.2852(4) 0.3375(3)
O2 O 0.4170(4) 0.3975(3) 0.3133(3)
O3 O 0.2881(3) 0.3979(3) 0.6748(3)
O4 O 0.3791(4) 0.5455(4) 0.8263(4)
O5 O 0.3905(4) 0.4211(4) 0.9539(3)
O6 O 0.6788(4) 0.2746(4) 0.7324(3)
O8 O 0.5929(4) 0.1281(4) 0.8599(4)
O14 O 0.8020(3) 0.6061(3) 0.2515(3)
O15 O 0.7500(3) 0.3912(3) 0.2322(4)
O16 O 0.5759(3) 0.4315(3) 0.1560(3)
O17 O 0.8246(4) 0.1772(4) 0.1403(3)
H23 H 0.8251 0.1277 0.0937
H24 H 0.8854 0.2142 0.1447
O18 O 0.7637(5) 0.1677(5) 0.3498(3)
H25 H 0.7715 0.1110 0.3138
H26 H 0.8044 0.1629 0.4117
O19 O 0.6209(4) 0.0455(4) 0.1737(4)
O22 O 0.4071(4) 0.6281(4) 0.1401(4)
O25 O 0.2571(3) 0.2817(3) 0.1227(3)
O26 O 0.4388(3) 0.2452(4) 0.1290(3)
Eu9 Eu 0.35882(2) 0.729324(18) 0.812918(18)
C15 C 0.9630(5) 0.5485(4) 0.9874(5)
C16 C 0.8463(5) 0.5725(4) 0.9702(5)
C24 C 0.6818(5) 0.5994(5) 0.8373(5)
H19 H 0.6339 0.5522 0.8738
C25 C 0.6613(5) 0.7161(5) 0.8642(4)
C26 C 0.6527(6) 0.5862(6) 0.7146(5)
H20 H 0.6619 0.5125 0.6958
H21 H 0.7026 0.6301 0.6800
H22 H 0.5752 0.6077 0.6912
O11 O 0.7974(4) 0.5704(3) 0.8645(3)
O12 O 0.7429(3) 0.7817(3) 0.8773(3)
O13 O 0.5612(3) 0.7452(4) 0.8710(3)
Eu6 Eu 0.627364(19) 0.945727(18) 0.868494(17)
C15_2 C 0.0370(5) 0.0485(4) 0.0126(5)
C16_2 C 0.1537(5) 0.0725(4) 0.0298(5)
C24_2 C 0.3182(5) 0.0994(5) 0.1627(5)
H19_2 H 0.3661 0.0522 0.1262
C25_2 C 0.3387(5) 0.2161(5) 0.1358(4)
C26_2 C 0.3473(6) 0.0862(6) 0.2854(5)
H20_2 H 0.3381 0.0125 0.3042
H21_2 H 0.2974 0.1301 0.3200
H22_2 H 0.4248 0.1077 0.3088
O11_2 O 0.2026(4) 0.0704(3) 0.1355(3)
C17_2 C 0.2096(5) 0.0912(5) 0.9428(5)
H13_2 H 0.2872 0.1060 0.9540
C18_2 C 0.1483(5) 0.0876(4) 0.8370(4)
C19_2 C 0.0332(5) 0.0667(4) 0.8203(4)
C21_2 C 0.3135(5) 0.0728(5) 0.7522(5)
H15_2 H 0.3642 0.1199 0.8004
C23_2 C 0.3405(7) 0.0814(6) 0.6362(5)
H16_2 H 0.3261 0.1532 0.6101
H17_2 H 0.2931 0.0324 0.5903
H18_2 H 0.4191 0.0638 0.6359
O14_2 O 0.1980(3) 0.1061(3) 0.7485(3)
O24 O 0.8015(3) 0.0221(3) 0.9723(3)
O20 O 0.6095(4) 0.9211(4) 0.0461(3)
C1_2 C 0.5153(5) 0.8397(5) 0.5102(4)
C2_2 C 0.6113(5) 0.8743(5) 0.4711(4)
H1_2 H 0.6740 0.9002 0.5176
C3_2 C 0.6123(5) 0.8695(5) 0.3593(4)
C4_2 C 0.5183(5) 0.8338(4) 0.2889(4)
H2_2 H 0.5202 0.8302 0.2151
C5_2 C 0.4208(5) 0.8035(5) 0.3305(4)
C6_2 C 0.4199(5) 0.8041(5) 0.4412(4)
H3_2 H 0.3559 0.7808 0.4688
C7_2 C 0.5126(5) 0.8414(5) 0.6297(4)
C8_2 C 0.7206(5) 0.8802(5) 0.2148(4)
H4_2 H 0.6968 0.8065 0.1957
C9_2 C 0.6435(4) 0.9579(5) 0.1409(4)
C10_2 C 0.8442(5) 0.8925(6) 0.2031(5)
H5_2 H 0.8890 0.8416 0.2489
H6_2 H 0.8691 0.9638 0.2236
H7_2 H 0.8532 0.8799 0.1294
C11_2 C 0.3071(5) 0.7953(5) 0.1557(4)
H8_2 H 0.3385 0.8664 0.1448
C12_2 C 0.3676(4) 0.7128(4) 0.0930(4)
C13_2 C 0.1813(5) 0.7981(5) 0.1171(5)
H9_2 H 0.1469 0.8516 0.1567
H10_2 H 0.1490 0.7293 0.1284
H11_2 H 0.1675 0.8153 0.0416
C22_2 C 0.3275(5) 0.9586(5) 0.7909(4)
O1_2 O 0.4364(4) 0.7852(4) 0.6625(3)
O2_2 O 0.5830(4) 0.8975(3) 0.6867(3)
O3_2 O 0.7119(3) 0.8979(3) 0.3252(3)
O6_2 O 0.3212(4) 0.7746(4) 0.2676(3)
O15_2 O 0.2500(3) 0.8912(3) 0.7678(4)
O16_2 O 0.4241(3) 0.9315(3) 0.8440(3)
O17_2 O 0.1754(4) 0.6772(4) 0.8597(3)
H23_2 H 0.1749 0.6277 0.9063
H24_2 H 0.1146 0.7142 0.8553
O18_2 O 0.2363(5) 0.6677(5) 0.6502(3)
H25_2 H 0.2285 0.6110 0.6862
H26_2 H 0.1956 0.6629 0.5883
O21 O 0.3747(3) 0.7384(4) 0.9985(3)
O23 O 0.8026(3) 0.9969(4) 0.7997(3)
C14_2 C 0.9779(5) 0.0465(5) 0.9090(4)
H14_2 H 0.9925 0.0659 0.7506
C20_2 C 0.8541(5) 0.0204(4) 0.8916(4)
H12 H 0.0003 0.5339 0.9292
H12_2 H 0.9997 0.0339 0.0708
loop_
_geom_bond_atom_site_label_1
_geom_bond_atom_site_label_2
_geom_bond_site_symmetry_1
_geom_bond_site_symmetry_2
C20 C14 1_555 1_555
O9 C20 1_555 1_555
O10 C20 1_555 1_555
Eu4 O9 1_555 1_555
O10 Eu4 1_555 1_555
Eu7 O7 1_555 1_555
C1 C2 1_555 1_555
C2 H1 1_555 1_555
C3 C2 1_555 1_555
C4 C3 1_555 1_555
H2 C4 1_555 1_555
C5 C4 1_555 1_555
C6 C1 1_555 1_555
H3 C6 1_555 1_555
C7 C1 1_555 1_555
C8 H4 1_555 1_555
C9 C8 1_555 1_555
C10 C8 1_555 1_555
H5 C10 1_555 1_555
H6 C10 1_555 1_555
H7 C10 1_555 1_555
C11 H8 1_555 1_555
C12 C11 1_555 1_555
C13 C11 1_555 1_555
H9 C13 1_555 1_555
H10 C13 1_555 1_555
H11 C13 1_555 1_555
H13 C17 1_555 1_555
C18 C17 1_555 1_555
C21 H15 1_555 1_555
C22 C21 1_555 1_555
C23 C21 1_555 1_555
H16 C23 1_555 1_555
H17 C23 1_555 1_555
H18 C23 1_555 1_555
O1 C7 1_555 1_555
O2 C7 1_555 1_555
O3 C3 1_555 1_555
O4 C9 1_555 1_555
O5 C9 1_555 1_555
O6 C5 1_555 1_555
O8 C12 1_555 1_555
O14 C18 1_555 1_555
O15 C22 1_555 1_555
O16 C22 1_555 1_555
O17 H23 1_555 1_555
H24 O17 1_555 1_555
O18 H25 1_555 1_555
H26 O18 1_555 1_555
Eu4 O2 1_555 1_555
Eu7 O1 1_555 1_555
O19 Eu7 1_555 1_555
O22 Eu4 1_555 1_555
O25 Eu4 1_555 1_555
O26 Eu4 1_555 1_555
Eu9 O4 1_555 1_555
C5 C6 1_555 1_555
C8 O3 1_555 1_555
C11 O6 1_555 1_555
C18 C19 1_555 1_555
C21 O14 1_555 1_555
O15 Eu7 1_555 1_555
O16 Eu4 1_555 1_555
O16 Eu7 1_555 1_555
O17 Eu7 1_555 1_555
O18 Eu7 1_555 1_555
Eu7 O26 1_555 1_555
C16 C15 1_555 1_555
C24 H19 1_555 1_555
C25 C24 1_555 1_555
C26 C24 1_555 1_555
H20 C26 1_555 1_555
H21 C26 1_555 1_555
H22 C26 1_555 1_555
O11 C16 1_555 1_555
O12 C25 1_555 1_555
O13 C25 1_555 1_555
Eu6 O12 1_555 1_555
Eu9 O13 1_555 1_555
C24 O11 1_555 1_555
O13 Eu6 1_555 1_555
C16_2 C15_2 1_555 1_555
C24_2 H19_2 1_555 1_555
C25_2 C24_2 1_555 1_555
C26_2 C24_2 1_555 1_555
H20_2 C26_2 1_555 1_555
H21_2 C26_2 1_555 1_555
H22_2 C26_2 1_555 1_555
O11_2 C16_2 1_555 1_555
O25 C25_2 1_555 1_555
O26 C25_2 1_555 1_555
C24_2 O11_2 1_555 1_555
H13_2 C17_2 1_555 1_555
C18_2 C17_2 1_555 1_555
C21_2 H15_2 1_555 1_555
C23_2 C21_2 1_555 1_555
H16_2 C23_2 1_555 1_555
H17_2 C23_2 1_555 1_555
H18_2 C23_2 1_555 1_555
O14_2 C18_2 1_555 1_555
C18_2 C19_2 1_555 1_555
C21_2 O14_2 1_555 1_555
C1_2 C2_2 1_555 1_555
C2_2 H1_2 1_555 1_555
C3_2 C2_2 1_555 1_555
C4_2 C3_2 1_555 1_555
H2_2 C4_2 1_555 1_555
C5_2 C4_2 1_555 1_555
C6_2 C1_2 1_555 1_555
H3_2 C6_2 1_555 1_555
C7_2 C1_2 1_555 1_555
C8_2 H4_2 1_555 1_555
C9_2 C8_2 1_555 1_555
C10_2 C8_2 1_555 1_555
H5_2 C10_2 1_555 1_555
H6_2 C10_2 1_555 1_555
H7_2 C10_2 1_555 1_555
C11_2 H8_2 1_555 1_555
C12_2 C11_2 1_555 1_555
C13_2 C11_2 1_555 1_555
H9_2 C13_2 1_555 1_555
H10_2 C13_2 1_555 1_555
H11_2 C13_2 1_555 1_555
O1_2 C7_2 1_555 1_555
O2_2 C7_2 1_555 1_555
O3_2 C3_2 1_555 1_555
O20 C9_2 1_555 1_555
O6_2 C5_2 1_555 1_555
O22 C12_2 1_555 1_555
O15_2 C22_2 1_555 1_555
O16_2 C22_2 1_555 1_555
O17_2 H23_2 1_555 1_555
H24_2 O17_2 1_555 1_555
O18_2 H25_2 1_555 1_555
H26_2 O18_2 1_555 1_555
Eu6 O2_2 1_555 1_555
Eu9 O1_2 1_555 1_555
O21 Eu9 1_555 1_555
O23 Eu6 1_555 1_555
C5_2 C6_2 1_555 1_555
C8_2 O3_2 1_555 1_555
C11_2 O6_2 1_555 1_555
O15_2 Eu9 1_555 1_555
O16_2 Eu6 1_555 1_555
O16_2 Eu9 1_555 1_555
O17_2 Eu9 1_555 1_555
O18_2 Eu9 1_555 1_555
C20_2 C14_2 1_555 1_555
O24 C20_2 1_555 1_555

#END
