
###############################################################################
#
# This file contains modified crystal structure data generated from the
# MOF subset of the Cambridge Structural Database (CSD) v543 
# hosted by the Cambridge Crystallographic Data Centre (CCDC).
#
# This work is licensed under the Creative Commons
# Attribution-NonCommercial-ShareAlike 4.0 International License.
# To view a copy of this license, visit
# http://creativecommons.org/licenses/by-nc-sa/4.0/
# or send a letter to
# Creative Commons, PO Box 1866, Mountain View, CA 94042, USA.
#
# CIF created using the CSD Python API on 29 September 2022
# The structure has been converted into the P1 space group
# The structure has a 3D framework
# The original CSD entry FAVHAO is in the monoclinic crystal system
# The original CSD entry FAVHAO is in a Sohncke space group
# The framework has been calculated to contain at least 10.0% void space
# The void calculation uses a probe of radius 1.32A, grid spacing 0.4
#
###############################################################################

data_FAVHAO
_chemical_formula_moiety         '(C52 H52 Eu4 O32)n'
_symmetry_cell_setting           triclinic
_symmetry_space_group_name_H-M   'P 1'
_symmetry_Int_Tables_number      1
_space_group_name_Hall           'P 1'
loop_
_symmetry_equiv_pos_site_id
_symmetry_equiv_pos_as_xyz
1 x,y,z
_cell_length_a                   11.931(2)
_cell_length_b                   12.485(3)
_cell_length_c                   12.549(3)
_cell_angle_alpha                90
_cell_angle_beta                 98.63(3)
_cell_angle_gamma                90
_cell_volume                     1848.12
loop_
_atom_site_label
_atom_site_type_symbol
_atom_site_fract_x
_atom_site_fract_y
_atom_site_fract_z
Eu6 Eu 0.37220(2) 0.05415(2) 0.13224(2)
C15 C 0.0365(6) 0.4508(5) 0.0121(6)
C16 C 0.1516(6) 0.4272(6) 0.0287(6)
C24 C 0.3169(6) 0.4002(6) 0.1622(7)
H19 H 0.3642 0.4468 0.1245
C25 C 0.3369(6) 0.2841(6) 0.1354(5)
C26 C 0.3459(7) 0.4165(8) 0.2829(7)
H20 H 0.3226 0.4868 0.3014
H21 H 0.4262 0.4091 0.3042
H22 H 0.3072 0.3638 0.3196
O11 O 0.2012(5) 0.4288(4) 0.1343(5)
O12 O 0.2573(4) 0.2181(4) 0.1230(5)
O13 O 0.4379(4) 0.2548(4) 0.1298(4)
O20 O 0.6105(4) 0.5800(4) 0.0453(4)
Eu9 Eu 0.63977(3) 0.27079(2) 0.18662(3)
C1 C 0.5158(6) 0.6608(6) 0.5101(6)
C2 C 0.6126(6) 0.6250(6) 0.4690(6)
H1 H 0.6751 0.5987 0.5147
C3 C 0.6127(6) 0.6299(6) 0.3589(6)
C4 C 0.5187(6) 0.6664(6) 0.2898(6)
H2 H 0.5207 0.6714 0.2162
C5 C 0.4224(6) 0.6954(6) 0.3312(6)
C6 C 0.4209(6) 0.6966(6) 0.4413(6)
H3 H 0.3574 0.7210 0.4688
C7 C 0.5140(6) 0.6587(6) 0.6283(5)
C8 C 0.7209(6) 0.6195(6) 0.2140(6)
H4 H 0.6977 0.6935 0.1967
C9 C 0.6434(5) 0.5441(6) 0.1388(5)
C10 C 0.8444(7) 0.6072(8) 0.2006(7)
H5 H 0.8893 0.6584 0.2455
H6 H 0.8527 0.6193 0.1267
H7 H 0.8696 0.5361 0.2213
C11 C 0.3097(6) 0.7053(6) 0.1565(6)
H8 H 0.3417 0.6345 0.1458
C12 C 0.3691(5) 0.7870(6) 0.0956(5)
C13 C 0.1815(7) 0.7011(7) 0.1184(7)
H9 H 0.1486 0.6454 0.1564
H10 H 0.1675 0.6865 0.0424
H11 H 0.1482 0.7686 0.1324
C17 C 0.2093(6) 0.4092(6) 0.9424(7)
H13 H 0.2869 0.3958 0.9536
C18 C 0.1480(6) 0.4116(6) 0.8378(6)
C19 C 0.0335(6) 0.4344(6) 0.8205(6)
C21 C 0.3128(6) 0.4277(6) 0.7518(6)
H15 H 0.3624 0.3802 0.8000
C22 C 0.3287(6) 0.5423(7) 0.7909(6)
C23 C 0.3419(7) 0.4195(8) 0.6374(7)
H16 H 0.3225 0.3494 0.6090
H17 H 0.4217 0.4316 0.6390
H18 H 0.2999 0.4724 0.5924
O1 O 0.4377(5) 0.7136(4) 0.6628(4)
O2 O 0.5856(4) 0.6024(5) 0.6864(4)
O3 O 0.7119(4) 0.5999(4) 0.3236(4)
O4 O 0.6187(5) 0.4546(5) 0.1725(5)
O6 O 0.3233(4) 0.7266(4) 0.2688(4)
O8 O 0.4069(6) 0.8711(5) 0.1402(5)
O14 O 0.1980(4) 0.3951(4) 0.7476(4)
O15 O 0.2507(4) 0.6089(4) 0.7680(5)
O16 O 0.4247(4) 0.5694(4) 0.8445(4)
O17 O 0.1777(4) 0.8229(5) 0.8604(5)
H23 H 0.1773 0.8727 0.9073
H24 H 0.1169 0.7859 0.8560
O18 O 0.2450(6) 0.8389(7) 0.6515(5)
H25 H 0.2372 0.8959 0.6876
H26 H 0.2042 0.8437 0.5894
Eu1 Eu 0.62780(2) 0.55415(2) 0.86776(2)
Eu2 Eu 0.36023(3) 0.77079(2) 0.81338(3)
O19 O 0.3813(5) 0.9546(5) 0.8275(5)
O21 O 0.3744(4) 0.7626(6) 0.9989(4)
O22 O 0.5931(6) 0.3711(5) 0.8598(5)
O23 O 0.8035(4) 0.5024(5) 0.7988(4)
O24 O 0.8015(4) 0.4774(4) 0.9725(4)
O25 O 0.7427(4) 0.7181(4) 0.8770(5)
O26 O 0.5621(4) 0.7548(4) 0.8702(4)
C14 C 0.9785(6) 0.4529(6) 0.9092(6)
H14 H 0.9937 0.4373 0.7509
C20 C 0.8545(6) 0.4788(6) 0.8911(6)
O9 O 0.1965(4) 0.0024(5) 0.2012(4)
C14_2 C 0.0215(6) 0.9529(6) 0.0908(6)
H14_2 H 0.0063 0.9373 0.2491
C20_2 C 0.1455(6) 0.9788(6) 0.1089(6)
O10 O 0.1985(4) 0.9774(4) 0.0275(4)
O7 O 0.6256(4) 0.2626(6) 0.0011(4)
C1_2 C 0.4842(6) 0.1608(6) 0.4899(6)
C2_2 C 0.3874(6) 0.1250(6) 0.5310(6)
H1_2 H 0.3249 0.0987 0.4853
C3_2 C 0.3873(6) 0.1299(6) 0.6411(6)
C4_2 C 0.4813(6) 0.1664(6) 0.7102(6)
H2_2 H 0.4793 0.1714 0.7838
C5_2 C 0.5776(6) 0.1954(6) 0.6688(6)
C6_2 C 0.5791(6) 0.1966(6) 0.5587(6)
H3_2 H 0.6426 0.2210 0.5312
C7_2 C 0.4860(6) 0.1587(6) 0.3717(5)
C8_2 C 0.2791(6) 0.1195(6) 0.7860(6)
H4_2 H 0.3023 0.1935 0.8033
C9_2 C 0.3566(5) 0.0441(6) 0.8612(5)
C10_2 C 0.1556(7) 0.1072(8) 0.7994(7)
H5_2 H 0.1107 0.1584 0.7545
H6_2 H 0.1473 0.1193 0.8733
H7_2 H 0.1304 0.0361 0.7787
C11_2 C 0.6903(6) 0.2053(6) 0.8435(6)
H8_2 H 0.6583 0.1345 0.8542
C12_2 C 0.6309(5) 0.2870(6) 0.9044(5)
C13_2 C 0.8185(7) 0.2011(7) 0.8816(7)
H9_2 H 0.8514 0.1454 0.8436
H10_2 H 0.8325 0.1865 0.9576
H11_2 H 0.8518 0.2686 0.8676
C22_2 C 0.6713(6) 0.0423(7) 0.2091(6)
O1_2 O 0.5623(5) 0.2136(4) 0.3372(4)
O2_2 O 0.4144(4) 0.1024(5) 0.3136(4)
O3_2 O 0.2881(4) 0.0999(4) 0.6764(4)
O5 O 0.3895(4) 0.0800(4) 0.9547(4)
O6_2 O 0.6767(4) 0.2266(4) 0.7312(4)
O15_2 O 0.7493(4) 0.1089(4) 0.2320(5)
O16_2 O 0.5753(4) 0.0694(4) 0.1555(4)
O17_2 O 0.8223(4) 0.3229(5) 0.1396(5)
H23_2 H 0.8227 0.3727 0.0927
H24_2 H 0.8831 0.2859 0.1440
O18_2 O 0.7550(6) 0.3389(7) 0.3485(5)
H25_2 H 0.7628 0.3959 0.3124
H26_2 H 0.7958 0.3437 0.4106
C17_2 C 0.7907(6) 0.9092(6) 0.0576(7)
H13_2 H 0.7131 0.8958 0.0464
C18_2 C 0.8520(6) 0.9116(6) 0.1622(6)
C19_2 C 0.9665(6) 0.9344(6) 0.1795(6)
C21_2 C 0.6872(6) 0.9277(6) 0.2482(6)
H15_2 H 0.6376 0.8802 0.2000
C23_2 C 0.6581(7) 0.9195(8) 0.3626(7)
H16_2 H 0.6775 0.8494 0.3910
H17_2 H 0.5783 0.9316 0.3610
H18_2 H 0.7001 0.9724 0.4076
O14_2 O 0.8020(4) 0.8951(4) 0.2524(4)
C15_2 C 0.9635(6) 0.9508(5) 0.9879(6)
C16_2 C 0.8484(6) 0.9272(6) 0.9713(6)
C24_2 C 0.6831(6) 0.9002(6) 0.8378(7)
H19_2 H 0.6358 0.9468 0.8755
C25_2 C 0.6631(6) 0.7841(6) 0.8646(5)
C26_2 C 0.6541(7) 0.9165(8) 0.7171(7)
H20_2 H 0.6774 0.9868 0.6986
H21_2 H 0.5738 0.9091 0.6958
H22_2 H 0.6928 0.8638 0.6804
O11_2 O 0.7988(5) 0.9288(4) 0.8657(5)
H12 H 0.9990 0.4651 0.0704
H12_2 H 0.0010 0.9651 0.9296
loop_
_geom_bond_atom_site_label_1
_geom_bond_atom_site_label_2
_geom_bond_site_symmetry_1
_geom_bond_site_symmetry_2
C16 C15 1_555 1_555
C24 H19 1_555 1_555
C25 C24 1_555 1_555
C26 C24 1_555 1_555
H20 C26 1_555 1_555
H21 C26 1_555 1_555
H22 C26 1_555 1_555
O11 C16 1_555 1_555
O12 C25 1_555 1_555
O13 C25 1_555 1_555
Eu6 O12 1_555 1_555
Eu9 O13 1_555 1_555
C24 O11 1_555 1_555
O13 Eu6 1_555 1_555
C1 C2 1_555 1_555
C2 H1 1_555 1_555
C3 C2 1_555 1_555
C4 C3 1_555 1_555
H2 C4 1_555 1_555
C5 C4 1_555 1_555
C6 C1 1_555 1_555
H3 C6 1_555 1_555
C7 C1 1_555 1_555
C8 H4 1_555 1_555
C9 C8 1_555 1_555
C10 C8 1_555 1_555
H5 C10 1_555 1_555
H6 C10 1_555 1_555
H7 C10 1_555 1_555
C11 H8 1_555 1_555
C12 C11 1_555 1_555
C13 C11 1_555 1_555
H9 C13 1_555 1_555
H10 C13 1_555 1_555
H11 C13 1_555 1_555
H13 C17 1_555 1_555
C18 C17 1_555 1_555
C21 H15 1_555 1_555
C22 C21 1_555 1_555
C23 C21 1_555 1_555
H16 C23 1_555 1_555
H17 C23 1_555 1_555
H18 C23 1_555 1_555
O1 C7 1_555 1_555
O2 C7 1_555 1_555
O3 C3 1_555 1_555
O4 C9 1_555 1_555
O20 C9 1_555 1_555
O6 C5 1_555 1_555
O8 C12 1_555 1_555
O14 C18 1_555 1_555
O15 C22 1_555 1_555
O16 C22 1_555 1_555
O17 H23 1_555 1_555
H24 O17 1_555 1_555
O18 H25 1_555 1_555
H26 O18 1_555 1_555
Eu1 O2 1_555 1_555
Eu2 O1 1_555 1_555
O19 Eu2 1_555 1_555
O21 Eu2 1_555 1_555
O22 Eu1 1_555 1_555
O23 Eu1 1_555 1_555
O24 Eu1 1_555 1_555
O25 Eu1 1_555 1_555
O26 Eu1 1_555 1_555
Eu9 O4 1_555 1_555
C5 C6 1_555 1_555
C8 O3 1_555 1_555
C11 O6 1_555 1_555
C18 C19 1_555 1_555
C21 O14 1_555 1_555
O15 Eu2 1_555 1_555
O16 Eu1 1_555 1_555
O16 Eu2 1_555 1_555
O17 Eu2 1_555 1_555
O18 Eu2 1_555 1_555
Eu2 O26 1_555 1_555
C20 C14 1_555 1_555
O23 C20 1_555 1_555
O24 C20 1_555 1_555
Eu6 O9 1_555 1_555
C20_2 C14_2 1_555 1_555
O10 C20_2 1_555 1_555
Eu9 O7 1_555 1_555
C1_2 C2_2 1_555 1_555
C2_2 H1_2 1_555 1_555
C3_2 C2_2 1_555 1_555
C4_2 C3_2 1_555 1_555
H2_2 C4_2 1_555 1_555
C5_2 C4_2 1_555 1_555
C6_2 C1_2 1_555 1_555
H3_2 C6_2 1_555 1_555
C7_2 C1_2 1_555 1_555
C8_2 H4_2 1_555 1_555
C9_2 C8_2 1_555 1_555
C10_2 C8_2 1_555 1_555
H5_2 C10_2 1_555 1_555
H6_2 C10_2 1_555 1_555
H7_2 C10_2 1_555 1_555
C11_2 H8_2 1_555 1_555
C12_2 C11_2 1_555 1_555
C13_2 C11_2 1_555 1_555
H9_2 C13_2 1_555 1_555
H10_2 C13_2 1_555 1_555
H11_2 C13_2 1_555 1_555
O1_2 C7_2 1_555 1_555
O2_2 C7_2 1_555 1_555
O3_2 C3_2 1_555 1_555
O5 C9_2 1_555 1_555
O6_2 C5_2 1_555 1_555
O22 C12_2 1_555 1_555
O15_2 C22_2 1_555 1_555
O16_2 C22_2 1_555 1_555
O17_2 H23_2 1_555 1_555
H24_2 O17_2 1_555 1_555
O18_2 H25_2 1_555 1_555
H26_2 O18_2 1_555 1_555
Eu6 O2_2 1_555 1_555
Eu9 O1_2 1_555 1_555
C5_2 C6_2 1_555 1_555
C8_2 O3_2 1_555 1_555
C11_2 O6_2 1_555 1_555
O15_2 Eu9 1_555 1_555
O16_2 Eu6 1_555 1_555
O16_2 Eu9 1_555 1_555
O17_2 Eu9 1_555 1_555
O18_2 Eu9 1_555 1_555
H13_2 C17_2 1_555 1_555
C18_2 C17_2 1_555 1_555
C21_2 H15_2 1_555 1_555
C23_2 C21_2 1_555 1_555
H16_2 C23_2 1_555 1_555
H17_2 C23_2 1_555 1_555
H18_2 C23_2 1_555 1_555
O14_2 C18_2 1_555 1_555
C18_2 C19_2 1_555 1_555
C21_2 O14_2 1_555 1_555
C16_2 C15_2 1_555 1_555
C24_2 H19_2 1_555 1_555
C25_2 C24_2 1_555 1_555
C26_2 C24_2 1_555 1_555
H20_2 C26_2 1_555 1_555
H21_2 C26_2 1_555 1_555
H22_2 C26_2 1_555 1_555
O11_2 C16_2 1_555 1_555
O25 C25_2 1_555 1_555
O26 C25_2 1_555 1_555
C24_2 O11_2 1_555 1_555

#END
