
###############################################################################
#
# This file contains modified crystal structure data generated from the
# MOF subset of the Cambridge Structural Database (CSD) v543 
# hosted by the Cambridge Crystallographic Data Centre (CCDC).
#
# This work is licensed under the Creative Commons
# Attribution-NonCommercial-ShareAlike 4.0 International License.
# To view a copy of this license, visit
# http://creativecommons.org/licenses/by-nc-sa/4.0/
# or send a letter to
# Creative Commons, PO Box 1866, Mountain View, CA 94042, USA.
#
# CIF created using the CSD Python API on 29 September 2022
# The structure has been converted into the P1 space group
# The structure has a 3D framework
# The original CSD entry FAVHES is in the monoclinic crystal system
# The original CSD entry FAVHES is in a Sohncke space group
# The framework has been calculated to contain at least 10.0% void space
# The void calculation uses a probe of radius 1.32A, grid spacing 0.4
#
###############################################################################

data_FAVHES
_chemical_formula_moiety         '(C52 H52 O32 Tb4)n'
_symmetry_cell_setting           triclinic
_symmetry_space_group_name_H-M   'P 1'
_symmetry_Int_Tables_number      1
_space_group_name_Hall           'P 1'
loop_
_symmetry_equiv_pos_site_id
_symmetry_equiv_pos_as_xyz
1 x,y,z
_cell_length_a                   11.855(2)
_cell_length_b                   12.414(3)
_cell_length_c                   12.473(3)
_cell_angle_alpha                90
_cell_angle_beta                 99.01(3)
_cell_angle_gamma                90
_cell_volume                     1812.98
loop_
_atom_site_label
_atom_site_type_symbol
_atom_site_fract_x
_atom_site_fract_y
_atom_site_fract_z
C14 C 0.0229(4) 0.5454(4) 0.0915(5)
H14 H 0.0099 0.5634 0.2505
C20 C 0.1487(4) 0.5192(4) 0.1085(4)
O9 O 0.2003(3) 0.4963(4) 0.2006(3)
O10 O 0.2001(3) 0.5209(3) 0.0265(3)
Tb4 Tb 0.373622(16) 0.445404(17) 0.130270(16)
O7 O 0.6264(3) 0.2376(4) 0.0034(3)
Tb7 Tb 0.641688(17) 0.229654(17) 0.186927(16)
C1 C 0.4851(5) 0.3395(5) 0.4880(4)
C2 C 0.3892(4) 0.3754(5) 0.5275(4)
H1 H 0.3269 0.4025 0.4808
C3 C 0.3881(4) 0.3699(5) 0.6392(4)
C4 C 0.4820(4) 0.3337(4) 0.7096(4)
H2 H 0.4798 0.3301 0.7838
C5 C 0.5797(4) 0.3029(4) 0.6692(4)
C6 C 0.5811(4) 0.3027(5) 0.5587(4)
H3 H 0.6451 0.2783 0.5314
C7 C 0.4888(4) 0.3416(5) 0.3690(4)
C8 C 0.2786(4) 0.3816(5) 0.7831(4)
H4 H 0.3017 0.3072 0.8013
C9 C 0.3562(4) 0.4579(5) 0.8588(4)
C10 C 0.1545(5) 0.3943(6) 0.7943(5)
H5 H 0.1091 0.3461 0.7451
H6 H 0.1310 0.4672 0.7775
H7 H 0.1445 0.3778 0.8674
C11 C 0.6916(4) 0.2947(5) 0.8444(4)
H8 H 0.6595 0.3661 0.8543
C12 C 0.6317(4) 0.2124(4) 0.9079(4)
C13 C 0.8197(5) 0.2986(5) 0.8848(5)
H9 H 0.8544 0.3511 0.8438
H10 H 0.8524 0.2291 0.8757
H11 H 0.8329 0.3179 0.9602
C17 C 0.7915(4) 0.5912(4) 0.0582(5)
H13 H 0.7137 0.6062 0.0470
C18 C 0.8525(4) 0.5878(4) 0.1635(5)
C19 C 0.9689(4) 0.5652(4) 0.1805(4)
C21 C 0.6875(4) 0.5729(4) 0.2497(5)
H15 H 0.6367 0.6205 0.2014
C22 C 0.6725(4) 0.4572(5) 0.2102(4)
C23 C 0.6612(6) 0.5815(6) 0.3648(5)
H16 H 0.6805 0.6523 0.3926
H17 H 0.7052 0.5290 0.4099
H18 H 0.5813 0.5686 0.3646
O1 O 0.5646(3) 0.2846(3) 0.3363(3)
O2 O 0.4173(3) 0.3987(3) 0.3107(3)
O3 O 0.2878(3) 0.4002(3) 0.6729(3)
O4 O 0.3798(4) 0.5471(4) 0.8266(4)
O5 O 0.3898(3) 0.4212(3) 0.9539(3)
O6 O 0.6789(3) 0.2728(3) 0.7327(3)
O8 O 0.5918(4) 0.1271(3) 0.8610(3)
O14 O 0.8038(3) 0.6057(3) 0.2530(3)
O15 O 0.7501(3) 0.3900(3) 0.2330(3)
O16 O 0.5764(3) 0.4313(3) 0.1551(3)
O17 O 0.8237(3) 0.1777(4) 0.1416(3)
H23 H 0.8242 0.1280 0.0948
H24 H 0.8846 0.2148 0.1460
O18 O 0.7636(4) 0.1684(5) 0.3497(3)
H25 H 0.7715 0.1115 0.3136
H26 H 0.8046 0.1637 0.4119
O19 O 0.6202(4) 0.0471(4) 0.1734(4)
O22 O 0.4082(4) 0.6271(3) 0.1390(3)
O25 O 0.2585(3) 0.2827(3) 0.1229(3)
O26 O 0.4406(3) 0.2458(3) 0.1282(3)
Tb9 Tb 0.358312(17) 0.729654(17) 0.813073(16)
C15 C 0.9627(4) 0.5480(4) 0.9868(5)
H12 H 0.9996 0.5339 0.9278
C16 C 0.8472(4) 0.5720(4) 0.9710(4)
C24 C 0.6803(4) 0.6001(5) 0.8362(5)
H19 H 0.6323 0.5525 0.8726
C25 C 0.6609(5) 0.7156(5) 0.8648(4)
C26 C 0.6508(5) 0.5872(6) 0.7138(5)
H20 H 0.6590 0.5130 0.6947
H21 H 0.7014 0.6308 0.6790
H22 H 0.5734 0.6098 0.6904
O11 O 0.7967(3) 0.5704(3) 0.8639(3)
O12 O 0.7415(3) 0.7827(3) 0.8771(3)
O13 O 0.5594(3) 0.7458(3) 0.8718(3)
Tb6 Tb 0.626378(16) 0.945404(17) 0.869730(16)
C15_2 C 0.0373(4) 0.0480(4) 0.0132(5)
H12_2 H 0.0004 0.0339 0.0722
C16_2 C 0.1528(4) 0.0720(4) 0.0290(4)
C24_2 C 0.3197(4) 0.1001(5) 0.1638(5)
H19_2 H 0.3677 0.0525 0.1274
C25_2 C 0.3391(5) 0.2156(5) 0.1352(4)
C26_2 C 0.3492(5) 0.0872(6) 0.2862(5)
H20_2 H 0.3410 0.0130 0.3053
H21_2 H 0.2986 0.1308 0.3210
H22_2 H 0.4266 0.1098 0.3096
O11_2 O 0.2033(3) 0.0704(3) 0.1361(3)
C17_2 C 0.2085(4) 0.0912(4) 0.9418(5)
H13_2 H 0.2863 0.1062 0.9530
C18_2 C 0.1475(4) 0.0878(4) 0.8365(5)
C19_2 C 0.0311(4) 0.0652(4) 0.8195(4)
C21_2 C 0.3125(4) 0.0729(4) 0.7503(5)
H15_2 H 0.3633 0.1205 0.7986
C23_2 C 0.3388(6) 0.0815(6) 0.6352(5)
H16_2 H 0.3195 0.1523 0.6074
H17_2 H 0.2948 0.0290 0.5901
H18_2 H 0.4187 0.0686 0.6354
O14_2 O 0.1962(3) 0.1057(3) 0.7470(3)
O24 O 0.7999(3) 0.0209(3) 0.9735(3)
O20 O 0.6102(3) 0.9212(3) 0.0461(3)
C1_2 C 0.5149(5) 0.8395(5) 0.5120(4)
C2_2 C 0.6108(4) 0.8754(5) 0.4725(4)
H1_2 H 0.6731 0.9025 0.5192
C3_2 C 0.6119(4) 0.8699(5) 0.3608(4)
C4_2 C 0.5180(4) 0.8337(4) 0.2904(4)
H2_2 H 0.5202 0.8301 0.2162
C5_2 C 0.4203(4) 0.8029(4) 0.3308(4)
C6_2 C 0.4189(4) 0.8027(5) 0.4413(4)
H3_2 H 0.3549 0.7783 0.4686
C7_2 C 0.5112(4) 0.8416(5) 0.6310(4)
C8_2 C 0.7214(4) 0.8816(5) 0.2169(4)
H4_2 H 0.6983 0.8072 0.1987
C9_2 C 0.6438(4) 0.9579(5) 0.1412(4)
C10_2 C 0.8455(5) 0.8943(6) 0.2057(5)
H5_2 H 0.8909 0.8461 0.2549
H6_2 H 0.8690 0.9672 0.2225
H7_2 H 0.8555 0.8778 0.1326
C11_2 C 0.3084(4) 0.7947(5) 0.1556(4)
H8_2 H 0.3405 0.8661 0.1457
C12_2 C 0.3683(4) 0.7124(4) 0.0921(4)
C13_2 C 0.1803(5) 0.7986(5) 0.1152(5)
H9_2 H 0.1456 0.8511 0.1562
H10_2 H 0.1476 0.7291 0.1243
H11_2 H 0.1671 0.8179 0.0398
C22_2 C 0.3275(4) 0.9572(5) 0.7898(4)
O1_2 O 0.4354(3) 0.7846(3) 0.6637(3)
O2_2 O 0.5827(3) 0.8987(3) 0.6893(3)
O3_2 O 0.7122(3) 0.9002(3) 0.3271(3)
O6_2 O 0.3211(3) 0.7728(3) 0.2673(3)
O15_2 O 0.2499(3) 0.8900(3) 0.7670(3)
O16_2 O 0.4236(3) 0.9313(3) 0.8449(3)
O17_2 O 0.1763(3) 0.6777(4) 0.8584(3)
H23_2 H 0.1758 0.6280 0.9052
H24_2 H 0.1154 0.7148 0.8540
O18_2 O 0.2364(4) 0.6684(5) 0.6503(3)
H25_2 H 0.2285 0.6115 0.6864
H26_2 H 0.1954 0.6637 0.5881
O21 O 0.3736(3) 0.7376(4) 0.9966(3)
O23 O 0.7997(3) 0.9963(4) 0.7994(3)
C14_2 C 0.9771(4) 0.0454(4) 0.9085(5)
H14_2 H 0.9901 0.0634 0.7495
C20_2 C 0.8513(4) 0.0192(4) 0.8915(4)
loop_
_geom_bond_atom_site_label_1
_geom_bond_atom_site_label_2
_geom_bond_site_symmetry_1
_geom_bond_site_symmetry_2
C20 C14 1_555 1_555
O9 C20 1_555 1_555
O10 C20 1_555 1_555
Tb4 O9 1_555 1_555
O10 Tb4 1_555 1_555
Tb7 O7 1_555 1_555
C1 C2 1_555 1_555
C2 H1 1_555 1_555
C3 C2 1_555 1_555
C4 C3 1_555 1_555
H2 C4 1_555 1_555
C5 C4 1_555 1_555
C6 C1 1_555 1_555
H3 C6 1_555 1_555
C7 C1 1_555 1_555
C8 H4 1_555 1_555
C9 C8 1_555 1_555
C10 C8 1_555 1_555
H5 C10 1_555 1_555
H6 C10 1_555 1_555
H7 C10 1_555 1_555
C11 H8 1_555 1_555
C12 C11 1_555 1_555
C13 C11 1_555 1_555
H9 C13 1_555 1_555
H10 C13 1_555 1_555
H11 C13 1_555 1_555
H13 C17 1_555 1_555
C18 C17 1_555 1_555
C21 H15 1_555 1_555
C22 C21 1_555 1_555
C23 C21 1_555 1_555
H16 C23 1_555 1_555
H17 C23 1_555 1_555
H18 C23 1_555 1_555
O1 C7 1_555 1_555
O2 C7 1_555 1_555
O3 C3 1_555 1_555
O4 C9 1_555 1_555
O5 C9 1_555 1_555
O6 C5 1_555 1_555
O8 C12 1_555 1_555
O14 C18 1_555 1_555
O15 C22 1_555 1_555
O16 C22 1_555 1_555
O17 H23 1_555 1_555
H24 O17 1_555 1_555
O18 H25 1_555 1_555
H26 O18 1_555 1_555
Tb4 O2 1_555 1_555
Tb7 O1 1_555 1_555
O19 Tb7 1_555 1_555
O22 Tb4 1_555 1_555
O25 Tb4 1_555 1_555
O26 Tb4 1_555 1_555
Tb9 O4 1_555 1_555
C5 C6 1_555 1_555
C8 O3 1_555 1_555
C11 O6 1_555 1_555
C18 C19 1_555 1_555
C21 O14 1_555 1_555
O15 Tb7 1_555 1_555
O16 Tb4 1_555 1_555
O16 Tb7 1_555 1_555
O17 Tb7 1_555 1_555
O18 Tb7 1_555 1_555
Tb7 O26 1_555 1_555
C15 H12 1_555 1_555
C16 C15 1_555 1_555
C24 H19 1_555 1_555
C25 C24 1_555 1_555
C26 C24 1_555 1_555
H20 C26 1_555 1_555
H21 C26 1_555 1_555
H22 C26 1_555 1_555
O11 C16 1_555 1_555
O12 C25 1_555 1_555
O13 C25 1_555 1_555
Tb6 O12 1_555 1_555
Tb9 O13 1_555 1_555
C24 O11 1_555 1_555
O13 Tb6 1_555 1_555
C15_2 H12_2 1_555 1_555
C16_2 C15_2 1_555 1_555
C24_2 H19_2 1_555 1_555
C25_2 C24_2 1_555 1_555
C26_2 C24_2 1_555 1_555
H20_2 C26_2 1_555 1_555
H21_2 C26_2 1_555 1_555
H22_2 C26_2 1_555 1_555
O11_2 C16_2 1_555 1_555
O25 C25_2 1_555 1_555
O26 C25_2 1_555 1_555
C24_2 O11_2 1_555 1_555
H13_2 C17_2 1_555 1_555
C18_2 C17_2 1_555 1_555
C21_2 H15_2 1_555 1_555
C23_2 C21_2 1_555 1_555
H16_2 C23_2 1_555 1_555
H17_2 C23_2 1_555 1_555
H18_2 C23_2 1_555 1_555
O14_2 C18_2 1_555 1_555
C18_2 C19_2 1_555 1_555
C21_2 O14_2 1_555 1_555
C1_2 C2_2 1_555 1_555
C2_2 H1_2 1_555 1_555
C3_2 C2_2 1_555 1_555
C4_2 C3_2 1_555 1_555
H2_2 C4_2 1_555 1_555
C5_2 C4_2 1_555 1_555
C6_2 C1_2 1_555 1_555
H3_2 C6_2 1_555 1_555
C7_2 C1_2 1_555 1_555
C8_2 H4_2 1_555 1_555
C9_2 C8_2 1_555 1_555
C10_2 C8_2 1_555 1_555
H5_2 C10_2 1_555 1_555
H6_2 C10_2 1_555 1_555
H7_2 C10_2 1_555 1_555
C11_2 H8_2 1_555 1_555
C12_2 C11_2 1_555 1_555
C13_2 C11_2 1_555 1_555
H9_2 C13_2 1_555 1_555
H10_2 C13_2 1_555 1_555
H11_2 C13_2 1_555 1_555
O1_2 C7_2 1_555 1_555
O2_2 C7_2 1_555 1_555
O3_2 C3_2 1_555 1_555
O20 C9_2 1_555 1_555
O6_2 C5_2 1_555 1_555
O22 C12_2 1_555 1_555
O15_2 C22_2 1_555 1_555
O16_2 C22_2 1_555 1_555
O17_2 H23_2 1_555 1_555
H24_2 O17_2 1_555 1_555
O18_2 H25_2 1_555 1_555
H26_2 O18_2 1_555 1_555
Tb6 O2_2 1_555 1_555
Tb9 O1_2 1_555 1_555
O21 Tb9 1_555 1_555
O23 Tb6 1_555 1_555
C5_2 C6_2 1_555 1_555
C8_2 O3_2 1_555 1_555
C11_2 O6_2 1_555 1_555
O15_2 Tb9 1_555 1_555
O16_2 Tb6 1_555 1_555
O16_2 Tb9 1_555 1_555
O17_2 Tb9 1_555 1_555
O18_2 Tb9 1_555 1_555
C20_2 C14_2 1_555 1_555
O24 C20_2 1_555 1_555

#END
