
###############################################################################
#
# This file contains modified crystal structure data generated from the
# MOF subset of the Cambridge Structural Database (CSD) v543 
# hosted by the Cambridge Crystallographic Data Centre (CCDC).
#
# This work is licensed under the Creative Commons
# Attribution-NonCommercial-ShareAlike 4.0 International License.
# To view a copy of this license, visit
# http://creativecommons.org/licenses/by-nc-sa/4.0/
# or send a letter to
# Creative Commons, PO Box 1866, Mountain View, CA 94042, USA.
#
# CIF created using the CSD Python API on 29 September 2022
# The structure has been converted into the P1 space group
# The structure has a 3D framework
# The original CSD entry FAVHIW is in the monoclinic crystal system
# The original CSD entry FAVHIW is in a Sohncke space group
# The framework has been calculated to contain at least 10.0% void space
# The void calculation uses a probe of radius 1.32A, grid spacing 0.4
#
###############################################################################

data_FAVHIW
_chemical_formula_moiety         '(C52 H52 O32 Tb4)n'
_symmetry_cell_setting           triclinic
_symmetry_space_group_name_H-M   'P 1'
_symmetry_Int_Tables_number      1
_space_group_name_Hall           'P 1'
loop_
_symmetry_equiv_pos_site_id
_symmetry_equiv_pos_as_xyz
1 x,y,z
_cell_length_a                   11.878(2)
_cell_length_b                   12.419(3)
_cell_length_c                   12.489(3)
_cell_angle_alpha                90
_cell_angle_beta                 98.63(3)
_cell_angle_gamma                90
_cell_volume                     1821.43
loop_
_atom_site_label
_atom_site_type_symbol
_atom_site_fract_x
_atom_site_fract_y
_atom_site_fract_z
Tb6 Tb 0.371856(14) 0.054389(13) 0.132002(13)
C15 C 0.0354(4) 0.4501(3) 0.0116(4)
C16 C 0.1507(4) 0.4281(3) 0.0281(4)
C24 C 0.3166(4) 0.4004(4) 0.1610(4)
H19 H 0.3639 0.4473 0.1230
C25 C 0.3364(4) 0.2827(4) 0.1338(3)
C26 C 0.3458(5) 0.4161(5) 0.2814(5)
H20 H 0.3264 0.4881 0.2998
H21 H 0.4260 0.4048 0.3031
H22 H 0.3038 0.3656 0.3181
O11 O 0.2003(3) 0.4286(3) 0.1334(3)
O12 O 0.2571(3) 0.2174(3) 0.1214(3)
O13 O 0.4381(3) 0.2550(3) 0.1280(2)
O20 O 0.6099(3) 0.5780(3) 0.0447(2)
Tb9 Tb 0.638070(15) 0.270526(14) 0.185007(14)
C1 C 0.5179(4) 0.6605(4) 0.5117(3)
C2 C 0.6136(4) 0.6252(4) 0.4699(3)
H1 H 0.6766 0.5989 0.5156
C3 C 0.6132(4) 0.6300(4) 0.3591(3)
C4 C 0.5194(4) 0.6658(3) 0.2894(3)
H2 H 0.5209 0.6693 0.2152
C5 C 0.4224(4) 0.6964(4) 0.3323(3)
C6 C 0.4224(4) 0.6979(4) 0.4426(3)
H3 H 0.3595 0.7236 0.4708
C7 C 0.5151(4) 0.6591(4) 0.6309(3)
C8 C 0.7213(4) 0.6189(4) 0.2131(3)
H4 H 0.6978 0.6932 0.1955
C9 C 0.6435(3) 0.5422(4) 0.1374(3)
C10 C 0.8445(4) 0.6065(5) 0.1986(4)
H5 H 0.8893 0.6610 0.2396
H6 H 0.8513 0.6140 0.1233
H7 H 0.8714 0.5367 0.2236
C11 C 0.3099(4) 0.7052(4) 0.1572(3)
H8 H 0.3422 0.6341 0.1465
C12 C 0.3694(3) 0.7884(4) 0.0939(3)
C13 C 0.1832(4) 0.7011(4) 0.1184(4)
H9 H 0.1498 0.6445 0.1555
H10 H 0.1698 0.6874 0.0418
H11 H 0.1494 0.7687 0.1330
C17 C 0.2078(4) 0.4102(4) 0.9400(4)
H13 H 0.2855 0.3960 0.9510
C18 C 0.1477(4) 0.4138(3) 0.8357(4)
C19 C 0.0325(4) 0.4347(3) 0.8182(4)
C21 C 0.3137(4) 0.4285(4) 0.7501(4)
H15 H 0.3624 0.3796 0.7982
C22 C 0.3311(4) 0.5436(4) 0.7913(4)
C23 C 0.3444(5) 0.4214(5) 0.6354(4)
H16 H 0.3260 0.3509 0.6063
H17 H 0.4244 0.4344 0.6378
H18 H 0.3020 0.4744 0.5901
O1 O 0.4404(3) 0.7157(3) 0.6647(2)
O2 O 0.5873(3) 0.6020(3) 0.6881(2)
O3 O 0.7124(3) 0.5995(3) 0.3233(2)
O4 O 0.6186(3) 0.4531(3) 0.1718(3)
O6 O 0.3237(3) 0.7270(3) 0.2706(2)
O8 O 0.4075(3) 0.8732(3) 0.1406(3)
O14 O 0.1981(3) 0.3971(3) 0.7447(3)
O15 O 0.2533(3) 0.6115(3) 0.7684(3)
O16 O 0.4264(2) 0.5693(3) 0.8444(2)
O17 O 0.1801(3) 0.8226(3) 0.8615(3)
H23 H 0.1796 0.8723 0.9083
H24 H 0.1193 0.7856 0.8571
O18 O 0.2469(4) 0.8394(4) 0.6534(3)
H25 H 0.2391 0.8962 0.6895
H26 H 0.2062 0.8441 0.5915
Tb1 Tb 0.628144(14) 0.554389(13) 0.867998(13)
Tb2 Tb 0.361930(15) 0.770526(14) 0.814993(14)
O19 O 0.3814(3) 0.9531(3) 0.8282(3)
O21 O 0.3764(3) 0.7628(3) 0.9988(2)
O22 O 0.5925(3) 0.3732(3) 0.8594(3)
O23 O 0.8013(3) 0.5041(3) 0.7977(3)
O24 O 0.7993(2) 0.4779(3) 0.9714(2)
O25 O 0.7429(3) 0.7174(3) 0.8786(3)
O26 O 0.5619(3) 0.7550(3) 0.8720(2)
C14 C 0.9772(4) 0.4532(4) 0.9074(4)
H14 H 0.9924 0.4364 0.7482
C20 C 0.8523(3) 0.4797(3) 0.8892(4)
O9 O 0.1987(3) 0.0041(3) 0.2023(3)
C14_2 C 0.0228(4) 0.9532(4) 0.0926(4)
H14_2 H 0.0076 0.9364 0.2518
C20_2 C 0.1477(3) 0.9797(3) 0.1108(4)
O10 O 0.2007(2) 0.9779(3) 0.0286(2)
O7 O 0.6236(3) 0.2628(3) 0.0012(2)
C1_2 C 0.4821(4) 0.1605(4) 0.4883(3)
C2_2 C 0.3864(4) 0.1252(4) 0.5301(3)
H1_2 H 0.3234 0.0989 0.4844
C3_2 C 0.3868(4) 0.1300(4) 0.6409(3)
C4_2 C 0.4806(4) 0.1658(3) 0.7106(3)
H2_2 H 0.4791 0.1693 0.7848
C5_2 C 0.5776(4) 0.1964(4) 0.6677(3)
C6_2 C 0.5776(4) 0.1979(4) 0.5574(3)
H3_2 H 0.6405 0.2236 0.5292
C7_2 C 0.4849(4) 0.1591(4) 0.3691(3)
C8_2 C 0.2787(4) 0.1189(4) 0.7869(3)
H4_2 H 0.3022 0.1932 0.8045
C9_2 C 0.3565(3) 0.0422(4) 0.8626(3)
C10_2 C 0.1555(4) 0.1065(5) 0.8014(4)
H5_2 H 0.1107 0.1610 0.7604
H6_2 H 0.1487 0.1140 0.8767
H7_2 H 0.1286 0.0367 0.7764
C11_2 C 0.6901(4) 0.2052(4) 0.8428(3)
H8_2 H 0.6578 0.1341 0.8535
C12_2 C 0.6306(3) 0.2884(4) 0.9061(3)
C13_2 C 0.8168(4) 0.2011(4) 0.8816(4)
H9_2 H 0.8502 0.1445 0.8445
H10_2 H 0.8302 0.1874 0.9582
H11_2 H 0.8506 0.2687 0.8670
C22_2 C 0.6689(4) 0.0436(4) 0.2087(4)
O1_2 O 0.5596(3) 0.2157(3) 0.3353(2)
O2_2 O 0.4127(3) 0.1020(3) 0.3119(2)
O3_2 O 0.2876(3) 0.0995(3) 0.6767(2)
O5 O 0.3901(3) 0.0780(3) 0.9553(2)
O6_2 O 0.6763(3) 0.2270(3) 0.7294(2)
O15_2 O 0.7467(3) 0.1115(3) 0.2316(3)
O16_2 O 0.5736(2) 0.0693(3) 0.1556(2)
O17_2 O 0.8199(3) 0.3226(3) 0.1385(3)
H23_2 H 0.8204 0.3723 0.0917
H24_2 H 0.8807 0.2856 0.1429
O18_2 O 0.7531(4) 0.3394(4) 0.3466(3)
H25_2 H 0.7609 0.3962 0.3105
H26_2 H 0.7938 0.3441 0.4085
C17_2 C 0.7922(4) 0.9102(4) 0.0600(4)
H13_2 H 0.7145 0.8960 0.0490
C18_2 C 0.8523(4) 0.9138(3) 0.1643(4)
C19_2 C 0.9675(4) 0.9347(3) 0.1818(4)
C21_2 C 0.6863(4) 0.9285(4) 0.2499(4)
H15_2 H 0.6376 0.8796 0.2018
C23_2 C 0.6556(5) 0.9214(5) 0.3646(4)
H16_2 H 0.6740 0.8509 0.3937
H17_2 H 0.5756 0.9344 0.3622
H18_2 H 0.6980 0.9744 0.4099
O14_2 O 0.8019(3) 0.8971(3) 0.2553(3)
C15_2 C 0.9646(4) 0.9501(3) 0.9884(4)
C16_2 C 0.8493(4) 0.9281(3) 0.9719(4)
C24_2 C 0.6834(4) 0.9004(4) 0.8390(4)
H19_2 H 0.6361 0.9473 0.8770
C25_2 C 0.6636(4) 0.7827(4) 0.8662(3)
C26_2 C 0.6542(5) 0.9161(5) 0.7186(5)
H20_2 H 0.6736 0.9881 0.7002
H21_2 H 0.5740 0.9048 0.6969
H22_2 H 0.6962 0.8656 0.6819
O11_2 O 0.7997(3) 0.9286(3) 0.8666(3)
H12 H 0.9973 0.4628 0.0703
H12_2 H 0.0027 0.9628 0.9297
loop_
_geom_bond_atom_site_label_1
_geom_bond_atom_site_label_2
_geom_bond_site_symmetry_1
_geom_bond_site_symmetry_2
C16 C15 1_555 1_555
C24 H19 1_555 1_555
C25 C24 1_555 1_555
C26 C24 1_555 1_555
H20 C26 1_555 1_555
H21 C26 1_555 1_555
H22 C26 1_555 1_555
O11 C16 1_555 1_555
O12 C25 1_555 1_555
O13 C25 1_555 1_555
Tb6 O12 1_555 1_555
Tb9 O13 1_555 1_555
C24 O11 1_555 1_555
O13 Tb6 1_555 1_555
C1 C2 1_555 1_555
C2 H1 1_555 1_555
C3 C2 1_555 1_555
C4 C3 1_555 1_555
H2 C4 1_555 1_555
C5 C4 1_555 1_555
C6 C1 1_555 1_555
H3 C6 1_555 1_555
C7 C1 1_555 1_555
C8 H4 1_555 1_555
C9 C8 1_555 1_555
C10 C8 1_555 1_555
H5 C10 1_555 1_555
H6 C10 1_555 1_555
H7 C10 1_555 1_555
C11 H8 1_555 1_555
C12 C11 1_555 1_555
C13 C11 1_555 1_555
H9 C13 1_555 1_555
H10 C13 1_555 1_555
H11 C13 1_555 1_555
H13 C17 1_555 1_555
C18 C17 1_555 1_555
C21 H15 1_555 1_555
C22 C21 1_555 1_555
C23 C21 1_555 1_555
H16 C23 1_555 1_555
H17 C23 1_555 1_555
H18 C23 1_555 1_555
O1 C7 1_555 1_555
O2 C7 1_555 1_555
O3 C3 1_555 1_555
O4 C9 1_555 1_555
O20 C9 1_555 1_555
O6 C5 1_555 1_555
O8 C12 1_555 1_555
O14 C18 1_555 1_555
O15 C22 1_555 1_555
O16 C22 1_555 1_555
O17 H23 1_555 1_555
H24 O17 1_555 1_555
O18 H25 1_555 1_555
H26 O18 1_555 1_555
Tb1 O2 1_555 1_555
Tb2 O1 1_555 1_555
O19 Tb2 1_555 1_555
O21 Tb2 1_555 1_555
O22 Tb1 1_555 1_555
O23 Tb1 1_555 1_555
O24 Tb1 1_555 1_555
O25 Tb1 1_555 1_555
O26 Tb1 1_555 1_555
Tb9 O4 1_555 1_555
C5 C6 1_555 1_555
C8 O3 1_555 1_555
C11 O6 1_555 1_555
C18 C19 1_555 1_555
C21 O14 1_555 1_555
O15 Tb2 1_555 1_555
O16 Tb1 1_555 1_555
O16 Tb2 1_555 1_555
O17 Tb2 1_555 1_555
O18 Tb2 1_555 1_555
Tb2 O26 1_555 1_555
C20 C14 1_555 1_555
O23 C20 1_555 1_555
O24 C20 1_555 1_555
Tb6 O9 1_555 1_555
C20_2 C14_2 1_555 1_555
O10 C20_2 1_555 1_555
Tb9 O7 1_555 1_555
C1_2 C2_2 1_555 1_555
C2_2 H1_2 1_555 1_555
C3_2 C2_2 1_555 1_555
C4_2 C3_2 1_555 1_555
H2_2 C4_2 1_555 1_555
C5_2 C4_2 1_555 1_555
C6_2 C1_2 1_555 1_555
H3_2 C6_2 1_555 1_555
C7_2 C1_2 1_555 1_555
C8_2 H4_2 1_555 1_555
C9_2 C8_2 1_555 1_555
C10_2 C8_2 1_555 1_555
H5_2 C10_2 1_555 1_555
H6_2 C10_2 1_555 1_555
H7_2 C10_2 1_555 1_555
C11_2 H8_2 1_555 1_555
C12_2 C11_2 1_555 1_555
C13_2 C11_2 1_555 1_555
H9_2 C13_2 1_555 1_555
H10_2 C13_2 1_555 1_555
H11_2 C13_2 1_555 1_555
O1_2 C7_2 1_555 1_555
O2_2 C7_2 1_555 1_555
O3_2 C3_2 1_555 1_555
O5 C9_2 1_555 1_555
O6_2 C5_2 1_555 1_555
O22 C12_2 1_555 1_555
O15_2 C22_2 1_555 1_555
O16_2 C22_2 1_555 1_555
O17_2 H23_2 1_555 1_555
H24_2 O17_2 1_555 1_555
O18_2 H25_2 1_555 1_555
H26_2 O18_2 1_555 1_555
Tb6 O2_2 1_555 1_555
Tb9 O1_2 1_555 1_555
C5_2 C6_2 1_555 1_555
C8_2 O3_2 1_555 1_555
C11_2 O6_2 1_555 1_555
O15_2 Tb9 1_555 1_555
O16_2 Tb6 1_555 1_555
O16_2 Tb9 1_555 1_555
O17_2 Tb9 1_555 1_555
O18_2 Tb9 1_555 1_555
H13_2 C17_2 1_555 1_555
C18_2 C17_2 1_555 1_555
C21_2 H15_2 1_555 1_555
C23_2 C21_2 1_555 1_555
H16_2 C23_2 1_555 1_555
H17_2 C23_2 1_555 1_555
H18_2 C23_2 1_555 1_555
O14_2 C18_2 1_555 1_555
C18_2 C19_2 1_555 1_555
C21_2 O14_2 1_555 1_555
C16_2 C15_2 1_555 1_555
C24_2 H19_2 1_555 1_555
C25_2 C24_2 1_555 1_555
C26_2 C24_2 1_555 1_555
H20_2 C26_2 1_555 1_555
H21_2 C26_2 1_555 1_555
H22_2 C26_2 1_555 1_555
O11_2 C16_2 1_555 1_555
O25 C25_2 1_555 1_555
O26 C25_2 1_555 1_555
C24_2 O11_2 1_555 1_555

#END
