
###############################################################################
#
# This file contains modified crystal structure data generated from the
# MOF subset of the Cambridge Structural Database (CSD) v543 
# hosted by the Cambridge Crystallographic Data Centre (CCDC).
#
# This work is licensed under the Creative Commons
# Attribution-NonCommercial-ShareAlike 4.0 International License.
# To view a copy of this license, visit
# http://creativecommons.org/licenses/by-nc-sa/4.0/
# or send a letter to
# Creative Commons, PO Box 1866, Mountain View, CA 94042, USA.
#
# CIF created using the CSD Python API on 29 September 2022
# The structure has been converted into the P1 space group
# The structure has a 3D framework
# The original CSD entry FAVKAP is in the hexagonal crystal system
# The framework has been calculated to contain at least 10.0% void space
# The void calculation uses a probe of radius 1.32A, grid spacing 0.4
# The framework is charged, counterions have been retained in the structure
# H atom positions have been added when not included in the experimental data
#
###############################################################################

data_FAVKAP
_chemical_formula_moiety         '(C30 H30 Fe6 O36 1+)n'
_symmetry_cell_setting           triclinic
_symmetry_space_group_name_H-M   'P 1'
_symmetry_Int_Tables_number      1
_space_group_name_Hall           'P 1'
loop_
_symmetry_equiv_pos_site_id
_symmetry_equiv_pos_as_xyz
1 x,y,z
_cell_length_a                   11.184(2)
_cell_length_b                   11.184(2)
_cell_length_c                   14.591(3)
_cell_angle_alpha                90
_cell_angle_beta                 90
_cell_angle_gamma                120
_cell_volume                     1580.56
loop_
_atom_site_label
_atom_site_type_symbol
_atom_site_fract_x
_atom_site_fract_y
_atom_site_fract_z
C3 C 0.062(3) 0.271(5) 0.250
Fe6 Fe 0.231(3) 0.468(4) 0.750
Fe7 Fe 0.237(3) 0.769(3) 0.750
O7 O 0.107(3) 0.477(5) 0.651(2)
O17 O 0.119(3) 0.678(5) 0.654(2)
C6 C 0.081(3) 0.563(5) 0.614(2)
C11 C 0.065(5) 0.547(5) 0.519(2)
H2 H 0.0905052 0.33576 0.310939
H3 H 0.115973 0.212568 0.25
H4 H 0.0905052 0.33576 0.189061
H6 H 0.155539 0.586029 0.0249937
H8 H 0.155539 0.586029 0.475006
O5 O 0.107(3) 0.477(5) 0.849(2)
O15 O 0.119(3) 0.678(5) 0.846(2)
C4 C 0.081(3) 0.563(5) 0.886(2)
C9 C 0.065(5) 0.547(5) 0.981(2)
Fe1 Fe 0.769(3) 0.237(3) 0.250
O1 O 0.666 0.333 0.250
O2 O 0.893(3) 0.370(4) 0.151(2)
O3 O 0.909(3) 0.173(3) 0.250
O4 O 0.881(3) 0.559(4) 0.154(2)
C1 C 0.919(3) 0.482(4) 0.114(2)
C2 C 0.935(5) 0.482(2) 0.019(2)
Fe2 Fe 0.763(3) 0.532(4) 0.250
Fe3 Fe 0.468(4) 0.231(3) 0.250
O6 O 0.893(3) 0.370(4) 0.349(2)
O8 O 0.477(5) 0.107(3) 0.151(2)
O10 O 0.630(4) 0.523(5) 0.151(2)
O11 O 0.630(4) 0.523(5) 0.349(2)
O12 O 0.477(5) 0.107(3) 0.349(2)
O13 O 0.827(3) 0.736(4) 0.250
O14 O 0.264(4) 0.091(3) 0.250
O16 O 0.881(3) 0.559(4) 0.346(2)
O18 O 0.678(5) 0.119(3) 0.154(2)
O20 O 0.678(5) 0.119(3) 0.346(2)
O21 O 0.441(4) 0.322(5) 0.154(2)
O22 O 0.441(4) 0.322(5) 0.346(2)
C5 C 0.919(3) 0.482(4) 0.386(2)
C7 C 0.563(5) 0.081(3) 0.114(2)
C10 C 0.935(5) 0.482(2) 0.481(2)
C12 C 0.547(5) 0.065(5) 0.019(2)
C14 C 0.729(5) 0.791(6) 0.250
H9 H 0.844461 0.43049 0.524994
H13 H 0.66424 0.754745 0.310939
H14 H 0.787432 0.903405 0.25
H15 H 0.66424 0.754745 0.189061
H1 H 0.844461 0.43049 0.975006
H7 H 0.586029 0.155539 0.975006
C15 C 0.209(6) 0.938(3) 0.250
H5 H 0.43049 0.844461 0.0249937
H10 H 0.245255 0.909495 0.310939
H11 H 0.0965949 0.884027 0.25
H12 H 0.245255 0.909495 0.189061
Fe9 Fe 0.532(4) 0.763(3) 0.750
O9 O 0.370(4) 0.893(3) 0.849(2)
O19 O 0.559(4) 0.881(3) 0.846(2)
C8 C 0.482(4) 0.919(3) 0.886(2)
C13 C 0.482(2) 0.935(5) 0.981(2)
O1_2 O 0.667 0.334 0.250
C1_2 C 0.563(5) 0.081(3) 0.386(2)
C2_2 C 0.547(5) 0.065(5) 0.481(2)
O9_2 O 0.523(5) 0.630(4) 0.651(2)
O19_2 O 0.322(5) 0.441(4) 0.654(2)
C7_2 C 0.518(6) 0.437(5) 0.386(2)
C8_2 C 0.437(5) 0.518(4) 0.614(2)
C12_2 C 0.518(7) 0.453(5) 0.481(2)
C13_2 C 0.453(5) 0.518(2) 0.519(2)
H1_2 H 0.586029 0.155539 0.524994
H5_2 H 0.413971 0.56951 0.475006
H7_2 H 0.56951 0.413971 0.524994
O5_2 O 0.370(6) 0.893(3) 0.651(2)
O15_2 O 0.559(6) 0.881(3) 0.654(2)
C4_2 C 0.482(6) 0.919(3) 0.614(2)
C9_2 C 0.482(7) 0.935(5) 0.519(2)
H6_2 H 0.43049 0.844461 0.475006
C3_2 C 0.271(5) 0.062(3) 0.750
H2_2 H 0.33576 0.0905052 0.810939
H3_2 H 0.212568 0.115973 0.75
H4_2 H 0.33576 0.0905052 0.689061
O1_3 O 0.333 0.666 0.750
O3_2 O 0.173(3) 0.909(3) 0.750
O11_2 O 0.523(5) 0.630(4) 0.849(2)
O13_2 O 0.736(4) 0.827(3) 0.750
O14_2 O 0.091(3) 0.264(4) 0.750
O22_2 O 0.322(5) 0.441(4) 0.846(2)
C14_2 C 0.791(6) 0.729(5) 0.750
H13_2 H 0.754745 0.66424 0.810939
H14_2 H 0.903405 0.787432 0.75
H15_2 H 0.754745 0.66424 0.689061
C15_2 C 0.938(3) 0.209(6) 0.750
H10_2 H 0.909495 0.245255 0.810939
H11_2 H 0.884027 0.0965949 0.75
H12_2 H 0.909495 0.245255 0.689061
O1_4 O 0.667 0.333 0.250
C1_3 C 0.518(4) 0.437(5) 0.114(2)
C2_3 C 0.518(2) 0.453(5) 0.019(2)
H6_3 H 0.413971 0.56951 0.0249937
C4_3 C 0.437(5) 0.518(6) 0.886(2)
C9_3 C 0.453(5) 0.518(7) 0.981(2)
H1_3 H 0.56951 0.413971 0.975006
O1_5 O 0.333 0.667 0.750
O1_6 O 0.334 0.667 0.750
loop_
_geom_bond_atom_site_label_1
_geom_bond_atom_site_label_2
_geom_bond_site_symmetry_1
_geom_bond_site_symmetry_2
Fe6 O7 1_555 1_555
Fe7 O17 1_555 1_555
O7 C6 1_555 1_555
O17 C6 1_555 1_555
C6 C11 1_555 1_555
C3 H2 1_555 1_555
C3 H3 1_555 1_555
C3 H4 1_555 1_555
C11 H8 1_555 1_555
Fe6 O5 1_555 1_555
Fe7 O15 1_555 1_555
O5 C4 1_555 1_555
O15 C4 1_555 1_555
C4 C9 1_555 1_555
Fe1 O1 1_555 1_555
O1 Fe2 1_555 1_555
O2 Fe1 1_555 1_555
O3 Fe1 1_555 1_555
O4 C1 1_555 1_555
C1 O2 1_555 1_555
C2 C1 1_555 1_555
Fe2 O4 1_555 1_555
Fe3 O1 1_555 1_555
O6 Fe1 1_555 1_555
O8 Fe3 1_555 1_555
O10 Fe2 1_555 1_555
O11 Fe2 1_555 1_555
O12 Fe3 1_555 1_555
O13 Fe2 1_555 1_555
O14 Fe3 1_555 1_555
O16 Fe2 1_555 1_555
O18 Fe1 1_555 1_555
O20 Fe1 1_555 1_555
O21 Fe3 1_555 1_555
O22 Fe3 1_555 1_555
C5 O6 1_555 1_555
C7 O8 1_555 1_555
C10 C5 1_555 1_555
C12 C7 1_555 1_555
C14 O13 1_555 1_555
O16 C5 1_555 1_555
O18 C7 1_555 1_555
C10 H9 1_555 1_555
C14 H13 1_555 1_555
C14 H14 1_555 1_555
C14 H15 1_555 1_555
C15 H10 1_555 1_555
C15 H11 1_555 1_555
C15 H12 1_555 1_555
Fe7 O9 1_555 1_555
Fe9 O19 1_555 1_555
O9 C8 1_555 1_555
O19 C8 1_555 1_555
C8 C13 1_555 1_555
Fe3 O1_2 1_555 1_555
O1_2 Fe1 1_555 1_555
O20 C1_2 1_555 1_555
C1_2 O12 1_555 1_555
C2_2 C1_2 1_555 1_555
Fe2 O1_2 1_555 1_555
Fe9 O9_2 1_555 1_555
Fe6 O19_2 1_555 1_555
O9_2 C8_2 1_555 1_555
O19_2 C8_2 1_555 1_555
C7_2 O11 1_555 1_555
C8_2 C13_2 1_555 1_555
C12_2 C7_2 1_555 1_555
C13_2 C12_2 1_555 1_555
O22 C7_2 1_555 1_555
C2_2 H1_2 1_555 1_555
C13_2 H5_2 1_555 1_555
C12_2 H7_2 1_555 1_555
Fe7 O5_2 1_555 1_555
Fe9 O15_2 1_555 1_555
O5_2 C4_2 1_555 1_555
O15_2 C4_2 1_555 1_555
C4_2 C9_2 1_555 1_555
C9_2 H6_2 1_555 1_555
C3_2 H2_2 1_555 1_555
C3_2 H3_2 1_555 1_555
C3_2 H4_2 1_555 1_555
Fe7 O1_3 1_555 1_555
O1_3 Fe9 1_555 1_555
O3_2 Fe7 1_555 1_555
Fe6 O1_3 1_555 1_555
O11_2 Fe9 1_555 1_555
O13_2 Fe9 1_555 1_555
O14_2 Fe6 1_555 1_555
O22_2 Fe6 1_555 1_555
C14_2 O13_2 1_555 1_555
C14_2 H13_2 1_555 1_555
C14_2 H14_2 1_555 1_555
C14_2 H15_2 1_555 1_555
C15_2 H10_2 1_555 1_555
C15_2 H11_2 1_555 1_555
C15_2 H12_2 1_555 1_555
Fe2 O1_4 1_555 1_555
O1_4 Fe3 1_555 1_555
O21 C1_3 1_555 1_555
C1_3 O10 1_555 1_555
C2_3 C1_3 1_555 1_555
Fe1 O1_4 1_555 1_555
O11_2 C4_3 1_555 1_555
O22_2 C4_3 1_555 1_555
C4_3 C9_3 1_555 1_555
Fe9 O1_5 1_555 1_555
O1_5 Fe6 1_555 1_555
Fe7 O1_5 1_555 1_555
Fe6 O1_6 1_555 1_555
O1_6 Fe7 1_555 1_555
Fe9 O1_6 1_555 1_555

#END
