
###############################################################################
#
# This file contains modified crystal structure data generated from the
# MOF subset of the Cambridge Structural Database (CSD) v543 
# hosted by the Cambridge Crystallographic Data Centre (CCDC).
#
# This work is licensed under the Creative Commons
# Attribution-NonCommercial-ShareAlike 4.0 International License.
# To view a copy of this license, visit
# http://creativecommons.org/licenses/by-nc-sa/4.0/
# or send a letter to
# Creative Commons, PO Box 1866, Mountain View, CA 94042, USA.
#
# CIF created using the CSD Python API on 29 September 2022
# The structure has been converted into the P1 space group
# The structure has a 3D framework
# The original CSD entry FAXLEY is in the monoclinic crystal system
# The framework has been calculated to contain at least 10.0% void space
# The void calculation uses a probe of radius 1.32A, grid spacing 0.4
# H atom positions have been added when not included in the experimental data
# Generated hydrogen atom positions removed from atoms on special positions
#
###############################################################################

data_FAXLEY
_chemical_formula_moiety         '(C88 H136 Cu14 Mo32 N48 O135)n'
_symmetry_cell_setting           triclinic
_symmetry_space_group_name_H-M   'P 1'
_symmetry_Int_Tables_number      1
_space_group_name_Hall           'P 1'
loop_
_symmetry_equiv_pos_site_id
_symmetry_equiv_pos_as_xyz
1 x,y,z
_cell_length_a                   19.5388(11)
_cell_length_b                   12.9962(11)
_cell_length_c                   23.8650(18)
_cell_angle_alpha                90
_cell_angle_beta                 110.905(2)
_cell_angle_gamma                90
_cell_volume                     5661.13
loop_
_atom_site_label
_atom_site_type_symbol
_atom_site_fract_x
_atom_site_fract_y
_atom_site_fract_z
O6 O 0.01758(13) 0.41191(19) 0.83643(12)
Mo9 Mo 0.102927(15) 0.35136(2) 0.855013(13)
Cu2 Cu 0.2500 0.2500 0.5000
O3 O 0.27911(16) 0.0712(2) 0.49897(13)
O5 O 0.18987(18) 0.2067(3) 0.54840(15)
O8 O 0.42526(16) 0.0333(2) 0.53953(14)
N8 N 0.16427(17) 0.2295(2) 0.42557(15)
C14 C 0.1304(2) 0.2982(3) 0.38211(18)
H9 H 0.1480 0.3644 0.3811
N10 N 0.06632(17) 0.1643(2) 0.36007(15)
C16 C 0.1228(2) 0.1460(3) 0.41027(19)
H11 H 0.1318 0.0842 0.4313
N11 N 0.07022(17) 0.2627(2) 0.34142(15)
C22 C 0.00674(19) 0.0972(3) 0.32918(16)
O36 O 0.31013(18) 0.2933(3) 0.45160(15)
O39 O 0.22089(16) 0.4288(2) 0.50103(13)
N13 N 0.33573(17) 0.2705(2) 0.57443(15)
Mo1 Mo 0.338702(15) 0.70756(2) 0.518075(12)
Cu1 Cu 0.91392(2) 0.39336(3) 0.81909(2)
N1 N 0.80792(16) 0.3747(2) 0.80052(14)
C1 C 0.7715(2) 0.2924(4) 0.8100(2)
H1 H 0.7952 0.2352 0.8317
O1 O 0.89914(16) 0.5431(2) 0.79722(15)
O2 O 0.57536(14) 0.7435(2) 0.67784(14)
Mo2 Mo 0.341671(16) 0.97294(2) 0.516655(13)
C2 C 0.53844(18) 0.5749(3) 0.68967(15)
O4 O 0.9393(2) 0.4201(4) 0.91943(16)
Mo3 Mo 0.248933(16) 0.85800(2) 0.391292(13)
C3 C 0.3696(2) 0.2018(3) 0.61789(18)
H2 H 0.3520 0.1356 0.6189
N3 N 0.69047(16) 0.3934(2) 0.75898(14)
Mo4 Mo 0.397073(15) 0.85136(2) 0.644987(13)
N4 N 0.43368(17) 0.3357(2) 0.63993(15)
C4 C 0.75521(19) 0.4365(3) 0.76778(18)
H3 H 0.7623 0.5004 0.7531
O7 O 0.45879(13) 0.71449(19) 0.67166(12)
C5 C 0.3772(2) 0.3540(3) 0.58973(19)
H4 H 0.3682 0.4158 0.5687
C6 C 0.56261(19) 0.3633(3) 0.70137(17)
H5 H 0.5709 0.2927 0.7048
O9 O 0.19472(15) 0.9639(2) 0.36805(13)
N5 N 0.42978(17) 0.2373(2) 0.65858(15)
O10 O 0.33518(13) 0.95204(19) 0.59764(11)
N6 N 0.69960(19) 0.2996(3) 0.78588(19)
C7 C 0.47994(18) 0.5073(3) 0.66603(16)
H6 H 0.4326 0.5321 0.6473
O11 O 0.37670(16) 0.8616(2) 0.70812(13)
C8 C 0.61919(18) 0.4329(3) 0.72667(16)
O12 O 0.25538(13) 0.85153(17) 0.48816(11)
C9 C 0.60910(18) 0.5381(3) 0.72063(16)
H7 H 0.6482 0.5832 0.7367
O13 O 0.39630(15) 0.6051(2) 0.54103(13)
C10 C 0.52404(18) 0.6876(3) 0.67960(15)
C11 C 0.49326(19) 0.4028(3) 0.67082(16)
O14 O 0.32498(14) 0.7195(2) 0.44178(11)
O15 O 0.33902(14) 0.9301(2) 0.43932(12)
O16 O 0.26739(18) 0.8208(3) 0.32986(13)
O17 O 0.17526(12) 0.76141(19) 0.39578(10)
O18 O 0.39835(13) 0.82283(19) 0.54994(11)
Mo5 Mo 0.161298(15) 0.79244(2) 0.481925(12)
Mo6 Mo 0.158329(16) 0.52706(2) 0.483345(13)
Mo7 Mo 0.251067(16) 0.64200(2) 0.608708(13)
Mo8 Mo 0.102927(15) 0.64864(2) 0.355013(13)
O24 O 0.04121(13) 0.78551(19) 0.32834(12)
O25 O 0.07474(16) 0.4667(2) 0.46047(14)
O26 O 0.30528(15) 0.5361(2) 0.63195(13)
O27 O 0.16482(13) 0.54796(19) 0.40236(11)
C18 C 0.02006(18) 0.9927(3) 0.33397(16)
H13 H 0.0674 0.9679 0.3527
O28 O 0.12330(16) 0.6384(2) 0.29188(13)
O29 O 0.24462(13) 0.64847(17) 0.51184(11)
O30 O 0.10370(15) 0.8949(2) 0.45897(13)
O31 O 0.17502(14) 0.7805(2) 0.55822(11)
O32 O 0.16098(14) 0.5699(2) 0.56068(12)
O33 O 0.23261(18) 0.6792(3) 0.67014(13)
O34 O 0.32474(12) 0.73859(19) 0.60422(10)
O35 O 0.10165(13) 0.67717(19) 0.45006(11)
Cu4 Cu 0.41392(2) 0.89336(3) 0.81909(2)
Cu5 Cu 0.58608(2) 0.89336(3) 0.68091(2)
Cu6 Cu 0.08608(2) 0.60664(3) 0.18091(2)
O37 O 0.92464(14) 0.2435(2) 0.82216(14)
O40 O 0.48242(13) 0.91191(19) 0.66357(12)
O41 O 0.01758(13) 0.58809(19) 0.33643(12)
O42 O 0.87670(16) 0.3616(2) 0.70812(13)
Cu3 Cu 0.58608(2) 0.10664(3) 0.18091(2)
N7 N 0.69208(16) 0.1253(2) 0.19948(14)
C12 C 0.7285(2) 0.2076(4) 0.1900(2)
H8 H 0.7048 0.2648 0.1683
O22 O 0.5607(2) 0.0799(4) 0.08057(16)
N9 N 0.80953(16) 0.1066(2) 0.24102(14)
O23 O 0.48242(13) 0.08809(19) 0.16357(12)
C15 C 0.74479(19) 0.0635(3) 0.23222(18)
C17 C 0.93739(19) 0.1367(3) 0.29863(17)
H12 H 0.9291 0.2073 0.2952
N12 N 0.80040(19) 0.2004(3) 0.21412(19)
C19 C 0.88081(18) 0.0671(3) 0.27333(16)
O38 O 0.57536(14) 0.2565(2) 0.17784(14)
Mo10 Mo 0.397073(15) 0.14864(2) 0.144987(13)
O43 O 0.62330(16) 0.1384(2) 0.29188(13)
O19 O 0.60086(16) 0.9569(2) 0.20278(15)
O20 O 0.92464(14) 0.7565(2) 0.32216(14)
C13 C 0.96156(18) 0.9251(3) 0.31033(15)
H10 H 0.7377 0.9996 0.2469
C20 C 0.89090(18) 0.9619(3) 0.27937(16)
H14 H 0.8518 0.9168 0.2633
C21 C 0.97596(18) 0.8124(3) 0.32040(15)
Cu7 Cu 0.91392(2) 0.60664(3) 0.31909(2)
Cu3_2 Cu 0.41392(2) 0.10664(3) 0.31909(2)
N7_2 N 0.30792(16) 0.1253(2) 0.30052(14)
C12_2 C 0.2715(2) 0.2076(4) 0.3100(2)
H8_2 H 0.2952 0.2648 0.3317
O22_2 O 0.4393(2) 0.0799(4) 0.41943(16)
N9_2 N 0.19047(16) 0.1066(2) 0.25898(14)
O23_2 O 0.51758(13) 0.08809(19) 0.33643(12)
C15_2 C 0.25521(19) 0.0635(3) 0.26778(18)
C17_2 C 0.06261(19) 0.1367(3) 0.20137(17)
H12_2 H 0.0709 0.2073 0.2048
N12_2 N 0.19960(19) 0.2004(3) 0.28588(19)
C19_2 C 0.11919(18) 0.0671(3) 0.22667(16)
O38_2 O 0.42464(14) 0.2565(2) 0.32216(14)
Mo10_2 Mo 0.602927(15) 0.14864(2) 0.355013(13)
O43_2 O 0.37670(16) 0.1384(2) 0.20812(13)
O19_2 O 0.39914(16) 0.9569(2) 0.29722(15)
O20_2 O 0.07536(14) 0.7565(2) 0.17784(14)
C13_2 C 0.03844(18) 0.9251(3) 0.18967(15)
H10_2 H 0.2623 0.9996 0.2531
C20_2 C 0.10910(18) 0.9619(3) 0.22063(16)
H14_2 H 0.1482 0.9168 0.2367
C21_2 C 0.02404(18) 0.8124(3) 0.17960(15)
Cu2_2 Cu 0.7500 0.2500 0.0000
O3_2 O 0.72089(16) 0.0712(2) 0.00103(13)
N8_2 N 0.83573(17) 0.2295(2) 0.07443(15)
C14_2 C 0.8696(2) 0.2982(3) 0.11789(18)
H9_2 H 0.8520 0.3644 0.1189
N10_2 N 0.93368(17) 0.1643(2) 0.13993(15)
C16_2 C 0.8772(2) 0.1460(3) 0.08973(19)
H11_2 H 0.8682 0.0842 0.0687
N11_2 N 0.92978(17) 0.2627(2) 0.15858(15)
C22_2 C 0.99326(19) 0.0972(3) 0.17082(16)
O36_2 O 0.68987(18) 0.2933(3) 0.04840(15)
Cu2_3 Cu 0.7500 0.2500 1.0000
O5_2 O 0.81013(18) 0.2067(3) 0.95160(15)
O8_2 O 0.57474(16) 0.0333(2) 0.96047(14)
O39_2 O 0.77911(16) 0.4288(2) 0.99897(13)
N13_2 N 0.66427(17) 0.2705(2) 0.92557(15)
Mo3_2 Mo 0.751067(16) 0.85800(2) 0.108708(13)
O9_2 O 0.80528(15) 0.9639(2) 0.13195(13)
O12_2 O 0.74462(13) 0.85153(17) 0.01184(11)
O14_2 O 0.67502(14) 0.7195(2) 0.05822(11)
O15_2 O 0.66098(14) 0.9301(2) 0.06068(12)
O16_2 O 0.73261(18) 0.8208(3) 0.17014(13)
O17_2 O 0.82474(12) 0.76141(19) 0.10422(10)
Mo5_2 Mo 0.838702(15) 0.79244(2) 0.018075(12)
Mo6_2 Mo 0.841671(16) 0.52706(2) 0.016655(13)
Mo8_2 Mo 0.897073(15) 0.64864(2) 0.144987(13)
O24_2 O 0.95879(13) 0.78551(19) 0.17166(12)
O25_2 O 0.92526(16) 0.4667(2) 0.03953(14)
O27_2 O 0.83518(13) 0.54796(19) 0.09764(11)
C18_2 C 0.97994(18) 0.9927(3) 0.16603(16)
H13_2 H 0.9326 0.9679 0.1473
O28_2 O 0.87670(16) 0.6384(2) 0.20812(13)
O30_2 O 0.89630(15) 0.8949(2) 0.04103(13)
O35_2 O 0.89835(13) 0.67717(19) 0.04994(11)
O41_2 O 0.98242(13) 0.58809(19) 0.16357(12)
Mo1_2 Mo 0.661298(15) 0.70756(2) 0.981925(12)
Cu1_2 Cu 0.08608(2) 0.39336(3) 0.68091(2)
N1_2 N 0.19208(16) 0.3747(2) 0.69948(14)
C1_2 C 0.2285(2) 0.2924(4) 0.6900(2)
H1_2 H 0.2048 0.2352 0.6683
O1_2 O 0.10086(16) 0.5431(2) 0.70278(15)
O2_2 O 0.42464(14) 0.7435(2) 0.82216(14)
Mo2_2 Mo 0.658329(16) 0.97294(2) 0.983345(13)
C2_2 C 0.46156(18) 0.5749(3) 0.81033(15)
O4_2 O 0.0607(2) 0.4201(4) 0.58057(16)
C3_2 C 0.6304(2) 0.2018(3) 0.88211(18)
H2_2 H 0.6480 0.1356 0.8811
N3_2 N 0.30953(16) 0.3934(2) 0.74102(14)
Mo4_2 Mo 0.602927(15) 0.85136(2) 0.855013(13)
N4_2 N 0.56632(17) 0.3357(2) 0.86007(15)
C4_2 C 0.24479(19) 0.4365(3) 0.73222(18)
H3_2 H 0.2377 0.5004 0.7469
O7_2 O 0.54121(13) 0.71449(19) 0.82834(12)
C5_2 C 0.6228(2) 0.3540(3) 0.91027(19)
H4_2 H 0.6318 0.4158 0.9313
C6_2 C 0.43739(19) 0.3633(3) 0.79863(17)
H5_2 H 0.4291 0.2927 0.7952
N5_2 N 0.57022(17) 0.2373(2) 0.84142(15)
O10_2 O 0.66482(13) 0.95204(19) 0.90236(11)
N6_2 N 0.30040(19) 0.2996(3) 0.71412(19)
C7_2 C 0.52006(18) 0.5073(3) 0.83397(16)
H6_2 H 0.5674 0.5321 0.8527
O11_2 O 0.62330(16) 0.8616(2) 0.79188(13)
C8_2 C 0.38081(18) 0.4329(3) 0.77333(16)
C9_2 C 0.39090(18) 0.5381(3) 0.77937(16)
H7_2 H 0.3518 0.5832 0.7633
O13_2 O 0.60370(15) 0.6051(2) 0.95897(13)
C10_2 C 0.47596(18) 0.6876(3) 0.82040(15)
C11_2 C 0.50674(19) 0.4028(3) 0.82918(16)
O18_2 O 0.60165(13) 0.82283(19) 0.95006(11)
Mo7_2 Mo 0.748933(16) 0.64200(2) 0.891292(13)
O26_2 O 0.69472(15) 0.5361(2) 0.86805(13)
O29_2 O 0.75538(13) 0.64847(17) 0.98816(11)
O31_2 O 0.82498(14) 0.7805(2) 0.94178(11)
O32_2 O 0.83902(14) 0.5699(2) 0.93932(12)
O33_2 O 0.76739(18) 0.6792(3) 0.82986(13)
O34_2 O 0.67526(12) 0.73859(19) 0.89578(10)
O37_2 O 0.07536(14) 0.2435(2) 0.67784(14)
O40_2 O 0.51758(13) 0.91191(19) 0.83643(12)
O42_2 O 0.12330(16) 0.3616(2) 0.79188(13)
O6_2 O 0.98242(13) 0.41191(19) 0.66357(12)
Mo9_2 Mo 0.897073(15) 0.35136(2) 0.644987(13)
O1_3 O 0.39914(16) 0.0431(2) 0.79722(15)
C2_3 C 0.03844(18) 0.0749(3) 0.68967(15)
H3_3 H 0.2623 0.0004 0.7531
C9_3 C 0.10910(18) 0.0381(3) 0.72063(16)
H7_3 H 0.1482 0.0832 0.7367
C10_3 C 0.02404(18) 0.1876(3) 0.67960(15)
N1_3 N 0.30792(16) 0.8747(2) 0.80052(14)
C1_3 C 0.2715(2) 0.7924(4) 0.8100(2)
H1_3 H 0.2952 0.7352 0.8317
O4_3 O 0.4393(2) 0.9201(4) 0.91943(16)
N3_3 N 0.19047(16) 0.8934(2) 0.75898(14)
C4_3 C 0.25521(19) 0.9365(3) 0.76778(18)
C6_3 C 0.06261(19) 0.8633(3) 0.70137(17)
H5_3 H 0.0709 0.7927 0.7048
N6_3 N 0.19960(19) 0.7996(3) 0.78588(19)
C8_3 C 0.11919(18) 0.9329(3) 0.72667(16)
Mo1_3 Mo 0.838702(15) 0.20756(2) 0.518075(12)
Mo2_3 Mo 0.841671(16) 0.47294(2) 0.516655(13)
Cu2_4 Cu 0.7500 0.7500 0.5000
O3_3 O 0.77911(16) 0.5712(2) 0.49897(13)
Mo3_3 Mo 0.748933(16) 0.35800(2) 0.391292(13)
O5_3 O 0.68987(18) 0.7067(3) 0.54840(15)
O7_3 O 0.95879(13) 0.21449(19) 0.67166(12)
O8_3 O 0.92526(16) 0.5333(2) 0.53953(14)
O9_3 O 0.69472(15) 0.4639(2) 0.36805(13)
O10_3 O 0.83518(13) 0.45204(19) 0.59764(11)
C7_3 C 0.97994(18) 0.0073(3) 0.66603(16)
H6_3 H 0.9326 0.0321 0.6473
O12_3 O 0.75538(13) 0.35153(17) 0.48816(11)
O13_3 O 0.89630(15) 0.1051(2) 0.54103(13)
O14_3 O 0.82498(14) 0.2195(2) 0.44178(11)
O15_3 O 0.83902(14) 0.4301(2) 0.43932(12)
O16_3 O 0.76739(18) 0.3208(3) 0.32986(13)
O17_3 O 0.67526(12) 0.26141(19) 0.39578(10)
O18_3 O 0.89835(13) 0.32283(19) 0.54994(11)
Mo5_3 Mo 0.661298(15) 0.29244(2) 0.481925(12)
N7_3 N 0.19208(16) 0.6253(2) 0.19948(14)
C12_3 C 0.2285(2) 0.7076(4) 0.1900(2)
H8_3 H 0.2048 0.7648 0.1683
O19_3 O 0.10086(16) 0.4569(2) 0.20278(15)
Mo6_3 Mo 0.658329(16) 0.02706(2) 0.483345(13)
C13_3 C 0.46156(18) 0.4251(3) 0.31033(15)
O22_3 O 0.0607(2) 0.5799(4) 0.08057(16)
N8_3 N 0.66427(17) 0.7295(2) 0.42557(15)
Mo7_3 Mo 0.751067(16) 0.14200(2) 0.608708(13)
C14_3 C 0.6304(2) 0.7982(3) 0.38211(18)
H9_3 H 0.6480 0.8644 0.3811
N9_3 N 0.30953(16) 0.6066(2) 0.24102(14)
N10_3 N 0.56632(17) 0.6643(2) 0.36007(15)
C15_3 C 0.24479(19) 0.5635(3) 0.23222(18)
H10_3 H 0.2377 0.4996 0.2469
O24_3 O 0.54121(13) 0.28551(19) 0.32834(12)
C16_3 C 0.6228(2) 0.6460(3) 0.41027(19)
H11_3 H 0.6318 0.5842 0.4313
C17_3 C 0.43739(19) 0.6367(3) 0.29863(17)
H12_3 H 0.4291 0.7073 0.2952
O26_3 O 0.80528(15) 0.0361(2) 0.63195(13)
N11_3 N 0.57022(17) 0.7627(2) 0.34142(15)
O27_3 O 0.66482(13) 0.04796(19) 0.40236(11)
N12_3 N 0.30040(19) 0.7004(3) 0.21412(19)
C18_3 C 0.52006(18) 0.4927(3) 0.33397(16)
H13_3 H 0.5674 0.4679 0.3527
C19_3 C 0.38081(18) 0.5671(3) 0.27333(16)
O29_3 O 0.74462(13) 0.14847(17) 0.51184(11)
C20_3 C 0.39090(18) 0.4619(3) 0.27937(16)
H14_3 H 0.3518 0.4168 0.2633
O30_3 O 0.60370(15) 0.3949(2) 0.45897(13)
C21_3 C 0.47596(18) 0.3124(3) 0.32040(15)
C22_3 C 0.50674(19) 0.5972(3) 0.32918(16)
O31_3 O 0.67502(14) 0.2805(2) 0.55822(11)
O32_3 O 0.66098(14) 0.0699(2) 0.56068(12)
O33_3 O 0.73261(18) 0.1792(3) 0.67014(13)
O34_3 O 0.82474(12) 0.23859(19) 0.60422(10)
O35_3 O 0.60165(13) 0.17717(19) 0.45006(11)
O36_3 O 0.81013(18) 0.7933(3) 0.45160(15)
O39_3 O 0.72089(16) 0.9288(2) 0.50103(13)
N13_3 N 0.83573(17) 0.7705(2) 0.57443(15)
C3_3 C 0.8696(2) 0.7018(3) 0.61789(18)
H2_3 H 0.8520 0.6356 0.6189
N4_3 N 0.93368(17) 0.8357(2) 0.63993(15)
C5_3 C 0.8772(2) 0.8540(3) 0.58973(19)
H4_3 H 0.8682 0.9158 0.5687
N5_3 N 0.92978(17) 0.7373(2) 0.65858(15)
C11_3 C 0.99326(19) 0.9028(3) 0.67082(16)
O25_3 O 0.57474(16) 0.9667(2) 0.46047(14)
Cu2_5 Cu 0.2500 0.7500 0.0000
O3_4 O 0.22089(16) 0.5712(2) 0.00103(13)
Mo3_4 Mo 0.251067(16) 0.35800(2) 0.108708(13)
O9_4 O 0.30528(15) 0.4639(2) 0.13195(13)
O12_4 O 0.24462(13) 0.35153(17) 0.01184(11)
O14_4 O 0.17502(14) 0.2195(2) 0.05822(11)
O15_4 O 0.16098(14) 0.4301(2) 0.06068(12)
O16_4 O 0.23261(18) 0.3208(3) 0.17014(13)
O17_4 O 0.32474(12) 0.26141(19) 0.10422(10)
Mo5_4 Mo 0.338702(15) 0.29244(2) 0.018075(12)
N7_4 N 0.80792(16) 0.6253(2) 0.30052(14)
C12_4 C 0.7715(2) 0.7076(4) 0.3100(2)
H8_4 H 0.7952 0.7648 0.3317
O19_4 O 0.89914(16) 0.4569(2) 0.29722(15)
Mo6_4 Mo 0.341671(16) 0.02706(2) 0.016655(13)
C13_4 C 0.53844(18) 0.4251(3) 0.18967(15)
O22_4 O 0.9393(2) 0.5799(4) 0.41943(16)
N8_4 N 0.33573(17) 0.7295(2) 0.07443(15)
C14_4 C 0.3696(2) 0.7982(3) 0.11789(18)
H9_4 H 0.3520 0.8644 0.1189
N9_4 N 0.69047(16) 0.6066(2) 0.25898(14)
N10_4 N 0.43368(17) 0.6643(2) 0.13993(15)
C15_4 C 0.75521(19) 0.5635(3) 0.26778(18)
H10_4 H 0.7623 0.4996 0.2531
O24_4 O 0.45879(13) 0.28551(19) 0.17166(12)
C16_4 C 0.3772(2) 0.6460(3) 0.08973(19)
H11_4 H 0.3682 0.5842 0.0687
C17_4 C 0.56261(19) 0.6367(3) 0.20137(17)
H12_4 H 0.5709 0.7073 0.2048
N11_4 N 0.42978(17) 0.7627(2) 0.15858(15)
O27_4 O 0.33518(13) 0.04796(19) 0.09764(11)
N12_4 N 0.69960(19) 0.7004(3) 0.28588(19)
C18_4 C 0.47994(18) 0.4927(3) 0.16603(16)
H13_4 H 0.4326 0.4679 0.1473
C19_4 C 0.61919(18) 0.5671(3) 0.22667(16)
C20_4 C 0.60910(18) 0.4619(3) 0.22063(16)
H14_4 H 0.6482 0.4168 0.2367
O30_4 O 0.39630(15) 0.3949(2) 0.04103(13)
C21_4 C 0.52404(18) 0.3124(3) 0.17960(15)
C22_4 C 0.49326(19) 0.5972(3) 0.17082(16)
O35_4 O 0.39835(13) 0.17717(19) 0.04994(11)
O36_4 O 0.18987(18) 0.7933(3) 0.04840(15)
Mo1_4 Mo 0.161298(15) 0.20756(2) 0.981925(12)
Mo2_4 Mo 0.158329(16) 0.47294(2) 0.983345(13)
Cu2_6 Cu 0.2500 0.7500 1.0000
O5_4 O 0.31013(18) 0.7067(3) 0.95160(15)
O7_4 O 0.04121(13) 0.21449(19) 0.82834(12)
O8_4 O 0.07474(16) 0.5333(2) 0.96047(14)
O10_4 O 0.16482(13) 0.45204(19) 0.90236(11)
C7_4 C 0.02006(18) 0.0073(3) 0.83397(16)
H6_4 H 0.0674 0.0321 0.8527
O13_4 O 0.10370(15) 0.1051(2) 0.95897(13)
O18_4 O 0.10165(13) 0.32283(19) 0.95006(11)
Mo7_4 Mo 0.248933(16) 0.14200(2) 0.891292(13)
O26_4 O 0.19472(15) 0.0361(2) 0.86805(13)
O29_4 O 0.25538(13) 0.14847(17) 0.98816(11)
O31_4 O 0.32498(14) 0.2805(2) 0.94178(11)
O32_4 O 0.33902(14) 0.0699(2) 0.93932(12)
O33_4 O 0.26739(18) 0.1792(3) 0.82986(13)
O34_4 O 0.17526(12) 0.23859(19) 0.89578(10)
O39_4 O 0.27911(16) 0.9288(2) 0.99897(13)
N13_4 N 0.16427(17) 0.7705(2) 0.92557(15)
O25_4 O 0.42526(16) 0.9667(2) 0.03953(14)
C3_4 C 0.1304(2) 0.7018(3) 0.88211(18)
H2_4 H 0.1480 0.6356 0.8811
N4_4 N 0.06632(17) 0.8357(2) 0.86007(15)
C5_4 C 0.1228(2) 0.8540(3) 0.91027(19)
H4_4 H 0.1318 0.9158 0.9313
N5_4 N 0.07022(17) 0.7373(2) 0.84142(15)
C11_4 C 0.00674(19) 0.9028(3) 0.82918(16)
O1_4 O 0.60086(16) 0.0431(2) 0.70278(15)
C2_4 C 0.96156(18) 0.0749(3) 0.81033(15)
H3_4 H 0.7377 0.0004 0.7469
C9_4 C 0.89090(18) 0.0381(3) 0.77937(16)
H7_4 H 0.8518 0.0832 0.7633
C10_4 C 0.97596(18) 0.1876(3) 0.82040(15)
N1_4 N 0.69208(16) 0.8747(2) 0.69948(14)
C1_4 C 0.7285(2) 0.7924(4) 0.6900(2)
H1_4 H 0.7048 0.7352 0.6683
O4_4 O 0.5607(2) 0.9201(4) 0.58057(16)
N3_4 N 0.80953(16) 0.8934(2) 0.74102(14)
C4_4 C 0.74479(19) 0.9365(3) 0.73222(18)
C6_4 C 0.93739(19) 0.8633(3) 0.79863(17)
H5_4 H 0.9291 0.7927 0.7952
N6_4 N 0.80040(19) 0.7996(3) 0.71412(19)
C8_4 C 0.88081(18) 0.9329(3) 0.77333(16)
loop_
_geom_bond_atom_site_label_1
_geom_bond_atom_site_label_2
_geom_bond_site_symmetry_1
_geom_bond_site_symmetry_2
Mo9 O6 1_555 1_555
Cu2 O3 1_555 1_555
O5 Cu2 1_555 1_555
N8 Cu2 1_555 1_555
C14 N8 1_555 1_555
H9 C14 1_555 1_555
N10 C16 1_555 1_555
C16 N8 1_555 1_555
H11 C16 1_555 1_555
N11 C14 1_555 1_555
C22 N10 1_555 1_555
O36 Cu2 1_555 1_555
O39 Cu2 1_555 1_555
N13 Cu2 1_555 1_555
N10 N11 1_555 1_555
Mo1 O12 1_555 1_555
Cu1 N1 1_555 1_555
N1 C1 1_555 1_555
C1 H1 1_555 1_555
O1 Cu1 1_555 1_555
O2 C10 1_555 1_555
C2 C7 1_555 1_555
O4 Cu1 1_555 1_555
N13 C3 1_555 1_555
Mo3 O9 1_555 1_555
C3 H2 1_555 1_555
N3 C4 1_555 1_555
Mo4 O7 1_555 1_555
N4 C5 1_555 1_555
C4 N1 1_555 1_555
H3 C4 1_555 1_555
O7 C10 1_555 1_555
C5 N13 1_555 1_555
H4 C5 1_555 1_555
C6 H5 1_555 1_555
N5 C3 1_555 1_555
O10 Mo2 1_555 1_555
N6 C1 1_555 1_555
C7 H6 1_555 1_555
O11 Mo4 1_555 1_555
C8 N3 1_555 1_555
O12 Mo2 1_555 1_555
C9 C2 1_555 1_555
H7 C9 1_555 1_555
O13 Mo1 1_555 1_555
C10 C2 1_555 1_555
C11 N4 1_555 1_555
O14 Mo1 1_555 1_555
O15 Mo2 1_555 1_555
O16 Mo3 1_555 1_555
O17 Mo3 1_555 1_555
O18 Mo1 1_555 1_555
Mo5 O12 1_555 1_555
Mo6 O39 1_555 1_555
Mo7 O26 1_555 1_555
Mo8 O17 1_555 1_555
O24 Mo8 1_555 1_555
O25 Mo6 1_555 1_555
O27 Mo6 1_555 1_555
C18 H13 1_555 1_555
O28 Mo8 1_555 1_555
O29 Mo1 1_555 1_555
O30 Mo5 1_555 1_555
O31 Mo5 1_555 1_555
O32 Mo6 1_555 1_555
O33 Mo7 1_555 1_555
O34 Mo1 1_555 1_555
O35 Mo5 1_555 1_555
Cu4 O11 1_555 1_555
Cu5 O2 1_555 1_555
Cu6 O28 1_555 1_555
O37 Cu1 1_555 1_555
O40 Mo4 1_555 1_555
O41 Mo8 1_555 1_555
O42 Cu1 1_555 1_555
Mo2 O18 1_555 1_555
Mo3 O12 1_555 1_555
Mo3 O14 1_555 1_555
Mo3 O15 1_555 1_555
N3 N6 1_555 1_555
Mo4 O10 1_555 1_555
Mo4 O18 1_555 1_555
Mo4 O34 1_555 1_555
N4 N5 1_555 1_555
C6 C8 1_555 1_555
C6 C11 1_555 1_555
C7 C11 1_555 1_555
C8 C9 1_555 1_555
O17 Mo5 1_555 1_555
Mo5 O29 1_555 1_555
Mo6 O29 1_555 1_555
Mo6 O35 1_555 1_555
Mo7 O29 1_555 1_555
Mo7 O31 1_555 1_555
Mo7 O32 1_555 1_555
Mo7 O34 1_555 1_555
Mo8 O27 1_555 1_555
Mo8 O35 1_555 1_555
Cu5 O40 1_555 1_555
Cu3 N7 1_555 1_555
N7 C12 1_555 1_555
C12 H8 1_555 1_555
O22 Cu3 1_555 1_555
N9 C15 1_555 1_555
O23 Cu3 1_555 1_555
C15 N7 1_555 1_555
C17 H12 1_555 1_555
N12 C12 1_555 1_555
C19 N9 1_555 1_555
O38 Cu3 1_555 1_555
Mo10 O23 1_555 1_555
O43 Cu3 1_555 1_555
N9 N12 1_555 1_555
C17 C19 1_555 1_555
O20 C21 1_555 1_555
C20 C13 1_555 1_555
H14 C20 1_555 1_555
C21 C13 1_555 1_555
Cu7 O20 1_555 1_555
Cu3_2 N7_2 1_555 1_555
N7_2 C12_2 1_555 1_555
C12_2 H8_2 1_555 1_555
O22_2 Cu3_2 1_555 1_555
N9_2 C15_2 1_555 1_555
O23_2 Cu3_2 1_555 1_555
C15_2 N7_2 1_555 1_555
C17_2 H12_2 1_555 1_555
N12_2 C12_2 1_555 1_555
C19_2 N9_2 1_555 1_555
O38_2 Cu3_2 1_555 1_555
Mo10_2 O23_2 1_555 1_555
O43_2 Cu3_2 1_555 1_555
N9_2 N12_2 1_555 1_555
C17_2 C19_2 1_555 1_555
O20_2 C21_2 1_555 1_555
C20_2 C13_2 1_555 1_555
H14_2 C20_2 1_555 1_555
C21_2 C13_2 1_555 1_555
Cu6 O20_2 1_555 1_555
Cu2_2 O3_2 1_555 1_555
N8_2 Cu2_2 1_555 1_555
C14_2 N8_2 1_555 1_555
H9_2 C14_2 1_555 1_555
N10_2 C16_2 1_555 1_555
C16_2 N8_2 1_555 1_555
H11_2 C16_2 1_555 1_555
N11_2 C14_2 1_555 1_555
C22_2 N10_2 1_555 1_555
O36_2 Cu2_2 1_555 1_555
N10_2 N11_2 1_555 1_555
O5_2 Cu2_3 1_555 1_555
O39_2 Cu2_3 1_555 1_555
N13_2 Cu2_3 1_555 1_555
Mo3_2 O9_2 1_555 1_555
O16_2 Mo3_2 1_555 1_555
O17_2 Mo3_2 1_555 1_555
Mo5_2 O12_2 1_555 1_555
Mo8_2 O17_2 1_555 1_555
O24_2 Mo8_2 1_555 1_555
O25_2 Mo6_2 1_555 1_555
O27_2 Mo6_2 1_555 1_555
C18_2 H13_2 1_555 1_555
O28_2 Mo8_2 1_555 1_555
O30_2 Mo5_2 1_555 1_555
O35_2 Mo5_2 1_555 1_555
Cu7 O28_2 1_555 1_555
O41_2 Mo8_2 1_555 1_555
Mo3_2 O12_2 1_555 1_555
Mo3_2 O14_2 1_555 1_555
Mo3_2 O15_2 1_555 1_555
O17_2 Mo5_2 1_555 1_555
Mo6_2 O35_2 1_555 1_555
Mo8_2 O27_2 1_555 1_555
Mo8_2 O35_2 1_555 1_555
Cu1_2 N1_2 1_555 1_555
N1_2 C1_2 1_555 1_555
C1_2 H1_2 1_555 1_555
O1_2 Cu1_2 1_555 1_555
O2_2 C10_2 1_555 1_555
C2_2 C7_2 1_555 1_555
O4_2 Cu1_2 1_555 1_555
N13_2 C3_2 1_555 1_555
C3_2 H2_2 1_555 1_555
N3_2 C4_2 1_555 1_555
Mo4_2 O7_2 1_555 1_555
N4_2 C5_2 1_555 1_555
C4_2 N1_2 1_555 1_555
H3_2 C4_2 1_555 1_555
O7_2 C10_2 1_555 1_555
C5_2 N13_2 1_555 1_555
H4_2 C5_2 1_555 1_555
C6_2 H5_2 1_555 1_555
N5_2 C3_2 1_555 1_555
O10_2 Mo2_2 1_555 1_555
N6_2 C1_2 1_555 1_555
C7_2 H6_2 1_555 1_555
O11_2 Mo4_2 1_555 1_555
C8_2 N3_2 1_555 1_555
C9_2 C2_2 1_555 1_555
H7_2 C9_2 1_555 1_555
O13_2 Mo1_2 1_555 1_555
C10_2 C2_2 1_555 1_555
C11_2 N4_2 1_555 1_555
O18_2 Mo1_2 1_555 1_555
Mo7_2 O26_2 1_555 1_555
O29_2 Mo1_2 1_555 1_555
O33_2 Mo7_2 1_555 1_555
O34_2 Mo1_2 1_555 1_555
Cu5 O11_2 1_555 1_555
Cu4 O2_2 1_555 1_555
O37_2 Cu1_2 1_555 1_555
O40_2 Mo4_2 1_555 1_555
O42_2 Cu1_2 1_555 1_555
Mo2_2 O18_2 1_555 1_555
N3_2 N6_2 1_555 1_555
Mo4_2 O10_2 1_555 1_555
Mo4_2 O18_2 1_555 1_555
Mo4_2 O34_2 1_555 1_555
N4_2 N5_2 1_555 1_555
C6_2 C8_2 1_555 1_555
C6_2 C11_2 1_555 1_555
C7_2 C11_2 1_555 1_555
C8_2 C9_2 1_555 1_555
Mo7_2 O29_2 1_555 1_555
Mo7_2 O31_2 1_555 1_555
Mo7_2 O32_2 1_555 1_555
Mo7_2 O34_2 1_555 1_555
Cu4 O40_2 1_555 1_555
Mo9_2 O6_2 1_555 1_555
O37_2 C10_3 1_555 1_555
C9_3 C2_3 1_555 1_555
H7_3 C9_3 1_555 1_555
C10_3 C2_3 1_555 1_555
Cu4 N1_3 1_555 1_555
N1_3 C1_3 1_555 1_555
C1_3 H1_3 1_555 1_555
O4_3 Cu4 1_555 1_555
N3_3 C4_3 1_555 1_555
C4_3 N1_3 1_555 1_555
C6_3 H5_3 1_555 1_555
N6_3 C1_3 1_555 1_555
C8_3 N3_3 1_555 1_555
N3_3 N6_3 1_555 1_555
C6_3 C8_3 1_555 1_555
Mo1_3 O12_3 1_555 1_555
Mo2_3 O3_3 1_555 1_555
Cu2_4 O3_3 1_555 1_555
Mo3_3 O9_3 1_555 1_555
O5_3 Cu2_4 1_555 1_555
Mo9_2 O7_3 1_555 1_555
O8_3 Mo2_3 1_555 1_555
O10_3 Mo2_3 1_555 1_555
C7_3 H6_3 1_555 1_555
O42 Mo9_2 1_555 1_555
O12_3 Mo2_3 1_555 1_555
O13_3 Mo1_3 1_555 1_555
O14_3 Mo1_3 1_555 1_555
O15_3 Mo2_3 1_555 1_555
O16_3 Mo3_3 1_555 1_555
O17_3 Mo3_3 1_555 1_555
O18_3 Mo1_3 1_555 1_555
Mo5_3 O12_3 1_555 1_555
Cu6 N7_3 1_555 1_555
N7_3 C12_3 1_555 1_555
C12_3 H8_3 1_555 1_555
O19_3 Cu6 1_555 1_555
O38_2 C21_3 1_555 1_555
C13_3 C18_3 1_555 1_555
O22_3 Cu6 1_555 1_555
N8_3 Cu2_4 1_555 1_555
Mo7_3 O26_3 1_555 1_555
C14_3 N8_3 1_555 1_555
H9_3 C14_3 1_555 1_555
N9_3 C15_3 1_555 1_555
Mo10_2 O17_3 1_555 1_555
N10_3 C16_3 1_555 1_555
C15_3 N7_3 1_555 1_555
H10_3 C15_3 1_555 1_555
O24_3 Mo10_2 1_555 1_555
C16_3 N8_3 1_555 1_555
H11_3 C16_3 1_555 1_555
C17_3 H12_3 1_555 1_555
N11_3 C14_3 1_555 1_555
O27_3 Mo6_3 1_555 1_555
N12_3 C12_3 1_555 1_555
C18_3 H13_3 1_555 1_555
O43 Mo10_2 1_555 1_555
C19_3 N9_3 1_555 1_555
O29_3 Mo1_3 1_555 1_555
C20_3 C13_3 1_555 1_555
H14_3 C20_3 1_555 1_555
O30_3 Mo5_3 1_555 1_555
C21_3 C13_3 1_555 1_555
C22_3 N10_3 1_555 1_555
O31_3 Mo5_3 1_555 1_555
O32_3 Mo6_3 1_555 1_555
O33_3 Mo7_3 1_555 1_555
O34_3 Mo1_3 1_555 1_555
O35_3 Mo5_3 1_555 1_555
O36_3 Cu2_4 1_555 1_555
O39_3 Cu2_4 1_555 1_555
N13_3 Cu2_4 1_555 1_555
Mo2_3 O18_3 1_555 1_555
Mo3_3 O12_3 1_555 1_555
Mo3_3 O14_3 1_555 1_555
Mo3_3 O15_3 1_555 1_555
Mo9_2 O10_3 1_555 1_555
Mo9_2 O18_3 1_555 1_555
Mo9_2 O34_3 1_555 1_555
O17_3 Mo5_3 1_555 1_555
Mo5_3 O29_3 1_555 1_555
Mo6_3 O29_3 1_555 1_555
Mo6_3 O35_3 1_555 1_555
Mo7_3 O29_3 1_555 1_555
Mo7_3 O31_3 1_555 1_555
Mo7_3 O32_3 1_555 1_555
Mo7_3 O34_3 1_555 1_555
N9_3 N12_3 1_555 1_555
Mo10_2 O27_3 1_555 1_555
Mo10_2 O35_3 1_555 1_555
N10_3 N11_3 1_555 1_555
O24_3 C21_3 1_555 1_555
C17_3 C19_3 1_555 1_555
C17_3 C22_3 1_555 1_555
C18_3 C22_3 1_555 1_555
C19_3 C20_3 1_555 1_555
N13_3 C3_3 1_555 1_555
C3_3 H2_3 1_555 1_555
N4_3 C5_3 1_555 1_555
C5_3 N13_3 1_555 1_555
H4_3 C5_3 1_555 1_555
N5_3 C3_3 1_555 1_555
C11_3 N4_3 1_555 1_555
N4_3 N5_3 1_555 1_555
Cu2_5 O3_4 1_555 1_555
Mo3_4 O9_4 1_555 1_555
O16_4 Mo3_4 1_555 1_555
O17_4 Mo3_4 1_555 1_555
Mo5_4 O12_4 1_555 1_555
Cu7 N7_4 1_555 1_555
N7_4 C12_4 1_555 1_555
C12_4 H8_4 1_555 1_555
O19_4 Cu7 1_555 1_555
O38 C21_4 1_555 1_555
C13_4 C18_4 1_555 1_555
O22_4 Cu7 1_555 1_555
N8_4 Cu2_5 1_555 1_555
C14_4 N8_4 1_555 1_555
H9_4 C14_4 1_555 1_555
N9_4 C15_4 1_555 1_555
Mo10 O17_4 1_555 1_555
N10_4 C16_4 1_555 1_555
C15_4 N7_4 1_555 1_555
H10_4 C15_4 1_555 1_555
O24_4 Mo10 1_555 1_555
C16_4 N8_4 1_555 1_555
H11_4 C16_4 1_555 1_555
C17_4 H12_4 1_555 1_555
N11_4 C14_4 1_555 1_555
O27_4 Mo6_4 1_555 1_555
N12_4 C12_4 1_555 1_555
C18_4 H13_4 1_555 1_555
O43_2 Mo10 1_555 1_555
C19_4 N9_4 1_555 1_555
C20_4 C13_4 1_555 1_555
H14_4 C20_4 1_555 1_555
O30_4 Mo5_4 1_555 1_555
C21_4 C13_4 1_555 1_555
C22_4 N10_4 1_555 1_555
O35_4 Mo5_4 1_555 1_555
O36_4 Cu2_5 1_555 1_555
Mo3_4 O12_4 1_555 1_555
Mo3_4 O14_4 1_555 1_555
Mo3_4 O15_4 1_555 1_555
O17_4 Mo5_4 1_555 1_555
Mo6_4 O35_4 1_555 1_555
N9_4 N12_4 1_555 1_555
Mo10 O27_4 1_555 1_555
Mo10 O35_4 1_555 1_555
N10_4 N11_4 1_555 1_555
O24_4 C21_4 1_555 1_555
C17_4 C19_4 1_555 1_555
C17_4 C22_4 1_555 1_555
C18_4 C22_4 1_555 1_555
C19_4 C20_4 1_555 1_555
O5_4 Cu2_6 1_555 1_555
Mo9 O7_4 1_555 1_555
O8_4 Mo2_4 1_555 1_555
O10_4 Mo2_4 1_555 1_555
C7_4 H6_4 1_555 1_555
O42_2 Mo9 1_555 1_555
O13_4 Mo1_4 1_555 1_555
O18_4 Mo1_4 1_555 1_555
Mo7_4 O26_4 1_555 1_555
O29_4 Mo1_4 1_555 1_555
O33_4 Mo7_4 1_555 1_555
O34_4 Mo1_4 1_555 1_555
O39_4 Cu2_6 1_555 1_555
N13_4 Cu2_6 1_555 1_555
Mo2_4 O18_4 1_555 1_555
Mo9 O10_4 1_555 1_555
Mo9 O18_4 1_555 1_555
Mo9 O34_4 1_555 1_555
Mo7_4 O29_4 1_555 1_555
Mo7_4 O31_4 1_555 1_555
Mo7_4 O32_4 1_555 1_555
Mo7_4 O34_4 1_555 1_555
N13_4 C3_4 1_555 1_555
C3_4 H2_4 1_555 1_555
N4_4 C5_4 1_555 1_555
C5_4 N13_4 1_555 1_555
H4_4 C5_4 1_555 1_555
N5_4 C3_4 1_555 1_555
C11_4 N4_4 1_555 1_555
N4_4 N5_4 1_555 1_555
O37 C10_4 1_555 1_555
C9_4 C2_4 1_555 1_555
H7_4 C9_4 1_555 1_555
C10_4 C2_4 1_555 1_555
Cu5 N1_4 1_555 1_555
N1_4 C1_4 1_555 1_555
C1_4 H1_4 1_555 1_555
O4_4 Cu5 1_555 1_555
N3_4 C4_4 1_555 1_555
C4_4 N1_4 1_555 1_555
C6_4 H5_4 1_555 1_555
N6_4 C1_4 1_555 1_555
C8_4 N3_4 1_555 1_555
N3_4 N6_4 1_555 1_555
C6_4 C8_4 1_555 1_555

#END
