
###############################################################################
#
# This file contains modified crystal structure data generated from the
# MOF subset of the Cambridge Structural Database (CSD) v543 
# hosted by the Cambridge Crystallographic Data Centre (CCDC).
#
# This work is licensed under the Creative Commons
# Attribution-NonCommercial-ShareAlike 4.0 International License.
# To view a copy of this license, visit
# http://creativecommons.org/licenses/by-nc-sa/4.0/
# or send a letter to
# Creative Commons, PO Box 1866, Mountain View, CA 94042, USA.
#
# CIF created using the CSD Python API on 29 September 2022
# The structure has been converted into the P1 space group
# The structure has a 3D framework
# The original CSD entry FAXSOQ is in the tetragonal crystal system
# The framework has been calculated to contain at least 10.0% void space
# The void calculation uses a probe of radius 1.32A, grid spacing 0.4
#
###############################################################################

data_FAXSOQ
_chemical_formula_moiety         '(C176 H128 Co16 Fe12 N80 O32)n'
_symmetry_cell_setting           triclinic
_symmetry_space_group_name_H-M   'P 1'
_symmetry_Int_Tables_number      1
_space_group_name_Hall           'P 1'
loop_
_symmetry_equiv_pos_site_id
_symmetry_equiv_pos_as_xyz
1 x,y,z
_cell_length_a                   18.433(5)
_cell_length_b                   18.433(5)
_cell_length_c                   19.104(8)
_cell_angle_alpha                90
_cell_angle_beta                 90
_cell_angle_gamma                90
_cell_volume                     6491.07
loop_
_atom_site_label
_atom_site_type_symbol
_atom_site_fract_x
_atom_site_fract_y
_atom_site_fract_z
Co2 Co 0.03330(3) 0.03293(2) 0.56620(2)
N6 N 0.08827(15) 0.08979(15) 0.64563(15)
C12 C 0.11350(19) 0.15634(19) 0.63352(19)
H9 H 0.098718 0.183133 0.594818
N7 N 0.16136(15) 0.18284(15) 0.67998(15)
C13 C 0.16846(18) 0.12795(17) 0.72722(18)
N8 N 0.21199(15) 0.12732(15) 0.78434(16)
C14 C 0.2073(2) 0.0652(2) 0.8191(2)
H10 H 0.237701 0.061165 0.857728
N9 N 0.16593(19) 0.00844(17) 0.80686(17)
C15 C 0.1219(2) 0.00915(19) 0.7498(2)
C16 C 0.12389(18) 0.07091(19) 0.70689(18)
Co3 Co 0.28293(2) 0.21670(3) 0.81620(2)
Co8 Co 0.21707(2) 0.28330(3) 0.68380(2)
O6 O 0.05909(14) 0.09861(14) 0.48452(14)
Fe1 Fe -0.000000 0.750000 0.64409(4)
O1 O 0.01322(14) 0.55400(13) 0.61433(14)
O2 O 0.05909(14) 0.59861(14) 0.51548(14)
C6 C 0.04525(19) 0.6021(2) 0.5797(2)
C7 C 0.0684(2) 0.6693(2) 0.6161(2)
C8 C 0.0706(2) 0.6802(2) 0.6893(2)
H5 H 0.058945 0.646049 0.723273
C9 C 0.0936(3) 0.7520(2) 0.7019(3)
H6 H 0.099910 0.773070 0.745648
C10 C 0.1051(2) 0.7859(2) 0.6379(3)
H7 H 0.119843 0.833743 0.631626
C11 C 0.0907(2) 0.7355(2) 0.5840(2)
H8 H 0.094893 0.743981 0.536172
N10 N 0.0803(2) 0.95147(17) 0.73850(19)
H11 H 0.081761 0.915292 0.766887
H12 H 0.051898 0.950332 0.702805
Co5 Co 0.03330(3) 0.53293(2) 0.43380(2)
N12 N 0.06716(15) 0.41136(15) 0.57002(15)
N13 N 0.12268(15) 0.96199(15) 0.53434(16)
N11 N 0.93284(15) 0.08864(15) 0.57002(15)
Co1 Co 0.96670(3) 0.46707(2) 0.56620(2)
Fe1_2 Fe 1.000000 0.750000 0.64409(4)
N1 N 0.91173(15) 0.41021(15) 0.64563(15)
C1 C 0.88650(19) 0.34366(19) 0.63352(19)
H1 H 0.901282 0.316867 0.594818
N2 N 0.83864(15) 0.31716(15) 0.67998(15)
C2 C 0.83154(18) 0.37205(17) 0.72722(18)
N3 N 0.78801(15) 0.37268(15) 0.78434(16)
C3 C 0.7927(2) 0.4348(2) 0.8191(2)
H2 H 0.762299 0.438835 0.857728
N4 N 0.83407(19) 0.49156(17) 0.80686(17)
C4 C 0.8781(2) 0.49085(19) 0.7498(2)
N5 N 0.9197(2) 0.54853(17) 0.73850(19)
H3 H 0.918239 0.584708 0.766887
H4 H 0.948102 0.549668 0.702805
C5 C 0.87611(18) 0.42909(19) 0.70689(18)
O3 O 0.98678(14) 0.94600(13) 0.61433(14)
O4 O 0.94091(14) 0.90139(14) 0.51548(14)
C17 C 0.95475(19) 0.8979(2) 0.5797(2)
C18 C 0.9316(2) 0.8307(2) 0.6161(2)
C19 C 0.9294(2) 0.8198(2) 0.6893(2)
H13 H 0.941055 0.853951 0.723273
C20 C 0.9064(3) 0.7480(2) 0.7019(3)
H14 H 0.900090 0.726930 0.745648
C21 C 0.8949(2) 0.7141(2) 0.6379(3)
H15 H 0.880157 0.666257 0.631626
C22 C 0.9093(2) 0.7645(2) 0.5840(2)
H16 H 0.905107 0.756019 0.536172
Co4 Co 0.71707(2) 0.28330(3) 0.81620(2)
Co6 Co 0.78293(2) 0.21670(3) 0.68380(2)
Co7 Co 0.96670(3) 0.96707(2) 0.43380(2)
O5 O 0.94091(14) 0.40139(14) 0.48452(14)
N14 N 0.87732(15) 0.53801(15) 0.53434(16)
Co1_2 Co 0.53330(3) 0.53293(2) 0.06620(2)
Fe1_3 Fe 0.500000 0.250000 0.14409(4)
O1_2 O 0.48678(14) 0.44600(13) 0.11433(14)
N1_2 N 0.58827(15) 0.58979(15) 0.14563(15)
C1_2 C 0.61350(19) 0.65634(19) 0.13352(19)
H1_2 H 0.598718 0.683133 0.094818
O2_2 O 0.44091(14) 0.40139(14) 0.01548(14)
N2_2 N 0.66136(15) 0.68284(15) 0.17998(15)
C2_2 C 0.66846(18) 0.62795(17) 0.22722(18)
N3_2 N 0.71199(15) 0.62732(15) 0.28434(16)
C3_2 C 0.7073(2) 0.5652(2) 0.3191(2)
H2_2 H 0.737701 0.561165 0.357728
N4_2 N 0.66593(19) 0.50844(17) 0.30686(17)
C4_2 C 0.6219(2) 0.50915(19) 0.2498(2)
N5_2 N 0.5803(2) 0.45147(17) 0.23850(19)
H3_2 H 0.581761 0.415292 0.266887
H4_2 H 0.551898 0.450332 0.202805
C5_2 C 0.62389(18) 0.57091(19) 0.20689(18)
C6_2 C 0.45475(19) 0.3979(2) 0.0797(2)
C7_2 C 0.4316(2) 0.3307(2) 0.1161(2)
C8_2 C 0.4294(2) 0.3198(2) 0.1893(2)
H5_2 H 0.441055 0.353951 0.223273
C9_2 C 0.4064(3) 0.2480(2) 0.2019(3)
H6_2 H 0.400090 0.226930 0.245648
C10_2 C 0.3949(2) 0.2141(2) 0.1379(3)
H7_2 H 0.380157 0.166257 0.131626
C11_2 C 0.4093(2) 0.2645(2) 0.0840(2)
H8_2 H 0.405107 0.256019 0.036172
O3_2 O 0.51322(14) 0.05400(13) 0.11433(14)
O4_2 O 0.55909(14) 0.09861(14) 0.01548(14)
N10_2 N 0.4197(2) 0.04853(17) 0.23850(19)
H11_2 H 0.418239 0.084708 0.266887
H12_2 H 0.448102 0.049668 0.202805
C17_2 C 0.54525(19) 0.1021(2) 0.0797(2)
C18_2 C 0.5684(2) 0.1693(2) 0.1161(2)
C19_2 C 0.5706(2) 0.1802(2) 0.1893(2)
H13_2 H 0.558945 0.146049 0.223273
C20_2 C 0.5936(3) 0.2520(2) 0.2019(3)
H14_2 H 0.599910 0.273070 0.245648
C21_2 C 0.6051(2) 0.2859(2) 0.1379(3)
H15_2 H 0.619843 0.333743 0.131626
C22_2 C 0.5907(2) 0.2355(2) 0.0840(2)
H16_2 H 0.594893 0.243981 0.036172
Co4_2 Co 0.78293(2) 0.71670(3) 0.31620(2)
Co6_2 Co 0.71707(2) 0.78330(3) 0.18380(2)
N12_2 N 0.43284(15) 0.58864(15) 0.07002(15)
N13_2 N 0.37732(15) 0.03801(15) 0.03434(16)
N14_2 N 0.62268(15) 0.46199(15) 0.03434(16)
Co5_2 Co 0.46670(3) 0.46707(2) 0.93380(2)
Co7_2 Co 0.53330(3) 0.03293(2) 0.93380(2)
O5_2 O 0.55909(14) 0.59861(14) 0.98452(14)
Co2_2 Co 0.46670(3) 0.96707(2) 0.06620(2)
N6_2 N 0.41173(15) 0.91021(15) 0.14563(15)
C12_2 C 0.38650(19) 0.84366(19) 0.13352(19)
H9_2 H 0.401282 0.816867 0.094818
N7_2 N 0.33864(15) 0.81716(15) 0.17998(15)
C13_2 C 0.33154(18) 0.87205(17) 0.22722(18)
N8_2 N 0.28801(15) 0.87268(15) 0.28434(16)
C14_2 C 0.2927(2) 0.9348(2) 0.3191(2)
H10_2 H 0.262299 0.938835 0.357728
N9_2 N 0.33407(19) 0.99156(17) 0.30686(17)
C15_2 C 0.3781(2) 0.99085(19) 0.2498(2)
C16_2 C 0.37611(18) 0.92909(19) 0.20689(18)
Co3_2 Co 0.21707(2) 0.78330(3) 0.31620(2)
Co8_2 Co 0.28293(2) 0.71670(3) 0.18380(2)
N11_2 N 0.56716(15) 0.91136(15) 0.07002(15)
O6_2 O 0.44091(14) 0.90139(14) 0.98452(14)
C3_3 C 0.3152(2) 0.0427(2) 0.0691(2)
H2_3 H 0.311165 0.012299 0.107728
N4_3 N 0.25844(17) 0.08407(19) 0.05686(17)
H3_3 H 0.165292 0.168239 0.016887
Fe1_4 Fe 0.000000 0.250000 0.89409(4)
O1_3 O 0.19600(13) 0.26322(14) 0.86433(14)
N1_3 N 0.33979(15) 0.16173(15) 0.89563(15)
C1_3 C 0.40634(19) 0.13650(19) 0.88352(19)
H1_3 H 0.433133 0.151282 0.844818
O2_3 O 0.15139(14) 0.30909(14) 0.76548(14)
N2_3 N 0.43284(15) 0.08864(15) 0.92998(15)
C2_3 C 0.37795(17) 0.08154(18) 0.97722(18)
C4_3 C 0.25915(19) 0.1281(2) 0.9998(2)
N5_3 N 0.20147(17) 0.1697(2) 0.98850(19)
H4_3 H 0.200332 0.198102 0.952805
C5_3 C 0.32091(19) 0.12611(18) 0.95689(18)
C6_3 C 0.1479(2) 0.29525(19) 0.8297(2)
C7_3 C 0.0807(2) 0.3184(2) 0.8661(2)
C8_3 C 0.0698(2) 0.3206(2) 0.9393(2)
H5_3 H 0.103951 0.308945 0.973273
C11_3 C 0.0145(2) 0.3407(2) 0.8340(2)
H8_3 H 0.006019 0.344893 0.786172
C20_3 C 0.0020(2) 0.1564(3) 0.9519(3)
H14_3 H 0.023070 0.150090 0.995648
C21_3 C 0.0359(2) 0.1449(2) 0.8879(3)
H15_3 H 0.083743 0.130157 0.881626
O5_3 O 0.34861(14) 0.19091(14) 0.73452(14)
N12_3 N 0.33864(15) 0.31716(15) 0.82002(15)
C14_3 C 0.6848(2) 0.4573(2) 0.0691(2)
H10_3 H 0.688835 0.487701 0.107728
N9_3 N 0.74156(17) 0.41593(19) 0.05686(17)
H11_3 H 0.834708 0.331761 0.016887
Fe1_5 Fe 1.000000 0.250000 0.89409(4)
C9_3 C 0.9980(2) 0.3436(3) 0.9519(3)
H6_3 H 0.976930 0.349910 0.995648
C10_3 C 0.9641(2) 0.3551(2) 0.8879(3)
H7_3 H 0.916257 0.369843 0.881626
O3_3 O 0.80400(13) 0.23678(14) 0.86433(14)
N6_3 N 0.66021(15) 0.33827(15) 0.89563(15)
C12_3 C 0.59366(19) 0.36350(19) 0.88352(19)
H9_3 H 0.566867 0.348718 0.844818
O4_3 O 0.84861(14) 0.19091(14) 0.76548(14)
N7_3 N 0.56716(15) 0.41136(15) 0.92998(15)
C13_3 C 0.62205(17) 0.41846(18) 0.97722(18)
C15_3 C 0.74085(19) 0.3719(2) 0.9998(2)
N10_3 N 0.79853(17) 0.3303(2) 0.98850(19)
H12_3 H 0.799668 0.301898 0.952805
C16_3 C 0.67909(19) 0.37389(18) 0.95689(18)
C17_3 C 0.8521(2) 0.20475(19) 0.8297(2)
C18_3 C 0.9193(2) 0.1816(2) 0.8661(2)
C19_3 C 0.9302(2) 0.1794(2) 0.9393(2)
H13_3 H 0.896049 0.191055 0.973273
C22_3 C 0.9855(2) 0.1593(2) 0.8340(2)
H16_3 H 0.993981 0.155107 0.786172
O6_3 O 0.65139(14) 0.30909(14) 0.73452(14)
N11_3 N 0.66136(15) 0.18284(15) 0.82002(15)
Fe1_6 Fe 0.500000 0.750000 0.39409(4)
O1_4 O 0.30400(13) 0.73678(14) 0.36433(14)
N1_4 N 0.16021(15) 0.83827(15) 0.39563(15)
C1_4 C 0.09366(19) 0.86350(19) 0.38352(19)
H1_4 H 0.066867 0.848718 0.344818
O2_4 O 0.34861(14) 0.69091(14) 0.26548(14)
N2_4 N 0.06716(15) 0.91136(15) 0.42998(15)
C2_4 C 0.12205(17) 0.91846(18) 0.47722(18)
C3_4 C 0.1848(2) 0.9573(2) 0.5691(2)
H2_4 H 0.188835 0.987701 0.607728
N4_4 N 0.24156(17) 0.91593(19) 0.55686(17)
C4_4 C 0.24085(19) 0.8719(2) 0.4998(2)
N5_4 N 0.29853(17) 0.8303(2) 0.48850(19)
H3_4 H 0.334708 0.831761 0.516887
H4_4 H 0.299668 0.801898 0.452805
C5_4 C 0.17909(19) 0.87389(18) 0.45689(18)
C6_4 C 0.3521(2) 0.70475(19) 0.3297(2)
C7_4 C 0.4193(2) 0.6816(2) 0.3661(2)
C8_4 C 0.4302(2) 0.6794(2) 0.4393(2)
H5_4 H 0.396049 0.691055 0.473273
C9_4 C 0.5020(2) 0.6564(3) 0.4519(3)
H6_4 H 0.523070 0.650090 0.495648
C10_4 C 0.5359(2) 0.6449(2) 0.3879(3)
H7_4 H 0.583743 0.630157 0.381626
C11_4 C 0.4855(2) 0.6593(2) 0.3340(2)
H8_4 H 0.493981 0.655107 0.286172
O3_4 O 0.69600(13) 0.76322(14) 0.36433(14)
N6_4 N 0.83979(15) 0.66173(15) 0.39563(15)
C12_4 C 0.90634(19) 0.63650(19) 0.38352(19)
H9_4 H 0.933133 0.651282 0.344818
O4_4 O 0.65139(14) 0.80909(14) 0.26548(14)
N7_4 N 0.93284(15) 0.58864(15) 0.42998(15)
C13_4 C 0.87795(17) 0.58154(18) 0.47722(18)
C14_4 C 0.8152(2) 0.5427(2) 0.5691(2)
H10_4 H 0.811165 0.512299 0.607728
N9_4 N 0.75844(17) 0.58407(19) 0.55686(17)
C15_4 C 0.75915(19) 0.6281(2) 0.4998(2)
N10_4 N 0.70147(17) 0.6697(2) 0.48850(19)
H11_4 H 0.665292 0.668239 0.516887
H12_4 H 0.700332 0.698102 0.452805
C16_4 C 0.82091(19) 0.62611(18) 0.45689(18)
C17_4 C 0.6479(2) 0.79525(19) 0.3297(2)
C18_4 C 0.5807(2) 0.8184(2) 0.3661(2)
C19_4 C 0.5698(2) 0.8206(2) 0.4393(2)
H13_4 H 0.603951 0.808945 0.473273
C20_4 C 0.4980(2) 0.8436(3) 0.4519(3)
H14_4 H 0.476930 0.849910 0.495648
C21_4 C 0.4641(2) 0.8551(2) 0.3879(3)
H15_4 H 0.416257 0.869843 0.381626
C22_4 C 0.5145(2) 0.8407(2) 0.3340(2)
H16_4 H 0.506019 0.844893 0.286172
O5_4 O 0.15139(14) 0.80909(14) 0.23452(14)
O6_4 O 0.84861(14) 0.69091(14) 0.23452(14)
N11_4 N 0.83864(15) 0.81716(15) 0.32002(15)
N12_4 N 0.16136(15) 0.68284(15) 0.32002(15)
Fe1_7 Fe 0.000000 0.250000 0.35591(4)
N1_5 N 0.08827(15) 0.58979(15) 0.35437(15)
C1_5 C 0.11350(19) 0.65634(19) 0.36648(19)
H1_5 H 0.098718 0.683133 0.405182
C2_5 C 0.16846(18) 0.62795(17) 0.27278(18)
N3_3 N 0.21199(15) 0.62732(15) 0.21566(16)
C3_5 C 0.2073(2) 0.5652(2) 0.1809(2)
H2_5 H 0.237701 0.561165 0.142272
N4_5 N 0.16593(19) 0.50844(17) 0.19314(17)
C4_5 C 0.1219(2) 0.50915(19) 0.2502(2)
N5_5 N 0.0803(2) 0.45147(17) 0.26150(19)
H3_5 H 0.081761 0.415292 0.233113
H4_5 H 0.051898 0.450332 0.297195
C5_5 C 0.12389(18) 0.57091(19) 0.29311(18)
O3_5 O 0.01322(14) 0.05400(13) 0.38567(14)
C17_5 C 0.04525(19) 0.1021(2) 0.4203(2)
C18_5 C 0.0684(2) 0.1693(2) 0.3839(2)
C19_5 C 0.0706(2) 0.1802(2) 0.3107(2)
H13_5 H 0.058945 0.146049 0.276727
C20_5 C 0.0936(3) 0.2520(2) 0.2981(3)
H14_5 H 0.099910 0.273070 0.254352
C21_5 C 0.1051(2) 0.2859(2) 0.3621(3)
H15_5 H 0.119843 0.333743 0.368374
C22_5 C 0.0907(2) 0.2355(2) 0.4160(2)
H16_5 H 0.094893 0.243981 0.463828
N14_3 N 0.12268(15) 0.46199(15) 0.46566(16)
Fe1_8 Fe 1.000000 0.250000 0.35591(4)
O1_5 O 0.98678(14) 0.44600(13) 0.38567(14)
C6_5 C 0.95475(19) 0.3979(2) 0.4203(2)
C7_5 C 0.9316(2) 0.3307(2) 0.3839(2)
C8_5 C 0.9294(2) 0.3198(2) 0.3107(2)
H5_5 H 0.941055 0.353951 0.276727
C9_5 C 0.9064(3) 0.2480(2) 0.2981(3)
H6_5 H 0.900090 0.226930 0.254352
C10_5 C 0.8949(2) 0.2141(2) 0.3621(3)
H7_5 H 0.880157 0.166257 0.368374
C11_5 C 0.9093(2) 0.2645(2) 0.4160(2)
H8_5 H 0.905107 0.256019 0.463828
N10_5 N 0.9197(2) 0.04853(17) 0.26150(19)
H11_5 H 0.918239 0.084708 0.233113
H12_5 H 0.948102 0.049668 0.297195
N13_3 N 0.87732(15) 0.03801(15) 0.46566(16)
N6_5 N 0.91173(15) 0.91021(15) 0.35437(15)
C12_5 C 0.88650(19) 0.84366(19) 0.36648(19)
H9_5 H 0.901282 0.816867 0.405182
C13_5 C 0.83154(18) 0.87205(17) 0.27278(18)
N8_3 N 0.78801(15) 0.87268(15) 0.21566(16)
C14_5 C 0.7927(2) 0.9348(2) 0.1809(2)
H10_5 H 0.762299 0.938835 0.142272
N9_5 N 0.83407(19) 0.99156(17) 0.19314(17)
C15_5 C 0.8781(2) 0.99085(19) 0.2502(2)
C16_5 C 0.87611(18) 0.92909(19) 0.29311(18)
N6_6 N 0.58827(15) 0.08979(15) 0.85437(15)
C12_6 C 0.61350(19) 0.15634(19) 0.86648(19)
H9_6 H 0.598718 0.183133 0.905182
C13_6 C 0.66846(18) 0.12795(17) 0.77278(18)
N8_4 N 0.71199(15) 0.12732(15) 0.71566(16)
C14_6 C 0.7073(2) 0.0652(2) 0.6809(2)
H10_6 H 0.737701 0.061165 0.642272
N9_6 N 0.66593(19) 0.00844(17) 0.69314(17)
C15_6 C 0.6219(2) 0.00915(19) 0.7502(2)
C16_6 C 0.62389(18) 0.07091(19) 0.79311(18)
Fe1_9 Fe 0.500000 0.750000 0.85591(4)
O1_6 O 0.51322(14) 0.55400(13) 0.88567(14)
N1_6 N 0.41173(15) 0.41021(15) 0.85437(15)
C1_6 C 0.38650(19) 0.34366(19) 0.86648(19)
H1_6 H 0.401282 0.316867 0.905182
C2_6 C 0.33154(18) 0.37205(17) 0.77278(18)
N3_4 N 0.28801(15) 0.37268(15) 0.71566(16)
C3_6 C 0.2927(2) 0.4348(2) 0.6809(2)
H2_6 H 0.262299 0.438835 0.642272
N4_6 N 0.33407(19) 0.49156(17) 0.69314(17)
C4_6 C 0.3781(2) 0.49085(19) 0.7502(2)
N5_6 N 0.4197(2) 0.54853(17) 0.76150(19)
H3_6 H 0.418239 0.584708 0.733113
H4_6 H 0.448102 0.549668 0.797195
C5_6 C 0.37611(18) 0.42909(19) 0.79311(18)
C6_6 C 0.54525(19) 0.6021(2) 0.9203(2)
C7_6 C 0.5684(2) 0.6693(2) 0.8839(2)
C8_6 C 0.5706(2) 0.6802(2) 0.8107(2)
H5_6 H 0.558945 0.646049 0.776727
C9_6 C 0.5936(3) 0.7520(2) 0.7981(3)
H6_6 H 0.599910 0.773070 0.754352
C10_6 C 0.6051(2) 0.7859(2) 0.8621(3)
H7_6 H 0.619843 0.833743 0.868374
C11_6 C 0.5907(2) 0.7355(2) 0.9160(2)
H8_6 H 0.594893 0.743981 0.963828
O3_6 O 0.48678(14) 0.94600(13) 0.88567(14)
N10_6 N 0.5803(2) 0.95147(17) 0.76150(19)
H11_6 H 0.581761 0.915292 0.733113
H12_6 H 0.551898 0.950332 0.797195
C17_6 C 0.45475(19) 0.8979(2) 0.9203(2)
C18_6 C 0.4316(2) 0.8307(2) 0.8839(2)
C19_6 C 0.4294(2) 0.8198(2) 0.8107(2)
H13_6 H 0.441055 0.853951 0.776727
C20_6 C 0.4064(3) 0.7480(2) 0.7981(3)
H14_6 H 0.400090 0.726930 0.754352
C21_6 C 0.3949(2) 0.7141(2) 0.8621(3)
H15_6 H 0.380157 0.666257 0.868374
C22_6 C 0.4093(2) 0.7645(2) 0.9160(2)
H16_6 H 0.405107 0.756019 0.963828
N13_4 N 0.62268(15) 0.96199(15) 0.96566(16)
N14_4 N 0.37732(15) 0.53801(15) 0.96566(16)
Fe1_10 Fe 0.000000 0.750000 0.10591(4)
C9_7 C 0.0020(2) 0.6564(3) 0.0481(3)
H6_7 H 0.023070 0.650090 0.004352
C10_7 C 0.0359(2) 0.6449(2) 0.1121(3)
H7_7 H 0.083743 0.630157 0.118374
O3_7 O 0.19600(13) 0.76322(14) 0.13567(14)
N6_7 N 0.33979(15) 0.66173(15) 0.10437(15)
C12_7 C 0.40634(19) 0.63650(19) 0.11648(19)
H9_7 H 0.433133 0.651282 0.155182
C13_7 C 0.37795(17) 0.58154(18) 0.02278(18)
C15_7 C 0.25915(19) 0.6281(2) 0.0002(2)
N10_7 N 0.20147(17) 0.6697(2) 0.01150(19)
H12_7 H 0.200332 0.698102 0.047195
C16_7 C 0.32091(19) 0.62611(18) 0.04311(18)
C17_7 C 0.1479(2) 0.79525(19) 0.1703(2)
C18_7 C 0.0807(2) 0.8184(2) 0.1339(2)
C19_7 C 0.0698(2) 0.8206(2) 0.0607(2)
H13_7 H 0.103951 0.808945 0.026727
C22_7 C 0.0145(2) 0.8407(2) 0.1660(2)
H16_7 H 0.006019 0.844893 0.213828
C14_7 C 0.3152(2) 0.5427(2) 0.9309(2)
H10_7 H 0.311165 0.512299 0.892272
N9_7 N 0.25844(17) 0.58407(19) 0.94314(17)
H11_7 H 0.165292 0.668239 0.983113
Fe1_11 Fe 1.000000 0.750000 0.10591(4)
O1_7 O 0.80400(13) 0.73678(14) 0.13567(14)
N1_7 N 0.66021(15) 0.83827(15) 0.10437(15)
C1_7 C 0.59366(19) 0.86350(19) 0.11648(19)
H1_7 H 0.566867 0.848718 0.155182
C2_7 C 0.62205(17) 0.91846(18) 0.02278(18)
C4_7 C 0.74085(19) 0.8719(2) 0.0002(2)
N5_7 N 0.79853(17) 0.8303(2) 0.01150(19)
H4_7 H 0.799668 0.801898 0.047195
C5_7 C 0.67909(19) 0.87389(18) 0.04311(18)
C6_7 C 0.8521(2) 0.70475(19) 0.1703(2)
C7_7 C 0.9193(2) 0.6816(2) 0.1339(2)
C8_7 C 0.9302(2) 0.6794(2) 0.0607(2)
H5_7 H 0.896049 0.691055 0.026727
C11_7 C 0.9855(2) 0.6593(2) 0.1660(2)
H8_7 H 0.993981 0.655107 0.213828
C20_7 C 0.9980(2) 0.8436(3) 0.0481(3)
H14_7 H 0.976930 0.849910 0.004352
C21_7 C 0.9641(2) 0.8551(2) 0.1121(3)
H15_7 H 0.916257 0.869843 0.118374
C3_7 C 0.6848(2) 0.9573(2) 0.9309(2)
H2_7 H 0.688835 0.987701 0.892272
N4_7 N 0.74156(17) 0.91593(19) 0.94314(17)
H3_7 H 0.834708 0.831761 0.983113
Fe1_12 Fe 0.500000 0.250000 0.60591(4)
O1_8 O 0.69600(13) 0.26322(14) 0.63567(14)
N1_8 N 0.83979(15) 0.16173(15) 0.60437(15)
C1_8 C 0.90634(19) 0.13650(19) 0.61648(19)
H1_8 H 0.933133 0.151282 0.655182
C2_8 C 0.87795(17) 0.08154(18) 0.52278(18)
C3_8 C 0.8152(2) 0.0427(2) 0.4309(2)
H2_8 H 0.811165 0.012299 0.392272
N4_8 N 0.75844(17) 0.08407(19) 0.44314(17)
C4_8 C 0.75915(19) 0.1281(2) 0.5002(2)
N5_8 N 0.70147(17) 0.1697(2) 0.51150(19)
H3_8 H 0.665292 0.168239 0.483113
H4_8 H 0.700332 0.198102 0.547195
C5_8 C 0.82091(19) 0.12611(18) 0.54311(18)
C6_8 C 0.6479(2) 0.29525(19) 0.6703(2)
C7_8 C 0.5807(2) 0.3184(2) 0.6339(2)
C8_8 C 0.5698(2) 0.3206(2) 0.5607(2)
H5_8 H 0.603951 0.308945 0.526727
C9_8 C 0.4980(2) 0.3436(3) 0.5481(3)
H6_8 H 0.476930 0.349910 0.504352
C10_8 C 0.4641(2) 0.3551(2) 0.6121(3)
H7_8 H 0.416257 0.369843 0.618374
C11_8 C 0.5145(2) 0.3407(2) 0.6660(2)
H8_8 H 0.506019 0.344893 0.713828
O3_8 O 0.30400(13) 0.23678(14) 0.63567(14)
N6_8 N 0.16021(15) 0.33827(15) 0.60437(15)
C12_8 C 0.09366(19) 0.36350(19) 0.61648(19)
H9_8 H 0.066867 0.348718 0.655182
C13_8 C 0.12205(17) 0.41846(18) 0.52278(18)
C14_8 C 0.1848(2) 0.4573(2) 0.4309(2)
H10_8 H 0.188835 0.487701 0.392272
N9_8 N 0.24156(17) 0.41593(19) 0.44314(17)
C15_8 C 0.24085(19) 0.3719(2) 0.5002(2)
N10_8 N 0.29853(17) 0.3303(2) 0.51150(19)
H11_8 H 0.334708 0.331761 0.483113
H12_8 H 0.299668 0.301898 0.547195
C16_8 C 0.17909(19) 0.37389(18) 0.54311(18)
C17_8 C 0.3521(2) 0.20475(19) 0.6703(2)
C18_8 C 0.4193(2) 0.1816(2) 0.6339(2)
C19_8 C 0.4302(2) 0.1794(2) 0.5607(2)
H13_8 H 0.396049 0.191055 0.526727
C20_8 C 0.5020(2) 0.1564(3) 0.5481(3)
H14_8 H 0.523070 0.150090 0.504352
C21_8 C 0.5359(2) 0.1449(2) 0.6121(3)
H15_8 H 0.583743 0.130157 0.618374
C22_8 C 0.4855(2) 0.1593(2) 0.6660(2)
H16_8 H 0.493981 0.155107 0.713828
loop_
_geom_bond_atom_site_label_1
_geom_bond_atom_site_label_2
_geom_bond_site_symmetry_1
_geom_bond_site_symmetry_2
N6 Co2 1_555 1_555
C12 N6 1_555 1_555
H9 C12 1_555 1_555
N7 C12 1_555 1_555
C13 N7 1_555 1_555
N8 C13 1_555 1_555
C14 N8 1_555 1_555
H10 C14 1_555 1_555
N9 C14 1_555 1_555
C15 N9 1_555 1_555
C16 N6 1_555 1_555
Co3 N8 1_555 1_555
Co8 N7 1_555 1_555
O6 Co2 1_555 1_555
C13 C16 1_555 1_555
C15 C16 1_555 1_555
Fe1 C7 1_555 1_555
O1 C6 1_555 1_555
O2 C6 1_555 1_555
C6 C7 1_555 1_555
C7 C8 1_555 1_555
C8 Fe1 1_555 1_555
H5 C8 1_555 1_555
C9 Fe1 1_555 1_555
H6 C9 1_555 1_555
C10 Fe1 1_555 1_555
H7 C10 1_555 1_555
C11 Fe1 1_555 1_555
H8 C11 1_555 1_555
H11 N10 1_555 1_555
H12 N10 1_555 1_555
Co5 O2 1_555 1_555
C7 C11 1_555 1_555
C8 C9 1_555 1_555
C9 C10 1_555 1_555
C10 C11 1_555 1_555
N1 Co1 1_555 1_555
C1 N1 1_555 1_555
H1 C1 1_555 1_555
N2 C1 1_555 1_555
C2 N2 1_555 1_555
N3 C2 1_555 1_555
C3 N3 1_555 1_555
H2 C3 1_555 1_555
N4 C3 1_555 1_555
C4 N4 1_555 1_555
N5 C4 1_555 1_555
H3 N5 1_555 1_555
H4 N5 1_555 1_555
C5 N1 1_555 1_555
O3 C17 1_555 1_555
O4 C17 1_555 1_555
C17 C18 1_555 1_555
C18 Fe1_2 1_555 1_555
C19 Fe1_2 1_555 1_555
H13 C19 1_555 1_555
C20 Fe1_2 1_555 1_555
H14 C20 1_555 1_555
C21 Fe1_2 1_555 1_555
H15 C21 1_555 1_555
C22 Fe1_2 1_555 1_555
H16 C22 1_555 1_555
Co4 N3 1_555 1_555
Co6 N2 1_555 1_555
Co7 O4 1_555 1_555
O5 Co1 1_555 1_555
N14 Co1 1_555 1_555
C2 C5 1_555 1_555
C4 C5 1_555 1_555
C18 C19 1_555 1_555
C18 C22 1_555 1_555
C19 C20 1_555 1_555
C20 C21 1_555 1_555
C21 C22 1_555 1_555
Co1_2 O1_2 1_555 1_555
Fe1_3 C7_2 1_555 1_555
O1_2 C6_2 1_555 1_555
N1_2 Co1_2 1_555 1_555
C1_2 N1_2 1_555 1_555
H1_2 C1_2 1_555 1_555
O2_2 C6_2 1_555 1_555
N2_2 C1_2 1_555 1_555
C2_2 N2_2 1_555 1_555
N3_2 C2_2 1_555 1_555
C3_2 N3_2 1_555 1_555
H2_2 C3_2 1_555 1_555
N4_2 C3_2 1_555 1_555
C4_2 N4_2 1_555 1_555
N5_2 C4_2 1_555 1_555
H3_2 N5_2 1_555 1_555
H4_2 N5_2 1_555 1_555
C5_2 N1_2 1_555 1_555
C6_2 C7_2 1_555 1_555
C7_2 C8_2 1_555 1_555
C8_2 Fe1_3 1_555 1_555
H5_2 C8_2 1_555 1_555
C9_2 Fe1_3 1_555 1_555
H6_2 C9_2 1_555 1_555
C10_2 Fe1_3 1_555 1_555
H7_2 C10_2 1_555 1_555
C11_2 Fe1_3 1_555 1_555
H8_2 C11_2 1_555 1_555
O3_2 C17_2 1_555 1_555
O4_2 C17_2 1_555 1_555
H11_2 N10_2 1_555 1_555
H12_2 N10_2 1_555 1_555
C17_2 C18_2 1_555 1_555
C18_2 Fe1_3 1_555 1_555
C19_2 Fe1_3 1_555 1_555
H13_2 C19_2 1_555 1_555
C20_2 Fe1_3 1_555 1_555
H14_2 C20_2 1_555 1_555
C21_2 Fe1_3 1_555 1_555
H15_2 C21_2 1_555 1_555
C22_2 Fe1_3 1_555 1_555
H16_2 C22_2 1_555 1_555
Co4_2 N3_2 1_555 1_555
Co6_2 N2_2 1_555 1_555
N12_2 Co1_2 1_555 1_555
N14_2 Co1_2 1_555 1_555
C2_2 C5_2 1_555 1_555
C4_2 C5_2 1_555 1_555
C7_2 C11_2 1_555 1_555
C8_2 C9_2 1_555 1_555
C9_2 C10_2 1_555 1_555
C10_2 C11_2 1_555 1_555
C18_2 C19_2 1_555 1_555
C18_2 C22_2 1_555 1_555
C19_2 C20_2 1_555 1_555
C20_2 C21_2 1_555 1_555
C21_2 C22_2 1_555 1_555
N6_2 Co2_2 1_555 1_555
C12_2 N6_2 1_555 1_555
H9_2 C12_2 1_555 1_555
N7_2 C12_2 1_555 1_555
C13_2 N7_2 1_555 1_555
N8_2 C13_2 1_555 1_555
C14_2 N8_2 1_555 1_555
H10_2 C14_2 1_555 1_555
N9_2 C14_2 1_555 1_555
C15_2 N9_2 1_555 1_555
C16_2 N6_2 1_555 1_555
Co3_2 N8_2 1_555 1_555
Co8_2 N7_2 1_555 1_555
N11_2 Co2_2 1_555 1_555
C13_2 C16_2 1_555 1_555
C15_2 C16_2 1_555 1_555
C3_3 N13_2 1_555 1_555
H2_3 C3_3 1_555 1_555
N4_3 C3_3 1_555 1_555
Co3 O1_3 1_555 1_555
Fe1_4 C7_3 1_555 1_555
O1_3 C6_3 1_555 1_555
N1_3 Co3 1_555 1_555
C1_3 N1_3 1_555 1_555
H1_3 C1_3 1_555 1_555
O2_3 C6_3 1_555 1_555
N2_3 C1_3 1_555 1_555
C2_3 N2_3 1_555 1_555
N5_3 C4_3 1_555 1_555
H4_3 N5_3 1_555 1_555
C5_3 N1_3 1_555 1_555
C6_3 C7_3 1_555 1_555
C7_3 C8_3 1_555 1_555
C8_3 Fe1_4 1_555 1_555
H5_3 C8_3 1_555 1_555
C11_3 Fe1_4 1_555 1_555
H8_3 C11_3 1_555 1_555
C20_3 Fe1_4 1_555 1_555
H14_3 C20_3 1_555 1_555
C21_3 Fe1_4 1_555 1_555
H15_3 C21_3 1_555 1_555
Co8 O2_3 1_555 1_555
Co7_2 N2_3 1_555 1_555
O5_3 Co3 1_555 1_555
N12_3 Co3 1_555 1_555
C2_3 C5_3 1_555 1_555
C4_3 C5_3 1_555 1_555
C7_3 C11_3 1_555 1_555
C20_3 C21_3 1_555 1_555
C14_3 N14_2 1_555 1_555
H10_3 C14_3 1_555 1_555
N9_3 C14_3 1_555 1_555
C9_3 Fe1_5 1_555 1_555
H6_3 C9_3 1_555 1_555
C10_3 Fe1_5 1_555 1_555
H7_3 C10_3 1_555 1_555
Co4 O3_3 1_555 1_555
O3_3 C17_3 1_555 1_555
N6_3 Co4 1_555 1_555
C12_3 N6_3 1_555 1_555
H9_3 C12_3 1_555 1_555
O4_3 C17_3 1_555 1_555
N7_3 C12_3 1_555 1_555
C13_3 N7_3 1_555 1_555
N10_3 C15_3 1_555 1_555
H12_3 N10_3 1_555 1_555
C16_3 N6_3 1_555 1_555
C17_3 C18_3 1_555 1_555
C18_3 Fe1_5 1_555 1_555
C19_3 Fe1_5 1_555 1_555
H13_3 C19_3 1_555 1_555
C22_3 Fe1_5 1_555 1_555
H16_3 C22_3 1_555 1_555
Co6 O4_3 1_555 1_555
Co5_2 N7_3 1_555 1_555
O6_3 Co4 1_555 1_555
N11_3 Co4 1_555 1_555
C9_3 C10_3 1_555 1_555
C13_3 C16_3 1_555 1_555
C15_3 C16_3 1_555 1_555
C18_3 C19_3 1_555 1_555
C18_3 C22_3 1_555 1_555
Co3_2 O1_4 1_555 1_555
Fe1_6 C7_4 1_555 1_555
O1_4 C6_4 1_555 1_555
N1_4 Co3_2 1_555 1_555
C1_4 N1_4 1_555 1_555
H1_4 C1_4 1_555 1_555
O2_4 C6_4 1_555 1_555
N2_4 C1_4 1_555 1_555
C2_4 N2_4 1_555 1_555
N13 C2_4 1_555 1_555
C3_4 N13 1_555 1_555
H2_4 C3_4 1_555 1_555
N4_4 C3_4 1_555 1_555
C4_4 N4_4 1_555 1_555
N5_4 C4_4 1_555 1_555
H3_4 N5_4 1_555 1_555
H4_4 N5_4 1_555 1_555
C5_4 N1_4 1_555 1_555
C6_4 C7_4 1_555 1_555
C7_4 C8_4 1_555 1_555
C8_4 Fe1_6 1_555 1_555
H5_4 C8_4 1_555 1_555
C9_4 Fe1_6 1_555 1_555
H6_4 C9_4 1_555 1_555
C10_4 Fe1_6 1_555 1_555
H7_4 C10_4 1_555 1_555
C11_4 Fe1_6 1_555 1_555
H8_4 C11_4 1_555 1_555
Co4_2 O3_4 1_555 1_555
O3_4 C17_4 1_555 1_555
N6_4 Co4_2 1_555 1_555
C12_4 N6_4 1_555 1_555
H9_4 C12_4 1_555 1_555
O4_4 C17_4 1_555 1_555
N7_4 C12_4 1_555 1_555
C13_4 N7_4 1_555 1_555
N14 C13_4 1_555 1_555
C14_4 N14 1_555 1_555
H10_4 C14_4 1_555 1_555
N9_4 C14_4 1_555 1_555
C15_4 N9_4 1_555 1_555
N10_4 C15_4 1_555 1_555
H11_4 N10_4 1_555 1_555
H12_4 N10_4 1_555 1_555
C16_4 N6_4 1_555 1_555
C17_4 C18_4 1_555 1_555
C18_4 Fe1_6 1_555 1_555
C19_4 Fe1_6 1_555 1_555
H13_4 C19_4 1_555 1_555
C20_4 Fe1_6 1_555 1_555
H14_4 C20_4 1_555 1_555
C21_4 Fe1_6 1_555 1_555
H15_4 C21_4 1_555 1_555
C22_4 Fe1_6 1_555 1_555
H16_4 C22_4 1_555 1_555
Co8_2 O2_4 1_555 1_555
Co6_2 O4_4 1_555 1_555
O5_4 Co3_2 1_555 1_555
O6_4 Co4_2 1_555 1_555
N11_4 Co4_2 1_555 1_555
N12_4 Co3_2 1_555 1_555
C2_4 C5_4 1_555 1_555
C4_4 C5_4 1_555 1_555
C7_4 C11_4 1_555 1_555
C8_4 C9_4 1_555 1_555
C9_4 C10_4 1_555 1_555
C10_4 C11_4 1_555 1_555
C13_4 C16_4 1_555 1_555
C15_4 C16_4 1_555 1_555
C18_4 C19_4 1_555 1_555
C18_4 C22_4 1_555 1_555
C19_4 C20_4 1_555 1_555
C20_4 C21_4 1_555 1_555
C21_4 C22_4 1_555 1_555
N1_5 Co5 1_555 1_555
C1_5 N1_5 1_555 1_555
H1_5 C1_5 1_555 1_555
N12_4 C1_5 1_555 1_555
C2_5 N12_4 1_555 1_555
N3_3 C2_5 1_555 1_555
C3_5 N3_3 1_555 1_555
H2_5 C3_5 1_555 1_555
N4_5 C3_5 1_555 1_555
C4_5 N4_5 1_555 1_555
N5_5 C4_5 1_555 1_555
H3_5 N5_5 1_555 1_555
H4_5 N5_5 1_555 1_555
C5_5 N1_5 1_555 1_555
O3_5 C17_5 1_555 1_555
O6 C17_5 1_555 1_555
C17_5 C18_5 1_555 1_555
C18_5 Fe1_7 1_555 1_555
C19_5 Fe1_7 1_555 1_555
H13_5 C19_5 1_555 1_555
C20_5 Fe1_7 1_555 1_555
H14_5 C20_5 1_555 1_555
C21_5 Fe1_7 1_555 1_555
H15_5 C21_5 1_555 1_555
C22_5 Fe1_7 1_555 1_555
H16_5 C22_5 1_555 1_555
Co8_2 N3_3 1_555 1_555
N14_3 Co5 1_555 1_555
C2_5 C5_5 1_555 1_555
C4_5 C5_5 1_555 1_555
C18_5 C19_5 1_555 1_555
C18_5 C22_5 1_555 1_555
C19_5 C20_5 1_555 1_555
C20_5 C21_5 1_555 1_555
C21_5 C22_5 1_555 1_555
Fe1_8 C7_5 1_555 1_555
O1_5 C6_5 1_555 1_555
O5 C6_5 1_555 1_555
C6_5 C7_5 1_555 1_555
C7_5 C8_5 1_555 1_555
C8_5 Fe1_8 1_555 1_555
H5_5 C8_5 1_555 1_555
C9_5 Fe1_8 1_555 1_555
H6_5 C9_5 1_555 1_555
C10_5 Fe1_8 1_555 1_555
H7_5 C10_5 1_555 1_555
C11_5 Fe1_8 1_555 1_555
H8_5 C11_5 1_555 1_555
H11_5 N10_5 1_555 1_555
H12_5 N10_5 1_555 1_555
C7_5 C11_5 1_555 1_555
C8_5 C9_5 1_555 1_555
C9_5 C10_5 1_555 1_555
C10_5 C11_5 1_555 1_555
N6_5 Co7 1_555 1_555
C12_5 N6_5 1_555 1_555
H9_5 C12_5 1_555 1_555
N11_4 C12_5 1_555 1_555
C13_5 N11_4 1_555 1_555
N8_3 C13_5 1_555 1_555
C14_5 N8_3 1_555 1_555
H10_5 C14_5 1_555 1_555
N9_5 C14_5 1_555 1_555
C15_5 N9_5 1_555 1_555
C16_5 N6_5 1_555 1_555
Co6_2 N8_3 1_555 1_555
C13_5 C16_5 1_555 1_555
C15_5 C16_5 1_555 1_555
N6_6 Co7_2 1_555 1_555
C12_6 N6_6 1_555 1_555
H9_6 C12_6 1_555 1_555
N11_3 C12_6 1_555 1_555
C13_6 N11_3 1_555 1_555
N8_4 C13_6 1_555 1_555
C14_6 N8_4 1_555 1_555
H10_6 C14_6 1_555 1_555
N9_6 C14_6 1_555 1_555
C15_6 N9_6 1_555 1_555
C16_6 N6_6 1_555 1_555
Co6 N8_4 1_555 1_555
C13_6 C16_6 1_555 1_555
C15_6 C16_6 1_555 1_555
Co5_2 O1_6 1_555 1_555
Fe1_9 C7_6 1_555 1_555
O1_6 C6_6 1_555 1_555
N1_6 Co5_2 1_555 1_555
C1_6 N1_6 1_555 1_555
H1_6 C1_6 1_555 1_555
O5_2 C6_6 1_555 1_555
N12_3 C1_6 1_555 1_555
C2_6 N12_3 1_555 1_555
N3_4 C2_6 1_555 1_555
C3_6 N3_4 1_555 1_555
H2_6 C3_6 1_555 1_555
N4_6 C3_6 1_555 1_555
C4_6 N4_6 1_555 1_555
N5_6 C4_6 1_555 1_555
H3_6 N5_6 1_555 1_555
H4_6 N5_6 1_555 1_555
C5_6 N1_6 1_555 1_555
C6_6 C7_6 1_555 1_555
C7_6 C8_6 1_555 1_555
C8_6 Fe1_9 1_555 1_555
H5_6 C8_6 1_555 1_555
C9_6 Fe1_9 1_555 1_555
H6_6 C9_6 1_555 1_555
C10_6 Fe1_9 1_555 1_555
H7_6 C10_6 1_555 1_555
C11_6 Fe1_9 1_555 1_555
H8_6 C11_6 1_555 1_555
O3_6 C17_6 1_555 1_555
O6_2 C17_6 1_555 1_555
H11_6 N10_6 1_555 1_555
H12_6 N10_6 1_555 1_555
C17_6 C18_6 1_555 1_555
C18_6 Fe1_9 1_555 1_555
C19_6 Fe1_9 1_555 1_555
H13_6 C19_6 1_555 1_555
C20_6 Fe1_9 1_555 1_555
H14_6 C20_6 1_555 1_555
C21_6 Fe1_9 1_555 1_555
H15_6 C21_6 1_555 1_555
C22_6 Fe1_9 1_555 1_555
H16_6 C22_6 1_555 1_555
Co8 N3_4 1_555 1_555
N14_4 Co5_2 1_555 1_555
C2_6 C5_6 1_555 1_555
C4_6 C5_6 1_555 1_555
C7_6 C11_6 1_555 1_555
C8_6 C9_6 1_555 1_555
C9_6 C10_6 1_555 1_555
C10_6 C11_6 1_555 1_555
C18_6 C19_6 1_555 1_555
C18_6 C22_6 1_555 1_555
C19_6 C20_6 1_555 1_555
C20_6 C21_6 1_555 1_555
C21_6 C22_6 1_555 1_555
C9_7 Fe1_10 1_555 1_555
H6_7 C9_7 1_555 1_555
C10_7 Fe1_10 1_555 1_555
H7_7 C10_7 1_555 1_555
Co8_2 O3_7 1_555 1_555
O3_7 C17_7 1_555 1_555
N6_7 Co8_2 1_555 1_555
C12_7 N6_7 1_555 1_555
H9_7 C12_7 1_555 1_555
O5_4 C17_7 1_555 1_555
N12_2 C12_7 1_555 1_555
C13_7 N12_2 1_555 1_555
N10_7 C15_7 1_555 1_555
H12_7 N10_7 1_555 1_555
C16_7 N6_7 1_555 1_555
C17_7 C18_7 1_555 1_555
C18_7 Fe1_10 1_555 1_555
C19_7 Fe1_10 1_555 1_555
H13_7 C19_7 1_555 1_555
C22_7 Fe1_10 1_555 1_555
H16_7 C22_7 1_555 1_555
C9_7 C10_7 1_555 1_555
C13_7 C16_7 1_555 1_555
C15_7 C16_7 1_555 1_555
C18_7 C19_7 1_555 1_555
C18_7 C22_7 1_555 1_555
C14_7 N14_4 1_555 1_555
H10_7 C14_7 1_555 1_555
N9_7 C14_7 1_555 1_555
Co6_2 O1_7 1_555 1_555
Fe1_11 C7_7 1_555 1_555
O1_7 C6_7 1_555 1_555
N1_7 Co6_2 1_555 1_555
C1_7 N1_7 1_555 1_555
H1_7 C1_7 1_555 1_555
O6_4 C6_7 1_555 1_555
N11_2 C1_7 1_555 1_555
C2_7 N11_2 1_555 1_555
N5_7 C4_7 1_555 1_555
H4_7 N5_7 1_555 1_555
C5_7 N1_7 1_555 1_555
C6_7 C7_7 1_555 1_555
C7_7 C8_7 1_555 1_555
C8_7 Fe1_11 1_555 1_555
H5_7 C8_7 1_555 1_555
C11_7 Fe1_11 1_555 1_555
H8_7 C11_7 1_555 1_555
C20_7 Fe1_11 1_555 1_555
H14_7 C20_7 1_555 1_555
C21_7 Fe1_11 1_555 1_555
H15_7 C21_7 1_555 1_555
C2_7 C5_7 1_555 1_555
C4_7 C5_7 1_555 1_555
C7_7 C11_7 1_555 1_555
C20_7 C21_7 1_555 1_555
C3_7 N13_4 1_555 1_555
H2_7 C3_7 1_555 1_555
N4_7 C3_7 1_555 1_555
Co6 O1_8 1_555 1_555
Fe1_12 C7_8 1_555 1_555
O1_8 C6_8 1_555 1_555
N1_8 Co6 1_555 1_555
C1_8 N1_8 1_555 1_555
H1_8 C1_8 1_555 1_555
O6_3 C6_8 1_555 1_555
N11 C1_8 1_555 1_555
C2_8 N11 1_555 1_555
N13_3 C2_8 1_555 1_555
C3_8 N13_3 1_555 1_555
H2_8 C3_8 1_555 1_555
N4_8 C3_8 1_555 1_555
C4_8 N4_8 1_555 1_555
N5_8 C4_8 1_555 1_555
H3_8 N5_8 1_555 1_555
H4_8 N5_8 1_555 1_555
C5_8 N1_8 1_555 1_555
C6_8 C7_8 1_555 1_555
C7_8 C8_8 1_555 1_555
C8_8 Fe1_12 1_555 1_555
H5_8 C8_8 1_555 1_555
C9_8 Fe1_12 1_555 1_555
H6_8 C9_8 1_555 1_555
C10_8 Fe1_12 1_555 1_555
H7_8 C10_8 1_555 1_555
C11_8 Fe1_12 1_555 1_555
H8_8 C11_8 1_555 1_555
Co8 O3_8 1_555 1_555
O3_8 C17_8 1_555 1_555
N6_8 Co8 1_555 1_555
C12_8 N6_8 1_555 1_555
H9_8 C12_8 1_555 1_555
O5_3 C17_8 1_555 1_555
N12 C12_8 1_555 1_555
C13_8 N12 1_555 1_555
N14_3 C13_8 1_555 1_555
C14_8 N14_3 1_555 1_555
H10_8 C14_8 1_555 1_555
N9_8 C14_8 1_555 1_555
C15_8 N9_8 1_555 1_555
N10_8 C15_8 1_555 1_555
H11_8 N10_8 1_555 1_555
H12_8 N10_8 1_555 1_555
C16_8 N6_8 1_555 1_555
C17_8 C18_8 1_555 1_555
C18_8 Fe1_12 1_555 1_555
C19_8 Fe1_12 1_555 1_555
H13_8 C19_8 1_555 1_555
C20_8 Fe1_12 1_555 1_555
H14_8 C20_8 1_555 1_555
C21_8 Fe1_12 1_555 1_555
H15_8 C21_8 1_555 1_555
C22_8 Fe1_12 1_555 1_555
H16_8 C22_8 1_555 1_555
C2_8 C5_8 1_555 1_555
C4_8 C5_8 1_555 1_555
C7_8 C11_8 1_555 1_555
C8_8 C9_8 1_555 1_555
C9_8 C10_8 1_555 1_555
C10_8 C11_8 1_555 1_555
C13_8 C16_8 1_555 1_555
C15_8 C16_8 1_555 1_555
C18_8 C19_8 1_555 1_555
C18_8 C22_8 1_555 1_555
C19_8 C20_8 1_555 1_555
C20_8 C21_8 1_555 1_555
C21_8 C22_8 1_555 1_555

#END
