
###############################################################################
#
# This file contains modified crystal structure data generated from the
# MOF subset of the Cambridge Structural Database (CSD) v543 
# hosted by the Cambridge Crystallographic Data Centre (CCDC).
#
# This work is licensed under the Creative Commons
# Attribution-NonCommercial-ShareAlike 4.0 International License.
# To view a copy of this license, visit
# http://creativecommons.org/licenses/by-nc-sa/4.0/
# or send a letter to
# Creative Commons, PO Box 1866, Mountain View, CA 94042, USA.
#
# CIF created using the CSD Python API on 29 September 2022
# The structure has been converted into the P1 space group
# The structure has a 3D framework
# The original CSD entry FAYPOM is in the monoclinic crystal system
# The framework has been calculated to contain at least 10.0% void space
# The void calculation uses a probe of radius 1.32A, grid spacing 0.4
#
###############################################################################

data_FAYPOM
_chemical_formula_moiety         '(C294 H224 N76 O64 Zn22)n'
_symmetry_cell_setting           triclinic
_symmetry_space_group_name_H-M   'P 1'
_symmetry_Int_Tables_number      1
_space_group_name_Hall           'P 1'
loop_
_symmetry_equiv_pos_site_id
_symmetry_equiv_pos_as_xyz
1 x,y,z
_cell_length_a                   20.287(5)
_cell_length_b                   36.392(9)
_cell_length_c                   20.049(5)
_cell_angle_alpha                90
_cell_angle_beta                 116.793(4)
_cell_angle_gamma                90
_cell_volume                     13212.8
loop_
_atom_site_label
_atom_site_type_symbol
_atom_site_fract_x
_atom_site_fract_y
_atom_site_fract_z
H4 H 0.1685 0.0117 0.5641
C7 C 0.0346(4) 0.07564(16) 0.2808(3)
C12 C 0.0719(6) 0.10769(18) 0.3185(5)
H6 H 0.1164 0.1077 0.3620
C21 C 0.0339(7) 0.1395(2) 0.2828(5)
H14 H 0.0546 0.1620 0.3034
N6 N 0.0538(3) 0.03885(11) 0.2972(2)
N7 N 0.0000 0.01787(15) 0.2500
Zn4 Zn 0.14485(4) 0.01491(2) 0.38033(4)
O13 O 0.2412(3) 0.04243(16) 0.4214(4)
O21 O 0.1715(4) 0.05679(18) 0.4659(3)
Zn1 Zn 0.0000 0.95824(2) 0.2500
C1 C 0.0623(6) 0.9572(3) 0.6036(5)
H1 H 0.0535 0.9512 0.6440
N1 N 0.0376(2) 0.95943(11) 0.3711(2)
C2 C 0.0904(4) 0.9774(2) 0.4878(3)
C3 C 0.0360(4) 0.9516(2) 0.4778(3)
C6 C 0.1324(4) 0.9942(2) 0.5562(3)
N4 N 0.0047(3) 0.94096(13) 0.4047(2)
C8 C 0.0218(5) 0.9410(2) 0.5374(3)
C14 C 0.1139(6) 0.9814(3) 0.6131(4)
H8 H 0.1405 0.9911 0.6608
N5 N 0.0909(3) 0.98211(12) 0.4189(2)
N9 N 0.0000 0.89823(19) 0.2500
Zn6 Zn 0.06680(5) 0.90026(2) 0.14996(4)
N12 N 0.1675(2) 0.97805(13) 0.3156(2)
O11 O 0.1128(3) 0.87172(13) 0.0956(3)
N13 N 0.1135(2) 0.95688(11) 0.2657(2)
O15 O 0.0036(4) 0.8619(2) 0.4434(5)
C46 C 0.2296(3) 0.9681(2) 0.3118(3)
C53 C 0.2116(4) 0.9396(2) 0.2592(4)
C54 C 0.3009(5) 0.9789(3) 0.3525(6)
H38 H 0.3134 0.9963 0.3903
C55 C 0.2625(5) 0.9230(3) 0.2428(5)
H39 H 0.2495 0.9046 0.2069
C56 C 0.3537(6) 0.9636(4) 0.3365(7)
H40 H 0.4022 0.9719 0.3608
C57 C 0.3338(6) 0.9346(4) 0.2816(7)
H41 H 0.3704 0.9236 0.2726
N17 N 0.1397(3) 0.93391(12) 0.2320(2)
N18 N 0.0277(3) 0.87780(18) 0.2126(3)
C70 C 0.0178(7) 0.8437(4) 0.2291(7)
C71 C 0.0402(11) 0.8098(5) 0.1957(10)
H52 H 0.0598 0.8097 0.1618
C72 C 0.0217(12) 0.7760(5) 0.2327(13)
H53 H 0.0429 0.7537 0.2305
Zn2 Zn 0.85515(4) 0.01491(2) 0.11967(4)
O2 O 0.7588(3) 0.04243(16) 0.0786(4)
C23 C 0.7696(5) 0.0606(2) 0.0354(4)
N7_2 N 1.0000 0.01787(15) 0.2500
O7 O 0.8285(4) 0.05679(18) 0.0341(3)
H23 H 0.6404 0.0763 0.0183
H27 H 0.5421 0.1078 0.0353
Zn8 Zn 0.56680(5) 0.40026(2) 0.14996(4)
H30 H 0.6621 0.3322 0.0189
O9 O 0.6128(3) 0.37172(13) 0.0956(3)
C44 C 0.9654(4) 0.07564(16) 0.2192(3)
O14 O 0.4964(4) 0.3619(2) 0.0566(5)
C49 C 0.9281(6) 0.10769(18) 0.1815(5)
H34 H 0.8836 0.1077 0.1380
C58 C 0.9661(7) 0.1395(2) 0.2172(5)
H42 H 0.9454 0.1620 0.1966
H44 H 0.7588 0.2957 0.0193
N16 N 0.9462(3) 0.03885(11) 0.2028(2)
C66 C 0.5546(7) 0.3558(2) 0.0533(4)
C4 C 0.3817(5) 0.31973(17) 0.5096(4)
H2 H 0.3379 0.3322 0.4811
C5 C 0.7280(3) 0.10763(14) 0.9330(3)
H3 H 0.7731 0.1053 0.9319
O1 O 0.3872(3) 0.37172(13) 0.4044(3)
O3 O 0.5036(4) 0.3619(2) 0.4434(5)
C10 C 0.4442(5) 0.32670(17) 0.5007(4)
C11 C 0.3853(4) 0.29397(18) 0.5615(4)
O4 O 0.3272(3) 0.28455(17) 0.5760(4)
C13 C 0.5087(4) 0.30895(19) 0.5423(4)
H7 H 0.5504 0.3139 0.5358
C15 C 0.5114(4) 0.28327(18) 0.5945(4)
H9 H 0.5558 0.2714 0.6237
C22 C 0.2573(6) 0.3012(3) 0.5326(7)
H15 H 0.2221 0.2918 0.5480
H16 H 0.2412 0.2957 0.4807
H17 H 0.2615 0.3273 0.5398
C24 C 0.5145(3) 0.22909(13) 0.6952(3)
H18 H 0.5562 0.2453 0.7218
H19 H 0.5252 0.2137 0.6618
C25 C 0.4508(4) 0.27479(14) 0.6043(3)
C26 C 0.6759(3) 0.13171(14) 0.8854(3)
H20 H 0.6862 0.1456 0.8523
C27 C 0.5000 0.20555(15) 0.7500
O5 O 0.5549(2) 0.15932(10) 0.84225(19)
O6 O 0.4486(2) 0.25009(10) 0.6539(2)
C28 C 0.5685(3) 0.18201(12) 0.7913(2)
H21 H 0.5774 0.1669 0.7563
H22 H 0.6115 0.1974 0.8183
C29 C 0.6098(3) 0.13557(14) 0.8860(3)
C30 C 0.4454(7) 0.3558(2) 0.4467(4)
C31 C 0.7139(3) 0.08715(17) 0.9817(3)
O8 O 0.5266(4) 0.12022(18) 0.9305(4)
C32 C 0.6497(4) 0.0903(2) 0.9845(4)
C33 C 0.5958(4) 0.1151(2) 0.9354(4)
C37 C 0.5085(8) 0.1003(4) 0.9855(8)
H26 H 0.4589 0.1059 0.9760
H28 H 0.5131 0.0743 0.9804
Zn7 Zn 0.43320(5) 0.40026(2) 0.35004(4)
C41 C 0.6183(5) 0.31973(17) 0.9904(4)
C42 C 0.2720(3) 0.10763(14) 0.5670(3)
H31 H 0.2269 0.1053 0.5681
H32 H 0.8315 0.0117 0.9359
C47 C 0.5558(5) 0.32670(17) 0.9993(4)
C48 C 0.6147(4) 0.29397(18) 0.9385(4)
O17 O 0.6728(3) 0.28455(17) 0.9240(4)
C50 C 0.4913(4) 0.30895(19) 0.9577(4)
H35 H 0.4496 0.3139 0.9642
C52 C 0.4886(4) 0.28327(18) 0.9055(4)
H37 H 0.4442 0.2714 0.8763
C59 C 0.7427(6) 0.3012(3) 0.9674(7)
H43 H 0.7779 0.2918 0.9520
H45 H 0.7385 0.3273 0.9602
C60 C 0.2304(5) 0.0606(2) 0.4646(4)
C61 C 0.4855(3) 0.22909(13) 0.8048(3)
H46 H 0.4438 0.2453 0.7782
H47 H 0.4748 0.2137 0.8382
C62 C 0.5492(4) 0.27479(14) 0.8957(3)
C63 C 0.3241(3) 0.13171(14) 0.6146(3)
H48 H 0.3138 0.1456 0.6477
O18 O 0.4451(2) 0.15932(10) 0.65775(19)
O19 O 0.5514(2) 0.25009(10) 0.8461(2)
C64 C 0.4315(3) 0.18201(12) 0.7087(2)
H49 H 0.4226 0.1669 0.7437
H50 H 0.3885 0.1974 0.6817
C65 C 0.3902(3) 0.13557(14) 0.6140(3)
C67 C 0.2861(3) 0.08715(17) 0.5183(3)
O22 O 0.4734(4) 0.12022(18) 0.5695(4)
C68 C 0.3503(4) 0.0903(2) 0.5155(4)
H51 H 0.3596 0.0763 0.4817
C69 C 0.4042(4) 0.1151(2) 0.5646(4)
C73 C 0.4915(8) 0.1003(4) 0.5145(8)
H54 H 0.5411 0.1059 0.5240
H55 H 0.4579 0.1078 0.4647
H56 H 0.4869 0.0743 0.5196
Zn1_2 Zn 1.0000 0.95824(2) 0.2500
Zn3 Zn 0.93320(5) 0.90026(2) 0.35004(4)
N2 N 0.8325(2) 0.97805(13) 0.1844(2)
N3 N 0.8865(2) 0.95688(11) 0.2343(2)
H5 H 0.9861 0.9235 0.5313
C9 C 0.7704(3) 0.9681(2) 0.1882(3)
C16 C 0.7884(4) 0.9396(2) 0.2408(4)
C17 C 0.6991(5) 0.9789(3) 0.1475(6)
H10 H 0.6866 0.9963 0.1097
C18 C 0.7375(5) 0.9230(3) 0.2572(5)
H11 H 0.7505 0.9046 0.2931
C19 C 0.6463(6) 0.9636(4) 0.1635(7)
H12 H 0.5978 0.9719 0.1392
C20 C 0.6662(6) 0.9346(4) 0.2184(7)
H13 H 0.6296 0.9236 0.2274
N8 N 0.8603(3) 0.93391(12) 0.2680(2)
N9_2 N 1.0000 0.89823(19) 0.2500
N10 N 0.9723(3) 0.87780(18) 0.2874(3)
C34 C 0.9822(7) 0.8437(4) 0.2709(7)
C35 C 0.9598(11) 0.8098(5) 0.3043(10)
H24 H 0.9402 0.8097 0.3382
C36 C 0.9783(12) 0.7760(5) 0.2673(13)
H25 H 0.9571 0.7537 0.2695
N11 N 0.9624(2) 0.95943(11) 0.1289(2)
C39 C 0.9096(4) 0.9774(2) 0.0122(3)
C40 C 0.9640(4) 0.9516(2) 0.0222(3)
O10 O 0.8872(3) 0.87172(13) 0.4044(3)
N14 N 0.9953(3) 0.94096(13) 0.0953(2)
O16 O 0.9964(4) 0.8619(2) 0.0566(5)
N15 N 0.9091(3) 0.98211(12) 0.0811(2)
Zn1_3 Zn 0.5000 0.45824(2) 0.2500
Zn2_2 Zn 0.35515(4) 0.51491(2) 0.11967(4)
C1_2 C 0.5623(6) 0.4572(3) 0.6036(5)
H1_2 H 0.5535 0.4512 0.6440
N1_2 N 0.5376(2) 0.45943(11) 0.3711(2)
C2_2 C 0.5904(4) 0.4774(2) 0.4878(3)
C3_2 C 0.5360(4) 0.4516(2) 0.4778(3)
N2_2 N 0.3325(2) 0.47805(13) 0.1844(2)
C6_2 C 0.6324(4) 0.4942(2) 0.5562(3)
H4_2 H 0.6685 0.5117 0.5641
O2_2 O 0.2588(3) 0.54243(16) 0.0786(4)
C7_2 C 0.5346(4) 0.57564(16) 0.2808(3)
N3_2 N 0.3865(2) 0.45688(11) 0.2343(2)
N4_2 N 0.5047(3) 0.44096(13) 0.4047(2)
C8_2 C 0.5218(5) 0.4410(2) 0.5374(3)
H5_2 H 0.4861 0.4235 0.5313
C9_2 C 0.2704(3) 0.4681(2) 0.1882(3)
C12_2 C 0.5719(6) 0.60769(18) 0.3185(5)
H6_2 H 0.6164 0.6077 0.3620
C14_2 C 0.6139(6) 0.4814(3) 0.6131(4)
H8_2 H 0.6405 0.4911 0.6608
C16_2 C 0.2884(4) 0.4396(2) 0.2408(4)
C17_2 C 0.1991(5) 0.4789(3) 0.1475(6)
H10_2 H 0.1866 0.4963 0.1097
C18_2 C 0.2375(5) 0.4230(3) 0.2572(5)
H11_2 H 0.2505 0.4046 0.2931
C19_2 C 0.1463(6) 0.4636(4) 0.1635(7)
H12_2 H 0.0978 0.4719 0.1392
C20_2 C 0.1662(6) 0.4346(4) 0.2184(7)
H13_2 H 0.1296 0.4236 0.2274
C21_2 C 0.5339(7) 0.6395(2) 0.2828(5)
H14_2 H 0.5546 0.6620 0.3034
C23_2 C 0.2696(5) 0.5606(2) 0.0354(4)
N5_2 N 0.5909(3) 0.48211(12) 0.4189(2)
N6_2 N 0.5538(3) 0.53885(11) 0.2972(2)
N7_3 N 0.5000 0.51787(15) 0.2500
N8_2 N 0.3603(3) 0.43391(12) 0.2680(2)
O7_2 O 0.3285(4) 0.55679(18) 0.0341(3)
N9_3 N 0.5000 0.39823(19) 0.2500
N10_2 N 0.4723(3) 0.37780(18) 0.2874(3)
H23_2 H 0.1404 0.5763 0.0183
C34_2 C 0.4822(7) 0.3437(4) 0.2709(7)
C35_2 C 0.4598(11) 0.3098(5) 0.3043(10)
H24_2 H 0.4402 0.3097 0.3382
C36_2 C 0.4783(12) 0.2760(5) 0.2673(13)
H25_2 H 0.4571 0.2537 0.2695
H27_2 H 0.0421 0.6078 0.0353
Zn4_2 Zn 0.64485(4) 0.51491(2) 0.38033(4)
N11_2 N 0.4624(2) 0.45943(11) 0.1289(2)
C39_2 C 0.4096(4) 0.4774(2) 0.0122(3)
C40_2 C 0.4640(4) 0.4516(2) 0.0222(3)
N12_2 N 0.6675(2) 0.47805(13) 0.3156(2)
H30_2 H 0.1621 0.8322 0.0189
O13_2 O 0.7412(3) 0.54243(16) 0.4214(4)
C44_2 C 0.4654(4) 0.57564(16) 0.2192(3)
N13_2 N 0.6135(2) 0.45688(11) 0.2657(2)
N14_2 N 0.4953(3) 0.44096(13) 0.0953(2)
C46_2 C 0.7296(3) 0.4681(2) 0.3118(3)
C49_2 C 0.4281(6) 0.60769(18) 0.1815(5)
H34_2 H 0.3836 0.6077 0.1380
C53_2 C 0.7116(4) 0.4396(2) 0.2592(4)
C54_2 C 0.8009(5) 0.4789(3) 0.3525(6)
H38_2 H 0.8134 0.4963 0.3903
C55_2 C 0.7625(5) 0.4230(3) 0.2428(5)
H39_2 H 0.7495 0.4046 0.2069
C56_2 C 0.8537(6) 0.4636(4) 0.3365(7)
H40_2 H 0.9022 0.4719 0.3608
C57_2 C 0.8338(6) 0.4346(4) 0.2816(7)
H41_2 H 0.8704 0.4236 0.2726
C58_2 C 0.4661(7) 0.6395(2) 0.2172(5)
H42_2 H 0.4454 0.6620 0.1966
H44_2 H 0.2588 0.7957 0.0193
N15_2 N 0.4091(3) 0.48211(12) 0.0811(2)
N16_2 N 0.4462(3) 0.53885(11) 0.2028(2)
C66_2 C 0.0546(7) 0.8558(2) 0.0533(4)
N17_2 N 0.6397(3) 0.43391(12) 0.2320(2)
O21_2 O 0.6715(4) 0.55679(18) 0.4659(3)
N18_2 N 0.5277(3) 0.37780(18) 0.2126(3)
C70_2 C 0.5178(7) 0.3437(4) 0.2291(7)
C71_2 C 0.5402(11) 0.3098(5) 0.1957(10)
H52_2 H 0.5598 0.3097 0.1618
C72_2 C 0.5217(12) 0.2760(5) 0.2327(13)
H53_2 H 0.5429 0.2537 0.2305
C5_2 C 0.2280(3) 0.60763(14) 0.9330(3)
H3_2 H 0.2731 0.6053 0.9319
C13_2 C 0.0087(4) 0.80895(19) 0.5423(4)
H7_2 H 0.0504 0.8139 0.5358
C15_2 C 0.0114(4) 0.78327(18) 0.5945(4)
H9_2 H 0.0558 0.7714 0.6237
C24_2 C 0.0145(3) 0.72909(13) 0.6952(3)
H18_2 H 0.0562 0.7453 0.7218
H19_2 H 0.0252 0.7137 0.6618
C26_2 C 0.1759(3) 0.63171(14) 0.8854(3)
H20_2 H 0.1862 0.6456 0.8523
C27_2 C 0.0000 0.70555(15) 0.7500
O5_2 O 0.0549(2) 0.65932(10) 0.84225(19)
C28_2 C 0.0685(3) 0.68201(12) 0.7913(2)
H21_2 H 0.0774 0.6669 0.7563
H22_2 H 0.1115 0.6974 0.8183
C29_2 C 0.1098(3) 0.63557(14) 0.8860(3)
C31_2 C 0.2139(3) 0.58715(17) 0.9817(3)
O8_2 O 0.0266(4) 0.62022(18) 0.9305(4)
C32_2 C 0.1497(4) 0.5903(2) 0.9845(4)
C33_2 C 0.0958(4) 0.6151(2) 0.9354(4)
C37_2 C 0.0085(8) 0.6003(4) 0.9855(8)
H28_2 H 0.0131 0.5743 0.9804
C38 C 0.4377(6) 0.4572(3) 0.8964(5)
H29 H 0.4465 0.4512 0.8560
C41_2 C 0.1183(5) 0.81973(17) 0.9904(4)
C43 C 0.3676(4) 0.4942(2) 0.9438(3)
H32_2 H 0.3315 0.5117 0.9359
C45 C 0.4782(5) 0.4410(2) 0.9626(3)
H33 H 0.5139 0.4235 0.9687
C47_2 C 0.0558(5) 0.82670(17) 0.9993(4)
C48_2 C 0.1147(4) 0.79397(18) 0.9385(4)
O17_2 O 0.1728(3) 0.78455(17) 0.9240(4)
C51 C 0.3861(6) 0.4814(3) 0.8869(4)
H36 H 0.3595 0.4911 0.8392
C59_2 C 0.2427(6) 0.8012(3) 0.9674(7)
H43_2 H 0.2779 0.7918 0.9520
H45_2 H 0.2385 0.8273 0.9602
C62_2 C 0.0492(4) 0.77479(14) 0.8957(3)
O19_2 O 0.0514(2) 0.75009(10) 0.8461(2)
H54_2 H 0.0411 0.6059 0.5240
C4_2 C 0.8817(5) 0.81973(17) 0.5096(4)
H2_2 H 0.8379 0.8322 0.4811
C10_2 C 0.9442(5) 0.82670(17) 0.5007(4)
C11_2 C 0.8853(4) 0.79397(18) 0.5615(4)
O4_2 O 0.8272(3) 0.78455(17) 0.5760(4)
C22_2 C 0.7573(6) 0.8012(3) 0.5326(7)
H15_2 H 0.7221 0.7918 0.5480
H16_2 H 0.7412 0.7957 0.4807
H17_2 H 0.7615 0.8273 0.5398
C25_2 C 0.9508(4) 0.77479(14) 0.6043(3)
C27_3 C 1.0000 0.70555(15) 0.7500
O6_2 O 0.9486(2) 0.75009(10) 0.6539(2)
C30_2 C 0.9454(7) 0.8558(2) 0.4467(4)
H26_2 H 0.9589 0.6059 0.9760
C42_2 C 0.7720(3) 0.60763(14) 0.5670(3)
H31_2 H 0.7269 0.6053 0.5681
C50_2 C 0.9913(4) 0.80895(19) 0.9577(4)
H35_2 H 0.9496 0.8139 0.9642
C52_2 C 0.9886(4) 0.78327(18) 0.9055(4)
H37_2 H 0.9442 0.7714 0.8763
C60_2 C 0.7304(5) 0.5606(2) 0.4646(4)
C61_2 C 0.9855(3) 0.72909(13) 0.8048(3)
H46_2 H 0.9438 0.7453 0.7782
H47_2 H 0.9748 0.7137 0.8382
C63_2 C 0.8241(3) 0.63171(14) 0.6146(3)
H48_2 H 0.8138 0.6456 0.6477
O18_2 O 0.9451(2) 0.65932(10) 0.65775(19)
C64_2 C 0.9315(3) 0.68201(12) 0.7087(2)
H49_2 H 0.9226 0.6669 0.7437
H50_2 H 0.8885 0.6974 0.6817
C65_2 C 0.8902(3) 0.63557(14) 0.6140(3)
C67_2 C 0.7861(3) 0.58715(17) 0.5183(3)
O22_2 O 0.9734(4) 0.62022(18) 0.5695(4)
C68_2 C 0.8503(4) 0.5903(2) 0.5155(4)
H51_2 H 0.8596 0.5763 0.4817
C69_2 C 0.9042(4) 0.6151(2) 0.5646(4)
C73_2 C 0.9915(8) 0.6003(4) 0.5145(8)
H55_2 H 0.9579 0.6078 0.4647
H56_2 H 0.9869 0.5743 0.5196
H33_2 H 0.0139 0.9235 0.9687
C38_2 C 0.9377(6) 0.9572(3) 0.8964(5)
H29_2 H 0.9465 0.9512 0.8560
C43_2 C 0.8676(4) 0.9942(2) 0.9438(3)
C45_2 C 0.9782(5) 0.9410(2) 0.9626(3)
C51_2 C 0.8861(6) 0.9814(3) 0.8869(4)
H36_2 H 0.8595 0.9911 0.8392
C38_3 C 0.0623(6) 0.0428(3) 0.1036(5)
H29_3 H 0.0535 0.0488 0.1440
C43_3 C 0.1324(4) 0.0058(2) 0.0562(3)
C45_3 C 0.0218(5) 0.0590(2) 0.0374(3)
C51_3 C 0.1139(6) 0.0186(3) 0.1131(4)
H36_3 H 0.1405 0.0089 0.1608
Zn1_4 Zn 0.0000 0.04176(2) 0.7500
Zn3_2 Zn 0.06680(5) 0.09974(2) 0.64996(4)
N2_3 N 0.1675(2) 0.02195(13) 0.8156(2)
N3_3 N 0.1135(2) 0.04312(11) 0.7657(2)
H5_3 H 0.0139 0.0765 0.4687
C9_3 C 0.2296(3) 0.0319(2) 0.8118(3)
C16_3 C 0.2116(4) 0.0604(2) 0.7592(4)
C17_3 C 0.3009(5) 0.0211(3) 0.8525(6)
H10_3 H 0.3134 0.0037 0.8903
C18_3 C 0.2625(5) 0.0770(3) 0.7428(5)
H11_3 H 0.2495 0.0954 0.7069
C19_3 C 0.3537(6) 0.0364(4) 0.8365(7)
H12_3 H 0.4022 0.0281 0.8608
C20_3 C 0.3338(6) 0.0654(4) 0.7816(7)
H13_3 H 0.3704 0.0764 0.7726
N8_3 N 0.1397(3) 0.06609(12) 0.7320(2)
N9_4 N 0.0000 0.10177(19) 0.7500
N10_3 N 0.0277(3) 0.12220(18) 0.7126(3)
C34_3 C 0.0178(7) 0.1563(4) 0.7291(7)
C35_3 C 0.0402(11) 0.1902(5) 0.6957(10)
H24_3 H 0.0598 0.1903 0.6618
C36_3 C 0.0217(12) 0.2240(5) 0.7327(13)
H25_3 H 0.0429 0.2463 0.7305
N11_3 N 0.0376(2) 0.04057(11) 0.8711(2)
C39_3 C 0.0904(4) 0.0226(2) 0.9878(3)
C40_3 C 0.0360(4) 0.0484(2) 0.9778(3)
O10_2 O 0.1128(3) 0.12828(13) 0.5956(3)
N14_3 N 0.0047(3) 0.05904(13) 0.9047(2)
O16_2 O 0.0036(4) 0.1381(2) 0.9434(5)
N15_3 N 0.0909(3) 0.01789(12) 0.9189(2)
C4_3 C 0.6183(5) 0.68027(17) 0.4904(4)
H2_3 H 0.6621 0.6678 0.5189
C5_3 C 0.2720(3) 0.89237(14) 0.0670(3)
H3_3 H 0.2269 0.8947 0.0681
O1_2 O 0.6128(3) 0.62828(13) 0.5956(3)
O3_2 O 0.4964(4) 0.6381(2) 0.5566(5)
C10_3 C 0.5558(5) 0.67330(17) 0.4993(4)
C11_3 C 0.6147(4) 0.70603(18) 0.4385(4)
O4_3 O 0.6728(3) 0.71545(17) 0.4240(4)
C13_3 C 0.4913(4) 0.69105(19) 0.4577(4)
H7_3 H 0.4496 0.6861 0.4642
C15_3 C 0.4886(4) 0.71673(18) 0.4055(4)
H9_3 H 0.4442 0.7286 0.3763
C22_3 C 0.7427(6) 0.6988(3) 0.4674(7)
H15_3 H 0.7779 0.7082 0.4520
H16_3 H 0.7588 0.7043 0.5193
H17_3 H 0.7385 0.6727 0.4602
C24_3 C 0.4855(3) 0.77091(13) 0.3048(3)
H18_3 H 0.4438 0.7547 0.2782
H19_3 H 0.4748 0.7863 0.3382
C25_3 C 0.5492(4) 0.72521(14) 0.3957(3)
C26_3 C 0.3241(3) 0.86829(14) 0.1146(3)
H20_3 H 0.3138 0.8544 0.1477
C27_4 C 0.5000 0.79445(15) 0.2500
O5_3 O 0.4451(2) 0.84068(10) 0.15775(19)
O6_3 O 0.5514(2) 0.74991(10) 0.3461(2)
C28_3 C 0.4315(3) 0.81799(12) 0.2087(2)
H21_3 H 0.4226 0.8331 0.2437
H22_3 H 0.3885 0.8026 0.1817
C29_3 C 0.3902(3) 0.86443(14) 0.1140(3)
C30_3 C 0.5546(7) 0.6442(2) 0.5533(4)
C31_3 C 0.2861(3) 0.91285(17) 0.0183(3)
O8_3 O 0.4734(4) 0.87978(18) 0.0695(4)
C32_3 C 0.3503(4) 0.9097(2) 0.0155(4)
C33_3 C 0.4042(4) 0.8849(2) 0.0646(4)
C37_3 C 0.4915(8) 0.8997(4) 0.0145(8)
H26_3 H 0.5411 0.8941 0.0240
H28_3 H 0.4869 0.9257 0.0196
Zn5 Zn 0.85515(4) 0.98509(2) 0.61967(4)
Zn7_2 Zn 0.56680(5) 0.59974(2) 0.64996(4)
C41_3 C 0.3817(5) 0.68027(17) 0.0096(4)
C42_3 C 0.7280(3) 0.89237(14) 0.4330(3)
H31_3 H 0.7731 0.8947 0.4319
H32_3 H 0.1685 0.9883 0.0641
O12 O 0.7588(3) 0.95757(16) 0.5786(4)
C47_3 C 0.4442(5) 0.67330(17) 0.0007(4)
C48_3 C 0.3853(4) 0.70603(18) 0.0615(4)
O17_3 O 0.3272(3) 0.71545(17) 0.0760(4)
C50_3 C 0.5087(4) 0.69105(19) 0.0423(4)
H35_3 H 0.5504 0.6861 0.0358
C52_3 C 0.5114(4) 0.71673(18) 0.0945(4)
H37_3 H 0.5558 0.7286 0.1237
C59_3 C 0.2573(6) 0.6988(3) 0.0326(7)
H43_3 H 0.2221 0.7082 0.0480
H45_3 H 0.2615 0.6727 0.0398
C60_3 C 0.7696(5) 0.9394(2) 0.5354(4)
C61_3 C 0.5145(3) 0.77091(13) 0.1952(3)
H46_3 H 0.5562 0.7547 0.2218
H47_3 H 0.5252 0.7863 0.1618
C62_3 C 0.4508(4) 0.72521(14) 0.1043(3)
C63_3 C 0.6759(3) 0.86829(14) 0.3854(3)
H48_3 H 0.6862 0.8544 0.3523
O18_3 O 0.5549(2) 0.84068(10) 0.34225(19)
O19_3 O 0.4486(2) 0.74991(10) 0.1539(2)
C64_3 C 0.5685(3) 0.81799(12) 0.2913(2)
H49_3 H 0.5774 0.8331 0.2563
H50_3 H 0.6115 0.8026 0.3183
C65_3 C 0.6098(3) 0.86443(14) 0.3860(3)
O20 O 0.8285(4) 0.94321(18) 0.5341(3)
C67_3 C 0.7139(3) 0.91285(17) 0.4817(3)
O22_3 O 0.5266(4) 0.87978(18) 0.4305(4)
C68_3 C 0.6497(4) 0.9097(2) 0.4845(4)
H51_3 H 0.6404 0.9237 0.5183
C69_3 C 0.5958(4) 0.8849(2) 0.4354(4)
C73_3 C 0.5085(8) 0.8997(4) 0.4855(8)
H54_3 H 0.4589 0.8941 0.4760
H55_3 H 0.5421 0.8922 0.5353
H56_3 H 0.5131 0.9257 0.4804
Zn2_3 Zn 0.14485(4) 0.98509(2) 0.88033(4)
O2_3 O 0.2412(3) 0.95757(16) 0.9214(4)
C23_3 C 0.2304(5) 0.9394(2) 0.9646(4)
N7_4 N 0.0000 0.98213(15) 0.7500
O7_3 O 0.1715(4) 0.94321(18) 0.9659(3)
H23_3 H 0.3596 0.9237 0.9817
H27_3 H 0.4579 0.8922 0.9647
Zn8_2 Zn 0.43320(5) 0.59974(2) 0.85004(4)
H30_3 H 0.3379 0.6678 0.9811
O9_2 O 0.3872(3) 0.62828(13) 0.9044(3)
C44_3 C 0.0346(4) 0.92436(16) 0.7808(3)
O14_2 O 0.5036(4) 0.6381(2) 0.9434(5)
C49_3 C 0.0719(6) 0.89231(18) 0.8185(5)
H34_3 H 0.1164 0.8923 0.8620
C58_3 C 0.0339(7) 0.8605(2) 0.7828(5)
H42_3 H 0.0546 0.8380 0.8034
H44_3 H 0.2412 0.7043 0.9807
N16_3 N 0.0538(3) 0.96115(11) 0.7972(2)
C66_3 C 0.4454(7) 0.6442(2) 0.9467(4)
Zn1_5 Zn 1.0000 0.04176(2) 0.7500
C1_3 C 0.9377(6) 0.0428(3) 0.3964(5)
H1_3 H 0.9465 0.0488 0.3560
N1_3 N 0.9624(2) 0.04057(11) 0.6289(2)
C2_3 C 0.9096(4) 0.0226(2) 0.5122(3)
C3_3 C 0.9640(4) 0.0484(2) 0.5222(3)
C6_3 C 0.8676(4) 0.0058(2) 0.4438(3)
N4_3 N 0.9953(3) 0.05904(13) 0.5953(2)
C8_3 C 0.9782(5) 0.0590(2) 0.4626(3)
C14_3 C 0.8861(6) 0.0186(3) 0.3869(4)
H8_3 H 0.8595 0.0089 0.3392
N5_3 N 0.9091(3) 0.01789(12) 0.5811(2)
N9_5 N 1.0000 0.10177(19) 0.7500
Zn6_2 Zn 0.93320(5) 0.09974(2) 0.85004(4)
N12_3 N 0.8325(2) 0.02195(13) 0.6844(2)
O11_2 O 0.8872(3) 0.12828(13) 0.9044(3)
N13_3 N 0.8865(2) 0.04312(11) 0.7343(2)
O15_2 O 0.9964(4) 0.1381(2) 0.5566(5)
C46_3 C 0.7704(3) 0.0319(2) 0.6882(3)
C53_3 C 0.7884(4) 0.0604(2) 0.7408(4)
C54_3 C 0.6991(5) 0.0211(3) 0.6475(6)
H38_3 H 0.6866 0.0037 0.6097
C55_3 C 0.7375(5) 0.0770(3) 0.7572(5)
H39_3 H 0.7505 0.0954 0.7931
C56_3 C 0.6463(6) 0.0364(4) 0.6635(7)
H40_3 H 0.5978 0.0281 0.6392
C57_3 C 0.6662(6) 0.0654(4) 0.7184(7)
H41_3 H 0.6296 0.0764 0.7274
N17_3 N 0.8603(3) 0.06609(12) 0.7680(2)
N18_3 N 0.9723(3) 0.12220(18) 0.7874(3)
C70_3 C 0.9822(7) 0.1563(4) 0.7709(7)
C71_3 C 0.9598(11) 0.1902(5) 0.8043(10)
H52_3 H 0.9402 0.1903 0.8382
C72_3 C 0.9783(12) 0.2240(5) 0.7673(13)
H53_3 H 0.9571 0.2463 0.7695
H4_3 H 0.8315 0.9883 0.4359
C7_3 C 0.9654(4) 0.92436(16) 0.7192(3)
C12_3 C 0.9281(6) 0.89231(18) 0.6815(5)
H6_3 H 0.8836 0.8923 0.6380
C21_3 C 0.9661(7) 0.8605(2) 0.7172(5)
H14_3 H 0.9454 0.8380 0.6966
N6_3 N 0.9462(3) 0.96115(11) 0.7028(2)
N7_5 N 1.0000 0.98213(15) 0.7500
C4_4 C 0.1183(5) 0.18027(17) 0.4904(4)
H2_4 H 0.1621 0.1678 0.5189
C10_4 C 0.0558(5) 0.17330(17) 0.4993(4)
C11_4 C 0.1147(4) 0.20603(18) 0.4385(4)
O4_4 O 0.1728(3) 0.21545(17) 0.4240(4)
C22_4 C 0.2427(6) 0.1988(3) 0.4674(7)
H15_4 H 0.2779 0.2082 0.4520
H16_4 H 0.2588 0.2043 0.5193
H17_4 H 0.2385 0.1727 0.4602
C25_4 C 0.0492(4) 0.22521(14) 0.3957(3)
C27_5 C 0.0000 0.29445(15) 0.2500
O6_4 O 0.0514(2) 0.24991(10) 0.3461(2)
C30_4 C 0.0546(7) 0.1442(2) 0.5533(4)
H26_4 H 0.0411 0.3941 0.0240
Zn5_2 Zn 0.35515(4) 0.48509(2) 0.61967(4)
C42_4 C 0.2280(3) 0.39237(14) 0.4330(3)
H31_4 H 0.2731 0.3947 0.4319
O12_2 O 0.2588(3) 0.45757(16) 0.5786(4)
C50_4 C 0.0087(4) 0.19105(19) 0.0423(4)
H35_4 H 0.0504 0.1861 0.0358
C52_4 C 0.0114(4) 0.21673(18) 0.0945(4)
H37_4 H 0.0558 0.2286 0.1237
C60_4 C 0.2696(5) 0.4394(2) 0.5354(4)
C61_4 C 0.0145(3) 0.27091(13) 0.1952(3)
H46_4 H 0.0562 0.2547 0.2218
H47_4 H 0.0252 0.2863 0.1618
C63_4 C 0.1759(3) 0.36829(14) 0.3854(3)
H48_4 H 0.1862 0.3544 0.3523
O18_4 O 0.0549(2) 0.34068(10) 0.34225(19)
C64_4 C 0.0685(3) 0.31799(12) 0.2913(2)
H49_4 H 0.0774 0.3331 0.2563
H50_4 H 0.1115 0.3026 0.3183
C65_4 C 0.1098(3) 0.36443(14) 0.3860(3)
O20_2 O 0.3285(4) 0.44321(18) 0.5341(3)
C67_4 C 0.2139(3) 0.41285(17) 0.4817(3)
O22_4 O 0.0266(4) 0.37978(18) 0.4305(4)
C68_4 C 0.1497(4) 0.4097(2) 0.4845(4)
H51_4 H 0.1404 0.4237 0.5183
C69_4 C 0.0958(4) 0.3849(2) 0.4354(4)
C73_4 C 0.0085(8) 0.3997(4) 0.4855(8)
H55_4 H 0.0421 0.3922 0.5353
H56_4 H 0.0131 0.4257 0.4804
C5_4 C 0.7720(3) 0.39237(14) 0.0670(3)
H3_4 H 0.7269 0.3947 0.0681
C13_4 C 0.9913(4) 0.19105(19) 0.4577(4)
H7_4 H 0.9496 0.1861 0.4642
C15_4 C 0.9886(4) 0.21673(18) 0.4055(4)
H9_4 H 0.9442 0.2286 0.3763
C24_4 C 0.9855(3) 0.27091(13) 0.3048(3)
H18_4 H 0.9438 0.2547 0.2782
H19_4 H 0.9748 0.2863 0.3382
C26_4 C 0.8241(3) 0.36829(14) 0.1146(3)
H20_4 H 0.8138 0.3544 0.1477
C27_6 C 1.0000 0.29445(15) 0.2500
O5_4 O 0.9451(2) 0.34068(10) 0.15775(19)
C28_4 C 0.9315(3) 0.31799(12) 0.2087(2)
H21_4 H 0.9226 0.3331 0.2437
H22_4 H 0.8885 0.3026 0.1817
C29_4 C 0.8902(3) 0.36443(14) 0.1140(3)
C31_4 C 0.7861(3) 0.41285(17) 0.0183(3)
O8_4 O 0.9734(4) 0.37978(18) 0.0695(4)
C32_4 C 0.8503(4) 0.4097(2) 0.0155(4)
C33_4 C 0.9042(4) 0.3849(2) 0.0646(4)
C37_4 C 0.9915(8) 0.3997(4) 0.0145(8)
H28_4 H 0.9869 0.4257 0.0196
C38_4 C 0.5623(6) 0.5428(3) 0.1036(5)
H29_4 H 0.5535 0.5488 0.1440
C41_4 C 0.8817(5) 0.18027(17) 0.0096(4)
C43_4 C 0.6324(4) 0.5058(2) 0.0562(3)
H32_4 H 0.6685 0.4883 0.0641
C45_4 C 0.5218(5) 0.5590(2) 0.0374(3)
H33_3 H 0.4861 0.5765 0.0313
C47_4 C 0.9442(5) 0.17330(17) 0.0007(4)
C48_4 C 0.8853(4) 0.20603(18) 0.0615(4)
O17_4 O 0.8272(3) 0.21545(17) 0.0760(4)
C51_4 C 0.6139(6) 0.5186(3) 0.1131(4)
H36_4 H 0.6405 0.5089 0.1608
C59_4 C 0.7573(6) 0.1988(3) 0.0326(7)
H43_4 H 0.7221 0.2082 0.0480
H45_4 H 0.7615 0.1727 0.0398
C62_4 C 0.9508(4) 0.22521(14) 0.1043(3)
O19_4 O 0.9486(2) 0.24991(10) 0.1539(2)
H54_4 H 0.9589 0.3941 0.4760
Zn1_6 Zn 0.5000 0.54176(2) 0.7500
Zn2_4 Zn 0.64485(4) 0.48509(2) 0.88033(4)
C1_4 C 0.4377(6) 0.5428(3) 0.3964(5)
H1_4 H 0.4465 0.5488 0.3560
N1_4 N 0.4624(2) 0.54057(11) 0.6289(2)
C2_4 C 0.4096(4) 0.5226(2) 0.5122(3)
C3_4 C 0.4640(4) 0.5484(2) 0.5222(3)
N2_4 N 0.6675(2) 0.52195(13) 0.8156(2)
C6_4 C 0.3676(4) 0.5058(2) 0.4438(3)
H4_4 H 0.3315 0.4883 0.4359
O2_4 O 0.7412(3) 0.45757(16) 0.9214(4)
C7_4 C 0.4654(4) 0.42436(16) 0.7192(3)
N3_4 N 0.6135(2) 0.54312(11) 0.7657(2)
N4_4 N 0.4953(3) 0.55904(13) 0.5953(2)
C8_4 C 0.4782(5) 0.5590(2) 0.4626(3)
H5_4 H 0.5139 0.5765 0.4687
C9_4 C 0.7296(3) 0.5319(2) 0.8118(3)
C12_4 C 0.4281(6) 0.39231(18) 0.6815(5)
H6_4 H 0.3836 0.3923 0.6380
C14_4 C 0.3861(6) 0.5186(3) 0.3869(4)
H8_4 H 0.3595 0.5089 0.3392
C16_4 C 0.7116(4) 0.5604(2) 0.7592(4)
C17_4 C 0.8009(5) 0.5211(3) 0.8525(6)
H10_4 H 0.8134 0.5037 0.8903
C18_4 C 0.7625(5) 0.5770(3) 0.7428(5)
H11_4 H 0.7495 0.5954 0.7069
C19_4 C 0.8537(6) 0.5364(4) 0.8365(7)
H12_4 H 0.9022 0.5281 0.8608
C20_4 C 0.8338(6) 0.5654(4) 0.7816(7)
H13_4 H 0.8704 0.5764 0.7726
C21_4 C 0.4661(7) 0.3605(2) 0.7172(5)
H14_4 H 0.4454 0.3380 0.6966
C23_4 C 0.7304(5) 0.4394(2) 0.9646(4)
N5_4 N 0.4091(3) 0.51789(12) 0.5811(2)
N6_4 N 0.4462(3) 0.46115(11) 0.7028(2)
N7_6 N 0.5000 0.48213(15) 0.7500
N8_4 N 0.6397(3) 0.56609(12) 0.7320(2)
O7_4 O 0.6715(4) 0.44321(18) 0.9659(3)
N9_6 N 0.5000 0.60177(19) 0.7500
N10_4 N 0.5277(3) 0.62220(18) 0.7126(3)
H23_4 H 0.8596 0.4237 0.9817
C34_4 C 0.5178(7) 0.6563(4) 0.7291(7)
C35_4 C 0.5402(11) 0.6902(5) 0.6957(10)
H24_4 H 0.5598 0.6903 0.6618
C36_4 C 0.5217(12) 0.7240(5) 0.7327(13)
H25_4 H 0.5429 0.7463 0.7305
H27_4 H 0.9579 0.3922 0.9647
N11_4 N 0.5376(2) 0.54057(11) 0.8711(2)
C39_4 C 0.5904(4) 0.5226(2) 0.9878(3)
C40_4 C 0.5360(4) 0.5484(2) 0.9778(3)
N12_4 N 0.3325(2) 0.52195(13) 0.6844(2)
H30_4 H 0.8379 0.1678 0.9811
C44_4 C 0.5346(4) 0.42436(16) 0.7808(3)
N13_4 N 0.3865(2) 0.54312(11) 0.7343(2)
N14_4 N 0.5047(3) 0.55904(13) 0.9047(2)
C46_4 C 0.2704(3) 0.5319(2) 0.6882(3)
C49_4 C 0.5719(6) 0.39231(18) 0.8185(5)
H34_4 H 0.6164 0.3923 0.8620
C53_4 C 0.2884(4) 0.5604(2) 0.7408(4)
C54_4 C 0.1991(5) 0.5211(3) 0.6475(6)
H38_4 H 0.1866 0.5037 0.6097
C55_4 C 0.2375(5) 0.5770(3) 0.7572(5)
H39_4 H 0.2505 0.5954 0.7931
C56_4 C 0.1463(6) 0.5364(4) 0.6635(7)
H40_4 H 0.0978 0.5281 0.6392
C57_4 C 0.1662(6) 0.5654(4) 0.7184(7)
H41_4 H 0.1296 0.5764 0.7274
C58_4 C 0.5339(7) 0.3605(2) 0.7828(5)
H42_4 H 0.5546 0.3380 0.8034
H44_4 H 0.7412 0.2043 0.9807
N15_4 N 0.5909(3) 0.51789(12) 0.9189(2)
N16_4 N 0.5538(3) 0.46115(11) 0.7972(2)
C66_4 C 0.9454(7) 0.1442(2) 0.9467(4)
N17_4 N 0.3603(3) 0.56609(12) 0.7680(2)
N18_4 N 0.4723(3) 0.62220(18) 0.7874(3)
C70_4 C 0.4822(7) 0.6563(4) 0.7709(7)
C71_4 C 0.4598(11) 0.6902(5) 0.8043(10)
H52_4 H 0.4402 0.6903 0.8382
C72_4 C 0.4783(12) 0.7240(5) 0.7673(13)
H53_4 H 0.4571 0.7463 0.7695
H33_4 H 0.9861 0.0765 0.0313
loop_
_geom_bond_atom_site_label_1
_geom_bond_atom_site_label_2
_geom_bond_site_symmetry_1
_geom_bond_site_symmetry_2
C7 C12 1_555 1_555
C12 H6 1_555 1_555
C21 C12 1_555 1_555
H14 C21 1_555 1_555
N6 C7 1_555 1_555
O13 Zn4 1_555 1_555
O21 Zn4 1_555 1_555
N6 N7 1_555 1_555
N6 Zn4 1_555 1_555
Zn1 N1 1_555 1_555
C1 H1 1_555 1_555
N1 N4 1_555 1_555
C2 C3 1_555 1_555
C3 N4 1_555 1_555
C6 C2 1_555 1_555
C8 C1 1_555 1_555
C14 C1 1_555 1_555
H8 C14 1_555 1_555
N5 N1 1_555 1_555
N9 Zn1 1_555 1_555
Zn6 O11 1_555 1_555
N13 Zn1 1_555 1_555
C46 N12 1_555 1_555
C53 C46 1_555 1_555
C54 C46 1_555 1_555
H38 C54 1_555 1_555
C55 C53 1_555 1_555
H39 C55 1_555 1_555
C56 C54 1_555 1_555
H40 C56 1_555 1_555
C57 C55 1_555 1_555
H41 C57 1_555 1_555
N17 Zn6 1_555 1_555
N18 N9 1_555 1_555
C71 C70 1_555 1_555
H52 C71 1_555 1_555
H53 C72 1_555 1_555
C2 N5 1_555 1_555
C3 C8 1_555 1_555
C6 C14 1_555 1_555
Zn6 N18 1_555 1_555
N12 N13 1_555 1_555
N13 N17 1_555 1_555
C53 N17 1_555 1_555
C56 C57 1_555 1_555
N18 C70 1_555 1_555
C71 C72 1_555 1_555
O2 Zn2 1_555 1_555
C23 O2 1_555 1_555
O7 Zn2 1_555 1_555
Zn8 O9 1_555 1_555
O9 C66 1_555 1_555
O14 Zn8 1_555 1_555
C49 C44 1_555 1_555
H34 C49 1_555 1_555
H42 C58 1_555 1_555
N16 Zn2 1_555 1_555
C66 O14 1_555 1_555
C23 O7 1_555 1_555
N7_2 N16 1_555 1_555
C44 N16 1_555 1_555
C49 C58 1_555 1_555
C4 H2 1_555 1_555
C5 H3 1_555 1_555
O1 C30 1_555 1_555
O3 C30 1_555 1_555
C10 C4 1_555 1_555
C11 C4 1_555 1_555
O4 C11 1_555 1_555
C13 C10 1_555 1_555
H7 C13 1_555 1_555
C15 C13 1_555 1_555
H9 C15 1_555 1_555
C22 O4 1_555 1_555
H15 C22 1_555 1_555
H16 C22 1_555 1_555
H17 C22 1_555 1_555
C24 H18 1_555 1_555
H19 C24 1_555 1_555
C25 C11 1_555 1_555
C26 C5 1_555 1_555
H20 C26 1_555 1_555
C27 C24 1_555 1_555
O5 C28 1_555 1_555
O6 C24 1_555 1_555
C28 C27 1_555 1_555
H21 C28 1_555 1_555
H22 C28 1_555 1_555
C29 C26 1_555 1_555
C30 C10 1_555 1_555
C31 C5 1_555 1_555
O8 C33 1_555 1_555
C32 C31 1_555 1_555
C33 C29 1_555 1_555
C37 O8 1_555 1_555
H26 C37 1_555 1_555
H28 C37 1_555 1_555
Zn7 O1 1_555 1_555
C42 H31 1_555 1_555
O13 C60 1_555 1_555
C47 C41 1_555 1_555
C48 C41 1_555 1_555
O17 C48 1_555 1_555
C50 C47 1_555 1_555
H35 C50 1_555 1_555
C52 C50 1_555 1_555
H37 C52 1_555 1_555
C59 O17 1_555 1_555
H43 C59 1_555 1_555
H45 C59 1_555 1_555
C60 O21 1_555 1_555
C61 C27 1_555 1_555
H46 C61 1_555 1_555
H47 C61 1_555 1_555
C62 C48 1_555 1_555
C63 C42 1_555 1_555
H48 C63 1_555 1_555
O18 C64 1_555 1_555
O19 C61 1_555 1_555
C64 C27 1_555 1_555
H49 C64 1_555 1_555
H50 C64 1_555 1_555
C65 C63 1_555 1_555
C67 C42 1_555 1_555
O22 C69 1_555 1_555
C68 C67 1_555 1_555
H51 C68 1_555 1_555
C69 C65 1_555 1_555
C73 O22 1_555 1_555
H54 C73 1_555 1_555
H55 C73 1_555 1_555
H56 C73 1_555 1_555
O3 Zn7 1_555 1_555
C15 C25 1_555 1_555
C25 O6 1_555 1_555
O5 C29 1_555 1_555
C32 C33 1_555 1_555
C52 C62 1_555 1_555
C60 C67 1_555 1_555
C62 O19 1_555 1_555
O18 C65 1_555 1_555
C68 C69 1_555 1_555
N2 N3 1_555 1_555
N3 Zn1_2 1_555 1_555
C9 N2 1_555 1_555
C16 C9 1_555 1_555
C17 C9 1_555 1_555
H10 C17 1_555 1_555
C18 C16 1_555 1_555
H11 C18 1_555 1_555
C19 C17 1_555 1_555
H12 C19 1_555 1_555
C20 C18 1_555 1_555
H13 C20 1_555 1_555
N8 Zn3 1_555 1_555
N9_2 Zn1_2 1_555 1_555
N10 Zn3 1_555 1_555
C34 N10 1_555 1_555
C35 C34 1_555 1_555
H24 C35 1_555 1_555
C36 C35 1_555 1_555
H25 C36 1_555 1_555
N11 Zn1_2 1_555 1_555
C39 C40 1_555 1_555
C40 N14 1_555 1_555
O10 Zn3 1_555 1_555
N3 N8 1_555 1_555
C16 N8 1_555 1_555
C19 C20 1_555 1_555
N9_2 N10 1_555 1_555
N11 N14 1_555 1_555
N11 N15 1_555 1_555
C39 N15 1_555 1_555
Zn1_3 N1_2 1_555 1_555
Zn2_2 N2_2 1_555 1_555
Zn7 N4_2 1_555 1_555
C1_2 H1_2 1_555 1_555
N1_2 N4_2 1_555 1_555
C2_2 C3_2 1_555 1_555
C3_2 N4_2 1_555 1_555
N2_2 N3_2 1_555 1_555
C6_2 C2_2 1_555 1_555
H4_2 C6_2 1_555 1_555
O2_2 Zn2_2 1_555 1_555
C7_2 C12_2 1_555 1_555
N3_2 Zn1_3 1_555 1_555
C8_2 C1_2 1_555 1_555
H5_2 C8_2 1_555 1_555
C9_2 N2_2 1_555 1_555
C12_2 H6_2 1_555 1_555
C14_2 C1_2 1_555 1_555
H8_2 C14_2 1_555 1_555
C16_2 C9_2 1_555 1_555
C17_2 C9_2 1_555 1_555
H10_2 C17_2 1_555 1_555
C18_2 C16_2 1_555 1_555
H11_2 C18_2 1_555 1_555
C19_2 C17_2 1_555 1_555
H12_2 C19_2 1_555 1_555
C20_2 C18_2 1_555 1_555
H13_2 C20_2 1_555 1_555
C21_2 C12_2 1_555 1_555
H14_2 C21_2 1_555 1_555
C23_2 O2_2 1_555 1_555
N5_2 N1_2 1_555 1_555
N6_2 C7_2 1_555 1_555
N7_3 Zn1_3 1_555 1_555
N8_2 Zn7 1_555 1_555
O7_2 Zn2_2 1_555 1_555
N9_3 Zn1_3 1_555 1_555
N10_2 Zn7 1_555 1_555
C34_2 N10_2 1_555 1_555
C35_2 C34_2 1_555 1_555
H24_2 C35_2 1_555 1_555
C36_2 C35_2 1_555 1_555
H25_2 C36_2 1_555 1_555
Zn4_2 N5_2 1_555 1_555
N11_2 Zn1_3 1_555 1_555
C39_2 C40_2 1_555 1_555
C40_2 N14_2 1_555 1_555
N12_2 Zn4_2 1_555 1_555
O11 C66_2 1_555 1_555
O13_2 Zn4_2 1_555 1_555
C44_2 C7_2 1_555 1_555
N13_2 Zn1_3 1_555 1_555
N14_2 Zn8 1_555 1_555
C46_2 N12_2 1_555 1_555
C49_2 C44_2 1_555 1_555
H34_2 C49_2 1_555 1_555
C53_2 C46_2 1_555 1_555
C54_2 C46_2 1_555 1_555
H38_2 C54_2 1_555 1_555
C55_2 C53_2 1_555 1_555
H39_2 C55_2 1_555 1_555
C56_2 C54_2 1_555 1_555
H40_2 C56_2 1_555 1_555
C57_2 C55_2 1_555 1_555
H41_2 C57_2 1_555 1_555
C58_2 C21_2 1_555 1_555
H42_2 C58_2 1_555 1_555
N15_2 Zn2_2 1_555 1_555
N16_2 Zn2_2 1_555 1_555
N17_2 Zn8 1_555 1_555
O21_2 Zn4_2 1_555 1_555
N18_2 N9_3 1_555 1_555
C70_2 C34_2 1_555 1_555
C71_2 C70_2 1_555 1_555
H52_2 C71_2 1_555 1_555
C72_2 C36_2 1_555 1_555
H53_2 C72_2 1_555 1_555
C2_2 N5_2 1_555 1_555
C3_2 C8_2 1_555 1_555
C6_2 C14_2 1_555 1_555
N3_2 N8_2 1_555 1_555
C16_2 N8_2 1_555 1_555
C19_2 C20_2 1_555 1_555
C23_2 O7_2 1_555 1_555
N6_2 N7_3 1_555 1_555
N6_2 Zn4_2 1_555 1_555
N7_3 N16_2 1_555 1_555
N9_3 N10_2 1_555 1_555
Zn8 N18_2 1_555 1_555
N11_2 N14_2 1_555 1_555
N11_2 N15_2 1_555 1_555
C39_2 N15_2 1_555 1_555
N12_2 N13_2 1_555 1_555
C44_2 N16_2 1_555 1_555
N13_2 N17_2 1_555 1_555
C49_2 C58_2 1_555 1_555
C53_2 N17_2 1_555 1_555
C56_2 C57_2 1_555 1_555
N18_2 C70_2 1_555 1_555
C71_2 C72_2 1_555 1_555
C5_2 H3_2 1_555 1_555
H7_2 C13_2 1_555 1_555
C15_2 C13_2 1_555 1_555
H9_2 C15_2 1_555 1_555
C24_2 H18_2 1_555 1_555
H19_2 C24_2 1_555 1_555
C26_2 C5_2 1_555 1_555
H20_2 C26_2 1_555 1_555
C27_2 C24_2 1_555 1_555
O5_2 C28_2 1_555 1_555
C28_2 C27_2 1_555 1_555
H21_2 C28_2 1_555 1_555
H22_2 C28_2 1_555 1_555
C29_2 C26_2 1_555 1_555
C31_2 C5_2 1_555 1_555
O8_2 C33_2 1_555 1_555
C32_2 C31_2 1_555 1_555
C33_2 C29_2 1_555 1_555
C37_2 O8_2 1_555 1_555
H28_2 C37_2 1_555 1_555
C38 H29 1_555 1_555
H32_2 C43 1_555 1_555
C45 C38 1_555 1_555
H33 C45 1_555 1_555
C47_2 C41_2 1_555 1_555
C48_2 C41_2 1_555 1_555
O17_2 C48_2 1_555 1_555
C51 C38 1_555 1_555
H36 C51 1_555 1_555
C59_2 O17_2 1_555 1_555
H43_2 C59_2 1_555 1_555
H45_2 C59_2 1_555 1_555
C62_2 C48_2 1_555 1_555
O5_2 C29_2 1_555 1_555
C32_2 C33_2 1_555 1_555
C43 C51 1_555 1_555
C62_2 O19_2 1_555 1_555
C4_2 H2_2 1_555 1_555
O10 C30_2 1_555 1_555
C10_2 C4_2 1_555 1_555
C11_2 C4_2 1_555 1_555
O4_2 C11_2 1_555 1_555
C22_2 O4_2 1_555 1_555
H15_2 C22_2 1_555 1_555
H16_2 C22_2 1_555 1_555
H17_2 C22_2 1_555 1_555
C25_2 C11_2 1_555 1_555
C30_2 C10_2 1_555 1_555
C42_2 H31_2 1_555 1_555
O13_2 C60_2 1_555 1_555
H35_2 C50_2 1_555 1_555
C52_2 C50_2 1_555 1_555
H37_2 C52_2 1_555 1_555
C60_2 O21_2 1_555 1_555
C61_2 C27_3 1_555 1_555
H46_2 C61_2 1_555 1_555
H47_2 C61_2 1_555 1_555
C63_2 C42_2 1_555 1_555
H48_2 C63_2 1_555 1_555
O18_2 C64_2 1_555 1_555
C64_2 C27_3 1_555 1_555
H49_2 C64_2 1_555 1_555
H50_2 C64_2 1_555 1_555
C65_2 C63_2 1_555 1_555
C67_2 C42_2 1_555 1_555
O22_2 C69_2 1_555 1_555
C68_2 C67_2 1_555 1_555
H51_2 C68_2 1_555 1_555
C69_2 C65_2 1_555 1_555
C73_2 O22_2 1_555 1_555
H55_2 C73_2 1_555 1_555
H56_2 C73_2 1_555 1_555
C25_2 O6_2 1_555 1_555
C60_2 C67_2 1_555 1_555
O18_2 C65_2 1_555 1_555
C68_2 C69_2 1_555 1_555
C38_2 H29_2 1_555 1_555
C45_2 C38_2 1_555 1_555
C51_2 C38_2 1_555 1_555
H36_2 C51_2 1_555 1_555
C43_2 C51_2 1_555 1_555
C38_3 H29_3 1_555 1_555
C45_3 C38_3 1_555 1_555
C51_3 C38_3 1_555 1_555
H36_3 C51_3 1_555 1_555
C43_3 C51_3 1_555 1_555
N2_3 N3_3 1_555 1_555
N3_3 Zn1_4 1_555 1_555
C9_3 N2_3 1_555 1_555
C16_3 C9_3 1_555 1_555
C17_3 C9_3 1_555 1_555
H10_3 C17_3 1_555 1_555
C18_3 C16_3 1_555 1_555
H11_3 C18_3 1_555 1_555
C19_3 C17_3 1_555 1_555
H12_3 C19_3 1_555 1_555
C20_3 C18_3 1_555 1_555
H13_3 C20_3 1_555 1_555
N8_3 Zn3_2 1_555 1_555
N9_4 Zn1_4 1_555 1_555
N10_3 Zn3_2 1_555 1_555
C34_3 N10_3 1_555 1_555
C35_3 C34_3 1_555 1_555
H24_3 C35_3 1_555 1_555
C36_3 C35_3 1_555 1_555
H25_3 C36_3 1_555 1_555
N11_3 Zn1_4 1_555 1_555
C39_3 C40_3 1_555 1_555
C40_3 N14_3 1_555 1_555
O10_2 Zn3_2 1_555 1_555
N3_3 N8_3 1_555 1_555
C16_3 N8_3 1_555 1_555
C19_3 C20_3 1_555 1_555
N9_4 N10_3 1_555 1_555
N11_3 N14_3 1_555 1_555
N11_3 N15_3 1_555 1_555
C39_3 N15_3 1_555 1_555
C4_3 H2_3 1_555 1_555
C5_3 H3_3 1_555 1_555
O1_2 C30_3 1_555 1_555
O3_2 C30_3 1_555 1_555
C10_3 C4_3 1_555 1_555
C11_3 C4_3 1_555 1_555
O4_3 C11_3 1_555 1_555
C13_3 C10_3 1_555 1_555
H7_3 C13_3 1_555 1_555
C15_3 C13_3 1_555 1_555
H9_3 C15_3 1_555 1_555
C22_3 O4_3 1_555 1_555
H15_3 C22_3 1_555 1_555
H16_3 C22_3 1_555 1_555
H17_3 C22_3 1_555 1_555
C24_3 H18_3 1_555 1_555
H19_3 C24_3 1_555 1_555
C25_3 C11_3 1_555 1_555
C26_3 C5_3 1_555 1_555
H20_3 C26_3 1_555 1_555
C27_4 C24_3 1_555 1_555
O5_3 C28_3 1_555 1_555
O6_3 C24_3 1_555 1_555
C28_3 C27_4 1_555 1_555
H21_3 C28_3 1_555 1_555
H22_3 C28_3 1_555 1_555
C29_3 C26_3 1_555 1_555
C30_3 C10_3 1_555 1_555
C31_3 C5_3 1_555 1_555
O8_3 C33_3 1_555 1_555
C32_3 C31_3 1_555 1_555
C33_3 C29_3 1_555 1_555
C37_3 O8_3 1_555 1_555
H26_3 C37_3 1_555 1_555
H28_3 C37_3 1_555 1_555
Zn5 O12 1_555 1_555
Zn7_2 O1_2 1_555 1_555
C42_3 H31_3 1_555 1_555
O12 C60_3 1_555 1_555
C47_3 C41_3 1_555 1_555
C48_3 C41_3 1_555 1_555
O17_3 C48_3 1_555 1_555
C50_3 C47_3 1_555 1_555
H35_3 C50_3 1_555 1_555
C52_3 C50_3 1_555 1_555
H37_3 C52_3 1_555 1_555
C59_3 O17_3 1_555 1_555
H43_3 C59_3 1_555 1_555
H45_3 C59_3 1_555 1_555
C60_3 O20 1_555 1_555
C61_3 C27_4 1_555 1_555
H46_3 C61_3 1_555 1_555
H47_3 C61_3 1_555 1_555
C62_3 C48_3 1_555 1_555
C63_3 C42_3 1_555 1_555
H48_3 C63_3 1_555 1_555
O18_3 C64_3 1_555 1_555
O19_3 C61_3 1_555 1_555
C64_3 C27_4 1_555 1_555
H49_3 C64_3 1_555 1_555
H50_3 C64_3 1_555 1_555
C65_3 C63_3 1_555 1_555
O20 Zn5 1_555 1_555
C67_3 C42_3 1_555 1_555
O22_3 C69_3 1_555 1_555
C68_3 C67_3 1_555 1_555
H51_3 C68_3 1_555 1_555
C69_3 C65_3 1_555 1_555
C73_3 O22_3 1_555 1_555
H54_3 C73_3 1_555 1_555
H55_3 C73_3 1_555 1_555
H56_3 C73_3 1_555 1_555
O3_2 Zn7_2 1_555 1_555
C15_3 C25_3 1_555 1_555
C25_3 O6_3 1_555 1_555
O5_3 C29_3 1_555 1_555
C32_3 C33_3 1_555 1_555
C52_3 C62_3 1_555 1_555
C60_3 C67_3 1_555 1_555
C62_3 O19_3 1_555 1_555
O18_3 C65_3 1_555 1_555
C68_3 C69_3 1_555 1_555
O2_3 Zn2_3 1_555 1_555
C23_3 O2_3 1_555 1_555
O7_3 Zn2_3 1_555 1_555
Zn8_2 O9_2 1_555 1_555
O9_2 C66_3 1_555 1_555
O14_2 Zn8_2 1_555 1_555
C49_3 C44_3 1_555 1_555
H34_3 C49_3 1_555 1_555
H42_3 C58_3 1_555 1_555
N16_3 Zn2_3 1_555 1_555
C66_3 O14_2 1_555 1_555
C23_3 O7_3 1_555 1_555
N7_4 N16_3 1_555 1_555
C44_3 N16_3 1_555 1_555
C49_3 C58_3 1_555 1_555
Zn1_5 N1_3 1_555 1_555
C1_3 H1_3 1_555 1_555
N1_3 N4_3 1_555 1_555
C2_3 C3_3 1_555 1_555
C3_3 N4_3 1_555 1_555
C6_3 C2_3 1_555 1_555
C8_3 C1_3 1_555 1_555
C14_3 C1_3 1_555 1_555
H8_3 C14_3 1_555 1_555
N5_3 N1_3 1_555 1_555
N9_5 Zn1_5 1_555 1_555
Zn6_2 O11_2 1_555 1_555
N13_3 Zn1_5 1_555 1_555
C46_3 N12_3 1_555 1_555
C53_3 C46_3 1_555 1_555
C54_3 C46_3 1_555 1_555
H38_3 C54_3 1_555 1_555
C55_3 C53_3 1_555 1_555
H39_3 C55_3 1_555 1_555
C56_3 C54_3 1_555 1_555
H40_3 C56_3 1_555 1_555
C57_3 C55_3 1_555 1_555
H41_3 C57_3 1_555 1_555
N17_3 Zn6_2 1_555 1_555
N18_3 N9_5 1_555 1_555
C71_3 C70_3 1_555 1_555
H52_3 C71_3 1_555 1_555
H53_3 C72_3 1_555 1_555
C2_3 N5_3 1_555 1_555
C3_3 C8_3 1_555 1_555
C6_3 C14_3 1_555 1_555
Zn6_2 N18_3 1_555 1_555
N12_3 N13_3 1_555 1_555
N13_3 N17_3 1_555 1_555
C53_3 N17_3 1_555 1_555
C56_3 C57_3 1_555 1_555
N18_3 C70_3 1_555 1_555
C71_3 C72_3 1_555 1_555
C7_3 C12_3 1_555 1_555
C12_3 H6_3 1_555 1_555
C21_3 C12_3 1_555 1_555
H14_3 C21_3 1_555 1_555
N6_3 C7_3 1_555 1_555
N6_3 N7_5 1_555 1_555
N6_3 Zn5 1_555 1_555
C4_4 H2_4 1_555 1_555
O10_2 C30_4 1_555 1_555
C10_4 C4_4 1_555 1_555
C11_4 C4_4 1_555 1_555
O4_4 C11_4 1_555 1_555
C22_4 O4_4 1_555 1_555
H15_4 C22_4 1_555 1_555
H16_4 C22_4 1_555 1_555
H17_4 C22_4 1_555 1_555
C25_4 C11_4 1_555 1_555
C30_4 C10_4 1_555 1_555
Zn5_2 O12_2 1_555 1_555
C42_4 H31_4 1_555 1_555
O12_2 C60_4 1_555 1_555
H35_4 C50_4 1_555 1_555
C52_4 C50_4 1_555 1_555
H37_4 C52_4 1_555 1_555
C60_4 O20_2 1_555 1_555
C61_4 C27_5 1_555 1_555
H46_4 C61_4 1_555 1_555
H47_4 C61_4 1_555 1_555
C63_4 C42_4 1_555 1_555
H48_4 C63_4 1_555 1_555
O18_4 C64_4 1_555 1_555
C64_4 C27_5 1_555 1_555
H49_4 C64_4 1_555 1_555
H50_4 C64_4 1_555 1_555
C65_4 C63_4 1_555 1_555
O20_2 Zn5_2 1_555 1_555
C67_4 C42_4 1_555 1_555
O22_4 C69_4 1_555 1_555
C68_4 C67_4 1_555 1_555
H51_4 C68_4 1_555 1_555
C69_4 C65_4 1_555 1_555
C73_4 O22_4 1_555 1_555
H55_4 C73_4 1_555 1_555
H56_4 C73_4 1_555 1_555
C25_4 O6_4 1_555 1_555
C60_4 C67_4 1_555 1_555
O18_4 C65_4 1_555 1_555
C68_4 C69_4 1_555 1_555
C5_4 H3_4 1_555 1_555
H7_4 C13_4 1_555 1_555
C15_4 C13_4 1_555 1_555
H9_4 C15_4 1_555 1_555
C24_4 H18_4 1_555 1_555
H19_4 C24_4 1_555 1_555
C26_4 C5_4 1_555 1_555
H20_4 C26_4 1_555 1_555
C27_6 C24_4 1_555 1_555
O5_4 C28_4 1_555 1_555
C28_4 C27_6 1_555 1_555
H21_4 C28_4 1_555 1_555
H22_4 C28_4 1_555 1_555
C29_4 C26_4 1_555 1_555
C31_4 C5_4 1_555 1_555
O8_4 C33_4 1_555 1_555
C32_4 C31_4 1_555 1_555
C33_4 C29_4 1_555 1_555
C37_4 O8_4 1_555 1_555
H28_4 C37_4 1_555 1_555
C38_4 H29_4 1_555 1_555
H32_4 C43_4 1_555 1_555
C45_4 C38_4 1_555 1_555
H33_3 C45_4 1_555 1_555
C47_4 C41_4 1_555 1_555
C48_4 C41_4 1_555 1_555
O17_4 C48_4 1_555 1_555
C51_4 C38_4 1_555 1_555
H36_4 C51_4 1_555 1_555
C59_4 O17_4 1_555 1_555
H43_4 C59_4 1_555 1_555
H45_4 C59_4 1_555 1_555
C62_4 C48_4 1_555 1_555
O5_4 C29_4 1_555 1_555
C32_4 C33_4 1_555 1_555
C43_4 C51_4 1_555 1_555
C62_4 O19_4 1_555 1_555
Zn1_6 N1_4 1_555 1_555
Zn2_4 N2_4 1_555 1_555
Zn7_2 N4_4 1_555 1_555
C1_4 H1_4 1_555 1_555
N1_4 N4_4 1_555 1_555
C2_4 C3_4 1_555 1_555
C3_4 N4_4 1_555 1_555
N2_4 N3_4 1_555 1_555
C6_4 C2_4 1_555 1_555
H4_4 C6_4 1_555 1_555
O2_4 Zn2_4 1_555 1_555
C7_4 C12_4 1_555 1_555
N3_4 Zn1_6 1_555 1_555
C8_4 C1_4 1_555 1_555
H5_4 C8_4 1_555 1_555
C9_4 N2_4 1_555 1_555
C12_4 H6_4 1_555 1_555
C14_4 C1_4 1_555 1_555
H8_4 C14_4 1_555 1_555
C16_4 C9_4 1_555 1_555
C17_4 C9_4 1_555 1_555
H10_4 C17_4 1_555 1_555
C18_4 C16_4 1_555 1_555
H11_4 C18_4 1_555 1_555
C19_4 C17_4 1_555 1_555
H12_4 C19_4 1_555 1_555
C20_4 C18_4 1_555 1_555
H13_4 C20_4 1_555 1_555
C21_4 C12_4 1_555 1_555
H14_4 C21_4 1_555 1_555
C23_4 O2_4 1_555 1_555
N5_4 N1_4 1_555 1_555
N6_4 C7_4 1_555 1_555
N7_6 Zn1_6 1_555 1_555
N8_4 Zn7_2 1_555 1_555
O7_4 Zn2_4 1_555 1_555
N9_6 Zn1_6 1_555 1_555
N10_4 Zn7_2 1_555 1_555
C34_4 N10_4 1_555 1_555
C35_4 C34_4 1_555 1_555
H24_4 C35_4 1_555 1_555
C36_4 C35_4 1_555 1_555
H25_4 C36_4 1_555 1_555
Zn5_2 N5_4 1_555 1_555
N11_4 Zn1_6 1_555 1_555
C39_4 C40_4 1_555 1_555
C40_4 N14_4 1_555 1_555
N12_4 Zn5_2 1_555 1_555
O11_2 C66_4 1_555 1_555
C44_4 C7_4 1_555 1_555
N13_4 Zn1_6 1_555 1_555
N14_4 Zn8_2 1_555 1_555
C46_4 N12_4 1_555 1_555
C49_4 C44_4 1_555 1_555
H34_4 C49_4 1_555 1_555
C53_4 C46_4 1_555 1_555
C54_4 C46_4 1_555 1_555
H38_4 C54_4 1_555 1_555
C55_4 C53_4 1_555 1_555
H39_4 C55_4 1_555 1_555
C56_4 C54_4 1_555 1_555
H40_4 C56_4 1_555 1_555
C57_4 C55_4 1_555 1_555
H41_4 C57_4 1_555 1_555
C58_4 C21_4 1_555 1_555
H42_4 C58_4 1_555 1_555
N15_4 Zn2_4 1_555 1_555
N16_4 Zn2_4 1_555 1_555
N17_4 Zn8_2 1_555 1_555
N18_4 N9_6 1_555 1_555
C70_4 C34_4 1_555 1_555
C71_4 C70_4 1_555 1_555
H52_4 C71_4 1_555 1_555
C72_4 C36_4 1_555 1_555
H53_4 C72_4 1_555 1_555
C2_4 N5_4 1_555 1_555
C3_4 C8_4 1_555 1_555
C6_4 C14_4 1_555 1_555
N3_4 N8_4 1_555 1_555
C16_4 N8_4 1_555 1_555
C19_4 C20_4 1_555 1_555
C23_4 O7_4 1_555 1_555
N6_4 N7_6 1_555 1_555
N6_4 Zn5_2 1_555 1_555
N7_6 N16_4 1_555 1_555
N9_6 N10_4 1_555 1_555
Zn8_2 N18_4 1_555 1_555
N11_4 N14_4 1_555 1_555
N11_4 N15_4 1_555 1_555
C39_4 N15_4 1_555 1_555
N12_4 N13_4 1_555 1_555
C44_4 N16_4 1_555 1_555
N13_4 N17_4 1_555 1_555
C49_4 C58_4 1_555 1_555
C53_4 N17_4 1_555 1_555
C56_4 C57_4 1_555 1_555
N18_4 C70_4 1_555 1_555
C71_4 C72_4 1_555 1_555

#END
