
###############################################################################
#
# This file contains modified crystal structure data generated from the
# MOF subset of the Cambridge Structural Database (CSD) v543 
# hosted by the Cambridge Crystallographic Data Centre (CCDC).
#
# This work is licensed under the Creative Commons
# Attribution-NonCommercial-ShareAlike 4.0 International License.
# To view a copy of this license, visit
# http://creativecommons.org/licenses/by-nc-sa/4.0/
# or send a letter to
# Creative Commons, PO Box 1866, Mountain View, CA 94042, USA.
#
# CIF created using the CSD Python API on 29 September 2022
# The structure has been converted into the P1 space group
# The structure has a 3D framework
# The original CSD entry FAYPIG is in the triclinic crystal system
# The framework has been calculated to contain at least 10.0% void space
# The void calculation uses a probe of radius 1.32A, grid spacing 0.4
#
###############################################################################

data_FAYPIG
_chemical_formula_moiety         '(C150 H120 N36 O24 Zn10)n'
_symmetry_cell_setting           triclinic
_symmetry_space_group_name_H-M   'P 1'
_symmetry_Int_Tables_number      1
_space_group_name_Hall           'P 1'
loop_
_symmetry_equiv_pos_site_id
_symmetry_equiv_pos_as_xyz
1 x,y,z
_cell_length_a                   19.562(4)
_cell_length_b                   20.850(2)
_cell_length_c                   23.5730(12)
_cell_angle_alpha                115.321(1)
_cell_angle_beta                 112.654(1)
_cell_angle_gamma                92.849(2)
_cell_volume                     7750.9
loop_
_atom_site_label
_atom_site_type_symbol
_atom_site_fract_x
_atom_site_fract_y
_atom_site_fract_z
C59 C 0.664(4) 0.087(4) 0.385(3)
C60 C 0.630(2) 0.0077(16) 0.3286(16)
O7 O 0.729(2) 0.1186(18) 0.3997(18)
O8 O 0.626(3) 0.119(2) 0.4124(18)
Zn8 Zn 0.7184(3) 0.2143(3) 0.4803(3)
C41 C 0.571(3) 0.627(2) 0.055(2)
H29 H 0.6233 0.6333 0.0865
H30 H 0.5453 0.5746 0.0279
C42 C 0.659(5) 0.532(4) 0.377(4)
C43 C 0.636(4) 0.561(3) 0.326(3)
C44 C 0.565(3) 0.555(3) 0.283(3)
H31 H 0.5251 0.5338 0.2866
C45 C 0.546(3) 0.578(3) 0.235(2)
H32 H 0.4947 0.5719 0.2051
C46 C 0.606(3) 0.611(3) 0.232(2)
C47 C 0.681(3) 0.624(3) 0.275(3)
H33 H 0.7206 0.6500 0.2751
C48 C 0.695(3) 0.594(3) 0.322(3)
H34 H 0.7450 0.5969 0.3501
C55 C 0.447(2) 0.666(2) 0.048(2)
H39 H 0.4191 0.6876 0.0748
H40 H 0.4494 0.6941 0.0242
C56 C 0.528(2) 0.670(2) 0.097(2)
C57 C 0.521(2) 0.635(2) 0.141(2)
H41 H 0.4939 0.6600 0.1673
H42 H 0.4928 0.5836 0.1105
C58 C 0.575(2) 0.749(2) 0.143(2)
H43 H 0.6263 0.7522 0.1750
H44 H 0.5799 0.7700 0.1145
C61 C 0.561(2) 0.969(2) 0.3153(17)
H45 H 0.5343 0.9925 0.3404
C62 C 0.5304(18) 0.896(2) 0.264(2)
H46 H 0.4840 0.8697 0.2554
C63 C 0.570(3) 0.8605(16) 0.2267(16)
C64 C 0.639(2) 0.899(3) 0.2400(19)
H47 H 0.6652 0.8758 0.2149
C65 C 0.6690(16) 0.973(2) 0.291(2)
H48 H 0.7154 0.9986 0.2999
O1 O 0.726(2) 0.539(2) 0.414(2)
O2 O 0.609(3) 0.500(3) 0.380(3)
O3 O 0.5977(15) 0.6417(16) 0.1877(14)
O9 O 0.5368(17) 0.7874(17) 0.1808(16)
O10 O 0.5691(17) 0.6539(16) 0.0094(15)
Zn6 Zn 0.7187(3) 0.4905(4) 0.4668(3)
C3 C 0.031(2) 0.296(2) 0.604(2)
H1 H 0.0737 0.3353 0.6353
C4 C 0.0398(18) 0.226(3) 0.571(2)
H2 H 0.0886 0.2183 0.5799
H5 H 0.0099 0.0834 0.5421
H6 H 0.0185 0.0821 0.4782
C10 C 0.010(3) 0.576(3) 0.859(3)
H7 H 0.0562 0.5744 0.8560
C11 C 0.010(3) 0.618(3) 0.923(3)
H8 H 0.0565 0.6450 0.9635
C34 C 0.659(4) 0.519(5) 0.804(5)
C35 C 0.640(3) 0.552(4) 0.860(3)
C36 C 0.649(3) 0.528(3) 0.907(4)
H25 H 0.6742 0.4908 0.9060
C37 C 0.623(3) 0.558(3) 0.956(2)
H26 H 0.6253 0.5397 0.9861
C38 C 0.593(3) 0.615(3) 0.960(2)
C39 C 0.584(3) 0.642(3) 0.917(3)
H27 H 0.5596 0.6793 0.9192
C40 C 0.612(3) 0.611(4) 0.865(3)
H28 H 0.6116 0.6317 0.8370
C49 C 0.1966(14) 0.5453(19) 0.8300(13)
C50 C 0.2319(19) 0.4904(13) 0.8347(15)
H35 H 0.2089 0.4418 0.7994
C51 C 0.3018(19) 0.5080(16) 0.8920(19)
H36 H 0.3255 0.4712 0.8951
C52 C 0.3363(14) 0.5806(19) 0.9447(14)
C53 C 0.3009(17) 0.6355(14) 0.9400(14)
H37 H 0.3240 0.6841 0.9752
C54 C 0.2310(17) 0.6179(16) 0.8826(17)
H38 H 0.2074 0.6547 0.8795
C70 C 0.044(2) 0.6159(19) 0.566(2)
C71 C 0.0337(19) 0.578(2) 0.5992(16)
H51 H 0.0762 0.5744 0.6326
C72 C 0.120(3) 0.654(3) 0.581(4)
H52 H 0.1597 0.6468 0.6159
H53 H 0.1240 0.7052 0.5977
H54 H 0.1264 0.6335 0.5386
C73 C 0.116(5) 0.517(5) 0.769(4)
O4 O 0.0910(18) 0.572(3) 0.7637(19)
O5 O 0.087(3) 0.459(3) 0.728(2)
O6 O 0.4079(15) 0.5930(17) 0.9979(14)
O11 O 0.688(3) 0.462(3) 0.795(2)
O12 O 0.656(3) 0.541(3) 0.761(2)
Zn7 Zn 0.6991(4) 0.4764(3) 0.7014(3)
Zn1 Zn 0.7808(3) 0.4142(3) 0.5818(2)
Zn2 Zn 0.9849(3) 0.4726(3) 0.6803(3)
C1 C 0.8938(18) 0.247(2) 0.5432(19)
C2 C 0.958(2) 0.3065(17) 0.5901(18)
C5 C 0.976(2) 0.1662(19) 0.524(2)
C6 C 0.903(2) 0.1770(18) 0.5099(18)
H3 H 0.8598 0.1373 0.4785
C7 C 0.986(5) 0.090(3) 0.501(7)
H4 H 0.9373 0.0546 0.4698
C8 C 0.872(3) 0.537(3) 0.803(2)
C9 C 0.941(4) 0.535(3) 0.799(2)
C12 C 0.941(4) 0.620(3) 0.928(2)
C13 C 0.872(3) 0.580(3) 0.867(3)
H9 H 0.8264 0.5808 0.8703
C14 C 0.624(3) 0.310(2) 0.621(3)
C15 C 0.629(3) 0.248(3) 0.568(2)
C16 C 0.584(3) 0.179(3) 0.543(2)
H10 H 0.5868 0.1379 0.5075
C17 C 0.535(3) 0.172(2) 0.570(3)
H11 H 0.5045 0.1255 0.5536
C18 C 0.530(3) 0.233(3) 0.623(3)
C19 C 0.575(3) 0.302(2) 0.649(2)
H12 H 0.5721 0.3432 0.6840
C20 C 0.475(5) 0.226(5) 0.651(5)
H13 H 0.4491 0.1755 0.6293
H14 H 0.4379 0.2533 0.6409
H15 H 0.5022 0.2456 0.7011
C21 C 0.623(2) 0.5464(18) 0.6080(18)
C22 C 0.6297(17) 0.5528(18) 0.5538(18)
C23 C 0.585(2) 0.591(2) 0.5242(16)
H16 H 0.5896 0.5950 0.4880
C24 C 0.535(2) 0.6220(18) 0.549(2)
C25 C 0.528(2) 0.616(2) 0.603(2)
H17 H 0.4942 0.6365 0.6194
C26 C 0.572(3) 0.578(2) 0.6325(17)
H18 H 0.5682 0.5734 0.6687
C27 C 0.482(3) 0.662(3) 0.519(4)
H19 H 0.4892 0.6630 0.4820
H20 H 0.4927 0.7113 0.5559
H21 H 0.4295 0.6370 0.5019
C28 C 0.651(2) 0.260(3) 0.3689(19)
C29 C 0.609(3) 0.191(2) 0.312(3)
H22 H 0.6142 0.1492 0.3174
C30 C 0.559(3) 0.183(2) 0.248(2)
H23 H 0.5313 0.1370 0.2096
C31 C 0.551(2) 0.245(3) 0.2398(15)
C32 C 0.593(2) 0.315(2) 0.2965(19)
H24 H 0.5878 0.3562 0.2913
C33 C 0.643(2) 0.322(2) 0.3611(16)
C66 C 0.960(3) 0.5447(17) 0.5828(18)
C67 C 0.8968(17) 0.5497(19) 0.533(2)
C68 C 0.907(2) 0.588(2) 0.4993(15)
H49 H 0.8642 0.5912 0.4659
C69 C 0.980(3) 0.6209(18) 0.516(2)
H50 H 0.9868 0.6464 0.4933
N1 N 0.833(2) 0.270(2) 0.534(2)
N2 N 0.856(2) 0.343(2) 0.5794(18)
N3 N 0.929(2) 0.3635(19) 0.6130(19)
N4 N 0.925(3) 0.500(2) 0.734(2)
N5 N 0.847(2) 0.477(2) 0.6980(18)
N6 N 0.815(2) 0.502(2) 0.738(2)
N7 N 0.672(3) 0.367(2) 0.635(2)
N8 N 0.704(2) 0.343(2) 0.591(2)
N9 N 0.680(3) 0.271(3) 0.552(2)
N10 N 0.6809(18) 0.5156(19) 0.5392(17)
N11 N 0.7066(19) 0.4897(17) 0.587(2)
N12 N 0.672(2) 0.508(2) 0.629(2)
N13 N 0.838(2) 0.514(2) 0.5304(18)
N14 N 0.8563(18) 0.4835(18) 0.5711(16)
N15 N 0.933(2) 0.504(2) 0.6049(17)
N16 N 0.691(2) 0.380(2) 0.427(2)
N17 N 0.7146(17) 0.349(3) 0.4654(16)
N18 N 0.695(2) 0.278(3) 0.441(2)
C74 C 0.501(5) 0.237(5) 0.172(3)
H55 H 0.4758 0.1863 0.1393
H56 H 0.5309 0.2556 0.1552
H57 H 0.4638 0.2646 0.1764
C75 C 0.942(7) 0.668(5) 0.996(4)
H58 H 0.8901 0.6615 0.9905
H59 H 0.9627 0.7182 0.0113
H60 H 0.9723 0.6548 0.0305
Zn1_2 Zn 0.2192(3) 0.5858(3) 0.4182(2)
Zn2_2 Zn 0.0151(3) 0.5274(3) 0.3197(3)
Zn3 Zn 0.2813(3) 0.5095(4) 0.5332(3)
Zn4 Zn 0.3009(4) 0.5236(3) 0.2986(3)
Zn5 Zn 0.2816(3) 0.7857(3) 0.5197(3)
C1_2 C 0.1062(18) 0.753(2) 0.4568(19)
C2_2 C 0.042(2) 0.6935(17) 0.4099(18)
C5_2 C 0.024(2) 0.8338(19) 0.476(2)
C6_2 C 0.097(2) 0.8230(18) 0.4901(18)
H3_2 H 0.1402 0.8627 0.5215
C7_2 C 0.014(5) 0.910(3) 0.499(7)
H4_2 H 0.0627 0.9454 0.5302
C8_2 C 0.128(3) 0.463(3) 0.197(2)
C9_2 C 0.059(4) 0.465(3) 0.201(2)
C12_2 C 0.059(4) 0.380(3) 0.072(2)
C13_2 C 0.128(3) 0.420(3) 0.133(3)
H9_2 H 0.1736 0.4192 0.1297
C14_2 C 0.376(3) 0.690(2) 0.379(3)
C15_2 C 0.371(3) 0.752(3) 0.432(2)
C16_2 C 0.416(3) 0.821(3) 0.457(2)
H10_2 H 0.4132 0.8621 0.4925
C17_2 C 0.465(3) 0.828(2) 0.430(3)
H11_2 H 0.4955 0.8745 0.4464
C18_2 C 0.470(3) 0.767(3) 0.377(3)
C19_2 C 0.425(3) 0.698(2) 0.351(2)
H12_2 H 0.4279 0.6568 0.3160
C20_2 C 0.525(5) 0.774(5) 0.349(5)
H13_2 H 0.5509 0.8245 0.3707
H14_2 H 0.5621 0.7467 0.3591
H15_2 H 0.4978 0.7544 0.2989
C21_2 C 0.377(2) 0.4536(18) 0.3920(18)
C22_2 C 0.3703(17) 0.4472(18) 0.4462(18)
C23_2 C 0.415(2) 0.409(2) 0.4758(16)
H16_2 H 0.4104 0.4050 0.5120
C24_2 C 0.465(2) 0.3780(18) 0.451(2)
C25_2 C 0.472(2) 0.384(2) 0.397(2)
H17_2 H 0.5058 0.3635 0.3806
C26_2 C 0.428(3) 0.422(2) 0.3675(17)
H18_2 H 0.4318 0.4266 0.3313
C27_2 C 0.518(3) 0.338(3) 0.481(4)
H19_2 H 0.5108 0.3370 0.5180
H20_2 H 0.5073 0.2887 0.4441
H21_2 H 0.5705 0.3630 0.4981
C28_2 C 0.349(2) 0.740(3) 0.6311(19)
C29_2 C 0.391(3) 0.809(2) 0.688(3)
H22_2 H 0.3858 0.8508 0.6826
C30_2 C 0.441(3) 0.817(2) 0.752(2)
H23_2 H 0.4687 0.8630 0.7904
C31_2 C 0.449(2) 0.755(3) 0.7602(15)
C32_2 C 0.407(2) 0.685(2) 0.7035(19)
H24_2 H 0.4122 0.6438 0.7087
C33_2 C 0.357(2) 0.678(2) 0.6389(16)
C66_2 C 0.040(3) 0.4553(17) 0.4172(18)
C67_2 C 0.1032(17) 0.4503(19) 0.467(2)
C68_2 C 0.093(2) 0.412(2) 0.5007(15)
H49_2 H 0.1358 0.4088 0.5341
C69_2 C 0.020(3) 0.3791(18) 0.484(2)
H50_2 H 0.0132 0.3536 0.5067
N1_2 N 0.167(2) 0.730(2) 0.466(2)
N2_2 N 0.144(2) 0.657(2) 0.4206(18)
N3_2 N 0.071(2) 0.6365(19) 0.3870(19)
N4_2 N 0.075(3) 0.500(2) 0.266(2)
N5_2 N 0.153(2) 0.523(2) 0.3020(18)
N6_2 N 0.185(2) 0.498(2) 0.262(2)
N7_2 N 0.328(3) 0.633(2) 0.365(2)
N8_2 N 0.296(2) 0.657(2) 0.409(2)
N9_2 N 0.320(3) 0.729(3) 0.448(2)
N10_2 N 0.3191(18) 0.4844(19) 0.4608(17)
N11_2 N 0.2934(19) 0.5103(17) 0.413(2)
N12_2 N 0.328(2) 0.492(2) 0.371(2)
N13_2 N 0.162(2) 0.486(2) 0.4696(18)
N14_2 N 0.1437(18) 0.5165(18) 0.4289(16)
N15_2 N 0.067(2) 0.496(2) 0.3951(17)
N16_2 N 0.309(2) 0.620(2) 0.573(2)
N17_2 N 0.2854(17) 0.651(3) 0.5346(16)
N18_2 N 0.305(2) 0.722(3) 0.559(2)
C74_2 C 0.499(5) 0.763(5) 0.828(3)
H55_2 H 0.5242 0.8137 0.8607
H56_2 H 0.4691 0.7444 0.8448
H57_2 H 0.5362 0.7354 0.8236
C75_2 C 0.058(7) 0.332(5) 0.004(4)
H58_2 H 0.1099 0.3385 0.0095
O13 O 0.274(2) 0.461(2) 0.586(2)
O14 O 0.391(3) 0.500(3) 0.620(3)
O15 O 0.271(2) 0.8814(18) 0.6003(18)
O16 O 0.374(3) 0.881(2) 0.5876(18)
O17 O 0.312(3) 0.538(3) 0.205(2)
O18 O 0.344(3) 0.459(3) 0.239(2)
C3_2 C 0.969(2) 0.704(2) 0.396(2)
H1_2 H 0.9263 0.6647 0.3647
C4_2 C 0.9602(18) 0.774(3) 0.429(2)
H2_2 H 0.9114 0.7817 0.4201
H5_2 H 0.9901 0.9166 0.4579
H6_2 H 0.9815 0.9179 0.5218
C10_2 C 0.990(3) 0.424(3) 0.141(3)
H7_2 H 0.9438 0.4256 0.1440
C11_2 C 0.990(3) 0.382(3) 0.077(3)
H8_2 H 0.9435 0.3550 0.0365
C34_2 C 0.341(4) 0.481(5) 0.196(5)
C35_2 C 0.360(3) 0.448(4) 0.140(3)
C36_2 C 0.351(3) 0.472(3) 0.093(4)
H25_2 H 0.3258 0.5092 0.0940
C37_2 C 0.377(3) 0.442(3) 0.044(2)
H26_2 H 0.3747 0.4603 0.0139
C38_2 C 0.407(3) 0.385(3) 0.040(2)
C39_2 C 0.416(3) 0.358(3) 0.083(3)
H27_2 H 0.4404 0.3207 0.0808
C40_2 C 0.388(3) 0.389(4) 0.135(3)
H28_2 H 0.3884 0.3683 0.1630
C49_2 C 0.8034(14) 0.4547(19) 0.1700(13)
C50_2 C 0.7681(19) 0.5096(13) 0.1653(15)
H35_2 H 0.7911 0.5582 0.2006
C51_2 C 0.6982(19) 0.4920(16) 0.1080(19)
H36_2 H 0.6745 0.5288 0.1049
C52_2 C 0.6637(14) 0.4194(19) 0.0553(14)
C53_2 C 0.6991(17) 0.3645(14) 0.0600(14)
H37_2 H 0.6760 0.3159 0.0248
C54_2 C 0.7690(17) 0.3821(16) 0.1174(17)
H38_2 H 0.7926 0.3453 0.1205
C70_2 C 0.956(2) 0.3841(19) 0.434(2)
C71_2 C 0.9663(19) 0.422(2) 0.4008(16)
H51_2 H 0.9238 0.4256 0.3674
C72_2 C 0.880(3) 0.346(3) 0.419(4)
H52_2 H 0.8403 0.3532 0.3841
H53_2 H 0.8760 0.2948 0.4023
H54_2 H 0.8736 0.3665 0.4614
C73_2 C 0.884(5) 0.483(5) 0.231(4)
O4_2 O 0.9090(18) 0.428(3) 0.2363(19)
O5_2 O 0.913(3) 0.541(3) 0.272(2)
O6_2 O 0.5921(15) 0.4070(17) 0.0021(14)
C41_2 C 0.429(3) 0.373(2) 0.945(2)
H29_2 H 0.3767 0.3667 0.9135
H30_2 H 0.4547 0.4254 0.9721
C42_2 C 0.341(5) 0.468(4) 0.623(4)
C43_2 C 0.364(4) 0.439(3) 0.674(3)
C44_2 C 0.435(3) 0.445(3) 0.717(3)
H31_2 H 0.4749 0.4662 0.7134
C45_2 C 0.454(3) 0.422(3) 0.765(2)
H32_2 H 0.5053 0.4281 0.7949
C46_2 C 0.394(3) 0.389(3) 0.768(2)
C47_2 C 0.319(3) 0.376(3) 0.725(3)
H33_2 H 0.2794 0.3500 0.7249
C48_2 C 0.305(3) 0.406(3) 0.678(3)
H34_2 H 0.2550 0.4031 0.6499
C55_2 C 0.553(2) 0.334(2) 0.952(2)
H39_2 H 0.5809 0.3124 0.9252
H40_2 H 0.5506 0.3059 0.9758
C56_2 C 0.472(2) 0.330(2) 0.903(2)
C57_2 C 0.479(2) 0.365(2) 0.859(2)
H41_2 H 0.5061 0.3400 0.8327
H42_2 H 0.5072 0.4164 0.8895
C58_2 C 0.425(2) 0.251(2) 0.857(2)
H43_2 H 0.3737 0.2478 0.8250
H44_2 H 0.4201 0.2300 0.8855
C61_2 C 0.439(2) 0.031(2) 0.6847(17)
H45_2 H 0.4657 0.0075 0.6596
C62_2 C 0.4696(18) 0.104(2) 0.736(2)
H46_2 H 0.5160 0.1303 0.7446
C63_2 C 0.430(3) 0.1395(16) 0.7733(16)
C64_2 C 0.361(2) 0.101(3) 0.7600(19)
H47_2 H 0.3348 0.1242 0.7851
C65_2 C 0.3310(16) 0.027(2) 0.709(2)
H48_2 H 0.2846 0.0014 0.7001
O3_2 O 0.4023(15) 0.3583(16) 0.8123(14)
O9_2 O 0.4632(17) 0.2126(17) 0.8192(16)
O10_2 O 0.4309(17) 0.3461(16) 0.9906(15)
C59_2 C 0.336(4) 0.913(4) 0.615(3)
C60_2 C 0.370(2) 0.9923(16) 0.6714(16)
H59_2 H 0.0373 0.2818 0.9887
H60_2 H 0.0277 0.3452 0.9695
loop_
_geom_bond_atom_site_label_1
_geom_bond_atom_site_label_2
_geom_bond_site_symmetry_1
_geom_bond_site_symmetry_2
C59 C60 1_555 1_555
O7 C59 1_555 1_555
O8 C59 1_555 1_555
Zn8 O7 1_555 1_555
O8 Zn8 1_555 1_555
C41 H29 1_555 1_555
H30 C41 1_555 1_555
C42 C43 1_555 1_555
C43 C44 1_555 1_555
C44 H31 1_555 1_555
C45 C44 1_555 1_555
H32 C45 1_555 1_555
C46 C45 1_555 1_555
C47 C46 1_555 1_555
H33 C47 1_555 1_555
C48 C43 1_555 1_555
H34 C48 1_555 1_555
C55 H39 1_555 1_555
H40 C55 1_555 1_555
C56 C41 1_555 1_555
C57 C56 1_555 1_555
H41 C57 1_555 1_555
H42 C57 1_555 1_555
C58 C56 1_555 1_555
H43 C58 1_555 1_555
H44 C58 1_555 1_555
C61 H45 1_555 1_555
C62 C61 1_555 1_555
H46 C62 1_555 1_555
C63 C62 1_555 1_555
C64 C63 1_555 1_555
H47 C64 1_555 1_555
H48 C65 1_555 1_555
O1 C42 1_555 1_555
O2 C42 1_555 1_555
O3 C46 1_555 1_555
O9 C58 1_555 1_555
Zn6 O1 1_555 1_555
C41 O10 1_555 1_555
C47 C48 1_555 1_555
C55 C56 1_555 1_555
C57 O3 1_555 1_555
C63 O9 1_555 1_555
C64 C65 1_555 1_555
O2 Zn6 1_555 1_555
C3 H1 1_555 1_555
C4 C3 1_555 1_555
H2 C4 1_555 1_555
C10 H7 1_555 1_555
C11 C10 1_555 1_555
H8 C11 1_555 1_555
C34 C35 1_555 1_555
C35 C36 1_555 1_555
C36 H25 1_555 1_555
C37 C36 1_555 1_555
H26 C37 1_555 1_555
C38 C37 1_555 1_555
C39 C38 1_555 1_555
H27 C39 1_555 1_555
C40 C35 1_555 1_555
H28 C40 1_555 1_555
C49 C50 1_555 1_555
C50 H35 1_555 1_555
C51 C50 1_555 1_555
H36 C51 1_555 1_555
C52 C51 1_555 1_555
C53 C52 1_555 1_555
H37 C53 1_555 1_555
C54 C49 1_555 1_555
H38 C54 1_555 1_555
H51 C71 1_555 1_555
C72 C70 1_555 1_555
H52 C72 1_555 1_555
H53 C72 1_555 1_555
H54 C72 1_555 1_555
C73 C49 1_555 1_555
O6 C52 1_555 1_555
O11 C34 1_555 1_555
O12 C34 1_555 1_555
Zn7 O11 1_555 1_555
C39 C40 1_555 1_555
C53 C54 1_555 1_555
C70 C71 1_555 1_555
C73 O4 1_555 1_555
C73 O5 1_555 1_555
O12 Zn7 1_555 1_555
Zn1 N2 1_555 1_555
Zn2 N3 1_555 1_555
Zn6 N10 1_555 1_555
Zn7 N6 1_555 1_555
Zn8 N1 1_555 1_555
C1 C2 1_555 1_555
C6 C1 1_555 1_555
H3 C6 1_555 1_555
C7 C5 1_555 1_555
H4 C7 1_555 1_555
C8 C9 1_555 1_555
C13 C8 1_555 1_555
H9 C13 1_555 1_555
C14 C15 1_555 1_555
C15 C16 1_555 1_555
C16 H10 1_555 1_555
C17 C16 1_555 1_555
H11 C17 1_555 1_555
C18 C17 1_555 1_555
C19 C14 1_555 1_555
H12 C19 1_555 1_555
C20 C18 1_555 1_555
H13 C20 1_555 1_555
H14 C20 1_555 1_555
H15 C20 1_555 1_555
C21 C22 1_555 1_555
C22 C23 1_555 1_555
C23 H16 1_555 1_555
C24 C23 1_555 1_555
C25 C24 1_555 1_555
H17 C25 1_555 1_555
C26 C21 1_555 1_555
H18 C26 1_555 1_555
C27 C24 1_555 1_555
H19 C27 1_555 1_555
H20 C27 1_555 1_555
H21 C27 1_555 1_555
C28 C29 1_555 1_555
C29 H22 1_555 1_555
C30 C29 1_555 1_555
H23 C30 1_555 1_555
C31 C30 1_555 1_555
C32 C31 1_555 1_555
H24 C32 1_555 1_555
C33 C28 1_555 1_555
C66 C67 1_555 1_555
C67 C68 1_555 1_555
C68 H49 1_555 1_555
C69 C68 1_555 1_555
H50 C69 1_555 1_555
N1 C1 1_555 1_555
N2 N1 1_555 1_555
N3 C2 1_555 1_555
N4 Zn2 1_555 1_555
N5 Zn1 1_555 1_555
N6 C8 1_555 1_555
N7 Zn7 1_555 1_555
N8 Zn1 1_555 1_555
N9 Zn8 1_555 1_555
N10 C22 1_555 1_555
N11 Zn1 1_555 1_555
N12 Zn7 1_555 1_555
N13 Zn6 1_555 1_555
N14 Zn1 1_555 1_555
N15 Zn2 1_555 1_555
N16 Zn6 1_555 1_555
N17 Zn1 1_555 1_555
N18 Zn8 1_555 1_555
C74 C31 1_555 1_555
H55 C74 1_555 1_555
H56 C74 1_555 1_555
H57 C74 1_555 1_555
C75 C12 1_555 1_555
H58 C75 1_555 1_555
C5 C6 1_555 1_555
C9 N4 1_555 1_555
C12 C13 1_555 1_555
C14 N7 1_555 1_555
C15 N9 1_555 1_555
C18 C19 1_555 1_555
C21 N12 1_555 1_555
C25 C26 1_555 1_555
C28 N18 1_555 1_555
C32 C33 1_555 1_555
C33 N16 1_555 1_555
C66 N15 1_555 1_555
C67 N13 1_555 1_555
N2 N3 1_555 1_555
N4 N5 1_555 1_555
N5 N6 1_555 1_555
N7 N8 1_555 1_555
N8 N9 1_555 1_555
N10 N11 1_555 1_555
N11 N12 1_555 1_555
N13 N14 1_555 1_555
N14 N15 1_555 1_555
N16 N17 1_555 1_555
N17 N18 1_555 1_555
Zn1_2 N2_2 1_555 1_555
Zn2_2 N3_2 1_555 1_555
Zn3 N10_2 1_555 1_555
Zn4 N6_2 1_555 1_555
Zn5 N1_2 1_555 1_555
C1_2 C2_2 1_555 1_555
C6_2 C1_2 1_555 1_555
H3_2 C6_2 1_555 1_555
C7_2 C5_2 1_555 1_555
H4_2 C7_2 1_555 1_555
C8_2 C9_2 1_555 1_555
C13_2 C8_2 1_555 1_555
H9_2 C13_2 1_555 1_555
C14_2 C15_2 1_555 1_555
C15_2 C16_2 1_555 1_555
C16_2 H10_2 1_555 1_555
C17_2 C16_2 1_555 1_555
H11_2 C17_2 1_555 1_555
C18_2 C17_2 1_555 1_555
C19_2 C14_2 1_555 1_555
H12_2 C19_2 1_555 1_555
C20_2 C18_2 1_555 1_555
H13_2 C20_2 1_555 1_555
H14_2 C20_2 1_555 1_555
H15_2 C20_2 1_555 1_555
C21_2 C22_2 1_555 1_555
C22_2 C23_2 1_555 1_555
C23_2 H16_2 1_555 1_555
C24_2 C23_2 1_555 1_555
C25_2 C24_2 1_555 1_555
H17_2 C25_2 1_555 1_555
C26_2 C21_2 1_555 1_555
H18_2 C26_2 1_555 1_555
C27_2 C24_2 1_555 1_555
H19_2 C27_2 1_555 1_555
H20_2 C27_2 1_555 1_555
H21_2 C27_2 1_555 1_555
C28_2 C29_2 1_555 1_555
C29_2 H22_2 1_555 1_555
C30_2 C29_2 1_555 1_555
H23_2 C30_2 1_555 1_555
C31_2 C30_2 1_555 1_555
C32_2 C31_2 1_555 1_555
H24_2 C32_2 1_555 1_555
C33_2 C28_2 1_555 1_555
C66_2 C67_2 1_555 1_555
C67_2 C68_2 1_555 1_555
C68_2 H49_2 1_555 1_555
C69_2 C68_2 1_555 1_555
H50_2 C69_2 1_555 1_555
N1_2 C1_2 1_555 1_555
N2_2 N1_2 1_555 1_555
N3_2 C2_2 1_555 1_555
N4_2 Zn2_2 1_555 1_555
N5_2 Zn1_2 1_555 1_555
N6_2 C8_2 1_555 1_555
N7_2 Zn4 1_555 1_555
N8_2 Zn1_2 1_555 1_555
N9_2 Zn5 1_555 1_555
N10_2 C22_2 1_555 1_555
N11_2 Zn1_2 1_555 1_555
N12_2 Zn4 1_555 1_555
N13_2 Zn3 1_555 1_555
N14_2 Zn1_2 1_555 1_555
N15_2 Zn2_2 1_555 1_555
N16_2 Zn3 1_555 1_555
N17_2 Zn1_2 1_555 1_555
N18_2 Zn5 1_555 1_555
C74_2 C31_2 1_555 1_555
H55_2 C74_2 1_555 1_555
H56_2 C74_2 1_555 1_555
H57_2 C74_2 1_555 1_555
C75_2 C12_2 1_555 1_555
H58_2 C75_2 1_555 1_555
O13 Zn3 1_555 1_555
O14 Zn3 1_555 1_555
O15 Zn5 1_555 1_555
O16 Zn5 1_555 1_555
O17 Zn4 1_555 1_555
O18 Zn4 1_555 1_555
C5_2 C6_2 1_555 1_555
C9_2 N4_2 1_555 1_555
C12_2 C13_2 1_555 1_555
C14_2 N7_2 1_555 1_555
C15_2 N9_2 1_555 1_555
C18_2 C19_2 1_555 1_555
C21_2 N12_2 1_555 1_555
C25_2 C26_2 1_555 1_555
C28_2 N18_2 1_555 1_555
C32_2 C33_2 1_555 1_555
C33_2 N16_2 1_555 1_555
C66_2 N15_2 1_555 1_555
C67_2 N13_2 1_555 1_555
N2_2 N3_2 1_555 1_555
N4_2 N5_2 1_555 1_555
N5_2 N6_2 1_555 1_555
N7_2 N8_2 1_555 1_555
N8_2 N9_2 1_555 1_555
N10_2 N11_2 1_555 1_555
N11_2 N12_2 1_555 1_555
N13_2 N14_2 1_555 1_555
N14_2 N15_2 1_555 1_555
N16_2 N17_2 1_555 1_555
N17_2 N18_2 1_555 1_555
C3_2 H1_2 1_555 1_555
C4_2 C3_2 1_555 1_555
H2_2 C4_2 1_555 1_555
C10_2 H7_2 1_555 1_555
C11_2 C10_2 1_555 1_555
H8_2 C11_2 1_555 1_555
C34_2 C35_2 1_555 1_555
C35_2 C36_2 1_555 1_555
C36_2 H25_2 1_555 1_555
C37_2 C36_2 1_555 1_555
H26_2 C37_2 1_555 1_555
C38_2 C37_2 1_555 1_555
C39_2 C38_2 1_555 1_555
H27_2 C39_2 1_555 1_555
C40_2 C35_2 1_555 1_555
H28_2 C40_2 1_555 1_555
C49_2 C50_2 1_555 1_555
C50_2 H35_2 1_555 1_555
C51_2 C50_2 1_555 1_555
H36_2 C51_2 1_555 1_555
C52_2 C51_2 1_555 1_555
C53_2 C52_2 1_555 1_555
H37_2 C53_2 1_555 1_555
C54_2 C49_2 1_555 1_555
H38_2 C54_2 1_555 1_555
H51_2 C71_2 1_555 1_555
C72_2 C70_2 1_555 1_555
H52_2 C72_2 1_555 1_555
H53_2 C72_2 1_555 1_555
H54_2 C72_2 1_555 1_555
C73_2 C49_2 1_555 1_555
O6_2 C52_2 1_555 1_555
O17 C34_2 1_555 1_555
O18 C34_2 1_555 1_555
C39_2 C40_2 1_555 1_555
C53_2 C54_2 1_555 1_555
C70_2 C71_2 1_555 1_555
C73_2 O4_2 1_555 1_555
C73_2 O5_2 1_555 1_555
C41_2 H29_2 1_555 1_555
H30_2 C41_2 1_555 1_555
C42_2 C43_2 1_555 1_555
C43_2 C44_2 1_555 1_555
C44_2 H31_2 1_555 1_555
C45_2 C44_2 1_555 1_555
H32_2 C45_2 1_555 1_555
C46_2 C45_2 1_555 1_555
C47_2 C46_2 1_555 1_555
H33_2 C47_2 1_555 1_555
C48_2 C43_2 1_555 1_555
H34_2 C48_2 1_555 1_555
C55_2 H39_2 1_555 1_555
H40_2 C55_2 1_555 1_555
C56_2 C41_2 1_555 1_555
C57_2 C56_2 1_555 1_555
H41_2 C57_2 1_555 1_555
H42_2 C57_2 1_555 1_555
C58_2 C56_2 1_555 1_555
H43_2 C58_2 1_555 1_555
H44_2 C58_2 1_555 1_555
C61_2 H45_2 1_555 1_555
C62_2 C61_2 1_555 1_555
H46_2 C62_2 1_555 1_555
C63_2 C62_2 1_555 1_555
C64_2 C63_2 1_555 1_555
H47_2 C64_2 1_555 1_555
H48_2 C65_2 1_555 1_555
O13 C42_2 1_555 1_555
O14 C42_2 1_555 1_555
O3_2 C46_2 1_555 1_555
O9_2 C58_2 1_555 1_555
C41_2 O10_2 1_555 1_555
C47_2 C48_2 1_555 1_555
C55_2 C56_2 1_555 1_555
C57_2 O3_2 1_555 1_555
C63_2 O9_2 1_555 1_555
C64_2 C65_2 1_555 1_555
C59_2 C60_2 1_555 1_555
O15 C59_2 1_555 1_555
O16 C59_2 1_555 1_555

#END
