
###############################################################################
#
# This file contains modified crystal structure data generated from the
# MOF subset of the Cambridge Structural Database (CSD) v543 
# hosted by the Cambridge Crystallographic Data Centre (CCDC).
#
# This work is licensed under the Creative Commons
# Attribution-NonCommercial-ShareAlike 4.0 International License.
# To view a copy of this license, visit
# http://creativecommons.org/licenses/by-nc-sa/4.0/
# or send a letter to
# Creative Commons, PO Box 1866, Mountain View, CA 94042, USA.
#
# CIF created using the CSD Python API on 29 September 2022
# The structure has been converted into the P1 space group
# The structure has a 3D framework
# The original CSD entry FAYPAY is in the monoclinic crystal system
# The framework has been calculated to contain at least 10.0% void space
# The void calculation uses a probe of radius 1.32A, grid spacing 0.4
# H atom positions have been added when not included in the experimental data
#
###############################################################################

data_FAYPAY
_chemical_formula_moiety         '(C552 H400 N144 O92 Zn40)n'
_symmetry_cell_setting           triclinic
_symmetry_space_group_name_H-M   'P 1'
_symmetry_Int_Tables_number      1
_space_group_name_Hall           'P 1'
loop_
_symmetry_equiv_pos_site_id
_symmetry_equiv_pos_as_xyz
1 x,y,z
_cell_length_a                   41.096(3)
_cell_length_b                   21.3170(16)
_cell_length_c                   41.307(3)
_cell_angle_alpha                90
_cell_angle_beta                 116.129(1)
_cell_angle_gamma                90
_cell_volume                     32488.6
loop_
_atom_site_label
_atom_site_type_symbol
_atom_site_fract_x
_atom_site_fract_y
_atom_site_fract_z
Zn1 Zn 0.046533(13) 0.30231(2) 0.577797(11)
Zn2 Zn 0.012172(15) 0.29467(3) 0.482278(12)
Zn3 Zn 0.144753(16) 0.32452(3) 0.616688(14)
Zn4 Zn 0.006385(15) 0.43114(3) 0.602283(13)
Zn5 Zn 0.024999(18) 0.15534(3) 0.609741(15)
C2 C 0.1129(2) 0.1153(3) 0.67707(19)
H1 H 0.0939 0.0912 0.6769
C4 C 0.1489(3) 0.1028(4) 0.6995(3)
H2 H 0.1538 0.0692 0.7153
C8 C 0.1789(2) 0.1368(5) 0.7006(3)
H5 H 0.2024 0.1237 0.7154
C10 C 0.1728(2) 0.1906(4) 0.6791(2)
H7 H 0.1916 0.2162 0.6804
C11 C 0.1076(2) 0.1673(3) 0.65461(17)
H9 H 0.0063 0.4315 0.1896
C15 C 0.1219(2) 0.5517(3) 0.67964(18)
H11 H 0.1232 0.5901 0.6909
C18 C 0.16306(19) 0.3193(4) 0.5064(2)
H15 H 0.1857 0.3211 0.5066
C19 C 0.1311(3) 0.3152(3) 0.4739(2)
H16 H 0.1335 0.3180 0.4526
C23 C 0.0897(2) 0.4684(3) 0.64307(13)
H22 H 0.0024 0.1756 0.3806
C36 C 0.1230(2) 0.4448(3) 0.64663(15)
C41 C 0.00081(16) 0.0418(2) 0.20432(12)
H28 H 0.0168 0.0554 0.2273
C46 C 0.0957(2) 0.3086(3) 0.5048(2)
C51 C 0.09609(18) 0.3072(3) 0.47072(16)
H36 H 0.0756 0.3018 0.4489
C52 C 0.15549(17) 0.4716(3) 0.66629(16)
H37 H 0.1771 0.4545 0.6683
C54 C 0.15401(19) 0.5250(3) 0.6828(2)
H39 H 0.1757 0.5453 0.6971
C55 C 0.08805(18) 0.5243(3) 0.66056(16)
H40 H 0.0667 0.5409 0.6595
C58 C 0.1595(2) 0.3206(3) 0.53737(16)
H42 H 0.1799 0.3257 0.5592
C59 C 0.1362(2) 0.2034(4) 0.65531(18)
C60 C 0.12571(18) 0.3145(3) 0.5371(2)
N1 N 0.00603(13) 0.1750(2) 0.55721(10)
N3 N 0.01563(10) 0.22525(17) 0.54332(11)
N4 N 0.00172(11) 0.22370(17) 0.50770(10)
N5 N 0.00808(9) 0.36902(16) 0.54052(10)
N7 N 0.06120(11) 0.4306(2) 0.62159(10)
N8 N 0.07692(13) 0.38396(18) 0.61246(8)
N9 N 0.11388(13) 0.3904(2) 0.62683(11)
N10 N 0.12251(15) 0.2505(2) 0.63102(12)
N11 N 0.08692(14) 0.2409(2) 0.61613(10)
N12 N 0.07704(12) 0.1905(2) 0.62931(12)
N13 N 0.00451(12) 0.2412(2) 0.61827(11)
N14 N 0.01319(10) 0.2962(2) 0.60720(9)
N16 N 0.06669(11) 0.30375(16) 0.51198(11)
N17 N 0.08023(13) 0.30910(16) 0.54739(12)
N18 N 0.11567(14) 0.31508(18) 0.56300(10)
O3 O 0.04667(12) 0.06493(16) 0.59383(10)
O4 O 0.01828(12) 0.22840(18) 0.43896(9)
O7 O 0.00710(12) 0.5154(2) 0.14982(12)
Zn7 Zn 0.006385(15) 0.56886(3) 0.102283(13)
O14 O 0.02994(12) 0.10390(19) 0.65385(11)
O17 O 0.00710(12) 0.4846(2) 0.64982(12)
O18 O 0.19396(12) 0.2732(2) 0.62047(11)
O19 O 0.19380(13) 0.3524(2) 0.65116(14)
H49 H 0.0635124 0.076889 0.583504
H50 H 0.0597096 0.0385594 0.615576
C39 C 0.01133(14) 0.9934(2) 0.18769(17)
H27 H 0.0344 0.9762 0.1994
O1 O 0.02994(12) 0.89610(19) 0.15385(11)
Zn8 Zn 0.024999(18) 0.84466(3) 0.109741(15)
C1 C 0.92509(13) 0.2004(2) 0.21154(10)
C3 C 0.97865(17) 0.3212(4) 0.63020(16)
C5 C 0.98388(15) 0.2552(3) 0.63520(16)
C6 C 0.96710(17) 0.22207(18) 0.65265(16)
H3 H 0.9707 0.1791 0.6562
C7 C 0.93339(18) 0.3375(3) 0.12785(16)
H4 H 0.9145 0.3140 0.1109
C9 C 0.94486(16) 0.2532(3) 0.66480(16)
H6 H 0.9336 0.2311 0.6765
C12 C 0.93940(15) 0.3175(3) 0.65949(15)
H8 H 0.9245 0.3383 0.6676
C13 C 0.98696(15) 0.4079(3) 0.1733(2)
C14 C 0.9562(2) 0.35061(19) 0.64204(19)
H10 H 0.9521 0.3935 0.6383
C16 C 0.97662(16) 0.3577(3) 0.18670(14)
H12 H 0.9879 0.3480 0.2111
C17 C 0.88538(12) 0.22251(19) 0.19650(10)
H13 H 0.8842 0.2619 0.2077
H14 H 0.8757 0.2292 0.1707
C20 C 0.7500(2) 0.1832(3) 0.15828(16)
C21 C 0.93997(10) 0.18606(18) 0.25212(9)
H17 H 0.9275 0.1500 0.2558
H18 H 0.9656 0.1765 0.2621
C22 C 0.9466(2) 0.3899(4) 0.11800(15)
H19 H 0.9362 0.4002 0.0936
C24 C 0.97335(14) 0.4168(2) 0.49036(14)
C25 C 0.95058(14) 0.2406(3) 0.30657(13)
C26 C 0.92602(13) 0.1412(2) 0.19076(10)
H20 H 0.9186 0.1514 0.1656
H21 H 0.9094 0.1101 0.1921
C27 C 0.98726(13) 0.2060(2) 0.36508(13)
C28 C 0.94894(17) 0.3220(3) 0.16273(17)
C29 C 0.94842(11) 0.25301(19) 0.20787(11)
H23 H 0.9480 0.2890 0.2220
H24 H 0.9733 0.2390 0.2166
C30 C 0.82756(16) 0.1813(3) 0.18892(13)
C31 C 0.95265(14) 0.4352(2) 0.45440(13)
H25 H 0.9528 0.4132 0.4350
C32 C 0.97985(14) 0.2582(3) 0.37899(13)
C33 C 0.99733(17) 0.2660(3) 0.41974(15)
C34 C 0.97166(13) 0.4496(2) 0.51892(14)
C35 C 0.80929(16) 0.2317(2) 0.16912(13)
H26 H 0.8219 0.2657 0.1661
C38 C 0.70869(19) 0.1858(4) 0.14163(19)
C42 C 0.94289(15) 0.0471(3) 0.15468(14)
H29 H 0.9196 0.0636 0.1433
C43 C 0.9858(2) 0.4815(4) 0.1253(2)
C44 C 0.97319(12) 0.1969(2) 0.32907(14)
H30 H 0.9790 0.1610 0.3199
C45 C 0.77108(19) 0.2321(3) 0.15312(12)
H31 H 0.7590 0.2659 0.1385
C47 C 0.95777(14) 0.3028(2) 0.35674(14)
H32 H 0.9530 0.3389 0.3666
C48 C 0.93069(13) 0.5214(2) 0.47837(17)
H33 H 0.9159 0.5567 0.4732
C49 C 0.93266(14) 0.4870(3) 0.45029(14)
H34 H 0.9190 0.5014 0.4269
C50 C 0.8087(2) 0.1349(3) 0.19537(16)
H35 H 0.8215 0.1019 0.2103
C56 C 0.97239(19) 0.4260(3) 0.1401(2)
C57 C 0.7698(2) 0.1344(3) 0.18012(19)
H41 H 0.7580 0.1012 0.1850
C61 C 0.95104(13) 0.5023(2) 0.51412(13)
H43 H 0.9506 0.5242 0.5334
C62 C 0.96784(16) 0.0688(2) 0.18749(15)
C63 C 0.94220(12) 0.2959(2) 0.31957(13)
H44 H 0.9270 0.3263 0.3041
C64 C 0.98304(13) 0.16924(18) 0.49981(14)
C65 C 0.98616(13) 0.1374(3) 0.53040(10)
C66 C 0.96906(17) 0.0798(3) 0.52701(13)
H45 H 0.9712 0.0585 0.5475
C67 C 0.94885(16) 0.05412(19) 0.49304(17)
H46 H 0.9374 0.0156 0.4908
C68 C 0.94573(15) 0.0860(3) 0.46245(11)
H47 H 0.9322 0.0688 0.4397
C69 C 0.96282(16) 0.1436(2) 0.46584(11)
H48 H 0.9607 0.1649 0.4454
N2 N 0.99585(10) 0.36702(17) 0.50443(10)
N6 N 0.99433(10) 0.41817(19) 0.54974(9)
N15 N 0.99803(13) 0.3448(2) 0.61448(11)
O5 O 0.98589(9) 0.31341(16) 0.43097(8)
O6 O 0.97348(18) 0.4969(2) 0.09669(11)
O8 O 0.69396(12) 0.2268(2) 0.12047(11)
O9 O 0.69380(13) 0.1476(2) 0.15116(14)
O10 O 0.86406(10) 0.17563(14) 0.20385(7)
O11 O 0.93437(8) 0.23931(13) 0.26950(8)
O12 O 0.93446(8) 0.26932(15) 0.17151(8)
O13 O 0.96219(8) 0.11690(14) 0.20645(7)
Zn6 Zn 0.644753(16) 0.17548(3) 0.116688(14)
O15 O 0.97959(14) 0.0942(2) 0.60664(11)
O16 O 0.97348(18) 0.5031(2) 0.59669(11)
C37 C 0.9989(2) 0.9221(3) 0.1359(2)
C40 C 0.9877(2) 0.9716(3) 0.15430(16)
C53 C 0.95437(18) 0.9987(3) 0.13914(14)
H38 H 0.9379 0.9839 0.1167
O2 O 0.97959(14) 0.9058(2) 0.10664(11)
C15_2 C 0.6219(2) 0.0517(3) 0.67964(18)
H11_2 H 0.6232 0.0901 0.6909
C48_2 C 0.43069(13) 0.0214(2) 0.47837(17)
H33_2 H 0.4159 0.0567 0.4732
H34_2 H 0.4190 0.0014 0.4269
C54_2 C 0.65401(19) 0.0250(3) 0.6828(2)
H39_2 H 0.6757 0.0453 0.6971
C55_2 C 0.58805(18) 0.0243(3) 0.66056(16)
H40_2 H 0.5667 0.0409 0.6595
C61_2 C 0.45104(13) 0.0023(2) 0.51412(13)
H43_2 H 0.4506 0.0242 0.5334
O7_2 O 0.50710(12) 0.0154(2) 0.14982(12)
Zn7_2 Zn 0.506385(15) 0.06886(3) 0.102283(13)
O16_2 O 0.47348(18) 0.0031(2) 0.59669(11)
Zn1_2 Zn 0.546533(13) 0.80231(2) 0.577797(11)
Zn2_2 Zn 0.512172(15) 0.79467(3) 0.482278(12)
Zn3_2 Zn 0.644753(16) 0.82452(3) 0.616688(14)
Zn4_2 Zn 0.506385(15) 0.93114(3) 0.602283(13)
Zn5_2 Zn 0.524999(18) 0.65534(3) 0.609741(15)
C1_2 C 0.42509(13) 0.7004(2) 0.21154(10)
C2_2 C 0.6129(2) 0.6153(3) 0.67707(19)
H1_2 H 0.5939 0.5912 0.6769
C3_2 C 0.47865(17) 0.8212(4) 0.63020(16)
C4_2 C 0.6489(3) 0.6028(4) 0.6995(3)
H2_2 H 0.6538 0.5692 0.7153
C5_2 C 0.48388(15) 0.7552(3) 0.63520(16)
C6_2 C 0.46710(17) 0.72207(18) 0.65265(16)
H3_2 H 0.4707 0.6791 0.6562
C7_2 C 0.43339(18) 0.8375(3) 0.12785(16)
H4_2 H 0.4145 0.8140 0.1109
C8_2 C 0.6789(2) 0.6368(5) 0.7006(3)
H5_2 H 0.7024 0.6237 0.7154
C9_2 C 0.44486(16) 0.7532(3) 0.66480(16)
H6_2 H 0.4336 0.7311 0.6765
C10_2 C 0.6728(2) 0.6906(4) 0.6791(2)
H7_2 H 0.6916 0.7162 0.6804
C11_2 C 0.6076(2) 0.6673(3) 0.65461(17)
C12_2 C 0.43940(15) 0.8175(3) 0.65949(15)
H8_2 H 0.4245 0.8383 0.6676
C13_2 C 0.48696(15) 0.9079(3) 0.1733(2)
H9_2 H 0.5063 0.9315 0.1896
C14_2 C 0.4562(2) 0.85061(19) 0.64204(19)
H10_2 H 0.4521 0.8935 0.6383
C16_2 C 0.47662(16) 0.8577(3) 0.18670(14)
H12_2 H 0.4879 0.8480 0.2111
C17_2 C 0.38538(12) 0.72251(19) 0.19650(10)
H13_2 H 0.3842 0.7619 0.2077
H14_2 H 0.3757 0.7292 0.1707
C18_2 C 0.66306(19) 0.8193(4) 0.5064(2)
H15_2 H 0.6857 0.8211 0.5066
C19_2 C 0.6311(3) 0.8152(3) 0.4739(2)
H16_2 H 0.6335 0.8180 0.4526
C20_2 C 0.2500(2) 0.6832(3) 0.15828(16)
C21_2 C 0.43997(10) 0.68606(18) 0.25212(9)
H17_2 H 0.4275 0.6500 0.2558
H18_2 H 0.4656 0.6765 0.2621
C22_2 C 0.4466(2) 0.8899(4) 0.11800(15)
H19_2 H 0.4362 0.9002 0.0936
C23_2 C 0.5897(2) 0.9684(3) 0.64307(13)
C24_2 C 0.47335(14) 0.9168(2) 0.49036(14)
C25_2 C 0.45058(14) 0.7406(3) 0.30657(13)
C26_2 C 0.42602(13) 0.6412(2) 0.19076(10)
H20_2 H 0.4186 0.6514 0.1656
H21_2 H 0.4094 0.6101 0.1921
C27_2 C 0.48726(13) 0.7060(2) 0.36508(13)
H22_2 H 0.5024 0.6756 0.3806
C28_2 C 0.44894(17) 0.8220(3) 0.16273(17)
C29_2 C 0.44842(11) 0.75301(19) 0.20787(11)
H23_2 H 0.4480 0.7890 0.2220
H24_2 H 0.4733 0.7390 0.2166
C30_2 C 0.32756(16) 0.6813(3) 0.18892(13)
C31_2 C 0.45265(14) 0.9352(2) 0.45440(13)
H25_2 H 0.4528 0.9132 0.4350
C32_2 C 0.47985(14) 0.7582(3) 0.37899(13)
C33_2 C 0.49733(17) 0.7660(3) 0.41974(15)
C34_2 C 0.47166(13) 0.9496(2) 0.51892(14)
C35_2 C 0.30929(16) 0.7317(2) 0.16912(13)
H26_2 H 0.3219 0.7657 0.1661
C36_2 C 0.6230(2) 0.9448(3) 0.64663(15)
C37_2 C 0.4989(2) 0.4221(3) 0.1359(2)
C38_2 C 0.20869(19) 0.6858(4) 0.14163(19)
C39_2 C 0.51133(14) 0.4934(2) 0.18769(17)
H27_2 H 0.5344 0.4762 0.1994
C40_2 C 0.4877(2) 0.4716(3) 0.15430(16)
C41_2 C 0.50081(16) 0.5418(2) 0.20432(12)
H28_2 H 0.5168 0.5554 0.2273
C42_2 C 0.44289(15) 0.5471(3) 0.15468(14)
H29_2 H 0.4196 0.5636 0.1433
C43_2 C 0.4858(2) 0.9815(4) 0.1253(2)
C44_2 C 0.47319(12) 0.6969(2) 0.32907(14)
H30_2 H 0.4790 0.6610 0.3199
C45_2 C 0.27108(19) 0.7321(3) 0.15312(12)
H31_2 H 0.2590 0.7659 0.1385
C46_2 C 0.5957(2) 0.8086(3) 0.5048(2)
C47_2 C 0.45777(14) 0.8028(2) 0.35674(14)
H32_2 H 0.4530 0.8389 0.3666
C49_2 C 0.43266(14) 0.9870(3) 0.45029(14)
C50_2 C 0.3087(2) 0.6349(3) 0.19537(16)
H35_2 H 0.3215 0.6019 0.2103
C51_2 C 0.59609(18) 0.8072(3) 0.47072(16)
H36_2 H 0.5756 0.8018 0.4489
C52_2 C 0.65549(17) 0.9716(3) 0.66629(16)
H37_2 H 0.6771 0.9545 0.6683
C53_2 C 0.45437(18) 0.4987(3) 0.13914(14)
H38_2 H 0.4379 0.4839 0.1167
C56_2 C 0.47239(19) 0.9260(3) 0.1401(2)
C57_2 C 0.2698(2) 0.6344(3) 0.18012(19)
H41_2 H 0.2580 0.6012 0.1850
C58_2 C 0.6595(2) 0.8206(3) 0.53737(16)
H42_2 H 0.6799 0.8257 0.5592
C59_2 C 0.6362(2) 0.7034(4) 0.65531(18)
C60_2 C 0.62571(18) 0.8145(3) 0.5371(2)
C62_2 C 0.46784(16) 0.5688(2) 0.18749(15)
C63_2 C 0.44220(12) 0.7959(2) 0.31957(13)
H44_2 H 0.4270 0.8263 0.3041
C64_2 C 0.48304(13) 0.66924(18) 0.49981(14)
C65_2 C 0.48616(13) 0.6374(3) 0.53040(10)
C66_2 C 0.46906(17) 0.5798(3) 0.52701(13)
H45_2 H 0.4712 0.5585 0.5475
C67_2 C 0.44885(16) 0.55412(19) 0.49304(17)
H46_2 H 0.4374 0.5156 0.4908
C68_2 C 0.44573(15) 0.5860(3) 0.46245(11)
H47_2 H 0.4322 0.5688 0.4397
C69_2 C 0.46282(16) 0.6436(2) 0.46584(11)
H48_2 H 0.4607 0.6649 0.4454
N1_2 N 0.50603(13) 0.6750(2) 0.55721(10)
N2_2 N 0.49585(10) 0.86702(17) 0.50443(10)
N3_2 N 0.51563(10) 0.72525(17) 0.54332(11)
N4_2 N 0.50172(11) 0.72370(17) 0.50770(10)
N5_2 N 0.50808(9) 0.86902(16) 0.54052(10)
N6_2 N 0.49433(10) 0.91817(19) 0.54974(9)
N7_2 N 0.56120(11) 0.9306(2) 0.62159(10)
N8_2 N 0.57692(13) 0.88396(18) 0.61246(8)
N9_2 N 0.61388(13) 0.8904(2) 0.62683(11)
N10_2 N 0.62251(15) 0.7505(2) 0.63102(12)
N11_2 N 0.58692(14) 0.7409(2) 0.61613(10)
N12_2 N 0.57704(12) 0.6905(2) 0.62931(12)
N13_2 N 0.50451(12) 0.7412(2) 0.61827(11)
N14_2 N 0.51319(10) 0.7962(2) 0.60720(9)
N15_2 N 0.49803(13) 0.8448(2) 0.61448(11)
N16_2 N 0.56669(11) 0.80375(16) 0.51198(11)
N17_2 N 0.58023(13) 0.80910(16) 0.54739(12)
N18_2 N 0.61567(14) 0.81508(18) 0.56300(10)
O1_2 O 0.52994(12) 0.39610(19) 0.15385(11)
O2_2 O 0.47959(14) 0.4058(2) 0.10664(11)
O3_2 O 0.54667(12) 0.56493(16) 0.59383(10)
O4_2 O 0.51828(12) 0.72840(18) 0.43896(9)
O5_2 O 0.48589(9) 0.81341(16) 0.43097(8)
O6_2 O 0.47348(18) 0.9969(2) 0.09669(11)
O8_2 O 0.19396(12) 0.7268(2) 0.12047(11)
O9_2 O 0.19380(13) 0.6476(2) 0.15116(14)
O10_2 O 0.36406(10) 0.67563(14) 0.20385(7)
O11_2 O 0.43437(8) 0.73931(13) 0.26950(8)
O12_2 O 0.43446(8) 0.76932(15) 0.17151(8)
O13_2 O 0.46219(8) 0.61690(14) 0.20645(7)
Zn6_2 Zn 0.144753(16) 0.67548(3) 0.116688(14)
Zn8_2 Zn 0.524999(18) 0.34466(3) 0.109741(15)
O14_2 O 0.52994(12) 0.60390(19) 0.65385(11)
O15_2 O 0.47959(14) 0.5942(2) 0.60664(11)
O17_2 O 0.50710(12) 0.9846(2) 0.64982(12)
O18_2 O 0.69396(12) 0.7732(2) 0.62047(11)
O19_2 O 0.69380(13) 0.8524(2) 0.65116(14)
H49_2 H 0.563512 0.576889 0.583504
H50_2 H 0.55971 0.538559 0.615576
C39_3 C 0.01133(14) 0.0066(2) 0.68769(17)
H27_3 H 0.0344 0.0238 0.6994
Zn1_3 Zn 0.046533(13) 0.69769(2) 0.077797(11)
C2_3 C 0.1129(2) 0.8847(3) 0.17707(19)
H1_3 H 0.0939 0.9088 0.1769
C4_3 C 0.1489(3) 0.8972(4) 0.1995(3)
H2_3 H 0.1538 0.9308 0.2153
C8_3 C 0.1789(2) 0.8632(5) 0.2006(3)
H5_3 H 0.2024 0.8763 0.2154
C10_3 C 0.1728(2) 0.8094(4) 0.1791(2)
H7_3 H 0.1916 0.7838 0.1804
C11_3 C 0.1076(2) 0.8327(3) 0.15461(17)
C15_3 C 0.1219(2) 0.4483(3) 0.17964(18)
H11_3 H 0.1232 0.4099 0.1909
C18_3 C 0.16306(19) 0.6807(4) 0.0064(2)
H15_3 H 0.1857 0.6789 0.0066
C23_3 C 0.0897(2) 0.5316(3) 0.14307(13)
C36_3 C 0.1230(2) 0.5552(3) 0.14663(15)
C46_3 C 0.0957(2) 0.6914(3) 0.0048(2)
C52_3 C 0.15549(17) 0.5284(3) 0.16629(16)
H37_3 H 0.1771 0.5455 0.1683
C54_3 C 0.15401(19) 0.4750(3) 0.1828(2)
H39_3 H 0.1757 0.4547 0.1971
C55_3 C 0.08805(18) 0.4757(3) 0.16056(16)
H40_3 H 0.0667 0.4591 0.1595
C58_3 C 0.1595(2) 0.6794(3) 0.03737(16)
H42_3 H 0.1799 0.6743 0.0592
C59_3 C 0.1362(2) 0.7966(4) 0.15531(18)
C60_3 C 0.12571(18) 0.6855(3) 0.0371(2)
N1_3 N 0.00603(13) 0.8250(2) 0.05721(10)
N3_3 N 0.01563(10) 0.77475(17) 0.04332(11)
N4_3 N 0.00172(11) 0.77630(17) 0.00770(10)
N5_3 N 0.00808(9) 0.63098(16) 0.04052(10)
N7_3 N 0.06120(11) 0.5694(2) 0.12159(10)
N8_3 N 0.07692(13) 0.61604(18) 0.11246(8)
N9_3 N 0.11388(13) 0.6096(2) 0.12683(11)
N10_3 N 0.12251(15) 0.7495(2) 0.13102(12)
N11_3 N 0.08692(14) 0.7591(2) 0.11613(10)
N12_3 N 0.07704(12) 0.8095(2) 0.12931(12)
N13_3 N 0.00451(12) 0.7588(2) 0.11827(11)
N14_3 N 0.01319(10) 0.7038(2) 0.10720(9)
N16_3 N 0.06669(11) 0.69625(16) 0.01198(11)
N17_3 N 0.08023(13) 0.69090(16) 0.04739(12)
N18_3 N 0.11567(14) 0.68492(18) 0.06300(10)
O3_3 O 0.04667(12) 0.93507(16) 0.09383(10)
H49_3 H 0.0635124 0.923111 0.0835038
H50_3 H 0.0597096 0.961441 0.115576
Zn2_3 Zn 0.012172(15) 0.70533(3) 0.982278(12)
H9_3 H 0.0063 0.5685 0.6896
C19_3 C 0.1311(3) 0.6848(3) 0.9739(2)
H16_3 H 0.1335 0.6820 0.9526
H22_3 H 0.0024 0.8244 0.8806
C41_3 C 0.00081(16) 0.9582(2) 0.70432(12)
H28_3 H 0.0168 0.9446 0.7273
C51_3 C 0.09609(18) 0.6928(3) 0.97072(16)
H36_3 H 0.0756 0.6982 0.9489
O4_3 O 0.01828(12) 0.77160(18) 0.93896(9)
C37_3 C 0.9989(2) 0.0779(3) 0.6359(2)
C40_3 C 0.9877(2) 0.0284(3) 0.65430(16)
C53_3 C 0.95437(18) 0.0013(3) 0.63914(14)
H38_3 H 0.9379 0.0161 0.6167
C3_3 C 0.97865(17) 0.6788(4) 0.13020(16)
C5_3 C 0.98388(15) 0.7448(3) 0.13520(16)
C6_3 C 0.96710(17) 0.77793(18) 0.15265(16)
H3_3 H 0.9707 0.8209 0.1562
C9_3 C 0.94486(16) 0.7468(3) 0.16480(16)
H6_3 H 0.9336 0.7689 0.1765
C12_3 C 0.93940(15) 0.6825(3) 0.15949(15)
H8_3 H 0.9245 0.6617 0.1676
C14_3 C 0.9562(2) 0.64939(19) 0.14204(19)
H10_3 H 0.9521 0.6065 0.1383
C34_3 C 0.97166(13) 0.5504(2) 0.01892(14)
C61_3 C 0.95104(13) 0.4977(2) 0.01412(13)
H43_3 H 0.9506 0.4758 0.0334
C65_3 C 0.98616(13) 0.8626(3) 0.03040(10)
C66_3 C 0.96906(17) 0.9202(3) 0.02701(13)
H45_3 H 0.9712 0.9415 0.0475
N2_3 N 0.99585(10) 0.63298(17) 0.00443(10)
N6_3 N 0.99433(10) 0.58183(19) 0.04974(9)
N15_3 N 0.99803(13) 0.6552(2) 0.11448(11)
C1_3 C 0.92509(13) 0.7996(2) 0.71154(10)
C7_3 C 0.93339(18) 0.6625(3) 0.62785(16)
H4_3 H 0.9145 0.6860 0.6109
C13_3 C 0.98696(15) 0.5921(3) 0.6733(2)
C16_3 C 0.97662(16) 0.6423(3) 0.68670(14)
H12_3 H 0.9879 0.6520 0.7111
C17_3 C 0.88538(12) 0.77749(19) 0.69650(10)
H13_3 H 0.8842 0.7381 0.7077
H14_3 H 0.8757 0.7708 0.6707
C20_3 C 0.7500(2) 0.8168(3) 0.65828(16)
C21_3 C 0.93997(10) 0.81394(18) 0.75212(9)
H17_3 H 0.9275 0.8500 0.7558
H18_3 H 0.9656 0.8235 0.7621
C22_3 C 0.9466(2) 0.6101(4) 0.61800(15)
H19_3 H 0.9362 0.5998 0.5936
C24_3 C 0.97335(14) 0.5832(2) 0.99036(14)
C25_3 C 0.95058(14) 0.7594(3) 0.80657(13)
C26_3 C 0.92602(13) 0.8588(2) 0.69076(10)
H20_3 H 0.9186 0.8486 0.6656
H21_3 H 0.9094 0.8899 0.6921
C27_3 C 0.98726(13) 0.7940(2) 0.86508(13)
C28_3 C 0.94894(17) 0.6780(3) 0.66273(17)
C29_3 C 0.94842(11) 0.74699(19) 0.70787(11)
H23_3 H 0.9480 0.7110 0.7220
H24_3 H 0.9733 0.7610 0.7166
C30_3 C 0.82756(16) 0.8187(3) 0.68892(13)
C31_3 C 0.95265(14) 0.5648(2) 0.95440(13)
H25_3 H 0.9528 0.5868 0.9350
C32_3 C 0.97985(14) 0.7418(3) 0.87899(13)
C33_3 C 0.99733(17) 0.7340(3) 0.91974(15)
C35_3 C 0.80929(16) 0.7683(2) 0.66912(13)
H26_3 H 0.8219 0.7343 0.6661
C38_3 C 0.70869(19) 0.8142(4) 0.64163(19)
C42_3 C 0.94289(15) 0.9529(3) 0.65468(14)
H29_3 H 0.9196 0.9364 0.6433
C43_3 C 0.9858(2) 0.5185(4) 0.6253(2)
C44_3 C 0.97319(12) 0.8031(2) 0.82907(14)
H30_3 H 0.9790 0.8390 0.8199
C45_3 C 0.77108(19) 0.7679(3) 0.65312(12)
H31_3 H 0.7590 0.7341 0.6385
C47_3 C 0.95777(14) 0.6972(2) 0.85674(14)
H32_3 H 0.9530 0.6611 0.8666
C48_3 C 0.93069(13) 0.4786(2) 0.97837(17)
H33_3 H 0.9159 0.4433 0.9732
C49_3 C 0.93266(14) 0.5130(3) 0.95029(14)
H34_3 H 0.9190 0.4986 0.9269
C50_3 C 0.8087(2) 0.8651(3) 0.69537(16)
H35_3 H 0.8215 0.8981 0.7103
C56_3 C 0.97239(19) 0.5740(3) 0.6401(2)
C57_3 C 0.7698(2) 0.8656(3) 0.68012(19)
H41_3 H 0.7580 0.8988 0.6850
C62_3 C 0.96784(16) 0.9312(2) 0.68749(15)
C63_3 C 0.94220(12) 0.7041(2) 0.81957(13)
H44_3 H 0.9270 0.6737 0.8041
C64_3 C 0.98304(13) 0.83076(18) 0.99981(14)
C67_3 C 0.94885(16) 0.94588(19) 0.99304(17)
H46_3 H 0.9374 0.9844 0.9908
C68_3 C 0.94573(15) 0.9140(3) 0.96245(11)
H47_3 H 0.9322 0.9312 0.9397
C69_3 C 0.96282(16) 0.8564(2) 0.96584(11)
H48_3 H 0.9607 0.8351 0.9454
O5_3 O 0.98589(9) 0.68659(16) 0.93097(8)
O10_3 O 0.86406(10) 0.82437(14) 0.70385(7)
O11_3 O 0.93437(8) 0.76069(13) 0.76950(8)
O12_3 O 0.93446(8) 0.73068(15) 0.67151(8)
O13_3 O 0.96219(8) 0.88310(14) 0.70645(7)
Zn1_4 Zn 0.546533(13) 0.19769(2) 0.077797(11)
C2_4 C 0.6129(2) 0.3847(3) 0.17707(19)
H1_4 H 0.5939 0.4088 0.1769
C3_4 C 0.47865(17) 0.1788(4) 0.13020(16)
C4_4 C 0.6489(3) 0.3972(4) 0.1995(3)
H2_4 H 0.6538 0.4308 0.2153
C5_4 C 0.48388(15) 0.2448(3) 0.13520(16)
C6_4 C 0.46710(17) 0.27793(18) 0.15265(16)
H3_4 H 0.4707 0.3209 0.1562
C8_4 C 0.6789(2) 0.3632(5) 0.2006(3)
H5_4 H 0.7024 0.3763 0.2154
C9_4 C 0.44486(16) 0.2468(3) 0.16480(16)
H6_4 H 0.4336 0.2689 0.1765
C10_4 C 0.6728(2) 0.3094(4) 0.1791(2)
H7_4 H 0.6916 0.2838 0.1804
C11_4 C 0.6076(2) 0.3327(3) 0.15461(17)
C12_4 C 0.43940(15) 0.1825(3) 0.15949(15)
H8_4 H 0.4245 0.1617 0.1676
C14_4 C 0.4562(2) 0.14939(19) 0.14204(19)
H10_4 H 0.4521 0.1065 0.1383
C18_4 C 0.66306(19) 0.1807(4) 0.0064(2)
H15_4 H 0.6857 0.1789 0.0066
C23_4 C 0.5897(2) 0.0316(3) 0.14307(13)
C34_4 C 0.47166(13) 0.0504(2) 0.01892(14)
C36_4 C 0.6230(2) 0.0552(3) 0.14663(15)
C46_4 C 0.5957(2) 0.1914(3) 0.0048(2)
C52_4 C 0.65549(17) 0.0284(3) 0.16629(16)
H37_4 H 0.6771 0.0455 0.1683
C58_4 C 0.6595(2) 0.1794(3) 0.03737(16)
H42_4 H 0.6799 0.1743 0.0592
C59_4 C 0.6362(2) 0.2966(4) 0.15531(18)
C60_4 C 0.62571(18) 0.1855(3) 0.0371(2)
C65_4 C 0.48616(13) 0.3626(3) 0.03040(10)
C66_4 C 0.46906(17) 0.4202(3) 0.02701(13)
H45_4 H 0.4712 0.4415 0.0475
N1_4 N 0.50603(13) 0.3250(2) 0.05721(10)
N2_4 N 0.49585(10) 0.13298(17) 0.00443(10)
N3_4 N 0.51563(10) 0.27475(17) 0.04332(11)
N4_4 N 0.50172(11) 0.27630(17) 0.00770(10)
N5_4 N 0.50808(9) 0.13098(16) 0.04052(10)
N6_4 N 0.49433(10) 0.08183(19) 0.04974(9)
N7_4 N 0.56120(11) 0.0694(2) 0.12159(10)
N8_4 N 0.57692(13) 0.11604(18) 0.11246(8)
N9_4 N 0.61388(13) 0.1096(2) 0.12683(11)
N10_4 N 0.62251(15) 0.2495(2) 0.13102(12)
N11_4 N 0.58692(14) 0.2591(2) 0.11613(10)
N12_4 N 0.57704(12) 0.3095(2) 0.12931(12)
N13_4 N 0.50451(12) 0.2588(2) 0.11827(11)
N14_4 N 0.51319(10) 0.2038(2) 0.10720(9)
N15_4 N 0.49803(13) 0.1552(2) 0.11448(11)
N16_4 N 0.56669(11) 0.19625(16) 0.01198(11)
N17_4 N 0.58023(13) 0.19090(16) 0.04739(12)
N18_4 N 0.61567(14) 0.18492(18) 0.06300(10)
O3_4 O 0.54667(12) 0.43507(16) 0.09383(10)
H49_4 H 0.563512 0.423111 0.0835038
H50_4 H 0.55971 0.461441 0.115576
Zn2_4 Zn 0.512172(15) 0.20533(3) 0.982278(12)
C1_4 C 0.42509(13) 0.2996(2) 0.71154(10)
C7_4 C 0.43339(18) 0.1625(3) 0.62785(16)
H4_4 H 0.4145 0.1860 0.6109
C13_4 C 0.48696(15) 0.0921(3) 0.6733(2)
H9_4 H 0.5063 0.0685 0.6896
C16_4 C 0.47662(16) 0.1423(3) 0.68670(14)
H12_4 H 0.4879 0.1520 0.7111
C17_4 C 0.38538(12) 0.27749(19) 0.69650(10)
H13_4 H 0.3842 0.2381 0.7077
H14_4 H 0.3757 0.2708 0.6707
C19_4 C 0.6311(3) 0.1848(3) 0.9739(2)
H16_4 H 0.6335 0.1820 0.9526
C20_4 C 0.2500(2) 0.3168(3) 0.65828(16)
C21_4 C 0.43997(10) 0.31394(18) 0.75212(9)
H17_4 H 0.4275 0.3500 0.7558
H18_4 H 0.4656 0.3235 0.7621
C22_4 C 0.4466(2) 0.1101(4) 0.61800(15)
H19_4 H 0.4362 0.0998 0.5936
C24_4 C 0.47335(14) 0.0832(2) 0.99036(14)
C25_4 C 0.45058(14) 0.2594(3) 0.80657(13)
C26_4 C 0.42602(13) 0.3588(2) 0.69076(10)
H20_4 H 0.4186 0.3486 0.6656
H21_4 H 0.4094 0.3899 0.6921
C27_4 C 0.48726(13) 0.2940(2) 0.86508(13)
H22_4 H 0.5024 0.3244 0.8806
C28_4 C 0.44894(17) 0.1780(3) 0.66273(17)
C29_4 C 0.44842(11) 0.24699(19) 0.70787(11)
H23_4 H 0.4480 0.2110 0.7220
H24_4 H 0.4733 0.2610 0.7166
C30_4 C 0.32756(16) 0.3187(3) 0.68892(13)
C31_4 C 0.45265(14) 0.0648(2) 0.95440(13)
H25_4 H 0.4528 0.0868 0.9350
C32_4 C 0.47985(14) 0.2418(3) 0.87899(13)
C33_4 C 0.49733(17) 0.2340(3) 0.91974(15)
C35_4 C 0.30929(16) 0.2683(2) 0.66912(13)
H26_4 H 0.3219 0.2343 0.6661
C37_4 C 0.4989(2) 0.5779(3) 0.6359(2)
C38_4 C 0.20869(19) 0.3142(4) 0.64163(19)
C39_4 C 0.51133(14) 0.5066(2) 0.68769(17)
H27_4 H 0.5344 0.5238 0.6994
C40_4 C 0.4877(2) 0.5284(3) 0.65430(16)
C41_4 C 0.50081(16) 0.4582(2) 0.70432(12)
H28_4 H 0.5168 0.4446 0.7273
C42_4 C 0.44289(15) 0.4529(3) 0.65468(14)
H29_4 H 0.4196 0.4364 0.6433
C43_4 C 0.4858(2) 0.0185(4) 0.6253(2)
C44_4 C 0.47319(12) 0.3031(2) 0.82907(14)
H30_4 H 0.4790 0.3390 0.8199
C45_4 C 0.27108(19) 0.2679(3) 0.65312(12)
H31_4 H 0.2590 0.2341 0.6385
C47_4 C 0.45777(14) 0.1972(2) 0.85674(14)
H32_4 H 0.4530 0.1611 0.8666
C49_4 C 0.43266(14) 0.0130(3) 0.95029(14)
C50_4 C 0.3087(2) 0.3651(3) 0.69537(16)
H35_4 H 0.3215 0.3981 0.7103
C51_4 C 0.59609(18) 0.1928(3) 0.97072(16)
H36_4 H 0.5756 0.1982 0.9489
C53_4 C 0.45437(18) 0.5013(3) 0.63914(14)
H38_4 H 0.4379 0.5161 0.6167
C56_4 C 0.47239(19) 0.0740(3) 0.6401(2)
C57_4 C 0.2698(2) 0.3656(3) 0.68012(19)
H41_4 H 0.2580 0.3988 0.6850
C62_4 C 0.46784(16) 0.4312(2) 0.68749(15)
C63_4 C 0.44220(12) 0.2041(2) 0.81957(13)
H44_4 H 0.4270 0.1737 0.8041
C64_4 C 0.48304(13) 0.33076(18) 0.99981(14)
C67_4 C 0.44885(16) 0.44588(19) 0.99304(17)
H46_4 H 0.4374 0.4844 0.9908
C68_4 C 0.44573(15) 0.4140(3) 0.96245(11)
H47_4 H 0.4322 0.4312 0.9397
C69_4 C 0.46282(16) 0.3564(2) 0.96584(11)
H48_4 H 0.4607 0.3351 0.9454
O4_4 O 0.51828(12) 0.27160(18) 0.93896(9)
O5_4 O 0.48589(9) 0.18659(16) 0.93097(8)
O10_4 O 0.36406(10) 0.32437(14) 0.70385(7)
O11_4 O 0.43437(8) 0.26069(13) 0.76950(8)
O12_4 O 0.43446(8) 0.23068(15) 0.67151(8)
O13_4 O 0.46219(8) 0.38310(14) 0.70645(7)
C15_4 C 0.6219(2) 0.9483(3) 0.17964(18)
H11_4 H 0.6232 0.9099 0.1909
C54_4 C 0.65401(19) 0.9750(3) 0.1828(2)
H39_4 H 0.6757 0.9547 0.1971
C55_4 C 0.58805(18) 0.9757(3) 0.16056(16)
H40_4 H 0.5667 0.9591 0.1595
C61_4 C 0.45104(13) 0.9977(2) 0.01412(13)
H43_4 H 0.4506 0.9758 0.0334
C48_4 C 0.43069(13) 0.9786(2) 0.97837(17)
H33_4 H 0.4159 0.9433 0.9732
H34_4 H 0.4190 0.9986 0.9269
C1_5 C 0.07491(13) 0.2004(2) 0.28846(10)
C7_5 C 0.06661(18) 0.3375(3) 0.37215(16)
H4_5 H 0.0855 0.3140 0.3891
C13_5 C 0.01304(15) 0.4079(3) 0.3267(2)
C16_5 C 0.02338(16) 0.3577(3) 0.31330(14)
H12_5 H 0.0121 0.3480 0.2889
C17_5 C 0.11462(12) 0.22251(19) 0.30350(10)
H13_5 H 0.1158 0.2619 0.2923
H14_5 H 0.1243 0.2292 0.3293
C20_5 C 0.2500(2) 0.1832(3) 0.34172(16)
C21_5 C 0.06003(10) 0.18606(18) 0.24788(9)
H17_5 H 0.0725 0.1500 0.2442
H18_5 H 0.0344 0.1765 0.2379
C22_5 C 0.0534(2) 0.3899(4) 0.38200(15)
H19_5 H 0.0638 0.4002 0.4064
C24_5 C 0.02665(14) 0.4168(2) 0.00964(14)
C25_5 C 0.04942(14) 0.2406(3) 0.19343(13)
C26_5 C 0.07398(13) 0.1412(2) 0.30924(10)
H20_5 H 0.0814 0.1514 0.3344
H21_5 H 0.0906 0.1101 0.3079
C27_5 C 0.01274(13) 0.2060(2) 0.13492(13)
C28_5 C 0.05106(17) 0.3220(3) 0.33727(17)
C29_5 C 0.05158(11) 0.25301(19) 0.29213(11)
H23_5 H 0.0520 0.2890 0.2780
H24_5 H 0.0267 0.2390 0.2834
C30_5 C 0.17244(16) 0.1813(3) 0.31108(13)
C31_5 C 0.04735(14) 0.4352(2) 0.04560(13)
H25_5 H 0.0472 0.4132 0.0650
C32_5 C 0.02015(14) 0.2582(3) 0.12101(13)
C33_5 C 0.00267(17) 0.2660(3) 0.08026(15)
C35_5 C 0.19071(16) 0.2317(2) 0.33088(13)
H26_5 H 0.1781 0.2657 0.3339
C38_5 C 0.29131(19) 0.1858(4) 0.35837(19)
C42_5 C 0.05711(15) 0.0471(3) 0.34532(14)
H29_5 H 0.0804 0.0636 0.3567
C43_5 C 0.0142(2) 0.4815(4) 0.3747(2)
C44_5 C 0.02681(12) 0.1969(2) 0.17093(14)
H30_5 H 0.0210 0.1610 0.1801
C45_5 C 0.22892(19) 0.2321(3) 0.34688(12)
H31_5 H 0.2410 0.2659 0.3615
C47_5 C 0.04223(14) 0.3028(2) 0.14326(14)
H32_5 H 0.0470 0.3389 0.1334
C48_5 C 0.06931(13) 0.5214(2) 0.02163(17)
H33_5 H 0.0841 0.5567 0.0268
C49_5 C 0.06734(14) 0.4870(3) 0.04971(14)
H34_5 H 0.0810 0.5014 0.0731
C50_5 C 0.1913(2) 0.1349(3) 0.30463(16)
H35_5 H 0.1785 0.1019 0.2897
C56_5 C 0.02761(19) 0.4260(3) 0.3599(2)
C57_5 C 0.2302(2) 0.1344(3) 0.31988(19)
H41_5 H 0.2420 0.1012 0.3150
C62_5 C 0.03216(16) 0.0688(2) 0.31251(15)
C63_5 C 0.05780(12) 0.2959(2) 0.18043(13)
H44_5 H 0.0730 0.3263 0.1959
C64_5 C 0.01696(13) 0.16924(18) 0.00019(14)
C67_5 C 0.05115(16) 0.05412(19) 0.00696(17)
H46_5 H 0.0626 0.0156 0.0092
C68_5 C 0.05427(15) 0.0860(3) 0.03755(11)
H47_5 H 0.0678 0.0688 0.0603
C69_5 C 0.03718(16) 0.1436(2) 0.03416(11)
H48_5 H 0.0393 0.1649 0.0546
O5_5 O 0.01411(9) 0.31341(16) 0.06903(8)
O6_3 O 0.02652(18) 0.4969(2) 0.40331(11)
O8_3 O 0.30604(12) 0.2268(2) 0.37953(11)
O9_3 O 0.30620(13) 0.1476(2) 0.34884(14)
O10_5 O 0.13594(10) 0.17563(14) 0.29615(7)
O11_5 O 0.06563(8) 0.23931(13) 0.23050(8)
O12_5 O 0.06554(8) 0.26932(15) 0.32849(8)
O13_5 O 0.03781(8) 0.11690(14) 0.29355(7)
Zn6_3 Zn 0.355247(16) 0.17548(3) 0.383312(14)
C3_5 C 0.02135(17) 0.3212(4) 0.86980(16)
C5_5 C 0.01612(15) 0.2552(3) 0.86480(16)
C6_5 C 0.03290(17) 0.22207(18) 0.84735(16)
H3_5 H 0.0293 0.1791 0.8438
C9_5 C 0.05514(16) 0.2532(3) 0.83520(16)
H6_5 H 0.0664 0.2311 0.8235
C12_5 C 0.06060(15) 0.3175(3) 0.84051(15)
H8_5 H 0.0755 0.3383 0.8324
C14_5 C 0.0438(2) 0.35061(19) 0.85796(19)
H10_5 H 0.0479 0.3935 0.8617
C34_5 C 0.02834(13) 0.4496(2) 0.98108(14)
C61_5 C 0.04896(13) 0.5023(2) 0.98588(13)
H43_5 H 0.0494 0.5242 0.9666
C65_5 C 0.01384(13) 0.1374(3) 0.96960(10)
C66_5 C 0.03094(17) 0.0798(3) 0.97299(13)
H45_5 H 0.0288 0.0585 0.9525
N2_5 N 0.00415(10) 0.36702(17) 0.99557(10)
N6_5 N 0.00567(10) 0.41817(19) 0.95026(9)
N15_5 N 0.00197(13) 0.3448(2) 0.88552(11)
O15_3 O 0.02041(14) 0.0942(2) 0.89336(11)
O16_3 O 0.02652(18) 0.5031(2) 0.90331(11)
C37_5 C 0.0011(2) 0.9221(3) 0.3641(2)
C40_5 C 0.0123(2) 0.9716(3) 0.34570(16)
C53_5 C 0.04563(18) 0.9987(3) 0.36086(14)
H38_5 H 0.0621 0.9839 0.3833
O2_3 O 0.02041(14) 0.9058(2) 0.39336(11)
Zn2_5 Zn 0.987828(15) 0.29467(3) 0.017722(12)
H9_5 H 0.9937 0.4315 0.3104
C19_5 C 0.8689(3) 0.3152(3) 0.0261(2)
H16_5 H 0.8665 0.3180 0.0474
H22_5 H 0.9976 0.1756 0.1194
C41_5 C 0.99919(16) 0.0418(2) 0.29568(12)
H28_5 H 0.9832 0.0554 0.2727
C51_5 C 0.90391(18) 0.3072(3) 0.02928(16)
H36_5 H 0.9244 0.3018 0.0511
O4_5 O 0.98172(12) 0.22840(18) 0.06104(9)
O7_3 O 0.99290(12) 0.5154(2) 0.35018(12)
Zn7_3 Zn 0.993615(15) 0.56886(3) 0.397717(13)
Zn1_5 Zn 0.953467(13) 0.30231(2) 0.922203(11)
Zn3_3 Zn 0.855247(16) 0.32452(3) 0.883312(14)
Zn4_3 Zn 0.993615(15) 0.43114(3) 0.897717(13)
Zn5_3 Zn 0.975001(18) 0.15534(3) 0.890259(15)
C2_5 C 0.8871(2) 0.1153(3) 0.82293(19)
H1_5 H 0.9061 0.0912 0.8231
C4_5 C 0.8511(3) 0.1028(4) 0.8005(3)
H2_5 H 0.8462 0.0692 0.7847
C8_5 C 0.8211(2) 0.1368(5) 0.7994(3)
H5_5 H 0.7976 0.1237 0.7846
C10_5 C 0.8272(2) 0.1906(4) 0.8209(2)
H7_5 H 0.8084 0.2162 0.8196
C11_5 C 0.8924(2) 0.1673(3) 0.84539(17)
C15_5 C 0.8781(2) 0.5517(3) 0.82036(18)
H11_5 H 0.8768 0.5901 0.8091
C18_5 C 0.83694(19) 0.3193(4) 0.9936(2)
H15_5 H 0.8143 0.3211 0.9934
C23_5 C 0.9103(2) 0.4684(3) 0.85693(13)
C36_5 C 0.8770(2) 0.4448(3) 0.85337(15)
C46_5 C 0.9043(2) 0.3086(3) 0.9952(2)
C52_5 C 0.84451(17) 0.4716(3) 0.83371(16)
H37_5 H 0.8229 0.4545 0.8317
C54_5 C 0.84599(19) 0.5250(3) 0.8172(2)
H39_5 H 0.8243 0.5453 0.8029
C55_5 C 0.91195(18) 0.5243(3) 0.83944(16)
H40_5 H 0.9333 0.5409 0.8405
C58_5 C 0.8405(2) 0.3206(3) 0.96263(16)
H42_5 H 0.8201 0.3257 0.9408
C59_5 C 0.8638(2) 0.2034(4) 0.84469(18)
C60_5 C 0.87429(18) 0.3145(3) 0.9629(2)
N1_5 N 0.99397(13) 0.1750(2) 0.94279(10)
N3_5 N 0.98437(10) 0.22525(17) 0.95668(11)
N4_5 N 0.99828(11) 0.22370(17) 0.99230(10)
N5_5 N 0.99192(9) 0.36902(16) 0.95948(10)
N7_5 N 0.93880(11) 0.4306(2) 0.87841(10)
N8_5 N 0.92308(13) 0.38396(18) 0.88754(8)
N9_5 N 0.88612(13) 0.3904(2) 0.87317(11)
N10_5 N 0.87749(15) 0.2505(2) 0.86898(12)
N11_5 N 0.91308(14) 0.2409(2) 0.88387(10)
N12_5 N 0.92296(12) 0.1905(2) 0.87069(12)
N13_5 N 0.99549(12) 0.2412(2) 0.88173(11)
N14_5 N 0.98681(10) 0.2962(2) 0.89280(9)
N16_5 N 0.93331(11) 0.30375(16) 0.98802(11)
N17_5 N 0.91977(13) 0.30910(16) 0.95261(12)
N18_5 N 0.88433(14) 0.31508(18) 0.93700(10)
O3_5 O 0.95333(12) 0.06493(16) 0.90617(10)
O14_3 O 0.97006(12) 0.10390(19) 0.84615(11)
O17_3 O 0.99290(12) 0.4846(2) 0.85018(12)
O18_3 O 0.80604(12) 0.2732(2) 0.87953(11)
O19_3 O 0.80620(13) 0.3524(2) 0.84884(14)
H49_5 H 0.936488 0.076889 0.916496
H50_5 H 0.94029 0.0385594 0.884424
C39_5 C 0.98867(14) 0.9934(2) 0.31231(17)
H27_5 H 0.9656 0.9762 0.3006
O1_3 O 0.97006(12) 0.89610(19) 0.34615(11)
Zn8_3 Zn 0.975001(18) 0.84466(3) 0.390259(15)
C48_6 C 0.56931(13) 0.0214(2) 0.02163(17)
H33_6 H 0.5841 0.0567 0.0268
H34_6 H 0.5810 0.0014 0.0731
O7_4 O 0.49290(12) 0.0154(2) 0.35018(12)
Zn7_4 Zn 0.493615(15) 0.06886(3) 0.397717(13)
C15_6 C 0.3781(2) 0.0517(3) 0.82036(18)
H11_6 H 0.3768 0.0901 0.8091
C54_6 C 0.34599(19) 0.0250(3) 0.8172(2)
H39_6 H 0.3243 0.0453 0.8029
C55_6 C 0.41195(18) 0.0243(3) 0.83944(16)
H40_6 H 0.4333 0.0409 0.8405
C61_6 C 0.54896(13) 0.0023(2) 0.98588(13)
H43_6 H 0.5494 0.0242 0.9666
O16_4 O 0.52652(18) 0.0031(2) 0.90331(11)
Zn2_6 Zn 0.487828(15) 0.79467(3) 0.017722(12)
C1_6 C 0.57491(13) 0.7004(2) 0.28846(10)
C7_6 C 0.56661(18) 0.8375(3) 0.37215(16)
H4_6 H 0.5855 0.8140 0.3891
C13_6 C 0.51304(15) 0.9079(3) 0.3267(2)
H9_6 H 0.4937 0.9315 0.3104
C16_6 C 0.52338(16) 0.8577(3) 0.31330(14)
H12_6 H 0.5121 0.8480 0.2889
C17_6 C 0.61462(12) 0.72251(19) 0.30350(10)
H13_6 H 0.6158 0.7619 0.2923
H14_6 H 0.6243 0.7292 0.3293
C19_6 C 0.3689(3) 0.8152(3) 0.0261(2)
H16_6 H 0.3665 0.8180 0.0474
C20_6 C 0.7500(2) 0.6832(3) 0.34172(16)
C21_6 C 0.56003(10) 0.68606(18) 0.24788(9)
H17_6 H 0.5725 0.6500 0.2442
H18_6 H 0.5344 0.6765 0.2379
C22_6 C 0.5534(2) 0.8899(4) 0.38200(15)
H19_6 H 0.5638 0.9002 0.4064
C24_6 C 0.52665(14) 0.9168(2) 0.00964(14)
C25_6 C 0.54942(14) 0.7406(3) 0.19343(13)
C26_6 C 0.57398(13) 0.6412(2) 0.30924(10)
H20_6 H 0.5814 0.6514 0.3344
H21_6 H 0.5906 0.6101 0.3079
C27_6 C 0.51274(13) 0.7060(2) 0.13492(13)
H22_6 H 0.4976 0.6756 0.1194
C28_6 C 0.55106(17) 0.8220(3) 0.33727(17)
C29_6 C 0.55158(11) 0.75301(19) 0.29213(11)
H23_6 H 0.5520 0.7890 0.2780
H24_6 H 0.5267 0.7390 0.2834
C30_6 C 0.67244(16) 0.6813(3) 0.31108(13)
C31_6 C 0.54735(14) 0.9352(2) 0.04560(13)
H25_6 H 0.5472 0.9132 0.0650
C32_6 C 0.52015(14) 0.7582(3) 0.12101(13)
C33_6 C 0.50267(17) 0.7660(3) 0.08026(15)
C35_6 C 0.69071(16) 0.7317(2) 0.33088(13)
H26_6 H 0.6781 0.7657 0.3339
C37_6 C 0.5011(2) 0.4221(3) 0.3641(2)
C38_6 C 0.79131(19) 0.6858(4) 0.35837(19)
C39_6 C 0.48867(14) 0.4934(2) 0.31231(17)
H27_6 H 0.4656 0.4762 0.3006
C40_6 C 0.5123(2) 0.4716(3) 0.34570(16)
C41_6 C 0.49919(16) 0.5418(2) 0.29568(12)
H28_6 H 0.4832 0.5554 0.2727
C42_6 C 0.55711(15) 0.5471(3) 0.34532(14)
H29_6 H 0.5804 0.5636 0.3567
C43_6 C 0.5142(2) 0.9815(4) 0.3747(2)
C44_6 C 0.52681(12) 0.6969(2) 0.17093(14)
H30_6 H 0.5210 0.6610 0.1801
C45_6 C 0.72892(19) 0.7321(3) 0.34688(12)
H31_6 H 0.7410 0.7659 0.3615
C47_6 C 0.54223(14) 0.8028(2) 0.14326(14)
H32_6 H 0.5470 0.8389 0.1334
C49_6 C 0.56734(14) 0.9870(3) 0.04971(14)
C50_6 C 0.6913(2) 0.6349(3) 0.30463(16)
H35_6 H 0.6785 0.6019 0.2897
C51_6 C 0.40391(18) 0.8072(3) 0.02928(16)
H36_6 H 0.4244 0.8018 0.0511
C53_6 C 0.54563(18) 0.4987(3) 0.36086(14)
H38_6 H 0.5621 0.4839 0.3833
C56_6 C 0.52761(19) 0.9260(3) 0.3599(2)
C57_6 C 0.7302(2) 0.6344(3) 0.31988(19)
H41_6 H 0.7420 0.6012 0.3150
C62_6 C 0.53216(16) 0.5688(2) 0.31251(15)
C63_6 C 0.55780(12) 0.7959(2) 0.18043(13)
H44_6 H 0.5730 0.8263 0.1959
C64_6 C 0.51696(13) 0.66924(18) 0.00019(14)
C67_6 C 0.55115(16) 0.55412(19) 0.00696(17)
H46_6 H 0.5626 0.5156 0.0092
C68_6 C 0.55427(15) 0.5860(3) 0.03755(11)
H47_6 H 0.5678 0.5688 0.0603
C69_6 C 0.53718(16) 0.6436(2) 0.03416(11)
H48_6 H 0.5393 0.6649 0.0546
O1_4 O 0.47006(12) 0.39610(19) 0.34615(11)
O2_4 O 0.52041(14) 0.4058(2) 0.39336(11)
O4_6 O 0.48172(12) 0.72840(18) 0.06104(9)
O5_6 O 0.51411(9) 0.81341(16) 0.06903(8)
O6_4 O 0.52652(18) 0.9969(2) 0.40331(11)
O8_4 O 0.80604(12) 0.7268(2) 0.37953(11)
O9_4 O 0.80620(13) 0.6476(2) 0.34884(14)
O10_6 O 0.63594(10) 0.67563(14) 0.29615(7)
O11_6 O 0.56563(8) 0.73931(13) 0.23050(8)
O12_6 O 0.56554(8) 0.76932(15) 0.32849(8)
O13_6 O 0.53781(8) 0.61690(14) 0.29355(7)
Zn6_4 Zn 0.855247(16) 0.67548(3) 0.383312(14)
Zn8_4 Zn 0.475001(18) 0.34466(3) 0.390259(15)
Zn1_6 Zn 0.453467(13) 0.80231(2) 0.922203(11)
Zn3_4 Zn 0.355247(16) 0.82452(3) 0.883312(14)
Zn4_4 Zn 0.493615(15) 0.93114(3) 0.897717(13)
Zn5_4 Zn 0.475001(18) 0.65534(3) 0.890259(15)
C2_6 C 0.3871(2) 0.6153(3) 0.82293(19)
H1_6 H 0.4061 0.5912 0.8231
C3_6 C 0.52135(17) 0.8212(4) 0.86980(16)
C4_6 C 0.3511(3) 0.6028(4) 0.8005(3)
H2_6 H 0.3462 0.5692 0.7847
C5_6 C 0.51612(15) 0.7552(3) 0.86480(16)
C6_6 C 0.53290(17) 0.72207(18) 0.84735(16)
H3_6 H 0.5293 0.6791 0.8438
C8_6 C 0.3211(2) 0.6368(5) 0.7994(3)
H5_6 H 0.2976 0.6237 0.7846
C9_6 C 0.55514(16) 0.7532(3) 0.83520(16)
H6_6 H 0.5664 0.7311 0.8235
C10_6 C 0.3272(2) 0.6906(4) 0.8209(2)
H7_6 H 0.3084 0.7162 0.8196
C11_6 C 0.3924(2) 0.6673(3) 0.84539(17)
C12_6 C 0.56060(15) 0.8175(3) 0.84051(15)
H8_6 H 0.5755 0.8383 0.8324
C14_6 C 0.5438(2) 0.85061(19) 0.85796(19)
H10_6 H 0.5479 0.8935 0.8617
C18_6 C 0.33694(19) 0.8193(4) 0.9936(2)
H15_6 H 0.3143 0.8211 0.9934
C23_6 C 0.4103(2) 0.9684(3) 0.85693(13)
C34_6 C 0.52834(13) 0.9496(2) 0.98108(14)
C36_6 C 0.3770(2) 0.9448(3) 0.85337(15)
C46_6 C 0.4043(2) 0.8086(3) 0.9952(2)
C52_6 C 0.34451(17) 0.9716(3) 0.83371(16)
H37_6 H 0.3229 0.9545 0.8317
C58_6 C 0.3405(2) 0.8206(3) 0.96263(16)
H42_6 H 0.3201 0.8257 0.9408
C59_6 C 0.3638(2) 0.7034(4) 0.84469(18)
C60_6 C 0.37429(18) 0.8145(3) 0.9629(2)
C65_6 C 0.51384(13) 0.6374(3) 0.96960(10)
C66_6 C 0.53094(17) 0.5798(3) 0.97299(13)
H45_6 H 0.5288 0.5585 0.9525
N1_6 N 0.49397(13) 0.6750(2) 0.94279(10)
N2_6 N 0.50415(10) 0.86702(17) 0.99557(10)
N3_6 N 0.48437(10) 0.72525(17) 0.95668(11)
N4_6 N 0.49828(11) 0.72370(17) 0.99230(10)
N5_6 N 0.49192(9) 0.86902(16) 0.95948(10)
N6_6 N 0.50567(10) 0.91817(19) 0.95026(9)
N7_6 N 0.43880(11) 0.9306(2) 0.87841(10)
N8_6 N 0.42308(13) 0.88396(18) 0.88754(8)
N9_6 N 0.38612(13) 0.8904(2) 0.87317(11)
N10_6 N 0.37749(15) 0.7505(2) 0.86898(12)
N11_6 N 0.41308(14) 0.7409(2) 0.88387(10)
N12_6 N 0.42296(12) 0.6905(2) 0.87069(12)
N13_6 N 0.49549(12) 0.7412(2) 0.88173(11)
N14_6 N 0.48681(10) 0.7962(2) 0.89280(9)
N15_6 N 0.50197(13) 0.8448(2) 0.88552(11)
N16_6 N 0.43331(11) 0.80375(16) 0.98802(11)
N17_6 N 0.41977(13) 0.80910(16) 0.95261(12)
N18_6 N 0.38433(14) 0.81508(18) 0.93700(10)
O3_6 O 0.45333(12) 0.56493(16) 0.90617(10)
O14_4 O 0.47006(12) 0.60390(19) 0.84615(11)
O15_4 O 0.52041(14) 0.5942(2) 0.89336(11)
O17_4 O 0.49290(12) 0.9846(2) 0.85018(12)
O18_4 O 0.30604(12) 0.7732(2) 0.87953(11)
O19_4 O 0.30620(13) 0.8524(2) 0.84884(14)
H49_6 H 0.436488 0.576889 0.916496
H50_6 H 0.44029 0.538559 0.884424
C37_7 C 0.0011(2) 0.0779(3) 0.8641(2)
C40_7 C 0.0123(2) 0.0284(3) 0.84570(16)
C53_7 C 0.04563(18) 0.0013(3) 0.86086(14)
H38_7 H 0.0621 0.0161 0.8833
C1_7 C 0.07491(13) 0.7996(2) 0.78846(10)
C3_7 C 0.02135(17) 0.6788(4) 0.36980(16)
C5_7 C 0.01612(15) 0.7448(3) 0.36480(16)
C6_7 C 0.03290(17) 0.77793(18) 0.34735(16)
H3_7 H 0.0293 0.8209 0.3438
C7_7 C 0.06661(18) 0.6625(3) 0.87215(16)
H4_7 H 0.0855 0.6860 0.8891
C9_7 C 0.05514(16) 0.7468(3) 0.33520(16)
H6_7 H 0.0664 0.7689 0.3235
C12_7 C 0.06060(15) 0.6825(3) 0.34051(15)
H8_7 H 0.0755 0.6617 0.3324
C13_7 C 0.01304(15) 0.5921(3) 0.8267(2)
C14_7 C 0.0438(2) 0.64939(19) 0.35796(19)
H10_7 H 0.0479 0.6065 0.3617
C16_7 C 0.02338(16) 0.6423(3) 0.81330(14)
H12_7 H 0.0121 0.6520 0.7889
C17_7 C 0.11462(12) 0.77749(19) 0.80350(10)
H13_7 H 0.1158 0.7381 0.7923
H14_7 H 0.1243 0.7708 0.8293
C20_7 C 0.2500(2) 0.8168(3) 0.84172(16)
C21_7 C 0.06003(10) 0.81394(18) 0.74788(9)
H17_7 H 0.0725 0.8500 0.7442
H18_7 H 0.0344 0.8235 0.7379
C22_7 C 0.0534(2) 0.6101(4) 0.88200(15)
H19_7 H 0.0638 0.5998 0.9064
C24_7 C 0.02665(14) 0.5832(2) 0.50964(14)
C25_7 C 0.04942(14) 0.7594(3) 0.69343(13)
C26_7 C 0.07398(13) 0.8588(2) 0.80924(10)
H20_7 H 0.0814 0.8486 0.8344
H21_7 H 0.0906 0.8899 0.8079
C27_7 C 0.01274(13) 0.7940(2) 0.63492(13)
C28_7 C 0.05106(17) 0.6780(3) 0.83727(17)
C29_7 C 0.05158(11) 0.74699(19) 0.79213(11)
H23_7 H 0.0520 0.7110 0.7780
H24_7 H 0.0267 0.7610 0.7834
C30_7 C 0.17244(16) 0.8187(3) 0.81108(13)
C31_7 C 0.04735(14) 0.5648(2) 0.54560(13)
H25_7 H 0.0472 0.5868 0.5650
C32_7 C 0.02015(14) 0.7418(3) 0.62101(13)
C33_7 C 0.00267(17) 0.7340(3) 0.58026(15)
C34_7 C 0.02834(13) 0.5504(2) 0.48108(14)
C35_7 C 0.19071(16) 0.7683(2) 0.83088(13)
H26_7 H 0.1781 0.7343 0.8339
C38_7 C 0.29131(19) 0.8142(4) 0.85837(19)
C42_7 C 0.05711(15) 0.9529(3) 0.84532(14)
H29_7 H 0.0804 0.9364 0.8567
C43_7 C 0.0142(2) 0.5185(4) 0.8747(2)
C44_7 C 0.02681(12) 0.8031(2) 0.67093(14)
H30_7 H 0.0210 0.8390 0.6801
C45_7 C 0.22892(19) 0.7679(3) 0.84688(12)
H31_7 H 0.2410 0.7341 0.8615
C47_7 C 0.04223(14) 0.6972(2) 0.64326(14)
H32_7 H 0.0470 0.6611 0.6334
C48_7 C 0.06931(13) 0.4786(2) 0.52163(17)
H33_7 H 0.0841 0.4433 0.5268
C49_7 C 0.06734(14) 0.5130(3) 0.54971(14)
H34_7 H 0.0810 0.4986 0.5731
C50_7 C 0.1913(2) 0.8651(3) 0.80463(16)
H35_7 H 0.1785 0.8981 0.7897
C56_7 C 0.02761(19) 0.5740(3) 0.8599(2)
C57_7 C 0.2302(2) 0.8656(3) 0.81988(19)
H41_7 H 0.2420 0.8988 0.8150
C61_7 C 0.04896(13) 0.4977(2) 0.48588(13)
H43_7 H 0.0494 0.4758 0.4666
C62_7 C 0.03216(16) 0.9312(2) 0.81251(15)
C63_7 C 0.05780(12) 0.7041(2) 0.68043(13)
H44_7 H 0.0730 0.6737 0.6959
C64_7 C 0.01696(13) 0.83076(18) 0.50019(14)
C65_7 C 0.01384(13) 0.8626(3) 0.46960(10)
C66_7 C 0.03094(17) 0.9202(3) 0.47299(13)
H45_7 H 0.0288 0.9415 0.4525
C67_7 C 0.05115(16) 0.94588(19) 0.50696(17)
H46_7 H 0.0626 0.9844 0.5092
C68_7 C 0.05427(15) 0.9140(3) 0.53755(11)
H47_7 H 0.0678 0.9312 0.5603
C69_7 C 0.03718(16) 0.8564(2) 0.53416(11)
H48_7 H 0.0393 0.8351 0.5546
N2_7 N 0.00415(10) 0.63298(17) 0.49557(10)
N6_7 N 0.00567(10) 0.58183(19) 0.45026(9)
N15_7 N 0.00197(13) 0.6552(2) 0.38552(11)
O5_7 O 0.01411(9) 0.68659(16) 0.56903(8)
O10_7 O 0.13594(10) 0.82437(14) 0.79615(7)
O11_7 O 0.06563(8) 0.76069(13) 0.73050(8)
O12_7 O 0.06554(8) 0.73068(15) 0.82849(8)
O13_7 O 0.03781(8) 0.88310(14) 0.79355(7)
C39_7 C 0.98867(14) 0.0066(2) 0.81231(17)
H27_7 H 0.9656 0.0238 0.8006
Zn1_7 Zn 0.953467(13) 0.69769(2) 0.422203(11)
Zn2_7 Zn 0.987828(15) 0.70533(3) 0.517722(12)
C2_7 C 0.8871(2) 0.8847(3) 0.32293(19)
H1_7 H 0.9061 0.9088 0.3231
C4_7 C 0.8511(3) 0.8972(4) 0.3005(3)
H2_7 H 0.8462 0.9308 0.2847
C8_7 C 0.8211(2) 0.8632(5) 0.2994(3)
H5_7 H 0.7976 0.8763 0.2846
C10_7 C 0.8272(2) 0.8094(4) 0.3209(2)
H7_7 H 0.8084 0.7838 0.3196
C11_7 C 0.8924(2) 0.8327(3) 0.34539(17)
H9_7 H 0.9937 0.5685 0.8104
C15_7 C 0.8781(2) 0.4483(3) 0.32036(18)
H11_7 H 0.8768 0.4099 0.3091
C18_7 C 0.83694(19) 0.6807(4) 0.4936(2)
H15_7 H 0.8143 0.6789 0.4934
C19_7 C 0.8689(3) 0.6848(3) 0.5261(2)
H16_7 H 0.8665 0.6820 0.5474
C23_7 C 0.9103(2) 0.5316(3) 0.35693(13)
H22_7 H 0.9976 0.8244 0.6194
C36_7 C 0.8770(2) 0.5552(3) 0.35337(15)
C41_7 C 0.99919(16) 0.9582(2) 0.79568(12)
H28_7 H 0.9832 0.9446 0.7727
C46_7 C 0.9043(2) 0.6914(3) 0.4952(2)
C51_7 C 0.90391(18) 0.6928(3) 0.52928(16)
H36_7 H 0.9244 0.6982 0.5511
C52_7 C 0.84451(17) 0.5284(3) 0.33371(16)
H37_7 H 0.8229 0.5455 0.3317
C54_7 C 0.84599(19) 0.4750(3) 0.3172(2)
H39_7 H 0.8243 0.4547 0.3029
C55_7 C 0.91195(18) 0.4757(3) 0.33944(16)
H40_7 H 0.9333 0.4591 0.3405
C58_7 C 0.8405(2) 0.6794(3) 0.46263(16)
H42_7 H 0.8201 0.6743 0.4408
C59_7 C 0.8638(2) 0.7966(4) 0.34469(18)
C60_7 C 0.87429(18) 0.6855(3) 0.4629(2)
N1_7 N 0.99397(13) 0.8250(2) 0.44279(10)
N3_7 N 0.98437(10) 0.77475(17) 0.45668(11)
N4_7 N 0.99828(11) 0.77630(17) 0.49230(10)
N5_7 N 0.99192(9) 0.63098(16) 0.45948(10)
N7_7 N 0.93880(11) 0.5694(2) 0.37841(10)
N8_7 N 0.92308(13) 0.61604(18) 0.38754(8)
N9_7 N 0.88612(13) 0.6096(2) 0.37317(11)
N10_7 N 0.87749(15) 0.7495(2) 0.36898(12)
N11_7 N 0.91308(14) 0.7591(2) 0.38387(10)
N12_7 N 0.92296(12) 0.8095(2) 0.37069(12)
N13_7 N 0.99549(12) 0.7588(2) 0.38173(11)
N14_7 N 0.98681(10) 0.7038(2) 0.39280(9)
N16_7 N 0.93331(11) 0.69625(16) 0.48802(11)
N17_7 N 0.91977(13) 0.69090(16) 0.45261(12)
N18_7 N 0.88433(14) 0.68492(18) 0.43700(10)
O3_7 O 0.95333(12) 0.93507(16) 0.40617(10)
O4_7 O 0.98172(12) 0.77160(18) 0.56104(9)
H49_7 H 0.936488 0.923111 0.416496
H50_7 H 0.94029 0.961441 0.384424
Zn1_8 Zn 0.453467(13) 0.19769(2) 0.422203(11)
Zn2_8 Zn 0.487828(15) 0.20533(3) 0.517722(12)
C1_8 C 0.57491(13) 0.2996(2) 0.78846(10)
C2_8 C 0.3871(2) 0.3847(3) 0.32293(19)
H1_8 H 0.4061 0.4088 0.3231
C3_8 C 0.52135(17) 0.1788(4) 0.36980(16)
C4_8 C 0.3511(3) 0.3972(4) 0.3005(3)
H2_8 H 0.3462 0.4308 0.2847
C5_8 C 0.51612(15) 0.2448(3) 0.36480(16)
C6_8 C 0.53290(17) 0.27793(18) 0.34735(16)
H3_8 H 0.5293 0.3209 0.3438
C7_8 C 0.56661(18) 0.1625(3) 0.87215(16)
H4_8 H 0.5855 0.1860 0.8891
C8_8 C 0.3211(2) 0.3632(5) 0.2994(3)
H5_8 H 0.2976 0.3763 0.2846
C9_8 C 0.55514(16) 0.2468(3) 0.33520(16)
H6_8 H 0.5664 0.2689 0.3235
C10_8 C 0.3272(2) 0.3094(4) 0.3209(2)
H7_8 H 0.3084 0.2838 0.3196
C11_8 C 0.3924(2) 0.3327(3) 0.34539(17)
C12_8 C 0.56060(15) 0.1825(3) 0.34051(15)
H8_8 H 0.5755 0.1617 0.3324
C13_8 C 0.51304(15) 0.0921(3) 0.8267(2)
H9_8 H 0.4937 0.0685 0.8104
C14_8 C 0.5438(2) 0.14939(19) 0.35796(19)
H10_8 H 0.5479 0.1065 0.3617
C16_8 C 0.52338(16) 0.1423(3) 0.81330(14)
H12_8 H 0.5121 0.1520 0.7889
C17_8 C 0.61462(12) 0.27749(19) 0.80350(10)
H13_8 H 0.6158 0.2381 0.7923
H14_8 H 0.6243 0.2708 0.8293
C18_8 C 0.33694(19) 0.1807(4) 0.4936(2)
H15_8 H 0.3143 0.1789 0.4934
C19_8 C 0.3689(3) 0.1848(3) 0.5261(2)
H16_8 H 0.3665 0.1820 0.5474
C20_8 C 0.7500(2) 0.3168(3) 0.84172(16)
C21_8 C 0.56003(10) 0.31394(18) 0.74788(9)
H17_8 H 0.5725 0.3500 0.7442
H18_8 H 0.5344 0.3235 0.7379
C22_8 C 0.5534(2) 0.1101(4) 0.88200(15)
H19_8 H 0.5638 0.0998 0.9064
C23_8 C 0.4103(2) 0.0316(3) 0.35693(13)
C24_8 C 0.52665(14) 0.0832(2) 0.50964(14)
C25_8 C 0.54942(14) 0.2594(3) 0.69343(13)
C26_8 C 0.57398(13) 0.3588(2) 0.80924(10)
H20_8 H 0.5814 0.3486 0.8344
H21_8 H 0.5906 0.3899 0.8079
C27_8 C 0.51274(13) 0.2940(2) 0.63492(13)
H22_8 H 0.4976 0.3244 0.6194
C28_8 C 0.55106(17) 0.1780(3) 0.83727(17)
C29_8 C 0.55158(11) 0.24699(19) 0.79213(11)
H23_8 H 0.5520 0.2110 0.7780
H24_8 H 0.5267 0.2610 0.7834
C30_8 C 0.67244(16) 0.3187(3) 0.81108(13)
C31_8 C 0.54735(14) 0.0648(2) 0.54560(13)
H25_8 H 0.5472 0.0868 0.5650
C32_8 C 0.52015(14) 0.2418(3) 0.62101(13)
C33_8 C 0.50267(17) 0.2340(3) 0.58026(15)
C34_8 C 0.52834(13) 0.0504(2) 0.48108(14)
C35_8 C 0.69071(16) 0.2683(2) 0.83088(13)
H26_8 H 0.6781 0.2343 0.8339
C36_8 C 0.3770(2) 0.0552(3) 0.35337(15)
C37_8 C 0.5011(2) 0.5779(3) 0.8641(2)
C38_8 C 0.79131(19) 0.3142(4) 0.85837(19)
C39_8 C 0.48867(14) 0.5066(2) 0.81231(17)
H27_8 H 0.4656 0.5238 0.8006
C40_8 C 0.5123(2) 0.5284(3) 0.84570(16)
C41_8 C 0.49919(16) 0.4582(2) 0.79568(12)
H28_8 H 0.4832 0.4446 0.7727
C42_8 C 0.55711(15) 0.4529(3) 0.84532(14)
H29_8 H 0.5804 0.4364 0.8567
C43_8 C 0.5142(2) 0.0185(4) 0.8747(2)
C44_8 C 0.52681(12) 0.3031(2) 0.67093(14)
H30_8 H 0.5210 0.3390 0.6801
C45_8 C 0.72892(19) 0.2679(3) 0.84688(12)
H31_8 H 0.7410 0.2341 0.8615
C46_8 C 0.4043(2) 0.1914(3) 0.4952(2)
C47_8 C 0.54223(14) 0.1972(2) 0.64326(14)
H32_8 H 0.5470 0.1611 0.6334
C49_8 C 0.56734(14) 0.0130(3) 0.54971(14)
C50_8 C 0.6913(2) 0.3651(3) 0.80463(16)
H35_8 H 0.6785 0.3981 0.7897
C51_8 C 0.40391(18) 0.1928(3) 0.52928(16)
H36_8 H 0.4244 0.1982 0.5511
C52_8 C 0.34451(17) 0.0284(3) 0.33371(16)
H37_8 H 0.3229 0.0455 0.3317
C53_8 C 0.54563(18) 0.5013(3) 0.86086(14)
H38_8 H 0.5621 0.5161 0.8833
C56_8 C 0.52761(19) 0.0740(3) 0.8599(2)
C57_8 C 0.7302(2) 0.3656(3) 0.81988(19)
H41_8 H 0.7420 0.3988 0.8150
C58_8 C 0.3405(2) 0.1794(3) 0.46263(16)
H42_8 H 0.3201 0.1743 0.4408
C59_8 C 0.3638(2) 0.2966(4) 0.34469(18)
C60_8 C 0.37429(18) 0.1855(3) 0.4629(2)
C62_8 C 0.53216(16) 0.4312(2) 0.81251(15)
C63_8 C 0.55780(12) 0.2041(2) 0.68043(13)
H44_8 H 0.5730 0.1737 0.6959
C64_8 C 0.51696(13) 0.33076(18) 0.50019(14)
C65_8 C 0.51384(13) 0.3626(3) 0.46960(10)
C66_8 C 0.53094(17) 0.4202(3) 0.47299(13)
H45_8 H 0.5288 0.4415 0.4525
C67_8 C 0.55115(16) 0.44588(19) 0.50696(17)
H46_8 H 0.5626 0.4844 0.5092
C68_8 C 0.55427(15) 0.4140(3) 0.53755(11)
H47_8 H 0.5678 0.4312 0.5603
C69_8 C 0.53718(16) 0.3564(2) 0.53416(11)
H48_8 H 0.5393 0.3351 0.5546
N1_8 N 0.49397(13) 0.3250(2) 0.44279(10)
N2_8 N 0.50415(10) 0.13298(17) 0.49557(10)
N3_8 N 0.48437(10) 0.27475(17) 0.45668(11)
N4_8 N 0.49828(11) 0.27630(17) 0.49230(10)
N5_8 N 0.49192(9) 0.13098(16) 0.45948(10)
N6_8 N 0.50567(10) 0.08183(19) 0.45026(9)
N7_8 N 0.43880(11) 0.0694(2) 0.37841(10)
N8_8 N 0.42308(13) 0.11604(18) 0.38754(8)
N9_8 N 0.38612(13) 0.1096(2) 0.37317(11)
N10_8 N 0.37749(15) 0.2495(2) 0.36898(12)
N11_8 N 0.41308(14) 0.2591(2) 0.38387(10)
N12_8 N 0.42296(12) 0.3095(2) 0.37069(12)
N13_8 N 0.49549(12) 0.2588(2) 0.38173(11)
N14_8 N 0.48681(10) 0.2038(2) 0.39280(9)
N15_8 N 0.50197(13) 0.1552(2) 0.38552(11)
N16_8 N 0.43331(11) 0.19625(16) 0.48802(11)
N17_8 N 0.41977(13) 0.19090(16) 0.45261(12)
N18_8 N 0.38433(14) 0.18492(18) 0.43700(10)
O3_8 O 0.45333(12) 0.43507(16) 0.40617(10)
O4_8 O 0.48172(12) 0.27160(18) 0.56104(9)
O5_8 O 0.51411(9) 0.18659(16) 0.56903(8)
O10_8 O 0.63594(10) 0.32437(14) 0.79615(7)
O11_8 O 0.56563(8) 0.26069(13) 0.73050(8)
O12_8 O 0.56554(8) 0.23068(15) 0.82849(8)
O13_8 O 0.53781(8) 0.38310(14) 0.79355(7)
H49_8 H 0.436488 0.423111 0.416496
H50_8 H 0.44029 0.461441 0.384424
C15_8 C 0.3781(2) 0.9483(3) 0.32036(18)
H11_8 H 0.3768 0.9099 0.3091
C48_8 C 0.56931(13) 0.9786(2) 0.52163(17)
H33_8 H 0.5841 0.9433 0.5268
H34_8 H 0.5810 0.9986 0.5731
C54_8 C 0.34599(19) 0.9750(3) 0.3172(2)
H39_8 H 0.3243 0.9547 0.3029
C55_8 C 0.41195(18) 0.9757(3) 0.33944(16)
H40_8 H 0.4333 0.9591 0.3405
C61_8 C 0.54896(13) 0.9977(2) 0.48588(13)
H43_8 H 0.5494 0.9758 0.4666
loop_
_geom_bond_atom_site_label_1
_geom_bond_atom_site_label_2
_geom_bond_site_symmetry_1
_geom_bond_site_symmetry_2
Zn1 N3 1_555 1_555
Zn3 N9 1_555 1_555
Zn5 N1 1_555 1_555
C2 H1 1_555 1_555
C4 C2 1_555 1_555
H2 C4 1_555 1_555
C8 C4 1_555 1_555
H5 C8 1_555 1_555
C10 C8 1_555 1_555
H7 C10 1_555 1_555
C11 C2 1_555 1_555
C15 H11 1_555 1_555
C18 H15 1_555 1_555
C19 C18 1_555 1_555
H16 C19 1_555 1_555
C23 C36 1_555 1_555
C36 C52 1_555 1_555
H28 C41 1_555 1_555
C46 C51 1_555 1_555
C51 C19 1_555 1_555
H36 C51 1_555 1_555
C52 H37 1_555 1_555
C54 C15 1_555 1_555
H39 C54 1_555 1_555
C55 C15 1_555 1_555
H40 C55 1_555 1_555
C58 C18 1_555 1_555
H42 C58 1_555 1_555
C59 C10 1_555 1_555
C60 C46 1_555 1_555
N3 N1 1_555 1_555
N4 Zn2 1_555 1_555
N5 Zn1 1_555 1_555
N7 Zn4 1_555 1_555
N8 Zn1 1_555 1_555
N9 C36 1_555 1_555
N10 Zn3 1_555 1_555
N11 Zn1 1_555 1_555
N12 Zn5 1_555 1_555
N13 Zn5 1_555 1_555
N14 Zn1 1_555 1_555
N16 Zn2 1_555 1_555
N17 Zn1 1_555 1_555
N18 Zn3 1_555 1_555
O3 Zn5 1_555 1_555
O4 Zn2 1_555 1_555
O14 Zn5 1_555 1_555
O17 Zn4 1_555 1_555
O18 Zn3 1_555 1_555
O19 Zn3 1_555 1_555
C11 C59 1_555 1_555
C11 N12 1_555 1_555
C23 C55 1_555 1_555
C23 N7 1_555 1_555
C46 N16 1_555 1_555
C52 C54 1_555 1_555
C58 C60 1_555 1_555
C59 N10 1_555 1_555
C60 N18 1_555 1_555
N3 N4 1_555 1_555
N7 N8 1_555 1_555
N8 N9 1_555 1_555
N10 N11 1_555 1_555
N11 N12 1_555 1_555
N13 N14 1_555 1_555
N16 N17 1_555 1_555
N17 N18 1_555 1_555
O7 Zn7 1_555 1_555
O3 H49 1_555 1_555
O3 H50 1_555 1_555
C39 H27 1_555 1_555
Zn8 O1 1_555 1_555
C1 C17 1_555 1_555
C3 C5 1_555 1_555
C5 C6 1_555 1_555
C6 H3 1_555 1_555
C7 H4 1_555 1_555
C9 C6 1_555 1_555
H6 C9 1_555 1_555
C12 C9 1_555 1_555
H8 C12 1_555 1_555
C14 C3 1_555 1_555
H10 C14 1_555 1_555
C16 C13 1_555 1_555
H12 C16 1_555 1_555
C17 H13 1_555 1_555
H14 C17 1_555 1_555
C20 C38 1_555 1_555
C21 C1 1_555 1_555
H17 C21 1_555 1_555
H18 C21 1_555 1_555
C22 C7 1_555 1_555
H19 C22 1_555 1_555
C24 C31 1_555 1_555
C25 C44 1_555 1_555
C26 C1 1_555 1_555
H20 C26 1_555 1_555
H21 C26 1_555 1_555
C28 C7 1_555 1_555
C29 C1 1_555 1_555
H23 C29 1_555 1_555
H24 C29 1_555 1_555
C30 C35 1_555 1_555
C31 H25 1_555 1_555
C32 C27 1_555 1_555
C33 C32 1_555 1_555
C34 C24 1_555 1_555
C35 H26 1_555 1_555
C38 O8 1_555 1_555
C42 H29 1_555 1_555
C43 C56 1_555 1_555
C44 C27 1_555 1_555
H30 C44 1_555 1_555
C45 C20 1_555 1_555
H31 C45 1_555 1_555
C47 C32 1_555 1_555
H32 C47 1_555 1_555
C48 H33 1_555 1_555
C49 C31 1_555 1_555
H34 C49 1_555 1_555
C50 C30 1_555 1_555
H35 C50 1_555 1_555
C56 C13 1_555 1_555
C57 C20 1_555 1_555
H41 C57 1_555 1_555
C61 C34 1_555 1_555
H43 C61 1_555 1_555
C63 C25 1_555 1_555
H44 C63 1_555 1_555
C64 C65 1_555 1_555
C65 C66 1_555 1_555
C66 H45 1_555 1_555
C67 C66 1_555 1_555
H46 C67 1_555 1_555
C68 C67 1_555 1_555
H47 C68 1_555 1_555
C69 C64 1_555 1_555
H48 C69 1_555 1_555
N2 C24 1_555 1_555
N6 C34 1_555 1_555
O6 C43 1_555 1_555
O8 Zn6 1_555 1_555
O9 C38 1_555 1_555
O10 C17 1_555 1_555
O11 C21 1_555 1_555
O12 C28 1_555 1_555
O13 C26 1_555 1_555
Zn6 O9 1_555 1_555
C3 N15 1_555 1_555
C12 C14 1_555 1_555
C16 C28 1_555 1_555
C22 C56 1_555 1_555
C25 O11 1_555 1_555
C29 O12 1_555 1_555
C30 O10 1_555 1_555
C33 O5 1_555 1_555
C35 C45 1_555 1_555
C42 C62 1_555 1_555
C47 C63 1_555 1_555
C48 C49 1_555 1_555
C48 C61 1_555 1_555
C50 C57 1_555 1_555
C62 O13 1_555 1_555
C68 C69 1_555 1_555
C37 C40 1_555 1_555
C53 C40 1_555 1_555
H38 C53 1_555 1_555
O2 C37 1_555 1_555
C15_2 H11_2 1_555 1_555
C48_2 H33_2 1_555 1_555
C54_2 C15_2 1_555 1_555
H39_2 C54_2 1_555 1_555
C55_2 C15_2 1_555 1_555
H40_2 C55_2 1_555 1_555
H43_2 C61_2 1_555 1_555
C48_2 C61_2 1_555 1_555
O7_2 Zn7_2 1_555 1_555
Zn1_2 N3_2 1_555 1_555
Zn2_2 N2_2 1_555 1_555
Zn3_2 N9_2 1_555 1_555
Zn4_2 N6_2 1_555 1_555
Zn5_2 N1_2 1_555 1_555
C1_2 C17_2 1_555 1_555
C2_2 H1_2 1_555 1_555
C3_2 C5_2 1_555 1_555
C4_2 C2_2 1_555 1_555
H2_2 C4_2 1_555 1_555
C5_2 C6_2 1_555 1_555
C6_2 H3_2 1_555 1_555
C7_2 H4_2 1_555 1_555
C8_2 C4_2 1_555 1_555
H5_2 C8_2 1_555 1_555
C9_2 C6_2 1_555 1_555
H6_2 C9_2 1_555 1_555
C10_2 C8_2 1_555 1_555
H7_2 C10_2 1_555 1_555
C11_2 C2_2 1_555 1_555
C12_2 C9_2 1_555 1_555
H8_2 C12_2 1_555 1_555
C13_2 H9_2 1_555 1_555
C14_2 C3_2 1_555 1_555
H10_2 C14_2 1_555 1_555
C16_2 C13_2 1_555 1_555
H12_2 C16_2 1_555 1_555
C17_2 H13_2 1_555 1_555
H14_2 C17_2 1_555 1_555
C18_2 H15_2 1_555 1_555
C19_2 C18_2 1_555 1_555
H16_2 C19_2 1_555 1_555
C20_2 C38_2 1_555 1_555
C21_2 C1_2 1_555 1_555
H17_2 C21_2 1_555 1_555
H18_2 C21_2 1_555 1_555
C22_2 C7_2 1_555 1_555
H19_2 C22_2 1_555 1_555
C23_2 C36_2 1_555 1_555
C24_2 C31_2 1_555 1_555
C25_2 C44_2 1_555 1_555
C26_2 C1_2 1_555 1_555
H20_2 C26_2 1_555 1_555
H21_2 C26_2 1_555 1_555
C27_2 H22_2 1_555 1_555
C28_2 C7_2 1_555 1_555
C29_2 C1_2 1_555 1_555
H23_2 C29_2 1_555 1_555
H24_2 C29_2 1_555 1_555
C30_2 C35_2 1_555 1_555
C31_2 H25_2 1_555 1_555
C32_2 C27_2 1_555 1_555
C33_2 C32_2 1_555 1_555
C34_2 C24_2 1_555 1_555
C35_2 H26_2 1_555 1_555
C36_2 C52_2 1_555 1_555
C37_2 C40_2 1_555 1_555
C38_2 O8_2 1_555 1_555
C39_2 H27_2 1_555 1_555
C40_2 C39_2 1_555 1_555
C41_2 C39_2 1_555 1_555
H28_2 C41_2 1_555 1_555
C42_2 H29_2 1_555 1_555
C43_2 C56_2 1_555 1_555
C44_2 C27_2 1_555 1_555
H30_2 C44_2 1_555 1_555
C45_2 C20_2 1_555 1_555
H31_2 C45_2 1_555 1_555
C46_2 C51_2 1_555 1_555
C47_2 C32_2 1_555 1_555
H32_2 C47_2 1_555 1_555
C49_2 C31_2 1_555 1_555
C50_2 C30_2 1_555 1_555
H35_2 C50_2 1_555 1_555
C51_2 C19_2 1_555 1_555
H36_2 C51_2 1_555 1_555
C52_2 H37_2 1_555 1_555
C53_2 C40_2 1_555 1_555
H38_2 C53_2 1_555 1_555
C56_2 C13_2 1_555 1_555
C57_2 C20_2 1_555 1_555
H41_2 C57_2 1_555 1_555
C58_2 C18_2 1_555 1_555
H42_2 C58_2 1_555 1_555
C59_2 C10_2 1_555 1_555
C60_2 C46_2 1_555 1_555
C62_2 C41_2 1_555 1_555
C63_2 C25_2 1_555 1_555
H44_2 C63_2 1_555 1_555
C64_2 C65_2 1_555 1_555
C65_2 C66_2 1_555 1_555
C66_2 H45_2 1_555 1_555
C67_2 C66_2 1_555 1_555
H46_2 C67_2 1_555 1_555
C68_2 C67_2 1_555 1_555
H47_2 C68_2 1_555 1_555
C69_2 C64_2 1_555 1_555
H48_2 C69_2 1_555 1_555
N1_2 C65_2 1_555 1_555
N2_2 C24_2 1_555 1_555
N3_2 N1_2 1_555 1_555
N4_2 Zn2_2 1_555 1_555
N5_2 Zn1_2 1_555 1_555
N6_2 C34_2 1_555 1_555
N7_2 Zn4_2 1_555 1_555
N8_2 Zn1_2 1_555 1_555
N9_2 C36_2 1_555 1_555
N10_2 Zn3_2 1_555 1_555
N11_2 Zn1_2 1_555 1_555
N12_2 Zn5_2 1_555 1_555
N13_2 Zn5_2 1_555 1_555
N14_2 Zn1_2 1_555 1_555
N15_2 Zn4_2 1_555 1_555
N16_2 Zn2_2 1_555 1_555
N17_2 Zn1_2 1_555 1_555
N18_2 Zn3_2 1_555 1_555
O1_2 C37_2 1_555 1_555
O2_2 C37_2 1_555 1_555
O3_2 Zn5_2 1_555 1_555
O4_2 Zn2_2 1_555 1_555
O5_2 Zn2_2 1_555 1_555
O6_2 C43_2 1_555 1_555
O8_2 Zn6_2 1_555 1_555
O9_2 C38_2 1_555 1_555
O10_2 C17_2 1_555 1_555
O11_2 C21_2 1_555 1_555
O12_2 C28_2 1_555 1_555
O13_2 C26_2 1_555 1_555
Zn6_2 O9_2 1_555 1_555
Zn8_2 O1_2 1_555 1_555
O14_2 Zn5_2 1_555 1_555
O15_2 Zn5_2 1_555 1_555
O17_2 Zn4_2 1_555 1_555
O18_2 Zn3_2 1_555 1_555
O19_2 Zn3_2 1_555 1_555
C3_2 N15_2 1_555 1_555
C5_2 N13_2 1_555 1_555
C11_2 C59_2 1_555 1_555
C11_2 N12_2 1_555 1_555
C12_2 C14_2 1_555 1_555
C16_2 C28_2 1_555 1_555
C22_2 C56_2 1_555 1_555
C23_2 N7_2 1_555 1_555
C25_2 O11_2 1_555 1_555
C29_2 O12_2 1_555 1_555
C30_2 O10_2 1_555 1_555
C33_2 O4_2 1_555 1_555
C33_2 O5_2 1_555 1_555
C35_2 C45_2 1_555 1_555
C42_2 C53_2 1_555 1_555
C42_2 C62_2 1_555 1_555
C46_2 N16_2 1_555 1_555
C47_2 C63_2 1_555 1_555
C50_2 C57_2 1_555 1_555
C58_2 C60_2 1_555 1_555
C59_2 N10_2 1_555 1_555
C60_2 N18_2 1_555 1_555
C62_2 O13_2 1_555 1_555
C64_2 N4_2 1_555 1_555
C68_2 C69_2 1_555 1_555
N2_2 N5_2 1_555 1_555
N3_2 N4_2 1_555 1_555
N5_2 N6_2 1_555 1_555
N7_2 N8_2 1_555 1_555
N8_2 N9_2 1_555 1_555
N10_2 N11_2 1_555 1_555
N11_2 N12_2 1_555 1_555
N13_2 N14_2 1_555 1_555
N14_2 N15_2 1_555 1_555
N16_2 N17_2 1_555 1_555
N17_2 N18_2 1_555 1_555
O2_2 Zn8_2 1_555 1_555
O3_2 H49_2 1_555 1_555
O3_2 H50_2 1_555 1_555
C39_3 H27_3 1_555 1_555
Zn1_3 N3_3 1_555 1_555
Zn6_2 N9_3 1_555 1_555
Zn8 N1_3 1_555 1_555
C2_3 H1_3 1_555 1_555
C4_3 C2_3 1_555 1_555
H2_3 C4_3 1_555 1_555
C8_3 C4_3 1_555 1_555
H5_3 C8_3 1_555 1_555
C10_3 C8_3 1_555 1_555
H7_3 C10_3 1_555 1_555
C11_3 C2_3 1_555 1_555
C15_3 H11_3 1_555 1_555
C18_3 H15_3 1_555 1_555
C23_3 C36_3 1_555 1_555
C36_3 C52_3 1_555 1_555
C52_3 H37_3 1_555 1_555
C54_3 C15_3 1_555 1_555
H39_3 C54_3 1_555 1_555
C55_3 C15_3 1_555 1_555
H40_3 C55_3 1_555 1_555
C58_3 C18_3 1_555 1_555
H42_3 C58_3 1_555 1_555
C59_3 C10_3 1_555 1_555
C60_3 C46_3 1_555 1_555
N3_3 N1_3 1_555 1_555
N5_3 Zn1_3 1_555 1_555
N7_3 Zn7 1_555 1_555
N8_3 Zn1_3 1_555 1_555
N9_3 C36_3 1_555 1_555
N10_3 Zn6_2 1_555 1_555
N11_3 Zn1_3 1_555 1_555
N12_3 Zn8 1_555 1_555
N13_3 Zn8 1_555 1_555
N14_3 Zn1_3 1_555 1_555
N17_3 Zn1_3 1_555 1_555
N18_3 Zn6_2 1_555 1_555
O3_3 Zn8 1_555 1_555
C11_3 C59_3 1_555 1_555
C11_3 N12_3 1_555 1_555
C23_3 C55_3 1_555 1_555
C23_3 N7_3 1_555 1_555
C46_3 N16_3 1_555 1_555
C52_3 C54_3 1_555 1_555
C58_3 C60_3 1_555 1_555
C59_3 N10_3 1_555 1_555
C60_3 N18_3 1_555 1_555
N3_3 N4_3 1_555 1_555
N7_3 N8_3 1_555 1_555
N8_3 N9_3 1_555 1_555
N10_3 N11_3 1_555 1_555
N11_3 N12_3 1_555 1_555
N13_3 N14_3 1_555 1_555
N16_3 N17_3 1_555 1_555
N17_3 N18_3 1_555 1_555
O3_3 H49_3 1_555 1_555
O3_3 H50_3 1_555 1_555
H16_3 C19_3 1_555 1_555
H28_3 C41_3 1_555 1_555
C51_3 C19_3 1_555 1_555
H36_3 C51_3 1_555 1_555
O4_3 Zn2_3 1_555 1_555
C37_3 C40_3 1_555 1_555
C53_3 C40_3 1_555 1_555
H38_3 C53_3 1_555 1_555
O15 C37_3 1_555 1_555
C3_3 C5_3 1_555 1_555
C5_3 C6_3 1_555 1_555
C6_3 H3_3 1_555 1_555
C9_3 C6_3 1_555 1_555
H6_3 C9_3 1_555 1_555
C12_3 C9_3 1_555 1_555
H8_3 C12_3 1_555 1_555
C14_3 C3_3 1_555 1_555
H10_3 C14_3 1_555 1_555
C61_3 C34_3 1_555 1_555
H43_3 C61_3 1_555 1_555
C65_3 C66_3 1_555 1_555
C66_3 H45_3 1_555 1_555
N6_3 C34_3 1_555 1_555
C3_3 N15_3 1_555 1_555
C12_3 C14_3 1_555 1_555
C1_3 C17_3 1_555 1_555
C7_3 H4_3 1_555 1_555
C16_3 C13_3 1_555 1_555
H12_3 C16_3 1_555 1_555
C17_3 H13_3 1_555 1_555
H14_3 C17_3 1_555 1_555
C20_3 C38_3 1_555 1_555
C21_3 C1_3 1_555 1_555
H17_3 C21_3 1_555 1_555
H18_3 C21_3 1_555 1_555
C22_3 C7_3 1_555 1_555
H19_3 C22_3 1_555 1_555
C24_3 C31_3 1_555 1_555
C25_3 C44_3 1_555 1_555
C26_3 C1_3 1_555 1_555
H20_3 C26_3 1_555 1_555
H21_3 C26_3 1_555 1_555
C28_3 C7_3 1_555 1_555
C29_3 C1_3 1_555 1_555
H23_3 C29_3 1_555 1_555
H24_3 C29_3 1_555 1_555
C30_3 C35_3 1_555 1_555
C31_3 H25_3 1_555 1_555
C32_3 C27_3 1_555 1_555
C33_3 C32_3 1_555 1_555
C35_3 H26_3 1_555 1_555
C38_3 O18_2 1_555 1_555
C42_3 H29_3 1_555 1_555
C43_3 C56_3 1_555 1_555
C44_3 C27_3 1_555 1_555
H30_3 C44_3 1_555 1_555
C45_3 C20_3 1_555 1_555
H31_3 C45_3 1_555 1_555
C47_3 C32_3 1_555 1_555
H32_3 C47_3 1_555 1_555
C48_3 H33_3 1_555 1_555
C49_3 C31_3 1_555 1_555
H34_3 C49_3 1_555 1_555
C50_3 C30_3 1_555 1_555
H35_3 C50_3 1_555 1_555
C56_3 C13_3 1_555 1_555
C57_3 C20_3 1_555 1_555
H41_3 C57_3 1_555 1_555
C63_3 C25_3 1_555 1_555
H44_3 C63_3 1_555 1_555
H46_3 C67_3 1_555 1_555
C68_3 C67_3 1_555 1_555
H47_3 C68_3 1_555 1_555
C69_3 C64_3 1_555 1_555
H48_3 C69_3 1_555 1_555
O16 C43_3 1_555 1_555
O19_2 C38_3 1_555 1_555
O10_3 C17_3 1_555 1_555
O11_3 C21_3 1_555 1_555
O12_3 C28_3 1_555 1_555
O13_3 C26_3 1_555 1_555
C16_3 C28_3 1_555 1_555
C22_3 C56_3 1_555 1_555
C25_3 O11_3 1_555 1_555
C29_3 O12_3 1_555 1_555
C30_3 O10_3 1_555 1_555
C33_3 O5_3 1_555 1_555
C35_3 C45_3 1_555 1_555
C42_3 C62_3 1_555 1_555
C47_3 C63_3 1_555 1_555
C48_3 C49_3 1_555 1_555
C50_3 C57_3 1_555 1_555
C62_3 O13_3 1_555 1_555
C68_3 C69_3 1_555 1_555
Zn1_4 N3_4 1_555 1_555
Zn6 N9_4 1_555 1_555
Zn7_2 N6_4 1_555 1_555
Zn8_2 N1_4 1_555 1_555
C2_4 H1_4 1_555 1_555
C3_4 C5_4 1_555 1_555
C4_4 C2_4 1_555 1_555
H2_4 C4_4 1_555 1_555
C5_4 C6_4 1_555 1_555
C6_4 H3_4 1_555 1_555
C8_4 C4_4 1_555 1_555
H5_4 C8_4 1_555 1_555
C9_4 C6_4 1_555 1_555
H6_4 C9_4 1_555 1_555
C10_4 C8_4 1_555 1_555
H7_4 C10_4 1_555 1_555
C11_4 C2_4 1_555 1_555
C12_4 C9_4 1_555 1_555
H8_4 C12_4 1_555 1_555
C14_4 C3_4 1_555 1_555
H10_4 C14_4 1_555 1_555
C18_4 H15_4 1_555 1_555
C23_4 C36_4 1_555 1_555
C36_4 C52_4 1_555 1_555
C52_4 H37_4 1_555 1_555
C58_4 C18_4 1_555 1_555
H42_4 C58_4 1_555 1_555
C59_4 C10_4 1_555 1_555
C60_4 C46_4 1_555 1_555
C65_4 C66_4 1_555 1_555
C66_4 H45_4 1_555 1_555
N1_4 C65_4 1_555 1_555
N3_4 N1_4 1_555 1_555
N5_4 Zn1_4 1_555 1_555
N6_4 C34_4 1_555 1_555
N7_4 Zn7_2 1_555 1_555
N8_4 Zn1_4 1_555 1_555
N9_4 C36_4 1_555 1_555
N10_4 Zn6 1_555 1_555
N11_4 Zn1_4 1_555 1_555
N12_4 Zn8_2 1_555 1_555
N13_4 Zn8_2 1_555 1_555
N14_4 Zn1_4 1_555 1_555
N15_4 Zn7_2 1_555 1_555
N17_4 Zn1_4 1_555 1_555
N18_4 Zn6 1_555 1_555
O3_4 Zn8_2 1_555 1_555
C3_4 N15_4 1_555 1_555
C5_4 N13_4 1_555 1_555
C11_4 C59_4 1_555 1_555
C11_4 N12_4 1_555 1_555
C12_4 C14_4 1_555 1_555
C23_4 N7_4 1_555 1_555
C46_4 N16_4 1_555 1_555
C58_4 C60_4 1_555 1_555
C59_4 N10_4 1_555 1_555
C60_4 N18_4 1_555 1_555
N2_4 N5_4 1_555 1_555
N3_4 N4_4 1_555 1_555
N5_4 N6_4 1_555 1_555
N7_4 N8_4 1_555 1_555
N8_4 N9_4 1_555 1_555
N10_4 N11_4 1_555 1_555
N11_4 N12_4 1_555 1_555
N13_4 N14_4 1_555 1_555
N14_4 N15_4 1_555 1_555
N16_4 N17_4 1_555 1_555
N17_4 N18_4 1_555 1_555
O3_4 H49_4 1_555 1_555
O3_4 H50_4 1_555 1_555
C1_4 C17_4 1_555 1_555
C7_4 H4_4 1_555 1_555
C13_4 H9_4 1_555 1_555
C16_4 C13_4 1_555 1_555
H12_4 C16_4 1_555 1_555
C17_4 H13_4 1_555 1_555
H14_4 C17_4 1_555 1_555
H16_4 C19_4 1_555 1_555
C20_4 C38_4 1_555 1_555
C21_4 C1_4 1_555 1_555
H17_4 C21_4 1_555 1_555
H18_4 C21_4 1_555 1_555
C22_4 C7_4 1_555 1_555
H19_4 C22_4 1_555 1_555
C24_4 C31_4 1_555 1_555
C25_4 C44_4 1_555 1_555
C26_4 C1_4 1_555 1_555
H20_4 C26_4 1_555 1_555
H21_4 C26_4 1_555 1_555
C27_4 H22_4 1_555 1_555
C28_4 C7_4 1_555 1_555
C29_4 C1_4 1_555 1_555
H23_4 C29_4 1_555 1_555
H24_4 C29_4 1_555 1_555
C30_4 C35_4 1_555 1_555
C31_4 H25_4 1_555 1_555
C32_4 C27_4 1_555 1_555
C33_4 C32_4 1_555 1_555
C35_4 H26_4 1_555 1_555
C37_4 C40_4 1_555 1_555
C38_4 O18 1_555 1_555
C39_4 H27_4 1_555 1_555
C40_4 C39_4 1_555 1_555
C41_4 C39_4 1_555 1_555
H28_4 C41_4 1_555 1_555
C42_4 H29_4 1_555 1_555
C43_4 C56_4 1_555 1_555
C44_4 C27_4 1_555 1_555
H30_4 C44_4 1_555 1_555
C45_4 C20_4 1_555 1_555
H31_4 C45_4 1_555 1_555
C47_4 C32_4 1_555 1_555
H32_4 C47_4 1_555 1_555
C49_4 C31_4 1_555 1_555
C50_4 C30_4 1_555 1_555
H35_4 C50_4 1_555 1_555
C51_4 C19_4 1_555 1_555
H36_4 C51_4 1_555 1_555
C53_4 C40_4 1_555 1_555
H38_4 C53_4 1_555 1_555
C56_4 C13_4 1_555 1_555
C57_4 C20_4 1_555 1_555
H41_4 C57_4 1_555 1_555
C62_4 C41_4 1_555 1_555
C63_4 C25_4 1_555 1_555
H44_4 C63_4 1_555 1_555
H46_4 C67_4 1_555 1_555
C68_4 C67_4 1_555 1_555
H47_4 C68_4 1_555 1_555
C69_4 C64_4 1_555 1_555
H48_4 C69_4 1_555 1_555
O14_2 C37_4 1_555 1_555
O15_2 C37_4 1_555 1_555
O4_4 Zn2_4 1_555 1_555
O5_4 Zn2_4 1_555 1_555
O16_2 C43_4 1_555 1_555
O19 C38_4 1_555 1_555
O10_4 C17_4 1_555 1_555
O11_4 C21_4 1_555 1_555
O12_4 C28_4 1_555 1_555
O13_4 C26_4 1_555 1_555
C16_4 C28_4 1_555 1_555
C22_4 C56_4 1_555 1_555
C25_4 O11_4 1_555 1_555
C29_4 O12_4 1_555 1_555
C30_4 O10_4 1_555 1_555
C33_4 O4_4 1_555 1_555
C33_4 O5_4 1_555 1_555
C35_4 C45_4 1_555 1_555
C42_4 C53_4 1_555 1_555
C42_4 C62_4 1_555 1_555
C47_4 C63_4 1_555 1_555
C50_4 C57_4 1_555 1_555
C62_4 O13_4 1_555 1_555
C68_4 C69_4 1_555 1_555
C15_4 H11_4 1_555 1_555
C54_4 C15_4 1_555 1_555
H39_4 C54_4 1_555 1_555
C55_4 C15_4 1_555 1_555
H40_4 C55_4 1_555 1_555
H43_4 C61_4 1_555 1_555
C48_4 H33_4 1_555 1_555
C1_5 C17_5 1_555 1_555
C7_5 H4_5 1_555 1_555
C16_5 C13_5 1_555 1_555
H12_5 C16_5 1_555 1_555
C17_5 H13_5 1_555 1_555
H14_5 C17_5 1_555 1_555
C20_5 C38_5 1_555 1_555
C21_5 C1_5 1_555 1_555
H17_5 C21_5 1_555 1_555
H18_5 C21_5 1_555 1_555
C22_5 C7_5 1_555 1_555
H19_5 C22_5 1_555 1_555
C24_5 C31_5 1_555 1_555
C25_5 C44_5 1_555 1_555
C26_5 C1_5 1_555 1_555
H20_5 C26_5 1_555 1_555
H21_5 C26_5 1_555 1_555
C28_5 C7_5 1_555 1_555
C29_5 C1_5 1_555 1_555
H23_5 C29_5 1_555 1_555
H24_5 C29_5 1_555 1_555
C30_5 C35_5 1_555 1_555
C31_5 H25_5 1_555 1_555
C32_5 C27_5 1_555 1_555
C33_5 C32_5 1_555 1_555
C35_5 H26_5 1_555 1_555
C38_5 O8_3 1_555 1_555
C42_5 H29_5 1_555 1_555
C43_5 C56_5 1_555 1_555
C44_5 C27_5 1_555 1_555
H30_5 C44_5 1_555 1_555
C45_5 C20_5 1_555 1_555
H31_5 C45_5 1_555 1_555
C47_5 C32_5 1_555 1_555
H32_5 C47_5 1_555 1_555
C48_5 H33_5 1_555 1_555
C49_5 C31_5 1_555 1_555
H34_5 C49_5 1_555 1_555
C50_5 C30_5 1_555 1_555
H35_5 C50_5 1_555 1_555
C56_5 C13_5 1_555 1_555
C57_5 C20_5 1_555 1_555
H41_5 C57_5 1_555 1_555
C63_5 C25_5 1_555 1_555
H44_5 C63_5 1_555 1_555
H46_5 C67_5 1_555 1_555
C68_5 C67_5 1_555 1_555
H47_5 C68_5 1_555 1_555
C69_5 C64_5 1_555 1_555
H48_5 C69_5 1_555 1_555
O6_3 C43_5 1_555 1_555
O8_3 Zn6_3 1_555 1_555
O9_3 C38_5 1_555 1_555
O10_5 C17_5 1_555 1_555
O11_5 C21_5 1_555 1_555
O12_5 C28_5 1_555 1_555
O13_5 C26_5 1_555 1_555
Zn6_3 O9_3 1_555 1_555
C16_5 C28_5 1_555 1_555
C22_5 C56_5 1_555 1_555
C25_5 O11_5 1_555 1_555
C29_5 O12_5 1_555 1_555
C30_5 O10_5 1_555 1_555
C33_5 O5_5 1_555 1_555
C35_5 C45_5 1_555 1_555
C42_5 C62_5 1_555 1_555
C47_5 C63_5 1_555 1_555
C48_5 C49_5 1_555 1_555
C50_5 C57_5 1_555 1_555
C62_5 O13_5 1_555 1_555
C68_5 C69_5 1_555 1_555
C3_5 C5_5 1_555 1_555
C5_5 C6_5 1_555 1_555
C6_5 H3_5 1_555 1_555
C9_5 C6_5 1_555 1_555
H6_5 C9_5 1_555 1_555
C12_5 C9_5 1_555 1_555
H8_5 C12_5 1_555 1_555
C14_5 C3_5 1_555 1_555
H10_5 C14_5 1_555 1_555
C61_5 C34_5 1_555 1_555
H43_5 C61_5 1_555 1_555
C65_5 C66_5 1_555 1_555
C66_5 H45_5 1_555 1_555
N6_5 C34_5 1_555 1_555
C3_5 N15_5 1_555 1_555
C12_5 C14_5 1_555 1_555
C37_5 C40_5 1_555 1_555
C53_5 C40_5 1_555 1_555
H38_5 C53_5 1_555 1_555
O2_3 C37_5 1_555 1_555
H16_5 C19_5 1_555 1_555
H28_5 C41_5 1_555 1_555
C51_5 C19_5 1_555 1_555
H36_5 C51_5 1_555 1_555
O4_5 Zn2_5 1_555 1_555
O7_3 Zn7_3 1_555 1_555
Zn1_5 N3_5 1_555 1_555
Zn3_3 N9_5 1_555 1_555
Zn5_3 N1_5 1_555 1_555
C2_5 H1_5 1_555 1_555
C4_5 C2_5 1_555 1_555
H2_5 C4_5 1_555 1_555
C8_5 C4_5 1_555 1_555
H5_5 C8_5 1_555 1_555
C10_5 C8_5 1_555 1_555
H7_5 C10_5 1_555 1_555
C11_5 C2_5 1_555 1_555
C15_5 H11_5 1_555 1_555
C18_5 H15_5 1_555 1_555
C23_5 C36_5 1_555 1_555
C36_5 C52_5 1_555 1_555
C52_5 H37_5 1_555 1_555
C54_5 C15_5 1_555 1_555
H39_5 C54_5 1_555 1_555
C55_5 C15_5 1_555 1_555
H40_5 C55_5 1_555 1_555
C58_5 C18_5 1_555 1_555
H42_5 C58_5 1_555 1_555
C59_5 C10_5 1_555 1_555
C60_5 C46_5 1_555 1_555
N3_5 N1_5 1_555 1_555
N5_5 Zn1_5 1_555 1_555
N7_5 Zn4_3 1_555 1_555
N8_5 Zn1_5 1_555 1_555
N9_5 C36_5 1_555 1_555
N10_5 Zn3_3 1_555 1_555
N11_5 Zn1_5 1_555 1_555
N12_5 Zn5_3 1_555 1_555
N13_5 Zn5_3 1_555 1_555
N14_5 Zn1_5 1_555 1_555
N17_5 Zn1_5 1_555 1_555
N18_5 Zn3_3 1_555 1_555
O3_5 Zn5_3 1_555 1_555
O14_3 Zn5_3 1_555 1_555
O17_3 Zn4_3 1_555 1_555
O18_3 Zn3_3 1_555 1_555
O19_3 Zn3_3 1_555 1_555
C11_5 C59_5 1_555 1_555
C11_5 N12_5 1_555 1_555
C23_5 C55_5 1_555 1_555
C23_5 N7_5 1_555 1_555
C46_5 N16_5 1_555 1_555
C52_5 C54_5 1_555 1_555
C58_5 C60_5 1_555 1_555
C59_5 N10_5 1_555 1_555
C60_5 N18_5 1_555 1_555
N3_5 N4_5 1_555 1_555
N7_5 N8_5 1_555 1_555
N8_5 N9_5 1_555 1_555
N10_5 N11_5 1_555 1_555
N11_5 N12_5 1_555 1_555
N13_5 N14_5 1_555 1_555
N16_5 N17_5 1_555 1_555
N17_5 N18_5 1_555 1_555
O3_5 H49_5 1_555 1_555
O3_5 H50_5 1_555 1_555
C39_5 H27_5 1_555 1_555
Zn8_3 O1_3 1_555 1_555
C48_6 H33_6 1_555 1_555
O7_4 Zn7_4 1_555 1_555
C15_6 H11_6 1_555 1_555
C54_6 C15_6 1_555 1_555
H39_6 C54_6 1_555 1_555
C55_6 C15_6 1_555 1_555
H40_6 C55_6 1_555 1_555
H43_6 C61_6 1_555 1_555
C1_6 C17_6 1_555 1_555
C7_6 H4_6 1_555 1_555
C13_6 H9_6 1_555 1_555
C16_6 C13_6 1_555 1_555
H12_6 C16_6 1_555 1_555
C17_6 H13_6 1_555 1_555
H14_6 C17_6 1_555 1_555
H16_6 C19_6 1_555 1_555
C20_6 C38_6 1_555 1_555
C21_6 C1_6 1_555 1_555
H17_6 C21_6 1_555 1_555
H18_6 C21_6 1_555 1_555
C22_6 C7_6 1_555 1_555
H19_6 C22_6 1_555 1_555
C24_6 C31_6 1_555 1_555
C25_6 C44_6 1_555 1_555
C26_6 C1_6 1_555 1_555
H20_6 C26_6 1_555 1_555
H21_6 C26_6 1_555 1_555
C27_6 H22_6 1_555 1_555
C28_6 C7_6 1_555 1_555
C29_6 C1_6 1_555 1_555
H23_6 C29_6 1_555 1_555
H24_6 C29_6 1_555 1_555
C30_6 C35_6 1_555 1_555
C31_6 H25_6 1_555 1_555
C32_6 C27_6 1_555 1_555
C33_6 C32_6 1_555 1_555
C35_6 H26_6 1_555 1_555
C37_6 C40_6 1_555 1_555
C38_6 O8_4 1_555 1_555
C39_6 H27_6 1_555 1_555
C40_6 C39_6 1_555 1_555
C41_6 C39_6 1_555 1_555
H28_6 C41_6 1_555 1_555
C42_6 H29_6 1_555 1_555
C43_6 C56_6 1_555 1_555
C44_6 C27_6 1_555 1_555
H30_6 C44_6 1_555 1_555
C45_6 C20_6 1_555 1_555
H31_6 C45_6 1_555 1_555
C47_6 C32_6 1_555 1_555
H32_6 C47_6 1_555 1_555
C49_6 C31_6 1_555 1_555
C50_6 C30_6 1_555 1_555
H35_6 C50_6 1_555 1_555
C51_6 C19_6 1_555 1_555
H36_6 C51_6 1_555 1_555
C53_6 C40_6 1_555 1_555
H38_6 C53_6 1_555 1_555
C56_6 C13_6 1_555 1_555
C57_6 C20_6 1_555 1_555
H41_6 C57_6 1_555 1_555
C62_6 C41_6 1_555 1_555
C63_6 C25_6 1_555 1_555
H44_6 C63_6 1_555 1_555
H46_6 C67_6 1_555 1_555
C68_6 C67_6 1_555 1_555
H47_6 C68_6 1_555 1_555
C69_6 C64_6 1_555 1_555
H48_6 C69_6 1_555 1_555
O1_4 C37_6 1_555 1_555
O2_4 C37_6 1_555 1_555
O4_6 Zn2_6 1_555 1_555
O5_6 Zn2_6 1_555 1_555
O6_4 C43_6 1_555 1_555
O8_4 Zn6_4 1_555 1_555
O9_4 C38_6 1_555 1_555
O10_6 C17_6 1_555 1_555
O11_6 C21_6 1_555 1_555
O12_6 C28_6 1_555 1_555
O13_6 C26_6 1_555 1_555
Zn6_4 O9_4 1_555 1_555
Zn8_4 O1_4 1_555 1_555
C16_6 C28_6 1_555 1_555
C22_6 C56_6 1_555 1_555
C25_6 O11_6 1_555 1_555
C29_6 O12_6 1_555 1_555
C30_6 O10_6 1_555 1_555
C33_6 O4_6 1_555 1_555
C33_6 O5_6 1_555 1_555
C35_6 C45_6 1_555 1_555
C42_6 C53_6 1_555 1_555
C42_6 C62_6 1_555 1_555
C47_6 C63_6 1_555 1_555
C50_6 C57_6 1_555 1_555
C62_6 O13_6 1_555 1_555
C68_6 C69_6 1_555 1_555
O2_4 Zn8_4 1_555 1_555
Zn1_6 N3_6 1_555 1_555
Zn3_4 N9_6 1_555 1_555
Zn4_4 N6_6 1_555 1_555
Zn5_4 N1_6 1_555 1_555
C2_6 H1_6 1_555 1_555
C3_6 C5_6 1_555 1_555
C4_6 C2_6 1_555 1_555
H2_6 C4_6 1_555 1_555
C5_6 C6_6 1_555 1_555
C6_6 H3_6 1_555 1_555
C8_6 C4_6 1_555 1_555
H5_6 C8_6 1_555 1_555
C9_6 C6_6 1_555 1_555
H6_6 C9_6 1_555 1_555
C10_6 C8_6 1_555 1_555
H7_6 C10_6 1_555 1_555
C11_6 C2_6 1_555 1_555
C12_6 C9_6 1_555 1_555
H8_6 C12_6 1_555 1_555
C14_6 C3_6 1_555 1_555
H10_6 C14_6 1_555 1_555
C18_6 H15_6 1_555 1_555
C23_6 C36_6 1_555 1_555
C36_6 C52_6 1_555 1_555
C52_6 H37_6 1_555 1_555
C58_6 C18_6 1_555 1_555
H42_6 C58_6 1_555 1_555
C59_6 C10_6 1_555 1_555
C60_6 C46_6 1_555 1_555
C65_6 C66_6 1_555 1_555
C66_6 H45_6 1_555 1_555
N1_6 C65_6 1_555 1_555
N3_6 N1_6 1_555 1_555
N5_6 Zn1_6 1_555 1_555
N6_6 C34_6 1_555 1_555
N7_6 Zn4_4 1_555 1_555
N8_6 Zn1_6 1_555 1_555
N9_6 C36_6 1_555 1_555
N10_6 Zn3_4 1_555 1_555
N11_6 Zn1_6 1_555 1_555
N12_6 Zn5_4 1_555 1_555
N13_6 Zn5_4 1_555 1_555
N14_6 Zn1_6 1_555 1_555
N15_6 Zn4_4 1_555 1_555
N17_6 Zn1_6 1_555 1_555
N18_6 Zn3_4 1_555 1_555
O3_6 Zn5_4 1_555 1_555
O14_4 Zn5_4 1_555 1_555
O15_4 Zn5_4 1_555 1_555
O17_4 Zn4_4 1_555 1_555
O18_4 Zn3_4 1_555 1_555
O19_4 Zn3_4 1_555 1_555
C3_6 N15_6 1_555 1_555
C5_6 N13_6 1_555 1_555
C11_6 C59_6 1_555 1_555
C11_6 N12_6 1_555 1_555
C12_6 C14_6 1_555 1_555
C23_6 N7_6 1_555 1_555
C46_6 N16_6 1_555 1_555
C58_6 C60_6 1_555 1_555
C59_6 N10_6 1_555 1_555
C60_6 N18_6 1_555 1_555
N2_6 N5_6 1_555 1_555
N3_6 N4_6 1_555 1_555
N5_6 N6_6 1_555 1_555
N7_6 N8_6 1_555 1_555
N8_6 N9_6 1_555 1_555
N10_6 N11_6 1_555 1_555
N11_6 N12_6 1_555 1_555
N13_6 N14_6 1_555 1_555
N14_6 N15_6 1_555 1_555
N16_6 N17_6 1_555 1_555
N17_6 N18_6 1_555 1_555
O3_6 H49_6 1_555 1_555
O3_6 H50_6 1_555 1_555
C37_7 C40_7 1_555 1_555
C53_7 C40_7 1_555 1_555
H38_7 C53_7 1_555 1_555
O15_3 C37_7 1_555 1_555
C1_7 C17_7 1_555 1_555
C3_7 C5_7 1_555 1_555
C5_7 C6_7 1_555 1_555
C6_7 H3_7 1_555 1_555
C7_7 H4_7 1_555 1_555
C9_7 C6_7 1_555 1_555
H6_7 C9_7 1_555 1_555
C12_7 C9_7 1_555 1_555
H8_7 C12_7 1_555 1_555
C14_7 C3_7 1_555 1_555
H10_7 C14_7 1_555 1_555
C16_7 C13_7 1_555 1_555
H12_7 C16_7 1_555 1_555
C17_7 H13_7 1_555 1_555
H14_7 C17_7 1_555 1_555
C20_7 C38_7 1_555 1_555
C21_7 C1_7 1_555 1_555
H17_7 C21_7 1_555 1_555
H18_7 C21_7 1_555 1_555
C22_7 C7_7 1_555 1_555
H19_7 C22_7 1_555 1_555
C24_7 C31_7 1_555 1_555
C25_7 C44_7 1_555 1_555
C26_7 C1_7 1_555 1_555
H20_7 C26_7 1_555 1_555
H21_7 C26_7 1_555 1_555
C28_7 C7_7 1_555 1_555
C29_7 C1_7 1_555 1_555
H23_7 C29_7 1_555 1_555
H24_7 C29_7 1_555 1_555
C30_7 C35_7 1_555 1_555
C31_7 H25_7 1_555 1_555
C32_7 C27_7 1_555 1_555
C33_7 C32_7 1_555 1_555
C34_7 C24_7 1_555 1_555
C35_7 H26_7 1_555 1_555
C38_7 O18_4 1_555 1_555
C42_7 H29_7 1_555 1_555
C43_7 C56_7 1_555 1_555
C44_7 C27_7 1_555 1_555
H30_7 C44_7 1_555 1_555
C45_7 C20_7 1_555 1_555
H31_7 C45_7 1_555 1_555
C47_7 C32_7 1_555 1_555
H32_7 C47_7 1_555 1_555
C48_7 H33_7 1_555 1_555
C49_7 C31_7 1_555 1_555
H34_7 C49_7 1_555 1_555
C50_7 C30_7 1_555 1_555
H35_7 C50_7 1_555 1_555
C56_7 C13_7 1_555 1_555
C57_7 C20_7 1_555 1_555
H41_7 C57_7 1_555 1_555
C61_7 C34_7 1_555 1_555
H43_7 C61_7 1_555 1_555
C63_7 C25_7 1_555 1_555
H44_7 C63_7 1_555 1_555
C64_7 C65_7 1_555 1_555
C65_7 C66_7 1_555 1_555
C66_7 H45_7 1_555 1_555
C67_7 C66_7 1_555 1_555
H46_7 C67_7 1_555 1_555
C68_7 C67_7 1_555 1_555
H47_7 C68_7 1_555 1_555
C69_7 C64_7 1_555 1_555
H48_7 C69_7 1_555 1_555
N2_7 C24_7 1_555 1_555
N6_7 C34_7 1_555 1_555
O16_3 C43_7 1_555 1_555
O19_4 C38_7 1_555 1_555
O10_7 C17_7 1_555 1_555
O11_7 C21_7 1_555 1_555
O12_7 C28_7 1_555 1_555
O13_7 C26_7 1_555 1_555
C3_7 N15_7 1_555 1_555
C12_7 C14_7 1_555 1_555
C16_7 C28_7 1_555 1_555
C22_7 C56_7 1_555 1_555
C25_7 O11_7 1_555 1_555
C29_7 O12_7 1_555 1_555
C30_7 O10_7 1_555 1_555
C33_7 O5_7 1_555 1_555
C35_7 C45_7 1_555 1_555
C42_7 C62_7 1_555 1_555
C47_7 C63_7 1_555 1_555
C48_7 C49_7 1_555 1_555
C48_7 C61_7 1_555 1_555
C50_7 C57_7 1_555 1_555
C62_7 O13_7 1_555 1_555
C68_7 C69_7 1_555 1_555
C39_7 H27_7 1_555 1_555
Zn1_7 N3_7 1_555 1_555
Zn6_4 N9_7 1_555 1_555
Zn8_3 N1_7 1_555 1_555
C2_7 H1_7 1_555 1_555
C4_7 C2_7 1_555 1_555
H2_7 C4_7 1_555 1_555
C8_7 C4_7 1_555 1_555
H5_7 C8_7 1_555 1_555
C10_7 C8_7 1_555 1_555
H7_7 C10_7 1_555 1_555
C11_7 C2_7 1_555 1_555
C15_7 H11_7 1_555 1_555
C18_7 H15_7 1_555 1_555
C19_7 C18_7 1_555 1_555
H16_7 C19_7 1_555 1_555
C23_7 C36_7 1_555 1_555
C36_7 C52_7 1_555 1_555
H28_7 C41_7 1_555 1_555
C46_7 C51_7 1_555 1_555
C51_7 C19_7 1_555 1_555
H36_7 C51_7 1_555 1_555
C52_7 H37_7 1_555 1_555
C54_7 C15_7 1_555 1_555
H39_7 C54_7 1_555 1_555
C55_7 C15_7 1_555 1_555
H40_7 C55_7 1_555 1_555
C58_7 C18_7 1_555 1_555
H42_7 C58_7 1_555 1_555
C59_7 C10_7 1_555 1_555
C60_7 C46_7 1_555 1_555
N3_7 N1_7 1_555 1_555
N4_7 Zn2_7 1_555 1_555
N5_7 Zn1_7 1_555 1_555
N7_7 Zn7_3 1_555 1_555
N8_7 Zn1_7 1_555 1_555
N9_7 C36_7 1_555 1_555
N10_7 Zn6_4 1_555 1_555
N11_7 Zn1_7 1_555 1_555
N12_7 Zn8_3 1_555 1_555
N13_7 Zn8_3 1_555 1_555
N14_7 Zn1_7 1_555 1_555
N16_7 Zn2_7 1_555 1_555
N17_7 Zn1_7 1_555 1_555
N18_7 Zn6_4 1_555 1_555
O3_7 Zn8_3 1_555 1_555
O4_7 Zn2_7 1_555 1_555
C11_7 C59_7 1_555 1_555
C11_7 N12_7 1_555 1_555
C23_7 C55_7 1_555 1_555
C23_7 N7_7 1_555 1_555
C46_7 N16_7 1_555 1_555
C52_7 C54_7 1_555 1_555
C58_7 C60_7 1_555 1_555
C59_7 N10_7 1_555 1_555
C60_7 N18_7 1_555 1_555
N3_7 N4_7 1_555 1_555
N7_7 N8_7 1_555 1_555
N8_7 N9_7 1_555 1_555
N10_7 N11_7 1_555 1_555
N11_7 N12_7 1_555 1_555
N13_7 N14_7 1_555 1_555
N16_7 N17_7 1_555 1_555
N17_7 N18_7 1_555 1_555
O3_7 H49_7 1_555 1_555
O3_7 H50_7 1_555 1_555
Zn1_8 N3_8 1_555 1_555
Zn2_8 N2_8 1_555 1_555
Zn6_3 N9_8 1_555 1_555
Zn7_4 N6_8 1_555 1_555
Zn8_4 N1_8 1_555 1_555
C1_8 C17_8 1_555 1_555
C2_8 H1_8 1_555 1_555
C3_8 C5_8 1_555 1_555
C4_8 C2_8 1_555 1_555
H2_8 C4_8 1_555 1_555
C5_8 C6_8 1_555 1_555
C6_8 H3_8 1_555 1_555
C7_8 H4_8 1_555 1_555
C8_8 C4_8 1_555 1_555
H5_8 C8_8 1_555 1_555
C9_8 C6_8 1_555 1_555
H6_8 C9_8 1_555 1_555
C10_8 C8_8 1_555 1_555
H7_8 C10_8 1_555 1_555
C11_8 C2_8 1_555 1_555
C12_8 C9_8 1_555 1_555
H8_8 C12_8 1_555 1_555
C13_8 H9_8 1_555 1_555
C14_8 C3_8 1_555 1_555
H10_8 C14_8 1_555 1_555
C16_8 C13_8 1_555 1_555
H12_8 C16_8 1_555 1_555
C17_8 H13_8 1_555 1_555
H14_8 C17_8 1_555 1_555
C18_8 H15_8 1_555 1_555
C19_8 C18_8 1_555 1_555
H16_8 C19_8 1_555 1_555
C20_8 C38_8 1_555 1_555
C21_8 C1_8 1_555 1_555
H17_8 C21_8 1_555 1_555
H18_8 C21_8 1_555 1_555
C22_8 C7_8 1_555 1_555
H19_8 C22_8 1_555 1_555
C23_8 C36_8 1_555 1_555
C24_8 C31_8 1_555 1_555
C25_8 C44_8 1_555 1_555
C26_8 C1_8 1_555 1_555
H20_8 C26_8 1_555 1_555
H21_8 C26_8 1_555 1_555
C27_8 H22_8 1_555 1_555
C28_8 C7_8 1_555 1_555
C29_8 C1_8 1_555 1_555
H23_8 C29_8 1_555 1_555
H24_8 C29_8 1_555 1_555
C30_8 C35_8 1_555 1_555
C31_8 H25_8 1_555 1_555
C32_8 C27_8 1_555 1_555
C33_8 C32_8 1_555 1_555
C34_8 C24_8 1_555 1_555
C35_8 H26_8 1_555 1_555
C36_8 C52_8 1_555 1_555
C37_8 C40_8 1_555 1_555
C38_8 O18_3 1_555 1_555
C39_8 H27_8 1_555 1_555
C40_8 C39_8 1_555 1_555
C41_8 C39_8 1_555 1_555
H28_8 C41_8 1_555 1_555
C42_8 H29_8 1_555 1_555
C43_8 C56_8 1_555 1_555
C44_8 C27_8 1_555 1_555
H30_8 C44_8 1_555 1_555
C45_8 C20_8 1_555 1_555
H31_8 C45_8 1_555 1_555
C46_8 C51_8 1_555 1_555
C47_8 C32_8 1_555 1_555
H32_8 C47_8 1_555 1_555
C49_8 C31_8 1_555 1_555
C50_8 C30_8 1_555 1_555
H35_8 C50_8 1_555 1_555
C51_8 C19_8 1_555 1_555
H36_8 C51_8 1_555 1_555
C52_8 H37_8 1_555 1_555
C53_8 C40_8 1_555 1_555
H38_8 C53_8 1_555 1_555
C56_8 C13_8 1_555 1_555
C57_8 C20_8 1_555 1_555
H41_8 C57_8 1_555 1_555
C58_8 C18_8 1_555 1_555
H42_8 C58_8 1_555 1_555
C59_8 C10_8 1_555 1_555
C60_8 C46_8 1_555 1_555
C62_8 C41_8 1_555 1_555
C63_8 C25_8 1_555 1_555
H44_8 C63_8 1_555 1_555
C64_8 C65_8 1_555 1_555
C65_8 C66_8 1_555 1_555
C66_8 H45_8 1_555 1_555
C67_8 C66_8 1_555 1_555
H46_8 C67_8 1_555 1_555
C68_8 C67_8 1_555 1_555
H47_8 C68_8 1_555 1_555
C69_8 C64_8 1_555 1_555
H48_8 C69_8 1_555 1_555
N1_8 C65_8 1_555 1_555
N2_8 C24_8 1_555 1_555
N3_8 N1_8 1_555 1_555
N4_8 Zn2_8 1_555 1_555
N5_8 Zn1_8 1_555 1_555
N6_8 C34_8 1_555 1_555
N7_8 Zn7_4 1_555 1_555
N8_8 Zn1_8 1_555 1_555
N9_8 C36_8 1_555 1_555
N10_8 Zn6_3 1_555 1_555
N11_8 Zn1_8 1_555 1_555
N12_8 Zn8_4 1_555 1_555
N13_8 Zn8_4 1_555 1_555
N14_8 Zn1_8 1_555 1_555
N15_8 Zn7_4 1_555 1_555
N16_8 Zn2_8 1_555 1_555
N17_8 Zn1_8 1_555 1_555
N18_8 Zn6_3 1_555 1_555
O14_4 C37_8 1_555 1_555
O15_4 C37_8 1_555 1_555
O3_8 Zn8_4 1_555 1_555
O4_8 Zn2_8 1_555 1_555
O5_8 Zn2_8 1_555 1_555
O16_4 C43_8 1_555 1_555
O19_3 C38_8 1_555 1_555
O10_8 C17_8 1_555 1_555
O11_8 C21_8 1_555 1_555
O12_8 C28_8 1_555 1_555
O13_8 C26_8 1_555 1_555
C3_8 N15_8 1_555 1_555
C5_8 N13_8 1_555 1_555
C11_8 C59_8 1_555 1_555
C11_8 N12_8 1_555 1_555
C12_8 C14_8 1_555 1_555
C16_8 C28_8 1_555 1_555
C22_8 C56_8 1_555 1_555
C23_8 N7_8 1_555 1_555
C25_8 O11_8 1_555 1_555
C29_8 O12_8 1_555 1_555
C30_8 O10_8 1_555 1_555
C33_8 O4_8 1_555 1_555
C33_8 O5_8 1_555 1_555
C35_8 C45_8 1_555 1_555
C42_8 C53_8 1_555 1_555
C42_8 C62_8 1_555 1_555
C46_8 N16_8 1_555 1_555
C47_8 C63_8 1_555 1_555
C50_8 C57_8 1_555 1_555
C58_8 C60_8 1_555 1_555
C59_8 N10_8 1_555 1_555
C60_8 N18_8 1_555 1_555
C62_8 O13_8 1_555 1_555
C64_8 N4_8 1_555 1_555
C68_8 C69_8 1_555 1_555
N2_8 N5_8 1_555 1_555
N3_8 N4_8 1_555 1_555
N5_8 N6_8 1_555 1_555
N7_8 N8_8 1_555 1_555
N8_8 N9_8 1_555 1_555
N10_8 N11_8 1_555 1_555
N11_8 N12_8 1_555 1_555
N13_8 N14_8 1_555 1_555
N14_8 N15_8 1_555 1_555
N16_8 N17_8 1_555 1_555
N17_8 N18_8 1_555 1_555
O3_8 H49_8 1_555 1_555
O3_8 H50_8 1_555 1_555
C15_8 H11_8 1_555 1_555
C48_8 H33_8 1_555 1_555
C54_8 C15_8 1_555 1_555
H39_8 C54_8 1_555 1_555
C55_8 C15_8 1_555 1_555
H40_8 C55_8 1_555 1_555
H43_8 C61_8 1_555 1_555
C48_8 C61_8 1_555 1_555

#END
