
###############################################################################
#
# This file contains modified crystal structure data generated from the
# MOF subset of the Cambridge Structural Database (CSD) v543 
# hosted by the Cambridge Crystallographic Data Centre (CCDC).
#
# This work is licensed under the Creative Commons
# Attribution-NonCommercial-ShareAlike 4.0 International License.
# To view a copy of this license, visit
# http://creativecommons.org/licenses/by-nc-sa/4.0/
# or send a letter to
# Creative Commons, PO Box 1866, Mountain View, CA 94042, USA.
#
# CIF created using the CSD Python API on 29 September 2022
# The structure has been converted into the P1 space group
# The structure has a 3D framework
# The original CSD entry FAYPEC is in the monoclinic crystal system
# The framework has been calculated to contain at least 10.0% void space
# The void calculation uses a probe of radius 1.32A, grid spacing 0.4
#
###############################################################################

data_FAYPEC
_chemical_formula_moiety         '(C648 H576 N144 O92 Zn40)n'
_symmetry_cell_setting           triclinic
_symmetry_space_group_name_H-M   'P 1'
_symmetry_Int_Tables_number      1
_space_group_name_Hall           'P 1'
loop_
_symmetry_equiv_pos_site_id
_symmetry_equiv_pos_as_xyz
1 x,y,z
_cell_length_a                   42.994(5)
_cell_length_b                   20.373(2)
_cell_length_c                   42.045(5)
_cell_angle_alpha                90
_cell_angle_beta                 118.529(2)
_cell_angle_gamma                90
_cell_volume                     32356.1
loop_
_atom_site_label
_atom_site_type_symbol
_atom_site_fract_x
_atom_site_fract_y
_atom_site_fract_z
Zn1 Zn 0.647811(13) 0.16353(2) 0.139718(13)
Zn2 Zn 0.701181(11) 0.01762(2) 0.157348(12)
Zn4 Zn 0.763771(12) 0.00626(2) 0.252221(13)
Zn5 Zn 0.746857(15) 0.02297(3) 0.103043(18)
C3 C 0.33329(15) 0.5919(3) 0.06721(15)
H3 H 0.3225 0.6298 0.0696
C4 C 0.57228(14) 0.7301(3) 0.09969(15)
C5 C 0.56662(13) 0.3390(3) 0.12738(14)
H4 H 0.5818 0.3333 0.1520
C6 C 0.33830(14) 0.4734(3) 0.07000(15)
H5 H 0.3308 0.4328 0.0738
C7 C 0.76082(13) 0.2535(2) 0.33422(12)
H6 H 0.7767 0.2207 0.3501
H7 H 0.7444 0.2660 0.3425
H8 H 0.7741 0.2913 0.3342
C8 C 0.35892(14) 0.5972(3) 0.05722(13)
H9 H 0.3658 0.6378 0.0527
C12 C 0.36453(13) 0.4769(3) 0.06045(13)
H14 H 0.3755 0.4392 0.0582
C13 C 0.59082(15) 0.0542(4) 0.12036(15)
C15 C 0.56083(18) 0.0932(3) 0.11280(18)
H18 H 0.5613 0.1389 0.1128
C16 C 0.51699(13) 0.6786(3) 0.08783(16)
H19 H 0.4974 0.6757 0.0916
C17 C 0.51697(11) 0.3936(2) 0.07802(13)
C18 C 0.52031(13) 0.6360(2) 0.06286(12)
C20 C 0.47018(10) 0.45593(19) 0.03170(10)
H20 H 0.4555 0.4187 0.0187
H21 H 0.4850 0.4674 0.0210
C21 C 0.74825(12) 0.1658(3) 0.28665(14)
H22 H 0.7665 0.1407 0.3041
C23 C 0.44680(9) 0.5154(2) 0.03046(9)
C24 C 0.57088(12) 0.3012(2) 0.10192(17)
C26 C 0.52183(11) 0.3578(2) 0.05309(13)
H24 H 0.5072 0.3646 0.0285
C28 C 0.42094(10) 0.49240(19) 0.04340(10)
H26 H 0.4053 0.4589 0.0273
H27 H 0.4338 0.4740 0.0676
C29 C 0.37447(12) 0.5397(3) 0.05406(12)
C30 C 0.46903(10) 0.57342(19) 0.05375(10)
H28 H 0.4541 0.6116 0.0496
H29 H 0.4798 0.5621 0.0792
C32 C 0.74014(14) 0.2253(3) 0.29513(14)
C35 C 0.70116(12) 0.1829(3) 0.22496(13)
C36 C 0.70122(13) 0.3342(2) 0.27737(13)
H32 H 0.6838 0.3544 0.2554
H33 H 0.7217 0.3621 0.2886
H34 H 0.6916 0.3281 0.2936
C37 C 0.53962(13) 0.3851(2) 0.11571(13)
H35 H 0.5364 0.4102 0.1324
C39 C 0.72848(12) 0.1427(2) 0.25089(14)
C40 C 0.69253(12) 0.2450(2) 0.23332(15)
H37 H 0.6745 0.2703 0.2158
C43 C 0.54885(14) 0.3110(2) 0.06498(15)
H39 H 0.5522 0.2864 0.0482
C49 C 0.71199(16) 0.2665(2) 0.26849(18)
C52 C 0.32268(14) 0.5311(4) 0.07405(15)
C56 C 0.5300(2) 0.0563(5) 0.1052(3)
C57 C 0.49609(18) 0.0996(4) 0.0994(3)
H49 H 0.4767 0.0709 0.0951
H50 H 0.4893 0.1281 0.0790
H51 H 0.5021 0.1254 0.1207
C62 C 0.81115(14) 0.0060(3) 0.1839(2)
C63 C 0.81466(13) 0.0002(2) 0.21813(19)
C64 C 0.72371(19) 0.2926(3) 0.02613(19)
H58 H 0.7110 0.3331 0.0174
H59 H 0.7203 0.2656 0.0060
H60 H 0.7485 0.3016 0.0408
C65 C 0.67238(13) 0.2571(3) 0.07939(14)
H61 H 0.6559 0.2779 0.0843
C66 C 0.68498(17) 0.2881(3) 0.05809(17)
C67 C 0.70917(18) 0.2547(4) 0.05007(18)
C68 C 0.72110(14) 0.1904(3) 0.06385(15)
H62 H 0.7367 0.1681 0.0582
C69 C 0.54399(17) 0.7256(3) 0.10698(15)
H63 H 0.5428 0.7529 0.1241
C70 C 0.54892(15) 0.6381(3) 0.05816(14)
H64 H 0.5519 0.6083 0.0431
C71 C 0.57455(14) 0.6870(3) 0.07676(16)
H65 H 0.5941 0.6894 0.0729
C72 C 0.29339(16) 0.5251(5) 0.08406(17)
C73 C 0.67248(18) 0.3594(3) 0.04171(19)
H66 H 0.6555 0.3756 0.0485
H67 H 0.6619 0.3575 0.0158
H68 H 0.6926 0.3883 0.0509
C74 C 0.60099(19) 0.7834(4) 0.11698(17)
C76 C 0.83806(17) 0.0007(4) 0.17523(19)
H70 H 0.8343 0.0072 0.1517
C79 C 0.70889(14) 0.1612(3) 0.08615(13)
C80 C 0.68487(12) 0.1950(3) 0.09306(13)
C81 C 0.60146(18) 0.2503(3) 0.1144(2)
N1 N 0.73103(9) 0.08644(18) 0.23404(10)
N2 N 0.70593(9) 0.08965(16) 0.19854(9)
N3 N 0.68769(8) 0.14778(18) 0.19267(9)
N4 N 0.67851(8) 0.1544(2) 0.11510(9)
N5 N 0.69774(9) 0.09898(19) 0.12090(9)
N6 N 0.71651(9) 0.10170(19) 0.10304(10)
N14 N 0.64290(8) 0.0186(2) 0.13504(8)
N15 N 0.62407(11) 0.07436(19) 0.13042(9)
N16 N 0.78207(10) 0.00711(16) 0.21691(10)
N17 N 0.75966(8) 0.01651(16) 0.18043(11)
N18 N 0.77587(11) 0.01484(19) 0.15964(11)
O3 O 0.62270(12) 0.7898(2) 0.10836(13)
O4 O 0.60058(9) 0.8136(2) 0.14414(13)
O5 O 0.62049(10) 0.24001(19) 0.14622(12)
O6 O 0.60397(11) 0.2173(2) 0.08987(13)
O7 O 0.28184(11) 0.5786(2) 0.09070(12)
O8 O 0.28315(11) 0.4703(2) 0.08862(14)
O9 O 0.49182(7) 0.44051(14) 0.07016(7)
O11 O 0.40074(8) 0.54846(14) 0.04356(8)
O12 O 0.49579(8) 0.58728(15) 0.04378(7)
Zn6 Zn 0.645783(13) 0.87327(3) 0.133772(13)
Zn8 Zn 0.246857(15) 0.52297(3) 0.103043(18)
O13 O 0.79201(9) 0.03295(19) 0.30250(9)
O15 O 0.78184(11) 0.0786(2) 0.09070(12)
C1 C 0.33756(13) 0.4542(3) 0.87493(16)
H1 H 0.3231 0.4195 0.8617
C22 C 0.36015(12) 0.5615(2) 0.87729(12)
H23 H 0.3603 0.5999 0.8655
C27 C 0.38284(11) 0.5559(2) 0.91360(13)
H25 H 0.3980 0.5905 0.9258
C33 C 0.38356(11) 0.4996(2) 0.93242(12)
C41 C 0.31228(14) 0.5140(3) 0.81719(14)
C42 C 0.36047(13) 0.4465(2) 0.91379(14)
H38 H 0.3600 0.4086 0.9259
C44 C 0.33683(12) 0.5116(3) 0.85743(13)
C77 C 0.42672(10) 0.53994(18) 0.99061(10)
H71 H 0.4434 0.5527 0.9823
H72 H 0.4121 0.5776 0.9887
O1 O 0.29201(9) 0.46705(19) 0.80250(9)
O2 O 0.31242(9) 0.5664(2) 0.80111(10)
O10 O 0.40516(7) 0.48691(13) 0.96930(7)
Zn7 Zn 0.263771(12) 0.49374(2) 0.752221(13)
C2 C 0.68416(14) 0.7767(3) 0.22137(17)
H2 H 0.6655 0.7554 0.2021
C9 C 0.6790(2) 0.7612(4) 0.0472(2)
C10 C 0.55900(18) 0.9478(3) 0.10999(19)
H10 H 0.5590 0.9022 0.1094
C11 C 0.49404(17) 0.9475(4) 0.0924(2)
H11 H 0.4753 0.9788 0.0857
H12 H 0.4965 0.9224 0.1128
H13 H 0.4886 0.9186 0.0724
C14 C 0.6653(2) 0.6947(3) 0.02668(18)
H15 H 0.6481 0.6762 0.0325
H16 H 0.6848 0.6648 0.0339
H17 H 0.6546 0.7022 0.0011
C19 C 0.68214(15) 0.8518(3) 0.08611(15)
C25 C 0.58961(14) 0.9876(4) 0.11871(15)
C31 C 0.66798(15) 0.7892(3) 0.06937(15)
H30 H 0.6512 0.7680 0.0738
C34 C 0.71836(16) 0.8580(3) 0.05540(18)
H31 H 0.7338 0.8799 0.0493
C38 C 0.74154(12) 0.8430(3) 0.27974(14)
H36 H 0.7604 0.8640 0.2990
C45 C 0.69567(14) 0.8386(3) 0.21703(14)
C46 C 0.72394(13) 0.8720(3) 0.24512(15)
C47 C 0.90303(16) 0.9691(4) 0.1962(2)
H40 H 0.8981 0.9809 0.1722
H41 H 0.9079 0.9229 0.1998
H42 H 0.9232 0.9933 0.2135
C48 C 0.91250(15) 0.9537(4) 0.27488(19)
H43 H 0.9089 0.9494 0.2957
H44 H 0.9309 0.9852 0.2799
H45 H 0.9192 0.9120 0.2694
C50 C 0.87509(16) 0.9790(4) 0.2396(2)
C51 C 0.8691(2) 0.9861(5) 0.2016(3)
C53 C 0.7041(2) 0.7943(4) 0.04099(19)
C54 C 0.7211(2) 0.7663(3) 0.0171(2)
H46 H 0.7374 0.7978 0.0166
H48 H 0.7333 0.7260 0.0276
C55 C 0.5300(2) 0.9849(5) 0.1027(3)
C58 C 0.70143(18) 0.7485(3) 0.2553(2)
C59 C 0.72995(16) 0.7834(3) 0.28393(16)
C60 C 0.74903(13) 0.7490(2) 0.32194(13)
H52 H 0.7670 0.7776 0.3390
H53 H 0.7597 0.7088 0.3200
H54 H 0.7321 0.7397 0.3300
C61 C 0.68857(14) 0.6814(2) 0.26077(15)
H55 H 0.6696 0.6663 0.2382
H56 H 0.6803 0.6853 0.2782
H57 H 0.7078 0.6505 0.2694
C75 C 0.84747(14) 0.9861(3) 0.25055(16)
H69 H 0.8505 0.9823 0.2739
C78 C 0.70718(16) 0.8856(3) 0.07991(15)
N7 N 0.71561(9) 0.9446(2) 0.09951(12)
N8 N 0.69619(10) 0.9438(2) 0.11752(9)
N9 N 0.67613(9) 0.8879(2) 0.10970(10)
N10 N 0.68414(8) 0.8788(2) 0.18665(9)
N11 N 0.70458(9) 0.93441(17) 0.19604(10)
N12 N 0.72916(9) 0.93155(18) 0.23205(10)
N13 N 0.62272(11) 0.96369(18) 0.12760(9)
O16 O 0.78315(11) 0.9703(2) 0.08862(14)
C4_2 C 0.07228(14) 0.2301(3) 0.09969(15)
C16_2 C 0.01699(13) 0.1786(3) 0.08783(16)
C18_2 C 0.02031(13) 0.1360(2) 0.06286(12)
C69_2 C 0.04399(17) 0.2256(3) 0.10698(15)
H63_2 H 0.0428 0.2529 0.1241
C70_2 C 0.04892(15) 0.1381(3) 0.05816(14)
H64_2 H 0.0519 0.1083 0.0431
C71_2 C 0.07455(14) 0.1870(3) 0.07676(16)
H65_2 H 0.0941 0.1894 0.0729
C74_2 C 0.10099(19) 0.2834(4) 0.11698(17)
O3_2 O 0.12270(12) 0.2898(2) 0.10836(13)
O4_2 O 0.10058(9) 0.3136(2) 0.14414(13)
Zn6_2 Zn 0.145783(13) 0.37327(3) 0.133772(13)
Zn1_2 Zn 0.147811(13) 0.66353(2) 0.139718(13)
Zn2_2 Zn 0.201181(11) 0.51762(2) 0.157348(12)
Zn4_2 Zn 0.263771(12) 0.50626(2) 0.252221(13)
C2_2 C 0.18416(14) 0.2767(3) 0.22137(17)
H2_2 H 0.1655 0.2554 0.2021
C5_2 C 0.06662(13) 0.8390(3) 0.12738(14)
H4_2 H 0.0818 0.8333 0.1520
C7_2 C 0.26082(13) 0.7535(2) 0.33422(12)
H6_2 H 0.2767 0.7207 0.3501
H7_2 H 0.2444 0.7660 0.3425
H8_2 H 0.2741 0.7913 0.3342
C9_2 C 0.1790(2) 0.2612(4) 0.0472(2)
C10_2 C 0.05900(18) 0.4478(3) 0.10999(19)
H10_2 H 0.0590 0.4022 0.1094
C13_2 C 0.09082(15) 0.5542(4) 0.12036(15)
C14_2 C 0.1653(2) 0.1947(3) 0.02668(18)
H15_2 H 0.1481 0.1762 0.0325
H16_2 H 0.1848 0.1648 0.0339
H17_2 H 0.1546 0.2022 0.0011
C15_2 C 0.06083(18) 0.5932(3) 0.11280(18)
H18_2 H 0.0613 0.6389 0.1128
C17_2 C 0.01697(11) 0.8936(2) 0.07802(13)
C19_2 C 0.18214(15) 0.3518(3) 0.08611(15)
C21_2 C 0.24825(12) 0.6658(3) 0.28665(14)
H22_2 H 0.2665 0.6407 0.3041
C24_2 C 0.07088(12) 0.8012(2) 0.10192(17)
C25_2 C 0.08961(14) 0.4876(4) 0.11871(15)
C26_2 C 0.02183(11) 0.8578(2) 0.05309(13)
H24_2 H 0.0072 0.8646 0.0285
C31_2 C 0.16798(15) 0.2892(3) 0.06937(15)
H30_2 H 0.1512 0.2680 0.0738
C32_2 C 0.24014(14) 0.7253(3) 0.29513(14)
C34_2 C 0.21836(16) 0.3580(3) 0.05540(18)
H31_2 H 0.2338 0.3799 0.0493
C35_2 C 0.20116(12) 0.6829(3) 0.22496(13)
C36_2 C 0.20122(13) 0.8342(2) 0.27737(13)
H32_2 H 0.1838 0.8544 0.2554
H33_2 H 0.2217 0.8621 0.2886
H34_2 H 0.1916 0.8281 0.2936
C37_2 C 0.03962(13) 0.8851(2) 0.11571(13)
H35_2 H 0.0364 0.9102 0.1324
C38_2 C 0.24154(12) 0.3430(3) 0.27974(14)
H36_2 H 0.2604 0.3640 0.2990
C39_2 C 0.22848(12) 0.6427(2) 0.25089(14)
C40_2 C 0.19253(12) 0.7450(2) 0.23332(15)
H37_2 H 0.1745 0.7703 0.2158
C43_2 C 0.04885(14) 0.8110(2) 0.06498(15)
H39_2 H 0.0522 0.7864 0.0482
C45_2 C 0.19567(14) 0.3386(3) 0.21703(14)
C46_2 C 0.22394(13) 0.3720(3) 0.24512(15)
C47_2 C 0.40303(16) 0.4691(4) 0.1962(2)
H40_2 H 0.3981 0.4809 0.1722
H41_2 H 0.4079 0.4229 0.1998
H42_2 H 0.4232 0.4933 0.2135
C48_2 C 0.41250(15) 0.4537(4) 0.27488(19)
H43_2 H 0.4089 0.4494 0.2957
H44_2 H 0.4309 0.4852 0.2799
H45_2 H 0.4192 0.4120 0.2694
C49_2 C 0.21199(16) 0.7665(2) 0.26849(18)
C50_2 C 0.37509(16) 0.4790(4) 0.2396(2)
C51_2 C 0.3691(2) 0.4861(5) 0.2016(3)
C53_2 C 0.2041(2) 0.2943(4) 0.04099(19)
C54_2 C 0.2211(2) 0.2663(3) 0.0171(2)
H46_2 H 0.2374 0.2978 0.0166
H48_2 H 0.2333 0.2260 0.0276
C55_2 C 0.0300(2) 0.4849(5) 0.1027(3)
C56_2 C 0.0300(2) 0.5563(5) 0.1052(3)
H51_2 H 0.0021 0.6254 0.1207
C58_2 C 0.20143(18) 0.2485(3) 0.2553(2)
C59_2 C 0.22995(16) 0.2834(3) 0.28393(16)
C60_2 C 0.24903(13) 0.2490(2) 0.32194(13)
H52_2 H 0.2670 0.2776 0.3390
H53_2 H 0.2597 0.2088 0.3200
H54_2 H 0.2321 0.2397 0.3300
C61_2 C 0.18857(14) 0.1814(2) 0.26077(15)
H55_2 H 0.1696 0.1663 0.2382
H56_2 H 0.1803 0.1853 0.2782
H57_2 H 0.2078 0.1505 0.2694
C62_2 C 0.31115(14) 0.5060(3) 0.1839(2)
C63_2 C 0.31466(13) 0.5002(2) 0.21813(19)
C64_2 C 0.22371(19) 0.7926(3) 0.02613(19)
H58_2 H 0.2110 0.8331 0.0174
H59_2 H 0.2203 0.7656 0.0060
H60_2 H 0.2485 0.8016 0.0408
C65_2 C 0.17238(13) 0.7571(3) 0.07939(14)
H61_2 H 0.1559 0.7779 0.0843
C66_2 C 0.18498(17) 0.7881(3) 0.05809(17)
C67_2 C 0.20917(18) 0.7547(4) 0.05007(18)
C68_2 C 0.22110(14) 0.6904(3) 0.06385(15)
H62_2 H 0.2367 0.6681 0.0582
C73_2 C 0.17248(18) 0.8594(3) 0.04171(19)
H66_2 H 0.1555 0.8756 0.0485
H67_2 H 0.1619 0.8575 0.0158
H68_2 H 0.1926 0.8883 0.0509
C75_2 C 0.34747(14) 0.4861(3) 0.25055(16)
H69_2 H 0.3505 0.4823 0.2739
C76_2 C 0.33806(17) 0.5007(4) 0.17523(19)
H70_2 H 0.3343 0.5072 0.1517
C78_2 C 0.20718(16) 0.3856(3) 0.07991(15)
C79_2 C 0.20889(14) 0.6612(3) 0.08615(13)
C80_2 C 0.18487(12) 0.6950(3) 0.09306(13)
C81_2 C 0.10146(18) 0.7503(3) 0.1144(2)
N1_2 N 0.23103(9) 0.58644(18) 0.23404(10)
N2_2 N 0.20593(9) 0.58965(16) 0.19854(9)
N3_2 N 0.18769(8) 0.64778(18) 0.19267(9)
N4_2 N 0.17851(8) 0.6544(2) 0.11510(9)
N5_2 N 0.19774(9) 0.59898(19) 0.12090(9)
N6_2 N 0.21651(9) 0.60170(19) 0.10304(10)
N7_2 N 0.21561(9) 0.4446(2) 0.09951(12)
N8_2 N 0.19619(10) 0.4438(2) 0.11752(9)
N9_2 N 0.17613(9) 0.3879(2) 0.10970(10)
N10_2 N 0.18414(8) 0.3788(2) 0.18665(9)
N11_2 N 0.20458(9) 0.43441(17) 0.19604(10)
N12_2 N 0.22916(9) 0.43155(18) 0.23205(10)
N13_2 N 0.12272(11) 0.46369(18) 0.12760(9)
N14_2 N 0.14290(8) 0.5186(2) 0.13504(8)
N15_2 N 0.12407(11) 0.57436(19) 0.13042(9)
N16_2 N 0.28207(10) 0.50711(16) 0.21691(10)
N17_2 N 0.25966(8) 0.51651(16) 0.18043(11)
N18_2 N 0.27587(11) 0.51484(19) 0.15964(11)
O5_2 O 0.12049(10) 0.74001(19) 0.14622(12)
O6_2 O 0.10397(11) 0.7173(2) 0.08987(13)
O13_2 O 0.29201(9) 0.53295(19) 0.30250(9)
C3_2 C 0.83329(15) 0.0919(3) 0.06721(15)
H3_2 H 0.8225 0.1298 0.0696
C8_2 C 0.85892(14) 0.0972(3) 0.05722(13)
H9_2 H 0.8658 0.1378 0.0527
H19_2 H 0.9974 0.1757 0.0916
C23_2 C 0.94680(9) 0.0154(2) 0.03046(9)
C29_2 C 0.87447(12) 0.0397(3) 0.05406(12)
C30_2 C 0.96903(10) 0.07342(19) 0.05375(10)
H28_2 H 0.9541 0.1116 0.0496
H29_2 H 0.9798 0.0621 0.0792
C52_2 C 0.82268(14) 0.0311(4) 0.07405(15)
C72_2 C 0.79339(16) 0.0251(5) 0.08406(17)
O11_2 O 0.90074(8) 0.04846(14) 0.04356(8)
O12_2 O 0.99579(8) 0.08728(15) 0.04378(7)
C6_2 C 0.83830(14) 0.9734(3) 0.07000(15)
H5_2 H 0.8308 0.9328 0.0738
C11_2 C 0.99404(17) 0.4475(4) 0.0924(2)
H11_2 H 0.9753 0.4788 0.0857
H12_2 H 0.9965 0.4224 0.1128
H13_2 H 0.9886 0.4186 0.0724
C12_2 C 0.86453(13) 0.9769(3) 0.06045(13)
H14_2 H 0.8755 0.9392 0.0582
C20_2 C 0.97018(10) 0.95593(19) 0.03170(10)
H20_2 H 0.9555 0.9187 0.0187
H21_2 H 0.9850 0.9674 0.0210
C28_2 C 0.92094(10) 0.99240(19) 0.04340(10)
H26_2 H 0.9053 0.9589 0.0273
H27_2 H 0.9338 0.9740 0.0676
C57_2 C 0.99609(18) 0.5996(4) 0.0994(3)
H49_2 H 0.9767 0.5709 0.0951
H50_2 H 0.9893 0.6281 0.0790
O9_2 O 0.99182(7) 0.94051(14) 0.07016(7)
C1_2 C 0.83756(13) 0.9542(3) 0.87493(16)
H1_2 H 0.8231 0.9195 0.8617
C33_2 C 0.88356(11) 0.9996(2) 0.93242(12)
C42_2 C 0.86047(13) 0.9465(2) 0.91379(14)
H38_2 H 0.8600 0.9086 0.9259
O1_2 O 0.79201(9) 0.96705(19) 0.80250(9)
O10_2 O 0.90516(7) 0.98691(13) 0.96930(7)
Zn7_2 Zn 0.763771(12) 0.99374(2) 0.752221(13)
Zn3 Zn 0.645783(13) 0.12673(3) 0.633772(13)
C2_3 C 0.68416(14) 0.2233(3) 0.72137(17)
H2_3 H 0.6655 0.2446 0.7021
C9_3 C 0.6790(2) 0.2388(4) 0.5472(2)
C10_3 C 0.55900(18) 0.0522(3) 0.60999(19)
H10_3 H 0.5590 0.0978 0.6094
C11_3 C 0.49404(17) 0.0525(4) 0.5924(2)
H11_3 H 0.4753 0.0212 0.5857
H12_3 H 0.4965 0.0776 0.6128
H13_3 H 0.4886 0.0814 0.5724
C14_3 C 0.6653(2) 0.3053(3) 0.52668(18)
H15_3 H 0.6481 0.3238 0.5325
H16_3 H 0.6848 0.3352 0.5339
H17_3 H 0.6546 0.2978 0.5011
C19_3 C 0.68214(15) 0.1482(3) 0.58611(15)
C25_3 C 0.58961(14) 0.0124(4) 0.61871(15)
C31_3 C 0.66798(15) 0.2108(3) 0.56937(15)
H30_3 H 0.6512 0.2320 0.5738
C34_3 C 0.71836(16) 0.1420(3) 0.55540(18)
H31_3 H 0.7338 0.1201 0.5493
C38_3 C 0.74154(12) 0.1570(3) 0.77974(14)
H36_3 H 0.7604 0.1360 0.7990
C45_3 C 0.69567(14) 0.1614(3) 0.71703(14)
C46_3 C 0.72394(13) 0.1280(3) 0.74512(15)
C47_3 C 0.90303(16) 0.0309(4) 0.6962(2)
H40_3 H 0.8981 0.0191 0.6722
H41_3 H 0.9079 0.0771 0.6998
H42_3 H 0.9232 0.0067 0.7135
C48_3 C 0.91250(15) 0.0463(4) 0.77488(19)
H43_3 H 0.9089 0.0506 0.7957
H44_3 H 0.9309 0.0148 0.7799
H45_3 H 0.9192 0.0880 0.7694
C50_3 C 0.87509(16) 0.0210(4) 0.7396(2)
C51_3 C 0.8691(2) 0.0139(5) 0.7016(3)
C53_3 C 0.7041(2) 0.2057(4) 0.54099(19)
C54_3 C 0.7211(2) 0.2337(3) 0.5171(2)
H46_3 H 0.7374 0.2022 0.5166
H47 H 0.7026 0.2418 0.4929
H48_3 H 0.7333 0.2740 0.5276
C55_3 C 0.5300(2) 0.0151(5) 0.6027(3)
C58_3 C 0.70143(18) 0.2515(3) 0.7553(2)
C59_3 C 0.72995(16) 0.2166(3) 0.78393(16)
C60_3 C 0.74903(13) 0.2510(2) 0.82194(13)
H52_3 H 0.7670 0.2224 0.8390
H53_3 H 0.7597 0.2912 0.8200
H54_3 H 0.7321 0.2603 0.8300
C61_3 C 0.68857(14) 0.3186(2) 0.76077(15)
H55_3 H 0.6696 0.3337 0.7382
H56_3 H 0.6803 0.3147 0.7782
H57_3 H 0.7078 0.3495 0.7694
C75_3 C 0.84747(14) 0.0139(3) 0.75055(16)
H69_3 H 0.8505 0.0177 0.7739
C78_3 C 0.70718(16) 0.1144(3) 0.57991(15)
N7_3 N 0.71561(9) 0.0554(2) 0.59951(12)
N8_3 N 0.69619(10) 0.0562(2) 0.61752(9)
N9_3 N 0.67613(9) 0.1121(2) 0.60970(10)
N10_3 N 0.68414(8) 0.1212(2) 0.68665(9)
N11_3 N 0.70458(9) 0.06559(17) 0.69604(10)
N12_3 N 0.72916(9) 0.06845(18) 0.73205(10)
N13_3 N 0.62272(11) 0.03631(18) 0.62760(9)
O14 O 0.62270(12) 0.2102(2) 0.60836(13)
O16_2 O 0.78315(11) 0.0297(2) 0.58862(14)
Zn1_3 Zn 0.647811(13) 0.83647(2) 0.639718(13)
Zn2_3 Zn 0.701181(11) 0.98238(2) 0.657348(12)
Zn5_2 Zn 0.746857(15) 0.97703(3) 0.603043(18)
C1_3 C 0.33756(13) 0.5458(3) 0.37493(16)
H1_3 H 0.3231 0.5805 0.3617
C3_3 C 0.33329(15) 0.4081(3) 0.56721(15)
H3_3 H 0.3225 0.3702 0.5696
C4_3 C 0.57228(14) 0.2699(3) 0.59969(15)
C5_3 C 0.56662(13) 0.6610(3) 0.62738(14)
H4_3 H 0.5818 0.6667 0.6520
C6_3 C 0.33830(14) 0.5266(3) 0.57000(15)
H5_3 H 0.3308 0.5672 0.5738
C7_3 C 0.76082(13) 0.7465(2) 0.83422(12)
H6_3 H 0.7767 0.7793 0.8501
H7_3 H 0.7444 0.7340 0.8425
H8_3 H 0.7741 0.7087 0.8342
C8_3 C 0.35892(14) 0.4028(3) 0.55722(13)
H9_3 H 0.3658 0.3622 0.5527
C12_3 C 0.36453(13) 0.5231(3) 0.56045(13)
H14_3 H 0.3755 0.5608 0.5582
C13_3 C 0.59082(15) 0.9458(4) 0.62036(15)
C15_3 C 0.56083(18) 0.9068(3) 0.61280(18)
H18_3 H 0.5613 0.8611 0.6128
C16_3 C 0.51699(13) 0.3214(3) 0.58783(16)
H19_3 H 0.4974 0.3243 0.5916
C17_3 C 0.51697(11) 0.6064(2) 0.57802(13)
C18_3 C 0.52031(13) 0.3640(2) 0.56286(12)
C20_3 C 0.47018(10) 0.54407(19) 0.53170(10)
H20_3 H 0.4555 0.5813 0.5187
H21_3 H 0.4850 0.5326 0.5210
C21_3 C 0.74825(12) 0.8342(3) 0.78665(14)
H22_3 H 0.7665 0.8593 0.8041
C22_2 C 0.36015(12) 0.4385(2) 0.37729(12)
H23_2 H 0.3603 0.4001 0.3655
C23_3 C 0.44680(9) 0.4846(2) 0.53046(9)
C24_3 C 0.57088(12) 0.6988(2) 0.60192(17)
C26_3 C 0.52183(11) 0.6422(2) 0.55309(13)
H24_3 H 0.5072 0.6354 0.5285
C27_2 C 0.38284(11) 0.4441(2) 0.41360(13)
H25_2 H 0.3980 0.4095 0.4258
C28_3 C 0.42094(10) 0.50760(19) 0.54340(10)
H26_3 H 0.4053 0.5411 0.5273
H27_3 H 0.4338 0.5260 0.5676
C29_3 C 0.37447(12) 0.4603(3) 0.55406(12)
C30_3 C 0.46903(10) 0.42658(19) 0.55375(10)
H28_3 H 0.4541 0.3884 0.5496
H29_3 H 0.4798 0.4379 0.5792
C32_3 C 0.74014(14) 0.7747(3) 0.79513(14)
C33_3 C 0.38356(11) 0.5004(2) 0.43242(12)
C35_3 C 0.70116(12) 0.8171(3) 0.72496(13)
C36_3 C 0.70122(13) 0.6658(2) 0.77737(13)
H32_3 H 0.6838 0.6456 0.7554
H33_3 H 0.7217 0.6379 0.7886
H34_3 H 0.6916 0.6719 0.7936
C37_3 C 0.53962(13) 0.6149(2) 0.61571(13)
H35_3 H 0.5364 0.5898 0.6324
C39_3 C 0.72848(12) 0.8573(2) 0.75089(14)
C40_3 C 0.69253(12) 0.7550(2) 0.73332(15)
H37_3 H 0.6745 0.7297 0.7158
C41_2 C 0.31228(14) 0.4860(3) 0.31719(14)
C42_3 C 0.36047(13) 0.5535(2) 0.41379(14)
H38_3 H 0.3600 0.5914 0.4259
C43_3 C 0.54885(14) 0.6890(2) 0.56498(15)
H39_3 H 0.5522 0.7136 0.5482
C44_2 C 0.33683(12) 0.4884(3) 0.35743(13)
C49_3 C 0.71199(16) 0.7335(2) 0.76849(18)
C52_3 C 0.32268(14) 0.4689(4) 0.57405(15)
C56_3 C 0.5300(2) 0.9437(5) 0.6052(3)
C57_3 C 0.49609(18) 0.9004(4) 0.5994(3)
H49_3 H 0.4767 0.9291 0.5951
H50_3 H 0.4893 0.8719 0.5790
H51_3 H 0.5021 0.8746 0.6207
C62_3 C 0.81115(14) 0.9940(3) 0.6839(2)
C63_3 C 0.81466(13) 0.9998(2) 0.71813(19)
C64_3 C 0.72371(19) 0.7074(3) 0.52613(19)
H58_3 H 0.7110 0.6669 0.5174
H59_3 H 0.7203 0.7344 0.5060
H60_3 H 0.7485 0.6984 0.5408
C65_3 C 0.67238(13) 0.7429(3) 0.57939(14)
H61_3 H 0.6559 0.7221 0.5843
C66_3 C 0.68498(17) 0.7119(3) 0.55809(17)
C67_3 C 0.70917(18) 0.7453(4) 0.55007(18)
C68_3 C 0.72110(14) 0.8096(3) 0.56385(15)
H62_3 H 0.7367 0.8319 0.5582
C69_3 C 0.54399(17) 0.2744(3) 0.60698(15)
H63_3 H 0.5428 0.2471 0.6241
C70_3 C 0.54892(15) 0.3619(3) 0.55816(14)
H64_3 H 0.5519 0.3917 0.5431
C71_3 C 0.57455(14) 0.3130(3) 0.57676(16)
H65_3 H 0.5941 0.3106 0.5729
C72_3 C 0.29339(16) 0.4749(5) 0.58406(17)
C73_3 C 0.67248(18) 0.6406(3) 0.54171(19)
H66_3 H 0.6555 0.6244 0.5485
H67_3 H 0.6619 0.6425 0.5158
H68_3 H 0.6926 0.6117 0.5509
C74_3 C 0.60099(19) 0.2166(4) 0.61698(17)
C76_3 C 0.83806(17) 0.9993(4) 0.67523(19)
H70_3 H 0.8343 0.9928 0.6517
C77_2 C 0.42672(10) 0.46006(18) 0.49061(10)
H71_2 H 0.4434 0.4473 0.4823
H72_2 H 0.4121 0.4224 0.4887
C79_3 C 0.70889(14) 0.8388(3) 0.58615(13)
C80_3 C 0.68487(12) 0.8050(3) 0.59306(13)
C81_3 C 0.60146(18) 0.7497(3) 0.6144(2)
N1_3 N 0.73103(9) 0.91356(18) 0.73404(10)
N2_3 N 0.70593(9) 0.91035(16) 0.69854(9)
N3_3 N 0.68769(8) 0.85222(18) 0.69267(9)
N4_3 N 0.67851(8) 0.8456(2) 0.61510(9)
N5_3 N 0.69774(9) 0.90102(19) 0.62090(9)
N6_3 N 0.71651(9) 0.89830(19) 0.60304(10)
N14_3 N 0.64290(8) 0.9814(2) 0.63504(8)
N15_3 N 0.62407(11) 0.92564(19) 0.63042(9)
N16_3 N 0.78207(10) 0.99289(16) 0.71691(10)
N17_3 N 0.75966(8) 0.98349(16) 0.68043(11)
N18_3 N 0.77587(11) 0.98516(19) 0.65964(11)
O2_2 O 0.31242(9) 0.4336(2) 0.30111(10)
O4_3 O 0.60058(9) 0.1864(2) 0.64414(13)
O5_3 O 0.62049(10) 0.75999(19) 0.64622(12)
O6_3 O 0.60397(11) 0.7827(2) 0.58987(13)
O7_2 O 0.28184(11) 0.4214(2) 0.59070(12)
O8_2 O 0.28315(11) 0.5297(2) 0.58862(14)
O9_3 O 0.49182(7) 0.55949(14) 0.57016(7)
O10_3 O 0.40516(7) 0.51309(13) 0.46930(7)
O11_3 O 0.40074(8) 0.45154(14) 0.54356(8)
O12_3 O 0.49579(8) 0.41272(15) 0.54378(7)
Zn8_2 Zn 0.246857(15) 0.47703(3) 0.603043(18)
O15_2 O 0.78184(11) 0.9214(2) 0.59070(12)
Zn1_4 Zn 0.147811(13) 0.33647(2) 0.639718(13)
Zn2_4 Zn 0.201181(11) 0.48238(2) 0.657348(12)
Zn3_2 Zn 0.145783(13) 0.62673(3) 0.633772(13)
C2_4 C 0.18416(14) 0.7233(3) 0.72137(17)
H2_4 H 0.1655 0.7446 0.7021
C5_4 C 0.06662(13) 0.1610(3) 0.62738(14)
H4_4 H 0.0818 0.1667 0.6520
C7_4 C 0.26082(13) 0.2465(2) 0.83422(12)
H6_4 H 0.2767 0.2793 0.8501
H7_4 H 0.2444 0.2340 0.8425
H8_4 H 0.2741 0.2087 0.8342
C9_4 C 0.1790(2) 0.7388(4) 0.5472(2)
C10_4 C 0.05900(18) 0.5522(3) 0.60999(19)
H10_4 H 0.0590 0.5978 0.6094
C13_4 C 0.09082(15) 0.4458(4) 0.62036(15)
C14_4 C 0.1653(2) 0.8053(3) 0.52668(18)
H15_4 H 0.1481 0.8238 0.5325
H16_4 H 0.1848 0.8352 0.5339
H17_4 H 0.1546 0.7978 0.5011
C15_4 C 0.06083(18) 0.4068(3) 0.61280(18)
H18_4 H 0.0613 0.3611 0.6128
C17_4 C 0.01697(11) 0.1064(2) 0.57802(13)
C19_4 C 0.18214(15) 0.6482(3) 0.58611(15)
C21_4 C 0.24825(12) 0.3342(3) 0.78665(14)
H22_4 H 0.2665 0.3593 0.8041
C24_4 C 0.07088(12) 0.1988(2) 0.60192(17)
C25_4 C 0.08961(14) 0.5124(4) 0.61871(15)
C26_4 C 0.02183(11) 0.1422(2) 0.55309(13)
H24_4 H 0.0072 0.1354 0.5285
C31_4 C 0.16798(15) 0.7108(3) 0.56937(15)
H30_4 H 0.1512 0.7320 0.5738
C32_4 C 0.24014(14) 0.2747(3) 0.79513(14)
C34_4 C 0.21836(16) 0.6420(3) 0.55540(18)
H31_4 H 0.2338 0.6201 0.5493
C35_4 C 0.20116(12) 0.3171(3) 0.72496(13)
C36_4 C 0.20122(13) 0.1658(2) 0.77737(13)
H32_4 H 0.1838 0.1456 0.7554
H33_4 H 0.2217 0.1379 0.7886
H34_4 H 0.1916 0.1719 0.7936
C37_4 C 0.03962(13) 0.1149(2) 0.61571(13)
H35_4 H 0.0364 0.0898 0.6324
C38_4 C 0.24154(12) 0.6570(3) 0.77974(14)
H36_4 H 0.2604 0.6360 0.7990
C39_4 C 0.22848(12) 0.3573(2) 0.75089(14)
C40_4 C 0.19253(12) 0.2550(2) 0.73332(15)
H37_4 H 0.1745 0.2297 0.7158
C43_4 C 0.04885(14) 0.1890(2) 0.56498(15)
H39_4 H 0.0522 0.2136 0.5482
C45_4 C 0.19567(14) 0.6614(3) 0.71703(14)
C46_4 C 0.22394(13) 0.6280(3) 0.74512(15)
C47_4 C 0.40303(16) 0.5309(4) 0.6962(2)
H40_4 H 0.3981 0.5191 0.6722
H41_4 H 0.4079 0.5771 0.6998
H42_4 H 0.4232 0.5067 0.7135
C48_4 C 0.41250(15) 0.5463(4) 0.77488(19)
H43_4 H 0.4089 0.5506 0.7957
H44_4 H 0.4309 0.5148 0.7799
H45_4 H 0.4192 0.5880 0.7694
C49_4 C 0.21199(16) 0.2335(2) 0.76849(18)
C50_4 C 0.37509(16) 0.5210(4) 0.7396(2)
C51_4 C 0.3691(2) 0.5139(5) 0.7016(3)
C53_4 C 0.2041(2) 0.7057(4) 0.54099(19)
C54_4 C 0.2211(2) 0.7337(3) 0.5171(2)
H46_4 H 0.2374 0.7022 0.5166
H47_2 H 0.2026 0.7418 0.4929
H48_4 H 0.2333 0.7740 0.5276
C55_4 C 0.0300(2) 0.5151(5) 0.6027(3)
C56_4 C 0.0300(2) 0.4437(5) 0.6052(3)
H51_4 H 0.0021 0.3746 0.6207
C58_4 C 0.20143(18) 0.7515(3) 0.7553(2)
C59_4 C 0.22995(16) 0.7166(3) 0.78393(16)
C60_4 C 0.24903(13) 0.7510(2) 0.82194(13)
H52_4 H 0.2670 0.7224 0.8390
H53_4 H 0.2597 0.7912 0.8200
H54_4 H 0.2321 0.7603 0.8300
C61_4 C 0.18857(14) 0.8186(2) 0.76077(15)
H55_4 H 0.1696 0.8337 0.7382
H56_4 H 0.1803 0.8147 0.7782
H57_4 H 0.2078 0.8495 0.7694
C62_4 C 0.31115(14) 0.4940(3) 0.6839(2)
C63_4 C 0.31466(13) 0.4998(2) 0.71813(19)
C64_4 C 0.22371(19) 0.2074(3) 0.52613(19)
H58_4 H 0.2110 0.1669 0.5174
H59_4 H 0.2203 0.2344 0.5060
H60_4 H 0.2485 0.1984 0.5408
C65_4 C 0.17238(13) 0.2429(3) 0.57939(14)
H61_4 H 0.1559 0.2221 0.5843
C66_4 C 0.18498(17) 0.2119(3) 0.55809(17)
C67_4 C 0.20917(18) 0.2453(4) 0.55007(18)
C68_4 C 0.22110(14) 0.3096(3) 0.56385(15)
H62_4 H 0.2367 0.3319 0.5582
C73_4 C 0.17248(18) 0.1406(3) 0.54171(19)
H66_4 H 0.1555 0.1244 0.5485
H67_4 H 0.1619 0.1425 0.5158
H68_4 H 0.1926 0.1117 0.5509
C75_4 C 0.34747(14) 0.5139(3) 0.75055(16)
H69_4 H 0.3505 0.5177 0.7739
C76_4 C 0.33806(17) 0.4993(4) 0.67523(19)
H70_4 H 0.3343 0.4928 0.6517
C78_4 C 0.20718(16) 0.6144(3) 0.57991(15)
C79_4 C 0.20889(14) 0.3388(3) 0.58615(13)
C80_4 C 0.18487(12) 0.3050(3) 0.59306(13)
C81_4 C 0.10146(18) 0.2497(3) 0.6144(2)
N1_4 N 0.23103(9) 0.41356(18) 0.73404(10)
N2_4 N 0.20593(9) 0.41035(16) 0.69854(9)
N3_4 N 0.18769(8) 0.35222(18) 0.69267(9)
N4_4 N 0.17851(8) 0.3456(2) 0.61510(9)
N5_4 N 0.19774(9) 0.40102(19) 0.62090(9)
N6_4 N 0.21651(9) 0.39830(19) 0.60304(10)
N7_4 N 0.21561(9) 0.5554(2) 0.59951(12)
N8_4 N 0.19619(10) 0.5562(2) 0.61752(9)
N9_4 N 0.17613(9) 0.6121(2) 0.60970(10)
N10_4 N 0.18414(8) 0.6212(2) 0.68665(9)
N11_4 N 0.20458(9) 0.56559(17) 0.69604(10)
N12_4 N 0.22916(9) 0.56845(18) 0.73205(10)
N13_4 N 0.12272(11) 0.53631(18) 0.62760(9)
N14_4 N 0.14290(8) 0.4814(2) 0.63504(8)
N15_4 N 0.12407(11) 0.42564(19) 0.63042(9)
N16_4 N 0.28207(10) 0.49289(16) 0.71691(10)
N17_4 N 0.25966(8) 0.48349(16) 0.68043(11)
N18_4 N 0.27587(11) 0.48516(19) 0.65964(11)
O5_4 O 0.12049(10) 0.25999(19) 0.64622(12)
O6_4 O 0.10397(11) 0.2827(2) 0.58987(13)
O14_2 O 0.12270(12) 0.7102(2) 0.60836(13)
C4_4 C 0.07228(14) 0.7699(3) 0.59969(15)
C16_4 C 0.01699(13) 0.8214(3) 0.58783(16)
C18_4 C 0.02031(13) 0.8640(2) 0.56286(12)
C69_4 C 0.04399(17) 0.7744(3) 0.60698(15)
H63_4 H 0.0428 0.7471 0.6241
C70_4 C 0.04892(15) 0.8619(3) 0.55816(14)
H64_4 H 0.0519 0.8917 0.5431
C71_4 C 0.07455(14) 0.8130(3) 0.57676(16)
H65_4 H 0.0941 0.8106 0.5729
C74_4 C 0.10099(19) 0.7166(4) 0.61698(17)
O4_4 O 0.10058(9) 0.6864(2) 0.64414(13)
C1_4 C 0.83756(13) 0.0458(3) 0.37493(16)
H1_4 H 0.8231 0.0805 0.3617
C6_4 C 0.83830(14) 0.0266(3) 0.57000(15)
H5_4 H 0.8308 0.0672 0.5738
C11_4 C 0.99404(17) 0.5525(4) 0.5924(2)
H11_4 H 0.9753 0.5212 0.5857
H12_4 H 0.9965 0.5776 0.6128
H13_4 H 0.9886 0.5814 0.5724
C12_4 C 0.86453(13) 0.0231(3) 0.56045(13)
H14_4 H 0.8755 0.0608 0.5582
C20_4 C 0.97018(10) 0.04407(19) 0.53170(10)
H20_4 H 0.9555 0.0813 0.5187
H21_4 H 0.9850 0.0326 0.5210
C28_4 C 0.92094(10) 0.00760(19) 0.54340(10)
H26_4 H 0.9053 0.0411 0.5273
H27_4 H 0.9338 0.0260 0.5676
C33_4 C 0.88356(11) 0.0004(2) 0.43242(12)
C42_4 C 0.86047(13) 0.0535(2) 0.41379(14)
H38_4 H 0.8600 0.0914 0.4259
C57_4 C 0.99609(18) 0.4004(4) 0.5994(3)
H49_4 H 0.9767 0.4291 0.5951
H50_4 H 0.9893 0.3719 0.5790
O9_4 O 0.99182(7) 0.05949(14) 0.57016(7)
O10_4 O 0.90516(7) 0.01309(13) 0.46930(7)
C3_4 C 0.83329(15) 0.9081(3) 0.56721(15)
H3_4 H 0.8225 0.8702 0.5696
C8_4 C 0.85892(14) 0.9028(3) 0.55722(13)
H9_4 H 0.8658 0.8622 0.5527
H19_4 H 0.9974 0.8243 0.5916
C22_3 C 0.86015(12) 0.9385(2) 0.37729(12)
H23_3 H 0.8603 0.9001 0.3655
C23_4 C 0.94680(9) 0.9846(2) 0.53046(9)
C27_3 C 0.88284(11) 0.9441(2) 0.41360(13)
H25_3 H 0.8980 0.9095 0.4258
C29_4 C 0.87447(12) 0.9603(3) 0.55406(12)
C30_4 C 0.96903(10) 0.92658(19) 0.55375(10)
H28_4 H 0.9541 0.8884 0.5496
H29_4 H 0.9798 0.9379 0.5792
C41_3 C 0.81228(14) 0.9860(3) 0.31719(14)
C44_3 C 0.83683(12) 0.9884(3) 0.35743(13)
C52_4 C 0.82268(14) 0.9689(4) 0.57405(15)
C72_4 C 0.79339(16) 0.9749(5) 0.58406(17)
C77_3 C 0.92672(10) 0.96006(18) 0.49061(10)
H71_3 H 0.9434 0.9473 0.4823
H72_3 H 0.9121 0.9224 0.4887
O2_3 O 0.81242(9) 0.9336(2) 0.30111(10)
O11_4 O 0.90074(8) 0.95154(14) 0.54356(8)
O12_4 O 0.99579(8) 0.91272(15) 0.54378(7)
H47_3 H 0.7026 0.7582 0.9929
Zn1_5 Zn 0.352189(13) 0.16353(2) 0.360282(13)
Zn2_5 Zn 0.298819(11) 0.01762(2) 0.342652(12)
Zn4_3 Zn 0.236229(12) 0.00626(2) 0.247779(13)
Zn5_3 Zn 0.253143(15) 0.02297(3) 0.396957(18)
C1_5 C 0.66244(13) 0.4542(3) 0.62507(16)
H1_5 H 0.6769 0.4195 0.6383
C3_5 C 0.66671(15) 0.5919(3) 0.43279(15)
H3_5 H 0.6775 0.6298 0.4304
C4_5 C 0.42772(14) 0.7301(3) 0.40031(15)
C5_5 C 0.43338(13) 0.3390(3) 0.37262(14)
H4_5 H 0.4182 0.3333 0.3480
C6_5 C 0.66170(14) 0.4734(3) 0.43000(15)
H5_5 H 0.6692 0.4328 0.4262
C7_5 C 0.23918(13) 0.2535(2) 0.16578(12)
H6_5 H 0.2233 0.2207 0.1499
H7_5 H 0.2556 0.2660 0.1575
H8_5 H 0.2259 0.2913 0.1658
C8_5 C 0.64108(14) 0.5972(3) 0.44278(13)
H9_5 H 0.6342 0.6378 0.4473
C12_5 C 0.63547(13) 0.4769(3) 0.43955(13)
H14_5 H 0.6245 0.4392 0.4418
C13_5 C 0.40918(15) 0.0542(4) 0.37964(15)
C15_5 C 0.43917(18) 0.0932(3) 0.38720(18)
H18_5 H 0.4387 0.1389 0.3872
C16_5 C 0.48301(13) 0.6786(3) 0.41217(16)
H19_5 H 0.5026 0.6757 0.4084
C17_5 C 0.48303(11) 0.3936(2) 0.42198(13)
C18_5 C 0.47969(13) 0.6360(2) 0.43714(12)
C20_5 C 0.52982(10) 0.45593(19) 0.46830(10)
H20_5 H 0.5445 0.4187 0.4813
H21_5 H 0.5150 0.4674 0.4790
C21_5 C 0.25175(12) 0.1658(3) 0.21335(14)
H22_5 H 0.2335 0.1407 0.1959
C22_4 C 0.63985(12) 0.5615(2) 0.62271(12)
H23_4 H 0.6397 0.5999 0.6345
C23_5 C 0.55320(9) 0.5154(2) 0.46954(9)
C24_5 C 0.42912(12) 0.3012(2) 0.39808(17)
C26_5 C 0.47817(11) 0.3578(2) 0.44691(13)
H24_5 H 0.4928 0.3646 0.4715
C27_4 C 0.61716(11) 0.5559(2) 0.58640(13)
H25_4 H 0.6020 0.5905 0.5742
C28_5 C 0.57906(10) 0.49240(19) 0.45660(10)
H26_5 H 0.5947 0.4589 0.4727
H27_5 H 0.5662 0.4740 0.4324
C29_5 C 0.62553(12) 0.5397(3) 0.44594(12)
C30_5 C 0.53097(10) 0.57342(19) 0.44625(10)
H28_5 H 0.5459 0.6116 0.4504
H29_5 H 0.5202 0.5621 0.4208
C32_5 C 0.25986(14) 0.2253(3) 0.20487(14)
C33_5 C 0.61644(11) 0.4996(2) 0.56758(12)
C35_5 C 0.29884(12) 0.1829(3) 0.27504(13)
C36_5 C 0.29878(13) 0.3342(2) 0.22263(13)
H32_5 H 0.3162 0.3544 0.2446
H33_5 H 0.2783 0.3621 0.2114
H34_5 H 0.3084 0.3281 0.2064
C37_5 C 0.46038(13) 0.3851(2) 0.38429(13)
H35_5 H 0.4636 0.4102 0.3676
C39_5 C 0.27152(12) 0.1427(2) 0.24911(14)
C40_5 C 0.30747(12) 0.2450(2) 0.26668(15)
H37_5 H 0.3255 0.2703 0.2842
C41_4 C 0.68772(14) 0.5140(3) 0.68281(14)
C42_5 C 0.63953(13) 0.4465(2) 0.58621(14)
H38_5 H 0.6400 0.4086 0.5741
C43_5 C 0.45115(14) 0.3110(2) 0.43502(15)
H39_5 H 0.4478 0.2864 0.4518
C44_4 C 0.66317(12) 0.5116(3) 0.64257(13)
C49_5 C 0.28801(16) 0.2665(2) 0.23151(18)
C52_5 C 0.67732(14) 0.5311(4) 0.42595(15)
C56_5 C 0.4700(2) 0.0563(5) 0.3948(3)
C57_5 C 0.50391(18) 0.0996(4) 0.4006(3)
H49_5 H 0.5233 0.0709 0.4049
H50_5 H 0.5107 0.1281 0.4210
H51_5 H 0.4979 0.1254 0.3793
C62_5 C 0.18885(14) 0.0060(3) 0.3161(2)
C63_5 C 0.18534(13) 0.0002(2) 0.28187(19)
C64_5 C 0.27629(19) 0.2926(3) 0.47387(19)
H58_5 H 0.2890 0.3331 0.4826
H59_5 H 0.2797 0.2656 0.4940
H60_5 H 0.2515 0.3016 0.4592
C65_5 C 0.32762(13) 0.2571(3) 0.42061(14)
H61_5 H 0.3441 0.2779 0.4157
C66_5 C 0.31502(17) 0.2881(3) 0.44191(17)
C67_5 C 0.29083(18) 0.2547(4) 0.44993(18)
C68_5 C 0.27890(14) 0.1904(3) 0.43615(15)
H62_5 H 0.2633 0.1681 0.4418
C69_5 C 0.45601(17) 0.7256(3) 0.39302(15)
H63_5 H 0.4572 0.7529 0.3759
C70_5 C 0.45108(15) 0.6381(3) 0.44184(14)
H64_5 H 0.4481 0.6083 0.4569
C71_5 C 0.42545(14) 0.6870(3) 0.42324(16)
H65_5 H 0.4059 0.6894 0.4271
C72_5 C 0.70661(16) 0.5251(5) 0.41594(17)
C73_5 C 0.32752(18) 0.3594(3) 0.45829(19)
H66_5 H 0.3445 0.3756 0.4515
H67_5 H 0.3381 0.3575 0.4842
H68_5 H 0.3074 0.3883 0.4491
C74_5 C 0.39901(19) 0.7834(4) 0.38302(17)
C76_5 C 0.16194(17) 0.0007(4) 0.32477(19)
H70_5 H 0.1657 0.0072 0.3483
C77_4 C 0.57328(10) 0.53994(18) 0.50939(10)
H71_4 H 0.5566 0.5527 0.5177
H72_4 H 0.5879 0.5776 0.5113
C79_5 C 0.29111(14) 0.1612(3) 0.41385(13)
C80_5 C 0.31513(12) 0.1950(3) 0.40694(13)
C81_5 C 0.39854(18) 0.2503(3) 0.3856(2)
N1_5 N 0.26897(9) 0.08644(18) 0.26596(10)
N2_5 N 0.29407(9) 0.08965(16) 0.30146(9)
N3_5 N 0.31231(8) 0.14778(18) 0.30733(9)
N4_5 N 0.32149(8) 0.1544(2) 0.38490(9)
N5_5 N 0.30226(9) 0.09898(19) 0.37910(9)
N6_5 N 0.28349(9) 0.10170(19) 0.39696(10)
N14_5 N 0.35710(8) 0.0186(2) 0.36496(8)
N15_5 N 0.37593(11) 0.07436(19) 0.36958(9)
N16_5 N 0.21793(10) 0.00711(16) 0.28309(10)
N17_5 N 0.24034(8) 0.01651(16) 0.31957(11)
N18_5 N 0.22413(11) 0.01484(19) 0.34036(11)
O1_3 O 0.70799(9) 0.46705(19) 0.69750(9)
O2_4 O 0.68758(9) 0.5664(2) 0.69889(10)
O3_3 O 0.37730(12) 0.7898(2) 0.39164(13)
O4_5 O 0.39942(9) 0.8136(2) 0.35586(13)
O5_5 O 0.37951(10) 0.24001(19) 0.35378(12)
O6_5 O 0.39603(11) 0.2173(2) 0.41013(13)
O7_3 O 0.71816(11) 0.5786(2) 0.40930(12)
O8_3 O 0.71685(11) 0.4703(2) 0.41138(14)
O9_5 O 0.50818(7) 0.44051(14) 0.42984(7)
O10_5 O 0.59484(7) 0.48691(13) 0.53070(7)
O11_5 O 0.59926(8) 0.54846(14) 0.45644(8)
O12_5 O 0.50421(8) 0.58728(15) 0.45622(7)
Zn6_3 Zn 0.354217(13) 0.87327(3) 0.366228(13)
Zn7_3 Zn 0.736229(12) 0.49374(2) 0.747779(13)
Zn8_3 Zn 0.753143(15) 0.52297(3) 0.396957(18)
O13_3 O 0.20799(9) 0.03295(19) 0.19750(9)
O15_3 O 0.21816(11) 0.0786(2) 0.40930(12)
C2_5 C 0.31584(14) 0.7767(3) 0.27863(17)
H2_5 H 0.3345 0.7554 0.2979
C9_5 C 0.3210(2) 0.7612(4) 0.4528(2)
C10_5 C 0.44100(18) 0.9478(3) 0.39001(19)
H10_5 H 0.4410 0.9022 0.3906
C11_5 C 0.50596(17) 0.9475(4) 0.4076(2)
H11_5 H 0.5247 0.9788 0.4143
H12_5 H 0.5035 0.9224 0.3872
H13_5 H 0.5114 0.9186 0.4276
C14_5 C 0.3347(2) 0.6947(3) 0.47332(18)
H15_5 H 0.3519 0.6762 0.4675
H16_5 H 0.3152 0.6648 0.4661
H17_5 H 0.3454 0.7022 0.4989
C19_5 C 0.31786(15) 0.8518(3) 0.41389(15)
C25_5 C 0.41039(14) 0.9876(4) 0.38129(15)
C31_5 C 0.33202(15) 0.7892(3) 0.43063(15)
H30_5 H 0.3488 0.7680 0.4262
C34_5 C 0.28164(16) 0.8580(3) 0.44460(18)
H31_5 H 0.2662 0.8799 0.4507
C38_5 C 0.25846(12) 0.8430(3) 0.22026(14)
H36_5 H 0.2396 0.8640 0.2010
C45_5 C 0.30433(14) 0.8386(3) 0.28297(14)
C46_5 C 0.27606(13) 0.8720(3) 0.25488(15)
C47_5 C 0.09697(16) 0.9691(4) 0.3038(2)
H40_5 H 0.1019 0.9809 0.3278
H41_5 H 0.0921 0.9229 0.3002
H42_5 H 0.0768 0.9933 0.2865
C48_5 C 0.08750(15) 0.9537(4) 0.22512(19)
H43_5 H 0.0911 0.9494 0.2043
H44_5 H 0.0691 0.9852 0.2201
H45_5 H 0.0808 0.9120 0.2306
C50_5 C 0.12491(16) 0.9790(4) 0.2604(2)
C51_5 C 0.1309(2) 0.9861(5) 0.2984(3)
C53_5 C 0.2959(2) 0.7943(4) 0.45901(19)
C54_5 C 0.2789(2) 0.7663(3) 0.4829(2)
H46_5 H 0.2626 0.7978 0.4834
H47_4 H 0.2974 0.7582 0.5071
H48_5 H 0.2667 0.7260 0.4724
C55_5 C 0.4700(2) 0.9849(5) 0.3973(3)
C58_5 C 0.29857(18) 0.7485(3) 0.2447(2)
C59_5 C 0.27005(16) 0.7834(3) 0.21607(16)
C60_5 C 0.25097(13) 0.7490(2) 0.17806(13)
H52_5 H 0.2330 0.7776 0.1610
H53_5 H 0.2403 0.7088 0.1800
H54_5 H 0.2679 0.7397 0.1700
C61_5 C 0.31143(14) 0.6814(2) 0.23923(15)
H55_5 H 0.3304 0.6663 0.2618
H56_5 H 0.3197 0.6853 0.2218
H57_5 H 0.2922 0.6505 0.2306
C75_5 C 0.15253(14) 0.9861(3) 0.24945(16)
H69_5 H 0.1495 0.9823 0.2261
C78_5 C 0.29282(16) 0.8856(3) 0.42009(15)
N7_5 N 0.28439(9) 0.9446(2) 0.40049(12)
N8_5 N 0.30381(10) 0.9438(2) 0.38248(9)
N9_5 N 0.32387(9) 0.8879(2) 0.39030(10)
N10_5 N 0.31586(8) 0.8788(2) 0.31335(9)
N11_5 N 0.29542(9) 0.93441(17) 0.30396(10)
N12_5 N 0.27084(9) 0.93155(18) 0.26795(10)
N13_5 N 0.37728(11) 0.96369(18) 0.37240(9)
O16_3 O 0.21685(11) 0.9703(2) 0.41138(14)
C3_6 C 0.16671(15) 0.0919(3) 0.43279(15)
H3_6 H 0.1775 0.1298 0.4304
C8_6 C 0.14108(14) 0.0972(3) 0.44278(13)
H9_6 H 0.1342 0.1378 0.4473
H19_6 H 0.0026 0.1757 0.4084
C22_5 C 0.13985(12) 0.0615(2) 0.62271(12)
H23_5 H 0.1397 0.0999 0.6345
C23_6 C 0.05320(9) 0.0154(2) 0.46954(9)
C27_5 C 0.11716(11) 0.0559(2) 0.58640(13)
H25_5 H 0.1020 0.0905 0.5742
C29_6 C 0.12553(12) 0.0397(3) 0.44594(12)
C30_6 C 0.03097(10) 0.07342(19) 0.44625(10)
H28_6 H 0.0459 0.1116 0.4504
H29_6 H 0.0202 0.0621 0.4208
C41_5 C 0.18772(14) 0.0140(3) 0.68281(14)
C44_5 C 0.16317(12) 0.0116(3) 0.64257(13)
C52_6 C 0.17732(14) 0.0311(4) 0.42595(15)
C72_6 C 0.20661(16) 0.0251(5) 0.41594(17)
C77_5 C 0.07328(10) 0.03994(18) 0.50939(10)
H71_5 H 0.0566 0.0527 0.5177
H72_5 H 0.0879 0.0776 0.5113
O2_5 O 0.18758(9) 0.0664(2) 0.69889(10)
O11_6 O 0.09926(8) 0.04846(14) 0.45644(8)
O12_6 O 0.00421(8) 0.08728(15) 0.45622(7)
C1_6 C 0.16244(13) 0.9542(3) 0.62507(16)
H1_6 H 0.1769 0.9195 0.6383
C6_6 C 0.16170(14) 0.9734(3) 0.43000(15)
H5_6 H 0.1692 0.9328 0.4262
C11_6 C 0.00596(17) 0.4475(4) 0.4076(2)
H11_6 H 0.0247 0.4788 0.4143
H12_6 H 0.0035 0.4224 0.3872
H13_6 H 0.0114 0.4186 0.4276
C12_6 C 0.13547(13) 0.9769(3) 0.43955(13)
H14_6 H 0.1245 0.9392 0.4418
C20_6 C 0.02982(10) 0.95593(19) 0.46830(10)
H20_6 H 0.0445 0.9187 0.4813
H21_6 H 0.0150 0.9674 0.4790
C28_6 C 0.07906(10) 0.99240(19) 0.45660(10)
H26_6 H 0.0947 0.9589 0.4727
H27_6 H 0.0662 0.9740 0.4324
C33_6 C 0.11644(11) 0.9996(2) 0.56758(12)
C42_6 C 0.13953(13) 0.9465(2) 0.58621(14)
H38_6 H 0.1400 0.9086 0.5741
C57_6 C 0.00391(18) 0.5996(4) 0.4006(3)
H49_6 H 0.0233 0.5709 0.4049
H50_6 H 0.0107 0.6281 0.4210
O1_4 O 0.20799(9) 0.96705(19) 0.69750(9)
O9_6 O 0.00818(7) 0.94051(14) 0.42984(7)
O10_6 O 0.09484(7) 0.98691(13) 0.53070(7)
Zn7_4 Zn 0.236229(12) 0.99374(2) 0.747779(13)
C4_6 C 0.92772(14) 0.2301(3) 0.40031(15)
C16_6 C 0.98301(13) 0.1786(3) 0.41217(16)
C18_6 C 0.97969(13) 0.1360(2) 0.43714(12)
C69_6 C 0.95601(17) 0.2256(3) 0.39302(15)
H63_6 H 0.9572 0.2529 0.3759
C70_6 C 0.95108(15) 0.1381(3) 0.44184(14)
H64_6 H 0.9481 0.1083 0.4569
C71_6 C 0.92545(14) 0.1870(3) 0.42324(16)
H65_6 H 0.9059 0.1894 0.4271
C74_6 C 0.89901(19) 0.2834(4) 0.38302(17)
O3_4 O 0.87730(12) 0.2898(2) 0.39164(13)
O4_6 O 0.89942(9) 0.3136(2) 0.35586(13)
Zn6_4 Zn 0.854217(13) 0.37327(3) 0.366228(13)
Zn1_6 Zn 0.852189(13) 0.66353(2) 0.360282(13)
Zn2_6 Zn 0.798819(11) 0.51762(2) 0.342652(12)
Zn4_4 Zn 0.736229(12) 0.50626(2) 0.247779(13)
C2_6 C 0.81584(14) 0.2767(3) 0.27863(17)
H2_6 H 0.8345 0.2554 0.2979
C5_6 C 0.93338(13) 0.8390(3) 0.37262(14)
H4_6 H 0.9182 0.8333 0.3480
C7_6 C 0.73918(13) 0.7535(2) 0.16578(12)
H6_6 H 0.7233 0.7207 0.1499
H7_6 H 0.7556 0.7660 0.1575
H8_6 H 0.7259 0.7913 0.1658
C9_6 C 0.8210(2) 0.2612(4) 0.4528(2)
C10_6 C 0.94100(18) 0.4478(3) 0.39001(19)
H10_6 H 0.9410 0.4022 0.3906
C13_6 C 0.90918(15) 0.5542(4) 0.37964(15)
C14_6 C 0.8347(2) 0.1947(3) 0.47332(18)
H15_6 H 0.8519 0.1762 0.4675
H16_6 H 0.8152 0.1648 0.4661
H17_6 H 0.8454 0.2022 0.4989
C15_6 C 0.93917(18) 0.5932(3) 0.38720(18)
H18_6 H 0.9387 0.6389 0.3872
C17_6 C 0.98303(11) 0.8936(2) 0.42198(13)
C19_6 C 0.81786(15) 0.3518(3) 0.41389(15)
C21_6 C 0.75175(12) 0.6658(3) 0.21335(14)
H22_6 H 0.7335 0.6407 0.1959
C24_6 C 0.92912(12) 0.8012(2) 0.39808(17)
C25_6 C 0.91039(14) 0.4876(4) 0.38129(15)
C26_6 C 0.97817(11) 0.8578(2) 0.44691(13)
H24_6 H 0.9928 0.8646 0.4715
C31_6 C 0.83202(15) 0.2892(3) 0.43063(15)
H30_6 H 0.8488 0.2680 0.4262
C32_6 C 0.75986(14) 0.7253(3) 0.20487(14)
C34_6 C 0.78164(16) 0.3580(3) 0.44460(18)
H31_6 H 0.7662 0.3799 0.4507
C35_6 C 0.79884(12) 0.6829(3) 0.27504(13)
C36_6 C 0.79878(13) 0.8342(2) 0.22263(13)
H32_6 H 0.8162 0.8544 0.2446
H33_6 H 0.7783 0.8621 0.2114
H34_6 H 0.8084 0.8281 0.2064
C37_6 C 0.96038(13) 0.8851(2) 0.38429(13)
H35_6 H 0.9636 0.9102 0.3676
C38_6 C 0.75846(12) 0.3430(3) 0.22026(14)
H36_6 H 0.7396 0.3640 0.2010
C39_6 C 0.77152(12) 0.6427(2) 0.24911(14)
C40_6 C 0.80747(12) 0.7450(2) 0.26668(15)
H37_6 H 0.8255 0.7703 0.2842
C43_6 C 0.95115(14) 0.8110(2) 0.43502(15)
H39_6 H 0.9478 0.7864 0.4518
C45_6 C 0.80433(14) 0.3386(3) 0.28297(14)
C46_6 C 0.77606(13) 0.3720(3) 0.25488(15)
C47_6 C 0.59697(16) 0.4691(4) 0.3038(2)
H40_6 H 0.6019 0.4809 0.3278
H41_6 H 0.5921 0.4229 0.3002
H42_6 H 0.5768 0.4933 0.2865
C48_6 C 0.58750(15) 0.4537(4) 0.22512(19)
H43_6 H 0.5911 0.4494 0.2043
H44_6 H 0.5691 0.4852 0.2201
H45_6 H 0.5808 0.4120 0.2306
C49_6 C 0.78801(16) 0.7665(2) 0.23151(18)
C50_6 C 0.62491(16) 0.4790(4) 0.2604(2)
C51_6 C 0.6309(2) 0.4861(5) 0.2984(3)
C53_6 C 0.7959(2) 0.2943(4) 0.45901(19)
C54_6 C 0.7789(2) 0.2663(3) 0.4829(2)
H46_6 H 0.7626 0.2978 0.4834
H47_5 H 0.7974 0.2582 0.5071
H48_6 H 0.7667 0.2260 0.4724
C55_6 C 0.9700(2) 0.4849(5) 0.3973(3)
C56_6 C 0.9700(2) 0.5563(5) 0.3948(3)
H51_6 H 0.9979 0.6254 0.3793
C58_6 C 0.79857(18) 0.2485(3) 0.2447(2)
C59_6 C 0.77005(16) 0.2834(3) 0.21607(16)
C60_6 C 0.75097(13) 0.2490(2) 0.17806(13)
H52_6 H 0.7330 0.2776 0.1610
H53_6 H 0.7403 0.2088 0.1800
H54_6 H 0.7679 0.2397 0.1700
C61_6 C 0.81143(14) 0.1814(2) 0.23923(15)
H55_6 H 0.8304 0.1663 0.2618
H56_6 H 0.8197 0.1853 0.2218
H57_6 H 0.7922 0.1505 0.2306
C62_6 C 0.68885(14) 0.5060(3) 0.3161(2)
C63_6 C 0.68534(13) 0.5002(2) 0.28187(19)
C64_6 C 0.77629(19) 0.7926(3) 0.47387(19)
H58_6 H 0.7890 0.8331 0.4826
H59_6 H 0.7797 0.7656 0.4940
H60_6 H 0.7515 0.8016 0.4592
C65_6 C 0.82762(13) 0.7571(3) 0.42061(14)
H61_6 H 0.8441 0.7779 0.4157
C66_6 C 0.81502(17) 0.7881(3) 0.44191(17)
C67_6 C 0.79083(18) 0.7547(4) 0.44993(18)
C68_6 C 0.77890(14) 0.6904(3) 0.43615(15)
H62_6 H 0.7633 0.6681 0.4418
C73_6 C 0.82752(18) 0.8594(3) 0.45829(19)
H66_6 H 0.8445 0.8756 0.4515
H67_6 H 0.8381 0.8575 0.4842
H68_6 H 0.8074 0.8883 0.4491
C75_6 C 0.65253(14) 0.4861(3) 0.24945(16)
H69_6 H 0.6495 0.4823 0.2261
C76_6 C 0.66194(17) 0.5007(4) 0.32477(19)
H70_6 H 0.6657 0.5072 0.3483
C78_6 C 0.79282(16) 0.3856(3) 0.42009(15)
C79_6 C 0.79111(14) 0.6612(3) 0.41385(13)
C80_6 C 0.81513(12) 0.6950(3) 0.40694(13)
C81_6 C 0.89854(18) 0.7503(3) 0.3856(2)
N1_6 N 0.76897(9) 0.58644(18) 0.26596(10)
N2_6 N 0.79407(9) 0.58965(16) 0.30146(9)
N3_6 N 0.81231(8) 0.64778(18) 0.30733(9)
N4_6 N 0.82149(8) 0.6544(2) 0.38490(9)
N5_6 N 0.80226(9) 0.59898(19) 0.37910(9)
N6_6 N 0.78349(9) 0.60170(19) 0.39696(10)
N7_6 N 0.78439(9) 0.4446(2) 0.40049(12)
N8_6 N 0.80381(10) 0.4438(2) 0.38248(9)
N9_6 N 0.82387(9) 0.3879(2) 0.39030(10)
N10_6 N 0.81586(8) 0.3788(2) 0.31335(9)
N11_6 N 0.79542(9) 0.43441(17) 0.30396(10)
N12_6 N 0.77084(9) 0.43155(18) 0.26795(10)
N13_6 N 0.87728(11) 0.46369(18) 0.37240(9)
N14_6 N 0.85710(8) 0.5186(2) 0.36496(8)
N15_6 N 0.87593(11) 0.57436(19) 0.36958(9)
N16_6 N 0.71793(10) 0.50711(16) 0.28309(10)
N17_6 N 0.74034(8) 0.51651(16) 0.31957(11)
N18_6 N 0.72413(11) 0.51484(19) 0.34036(11)
O5_6 O 0.87951(10) 0.74001(19) 0.35378(12)
O6_6 O 0.89603(11) 0.7173(2) 0.41013(13)
O13_4 O 0.70799(9) 0.53295(19) 0.19750(9)
Zn3_3 Zn 0.354217(13) 0.12673(3) 0.866228(13)
C2_7 C 0.31584(14) 0.2233(3) 0.77863(17)
H2_7 H 0.3345 0.2446 0.7979
C9_7 C 0.3210(2) 0.2388(4) 0.9528(2)
C10_7 C 0.44100(18) 0.0522(3) 0.89001(19)
H10_7 H 0.4410 0.0978 0.8906
C11_7 C 0.50596(17) 0.0525(4) 0.9076(2)
H11_7 H 0.5247 0.0212 0.9143
H12_7 H 0.5035 0.0776 0.8872
H13_7 H 0.5114 0.0814 0.9276
C14_7 C 0.3347(2) 0.3053(3) 0.97332(18)
H15_7 H 0.3519 0.3238 0.9675
H16_7 H 0.3152 0.3352 0.9661
H17_7 H 0.3454 0.2978 0.9989
C19_7 C 0.31786(15) 0.1482(3) 0.91389(15)
C25_7 C 0.41039(14) 0.0124(4) 0.88129(15)
C31_7 C 0.33202(15) 0.2108(3) 0.93063(15)
H30_7 H 0.3488 0.2320 0.9262
C34_7 C 0.28164(16) 0.1420(3) 0.94460(18)
H31_7 H 0.2662 0.1201 0.9507
C38_7 C 0.25846(12) 0.1570(3) 0.72026(14)
H36_7 H 0.2396 0.1360 0.7010
C45_7 C 0.30433(14) 0.1614(3) 0.78297(14)
C46_7 C 0.27606(13) 0.1280(3) 0.75488(15)
C47_7 C 0.09697(16) 0.0309(4) 0.8038(2)
H40_7 H 0.1019 0.0191 0.8278
H41_7 H 0.0921 0.0771 0.8002
H42_7 H 0.0768 0.0067 0.7865
C48_7 C 0.08750(15) 0.0463(4) 0.72512(19)
H43_7 H 0.0911 0.0506 0.7043
H44_7 H 0.0691 0.0148 0.7201
H45_7 H 0.0808 0.0880 0.7306
C50_7 C 0.12491(16) 0.0210(4) 0.7604(2)
C51_7 C 0.1309(2) 0.0139(5) 0.7984(3)
C53_7 C 0.2959(2) 0.2057(4) 0.95901(19)
C54_7 C 0.2789(2) 0.2337(3) 0.9829(2)
H46_7 H 0.2626 0.2022 0.9834
H48_7 H 0.2667 0.2740 0.9724
C55_7 C 0.4700(2) 0.0151(5) 0.8973(3)
C58_7 C 0.29857(18) 0.2515(3) 0.7447(2)
C59_7 C 0.27005(16) 0.2166(3) 0.71607(16)
C60_7 C 0.25097(13) 0.2510(2) 0.67806(13)
H52_7 H 0.2330 0.2224 0.6610
H53_7 H 0.2403 0.2912 0.6800
H54_7 H 0.2679 0.2603 0.6700
C61_7 C 0.31143(14) 0.3186(2) 0.73923(15)
H55_7 H 0.3304 0.3337 0.7618
H56_7 H 0.3197 0.3147 0.7218
H57_7 H 0.2922 0.3495 0.7306
C75_7 C 0.15253(14) 0.0139(3) 0.74945(16)
H69_7 H 0.1495 0.0177 0.7261
C78_7 C 0.29282(16) 0.1144(3) 0.92009(15)
N7_7 N 0.28439(9) 0.0554(2) 0.90049(12)
N8_7 N 0.30381(10) 0.0562(2) 0.88248(9)
N9_7 N 0.32387(9) 0.1121(2) 0.89030(10)
N10_7 N 0.31586(8) 0.1212(2) 0.81335(9)
N11_7 N 0.29542(9) 0.06559(17) 0.80396(10)
N12_7 N 0.27084(9) 0.06845(18) 0.76795(10)
N13_7 N 0.37728(11) 0.03631(18) 0.87240(9)
O14_3 O 0.37730(12) 0.2102(2) 0.89164(13)
O16_4 O 0.21685(11) 0.0297(2) 0.91138(14)
C1_7 C 0.66244(13) 0.5458(3) 0.12507(16)
H1_7 H 0.6769 0.5805 0.1383
C22_6 C 0.63985(12) 0.4385(2) 0.12271(12)
H23_6 H 0.6397 0.4001 0.1345
C27_6 C 0.61716(11) 0.4441(2) 0.08640(13)
H25_6 H 0.6020 0.4095 0.0742
C33_7 C 0.61644(11) 0.5004(2) 0.06758(12)
C41_6 C 0.68772(14) 0.4860(3) 0.18281(14)
C42_7 C 0.63953(13) 0.5535(2) 0.08621(14)
H38_7 H 0.6400 0.5914 0.0741
C44_6 C 0.66317(12) 0.4884(3) 0.14257(13)
C77_6 C 0.57328(10) 0.46006(18) 0.00939(10)
H71_6 H 0.5566 0.4473 0.0177
H72_6 H 0.5879 0.4224 0.0113
O2_6 O 0.68758(9) 0.4336(2) 0.19889(10)
O10_7 O 0.59484(7) 0.51309(13) 0.03070(7)
Zn1_7 Zn 0.352189(13) 0.83647(2) 0.860282(13)
Zn2_7 Zn 0.298819(11) 0.98238(2) 0.842652(12)
Zn5_4 Zn 0.253143(15) 0.97703(3) 0.896957(18)
C3_7 C 0.66671(15) 0.4081(3) 0.93279(15)
H3_7 H 0.6775 0.3702 0.9304
C4_7 C 0.42772(14) 0.2699(3) 0.90031(15)
C5_7 C 0.43338(13) 0.6610(3) 0.87262(14)
H4_7 H 0.4182 0.6667 0.8480
C6_7 C 0.66170(14) 0.5266(3) 0.93000(15)
H5_7 H 0.6692 0.5672 0.9262
C7_7 C 0.23918(13) 0.7465(2) 0.66578(12)
H6_7 H 0.2233 0.7793 0.6499
H7_7 H 0.2556 0.7340 0.6575
H8_7 H 0.2259 0.7087 0.6658
C8_7 C 0.64108(14) 0.4028(3) 0.94278(13)
H9_7 H 0.6342 0.3622 0.9473
C12_7 C 0.63547(13) 0.5231(3) 0.93955(13)
H14_7 H 0.6245 0.5608 0.9418
C13_7 C 0.40918(15) 0.9458(4) 0.87964(15)
C15_7 C 0.43917(18) 0.9068(3) 0.88720(18)
H18_7 H 0.4387 0.8611 0.8872
C16_7 C 0.48301(13) 0.3214(3) 0.91217(16)
H19_7 H 0.5026 0.3243 0.9084
C17_7 C 0.48303(11) 0.6064(2) 0.92198(13)
C18_7 C 0.47969(13) 0.3640(2) 0.93714(12)
C20_7 C 0.52982(10) 0.54407(19) 0.96830(10)
H20_7 H 0.5445 0.5813 0.9813
H21_7 H 0.5150 0.5326 0.9790
C21_7 C 0.25175(12) 0.8342(3) 0.71335(14)
H22_7 H 0.2335 0.8593 0.6959
C23_7 C 0.55320(9) 0.4846(2) 0.96954(9)
C24_7 C 0.42912(12) 0.6988(2) 0.89808(17)
C26_7 C 0.47817(11) 0.6422(2) 0.94691(13)
H24_7 H 0.4928 0.6354 0.9715
C28_7 C 0.57906(10) 0.50760(19) 0.95660(10)
H26_7 H 0.5947 0.5411 0.9727
H27_7 H 0.5662 0.5260 0.9324
C29_7 C 0.62553(12) 0.4603(3) 0.94594(12)
C30_7 C 0.53097(10) 0.42658(19) 0.94625(10)
H28_7 H 0.5459 0.3884 0.9504
H29_7 H 0.5202 0.4379 0.9208
C32_7 C 0.25986(14) 0.7747(3) 0.70487(14)
C35_7 C 0.29884(12) 0.8171(3) 0.77504(13)
C36_7 C 0.29878(13) 0.6658(2) 0.72263(13)
H32_7 H 0.3162 0.6456 0.7446
H33_7 H 0.2783 0.6379 0.7114
H34_7 H 0.3084 0.6719 0.7064
C37_7 C 0.46038(13) 0.6149(2) 0.88429(13)
H35_7 H 0.4636 0.5898 0.8676
C39_7 C 0.27152(12) 0.8573(2) 0.74911(14)
C40_7 C 0.30747(12) 0.7550(2) 0.76668(15)
H37_7 H 0.3255 0.7297 0.7842
C43_7 C 0.45115(14) 0.6890(2) 0.93502(15)
H39_7 H 0.4478 0.7136 0.9518
C49_7 C 0.28801(16) 0.7335(2) 0.73151(18)
C52_7 C 0.67732(14) 0.4689(4) 0.92595(15)
C56_7 C 0.4700(2) 0.9437(5) 0.8948(3)
C57_7 C 0.50391(18) 0.9004(4) 0.9006(3)
H49_7 H 0.5233 0.9291 0.9049
H50_7 H 0.5107 0.8719 0.9210
H51_7 H 0.4979 0.8746 0.8793
C62_7 C 0.18885(14) 0.9940(3) 0.8161(2)
C63_7 C 0.18534(13) 0.9998(2) 0.78187(19)
C64_7 C 0.27629(19) 0.7074(3) 0.97387(19)
H58_7 H 0.2890 0.6669 0.9826
H59_7 H 0.2797 0.7344 0.9940
H60_7 H 0.2515 0.6984 0.9592
C65_7 C 0.32762(13) 0.7429(3) 0.92061(14)
H61_7 H 0.3441 0.7221 0.9157
C66_7 C 0.31502(17) 0.7119(3) 0.94191(17)
C67_7 C 0.29083(18) 0.7453(4) 0.94993(18)
C68_7 C 0.27890(14) 0.8096(3) 0.93615(15)
H62_7 H 0.2633 0.8319 0.9418
C69_7 C 0.45601(17) 0.2744(3) 0.89302(15)
H63_7 H 0.4572 0.2471 0.8759
C70_7 C 0.45108(15) 0.3619(3) 0.94184(14)
H64_7 H 0.4481 0.3917 0.9569
C71_7 C 0.42545(14) 0.3130(3) 0.92324(16)
H65_7 H 0.4059 0.3106 0.9271
C72_7 C 0.70661(16) 0.4749(5) 0.91594(17)
C73_7 C 0.32752(18) 0.6406(3) 0.95829(19)
H66_7 H 0.3445 0.6244 0.9515
H67_7 H 0.3381 0.6425 0.9842
H68_7 H 0.3074 0.6117 0.9491
C74_7 C 0.39901(19) 0.2166(4) 0.88302(17)
C76_7 C 0.16194(17) 0.9993(4) 0.82477(19)
H70_7 H 0.1657 0.9928 0.8483
C79_7 C 0.29111(14) 0.8388(3) 0.91385(13)
C80_7 C 0.31513(12) 0.8050(3) 0.90694(13)
C81_7 C 0.39854(18) 0.7497(3) 0.8856(2)
N1_7 N 0.26897(9) 0.91356(18) 0.76596(10)
N2_7 N 0.29407(9) 0.91035(16) 0.80146(9)
N3_7 N 0.31231(8) 0.85222(18) 0.80733(9)
N4_7 N 0.32149(8) 0.8456(2) 0.88490(9)
N5_7 N 0.30226(9) 0.90102(19) 0.87910(9)
N6_7 N 0.28349(9) 0.89830(19) 0.89696(10)
N14_7 N 0.35710(8) 0.9814(2) 0.86496(8)
N15_7 N 0.37593(11) 0.92564(19) 0.86958(9)
N16_7 N 0.21793(10) 0.99289(16) 0.78309(10)
N17_7 N 0.24034(8) 0.98349(16) 0.81957(11)
N18_7 N 0.22413(11) 0.98516(19) 0.84036(11)
O4_7 O 0.39942(9) 0.1864(2) 0.85586(13)
O5_7 O 0.37951(10) 0.75999(19) 0.85378(12)
O6_7 O 0.39603(11) 0.7827(2) 0.91013(13)
O7_4 O 0.71816(11) 0.4214(2) 0.90930(12)
O8_4 O 0.71685(11) 0.5297(2) 0.91138(14)
O9_7 O 0.50818(7) 0.55949(14) 0.92984(7)
O11_7 O 0.59926(8) 0.45154(14) 0.95644(8)
O12_7 O 0.50421(8) 0.41272(15) 0.95622(7)
Zn8_4 Zn 0.753143(15) 0.47703(3) 0.896957(18)
O15_4 O 0.21816(11) 0.9214(2) 0.90930(12)
C1_8 C 0.16244(13) 0.0458(3) 0.12507(16)
H1_8 H 0.1769 0.0805 0.1383
C33_8 C 0.11644(11) 0.0004(2) 0.06758(12)
C42_8 C 0.13953(13) 0.0535(2) 0.08621(14)
H38_8 H 0.1400 0.0914 0.0741
O10_8 O 0.09484(7) 0.01309(13) 0.03070(7)
C6_8 C 0.16170(14) 0.0266(3) 0.93000(15)
H5_8 H 0.1692 0.0672 0.9262
C11_8 C 0.00596(17) 0.5525(4) 0.9076(2)
H11_8 H 0.0247 0.5212 0.9143
H12_8 H 0.0035 0.5776 0.8872
H13_8 H 0.0114 0.5814 0.9276
C12_8 C 0.13547(13) 0.0231(3) 0.93955(13)
H14_8 H 0.1245 0.0608 0.9418
C20_8 C 0.02982(10) 0.04407(19) 0.96830(10)
H20_8 H 0.0445 0.0813 0.9813
H21_8 H 0.0150 0.0326 0.9790
C28_8 C 0.07906(10) 0.00760(19) 0.95660(10)
H26_8 H 0.0947 0.0411 0.9727
H27_8 H 0.0662 0.0260 0.9324
C57_8 C 0.00391(18) 0.4004(4) 0.9006(3)
H49_8 H 0.0233 0.4291 0.9049
H50_8 H 0.0107 0.3719 0.9210
O9_8 O 0.00818(7) 0.05949(14) 0.92984(7)
C3_8 C 0.16671(15) 0.9081(3) 0.93279(15)
H3_8 H 0.1775 0.8702 0.9304
C8_8 C 0.14108(14) 0.9028(3) 0.94278(13)
H9_8 H 0.1342 0.8622 0.9473
H19_8 H 0.0026 0.8243 0.9084
C23_8 C 0.05320(9) 0.9846(2) 0.96954(9)
C29_8 C 0.12553(12) 0.9603(3) 0.94594(12)
C30_8 C 0.03097(10) 0.92658(19) 0.94625(10)
H28_8 H 0.0459 0.8884 0.9504
H29_8 H 0.0202 0.9379 0.9208
C52_8 C 0.17732(14) 0.9689(4) 0.92595(15)
C72_8 C 0.20661(16) 0.9749(5) 0.91594(17)
O11_8 O 0.09926(8) 0.95154(14) 0.95644(8)
O12_8 O 0.00421(8) 0.91272(15) 0.95622(7)
Zn1_8 Zn 0.852189(13) 0.33647(2) 0.860282(13)
Zn2_8 Zn 0.798819(11) 0.48238(2) 0.842652(12)
Zn3_4 Zn 0.854217(13) 0.62673(3) 0.866228(13)
C2_8 C 0.81584(14) 0.7233(3) 0.77863(17)
H2_8 H 0.8345 0.7446 0.7979
C5_8 C 0.93338(13) 0.1610(3) 0.87262(14)
H4_8 H 0.9182 0.1667 0.8480
C7_8 C 0.73918(13) 0.2465(2) 0.66578(12)
H6_8 H 0.7233 0.2793 0.6499
H7_8 H 0.7556 0.2340 0.6575
H8_8 H 0.7259 0.2087 0.6658
C9_8 C 0.8210(2) 0.7388(4) 0.9528(2)
C10_8 C 0.94100(18) 0.5522(3) 0.89001(19)
H10_8 H 0.9410 0.5978 0.8906
C13_8 C 0.90918(15) 0.4458(4) 0.87964(15)
C14_8 C 0.8347(2) 0.8053(3) 0.97332(18)
H15_8 H 0.8519 0.8238 0.9675
H16_8 H 0.8152 0.8352 0.9661
H17_8 H 0.8454 0.7978 0.9989
C15_8 C 0.93917(18) 0.4068(3) 0.88720(18)
H18_8 H 0.9387 0.3611 0.8872
C17_8 C 0.98303(11) 0.1064(2) 0.92198(13)
C19_8 C 0.81786(15) 0.6482(3) 0.91389(15)
C21_8 C 0.75175(12) 0.3342(3) 0.71335(14)
H22_8 H 0.7335 0.3593 0.6959
C24_8 C 0.92912(12) 0.1988(2) 0.89808(17)
C25_8 C 0.91039(14) 0.5124(4) 0.88129(15)
C26_8 C 0.97817(11) 0.1422(2) 0.94691(13)
H24_8 H 0.9928 0.1354 0.9715
C31_8 C 0.83202(15) 0.7108(3) 0.93063(15)
H30_8 H 0.8488 0.7320 0.9262
C32_8 C 0.75986(14) 0.2747(3) 0.70487(14)
C34_8 C 0.78164(16) 0.6420(3) 0.94460(18)
H31_8 H 0.7662 0.6201 0.9507
C35_8 C 0.79884(12) 0.3171(3) 0.77504(13)
C36_8 C 0.79878(13) 0.1658(2) 0.72263(13)
H32_8 H 0.8162 0.1456 0.7446
H33_8 H 0.7783 0.1379 0.7114
H34_8 H 0.8084 0.1719 0.7064
C37_8 C 0.96038(13) 0.1149(2) 0.88429(13)
H35_8 H 0.9636 0.0898 0.8676
C38_8 C 0.75846(12) 0.6570(3) 0.72026(14)
H36_8 H 0.7396 0.6360 0.7010
C39_8 C 0.77152(12) 0.3573(2) 0.74911(14)
C40_8 C 0.80747(12) 0.2550(2) 0.76668(15)
H37_8 H 0.8255 0.2297 0.7842
C43_8 C 0.95115(14) 0.1890(2) 0.93502(15)
H39_8 H 0.9478 0.2136 0.9518
C45_8 C 0.80433(14) 0.6614(3) 0.78297(14)
C46_8 C 0.77606(13) 0.6280(3) 0.75488(15)
C47_8 C 0.59697(16) 0.5309(4) 0.8038(2)
H40_8 H 0.6019 0.5191 0.8278
H41_8 H 0.5921 0.5771 0.8002
H42_8 H 0.5768 0.5067 0.7865
C48_8 C 0.58750(15) 0.5463(4) 0.72512(19)
H43_8 H 0.5911 0.5506 0.7043
H44_8 H 0.5691 0.5148 0.7201
H45_8 H 0.5808 0.5880 0.7306
C49_8 C 0.78801(16) 0.2335(2) 0.73151(18)
C50_8 C 0.62491(16) 0.5210(4) 0.7604(2)
C51_8 C 0.6309(2) 0.5139(5) 0.7984(3)
C53_8 C 0.7959(2) 0.7057(4) 0.95901(19)
C54_8 C 0.7789(2) 0.7337(3) 0.9829(2)
H46_8 H 0.7626 0.7022 0.9834
H48_8 H 0.7667 0.7740 0.9724
C55_8 C 0.9700(2) 0.5151(5) 0.8973(3)
C56_8 C 0.9700(2) 0.4437(5) 0.8948(3)
H51_8 H 0.9979 0.3746 0.8793
C58_8 C 0.79857(18) 0.7515(3) 0.7447(2)
C59_8 C 0.77005(16) 0.7166(3) 0.71607(16)
C60_8 C 0.75097(13) 0.7510(2) 0.67806(13)
H52_8 H 0.7330 0.7224 0.6610
H53_8 H 0.7403 0.7912 0.6800
H54_8 H 0.7679 0.7603 0.6700
C61_8 C 0.81143(14) 0.8186(2) 0.73923(15)
H55_8 H 0.8304 0.8337 0.7618
H56_8 H 0.8197 0.8147 0.7218
H57_8 H 0.7922 0.8495 0.7306
C62_8 C 0.68885(14) 0.4940(3) 0.8161(2)
C63_8 C 0.68534(13) 0.4998(2) 0.78187(19)
C64_8 C 0.77629(19) 0.2074(3) 0.97387(19)
H58_8 H 0.7890 0.1669 0.9826
H59_8 H 0.7797 0.2344 0.9940
H60_8 H 0.7515 0.1984 0.9592
C65_8 C 0.82762(13) 0.2429(3) 0.92061(14)
H61_8 H 0.8441 0.2221 0.9157
C66_8 C 0.81502(17) 0.2119(3) 0.94191(17)
C67_8 C 0.79083(18) 0.2453(4) 0.94993(18)
C68_8 C 0.77890(14) 0.3096(3) 0.93615(15)
H62_8 H 0.7633 0.3319 0.9418
C73_8 C 0.82752(18) 0.1406(3) 0.95829(19)
H66_8 H 0.8445 0.1244 0.9515
H67_8 H 0.8381 0.1425 0.9842
H68_8 H 0.8074 0.1117 0.9491
C75_8 C 0.65253(14) 0.5139(3) 0.74945(16)
H69_8 H 0.6495 0.5177 0.7261
C76_8 C 0.66194(17) 0.4993(4) 0.82477(19)
H70_8 H 0.6657 0.4928 0.8483
C78_8 C 0.79282(16) 0.6144(3) 0.92009(15)
C79_8 C 0.79111(14) 0.3388(3) 0.91385(13)
C80_8 C 0.81513(12) 0.3050(3) 0.90694(13)
C81_8 C 0.89854(18) 0.2497(3) 0.8856(2)
N1_8 N 0.76897(9) 0.41356(18) 0.76596(10)
N2_8 N 0.79407(9) 0.41035(16) 0.80146(9)
N3_8 N 0.81231(8) 0.35222(18) 0.80733(9)
N4_8 N 0.82149(8) 0.3456(2) 0.88490(9)
N5_8 N 0.80226(9) 0.40102(19) 0.87910(9)
N6_8 N 0.78349(9) 0.39830(19) 0.89696(10)
N7_8 N 0.78439(9) 0.5554(2) 0.90049(12)
N8_8 N 0.80381(10) 0.5562(2) 0.88248(9)
N9_8 N 0.82387(9) 0.6121(2) 0.89030(10)
N10_8 N 0.81586(8) 0.6212(2) 0.81335(9)
N11_8 N 0.79542(9) 0.56559(17) 0.80396(10)
N12_8 N 0.77084(9) 0.56845(18) 0.76795(10)
N13_8 N 0.87728(11) 0.53631(18) 0.87240(9)
N14_8 N 0.85710(8) 0.4814(2) 0.86496(8)
N15_8 N 0.87593(11) 0.42564(19) 0.86958(9)
N16_8 N 0.71793(10) 0.49289(16) 0.78309(10)
N17_8 N 0.74034(8) 0.48349(16) 0.81957(11)
N18_8 N 0.72413(11) 0.48516(19) 0.84036(11)
O5_8 O 0.87951(10) 0.25999(19) 0.85378(12)
O6_8 O 0.89603(11) 0.2827(2) 0.91013(13)
O14_4 O 0.87730(12) 0.7102(2) 0.89164(13)
C4_8 C 0.92772(14) 0.7699(3) 0.90031(15)
C16_8 C 0.98301(13) 0.8214(3) 0.91217(16)
C18_8 C 0.97969(13) 0.8640(2) 0.93714(12)
C69_8 C 0.95601(17) 0.7744(3) 0.89302(15)
H63_8 H 0.9572 0.7471 0.8759
C70_8 C 0.95108(15) 0.8619(3) 0.94184(14)
H64_8 H 0.9481 0.8917 0.9569
C71_8 C 0.92545(14) 0.8130(3) 0.92324(16)
H65_8 H 0.9059 0.8106 0.9271
C74_8 C 0.89901(19) 0.7166(4) 0.88302(17)
O4_8 O 0.89942(9) 0.6864(2) 0.85586(13)
H47_6 H 0.2026 0.2582 0.9929
C22_7 C 0.86015(12) 0.0615(2) 0.87729(12)
H23_7 H 0.8603 0.0999 0.8655
C27_7 C 0.88284(11) 0.0559(2) 0.91360(13)
H25_7 H 0.8980 0.0905 0.9258
C41_7 C 0.81228(14) 0.0140(3) 0.81719(14)
C44_7 C 0.83683(12) 0.0116(3) 0.85743(13)
C77_7 C 0.92672(10) 0.03994(18) 0.99061(10)
H71_7 H 0.9434 0.0527 0.9823
H72_7 H 0.9121 0.0776 0.9887
O2_7 O 0.81242(9) 0.0664(2) 0.80111(10)
H47_7 H 0.2974 0.2418 0.0071
C22_8 C 0.13985(12) 0.9385(2) 0.12271(12)
H23_8 H 0.1397 0.9001 0.1345
C27_8 C 0.11716(11) 0.9441(2) 0.08640(13)
H25_8 H 0.1020 0.9095 0.0742
C41_8 C 0.18772(14) 0.9860(3) 0.18281(14)
C44_8 C 0.16317(12) 0.9884(3) 0.14257(13)
C77_8 C 0.07328(10) 0.96006(18) 0.00939(10)
H71_8 H 0.0566 0.9473 0.0177
H72_8 H 0.0879 0.9224 0.0113
O2_8 O 0.18758(9) 0.9336(2) 0.19889(10)
H47_8 H 0.7974 0.7418 0.0071
loop_
_geom_bond_atom_site_label_1
_geom_bond_atom_site_label_2
_geom_bond_site_symmetry_1
_geom_bond_site_symmetry_2
Zn1 N3 1_555 1_555
Zn2 N2 1_555 1_555
Zn4 N1 1_555 1_555
Zn5 N6 1_555 1_555
C3 H3 1_555 1_555
C4 C69 1_555 1_555
C5 H4 1_555 1_555
C6 H5 1_555 1_555
C7 H6 1_555 1_555
H7 C7 1_555 1_555
H8 C7 1_555 1_555
C8 C3 1_555 1_555
H9 C8 1_555 1_555
C12 C6 1_555 1_555
H14 C12 1_555 1_555
C13 C15 1_555 1_555
C15 H18 1_555 1_555
C16 H19 1_555 1_555
C17 C26 1_555 1_555
C18 C16 1_555 1_555
C20 H20 1_555 1_555
H21 C20 1_555 1_555
C21 H22 1_555 1_555
C23 C20 1_555 1_555
C24 C5 1_555 1_555
C26 H24 1_555 1_555
C28 C23 1_555 1_555
H26 C28 1_555 1_555
H27 C28 1_555 1_555
C29 C8 1_555 1_555
C30 C23 1_555 1_555
H28 C30 1_555 1_555
H29 C30 1_555 1_555
C32 C7 1_555 1_555
C35 C39 1_555 1_555
C36 H32 1_555 1_555
H33 C36 1_555 1_555
H34 C36 1_555 1_555
C37 C5 1_555 1_555
H35 C37 1_555 1_555
C39 C21 1_555 1_555
C40 C35 1_555 1_555
H37 C40 1_555 1_555
C43 C24 1_555 1_555
H39 C43 1_555 1_555
C49 C32 1_555 1_555
C52 C3 1_555 1_555
C56 C15 1_555 1_555
C57 C56 1_555 1_555
H49 C57 1_555 1_555
H50 C57 1_555 1_555
H51 C57 1_555 1_555
C62 C63 1_555 1_555
C64 H58 1_555 1_555
H59 C64 1_555 1_555
H60 C64 1_555 1_555
C65 H61 1_555 1_555
C66 C65 1_555 1_555
C67 C64 1_555 1_555
C68 C67 1_555 1_555
H62 C68 1_555 1_555
C69 C16 1_555 1_555
H63 C69 1_555 1_555
C70 C18 1_555 1_555
H64 C70 1_555 1_555
C71 C4 1_555 1_555
H65 C71 1_555 1_555
C72 C52 1_555 1_555
C73 C66 1_555 1_555
H66 C73 1_555 1_555
H67 C73 1_555 1_555
H68 C73 1_555 1_555
C74 C4 1_555 1_555
H70 C76 1_555 1_555
C79 C68 1_555 1_555
C80 C65 1_555 1_555
C81 C24 1_555 1_555
N1 C39 1_555 1_555
N2 N1 1_555 1_555
N3 C35 1_555 1_555
N4 Zn1 1_555 1_555
N5 Zn2 1_555 1_555
N6 C79 1_555 1_555
N14 Zn2 1_555 1_555
N15 Zn1 1_555 1_555
N16 Zn4 1_555 1_555
N17 Zn2 1_555 1_555
N18 Zn5 1_555 1_555
O3 C74 1_555 1_555
O4 C74 1_555 1_555
O5 Zn1 1_555 1_555
O6 Zn1 1_555 1_555
O7 C72 1_555 1_555
O8 C72 1_555 1_555
O9 C17 1_555 1_555
O11 C28 1_555 1_555
O12 C18 1_555 1_555
Zn6 O3 1_555 1_555
Zn8 O7 1_555 1_555
O13 Zn4 1_555 1_555
O15 Zn5 1_555 1_555
C6 C52 1_555 1_555
C12 C29 1_555 1_555
C13 N15 1_555 1_555
C17 C37 1_555 1_555
C20 O9 1_555 1_555
C21 C32 1_555 1_555
C26 C43 1_555 1_555
C29 O11 1_555 1_555
C30 O12 1_555 1_555
C36 C49 1_555 1_555
C40 C49 1_555 1_555
C62 C76 1_555 1_555
C62 N18 1_555 1_555
C63 N16 1_555 1_555
C66 C67 1_555 1_555
C70 C71 1_555 1_555
C79 C80 1_555 1_555
C80 N4 1_555 1_555
C81 O5 1_555 1_555
C81 O6 1_555 1_555
N2 N3 1_555 1_555
N4 N5 1_555 1_555
N5 N6 1_555 1_555
N14 N15 1_555 1_555
N16 N17 1_555 1_555
N17 N18 1_555 1_555
O8 Zn8 1_555 1_555
C1 H1 1_555 1_555
C22 H23 1_555 1_555
C27 C22 1_555 1_555
H25 C27 1_555 1_555
C33 C27 1_555 1_555
C41 C44 1_555 1_555
C42 C1 1_555 1_555
H38 C42 1_555 1_555
C44 C1 1_555 1_555
H71 C77 1_555 1_555
H72 C77 1_555 1_555
O1 C41 1_555 1_555
O2 C41 1_555 1_555
O10 C33 1_555 1_555
Zn7 O1 1_555 1_555
C22 C44 1_555 1_555
C33 C42 1_555 1_555
C77 O10 1_555 1_555
Zn6 N9 1_555 1_555
C2 H2 1_555 1_555
C9 C14 1_555 1_555
C10 H10 1_555 1_555
C11 H11 1_555 1_555
H12 C11 1_555 1_555
H13 C11 1_555 1_555
C14 H15 1_555 1_555
H16 C14 1_555 1_555
H17 C14 1_555 1_555
C19 C31 1_555 1_555
C25 C10 1_555 1_555
C31 C9 1_555 1_555
H30 C31 1_555 1_555
C34 H31 1_555 1_555
C38 H36 1_555 1_555
C45 C2 1_555 1_555
C46 C38 1_555 1_555
C47 H40 1_555 1_555
H41 C47 1_555 1_555
H42 C47 1_555 1_555
C48 H43 1_555 1_555
H44 C48 1_555 1_555
H45 C48 1_555 1_555
C50 C48 1_555 1_555
C51 C47 1_555 1_555
C53 C9 1_555 1_555
C54 C53 1_555 1_555
H46 C54 1_555 1_555
H48 C54 1_555 1_555
C55 C10 1_555 1_555
C58 C2 1_555 1_555
C59 C38 1_555 1_555
C60 C59 1_555 1_555
H52 C60 1_555 1_555
H53 C60 1_555 1_555
H54 C60 1_555 1_555
C61 C58 1_555 1_555
H55 C61 1_555 1_555
H56 C61 1_555 1_555
H57 C61 1_555 1_555
C75 C50 1_555 1_555
H69 C75 1_555 1_555
C78 C19 1_555 1_555
N9 C19 1_555 1_555
N10 Zn6 1_555 1_555
N13 Zn6 1_555 1_555
C11 C55 1_555 1_555
C25 N13 1_555 1_555
C34 C53 1_555 1_555
C34 C78 1_555 1_555
C45 C46 1_555 1_555
C45 N10 1_555 1_555
C46 N12 1_555 1_555
C50 C51 1_555 1_555
C58 C59 1_555 1_555
C78 N7 1_555 1_555
N7 N8 1_555 1_555
N8 N9 1_555 1_555
N10 N11 1_555 1_555
N11 N12 1_555 1_555
C4_2 C69_2 1_555 1_555
C18_2 C16_2 1_555 1_555
C69_2 C16_2 1_555 1_555
H63_2 C69_2 1_555 1_555
C70_2 C18_2 1_555 1_555
H64_2 C70_2 1_555 1_555
C71_2 C4_2 1_555 1_555
H65_2 C71_2 1_555 1_555
C74_2 C4_2 1_555 1_555
O3_2 C74_2 1_555 1_555
O4_2 C74_2 1_555 1_555
Zn6_2 O3_2 1_555 1_555
C70_2 C71_2 1_555 1_555
Zn1_2 N3_2 1_555 1_555
Zn2_2 N2_2 1_555 1_555
Zn6_2 N9_2 1_555 1_555
Zn4_2 N1_2 1_555 1_555
Zn8 N6_2 1_555 1_555
C2_2 H2_2 1_555 1_555
C5_2 H4_2 1_555 1_555
C7_2 H6_2 1_555 1_555
H7_2 C7_2 1_555 1_555
H8_2 C7_2 1_555 1_555
C9_2 C14_2 1_555 1_555
C10_2 H10_2 1_555 1_555
C13_2 C15_2 1_555 1_555
C14_2 H15_2 1_555 1_555
H16_2 C14_2 1_555 1_555
H17_2 C14_2 1_555 1_555
C15_2 H18_2 1_555 1_555
C17_2 C26_2 1_555 1_555
C19_2 C31_2 1_555 1_555
C21_2 H22_2 1_555 1_555
C24_2 C5_2 1_555 1_555
C25_2 C10_2 1_555 1_555
C26_2 H24_2 1_555 1_555
C31_2 C9_2 1_555 1_555
H30_2 C31_2 1_555 1_555
C32_2 C7_2 1_555 1_555
C34_2 H31_2 1_555 1_555
C35_2 C39_2 1_555 1_555
C36_2 H32_2 1_555 1_555
H33_2 C36_2 1_555 1_555
H34_2 C36_2 1_555 1_555
C37_2 C5_2 1_555 1_555
H35_2 C37_2 1_555 1_555
C38_2 H36_2 1_555 1_555
C39_2 C21_2 1_555 1_555
C40_2 C35_2 1_555 1_555
H37_2 C40_2 1_555 1_555
C43_2 C24_2 1_555 1_555
H39_2 C43_2 1_555 1_555
C45_2 C2_2 1_555 1_555
C46_2 C38_2 1_555 1_555
C47_2 H40_2 1_555 1_555
H41_2 C47_2 1_555 1_555
H42_2 C47_2 1_555 1_555
C48_2 H43_2 1_555 1_555
H44_2 C48_2 1_555 1_555
H45_2 C48_2 1_555 1_555
C49_2 C32_2 1_555 1_555
C50_2 C48_2 1_555 1_555
C51_2 C47_2 1_555 1_555
C53_2 C9_2 1_555 1_555
C54_2 C53_2 1_555 1_555
H46_2 C54_2 1_555 1_555
H48_2 C54_2 1_555 1_555
C55_2 C10_2 1_555 1_555
C56_2 C15_2 1_555 1_555
C58_2 C2_2 1_555 1_555
C59_2 C38_2 1_555 1_555
C60_2 C59_2 1_555 1_555
H52_2 C60_2 1_555 1_555
H53_2 C60_2 1_555 1_555
H54_2 C60_2 1_555 1_555
C61_2 C58_2 1_555 1_555
H55_2 C61_2 1_555 1_555
H56_2 C61_2 1_555 1_555
H57_2 C61_2 1_555 1_555
C62_2 C63_2 1_555 1_555
C63_2 C75_2 1_555 1_555
C64_2 H58_2 1_555 1_555
H59_2 C64_2 1_555 1_555
H60_2 C64_2 1_555 1_555
C65_2 H61_2 1_555 1_555
C66_2 C65_2 1_555 1_555
C67_2 C64_2 1_555 1_555
C68_2 C67_2 1_555 1_555
H62_2 C68_2 1_555 1_555
C73_2 C66_2 1_555 1_555
H66_2 C73_2 1_555 1_555
H67_2 C73_2 1_555 1_555
H68_2 C73_2 1_555 1_555
C75_2 C50_2 1_555 1_555
H69_2 C75_2 1_555 1_555
C76_2 C51_2 1_555 1_555
H70_2 C76_2 1_555 1_555
C78_2 C19_2 1_555 1_555
C79_2 C68_2 1_555 1_555
C80_2 C65_2 1_555 1_555
C81_2 C24_2 1_555 1_555
N1_2 C39_2 1_555 1_555
N2_2 N1_2 1_555 1_555
N3_2 C35_2 1_555 1_555
N4_2 Zn1_2 1_555 1_555
N5_2 Zn2_2 1_555 1_555
N6_2 C79_2 1_555 1_555
N7_2 Zn8 1_555 1_555
N8_2 Zn2_2 1_555 1_555
N9_2 C19_2 1_555 1_555
N10_2 Zn6_2 1_555 1_555
N11_2 Zn2_2 1_555 1_555
N12_2 Zn4_2 1_555 1_555
N13_2 Zn6_2 1_555 1_555
N14_2 Zn2_2 1_555 1_555
N15_2 Zn1_2 1_555 1_555
N16_2 Zn4_2 1_555 1_555
N17_2 Zn2_2 1_555 1_555
N18_2 Zn8 1_555 1_555
O5_2 Zn1_2 1_555 1_555
O6_2 Zn1_2 1_555 1_555
O13_2 Zn4_2 1_555 1_555
C13_2 C25_2 1_555 1_555
C13_2 N15_2 1_555 1_555
C17_2 C37_2 1_555 1_555
C21_2 C32_2 1_555 1_555
C25_2 N13_2 1_555 1_555
C26_2 C43_2 1_555 1_555
C34_2 C53_2 1_555 1_555
C34_2 C78_2 1_555 1_555
C36_2 C49_2 1_555 1_555
C40_2 C49_2 1_555 1_555
C45_2 C46_2 1_555 1_555
C45_2 N10_2 1_555 1_555
C46_2 N12_2 1_555 1_555
C50_2 C51_2 1_555 1_555
C55_2 C56_2 1_555 1_555
C58_2 C59_2 1_555 1_555
C62_2 C76_2 1_555 1_555
C62_2 N18_2 1_555 1_555
C63_2 N16_2 1_555 1_555
C66_2 C67_2 1_555 1_555
C78_2 N7_2 1_555 1_555
C79_2 C80_2 1_555 1_555
C80_2 N4_2 1_555 1_555
C81_2 O5_2 1_555 1_555
C81_2 O6_2 1_555 1_555
N2_2 N3_2 1_555 1_555
N4_2 N5_2 1_555 1_555
N5_2 N6_2 1_555 1_555
N7_2 N8_2 1_555 1_555
N8_2 N9_2 1_555 1_555
N10_2 N11_2 1_555 1_555
N11_2 N12_2 1_555 1_555
N13_2 N14_2 1_555 1_555
N14_2 N15_2 1_555 1_555
N16_2 N17_2 1_555 1_555
N17_2 N18_2 1_555 1_555
C3_2 H3_2 1_555 1_555
C8_2 C3_2 1_555 1_555
H9_2 C8_2 1_555 1_555
C29_2 C8_2 1_555 1_555
C30_2 C23_2 1_555 1_555
H28_2 C30_2 1_555 1_555
H29_2 C30_2 1_555 1_555
C52_2 C3_2 1_555 1_555
C72_2 C52_2 1_555 1_555
O15 C72_2 1_555 1_555
C29_2 O11_2 1_555 1_555
C30_2 O12_2 1_555 1_555
C6_2 H5_2 1_555 1_555
C11_2 H11_2 1_555 1_555
H12_2 C11_2 1_555 1_555
H13_2 C11_2 1_555 1_555
C12_2 C6_2 1_555 1_555
H14_2 C12_2 1_555 1_555
C20_2 H20_2 1_555 1_555
H21_2 C20_2 1_555 1_555
H26_2 C28_2 1_555 1_555
H27_2 C28_2 1_555 1_555
H49_2 C57_2 1_555 1_555
H50_2 C57_2 1_555 1_555
C20_2 O9_2 1_555 1_555
C1_2 H1_2 1_555 1_555
C42_2 C1_2 1_555 1_555
H38_2 C42_2 1_555 1_555
O10_2 C33_2 1_555 1_555
Zn7_2 O1_2 1_555 1_555
C33_2 C42_2 1_555 1_555
Zn3 N9_3 1_555 1_555
C2_3 H2_3 1_555 1_555
C9_3 C14_3 1_555 1_555
C10_3 H10_3 1_555 1_555
C11_3 H11_3 1_555 1_555
H12_3 C11_3 1_555 1_555
H13_3 C11_3 1_555 1_555
C14_3 H15_3 1_555 1_555
H16_3 C14_3 1_555 1_555
H17_3 C14_3 1_555 1_555
C19_3 C31_3 1_555 1_555
C25_3 C10_3 1_555 1_555
C31_3 C9_3 1_555 1_555
H30_3 C31_3 1_555 1_555
C34_3 H31_3 1_555 1_555
C38_3 H36_3 1_555 1_555
C45_3 C2_3 1_555 1_555
C46_3 C38_3 1_555 1_555
C47_3 H40_3 1_555 1_555
H41_3 C47_3 1_555 1_555
H42_3 C47_3 1_555 1_555
C48_3 H43_3 1_555 1_555
H44_3 C48_3 1_555 1_555
H45_3 C48_3 1_555 1_555
C50_3 C48_3 1_555 1_555
C51_3 C47_3 1_555 1_555
C53_3 C9_3 1_555 1_555
C54_3 C53_3 1_555 1_555
H46_3 C54_3 1_555 1_555
H47 C54_3 1_555 1_555
H48_3 C54_3 1_555 1_555
C55_3 C10_3 1_555 1_555
C58_3 C2_3 1_555 1_555
C59_3 C38_3 1_555 1_555
C60_3 C59_3 1_555 1_555
H52_3 C60_3 1_555 1_555
H53_3 C60_3 1_555 1_555
H54_3 C60_3 1_555 1_555
C61_3 C58_3 1_555 1_555
H55_3 C61_3 1_555 1_555
H56_3 C61_3 1_555 1_555
H57_3 C61_3 1_555 1_555
C75_3 C50_3 1_555 1_555
H69_3 C75_3 1_555 1_555
C78_3 C19_3 1_555 1_555
N9_3 C19_3 1_555 1_555
N10_3 Zn3 1_555 1_555
N13_3 Zn3 1_555 1_555
O14 Zn3 1_555 1_555
C11_3 C55_3 1_555 1_555
C25_3 N13_3 1_555 1_555
C34_3 C53_3 1_555 1_555
C34_3 C78_3 1_555 1_555
C45_3 C46_3 1_555 1_555
C45_3 N10_3 1_555 1_555
C46_3 N12_3 1_555 1_555
C50_3 C51_3 1_555 1_555
C58_3 C59_3 1_555 1_555
C78_3 N7_3 1_555 1_555
N7_3 N8_3 1_555 1_555
N8_3 N9_3 1_555 1_555
N10_3 N11_3 1_555 1_555
N11_3 N12_3 1_555 1_555
Zn1_3 N3_3 1_555 1_555
Zn2_3 N2_3 1_555 1_555
Zn7_2 N1_3 1_555 1_555
Zn5_2 N6_3 1_555 1_555
C1_3 H1_3 1_555 1_555
C3_3 H3_3 1_555 1_555
C4_3 C69_3 1_555 1_555
C5_3 H4_3 1_555 1_555
C6_3 H5_3 1_555 1_555
C7_3 H6_3 1_555 1_555
H7_3 C7_3 1_555 1_555
H8_3 C7_3 1_555 1_555
C8_3 C3_3 1_555 1_555
H9_3 C8_3 1_555 1_555
C12_3 C6_3 1_555 1_555
H14_3 C12_3 1_555 1_555
C13_3 C15_3 1_555 1_555
C15_3 H18_3 1_555 1_555
C16_3 H19_3 1_555 1_555
C17_3 C26_3 1_555 1_555
C18_3 C16_3 1_555 1_555
C20_3 H20_3 1_555 1_555
H21_3 C20_3 1_555 1_555
C21_3 H22_3 1_555 1_555
C22_2 H23_2 1_555 1_555
C23_3 C20_3 1_555 1_555
C24_3 C5_3 1_555 1_555
C26_3 H24_3 1_555 1_555
C27_2 C22_2 1_555 1_555
H25_2 C27_2 1_555 1_555
C28_3 C23_3 1_555 1_555
H26_3 C28_3 1_555 1_555
H27_3 C28_3 1_555 1_555
C29_3 C8_3 1_555 1_555
C30_3 C23_3 1_555 1_555
H28_3 C30_3 1_555 1_555
H29_3 C30_3 1_555 1_555
C32_3 C7_3 1_555 1_555
C33_3 C27_2 1_555 1_555
C35_3 C39_3 1_555 1_555
C36_3 H32_3 1_555 1_555
H33_3 C36_3 1_555 1_555
H34_3 C36_3 1_555 1_555
C37_3 C5_3 1_555 1_555
H35_3 C37_3 1_555 1_555
C39_3 C21_3 1_555 1_555
C40_3 C35_3 1_555 1_555
H37_3 C40_3 1_555 1_555
C41_2 C44_2 1_555 1_555
C42_3 C1_3 1_555 1_555
H38_3 C42_3 1_555 1_555
C43_3 C24_3 1_555 1_555
H39_3 C43_3 1_555 1_555
C44_2 C1_3 1_555 1_555
C49_3 C32_3 1_555 1_555
C52_3 C3_3 1_555 1_555
C56_3 C15_3 1_555 1_555
C57_3 C56_3 1_555 1_555
H49_3 C57_3 1_555 1_555
H50_3 C57_3 1_555 1_555
H51_3 C57_3 1_555 1_555
C62_3 C63_3 1_555 1_555
C64_3 H58_3 1_555 1_555
H59_3 C64_3 1_555 1_555
H60_3 C64_3 1_555 1_555
C65_3 H61_3 1_555 1_555
C66_3 C65_3 1_555 1_555
C67_3 C64_3 1_555 1_555
C68_3 C67_3 1_555 1_555
H62_3 C68_3 1_555 1_555
C69_3 C16_3 1_555 1_555
H63_3 C69_3 1_555 1_555
C70_3 C18_3 1_555 1_555
H64_3 C70_3 1_555 1_555
C71_3 C4_3 1_555 1_555
H65_3 C71_3 1_555 1_555
C72_3 C52_3 1_555 1_555
C73_3 C66_3 1_555 1_555
H66_3 C73_3 1_555 1_555
H67_3 C73_3 1_555 1_555
H68_3 C73_3 1_555 1_555
C74_3 C4_3 1_555 1_555
H70_3 C76_3 1_555 1_555
C77_2 C23_3 1_555 1_555
H71_2 C77_2 1_555 1_555
H72_2 C77_2 1_555 1_555
C79_3 C68_3 1_555 1_555
C80_3 C65_3 1_555 1_555
C81_3 C24_3 1_555 1_555
N1_3 C39_3 1_555 1_555
N2_3 N1_3 1_555 1_555
N3_3 C35_3 1_555 1_555
N4_3 Zn1_3 1_555 1_555
N5_3 Zn2_3 1_555 1_555
N6_3 C79_3 1_555 1_555
N14_3 Zn2_3 1_555 1_555
N15_3 Zn1_3 1_555 1_555
N16_3 Zn7_2 1_555 1_555
N17_3 Zn2_3 1_555 1_555
N18_3 Zn5_2 1_555 1_555
O13_2 C41_2 1_555 1_555
O2_2 C41_2 1_555 1_555
O14 C74_3 1_555 1_555
O4_3 C74_3 1_555 1_555
O5_3 Zn1_3 1_555 1_555
O6_3 Zn1_3 1_555 1_555
O7_2 C72_3 1_555 1_555
O8_2 C72_3 1_555 1_555
O9_3 C17_3 1_555 1_555
O10_3 C33_3 1_555 1_555
O11_3 C28_3 1_555 1_555
O12_3 C18_3 1_555 1_555
Zn8_2 O7_2 1_555 1_555
O15_2 Zn5_2 1_555 1_555
C6_3 C52_3 1_555 1_555
C12_3 C29_3 1_555 1_555
C13_3 N15_3 1_555 1_555
C17_3 C37_3 1_555 1_555
C20_3 O9_3 1_555 1_555
C21_3 C32_3 1_555 1_555
C22_2 C44_2 1_555 1_555
C26_3 C43_3 1_555 1_555
C29_3 O11_3 1_555 1_555
C30_3 O12_3 1_555 1_555
C33_3 C42_3 1_555 1_555
C36_3 C49_3 1_555 1_555
C40_3 C49_3 1_555 1_555
C62_3 C76_3 1_555 1_555
C62_3 N18_3 1_555 1_555
C63_3 N16_3 1_555 1_555
C66_3 C67_3 1_555 1_555
C70_3 C71_3 1_555 1_555
C77_2 O10_3 1_555 1_555
C79_3 C80_3 1_555 1_555
C80_3 N4_3 1_555 1_555
C81_3 O5_3 1_555 1_555
C81_3 O6_3 1_555 1_555
N2_3 N3_3 1_555 1_555
N4_3 N5_3 1_555 1_555
N5_3 N6_3 1_555 1_555
N14_3 N15_3 1_555 1_555
N16_3 N17_3 1_555 1_555
N17_3 N18_3 1_555 1_555
O8_2 Zn8_2 1_555 1_555
Zn1_4 N3_4 1_555 1_555
Zn2_4 N2_4 1_555 1_555
Zn3_2 N9_4 1_555 1_555
Zn7 N1_4 1_555 1_555
Zn8_2 N6_4 1_555 1_555
C2_4 H2_4 1_555 1_555
C5_4 H4_4 1_555 1_555
C7_4 H6_4 1_555 1_555
H7_4 C7_4 1_555 1_555
H8_4 C7_4 1_555 1_555
C9_4 C14_4 1_555 1_555
C10_4 H10_4 1_555 1_555
C13_4 C15_4 1_555 1_555
C14_4 H15_4 1_555 1_555
H16_4 C14_4 1_555 1_555
H17_4 C14_4 1_555 1_555
C15_4 H18_4 1_555 1_555
C17_4 C26_4 1_555 1_555
C19_4 C31_4 1_555 1_555
C21_4 H22_4 1_555 1_555
C24_4 C5_4 1_555 1_555
C25_4 C10_4 1_555 1_555
C26_4 H24_4 1_555 1_555
C31_4 C9_4 1_555 1_555
H30_4 C31_4 1_555 1_555
C32_4 C7_4 1_555 1_555
C34_4 H31_4 1_555 1_555
C35_4 C39_4 1_555 1_555
C36_4 H32_4 1_555 1_555
H33_4 C36_4 1_555 1_555
H34_4 C36_4 1_555 1_555
C37_4 C5_4 1_555 1_555
H35_4 C37_4 1_555 1_555
C38_4 H36_4 1_555 1_555
C39_4 C21_4 1_555 1_555
C40_4 C35_4 1_555 1_555
H37_4 C40_4 1_555 1_555
C43_4 C24_4 1_555 1_555
H39_4 C43_4 1_555 1_555
C45_4 C2_4 1_555 1_555
C46_4 C38_4 1_555 1_555
C47_4 H40_4 1_555 1_555
H41_4 C47_4 1_555 1_555
H42_4 C47_4 1_555 1_555
C48_4 H43_4 1_555 1_555
H44_4 C48_4 1_555 1_555
H45_4 C48_4 1_555 1_555
C49_4 C32_4 1_555 1_555
C50_4 C48_4 1_555 1_555
C51_4 C47_4 1_555 1_555
C53_4 C9_4 1_555 1_555
C54_4 C53_4 1_555 1_555
H46_4 C54_4 1_555 1_555
H47_2 C54_4 1_555 1_555
H48_4 C54_4 1_555 1_555
C55_4 C10_4 1_555 1_555
C56_4 C15_4 1_555 1_555
C58_4 C2_4 1_555 1_555
C59_4 C38_4 1_555 1_555
C60_4 C59_4 1_555 1_555
H52_4 C60_4 1_555 1_555
H53_4 C60_4 1_555 1_555
H54_4 C60_4 1_555 1_555
C61_4 C58_4 1_555 1_555
H55_4 C61_4 1_555 1_555
H56_4 C61_4 1_555 1_555
H57_4 C61_4 1_555 1_555
C62_4 C63_4 1_555 1_555
C63_4 C75_4 1_555 1_555
C64_4 H58_4 1_555 1_555
H59_4 C64_4 1_555 1_555
H60_4 C64_4 1_555 1_555
C65_4 H61_4 1_555 1_555
C66_4 C65_4 1_555 1_555
C67_4 C64_4 1_555 1_555
C68_4 C67_4 1_555 1_555
H62_4 C68_4 1_555 1_555
C73_4 C66_4 1_555 1_555
H66_4 C73_4 1_555 1_555
H67_4 C73_4 1_555 1_555
H68_4 C73_4 1_555 1_555
C75_4 C50_4 1_555 1_555
H69_4 C75_4 1_555 1_555
C76_4 C51_4 1_555 1_555
H70_4 C76_4 1_555 1_555
C78_4 C19_4 1_555 1_555
C79_4 C68_4 1_555 1_555
C80_4 C65_4 1_555 1_555
C81_4 C24_4 1_555 1_555
N1_4 C39_4 1_555 1_555
N2_4 N1_4 1_555 1_555
N3_4 C35_4 1_555 1_555
N4_4 Zn1_4 1_555 1_555
N5_4 Zn2_4 1_555 1_555
N6_4 C79_4 1_555 1_555
N7_4 Zn8_2 1_555 1_555
N8_4 Zn2_4 1_555 1_555
N9_4 C19_4 1_555 1_555
N10_4 Zn3_2 1_555 1_555
N11_4 Zn2_4 1_555 1_555
N12_4 Zn7 1_555 1_555
N13_4 Zn3_2 1_555 1_555
N14_4 Zn2_4 1_555 1_555
N15_4 Zn1_4 1_555 1_555
N16_4 Zn7 1_555 1_555
N17_4 Zn2_4 1_555 1_555
N18_4 Zn8_2 1_555 1_555
O5_4 Zn1_4 1_555 1_555
O6_4 Zn1_4 1_555 1_555
O14_2 Zn3_2 1_555 1_555
C13_4 C25_4 1_555 1_555
C13_4 N15_4 1_555 1_555
C17_4 C37_4 1_555 1_555
C21_4 C32_4 1_555 1_555
C25_4 N13_4 1_555 1_555
C26_4 C43_4 1_555 1_555
C34_4 C53_4 1_555 1_555
C34_4 C78_4 1_555 1_555
C36_4 C49_4 1_555 1_555
C40_4 C49_4 1_555 1_555
C45_4 C46_4 1_555 1_555
C45_4 N10_4 1_555 1_555
C46_4 N12_4 1_555 1_555
C50_4 C51_4 1_555 1_555
C55_4 C56_4 1_555 1_555
C58_4 C59_4 1_555 1_555
C62_4 C76_4 1_555 1_555
C62_4 N18_4 1_555 1_555
C63_4 N16_4 1_555 1_555
C66_4 C67_4 1_555 1_555
C78_4 N7_4 1_555 1_555
C79_4 C80_4 1_555 1_555
C80_4 N4_4 1_555 1_555
C81_4 O5_4 1_555 1_555
C81_4 O6_4 1_555 1_555
N2_4 N3_4 1_555 1_555
N4_4 N5_4 1_555 1_555
N5_4 N6_4 1_555 1_555
N7_4 N8_4 1_555 1_555
N8_4 N9_4 1_555 1_555
N10_4 N11_4 1_555 1_555
N11_4 N12_4 1_555 1_555
N13_4 N14_4 1_555 1_555
N14_4 N15_4 1_555 1_555
N16_4 N17_4 1_555 1_555
N17_4 N18_4 1_555 1_555
C4_4 C69_4 1_555 1_555
C18_4 C16_4 1_555 1_555
C69_4 C16_4 1_555 1_555
H63_4 C69_4 1_555 1_555
C70_4 C18_4 1_555 1_555
H64_4 C70_4 1_555 1_555
C71_4 C4_4 1_555 1_555
H65_4 C71_4 1_555 1_555
C74_4 C4_4 1_555 1_555
O14_2 C74_4 1_555 1_555
O4_4 C74_4 1_555 1_555
C70_4 C71_4 1_555 1_555
C1_4 H1_4 1_555 1_555
C6_4 H5_4 1_555 1_555
C11_4 H11_4 1_555 1_555
H12_4 C11_4 1_555 1_555
H13_4 C11_4 1_555 1_555
C12_4 C6_4 1_555 1_555
H14_4 C12_4 1_555 1_555
C20_4 H20_4 1_555 1_555
H21_4 C20_4 1_555 1_555
H26_4 C28_4 1_555 1_555
H27_4 C28_4 1_555 1_555
C42_4 C1_4 1_555 1_555
H38_4 C42_4 1_555 1_555
H49_4 C57_4 1_555 1_555
H50_4 C57_4 1_555 1_555
O10_4 C33_4 1_555 1_555
C20_4 O9_4 1_555 1_555
C33_4 C42_4 1_555 1_555
C3_4 H3_4 1_555 1_555
C8_4 C3_4 1_555 1_555
H9_4 C8_4 1_555 1_555
C22_3 H23_3 1_555 1_555
C27_3 C22_3 1_555 1_555
H25_3 C27_3 1_555 1_555
C29_4 C8_4 1_555 1_555
C30_4 C23_4 1_555 1_555
H28_4 C30_4 1_555 1_555
H29_4 C30_4 1_555 1_555
C41_3 C44_3 1_555 1_555
C52_4 C3_4 1_555 1_555
C72_4 C52_4 1_555 1_555
C77_3 C23_4 1_555 1_555
H71_3 C77_3 1_555 1_555
H72_3 C77_3 1_555 1_555
O2_3 C41_3 1_555 1_555
O15_2 C72_4 1_555 1_555
C22_3 C44_3 1_555 1_555
C29_4 O11_4 1_555 1_555
C30_4 O12_4 1_555 1_555
Zn1_5 N3_5 1_555 1_555
Zn2_5 N2_5 1_555 1_555
Zn4_3 N1_5 1_555 1_555
Zn5_3 N6_5 1_555 1_555
C1_5 H1_5 1_555 1_555
C3_5 H3_5 1_555 1_555
C4_5 C69_5 1_555 1_555
C5_5 H4_5 1_555 1_555
C6_5 H5_5 1_555 1_555
C7_5 H6_5 1_555 1_555
H7_5 C7_5 1_555 1_555
H8_5 C7_5 1_555 1_555
C8_5 C3_5 1_555 1_555
H9_5 C8_5 1_555 1_555
C12_5 C6_5 1_555 1_555
H14_5 C12_5 1_555 1_555
C13_5 C15_5 1_555 1_555
C15_5 H18_5 1_555 1_555
C16_5 H19_5 1_555 1_555
C17_5 C26_5 1_555 1_555
C18_5 C16_5 1_555 1_555
C20_5 H20_5 1_555 1_555
H21_5 C20_5 1_555 1_555
C21_5 H22_5 1_555 1_555
C22_4 H23_4 1_555 1_555
C23_5 C20_5 1_555 1_555
C24_5 C5_5 1_555 1_555
C26_5 H24_5 1_555 1_555
C27_4 C22_4 1_555 1_555
H25_4 C27_4 1_555 1_555
C28_5 C23_5 1_555 1_555
H26_5 C28_5 1_555 1_555
H27_5 C28_5 1_555 1_555
C29_5 C8_5 1_555 1_555
C30_5 C23_5 1_555 1_555
H28_5 C30_5 1_555 1_555
H29_5 C30_5 1_555 1_555
C32_5 C7_5 1_555 1_555
C33_5 C27_4 1_555 1_555
C35_5 C39_5 1_555 1_555
C36_5 H32_5 1_555 1_555
H33_5 C36_5 1_555 1_555
H34_5 C36_5 1_555 1_555
C37_5 C5_5 1_555 1_555
H35_5 C37_5 1_555 1_555
C39_5 C21_5 1_555 1_555
C40_5 C35_5 1_555 1_555
H37_5 C40_5 1_555 1_555
C41_4 C44_4 1_555 1_555
C42_5 C1_5 1_555 1_555
H38_5 C42_5 1_555 1_555
C43_5 C24_5 1_555 1_555
H39_5 C43_5 1_555 1_555
C44_4 C1_5 1_555 1_555
C49_5 C32_5 1_555 1_555
C52_5 C3_5 1_555 1_555
C56_5 C15_5 1_555 1_555
C57_5 C56_5 1_555 1_555
H49_5 C57_5 1_555 1_555
H50_5 C57_5 1_555 1_555
H51_5 C57_5 1_555 1_555
C62_5 C63_5 1_555 1_555
C64_5 H58_5 1_555 1_555
H59_5 C64_5 1_555 1_555
H60_5 C64_5 1_555 1_555
C65_5 H61_5 1_555 1_555
C66_5 C65_5 1_555 1_555
C67_5 C64_5 1_555 1_555
C68_5 C67_5 1_555 1_555
H62_5 C68_5 1_555 1_555
C69_5 C16_5 1_555 1_555
H63_5 C69_5 1_555 1_555
C70_5 C18_5 1_555 1_555
H64_5 C70_5 1_555 1_555
C71_5 C4_5 1_555 1_555
H65_5 C71_5 1_555 1_555
C72_5 C52_5 1_555 1_555
C73_5 C66_5 1_555 1_555
H66_5 C73_5 1_555 1_555
H67_5 C73_5 1_555 1_555
H68_5 C73_5 1_555 1_555
C74_5 C4_5 1_555 1_555
H70_5 C76_5 1_555 1_555
C77_4 C23_5 1_555 1_555
H71_4 C77_4 1_555 1_555
H72_4 C77_4 1_555 1_555
C79_5 C68_5 1_555 1_555
C80_5 C65_5 1_555 1_555
C81_5 C24_5 1_555 1_555
N1_5 C39_5 1_555 1_555
N2_5 N1_5 1_555 1_555
N3_5 C35_5 1_555 1_555
N4_5 Zn1_5 1_555 1_555
N5_5 Zn2_5 1_555 1_555
N6_5 C79_5 1_555 1_555
N14_5 Zn2_5 1_555 1_555
N15_5 Zn1_5 1_555 1_555
N16_5 Zn4_3 1_555 1_555
N17_5 Zn2_5 1_555 1_555
N18_5 Zn5_3 1_555 1_555
O1_3 C41_4 1_555 1_555
O2_4 C41_4 1_555 1_555
O3_3 C74_5 1_555 1_555
O4_5 C74_5 1_555 1_555
O5_5 Zn1_5 1_555 1_555
O6_5 Zn1_5 1_555 1_555
O7_3 C72_5 1_555 1_555
O8_3 C72_5 1_555 1_555
O9_5 C17_5 1_555 1_555
O10_5 C33_5 1_555 1_555
O11_5 C28_5 1_555 1_555
O12_5 C18_5 1_555 1_555
Zn6_3 O3_3 1_555 1_555
Zn7_3 O1_3 1_555 1_555
Zn8_3 O7_3 1_555 1_555
O13_3 Zn4_3 1_555 1_555
O15_3 Zn5_3 1_555 1_555
C6_5 C52_5 1_555 1_555
C12_5 C29_5 1_555 1_555
C13_5 N15_5 1_555 1_555
C17_5 C37_5 1_555 1_555
C20_5 O9_5 1_555 1_555
C21_5 C32_5 1_555 1_555
C22_4 C44_4 1_555 1_555
C26_5 C43_5 1_555 1_555
C29_5 O11_5 1_555 1_555
C30_5 O12_5 1_555 1_555
C33_5 C42_5 1_555 1_555
C36_5 C49_5 1_555 1_555
C40_5 C49_5 1_555 1_555
C62_5 C76_5 1_555 1_555
C62_5 N18_5 1_555 1_555
C63_5 N16_5 1_555 1_555
C66_5 C67_5 1_555 1_555
C70_5 C71_5 1_555 1_555
C77_4 O10_5 1_555 1_555
C79_5 C80_5 1_555 1_555
C80_5 N4_5 1_555 1_555
C81_5 O5_5 1_555 1_555
C81_5 O6_5 1_555 1_555
N2_5 N3_5 1_555 1_555
N4_5 N5_5 1_555 1_555
N5_5 N6_5 1_555 1_555
N14_5 N15_5 1_555 1_555
N16_5 N17_5 1_555 1_555
N17_5 N18_5 1_555 1_555
O8_3 Zn8_3 1_555 1_555
Zn6_3 N9_5 1_555 1_555
C2_5 H2_5 1_555 1_555
C9_5 C14_5 1_555 1_555
C10_5 H10_5 1_555 1_555
C11_5 H11_5 1_555 1_555
H12_5 C11_5 1_555 1_555
H13_5 C11_5 1_555 1_555
C14_5 H15_5 1_555 1_555
H16_5 C14_5 1_555 1_555
H17_5 C14_5 1_555 1_555
C19_5 C31_5 1_555 1_555
C25_5 C10_5 1_555 1_555
C31_5 C9_5 1_555 1_555
H30_5 C31_5 1_555 1_555
C34_5 H31_5 1_555 1_555
C38_5 H36_5 1_555 1_555
C45_5 C2_5 1_555 1_555
C46_5 C38_5 1_555 1_555
C47_5 H40_5 1_555 1_555
H41_5 C47_5 1_555 1_555
H42_5 C47_5 1_555 1_555
C48_5 H43_5 1_555 1_555
H44_5 C48_5 1_555 1_555
H45_5 C48_5 1_555 1_555
C50_5 C48_5 1_555 1_555
C51_5 C47_5 1_555 1_555
C53_5 C9_5 1_555 1_555
C54_5 C53_5 1_555 1_555
H46_5 C54_5 1_555 1_555
H47_4 C54_5 1_555 1_555
H48_5 C54_5 1_555 1_555
C55_5 C10_5 1_555 1_555
C58_5 C2_5 1_555 1_555
C59_5 C38_5 1_555 1_555
C60_5 C59_5 1_555 1_555
H52_5 C60_5 1_555 1_555
H53_5 C60_5 1_555 1_555
H54_5 C60_5 1_555 1_555
C61_5 C58_5 1_555 1_555
H55_5 C61_5 1_555 1_555
H56_5 C61_5 1_555 1_555
H57_5 C61_5 1_555 1_555
C75_5 C50_5 1_555 1_555
H69_5 C75_5 1_555 1_555
C78_5 C19_5 1_555 1_555
N9_5 C19_5 1_555 1_555
N10_5 Zn6_3 1_555 1_555
N13_5 Zn6_3 1_555 1_555
C11_5 C55_5 1_555 1_555
C25_5 N13_5 1_555 1_555
C34_5 C53_5 1_555 1_555
C34_5 C78_5 1_555 1_555
C45_5 C46_5 1_555 1_555
C45_5 N10_5 1_555 1_555
C46_5 N12_5 1_555 1_555
C50_5 C51_5 1_555 1_555
C58_5 C59_5 1_555 1_555
C78_5 N7_5 1_555 1_555
N7_5 N8_5 1_555 1_555
N8_5 N9_5 1_555 1_555
N10_5 N11_5 1_555 1_555
N11_5 N12_5 1_555 1_555
C3_6 H3_6 1_555 1_555
C8_6 C3_6 1_555 1_555
H9_6 C8_6 1_555 1_555
C22_5 H23_5 1_555 1_555
C27_5 C22_5 1_555 1_555
H25_5 C27_5 1_555 1_555
C29_6 C8_6 1_555 1_555
C30_6 C23_6 1_555 1_555
H28_6 C30_6 1_555 1_555
H29_6 C30_6 1_555 1_555
C41_5 C44_5 1_555 1_555
C52_6 C3_6 1_555 1_555
C72_6 C52_6 1_555 1_555
C77_5 C23_6 1_555 1_555
H71_5 C77_5 1_555 1_555
H72_5 C77_5 1_555 1_555
O2_5 C41_5 1_555 1_555
O15_3 C72_6 1_555 1_555
C22_5 C44_5 1_555 1_555
C29_6 O11_6 1_555 1_555
C30_6 O12_6 1_555 1_555
C1_6 H1_6 1_555 1_555
C6_6 H5_6 1_555 1_555
C11_6 H11_6 1_555 1_555
H12_6 C11_6 1_555 1_555
H13_6 C11_6 1_555 1_555
C12_6 C6_6 1_555 1_555
H14_6 C12_6 1_555 1_555
C20_6 H20_6 1_555 1_555
H21_6 C20_6 1_555 1_555
H26_6 C28_6 1_555 1_555
H27_6 C28_6 1_555 1_555
C42_6 C1_6 1_555 1_555
H38_6 C42_6 1_555 1_555
H49_6 C57_6 1_555 1_555
H50_6 C57_6 1_555 1_555
O10_6 C33_6 1_555 1_555
Zn7_4 O1_4 1_555 1_555
C20_6 O9_6 1_555 1_555
C33_6 C42_6 1_555 1_555
C4_6 C69_6 1_555 1_555
C18_6 C16_6 1_555 1_555
C69_6 C16_6 1_555 1_555
H63_6 C69_6 1_555 1_555
C70_6 C18_6 1_555 1_555
H64_6 C70_6 1_555 1_555
C71_6 C4_6 1_555 1_555
H65_6 C71_6 1_555 1_555
C74_6 C4_6 1_555 1_555
O3_4 C74_6 1_555 1_555
O4_6 C74_6 1_555 1_555
Zn6_4 O3_4 1_555 1_555
C70_6 C71_6 1_555 1_555
Zn1_6 N3_6 1_555 1_555
Zn2_6 N2_6 1_555 1_555
Zn6_4 N9_6 1_555 1_555
Zn4_4 N1_6 1_555 1_555
Zn8_3 N6_6 1_555 1_555
C2_6 H2_6 1_555 1_555
C5_6 H4_6 1_555 1_555
C7_6 H6_6 1_555 1_555
H7_6 C7_6 1_555 1_555
H8_6 C7_6 1_555 1_555
C9_6 C14_6 1_555 1_555
C10_6 H10_6 1_555 1_555
C13_6 C15_6 1_555 1_555
C14_6 H15_6 1_555 1_555
H16_6 C14_6 1_555 1_555
H17_6 C14_6 1_555 1_555
C15_6 H18_6 1_555 1_555
C17_6 C26_6 1_555 1_555
C19_6 C31_6 1_555 1_555
C21_6 H22_6 1_555 1_555
C24_6 C5_6 1_555 1_555
C25_6 C10_6 1_555 1_555
C26_6 H24_6 1_555 1_555
C31_6 C9_6 1_555 1_555
H30_6 C31_6 1_555 1_555
C32_6 C7_6 1_555 1_555
C34_6 H31_6 1_555 1_555
C35_6 C39_6 1_555 1_555
C36_6 H32_6 1_555 1_555
H33_6 C36_6 1_555 1_555
H34_6 C36_6 1_555 1_555
C37_6 C5_6 1_555 1_555
H35_6 C37_6 1_555 1_555
C38_6 H36_6 1_555 1_555
C39_6 C21_6 1_555 1_555
C40_6 C35_6 1_555 1_555
H37_6 C40_6 1_555 1_555
C43_6 C24_6 1_555 1_555
H39_6 C43_6 1_555 1_555
C45_6 C2_6 1_555 1_555
C46_6 C38_6 1_555 1_555
C47_6 H40_6 1_555 1_555
H41_6 C47_6 1_555 1_555
H42_6 C47_6 1_555 1_555
C48_6 H43_6 1_555 1_555
H44_6 C48_6 1_555 1_555
H45_6 C48_6 1_555 1_555
C49_6 C32_6 1_555 1_555
C50_6 C48_6 1_555 1_555
C51_6 C47_6 1_555 1_555
C53_6 C9_6 1_555 1_555
C54_6 C53_6 1_555 1_555
H46_6 C54_6 1_555 1_555
H47_5 C54_6 1_555 1_555
H48_6 C54_6 1_555 1_555
C55_6 C10_6 1_555 1_555
C56_6 C15_6 1_555 1_555
C58_6 C2_6 1_555 1_555
C59_6 C38_6 1_555 1_555
C60_6 C59_6 1_555 1_555
H52_6 C60_6 1_555 1_555
H53_6 C60_6 1_555 1_555
H54_6 C60_6 1_555 1_555
C61_6 C58_6 1_555 1_555
H55_6 C61_6 1_555 1_555
H56_6 C61_6 1_555 1_555
H57_6 C61_6 1_555 1_555
C62_6 C63_6 1_555 1_555
C63_6 C75_6 1_555 1_555
C64_6 H58_6 1_555 1_555
H59_6 C64_6 1_555 1_555
H60_6 C64_6 1_555 1_555
C65_6 H61_6 1_555 1_555
C66_6 C65_6 1_555 1_555
C67_6 C64_6 1_555 1_555
C68_6 C67_6 1_555 1_555
H62_6 C68_6 1_555 1_555
C73_6 C66_6 1_555 1_555
H66_6 C73_6 1_555 1_555
H67_6 C73_6 1_555 1_555
H68_6 C73_6 1_555 1_555
C75_6 C50_6 1_555 1_555
H69_6 C75_6 1_555 1_555
C76_6 C51_6 1_555 1_555
H70_6 C76_6 1_555 1_555
C78_6 C19_6 1_555 1_555
C79_6 C68_6 1_555 1_555
C80_6 C65_6 1_555 1_555
C81_6 C24_6 1_555 1_555
N1_6 C39_6 1_555 1_555
N2_6 N1_6 1_555 1_555
N3_6 C35_6 1_555 1_555
N4_6 Zn1_6 1_555 1_555
N5_6 Zn2_6 1_555 1_555
N6_6 C79_6 1_555 1_555
N7_6 Zn8_3 1_555 1_555
N8_6 Zn2_6 1_555 1_555
N9_6 C19_6 1_555 1_555
N10_6 Zn6_4 1_555 1_555
N11_6 Zn2_6 1_555 1_555
N12_6 Zn4_4 1_555 1_555
N13_6 Zn6_4 1_555 1_555
N14_6 Zn2_6 1_555 1_555
N15_6 Zn1_6 1_555 1_555
N16_6 Zn4_4 1_555 1_555
N17_6 Zn2_6 1_555 1_555
N18_6 Zn8_3 1_555 1_555
O5_6 Zn1_6 1_555 1_555
O6_6 Zn1_6 1_555 1_555
O13_4 Zn4_4 1_555 1_555
C13_6 C25_6 1_555 1_555
C13_6 N15_6 1_555 1_555
C17_6 C37_6 1_555 1_555
C21_6 C32_6 1_555 1_555
C25_6 N13_6 1_555 1_555
C26_6 C43_6 1_555 1_555
C34_6 C53_6 1_555 1_555
C34_6 C78_6 1_555 1_555
C36_6 C49_6 1_555 1_555
C40_6 C49_6 1_555 1_555
C45_6 C46_6 1_555 1_555
C45_6 N10_6 1_555 1_555
C46_6 N12_6 1_555 1_555
C50_6 C51_6 1_555 1_555
C55_6 C56_6 1_555 1_555
C58_6 C59_6 1_555 1_555
C62_6 C76_6 1_555 1_555
C62_6 N18_6 1_555 1_555
C63_6 N16_6 1_555 1_555
C66_6 C67_6 1_555 1_555
C78_6 N7_6 1_555 1_555
C79_6 C80_6 1_555 1_555
C80_6 N4_6 1_555 1_555
C81_6 O5_6 1_555 1_555
C81_6 O6_6 1_555 1_555
N2_6 N3_6 1_555 1_555
N4_6 N5_6 1_555 1_555
N5_6 N6_6 1_555 1_555
N7_6 N8_6 1_555 1_555
N8_6 N9_6 1_555 1_555
N10_6 N11_6 1_555 1_555
N11_6 N12_6 1_555 1_555
N13_6 N14_6 1_555 1_555
N14_6 N15_6 1_555 1_555
N16_6 N17_6 1_555 1_555
N17_6 N18_6 1_555 1_555
Zn3_3 N9_7 1_555 1_555
C2_7 H2_7 1_555 1_555
C9_7 C14_7 1_555 1_555
C10_7 H10_7 1_555 1_555
C11_7 H11_7 1_555 1_555
H12_7 C11_7 1_555 1_555
H13_7 C11_7 1_555 1_555
C14_7 H15_7 1_555 1_555
H16_7 C14_7 1_555 1_555
H17_7 C14_7 1_555 1_555
C19_7 C31_7 1_555 1_555
C25_7 C10_7 1_555 1_555
C31_7 C9_7 1_555 1_555
H30_7 C31_7 1_555 1_555
C34_7 H31_7 1_555 1_555
C38_7 H36_7 1_555 1_555
C45_7 C2_7 1_555 1_555
C46_7 C38_7 1_555 1_555
C47_7 H40_7 1_555 1_555
H41_7 C47_7 1_555 1_555
H42_7 C47_7 1_555 1_555
C48_7 H43_7 1_555 1_555
H44_7 C48_7 1_555 1_555
H45_7 C48_7 1_555 1_555
C50_7 C48_7 1_555 1_555
C51_7 C47_7 1_555 1_555
C53_7 C9_7 1_555 1_555
C54_7 C53_7 1_555 1_555
H46_7 C54_7 1_555 1_555
H48_7 C54_7 1_555 1_555
C55_7 C10_7 1_555 1_555
C58_7 C2_7 1_555 1_555
C59_7 C38_7 1_555 1_555
C60_7 C59_7 1_555 1_555
H52_7 C60_7 1_555 1_555
H53_7 C60_7 1_555 1_555
H54_7 C60_7 1_555 1_555
C61_7 C58_7 1_555 1_555
H55_7 C61_7 1_555 1_555
H56_7 C61_7 1_555 1_555
H57_7 C61_7 1_555 1_555
C75_7 C50_7 1_555 1_555
H69_7 C75_7 1_555 1_555
C78_7 C19_7 1_555 1_555
N9_7 C19_7 1_555 1_555
N10_7 Zn3_3 1_555 1_555
N13_7 Zn3_3 1_555 1_555
O14_3 Zn3_3 1_555 1_555
C11_7 C55_7 1_555 1_555
C25_7 N13_7 1_555 1_555
C34_7 C53_7 1_555 1_555
C34_7 C78_7 1_555 1_555
C45_7 C46_7 1_555 1_555
C45_7 N10_7 1_555 1_555
C46_7 N12_7 1_555 1_555
C50_7 C51_7 1_555 1_555
C58_7 C59_7 1_555 1_555
C78_7 N7_7 1_555 1_555
N7_7 N8_7 1_555 1_555
N8_7 N9_7 1_555 1_555
N10_7 N11_7 1_555 1_555
N11_7 N12_7 1_555 1_555
C1_7 H1_7 1_555 1_555
C22_6 H23_6 1_555 1_555
C27_6 C22_6 1_555 1_555
H25_6 C27_6 1_555 1_555
C33_7 C27_6 1_555 1_555
C41_6 C44_6 1_555 1_555
C42_7 C1_7 1_555 1_555
H38_7 C42_7 1_555 1_555
C44_6 C1_7 1_555 1_555
H71_6 C77_6 1_555 1_555
H72_6 C77_6 1_555 1_555
O13_4 C41_6 1_555 1_555
O2_6 C41_6 1_555 1_555
O10_7 C33_7 1_555 1_555
C22_6 C44_6 1_555 1_555
C33_7 C42_7 1_555 1_555
C77_6 O10_7 1_555 1_555
Zn1_7 N3_7 1_555 1_555
Zn2_7 N2_7 1_555 1_555
Zn7_4 N1_7 1_555 1_555
Zn5_4 N6_7 1_555 1_555
C3_7 H3_7 1_555 1_555
C4_7 C69_7 1_555 1_555
C5_7 H4_7 1_555 1_555
C6_7 H5_7 1_555 1_555
C7_7 H6_7 1_555 1_555
H7_7 C7_7 1_555 1_555
H8_7 C7_7 1_555 1_555
C8_7 C3_7 1_555 1_555
H9_7 C8_7 1_555 1_555
C12_7 C6_7 1_555 1_555
H14_7 C12_7 1_555 1_555
C13_7 C15_7 1_555 1_555
C15_7 H18_7 1_555 1_555
C16_7 H19_7 1_555 1_555
C17_7 C26_7 1_555 1_555
C18_7 C16_7 1_555 1_555
C20_7 H20_7 1_555 1_555
H21_7 C20_7 1_555 1_555
C21_7 H22_7 1_555 1_555
C23_7 C20_7 1_555 1_555
C24_7 C5_7 1_555 1_555
C26_7 H24_7 1_555 1_555
C28_7 C23_7 1_555 1_555
H26_7 C28_7 1_555 1_555
H27_7 C28_7 1_555 1_555
C29_7 C8_7 1_555 1_555
C30_7 C23_7 1_555 1_555
H28_7 C30_7 1_555 1_555
H29_7 C30_7 1_555 1_555
C32_7 C7_7 1_555 1_555
C35_7 C39_7 1_555 1_555
C36_7 H32_7 1_555 1_555
H33_7 C36_7 1_555 1_555
H34_7 C36_7 1_555 1_555
C37_7 C5_7 1_555 1_555
H35_7 C37_7 1_555 1_555
C39_7 C21_7 1_555 1_555
C40_7 C35_7 1_555 1_555
H37_7 C40_7 1_555 1_555
C43_7 C24_7 1_555 1_555
H39_7 C43_7 1_555 1_555
C49_7 C32_7 1_555 1_555
C52_7 C3_7 1_555 1_555
C56_7 C15_7 1_555 1_555
C57_7 C56_7 1_555 1_555
H49_7 C57_7 1_555 1_555
H50_7 C57_7 1_555 1_555
H51_7 C57_7 1_555 1_555
C62_7 C63_7 1_555 1_555
C64_7 H58_7 1_555 1_555
H59_7 C64_7 1_555 1_555
H60_7 C64_7 1_555 1_555
C65_7 H61_7 1_555 1_555
C66_7 C65_7 1_555 1_555
C67_7 C64_7 1_555 1_555
C68_7 C67_7 1_555 1_555
H62_7 C68_7 1_555 1_555
C69_7 C16_7 1_555 1_555
H63_7 C69_7 1_555 1_555
C70_7 C18_7 1_555 1_555
H64_7 C70_7 1_555 1_555
C71_7 C4_7 1_555 1_555
H65_7 C71_7 1_555 1_555
C72_7 C52_7 1_555 1_555
C73_7 C66_7 1_555 1_555
H66_7 C73_7 1_555 1_555
H67_7 C73_7 1_555 1_555
H68_7 C73_7 1_555 1_555
C74_7 C4_7 1_555 1_555
H70_7 C76_7 1_555 1_555
C79_7 C68_7 1_555 1_555
C80_7 C65_7 1_555 1_555
C81_7 C24_7 1_555 1_555
N1_7 C39_7 1_555 1_555
N2_7 N1_7 1_555 1_555
N3_7 C35_7 1_555 1_555
N4_7 Zn1_7 1_555 1_555
N5_7 Zn2_7 1_555 1_555
N6_7 C79_7 1_555 1_555
N14_7 Zn2_7 1_555 1_555
N15_7 Zn1_7 1_555 1_555
N16_7 Zn7_4 1_555 1_555
N17_7 Zn2_7 1_555 1_555
N18_7 Zn5_4 1_555 1_555
O14_3 C74_7 1_555 1_555
O4_7 C74_7 1_555 1_555
O5_7 Zn1_7 1_555 1_555
O6_7 Zn1_7 1_555 1_555
O7_4 C72_7 1_555 1_555
O8_4 C72_7 1_555 1_555
O9_7 C17_7 1_555 1_555
O11_7 C28_7 1_555 1_555
O12_7 C18_7 1_555 1_555
Zn8_4 O7_4 1_555 1_555
O15_4 Zn5_4 1_555 1_555
C6_7 C52_7 1_555 1_555
C12_7 C29_7 1_555 1_555
C13_7 N15_7 1_555 1_555
C17_7 C37_7 1_555 1_555
C20_7 O9_7 1_555 1_555
C21_7 C32_7 1_555 1_555
C26_7 C43_7 1_555 1_555
C29_7 O11_7 1_555 1_555
C30_7 O12_7 1_555 1_555
C36_7 C49_7 1_555 1_555
C40_7 C49_7 1_555 1_555
C62_7 C76_7 1_555 1_555
C62_7 N18_7 1_555 1_555
C63_7 N16_7 1_555 1_555
C66_7 C67_7 1_555 1_555
C70_7 C71_7 1_555 1_555
C79_7 C80_7 1_555 1_555
C80_7 N4_7 1_555 1_555
C81_7 O5_7 1_555 1_555
C81_7 O6_7 1_555 1_555
N2_7 N3_7 1_555 1_555
N4_7 N5_7 1_555 1_555
N5_7 N6_7 1_555 1_555
N14_7 N15_7 1_555 1_555
N16_7 N17_7 1_555 1_555
N17_7 N18_7 1_555 1_555
O8_4 Zn8_4 1_555 1_555
C1_8 H1_8 1_555 1_555
C42_8 C1_8 1_555 1_555
H38_8 C42_8 1_555 1_555
O10_8 C33_8 1_555 1_555
C33_8 C42_8 1_555 1_555
C6_8 H5_8 1_555 1_555
C11_8 H11_8 1_555 1_555
H12_8 C11_8 1_555 1_555
H13_8 C11_8 1_555 1_555
C12_8 C6_8 1_555 1_555
H14_8 C12_8 1_555 1_555
C20_8 H20_8 1_555 1_555
H21_8 C20_8 1_555 1_555
H26_8 C28_8 1_555 1_555
H27_8 C28_8 1_555 1_555
H49_8 C57_8 1_555 1_555
H50_8 C57_8 1_555 1_555
C20_8 O9_8 1_555 1_555
C3_8 H3_8 1_555 1_555
C8_8 C3_8 1_555 1_555
H9_8 C8_8 1_555 1_555
C29_8 C8_8 1_555 1_555
C30_8 C23_8 1_555 1_555
H28_8 C30_8 1_555 1_555
H29_8 C30_8 1_555 1_555
C52_8 C3_8 1_555 1_555
C72_8 C52_8 1_555 1_555
O15_4 C72_8 1_555 1_555
C29_8 O11_8 1_555 1_555
C30_8 O12_8 1_555 1_555
Zn1_8 N3_8 1_555 1_555
Zn2_8 N2_8 1_555 1_555
Zn3_4 N9_8 1_555 1_555
Zn7_3 N1_8 1_555 1_555
Zn8_4 N6_8 1_555 1_555
C2_8 H2_8 1_555 1_555
C5_8 H4_8 1_555 1_555
C7_8 H6_8 1_555 1_555
H7_8 C7_8 1_555 1_555
H8_8 C7_8 1_555 1_555
C9_8 C14_8 1_555 1_555
C10_8 H10_8 1_555 1_555
C13_8 C15_8 1_555 1_555
C14_8 H15_8 1_555 1_555
H16_8 C14_8 1_555 1_555
H17_8 C14_8 1_555 1_555
C15_8 H18_8 1_555 1_555
C17_8 C26_8 1_555 1_555
C19_8 C31_8 1_555 1_555
C21_8 H22_8 1_555 1_555
C24_8 C5_8 1_555 1_555
C25_8 C10_8 1_555 1_555
C26_8 H24_8 1_555 1_555
C31_8 C9_8 1_555 1_555
H30_8 C31_8 1_555 1_555
C32_8 C7_8 1_555 1_555
C34_8 H31_8 1_555 1_555
C35_8 C39_8 1_555 1_555
C36_8 H32_8 1_555 1_555
H33_8 C36_8 1_555 1_555
H34_8 C36_8 1_555 1_555
C37_8 C5_8 1_555 1_555
H35_8 C37_8 1_555 1_555
C38_8 H36_8 1_555 1_555
C39_8 C21_8 1_555 1_555
C40_8 C35_8 1_555 1_555
H37_8 C40_8 1_555 1_555
C43_8 C24_8 1_555 1_555
H39_8 C43_8 1_555 1_555
C45_8 C2_8 1_555 1_555
C46_8 C38_8 1_555 1_555
C47_8 H40_8 1_555 1_555
H41_8 C47_8 1_555 1_555
H42_8 C47_8 1_555 1_555
C48_8 H43_8 1_555 1_555
H44_8 C48_8 1_555 1_555
H45_8 C48_8 1_555 1_555
C49_8 C32_8 1_555 1_555
C50_8 C48_8 1_555 1_555
C51_8 C47_8 1_555 1_555
C53_8 C9_8 1_555 1_555
C54_8 C53_8 1_555 1_555
H46_8 C54_8 1_555 1_555
H48_8 C54_8 1_555 1_555
C55_8 C10_8 1_555 1_555
C56_8 C15_8 1_555 1_555
C58_8 C2_8 1_555 1_555
C59_8 C38_8 1_555 1_555
C60_8 C59_8 1_555 1_555
H52_8 C60_8 1_555 1_555
H53_8 C60_8 1_555 1_555
H54_8 C60_8 1_555 1_555
C61_8 C58_8 1_555 1_555
H55_8 C61_8 1_555 1_555
H56_8 C61_8 1_555 1_555
H57_8 C61_8 1_555 1_555
C62_8 C63_8 1_555 1_555
C63_8 C75_8 1_555 1_555
C64_8 H58_8 1_555 1_555
H59_8 C64_8 1_555 1_555
H60_8 C64_8 1_555 1_555
C65_8 H61_8 1_555 1_555
C66_8 C65_8 1_555 1_555
C67_8 C64_8 1_555 1_555
C68_8 C67_8 1_555 1_555
H62_8 C68_8 1_555 1_555
C73_8 C66_8 1_555 1_555
H66_8 C73_8 1_555 1_555
H67_8 C73_8 1_555 1_555
H68_8 C73_8 1_555 1_555
C75_8 C50_8 1_555 1_555
H69_8 C75_8 1_555 1_555
C76_8 C51_8 1_555 1_555
H70_8 C76_8 1_555 1_555
C78_8 C19_8 1_555 1_555
C79_8 C68_8 1_555 1_555
C80_8 C65_8 1_555 1_555
C81_8 C24_8 1_555 1_555
N1_8 C39_8 1_555 1_555
N2_8 N1_8 1_555 1_555
N3_8 C35_8 1_555 1_555
N4_8 Zn1_8 1_555 1_555
N5_8 Zn2_8 1_555 1_555
N6_8 C79_8 1_555 1_555
N7_8 Zn8_4 1_555 1_555
N8_8 Zn2_8 1_555 1_555
N9_8 C19_8 1_555 1_555
N10_8 Zn3_4 1_555 1_555
N11_8 Zn2_8 1_555 1_555
N12_8 Zn7_3 1_555 1_555
N13_8 Zn3_4 1_555 1_555
N14_8 Zn2_8 1_555 1_555
N15_8 Zn1_8 1_555 1_555
N16_8 Zn7_3 1_555 1_555
N17_8 Zn2_8 1_555 1_555
N18_8 Zn8_4 1_555 1_555
O5_8 Zn1_8 1_555 1_555
O6_8 Zn1_8 1_555 1_555
O14_4 Zn3_4 1_555 1_555
C13_8 C25_8 1_555 1_555
C13_8 N15_8 1_555 1_555
C17_8 C37_8 1_555 1_555
C21_8 C32_8 1_555 1_555
C25_8 N13_8 1_555 1_555
C26_8 C43_8 1_555 1_555
C34_8 C53_8 1_555 1_555
C34_8 C78_8 1_555 1_555
C36_8 C49_8 1_555 1_555
C40_8 C49_8 1_555 1_555
C45_8 C46_8 1_555 1_555
C45_8 N10_8 1_555 1_555
C46_8 N12_8 1_555 1_555
C50_8 C51_8 1_555 1_555
C55_8 C56_8 1_555 1_555
C58_8 C59_8 1_555 1_555
C62_8 C76_8 1_555 1_555
C62_8 N18_8 1_555 1_555
C63_8 N16_8 1_555 1_555
C66_8 C67_8 1_555 1_555
C78_8 N7_8 1_555 1_555
C79_8 C80_8 1_555 1_555
C80_8 N4_8 1_555 1_555
C81_8 O5_8 1_555 1_555
C81_8 O6_8 1_555 1_555
N2_8 N3_8 1_555 1_555
N4_8 N5_8 1_555 1_555
N5_8 N6_8 1_555 1_555
N7_8 N8_8 1_555 1_555
N8_8 N9_8 1_555 1_555
N10_8 N11_8 1_555 1_555
N11_8 N12_8 1_555 1_555
N13_8 N14_8 1_555 1_555
N14_8 N15_8 1_555 1_555
N16_8 N17_8 1_555 1_555
N17_8 N18_8 1_555 1_555
C4_8 C69_8 1_555 1_555
C18_8 C16_8 1_555 1_555
C69_8 C16_8 1_555 1_555
H63_8 C69_8 1_555 1_555
C70_8 C18_8 1_555 1_555
H64_8 C70_8 1_555 1_555
C71_8 C4_8 1_555 1_555
H65_8 C71_8 1_555 1_555
C74_8 C4_8 1_555 1_555
O14_4 C74_8 1_555 1_555
O4_8 C74_8 1_555 1_555
C70_8 C71_8 1_555 1_555
C22_7 H23_7 1_555 1_555
C27_7 C22_7 1_555 1_555
H25_7 C27_7 1_555 1_555
C41_7 C44_7 1_555 1_555
H71_7 C77_7 1_555 1_555
H72_7 C77_7 1_555 1_555
O2_7 C41_7 1_555 1_555
C22_7 C44_7 1_555 1_555
C22_8 H23_8 1_555 1_555
C27_8 C22_8 1_555 1_555
H25_8 C27_8 1_555 1_555
C41_8 C44_8 1_555 1_555
H71_8 C77_8 1_555 1_555
H72_8 C77_8 1_555 1_555
O2_8 C41_8 1_555 1_555
C22_8 C44_8 1_555 1_555

#END
