
###############################################################################
#
# This file contains modified crystal structure data generated from the
# MOF subset of the Cambridge Structural Database (CSD) v543 
# hosted by the Cambridge Crystallographic Data Centre (CCDC).
#
# This work is licensed under the Creative Commons
# Attribution-NonCommercial-ShareAlike 4.0 International License.
# To view a copy of this license, visit
# http://creativecommons.org/licenses/by-nc-sa/4.0/
# or send a letter to
# Creative Commons, PO Box 1866, Mountain View, CA 94042, USA.
#
# CIF created using the CSD Python API on 29 September 2022
# The structure has been converted into the P1 space group
# The structure has a 3D framework
# The original CSD entry FAYPUS is in the monoclinic crystal system
# The framework has been calculated to contain at least 10.0% void space
# The void calculation uses a probe of radius 1.32A, grid spacing 0.4
#
###############################################################################

data_FAYPUS
_chemical_formula_moiety         '(C680 H640 N144 O124 Zn40)n'
_symmetry_cell_setting           triclinic
_symmetry_space_group_name_H-M   'P 1'
_symmetry_Int_Tables_number      1
_space_group_name_Hall           'P 1'
loop_
_symmetry_equiv_pos_site_id
_symmetry_equiv_pos_as_xyz
1 x,y,z
_cell_length_a                   41.9317(12)
_cell_length_b                   20.780(6)
_cell_length_c                   40.522(5)
_cell_angle_alpha                90
_cell_angle_beta                 120.090(5)
_cell_angle_gamma                90
_cell_volume                     30550.3
loop_
_atom_site_label
_atom_site_type_symbol
_atom_site_fract_x
_atom_site_fract_y
_atom_site_fract_z
Zn1 Zn 0.20069(3) 0.21584(5) 0.66031(3)
Zn2 Zn 0.23122(3) 0.07903(5) 0.63322(3)
Zn3 Zn 0.21517(4) 0.35574(5) 0.62011(3)
Zn4 Zn 0.10500(3) 0.19510(5) 0.62624(3)
Zn5 Zn 0.24725(4) 0.23117(6) 0.76063(3)
C2 C 0.2716(3) 0.4571(5) 0.7038(3)
H1 H 0.2670 0.4783 0.6817
C3 C 0.2923(3) 0.4796(6) 0.7419(4)
C4 C 0.1766(4) 0.2051(5) 0.7827(3)
H2 H 0.1986 0.2186 0.8037
C5 C 0.3070(3) 0.5476(6) 0.7418(3)
H3 H 0.2965 0.5625 0.7160
H4 H 0.3334 0.5463 0.7535
H5 H 0.3002 0.5765 0.7557
C6 C 0.0882(6) 0.4457(8) 0.5573(4)
C7 C 0.3243(3) 0.4862(5) 0.8132(3)
H6 H 0.3298 0.4582 0.8343
H7 H 0.3100 0.5221 0.8135
H8 H 0.3469 0.5016 0.8154
C8 C 0.0406(3) 0.1794(9) 0.6048(3)
C9 C 0.0702(4) 0.5022(7) 0.5297(4)
H9 H 0.0890 0.5311 0.5318
H10 H 0.0540 0.5247 0.5360
H11 H 0.0564 0.4862 0.5041
C12 C 0.1319(3) 0.3615(5) 0.5891(2)
C14 C 0.2831(4) 0.1877(9) 0.5608(4)
C15 C 0.1038(4) 0.1721(5) 0.7157(3)
H16 H 0.0813 0.1610 0.6946
C16 C 0.3104(3) 0.0182(5) 0.7940(2)
H19 H 0.3556 0.0167 0.8502
C18 C 0.2632(3) 0.2936(6) 0.5745(3)
H20 H 0.2602 0.3380 0.5726
C19 C 0.1193(3) 0.0748(5) 0.5934(3)
C20 C 0.2757(2) 0.0995(4) 0.7501(2)
C21 C 0.1371(4) 0.1940(5) 0.7154(3)
C22 C 0.1469(5) 0.1812(7) 0.7844(4)
C23 C 0.3007(4) 0.1522(7) 0.5402(4)
H21 H 0.3216 0.1760 0.5434
H22 H 0.2829 0.1486 0.5135
H23 H 0.3084 0.1100 0.5509
C25 C 0.0604(5) 0.4054(9) 0.5518(4)
C28 C 0.0857(4) 0.0411(7) 0.5759(4)
H28 H 0.0656 0.0547 0.5778
C29 C 0.2974(3) 0.0778(5) 0.7892(2)
H29 H 0.3020 0.1041 0.8097
C32 C 0.0204(4) 0.4250(7) 0.5351(4)
H33 H 0.0065 0.3893 0.5363
H34 H 0.0105 0.4377 0.5090
H35 H 0.0188 0.4604 0.5494
C37 C 0.2947(4) 0.2920(7) 0.5372(4)
H40 H 0.3063 0.2611 0.5290
H41 H 0.3124 0.3238 0.5530
H42 H 0.2748 0.3124 0.5153
C39 C 0.3013(3) 0.4475(6) 0.7741(3)
N1 N 0.23381(19) 0.2982(3) 0.69310(19)
C40 C 0.1517(3) 0.1736(6) 0.8278(3)
H46 H 0.1768 0.1825 0.8469
H47 H 0.1455 0.1304 0.8310
H48 H 0.1356 0.2033 0.8304
N2 N 0.2385(2) 0.3515(4) 0.67799(18)
C52 C 0.2553(3) 0.1879(7) 0.5985(3)
C55 C 0.2700(2) 0.0601(4) 0.7209(2)
C59 C 0.2796(4) 0.2575(9) 0.5602(4)
C61 C 0.2678(3) 0.3605(5) 0.7391(3)
C62 C 0.1055(3) 0.3258(5) 0.5911(2)
C63 C 0.2717(3) 0.1499(6) 0.5810(3)
H65 H 0.2742 0.1054 0.5831
C64 C 0.2888(3) 0.3840(5) 0.7776(3)
H66 H 0.2932 0.3632 0.7999
C66 C 0.1686(3) 0.2062(4) 0.7431(3)
C69 C 0.1490(3) 0.0433(5) 0.5953(2)
C70 C 0.1243(4) 0.4244(6) 0.5699(3)
H69 H 0.1415 0.4475 0.5665
C73 C 0.2515(3) 0.2514(6) 0.5930(3)
C75 C 0.0675(4) 0.3451(6) 0.5740(3)
H71 H 0.0497 0.3227 0.5766
C76 C 0.2586(3) 0.3913(5) 0.7073(3)
C78 C 0.1129(6) 0.1710(7) 0.7563(5)
C79 C 0.0771(4) 0.1513(7) 0.7554(4)
H75 H 0.0574 0.1486 0.7294
H76 H 0.0711 0.1828 0.7687
H77 H 0.0804 0.1102 0.7675
N3 N 0.1781(2) 0.0825(4) 0.61517(18)
N4 N 0.1666(2) 0.1343(4) 0.62641(18)
N5 N 0.1309(2) 0.1267(4) 0.61391(19)
N6 N 0.1240(2) 0.2732(4) 0.61277(18)
N7 N 0.1588(2) 0.2810(3) 0.62222(17)
N8 N 0.1656(2) 0.3342(4) 0.60874(18)
N9 N 0.2325(2) 0.2705(4) 0.61116(18)
N10 N 0.2269(2) 0.2168(4) 0.62628(17)
N11 N 0.2396(2) 0.1627(4) 0.61719(19)
N12 N 0.24959(19) 0.0945(3) 0.68965(17)
N13 N 0.24154(19) 0.1486(3) 0.69951(18)
N14 N 0.25814(19) 0.1536(3) 0.73835(18)
N15 N 0.1949(2) 0.2188(3) 0.7326(2)
N16 N 0.1726(3) 0.2150(4) 0.6945(2)
N17 N 0.1395(2) 0.1999(3) 0.68238(19)
N18 N 0.2510(2) 0.3023(4) 0.7317(2)
O1 O 0.0574(3) 0.1255(5) 0.6195(2)
O2 O 0.0566(3) 0.2209(5) 0.6141(3)
C80 C 0.0005(2) 0.1706(8) 0.59677(17)
O17 O 0.2480(2) 0.2993(4) 0.8071(2)
O18 O 0.28123(19) 0.2109(4) 0.81494(17)
O19 O 0.26409(17) 0.0085(3) 0.63904(17)
O20 O 0.2368(2) 0.4108(4) 0.59756(19)
C1 C 0.8331(3) 0.2122(4) 0.5424(2)
C10 C 0.8553(3) 0.3394(5) 0.6850(3)
H12 H 0.8743 0.3100 0.7014
H13 H 0.8342 0.3338 0.6880
H14 H 0.8642 0.3828 0.6916
C24 C 0.8060(3) 0.3482(4) 0.5808(2)
C26 C 0.8202(2) 0.1889(4) 0.50425(19)
H24 H 0.7936 0.1843 0.4906
H25 H 0.8311 0.1473 0.5051
C27 C 0.8110(2) 0.2744(4) 0.53946(19)
H26 H 0.8142 0.3064 0.5239
H27 H 0.7849 0.2648 0.5280
C30 C 0.7726(3) 0.1082(5) 0.5602(2)
C31 C 0.8571(4) 0.3679(8) 0.4460(4)
H30 H 0.8757 0.3926 0.4668
H31 H 0.8659 0.3561 0.4291
H32 H 0.8351 0.3932 0.4325
C33 C 0.8714(3) 0.2241(4) 0.5626(2)
H36 H 0.8771 0.2591 0.5505
H37 H 0.8790 0.2368 0.5885
C35 C 0.7923(3) 0.1886(4) 0.4262(2)
H38 H 0.7858 0.1561 0.4375
C36 C 0.7402(3) 0.0801(6) 0.5931(2)
H39 H 0.7285 0.0915 0.6065
C42 C 0.7866(3) 0.2384(5) 0.3700(3)
C44 C 0.7772(3) 0.0473(6) 0.5552(3)
C46 C 0.7801(2) 0.3820(4) 0.5527(2)
H56 H 0.7733 0.3728 0.5276
C47 C 0.7434(3) 0.0158(6) 0.5869(2)
C48 C 0.8188(3) 0.3663(5) 0.6194(3)
C49 C 0.8170(2) 0.2323(4) 0.4489(2)
C50 C 0.8243(2) 0.1636(4) 0.5655(2)
H57 H 0.8363 0.1228 0.5673
H58 H 0.8330 0.1796 0.5911
C51 C 0.7751(3) 0.1890(4) 0.3849(2)
H59 H 0.7577 0.1585 0.3696
C53 C 0.8099(3) 0.2847(5) 0.3936(3)
H60 H 0.8160 0.3195 0.3835
C56 C 0.7497(3) 0.4959(5) 0.6047(3)
C58 C 0.7720(2) 0.4461(4) 0.5954(2)
C60 C 0.7541(3) 0.1292(5) 0.5798(3)
H64 H 0.7514 0.1725 0.5835
C67 C 0.7632(2) 0.4306(4) 0.5607(2)
H68 H 0.7445 0.4536 0.5406
C68 C 0.8245(3) 0.2797(5) 0.4331(3)
C71 C 0.7992(3) 0.4139(4) 0.6251(2)
H70 H 0.8047 0.4239 0.6498
C74 C 0.7682(3) 0.2455(6) 0.3261(3)
O3 O 0.89073(19) 0.1692(3) 0.56312(15)
O4 O 0.9233(5) 0.0665(9) 0.5616(4)
O5 O 0.7480(2) 0.2007(4) 0.3071(2)
O6 O 0.78123(19) 0.2891(4) 0.31494(17)
O7 O 0.8505(2) 0.3201(4) 0.4582(2)
O8 O 0.83097(16) 0.2345(3) 0.48588(16)
O9 O 0.76409(17) 0.5085(3) 0.63904(17)
O10 O 0.7273(2) 0.5232(3) 0.57777(18)
O11 O 0.82533(17) 0.2979(3) 0.57772(15)
O14 O 0.7938(2) 0.0348(4) 0.53494(19)
O15 O 0.78532(18) 0.1554(3) 0.54607(14)
O16 O 0.84502(19) 0.3270(3) 0.64585(19)
C81 C 0.9813(4) 0.1128(5) 0.5887(2)
H78 H 0.9933 0.0742 0.5907
C82 C 0.9441(4) 0.1129(4) 0.5776(2)
C83 C 0.9261(2) 0.1706(6) 0.57462(19)
C84 C 0.9453(4) 0.2284(4) 0.5827(2)
H79 H 0.9333 0.2670 0.5807
C85 C 0.9825(3) 0.2284(5) 0.5938(2)
H80 H 0.9954 0.2670 0.5992
Zn6 Zn 0.73122(3) 0.57903(5) 0.63322(3)
Zn8 Zn 0.74725(4) 0.26883(6) 0.26063(3)
C38 C 0.9425(8) 0.9967(15) 0.5798(7)
H43 H 0.9246 0.9630 0.5678
H44 H 0.9513 0.9967 0.6067
H45 H 0.9628 0.9897 0.5755
C41 C 0.7621(3) 0.9987(5) 0.5679(2)
H49 H 0.7647 0.9555 0.5635
C54 C 0.7263(4) 0.9587(7) 0.6008(3)
C57 C 0.7995(3) 0.9683(6) 0.5258(3)
H61 H 0.8120 0.9696 0.5114
H62 H 0.7761 0.9475 0.5110
H63 H 0.8142 0.9448 0.5490
O12 O 0.7093(2) 0.9783(4) 0.6134(2)
O13 O 0.7368(2) 0.9108(4) 0.59756(19)
Zn7 Zn 0.71517(4) 0.85574(5) 0.62011(3)
C5_2 C 0.8070(3) 0.0476(6) 0.7418(3)
H3_2 H 0.7965 0.0625 0.7160
H4_2 H 0.8334 0.0463 0.7535
H5_2 H 0.8002 0.0765 0.7557
H7_2 H 0.8100 0.0221 0.8135
H8_2 H 0.8469 0.0016 0.8154
C9_2 C 0.5702(4) 0.0022(7) 0.5297(4)
H9_2 H 0.5890 0.0311 0.5318
H10_2 H 0.5540 0.0247 0.5360
O10_2 O 0.2273(2) 0.0232(3) 0.57777(18)
Zn1_2 Zn 0.70069(3) 0.71584(5) 0.66031(3)
Zn4_2 Zn 0.60500(3) 0.69510(5) 0.62624(3)
Zn5_2 Zn 0.74725(4) 0.73117(6) 0.76063(3)
C1_2 C 0.3331(3) 0.7122(4) 0.5424(2)
C2_2 C 0.7716(3) 0.9571(5) 0.7038(3)
H1_2 H 0.7670 0.9783 0.6817
C3_2 C 0.7923(3) 0.9796(6) 0.7419(4)
C4_2 C 0.6766(4) 0.7051(5) 0.7827(3)
H2_2 H 0.6986 0.7186 0.8037
C6_2 C 0.5882(6) 0.9457(8) 0.5573(4)
C7_2 C 0.8243(3) 0.9862(5) 0.8132(3)
H6_2 H 0.8298 0.9582 0.8343
C8_2 C 0.5406(3) 0.6794(9) 0.6048(3)
H11_2 H 0.5564 0.9862 0.5041
C10_2 C 0.3553(3) 0.8394(5) 0.6850(3)
H12_2 H 0.3743 0.8100 0.7014
H13_2 H 0.3342 0.8338 0.6880
H14_2 H 0.3642 0.8828 0.6916
C11 C 0.7837(2) 0.4995(4) 0.7248(2)
H15 H 0.7790 0.4742 0.7039
C12_2 C 0.6319(3) 0.8615(5) 0.5891(2)
C13 C 0.8061(3) 0.4772(5) 0.7638(3)
C14_2 C 0.7831(4) 0.6877(9) 0.5608(4)
C15_2 C 0.6038(4) 0.6721(5) 0.7157(3)
H16_2 H 0.5813 0.6610 0.6946
C16_2 C 0.8104(3) 0.5182(5) 0.7940(2)
C17 C 0.8341(3) 0.4905(4) 0.8360(2)
H17 H 0.8414 0.4472 0.8349
H18 H 0.8195 0.4910 0.8482
H19_2 H 0.8556 0.5167 0.8502
C18_2 C 0.7632(3) 0.7936(6) 0.5745(3)
H20_2 H 0.7602 0.8380 0.5726
C19_2 C 0.6193(3) 0.5748(5) 0.5934(3)
C20_2 C 0.7757(2) 0.5995(4) 0.7501(2)
C21_2 C 0.6371(4) 0.6940(5) 0.7154(3)
C22_2 C 0.6469(5) 0.6812(7) 0.7844(4)
C23_2 C 0.8007(4) 0.6522(7) 0.5402(4)
H21_2 H 0.8216 0.6760 0.5434
H22_2 H 0.7829 0.6486 0.5135
H23_2 H 0.8084 0.6100 0.5509
C24_2 C 0.3060(3) 0.8482(4) 0.5808(2)
C25_2 C 0.5604(5) 0.9054(9) 0.5518(4)
C26_2 C 0.3202(2) 0.6889(4) 0.50425(19)
H24_2 H 0.2936 0.6843 0.4906
H25_2 H 0.3311 0.6473 0.5051
C27_2 C 0.3110(2) 0.7744(4) 0.53946(19)
H26_2 H 0.3142 0.8064 0.5239
H27_2 H 0.2849 0.7648 0.5280
C28_2 C 0.5857(4) 0.5411(7) 0.5759(4)
H28_2 H 0.5656 0.5547 0.5778
C29_2 C 0.7974(3) 0.5778(5) 0.7892(2)
H29_2 H 0.8020 0.6041 0.8097
C30_2 C 0.2726(3) 0.6082(5) 0.5602(2)
C31_2 C 0.3571(4) 0.8679(8) 0.4460(4)
H30_2 H 0.3757 0.8926 0.4668
H31_2 H 0.3659 0.8561 0.4291
H32_2 H 0.3351 0.8932 0.4325
C32_2 C 0.5204(4) 0.9250(7) 0.5351(4)
H33_2 H 0.5065 0.8893 0.5363
H34_2 H 0.5105 0.9377 0.5090
H35_2 H 0.5188 0.9604 0.5494
C33_2 C 0.3714(3) 0.7241(4) 0.5626(2)
H36_2 H 0.3771 0.7591 0.5505
H37_2 H 0.3790 0.7368 0.5885
C34 C 0.5845(6) 0.4882(11) 0.5564(5)
C35_2 C 0.2923(3) 0.6886(4) 0.4262(2)
H38_2 H 0.2858 0.6561 0.4375
C36_2 C 0.2402(3) 0.5801(6) 0.5931(2)
H39_2 H 0.2285 0.5915 0.6065
C37_2 C 0.7947(4) 0.7920(7) 0.5372(4)
H40_2 H 0.8063 0.7611 0.5290
H41_2 H 0.8124 0.8238 0.5530
H42_2 H 0.7748 0.8124 0.5153
C38_2 C 0.4425(8) 0.4967(15) 0.5798(7)
H43_2 H 0.4246 0.4630 0.5678
H44_2 H 0.4513 0.4967 0.6067
H45_2 H 0.4628 0.4897 0.5755
C39_2 C 0.8013(3) 0.9475(6) 0.7741(3)
N1_2 N 0.73381(19) 0.7982(3) 0.69310(19)
C40_2 C 0.6517(3) 0.6736(6) 0.8278(3)
H46_2 H 0.6768 0.6825 0.8469
H47_2 H 0.6455 0.6304 0.8310
H48_2 H 0.6356 0.7033 0.8304
C41_2 C 0.2621(3) 0.4987(5) 0.5679(2)
H49_2 H 0.2647 0.4555 0.5635
C42_2 C 0.2866(3) 0.7384(5) 0.3700(3)
C43 C 0.5454(5) 0.4476(7) 0.5312(4)
H50 H 0.5496 0.4117 0.5189
H51 H 0.5271 0.4753 0.5123
H52 H 0.5370 0.4322 0.5479
C44_2 C 0.2772(3) 0.5473(6) 0.5552(3)
C45 C 0.6101(4) 0.3912(7) 0.5360(4)
H53 H 0.6339 0.3752 0.5420
H54 H 0.5959 0.4004 0.5092
H55 H 0.5975 0.3593 0.5425
C46_2 C 0.2801(2) 0.8820(4) 0.5527(2)
H56_2 H 0.2733 0.8728 0.5276
C47_2 C 0.2434(3) 0.5158(6) 0.5869(2)
C48_2 C 0.3188(3) 0.8663(5) 0.6194(3)
C49_2 C 0.3170(2) 0.7323(4) 0.4489(2)
N2_2 N 0.7385(2) 0.8515(4) 0.67799(18)
C50_2 C 0.3243(2) 0.6636(4) 0.5655(2)
H57_2 H 0.3363 0.6228 0.5673
H58_2 H 0.3330 0.6796 0.5911
C51_2 C 0.2751(3) 0.6890(4) 0.3849(2)
H59_2 H 0.2577 0.6585 0.3696
C52_2 C 0.7553(3) 0.6879(7) 0.5985(3)
C53_2 C 0.3099(3) 0.7847(5) 0.3936(3)
H60_2 H 0.3160 0.8195 0.3835
C54_2 C 0.2263(4) 0.4587(7) 0.6008(3)
C55_2 C 0.7700(2) 0.5601(4) 0.7209(2)
C56_2 C 0.2497(3) 0.9959(5) 0.6047(3)
C57_2 C 0.2995(3) 0.4683(6) 0.5258(3)
H61_2 H 0.3120 0.4696 0.5114
H62_2 H 0.2761 0.4475 0.5110
H63_2 H 0.3142 0.4448 0.5490
C58_2 C 0.2720(2) 0.9461(4) 0.5954(2)
C59_2 C 0.7796(4) 0.7575(9) 0.5602(4)
C60_2 C 0.2541(3) 0.6292(5) 0.5798(3)
H64_2 H 0.2514 0.6725 0.5835
C61_2 C 0.7678(3) 0.8605(5) 0.7391(3)
C62_2 C 0.6055(3) 0.8258(5) 0.5911(2)
C63_2 C 0.7717(3) 0.6499(6) 0.5810(3)
H65_2 H 0.7742 0.6054 0.5831
C64_2 C 0.7888(3) 0.8840(5) 0.7776(3)
H66_2 H 0.7932 0.8632 0.7999
C65 C 0.6483(4) 0.4888(6) 0.5773(3)
H67 H 0.6689 0.4741 0.5766
C66_2 C 0.6686(3) 0.7062(4) 0.7431(3)
C67_2 C 0.2632(2) 0.9306(4) 0.5607(2)
H68_2 H 0.2445 0.9536 0.5406
C68_2 C 0.3245(3) 0.7797(5) 0.4331(3)
C69_2 C 0.6490(3) 0.5433(5) 0.5953(2)
C70_2 C 0.6243(4) 0.9244(6) 0.5699(3)
H69_2 H 0.6415 0.9475 0.5665
C71_2 C 0.2992(3) 0.9139(4) 0.6251(2)
H70_2 H 0.3047 0.9239 0.6498
C72 C 0.6149(6) 0.4555(9) 0.5597(4)
C73_2 C 0.7515(3) 0.7514(6) 0.5930(3)
C74_2 C 0.2682(3) 0.7455(6) 0.3261(3)
C75_2 C 0.5675(4) 0.8451(6) 0.5740(3)
H71_2 H 0.5497 0.8227 0.5766
C76_2 C 0.7586(3) 0.8913(5) 0.7073(3)
C77 C 0.8193(3) 0.4050(5) 0.7691(2)
H72 H 0.8134 0.3871 0.7449
H73 H 0.8072 0.3806 0.7798
H74 H 0.8455 0.4032 0.7861
C78_2 C 0.6129(6) 0.6710(7) 0.7563(5)
C79_2 C 0.5771(4) 0.6513(7) 0.7554(4)
H75_2 H 0.5574 0.6486 0.7294
H76_2 H 0.5711 0.6828 0.7687
H77_2 H 0.5804 0.6102 0.7675
N3_2 N 0.6781(2) 0.5825(4) 0.61517(18)
N4_2 N 0.6666(2) 0.6343(4) 0.62641(18)
N5_2 N 0.6309(2) 0.6267(4) 0.61391(19)
N6_2 N 0.6240(2) 0.7732(4) 0.61277(18)
N7_2 N 0.6588(2) 0.7810(3) 0.62222(17)
N8_2 N 0.6656(2) 0.8342(4) 0.60874(18)
N9_2 N 0.7325(2) 0.7705(4) 0.61116(18)
N10_2 N 0.7269(2) 0.7168(4) 0.62628(17)
N11_2 N 0.7396(2) 0.6627(4) 0.61719(19)
N12_2 N 0.74959(19) 0.5945(3) 0.68965(17)
N13_2 N 0.74154(19) 0.6486(3) 0.69951(18)
N14_2 N 0.75814(19) 0.6536(3) 0.73835(18)
N15_2 N 0.6949(2) 0.7188(3) 0.7326(2)
N16_2 N 0.6726(3) 0.7150(4) 0.6945(2)
N17_2 N 0.6395(2) 0.6999(3) 0.68238(19)
N18_2 N 0.7510(2) 0.8023(4) 0.7317(2)
O1_2 O 0.5574(3) 0.6255(5) 0.6195(2)
O2_2 O 0.5566(3) 0.7209(5) 0.6141(3)
O3_2 O 0.39073(19) 0.6692(3) 0.56312(15)
O4_2 O 0.4233(5) 0.5665(9) 0.5616(4)
O5_2 O 0.2480(2) 0.7007(4) 0.3071(2)
O6_2 O 0.28123(19) 0.7891(4) 0.31494(17)
O7_2 O 0.3505(2) 0.8201(4) 0.4582(2)
O8_2 O 0.33097(16) 0.7345(3) 0.48588(16)
O11_2 O 0.32533(17) 0.7979(3) 0.57772(15)
O12_2 O 0.2093(2) 0.4783(4) 0.6134(2)
O14_2 O 0.2938(2) 0.5348(4) 0.53494(19)
O15_2 O 0.28532(18) 0.6554(3) 0.54607(14)
O16_2 O 0.34502(19) 0.8270(3) 0.64585(19)
C80_2 C 0.5005(2) 0.6706(8) 0.59677(17)
C81_2 C 0.4813(4) 0.6128(5) 0.5887(2)
H78_2 H 0.4933 0.5742 0.5907
C82_2 C 0.4441(4) 0.6129(4) 0.5776(2)
C83_2 C 0.4261(2) 0.6706(6) 0.57462(19)
C84_2 C 0.4453(4) 0.7284(4) 0.5827(2)
H79_2 H 0.4333 0.7670 0.5807
C85_2 C 0.4825(3) 0.7284(5) 0.5938(2)
H80_2 H 0.4954 0.7670 0.5992
Zn8_2 Zn 0.24725(4) 0.76883(6) 0.26063(3)
O17_2 O 0.7480(2) 0.7993(4) 0.8071(2)
O18_2 O 0.78123(19) 0.7109(4) 0.81494(17)
Zn1_3 Zn 0.20069(3) 0.78416(5) 0.16031(3)
Zn2_2 Zn 0.23122(3) 0.92097(5) 0.13322(3)
Zn3_2 Zn 0.21517(4) 0.64426(5) 0.12011(3)
Zn4_3 Zn 0.10500(3) 0.80490(5) 0.12624(3)
C2_3 C 0.2716(3) 0.5429(5) 0.2038(3)
H1_3 H 0.2670 0.5217 0.1817
C3_3 C 0.2923(3) 0.5204(6) 0.2419(4)
C4_3 C 0.1766(4) 0.7949(5) 0.2827(3)
H2_3 H 0.1986 0.7814 0.3037
C5_3 C 0.3070(3) 0.4524(6) 0.2418(3)
H3_3 H 0.2965 0.4375 0.2160
H4_3 H 0.3334 0.4537 0.2535
H5_3 H 0.3002 0.4235 0.2557
C6_3 C 0.0882(6) 0.5543(8) 0.0573(4)
C7_3 C 0.3243(3) 0.5138(5) 0.3132(3)
H6_3 H 0.3298 0.5418 0.3343
H7_3 H 0.3100 0.4779 0.3135
H8_3 H 0.3469 0.4984 0.3154
C8_3 C 0.0406(3) 0.8206(9) 0.1048(3)
C9_3 C 0.0702(4) 0.4978(7) 0.0297(4)
H9_3 H 0.0890 0.4689 0.0318
H10_3 H 0.0540 0.4753 0.0360
H11_3 H 0.0564 0.5138 0.0041
C12_3 C 0.1319(3) 0.6385(5) 0.0891(2)
C14_3 C 0.2831(4) 0.8123(9) 0.0608(4)
C15_3 C 0.1038(4) 0.8279(5) 0.2157(3)
H16_3 H 0.0813 0.8390 0.1946
C16_3 C 0.3104(3) 0.9818(5) 0.2940(2)
H19_3 H 0.3556 0.9833 0.3502
C18_3 C 0.2632(3) 0.7064(6) 0.0745(3)
H20_3 H 0.2602 0.6620 0.0726
C19_3 C 0.1193(3) 0.9252(5) 0.0934(3)
C20_3 C 0.2757(2) 0.9005(4) 0.2501(2)
C21_3 C 0.1371(4) 0.8060(5) 0.2154(3)
C22_3 C 0.1469(5) 0.8188(7) 0.2844(4)
C23_3 C 0.3007(4) 0.8478(7) 0.0402(4)
H21_3 H 0.3216 0.8240 0.0434
H22_3 H 0.2829 0.8514 0.0135
H23_3 H 0.3084 0.8900 0.0509
C25_3 C 0.0604(5) 0.5946(9) 0.0518(4)
C28_3 C 0.0857(4) 0.9589(7) 0.0759(4)
H28_3 H 0.0656 0.9453 0.0778
C29_3 C 0.2974(3) 0.9222(5) 0.2892(2)
H29_3 H 0.3020 0.8959 0.3097
C32_3 C 0.0204(4) 0.5750(7) 0.0351(4)
H33_3 H 0.0065 0.6107 0.0363
H34_3 H 0.0105 0.5623 0.0090
H35_3 H 0.0188 0.5396 0.0494
C37_3 C 0.2947(4) 0.7080(7) 0.0372(4)
H40_3 H 0.3063 0.7389 0.0290
H41_3 H 0.3124 0.6762 0.0530
H42_3 H 0.2748 0.6876 0.0153
C39_3 C 0.3013(3) 0.5525(6) 0.2741(3)
N1_3 N 0.23381(19) 0.7018(3) 0.19310(19)
C40_3 C 0.1517(3) 0.8264(6) 0.3278(3)
H46_3 H 0.1768 0.8175 0.3469
H47_3 H 0.1455 0.8696 0.3310
H48_3 H 0.1356 0.7967 0.3304
N2_3 N 0.2385(2) 0.6485(4) 0.17799(18)
C52_3 C 0.2553(3) 0.8121(7) 0.0985(3)
C55_3 C 0.2700(2) 0.9399(4) 0.2209(2)
C59_3 C 0.2796(4) 0.7425(9) 0.0602(4)
C61_3 C 0.2678(3) 0.6395(5) 0.2391(3)
C62_3 C 0.1055(3) 0.6742(5) 0.0911(2)
C63_3 C 0.2717(3) 0.8501(6) 0.0810(3)
H65_3 H 0.2742 0.8946 0.0831
C64_3 C 0.2888(3) 0.6160(5) 0.2776(3)
H66_3 H 0.2932 0.6368 0.2999
C66_3 C 0.1686(3) 0.7938(4) 0.2431(3)
C69_3 C 0.1490(3) 0.9567(5) 0.0953(2)
C70_3 C 0.1243(4) 0.5756(6) 0.0699(3)
H69_3 H 0.1415 0.5525 0.0665
C73_3 C 0.2515(3) 0.7486(6) 0.0930(3)
C75_3 C 0.0675(4) 0.6549(6) 0.0740(3)
H71_3 H 0.0497 0.6773 0.0766
C76_3 C 0.2586(3) 0.6087(5) 0.2073(3)
C78_3 C 0.1129(6) 0.8290(7) 0.2563(5)
C79_3 C 0.0771(4) 0.8487(7) 0.2554(4)
H75_3 H 0.0574 0.8514 0.2294
H76_3 H 0.0711 0.8172 0.2687
H77_3 H 0.0804 0.8898 0.2675
N3_3 N 0.1781(2) 0.9175(4) 0.11517(18)
N4_3 N 0.1666(2) 0.8657(4) 0.12641(18)
N5_3 N 0.1309(2) 0.8733(4) 0.11391(19)
N6_3 N 0.1240(2) 0.7268(4) 0.11277(18)
N7_3 N 0.1588(2) 0.7190(3) 0.12222(17)
N8_3 N 0.1656(2) 0.6658(4) 0.10874(18)
N9_3 N 0.2325(2) 0.7295(4) 0.11116(18)
N10_3 N 0.2269(2) 0.7832(4) 0.12628(17)
N11_3 N 0.2396(2) 0.8373(4) 0.11719(19)
N12_3 N 0.24959(19) 0.9055(3) 0.18965(17)
N13_3 N 0.24154(19) 0.8514(3) 0.19951(18)
N14_3 N 0.25814(19) 0.8464(3) 0.23835(18)
N15_3 N 0.1949(2) 0.7812(3) 0.2326(2)
N16_3 N 0.1726(3) 0.7850(4) 0.1945(2)
N17_3 N 0.1395(2) 0.8001(3) 0.18238(19)
N18_3 N 0.2510(2) 0.6977(4) 0.2317(2)
O1_3 O 0.0574(3) 0.8745(5) 0.1195(2)
O2_3 O 0.0566(3) 0.7791(5) 0.1141(3)
C80_3 C 0.0005(2) 0.8294(8) 0.09677(17)
O19_2 O 0.26409(17) 0.9915(3) 0.13904(17)
O20_2 O 0.2368(2) 0.5892(4) 0.09756(19)
C38_3 C 0.9425(8) 0.0033(15) 0.0798(7)
H43_3 H 0.9246 0.0370 0.0678
H44_3 H 0.9513 0.0033 0.1067
H45_3 H 0.9628 0.0103 0.0755
C41_3 C 0.7621(3) 0.0013(5) 0.0679(2)
H49_3 H 0.7647 0.0445 0.0635
C54_3 C 0.7263(4) 0.0413(7) 0.1008(3)
C57_3 C 0.7995(3) 0.0317(6) 0.0258(3)
H61_3 H 0.8120 0.0304 0.0114
H62_3 H 0.7761 0.0525 0.0110
H63_3 H 0.8142 0.0552 0.0490
O12_3 O 0.7093(2) 0.0217(4) 0.1134(2)
O13_2 O 0.7368(2) 0.0892(4) 0.09756(19)
Zn7_2 Zn 0.71517(4) 0.14426(5) 0.12011(3)
C1_3 C 0.8331(3) 0.7878(4) 0.0424(2)
C10_3 C 0.8553(3) 0.6606(5) 0.1850(3)
H12_3 H 0.8743 0.6900 0.2014
H13_3 H 0.8342 0.6662 0.1880
H14_3 H 0.8642 0.6172 0.1916
C24_3 C 0.8060(3) 0.6518(4) 0.0808(2)
C26_3 C 0.8202(2) 0.8111(4) 0.00425(19)
H25_3 H 0.8311 0.8527 0.0051
C27_3 C 0.8110(2) 0.7256(4) 0.03946(19)
H26_3 H 0.8142 0.6936 0.0239
H27_3 H 0.7849 0.7352 0.0280
C30_3 C 0.7726(3) 0.8918(5) 0.0602(2)
C33_3 C 0.8714(3) 0.7759(4) 0.0626(2)
H36_3 H 0.8771 0.7409 0.0505
H37_3 H 0.8790 0.7632 0.0885
C36_3 C 0.7402(3) 0.9199(6) 0.0931(2)
H39_3 H 0.7285 0.9085 0.1065
C44_3 C 0.7772(3) 0.9527(6) 0.0552(3)
C46_3 C 0.7801(2) 0.6180(4) 0.0527(2)
H56_3 H 0.7733 0.6272 0.0276
C47_3 C 0.7434(3) 0.9842(6) 0.0869(2)
C48_3 C 0.8188(3) 0.6337(5) 0.1194(3)
C50_3 C 0.8243(2) 0.8364(4) 0.0655(2)
H57_3 H 0.8363 0.8772 0.0673
H58_3 H 0.8330 0.8204 0.0911
C56_3 C 0.7497(3) 0.5041(5) 0.1047(3)
C58_3 C 0.7720(2) 0.5539(4) 0.0954(2)
C60_3 C 0.7541(3) 0.8708(5) 0.0798(3)
H64_3 H 0.7514 0.8275 0.0835
C67_3 C 0.7632(2) 0.5694(4) 0.0607(2)
H68_3 H 0.7445 0.5464 0.0406
C71_3 C 0.7992(3) 0.5861(4) 0.1251(2)
H70_3 H 0.8047 0.5761 0.1498
O3_3 O 0.89073(19) 0.8308(3) 0.06312(15)
O4_3 O 0.9233(5) 0.9335(9) 0.0616(4)
O9_2 O 0.76409(17) 0.4915(3) 0.13904(17)
O10_3 O 0.7273(2) 0.4768(3) 0.07777(18)
O11_3 O 0.82533(17) 0.7021(3) 0.07772(15)
O14_3 O 0.7938(2) 0.9652(4) 0.03494(19)
O15_3 O 0.78532(18) 0.8446(3) 0.04607(14)
O16_3 O 0.84502(19) 0.6730(3) 0.14585(19)
C81_3 C 0.9813(4) 0.8872(5) 0.0887(2)
H78_3 H 0.9933 0.9258 0.0907
C82_3 C 0.9441(4) 0.8871(4) 0.0776(2)
C83_3 C 0.9261(2) 0.8294(6) 0.07462(19)
C84_3 C 0.9453(4) 0.7716(4) 0.0827(2)
H79_3 H 0.9333 0.7330 0.0807
C85_3 C 0.9825(3) 0.7716(5) 0.0938(2)
H80_3 H 0.9954 0.7330 0.0992
Zn6_2 Zn 0.73122(3) 0.42097(5) 0.13322(3)
H24_3 H 0.7936 0.8157 0.9906
C31_3 C 0.8571(4) 0.6321(8) 0.9460(4)
H30_3 H 0.8757 0.6074 0.9668
H31_3 H 0.8659 0.6439 0.9291
H32_3 H 0.8351 0.6068 0.9325
C35_3 C 0.7923(3) 0.8114(4) 0.9262(2)
H38_3 H 0.7858 0.8439 0.9375
C42_3 C 0.7866(3) 0.7616(5) 0.8700(3)
C49_3 C 0.8170(2) 0.7677(4) 0.9489(2)
C51_3 C 0.7751(3) 0.8110(4) 0.8849(2)
H59_3 H 0.7577 0.8415 0.8696
C53_3 C 0.8099(3) 0.7153(5) 0.8936(3)
H60_3 H 0.8160 0.6805 0.8835
C68_3 C 0.8245(3) 0.7203(5) 0.9331(3)
C74_3 C 0.7682(3) 0.7545(6) 0.8261(3)
O7_3 O 0.8505(2) 0.6799(4) 0.9582(2)
O8_3 O 0.83097(16) 0.7655(3) 0.98588(16)
Zn1_4 Zn 0.70069(3) 0.28416(5) 0.16031(3)
Zn4_4 Zn 0.60500(3) 0.30490(5) 0.12624(3)
C1_4 C 0.3331(3) 0.2878(4) 0.0424(2)
C2_4 C 0.7716(3) 0.0429(5) 0.2038(3)
H1_4 H 0.7670 0.0217 0.1817
C3_4 C 0.7923(3) 0.0204(6) 0.2419(4)
C4_4 C 0.6766(4) 0.2949(5) 0.2827(3)
H2_4 H 0.6986 0.2814 0.3037
C6_4 C 0.5882(6) 0.0543(8) 0.0573(4)
C7_4 C 0.8243(3) 0.0138(5) 0.3132(3)
H6_4 H 0.8298 0.0418 0.3343
C8_4 C 0.5406(3) 0.3206(9) 0.1048(3)
H11_4 H 0.5564 0.0138 0.0041
C10_4 C 0.3553(3) 0.1606(5) 0.1850(3)
H12_4 H 0.3743 0.1900 0.2014
H13_4 H 0.3342 0.1662 0.1880
H14_4 H 0.3642 0.1172 0.1916
C11_2 C 0.7837(2) 0.5005(4) 0.2248(2)
H15_2 H 0.7790 0.5258 0.2039
C12_4 C 0.6319(3) 0.1385(5) 0.0891(2)
C13_2 C 0.8061(3) 0.5228(5) 0.2638(3)
C14_4 C 0.7831(4) 0.3123(9) 0.0608(4)
C15_4 C 0.6038(4) 0.3279(5) 0.2157(3)
H16_4 H 0.5813 0.3390 0.1946
C16_4 C 0.8104(3) 0.4818(5) 0.2940(2)
C17_2 C 0.8341(3) 0.5095(4) 0.3360(2)
H17_2 H 0.8414 0.5528 0.3349
H18_2 H 0.8195 0.5090 0.3482
H19_4 H 0.8556 0.4833 0.3502
C18_4 C 0.7632(3) 0.2064(6) 0.0745(3)
H20_4 H 0.7602 0.1620 0.0726
C19_4 C 0.6193(3) 0.4252(5) 0.0934(3)
C20_4 C 0.7757(2) 0.4005(4) 0.2501(2)
C21_4 C 0.6371(4) 0.3060(5) 0.2154(3)
C22_4 C 0.6469(5) 0.3188(7) 0.2844(4)
C23_4 C 0.8007(4) 0.3478(7) 0.0402(4)
H21_4 H 0.8216 0.3240 0.0434
H22_4 H 0.7829 0.3514 0.0135
H23_4 H 0.8084 0.3900 0.0509
C24_4 C 0.3060(3) 0.1518(4) 0.0808(2)
C25_4 C 0.5604(5) 0.0946(9) 0.0518(4)
C26_4 C 0.3202(2) 0.3111(4) 0.00425(19)
H25_4 H 0.3311 0.3527 0.0051
C27_4 C 0.3110(2) 0.2256(4) 0.03946(19)
H26_4 H 0.3142 0.1936 0.0239
H27_4 H 0.2849 0.2352 0.0280
C28_4 C 0.5857(4) 0.4589(7) 0.0759(4)
H28_4 H 0.5656 0.4453 0.0778
C29_4 C 0.7974(3) 0.4222(5) 0.2892(2)
H29_4 H 0.8020 0.3959 0.3097
C30_4 C 0.2726(3) 0.3918(5) 0.0602(2)
C32_4 C 0.5204(4) 0.0750(7) 0.0351(4)
H33_4 H 0.5065 0.1107 0.0363
H34_4 H 0.5105 0.0623 0.0090
H35_4 H 0.5188 0.0396 0.0494
C33_4 C 0.3714(3) 0.2759(4) 0.0626(2)
H36_4 H 0.3771 0.2409 0.0505
H37_4 H 0.3790 0.2632 0.0885
C34_2 C 0.5845(6) 0.5118(11) 0.0564(5)
C36_4 C 0.2402(3) 0.4199(6) 0.0931(2)
H39_4 H 0.2285 0.4085 0.1065
C37_4 C 0.7947(4) 0.2080(7) 0.0372(4)
H40_4 H 0.8063 0.2389 0.0290
H41_4 H 0.8124 0.1762 0.0530
H42_4 H 0.7748 0.1876 0.0153
C38_4 C 0.4425(8) 0.5033(15) 0.0798(7)
H43_4 H 0.4246 0.5370 0.0678
H44_4 H 0.4513 0.5033 0.1067
H45_4 H 0.4628 0.5103 0.0755
C39_4 C 0.8013(3) 0.0525(6) 0.2741(3)
N1_4 N 0.73381(19) 0.2018(3) 0.19310(19)
C40_4 C 0.6517(3) 0.3264(6) 0.3278(3)
H46_4 H 0.6768 0.3175 0.3469
H47_4 H 0.6455 0.3696 0.3310
H48_4 H 0.6356 0.2967 0.3304
C41_4 C 0.2621(3) 0.5013(5) 0.0679(2)
H49_4 H 0.2647 0.5445 0.0635
C43_2 C 0.5454(5) 0.5524(7) 0.0312(4)
H50_2 H 0.5496 0.5883 0.0189
H51_2 H 0.5271 0.5247 0.0123
H52_2 H 0.5370 0.5678 0.0479
C44_4 C 0.2772(3) 0.4527(6) 0.0552(3)
C45_2 C 0.6101(4) 0.6088(7) 0.0360(4)
H53_2 H 0.6339 0.6248 0.0420
H54_2 H 0.5959 0.5996 0.0092
H55_2 H 0.5975 0.6407 0.0425
C46_4 C 0.2801(2) 0.1180(4) 0.0527(2)
H56_4 H 0.2733 0.1272 0.0276
C47_4 C 0.2434(3) 0.4842(6) 0.0869(2)
C48_4 C 0.3188(3) 0.1337(5) 0.1194(3)
N2_4 N 0.7385(2) 0.1485(4) 0.17799(18)
C50_4 C 0.3243(2) 0.3364(4) 0.0655(2)
H57_4 H 0.3363 0.3772 0.0673
H58_4 H 0.3330 0.3204 0.0911
C52_4 C 0.7553(3) 0.3121(7) 0.0985(3)
C54_4 C 0.2263(4) 0.5413(7) 0.1008(3)
C55_4 C 0.7700(2) 0.4399(4) 0.2209(2)
C56_4 C 0.2497(3) 0.0041(5) 0.1047(3)
C57_4 C 0.2995(3) 0.5317(6) 0.0258(3)
H61_4 H 0.3120 0.5304 0.0114
H62_4 H 0.2761 0.5525 0.0110
H63_4 H 0.3142 0.5552 0.0490
C58_4 C 0.2720(2) 0.0539(4) 0.0954(2)
C59_4 C 0.7796(4) 0.2425(9) 0.0602(4)
C60_4 C 0.2541(3) 0.3708(5) 0.0798(3)
H64_4 H 0.2514 0.3275 0.0835
C61_4 C 0.7678(3) 0.1395(5) 0.2391(3)
C62_4 C 0.6055(3) 0.1742(5) 0.0911(2)
C63_4 C 0.7717(3) 0.3501(6) 0.0810(3)
H65_4 H 0.7742 0.3946 0.0831
C64_4 C 0.7888(3) 0.1160(5) 0.2776(3)
H66_4 H 0.7932 0.1368 0.2999
C65_2 C 0.6483(4) 0.5112(6) 0.0773(3)
H67_2 H 0.6689 0.5259 0.0766
C66_4 C 0.6686(3) 0.2938(4) 0.2431(3)
C67_4 C 0.2632(2) 0.0694(4) 0.0607(2)
H68_4 H 0.2445 0.0464 0.0406
C69_4 C 0.6490(3) 0.4567(5) 0.0953(2)
C70_4 C 0.6243(4) 0.0756(6) 0.0699(3)
H69_4 H 0.6415 0.0525 0.0665
C71_4 C 0.2992(3) 0.0861(4) 0.1251(2)
H70_4 H 0.3047 0.0761 0.1498
C72_2 C 0.6149(6) 0.5445(9) 0.0597(4)
C73_4 C 0.7515(3) 0.2486(6) 0.0930(3)
C75_4 C 0.5675(4) 0.1549(6) 0.0740(3)
H71_4 H 0.5497 0.1773 0.0766
C76_4 C 0.7586(3) 0.1087(5) 0.2073(3)
C77_2 C 0.8193(3) 0.5950(5) 0.2691(2)
H72_2 H 0.8134 0.6129 0.2449
H73_2 H 0.8072 0.6194 0.2798
H74_2 H 0.8455 0.5968 0.2861
C78_4 C 0.6129(6) 0.3290(7) 0.2563(5)
C79_4 C 0.5771(4) 0.3487(7) 0.2554(4)
H75_4 H 0.5574 0.3514 0.2294
H76_4 H 0.5711 0.3172 0.2687
H77_4 H 0.5804 0.3898 0.2675
N3_4 N 0.6781(2) 0.4175(4) 0.11517(18)
N4_4 N 0.6666(2) 0.3657(4) 0.12641(18)
N5_4 N 0.6309(2) 0.3733(4) 0.11391(19)
N6_4 N 0.6240(2) 0.2268(4) 0.11277(18)
N7_4 N 0.6588(2) 0.2190(3) 0.12222(17)
N8_4 N 0.6656(2) 0.1658(4) 0.10874(18)
N9_4 N 0.7325(2) 0.2295(4) 0.11116(18)
N10_4 N 0.7269(2) 0.2832(4) 0.12628(17)
N11_4 N 0.7396(2) 0.3373(4) 0.11719(19)
N12_4 N 0.74959(19) 0.4055(3) 0.18965(17)
N13_4 N 0.74154(19) 0.3514(3) 0.19951(18)
N14_4 N 0.75814(19) 0.3464(3) 0.23835(18)
N15_4 N 0.6949(2) 0.2812(3) 0.2326(2)
N16_4 N 0.6726(3) 0.2850(4) 0.1945(2)
N17_4 N 0.6395(2) 0.3001(3) 0.18238(19)
N18_4 N 0.7510(2) 0.1977(4) 0.2317(2)
O1_4 O 0.5574(3) 0.3745(5) 0.1195(2)
O2_4 O 0.5566(3) 0.2791(5) 0.1141(3)
O3_4 O 0.39073(19) 0.3308(3) 0.06312(15)
O4_4 O 0.4233(5) 0.4335(9) 0.0616(4)
O11_4 O 0.32533(17) 0.2021(3) 0.07772(15)
O12_4 O 0.2093(2) 0.5217(4) 0.1134(2)
O14_4 O 0.2938(2) 0.4652(4) 0.03494(19)
O15_4 O 0.28532(18) 0.3446(3) 0.04607(14)
O16_4 O 0.34502(19) 0.1730(3) 0.14585(19)
C80_4 C 0.5005(2) 0.3294(8) 0.09677(17)
C81_4 C 0.4813(4) 0.3872(5) 0.0887(2)
H78_4 H 0.4933 0.4258 0.0907
C82_4 C 0.4441(4) 0.3871(4) 0.0776(2)
C83_4 C 0.4261(2) 0.3294(6) 0.07462(19)
C84_4 C 0.4453(4) 0.2716(4) 0.0827(2)
H79_4 H 0.4333 0.2330 0.0807
C85_4 C 0.4825(3) 0.2716(5) 0.0938(2)
H80_4 H 0.4954 0.2330 0.0992
H24_4 H 0.2936 0.3157 0.9906
C31_4 C 0.3571(4) 0.1321(8) 0.9460(4)
H30_4 H 0.3757 0.1074 0.9668
H31_4 H 0.3659 0.1439 0.9291
H32_4 H 0.3351 0.1068 0.9325
C35_4 C 0.2923(3) 0.3114(4) 0.9262(2)
H38_4 H 0.2858 0.3439 0.9375
C42_4 C 0.2866(3) 0.2616(5) 0.8700(3)
C49_4 C 0.3170(2) 0.2677(4) 0.9489(2)
C51_4 C 0.2751(3) 0.3110(4) 0.8849(2)
H59_4 H 0.2577 0.3415 0.8696
C53_4 C 0.3099(3) 0.2153(5) 0.8936(3)
H60_4 H 0.3160 0.1805 0.8835
C68_4 C 0.3245(3) 0.2203(5) 0.9331(3)
C74_4 C 0.2682(3) 0.2545(6) 0.8261(3)
O7_4 O 0.3505(2) 0.1799(4) 0.9582(2)
O8_4 O 0.33097(16) 0.2655(3) 0.98588(16)
C5_4 C 0.8070(3) 0.9524(6) 0.2418(3)
H3_4 H 0.7965 0.9375 0.2160
H4_4 H 0.8334 0.9537 0.2535
H5_4 H 0.8002 0.9235 0.2557
H7_4 H 0.8100 0.9779 0.3135
H8_4 H 0.8469 0.9984 0.3154
C9_4 C 0.5702(4) 0.9978(7) 0.0297(4)
H9_4 H 0.5890 0.9689 0.0318
H10_4 H 0.5540 0.9753 0.0360
O10_4 O 0.2273(2) 0.9768(3) 0.07777(18)
C11_3 C 0.2837(2) 0.9995(4) 0.7248(2)
H15_3 H 0.2790 0.9742 0.7039
C13_3 C 0.3061(3) 0.9772(5) 0.7638(3)
C17_3 C 0.3341(3) 0.9905(4) 0.8360(2)
H17_3 H 0.3414 0.9472 0.8349
H18_3 H 0.3195 0.9910 0.8482
C34_3 C 0.0845(6) 0.9882(11) 0.5564(5)
C43_3 C 0.0454(5) 0.9476(7) 0.5312(4)
H50_3 H 0.0496 0.9117 0.5189
H51_3 H 0.0271 0.9753 0.5123
H52_3 H 0.0370 0.9322 0.5479
C45_3 C 0.1101(4) 0.8912(7) 0.5360(4)
H53_3 H 0.1339 0.8752 0.5420
H54_3 H 0.0959 0.9004 0.5092
H55_3 H 0.0975 0.8593 0.5425
C65_3 C 0.1483(4) 0.9888(6) 0.5773(3)
H67_3 H 0.1689 0.9741 0.5766
C72_3 C 0.1149(6) 0.9555(9) 0.5597(4)
C77_3 C 0.3193(3) 0.9050(5) 0.7691(2)
H72_3 H 0.3134 0.8871 0.7449
H73_3 H 0.3072 0.8806 0.7798
H74_3 H 0.3455 0.9032 0.7861
H24_5 H 0.2064 0.1843 0.0094
C31_5 C 0.1429(4) 0.3679(8) 0.0540(4)
H30_5 H 0.1243 0.3926 0.0332
H31_5 H 0.1341 0.3561 0.0709
H32_5 H 0.1649 0.3932 0.0675
C35_5 C 0.2077(3) 0.1886(4) 0.0738(2)
H38_5 H 0.2142 0.1561 0.0625
C42_5 C 0.2134(3) 0.2384(5) 0.1300(3)
C49_5 C 0.1830(2) 0.2323(4) 0.0511(2)
C51_5 C 0.2249(3) 0.1890(4) 0.1151(2)
H59_5 H 0.2423 0.1585 0.1304
C53_5 C 0.1901(3) 0.2847(5) 0.1064(3)
H60_5 H 0.1840 0.3195 0.1165
C68_5 C 0.1755(3) 0.2797(5) 0.0669(3)
C74_5 C 0.2318(3) 0.2455(6) 0.1739(3)
O5_3 O 0.2520(2) 0.2007(4) 0.1929(2)
O6_3 O 0.21877(19) 0.2891(4) 0.18506(17)
O7_5 O 0.1495(2) 0.3201(4) 0.0418(2)
O8_5 O 0.16903(16) 0.2345(3) 0.01412(16)
Zn8_3 Zn 0.25275(4) 0.26883(6) 0.23937(3)
C1_5 C 0.1669(3) 0.2122(4) 0.9576(2)
C10_5 C 0.1447(3) 0.3394(5) 0.8150(3)
H12_5 H 0.1257 0.3100 0.7986
H13_5 H 0.1658 0.3338 0.8120
H14_5 H 0.1358 0.3828 0.8084
C24_5 C 0.1940(3) 0.3482(4) 0.9192(2)
C26_5 C 0.1798(2) 0.1889(4) 0.99575(19)
H25_5 H 0.1689 0.1473 0.9949
C27_5 C 0.1890(2) 0.2744(4) 0.96054(19)
H26_5 H 0.1858 0.3064 0.9761
H27_5 H 0.2151 0.2648 0.9720
C30_5 C 0.2274(3) 0.1082(5) 0.9398(2)
C33_5 C 0.1286(3) 0.2241(4) 0.9374(2)
H36_5 H 0.1229 0.2591 0.9495
H37_5 H 0.1210 0.2368 0.9115
C36_5 C 0.2598(3) 0.0801(6) 0.9069(2)
H39_5 H 0.2715 0.0915 0.8935
C44_5 C 0.2228(3) 0.0473(6) 0.9448(3)
C46_5 C 0.2199(2) 0.3820(4) 0.9473(2)
H56_5 H 0.2267 0.3728 0.9724
C47_5 C 0.2566(3) 0.0158(6) 0.9131(2)
C48_5 C 0.1812(3) 0.3663(5) 0.8806(3)
C50_5 C 0.1757(2) 0.1636(4) 0.9345(2)
H57_5 H 0.1637 0.1228 0.9327
H58_5 H 0.1670 0.1796 0.9089
C56_5 C 0.2503(3) 0.4959(5) 0.8953(3)
C58_5 C 0.2280(2) 0.4461(4) 0.9046(2)
C60_5 C 0.2459(3) 0.1292(5) 0.9202(3)
H64_5 H 0.2486 0.1725 0.9165
C67_5 C 0.2368(2) 0.4306(4) 0.9393(2)
H68_5 H 0.2555 0.4536 0.9594
C71_5 C 0.2008(3) 0.4139(4) 0.8749(2)
H70_5 H 0.1953 0.4239 0.8502
O3_5 O 0.10927(19) 0.1692(3) 0.93688(15)
O4_5 O 0.0767(5) 0.0665(9) 0.9384(4)
O9_3 O 0.23591(17) 0.5085(3) 0.86096(17)
O10_5 O 0.2727(2) 0.5232(3) 0.92223(18)
O11_5 O 0.17467(17) 0.2979(3) 0.92228(15)
O14_5 O 0.2062(2) 0.0348(4) 0.96506(19)
O15_5 O 0.21468(18) 0.1554(3) 0.95393(14)
O16_5 O 0.15498(19) 0.3270(3) 0.85415(19)
C81_5 C 0.0187(4) 0.1128(5) 0.9113(2)
H78_5 H 0.0067 0.0742 0.9093
C82_5 C 0.0559(4) 0.1129(4) 0.9224(2)
C83_5 C 0.0739(2) 0.1706(6) 0.92538(19)
C84_5 C 0.0547(4) 0.2284(4) 0.9173(2)
H79_5 H 0.0667 0.2670 0.9193
C85_5 C 0.0175(3) 0.2284(5) 0.9062(2)
H80_5 H 0.0046 0.2670 0.9008
Zn6_3 Zn 0.26878(3) 0.57903(5) 0.86678(3)
C38_5 C 0.0575(8) 0.9967(15) 0.9202(7)
H43_5 H 0.0754 0.9630 0.9322
H44_5 H 0.0487 0.9967 0.8933
H45_5 H 0.0372 0.9897 0.9245
C41_5 C 0.2379(3) 0.9987(5) 0.9321(2)
H49_5 H 0.2353 0.9555 0.9365
C54_5 C 0.2737(4) 0.9587(7) 0.8992(3)
C57_5 C 0.2005(3) 0.9683(6) 0.9742(3)
H61_5 H 0.1880 0.9696 0.9886
H62_5 H 0.2239 0.9475 0.9890
H63_5 H 0.1858 0.9448 0.9510
O12_5 O 0.2907(2) 0.9783(4) 0.8866(2)
O13_3 O 0.2632(2) 0.9108(4) 0.90244(19)
Zn7_3 Zn 0.28483(4) 0.85574(5) 0.87989(3)
Zn1_5 Zn 0.79931(3) 0.21584(5) 0.83969(3)
Zn2_3 Zn 0.76878(3) 0.07903(5) 0.86678(3)
Zn3_3 Zn 0.78483(4) 0.35574(5) 0.87989(3)
Zn4_5 Zn 0.89500(3) 0.19510(5) 0.87376(3)
Zn5_3 Zn 0.75275(4) 0.23117(6) 0.73937(3)
C2_5 C 0.7284(3) 0.4571(5) 0.7962(3)
H1_5 H 0.7330 0.4783 0.8183
C3_5 C 0.7077(3) 0.4796(6) 0.7581(4)
C4_5 C 0.8234(4) 0.2051(5) 0.7173(3)
H2_5 H 0.8014 0.2186 0.6963
C5_5 C 0.6930(3) 0.5476(6) 0.7582(3)
H3_5 H 0.7035 0.5625 0.7840
H4_5 H 0.6666 0.5463 0.7465
H5_5 H 0.6998 0.5765 0.7443
C6_5 C 0.9118(6) 0.4457(8) 0.9427(4)
C7_5 C 0.6757(3) 0.4862(5) 0.6868(3)
H6_5 H 0.6702 0.4582 0.6657
H7_5 H 0.6900 0.5221 0.6865
H8_5 H 0.6531 0.5016 0.6846
C8_5 C 0.9594(3) 0.1794(9) 0.8952(3)
C9_5 C 0.9298(4) 0.5022(7) 0.9703(4)
H9_5 H 0.9110 0.5311 0.9682
H10_5 H 0.9460 0.5247 0.9640
H11_5 H 0.9436 0.4862 0.9959
C12_5 C 0.8681(3) 0.3615(5) 0.9109(2)
C14_5 C 0.7169(4) 0.1877(9) 0.9392(4)
C15_5 C 0.8962(4) 0.1721(5) 0.7843(3)
H16_5 H 0.9187 0.1610 0.8054
C16_5 C 0.6896(3) 0.0182(5) 0.7060(2)
H19_5 H 0.6444 0.0167 0.6498
C18_5 C 0.7368(3) 0.2936(6) 0.9255(3)
H20_5 H 0.7398 0.3380 0.9274
C19_5 C 0.8807(3) 0.0748(5) 0.9066(3)
C20_5 C 0.7243(2) 0.0995(4) 0.7499(2)
C21_5 C 0.8629(4) 0.1940(5) 0.7846(3)
C22_5 C 0.8531(5) 0.1812(7) 0.7156(4)
C23_5 C 0.6993(4) 0.1522(7) 0.9598(4)
H21_5 H 0.6784 0.1760 0.9566
H22_5 H 0.7171 0.1486 0.9865
H23_5 H 0.6916 0.1100 0.9491
C25_5 C 0.9396(5) 0.4054(9) 0.9482(4)
C28_5 C 0.9143(4) 0.0411(7) 0.9241(4)
H28_5 H 0.9344 0.0547 0.9222
C29_5 C 0.7026(3) 0.0778(5) 0.7108(2)
H29_5 H 0.6980 0.1041 0.6903
C32_5 C 0.9796(4) 0.4250(7) 0.9649(4)
H33_5 H 0.9935 0.3893 0.9637
H34_5 H 0.9895 0.4377 0.9910
H35_5 H 0.9812 0.4604 0.9506
C37_5 C 0.7053(4) 0.2920(7) 0.9628(4)
H40_5 H 0.6937 0.2611 0.9710
H41_5 H 0.6876 0.3238 0.9470
H42_5 H 0.7252 0.3124 0.9847
C39_5 C 0.6987(3) 0.4475(6) 0.7259(3)
N1_5 N 0.76619(19) 0.2982(3) 0.80690(19)
C40_5 C 0.8483(3) 0.1736(6) 0.6722(3)
H46_5 H 0.8232 0.1825 0.6531
H47_5 H 0.8545 0.1304 0.6690
H48_5 H 0.8644 0.2033 0.6696
N2_5 N 0.7615(2) 0.3515(4) 0.82201(18)
C52_5 C 0.7447(3) 0.1879(7) 0.9015(3)
C55_5 C 0.7300(2) 0.0601(4) 0.7791(2)
C59_5 C 0.7204(4) 0.2575(9) 0.9398(4)
C61_5 C 0.7322(3) 0.3605(5) 0.7609(3)
C62_5 C 0.8945(3) 0.3258(5) 0.9089(2)
C63_5 C 0.7283(3) 0.1499(6) 0.9190(3)
H65_5 H 0.7258 0.1054 0.9169
C64_5 C 0.7112(3) 0.3840(5) 0.7224(3)
H66_5 H 0.7068 0.3632 0.7001
C66_5 C 0.8314(3) 0.2062(4) 0.7569(3)
C69_5 C 0.8510(3) 0.0433(5) 0.9047(2)
C70_5 C 0.8757(4) 0.4244(6) 0.9301(3)
H69_5 H 0.8585 0.4475 0.9335
C73_5 C 0.7485(3) 0.2514(6) 0.9070(3)
C75_5 C 0.9325(4) 0.3451(6) 0.9260(3)
H71_5 H 0.9503 0.3227 0.9234
C76_5 C 0.7414(3) 0.3913(5) 0.7927(3)
C78_5 C 0.8871(6) 0.1710(7) 0.7437(5)
C79_5 C 0.9229(4) 0.1513(7) 0.7446(4)
H75_5 H 0.9426 0.1486 0.7706
H76_5 H 0.9289 0.1828 0.7313
H77_5 H 0.9196 0.1102 0.7325
N3_5 N 0.8219(2) 0.0825(4) 0.88483(18)
N4_5 N 0.8334(2) 0.1343(4) 0.87359(18)
N5_5 N 0.8691(2) 0.1267(4) 0.88609(19)
N6_5 N 0.8760(2) 0.2732(4) 0.88723(18)
N7_5 N 0.8412(2) 0.2810(3) 0.87778(17)
N8_5 N 0.8344(2) 0.3342(4) 0.89126(18)
N9_5 N 0.7675(2) 0.2705(4) 0.88884(18)
N10_5 N 0.7731(2) 0.2168(4) 0.87372(17)
N11_5 N 0.7604(2) 0.1627(4) 0.88281(19)
N12_5 N 0.75041(19) 0.0945(3) 0.81035(17)
N13_5 N 0.75846(19) 0.1486(3) 0.80049(18)
N14_5 N 0.74186(19) 0.1536(3) 0.76165(18)
N15_5 N 0.8051(2) 0.2188(3) 0.7674(2)
N16_5 N 0.8274(3) 0.2150(4) 0.8055(2)
N17_5 N 0.8605(2) 0.1999(3) 0.81762(19)
N18_5 N 0.7490(2) 0.3023(4) 0.7683(2)
O1_5 O 0.9426(3) 0.1255(5) 0.8805(2)
O2_5 O 0.9434(3) 0.2209(5) 0.8859(3)
C80_5 C 0.9995(2) 0.1706(8) 0.90323(17)
O17_3 O 0.7520(2) 0.2993(4) 0.6929(2)
O18_3 O 0.71877(19) 0.2109(4) 0.68506(17)
O19_3 O 0.73591(17) 0.0085(3) 0.86096(17)
O20_3 O 0.7632(2) 0.4108(4) 0.90244(19)
C5_6 C 0.1930(3) 0.0476(6) 0.7582(3)
H3_6 H 0.2035 0.0625 0.7840
H4_6 H 0.1666 0.0463 0.7465
H5_6 H 0.1998 0.0765 0.7443
H7_6 H 0.1900 0.0221 0.6865
H8_6 H 0.1531 0.0016 0.6846
C9_6 C 0.4298(4) 0.0022(7) 0.9703(4)
H9_6 H 0.4110 0.0311 0.9682
H10_6 H 0.4460 0.0247 0.9640
O10_6 O 0.7727(2) 0.0232(3) 0.92223(18)
H24_6 H 0.7064 0.6843 0.0094
C31_6 C 0.6429(4) 0.8679(8) 0.0540(4)
H30_6 H 0.6243 0.8926 0.0332
H31_6 H 0.6341 0.8561 0.0709
H32_6 H 0.6649 0.8932 0.0675
C35_6 C 0.7077(3) 0.6886(4) 0.0738(2)
H38_6 H 0.7142 0.6561 0.0625
C42_6 C 0.7134(3) 0.7384(5) 0.1300(3)
C49_6 C 0.6830(2) 0.7323(4) 0.0511(2)
C51_6 C 0.7249(3) 0.6890(4) 0.1151(2)
H59_6 H 0.7423 0.6585 0.1304
C53_6 C 0.6901(3) 0.7847(5) 0.1064(3)
H60_6 H 0.6840 0.8195 0.1165
C68_6 C 0.6755(3) 0.7797(5) 0.0669(3)
C74_6 C 0.7318(3) 0.7455(6) 0.1739(3)
O5_4 O 0.7520(2) 0.7007(4) 0.1929(2)
O6_4 O 0.71877(19) 0.7891(4) 0.18506(17)
O7_6 O 0.6495(2) 0.8201(4) 0.0418(2)
O8_6 O 0.66903(16) 0.7345(3) 0.01412(16)
Zn8_4 Zn 0.75275(4) 0.76883(6) 0.23937(3)
Zn1_6 Zn 0.29931(3) 0.71584(5) 0.83969(3)
Zn4_6 Zn 0.39500(3) 0.69510(5) 0.87376(3)
Zn5_4 Zn 0.25275(4) 0.73117(6) 0.73937(3)
C1_6 C 0.6669(3) 0.7122(4) 0.9576(2)
C2_6 C 0.2284(3) 0.9571(5) 0.7962(3)
H1_6 H 0.2330 0.9783 0.8183
C3_6 C 0.2077(3) 0.9796(6) 0.7581(4)
C4_6 C 0.3234(4) 0.7051(5) 0.7173(3)
H2_6 H 0.3014 0.7186 0.6963
C6_6 C 0.4118(6) 0.9457(8) 0.9427(4)
C7_6 C 0.1757(3) 0.9862(5) 0.6868(3)
H6_6 H 0.1702 0.9582 0.6657
C8_6 C 0.4594(3) 0.6794(9) 0.8952(3)
H11_6 H 0.4436 0.9862 0.9959
C10_6 C 0.6447(3) 0.8394(5) 0.8150(3)
H12_6 H 0.6257 0.8100 0.7986
H13_6 H 0.6658 0.8338 0.8120
H14_6 H 0.6358 0.8828 0.8084
C11_4 C 0.2163(2) 0.4995(4) 0.7752(2)
H15_4 H 0.2210 0.4742 0.7961
C12_6 C 0.3681(3) 0.8615(5) 0.9109(2)
C13_4 C 0.1939(3) 0.4772(5) 0.7362(3)
C14_6 C 0.2169(4) 0.6877(9) 0.9392(4)
C15_6 C 0.3962(4) 0.6721(5) 0.7843(3)
H16_6 H 0.4187 0.6610 0.8054
C16_6 C 0.1896(3) 0.5182(5) 0.7060(2)
C17_4 C 0.1659(3) 0.4905(4) 0.6640(2)
H17_4 H 0.1586 0.4472 0.6651
H18_4 H 0.1805 0.4910 0.6518
H19_6 H 0.1444 0.5167 0.6498
C18_6 C 0.2368(3) 0.7936(6) 0.9255(3)
H20_6 H 0.2398 0.8380 0.9274
C19_6 C 0.3807(3) 0.5748(5) 0.9066(3)
C20_6 C 0.2243(2) 0.5995(4) 0.7499(2)
C21_6 C 0.3629(4) 0.6940(5) 0.7846(3)
C22_6 C 0.3531(5) 0.6812(7) 0.7156(4)
C23_6 C 0.1993(4) 0.6522(7) 0.9598(4)
H21_6 H 0.1784 0.6760 0.9566
H22_6 H 0.2171 0.6486 0.9865
H23_6 H 0.1916 0.6100 0.9491
C24_6 C 0.6940(3) 0.8482(4) 0.9192(2)
C25_6 C 0.4396(5) 0.9054(9) 0.9482(4)
C26_6 C 0.6798(2) 0.6889(4) 0.99575(19)
H25_6 H 0.6689 0.6473 0.9949
C27_6 C 0.6890(2) 0.7744(4) 0.96054(19)
H26_6 H 0.6858 0.8064 0.9761
H27_6 H 0.7151 0.7648 0.9720
C28_6 C 0.4143(4) 0.5411(7) 0.9241(4)
H28_6 H 0.4344 0.5547 0.9222
C29_6 C 0.2026(3) 0.5778(5) 0.7108(2)
H29_6 H 0.1980 0.6041 0.6903
C30_6 C 0.7274(3) 0.6082(5) 0.9398(2)
C32_6 C 0.4796(4) 0.9250(7) 0.9649(4)
H33_6 H 0.4935 0.8893 0.9637
H34_6 H 0.4895 0.9377 0.9910
H35_6 H 0.4812 0.9604 0.9506
C33_6 C 0.6286(3) 0.7241(4) 0.9374(2)
H36_6 H 0.6229 0.7591 0.9495
H37_6 H 0.6210 0.7368 0.9115
C34_4 C 0.4155(6) 0.4882(11) 0.9436(5)
C36_6 C 0.7598(3) 0.5801(6) 0.9069(2)
H39_6 H 0.7715 0.5915 0.8935
C37_6 C 0.2053(4) 0.7920(7) 0.9628(4)
H40_6 H 0.1937 0.7611 0.9710
H41_6 H 0.1876 0.8238 0.9470
H42_6 H 0.2252 0.8124 0.9847
C38_6 C 0.5575(8) 0.4967(15) 0.9202(7)
H43_6 H 0.5754 0.4630 0.9322
H44_6 H 0.5487 0.4967 0.8933
H45_6 H 0.5372 0.4897 0.9245
C39_6 C 0.1987(3) 0.9475(6) 0.7259(3)
N1_6 N 0.26619(19) 0.7982(3) 0.80690(19)
C40_6 C 0.3483(3) 0.6736(6) 0.6722(3)
H46_6 H 0.3232 0.6825 0.6531
H47_6 H 0.3545 0.6304 0.6690
H48_6 H 0.3644 0.7033 0.6696
C41_6 C 0.7379(3) 0.4987(5) 0.9321(2)
H49_6 H 0.7353 0.4555 0.9365
C43_4 C 0.4546(5) 0.4476(7) 0.9688(4)
H50_4 H 0.4504 0.4117 0.9811
H51_4 H 0.4729 0.4753 0.9877
H52_4 H 0.4630 0.4322 0.9521
C44_6 C 0.7228(3) 0.5473(6) 0.9448(3)
C45_4 C 0.3899(4) 0.3912(7) 0.9640(4)
H53_4 H 0.3661 0.3752 0.9580
H54_4 H 0.4041 0.4004 0.9908
H55_4 H 0.4025 0.3593 0.9575
C46_6 C 0.7199(2) 0.8820(4) 0.9473(2)
H56_6 H 0.7267 0.8728 0.9724
C47_6 C 0.7566(3) 0.5158(6) 0.9131(2)
C48_6 C 0.6812(3) 0.8663(5) 0.8806(3)
N2_6 N 0.2615(2) 0.8515(4) 0.82201(18)
C50_6 C 0.6757(2) 0.6636(4) 0.9345(2)
H57_6 H 0.6637 0.6228 0.9327
H58_6 H 0.6670 0.6796 0.9089
C52_6 C 0.2447(3) 0.6879(7) 0.9015(3)
C54_6 C 0.7737(4) 0.4587(7) 0.8992(3)
C55_6 C 0.2300(2) 0.5601(4) 0.7791(2)
C56_6 C 0.7503(3) 0.9959(5) 0.8953(3)
C57_6 C 0.7005(3) 0.4683(6) 0.9742(3)
H61_6 H 0.6880 0.4696 0.9886
H62_6 H 0.7239 0.4475 0.9890
H63_6 H 0.6858 0.4448 0.9510
C58_6 C 0.7280(2) 0.9461(4) 0.9046(2)
C59_6 C 0.2204(4) 0.7575(9) 0.9398(4)
C60_6 C 0.7459(3) 0.6292(5) 0.9202(3)
H64_6 H 0.7486 0.6725 0.9165
C61_6 C 0.2322(3) 0.8605(5) 0.7609(3)
C62_6 C 0.3945(3) 0.8258(5) 0.9089(2)
C63_6 C 0.2283(3) 0.6499(6) 0.9190(3)
H65_6 H 0.2258 0.6054 0.9169
C64_6 C 0.2112(3) 0.8840(5) 0.7224(3)
H66_6 H 0.2068 0.8632 0.7001
C65_4 C 0.3517(4) 0.4888(6) 0.9227(3)
H67_4 H 0.3311 0.4741 0.9234
C66_6 C 0.3314(3) 0.7062(4) 0.7569(3)
C67_6 C 0.7368(2) 0.9306(4) 0.9393(2)
H68_6 H 0.7555 0.9536 0.9594
C69_6 C 0.3510(3) 0.5433(5) 0.9047(2)
C70_6 C 0.3757(4) 0.9244(6) 0.9301(3)
H69_6 H 0.3585 0.9475 0.9335
C71_6 C 0.7008(3) 0.9139(4) 0.8749(2)
H70_6 H 0.6953 0.9239 0.8502
C72_4 C 0.3851(6) 0.4555(9) 0.9403(4)
C73_6 C 0.2485(3) 0.7514(6) 0.9070(3)
C75_6 C 0.4325(4) 0.8451(6) 0.9260(3)
H71_6 H 0.4503 0.8227 0.9234
C76_6 C 0.2414(3) 0.8913(5) 0.7927(3)
C77_4 C 0.1807(3) 0.4050(5) 0.7309(2)
H72_4 H 0.1866 0.3871 0.7551
H73_4 H 0.1928 0.3806 0.7202
H74_4 H 0.1545 0.4032 0.7139
C78_6 C 0.3871(6) 0.6710(7) 0.7437(5)
C79_6 C 0.4229(4) 0.6513(7) 0.7446(4)
H75_6 H 0.4426 0.6486 0.7706
H76_6 H 0.4289 0.6828 0.7313
H77_6 H 0.4196 0.6102 0.7325
N3_6 N 0.3219(2) 0.5825(4) 0.88483(18)
N4_6 N 0.3334(2) 0.6343(4) 0.87359(18)
N5_6 N 0.3691(2) 0.6267(4) 0.88609(19)
N6_6 N 0.3760(2) 0.7732(4) 0.88723(18)
N7_6 N 0.3412(2) 0.7810(3) 0.87778(17)
N8_6 N 0.3344(2) 0.8342(4) 0.89126(18)
N9_6 N 0.2675(2) 0.7705(4) 0.88884(18)
N10_6 N 0.2731(2) 0.7168(4) 0.87372(17)
N11_6 N 0.2604(2) 0.6627(4) 0.88281(19)
N12_6 N 0.25041(19) 0.5945(3) 0.81035(17)
N13_6 N 0.25846(19) 0.6486(3) 0.80049(18)
N14_6 N 0.24186(19) 0.6536(3) 0.76165(18)
N15_6 N 0.3051(2) 0.7188(3) 0.7674(2)
N16_6 N 0.3274(3) 0.7150(4) 0.8055(2)
N17_6 N 0.3605(2) 0.6999(3) 0.81762(19)
N18_6 N 0.2490(2) 0.8023(4) 0.7683(2)
O1_6 O 0.4426(3) 0.6255(5) 0.8805(2)
O2_6 O 0.4434(3) 0.7209(5) 0.8859(3)
O3_6 O 0.60927(19) 0.6692(3) 0.93688(15)
O4_6 O 0.5767(5) 0.5665(9) 0.9384(4)
O11_6 O 0.67467(17) 0.7979(3) 0.92228(15)
O12_6 O 0.7907(2) 0.4783(4) 0.8866(2)
O14_6 O 0.7062(2) 0.5348(4) 0.96506(19)
O15_6 O 0.71468(18) 0.6554(3) 0.95393(14)
O16_6 O 0.65498(19) 0.8270(3) 0.85415(19)
C80_6 C 0.4995(2) 0.6706(8) 0.90323(17)
C81_6 C 0.5187(4) 0.6128(5) 0.9113(2)
H78_6 H 0.5067 0.5742 0.9093
C82_6 C 0.5559(4) 0.6129(4) 0.9224(2)
C83_6 C 0.5739(2) 0.6706(6) 0.92538(19)
C84_6 C 0.5547(4) 0.7284(4) 0.9173(2)
H79_6 H 0.5667 0.7670 0.9193
C85_6 C 0.5175(3) 0.7284(5) 0.9062(2)
H80_6 H 0.5046 0.7670 0.9008
O17_4 O 0.2520(2) 0.7993(4) 0.6929(2)
O18_4 O 0.21877(19) 0.7109(4) 0.68506(17)
C38_7 C 0.0575(8) 0.0033(15) 0.4202(7)
H43_7 H 0.0754 0.0370 0.4322
H44_7 H 0.0487 0.0033 0.3933
H45_7 H 0.0372 0.0103 0.4245
C41_7 C 0.2379(3) 0.0013(5) 0.4321(2)
H49_7 H 0.2353 0.0445 0.4365
C54_7 C 0.2737(4) 0.0413(7) 0.3992(3)
C57_7 C 0.2005(3) 0.0317(6) 0.4742(3)
H61_7 H 0.1880 0.0304 0.4886
H62_7 H 0.2239 0.0525 0.4890
H63_7 H 0.1858 0.0552 0.4510
O12_7 O 0.2907(2) 0.0217(4) 0.3866(2)
O13_4 O 0.2632(2) 0.0892(4) 0.40244(19)
Zn7_4 Zn 0.28483(4) 0.14426(5) 0.37989(3)
C1_7 C 0.1669(3) 0.7878(4) 0.4576(2)
C10_7 C 0.1447(3) 0.6606(5) 0.3150(3)
H12_7 H 0.1257 0.6900 0.2986
H13_7 H 0.1658 0.6662 0.3120
H14_7 H 0.1358 0.6172 0.3084
C24_7 C 0.1940(3) 0.6518(4) 0.4192(2)
C26_7 C 0.1798(2) 0.8111(4) 0.49575(19)
H24_7 H 0.2064 0.8157 0.5094
H25_7 H 0.1689 0.8527 0.4949
C27_7 C 0.1890(2) 0.7256(4) 0.46054(19)
H26_7 H 0.1858 0.6936 0.4761
H27_7 H 0.2151 0.7352 0.4720
C30_7 C 0.2274(3) 0.8918(5) 0.4398(2)
C31_7 C 0.1429(4) 0.6321(8) 0.5540(4)
H30_7 H 0.1243 0.6074 0.5332
H31_7 H 0.1341 0.6439 0.5709
H32_7 H 0.1649 0.6068 0.5675
C33_7 C 0.1286(3) 0.7759(4) 0.4374(2)
H36_7 H 0.1229 0.7409 0.4495
H37_7 H 0.1210 0.7632 0.4115
C35_7 C 0.2077(3) 0.8114(4) 0.5738(2)
H38_7 H 0.2142 0.8439 0.5625
C36_7 C 0.2598(3) 0.9199(6) 0.4069(2)
H39_7 H 0.2715 0.9085 0.3935
C42_7 C 0.2134(3) 0.7616(5) 0.6300(3)
C44_7 C 0.2228(3) 0.9527(6) 0.4448(3)
C46_7 C 0.2199(2) 0.6180(4) 0.4473(2)
H56_7 H 0.2267 0.6272 0.4724
C47_7 C 0.2566(3) 0.9842(6) 0.4131(2)
C48_7 C 0.1812(3) 0.6337(5) 0.3806(3)
C49_7 C 0.1830(2) 0.7677(4) 0.5511(2)
C50_7 C 0.1757(2) 0.8364(4) 0.4345(2)
H57_7 H 0.1637 0.8772 0.4327
H58_7 H 0.1670 0.8204 0.4089
C51_7 C 0.2249(3) 0.8110(4) 0.6151(2)
H59_7 H 0.2423 0.8415 0.6304
C53_7 C 0.1901(3) 0.7153(5) 0.6064(3)
H60_7 H 0.1840 0.6805 0.6165
C56_7 C 0.2503(3) 0.5041(5) 0.3953(3)
C58_7 C 0.2280(2) 0.5539(4) 0.4046(2)
C60_7 C 0.2459(3) 0.8708(5) 0.4202(3)
H64_7 H 0.2486 0.8275 0.4165
C67_7 C 0.2368(2) 0.5694(4) 0.4393(2)
H68_7 H 0.2555 0.5464 0.4594
C68_7 C 0.1755(3) 0.7203(5) 0.5669(3)
C71_7 C 0.2008(3) 0.5861(4) 0.3749(2)
H70_7 H 0.1953 0.5761 0.3502
C74_7 C 0.2318(3) 0.7545(6) 0.6739(3)
O3_7 O 0.10927(19) 0.8308(3) 0.43688(15)
O4_7 O 0.0767(5) 0.9335(9) 0.4384(4)
O7_7 O 0.1495(2) 0.6799(4) 0.5418(2)
O8_7 O 0.16903(16) 0.7655(3) 0.51412(16)
O9_4 O 0.23591(17) 0.4915(3) 0.36096(17)
O10_7 O 0.2727(2) 0.4768(3) 0.42223(18)
O11_7 O 0.17467(17) 0.7021(3) 0.42228(15)
O14_7 O 0.2062(2) 0.9652(4) 0.46506(19)
O15_7 O 0.21468(18) 0.8446(3) 0.45393(14)
O16_7 O 0.15498(19) 0.6730(3) 0.35415(19)
C81_7 C 0.0187(4) 0.8872(5) 0.4113(2)
H78_7 H 0.0067 0.9258 0.4093
C82_7 C 0.0559(4) 0.8871(4) 0.4224(2)
C83_7 C 0.0739(2) 0.8294(6) 0.42538(19)
C84_7 C 0.0547(4) 0.7716(4) 0.4173(2)
H79_7 H 0.0667 0.7330 0.4193
C85_7 C 0.0175(3) 0.7716(5) 0.4062(2)
H80_7 H 0.0046 0.7330 0.4008
Zn6_4 Zn 0.26878(3) 0.42097(5) 0.36678(3)
Zn1_7 Zn 0.79931(3) 0.78416(5) 0.33969(3)
Zn2_4 Zn 0.76878(3) 0.92097(5) 0.36678(3)
Zn3_4 Zn 0.78483(4) 0.64426(5) 0.37989(3)
Zn4_7 Zn 0.89500(3) 0.80490(5) 0.37376(3)
C2_7 C 0.7284(3) 0.5429(5) 0.2962(3)
H1_7 H 0.7330 0.5217 0.3183
C3_7 C 0.7077(3) 0.5204(6) 0.2581(4)
C4_7 C 0.8234(4) 0.7949(5) 0.2173(3)
H2_7 H 0.8014 0.7814 0.1963
C5_7 C 0.6930(3) 0.4524(6) 0.2582(3)
H3_7 H 0.7035 0.4375 0.2840
H4_7 H 0.6666 0.4537 0.2465
H5_7 H 0.6998 0.4235 0.2443
C6_7 C 0.9118(6) 0.5543(8) 0.4427(4)
C7_7 C 0.6757(3) 0.5138(5) 0.1868(3)
H6_7 H 0.6702 0.5418 0.1657
H7_7 H 0.6900 0.4779 0.1865
H8_7 H 0.6531 0.4984 0.1846
C8_7 C 0.9594(3) 0.8206(9) 0.3952(3)
C9_7 C 0.9298(4) 0.4978(7) 0.4703(4)
H9_7 H 0.9110 0.4689 0.4682
H10_7 H 0.9460 0.4753 0.4640
H11_7 H 0.9436 0.5138 0.4959
C12_7 C 0.8681(3) 0.6385(5) 0.4109(2)
C14_7 C 0.7169(4) 0.8123(9) 0.4392(4)
C15_7 C 0.8962(4) 0.8279(5) 0.2843(3)
H16_7 H 0.9187 0.8390 0.3054
C16_7 C 0.6896(3) 0.9818(5) 0.2060(2)
H19_7 H 0.6444 0.9833 0.1498
C18_7 C 0.7368(3) 0.7064(6) 0.4255(3)
H20_7 H 0.7398 0.6620 0.4274
C19_7 C 0.8807(3) 0.9252(5) 0.4066(3)
C20_7 C 0.7243(2) 0.9005(4) 0.2499(2)
C21_7 C 0.8629(4) 0.8060(5) 0.2846(3)
C22_7 C 0.8531(5) 0.8188(7) 0.2156(4)
C23_7 C 0.6993(4) 0.8478(7) 0.4598(4)
H21_7 H 0.6784 0.8240 0.4566
H22_7 H 0.7171 0.8514 0.4865
H23_7 H 0.6916 0.8900 0.4491
C25_7 C 0.9396(5) 0.5946(9) 0.4482(4)
C28_7 C 0.9143(4) 0.9589(7) 0.4241(4)
H28_7 H 0.9344 0.9453 0.4222
C29_7 C 0.7026(3) 0.9222(5) 0.2108(2)
H29_7 H 0.6980 0.8959 0.1903
C32_7 C 0.9796(4) 0.5750(7) 0.4649(4)
H33_7 H 0.9935 0.6107 0.4637
H34_7 H 0.9895 0.5623 0.4910
H35_7 H 0.9812 0.5396 0.4506
C37_7 C 0.7053(4) 0.7080(7) 0.4628(4)
H40_7 H 0.6937 0.7389 0.4710
H41_7 H 0.6876 0.6762 0.4470
H42_7 H 0.7252 0.6876 0.4847
C39_7 C 0.6987(3) 0.5525(6) 0.2259(3)
N1_7 N 0.76619(19) 0.7018(3) 0.30690(19)
C40_7 C 0.8483(3) 0.8264(6) 0.1722(3)
H46_7 H 0.8232 0.8175 0.1531
H47_7 H 0.8545 0.8696 0.1690
H48_7 H 0.8644 0.7967 0.1696
N2_7 N 0.7615(2) 0.6485(4) 0.32201(18)
C52_7 C 0.7447(3) 0.8121(7) 0.4015(3)
C55_7 C 0.7300(2) 0.9399(4) 0.2791(2)
C59_7 C 0.7204(4) 0.7425(9) 0.4398(4)
C61_7 C 0.7322(3) 0.6395(5) 0.2609(3)
C62_7 C 0.8945(3) 0.6742(5) 0.4089(2)
C63_7 C 0.7283(3) 0.8501(6) 0.4190(3)
H65_7 H 0.7258 0.8946 0.4169
C64_7 C 0.7112(3) 0.6160(5) 0.2224(3)
H66_7 H 0.7068 0.6368 0.2001
C66_7 C 0.8314(3) 0.7938(4) 0.2569(3)
C69_7 C 0.8510(3) 0.9567(5) 0.4047(2)
C70_7 C 0.8757(4) 0.5756(6) 0.4301(3)
H69_7 H 0.8585 0.5525 0.4335
C73_7 C 0.7485(3) 0.7486(6) 0.4070(3)
C75_7 C 0.9325(4) 0.6549(6) 0.4260(3)
H71_7 H 0.9503 0.6773 0.4234
C76_7 C 0.7414(3) 0.6087(5) 0.2927(3)
C78_7 C 0.8871(6) 0.8290(7) 0.2437(5)
C79_7 C 0.9229(4) 0.8487(7) 0.2446(4)
H75_7 H 0.9426 0.8514 0.2706
H76_7 H 0.9289 0.8172 0.2313
H77_7 H 0.9196 0.8898 0.2325
N3_7 N 0.8219(2) 0.9175(4) 0.38483(18)
N4_7 N 0.8334(2) 0.8657(4) 0.37359(18)
N5_7 N 0.8691(2) 0.8733(4) 0.38609(19)
N6_7 N 0.8760(2) 0.7268(4) 0.38723(18)
N7_7 N 0.8412(2) 0.7190(3) 0.37778(17)
N8_7 N 0.8344(2) 0.6658(4) 0.39126(18)
N9_7 N 0.7675(2) 0.7295(4) 0.38884(18)
N10_7 N 0.7731(2) 0.7832(4) 0.37372(17)
N11_7 N 0.7604(2) 0.8373(4) 0.38281(19)
N12_7 N 0.75041(19) 0.9055(3) 0.31035(17)
N13_7 N 0.75846(19) 0.8514(3) 0.30049(18)
N14_7 N 0.74186(19) 0.8464(3) 0.26165(18)
N15_7 N 0.8051(2) 0.7812(3) 0.2674(2)
N16_7 N 0.8274(3) 0.7850(4) 0.3055(2)
N17_7 N 0.8605(2) 0.8001(3) 0.31762(19)
N18_7 N 0.7490(2) 0.6977(4) 0.2683(2)
O1_7 O 0.9426(3) 0.8745(5) 0.3805(2)
O2_7 O 0.9434(3) 0.7791(5) 0.3859(3)
C80_7 C 0.9995(2) 0.8294(8) 0.40323(17)
O19_4 O 0.73591(17) 0.9915(3) 0.36096(17)
O20_4 O 0.7632(2) 0.5892(4) 0.40244(19)
Zn1_8 Zn 0.29931(3) 0.28416(5) 0.33969(3)
Zn4_8 Zn 0.39500(3) 0.30490(5) 0.37376(3)
C1_8 C 0.6669(3) 0.2878(4) 0.4576(2)
C2_8 C 0.2284(3) 0.0429(5) 0.2962(3)
H1_8 H 0.2330 0.0217 0.3183
C3_8 C 0.2077(3) 0.0204(6) 0.2581(4)
C4_8 C 0.3234(4) 0.2949(5) 0.2173(3)
H2_8 H 0.3014 0.2814 0.1963
C6_8 C 0.4118(6) 0.0543(8) 0.4427(4)
C7_8 C 0.1757(3) 0.0138(5) 0.1868(3)
H6_8 H 0.1702 0.0418 0.1657
C8_8 C 0.4594(3) 0.3206(9) 0.3952(3)
H11_8 H 0.4436 0.0138 0.4959
C10_8 C 0.6447(3) 0.1606(5) 0.3150(3)
H12_8 H 0.6257 0.1900 0.2986
H13_8 H 0.6658 0.1662 0.3120
H14_8 H 0.6358 0.1172 0.3084
C11_5 C 0.2163(2) 0.5005(4) 0.2752(2)
H15_5 H 0.2210 0.5258 0.2961
C12_8 C 0.3681(3) 0.1385(5) 0.4109(2)
C13_5 C 0.1939(3) 0.5228(5) 0.2362(3)
C14_8 C 0.2169(4) 0.3123(9) 0.4392(4)
C15_8 C 0.3962(4) 0.3279(5) 0.2843(3)
H16_8 H 0.4187 0.3390 0.3054
C16_8 C 0.1896(3) 0.4818(5) 0.2060(2)
C17_5 C 0.1659(3) 0.5095(4) 0.1640(2)
H17_5 H 0.1586 0.5528 0.1651
H18_5 H 0.1805 0.5090 0.1518
H19_8 H 0.1444 0.4833 0.1498
C18_8 C 0.2368(3) 0.2064(6) 0.4255(3)
H20_8 H 0.2398 0.1620 0.4274
C19_8 C 0.3807(3) 0.4252(5) 0.4066(3)
C20_8 C 0.2243(2) 0.4005(4) 0.2499(2)
C21_8 C 0.3629(4) 0.3060(5) 0.2846(3)
C22_8 C 0.3531(5) 0.3188(7) 0.2156(4)
C23_8 C 0.1993(4) 0.3478(7) 0.4598(4)
H21_8 H 0.1784 0.3240 0.4566
H22_8 H 0.2171 0.3514 0.4865
H23_8 H 0.1916 0.3900 0.4491
C24_8 C 0.6940(3) 0.1518(4) 0.4192(2)
C25_8 C 0.4396(5) 0.0946(9) 0.4482(4)
C26_8 C 0.6798(2) 0.3111(4) 0.49575(19)
H24_8 H 0.7064 0.3157 0.5094
H25_8 H 0.6689 0.3527 0.4949
C27_8 C 0.6890(2) 0.2256(4) 0.46054(19)
H26_8 H 0.6858 0.1936 0.4761
H27_8 H 0.7151 0.2352 0.4720
C28_8 C 0.4143(4) 0.4589(7) 0.4241(4)
H28_8 H 0.4344 0.4453 0.4222
C29_8 C 0.2026(3) 0.4222(5) 0.2108(2)
H29_8 H 0.1980 0.3959 0.1903
C30_8 C 0.7274(3) 0.3918(5) 0.4398(2)
C31_8 C 0.6429(4) 0.1321(8) 0.5540(4)
H30_8 H 0.6243 0.1074 0.5332
H31_8 H 0.6341 0.1439 0.5709
H32_8 H 0.6649 0.1068 0.5675
C32_8 C 0.4796(4) 0.0750(7) 0.4649(4)
H33_8 H 0.4935 0.1107 0.4637
H34_8 H 0.4895 0.0623 0.4910
H35_8 H 0.4812 0.0396 0.4506
C33_8 C 0.6286(3) 0.2759(4) 0.4374(2)
H36_8 H 0.6229 0.2409 0.4495
H37_8 H 0.6210 0.2632 0.4115
C34_5 C 0.4155(6) 0.5118(11) 0.4436(5)
C35_8 C 0.7077(3) 0.3114(4) 0.5738(2)
H38_8 H 0.7142 0.3439 0.5625
C36_8 C 0.7598(3) 0.4199(6) 0.4069(2)
H39_8 H 0.7715 0.4085 0.3935
C37_8 C 0.2053(4) 0.2080(7) 0.4628(4)
H40_8 H 0.1937 0.2389 0.4710
H41_8 H 0.1876 0.1762 0.4470
H42_8 H 0.2252 0.1876 0.4847
C38_8 C 0.5575(8) 0.5033(15) 0.4202(7)
H43_8 H 0.5754 0.5370 0.4322
H44_8 H 0.5487 0.5033 0.3933
H45_8 H 0.5372 0.5103 0.4245
C39_8 C 0.1987(3) 0.0525(6) 0.2259(3)
N1_8 N 0.26619(19) 0.2018(3) 0.30690(19)
C40_8 C 0.3483(3) 0.3264(6) 0.1722(3)
H46_8 H 0.3232 0.3175 0.1531
H47_8 H 0.3545 0.3696 0.1690
H48_8 H 0.3644 0.2967 0.1696
C41_8 C 0.7379(3) 0.5013(5) 0.4321(2)
H49_8 H 0.7353 0.5445 0.4365
C42_8 C 0.7134(3) 0.2616(5) 0.6300(3)
C43_5 C 0.4546(5) 0.5524(7) 0.4688(4)
H50_5 H 0.4504 0.5883 0.4811
H51_5 H 0.4729 0.5247 0.4877
H52_5 H 0.4630 0.5678 0.4521
C44_8 C 0.7228(3) 0.4527(6) 0.4448(3)
C45_5 C 0.3899(4) 0.6088(7) 0.4640(4)
H53_5 H 0.3661 0.6248 0.4580
H54_5 H 0.4041 0.5996 0.4908
H55_5 H 0.4025 0.6407 0.4575
C46_8 C 0.7199(2) 0.1180(4) 0.4473(2)
H56_8 H 0.7267 0.1272 0.4724
C47_8 C 0.7566(3) 0.4842(6) 0.4131(2)
C48_8 C 0.6812(3) 0.1337(5) 0.3806(3)
C49_8 C 0.6830(2) 0.2677(4) 0.5511(2)
N2_8 N 0.2615(2) 0.1485(4) 0.32201(18)
C50_8 C 0.6757(2) 0.3364(4) 0.4345(2)
H57_8 H 0.6637 0.3772 0.4327
H58_8 H 0.6670 0.3204 0.4089
C51_8 C 0.7249(3) 0.3110(4) 0.6151(2)
H59_8 H 0.7423 0.3415 0.6304
C52_8 C 0.2447(3) 0.3121(7) 0.4015(3)
C53_8 C 0.6901(3) 0.2153(5) 0.6064(3)
H60_8 H 0.6840 0.1805 0.6165
C54_8 C 0.7737(4) 0.5413(7) 0.3992(3)
C55_8 C 0.2300(2) 0.4399(4) 0.2791(2)
C56_8 C 0.7503(3) 0.0041(5) 0.3953(3)
C57_8 C 0.7005(3) 0.5317(6) 0.4742(3)
H61_8 H 0.6880 0.5304 0.4886
H62_8 H 0.7239 0.5525 0.4890
H63_8 H 0.6858 0.5552 0.4510
C58_8 C 0.7280(2) 0.0539(4) 0.4046(2)
C59_8 C 0.2204(4) 0.2425(9) 0.4398(4)
C60_8 C 0.7459(3) 0.3708(5) 0.4202(3)
H64_8 H 0.7486 0.3275 0.4165
C61_8 C 0.2322(3) 0.1395(5) 0.2609(3)
C62_8 C 0.3945(3) 0.1742(5) 0.4089(2)
C63_8 C 0.2283(3) 0.3501(6) 0.4190(3)
H65_8 H 0.2258 0.3946 0.4169
C64_8 C 0.2112(3) 0.1160(5) 0.2224(3)
H66_8 H 0.2068 0.1368 0.2001
C65_5 C 0.3517(4) 0.5112(6) 0.4227(3)
H67_5 H 0.3311 0.5259 0.4234
C66_8 C 0.3314(3) 0.2938(4) 0.2569(3)
C67_8 C 0.7368(2) 0.0694(4) 0.4393(2)
H68_8 H 0.7555 0.0464 0.4594
C68_8 C 0.6755(3) 0.2203(5) 0.5669(3)
C69_8 C 0.3510(3) 0.4567(5) 0.4047(2)
C70_8 C 0.3757(4) 0.0756(6) 0.4301(3)
H69_8 H 0.3585 0.0525 0.4335
C71_8 C 0.7008(3) 0.0861(4) 0.3749(2)
H70_8 H 0.6953 0.0761 0.3502
C72_5 C 0.3851(6) 0.5445(9) 0.4403(4)
C73_8 C 0.2485(3) 0.2486(6) 0.4070(3)
C74_8 C 0.7318(3) 0.2545(6) 0.6739(3)
C75_8 C 0.4325(4) 0.1549(6) 0.4260(3)
H71_8 H 0.4503 0.1773 0.4234
C76_8 C 0.2414(3) 0.1087(5) 0.2927(3)
C77_5 C 0.1807(3) 0.5950(5) 0.2309(2)
H72_5 H 0.1866 0.6129 0.2551
H73_5 H 0.1928 0.6194 0.2202
H74_5 H 0.1545 0.5968 0.2139
C78_8 C 0.3871(6) 0.3290(7) 0.2437(5)
C79_8 C 0.4229(4) 0.3487(7) 0.2446(4)
H75_8 H 0.4426 0.3514 0.2706
H76_8 H 0.4289 0.3172 0.2313
H77_8 H 0.4196 0.3898 0.2325
N3_8 N 0.3219(2) 0.4175(4) 0.38483(18)
N4_8 N 0.3334(2) 0.3657(4) 0.37359(18)
N5_8 N 0.3691(2) 0.3733(4) 0.38609(19)
N6_8 N 0.3760(2) 0.2268(4) 0.38723(18)
N7_8 N 0.3412(2) 0.2190(3) 0.37778(17)
N8_8 N 0.3344(2) 0.1658(4) 0.39126(18)
N9_8 N 0.2675(2) 0.2295(4) 0.38884(18)
N10_8 N 0.2731(2) 0.2832(4) 0.37372(17)
N11_8 N 0.2604(2) 0.3373(4) 0.38281(19)
N12_8 N 0.25041(19) 0.4055(3) 0.31035(17)
N13_8 N 0.25846(19) 0.3514(3) 0.30049(18)
N14_8 N 0.24186(19) 0.3464(3) 0.26165(18)
N15_8 N 0.3051(2) 0.2812(3) 0.2674(2)
N16_8 N 0.3274(3) 0.2850(4) 0.3055(2)
N17_8 N 0.3605(2) 0.3001(3) 0.31762(19)
N18_8 N 0.2490(2) 0.1977(4) 0.2683(2)
O1_8 O 0.4426(3) 0.3745(5) 0.3805(2)
O2_8 O 0.4434(3) 0.2791(5) 0.3859(3)
O3_8 O 0.60927(19) 0.3308(3) 0.43688(15)
O4_8 O 0.5767(5) 0.4335(9) 0.4384(4)
O7_8 O 0.6495(2) 0.1799(4) 0.5418(2)
O8_8 O 0.66903(16) 0.2655(3) 0.51412(16)
O11_8 O 0.67467(17) 0.2021(3) 0.42228(15)
O12_8 O 0.7907(2) 0.5217(4) 0.3866(2)
O14_8 O 0.7062(2) 0.4652(4) 0.46506(19)
O15_8 O 0.71468(18) 0.3446(3) 0.45393(14)
O16_8 O 0.65498(19) 0.1730(3) 0.35415(19)
C80_8 C 0.4995(2) 0.3294(8) 0.40323(17)
C81_8 C 0.5187(4) 0.3872(5) 0.4113(2)
H78_8 H 0.5067 0.4258 0.4093
C82_8 C 0.5559(4) 0.3871(4) 0.4224(2)
C83_8 C 0.5739(2) 0.3294(6) 0.42538(19)
C84_8 C 0.5547(4) 0.2716(4) 0.4173(2)
H79_8 H 0.5667 0.2330 0.4193
C85_8 C 0.5175(3) 0.2716(5) 0.4062(2)
H80_8 H 0.5046 0.2330 0.4008
C5_8 C 0.1930(3) 0.9524(6) 0.2582(3)
H3_8 H 0.2035 0.9375 0.2840
H4_8 H 0.1666 0.9537 0.2465
H5_8 H 0.1998 0.9235 0.2443
H7_8 H 0.1900 0.9779 0.1865
H8_8 H 0.1531 0.9984 0.1846
C9_8 C 0.4298(4) 0.9978(7) 0.4703(4)
H9_8 H 0.4110 0.9689 0.4682
H10_8 H 0.4460 0.9753 0.4640
O10_8 O 0.7727(2) 0.9768(3) 0.42223(18)
C11_6 C 0.7163(2) 0.9995(4) 0.7752(2)
H15_6 H 0.7210 0.9742 0.7961
C13_6 C 0.6939(3) 0.9772(5) 0.7362(3)
C17_6 C 0.6659(3) 0.9905(4) 0.6640(2)
H17_6 H 0.6586 0.9472 0.6651
H18_6 H 0.6805 0.9910 0.6518
C34_6 C 0.9155(6) 0.9882(11) 0.9436(5)
C43_6 C 0.9546(5) 0.9476(7) 0.9688(4)
H50_6 H 0.9504 0.9117 0.9811
H51_6 H 0.9729 0.9753 0.9877
H52_6 H 0.9630 0.9322 0.9521
C45_6 C 0.8899(4) 0.8912(7) 0.9640(4)
H53_6 H 0.8661 0.8752 0.9580
H54_6 H 0.9041 0.9004 0.9908
H55_6 H 0.9025 0.8593 0.9575
C65_6 C 0.8517(4) 0.9888(6) 0.9227(3)
H67_6 H 0.8311 0.9741 0.9234
C72_6 C 0.8851(6) 0.9555(9) 0.9403(4)
C77_6 C 0.6807(3) 0.9050(5) 0.7309(2)
H72_6 H 0.6866 0.8871 0.7551
H73_6 H 0.6928 0.8806 0.7202
H74_6 H 0.6545 0.9032 0.7139
C11_7 C 0.7163(2) 0.0005(4) 0.2752(2)
H15_7 H 0.7210 0.0258 0.2961
C13_7 C 0.6939(3) 0.0228(5) 0.2362(3)
C17_7 C 0.6659(3) 0.0095(4) 0.1640(2)
H17_7 H 0.6586 0.0528 0.1651
H18_7 H 0.6805 0.0090 0.1518
C34_7 C 0.9155(6) 0.0118(11) 0.4436(5)
C43_7 C 0.9546(5) 0.0524(7) 0.4688(4)
H50_7 H 0.9504 0.0883 0.4811
H51_7 H 0.9729 0.0247 0.4877
H52_7 H 0.9630 0.0678 0.4521
C45_7 C 0.8899(4) 0.1088(7) 0.4640(4)
H53_7 H 0.8661 0.1248 0.4580
H54_7 H 0.9041 0.0996 0.4908
H55_7 H 0.9025 0.1407 0.4575
C65_7 C 0.8517(4) 0.0112(6) 0.4227(3)
H67_7 H 0.8311 0.0259 0.4234
C72_7 C 0.8851(6) 0.0445(9) 0.4403(4)
C77_7 C 0.6807(3) 0.0950(5) 0.2309(2)
H72_7 H 0.6866 0.1129 0.2551
H73_7 H 0.6928 0.1194 0.2202
H74_7 H 0.6545 0.0968 0.2139
C11_8 C 0.2837(2) 0.0005(4) 0.2248(2)
H15_8 H 0.2790 0.0258 0.2039
C13_8 C 0.3061(3) 0.0228(5) 0.2638(3)
C17_8 C 0.3341(3) 0.0095(4) 0.3360(2)
H17_8 H 0.3414 0.0528 0.3349
H18_8 H 0.3195 0.0090 0.3482
C34_8 C 0.0845(6) 0.0118(11) 0.0564(5)
C43_8 C 0.0454(5) 0.0524(7) 0.0312(4)
H50_8 H 0.0496 0.0883 0.0189
H51_8 H 0.0271 0.0247 0.0123
H52_8 H 0.0370 0.0678 0.0479
C45_8 C 0.1101(4) 0.1088(7) 0.0360(4)
H53_8 H 0.1339 0.1248 0.0420
H54_8 H 0.0959 0.0996 0.0092
H55_8 H 0.0975 0.1407 0.0425
C65_8 C 0.1483(4) 0.0112(6) 0.0773(3)
H67_8 H 0.1689 0.0259 0.0766
C72_8 C 0.1149(6) 0.0445(9) 0.0597(4)
C77_8 C 0.3193(3) 0.0950(5) 0.2691(2)
H72_8 H 0.3134 0.1129 0.2449
H73_8 H 0.3072 0.1194 0.2798
H74_8 H 0.3455 0.0968 0.2861
loop_
_geom_bond_atom_site_label_1
_geom_bond_atom_site_label_2
_geom_bond_site_symmetry_1
_geom_bond_site_symmetry_2
Zn1 N1 1_555 1_555
Zn2 N3 1_555 1_555
Zn3 N2 1_555 1_555
Zn4 N5 1_555 1_555
Zn5 N14 1_555 1_555
C2 H1 1_555 1_555
C3 C2 1_555 1_555
C4 H2 1_555 1_555
C5 C3 1_555 1_555
H3 C5 1_555 1_555
H4 C5 1_555 1_555
H5 C5 1_555 1_555
C6 C9 1_555 1_555
C7 H6 1_555 1_555
H7 C7 1_555 1_555
H8 C7 1_555 1_555
C8 O1 1_555 1_555
C9 H9 1_555 1_555
H10 C9 1_555 1_555
H11 C9 1_555 1_555
C12 C62 1_555 1_555
C14 C23 1_555 1_555
C15 H16 1_555 1_555
C18 H20 1_555 1_555
C19 C28 1_555 1_555
C20 C29 1_555 1_555
C21 C15 1_555 1_555
C22 C4 1_555 1_555
C23 H21 1_555 1_555
H22 C23 1_555 1_555
H23 C23 1_555 1_555
C25 C6 1_555 1_555
C28 H28 1_555 1_555
C29 C16 1_555 1_555
H29 C29 1_555 1_555
C32 C25 1_555 1_555
H33 C32 1_555 1_555
H34 C32 1_555 1_555
H35 C32 1_555 1_555
C37 H40 1_555 1_555
H41 C37 1_555 1_555
H42 C37 1_555 1_555
C39 C3 1_555 1_555
N1 N2 1_555 1_555
C40 C22 1_555 1_555
H46 C40 1_555 1_555
H47 C40 1_555 1_555
H48 C40 1_555 1_555
N2 C76 1_555 1_555
C52 C63 1_555 1_555
C59 C14 1_555 1_555
C61 C64 1_555 1_555
C62 C75 1_555 1_555
C63 C14 1_555 1_555
H65 C63 1_555 1_555
C64 C39 1_555 1_555
H66 C64 1_555 1_555
C66 C4 1_555 1_555
C69 C19 1_555 1_555
C70 C6 1_555 1_555
H69 C70 1_555 1_555
C73 C18 1_555 1_555
C75 C25 1_555 1_555
H71 C75 1_555 1_555
C76 C2 1_555 1_555
C78 C15 1_555 1_555
C79 C78 1_555 1_555
H75 C79 1_555 1_555
H76 C79 1_555 1_555
H77 C79 1_555 1_555
N3 C69 1_555 1_555
N4 Zn1 1_555 1_555
N5 C19 1_555 1_555
N6 Zn4 1_555 1_555
N7 Zn1 1_555 1_555
N8 Zn3 1_555 1_555
N9 Zn3 1_555 1_555
N10 Zn1 1_555 1_555
N11 Zn2 1_555 1_555
N12 Zn2 1_555 1_555
N13 Zn1 1_555 1_555
N14 C20 1_555 1_555
N15 Zn5 1_555 1_555
N16 Zn1 1_555 1_555
N17 Zn4 1_555 1_555
N18 Zn5 1_555 1_555
O1 Zn4 1_555 1_555
O2 Zn4 1_555 1_555
C80 C8 1_555 1_555
O17 Zn5 1_555 1_555
O18 Zn5 1_555 1_555
O19 Zn2 1_555 1_555
O20 Zn3 1_555 1_555
C7 C39 1_555 1_555
C8 O2 1_555 1_555
C12 C70 1_555 1_555
C12 N8 1_555 1_555
C18 C59 1_555 1_555
C20 C55 1_555 1_555
C21 C66 1_555 1_555
C21 N17 1_555 1_555
C22 C78 1_555 1_555
C37 C59 1_555 1_555
N1 N18 1_555 1_555
C52 C73 1_555 1_555
C52 N11 1_555 1_555
C55 N12 1_555 1_555
C61 C76 1_555 1_555
C61 N18 1_555 1_555
C62 N6 1_555 1_555
C66 N15 1_555 1_555
C73 N9 1_555 1_555
N3 N4 1_555 1_555
N4 N5 1_555 1_555
N6 N7 1_555 1_555
N7 N8 1_555 1_555
N9 N10 1_555 1_555
N10 N11 1_555 1_555
N12 N13 1_555 1_555
N13 N14 1_555 1_555
N15 N16 1_555 1_555
N16 N17 1_555 1_555
C1 C26 1_555 1_555
C10 H12 1_555 1_555
H13 C10 1_555 1_555
H14 C10 1_555 1_555
C24 C46 1_555 1_555
C26 H24 1_555 1_555
H25 C26 1_555 1_555
C27 C1 1_555 1_555
H26 C27 1_555 1_555
H27 C27 1_555 1_555
C30 C44 1_555 1_555
C31 H30 1_555 1_555
H31 C31 1_555 1_555
H32 C31 1_555 1_555
C33 C1 1_555 1_555
H36 C33 1_555 1_555
H37 C33 1_555 1_555
C35 H38 1_555 1_555
C36 H39 1_555 1_555
C42 C51 1_555 1_555
C46 H56 1_555 1_555
C47 C36 1_555 1_555
C48 C24 1_555 1_555
C49 C35 1_555 1_555
C50 C1 1_555 1_555
H57 C50 1_555 1_555
H58 C50 1_555 1_555
C51 C35 1_555 1_555
H59 C51 1_555 1_555
C53 C42 1_555 1_555
H60 C53 1_555 1_555
C56 C58 1_555 1_555
C58 C67 1_555 1_555
C60 C30 1_555 1_555
H64 C60 1_555 1_555
C67 C46 1_555 1_555
H68 C67 1_555 1_555
C68 C49 1_555 1_555
C71 C48 1_555 1_555
H70 C71 1_555 1_555
C74 C42 1_555 1_555
O3 C33 1_555 1_555
O5 C74 1_555 1_555
O6 C74 1_555 1_555
O7 C31 1_555 1_555
O8 C26 1_555 1_555
O9 C56 1_555 1_555
O10 C56 1_555 1_555
O11 C24 1_555 1_555
O14 C44 1_555 1_555
O15 C30 1_555 1_555
O16 C10 1_555 1_555
H78 C81 1_555 1_555
C82 O4 1_555 1_555
C83 O3 1_555 1_555
C84 C83 1_555 1_555
H79 C84 1_555 1_555
H80 C85 1_555 1_555
Zn6 O9 1_555 1_555
Zn8 O5 1_555 1_555
C27 O11 1_555 1_555
C36 C60 1_555 1_555
C48 O16 1_555 1_555
C49 O8 1_555 1_555
C50 O15 1_555 1_555
C53 C68 1_555 1_555
C58 C71 1_555 1_555
C68 O7 1_555 1_555
O6 Zn8 1_555 1_555
C81 C82 1_555 1_555
C82 C83 1_555 1_555
C84 C85 1_555 1_555
C38 H43 1_555 1_555
H44 C38 1_555 1_555
H45 C38 1_555 1_555
C41 H49 1_555 1_555
C57 H61 1_555 1_555
H62 C57 1_555 1_555
H63 C57 1_555 1_555
O12 C54 1_555 1_555
O13 C54 1_555 1_555
Zn7 O13 1_555 1_555
H3_2 C5_2 1_555 1_555
H4_2 C5_2 1_555 1_555
H5_2 C5_2 1_555 1_555
C9_2 H9_2 1_555 1_555
H10_2 C9_2 1_555 1_555
Zn1_2 N1_2 1_555 1_555
Zn6 N3_2 1_555 1_555
Zn7 N2_2 1_555 1_555
Zn4_2 N5_2 1_555 1_555
Zn5_2 N14_2 1_555 1_555
C1_2 C26_2 1_555 1_555
C2_2 H1_2 1_555 1_555
C3_2 C2_2 1_555 1_555
C4_2 H2_2 1_555 1_555
C7_2 H6_2 1_555 1_555
C8_2 O1_2 1_555 1_555
C10_2 H12_2 1_555 1_555
H13_2 C10_2 1_555 1_555
H14_2 C10_2 1_555 1_555
C11 H15 1_555 1_555
C12_2 C62_2 1_555 1_555
C13 C11 1_555 1_555
C14_2 C23_2 1_555 1_555
C15_2 H16_2 1_555 1_555
C16_2 C13 1_555 1_555
C17 C16_2 1_555 1_555
H17 C17 1_555 1_555
H18 C17 1_555 1_555
H19_2 C17 1_555 1_555
C18_2 H20_2 1_555 1_555
C19_2 C28_2 1_555 1_555
C20_2 C29_2 1_555 1_555
C21_2 C15_2 1_555 1_555
C22_2 C4_2 1_555 1_555
C23_2 H21_2 1_555 1_555
H22_2 C23_2 1_555 1_555
H23_2 C23_2 1_555 1_555
C24_2 C46_2 1_555 1_555
C25_2 C6_2 1_555 1_555
C26_2 H24_2 1_555 1_555
H25_2 C26_2 1_555 1_555
C27_2 C1_2 1_555 1_555
H26_2 C27_2 1_555 1_555
H27_2 C27_2 1_555 1_555
C28_2 H28_2 1_555 1_555
C29_2 C16_2 1_555 1_555
H29_2 C29_2 1_555 1_555
C30_2 C44_2 1_555 1_555
C31_2 H30_2 1_555 1_555
H31_2 C31_2 1_555 1_555
H32_2 C31_2 1_555 1_555
C32_2 C25_2 1_555 1_555
H33_2 C32_2 1_555 1_555
H34_2 C32_2 1_555 1_555
H35_2 C32_2 1_555 1_555
C33_2 C1_2 1_555 1_555
H36_2 C33_2 1_555 1_555
H37_2 C33_2 1_555 1_555
C34 C28_2 1_555 1_555
C35_2 H38_2 1_555 1_555
C36_2 H39_2 1_555 1_555
C37_2 H40_2 1_555 1_555
H41_2 C37_2 1_555 1_555
H42_2 C37_2 1_555 1_555
C38_2 H43_2 1_555 1_555
H44_2 C38_2 1_555 1_555
H45_2 C38_2 1_555 1_555
C39_2 C3_2 1_555 1_555
N1_2 N2_2 1_555 1_555
C40_2 C22_2 1_555 1_555
H46_2 C40_2 1_555 1_555
H47_2 C40_2 1_555 1_555
H48_2 C40_2 1_555 1_555
C41_2 H49_2 1_555 1_555
C42_2 C51_2 1_555 1_555
C43 C34 1_555 1_555
H50 C43 1_555 1_555
H51 C43 1_555 1_555
H52 C43 1_555 1_555
C44_2 C41_2 1_555 1_555
C45 H53 1_555 1_555
H54 C45 1_555 1_555
H55 C45 1_555 1_555
C46_2 H56_2 1_555 1_555
C47_2 C36_2 1_555 1_555
C48_2 C24_2 1_555 1_555
C49_2 C35_2 1_555 1_555
N2_2 C76_2 1_555 1_555
C50_2 C1_2 1_555 1_555
H57_2 C50_2 1_555 1_555
H58_2 C50_2 1_555 1_555
C51_2 C35_2 1_555 1_555
H59_2 C51_2 1_555 1_555
C52_2 C63_2 1_555 1_555
C53_2 C42_2 1_555 1_555
H60_2 C53_2 1_555 1_555
C54_2 C47_2 1_555 1_555
C55_2 C11 1_555 1_555
C56_2 C58_2 1_555 1_555
C57_2 H61_2 1_555 1_555
H62_2 C57_2 1_555 1_555
H63_2 C57_2 1_555 1_555
C58_2 C67_2 1_555 1_555
C59_2 C14_2 1_555 1_555
C60_2 C30_2 1_555 1_555
H64_2 C60_2 1_555 1_555
C61_2 C64_2 1_555 1_555
C62_2 C75_2 1_555 1_555
C63_2 C14_2 1_555 1_555
H65_2 C63_2 1_555 1_555
C64_2 C39_2 1_555 1_555
H66_2 C64_2 1_555 1_555
C65 H67 1_555 1_555
C66_2 C4_2 1_555 1_555
C67_2 C46_2 1_555 1_555
H68_2 C67_2 1_555 1_555
C68_2 C49_2 1_555 1_555
C69_2 C19_2 1_555 1_555
C70_2 C6_2 1_555 1_555
H69_2 C70_2 1_555 1_555
C71_2 C48_2 1_555 1_555
H70_2 C71_2 1_555 1_555
C72 C34 1_555 1_555
C73_2 C18_2 1_555 1_555
C74_2 C42_2 1_555 1_555
C75_2 C25_2 1_555 1_555
H71_2 C75_2 1_555 1_555
C76_2 C2_2 1_555 1_555
C77 C13 1_555 1_555
H72 C77 1_555 1_555
H73 C77 1_555 1_555
H74 C77 1_555 1_555
C78_2 C15_2 1_555 1_555
C79_2 C78_2 1_555 1_555
H75_2 C79_2 1_555 1_555
H76_2 C79_2 1_555 1_555
H77_2 C79_2 1_555 1_555
N3_2 C69_2 1_555 1_555
N4_2 Zn1_2 1_555 1_555
N5_2 C19_2 1_555 1_555
N6_2 Zn4_2 1_555 1_555
N7_2 Zn1_2 1_555 1_555
N8_2 Zn7 1_555 1_555
N9_2 Zn7 1_555 1_555
N10_2 Zn1_2 1_555 1_555
N11_2 Zn6 1_555 1_555
N12_2 Zn6 1_555 1_555
N13_2 Zn1_2 1_555 1_555
N14_2 C20_2 1_555 1_555
N15_2 Zn5_2 1_555 1_555
N16_2 Zn1_2 1_555 1_555
N17_2 Zn4_2 1_555 1_555
N18_2 Zn5_2 1_555 1_555
O1_2 Zn4_2 1_555 1_555
O2_2 Zn4_2 1_555 1_555
O3_2 C33_2 1_555 1_555
O4_2 C38_2 1_555 1_555
O5_2 C74_2 1_555 1_555
O6_2 C74_2 1_555 1_555
O7_2 C31_2 1_555 1_555
O8_2 C26_2 1_555 1_555
O11_2 C24_2 1_555 1_555
O12_2 C54_2 1_555 1_555
O20 C54_2 1_555 1_555
O14_2 C44_2 1_555 1_555
O15_2 C30_2 1_555 1_555
O16_2 C10_2 1_555 1_555
C80_2 C8_2 1_555 1_555
C81_2 C80_2 1_555 1_555
H78_2 C81_2 1_555 1_555
C82_2 O4_2 1_555 1_555
C83_2 O3_2 1_555 1_555
C84_2 C83_2 1_555 1_555
H79_2 C84_2 1_555 1_555
C85_2 C80_2 1_555 1_555
H80_2 C85_2 1_555 1_555
Zn8_2 O5_2 1_555 1_555
O17_2 Zn5_2 1_555 1_555
O18_2 Zn5_2 1_555 1_555
C7_2 C39_2 1_555 1_555
C8_2 O2_2 1_555 1_555
C12_2 C70_2 1_555 1_555
C12_2 N8_2 1_555 1_555
C18_2 C59_2 1_555 1_555
C20_2 C55_2 1_555 1_555
C21_2 C66_2 1_555 1_555
C21_2 N17_2 1_555 1_555
C22_2 C78_2 1_555 1_555
C27_2 O11_2 1_555 1_555
C36_2 C60_2 1_555 1_555
C37_2 C59_2 1_555 1_555
N1_2 N18_2 1_555 1_555
C41_2 C47_2 1_555 1_555
C45 C72 1_555 1_555
C48_2 O16_2 1_555 1_555
C49_2 O8_2 1_555 1_555
C50_2 O15_2 1_555 1_555
C52_2 C73_2 1_555 1_555
C52_2 N11_2 1_555 1_555
C53_2 C68_2 1_555 1_555
C55_2 N12_2 1_555 1_555
C57_2 O14_2 1_555 1_555
C58_2 C71_2 1_555 1_555
C61_2 C76_2 1_555 1_555
C61_2 N18_2 1_555 1_555
C62_2 N6_2 1_555 1_555
C65 C69_2 1_555 1_555
C65 C72 1_555 1_555
C66_2 N15_2 1_555 1_555
C68_2 O7_2 1_555 1_555
C73_2 N9_2 1_555 1_555
N3_2 N4_2 1_555 1_555
N4_2 N5_2 1_555 1_555
N6_2 N7_2 1_555 1_555
N7_2 N8_2 1_555 1_555
N9_2 N10_2 1_555 1_555
N10_2 N11_2 1_555 1_555
N12_2 N13_2 1_555 1_555
N13_2 N14_2 1_555 1_555
N15_2 N16_2 1_555 1_555
N16_2 N17_2 1_555 1_555
O6_2 Zn8_2 1_555 1_555
C81_2 C82_2 1_555 1_555
C82_2 C83_2 1_555 1_555
C84_2 C85_2 1_555 1_555
Zn1_3 N1_3 1_555 1_555
Zn2_2 N3_3 1_555 1_555
Zn3_2 N2_3 1_555 1_555
Zn4_3 N5_3 1_555 1_555
Zn8_2 N14_3 1_555 1_555
C2_3 H1_3 1_555 1_555
C3_3 C2_3 1_555 1_555
C4_3 H2_3 1_555 1_555
C5_3 C3_3 1_555 1_555
H3_3 C5_3 1_555 1_555
H4_3 C5_3 1_555 1_555
H5_3 C5_3 1_555 1_555
C6_3 C9_3 1_555 1_555
C7_3 H6_3 1_555 1_555
H7_3 C7_3 1_555 1_555
H8_3 C7_3 1_555 1_555
C8_3 O1_3 1_555 1_555
C9_3 H9_3 1_555 1_555
H10_3 C9_3 1_555 1_555
H11_3 C9_3 1_555 1_555
C12_3 C62_3 1_555 1_555
C14_3 C23_3 1_555 1_555
C15_3 H16_3 1_555 1_555
C18_3 H20_3 1_555 1_555
C19_3 C28_3 1_555 1_555
C20_3 C29_3 1_555 1_555
C21_3 C15_3 1_555 1_555
C22_3 C4_3 1_555 1_555
C23_3 H21_3 1_555 1_555
H22_3 C23_3 1_555 1_555
H23_3 C23_3 1_555 1_555
C25_3 C6_3 1_555 1_555
C28_3 H28_3 1_555 1_555
C29_3 C16_3 1_555 1_555
H29_3 C29_3 1_555 1_555
C32_3 C25_3 1_555 1_555
H33_3 C32_3 1_555 1_555
H34_3 C32_3 1_555 1_555
H35_3 C32_3 1_555 1_555
C37_3 H40_3 1_555 1_555
H41_3 C37_3 1_555 1_555
H42_3 C37_3 1_555 1_555
C39_3 C3_3 1_555 1_555
N1_3 N2_3 1_555 1_555
C40_3 C22_3 1_555 1_555
H46_3 C40_3 1_555 1_555
H47_3 C40_3 1_555 1_555
H48_3 C40_3 1_555 1_555
N2_3 C76_3 1_555 1_555
C52_3 C63_3 1_555 1_555
C59_3 C14_3 1_555 1_555
C61_3 C64_3 1_555 1_555
C62_3 C75_3 1_555 1_555
C63_3 C14_3 1_555 1_555
H65_3 C63_3 1_555 1_555
C64_3 C39_3 1_555 1_555
H66_3 C64_3 1_555 1_555
C66_3 C4_3 1_555 1_555
C69_3 C19_3 1_555 1_555
C70_3 C6_3 1_555 1_555
H69_3 C70_3 1_555 1_555
C73_3 C18_3 1_555 1_555
C75_3 C25_3 1_555 1_555
H71_3 C75_3 1_555 1_555
C76_3 C2_3 1_555 1_555
C78_3 C15_3 1_555 1_555
C79_3 C78_3 1_555 1_555
H75_3 C79_3 1_555 1_555
H76_3 C79_3 1_555 1_555
H77_3 C79_3 1_555 1_555
N3_3 C69_3 1_555 1_555
N4_3 Zn1_3 1_555 1_555
N5_3 C19_3 1_555 1_555
N6_3 Zn4_3 1_555 1_555
N7_3 Zn1_3 1_555 1_555
N8_3 Zn3_2 1_555 1_555
N9_3 Zn3_2 1_555 1_555
N10_3 Zn1_3 1_555 1_555
N11_3 Zn2_2 1_555 1_555
N12_3 Zn2_2 1_555 1_555
N13_3 Zn1_3 1_555 1_555
N14_3 C20_3 1_555 1_555
N15_3 Zn8_2 1_555 1_555
N16_3 Zn1_3 1_555 1_555
N17_3 Zn4_3 1_555 1_555
N18_3 Zn8_2 1_555 1_555
O1_3 Zn4_3 1_555 1_555
O2_3 Zn4_3 1_555 1_555
C80_3 C8_3 1_555 1_555
O19_2 Zn2_2 1_555 1_555
O20_2 Zn3_2 1_555 1_555
C7_3 C39_3 1_555 1_555
C8_3 O2_3 1_555 1_555
C12_3 C70_3 1_555 1_555
C12_3 N8_3 1_555 1_555
C18_3 C59_3 1_555 1_555
C20_3 C55_3 1_555 1_555
C21_3 C66_3 1_555 1_555
C21_3 N17_3 1_555 1_555
C22_3 C78_3 1_555 1_555
C37_3 C59_3 1_555 1_555
N1_3 N18_3 1_555 1_555
C52_3 C73_3 1_555 1_555
C52_3 N11_3 1_555 1_555
C55_3 N12_3 1_555 1_555
C61_3 C76_3 1_555 1_555
C61_3 N18_3 1_555 1_555
C62_3 N6_3 1_555 1_555
C66_3 N15_3 1_555 1_555
C73_3 N9_3 1_555 1_555
N3_3 N4_3 1_555 1_555
N4_3 N5_3 1_555 1_555
N6_3 N7_3 1_555 1_555
N7_3 N8_3 1_555 1_555
N9_3 N10_3 1_555 1_555
N10_3 N11_3 1_555 1_555
N12_3 N13_3 1_555 1_555
N13_3 N14_3 1_555 1_555
N15_3 N16_3 1_555 1_555
N16_3 N17_3 1_555 1_555
C38_3 H43_3 1_555 1_555
H44_3 C38_3 1_555 1_555
H45_3 C38_3 1_555 1_555
C41_3 H49_3 1_555 1_555
C57_3 H61_3 1_555 1_555
H62_3 C57_3 1_555 1_555
H63_3 C57_3 1_555 1_555
O12_3 C54_3 1_555 1_555
O13_2 C54_3 1_555 1_555
Zn7_2 O13_2 1_555 1_555
C1_3 C26_3 1_555 1_555
C10_3 H12_3 1_555 1_555
H13_3 C10_3 1_555 1_555
H14_3 C10_3 1_555 1_555
C24_3 C46_3 1_555 1_555
H25_3 C26_3 1_555 1_555
C27_3 C1_3 1_555 1_555
H26_3 C27_3 1_555 1_555
H27_3 C27_3 1_555 1_555
C30_3 C44_3 1_555 1_555
C33_3 C1_3 1_555 1_555
H36_3 C33_3 1_555 1_555
H37_3 C33_3 1_555 1_555
C36_3 H39_3 1_555 1_555
C46_3 H56_3 1_555 1_555
C47_3 C36_3 1_555 1_555
C48_3 C24_3 1_555 1_555
C50_3 C1_3 1_555 1_555
H57_3 C50_3 1_555 1_555
H58_3 C50_3 1_555 1_555
C56_3 C58_3 1_555 1_555
C58_3 C67_3 1_555 1_555
C60_3 C30_3 1_555 1_555
H64_3 C60_3 1_555 1_555
C67_3 C46_3 1_555 1_555
H68_3 C67_3 1_555 1_555
C71_3 C48_3 1_555 1_555
H70_3 C71_3 1_555 1_555
O3_3 C33_3 1_555 1_555
O9_2 C56_3 1_555 1_555
O10_3 C56_3 1_555 1_555
O11_3 C24_3 1_555 1_555
O14_3 C44_3 1_555 1_555
O15_3 C30_3 1_555 1_555
O16_3 C10_3 1_555 1_555
H78_3 C81_3 1_555 1_555
C82_3 O4_3 1_555 1_555
C83_3 O3_3 1_555 1_555
C84_3 C83_3 1_555 1_555
H79_3 C84_3 1_555 1_555
H80_3 C85_3 1_555 1_555
Zn6_2 O9_2 1_555 1_555
C27_3 O11_3 1_555 1_555
C36_3 C60_3 1_555 1_555
C48_3 O16_3 1_555 1_555
C50_3 O15_3 1_555 1_555
C58_3 C71_3 1_555 1_555
C81_3 C82_3 1_555 1_555
C82_3 C83_3 1_555 1_555
C84_3 C85_3 1_555 1_555
C31_3 H30_3 1_555 1_555
H31_3 C31_3 1_555 1_555
H32_3 C31_3 1_555 1_555
C35_3 H38_3 1_555 1_555
C42_3 C51_3 1_555 1_555
C49_3 C35_3 1_555 1_555
C51_3 C35_3 1_555 1_555
H59_3 C51_3 1_555 1_555
C53_3 C42_3 1_555 1_555
H60_3 C53_3 1_555 1_555
C68_3 C49_3 1_555 1_555
C74_3 C42_3 1_555 1_555
O17_2 C74_3 1_555 1_555
O18_2 C74_3 1_555 1_555
O7_3 C31_3 1_555 1_555
C49_3 O8_3 1_555 1_555
C53_3 C68_3 1_555 1_555
C68_3 O7_3 1_555 1_555
Zn1_4 N1_4 1_555 1_555
Zn6_2 N3_4 1_555 1_555
Zn7_2 N2_4 1_555 1_555
Zn4_4 N5_4 1_555 1_555
Zn8 N14_4 1_555 1_555
C1_4 C26_4 1_555 1_555
C2_4 H1_4 1_555 1_555
C3_4 C2_4 1_555 1_555
C4_4 H2_4 1_555 1_555
C7_4 H6_4 1_555 1_555
C8_4 O1_4 1_555 1_555
C10_4 H12_4 1_555 1_555
H13_4 C10_4 1_555 1_555
H14_4 C10_4 1_555 1_555
C11_2 H15_2 1_555 1_555
C12_4 C62_4 1_555 1_555
C13_2 C11_2 1_555 1_555
C14_4 C23_4 1_555 1_555
C15_4 H16_4 1_555 1_555
C16_4 C13_2 1_555 1_555
C17_2 C16_4 1_555 1_555
H17_2 C17_2 1_555 1_555
H18_2 C17_2 1_555 1_555
H19_4 C17_2 1_555 1_555
C18_4 H20_4 1_555 1_555
C19_4 C28_4 1_555 1_555
C20_4 C29_4 1_555 1_555
C21_4 C15_4 1_555 1_555
C22_4 C4_4 1_555 1_555
C23_4 H21_4 1_555 1_555
H22_4 C23_4 1_555 1_555
H23_4 C23_4 1_555 1_555
C24_4 C46_4 1_555 1_555
C25_4 C6_4 1_555 1_555
H25_4 C26_4 1_555 1_555
C27_4 C1_4 1_555 1_555
H26_4 C27_4 1_555 1_555
H27_4 C27_4 1_555 1_555
C28_4 H28_4 1_555 1_555
C29_4 C16_4 1_555 1_555
H29_4 C29_4 1_555 1_555
C30_4 C44_4 1_555 1_555
C32_4 C25_4 1_555 1_555
H33_4 C32_4 1_555 1_555
H34_4 C32_4 1_555 1_555
H35_4 C32_4 1_555 1_555
C33_4 C1_4 1_555 1_555
H36_4 C33_4 1_555 1_555
H37_4 C33_4 1_555 1_555
C34_2 C28_4 1_555 1_555
C36_4 H39_4 1_555 1_555
C37_4 H40_4 1_555 1_555
H41_4 C37_4 1_555 1_555
H42_4 C37_4 1_555 1_555
C38_4 H43_4 1_555 1_555
H44_4 C38_4 1_555 1_555
H45_4 C38_4 1_555 1_555
C39_4 C3_4 1_555 1_555
N1_4 N2_4 1_555 1_555
C40_4 C22_4 1_555 1_555
H46_4 C40_4 1_555 1_555
H47_4 C40_4 1_555 1_555
H48_4 C40_4 1_555 1_555
C41_4 H49_4 1_555 1_555
C43_2 C34_2 1_555 1_555
H50_2 C43_2 1_555 1_555
H51_2 C43_2 1_555 1_555
H52_2 C43_2 1_555 1_555
C44_4 C41_4 1_555 1_555
C45_2 H53_2 1_555 1_555
H54_2 C45_2 1_555 1_555
H55_2 C45_2 1_555 1_555
C46_4 H56_4 1_555 1_555
C47_4 C36_4 1_555 1_555
C48_4 C24_4 1_555 1_555
N2_4 C76_4 1_555 1_555
C50_4 C1_4 1_555 1_555
H57_4 C50_4 1_555 1_555
H58_4 C50_4 1_555 1_555
C52_4 C63_4 1_555 1_555
C54_4 C47_4 1_555 1_555
C55_4 C11_2 1_555 1_555
C56_4 C58_4 1_555 1_555
C57_4 H61_4 1_555 1_555
H62_4 C57_4 1_555 1_555
H63_4 C57_4 1_555 1_555
C58_4 C67_4 1_555 1_555
C59_4 C14_4 1_555 1_555
C60_4 C30_4 1_555 1_555
H64_4 C60_4 1_555 1_555
C61_4 C64_4 1_555 1_555
C62_4 C75_4 1_555 1_555
C63_4 C14_4 1_555 1_555
H65_4 C63_4 1_555 1_555
C64_4 C39_4 1_555 1_555
H66_4 C64_4 1_555 1_555
C65_2 H67_2 1_555 1_555
C66_4 C4_4 1_555 1_555
C67_4 C46_4 1_555 1_555
H68_4 C67_4 1_555 1_555
C69_4 C19_4 1_555 1_555
C70_4 C6_4 1_555 1_555
H69_4 C70_4 1_555 1_555
C71_4 C48_4 1_555 1_555
H70_4 C71_4 1_555 1_555
C72_2 C34_2 1_555 1_555
C73_4 C18_4 1_555 1_555
C75_4 C25_4 1_555 1_555
H71_4 C75_4 1_555 1_555
C76_4 C2_4 1_555 1_555
C77_2 C13_2 1_555 1_555
H72_2 C77_2 1_555 1_555
H73_2 C77_2 1_555 1_555
H74_2 C77_2 1_555 1_555
C78_4 C15_4 1_555 1_555
C79_4 C78_4 1_555 1_555
H75_4 C79_4 1_555 1_555
H76_4 C79_4 1_555 1_555
H77_4 C79_4 1_555 1_555
N3_4 C69_4 1_555 1_555
N4_4 Zn1_4 1_555 1_555
N5_4 C19_4 1_555 1_555
N6_4 Zn4_4 1_555 1_555
N7_4 Zn1_4 1_555 1_555
N8_4 Zn7_2 1_555 1_555
N9_4 Zn7_2 1_555 1_555
N10_4 Zn1_4 1_555 1_555
N11_4 Zn6_2 1_555 1_555
N12_4 Zn6_2 1_555 1_555
N13_4 Zn1_4 1_555 1_555
N14_4 C20_4 1_555 1_555
N15_4 Zn8 1_555 1_555
N16_4 Zn1_4 1_555 1_555
N17_4 Zn4_4 1_555 1_555
N18_4 Zn8 1_555 1_555
O1_4 Zn4_4 1_555 1_555
O2_4 Zn4_4 1_555 1_555
O3_4 C33_4 1_555 1_555
O4_4 C38_4 1_555 1_555
O11_4 C24_4 1_555 1_555
O12_4 C54_4 1_555 1_555
O20_2 C54_4 1_555 1_555
O14_4 C44_4 1_555 1_555
O15_4 C30_4 1_555 1_555
O16_4 C10_4 1_555 1_555
C80_4 C8_4 1_555 1_555
C81_4 C80_4 1_555 1_555
H78_4 C81_4 1_555 1_555
C82_4 O4_4 1_555 1_555
C83_4 O3_4 1_555 1_555
C84_4 C83_4 1_555 1_555
H79_4 C84_4 1_555 1_555
C85_4 C80_4 1_555 1_555
H80_4 C85_4 1_555 1_555
C7_4 C39_4 1_555 1_555
C8_4 O2_4 1_555 1_555
C12_4 C70_4 1_555 1_555
C12_4 N8_4 1_555 1_555
C18_4 C59_4 1_555 1_555
C20_4 C55_4 1_555 1_555
C21_4 C66_4 1_555 1_555
C21_4 N17_4 1_555 1_555
C22_4 C78_4 1_555 1_555
C27_4 O11_4 1_555 1_555
C36_4 C60_4 1_555 1_555
C37_4 C59_4 1_555 1_555
N1_4 N18_4 1_555 1_555
C41_4 C47_4 1_555 1_555
C45_2 C72_2 1_555 1_555
C48_4 O16_4 1_555 1_555
C50_4 O15_4 1_555 1_555
C52_4 C73_4 1_555 1_555
C52_4 N11_4 1_555 1_555
C55_4 N12_4 1_555 1_555
C57_4 O14_4 1_555 1_555
C58_4 C71_4 1_555 1_555
C61_4 C76_4 1_555 1_555
C61_4 N18_4 1_555 1_555
C62_4 N6_4 1_555 1_555
C65_2 C69_4 1_555 1_555
C65_2 C72_2 1_555 1_555
C66_4 N15_4 1_555 1_555
C73_4 N9_4 1_555 1_555
N3_4 N4_4 1_555 1_555
N4_4 N5_4 1_555 1_555
N6_4 N7_4 1_555 1_555
N7_4 N8_4 1_555 1_555
N9_4 N10_4 1_555 1_555
N10_4 N11_4 1_555 1_555
N12_4 N13_4 1_555 1_555
N13_4 N14_4 1_555 1_555
N15_4 N16_4 1_555 1_555
N16_4 N17_4 1_555 1_555
C81_4 C82_4 1_555 1_555
C82_4 C83_4 1_555 1_555
C84_4 C85_4 1_555 1_555
C31_4 H30_4 1_555 1_555
H31_4 C31_4 1_555 1_555
H32_4 C31_4 1_555 1_555
C35_4 H38_4 1_555 1_555
C42_4 C51_4 1_555 1_555
C49_4 C35_4 1_555 1_555
C51_4 C35_4 1_555 1_555
H59_4 C51_4 1_555 1_555
C53_4 C42_4 1_555 1_555
H60_4 C53_4 1_555 1_555
C68_4 C49_4 1_555 1_555
C74_4 C42_4 1_555 1_555
O17 C74_4 1_555 1_555
O18 C74_4 1_555 1_555
O7_4 C31_4 1_555 1_555
C49_4 O8_4 1_555 1_555
C53_4 C68_4 1_555 1_555
C68_4 O7_4 1_555 1_555
H3_4 C5_4 1_555 1_555
H4_4 C5_4 1_555 1_555
H5_4 C5_4 1_555 1_555
C9_4 H9_4 1_555 1_555
H10_4 C9_4 1_555 1_555
C11_3 H15_3 1_555 1_555
C13_3 C11_3 1_555 1_555
H17_3 C17_3 1_555 1_555
H18_3 C17_3 1_555 1_555
C43_3 C34_3 1_555 1_555
H50_3 C43_3 1_555 1_555
H51_3 C43_3 1_555 1_555
H52_3 C43_3 1_555 1_555
C45_3 H53_3 1_555 1_555
H54_3 C45_3 1_555 1_555
H55_3 C45_3 1_555 1_555
C65_3 H67_3 1_555 1_555
C72_3 C34_3 1_555 1_555
C77_3 C13_3 1_555 1_555
H72_3 C77_3 1_555 1_555
H73_3 C77_3 1_555 1_555
H74_3 C77_3 1_555 1_555
C45_3 C72_3 1_555 1_555
C65_3 C72_3 1_555 1_555
C31_5 H30_5 1_555 1_555
H31_5 C31_5 1_555 1_555
H32_5 C31_5 1_555 1_555
C35_5 H38_5 1_555 1_555
C42_5 C51_5 1_555 1_555
C49_5 C35_5 1_555 1_555
C51_5 C35_5 1_555 1_555
H59_5 C51_5 1_555 1_555
C53_5 C42_5 1_555 1_555
H60_5 C53_5 1_555 1_555
C68_5 C49_5 1_555 1_555
C74_5 C42_5 1_555 1_555
O5_3 C74_5 1_555 1_555
O6_3 C74_5 1_555 1_555
O7_5 C31_5 1_555 1_555
Zn8_3 O5_3 1_555 1_555
C49_5 O8_5 1_555 1_555
C53_5 C68_5 1_555 1_555
C68_5 O7_5 1_555 1_555
O6_3 Zn8_3 1_555 1_555
C1_5 C26_5 1_555 1_555
C10_5 H12_5 1_555 1_555
H13_5 C10_5 1_555 1_555
H14_5 C10_5 1_555 1_555
C24_5 C46_5 1_555 1_555
H25_5 C26_5 1_555 1_555
C27_5 C1_5 1_555 1_555
H26_5 C27_5 1_555 1_555
H27_5 C27_5 1_555 1_555
C30_5 C44_5 1_555 1_555
C33_5 C1_5 1_555 1_555
H36_5 C33_5 1_555 1_555
H37_5 C33_5 1_555 1_555
C36_5 H39_5 1_555 1_555
C46_5 H56_5 1_555 1_555
C47_5 C36_5 1_555 1_555
C48_5 C24_5 1_555 1_555
C50_5 C1_5 1_555 1_555
H57_5 C50_5 1_555 1_555
H58_5 C50_5 1_555 1_555
C56_5 C58_5 1_555 1_555
C58_5 C67_5 1_555 1_555
C60_5 C30_5 1_555 1_555
H64_5 C60_5 1_555 1_555
C67_5 C46_5 1_555 1_555
H68_5 C67_5 1_555 1_555
C71_5 C48_5 1_555 1_555
H70_5 C71_5 1_555 1_555
O3_5 C33_5 1_555 1_555
O9_3 C56_5 1_555 1_555
O10_5 C56_5 1_555 1_555
O11_5 C24_5 1_555 1_555
O14_5 C44_5 1_555 1_555
O15_5 C30_5 1_555 1_555
O16_5 C10_5 1_555 1_555
H78_5 C81_5 1_555 1_555
C82_5 O4_5 1_555 1_555
C83_5 O3_5 1_555 1_555
C84_5 C83_5 1_555 1_555
H79_5 C84_5 1_555 1_555
H80_5 C85_5 1_555 1_555
Zn6_3 O9_3 1_555 1_555
C27_5 O11_5 1_555 1_555
C36_5 C60_5 1_555 1_555
C48_5 O16_5 1_555 1_555
C50_5 O15_5 1_555 1_555
C58_5 C71_5 1_555 1_555
C81_5 C82_5 1_555 1_555
C82_5 C83_5 1_555 1_555
C84_5 C85_5 1_555 1_555
C38_5 H43_5 1_555 1_555
H44_5 C38_5 1_555 1_555
H45_5 C38_5 1_555 1_555
C41_5 H49_5 1_555 1_555
C57_5 H61_5 1_555 1_555
H62_5 C57_5 1_555 1_555
H63_5 C57_5 1_555 1_555
O12_5 C54_5 1_555 1_555
O13_3 C54_5 1_555 1_555
Zn7_3 O13_3 1_555 1_555
Zn1_5 N1_5 1_555 1_555
Zn2_3 N3_5 1_555 1_555
Zn3_3 N2_5 1_555 1_555
Zn4_5 N5_5 1_555 1_555
Zn5_3 N14_5 1_555 1_555
C2_5 H1_5 1_555 1_555
C3_5 C2_5 1_555 1_555
C4_5 H2_5 1_555 1_555
C5_5 C3_5 1_555 1_555
H3_5 C5_5 1_555 1_555
H4_5 C5_5 1_555 1_555
H5_5 C5_5 1_555 1_555
C6_5 C9_5 1_555 1_555
C7_5 H6_5 1_555 1_555
H7_5 C7_5 1_555 1_555
H8_5 C7_5 1_555 1_555
C8_5 O1_5 1_555 1_555
C9_5 H9_5 1_555 1_555
H10_5 C9_5 1_555 1_555
H11_5 C9_5 1_555 1_555
C12_5 C62_5 1_555 1_555
C14_5 C23_5 1_555 1_555
C15_5 H16_5 1_555 1_555
C18_5 H20_5 1_555 1_555
C19_5 C28_5 1_555 1_555
C20_5 C29_5 1_555 1_555
C21_5 C15_5 1_555 1_555
C22_5 C4_5 1_555 1_555
C23_5 H21_5 1_555 1_555
H22_5 C23_5 1_555 1_555
H23_5 C23_5 1_555 1_555
C25_5 C6_5 1_555 1_555
C28_5 H28_5 1_555 1_555
C29_5 C16_5 1_555 1_555
H29_5 C29_5 1_555 1_555
C32_5 C25_5 1_555 1_555
H33_5 C32_5 1_555 1_555
H34_5 C32_5 1_555 1_555
H35_5 C32_5 1_555 1_555
C37_5 H40_5 1_555 1_555
H41_5 C37_5 1_555 1_555
H42_5 C37_5 1_555 1_555
C39_5 C3_5 1_555 1_555
N1_5 N2_5 1_555 1_555
C40_5 C22_5 1_555 1_555
H46_5 C40_5 1_555 1_555
H47_5 C40_5 1_555 1_555
H48_5 C40_5 1_555 1_555
N2_5 C76_5 1_555 1_555
C52_5 C63_5 1_555 1_555
C59_5 C14_5 1_555 1_555
C61_5 C64_5 1_555 1_555
C62_5 C75_5 1_555 1_555
C63_5 C14_5 1_555 1_555
H65_5 C63_5 1_555 1_555
C64_5 C39_5 1_555 1_555
H66_5 C64_5 1_555 1_555
C66_5 C4_5 1_555 1_555
C69_5 C19_5 1_555 1_555
C70_5 C6_5 1_555 1_555
H69_5 C70_5 1_555 1_555
C73_5 C18_5 1_555 1_555
C75_5 C25_5 1_555 1_555
H71_5 C75_5 1_555 1_555
C76_5 C2_5 1_555 1_555
C78_5 C15_5 1_555 1_555
C79_5 C78_5 1_555 1_555
H75_5 C79_5 1_555 1_555
H76_5 C79_5 1_555 1_555
H77_5 C79_5 1_555 1_555
N3_5 C69_5 1_555 1_555
N4_5 Zn1_5 1_555 1_555
N5_5 C19_5 1_555 1_555
N6_5 Zn4_5 1_555 1_555
N7_5 Zn1_5 1_555 1_555
N8_5 Zn3_3 1_555 1_555
N9_5 Zn3_3 1_555 1_555
N10_5 Zn1_5 1_555 1_555
N11_5 Zn2_3 1_555 1_555
N12_5 Zn2_3 1_555 1_555
N13_5 Zn1_5 1_555 1_555
N14_5 C20_5 1_555 1_555
N15_5 Zn5_3 1_555 1_555
N16_5 Zn1_5 1_555 1_555
N17_5 Zn4_5 1_555 1_555
N18_5 Zn5_3 1_555 1_555
O1_5 Zn4_5 1_555 1_555
O2_5 Zn4_5 1_555 1_555
C80_5 C8_5 1_555 1_555
O17_3 Zn5_3 1_555 1_555
O18_3 Zn5_3 1_555 1_555
O19_3 Zn2_3 1_555 1_555
O20_3 Zn3_3 1_555 1_555
C7_5 C39_5 1_555 1_555
C8_5 O2_5 1_555 1_555
C12_5 C70_5 1_555 1_555
C12_5 N8_5 1_555 1_555
C18_5 C59_5 1_555 1_555
C20_5 C55_5 1_555 1_555
C21_5 C66_5 1_555 1_555
C21_5 N17_5 1_555 1_555
C22_5 C78_5 1_555 1_555
C37_5 C59_5 1_555 1_555
N1_5 N18_5 1_555 1_555
C52_5 C73_5 1_555 1_555
C52_5 N11_5 1_555 1_555
C55_5 N12_5 1_555 1_555
C61_5 C76_5 1_555 1_555
C61_5 N18_5 1_555 1_555
C62_5 N6_5 1_555 1_555
C66_5 N15_5 1_555 1_555
C73_5 N9_5 1_555 1_555
N3_5 N4_5 1_555 1_555
N4_5 N5_5 1_555 1_555
N6_5 N7_5 1_555 1_555
N7_5 N8_5 1_555 1_555
N9_5 N10_5 1_555 1_555
N10_5 N11_5 1_555 1_555
N12_5 N13_5 1_555 1_555
N13_5 N14_5 1_555 1_555
N15_5 N16_5 1_555 1_555
N16_5 N17_5 1_555 1_555
H3_6 C5_6 1_555 1_555
H4_6 C5_6 1_555 1_555
H5_6 C5_6 1_555 1_555
C9_6 H9_6 1_555 1_555
H10_6 C9_6 1_555 1_555
C31_6 H30_6 1_555 1_555
H31_6 C31_6 1_555 1_555
H32_6 C31_6 1_555 1_555
C35_6 H38_6 1_555 1_555
C42_6 C51_6 1_555 1_555
C49_6 C35_6 1_555 1_555
C51_6 C35_6 1_555 1_555
H59_6 C51_6 1_555 1_555
C53_6 C42_6 1_555 1_555
H60_6 C53_6 1_555 1_555
C68_6 C49_6 1_555 1_555
C74_6 C42_6 1_555 1_555
O5_4 C74_6 1_555 1_555
O6_4 C74_6 1_555 1_555
O7_6 C31_6 1_555 1_555
Zn8_4 O5_4 1_555 1_555
C49_6 O8_6 1_555 1_555
C53_6 C68_6 1_555 1_555
C68_6 O7_6 1_555 1_555
O6_4 Zn8_4 1_555 1_555
Zn1_6 N1_6 1_555 1_555
Zn6_3 N3_6 1_555 1_555
Zn7_3 N2_6 1_555 1_555
Zn4_6 N5_6 1_555 1_555
Zn5_4 N14_6 1_555 1_555
C1_6 C26_6 1_555 1_555
C2_6 H1_6 1_555 1_555
C3_6 C2_6 1_555 1_555
C4_6 H2_6 1_555 1_555
C7_6 H6_6 1_555 1_555
C8_6 O1_6 1_555 1_555
C10_6 H12_6 1_555 1_555
H13_6 C10_6 1_555 1_555
H14_6 C10_6 1_555 1_555
C11_4 H15_4 1_555 1_555
C12_6 C62_6 1_555 1_555
C13_4 C11_4 1_555 1_555
C14_6 C23_6 1_555 1_555
C15_6 H16_6 1_555 1_555
C16_6 C13_4 1_555 1_555
C17_4 C16_6 1_555 1_555
H17_4 C17_4 1_555 1_555
H18_4 C17_4 1_555 1_555
H19_6 C17_4 1_555 1_555
C18_6 H20_6 1_555 1_555
C19_6 C28_6 1_555 1_555
C20_6 C29_6 1_555 1_555
C21_6 C15_6 1_555 1_555
C22_6 C4_6 1_555 1_555
C23_6 H21_6 1_555 1_555
H22_6 C23_6 1_555 1_555
H23_6 C23_6 1_555 1_555
C24_6 C46_6 1_555 1_555
C25_6 C6_6 1_555 1_555
H25_6 C26_6 1_555 1_555
C27_6 C1_6 1_555 1_555
H26_6 C27_6 1_555 1_555
H27_6 C27_6 1_555 1_555
C28_6 H28_6 1_555 1_555
C29_6 C16_6 1_555 1_555
H29_6 C29_6 1_555 1_555
C30_6 C44_6 1_555 1_555
C32_6 C25_6 1_555 1_555
H33_6 C32_6 1_555 1_555
H34_6 C32_6 1_555 1_555
H35_6 C32_6 1_555 1_555
C33_6 C1_6 1_555 1_555
H36_6 C33_6 1_555 1_555
H37_6 C33_6 1_555 1_555
C34_4 C28_6 1_555 1_555
C36_6 H39_6 1_555 1_555
C37_6 H40_6 1_555 1_555
H41_6 C37_6 1_555 1_555
H42_6 C37_6 1_555 1_555
C38_6 H43_6 1_555 1_555
H44_6 C38_6 1_555 1_555
H45_6 C38_6 1_555 1_555
C39_6 C3_6 1_555 1_555
N1_6 N2_6 1_555 1_555
C40_6 C22_6 1_555 1_555
H46_6 C40_6 1_555 1_555
H47_6 C40_6 1_555 1_555
H48_6 C40_6 1_555 1_555
C41_6 H49_6 1_555 1_555
C43_4 C34_4 1_555 1_555
H50_4 C43_4 1_555 1_555
H51_4 C43_4 1_555 1_555
H52_4 C43_4 1_555 1_555
C44_6 C41_6 1_555 1_555
C45_4 H53_4 1_555 1_555
H54_4 C45_4 1_555 1_555
H55_4 C45_4 1_555 1_555
C46_6 H56_6 1_555 1_555
C47_6 C36_6 1_555 1_555
C48_6 C24_6 1_555 1_555
N2_6 C76_6 1_555 1_555
C50_6 C1_6 1_555 1_555
H57_6 C50_6 1_555 1_555
H58_6 C50_6 1_555 1_555
C52_6 C63_6 1_555 1_555
C54_6 C47_6 1_555 1_555
C55_6 C11_4 1_555 1_555
C56_6 C58_6 1_555 1_555
C57_6 H61_6 1_555 1_555
H62_6 C57_6 1_555 1_555
H63_6 C57_6 1_555 1_555
C58_6 C67_6 1_555 1_555
C59_6 C14_6 1_555 1_555
C60_6 C30_6 1_555 1_555
H64_6 C60_6 1_555 1_555
C61_6 C64_6 1_555 1_555
C62_6 C75_6 1_555 1_555
C63_6 C14_6 1_555 1_555
H65_6 C63_6 1_555 1_555
C64_6 C39_6 1_555 1_555
H66_6 C64_6 1_555 1_555
C65_4 H67_4 1_555 1_555
C66_6 C4_6 1_555 1_555
C67_6 C46_6 1_555 1_555
H68_6 C67_6 1_555 1_555
C69_6 C19_6 1_555 1_555
C70_6 C6_6 1_555 1_555
H69_6 C70_6 1_555 1_555
C71_6 C48_6 1_555 1_555
H70_6 C71_6 1_555 1_555
C72_4 C34_4 1_555 1_555
C73_6 C18_6 1_555 1_555
C75_6 C25_6 1_555 1_555
H71_6 C75_6 1_555 1_555
C76_6 C2_6 1_555 1_555
C77_4 C13_4 1_555 1_555
H72_4 C77_4 1_555 1_555
H73_4 C77_4 1_555 1_555
H74_4 C77_4 1_555 1_555
C78_6 C15_6 1_555 1_555
C79_6 C78_6 1_555 1_555
H75_6 C79_6 1_555 1_555
H76_6 C79_6 1_555 1_555
H77_6 C79_6 1_555 1_555
N3_6 C69_6 1_555 1_555
N4_6 Zn1_6 1_555 1_555
N5_6 C19_6 1_555 1_555
N6_6 Zn4_6 1_555 1_555
N7_6 Zn1_6 1_555 1_555
N8_6 Zn7_3 1_555 1_555
N9_6 Zn7_3 1_555 1_555
N10_6 Zn1_6 1_555 1_555
N11_6 Zn6_3 1_555 1_555
N12_6 Zn6_3 1_555 1_555
N13_6 Zn1_6 1_555 1_555
N14_6 C20_6 1_555 1_555
N15_6 Zn5_4 1_555 1_555
N16_6 Zn1_6 1_555 1_555
N17_6 Zn4_6 1_555 1_555
N18_6 Zn5_4 1_555 1_555
O1_6 Zn4_6 1_555 1_555
O2_6 Zn4_6 1_555 1_555
O3_6 C33_6 1_555 1_555
O4_6 C38_6 1_555 1_555
O11_6 C24_6 1_555 1_555
O12_6 C54_6 1_555 1_555
O20_3 C54_6 1_555 1_555
O14_6 C44_6 1_555 1_555
O15_6 C30_6 1_555 1_555
O16_6 C10_6 1_555 1_555
C80_6 C8_6 1_555 1_555
C81_6 C80_6 1_555 1_555
H78_6 C81_6 1_555 1_555
C82_6 O4_6 1_555 1_555
C83_6 O3_6 1_555 1_555
C84_6 C83_6 1_555 1_555
H79_6 C84_6 1_555 1_555
C85_6 C80_6 1_555 1_555
H80_6 C85_6 1_555 1_555
O17_4 Zn5_4 1_555 1_555
O18_4 Zn5_4 1_555 1_555
C7_6 C39_6 1_555 1_555
C8_6 O2_6 1_555 1_555
C12_6 C70_6 1_555 1_555
C12_6 N8_6 1_555 1_555
C18_6 C59_6 1_555 1_555
C20_6 C55_6 1_555 1_555
C21_6 C66_6 1_555 1_555
C21_6 N17_6 1_555 1_555
C22_6 C78_6 1_555 1_555
C27_6 O11_6 1_555 1_555
C36_6 C60_6 1_555 1_555
C37_6 C59_6 1_555 1_555
N1_6 N18_6 1_555 1_555
C41_6 C47_6 1_555 1_555
C45_4 C72_4 1_555 1_555
C48_6 O16_6 1_555 1_555
C50_6 O15_6 1_555 1_555
C52_6 C73_6 1_555 1_555
C52_6 N11_6 1_555 1_555
C55_6 N12_6 1_555 1_555
C57_6 O14_6 1_555 1_555
C58_6 C71_6 1_555 1_555
C61_6 C76_6 1_555 1_555
C61_6 N18_6 1_555 1_555
C62_6 N6_6 1_555 1_555
C65_4 C69_6 1_555 1_555
C65_4 C72_4 1_555 1_555
C66_6 N15_6 1_555 1_555
C73_6 N9_6 1_555 1_555
N3_6 N4_6 1_555 1_555
N4_6 N5_6 1_555 1_555
N6_6 N7_6 1_555 1_555
N7_6 N8_6 1_555 1_555
N9_6 N10_6 1_555 1_555
N10_6 N11_6 1_555 1_555
N12_6 N13_6 1_555 1_555
N13_6 N14_6 1_555 1_555
N15_6 N16_6 1_555 1_555
N16_6 N17_6 1_555 1_555
C81_6 C82_6 1_555 1_555
C82_6 C83_6 1_555 1_555
C84_6 C85_6 1_555 1_555
C38_7 H43_7 1_555 1_555
H44_7 C38_7 1_555 1_555
H45_7 C38_7 1_555 1_555
C41_7 H49_7 1_555 1_555
C57_7 H61_7 1_555 1_555
H62_7 C57_7 1_555 1_555
H63_7 C57_7 1_555 1_555
O12_7 C54_7 1_555 1_555
O13_4 C54_7 1_555 1_555
Zn7_4 O13_4 1_555 1_555
C1_7 C26_7 1_555 1_555
C10_7 H12_7 1_555 1_555
H13_7 C10_7 1_555 1_555
H14_7 C10_7 1_555 1_555
C24_7 C46_7 1_555 1_555
C26_7 H24_7 1_555 1_555
H25_7 C26_7 1_555 1_555
C27_7 C1_7 1_555 1_555
H26_7 C27_7 1_555 1_555
H27_7 C27_7 1_555 1_555
C30_7 C44_7 1_555 1_555
C31_7 H30_7 1_555 1_555
H31_7 C31_7 1_555 1_555
H32_7 C31_7 1_555 1_555
C33_7 C1_7 1_555 1_555
H36_7 C33_7 1_555 1_555
H37_7 C33_7 1_555 1_555
C35_7 H38_7 1_555 1_555
C36_7 H39_7 1_555 1_555
C42_7 C51_7 1_555 1_555
C46_7 H56_7 1_555 1_555
C47_7 C36_7 1_555 1_555
C48_7 C24_7 1_555 1_555
C49_7 C35_7 1_555 1_555
C50_7 C1_7 1_555 1_555
H57_7 C50_7 1_555 1_555
H58_7 C50_7 1_555 1_555
C51_7 C35_7 1_555 1_555
H59_7 C51_7 1_555 1_555
C53_7 C42_7 1_555 1_555
H60_7 C53_7 1_555 1_555
C56_7 C58_7 1_555 1_555
C58_7 C67_7 1_555 1_555
C60_7 C30_7 1_555 1_555
H64_7 C60_7 1_555 1_555
C67_7 C46_7 1_555 1_555
H68_7 C67_7 1_555 1_555
C68_7 C49_7 1_555 1_555
C71_7 C48_7 1_555 1_555
H70_7 C71_7 1_555 1_555
C74_7 C42_7 1_555 1_555
O3_7 C33_7 1_555 1_555
O17_4 C74_7 1_555 1_555
O18_4 C74_7 1_555 1_555
O7_7 C31_7 1_555 1_555
O8_7 C26_7 1_555 1_555
O9_4 C56_7 1_555 1_555
O10_7 C56_7 1_555 1_555
O11_7 C24_7 1_555 1_555
O14_7 C44_7 1_555 1_555
O15_7 C30_7 1_555 1_555
O16_7 C10_7 1_555 1_555
H78_7 C81_7 1_555 1_555
C82_7 O4_7 1_555 1_555
C83_7 O3_7 1_555 1_555
C84_7 C83_7 1_555 1_555
H79_7 C84_7 1_555 1_555
H80_7 C85_7 1_555 1_555
Zn6_4 O9_4 1_555 1_555
C27_7 O11_7 1_555 1_555
C36_7 C60_7 1_555 1_555
C48_7 O16_7 1_555 1_555
C49_7 O8_7 1_555 1_555
C50_7 O15_7 1_555 1_555
C53_7 C68_7 1_555 1_555
C58_7 C71_7 1_555 1_555
C68_7 O7_7 1_555 1_555
C81_7 C82_7 1_555 1_555
C82_7 C83_7 1_555 1_555
C84_7 C85_7 1_555 1_555
Zn1_7 N1_7 1_555 1_555
Zn2_4 N3_7 1_555 1_555
Zn3_4 N2_7 1_555 1_555
Zn4_7 N5_7 1_555 1_555
Zn8_4 N14_7 1_555 1_555
C2_7 H1_7 1_555 1_555
C3_7 C2_7 1_555 1_555
C4_7 H2_7 1_555 1_555
C5_7 C3_7 1_555 1_555
H3_7 C5_7 1_555 1_555
H4_7 C5_7 1_555 1_555
H5_7 C5_7 1_555 1_555
C6_7 C9_7 1_555 1_555
C7_7 H6_7 1_555 1_555
H7_7 C7_7 1_555 1_555
H8_7 C7_7 1_555 1_555
C8_7 O1_7 1_555 1_555
C9_7 H9_7 1_555 1_555
H10_7 C9_7 1_555 1_555
H11_7 C9_7 1_555 1_555
C12_7 C62_7 1_555 1_555
C14_7 C23_7 1_555 1_555
C15_7 H16_7 1_555 1_555
C18_7 H20_7 1_555 1_555
C19_7 C28_7 1_555 1_555
C20_7 C29_7 1_555 1_555
C21_7 C15_7 1_555 1_555
C22_7 C4_7 1_555 1_555
C23_7 H21_7 1_555 1_555
H22_7 C23_7 1_555 1_555
H23_7 C23_7 1_555 1_555
C25_7 C6_7 1_555 1_555
C28_7 H28_7 1_555 1_555
C29_7 C16_7 1_555 1_555
H29_7 C29_7 1_555 1_555
C32_7 C25_7 1_555 1_555
H33_7 C32_7 1_555 1_555
H34_7 C32_7 1_555 1_555
H35_7 C32_7 1_555 1_555
C37_7 H40_7 1_555 1_555
H41_7 C37_7 1_555 1_555
H42_7 C37_7 1_555 1_555
C39_7 C3_7 1_555 1_555
N1_7 N2_7 1_555 1_555
C40_7 C22_7 1_555 1_555
H46_7 C40_7 1_555 1_555
H47_7 C40_7 1_555 1_555
H48_7 C40_7 1_555 1_555
N2_7 C76_7 1_555 1_555
C52_7 C63_7 1_555 1_555
C59_7 C14_7 1_555 1_555
C61_7 C64_7 1_555 1_555
C62_7 C75_7 1_555 1_555
C63_7 C14_7 1_555 1_555
H65_7 C63_7 1_555 1_555
C64_7 C39_7 1_555 1_555
H66_7 C64_7 1_555 1_555
C66_7 C4_7 1_555 1_555
C69_7 C19_7 1_555 1_555
C70_7 C6_7 1_555 1_555
H69_7 C70_7 1_555 1_555
C73_7 C18_7 1_555 1_555
C75_7 C25_7 1_555 1_555
H71_7 C75_7 1_555 1_555
C76_7 C2_7 1_555 1_555
C78_7 C15_7 1_555 1_555
C79_7 C78_7 1_555 1_555
H75_7 C79_7 1_555 1_555
H76_7 C79_7 1_555 1_555
H77_7 C79_7 1_555 1_555
N3_7 C69_7 1_555 1_555
N4_7 Zn1_7 1_555 1_555
N5_7 C19_7 1_555 1_555
N6_7 Zn4_7 1_555 1_555
N7_7 Zn1_7 1_555 1_555
N8_7 Zn3_4 1_555 1_555
N9_7 Zn3_4 1_555 1_555
N10_7 Zn1_7 1_555 1_555
N11_7 Zn2_4 1_555 1_555
N12_7 Zn2_4 1_555 1_555
N13_7 Zn1_7 1_555 1_555
N14_7 C20_7 1_555 1_555
N15_7 Zn8_4 1_555 1_555
N16_7 Zn1_7 1_555 1_555
N17_7 Zn4_7 1_555 1_555
N18_7 Zn8_4 1_555 1_555
O1_7 Zn4_7 1_555 1_555
O2_7 Zn4_7 1_555 1_555
C80_7 C8_7 1_555 1_555
O19_4 Zn2_4 1_555 1_555
O20_4 Zn3_4 1_555 1_555
C7_7 C39_7 1_555 1_555
C8_7 O2_7 1_555 1_555
C12_7 C70_7 1_555 1_555
C12_7 N8_7 1_555 1_555
C18_7 C59_7 1_555 1_555
C20_7 C55_7 1_555 1_555
C21_7 C66_7 1_555 1_555
C21_7 N17_7 1_555 1_555
C22_7 C78_7 1_555 1_555
C37_7 C59_7 1_555 1_555
N1_7 N18_7 1_555 1_555
C52_7 C73_7 1_555 1_555
C52_7 N11_7 1_555 1_555
C55_7 N12_7 1_555 1_555
C61_7 C76_7 1_555 1_555
C61_7 N18_7 1_555 1_555
C62_7 N6_7 1_555 1_555
C66_7 N15_7 1_555 1_555
C73_7 N9_7 1_555 1_555
N3_7 N4_7 1_555 1_555
N4_7 N5_7 1_555 1_555
N6_7 N7_7 1_555 1_555
N7_7 N8_7 1_555 1_555
N9_7 N10_7 1_555 1_555
N10_7 N11_7 1_555 1_555
N12_7 N13_7 1_555 1_555
N13_7 N14_7 1_555 1_555
N15_7 N16_7 1_555 1_555
N16_7 N17_7 1_555 1_555
Zn1_8 N1_8 1_555 1_555
Zn6_4 N3_8 1_555 1_555
Zn7_4 N2_8 1_555 1_555
Zn4_8 N5_8 1_555 1_555
Zn8_3 N14_8 1_555 1_555
C1_8 C26_8 1_555 1_555
C2_8 H1_8 1_555 1_555
C3_8 C2_8 1_555 1_555
C4_8 H2_8 1_555 1_555
C7_8 H6_8 1_555 1_555
C8_8 O1_8 1_555 1_555
C10_8 H12_8 1_555 1_555
H13_8 C10_8 1_555 1_555
H14_8 C10_8 1_555 1_555
C11_5 H15_5 1_555 1_555
C12_8 C62_8 1_555 1_555
C13_5 C11_5 1_555 1_555
C14_8 C23_8 1_555 1_555
C15_8 H16_8 1_555 1_555
C16_8 C13_5 1_555 1_555
C17_5 C16_8 1_555 1_555
H17_5 C17_5 1_555 1_555
H18_5 C17_5 1_555 1_555
H19_8 C17_5 1_555 1_555
C18_8 H20_8 1_555 1_555
C19_8 C28_8 1_555 1_555
C20_8 C29_8 1_555 1_555
C21_8 C15_8 1_555 1_555
C22_8 C4_8 1_555 1_555
C23_8 H21_8 1_555 1_555
H22_8 C23_8 1_555 1_555
H23_8 C23_8 1_555 1_555
C24_8 C46_8 1_555 1_555
C25_8 C6_8 1_555 1_555
C26_8 H24_8 1_555 1_555
H25_8 C26_8 1_555 1_555
C27_8 C1_8 1_555 1_555
H26_8 C27_8 1_555 1_555
H27_8 C27_8 1_555 1_555
C28_8 H28_8 1_555 1_555
C29_8 C16_8 1_555 1_555
H29_8 C29_8 1_555 1_555
C30_8 C44_8 1_555 1_555
C31_8 H30_8 1_555 1_555
H31_8 C31_8 1_555 1_555
H32_8 C31_8 1_555 1_555
C32_8 C25_8 1_555 1_555
H33_8 C32_8 1_555 1_555
H34_8 C32_8 1_555 1_555
H35_8 C32_8 1_555 1_555
C33_8 C1_8 1_555 1_555
H36_8 C33_8 1_555 1_555
H37_8 C33_8 1_555 1_555
C34_5 C28_8 1_555 1_555
C35_8 H38_8 1_555 1_555
C36_8 H39_8 1_555 1_555
C37_8 H40_8 1_555 1_555
H41_8 C37_8 1_555 1_555
H42_8 C37_8 1_555 1_555
C38_8 H43_8 1_555 1_555
H44_8 C38_8 1_555 1_555
H45_8 C38_8 1_555 1_555
C39_8 C3_8 1_555 1_555
N1_8 N2_8 1_555 1_555
C40_8 C22_8 1_555 1_555
H46_8 C40_8 1_555 1_555
H47_8 C40_8 1_555 1_555
H48_8 C40_8 1_555 1_555
C41_8 H49_8 1_555 1_555
C42_8 C51_8 1_555 1_555
C43_5 C34_5 1_555 1_555
H50_5 C43_5 1_555 1_555
H51_5 C43_5 1_555 1_555
H52_5 C43_5 1_555 1_555
C44_8 C41_8 1_555 1_555
C45_5 H53_5 1_555 1_555
H54_5 C45_5 1_555 1_555
H55_5 C45_5 1_555 1_555
C46_8 H56_8 1_555 1_555
C47_8 C36_8 1_555 1_555
C48_8 C24_8 1_555 1_555
C49_8 C35_8 1_555 1_555
N2_8 C76_8 1_555 1_555
C50_8 C1_8 1_555 1_555
H57_8 C50_8 1_555 1_555
H58_8 C50_8 1_555 1_555
C51_8 C35_8 1_555 1_555
H59_8 C51_8 1_555 1_555
C52_8 C63_8 1_555 1_555
C53_8 C42_8 1_555 1_555
H60_8 C53_8 1_555 1_555
C54_8 C47_8 1_555 1_555
C55_8 C11_5 1_555 1_555
C56_8 C58_8 1_555 1_555
C57_8 H61_8 1_555 1_555
H62_8 C57_8 1_555 1_555
H63_8 C57_8 1_555 1_555
C58_8 C67_8 1_555 1_555
C59_8 C14_8 1_555 1_555
C60_8 C30_8 1_555 1_555
H64_8 C60_8 1_555 1_555
C61_8 C64_8 1_555 1_555
C62_8 C75_8 1_555 1_555
C63_8 C14_8 1_555 1_555
H65_8 C63_8 1_555 1_555
C64_8 C39_8 1_555 1_555
H66_8 C64_8 1_555 1_555
C65_5 H67_5 1_555 1_555
C66_8 C4_8 1_555 1_555
C67_8 C46_8 1_555 1_555
H68_8 C67_8 1_555 1_555
C68_8 C49_8 1_555 1_555
C69_8 C19_8 1_555 1_555
C70_8 C6_8 1_555 1_555
H69_8 C70_8 1_555 1_555
C71_8 C48_8 1_555 1_555
H70_8 C71_8 1_555 1_555
C72_5 C34_5 1_555 1_555
C73_8 C18_8 1_555 1_555
C74_8 C42_8 1_555 1_555
C75_8 C25_8 1_555 1_555
H71_8 C75_8 1_555 1_555
C76_8 C2_8 1_555 1_555
C77_5 C13_5 1_555 1_555
H72_5 C77_5 1_555 1_555
H73_5 C77_5 1_555 1_555
H74_5 C77_5 1_555 1_555
C78_8 C15_8 1_555 1_555
C79_8 C78_8 1_555 1_555
H75_8 C79_8 1_555 1_555
H76_8 C79_8 1_555 1_555
H77_8 C79_8 1_555 1_555
N3_8 C69_8 1_555 1_555
N4_8 Zn1_8 1_555 1_555
N5_8 C19_8 1_555 1_555
N6_8 Zn4_8 1_555 1_555
N7_8 Zn1_8 1_555 1_555
N8_8 Zn7_4 1_555 1_555
N9_8 Zn7_4 1_555 1_555
N10_8 Zn1_8 1_555 1_555
N11_8 Zn6_4 1_555 1_555
N12_8 Zn6_4 1_555 1_555
N13_8 Zn1_8 1_555 1_555
N14_8 C20_8 1_555 1_555
N15_8 Zn8_3 1_555 1_555
N16_8 Zn1_8 1_555 1_555
N17_8 Zn4_8 1_555 1_555
N18_8 Zn8_3 1_555 1_555
O1_8 Zn4_8 1_555 1_555
O2_8 Zn4_8 1_555 1_555
O3_8 C33_8 1_555 1_555
O4_8 C38_8 1_555 1_555
O17_3 C74_8 1_555 1_555
O18_3 C74_8 1_555 1_555
O7_8 C31_8 1_555 1_555
O8_8 C26_8 1_555 1_555
O11_8 C24_8 1_555 1_555
O12_8 C54_8 1_555 1_555
O20_4 C54_8 1_555 1_555
O14_8 C44_8 1_555 1_555
O15_8 C30_8 1_555 1_555
O16_8 C10_8 1_555 1_555
C80_8 C8_8 1_555 1_555
C81_8 C80_8 1_555 1_555
H78_8 C81_8 1_555 1_555
C82_8 O4_8 1_555 1_555
C83_8 O3_8 1_555 1_555
C84_8 C83_8 1_555 1_555
H79_8 C84_8 1_555 1_555
C85_8 C80_8 1_555 1_555
H80_8 C85_8 1_555 1_555
C7_8 C39_8 1_555 1_555
C8_8 O2_8 1_555 1_555
C12_8 C70_8 1_555 1_555
C12_8 N8_8 1_555 1_555
C18_8 C59_8 1_555 1_555
C20_8 C55_8 1_555 1_555
C21_8 C66_8 1_555 1_555
C21_8 N17_8 1_555 1_555
C22_8 C78_8 1_555 1_555
C27_8 O11_8 1_555 1_555
C36_8 C60_8 1_555 1_555
C37_8 C59_8 1_555 1_555
N1_8 N18_8 1_555 1_555
C41_8 C47_8 1_555 1_555
C45_5 C72_5 1_555 1_555
C48_8 O16_8 1_555 1_555
C49_8 O8_8 1_555 1_555
C50_8 O15_8 1_555 1_555
C52_8 C73_8 1_555 1_555
C52_8 N11_8 1_555 1_555
C53_8 C68_8 1_555 1_555
C55_8 N12_8 1_555 1_555
C57_8 O14_8 1_555 1_555
C58_8 C71_8 1_555 1_555
C61_8 C76_8 1_555 1_555
C61_8 N18_8 1_555 1_555
C62_8 N6_8 1_555 1_555
C65_5 C69_8 1_555 1_555
C65_5 C72_5 1_555 1_555
C66_8 N15_8 1_555 1_555
C68_8 O7_8 1_555 1_555
C73_8 N9_8 1_555 1_555
N3_8 N4_8 1_555 1_555
N4_8 N5_8 1_555 1_555
N6_8 N7_8 1_555 1_555
N7_8 N8_8 1_555 1_555
N9_8 N10_8 1_555 1_555
N10_8 N11_8 1_555 1_555
N12_8 N13_8 1_555 1_555
N13_8 N14_8 1_555 1_555
N15_8 N16_8 1_555 1_555
N16_8 N17_8 1_555 1_555
C81_8 C82_8 1_555 1_555
C82_8 C83_8 1_555 1_555
C84_8 C85_8 1_555 1_555
H3_8 C5_8 1_555 1_555
H4_8 C5_8 1_555 1_555
H5_8 C5_8 1_555 1_555
C9_8 H9_8 1_555 1_555
H10_8 C9_8 1_555 1_555
C11_6 H15_6 1_555 1_555
C13_6 C11_6 1_555 1_555
H17_6 C17_6 1_555 1_555
H18_6 C17_6 1_555 1_555
C43_6 C34_6 1_555 1_555
H50_6 C43_6 1_555 1_555
H51_6 C43_6 1_555 1_555
H52_6 C43_6 1_555 1_555
C45_6 H53_6 1_555 1_555
H54_6 C45_6 1_555 1_555
H55_6 C45_6 1_555 1_555
C65_6 H67_6 1_555 1_555
C72_6 C34_6 1_555 1_555
C77_6 C13_6 1_555 1_555
H72_6 C77_6 1_555 1_555
H73_6 C77_6 1_555 1_555
H74_6 C77_6 1_555 1_555
C45_6 C72_6 1_555 1_555
C65_6 C72_6 1_555 1_555
C11_7 H15_7 1_555 1_555
C13_7 C11_7 1_555 1_555
H17_7 C17_7 1_555 1_555
H18_7 C17_7 1_555 1_555
C43_7 C34_7 1_555 1_555
H50_7 C43_7 1_555 1_555
H51_7 C43_7 1_555 1_555
H52_7 C43_7 1_555 1_555
C45_7 H53_7 1_555 1_555
H54_7 C45_7 1_555 1_555
H55_7 C45_7 1_555 1_555
C65_7 H67_7 1_555 1_555
C72_7 C34_7 1_555 1_555
C77_7 C13_7 1_555 1_555
H72_7 C77_7 1_555 1_555
H73_7 C77_7 1_555 1_555
H74_7 C77_7 1_555 1_555
C45_7 C72_7 1_555 1_555
C65_7 C72_7 1_555 1_555
C11_8 H15_8 1_555 1_555
C13_8 C11_8 1_555 1_555
H17_8 C17_8 1_555 1_555
H18_8 C17_8 1_555 1_555
C43_8 C34_8 1_555 1_555
H50_8 C43_8 1_555 1_555
H51_8 C43_8 1_555 1_555
H52_8 C43_8 1_555 1_555
C45_8 H53_8 1_555 1_555
H54_8 C45_8 1_555 1_555
H55_8 C45_8 1_555 1_555
C65_8 H67_8 1_555 1_555
C72_8 C34_8 1_555 1_555
C77_8 C13_8 1_555 1_555
H72_8 C77_8 1_555 1_555
H73_8 C77_8 1_555 1_555
H74_8 C77_8 1_555 1_555
C45_8 C72_8 1_555 1_555
C65_8 C72_8 1_555 1_555

#END
