
###############################################################################
#
# This file contains modified crystal structure data generated from the
# MOF subset of the Cambridge Structural Database (CSD) v543 
# hosted by the Cambridge Crystallographic Data Centre (CCDC).
#
# This work is licensed under the Creative Commons
# Attribution-NonCommercial-ShareAlike 4.0 International License.
# To view a copy of this license, visit
# http://creativecommons.org/licenses/by-nc-sa/4.0/
# or send a letter to
# Creative Commons, PO Box 1866, Mountain View, CA 94042, USA.
#
# CIF created using the CSD Python API on 29 September 2022
# The structure has been converted into the P1 space group
# The structure has a 3D framework
# The original CSD entry FAYQIH is in the monoclinic crystal system
# The framework has been calculated to contain at least 10.0% void space
# The void calculation uses a probe of radius 1.32A, grid spacing 0.4
#
###############################################################################

data_FAYQIH
_chemical_formula_moiety         '(C616 H448 N144 O96 Zn40)n'
_symmetry_cell_setting           triclinic
_symmetry_space_group_name_H-M   'P 1'
_symmetry_Int_Tables_number      1
_space_group_name_Hall           'P 1'
loop_
_symmetry_equiv_pos_site_id
_symmetry_equiv_pos_as_xyz
1 x,y,z
_cell_length_a                   46.126(4)
_cell_length_b                   25.5413(18)
_cell_length_c                   26.5951(18)
_cell_angle_alpha                90
_cell_angle_beta                 124.513(2)
_cell_angle_gamma                90
_cell_volume                     25817.6
loop_
_atom_site_label
_atom_site_type_symbol
_atom_site_fract_x
_atom_site_fract_y
_atom_site_fract_z
Zn1 Zn 0.287192(13) 0.078886(18) 0.12112(2)
Zn3 Zn 0.230406(16) 0.06953(2) 0.17218(3)
Zn4 Zn 0.339669(16) 0.19553(2) 0.18383(3)
C7 C 0.2607(3) 0.2394(4) 0.2888(5)
H7 H 0.2507 0.2520 0.3084
C9 C 0.4610(5) 0.0523(5) 0.2950(8)
H9 H 0.4817 0.0348 0.3071
C11 C 0.17510(13) 0.07107(16) 0.0301(2)
C13 C 0.4265(3) 0.0241(5) 0.2652(6)
C15 C 0.2865(3) 0.2693(4) 0.2901(5)
H13 H 0.2926 0.3014 0.3100
C16 C 0.4270(2) 0.1380(3) 0.2718(4)
H14 H 0.4274 0.1744 0.2744
C18 C 0.14263(15) 0.0668(2) 0.0246(3)
H15 H 0.1419 0.0640 0.0587
C22 C 0.3031(2) 0.2538(3) 0.2640(4)
H19 H 0.3202 0.2743 0.2655
C24 C 0.2498(2) 0.1919(3) 0.2594(4)
H21 H 0.2324 0.1722 0.2583
C26 C 0.29978(13) 0.21754(19) 0.0451(3)
C27 C 0.4604(2) 0.1024(6) 0.3031(6)
H22 H 0.4820 0.1186 0.3300
C44 C 0.26666(17) 0.1741(3) 0.2304(3)
C54 C 0.29278(17) 0.2040(2) 0.2336(2)
C57 C 0.39647(18) 0.1081(4) 0.2395(3)
C58 C 0.31439(15) 0.2660(2) 0.0461(3)
H46 H 0.3311 0.2831 0.0821
C65 C 0.3965(2) 0.0556(4) 0.2366(3)
N1 N 0.26735(9) 0.14649(14) 0.00744(17)
N2 N 0.28766(9) 0.14406(14) 0.06828(17)
N3 N 0.30755(9) 0.18654(15) 0.09207(16)
N4 N 0.36341(13) 0.12414(18) 0.2051(2)
N5 N 0.34482(11) 0.0800(2) 0.18241(17)
N6 N 0.36458(15) 0.03748(17) 0.2003(2)
N8 N 0.28978(10) 0.02214(15) 0.06161(18)
N9 N 0.27082(10) 0.02586(15) 0.00097(19)
N11 N 0.22881(9) 0.07629(12) 0.06046(16)
N12 N 0.20860(10) 0.07235(13) 0.08107(16)
N13 N 0.26448(11) 0.01226(16) 0.19287(18)
N14 N 0.28568(12) 0.01321(16) 0.17443(16)
N16 N 0.26264(11) 0.13013(16) 0.19709(17)
N17 N 0.28480(11) 0.13543(15) 0.18045(16)
N18 N 0.30342(10) 0.17869(17) 0.20146(17)
O13 O 0.38061(14) 0.2419(2) 0.2057(3)
O14 O 0.33819(17) 0.2834(2) 0.1917(3)
O15 O 0.18711(15) 0.0825(3) 0.1703(2)
O16 O 0.2305(2) 0.0575(3) 0.2559(3)
Zn2 Zn 0.236051(14) 0.08498(2) 0.95832(2)
C1 C 0.27500(18) 0.2606(3) 0.9329(3)
H1 H 0.2676 0.2761 0.8957
C2 C 0.13985(16) 0.0538(2) 0.3101(3)
H2 H 0.1606 0.0345 0.3310
C3 C 0.3018(2) 0.2860(2) 0.9889(4)
H3 H 0.3110 0.3175 0.9864
C6 C 0.0995(2) 0.1078(3) 0.2263(3)
H6 H 0.0932 0.1260 0.1912
C8 C 0.1508(2) 0.1112(4) 0.6466(3)
H8 H 0.1697 0.1336 0.6710
C14 C 0.17669(13) 0.07488(16) 0.9802(2)
C17 C 0.04497(11) 0.08012(17) 0.38093(17)
H17 H 0.0155 0.2293 0.3215
C21 C 0.1168(3) 0.0463(3) 0.6379(3)
H18 H 0.1106 0.0203 0.6545
O2 O 0.01133(11) 0.15155(17) 0.38194(16)
C30 C 0.26066(14) 0.2154(2) 0.9334(2)
H24 H 0.2425 0.1996 0.8977
C31 C 0.01212(13) 0.0467(2) 0.3385(2)
H26 H 0.0017 0.0567 0.2964
C33 C 0.2016(2) 0.0798(3) 0.8454(2)
C34 C 0.16197(18) 0.0712(3) 0.7412(3)
H27 H 0.1519 0.0477 0.7537
C35 C 0.10614(17) 0.0871(3) 0.5476(3)
C36 C 0.03436(15) 0.1386(2) 0.3675(2)
H28 H 0.0553 0.1602 0.3909
H29 H 0.0237 0.1456 0.3245
C37 C 0.07433(12) 0.06776(19) 0.37006(19)
H30 H 0.0962 0.0847 0.4009
H31 H 0.0784 0.0303 0.3720
C38 C 0.05863(13) 0.06538(19) 0.4471(2)
H32 H 0.0407 0.0723 0.4546
H33 H 0.0645 0.0285 0.4542
C39 C 0.1990(3) 0.0690(3) 0.2202(5)
C40 C 0.1518(2) 0.0822(3) 0.2300(4)
H34 H 0.1413 0.0946 0.1905
C41 C 0.14500(15) 0.07636(18) 0.9203(2)
H35 H 0.1451 0.0802 0.8857
C42 C 0.07748(17) 0.1088(2) 0.2465(3)
H36 H 0.0562 0.1267 0.2242
C45 C 0.14254(18) 0.0778(3) 0.6736(2)
C47 C 0.0971(2) 0.0515(3) 0.5700(3)
H38 H 0.0784 0.0291 0.5445
C49 C 0.11437(15) 0.0718(2) 0.9170(3)
H40 H 0.0933 0.0720 0.8785
C50 C 0.11280(16) 0.0670(2) 0.9672(3)
H41 H 0.0910 0.0639 0.9615
C51 C 0.11796(17) 0.0559(2) 0.3322(3)
H42 H 0.1243 0.0390 0.3681
C56 C 0.1803(3) 0.0688(3) 0.2568(4)
H45 H 0.1923 0.0583 0.2973
C59 C 0.1873(2) 0.0906(3) 0.7798(3)
H47 H 0.1993 0.1135 0.7704
C60 C 0.1299(2) 0.0806(3) 0.2573(4)
C69 C 0.1328(2) 0.1159(4) 0.5820(3)
H52 H 0.1405 0.1396 0.5654
C73 C 0.08716(16) 0.0837(2) 0.2986(3)
C74 C 0.27455(13) 0.1928(2) 0.9914(2)
N10 N 0.21036(10) 0.07800(12) 0.99969(16)
O5 O 0.22990(18) 0.10558(19) 0.8783(2)
O6 O 0.19377(16) 0.0586(3) 0.8701(2)
O9 O 0.08844(10) 0.09563(15) 0.48589(15)
O10 O 0.06260(9) 0.08644(13) 0.31350(15)
Zn5 Zn 0.343296(19) 0.96560(3) 0.17161(3)
C4 C 0.3024(4) 0.8699(5) 0.2873(7)
H4 H 0.3123 0.8394 0.3097
C5 C 0.3186(2) 0.9123(3) 0.0222(4)
H5 H 0.3364 0.8925 0.0544
C10 C 0.2737(4) 0.8961(4) 0.2856(5)
H10 H 0.2650 0.8798 0.3057
H12 H 0.4252 0.9878 0.2656
C52 C 0.2575(2) 0.9459(3) 0.2550(4)
H43 H 0.2395 0.9616 0.2556
C61 C 0.3035(2) 0.9570(2) 0.0284(4)
C62 C 0.3142(2) 0.8908(3) 0.2559(4)
H48 H 0.3314 0.8746 0.2535
C66 C 0.2714(2) 0.9677(3) 0.2247(3)
C68 C 0.2978(2) 0.9426(3) 0.2244(3)
N7 N 0.31016(11) 0.98054(18) 0.08029(19)
N15 N 0.30762(12) 0.97141(19) 0.19171(19)
O17 O 0.3835(3) 0.9226(4) 0.1704(4)
O18 O 0.3678(3) 0.9055(4) 0.2192(7)
C20 C 0.9977(2) 0.2344(4) 0.3275(5)
C23 C 0.9697(2) 0.2088(4) 0.3726(4)
H20 H 0.9673 0.1862 0.3974
H25 H 0.9948 0.0525 0.3478
C46 C 0.9927(2) 0.2005(3) 0.3581(4)
H39 H 0.9524 0.0034 0.2820
C70 C 0.9496(3) 0.2840(4) 0.3065(5)
C71 C 0.9771(3) 0.2768(4) 0.3045(6)
H53 H 0.9826 0.3024 0.2863
C72 C 0.9496(3) 0.2537(4) 0.3478(6)
H54 H 0.9353 0.2635 0.3605
C75 C 0.9248(3) 0.3274(4) 0.2863(6)
H55 H 0.9172 0.3366 0.3109
O11 O 0.8835(3) 0.4226(4) 0.1704(4)
O12 O 0.8678(3) 0.4055(4) 0.2192(7)
C76 C 0.9135(3) 0.3521(4) 0.2406(6)
H56 H 0.9235 0.3442 0.2194
C77 C 0.8846(3) 0.3955(4) 0.2112(6)
Zn8 Zn 0.843296(19) 0.46560(3) 0.17161(3)
C29 C 0.99462(16) 0.9582(3) 0.3184(3)
C32 C 0.94464(17) 0.8777(3) 0.2692(3)
C43 C 0.93453(15) 0.9270(3) 0.2620(3)
H37 H 0.9107 0.9349 0.2403
C48 C 0.95994(19) 0.9688(2) 0.2873(3)
C53 C 0.8685(2) 0.7817(4) 0.2092(3)
C55 C 0.88911(19) 0.8323(3) 0.2273(3)
H44 H 0.8776 0.8636 0.2231
C63 C 0.92154(18) 0.8335(3) 0.2481(3)
H49 H 0.9316 0.8014 0.2498
C64 C 0.9801(2) 0.8684(3) 0.2984(4)
H50 H 0.9876 0.8340 0.3014
O3 O 0.88061(14) 0.7419(2) 0.2057(3)
O4 O 0.83819(17) 0.7834(2) 0.1917(3)
Zn7 Zn 0.839669(16) 0.69553(2) 0.18383(3)
Zn1_2 Zn 0.787192(13) 0.578886(18) 0.12112(2)
Zn3_2 Zn 0.730406(16) 0.56953(2) 0.17218(3)
C4_2 C 0.8024(4) 0.3699(5) 0.2873(7)
H4_2 H 0.8123 0.3394 0.3097
C5_2 C 0.8186(2) 0.4123(3) 0.0222(4)
H5_2 H 0.8364 0.3925 0.0544
C7_2 C 0.7607(3) 0.7394(4) 0.2888(5)
H7_2 H 0.7507 0.7520 0.3084
C9_2 C 0.9610(5) 0.5523(5) 0.2950(8)
H9_2 H 0.9817 0.5348 0.3071
C10_2 C 0.7737(4) 0.3961(4) 0.2856(5)
H10_2 H 0.7650 0.3798 0.3057
C11_2 C 0.67510(13) 0.57107(16) 0.0301(2)
C13_2 C 0.9265(3) 0.5241(5) 0.2652(6)
H12_2 H 0.9252 0.4878 0.2656
C15_2 C 0.7865(3) 0.7693(4) 0.2901(5)
H13_2 H 0.7926 0.8014 0.3100
C16_2 C 0.9270(2) 0.6380(3) 0.2718(4)
H14_2 H 0.9274 0.6744 0.2744
C18_2 C 0.64263(15) 0.5668(2) 0.0246(3)
H15_2 H 0.6419 0.5640 0.0587
C22_2 C 0.8031(2) 0.7538(3) 0.2640(4)
H19_2 H 0.8202 0.7743 0.2655
C24_2 C 0.7498(2) 0.6919(3) 0.2594(4)
H21_2 H 0.7324 0.6722 0.2583
C26_2 C 0.79978(13) 0.71754(19) 0.0451(3)
C27_2 C 0.9604(2) 0.6024(6) 0.3031(6)
H22_2 H 0.9820 0.6186 0.3300
C44_2 C 0.76666(17) 0.6741(3) 0.2304(3)
C52_2 C 0.7575(2) 0.4459(3) 0.2550(4)
H43_2 H 0.7395 0.4616 0.2556
C54_2 C 0.79278(17) 0.7040(2) 0.2336(2)
C57_2 C 0.89647(18) 0.6081(4) 0.2395(3)
C58_2 C 0.81439(15) 0.7660(2) 0.0461(3)
H46_2 H 0.8311 0.7831 0.0821
C61_2 C 0.8035(2) 0.4570(2) 0.0284(4)
C62_2 C 0.8142(2) 0.3908(3) 0.2559(4)
H48_2 H 0.8314 0.3746 0.2535
C65_2 C 0.8965(2) 0.5556(4) 0.2366(3)
C66_2 C 0.7714(2) 0.4677(3) 0.2247(3)
C68_2 C 0.7978(2) 0.4426(3) 0.2244(3)
N1_2 N 0.76735(9) 0.64649(14) 0.00744(17)
N2_2 N 0.78766(9) 0.64406(14) 0.06828(17)
N3_2 N 0.80755(9) 0.68654(15) 0.09207(16)
N4_2 N 0.86341(13) 0.62414(18) 0.2051(2)
N5_2 N 0.84482(11) 0.5800(2) 0.18241(17)
N6_2 N 0.86458(15) 0.53748(17) 0.2003(2)
N7_2 N 0.81016(11) 0.48054(18) 0.08029(19)
N8_2 N 0.78978(10) 0.52214(15) 0.06161(18)
N9_2 N 0.77082(10) 0.52586(15) 0.00097(19)
N11_2 N 0.72881(9) 0.57629(12) 0.06046(16)
N12_2 N 0.70860(10) 0.57235(13) 0.08107(16)
N13_2 N 0.76448(11) 0.51226(16) 0.19287(18)
N14_2 N 0.78568(12) 0.51321(16) 0.17443(16)
N15_2 N 0.80762(12) 0.47141(19) 0.19171(19)
N16_2 N 0.76264(11) 0.63013(16) 0.19709(17)
N17_2 N 0.78480(11) 0.63543(15) 0.18045(16)
N18_2 N 0.80342(10) 0.67869(17) 0.20146(17)
O15_2 O 0.68711(15) 0.5825(3) 0.1703(2)
O16_2 O 0.7305(2) 0.5575(3) 0.2559(3)
Zn2_2 Zn 0.736051(14) 0.58498(2) 0.95832(2)
C1_2 C 0.77500(18) 0.7606(3) 0.9329(3)
H1_2 H 0.7676 0.7761 0.8957
C2_2 C 0.63985(16) 0.5538(2) 0.3101(3)
H2_2 H 0.6606 0.5345 0.3310
C3_2 C 0.8018(2) 0.7860(2) 0.9889(4)
H3_2 H 0.8110 0.8175 0.9864
C6_2 C 0.5995(2) 0.6078(3) 0.2263(3)
H6_2 H 0.5932 0.6260 0.1912
C8_2 C 0.6508(2) 0.6112(4) 0.6466(3)
H8_2 H 0.6697 0.6336 0.6710
C12 C 0.7775(3) 0.4314(5) 0.9125(5)
H11 H 0.7673 0.4210 0.8723
C14_2 C 0.67669(13) 0.57488(16) 0.9802(2)
C17_2 C 0.54497(11) 0.58012(17) 0.38093(17)
O1 O 0.52130(9) 0.49600(16) 0.34633(16)
C19 C 0.8022(4) 0.4011(4) 0.9572(7)
H16 H 0.8094 0.3715 0.9468
C20_2 C 0.4977(2) 0.7344(4) 0.3275(5)
H17_2 H 0.5155 0.7293 0.3215
C21_2 C 0.6168(3) 0.5463(3) 0.6379(3)
H18_2 H 0.6106 0.5203 0.6545
C23_2 C 0.4697(2) 0.7088(4) 0.3726(4)
H20_2 H 0.4673 0.6862 0.3974
C25 C 0.77977(18) 0.4861(3) 0.9811(3)
C28 C 0.7676(2) 0.4728(3) 0.9223(4)
H23 H 0.7520 0.4947 0.8901
C29_2 C 0.49462(16) 0.4582(3) 0.3184(3)
O2_2 O 0.51133(11) 0.65155(17) 0.38194(16)
C30_2 C 0.76066(14) 0.7154(2) 0.9334(2)
H24_2 H 0.7425 0.6996 0.8977
C31_2 C 0.51212(13) 0.5467(2) 0.3385(2)
H25_2 H 0.4948 0.5525 0.3478
H26_2 H 0.5017 0.5567 0.2964
C32_2 C 0.44464(17) 0.3777(3) 0.2692(3)
C33_2 C 0.7016(2) 0.5798(3) 0.8454(2)
C34_2 C 0.66197(18) 0.5712(3) 0.7412(3)
H27_2 H 0.6519 0.5477 0.7537
C35_2 C 0.60614(17) 0.5871(3) 0.5476(3)
C36_2 C 0.53436(15) 0.6386(2) 0.3675(2)
H28_2 H 0.5553 0.6602 0.3909
H29_2 H 0.5237 0.6456 0.3245
C37_2 C 0.57433(12) 0.56776(19) 0.37006(19)
H30_2 H 0.5962 0.5847 0.4009
H31_2 H 0.5784 0.5303 0.3720
C38_2 C 0.55863(13) 0.56538(19) 0.4471(2)
H32_2 H 0.5407 0.5723 0.4546
H33_2 H 0.5645 0.5285 0.4542
C39_2 C 0.6990(3) 0.5690(3) 0.2202(5)
C40_2 C 0.6518(2) 0.5822(3) 0.2300(4)
H34_2 H 0.6413 0.5946 0.1905
C41_2 C 0.64500(15) 0.57636(18) 0.9203(2)
H35_2 H 0.6451 0.5802 0.8857
C42_2 C 0.57748(17) 0.6088(2) 0.2465(3)
H36_2 H 0.5562 0.6267 0.2242
C43_2 C 0.43453(15) 0.4270(3) 0.2620(3)
H37_2 H 0.4107 0.4349 0.2403
C45_2 C 0.64254(18) 0.5778(3) 0.6736(2)
C46_2 C 0.4927(2) 0.7005(3) 0.3581(4)
C47_2 C 0.5971(2) 0.5515(3) 0.5700(3)
H38_2 H 0.5784 0.5291 0.5445
C48_2 C 0.45994(19) 0.4688(2) 0.2873(3)
H39_2 H 0.4524 0.5034 0.2820
C49_2 C 0.61437(15) 0.5718(2) 0.9170(3)
H40_2 H 0.5933 0.5720 0.8785
C50_2 C 0.61280(16) 0.5670(2) 0.9672(3)
H41_2 H 0.5910 0.5639 0.9615
C51_2 C 0.61796(17) 0.5559(2) 0.3322(3)
H42_2 H 0.6243 0.5390 0.3681
C53_2 C 0.3685(2) 0.2817(4) 0.2092(3)
C55_2 C 0.38911(19) 0.3323(3) 0.2273(3)
H44_2 H 0.3776 0.3636 0.2231
C56_2 C 0.6803(3) 0.5688(3) 0.2568(4)
H45_2 H 0.6923 0.5583 0.2973
C59_2 C 0.6873(2) 0.5906(3) 0.7798(3)
H47_2 H 0.6993 0.6135 0.7704
C60_2 C 0.6299(2) 0.5806(3) 0.2573(4)
C63_2 C 0.42154(18) 0.3335(3) 0.2481(3)
H49_2 H 0.4316 0.3014 0.2498
C64_2 C 0.4801(2) 0.3684(3) 0.2984(4)
H50_2 H 0.4876 0.3340 0.3014
C67 C 0.50492(19) 0.4075(3) 0.3235(4)
H51 H 0.5287 0.3993 0.3439
C69_2 C 0.6328(2) 0.6159(4) 0.5820(3)
H52_2 H 0.6405 0.6396 0.5654
C70_2 C 0.4496(3) 0.7840(4) 0.3065(5)
C71_2 C 0.4771(3) 0.7768(4) 0.3045(6)
H53_2 H 0.4826 0.8024 0.2863
C72_2 C 0.4496(3) 0.7537(4) 0.3478(6)
H54_2 H 0.4353 0.7635 0.3605
C73_2 C 0.58716(16) 0.5837(2) 0.2986(3)
C74_2 C 0.77455(13) 0.6928(2) 0.9914(2)
N10_2 N 0.71036(10) 0.57800(12) 0.99969(16)
O5_2 O 0.72990(18) 0.60558(19) 0.8783(2)
O6_2 O 0.69377(16) 0.5586(3) 0.8701(2)
C75_2 C 0.4248(3) 0.8274(4) 0.2863(6)
H55_2 H 0.4172 0.8366 0.3109
O9_2 O 0.58844(10) 0.59563(15) 0.48589(15)
O10_2 O 0.56260(9) 0.58644(13) 0.31350(15)
C76_2 C 0.4135(3) 0.8521(4) 0.2406(6)
H56_2 H 0.4235 0.8442 0.2194
C77_2 C 0.3846(3) 0.8955(4) 0.2112(6)
C12_2 C 0.2775(3) 0.9314(5) 0.9125(5)
H11_2 H 0.2673 0.9210 0.8723
O1_2 O 0.02130(9) 0.99600(16) 0.34633(16)
C19_2 C 0.3022(4) 0.9011(4) 0.9572(7)
H16_2 H 0.3094 0.8715 0.9468
C25_2 C 0.27977(18) 0.9861(3) 0.9811(3)
C28_2 C 0.2676(2) 0.9728(3) 0.9223(4)
H23_2 H 0.2520 0.9947 0.8901
C67_2 C 0.00492(19) 0.9075(3) 0.3235(4)
H51_2 H 0.0287 0.8993 0.3439
C20_3 C 0.0023(2) 0.2344(4) 0.1725(5)
C23_3 C 0.0303(2) 0.2088(4) 0.1274(4)
H20_3 H 0.0327 0.1862 0.1026
H25_3 H 0.0052 0.0525 0.1522
C46_3 C 0.0073(2) 0.2005(3) 0.1419(4)
H39_3 H 0.0476 0.0034 0.2180
C70_3 C 0.0504(3) 0.2840(4) 0.1935(5)
C71_3 C 0.0229(3) 0.2768(4) 0.1955(6)
H53_3 H 0.0174 0.3024 0.2137
C72_3 C 0.0504(3) 0.2537(4) 0.1522(6)
H54_3 H 0.0647 0.2635 0.1395
C75_3 C 0.0752(3) 0.3274(4) 0.2137(6)
H55_3 H 0.0828 0.3366 0.1891
O11_2 O 0.1165(3) 0.4226(4) 0.3296(4)
O12_2 O 0.1322(3) 0.4055(4) 0.2808(7)
C76_3 C 0.0865(3) 0.3521(4) 0.2594(6)
H56_3 H 0.0765 0.3442 0.2806
C77_3 C 0.1154(3) 0.3955(4) 0.2888(6)
Zn8_2 Zn 0.156704(19) 0.46560(3) 0.32839(3)
C29_3 C 0.00538(16) 0.9582(3) 0.1816(3)
C32_3 C 0.05536(17) 0.8777(3) 0.2308(3)
C43_3 C 0.06547(15) 0.9270(3) 0.2380(3)
H37_3 H 0.0893 0.9349 0.2597
C48_3 C 0.04006(19) 0.9688(2) 0.2127(3)
C53_3 C 0.1315(2) 0.7817(4) 0.2908(3)
C55_3 C 0.11089(19) 0.8323(3) 0.2727(3)
H44_3 H 0.1224 0.8636 0.2769
C63_3 C 0.07846(18) 0.8335(3) 0.2519(3)
H49_3 H 0.0684 0.8014 0.2502
C64_3 C 0.0199(2) 0.8684(3) 0.2016(4)
H50_3 H 0.0124 0.8340 0.1986
O3_2 O 0.11939(14) 0.7419(2) 0.2943(3)
O4_2 O 0.16181(17) 0.7834(2) 0.3083(3)
Zn7_2 Zn 0.160331(16) 0.69553(2) 0.31617(3)
C2_3 C 0.86015(16) 0.0538(2) 0.1899(3)
H2_3 H 0.8394 0.0345 0.1690
C6_3 C 0.9005(2) 0.1078(3) 0.2737(3)
H6_3 H 0.9068 0.1260 0.3088
C17_3 C 0.95503(11) 0.08012(17) 0.11907(17)
H17_3 H 0.9845 0.2293 0.1785
O2_3 O 0.98867(11) 0.15155(17) 0.11806(16)
C31_3 C 0.98788(13) 0.0467(2) 0.1615(2)
H26_3 H 0.9983 0.0567 0.2036
C36_3 C 0.96564(15) 0.1386(2) 0.1325(2)
H28_3 H 0.9447 0.1602 0.1091
H29_3 H 0.9763 0.1456 0.1755
C37_3 C 0.92567(12) 0.06776(19) 0.12994(19)
H30_3 H 0.9038 0.0847 0.0991
H31_3 H 0.9216 0.0303 0.1280
C38_3 C 0.94137(13) 0.06538(19) 0.0529(2)
H32_3 H 0.9593 0.0723 0.0454
H33_3 H 0.9355 0.0285 0.0458
C39_3 C 0.8010(3) 0.0690(3) 0.2798(5)
C40_3 C 0.8482(2) 0.0822(3) 0.2700(4)
H34_3 H 0.8587 0.0946 0.3095
C42_3 C 0.92252(17) 0.1088(2) 0.2535(3)
H36_3 H 0.9438 0.1267 0.2758
C51_3 C 0.88204(17) 0.0559(2) 0.1678(3)
H42_3 H 0.8757 0.0390 0.1319
C56_3 C 0.8197(3) 0.0688(3) 0.2432(4)
H45_3 H 0.8077 0.0583 0.2027
C60_3 C 0.8701(2) 0.0806(3) 0.2427(4)
C73_3 C 0.91284(16) 0.0837(2) 0.2014(3)
O7 O 0.81289(15) 0.0825(3) 0.3297(2)
O8 O 0.7695(2) 0.0575(3) 0.2441(3)
O9_3 O 0.91156(10) 0.09563(15) 0.01411(15)
O10_3 O 0.93740(9) 0.08644(13) 0.18650(15)
Zn6 Zn 0.769594(16) 0.06953(2) 0.32782(3)
Zn1_3 Zn 0.712808(13) 0.078886(18) 0.37888(2)
Zn2_3 Zn 0.763949(14) 0.08498(2) 0.54168(2)
Zn4_2 Zn 0.660331(16) 0.19553(2) 0.31617(3)
C1_3 C 0.72500(18) 0.2606(3) 0.5671(3)
H1_3 H 0.7324 0.2761 0.6043
C3_3 C 0.6982(2) 0.2860(2) 0.5111(4)
H3_3 H 0.6890 0.3175 0.5136
C7_3 C 0.7393(3) 0.2394(4) 0.2112(5)
H7_3 H 0.7493 0.2520 0.1916
C8_3 C 0.8492(2) 0.1112(4) 0.8534(3)
H8_3 H 0.8303 0.1336 0.8290
C9_3 C 0.5390(5) 0.0523(5) 0.2050(8)
H9_3 H 0.5183 0.0348 0.1929
C11_3 C 0.82490(13) 0.07107(16) 0.4699(2)
C13_3 C 0.5735(3) 0.0241(5) 0.2348(6)
C14_3 C 0.82331(13) 0.07488(16) 0.5198(2)
C15_3 C 0.7135(3) 0.2693(4) 0.2099(5)
H13_3 H 0.7074 0.3014 0.1900
C16_3 C 0.5730(2) 0.1380(3) 0.2282(4)
H14_3 H 0.5726 0.1744 0.2256
C18_3 C 0.85737(15) 0.0668(2) 0.4754(3)
H15_3 H 0.8581 0.0640 0.4413
C21_3 C 0.8832(3) 0.0463(3) 0.8621(3)
H18_3 H 0.8894 0.0203 0.8455
C22_3 C 0.6969(2) 0.2538(3) 0.2360(4)
H19_3 H 0.6798 0.2743 0.2345
C24_3 C 0.7502(2) 0.1919(3) 0.2406(4)
H21_3 H 0.7676 0.1722 0.2417
C26_3 C 0.70022(13) 0.21754(19) 0.4549(3)
C27_3 C 0.5396(2) 0.1024(6) 0.1969(6)
H22_3 H 0.5180 0.1186 0.1700
C30_3 C 0.73934(14) 0.2154(2) 0.5666(2)
H24_3 H 0.7575 0.1996 0.6023
C33_3 C 0.7984(2) 0.0798(3) 0.6546(2)
C34_3 C 0.83803(18) 0.0712(3) 0.7588(3)
H27_3 H 0.8481 0.0477 0.7463
C35_3 C 0.89386(17) 0.0871(3) 0.9524(3)
C41_3 C 0.85500(15) 0.07636(18) 0.5797(2)
H35_3 H 0.8549 0.0802 0.6143
C44_3 C 0.73334(17) 0.1741(3) 0.2696(3)
C45_3 C 0.85746(18) 0.0778(3) 0.8264(2)
C47_3 C 0.9029(2) 0.0515(3) 0.9300(3)
H38_3 H 0.9216 0.0291 0.9555
C49_3 C 0.88563(15) 0.0718(2) 0.5830(3)
H40_3 H 0.9067 0.0720 0.6215
C50_3 C 0.88720(16) 0.0670(2) 0.5328(3)
H41_3 H 0.9090 0.0639 0.5385
C54_3 C 0.70722(17) 0.2040(2) 0.2664(2)
C57_3 C 0.60353(18) 0.1081(4) 0.2605(3)
C58_3 C 0.68561(15) 0.2660(2) 0.4539(3)
H46_3 H 0.6689 0.2831 0.4179
C59_3 C 0.8127(2) 0.0906(3) 0.7202(3)
H47_3 H 0.8007 0.1135 0.7296
C65_3 C 0.6035(2) 0.0556(4) 0.2634(3)
C69_3 C 0.8672(2) 0.1159(4) 0.9180(3)
H52_3 H 0.8595 0.1396 0.9346
C74_3 C 0.72545(13) 0.1928(2) 0.5086(2)
N1_3 N 0.73265(9) 0.14649(14) 0.49256(17)
N2_3 N 0.71234(9) 0.14406(14) 0.43172(17)
N3_3 N 0.69245(9) 0.18654(15) 0.40793(16)
N4_3 N 0.63659(13) 0.12414(18) 0.2949(2)
N5_3 N 0.65518(11) 0.0800(2) 0.31759(17)
N6_3 N 0.63542(15) 0.03748(17) 0.2997(2)
N8_3 N 0.71022(10) 0.02214(15) 0.43839(18)
N9_3 N 0.72918(10) 0.02586(15) 0.49903(19)
N10_3 N 0.78964(10) 0.07800(12) 0.50031(16)
N11_3 N 0.77119(9) 0.07629(12) 0.43954(16)
N12_3 N 0.79140(10) 0.07235(13) 0.41893(16)
N13_3 N 0.73552(11) 0.01226(16) 0.30713(18)
N14_3 N 0.71432(12) 0.01321(16) 0.32557(16)
N16_3 N 0.73736(11) 0.13013(16) 0.30291(17)
N17_3 N 0.71520(11) 0.13543(15) 0.31955(16)
N18_3 N 0.69658(10) 0.17869(17) 0.29854(17)
O5_3 O 0.77010(18) 0.10558(19) 0.6217(2)
O6_3 O 0.80623(16) 0.0586(3) 0.6299(2)
O13_2 O 0.61939(14) 0.2419(2) 0.2943(3)
O14_2 O 0.66181(17) 0.2834(2) 0.3083(3)
Zn5_2 Zn 0.656704(19) 0.96560(3) 0.32839(3)
C4_3 C 0.6976(4) 0.8699(5) 0.2127(7)
H4_3 H 0.6877 0.8394 0.1903
C5_3 C 0.6814(2) 0.9123(3) 0.4778(4)
H5_3 H 0.6636 0.8925 0.4456
C10_3 C 0.7263(4) 0.8961(4) 0.2144(5)
H10_3 H 0.7350 0.8798 0.1943
C12_3 C 0.7225(3) 0.9314(5) 0.5875(5)
H11_3 H 0.7327 0.9210 0.6277
H12_3 H 0.5748 0.9878 0.2344
C19_3 C 0.6978(4) 0.9011(4) 0.5428(7)
H16_3 H 0.6906 0.8715 0.5532
C25_3 C 0.72023(18) 0.9861(3) 0.5189(3)
C28_3 C 0.7324(2) 0.9728(3) 0.5777(4)
H23_3 H 0.7480 0.9947 0.6099
C52_3 C 0.7425(2) 0.9459(3) 0.2450(4)
H43_3 H 0.7605 0.9616 0.2444
C61_3 C 0.6965(2) 0.9570(2) 0.4716(4)
C62_3 C 0.6858(2) 0.8908(3) 0.2441(4)
H48_3 H 0.6686 0.8746 0.2465
C66_3 C 0.7286(2) 0.9677(3) 0.2753(3)
C68_3 C 0.7022(2) 0.9426(3) 0.2756(3)
N7_3 N 0.68984(11) 0.98054(18) 0.41971(19)
N15_3 N 0.69238(12) 0.97141(19) 0.30829(19)
O17_2 O 0.6165(3) 0.9226(4) 0.3296(4)
O18_2 O 0.6322(3) 0.9055(4) 0.2808(7)
C2_4 C 0.36015(16) 0.5538(2) 0.1899(3)
H2_4 H 0.3394 0.5345 0.1690
C6_4 C 0.4005(2) 0.6078(3) 0.2737(3)
H6_4 H 0.4068 0.6260 0.3088
C17_4 C 0.45503(11) 0.58012(17) 0.11907(17)
O1_3 O 0.47870(9) 0.49600(16) 0.15367(16)
C20_4 C 0.5023(2) 0.7344(4) 0.1725(5)
H17_4 H 0.4845 0.7293 0.1785
C23_4 C 0.5303(2) 0.7088(4) 0.1274(4)
H20_4 H 0.5327 0.6862 0.1026
C29_4 C 0.50538(16) 0.4582(3) 0.1816(3)
O2_4 O 0.48867(11) 0.65155(17) 0.11806(16)
C31_4 C 0.48788(13) 0.5467(2) 0.1615(2)
H25_4 H 0.5052 0.5525 0.1522
H26_4 H 0.4983 0.5567 0.2036
C32_4 C 0.55536(17) 0.3777(3) 0.2308(3)
C36_4 C 0.46564(15) 0.6386(2) 0.1325(2)
H28_4 H 0.4447 0.6602 0.1091
H29_4 H 0.4763 0.6456 0.1755
C37_4 C 0.42567(12) 0.56776(19) 0.12994(19)
H30_4 H 0.4038 0.5847 0.0991
H31_4 H 0.4216 0.5303 0.1280
C38_4 C 0.44137(13) 0.56538(19) 0.0529(2)
H32_4 H 0.4593 0.5723 0.0454
H33_4 H 0.4355 0.5285 0.0458
C39_4 C 0.3010(3) 0.5690(3) 0.2798(5)
C40_4 C 0.3482(2) 0.5822(3) 0.2700(4)
H34_4 H 0.3587 0.5946 0.3095
C42_4 C 0.42252(17) 0.6088(2) 0.2535(3)
H36_4 H 0.4438 0.6267 0.2758
C43_4 C 0.56547(15) 0.4270(3) 0.2380(3)
H37_4 H 0.5893 0.4349 0.2597
C46_4 C 0.5073(2) 0.7005(3) 0.1419(4)
C48_4 C 0.54006(19) 0.4688(2) 0.2127(3)
H39_4 H 0.5476 0.5034 0.2180
C51_4 C 0.38204(17) 0.5559(2) 0.1678(3)
H42_4 H 0.3757 0.5390 0.1319
C53_4 C 0.6315(2) 0.2817(4) 0.2908(3)
C55_4 C 0.61089(19) 0.3323(3) 0.2727(3)
H44_4 H 0.6224 0.3636 0.2769
C56_4 C 0.3197(3) 0.5688(3) 0.2432(4)
H45_4 H 0.3077 0.5583 0.2027
C60_4 C 0.3701(2) 0.5806(3) 0.2427(4)
C63_4 C 0.57846(18) 0.3335(3) 0.2519(3)
H49_4 H 0.5684 0.3014 0.2502
C64_4 C 0.5199(2) 0.3684(3) 0.2016(4)
H50_4 H 0.5124 0.3340 0.1986
C67_3 C 0.49508(19) 0.4075(3) 0.1765(4)
H51_3 H 0.4713 0.3993 0.1561
C70_4 C 0.5504(3) 0.7840(4) 0.1935(5)
C71_4 C 0.5229(3) 0.7768(4) 0.1955(6)
H53_4 H 0.5174 0.8024 0.2137
C72_4 C 0.5504(3) 0.7537(4) 0.1522(6)
H54_4 H 0.5647 0.7635 0.1395
C73_4 C 0.41284(16) 0.5837(2) 0.2014(3)
O7_2 O 0.31289(15) 0.5825(3) 0.3297(2)
O8_2 O 0.2695(2) 0.5575(3) 0.2441(3)
C75_4 C 0.5752(3) 0.8274(4) 0.2137(6)
H55_4 H 0.5828 0.8366 0.1891
O9_4 O 0.41156(10) 0.59563(15) 0.01411(15)
O10_4 O 0.43740(9) 0.58644(13) 0.18650(15)
C76_4 C 0.5865(3) 0.8521(4) 0.2594(6)
H56_4 H 0.5765 0.8442 0.2806
C77_4 C 0.6154(3) 0.8955(4) 0.2888(6)
Zn6_2 Zn 0.269594(16) 0.56953(2) 0.32782(3)
Zn1_4 Zn 0.212808(13) 0.578886(18) 0.37888(2)
Zn2_4 Zn 0.263949(14) 0.58498(2) 0.54168(2)
C1_4 C 0.22500(18) 0.7606(3) 0.5671(3)
H1_4 H 0.2324 0.7761 0.6043
C3_4 C 0.1982(2) 0.7860(2) 0.5111(4)
H3_4 H 0.1890 0.8175 0.5136
C4_4 C 0.1976(4) 0.3699(5) 0.2127(7)
H4_4 H 0.1877 0.3394 0.1903
C5_4 C 0.1814(2) 0.4123(3) 0.4778(4)
H5_4 H 0.1636 0.3925 0.4456
C7_4 C 0.2393(3) 0.7394(4) 0.2112(5)
H7_4 H 0.2493 0.7520 0.1916
C8_4 C 0.3492(2) 0.6112(4) 0.8534(3)
H8_4 H 0.3303 0.6336 0.8290
C9_4 C 0.0390(5) 0.5523(5) 0.2050(8)
H9_4 H 0.0183 0.5348 0.1929
C10_4 C 0.2263(4) 0.3961(4) 0.2144(5)
H10_4 H 0.2350 0.3798 0.1943
C11_4 C 0.32490(13) 0.57107(16) 0.4699(2)
C12_4 C 0.2225(3) 0.4314(5) 0.5875(5)
H11_4 H 0.2327 0.4210 0.6277
C13_4 C 0.0735(3) 0.5241(5) 0.2348(6)
H12_4 H 0.0748 0.4878 0.2344
C14_4 C 0.32331(13) 0.57488(16) 0.5198(2)
C15_4 C 0.2135(3) 0.7693(4) 0.2099(5)
H13_4 H 0.2074 0.8014 0.1900
C16_4 C 0.0730(2) 0.6380(3) 0.2282(4)
H14_4 H 0.0726 0.6744 0.2256
C18_4 C 0.35737(15) 0.5668(2) 0.4754(3)
H15_4 H 0.3581 0.5640 0.4413
C19_4 C 0.1978(4) 0.4011(4) 0.5428(7)
H16_4 H 0.1906 0.3715 0.5532
C21_4 C 0.3832(3) 0.5463(3) 0.8621(3)
H18_4 H 0.3894 0.5203 0.8455
C22_4 C 0.1969(2) 0.7538(3) 0.2360(4)
H19_4 H 0.1798 0.7743 0.2345
C24_4 C 0.2502(2) 0.6919(3) 0.2406(4)
H21_4 H 0.2676 0.6722 0.2417
C25_4 C 0.22023(18) 0.4861(3) 0.5189(3)
C26_4 C 0.20022(13) 0.71754(19) 0.4549(3)
C27_4 C 0.0396(2) 0.6024(6) 0.1969(6)
H22_4 H 0.0180 0.6186 0.1700
C28_4 C 0.2324(2) 0.4728(3) 0.5777(4)
H23_4 H 0.2480 0.4947 0.6099
C30_4 C 0.23934(14) 0.7154(2) 0.5666(2)
H24_4 H 0.2575 0.6996 0.6023
C33_4 C 0.2984(2) 0.5798(3) 0.6546(2)
C34_4 C 0.33803(18) 0.5712(3) 0.7588(3)
H27_4 H 0.3481 0.5477 0.7463
C35_4 C 0.39386(17) 0.5871(3) 0.9524(3)
C41_4 C 0.35500(15) 0.57636(18) 0.5797(2)
H35_4 H 0.3549 0.5802 0.6143
C44_4 C 0.23334(17) 0.6741(3) 0.2696(3)
C45_4 C 0.35746(18) 0.5778(3) 0.8264(2)
C47_4 C 0.4029(2) 0.5515(3) 0.9300(3)
H38_4 H 0.4216 0.5291 0.9555
C49_4 C 0.38563(15) 0.5718(2) 0.5830(3)
H40_4 H 0.4067 0.5720 0.6215
C50_4 C 0.38720(16) 0.5670(2) 0.5328(3)
H41_4 H 0.4090 0.5639 0.5385
C52_4 C 0.2425(2) 0.4459(3) 0.2450(4)
H43_4 H 0.2605 0.4616 0.2444
C54_4 C 0.20722(17) 0.7040(2) 0.2664(2)
C57_4 C 0.10353(18) 0.6081(4) 0.2605(3)
C58_4 C 0.18561(15) 0.7660(2) 0.4539(3)
H46_4 H 0.1689 0.7831 0.4179
C59_4 C 0.3127(2) 0.5906(3) 0.7202(3)
H47_4 H 0.3007 0.6135 0.7296
C61_4 C 0.1965(2) 0.4570(2) 0.4716(4)
C62_4 C 0.1858(2) 0.3908(3) 0.2441(4)
H48_4 H 0.1686 0.3746 0.2465
C65_4 C 0.1035(2) 0.5556(4) 0.2634(3)
C66_4 C 0.2286(2) 0.4677(3) 0.2753(3)
C68_4 C 0.2022(2) 0.4426(3) 0.2756(3)
C69_4 C 0.3672(2) 0.6159(4) 0.9180(3)
H52_4 H 0.3595 0.6396 0.9346
C74_4 C 0.22545(13) 0.6928(2) 0.5086(2)
N1_4 N 0.23265(9) 0.64649(14) 0.49256(17)
N2_4 N 0.21234(9) 0.64406(14) 0.43172(17)
N3_4 N 0.19245(9) 0.68654(15) 0.40793(16)
N4_4 N 0.13659(13) 0.62414(18) 0.2949(2)
N5_4 N 0.15518(11) 0.5800(2) 0.31759(17)
N6_4 N 0.13542(15) 0.53748(17) 0.2997(2)
N7_4 N 0.18984(11) 0.48054(18) 0.41971(19)
N8_4 N 0.21022(10) 0.52214(15) 0.43839(18)
N9_4 N 0.22918(10) 0.52586(15) 0.49903(19)
N10_4 N 0.28964(10) 0.57800(12) 0.50031(16)
N11_4 N 0.27119(9) 0.57629(12) 0.43954(16)
N12_4 N 0.29140(10) 0.57235(13) 0.41893(16)
N13_4 N 0.23552(11) 0.51226(16) 0.30713(18)
N14_4 N 0.21432(12) 0.51321(16) 0.32557(16)
N15_4 N 0.19238(12) 0.47141(19) 0.30829(19)
N16_4 N 0.23736(11) 0.63013(16) 0.30291(17)
N17_4 N 0.21520(11) 0.63543(15) 0.31955(16)
N18_4 N 0.19658(10) 0.67869(17) 0.29854(17)
O5_4 O 0.27010(18) 0.60558(19) 0.6217(2)
O6_4 O 0.30623(16) 0.5586(3) 0.6299(2)
O1_4 O 0.97870(9) 0.99600(16) 0.15367(16)
C67_4 C 0.99508(19) 0.9075(3) 0.1765(4)
H51_4 H 0.9713 0.8993 0.1561
C29_5 C 0.00538(16) 0.0418(3) 0.6816(3)
C32_5 C 0.05536(17) 0.1223(3) 0.7308(3)
C43_5 C 0.06547(15) 0.0730(3) 0.7380(3)
H37_5 H 0.0893 0.0651 0.7597
C48_5 C 0.04006(19) 0.0312(2) 0.7127(3)
C53_5 C 0.1315(2) 0.2183(4) 0.7908(3)
C55_5 C 0.11089(19) 0.1677(3) 0.7727(3)
H44_5 H 0.1224 0.1364 0.7769
C63_5 C 0.07846(18) 0.1665(3) 0.7519(3)
H49_5 H 0.0684 0.1986 0.7502
C64_5 C 0.0199(2) 0.1316(3) 0.7016(4)
H50_5 H 0.0124 0.1660 0.6986
O3_3 O 0.11939(14) 0.2581(2) 0.7943(3)
O4_3 O 0.16181(17) 0.2166(2) 0.8083(3)
Zn7_3 Zn 0.160331(16) 0.30447(2) 0.81617(3)
C20_5 C 0.0023(2) 0.7656(4) 0.6725(5)
C23_5 C 0.0303(2) 0.7912(4) 0.6274(4)
H20_5 H 0.0327 0.8138 0.6026
H25_5 H 0.0052 0.9475 0.6522
C46_5 C 0.0073(2) 0.7995(3) 0.6419(4)
H39_5 H 0.0476 0.9966 0.7180
C70_5 C 0.0504(3) 0.7160(4) 0.6935(5)
C71_5 C 0.0229(3) 0.7232(4) 0.6955(6)
H53_5 H 0.0174 0.6976 0.7137
C72_5 C 0.0504(3) 0.7463(4) 0.6522(6)
H54_5 H 0.0647 0.7365 0.6395
C75_5 C 0.0752(3) 0.6726(4) 0.7137(6)
H55_5 H 0.0828 0.6634 0.6891
O11_3 O 0.1165(3) 0.5774(4) 0.8296(4)
O12_3 O 0.1322(3) 0.5945(4) 0.7808(7)
C76_5 C 0.0865(3) 0.6479(4) 0.7594(6)
H56_5 H 0.0765 0.6558 0.7806
C77_5 C 0.1154(3) 0.6045(4) 0.7888(6)
Zn8_3 Zn 0.156704(19) 0.53440(3) 0.82839(3)
Zn5_3 Zn 0.656704(19) 0.03440(3) 0.82839(3)
C4_5 C 0.6976(4) 0.1301(5) 0.7127(7)
H4_5 H 0.6877 0.1606 0.6903
C5_5 C 0.6814(2) 0.0877(3) 0.9778(4)
H5_5 H 0.6636 0.1075 0.9456
C10_5 C 0.7263(4) 0.1039(4) 0.7144(5)
H10_5 H 0.7350 0.1202 0.6943
H12_5 H 0.5748 0.0122 0.7344
C52_5 C 0.7425(2) 0.0541(3) 0.7450(4)
H43_5 H 0.7605 0.0384 0.7444
C61_5 C 0.6965(2) 0.0430(2) 0.9716(4)
C62_5 C 0.6858(2) 0.1092(3) 0.7441(4)
H48_5 H 0.6686 0.1254 0.7465
C66_5 C 0.7286(2) 0.0323(3) 0.7753(3)
C68_5 C 0.7022(2) 0.0574(3) 0.7756(3)
N7_5 N 0.68984(11) 0.01946(18) 0.91971(19)
N15_5 N 0.69238(12) 0.02859(19) 0.80829(19)
O17_3 O 0.6165(3) 0.0774(4) 0.8296(4)
O18_3 O 0.6322(3) 0.0945(4) 0.7808(7)
Zn2_5 Zn 0.763949(14) 0.91502(2) 0.04168(2)
C1_5 C 0.72500(18) 0.7394(3) 0.0671(3)
H1_5 H 0.7324 0.7239 0.1043
C2_5 C 0.86015(16) 0.9462(2) 0.6899(3)
H2_5 H 0.8394 0.9655 0.6690
C3_5 C 0.6982(2) 0.7140(2) 0.0111(4)
H3_5 H 0.6890 0.6825 0.0136
C6_5 C 0.9005(2) 0.8922(3) 0.7737(3)
H6_5 H 0.9068 0.8740 0.8088
C8_5 C 0.8492(2) 0.8888(4) 0.3534(3)
H8_5 H 0.8303 0.8664 0.3290
C14_5 C 0.82331(13) 0.92512(16) 0.0198(2)
C17_5 C 0.95503(11) 0.91988(17) 0.61907(17)
H17_5 H 0.9845 0.7707 0.6785
C21_5 C 0.8832(3) 0.9537(3) 0.3621(3)
H18_5 H 0.8894 0.9797 0.3455
O2_5 O 0.98867(11) 0.84845(17) 0.61806(16)
C30_5 C 0.73934(14) 0.7846(2) 0.0666(2)
H24_5 H 0.7575 0.8004 0.1023
C31_5 C 0.98788(13) 0.9533(2) 0.6615(2)
H26_5 H 0.9983 0.9433 0.7036
C33_5 C 0.7984(2) 0.9202(3) 0.1546(2)
C34_5 C 0.83803(18) 0.9288(3) 0.2588(3)
H27_5 H 0.8481 0.9523 0.2463
C35_5 C 0.89386(17) 0.9129(3) 0.4524(3)
C36_5 C 0.96564(15) 0.8614(2) 0.6325(2)
H28_5 H 0.9447 0.8398 0.6091
H29_5 H 0.9763 0.8544 0.6755
C37_5 C 0.92567(12) 0.93224(19) 0.62994(19)
H30_5 H 0.9038 0.9153 0.5991
H31_5 H 0.9216 0.9697 0.6280
C38_5 C 0.94137(13) 0.93462(19) 0.5529(2)
H32_5 H 0.9593 0.9277 0.5454
H33_5 H 0.9355 0.9715 0.5458
C39_5 C 0.8010(3) 0.9310(3) 0.7798(5)
C40_5 C 0.8482(2) 0.9178(3) 0.7700(4)
H34_5 H 0.8587 0.9054 0.8095
C41_5 C 0.85500(15) 0.92364(18) 0.0797(2)
H35_5 H 0.8549 0.9198 0.1143
C42_5 C 0.92252(17) 0.8912(2) 0.7535(3)
H36_5 H 0.9438 0.8733 0.7758
C45_5 C 0.85746(18) 0.9222(3) 0.3264(2)
C47_5 C 0.9029(2) 0.9485(3) 0.4300(3)
H38_5 H 0.9216 0.9709 0.4555
C49_5 C 0.88563(15) 0.9282(2) 0.0830(3)
H40_5 H 0.9067 0.9280 0.1215
C50_5 C 0.88720(16) 0.9330(2) 0.0328(3)
H41_5 H 0.9090 0.9361 0.0385
C51_5 C 0.88204(17) 0.9441(2) 0.6678(3)
H42_5 H 0.8757 0.9610 0.6319
C56_5 C 0.8197(3) 0.9312(3) 0.7432(4)
H45_5 H 0.8077 0.9417 0.7027
C59_5 C 0.8127(2) 0.9094(3) 0.2202(3)
H47_5 H 0.8007 0.8865 0.2296
C60_5 C 0.8701(2) 0.9194(3) 0.7427(4)
C69_5 C 0.8672(2) 0.8841(4) 0.4180(3)
H52_5 H 0.8595 0.8604 0.4346
C73_5 C 0.91284(16) 0.9163(2) 0.7014(3)
C74_5 C 0.72545(13) 0.8072(2) 0.0086(2)
N10_5 N 0.78964(10) 0.92200(12) 0.00031(16)
O5_5 O 0.77010(18) 0.89442(19) 0.1217(2)
O6_5 O 0.80623(16) 0.9414(3) 0.1299(2)
O7_3 O 0.81289(15) 0.9175(3) 0.8297(2)
O8_3 O 0.7695(2) 0.9425(3) 0.7441(3)
O9_5 O 0.91156(10) 0.90437(15) 0.51411(15)
O10_5 O 0.93740(9) 0.91356(13) 0.68650(15)
Zn6_3 Zn 0.769594(16) 0.93047(2) 0.82782(3)
Zn1_5 Zn 0.712808(13) 0.921114(18) 0.87888(2)
Zn4_3 Zn 0.660331(16) 0.80447(2) 0.81617(3)
C7_5 C 0.7393(3) 0.7606(4) 0.7112(5)
H7_5 H 0.7493 0.7480 0.6916
C9_5 C 0.5390(5) 0.9477(5) 0.7050(8)
H9_5 H 0.5183 0.9652 0.6929
C11_5 C 0.82490(13) 0.92893(16) 0.9699(2)
C13_5 C 0.5735(3) 0.9759(5) 0.7348(6)
C15_5 C 0.7135(3) 0.7307(4) 0.7099(5)
H13_5 H 0.7074 0.6986 0.6900
C16_5 C 0.5730(2) 0.8620(3) 0.7282(4)
H14_5 H 0.5726 0.8256 0.7256
C18_5 C 0.85737(15) 0.9332(2) 0.9754(3)
H15_5 H 0.8581 0.9360 0.9413
C22_5 C 0.6969(2) 0.7462(3) 0.7360(4)
H19_5 H 0.6798 0.7257 0.7345
C24_5 C 0.7502(2) 0.8081(3) 0.7406(4)
H21_5 H 0.7676 0.8278 0.7417
C26_5 C 0.70022(13) 0.78246(19) 0.9549(3)
C27_5 C 0.5396(2) 0.8976(6) 0.6969(6)
H22_5 H 0.5180 0.8814 0.6700
C44_5 C 0.73334(17) 0.8259(3) 0.7696(3)
C54_5 C 0.70722(17) 0.7960(2) 0.7664(2)
C57_5 C 0.60353(18) 0.8919(4) 0.7605(3)
C58_5 C 0.68561(15) 0.7340(2) 0.9539(3)
H46_5 H 0.6689 0.7169 0.9179
C65_5 C 0.6035(2) 0.9444(4) 0.7634(3)
N1_5 N 0.73265(9) 0.85351(14) 0.99256(17)
N2_5 N 0.71234(9) 0.85594(14) 0.93172(17)
N3_5 N 0.69245(9) 0.81346(15) 0.90793(16)
N4_5 N 0.63659(13) 0.87586(18) 0.7949(2)
N5_5 N 0.65518(11) 0.9200(2) 0.81759(17)
N6_5 N 0.63542(15) 0.96252(17) 0.7997(2)
N8_5 N 0.71022(10) 0.97786(15) 0.93839(18)
N9_5 N 0.72918(10) 0.97414(15) 0.99903(19)
N11_5 N 0.77119(9) 0.92371(12) 0.93954(16)
N12_5 N 0.79140(10) 0.92765(13) 0.91893(16)
N13_5 N 0.73552(11) 0.98774(16) 0.80713(18)
N14_5 N 0.71432(12) 0.98679(16) 0.82557(16)
N16_5 N 0.73736(11) 0.86987(16) 0.80291(17)
N17_5 N 0.71520(11) 0.86457(15) 0.81955(16)
N18_5 N 0.69658(10) 0.82131(17) 0.79854(17)
O13_3 O 0.61939(14) 0.7581(2) 0.7943(3)
O14_3 O 0.66181(17) 0.7166(2) 0.8083(3)
Zn2_6 Zn 0.263949(14) 0.41502(2) 0.04168(2)
C1_6 C 0.22500(18) 0.2394(3) 0.0671(3)
H1_6 H 0.2324 0.2239 0.1043
C2_6 C 0.36015(16) 0.4462(2) 0.6899(3)
H2_6 H 0.3394 0.4655 0.6690
C3_6 C 0.1982(2) 0.2140(2) 0.0111(4)
H3_6 H 0.1890 0.1825 0.0136
C6_6 C 0.4005(2) 0.3922(3) 0.7737(3)
H6_6 H 0.4068 0.3740 0.8088
C8_6 C 0.3492(2) 0.3888(4) 0.3534(3)
H8_6 H 0.3303 0.3664 0.3290
C12_5 C 0.2225(3) 0.5686(5) 0.0875(5)
H11_5 H 0.2327 0.5790 0.1277
C14_6 C 0.32331(13) 0.42512(16) 0.0198(2)
C17_6 C 0.45503(11) 0.41988(17) 0.61907(17)
O1_5 O 0.47870(9) 0.50400(16) 0.65367(16)
C19_5 C 0.1978(4) 0.5989(4) 0.0428(7)
H16_5 H 0.1906 0.6285 0.0532
C20_6 C 0.5023(2) 0.2656(4) 0.6725(5)
H17_6 H 0.4845 0.2707 0.6785
C21_6 C 0.3832(3) 0.4537(3) 0.3621(3)
H18_6 H 0.3894 0.4797 0.3455
C23_6 C 0.5303(2) 0.2912(4) 0.6274(4)
H20_6 H 0.5327 0.3138 0.6026
C25_5 C 0.22023(18) 0.5139(3) 0.0189(3)
C28_5 C 0.2324(2) 0.5272(3) 0.0777(4)
H23_5 H 0.2480 0.5053 0.1099
C29_6 C 0.50538(16) 0.5418(3) 0.6816(3)
O2_6 O 0.48867(11) 0.34845(17) 0.61806(16)
C30_6 C 0.23934(14) 0.2846(2) 0.0666(2)
H24_6 H 0.2575 0.3004 0.1023
C31_6 C 0.48788(13) 0.4533(2) 0.6615(2)
H25_6 H 0.5052 0.4475 0.6522
H26_6 H 0.4983 0.4433 0.7036
C32_6 C 0.55536(17) 0.6223(3) 0.7308(3)
C33_6 C 0.2984(2) 0.4202(3) 0.1546(2)
C34_6 C 0.33803(18) 0.4288(3) 0.2588(3)
H27_6 H 0.3481 0.4523 0.2463
C35_6 C 0.39386(17) 0.4129(3) 0.4524(3)
C36_6 C 0.46564(15) 0.3614(2) 0.6325(2)
H28_6 H 0.4447 0.3398 0.6091
H29_6 H 0.4763 0.3544 0.6755
C37_6 C 0.42567(12) 0.43224(19) 0.62994(19)
H30_6 H 0.4038 0.4153 0.5991
H31_6 H 0.4216 0.4697 0.6280
C38_6 C 0.44137(13) 0.43462(19) 0.5529(2)
H32_6 H 0.4593 0.4277 0.5454
H33_6 H 0.4355 0.4715 0.5458
C39_6 C 0.3010(3) 0.4310(3) 0.7798(5)
C40_6 C 0.3482(2) 0.4178(3) 0.7700(4)
H34_6 H 0.3587 0.4054 0.8095
C41_6 C 0.35500(15) 0.42364(18) 0.0797(2)
H35_6 H 0.3549 0.4198 0.1143
C42_6 C 0.42252(17) 0.3912(2) 0.7535(3)
H36_6 H 0.4438 0.3733 0.7758
C43_6 C 0.56547(15) 0.5730(3) 0.7380(3)
H37_6 H 0.5893 0.5651 0.7597
C45_6 C 0.35746(18) 0.4222(3) 0.3264(2)
C46_6 C 0.5073(2) 0.2995(3) 0.6419(4)
C47_6 C 0.4029(2) 0.4485(3) 0.4300(3)
H38_6 H 0.4216 0.4709 0.4555
C48_6 C 0.54006(19) 0.5312(2) 0.7127(3)
H39_6 H 0.5476 0.4966 0.7180
C49_6 C 0.38563(15) 0.4282(2) 0.0830(3)
H40_6 H 0.4067 0.4280 0.1215
C50_6 C 0.38720(16) 0.4330(2) 0.0328(3)
H41_6 H 0.4090 0.4361 0.0385
C51_6 C 0.38204(17) 0.4441(2) 0.6678(3)
H42_6 H 0.3757 0.4610 0.6319
C53_6 C 0.6315(2) 0.7183(4) 0.7908(3)
C55_6 C 0.61089(19) 0.6677(3) 0.7727(3)
H44_6 H 0.6224 0.6364 0.7769
C56_6 C 0.3197(3) 0.4312(3) 0.7432(4)
H45_6 H 0.3077 0.4417 0.7027
C59_6 C 0.3127(2) 0.4094(3) 0.2202(3)
H47_6 H 0.3007 0.3865 0.2296
C60_6 C 0.3701(2) 0.4194(3) 0.7427(4)
C63_6 C 0.57846(18) 0.6665(3) 0.7519(3)
H49_6 H 0.5684 0.6986 0.7502
C64_6 C 0.5199(2) 0.6316(3) 0.7016(4)
H50_6 H 0.5124 0.6660 0.6986
C67_5 C 0.49508(19) 0.5925(3) 0.6765(4)
H51_5 H 0.4713 0.6007 0.6561
C69_6 C 0.3672(2) 0.3841(4) 0.4180(3)
H52_6 H 0.3595 0.3604 0.4346
C70_6 C 0.5504(3) 0.2160(4) 0.6935(5)
C71_6 C 0.5229(3) 0.2232(4) 0.6955(6)
H53_6 H 0.5174 0.1976 0.7137
C72_6 C 0.5504(3) 0.2463(4) 0.6522(6)
H54_6 H 0.5647 0.2365 0.6395
C73_6 C 0.41284(16) 0.4163(2) 0.7014(3)
C74_6 C 0.22545(13) 0.3072(2) 0.0086(2)
N10_6 N 0.28964(10) 0.42200(12) 0.00031(16)
O5_6 O 0.27010(18) 0.39442(19) 0.1217(2)
O6_6 O 0.30623(16) 0.4414(3) 0.1299(2)
O7_4 O 0.31289(15) 0.4175(3) 0.8297(2)
O8_4 O 0.2695(2) 0.4425(3) 0.7441(3)
C75_6 C 0.5752(3) 0.1726(4) 0.7137(6)
H55_6 H 0.5828 0.1634 0.6891
O9_6 O 0.41156(10) 0.40437(15) 0.51411(15)
O10_6 O 0.43740(9) 0.41356(13) 0.68650(15)
C76_6 C 0.5865(3) 0.1479(4) 0.7594(6)
H56_6 H 0.5765 0.1558 0.7806
C77_6 C 0.6154(3) 0.1045(4) 0.7888(6)
Zn6_4 Zn 0.269594(16) 0.43047(2) 0.82782(3)
Zn1_6 Zn 0.212808(13) 0.421114(18) 0.87888(2)
C4_6 C 0.1976(4) 0.6301(5) 0.7127(7)
H4_6 H 0.1877 0.6606 0.6903
C5_6 C 0.1814(2) 0.5877(3) 0.9778(4)
H5_6 H 0.1636 0.6075 0.9456
C7_6 C 0.2393(3) 0.2606(4) 0.7112(5)
H7_6 H 0.2493 0.2480 0.6916
C9_6 C 0.0390(5) 0.4477(5) 0.7050(8)
H9_6 H 0.0183 0.4652 0.6929
C10_6 C 0.2263(4) 0.6039(4) 0.7144(5)
H10_6 H 0.2350 0.6202 0.6943
C11_6 C 0.32490(13) 0.42893(16) 0.9699(2)
C13_6 C 0.0735(3) 0.4759(5) 0.7348(6)
H12_6 H 0.0748 0.5122 0.7344
C15_6 C 0.2135(3) 0.2307(4) 0.7099(5)
H13_6 H 0.2074 0.1986 0.6900
C16_6 C 0.0730(2) 0.3620(3) 0.7282(4)
H14_6 H 0.0726 0.3256 0.7256
C18_6 C 0.35737(15) 0.4332(2) 0.9754(3)
H15_6 H 0.3581 0.4360 0.9413
C22_6 C 0.1969(2) 0.2462(3) 0.7360(4)
H19_6 H 0.1798 0.2257 0.7345
C24_6 C 0.2502(2) 0.3081(3) 0.7406(4)
H21_6 H 0.2676 0.3278 0.7417
C26_6 C 0.20022(13) 0.28246(19) 0.9549(3)
C27_6 C 0.0396(2) 0.3976(6) 0.6969(6)
H22_6 H 0.0180 0.3814 0.6700
C44_6 C 0.23334(17) 0.3259(3) 0.7696(3)
C52_6 C 0.2425(2) 0.5541(3) 0.7450(4)
H43_6 H 0.2605 0.5384 0.7444
C54_6 C 0.20722(17) 0.2960(2) 0.7664(2)
C57_6 C 0.10353(18) 0.3919(4) 0.7605(3)
C58_6 C 0.18561(15) 0.2340(2) 0.9539(3)
H46_6 H 0.1689 0.2169 0.9179
C61_6 C 0.1965(2) 0.5430(2) 0.9716(4)
C62_6 C 0.1858(2) 0.6092(3) 0.7441(4)
H48_6 H 0.1686 0.6254 0.7465
C65_6 C 0.1035(2) 0.4444(4) 0.7634(3)
C66_6 C 0.2286(2) 0.5323(3) 0.7753(3)
C68_6 C 0.2022(2) 0.5574(3) 0.7756(3)
N1_6 N 0.23265(9) 0.35351(14) 0.99256(17)
N2_6 N 0.21234(9) 0.35594(14) 0.93172(17)
N3_6 N 0.19245(9) 0.31346(15) 0.90793(16)
N4_6 N 0.13659(13) 0.37586(18) 0.7949(2)
N5_6 N 0.15518(11) 0.4200(2) 0.81759(17)
N6_6 N 0.13542(15) 0.46252(17) 0.7997(2)
N7_6 N 0.18984(11) 0.51946(18) 0.91971(19)
N8_6 N 0.21022(10) 0.47786(15) 0.93839(18)
N9_6 N 0.22918(10) 0.47414(15) 0.99903(19)
N11_6 N 0.27119(9) 0.42371(12) 0.93954(16)
N12_6 N 0.29140(10) 0.42765(13) 0.91893(16)
N13_6 N 0.23552(11) 0.48774(16) 0.80713(18)
N14_6 N 0.21432(12) 0.48679(16) 0.82557(16)
N15_6 N 0.19238(12) 0.52859(19) 0.80829(19)
N16_6 N 0.23736(11) 0.36987(16) 0.80291(17)
N17_6 N 0.21520(11) 0.36457(15) 0.81955(16)
N18_6 N 0.19658(10) 0.32131(17) 0.79854(17)
C12_6 C 0.7225(3) 0.0686(5) 0.0875(5)
H11_6 H 0.7327 0.0790 0.1277
O1_6 O 0.97870(9) 0.00400(16) 0.65367(16)
C19_6 C 0.6978(4) 0.0989(4) 0.0428(7)
H16_6 H 0.6906 0.1285 0.0532
C25_6 C 0.72023(18) 0.0139(3) 0.0189(3)
C28_6 C 0.7324(2) 0.0272(3) 0.0777(4)
H23_6 H 0.7480 0.0053 0.1099
C67_6 C 0.99508(19) 0.0925(3) 0.6765(4)
H51_6 H 0.9713 0.1007 0.6561
Zn5_4 Zn 0.343296(19) 0.03440(3) 0.67161(3)
C4_7 C 0.3024(4) 0.1301(5) 0.7873(7)
H4_7 H 0.3123 0.1606 0.8097
C5_7 C 0.3186(2) 0.0877(3) 0.5222(4)
H5_7 H 0.3364 0.1075 0.5544
C10_7 C 0.2737(4) 0.1039(4) 0.7856(5)
H10_7 H 0.2650 0.1202 0.8057
C12_7 C 0.2775(3) 0.0686(5) 0.4125(5)
H11_7 H 0.2673 0.0790 0.3723
H12_7 H 0.4252 0.0122 0.7656
C19_7 C 0.3022(4) 0.0989(4) 0.4572(7)
H16_7 H 0.3094 0.1285 0.4468
C25_7 C 0.27977(18) 0.0139(3) 0.4811(3)
C28_7 C 0.2676(2) 0.0272(3) 0.4223(4)
H23_7 H 0.2520 0.0053 0.3901
C52_7 C 0.2575(2) 0.0541(3) 0.7550(4)
H43_7 H 0.2395 0.0384 0.7556
C61_7 C 0.3035(2) 0.0430(2) 0.5284(4)
C62_7 C 0.3142(2) 0.1092(3) 0.7559(4)
H48_7 H 0.3314 0.1254 0.7535
C66_7 C 0.2714(2) 0.0323(3) 0.7247(3)
C68_7 C 0.2978(2) 0.0574(3) 0.7244(3)
N7_7 N 0.31016(11) 0.01946(18) 0.58029(19)
N15_7 N 0.30762(12) 0.02859(19) 0.69171(19)
O17_4 O 0.3835(3) 0.0774(4) 0.6704(4)
O18_4 O 0.3678(3) 0.0945(4) 0.7192(7)
Zn1_7 Zn 0.287192(13) 0.921114(18) 0.62112(2)
Zn2_7 Zn 0.236051(14) 0.91502(2) 0.45832(2)
Zn3_3 Zn 0.230406(16) 0.93047(2) 0.67218(3)
Zn4_4 Zn 0.339669(16) 0.80447(2) 0.68383(3)
C1_7 C 0.27500(18) 0.7394(3) 0.4329(3)
H1_7 H 0.2676 0.7239 0.3957
C3_7 C 0.3018(2) 0.7140(2) 0.4889(4)
H3_7 H 0.3110 0.6825 0.4864
C7_7 C 0.2607(3) 0.7606(4) 0.7888(5)
H7_7 H 0.2507 0.7480 0.8084
C8_7 C 0.1508(2) 0.8888(4) 0.1466(3)
H8_7 H 0.1697 0.8664 0.1710
C9_7 C 0.4610(5) 0.9477(5) 0.7950(8)
H9_7 H 0.4817 0.9652 0.8071
C11_7 C 0.17510(13) 0.92893(16) 0.5301(2)
C13_7 C 0.4265(3) 0.9759(5) 0.7652(6)
C14_7 C 0.17669(13) 0.92512(16) 0.4802(2)
C15_7 C 0.2865(3) 0.7307(4) 0.7901(5)
H13_7 H 0.2926 0.6986 0.8100
C16_7 C 0.4270(2) 0.8620(3) 0.7718(4)
H14_7 H 0.4274 0.8256 0.7744
C18_7 C 0.14263(15) 0.9332(2) 0.5246(3)
H15_7 H 0.1419 0.9360 0.5587
C21_7 C 0.1168(3) 0.9537(3) 0.1379(3)
H18_7 H 0.1106 0.9797 0.1545
C22_7 C 0.3031(2) 0.7462(3) 0.7640(4)
H19_7 H 0.3202 0.7257 0.7655
C24_7 C 0.2498(2) 0.8081(3) 0.7594(4)
H21_7 H 0.2324 0.8278 0.7583
C26_7 C 0.29978(13) 0.78246(19) 0.5451(3)
C27_7 C 0.4604(2) 0.8976(6) 0.8031(6)
H22_7 H 0.4820 0.8814 0.8300
C30_7 C 0.26066(14) 0.7846(2) 0.4334(2)
H24_7 H 0.2425 0.8004 0.3977
C33_7 C 0.2016(2) 0.9202(3) 0.3454(2)
C34_7 C 0.16197(18) 0.9288(3) 0.2412(3)
H27_7 H 0.1519 0.9523 0.2537
C35_7 C 0.10614(17) 0.9129(3) 0.0476(3)
C41_7 C 0.14500(15) 0.92364(18) 0.4203(2)
H35_7 H 0.1451 0.9198 0.3857
C44_7 C 0.26666(17) 0.8259(3) 0.7304(3)
C45_7 C 0.14254(18) 0.9222(3) 0.1736(2)
C47_7 C 0.0971(2) 0.9485(3) 0.0700(3)
H38_7 H 0.0784 0.9709 0.0445
C49_7 C 0.11437(15) 0.9282(2) 0.4170(3)
H40_7 H 0.0933 0.9280 0.3785
C50_7 C 0.11280(16) 0.9330(2) 0.4672(3)
H41_7 H 0.0910 0.9361 0.4615
C54_7 C 0.29278(17) 0.7960(2) 0.7336(2)
C57_7 C 0.39647(18) 0.8919(4) 0.7395(3)
C58_7 C 0.31439(15) 0.7340(2) 0.5461(3)
H46_7 H 0.3311 0.7169 0.5821
C59_7 C 0.1873(2) 0.9094(3) 0.2798(3)
H47_7 H 0.1993 0.8865 0.2704
C65_7 C 0.3965(2) 0.9444(4) 0.7366(3)
C69_7 C 0.1328(2) 0.8841(4) 0.0820(3)
H52_7 H 0.1405 0.8604 0.0654
C74_7 C 0.27455(13) 0.8072(2) 0.4914(2)
N1_7 N 0.26735(9) 0.85351(14) 0.50744(17)
N2_7 N 0.28766(9) 0.85594(14) 0.56828(17)
N3_7 N 0.30755(9) 0.81346(15) 0.59207(16)
N4_7 N 0.36341(13) 0.87586(18) 0.7051(2)
N5_7 N 0.34482(11) 0.9200(2) 0.68241(17)
N6_7 N 0.36458(15) 0.96252(17) 0.7003(2)
N8_7 N 0.28978(10) 0.97786(15) 0.56161(18)
N9_7 N 0.27082(10) 0.97414(15) 0.50097(19)
N10_7 N 0.21036(10) 0.92200(12) 0.49969(16)
N11_7 N 0.22881(9) 0.92371(12) 0.56046(16)
N12_7 N 0.20860(10) 0.92765(13) 0.58107(16)
N13_7 N 0.26448(11) 0.98774(16) 0.69287(18)
N14_7 N 0.28568(12) 0.98679(16) 0.67443(16)
N16_7 N 0.26264(11) 0.86987(16) 0.69709(17)
N17_7 N 0.28480(11) 0.86457(15) 0.68045(16)
N18_7 N 0.30342(10) 0.82131(17) 0.70146(17)
O5_7 O 0.22990(18) 0.89442(19) 0.3783(2)
O6_7 O 0.19377(16) 0.9414(3) 0.3701(2)
O13_4 O 0.38061(14) 0.7581(2) 0.7057(3)
O14_4 O 0.33819(17) 0.7166(2) 0.6917(3)
O15_3 O 0.18711(15) 0.9175(3) 0.6703(2)
O16_3 O 0.2305(2) 0.9425(3) 0.7559(3)
C2_7 C 0.13985(16) 0.9462(2) 0.8101(3)
H2_7 H 0.1606 0.9655 0.8310
C6_7 C 0.0995(2) 0.8922(3) 0.7263(3)
H6_7 H 0.0932 0.8740 0.6912
C17_7 C 0.04497(11) 0.91988(17) 0.88093(17)
H17_7 H 0.0155 0.7707 0.8215
O2_7 O 0.01133(11) 0.84845(17) 0.88194(16)
C31_7 C 0.01212(13) 0.9533(2) 0.8385(2)
H26_7 H 0.0017 0.9433 0.7964
C36_7 C 0.03436(15) 0.8614(2) 0.8675(2)
H28_7 H 0.0553 0.8398 0.8909
H29_7 H 0.0237 0.8544 0.8245
C37_7 C 0.07433(12) 0.93224(19) 0.87006(19)
H30_7 H 0.0962 0.9153 0.9009
H31_7 H 0.0784 0.9697 0.8720
C38_7 C 0.05863(13) 0.93462(19) 0.9471(2)
H32_7 H 0.0407 0.9277 0.9546
H33_7 H 0.0645 0.9715 0.9542
C39_7 C 0.1990(3) 0.9310(3) 0.7202(5)
C40_7 C 0.1518(2) 0.9178(3) 0.7300(4)
H34_7 H 0.1413 0.9054 0.6905
C42_7 C 0.07748(17) 0.8912(2) 0.7465(3)
H36_7 H 0.0562 0.8733 0.7242
C51_7 C 0.11796(17) 0.9441(2) 0.8322(3)
H42_7 H 0.1243 0.9610 0.8681
C56_7 C 0.1803(3) 0.9312(3) 0.7568(4)
H45_7 H 0.1923 0.9417 0.7973
C60_7 C 0.1299(2) 0.9194(3) 0.7573(4)
C73_7 C 0.08716(16) 0.9163(2) 0.7986(3)
O9_7 O 0.08844(10) 0.90437(15) 0.98589(15)
O10_7 O 0.06260(9) 0.91356(13) 0.81350(15)
C29_7 C 0.99462(16) 0.0418(3) 0.8184(3)
C32_7 C 0.94464(17) 0.1223(3) 0.7692(3)
C43_7 C 0.93453(15) 0.0730(3) 0.7620(3)
H37_7 H 0.9107 0.0651 0.7403
C48_7 C 0.95994(19) 0.0312(2) 0.7873(3)
C53_7 C 0.8685(2) 0.2183(4) 0.7092(3)
C55_7 C 0.88911(19) 0.1677(3) 0.7273(3)
H44_7 H 0.8776 0.1364 0.7231
C63_7 C 0.92154(18) 0.1665(3) 0.7481(3)
H49_7 H 0.9316 0.1986 0.7498
C64_7 C 0.9801(2) 0.1316(3) 0.7984(4)
H50_7 H 0.9876 0.1660 0.8014
O3_4 O 0.88061(14) 0.2581(2) 0.7057(3)
O4_4 O 0.83819(17) 0.2166(2) 0.6917(3)
Zn7_4 Zn 0.839669(16) 0.30447(2) 0.68383(3)
C20_7 C 0.9977(2) 0.7656(4) 0.8275(5)
C23_7 C 0.9697(2) 0.7912(4) 0.8726(4)
H20_7 H 0.9673 0.8138 0.8974
H25_7 H 0.9948 0.9475 0.8478
C46_7 C 0.9927(2) 0.7995(3) 0.8581(4)
H39_7 H 0.9524 0.9966 0.7820
C70_7 C 0.9496(3) 0.7160(4) 0.8065(5)
C71_7 C 0.9771(3) 0.7232(4) 0.8045(6)
H53_7 H 0.9826 0.6976 0.7863
C72_7 C 0.9496(3) 0.7463(4) 0.8478(6)
H54_7 H 0.9353 0.7365 0.8605
C75_7 C 0.9248(3) 0.6726(4) 0.7863(6)
H55_7 H 0.9172 0.6634 0.8109
O11_4 O 0.8835(3) 0.5774(4) 0.6704(4)
O12_4 O 0.8678(3) 0.5945(4) 0.7192(7)
C76_7 C 0.9135(3) 0.6479(4) 0.7406(6)
H56_7 H 0.9235 0.6558 0.7194
C77_7 C 0.8846(3) 0.6045(4) 0.7112(6)
Zn8_4 Zn 0.843296(19) 0.53440(3) 0.67161(3)
Zn1_8 Zn 0.787192(13) 0.421114(18) 0.62112(2)
Zn2_8 Zn 0.736051(14) 0.41502(2) 0.45832(2)
Zn3_4 Zn 0.730406(16) 0.43047(2) 0.67218(3)
C1_8 C 0.77500(18) 0.2394(3) 0.4329(3)
H1_8 H 0.7676 0.2239 0.3957
C3_8 C 0.8018(2) 0.2140(2) 0.4889(4)
H3_8 H 0.8110 0.1825 0.4864
C4_8 C 0.8024(4) 0.6301(5) 0.7873(7)
H4_8 H 0.8123 0.6606 0.8097
C5_8 C 0.8186(2) 0.5877(3) 0.5222(4)
H5_8 H 0.8364 0.6075 0.5544
C7_8 C 0.7607(3) 0.2606(4) 0.7888(5)
H7_8 H 0.7507 0.2480 0.8084
C8_8 C 0.6508(2) 0.3888(4) 0.1466(3)
H8_8 H 0.6697 0.3664 0.1710
C9_8 C 0.9610(5) 0.4477(5) 0.7950(8)
H9_8 H 0.9817 0.4652 0.8071
C10_8 C 0.7737(4) 0.6039(4) 0.7856(5)
H10_8 H 0.7650 0.6202 0.8057
C11_8 C 0.67510(13) 0.42893(16) 0.5301(2)
C12_8 C 0.7775(3) 0.5686(5) 0.4125(5)
H11_8 H 0.7673 0.5790 0.3723
C13_8 C 0.9265(3) 0.4759(5) 0.7652(6)
H12_8 H 0.9252 0.5122 0.7656
C14_8 C 0.67669(13) 0.42512(16) 0.4802(2)
C15_8 C 0.7865(3) 0.2307(4) 0.7901(5)
H13_8 H 0.7926 0.1986 0.8100
C16_8 C 0.9270(2) 0.3620(3) 0.7718(4)
H14_8 H 0.9274 0.3256 0.7744
C18_8 C 0.64263(15) 0.4332(2) 0.5246(3)
H15_8 H 0.6419 0.4360 0.5587
C19_8 C 0.8022(4) 0.5989(4) 0.4572(7)
H16_8 H 0.8094 0.6285 0.4468
C21_8 C 0.6168(3) 0.4537(3) 0.1379(3)
H18_8 H 0.6106 0.4797 0.1545
C22_8 C 0.8031(2) 0.2462(3) 0.7640(4)
H19_8 H 0.8202 0.2257 0.7655
C24_8 C 0.7498(2) 0.3081(3) 0.7594(4)
H21_8 H 0.7324 0.3278 0.7583
C25_8 C 0.77977(18) 0.5139(3) 0.4811(3)
C26_8 C 0.79978(13) 0.28246(19) 0.5451(3)
C27_8 C 0.9604(2) 0.3976(6) 0.8031(6)
H22_8 H 0.9820 0.3814 0.8300
C28_8 C 0.7676(2) 0.5272(3) 0.4223(4)
H23_8 H 0.7520 0.5053 0.3901
C30_8 C 0.76066(14) 0.2846(2) 0.4334(2)
H24_8 H 0.7425 0.3004 0.3977
C33_8 C 0.7016(2) 0.4202(3) 0.3454(2)
C34_8 C 0.66197(18) 0.4288(3) 0.2412(3)
H27_8 H 0.6519 0.4523 0.2537
C35_8 C 0.60614(17) 0.4129(3) 0.0476(3)
C41_8 C 0.64500(15) 0.42364(18) 0.4203(2)
H35_8 H 0.6451 0.4198 0.3857
C44_8 C 0.76666(17) 0.3259(3) 0.7304(3)
C45_8 C 0.64254(18) 0.4222(3) 0.1736(2)
C47_8 C 0.5971(2) 0.4485(3) 0.0700(3)
H38_8 H 0.5784 0.4709 0.0445
C49_8 C 0.61437(15) 0.4282(2) 0.4170(3)
H40_8 H 0.5933 0.4280 0.3785
C50_8 C 0.61280(16) 0.4330(2) 0.4672(3)
H41_8 H 0.5910 0.4361 0.4615
C52_8 C 0.7575(2) 0.5541(3) 0.7550(4)
H43_8 H 0.7395 0.5384 0.7556
C54_8 C 0.79278(17) 0.2960(2) 0.7336(2)
C57_8 C 0.89647(18) 0.3919(4) 0.7395(3)
C58_8 C 0.81439(15) 0.2340(2) 0.5461(3)
H46_8 H 0.8311 0.2169 0.5821
C59_8 C 0.6873(2) 0.4094(3) 0.2798(3)
H47_8 H 0.6993 0.3865 0.2704
C61_8 C 0.8035(2) 0.5430(2) 0.5284(4)
C62_8 C 0.8142(2) 0.6092(3) 0.7559(4)
H48_8 H 0.8314 0.6254 0.7535
C65_8 C 0.8965(2) 0.4444(4) 0.7366(3)
C66_8 C 0.7714(2) 0.5323(3) 0.7247(3)
C68_8 C 0.7978(2) 0.5574(3) 0.7244(3)
C69_8 C 0.6328(2) 0.3841(4) 0.0820(3)
H52_8 H 0.6405 0.3604 0.0654
C74_8 C 0.77455(13) 0.3072(2) 0.4914(2)
N1_8 N 0.76735(9) 0.35351(14) 0.50744(17)
N2_8 N 0.78766(9) 0.35594(14) 0.56828(17)
N3_8 N 0.80755(9) 0.31346(15) 0.59207(16)
N4_8 N 0.86341(13) 0.37586(18) 0.7051(2)
N5_8 N 0.84482(11) 0.4200(2) 0.68241(17)
N6_8 N 0.86458(15) 0.46252(17) 0.7003(2)
N7_8 N 0.81016(11) 0.51946(18) 0.58029(19)
N8_8 N 0.78978(10) 0.47786(15) 0.56161(18)
N9_8 N 0.77082(10) 0.47414(15) 0.50097(19)
N10_8 N 0.71036(10) 0.42200(12) 0.49969(16)
N11_8 N 0.72881(9) 0.42371(12) 0.56046(16)
N12_8 N 0.70860(10) 0.42765(13) 0.58107(16)
N13_8 N 0.76448(11) 0.48774(16) 0.69287(18)
N14_8 N 0.78568(12) 0.48679(16) 0.67443(16)
N15_8 N 0.80762(12) 0.52859(19) 0.69171(19)
N16_8 N 0.76264(11) 0.36987(16) 0.69709(17)
N17_8 N 0.78480(11) 0.36457(15) 0.68045(16)
N18_8 N 0.80342(10) 0.32131(17) 0.70146(17)
O5_8 O 0.72990(18) 0.39442(19) 0.3783(2)
O6_8 O 0.69377(16) 0.4414(3) 0.3701(2)
O15_4 O 0.68711(15) 0.4175(3) 0.6703(2)
O16_4 O 0.7305(2) 0.4425(3) 0.7559(3)
C2_8 C 0.63985(16) 0.4462(2) 0.8101(3)
H2_8 H 0.6606 0.4655 0.8310
C6_8 C 0.5995(2) 0.3922(3) 0.7263(3)
H6_8 H 0.5932 0.3740 0.6912
C17_8 C 0.54497(11) 0.41988(17) 0.88093(17)
O1_7 O 0.52130(9) 0.50400(16) 0.84633(16)
C20_8 C 0.4977(2) 0.2656(4) 0.8275(5)
H17_8 H 0.5155 0.2707 0.8215
C23_8 C 0.4697(2) 0.2912(4) 0.8726(4)
H20_8 H 0.4673 0.3138 0.8974
C29_8 C 0.49462(16) 0.5418(3) 0.8184(3)
O2_8 O 0.51133(11) 0.34845(17) 0.88194(16)
C31_8 C 0.51212(13) 0.4533(2) 0.8385(2)
H25_8 H 0.4948 0.4475 0.8478
H26_8 H 0.5017 0.4433 0.7964
C32_8 C 0.44464(17) 0.6223(3) 0.7692(3)
C36_8 C 0.53436(15) 0.3614(2) 0.8675(2)
H28_8 H 0.5553 0.3398 0.8909
H29_8 H 0.5237 0.3544 0.8245
C37_8 C 0.57433(12) 0.43224(19) 0.87006(19)
H30_8 H 0.5962 0.4153 0.9009
H31_8 H 0.5784 0.4697 0.8720
C38_8 C 0.55863(13) 0.43462(19) 0.9471(2)
H32_8 H 0.5407 0.4277 0.9546
H33_8 H 0.5645 0.4715 0.9542
C39_8 C 0.6990(3) 0.4310(3) 0.7202(5)
C40_8 C 0.6518(2) 0.4178(3) 0.7300(4)
H34_8 H 0.6413 0.4054 0.6905
C42_8 C 0.57748(17) 0.3912(2) 0.7465(3)
H36_8 H 0.5562 0.3733 0.7242
C43_8 C 0.43453(15) 0.5730(3) 0.7620(3)
H37_8 H 0.4107 0.5651 0.7403
C46_8 C 0.4927(2) 0.2995(3) 0.8581(4)
C48_8 C 0.45994(19) 0.5312(2) 0.7873(3)
H39_8 H 0.4524 0.4966 0.7820
C51_8 C 0.61796(17) 0.4441(2) 0.8322(3)
H42_8 H 0.6243 0.4610 0.8681
C53_8 C 0.3685(2) 0.7183(4) 0.7092(3)
C55_8 C 0.38911(19) 0.6677(3) 0.7273(3)
H44_8 H 0.3776 0.6364 0.7231
C56_8 C 0.6803(3) 0.4312(3) 0.7568(4)
H45_8 H 0.6923 0.4417 0.7973
C60_8 C 0.6299(2) 0.4194(3) 0.7573(4)
C63_8 C 0.42154(18) 0.6665(3) 0.7481(3)
H49_8 H 0.4316 0.6986 0.7498
C64_8 C 0.4801(2) 0.6316(3) 0.7984(4)
H50_8 H 0.4876 0.6660 0.8014
C67_7 C 0.50492(19) 0.5925(3) 0.8235(4)
H51_7 H 0.5287 0.6007 0.8439
C70_8 C 0.4496(3) 0.2160(4) 0.8065(5)
C71_8 C 0.4771(3) 0.2232(4) 0.8045(6)
H53_8 H 0.4826 0.1976 0.7863
C72_8 C 0.4496(3) 0.2463(4) 0.8478(6)
H54_8 H 0.4353 0.2365 0.8605
C73_8 C 0.58716(16) 0.4163(2) 0.7986(3)
C75_8 C 0.4248(3) 0.1726(4) 0.7863(6)
H55_8 H 0.4172 0.1634 0.8109
O9_8 O 0.58844(10) 0.40437(15) 0.98589(15)
O10_8 O 0.56260(9) 0.41356(13) 0.81350(15)
C76_8 C 0.4135(3) 0.1479(4) 0.7406(6)
H56_8 H 0.4235 0.1558 0.7194
C77_8 C 0.3846(3) 0.1045(4) 0.7112(6)
O1_8 O 0.02130(9) 0.00400(16) 0.84633(16)
C67_8 C 0.00492(19) 0.0925(3) 0.8235(4)
H51_8 H 0.0287 0.1007 0.8439
loop_
_geom_bond_atom_site_label_1
_geom_bond_atom_site_label_2
_geom_bond_site_symmetry_1
_geom_bond_site_symmetry_2
Zn1 N2 1_555 1_555
Zn3 N12 1_555 1_555
Zn4 N3 1_555 1_555
C7 H7 1_555 1_555
C9 H9 1_555 1_555
C13 C9 1_555 1_555
C15 C7 1_555 1_555
H13 C15 1_555 1_555
C16 H14 1_555 1_555
C18 C11 1_555 1_555
H15 C18 1_555 1_555
C22 C15 1_555 1_555
H19 C22 1_555 1_555
C24 C7 1_555 1_555
H21 C24 1_555 1_555
C26 C58 1_555 1_555
C27 C9 1_555 1_555
H22 C27 1_555 1_555
C44 C24 1_555 1_555
C54 C22 1_555 1_555
C57 C16 1_555 1_555
H46 C58 1_555 1_555
C65 C13 1_555 1_555
N2 N1 1_555 1_555
N3 C26 1_555 1_555
N4 Zn4 1_555 1_555
N5 Zn1 1_555 1_555
N6 C65 1_555 1_555
N8 Zn1 1_555 1_555
N11 Zn1 1_555 1_555
N12 C11 1_555 1_555
N13 Zn3 1_555 1_555
N14 Zn1 1_555 1_555
N16 Zn3 1_555 1_555
N17 Zn1 1_555 1_555
N18 Zn4 1_555 1_555
O13 Zn4 1_555 1_555
O14 Zn4 1_555 1_555
O15 Zn3 1_555 1_555
O16 Zn3 1_555 1_555
C16 C27 1_555 1_555
C44 C54 1_555 1_555
C44 N16 1_555 1_555
C54 N18 1_555 1_555
C57 C65 1_555 1_555
C57 N4 1_555 1_555
N2 N3 1_555 1_555
N4 N5 1_555 1_555
N5 N6 1_555 1_555
N8 N9 1_555 1_555
N11 N12 1_555 1_555
N13 N14 1_555 1_555
N16 N17 1_555 1_555
N17 N18 1_555 1_555
C1 H1 1_555 1_555
C2 H2 1_555 1_555
C3 C1 1_555 1_555
H3 C3 1_555 1_555
C6 H6 1_555 1_555
C8 H8 1_555 1_555
C14 C41 1_555 1_555
C17 C31 1_555 1_555
C21 H18 1_555 1_555
O2 C36 1_555 1_555
C30 C1 1_555 1_555
H24 C30 1_555 1_555
H26 C31 1_555 1_555
C33 C59 1_555 1_555
C34 H27 1_555 1_555
C35 C47 1_555 1_555
C36 C17 1_555 1_555
H28 C36 1_555 1_555
H29 C36 1_555 1_555
C37 C17 1_555 1_555
H30 C37 1_555 1_555
H31 C37 1_555 1_555
C38 C17 1_555 1_555
H32 C38 1_555 1_555
H33 C38 1_555 1_555
C39 C56 1_555 1_555
C40 H34 1_555 1_555
C41 H35 1_555 1_555
C42 C6 1_555 1_555
H36 C42 1_555 1_555
C45 C8 1_555 1_555
C47 C21 1_555 1_555
H38 C47 1_555 1_555
C49 C41 1_555 1_555
H40 C49 1_555 1_555
H41 C50 1_555 1_555
C51 C2 1_555 1_555
H42 C51 1_555 1_555
C56 C40 1_555 1_555
H45 C56 1_555 1_555
C59 C34 1_555 1_555
H47 C59 1_555 1_555
C60 C2 1_555 1_555
C69 C8 1_555 1_555
H52 C69 1_555 1_555
C73 C42 1_555 1_555
N10 Zn2 1_555 1_555
O5 Zn2 1_555 1_555
O6 Zn2 1_555 1_555
O15 C39 1_555 1_555
O16 C39 1_555 1_555
O9 C35 1_555 1_555
O10 C37 1_555 1_555
C6 C60 1_555 1_555
C14 N10 1_555 1_555
C21 C45 1_555 1_555
C30 C74 1_555 1_555
C33 O5 1_555 1_555
C33 O6 1_555 1_555
C34 C45 1_555 1_555
C35 C69 1_555 1_555
C38 O9 1_555 1_555
C40 C60 1_555 1_555
C49 C50 1_555 1_555
C51 C73 1_555 1_555
C73 O10 1_555 1_555
C4 H4 1_555 1_555
C5 H5 1_555 1_555
C10 C4 1_555 1_555
H10 C10 1_555 1_555
C52 C10 1_555 1_555
H43 C52 1_555 1_555
C61 C5 1_555 1_555
C62 C4 1_555 1_555
H48 C62 1_555 1_555
C66 C52 1_555 1_555
C68 C62 1_555 1_555
N7 Zn5 1_555 1_555
N15 Zn5 1_555 1_555
O17 Zn5 1_555 1_555
O18 Zn5 1_555 1_555
C61 N7 1_555 1_555
C66 C68 1_555 1_555
C68 N15 1_555 1_555
C23 H20 1_555 1_555
C46 C20 1_555 1_555
C70 C71 1_555 1_555
C71 C20 1_555 1_555
H53 C71 1_555 1_555
C72 C23 1_555 1_555
H54 C72 1_555 1_555
C75 C70 1_555 1_555
H55 C75 1_555 1_555
O11 C77 1_555 1_555
O12 C77 1_555 1_555
C76 C75 1_555 1_555
H56 C76 1_555 1_555
C77 C76 1_555 1_555
Zn8 O11 1_555 1_555
C23 C46 1_555 1_555
C70 C72 1_555 1_555
O12 Zn8 1_555 1_555
C29 C48 1_555 1_555
C32 C43 1_555 1_555
C43 H37 1_555 1_555
C48 C43 1_555 1_555
C53 C55 1_555 1_555
C55 H44 1_555 1_555
C63 C32 1_555 1_555
H49 C63 1_555 1_555
C64 C32 1_555 1_555
H50 C64 1_555 1_555
O3 C53 1_555 1_555
O4 C53 1_555 1_555
Zn7 O3 1_555 1_555
C55 C63 1_555 1_555
O4 Zn7 1_555 1_555
Zn1_2 N2_2 1_555 1_555
Zn3_2 N12_2 1_555 1_555
Zn7 N3_2 1_555 1_555
Zn8 N6_2 1_555 1_555
C4_2 H4_2 1_555 1_555
C5_2 H5_2 1_555 1_555
C7_2 H7_2 1_555 1_555
C9_2 H9_2 1_555 1_555
C10_2 C4_2 1_555 1_555
H10_2 C10_2 1_555 1_555
C13_2 C9_2 1_555 1_555
H12_2 C13_2 1_555 1_555
C15_2 C7_2 1_555 1_555
H13_2 C15_2 1_555 1_555
C16_2 H14_2 1_555 1_555
C18_2 C11_2 1_555 1_555
H15_2 C18_2 1_555 1_555
C22_2 C15_2 1_555 1_555
H19_2 C22_2 1_555 1_555
C24_2 C7_2 1_555 1_555
H21_2 C24_2 1_555 1_555
C26_2 C58_2 1_555 1_555
C27_2 C9_2 1_555 1_555
H22_2 C27_2 1_555 1_555
C44_2 C24_2 1_555 1_555
C52_2 C10_2 1_555 1_555
H43_2 C52_2 1_555 1_555
C54_2 C22_2 1_555 1_555
C57_2 C16_2 1_555 1_555
H46_2 C58_2 1_555 1_555
C61_2 C5_2 1_555 1_555
C62_2 C4_2 1_555 1_555
H48_2 C62_2 1_555 1_555
C65_2 C13_2 1_555 1_555
C66_2 C52_2 1_555 1_555
C68_2 C62_2 1_555 1_555
N2_2 N1_2 1_555 1_555
N3_2 C26_2 1_555 1_555
N4_2 Zn7 1_555 1_555
N5_2 Zn1_2 1_555 1_555
N6_2 C65_2 1_555 1_555
N7_2 Zn8 1_555 1_555
N8_2 Zn1_2 1_555 1_555
N11_2 Zn1_2 1_555 1_555
N12_2 C11_2 1_555 1_555
N13_2 Zn3_2 1_555 1_555
N14_2 Zn1_2 1_555 1_555
N15_2 Zn8 1_555 1_555
N16_2 Zn3_2 1_555 1_555
N17_2 Zn1_2 1_555 1_555
N18_2 Zn7 1_555 1_555
O15_2 Zn3_2 1_555 1_555
O16_2 Zn3_2 1_555 1_555
C16_2 C27_2 1_555 1_555
C44_2 C54_2 1_555 1_555
C44_2 N16_2 1_555 1_555
C54_2 N18_2 1_555 1_555
C57_2 C65_2 1_555 1_555
C57_2 N4_2 1_555 1_555
C61_2 N7_2 1_555 1_555
C66_2 C68_2 1_555 1_555
C66_2 N13_2 1_555 1_555
C68_2 N15_2 1_555 1_555
N2_2 N3_2 1_555 1_555
N4_2 N5_2 1_555 1_555
N5_2 N6_2 1_555 1_555
N7_2 N8_2 1_555 1_555
N8_2 N9_2 1_555 1_555
N11_2 N12_2 1_555 1_555
N13_2 N14_2 1_555 1_555
N14_2 N15_2 1_555 1_555
N16_2 N17_2 1_555 1_555
N17_2 N18_2 1_555 1_555
C1_2 H1_2 1_555 1_555
C2_2 H2_2 1_555 1_555
C3_2 C1_2 1_555 1_555
H3_2 C3_2 1_555 1_555
C6_2 H6_2 1_555 1_555
C8_2 H8_2 1_555 1_555
C12 H11 1_555 1_555
C14_2 C41_2 1_555 1_555
C17_2 C31_2 1_555 1_555
O1 C29_2 1_555 1_555
H16 C19 1_555 1_555
C20_2 H17_2 1_555 1_555
C21_2 H18_2 1_555 1_555
C23_2 H20_2 1_555 1_555
C25 C28 1_555 1_555
C28 C12 1_555 1_555
H23 C28 1_555 1_555
C29_2 C48_2 1_555 1_555
O2_2 C36_2 1_555 1_555
C30_2 C1_2 1_555 1_555
H24_2 C30_2 1_555 1_555
C31_2 O1 1_555 1_555
H25_2 C31_2 1_555 1_555
H26_2 C31_2 1_555 1_555
C32_2 C43_2 1_555 1_555
C33_2 C59_2 1_555 1_555
C34_2 H27_2 1_555 1_555
C35_2 C47_2 1_555 1_555
C36_2 C17_2 1_555 1_555
H28_2 C36_2 1_555 1_555
H29_2 C36_2 1_555 1_555
C37_2 C17_2 1_555 1_555
H30_2 C37_2 1_555 1_555
H31_2 C37_2 1_555 1_555
C38_2 C17_2 1_555 1_555
H32_2 C38_2 1_555 1_555
H33_2 C38_2 1_555 1_555
C39_2 C56_2 1_555 1_555
C40_2 H34_2 1_555 1_555
C41_2 H35_2 1_555 1_555
C42_2 C6_2 1_555 1_555
H36_2 C42_2 1_555 1_555
C43_2 H37_2 1_555 1_555
C45_2 C8_2 1_555 1_555
C46_2 C20_2 1_555 1_555
C47_2 C21_2 1_555 1_555
H38_2 C47_2 1_555 1_555
C48_2 C43_2 1_555 1_555
H39_2 C48_2 1_555 1_555
C49_2 C41_2 1_555 1_555
H40_2 C49_2 1_555 1_555
H41_2 C50_2 1_555 1_555
C51_2 C2_2 1_555 1_555
H42_2 C51_2 1_555 1_555
C53_2 C55_2 1_555 1_555
C55_2 H44_2 1_555 1_555
C56_2 C40_2 1_555 1_555
H45_2 C56_2 1_555 1_555
C59_2 C34_2 1_555 1_555
H47_2 C59_2 1_555 1_555
C60_2 C2_2 1_555 1_555
C63_2 C32_2 1_555 1_555
H49_2 C63_2 1_555 1_555
C64_2 C32_2 1_555 1_555
H50_2 C64_2 1_555 1_555
C67 C29_2 1_555 1_555
H51 C67 1_555 1_555
C69_2 C8_2 1_555 1_555
H52_2 C69_2 1_555 1_555
C70_2 C71_2 1_555 1_555
C71_2 C20_2 1_555 1_555
H53_2 C71_2 1_555 1_555
C72_2 C23_2 1_555 1_555
H54_2 C72_2 1_555 1_555
C73_2 C42_2 1_555 1_555
N10_2 Zn2_2 1_555 1_555
O13 C53_2 1_555 1_555
O14 C53_2 1_555 1_555
O5_2 Zn2_2 1_555 1_555
O6_2 Zn2_2 1_555 1_555
O15_2 C39_2 1_555 1_555
O16_2 C39_2 1_555 1_555
C75_2 C70_2 1_555 1_555
H55_2 C75_2 1_555 1_555
O9_2 C35_2 1_555 1_555
O10_2 C37_2 1_555 1_555
O17 C77_2 1_555 1_555
O18 C77_2 1_555 1_555
C76_2 C75_2 1_555 1_555
H56_2 C76_2 1_555 1_555
C77_2 C76_2 1_555 1_555
C6_2 C60_2 1_555 1_555
C12 C19 1_555 1_555
C14_2 N10_2 1_555 1_555
C21_2 C45_2 1_555 1_555
C23_2 C46_2 1_555 1_555
O2_2 C46_2 1_555 1_555
C30_2 C74_2 1_555 1_555
C33_2 O5_2 1_555 1_555
C33_2 O6_2 1_555 1_555
C34_2 C45_2 1_555 1_555
C35_2 C69_2 1_555 1_555
C38_2 O9_2 1_555 1_555
C40_2 C60_2 1_555 1_555
C49_2 C50_2 1_555 1_555
C51_2 C73_2 1_555 1_555
C55_2 C63_2 1_555 1_555
C64_2 C67 1_555 1_555
C70_2 C72_2 1_555 1_555
C73_2 O10_2 1_555 1_555
C12_2 H11_2 1_555 1_555
H16_2 C19_2 1_555 1_555
C25_2 C28_2 1_555 1_555
C28_2 C12_2 1_555 1_555
H23_2 C28_2 1_555 1_555
H51_2 C67_2 1_555 1_555
C12_2 C19_2 1_555 1_555
C23_3 H20_3 1_555 1_555
C46_3 C20_3 1_555 1_555
C70_3 C71_3 1_555 1_555
C71_3 C20_3 1_555 1_555
H53_3 C71_3 1_555 1_555
C72_3 C23_3 1_555 1_555
H54_3 C72_3 1_555 1_555
C75_3 C70_3 1_555 1_555
H55_3 C75_3 1_555 1_555
O11_2 C77_3 1_555 1_555
O12_2 C77_3 1_555 1_555
C76_3 C75_3 1_555 1_555
H56_3 C76_3 1_555 1_555
C77_3 C76_3 1_555 1_555
Zn8_2 O11_2 1_555 1_555
C23_3 C46_3 1_555 1_555
C70_3 C72_3 1_555 1_555
O12_2 Zn8_2 1_555 1_555
C29_3 C48_3 1_555 1_555
C32_3 C43_3 1_555 1_555
C43_3 H37_3 1_555 1_555
C48_3 C43_3 1_555 1_555
C53_3 C55_3 1_555 1_555
C55_3 H44_3 1_555 1_555
C63_3 C32_3 1_555 1_555
H49_3 C63_3 1_555 1_555
C64_3 C32_3 1_555 1_555
H50_3 C64_3 1_555 1_555
O3_2 C53_3 1_555 1_555
O4_2 C53_3 1_555 1_555
Zn7_2 O3_2 1_555 1_555
C55_3 C63_3 1_555 1_555
O4_2 Zn7_2 1_555 1_555
C2_3 H2_3 1_555 1_555
C6_3 H6_3 1_555 1_555
C17_3 C31_3 1_555 1_555
O2_3 C36_3 1_555 1_555
H26_3 C31_3 1_555 1_555
C36_3 C17_3 1_555 1_555
H28_3 C36_3 1_555 1_555
H29_3 C36_3 1_555 1_555
C37_3 C17_3 1_555 1_555
H30_3 C37_3 1_555 1_555
H31_3 C37_3 1_555 1_555
C38_3 C17_3 1_555 1_555
H32_3 C38_3 1_555 1_555
H33_3 C38_3 1_555 1_555
C39_3 C56_3 1_555 1_555
C40_3 H34_3 1_555 1_555
C42_3 C6_3 1_555 1_555
H36_3 C42_3 1_555 1_555
C51_3 C2_3 1_555 1_555
H42_3 C51_3 1_555 1_555
C56_3 C40_3 1_555 1_555
H45_3 C56_3 1_555 1_555
C60_3 C2_3 1_555 1_555
C73_3 C42_3 1_555 1_555
O7 C39_3 1_555 1_555
O8 C39_3 1_555 1_555
O10_3 C37_3 1_555 1_555
Zn6 O7 1_555 1_555
C6_3 C60_3 1_555 1_555
C38_3 O9_3 1_555 1_555
C40_3 C60_3 1_555 1_555
C51_3 C73_3 1_555 1_555
C73_3 O10_3 1_555 1_555
O8 Zn6 1_555 1_555
Zn1_3 N2_3 1_555 1_555
Zn2_3 N1_3 1_555 1_555
Zn6 N12_3 1_555 1_555
Zn4_2 N3_3 1_555 1_555
C1_3 H1_3 1_555 1_555
C3_3 C1_3 1_555 1_555
H3_3 C3_3 1_555 1_555
C7_3 H7_3 1_555 1_555
C8_3 H8_3 1_555 1_555
C9_3 H9_3 1_555 1_555
C11_3 C14_3 1_555 1_555
C13_3 C9_3 1_555 1_555
C14_3 C41_3 1_555 1_555
C15_3 C7_3 1_555 1_555
H13_3 C15_3 1_555 1_555
C16_3 H14_3 1_555 1_555
C18_3 C11_3 1_555 1_555
H15_3 C18_3 1_555 1_555
C21_3 H18_3 1_555 1_555
C22_3 C15_3 1_555 1_555
H19_3 C22_3 1_555 1_555
C24_3 C7_3 1_555 1_555
H21_3 C24_3 1_555 1_555
C26_3 C58_3 1_555 1_555
C27_3 C9_3 1_555 1_555
H22_3 C27_3 1_555 1_555
C30_3 C1_3 1_555 1_555
H24_3 C30_3 1_555 1_555
C33_3 C59_3 1_555 1_555
C34_3 H27_3 1_555 1_555
C35_3 C47_3 1_555 1_555
C41_3 H35_3 1_555 1_555
C44_3 C24_3 1_555 1_555
C45_3 C8_3 1_555 1_555
C47_3 C21_3 1_555 1_555
H38_3 C47_3 1_555 1_555
C49_3 C41_3 1_555 1_555
H40_3 C49_3 1_555 1_555
C50_3 C18_3 1_555 1_555
H41_3 C50_3 1_555 1_555
C54_3 C22_3 1_555 1_555
C57_3 C16_3 1_555 1_555
C58_3 C3_3 1_555 1_555
H46_3 C58_3 1_555 1_555
C59_3 C34_3 1_555 1_555
H47_3 C59_3 1_555 1_555
C65_3 C13_3 1_555 1_555
C69_3 C8_3 1_555 1_555
H52_3 C69_3 1_555 1_555
C74_3 C26_3 1_555 1_555
N1_3 C74_3 1_555 1_555
N2_3 N1_3 1_555 1_555
N3_3 C26_3 1_555 1_555
N4_3 Zn4_2 1_555 1_555
N5_3 Zn1_3 1_555 1_555
N6_3 C65_3 1_555 1_555
N8_3 Zn1_3 1_555 1_555
N9_3 Zn2_3 1_555 1_555
N10_3 Zn2_3 1_555 1_555
N11_3 Zn1_3 1_555 1_555
N12_3 C11_3 1_555 1_555
N13_3 Zn6 1_555 1_555
N14_3 Zn1_3 1_555 1_555
N16_3 Zn6 1_555 1_555
N17_3 Zn1_3 1_555 1_555
N18_3 Zn4_2 1_555 1_555
O5_3 Zn2_3 1_555 1_555
O6_3 Zn2_3 1_555 1_555
O13_2 Zn4_2 1_555 1_555
O14_2 Zn4_2 1_555 1_555
C14_3 N10_3 1_555 1_555
C16_3 C27_3 1_555 1_555
C21_3 C45_3 1_555 1_555
C30_3 C74_3 1_555 1_555
C33_3 O5_3 1_555 1_555
C33_3 O6_3 1_555 1_555
C34_3 C45_3 1_555 1_555
C35_3 C69_3 1_555 1_555
C44_3 C54_3 1_555 1_555
C44_3 N16_3 1_555 1_555
C49_3 C50_3 1_555 1_555
C54_3 N18_3 1_555 1_555
C57_3 C65_3 1_555 1_555
C57_3 N4_3 1_555 1_555
N2_3 N3_3 1_555 1_555
N4_3 N5_3 1_555 1_555
N5_3 N6_3 1_555 1_555
N8_3 N9_3 1_555 1_555
N10_3 N11_3 1_555 1_555
N11_3 N12_3 1_555 1_555
N13_3 N14_3 1_555 1_555
N16_3 N17_3 1_555 1_555
N17_3 N18_3 1_555 1_555
C4_3 H4_3 1_555 1_555
C5_3 H5_3 1_555 1_555
C10_3 C4_3 1_555 1_555
H10_3 C10_3 1_555 1_555
C12_3 H11_3 1_555 1_555
C19_3 C5_3 1_555 1_555
H16_3 C19_3 1_555 1_555
C25_3 C28_3 1_555 1_555
C28_3 C12_3 1_555 1_555
H23_3 C28_3 1_555 1_555
C52_3 C10_3 1_555 1_555
H43_3 C52_3 1_555 1_555
C61_3 C5_3 1_555 1_555
C62_3 C4_3 1_555 1_555
H48_3 C62_3 1_555 1_555
C66_3 C52_3 1_555 1_555
C68_3 C62_3 1_555 1_555
N7_3 Zn5_2 1_555 1_555
N15_3 Zn5_2 1_555 1_555
O17_2 Zn5_2 1_555 1_555
O18_2 Zn5_2 1_555 1_555
C12_3 C19_3 1_555 1_555
C25_3 C61_3 1_555 1_555
C61_3 N7_3 1_555 1_555
C66_3 C68_3 1_555 1_555
C68_3 N15_3 1_555 1_555
C2_4 H2_4 1_555 1_555
C6_4 H6_4 1_555 1_555
C17_4 C31_4 1_555 1_555
O1_3 C29_4 1_555 1_555
C20_4 H17_4 1_555 1_555
C23_4 H20_4 1_555 1_555
C29_4 C48_4 1_555 1_555
O2_4 C36_4 1_555 1_555
C31_4 O1_3 1_555 1_555
H25_4 C31_4 1_555 1_555
H26_4 C31_4 1_555 1_555
C32_4 C43_4 1_555 1_555
C36_4 C17_4 1_555 1_555
H28_4 C36_4 1_555 1_555
H29_4 C36_4 1_555 1_555
C37_4 C17_4 1_555 1_555
H30_4 C37_4 1_555 1_555
H31_4 C37_4 1_555 1_555
C38_4 C17_4 1_555 1_555
H32_4 C38_4 1_555 1_555
H33_4 C38_4 1_555 1_555
C39_4 C56_4 1_555 1_555
C40_4 H34_4 1_555 1_555
C42_4 C6_4 1_555 1_555
H36_4 C42_4 1_555 1_555
C43_4 H37_4 1_555 1_555
C46_4 C20_4 1_555 1_555
C48_4 C43_4 1_555 1_555
H39_4 C48_4 1_555 1_555
C51_4 C2_4 1_555 1_555
H42_4 C51_4 1_555 1_555
C53_4 C55_4 1_555 1_555
C55_4 H44_4 1_555 1_555
C56_4 C40_4 1_555 1_555
H45_4 C56_4 1_555 1_555
C60_4 C2_4 1_555 1_555
C63_4 C32_4 1_555 1_555
H49_4 C63_4 1_555 1_555
C64_4 C32_4 1_555 1_555
H50_4 C64_4 1_555 1_555
C67_3 C29_4 1_555 1_555
H51_3 C67_3 1_555 1_555
C70_4 C71_4 1_555 1_555
C71_4 C20_4 1_555 1_555
H53_4 C71_4 1_555 1_555
C72_4 C23_4 1_555 1_555
H54_4 C72_4 1_555 1_555
C73_4 C42_4 1_555 1_555
O13_2 C53_4 1_555 1_555
O14_2 C53_4 1_555 1_555
O7_2 C39_4 1_555 1_555
O8_2 C39_4 1_555 1_555
C75_4 C70_4 1_555 1_555
H55_4 C75_4 1_555 1_555
O10_4 C37_4 1_555 1_555
O17_2 C77_4 1_555 1_555
O18_2 C77_4 1_555 1_555
C76_4 C75_4 1_555 1_555
H56_4 C76_4 1_555 1_555
C77_4 C76_4 1_555 1_555
Zn6_2 O7_2 1_555 1_555
C6_4 C60_4 1_555 1_555
C23_4 C46_4 1_555 1_555
O2_4 C46_4 1_555 1_555
C38_4 O9_4 1_555 1_555
C40_4 C60_4 1_555 1_555
C51_4 C73_4 1_555 1_555
C55_4 C63_4 1_555 1_555
C64_4 C67_3 1_555 1_555
C70_4 C72_4 1_555 1_555
C73_4 O10_4 1_555 1_555
O8_2 Zn6_2 1_555 1_555
Zn1_4 N2_4 1_555 1_555
Zn2_4 N1_4 1_555 1_555
Zn6_2 N12_4 1_555 1_555
Zn7_2 N3_4 1_555 1_555
Zn8_2 N6_4 1_555 1_555
C1_4 H1_4 1_555 1_555
C3_4 C1_4 1_555 1_555
H3_4 C3_4 1_555 1_555
C4_4 H4_4 1_555 1_555
C5_4 H5_4 1_555 1_555
C7_4 H7_4 1_555 1_555
C8_4 H8_4 1_555 1_555
C9_4 H9_4 1_555 1_555
C10_4 C4_4 1_555 1_555
H10_4 C10_4 1_555 1_555
C11_4 C14_4 1_555 1_555
C12_4 H11_4 1_555 1_555
C13_4 C9_4 1_555 1_555
H12_4 C13_4 1_555 1_555
C14_4 C41_4 1_555 1_555
C15_4 C7_4 1_555 1_555
H13_4 C15_4 1_555 1_555
C16_4 H14_4 1_555 1_555
C18_4 C11_4 1_555 1_555
H15_4 C18_4 1_555 1_555
C19_4 C5_4 1_555 1_555
H16_4 C19_4 1_555 1_555
C21_4 H18_4 1_555 1_555
C22_4 C15_4 1_555 1_555
H19_4 C22_4 1_555 1_555
C24_4 C7_4 1_555 1_555
H21_4 C24_4 1_555 1_555
C25_4 C28_4 1_555 1_555
C26_4 C58_4 1_555 1_555
C27_4 C9_4 1_555 1_555
H22_4 C27_4 1_555 1_555
C28_4 C12_4 1_555 1_555
H23_4 C28_4 1_555 1_555
C30_4 C1_4 1_555 1_555
H24_4 C30_4 1_555 1_555
C33_4 C59_4 1_555 1_555
C34_4 H27_4 1_555 1_555
C35_4 C47_4 1_555 1_555
C41_4 H35_4 1_555 1_555
C44_4 C24_4 1_555 1_555
C45_4 C8_4 1_555 1_555
C47_4 C21_4 1_555 1_555
H38_4 C47_4 1_555 1_555
C49_4 C41_4 1_555 1_555
H40_4 C49_4 1_555 1_555
C50_4 C18_4 1_555 1_555
H41_4 C50_4 1_555 1_555
C52_4 C10_4 1_555 1_555
H43_4 C52_4 1_555 1_555
C54_4 C22_4 1_555 1_555
C57_4 C16_4 1_555 1_555
C58_4 C3_4 1_555 1_555
H46_4 C58_4 1_555 1_555
C59_4 C34_4 1_555 1_555
H47_4 C59_4 1_555 1_555
C61_4 C5_4 1_555 1_555
C62_4 C4_4 1_555 1_555
H48_4 C62_4 1_555 1_555
C65_4 C13_4 1_555 1_555
C66_4 C52_4 1_555 1_555
C68_4 C62_4 1_555 1_555
C69_4 C8_4 1_555 1_555
H52_4 C69_4 1_555 1_555
C74_4 C26_4 1_555 1_555
N1_4 C74_4 1_555 1_555
N2_4 N1_4 1_555 1_555
N3_4 C26_4 1_555 1_555
N4_4 Zn7_2 1_555 1_555
N5_4 Zn1_4 1_555 1_555
N6_4 C65_4 1_555 1_555
N7_4 Zn8_2 1_555 1_555
N8_4 Zn1_4 1_555 1_555
N9_4 Zn2_4 1_555 1_555
N10_4 Zn2_4 1_555 1_555
N11_4 Zn1_4 1_555 1_555
N12_4 C11_4 1_555 1_555
N13_4 Zn6_2 1_555 1_555
N14_4 Zn1_4 1_555 1_555
N15_4 Zn8_2 1_555 1_555
N16_4 Zn6_2 1_555 1_555
N17_4 Zn1_4 1_555 1_555
N18_4 Zn7_2 1_555 1_555
O5_4 Zn2_4 1_555 1_555
O6_4 Zn2_4 1_555 1_555
C12_4 C19_4 1_555 1_555
C14_4 N10_4 1_555 1_555
C16_4 C27_4 1_555 1_555
C21_4 C45_4 1_555 1_555
C25_4 C61_4 1_555 1_555
C25_4 N9_4 1_555 1_555
C30_4 C74_4 1_555 1_555
C33_4 O5_4 1_555 1_555
C33_4 O6_4 1_555 1_555
C34_4 C45_4 1_555 1_555
C35_4 C69_4 1_555 1_555
C44_4 C54_4 1_555 1_555
C44_4 N16_4 1_555 1_555
C49_4 C50_4 1_555 1_555
C54_4 N18_4 1_555 1_555
C57_4 C65_4 1_555 1_555
C57_4 N4_4 1_555 1_555
C61_4 N7_4 1_555 1_555
C66_4 C68_4 1_555 1_555
C66_4 N13_4 1_555 1_555
C68_4 N15_4 1_555 1_555
N2_4 N3_4 1_555 1_555
N4_4 N5_4 1_555 1_555
N5_4 N6_4 1_555 1_555
N7_4 N8_4 1_555 1_555
N8_4 N9_4 1_555 1_555
N10_4 N11_4 1_555 1_555
N11_4 N12_4 1_555 1_555
N13_4 N14_4 1_555 1_555
N14_4 N15_4 1_555 1_555
N16_4 N17_4 1_555 1_555
N17_4 N18_4 1_555 1_555
H51_4 C67_4 1_555 1_555
C29_5 C48_5 1_555 1_555
C32_5 C43_5 1_555 1_555
C43_5 H37_5 1_555 1_555
C48_5 C43_5 1_555 1_555
C53_5 C55_5 1_555 1_555
C55_5 H44_5 1_555 1_555
C63_5 C32_5 1_555 1_555
H49_5 C63_5 1_555 1_555
C64_5 C32_5 1_555 1_555
H50_5 C64_5 1_555 1_555
O3_3 C53_5 1_555 1_555
O4_3 C53_5 1_555 1_555
Zn7_3 O3_3 1_555 1_555
C55_5 C63_5 1_555 1_555
O4_3 Zn7_3 1_555 1_555
C23_5 H20_5 1_555 1_555
C46_5 C20_5 1_555 1_555
C70_5 C71_5 1_555 1_555
C71_5 C20_5 1_555 1_555
H53_5 C71_5 1_555 1_555
C72_5 C23_5 1_555 1_555
H54_5 C72_5 1_555 1_555
C75_5 C70_5 1_555 1_555
H55_5 C75_5 1_555 1_555
O11_3 C77_5 1_555 1_555
O12_3 C77_5 1_555 1_555
C76_5 C75_5 1_555 1_555
H56_5 C76_5 1_555 1_555
C77_5 C76_5 1_555 1_555
Zn8_3 O11_3 1_555 1_555
C23_5 C46_5 1_555 1_555
C70_5 C72_5 1_555 1_555
O12_3 Zn8_3 1_555 1_555
C4_5 H4_5 1_555 1_555
C5_5 H5_5 1_555 1_555
C10_5 C4_5 1_555 1_555
H10_5 C10_5 1_555 1_555
C52_5 C10_5 1_555 1_555
H43_5 C52_5 1_555 1_555
C61_5 C5_5 1_555 1_555
C62_5 C4_5 1_555 1_555
H48_5 C62_5 1_555 1_555
C66_5 C52_5 1_555 1_555
C68_5 C62_5 1_555 1_555
N7_5 Zn5_3 1_555 1_555
N15_5 Zn5_3 1_555 1_555
O17_3 Zn5_3 1_555 1_555
O18_3 Zn5_3 1_555 1_555
C61_5 N7_5 1_555 1_555
C66_5 C68_5 1_555 1_555
C68_5 N15_5 1_555 1_555
C1_5 H1_5 1_555 1_555
C2_5 H2_5 1_555 1_555
C3_5 C1_5 1_555 1_555
H3_5 C3_5 1_555 1_555
C6_5 H6_5 1_555 1_555
C8_5 H8_5 1_555 1_555
C14_5 C41_5 1_555 1_555
C17_5 C31_5 1_555 1_555
C21_5 H18_5 1_555 1_555
O2_5 C36_5 1_555 1_555
C30_5 C1_5 1_555 1_555
H24_5 C30_5 1_555 1_555
H26_5 C31_5 1_555 1_555
C33_5 C59_5 1_555 1_555
C34_5 H27_5 1_555 1_555
C35_5 C47_5 1_555 1_555
C36_5 C17_5 1_555 1_555
H28_5 C36_5 1_555 1_555
H29_5 C36_5 1_555 1_555
C37_5 C17_5 1_555 1_555
H30_5 C37_5 1_555 1_555
H31_5 C37_5 1_555 1_555
C38_5 C17_5 1_555 1_555
H32_5 C38_5 1_555 1_555
H33_5 C38_5 1_555 1_555
C39_5 C56_5 1_555 1_555
C40_5 H34_5 1_555 1_555
C41_5 H35_5 1_555 1_555
C42_5 C6_5 1_555 1_555
H36_5 C42_5 1_555 1_555
C45_5 C8_5 1_555 1_555
C47_5 C21_5 1_555 1_555
H38_5 C47_5 1_555 1_555
C49_5 C41_5 1_555 1_555
H40_5 C49_5 1_555 1_555
H41_5 C50_5 1_555 1_555
C51_5 C2_5 1_555 1_555
H42_5 C51_5 1_555 1_555
C56_5 C40_5 1_555 1_555
H45_5 C56_5 1_555 1_555
C59_5 C34_5 1_555 1_555
H47_5 C59_5 1_555 1_555
C60_5 C2_5 1_555 1_555
C69_5 C8_5 1_555 1_555
H52_5 C69_5 1_555 1_555
C73_5 C42_5 1_555 1_555
N10_5 Zn2_5 1_555 1_555
O5_5 Zn2_5 1_555 1_555
O6_5 Zn2_5 1_555 1_555
O7_3 C39_5 1_555 1_555
O8_3 C39_5 1_555 1_555
O9_5 C35_5 1_555 1_555
O10_5 C37_5 1_555 1_555
Zn6_3 O7_3 1_555 1_555
C6_5 C60_5 1_555 1_555
C14_5 N10_5 1_555 1_555
C21_5 C45_5 1_555 1_555
C30_5 C74_5 1_555 1_555
C33_5 O5_5 1_555 1_555
C33_5 O6_5 1_555 1_555
C34_5 C45_5 1_555 1_555
C35_5 C69_5 1_555 1_555
C38_5 O9_5 1_555 1_555
C40_5 C60_5 1_555 1_555
C49_5 C50_5 1_555 1_555
C51_5 C73_5 1_555 1_555
C73_5 O10_5 1_555 1_555
O8_3 Zn6_3 1_555 1_555
Zn1_5 N2_5 1_555 1_555
Zn6_3 N12_5 1_555 1_555
Zn4_3 N3_5 1_555 1_555
C7_5 H7_5 1_555 1_555
C9_5 H9_5 1_555 1_555
C13_5 C9_5 1_555 1_555
C15_5 C7_5 1_555 1_555
H13_5 C15_5 1_555 1_555
C16_5 H14_5 1_555 1_555
C18_5 C11_5 1_555 1_555
H15_5 C18_5 1_555 1_555
C22_5 C15_5 1_555 1_555
H19_5 C22_5 1_555 1_555
C24_5 C7_5 1_555 1_555
H21_5 C24_5 1_555 1_555
C26_5 C58_5 1_555 1_555
C27_5 C9_5 1_555 1_555
H22_5 C27_5 1_555 1_555
C44_5 C24_5 1_555 1_555
C54_5 C22_5 1_555 1_555
C57_5 C16_5 1_555 1_555
H46_5 C58_5 1_555 1_555
C65_5 C13_5 1_555 1_555
N2_5 N1_5 1_555 1_555
N3_5 C26_5 1_555 1_555
N4_5 Zn4_3 1_555 1_555
N5_5 Zn1_5 1_555 1_555
N6_5 C65_5 1_555 1_555
N8_5 Zn1_5 1_555 1_555
N11_5 Zn1_5 1_555 1_555
N12_5 C11_5 1_555 1_555
N13_5 Zn6_3 1_555 1_555
N14_5 Zn1_5 1_555 1_555
N16_5 Zn6_3 1_555 1_555
N17_5 Zn1_5 1_555 1_555
N18_5 Zn4_3 1_555 1_555
O13_3 Zn4_3 1_555 1_555
O14_3 Zn4_3 1_555 1_555
C16_5 C27_5 1_555 1_555
C44_5 C54_5 1_555 1_555
C44_5 N16_5 1_555 1_555
C54_5 N18_5 1_555 1_555
C57_5 C65_5 1_555 1_555
C57_5 N4_5 1_555 1_555
N2_5 N3_5 1_555 1_555
N4_5 N5_5 1_555 1_555
N5_5 N6_5 1_555 1_555
N8_5 N9_5 1_555 1_555
N11_5 N12_5 1_555 1_555
N13_5 N14_5 1_555 1_555
N16_5 N17_5 1_555 1_555
N17_5 N18_5 1_555 1_555
C1_6 H1_6 1_555 1_555
C2_6 H2_6 1_555 1_555
C3_6 C1_6 1_555 1_555
H3_6 C3_6 1_555 1_555
C6_6 H6_6 1_555 1_555
C8_6 H8_6 1_555 1_555
C12_5 H11_5 1_555 1_555
C14_6 C41_6 1_555 1_555
C17_6 C31_6 1_555 1_555
O1_5 C29_6 1_555 1_555
H16_5 C19_5 1_555 1_555
C20_6 H17_6 1_555 1_555
C21_6 H18_6 1_555 1_555
C23_6 H20_6 1_555 1_555
C25_5 C28_5 1_555 1_555
C28_5 C12_5 1_555 1_555
H23_5 C28_5 1_555 1_555
C29_6 C48_6 1_555 1_555
O2_6 C36_6 1_555 1_555
C30_6 C1_6 1_555 1_555
H24_6 C30_6 1_555 1_555
C31_6 O1_5 1_555 1_555
H25_6 C31_6 1_555 1_555
H26_6 C31_6 1_555 1_555
C32_6 C43_6 1_555 1_555
C33_6 C59_6 1_555 1_555
C34_6 H27_6 1_555 1_555
C35_6 C47_6 1_555 1_555
C36_6 C17_6 1_555 1_555
H28_6 C36_6 1_555 1_555
H29_6 C36_6 1_555 1_555
C37_6 C17_6 1_555 1_555
H30_6 C37_6 1_555 1_555
H31_6 C37_6 1_555 1_555
C38_6 C17_6 1_555 1_555
H32_6 C38_6 1_555 1_555
H33_6 C38_6 1_555 1_555
C39_6 C56_6 1_555 1_555
C40_6 H34_6 1_555 1_555
C41_6 H35_6 1_555 1_555
C42_6 C6_6 1_555 1_555
H36_6 C42_6 1_555 1_555
C43_6 H37_6 1_555 1_555
C45_6 C8_6 1_555 1_555
C46_6 C20_6 1_555 1_555
C47_6 C21_6 1_555 1_555
H38_6 C47_6 1_555 1_555
C48_6 C43_6 1_555 1_555
H39_6 C48_6 1_555 1_555
C49_6 C41_6 1_555 1_555
H40_6 C49_6 1_555 1_555
H41_6 C50_6 1_555 1_555
C51_6 C2_6 1_555 1_555
H42_6 C51_6 1_555 1_555
C53_6 C55_6 1_555 1_555
C55_6 H44_6 1_555 1_555
C56_6 C40_6 1_555 1_555
H45_6 C56_6 1_555 1_555
C59_6 C34_6 1_555 1_555
H47_6 C59_6 1_555 1_555
C60_6 C2_6 1_555 1_555
C63_6 C32_6 1_555 1_555
H49_6 C63_6 1_555 1_555
C64_6 C32_6 1_555 1_555
H50_6 C64_6 1_555 1_555
C67_5 C29_6 1_555 1_555
H51_5 C67_5 1_555 1_555
C69_6 C8_6 1_555 1_555
H52_6 C69_6 1_555 1_555
C70_6 C71_6 1_555 1_555
C71_6 C20_6 1_555 1_555
H53_6 C71_6 1_555 1_555
C72_6 C23_6 1_555 1_555
H54_6 C72_6 1_555 1_555
C73_6 C42_6 1_555 1_555
N10_6 Zn2_6 1_555 1_555
O13_3 C53_6 1_555 1_555
O14_3 C53_6 1_555 1_555
O5_6 Zn2_6 1_555 1_555
O6_6 Zn2_6 1_555 1_555
O7_4 C39_6 1_555 1_555
O8_4 C39_6 1_555 1_555
C75_6 C70_6 1_555 1_555
H55_6 C75_6 1_555 1_555
O9_6 C35_6 1_555 1_555
O10_6 C37_6 1_555 1_555
O17_3 C77_6 1_555 1_555
O18_3 C77_6 1_555 1_555
C76_6 C75_6 1_555 1_555
H56_6 C76_6 1_555 1_555
C77_6 C76_6 1_555 1_555
Zn6_4 O7_4 1_555 1_555
C6_6 C60_6 1_555 1_555
C12_5 C19_5 1_555 1_555
C14_6 N10_6 1_555 1_555
C21_6 C45_6 1_555 1_555
C23_6 C46_6 1_555 1_555
O2_6 C46_6 1_555 1_555
C30_6 C74_6 1_555 1_555
C33_6 O5_6 1_555 1_555
C33_6 O6_6 1_555 1_555
C34_6 C45_6 1_555 1_555
C35_6 C69_6 1_555 1_555
C38_6 O9_6 1_555 1_555
C40_6 C60_6 1_555 1_555
C49_6 C50_6 1_555 1_555
C51_6 C73_6 1_555 1_555
C55_6 C63_6 1_555 1_555
C64_6 C67_5 1_555 1_555
C70_6 C72_6 1_555 1_555
C73_6 O10_6 1_555 1_555
O8_4 Zn6_4 1_555 1_555
Zn1_6 N2_6 1_555 1_555
Zn6_4 N12_6 1_555 1_555
Zn7_3 N3_6 1_555 1_555
Zn8_3 N6_6 1_555 1_555
C4_6 H4_6 1_555 1_555
C5_6 H5_6 1_555 1_555
C7_6 H7_6 1_555 1_555
C9_6 H9_6 1_555 1_555
C10_6 C4_6 1_555 1_555
H10_6 C10_6 1_555 1_555
C13_6 C9_6 1_555 1_555
H12_6 C13_6 1_555 1_555
C15_6 C7_6 1_555 1_555
H13_6 C15_6 1_555 1_555
C16_6 H14_6 1_555 1_555
C18_6 C11_6 1_555 1_555
H15_6 C18_6 1_555 1_555
C22_6 C15_6 1_555 1_555
H19_6 C22_6 1_555 1_555
C24_6 C7_6 1_555 1_555
H21_6 C24_6 1_555 1_555
C26_6 C58_6 1_555 1_555
C27_6 C9_6 1_555 1_555
H22_6 C27_6 1_555 1_555
C44_6 C24_6 1_555 1_555
C52_6 C10_6 1_555 1_555
H43_6 C52_6 1_555 1_555
C54_6 C22_6 1_555 1_555
C57_6 C16_6 1_555 1_555
H46_6 C58_6 1_555 1_555
C61_6 C5_6 1_555 1_555
C62_6 C4_6 1_555 1_555
H48_6 C62_6 1_555 1_555
C65_6 C13_6 1_555 1_555
C66_6 C52_6 1_555 1_555
C68_6 C62_6 1_555 1_555
N2_6 N1_6 1_555 1_555
N3_6 C26_6 1_555 1_555
N4_6 Zn7_3 1_555 1_555
N5_6 Zn1_6 1_555 1_555
N6_6 C65_6 1_555 1_555
N7_6 Zn8_3 1_555 1_555
N8_6 Zn1_6 1_555 1_555
N11_6 Zn1_6 1_555 1_555
N12_6 C11_6 1_555 1_555
N13_6 Zn6_4 1_555 1_555
N14_6 Zn1_6 1_555 1_555
N15_6 Zn8_3 1_555 1_555
N16_6 Zn6_4 1_555 1_555
N17_6 Zn1_6 1_555 1_555
N18_6 Zn7_3 1_555 1_555
C16_6 C27_6 1_555 1_555
C44_6 C54_6 1_555 1_555
C44_6 N16_6 1_555 1_555
C54_6 N18_6 1_555 1_555
C57_6 C65_6 1_555 1_555
C57_6 N4_6 1_555 1_555
C61_6 N7_6 1_555 1_555
C66_6 C68_6 1_555 1_555
C66_6 N13_6 1_555 1_555
C68_6 N15_6 1_555 1_555
N2_6 N3_6 1_555 1_555
N4_6 N5_6 1_555 1_555
N5_6 N6_6 1_555 1_555
N7_6 N8_6 1_555 1_555
N8_6 N9_6 1_555 1_555
N11_6 N12_6 1_555 1_555
N13_6 N14_6 1_555 1_555
N14_6 N15_6 1_555 1_555
N16_6 N17_6 1_555 1_555
N17_6 N18_6 1_555 1_555
C12_6 H11_6 1_555 1_555
H16_6 C19_6 1_555 1_555
C25_6 C28_6 1_555 1_555
C28_6 C12_6 1_555 1_555
H23_6 C28_6 1_555 1_555
H51_6 C67_6 1_555 1_555
C12_6 C19_6 1_555 1_555
C4_7 H4_7 1_555 1_555
C5_7 H5_7 1_555 1_555
C10_7 C4_7 1_555 1_555
H10_7 C10_7 1_555 1_555
C12_7 H11_7 1_555 1_555
C19_7 C5_7 1_555 1_555
H16_7 C19_7 1_555 1_555
C25_7 C28_7 1_555 1_555
C28_7 C12_7 1_555 1_555
H23_7 C28_7 1_555 1_555
C52_7 C10_7 1_555 1_555
H43_7 C52_7 1_555 1_555
C61_7 C5_7 1_555 1_555
C62_7 C4_7 1_555 1_555
H48_7 C62_7 1_555 1_555
C66_7 C52_7 1_555 1_555
C68_7 C62_7 1_555 1_555
N7_7 Zn5_4 1_555 1_555
N15_7 Zn5_4 1_555 1_555
O17_4 Zn5_4 1_555 1_555
O18_4 Zn5_4 1_555 1_555
C12_7 C19_7 1_555 1_555
C25_7 C61_7 1_555 1_555
C61_7 N7_7 1_555 1_555
C66_7 C68_7 1_555 1_555
C68_7 N15_7 1_555 1_555
Zn1_7 N2_7 1_555 1_555
Zn2_7 N1_7 1_555 1_555
Zn3_3 N12_7 1_555 1_555
Zn4_4 N3_7 1_555 1_555
C1_7 H1_7 1_555 1_555
C3_7 C1_7 1_555 1_555
H3_7 C3_7 1_555 1_555
C7_7 H7_7 1_555 1_555
C8_7 H8_7 1_555 1_555
C9_7 H9_7 1_555 1_555
C11_7 C14_7 1_555 1_555
C13_7 C9_7 1_555 1_555
C14_7 C41_7 1_555 1_555
C15_7 C7_7 1_555 1_555
H13_7 C15_7 1_555 1_555
C16_7 H14_7 1_555 1_555
C18_7 C11_7 1_555 1_555
H15_7 C18_7 1_555 1_555
C21_7 H18_7 1_555 1_555
C22_7 C15_7 1_555 1_555
H19_7 C22_7 1_555 1_555
C24_7 C7_7 1_555 1_555
H21_7 C24_7 1_555 1_555
C26_7 C58_7 1_555 1_555
C27_7 C9_7 1_555 1_555
H22_7 C27_7 1_555 1_555
C30_7 C1_7 1_555 1_555
H24_7 C30_7 1_555 1_555
C33_7 C59_7 1_555 1_555
C34_7 H27_7 1_555 1_555
C35_7 C47_7 1_555 1_555
C41_7 H35_7 1_555 1_555
C44_7 C24_7 1_555 1_555
C45_7 C8_7 1_555 1_555
C47_7 C21_7 1_555 1_555
H38_7 C47_7 1_555 1_555
C49_7 C41_7 1_555 1_555
H40_7 C49_7 1_555 1_555
C50_7 C18_7 1_555 1_555
H41_7 C50_7 1_555 1_555
C54_7 C22_7 1_555 1_555
C57_7 C16_7 1_555 1_555
C58_7 C3_7 1_555 1_555
H46_7 C58_7 1_555 1_555
C59_7 C34_7 1_555 1_555
H47_7 C59_7 1_555 1_555
C65_7 C13_7 1_555 1_555
C69_7 C8_7 1_555 1_555
H52_7 C69_7 1_555 1_555
C74_7 C26_7 1_555 1_555
N1_7 C74_7 1_555 1_555
N2_7 N1_7 1_555 1_555
N3_7 C26_7 1_555 1_555
N4_7 Zn4_4 1_555 1_555
N5_7 Zn1_7 1_555 1_555
N6_7 C65_7 1_555 1_555
N8_7 Zn1_7 1_555 1_555
N9_7 Zn2_7 1_555 1_555
N10_7 Zn2_7 1_555 1_555
N11_7 Zn1_7 1_555 1_555
N12_7 C11_7 1_555 1_555
N13_7 Zn3_3 1_555 1_555
N14_7 Zn1_7 1_555 1_555
N16_7 Zn3_3 1_555 1_555
N17_7 Zn1_7 1_555 1_555
N18_7 Zn4_4 1_555 1_555
O5_7 Zn2_7 1_555 1_555
O6_7 Zn2_7 1_555 1_555
O13_4 Zn4_4 1_555 1_555
O14_4 Zn4_4 1_555 1_555
O15_3 Zn3_3 1_555 1_555
O16_3 Zn3_3 1_555 1_555
C14_7 N10_7 1_555 1_555
C16_7 C27_7 1_555 1_555
C21_7 C45_7 1_555 1_555
C30_7 C74_7 1_555 1_555
C33_7 O5_7 1_555 1_555
C33_7 O6_7 1_555 1_555
C34_7 C45_7 1_555 1_555
C35_7 C69_7 1_555 1_555
C44_7 C54_7 1_555 1_555
C44_7 N16_7 1_555 1_555
C49_7 C50_7 1_555 1_555
C54_7 N18_7 1_555 1_555
C57_7 C65_7 1_555 1_555
C57_7 N4_7 1_555 1_555
N2_7 N3_7 1_555 1_555
N4_7 N5_7 1_555 1_555
N5_7 N6_7 1_555 1_555
N8_7 N9_7 1_555 1_555
N10_7 N11_7 1_555 1_555
N11_7 N12_7 1_555 1_555
N13_7 N14_7 1_555 1_555
N16_7 N17_7 1_555 1_555
N17_7 N18_7 1_555 1_555
C2_7 H2_7 1_555 1_555
C6_7 H6_7 1_555 1_555
C17_7 C31_7 1_555 1_555
O2_7 C36_7 1_555 1_555
H26_7 C31_7 1_555 1_555
C36_7 C17_7 1_555 1_555
H28_7 C36_7 1_555 1_555
H29_7 C36_7 1_555 1_555
C37_7 C17_7 1_555 1_555
H30_7 C37_7 1_555 1_555
H31_7 C37_7 1_555 1_555
C38_7 C17_7 1_555 1_555
H32_7 C38_7 1_555 1_555
H33_7 C38_7 1_555 1_555
C39_7 C56_7 1_555 1_555
C40_7 H34_7 1_555 1_555
C42_7 C6_7 1_555 1_555
H36_7 C42_7 1_555 1_555
C51_7 C2_7 1_555 1_555
H42_7 C51_7 1_555 1_555
C56_7 C40_7 1_555 1_555
H45_7 C56_7 1_555 1_555
C60_7 C2_7 1_555 1_555
C73_7 C42_7 1_555 1_555
O15_3 C39_7 1_555 1_555
O16_3 C39_7 1_555 1_555
O10_7 C37_7 1_555 1_555
C6_7 C60_7 1_555 1_555
C38_7 O9_7 1_555 1_555
C40_7 C60_7 1_555 1_555
C51_7 C73_7 1_555 1_555
C73_7 O10_7 1_555 1_555
C29_7 C48_7 1_555 1_555
C32_7 C43_7 1_555 1_555
C43_7 H37_7 1_555 1_555
C48_7 C43_7 1_555 1_555
C53_7 C55_7 1_555 1_555
C55_7 H44_7 1_555 1_555
C63_7 C32_7 1_555 1_555
H49_7 C63_7 1_555 1_555
C64_7 C32_7 1_555 1_555
H50_7 C64_7 1_555 1_555
O3_4 C53_7 1_555 1_555
O4_4 C53_7 1_555 1_555
Zn7_4 O3_4 1_555 1_555
C55_7 C63_7 1_555 1_555
O4_4 Zn7_4 1_555 1_555
C23_7 H20_7 1_555 1_555
C46_7 C20_7 1_555 1_555
C70_7 C71_7 1_555 1_555
C71_7 C20_7 1_555 1_555
H53_7 C71_7 1_555 1_555
C72_7 C23_7 1_555 1_555
H54_7 C72_7 1_555 1_555
C75_7 C70_7 1_555 1_555
H55_7 C75_7 1_555 1_555
O11_4 C77_7 1_555 1_555
O12_4 C77_7 1_555 1_555
C76_7 C75_7 1_555 1_555
H56_7 C76_7 1_555 1_555
C77_7 C76_7 1_555 1_555
Zn8_4 O11_4 1_555 1_555
C23_7 C46_7 1_555 1_555
C70_7 C72_7 1_555 1_555
O12_4 Zn8_4 1_555 1_555
Zn1_8 N2_8 1_555 1_555
Zn2_8 N1_8 1_555 1_555
Zn3_4 N12_8 1_555 1_555
Zn7_4 N3_8 1_555 1_555
Zn8_4 N6_8 1_555 1_555
C1_8 H1_8 1_555 1_555
C3_8 C1_8 1_555 1_555
H3_8 C3_8 1_555 1_555
C4_8 H4_8 1_555 1_555
C5_8 H5_8 1_555 1_555
C7_8 H7_8 1_555 1_555
C8_8 H8_8 1_555 1_555
C9_8 H9_8 1_555 1_555
C10_8 C4_8 1_555 1_555
H10_8 C10_8 1_555 1_555
C11_8 C14_8 1_555 1_555
C12_8 H11_8 1_555 1_555
C13_8 C9_8 1_555 1_555
H12_8 C13_8 1_555 1_555
C14_8 C41_8 1_555 1_555
C15_8 C7_8 1_555 1_555
H13_8 C15_8 1_555 1_555
C16_8 H14_8 1_555 1_555
C18_8 C11_8 1_555 1_555
H15_8 C18_8 1_555 1_555
C19_8 C5_8 1_555 1_555
H16_8 C19_8 1_555 1_555
C21_8 H18_8 1_555 1_555
C22_8 C15_8 1_555 1_555
H19_8 C22_8 1_555 1_555
C24_8 C7_8 1_555 1_555
H21_8 C24_8 1_555 1_555
C25_8 C28_8 1_555 1_555
C26_8 C58_8 1_555 1_555
C27_8 C9_8 1_555 1_555
H22_8 C27_8 1_555 1_555
C28_8 C12_8 1_555 1_555
H23_8 C28_8 1_555 1_555
C30_8 C1_8 1_555 1_555
H24_8 C30_8 1_555 1_555
C33_8 C59_8 1_555 1_555
C34_8 H27_8 1_555 1_555
C35_8 C47_8 1_555 1_555
C41_8 H35_8 1_555 1_555
C44_8 C24_8 1_555 1_555
C45_8 C8_8 1_555 1_555
C47_8 C21_8 1_555 1_555
H38_8 C47_8 1_555 1_555
C49_8 C41_8 1_555 1_555
H40_8 C49_8 1_555 1_555
C50_8 C18_8 1_555 1_555
H41_8 C50_8 1_555 1_555
C52_8 C10_8 1_555 1_555
H43_8 C52_8 1_555 1_555
C54_8 C22_8 1_555 1_555
C57_8 C16_8 1_555 1_555
C58_8 C3_8 1_555 1_555
H46_8 C58_8 1_555 1_555
C59_8 C34_8 1_555 1_555
H47_8 C59_8 1_555 1_555
C61_8 C5_8 1_555 1_555
C62_8 C4_8 1_555 1_555
H48_8 C62_8 1_555 1_555
C65_8 C13_8 1_555 1_555
C66_8 C52_8 1_555 1_555
C68_8 C62_8 1_555 1_555
C69_8 C8_8 1_555 1_555
H52_8 C69_8 1_555 1_555
C74_8 C26_8 1_555 1_555
N1_8 C74_8 1_555 1_555
N2_8 N1_8 1_555 1_555
N3_8 C26_8 1_555 1_555
N4_8 Zn7_4 1_555 1_555
N5_8 Zn1_8 1_555 1_555
N6_8 C65_8 1_555 1_555
N7_8 Zn8_4 1_555 1_555
N8_8 Zn1_8 1_555 1_555
N9_8 Zn2_8 1_555 1_555
N10_8 Zn2_8 1_555 1_555
N11_8 Zn1_8 1_555 1_555
N12_8 C11_8 1_555 1_555
N13_8 Zn3_4 1_555 1_555
N14_8 Zn1_8 1_555 1_555
N15_8 Zn8_4 1_555 1_555
N16_8 Zn3_4 1_555 1_555
N17_8 Zn1_8 1_555 1_555
N18_8 Zn7_4 1_555 1_555
O5_8 Zn2_8 1_555 1_555
O6_8 Zn2_8 1_555 1_555
O15_4 Zn3_4 1_555 1_555
O16_4 Zn3_4 1_555 1_555
C12_8 C19_8 1_555 1_555
C14_8 N10_8 1_555 1_555
C16_8 C27_8 1_555 1_555
C21_8 C45_8 1_555 1_555
C25_8 C61_8 1_555 1_555
C25_8 N9_8 1_555 1_555
C30_8 C74_8 1_555 1_555
C33_8 O5_8 1_555 1_555
C33_8 O6_8 1_555 1_555
C34_8 C45_8 1_555 1_555
C35_8 C69_8 1_555 1_555
C44_8 C54_8 1_555 1_555
C44_8 N16_8 1_555 1_555
C49_8 C50_8 1_555 1_555
C54_8 N18_8 1_555 1_555
C57_8 C65_8 1_555 1_555
C57_8 N4_8 1_555 1_555
C61_8 N7_8 1_555 1_555
C66_8 C68_8 1_555 1_555
C66_8 N13_8 1_555 1_555
C68_8 N15_8 1_555 1_555
N2_8 N3_8 1_555 1_555
N4_8 N5_8 1_555 1_555
N5_8 N6_8 1_555 1_555
N7_8 N8_8 1_555 1_555
N8_8 N9_8 1_555 1_555
N10_8 N11_8 1_555 1_555
N11_8 N12_8 1_555 1_555
N13_8 N14_8 1_555 1_555
N14_8 N15_8 1_555 1_555
N16_8 N17_8 1_555 1_555
N17_8 N18_8 1_555 1_555
C2_8 H2_8 1_555 1_555
C6_8 H6_8 1_555 1_555
C17_8 C31_8 1_555 1_555
O1_7 C29_8 1_555 1_555
C20_8 H17_8 1_555 1_555
C23_8 H20_8 1_555 1_555
C29_8 C48_8 1_555 1_555
O2_8 C36_8 1_555 1_555
C31_8 O1_7 1_555 1_555
H25_8 C31_8 1_555 1_555
H26_8 C31_8 1_555 1_555
C32_8 C43_8 1_555 1_555
C36_8 C17_8 1_555 1_555
H28_8 C36_8 1_555 1_555
H29_8 C36_8 1_555 1_555
C37_8 C17_8 1_555 1_555
H30_8 C37_8 1_555 1_555
H31_8 C37_8 1_555 1_555
C38_8 C17_8 1_555 1_555
H32_8 C38_8 1_555 1_555
H33_8 C38_8 1_555 1_555
C39_8 C56_8 1_555 1_555
C40_8 H34_8 1_555 1_555
C42_8 C6_8 1_555 1_555
H36_8 C42_8 1_555 1_555
C43_8 H37_8 1_555 1_555
C46_8 C20_8 1_555 1_555
C48_8 C43_8 1_555 1_555
H39_8 C48_8 1_555 1_555
C51_8 C2_8 1_555 1_555
H42_8 C51_8 1_555 1_555
C53_8 C55_8 1_555 1_555
C55_8 H44_8 1_555 1_555
C56_8 C40_8 1_555 1_555
H45_8 C56_8 1_555 1_555
C60_8 C2_8 1_555 1_555
C63_8 C32_8 1_555 1_555
H49_8 C63_8 1_555 1_555
C64_8 C32_8 1_555 1_555
H50_8 C64_8 1_555 1_555
C67_7 C29_8 1_555 1_555
H51_7 C67_7 1_555 1_555
C70_8 C71_8 1_555 1_555
C71_8 C20_8 1_555 1_555
H53_8 C71_8 1_555 1_555
C72_8 C23_8 1_555 1_555
H54_8 C72_8 1_555 1_555
C73_8 C42_8 1_555 1_555
O13_4 C53_8 1_555 1_555
O14_4 C53_8 1_555 1_555
O15_4 C39_8 1_555 1_555
O16_4 C39_8 1_555 1_555
C75_8 C70_8 1_555 1_555
H55_8 C75_8 1_555 1_555
O10_8 C37_8 1_555 1_555
O17_4 C77_8 1_555 1_555
O18_4 C77_8 1_555 1_555
C76_8 C75_8 1_555 1_555
H56_8 C76_8 1_555 1_555
C77_8 C76_8 1_555 1_555
C6_8 C60_8 1_555 1_555
C23_8 C46_8 1_555 1_555
O2_8 C46_8 1_555 1_555
C38_8 O9_8 1_555 1_555
C40_8 C60_8 1_555 1_555
C51_8 C73_8 1_555 1_555
C55_8 C63_8 1_555 1_555
C64_8 C67_7 1_555 1_555
C70_8 C72_8 1_555 1_555
C73_8 O10_8 1_555 1_555
H51_8 C67_8 1_555 1_555

#END
