
###############################################################################
#
# This file contains modified crystal structure data generated from the
# MOF subset of the Cambridge Structural Database (CSD) v543 
# hosted by the Cambridge Crystallographic Data Centre (CCDC).
#
# This work is licensed under the Creative Commons
# Attribution-NonCommercial-ShareAlike 4.0 International License.
# To view a copy of this license, visit
# http://creativecommons.org/licenses/by-nc-sa/4.0/
# or send a letter to
# Creative Commons, PO Box 1866, Mountain View, CA 94042, USA.
#
# CIF created using the CSD Python API on 29 September 2022
# The structure has been converted into the P1 space group
# The structure has a 3D framework
# The original CSD entry FAYQAZ is in the monoclinic crystal system
# The framework has been calculated to contain at least 10.0% void space
# The void calculation uses a probe of radius 1.32A, grid spacing 0.4
#
###############################################################################

data_FAYQAZ
_chemical_formula_moiety         '(C632 H544 N144 O128 Zn40)n'
_symmetry_cell_setting           triclinic
_symmetry_space_group_name_H-M   'P 1'
_symmetry_Int_Tables_number      1
_space_group_name_Hall           'P 1'
loop_
_symmetry_equiv_pos_site_id
_symmetry_equiv_pos_as_xyz
1 x,y,z
_cell_length_a                   42.5614(4)
_cell_length_b                   19.89766(18)
_cell_length_c                   41.130(2)
_cell_angle_alpha                90
_cell_angle_beta                 120.0768(2)
_cell_angle_gamma                90
_cell_volume                     30141.9
loop_
_atom_site_label
_atom_site_type_symbol
_atom_site_fract_x
_atom_site_fract_y
_atom_site_fract_z
Zn4 Zn 0.33618(2) 0.11093(5) 0.35888(3)
C23 C 0.39771(19) 0.0054(5) 0.3878(2)
C24 C 0.4308(3) 0.0389(3) 0.4058(3)
H19 H 0.4314 0.0856 0.4068
C25 C 0.46306(19) 0.0026(5) 0.4223(3)
C28 C 0.4985(8) 0.025(2) 0.4559(9)
H23 H 0.4947 0.0336 0.4767
H24 H 0.5069 0.0648 0.4497
C29 C 0.2903(4) 0.1338(6) 0.2707(5)
C30 C 0.2664(4) 0.0954(11) 0.2442(4)
C31 C 0.2505(3) 0.1199(8) 0.2066(4)
H25 H 0.2329 0.0957 0.1862
C32 C 0.2624(5) 0.1799(11) 0.2024(5)
H26 H 0.2527 0.1946 0.1778
C33 C 0.2867(5) 0.2223(6) 0.2292(6)
C34 C 0.3031(3) 0.2013(7) 0.2676(4)
H27 H 0.3196 0.2268 0.2879
C35 C 0.2934(3) 0.2863(6) 0.2179(4)
H28 H 0.3110 0.3105 0.2396
H29 H 0.2712 0.3116 0.2055
H30 H 0.3024 0.2798 0.2009
C44 C 0.02025(17) 0.0182(4) 0.45617(17)
H37 H 0.0071 0.0084 0.4693
H38 H 0.0375 0.0539 0.4695
H44 H 0.0747 0.0138 0.4450
C61 C 0.1595(3) 0.0037(7) 0.6236(3)
C62 C 0.1576(3) 0.0551(5) 0.6007(4)
H53 H 0.1715 0.0939 0.6101
C63 C 0.1336(3) 0.0461(5) 0.5629(3)
C64 C 0.1466(4) 0.1525(7) 0.5495(3)
H54 H 0.1413 0.1800 0.5281
H55 H 0.1723 0.1459 0.5645
H56 H 0.1379 0.1745 0.5643
C65 C 0.1835(4) 0.0105(7) 0.6657(4)
H57 H 0.0922 0.0193 0.4070
H58 H 0.1362 0.0279 0.3871
C73 C 0.2908(3) 0.1254(6) 0.3981(3)
C74 C 0.2654(3) 0.0888(6) 0.3990(3)
C75 C 0.2485(3) 0.1086(6) 0.4184(3)
H63 H 0.2310 0.0823 0.4195
C76 C 0.2591(5) 0.1705(9) 0.4363(5)
C77 C 0.2847(5) 0.2117(7) 0.4329(4)
H64 H 0.2901 0.2544 0.4436
C78 C 0.3016(3) 0.1880(7) 0.4139(4)
H65 H 0.3191 0.2128 0.4119
C79 C 0.2418(4) 0.2031(8) 0.4578(4)
H66 H 0.2250 0.1721 0.4588
H67 H 0.2292 0.2433 0.4450
H68 H 0.2605 0.2140 0.4828
N10 N 0.36170(19) 0.0206(3) 0.36915(18)
N13 N 0.30035(16) 0.0979(5) 0.30234(18)
N14 N 0.2817(2) 0.0408(3) 0.2913(2)
N15 N 0.2601(2) 0.0378(4) 0.2551(3)
N16 N 0.30100(16) 0.0928(4) 0.37725(19)
N17 N 0.28278(17) 0.0352(3) 0.36788(14)
N18 N 0.26009(16) 0.0311(3) 0.38125(17)
O7 O 0.2047(2) 0.0596(4) 0.67707(16)
O12 O 0.12964(18) 0.0915(4) 0.5375(2)
Zn8 Zn 0.22719(3) 0.03495(6) 0.73100(2)
O19 O 0.3779(3) 0.1673(5) 0.3948(3)
O20 O 0.1824(2) 0.0320(5) 0.1869(2)
Zn1 Zn 0.284610(18) 0.96245(4) 0.329773(19)
Zn2 Zn 0.22933(2) 0.95025(4) 0.37239(2)
Zn3 Zn 0.34264(2) 0.82188(4) 0.35679(2)
Zn5 Zn 0.22719(3) 0.96505(6) 0.23100(2)
C1 C 0.2935(2) 0.7941(5) 0.2711(3)
C2 C 0.2695(3) 0.8313(6) 0.2436(3)
C3 C 0.2506(3) 0.8100(6) 0.2061(4)
H1 H 0.2327 0.8360 0.1869
C4 C 0.2601(3) 0.7501(8) 0.2000(3)
H2 H 0.2486 0.7334 0.1756
C5 C 0.2872(3) 0.7103(5) 0.2293(4)
C6 C 0.3061(2) 0.7315(5) 0.2675(3)
H3 H 0.3243 0.7070 0.2873
C7 C 0.3001(2) 0.6379(5) 0.2230(3)
H4 H 0.2866 0.6263 0.1968
H5 H 0.2960 0.6048 0.2374
H6 H 0.3255 0.6394 0.2310
C8 C 0.3019(3) 0.7902(5) 0.3987(2)
C9 C 0.2748(3) 0.8195(5) 0.4023(3)
C10 C 0.2614(3) 0.7899(7) 0.4235(4)
H7 H 0.2424 0.8094 0.4252
C11 C 0.2764(4) 0.7337(8) 0.4412(4)
H8 H 0.2696 0.7146 0.4574
C12 C 0.3026(5) 0.7031(7) 0.4352(4)
C13 C 0.3179(3) 0.7311(7) 0.4159(3)
H9 H 0.3372 0.7118 0.4146
C14 C 0.3183(5) 0.6335(8) 0.4548(5)
H10 H 0.3056 0.6188 0.4674
H11 H 0.3436 0.6382 0.4728
H12 H 0.3151 0.6009 0.4362
C15 C 0.1705(3) 0.9382(5) 0.2870(4)
C16 C 0.1691(3) 0.9421(5) 0.2547(4)
C17 C 0.1383(4) 0.9284(6) 0.2186(3)
H13 H 0.1390 0.9273 0.1964
C18 C 0.1080(4) 0.9175(8) 0.2204(5)
C19 C 0.1085(5) 0.9101(8) 0.2545(6)
H14 H 0.0871 0.8975 0.2537
C20 C 0.1401(4) 0.9210(6) 0.2905(4)
H15 H 0.1406 0.9172 0.3133
C21 C 0.0733(4) 0.8956(9) 0.1843(4)
H16 H 0.0538 0.8903 0.1896
H17 H 0.0776 0.8536 0.1757
H18 H 0.0668 0.9292 0.1653
C22 C 0.3969(2) 0.9356(5) 0.3863(2)
C26 C 0.4622(2) 0.9328(5) 0.4208(3)
H20 H 0.4838 0.9085 0.4318
C27 C 0.4291(3) 0.8993(3) 0.4028(3)
H21 H 0.4285 0.8526 0.4018
H22 H 0.5162 0.9898 0.4627
C45 C 0.03955(16) 0.9582(3) 0.45514(17)
C46 C 0.01287(16) 0.9028(3) 0.43610(16)
H40 H 0.0255 0.8617 0.4368
C47 C 0.06535(17) 0.9379(3) 0.49440(17)
H41 H 0.0526 0.9314 0.5082
H42 H 0.0774 0.8963 0.4948
C48 C 0.05919(17) 0.9749(3) 0.43388(17)
H43 H 0.0418 0.9852 0.4079
C55 C 0.0014(5) 0.7054(10) 0.4936(7)
H48 H 0.0265 0.6942 0.5102
C56 C 0.1830(3) 0.9438(8) 0.3905(3)
C58 C 0.1133(2) 0.9909(5) 0.5475(3)
C59 C 0.11688(19) 0.9420(4) 0.5725(3)
H51 H 0.1036 0.9025 0.5633
C60 C 0.1395(2) 0.9489(5) 0.6112(3)
H52 H 0.1405 0.9159 0.6277
C66 C 0.1031(2) 0.9262(6) 0.4233(2)
C67 C 0.1068(2) 0.9827(6) 0.4094(3)
C68 C 0.1336(3) 0.9883(5) 0.3975(2)
C69 C 0.1549(2) 0.9335(7) 0.4022(3)
C70 C 0.1500(3) 0.8799(7) 0.4158(3)
H59 H 0.1645 0.8425 0.4192
C71 C 0.1235(3) 0.8767(7) 0.4255(3)
C72 C 0.1329(6) 0.7753(11) 0.4440(7)
H60 H 0.1276 0.7425 0.4577
H61 H 0.1587 0.7825 0.4565
H62 H 0.1245 0.7592 0.4190
N1 N 0.26220(16) 0.8895(3) 0.2547(2)
N2 N 0.28421(19) 0.8891(3) 0.2906(2)
N3 N 0.30441(14) 0.8327(4) 0.30154(19)
N4 N 0.31007(14) 0.8287(4) 0.37711(16)
N5 N 0.28787(16) 0.8817(3) 0.36740(13)
N6 N 0.26660(14) 0.8769(3) 0.38285(17)
N7 N 0.2054(2) 0.9500(3) 0.31538(16)
N8 N 0.22578(16) 0.9581(3) 0.2999(2)
N9 N 0.2052(2) 0.9566(3) 0.2632(2)
N11 N 0.34311(15) 0.9639(4) 0.35902(14)
N12 N 0.36430(17) 0.9128(4) 0.36855(17)
O3 O 0.1972(2) 0.8907(5) 0.3886(2)
O4 O 0.1892(2) 0.9936(5) 0.3809(3)
O6 O 0.1824(2) 0.9680(5) 0.6869(2)
O11 O 0.1187(3) 0.8245(6) 0.4427(4)
O13 O 0.09138(13) 0.9915(2) 0.51080(16)
O14 O 0.08021(14) 0.9186(3) 0.43588(13)
O17 O 0.3915(3) 0.7703(5) 0.4126(3)
O18 O 0.37090(15) 0.7483(3) 0.3534(2)
O21 O 0.2047(2) 0.9404(4) 0.17707(16)
C36 C 0.8915(3) 0.2388(6) 0.3880(4)
C37 C 0.9215(2) 0.1853(5) 0.3949(3)
C38 C 0.9201(3) 0.1513(6) 0.3675(3)
H31 H 0.9022 0.1585 0.3426
C39 C 0.9472(3) 0.1031(6) 0.3779(3)
C40 C 0.9725(2) 0.0878(5) 0.4132(3)
C41 C 0.97191(18) 0.1251(5) 0.4391(2)
H32 H 0.9895 0.1169 0.4640
C42 C 0.9464(2) 0.1772(4) 0.4322(3)
H33 H 0.9467 0.2031 0.4511
C43 C 0.9209(3) 0.0724(6) 0.3122(3)
H34 H 0.9254 0.0411 0.2973
H35 H 0.9217 0.1174 0.3043
H36 H 0.8973 0.0639 0.3091
O1 O 0.8915(3) 0.2703(5) 0.4126(3)
O2 O 0.87090(15) 0.2483(3) 0.3534(2)
O9 O 0.99587(13) 0.0386(3) 0.41921(13)
O16 O 0.94852(17) 0.0645(4) 0.3518(2)
Zn6 Zn 0.84264(2) 0.32188(4) 0.35679(2)
H39 H 0.9964 0.9144 0.4100
C49 C 0.9657(3) 0.8510(7) 0.4373(3)
C50 C 0.9321(4) 0.8737(6) 0.4115(3)
H45 H 0.9272 0.9190 0.4057
C51 C 0.9037(3) 0.8201(10) 0.3932(3)
H46 H 0.8820 0.8321 0.3720
C52 C 0.9069(4) 0.7630(6) 0.4037(5)
C53 C 0.9377(5) 0.7466(7) 0.4312(4)
H47 H 0.9425 0.7030 0.4407
C54 C 0.9637(4) 0.7974(9) 0.4466(5)
H49 H 0.9899 0.6697 0.4757
H50 H 0.9894 0.7114 0.5078
C57 C 0.8727(5) 0.7057(10) 0.3742(8)
O5 O 0.8779(3) 0.6673(5) 0.3948(3)
O8 O 0.8474(3) 0.7394(6) 0.3674(3)
O10 O 0.9991(4) 0.7729(6) 0.4719(3)
O15 O 0.99336(14) 0.8934(3) 0.45483(13)
Zn7 Zn 0.83618(2) 0.61093(5) 0.35888(3)
Zn1_2 Zn 0.784610(18) 0.46245(4) 0.329773(19)
Zn2_2 Zn 0.72933(2) 0.45025(4) 0.37239(2)
Zn5_2 Zn 0.72719(3) 0.46505(6) 0.23100(2)
C1_2 C 0.7935(2) 0.2941(5) 0.2711(3)
C2_2 C 0.7695(3) 0.3313(6) 0.2436(3)
C3_2 C 0.7506(3) 0.3100(6) 0.2061(4)
H1_2 H 0.7327 0.3360 0.1869
C4_2 C 0.7601(3) 0.2501(8) 0.2000(3)
H2_2 H 0.7486 0.2334 0.1756
C5_2 C 0.7872(3) 0.2103(5) 0.2293(4)
C6_2 C 0.8061(2) 0.2315(5) 0.2675(3)
H3_2 H 0.8243 0.2070 0.2873
C7_2 C 0.8001(2) 0.1379(5) 0.2230(3)
H4_2 H 0.7866 0.1263 0.1968
H5_2 H 0.7960 0.1048 0.2374
H6_2 H 0.8255 0.1394 0.2310
C8_2 C 0.8019(3) 0.2902(5) 0.3987(2)
C9_2 C 0.7748(3) 0.3195(5) 0.4023(3)
C10_2 C 0.7614(3) 0.2899(7) 0.4235(4)
H7_2 H 0.7424 0.3094 0.4252
C11_2 C 0.7764(4) 0.2337(8) 0.4412(4)
H8_2 H 0.7696 0.2146 0.4574
C12_2 C 0.8026(5) 0.2031(7) 0.4352(4)
C13_2 C 0.8179(3) 0.2311(7) 0.4159(3)
H9_2 H 0.8372 0.2118 0.4146
C14_2 C 0.8183(5) 0.1335(8) 0.4548(5)
H10_2 H 0.8056 0.1188 0.4674
H11_2 H 0.8436 0.1382 0.4728
H12_2 H 0.8151 0.1009 0.4362
C15_2 C 0.6705(3) 0.4382(5) 0.2870(4)
C16_2 C 0.6691(3) 0.4421(5) 0.2547(4)
C17_2 C 0.6383(4) 0.4284(6) 0.2186(3)
H13_2 H 0.6390 0.4273 0.1964
C18_2 C 0.6080(4) 0.4175(8) 0.2204(5)
C19_2 C 0.6085(5) 0.4101(8) 0.2545(6)
H14_2 H 0.5871 0.3975 0.2537
C20_2 C 0.6401(4) 0.4210(6) 0.2905(4)
H15_2 H 0.6406 0.4172 0.3133
C21_2 C 0.5733(4) 0.3956(9) 0.1843(4)
H16_2 H 0.5538 0.3903 0.1896
H17_2 H 0.5776 0.3536 0.1757
H18_2 H 0.5668 0.4292 0.1653
C22_2 C 0.8969(2) 0.4356(5) 0.3863(2)
C23_2 C 0.89771(19) 0.5054(5) 0.3878(2)
C24_2 C 0.9308(3) 0.5389(3) 0.4058(3)
H19_2 H 0.9314 0.5856 0.4068
C25_2 C 0.96306(19) 0.5026(5) 0.4223(3)
C26_2 C 0.9622(2) 0.4328(5) 0.4208(3)
H20_2 H 0.9838 0.4085 0.4318
C27_2 C 0.9291(3) 0.3993(3) 0.4028(3)
H21_2 H 0.9285 0.3526 0.4018
C28_2 C 0.9985(8) 0.525(2) 0.4559(9)
H23_2 H 0.9947 0.5336 0.4767
C29_2 C 0.7903(4) 0.6338(6) 0.2707(5)
C30_2 C 0.7664(4) 0.5954(11) 0.2442(4)
C31_2 C 0.7505(3) 0.6199(8) 0.2066(4)
H25_2 H 0.7329 0.5957 0.1862
C32_2 C 0.7624(5) 0.6799(11) 0.2024(5)
H26_2 H 0.7527 0.6946 0.1778
C33_2 C 0.7867(5) 0.7223(6) 0.2292(6)
C34_2 C 0.8031(3) 0.7013(7) 0.2676(4)
H27_2 H 0.8196 0.7268 0.2879
C35_2 C 0.7934(3) 0.7863(6) 0.2179(4)
H28_2 H 0.8110 0.8105 0.2396
H29_2 H 0.7712 0.8116 0.2055
H30_2 H 0.8024 0.7798 0.2009
C36_2 C 0.3915(3) 0.7388(6) 0.3880(4)
C37_2 C 0.4215(2) 0.6853(5) 0.3949(3)
C38_2 C 0.4201(3) 0.6513(6) 0.3675(3)
H31_2 H 0.4022 0.6585 0.3426
C39_2 C 0.4472(3) 0.6031(6) 0.3779(3)
C40_2 C 0.4725(2) 0.5878(5) 0.4132(3)
C41_2 C 0.47191(18) 0.6251(5) 0.4391(2)
H32_2 H 0.4895 0.6169 0.4640
C42_2 C 0.4464(2) 0.6772(4) 0.4322(3)
H33_2 H 0.4467 0.7031 0.4511
C43_2 C 0.4209(3) 0.5724(6) 0.3122(3)
H34_2 H 0.4254 0.5411 0.2973
H35_2 H 0.4217 0.6174 0.3043
H36_2 H 0.3973 0.5639 0.3091
C44_2 C 0.52025(17) 0.5182(4) 0.45617(17)
H37_2 H 0.5071 0.5084 0.4693
H38_2 H 0.5375 0.5539 0.4695
C45_2 C 0.53955(16) 0.4582(3) 0.45514(17)
C46_2 C 0.51287(16) 0.4028(3) 0.43610(16)
H39_2 H 0.4964 0.4144 0.4100
H40_2 H 0.5255 0.3617 0.4368
C47_2 C 0.56535(17) 0.4379(3) 0.49440(17)
H41_2 H 0.5526 0.4314 0.5082
H42_2 H 0.5774 0.3963 0.4948
C48_2 C 0.55919(17) 0.4749(3) 0.43388(17)
H43_2 H 0.5418 0.4852 0.4079
H44_2 H 0.5747 0.5138 0.4450
C49_2 C 0.4657(3) 0.3510(7) 0.4373(3)
C50_2 C 0.4321(4) 0.3737(6) 0.4115(3)
H45_2 H 0.4272 0.4190 0.4057
C51_2 C 0.4037(3) 0.3201(10) 0.3932(3)
H46_2 H 0.3820 0.3321 0.3720
C52_2 C 0.4069(4) 0.2630(6) 0.4037(5)
C53_2 C 0.4377(5) 0.2466(7) 0.4312(4)
H47_2 H 0.4425 0.2030 0.4407
C54_2 C 0.4637(4) 0.2974(9) 0.4466(5)
C55_2 C 0.5014(5) 0.2054(10) 0.4936(7)
H48_2 H 0.5265 0.1942 0.5102
H49_2 H 0.4899 0.1697 0.4757
H50_2 H 0.4894 0.2114 0.5078
C56_2 C 0.6830(3) 0.4438(8) 0.3905(3)
C57_2 C 0.3727(5) 0.2057(10) 0.3742(8)
C58_2 C 0.6133(2) 0.4909(5) 0.5475(3)
C59_2 C 0.61688(19) 0.4420(4) 0.5725(3)
H51_2 H 0.6036 0.4025 0.5633
C60_2 C 0.6395(2) 0.4489(5) 0.6112(3)
H52_2 H 0.6405 0.4159 0.6277
C61_2 C 0.6595(3) 0.5037(7) 0.6236(3)
C62_2 C 0.6576(3) 0.5551(5) 0.6007(4)
H53_2 H 0.6715 0.5939 0.6101
C63_2 C 0.6336(3) 0.5461(5) 0.5629(3)
C64_2 C 0.6466(4) 0.6525(7) 0.5495(3)
H54_2 H 0.6413 0.6800 0.5281
H55_2 H 0.6723 0.6459 0.5645
H56_2 H 0.6379 0.6745 0.5643
C65_2 C 0.6835(4) 0.5105(7) 0.6657(4)
C66_2 C 0.6031(2) 0.4262(6) 0.4233(2)
C67_2 C 0.6068(2) 0.4827(6) 0.4094(3)
H57_2 H 0.5922 0.5193 0.4070
C68_2 C 0.6336(3) 0.4883(5) 0.3975(2)
H58_2 H 0.6362 0.5279 0.3871
C69_2 C 0.6549(2) 0.4335(7) 0.4022(3)
C70_2 C 0.6500(3) 0.3799(7) 0.4158(3)
H59_2 H 0.6645 0.3425 0.4192
C71_2 C 0.6235(3) 0.3767(7) 0.4255(3)
C72_2 C 0.6329(6) 0.2753(11) 0.4440(7)
H60_2 H 0.6276 0.2425 0.4577
H61_2 H 0.6587 0.2825 0.4565
H62_2 H 0.6245 0.2592 0.4190
C73_2 C 0.7908(3) 0.6254(6) 0.3981(3)
C74_2 C 0.7654(3) 0.5888(6) 0.3990(3)
C75_2 C 0.7485(3) 0.6086(6) 0.4184(3)
H63_2 H 0.7310 0.5823 0.4195
C76_2 C 0.7591(5) 0.6705(9) 0.4363(5)
C77_2 C 0.7847(5) 0.7117(7) 0.4329(4)
H64_2 H 0.7901 0.7544 0.4436
C78_2 C 0.8016(3) 0.6880(7) 0.4139(4)
H65_2 H 0.8191 0.7128 0.4119
C79_2 C 0.7418(4) 0.7031(8) 0.4578(4)
H66_2 H 0.7250 0.6721 0.4588
H67_2 H 0.7292 0.7433 0.4450
H68_2 H 0.7605 0.7140 0.4828
N1_2 N 0.76220(16) 0.3895(3) 0.2547(2)
N2_2 N 0.78421(19) 0.3891(3) 0.2906(2)
N3_2 N 0.80441(14) 0.3327(4) 0.30154(19)
N4_2 N 0.81007(14) 0.3287(4) 0.37711(16)
N5_2 N 0.78787(16) 0.3817(3) 0.36740(13)
N6_2 N 0.76660(14) 0.3769(3) 0.38285(17)
N7_2 N 0.7054(2) 0.4500(3) 0.31538(16)
N8_2 N 0.72578(16) 0.4581(3) 0.2999(2)
N9_2 N 0.7052(2) 0.4566(3) 0.2632(2)
N10_2 N 0.86170(19) 0.5206(3) 0.36915(18)
N11_2 N 0.84311(15) 0.4639(4) 0.35902(14)
N12_2 N 0.86430(17) 0.4128(4) 0.36855(17)
N13_2 N 0.80035(16) 0.5979(5) 0.30234(18)
N14_2 N 0.7817(2) 0.5408(3) 0.2913(2)
N15_2 N 0.7601(2) 0.5378(4) 0.2551(3)
N16_2 N 0.80100(16) 0.5928(4) 0.37725(19)
N17_2 N 0.78278(17) 0.5352(3) 0.36788(14)
N18_2 N 0.76009(16) 0.5311(3) 0.38125(17)
O3_2 O 0.6972(2) 0.3907(5) 0.3886(2)
O4_2 O 0.6892(2) 0.4936(5) 0.3809(3)
O6_2 O 0.6824(2) 0.4680(5) 0.6869(2)
O7_2 O 0.7047(2) 0.5596(4) 0.67707(16)
O8_2 O 0.3474(3) 0.2394(6) 0.3674(3)
O9_2 O 0.49587(13) 0.5386(3) 0.41921(13)
O10_2 O 0.4991(4) 0.2729(6) 0.4719(3)
O11_2 O 0.6187(3) 0.3245(6) 0.4427(4)
O12_2 O 0.62964(18) 0.5915(4) 0.5375(2)
O13_2 O 0.59138(13) 0.4915(2) 0.51080(16)
O14_2 O 0.58021(14) 0.4186(3) 0.43588(13)
O15_2 O 0.49336(14) 0.3934(3) 0.45483(13)
O16_2 O 0.44852(17) 0.5645(4) 0.3518(2)
Zn8_2 Zn 0.72719(3) 0.53495(6) 0.73100(2)
O20_2 O 0.6824(2) 0.5320(5) 0.1869(2)
O21_2 O 0.7047(2) 0.4404(4) 0.17707(16)
H41_3 H 0.0526 0.0686 0.0082
H48_3 H 0.0265 0.3058 0.0102
C58_3 C 0.1133(2) 0.0091(5) 0.0475(3)
C59_3 C 0.11688(19) 0.0580(4) 0.0725(3)
H51_3 H 0.1036 0.0975 0.0633
C60_3 C 0.1395(2) 0.0511(5) 0.1112(3)
H52_3 H 0.1405 0.0841 0.1277
O13_3 O 0.09138(13) 0.0085(2) 0.01080(16)
Zn1_3 Zn 0.284610(18) 0.03755(4) 0.829773(19)
Zn2_3 Zn 0.22933(2) 0.04975(4) 0.87239(2)
Zn3_2 Zn 0.34264(2) 0.17812(4) 0.85679(2)
C1_3 C 0.2935(2) 0.2059(5) 0.7711(3)
C2_3 C 0.2695(3) 0.1687(6) 0.7436(3)
C3_3 C 0.2506(3) 0.1900(6) 0.7061(4)
H1_3 H 0.2327 0.1640 0.6869
C4_3 C 0.2601(3) 0.2499(8) 0.7000(3)
H2_3 H 0.2486 0.2666 0.6756
C5_3 C 0.2872(3) 0.2897(5) 0.7293(4)
C6_3 C 0.3061(2) 0.2685(5) 0.7675(3)
H3_3 H 0.3243 0.2930 0.7873
C7_3 C 0.3001(2) 0.3621(5) 0.7230(3)
H4_3 H 0.2866 0.3737 0.6968
H5_3 H 0.2960 0.3952 0.7374
H6_3 H 0.3255 0.3606 0.7310
C8_3 C 0.3019(3) 0.2098(5) 0.8987(2)
C9_3 C 0.2748(3) 0.1805(5) 0.9023(3)
C10_3 C 0.2614(3) 0.2101(7) 0.9235(4)
H7_3 H 0.2424 0.1906 0.9252
C11_3 C 0.2764(4) 0.2663(8) 0.9412(4)
H8_3 H 0.2696 0.2854 0.9574
C12_3 C 0.3026(5) 0.2969(7) 0.9352(4)
C13_3 C 0.3179(3) 0.2689(7) 0.9159(3)
H9_3 H 0.3372 0.2882 0.9146
C14_3 C 0.3183(5) 0.3665(8) 0.9548(5)
H10_3 H 0.3056 0.3812 0.9674
H11_3 H 0.3436 0.3618 0.9728
H12_3 H 0.3151 0.3991 0.9362
C15_3 C 0.1705(3) 0.0618(5) 0.7870(4)
C16_3 C 0.1691(3) 0.0579(5) 0.7547(4)
C17_3 C 0.1383(4) 0.0716(6) 0.7186(3)
H13_3 H 0.1390 0.0727 0.6964
C18_3 C 0.1080(4) 0.0825(8) 0.7204(5)
C19_3 C 0.1085(5) 0.0899(8) 0.7545(6)
H14_3 H 0.0871 0.1025 0.7537
C20_3 C 0.1401(4) 0.0790(6) 0.7905(4)
H15_3 H 0.1406 0.0828 0.8133
C21_3 C 0.0733(4) 0.1044(9) 0.6843(4)
H16_3 H 0.0538 0.1097 0.6896
H17_3 H 0.0776 0.1464 0.6757
H18_3 H 0.0668 0.0708 0.6653
C22_3 C 0.3969(2) 0.0644(5) 0.8863(2)
C26_3 C 0.4622(2) 0.0672(5) 0.9208(3)
H20_3 H 0.4838 0.0915 0.9318
C27_3 C 0.4291(3) 0.1007(3) 0.9028(3)
H21_3 H 0.4285 0.1474 0.9018
H22_2 H 0.5162 0.0102 0.9627
C45_3 C 0.03955(16) 0.0418(3) 0.95514(17)
C46_3 C 0.01287(16) 0.0972(3) 0.93610(16)
H40_3 H 0.0255 0.1383 0.9368
C47_3 C 0.06535(17) 0.0621(3) 0.99440(17)
H42_3 H 0.0774 0.1037 0.9948
C48_3 C 0.05919(17) 0.0251(3) 0.93388(17)
H43_3 H 0.0418 0.0148 0.9079
C55_3 C 0.0014(5) 0.2946(10) 0.9936(7)
C56_3 C 0.1830(3) 0.0562(8) 0.8905(3)
C66_3 C 0.1031(2) 0.0738(6) 0.9233(2)
C67_3 C 0.1068(2) 0.0173(6) 0.9094(3)
C68_3 C 0.1336(3) 0.0117(5) 0.8975(2)
C69_3 C 0.1549(2) 0.0665(7) 0.9022(3)
C70_3 C 0.1500(3) 0.1201(7) 0.9158(3)
H59_3 H 0.1645 0.1575 0.9192
C71_3 C 0.1235(3) 0.1233(7) 0.9255(3)
C72_3 C 0.1329(6) 0.2247(11) 0.9440(7)
H60_3 H 0.1276 0.2575 0.9577
H61_3 H 0.1587 0.2175 0.9565
H62_3 H 0.1245 0.2408 0.9190
N1_3 N 0.26220(16) 0.1105(3) 0.7547(2)
N2_3 N 0.28421(19) 0.1109(3) 0.7906(2)
N3_3 N 0.30441(14) 0.1673(4) 0.80154(19)
N4_3 N 0.31007(14) 0.1713(4) 0.87711(16)
N5_3 N 0.28787(16) 0.1183(3) 0.86740(13)
N6_3 N 0.26660(14) 0.1231(3) 0.88285(17)
N7_3 N 0.2054(2) 0.0500(3) 0.81538(16)
N8_3 N 0.22578(16) 0.0419(3) 0.7999(2)
N9_3 N 0.2052(2) 0.0434(3) 0.7632(2)
N11_3 N 0.34311(15) 0.0361(4) 0.85902(14)
N12_3 N 0.36430(17) 0.0872(4) 0.86855(17)
O3_3 O 0.1972(2) 0.1093(5) 0.8886(2)
O4_3 O 0.1892(2) 0.0064(5) 0.8809(3)
O11_3 O 0.1187(3) 0.1755(6) 0.9427(4)
O14_3 O 0.08021(14) 0.0814(3) 0.93588(13)
O17_2 O 0.3915(3) 0.2297(5) 0.9126(3)
O18_2 O 0.37090(15) 0.2517(3) 0.8534(2)
C61_3 C 0.1595(3) 0.9963(7) 0.1236(3)
C62_3 C 0.1576(3) 0.9449(5) 0.1007(4)
H53_3 H 0.1715 0.9061 0.1101
C63_3 C 0.1336(3) 0.9539(5) 0.0629(3)
C64_3 C 0.1466(4) 0.8475(7) 0.0495(3)
H54_3 H 0.1413 0.8200 0.0281
H55_3 H 0.1723 0.8541 0.0645
H56_3 H 0.1379 0.8255 0.0643
C65_3 C 0.1835(4) 0.9895(7) 0.1657(4)
O12_3 O 0.12964(18) 0.9085(4) 0.0375(2)
Zn4_2 Zn 0.33618(2) 0.88907(5) 0.85888(3)
C23_3 C 0.39771(19) 0.9946(5) 0.8878(2)
C24_3 C 0.4308(3) 0.9611(3) 0.9058(3)
H19_3 H 0.4314 0.9144 0.9068
C25_3 C 0.46306(19) 0.9974(5) 0.9223(3)
C28_3 C 0.4985(8) 0.975(2) 0.9559(9)
H23_3 H 0.4947 0.9664 0.9767
H24_2 H 0.5069 0.9352 0.9497
C29_3 C 0.2903(4) 0.8662(6) 0.7707(5)
C30_3 C 0.2664(4) 0.9046(11) 0.7442(4)
C31_3 C 0.2505(3) 0.8801(8) 0.7066(4)
H25_3 H 0.2329 0.9043 0.6862
C32_3 C 0.2624(5) 0.8201(11) 0.7024(5)
H26_3 H 0.2527 0.8054 0.6778
C33_3 C 0.2867(5) 0.7777(6) 0.7292(6)
C34_3 C 0.3031(3) 0.7987(7) 0.7676(4)
H27_3 H 0.3196 0.7732 0.7879
C35_3 C 0.2934(3) 0.7137(6) 0.7179(4)
H28_3 H 0.3110 0.6895 0.7396
H29_3 H 0.2712 0.6884 0.7055
H30_3 H 0.3024 0.7202 0.7009
C44_3 C 0.02025(17) 0.9818(4) 0.95617(17)
H37_3 H 0.0071 0.9916 0.9693
H38_3 H 0.0375 0.9461 0.9695
H44_3 H 0.0747 0.9862 0.9450
H57_3 H 0.0922 0.9807 0.9070
H58_3 H 0.1362 0.9721 0.8871
C73_3 C 0.2908(3) 0.8746(6) 0.8981(3)
C74_3 C 0.2654(3) 0.9112(6) 0.8990(3)
C75_3 C 0.2485(3) 0.8914(6) 0.9184(3)
H63_3 H 0.2310 0.9177 0.9195
C76_3 C 0.2591(5) 0.8295(9) 0.9363(5)
C77_3 C 0.2847(5) 0.7883(7) 0.9329(4)
H64_3 H 0.2901 0.7456 0.9436
C78_3 C 0.3016(3) 0.8120(7) 0.9139(4)
H65_3 H 0.3191 0.7872 0.9119
C79_3 C 0.2418(4) 0.7969(8) 0.9578(4)
H66_3 H 0.2250 0.8279 0.9588
H67_3 H 0.2292 0.7567 0.9450
H68_3 H 0.2605 0.7860 0.9828
N10_3 N 0.36170(19) 0.9794(3) 0.86915(18)
N13_3 N 0.30035(16) 0.9021(5) 0.80234(18)
N14_3 N 0.2817(2) 0.9592(3) 0.7913(2)
N15_3 N 0.2601(2) 0.9622(4) 0.7551(3)
N16_3 N 0.30100(16) 0.9072(4) 0.87725(19)
N17_3 N 0.28278(17) 0.9648(3) 0.86788(14)
N18_3 N 0.26009(16) 0.9689(3) 0.88125(17)
O19_2 O 0.3779(3) 0.8327(5) 0.8948(3)
H39_3 H 0.9964 0.0856 0.9100
C49_3 C 0.9657(3) 0.1490(7) 0.9373(3)
C50_3 C 0.9321(4) 0.1263(6) 0.9115(3)
H45_3 H 0.9272 0.0810 0.9057
C51_3 C 0.9037(3) 0.1799(10) 0.8932(3)
H46_3 H 0.8820 0.1679 0.8720
C52_3 C 0.9069(4) 0.2370(6) 0.9037(5)
C53_3 C 0.9377(5) 0.2534(7) 0.9312(4)
H47_3 H 0.9425 0.2970 0.9407
C54_3 C 0.9637(4) 0.2026(9) 0.9466(5)
H49_3 H 0.9899 0.3303 0.9757
C57_3 C 0.8727(5) 0.2943(10) 0.8742(8)
O5_2 O 0.8779(3) 0.3327(5) 0.8948(3)
O8_3 O 0.8474(3) 0.2606(6) 0.8674(3)
O10_3 O 0.9991(4) 0.2271(6) 0.9719(3)
O15_3 O 0.99336(14) 0.1066(3) 0.95483(13)
Zn7_2 Zn 0.83618(2) 0.38907(5) 0.85888(3)
C36_3 C 0.8915(3) 0.7612(6) 0.8880(4)
C37_3 C 0.9215(2) 0.8147(5) 0.8949(3)
C38_3 C 0.9201(3) 0.8487(6) 0.8675(3)
H31_3 H 0.9022 0.8415 0.8426
C39_3 C 0.9472(3) 0.8969(6) 0.8779(3)
C40_3 C 0.9725(2) 0.9122(5) 0.9132(3)
C41_3 C 0.97191(18) 0.8749(5) 0.9391(2)
H32_3 H 0.9895 0.8831 0.9640
C42_3 C 0.9464(2) 0.8228(4) 0.9322(3)
H33_3 H 0.9467 0.7969 0.9511
C43_3 C 0.9209(3) 0.9276(6) 0.8122(3)
H34_3 H 0.9254 0.9589 0.7973
H35_3 H 0.9217 0.8826 0.8043
H36_3 H 0.8973 0.9361 0.8091
O1_2 O 0.8915(3) 0.7297(5) 0.9126(3)
O2_2 O 0.87090(15) 0.7517(3) 0.8534(2)
O9_3 O 0.99587(13) 0.9614(3) 0.91921(13)
O16_3 O 0.94852(17) 0.9355(4) 0.8518(2)
Zn6_2 Zn 0.84264(2) 0.67812(4) 0.85679(2)
H41_4 H 0.5526 0.5686 0.0082
H48_4 H 0.5265 0.8058 0.0102
H50_3 H 0.4894 0.7886 0.0078
C58_4 C 0.6133(2) 0.5091(5) 0.0475(3)
C59_4 C 0.61688(19) 0.5580(4) 0.0725(3)
H51_4 H 0.6036 0.5975 0.0633
C60_4 C 0.6395(2) 0.5511(5) 0.1112(3)
H52_4 H 0.6405 0.5841 0.1277
C61_4 C 0.6595(3) 0.4963(7) 0.1236(3)
C62_4 C 0.6576(3) 0.4449(5) 0.1007(4)
H53_4 H 0.6715 0.4061 0.1101
C63_4 C 0.6336(3) 0.4539(5) 0.0629(3)
C64_4 C 0.6466(4) 0.3475(7) 0.0495(3)
H54_4 H 0.6413 0.3200 0.0281
H55_4 H 0.6723 0.3541 0.0645
H56_4 H 0.6379 0.3255 0.0643
C65_4 C 0.6835(4) 0.4895(7) 0.1657(4)
O12_4 O 0.62964(18) 0.4085(4) 0.0375(2)
O13_4 O 0.59138(13) 0.5085(2) 0.01080(16)
Zn1_4 Zn 0.784610(18) 0.53755(4) 0.829773(19)
Zn2_4 Zn 0.72933(2) 0.54975(4) 0.87239(2)
C1_4 C 0.7935(2) 0.7059(5) 0.7711(3)
C2_4 C 0.7695(3) 0.6687(6) 0.7436(3)
C3_4 C 0.7506(3) 0.6900(6) 0.7061(4)
H1_4 H 0.7327 0.6640 0.6869
C4_4 C 0.7601(3) 0.7499(8) 0.7000(3)
H2_4 H 0.7486 0.7666 0.6756
C5_4 C 0.7872(3) 0.7897(5) 0.7293(4)
C6_4 C 0.8061(2) 0.7685(5) 0.7675(3)
H3_4 H 0.8243 0.7930 0.7873
C7_4 C 0.8001(2) 0.8621(5) 0.7230(3)
H4_4 H 0.7866 0.8737 0.6968
H5_4 H 0.7960 0.8952 0.7374
H6_4 H 0.8255 0.8606 0.7310
C8_4 C 0.8019(3) 0.7098(5) 0.8987(2)
C9_4 C 0.7748(3) 0.6805(5) 0.9023(3)
C10_4 C 0.7614(3) 0.7101(7) 0.9235(4)
H7_4 H 0.7424 0.6906 0.9252
C11_4 C 0.7764(4) 0.7663(8) 0.9412(4)
H8_4 H 0.7696 0.7854 0.9574
C12_4 C 0.8026(5) 0.7969(7) 0.9352(4)
C13_4 C 0.8179(3) 0.7689(7) 0.9159(3)
H9_4 H 0.8372 0.7882 0.9146
C14_4 C 0.8183(5) 0.8665(8) 0.9548(5)
H10_4 H 0.8056 0.8812 0.9674
H11_4 H 0.8436 0.8618 0.9728
H12_4 H 0.8151 0.8991 0.9362
C15_4 C 0.6705(3) 0.5618(5) 0.7870(4)
C16_4 C 0.6691(3) 0.5579(5) 0.7547(4)
C17_4 C 0.6383(4) 0.5716(6) 0.7186(3)
H13_4 H 0.6390 0.5727 0.6964
C18_4 C 0.6080(4) 0.5825(8) 0.7204(5)
C19_4 C 0.6085(5) 0.5899(8) 0.7545(6)
H14_4 H 0.5871 0.6025 0.7537
C20_4 C 0.6401(4) 0.5790(6) 0.7905(4)
H15_4 H 0.6406 0.5828 0.8133
C21_4 C 0.5733(4) 0.6044(9) 0.6843(4)
H16_4 H 0.5538 0.6097 0.6896
H17_4 H 0.5776 0.6464 0.6757
H18_4 H 0.5668 0.5708 0.6653
C22_4 C 0.8969(2) 0.5644(5) 0.8863(2)
C23_4 C 0.89771(19) 0.4946(5) 0.8878(2)
C24_4 C 0.9308(3) 0.4611(3) 0.9058(3)
H19_4 H 0.9314 0.4144 0.9068
C25_4 C 0.96306(19) 0.4974(5) 0.9223(3)
C26_4 C 0.9622(2) 0.5672(5) 0.9208(3)
H20_4 H 0.9838 0.5915 0.9318
C27_4 C 0.9291(3) 0.6007(3) 0.9028(3)
H21_4 H 0.9285 0.6474 0.9018
C28_4 C 0.9985(8) 0.475(2) 0.9559(9)
H23_4 H 0.9947 0.4664 0.9767
C29_4 C 0.7903(4) 0.3662(6) 0.7707(5)
C30_4 C 0.7664(4) 0.4046(11) 0.7442(4)
C31_4 C 0.7505(3) 0.3801(8) 0.7066(4)
H25_4 H 0.7329 0.4043 0.6862
C32_4 C 0.7624(5) 0.3201(11) 0.7024(5)
H26_4 H 0.7527 0.3054 0.6778
C33_4 C 0.7867(5) 0.2777(6) 0.7292(6)
C34_4 C 0.8031(3) 0.2987(7) 0.7676(4)
H27_4 H 0.8196 0.2732 0.7879
C35_4 C 0.7934(3) 0.2137(6) 0.7179(4)
H28_4 H 0.8110 0.1895 0.7396
H29_4 H 0.7712 0.1884 0.7055
H30_4 H 0.8024 0.2202 0.7009
C36_4 C 0.3915(3) 0.2612(6) 0.8880(4)
C37_4 C 0.4215(2) 0.3147(5) 0.8949(3)
C38_4 C 0.4201(3) 0.3487(6) 0.8675(3)
H31_4 H 0.4022 0.3415 0.8426
C39_4 C 0.4472(3) 0.3969(6) 0.8779(3)
C40_4 C 0.4725(2) 0.4122(5) 0.9132(3)
C41_4 C 0.47191(18) 0.3749(5) 0.9391(2)
H32_4 H 0.4895 0.3831 0.9640
C42_4 C 0.4464(2) 0.3228(4) 0.9322(3)
H33_4 H 0.4467 0.2969 0.9511
C43_4 C 0.4209(3) 0.4276(6) 0.8122(3)
H34_4 H 0.4254 0.4589 0.7973
H35_4 H 0.4217 0.3826 0.8043
H36_4 H 0.3973 0.4361 0.8091
C44_4 C 0.52025(17) 0.4818(4) 0.95617(17)
H37_4 H 0.5071 0.4916 0.9693
H38_4 H 0.5375 0.4461 0.9695
C45_4 C 0.53955(16) 0.5418(3) 0.95514(17)
C46_4 C 0.51287(16) 0.5972(3) 0.93610(16)
H39_4 H 0.4964 0.5856 0.9100
H40_4 H 0.5255 0.6383 0.9368
C47_4 C 0.56535(17) 0.5621(3) 0.99440(17)
H42_4 H 0.5774 0.6037 0.9948
C48_4 C 0.55919(17) 0.5251(3) 0.93388(17)
H43_4 H 0.5418 0.5148 0.9079
H44_4 H 0.5747 0.4862 0.9450
C49_4 C 0.4657(3) 0.6490(7) 0.9373(3)
C50_4 C 0.4321(4) 0.6263(6) 0.9115(3)
H45_4 H 0.4272 0.5810 0.9057
C51_4 C 0.4037(3) 0.6799(10) 0.8932(3)
H46_4 H 0.3820 0.6679 0.8720
C52_4 C 0.4069(4) 0.7370(6) 0.9037(5)
C53_4 C 0.4377(5) 0.7534(7) 0.9312(4)
H47_4 H 0.4425 0.7970 0.9407
C54_4 C 0.4637(4) 0.7026(9) 0.9466(5)
C55_4 C 0.5014(5) 0.7946(10) 0.9936(7)
H49_4 H 0.4899 0.8303 0.9757
C56_4 C 0.6830(3) 0.5562(8) 0.8905(3)
C57_4 C 0.3727(5) 0.7943(10) 0.8742(8)
C66_4 C 0.6031(2) 0.5738(6) 0.9233(2)
C67_4 C 0.6068(2) 0.5173(6) 0.9094(3)
H57_4 H 0.5922 0.4807 0.9070
C68_4 C 0.6336(3) 0.5117(5) 0.8975(2)
H58_4 H 0.6362 0.4721 0.8871
C69_4 C 0.6549(2) 0.5665(7) 0.9022(3)
C70_4 C 0.6500(3) 0.6201(7) 0.9158(3)
H59_4 H 0.6645 0.6575 0.9192
C71_4 C 0.6235(3) 0.6233(7) 0.9255(3)
C72_4 C 0.6329(6) 0.7247(11) 0.9440(7)
H60_4 H 0.6276 0.7575 0.9577
H61_4 H 0.6587 0.7175 0.9565
H62_4 H 0.6245 0.7408 0.9190
C73_4 C 0.7908(3) 0.3746(6) 0.8981(3)
C74_4 C 0.7654(3) 0.4112(6) 0.8990(3)
C75_4 C 0.7485(3) 0.3914(6) 0.9184(3)
H63_4 H 0.7310 0.4177 0.9195
C76_4 C 0.7591(5) 0.3295(9) 0.9363(5)
C77_4 C 0.7847(5) 0.2883(7) 0.9329(4)
H64_4 H 0.7901 0.2456 0.9436
C78_4 C 0.8016(3) 0.3120(7) 0.9139(4)
H65_4 H 0.8191 0.2872 0.9119
C79_4 C 0.7418(4) 0.2969(8) 0.9578(4)
H66_4 H 0.7250 0.3279 0.9588
H67_4 H 0.7292 0.2567 0.9450
H68_4 H 0.7605 0.2860 0.9828
N1_4 N 0.76220(16) 0.6105(3) 0.7547(2)
N2_4 N 0.78421(19) 0.6109(3) 0.7906(2)
N3_4 N 0.80441(14) 0.6673(4) 0.80154(19)
N4_4 N 0.81007(14) 0.6713(4) 0.87711(16)
N5_4 N 0.78787(16) 0.6183(3) 0.86740(13)
N6_4 N 0.76660(14) 0.6231(3) 0.88285(17)
N7_4 N 0.7054(2) 0.5500(3) 0.81538(16)
N8_4 N 0.72578(16) 0.5419(3) 0.7999(2)
N9_4 N 0.7052(2) 0.5434(3) 0.7632(2)
N10_4 N 0.86170(19) 0.4794(3) 0.86915(18)
N11_4 N 0.84311(15) 0.5361(4) 0.85902(14)
N12_4 N 0.86430(17) 0.5872(4) 0.86855(17)
N13_4 N 0.80035(16) 0.4021(5) 0.80234(18)
N14_4 N 0.7817(2) 0.4592(3) 0.7913(2)
N15_4 N 0.7601(2) 0.4622(4) 0.7551(3)
N16_4 N 0.80100(16) 0.4072(4) 0.87725(19)
N17_4 N 0.78278(17) 0.4648(3) 0.86788(14)
N18_4 N 0.76009(16) 0.4689(3) 0.88125(17)
O3_4 O 0.6972(2) 0.6093(5) 0.8886(2)
O4_4 O 0.6892(2) 0.5064(5) 0.8809(3)
O8_4 O 0.3474(3) 0.7606(6) 0.8674(3)
O9_4 O 0.49587(13) 0.4614(3) 0.91921(13)
O10_4 O 0.4991(4) 0.7271(6) 0.9719(3)
O11_4 O 0.6187(3) 0.6755(6) 0.9427(4)
O14_4 O 0.58021(14) 0.5814(3) 0.93588(13)
O15_4 O 0.49336(14) 0.6066(3) 0.95483(13)
O16_4 O 0.44852(17) 0.4355(4) 0.8518(2)
C36_5 C 0.1085(3) 0.2388(6) 0.1120(4)
C37_5 C 0.0785(2) 0.1853(5) 0.1051(3)
C38_5 C 0.0799(3) 0.1513(6) 0.1325(3)
H31_5 H 0.0978 0.1585 0.1574
C39_5 C 0.0528(3) 0.1031(6) 0.1221(3)
C40_5 C 0.0275(2) 0.0878(5) 0.0868(3)
C41_5 C 0.02809(18) 0.1251(5) 0.0609(2)
H32_5 H 0.0105 0.1169 0.0360
C42_5 C 0.0536(2) 0.1772(4) 0.0678(3)
H33_5 H 0.0533 0.2031 0.0489
C43_5 C 0.0791(3) 0.0724(6) 0.1878(3)
H34_5 H 0.0746 0.0411 0.2027
H35_5 H 0.0783 0.1174 0.1957
H36_5 H 0.1027 0.0639 0.1909
O1_3 O 0.1085(3) 0.2703(5) 0.0874(3)
O2_3 O 0.12910(15) 0.2483(3) 0.1466(2)
O9_5 O 0.00413(13) 0.0386(3) 0.08079(13)
O16_5 O 0.05148(17) 0.0645(4) 0.1482(2)
Zn6_3 Zn 0.15736(2) 0.32188(4) 0.14321(2)
H39_5 H 0.0036 0.9144 0.0900
C49_5 C 0.0343(3) 0.8510(7) 0.0627(3)
C50_5 C 0.0679(4) 0.8737(6) 0.0885(3)
H45_5 H 0.0728 0.9190 0.0943
C51_5 C 0.0963(3) 0.8201(10) 0.1068(3)
H46_5 H 0.1180 0.8321 0.1280
C52_5 C 0.0931(4) 0.7630(6) 0.0963(5)
C53_5 C 0.0623(5) 0.7466(7) 0.0688(4)
H47_5 H 0.0575 0.7030 0.0593
C54_5 C 0.0363(4) 0.7974(9) 0.0534(5)
H49_5 H 0.0101 0.6697 0.0243
C57_5 C 0.1273(5) 0.7057(10) 0.1258(8)
O5_3 O 0.1221(3) 0.6673(5) 0.1052(3)
O8_5 O 0.1526(3) 0.7394(6) 0.1326(3)
O10_5 O 0.0009(4) 0.7729(6) 0.0281(3)
O15_5 O 0.00664(14) 0.8934(3) 0.04517(13)
Zn7_3 Zn 0.16382(2) 0.61093(5) 0.14112(3)
Zn4_3 Zn 0.66382(2) 0.11093(5) 0.14112(3)
C23_5 C 0.60229(19) 0.0054(5) 0.1122(2)
C24_5 C 0.5692(3) 0.0389(3) 0.0942(3)
H19_5 H 0.5686 0.0856 0.0932
C25_5 C 0.53694(19) 0.0026(5) 0.0777(3)
C28_5 C 0.5015(8) 0.025(2) 0.0441(9)
H23_5 H 0.5053 0.0336 0.0233
H24_3 H 0.4931 0.0648 0.0503
C29_5 C 0.7097(4) 0.1338(6) 0.2293(5)
C30_5 C 0.7336(4) 0.0954(11) 0.2558(4)
C31_5 C 0.7495(3) 0.1199(8) 0.2934(4)
H25_5 H 0.7671 0.0957 0.3138
C32_5 C 0.7376(5) 0.1799(11) 0.2976(5)
H26_5 H 0.7473 0.1946 0.3222
C33_5 C 0.7133(5) 0.2223(6) 0.2708(6)
C34_5 C 0.6969(3) 0.2013(7) 0.2324(4)
H27_5 H 0.6804 0.2268 0.2121
C35_5 C 0.7066(3) 0.2863(6) 0.2821(4)
H28_5 H 0.6890 0.3105 0.2604
H29_5 H 0.7288 0.3116 0.2945
H30_5 H 0.6976 0.2798 0.2991
C44_5 C 0.97975(17) 0.0182(4) 0.04383(17)
H37_5 H 0.9929 0.0084 0.0307
H38_5 H 0.9625 0.0539 0.0305
H44_5 H 0.9253 0.0138 0.0550
H57_5 H 0.9078 0.0193 0.0930
H58_5 H 0.8638 0.0279 0.1129
C73_5 C 0.7092(3) 0.1254(6) 0.1019(3)
C74_5 C 0.7346(3) 0.0888(6) 0.1010(3)
C75_5 C 0.7515(3) 0.1086(6) 0.0816(3)
H63_5 H 0.7690 0.0823 0.0805
C76_5 C 0.7409(5) 0.1705(9) 0.0637(5)
C77_5 C 0.7153(5) 0.2117(7) 0.0671(4)
H64_5 H 0.7099 0.2544 0.0564
C78_5 C 0.6984(3) 0.1880(7) 0.0861(4)
H65_5 H 0.6809 0.2128 0.0881
C79_5 C 0.7582(4) 0.2031(8) 0.0422(4)
H66_5 H 0.7750 0.1721 0.0412
H67_5 H 0.7708 0.2433 0.0550
H68_5 H 0.7395 0.2140 0.0172
N10_5 N 0.63830(19) 0.0206(3) 0.13085(18)
N13_5 N 0.69965(16) 0.0979(5) 0.19766(18)
N14_5 N 0.7183(2) 0.0408(3) 0.2087(2)
N15_5 N 0.7399(2) 0.0378(4) 0.2449(3)
N16_5 N 0.69900(16) 0.0928(4) 0.12275(19)
N17_5 N 0.71722(17) 0.0352(3) 0.13212(14)
N18_5 N 0.73991(16) 0.0311(3) 0.11875(17)
O19_3 O 0.6221(3) 0.1673(5) 0.1052(3)
O20_3 O 0.8176(2) 0.0320(5) 0.3131(2)
C61_5 C 0.8405(3) 0.0037(7) 0.8764(3)
C62_5 C 0.8424(3) 0.0551(5) 0.8993(4)
H53_5 H 0.8285 0.0939 0.8899
C63_5 C 0.8664(3) 0.0461(5) 0.9371(3)
C64_5 C 0.8534(4) 0.1525(7) 0.9505(3)
H54_5 H 0.8587 0.1800 0.9719
H55_5 H 0.8277 0.1459 0.9355
H56_5 H 0.8621 0.1745 0.9357
C65_5 C 0.8165(4) 0.0105(7) 0.8343(4)
O7_3 O 0.7953(2) 0.0596(4) 0.82293(16)
O12_5 O 0.87036(18) 0.0915(4) 0.9625(2)
Zn8_3 Zn 0.77281(3) 0.03495(6) 0.76900(2)
Zn1_5 Zn 0.715390(18) 0.96245(4) 0.170227(19)
Zn2_5 Zn 0.77067(2) 0.95025(4) 0.12761(2)
Zn3_3 Zn 0.65736(2) 0.82188(4) 0.14321(2)
Zn5_3 Zn 0.77281(3) 0.96505(6) 0.26900(2)
C1_5 C 0.7065(2) 0.7941(5) 0.2289(3)
C2_5 C 0.7305(3) 0.8313(6) 0.2564(3)
C3_5 C 0.7494(3) 0.8100(6) 0.2939(4)
H1_5 H 0.7673 0.8360 0.3131
C4_5 C 0.7399(3) 0.7501(8) 0.3000(3)
H2_5 H 0.7514 0.7334 0.3244
C5_5 C 0.7128(3) 0.7103(5) 0.2707(4)
C6_5 C 0.6939(2) 0.7315(5) 0.2325(3)
H3_5 H 0.6757 0.7070 0.2127
C7_5 C 0.6999(2) 0.6379(5) 0.2770(3)
H4_5 H 0.7134 0.6263 0.3032
H5_5 H 0.7040 0.6048 0.2626
H6_5 H 0.6745 0.6394 0.2690
C8_5 C 0.6981(3) 0.7902(5) 0.1013(2)
C9_5 C 0.7252(3) 0.8195(5) 0.0977(3)
C10_5 C 0.7386(3) 0.7899(7) 0.0765(4)
H7_5 H 0.7576 0.8094 0.0748
C11_5 C 0.7236(4) 0.7337(8) 0.0588(4)
H8_5 H 0.7304 0.7146 0.0426
C12_5 C 0.6974(5) 0.7031(7) 0.0648(4)
C13_5 C 0.6821(3) 0.7311(7) 0.0841(3)
H9_5 H 0.6628 0.7118 0.0854
C14_5 C 0.6817(5) 0.6335(8) 0.0452(5)
H10_5 H 0.6944 0.6188 0.0326
H11_5 H 0.6564 0.6382 0.0272
H12_5 H 0.6849 0.6009 0.0638
C15_5 C 0.8295(3) 0.9382(5) 0.2130(4)
C16_5 C 0.8309(3) 0.9421(5) 0.2453(4)
C17_5 C 0.8617(4) 0.9284(6) 0.2814(3)
H13_5 H 0.8610 0.9273 0.3036
C18_5 C 0.8920(4) 0.9175(8) 0.2796(5)
C19_5 C 0.8915(5) 0.9101(8) 0.2455(6)
H14_5 H 0.9129 0.8975 0.2463
C20_5 C 0.8599(4) 0.9210(6) 0.2095(4)
H15_5 H 0.8594 0.9172 0.1867
C21_5 C 0.9267(4) 0.8956(9) 0.3157(4)
H16_5 H 0.9462 0.8903 0.3104
H17_5 H 0.9224 0.8536 0.3243
H18_5 H 0.9332 0.9292 0.3347
C22_5 C 0.6031(2) 0.9356(5) 0.1137(2)
C26_5 C 0.5378(2) 0.9328(5) 0.0792(3)
H20_5 H 0.5162 0.9085 0.0682
C27_5 C 0.5709(3) 0.8993(3) 0.0972(3)
H21_5 H 0.5715 0.8526 0.0982
H22_3 H 0.4838 0.9898 0.0373
C45_5 C 0.96045(16) 0.9582(3) 0.04486(17)
C46_5 C 0.98713(16) 0.9028(3) 0.06390(16)
H40_5 H 0.9745 0.8617 0.0632
C47_5 C 0.93465(17) 0.9379(3) 0.00560(17)
H42_5 H 0.9226 0.8963 0.0052
C48_5 C 0.94081(17) 0.9749(3) 0.06612(17)
H43_5 H 0.9582 0.9852 0.0921
C55_5 C 0.9986(5) 0.7054(10) 0.0064(7)
C56_5 C 0.8170(3) 0.9438(8) 0.1095(3)
C66_5 C 0.8969(2) 0.9262(6) 0.0767(2)
C67_5 C 0.8932(2) 0.9827(6) 0.0906(3)
C68_5 C 0.8664(3) 0.9883(5) 0.1025(2)
C69_5 C 0.8451(2) 0.9335(7) 0.0978(3)
C70_5 C 0.8500(3) 0.8799(7) 0.0842(3)
H59_5 H 0.8355 0.8425 0.0808
C71_5 C 0.8765(3) 0.8767(7) 0.0745(3)
C72_5 C 0.8671(6) 0.7753(11) 0.0560(7)
H60_5 H 0.8724 0.7425 0.0423
H61_5 H 0.8413 0.7825 0.0435
H62_5 H 0.8755 0.7592 0.0810
N1_5 N 0.73780(16) 0.8895(3) 0.2453(2)
N2_5 N 0.71579(19) 0.8891(3) 0.2094(2)
N3_5 N 0.69559(14) 0.8327(4) 0.19846(19)
N4_5 N 0.68993(14) 0.8287(4) 0.12289(16)
N5_5 N 0.71213(16) 0.8817(3) 0.13260(13)
N6_5 N 0.73340(14) 0.8769(3) 0.11715(17)
N7_5 N 0.7946(2) 0.9500(3) 0.18462(16)
N8_5 N 0.77422(16) 0.9581(3) 0.2001(2)
N9_5 N 0.7948(2) 0.9566(3) 0.2368(2)
N11_5 N 0.65689(15) 0.9639(4) 0.14098(14)
N12_5 N 0.63570(17) 0.9128(4) 0.13145(17)
O3_5 O 0.8028(2) 0.8907(5) 0.1114(2)
O4_5 O 0.8108(2) 0.9936(5) 0.1191(3)
O11_5 O 0.8813(3) 0.8245(6) 0.0573(4)
O14_5 O 0.91979(14) 0.9186(3) 0.06412(13)
O17_3 O 0.6085(3) 0.7703(5) 0.0874(3)
O18_3 O 0.62910(15) 0.7483(3) 0.1466(2)
O21_3 O 0.7953(2) 0.9404(4) 0.32293(16)
H41_5 H 0.9474 0.9314 0.9918
H48_5 H 0.9735 0.6942 0.9898
C58_5 C 0.8867(2) 0.9909(5) 0.9525(3)
C59_5 C 0.88312(19) 0.9420(4) 0.9275(3)
H51_5 H 0.8964 0.9025 0.9367
C60_5 C 0.8605(2) 0.9489(5) 0.8888(3)
H52_5 H 0.8595 0.9159 0.8723
O6_3 O 0.8176(2) 0.9680(5) 0.8131(2)
O13_5 O 0.90862(13) 0.9915(2) 0.98920(16)
Zn1_6 Zn 0.215390(18) 0.46245(4) 0.170227(19)
Zn2_6 Zn 0.27067(2) 0.45025(4) 0.12761(2)
Zn5_4 Zn 0.27281(3) 0.46505(6) 0.26900(2)
C1_6 C 0.2065(2) 0.2941(5) 0.2289(3)
C2_6 C 0.2305(3) 0.3313(6) 0.2564(3)
C3_6 C 0.2494(3) 0.3100(6) 0.2939(4)
H1_6 H 0.2673 0.3360 0.3131
C4_6 C 0.2399(3) 0.2501(8) 0.3000(3)
H2_6 H 0.2514 0.2334 0.3244
C5_6 C 0.2128(3) 0.2103(5) 0.2707(4)
C6_6 C 0.1939(2) 0.2315(5) 0.2325(3)
H3_6 H 0.1757 0.2070 0.2127
C7_6 C 0.1999(2) 0.1379(5) 0.2770(3)
H4_6 H 0.2134 0.1263 0.3032
H5_6 H 0.2040 0.1048 0.2626
H6_6 H 0.1745 0.1394 0.2690
C8_6 C 0.1981(3) 0.2902(5) 0.1013(2)
C9_6 C 0.2252(3) 0.3195(5) 0.0977(3)
C10_6 C 0.2386(3) 0.2899(7) 0.0765(4)
H7_6 H 0.2576 0.3094 0.0748
C11_6 C 0.2236(4) 0.2337(8) 0.0588(4)
H8_6 H 0.2304 0.2146 0.0426
C12_6 C 0.1974(5) 0.2031(7) 0.0648(4)
C13_6 C 0.1821(3) 0.2311(7) 0.0841(3)
H9_6 H 0.1628 0.2118 0.0854
C14_6 C 0.1817(5) 0.1335(8) 0.0452(5)
H10_6 H 0.1944 0.1188 0.0326
H11_6 H 0.1564 0.1382 0.0272
H12_6 H 0.1849 0.1009 0.0638
C15_6 C 0.3295(3) 0.4382(5) 0.2130(4)
C16_6 C 0.3309(3) 0.4421(5) 0.2453(4)
C17_6 C 0.3617(4) 0.4284(6) 0.2814(3)
H13_6 H 0.3610 0.4273 0.3036
C18_6 C 0.3920(4) 0.4175(8) 0.2796(5)
C19_6 C 0.3915(5) 0.4101(8) 0.2455(6)
H14_6 H 0.4129 0.3975 0.2463
C20_6 C 0.3599(4) 0.4210(6) 0.2095(4)
H15_6 H 0.3594 0.4172 0.1867
C21_6 C 0.4267(4) 0.3956(9) 0.3157(4)
H16_6 H 0.4462 0.3903 0.3104
H17_6 H 0.4224 0.3536 0.3243
H18_6 H 0.4332 0.4292 0.3347
C22_6 C 0.1031(2) 0.4356(5) 0.1137(2)
C23_6 C 0.10229(19) 0.5054(5) 0.1122(2)
C24_6 C 0.0692(3) 0.5389(3) 0.0942(3)
H19_6 H 0.0686 0.5856 0.0932
C25_6 C 0.03694(19) 0.5026(5) 0.0777(3)
C26_6 C 0.0378(2) 0.4328(5) 0.0792(3)
H20_6 H 0.0162 0.4085 0.0682
C27_6 C 0.0709(3) 0.3993(3) 0.0972(3)
H21_6 H 0.0715 0.3526 0.0982
C28_6 C 0.0015(8) 0.525(2) 0.0441(9)
H23_6 H 0.0053 0.5336 0.0233
C29_6 C 0.2097(4) 0.6338(6) 0.2293(5)
C30_6 C 0.2336(4) 0.5954(11) 0.2558(4)
C31_6 C 0.2495(3) 0.6199(8) 0.2934(4)
H25_6 H 0.2671 0.5957 0.3138
C32_6 C 0.2376(5) 0.6799(11) 0.2976(5)
H26_6 H 0.2473 0.6946 0.3222
C33_6 C 0.2133(5) 0.7223(6) 0.2708(6)
C34_6 C 0.1969(3) 0.7013(7) 0.2324(4)
H27_6 H 0.1804 0.7268 0.2121
C35_6 C 0.2066(3) 0.7863(6) 0.2821(4)
H28_6 H 0.1890 0.8105 0.2604
H29_6 H 0.2288 0.8116 0.2945
H30_6 H 0.1976 0.7798 0.2991
C36_6 C 0.6085(3) 0.7388(6) 0.1120(4)
C37_6 C 0.5785(2) 0.6853(5) 0.1051(3)
C38_6 C 0.5799(3) 0.6513(6) 0.1325(3)
H31_6 H 0.5978 0.6585 0.1574
C39_6 C 0.5528(3) 0.6031(6) 0.1221(3)
C40_6 C 0.5275(2) 0.5878(5) 0.0868(3)
C41_6 C 0.52809(18) 0.6251(5) 0.0609(2)
H32_6 H 0.5105 0.6169 0.0360
C42_6 C 0.5536(2) 0.6772(4) 0.0678(3)
H33_6 H 0.5533 0.7031 0.0489
C43_6 C 0.5791(3) 0.5724(6) 0.1878(3)
H34_6 H 0.5746 0.5411 0.2027
H35_6 H 0.5783 0.6174 0.1957
H36_6 H 0.6027 0.5639 0.1909
C44_6 C 0.47975(17) 0.5182(4) 0.04383(17)
H37_6 H 0.4929 0.5084 0.0307
H38_6 H 0.4625 0.5539 0.0305
C45_6 C 0.46045(16) 0.4582(3) 0.04486(17)
C46_6 C 0.48713(16) 0.4028(3) 0.06390(16)
H39_6 H 0.5036 0.4144 0.0900
H40_6 H 0.4745 0.3617 0.0632
C47_6 C 0.43465(17) 0.4379(3) 0.00560(17)
H42_6 H 0.4226 0.3963 0.0052
C48_6 C 0.44081(17) 0.4749(3) 0.06612(17)
H43_6 H 0.4582 0.4852 0.0921
H44_6 H 0.4253 0.5138 0.0550
C49_6 C 0.5343(3) 0.3510(7) 0.0627(3)
C50_6 C 0.5679(4) 0.3737(6) 0.0885(3)
H45_6 H 0.5728 0.4190 0.0943
C51_6 C 0.5963(3) 0.3201(10) 0.1068(3)
H46_6 H 0.6180 0.3321 0.1280
C52_6 C 0.5931(4) 0.2630(6) 0.0963(5)
C53_6 C 0.5623(5) 0.2466(7) 0.0688(4)
H47_6 H 0.5575 0.2030 0.0593
C54_6 C 0.5363(4) 0.2974(9) 0.0534(5)
C55_6 C 0.4986(5) 0.2054(10) 0.0064(7)
H49_6 H 0.5101 0.1697 0.0243
C56_6 C 0.3170(3) 0.4438(8) 0.1095(3)
C57_6 C 0.6273(5) 0.2057(10) 0.1258(8)
C66_6 C 0.3969(2) 0.4262(6) 0.0767(2)
C67_6 C 0.3932(2) 0.4827(6) 0.0906(3)
H57_6 H 0.4078 0.5193 0.0930
C68_6 C 0.3664(3) 0.4883(5) 0.1025(2)
H58_6 H 0.3638 0.5279 0.1129
C69_6 C 0.3451(2) 0.4335(7) 0.0978(3)
C70_6 C 0.3500(3) 0.3799(7) 0.0842(3)
H59_6 H 0.3355 0.3425 0.0808
C71_6 C 0.3765(3) 0.3767(7) 0.0745(3)
C72_6 C 0.3671(6) 0.2753(11) 0.0560(7)
H60_6 H 0.3724 0.2425 0.0423
H61_6 H 0.3413 0.2825 0.0435
H62_6 H 0.3755 0.2592 0.0810
C73_6 C 0.2092(3) 0.6254(6) 0.1019(3)
C74_6 C 0.2346(3) 0.5888(6) 0.1010(3)
C75_6 C 0.2515(3) 0.6086(6) 0.0816(3)
H63_6 H 0.2690 0.5823 0.0805
C76_6 C 0.2409(5) 0.6705(9) 0.0637(5)
C77_6 C 0.2153(5) 0.7117(7) 0.0671(4)
H64_6 H 0.2099 0.7544 0.0564
C78_6 C 0.1984(3) 0.6880(7) 0.0861(4)
H65_6 H 0.1809 0.7128 0.0881
C79_6 C 0.2582(4) 0.7031(8) 0.0422(4)
H66_6 H 0.2750 0.6721 0.0412
H67_6 H 0.2708 0.7433 0.0550
H68_6 H 0.2395 0.7140 0.0172
N1_6 N 0.23780(16) 0.3895(3) 0.2453(2)
N2_6 N 0.21579(19) 0.3891(3) 0.2094(2)
N3_6 N 0.19559(14) 0.3327(4) 0.19846(19)
N4_6 N 0.18993(14) 0.3287(4) 0.12289(16)
N5_6 N 0.21213(16) 0.3817(3) 0.13260(13)
N6_6 N 0.23340(14) 0.3769(3) 0.11715(17)
N7_6 N 0.2946(2) 0.4500(3) 0.18462(16)
N8_6 N 0.27422(16) 0.4581(3) 0.2001(2)
N9_6 N 0.2948(2) 0.4566(3) 0.2368(2)
N10_6 N 0.13830(19) 0.5206(3) 0.13085(18)
N11_6 N 0.15689(15) 0.4639(4) 0.14098(14)
N12_6 N 0.13570(17) 0.4128(4) 0.13145(17)
N13_6 N 0.19965(16) 0.5979(5) 0.19766(18)
N14_6 N 0.2183(2) 0.5408(3) 0.2087(2)
N15_6 N 0.2399(2) 0.5378(4) 0.2449(3)
N16_6 N 0.19900(16) 0.5928(4) 0.12275(19)
N17_6 N 0.21722(17) 0.5352(3) 0.13212(14)
N18_6 N 0.23991(16) 0.5311(3) 0.11875(17)
O3_6 O 0.3028(2) 0.3907(5) 0.1114(2)
O4_6 O 0.3108(2) 0.4936(5) 0.1191(3)
O8_6 O 0.6526(3) 0.2394(6) 0.1326(3)
O9_6 O 0.50413(13) 0.5386(3) 0.08079(13)
O10_6 O 0.5009(4) 0.2729(6) 0.0281(3)
O11_6 O 0.3813(3) 0.3245(6) 0.0573(4)
O14_6 O 0.41979(14) 0.4186(3) 0.06412(13)
O15_6 O 0.50664(14) 0.3934(3) 0.04517(13)
O16_6 O 0.55148(17) 0.5645(4) 0.1482(2)
O20_4 O 0.3176(2) 0.5320(5) 0.3131(2)
O21_4 O 0.2953(2) 0.4404(4) 0.32293(16)
H41_6 H 0.4474 0.4314 0.9918
H48_6 H 0.4735 0.1942 0.9898
H50_4 H 0.5106 0.2114 0.9922
C58_6 C 0.3867(2) 0.4909(5) 0.9525(3)
C59_6 C 0.38312(19) 0.4420(4) 0.9275(3)
H51_6 H 0.3964 0.4025 0.9367
C60_6 C 0.3605(2) 0.4489(5) 0.8888(3)
H52_6 H 0.3595 0.4159 0.8723
C61_6 C 0.3405(3) 0.5037(7) 0.8764(3)
C62_6 C 0.3424(3) 0.5551(5) 0.8993(4)
H53_6 H 0.3285 0.5939 0.8899
C63_6 C 0.3664(3) 0.5461(5) 0.9371(3)
C64_6 C 0.3534(4) 0.6525(7) 0.9505(3)
H54_6 H 0.3587 0.6800 0.9719
H55_6 H 0.3277 0.6459 0.9355
H56_6 H 0.3621 0.6745 0.9357
C65_6 C 0.3165(4) 0.5105(7) 0.8343(4)
O6_4 O 0.3176(2) 0.4680(5) 0.8131(2)
O7_4 O 0.2953(2) 0.5596(4) 0.82293(16)
O12_6 O 0.37036(18) 0.5915(4) 0.9625(2)
O13_6 O 0.40862(13) 0.4915(2) 0.98920(16)
Zn8_4 Zn 0.27281(3) 0.53495(6) 0.76900(2)
H39_7 H 0.0036 0.0856 0.5900
C49_7 C 0.0343(3) 0.1490(7) 0.5627(3)
C50_7 C 0.0679(4) 0.1263(6) 0.5885(3)
H45_7 H 0.0728 0.0810 0.5943
C51_7 C 0.0963(3) 0.1799(10) 0.6068(3)
H46_7 H 0.1180 0.1679 0.6280
C52_7 C 0.0931(4) 0.2370(6) 0.5963(5)
C53_7 C 0.0623(5) 0.2534(7) 0.5688(4)
H47_7 H 0.0575 0.2970 0.5593
C54_7 C 0.0363(4) 0.2026(9) 0.5534(5)
H49_7 H 0.0101 0.3303 0.5243
H50_5 H 0.0106 0.2886 0.4922
C57_7 C 0.1273(5) 0.2943(10) 0.6258(8)
O5_4 O 0.1221(3) 0.3327(5) 0.6052(3)
O8_7 O 0.1526(3) 0.2606(6) 0.6326(3)
O10_7 O 0.0009(4) 0.2271(6) 0.5281(3)
O15_7 O 0.00664(14) 0.1066(3) 0.54517(13)
Zn7_4 Zn 0.16382(2) 0.38907(5) 0.64112(3)
C36_7 C 0.1085(3) 0.7612(6) 0.6120(4)
C37_7 C 0.0785(2) 0.8147(5) 0.6051(3)
C38_7 C 0.0799(3) 0.8487(6) 0.6325(3)
H31_7 H 0.0978 0.8415 0.6574
C39_7 C 0.0528(3) 0.8969(6) 0.6221(3)
C40_7 C 0.0275(2) 0.9122(5) 0.5868(3)
C41_7 C 0.02809(18) 0.8749(5) 0.5609(2)
H32_7 H 0.0105 0.8831 0.5360
C42_7 C 0.0536(2) 0.8228(4) 0.5678(3)
H33_7 H 0.0533 0.7969 0.5489
C43_7 C 0.0791(3) 0.9276(6) 0.6878(3)
H34_7 H 0.0746 0.9589 0.7027
H35_7 H 0.0783 0.8826 0.6957
H36_7 H 0.1027 0.9361 0.6909
O1_4 O 0.1085(3) 0.7297(5) 0.5874(3)
O2_4 O 0.12910(15) 0.7517(3) 0.6466(2)
O9_7 O 0.00413(13) 0.9614(3) 0.58079(13)
O16_7 O 0.05148(17) 0.9355(4) 0.6482(2)
Zn6_4 Zn 0.15736(2) 0.67812(4) 0.64321(2)
Zn1_7 Zn 0.715390(18) 0.03755(4) 0.670227(19)
Zn2_7 Zn 0.77067(2) 0.04975(4) 0.62761(2)
Zn3_4 Zn 0.65736(2) 0.17812(4) 0.64321(2)
C1_7 C 0.7065(2) 0.2059(5) 0.7289(3)
C2_7 C 0.7305(3) 0.1687(6) 0.7564(3)
C3_7 C 0.7494(3) 0.1900(6) 0.7939(4)
H1_7 H 0.7673 0.1640 0.8131
C4_7 C 0.7399(3) 0.2499(8) 0.8000(3)
H2_7 H 0.7514 0.2666 0.8244
C5_7 C 0.7128(3) 0.2897(5) 0.7707(4)
C6_7 C 0.6939(2) 0.2685(5) 0.7325(3)
H3_7 H 0.6757 0.2930 0.7127
C7_7 C 0.6999(2) 0.3621(5) 0.7770(3)
H4_7 H 0.7134 0.3737 0.8032
H5_7 H 0.7040 0.3952 0.7626
H6_7 H 0.6745 0.3606 0.7690
C8_7 C 0.6981(3) 0.2098(5) 0.6013(2)
C9_7 C 0.7252(3) 0.1805(5) 0.5977(3)
C10_7 C 0.7386(3) 0.2101(7) 0.5765(4)
H7_7 H 0.7576 0.1906 0.5748
C11_7 C 0.7236(4) 0.2663(8) 0.5588(4)
H8_7 H 0.7304 0.2854 0.5426
C12_7 C 0.6974(5) 0.2969(7) 0.5648(4)
C13_7 C 0.6821(3) 0.2689(7) 0.5841(3)
H9_7 H 0.6628 0.2882 0.5854
C14_7 C 0.6817(5) 0.3665(8) 0.5452(5)
H10_7 H 0.6944 0.3812 0.5326
H11_7 H 0.6564 0.3618 0.5272
H12_7 H 0.6849 0.3991 0.5638
C15_7 C 0.8295(3) 0.0618(5) 0.7130(4)
C16_7 C 0.8309(3) 0.0579(5) 0.7453(4)
C17_7 C 0.8617(4) 0.0716(6) 0.7814(3)
H13_7 H 0.8610 0.0727 0.8036
C18_7 C 0.8920(4) 0.0825(8) 0.7796(5)
C19_7 C 0.8915(5) 0.0899(8) 0.7455(6)
H14_7 H 0.9129 0.1025 0.7463
C20_7 C 0.8599(4) 0.0790(6) 0.7095(4)
H15_7 H 0.8594 0.0828 0.6867
C21_7 C 0.9267(4) 0.1044(9) 0.8157(4)
H16_7 H 0.9462 0.1097 0.8104
H17_7 H 0.9224 0.1464 0.8243
H18_7 H 0.9332 0.0708 0.8347
C22_7 C 0.6031(2) 0.0644(5) 0.6137(2)
C26_7 C 0.5378(2) 0.0672(5) 0.5792(3)
H20_7 H 0.5162 0.0915 0.5682
C27_7 C 0.5709(3) 0.1007(3) 0.5972(3)
H21_7 H 0.5715 0.1474 0.5982
H22_4 H 0.4838 0.0102 0.5373
C45_7 C 0.96045(16) 0.0418(3) 0.54486(17)
C46_7 C 0.98713(16) 0.0972(3) 0.56390(16)
H40_7 H 0.9745 0.1383 0.5632
C47_7 C 0.93465(17) 0.0621(3) 0.50560(17)
H41_7 H 0.9474 0.0686 0.4918
H42_7 H 0.9226 0.1037 0.5052
C48_7 C 0.94081(17) 0.0251(3) 0.56612(17)
H43_7 H 0.9582 0.0148 0.5921
C55_7 C 0.9986(5) 0.2946(10) 0.5064(7)
H48_7 H 0.9735 0.3058 0.4898
C56_7 C 0.8170(3) 0.0562(8) 0.6095(3)
C58_7 C 0.8867(2) 0.0091(5) 0.4525(3)
C59_7 C 0.88312(19) 0.0580(4) 0.4275(3)
H51_7 H 0.8964 0.0975 0.4367
C60_7 C 0.8605(2) 0.0511(5) 0.3888(3)
H52_7 H 0.8595 0.0841 0.3723
C66_7 C 0.8969(2) 0.0738(6) 0.5767(2)
C67_7 C 0.8932(2) 0.0173(6) 0.5906(3)
C68_7 C 0.8664(3) 0.0117(5) 0.6025(2)
C69_7 C 0.8451(2) 0.0665(7) 0.5978(3)
C70_7 C 0.8500(3) 0.1201(7) 0.5842(3)
H59_7 H 0.8355 0.1575 0.5808
C71_7 C 0.8765(3) 0.1233(7) 0.5745(3)
C72_7 C 0.8671(6) 0.2247(11) 0.5560(7)
H60_7 H 0.8724 0.2575 0.5423
H61_7 H 0.8413 0.2175 0.5435
H62_7 H 0.8755 0.2408 0.5810
N1_7 N 0.73780(16) 0.1105(3) 0.7453(2)
N2_7 N 0.71579(19) 0.1109(3) 0.7094(2)
N3_7 N 0.69559(14) 0.1673(4) 0.69846(19)
N4_7 N 0.68993(14) 0.1713(4) 0.62289(16)
N5_7 N 0.71213(16) 0.1183(3) 0.63260(13)
N6_7 N 0.73340(14) 0.1231(3) 0.61715(17)
N7_7 N 0.7946(2) 0.0500(3) 0.68462(16)
N8_7 N 0.77422(16) 0.0419(3) 0.7001(2)
N9_7 N 0.7948(2) 0.0434(3) 0.7368(2)
N11_7 N 0.65689(15) 0.0361(4) 0.64098(14)
N12_7 N 0.63570(17) 0.0872(4) 0.63145(17)
O3_7 O 0.8028(2) 0.1093(5) 0.6114(2)
O4_7 O 0.8108(2) 0.0064(5) 0.6191(3)
O11_7 O 0.8813(3) 0.1755(6) 0.5573(4)
O13_7 O 0.90862(13) 0.0085(2) 0.48920(16)
O14_7 O 0.91979(14) 0.0814(3) 0.56412(13)
O17_4 O 0.6085(3) 0.2297(5) 0.5874(3)
O18_4 O 0.62910(15) 0.2517(3) 0.6466(2)
Zn4_4 Zn 0.66382(2) 0.88907(5) 0.64112(3)
C23_7 C 0.60229(19) 0.9946(5) 0.6122(2)
C24_7 C 0.5692(3) 0.9611(3) 0.5942(3)
H19_7 H 0.5686 0.9144 0.5932
C25_7 C 0.53694(19) 0.9974(5) 0.5777(3)
C28_7 C 0.5015(8) 0.975(2) 0.5441(9)
H23_7 H 0.5053 0.9664 0.5233
H24_4 H 0.4931 0.9352 0.5503
C29_7 C 0.7097(4) 0.8662(6) 0.7293(5)
C30_7 C 0.7336(4) 0.9046(11) 0.7558(4)
C31_7 C 0.7495(3) 0.8801(8) 0.7934(4)
H25_7 H 0.7671 0.9043 0.8138
C32_7 C 0.7376(5) 0.8201(11) 0.7976(5)
H26_7 H 0.7473 0.8054 0.8222
C33_7 C 0.7133(5) 0.7777(6) 0.7708(6)
C34_7 C 0.6969(3) 0.7987(7) 0.7324(4)
H27_7 H 0.6804 0.7732 0.7121
C35_7 C 0.7066(3) 0.7137(6) 0.7821(4)
H28_7 H 0.6890 0.6895 0.7604
H29_7 H 0.7288 0.6884 0.7945
H30_7 H 0.6976 0.7202 0.7991
C44_7 C 0.97975(17) 0.9818(4) 0.54383(17)
H37_7 H 0.9929 0.9916 0.5307
H38_7 H 0.9625 0.9461 0.5305
H44_7 H 0.9253 0.9862 0.5550
C61_7 C 0.8405(3) 0.9963(7) 0.3764(3)
C62_7 C 0.8424(3) 0.9449(5) 0.3993(4)
H53_7 H 0.8285 0.9061 0.3899
C63_7 C 0.8664(3) 0.9539(5) 0.4371(3)
C64_7 C 0.8534(4) 0.8475(7) 0.4505(3)
H54_7 H 0.8587 0.8200 0.4719
H55_7 H 0.8277 0.8541 0.4355
H56_7 H 0.8621 0.8255 0.4357
C65_7 C 0.8165(4) 0.9895(7) 0.3343(4)
H57_7 H 0.9078 0.9807 0.5930
H58_7 H 0.8638 0.9721 0.6129
C73_7 C 0.7092(3) 0.8746(6) 0.6019(3)
C74_7 C 0.7346(3) 0.9112(6) 0.6010(3)
C75_7 C 0.7515(3) 0.8914(6) 0.5816(3)
H63_7 H 0.7690 0.9177 0.5805
C76_7 C 0.7409(5) 0.8295(9) 0.5637(5)
C77_7 C 0.7153(5) 0.7883(7) 0.5671(4)
H64_7 H 0.7099 0.7456 0.5564
C78_7 C 0.6984(3) 0.8120(7) 0.5861(4)
H65_7 H 0.6809 0.7872 0.5881
C79_7 C 0.7582(4) 0.7969(8) 0.5422(4)
H66_7 H 0.7750 0.8279 0.5412
H67_7 H 0.7708 0.7567 0.5550
H68_7 H 0.7395 0.7860 0.5172
N10_7 N 0.63830(19) 0.9794(3) 0.63085(18)
N13_7 N 0.69965(16) 0.9021(5) 0.69766(18)
N14_7 N 0.7183(2) 0.9592(3) 0.7087(2)
N15_7 N 0.7399(2) 0.9622(4) 0.7449(3)
N16_7 N 0.69900(16) 0.9072(4) 0.62275(19)
N17_7 N 0.71722(17) 0.9648(3) 0.63212(14)
N18_7 N 0.73991(16) 0.9689(3) 0.61875(17)
O12_7 O 0.87036(18) 0.9085(4) 0.4625(2)
O19_4 O 0.6221(3) 0.8327(5) 0.6052(3)
Zn1_8 Zn 0.215390(18) 0.53755(4) 0.670227(19)
Zn2_8 Zn 0.27067(2) 0.54975(4) 0.62761(2)
C1_8 C 0.2065(2) 0.7059(5) 0.7289(3)
C2_8 C 0.2305(3) 0.6687(6) 0.7564(3)
C3_8 C 0.2494(3) 0.6900(6) 0.7939(4)
H1_8 H 0.2673 0.6640 0.8131
C4_8 C 0.2399(3) 0.7499(8) 0.8000(3)
H2_8 H 0.2514 0.7666 0.8244
C5_8 C 0.2128(3) 0.7897(5) 0.7707(4)
C6_8 C 0.1939(2) 0.7685(5) 0.7325(3)
H3_8 H 0.1757 0.7930 0.7127
C7_8 C 0.1999(2) 0.8621(5) 0.7770(3)
H4_8 H 0.2134 0.8737 0.8032
H5_8 H 0.2040 0.8952 0.7626
H6_8 H 0.1745 0.8606 0.7690
C8_8 C 0.1981(3) 0.7098(5) 0.6013(2)
C9_8 C 0.2252(3) 0.6805(5) 0.5977(3)
C10_8 C 0.2386(3) 0.7101(7) 0.5765(4)
H7_8 H 0.2576 0.6906 0.5748
C11_8 C 0.2236(4) 0.7663(8) 0.5588(4)
H8_8 H 0.2304 0.7854 0.5426
C12_8 C 0.1974(5) 0.7969(7) 0.5648(4)
C13_8 C 0.1821(3) 0.7689(7) 0.5841(3)
H9_8 H 0.1628 0.7882 0.5854
C14_8 C 0.1817(5) 0.8665(8) 0.5452(5)
H10_8 H 0.1944 0.8812 0.5326
H11_8 H 0.1564 0.8618 0.5272
H12_8 H 0.1849 0.8991 0.5638
C15_8 C 0.3295(3) 0.5618(5) 0.7130(4)
C16_8 C 0.3309(3) 0.5579(5) 0.7453(4)
C17_8 C 0.3617(4) 0.5716(6) 0.7814(3)
H13_8 H 0.3610 0.5727 0.8036
C18_8 C 0.3920(4) 0.5825(8) 0.7796(5)
C19_8 C 0.3915(5) 0.5899(8) 0.7455(6)
H14_8 H 0.4129 0.6025 0.7463
C20_8 C 0.3599(4) 0.5790(6) 0.7095(4)
H15_8 H 0.3594 0.5828 0.6867
C21_8 C 0.4267(4) 0.6044(9) 0.8157(4)
H16_8 H 0.4462 0.6097 0.8104
H17_8 H 0.4224 0.6464 0.8243
H18_8 H 0.4332 0.5708 0.8347
C22_8 C 0.1031(2) 0.5644(5) 0.6137(2)
C23_8 C 0.10229(19) 0.4946(5) 0.6122(2)
C24_8 C 0.0692(3) 0.4611(3) 0.5942(3)
H19_8 H 0.0686 0.4144 0.5932
C25_8 C 0.03694(19) 0.4974(5) 0.5777(3)
C26_8 C 0.0378(2) 0.5672(5) 0.5792(3)
H20_8 H 0.0162 0.5915 0.5682
C27_8 C 0.0709(3) 0.6007(3) 0.5972(3)
H21_8 H 0.0715 0.6474 0.5982
C28_8 C 0.0015(8) 0.475(2) 0.5441(9)
H23_8 H 0.0053 0.4664 0.5233
C29_8 C 0.2097(4) 0.3662(6) 0.7293(5)
C30_8 C 0.2336(4) 0.4046(11) 0.7558(4)
C31_8 C 0.2495(3) 0.3801(8) 0.7934(4)
H25_8 H 0.2671 0.4043 0.8138
C32_8 C 0.2376(5) 0.3201(11) 0.7976(5)
H26_8 H 0.2473 0.3054 0.8222
C33_8 C 0.2133(5) 0.2777(6) 0.7708(6)
C34_8 C 0.1969(3) 0.2987(7) 0.7324(4)
H27_8 H 0.1804 0.2732 0.7121
C35_8 C 0.2066(3) 0.2137(6) 0.7821(4)
H28_8 H 0.1890 0.1895 0.7604
H29_8 H 0.2288 0.1884 0.7945
H30_8 H 0.1976 0.2202 0.7991
C36_8 C 0.6085(3) 0.2612(6) 0.6120(4)
C37_8 C 0.5785(2) 0.3147(5) 0.6051(3)
C38_8 C 0.5799(3) 0.3487(6) 0.6325(3)
H31_8 H 0.5978 0.3415 0.6574
C39_8 C 0.5528(3) 0.3969(6) 0.6221(3)
C40_8 C 0.5275(2) 0.4122(5) 0.5868(3)
C41_8 C 0.52809(18) 0.3749(5) 0.5609(2)
H32_8 H 0.5105 0.3831 0.5360
C42_8 C 0.5536(2) 0.3228(4) 0.5678(3)
H33_8 H 0.5533 0.2969 0.5489
C43_8 C 0.5791(3) 0.4276(6) 0.6878(3)
H34_8 H 0.5746 0.4589 0.7027
H35_8 H 0.5783 0.3826 0.6957
H36_8 H 0.6027 0.4361 0.6909
C44_8 C 0.47975(17) 0.4818(4) 0.54383(17)
H37_8 H 0.4929 0.4916 0.5307
H38_8 H 0.4625 0.4461 0.5305
C45_8 C 0.46045(16) 0.5418(3) 0.54486(17)
C46_8 C 0.48713(16) 0.5972(3) 0.56390(16)
H39_8 H 0.5036 0.5856 0.5900
H40_8 H 0.4745 0.6383 0.5632
C47_8 C 0.43465(17) 0.5621(3) 0.50560(17)
H41_8 H 0.4474 0.5686 0.4918
H42_8 H 0.4226 0.6037 0.5052
C48_8 C 0.44081(17) 0.5251(3) 0.56612(17)
H43_8 H 0.4582 0.5148 0.5921
H44_8 H 0.4253 0.4862 0.5550
C49_8 C 0.5343(3) 0.6490(7) 0.5627(3)
C50_8 C 0.5679(4) 0.6263(6) 0.5885(3)
H45_8 H 0.5728 0.5810 0.5943
C51_8 C 0.5963(3) 0.6799(10) 0.6068(3)
H46_8 H 0.6180 0.6679 0.6280
C52_8 C 0.5931(4) 0.7370(6) 0.5963(5)
C53_8 C 0.5623(5) 0.7534(7) 0.5688(4)
H47_8 H 0.5575 0.7970 0.5593
C54_8 C 0.5363(4) 0.7026(9) 0.5534(5)
C55_8 C 0.4986(5) 0.7946(10) 0.5064(7)
H48_8 H 0.4735 0.8058 0.4898
H49_8 H 0.5101 0.8303 0.5243
H50_6 H 0.5106 0.7886 0.4922
C56_8 C 0.3170(3) 0.5562(8) 0.6095(3)
C57_8 C 0.6273(5) 0.7943(10) 0.6258(8)
C58_8 C 0.3867(2) 0.5091(5) 0.4525(3)
C59_8 C 0.38312(19) 0.5580(4) 0.4275(3)
H51_8 H 0.3964 0.5975 0.4367
C60_8 C 0.3605(2) 0.5511(5) 0.3888(3)
H52_8 H 0.3595 0.5841 0.3723
C61_8 C 0.3405(3) 0.4963(7) 0.3764(3)
C62_8 C 0.3424(3) 0.4449(5) 0.3993(4)
H53_8 H 0.3285 0.4061 0.3899
C63_8 C 0.3664(3) 0.4539(5) 0.4371(3)
C64_8 C 0.3534(4) 0.3475(7) 0.4505(3)
H54_8 H 0.3587 0.3200 0.4719
H55_8 H 0.3277 0.3541 0.4355
H56_8 H 0.3621 0.3255 0.4357
C65_8 C 0.3165(4) 0.4895(7) 0.3343(4)
C66_8 C 0.3969(2) 0.5738(6) 0.5767(2)
C67_8 C 0.3932(2) 0.5173(6) 0.5906(3)
H57_8 H 0.4078 0.4807 0.5930
C68_8 C 0.3664(3) 0.5117(5) 0.6025(2)
H58_8 H 0.3638 0.4721 0.6129
C69_8 C 0.3451(2) 0.5665(7) 0.5978(3)
C70_8 C 0.3500(3) 0.6201(7) 0.5842(3)
H59_8 H 0.3355 0.6575 0.5808
C71_8 C 0.3765(3) 0.6233(7) 0.5745(3)
C72_8 C 0.3671(6) 0.7247(11) 0.5560(7)
H60_8 H 0.3724 0.7575 0.5423
H61_8 H 0.3413 0.7175 0.5435
H62_8 H 0.3755 0.7408 0.5810
C73_8 C 0.2092(3) 0.3746(6) 0.6019(3)
C74_8 C 0.2346(3) 0.4112(6) 0.6010(3)
C75_8 C 0.2515(3) 0.3914(6) 0.5816(3)
H63_8 H 0.2690 0.4177 0.5805
C76_8 C 0.2409(5) 0.3295(9) 0.5637(5)
C77_8 C 0.2153(5) 0.2883(7) 0.5671(4)
H64_8 H 0.2099 0.2456 0.5564
C78_8 C 0.1984(3) 0.3120(7) 0.5861(4)
H65_8 H 0.1809 0.2872 0.5881
C79_8 C 0.2582(4) 0.2969(8) 0.5422(4)
H66_8 H 0.2750 0.3279 0.5412
H67_8 H 0.2708 0.2567 0.5550
H68_8 H 0.2395 0.2860 0.5172
N1_8 N 0.23780(16) 0.6105(3) 0.7453(2)
N2_8 N 0.21579(19) 0.6109(3) 0.7094(2)
N3_8 N 0.19559(14) 0.6673(4) 0.69846(19)
N4_8 N 0.18993(14) 0.6713(4) 0.62289(16)
N5_8 N 0.21213(16) 0.6183(3) 0.63260(13)
N6_8 N 0.23340(14) 0.6231(3) 0.61715(17)
N7_8 N 0.2946(2) 0.5500(3) 0.68462(16)
N8_8 N 0.27422(16) 0.5419(3) 0.7001(2)
N9_8 N 0.2948(2) 0.5434(3) 0.7368(2)
N10_8 N 0.13830(19) 0.4794(3) 0.63085(18)
N11_8 N 0.15689(15) 0.5361(4) 0.64098(14)
N12_8 N 0.13570(17) 0.5872(4) 0.63145(17)
N13_8 N 0.19965(16) 0.4021(5) 0.69766(18)
N14_8 N 0.2183(2) 0.4592(3) 0.7087(2)
N15_8 N 0.2399(2) 0.4622(4) 0.7449(3)
N16_8 N 0.19900(16) 0.4072(4) 0.62275(19)
N17_8 N 0.21722(17) 0.4648(3) 0.63212(14)
N18_8 N 0.23991(16) 0.4689(3) 0.61875(17)
O3_8 O 0.3028(2) 0.6093(5) 0.6114(2)
O4_8 O 0.3108(2) 0.5064(5) 0.6191(3)
O8_8 O 0.6526(3) 0.7606(6) 0.6326(3)
O9_8 O 0.50413(13) 0.4614(3) 0.58079(13)
O10_8 O 0.5009(4) 0.7271(6) 0.5281(3)
O11_8 O 0.3813(3) 0.6755(6) 0.5573(4)
O12_8 O 0.37036(18) 0.4085(4) 0.4625(2)
O13_8 O 0.40862(13) 0.5085(2) 0.48920(16)
O14_8 O 0.41979(14) 0.5814(3) 0.56412(13)
O15_8 O 0.50664(14) 0.6066(3) 0.54517(13)
O16_8 O 0.55148(17) 0.4355(4) 0.6482(2)
H50_7 H 0.0106 0.7114 0.9922
H22_5 H 0.0162 0.4898 0.4627
H24_5 H 0.0069 0.5648 0.4497
H22_6 H 0.9838 0.4898 0.0373
H24_6 H 0.9931 0.5648 0.0503
H50_8 H 0.9894 0.2886 0.0078
H22_7 H 0.9838 0.5102 0.5373
H24_7 H 0.9931 0.4352 0.5503
H22_8 H 0.0162 0.5102 0.9627
H24_8 H 0.0069 0.4352 0.9497
loop_
_geom_bond_atom_site_label_1
_geom_bond_atom_site_label_2
_geom_bond_site_symmetry_1
_geom_bond_site_symmetry_2
Zn4 N10 1_555 1_555
C23 C24 1_555 1_555
C24 H19 1_555 1_555
C25 C24 1_555 1_555
C28 C25 1_555 1_555
H23 C28 1_555 1_555
H24 C28 1_555 1_555
C29 C30 1_555 1_555
C30 C31 1_555 1_555
C31 H25 1_555 1_555
C32 C31 1_555 1_555
H26 C32 1_555 1_555
C33 C32 1_555 1_555
C34 C29 1_555 1_555
H27 C34 1_555 1_555
C35 C33 1_555 1_555
H28 C35 1_555 1_555
H29 C35 1_555 1_555
H30 C35 1_555 1_555
C44 H37 1_555 1_555
H38 C44 1_555 1_555
C62 C61 1_555 1_555
H53 C62 1_555 1_555
C64 H54 1_555 1_555
H55 C64 1_555 1_555
H56 C64 1_555 1_555
C65 C61 1_555 1_555
C73 C74 1_555 1_555
C74 C75 1_555 1_555
C75 H63 1_555 1_555
C76 C75 1_555 1_555
C77 C76 1_555 1_555
H64 C77 1_555 1_555
C78 C73 1_555 1_555
H65 C78 1_555 1_555
C79 C76 1_555 1_555
H66 C79 1_555 1_555
H67 C79 1_555 1_555
H68 C79 1_555 1_555
N10 C23 1_555 1_555
N13 Zn4 1_555 1_555
N16 Zn4 1_555 1_555
O7 C65 1_555 1_555
O12 C63 1_555 1_555
O19 Zn4 1_555 1_555
C29 N13 1_555 1_555
C30 N15 1_555 1_555
C33 C34 1_555 1_555
C62 C63 1_555 1_555
C64 O12 1_555 1_555
C73 N16 1_555 1_555
C74 N18 1_555 1_555
C77 C78 1_555 1_555
N13 N14 1_555 1_555
N14 N15 1_555 1_555
N16 N17 1_555 1_555
N17 N18 1_555 1_555
O7 Zn8 1_555 1_555
Zn1 N2 1_555 1_555
Zn2 N6 1_555 1_555
Zn3 N3 1_555 1_555
Zn5 N1 1_555 1_555
C1 C2 1_555 1_555
C2 C3 1_555 1_555
C3 H1 1_555 1_555
C4 C3 1_555 1_555
H2 C4 1_555 1_555
C5 C4 1_555 1_555
C6 C1 1_555 1_555
H3 C6 1_555 1_555
C7 C5 1_555 1_555
H4 C7 1_555 1_555
H5 C7 1_555 1_555
H6 C7 1_555 1_555
C8 C9 1_555 1_555
C9 C10 1_555 1_555
C10 H7 1_555 1_555
C11 C10 1_555 1_555
H8 C11 1_555 1_555
C12 C11 1_555 1_555
C13 C8 1_555 1_555
H9 C13 1_555 1_555
C14 C12 1_555 1_555
H10 C14 1_555 1_555
H11 C14 1_555 1_555
H12 C14 1_555 1_555
C15 C16 1_555 1_555
C16 C17 1_555 1_555
C17 H13 1_555 1_555
C18 C17 1_555 1_555
C19 C18 1_555 1_555
H14 C19 1_555 1_555
C20 C15 1_555 1_555
H15 C20 1_555 1_555
C21 C18 1_555 1_555
H16 C21 1_555 1_555
H17 C21 1_555 1_555
H18 C21 1_555 1_555
H20 C26 1_555 1_555
C27 C22 1_555 1_555
H21 C27 1_555 1_555
C46 C45 1_555 1_555
H40 C46 1_555 1_555
C47 C45 1_555 1_555
H41 C47 1_555 1_555
H42 C47 1_555 1_555
C48 C45 1_555 1_555
H43 C48 1_555 1_555
C55 H48 1_555 1_555
C56 C69 1_555 1_555
C58 C59 1_555 1_555
C59 H51 1_555 1_555
C60 C59 1_555 1_555
H52 C60 1_555 1_555
C66 C67 1_555 1_555
C68 C67 1_555 1_555
C69 C68 1_555 1_555
C70 C69 1_555 1_555
H59 C70 1_555 1_555
C71 C66 1_555 1_555
C72 H60 1_555 1_555
H61 C72 1_555 1_555
H62 C72 1_555 1_555
N1 C2 1_555 1_555
N2 N1 1_555 1_555
N3 C1 1_555 1_555
N4 Zn3 1_555 1_555
N5 Zn1 1_555 1_555
N6 C9 1_555 1_555
N7 Zn2 1_555 1_555
N8 Zn1 1_555 1_555
N9 Zn5 1_555 1_555
N11 Zn1 1_555 1_555
N12 Zn3 1_555 1_555
O3 Zn2 1_555 1_555
O4 Zn2 1_555 1_555
O11 C71 1_555 1_555
O13 C47 1_555 1_555
O14 C48 1_555 1_555
O17 Zn3 1_555 1_555
O18 Zn3 1_555 1_555
O21 Zn5 1_555 1_555
C5 C6 1_555 1_555
C8 N4 1_555 1_555
C12 C13 1_555 1_555
C15 N7 1_555 1_555
C16 N9 1_555 1_555
C19 C20 1_555 1_555
C22 N12 1_555 1_555
C26 C27 1_555 1_555
C56 O3 1_555 1_555
C56 O4 1_555 1_555
C58 O13 1_555 1_555
C66 O14 1_555 1_555
C70 C71 1_555 1_555
C72 O11 1_555 1_555
N2 N3 1_555 1_555
N4 N5 1_555 1_555
N5 N6 1_555 1_555
N7 N8 1_555 1_555
N8 N9 1_555 1_555
N11 N12 1_555 1_555
C36 C37 1_555 1_555
C37 C38 1_555 1_555
C38 H31 1_555 1_555
C39 C38 1_555 1_555
C40 C39 1_555 1_555
C41 C40 1_555 1_555
H32 C41 1_555 1_555
C42 C37 1_555 1_555
H33 C42 1_555 1_555
C43 H34 1_555 1_555
H35 C43 1_555 1_555
H36 C43 1_555 1_555
O1 C36 1_555 1_555
O2 C36 1_555 1_555
O9 C40 1_555 1_555
O16 C39 1_555 1_555
Zn6 O1 1_555 1_555
C41 C42 1_555 1_555
C43 O16 1_555 1_555
O2 Zn6 1_555 1_555
C49 C50 1_555 1_555
C50 H45 1_555 1_555
C51 C50 1_555 1_555
H46 C51 1_555 1_555
C52 C51 1_555 1_555
C53 C52 1_555 1_555
H47 C53 1_555 1_555
C54 C49 1_555 1_555
C57 C52 1_555 1_555
O5 C57 1_555 1_555
O8 C57 1_555 1_555
O10 C54 1_555 1_555
Zn7 O5 1_555 1_555
C49 O15 1_555 1_555
C53 C54 1_555 1_555
Zn1_2 N2_2 1_555 1_555
Zn2_2 N6_2 1_555 1_555
Zn6 N3_2 1_555 1_555
Zn7 N10_2 1_555 1_555
Zn5_2 N1_2 1_555 1_555
C1_2 C2_2 1_555 1_555
C2_2 C3_2 1_555 1_555
C3_2 H1_2 1_555 1_555
C4_2 C3_2 1_555 1_555
H2_2 C4_2 1_555 1_555
C5_2 C4_2 1_555 1_555
C6_2 C1_2 1_555 1_555
H3_2 C6_2 1_555 1_555
C7_2 C5_2 1_555 1_555
H4_2 C7_2 1_555 1_555
H5_2 C7_2 1_555 1_555
H6_2 C7_2 1_555 1_555
C8_2 C9_2 1_555 1_555
C9_2 C10_2 1_555 1_555
C10_2 H7_2 1_555 1_555
C11_2 C10_2 1_555 1_555
H8_2 C11_2 1_555 1_555
C12_2 C11_2 1_555 1_555
C13_2 C8_2 1_555 1_555
H9_2 C13_2 1_555 1_555
C14_2 C12_2 1_555 1_555
H10_2 C14_2 1_555 1_555
H11_2 C14_2 1_555 1_555
H12_2 C14_2 1_555 1_555
C15_2 C16_2 1_555 1_555
C16_2 C17_2 1_555 1_555
C17_2 H13_2 1_555 1_555
C18_2 C17_2 1_555 1_555
C19_2 C18_2 1_555 1_555
H14_2 C19_2 1_555 1_555
C20_2 C15_2 1_555 1_555
H15_2 C20_2 1_555 1_555
C21_2 C18_2 1_555 1_555
H16_2 C21_2 1_555 1_555
H17_2 C21_2 1_555 1_555
H18_2 C21_2 1_555 1_555
C22_2 C23_2 1_555 1_555
C23_2 C24_2 1_555 1_555
C24_2 H19_2 1_555 1_555
C25_2 C24_2 1_555 1_555
C26_2 C25_2 1_555 1_555
H20_2 C26_2 1_555 1_555
C27_2 C22_2 1_555 1_555
H21_2 C27_2 1_555 1_555
C28_2 C25_2 1_555 1_555
H23_2 C28_2 1_555 1_555
C29_2 C30_2 1_555 1_555
C30_2 C31_2 1_555 1_555
C31_2 H25_2 1_555 1_555
C32_2 C31_2 1_555 1_555
H26_2 C32_2 1_555 1_555
C33_2 C32_2 1_555 1_555
C34_2 C29_2 1_555 1_555
H27_2 C34_2 1_555 1_555
C35_2 C33_2 1_555 1_555
H28_2 C35_2 1_555 1_555
H29_2 C35_2 1_555 1_555
H30_2 C35_2 1_555 1_555
C36_2 C37_2 1_555 1_555
C37_2 C38_2 1_555 1_555
C38_2 H31_2 1_555 1_555
C39_2 C38_2 1_555 1_555
C40_2 C39_2 1_555 1_555
C41_2 C40_2 1_555 1_555
H32_2 C41_2 1_555 1_555
C42_2 C37_2 1_555 1_555
H33_2 C42_2 1_555 1_555
C43_2 H34_2 1_555 1_555
H35_2 C43_2 1_555 1_555
H36_2 C43_2 1_555 1_555
C44_2 H37_2 1_555 1_555
H38_2 C44_2 1_555 1_555
C45_2 C44_2 1_555 1_555
C46_2 C45_2 1_555 1_555
H39_2 C46_2 1_555 1_555
H40_2 C46_2 1_555 1_555
C47_2 C45_2 1_555 1_555
H41_2 C47_2 1_555 1_555
H42_2 C47_2 1_555 1_555
C48_2 C45_2 1_555 1_555
H43_2 C48_2 1_555 1_555
H44_2 C48_2 1_555 1_555
C49_2 C50_2 1_555 1_555
C50_2 H45_2 1_555 1_555
C51_2 C50_2 1_555 1_555
H46_2 C51_2 1_555 1_555
C52_2 C51_2 1_555 1_555
C53_2 C52_2 1_555 1_555
H47_2 C53_2 1_555 1_555
C54_2 C49_2 1_555 1_555
C55_2 H48_2 1_555 1_555
H49_2 C55_2 1_555 1_555
H50_2 C55_2 1_555 1_555
C56_2 C69_2 1_555 1_555
C57_2 C52_2 1_555 1_555
C58_2 C59_2 1_555 1_555
C59_2 H51_2 1_555 1_555
C60_2 C59_2 1_555 1_555
H52_2 C60_2 1_555 1_555
C61_2 C60_2 1_555 1_555
C62_2 C61_2 1_555 1_555
H53_2 C62_2 1_555 1_555
C63_2 C58_2 1_555 1_555
C64_2 H54_2 1_555 1_555
H55_2 C64_2 1_555 1_555
H56_2 C64_2 1_555 1_555
C65_2 C61_2 1_555 1_555
C66_2 C67_2 1_555 1_555
C67_2 H57_2 1_555 1_555
C68_2 C67_2 1_555 1_555
H58_2 C68_2 1_555 1_555
C69_2 C68_2 1_555 1_555
C70_2 C69_2 1_555 1_555
H59_2 C70_2 1_555 1_555
C71_2 C66_2 1_555 1_555
C72_2 H60_2 1_555 1_555
H61_2 C72_2 1_555 1_555
H62_2 C72_2 1_555 1_555
C73_2 C74_2 1_555 1_555
C74_2 C75_2 1_555 1_555
C75_2 H63_2 1_555 1_555
C76_2 C75_2 1_555 1_555
C77_2 C76_2 1_555 1_555
H64_2 C77_2 1_555 1_555
C78_2 C73_2 1_555 1_555
H65_2 C78_2 1_555 1_555
C79_2 C76_2 1_555 1_555
H66_2 C79_2 1_555 1_555
H67_2 C79_2 1_555 1_555
H68_2 C79_2 1_555 1_555
N1_2 C2_2 1_555 1_555
N2_2 N1_2 1_555 1_555
N3_2 C1_2 1_555 1_555
N4_2 Zn6 1_555 1_555
N5_2 Zn1_2 1_555 1_555
N6_2 C9_2 1_555 1_555
N7_2 Zn2_2 1_555 1_555
N8_2 Zn1_2 1_555 1_555
N9_2 Zn5_2 1_555 1_555
N10_2 C23_2 1_555 1_555
N11_2 Zn1_2 1_555 1_555
N12_2 Zn6 1_555 1_555
N13_2 Zn7 1_555 1_555
N14_2 Zn1_2 1_555 1_555
N15_2 Zn5_2 1_555 1_555
N16_2 Zn7 1_555 1_555
N17_2 Zn1_2 1_555 1_555
N18_2 Zn2_2 1_555 1_555
O17 C36_2 1_555 1_555
O18 C36_2 1_555 1_555
O3_2 Zn2_2 1_555 1_555
O4_2 Zn2_2 1_555 1_555
O19 C57_2 1_555 1_555
O6_2 C65_2 1_555 1_555
O7_2 C65_2 1_555 1_555
O8_2 C57_2 1_555 1_555
O9_2 C40_2 1_555 1_555
O10_2 C54_2 1_555 1_555
O11_2 C71_2 1_555 1_555
O12_2 C63_2 1_555 1_555
O13_2 C47_2 1_555 1_555
O14_2 C48_2 1_555 1_555
O15_2 C46_2 1_555 1_555
O16_2 C39_2 1_555 1_555
Zn8_2 O6_2 1_555 1_555
O20_2 Zn5_2 1_555 1_555
O21_2 Zn5_2 1_555 1_555
C5_2 C6_2 1_555 1_555
C8_2 N4_2 1_555 1_555
C12_2 C13_2 1_555 1_555
C15_2 N7_2 1_555 1_555
C16_2 N9_2 1_555 1_555
C19_2 C20_2 1_555 1_555
C22_2 N12_2 1_555 1_555
C26_2 C27_2 1_555 1_555
C29_2 N13_2 1_555 1_555
C30_2 N15_2 1_555 1_555
C33_2 C34_2 1_555 1_555
C41_2 C42_2 1_555 1_555
C43_2 O16_2 1_555 1_555
C44_2 O9_2 1_555 1_555
C49_2 O15_2 1_555 1_555
C53_2 C54_2 1_555 1_555
C55_2 O10_2 1_555 1_555
C56_2 O3_2 1_555 1_555
C56_2 O4_2 1_555 1_555
C58_2 O13_2 1_555 1_555
C62_2 C63_2 1_555 1_555
C64_2 O12_2 1_555 1_555
C66_2 O14_2 1_555 1_555
C70_2 C71_2 1_555 1_555
C72_2 O11_2 1_555 1_555
C73_2 N16_2 1_555 1_555
C74_2 N18_2 1_555 1_555
C77_2 C78_2 1_555 1_555
N2_2 N3_2 1_555 1_555
N4_2 N5_2 1_555 1_555
N5_2 N6_2 1_555 1_555
N7_2 N8_2 1_555 1_555
N8_2 N9_2 1_555 1_555
N10_2 N11_2 1_555 1_555
N11_2 N12_2 1_555 1_555
N13_2 N14_2 1_555 1_555
N14_2 N15_2 1_555 1_555
N16_2 N17_2 1_555 1_555
N17_2 N18_2 1_555 1_555
O7_2 Zn8_2 1_555 1_555
C58_3 C59_3 1_555 1_555
C59_3 H51_3 1_555 1_555
C60_3 C59_3 1_555 1_555
H52_3 C60_3 1_555 1_555
C58_3 O13_3 1_555 1_555
Zn1_3 N2_3 1_555 1_555
Zn2_3 N6_3 1_555 1_555
Zn3_2 N3_3 1_555 1_555
Zn8 N1_3 1_555 1_555
C1_3 C2_3 1_555 1_555
C2_3 C3_3 1_555 1_555
C3_3 H1_3 1_555 1_555
C4_3 C3_3 1_555 1_555
H2_3 C4_3 1_555 1_555
C5_3 C4_3 1_555 1_555
C6_3 C1_3 1_555 1_555
H3_3 C6_3 1_555 1_555
C7_3 C5_3 1_555 1_555
H4_3 C7_3 1_555 1_555
H5_3 C7_3 1_555 1_555
H6_3 C7_3 1_555 1_555
C8_3 C9_3 1_555 1_555
C9_3 C10_3 1_555 1_555
C10_3 H7_3 1_555 1_555
C11_3 C10_3 1_555 1_555
H8_3 C11_3 1_555 1_555
C12_3 C11_3 1_555 1_555
C13_3 C8_3 1_555 1_555
H9_3 C13_3 1_555 1_555
C14_3 C12_3 1_555 1_555
H10_3 C14_3 1_555 1_555
H11_3 C14_3 1_555 1_555
H12_3 C14_3 1_555 1_555
C15_3 C16_3 1_555 1_555
C16_3 C17_3 1_555 1_555
C17_3 H13_3 1_555 1_555
C18_3 C17_3 1_555 1_555
C19_3 C18_3 1_555 1_555
H14_3 C19_3 1_555 1_555
C20_3 C15_3 1_555 1_555
H15_3 C20_3 1_555 1_555
C21_3 C18_3 1_555 1_555
H16_3 C21_3 1_555 1_555
H17_3 C21_3 1_555 1_555
H18_3 C21_3 1_555 1_555
H20_3 C26_3 1_555 1_555
C27_3 C22_3 1_555 1_555
H21_3 C27_3 1_555 1_555
C46_3 C45_3 1_555 1_555
H40_3 C46_3 1_555 1_555
C47_3 C45_3 1_555 1_555
H42_3 C47_3 1_555 1_555
C48_3 C45_3 1_555 1_555
H43_3 C48_3 1_555 1_555
C56_3 C69_3 1_555 1_555
C66_3 C67_3 1_555 1_555
C68_3 C67_3 1_555 1_555
C69_3 C68_3 1_555 1_555
C70_3 C69_3 1_555 1_555
H59_3 C70_3 1_555 1_555
C71_3 C66_3 1_555 1_555
C72_3 H60_3 1_555 1_555
H61_3 C72_3 1_555 1_555
H62_3 C72_3 1_555 1_555
N1_3 C2_3 1_555 1_555
N2_3 N1_3 1_555 1_555
N3_3 C1_3 1_555 1_555
N4_3 Zn3_2 1_555 1_555
N5_3 Zn1_3 1_555 1_555
N6_3 C9_3 1_555 1_555
N7_3 Zn2_3 1_555 1_555
N8_3 Zn1_3 1_555 1_555
N9_3 Zn8 1_555 1_555
N11_3 Zn1_3 1_555 1_555
N12_3 Zn3_2 1_555 1_555
O3_3 Zn2_3 1_555 1_555
O4_3 Zn2_3 1_555 1_555
O11_3 C71_3 1_555 1_555
O14_3 C48_3 1_555 1_555
O17_2 Zn3_2 1_555 1_555
O18_2 Zn3_2 1_555 1_555
C5_3 C6_3 1_555 1_555
C8_3 N4_3 1_555 1_555
C12_3 C13_3 1_555 1_555
C15_3 N7_3 1_555 1_555
C16_3 N9_3 1_555 1_555
C19_3 C20_3 1_555 1_555
C22_3 N12_3 1_555 1_555
C26_3 C27_3 1_555 1_555
C56_3 O3_3 1_555 1_555
C56_3 O4_3 1_555 1_555
C66_3 O14_3 1_555 1_555
C70_3 C71_3 1_555 1_555
C72_3 O11_3 1_555 1_555
N2_3 N3_3 1_555 1_555
N4_3 N5_3 1_555 1_555
N5_3 N6_3 1_555 1_555
N7_3 N8_3 1_555 1_555
N8_3 N9_3 1_555 1_555
N11_3 N12_3 1_555 1_555
C62_3 C61_3 1_555 1_555
H53_3 C62_3 1_555 1_555
C64_3 H54_3 1_555 1_555
H55_3 C64_3 1_555 1_555
H56_3 C64_3 1_555 1_555
C65_3 C61_3 1_555 1_555
O21 C65_3 1_555 1_555
O12_3 C63_3 1_555 1_555
C62_3 C63_3 1_555 1_555
C64_3 O12_3 1_555 1_555
Zn4_2 N10_3 1_555 1_555
C23_3 C24_3 1_555 1_555
C24_3 H19_3 1_555 1_555
C25_3 C24_3 1_555 1_555
C28_3 C25_3 1_555 1_555
H23_3 C28_3 1_555 1_555
H24_2 C28_3 1_555 1_555
C29_3 C30_3 1_555 1_555
C30_3 C31_3 1_555 1_555
C31_3 H25_3 1_555 1_555
C32_3 C31_3 1_555 1_555
H26_3 C32_3 1_555 1_555
C33_3 C32_3 1_555 1_555
C34_3 C29_3 1_555 1_555
H27_3 C34_3 1_555 1_555
C35_3 C33_3 1_555 1_555
H28_3 C35_3 1_555 1_555
H29_3 C35_3 1_555 1_555
H30_3 C35_3 1_555 1_555
C44_3 H37_3 1_555 1_555
H38_3 C44_3 1_555 1_555
C73_3 C74_3 1_555 1_555
C74_3 C75_3 1_555 1_555
C75_3 H63_3 1_555 1_555
C76_3 C75_3 1_555 1_555
C77_3 C76_3 1_555 1_555
H64_3 C77_3 1_555 1_555
C78_3 C73_3 1_555 1_555
H65_3 C78_3 1_555 1_555
C79_3 C76_3 1_555 1_555
H66_3 C79_3 1_555 1_555
H67_3 C79_3 1_555 1_555
H68_3 C79_3 1_555 1_555
N10_3 C23_3 1_555 1_555
N13_3 Zn4_2 1_555 1_555
N16_3 Zn4_2 1_555 1_555
O19_2 Zn4_2 1_555 1_555
C29_3 N13_3 1_555 1_555
C30_3 N15_3 1_555 1_555
C33_3 C34_3 1_555 1_555
C73_3 N16_3 1_555 1_555
C74_3 N18_3 1_555 1_555
C77_3 C78_3 1_555 1_555
N13_3 N14_3 1_555 1_555
N14_3 N15_3 1_555 1_555
N16_3 N17_3 1_555 1_555
N17_3 N18_3 1_555 1_555
C49_3 C50_3 1_555 1_555
C50_3 H45_3 1_555 1_555
C51_3 C50_3 1_555 1_555
H46_3 C51_3 1_555 1_555
C52_3 C51_3 1_555 1_555
C53_3 C52_3 1_555 1_555
H47_3 C53_3 1_555 1_555
C54_3 C49_3 1_555 1_555
C57_3 C52_3 1_555 1_555
O5_2 C57_3 1_555 1_555
O8_3 C57_3 1_555 1_555
O10_3 C54_3 1_555 1_555
Zn7_2 O5_2 1_555 1_555
C49_3 O15_3 1_555 1_555
C53_3 C54_3 1_555 1_555
C36_3 C37_3 1_555 1_555
C37_3 C38_3 1_555 1_555
C38_3 H31_3 1_555 1_555
C39_3 C38_3 1_555 1_555
C40_3 C39_3 1_555 1_555
C41_3 C40_3 1_555 1_555
H32_3 C41_3 1_555 1_555
C42_3 C37_3 1_555 1_555
H33_3 C42_3 1_555 1_555
C43_3 H34_3 1_555 1_555
H35_3 C43_3 1_555 1_555
H36_3 C43_3 1_555 1_555
O1_2 C36_3 1_555 1_555
O2_2 C36_3 1_555 1_555
O9_3 C40_3 1_555 1_555
O16_3 C39_3 1_555 1_555
Zn6_2 O1_2 1_555 1_555
C41_3 C42_3 1_555 1_555
C43_3 O16_3 1_555 1_555
O2_2 Zn6_2 1_555 1_555
C58_4 C59_4 1_555 1_555
C59_4 H51_4 1_555 1_555
C60_4 C59_4 1_555 1_555
H52_4 C60_4 1_555 1_555
C61_4 C60_4 1_555 1_555
C62_4 C61_4 1_555 1_555
H53_4 C62_4 1_555 1_555
C63_4 C58_4 1_555 1_555
C64_4 H54_4 1_555 1_555
H55_4 C64_4 1_555 1_555
H56_4 C64_4 1_555 1_555
C65_4 C61_4 1_555 1_555
O20_2 C65_4 1_555 1_555
O21_2 C65_4 1_555 1_555
O12_4 C63_4 1_555 1_555
C58_4 O13_4 1_555 1_555
C62_4 C63_4 1_555 1_555
C64_4 O12_4 1_555 1_555
Zn1_4 N2_4 1_555 1_555
Zn2_4 N6_4 1_555 1_555
Zn6_2 N3_4 1_555 1_555
Zn7_2 N10_4 1_555 1_555
Zn8_2 N1_4 1_555 1_555
C1_4 C2_4 1_555 1_555
C2_4 C3_4 1_555 1_555
C3_4 H1_4 1_555 1_555
C4_4 C3_4 1_555 1_555
H2_4 C4_4 1_555 1_555
C5_4 C4_4 1_555 1_555
C6_4 C1_4 1_555 1_555
H3_4 C6_4 1_555 1_555
C7_4 C5_4 1_555 1_555
H4_4 C7_4 1_555 1_555
H5_4 C7_4 1_555 1_555
H6_4 C7_4 1_555 1_555
C8_4 C9_4 1_555 1_555
C9_4 C10_4 1_555 1_555
C10_4 H7_4 1_555 1_555
C11_4 C10_4 1_555 1_555
H8_4 C11_4 1_555 1_555
C12_4 C11_4 1_555 1_555
C13_4 C8_4 1_555 1_555
H9_4 C13_4 1_555 1_555
C14_4 C12_4 1_555 1_555
H10_4 C14_4 1_555 1_555
H11_4 C14_4 1_555 1_555
H12_4 C14_4 1_555 1_555
C15_4 C16_4 1_555 1_555
C16_4 C17_4 1_555 1_555
C17_4 H13_4 1_555 1_555
C18_4 C17_4 1_555 1_555
C19_4 C18_4 1_555 1_555
H14_4 C19_4 1_555 1_555
C20_4 C15_4 1_555 1_555
H15_4 C20_4 1_555 1_555
C21_4 C18_4 1_555 1_555
H16_4 C21_4 1_555 1_555
H17_4 C21_4 1_555 1_555
H18_4 C21_4 1_555 1_555
C22_4 C23_4 1_555 1_555
C23_4 C24_4 1_555 1_555
C24_4 H19_4 1_555 1_555
C25_4 C24_4 1_555 1_555
C26_4 C25_4 1_555 1_555
H20_4 C26_4 1_555 1_555
C27_4 C22_4 1_555 1_555
H21_4 C27_4 1_555 1_555
C28_4 C25_4 1_555 1_555
H23_4 C28_4 1_555 1_555
C29_4 C30_4 1_555 1_555
C30_4 C31_4 1_555 1_555
C31_4 H25_4 1_555 1_555
C32_4 C31_4 1_555 1_555
H26_4 C32_4 1_555 1_555
C33_4 C32_4 1_555 1_555
C34_4 C29_4 1_555 1_555
H27_4 C34_4 1_555 1_555
C35_4 C33_4 1_555 1_555
H28_4 C35_4 1_555 1_555
H29_4 C35_4 1_555 1_555
H30_4 C35_4 1_555 1_555
C36_4 C37_4 1_555 1_555
C37_4 C38_4 1_555 1_555
C38_4 H31_4 1_555 1_555
C39_4 C38_4 1_555 1_555
C40_4 C39_4 1_555 1_555
C41_4 C40_4 1_555 1_555
H32_4 C41_4 1_555 1_555
C42_4 C37_4 1_555 1_555
H33_4 C42_4 1_555 1_555
C43_4 H34_4 1_555 1_555
H35_4 C43_4 1_555 1_555
H36_4 C43_4 1_555 1_555
C44_4 H37_4 1_555 1_555
H38_4 C44_4 1_555 1_555
C45_4 C44_4 1_555 1_555
C46_4 C45_4 1_555 1_555
H39_4 C46_4 1_555 1_555
H40_4 C46_4 1_555 1_555
C47_4 C45_4 1_555 1_555
H42_4 C47_4 1_555 1_555
C48_4 C45_4 1_555 1_555
H43_4 C48_4 1_555 1_555
H44_4 C48_4 1_555 1_555
C49_4 C50_4 1_555 1_555
C50_4 H45_4 1_555 1_555
C51_4 C50_4 1_555 1_555
H46_4 C51_4 1_555 1_555
C52_4 C51_4 1_555 1_555
C53_4 C52_4 1_555 1_555
H47_4 C53_4 1_555 1_555
C54_4 C49_4 1_555 1_555
H49_4 C55_4 1_555 1_555
C56_4 C69_4 1_555 1_555
C57_4 C52_4 1_555 1_555
C66_4 C67_4 1_555 1_555
C67_4 H57_4 1_555 1_555
C68_4 C67_4 1_555 1_555
H58_4 C68_4 1_555 1_555
C69_4 C68_4 1_555 1_555
C70_4 C69_4 1_555 1_555
H59_4 C70_4 1_555 1_555
C71_4 C66_4 1_555 1_555
C72_4 H60_4 1_555 1_555
H61_4 C72_4 1_555 1_555
H62_4 C72_4 1_555 1_555
C73_4 C74_4 1_555 1_555
C74_4 C75_4 1_555 1_555
C75_4 H63_4 1_555 1_555
C76_4 C75_4 1_555 1_555
C77_4 C76_4 1_555 1_555
H64_4 C77_4 1_555 1_555
C78_4 C73_4 1_555 1_555
H65_4 C78_4 1_555 1_555
C79_4 C76_4 1_555 1_555
H66_4 C79_4 1_555 1_555
H67_4 C79_4 1_555 1_555
H68_4 C79_4 1_555 1_555
N1_4 C2_4 1_555 1_555
N2_4 N1_4 1_555 1_555
N3_4 C1_4 1_555 1_555
N4_4 Zn6_2 1_555 1_555
N5_4 Zn1_4 1_555 1_555
N6_4 C9_4 1_555 1_555
N7_4 Zn2_4 1_555 1_555
N8_4 Zn1_4 1_555 1_555
N9_4 Zn8_2 1_555 1_555
N10_4 C23_4 1_555 1_555
N11_4 Zn1_4 1_555 1_555
N12_4 Zn6_2 1_555 1_555
N13_4 Zn7_2 1_555 1_555
N14_4 Zn1_4 1_555 1_555
N15_4 Zn8_2 1_555 1_555
N16_4 Zn7_2 1_555 1_555
N17_4 Zn1_4 1_555 1_555
N18_4 Zn2_4 1_555 1_555
O17_2 C36_4 1_555 1_555
O18_2 C36_4 1_555 1_555
O3_4 Zn2_4 1_555 1_555
O4_4 Zn2_4 1_555 1_555
O19_2 C57_4 1_555 1_555
O8_4 C57_4 1_555 1_555
O9_4 C40_4 1_555 1_555
O10_4 C54_4 1_555 1_555
O11_4 C71_4 1_555 1_555
O14_4 C48_4 1_555 1_555
O15_4 C46_4 1_555 1_555
O16_4 C39_4 1_555 1_555
C5_4 C6_4 1_555 1_555
C8_4 N4_4 1_555 1_555
C12_4 C13_4 1_555 1_555
C15_4 N7_4 1_555 1_555
C16_4 N9_4 1_555 1_555
C19_4 C20_4 1_555 1_555
C22_4 N12_4 1_555 1_555
C26_4 C27_4 1_555 1_555
C29_4 N13_4 1_555 1_555
C30_4 N15_4 1_555 1_555
C33_4 C34_4 1_555 1_555
C41_4 C42_4 1_555 1_555
C43_4 O16_4 1_555 1_555
C44_4 O9_4 1_555 1_555
C49_4 O15_4 1_555 1_555
C53_4 C54_4 1_555 1_555
C55_4 O10_4 1_555 1_555
C56_4 O3_4 1_555 1_555
C56_4 O4_4 1_555 1_555
C66_4 O14_4 1_555 1_555
C70_4 C71_4 1_555 1_555
C72_4 O11_4 1_555 1_555
C73_4 N16_4 1_555 1_555
C74_4 N18_4 1_555 1_555
C77_4 C78_4 1_555 1_555
N2_4 N3_4 1_555 1_555
N4_4 N5_4 1_555 1_555
N5_4 N6_4 1_555 1_555
N7_4 N8_4 1_555 1_555
N8_4 N9_4 1_555 1_555
N10_4 N11_4 1_555 1_555
N11_4 N12_4 1_555 1_555
N13_4 N14_4 1_555 1_555
N14_4 N15_4 1_555 1_555
N16_4 N17_4 1_555 1_555
N17_4 N18_4 1_555 1_555
C36_5 C37_5 1_555 1_555
C37_5 C38_5 1_555 1_555
C38_5 H31_5 1_555 1_555
C39_5 C38_5 1_555 1_555
C40_5 C39_5 1_555 1_555
C41_5 C40_5 1_555 1_555
H32_5 C41_5 1_555 1_555
C42_5 C37_5 1_555 1_555
H33_5 C42_5 1_555 1_555
C43_5 H34_5 1_555 1_555
H35_5 C43_5 1_555 1_555
H36_5 C43_5 1_555 1_555
O1_3 C36_5 1_555 1_555
O2_3 C36_5 1_555 1_555
O9_5 C40_5 1_555 1_555
O16_5 C39_5 1_555 1_555
Zn6_3 O1_3 1_555 1_555
C41_5 C42_5 1_555 1_555
C43_5 O16_5 1_555 1_555
O2_3 Zn6_3 1_555 1_555
C49_5 C50_5 1_555 1_555
C50_5 H45_5 1_555 1_555
C51_5 C50_5 1_555 1_555
H46_5 C51_5 1_555 1_555
C52_5 C51_5 1_555 1_555
C53_5 C52_5 1_555 1_555
H47_5 C53_5 1_555 1_555
C54_5 C49_5 1_555 1_555
C57_5 C52_5 1_555 1_555
O5_3 C57_5 1_555 1_555
O8_5 C57_5 1_555 1_555
O10_5 C54_5 1_555 1_555
Zn7_3 O5_3 1_555 1_555
C49_5 O15_5 1_555 1_555
C53_5 C54_5 1_555 1_555
Zn4_3 N10_5 1_555 1_555
C23_5 C24_5 1_555 1_555
C24_5 H19_5 1_555 1_555
C25_5 C24_5 1_555 1_555
C28_5 C25_5 1_555 1_555
H23_5 C28_5 1_555 1_555
H24_3 C28_5 1_555 1_555
C29_5 C30_5 1_555 1_555
C30_5 C31_5 1_555 1_555
C31_5 H25_5 1_555 1_555
C32_5 C31_5 1_555 1_555
H26_5 C32_5 1_555 1_555
C33_5 C32_5 1_555 1_555
C34_5 C29_5 1_555 1_555
H27_5 C34_5 1_555 1_555
C35_5 C33_5 1_555 1_555
H28_5 C35_5 1_555 1_555
H29_5 C35_5 1_555 1_555
H30_5 C35_5 1_555 1_555
C44_5 H37_5 1_555 1_555
H38_5 C44_5 1_555 1_555
C73_5 C74_5 1_555 1_555
C74_5 C75_5 1_555 1_555
C75_5 H63_5 1_555 1_555
C76_5 C75_5 1_555 1_555
C77_5 C76_5 1_555 1_555
H64_5 C77_5 1_555 1_555
C78_5 C73_5 1_555 1_555
H65_5 C78_5 1_555 1_555
C79_5 C76_5 1_555 1_555
H66_5 C79_5 1_555 1_555
H67_5 C79_5 1_555 1_555
H68_5 C79_5 1_555 1_555
N10_5 C23_5 1_555 1_555
N13_5 Zn4_3 1_555 1_555
N16_5 Zn4_3 1_555 1_555
O19_3 Zn4_3 1_555 1_555
C29_5 N13_5 1_555 1_555
C30_5 N15_5 1_555 1_555
C33_5 C34_5 1_555 1_555
C73_5 N16_5 1_555 1_555
C74_5 N18_5 1_555 1_555
C77_5 C78_5 1_555 1_555
N13_5 N14_5 1_555 1_555
N14_5 N15_5 1_555 1_555
N16_5 N17_5 1_555 1_555
N17_5 N18_5 1_555 1_555
C62_5 C61_5 1_555 1_555
H53_5 C62_5 1_555 1_555
C64_5 H54_5 1_555 1_555
H55_5 C64_5 1_555 1_555
H56_5 C64_5 1_555 1_555
C65_5 C61_5 1_555 1_555
O7_3 C65_5 1_555 1_555
O12_5 C63_5 1_555 1_555
C62_5 C63_5 1_555 1_555
C64_5 O12_5 1_555 1_555
O7_3 Zn8_3 1_555 1_555
Zn1_5 N2_5 1_555 1_555
Zn2_5 N6_5 1_555 1_555
Zn3_3 N3_5 1_555 1_555
Zn5_3 N1_5 1_555 1_555
C1_5 C2_5 1_555 1_555
C2_5 C3_5 1_555 1_555
C3_5 H1_5 1_555 1_555
C4_5 C3_5 1_555 1_555
H2_5 C4_5 1_555 1_555
C5_5 C4_5 1_555 1_555
C6_5 C1_5 1_555 1_555
H3_5 C6_5 1_555 1_555
C7_5 C5_5 1_555 1_555
H4_5 C7_5 1_555 1_555
H5_5 C7_5 1_555 1_555
H6_5 C7_5 1_555 1_555
C8_5 C9_5 1_555 1_555
C9_5 C10_5 1_555 1_555
C10_5 H7_5 1_555 1_555
C11_5 C10_5 1_555 1_555
H8_5 C11_5 1_555 1_555
C12_5 C11_5 1_555 1_555
C13_5 C8_5 1_555 1_555
H9_5 C13_5 1_555 1_555
C14_5 C12_5 1_555 1_555
H10_5 C14_5 1_555 1_555
H11_5 C14_5 1_555 1_555
H12_5 C14_5 1_555 1_555
C15_5 C16_5 1_555 1_555
C16_5 C17_5 1_555 1_555
C17_5 H13_5 1_555 1_555
C18_5 C17_5 1_555 1_555
C19_5 C18_5 1_555 1_555
H14_5 C19_5 1_555 1_555
C20_5 C15_5 1_555 1_555
H15_5 C20_5 1_555 1_555
C21_5 C18_5 1_555 1_555
H16_5 C21_5 1_555 1_555
H17_5 C21_5 1_555 1_555
H18_5 C21_5 1_555 1_555
H20_5 C26_5 1_555 1_555
C27_5 C22_5 1_555 1_555
H21_5 C27_5 1_555 1_555
C46_5 C45_5 1_555 1_555
H40_5 C46_5 1_555 1_555
C47_5 C45_5 1_555 1_555
H42_5 C47_5 1_555 1_555
C48_5 C45_5 1_555 1_555
H43_5 C48_5 1_555 1_555
C56_5 C69_5 1_555 1_555
C66_5 C67_5 1_555 1_555
C68_5 C67_5 1_555 1_555
C69_5 C68_5 1_555 1_555
C70_5 C69_5 1_555 1_555
H59_5 C70_5 1_555 1_555
C71_5 C66_5 1_555 1_555
C72_5 H60_5 1_555 1_555
H61_5 C72_5 1_555 1_555
H62_5 C72_5 1_555 1_555
N1_5 C2_5 1_555 1_555
N2_5 N1_5 1_555 1_555
N3_5 C1_5 1_555 1_555
N4_5 Zn3_3 1_555 1_555
N5_5 Zn1_5 1_555 1_555
N6_5 C9_5 1_555 1_555
N7_5 Zn2_5 1_555 1_555
N8_5 Zn1_5 1_555 1_555
N9_5 Zn5_3 1_555 1_555
N11_5 Zn1_5 1_555 1_555
N12_5 Zn3_3 1_555 1_555
O3_5 Zn2_5 1_555 1_555
O4_5 Zn2_5 1_555 1_555
O11_5 C71_5 1_555 1_555
O14_5 C48_5 1_555 1_555
O17_3 Zn3_3 1_555 1_555
O18_3 Zn3_3 1_555 1_555
O21_3 Zn5_3 1_555 1_555
C5_5 C6_5 1_555 1_555
C8_5 N4_5 1_555 1_555
C12_5 C13_5 1_555 1_555
C15_5 N7_5 1_555 1_555
C16_5 N9_5 1_555 1_555
C19_5 C20_5 1_555 1_555
C22_5 N12_5 1_555 1_555
C26_5 C27_5 1_555 1_555
C56_5 O3_5 1_555 1_555
C56_5 O4_5 1_555 1_555
C66_5 O14_5 1_555 1_555
C70_5 C71_5 1_555 1_555
C72_5 O11_5 1_555 1_555
N2_5 N3_5 1_555 1_555
N4_5 N5_5 1_555 1_555
N5_5 N6_5 1_555 1_555
N7_5 N8_5 1_555 1_555
N8_5 N9_5 1_555 1_555
N11_5 N12_5 1_555 1_555
C58_5 C59_5 1_555 1_555
C59_5 H51_5 1_555 1_555
C60_5 C59_5 1_555 1_555
H52_5 C60_5 1_555 1_555
C58_5 O13_5 1_555 1_555
Zn1_6 N2_6 1_555 1_555
Zn2_6 N6_6 1_555 1_555
Zn6_3 N3_6 1_555 1_555
Zn7_3 N10_6 1_555 1_555
Zn5_4 N1_6 1_555 1_555
C1_6 C2_6 1_555 1_555
C2_6 C3_6 1_555 1_555
C3_6 H1_6 1_555 1_555
C4_6 C3_6 1_555 1_555
H2_6 C4_6 1_555 1_555
C5_6 C4_6 1_555 1_555
C6_6 C1_6 1_555 1_555
H3_6 C6_6 1_555 1_555
C7_6 C5_6 1_555 1_555
H4_6 C7_6 1_555 1_555
H5_6 C7_6 1_555 1_555
H6_6 C7_6 1_555 1_555
C8_6 C9_6 1_555 1_555
C9_6 C10_6 1_555 1_555
C10_6 H7_6 1_555 1_555
C11_6 C10_6 1_555 1_555
H8_6 C11_6 1_555 1_555
C12_6 C11_6 1_555 1_555
C13_6 C8_6 1_555 1_555
H9_6 C13_6 1_555 1_555
C14_6 C12_6 1_555 1_555
H10_6 C14_6 1_555 1_555
H11_6 C14_6 1_555 1_555
H12_6 C14_6 1_555 1_555
C15_6 C16_6 1_555 1_555
C16_6 C17_6 1_555 1_555
C17_6 H13_6 1_555 1_555
C18_6 C17_6 1_555 1_555
C19_6 C18_6 1_555 1_555
H14_6 C19_6 1_555 1_555
C20_6 C15_6 1_555 1_555
H15_6 C20_6 1_555 1_555
C21_6 C18_6 1_555 1_555
H16_6 C21_6 1_555 1_555
H17_6 C21_6 1_555 1_555
H18_6 C21_6 1_555 1_555
C22_6 C23_6 1_555 1_555
C23_6 C24_6 1_555 1_555
C24_6 H19_6 1_555 1_555
C25_6 C24_6 1_555 1_555
C26_6 C25_6 1_555 1_555
H20_6 C26_6 1_555 1_555
C27_6 C22_6 1_555 1_555
H21_6 C27_6 1_555 1_555
C28_6 C25_6 1_555 1_555
H23_6 C28_6 1_555 1_555
C29_6 C30_6 1_555 1_555
C30_6 C31_6 1_555 1_555
C31_6 H25_6 1_555 1_555
C32_6 C31_6 1_555 1_555
H26_6 C32_6 1_555 1_555
C33_6 C32_6 1_555 1_555
C34_6 C29_6 1_555 1_555
H27_6 C34_6 1_555 1_555
C35_6 C33_6 1_555 1_555
H28_6 C35_6 1_555 1_555
H29_6 C35_6 1_555 1_555
H30_6 C35_6 1_555 1_555
C36_6 C37_6 1_555 1_555
C37_6 C38_6 1_555 1_555
C38_6 H31_6 1_555 1_555
C39_6 C38_6 1_555 1_555
C40_6 C39_6 1_555 1_555
C41_6 C40_6 1_555 1_555
H32_6 C41_6 1_555 1_555
C42_6 C37_6 1_555 1_555
H33_6 C42_6 1_555 1_555
C43_6 H34_6 1_555 1_555
H35_6 C43_6 1_555 1_555
H36_6 C43_6 1_555 1_555
C44_6 H37_6 1_555 1_555
H38_6 C44_6 1_555 1_555
C45_6 C44_6 1_555 1_555
C46_6 C45_6 1_555 1_555
H39_6 C46_6 1_555 1_555
H40_6 C46_6 1_555 1_555
C47_6 C45_6 1_555 1_555
H42_6 C47_6 1_555 1_555
C48_6 C45_6 1_555 1_555
H43_6 C48_6 1_555 1_555
H44_6 C48_6 1_555 1_555
C49_6 C50_6 1_555 1_555
C50_6 H45_6 1_555 1_555
C51_6 C50_6 1_555 1_555
H46_6 C51_6 1_555 1_555
C52_6 C51_6 1_555 1_555
C53_6 C52_6 1_555 1_555
H47_6 C53_6 1_555 1_555
C54_6 C49_6 1_555 1_555
H49_6 C55_6 1_555 1_555
C56_6 C69_6 1_555 1_555
C57_6 C52_6 1_555 1_555
C66_6 C67_6 1_555 1_555
C67_6 H57_6 1_555 1_555
C68_6 C67_6 1_555 1_555
H58_6 C68_6 1_555 1_555
C69_6 C68_6 1_555 1_555
C70_6 C69_6 1_555 1_555
H59_6 C70_6 1_555 1_555
C71_6 C66_6 1_555 1_555
C72_6 H60_6 1_555 1_555
H61_6 C72_6 1_555 1_555
H62_6 C72_6 1_555 1_555
C73_6 C74_6 1_555 1_555
C74_6 C75_6 1_555 1_555
C75_6 H63_6 1_555 1_555
C76_6 C75_6 1_555 1_555
C77_6 C76_6 1_555 1_555
H64_6 C77_6 1_555 1_555
C78_6 C73_6 1_555 1_555
H65_6 C78_6 1_555 1_555
C79_6 C76_6 1_555 1_555
H66_6 C79_6 1_555 1_555
H67_6 C79_6 1_555 1_555
H68_6 C79_6 1_555 1_555
N1_6 C2_6 1_555 1_555
N2_6 N1_6 1_555 1_555
N3_6 C1_6 1_555 1_555
N4_6 Zn6_3 1_555 1_555
N5_6 Zn1_6 1_555 1_555
N6_6 C9_6 1_555 1_555
N7_6 Zn2_6 1_555 1_555
N8_6 Zn1_6 1_555 1_555
N9_6 Zn5_4 1_555 1_555
N10_6 C23_6 1_555 1_555
N11_6 Zn1_6 1_555 1_555
N12_6 Zn6_3 1_555 1_555
N13_6 Zn7_3 1_555 1_555
N14_6 Zn1_6 1_555 1_555
N15_6 Zn5_4 1_555 1_555
N16_6 Zn7_3 1_555 1_555
N17_6 Zn1_6 1_555 1_555
N18_6 Zn2_6 1_555 1_555
O17_3 C36_6 1_555 1_555
O18_3 C36_6 1_555 1_555
O3_6 Zn2_6 1_555 1_555
O4_6 Zn2_6 1_555 1_555
O19_3 C57_6 1_555 1_555
O8_6 C57_6 1_555 1_555
O9_6 C40_6 1_555 1_555
O10_6 C54_6 1_555 1_555
O11_6 C71_6 1_555 1_555
O14_6 C48_6 1_555 1_555
O15_6 C46_6 1_555 1_555
O16_6 C39_6 1_555 1_555
O20_4 Zn5_4 1_555 1_555
O21_4 Zn5_4 1_555 1_555
C5_6 C6_6 1_555 1_555
C8_6 N4_6 1_555 1_555
C12_6 C13_6 1_555 1_555
C15_6 N7_6 1_555 1_555
C16_6 N9_6 1_555 1_555
C19_6 C20_6 1_555 1_555
C22_6 N12_6 1_555 1_555
C26_6 C27_6 1_555 1_555
C29_6 N13_6 1_555 1_555
C30_6 N15_6 1_555 1_555
C33_6 C34_6 1_555 1_555
C41_6 C42_6 1_555 1_555
C43_6 O16_6 1_555 1_555
C44_6 O9_6 1_555 1_555
C49_6 O15_6 1_555 1_555
C53_6 C54_6 1_555 1_555
C55_6 O10_6 1_555 1_555
C56_6 O3_6 1_555 1_555
C56_6 O4_6 1_555 1_555
C66_6 O14_6 1_555 1_555
C70_6 C71_6 1_555 1_555
C72_6 O11_6 1_555 1_555
C73_6 N16_6 1_555 1_555
C74_6 N18_6 1_555 1_555
C77_6 C78_6 1_555 1_555
N2_6 N3_6 1_555 1_555
N4_6 N5_6 1_555 1_555
N5_6 N6_6 1_555 1_555
N7_6 N8_6 1_555 1_555
N8_6 N9_6 1_555 1_555
N10_6 N11_6 1_555 1_555
N11_6 N12_6 1_555 1_555
N13_6 N14_6 1_555 1_555
N14_6 N15_6 1_555 1_555
N16_6 N17_6 1_555 1_555
N17_6 N18_6 1_555 1_555
C58_6 C59_6 1_555 1_555
C59_6 H51_6 1_555 1_555
C60_6 C59_6 1_555 1_555
H52_6 C60_6 1_555 1_555
C61_6 C60_6 1_555 1_555
C62_6 C61_6 1_555 1_555
H53_6 C62_6 1_555 1_555
C63_6 C58_6 1_555 1_555
C64_6 H54_6 1_555 1_555
H55_6 C64_6 1_555 1_555
H56_6 C64_6 1_555 1_555
C65_6 C61_6 1_555 1_555
O6_4 C65_6 1_555 1_555
O7_4 C65_6 1_555 1_555
O12_6 C63_6 1_555 1_555
Zn8_4 O6_4 1_555 1_555
C58_6 O13_6 1_555 1_555
C62_6 C63_6 1_555 1_555
C64_6 O12_6 1_555 1_555
O7_4 Zn8_4 1_555 1_555
C49_7 C50_7 1_555 1_555
C50_7 H45_7 1_555 1_555
C51_7 C50_7 1_555 1_555
H46_7 C51_7 1_555 1_555
C52_7 C51_7 1_555 1_555
C53_7 C52_7 1_555 1_555
H47_7 C53_7 1_555 1_555
C54_7 C49_7 1_555 1_555
C57_7 C52_7 1_555 1_555
O5_4 C57_7 1_555 1_555
O8_7 C57_7 1_555 1_555
O10_7 C54_7 1_555 1_555
Zn7_4 O5_4 1_555 1_555
C49_7 O15_7 1_555 1_555
C53_7 C54_7 1_555 1_555
C36_7 C37_7 1_555 1_555
C37_7 C38_7 1_555 1_555
C38_7 H31_7 1_555 1_555
C39_7 C38_7 1_555 1_555
C40_7 C39_7 1_555 1_555
C41_7 C40_7 1_555 1_555
H32_7 C41_7 1_555 1_555
C42_7 C37_7 1_555 1_555
H33_7 C42_7 1_555 1_555
C43_7 H34_7 1_555 1_555
H35_7 C43_7 1_555 1_555
H36_7 C43_7 1_555 1_555
O1_4 C36_7 1_555 1_555
O2_4 C36_7 1_555 1_555
O9_7 C40_7 1_555 1_555
O16_7 C39_7 1_555 1_555
Zn6_4 O1_4 1_555 1_555
C41_7 C42_7 1_555 1_555
C43_7 O16_7 1_555 1_555
O2_4 Zn6_4 1_555 1_555
Zn1_7 N2_7 1_555 1_555
Zn2_7 N6_7 1_555 1_555
Zn3_4 N3_7 1_555 1_555
Zn8_3 N1_7 1_555 1_555
C1_7 C2_7 1_555 1_555
C2_7 C3_7 1_555 1_555
C3_7 H1_7 1_555 1_555
C4_7 C3_7 1_555 1_555
H2_7 C4_7 1_555 1_555
C5_7 C4_7 1_555 1_555
C6_7 C1_7 1_555 1_555
H3_7 C6_7 1_555 1_555
C7_7 C5_7 1_555 1_555
H4_7 C7_7 1_555 1_555
H5_7 C7_7 1_555 1_555
H6_7 C7_7 1_555 1_555
C8_7 C9_7 1_555 1_555
C9_7 C10_7 1_555 1_555
C10_7 H7_7 1_555 1_555
C11_7 C10_7 1_555 1_555
H8_7 C11_7 1_555 1_555
C12_7 C11_7 1_555 1_555
C13_7 C8_7 1_555 1_555
H9_7 C13_7 1_555 1_555
C14_7 C12_7 1_555 1_555
H10_7 C14_7 1_555 1_555
H11_7 C14_7 1_555 1_555
H12_7 C14_7 1_555 1_555
C15_7 C16_7 1_555 1_555
C16_7 C17_7 1_555 1_555
C17_7 H13_7 1_555 1_555
C18_7 C17_7 1_555 1_555
C19_7 C18_7 1_555 1_555
H14_7 C19_7 1_555 1_555
C20_7 C15_7 1_555 1_555
H15_7 C20_7 1_555 1_555
C21_7 C18_7 1_555 1_555
H16_7 C21_7 1_555 1_555
H17_7 C21_7 1_555 1_555
H18_7 C21_7 1_555 1_555
H20_7 C26_7 1_555 1_555
C27_7 C22_7 1_555 1_555
H21_7 C27_7 1_555 1_555
C46_7 C45_7 1_555 1_555
H40_7 C46_7 1_555 1_555
C47_7 C45_7 1_555 1_555
H41_7 C47_7 1_555 1_555
H42_7 C47_7 1_555 1_555
C48_7 C45_7 1_555 1_555
H43_7 C48_7 1_555 1_555
C55_7 H48_7 1_555 1_555
C56_7 C69_7 1_555 1_555
C58_7 C59_7 1_555 1_555
C59_7 H51_7 1_555 1_555
C60_7 C59_7 1_555 1_555
H52_7 C60_7 1_555 1_555
C66_7 C67_7 1_555 1_555
C68_7 C67_7 1_555 1_555
C69_7 C68_7 1_555 1_555
C70_7 C69_7 1_555 1_555
H59_7 C70_7 1_555 1_555
C71_7 C66_7 1_555 1_555
C72_7 H60_7 1_555 1_555
H61_7 C72_7 1_555 1_555
H62_7 C72_7 1_555 1_555
N1_7 C2_7 1_555 1_555
N2_7 N1_7 1_555 1_555
N3_7 C1_7 1_555 1_555
N4_7 Zn3_4 1_555 1_555
N5_7 Zn1_7 1_555 1_555
N6_7 C9_7 1_555 1_555
N7_7 Zn2_7 1_555 1_555
N8_7 Zn1_7 1_555 1_555
N9_7 Zn8_3 1_555 1_555
N11_7 Zn1_7 1_555 1_555
N12_7 Zn3_4 1_555 1_555
O3_7 Zn2_7 1_555 1_555
O4_7 Zn2_7 1_555 1_555
O11_7 C71_7 1_555 1_555
O13_7 C47_7 1_555 1_555
O14_7 C48_7 1_555 1_555
O17_4 Zn3_4 1_555 1_555
O18_4 Zn3_4 1_555 1_555
C5_7 C6_7 1_555 1_555
C8_7 N4_7 1_555 1_555
C12_7 C13_7 1_555 1_555
C15_7 N7_7 1_555 1_555
C16_7 N9_7 1_555 1_555
C19_7 C20_7 1_555 1_555
C22_7 N12_7 1_555 1_555
C26_7 C27_7 1_555 1_555
C56_7 O3_7 1_555 1_555
C56_7 O4_7 1_555 1_555
C58_7 O13_7 1_555 1_555
C66_7 O14_7 1_555 1_555
C70_7 C71_7 1_555 1_555
C72_7 O11_7 1_555 1_555
N2_7 N3_7 1_555 1_555
N4_7 N5_7 1_555 1_555
N5_7 N6_7 1_555 1_555
N7_7 N8_7 1_555 1_555
N8_7 N9_7 1_555 1_555
N11_7 N12_7 1_555 1_555
Zn4_4 N10_7 1_555 1_555
C23_7 C24_7 1_555 1_555
C24_7 H19_7 1_555 1_555
C25_7 C24_7 1_555 1_555
C28_7 C25_7 1_555 1_555
H23_7 C28_7 1_555 1_555
H24_4 C28_7 1_555 1_555
C29_7 C30_7 1_555 1_555
C30_7 C31_7 1_555 1_555
C31_7 H25_7 1_555 1_555
C32_7 C31_7 1_555 1_555
H26_7 C32_7 1_555 1_555
C33_7 C32_7 1_555 1_555
C34_7 C29_7 1_555 1_555
H27_7 C34_7 1_555 1_555
C35_7 C33_7 1_555 1_555
H28_7 C35_7 1_555 1_555
H29_7 C35_7 1_555 1_555
H30_7 C35_7 1_555 1_555
C44_7 H37_7 1_555 1_555
H38_7 C44_7 1_555 1_555
C62_7 C61_7 1_555 1_555
H53_7 C62_7 1_555 1_555
C64_7 H54_7 1_555 1_555
H55_7 C64_7 1_555 1_555
H56_7 C64_7 1_555 1_555
C65_7 C61_7 1_555 1_555
C73_7 C74_7 1_555 1_555
C74_7 C75_7 1_555 1_555
C75_7 H63_7 1_555 1_555
C76_7 C75_7 1_555 1_555
C77_7 C76_7 1_555 1_555
H64_7 C77_7 1_555 1_555
C78_7 C73_7 1_555 1_555
H65_7 C78_7 1_555 1_555
C79_7 C76_7 1_555 1_555
H66_7 C79_7 1_555 1_555
H67_7 C79_7 1_555 1_555
H68_7 C79_7 1_555 1_555
N10_7 C23_7 1_555 1_555
N13_7 Zn4_4 1_555 1_555
N16_7 Zn4_4 1_555 1_555
O21_3 C65_7 1_555 1_555
O12_7 C63_7 1_555 1_555
O19_4 Zn4_4 1_555 1_555
C29_7 N13_7 1_555 1_555
C30_7 N15_7 1_555 1_555
C33_7 C34_7 1_555 1_555
C62_7 C63_7 1_555 1_555
C64_7 O12_7 1_555 1_555
C73_7 N16_7 1_555 1_555
C74_7 N18_7 1_555 1_555
C77_7 C78_7 1_555 1_555
N13_7 N14_7 1_555 1_555
N14_7 N15_7 1_555 1_555
N16_7 N17_7 1_555 1_555
N17_7 N18_7 1_555 1_555
Zn1_8 N2_8 1_555 1_555
Zn2_8 N6_8 1_555 1_555
Zn6_4 N3_8 1_555 1_555
Zn7_4 N10_8 1_555 1_555
Zn8_4 N1_8 1_555 1_555
C1_8 C2_8 1_555 1_555
C2_8 C3_8 1_555 1_555
C3_8 H1_8 1_555 1_555
C4_8 C3_8 1_555 1_555
H2_8 C4_8 1_555 1_555
C5_8 C4_8 1_555 1_555
C6_8 C1_8 1_555 1_555
H3_8 C6_8 1_555 1_555
C7_8 C5_8 1_555 1_555
H4_8 C7_8 1_555 1_555
H5_8 C7_8 1_555 1_555
H6_8 C7_8 1_555 1_555
C8_8 C9_8 1_555 1_555
C9_8 C10_8 1_555 1_555
C10_8 H7_8 1_555 1_555
C11_8 C10_8 1_555 1_555
H8_8 C11_8 1_555 1_555
C12_8 C11_8 1_555 1_555
C13_8 C8_8 1_555 1_555
H9_8 C13_8 1_555 1_555
C14_8 C12_8 1_555 1_555
H10_8 C14_8 1_555 1_555
H11_8 C14_8 1_555 1_555
H12_8 C14_8 1_555 1_555
C15_8 C16_8 1_555 1_555
C16_8 C17_8 1_555 1_555
C17_8 H13_8 1_555 1_555
C18_8 C17_8 1_555 1_555
C19_8 C18_8 1_555 1_555
H14_8 C19_8 1_555 1_555
C20_8 C15_8 1_555 1_555
H15_8 C20_8 1_555 1_555
C21_8 C18_8 1_555 1_555
H16_8 C21_8 1_555 1_555
H17_8 C21_8 1_555 1_555
H18_8 C21_8 1_555 1_555
C22_8 C23_8 1_555 1_555
C23_8 C24_8 1_555 1_555
C24_8 H19_8 1_555 1_555
C25_8 C24_8 1_555 1_555
C26_8 C25_8 1_555 1_555
H20_8 C26_8 1_555 1_555
C27_8 C22_8 1_555 1_555
H21_8 C27_8 1_555 1_555
C28_8 C25_8 1_555 1_555
H23_8 C28_8 1_555 1_555
C29_8 C30_8 1_555 1_555
C30_8 C31_8 1_555 1_555
C31_8 H25_8 1_555 1_555
C32_8 C31_8 1_555 1_555
H26_8 C32_8 1_555 1_555
C33_8 C32_8 1_555 1_555
C34_8 C29_8 1_555 1_555
H27_8 C34_8 1_555 1_555
C35_8 C33_8 1_555 1_555
H28_8 C35_8 1_555 1_555
H29_8 C35_8 1_555 1_555
H30_8 C35_8 1_555 1_555
C36_8 C37_8 1_555 1_555
C37_8 C38_8 1_555 1_555
C38_8 H31_8 1_555 1_555
C39_8 C38_8 1_555 1_555
C40_8 C39_8 1_555 1_555
C41_8 C40_8 1_555 1_555
H32_8 C41_8 1_555 1_555
C42_8 C37_8 1_555 1_555
H33_8 C42_8 1_555 1_555
C43_8 H34_8 1_555 1_555
H35_8 C43_8 1_555 1_555
H36_8 C43_8 1_555 1_555
C44_8 H37_8 1_555 1_555
H38_8 C44_8 1_555 1_555
C45_8 C44_8 1_555 1_555
C46_8 C45_8 1_555 1_555
H39_8 C46_8 1_555 1_555
H40_8 C46_8 1_555 1_555
C47_8 C45_8 1_555 1_555
H41_8 C47_8 1_555 1_555
H42_8 C47_8 1_555 1_555
C48_8 C45_8 1_555 1_555
H43_8 C48_8 1_555 1_555
H44_8 C48_8 1_555 1_555
C49_8 C50_8 1_555 1_555
C50_8 H45_8 1_555 1_555
C51_8 C50_8 1_555 1_555
H46_8 C51_8 1_555 1_555
C52_8 C51_8 1_555 1_555
C53_8 C52_8 1_555 1_555
H47_8 C53_8 1_555 1_555
C54_8 C49_8 1_555 1_555
C55_8 H48_8 1_555 1_555
H49_8 C55_8 1_555 1_555
H50_6 C55_8 1_555 1_555
C56_8 C69_8 1_555 1_555
C57_8 C52_8 1_555 1_555
C58_8 C59_8 1_555 1_555
C59_8 H51_8 1_555 1_555
C60_8 C59_8 1_555 1_555
H52_8 C60_8 1_555 1_555
C61_8 C60_8 1_555 1_555
C62_8 C61_8 1_555 1_555
H53_8 C62_8 1_555 1_555
C63_8 C58_8 1_555 1_555
C64_8 H54_8 1_555 1_555
H55_8 C64_8 1_555 1_555
H56_8 C64_8 1_555 1_555
C65_8 C61_8 1_555 1_555
C66_8 C67_8 1_555 1_555
C67_8 H57_8 1_555 1_555
C68_8 C67_8 1_555 1_555
H58_8 C68_8 1_555 1_555
C69_8 C68_8 1_555 1_555
C70_8 C69_8 1_555 1_555
H59_8 C70_8 1_555 1_555
C71_8 C66_8 1_555 1_555
C72_8 H60_8 1_555 1_555
H61_8 C72_8 1_555 1_555
H62_8 C72_8 1_555 1_555
C73_8 C74_8 1_555 1_555
C74_8 C75_8 1_555 1_555
C75_8 H63_8 1_555 1_555
C76_8 C75_8 1_555 1_555
C77_8 C76_8 1_555 1_555
H64_8 C77_8 1_555 1_555
C78_8 C73_8 1_555 1_555
H65_8 C78_8 1_555 1_555
C79_8 C76_8 1_555 1_555
H66_8 C79_8 1_555 1_555
H67_8 C79_8 1_555 1_555
H68_8 C79_8 1_555 1_555
N1_8 C2_8 1_555 1_555
N2_8 N1_8 1_555 1_555
N3_8 C1_8 1_555 1_555
N4_8 Zn6_4 1_555 1_555
N5_8 Zn1_8 1_555 1_555
N6_8 C9_8 1_555 1_555
N7_8 Zn2_8 1_555 1_555
N8_8 Zn1_8 1_555 1_555
N9_8 Zn8_4 1_555 1_555
N10_8 C23_8 1_555 1_555
N11_8 Zn1_8 1_555 1_555
N12_8 Zn6_4 1_555 1_555
N13_8 Zn7_4 1_555 1_555
N14_8 Zn1_8 1_555 1_555
N15_8 Zn8_4 1_555 1_555
N16_8 Zn7_4 1_555 1_555
N17_8 Zn1_8 1_555 1_555
N18_8 Zn2_8 1_555 1_555
O17_4 C36_8 1_555 1_555
O18_4 C36_8 1_555 1_555
O3_8 Zn2_8 1_555 1_555
O4_8 Zn2_8 1_555 1_555
O19_4 C57_8 1_555 1_555
O20_4 C65_8 1_555 1_555
O21_4 C65_8 1_555 1_555
O8_8 C57_8 1_555 1_555
O9_8 C40_8 1_555 1_555
O10_8 C54_8 1_555 1_555
O11_8 C71_8 1_555 1_555
O12_8 C63_8 1_555 1_555
O13_8 C47_8 1_555 1_555
O14_8 C48_8 1_555 1_555
O15_8 C46_8 1_555 1_555
O16_8 C39_8 1_555 1_555
C5_8 C6_8 1_555 1_555
C8_8 N4_8 1_555 1_555
C12_8 C13_8 1_555 1_555
C15_8 N7_8 1_555 1_555
C16_8 N9_8 1_555 1_555
C19_8 C20_8 1_555 1_555
C22_8 N12_8 1_555 1_555
C26_8 C27_8 1_555 1_555
C29_8 N13_8 1_555 1_555
C30_8 N15_8 1_555 1_555
C33_8 C34_8 1_555 1_555
C41_8 C42_8 1_555 1_555
C43_8 O16_8 1_555 1_555
C44_8 O9_8 1_555 1_555
C49_8 O15_8 1_555 1_555
C53_8 C54_8 1_555 1_555
C55_8 O10_8 1_555 1_555
C56_8 O3_8 1_555 1_555
C56_8 O4_8 1_555 1_555
C58_8 O13_8 1_555 1_555
C62_8 C63_8 1_555 1_555
C64_8 O12_8 1_555 1_555
C66_8 O14_8 1_555 1_555
C70_8 C71_8 1_555 1_555
C72_8 O11_8 1_555 1_555
C73_8 N16_8 1_555 1_555
C74_8 N18_8 1_555 1_555
C77_8 C78_8 1_555 1_555
N2_8 N3_8 1_555 1_555
N4_8 N5_8 1_555 1_555
N5_8 N6_8 1_555 1_555
N7_8 N8_8 1_555 1_555
N8_8 N9_8 1_555 1_555
N10_8 N11_8 1_555 1_555
N11_8 N12_8 1_555 1_555
N13_8 N14_8 1_555 1_555
N14_8 N15_8 1_555 1_555
N16_8 N17_8 1_555 1_555
N17_8 N18_8 1_555 1_555

#END
