
###############################################################################
#
# This file contains modified crystal structure data generated from the
# MOF subset of the Cambridge Structural Database (CSD) v543 
# hosted by the Cambridge Crystallographic Data Centre (CCDC).
#
# This work is licensed under the Creative Commons
# Attribution-NonCommercial-ShareAlike 4.0 International License.
# To view a copy of this license, visit
# http://creativecommons.org/licenses/by-nc-sa/4.0/
# or send a letter to
# Creative Commons, PO Box 1866, Mountain View, CA 94042, USA.
#
# CIF created using the CSD Python API on 29 September 2022
# The structure has been converted into the P1 space group
# The structure has a 3D framework
# The original CSD entry FAYQON is in the monoclinic crystal system
# The framework has been calculated to contain at least 10.0% void space
# The void calculation uses a probe of radius 1.32A, grid spacing 0.4
#
###############################################################################

data_FAYQON
_chemical_formula_moiety         '(C664 H544 N144 O92 Zn40)n'
_symmetry_cell_setting           triclinic
_symmetry_space_group_name_H-M   'P 1'
_symmetry_Int_Tables_number      1
_space_group_name_Hall           'P 1'
loop_
_symmetry_equiv_pos_site_id
_symmetry_equiv_pos_as_xyz
1 x,y,z
_cell_length_a                   46.443(3)
_cell_length_b                   26.2322(16)
_cell_length_c                   26.2139(18)
_cell_angle_alpha                90
_cell_angle_beta                 125.965(2)
_cell_angle_gamma                90
_cell_volume                     25848.6
loop_
_atom_site_label
_atom_site_type_symbol
_atom_site_fract_x
_atom_site_fract_y
_atom_site_fract_z
Zn1 Zn 0.20394(3) 0.07668(3) 0.05647(5)
Zn3 Zn 0.25827(3) 0.07070(5) 0.21911(5)
Zn4 Zn 0.14944(4) 0.18816(5) 0.01158(6)
C13 C 0.1936(2) 0.2003(4) 0.1497(3)
C14 C 0.1832(2) 0.2465(4) 0.1599(5)
H7 H 0.1651 0.2654 0.1259
C15 C 0.1996(3) 0.2645(3) 0.2210(7)
C16 C 0.2266(3) 0.2363(5) 0.2718(4)
H8 H 0.2376 0.2484 0.3127
C17 C 0.2371(2) 0.1901(4) 0.2617(4)
H9 H 0.2551 0.1712 0.2957
C18 C 0.2206(2) 0.1721(3) 0.2006(5)
C19 C 0.31587(18) 0.0742(2) 0.1898(4)
C20 C 0.31470(17) 0.0773(2) 0.1357(3)
C21 C 0.3461(2) 0.0818(2) 0.1406(3)
H10 H 0.3453 0.0839 0.1044
C22 C 0.37859(18) 0.0833(3) 0.1996(4)
C23 C 0.37976(17) 0.0802(2) 0.2537(3)
H11 H 0.4015 0.0812 0.2932
C24 C 0.3484(2) 0.0757(2) 0.2488(3)
H12 H 0.3492 0.0736 0.2850
C78 C 0.4109(5) 0.0835(8) 0.1996(14)
H56 H 0.4037 0.0860 0.1571
H57 H 0.4241 0.0525 0.2183
H58 H 0.4257 0.1121 0.2235
C81 C 0.1994(11) 0.3089(10) 0.2567(18)
H65 H 0.1819 0.3331 0.2276
H66 H 0.2224 0.3247 0.2807
H67 H 0.1938 0.2972 0.2847
N1 N 0.2250(2) 0.1304(3) 0.1783(4)
N2 N 0.20409(19) 0.1309(3) 0.1190(3)
N3 N 0.1849(2) 0.1741(3) 0.1021(4)
N5 N 0.20376(19) 0.1419(2) 0.0012(3)
N8 N 0.2828(2) 0.0767(2) 0.0915(3)
N9 N 0.26240(19) 0.0749(2) 0.1139(3)
N10 N 0.28166(19) 0.0730(2) 0.1716(3)
N16 N 0.2242(2) 0.0148(3) 0.1713(4)
N18 N 0.2048(2) 0.0145(3) 0.1129(4)
O14 O 0.2735(4) 0.0507(5) 0.3059(6)
O15 O 0.3035(3) 0.1055(5) 0.3139(6)
O16 O 0.1399(4) 0.2658(5) 0.0187(7)
Zn2 Zn 0.25845(4) 0.08443(5) 0.99829(6)
C25 C 0.19100(19) 0.2802(2) 0.8944(3)
H13 H 0.1820 0.3116 0.8751
C26 C 0.21672(19) 0.2562(3) 0.8916(3)
C27 C 0.23024(15) 0.2092(2) 0.9204(3)
H14 H 0.2474 0.1931 0.9185
C28 C 0.21804(17) 0.18605(19) 0.9521(3)
C29 C 0.19232(17) 0.2100(3) 0.9550(3)
C30 C 0.17880(16) 0.2571(3) 0.9261(3)
H15 H 0.1616 0.2731 0.9280
C31 C 0.0921(4) 0.0532(6) 0.9443(5)
C32 C 0.0920(4) 0.1061(6) 0.9479(5)
C33 C 0.0602(5) 0.1319(3) 0.9228(6)
H16 H 0.0601 0.1673 0.9252
C34 C 0.0285(4) 0.1049(7) 0.8941(6)
H17 H 0.0072 0.1223 0.8773
C35 C 0.0286(4) 0.0521(7) 0.8905(6)
C36 C 0.0604(5) 0.0262(3) 0.9156(6)
C37 C 0.2306(3) 0.2841(4) 0.8590(6)
H19 H 0.2181 0.3158 0.8422
H20 H 0.2268 0.2634 0.8254
H21 H 0.2555 0.2907 0.8890
C39 C 0.2927(3) 0.0862(8) 0.9556(6)
C40 C 0.3170(3) 0.0963(6) 0.9354(6)
H25 H 0.3233 0.1305 0.9401
C41 C 0.3300(3) 0.0727(4) 0.9155(5)
H26 H 0.3235 0.0388 0.9131
C42 C 0.3525(3) 0.0757(5) 0.8930(5)
C43 C 0.3612(4) 0.0321(4) 0.8746(8)
H27 H 0.3526 0.0005 0.8759
C44 C 0.3829(5) 0.0357(4) 0.8543(8)
H28 H 0.3887 0.0065 0.8420
C45 C 0.3958(3) 0.0829(6) 0.8523(6)
C46 C 0.3871(4) 0.1265(4) 0.8707(7)
H29 H 0.3957 0.1581 0.8693
C47 C 0.3655(3) 0.1229(4) 0.8910(6)
H30 H 0.3596 0.1521 0.9033
H35 H 0.5607 0.0049 0.8956
C57 C 0.2965(4) 0.0714(7) 0.3302(4)
C58 C 0.3123(4) 0.0642(6) 0.3992(6)
H37 H 0.3027 0.0427 0.4140
C59 C 0.3379(4) 0.0885(5) 0.4318(7)
H38 H 0.3470 0.1103 0.4165
C60 C 0.3550(3) 0.0813(4) 0.5022(4)
C61 C 0.3481(2) 0.0444(3) 0.5317(5)
H39 H 0.3285 0.0231 0.5079
C62 C 0.3704(3) 0.0395(3) 0.5970(5)
H40 H 0.3658 0.0148 0.6167
C63 C 0.3997(3) 0.0714(5) 0.6326(4)
C64 C 0.4066(3) 0.1083(5) 0.6030(7)
H41 H 0.4262 0.1297 0.6269
C65 C 0.3843(4) 0.1133(4) 0.5378(7)
H42 H 0.3889 0.1379 0.5181
C66 C 0.4363(4) 0.0970(6) 0.7297(5)
H43 H 0.4215 0.1264 0.7218
H44 H 0.4526 0.1057 0.7193
C67 C 0.4294(4) 0.0673(7) 0.8107(9)
H45 H 0.4080 0.0562 0.7711
H46 H 0.4386 0.0381 0.8386
C68 C 0.4564(2) 0.0803(3) 0.7975(4)
C69 C 0.4740(5) 0.0291(5) 0.8088(9)
H47 H 0.4664 0.0091 0.8301
H48 H 0.4623 0.0141 0.7673
C70 C 0.4794(4) 0.1266(5) 0.8358(6)
H49 H 0.4655 0.1501 0.8418
H50 H 0.4996 0.1155 0.8769
C71 C 0.5145(3) 0.1898(4) 0.8532(10)
C72 C 0.5179(4) 0.2188(7) 0.8126(6)
H51 H 0.5061 0.2090 0.7707
C73 C 0.5388(4) 0.2625(6) 0.8346(6)
H52 H 0.5411 0.2820 0.8075
C74 C 0.5564(3) 0.2772(4) 0.8972(6)
C75 C 0.5530(4) 0.2481(5) 0.9378(6)
H53 H 0.5647 0.2579 0.9796
C76 C 0.5321(4) 0.2044(5) 0.9157(9)
H54 H 0.5298 0.1850 0.9429
C77 C 0.5781(4) 0.3265(5) 0.9212(7)
H55 H 0.5623 0.3538 0.9066
N4 N 0.1799(2) 0.1825(3) 0.9872(4)
N6 N 0.2250(2) 0.0270(3) 0.9722(4)
N7 N 0.2036(2) 0.0223(3) 0.9929(3)
N11 N 0.22631(19) 0.1411(2) 0.9836(3)
N13 N 0.1258(3) 0.0351(3) 0.9803(4)
N14 N 0.1461(2) 0.0778(3) 0.9996(3)
N15 N 0.1263(3) 0.1200(3) 0.9842(4)
O2 O 0.2902(3) 0.0528(6) 0.9638(6)
O3 O 0.4185(3) 0.0614(4) 0.6997(5)
O4 O 0.4983(4) 0.0213(5) 0.8299(7)
O8 O 0.2828(5) 0.1207(8) 0.9641(8)
O9 O 0.4888(5) 0.1461(7) 0.8104(8)
O10 O 0.4214(3) 0.0951(5) 0.8307(6)
C82 C 0.6070(4) 0.3429(6) 0.9510(16)
H68 H 0.6253 0.3191 0.9716
C83 C 0.6185(4) 0.3984(5) 0.9603(6)
O11 O 0.6070(7) 0.4193(8) 0.9848(13)
O12 O 0.6505(5) 0.3981(10) 0.9916(19)
Zn8 Zn 0.64967(4) 0.46692(5) 0.99666(8)
O13 O 0.1089(4) 0.2309(7) 0.9487(8)
C7 C 0.1919(3) 0.9448(5) 0.1310(4)
C8 C 0.2165(3) 0.9705(3) 0.1867(6)
C9 C 0.2303(2) 0.9473(5) 0.2444(5)
H4 H 0.2467 0.9645 0.2817
C10 C 0.2194(3) 0.8984(5) 0.2464(5)
H5 H 0.2287 0.8829 0.2850
C11 C 0.1949(3) 0.8727(3) 0.1907(8)
C12 C 0.1811(3) 0.8959(5) 0.1330(6)
H6 H 0.1647 0.8788 0.0957
C80 C 0.1968(10) 0.8207(7) 0.2166(17)
H62 H 0.1806 0.7982 0.1826
H63 H 0.1903 0.8230 0.2453
H64 H 0.2205 0.8077 0.2384
N17 N 0.1838(2) 0.9753(3) 0.0869(4)
O7 O 0.6399(4) 0.7658(5) 0.0187(7)
Zn7 Zn 0.64944(4) 0.68816(5) 0.01158(6)
Zn5 Zn 0.14967(4) 0.96692(5) 0.99666(8)
C1 C 0.2153(2) 0.9875(3) 0.9317(4)
C2 C 0.1904(2) 0.9597(4) 0.9334(4)
C3 C 0.1768(2) 0.9146(4) 0.8993(5)
H1 H 0.1601 0.8960 0.9004
C4 C 0.1881(3) 0.8974(3) 0.8635(5)
C5 C 0.2129(3) 0.9253(5) 0.8618(5)
H2 H 0.2205 0.9138 0.8379
C6 C 0.2266(2) 0.9703(4) 0.8959(5)
H3 H 0.2432 0.9890 0.8948
H18 H 0.0605 0.9909 0.9131
C38 C 0.1765(6) 0.8508(6) 0.8233(9)
H22 H 0.1597 0.8322 0.8259
H23 H 0.1969 0.8297 0.8377
H24 H 0.1657 0.8606 0.7803
C48 C 0.6131(6) 0.7623(7) 0.9690(12)
C49 C 0.5941(5) 0.8118(6) 0.9613(10)
H31 H 0.5979 0.8262 0.9973
C50 C 0.5750(4) 0.8332(6) 0.9137(7)
H32 H 0.5698 0.8134 0.8798
C51 C 0.5577(4) 0.8812(4) 0.8931(6)
C52 C 0.5209(4) 0.8754(4) 0.8536(7)
H33 H 0.5110 0.8430 0.8430
C53 C 0.4991(3) 0.9181(6) 0.8298(7)
H34 H 0.4745 0.9143 0.8033
C54 C 0.5140(4) 0.9666(5) 0.8455(6)
C55 C 0.5507(4) 0.9724(4) 0.8851(9)
C56 C 0.5726(3) 0.9297(5) 0.9088(9)
H36 H 0.5972 0.9336 0.9353
N12 N 0.1827(2) 0.9813(3) 0.9713(4)
O1 O 0.6089(4) 0.7309(7) 0.9487(8)
O17 O 0.1070(7) 0.9193(8) 0.9848(13)
O18 O 0.1505(5) 0.8981(10) 0.9916(19)
C48_2 C 0.1131(6) 0.2623(7) 0.9690(12)
C49_2 C 0.0941(5) 0.3118(6) 0.9613(10)
H31_2 H 0.0979 0.3262 0.9973
C50_2 C 0.0750(4) 0.3332(6) 0.9137(7)
H32_2 H 0.0698 0.3134 0.8798
C51_2 C 0.0577(4) 0.3812(4) 0.8931(6)
C52_2 C 0.0209(4) 0.3754(4) 0.8536(7)
H33_2 H 0.0110 0.3430 0.8430
C54_2 C 0.0140(4) 0.4666(5) 0.8455(6)
C55_2 C 0.0507(4) 0.4724(4) 0.8851(9)
H35_2 H 0.0607 0.5049 0.8956
C56_2 C 0.0726(3) 0.4297(5) 0.9088(9)
H36_2 H 0.0972 0.4336 0.9353
C71_2 C 0.0145(3) 0.6898(4) 0.8532(10)
C72_2 C 0.0179(4) 0.7188(7) 0.8126(6)
H51_2 H 0.0061 0.7090 0.7707
C73_2 C 0.0388(4) 0.7625(6) 0.8346(6)
H52_2 H 0.0411 0.7820 0.8075
C74_2 C 0.0564(3) 0.7772(4) 0.8972(6)
C75_2 C 0.0530(4) 0.7481(5) 0.9378(6)
H53_2 H 0.0647 0.7579 0.9796
C76_2 C 0.0321(4) 0.7044(5) 0.9157(9)
H54_2 H 0.0298 0.6850 0.9429
C77_2 C 0.0781(4) 0.8265(5) 0.9212(7)
H55_2 H 0.0623 0.8538 0.9066
C82_2 C 0.1070(4) 0.8429(6) 0.9510(16)
H68_2 H 0.1253 0.8191 0.9716
C83_2 C 0.1185(4) 0.8984(5) 0.9603(6)
Zn1_2 Zn 0.70394(3) 0.57668(3) 0.05647(5)
Zn3_2 Zn 0.75827(3) 0.57070(5) 0.21911(5)
C7_2 C 0.6919(3) 0.4448(5) 0.1310(4)
C8_2 C 0.7165(3) 0.4705(3) 0.1867(6)
C9_2 C 0.7303(2) 0.4473(5) 0.2444(5)
H4_2 H 0.7467 0.4645 0.2817
C10_2 C 0.7194(3) 0.3984(5) 0.2464(5)
H5_2 H 0.7287 0.3829 0.2850
C11_2 C 0.6949(3) 0.3727(3) 0.1907(8)
C12_2 C 0.6811(3) 0.3959(5) 0.1330(6)
H6_2 H 0.6647 0.3788 0.0957
C13_2 C 0.6936(2) 0.7003(4) 0.1497(3)
C14_2 C 0.6832(2) 0.7465(4) 0.1599(5)
H7_2 H 0.6651 0.7654 0.1259
C15_2 C 0.6996(3) 0.7645(3) 0.2210(7)
C16_2 C 0.7266(3) 0.7363(5) 0.2718(4)
H8_2 H 0.7376 0.7484 0.3127
C17_2 C 0.7371(2) 0.6901(4) 0.2617(4)
H9_2 H 0.7551 0.6712 0.2957
C18_2 C 0.7206(2) 0.6721(3) 0.2006(5)
C19_2 C 0.81587(18) 0.5742(2) 0.1898(4)
C20_2 C 0.81470(17) 0.5773(2) 0.1357(3)
C21_2 C 0.8461(2) 0.5818(2) 0.1406(3)
H10_2 H 0.8453 0.5839 0.1044
C22_2 C 0.87859(18) 0.5833(3) 0.1996(4)
C23_2 C 0.87976(17) 0.5802(2) 0.2537(3)
H11_2 H 0.9015 0.5812 0.2932
C24_2 C 0.8484(2) 0.5757(2) 0.2488(3)
H12_2 H 0.8492 0.5736 0.2850
C78_2 C 0.9109(5) 0.5835(8) 0.1996(14)
H56_2 H 0.9037 0.5860 0.1571
H57_2 H 0.9241 0.5525 0.2183
H58_2 H 0.9257 0.6121 0.2235
C80_2 C 0.6968(10) 0.3207(7) 0.2166(17)
H62_2 H 0.6806 0.2982 0.1826
H63_2 H 0.6903 0.3230 0.2453
H64_2 H 0.7205 0.3077 0.2384
C81_2 C 0.6994(11) 0.8089(10) 0.2567(18)
H65_2 H 0.6819 0.8331 0.2276
H66_2 H 0.7224 0.8247 0.2807
H67_2 H 0.6938 0.7972 0.2847
N1_2 N 0.7250(2) 0.6304(3) 0.1783(4)
N2_2 N 0.70409(19) 0.6309(3) 0.1190(3)
N3_2 N 0.6849(2) 0.6741(3) 0.1021(4)
N5_2 N 0.70376(19) 0.6419(2) 0.0012(3)
N8_2 N 0.7828(2) 0.5767(2) 0.0915(3)
N9_2 N 0.76240(19) 0.5749(2) 0.1139(3)
N10_2 N 0.78166(19) 0.5730(2) 0.1716(3)
N16_2 N 0.7242(2) 0.5148(3) 0.1713(4)
N17_2 N 0.6838(2) 0.4753(3) 0.0869(4)
N18_2 N 0.7048(2) 0.5145(3) 0.1129(4)
O14_2 O 0.7735(4) 0.5507(5) 0.3059(6)
O15_2 O 0.8035(3) 0.6055(5) 0.3139(6)
Zn2_2 Zn 0.75845(4) 0.58443(5) 0.99829(6)
C1_2 C 0.7153(2) 0.4875(3) 0.9317(4)
C2_2 C 0.6904(2) 0.4597(4) 0.9334(4)
C3_2 C 0.6768(2) 0.4146(4) 0.8993(5)
H1_2 H 0.6601 0.3960 0.9004
C4_2 C 0.6881(3) 0.3974(3) 0.8635(5)
C5_2 C 0.7129(3) 0.4253(5) 0.8618(5)
H2_2 H 0.7205 0.4138 0.8379
C6_2 C 0.7266(2) 0.4703(4) 0.8959(5)
H3_2 H 0.7432 0.4890 0.8948
C25_2 C 0.69100(19) 0.7802(2) 0.8944(3)
H13_2 H 0.6820 0.8116 0.8751
C26_2 C 0.71672(19) 0.7562(3) 0.8916(3)
C27_2 C 0.73024(15) 0.7092(2) 0.9204(3)
H14_2 H 0.7474 0.6931 0.9185
C28_2 C 0.71804(17) 0.68605(19) 0.9521(3)
C29_2 C 0.69232(17) 0.7100(3) 0.9550(3)
C30_2 C 0.67880(16) 0.7571(3) 0.9261(3)
H15_2 H 0.6616 0.7731 0.9280
C31_2 C 0.5921(4) 0.5532(6) 0.9443(5)
C32_2 C 0.5920(4) 0.6061(6) 0.9479(5)
C33_2 C 0.5602(5) 0.6319(3) 0.9228(6)
H16_2 H 0.5601 0.6673 0.9252
C34_2 C 0.5285(4) 0.6049(7) 0.8941(6)
H17_2 H 0.5072 0.6223 0.8773
C35_2 C 0.5286(4) 0.5521(7) 0.8905(6)
C36_2 C 0.5604(5) 0.5262(3) 0.9156(6)
H18_2 H 0.5605 0.4909 0.9131
C37_2 C 0.7306(3) 0.7841(4) 0.8590(6)
H19_2 H 0.7181 0.8158 0.8422
H20_2 H 0.7268 0.7634 0.8254
H21_2 H 0.7555 0.7907 0.8890
C38_2 C 0.6765(6) 0.3508(6) 0.8233(9)
H22_2 H 0.6597 0.3322 0.8259
H23_2 H 0.6969 0.3297 0.8377
H24_2 H 0.6657 0.3606 0.7803
C39_2 C 0.7927(3) 0.5862(8) 0.9556(6)
C40_2 C 0.8170(3) 0.5963(6) 0.9354(6)
H25_2 H 0.8233 0.6305 0.9401
C41_2 C 0.8300(3) 0.5727(4) 0.9155(5)
H26_2 H 0.8235 0.5388 0.9131
C42_2 C 0.8525(3) 0.5757(5) 0.8930(5)
C43_2 C 0.8612(4) 0.5321(4) 0.8746(8)
H27_2 H 0.8526 0.5005 0.8759
C44_2 C 0.8829(5) 0.5357(4) 0.8543(8)
H28_2 H 0.8887 0.5065 0.8420
C45_2 C 0.8958(3) 0.5829(6) 0.8523(6)
C46_2 C 0.8871(4) 0.6265(4) 0.8707(7)
H29_2 H 0.8957 0.6581 0.8693
C47_2 C 0.8655(3) 0.6229(4) 0.8910(6)
H30_2 H 0.8596 0.6521 0.9033
C53_2 C 0.9991(3) 0.4181(6) 0.8298(7)
H34_2 H 0.9745 0.4143 0.8033
C57_2 C 0.7965(4) 0.5714(7) 0.3302(4)
C58_2 C 0.8123(4) 0.5642(6) 0.3992(6)
H37_2 H 0.8027 0.5427 0.4140
C59_2 C 0.8379(4) 0.5885(5) 0.4318(7)
H38_2 H 0.8470 0.6103 0.4165
C60_2 C 0.8550(3) 0.5813(4) 0.5022(4)
C61_2 C 0.8481(2) 0.5444(3) 0.5317(5)
H39_2 H 0.8285 0.5231 0.5079
C62_2 C 0.8704(3) 0.5395(3) 0.5970(5)
H40_2 H 0.8658 0.5148 0.6167
C63_2 C 0.8997(3) 0.5714(5) 0.6326(4)
C64_2 C 0.9066(3) 0.6083(5) 0.6030(7)
H41_2 H 0.9262 0.6297 0.6269
C65_2 C 0.8843(4) 0.6133(4) 0.5378(7)
H42_2 H 0.8889 0.6379 0.5181
C66_2 C 0.9363(4) 0.5970(6) 0.7297(5)
H43_2 H 0.9215 0.6264 0.7218
H44_2 H 0.9526 0.6057 0.7193
C67_2 C 0.9294(4) 0.5673(7) 0.8107(9)
H45_2 H 0.9080 0.5562 0.7711
H46_2 H 0.9386 0.5381 0.8386
C68_2 C 0.9564(2) 0.5803(3) 0.7975(4)
C69_2 C 0.9740(5) 0.5291(5) 0.8088(9)
H47_2 H 0.9664 0.5091 0.8301
H48_2 H 0.9623 0.5141 0.7673
C70_2 C 0.9794(4) 0.6266(5) 0.8358(6)
H49_2 H 0.9655 0.6501 0.8418
H50_2 H 0.9996 0.6155 0.8769
C79 C 0.4945(7) 0.5240(15) 0.8637(17)
H59 H 0.4986 0.4880 0.8643
H60 H 0.4772 0.5348 0.8210
H61 H 0.4859 0.5310 0.8885
N4_2 N 0.6799(2) 0.6825(3) 0.9872(4)
N6_2 N 0.7250(2) 0.5270(3) 0.9722(4)
N7_2 N 0.7036(2) 0.5223(3) 0.9929(3)
N11_2 N 0.72631(19) 0.6411(2) 0.9836(3)
N12_2 N 0.6827(2) 0.4813(3) 0.9713(4)
N13_2 N 0.6258(3) 0.5351(3) 0.9803(4)
N14_2 N 0.6461(2) 0.5778(3) 0.9996(3)
N15_2 N 0.6263(3) 0.6200(3) 0.9842(4)
O2_2 O 0.7902(3) 0.5528(6) 0.9638(6)
O3_2 O 0.9185(3) 0.5614(4) 0.6997(5)
O4_2 O 0.9983(4) 0.5213(5) 0.8299(7)
O8_2 O 0.7828(5) 0.6207(8) 0.9641(8)
O9_2 O 0.9888(5) 0.6461(7) 0.8104(8)
O10_2 O 0.9214(3) 0.5951(5) 0.8307(6)
C79_2 C 0.9945(7) 0.0240(15) 0.8637(17)
H60_2 H 0.9772 0.0348 0.8210
H61_2 H 0.9859 0.0310 0.8885
H59_2 H 0.9986 0.9880 0.8643
C79_3 C 0.0055(7) 0.0240(15) 0.6363(17)
H60_3 H 0.0228 0.0348 0.6790
H61_3 H 0.0141 0.0310 0.6115
H59_3 H 0.0014 0.9880 0.6357
C57_3 C 0.7035(4) 0.0714(7) 0.1698(4)
C58_3 C 0.6877(4) 0.0642(6) 0.1008(6)
H37_3 H 0.6973 0.0427 0.0860
C59_3 C 0.6621(4) 0.0885(5) 0.0682(7)
H38_3 H 0.6530 0.1103 0.0835
O5 O 0.7265(4) 0.0507(5) 0.1941(6)
O6 O 0.6965(3) 0.1055(5) 0.1861(6)
Zn6 Zn 0.74173(3) 0.07070(5) 0.28089(5)
Zn1_3 Zn 0.79606(3) 0.07668(3) 0.44353(5)
Zn2_3 Zn 0.74155(4) 0.08443(5) 0.50171(6)
Zn4_2 Zn 0.85056(4) 0.18816(5) 0.48842(6)
C13_3 C 0.8064(2) 0.2003(4) 0.3503(3)
C14_3 C 0.8168(2) 0.2465(4) 0.3401(5)
H7_3 H 0.8349 0.2654 0.3741
C15_3 C 0.8004(3) 0.2645(3) 0.2790(7)
C16_3 C 0.7734(3) 0.2363(5) 0.2282(4)
H8_3 H 0.7624 0.2484 0.1873
C17_3 C 0.7629(2) 0.1901(4) 0.2383(4)
H9_3 H 0.7449 0.1712 0.2043
C18_3 C 0.7794(2) 0.1721(3) 0.2994(5)
C19_3 C 0.68413(18) 0.0742(2) 0.3102(4)
C20_3 C 0.68530(17) 0.0773(2) 0.3643(3)
C21_3 C 0.6539(2) 0.0818(2) 0.3594(3)
H10_3 H 0.6547 0.0839 0.3956
C22_3 C 0.62141(18) 0.0833(3) 0.3004(4)
C23_3 C 0.62024(17) 0.0802(2) 0.2463(3)
H11_3 H 0.5985 0.0812 0.2068
C24_3 C 0.6516(2) 0.0757(2) 0.2512(3)
H12_3 H 0.6508 0.0736 0.2150
C25_3 C 0.80900(19) 0.2802(2) 0.6056(3)
H13_3 H 0.8180 0.3116 0.6249
C26_3 C 0.78328(19) 0.2562(3) 0.6084(3)
C27_3 C 0.76976(15) 0.2092(2) 0.5796(3)
H14_3 H 0.7526 0.1931 0.5815
C28_3 C 0.78196(17) 0.18605(19) 0.5479(3)
C29_3 C 0.80768(17) 0.2100(3) 0.5450(3)
C30_3 C 0.82120(16) 0.2571(3) 0.5739(3)
H15_3 H 0.8384 0.2731 0.5720
C31_3 C 0.9079(4) 0.0532(6) 0.5557(5)
C32_3 C 0.9080(4) 0.1061(6) 0.5521(5)
C33_3 C 0.9398(5) 0.1319(3) 0.5772(6)
H16_3 H 0.9399 0.1673 0.5748
C34_3 C 0.9715(4) 0.1049(7) 0.6059(6)
H17_3 H 0.9928 0.1223 0.6227
C35_3 C 0.9714(4) 0.0521(7) 0.6095(6)
C36_3 C 0.9396(5) 0.0262(3) 0.5844(6)
C37_3 C 0.7694(3) 0.2841(4) 0.6410(6)
H19_3 H 0.7819 0.3158 0.6578
H20_3 H 0.7732 0.2634 0.6746
H21_3 H 0.7445 0.2907 0.6110
C39_3 C 0.7073(3) 0.0862(8) 0.5444(6)
C40_3 C 0.6830(3) 0.0963(6) 0.5646(6)
H25_3 H 0.6767 0.1305 0.5599
C41_3 C 0.6700(3) 0.0727(4) 0.5845(5)
H26_3 H 0.6765 0.0388 0.5869
C42_3 C 0.6475(3) 0.0757(5) 0.6070(5)
C43_3 C 0.6388(4) 0.0321(4) 0.6254(8)
H27_3 H 0.6474 0.0005 0.6241
C44_3 C 0.6171(5) 0.0357(4) 0.6457(8)
H28_3 H 0.6113 0.0065 0.6580
C45_3 C 0.6042(3) 0.0829(6) 0.6477(6)
C46_3 C 0.6129(4) 0.1265(4) 0.6293(7)
H29_3 H 0.6043 0.1581 0.6307
C47_3 C 0.6345(3) 0.1229(4) 0.6090(6)
H30_3 H 0.6404 0.1521 0.5967
H35_3 H 0.4393 0.0049 0.6044
C60_3 C 0.6450(3) 0.0813(4) 0.9978(4)
C61_3 C 0.6519(2) 0.0444(3) 0.9683(5)
H39_3 H 0.6715 0.0231 0.9921
C62_3 C 0.6296(3) 0.0395(3) 0.9030(5)
H40_3 H 0.6342 0.0148 0.8833
C63_3 C 0.6003(3) 0.0714(5) 0.8674(4)
C64_3 C 0.5934(3) 0.1083(5) 0.8970(7)
H41_3 H 0.5738 0.1297 0.8731
C65_3 C 0.6157(4) 0.1133(4) 0.9622(7)
H42_3 H 0.6111 0.1379 0.9819
C66_3 C 0.5637(4) 0.0970(6) 0.7703(5)
H43_3 H 0.5785 0.1264 0.7782
H44_3 H 0.5474 0.1057 0.7807
C67_3 C 0.5706(4) 0.0673(7) 0.6893(9)
H45_3 H 0.5920 0.0562 0.7289
H46_3 H 0.5614 0.0381 0.6614
C68_3 C 0.5436(2) 0.0803(3) 0.7025(4)
C69_3 C 0.5260(5) 0.0291(5) 0.6912(9)
H47_3 H 0.5336 0.0091 0.6699
H48_3 H 0.5377 0.0141 0.7327
C70_3 C 0.5206(4) 0.1266(5) 0.6642(6)
H49_3 H 0.5345 0.1501 0.6582
H50_3 H 0.5004 0.1155 0.6231
C71_3 C 0.4855(3) 0.1898(4) 0.6468(10)
C72_3 C 0.4821(4) 0.2188(7) 0.6874(6)
H51_3 H 0.4939 0.2090 0.7293
C73_3 C 0.4612(4) 0.2625(6) 0.6654(6)
H52_3 H 0.4589 0.2820 0.6925
C74_3 C 0.4436(3) 0.2772(4) 0.6028(6)
C75_3 C 0.4470(4) 0.2481(5) 0.5622(6)
H53_3 H 0.4353 0.2579 0.5204
C76_3 C 0.4679(4) 0.2044(5) 0.5843(9)
H54_3 H 0.4702 0.1850 0.5571
C77_3 C 0.4219(4) 0.3265(5) 0.5788(7)
H55_3 H 0.4377 0.3538 0.5934
C78_3 C 0.5891(5) 0.0835(8) 0.3004(14)
H56_3 H 0.5963 0.0860 0.3429
H57_3 H 0.5759 0.0525 0.2817
H58_3 H 0.5743 0.1121 0.2765
C81_3 C 0.8006(11) 0.3089(10) 0.2433(18)
H65_3 H 0.8181 0.3331 0.2724
H66_3 H 0.7776 0.3247 0.2193
H67_3 H 0.8062 0.2972 0.2153
N1_3 N 0.7750(2) 0.1304(3) 0.3217(4)
N2_3 N 0.79591(19) 0.1309(3) 0.3810(3)
N3_3 N 0.8151(2) 0.1741(3) 0.3979(4)
N4_3 N 0.8201(2) 0.1825(3) 0.5128(4)
N5_3 N 0.79624(19) 0.1419(2) 0.4988(3)
N6_3 N 0.7750(2) 0.0270(3) 0.5278(4)
N7_3 N 0.7964(2) 0.0223(3) 0.5071(3)
N8_3 N 0.7172(2) 0.0767(2) 0.4085(3)
N9_3 N 0.73760(19) 0.0749(2) 0.3861(3)
N10_3 N 0.71834(19) 0.0730(2) 0.3284(3)
N11_3 N 0.77369(19) 0.1411(2) 0.5164(3)
N13_3 N 0.8742(3) 0.0351(3) 0.5197(4)
N14_3 N 0.8539(2) 0.0778(3) 0.5004(3)
N15_3 N 0.8737(3) 0.1200(3) 0.5158(4)
N16_3 N 0.7758(2) 0.0148(3) 0.3287(4)
N18_3 N 0.7952(2) 0.0145(3) 0.3871(4)
O2_3 O 0.7098(3) 0.0528(6) 0.5362(6)
O3_3 O 0.5815(3) 0.0614(4) 0.8003(5)
O4_3 O 0.5017(4) 0.0213(5) 0.6701(7)
O8_3 O 0.7172(5) 0.1207(8) 0.5359(8)
O9_3 O 0.5112(5) 0.1461(7) 0.6896(8)
O10_3 O 0.5786(3) 0.0951(5) 0.6693(6)
C82_3 C 0.3930(4) 0.3429(6) 0.5490(16)
H68_3 H 0.3747 0.3191 0.5284
C83_3 C 0.3815(4) 0.3984(5) 0.5397(6)
O11_2 O 0.3930(7) 0.4193(8) 0.5152(13)
O12_2 O 0.3495(5) 0.3981(10) 0.5084(19)
Zn8_2 Zn 0.35033(4) 0.46692(5) 0.50334(8)
O13_2 O 0.8911(4) 0.2309(7) 0.5513(8)
O16_2 O 0.8601(4) 0.2658(5) 0.4813(7)
Zn5_2 Zn 0.85033(4) 0.96692(5) 0.50334(8)
C1_3 C 0.7847(2) 0.9875(3) 0.5683(4)
C2_3 C 0.8096(2) 0.9597(4) 0.5666(4)
C3_3 C 0.8232(2) 0.9146(4) 0.6007(5)
H1_3 H 0.8399 0.8960 0.5996
C4_3 C 0.8119(3) 0.8974(3) 0.6365(5)
C5_3 C 0.7871(3) 0.9253(5) 0.6382(5)
H2_3 H 0.7795 0.9138 0.6621
C6_3 C 0.7734(2) 0.9703(4) 0.6041(5)
H3_3 H 0.7568 0.9890 0.6052
C7_3 C 0.8081(3) 0.9448(5) 0.3690(4)
C8_3 C 0.7835(3) 0.9705(3) 0.3133(6)
C9_3 C 0.7697(2) 0.9473(5) 0.2556(5)
H4_3 H 0.7533 0.9645 0.2183
C10_3 C 0.7806(3) 0.8984(5) 0.2536(5)
H5_3 H 0.7713 0.8829 0.2150
C11_3 C 0.8051(3) 0.8727(3) 0.3093(8)
C12_3 C 0.8189(3) 0.8959(5) 0.3670(6)
H6_3 H 0.8353 0.8788 0.4043
H18_3 H 0.9395 0.9909 0.5869
C38_3 C 0.8235(6) 0.8508(6) 0.6767(9)
H22_3 H 0.8403 0.8322 0.6741
H23_3 H 0.8031 0.8297 0.6623
H24_3 H 0.8343 0.8606 0.7197
C48_3 C 0.3869(6) 0.7623(7) 0.5310(12)
C49_3 C 0.4059(5) 0.8118(6) 0.5387(10)
H31_3 H 0.4021 0.8262 0.5027
C50_3 C 0.4250(4) 0.8332(6) 0.5863(7)
H32_3 H 0.4302 0.8134 0.6202
C51_3 C 0.4423(4) 0.8812(4) 0.6069(6)
C52_3 C 0.4791(4) 0.8754(4) 0.6464(7)
H33_3 H 0.4890 0.8430 0.6570
C53_3 C 0.5009(3) 0.9181(6) 0.6702(7)
H34_3 H 0.5255 0.9143 0.6967
C54_3 C 0.4860(4) 0.9666(5) 0.6545(6)
C55_3 C 0.4493(4) 0.9724(4) 0.6149(9)
C56_3 C 0.4274(3) 0.9297(5) 0.5912(9)
H36_3 H 0.4028 0.9336 0.5647
C80_3 C 0.8032(10) 0.8207(7) 0.2834(17)
H62_3 H 0.8194 0.7982 0.3174
H63_3 H 0.8097 0.8230 0.2547
H64_3 H 0.7795 0.8077 0.2616
N12_3 N 0.8173(2) 0.9813(3) 0.5287(4)
N17_3 N 0.8162(2) 0.9753(3) 0.4131(4)
O1_2 O 0.3911(4) 0.7309(7) 0.5513(8)
O7_2 O 0.3601(4) 0.7658(5) 0.4813(7)
Zn7_2 Zn 0.35056(4) 0.68816(5) 0.48842(6)
O17_2 O 0.8930(7) 0.9193(8) 0.5152(13)
O18_2 O 0.8495(5) 0.8981(10) 0.5084(19)
C57_4 C 0.2035(4) 0.5714(7) 0.1698(4)
C58_4 C 0.1877(4) 0.5642(6) 0.1008(6)
H37_4 H 0.1973 0.5427 0.0860
C59_4 C 0.1621(4) 0.5885(5) 0.0682(7)
H38_4 H 0.1530 0.6103 0.0835
O5_2 O 0.2265(4) 0.5507(5) 0.1941(6)
O6_2 O 0.1965(3) 0.6055(5) 0.1861(6)
Zn6_2 Zn 0.24173(3) 0.57070(5) 0.28089(5)
Zn1_4 Zn 0.29606(3) 0.57668(3) 0.44353(5)
Zn2_4 Zn 0.24155(4) 0.58443(5) 0.50171(6)
C1_4 C 0.2847(2) 0.4875(3) 0.5683(4)
C2_4 C 0.3096(2) 0.4597(4) 0.5666(4)
C3_4 C 0.3232(2) 0.4146(4) 0.6007(5)
H1_4 H 0.3399 0.3960 0.5996
C4_4 C 0.3119(3) 0.3974(3) 0.6365(5)
C5_4 C 0.2871(3) 0.4253(5) 0.6382(5)
H2_4 H 0.2795 0.4138 0.6621
C6_4 C 0.2734(2) 0.4703(4) 0.6041(5)
H3_4 H 0.2568 0.4890 0.6052
C7_4 C 0.3081(3) 0.4448(5) 0.3690(4)
C8_4 C 0.2835(3) 0.4705(3) 0.3133(6)
C9_4 C 0.2697(2) 0.4473(5) 0.2556(5)
H4_4 H 0.2533 0.4645 0.2183
C10_4 C 0.2806(3) 0.3984(5) 0.2536(5)
H5_4 H 0.2713 0.3829 0.2150
C11_4 C 0.3051(3) 0.3727(3) 0.3093(8)
C12_4 C 0.3189(3) 0.3959(5) 0.3670(6)
H6_4 H 0.3353 0.3788 0.4043
C13_4 C 0.3064(2) 0.7003(4) 0.3503(3)
C14_4 C 0.3168(2) 0.7465(4) 0.3401(5)
H7_4 H 0.3349 0.7654 0.3741
C15_4 C 0.3004(3) 0.7645(3) 0.2790(7)
C16_4 C 0.2734(3) 0.7363(5) 0.2282(4)
H8_4 H 0.2624 0.7484 0.1873
C17_4 C 0.2629(2) 0.6901(4) 0.2383(4)
H9_4 H 0.2449 0.6712 0.2043
C18_4 C 0.2794(2) 0.6721(3) 0.2994(5)
C19_4 C 0.18413(18) 0.5742(2) 0.3102(4)
C20_4 C 0.18530(17) 0.5773(2) 0.3643(3)
C21_4 C 0.1539(2) 0.5818(2) 0.3594(3)
H10_4 H 0.1547 0.5839 0.3956
C22_4 C 0.12141(18) 0.5833(3) 0.3004(4)
C23_4 C 0.12024(17) 0.5802(2) 0.2463(3)
H11_4 H 0.0985 0.5812 0.2068
C24_4 C 0.1516(2) 0.5757(2) 0.2512(3)
H12_4 H 0.1508 0.5736 0.2150
C25_4 C 0.30900(19) 0.7802(2) 0.6056(3)
H13_4 H 0.3180 0.8116 0.6249
C26_4 C 0.28328(19) 0.7562(3) 0.6084(3)
C27_4 C 0.26976(15) 0.7092(2) 0.5796(3)
H14_4 H 0.2526 0.6931 0.5815
C28_4 C 0.28196(17) 0.68605(19) 0.5479(3)
C29_4 C 0.30768(17) 0.7100(3) 0.5450(3)
C30_4 C 0.32120(16) 0.7571(3) 0.5739(3)
H15_4 H 0.3384 0.7731 0.5720
C31_4 C 0.4079(4) 0.5532(6) 0.5557(5)
C32_4 C 0.4080(4) 0.6061(6) 0.5521(5)
C33_4 C 0.4398(5) 0.6319(3) 0.5772(6)
H16_4 H 0.4399 0.6673 0.5748
C34_4 C 0.4715(4) 0.6049(7) 0.6059(6)
H17_4 H 0.4928 0.6223 0.6227
C35_4 C 0.4714(4) 0.5521(7) 0.6095(6)
C36_4 C 0.4396(5) 0.5262(3) 0.5844(6)
H18_4 H 0.4395 0.4909 0.5869
C37_4 C 0.2694(3) 0.7841(4) 0.6410(6)
H19_4 H 0.2819 0.8158 0.6578
H20_4 H 0.2732 0.7634 0.6746
H21_4 H 0.2445 0.7907 0.6110
C38_4 C 0.3235(6) 0.3508(6) 0.6767(9)
H22_4 H 0.3403 0.3322 0.6741
H23_4 H 0.3031 0.3297 0.6623
H24_4 H 0.3343 0.3606 0.7197
C39_4 C 0.2073(3) 0.5862(8) 0.5444(6)
C40_4 C 0.1830(3) 0.5963(6) 0.5646(6)
H25_4 H 0.1767 0.6305 0.5599
C41_4 C 0.1700(3) 0.5727(4) 0.5845(5)
H26_4 H 0.1765 0.5388 0.5869
C42_4 C 0.1475(3) 0.5757(5) 0.6070(5)
C43_4 C 0.1388(4) 0.5321(4) 0.6254(8)
H27_4 H 0.1474 0.5005 0.6241
C44_4 C 0.1171(5) 0.5357(4) 0.6457(8)
H28_4 H 0.1113 0.5065 0.6580
C45_4 C 0.1042(3) 0.5829(6) 0.6477(6)
C46_4 C 0.1129(4) 0.6265(4) 0.6293(7)
H29_4 H 0.1043 0.6581 0.6307
C47_4 C 0.1345(3) 0.6229(4) 0.6090(6)
H30_4 H 0.1404 0.6521 0.5967
C53_4 C 0.0009(3) 0.4181(6) 0.6702(7)
H34_4 H 0.0255 0.4143 0.6967
C60_4 C 0.1450(3) 0.5813(4) 0.9978(4)
C61_4 C 0.1519(2) 0.5444(3) 0.9683(5)
H39_4 H 0.1715 0.5231 0.9921
C62_4 C 0.1296(3) 0.5395(3) 0.9030(5)
H40_4 H 0.1342 0.5148 0.8833
C63_4 C 0.1003(3) 0.5714(5) 0.8674(4)
C64_4 C 0.0934(3) 0.6083(5) 0.8970(7)
H41_4 H 0.0738 0.6297 0.8731
C65_4 C 0.1157(4) 0.6133(4) 0.9622(7)
H42_4 H 0.1111 0.6379 0.9819
C66_4 C 0.0637(4) 0.5970(6) 0.7703(5)
H43_4 H 0.0785 0.6264 0.7782
H44_4 H 0.0474 0.6057 0.7807
C67_4 C 0.0706(4) 0.5673(7) 0.6893(9)
H45_4 H 0.0920 0.5562 0.7289
H46_4 H 0.0614 0.5381 0.6614
C68_4 C 0.0436(2) 0.5803(3) 0.7025(4)
C69_4 C 0.0260(5) 0.5291(5) 0.6912(9)
H47_4 H 0.0336 0.5091 0.6699
H48_4 H 0.0377 0.5141 0.7327
C70_4 C 0.0206(4) 0.6266(5) 0.6642(6)
H49_4 H 0.0345 0.6501 0.6582
H50_4 H 0.0004 0.6155 0.6231
C78_4 C 0.0891(5) 0.5835(8) 0.3004(14)
H56_4 H 0.0963 0.5860 0.3429
H57_4 H 0.0759 0.5525 0.2817
H58_4 H 0.0743 0.6121 0.2765
C79_4 C 0.5055(7) 0.5240(15) 0.6363(17)
H59_4 H 0.5014 0.4880 0.6357
H60_4 H 0.5228 0.5348 0.6790
H61_4 H 0.5141 0.5310 0.6115
C80_4 C 0.3032(10) 0.3207(7) 0.2834(17)
H62_4 H 0.3194 0.2982 0.3174
H63_4 H 0.3097 0.3230 0.2547
H64_4 H 0.2795 0.3077 0.2616
C81_4 C 0.3006(11) 0.8089(10) 0.2433(18)
H65_4 H 0.3181 0.8331 0.2724
H66_4 H 0.2776 0.8247 0.2193
H67_4 H 0.3062 0.7972 0.2153
N1_4 N 0.2750(2) 0.6304(3) 0.3217(4)
N2_4 N 0.29591(19) 0.6309(3) 0.3810(3)
N3_4 N 0.3151(2) 0.6741(3) 0.3979(4)
N4_4 N 0.3201(2) 0.6825(3) 0.5128(4)
N5_4 N 0.29624(19) 0.6419(2) 0.4988(3)
N6_4 N 0.2750(2) 0.5270(3) 0.5278(4)
N7_4 N 0.2964(2) 0.5223(3) 0.5071(3)
N8_4 N 0.2172(2) 0.5767(2) 0.4085(3)
N9_4 N 0.23760(19) 0.5749(2) 0.3861(3)
N10_4 N 0.21834(19) 0.5730(2) 0.3284(3)
N11_4 N 0.27369(19) 0.6411(2) 0.5164(3)
N12_4 N 0.3173(2) 0.4813(3) 0.5287(4)
N13_4 N 0.3742(3) 0.5351(3) 0.5197(4)
N14_4 N 0.3539(2) 0.5778(3) 0.5004(3)
N15_4 N 0.3737(3) 0.6200(3) 0.5158(4)
N16_4 N 0.2758(2) 0.5148(3) 0.3287(4)
N17_4 N 0.3162(2) 0.4753(3) 0.4131(4)
N18_4 N 0.2952(2) 0.5145(3) 0.3871(4)
O2_4 O 0.2098(3) 0.5528(6) 0.5362(6)
O3_4 O 0.0815(3) 0.5614(4) 0.8003(5)
O4_4 O 0.0017(4) 0.5213(5) 0.6701(7)
O8_4 O 0.2172(5) 0.6207(8) 0.5359(8)
O9_4 O 0.0112(5) 0.6461(7) 0.6896(8)
O10_4 O 0.0786(3) 0.5951(5) 0.6693(6)
C48_4 C 0.8869(6) 0.2623(7) 0.5310(12)
C49_4 C 0.9059(5) 0.3118(6) 0.5387(10)
H31_4 H 0.9021 0.3262 0.5027
C50_4 C 0.9250(4) 0.3332(6) 0.5863(7)
H32_4 H 0.9302 0.3134 0.6202
C51_4 C 0.9423(4) 0.3812(4) 0.6069(6)
C52_4 C 0.9791(4) 0.3754(4) 0.6464(7)
H33_4 H 0.9890 0.3430 0.6570
C54_4 C 0.9860(4) 0.4666(5) 0.6545(6)
C55_4 C 0.9493(4) 0.4724(4) 0.6149(9)
H35_4 H 0.9393 0.5049 0.6044
C56_4 C 0.9274(3) 0.4297(5) 0.5912(9)
H36_4 H 0.9028 0.4336 0.5647
C71_4 C 0.9855(3) 0.6898(4) 0.6468(10)
C72_4 C 0.9821(4) 0.7188(7) 0.6874(6)
H51_4 H 0.9939 0.7090 0.7293
C73_4 C 0.9612(4) 0.7625(6) 0.6654(6)
H52_4 H 0.9589 0.7820 0.6925
C74_4 C 0.9436(3) 0.7772(4) 0.6028(6)
C75_4 C 0.9470(4) 0.7481(5) 0.5622(6)
H53_4 H 0.9353 0.7579 0.5204
C76_4 C 0.9679(4) 0.7044(5) 0.5843(9)
H54_4 H 0.9702 0.6850 0.5571
C77_4 C 0.9219(4) 0.8265(5) 0.5788(7)
H55_4 H 0.9377 0.8538 0.5934
C82_4 C 0.8930(4) 0.8429(6) 0.5490(16)
H68_4 H 0.8747 0.8191 0.5284
C83_4 C 0.8815(4) 0.8984(5) 0.5397(6)
H59_5 H 0.0014 0.0120 0.1357
C79_5 C 0.0055(7) 0.9760(15) 0.1363(17)
H60_5 H 0.0228 0.9652 0.1790
H61_5 H 0.0141 0.9690 0.1115
Zn5_3 Zn 0.85033(4) 0.03308(5) 0.00334(8)
C1_5 C 0.7847(2) 0.0125(3) 0.0683(4)
C2_5 C 0.8096(2) 0.0403(4) 0.0666(4)
C3_5 C 0.8232(2) 0.0854(4) 0.1007(5)
H1_5 H 0.8399 0.1040 0.0996
C4_5 C 0.8119(3) 0.1026(3) 0.1365(5)
C5_5 C 0.7871(3) 0.0747(5) 0.1382(5)
H2_5 H 0.7795 0.0862 0.1621
C6_5 C 0.7734(2) 0.0297(4) 0.1041(5)
H3_5 H 0.7568 0.0110 0.1052
H18_5 H 0.9395 0.0091 0.0869
C38_5 C 0.8235(6) 0.1492(6) 0.1767(9)
H22_5 H 0.8403 0.1678 0.1741
H23_5 H 0.8031 0.1703 0.1623
H24_5 H 0.8343 0.1394 0.2197
C48_5 C 0.3869(6) 0.2377(7) 0.0310(12)
C49_5 C 0.4059(5) 0.1882(6) 0.0387(10)
H31_5 H 0.4021 0.1738 0.0027
C50_5 C 0.4250(4) 0.1668(6) 0.0863(7)
H32_5 H 0.4302 0.1866 0.1202
C51_5 C 0.4423(4) 0.1188(4) 0.1069(6)
C52_5 C 0.4791(4) 0.1246(4) 0.1464(7)
H33_5 H 0.4890 0.1570 0.1570
C53_5 C 0.5009(3) 0.0819(6) 0.1702(7)
H34_5 H 0.5255 0.0857 0.1967
C54_5 C 0.4860(4) 0.0334(5) 0.1545(6)
C55_5 C 0.4493(4) 0.0276(4) 0.1149(9)
C56_5 C 0.4274(3) 0.0703(5) 0.0912(9)
H36_5 H 0.4028 0.0664 0.0647
N12_5 N 0.8173(2) 0.0187(3) 0.0287(4)
O1_3 O 0.3911(4) 0.2691(7) 0.0513(8)
O17_3 O 0.8930(7) 0.0807(8) 0.0152(13)
O18_3 O 0.8495(5) 0.1019(10) 0.0084(19)
C7_5 C 0.8081(3) 0.0552(5) 0.8690(4)
C8_5 C 0.7835(3) 0.0295(3) 0.8133(6)
C9_5 C 0.7697(2) 0.0527(5) 0.7556(5)
H4_5 H 0.7533 0.0355 0.7183
C10_5 C 0.7806(3) 0.1016(5) 0.7536(5)
H5_5 H 0.7713 0.1171 0.7150
C11_5 C 0.8051(3) 0.1273(3) 0.8093(8)
C12_5 C 0.8189(3) 0.1041(5) 0.8670(6)
H6_5 H 0.8353 0.1212 0.9043
C80_5 C 0.8032(10) 0.1793(7) 0.7834(17)
H62_5 H 0.8194 0.2018 0.8174
H63_5 H 0.8097 0.1770 0.7547
H64_5 H 0.7795 0.1923 0.7616
N17_5 N 0.8162(2) 0.0247(3) 0.9131(4)
O7_3 O 0.3601(4) 0.2342(5) 0.9813(7)
Zn7_3 Zn 0.35056(4) 0.31184(5) 0.98842(6)
Zn2_5 Zn 0.74155(4) 0.91557(5) 0.00171(6)
C25_5 C 0.80900(19) 0.7198(2) 0.1056(3)
H13_5 H 0.8180 0.6884 0.1249
C26_5 C 0.78328(19) 0.7438(3) 0.1084(3)
C27_5 C 0.76976(15) 0.7908(2) 0.0796(3)
H14_5 H 0.7526 0.8069 0.0815
C28_5 C 0.78196(17) 0.81395(19) 0.0479(3)
C29_5 C 0.80768(17) 0.7900(3) 0.0450(3)
C30_5 C 0.82120(16) 0.7429(3) 0.0739(3)
H15_5 H 0.8384 0.7269 0.0720
C31_5 C 0.9079(4) 0.9468(6) 0.0557(5)
C32_5 C 0.9080(4) 0.8939(6) 0.0521(5)
C33_5 C 0.9398(5) 0.8681(3) 0.0772(6)
H16_5 H 0.9399 0.8327 0.0748
C34_5 C 0.9715(4) 0.8951(7) 0.1059(6)
H17_5 H 0.9928 0.8777 0.1227
C35_5 C 0.9714(4) 0.9479(7) 0.1095(6)
C36_5 C 0.9396(5) 0.9738(3) 0.0844(6)
C37_5 C 0.7694(3) 0.7159(4) 0.1410(6)
H19_5 H 0.7819 0.6842 0.1578
H20_5 H 0.7732 0.7366 0.1746
H21_5 H 0.7445 0.7093 0.1110
C39_5 C 0.7073(3) 0.9138(8) 0.0444(6)
C40_5 C 0.6830(3) 0.9037(6) 0.0646(6)
H25_5 H 0.6767 0.8695 0.0599
C41_5 C 0.6700(3) 0.9273(4) 0.0845(5)
H26_5 H 0.6765 0.9612 0.0869
C42_5 C 0.6475(3) 0.9243(5) 0.1070(5)
C43_5 C 0.6388(4) 0.9679(4) 0.1254(8)
H27_5 H 0.6474 0.9995 0.1241
C44_5 C 0.6171(5) 0.9643(4) 0.1457(8)
H28_5 H 0.6113 0.9935 0.1580
C45_5 C 0.6042(3) 0.9171(6) 0.1477(6)
C46_5 C 0.6129(4) 0.8735(4) 0.1293(7)
H29_5 H 0.6043 0.8419 0.1307
C47_5 C 0.6345(3) 0.8771(4) 0.1090(6)
H30_5 H 0.6404 0.8479 0.0967
H35_5 H 0.4393 0.9951 0.1044
C57_5 C 0.7035(4) 0.9286(7) 0.6698(4)
C58_5 C 0.6877(4) 0.9358(6) 0.6008(6)
H37_5 H 0.6973 0.9573 0.5860
C59_5 C 0.6621(4) 0.9115(5) 0.5682(7)
H38_5 H 0.6530 0.8897 0.5835
C60_5 C 0.6450(3) 0.9187(4) 0.4978(4)
C61_5 C 0.6519(2) 0.9556(3) 0.4683(5)
H39_5 H 0.6715 0.9769 0.4921
C62_5 C 0.6296(3) 0.9605(3) 0.4030(5)
H40_5 H 0.6342 0.9852 0.3833
C63_5 C 0.6003(3) 0.9286(5) 0.3674(4)
C64_5 C 0.5934(3) 0.8917(5) 0.3970(7)
H41_5 H 0.5738 0.8703 0.3731
C65_5 C 0.6157(4) 0.8867(4) 0.4622(7)
H42_5 H 0.6111 0.8621 0.4819
C66_5 C 0.5637(4) 0.9030(6) 0.2703(5)
H43_5 H 0.5785 0.8736 0.2782
H44_5 H 0.5474 0.8943 0.2807
C67_5 C 0.5706(4) 0.9327(7) 0.1893(9)
H45_5 H 0.5920 0.9438 0.2289
H46_5 H 0.5614 0.9619 0.1614
C68_5 C 0.5436(2) 0.9197(3) 0.2025(4)
C69_5 C 0.5260(5) 0.9709(5) 0.1912(9)
H47_5 H 0.5336 0.9909 0.1699
H48_5 H 0.5377 0.9859 0.2327
C70_5 C 0.5206(4) 0.8734(5) 0.1642(6)
H49_5 H 0.5345 0.8499 0.1582
H50_5 H 0.5004 0.8845 0.1231
C71_5 C 0.4855(3) 0.8102(4) 0.1468(10)
C72_5 C 0.4821(4) 0.7812(7) 0.1874(6)
H51_5 H 0.4939 0.7910 0.2293
C73_5 C 0.4612(4) 0.7375(6) 0.1654(6)
H52_5 H 0.4589 0.7180 0.1925
C74_5 C 0.4436(3) 0.7228(4) 0.1028(6)
C75_5 C 0.4470(4) 0.7519(5) 0.0622(6)
H53_5 H 0.4353 0.7421 0.0204
C76_5 C 0.4679(4) 0.7956(5) 0.0843(9)
H54_5 H 0.4702 0.8150 0.0571
C77_5 C 0.4219(4) 0.6735(5) 0.0788(7)
H55_5 H 0.4377 0.6462 0.0934
N4_5 N 0.8201(2) 0.8175(3) 0.0128(4)
N6_5 N 0.7750(2) 0.9730(3) 0.0278(4)
N7_5 N 0.7964(2) 0.9777(3) 0.0071(3)
N11_5 N 0.77369(19) 0.8589(2) 0.0164(3)
N13_5 N 0.8742(3) 0.9649(3) 0.0197(4)
N14_5 N 0.8539(2) 0.9222(3) 0.0004(3)
N15_5 N 0.8737(3) 0.8800(3) 0.0158(4)
O2_5 O 0.7098(3) 0.9472(6) 0.0362(6)
O3_5 O 0.5815(3) 0.9386(4) 0.3003(5)
O4_5 O 0.5017(4) 0.9787(5) 0.1701(7)
O5_3 O 0.7265(4) 0.9493(5) 0.6941(6)
O6_3 O 0.6965(3) 0.8945(5) 0.6861(6)
O8_5 O 0.7172(5) 0.8793(8) 0.0359(8)
O9_5 O 0.5112(5) 0.8539(7) 0.1896(8)
O10_5 O 0.5786(3) 0.9049(5) 0.1693(6)
C82_5 C 0.3930(4) 0.6571(6) 0.0490(16)
H68_5 H 0.3747 0.6809 0.0284
C83_5 C 0.3815(4) 0.6016(5) 0.0397(6)
O11_3 O 0.3930(7) 0.5807(8) 0.0152(13)
O12_3 O 0.3495(5) 0.6019(10) 0.0084(19)
Zn6_3 Zn 0.74173(3) 0.92930(5) 0.78089(5)
Zn8_3 Zn 0.35033(4) 0.53308(5) 0.00334(8)
O13_3 O 0.8911(4) 0.7691(7) 0.0513(8)
Zn1_5 Zn 0.79606(3) 0.92332(3) 0.94353(5)
Zn4_3 Zn 0.85056(4) 0.81184(5) 0.98842(6)
C13_5 C 0.8064(2) 0.7997(4) 0.8503(3)
C14_5 C 0.8168(2) 0.7535(4) 0.8401(5)
H7_5 H 0.8349 0.7346 0.8741
C15_5 C 0.8004(3) 0.7355(3) 0.7790(7)
C16_5 C 0.7734(3) 0.7637(5) 0.7282(4)
H8_5 H 0.7624 0.7516 0.6873
C17_5 C 0.7629(2) 0.8099(4) 0.7383(4)
H9_5 H 0.7449 0.8288 0.7043
C18_5 C 0.7794(2) 0.8279(3) 0.7994(5)
C19_5 C 0.68413(18) 0.9258(2) 0.8102(4)
C20_5 C 0.68530(17) 0.9227(2) 0.8643(3)
C21_5 C 0.6539(2) 0.9182(2) 0.8594(3)
H10_5 H 0.6547 0.9161 0.8956
C22_5 C 0.62141(18) 0.9167(3) 0.8004(4)
C23_5 C 0.62024(17) 0.9198(2) 0.7463(3)
H11_5 H 0.5985 0.9188 0.7068
C24_5 C 0.6516(2) 0.9243(2) 0.7512(3)
H12_5 H 0.6508 0.9264 0.7150
C78_5 C 0.5891(5) 0.9165(8) 0.8004(14)
H56_5 H 0.5963 0.9140 0.8429
H57_5 H 0.5759 0.9475 0.7817
H58_5 H 0.5743 0.8879 0.7765
C81_5 C 0.8006(11) 0.6911(10) 0.7433(18)
H65_5 H 0.8181 0.6669 0.7724
H66_5 H 0.7776 0.6753 0.7193
H67_5 H 0.8062 0.7028 0.7153
N1_5 N 0.7750(2) 0.8696(3) 0.8217(4)
N2_5 N 0.79591(19) 0.8691(3) 0.8810(3)
N3_5 N 0.8151(2) 0.8259(3) 0.8979(4)
N5_5 N 0.79624(19) 0.8581(2) 0.9988(3)
N8_5 N 0.7172(2) 0.9233(2) 0.9085(3)
N9_5 N 0.73760(19) 0.9251(2) 0.8861(3)
N10_5 N 0.71834(19) 0.9270(2) 0.8284(3)
N16_5 N 0.7758(2) 0.9852(3) 0.8287(4)
N18_5 N 0.7952(2) 0.9855(3) 0.8871(4)
O16_3 O 0.8601(4) 0.7342(5) 0.9813(7)
Zn2_6 Zn 0.24155(4) 0.41557(5) 0.00171(6)
C1_6 C 0.2847(2) 0.5125(3) 0.0683(4)
C2_6 C 0.3096(2) 0.5403(4) 0.0666(4)
C3_6 C 0.3232(2) 0.5854(4) 0.1007(5)
H1_6 H 0.3399 0.6040 0.0996
C4_6 C 0.3119(3) 0.6026(3) 0.1365(5)
C5_6 C 0.2871(3) 0.5747(5) 0.1382(5)
H2_6 H 0.2795 0.5862 0.1621
C6_6 C 0.2734(2) 0.5297(4) 0.1041(5)
H3_6 H 0.2568 0.5110 0.1052
C25_6 C 0.30900(19) 0.2198(2) 0.1056(3)
H13_6 H 0.3180 0.1884 0.1249
C26_6 C 0.28328(19) 0.2438(3) 0.1084(3)
C27_6 C 0.26976(15) 0.2908(2) 0.0796(3)
H14_6 H 0.2526 0.3069 0.0815
C28_6 C 0.28196(17) 0.31395(19) 0.0479(3)
C29_6 C 0.30768(17) 0.2900(3) 0.0450(3)
C30_6 C 0.32120(16) 0.2429(3) 0.0739(3)
H15_6 H 0.3384 0.2269 0.0720
C31_6 C 0.4079(4) 0.4468(6) 0.0557(5)
C32_6 C 0.4080(4) 0.3939(6) 0.0521(5)
C33_6 C 0.4398(5) 0.3681(3) 0.0772(6)
H16_6 H 0.4399 0.3327 0.0748
C34_6 C 0.4715(4) 0.3951(7) 0.1059(6)
H17_6 H 0.4928 0.3777 0.1227
C35_6 C 0.4714(4) 0.4479(7) 0.1095(6)
C36_6 C 0.4396(5) 0.4738(3) 0.0844(6)
H18_6 H 0.4395 0.5091 0.0869
C37_6 C 0.2694(3) 0.2159(4) 0.1410(6)
H19_6 H 0.2819 0.1842 0.1578
H20_6 H 0.2732 0.2366 0.1746
H21_6 H 0.2445 0.2093 0.1110
C38_6 C 0.3235(6) 0.6492(6) 0.1767(9)
H22_6 H 0.3403 0.6678 0.1741
H23_6 H 0.3031 0.6703 0.1623
H24_6 H 0.3343 0.6394 0.2197
C39_6 C 0.2073(3) 0.4138(8) 0.0444(6)
C40_6 C 0.1830(3) 0.4037(6) 0.0646(6)
H25_6 H 0.1767 0.3695 0.0599
C41_6 C 0.1700(3) 0.4273(4) 0.0845(5)
H26_6 H 0.1765 0.4612 0.0869
C42_6 C 0.1475(3) 0.4243(5) 0.1070(5)
C43_6 C 0.1388(4) 0.4679(4) 0.1254(8)
H27_6 H 0.1474 0.4995 0.1241
C44_6 C 0.1171(5) 0.4643(4) 0.1457(8)
H28_6 H 0.1113 0.4935 0.1580
C45_6 C 0.1042(3) 0.4171(6) 0.1477(6)
C46_6 C 0.1129(4) 0.3735(4) 0.1293(7)
H29_6 H 0.1043 0.3419 0.1307
C47_6 C 0.1345(3) 0.3771(4) 0.1090(6)
H30_6 H 0.1404 0.3479 0.0967
C53_6 C 0.0009(3) 0.5819(6) 0.1702(7)
H34_6 H 0.0255 0.5857 0.1967
C57_6 C 0.2035(4) 0.4286(7) 0.6698(4)
C58_6 C 0.1877(4) 0.4358(6) 0.6008(6)
H37_6 H 0.1973 0.4573 0.5860
C59_6 C 0.1621(4) 0.4115(5) 0.5682(7)
H38_6 H 0.1530 0.3897 0.5835
C60_6 C 0.1450(3) 0.4187(4) 0.4978(4)
C61_6 C 0.1519(2) 0.4556(3) 0.4683(5)
H39_6 H 0.1715 0.4769 0.4921
C62_6 C 0.1296(3) 0.4605(3) 0.4030(5)
H40_6 H 0.1342 0.4852 0.3833
C63_6 C 0.1003(3) 0.4286(5) 0.3674(4)
C64_6 C 0.0934(3) 0.3917(5) 0.3970(7)
H41_6 H 0.0738 0.3703 0.3731
C65_6 C 0.1157(4) 0.3867(4) 0.4622(7)
H42_6 H 0.1111 0.3621 0.4819
C66_6 C 0.0637(4) 0.4030(6) 0.2703(5)
H43_6 H 0.0785 0.3736 0.2782
H44_6 H 0.0474 0.3943 0.2807
C67_6 C 0.0706(4) 0.4327(7) 0.1893(9)
H45_6 H 0.0920 0.4438 0.2289
H46_6 H 0.0614 0.4619 0.1614
C68_6 C 0.0436(2) 0.4197(3) 0.2025(4)
C69_6 C 0.0260(5) 0.4709(5) 0.1912(9)
H47_6 H 0.0336 0.4909 0.1699
H48_6 H 0.0377 0.4859 0.2327
C70_6 C 0.0206(4) 0.3734(5) 0.1642(6)
H49_6 H 0.0345 0.3499 0.1582
H50_6 H 0.0004 0.3845 0.1231
C79_6 C 0.5055(7) 0.4760(15) 0.1363(17)
H59_6 H 0.5014 0.5120 0.1357
H60_6 H 0.5228 0.4652 0.1790
H61_6 H 0.5141 0.4690 0.1115
N4_6 N 0.3201(2) 0.3175(3) 0.0128(4)
N6_6 N 0.2750(2) 0.4730(3) 0.0278(4)
N7_6 N 0.2964(2) 0.4777(3) 0.0071(3)
N11_6 N 0.27369(19) 0.3589(2) 0.0164(3)
N12_6 N 0.3173(2) 0.5187(3) 0.0287(4)
N13_6 N 0.3742(3) 0.4649(3) 0.0197(4)
N14_6 N 0.3539(2) 0.4222(3) 0.0004(3)
N15_6 N 0.3737(3) 0.3800(3) 0.0158(4)
O2_6 O 0.2098(3) 0.4472(6) 0.0362(6)
O3_6 O 0.0815(3) 0.4386(4) 0.3003(5)
O4_6 O 0.0017(4) 0.4787(5) 0.1701(7)
O5_4 O 0.2265(4) 0.4493(5) 0.6941(6)
O6_4 O 0.1965(3) 0.3945(5) 0.6861(6)
O8_6 O 0.2172(5) 0.3793(8) 0.0359(8)
O9_6 O 0.0112(5) 0.3539(7) 0.1896(8)
O10_6 O 0.0786(3) 0.4049(5) 0.1693(6)
Zn6_4 Zn 0.24173(3) 0.42930(5) 0.78089(5)
Zn1_6 Zn 0.29606(3) 0.42332(3) 0.94353(5)
C7_6 C 0.3081(3) 0.5552(5) 0.8690(4)
C8_6 C 0.2835(3) 0.5295(3) 0.8133(6)
C9_6 C 0.2697(2) 0.5527(5) 0.7556(5)
H4_6 H 0.2533 0.5355 0.7183
C10_6 C 0.2806(3) 0.6016(5) 0.7536(5)
H5_6 H 0.2713 0.6171 0.7150
C11_6 C 0.3051(3) 0.6273(3) 0.8093(8)
C12_6 C 0.3189(3) 0.6041(5) 0.8670(6)
H6_6 H 0.3353 0.6212 0.9043
C13_6 C 0.3064(2) 0.2997(4) 0.8503(3)
C14_6 C 0.3168(2) 0.2535(4) 0.8401(5)
H7_6 H 0.3349 0.2346 0.8741
C15_6 C 0.3004(3) 0.2355(3) 0.7790(7)
C16_6 C 0.2734(3) 0.2637(5) 0.7282(4)
H8_6 H 0.2624 0.2516 0.6873
C17_6 C 0.2629(2) 0.3099(4) 0.7383(4)
H9_6 H 0.2449 0.3288 0.7043
C18_6 C 0.2794(2) 0.3279(3) 0.7994(5)
C19_6 C 0.18413(18) 0.4258(2) 0.8102(4)
C20_6 C 0.18530(17) 0.4227(2) 0.8643(3)
C21_6 C 0.1539(2) 0.4182(2) 0.8594(3)
H10_6 H 0.1547 0.4161 0.8956
C22_6 C 0.12141(18) 0.4167(3) 0.8004(4)
C23_6 C 0.12024(17) 0.4198(2) 0.7463(3)
H11_6 H 0.0985 0.4188 0.7068
C24_6 C 0.1516(2) 0.4243(2) 0.7512(3)
H12_6 H 0.1508 0.4264 0.7150
C78_6 C 0.0891(5) 0.4165(8) 0.8004(14)
H56_6 H 0.0963 0.4140 0.8429
H57_6 H 0.0759 0.4475 0.7817
H58_6 H 0.0743 0.3879 0.7765
C80_6 C 0.3032(10) 0.6793(7) 0.7834(17)
H62_6 H 0.3194 0.7018 0.8174
H63_6 H 0.3097 0.6770 0.7547
H64_6 H 0.2795 0.6923 0.7616
C81_6 C 0.3006(11) 0.1911(10) 0.7433(18)
H65_6 H 0.3181 0.1669 0.7724
H66_6 H 0.2776 0.1753 0.7193
H67_6 H 0.3062 0.2028 0.7153
N1_6 N 0.2750(2) 0.3696(3) 0.8217(4)
N2_6 N 0.29591(19) 0.3691(3) 0.8810(3)
N3_6 N 0.3151(2) 0.3259(3) 0.8979(4)
N5_6 N 0.29624(19) 0.3581(2) 0.9988(3)
N8_6 N 0.2172(2) 0.4233(2) 0.9085(3)
N9_6 N 0.23760(19) 0.4251(2) 0.8861(3)
N10_6 N 0.21834(19) 0.4270(2) 0.8284(3)
N16_6 N 0.2758(2) 0.4852(3) 0.8287(4)
N17_6 N 0.3162(2) 0.5247(3) 0.9131(4)
N18_6 N 0.2952(2) 0.4855(3) 0.8871(4)
C48_6 C 0.8869(6) 0.7377(7) 0.0310(12)
C49_6 C 0.9059(5) 0.6882(6) 0.0387(10)
H31_6 H 0.9021 0.6738 0.0027
C50_6 C 0.9250(4) 0.6668(6) 0.0863(7)
H32_6 H 0.9302 0.6866 0.1202
C51_6 C 0.9423(4) 0.6188(4) 0.1069(6)
C52_6 C 0.9791(4) 0.6246(4) 0.1464(7)
H33_6 H 0.9890 0.6570 0.1570
C54_6 C 0.9860(4) 0.5334(5) 0.1545(6)
C55_6 C 0.9493(4) 0.5276(4) 0.1149(9)
H35_6 H 0.9393 0.4951 0.1044
C56_6 C 0.9274(3) 0.5703(5) 0.0912(9)
H36_6 H 0.9028 0.5664 0.0647
C71_6 C 0.9855(3) 0.3102(4) 0.1468(10)
C72_6 C 0.9821(4) 0.2812(7) 0.1874(6)
H51_6 H 0.9939 0.2910 0.2293
C73_6 C 0.9612(4) 0.2375(6) 0.1654(6)
H52_6 H 0.9589 0.2180 0.1925
C74_6 C 0.9436(3) 0.2228(4) 0.1028(6)
C75_6 C 0.9470(4) 0.2519(5) 0.0622(6)
H53_6 H 0.9353 0.2421 0.0204
C76_6 C 0.9679(4) 0.2956(5) 0.0843(9)
H54_6 H 0.9702 0.3150 0.0571
C77_6 C 0.9219(4) 0.1735(5) 0.0788(7)
H55_6 H 0.9377 0.1462 0.0934
C82_6 C 0.8930(4) 0.1571(6) 0.0490(16)
H68_6 H 0.8747 0.1809 0.0284
C83_6 C 0.8815(4) 0.1016(5) 0.0397(6)
Zn5_4 Zn 0.14967(4) 0.03308(5) 0.49666(8)
C1_7 C 0.2153(2) 0.0125(3) 0.4317(4)
C2_7 C 0.1904(2) 0.0403(4) 0.4334(4)
C3_7 C 0.1768(2) 0.0854(4) 0.3993(5)
H1_7 H 0.1601 0.1040 0.4004
C4_7 C 0.1881(3) 0.1026(3) 0.3635(5)
C5_7 C 0.2129(3) 0.0747(5) 0.3618(5)
H2_7 H 0.2205 0.0862 0.3379
C6_7 C 0.2266(2) 0.0297(4) 0.3959(5)
H3_7 H 0.2432 0.0110 0.3948
C7_7 C 0.1919(3) 0.0552(5) 0.6310(4)
C8_7 C 0.2165(3) 0.0295(3) 0.6867(6)
C9_7 C 0.2303(2) 0.0527(5) 0.7444(5)
H4_7 H 0.2467 0.0355 0.7817
C10_7 C 0.2194(3) 0.1016(5) 0.7464(5)
H5_7 H 0.2287 0.1171 0.7850
C11_7 C 0.1949(3) 0.1273(3) 0.6907(8)
C12_7 C 0.1811(3) 0.1041(5) 0.6330(6)
H6_7 H 0.1647 0.1212 0.5957
H18_7 H 0.0605 0.0091 0.4131
C38_7 C 0.1765(6) 0.1492(6) 0.3233(9)
H22_7 H 0.1597 0.1678 0.3259
H23_7 H 0.1969 0.1703 0.3377
H24_7 H 0.1657 0.1394 0.2803
C48_7 C 0.6131(6) 0.2377(7) 0.4690(12)
C49_7 C 0.5941(5) 0.1882(6) 0.4613(10)
H31_7 H 0.5979 0.1738 0.4973
C50_7 C 0.5750(4) 0.1668(6) 0.4137(7)
H32_7 H 0.5698 0.1866 0.3798
C51_7 C 0.5577(4) 0.1188(4) 0.3931(6)
C52_7 C 0.5209(4) 0.1246(4) 0.3536(7)
H33_7 H 0.5110 0.1570 0.3430
C53_7 C 0.4991(3) 0.0819(6) 0.3298(7)
H34_7 H 0.4745 0.0857 0.3033
C54_7 C 0.5140(4) 0.0334(5) 0.3455(6)
C55_7 C 0.5507(4) 0.0276(4) 0.3851(9)
C56_7 C 0.5726(3) 0.0703(5) 0.4088(9)
H36_7 H 0.5972 0.0664 0.4353
C80_7 C 0.1968(10) 0.1793(7) 0.7166(17)
H62_7 H 0.1806 0.2018 0.6826
H63_7 H 0.1903 0.1770 0.7453
H64_7 H 0.2205 0.1923 0.7384
N12_7 N 0.1827(2) 0.0187(3) 0.4713(4)
N17_7 N 0.1838(2) 0.0247(3) 0.5869(4)
O1_4 O 0.6089(4) 0.2691(7) 0.4487(8)
O7_4 O 0.6399(4) 0.2342(5) 0.5187(7)
Zn7_4 Zn 0.64944(4) 0.31184(5) 0.51158(6)
O17_4 O 0.1070(7) 0.0807(8) 0.4848(13)
O18_4 O 0.1505(5) 0.1019(10) 0.4916(19)
Zn1_7 Zn 0.20394(3) 0.92332(3) 0.55647(5)
Zn2_7 Zn 0.25845(4) 0.91557(5) 0.49829(6)
Zn3_3 Zn 0.25827(3) 0.92930(5) 0.71911(5)
Zn4_4 Zn 0.14944(4) 0.81184(5) 0.51158(6)
C13_7 C 0.1936(2) 0.7997(4) 0.6497(3)
C14_7 C 0.1832(2) 0.7535(4) 0.6599(5)
H7_7 H 0.1651 0.7346 0.6259
C15_7 C 0.1996(3) 0.7355(3) 0.7210(7)
C16_7 C 0.2266(3) 0.7637(5) 0.7718(4)
H8_7 H 0.2376 0.7516 0.8127
C17_7 C 0.2371(2) 0.8099(4) 0.7617(4)
H9_7 H 0.2551 0.8288 0.7957
C18_7 C 0.2206(2) 0.8279(3) 0.7006(5)
C19_7 C 0.31587(18) 0.9258(2) 0.6898(4)
C20_7 C 0.31470(17) 0.9227(2) 0.6357(3)
C21_7 C 0.3461(2) 0.9182(2) 0.6406(3)
H10_7 H 0.3453 0.9161 0.6044
C22_7 C 0.37859(18) 0.9167(3) 0.6996(4)
C23_7 C 0.37976(17) 0.9198(2) 0.7537(3)
H11_7 H 0.4015 0.9188 0.7932
C24_7 C 0.3484(2) 0.9243(2) 0.7488(3)
H12_7 H 0.3492 0.9264 0.7850
C25_7 C 0.19100(19) 0.7198(2) 0.3944(3)
H13_7 H 0.1820 0.6884 0.3751
C26_7 C 0.21672(19) 0.7438(3) 0.3916(3)
C27_7 C 0.23024(15) 0.7908(2) 0.4204(3)
H14_7 H 0.2474 0.8069 0.4185
C28_7 C 0.21804(17) 0.81395(19) 0.4521(3)
C29_7 C 0.19232(17) 0.7900(3) 0.4550(3)
C30_7 C 0.17880(16) 0.7429(3) 0.4261(3)
H15_7 H 0.1616 0.7269 0.4280
C31_7 C 0.0921(4) 0.9468(6) 0.4443(5)
C32_7 C 0.0920(4) 0.8939(6) 0.4479(5)
C33_7 C 0.0602(5) 0.8681(3) 0.4228(6)
H16_7 H 0.0601 0.8327 0.4252
C34_7 C 0.0285(4) 0.8951(7) 0.3941(6)
H17_7 H 0.0072 0.8777 0.3773
C35_7 C 0.0286(4) 0.9479(7) 0.3905(6)
C36_7 C 0.0604(5) 0.9738(3) 0.4156(6)
C37_7 C 0.2306(3) 0.7159(4) 0.3590(6)
H19_7 H 0.2181 0.6842 0.3422
H20_7 H 0.2268 0.7366 0.3254
H21_7 H 0.2555 0.7093 0.3890
C39_7 C 0.2927(3) 0.9138(8) 0.4556(6)
C40_7 C 0.3170(3) 0.9037(6) 0.4354(6)
H25_7 H 0.3233 0.8695 0.4401
C41_7 C 0.3300(3) 0.9273(4) 0.4155(5)
H26_7 H 0.3235 0.9612 0.4131
C42_7 C 0.3525(3) 0.9243(5) 0.3930(5)
C43_7 C 0.3612(4) 0.9679(4) 0.3746(8)
H27_7 H 0.3526 0.9995 0.3759
C44_7 C 0.3829(5) 0.9643(4) 0.3543(8)
H28_7 H 0.3887 0.9935 0.3420
C45_7 C 0.3958(3) 0.9171(6) 0.3523(6)
C46_7 C 0.3871(4) 0.8735(4) 0.3707(7)
H29_7 H 0.3957 0.8419 0.3693
C47_7 C 0.3655(3) 0.8771(4) 0.3910(6)
H30_7 H 0.3596 0.8479 0.4033
H35_7 H 0.5607 0.9951 0.3956
C60_7 C 0.3550(3) 0.9187(4) 0.0022(4)
C61_7 C 0.3481(2) 0.9556(3) 0.0317(5)
H39_7 H 0.3285 0.9769 0.0079
C62_7 C 0.3704(3) 0.9605(3) 0.0970(5)
H40_7 H 0.3658 0.9852 0.1167
C63_7 C 0.3997(3) 0.9286(5) 0.1326(4)
C64_7 C 0.4066(3) 0.8917(5) 0.1030(7)
H41_7 H 0.4262 0.8703 0.1269
C65_7 C 0.3843(4) 0.8867(4) 0.0378(7)
H42_7 H 0.3889 0.8621 0.0181
C66_7 C 0.4363(4) 0.9030(6) 0.2297(5)
H43_7 H 0.4215 0.8736 0.2218
H44_7 H 0.4526 0.8943 0.2193
C67_7 C 0.4294(4) 0.9327(7) 0.3107(9)
H45_7 H 0.4080 0.9438 0.2711
H46_7 H 0.4386 0.9619 0.3386
C68_7 C 0.4564(2) 0.9197(3) 0.2975(4)
C69_7 C 0.4740(5) 0.9709(5) 0.3088(9)
H47_7 H 0.4664 0.9909 0.3301
H48_7 H 0.4623 0.9859 0.2673
C70_7 C 0.4794(4) 0.8734(5) 0.3358(6)
H49_7 H 0.4655 0.8499 0.3418
H50_7 H 0.4996 0.8845 0.3769
C71_7 C 0.5145(3) 0.8102(4) 0.3532(10)
C72_7 C 0.5179(4) 0.7812(7) 0.3126(6)
H51_7 H 0.5061 0.7910 0.2707
C73_7 C 0.5388(4) 0.7375(6) 0.3346(6)
H52_7 H 0.5411 0.7180 0.3075
C74_7 C 0.5564(3) 0.7228(4) 0.3972(6)
C75_7 C 0.5530(4) 0.7519(5) 0.4378(6)
H53_7 H 0.5647 0.7421 0.4796
C76_7 C 0.5321(4) 0.7956(5) 0.4157(9)
H54_7 H 0.5298 0.8150 0.4429
C77_7 C 0.5781(4) 0.6735(5) 0.4212(7)
H55_7 H 0.5623 0.6462 0.4066
C78_7 C 0.4109(5) 0.9165(8) 0.6996(14)
H56_7 H 0.4037 0.9140 0.6571
H57_7 H 0.4241 0.9475 0.7183
H58_7 H 0.4257 0.8879 0.7235
C81_7 C 0.1994(11) 0.6911(10) 0.7567(18)
H65_7 H 0.1819 0.6669 0.7276
H66_7 H 0.2224 0.6753 0.7807
H67_7 H 0.1938 0.7028 0.7847
N1_7 N 0.2250(2) 0.8696(3) 0.6783(4)
N2_7 N 0.20409(19) 0.8691(3) 0.6190(3)
N3_7 N 0.1849(2) 0.8259(3) 0.6021(4)
N4_7 N 0.1799(2) 0.8175(3) 0.4872(4)
N5_7 N 0.20376(19) 0.8581(2) 0.5012(3)
N6_7 N 0.2250(2) 0.9730(3) 0.4722(4)
N7_7 N 0.2036(2) 0.9777(3) 0.4929(3)
N8_7 N 0.2828(2) 0.9233(2) 0.5915(3)
N9_7 N 0.26240(19) 0.9251(2) 0.6139(3)
N10_7 N 0.28166(19) 0.9270(2) 0.6716(3)
N11_7 N 0.22631(19) 0.8589(2) 0.4836(3)
N13_7 N 0.1258(3) 0.9649(3) 0.4803(4)
N14_7 N 0.1461(2) 0.9222(3) 0.4996(3)
N15_7 N 0.1263(3) 0.8800(3) 0.4842(4)
N16_7 N 0.2242(2) 0.9852(3) 0.6713(4)
N18_7 N 0.2048(2) 0.9855(3) 0.6129(4)
O2_7 O 0.2902(3) 0.9472(6) 0.4638(6)
O3_7 O 0.4185(3) 0.9386(4) 0.1997(5)
O4_7 O 0.4983(4) 0.9787(5) 0.3299(7)
O8_7 O 0.2828(5) 0.8793(8) 0.4641(8)
O9_7 O 0.4888(5) 0.8539(7) 0.3104(8)
O10_7 O 0.4214(3) 0.9049(5) 0.3307(6)
C82_7 C 0.6070(4) 0.6571(6) 0.4510(16)
H68_7 H 0.6253 0.6809 0.4716
C83_7 C 0.6185(4) 0.6016(5) 0.4603(6)
O11_4 O 0.6070(7) 0.5807(8) 0.4848(13)
O12_4 O 0.6505(5) 0.6019(10) 0.4916(19)
Zn8_4 Zn 0.64967(4) 0.53308(5) 0.49666(8)
O13_4 O 0.1089(4) 0.7691(7) 0.4487(8)
O14_3 O 0.2735(4) 0.9493(5) 0.8059(6)
O15_3 O 0.3035(3) 0.8945(5) 0.8139(6)
O16_4 O 0.1399(4) 0.7342(5) 0.5187(7)
C57_7 C 0.2965(4) 0.9286(7) 0.8302(4)
C58_7 C 0.3123(4) 0.9358(6) 0.8992(6)
H37_7 H 0.3027 0.9573 0.9140
C59_7 C 0.3379(4) 0.9115(5) 0.9318(7)
H38_7 H 0.3470 0.8897 0.9165
C48_8 C 0.1131(6) 0.7377(7) 0.4690(12)
C49_8 C 0.0941(5) 0.6882(6) 0.4613(10)
H31_8 H 0.0979 0.6738 0.4973
C50_8 C 0.0750(4) 0.6668(6) 0.4137(7)
H32_8 H 0.0698 0.6866 0.3798
C51_8 C 0.0577(4) 0.6188(4) 0.3931(6)
C52_8 C 0.0209(4) 0.6246(4) 0.3536(7)
H33_8 H 0.0110 0.6570 0.3430
C54_8 C 0.0140(4) 0.5334(5) 0.3455(6)
C55_8 C 0.0507(4) 0.5276(4) 0.3851(9)
H35_8 H 0.0607 0.4951 0.3956
C56_8 C 0.0726(3) 0.5703(5) 0.4088(9)
H36_8 H 0.0972 0.5664 0.4353
C71_8 C 0.0145(3) 0.3102(4) 0.3532(10)
C72_8 C 0.0179(4) 0.2812(7) 0.3126(6)
H51_8 H 0.0061 0.2910 0.2707
C73_8 C 0.0388(4) 0.2375(6) 0.3346(6)
H52_8 H 0.0411 0.2180 0.3075
C74_8 C 0.0564(3) 0.2228(4) 0.3972(6)
C75_8 C 0.0530(4) 0.2519(5) 0.4378(6)
H53_8 H 0.0647 0.2421 0.4796
C76_8 C 0.0321(4) 0.2956(5) 0.4157(9)
H54_8 H 0.0298 0.3150 0.4429
C77_8 C 0.0781(4) 0.1735(5) 0.4212(7)
H55_8 H 0.0623 0.1462 0.4066
C82_8 C 0.1070(4) 0.1571(6) 0.4510(16)
H68_8 H 0.1253 0.1809 0.4716
C83_8 C 0.1185(4) 0.1016(5) 0.4603(6)
Zn1_8 Zn 0.70394(3) 0.42332(3) 0.55647(5)
Zn2_8 Zn 0.75845(4) 0.41557(5) 0.49829(6)
Zn3_4 Zn 0.75827(3) 0.42930(5) 0.71911(5)
C1_8 C 0.7153(2) 0.5125(3) 0.4317(4)
C2_8 C 0.6904(2) 0.5403(4) 0.4334(4)
C3_8 C 0.6768(2) 0.5854(4) 0.3993(5)
H1_8 H 0.6601 0.6040 0.4004
C4_8 C 0.6881(3) 0.6026(3) 0.3635(5)
C5_8 C 0.7129(3) 0.5747(5) 0.3618(5)
H2_8 H 0.7205 0.5862 0.3379
C6_8 C 0.7266(2) 0.5297(4) 0.3959(5)
H3_8 H 0.7432 0.5110 0.3948
C7_8 C 0.6919(3) 0.5552(5) 0.6310(4)
C8_8 C 0.7165(3) 0.5295(3) 0.6867(6)
C9_8 C 0.7303(2) 0.5527(5) 0.7444(5)
H4_8 H 0.7467 0.5355 0.7817
C10_8 C 0.7194(3) 0.6016(5) 0.7464(5)
H5_8 H 0.7287 0.6171 0.7850
C11_8 C 0.6949(3) 0.6273(3) 0.6907(8)
C12_8 C 0.6811(3) 0.6041(5) 0.6330(6)
H6_8 H 0.6647 0.6212 0.5957
C13_8 C 0.6936(2) 0.2997(4) 0.6497(3)
C14_8 C 0.6832(2) 0.2535(4) 0.6599(5)
H7_8 H 0.6651 0.2346 0.6259
C15_8 C 0.6996(3) 0.2355(3) 0.7210(7)
C16_8 C 0.7266(3) 0.2637(5) 0.7718(4)
H8_8 H 0.7376 0.2516 0.8127
C17_8 C 0.7371(2) 0.3099(4) 0.7617(4)
H9_8 H 0.7551 0.3288 0.7957
C18_8 C 0.7206(2) 0.3279(3) 0.7006(5)
C19_8 C 0.81587(18) 0.4258(2) 0.6898(4)
C20_8 C 0.81470(17) 0.4227(2) 0.6357(3)
C21_8 C 0.8461(2) 0.4182(2) 0.6406(3)
H10_8 H 0.8453 0.4161 0.6044
C22_8 C 0.87859(18) 0.4167(3) 0.6996(4)
C23_8 C 0.87976(17) 0.4198(2) 0.7537(3)
H11_8 H 0.9015 0.4188 0.7932
C24_8 C 0.8484(2) 0.4243(2) 0.7488(3)
H12_8 H 0.8492 0.4264 0.7850
C25_8 C 0.69100(19) 0.2198(2) 0.3944(3)
H13_8 H 0.6820 0.1884 0.3751
C26_8 C 0.71672(19) 0.2438(3) 0.3916(3)
C27_8 C 0.73024(15) 0.2908(2) 0.4204(3)
H14_8 H 0.7474 0.3069 0.4185
C28_8 C 0.71804(17) 0.31395(19) 0.4521(3)
C29_8 C 0.69232(17) 0.2900(3) 0.4550(3)
C30_8 C 0.67880(16) 0.2429(3) 0.4261(3)
H15_8 H 0.6616 0.2269 0.4280
C31_8 C 0.5921(4) 0.4468(6) 0.4443(5)
C32_8 C 0.5920(4) 0.3939(6) 0.4479(5)
C33_8 C 0.5602(5) 0.3681(3) 0.4228(6)
H16_8 H 0.5601 0.3327 0.4252
C34_8 C 0.5285(4) 0.3951(7) 0.3941(6)
H17_8 H 0.5072 0.3777 0.3773
C35_8 C 0.5286(4) 0.4479(7) 0.3905(6)
C36_8 C 0.5604(5) 0.4738(3) 0.4156(6)
H18_8 H 0.5605 0.5091 0.4131
C37_8 C 0.7306(3) 0.2159(4) 0.3590(6)
H19_8 H 0.7181 0.1842 0.3422
H20_8 H 0.7268 0.2366 0.3254
H21_8 H 0.7555 0.2093 0.3890
C38_8 C 0.6765(6) 0.6492(6) 0.3233(9)
H22_8 H 0.6597 0.6678 0.3259
H23_8 H 0.6969 0.6703 0.3377
H24_8 H 0.6657 0.6394 0.2803
C39_8 C 0.7927(3) 0.4138(8) 0.4556(6)
C40_8 C 0.8170(3) 0.4037(6) 0.4354(6)
H25_8 H 0.8233 0.3695 0.4401
C41_8 C 0.8300(3) 0.4273(4) 0.4155(5)
H26_8 H 0.8235 0.4612 0.4131
C42_8 C 0.8525(3) 0.4243(5) 0.3930(5)
C43_8 C 0.8612(4) 0.4679(4) 0.3746(8)
H27_8 H 0.8526 0.4995 0.3759
C44_8 C 0.8829(5) 0.4643(4) 0.3543(8)
H28_8 H 0.8887 0.4935 0.3420
C45_8 C 0.8958(3) 0.4171(6) 0.3523(6)
C46_8 C 0.8871(4) 0.3735(4) 0.3707(7)
H29_8 H 0.8957 0.3419 0.3693
C47_8 C 0.8655(3) 0.3771(4) 0.3910(6)
H30_8 H 0.8596 0.3479 0.4033
C53_8 C 0.9991(3) 0.5819(6) 0.3298(7)
H34_8 H 0.9745 0.5857 0.3033
C60_8 C 0.8550(3) 0.4187(4) 0.0022(4)
C61_8 C 0.8481(2) 0.4556(3) 0.0317(5)
H39_8 H 0.8285 0.4769 0.0079
C62_8 C 0.8704(3) 0.4605(3) 0.0970(5)
H40_8 H 0.8658 0.4852 0.1167
C63_8 C 0.8997(3) 0.4286(5) 0.1326(4)
C64_8 C 0.9066(3) 0.3917(5) 0.1030(7)
H41_8 H 0.9262 0.3703 0.1269
C65_8 C 0.8843(4) 0.3867(4) 0.0378(7)
H42_8 H 0.8889 0.3621 0.0181
C66_8 C 0.9363(4) 0.4030(6) 0.2297(5)
H43_8 H 0.9215 0.3736 0.2218
H44_8 H 0.9526 0.3943 0.2193
C67_8 C 0.9294(4) 0.4327(7) 0.3107(9)
H45_8 H 0.9080 0.4438 0.2711
H46_8 H 0.9386 0.4619 0.3386
C68_8 C 0.9564(2) 0.4197(3) 0.2975(4)
C69_8 C 0.9740(5) 0.4709(5) 0.3088(9)
H47_8 H 0.9664 0.4909 0.3301
H48_8 H 0.9623 0.4859 0.2673
C70_8 C 0.9794(4) 0.3734(5) 0.3358(6)
H49_8 H 0.9655 0.3499 0.3418
H50_8 H 0.9996 0.3845 0.3769
C78_8 C 0.9109(5) 0.4165(8) 0.6996(14)
H56_8 H 0.9037 0.4140 0.6571
H57_8 H 0.9241 0.4475 0.7183
H58_8 H 0.9257 0.3879 0.7235
C79_7 C 0.4945(7) 0.4760(15) 0.3637(17)
H59_7 H 0.4986 0.5120 0.3643
H60_7 H 0.4772 0.4652 0.3210
H61_7 H 0.4859 0.4690 0.3885
C80_8 C 0.6968(10) 0.6793(7) 0.7166(17)
H62_8 H 0.6806 0.7018 0.6826
H63_8 H 0.6903 0.6770 0.7453
H64_8 H 0.7205 0.6923 0.7384
C81_8 C 0.6994(11) 0.1911(10) 0.7567(18)
H65_8 H 0.6819 0.1669 0.7276
H66_8 H 0.7224 0.1753 0.7807
H67_8 H 0.6938 0.2028 0.7847
N1_8 N 0.7250(2) 0.3696(3) 0.6783(4)
N2_8 N 0.70409(19) 0.3691(3) 0.6190(3)
N3_8 N 0.6849(2) 0.3259(3) 0.6021(4)
N4_8 N 0.6799(2) 0.3175(3) 0.4872(4)
N5_8 N 0.70376(19) 0.3581(2) 0.5012(3)
N6_8 N 0.7250(2) 0.4730(3) 0.4722(4)
N7_8 N 0.7036(2) 0.4777(3) 0.4929(3)
N8_8 N 0.7828(2) 0.4233(2) 0.5915(3)
N9_8 N 0.76240(19) 0.4251(2) 0.6139(3)
N10_8 N 0.78166(19) 0.4270(2) 0.6716(3)
N11_8 N 0.72631(19) 0.3589(2) 0.4836(3)
N12_8 N 0.6827(2) 0.5187(3) 0.4713(4)
N13_8 N 0.6258(3) 0.4649(3) 0.4803(4)
N14_8 N 0.6461(2) 0.4222(3) 0.4996(3)
N15_8 N 0.6263(3) 0.3800(3) 0.4842(4)
N16_8 N 0.7242(2) 0.4852(3) 0.6713(4)
N17_8 N 0.6838(2) 0.5247(3) 0.5869(4)
N18_8 N 0.7048(2) 0.4855(3) 0.6129(4)
O2_8 O 0.7902(3) 0.4472(6) 0.4638(6)
O3_8 O 0.9185(3) 0.4386(4) 0.1997(5)
O4_8 O 0.9983(4) 0.4787(5) 0.3299(7)
O8_8 O 0.7828(5) 0.3793(8) 0.4641(8)
O9_8 O 0.9888(5) 0.3539(7) 0.3104(8)
O10_8 O 0.9214(3) 0.4049(5) 0.3307(6)
O14_4 O 0.7735(4) 0.4493(5) 0.8059(6)
O15_4 O 0.8035(3) 0.3945(5) 0.8139(6)
C57_8 C 0.7965(4) 0.4286(7) 0.8302(4)
C58_8 C 0.8123(4) 0.4358(6) 0.8992(6)
H37_8 H 0.8027 0.4573 0.9140
C59_8 C 0.8379(4) 0.4115(5) 0.9318(7)
H38_8 H 0.8470 0.3897 0.9165
H59_8 H 0.9986 0.0120 0.3643
C79_8 C 0.9945(7) 0.9760(15) 0.3637(17)
H60_8 H 0.9772 0.9652 0.3210
H61_8 H 0.9859 0.9690 0.3885
loop_
_geom_bond_atom_site_label_1
_geom_bond_atom_site_label_2
_geom_bond_site_symmetry_1
_geom_bond_site_symmetry_2
Zn1 N2 1_555 1_555
Zn3 N1 1_555 1_555
Zn4 N3 1_555 1_555
C13 C14 1_555 1_555
C14 H7 1_555 1_555
C15 C14 1_555 1_555
C16 C15 1_555 1_555
H8 C16 1_555 1_555
C17 C16 1_555 1_555
H9 C17 1_555 1_555
C18 C13 1_555 1_555
C19 C20 1_555 1_555
C20 C21 1_555 1_555
C21 H10 1_555 1_555
C22 C21 1_555 1_555
C23 C22 1_555 1_555
H11 C23 1_555 1_555
C24 C19 1_555 1_555
H12 C24 1_555 1_555
C78 C22 1_555 1_555
H56 C78 1_555 1_555
H57 C78 1_555 1_555
H58 C78 1_555 1_555
C81 C15 1_555 1_555
H65 C81 1_555 1_555
H66 C81 1_555 1_555
H67 C81 1_555 1_555
N1 C18 1_555 1_555
N2 N1 1_555 1_555
N3 C13 1_555 1_555
N5 Zn1 1_555 1_555
N9 Zn1 1_555 1_555
N10 Zn3 1_555 1_555
N16 Zn3 1_555 1_555
N18 Zn1 1_555 1_555
O14 Zn3 1_555 1_555
O15 Zn3 1_555 1_555
O16 Zn4 1_555 1_555
C17 C18 1_555 1_555
C19 N10 1_555 1_555
C20 N8 1_555 1_555
C23 C24 1_555 1_555
N2 N3 1_555 1_555
N8 N9 1_555 1_555
N9 N10 1_555 1_555
N16 N18 1_555 1_555
Zn2 N6 1_555 1_555
C25 H13 1_555 1_555
C26 C25 1_555 1_555
C27 C26 1_555 1_555
H14 C27 1_555 1_555
C28 C27 1_555 1_555
C29 C28 1_555 1_555
C30 C25 1_555 1_555
H15 C30 1_555 1_555
C31 C32 1_555 1_555
C32 C33 1_555 1_555
C33 H16 1_555 1_555
C34 C33 1_555 1_555
H17 C34 1_555 1_555
C35 C34 1_555 1_555
C36 C31 1_555 1_555
C37 C26 1_555 1_555
H19 C37 1_555 1_555
H20 C37 1_555 1_555
H21 C37 1_555 1_555
C39 C40 1_555 1_555
C40 H25 1_555 1_555
C41 C40 1_555 1_555
H26 C41 1_555 1_555
C42 C41 1_555 1_555
C43 C42 1_555 1_555
H27 C43 1_555 1_555
C44 C43 1_555 1_555
H28 C44 1_555 1_555
C45 C44 1_555 1_555
C46 C45 1_555 1_555
H29 C46 1_555 1_555
C47 C42 1_555 1_555
H30 C47 1_555 1_555
C57 C58 1_555 1_555
C58 H37 1_555 1_555
C59 C58 1_555 1_555
H38 C59 1_555 1_555
C60 C59 1_555 1_555
C61 C60 1_555 1_555
H39 C61 1_555 1_555
C62 C61 1_555 1_555
H40 C62 1_555 1_555
C63 C62 1_555 1_555
C64 C63 1_555 1_555
H41 C64 1_555 1_555
C65 C60 1_555 1_555
H42 C65 1_555 1_555
C66 H43 1_555 1_555
H44 C66 1_555 1_555
C67 H45 1_555 1_555
H46 C67 1_555 1_555
C68 C66 1_555 1_555
C69 C68 1_555 1_555
H47 C69 1_555 1_555
H48 C69 1_555 1_555
C70 C68 1_555 1_555
H49 C70 1_555 1_555
H50 C70 1_555 1_555
C71 C72 1_555 1_555
C72 H51 1_555 1_555
C73 C72 1_555 1_555
H52 C73 1_555 1_555
C74 C73 1_555 1_555
C75 C74 1_555 1_555
H53 C75 1_555 1_555
C76 C71 1_555 1_555
H54 C76 1_555 1_555
C77 C74 1_555 1_555
H55 C77 1_555 1_555
N11 Zn2 1_555 1_555
O2 Zn2 1_555 1_555
O3 C63 1_555 1_555
O14 C57 1_555 1_555
O15 C57 1_555 1_555
O8 Zn2 1_555 1_555
O9 C70 1_555 1_555
O10 C45 1_555 1_555
C82 C77 1_555 1_555
H68 C82 1_555 1_555
C83 C82 1_555 1_555
O11 C83 1_555 1_555
O12 C83 1_555 1_555
Zn8 O11 1_555 1_555
C28 N11 1_555 1_555
C29 C30 1_555 1_555
C29 N4 1_555 1_555
C31 N13 1_555 1_555
C32 N15 1_555 1_555
C35 C36 1_555 1_555
C39 O2 1_555 1_555
C39 O8 1_555 1_555
C46 C47 1_555 1_555
C64 C65 1_555 1_555
C66 O3 1_555 1_555
C67 C68 1_555 1_555
C67 O10 1_555 1_555
C69 O4 1_555 1_555
C71 O9 1_555 1_555
C75 C76 1_555 1_555
N6 N7 1_555 1_555
N13 N14 1_555 1_555
N14 N15 1_555 1_555
O12 Zn8 1_555 1_555
C7 C8 1_555 1_555
C8 C9 1_555 1_555
C9 H4 1_555 1_555
C10 C9 1_555 1_555
H5 C10 1_555 1_555
C11 C10 1_555 1_555
C12 C7 1_555 1_555
H6 C12 1_555 1_555
C80 C11 1_555 1_555
H62 C80 1_555 1_555
H63 C80 1_555 1_555
H64 C80 1_555 1_555
C7 N17 1_555 1_555
C11 C12 1_555 1_555
O7 Zn7 1_555 1_555
Zn5 N12 1_555 1_555
C1 C2 1_555 1_555
C2 C3 1_555 1_555
C3 H1 1_555 1_555
C4 C3 1_555 1_555
C5 C4 1_555 1_555
H2 C5 1_555 1_555
C6 C1 1_555 1_555
H3 C6 1_555 1_555
C38 C4 1_555 1_555
H22 C38 1_555 1_555
H23 C38 1_555 1_555
H24 C38 1_555 1_555
C48 C49 1_555 1_555
C49 H31 1_555 1_555
C50 C49 1_555 1_555
H32 C50 1_555 1_555
C51 C50 1_555 1_555
C52 C51 1_555 1_555
H33 C52 1_555 1_555
C53 C52 1_555 1_555
H34 C53 1_555 1_555
C54 C53 1_555 1_555
C55 C54 1_555 1_555
C56 C51 1_555 1_555
H36 C56 1_555 1_555
N12 C2 1_555 1_555
O1 C48 1_555 1_555
O17 Zn5 1_555 1_555
O18 Zn5 1_555 1_555
C5 C6 1_555 1_555
C55 C56 1_555 1_555
C48_2 C49_2 1_555 1_555
C49_2 H31_2 1_555 1_555
C50_2 C49_2 1_555 1_555
H32_2 C50_2 1_555 1_555
C51_2 C50_2 1_555 1_555
C52_2 C51_2 1_555 1_555
H33_2 C52_2 1_555 1_555
C55_2 C54_2 1_555 1_555
H35_2 C55_2 1_555 1_555
C56_2 C51_2 1_555 1_555
H36_2 C56_2 1_555 1_555
C71_2 C72_2 1_555 1_555
C72_2 H51_2 1_555 1_555
C73_2 C72_2 1_555 1_555
H52_2 C73_2 1_555 1_555
C74_2 C73_2 1_555 1_555
C75_2 C74_2 1_555 1_555
H53_2 C75_2 1_555 1_555
C76_2 C71_2 1_555 1_555
H54_2 C76_2 1_555 1_555
C77_2 C74_2 1_555 1_555
H55_2 C77_2 1_555 1_555
O13 C48_2 1_555 1_555
C82_2 C77_2 1_555 1_555
H68_2 C82_2 1_555 1_555
C83_2 C82_2 1_555 1_555
O17 C83_2 1_555 1_555
O18 C83_2 1_555 1_555
C55_2 C56_2 1_555 1_555
C75_2 C76_2 1_555 1_555
Zn1_2 N2_2 1_555 1_555
Zn3_2 N1_2 1_555 1_555
Zn7 N3_2 1_555 1_555
C7_2 C8_2 1_555 1_555
C8_2 C9_2 1_555 1_555
C9_2 H4_2 1_555 1_555
C10_2 C9_2 1_555 1_555
H5_2 C10_2 1_555 1_555
C11_2 C10_2 1_555 1_555
C12_2 C7_2 1_555 1_555
H6_2 C12_2 1_555 1_555
C13_2 C14_2 1_555 1_555
C14_2 H7_2 1_555 1_555
C15_2 C14_2 1_555 1_555
C16_2 C15_2 1_555 1_555
H8_2 C16_2 1_555 1_555
C17_2 C16_2 1_555 1_555
H9_2 C17_2 1_555 1_555
C18_2 C13_2 1_555 1_555
C19_2 C20_2 1_555 1_555
C20_2 C21_2 1_555 1_555
C21_2 H10_2 1_555 1_555
C22_2 C21_2 1_555 1_555
C23_2 C22_2 1_555 1_555
H11_2 C23_2 1_555 1_555
C24_2 C19_2 1_555 1_555
H12_2 C24_2 1_555 1_555
C78_2 C22_2 1_555 1_555
H56_2 C78_2 1_555 1_555
H57_2 C78_2 1_555 1_555
H58_2 C78_2 1_555 1_555
C80_2 C11_2 1_555 1_555
H62_2 C80_2 1_555 1_555
H63_2 C80_2 1_555 1_555
H64_2 C80_2 1_555 1_555
C81_2 C15_2 1_555 1_555
H65_2 C81_2 1_555 1_555
H66_2 C81_2 1_555 1_555
H67_2 C81_2 1_555 1_555
N1_2 C18_2 1_555 1_555
N2_2 N1_2 1_555 1_555
N3_2 C13_2 1_555 1_555
N5_2 Zn1_2 1_555 1_555
N9_2 Zn1_2 1_555 1_555
N10_2 Zn3_2 1_555 1_555
N16_2 Zn3_2 1_555 1_555
N18_2 Zn1_2 1_555 1_555
O14_2 Zn3_2 1_555 1_555
O15_2 Zn3_2 1_555 1_555
C7_2 N17_2 1_555 1_555
C8_2 N16_2 1_555 1_555
C11_2 C12_2 1_555 1_555
C17_2 C18_2 1_555 1_555
C19_2 N10_2 1_555 1_555
C20_2 N8_2 1_555 1_555
C23_2 C24_2 1_555 1_555
N2_2 N3_2 1_555 1_555
N8_2 N9_2 1_555 1_555
N9_2 N10_2 1_555 1_555
N16_2 N18_2 1_555 1_555
N17_2 N18_2 1_555 1_555
Zn2_2 N6_2 1_555 1_555
Zn8 N12_2 1_555 1_555
C1_2 C2_2 1_555 1_555
C2_2 C3_2 1_555 1_555
C3_2 H1_2 1_555 1_555
C4_2 C3_2 1_555 1_555
C5_2 C4_2 1_555 1_555
H2_2 C5_2 1_555 1_555
C6_2 C1_2 1_555 1_555
H3_2 C6_2 1_555 1_555
C25_2 H13_2 1_555 1_555
C26_2 C25_2 1_555 1_555
C27_2 C26_2 1_555 1_555
H14_2 C27_2 1_555 1_555
C28_2 C27_2 1_555 1_555
C29_2 C28_2 1_555 1_555
C30_2 C25_2 1_555 1_555
H15_2 C30_2 1_555 1_555
C31_2 C32_2 1_555 1_555
C32_2 C33_2 1_555 1_555
C33_2 H16_2 1_555 1_555
C34_2 C33_2 1_555 1_555
H17_2 C34_2 1_555 1_555
C35_2 C34_2 1_555 1_555
C36_2 C31_2 1_555 1_555
H18_2 C36_2 1_555 1_555
C37_2 C26_2 1_555 1_555
H19_2 C37_2 1_555 1_555
H20_2 C37_2 1_555 1_555
H21_2 C37_2 1_555 1_555
C38_2 C4_2 1_555 1_555
H22_2 C38_2 1_555 1_555
H23_2 C38_2 1_555 1_555
H24_2 C38_2 1_555 1_555
C39_2 C40_2 1_555 1_555
C40_2 H25_2 1_555 1_555
C41_2 C40_2 1_555 1_555
H26_2 C41_2 1_555 1_555
C42_2 C41_2 1_555 1_555
C43_2 C42_2 1_555 1_555
H27_2 C43_2 1_555 1_555
C44_2 C43_2 1_555 1_555
H28_2 C44_2 1_555 1_555
C45_2 C44_2 1_555 1_555
C46_2 C45_2 1_555 1_555
H29_2 C46_2 1_555 1_555
C47_2 C42_2 1_555 1_555
H30_2 C47_2 1_555 1_555
H34_2 C53_2 1_555 1_555
C57_2 C58_2 1_555 1_555
C58_2 H37_2 1_555 1_555
C59_2 C58_2 1_555 1_555
H38_2 C59_2 1_555 1_555
C60_2 C59_2 1_555 1_555
C61_2 C60_2 1_555 1_555
H39_2 C61_2 1_555 1_555
C62_2 C61_2 1_555 1_555
H40_2 C62_2 1_555 1_555
C63_2 C62_2 1_555 1_555
C64_2 C63_2 1_555 1_555
H41_2 C64_2 1_555 1_555
C65_2 C60_2 1_555 1_555
H42_2 C65_2 1_555 1_555
C66_2 H43_2 1_555 1_555
H44_2 C66_2 1_555 1_555
C67_2 H45_2 1_555 1_555
H46_2 C67_2 1_555 1_555
C68_2 C66_2 1_555 1_555
C69_2 C68_2 1_555 1_555
H47_2 C69_2 1_555 1_555
H48_2 C69_2 1_555 1_555
C70_2 C68_2 1_555 1_555
H49_2 C70_2 1_555 1_555
H50_2 C70_2 1_555 1_555
C79 C35_2 1_555 1_555
H59 C79 1_555 1_555
H60 C79 1_555 1_555
H61 C79 1_555 1_555
N6_2 C1_2 1_555 1_555
N11_2 Zn2_2 1_555 1_555
N12_2 C2_2 1_555 1_555
N13_2 Zn8 1_555 1_555
O2_2 Zn2_2 1_555 1_555
O3_2 C63_2 1_555 1_555
O14_2 C57_2 1_555 1_555
O15_2 C57_2 1_555 1_555
O8_2 Zn2_2 1_555 1_555
O9_2 C70_2 1_555 1_555
O10_2 C45_2 1_555 1_555
C5_2 C6_2 1_555 1_555
C28_2 N11_2 1_555 1_555
C29_2 C30_2 1_555 1_555
C29_2 N4_2 1_555 1_555
C31_2 N13_2 1_555 1_555
C32_2 N15_2 1_555 1_555
C35_2 C36_2 1_555 1_555
C39_2 O2_2 1_555 1_555
C39_2 O8_2 1_555 1_555
C46_2 C47_2 1_555 1_555
C64_2 C65_2 1_555 1_555
C66_2 O3_2 1_555 1_555
C67_2 C68_2 1_555 1_555
C67_2 O10_2 1_555 1_555
C69_2 O4_2 1_555 1_555
N6_2 N7_2 1_555 1_555
N7_2 N12_2 1_555 1_555
N13_2 N14_2 1_555 1_555
N14_2 N15_2 1_555 1_555
H60_2 C79_2 1_555 1_555
H61_2 C79_2 1_555 1_555
H60_3 C79_3 1_555 1_555
H61_3 C79_3 1_555 1_555
C57_3 C58_3 1_555 1_555
C58_3 H37_3 1_555 1_555
C59_3 C58_3 1_555 1_555
H38_3 C59_3 1_555 1_555
O5 C57_3 1_555 1_555
O6 C57_3 1_555 1_555
Zn6 O5 1_555 1_555
O6 Zn6 1_555 1_555
Zn1_3 N2_3 1_555 1_555
Zn2_3 N6_3 1_555 1_555
Zn6 N1_3 1_555 1_555
Zn4_2 N3_3 1_555 1_555
C13_3 C14_3 1_555 1_555
C14_3 H7_3 1_555 1_555
C15_3 C14_3 1_555 1_555
C16_3 C15_3 1_555 1_555
H8_3 C16_3 1_555 1_555
C17_3 C16_3 1_555 1_555
H9_3 C17_3 1_555 1_555
C18_3 C13_3 1_555 1_555
C19_3 C20_3 1_555 1_555
C20_3 C21_3 1_555 1_555
C21_3 H10_3 1_555 1_555
C22_3 C21_3 1_555 1_555
C23_3 C22_3 1_555 1_555
H11_3 C23_3 1_555 1_555
C24_3 C19_3 1_555 1_555
H12_3 C24_3 1_555 1_555
C25_3 H13_3 1_555 1_555
C26_3 C25_3 1_555 1_555
C27_3 C26_3 1_555 1_555
H14_3 C27_3 1_555 1_555
C28_3 C27_3 1_555 1_555
C29_3 C28_3 1_555 1_555
C30_3 C25_3 1_555 1_555
H15_3 C30_3 1_555 1_555
C31_3 C32_3 1_555 1_555
C32_3 C33_3 1_555 1_555
C33_3 H16_3 1_555 1_555
C34_3 C33_3 1_555 1_555
H17_3 C34_3 1_555 1_555
C35_3 C34_3 1_555 1_555
C36_3 C31_3 1_555 1_555
C37_3 C26_3 1_555 1_555
H19_3 C37_3 1_555 1_555
H20_3 C37_3 1_555 1_555
H21_3 C37_3 1_555 1_555
C39_3 C40_3 1_555 1_555
C40_3 H25_3 1_555 1_555
C41_3 C40_3 1_555 1_555
H26_3 C41_3 1_555 1_555
C42_3 C41_3 1_555 1_555
C43_3 C42_3 1_555 1_555
H27_3 C43_3 1_555 1_555
C44_3 C43_3 1_555 1_555
H28_3 C44_3 1_555 1_555
C45_3 C44_3 1_555 1_555
C46_3 C45_3 1_555 1_555
H29_3 C46_3 1_555 1_555
C47_3 C42_3 1_555 1_555
H30_3 C47_3 1_555 1_555
C61_3 C60_3 1_555 1_555
H39_3 C61_3 1_555 1_555
C62_3 C61_3 1_555 1_555
H40_3 C62_3 1_555 1_555
C63_3 C62_3 1_555 1_555
C64_3 C63_3 1_555 1_555
H41_3 C64_3 1_555 1_555
C65_3 C60_3 1_555 1_555
H42_3 C65_3 1_555 1_555
C66_3 H43_3 1_555 1_555
H44_3 C66_3 1_555 1_555
C67_3 H45_3 1_555 1_555
H46_3 C67_3 1_555 1_555
C68_3 C66_3 1_555 1_555
C69_3 C68_3 1_555 1_555
H47_3 C69_3 1_555 1_555
H48_3 C69_3 1_555 1_555
C70_3 C68_3 1_555 1_555
H49_3 C70_3 1_555 1_555
H50_3 C70_3 1_555 1_555
C71_3 C72_3 1_555 1_555
C72_3 H51_3 1_555 1_555
C73_3 C72_3 1_555 1_555
H52_3 C73_3 1_555 1_555
C74_3 C73_3 1_555 1_555
C75_3 C74_3 1_555 1_555
H53_3 C75_3 1_555 1_555
C76_3 C71_3 1_555 1_555
H54_3 C76_3 1_555 1_555
C77_3 C74_3 1_555 1_555
H55_3 C77_3 1_555 1_555
C78_3 C22_3 1_555 1_555
H56_3 C78_3 1_555 1_555
H57_3 C78_3 1_555 1_555
H58_3 C78_3 1_555 1_555
C81_3 C15_3 1_555 1_555
H65_3 C81_3 1_555 1_555
H66_3 C81_3 1_555 1_555
H67_3 C81_3 1_555 1_555
N1_3 C18_3 1_555 1_555
N2_3 N1_3 1_555 1_555
N3_3 C13_3 1_555 1_555
N4_3 Zn4_2 1_555 1_555
N5_3 Zn1_3 1_555 1_555
N7_3 Zn1_3 1_555 1_555
N8_3 Zn2_3 1_555 1_555
N9_3 Zn1_3 1_555 1_555
N10_3 Zn6 1_555 1_555
N11_3 Zn2_3 1_555 1_555
N14_3 Zn1_3 1_555 1_555
N15_3 Zn4_2 1_555 1_555
N16_3 Zn6 1_555 1_555
N18_3 Zn1_3 1_555 1_555
O2_3 Zn2_3 1_555 1_555
O3_3 C63_3 1_555 1_555
O8_3 Zn2_3 1_555 1_555
O9_3 C70_3 1_555 1_555
O10_3 C45_3 1_555 1_555
C82_3 C77_3 1_555 1_555
H68_3 C82_3 1_555 1_555
C83_3 C82_3 1_555 1_555
O11_2 C83_3 1_555 1_555
O12_2 C83_3 1_555 1_555
Zn8_2 O11_2 1_555 1_555
O13_2 Zn4_2 1_555 1_555
O16_2 Zn4_2 1_555 1_555
C17_3 C18_3 1_555 1_555
C19_3 N10_3 1_555 1_555
C20_3 N8_3 1_555 1_555
C23_3 C24_3 1_555 1_555
C28_3 N11_3 1_555 1_555
C29_3 C30_3 1_555 1_555
C29_3 N4_3 1_555 1_555
C31_3 N13_3 1_555 1_555
C32_3 N15_3 1_555 1_555
C35_3 C36_3 1_555 1_555
C39_3 O2_3 1_555 1_555
C39_3 O8_3 1_555 1_555
C46_3 C47_3 1_555 1_555
C64_3 C65_3 1_555 1_555
C66_3 O3_3 1_555 1_555
C67_3 C68_3 1_555 1_555
C67_3 O10_3 1_555 1_555
C69_3 O4_3 1_555 1_555
C71_3 O9_3 1_555 1_555
C75_3 C76_3 1_555 1_555
N2_3 N3_3 1_555 1_555
N4_3 N5_3 1_555 1_555
N5_3 N11_3 1_555 1_555
N6_3 N7_3 1_555 1_555
N8_3 N9_3 1_555 1_555
N9_3 N10_3 1_555 1_555
N13_3 N14_3 1_555 1_555
N14_3 N15_3 1_555 1_555
N16_3 N18_3 1_555 1_555
O12_2 Zn8_2 1_555 1_555
Zn5_2 N12_3 1_555 1_555
C1_3 C2_3 1_555 1_555
C2_3 C3_3 1_555 1_555
C3_3 H1_3 1_555 1_555
C4_3 C3_3 1_555 1_555
C5_3 C4_3 1_555 1_555
H2_3 C5_3 1_555 1_555
C6_3 C1_3 1_555 1_555
H3_3 C6_3 1_555 1_555
C7_3 C8_3 1_555 1_555
C8_3 C9_3 1_555 1_555
C9_3 H4_3 1_555 1_555
C10_3 C9_3 1_555 1_555
H5_3 C10_3 1_555 1_555
C11_3 C10_3 1_555 1_555
C12_3 C7_3 1_555 1_555
H6_3 C12_3 1_555 1_555
C38_3 C4_3 1_555 1_555
H22_3 C38_3 1_555 1_555
H23_3 C38_3 1_555 1_555
H24_3 C38_3 1_555 1_555
C48_3 C49_3 1_555 1_555
C49_3 H31_3 1_555 1_555
C50_3 C49_3 1_555 1_555
H32_3 C50_3 1_555 1_555
C51_3 C50_3 1_555 1_555
C52_3 C51_3 1_555 1_555
H33_3 C52_3 1_555 1_555
C53_3 C52_3 1_555 1_555
H34_3 C53_3 1_555 1_555
C54_3 C53_3 1_555 1_555
C55_3 C54_3 1_555 1_555
C56_3 C51_3 1_555 1_555
H36_3 C56_3 1_555 1_555
C80_3 C11_3 1_555 1_555
H62_3 C80_3 1_555 1_555
H63_3 C80_3 1_555 1_555
H64_3 C80_3 1_555 1_555
N12_3 C2_3 1_555 1_555
N17_3 Zn5_2 1_555 1_555
O1_2 C48_3 1_555 1_555
O7_2 C48_3 1_555 1_555
Zn7_2 O1_2 1_555 1_555
O17_2 Zn5_2 1_555 1_555
O18_2 Zn5_2 1_555 1_555
C5_3 C6_3 1_555 1_555
C7_3 N17_3 1_555 1_555
C11_3 C12_3 1_555 1_555
C55_3 C56_3 1_555 1_555
O7_2 Zn7_2 1_555 1_555
C57_4 C58_4 1_555 1_555
C58_4 H37_4 1_555 1_555
C59_4 C58_4 1_555 1_555
H38_4 C59_4 1_555 1_555
O5_2 C57_4 1_555 1_555
O6_2 C57_4 1_555 1_555
Zn6_2 O5_2 1_555 1_555
O6_2 Zn6_2 1_555 1_555
Zn1_4 N2_4 1_555 1_555
Zn2_4 N6_4 1_555 1_555
Zn6_2 N1_4 1_555 1_555
Zn7_2 N3_4 1_555 1_555
Zn8_2 N12_4 1_555 1_555
C1_4 C2_4 1_555 1_555
C2_4 C3_4 1_555 1_555
C3_4 H1_4 1_555 1_555
C4_4 C3_4 1_555 1_555
C5_4 C4_4 1_555 1_555
H2_4 C5_4 1_555 1_555
C6_4 C1_4 1_555 1_555
H3_4 C6_4 1_555 1_555
C7_4 C8_4 1_555 1_555
C8_4 C9_4 1_555 1_555
C9_4 H4_4 1_555 1_555
C10_4 C9_4 1_555 1_555
H5_4 C10_4 1_555 1_555
C11_4 C10_4 1_555 1_555
C12_4 C7_4 1_555 1_555
H6_4 C12_4 1_555 1_555
C13_4 C14_4 1_555 1_555
C14_4 H7_4 1_555 1_555
C15_4 C14_4 1_555 1_555
C16_4 C15_4 1_555 1_555
H8_4 C16_4 1_555 1_555
C17_4 C16_4 1_555 1_555
H9_4 C17_4 1_555 1_555
C18_4 C13_4 1_555 1_555
C19_4 C20_4 1_555 1_555
C20_4 C21_4 1_555 1_555
C21_4 H10_4 1_555 1_555
C22_4 C21_4 1_555 1_555
C23_4 C22_4 1_555 1_555
H11_4 C23_4 1_555 1_555
C24_4 C19_4 1_555 1_555
H12_4 C24_4 1_555 1_555
C25_4 H13_4 1_555 1_555
C26_4 C25_4 1_555 1_555
C27_4 C26_4 1_555 1_555
H14_4 C27_4 1_555 1_555
C28_4 C27_4 1_555 1_555
C29_4 C28_4 1_555 1_555
C30_4 C25_4 1_555 1_555
H15_4 C30_4 1_555 1_555
C31_4 C32_4 1_555 1_555
C32_4 C33_4 1_555 1_555
C33_4 H16_4 1_555 1_555
C34_4 C33_4 1_555 1_555
H17_4 C34_4 1_555 1_555
C35_4 C34_4 1_555 1_555
C36_4 C31_4 1_555 1_555
H18_4 C36_4 1_555 1_555
C37_4 C26_4 1_555 1_555
H19_4 C37_4 1_555 1_555
H20_4 C37_4 1_555 1_555
H21_4 C37_4 1_555 1_555
C38_4 C4_4 1_555 1_555
H22_4 C38_4 1_555 1_555
H23_4 C38_4 1_555 1_555
H24_4 C38_4 1_555 1_555
C39_4 C40_4 1_555 1_555
C40_4 H25_4 1_555 1_555
C41_4 C40_4 1_555 1_555
H26_4 C41_4 1_555 1_555
C42_4 C41_4 1_555 1_555
C43_4 C42_4 1_555 1_555
H27_4 C43_4 1_555 1_555
C44_4 C43_4 1_555 1_555
H28_4 C44_4 1_555 1_555
C45_4 C44_4 1_555 1_555
C46_4 C45_4 1_555 1_555
H29_4 C46_4 1_555 1_555
C47_4 C42_4 1_555 1_555
H30_4 C47_4 1_555 1_555
H34_4 C53_4 1_555 1_555
C61_4 C60_4 1_555 1_555
H39_4 C61_4 1_555 1_555
C62_4 C61_4 1_555 1_555
H40_4 C62_4 1_555 1_555
C63_4 C62_4 1_555 1_555
C64_4 C63_4 1_555 1_555
H41_4 C64_4 1_555 1_555
C65_4 C60_4 1_555 1_555
H42_4 C65_4 1_555 1_555
C66_4 H43_4 1_555 1_555
H44_4 C66_4 1_555 1_555
C67_4 H45_4 1_555 1_555
H46_4 C67_4 1_555 1_555
C68_4 C66_4 1_555 1_555
C69_4 C68_4 1_555 1_555
H47_4 C69_4 1_555 1_555
H48_4 C69_4 1_555 1_555
C70_4 C68_4 1_555 1_555
H49_4 C70_4 1_555 1_555
H50_4 C70_4 1_555 1_555
C78_4 C22_4 1_555 1_555
H56_4 C78_4 1_555 1_555
H57_4 C78_4 1_555 1_555
H58_4 C78_4 1_555 1_555
C79_4 C35_4 1_555 1_555
H59_4 C79_4 1_555 1_555
H60_4 C79_4 1_555 1_555
H61_4 C79_4 1_555 1_555
C80_4 C11_4 1_555 1_555
H62_4 C80_4 1_555 1_555
H63_4 C80_4 1_555 1_555
H64_4 C80_4 1_555 1_555
C81_4 C15_4 1_555 1_555
H65_4 C81_4 1_555 1_555
H66_4 C81_4 1_555 1_555
H67_4 C81_4 1_555 1_555
N1_4 C18_4 1_555 1_555
N2_4 N1_4 1_555 1_555
N3_4 C13_4 1_555 1_555
N4_4 Zn7_2 1_555 1_555
N5_4 Zn1_4 1_555 1_555
N6_4 C1_4 1_555 1_555
N7_4 Zn1_4 1_555 1_555
N8_4 Zn2_4 1_555 1_555
N9_4 Zn1_4 1_555 1_555
N10_4 Zn6_2 1_555 1_555
N11_4 Zn2_4 1_555 1_555
N12_4 C2_4 1_555 1_555
N13_4 Zn8_2 1_555 1_555
N14_4 Zn1_4 1_555 1_555
N15_4 Zn7_2 1_555 1_555
N16_4 Zn6_2 1_555 1_555
N17_4 Zn8_2 1_555 1_555
N18_4 Zn1_4 1_555 1_555
O2_4 Zn2_4 1_555 1_555
O3_4 C63_4 1_555 1_555
O8_4 Zn2_4 1_555 1_555
O9_4 C70_4 1_555 1_555
O10_4 C45_4 1_555 1_555
C5_4 C6_4 1_555 1_555
C7_4 N17_4 1_555 1_555
C8_4 N16_4 1_555 1_555
C11_4 C12_4 1_555 1_555
C17_4 C18_4 1_555 1_555
C19_4 N10_4 1_555 1_555
C20_4 N8_4 1_555 1_555
C23_4 C24_4 1_555 1_555
C28_4 N11_4 1_555 1_555
C29_4 C30_4 1_555 1_555
C29_4 N4_4 1_555 1_555
C31_4 N13_4 1_555 1_555
C32_4 N15_4 1_555 1_555
C35_4 C36_4 1_555 1_555
C39_4 O2_4 1_555 1_555
C39_4 O8_4 1_555 1_555
C46_4 C47_4 1_555 1_555
C64_4 C65_4 1_555 1_555
C66_4 O3_4 1_555 1_555
C67_4 C68_4 1_555 1_555
C67_4 O10_4 1_555 1_555
C69_4 O4_4 1_555 1_555
N2_4 N3_4 1_555 1_555
N4_4 N5_4 1_555 1_555
N5_4 N11_4 1_555 1_555
N6_4 N7_4 1_555 1_555
N7_4 N12_4 1_555 1_555
N8_4 N9_4 1_555 1_555
N9_4 N10_4 1_555 1_555
N13_4 N14_4 1_555 1_555
N14_4 N15_4 1_555 1_555
N16_4 N18_4 1_555 1_555
N17_4 N18_4 1_555 1_555
C48_4 C49_4 1_555 1_555
C49_4 H31_4 1_555 1_555
C50_4 C49_4 1_555 1_555
H32_4 C50_4 1_555 1_555
C51_4 C50_4 1_555 1_555
C52_4 C51_4 1_555 1_555
H33_4 C52_4 1_555 1_555
C55_4 C54_4 1_555 1_555
H35_4 C55_4 1_555 1_555
C56_4 C51_4 1_555 1_555
H36_4 C56_4 1_555 1_555
C71_4 C72_4 1_555 1_555
C72_4 H51_4 1_555 1_555
C73_4 C72_4 1_555 1_555
H52_4 C73_4 1_555 1_555
C74_4 C73_4 1_555 1_555
C75_4 C74_4 1_555 1_555
H53_4 C75_4 1_555 1_555
C76_4 C71_4 1_555 1_555
H54_4 C76_4 1_555 1_555
C77_4 C74_4 1_555 1_555
H55_4 C77_4 1_555 1_555
O13_2 C48_4 1_555 1_555
O16_2 C48_4 1_555 1_555
C82_4 C77_4 1_555 1_555
H68_4 C82_4 1_555 1_555
C83_4 C82_4 1_555 1_555
O17_2 C83_4 1_555 1_555
O18_2 C83_4 1_555 1_555
C55_4 C56_4 1_555 1_555
C75_4 C76_4 1_555 1_555
H60_5 C79_5 1_555 1_555
H61_5 C79_5 1_555 1_555
Zn5_3 N12_5 1_555 1_555
C1_5 C2_5 1_555 1_555
C2_5 C3_5 1_555 1_555
C3_5 H1_5 1_555 1_555
C4_5 C3_5 1_555 1_555
C5_5 C4_5 1_555 1_555
H2_5 C5_5 1_555 1_555
C6_5 C1_5 1_555 1_555
H3_5 C6_5 1_555 1_555
C38_5 C4_5 1_555 1_555
H22_5 C38_5 1_555 1_555
H23_5 C38_5 1_555 1_555
H24_5 C38_5 1_555 1_555
C48_5 C49_5 1_555 1_555
C49_5 H31_5 1_555 1_555
C50_5 C49_5 1_555 1_555
H32_5 C50_5 1_555 1_555
C51_5 C50_5 1_555 1_555
C52_5 C51_5 1_555 1_555
H33_5 C52_5 1_555 1_555
C53_5 C52_5 1_555 1_555
H34_5 C53_5 1_555 1_555
C54_5 C53_5 1_555 1_555
C55_5 C54_5 1_555 1_555
C56_5 C51_5 1_555 1_555
H36_5 C56_5 1_555 1_555
N12_5 C2_5 1_555 1_555
O1_3 C48_5 1_555 1_555
O17_3 Zn5_3 1_555 1_555
O18_3 Zn5_3 1_555 1_555
C5_5 C6_5 1_555 1_555
C55_5 C56_5 1_555 1_555
C7_5 C8_5 1_555 1_555
C8_5 C9_5 1_555 1_555
C9_5 H4_5 1_555 1_555
C10_5 C9_5 1_555 1_555
H5_5 C10_5 1_555 1_555
C11_5 C10_5 1_555 1_555
C12_5 C7_5 1_555 1_555
H6_5 C12_5 1_555 1_555
C80_5 C11_5 1_555 1_555
H62_5 C80_5 1_555 1_555
H63_5 C80_5 1_555 1_555
H64_5 C80_5 1_555 1_555
C7_5 N17_5 1_555 1_555
C11_5 C12_5 1_555 1_555
O7_3 Zn7_3 1_555 1_555
Zn2_5 N6_5 1_555 1_555
C25_5 H13_5 1_555 1_555
C26_5 C25_5 1_555 1_555
C27_5 C26_5 1_555 1_555
H14_5 C27_5 1_555 1_555
C28_5 C27_5 1_555 1_555
C29_5 C28_5 1_555 1_555
C30_5 C25_5 1_555 1_555
H15_5 C30_5 1_555 1_555
C31_5 C32_5 1_555 1_555
C32_5 C33_5 1_555 1_555
C33_5 H16_5 1_555 1_555
C34_5 C33_5 1_555 1_555
H17_5 C34_5 1_555 1_555
C35_5 C34_5 1_555 1_555
C36_5 C31_5 1_555 1_555
C37_5 C26_5 1_555 1_555
H19_5 C37_5 1_555 1_555
H20_5 C37_5 1_555 1_555
H21_5 C37_5 1_555 1_555
C39_5 C40_5 1_555 1_555
C40_5 H25_5 1_555 1_555
C41_5 C40_5 1_555 1_555
H26_5 C41_5 1_555 1_555
C42_5 C41_5 1_555 1_555
C43_5 C42_5 1_555 1_555
H27_5 C43_5 1_555 1_555
C44_5 C43_5 1_555 1_555
H28_5 C44_5 1_555 1_555
C45_5 C44_5 1_555 1_555
C46_5 C45_5 1_555 1_555
H29_5 C46_5 1_555 1_555
C47_5 C42_5 1_555 1_555
H30_5 C47_5 1_555 1_555
C57_5 C58_5 1_555 1_555
C58_5 H37_5 1_555 1_555
C59_5 C58_5 1_555 1_555
H38_5 C59_5 1_555 1_555
C60_5 C59_5 1_555 1_555
C61_5 C60_5 1_555 1_555
H39_5 C61_5 1_555 1_555
C62_5 C61_5 1_555 1_555
H40_5 C62_5 1_555 1_555
C63_5 C62_5 1_555 1_555
C64_5 C63_5 1_555 1_555
H41_5 C64_5 1_555 1_555
C65_5 C60_5 1_555 1_555
H42_5 C65_5 1_555 1_555
C66_5 H43_5 1_555 1_555
H44_5 C66_5 1_555 1_555
C67_5 H45_5 1_555 1_555
H46_5 C67_5 1_555 1_555
C68_5 C66_5 1_555 1_555
C69_5 C68_5 1_555 1_555
H47_5 C69_5 1_555 1_555
H48_5 C69_5 1_555 1_555
C70_5 C68_5 1_555 1_555
H49_5 C70_5 1_555 1_555
H50_5 C70_5 1_555 1_555
C71_5 C72_5 1_555 1_555
C72_5 H51_5 1_555 1_555
C73_5 C72_5 1_555 1_555
H52_5 C73_5 1_555 1_555
C74_5 C73_5 1_555 1_555
C75_5 C74_5 1_555 1_555
H53_5 C75_5 1_555 1_555
C76_5 C71_5 1_555 1_555
H54_5 C76_5 1_555 1_555
C77_5 C74_5 1_555 1_555
H55_5 C77_5 1_555 1_555
N11_5 Zn2_5 1_555 1_555
O2_5 Zn2_5 1_555 1_555
O3_5 C63_5 1_555 1_555
O5_3 C57_5 1_555 1_555
O6_3 C57_5 1_555 1_555
O8_5 Zn2_5 1_555 1_555
O9_5 C70_5 1_555 1_555
O10_5 C45_5 1_555 1_555
C82_5 C77_5 1_555 1_555
H68_5 C82_5 1_555 1_555
C83_5 C82_5 1_555 1_555
O11_3 C83_5 1_555 1_555
O12_3 C83_5 1_555 1_555
Zn6_3 O5_3 1_555 1_555
Zn8_3 O11_3 1_555 1_555
C28_5 N11_5 1_555 1_555
C29_5 C30_5 1_555 1_555
C29_5 N4_5 1_555 1_555
C31_5 N13_5 1_555 1_555
C32_5 N15_5 1_555 1_555
C35_5 C36_5 1_555 1_555
C39_5 O2_5 1_555 1_555
C39_5 O8_5 1_555 1_555
C46_5 C47_5 1_555 1_555
C64_5 C65_5 1_555 1_555
C66_5 O3_5 1_555 1_555
C67_5 C68_5 1_555 1_555
C67_5 O10_5 1_555 1_555
C69_5 O4_5 1_555 1_555
C71_5 O9_5 1_555 1_555
C75_5 C76_5 1_555 1_555
N6_5 N7_5 1_555 1_555
N13_5 N14_5 1_555 1_555
N14_5 N15_5 1_555 1_555
O6_3 Zn6_3 1_555 1_555
O12_3 Zn8_3 1_555 1_555
Zn1_5 N2_5 1_555 1_555
Zn6_3 N1_5 1_555 1_555
Zn4_3 N3_5 1_555 1_555
C13_5 C14_5 1_555 1_555
C14_5 H7_5 1_555 1_555
C15_5 C14_5 1_555 1_555
C16_5 C15_5 1_555 1_555
H8_5 C16_5 1_555 1_555
C17_5 C16_5 1_555 1_555
H9_5 C17_5 1_555 1_555
C18_5 C13_5 1_555 1_555
C19_5 C20_5 1_555 1_555
C20_5 C21_5 1_555 1_555
C21_5 H10_5 1_555 1_555
C22_5 C21_5 1_555 1_555
C23_5 C22_5 1_555 1_555
H11_5 C23_5 1_555 1_555
C24_5 C19_5 1_555 1_555
H12_5 C24_5 1_555 1_555
C78_5 C22_5 1_555 1_555
H56_5 C78_5 1_555 1_555
H57_5 C78_5 1_555 1_555
H58_5 C78_5 1_555 1_555
C81_5 C15_5 1_555 1_555
H65_5 C81_5 1_555 1_555
H66_5 C81_5 1_555 1_555
H67_5 C81_5 1_555 1_555
N1_5 C18_5 1_555 1_555
N2_5 N1_5 1_555 1_555
N3_5 C13_5 1_555 1_555
N5_5 Zn1_5 1_555 1_555
N9_5 Zn1_5 1_555 1_555
N10_5 Zn6_3 1_555 1_555
N16_5 Zn6_3 1_555 1_555
N18_5 Zn1_5 1_555 1_555
O16_3 Zn4_3 1_555 1_555
C17_5 C18_5 1_555 1_555
C19_5 N10_5 1_555 1_555
C20_5 N8_5 1_555 1_555
C23_5 C24_5 1_555 1_555
N2_5 N3_5 1_555 1_555
N8_5 N9_5 1_555 1_555
N9_5 N10_5 1_555 1_555
N16_5 N18_5 1_555 1_555
Zn2_6 N6_6 1_555 1_555
Zn8_3 N12_6 1_555 1_555
C1_6 C2_6 1_555 1_555
C2_6 C3_6 1_555 1_555
C3_6 H1_6 1_555 1_555
C4_6 C3_6 1_555 1_555
C5_6 C4_6 1_555 1_555
H2_6 C5_6 1_555 1_555
C6_6 C1_6 1_555 1_555
H3_6 C6_6 1_555 1_555
C25_6 H13_6 1_555 1_555
C26_6 C25_6 1_555 1_555
C27_6 C26_6 1_555 1_555
H14_6 C27_6 1_555 1_555
C28_6 C27_6 1_555 1_555
C29_6 C28_6 1_555 1_555
C30_6 C25_6 1_555 1_555
H15_6 C30_6 1_555 1_555
C31_6 C32_6 1_555 1_555
C32_6 C33_6 1_555 1_555
C33_6 H16_6 1_555 1_555
C34_6 C33_6 1_555 1_555
H17_6 C34_6 1_555 1_555
C35_6 C34_6 1_555 1_555
C36_6 C31_6 1_555 1_555
H18_6 C36_6 1_555 1_555
C37_6 C26_6 1_555 1_555
H19_6 C37_6 1_555 1_555
H20_6 C37_6 1_555 1_555
H21_6 C37_6 1_555 1_555
C38_6 C4_6 1_555 1_555
H22_6 C38_6 1_555 1_555
H23_6 C38_6 1_555 1_555
H24_6 C38_6 1_555 1_555
C39_6 C40_6 1_555 1_555
C40_6 H25_6 1_555 1_555
C41_6 C40_6 1_555 1_555
H26_6 C41_6 1_555 1_555
C42_6 C41_6 1_555 1_555
C43_6 C42_6 1_555 1_555
H27_6 C43_6 1_555 1_555
C44_6 C43_6 1_555 1_555
H28_6 C44_6 1_555 1_555
C45_6 C44_6 1_555 1_555
C46_6 C45_6 1_555 1_555
H29_6 C46_6 1_555 1_555
C47_6 C42_6 1_555 1_555
H30_6 C47_6 1_555 1_555
H34_6 C53_6 1_555 1_555
C57_6 C58_6 1_555 1_555
C58_6 H37_6 1_555 1_555
C59_6 C58_6 1_555 1_555
H38_6 C59_6 1_555 1_555
C60_6 C59_6 1_555 1_555
C61_6 C60_6 1_555 1_555
H39_6 C61_6 1_555 1_555
C62_6 C61_6 1_555 1_555
H40_6 C62_6 1_555 1_555
C63_6 C62_6 1_555 1_555
C64_6 C63_6 1_555 1_555
H41_6 C64_6 1_555 1_555
C65_6 C60_6 1_555 1_555
H42_6 C65_6 1_555 1_555
C66_6 H43_6 1_555 1_555
H44_6 C66_6 1_555 1_555
C67_6 H45_6 1_555 1_555
H46_6 C67_6 1_555 1_555
C68_6 C66_6 1_555 1_555
C69_6 C68_6 1_555 1_555
H47_6 C69_6 1_555 1_555
H48_6 C69_6 1_555 1_555
C70_6 C68_6 1_555 1_555
H49_6 C70_6 1_555 1_555
H50_6 C70_6 1_555 1_555
C79_6 C35_6 1_555 1_555
H59_6 C79_6 1_555 1_555
H60_6 C79_6 1_555 1_555
H61_6 C79_6 1_555 1_555
N6_6 C1_6 1_555 1_555
N11_6 Zn2_6 1_555 1_555
N12_6 C2_6 1_555 1_555
N13_6 Zn8_3 1_555 1_555
O2_6 Zn2_6 1_555 1_555
O3_6 C63_6 1_555 1_555
O5_4 C57_6 1_555 1_555
O6_4 C57_6 1_555 1_555
O8_6 Zn2_6 1_555 1_555
O9_6 C70_6 1_555 1_555
O10_6 C45_6 1_555 1_555
Zn6_4 O5_4 1_555 1_555
C5_6 C6_6 1_555 1_555
C28_6 N11_6 1_555 1_555
C29_6 C30_6 1_555 1_555
C29_6 N4_6 1_555 1_555
C31_6 N13_6 1_555 1_555
C32_6 N15_6 1_555 1_555
C35_6 C36_6 1_555 1_555
C39_6 O2_6 1_555 1_555
C39_6 O8_6 1_555 1_555
C46_6 C47_6 1_555 1_555
C64_6 C65_6 1_555 1_555
C66_6 O3_6 1_555 1_555
C67_6 C68_6 1_555 1_555
C67_6 O10_6 1_555 1_555
C69_6 O4_6 1_555 1_555
N6_6 N7_6 1_555 1_555
N7_6 N12_6 1_555 1_555
N13_6 N14_6 1_555 1_555
N14_6 N15_6 1_555 1_555
O6_4 Zn6_4 1_555 1_555
Zn1_6 N2_6 1_555 1_555
Zn6_4 N1_6 1_555 1_555
Zn7_3 N3_6 1_555 1_555
C7_6 C8_6 1_555 1_555
C8_6 C9_6 1_555 1_555
C9_6 H4_6 1_555 1_555
C10_6 C9_6 1_555 1_555
H5_6 C10_6 1_555 1_555
C11_6 C10_6 1_555 1_555
C12_6 C7_6 1_555 1_555
H6_6 C12_6 1_555 1_555
C13_6 C14_6 1_555 1_555
C14_6 H7_6 1_555 1_555
C15_6 C14_6 1_555 1_555
C16_6 C15_6 1_555 1_555
H8_6 C16_6 1_555 1_555
C17_6 C16_6 1_555 1_555
H9_6 C17_6 1_555 1_555
C18_6 C13_6 1_555 1_555
C19_6 C20_6 1_555 1_555
C20_6 C21_6 1_555 1_555
C21_6 H10_6 1_555 1_555
C22_6 C21_6 1_555 1_555
C23_6 C22_6 1_555 1_555
H11_6 C23_6 1_555 1_555
C24_6 C19_6 1_555 1_555
H12_6 C24_6 1_555 1_555
C78_6 C22_6 1_555 1_555
H56_6 C78_6 1_555 1_555
H57_6 C78_6 1_555 1_555
H58_6 C78_6 1_555 1_555
C80_6 C11_6 1_555 1_555
H62_6 C80_6 1_555 1_555
H63_6 C80_6 1_555 1_555
H64_6 C80_6 1_555 1_555
C81_6 C15_6 1_555 1_555
H65_6 C81_6 1_555 1_555
H66_6 C81_6 1_555 1_555
H67_6 C81_6 1_555 1_555
N1_6 C18_6 1_555 1_555
N2_6 N1_6 1_555 1_555
N3_6 C13_6 1_555 1_555
N5_6 Zn1_6 1_555 1_555
N9_6 Zn1_6 1_555 1_555
N10_6 Zn6_4 1_555 1_555
N16_6 Zn6_4 1_555 1_555
N18_6 Zn1_6 1_555 1_555
C7_6 N17_6 1_555 1_555
C8_6 N16_6 1_555 1_555
C11_6 C12_6 1_555 1_555
C17_6 C18_6 1_555 1_555
C19_6 N10_6 1_555 1_555
C20_6 N8_6 1_555 1_555
C23_6 C24_6 1_555 1_555
N2_6 N3_6 1_555 1_555
N8_6 N9_6 1_555 1_555
N9_6 N10_6 1_555 1_555
N16_6 N18_6 1_555 1_555
N17_6 N18_6 1_555 1_555
C48_6 C49_6 1_555 1_555
C49_6 H31_6 1_555 1_555
C50_6 C49_6 1_555 1_555
H32_6 C50_6 1_555 1_555
C51_6 C50_6 1_555 1_555
C52_6 C51_6 1_555 1_555
H33_6 C52_6 1_555 1_555
C55_6 C54_6 1_555 1_555
H35_6 C55_6 1_555 1_555
C56_6 C51_6 1_555 1_555
H36_6 C56_6 1_555 1_555
C71_6 C72_6 1_555 1_555
C72_6 H51_6 1_555 1_555
C73_6 C72_6 1_555 1_555
H52_6 C73_6 1_555 1_555
C74_6 C73_6 1_555 1_555
C75_6 C74_6 1_555 1_555
H53_6 C75_6 1_555 1_555
C76_6 C71_6 1_555 1_555
H54_6 C76_6 1_555 1_555
C77_6 C74_6 1_555 1_555
H55_6 C77_6 1_555 1_555
O13_3 C48_6 1_555 1_555
C82_6 C77_6 1_555 1_555
H68_6 C82_6 1_555 1_555
C83_6 C82_6 1_555 1_555
O17_3 C83_6 1_555 1_555
O18_3 C83_6 1_555 1_555
C55_6 C56_6 1_555 1_555
C75_6 C76_6 1_555 1_555
Zn5_4 N12_7 1_555 1_555
C1_7 C2_7 1_555 1_555
C2_7 C3_7 1_555 1_555
C3_7 H1_7 1_555 1_555
C4_7 C3_7 1_555 1_555
C5_7 C4_7 1_555 1_555
H2_7 C5_7 1_555 1_555
C6_7 C1_7 1_555 1_555
H3_7 C6_7 1_555 1_555
C7_7 C8_7 1_555 1_555
C8_7 C9_7 1_555 1_555
C9_7 H4_7 1_555 1_555
C10_7 C9_7 1_555 1_555
H5_7 C10_7 1_555 1_555
C11_7 C10_7 1_555 1_555
C12_7 C7_7 1_555 1_555
H6_7 C12_7 1_555 1_555
C38_7 C4_7 1_555 1_555
H22_7 C38_7 1_555 1_555
H23_7 C38_7 1_555 1_555
H24_7 C38_7 1_555 1_555
C48_7 C49_7 1_555 1_555
C49_7 H31_7 1_555 1_555
C50_7 C49_7 1_555 1_555
H32_7 C50_7 1_555 1_555
C51_7 C50_7 1_555 1_555
C52_7 C51_7 1_555 1_555
H33_7 C52_7 1_555 1_555
C53_7 C52_7 1_555 1_555
H34_7 C53_7 1_555 1_555
C54_7 C53_7 1_555 1_555
C55_7 C54_7 1_555 1_555
C56_7 C51_7 1_555 1_555
H36_7 C56_7 1_555 1_555
C80_7 C11_7 1_555 1_555
H62_7 C80_7 1_555 1_555
H63_7 C80_7 1_555 1_555
H64_7 C80_7 1_555 1_555
N12_7 C2_7 1_555 1_555
N17_7 Zn5_4 1_555 1_555
O1_4 C48_7 1_555 1_555
O7_4 C48_7 1_555 1_555
Zn7_4 O1_4 1_555 1_555
O17_4 Zn5_4 1_555 1_555
O18_4 Zn5_4 1_555 1_555
C5_7 C6_7 1_555 1_555
C7_7 N17_7 1_555 1_555
C11_7 C12_7 1_555 1_555
C55_7 C56_7 1_555 1_555
O7_4 Zn7_4 1_555 1_555
Zn1_7 N2_7 1_555 1_555
Zn2_7 N6_7 1_555 1_555
Zn3_3 N1_7 1_555 1_555
Zn4_4 N3_7 1_555 1_555
C13_7 C14_7 1_555 1_555
C14_7 H7_7 1_555 1_555
C15_7 C14_7 1_555 1_555
C16_7 C15_7 1_555 1_555
H8_7 C16_7 1_555 1_555
C17_7 C16_7 1_555 1_555
H9_7 C17_7 1_555 1_555
C18_7 C13_7 1_555 1_555
C19_7 C20_7 1_555 1_555
C20_7 C21_7 1_555 1_555
C21_7 H10_7 1_555 1_555
C22_7 C21_7 1_555 1_555
C23_7 C22_7 1_555 1_555
H11_7 C23_7 1_555 1_555
C24_7 C19_7 1_555 1_555
H12_7 C24_7 1_555 1_555
C25_7 H13_7 1_555 1_555
C26_7 C25_7 1_555 1_555
C27_7 C26_7 1_555 1_555
H14_7 C27_7 1_555 1_555
C28_7 C27_7 1_555 1_555
C29_7 C28_7 1_555 1_555
C30_7 C25_7 1_555 1_555
H15_7 C30_7 1_555 1_555
C31_7 C32_7 1_555 1_555
C32_7 C33_7 1_555 1_555
C33_7 H16_7 1_555 1_555
C34_7 C33_7 1_555 1_555
H17_7 C34_7 1_555 1_555
C35_7 C34_7 1_555 1_555
C36_7 C31_7 1_555 1_555
C37_7 C26_7 1_555 1_555
H19_7 C37_7 1_555 1_555
H20_7 C37_7 1_555 1_555
H21_7 C37_7 1_555 1_555
C39_7 C40_7 1_555 1_555
C40_7 H25_7 1_555 1_555
C41_7 C40_7 1_555 1_555
H26_7 C41_7 1_555 1_555
C42_7 C41_7 1_555 1_555
C43_7 C42_7 1_555 1_555
H27_7 C43_7 1_555 1_555
C44_7 C43_7 1_555 1_555
H28_7 C44_7 1_555 1_555
C45_7 C44_7 1_555 1_555
C46_7 C45_7 1_555 1_555
H29_7 C46_7 1_555 1_555
C47_7 C42_7 1_555 1_555
H30_7 C47_7 1_555 1_555
C61_7 C60_7 1_555 1_555
H39_7 C61_7 1_555 1_555
C62_7 C61_7 1_555 1_555
H40_7 C62_7 1_555 1_555
C63_7 C62_7 1_555 1_555
C64_7 C63_7 1_555 1_555
H41_7 C64_7 1_555 1_555
C65_7 C60_7 1_555 1_555
H42_7 C65_7 1_555 1_555
C66_7 H43_7 1_555 1_555
H44_7 C66_7 1_555 1_555
C67_7 H45_7 1_555 1_555
H46_7 C67_7 1_555 1_555
C68_7 C66_7 1_555 1_555
C69_7 C68_7 1_555 1_555
H47_7 C69_7 1_555 1_555
H48_7 C69_7 1_555 1_555
C70_7 C68_7 1_555 1_555
H49_7 C70_7 1_555 1_555
H50_7 C70_7 1_555 1_555
C71_7 C72_7 1_555 1_555
C72_7 H51_7 1_555 1_555
C73_7 C72_7 1_555 1_555
H52_7 C73_7 1_555 1_555
C74_7 C73_7 1_555 1_555
C75_7 C74_7 1_555 1_555
H53_7 C75_7 1_555 1_555
C76_7 C71_7 1_555 1_555
H54_7 C76_7 1_555 1_555
C77_7 C74_7 1_555 1_555
H55_7 C77_7 1_555 1_555
C78_7 C22_7 1_555 1_555
H56_7 C78_7 1_555 1_555
H57_7 C78_7 1_555 1_555
H58_7 C78_7 1_555 1_555
C81_7 C15_7 1_555 1_555
H65_7 C81_7 1_555 1_555
H66_7 C81_7 1_555 1_555
H67_7 C81_7 1_555 1_555
N1_7 C18_7 1_555 1_555
N2_7 N1_7 1_555 1_555
N3_7 C13_7 1_555 1_555
N4_7 Zn4_4 1_555 1_555
N5_7 Zn1_7 1_555 1_555
N7_7 Zn1_7 1_555 1_555
N8_7 Zn2_7 1_555 1_555
N9_7 Zn1_7 1_555 1_555
N10_7 Zn3_3 1_555 1_555
N11_7 Zn2_7 1_555 1_555
N14_7 Zn1_7 1_555 1_555
N15_7 Zn4_4 1_555 1_555
N16_7 Zn3_3 1_555 1_555
N18_7 Zn1_7 1_555 1_555
O2_7 Zn2_7 1_555 1_555
O3_7 C63_7 1_555 1_555
O8_7 Zn2_7 1_555 1_555
O9_7 C70_7 1_555 1_555
O10_7 C45_7 1_555 1_555
C82_7 C77_7 1_555 1_555
H68_7 C82_7 1_555 1_555
C83_7 C82_7 1_555 1_555
O11_4 C83_7 1_555 1_555
O12_4 C83_7 1_555 1_555
Zn8_4 O11_4 1_555 1_555
O13_4 Zn4_4 1_555 1_555
O14_3 Zn3_3 1_555 1_555
O15_3 Zn3_3 1_555 1_555
O16_4 Zn4_4 1_555 1_555
C17_7 C18_7 1_555 1_555
C19_7 N10_7 1_555 1_555
C20_7 N8_7 1_555 1_555
C23_7 C24_7 1_555 1_555
C28_7 N11_7 1_555 1_555
C29_7 C30_7 1_555 1_555
C29_7 N4_7 1_555 1_555
C31_7 N13_7 1_555 1_555
C32_7 N15_7 1_555 1_555
C35_7 C36_7 1_555 1_555
C39_7 O2_7 1_555 1_555
C39_7 O8_7 1_555 1_555
C46_7 C47_7 1_555 1_555
C64_7 C65_7 1_555 1_555
C66_7 O3_7 1_555 1_555
C67_7 C68_7 1_555 1_555
C67_7 O10_7 1_555 1_555
C69_7 O4_7 1_555 1_555
C71_7 O9_7 1_555 1_555
C75_7 C76_7 1_555 1_555
N2_7 N3_7 1_555 1_555
N4_7 N5_7 1_555 1_555
N5_7 N11_7 1_555 1_555
N6_7 N7_7 1_555 1_555
N8_7 N9_7 1_555 1_555
N9_7 N10_7 1_555 1_555
N13_7 N14_7 1_555 1_555
N14_7 N15_7 1_555 1_555
N16_7 N18_7 1_555 1_555
O12_4 Zn8_4 1_555 1_555
C57_7 C58_7 1_555 1_555
C58_7 H37_7 1_555 1_555
C59_7 C58_7 1_555 1_555
H38_7 C59_7 1_555 1_555
O14_3 C57_7 1_555 1_555
O15_3 C57_7 1_555 1_555
C48_8 C49_8 1_555 1_555
C49_8 H31_8 1_555 1_555
C50_8 C49_8 1_555 1_555
H32_8 C50_8 1_555 1_555
C51_8 C50_8 1_555 1_555
C52_8 C51_8 1_555 1_555
H33_8 C52_8 1_555 1_555
C55_8 C54_8 1_555 1_555
H35_8 C55_8 1_555 1_555
C56_8 C51_8 1_555 1_555
H36_8 C56_8 1_555 1_555
C71_8 C72_8 1_555 1_555
C72_8 H51_8 1_555 1_555
C73_8 C72_8 1_555 1_555
H52_8 C73_8 1_555 1_555
C74_8 C73_8 1_555 1_555
C75_8 C74_8 1_555 1_555
H53_8 C75_8 1_555 1_555
C76_8 C71_8 1_555 1_555
H54_8 C76_8 1_555 1_555
C77_8 C74_8 1_555 1_555
H55_8 C77_8 1_555 1_555
O13_4 C48_8 1_555 1_555
O16_4 C48_8 1_555 1_555
C82_8 C77_8 1_555 1_555
H68_8 C82_8 1_555 1_555
C83_8 C82_8 1_555 1_555
O17_4 C83_8 1_555 1_555
O18_4 C83_8 1_555 1_555
C55_8 C56_8 1_555 1_555
C75_8 C76_8 1_555 1_555
Zn1_8 N2_8 1_555 1_555
Zn2_8 N6_8 1_555 1_555
Zn3_4 N1_8 1_555 1_555
Zn7_4 N3_8 1_555 1_555
Zn8_4 N12_8 1_555 1_555
C1_8 C2_8 1_555 1_555
C2_8 C3_8 1_555 1_555
C3_8 H1_8 1_555 1_555
C4_8 C3_8 1_555 1_555
C5_8 C4_8 1_555 1_555
H2_8 C5_8 1_555 1_555
C6_8 C1_8 1_555 1_555
H3_8 C6_8 1_555 1_555
C7_8 C8_8 1_555 1_555
C8_8 C9_8 1_555 1_555
C9_8 H4_8 1_555 1_555
C10_8 C9_8 1_555 1_555
H5_8 C10_8 1_555 1_555
C11_8 C10_8 1_555 1_555
C12_8 C7_8 1_555 1_555
H6_8 C12_8 1_555 1_555
C13_8 C14_8 1_555 1_555
C14_8 H7_8 1_555 1_555
C15_8 C14_8 1_555 1_555
C16_8 C15_8 1_555 1_555
H8_8 C16_8 1_555 1_555
C17_8 C16_8 1_555 1_555
H9_8 C17_8 1_555 1_555
C18_8 C13_8 1_555 1_555
C19_8 C20_8 1_555 1_555
C20_8 C21_8 1_555 1_555
C21_8 H10_8 1_555 1_555
C22_8 C21_8 1_555 1_555
C23_8 C22_8 1_555 1_555
H11_8 C23_8 1_555 1_555
C24_8 C19_8 1_555 1_555
H12_8 C24_8 1_555 1_555
C25_8 H13_8 1_555 1_555
C26_8 C25_8 1_555 1_555
C27_8 C26_8 1_555 1_555
H14_8 C27_8 1_555 1_555
C28_8 C27_8 1_555 1_555
C29_8 C28_8 1_555 1_555
C30_8 C25_8 1_555 1_555
H15_8 C30_8 1_555 1_555
C31_8 C32_8 1_555 1_555
C32_8 C33_8 1_555 1_555
C33_8 H16_8 1_555 1_555
C34_8 C33_8 1_555 1_555
H17_8 C34_8 1_555 1_555
C35_8 C34_8 1_555 1_555
C36_8 C31_8 1_555 1_555
H18_8 C36_8 1_555 1_555
C37_8 C26_8 1_555 1_555
H19_8 C37_8 1_555 1_555
H20_8 C37_8 1_555 1_555
H21_8 C37_8 1_555 1_555
C38_8 C4_8 1_555 1_555
H22_8 C38_8 1_555 1_555
H23_8 C38_8 1_555 1_555
H24_8 C38_8 1_555 1_555
C39_8 C40_8 1_555 1_555
C40_8 H25_8 1_555 1_555
C41_8 C40_8 1_555 1_555
H26_8 C41_8 1_555 1_555
C42_8 C41_8 1_555 1_555
C43_8 C42_8 1_555 1_555
H27_8 C43_8 1_555 1_555
C44_8 C43_8 1_555 1_555
H28_8 C44_8 1_555 1_555
C45_8 C44_8 1_555 1_555
C46_8 C45_8 1_555 1_555
H29_8 C46_8 1_555 1_555
C47_8 C42_8 1_555 1_555
H30_8 C47_8 1_555 1_555
H34_8 C53_8 1_555 1_555
C61_8 C60_8 1_555 1_555
H39_8 C61_8 1_555 1_555
C62_8 C61_8 1_555 1_555
H40_8 C62_8 1_555 1_555
C63_8 C62_8 1_555 1_555
C64_8 C63_8 1_555 1_555
H41_8 C64_8 1_555 1_555
C65_8 C60_8 1_555 1_555
H42_8 C65_8 1_555 1_555
C66_8 H43_8 1_555 1_555
H44_8 C66_8 1_555 1_555
C67_8 H45_8 1_555 1_555
H46_8 C67_8 1_555 1_555
C68_8 C66_8 1_555 1_555
C69_8 C68_8 1_555 1_555
H47_8 C69_8 1_555 1_555
H48_8 C69_8 1_555 1_555
C70_8 C68_8 1_555 1_555
H49_8 C70_8 1_555 1_555
H50_8 C70_8 1_555 1_555
C78_8 C22_8 1_555 1_555
H56_8 C78_8 1_555 1_555
H57_8 C78_8 1_555 1_555
H58_8 C78_8 1_555 1_555
C79_7 C35_8 1_555 1_555
H59_7 C79_7 1_555 1_555
H60_7 C79_7 1_555 1_555
H61_7 C79_7 1_555 1_555
C80_8 C11_8 1_555 1_555
H62_8 C80_8 1_555 1_555
H63_8 C80_8 1_555 1_555
H64_8 C80_8 1_555 1_555
C81_8 C15_8 1_555 1_555
H65_8 C81_8 1_555 1_555
H66_8 C81_8 1_555 1_555
H67_8 C81_8 1_555 1_555
N1_8 C18_8 1_555 1_555
N2_8 N1_8 1_555 1_555
N3_8 C13_8 1_555 1_555
N4_8 Zn7_4 1_555 1_555
N5_8 Zn1_8 1_555 1_555
N6_8 C1_8 1_555 1_555
N7_8 Zn1_8 1_555 1_555
N8_8 Zn2_8 1_555 1_555
N9_8 Zn1_8 1_555 1_555
N10_8 Zn3_4 1_555 1_555
N11_8 Zn2_8 1_555 1_555
N12_8 C2_8 1_555 1_555
N13_8 Zn8_4 1_555 1_555
N14_8 Zn1_8 1_555 1_555
N15_8 Zn7_4 1_555 1_555
N16_8 Zn3_4 1_555 1_555
N17_8 Zn8_4 1_555 1_555
N18_8 Zn1_8 1_555 1_555
O2_8 Zn2_8 1_555 1_555
O3_8 C63_8 1_555 1_555
O8_8 Zn2_8 1_555 1_555
O9_8 C70_8 1_555 1_555
O10_8 C45_8 1_555 1_555
O14_4 Zn3_4 1_555 1_555
O15_4 Zn3_4 1_555 1_555
C5_8 C6_8 1_555 1_555
C7_8 N17_8 1_555 1_555
C8_8 N16_8 1_555 1_555
C11_8 C12_8 1_555 1_555
C17_8 C18_8 1_555 1_555
C19_8 N10_8 1_555 1_555
C20_8 N8_8 1_555 1_555
C23_8 C24_8 1_555 1_555
C28_8 N11_8 1_555 1_555
C29_8 C30_8 1_555 1_555
C29_8 N4_8 1_555 1_555
C31_8 N13_8 1_555 1_555
C32_8 N15_8 1_555 1_555
C35_8 C36_8 1_555 1_555
C39_8 O2_8 1_555 1_555
C39_8 O8_8 1_555 1_555
C46_8 C47_8 1_555 1_555
C64_8 C65_8 1_555 1_555
C66_8 O3_8 1_555 1_555
C67_8 C68_8 1_555 1_555
C67_8 O10_8 1_555 1_555
C69_8 O4_8 1_555 1_555
N2_8 N3_8 1_555 1_555
N4_8 N5_8 1_555 1_555
N5_8 N11_8 1_555 1_555
N6_8 N7_8 1_555 1_555
N7_8 N12_8 1_555 1_555
N8_8 N9_8 1_555 1_555
N9_8 N10_8 1_555 1_555
N13_8 N14_8 1_555 1_555
N14_8 N15_8 1_555 1_555
N16_8 N18_8 1_555 1_555
N17_8 N18_8 1_555 1_555
C57_8 C58_8 1_555 1_555
C58_8 H37_8 1_555 1_555
C59_8 C58_8 1_555 1_555
H38_8 C59_8 1_555 1_555
O14_4 C57_8 1_555 1_555
O15_4 C57_8 1_555 1_555
H60_8 C79_8 1_555 1_555
H61_8 C79_8 1_555 1_555

#END
