
###############################################################################
#
# This file contains modified crystal structure data generated from the
# MOF subset of the Cambridge Structural Database (CSD) v543 
# hosted by the Cambridge Crystallographic Data Centre (CCDC).
#
# This work is licensed under the Creative Commons
# Attribution-NonCommercial-ShareAlike 4.0 International License.
# To view a copy of this license, visit
# http://creativecommons.org/licenses/by-nc-sa/4.0/
# or send a letter to
# Creative Commons, PO Box 1866, Mountain View, CA 94042, USA.
#
# CIF created using the CSD Python API on 29 September 2022
# The structure has been converted into the P1 space group
# The structure has a 3D framework
# The original CSD entry FAZFET is in the tetragonal crystal system
# The framework has been calculated to contain at least 10.0% void space
# The void calculation uses a probe of radius 1.32A, grid spacing 0.4
# H atom positions have been added when not included in the experimental data
#
###############################################################################

data_FAZFET
_chemical_formula_moiety         '(C288 H1200 Co80 Ge64 N288 O752 V256)n'
_symmetry_cell_setting           triclinic
_symmetry_space_group_name_H-M   'P 1'
_symmetry_Int_Tables_number      1
_space_group_name_Hall           'P 1'
loop_
_symmetry_equiv_pos_site_id
_symmetry_equiv_pos_as_xyz
1 x,y,z
_cell_length_a                   30.5983(18)
_cell_length_b                   30.5983(18)
_cell_length_c                   35.422(3)
_cell_angle_alpha                90
_cell_angle_beta                 90
_cell_angle_gamma                90
_cell_volume                     33164.1
loop_
_atom_site_label
_atom_site_type_symbol
_atom_site_fract_x
_atom_site_fract_y
_atom_site_fract_z
Co14 Co 0.59850(6) 0.11049(5) 0.16281(5)
Ge6 Ge 0.79583(4) 0.07095(4) 0.13233(4)
V17 V 0.84872(6) 0.04609(6) 0.04898(6)
V22 V 0.62008(6) 0.03264(6) 0.03004(6)
V23 V 0.68479(6) 0.10874(6) 0.03572(7)
V24 V 0.77591(6) 0.11531(6) 0.04852(6)
V31 V 0.68888(6) 0.06655(6) 0.11013(6)
O50 O 0.8109(3) 0.0806(2) 0.0855(2)
O51 O 0.8126(2) 0.0797(2) 0.0153(2)
O52 O 0.8962(3) 0.0677(3) 0.0524(3)
O65 O 0.6536(3) 0.0667(2) 0.0658(3)
O67 O 0.5703(3) 0.0485(3) 0.0309(3)
O68 O 0.7246(2) 0.1047(2) 0.0783(3)
O69 O 0.7377(3) 0.1110(2) 0.0053(3)
O70 O 0.6603(3) 0.1558(3) 0.0357(3)
O71 O 0.7923(3) 0.1653(3) 0.0514(3)
O83 O 0.7450(2) 0.0462(2) 0.1350(2)
O84 O 0.6758(3) 0.0067(3) 0.1203(2)
O86 O 0.6622(3) 0.0955(3) 0.1403(3)
O89 O 0.8340(3) 0.0347(2) 0.1532(2)
O93 O 0.7954(3) 0.1192(3) 0.1596(3)
H135 H 0.9239 0.1298 0.0077
H44 H 0.5458 0.0088 0.8240
Co6 Co 0.41153(5) 0.07392(5) 0.86811(5)
Co15 Co 0.86555(6) 0.12087(6) 0.91374(6)
Ge8 Ge 0.66858(4) 0.07377(4) 0.94822(4)
V26 V 0.74899(6) 0.00178(6) 0.92621(6)
V28 V 0.77690(6) 0.08216(6) 0.97044(6)
N19 N 0.3554(3) 0.1132(4) 0.8609(4)
H75 H 0.3421 0.1167 0.8834
H76 H 0.3636 0.1398 0.8526
N20 N 0.3698(4) 0.0282(5) 0.8392(4)
H77 H 0.3787 0.0254 0.8151
H78 H 0.3718 0.0018 0.8503
N21 N 0.4676(4) 0.0367(4) 0.8578(4)
H79 H 0.4901 0.0555 0.8603
H80 H 0.4696 0.0182 0.8775
N30 N 0.8953(4) 0.0980(4) 0.9623(4)
H97 H 0.8753 0.0859 0.9778
H98 H 0.9153 0.0775 0.9565
N31 N 0.8760(4) 0.1813(4) 0.9394(4)
H99 H 0.8985 0.1951 0.9281
H100 H 0.8521 0.1981 0.9370
N32 N 0.8526(4) 0.0623(4) 0.8873(4)
H101 H 0.8771 0.0459 0.8866
H102 H 0.8322 0.0475 0.9003
N33 N 0.8326(4) 0.1465(4) 0.8676(4)
H103 H 0.8143 0.1679 0.8751
H104 H 0.8517 0.1578 0.8510
O66 O 0.6533(3) 0.0744(3) 0.9956(3)
O72 O 0.7969(2) 0.0262(2) 0.9547(3)
O75 O 0.7236(2) 0.0577(3) 0.9441(3)
O77 O 0.7584(3) 0.0058(3) 0.8819(3)
O79 O 0.7997(3) 0.1183(3) 0.9431(3)
O92 O 0.4521(3) 0.1201(3) 0.8981(2)
O94 O 0.6357(2) 0.0352(3) 0.9243(3)
O96 O 0.3983(3) 0.0554(3) 0.9237(2)
O97 O 0.6602(3) 0.1245(3) 0.9273(3)
C19 C 0.3262(5) 0.0953(5) 0.8357(5)
H115 H 0.3345 0.1032 0.8101
H116 H 0.2972 0.1069 0.8404
C20 C 0.3256(6) 0.0428(6) 0.8399(6)
H117 H 0.3118 0.0346 0.8635
H118 H 0.3093 0.0298 0.8193
C21 C 0.4773(7) 0.0126(7) 0.8273(6)
H119 H 0.4767 0.0317 0.8054
C29 C 0.9172(6) 0.1369(6) 0.9817(6)
H136 H 0.9443 0.1442 0.9689
C30 C 0.8860(5) 0.1748(6) 0.9799(5)
H137 H 0.8595 0.1683 0.9939
H138 H 0.8992 0.2008 0.9905
C31 C 0.8379(5) 0.0700(5) 0.8506(5)
H139 H 0.8227 0.0443 0.8413
H140 H 0.8627 0.0754 0.8342
C32 C 0.8069(5) 0.1095(5) 0.8495(5)
H141 H 0.7991 0.1167 0.8237
H142 H 0.7804 0.1035 0.8636
Co8 Co 0.92608(5) 0.91153(5) 0.11811(5)
Co11 Co 0.89327(5) 0.93713(5) 0.20334(5)
Co16 Co 0.79511(7) 0.76689(5) 0.00498(6)
Ge5 Ge 0.83818(4) 0.98227(4) 0.13044(4)
V18 V 0.85453(6) 0.94693(6) 0.04612(6)
V19 V 0.79282(6) 0.87805(5) 0.03047(6)
V20 V 0.69582(6) 0.87423(6) 0.02870(6)
V21 V 0.62726(6) 0.93444(6) 0.02235(6)
V29 V 0.76634(6) 0.90289(6) 0.10911(6)
V30 V 0.72692(6) 0.98456(6) 0.14612(6)
V32 V 0.65431(6) 0.95030(6) 0.10235(6)
N36 N 0.8293(6) 0.7457(5) 0.0530(5)
H109 H 0.8441 0.7211 0.0473
H110 H 0.8490 0.7662 0.0595
N37 N 0.7427(5) 0.7610(4) 0.0444(4)
H111 H 0.7234 0.7828 0.0406
H112 H 0.7288 0.7355 0.0407
O48 O 0.8462(3) 0.9948(2) 0.0830(2)
O49 O 0.8505(2) 0.9982(2) 0.0139(2)
O53 O 0.8154(3) 0.9100(2) 0.0745(2)
O54 O 0.8257(2) 0.9214(2) 0.0034(2)
O55 O 0.9040(3) 0.9278(3) 0.0519(3)
O56 O 0.7430(2) 0.8739(2) 0.0647(2)
O58 O 0.8150(3) 0.8308(2) 0.0250(3)
O59 O 0.6581(2) 0.9063(2) 0.0629(2)
O61 O 0.6772(3) 0.8250(3) 0.0249(3)
O62 O 0.6244(3) 0.9798(2) 0.0604(2)
O64 O 0.5806(2) 0.9104(2) 0.0132(2)
O80 O 0.7858(3) 0.9595(3) 0.1350(3)
O81 O 0.7117(3) 0.9317(2) 0.1199(2)
O82 O 0.7758(3) 0.8647(3) 0.1393(3)
O85 O 0.7181(3) 0.9791(3) 0.1909(3)
O90 O 0.8799(3) 0.9521(3) 0.1481(2)
H123 H 0.5708 0.8227 0.0198
H124 H 0.5445 0.7831 0.0034
H128 H 0.9440 0.8623 0.0022
C35 C 0.8005(7) 0.7369(6) 0.0855(6)
H147 H 0.8157 0.7444 0.1087
H148 H 0.7936 0.7060 0.0863
C36 C 0.7586(7) 0.7630(6) 0.0830(6)
H149 H 0.7370 0.7509 0.1001
H150 H 0.7640 0.7931 0.0902
O99 O 0.6153(3) 0.9385(3) 0.1328(3)
Co1 Co 0.58847(5) 0.92608(5) 0.86811(5)
Co2 Co 0.60673(5) 0.56287(5) 0.70334(5)
Co3 Co 0.59850(6) 0.88951(5) 0.66281(5)
Co4 Co 0.37913(6) 0.86555(6) 0.66374(6)
Co5 Co 0.73311(5) 0.79511(7) 0.75498(6)
Ge1 Ge 0.51773(4) 0.83818(4) 0.88044(4)
Ge2 Ge 0.42905(4) 0.79583(4) 0.88233(4)
Ge3 Ge 0.51941(4) 0.63815(3) 0.69208(4)
Ge4 Ge 0.42623(4) 0.66858(4) 0.69822(4)
V1 V 0.45391(6) 0.84872(6) 0.79898(6)
V2 V 0.55307(6) 0.85453(6) 0.79612(6)
V3 V 0.62195(5) 0.79282(6) 0.78047(6)
V4 V 0.62577(6) 0.69582(6) 0.77870(6)
V5 V 0.56556(6) 0.62726(6) 0.77235(6)
V6 V 0.46736(6) 0.62008(6) 0.78004(6)
V7 V 0.39126(6) 0.68479(6) 0.78572(7)
V8 V 0.38469(6) 0.77591(6) 0.79852(6)
V9 V 0.52903(6) 0.82631(6) 0.71870(6)
V10 V 0.49822(6) 0.74899(6) 0.67621(6)
V11 V 0.58711(6) 0.72019(5) 0.70396(6)
V12 V 0.41784(6) 0.77690(6) 0.72044(6)
V13 V 0.59711(6) 0.76634(6) 0.85911(6)
V14 V 0.51544(6) 0.72692(6) 0.89612(6)
V15 V 0.43345(6) 0.68888(6) 0.86013(6)
V16 V 0.54970(6) 0.65431(6) 0.85235(6)
N1 N 0.6446(3) 0.8868(4) 0.8609(4)
H1 H 0.6579 0.8833 0.8834
H2 H 0.6364 0.8602 0.8526
N2 N 0.6302(4) 0.9718(5) 0.8392(4)
H3 H 0.6213 0.9746 0.8151
H4 H 0.6282 0.9982 0.8503
N3 N 0.5324(4) 0.9633(4) 0.8578(4)
H5 H 0.5099 0.9445 0.8603
H6 H 0.5304 0.9818 0.8775
N4 N 0.6573(4) 0.6108(3) 0.7050(3)
H7 H 0.6620 0.6207 0.6814
H8 H 0.6482 0.6335 0.7191
N5 N 0.6588(4) 0.5255(4) 0.7311(4)
H9 H 0.6477 0.5088 0.7497
H10 H 0.6725 0.5082 0.7144
N6 N 0.5615(4) 0.5098(3) 0.7122(3)
H11 H 0.5654 0.4903 0.6935
H12 H 0.5689 0.4964 0.7339
N7 N 0.6304(6) 0.8952(6) 0.7145(5)
H13 H 0.6152 0.8809 0.7324
H14 H 0.6571 0.8830 0.7129
N8 N 0.5863(6) 0.9566(6) 0.6716(6)
H15 H 0.6044 0.9729 0.6573
H16 H 0.5586 0.9631 0.6652
N9 N 0.6137(6) 0.8225(5) 0.6501(5)
H17 H 0.6427 0.8180 0.6520
H18 H 0.6000 0.8047 0.6664
N10 N 0.5702(6) 0.8869(6) 0.6086(5)
H19 H 0.5452 0.9024 0.6083
H20 H 0.5886 0.8986 0.5915
N11 N 0.4020(4) 0.8953(4) 0.7123(4)
H21 H 0.4141 0.8753 0.7278
H22 H 0.4225 0.9153 0.7065
N12 N 0.3187(4) 0.8760(4) 0.6894(4)
H23 H 0.3049 0.8985 0.6781
H24 H 0.3019 0.8521 0.6870
N13 N 0.4377(4) 0.8526(4) 0.6373(4)
H25 H 0.4541 0.8771 0.6366
H26 H 0.4525 0.8322 0.6503
N14 N 0.3535(4) 0.8326(4) 0.6176(4)
H27 H 0.3321 0.8143 0.6251
H28 H 0.3422 0.8517 0.6010
N15 N 0.7946(4) 0.7766(5) 0.7273(4)
H29 H 0.8106 0.8006 0.7222
H30 H 0.8103 0.7590 0.7425
N16 N 0.7088(4) 0.7550(4) 0.7118(4)
H31 H 0.6874 0.7378 0.7211
H32 H 0.6973 0.7717 0.6934
N17 N 0.7543(5) 0.8293(6) 0.8030(5)
H33 H 0.7789 0.8441 0.7973
H34 H 0.7338 0.8490 0.8095
N18 N 0.7390(4) 0.7427(5) 0.7944(4)
H35 H 0.7172 0.7234 0.7906
H36 H 0.7645 0.7288 0.7907
O1 O 0.5052(2) 0.8462(3) 0.8330(2)
O2 O 0.5018(2) 0.8505(2) 0.7639(2)
O3 O 0.4194(2) 0.8109(3) 0.8355(2)
O4 O 0.4203(2) 0.8126(2) 0.7653(2)
O5 O 0.4323(3) 0.8962(3) 0.8024(3)
O6 O 0.5900(2) 0.8154(3) 0.8245(2)
O7 O 0.5786(2) 0.8257(2) 0.7534(2)
O8 O 0.5722(3) 0.9040(3) 0.8019(3)
O9 O 0.6261(2) 0.7430(2) 0.8147(2)
O10 O 0.6189(2) 0.7465(2) 0.7451(2)
O11 O 0.6692(2) 0.8150(3) 0.7750(3)
O12 O 0.5937(2) 0.6581(2) 0.8129(2)
O13 O 0.5884(3) 0.6708(2) 0.7395(2)
O14 O 0.6750(3) 0.6772(3) 0.7749(3)
O15 O 0.5202(2) 0.6244(3) 0.8104(2)
O16 O 0.5123(2) 0.6286(3) 0.7410(2)
O17 O 0.5896(2) 0.5806(2) 0.7632(2)
O18 O 0.4333(2) 0.6536(3) 0.8158(3)
O19 O 0.4256(3) 0.6533(3) 0.7456(3)
O20 O 0.4515(3) 0.5703(3) 0.7809(3)
O21 O 0.3953(2) 0.7246(2) 0.8283(3)
O22 O 0.3890(2) 0.7377(3) 0.7553(3)
O23 O 0.3442(3) 0.6603(3) 0.7857(3)
O24 O 0.3347(3) 0.7923(3) 0.8014(3)
O25 O 0.4738(2) 0.7969(2) 0.7047(3)
O26 O 0.5514(2) 0.7723(2) 0.6967(2)
O27 O 0.5378(3) 0.8659(3) 0.6891(3)
O28 O 0.4423(3) 0.7236(2) 0.6941(3)
O29 O 0.5311(2) 0.6936(2) 0.6853(2)
O30 O 0.4942(3) 0.7584(3) 0.6319(3)
O31 O 0.6221(2) 0.7153(3) 0.6707(2)
O32 O 0.3817(3) 0.7997(3) 0.6931(3)
O33 O 0.5405(3) 0.7858(3) 0.8850(3)
O34 O 0.5683(2) 0.7117(3) 0.8699(2)
O35 O 0.6353(3) 0.7758(3) 0.8893(3)
O36 O 0.4538(2) 0.7450(2) 0.8850(2)
O37 O 0.4933(3) 0.6758(3) 0.8703(2)
O38 O 0.5209(3) 0.7181(3) 0.9409(3)
O39 O 0.4045(3) 0.6622(3) 0.8903(3)
O40 O 0.4653(2) 0.8340(3) 0.9032(2)
O41 O 0.5479(3) 0.8799(3) 0.8981(2)
O42 O 0.3808(3) 0.7954(3) 0.9096(3)
O43 O 0.4648(3) 0.6357(2) 0.6743(3)
O44 O 0.5554(3) 0.6017(3) 0.6737(2)
O45 O 0.3755(3) 0.6602(3) 0.6773(3)
O46 O 0.7317(4) 0.8534(4) 0.7192(4)
H37 H 0.7339 0.8760 0.7329
H38 H 0.7486 0.8565 0.7003
C1 C 0.6738(5) 0.9047(5) 0.8357(5)
H39 H 0.6655 0.8968 0.8101
H40 H 0.7028 0.8931 0.8404
C2 C 0.6744(6) 0.9572(6) 0.8399(6)
H41 H 0.6882 0.9654 0.8635
H42 H 0.6907 0.9702 0.8193
C3 C 0.5227(7) 0.9874(7) 0.8273(6)
H43 H 0.5233 0.9683 0.8054
C4 C 0.6985(5) 0.5944(5) 0.7204(5)
H45 H 0.7138 0.6178 0.7332
H46 H 0.7170 0.5839 0.7000
C5 C 0.6896(5) 0.5587(5) 0.7469(5)
H47 H 0.6773 0.5708 0.7698
H48 H 0.7169 0.5445 0.7534
C6 C 0.5153(4) 0.5200(4) 0.7140(4)
H49 H 0.5079 0.5383 0.6926
H50 H 0.5098 0.5369 0.7367
C7 C 0.6346(9) 0.9414(9) 0.7251(8)
H51 H 0.6604 0.9539 0.7133
H52 H 0.6377 0.9440 0.7522
C8 C 0.5938(8) 0.9657(8) 0.7119(8)
H53 H 0.5687 0.9562 0.7265
H54 H 0.5975 0.9968 0.7158
C9 C 0.5992(7) 0.8133(6) 0.6117(6)
H55 H 0.5907 0.7828 0.6101
H56 H 0.6235 0.8178 0.5945
C10 C 0.5612(8) 0.8413(8) 0.5991(7)
H57 H 0.5571 0.8384 0.5721
H58 H 0.5347 0.8318 0.6116
C11 C 0.3631(6) 0.9172(6) 0.7317(6)
H59 H 0.3702 0.9239 0.7577
H60 H 0.3558 0.9443 0.7189
C12 C 0.3252(6) 0.8860(5) 0.7299(5)
H61 H 0.3317 0.8595 0.7439
H62 H 0.2992 0.8992 0.7405
C13 C 0.4300(5) 0.8379(5) 0.6006(5)
H63 H 0.4557 0.8227 0.5913
H64 H 0.4246 0.8627 0.5842
C14 C 0.3905(5) 0.8069(5) 0.5995(5)
H65 H 0.3833 0.7991 0.5737
H66 H 0.3965 0.7804 0.6136
C15 C 0.7838(5) 0.7540(6) 0.6926(5)
H67 H 0.8077 0.7348 0.6858
H68 H 0.7802 0.7752 0.6725
C16 C 0.7432(5) 0.7278(6) 0.6961(6)
H69 H 0.7345 0.7171 0.6715
H70 H 0.7483 0.7029 0.7124
C17 C 0.7631(6) 0.8005(7) 0.8355(6)
H71 H 0.7556 0.8157 0.8587
H72 H 0.7940 0.7936 0.8363
C18 C 0.7370(6) 0.7586(7) 0.8330(6)
H73 H 0.7491 0.7370 0.8501
H74 H 0.7069 0.7640 0.8402
O47 O 0.5615(3) 0.6153(3) 0.8828(3)
Co7 Co 0.57392(5) 0.58847(5) 0.61811(5)
Co9 Co 0.56287(5) 0.89327(5) 0.95334(5)
Co10 Co 0.39327(5) 0.43713(5) 0.70334(5)
Co12 Co 0.88951(5) 0.90150(6) 0.91281(5)
Co13 Co 0.38951(5) 0.59850(6) 0.91281(5)
Ge7 Ge 0.63815(3) 0.98059(4) 0.94208(4)
V25 V 0.82631(6) 0.97097(6) 0.96870(6)
V27 V 0.72019(5) 0.91289(6) 0.95396(6)
N22 N 0.6108(3) 0.8427(4) 0.9550(3)
H81 H 0.6207 0.8380 0.9314
H82 H 0.6335 0.8518 0.9691
N23 N 0.5255(4) 0.8412(4) 0.9811(4)
H83 H 0.5088 0.8523 0.9997
H84 H 0.5082 0.8275 0.9644
N24 N 0.4385(4) 0.4902(3) 0.7122(3)
N25 N 0.5098(3) 0.9385(4) 0.9622(3)
H85 H 0.4346 0.5097 0.6935
H86 H 0.4903 0.9346 0.9435
H87 H 0.4311 0.5036 0.7339
H88 H 0.4964 0.9311 0.9839
N26 N 0.8952(6) 0.8696(6) 0.9645(5)
H89 H 0.8809 0.8848 0.9824
H90 H 0.8830 0.8429 0.9629
N27 N 0.9566(6) 0.9137(6) 0.9216(6)
H91 H 0.9729 0.8956 0.9073
H92 H 0.9631 0.9414 0.9152
N28 N 0.8225(5) 0.8863(6) 0.9001(5)
H93 H 0.8180 0.8573 0.9020
H94 H 0.8047 0.9000 0.9164
N29 N 0.8869(6) 0.9298(6) 0.8586(5)
H95 H 0.9024 0.9548 0.8583
H96 H 0.8986 0.9114 0.8415
N34 N 0.7766(5) 0.7054(4) 0.9773(4)
H105 H 0.8006 0.6894 0.9722
H106 H 0.7590 0.6897 0.9925
N35 N 0.7550(4) 0.7912(4) 0.9618(4)
H107 H 0.7378 0.8126 0.9711
H108 H 0.7717 0.8027 0.9434
O57 O 0.7465(2) 0.8811(2) 0.9951(2)
O60 O 0.6708(2) 0.9116(3) 0.9895(2)
O63 O 0.6286(3) 0.9877(2) 0.9910(2)
O73 O 0.7723(2) 0.9486(2) 0.9467(2)
O74 O 0.8659(3) 0.9622(3) 0.9391(3)
O76 O 0.6936(2) 0.9689(2) 0.9353(2)
O78 O 0.7153(3) 0.8779(2) 0.9207(2)
O87 O 0.6622(3) 0.9045(3) 0.6403(3)
O88 O 0.9045(3) 0.8378(3) 0.8903(3)
O91 O 0.6201(3) 0.5479(3) 0.6481(2)
O95 O 0.6017(3) 0.9446(3) 0.9237(2)
O98 O 0.8534(4) 0.7683(4) 0.9692(4)
H113 H 0.8760 0.7661 0.9829
H114 H 0.8565 0.7514 0.9503
H120 H 0.4542 0.9912 0.8240
C22 C 0.5944(5) 0.8015(5) 0.9704(5)
H121 H 0.6178 0.7862 0.9832
H122 H 0.5839 0.7830 0.9500
C23 C 0.5587(5) 0.8104(5) 0.9969(5)
C24 C 0.4847(4) 0.4800(4) 0.7140(4)
H125 H 0.4921 0.4617 0.6926
H126 H 0.4902 0.4631 0.7367
C25 C 0.9414(9) 0.8654(9) 0.9751(8)
H127 H 0.9539 0.8396 0.9633
C26 C 0.9657(8) 0.9062(8) 0.9619(8)
H129 H 0.9562 0.9313 0.9765
H130 H 0.9968 0.9025 0.9658
C27 C 0.8133(6) 0.9008(7) 0.8617(6)
H131 H 0.7828 0.9093 0.8601
H132 H 0.8178 0.8765 0.8445
C28 C 0.8413(8) 0.9388(8) 0.8491(7)
H133 H 0.8384 0.9429 0.8221
H134 H 0.8318 0.9653 0.8616
C33 C 0.7540(6) 0.7162(5) 0.9426(5)
H143 H 0.7348 0.6923 0.9358
H144 H 0.7752 0.7198 0.9225
C34 C 0.7278(6) 0.7568(5) 0.9461(6)
H145 H 0.7171 0.7655 0.9215
H146 H 0.7029 0.7517 0.9624
H151 H 0.520675 0.969825 0.962995
Co1_2 Co 0.07392(5) 0.08847(5) 0.11811(5)
Co5_2 Co 0.20489(7) 0.23311(5) 0.00498(6)
Ge1_2 Ge 0.16182(4) 0.01773(4) 0.13044(4)
V2_2 V 0.14547(6) 0.05307(6) 0.04612(6)
V3_2 V 0.20718(6) 0.12195(5) 0.03047(6)
V4_2 V 0.30418(6) 0.12577(6) 0.02870(6)
V5_2 V 0.37274(6) 0.06556(6) 0.02235(6)
V13_2 V 0.23366(6) 0.09711(6) 0.10911(6)
V14_2 V 0.27308(6) 0.01544(6) 0.14612(6)
V16_2 V 0.34569(6) 0.04970(6) 0.10235(6)
N1_2 N 0.1132(4) 0.1446(3) 0.1109(4)
H1_2 H 0.1167 0.1579 0.1334
H2_2 H 0.1398 0.1364 0.1026
N2_2 N 0.0282(5) 0.1302(4) 0.0892(4)
H3_2 H 0.0254 0.1213 0.0651
H4_2 H 0.0018 0.1282 0.1003
N3_2 N 0.0367(4) 0.0324(4) 0.1078(4)
H5_2 H 0.0555 0.0099 0.1103
H6_2 H 0.0182 0.0304 0.1275
N17_2 N 0.1707(6) 0.2543(5) 0.0530(5)
H33_2 H 0.1559 0.2789 0.0473
H34_2 H 0.1510 0.2338 0.0595
N18_2 N 0.2573(5) 0.2390(4) 0.0444(4)
H35_2 H 0.2766 0.2172 0.0406
H36_2 H 0.2712 0.2645 0.0407
O1_2 O 0.1538(3) 0.0052(2) 0.0830(2)
O2_2 O 0.1495(2) 0.0018(2) 0.0139(2)
O6_2 O 0.1846(3) 0.0900(2) 0.0745(2)
O7_2 O 0.1743(2) 0.0786(2) 0.0034(2)
O8_2 O 0.0960(3) 0.0722(3) 0.0519(3)
O9_2 O 0.2570(2) 0.1261(2) 0.0647(2)
O11_2 O 0.1850(3) 0.1692(2) 0.0250(3)
O12_2 O 0.3419(2) 0.0937(2) 0.0629(2)
O14_2 O 0.3228(3) 0.1750(3) 0.0249(3)
O15_2 O 0.3756(3) 0.0202(2) 0.0604(2)
O17_2 O 0.4194(2) 0.0896(2) 0.0132(2)
O33_2 O 0.2142(3) 0.0405(3) 0.1350(3)
O34_2 O 0.2883(3) 0.0683(2) 0.1199(2)
O35_2 O 0.2242(3) 0.1353(3) 0.1393(3)
O38_2 O 0.2819(3) 0.0209(3) 0.1909(3)
O41_2 O 0.1201(3) 0.0479(3) 0.1481(2)
C1_2 C 0.0953(5) 0.1738(5) 0.0857(5)
H39_2 H 0.1032 0.1655 0.0601
H40_2 H 0.1069 0.2028 0.0904
C2_2 C 0.0428(6) 0.1744(6) 0.0899(6)
H41_2 H 0.0346 0.1882 0.1135
H42_2 H 0.0298 0.1907 0.0693
C3_2 C 0.0126(7) 0.0227(7) 0.0773(6)
H43_2 H 0.0317 0.0233 0.0554
H47_2 H 0.4292 0.1773 0.0198
H48_2 H 0.4555 0.2169 0.0034
H52_2 H 0.0560 0.1377 0.0022
C17_2 C 0.1995(7) 0.2631(6) 0.0855(6)
H71_2 H 0.1843 0.2556 0.1087
H72_2 H 0.2064 0.2940 0.0863
C18_2 C 0.2414(7) 0.2370(6) 0.0830(6)
H73_2 H 0.2630 0.2491 0.1001
H74_2 H 0.2360 0.2069 0.0902
O47_2 O 0.3847(3) 0.0615(3) 0.1328(3)
Co8_2 Co 0.08847(5) 0.42608(5) 0.36811(5)
Co9_2 Co 0.10673(5) 0.06287(5) 0.20334(5)
Co11_2 Co 0.06287(5) 0.39327(5) 0.45334(5)
Co12_2 Co 0.09850(6) 0.38951(5) 0.16281(5)
Co16_2 Co 0.23311(5) 0.29511(7) 0.25498(6)
Ge5_2 Ge 0.01773(4) 0.33818(4) 0.38044(4)
Ge7_2 Ge 0.01941(4) 0.13815(3) 0.19208(4)
V18_2 V 0.05307(6) 0.35453(6) 0.29612(6)
V19_2 V 0.12195(5) 0.29282(6) 0.28047(6)
V20_2 V 0.12577(6) 0.19582(6) 0.27870(6)
V21_2 V 0.06556(6) 0.12726(6) 0.27235(6)
V25_2 V 0.02903(6) 0.32631(6) 0.21870(6)
V27_2 V 0.08711(6) 0.22019(5) 0.20396(6)
V29_2 V 0.09711(6) 0.26634(6) 0.35911(6)
V30_2 V 0.01544(6) 0.22692(6) 0.39612(6)
V32_2 V 0.04970(6) 0.15431(6) 0.35235(6)
N22_2 N 0.1573(4) 0.1108(3) 0.2050(3)
H81_2 H 0.1620 0.1207 0.1814
H82_2 H 0.1482 0.1335 0.2191
N23_2 N 0.1588(4) 0.0255(4) 0.2311(4)
H83_2 H 0.1477 0.0088 0.2497
H84_2 H 0.1725 0.0082 0.2144
N25_2 N 0.0615(4) 0.0098(3) 0.2122(3)
N26_2 N 0.1304(6) 0.3952(6) 0.2145(5)
H89_2 H 0.1152 0.3809 0.2324
H90_2 H 0.1571 0.3830 0.2129
N27_2 N 0.0863(6) 0.4566(6) 0.1716(6)
H91_2 H 0.1044 0.4729 0.1573
H92_2 H 0.0586 0.4631 0.1652
N28_2 N 0.1137(6) 0.3225(5) 0.1501(5)
H93_2 H 0.1427 0.3180 0.1520
H94_2 H 0.1000 0.3047 0.1664
N29_2 N 0.0702(6) 0.3869(6) 0.1086(5)
H95_2 H 0.0452 0.4024 0.1083
H96_2 H 0.0886 0.3986 0.0915
N34_2 N 0.2946(4) 0.2766(5) 0.2273(4)
H105_2 H 0.3106 0.3006 0.2222
H106_2 H 0.3103 0.2590 0.2425
N35_2 N 0.2088(4) 0.2550(4) 0.2118(4)
H107_2 H 0.1874 0.2378 0.2211
H108_2 H 0.1973 0.2717 0.1934
N36_2 N 0.2543(5) 0.3293(6) 0.3030(5)
H109_2 H 0.2789 0.3441 0.2973
H110_2 H 0.2338 0.3490 0.3095
N37_2 N 0.2390(4) 0.2427(5) 0.2944(4)
H111_2 H 0.2172 0.2234 0.2906
H112_2 H 0.2645 0.2288 0.2907
O48_2 O 0.0052(2) 0.3462(3) 0.3330(2)
O49_2 O 0.0018(2) 0.3505(2) 0.2639(2)
O53_2 O 0.0900(2) 0.3154(3) 0.3245(2)
O54_2 O 0.0786(2) 0.3257(2) 0.2534(2)
O55_2 O 0.0722(3) 0.4040(3) 0.3019(3)
O56_2 O 0.1261(2) 0.2430(2) 0.3147(2)
O57_2 O 0.1189(2) 0.2465(2) 0.2451(2)
O58_2 O 0.1692(2) 0.3150(3) 0.2750(3)
O59_2 O 0.0937(2) 0.1581(2) 0.3129(2)
O60_2 O 0.0884(3) 0.1708(2) 0.2395(2)
O61_2 O 0.1750(3) 0.1772(3) 0.2749(3)
O62_2 O 0.0202(2) 0.1244(3) 0.3104(2)
O63_2 O 0.0123(2) 0.1286(3) 0.2410(2)
O64_2 O 0.0896(2) 0.0806(2) 0.2632(2)
O73_2 O 0.0514(2) 0.2723(2) 0.1967(2)
O74_2 O 0.0378(3) 0.3659(3) 0.1891(3)
O76_2 O 0.0311(2) 0.1936(2) 0.1853(2)
O78_2 O 0.1221(2) 0.2153(3) 0.1707(2)
O80_2 O 0.0405(3) 0.2858(3) 0.3850(3)
O81_2 O 0.0683(2) 0.2117(3) 0.3699(2)
O82_2 O 0.1353(3) 0.2758(3) 0.3893(3)
O85_2 O 0.0209(3) 0.2181(3) 0.4409(3)
O88_2 O 0.1622(3) 0.4045(3) 0.1403(3)
O90_2 O 0.0479(3) 0.3799(3) 0.3981(2)
O95_2 O 0.0554(3) 0.1017(3) 0.1737(2)
O98_2 O 0.2317(4) 0.3534(4) 0.2192(4)
H113_2 H 0.2339 0.3760 0.2329
H114_2 H 0.2486 0.3565 0.2003
C22_2 C 0.1985(5) 0.0944(5) 0.2204(5)
H121_2 H 0.2138 0.1178 0.2332
H122_2 H 0.2170 0.0839 0.2000
C23_2 C 0.1896(5) 0.0587(5) 0.2469(5)
H123_2 H 0.1773 0.0708 0.2698
H124_2 H 0.2169 0.0445 0.2534
C25_2 C 0.1346(9) 0.4414(9) 0.2251(8)
H127_2 H 0.1604 0.4539 0.2133
H128_2 H 0.1377 0.4440 0.2522
C26_2 C 0.0938(8) 0.4657(8) 0.2119(8)
H129_2 H 0.0687 0.4562 0.2265
H130_2 H 0.0975 0.4968 0.2158
C27_2 C 0.0992(7) 0.3133(6) 0.1117(6)
H131_2 H 0.0907 0.2828 0.1101
H132_2 H 0.1235 0.3178 0.0945
C28_2 C 0.0612(8) 0.3413(8) 0.0991(7)
H133_2 H 0.0571 0.3384 0.0721
H134_2 H 0.0347 0.3318 0.1116
C33_2 C 0.2838(5) 0.2540(6) 0.1926(5)
H143_2 H 0.3077 0.2348 0.1858
H144_2 H 0.2802 0.2752 0.1725
C34_2 C 0.2432(5) 0.2278(6) 0.1961(6)
H145_2 H 0.2345 0.2171 0.1715
H146_2 H 0.2483 0.2029 0.2124
C35_2 C 0.2631(6) 0.3005(7) 0.3355(6)
H147_2 H 0.2556 0.3157 0.3587
H148_2 H 0.2940 0.2936 0.3363
C36_2 C 0.2370(6) 0.2586(7) 0.3330(6)
H149_2 H 0.2491 0.2370 0.3501
H150_2 H 0.2069 0.2640 0.3402
O99_2 O 0.0615(3) 0.1153(3) 0.3828(3)
H151_2 H 0.030175 0.0206751 0.212995
Co2_2 Co 0.43713(5) 0.10673(5) 0.95334(5)
Co3_2 Co 0.11049(5) 0.09850(6) 0.91281(5)
Ge3_2 Ge 0.36185(3) 0.01941(4) 0.94208(4)
V9_2 V 0.17369(6) 0.02903(6) 0.96870(6)
V11_2 V 0.27981(5) 0.08711(6) 0.95396(6)
N4_2 N 0.3892(3) 0.1573(4) 0.9550(3)
H7_2 H 0.3793 0.1620 0.9314
H8_2 H 0.3665 0.1482 0.9691
N5_2 N 0.4745(4) 0.1588(4) 0.9811(4)
H9_2 H 0.4912 0.1477 0.9997
H10_2 H 0.4918 0.1725 0.9644
N6_2 N 0.4902(3) 0.0615(4) 0.9622(3)
H11_2 H 0.5097 0.0654 0.9435
H12_2 H 0.5036 0.0689 0.9839
N7_2 N 0.1048(6) 0.1304(6) 0.9645(5)
H13_2 H 0.1191 0.1152 0.9824
H14_2 H 0.1170 0.1571 0.9629
N8_2 N 0.0434(6) 0.0863(6) 0.9216(6)
H15_2 H 0.0271 0.1044 0.9073
H16_2 H 0.0369 0.0586 0.9152
N9_2 N 0.1775(5) 0.1137(6) 0.9001(5)
H17_2 H 0.1820 0.1427 0.9020
H18_2 H 0.1953 0.1000 0.9164
N10_2 N 0.1131(6) 0.0702(6) 0.8586(5)
H19_2 H 0.0976 0.0452 0.8583
H20_2 H 0.1014 0.0886 0.8415
N15_2 N 0.2234(5) 0.2946(4) 0.9773(4)
H29_2 H 0.1994 0.3106 0.9722
H30_2 H 0.2410 0.3103 0.9925
N16_2 N 0.2450(4) 0.2088(4) 0.9618(4)
H31_2 H 0.2622 0.1874 0.9711
H32_2 H 0.2283 0.1973 0.9434
O10_2 O 0.2535(2) 0.1189(2) 0.9951(2)
O13_2 O 0.3292(2) 0.0884(3) 0.9895(2)
O16_2 O 0.3714(3) 0.0123(2) 0.9910(2)
O26_2 O 0.2277(2) 0.0514(2) 0.9467(2)
O27_2 O 0.1341(3) 0.0378(3) 0.9391(3)
O29_2 O 0.3064(2) 0.0311(2) 0.9353(2)
O31_2 O 0.2847(3) 0.1221(2) 0.9207(2)
O46_2 O 0.1466(4) 0.2317(4) 0.9692(4)
H37_2 H 0.1240 0.2339 0.9829
H38_2 H 0.1435 0.2486 0.9503
C4_2 C 0.4056(5) 0.1985(5) 0.9704(5)
H45_2 H 0.3822 0.2138 0.9832
H46_2 H 0.4161 0.2170 0.9500
C5_2 C 0.4413(5) 0.1896(5) 0.9969(5)
C6_2 C 0.4800(4) 0.0153(4) 0.9640(4)
H49_2 H 0.4617 0.0079 0.9426
H50_2 H 0.4631 0.0098 0.9867
C7_2 C 0.0586(9) 0.1346(9) 0.9751(8)
H51_2 H 0.0461 0.1604 0.9633
C8_2 C 0.0343(8) 0.0938(8) 0.9619(8)
H53_2 H 0.0438 0.0687 0.9765
H54_2 H 0.0032 0.0975 0.9658
C9_2 C 0.1867(6) 0.0992(7) 0.8617(6)
H55_2 H 0.2172 0.0907 0.8601
H56_2 H 0.1822 0.1235 0.8445
C10_2 C 0.1587(8) 0.0612(8) 0.8491(7)
H57_2 H 0.1616 0.0571 0.8221
H58_2 H 0.1682 0.0347 0.8616
C15_2 C 0.2460(6) 0.2838(5) 0.9426(5)
H67_2 H 0.2652 0.3077 0.9358
H68_2 H 0.2248 0.2802 0.9225
C16_2 C 0.2722(6) 0.2432(5) 0.9461(6)
H69_2 H 0.2829 0.2345 0.9215
H70_2 H 0.2971 0.2483 0.9624
O87_2 O 0.0955(3) 0.1622(3) 0.8903(3)
Ge2_2 Ge 0.20417(4) 0.92905(4) 0.13233(4)
V1_2 V 0.15128(6) 0.95391(6) 0.04898(6)
V6_2 V 0.37992(6) 0.96736(6) 0.03004(6)
V7_2 V 0.31521(6) 0.89126(6) 0.03572(7)
V8_2 V 0.22409(6) 0.88469(6) 0.04852(6)
V15_2 V 0.31112(6) 0.93345(6) 0.11013(6)
O3_2 O 0.1891(3) 0.9194(2) 0.0855(2)
O4_2 O 0.1874(2) 0.9203(2) 0.0153(2)
O5_2 O 0.1038(3) 0.9323(3) 0.0524(3)
O18_2 O 0.3464(3) 0.9333(2) 0.0658(3)
O20_2 O 0.4297(3) 0.9515(3) 0.0309(3)
O21_2 O 0.2754(2) 0.8953(2) 0.0783(3)
O22_2 O 0.2623(3) 0.8890(2) 0.0053(3)
O23_2 O 0.3397(3) 0.8442(3) 0.0357(3)
O24_2 O 0.2077(3) 0.8347(3) 0.0514(3)
O36_2 O 0.2550(2) 0.9538(2) 0.1350(2)
O37_2 O 0.3242(3) 0.9933(3) 0.1203(2)
O39_2 O 0.3378(3) 0.9045(3) 0.1403(3)
O40_2 O 0.1660(3) 0.9653(2) 0.1532(2)
O42_2 O 0.2046(3) 0.8808(3) 0.1596(3)
H59_2 H 0.0761 0.8702 0.0077
Co13_2 Co 0.40150(6) 0.88951(5) 0.16281(5)
H86_2 H 0.0654 0.9903 0.1935
H88_2 H 0.0689 0.9964 0.2339
H120_2 H 0.0088 0.9542 0.0740
Co4_2 Co 0.13445(6) 0.87913(6) 0.91374(6)
Ge4_2 Ge 0.33142(4) 0.92623(4) 0.94822(4)
V10_2 V 0.25101(6) 0.99822(6) 0.92621(6)
V12_2 V 0.22310(6) 0.91784(6) 0.97044(6)
N11_2 N 0.1047(4) 0.9020(4) 0.9623(4)
H21_2 H 0.1247 0.9141 0.9778
H22_2 H 0.0847 0.9225 0.9565
N12_2 N 0.1240(4) 0.8187(4) 0.9394(4)
H23_2 H 0.1015 0.8049 0.9281
H24_2 H 0.1479 0.8019 0.9370
N13_2 N 0.1474(4) 0.9377(4) 0.8873(4)
H25_2 H 0.1229 0.9541 0.8866
H26_2 H 0.1678 0.9525 0.9003
N14_2 N 0.1674(4) 0.8535(4) 0.8676(4)
H27_2 H 0.1857 0.8321 0.8751
H28_2 H 0.1483 0.8422 0.8510
O19_2 O 0.3467(3) 0.9256(3) 0.9956(3)
O25_2 O 0.2031(2) 0.9738(2) 0.9547(3)
O28_2 O 0.2764(2) 0.9423(3) 0.9441(3)
O30_2 O 0.2416(3) 0.9942(3) 0.8819(3)
O32_2 O 0.2003(3) 0.8817(3) 0.9431(3)
O43_2 O 0.3643(2) 0.9648(3) 0.9243(3)
O45_2 O 0.3398(3) 0.8755(3) 0.9273(3)
C11_2 C 0.0828(6) 0.8631(6) 0.9817(6)
H60_2 H 0.0557 0.8558 0.9689
C12_2 C 0.1140(5) 0.8252(6) 0.9799(5)
H61_2 H 0.1405 0.8317 0.9939
H62_2 H 0.1008 0.7992 0.9905
C13_2 C 0.1621(5) 0.9300(5) 0.8506(5)
H63_2 H 0.1773 0.9557 0.8413
H64_2 H 0.1373 0.9246 0.8342
C14_2 C 0.1931(5) 0.8905(5) 0.8495(5)
H65_2 H 0.2009 0.8833 0.8237
H66_2 H 0.2196 0.8965 0.8636
C24_2 C 0.5200(4) 0.9847(4) 0.9640(4)
H125_2 H 0.5383 0.9921 0.9426
H126_2 H 0.5369 0.9902 0.9867
H44_2 H 0.9912 0.0458 0.0740
Co14_2 Co 0.88951(5) 0.09850(6) 0.41281(5)
Co15_2 Co 0.87913(6) 0.36555(6) 0.16374(6)
Ge6_2 Ge 0.92905(4) 0.29583(4) 0.38233(4)
Ge8_2 Ge 0.92623(4) 0.16858(4) 0.19822(4)
V17_2 V 0.95391(6) 0.34872(6) 0.29898(6)
V22_2 V 0.96736(6) 0.12008(6) 0.28004(6)
V23_2 V 0.89126(6) 0.18479(6) 0.28572(7)
V24_2 V 0.88469(6) 0.27591(6) 0.29852(6)
V26_2 V 0.99822(6) 0.24899(6) 0.17621(6)
V28_2 V 0.91784(6) 0.27690(6) 0.22044(6)
V31_2 V 0.93345(6) 0.18888(6) 0.36013(6)
N30_2 N 0.9020(4) 0.3953(4) 0.2123(4)
H97_2 H 0.9141 0.3753 0.2278
H98_2 H 0.9225 0.4153 0.2065
N31_2 N 0.8187(4) 0.3760(4) 0.1894(4)
H99_2 H 0.8049 0.3985 0.1781
H100_2 H 0.8019 0.3521 0.1870
N32_2 N 0.9377(4) 0.3526(4) 0.1373(4)
H101_2 H 0.9541 0.3771 0.1366
H102_2 H 0.9525 0.3322 0.1503
N33_2 N 0.8535(4) 0.3326(4) 0.1176(4)
H103_2 H 0.8321 0.3143 0.1251
H104_2 H 0.8422 0.3517 0.1010
O50_2 O 0.9194(2) 0.3109(3) 0.3355(2)
O51_2 O 0.9203(2) 0.3126(2) 0.2653(2)
O52_2 O 0.9323(3) 0.3962(3) 0.3024(3)
O65_2 O 0.9333(2) 0.1536(3) 0.3158(3)
O66_2 O 0.9256(3) 0.1533(3) 0.2456(3)
O67_2 O 0.9515(3) 0.0703(3) 0.2809(3)
O68_2 O 0.8953(2) 0.2246(2) 0.3283(3)
O69_2 O 0.8890(2) 0.2377(3) 0.2553(3)
O70_2 O 0.8442(3) 0.1603(3) 0.2857(3)
O71_2 O 0.8347(3) 0.2923(3) 0.3014(3)
O72_2 O 0.9738(2) 0.2969(2) 0.2047(3)
O75_2 O 0.9423(3) 0.2236(2) 0.1941(3)
O77_2 O 0.9942(3) 0.2584(3) 0.1319(3)
O79_2 O 0.8817(3) 0.2997(3) 0.1931(3)
O83_2 O 0.9538(2) 0.2450(2) 0.3850(2)
O84_2 O 0.9933(3) 0.1758(3) 0.3703(2)
O86_2 O 0.9045(3) 0.1622(3) 0.3903(3)
O89_2 O 0.9653(2) 0.3340(3) 0.4032(2)
O93_2 O 0.8808(3) 0.2954(3) 0.4096(3)
O94_2 O 0.9648(3) 0.1357(2) 0.1743(3)
O97_2 O 0.8755(3) 0.1602(3) 0.1773(3)
C29_2 C 0.8631(6) 0.4172(6) 0.2317(6)
H135_2 H 0.8702 0.4239 0.2577
H136_2 H 0.8558 0.4443 0.2189
C30_2 C 0.8252(6) 0.3860(5) 0.2299(5)
H137_2 H 0.8317 0.3595 0.2439
H138_2 H 0.7992 0.3992 0.2405
C31_2 C 0.9300(5) 0.3379(5) 0.1006(5)
H139_2 H 0.9557 0.3227 0.0913
H140_2 H 0.9246 0.3627 0.0842
C32_2 C 0.8905(5) 0.3069(5) 0.0995(5)
H141_2 H 0.8833 0.2991 0.0737
H142_2 H 0.8965 0.2804 0.1136
N19_2 N 0.8868(4) 0.8554(3) 0.1109(4)
H75_2 H 0.8833 0.8421 0.1334
H76_2 H 0.8602 0.8636 0.1026
N20_2 N 0.9718(5) 0.8698(4) 0.0892(4)
H77_2 H 0.9746 0.8787 0.0651
H78_2 H 0.9982 0.8718 0.1003
N21_2 N 0.9633(4) 0.9676(4) 0.1078(4)
H79_2 H 0.9445 0.9901 0.1103
H80_2 H 0.9818 0.9696 0.1275
O96_2 O 0.9446(3) 0.8983(3) 0.1737(2)
C19_2 C 0.9047(5) 0.8262(5) 0.0857(5)
H115_2 H 0.8968 0.8345 0.0601
H116_2 H 0.8931 0.7972 0.0904
C20_2 C 0.9572(6) 0.8256(6) 0.0899(6)
H117_2 H 0.9654 0.8118 0.1135
H118_2 H 0.9702 0.8093 0.0693
C21_2 C 0.9874(7) 0.9773(7) 0.0773(6)
H119_2 H 0.9683 0.9767 0.0554
Co3_3 Co 0.40150(6) 0.11049(5) 0.66281(5)
Co4_3 Co 0.62087(6) 0.13445(6) 0.66374(6)
Co5_3 Co 0.26689(5) 0.20489(7) 0.75498(6)
Ge1_3 Ge 0.48227(4) 0.16182(4) 0.88044(4)
Ge2_3 Ge 0.57095(4) 0.20417(4) 0.88233(4)
Ge3_3 Ge 0.48059(4) 0.36185(3) 0.69208(4)
Ge4_3 Ge 0.57377(4) 0.33142(4) 0.69822(4)
V1_3 V 0.54609(6) 0.15128(6) 0.79898(6)
V2_3 V 0.44693(6) 0.14547(6) 0.79612(6)
V3_3 V 0.37805(5) 0.20718(6) 0.78047(6)
V4_3 V 0.37423(6) 0.30418(6) 0.77870(6)
V5_3 V 0.43444(6) 0.37274(6) 0.77235(6)
V6_3 V 0.53264(6) 0.37992(6) 0.78004(6)
V7_3 V 0.60874(6) 0.31521(6) 0.78572(7)
V8_3 V 0.61531(6) 0.22409(6) 0.79852(6)
V9_3 V 0.47097(6) 0.17369(6) 0.71870(6)
V10_3 V 0.50178(6) 0.25101(6) 0.67621(6)
V11_3 V 0.41289(6) 0.27981(5) 0.70396(6)
V12_3 V 0.58216(6) 0.22310(6) 0.72044(6)
V13_3 V 0.40289(6) 0.23366(6) 0.85911(6)
V14_3 V 0.48456(6) 0.27308(6) 0.89612(6)
V15_3 V 0.56655(6) 0.31112(6) 0.86013(6)
V16_3 V 0.45030(6) 0.34569(6) 0.85235(6)
N4_3 N 0.3427(4) 0.3892(3) 0.7050(3)
H7_3 H 0.3380 0.3793 0.6814
H8_3 H 0.3518 0.3665 0.7191
N5_3 N 0.3412(4) 0.4745(4) 0.7311(4)
H9_3 H 0.3523 0.4912 0.7497
H10_3 H 0.3275 0.4918 0.7144
N7_3 N 0.3696(6) 0.1048(6) 0.7145(5)
H13_3 H 0.3848 0.1191 0.7324
H14_3 H 0.3429 0.1170 0.7129
N8_3 N 0.4137(6) 0.0434(6) 0.6716(6)
H15_3 H 0.3956 0.0271 0.6573
H16_3 H 0.4414 0.0369 0.6652
N9_3 N 0.3863(6) 0.1775(5) 0.6501(5)
H17_3 H 0.3573 0.1820 0.6520
H18_3 H 0.4000 0.1953 0.6664
N10_3 N 0.4298(6) 0.1131(6) 0.6086(5)
H19_3 H 0.4548 0.0976 0.6083
H20_3 H 0.4114 0.1014 0.5915
N11_3 N 0.5980(4) 0.1047(4) 0.7123(4)
H21_3 H 0.5859 0.1247 0.7278
H22_3 H 0.5775 0.0847 0.7065
N12_3 N 0.6813(4) 0.1240(4) 0.6894(4)
H23_3 H 0.6951 0.1015 0.6781
H24_3 H 0.6981 0.1479 0.6870
N13_3 N 0.5623(4) 0.1474(4) 0.6373(4)
H25_3 H 0.5459 0.1229 0.6366
H26_3 H 0.5475 0.1678 0.6503
N14_3 N 0.6465(4) 0.1674(4) 0.6176(4)
H27_3 H 0.6679 0.1857 0.6251
H28_3 H 0.6578 0.1483 0.6010
N15_3 N 0.2054(4) 0.2234(5) 0.7273(4)
H29_3 H 0.1894 0.1994 0.7222
H30_3 H 0.1897 0.2410 0.7425
N16_3 N 0.2912(4) 0.2450(4) 0.7118(4)
H31_3 H 0.3126 0.2622 0.7211
H32_3 H 0.3027 0.2283 0.6934
N17_3 N 0.2457(5) 0.1707(6) 0.8030(5)
H33_3 H 0.2211 0.1559 0.7973
H34_3 H 0.2662 0.1510 0.8095
N18_3 N 0.2610(4) 0.2573(5) 0.7944(4)
H35_3 H 0.2828 0.2766 0.7906
H36_3 H 0.2355 0.2712 0.7907
O1_3 O 0.4948(2) 0.1538(3) 0.8330(2)
O2_3 O 0.4982(2) 0.1495(2) 0.7639(2)
O3_3 O 0.5806(2) 0.1891(3) 0.8355(2)
O4_3 O 0.5797(2) 0.1874(2) 0.7653(2)
O5_3 O 0.5677(3) 0.1038(3) 0.8024(3)
O6_3 O 0.4100(2) 0.1846(3) 0.8245(2)
O7_3 O 0.4214(2) 0.1743(2) 0.7534(2)
O8_3 O 0.4278(3) 0.0960(3) 0.8019(3)
O9_3 O 0.3739(2) 0.2570(2) 0.8147(2)
O10_3 O 0.3811(2) 0.2535(2) 0.7451(2)
O11_3 O 0.3308(2) 0.1850(3) 0.7750(3)
O12_3 O 0.4063(2) 0.3419(2) 0.8129(2)
O13_3 O 0.4116(3) 0.3292(2) 0.7395(2)
O14_3 O 0.3250(3) 0.3228(3) 0.7749(3)
O15_3 O 0.4798(2) 0.3756(3) 0.8104(2)
O16_3 O 0.4877(2) 0.3714(3) 0.7410(2)
O17_3 O 0.4104(2) 0.4194(2) 0.7632(2)
O18_3 O 0.5667(2) 0.3464(3) 0.8158(3)
O19_3 O 0.5744(3) 0.3467(3) 0.7456(3)
O20_3 O 0.5485(3) 0.4297(3) 0.7809(3)
O21_3 O 0.6047(2) 0.2754(2) 0.8283(3)
O22_3 O 0.6110(2) 0.2623(3) 0.7553(3)
O23_3 O 0.6558(3) 0.3397(3) 0.7857(3)
O24_3 O 0.6653(3) 0.2077(3) 0.8014(3)
O25_3 O 0.5262(2) 0.2031(2) 0.7047(3)
O26_3 O 0.4486(2) 0.2277(2) 0.6967(2)
O27_3 O 0.4622(3) 0.1341(3) 0.6891(3)
O28_3 O 0.5577(3) 0.2764(2) 0.6941(3)
O29_3 O 0.4689(2) 0.3064(2) 0.6853(2)
O30_3 O 0.5058(3) 0.2416(3) 0.6319(3)
O31_3 O 0.3779(2) 0.2847(3) 0.6707(2)
O32_3 O 0.6183(3) 0.2003(3) 0.6931(3)
O33_3 O 0.4595(3) 0.2142(3) 0.8850(3)
O34_3 O 0.4317(2) 0.2883(3) 0.8699(2)
O35_3 O 0.3647(3) 0.2242(3) 0.8893(3)
O36_3 O 0.5462(2) 0.2550(2) 0.8850(2)
O37_3 O 0.5067(3) 0.3242(3) 0.8703(2)
O38_3 O 0.4791(3) 0.2819(3) 0.9409(3)
O39_3 O 0.5955(3) 0.3378(3) 0.8903(3)
O40_3 O 0.5347(2) 0.1660(3) 0.9032(2)
O42_3 O 0.6192(3) 0.2046(3) 0.9096(3)
O43_3 O 0.5352(3) 0.3643(2) 0.6743(3)
O44_2 O 0.4446(3) 0.3983(3) 0.6737(2)
O45_3 O 0.6245(3) 0.3398(3) 0.6773(3)
O46_3 O 0.2683(4) 0.1466(4) 0.7192(4)
H37_3 H 0.2661 0.1240 0.7329
H38_3 H 0.2514 0.1435 0.7003
C4_3 C 0.3015(5) 0.4056(5) 0.7204(5)
H45_3 H 0.2862 0.3822 0.7332
H46_3 H 0.2830 0.4161 0.7000
C5_3 C 0.3104(5) 0.4413(5) 0.7469(5)
H47_3 H 0.3227 0.4292 0.7698
H48_3 H 0.2831 0.4555 0.7534
C7_3 C 0.3654(9) 0.0586(9) 0.7251(8)
H51_3 H 0.3396 0.0461 0.7133
H52_3 H 0.3623 0.0560 0.7522
C8_3 C 0.4062(8) 0.0343(8) 0.7119(8)
H53_3 H 0.4313 0.0438 0.7265
H54_3 H 0.4025 0.0032 0.7158
C9_3 C 0.4008(7) 0.1867(6) 0.6117(6)
H55_3 H 0.4093 0.2172 0.6101
H56_3 H 0.3765 0.1822 0.5945
C10_3 C 0.4388(8) 0.1587(8) 0.5991(7)
H57_3 H 0.4429 0.1616 0.5721
H58_3 H 0.4653 0.1682 0.6116
C11_3 C 0.6369(6) 0.0828(6) 0.7317(6)
H59_3 H 0.6298 0.0761 0.7577
H60_3 H 0.6442 0.0557 0.7189
C12_3 C 0.6748(6) 0.1140(5) 0.7299(5)
H61_3 H 0.6683 0.1405 0.7439
H62_3 H 0.7008 0.1008 0.7405
C13_3 C 0.5700(5) 0.1621(5) 0.6006(5)
H63_3 H 0.5443 0.1773 0.5913
H64_3 H 0.5754 0.1373 0.5842
C14_3 C 0.6095(5) 0.1931(5) 0.5995(5)
H65_3 H 0.6167 0.2009 0.5737
H66_3 H 0.6035 0.2196 0.6136
C15_3 C 0.2162(5) 0.2460(6) 0.6926(5)
H67_3 H 0.1923 0.2652 0.6858
H68_3 H 0.2198 0.2248 0.6725
C16_3 C 0.2568(5) 0.2722(6) 0.6961(6)
H69_3 H 0.2655 0.2829 0.6715
H70_3 H 0.2517 0.2971 0.7124
C17_3 C 0.2369(6) 0.1995(7) 0.8355(6)
H71_3 H 0.2444 0.1843 0.8587
H72_3 H 0.2060 0.2064 0.8363
C18_3 C 0.2630(6) 0.2414(7) 0.8330(6)
H73_3 H 0.2509 0.2630 0.8501
H74_3 H 0.2931 0.2360 0.8402
O47_3 O 0.4385(3) 0.3847(3) 0.8828(3)
Co7_2 Co 0.42608(5) 0.41153(5) 0.61811(5)
Co13_3 Co 0.61049(5) 0.40150(6) 0.91281(5)
O87_3 O 0.3378(3) 0.0955(3) 0.6403(3)
O91_2 O 0.3799(3) 0.4521(3) 0.6481(2)
H151_3 H 0.479325 0.030175 0.962995
Co14_3 Co 0.11049(5) 0.90150(6) 0.41281(5)
Co15_3 Co 0.12087(6) 0.63445(6) 0.16374(6)
Ge6_3 Ge 0.07095(4) 0.70417(4) 0.38233(4)
Ge8_3 Ge 0.07377(4) 0.83142(4) 0.19822(4)
V17_3 V 0.04609(6) 0.65128(6) 0.29898(6)
V22_3 V 0.03264(6) 0.87992(6) 0.28004(6)
V23_3 V 0.10874(6) 0.81521(6) 0.28572(7)
V24_3 V 0.11531(6) 0.72409(6) 0.29852(6)
V26_3 V 0.00178(6) 0.75101(6) 0.17621(6)
V28_3 V 0.08216(6) 0.72310(6) 0.22044(6)
V31_3 V 0.06655(6) 0.81112(6) 0.36013(6)
N30_3 N 0.0980(4) 0.6047(4) 0.2123(4)
H97_3 H 0.0859 0.6247 0.2278
H98_3 H 0.0775 0.5847 0.2065
N31_3 N 0.1813(4) 0.6240(4) 0.1894(4)
H99_3 H 0.1951 0.6015 0.1781
H100_3 H 0.1981 0.6479 0.1870
N32_3 N 0.0623(4) 0.6474(4) 0.1373(4)
H101_3 H 0.0459 0.6229 0.1366
H102_3 H 0.0475 0.6678 0.1503
N33_3 N 0.1465(4) 0.6674(4) 0.1176(4)
H103_3 H 0.1679 0.6857 0.1251
H104_3 H 0.1578 0.6483 0.1010
O50_3 O 0.0806(2) 0.6891(3) 0.3355(2)
O51_3 O 0.0797(2) 0.6874(2) 0.2653(2)
O52_3 O 0.0677(3) 0.6038(3) 0.3024(3)
O65_3 O 0.0667(2) 0.8464(3) 0.3158(3)
O66_3 O 0.0744(3) 0.8467(3) 0.2456(3)
O67_3 O 0.0485(3) 0.9297(3) 0.2809(3)
O68_3 O 0.1047(2) 0.7754(2) 0.3283(3)
O69_3 O 0.1110(2) 0.7623(3) 0.2553(3)
O70_3 O 0.1558(3) 0.8397(3) 0.2857(3)
O71_3 O 0.1653(3) 0.7077(3) 0.3014(3)
O72_3 O 0.0262(2) 0.7031(2) 0.2047(3)
O75_3 O 0.0577(3) 0.7764(2) 0.1941(3)
O77_3 O 0.0058(3) 0.7416(3) 0.1319(3)
O79_3 O 0.1183(3) 0.7003(3) 0.1931(3)
O83_3 O 0.0462(2) 0.7550(2) 0.3850(2)
O84_3 O 0.0067(3) 0.8242(3) 0.3703(2)
O86_3 O 0.0955(3) 0.8378(3) 0.3903(3)
O89_3 O 0.0347(2) 0.6660(3) 0.4032(2)
O93_3 O 0.1192(3) 0.7046(3) 0.4096(3)
O94_3 O 0.0352(3) 0.8643(2) 0.1743(3)
O97_3 O 0.1245(3) 0.8398(3) 0.1773(3)
C29_3 C 0.1369(6) 0.5828(6) 0.2317(6)
H135_3 H 0.1298 0.5761 0.2577
H136_3 H 0.1442 0.5557 0.2189
C30_3 C 0.1748(6) 0.6140(5) 0.2299(5)
H137_3 H 0.1683 0.6405 0.2439
H138_3 H 0.2008 0.6008 0.2405
C31_3 C 0.0700(5) 0.6621(5) 0.1006(5)
H139_3 H 0.0443 0.6773 0.0913
H140_3 H 0.0754 0.6373 0.0842
C32_3 C 0.1095(5) 0.6931(5) 0.0995(5)
H141_3 H 0.1167 0.7009 0.0737
H142_3 H 0.1035 0.7196 0.1136
H86_3 H 0.9346 0.0097 0.1935
H88_3 H 0.9311 0.0036 0.2339
Co8_3 Co 0.91153(5) 0.57392(5) 0.36811(5)
Co11_3 Co 0.93713(5) 0.60673(5) 0.45334(5)
Co12_3 Co 0.90150(6) 0.61049(5) 0.16281(5)
Co16_3 Co 0.76689(5) 0.70489(7) 0.25498(6)
Ge5_3 Ge 0.98227(4) 0.66182(4) 0.38044(4)
Ge7_3 Ge 0.98059(4) 0.86185(3) 0.19208(4)
V18_3 V 0.94693(6) 0.64547(6) 0.29612(6)
V19_3 V 0.87805(5) 0.70718(6) 0.28047(6)
V20_3 V 0.87423(6) 0.80418(6) 0.27870(6)
V21_3 V 0.93444(6) 0.87274(6) 0.27235(6)
V25_3 V 0.97097(6) 0.67369(6) 0.21870(6)
V27_3 V 0.91289(6) 0.77981(5) 0.20396(6)
V29_3 V 0.90289(6) 0.73366(6) 0.35911(6)
V30_3 V 0.98456(6) 0.77308(6) 0.39612(6)
V32_3 V 0.95030(6) 0.84569(6) 0.35235(6)
N22_3 N 0.8427(4) 0.8892(3) 0.2050(3)
H81_3 H 0.8380 0.8793 0.1814
H82_3 H 0.8518 0.8665 0.2191
N23_3 N 0.8412(4) 0.9745(4) 0.2311(4)
H83_3 H 0.8523 0.9912 0.2497
H84_3 H 0.8275 0.9918 0.2144
N25_3 N 0.9385(4) 0.9902(3) 0.2122(3)
N26_3 N 0.8696(6) 0.6048(6) 0.2145(5)
H89_3 H 0.8848 0.6191 0.2324
H90_3 H 0.8429 0.6170 0.2129
N27_3 N 0.9137(6) 0.5434(6) 0.1716(6)
H91_3 H 0.8956 0.5271 0.1573
H92_3 H 0.9414 0.5369 0.1652
N28_3 N 0.8863(6) 0.6775(5) 0.1501(5)
H93_3 H 0.8573 0.6820 0.1520
H94_3 H 0.9000 0.6953 0.1664
N29_3 N 0.9298(6) 0.6131(6) 0.1086(5)
H95_3 H 0.9548 0.5976 0.1083
H96_3 H 0.9114 0.6014 0.0915
N34_3 N 0.7054(4) 0.7234(5) 0.2273(4)
H105_3 H 0.6894 0.6994 0.2222
H106_3 H 0.6897 0.7410 0.2425
N35_3 N 0.7912(4) 0.7450(4) 0.2118(4)
H107_3 H 0.8126 0.7622 0.2211
H108_3 H 0.8027 0.7283 0.1934
N36_3 N 0.7457(5) 0.6707(6) 0.3030(5)
H109_3 H 0.7211 0.6559 0.2973
H110_3 H 0.7662 0.6510 0.3095
N37_3 N 0.7610(4) 0.7573(5) 0.2944(4)
H111_3 H 0.7828 0.7766 0.2906
H112_3 H 0.7355 0.7712 0.2907
O48_3 O 0.9948(2) 0.6538(3) 0.3330(2)
O49_3 O 0.9982(2) 0.6495(2) 0.2639(2)
O53_3 O 0.9100(2) 0.6846(3) 0.3245(2)
O54_3 O 0.9214(2) 0.6743(2) 0.2534(2)
O55_3 O 0.9278(3) 0.5960(3) 0.3019(3)
O56_3 O 0.8739(2) 0.7570(2) 0.3147(2)
O57_3 O 0.8811(2) 0.7535(2) 0.2451(2)
O58_3 O 0.8308(2) 0.6850(3) 0.2750(3)
O59_3 O 0.9063(2) 0.8419(2) 0.3129(2)
O60_3 O 0.9116(3) 0.8292(2) 0.2395(2)
O61_3 O 0.8250(3) 0.8228(3) 0.2749(3)
O62_3 O 0.9798(2) 0.8756(3) 0.3104(2)
O63_3 O 0.9877(2) 0.8714(3) 0.2410(2)
O64_3 O 0.9104(2) 0.9194(2) 0.2632(2)
O73_3 O 0.9486(2) 0.7277(2) 0.1967(2)
O74_3 O 0.9622(3) 0.6341(3) 0.1891(3)
O76_3 O 0.9689(2) 0.8064(2) 0.1853(2)
O78_3 O 0.8779(2) 0.7847(3) 0.1707(2)
O80_3 O 0.9595(3) 0.7142(3) 0.3850(3)
O81_3 O 0.9317(2) 0.7883(3) 0.3699(2)
O82_3 O 0.8647(3) 0.7242(3) 0.3893(3)
O85_3 O 0.9791(3) 0.7819(3) 0.4409(3)
O88_3 O 0.8378(3) 0.5955(3) 0.1403(3)
O90_3 O 0.9521(3) 0.6201(3) 0.3981(2)
O98_3 O 0.7683(4) 0.6466(4) 0.2192(4)
H113_3 H 0.7661 0.6240 0.2329
H114_3 H 0.7514 0.6435 0.2003
C22_3 C 0.8015(5) 0.9056(5) 0.2204(5)
H121_3 H 0.7862 0.8822 0.2332
H122_3 H 0.7830 0.9161 0.2000
C23_3 C 0.8104(5) 0.9413(5) 0.2469(5)
H123_3 H 0.8227 0.9292 0.2698
H124_3 H 0.7831 0.9555 0.2534
C25_3 C 0.8654(9) 0.5586(9) 0.2251(8)
H127_3 H 0.8396 0.5461 0.2133
H128_3 H 0.8623 0.5560 0.2522
C26_3 C 0.9062(8) 0.5343(8) 0.2119(8)
H129_3 H 0.9313 0.5438 0.2265
H130_3 H 0.9025 0.5032 0.2158
C27_3 C 0.9008(7) 0.6867(6) 0.1117(6)
H131_3 H 0.9093 0.7172 0.1101
H132_3 H 0.8765 0.6822 0.0945
C28_3 C 0.9388(8) 0.6587(8) 0.0991(7)
H133_3 H 0.9429 0.6616 0.0721
H134_3 H 0.9653 0.6682 0.1116
C33_3 C 0.7162(5) 0.7460(6) 0.1926(5)
H143_3 H 0.6923 0.7652 0.1858
H144_3 H 0.7198 0.7248 0.1725
C34_3 C 0.7568(5) 0.7722(6) 0.1961(6)
H145_3 H 0.7655 0.7829 0.1715
H146_3 H 0.7517 0.7971 0.2124
C35_3 C 0.7369(6) 0.6995(7) 0.3355(6)
H147_3 H 0.7444 0.6843 0.3587
H148_3 H 0.7060 0.7064 0.3363
C36_3 C 0.7630(6) 0.7414(7) 0.3330(6)
H149_3 H 0.7509 0.7630 0.3501
H150_3 H 0.7931 0.7360 0.3402
O99_3 O 0.9385(3) 0.8847(3) 0.3828(3)
H151_4 H 0.969825 0.979325 0.212995
H44_3 H 0.4542 0.0088 0.3240
Co6_2 Co 0.58847(5) 0.07392(5) 0.36811(5)
Co15_4 Co 0.13445(6) 0.12087(6) 0.41374(6)
Ge6_4 Ge 0.20417(4) 0.07095(4) 0.63233(4)
Ge8_4 Ge 0.33142(4) 0.07377(4) 0.44822(4)
V17_4 V 0.15128(6) 0.04609(6) 0.54898(6)
V22_4 V 0.37992(6) 0.03264(6) 0.53004(6)
V23_4 V 0.31521(6) 0.10874(6) 0.53572(7)
V24_4 V 0.22409(6) 0.11531(6) 0.54852(6)
V26_4 V 0.25101(6) 0.00178(6) 0.42621(6)
V28_4 V 0.22310(6) 0.08216(6) 0.47044(6)
V31_4 V 0.31112(6) 0.06655(6) 0.61013(6)
N19_3 N 0.6446(3) 0.1132(4) 0.3609(4)
H75_3 H 0.6579 0.1167 0.3834
H76_3 H 0.6364 0.1398 0.3526
N20_3 N 0.6302(4) 0.0282(5) 0.3392(4)
H77_3 H 0.6213 0.0254 0.3151
H78_3 H 0.6282 0.0018 0.3503
N21_3 N 0.5324(4) 0.0367(4) 0.3578(4)
H79_3 H 0.5099 0.0555 0.3603
H80_3 H 0.5304 0.0182 0.3775
N30_4 N 0.1047(4) 0.0980(4) 0.4623(4)
H97_4 H 0.1247 0.0859 0.4778
H98_4 H 0.0847 0.0775 0.4565
N31_4 N 0.1240(4) 0.1813(4) 0.4394(4)
H99_4 H 0.1015 0.1951 0.4281
H100_4 H 0.1479 0.1981 0.4370
N32_4 N 0.1474(4) 0.0623(4) 0.3873(4)
H101_4 H 0.1229 0.0459 0.3866
H102_4 H 0.1678 0.0475 0.4003
N33_4 N 0.1674(4) 0.1465(4) 0.3676(4)
H103_4 H 0.1857 0.1679 0.3751
H104_4 H 0.1483 0.1578 0.3510
O50_4 O 0.1891(3) 0.0806(2) 0.5855(2)
O51_4 O 0.1874(2) 0.0797(2) 0.5153(2)
O52_4 O 0.1038(3) 0.0677(3) 0.5524(3)
O65_4 O 0.3464(3) 0.0667(2) 0.5658(3)
O66_4 O 0.3467(3) 0.0744(3) 0.4956(3)
O67_4 O 0.4297(3) 0.0485(3) 0.5309(3)
O68_4 O 0.2754(2) 0.1047(2) 0.5783(3)
O69_4 O 0.2623(3) 0.1110(2) 0.5053(3)
O70_4 O 0.3397(3) 0.1558(3) 0.5357(3)
O71_4 O 0.2077(3) 0.1653(3) 0.5514(3)
O72_4 O 0.2031(2) 0.0262(2) 0.4547(3)
O75_4 O 0.2764(2) 0.0577(3) 0.4441(3)
O77_4 O 0.2416(3) 0.0058(3) 0.3819(3)
O79_4 O 0.2003(3) 0.1183(3) 0.4431(3)
O83_4 O 0.2550(2) 0.0462(2) 0.6350(2)
O84_4 O 0.3242(3) 0.0067(3) 0.6203(2)
O89_4 O 0.1660(3) 0.0347(2) 0.6532(2)
O92_2 O 0.5479(3) 0.1201(3) 0.3981(2)
O93_4 O 0.2046(3) 0.1192(3) 0.6596(3)
O94_4 O 0.3643(2) 0.0352(3) 0.4243(3)
O96_3 O 0.6017(3) 0.0554(3) 0.4237(2)
O97_4 O 0.3398(3) 0.1245(3) 0.4273(3)
C19_3 C 0.6738(5) 0.0953(5) 0.3357(5)
H115_3 H 0.6655 0.1032 0.3101
H116_3 H 0.7028 0.1069 0.3404
C20_3 C 0.6744(6) 0.0428(6) 0.3399(6)
H117_3 H 0.6882 0.0346 0.3635
H118_3 H 0.6907 0.0298 0.3193
C21_3 C 0.5227(7) 0.0126(7) 0.3273(6)
H119_3 H 0.5233 0.0317 0.3054
C29_4 C 0.0828(6) 0.1369(6) 0.4817(6)
H135_4 H 0.0761 0.1298 0.5077
H136_4 H 0.0557 0.1442 0.4689
C30_4 C 0.1140(5) 0.1748(6) 0.4799(5)
H137_4 H 0.1405 0.1683 0.4939
H138_4 H 0.1008 0.2008 0.4905
C31_4 C 0.1621(5) 0.0700(5) 0.3506(5)
H139_4 H 0.1773 0.0443 0.3413
H140_4 H 0.1373 0.0754 0.3342
C32_4 C 0.1931(5) 0.1095(5) 0.3495(5)
H141_4 H 0.2009 0.1167 0.3237
H142_4 H 0.2196 0.1035 0.3636
Co1_3 Co 0.41153(5) 0.92608(5) 0.36811(5)
Co2_3 Co 0.39327(5) 0.56287(5) 0.20334(5)
Co4_4 Co 0.62087(6) 0.86555(6) 0.16374(6)
Co5_4 Co 0.26689(5) 0.79511(7) 0.25498(6)
Ge1_4 Ge 0.48227(4) 0.83818(4) 0.38044(4)
Ge2_4 Ge 0.57095(4) 0.79583(4) 0.38233(4)
Ge3_4 Ge 0.48059(4) 0.63815(3) 0.19208(4)
Ge4_4 Ge 0.57377(4) 0.66858(4) 0.19822(4)
V1_4 V 0.54609(6) 0.84872(6) 0.29898(6)
V2_4 V 0.44693(6) 0.85453(6) 0.29612(6)
V3_4 V 0.37805(5) 0.79282(6) 0.28047(6)
V4_4 V 0.37423(6) 0.69582(6) 0.27870(6)
V5_4 V 0.43444(6) 0.62726(6) 0.27235(6)
V6_4 V 0.53264(6) 0.62008(6) 0.28004(6)
V7_4 V 0.60874(6) 0.68479(6) 0.28572(7)
V8_4 V 0.61531(6) 0.77591(6) 0.29852(6)
V9_4 V 0.47097(6) 0.82631(6) 0.21870(6)
V10_4 V 0.50178(6) 0.74899(6) 0.17621(6)
V11_4 V 0.41289(6) 0.72019(5) 0.20396(6)
V12_4 V 0.58216(6) 0.77690(6) 0.22044(6)
V13_4 V 0.40289(6) 0.76634(6) 0.35911(6)
V14_4 V 0.48456(6) 0.72692(6) 0.39612(6)
V15_4 V 0.56655(6) 0.68888(6) 0.36013(6)
V16_4 V 0.45030(6) 0.65431(6) 0.35235(6)
N1_3 N 0.3554(3) 0.8868(4) 0.3609(4)
H1_3 H 0.3421 0.8833 0.3834
H2_3 H 0.3636 0.8602 0.3526
N2_3 N 0.3698(4) 0.9718(5) 0.3392(4)
H3_3 H 0.3787 0.9746 0.3151
H4_3 H 0.3718 0.9982 0.3503
N3_3 N 0.4676(4) 0.9633(4) 0.3578(4)
H5_3 H 0.4901 0.9445 0.3603
H6_3 H 0.4696 0.9818 0.3775
N4_4 N 0.3427(4) 0.6108(3) 0.2050(3)
H7_4 H 0.3380 0.6207 0.1814
H8_4 H 0.3518 0.6335 0.2191
N5_4 N 0.3412(4) 0.5255(4) 0.2311(4)
H9_4 H 0.3523 0.5088 0.2497
H10_4 H 0.3275 0.5082 0.2144
N6_3 N 0.4385(4) 0.5098(3) 0.2122(3)
H11_3 H 0.4346 0.4903 0.1935
H12_3 H 0.4311 0.4964 0.2339
N7_4 N 0.3696(6) 0.8952(6) 0.2145(5)
H13_4 H 0.3848 0.8809 0.2324
H14_4 H 0.3429 0.8830 0.2129
N8_4 N 0.4137(6) 0.9566(6) 0.1716(6)
H15_4 H 0.3956 0.9729 0.1573
H16_4 H 0.4414 0.9631 0.1652
N9_4 N 0.3863(6) 0.8225(5) 0.1501(5)
H17_4 H 0.3573 0.8180 0.1520
H18_4 H 0.4000 0.8047 0.1664
N10_4 N 0.4298(6) 0.8869(6) 0.1086(5)
H19_4 H 0.4548 0.9024 0.1083
H20_4 H 0.4114 0.8986 0.0915
N11_4 N 0.5980(4) 0.8953(4) 0.2123(4)
H21_4 H 0.5859 0.8753 0.2278
H22_4 H 0.5775 0.9153 0.2065
N12_4 N 0.6813(4) 0.8760(4) 0.1894(4)
H23_4 H 0.6951 0.8985 0.1781
H24_4 H 0.6981 0.8521 0.1870
N13_4 N 0.5623(4) 0.8526(4) 0.1373(4)
H25_4 H 0.5459 0.8771 0.1366
H26_4 H 0.5475 0.8322 0.1503
N14_4 N 0.6465(4) 0.8326(4) 0.1176(4)
H27_4 H 0.6679 0.8143 0.1251
H28_4 H 0.6578 0.8517 0.1010
N15_4 N 0.2054(4) 0.7766(5) 0.2273(4)
H29_4 H 0.1894 0.8006 0.2222
H30_4 H 0.1897 0.7590 0.2425
N16_4 N 0.2912(4) 0.7550(4) 0.2118(4)
H31_4 H 0.3126 0.7378 0.2211
H32_4 H 0.3027 0.7717 0.1934
N17_4 N 0.2457(5) 0.8293(6) 0.3030(5)
H33_4 H 0.2211 0.8441 0.2973
H34_4 H 0.2662 0.8490 0.3095
N18_4 N 0.2610(4) 0.7427(5) 0.2944(4)
H35_4 H 0.2828 0.7234 0.2906
H36_4 H 0.2355 0.7288 0.2907
O1_4 O 0.4948(2) 0.8462(3) 0.3330(2)
O2_4 O 0.4982(2) 0.8505(2) 0.2639(2)
O3_4 O 0.5806(2) 0.8109(3) 0.3355(2)
O4_4 O 0.5797(2) 0.8126(2) 0.2653(2)
O5_4 O 0.5677(3) 0.8962(3) 0.3024(3)
O6_4 O 0.4100(2) 0.8154(3) 0.3245(2)
O7_4 O 0.4214(2) 0.8257(2) 0.2534(2)
O8_4 O 0.4278(3) 0.9040(3) 0.3019(3)
O9_4 O 0.3739(2) 0.7430(2) 0.3147(2)
O10_4 O 0.3811(2) 0.7465(2) 0.2451(2)
O11_4 O 0.3308(2) 0.8150(3) 0.2750(3)
O12_4 O 0.4063(2) 0.6581(2) 0.3129(2)
O13_4 O 0.4116(3) 0.6708(2) 0.2395(2)
O14_4 O 0.3250(3) 0.6772(3) 0.2749(3)
O15_4 O 0.4798(2) 0.6244(3) 0.3104(2)
O16_4 O 0.4877(2) 0.6286(3) 0.2410(2)
O17_4 O 0.4104(2) 0.5806(2) 0.2632(2)
O18_4 O 0.5667(2) 0.6536(3) 0.3158(3)
O19_4 O 0.5744(3) 0.6533(3) 0.2456(3)
O20_4 O 0.5485(3) 0.5703(3) 0.2809(3)
O21_4 O 0.6047(2) 0.7246(2) 0.3283(3)
O22_4 O 0.6110(2) 0.7377(3) 0.2553(3)
O23_4 O 0.6558(3) 0.6603(3) 0.2857(3)
O24_4 O 0.6653(3) 0.7923(3) 0.3014(3)
O25_4 O 0.5262(2) 0.7969(2) 0.2047(3)
O26_4 O 0.4486(2) 0.7723(2) 0.1967(2)
O27_4 O 0.4622(3) 0.8659(3) 0.1891(3)
O28_4 O 0.5577(3) 0.7236(2) 0.1941(3)
O29_4 O 0.4689(2) 0.6936(2) 0.1853(2)
O30_4 O 0.5058(3) 0.7584(3) 0.1319(3)
O31_4 O 0.3779(2) 0.7153(3) 0.1707(2)
O32_4 O 0.6183(3) 0.7997(3) 0.1931(3)
O33_4 O 0.4595(3) 0.7858(3) 0.3850(3)
O34_4 O 0.4317(2) 0.7117(3) 0.3699(2)
O35_4 O 0.3647(3) 0.7758(3) 0.3893(3)
O36_4 O 0.5462(2) 0.7450(2) 0.3850(2)
O37_4 O 0.5067(3) 0.6758(3) 0.3703(2)
O38_4 O 0.4791(3) 0.7181(3) 0.4409(3)
O39_4 O 0.5955(3) 0.6622(3) 0.3903(3)
O40_4 O 0.5347(2) 0.8340(3) 0.4032(2)
O41_3 O 0.4521(3) 0.8799(3) 0.3981(2)
O42_4 O 0.6192(3) 0.7954(3) 0.4096(3)
O43_4 O 0.5352(3) 0.6357(2) 0.1743(3)
O44_3 O 0.4446(3) 0.6017(3) 0.1737(2)
O45_4 O 0.6245(3) 0.6602(3) 0.1773(3)
O46_4 O 0.2683(4) 0.8534(4) 0.2192(4)
H37_4 H 0.2661 0.8760 0.2329
H38_4 H 0.2514 0.8565 0.2003
C1_3 C 0.3262(5) 0.9047(5) 0.3357(5)
H39_3 H 0.3345 0.8968 0.3101
H40_3 H 0.2972 0.8931 0.3404
C2_3 C 0.3256(6) 0.9572(6) 0.3399(6)
H41_3 H 0.3118 0.9654 0.3635
H42_3 H 0.3093 0.9702 0.3193
C3_3 C 0.4773(7) 0.9874(7) 0.3273(6)
H43_3 H 0.4767 0.9683 0.3054
C4_4 C 0.3015(5) 0.5944(5) 0.2204(5)
H45_4 H 0.2862 0.6178 0.2332
H46_4 H 0.2830 0.5839 0.2000
C5_4 C 0.3104(5) 0.5587(5) 0.2469(5)
H47_4 H 0.3227 0.5708 0.2698
H48_4 H 0.2831 0.5445 0.2534
C6_3 C 0.4847(4) 0.5200(4) 0.2140(4)
H49_3 H 0.4921 0.5383 0.1926
H50_3 H 0.4902 0.5369 0.2367
C7_4 C 0.3654(9) 0.9414(9) 0.2251(8)
H51_4 H 0.3396 0.9539 0.2133
H52_4 H 0.3623 0.9440 0.2522
C8_4 C 0.4062(8) 0.9657(8) 0.2119(8)
H53_4 H 0.4313 0.9562 0.2265
H54_4 H 0.4025 0.9968 0.2158
C9_4 C 0.4008(7) 0.8133(6) 0.1117(6)
H55_4 H 0.4093 0.7828 0.1101
H56_4 H 0.3765 0.8178 0.0945
C10_4 C 0.4388(8) 0.8413(8) 0.0991(7)
H57_4 H 0.4429 0.8384 0.0721
H58_4 H 0.4653 0.8318 0.1116
C11_4 C 0.6369(6) 0.9172(6) 0.2317(6)
H59_4 H 0.6298 0.9239 0.2577
H60_4 H 0.6442 0.9443 0.2189
C12_4 C 0.6748(6) 0.8860(5) 0.2299(5)
H61_4 H 0.6683 0.8595 0.2439
H62_4 H 0.7008 0.8992 0.2405
C13_4 C 0.5700(5) 0.8379(5) 0.1006(5)
H63_4 H 0.5443 0.8227 0.0913
H64_4 H 0.5754 0.8627 0.0842
C14_4 C 0.6095(5) 0.8069(5) 0.0995(5)
H65_4 H 0.6167 0.7991 0.0737
H66_4 H 0.6035 0.7804 0.1136
C15_4 C 0.2162(5) 0.7540(6) 0.1926(5)
H67_4 H 0.1923 0.7348 0.1858
H68_4 H 0.2198 0.7752 0.1725
C16_4 C 0.2568(5) 0.7278(6) 0.1961(6)
H69_4 H 0.2655 0.7171 0.1715
H70_4 H 0.2517 0.7029 0.2124
C17_4 C 0.2369(6) 0.8005(7) 0.3355(6)
H71_4 H 0.2444 0.8157 0.3587
H72_4 H 0.2060 0.7936 0.3363
C18_4 C 0.2630(6) 0.7586(7) 0.3330(6)
H73_4 H 0.2509 0.7370 0.3501
H74_4 H 0.2931 0.7640 0.3402
O47_4 O 0.4385(3) 0.6153(3) 0.3828(3)
Co7_3 Co 0.42608(5) 0.58847(5) 0.11811(5)
Co8_4 Co 0.07392(5) 0.91153(5) 0.61811(5)
Co9_3 Co 0.43713(5) 0.89327(5) 0.45334(5)
Co10_2 Co 0.60673(5) 0.43713(5) 0.20334(5)
Co11_4 Co 0.10673(5) 0.93713(5) 0.70334(5)
Co13_4 Co 0.61049(5) 0.59850(6) 0.41281(5)
Co16_4 Co 0.20489(7) 0.76689(5) 0.50498(6)
Ge5_4 Ge 0.16182(4) 0.98227(4) 0.63044(4)
Ge7_4 Ge 0.36185(3) 0.98059(4) 0.44208(4)
V18_4 V 0.14547(6) 0.94693(6) 0.54612(6)
V19_4 V 0.20718(6) 0.87805(5) 0.53047(6)
V20_4 V 0.30418(6) 0.87423(6) 0.52870(6)
V21_4 V 0.37274(6) 0.93444(6) 0.52235(6)
V25_4 V 0.17369(6) 0.97097(6) 0.46870(6)
V27_4 V 0.27981(5) 0.91289(6) 0.45396(6)
V29_4 V 0.23366(6) 0.90289(6) 0.60911(6)
V30_4 V 0.27308(6) 0.98456(6) 0.64612(6)
V32_4 V 0.34569(6) 0.95030(6) 0.60235(6)
N22_4 N 0.3892(3) 0.8427(4) 0.4550(3)
H81_4 H 0.3793 0.8380 0.4314
H82_4 H 0.3665 0.8518 0.4691
N23_4 N 0.4745(4) 0.8412(4) 0.4811(4)
H83_4 H 0.4912 0.8523 0.4997
H84_4 H 0.4918 0.8275 0.4644
N24_2 N 0.5615(4) 0.4902(3) 0.2122(3)
N25_4 N 0.4902(3) 0.9385(4) 0.4622(3)
H85_2 H 0.5654 0.5097 0.1935
H86_4 H 0.5097 0.9346 0.4435
H87_2 H 0.5689 0.5036 0.2339
H88_4 H 0.5036 0.9311 0.4839
N26_4 N 0.1048(6) 0.8696(6) 0.4645(5)
H89_4 H 0.1191 0.8848 0.4824
H90_4 H 0.1170 0.8429 0.4629
N27_4 N 0.0434(6) 0.9137(6) 0.4216(6)
H91_4 H 0.0271 0.8956 0.4073
H92_4 H 0.0369 0.9414 0.4152
N28_4 N 0.1775(5) 0.8863(6) 0.4001(5)
H93_4 H 0.1820 0.8573 0.4020
H94_4 H 0.1953 0.9000 0.4164
N29_4 N 0.1131(6) 0.9298(6) 0.3586(5)
H95_4 H 0.0976 0.9548 0.3583
H96_4 H 0.1014 0.9114 0.3415
N34_4 N 0.2234(5) 0.7054(4) 0.4773(4)
H105_4 H 0.1994 0.6894 0.4722
H106_4 H 0.2410 0.6897 0.4925
N35_4 N 0.2450(4) 0.7912(4) 0.4618(4)
H107_4 H 0.2622 0.8126 0.4711
H108_4 H 0.2283 0.8027 0.4434
N36_4 N 0.1707(6) 0.7457(5) 0.5530(5)
H109_4 H 0.1559 0.7211 0.5473
H110_4 H 0.1510 0.7662 0.5595
N37_4 N 0.2573(5) 0.7610(4) 0.5444(4)
H111_4 H 0.2766 0.7828 0.5406
H112_4 H 0.2712 0.7355 0.5407
O48_4 O 0.1538(3) 0.9948(2) 0.5830(2)
O49_4 O 0.1495(2) 0.9982(2) 0.5139(2)
O53_4 O 0.1846(3) 0.9100(2) 0.5745(2)
O54_4 O 0.1743(2) 0.9214(2) 0.5034(2)
O55_4 O 0.0960(3) 0.9278(3) 0.5519(3)
O56_4 O 0.2570(2) 0.8739(2) 0.5647(2)
O57_4 O 0.2535(2) 0.8811(2) 0.4951(2)
O58_4 O 0.1850(3) 0.8308(2) 0.5250(3)
O59_4 O 0.3419(2) 0.9063(2) 0.5629(2)
O60_4 O 0.3292(2) 0.9116(3) 0.4895(2)
O61_4 O 0.3228(3) 0.8250(3) 0.5249(3)
O62_4 O 0.3756(3) 0.9798(2) 0.5604(2)
O63_4 O 0.3714(3) 0.9877(2) 0.4910(2)
O64_4 O 0.4194(2) 0.9104(2) 0.5132(2)
O73_4 O 0.2277(2) 0.9486(2) 0.4467(2)
O74_4 O 0.1341(3) 0.9622(3) 0.4391(3)
O76_4 O 0.3064(2) 0.9689(2) 0.4353(2)
O78_4 O 0.2847(3) 0.8779(2) 0.4207(2)
O80_4 O 0.2142(3) 0.9595(3) 0.6350(3)
O81_4 O 0.2883(3) 0.9317(2) 0.6199(2)
O82_4 O 0.2242(3) 0.8647(3) 0.6393(3)
O85_4 O 0.2819(3) 0.9791(3) 0.6909(3)
O90_4 O 0.1201(3) 0.9521(3) 0.6481(2)
O91_3 O 0.3799(3) 0.5479(3) 0.1481(2)
O95_3 O 0.3983(3) 0.9446(3) 0.4237(2)
O98_4 O 0.1466(4) 0.7683(4) 0.4692(4)
H113_4 H 0.1240 0.7661 0.4829
H114_4 H 0.1435 0.7514 0.4503
H120_3 H 0.5458 0.9912 0.3240
C22_4 C 0.4056(5) 0.8015(5) 0.4704(5)
H121_4 H 0.3822 0.7862 0.4832
H122_4 H 0.4161 0.7830 0.4500
C23_4 C 0.4413(5) 0.8104(5) 0.4969(5)
H123_4 H 0.4292 0.8227 0.5198
H124_4 H 0.4555 0.7831 0.5034
C24_3 C 0.5153(4) 0.4800(4) 0.2140(4)
H125_3 H 0.5079 0.4617 0.1926
H126_3 H 0.5098 0.4631 0.2367
C25_4 C 0.0586(9) 0.8654(9) 0.4751(8)
H127_4 H 0.0461 0.8396 0.4633
H128_4 H 0.0560 0.8623 0.5022
C26_4 C 0.0343(8) 0.9062(8) 0.4619(8)
H129_4 H 0.0438 0.9313 0.4765
H130_4 H 0.0032 0.9025 0.4658
C27_4 C 0.1867(6) 0.9008(7) 0.3617(6)
H131_4 H 0.2172 0.9093 0.3601
H132_4 H 0.1822 0.8765 0.3445
C28_4 C 0.1587(8) 0.9388(8) 0.3491(7)
H133_4 H 0.1616 0.9429 0.3221
H134_4 H 0.1682 0.9653 0.3616
C33_4 C 0.2460(6) 0.7162(5) 0.4426(5)
H143_4 H 0.2652 0.6923 0.4358
H144_4 H 0.2248 0.7198 0.4225
C34_4 C 0.2722(6) 0.7568(5) 0.4461(6)
H145_4 H 0.2829 0.7655 0.4215
H146_4 H 0.2971 0.7517 0.4624
C35_4 C 0.1995(7) 0.7369(6) 0.5855(6)
H147_4 H 0.1843 0.7444 0.6087
H148_4 H 0.2064 0.7060 0.5863
C36_4 C 0.2414(7) 0.7630(6) 0.5830(6)
H149_4 H 0.2630 0.7509 0.6001
H150_4 H 0.2360 0.7931 0.5902
O99_4 O 0.3847(3) 0.9385(3) 0.6328(3)
H151_5 H 0.479325 0.969825 0.462995
Co4_5 Co 0.37913(6) 0.13445(6) 0.16374(6)
Co5_5 Co 0.73311(5) 0.20489(7) 0.25498(6)
Ge1_5 Ge 0.51773(4) 0.16182(4) 0.38044(4)
Ge2_5 Ge 0.42905(4) 0.20417(4) 0.38233(4)
Ge3_5 Ge 0.51941(4) 0.36185(3) 0.19208(4)
Ge4_5 Ge 0.42623(4) 0.33142(4) 0.19822(4)
V1_5 V 0.45391(6) 0.15128(6) 0.29898(6)
V2_5 V 0.55307(6) 0.14547(6) 0.29612(6)
V3_5 V 0.62195(5) 0.20718(6) 0.28047(6)
V4_5 V 0.62577(6) 0.30418(6) 0.27870(6)
V5_5 V 0.56556(6) 0.37274(6) 0.27235(6)
V6_5 V 0.46736(6) 0.37992(6) 0.28004(6)
V7_5 V 0.39126(6) 0.31521(6) 0.28572(7)
V8_5 V 0.38469(6) 0.22409(6) 0.29852(6)
V9_5 V 0.52903(6) 0.17369(6) 0.21870(6)
V10_5 V 0.49822(6) 0.25101(6) 0.17621(6)
V11_5 V 0.58711(6) 0.27981(5) 0.20396(6)
V12_5 V 0.41784(6) 0.22310(6) 0.22044(6)
V13_5 V 0.59711(6) 0.23366(6) 0.35911(6)
V14_5 V 0.51544(6) 0.27308(6) 0.39612(6)
V15_5 V 0.43345(6) 0.31112(6) 0.36013(6)
V16_5 V 0.54970(6) 0.34569(6) 0.35235(6)
N4_5 N 0.6573(4) 0.3892(3) 0.2050(3)
H7_5 H 0.6620 0.3793 0.1814
H8_5 H 0.6482 0.3665 0.2191
N5_5 N 0.6588(4) 0.4745(4) 0.2311(4)
H9_5 H 0.6477 0.4912 0.2497
H10_5 H 0.6725 0.4918 0.2144
N7_5 N 0.6304(6) 0.1048(6) 0.2145(5)
H13_5 H 0.6152 0.1191 0.2324
H14_5 H 0.6571 0.1170 0.2129
N8_5 N 0.5863(6) 0.0434(6) 0.1716(6)
H15_5 H 0.6044 0.0271 0.1573
H16_5 H 0.5586 0.0369 0.1652
N9_5 N 0.6137(6) 0.1775(5) 0.1501(5)
H17_5 H 0.6427 0.1820 0.1520
H18_5 H 0.6000 0.1953 0.1664
N10_5 N 0.5702(6) 0.1131(6) 0.1086(5)
H19_5 H 0.5452 0.0976 0.1083
H20_5 H 0.5886 0.1014 0.0915
N11_5 N 0.4020(4) 0.1047(4) 0.2123(4)
H21_5 H 0.4141 0.1247 0.2278
H22_5 H 0.4225 0.0847 0.2065
N12_5 N 0.3187(4) 0.1240(4) 0.1894(4)
H23_5 H 0.3049 0.1015 0.1781
H24_5 H 0.3019 0.1479 0.1870
N13_5 N 0.4377(4) 0.1474(4) 0.1373(4)
H25_5 H 0.4541 0.1229 0.1366
H26_5 H 0.4525 0.1678 0.1503
N14_5 N 0.3535(4) 0.1674(4) 0.1176(4)
H27_5 H 0.3321 0.1857 0.1251
H28_5 H 0.3422 0.1483 0.1010
N15_5 N 0.7946(4) 0.2234(5) 0.2273(4)
H29_5 H 0.8106 0.1994 0.2222
H30_5 H 0.8103 0.2410 0.2425
N16_5 N 0.7088(4) 0.2450(4) 0.2118(4)
H31_5 H 0.6874 0.2622 0.2211
H32_5 H 0.6973 0.2283 0.1934
N17_5 N 0.7543(5) 0.1707(6) 0.3030(5)
H33_5 H 0.7789 0.1559 0.2973
H34_5 H 0.7338 0.1510 0.3095
N18_5 N 0.7390(4) 0.2573(5) 0.2944(4)
H35_5 H 0.7172 0.2766 0.2906
H36_5 H 0.7645 0.2712 0.2907
O1_5 O 0.5052(2) 0.1538(3) 0.3330(2)
O2_5 O 0.5018(2) 0.1495(2) 0.2639(2)
O3_5 O 0.4194(2) 0.1891(3) 0.3355(2)
O4_5 O 0.4203(2) 0.1874(2) 0.2653(2)
O5_5 O 0.4323(3) 0.1038(3) 0.3024(3)
O6_5 O 0.5900(2) 0.1846(3) 0.3245(2)
O7_5 O 0.5786(2) 0.1743(2) 0.2534(2)
O8_5 O 0.5722(3) 0.0960(3) 0.3019(3)
O9_5 O 0.6261(2) 0.2570(2) 0.3147(2)
O10_5 O 0.6189(2) 0.2535(2) 0.2451(2)
O11_5 O 0.6692(2) 0.1850(3) 0.2750(3)
O12_5 O 0.5937(2) 0.3419(2) 0.3129(2)
O13_5 O 0.5884(3) 0.3292(2) 0.2395(2)
O14_5 O 0.6750(3) 0.3228(3) 0.2749(3)
O15_5 O 0.5202(2) 0.3756(3) 0.3104(2)
O16_5 O 0.5123(2) 0.3714(3) 0.2410(2)
O17_5 O 0.5896(2) 0.4194(2) 0.2632(2)
O18_5 O 0.4333(2) 0.3464(3) 0.3158(3)
O19_5 O 0.4256(3) 0.3467(3) 0.2456(3)
O20_5 O 0.4515(3) 0.4297(3) 0.2809(3)
O21_5 O 0.3953(2) 0.2754(2) 0.3283(3)
O22_5 O 0.3890(2) 0.2623(3) 0.2553(3)
O23_5 O 0.3442(3) 0.3397(3) 0.2857(3)
O24_5 O 0.3347(3) 0.2077(3) 0.3014(3)
O25_5 O 0.4738(2) 0.2031(2) 0.2047(3)
O26_5 O 0.5514(2) 0.2277(2) 0.1967(2)
O27_5 O 0.5378(3) 0.1341(3) 0.1891(3)
O28_5 O 0.4423(3) 0.2764(2) 0.1941(3)
O29_5 O 0.5311(2) 0.3064(2) 0.1853(2)
O30_5 O 0.4942(3) 0.2416(3) 0.1319(3)
O31_5 O 0.6221(2) 0.2847(3) 0.1707(2)
O32_5 O 0.3817(3) 0.2003(3) 0.1931(3)
O33_5 O 0.5405(3) 0.2142(3) 0.3850(3)
O34_5 O 0.5683(2) 0.2883(3) 0.3699(2)
O35_5 O 0.6353(3) 0.2242(3) 0.3893(3)
O36_5 O 0.4538(2) 0.2550(2) 0.3850(2)
O37_5 O 0.4933(3) 0.3242(3) 0.3703(2)
O38_5 O 0.5209(3) 0.2819(3) 0.4409(3)
O39_5 O 0.4045(3) 0.3378(3) 0.3903(3)
O40_5 O 0.4653(2) 0.1660(3) 0.4032(2)
O42_5 O 0.3808(3) 0.2046(3) 0.4096(3)
O43_5 O 0.4648(3) 0.3643(2) 0.1743(3)
O44_4 O 0.5554(3) 0.3983(3) 0.1737(2)
O45_5 O 0.3755(3) 0.3398(3) 0.1773(3)
O46_5 O 0.7317(4) 0.1466(4) 0.2192(4)
H37_5 H 0.7339 0.1240 0.2329
H38_5 H 0.7486 0.1435 0.2003
C4_5 C 0.6985(5) 0.4056(5) 0.2204(5)
H45_5 H 0.7138 0.3822 0.2332
H46_5 H 0.7170 0.4161 0.2000
C5_5 C 0.6896(5) 0.4413(5) 0.2469(5)
H47_5 H 0.6773 0.4292 0.2698
H48_5 H 0.7169 0.4555 0.2534
C7_5 C 0.6346(9) 0.0586(9) 0.2251(8)
H51_5 H 0.6604 0.0461 0.2133
H52_5 H 0.6377 0.0560 0.2522
C8_5 C 0.5938(8) 0.0343(8) 0.2119(8)
H53_5 H 0.5687 0.0438 0.2265
H54_5 H 0.5975 0.0032 0.2158
C9_5 C 0.5992(7) 0.1867(6) 0.1117(6)
H55_5 H 0.5907 0.2172 0.1101
H56_5 H 0.6235 0.1822 0.0945
C10_5 C 0.5612(8) 0.1587(8) 0.0991(7)
H57_5 H 0.5571 0.1616 0.0721
H58_5 H 0.5347 0.1682 0.1116
C11_5 C 0.3631(6) 0.0828(6) 0.2317(6)
H59_5 H 0.3702 0.0761 0.2577
H60_5 H 0.3558 0.0557 0.2189
C12_5 C 0.3252(6) 0.1140(5) 0.2299(5)
H61_5 H 0.3317 0.1405 0.2439
H62_5 H 0.2992 0.1008 0.2405
C13_5 C 0.4300(5) 0.1621(5) 0.1006(5)
H63_5 H 0.4557 0.1773 0.0913
H64_5 H 0.4246 0.1373 0.0842
C14_5 C 0.3905(5) 0.1931(5) 0.0995(5)
H65_5 H 0.3833 0.2009 0.0737
H66_5 H 0.3965 0.2196 0.1136
C15_5 C 0.7838(5) 0.2460(6) 0.1926(5)
H67_5 H 0.8077 0.2652 0.1858
H68_5 H 0.7802 0.2248 0.1725
C16_5 C 0.7432(5) 0.2722(6) 0.1961(6)
H69_5 H 0.7345 0.2829 0.1715
H70_5 H 0.7483 0.2971 0.2124
C17_5 C 0.7631(6) 0.1995(7) 0.3355(6)
H71_5 H 0.7556 0.1843 0.3587
H72_5 H 0.7940 0.2064 0.3363
C18_5 C 0.7370(6) 0.2414(7) 0.3330(6)
H73_5 H 0.7491 0.2630 0.3501
H74_5 H 0.7069 0.2360 0.3402
O47_5 O 0.5615(3) 0.3847(3) 0.3828(3)
Co7_4 Co 0.57392(5) 0.41153(5) 0.11811(5)
Co8_5 Co 0.92608(5) 0.08847(5) 0.61811(5)
Co9_4 Co 0.56287(5) 0.10673(5) 0.45334(5)
Co11_5 Co 0.89327(5) 0.06287(5) 0.70334(5)
Co13_5 Co 0.38951(5) 0.40150(6) 0.41281(5)
Co16_5 Co 0.79511(7) 0.23311(5) 0.50498(6)
Ge5_5 Ge 0.83818(4) 0.01773(4) 0.63044(4)
Ge7_5 Ge 0.63815(3) 0.01941(4) 0.44208(4)
V18_5 V 0.85453(6) 0.05307(6) 0.54612(6)
V19_5 V 0.79282(6) 0.12195(5) 0.53047(6)
V20_5 V 0.69582(6) 0.12577(6) 0.52870(6)
V21_5 V 0.62726(6) 0.06556(6) 0.52235(6)
V25_5 V 0.82631(6) 0.02903(6) 0.46870(6)
V27_5 V 0.72019(5) 0.08711(6) 0.45396(6)
V29_5 V 0.76634(6) 0.09711(6) 0.60911(6)
V30_5 V 0.72692(6) 0.01544(6) 0.64612(6)
V32_5 V 0.65431(6) 0.04970(6) 0.60235(6)
N22_5 N 0.6108(3) 0.1573(4) 0.4550(3)
H81_5 H 0.6207 0.1620 0.4314
H82_5 H 0.6335 0.1482 0.4691
N23_5 N 0.5255(4) 0.1588(4) 0.4811(4)
H83_5 H 0.5088 0.1477 0.4997
H84_5 H 0.5082 0.1725 0.4644
N25_5 N 0.5098(3) 0.0615(4) 0.4622(3)
H86_5 H 0.4903 0.0654 0.4435
H88_5 H 0.4964 0.0689 0.4839
N26_5 N 0.8952(6) 0.1304(6) 0.4645(5)
H89_5 H 0.8809 0.1152 0.4824
H90_5 H 0.8830 0.1571 0.4629
N27_5 N 0.9566(6) 0.0863(6) 0.4216(6)
H91_5 H 0.9729 0.1044 0.4073
H92_5 H 0.9631 0.0586 0.4152
N28_5 N 0.8225(5) 0.1137(6) 0.4001(5)
H93_5 H 0.8180 0.1427 0.4020
H94_5 H 0.8047 0.1000 0.4164
N29_5 N 0.8869(6) 0.0702(6) 0.3586(5)
H95_5 H 0.9024 0.0452 0.3583
H96_5 H 0.8986 0.0886 0.3415
N34_5 N 0.7766(5) 0.2946(4) 0.4773(4)
H105_5 H 0.8006 0.3106 0.4722
H106_5 H 0.7590 0.3103 0.4925
N35_5 N 0.7550(4) 0.2088(4) 0.4618(4)
H107_5 H 0.7378 0.1874 0.4711
H108_5 H 0.7717 0.1973 0.4434
N36_5 N 0.8293(6) 0.2543(5) 0.5530(5)
H109_5 H 0.8441 0.2789 0.5473
H110_5 H 0.8490 0.2338 0.5595
N37_5 N 0.7427(5) 0.2390(4) 0.5444(4)
H111_5 H 0.7234 0.2172 0.5406
H112_5 H 0.7288 0.2645 0.5407
O48_5 O 0.8462(3) 0.0052(2) 0.5830(2)
O49_5 O 0.8505(2) 0.0018(2) 0.5139(2)
O53_5 O 0.8154(3) 0.0900(2) 0.5745(2)
O54_5 O 0.8257(2) 0.0786(2) 0.5034(2)
O55_5 O 0.9040(3) 0.0722(3) 0.5519(3)
O56_5 O 0.7430(2) 0.1261(2) 0.5647(2)
O57_5 O 0.7465(2) 0.1189(2) 0.4951(2)
O58_5 O 0.8150(3) 0.1692(2) 0.5250(3)
O59_5 O 0.6581(2) 0.0937(2) 0.5629(2)
O60_5 O 0.6708(2) 0.0884(3) 0.4895(2)
O61_5 O 0.6772(3) 0.1750(3) 0.5249(3)
O62_5 O 0.6244(3) 0.0202(2) 0.5604(2)
O63_5 O 0.6286(3) 0.0123(2) 0.4910(2)
O64_5 O 0.5806(2) 0.0896(2) 0.5132(2)
O73_5 O 0.7723(2) 0.0514(2) 0.4467(2)
O74_5 O 0.8659(3) 0.0378(3) 0.4391(3)
O76_5 O 0.6936(2) 0.0311(2) 0.4353(2)
O78_5 O 0.7153(3) 0.1221(2) 0.4207(2)
O80_5 O 0.7858(3) 0.0405(3) 0.6350(3)
O81_5 O 0.7117(3) 0.0683(2) 0.6199(2)
O82_5 O 0.7758(3) 0.1353(3) 0.6393(3)
O85_5 O 0.7181(3) 0.0209(3) 0.6909(3)
O90_5 O 0.8799(3) 0.0479(3) 0.6481(2)
O91_4 O 0.6201(3) 0.4521(3) 0.1481(2)
O98_5 O 0.8534(4) 0.2317(4) 0.4692(4)
H113_5 H 0.8760 0.2339 0.4829
H114_5 H 0.8565 0.2486 0.4503
C22_5 C 0.5944(5) 0.1985(5) 0.4704(5)
H121_5 H 0.6178 0.2138 0.4832
H122_5 H 0.5839 0.2170 0.4500
C23_5 C 0.5587(5) 0.1896(5) 0.4969(5)
H123_5 H 0.5708 0.1773 0.5198
H124_5 H 0.5445 0.2169 0.5034
C25_5 C 0.9414(9) 0.1346(9) 0.4751(8)
H127_5 H 0.9539 0.1604 0.4633
H128_5 H 0.9440 0.1377 0.5022
C26_5 C 0.9657(8) 0.0938(8) 0.4619(8)
H129_5 H 0.9562 0.0687 0.4765
H130_5 H 0.9968 0.0975 0.4658
C27_5 C 0.8133(6) 0.0992(7) 0.3617(6)
H131_5 H 0.7828 0.0907 0.3601
H132_5 H 0.8178 0.1235 0.3445
C28_5 C 0.8413(8) 0.0612(8) 0.3491(7)
H133_5 H 0.8384 0.0571 0.3221
H134_5 H 0.8318 0.0347 0.3616
C33_5 C 0.7540(6) 0.2838(5) 0.4426(5)
H143_5 H 0.7348 0.3077 0.4358
H144_5 H 0.7752 0.2802 0.4225
C34_5 C 0.7278(6) 0.2432(5) 0.4461(6)
H145_5 H 0.7171 0.2345 0.4215
H146_5 H 0.7029 0.2483 0.4624
C35_5 C 0.8005(7) 0.2631(6) 0.5855(6)
H147_5 H 0.8157 0.2556 0.6087
H148_5 H 0.7936 0.2940 0.5863
C36_5 C 0.7586(7) 0.2370(6) 0.5830(6)
H149_5 H 0.7370 0.2491 0.6001
H150_5 H 0.7640 0.2069 0.5902
O99_5 O 0.6153(3) 0.0615(3) 0.6328(3)
H151_6 H 0.520675 0.030175 0.462995
Co15_5 Co 0.86555(6) 0.87913(6) 0.41374(6)
Ge6_5 Ge 0.79583(4) 0.92905(4) 0.63233(4)
Ge8_5 Ge 0.66858(4) 0.92623(4) 0.44822(4)
V17_5 V 0.84872(6) 0.95391(6) 0.54898(6)
V22_5 V 0.62008(6) 0.96736(6) 0.53004(6)
V23_5 V 0.68479(6) 0.89126(6) 0.53572(7)
V24_5 V 0.77591(6) 0.88469(6) 0.54852(6)
V26_5 V 0.74899(6) 0.99822(6) 0.42621(6)
V28_5 V 0.77690(6) 0.91784(6) 0.47044(6)
V31_5 V 0.68888(6) 0.93345(6) 0.61013(6)
N30_5 N 0.8953(4) 0.9020(4) 0.4623(4)
H97_5 H 0.8753 0.9141 0.4778
H98_5 H 0.9153 0.9225 0.4565
N31_5 N 0.8760(4) 0.8187(4) 0.4394(4)
H99_5 H 0.8985 0.8049 0.4281
H100_5 H 0.8521 0.8019 0.4370
N32_5 N 0.8526(4) 0.9377(4) 0.3873(4)
H101_5 H 0.8771 0.9541 0.3866
H102_5 H 0.8322 0.9525 0.4003
N33_5 N 0.8326(4) 0.8535(4) 0.3676(4)
H103_5 H 0.8143 0.8321 0.3751
H104_5 H 0.8517 0.8422 0.3510
O50_5 O 0.8109(3) 0.9194(2) 0.5855(2)
O51_5 O 0.8126(2) 0.9203(2) 0.5153(2)
O52_5 O 0.8962(3) 0.9323(3) 0.5524(3)
O65_5 O 0.6536(3) 0.9333(2) 0.5658(3)
O66_5 O 0.6533(3) 0.9256(3) 0.4956(3)
O67_5 O 0.5703(3) 0.9515(3) 0.5309(3)
O68_5 O 0.7246(2) 0.8953(2) 0.5783(3)
O69_5 O 0.7377(3) 0.8890(2) 0.5053(3)
O70_5 O 0.6603(3) 0.8442(3) 0.5357(3)
O71_5 O 0.7923(3) 0.8347(3) 0.5514(3)
O72_5 O 0.7969(2) 0.9738(2) 0.4547(3)
O75_5 O 0.7236(2) 0.9423(3) 0.4441(3)
O77_5 O 0.7584(3) 0.9942(3) 0.3819(3)
O79_5 O 0.7997(3) 0.8817(3) 0.4431(3)
O83_5 O 0.7450(2) 0.9538(2) 0.6350(2)
O84_5 O 0.6758(3) 0.9933(3) 0.6203(2)
O89_5 O 0.8340(3) 0.9653(2) 0.6532(2)
O93_5 O 0.7954(3) 0.8808(3) 0.6596(3)
O94_5 O 0.6357(2) 0.9648(3) 0.4243(3)
O97_5 O 0.6602(3) 0.8755(3) 0.4273(3)
C29_5 C 0.9172(6) 0.8631(6) 0.4817(6)
H135_5 H 0.9239 0.8702 0.5077
H136_5 H 0.9443 0.8558 0.4689
C30_5 C 0.8860(5) 0.8252(6) 0.4799(5)
H137_5 H 0.8595 0.8317 0.4939
H138_5 H 0.8992 0.7992 0.4905
C31_5 C 0.8379(5) 0.9300(5) 0.3506(5)
H139_5 H 0.8227 0.9557 0.3413
H140_5 H 0.8627 0.9246 0.3342
C32_5 C 0.8069(5) 0.8905(5) 0.3495(5)
H141_5 H 0.7991 0.8833 0.3237
H142_5 H 0.7804 0.8965 0.3636
H11_4 H 0.0097 0.4346 0.9435
H12_4 H 0.0036 0.4311 0.9839
Co10_3 Co 0.06287(5) 0.60673(5) 0.95334(5)
N24_3 N 0.0098(3) 0.5615(4) 0.9622(3)
C24_4 C 0.0200(4) 0.5153(4) 0.9640(4)
H125_4 H 0.0383 0.5079 0.9426
H126_4 H 0.0369 0.5098 0.9867
Co5_6 Co 0.70489(7) 0.26689(5) 0.00498(6)
Ge1_6 Ge 0.66182(4) 0.48227(4) 0.13044(4)
Ge2_6 Ge 0.70417(4) 0.57095(4) 0.13233(4)
V1_6 V 0.65128(6) 0.54609(6) 0.04898(6)
V2_6 V 0.64547(6) 0.44693(6) 0.04612(6)
V3_6 V 0.70718(6) 0.37805(5) 0.03047(6)
V4_6 V 0.80418(6) 0.37423(6) 0.02870(6)
V5_6 V 0.87274(6) 0.43444(6) 0.02235(6)
V6_6 V 0.87992(6) 0.53264(6) 0.03004(6)
V7_6 V 0.81521(6) 0.60874(6) 0.03572(7)
V8_6 V 0.72409(6) 0.61531(6) 0.04852(6)
V13_6 V 0.73366(6) 0.40289(6) 0.10911(6)
V14_6 V 0.77308(6) 0.48456(6) 0.14612(6)
V15_6 V 0.81112(6) 0.56655(6) 0.11013(6)
V16_6 V 0.84569(6) 0.45030(6) 0.10235(6)
N1_4 N 0.6132(4) 0.3554(3) 0.1109(4)
H1_4 H 0.6167 0.3421 0.1334
H2_4 H 0.6398 0.3636 0.1026
N2_4 N 0.5282(5) 0.3698(4) 0.0892(4)
H3_4 H 0.5254 0.3787 0.0651
H4_4 H 0.5018 0.3718 0.1003
N3_4 N 0.5367(4) 0.4676(4) 0.1078(4)
H5_4 H 0.5555 0.4901 0.1103
H6_4 H 0.5182 0.4696 0.1275
N17_6 N 0.6707(6) 0.2457(5) 0.0530(5)
H33_6 H 0.6559 0.2211 0.0473
H34_6 H 0.6510 0.2662 0.0595
N18_6 N 0.7573(5) 0.2610(4) 0.0444(4)
H35_6 H 0.7766 0.2828 0.0406
H36_6 H 0.7712 0.2355 0.0407
O1_6 O 0.6538(3) 0.4948(2) 0.0830(2)
O2_6 O 0.6495(2) 0.4982(2) 0.0139(2)
O3_6 O 0.6891(3) 0.5806(2) 0.0855(2)
O4_6 O 0.6874(2) 0.5797(2) 0.0153(2)
O5_6 O 0.6038(3) 0.5677(3) 0.0524(3)
O6_6 O 0.6846(3) 0.4100(2) 0.0745(2)
O7_6 O 0.6743(2) 0.4214(2) 0.0034(2)
O8_6 O 0.5960(3) 0.4278(3) 0.0519(3)
O9_6 O 0.7570(2) 0.3739(2) 0.0647(2)
O11_6 O 0.6850(3) 0.3308(2) 0.0250(3)
O12_6 O 0.8419(2) 0.4063(2) 0.0629(2)
O14_6 O 0.8228(3) 0.3250(3) 0.0249(3)
O15_6 O 0.8756(3) 0.4798(2) 0.0604(2)
O17_6 O 0.9194(2) 0.4104(2) 0.0132(2)
O18_6 O 0.8464(3) 0.5667(2) 0.0658(3)
O20_6 O 0.9297(3) 0.5485(3) 0.0309(3)
O21_6 O 0.7754(2) 0.6047(2) 0.0783(3)
O22_6 O 0.7623(3) 0.6110(2) 0.0053(3)
O23_6 O 0.8397(3) 0.6558(3) 0.0357(3)
O24_6 O 0.7077(3) 0.6653(3) 0.0514(3)
O33_6 O 0.7142(3) 0.4595(3) 0.1350(3)
O34_6 O 0.7883(3) 0.4317(2) 0.1199(2)
O35_6 O 0.7242(3) 0.3647(3) 0.1393(3)
O36_6 O 0.7550(2) 0.5462(2) 0.1350(2)
O37_6 O 0.8242(3) 0.5067(3) 0.1203(2)
O38_6 O 0.7819(3) 0.4791(3) 0.1909(3)
O40_6 O 0.6660(3) 0.5347(2) 0.1532(2)
O42_6 O 0.7046(3) 0.6192(3) 0.1596(3)
C1_4 C 0.5953(5) 0.3262(5) 0.0857(5)
H39_4 H 0.6032 0.3345 0.0601
H40_4 H 0.6069 0.2972 0.0904
C2_4 C 0.5428(6) 0.3256(6) 0.0899(6)
H41_4 H 0.5346 0.3118 0.1135
H42_4 H 0.5298 0.3093 0.0693
C3_4 C 0.5126(7) 0.4773(7) 0.0773(6)
H43_4 H 0.5317 0.4767 0.0554
H44_4 H 0.4912 0.4542 0.0740
H47_6 H 0.9292 0.3227 0.0198
H48_6 H 0.9555 0.2831 0.0034
H52_6 H 0.5560 0.3623 0.0022
H59_6 H 0.5761 0.6298 0.0077
C17_6 C 0.6995(7) 0.2369(6) 0.0855(6)
H71_6 H 0.6843 0.2444 0.1087
H72_6 H 0.7064 0.2060 0.0863
C18_6 C 0.7414(7) 0.2630(6) 0.0830(6)
H73_6 H 0.7630 0.2509 0.1001
H74_6 H 0.7360 0.2931 0.0902
O47_6 O 0.8847(3) 0.4385(3) 0.1328(3)
N19_4 N 0.3868(4) 0.6446(3) 0.1109(4)
H75_4 H 0.3833 0.6579 0.1334
H76_4 H 0.3602 0.6364 0.1026
N20_4 N 0.4718(5) 0.6302(4) 0.0892(4)
H77_4 H 0.4746 0.6213 0.0651
H78_4 H 0.4982 0.6282 0.1003
N21_4 N 0.4633(4) 0.5324(4) 0.1078(4)
H79_4 H 0.4445 0.5099 0.1103
H80_4 H 0.4818 0.5304 0.1275
C19_4 C 0.4047(5) 0.6738(5) 0.0857(5)
H115_4 H 0.3968 0.6655 0.0601
H116_4 H 0.3931 0.7028 0.0904
C20_4 C 0.4572(6) 0.6744(6) 0.0899(6)
H117_4 H 0.4654 0.6882 0.1135
H118_4 H 0.4702 0.6907 0.0693
C21_4 C 0.4874(7) 0.5227(7) 0.0773(6)
H119_4 H 0.4683 0.5233 0.0554
H120_4 H 0.5088 0.5458 0.0740
H151_7 H 0.530175 0.479325 0.212995
Co2_4 Co 0.93713(5) 0.39327(5) 0.95334(5)
Co4_6 Co 0.63445(6) 0.62087(6) 0.91374(6)
Ge3_6 Ge 0.86185(3) 0.48059(4) 0.94208(4)
Ge4_6 Ge 0.83142(4) 0.57377(4) 0.94822(4)
V9_6 V 0.67369(6) 0.47097(6) 0.96870(6)
V10_6 V 0.75101(6) 0.50178(6) 0.92621(6)
V11_6 V 0.77981(5) 0.41289(6) 0.95396(6)
V12_6 V 0.72310(6) 0.58216(6) 0.97044(6)
N4_6 N 0.8892(3) 0.3427(4) 0.9550(3)
H7_6 H 0.8793 0.3380 0.9314
H8_6 H 0.8665 0.3518 0.9691
N5_6 N 0.9745(4) 0.3412(4) 0.9811(4)
H9_6 H 0.9912 0.3523 0.9997
H10_6 H 0.9918 0.3275 0.9644
N6_4 N 0.9902(3) 0.4385(4) 0.9622(3)
N7_6 N 0.6048(6) 0.3696(6) 0.9645(5)
H13_6 H 0.6191 0.3848 0.9824
H14_6 H 0.6170 0.3429 0.9629
N8_6 N 0.5434(6) 0.4137(6) 0.9216(6)
H15_6 H 0.5271 0.3956 0.9073
H16_6 H 0.5369 0.4414 0.9152
N9_6 N 0.6775(5) 0.3863(6) 0.9001(5)
H17_6 H 0.6820 0.3573 0.9020
H18_6 H 0.6953 0.4000 0.9164
N10_6 N 0.6131(6) 0.4298(6) 0.8586(5)
H19_6 H 0.5976 0.4548 0.8583
H20_6 H 0.6014 0.4114 0.8415
N11_6 N 0.6047(4) 0.5980(4) 0.9623(4)
H21_6 H 0.6247 0.5859 0.9778
H22_6 H 0.5847 0.5775 0.9565
N12_6 N 0.6240(4) 0.6813(4) 0.9394(4)
H23_6 H 0.6015 0.6951 0.9281
H24_6 H 0.6479 0.6981 0.9370
N13_6 N 0.6474(4) 0.5623(4) 0.8873(4)
H25_6 H 0.6229 0.5459 0.8866
H26_6 H 0.6678 0.5475 0.9003
N14_6 N 0.6674(4) 0.6465(4) 0.8676(4)
H27_6 H 0.6857 0.6679 0.8751
H28_6 H 0.6483 0.6578 0.8510
N15_6 N 0.7234(5) 0.2054(4) 0.9773(4)
H29_6 H 0.6994 0.1894 0.9722
H30_6 H 0.7410 0.1897 0.9925
N16_6 N 0.7450(4) 0.2912(4) 0.9618(4)
H31_6 H 0.7622 0.3126 0.9711
H32_6 H 0.7283 0.3027 0.9434
O10_6 O 0.7535(2) 0.3811(2) 0.9951(2)
O13_6 O 0.8292(2) 0.4116(3) 0.9895(2)
O16_6 O 0.8714(3) 0.4877(2) 0.9910(2)
O19_6 O 0.8467(3) 0.5744(3) 0.9956(3)
O25_6 O 0.7031(2) 0.5262(2) 0.9547(3)
O26_6 O 0.7277(2) 0.4486(2) 0.9467(2)
O27_6 O 0.6341(3) 0.4622(3) 0.9391(3)
O28_6 O 0.7764(2) 0.5577(3) 0.9441(3)
O29_6 O 0.8064(2) 0.4689(2) 0.9353(2)
O30_6 O 0.7416(3) 0.5058(3) 0.8819(3)
O31_6 O 0.7847(3) 0.3779(2) 0.9207(2)
O32_6 O 0.7003(3) 0.6183(3) 0.9431(3)
O43_6 O 0.8643(2) 0.5352(3) 0.9243(3)
O44_5 O 0.8983(3) 0.4446(3) 0.9237(2)
O45_6 O 0.8398(3) 0.6245(3) 0.9273(3)
O46_6 O 0.6466(4) 0.2683(4) 0.9692(4)
H37_6 H 0.6240 0.2661 0.9829
H38_6 H 0.6435 0.2514 0.9503
C4_6 C 0.9056(5) 0.3015(5) 0.9704(5)
H45_6 H 0.8822 0.2862 0.9832
H46_6 H 0.9161 0.2830 0.9500
C5_6 C 0.9413(5) 0.3104(5) 0.9969(5)
C6_4 C 0.9800(4) 0.4847(4) 0.9640(4)
H49_4 H 0.9617 0.4921 0.9426
H50_4 H 0.9631 0.4902 0.9867
C7_6 C 0.5586(9) 0.3654(9) 0.9751(8)
H51_6 H 0.5461 0.3396 0.9633
C8_6 C 0.5343(8) 0.4062(8) 0.9619(8)
H53_6 H 0.5438 0.4313 0.9765
H54_6 H 0.5032 0.4025 0.9658
C9_6 C 0.6867(6) 0.4008(7) 0.8617(6)
H55_6 H 0.7172 0.4093 0.8601
H56_6 H 0.6822 0.3765 0.8445
C10_6 C 0.6587(8) 0.4388(8) 0.8491(7)
H57_6 H 0.6616 0.4429 0.8221
H58_6 H 0.6682 0.4653 0.8616
C11_6 C 0.5828(6) 0.6369(6) 0.9817(6)
H60_6 H 0.5557 0.6442 0.9689
C12_6 C 0.6140(5) 0.6748(6) 0.9799(5)
H61_6 H 0.6405 0.6683 0.9939
H62_6 H 0.6008 0.7008 0.9905
C13_6 C 0.6621(5) 0.5700(5) 0.8506(5)
H63_6 H 0.6773 0.5443 0.8413
H64_6 H 0.6373 0.5754 0.8342
C14_6 C 0.6931(5) 0.6095(5) 0.8495(5)
H65_6 H 0.7009 0.6167 0.8237
H66_6 H 0.7196 0.6035 0.8636
C15_6 C 0.7460(6) 0.2162(5) 0.9426(5)
H67_6 H 0.7652 0.1923 0.9358
H68_6 H 0.7248 0.2198 0.9225
C16_6 C 0.7722(6) 0.2568(5) 0.9461(6)
H69_6 H 0.7829 0.2655 0.9215
H70_6 H 0.7971 0.2517 0.9624
Co7_5 Co 0.91153(5) 0.42608(5) 0.86811(5)
H85_3 H 0.9903 0.5654 0.9435
H87_3 H 0.9964 0.5689 0.9839
O91_5 O 0.9521(3) 0.3799(3) 0.8981(2)
Co5_7 Co 0.29511(7) 0.73311(5) 0.00498(6)
Ge1_7 Ge 0.33818(4) 0.51773(4) 0.13044(4)
Ge2_7 Ge 0.29583(4) 0.42905(4) 0.13233(4)
V1_7 V 0.34872(6) 0.45391(6) 0.04898(6)
V2_7 V 0.35453(6) 0.55307(6) 0.04612(6)
V3_7 V 0.29282(6) 0.62195(5) 0.03047(6)
V4_7 V 0.19582(6) 0.62577(6) 0.02870(6)
V5_7 V 0.12726(6) 0.56556(6) 0.02235(6)
V6_7 V 0.12008(6) 0.46736(6) 0.03004(6)
V7_7 V 0.18479(6) 0.39126(6) 0.03572(7)
V8_7 V 0.27591(6) 0.38469(6) 0.04852(6)
V13_7 V 0.26634(6) 0.59711(6) 0.10911(6)
V14_7 V 0.22692(6) 0.51544(6) 0.14612(6)
V15_7 V 0.18888(6) 0.43345(6) 0.11013(6)
V16_7 V 0.15431(6) 0.54970(6) 0.10235(6)
N17_7 N 0.3293(6) 0.7543(5) 0.0530(5)
H33_7 H 0.3441 0.7789 0.0473
H34_7 H 0.3490 0.7338 0.0595
N18_7 N 0.2427(5) 0.7390(4) 0.0444(4)
H35_7 H 0.2234 0.7172 0.0406
H36_7 H 0.2288 0.7645 0.0407
O1_7 O 0.3462(3) 0.5052(2) 0.0830(2)
O2_7 O 0.3505(2) 0.5018(2) 0.0139(2)
O3_7 O 0.3109(3) 0.4194(2) 0.0855(2)
O4_7 O 0.3126(2) 0.4203(2) 0.0153(2)
O5_7 O 0.3962(3) 0.4323(3) 0.0524(3)
O6_7 O 0.3154(3) 0.5900(2) 0.0745(2)
O7_7 O 0.3257(2) 0.5786(2) 0.0034(2)
O8_7 O 0.4040(3) 0.5722(3) 0.0519(3)
O9_7 O 0.2430(2) 0.6261(2) 0.0647(2)
O11_7 O 0.3150(3) 0.6692(2) 0.0250(3)
O12_7 O 0.1581(2) 0.5937(2) 0.0629(2)
O14_7 O 0.1772(3) 0.6750(3) 0.0249(3)
O15_7 O 0.1244(3) 0.5202(2) 0.0604(2)
O17_7 O 0.0806(2) 0.5896(2) 0.0132(2)
O18_7 O 0.1536(3) 0.4333(2) 0.0658(3)
O20_7 O 0.0703(3) 0.4515(3) 0.0309(3)
O21_7 O 0.2246(2) 0.3953(2) 0.0783(3)
O22_7 O 0.2377(3) 0.3890(2) 0.0053(3)
O23_7 O 0.1603(3) 0.3442(3) 0.0357(3)
O24_7 O 0.2923(3) 0.3347(3) 0.0514(3)
O33_7 O 0.2858(3) 0.5405(3) 0.1350(3)
O34_7 O 0.2117(3) 0.5683(2) 0.1199(2)
O35_7 O 0.2758(3) 0.6353(3) 0.1393(3)
O36_7 O 0.2450(2) 0.4538(2) 0.1350(2)
O37_7 O 0.1758(3) 0.4933(3) 0.1203(2)
O38_7 O 0.2181(3) 0.5209(3) 0.1909(3)
O40_7 O 0.3340(3) 0.4653(2) 0.1532(2)
O42_7 O 0.2954(3) 0.3808(3) 0.1596(3)
H47_7 H 0.0708 0.6773 0.0198
H48_7 H 0.0445 0.7169 0.0034
H52_7 H 0.4440 0.6377 0.0022
H59_7 H 0.4239 0.3702 0.0077
C17_7 C 0.3005(7) 0.7631(6) 0.0855(6)
H71_7 H 0.3157 0.7556 0.1087
H72_7 H 0.2936 0.7940 0.0863
C18_7 C 0.2586(7) 0.7370(6) 0.0830(6)
H73_7 H 0.2370 0.7491 0.1001
H74_7 H 0.2640 0.7069 0.0902
O47_7 O 0.1153(3) 0.5615(3) 0.1328(3)
H151_8 H 0.469825 0.520675 0.212995
Co4_7 Co 0.36555(6) 0.37913(6) 0.91374(6)
Ge3_7 Ge 0.13815(3) 0.51941(4) 0.94208(4)
Ge4_7 Ge 0.16858(4) 0.42623(4) 0.94822(4)
V9_7 V 0.32631(6) 0.52903(6) 0.96870(6)
V10_7 V 0.24899(6) 0.49822(6) 0.92621(6)
V11_7 V 0.22019(5) 0.58711(6) 0.95396(6)
V12_7 V 0.27690(6) 0.41784(6) 0.97044(6)
N4_7 N 0.1108(3) 0.6573(4) 0.9550(3)
H7_7 H 0.1207 0.6620 0.9314
H8_7 H 0.1335 0.6482 0.9691
N5_7 N 0.0255(4) 0.6588(4) 0.9811(4)
H9_7 H 0.0088 0.6477 0.9997
H10_7 H 0.0082 0.6725 0.9644
N7_7 N 0.3952(6) 0.6304(6) 0.9645(5)
H13_7 H 0.3809 0.6152 0.9824
H14_7 H 0.3830 0.6571 0.9629
N8_7 N 0.4566(6) 0.5863(6) 0.9216(6)
H15_7 H 0.4729 0.6044 0.9073
H16_7 H 0.4631 0.5586 0.9152
N9_7 N 0.3225(5) 0.6137(6) 0.9001(5)
H17_7 H 0.3180 0.6427 0.9020
H18_7 H 0.3047 0.6000 0.9164
N10_7 N 0.3869(6) 0.5702(6) 0.8586(5)
H19_7 H 0.4024 0.5452 0.8583
H20_7 H 0.3986 0.5886 0.8415
N11_7 N 0.3953(4) 0.4020(4) 0.9623(4)
H21_7 H 0.3753 0.4141 0.9778
H22_7 H 0.4153 0.4225 0.9565
N12_7 N 0.3760(4) 0.3187(4) 0.9394(4)
H23_7 H 0.3985 0.3049 0.9281
H24_7 H 0.3521 0.3019 0.9370
N13_7 N 0.3526(4) 0.4377(4) 0.8873(4)
H25_7 H 0.3771 0.4541 0.8866
H26_7 H 0.3322 0.4525 0.9003
N14_7 N 0.3326(4) 0.3535(4) 0.8676(4)
H27_7 H 0.3143 0.3321 0.8751
H28_7 H 0.3517 0.3422 0.8510
N15_7 N 0.2766(5) 0.7946(4) 0.9773(4)
H29_7 H 0.3006 0.8106 0.9722
H30_7 H 0.2590 0.8103 0.9925
N16_7 N 0.2550(4) 0.7088(4) 0.9618(4)
H31_7 H 0.2378 0.6874 0.9711
H32_7 H 0.2717 0.6973 0.9434
O10_7 O 0.2465(2) 0.6189(2) 0.9951(2)
O13_7 O 0.1708(2) 0.5884(3) 0.9895(2)
O16_7 O 0.1286(3) 0.5123(2) 0.9910(2)
O19_7 O 0.1533(3) 0.4256(3) 0.9956(3)
O25_7 O 0.2969(2) 0.4738(2) 0.9547(3)
O26_7 O 0.2723(2) 0.5514(2) 0.9467(2)
O27_7 O 0.3659(3) 0.5378(3) 0.9391(3)
O28_7 O 0.2236(2) 0.4423(3) 0.9441(3)
O29_7 O 0.1936(2) 0.5311(2) 0.9353(2)
O30_7 O 0.2584(3) 0.4942(3) 0.8819(3)
O31_7 O 0.2153(3) 0.6221(2) 0.9207(2)
O32_7 O 0.2997(3) 0.3817(3) 0.9431(3)
O43_7 O 0.1357(2) 0.4648(3) 0.9243(3)
O44_6 O 0.1017(3) 0.5554(3) 0.9237(2)
O45_7 O 0.1602(3) 0.3755(3) 0.9273(3)
O46_7 O 0.3534(4) 0.7317(4) 0.9692(4)
H37_7 H 0.3760 0.7339 0.9829
H38_7 H 0.3565 0.7486 0.9503
C4_7 C 0.0944(5) 0.6985(5) 0.9704(5)
H45_7 H 0.1178 0.7138 0.9832
H46_7 H 0.0839 0.7170 0.9500
C5_7 C 0.0587(5) 0.6896(5) 0.9969(5)
C7_7 C 0.4414(9) 0.6346(9) 0.9751(8)
H51_7 H 0.4539 0.6604 0.9633
C8_7 C 0.4657(8) 0.5938(8) 0.9619(8)
H53_7 H 0.4562 0.5687 0.9765
H54_7 H 0.4968 0.5975 0.9658
C9_7 C 0.3133(6) 0.5992(7) 0.8617(6)
H55_7 H 0.2828 0.5907 0.8601
H56_7 H 0.3178 0.6235 0.8445
C10_7 C 0.3413(8) 0.5612(8) 0.8491(7)
H57_7 H 0.3384 0.5571 0.8221
H58_7 H 0.3318 0.5347 0.8616
C11_7 C 0.4172(6) 0.3631(6) 0.9817(6)
H60_7 H 0.4443 0.3558 0.9689
C12_7 C 0.3860(5) 0.3252(6) 0.9799(5)
H61_7 H 0.3595 0.3317 0.9939
H62_7 H 0.3992 0.2992 0.9905
C13_7 C 0.3379(5) 0.4300(5) 0.8506(5)
H63_7 H 0.3227 0.4557 0.8413
H64_7 H 0.3627 0.4246 0.8342
C14_7 C 0.3069(5) 0.3905(5) 0.8495(5)
H65_7 H 0.2991 0.3833 0.8237
H66_7 H 0.2804 0.3965 0.8636
C15_7 C 0.2540(6) 0.7838(5) 0.9426(5)
H67_7 H 0.2348 0.8077 0.9358
H68_7 H 0.2752 0.7802 0.9225
C16_7 C 0.2278(6) 0.7432(5) 0.9461(6)
H69_7 H 0.2171 0.7345 0.9215
H70_7 H 0.2029 0.7483 0.9624
Co7_6 Co 0.08847(5) 0.57392(5) 0.86811(5)
O91_6 O 0.0479(3) 0.6201(3) 0.8981(2)
N1_5 N 0.1446(3) 0.3868(4) 0.3609(4)
H1_5 H 0.1579 0.3833 0.3834
H2_5 H 0.1364 0.3602 0.3526
N2_5 N 0.1302(4) 0.4718(5) 0.3392(4)
H3_5 H 0.1213 0.4746 0.3151
H4_5 H 0.1282 0.4982 0.3503
N3_5 N 0.0324(4) 0.4633(4) 0.3578(4)
H5_5 H 0.0099 0.4445 0.3603
H6_5 H 0.0304 0.4818 0.3775
C1_5 C 0.1738(5) 0.4047(5) 0.3357(5)
H39_5 H 0.1655 0.3968 0.3101
H40_5 H 0.2028 0.3931 0.3404
C2_5 C 0.1744(6) 0.4572(6) 0.3399(6)
H41_5 H 0.1882 0.4654 0.3635
H42_5 H 0.1907 0.4702 0.3193
C3_5 C 0.0227(7) 0.4874(7) 0.3273(6)
H43_5 H 0.0233 0.4683 0.3054
H44_5 H 0.0458 0.5088 0.3240
C6_5 C 0.0153(4) 0.0200(4) 0.2140(4)
H49_5 H 0.0079 0.0383 0.1926
H50_5 H 0.0098 0.0369 0.2367
Co14_4 Co 0.09850(6) 0.61049(5) 0.66281(5)
Co15_6 Co 0.36555(6) 0.62087(6) 0.41374(6)
Co16_6 Co 0.29511(7) 0.26689(5) 0.50498(6)
Ge5_6 Ge 0.33818(4) 0.48227(4) 0.63044(4)
Ge6_6 Ge 0.29583(4) 0.57095(4) 0.63233(4)
Ge7_6 Ge 0.13815(3) 0.48059(4) 0.44208(4)
Ge8_6 Ge 0.16858(4) 0.57377(4) 0.44822(4)
V17_6 V 0.34872(6) 0.54609(6) 0.54898(6)
V18_6 V 0.35453(6) 0.44693(6) 0.54612(6)
V19_6 V 0.29282(6) 0.37805(5) 0.53047(6)
V20_6 V 0.19582(6) 0.37423(6) 0.52870(6)
V21_6 V 0.12726(6) 0.43444(6) 0.52235(6)
V22_6 V 0.12008(6) 0.53264(6) 0.53004(6)
V23_6 V 0.18479(6) 0.60874(6) 0.53572(7)
V24_6 V 0.27591(6) 0.61531(6) 0.54852(6)
V25_6 V 0.32631(6) 0.47097(6) 0.46870(6)
V26_6 V 0.24899(6) 0.50178(6) 0.42621(6)
V27_6 V 0.22019(5) 0.41289(6) 0.45396(6)
V28_6 V 0.27690(6) 0.58216(6) 0.47044(6)
V29_6 V 0.26634(6) 0.40289(6) 0.60911(6)
V30_6 V 0.22692(6) 0.48456(6) 0.64612(6)
V31_6 V 0.18888(6) 0.56655(6) 0.61013(6)
V32_6 V 0.15431(6) 0.45030(6) 0.60235(6)
N22_6 N 0.1108(3) 0.3427(4) 0.4550(3)
H81_6 H 0.1207 0.3380 0.4314
H82_6 H 0.1335 0.3518 0.4691
N23_6 N 0.0255(4) 0.3412(4) 0.4811(4)
H83_6 H 0.0088 0.3523 0.4997
H84_6 H 0.0082 0.3275 0.4644
N25_6 N 0.0098(3) 0.4385(4) 0.4622(3)
N26_6 N 0.3952(6) 0.3696(6) 0.4645(5)
H89_6 H 0.3809 0.3848 0.4824
H90_6 H 0.3830 0.3429 0.4629
N27_6 N 0.4566(6) 0.4137(6) 0.4216(6)
H91_6 H 0.4729 0.3956 0.4073
H92_6 H 0.4631 0.4414 0.4152
N28_6 N 0.3225(5) 0.3863(6) 0.4001(5)
H93_6 H 0.3180 0.3573 0.4020
H94_6 H 0.3047 0.4000 0.4164
N29_6 N 0.3869(6) 0.4298(6) 0.3586(5)
H95_6 H 0.4024 0.4548 0.3583
H96_6 H 0.3986 0.4114 0.3415
N30_6 N 0.3953(4) 0.5980(4) 0.4623(4)
H97_6 H 0.3753 0.5859 0.4778
H98_6 H 0.4153 0.5775 0.4565
N31_6 N 0.3760(4) 0.6813(4) 0.4394(4)
H99_6 H 0.3985 0.6951 0.4281
H100_6 H 0.3521 0.6981 0.4370
N32_6 N 0.3526(4) 0.5623(4) 0.3873(4)
H101_6 H 0.3771 0.5459 0.3866
H102_6 H 0.3322 0.5475 0.4003
N33_6 N 0.3326(4) 0.6465(4) 0.3676(4)
H103_6 H 0.3143 0.6679 0.3751
H104_6 H 0.3517 0.6578 0.3510
N34_6 N 0.2766(5) 0.2054(4) 0.4773(4)
H105_6 H 0.3006 0.1894 0.4722
H106_6 H 0.2590 0.1897 0.4925
N35_6 N 0.2550(4) 0.2912(4) 0.4618(4)
H107_6 H 0.2378 0.3126 0.4711
H108_6 H 0.2717 0.3027 0.4434
N36_6 N 0.3293(6) 0.2457(5) 0.5530(5)
H109_6 H 0.3441 0.2211 0.5473
H110_6 H 0.3490 0.2662 0.5595
N37_6 N 0.2427(5) 0.2610(4) 0.5444(4)
H111_6 H 0.2234 0.2828 0.5406
H112_6 H 0.2288 0.2355 0.5407
O48_6 O 0.3462(3) 0.4948(2) 0.5830(2)
O49_6 O 0.3505(2) 0.4982(2) 0.5139(2)
O50_6 O 0.3109(3) 0.5806(2) 0.5855(2)
O51_6 O 0.3126(2) 0.5797(2) 0.5153(2)
O52_6 O 0.3962(3) 0.5677(3) 0.5524(3)
O53_6 O 0.3154(3) 0.4100(2) 0.5745(2)
O54_6 O 0.3257(2) 0.4214(2) 0.5034(2)
O55_6 O 0.4040(3) 0.4278(3) 0.5519(3)
O56_6 O 0.2430(2) 0.3739(2) 0.5647(2)
O57_6 O 0.2465(2) 0.3811(2) 0.4951(2)
O58_6 O 0.3150(3) 0.3308(2) 0.5250(3)
O59_6 O 0.1581(2) 0.4063(2) 0.5629(2)
O60_6 O 0.1708(2) 0.4116(3) 0.4895(2)
O61_6 O 0.1772(3) 0.3250(3) 0.5249(3)
O62_6 O 0.1244(3) 0.4798(2) 0.5604(2)
O63_6 O 0.1286(3) 0.4877(2) 0.4910(2)
O64_6 O 0.0806(2) 0.4104(2) 0.5132(2)
O65_6 O 0.1536(3) 0.5667(2) 0.5658(3)
O66_6 O 0.1533(3) 0.5744(3) 0.4956(3)
O67_6 O 0.0703(3) 0.5485(3) 0.5309(3)
O68_6 O 0.2246(2) 0.6047(2) 0.5783(3)
O69_6 O 0.2377(3) 0.6110(2) 0.5053(3)
O70_6 O 0.1603(3) 0.6558(3) 0.5357(3)
O71_6 O 0.2923(3) 0.6653(3) 0.5514(3)
O72_6 O 0.2969(2) 0.5262(2) 0.4547(3)
O73_6 O 0.2723(2) 0.4486(2) 0.4467(2)
O74_6 O 0.3659(3) 0.4622(3) 0.4391(3)
O75_6 O 0.2236(2) 0.5577(3) 0.4441(3)
O76_6 O 0.1936(2) 0.4689(2) 0.4353(2)
O77_6 O 0.2584(3) 0.5058(3) 0.3819(3)
O78_6 O 0.2153(3) 0.3779(2) 0.4207(2)
O79_6 O 0.2997(3) 0.6183(3) 0.4431(3)
O80_6 O 0.2858(3) 0.4595(3) 0.6350(3)
O81_6 O 0.2117(3) 0.4317(2) 0.6199(2)
O82_6 O 0.2758(3) 0.3647(3) 0.6393(3)
O83_6 O 0.2450(2) 0.5462(2) 0.6350(2)
O84_6 O 0.1758(3) 0.5067(3) 0.6203(2)
O85_6 O 0.2181(3) 0.4791(3) 0.6909(3)
O86_4 O 0.1622(3) 0.5955(3) 0.6403(3)
O89_6 O 0.3340(3) 0.5347(2) 0.6532(2)
O93_6 O 0.2954(3) 0.6192(3) 0.6596(3)
O94_6 O 0.1357(2) 0.5352(3) 0.4243(3)
O95_4 O 0.1017(3) 0.4446(3) 0.4237(2)
O97_6 O 0.1602(3) 0.6245(3) 0.4273(3)
O98_6 O 0.3534(4) 0.2683(4) 0.4692(4)
H113_6 H 0.3760 0.2661 0.4829
H114_6 H 0.3565 0.2514 0.4503
C22_6 C 0.0944(5) 0.3015(5) 0.4704(5)
H121_6 H 0.1178 0.2862 0.4832
H122_6 H 0.0839 0.2830 0.4500
C23_6 C 0.0587(5) 0.3104(5) 0.4969(5)
H123_6 H 0.0708 0.3227 0.5198
H124_6 H 0.0445 0.2831 0.5034
C25_6 C 0.4414(9) 0.3654(9) 0.4751(8)
H127_6 H 0.4539 0.3396 0.4633
H128_6 H 0.4440 0.3623 0.5022
C26_6 C 0.4657(8) 0.4062(8) 0.4619(8)
H129_6 H 0.4562 0.4313 0.4765
H130_6 H 0.4968 0.4025 0.4658
C27_6 C 0.3133(6) 0.4008(7) 0.3617(6)
H131_6 H 0.2828 0.4093 0.3601
H132_6 H 0.3178 0.3765 0.3445
C28_6 C 0.3413(8) 0.4388(8) 0.3491(7)
H133_6 H 0.3384 0.4429 0.3221
H134_6 H 0.3318 0.4653 0.3616
C29_6 C 0.4172(6) 0.6369(6) 0.4817(6)
H135_6 H 0.4239 0.6298 0.5077
H136_6 H 0.4443 0.6442 0.4689
C30_6 C 0.3860(5) 0.6748(6) 0.4799(5)
H137_6 H 0.3595 0.6683 0.4939
H138_6 H 0.3992 0.7008 0.4905
C31_6 C 0.3379(5) 0.5700(5) 0.3506(5)
H139_6 H 0.3227 0.5443 0.3413
H140_6 H 0.3627 0.5754 0.3342
C32_6 C 0.3069(5) 0.6095(5) 0.3495(5)
H141_6 H 0.2991 0.6167 0.3237
H142_6 H 0.2804 0.6035 0.3636
C33_6 C 0.2540(6) 0.2162(5) 0.4426(5)
H143_6 H 0.2348 0.1923 0.4358
H144_6 H 0.2752 0.2198 0.4225
C34_6 C 0.2278(6) 0.2568(5) 0.4461(6)
H145_6 H 0.2171 0.2655 0.4215
H146_6 H 0.2029 0.2517 0.4624
C35_6 C 0.3005(7) 0.2369(6) 0.5855(6)
H147_6 H 0.3157 0.2444 0.6087
H148_6 H 0.2936 0.2060 0.5863
C36_6 C 0.2586(7) 0.2630(6) 0.5830(6)
H149_6 H 0.2370 0.2509 0.6001
H150_6 H 0.2640 0.2931 0.5902
O99_6 O 0.1153(3) 0.4385(3) 0.6328(3)
H151_9 H 0.0206751 0.469825 0.462995
N19_5 N 0.8554(3) 0.6132(4) 0.3609(4)
H75_5 H 0.8421 0.6167 0.3834
H76_5 H 0.8636 0.6398 0.3526
N20_5 N 0.8698(4) 0.5282(5) 0.3392(4)
H77_5 H 0.8787 0.5254 0.3151
H78_5 H 0.8718 0.5018 0.3503
N21_5 N 0.9676(4) 0.5367(4) 0.3578(4)
H79_5 H 0.9901 0.5555 0.3603
H80_5 H 0.9696 0.5182 0.3775
H86_6 H 0.9903 0.4346 0.4435
H88_6 H 0.9964 0.4311 0.4839
O96_4 O 0.8983(3) 0.5554(3) 0.4237(2)
C19_5 C 0.8262(5) 0.5953(5) 0.3357(5)
H115_5 H 0.8345 0.6032 0.3101
H116_5 H 0.7972 0.6069 0.3404
C20_5 C 0.8256(6) 0.5428(6) 0.3399(6)
H117_5 H 0.8118 0.5346 0.3635
H118_5 H 0.8093 0.5298 0.3193
C21_5 C 0.9773(7) 0.5126(7) 0.3273(6)
H119_5 H 0.9767 0.5317 0.3054
H120_5 H 0.9542 0.4912 0.3240
C24_5 C 0.9847(4) 0.9800(4) 0.2140(4)
H125_5 H 0.9921 0.9617 0.1926
H126_5 H 0.9902 0.9631 0.2367
H11_5 H 0.0097 0.5654 0.4435
H12_5 H 0.0036 0.5689 0.4839
C24_6 C 0.0200(4) 0.4847(4) 0.4640(4)
H125_6 H 0.0383 0.4921 0.4426
H126_6 H 0.0369 0.4902 0.4867
Co4_8 Co 0.63445(6) 0.37913(6) 0.41374(6)
Co5_8 Co 0.70489(7) 0.73311(5) 0.50498(6)
Ge1_8 Ge 0.66182(4) 0.51773(4) 0.63044(4)
Ge2_8 Ge 0.70417(4) 0.42905(4) 0.63233(4)
Ge3_8 Ge 0.86185(3) 0.51941(4) 0.44208(4)
Ge4_8 Ge 0.83142(4) 0.42623(4) 0.44822(4)
V1_8 V 0.65128(6) 0.45391(6) 0.54898(6)
V2_8 V 0.64547(6) 0.55307(6) 0.54612(6)
V3_8 V 0.70718(6) 0.62195(5) 0.53047(6)
V4_8 V 0.80418(6) 0.62577(6) 0.52870(6)
V5_8 V 0.87274(6) 0.56556(6) 0.52235(6)
V6_8 V 0.87992(6) 0.46736(6) 0.53004(6)
V7_8 V 0.81521(6) 0.39126(6) 0.53572(7)
V8_8 V 0.72409(6) 0.38469(6) 0.54852(6)
V9_8 V 0.67369(6) 0.52903(6) 0.46870(6)
V10_8 V 0.75101(6) 0.49822(6) 0.42621(6)
V11_8 V 0.77981(5) 0.58711(6) 0.45396(6)
V12_8 V 0.72310(6) 0.41784(6) 0.47044(6)
V13_8 V 0.73366(6) 0.59711(6) 0.60911(6)
V14_8 V 0.77308(6) 0.51544(6) 0.64612(6)
V15_8 V 0.81112(6) 0.43345(6) 0.61013(6)
V16_8 V 0.84569(6) 0.54970(6) 0.60235(6)
N1_6 N 0.6132(4) 0.6446(3) 0.6109(4)
H1_6 H 0.6167 0.6579 0.6334
H2_6 H 0.6398 0.6364 0.6026
N2_6 N 0.5282(5) 0.6302(4) 0.5892(4)
H3_6 H 0.5254 0.6213 0.5651
H4_6 H 0.5018 0.6282 0.6003
N3_6 N 0.5367(4) 0.5324(4) 0.6078(4)
H5_6 H 0.5555 0.5099 0.6103
H6_6 H 0.5182 0.5304 0.6275
N4_8 N 0.8892(3) 0.6573(4) 0.4550(3)
H7_8 H 0.8793 0.6620 0.4314
H8_8 H 0.8665 0.6482 0.4691
N5_8 N 0.9745(4) 0.6588(4) 0.4811(4)
H9_8 H 0.9912 0.6477 0.4997
H10_8 H 0.9918 0.6725 0.4644
N6_5 N 0.9902(3) 0.5615(4) 0.4622(3)
N7_8 N 0.6048(6) 0.6304(6) 0.4645(5)
H13_8 H 0.6191 0.6152 0.4824
H14_8 H 0.6170 0.6571 0.4629
N8_8 N 0.5434(6) 0.5863(6) 0.4216(6)
H15_8 H 0.5271 0.6044 0.4073
H16_8 H 0.5369 0.5586 0.4152
N9_8 N 0.6775(5) 0.6137(6) 0.4001(5)
H17_8 H 0.6820 0.6427 0.4020
H18_8 H 0.6953 0.6000 0.4164
N10_8 N 0.6131(6) 0.5702(6) 0.3586(5)
H19_8 H 0.5976 0.5452 0.3583
H20_8 H 0.6014 0.5886 0.3415
N11_8 N 0.6047(4) 0.4020(4) 0.4623(4)
H21_8 H 0.6247 0.4141 0.4778
H22_8 H 0.5847 0.4225 0.4565
N12_8 N 0.6240(4) 0.3187(4) 0.4394(4)
H23_8 H 0.6015 0.3049 0.4281
H24_8 H 0.6479 0.3019 0.4370
N13_8 N 0.6474(4) 0.4377(4) 0.3873(4)
H25_8 H 0.6229 0.4541 0.3866
H26_8 H 0.6678 0.4525 0.4003
N14_8 N 0.6674(4) 0.3535(4) 0.3676(4)
H27_8 H 0.6857 0.3321 0.3751
H28_8 H 0.6483 0.3422 0.3510
N15_8 N 0.7234(5) 0.7946(4) 0.4773(4)
H29_8 H 0.6994 0.8106 0.4722
H30_8 H 0.7410 0.8103 0.4925
N16_8 N 0.7450(4) 0.7088(4) 0.4618(4)
H31_8 H 0.7622 0.6874 0.4711
H32_8 H 0.7283 0.6973 0.4434
N17_8 N 0.6707(6) 0.7543(5) 0.5530(5)
H33_8 H 0.6559 0.7789 0.5473
H34_8 H 0.6510 0.7338 0.5595
N18_8 N 0.7573(5) 0.7390(4) 0.5444(4)
H35_8 H 0.7766 0.7172 0.5406
H36_8 H 0.7712 0.7645 0.5407
O1_8 O 0.6538(3) 0.5052(2) 0.5830(2)
O2_8 O 0.6495(2) 0.5018(2) 0.5139(2)
O3_8 O 0.6891(3) 0.4194(2) 0.5855(2)
O4_8 O 0.6874(2) 0.4203(2) 0.5153(2)
O5_8 O 0.6038(3) 0.4323(3) 0.5524(3)
O6_8 O 0.6846(3) 0.5900(2) 0.5745(2)
O7_8 O 0.6743(2) 0.5786(2) 0.5034(2)
O8_8 O 0.5960(3) 0.5722(3) 0.5519(3)
O9_8 O 0.7570(2) 0.6261(2) 0.5647(2)
O10_8 O 0.7535(2) 0.6189(2) 0.4951(2)
O11_8 O 0.6850(3) 0.6692(2) 0.5250(3)
O12_8 O 0.8419(2) 0.5937(2) 0.5629(2)
O13_8 O 0.8292(2) 0.5884(3) 0.4895(2)
O14_8 O 0.8228(3) 0.6750(3) 0.5249(3)
O15_8 O 0.8756(3) 0.5202(2) 0.5604(2)
O16_8 O 0.8714(3) 0.5123(2) 0.4910(2)
O17_8 O 0.9194(2) 0.5896(2) 0.5132(2)
O18_8 O 0.8464(3) 0.4333(2) 0.5658(3)
O19_8 O 0.8467(3) 0.4256(3) 0.4956(3)
O20_8 O 0.9297(3) 0.4515(3) 0.5309(3)
O21_8 O 0.7754(2) 0.3953(2) 0.5783(3)
O22_8 O 0.7623(3) 0.3890(2) 0.5053(3)
O23_8 O 0.8397(3) 0.3442(3) 0.5357(3)
O24_8 O 0.7077(3) 0.3347(3) 0.5514(3)
O25_8 O 0.7031(2) 0.4738(2) 0.4547(3)
O26_8 O 0.7277(2) 0.5514(2) 0.4467(2)
O27_8 O 0.6341(3) 0.5378(3) 0.4391(3)
O28_8 O 0.7764(2) 0.4423(3) 0.4441(3)
O29_8 O 0.8064(2) 0.5311(2) 0.4353(2)
O30_8 O 0.7416(3) 0.4942(3) 0.3819(3)
O31_8 O 0.7847(3) 0.6221(2) 0.4207(2)
O32_8 O 0.7003(3) 0.3817(3) 0.4431(3)
O33_8 O 0.7142(3) 0.5405(3) 0.6350(3)
O34_8 O 0.7883(3) 0.5683(2) 0.6199(2)
O35_8 O 0.7242(3) 0.6353(3) 0.6393(3)
O36_8 O 0.7550(2) 0.4538(2) 0.6350(2)
O37_8 O 0.8242(3) 0.4933(3) 0.6203(2)
O38_8 O 0.7819(3) 0.5209(3) 0.6909(3)
O39_6 O 0.8378(3) 0.4045(3) 0.6403(3)
O40_8 O 0.6660(3) 0.4653(2) 0.6532(2)
O42_8 O 0.7046(3) 0.3808(3) 0.6596(3)
O43_8 O 0.8643(2) 0.4648(3) 0.4243(3)
O45_8 O 0.8398(3) 0.3755(3) 0.4273(3)
O46_8 O 0.6466(4) 0.7317(4) 0.4692(4)
H37_8 H 0.6240 0.7339 0.4829
H38_8 H 0.6435 0.7486 0.4503
C1_6 C 0.5953(5) 0.6738(5) 0.5857(5)
H39_6 H 0.6032 0.6655 0.5601
H40_6 H 0.6069 0.7028 0.5904
C2_6 C 0.5428(6) 0.6744(6) 0.5899(6)
H41_6 H 0.5346 0.6882 0.6135
H42_6 H 0.5298 0.6907 0.5693
C3_6 C 0.5126(7) 0.5227(7) 0.5773(6)
H43_6 H 0.5317 0.5233 0.5554
H44_6 H 0.4912 0.5458 0.5740
C4_8 C 0.9056(5) 0.6985(5) 0.4704(5)
H45_8 H 0.8822 0.7138 0.4832
H46_8 H 0.9161 0.7170 0.4500
C5_8 C 0.9413(5) 0.6896(5) 0.4969(5)
H47_8 H 0.9292 0.6773 0.5198
H48_8 H 0.9555 0.7169 0.5034
C6_6 C 0.9800(4) 0.5153(4) 0.4640(4)
H49_6 H 0.9617 0.5079 0.4426
H50_6 H 0.9631 0.5098 0.4867
C7_8 C 0.5586(9) 0.6346(9) 0.4751(8)
H51_8 H 0.5461 0.6604 0.4633
H52_8 H 0.5560 0.6377 0.5022
C8_8 C 0.5343(8) 0.5938(8) 0.4619(8)
H53_8 H 0.5438 0.5687 0.4765
H54_8 H 0.5032 0.5975 0.4658
C9_8 C 0.6867(6) 0.5992(7) 0.3617(6)
H55_8 H 0.7172 0.5907 0.3601
H56_8 H 0.6822 0.6235 0.3445
C10_8 C 0.6587(8) 0.5612(8) 0.3491(7)
H57_8 H 0.6616 0.5571 0.3221
H58_8 H 0.6682 0.5347 0.3616
C11_8 C 0.5828(6) 0.3631(6) 0.4817(6)
H59_8 H 0.5761 0.3702 0.5077
H60_8 H 0.5557 0.3558 0.4689
C12_8 C 0.6140(5) 0.3252(6) 0.4799(5)
H61_8 H 0.6405 0.3317 0.4939
H62_8 H 0.6008 0.2992 0.4905
C13_8 C 0.6621(5) 0.4300(5) 0.3506(5)
H63_8 H 0.6773 0.4557 0.3413
H64_8 H 0.6373 0.4246 0.3342
C14_8 C 0.6931(5) 0.3905(5) 0.3495(5)
H65_8 H 0.7009 0.3833 0.3237
H66_8 H 0.7196 0.3965 0.3636
C15_8 C 0.7460(6) 0.7838(5) 0.4426(5)
H67_8 H 0.7652 0.8077 0.4358
H68_8 H 0.7248 0.7802 0.4225
C16_8 C 0.7722(6) 0.7432(5) 0.4461(6)
H69_8 H 0.7829 0.7345 0.4215
H70_8 H 0.7971 0.7483 0.4624
C17_8 C 0.6995(7) 0.7631(6) 0.5855(6)
H71_8 H 0.6843 0.7556 0.6087
H72_8 H 0.7064 0.7940 0.5863
C18_8 C 0.7414(7) 0.7370(6) 0.5830(6)
H73_8 H 0.7630 0.7491 0.6001
H74_8 H 0.7360 0.7069 0.5902
O47_8 O 0.8847(3) 0.5615(3) 0.6328(3)
Co13_6 Co 0.90150(6) 0.38951(5) 0.66281(5)
N19_6 N 0.3868(4) 0.3554(3) 0.6109(4)
H75_6 H 0.3833 0.3421 0.6334
H76_6 H 0.3602 0.3636 0.6026
N20_6 N 0.4718(5) 0.3698(4) 0.5892(4)
H77_6 H 0.4746 0.3787 0.5651
H78_6 H 0.4982 0.3718 0.6003
N21_6 N 0.4633(4) 0.4676(4) 0.6078(4)
H79_6 H 0.4445 0.4901 0.6103
H80_6 H 0.4818 0.4696 0.6275
C19_6 C 0.4047(5) 0.3262(5) 0.5857(5)
H115_6 H 0.3968 0.3345 0.5601
H116_6 H 0.3931 0.2972 0.5904
C20_6 C 0.4572(6) 0.3256(6) 0.5899(6)
H117_6 H 0.4654 0.3118 0.6135
H118_6 H 0.4702 0.3093 0.5693
C21_6 C 0.4874(7) 0.4773(7) 0.5773(6)
H119_6 H 0.4683 0.4767 0.5554
H120_6 H 0.5088 0.4542 0.5740
H151_10 H 0.530175 0.520675 0.712995
H151_11 H 0.979325 0.530175 0.462995
H151_12 H 0.469825 0.479325 0.712995
Co4_9 Co 0.12087(6) 0.36555(6) 0.66374(6)
Ge2_9 Ge 0.07095(4) 0.29583(4) 0.88233(4)
Ge4_9 Ge 0.07377(4) 0.16858(4) 0.69822(4)
V1_9 V 0.04609(6) 0.34872(6) 0.79898(6)
V6_9 V 0.03264(6) 0.12008(6) 0.78004(6)
V7_9 V 0.10874(6) 0.18479(6) 0.78572(7)
V8_9 V 0.11531(6) 0.27591(6) 0.79852(6)
V10_9 V 0.00178(6) 0.24899(6) 0.67621(6)
V12_9 V 0.08216(6) 0.27690(6) 0.72044(6)
V15_9 V 0.06655(6) 0.18888(6) 0.86013(6)
N11_9 N 0.0980(4) 0.3953(4) 0.7123(4)
H21_9 H 0.0859 0.3753 0.7278
H22_9 H 0.0775 0.4153 0.7065
N12_9 N 0.1813(4) 0.3760(4) 0.6894(4)
H23_9 H 0.1951 0.3985 0.6781
H24_9 H 0.1981 0.3521 0.6870
N13_9 N 0.0623(4) 0.3526(4) 0.6373(4)
H25_9 H 0.0459 0.3771 0.6366
H26_9 H 0.0475 0.3322 0.6503
N14_9 N 0.1465(4) 0.3326(4) 0.6176(4)
H27_9 H 0.1679 0.3143 0.6251
H28_9 H 0.1578 0.3517 0.6010
O3_9 O 0.0806(2) 0.3109(3) 0.8355(2)
O4_9 O 0.0797(2) 0.3126(2) 0.7653(2)
O5_9 O 0.0677(3) 0.3962(3) 0.8024(3)
O18_9 O 0.0667(2) 0.1536(3) 0.8158(3)
O19_9 O 0.0744(3) 0.1533(3) 0.7456(3)
O20_9 O 0.0485(3) 0.0703(3) 0.7809(3)
O21_9 O 0.1047(2) 0.2246(2) 0.8283(3)
O22_9 O 0.1110(2) 0.2377(3) 0.7553(3)
O23_9 O 0.1558(3) 0.1603(3) 0.7857(3)
O24_9 O 0.1653(3) 0.2923(3) 0.8014(3)
O25_9 O 0.0262(2) 0.2969(2) 0.7047(3)
O28_9 O 0.0577(3) 0.2236(2) 0.6941(3)
O30_9 O 0.0058(3) 0.2584(3) 0.6319(3)
O32_9 O 0.1183(3) 0.2997(3) 0.6931(3)
O36_9 O 0.0462(2) 0.2450(2) 0.8850(2)
O37_9 O 0.0067(3) 0.1758(3) 0.8703(2)
O40_9 O 0.0347(2) 0.3340(3) 0.9032(2)
O42_9 O 0.1192(3) 0.2954(3) 0.9096(3)
O43_9 O 0.0352(3) 0.1357(2) 0.6743(3)
O45_9 O 0.1245(3) 0.1602(3) 0.6773(3)
C11_9 C 0.1369(6) 0.4172(6) 0.7317(6)
H59_9 H 0.1298 0.4239 0.7577
H60_9 H 0.1442 0.4443 0.7189
C12_9 C 0.1748(6) 0.3860(5) 0.7299(5)
H61_9 H 0.1683 0.3595 0.7439
H62_9 H 0.2008 0.3992 0.7405
C13_9 C 0.0700(5) 0.3379(5) 0.6006(5)
H63_9 H 0.0443 0.3227 0.5913
H64_9 H 0.0754 0.3627 0.5842
C14_9 C 0.1095(5) 0.3069(5) 0.5995(5)
H65_9 H 0.1167 0.2991 0.5737
H66_9 H 0.1035 0.2804 0.6136
N19_7 N 0.1446(3) 0.6132(4) 0.8609(4)
H75_7 H 0.1579 0.6167 0.8834
H76_7 H 0.1364 0.6398 0.8526
N20_7 N 0.1302(4) 0.5282(5) 0.8392(4)
H77_7 H 0.1213 0.5254 0.8151
H78_7 H 0.1282 0.5018 0.8503
N21_7 N 0.0324(4) 0.5367(4) 0.8578(4)
H79_7 H 0.0099 0.5555 0.8603
H80_7 H 0.0304 0.5182 0.8775
H85_4 H 0.0654 0.0097 0.6935
H87_4 H 0.0689 0.0036 0.7339
C19_7 C 0.1738(5) 0.5953(5) 0.8357(5)
H115_7 H 0.1655 0.6032 0.8101
H116_7 H 0.2028 0.6069 0.8404
C20_7 C 0.1744(6) 0.5428(6) 0.8399(6)
H117_7 H 0.1882 0.5346 0.8635
H118_7 H 0.1907 0.5298 0.8193
C21_7 C 0.0227(7) 0.5126(7) 0.8273(6)
H119_7 H 0.0233 0.5317 0.8054
H120_7 H 0.0458 0.4912 0.8240
N24_4 N 0.0615(4) 0.9902(3) 0.7122(3)
C24_7 C 0.0153(4) 0.9800(4) 0.7140(4)
H125_7 H 0.0079 0.9617 0.6926
H126_7 H 0.0098 0.9631 0.7367
Co5_9 Co 0.76689(5) 0.29511(7) 0.75498(6)
Ge1_9 Ge 0.98227(4) 0.33818(4) 0.88044(4)
Ge3_9 Ge 0.98059(4) 0.13815(3) 0.69208(4)
V2_9 V 0.94693(6) 0.35453(6) 0.79612(6)
V3_9 V 0.87805(5) 0.29282(6) 0.78047(6)
V4_9 V 0.87423(6) 0.19582(6) 0.77870(6)
V5_9 V 0.93444(6) 0.12726(6) 0.77235(6)
V9_9 V 0.97097(6) 0.32631(6) 0.71870(6)
V11_9 V 0.91289(6) 0.22019(5) 0.70396(6)
V13_9 V 0.90289(6) 0.26634(6) 0.85911(6)
V14_9 V 0.98456(6) 0.22692(6) 0.89612(6)
V16_9 V 0.95030(6) 0.15431(6) 0.85235(6)
N1_7 N 0.8554(3) 0.3868(4) 0.8609(4)
H1_7 H 0.8421 0.3833 0.8834
H2_7 H 0.8636 0.3602 0.8526
N2_7 N 0.8698(4) 0.4718(5) 0.8392(4)
H3_7 H 0.8787 0.4746 0.8151
H4_7 H 0.8718 0.4982 0.8503
N3_7 N 0.9676(4) 0.4633(4) 0.8578(4)
H5_7 H 0.9901 0.4445 0.8603
H6_7 H 0.9696 0.4818 0.8775
N4_9 N 0.8427(4) 0.1108(3) 0.7050(3)
H7_9 H 0.8380 0.1207 0.6814
H8_9 H 0.8518 0.1335 0.7191
N5_9 N 0.8412(4) 0.0255(4) 0.7311(4)
H9_9 H 0.8523 0.0088 0.7497
H10_9 H 0.8275 0.0082 0.7144
N6_6 N 0.9385(4) 0.0098(3) 0.7122(3)
N7_9 N 0.8696(6) 0.3952(6) 0.7145(5)
H13_9 H 0.8848 0.3809 0.7324
H14_9 H 0.8429 0.3830 0.7129
N8_9 N 0.9137(6) 0.4566(6) 0.6716(6)
H15_9 H 0.8956 0.4729 0.6573
H16_9 H 0.9414 0.4631 0.6652
N9_9 N 0.8863(6) 0.3225(5) 0.6501(5)
H17_9 H 0.8573 0.3180 0.6520
H18_9 H 0.9000 0.3047 0.6664
N10_9 N 0.9298(6) 0.3869(6) 0.6086(5)
H19_9 H 0.9548 0.4024 0.6083
H20_9 H 0.9114 0.3986 0.5915
N15_9 N 0.7054(4) 0.2766(5) 0.7273(4)
H29_9 H 0.6894 0.3006 0.7222
H30_9 H 0.6897 0.2590 0.7425
N16_9 N 0.7912(4) 0.2550(4) 0.7118(4)
H31_9 H 0.8126 0.2378 0.7211
H32_9 H 0.8027 0.2717 0.6934
N17_9 N 0.7457(5) 0.3293(6) 0.8030(5)
H33_9 H 0.7211 0.3441 0.7973
H34_9 H 0.7662 0.3490 0.8095
N18_9 N 0.7610(4) 0.2427(5) 0.7944(4)
H35_9 H 0.7828 0.2234 0.7906
H36_9 H 0.7355 0.2288 0.7907
O1_9 O 0.9948(2) 0.3462(3) 0.8330(2)
O2_9 O 0.9982(2) 0.3505(2) 0.7639(2)
O6_9 O 0.9100(2) 0.3154(3) 0.8245(2)
O7_9 O 0.9214(2) 0.3257(2) 0.7534(2)
O8_9 O 0.9278(3) 0.4040(3) 0.8019(3)
O9_9 O 0.8739(2) 0.2430(2) 0.8147(2)
O10_9 O 0.8811(2) 0.2465(2) 0.7451(2)
O11_9 O 0.8308(2) 0.3150(3) 0.7750(3)
O12_9 O 0.9063(2) 0.1581(2) 0.8129(2)
O13_9 O 0.9116(3) 0.1708(2) 0.7395(2)
O14_9 O 0.8250(3) 0.1772(3) 0.7749(3)
O15_9 O 0.9798(2) 0.1244(3) 0.8104(2)
O16_9 O 0.9877(2) 0.1286(3) 0.7410(2)
O17_9 O 0.9104(2) 0.0806(2) 0.7632(2)
O26_9 O 0.9486(2) 0.2723(2) 0.6967(2)
O27_9 O 0.9622(3) 0.3659(3) 0.6891(3)
O29_9 O 0.9689(2) 0.1936(2) 0.6853(2)
O31_9 O 0.8779(2) 0.2153(3) 0.6707(2)
O33_9 O 0.9595(3) 0.2858(3) 0.8850(3)
O34_9 O 0.9317(2) 0.2117(3) 0.8699(2)
O35_9 O 0.8647(3) 0.2758(3) 0.8893(3)
O38_9 O 0.9791(3) 0.2181(3) 0.9409(3)
O44_7 O 0.9446(3) 0.1017(3) 0.6737(2)
O46_9 O 0.7683(4) 0.3534(4) 0.7192(4)
H37_9 H 0.7661 0.3760 0.7329
H38_9 H 0.7514 0.3565 0.7003
C1_7 C 0.8262(5) 0.4047(5) 0.8357(5)
H39_7 H 0.8345 0.3968 0.8101
H40_7 H 0.7972 0.3931 0.8404
C2_7 C 0.8256(6) 0.4572(6) 0.8399(6)
H41_7 H 0.8118 0.4654 0.8635
H42_7 H 0.8093 0.4702 0.8193
C3_7 C 0.9773(7) 0.4874(7) 0.8273(6)
H43_7 H 0.9767 0.4683 0.8054
H44_7 H 0.9542 0.5088 0.8240
C4_9 C 0.8015(5) 0.0944(5) 0.7204(5)
H45_9 H 0.7862 0.1178 0.7332
H46_9 H 0.7830 0.0839 0.7000
C5_9 C 0.8104(5) 0.0587(5) 0.7469(5)
H47_9 H 0.8227 0.0708 0.7698
H48_9 H 0.7831 0.0445 0.7534
C6_7 C 0.9847(4) 0.0200(4) 0.7140(4)
H49_7 H 0.9921 0.0383 0.6926
H50_7 H 0.9902 0.0369 0.7367
C7_9 C 0.8654(9) 0.4414(9) 0.7251(8)
H51_9 H 0.8396 0.4539 0.7133
H52_9 H 0.8623 0.4440 0.7522
C8_9 C 0.9062(8) 0.4657(8) 0.7119(8)
H53_9 H 0.9313 0.4562 0.7265
H54_9 H 0.9025 0.4968 0.7158
C9_9 C 0.9008(7) 0.3133(6) 0.6117(6)
H55_9 H 0.9093 0.2828 0.6101
H56_9 H 0.8765 0.3178 0.5945
C10_9 C 0.9388(8) 0.3413(8) 0.5991(7)
H57_9 H 0.9429 0.3384 0.5721
H58_9 H 0.9653 0.3318 0.6116
C15_9 C 0.7162(5) 0.2540(6) 0.6926(5)
H67_9 H 0.6923 0.2348 0.6858
H68_9 H 0.7198 0.2752 0.6725
C16_9 C 0.7568(5) 0.2278(6) 0.6961(6)
H69_9 H 0.7655 0.2171 0.6715
H70_9 H 0.7517 0.2029 0.7124
C17_9 C 0.7369(6) 0.3005(7) 0.8355(6)
H71_9 H 0.7444 0.3157 0.8587
H72_9 H 0.7060 0.2936 0.8363
C18_9 C 0.7630(6) 0.2586(7) 0.8330(6)
H73_9 H 0.7509 0.2370 0.8501
H74_9 H 0.7931 0.2640 0.8402
O47_9 O 0.9385(3) 0.1153(3) 0.8828(3)
H151_13 H 0.979325 0.469825 0.962995
H11_6 H 0.9346 0.9903 0.6935
H12_6 H 0.9311 0.9964 0.7339
Co5_10 Co 0.23311(5) 0.70489(7) 0.75498(6)
Ge1_10 Ge 0.01773(4) 0.66182(4) 0.88044(4)
Ge3_10 Ge 0.01941(4) 0.86185(3) 0.69208(4)
V2_10 V 0.05307(6) 0.64547(6) 0.79612(6)
V3_10 V 0.12195(5) 0.70718(6) 0.78047(6)
V4_10 V 0.12577(6) 0.80418(6) 0.77870(6)
V5_10 V 0.06556(6) 0.87274(6) 0.77235(6)
V9_10 V 0.02903(6) 0.67369(6) 0.71870(6)
V11_10 V 0.08711(6) 0.77981(5) 0.70396(6)
V13_10 V 0.09711(6) 0.73366(6) 0.85911(6)
V14_10 V 0.01544(6) 0.77308(6) 0.89612(6)
V16_10 V 0.04970(6) 0.84569(6) 0.85235(6)
N4_10 N 0.1573(4) 0.8892(3) 0.7050(3)
H7_10 H 0.1620 0.8793 0.6814
H8_10 H 0.1482 0.8665 0.7191
N5_10 N 0.1588(4) 0.9745(4) 0.7311(4)
H9_10 H 0.1477 0.9912 0.7497
H10_10 H 0.1725 0.9918 0.7144
N7_10 N 0.1304(6) 0.6048(6) 0.7145(5)
H13_10 H 0.1152 0.6191 0.7324
H14_10 H 0.1571 0.6170 0.7129
N8_10 N 0.0863(6) 0.5434(6) 0.6716(6)
H15_10 H 0.1044 0.5271 0.6573
H16_10 H 0.0586 0.5369 0.6652
N9_10 N 0.1137(6) 0.6775(5) 0.6501(5)
H17_10 H 0.1427 0.6820 0.6520
H18_10 H 0.1000 0.6953 0.6664
N10_10 N 0.0702(6) 0.6131(6) 0.6086(5)
H19_10 H 0.0452 0.5976 0.6083
H20_10 H 0.0886 0.6014 0.5915
N15_10 N 0.2946(4) 0.7234(5) 0.7273(4)
H29_10 H 0.3106 0.6994 0.7222
H30_10 H 0.3103 0.7410 0.7425
N16_10 N 0.2088(4) 0.7450(4) 0.7118(4)
H31_10 H 0.1874 0.7622 0.7211
H32_10 H 0.1973 0.7283 0.6934
N17_10 N 0.2543(5) 0.6707(6) 0.8030(5)
H33_10 H 0.2789 0.6559 0.7973
H34_10 H 0.2338 0.6510 0.8095
N18_10 N 0.2390(4) 0.7573(5) 0.7944(4)
H35_10 H 0.2172 0.7766 0.7906
H36_10 H 0.2645 0.7712 0.7907
O1_10 O 0.0052(2) 0.6538(3) 0.8330(2)
O2_10 O 0.0018(2) 0.6495(2) 0.7639(2)
O6_10 O 0.0900(2) 0.6846(3) 0.8245(2)
O7_10 O 0.0786(2) 0.6743(2) 0.7534(2)
O8_10 O 0.0722(3) 0.5960(3) 0.8019(3)
O9_10 O 0.1261(2) 0.7570(2) 0.8147(2)
O10_10 O 0.1189(2) 0.7535(2) 0.7451(2)
O11_10 O 0.1692(2) 0.6850(3) 0.7750(3)
O12_10 O 0.0937(2) 0.8419(2) 0.8129(2)
O13_10 O 0.0884(3) 0.8292(2) 0.7395(2)
O14_10 O 0.1750(3) 0.8228(3) 0.7749(3)
O15_10 O 0.0202(2) 0.8756(3) 0.8104(2)
O16_10 O 0.0123(2) 0.8714(3) 0.7410(2)
O17_10 O 0.0896(2) 0.9194(2) 0.7632(2)
O26_10 O 0.0514(2) 0.7277(2) 0.6967(2)
O27_10 O 0.0378(3) 0.6341(3) 0.6891(3)
O29_10 O 0.0311(2) 0.8064(2) 0.6853(2)
O31_10 O 0.1221(2) 0.7847(3) 0.6707(2)
O33_10 O 0.0405(3) 0.7142(3) 0.8850(3)
O34_10 O 0.0683(2) 0.7883(3) 0.8699(2)
O35_10 O 0.1353(3) 0.7242(3) 0.8893(3)
O38_10 O 0.0209(3) 0.7819(3) 0.9409(3)
O44_8 O 0.0554(3) 0.8983(3) 0.6737(2)
O46_10 O 0.2317(4) 0.6466(4) 0.7192(4)
H37_10 H 0.2339 0.6240 0.7329
H38_10 H 0.2486 0.6435 0.7003
C4_10 C 0.1985(5) 0.9056(5) 0.7204(5)
H45_10 H 0.2138 0.8822 0.7332
H46_10 H 0.2170 0.9161 0.7000
C5_10 C 0.1896(5) 0.9413(5) 0.7469(5)
H47_10 H 0.1773 0.9292 0.7698
H48_10 H 0.2169 0.9555 0.7534
C7_10 C 0.1346(9) 0.5586(9) 0.7251(8)
H51_10 H 0.1604 0.5461 0.7133
H52_10 H 0.1377 0.5560 0.7522
C8_10 C 0.0938(8) 0.5343(8) 0.7119(8)
H53_10 H 0.0687 0.5438 0.7265
H54_10 H 0.0975 0.5032 0.7158
C9_10 C 0.0992(7) 0.6867(6) 0.6117(6)
H55_10 H 0.0907 0.7172 0.6101
H56_10 H 0.1235 0.6822 0.5945
C10_10 C 0.0612(8) 0.6587(8) 0.5991(7)
H57_10 H 0.0571 0.6616 0.5721
H58_10 H 0.0347 0.6682 0.6116
C15_10 C 0.2838(5) 0.7460(6) 0.6926(5)
H67_10 H 0.3077 0.7652 0.6858
H68_10 H 0.2802 0.7248 0.6725
C16_10 C 0.2432(5) 0.7722(6) 0.6961(6)
H69_10 H 0.2345 0.7829 0.6715
H70_10 H 0.2483 0.7971 0.7124
C17_10 C 0.2631(6) 0.6995(7) 0.8355(6)
H71_10 H 0.2556 0.6843 0.8587
H72_10 H 0.2940 0.7064 0.8363
C18_10 C 0.2370(6) 0.7414(7) 0.8330(6)
H73_10 H 0.2491 0.7630 0.8501
H74_10 H 0.2069 0.7360 0.8402
O47_10 O 0.0615(3) 0.8847(3) 0.8828(3)
H151_14 H 0.0206751 0.530175 0.962995
Co4_10 Co 0.87913(6) 0.63445(6) 0.66374(6)
Ge2_10 Ge 0.92905(4) 0.70417(4) 0.88233(4)
Ge4_10 Ge 0.92623(4) 0.83142(4) 0.69822(4)
V1_10 V 0.95391(6) 0.65128(6) 0.79898(6)
V6_10 V 0.96736(6) 0.87992(6) 0.78004(6)
V7_10 V 0.89126(6) 0.81521(6) 0.78572(7)
V8_10 V 0.88469(6) 0.72409(6) 0.79852(6)
V10_10 V 0.99822(6) 0.75101(6) 0.67621(6)
V12_10 V 0.91784(6) 0.72310(6) 0.72044(6)
V15_10 V 0.93345(6) 0.81112(6) 0.86013(6)
N11_10 N 0.9020(4) 0.6047(4) 0.7123(4)
H21_10 H 0.9141 0.6247 0.7278
H22_10 H 0.9225 0.5847 0.7065
N12_10 N 0.8187(4) 0.6240(4) 0.6894(4)
H23_10 H 0.8049 0.6015 0.6781
H24_10 H 0.8019 0.6479 0.6870
N13_10 N 0.9377(4) 0.6474(4) 0.6373(4)
H25_10 H 0.9541 0.6229 0.6366
H26_10 H 0.9525 0.6678 0.6503
N14_10 N 0.8535(4) 0.6674(4) 0.6176(4)
H27_10 H 0.8321 0.6857 0.6251
H28_10 H 0.8422 0.6483 0.6010
O3_10 O 0.9194(2) 0.6891(3) 0.8355(2)
O4_10 O 0.9203(2) 0.6874(2) 0.7653(2)
O5_10 O 0.9323(3) 0.6038(3) 0.8024(3)
O18_10 O 0.9333(2) 0.8464(3) 0.8158(3)
O19_10 O 0.9256(3) 0.8467(3) 0.7456(3)
O20_10 O 0.9515(3) 0.9297(3) 0.7809(3)
O21_10 O 0.8953(2) 0.7754(2) 0.8283(3)
O22_10 O 0.8890(2) 0.7623(3) 0.7553(3)
O23_10 O 0.8442(3) 0.8397(3) 0.7857(3)
O24_10 O 0.8347(3) 0.7077(3) 0.8014(3)
O25_10 O 0.9738(2) 0.7031(2) 0.7047(3)
O28_10 O 0.9423(3) 0.7764(2) 0.6941(3)
O30_10 O 0.9942(3) 0.7416(3) 0.6319(3)
O32_10 O 0.8817(3) 0.7003(3) 0.6931(3)
O36_10 O 0.9538(2) 0.7550(2) 0.8850(2)
O37_10 O 0.9933(3) 0.8242(3) 0.8703(2)
O40_10 O 0.9653(2) 0.6660(3) 0.9032(2)
O42_10 O 0.8808(3) 0.7046(3) 0.9096(3)
O43_10 O 0.9648(3) 0.8643(2) 0.6743(3)
O45_10 O 0.8755(3) 0.8398(3) 0.6773(3)
C11_10 C 0.8631(6) 0.5828(6) 0.7317(6)
H59_10 H 0.8702 0.5761 0.7577
H60_10 H 0.8558 0.5557 0.7189
C12_10 C 0.8252(6) 0.6140(5) 0.7299(5)
H61_10 H 0.8317 0.6405 0.7439
H62_10 H 0.7992 0.6008 0.7405
C13_10 C 0.9300(5) 0.6621(5) 0.6006(5)
H63_10 H 0.9557 0.6773 0.5913
H64_10 H 0.9246 0.6373 0.5842
C14_10 C 0.8905(5) 0.6931(5) 0.5995(5)
H65_10 H 0.8833 0.7009 0.5737
H66_10 H 0.8965 0.7196 0.6136
H120_8 H 0.0088 0.0458 0.5740
C24_8 C 0.5200(4) 0.0153(4) 0.4640(4)
H125_8 H 0.5383 0.0079 0.4426
H126_8 H 0.5369 0.0098 0.4867
N1_8 N 0.1132(4) 0.8554(3) 0.6109(4)
H1_8 H 0.1167 0.8421 0.6334
H2_8 H 0.1398 0.8636 0.6026
N2_8 N 0.0282(5) 0.8698(4) 0.5892(4)
H3_8 H 0.0254 0.8787 0.5651
H4_8 H 0.0018 0.8718 0.6003
N3_8 N 0.0367(4) 0.9676(4) 0.6078(4)
H5_8 H 0.0555 0.9901 0.6103
H6_8 H 0.0182 0.9696 0.6275
C1_8 C 0.0953(5) 0.8262(5) 0.5857(5)
H39_8 H 0.1032 0.8345 0.5601
H40_8 H 0.1069 0.7972 0.5904
C2_8 C 0.0428(6) 0.8256(6) 0.5899(6)
H41_8 H 0.0346 0.8118 0.6135
H42_8 H 0.0298 0.8093 0.5693
C3_8 C 0.0126(7) 0.9773(7) 0.5773(6)
H43_8 H 0.0317 0.9767 0.5554
C6_8 C 0.4800(4) 0.9847(4) 0.4640(4)
H49_8 H 0.4617 0.9921 0.4426
H50_8 H 0.4631 0.9902 0.4867
H151_15 H 0.030175 0.979325 0.712995
N19_8 N 0.8868(4) 0.1446(3) 0.6109(4)
H75_8 H 0.8833 0.1579 0.6334
H76_8 H 0.8602 0.1364 0.6026
N20_8 N 0.9718(5) 0.1302(4) 0.5892(4)
H77_8 H 0.9746 0.1213 0.5651
H78_8 H 0.9982 0.1282 0.6003
N21_8 N 0.9633(4) 0.0324(4) 0.6078(4)
H79_8 H 0.9445 0.0099 0.6103
H80_8 H 0.9818 0.0304 0.6275
C19_8 C 0.9047(5) 0.1738(5) 0.5857(5)
H115_8 H 0.8968 0.1655 0.5601
H116_8 H 0.8931 0.2028 0.5904
C20_8 C 0.9572(6) 0.1744(6) 0.5899(6)
H117_8 H 0.9654 0.1882 0.6135
H118_8 H 0.9702 0.1907 0.5693
C21_8 C 0.9874(7) 0.0227(7) 0.5773(6)
H119_8 H 0.9683 0.0233 0.5554
H44_8 H 0.9912 0.9542 0.5740
H151_16 H 0.969825 0.0206751 0.712995
loop_
_geom_bond_atom_site_label_1
_geom_bond_atom_site_label_2
_geom_bond_site_symmetry_1
_geom_bond_site_symmetry_2
Co14 O86 1_555 1_555
Ge6 O50 1_555 1_555
V23 O65 1_555 1_555
V24 O50 1_555 1_555
V31 O65 1_555 1_555
O50 V17 1_555 1_555
O51 V17 1_555 1_555
O52 V17 1_555 1_555
O65 V22 1_555 1_555
O67 V22 1_555 1_555
O68 V23 1_555 1_555
O69 V23 1_555 1_555
O70 V23 1_555 1_555
O71 V24 1_555 1_555
O83 Ge6 1_555 1_555
O86 V31 1_555 1_555
O93 Ge6 1_555 1_555
Ge6 O89 1_555 1_555
V24 O51 1_555 1_555
V24 O68 1_555 1_555
V24 O69 1_555 1_555
V31 O68 1_555 1_555
V31 O83 1_555 1_555
V31 O84 1_555 1_555
Co6 N19 1_555 1_555
Co15 N30 1_555 1_555
Ge8 O66 1_555 1_555
V26 O72 1_555 1_555
N19 H75 1_555 1_555
H76 N19 1_555 1_555
N20 Co6 1_555 1_555
H77 N20 1_555 1_555
H78 N20 1_555 1_555
N21 Co6 1_555 1_555
H79 N21 1_555 1_555
H80 N21 1_555 1_555
N30 H97 1_555 1_555
H98 N30 1_555 1_555
N31 Co15 1_555 1_555
H99 N31 1_555 1_555
H100 N31 1_555 1_555
N32 Co15 1_555 1_555
H101 N32 1_555 1_555
H102 N32 1_555 1_555
N33 Co15 1_555 1_555
H103 N33 1_555 1_555
H104 N33 1_555 1_555
O75 Ge8 1_555 1_555
O77 V26 1_555 1_555
O79 Co15 1_555 1_555
O92 Co6 1_555 1_555
O96 Co6 1_555 1_555
O97 Ge8 1_555 1_555
C19 N19 1_555 1_555
H115 C19 1_555 1_555
H116 C19 1_555 1_555
C20 N20 1_555 1_555
H117 C20 1_555 1_555
H118 C20 1_555 1_555
H119 C21 1_555 1_555
C29 N30 1_555 1_555
H136 C29 1_555 1_555
C30 N31 1_555 1_555
H137 C30 1_555 1_555
H138 C30 1_555 1_555
C31 N32 1_555 1_555
H139 C31 1_555 1_555
H140 C31 1_555 1_555
C32 N33 1_555 1_555
H141 C32 1_555 1_555
H142 C32 1_555 1_555
Ge8 O94 1_555 1_555
V26 O75 1_555 1_555
V28 O72 1_555 1_555
V28 O75 1_555 1_555
V28 O79 1_555 1_555
N21 C21 1_555 1_555
C19 C20 1_555 1_555
C29 C30 1_555 1_555
C31 C32 1_555 1_555
Co8 O90 1_555 1_555
Co11 O90 1_555 1_555
Ge5 O48 1_555 1_555
V18 O48 1_555 1_555
V19 O53 1_555 1_555
V20 O56 1_555 1_555
V21 O59 1_555 1_555
V29 O53 1_555 1_555
V30 O80 1_555 1_555
V32 O59 1_555 1_555
N36 Co16 1_555 1_555
H109 N36 1_555 1_555
H110 N36 1_555 1_555
N37 Co16 1_555 1_555
H111 N37 1_555 1_555
H112 N37 1_555 1_555
O53 V18 1_555 1_555
O54 V18 1_555 1_555
O55 V18 1_555 1_555
O56 V19 1_555 1_555
O58 Co16 1_555 1_555
O59 V20 1_555 1_555
O61 V20 1_555 1_555
O62 V21 1_555 1_555
O80 Ge5 1_555 1_555
O81 V29 1_555 1_555
O82 V29 1_555 1_555
O85 V30 1_555 1_555
O90 Ge5 1_555 1_555
C35 N36 1_555 1_555
H147 C35 1_555 1_555
H148 C35 1_555 1_555
C36 N37 1_555 1_555
H149 C36 1_555 1_555
H150 C36 1_555 1_555
O99 V32 1_555 1_555
V18 O49 1_555 1_555
V19 O54 1_555 1_555
V19 O58 1_555 1_555
V21 O64 1_555 1_555
V29 O56 1_555 1_555
V29 O80 1_555 1_555
V30 O81 1_555 1_555
V32 O62 1_555 1_555
V32 O81 1_555 1_555
C35 C36 1_555 1_555
Co1 N1 1_555 1_555
Co2 N4 1_555 1_555
Co3 N7 1_555 1_555
Co4 N11 1_555 1_555
Co5 N15 1_555 1_555
Ge1 O1 1_555 1_555
Ge2 O3 1_555 1_555
Ge3 O16 1_555 1_555
Ge4 O19 1_555 1_555
V1 O1 1_555 1_555
V2 O1 1_555 1_555
V3 O6 1_555 1_555
V4 O9 1_555 1_555
V5 O12 1_555 1_555
V6 O15 1_555 1_555
V7 O18 1_555 1_555
V8 O3 1_555 1_555
V9 O2 1_555 1_555
V10 O25 1_555 1_555
V11 O10 1_555 1_555
V12 O4 1_555 1_555
V13 O6 1_555 1_555
V14 O33 1_555 1_555
V15 O18 1_555 1_555
V16 O12 1_555 1_555
N1 H1 1_555 1_555
H2 N1 1_555 1_555
N2 Co1 1_555 1_555
H3 N2 1_555 1_555
H4 N2 1_555 1_555
N3 Co1 1_555 1_555
H5 N3 1_555 1_555
H6 N3 1_555 1_555
N4 H7 1_555 1_555
H8 N4 1_555 1_555
N5 Co2 1_555 1_555
H9 N5 1_555 1_555
H10 N5 1_555 1_555
N6 Co2 1_555 1_555
H11 N6 1_555 1_555
H12 N6 1_555 1_555
N7 H13 1_555 1_555
H14 N7 1_555 1_555
N8 Co3 1_555 1_555
H15 N8 1_555 1_555
H16 N8 1_555 1_555
N9 Co3 1_555 1_555
H17 N9 1_555 1_555
H18 N9 1_555 1_555
N10 Co3 1_555 1_555
H19 N10 1_555 1_555
H20 N10 1_555 1_555
N11 H21 1_555 1_555
H22 N11 1_555 1_555
N12 Co4 1_555 1_555
H23 N12 1_555 1_555
H24 N12 1_555 1_555
N13 Co4 1_555 1_555
H25 N13 1_555 1_555
H26 N13 1_555 1_555
N14 Co4 1_555 1_555
H27 N14 1_555 1_555
H28 N14 1_555 1_555
N15 H29 1_555 1_555
H30 N15 1_555 1_555
N16 Co5 1_555 1_555
H31 N16 1_555 1_555
H32 N16 1_555 1_555
N17 Co5 1_555 1_555
H33 N17 1_555 1_555
H34 N17 1_555 1_555
N18 Co5 1_555 1_555
H35 N18 1_555 1_555
H36 N18 1_555 1_555
O2 V1 1_555 1_555
O3 V1 1_555 1_555
O4 V1 1_555 1_555
O5 V1 1_555 1_555
O6 V2 1_555 1_555
O7 V2 1_555 1_555
O8 V2 1_555 1_555
O9 V3 1_555 1_555
O10 V3 1_555 1_555
O11 Co5 1_555 1_555
O12 V4 1_555 1_555
O13 V4 1_555 1_555
O14 V4 1_555 1_555
O15 V5 1_555 1_555
O16 V5 1_555 1_555
O17 Co2 1_555 1_555
O18 V6 1_555 1_555
O19 V6 1_555 1_555
O20 V6 1_555 1_555
O21 V7 1_555 1_555
O22 V7 1_555 1_555
O23 V7 1_555 1_555
O24 V8 1_555 1_555
O25 V9 1_555 1_555
O26 V9 1_555 1_555
O27 Co3 1_555 1_555
O28 Ge4 1_555 1_555
O29 Ge3 1_555 1_555
O30 V10 1_555 1_555
O31 V11 1_555 1_555
O32 Co4 1_555 1_555
O33 Ge1 1_555 1_555
O34 V13 1_555 1_555
O35 V13 1_555 1_555
O36 Ge2 1_555 1_555
O37 V14 1_555 1_555
O38 V14 1_555 1_555
O39 V15 1_555 1_555
O40 Ge1 1_555 1_555
O41 Co1 1_555 1_555
O42 Ge2 1_555 1_555
O43 Ge3 1_555 1_555
O44 Co2 1_555 1_555
O45 Ge4 1_555 1_555
O46 Co5 1_555 1_555
H37 O46 1_555 1_555
H38 O46 1_555 1_555
C1 N1 1_555 1_555
H39 C1 1_555 1_555
H40 C1 1_555 1_555
C2 N2 1_555 1_555
H41 C2 1_555 1_555
H42 C2 1_555 1_555
C3 N3 1_555 1_555
H43 C3 1_555 1_555
C4 N4 1_555 1_555
H45 C4 1_555 1_555
H46 C4 1_555 1_555
C5 N5 1_555 1_555
H47 C5 1_555 1_555
H48 C5 1_555 1_555
C6 N6 1_555 1_555
H49 C6 1_555 1_555
H50 C6 1_555 1_555
C7 N7 1_555 1_555
H51 C7 1_555 1_555
H52 C7 1_555 1_555
C8 N8 1_555 1_555
H53 C8 1_555 1_555
H54 C8 1_555 1_555
C9 N9 1_555 1_555
H55 C9 1_555 1_555
H56 C9 1_555 1_555
C10 N10 1_555 1_555
H57 C10 1_555 1_555
H58 C10 1_555 1_555
C11 N11 1_555 1_555
H59 C11 1_555 1_555
H60 C11 1_555 1_555
C12 N12 1_555 1_555
H61 C12 1_555 1_555
H62 C12 1_555 1_555
C13 N13 1_555 1_555
H63 C13 1_555 1_555
H64 C13 1_555 1_555
C14 N14 1_555 1_555
H65 C14 1_555 1_555
H66 C14 1_555 1_555
C15 N15 1_555 1_555
H67 C15 1_555 1_555
H68 C15 1_555 1_555
C16 N16 1_555 1_555
H69 C16 1_555 1_555
H70 C16 1_555 1_555
C17 N17 1_555 1_555
H71 C17 1_555 1_555
H72 C17 1_555 1_555
C18 N18 1_555 1_555
H73 C18 1_555 1_555
H74 C18 1_555 1_555
O47 V16 1_555 1_555
Co7 O44 1_555 1_555
Co9 O41 1_555 1_555
Co10 N24 1_555 1_555
Co12 N26 1_555 1_555
Co13 O39 1_555 1_555
Ge7 O63 1_555 1_555
V27 O57 1_555 1_555
N22 Co9 1_555 1_555
H81 N22 1_555 1_555
H82 N22 1_555 1_555
N23 Co9 1_555 1_555
H83 N23 1_555 1_555
H84 N23 1_555 1_555
N24 H85 1_555 1_555
N25 Co9 1_555 1_555
H86 N25 1_555 1_555
H87 N24 1_555 1_555
H88 N25 1_555 1_555
N26 H89 1_555 1_555
H90 N26 1_555 1_555
N27 Co12 1_555 1_555
H91 N27 1_555 1_555
H92 N27 1_555 1_555
N28 Co12 1_555 1_555
H93 N28 1_555 1_555
H94 N28 1_555 1_555
N29 Co12 1_555 1_555
H95 N29 1_555 1_555
H96 N29 1_555 1_555
N34 H105 1_555 1_555
H106 N34 1_555 1_555
H107 N35 1_555 1_555
H108 N35 1_555 1_555
O73 V25 1_555 1_555
O74 Co12 1_555 1_555
O76 Ge7 1_555 1_555
O78 V27 1_555 1_555
O87 Co3 1_555 1_555
O88 Co12 1_555 1_555
O91 Co2 1_555 1_555
O95 Co1 1_555 1_555
H113 O98 1_555 1_555
H114 O98 1_555 1_555
C22 N22 1_555 1_555
H121 C22 1_555 1_555
H122 C22 1_555 1_555
C23 N23 1_555 1_555
C24 C6 1_555 1_555
H125 C24 1_555 1_555
H126 C24 1_555 1_555
C25 N26 1_555 1_555
H127 C25 1_555 1_555
C26 N27 1_555 1_555
H129 C26 1_555 1_555
H130 C26 1_555 1_555
C27 N28 1_555 1_555
H131 C27 1_555 1_555
H132 C27 1_555 1_555
C28 N29 1_555 1_555
H133 C28 1_555 1_555
H134 C28 1_555 1_555
C33 N34 1_555 1_555
H143 C33 1_555 1_555
H144 C33 1_555 1_555
C34 N35 1_555 1_555
H145 C34 1_555 1_555
H146 C34 1_555 1_555
Ge1 O41 1_555 1_555
Ge2 O40 1_555 1_555
Ge3 O44 1_555 1_555
Ge4 O43 1_555 1_555
V2 O2 1_555 1_555
V3 O7 1_555 1_555
V3 O11 1_555 1_555
V4 O10 1_555 1_555
V5 O13 1_555 1_555
V5 O17 1_555 1_555
V6 O16 1_555 1_555
V7 O19 1_555 1_555
V8 O4 1_555 1_555
V8 O21 1_555 1_555
V8 O22 1_555 1_555
V9 O7 1_555 1_555
V9 O27 1_555 1_555
V10 O26 1_555 1_555
V10 O28 1_555 1_555
V10 O29 1_555 1_555
V11 O13 1_555 1_555
V11 O26 1_555 1_555
V11 O29 1_555 1_555
V12 O22 1_555 1_555
V12 O25 1_555 1_555
V12 O28 1_555 1_555
V12 O32 1_555 1_555
V13 O9 1_555 1_555
V13 O33 1_555 1_555
V14 O34 1_555 1_555
V14 O36 1_555 1_555
V15 O21 1_555 1_555
V15 O36 1_555 1_555
V15 O37 1_555 1_555
V16 O15 1_555 1_555
V16 O34 1_555 1_555
V16 O37 1_555 1_555
C1 C2 1_555 1_555
C4 C5 1_555 1_555
C7 C8 1_555 1_555
C9 C10 1_555 1_555
C11 C12 1_555 1_555
C13 C14 1_555 1_555
C15 C16 1_555 1_555
C17 C18 1_555 1_555
Co7 O91 1_555 1_555
Co9 O95 1_555 1_555
Ge7 O95 1_555 1_555
V25 O74 1_555 1_555
V27 O60 1_555 1_555
V27 O73 1_555 1_555
V27 O76 1_555 1_555
N24 C24 1_555 1_555
C22 C23 1_555 1_555
C25 C26 1_555 1_555
C27 C28 1_555 1_555
C33 C34 1_555 1_555
N25 H151 1_555 1_555
Co1_2 N1_2 1_555 1_555
Ge1_2 O1_2 1_555 1_555
V2_2 O1_2 1_555 1_555
V3_2 O6_2 1_555 1_555
V4_2 O9_2 1_555 1_555
V5_2 O12_2 1_555 1_555
V13_2 O6_2 1_555 1_555
V14_2 O33_2 1_555 1_555
V16_2 O12_2 1_555 1_555
N1_2 H1_2 1_555 1_555
H2_2 N1_2 1_555 1_555
N2_2 Co1_2 1_555 1_555
H3_2 N2_2 1_555 1_555
H4_2 N2_2 1_555 1_555
N3_2 Co1_2 1_555 1_555
H5_2 N3_2 1_555 1_555
H6_2 N3_2 1_555 1_555
N17_2 Co5_2 1_555 1_555
H33_2 N17_2 1_555 1_555
H34_2 N17_2 1_555 1_555
N18_2 Co5_2 1_555 1_555
H35_2 N18_2 1_555 1_555
H36_2 N18_2 1_555 1_555
O6_2 V2_2 1_555 1_555
O7_2 V2_2 1_555 1_555
O8_2 V2_2 1_555 1_555
O9_2 V3_2 1_555 1_555
O11_2 Co5_2 1_555 1_555
O12_2 V4_2 1_555 1_555
O14_2 V4_2 1_555 1_555
O15_2 V5_2 1_555 1_555
O33_2 Ge1_2 1_555 1_555
O34_2 V13_2 1_555 1_555
O35_2 V13_2 1_555 1_555
O38_2 V14_2 1_555 1_555
O41_2 Co1_2 1_555 1_555
C1_2 N1_2 1_555 1_555
H39_2 C1_2 1_555 1_555
H40_2 C1_2 1_555 1_555
C2_2 N2_2 1_555 1_555
H41_2 C2_2 1_555 1_555
H42_2 C2_2 1_555 1_555
C3_2 N3_2 1_555 1_555
H43_2 C3_2 1_555 1_555
C17_2 N17_2 1_555 1_555
H71_2 C17_2 1_555 1_555
H72_2 C17_2 1_555 1_555
C18_2 N18_2 1_555 1_555
H73_2 C18_2 1_555 1_555
H74_2 C18_2 1_555 1_555
O47_2 V16_2 1_555 1_555
Co8_2 O90_2 1_555 1_555
Co9_2 O41_2 1_555 1_555
Co11_2 O90_2 1_555 1_555
Co12_2 N26_2 1_555 1_555
Co16_2 N34_2 1_555 1_555
Ge5_2 O48_2 1_555 1_555
Ge7_2 O63_2 1_555 1_555
V18_2 O48_2 1_555 1_555
V19_2 O53_2 1_555 1_555
V20_2 O56_2 1_555 1_555
V21_2 O59_2 1_555 1_555
V25_2 O49_2 1_555 1_555
V27_2 O57_2 1_555 1_555
V29_2 O53_2 1_555 1_555
V30_2 O80_2 1_555 1_555
V32_2 O59_2 1_555 1_555
N22_2 Co9_2 1_555 1_555
H81_2 N22_2 1_555 1_555
H82_2 N22_2 1_555 1_555
N23_2 Co9_2 1_555 1_555
H83_2 N23_2 1_555 1_555
H84_2 N23_2 1_555 1_555
N25_2 Co9_2 1_555 1_555
N26_2 H89_2 1_555 1_555
H90_2 N26_2 1_555 1_555
N27_2 Co12_2 1_555 1_555
H91_2 N27_2 1_555 1_555
H92_2 N27_2 1_555 1_555
N28_2 Co12_2 1_555 1_555
H93_2 N28_2 1_555 1_555
H94_2 N28_2 1_555 1_555
N29_2 Co12_2 1_555 1_555
H95_2 N29_2 1_555 1_555
H96_2 N29_2 1_555 1_555
N34_2 H105_2 1_555 1_555
H106_2 N34_2 1_555 1_555
N35_2 Co16_2 1_555 1_555
H107_2 N35_2 1_555 1_555
H108_2 N35_2 1_555 1_555
N36_2 Co16_2 1_555 1_555
H109_2 N36_2 1_555 1_555
H110_2 N36_2 1_555 1_555
N37_2 Co16_2 1_555 1_555
H111_2 N37_2 1_555 1_555
H112_2 N37_2 1_555 1_555
O53_2 V18_2 1_555 1_555
O54_2 V18_2 1_555 1_555
O55_2 V18_2 1_555 1_555
O56_2 V19_2 1_555 1_555
O57_2 V19_2 1_555 1_555
O58_2 Co16_2 1_555 1_555
O59_2 V20_2 1_555 1_555
O60_2 V20_2 1_555 1_555
O61_2 V20_2 1_555 1_555
O62_2 V21_2 1_555 1_555
O63_2 V21_2 1_555 1_555
O64_2 Co9_2 1_555 1_555
O73_2 V25_2 1_555 1_555
O74_2 Co12_2 1_555 1_555
O76_2 Ge7_2 1_555 1_555
O78_2 V27_2 1_555 1_555
O80_2 Ge5_2 1_555 1_555
O81_2 V29_2 1_555 1_555
O82_2 V29_2 1_555 1_555
O85_2 V30_2 1_555 1_555
O88_2 Co12_2 1_555 1_555
O90_2 Ge5_2 1_555 1_555
O95_2 Co1_2 1_555 1_555
O98_2 Co16_2 1_555 1_555
H113_2 O98_2 1_555 1_555
H114_2 O98_2 1_555 1_555
C22_2 N22_2 1_555 1_555
H121_2 C22_2 1_555 1_555
H122_2 C22_2 1_555 1_555
C23_2 N23_2 1_555 1_555
H123_2 C23_2 1_555 1_555
H124_2 C23_2 1_555 1_555
C25_2 N26_2 1_555 1_555
H127_2 C25_2 1_555 1_555
H128_2 C25_2 1_555 1_555
C26_2 N27_2 1_555 1_555
H129_2 C26_2 1_555 1_555
H130_2 C26_2 1_555 1_555
C27_2 N28_2 1_555 1_555
H131_2 C27_2 1_555 1_555
H132_2 C27_2 1_555 1_555
C28_2 N29_2 1_555 1_555
H133_2 C28_2 1_555 1_555
H134_2 C28_2 1_555 1_555
C33_2 N34_2 1_555 1_555
H143_2 C33_2 1_555 1_555
H144_2 C33_2 1_555 1_555
C34_2 N35_2 1_555 1_555
H145_2 C34_2 1_555 1_555
H146_2 C34_2 1_555 1_555
C35_2 N36_2 1_555 1_555
H147_2 C35_2 1_555 1_555
H148_2 C35_2 1_555 1_555
C36_2 N37_2 1_555 1_555
H149_2 C36_2 1_555 1_555
H150_2 C36_2 1_555 1_555
O99_2 V32_2 1_555 1_555
Ge1_2 O41_2 1_555 1_555
V2_2 O2_2 1_555 1_555
V3_2 O7_2 1_555 1_555
V3_2 O11_2 1_555 1_555
V5_2 O17_2 1_555 1_555
V13_2 O9_2 1_555 1_555
V13_2 O33_2 1_555 1_555
V14_2 O34_2 1_555 1_555
V16_2 O15_2 1_555 1_555
V16_2 O34_2 1_555 1_555
C1_2 C2_2 1_555 1_555
C17_2 C18_2 1_555 1_555
Co9_2 O95_2 1_555 1_555
Ge7_2 O95_2 1_555 1_555
V18_2 O49_2 1_555 1_555
V19_2 O54_2 1_555 1_555
V19_2 O58_2 1_555 1_555
V20_2 O57_2 1_555 1_555
V21_2 O60_2 1_555 1_555
V21_2 O64_2 1_555 1_555
V25_2 O54_2 1_555 1_555
V25_2 O74_2 1_555 1_555
V27_2 O60_2 1_555 1_555
V27_2 O73_2 1_555 1_555
V27_2 O76_2 1_555 1_555
V29_2 O56_2 1_555 1_555
V29_2 O80_2 1_555 1_555
V30_2 O81_2 1_555 1_555
V32_2 O62_2 1_555 1_555
V32_2 O81_2 1_555 1_555
C22_2 C23_2 1_555 1_555
C25_2 C26_2 1_555 1_555
C27_2 C28_2 1_555 1_555
C33_2 C34_2 1_555 1_555
C35_2 C36_2 1_555 1_555
N25_2 H151_2 1_555 1_555
Co2_2 N4_2 1_555 1_555
Co3_2 N7_2 1_555 1_555
Ge3_2 O16_2 1_555 1_555
V11_2 O10_2 1_555 1_555
N4_2 H7_2 1_555 1_555
H8_2 N4_2 1_555 1_555
N5_2 Co2_2 1_555 1_555
H9_2 N5_2 1_555 1_555
H10_2 N5_2 1_555 1_555
N6_2 Co2_2 1_555 1_555
H11_2 N6_2 1_555 1_555
H12_2 N6_2 1_555 1_555
N7_2 H13_2 1_555 1_555
H14_2 N7_2 1_555 1_555
N8_2 Co3_2 1_555 1_555
H15_2 N8_2 1_555 1_555
H16_2 N8_2 1_555 1_555
N9_2 Co3_2 1_555 1_555
H17_2 N9_2 1_555 1_555
H18_2 N9_2 1_555 1_555
N10_2 Co3_2 1_555 1_555
H19_2 N10_2 1_555 1_555
H20_2 N10_2 1_555 1_555
N15_2 H29_2 1_555 1_555
H30_2 N15_2 1_555 1_555
H31_2 N16_2 1_555 1_555
H32_2 N16_2 1_555 1_555
O26_2 V9_2 1_555 1_555
O27_2 Co3_2 1_555 1_555
O29_2 Ge3_2 1_555 1_555
O31_2 V11_2 1_555 1_555
O96 Co2_2 1_555 1_555
H37_2 O46_2 1_555 1_555
H38_2 O46_2 1_555 1_555
C4_2 N4_2 1_555 1_555
H45_2 C4_2 1_555 1_555
H46_2 C4_2 1_555 1_555
C5_2 N5_2 1_555 1_555
C6_2 N6_2 1_555 1_555
H49_2 C6_2 1_555 1_555
H50_2 C6_2 1_555 1_555
C7_2 N7_2 1_555 1_555
H51_2 C7_2 1_555 1_555
C8_2 N8_2 1_555 1_555
H53_2 C8_2 1_555 1_555
H54_2 C8_2 1_555 1_555
C9_2 N9_2 1_555 1_555
H55_2 C9_2 1_555 1_555
H56_2 C9_2 1_555 1_555
C10_2 N10_2 1_555 1_555
H57_2 C10_2 1_555 1_555
H58_2 C10_2 1_555 1_555
C15_2 N15_2 1_555 1_555
H67_2 C15_2 1_555 1_555
H68_2 C15_2 1_555 1_555
C16_2 N16_2 1_555 1_555
H69_2 C16_2 1_555 1_555
H70_2 C16_2 1_555 1_555
O87_2 Co3_2 1_555 1_555
O92 Co2_2 1_555 1_555
Ge3_2 O96 1_555 1_555
V9_2 O27_2 1_555 1_555
V11_2 O13_2 1_555 1_555
V11_2 O26_2 1_555 1_555
V11_2 O29_2 1_555 1_555
C4_2 C5_2 1_555 1_555
C7_2 C8_2 1_555 1_555
C9_2 C10_2 1_555 1_555
C15_2 C16_2 1_555 1_555
Ge2_2 O3_2 1_555 1_555
V7_2 O18_2 1_555 1_555
V8_2 O3_2 1_555 1_555
V15_2 O18_2 1_555 1_555
O3_2 V1_2 1_555 1_555
O4_2 V1_2 1_555 1_555
O5_2 V1_2 1_555 1_555
O18_2 V6_2 1_555 1_555
O20_2 V6_2 1_555 1_555
O21_2 V7_2 1_555 1_555
O22_2 V7_2 1_555 1_555
O23_2 V7_2 1_555 1_555
O24_2 V8_2 1_555 1_555
O36_2 Ge2_2 1_555 1_555
O39_2 V15_2 1_555 1_555
O42_2 Ge2_2 1_555 1_555
Co13_2 O39_2 1_555 1_555
Ge2_2 O40_2 1_555 1_555
V8_2 O4_2 1_555 1_555
V8_2 O21_2 1_555 1_555
V8_2 O22_2 1_555 1_555
V15_2 O21_2 1_555 1_555
V15_2 O36_2 1_555 1_555
V15_2 O37_2 1_555 1_555
Co4_2 N11_2 1_555 1_555
Ge4_2 O19_2 1_555 1_555
V10_2 O25_2 1_555 1_555
N11_2 H21_2 1_555 1_555
H22_2 N11_2 1_555 1_555
N12_2 Co4_2 1_555 1_555
H23_2 N12_2 1_555 1_555
H24_2 N12_2 1_555 1_555
N13_2 Co4_2 1_555 1_555
H25_2 N13_2 1_555 1_555
H26_2 N13_2 1_555 1_555
N14_2 Co4_2 1_555 1_555
H27_2 N14_2 1_555 1_555
H28_2 N14_2 1_555 1_555
O28_2 Ge4_2 1_555 1_555
O30_2 V10_2 1_555 1_555
O32_2 Co4_2 1_555 1_555
O45_2 Ge4_2 1_555 1_555
C11_2 N11_2 1_555 1_555
H60_2 C11_2 1_555 1_555
C12_2 N12_2 1_555 1_555
H61_2 C12_2 1_555 1_555
H62_2 C12_2 1_555 1_555
C13_2 N13_2 1_555 1_555
H63_2 C13_2 1_555 1_555
H64_2 C13_2 1_555 1_555
C14_2 N14_2 1_555 1_555
H65_2 C14_2 1_555 1_555
H66_2 C14_2 1_555 1_555
H125_2 C24_2 1_555 1_555
H126_2 C24_2 1_555 1_555
Ge4_2 O43_2 1_555 1_555
V10_2 O28_2 1_555 1_555
V12_2 O25_2 1_555 1_555
V12_2 O28_2 1_555 1_555
V12_2 O32_2 1_555 1_555
C11_2 C12_2 1_555 1_555
C13_2 C14_2 1_555 1_555
N25 C24_2 1_555 1_555
Co14_2 O86_2 1_555 1_555
Co15_2 N30_2 1_555 1_555
Ge6_2 O50_2 1_555 1_555
Ge8_2 O66_2 1_555 1_555
V23_2 O65_2 1_555 1_555
V24_2 O50_2 1_555 1_555
V26_2 O72_2 1_555 1_555
V28_2 O51_2 1_555 1_555
V31_2 O65_2 1_555 1_555
N30_2 H97_2 1_555 1_555
H98_2 N30_2 1_555 1_555
N31_2 Co15_2 1_555 1_555
H99_2 N31_2 1_555 1_555
H100_2 N31_2 1_555 1_555
N32_2 Co15_2 1_555 1_555
H101_2 N32_2 1_555 1_555
H102_2 N32_2 1_555 1_555
N33_2 Co15_2 1_555 1_555
H103_2 N33_2 1_555 1_555
H104_2 N33_2 1_555 1_555
O50_2 V17_2 1_555 1_555
O51_2 V17_2 1_555 1_555
O52_2 V17_2 1_555 1_555
O65_2 V22_2 1_555 1_555
O66_2 V22_2 1_555 1_555
O67_2 V22_2 1_555 1_555
O68_2 V23_2 1_555 1_555
O69_2 V23_2 1_555 1_555
O70_2 V23_2 1_555 1_555
O71_2 V24_2 1_555 1_555
O75_2 Ge8_2 1_555 1_555
O77_2 V26_2 1_555 1_555
O79_2 Co15_2 1_555 1_555
O83_2 Ge6_2 1_555 1_555
O86_2 V31_2 1_555 1_555
O93_2 Ge6_2 1_555 1_555
O97_2 Ge8_2 1_555 1_555
C29_2 N30_2 1_555 1_555
H135_2 C29_2 1_555 1_555
H136_2 C29_2 1_555 1_555
C30_2 N31_2 1_555 1_555
H137_2 C30_2 1_555 1_555
H138_2 C30_2 1_555 1_555
C31_2 N32_2 1_555 1_555
H139_2 C31_2 1_555 1_555
H140_2 C31_2 1_555 1_555
C32_2 N33_2 1_555 1_555
H141_2 C32_2 1_555 1_555
H142_2 C32_2 1_555 1_555
Ge6_2 O89_2 1_555 1_555
Ge8_2 O94_2 1_555 1_555
V23_2 O66_2 1_555 1_555
V24_2 O51_2 1_555 1_555
V24_2 O68_2 1_555 1_555
V24_2 O69_2 1_555 1_555
V26_2 O75_2 1_555 1_555
V28_2 O69_2 1_555 1_555
V28_2 O72_2 1_555 1_555
V28_2 O75_2 1_555 1_555
V28_2 O79_2 1_555 1_555
V31_2 O68_2 1_555 1_555
V31_2 O83_2 1_555 1_555
V31_2 O84_2 1_555 1_555
C29_2 C30_2 1_555 1_555
C31_2 C32_2 1_555 1_555
Co8 N19_2 1_555 1_555
N19_2 H75_2 1_555 1_555
H76_2 N19_2 1_555 1_555
N20_2 Co8 1_555 1_555
H77_2 N20_2 1_555 1_555
H78_2 N20_2 1_555 1_555
N21_2 Co8 1_555 1_555
H79_2 N21_2 1_555 1_555
H80_2 N21_2 1_555 1_555
O96_2 Co8 1_555 1_555
C19_2 N19_2 1_555 1_555
H115_2 C19_2 1_555 1_555
H116_2 C19_2 1_555 1_555
C20_2 N20_2 1_555 1_555
H117_2 C20_2 1_555 1_555
H118_2 C20_2 1_555 1_555
H119_2 C21_2 1_555 1_555
N21_2 C21_2 1_555 1_555
C19_2 C20_2 1_555 1_555
Co10 N4_3 1_555 1_555
Co3_3 N7_3 1_555 1_555
Co4_3 N11_3 1_555 1_555
Co5_3 N15_3 1_555 1_555
Ge1_3 O1_3 1_555 1_555
Ge2_3 O3_3 1_555 1_555
Ge3_3 O16_3 1_555 1_555
Ge4_3 O19_3 1_555 1_555
V1_3 O1_3 1_555 1_555
V2_3 O1_3 1_555 1_555
V3_3 O6_3 1_555 1_555
V4_3 O9_3 1_555 1_555
V5_3 O12_3 1_555 1_555
V6_3 O15_3 1_555 1_555
V7_3 O18_3 1_555 1_555
V8_3 O3_3 1_555 1_555
V9_3 O2_3 1_555 1_555
V10_3 O25_3 1_555 1_555
V11_3 O10_3 1_555 1_555
V12_3 O4_3 1_555 1_555
V13_3 O6_3 1_555 1_555
V14_3 O33_3 1_555 1_555
V15_3 O18_3 1_555 1_555
V16_3 O12_3 1_555 1_555
N4_3 H7_3 1_555 1_555
H8_3 N4_3 1_555 1_555
N5_3 Co10 1_555 1_555
H9_3 N5_3 1_555 1_555
H10_3 N5_3 1_555 1_555
N7_3 H13_3 1_555 1_555
H14_3 N7_3 1_555 1_555
N8_3 Co3_3 1_555 1_555
H15_3 N8_3 1_555 1_555
H16_3 N8_3 1_555 1_555
N9_3 Co3_3 1_555 1_555
H17_3 N9_3 1_555 1_555
H18_3 N9_3 1_555 1_555
N10_3 Co3_3 1_555 1_555
H19_3 N10_3 1_555 1_555
H20_3 N10_3 1_555 1_555
N11_3 H21_3 1_555 1_555
H22_3 N11_3 1_555 1_555
N12_3 Co4_3 1_555 1_555
H23_3 N12_3 1_555 1_555
H24_3 N12_3 1_555 1_555
N13_3 Co4_3 1_555 1_555
H25_3 N13_3 1_555 1_555
H26_3 N13_3 1_555 1_555
N14_3 Co4_3 1_555 1_555
H27_3 N14_3 1_555 1_555
H28_3 N14_3 1_555 1_555
N15_3 H29_3 1_555 1_555
H30_3 N15_3 1_555 1_555
N16_3 Co5_3 1_555 1_555
H31_3 N16_3 1_555 1_555
H32_3 N16_3 1_555 1_555
N17_3 Co5_3 1_555 1_555
H33_3 N17_3 1_555 1_555
H34_3 N17_3 1_555 1_555
N18_3 Co5_3 1_555 1_555
H35_3 N18_3 1_555 1_555
H36_3 N18_3 1_555 1_555
O2_3 V1_3 1_555 1_555
O3_3 V1_3 1_555 1_555
O4_3 V1_3 1_555 1_555
O5_3 V1_3 1_555 1_555
O6_3 V2_3 1_555 1_555
O7_3 V2_3 1_555 1_555
O8_3 V2_3 1_555 1_555
O9_3 V3_3 1_555 1_555
O10_3 V3_3 1_555 1_555
O11_3 Co5_3 1_555 1_555
O12_3 V4_3 1_555 1_555
O13_3 V4_3 1_555 1_555
O14_3 V4_3 1_555 1_555
O15_3 V5_3 1_555 1_555
O16_3 V5_3 1_555 1_555
O17_3 Co10 1_555 1_555
O18_3 V6_3 1_555 1_555
O19_3 V6_3 1_555 1_555
O20_3 V6_3 1_555 1_555
O21_3 V7_3 1_555 1_555
O22_3 V7_3 1_555 1_555
O23_3 V7_3 1_555 1_555
O24_3 V8_3 1_555 1_555
O25_3 V9_3 1_555 1_555
O26_3 V9_3 1_555 1_555
O27_3 Co3_3 1_555 1_555
O28_3 Ge4_3 1_555 1_555
O29_3 Ge3_3 1_555 1_555
O30_3 V10_3 1_555 1_555
O31_3 V11_3 1_555 1_555
O32_3 Co4_3 1_555 1_555
O33_3 Ge1_3 1_555 1_555
O34_3 V13_3 1_555 1_555
O35_3 V13_3 1_555 1_555
O36_3 Ge2_3 1_555 1_555
O37_3 V14_3 1_555 1_555
O38_3 V14_3 1_555 1_555
O39_3 V15_3 1_555 1_555
O40_3 Ge1_3 1_555 1_555
O42_3 Ge2_3 1_555 1_555
O43_3 Ge3_3 1_555 1_555
O44_2 Co10 1_555 1_555
O45_3 Ge4_3 1_555 1_555
O46_3 Co5_3 1_555 1_555
H37_3 O46_3 1_555 1_555
H38_3 O46_3 1_555 1_555
C4_3 N4_3 1_555 1_555
H45_3 C4_3 1_555 1_555
H46_3 C4_3 1_555 1_555
C5_3 N5_3 1_555 1_555
H47_3 C5_3 1_555 1_555
H48_3 C5_3 1_555 1_555
C7_3 N7_3 1_555 1_555
H51_3 C7_3 1_555 1_555
H52_3 C7_3 1_555 1_555
C8_3 N8_3 1_555 1_555
H53_3 C8_3 1_555 1_555
H54_3 C8_3 1_555 1_555
C9_3 N9_3 1_555 1_555
H55_3 C9_3 1_555 1_555
H56_3 C9_3 1_555 1_555
C10_3 N10_3 1_555 1_555
H57_3 C10_3 1_555 1_555
H58_3 C10_3 1_555 1_555
C11_3 N11_3 1_555 1_555
H59_3 C11_3 1_555 1_555
H60_3 C11_3 1_555 1_555
C12_3 N12_3 1_555 1_555
H61_3 C12_3 1_555 1_555
H62_3 C12_3 1_555 1_555
C13_3 N13_3 1_555 1_555
H63_3 C13_3 1_555 1_555
H64_3 C13_3 1_555 1_555
C14_3 N14_3 1_555 1_555
H65_3 C14_3 1_555 1_555
H66_3 C14_3 1_555 1_555
C15_3 N15_3 1_555 1_555
H67_3 C15_3 1_555 1_555
H68_3 C15_3 1_555 1_555
C16_3 N16_3 1_555 1_555
H69_3 C16_3 1_555 1_555
H70_3 C16_3 1_555 1_555
C17_3 N17_3 1_555 1_555
H71_3 C17_3 1_555 1_555
H72_3 C17_3 1_555 1_555
C18_3 N18_3 1_555 1_555
H73_3 C18_3 1_555 1_555
H74_3 C18_3 1_555 1_555
O47_3 V16_3 1_555 1_555
Co7_2 O44_2 1_555 1_555
Co13_3 O39_3 1_555 1_555
O87_3 Co3_3 1_555 1_555
O91_2 Co10 1_555 1_555
Ge1_3 O92 1_555 1_555
Ge2_3 O40_3 1_555 1_555
Ge3_3 O44_2 1_555 1_555
Ge4_3 O43_3 1_555 1_555
V2_3 O2_3 1_555 1_555
V3_3 O7_3 1_555 1_555
V3_3 O11_3 1_555 1_555
V4_3 O10_3 1_555 1_555
V5_3 O13_3 1_555 1_555
V5_3 O17_3 1_555 1_555
V6_3 O16_3 1_555 1_555
V7_3 O19_3 1_555 1_555
V8_3 O4_3 1_555 1_555
V8_3 O21_3 1_555 1_555
V8_3 O22_3 1_555 1_555
V9_3 O7_3 1_555 1_555
V9_3 O27_3 1_555 1_555
V10_3 O26_3 1_555 1_555
V10_3 O28_3 1_555 1_555
V10_3 O29_3 1_555 1_555
V11_3 O13_3 1_555 1_555
V11_3 O26_3 1_555 1_555
V11_3 O29_3 1_555 1_555
V12_3 O22_3 1_555 1_555
V12_3 O25_3 1_555 1_555
V12_3 O28_3 1_555 1_555
V12_3 O32_3 1_555 1_555
V13_3 O9_3 1_555 1_555
V13_3 O33_3 1_555 1_555
V14_3 O34_3 1_555 1_555
V14_3 O36_3 1_555 1_555
V15_3 O21_3 1_555 1_555
V15_3 O36_3 1_555 1_555
V15_3 O37_3 1_555 1_555
V16_3 O15_3 1_555 1_555
V16_3 O34_3 1_555 1_555
V16_3 O37_3 1_555 1_555
C4_3 C5_3 1_555 1_555
C7_3 C8_3 1_555 1_555
C9_3 C10_3 1_555 1_555
C11_3 C12_3 1_555 1_555
C13_3 C14_3 1_555 1_555
C15_3 C16_3 1_555 1_555
C17_3 C18_3 1_555 1_555
Co7_2 O91_2 1_555 1_555
N6_2 H151_3 1_555 1_555
Co14_3 O86_3 1_555 1_555
Co15_3 N30_3 1_555 1_555
Ge6_3 O50_3 1_555 1_555
Ge8_3 O66_3 1_555 1_555
V23_3 O65_3 1_555 1_555
V24_3 O50_3 1_555 1_555
V26_3 O72_3 1_555 1_555
V28_3 O51_3 1_555 1_555
V31_3 O65_3 1_555 1_555
N30_3 H97_3 1_555 1_555
H98_3 N30_3 1_555 1_555
N31_3 Co15_3 1_555 1_555
H99_3 N31_3 1_555 1_555
H100_3 N31_3 1_555 1_555
N32_3 Co15_3 1_555 1_555
H101_3 N32_3 1_555 1_555
H102_3 N32_3 1_555 1_555
N33_3 Co15_3 1_555 1_555
H103_3 N33_3 1_555 1_555
H104_3 N33_3 1_555 1_555
O50_3 V17_3 1_555 1_555
O51_3 V17_3 1_555 1_555
O52_3 V17_3 1_555 1_555
O65_3 V22_3 1_555 1_555
O66_3 V22_3 1_555 1_555
O67_3 V22_3 1_555 1_555
O68_3 V23_3 1_555 1_555
O69_3 V23_3 1_555 1_555
O70_3 V23_3 1_555 1_555
O71_3 V24_3 1_555 1_555
O75_3 Ge8_3 1_555 1_555
O77_3 V26_3 1_555 1_555
O79_3 Co15_3 1_555 1_555
O83_3 Ge6_3 1_555 1_555
O86_3 V31_3 1_555 1_555
O93_3 Ge6_3 1_555 1_555
O97_3 Ge8_3 1_555 1_555
C29_3 N30_3 1_555 1_555
H135_3 C29_3 1_555 1_555
H136_3 C29_3 1_555 1_555
C30_3 N31_3 1_555 1_555
H137_3 C30_3 1_555 1_555
H138_3 C30_3 1_555 1_555
C31_3 N32_3 1_555 1_555
H139_3 C31_3 1_555 1_555
H140_3 C31_3 1_555 1_555
C32_3 N33_3 1_555 1_555
H141_3 C32_3 1_555 1_555
H142_3 C32_3 1_555 1_555
Ge6_3 O89_3 1_555 1_555
Ge8_3 O94_3 1_555 1_555
V23_3 O66_3 1_555 1_555
V24_3 O51_3 1_555 1_555
V24_3 O68_3 1_555 1_555
V24_3 O69_3 1_555 1_555
V26_3 O75_3 1_555 1_555
V28_3 O69_3 1_555 1_555
V28_3 O72_3 1_555 1_555
V28_3 O75_3 1_555 1_555
V28_3 O79_3 1_555 1_555
V31_3 O68_3 1_555 1_555
V31_3 O83_3 1_555 1_555
V31_3 O84_3 1_555 1_555
C29_3 C30_3 1_555 1_555
C31_3 C32_3 1_555 1_555
Co8_3 O90_3 1_555 1_555
Co11_3 O90_3 1_555 1_555
Co12_3 N26_3 1_555 1_555
Co16_3 N34_3 1_555 1_555
Ge5_3 O48_3 1_555 1_555
Ge7_3 O63_3 1_555 1_555
V18_3 O48_3 1_555 1_555
V19_3 O53_3 1_555 1_555
V20_3 O56_3 1_555 1_555
V21_3 O59_3 1_555 1_555
V25_3 O49_3 1_555 1_555
V27_3 O57_3 1_555 1_555
V29_3 O53_3 1_555 1_555
V30_3 O80_3 1_555 1_555
V32_3 O59_3 1_555 1_555
N22_3 Co11 1_555 1_555
H81_3 N22_3 1_555 1_555
H82_3 N22_3 1_555 1_555
N23_3 Co11 1_555 1_555
H83_3 N23_3 1_555 1_555
H84_3 N23_3 1_555 1_555
N25_3 Co11 1_555 1_555
N26_3 H89_3 1_555 1_555
H90_3 N26_3 1_555 1_555
N27_3 Co12_3 1_555 1_555
H91_3 N27_3 1_555 1_555
H92_3 N27_3 1_555 1_555
N28_3 Co12_3 1_555 1_555
H93_3 N28_3 1_555 1_555
H94_3 N28_3 1_555 1_555
N29_3 Co12_3 1_555 1_555
H95_3 N29_3 1_555 1_555
H96_3 N29_3 1_555 1_555
N34_3 H105_3 1_555 1_555
H106_3 N34_3 1_555 1_555
N35_3 Co16_3 1_555 1_555
H107_3 N35_3 1_555 1_555
H108_3 N35_3 1_555 1_555
N36_3 Co16_3 1_555 1_555
H109_3 N36_3 1_555 1_555
H110_3 N36_3 1_555 1_555
N37_3 Co16_3 1_555 1_555
H111_3 N37_3 1_555 1_555
H112_3 N37_3 1_555 1_555
O53_3 V18_3 1_555 1_555
O54_3 V18_3 1_555 1_555
O55_3 V18_3 1_555 1_555
O56_3 V19_3 1_555 1_555
O57_3 V19_3 1_555 1_555
O58_3 Co16_3 1_555 1_555
O59_3 V20_3 1_555 1_555
O60_3 V20_3 1_555 1_555
O61_3 V20_3 1_555 1_555
O62_3 V21_3 1_555 1_555
O63_3 V21_3 1_555 1_555
O64_3 Co11 1_555 1_555
O73_3 V25_3 1_555 1_555
O74_3 Co12_3 1_555 1_555
O76_3 Ge7_3 1_555 1_555
O78_3 V27_3 1_555 1_555
O80_3 Ge5_3 1_555 1_555
O81_3 V29_3 1_555 1_555
O82_3 V29_3 1_555 1_555
O85_3 V30_3 1_555 1_555
O88_3 Co12_3 1_555 1_555
O90_3 Ge5_3 1_555 1_555
O98_3 Co16_3 1_555 1_555
H113_3 O98_3 1_555 1_555
H114_3 O98_3 1_555 1_555
C22_3 N22_3 1_555 1_555
H121_3 C22_3 1_555 1_555
H122_3 C22_3 1_555 1_555
C23_3 N23_3 1_555 1_555
H123_3 C23_3 1_555 1_555
H124_3 C23_3 1_555 1_555
C25_3 N26_3 1_555 1_555
H127_3 C25_3 1_555 1_555
H128_3 C25_3 1_555 1_555
C26_3 N27_3 1_555 1_555
H129_3 C26_3 1_555 1_555
H130_3 C26_3 1_555 1_555
C27_3 N28_3 1_555 1_555
H131_3 C27_3 1_555 1_555
H132_3 C27_3 1_555 1_555
C28_3 N29_3 1_555 1_555
H133_3 C28_3 1_555 1_555
H134_3 C28_3 1_555 1_555
C33_3 N34_3 1_555 1_555
H143_3 C33_3 1_555 1_555
H144_3 C33_3 1_555 1_555
C34_3 N35_3 1_555 1_555
H145_3 C34_3 1_555 1_555
H146_3 C34_3 1_555 1_555
C35_3 N36_3 1_555 1_555
H147_3 C35_3 1_555 1_555
H148_3 C35_3 1_555 1_555
C36_3 N37_3 1_555 1_555
H149_3 C36_3 1_555 1_555
H150_3 C36_3 1_555 1_555
O99_3 V32_3 1_555 1_555
Co11 O96_2 1_555 1_555
Ge7_3 O96_2 1_555 1_555
V18_3 O49_3 1_555 1_555
V19_3 O54_3 1_555 1_555
V19_3 O58_3 1_555 1_555
V20_3 O57_3 1_555 1_555
V21_3 O60_3 1_555 1_555
V21_3 O64_3 1_555 1_555
V25_3 O54_3 1_555 1_555
V25_3 O74_3 1_555 1_555
V27_3 O60_3 1_555 1_555
V27_3 O73_3 1_555 1_555
V27_3 O76_3 1_555 1_555
V29_3 O56_3 1_555 1_555
V29_3 O80_3 1_555 1_555
V30_3 O81_3 1_555 1_555
V32_3 O62_3 1_555 1_555
V32_3 O81_3 1_555 1_555
C22_3 C23_3 1_555 1_555
C25_3 C26_3 1_555 1_555
C27_3 C28_3 1_555 1_555
C33_3 C34_3 1_555 1_555
C35_3 C36_3 1_555 1_555
N25_3 H151_4 1_555 1_555
Co6_2 N19_3 1_555 1_555
Co15_4 N30_4 1_555 1_555
Ge6_4 O50_4 1_555 1_555
Ge8_4 O66_4 1_555 1_555
V23_4 O65_4 1_555 1_555
V24_4 O50_4 1_555 1_555
V26_4 O72_4 1_555 1_555
V28_4 O51_4 1_555 1_555
V31_4 O65_4 1_555 1_555
N19_3 H75_3 1_555 1_555
H76_3 N19_3 1_555 1_555
N20_3 Co6_2 1_555 1_555
H77_3 N20_3 1_555 1_555
H78_3 N20_3 1_555 1_555
N21_3 Co6_2 1_555 1_555
H79_3 N21_3 1_555 1_555
H80_3 N21_3 1_555 1_555
N30_4 H97_4 1_555 1_555
H98_4 N30_4 1_555 1_555
N31_4 Co15_4 1_555 1_555
H99_4 N31_4 1_555 1_555
H100_4 N31_4 1_555 1_555
N32_4 Co15_4 1_555 1_555
H101_4 N32_4 1_555 1_555
H102_4 N32_4 1_555 1_555
N33_4 Co15_4 1_555 1_555
H103_4 N33_4 1_555 1_555
H104_4 N33_4 1_555 1_555
O50_4 V17_4 1_555 1_555
O51_4 V17_4 1_555 1_555
O52_4 V17_4 1_555 1_555
O65_4 V22_4 1_555 1_555
O66_4 V22_4 1_555 1_555
O67_4 V22_4 1_555 1_555
O68_4 V23_4 1_555 1_555
O69_4 V23_4 1_555 1_555
O70_4 V23_4 1_555 1_555
O71_4 V24_4 1_555 1_555
O75_4 Ge8_4 1_555 1_555
O77_4 V26_4 1_555 1_555
O79_4 Co15_4 1_555 1_555
O83_4 Ge6_4 1_555 1_555
O87_3 V31_4 1_555 1_555
O92_2 Co6_2 1_555 1_555
O93_4 Ge6_4 1_555 1_555
O96_3 Co6_2 1_555 1_555
O97_4 Ge8_4 1_555 1_555
C19_3 N19_3 1_555 1_555
H115_3 C19_3 1_555 1_555
H116_3 C19_3 1_555 1_555
C20_3 N20_3 1_555 1_555
H117_3 C20_3 1_555 1_555
H118_3 C20_3 1_555 1_555
H119_3 C21_3 1_555 1_555
C29_4 N30_4 1_555 1_555
H135_4 C29_4 1_555 1_555
H136_4 C29_4 1_555 1_555
C30_4 N31_4 1_555 1_555
H137_4 C30_4 1_555 1_555
H138_4 C30_4 1_555 1_555
C31_4 N32_4 1_555 1_555
H139_4 C31_4 1_555 1_555
H140_4 C31_4 1_555 1_555
C32_4 N33_4 1_555 1_555
H141_4 C32_4 1_555 1_555
H142_4 C32_4 1_555 1_555
Ge6_4 O89_4 1_555 1_555
Ge8_4 O94_4 1_555 1_555
V23_4 O66_4 1_555 1_555
V24_4 O51_4 1_555 1_555
V24_4 O68_4 1_555 1_555
V24_4 O69_4 1_555 1_555
V26_4 O75_4 1_555 1_555
V28_4 O69_4 1_555 1_555
V28_4 O72_4 1_555 1_555
V28_4 O75_4 1_555 1_555
V28_4 O79_4 1_555 1_555
V31_4 O68_4 1_555 1_555
V31_4 O83_4 1_555 1_555
V31_4 O84_4 1_555 1_555
N21_3 C21_3 1_555 1_555
C19_3 C20_3 1_555 1_555
C29_4 C30_4 1_555 1_555
C31_4 C32_4 1_555 1_555
Co1_3 N1_3 1_555 1_555
Co2_3 N4_4 1_555 1_555
Co13_2 N7_4 1_555 1_555
Co4_4 N11_4 1_555 1_555
Co5_4 N15_4 1_555 1_555
Ge1_4 O1_4 1_555 1_555
Ge2_4 O3_4 1_555 1_555
Ge3_4 O16_4 1_555 1_555
Ge4_4 O19_4 1_555 1_555
V1_4 O1_4 1_555 1_555
V2_4 O1_4 1_555 1_555
V3_4 O6_4 1_555 1_555
V4_4 O9_4 1_555 1_555
V5_4 O12_4 1_555 1_555
V6_4 O15_4 1_555 1_555
V7_4 O18_4 1_555 1_555
V8_4 O3_4 1_555 1_555
V9_4 O2_4 1_555 1_555
V10_4 O25_4 1_555 1_555
V11_4 O10_4 1_555 1_555
V12_4 O4_4 1_555 1_555
V13_4 O6_4 1_555 1_555
V14_4 O33_4 1_555 1_555
V15_4 O18_4 1_555 1_555
V16_4 O12_4 1_555 1_555
N1_3 H1_3 1_555 1_555
H2_3 N1_3 1_555 1_555
N2_3 Co1_3 1_555 1_555
H3_3 N2_3 1_555 1_555
H4_3 N2_3 1_555 1_555
N3_3 Co1_3 1_555 1_555
H5_3 N3_3 1_555 1_555
H6_3 N3_3 1_555 1_555
N4_4 H7_4 1_555 1_555
H8_4 N4_4 1_555 1_555
N5_4 Co2_3 1_555 1_555
H9_4 N5_4 1_555 1_555
H10_4 N5_4 1_555 1_555
N6_3 Co2_3 1_555 1_555
H11_3 N6_3 1_555 1_555
H12_3 N6_3 1_555 1_555
N7_4 H13_4 1_555 1_555
H14_4 N7_4 1_555 1_555
N8_4 Co13_2 1_555 1_555
H15_4 N8_4 1_555 1_555
H16_4 N8_4 1_555 1_555
N9_4 Co13_2 1_555 1_555
H17_4 N9_4 1_555 1_555
H18_4 N9_4 1_555 1_555
N10_4 Co13_2 1_555 1_555
H19_4 N10_4 1_555 1_555
H20_4 N10_4 1_555 1_555
N11_4 H21_4 1_555 1_555
H22_4 N11_4 1_555 1_555
N12_4 Co4_4 1_555 1_555
H23_4 N12_4 1_555 1_555
H24_4 N12_4 1_555 1_555
N13_4 Co4_4 1_555 1_555
H25_4 N13_4 1_555 1_555
H26_4 N13_4 1_555 1_555
N14_4 Co4_4 1_555 1_555
H27_4 N14_4 1_555 1_555
H28_4 N14_4 1_555 1_555
N15_4 H29_4 1_555 1_555
H30_4 N15_4 1_555 1_555
N16_4 Co5_4 1_555 1_555
H31_4 N16_4 1_555 1_555
H32_4 N16_4 1_555 1_555
N17_4 Co5_4 1_555 1_555
H33_4 N17_4 1_555 1_555
H34_4 N17_4 1_555 1_555
N18_4 Co5_4 1_555 1_555
H35_4 N18_4 1_555 1_555
H36_4 N18_4 1_555 1_555
O2_4 V1_4 1_555 1_555
O3_4 V1_4 1_555 1_555
O4_4 V1_4 1_555 1_555
O5_4 V1_4 1_555 1_555
O6_4 V2_4 1_555 1_555
O7_4 V2_4 1_555 1_555
O8_4 V2_4 1_555 1_555
O9_4 V3_4 1_555 1_555
O10_4 V3_4 1_555 1_555
O11_4 Co5_4 1_555 1_555
O12_4 V4_4 1_555 1_555
O13_4 V4_4 1_555 1_555
O14_4 V4_4 1_555 1_555
O15_4 V5_4 1_555 1_555
O16_4 V5_4 1_555 1_555
O17_4 Co2_3 1_555 1_555
O18_4 V6_4 1_555 1_555
O19_4 V6_4 1_555 1_555
O20_4 V6_4 1_555 1_555
O21_4 V7_4 1_555 1_555
O22_4 V7_4 1_555 1_555
O23_4 V7_4 1_555 1_555
O24_4 V8_4 1_555 1_555
O25_4 V9_4 1_555 1_555
O26_4 V9_4 1_555 1_555
O27_4 Co13_2 1_555 1_555
O28_4 Ge4_4 1_555 1_555
O29_4 Ge3_4 1_555 1_555
O30_4 V10_4 1_555 1_555
O31_4 V11_4 1_555 1_555
O32_4 Co4_4 1_555 1_555
O33_4 Ge1_4 1_555 1_555
O34_4 V13_4 1_555 1_555
O35_4 V13_4 1_555 1_555
O36_4 Ge2_4 1_555 1_555
O37_4 V14_4 1_555 1_555
O38_4 V14_4 1_555 1_555
O39_4 V15_4 1_555 1_555
O40_4 Ge1_4 1_555 1_555
O41_3 Co1_3 1_555 1_555
O42_4 Ge2_4 1_555 1_555
O43_4 Ge3_4 1_555 1_555
O44_3 Co2_3 1_555 1_555
O45_4 Ge4_4 1_555 1_555
O46_4 Co5_4 1_555 1_555
H37_4 O46_4 1_555 1_555
H38_4 O46_4 1_555 1_555
C1_3 N1_3 1_555 1_555
H39_3 C1_3 1_555 1_555
H40_3 C1_3 1_555 1_555
C2_3 N2_3 1_555 1_555
H41_3 C2_3 1_555 1_555
H42_3 C2_3 1_555 1_555
C3_3 N3_3 1_555 1_555
H43_3 C3_3 1_555 1_555
C4_4 N4_4 1_555 1_555
H45_4 C4_4 1_555 1_555
H46_4 C4_4 1_555 1_555
C5_4 N5_4 1_555 1_555
H47_4 C5_4 1_555 1_555
H48_4 C5_4 1_555 1_555
C6_3 N6_3 1_555 1_555
H49_3 C6_3 1_555 1_555
H50_3 C6_3 1_555 1_555
C7_4 N7_4 1_555 1_555
H51_4 C7_4 1_555 1_555
H52_4 C7_4 1_555 1_555
C8_4 N8_4 1_555 1_555
H53_4 C8_4 1_555 1_555
H54_4 C8_4 1_555 1_555
C9_4 N9_4 1_555 1_555
H55_4 C9_4 1_555 1_555
H56_4 C9_4 1_555 1_555
C10_4 N10_4 1_555 1_555
H57_4 C10_4 1_555 1_555
H58_4 C10_4 1_555 1_555
C11_4 N11_4 1_555 1_555
H59_4 C11_4 1_555 1_555
H60_4 C11_4 1_555 1_555
C12_4 N12_4 1_555 1_555
H61_4 C12_4 1_555 1_555
H62_4 C12_4 1_555 1_555
C13_4 N13_4 1_555 1_555
H63_4 C13_4 1_555 1_555
H64_4 C13_4 1_555 1_555
C14_4 N14_4 1_555 1_555
H65_4 C14_4 1_555 1_555
H66_4 C14_4 1_555 1_555
C15_4 N15_4 1_555 1_555
H67_4 C15_4 1_555 1_555
H68_4 C15_4 1_555 1_555
C16_4 N16_4 1_555 1_555
H69_4 C16_4 1_555 1_555
H70_4 C16_4 1_555 1_555
C17_4 N17_4 1_555 1_555
H71_4 C17_4 1_555 1_555
H72_4 C17_4 1_555 1_555
C18_4 N18_4 1_555 1_555
H73_4 C18_4 1_555 1_555
H74_4 C18_4 1_555 1_555
O47_4 V16_4 1_555 1_555
Co7_3 O44_3 1_555 1_555
Co8_4 O90_4 1_555 1_555
Co9_3 O41_3 1_555 1_555
Co10_2 N24_2 1_555 1_555
Co11_4 O90_4 1_555 1_555
Co14_3 N26_4 1_555 1_555
Co13_4 O39_4 1_555 1_555
Co16_4 N34_4 1_555 1_555
Ge5_4 O48_4 1_555 1_555
Ge7_4 O63_4 1_555 1_555
V18_4 O48_4 1_555 1_555
V19_4 O53_4 1_555 1_555
V20_4 O56_4 1_555 1_555
V21_4 O59_4 1_555 1_555
V25_4 O49_4 1_555 1_555
V27_4 O57_4 1_555 1_555
V29_4 O53_4 1_555 1_555
V30_4 O80_4 1_555 1_555
V32_4 O59_4 1_555 1_555
N22_4 Co9_3 1_555 1_555
H81_4 N22_4 1_555 1_555
H82_4 N22_4 1_555 1_555
N23_4 Co9_3 1_555 1_555
H83_4 N23_4 1_555 1_555
H84_4 N23_4 1_555 1_555
N24_2 H85_2 1_555 1_555
N25_4 Co9_3 1_555 1_555
H86_4 N25_4 1_555 1_555
H87_2 N24_2 1_555 1_555
H88_4 N25_4 1_555 1_555
N26_4 H89_4 1_555 1_555
H90_4 N26_4 1_555 1_555
N27_4 Co14_3 1_555 1_555
H91_4 N27_4 1_555 1_555
H92_4 N27_4 1_555 1_555
N28_4 Co14_3 1_555 1_555
H93_4 N28_4 1_555 1_555
H94_4 N28_4 1_555 1_555
N29_4 Co14_3 1_555 1_555
H95_4 N29_4 1_555 1_555
H96_4 N29_4 1_555 1_555
N34_4 H105_4 1_555 1_555
H106_4 N34_4 1_555 1_555
N35_4 Co16_4 1_555 1_555
H107_4 N35_4 1_555 1_555
H108_4 N35_4 1_555 1_555
N36_4 Co16_4 1_555 1_555
H109_4 N36_4 1_555 1_555
H110_4 N36_4 1_555 1_555
N37_4 Co16_4 1_555 1_555
H111_4 N37_4 1_555 1_555
H112_4 N37_4 1_555 1_555
O53_4 V18_4 1_555 1_555
O54_4 V18_4 1_555 1_555
O55_4 V18_4 1_555 1_555
O56_4 V19_4 1_555 1_555
O57_4 V19_4 1_555 1_555
O58_4 Co16_4 1_555 1_555
O59_4 V20_4 1_555 1_555
O60_4 V20_4 1_555 1_555
O61_4 V20_4 1_555 1_555
O62_4 V21_4 1_555 1_555
O63_4 V21_4 1_555 1_555
O64_4 Co9_3 1_555 1_555
O73_4 V25_4 1_555 1_555
O74_4 Co14_3 1_555 1_555
O76_4 Ge7_4 1_555 1_555
O78_4 V27_4 1_555 1_555
O80_4 Ge5_4 1_555 1_555
O81_4 V29_4 1_555 1_555
O82_4 V29_4 1_555 1_555
O85_4 V30_4 1_555 1_555
O90_4 Ge5_4 1_555 1_555
O91_3 Co2_3 1_555 1_555
O95_3 Co1_3 1_555 1_555
O98_4 Co16_4 1_555 1_555
H113_4 O98_4 1_555 1_555
H114_4 O98_4 1_555 1_555
C22_4 N22_4 1_555 1_555
H121_4 C22_4 1_555 1_555
H122_4 C22_4 1_555 1_555
C23_4 N23_4 1_555 1_555
H123_4 C23_4 1_555 1_555
H124_4 C23_4 1_555 1_555
C24_3 C6_3 1_555 1_555
H125_3 C24_3 1_555 1_555
H126_3 C24_3 1_555 1_555
C25_4 N26_4 1_555 1_555
H127_4 C25_4 1_555 1_555
H128_4 C25_4 1_555 1_555
C26_4 N27_4 1_555 1_555
H129_4 C26_4 1_555 1_555
H130_4 C26_4 1_555 1_555
C27_4 N28_4 1_555 1_555
H131_4 C27_4 1_555 1_555
H132_4 C27_4 1_555 1_555
C28_4 N29_4 1_555 1_555
H133_4 C28_4 1_555 1_555
H134_4 C28_4 1_555 1_555
C33_4 N34_4 1_555 1_555
H143_4 C33_4 1_555 1_555
H144_4 C33_4 1_555 1_555
C34_4 N35_4 1_555 1_555
H145_4 C34_4 1_555 1_555
H146_4 C34_4 1_555 1_555
C35_4 N36_4 1_555 1_555
H147_4 C35_4 1_555 1_555
H148_4 C35_4 1_555 1_555
C36_4 N37_4 1_555 1_555
H149_4 C36_4 1_555 1_555
H150_4 C36_4 1_555 1_555
O99_4 V32_4 1_555 1_555
Ge1_4 O41_3 1_555 1_555
Ge2_4 O40_4 1_555 1_555
Ge3_4 O44_3 1_555 1_555
Ge4_4 O43_4 1_555 1_555
V2_4 O2_4 1_555 1_555
V3_4 O7_4 1_555 1_555
V3_4 O11_4 1_555 1_555
V4_4 O10_4 1_555 1_555
V5_4 O13_4 1_555 1_555
V5_4 O17_4 1_555 1_555
V6_4 O16_4 1_555 1_555
V7_4 O19_4 1_555 1_555
V8_4 O4_4 1_555 1_555
V8_4 O21_4 1_555 1_555
V8_4 O22_4 1_555 1_555
V9_4 O7_4 1_555 1_555
V9_4 O27_4 1_555 1_555
V10_4 O26_4 1_555 1_555
V10_4 O28_4 1_555 1_555
V10_4 O29_4 1_555 1_555
V11_4 O13_4 1_555 1_555
V11_4 O26_4 1_555 1_555
V11_4 O29_4 1_555 1_555
V12_4 O22_4 1_555 1_555
V12_4 O25_4 1_555 1_555
V12_4 O28_4 1_555 1_555
V12_4 O32_4 1_555 1_555
V13_4 O9_4 1_555 1_555
V13_4 O33_4 1_555 1_555
V14_4 O34_4 1_555 1_555
V14_4 O36_4 1_555 1_555
V15_4 O21_4 1_555 1_555
V15_4 O36_4 1_555 1_555
V15_4 O37_4 1_555 1_555
V16_4 O15_4 1_555 1_555
V16_4 O34_4 1_555 1_555
V16_4 O37_4 1_555 1_555
C1_3 C2_3 1_555 1_555
C4_4 C5_4 1_555 1_555
C7_4 C8_4 1_555 1_555
C9_4 C10_4 1_555 1_555
C11_4 C12_4 1_555 1_555
C13_4 C14_4 1_555 1_555
C15_4 C16_4 1_555 1_555
C17_4 C18_4 1_555 1_555
Co7_3 O91_3 1_555 1_555
Co9_3 O95_3 1_555 1_555
Ge7_4 O95_3 1_555 1_555
V18_4 O49_4 1_555 1_555
V19_4 O54_4 1_555 1_555
V19_4 O58_4 1_555 1_555
V20_4 O57_4 1_555 1_555
V21_4 O60_4 1_555 1_555
V21_4 O64_4 1_555 1_555
V25_4 O54_4 1_555 1_555
V25_4 O74_4 1_555 1_555
V27_4 O60_4 1_555 1_555
V27_4 O73_4 1_555 1_555
V27_4 O76_4 1_555 1_555
V29_4 O56_4 1_555 1_555
V29_4 O80_4 1_555 1_555
V30_4 O81_4 1_555 1_555
V32_4 O62_4 1_555 1_555
V32_4 O81_4 1_555 1_555
N24_2 C24_3 1_555 1_555
C22_4 C23_4 1_555 1_555
C25_4 C26_4 1_555 1_555
C27_4 C28_4 1_555 1_555
C33_4 C34_4 1_555 1_555
C35_4 C36_4 1_555 1_555
N25_4 H151_5 1_555 1_555
Co10_2 N4_5 1_555 1_555
Co14 N7_5 1_555 1_555
Co4_5 N11_5 1_555 1_555
Co5_5 N15_5 1_555 1_555
Ge1_5 O1_5 1_555 1_555
Ge2_5 O3_5 1_555 1_555
Ge3_5 O16_5 1_555 1_555
Ge4_5 O19_5 1_555 1_555
V1_5 O1_5 1_555 1_555
V2_5 O1_5 1_555 1_555
V3_5 O6_5 1_555 1_555
V4_5 O9_5 1_555 1_555
V5_5 O12_5 1_555 1_555
V6_5 O15_5 1_555 1_555
V7_5 O18_5 1_555 1_555
V8_5 O3_5 1_555 1_555
V9_5 O2_5 1_555 1_555
V10_5 O25_5 1_555 1_555
V11_5 O10_5 1_555 1_555
V12_5 O4_5 1_555 1_555
V13_5 O6_5 1_555 1_555
V14_5 O33_5 1_555 1_555
V15_5 O18_5 1_555 1_555
V16_5 O12_5 1_555 1_555
N4_5 H7_5 1_555 1_555
H8_5 N4_5 1_555 1_555
N5_5 Co10_2 1_555 1_555
H9_5 N5_5 1_555 1_555
H10_5 N5_5 1_555 1_555
N7_5 H13_5 1_555 1_555
H14_5 N7_5 1_555 1_555
N8_5 Co14 1_555 1_555
H15_5 N8_5 1_555 1_555
H16_5 N8_5 1_555 1_555
N9_5 Co14 1_555 1_555
H17_5 N9_5 1_555 1_555
H18_5 N9_5 1_555 1_555
N10_5 Co14 1_555 1_555
H19_5 N10_5 1_555 1_555
H20_5 N10_5 1_555 1_555
N11_5 H21_5 1_555 1_555
H22_5 N11_5 1_555 1_555
N12_5 Co4_5 1_555 1_555
H23_5 N12_5 1_555 1_555
H24_5 N12_5 1_555 1_555
N13_5 Co4_5 1_555 1_555
H25_5 N13_5 1_555 1_555
H26_5 N13_5 1_555 1_555
N14_5 Co4_5 1_555 1_555
H27_5 N14_5 1_555 1_555
H28_5 N14_5 1_555 1_555
N15_5 H29_5 1_555 1_555
H30_5 N15_5 1_555 1_555
N16_5 Co5_5 1_555 1_555
H31_5 N16_5 1_555 1_555
H32_5 N16_5 1_555 1_555
N17_5 Co5_5 1_555 1_555
H33_5 N17_5 1_555 1_555
H34_5 N17_5 1_555 1_555
N18_5 Co5_5 1_555 1_555
H35_5 N18_5 1_555 1_555
H36_5 N18_5 1_555 1_555
O2_5 V1_5 1_555 1_555
O3_5 V1_5 1_555 1_555
O4_5 V1_5 1_555 1_555
O5_5 V1_5 1_555 1_555
O6_5 V2_5 1_555 1_555
O7_5 V2_5 1_555 1_555
O8_5 V2_5 1_555 1_555
O9_5 V3_5 1_555 1_555
O10_5 V3_5 1_555 1_555
O11_5 Co5_5 1_555 1_555
O12_5 V4_5 1_555 1_555
O13_5 V4_5 1_555 1_555
O14_5 V4_5 1_555 1_555
O15_5 V5_5 1_555 1_555
O16_5 V5_5 1_555 1_555
O17_5 Co10_2 1_555 1_555
O18_5 V6_5 1_555 1_555
O19_5 V6_5 1_555 1_555
O20_5 V6_5 1_555 1_555
O21_5 V7_5 1_555 1_555
O22_5 V7_5 1_555 1_555
O23_5 V7_5 1_555 1_555
O24_5 V8_5 1_555 1_555
O25_5 V9_5 1_555 1_555
O26_5 V9_5 1_555 1_555
O27_5 Co14 1_555 1_555
O28_5 Ge4_5 1_555 1_555
O29_5 Ge3_5 1_555 1_555
O30_5 V10_5 1_555 1_555
O31_5 V11_5 1_555 1_555
O32_5 Co4_5 1_555 1_555
O33_5 Ge1_5 1_555 1_555
O34_5 V13_5 1_555 1_555
O35_5 V13_5 1_555 1_555
O36_5 Ge2_5 1_555 1_555
O37_5 V14_5 1_555 1_555
O38_5 V14_5 1_555 1_555
O39_5 V15_5 1_555 1_555
O40_5 Ge1_5 1_555 1_555
O42_5 Ge2_5 1_555 1_555
O43_5 Ge3_5 1_555 1_555
O44_4 Co10_2 1_555 1_555
O45_5 Ge4_5 1_555 1_555
O46_5 Co5_5 1_555 1_555
H37_5 O46_5 1_555 1_555
H38_5 O46_5 1_555 1_555
C4_5 N4_5 1_555 1_555
H45_5 C4_5 1_555 1_555
H46_5 C4_5 1_555 1_555
C5_5 N5_5 1_555 1_555
H47_5 C5_5 1_555 1_555
H48_5 C5_5 1_555 1_555
C7_5 N7_5 1_555 1_555
H51_5 C7_5 1_555 1_555
H52_5 C7_5 1_555 1_555
C8_5 N8_5 1_555 1_555
H53_5 C8_5 1_555 1_555
H54_5 C8_5 1_555 1_555
C9_5 N9_5 1_555 1_555
H55_5 C9_5 1_555 1_555
H56_5 C9_5 1_555 1_555
C10_5 N10_5 1_555 1_555
H57_5 C10_5 1_555 1_555
H58_5 C10_5 1_555 1_555
C11_5 N11_5 1_555 1_555
H59_5 C11_5 1_555 1_555
H60_5 C11_5 1_555 1_555
C12_5 N12_5 1_555 1_555
H61_5 C12_5 1_555 1_555
H62_5 C12_5 1_555 1_555
C13_5 N13_5 1_555 1_555
H63_5 C13_5 1_555 1_555
H64_5 C13_5 1_555 1_555
C14_5 N14_5 1_555 1_555
H65_5 C14_5 1_555 1_555
H66_5 C14_5 1_555 1_555
C15_5 N15_5 1_555 1_555
H67_5 C15_5 1_555 1_555
H68_5 C15_5 1_555 1_555
C16_5 N16_5 1_555 1_555
H69_5 C16_5 1_555 1_555
H70_5 C16_5 1_555 1_555
C17_5 N17_5 1_555 1_555
H71_5 C17_5 1_555 1_555
H72_5 C17_5 1_555 1_555
C18_5 N18_5 1_555 1_555
H73_5 C18_5 1_555 1_555
H74_5 C18_5 1_555 1_555
O47_5 V16_5 1_555 1_555
Co7_4 O44_4 1_555 1_555
Co8_5 O90_5 1_555 1_555
Co9_4 O92_2 1_555 1_555
Co11_5 O90_5 1_555 1_555
Co14_2 N26_5 1_555 1_555
Co13_5 O39_5 1_555 1_555
Co16_5 N34_5 1_555 1_555
Ge5_5 O48_5 1_555 1_555
Ge7_5 O63_5 1_555 1_555
V18_5 O48_5 1_555 1_555
V19_5 O53_5 1_555 1_555
V20_5 O56_5 1_555 1_555
V21_5 O59_5 1_555 1_555
V25_5 O49_5 1_555 1_555
V27_5 O57_5 1_555 1_555
V29_5 O53_5 1_555 1_555
V30_5 O80_5 1_555 1_555
V32_5 O59_5 1_555 1_555
N22_5 Co9_4 1_555 1_555
H81_5 N22_5 1_555 1_555
H82_5 N22_5 1_555 1_555
N23_5 Co9_4 1_555 1_555
H83_5 N23_5 1_555 1_555
H84_5 N23_5 1_555 1_555
N25_5 Co9_4 1_555 1_555
H86_5 N25_5 1_555 1_555
H88_5 N25_5 1_555 1_555
N26_5 H89_5 1_555 1_555
H90_5 N26_5 1_555 1_555
N27_5 Co14_2 1_555 1_555
H91_5 N27_5 1_555 1_555
H92_5 N27_5 1_555 1_555
N28_5 Co14_2 1_555 1_555
H93_5 N28_5 1_555 1_555
H94_5 N28_5 1_555 1_555
N29_5 Co14_2 1_555 1_555
H95_5 N29_5 1_555 1_555
H96_5 N29_5 1_555 1_555
N34_5 H105_5 1_555 1_555
H106_5 N34_5 1_555 1_555
N35_5 Co16_5 1_555 1_555
H107_5 N35_5 1_555 1_555
H108_5 N35_5 1_555 1_555
N36_5 Co16_5 1_555 1_555
H109_5 N36_5 1_555 1_555
H110_5 N36_5 1_555 1_555
N37_5 Co16_5 1_555 1_555
H111_5 N37_5 1_555 1_555
H112_5 N37_5 1_555 1_555
O53_5 V18_5 1_555 1_555
O54_5 V18_5 1_555 1_555
O55_5 V18_5 1_555 1_555
O56_5 V19_5 1_555 1_555
O57_5 V19_5 1_555 1_555
O58_5 Co16_5 1_555 1_555
O59_5 V20_5 1_555 1_555
O60_5 V20_5 1_555 1_555
O61_5 V20_5 1_555 1_555
O62_5 V21_5 1_555 1_555
O63_5 V21_5 1_555 1_555
O64_5 Co9_4 1_555 1_555
O73_5 V25_5 1_555 1_555
O74_5 Co14_2 1_555 1_555
O76_5 Ge7_5 1_555 1_555
O78_5 V27_5 1_555 1_555
O80_5 Ge5_5 1_555 1_555
O81_5 V29_5 1_555 1_555
O82_5 V29_5 1_555 1_555
O85_5 V30_5 1_555 1_555
O90_5 Ge5_5 1_555 1_555
O91_4 Co10_2 1_555 1_555
O98_5 Co16_5 1_555 1_555
H113_5 O98_5 1_555 1_555
H114_5 O98_5 1_555 1_555
C22_5 N22_5 1_555 1_555
H121_5 C22_5 1_555 1_555
H122_5 C22_5 1_555 1_555
C23_5 N23_5 1_555 1_555
H123_5 C23_5 1_555 1_555
H124_5 C23_5 1_555 1_555
C25_5 N26_5 1_555 1_555
H127_5 C25_5 1_555 1_555
H128_5 C25_5 1_555 1_555
C26_5 N27_5 1_555 1_555
H129_5 C26_5 1_555 1_555
H130_5 C26_5 1_555 1_555
C27_5 N28_5 1_555 1_555
H131_5 C27_5 1_555 1_555
H132_5 C27_5 1_555 1_555
C28_5 N29_5 1_555 1_555
H133_5 C28_5 1_555 1_555
H134_5 C28_5 1_555 1_555
C33_5 N34_5 1_555 1_555
H143_5 C33_5 1_555 1_555
H144_5 C33_5 1_555 1_555
C34_5 N35_5 1_555 1_555
H145_5 C34_5 1_555 1_555
H146_5 C34_5 1_555 1_555
C35_5 N36_5 1_555 1_555
H147_5 C35_5 1_555 1_555
H148_5 C35_5 1_555 1_555
C36_5 N37_5 1_555 1_555
H149_5 C36_5 1_555 1_555
H150_5 C36_5 1_555 1_555
O99_5 V32_5 1_555 1_555
Ge1_5 O92_2 1_555 1_555
Ge2_5 O40_5 1_555 1_555
Ge3_5 O44_4 1_555 1_555
Ge4_5 O43_5 1_555 1_555
V2_5 O2_5 1_555 1_555
V3_5 O7_5 1_555 1_555
V3_5 O11_5 1_555 1_555
V4_5 O10_5 1_555 1_555
V5_5 O13_5 1_555 1_555
V5_5 O17_5 1_555 1_555
V6_5 O16_5 1_555 1_555
V7_5 O19_5 1_555 1_555
V8_5 O4_5 1_555 1_555
V8_5 O21_5 1_555 1_555
V8_5 O22_5 1_555 1_555
V9_5 O7_5 1_555 1_555
V9_5 O27_5 1_555 1_555
V10_5 O26_5 1_555 1_555
V10_5 O28_5 1_555 1_555
V10_5 O29_5 1_555 1_555
V11_5 O13_5 1_555 1_555
V11_5 O26_5 1_555 1_555
V11_5 O29_5 1_555 1_555
V12_5 O22_5 1_555 1_555
V12_5 O25_5 1_555 1_555
V12_5 O28_5 1_555 1_555
V12_5 O32_5 1_555 1_555
V13_5 O9_5 1_555 1_555
V13_5 O33_5 1_555 1_555
V14_5 O34_5 1_555 1_555
V14_5 O36_5 1_555 1_555
V15_5 O21_5 1_555 1_555
V15_5 O36_5 1_555 1_555
V15_5 O37_5 1_555 1_555
V16_5 O15_5 1_555 1_555
V16_5 O34_5 1_555 1_555
V16_5 O37_5 1_555 1_555
C4_5 C5_5 1_555 1_555
C7_5 C8_5 1_555 1_555
C9_5 C10_5 1_555 1_555
C11_5 C12_5 1_555 1_555
C13_5 C14_5 1_555 1_555
C15_5 C16_5 1_555 1_555
C17_5 C18_5 1_555 1_555
Co7_4 O91_4 1_555 1_555
Co9_4 O96_3 1_555 1_555
Ge7_5 O96_3 1_555 1_555
V18_5 O49_5 1_555 1_555
V19_5 O54_5 1_555 1_555
V19_5 O58_5 1_555 1_555
V20_5 O57_5 1_555 1_555
V21_5 O60_5 1_555 1_555
V21_5 O64_5 1_555 1_555
V25_5 O54_5 1_555 1_555
V25_5 O74_5 1_555 1_555
V27_5 O60_5 1_555 1_555
V27_5 O73_5 1_555 1_555
V27_5 O76_5 1_555 1_555
V29_5 O56_5 1_555 1_555
V29_5 O80_5 1_555 1_555
V30_5 O81_5 1_555 1_555
V32_5 O62_5 1_555 1_555
V32_5 O81_5 1_555 1_555
C22_5 C23_5 1_555 1_555
C25_5 C26_5 1_555 1_555
C27_5 C28_5 1_555 1_555
C33_5 C34_5 1_555 1_555
C35_5 C36_5 1_555 1_555
N25_5 H151_6 1_555 1_555
Co15_5 N30_5 1_555 1_555
Ge6_5 O50_5 1_555 1_555
Ge8_5 O66_5 1_555 1_555
V23_5 O65_5 1_555 1_555
V24_5 O50_5 1_555 1_555
V26_5 O72_5 1_555 1_555
V28_5 O51_5 1_555 1_555
V31_5 O65_5 1_555 1_555
N30_5 H97_5 1_555 1_555
H98_5 N30_5 1_555 1_555
N31_5 Co15_5 1_555 1_555
H99_5 N31_5 1_555 1_555
H100_5 N31_5 1_555 1_555
N32_5 Co15_5 1_555 1_555
H101_5 N32_5 1_555 1_555
H102_5 N32_5 1_555 1_555
N33_5 Co15_5 1_555 1_555
H103_5 N33_5 1_555 1_555
H104_5 N33_5 1_555 1_555
O50_5 V17_5 1_555 1_555
O51_5 V17_5 1_555 1_555
O52_5 V17_5 1_555 1_555
O65_5 V22_5 1_555 1_555
O66_5 V22_5 1_555 1_555
O67_5 V22_5 1_555 1_555
O68_5 V23_5 1_555 1_555
O69_5 V23_5 1_555 1_555
O70_5 V23_5 1_555 1_555
O71_5 V24_5 1_555 1_555
O75_5 Ge8_5 1_555 1_555
O77_5 V26_5 1_555 1_555
O79_5 Co15_5 1_555 1_555
O83_5 Ge6_5 1_555 1_555
O87 V31_5 1_555 1_555
O93_5 Ge6_5 1_555 1_555
O97_5 Ge8_5 1_555 1_555
C29_5 N30_5 1_555 1_555
H135_5 C29_5 1_555 1_555
H136_5 C29_5 1_555 1_555
C30_5 N31_5 1_555 1_555
H137_5 C30_5 1_555 1_555
H138_5 C30_5 1_555 1_555
C31_5 N32_5 1_555 1_555
H139_5 C31_5 1_555 1_555
H140_5 C31_5 1_555 1_555
C32_5 N33_5 1_555 1_555
H141_5 C32_5 1_555 1_555
H142_5 C32_5 1_555 1_555
Ge6_5 O89_5 1_555 1_555
Ge8_5 O94_5 1_555 1_555
V23_5 O66_5 1_555 1_555
V24_5 O51_5 1_555 1_555
V24_5 O68_5 1_555 1_555
V24_5 O69_5 1_555 1_555
V26_5 O75_5 1_555 1_555
V28_5 O69_5 1_555 1_555
V28_5 O72_5 1_555 1_555
V28_5 O75_5 1_555 1_555
V28_5 O79_5 1_555 1_555
V31_5 O68_5 1_555 1_555
V31_5 O83_5 1_555 1_555
V31_5 O84_5 1_555 1_555
C29_5 C30_5 1_555 1_555
C31_5 C32_5 1_555 1_555
Co10_3 N24_3 1_555 1_555
H125_4 C24_4 1_555 1_555
H126_4 C24_4 1_555 1_555
N24_3 C24_4 1_555 1_555
Co7_4 N1_4 1_555 1_555
Ge1_6 O1_6 1_555 1_555
Ge2_6 O3_6 1_555 1_555
V1_6 O1_6 1_555 1_555
V2_6 O1_6 1_555 1_555
V3_6 O6_6 1_555 1_555
V4_6 O9_6 1_555 1_555
V5_6 O12_6 1_555 1_555
V6_6 O15_6 1_555 1_555
V7_6 O18_6 1_555 1_555
V8_6 O3_6 1_555 1_555
V13_6 O6_6 1_555 1_555
V14_6 O33_6 1_555 1_555
V15_6 O18_6 1_555 1_555
V16_6 O12_6 1_555 1_555
N1_4 H1_4 1_555 1_555
H2_4 N1_4 1_555 1_555
N2_4 Co7_4 1_555 1_555
H3_4 N2_4 1_555 1_555
H4_4 N2_4 1_555 1_555
N3_4 Co7_4 1_555 1_555
H5_4 N3_4 1_555 1_555
H6_4 N3_4 1_555 1_555
N17_6 Co5_6 1_555 1_555
H33_6 N17_6 1_555 1_555
H34_6 N17_6 1_555 1_555
N18_6 Co5_6 1_555 1_555
H35_6 N18_6 1_555 1_555
H36_6 N18_6 1_555 1_555
O2_6 V1_6 1_555 1_555
O3_6 V1_6 1_555 1_555
O4_6 V1_6 1_555 1_555
O5_6 V1_6 1_555 1_555
O6_6 V2_6 1_555 1_555
O7_6 V2_6 1_555 1_555
O8_6 V2_6 1_555 1_555
O9_6 V3_6 1_555 1_555
O11_6 Co5_6 1_555 1_555
O12_6 V4_6 1_555 1_555
O14_6 V4_6 1_555 1_555
O15_6 V5_6 1_555 1_555
O18_6 V6_6 1_555 1_555
O20_6 V6_6 1_555 1_555
O21_6 V7_6 1_555 1_555
O22_6 V7_6 1_555 1_555
O23_6 V7_6 1_555 1_555
O24_6 V8_6 1_555 1_555
O33_6 Ge1_6 1_555 1_555
O34_6 V13_6 1_555 1_555
O35_6 V13_6 1_555 1_555
O36_6 Ge2_6 1_555 1_555
O37_6 V14_6 1_555 1_555
O38_6 V14_6 1_555 1_555
O88_3 V15_6 1_555 1_555
O40_6 Ge1_6 1_555 1_555
O42_6 Ge2_6 1_555 1_555
C1_4 N1_4 1_555 1_555
H39_4 C1_4 1_555 1_555
H40_4 C1_4 1_555 1_555
C2_4 N2_4 1_555 1_555
H41_4 C2_4 1_555 1_555
H42_4 C2_4 1_555 1_555
C3_4 N3_4 1_555 1_555
H43_4 C3_4 1_555 1_555
H44_4 C3_4 1_555 1_555
C17_6 N17_6 1_555 1_555
H71_6 C17_6 1_555 1_555
H72_6 C17_6 1_555 1_555
C18_6 N18_6 1_555 1_555
H73_6 C18_6 1_555 1_555
H74_6 C18_6 1_555 1_555
O47_6 V16_6 1_555 1_555
Co7_3 N19_4 1_555 1_555
N19_4 H75_4 1_555 1_555
H76_4 N19_4 1_555 1_555
N20_4 Co7_3 1_555 1_555
H77_4 N20_4 1_555 1_555
H78_4 N20_4 1_555 1_555
N21_4 Co7_3 1_555 1_555
H79_4 N21_4 1_555 1_555
H80_4 N21_4 1_555 1_555
C19_4 N19_4 1_555 1_555
H115_4 C19_4 1_555 1_555
H116_4 C19_4 1_555 1_555
C20_4 N20_4 1_555 1_555
H117_4 C20_4 1_555 1_555
H118_4 C20_4 1_555 1_555
C21_4 C3_4 1_555 1_555
H119_4 C21_4 1_555 1_555
H120_4 C21_4 1_555 1_555
Ge1_6 O91_4 1_555 1_555
Ge2_6 O40_6 1_555 1_555
V2_6 O2_6 1_555 1_555
V3_6 O7_6 1_555 1_555
V3_6 O11_6 1_555 1_555
V5_6 O17_6 1_555 1_555
V8_6 O4_6 1_555 1_555
V8_6 O21_6 1_555 1_555
V8_6 O22_6 1_555 1_555
V13_6 O9_6 1_555 1_555
V13_6 O33_6 1_555 1_555
V14_6 O34_6 1_555 1_555
V14_6 O36_6 1_555 1_555
V15_6 O21_6 1_555 1_555
V15_6 O36_6 1_555 1_555
V15_6 O37_6 1_555 1_555
V16_6 O15_6 1_555 1_555
V16_6 O34_6 1_555 1_555
V16_6 O37_6 1_555 1_555
C1_4 C2_4 1_555 1_555
C17_6 C18_6 1_555 1_555
N21_4 C21_4 1_555 1_555
C19_4 C20_4 1_555 1_555
N24_2 H151_7 1_555 1_555
Co2_4 N4_6 1_555 1_555
Co13_3 N7_6 1_555 1_555
Co4_6 N11_6 1_555 1_555
Ge3_6 O16_6 1_555 1_555
Ge4_6 O19_6 1_555 1_555
V10_6 O25_6 1_555 1_555
V11_6 O10_6 1_555 1_555
N4_6 H7_6 1_555 1_555
H8_6 N4_6 1_555 1_555
N5_6 Co2_4 1_555 1_555
H9_6 N5_6 1_555 1_555
H10_6 N5_6 1_555 1_555
N6_4 Co2_4 1_555 1_555
N7_6 H13_6 1_555 1_555
H14_6 N7_6 1_555 1_555
N8_6 Co13_3 1_555 1_555
H15_6 N8_6 1_555 1_555
H16_6 N8_6 1_555 1_555
N9_6 Co13_3 1_555 1_555
H17_6 N9_6 1_555 1_555
H18_6 N9_6 1_555 1_555
N10_6 Co13_3 1_555 1_555
H19_6 N10_6 1_555 1_555
H20_6 N10_6 1_555 1_555
N11_6 H21_6 1_555 1_555
H22_6 N11_6 1_555 1_555
N12_6 Co4_6 1_555 1_555
H23_6 N12_6 1_555 1_555
H24_6 N12_6 1_555 1_555
N13_6 Co4_6 1_555 1_555
H25_6 N13_6 1_555 1_555
H26_6 N13_6 1_555 1_555
N14_6 Co4_6 1_555 1_555
H27_6 N14_6 1_555 1_555
H28_6 N14_6 1_555 1_555
N15_6 H29_6 1_555 1_555
H30_6 N15_6 1_555 1_555
H31_6 N16_6 1_555 1_555
H32_6 N16_6 1_555 1_555
O25_6 V9_6 1_555 1_555
O26_6 V9_6 1_555 1_555
O27_6 Co13_3 1_555 1_555
O28_6 Ge4_6 1_555 1_555
O29_6 Ge3_6 1_555 1_555
O30_6 V10_6 1_555 1_555
O31_6 V11_6 1_555 1_555
O32_6 Co4_6 1_555 1_555
O43_6 Ge3_6 1_555 1_555
O44_5 Co2_4 1_555 1_555
O45_6 Ge4_6 1_555 1_555
H37_6 O46_6 1_555 1_555
H38_6 O46_6 1_555 1_555
C4_6 N4_6 1_555 1_555
H45_6 C4_6 1_555 1_555
H46_6 C4_6 1_555 1_555
C5_6 N5_6 1_555 1_555
C6_4 N6_4 1_555 1_555
H49_4 C6_4 1_555 1_555
H50_4 C6_4 1_555 1_555
C7_6 N7_6 1_555 1_555
H51_6 C7_6 1_555 1_555
C8_6 N8_6 1_555 1_555
H53_6 C8_6 1_555 1_555
H54_6 C8_6 1_555 1_555
C9_6 N9_6 1_555 1_555
H55_6 C9_6 1_555 1_555
H56_6 C9_6 1_555 1_555
C10_6 N10_6 1_555 1_555
H57_6 C10_6 1_555 1_555
H58_6 C10_6 1_555 1_555
C11_6 N11_6 1_555 1_555
H60_6 C11_6 1_555 1_555
C12_6 N12_6 1_555 1_555
H61_6 C12_6 1_555 1_555
H62_6 C12_6 1_555 1_555
C13_6 N13_6 1_555 1_555
H63_6 C13_6 1_555 1_555
H64_6 C13_6 1_555 1_555
C14_6 N14_6 1_555 1_555
H65_6 C14_6 1_555 1_555
H66_6 C14_6 1_555 1_555
C15_6 N15_6 1_555 1_555
H67_6 C15_6 1_555 1_555
H68_6 C15_6 1_555 1_555
C16_6 N16_6 1_555 1_555
H69_6 C16_6 1_555 1_555
H70_6 C16_6 1_555 1_555
Co7_5 O44_5 1_555 1_555
O91_5 Co2_4 1_555 1_555
Ge3_6 O44_5 1_555 1_555
Ge4_6 O43_6 1_555 1_555
V9_6 O27_6 1_555 1_555
V10_6 O26_6 1_555 1_555
V10_6 O28_6 1_555 1_555
V10_6 O29_6 1_555 1_555
V11_6 O13_6 1_555 1_555
V11_6 O26_6 1_555 1_555
V11_6 O29_6 1_555 1_555
V12_6 O25_6 1_555 1_555
V12_6 O28_6 1_555 1_555
V12_6 O32_6 1_555 1_555
C4_6 C5_6 1_555 1_555
C7_6 C8_6 1_555 1_555
C9_6 C10_6 1_555 1_555
C11_6 C12_6 1_555 1_555
C13_6 C14_6 1_555 1_555
C15_6 C16_6 1_555 1_555
Co7_5 O91_5 1_555 1_555
Ge1_7 O1_7 1_555 1_555
Ge2_7 O3_7 1_555 1_555
V1_7 O1_7 1_555 1_555
V2_7 O1_7 1_555 1_555
V3_7 O6_7 1_555 1_555
V4_7 O9_7 1_555 1_555
V5_7 O12_7 1_555 1_555
V6_7 O15_7 1_555 1_555
V7_7 O18_7 1_555 1_555
V8_7 O3_7 1_555 1_555
V13_7 O6_7 1_555 1_555
V14_7 O33_7 1_555 1_555
V15_7 O18_7 1_555 1_555
V16_7 O12_7 1_555 1_555
N17_7 Co5_7 1_555 1_555
H33_7 N17_7 1_555 1_555
H34_7 N17_7 1_555 1_555
N18_7 Co5_7 1_555 1_555
H35_7 N18_7 1_555 1_555
H36_7 N18_7 1_555 1_555
O2_7 V1_7 1_555 1_555
O3_7 V1_7 1_555 1_555
O4_7 V1_7 1_555 1_555
O5_7 V1_7 1_555 1_555
O6_7 V2_7 1_555 1_555
O7_7 V2_7 1_555 1_555
O8_7 V2_7 1_555 1_555
O9_7 V3_7 1_555 1_555
O11_7 Co5_7 1_555 1_555
O12_7 V4_7 1_555 1_555
O14_7 V4_7 1_555 1_555
O15_7 V5_7 1_555 1_555
O18_7 V6_7 1_555 1_555
O20_7 V6_7 1_555 1_555
O21_7 V7_7 1_555 1_555
O22_7 V7_7 1_555 1_555
O23_7 V7_7 1_555 1_555
O24_7 V8_7 1_555 1_555
O33_7 Ge1_7 1_555 1_555
O34_7 V13_7 1_555 1_555
O35_7 V13_7 1_555 1_555
O36_7 Ge2_7 1_555 1_555
O37_7 V14_7 1_555 1_555
O38_7 V14_7 1_555 1_555
O88_2 V15_7 1_555 1_555
O40_7 Ge1_7 1_555 1_555
O42_7 Ge2_7 1_555 1_555
C17_7 N17_7 1_555 1_555
H71_7 C17_7 1_555 1_555
H72_7 C17_7 1_555 1_555
C18_7 N18_7 1_555 1_555
H73_7 C18_7 1_555 1_555
H74_7 C18_7 1_555 1_555
O47_7 V16_7 1_555 1_555
Ge1_7 O91_3 1_555 1_555
Ge2_7 O40_7 1_555 1_555
V2_7 O2_7 1_555 1_555
V3_7 O7_7 1_555 1_555
V3_7 O11_7 1_555 1_555
V5_7 O17_7 1_555 1_555
V8_7 O4_7 1_555 1_555
V8_7 O21_7 1_555 1_555
V8_7 O22_7 1_555 1_555
V13_7 O9_7 1_555 1_555
V13_7 O33_7 1_555 1_555
V14_7 O34_7 1_555 1_555
V14_7 O36_7 1_555 1_555
V15_7 O21_7 1_555 1_555
V15_7 O36_7 1_555 1_555
V15_7 O37_7 1_555 1_555
V16_7 O15_7 1_555 1_555
V16_7 O34_7 1_555 1_555
V16_7 O37_7 1_555 1_555
C17_7 C18_7 1_555 1_555
N6_3 H151_8 1_555 1_555
Co10_3 N4_7 1_555 1_555
Co13 N7_7 1_555 1_555
Co4_7 N11_7 1_555 1_555
Ge3_7 O16_7 1_555 1_555
Ge4_7 O19_7 1_555 1_555
V10_7 O25_7 1_555 1_555
V11_7 O10_7 1_555 1_555
N4_7 H7_7 1_555 1_555
H8_7 N4_7 1_555 1_555
N5_7 Co10_3 1_555 1_555
H9_7 N5_7 1_555 1_555
H10_7 N5_7 1_555 1_555
N7_7 H13_7 1_555 1_555
H14_7 N7_7 1_555 1_555
N8_7 Co13 1_555 1_555
H15_7 N8_7 1_555 1_555
H16_7 N8_7 1_555 1_555
N9_7 Co13 1_555 1_555
H17_7 N9_7 1_555 1_555
H18_7 N9_7 1_555 1_555
N10_7 Co13 1_555 1_555
H19_7 N10_7 1_555 1_555
H20_7 N10_7 1_555 1_555
N11_7 H21_7 1_555 1_555
H22_7 N11_7 1_555 1_555
N12_7 Co4_7 1_555 1_555
H23_7 N12_7 1_555 1_555
H24_7 N12_7 1_555 1_555
N13_7 Co4_7 1_555 1_555
H25_7 N13_7 1_555 1_555
H26_7 N13_7 1_555 1_555
N14_7 Co4_7 1_555 1_555
H27_7 N14_7 1_555 1_555
H28_7 N14_7 1_555 1_555
N15_7 H29_7 1_555 1_555
H30_7 N15_7 1_555 1_555
H31_7 N16_7 1_555 1_555
H32_7 N16_7 1_555 1_555
O25_7 V9_7 1_555 1_555
O26_7 V9_7 1_555 1_555
O27_7 Co13 1_555 1_555
O28_7 Ge4_7 1_555 1_555
O29_7 Ge3_7 1_555 1_555
O30_7 V10_7 1_555 1_555
O31_7 V11_7 1_555 1_555
O32_7 Co4_7 1_555 1_555
O43_7 Ge3_7 1_555 1_555
O44_6 Co10_3 1_555 1_555
O45_7 Ge4_7 1_555 1_555
H37_7 O46_7 1_555 1_555
H38_7 O46_7 1_555 1_555
C4_7 N4_7 1_555 1_555
H45_7 C4_7 1_555 1_555
H46_7 C4_7 1_555 1_555
C5_7 N5_7 1_555 1_555
C7_7 N7_7 1_555 1_555
H51_7 C7_7 1_555 1_555
C8_7 N8_7 1_555 1_555
H53_7 C8_7 1_555 1_555
H54_7 C8_7 1_555 1_555
C9_7 N9_7 1_555 1_555
H55_7 C9_7 1_555 1_555
H56_7 C9_7 1_555 1_555
C10_7 N10_7 1_555 1_555
H57_7 C10_7 1_555 1_555
H58_7 C10_7 1_555 1_555
C11_7 N11_7 1_555 1_555
H60_7 C11_7 1_555 1_555
C12_7 N12_7 1_555 1_555
H61_7 C12_7 1_555 1_555
H62_7 C12_7 1_555 1_555
C13_7 N13_7 1_555 1_555
H63_7 C13_7 1_555 1_555
H64_7 C13_7 1_555 1_555
C14_7 N14_7 1_555 1_555
H65_7 C14_7 1_555 1_555
H66_7 C14_7 1_555 1_555
C15_7 N15_7 1_555 1_555
H67_7 C15_7 1_555 1_555
H68_7 C15_7 1_555 1_555
C16_7 N16_7 1_555 1_555
H69_7 C16_7 1_555 1_555
H70_7 C16_7 1_555 1_555
Co7_6 O44_6 1_555 1_555
O91_6 Co10_3 1_555 1_555
Ge3_7 O44_6 1_555 1_555
Ge4_7 O43_7 1_555 1_555
V9_7 O27_7 1_555 1_555
V10_7 O26_7 1_555 1_555
V10_7 O28_7 1_555 1_555
V10_7 O29_7 1_555 1_555
V11_7 O13_7 1_555 1_555
V11_7 O26_7 1_555 1_555
V11_7 O29_7 1_555 1_555
V12_7 O25_7 1_555 1_555
V12_7 O28_7 1_555 1_555
V12_7 O32_7 1_555 1_555
C4_7 C5_7 1_555 1_555
C7_7 C8_7 1_555 1_555
C9_7 C10_7 1_555 1_555
C11_7 C12_7 1_555 1_555
C13_7 C14_7 1_555 1_555
C15_7 C16_7 1_555 1_555
Co7_6 O91_6 1_555 1_555
Co8_2 N1_5 1_555 1_555
N1_5 H1_5 1_555 1_555
H2_5 N1_5 1_555 1_555
N2_5 Co8_2 1_555 1_555
H3_5 N2_5 1_555 1_555
H4_5 N2_5 1_555 1_555
N3_5 Co8_2 1_555 1_555
H5_5 N3_5 1_555 1_555
H6_5 N3_5 1_555 1_555
C1_5 N1_5 1_555 1_555
H39_5 C1_5 1_555 1_555
H40_5 C1_5 1_555 1_555
C2_5 N2_5 1_555 1_555
H41_5 C2_5 1_555 1_555
H42_5 C2_5 1_555 1_555
C3_5 N3_5 1_555 1_555
H43_5 C3_5 1_555 1_555
H44_5 C3_5 1_555 1_555
C6_5 N25_2 1_555 1_555
H49_5 C6_5 1_555 1_555
H50_5 C6_5 1_555 1_555
Co13_5 N26_6 1_555 1_555
Co14_4 O86_4 1_555 1_555
Co15_6 N30_6 1_555 1_555
Co16_6 N34_6 1_555 1_555
Ge5_6 O48_6 1_555 1_555
Ge6_6 O50_6 1_555 1_555
Ge7_6 O63_6 1_555 1_555
Ge8_6 O66_6 1_555 1_555
V17_6 O48_6 1_555 1_555
V18_6 O48_6 1_555 1_555
V19_6 O53_6 1_555 1_555
V20_6 O56_6 1_555 1_555
V21_6 O59_6 1_555 1_555
V22_6 O62_6 1_555 1_555
V23_6 O65_6 1_555 1_555
V24_6 O50_6 1_555 1_555
V25_6 O49_6 1_555 1_555
V26_6 O72_6 1_555 1_555
V27_6 O57_6 1_555 1_555
V28_6 O51_6 1_555 1_555
V29_6 O53_6 1_555 1_555
V30_6 O80_6 1_555 1_555
V31_6 O65_6 1_555 1_555
V32_6 O59_6 1_555 1_555
N22_6 Co11_2 1_555 1_555
H81_6 N22_6 1_555 1_555
H82_6 N22_6 1_555 1_555
N23_6 Co11_2 1_555 1_555
H83_6 N23_6 1_555 1_555
H84_6 N23_6 1_555 1_555
N25_6 Co11_2 1_555 1_555
N26_6 H89_6 1_555 1_555
H90_6 N26_6 1_555 1_555
N27_6 Co13_5 1_555 1_555
H91_6 N27_6 1_555 1_555
H92_6 N27_6 1_555 1_555
N28_6 Co13_5 1_555 1_555
H93_6 N28_6 1_555 1_555
H94_6 N28_6 1_555 1_555
N29_6 Co13_5 1_555 1_555
H95_6 N29_6 1_555 1_555
H96_6 N29_6 1_555 1_555
N30_6 H97_6 1_555 1_555
H98_6 N30_6 1_555 1_555
N31_6 Co15_6 1_555 1_555
H99_6 N31_6 1_555 1_555
H100_6 N31_6 1_555 1_555
N32_6 Co15_6 1_555 1_555
H101_6 N32_6 1_555 1_555
H102_6 N32_6 1_555 1_555
N33_6 Co15_6 1_555 1_555
H103_6 N33_6 1_555 1_555
H104_6 N33_6 1_555 1_555
N34_6 H105_6 1_555 1_555
H106_6 N34_6 1_555 1_555
N35_6 Co16_6 1_555 1_555
H107_6 N35_6 1_555 1_555
H108_6 N35_6 1_555 1_555
N36_6 Co16_6 1_555 1_555
H109_6 N36_6 1_555 1_555
H110_6 N36_6 1_555 1_555
N37_6 Co16_6 1_555 1_555
H111_6 N37_6 1_555 1_555
H112_6 N37_6 1_555 1_555
O49_6 V17_6 1_555 1_555
O50_6 V17_6 1_555 1_555
O51_6 V17_6 1_555 1_555
O52_6 V17_6 1_555 1_555
O53_6 V18_6 1_555 1_555
O54_6 V18_6 1_555 1_555
O55_6 V18_6 1_555 1_555
O56_6 V19_6 1_555 1_555
O57_6 V19_6 1_555 1_555
O58_6 Co16_6 1_555 1_555
O59_6 V20_6 1_555 1_555
O60_6 V20_6 1_555 1_555
O61_6 V20_6 1_555 1_555
O62_6 V21_6 1_555 1_555
O63_6 V21_6 1_555 1_555
O64_6 Co11_2 1_555 1_555
O65_6 V22_6 1_555 1_555
O66_6 V22_6 1_555 1_555
O67_6 V22_6 1_555 1_555
O68_6 V23_6 1_555 1_555
O69_6 V23_6 1_555 1_555
O70_6 V23_6 1_555 1_555
O71_6 V24_6 1_555 1_555
O72_6 V25_6 1_555 1_555
O73_6 V25_6 1_555 1_555
O74_6 Co13_5 1_555 1_555
O75_6 Ge8_6 1_555 1_555
O76_6 Ge7_6 1_555 1_555
O77_6 V26_6 1_555 1_555
O78_6 V27_6 1_555 1_555
O79_6 Co15_6 1_555 1_555
O80_6 Ge5_6 1_555 1_555
O81_6 V29_6 1_555 1_555
O82_6 V29_6 1_555 1_555
O83_6 Ge6_6 1_555 1_555
O84_6 V30_6 1_555 1_555
O85_6 V30_6 1_555 1_555
O86_4 V31_6 1_555 1_555
O89_6 Ge5_6 1_555 1_555
O91_2 Ge5_6 1_555 1_555
O93_6 Ge6_6 1_555 1_555
O94_6 Ge7_6 1_555 1_555
O95_4 Co8_2 1_555 1_555
O97_6 Ge8_6 1_555 1_555
O98_6 Co16_6 1_555 1_555
H113_6 O98_6 1_555 1_555
H114_6 O98_6 1_555 1_555
C22_6 N22_6 1_555 1_555
H121_6 C22_6 1_555 1_555
H122_6 C22_6 1_555 1_555
C23_6 N23_6 1_555 1_555
H123_6 C23_6 1_555 1_555
H124_6 C23_6 1_555 1_555
C25_6 N26_6 1_555 1_555
H127_6 C25_6 1_555 1_555
H128_6 C25_6 1_555 1_555
C26_6 N27_6 1_555 1_555
H129_6 C26_6 1_555 1_555
H130_6 C26_6 1_555 1_555
C27_6 N28_6 1_555 1_555
H131_6 C27_6 1_555 1_555
H132_6 C27_6 1_555 1_555
C28_6 N29_6 1_555 1_555
H133_6 C28_6 1_555 1_555
H134_6 C28_6 1_555 1_555
C29_6 N30_6 1_555 1_555
H135_6 C29_6 1_555 1_555
H136_6 C29_6 1_555 1_555
C30_6 N31_6 1_555 1_555
H137_6 C30_6 1_555 1_555
H138_6 C30_6 1_555 1_555
C31_6 N32_6 1_555 1_555
H139_6 C31_6 1_555 1_555
H140_6 C31_6 1_555 1_555
C32_6 N33_6 1_555 1_555
H141_6 C32_6 1_555 1_555
H142_6 C32_6 1_555 1_555
C33_6 N34_6 1_555 1_555
H143_6 C33_6 1_555 1_555
H144_6 C33_6 1_555 1_555
C34_6 N35_6 1_555 1_555
H145_6 C34_6 1_555 1_555
H146_6 C34_6 1_555 1_555
C35_6 N36_6 1_555 1_555
H147_6 C35_6 1_555 1_555
H148_6 C35_6 1_555 1_555
C36_6 N37_6 1_555 1_555
H149_6 C36_6 1_555 1_555
H150_6 C36_6 1_555 1_555
O99_6 V32_6 1_555 1_555
C1_5 C2_5 1_555 1_555
Co11_2 O95_4 1_555 1_555
Ge6_6 O89_6 1_555 1_555
Ge7_6 O95_4 1_555 1_555
Ge8_6 O94_6 1_555 1_555
V18_6 O49_6 1_555 1_555
V19_6 O54_6 1_555 1_555
V19_6 O58_6 1_555 1_555
V20_6 O57_6 1_555 1_555
V21_6 O60_6 1_555 1_555
V21_6 O64_6 1_555 1_555
V22_6 O63_6 1_555 1_555
V23_6 O66_6 1_555 1_555
V24_6 O51_6 1_555 1_555
V24_6 O68_6 1_555 1_555
V24_6 O69_6 1_555 1_555
V25_6 O54_6 1_555 1_555
V25_6 O74_6 1_555 1_555
V26_6 O73_6 1_555 1_555
V26_6 O75_6 1_555 1_555
V26_6 O76_6 1_555 1_555
V27_6 O60_6 1_555 1_555
V27_6 O73_6 1_555 1_555
V27_6 O76_6 1_555 1_555
V28_6 O69_6 1_555 1_555
V28_6 O72_6 1_555 1_555
V28_6 O75_6 1_555 1_555
V28_6 O79_6 1_555 1_555
V29_6 O56_6 1_555 1_555
V29_6 O80_6 1_555 1_555
V30_6 O81_6 1_555 1_555
V30_6 O83_6 1_555 1_555
V31_6 O68_6 1_555 1_555
V31_6 O83_6 1_555 1_555
V31_6 O84_6 1_555 1_555
V32_6 O62_6 1_555 1_555
V32_6 O81_6 1_555 1_555
V32_6 O84_6 1_555 1_555
C22_6 C23_6 1_555 1_555
C25_6 C26_6 1_555 1_555
C27_6 C28_6 1_555 1_555
C29_6 C30_6 1_555 1_555
C31_6 C32_6 1_555 1_555
C33_6 C34_6 1_555 1_555
C35_6 C36_6 1_555 1_555
N25_6 H151_9 1_555 1_555
Co8_3 N19_5 1_555 1_555
N19_5 H75_5 1_555 1_555
H76_5 N19_5 1_555 1_555
N20_5 Co8_3 1_555 1_555
H77_5 N20_5 1_555 1_555
H78_5 N20_5 1_555 1_555
N21_5 Co8_3 1_555 1_555
H79_5 N21_5 1_555 1_555
H80_5 N21_5 1_555 1_555
O96_4 Co8_3 1_555 1_555
C19_5 N19_5 1_555 1_555
H115_5 C19_5 1_555 1_555
H116_5 C19_5 1_555 1_555
C20_5 N20_5 1_555 1_555
H117_5 C20_5 1_555 1_555
H118_5 C20_5 1_555 1_555
H119_5 C21_5 1_555 1_555
H120_5 C21_5 1_555 1_555
N21_5 C21_5 1_555 1_555
C19_5 C20_5 1_555 1_555
H125_5 C24_5 1_555 1_555
H126_5 C24_5 1_555 1_555
N25_3 C24_5 1_555 1_555
H125_6 C24_6 1_555 1_555
H126_6 C24_6 1_555 1_555
N25_6 C24_6 1_555 1_555
Co7 N1_6 1_555 1_555
Co11_3 N4_8 1_555 1_555
Co13_4 N7_8 1_555 1_555
Co4_8 N11_8 1_555 1_555
Co5_8 N15_8 1_555 1_555
Ge1_8 O1_8 1_555 1_555
Ge2_8 O3_8 1_555 1_555
Ge3_8 O16_8 1_555 1_555
Ge4_8 O19_8 1_555 1_555
V1_8 O1_8 1_555 1_555
V2_8 O1_8 1_555 1_555
V3_8 O6_8 1_555 1_555
V4_8 O9_8 1_555 1_555
V5_8 O12_8 1_555 1_555
V6_8 O15_8 1_555 1_555
V7_8 O18_8 1_555 1_555
V8_8 O3_8 1_555 1_555
V9_8 O2_8 1_555 1_555
V10_8 O25_8 1_555 1_555
V11_8 O10_8 1_555 1_555
V12_8 O4_8 1_555 1_555
V13_8 O6_8 1_555 1_555
V14_8 O33_8 1_555 1_555
V15_8 O18_8 1_555 1_555
V16_8 O12_8 1_555 1_555
N1_6 H1_6 1_555 1_555
H2_6 N1_6 1_555 1_555
N2_6 Co7 1_555 1_555
H3_6 N2_6 1_555 1_555
H4_6 N2_6 1_555 1_555
N3_6 Co7 1_555 1_555
H5_6 N3_6 1_555 1_555
H6_6 N3_6 1_555 1_555
N4_8 H7_8 1_555 1_555
H8_8 N4_8 1_555 1_555
N5_8 Co11_3 1_555 1_555
H9_8 N5_8 1_555 1_555
H10_8 N5_8 1_555 1_555
N6_5 Co11_3 1_555 1_555
N7_8 H13_8 1_555 1_555
H14_8 N7_8 1_555 1_555
N8_8 Co13_4 1_555 1_555
H15_8 N8_8 1_555 1_555
H16_8 N8_8 1_555 1_555
N9_8 Co13_4 1_555 1_555
H17_8 N9_8 1_555 1_555
H18_8 N9_8 1_555 1_555
N10_8 Co13_4 1_555 1_555
H19_8 N10_8 1_555 1_555
H20_8 N10_8 1_555 1_555
N11_8 H21_8 1_555 1_555
H22_8 N11_8 1_555 1_555
N12_8 Co4_8 1_555 1_555
H23_8 N12_8 1_555 1_555
H24_8 N12_8 1_555 1_555
N13_8 Co4_8 1_555 1_555
H25_8 N13_8 1_555 1_555
H26_8 N13_8 1_555 1_555
N14_8 Co4_8 1_555 1_555
H27_8 N14_8 1_555 1_555
H28_8 N14_8 1_555 1_555
N15_8 H29_8 1_555 1_555
H30_8 N15_8 1_555 1_555
N16_8 Co5_8 1_555 1_555
H31_8 N16_8 1_555 1_555
H32_8 N16_8 1_555 1_555
N17_8 Co5_8 1_555 1_555
H33_8 N17_8 1_555 1_555
H34_8 N17_8 1_555 1_555
N18_8 Co5_8 1_555 1_555
H35_8 N18_8 1_555 1_555
H36_8 N18_8 1_555 1_555
O2_8 V1_8 1_555 1_555
O3_8 V1_8 1_555 1_555
O4_8 V1_8 1_555 1_555
O5_8 V1_8 1_555 1_555
O6_8 V2_8 1_555 1_555
O7_8 V2_8 1_555 1_555
O8_8 V2_8 1_555 1_555
O9_8 V3_8 1_555 1_555
O10_8 V3_8 1_555 1_555
O11_8 Co5_8 1_555 1_555
O12_8 V4_8 1_555 1_555
O13_8 V4_8 1_555 1_555
O14_8 V4_8 1_555 1_555
O15_8 V5_8 1_555 1_555
O16_8 V5_8 1_555 1_555
O17_8 Co11_3 1_555 1_555
O18_8 V6_8 1_555 1_555
O19_8 V6_8 1_555 1_555
O20_8 V6_8 1_555 1_555
O21_8 V7_8 1_555 1_555
O22_8 V7_8 1_555 1_555
O23_8 V7_8 1_555 1_555
O24_8 V8_8 1_555 1_555
O25_8 V9_8 1_555 1_555
O26_8 V9_8 1_555 1_555
O27_8 Co13_4 1_555 1_555
O28_8 Ge4_8 1_555 1_555
O29_8 Ge3_8 1_555 1_555
O30_8 V10_8 1_555 1_555
O31_8 V11_8 1_555 1_555
O32_8 Co4_8 1_555 1_555
O33_8 Ge1_8 1_555 1_555
O34_8 V13_8 1_555 1_555
O35_8 V13_8 1_555 1_555
O36_8 Ge2_8 1_555 1_555
O37_8 V14_8 1_555 1_555
O38_8 V14_8 1_555 1_555
O39_6 V15_8 1_555 1_555
O40_8 Ge1_8 1_555 1_555
O42_8 Ge2_8 1_555 1_555
O43_8 Ge3_8 1_555 1_555
O96_4 Co11_3 1_555 1_555
O45_8 Ge4_8 1_555 1_555
O46_8 Co5_8 1_555 1_555
H37_8 O46_8 1_555 1_555
H38_8 O46_8 1_555 1_555
C1_6 N1_6 1_555 1_555
H39_6 C1_6 1_555 1_555
H40_6 C1_6 1_555 1_555
C2_6 N2_6 1_555 1_555
H41_6 C2_6 1_555 1_555
H42_6 C2_6 1_555 1_555
C3_6 N3_6 1_555 1_555
H43_6 C3_6 1_555 1_555
H44_6 C3_6 1_555 1_555
C4_8 N4_8 1_555 1_555
H45_8 C4_8 1_555 1_555
H46_8 C4_8 1_555 1_555
C5_8 N5_8 1_555 1_555
H47_8 C5_8 1_555 1_555
H48_8 C5_8 1_555 1_555
C6_6 N6_5 1_555 1_555
H49_6 C6_6 1_555 1_555
H50_6 C6_6 1_555 1_555
C7_8 N7_8 1_555 1_555
H51_8 C7_8 1_555 1_555
H52_8 C7_8 1_555 1_555
C8_8 N8_8 1_555 1_555
H53_8 C8_8 1_555 1_555
H54_8 C8_8 1_555 1_555
C9_8 N9_8 1_555 1_555
H55_8 C9_8 1_555 1_555
H56_8 C9_8 1_555 1_555
C10_8 N10_8 1_555 1_555
H57_8 C10_8 1_555 1_555
H58_8 C10_8 1_555 1_555
C11_8 N11_8 1_555 1_555
H59_8 C11_8 1_555 1_555
H60_8 C11_8 1_555 1_555
C12_8 N12_8 1_555 1_555
H61_8 C12_8 1_555 1_555
H62_8 C12_8 1_555 1_555
C13_8 N13_8 1_555 1_555
H63_8 C13_8 1_555 1_555
H64_8 C13_8 1_555 1_555
C14_8 N14_8 1_555 1_555
H65_8 C14_8 1_555 1_555
H66_8 C14_8 1_555 1_555
C15_8 N15_8 1_555 1_555
H67_8 C15_8 1_555 1_555
H68_8 C15_8 1_555 1_555
C16_8 N16_8 1_555 1_555
H69_8 C16_8 1_555 1_555
H70_8 C16_8 1_555 1_555
C17_8 N17_8 1_555 1_555
H71_8 C17_8 1_555 1_555
H72_8 C17_8 1_555 1_555
C18_8 N18_8 1_555 1_555
H73_8 C18_8 1_555 1_555
H74_8 C18_8 1_555 1_555
O47_8 V16_8 1_555 1_555
Co7_2 N19_6 1_555 1_555
Co13_6 O39_6 1_555 1_555
N19_6 H75_6 1_555 1_555
H76_6 N19_6 1_555 1_555
N20_6 Co7_2 1_555 1_555
H77_6 N20_6 1_555 1_555
H78_6 N20_6 1_555 1_555
N21_6 Co7_2 1_555 1_555
H79_6 N21_6 1_555 1_555
H80_6 N21_6 1_555 1_555
C19_6 N19_6 1_555 1_555
H115_6 C19_6 1_555 1_555
H116_6 C19_6 1_555 1_555
C20_6 N20_6 1_555 1_555
H117_6 C20_6 1_555 1_555
H118_6 C20_6 1_555 1_555
C21_6 C3_6 1_555 1_555
H119_6 C21_6 1_555 1_555
H120_6 C21_6 1_555 1_555
Ge1_8 O91 1_555 1_555
Ge2_8 O40_8 1_555 1_555
Ge3_8 O96_4 1_555 1_555
Ge4_8 O43_8 1_555 1_555
V2_8 O2_8 1_555 1_555
V3_8 O7_8 1_555 1_555
V3_8 O11_8 1_555 1_555
V4_8 O10_8 1_555 1_555
V5_8 O13_8 1_555 1_555
V5_8 O17_8 1_555 1_555
V6_8 O16_8 1_555 1_555
V7_8 O19_8 1_555 1_555
V8_8 O4_8 1_555 1_555
V8_8 O21_8 1_555 1_555
V8_8 O22_8 1_555 1_555
V9_8 O7_8 1_555 1_555
V9_8 O27_8 1_555 1_555
V10_8 O26_8 1_555 1_555
V10_8 O28_8 1_555 1_555
V10_8 O29_8 1_555 1_555
V11_8 O13_8 1_555 1_555
V11_8 O26_8 1_555 1_555
V11_8 O29_8 1_555 1_555
V12_8 O22_8 1_555 1_555
V12_8 O25_8 1_555 1_555
V12_8 O28_8 1_555 1_555
V12_8 O32_8 1_555 1_555
V13_8 O9_8 1_555 1_555
V13_8 O33_8 1_555 1_555
V14_8 O34_8 1_555 1_555
V14_8 O36_8 1_555 1_555
V15_8 O21_8 1_555 1_555
V15_8 O36_8 1_555 1_555
V15_8 O37_8 1_555 1_555
V16_8 O15_8 1_555 1_555
V16_8 O34_8 1_555 1_555
V16_8 O37_8 1_555 1_555
C1_6 C2_6 1_555 1_555
C4_8 C5_8 1_555 1_555
C7_8 C8_8 1_555 1_555
C9_8 C10_8 1_555 1_555
C11_8 C12_8 1_555 1_555
C13_8 C14_8 1_555 1_555
C15_8 C16_8 1_555 1_555
C17_8 C18_8 1_555 1_555
N21_6 C21_6 1_555 1_555
C19_6 C20_6 1_555 1_555
N6 H151_10 1_555 1_555
N6_5 H151_11 1_555 1_555
N24 H151_12 1_555 1_555
Co4_9 N11_9 1_555 1_555
Ge2_9 O3_9 1_555 1_555
Ge4_9 O19_9 1_555 1_555
V7_9 O18_9 1_555 1_555
V8_9 O3_9 1_555 1_555
V10_9 O25_9 1_555 1_555
V12_9 O4_9 1_555 1_555
V15_9 O18_9 1_555 1_555
N11_9 H21_9 1_555 1_555
H22_9 N11_9 1_555 1_555
N12_9 Co4_9 1_555 1_555
H23_9 N12_9 1_555 1_555
H24_9 N12_9 1_555 1_555
N13_9 Co4_9 1_555 1_555
H25_9 N13_9 1_555 1_555
H26_9 N13_9 1_555 1_555
N14_9 Co4_9 1_555 1_555
H27_9 N14_9 1_555 1_555
H28_9 N14_9 1_555 1_555
O3_9 V1_9 1_555 1_555
O4_9 V1_9 1_555 1_555
O5_9 V1_9 1_555 1_555
O18_9 V6_9 1_555 1_555
O19_9 V6_9 1_555 1_555
O20_9 V6_9 1_555 1_555
O21_9 V7_9 1_555 1_555
O22_9 V7_9 1_555 1_555
O23_9 V7_9 1_555 1_555
O24_9 V8_9 1_555 1_555
O28_9 Ge4_9 1_555 1_555
O30_9 V10_9 1_555 1_555
O32_9 Co4_9 1_555 1_555
O36_9 Ge2_9 1_555 1_555
O87_2 V15_9 1_555 1_555
O42_9 Ge2_9 1_555 1_555
O45_9 Ge4_9 1_555 1_555
C11_9 N11_9 1_555 1_555
H59_9 C11_9 1_555 1_555
H60_9 C11_9 1_555 1_555
C12_9 N12_9 1_555 1_555
H61_9 C12_9 1_555 1_555
H62_9 C12_9 1_555 1_555
C13_9 N13_9 1_555 1_555
H63_9 C13_9 1_555 1_555
H64_9 C13_9 1_555 1_555
C14_9 N14_9 1_555 1_555
H65_9 C14_9 1_555 1_555
H66_9 C14_9 1_555 1_555
Co7_6 N19_7 1_555 1_555
N19_7 H75_7 1_555 1_555
H76_7 N19_7 1_555 1_555
N20_7 Co7_6 1_555 1_555
H77_7 N20_7 1_555 1_555
H78_7 N20_7 1_555 1_555
N21_7 Co7_6 1_555 1_555
H79_7 N21_7 1_555 1_555
H80_7 N21_7 1_555 1_555
C19_7 N19_7 1_555 1_555
H115_7 C19_7 1_555 1_555
H116_7 C19_7 1_555 1_555
C20_7 N20_7 1_555 1_555
H117_7 C20_7 1_555 1_555
H118_7 C20_7 1_555 1_555
H119_7 C21_7 1_555 1_555
H120_7 C21_7 1_555 1_555
Ge2_9 O40_9 1_555 1_555
Ge4_9 O43_9 1_555 1_555
V7_9 O19_9 1_555 1_555
V8_9 O4_9 1_555 1_555
V8_9 O21_9 1_555 1_555
V8_9 O22_9 1_555 1_555
V10_9 O28_9 1_555 1_555
V12_9 O22_9 1_555 1_555
V12_9 O25_9 1_555 1_555
V12_9 O28_9 1_555 1_555
V12_9 O32_9 1_555 1_555
V15_9 O21_9 1_555 1_555
V15_9 O36_9 1_555 1_555
V15_9 O37_9 1_555 1_555
C11_9 C12_9 1_555 1_555
C13_9 C14_9 1_555 1_555
N21_7 C21_7 1_555 1_555
C19_7 C20_7 1_555 1_555
Co11_4 N24_4 1_555 1_555
H125_7 C24_7 1_555 1_555
H126_7 C24_7 1_555 1_555
N24_4 C24_7 1_555 1_555
Co7_5 N1_7 1_555 1_555
Co11_5 N4_9 1_555 1_555
Co13_6 N7_9 1_555 1_555
Co5_9 N15_9 1_555 1_555
Ge1_9 O1_9 1_555 1_555
Ge3_9 O16_9 1_555 1_555
V2_9 O1_9 1_555 1_555
V3_9 O6_9 1_555 1_555
V4_9 O9_9 1_555 1_555
V5_9 O12_9 1_555 1_555
V9_9 O2_9 1_555 1_555
V11_9 O10_9 1_555 1_555
V13_9 O6_9 1_555 1_555
V14_9 O33_9 1_555 1_555
V16_9 O12_9 1_555 1_555
N1_7 H1_7 1_555 1_555
H2_7 N1_7 1_555 1_555
N2_7 Co7_5 1_555 1_555
H3_7 N2_7 1_555 1_555
H4_7 N2_7 1_555 1_555
N3_7 Co7_5 1_555 1_555
H5_7 N3_7 1_555 1_555
H6_7 N3_7 1_555 1_555
N4_9 H7_9 1_555 1_555
H8_9 N4_9 1_555 1_555
N5_9 Co11_5 1_555 1_555
H9_9 N5_9 1_555 1_555
H10_9 N5_9 1_555 1_555
N6_6 Co11_5 1_555 1_555
N7_9 H13_9 1_555 1_555
H14_9 N7_9 1_555 1_555
N8_9 Co13_6 1_555 1_555
H15_9 N8_9 1_555 1_555
H16_9 N8_9 1_555 1_555
N9_9 Co13_6 1_555 1_555
H17_9 N9_9 1_555 1_555
H18_9 N9_9 1_555 1_555
N10_9 Co13_6 1_555 1_555
H19_9 N10_9 1_555 1_555
H20_9 N10_9 1_555 1_555
N15_9 H29_9 1_555 1_555
H30_9 N15_9 1_555 1_555
N16_9 Co5_9 1_555 1_555
H31_9 N16_9 1_555 1_555
H32_9 N16_9 1_555 1_555
N17_9 Co5_9 1_555 1_555
H33_9 N17_9 1_555 1_555
H34_9 N17_9 1_555 1_555
N18_9 Co5_9 1_555 1_555
H35_9 N18_9 1_555 1_555
H36_9 N18_9 1_555 1_555
O6_9 V2_9 1_555 1_555
O7_9 V2_9 1_555 1_555
O8_9 V2_9 1_555 1_555
O9_9 V3_9 1_555 1_555
O10_9 V3_9 1_555 1_555
O11_9 Co5_9 1_555 1_555
O12_9 V4_9 1_555 1_555
O13_9 V4_9 1_555 1_555
O14_9 V4_9 1_555 1_555
O15_9 V5_9 1_555 1_555
O16_9 V5_9 1_555 1_555
O17_9 Co11_5 1_555 1_555
O26_9 V9_9 1_555 1_555
O27_9 Co13_6 1_555 1_555
O29_9 Ge3_9 1_555 1_555
O31_9 V11_9 1_555 1_555
O33_9 Ge1_9 1_555 1_555
O34_9 V13_9 1_555 1_555
O35_9 V13_9 1_555 1_555
O38_9 V14_9 1_555 1_555
O44_7 Co11_5 1_555 1_555
O46_9 Co5_9 1_555 1_555
H37_9 O46_9 1_555 1_555
H38_9 O46_9 1_555 1_555
C1_7 N1_7 1_555 1_555
H39_7 C1_7 1_555 1_555
H40_7 C1_7 1_555 1_555
C2_7 N2_7 1_555 1_555
H41_7 C2_7 1_555 1_555
H42_7 C2_7 1_555 1_555
C3_7 N3_7 1_555 1_555
H43_7 C3_7 1_555 1_555
H44_7 C3_7 1_555 1_555
C4_9 N4_9 1_555 1_555
H45_9 C4_9 1_555 1_555
H46_9 C4_9 1_555 1_555
C5_9 N5_9 1_555 1_555
H47_9 C5_9 1_555 1_555
H48_9 C5_9 1_555 1_555
C6_7 N6_6 1_555 1_555
H49_7 C6_7 1_555 1_555
H50_7 C6_7 1_555 1_555
C7_9 N7_9 1_555 1_555
H51_9 C7_9 1_555 1_555
H52_9 C7_9 1_555 1_555
C8_9 N8_9 1_555 1_555
H53_9 C8_9 1_555 1_555
H54_9 C8_9 1_555 1_555
C9_9 N9_9 1_555 1_555
H55_9 C9_9 1_555 1_555
H56_9 C9_9 1_555 1_555
C10_9 N10_9 1_555 1_555
H57_9 C10_9 1_555 1_555
H58_9 C10_9 1_555 1_555
C15_9 N15_9 1_555 1_555
H67_9 C15_9 1_555 1_555
H68_9 C15_9 1_555 1_555
C16_9 N16_9 1_555 1_555
H69_9 C16_9 1_555 1_555
H70_9 C16_9 1_555 1_555
C17_9 N17_9 1_555 1_555
H71_9 C17_9 1_555 1_555
H72_9 C17_9 1_555 1_555
C18_9 N18_9 1_555 1_555
H73_9 C18_9 1_555 1_555
H74_9 C18_9 1_555 1_555
O47_9 V16_9 1_555 1_555
Co8_5 O44_7 1_555 1_555
Ge1_9 O91_5 1_555 1_555
Ge3_9 O44_7 1_555 1_555
V2_9 O2_9 1_555 1_555
V3_9 O7_9 1_555 1_555
V3_9 O11_9 1_555 1_555
V4_9 O10_9 1_555 1_555
V5_9 O13_9 1_555 1_555
V5_9 O17_9 1_555 1_555
V9_9 O7_9 1_555 1_555
V9_9 O27_9 1_555 1_555
V11_9 O13_9 1_555 1_555
V11_9 O26_9 1_555 1_555
V11_9 O29_9 1_555 1_555
V13_9 O9_9 1_555 1_555
V13_9 O33_9 1_555 1_555
V14_9 O34_9 1_555 1_555
V16_9 O15_9 1_555 1_555
V16_9 O34_9 1_555 1_555
C1_7 C2_7 1_555 1_555
C4_9 C5_9 1_555 1_555
C7_9 C8_9 1_555 1_555
C9_9 C10_9 1_555 1_555
C15_9 C16_9 1_555 1_555
C17_9 C18_9 1_555 1_555
N6_4 H151_13 1_555 1_555
Co11_4 N4_10 1_555 1_555
Co14_4 N7_10 1_555 1_555
Co5_10 N15_10 1_555 1_555
Ge1_10 O1_10 1_555 1_555
Ge3_10 O16_10 1_555 1_555
V2_10 O1_10 1_555 1_555
V3_10 O6_10 1_555 1_555
V4_10 O9_10 1_555 1_555
V5_10 O12_10 1_555 1_555
V9_10 O2_10 1_555 1_555
V11_10 O10_10 1_555 1_555
V13_10 O6_10 1_555 1_555
V14_10 O33_10 1_555 1_555
V16_10 O12_10 1_555 1_555
N4_10 H7_10 1_555 1_555
H8_10 N4_10 1_555 1_555
N5_10 Co11_4 1_555 1_555
H9_10 N5_10 1_555 1_555
H10_10 N5_10 1_555 1_555
N7_10 H13_10 1_555 1_555
H14_10 N7_10 1_555 1_555
N8_10 Co14_4 1_555 1_555
H15_10 N8_10 1_555 1_555
H16_10 N8_10 1_555 1_555
N9_10 Co14_4 1_555 1_555
H17_10 N9_10 1_555 1_555
H18_10 N9_10 1_555 1_555
N10_10 Co14_4 1_555 1_555
H19_10 N10_10 1_555 1_555
H20_10 N10_10 1_555 1_555
N15_10 H29_10 1_555 1_555
H30_10 N15_10 1_555 1_555
N16_10 Co5_10 1_555 1_555
H31_10 N16_10 1_555 1_555
H32_10 N16_10 1_555 1_555
N17_10 Co5_10 1_555 1_555
H33_10 N17_10 1_555 1_555
H34_10 N17_10 1_555 1_555
N18_10 Co5_10 1_555 1_555
H35_10 N18_10 1_555 1_555
H36_10 N18_10 1_555 1_555
O6_10 V2_10 1_555 1_555
O7_10 V2_10 1_555 1_555
O8_10 V2_10 1_555 1_555
O9_10 V3_10 1_555 1_555
O10_10 V3_10 1_555 1_555
O11_10 Co5_10 1_555 1_555
O12_10 V4_10 1_555 1_555
O13_10 V4_10 1_555 1_555
O14_10 V4_10 1_555 1_555
O15_10 V5_10 1_555 1_555
O16_10 V5_10 1_555 1_555
O17_10 Co11_4 1_555 1_555
O26_10 V9_10 1_555 1_555
O27_10 Co14_4 1_555 1_555
O29_10 Ge3_10 1_555 1_555
O31_10 V11_10 1_555 1_555
O33_10 Ge1_10 1_555 1_555
O34_10 V13_10 1_555 1_555
O35_10 V13_10 1_555 1_555
O38_10 V14_10 1_555 1_555
O44_8 Co11_4 1_555 1_555
O46_10 Co5_10 1_555 1_555
H37_10 O46_10 1_555 1_555
H38_10 O46_10 1_555 1_555
C4_10 N4_10 1_555 1_555
H45_10 C4_10 1_555 1_555
H46_10 C4_10 1_555 1_555
C5_10 N5_10 1_555 1_555
H47_10 C5_10 1_555 1_555
H48_10 C5_10 1_555 1_555
C7_10 N7_10 1_555 1_555
H51_10 C7_10 1_555 1_555
H52_10 C7_10 1_555 1_555
C8_10 N8_10 1_555 1_555
H53_10 C8_10 1_555 1_555
H54_10 C8_10 1_555 1_555
C9_10 N9_10 1_555 1_555
H55_10 C9_10 1_555 1_555
H56_10 C9_10 1_555 1_555
C10_10 N10_10 1_555 1_555
H57_10 C10_10 1_555 1_555
H58_10 C10_10 1_555 1_555
C15_10 N15_10 1_555 1_555
H67_10 C15_10 1_555 1_555
H68_10 C15_10 1_555 1_555
C16_10 N16_10 1_555 1_555
H69_10 C16_10 1_555 1_555
H70_10 C16_10 1_555 1_555
C17_10 N17_10 1_555 1_555
H71_10 C17_10 1_555 1_555
H72_10 C17_10 1_555 1_555
C18_10 N18_10 1_555 1_555
H73_10 C18_10 1_555 1_555
H74_10 C18_10 1_555 1_555
O47_10 V16_10 1_555 1_555
Co8_4 O44_8 1_555 1_555
Ge1_10 O91_6 1_555 1_555
Ge3_10 O44_8 1_555 1_555
V2_10 O2_10 1_555 1_555
V3_10 O7_10 1_555 1_555
V3_10 O11_10 1_555 1_555
V4_10 O10_10 1_555 1_555
V5_10 O13_10 1_555 1_555
V5_10 O17_10 1_555 1_555
V9_10 O7_10 1_555 1_555
V9_10 O27_10 1_555 1_555
V11_10 O13_10 1_555 1_555
V11_10 O26_10 1_555 1_555
V11_10 O29_10 1_555 1_555
V13_10 O9_10 1_555 1_555
V13_10 O33_10 1_555 1_555
V14_10 O34_10 1_555 1_555
V16_10 O15_10 1_555 1_555
V16_10 O34_10 1_555 1_555
C4_10 C5_10 1_555 1_555
C7_10 C8_10 1_555 1_555
C9_10 C10_10 1_555 1_555
C15_10 C16_10 1_555 1_555
C17_10 C18_10 1_555 1_555
N24_3 H151_14 1_555 1_555
Co4_10 N11_10 1_555 1_555
Ge2_10 O3_10 1_555 1_555
Ge4_10 O19_10 1_555 1_555
V7_10 O18_10 1_555 1_555
V8_10 O3_10 1_555 1_555
V10_10 O25_10 1_555 1_555
V12_10 O4_10 1_555 1_555
V15_10 O18_10 1_555 1_555
N11_10 H21_10 1_555 1_555
H22_10 N11_10 1_555 1_555
N12_10 Co4_10 1_555 1_555
H23_10 N12_10 1_555 1_555
H24_10 N12_10 1_555 1_555
N13_10 Co4_10 1_555 1_555
H25_10 N13_10 1_555 1_555
H26_10 N13_10 1_555 1_555
N14_10 Co4_10 1_555 1_555
H27_10 N14_10 1_555 1_555
H28_10 N14_10 1_555 1_555
O3_10 V1_10 1_555 1_555
O4_10 V1_10 1_555 1_555
O5_10 V1_10 1_555 1_555
O18_10 V6_10 1_555 1_555
O19_10 V6_10 1_555 1_555
O20_10 V6_10 1_555 1_555
O21_10 V7_10 1_555 1_555
O22_10 V7_10 1_555 1_555
O23_10 V7_10 1_555 1_555
O24_10 V8_10 1_555 1_555
O28_10 Ge4_10 1_555 1_555
O30_10 V10_10 1_555 1_555
O32_10 Co4_10 1_555 1_555
O36_10 Ge2_10 1_555 1_555
O88 V15_10 1_555 1_555
O42_10 Ge2_10 1_555 1_555
O45_10 Ge4_10 1_555 1_555
C11_10 N11_10 1_555 1_555
H59_10 C11_10 1_555 1_555
H60_10 C11_10 1_555 1_555
C12_10 N12_10 1_555 1_555
H61_10 C12_10 1_555 1_555
H62_10 C12_10 1_555 1_555
C13_10 N13_10 1_555 1_555
H63_10 C13_10 1_555 1_555
H64_10 C13_10 1_555 1_555
C14_10 N14_10 1_555 1_555
H65_10 C14_10 1_555 1_555
H66_10 C14_10 1_555 1_555
Ge2_10 O40_10 1_555 1_555
Ge4_10 O43_10 1_555 1_555
V7_10 O19_10 1_555 1_555
V8_10 O4_10 1_555 1_555
V8_10 O21_10 1_555 1_555
V8_10 O22_10 1_555 1_555
V10_10 O28_10 1_555 1_555
V12_10 O22_10 1_555 1_555
V12_10 O25_10 1_555 1_555
V12_10 O28_10 1_555 1_555
V12_10 O32_10 1_555 1_555
V15_10 O21_10 1_555 1_555
V15_10 O36_10 1_555 1_555
V15_10 O37_10 1_555 1_555
C11_10 C12_10 1_555 1_555
C13_10 C14_10 1_555 1_555
H125_8 C24_8 1_555 1_555
H126_8 C24_8 1_555 1_555
N25_5 C24_8 1_555 1_555
Co8_4 N1_8 1_555 1_555
N1_8 H1_8 1_555 1_555
H2_8 N1_8 1_555 1_555
N2_8 Co8_4 1_555 1_555
H3_8 N2_8 1_555 1_555
H4_8 N2_8 1_555 1_555
N3_8 Co8_4 1_555 1_555
H5_8 N3_8 1_555 1_555
H6_8 N3_8 1_555 1_555
C1_8 N1_8 1_555 1_555
H39_8 C1_8 1_555 1_555
H40_8 C1_8 1_555 1_555
C2_8 N2_8 1_555 1_555
H41_8 C2_8 1_555 1_555
H42_8 C2_8 1_555 1_555
C3_8 N3_8 1_555 1_555
H43_8 C3_8 1_555 1_555
C6_8 N25_4 1_555 1_555
H49_8 C6_8 1_555 1_555
H50_8 C6_8 1_555 1_555
C1_8 C2_8 1_555 1_555
N24_4 H151_15 1_555 1_555
Co8_5 N19_8 1_555 1_555
N19_8 H75_8 1_555 1_555
H76_8 N19_8 1_555 1_555
N20_8 Co8_5 1_555 1_555
H77_8 N20_8 1_555 1_555
H78_8 N20_8 1_555 1_555
N21_8 Co8_5 1_555 1_555
H79_8 N21_8 1_555 1_555
H80_8 N21_8 1_555 1_555
C19_8 N19_8 1_555 1_555
H115_8 C19_8 1_555 1_555
H116_8 C19_8 1_555 1_555
C20_8 N20_8 1_555 1_555
H117_8 C20_8 1_555 1_555
H118_8 C20_8 1_555 1_555
H119_8 C21_8 1_555 1_555
N21_8 C21_8 1_555 1_555
C19_8 C20_8 1_555 1_555
N6_6 H151_16 1_555 1_555

#END
