
###############################################################################
#
# This file contains modified crystal structure data generated from the
# MOF subset of the Cambridge Structural Database (CSD) v543 
# hosted by the Cambridge Crystallographic Data Centre (CCDC).
#
# This work is licensed under the Creative Commons
# Attribution-NonCommercial-ShareAlike 4.0 International License.
# To view a copy of this license, visit
# http://creativecommons.org/licenses/by-nc-sa/4.0/
# or send a letter to
# Creative Commons, PO Box 1866, Mountain View, CA 94042, USA.
#
# CIF created using the CSD Python API on 29 September 2022
# The structure has been converted into the P1 space group
# The structure has a 3D framework
# The original CSD entry FAZPED is in the rhombohedral crystal system
# The framework has been calculated to contain at least 10.0% void space
# The void calculation uses a probe of radius 1.32A, grid spacing 0.4
#
###############################################################################

data_FAZPED
_chemical_formula_moiety         '(C216 H144 Cl18 Co30 N88 O72)n'
_symmetry_cell_setting           triclinic
_symmetry_space_group_name_H-M   'P 1'
_symmetry_Int_Tables_number      1
_space_group_name_Hall           'P 1'
loop_
_symmetry_equiv_pos_site_id
_symmetry_equiv_pos_as_xyz
1 x,y,z
_cell_length_a                   27.518(4)
_cell_length_b                   27.518(4)
_cell_length_c                   12.172(2)
_cell_angle_alpha                90
_cell_angle_beta                 90
_cell_angle_gamma                120
_cell_volume                     7982.27
loop_
_atom_site_label
_atom_site_type_symbol
_atom_site_fract_x
_atom_site_fract_y
_atom_site_fract_z
H8 H 0.4755 0.0001 0.1215
Co3 Co 0.28261(6) 0.16463(4) 0.09487(7)
N2 N 0.2417(2) 0.1293(2) 0.9442(5)
C3 C 0.2042(3) 0.0523(3) 0.8193(6)
H2 H 0.4415 0.0277 0.9767
C5 C 0.2259(3) 0.0760(3) 0.9199(6)
H3 H 0.2299 0.0541 0.9733
C6 C 0.2324(3) 0.1590(3) 0.8690(6)
H4 H 0.2415 0.1956 0.8859
C8 C 0.1958(3) 0.0835(3) 0.7413(6)
H5 H 0.1808 0.0685 0.6729
C11 C 0.2104(4) 0.1379(4) 0.7681(7)
H7 H 0.2052 0.1601 0.7173
O4 O 0.2356(3) 0.8462(2) 0.0967(4)
N1 N 0.4039(3) 0.9382(3) 0.1728(5)
C1 C 0.3256(3) 0.9255(3) 0.0657(6)
C2 C 0.3488(3) 0.9108(3) 0.1518(6)
H1 H 0.3251 0.8807 0.1964
C4 C 0.4169(4) 0.9977(3) 0.0208(7)
C7 C 0.2624(3) 0.8912(3) 0.0441(6)
C12 C 0.4371(3) 0.9808(3) 0.1078(6)
Co5 Co 0.18905(5) 0.77114(4) 0.02205(9)
Co6 Co 0.43780(4) 0.91542(6) 0.31129(9)
N7 N 0.1293(2) 0.8876(3) 0.0558(5)
Co1 Co 0.16463(4) 0.88202(4) 0.90513(7)
Co2 Co 0.14428(5) 0.89553(4) 0.64462(9)
O1 O 0.1922(2) 0.9657(2) 0.8795(4)
O2 O 0.2434(2) 0.9100(2) 0.9747(4)
O3 O 0.1771(2) 0.9750(2) 0.7026(4)
N3 N 0.1955(2) 0.8731(2) 0.7438(5)
N4 N 0.2463(3) 0.9072(3) 0.7356(6)
C9 C 0.3602(3) 0.9701(3) 0.9998(6)
H6 H 0.3456 0.9812 0.9424
C10 C 0.1896(3) 0.9922(3) 0.7993(6)
N5 N 0.2922(5) 0.9370(4) 0.7312(9)
Cl1 Cl 0.07789(10) 0.86087(10) 0.80350(19)
Co4 Co 0.16870(4) 0.78465(4) 0.76154(7)
O5 O 0.0977(3) 0.8205(2) 0.5700(4)
N6 N 0.2010(4) 0.9294(3) 0.5061(5)
N8 N 0.1378(2) 0.7936(2) 0.9229(5)
O4_2 O 0.1538(2) 0.3894(4) 0.0967(4)
N1_2 N 0.0618(3) 0.4657(4) 0.1728(5)
C1_2 C 0.0745(3) 0.4001(4) 0.0657(6)
C2_2 C 0.0892(3) 0.4380(4) 0.1518(6)
H1_2 H 0.1193 0.4444 0.1964
C4_2 C 0.0023(3) 0.4192(5) 0.0208(7)
C7_2 C 0.1088(3) 0.3712(4) 0.0441(6)
C12_2 C 0.0192(3) 0.4563(4) 0.1078(6)
Co5_2 Co 0.22886(4) 0.41792(6) 0.02205(9)
Co6_2 Co 0.08458(6) 0.52239(7) 0.31129(9)
N7_2 N 0.1124(3) 0.2417(4) 0.0558(5)
Co1_2 Co 0.11798(4) 0.28261(6) 0.90513(7)
Co2_2 Co 0.10447(4) 0.24875(6) 0.64462(9)
O1_2 O 0.0343(2) 0.2265(3) 0.8795(4)
O2_2 O 0.0900(2) 0.3334(3) 0.9747(4)
O3_2 O 0.0250(2) 0.2021(3) 0.7026(4)
N3_2 N 0.1269(2) 0.3224(3) 0.7438(5)
N4_2 N 0.0928(3) 0.3391(4) 0.7356(6)
C9_2 C 0.0299(3) 0.3901(4) 0.9998(6)
H6_2 H 0.0188 0.3644 0.9424
C10_2 C 0.0078(3) 0.1974(4) 0.7993(6)
N5_2 N 0.0630(4) 0.3552(6) 0.7312(9)
Cl1_2 Cl 0.13913(10) 0.21702(14) 0.80350(19)
Co4_2 Co 0.21535(4) 0.38406(6) 0.76154(7)
O5_2 O 0.1795(2) 0.2773(4) 0.5700(4)
N6_2 N 0.0706(3) 0.2715(5) 0.5061(5)
N8_2 N 0.2064(2) 0.3443(3) 0.9229(5)
H8_2 H 0.9999 0.4754 0.1215
Co3_2 Co 0.83537(4) 0.11798(7) 0.09487(7)
N2_2 N 0.8707(2) 0.1124(3) 0.9442(5)
C3_2 C 0.9477(3) 0.1519(4) 0.8193(6)
H2_2 H 0.9723 0.4138 0.9767
C5_2 C 0.9240(3) 0.1499(4) 0.9199(6)
H3_2 H 0.9459 0.1758 0.9733
C6_2 C 0.8410(3) 0.0734(4) 0.8690(6)
H4_2 H 0.8044 0.0459 0.8859
C8_2 C 0.9165(3) 0.1123(4) 0.7413(6)
H5_2 H 0.9315 0.1123 0.6729
C11_2 C 0.8621(4) 0.0725(6) 0.7681(7)
H7_2 H 0.8399 0.0451 0.7173
O4_3 O 0.6106(4) 0.7644(3) 0.0967(4)
N1_3 N 0.5343(4) 0.5961(3) 0.1728(5)
C1_3 C 0.5999(4) 0.6744(3) 0.0657(6)
C2_3 C 0.5620(4) 0.6512(3) 0.1518(6)
H1_3 H 0.5556 0.6749 0.1964
C4_3 C 0.5808(5) 0.5831(4) 0.0208(7)
C7_3 C 0.6288(4) 0.7376(3) 0.0441(6)
C12_3 C 0.5437(4) 0.5629(3) 0.1078(6)
H8_3 H 0.5246 0.5245 0.1215
Co3_3 Co 0.88202(7) 0.71739(6) 0.09487(7)
Co5_3 Co 0.58208(6) 0.81095(5) 0.02205(9)
Co6_3 Co 0.47761(7) 0.56220(4) 0.31129(9)
N7_3 N 0.7583(4) 0.8707(2) 0.0558(5)
Co1_3 Co 0.71739(6) 0.83537(4) 0.90513(7)
Co2_3 Co 0.75125(6) 0.85572(5) 0.64462(9)
O1_3 O 0.7735(3) 0.8078(2) 0.8795(4)
O2_3 O 0.6666(3) 0.7566(2) 0.9747(4)
O3_3 O 0.7979(3) 0.8229(2) 0.7026(4)
N2_3 N 0.8876(3) 0.7583(2) 0.9442(5)
C3_3 C 0.8481(4) 0.7958(3) 0.8193(6)
N3_3 N 0.6776(3) 0.8045(2) 0.7438(5)
H2_3 H 0.5862 0.5585 0.9767
N4_3 N 0.6609(4) 0.7537(3) 0.7356(6)
C5_3 C 0.8501(4) 0.7741(3) 0.9199(6)
H3_3 H 0.8242 0.7701 0.9733
C6_3 C 0.9266(4) 0.7676(3) 0.8690(6)
H4_3 H 0.9541 0.7585 0.8859
C8_3 C 0.8877(4) 0.8042(3) 0.7413(6)
H5_3 H 0.8877 0.8192 0.6729
C9_3 C 0.6099(4) 0.6398(3) 0.9998(6)
H6_3 H 0.6356 0.6544 0.9424
C10_3 C 0.8026(4) 0.8104(3) 0.7993(6)
C11_3 C 0.9275(6) 0.7896(4) 0.7681(7)
H7_3 H 0.9549 0.7948 0.7173
N5_3 N 0.6448(6) 0.7078(5) 0.7312(9)
Cl1_3 Cl 0.78298(14) 0.92211(10) 0.80350(19)
Co4_3 Co 0.61594(6) 0.83130(4) 0.76154(7)
O5_3 O 0.7227(4) 0.9023(3) 0.5700(4)
N6_3 N 0.7285(5) 0.7990(4) 0.5061(5)
N8_3 N 0.6557(3) 0.8622(2) 0.9229(5)
C2_4 C 0.0155(3) 0.2441(3) 0.4851(6)
C4_4 C 0.0836(4) 0.3310(3) 0.3541(7)
H2_4 H 0.1082 0.3610 0.3100
C9_4 C 0.0269(3) 0.3034(3) 0.3331(6)
H6_4 H 0.0123 0.3145 0.2757
C12_4 C 0.1038(3) 0.3141(3) 0.4411(6)
H8_4 H 0.1422 0.3334 0.4548
Co1_4 Co 0.83130(4) 0.21535(4) 0.23846(7)
O1_4 O 0.8589(2) 0.2990(2) 0.2128(4)
O2_4 O 0.9101(2) 0.2433(2) 0.3080(4)
O3_4 O 0.8438(2) 0.3083(2) 0.0359(4)
O4_4 O 0.9023(3) 0.1795(2) 0.4300(4)
N2_4 N 0.9084(2) 0.4626(2) 0.2775(5)
C1_4 C 0.9923(3) 0.2588(3) 0.3990(6)
H1_4 H 0.9918 0.2140 0.5297
C3_4 C 0.8709(3) 0.3856(3) 0.1526(6)
N3_4 N 0.8622(2) 0.2064(2) 0.0771(5)
N4_4 N 0.9130(3) 0.2405(3) 0.0689(6)
C5_4 C 0.8926(3) 0.4093(3) 0.2532(6)
H3_4 H 0.8966 0.3874 0.3066
C6_4 C 0.8991(3) 0.4923(3) 0.2023(6)
H4_4 H 0.9082 0.5289 0.2192
C7_4 C 0.9291(3) 0.2245(3) 0.3774(6)
C8_4 C 0.8625(3) 0.4168(3) 0.0746(6)
H5_4 H 0.8475 0.4018 0.0062
C10_4 C 0.8563(3) 0.3255(3) 0.1326(6)
C11_4 C 0.8771(4) 0.4712(4) 0.1014(7)
H7_4 H 0.8719 0.4934 0.0506
N5_4 N 0.9589(5) 0.2703(4) 0.0645(9)
Cl1_4 Cl 0.74456(10) 0.19420(10) 0.13683(19)
Co3_4 Co 0.94928(6) 0.49796(4) 0.42820(7)
Co5_4 Co 0.85572(5) 0.10447(4) 0.35538(9)
N7_4 N 0.7960(2) 0.2209(3) 0.3891(5)
N8_4 N 0.8045(2) 0.1269(2) 0.2562(5)
Co2_4 Co 0.81095(5) 0.22886(4) 0.97795(9)
O5_4 O 0.7644(3) 0.1538(2) 0.9033(4)
N6_4 N 0.8676(4) 0.2628(3) 0.8395(5)
Co1_5 Co 0.78465(4) 0.61594(6) 0.23846(7)
O1_5 O 0.7010(2) 0.5598(3) 0.2128(4)
O2_5 O 0.7567(2) 0.6667(3) 0.3080(4)
O3_5 O 0.6917(2) 0.5354(3) 0.0359(4)
O4_5 O 0.8205(2) 0.7227(4) 0.4300(4)
N2_5 N 0.5374(2) 0.4457(3) 0.2775(5)
C1_5 C 0.7412(3) 0.7334(4) 0.3990(6)
C2_5 C 0.7559(3) 0.7713(4) 0.4851(6)
H1_5 H 0.7860 0.7777 0.5297
C3_5 C 0.6144(3) 0.4852(4) 0.1526(6)
N3_5 N 0.7936(2) 0.6557(3) 0.0771(5)
C4_5 C 0.6690(3) 0.7525(5) 0.3541(7)
H2_5 H 0.6390 0.7471 0.3100
N4_5 N 0.7595(3) 0.6724(4) 0.0689(6)
C5_5 C 0.5907(3) 0.4832(4) 0.2532(6)
H3_5 H 0.6126 0.5091 0.3066
C6_5 C 0.5077(3) 0.4067(4) 0.2023(6)
H4_5 H 0.4711 0.3792 0.2192
C7_5 C 0.7755(3) 0.7045(4) 0.3774(6)
C8_5 C 0.5832(3) 0.4456(4) 0.0746(6)
H5_5 H 0.5982 0.4456 0.0062
C9_5 C 0.6966(3) 0.7234(4) 0.3331(6)
H6_5 H 0.6855 0.6977 0.2757
C10_5 C 0.6745(3) 0.5307(4) 0.1326(6)
C11_5 C 0.5288(4) 0.4058(6) 0.1014(7)
H7_5 H 0.5066 0.3784 0.0506
C12_5 C 0.6859(3) 0.7896(4) 0.4411(6)
H8_5 H 0.6666 0.8087 0.4548
N5_5 N 0.7297(4) 0.6885(6) 0.0645(9)
Cl1_5 Cl 0.80580(10) 0.55035(14) 0.13683(19)
Co3_5 Co 0.50204(4) 0.45131(7) 0.42820(7)
Co5_5 Co 0.89553(4) 0.75125(6) 0.35538(9)
N7_5 N 0.7791(3) 0.5750(4) 0.3891(5)
N8_5 N 0.8731(2) 0.6776(3) 0.2562(5)
Co2_5 Co 0.77114(4) 0.58208(6) 0.97795(9)
O5_5 O 0.8462(2) 0.6106(4) 0.9033(4)
N6_5 N 0.7372(3) 0.6049(5) 0.8395(5)
Co1_6 Co 0.38406(6) 0.16870(4) 0.23846(7)
O1_6 O 0.4402(3) 0.1411(2) 0.2128(4)
O2_6 O 0.3333(3) 0.0899(2) 0.3080(4)
O3_6 O 0.4646(3) 0.1562(2) 0.0359(4)
O4_6 O 0.2773(4) 0.0977(3) 0.4300(4)
N2_6 N 0.5543(3) 0.0916(2) 0.2775(5)
C1_6 C 0.2666(4) 0.0077(3) 0.3990(6)
H1_6 H 0.2223 0.0082 0.5297
C3_6 C 0.5148(4) 0.1291(3) 0.1526(6)
N3_6 N 0.3443(3) 0.1378(2) 0.0771(5)
N4_6 N 0.3276(4) 0.0870(3) 0.0689(6)
C5_6 C 0.5168(4) 0.1074(3) 0.2532(6)
H3_6 H 0.4909 0.1034 0.3066
C6_6 C 0.5933(4) 0.1009(3) 0.2023(6)
H4_6 H 0.6208 0.0918 0.2192
C7_6 C 0.2955(4) 0.0709(3) 0.3774(6)
C8_6 C 0.5544(4) 0.1375(3) 0.0746(6)
H5_6 H 0.5544 0.1525 0.0062
C10_6 C 0.4693(4) 0.1437(3) 0.1326(6)
C11_6 C 0.5942(6) 0.1229(4) 0.1014(7)
H7_6 H 0.6216 0.1281 0.0506
N5_6 N 0.3115(6) 0.0411(5) 0.0645(9)
Cl1_6 Cl 0.44965(14) 0.25544(10) 0.13683(19)
Co3_6 Co 0.54869(7) 0.05072(6) 0.42820(7)
Co5_6 Co 0.24875(6) 0.14428(5) 0.35538(9)
N7_6 N 0.4250(4) 0.2040(2) 0.3891(5)
N8_6 N 0.3224(3) 0.1955(2) 0.2562(5)
Co2_6 Co 0.41792(6) 0.18905(5) 0.97795(9)
O5_6 O 0.3894(4) 0.2356(3) 0.9033(4)
N6_6 N 0.3951(5) 0.1324(4) 0.8395(5)
C2_6 C 0.2287(4) 0.9845(3) 0.4851(6)
C4_6 C 0.2475(5) 0.9164(4) 0.3541(7)
H2_6 H 0.2529 0.8918 0.3100
C9_6 C 0.2766(4) 0.9731(3) 0.3331(6)
H6_6 H 0.3023 0.9877 0.2757
C12_6 C 0.2104(4) 0.8962(3) 0.4411(6)
H8_6 H 0.1913 0.8578 0.4548
Co1_7 Co 0.49796(4) 0.54869(4) 0.57180(7)
O1_7 O 0.5255(2) 0.6324(2) 0.5462(4)
O2_7 O 0.5767(2) 0.5767(2) 0.6414(4)
O3_7 O 0.5104(2) 0.6417(2) 0.3693(4)
O4_7 O 0.5689(3) 0.5129(2) 0.7634(4)
N2_7 N 0.5750(2) 0.7960(2) 0.6109(5)
C1_7 C 0.6589(3) 0.5922(3) 0.7324(6)
C2_7 C 0.6821(3) 0.5775(3) 0.8185(6)
H1_7 H 0.6584 0.5474 0.8631
C3_7 C 0.5375(3) 0.7190(3) 0.4860(6)
N3_7 N 0.5288(2) 0.5398(2) 0.4105(5)
C4_7 C 0.7502(4) 0.6644(3) 0.6875(7)
H2_7 H 0.7748 0.6944 0.6434
N4_7 N 0.5796(3) 0.5739(3) 0.4023(6)
C5_7 C 0.5592(3) 0.7427(3) 0.5866(6)
H3_7 H 0.5632 0.7208 0.6400
C6_7 C 0.5657(3) 0.8257(3) 0.5357(6)
H4_7 H 0.5748 0.8623 0.5526
C7_7 C 0.5957(3) 0.5579(3) 0.7108(6)
C8_7 C 0.5291(3) 0.7502(3) 0.4080(6)
H5_7 H 0.5141 0.7352 0.3396
C9_7 C 0.6935(3) 0.6368(3) 0.6665(6)
H6_7 H 0.6789 0.6479 0.6091
C10_7 C 0.5229(3) 0.6589(3) 0.4660(6)
C11_7 C 0.5437(4) 0.8046(4) 0.4348(7)
H7_7 H 0.5385 0.8268 0.3840
C12_7 C 0.7704(3) 0.6475(3) 0.7745(6)
H8_7 H 0.8088 0.6668 0.7882
N5_7 N 0.6255(5) 0.6037(4) 0.3979(9)
Cl1_7 Cl 0.41122(10) 0.52754(10) 0.47017(19)
Co5_7 Co 0.52239(5) 0.43780(4) 0.68871(9)
O5_7 O 0.4311(3) 0.4871(2) 0.2366(4)
N7_7 N 0.4626(2) 0.5543(3) 0.7225(5)
N8_7 N 0.4712(2) 0.4602(2) 0.5895(5)
O2_8 O 0.4233(2) 0.0001(3) 0.6414(4)
O4_8 O 0.4871(2) 0.0561(4) 0.7634(4)
C1_8 C 0.4078(3) 0.0668(4) 0.7324(6)
C2_8 C 0.4225(3) 0.1047(4) 0.8185(6)
H1_8 H 0.4526 0.1111 0.8631
C4_8 C 0.3356(3) 0.0859(5) 0.6875(7)
H2_8 H 0.3056 0.0805 0.6434
N4_8 N 0.4261(3) 0.0058(4) 0.4023(6)
C7_8 C 0.4421(3) 0.0379(4) 0.7108(6)
C9_8 C 0.3632(3) 0.0568(4) 0.6665(6)
H6_8 H 0.3521 0.0311 0.6091
C12_8 C 0.3525(3) 0.1230(4) 0.7745(6)
H8_8 H 0.3332 0.1421 0.7882
N5_8 N 0.3963(4) 0.0219(6) 0.3979(9)
Co5_8 Co 0.56220(4) 0.08458(6) 0.68871(9)
N8_8 N 0.5398(2) 0.0109(3) 0.5895(5)
Co1_8 Co 0.45131(4) 0.94928(6) 0.57180(7)
O1_8 O 0.3676(2) 0.8932(3) 0.5462(4)
O3_8 O 0.3583(2) 0.8688(3) 0.3693(4)
N2_8 N 0.2040(2) 0.7791(3) 0.6109(5)
C3_8 C 0.2810(3) 0.8186(4) 0.4860(6)
N3_8 N 0.4602(2) 0.9891(3) 0.4105(5)
C5_8 C 0.2573(3) 0.8166(4) 0.5866(6)
H3_8 H 0.2792 0.8425 0.6400
C6_8 C 0.1743(3) 0.7401(4) 0.5357(6)
H4_8 H 0.1377 0.7126 0.5526
C8_8 C 0.2498(3) 0.7790(4) 0.4080(6)
H5_8 H 0.2648 0.7790 0.3396
C10_8 C 0.3411(3) 0.8641(4) 0.4660(6)
C11_8 C 0.1954(4) 0.7392(6) 0.4348(7)
H7_8 H 0.1732 0.7118 0.3840
Cl1_8 Cl 0.47246(10) 0.88369(14) 0.47017(19)
O5_8 O 0.5129(2) 0.9439(4) 0.2366(4)
N7_8 N 0.4457(3) 0.9084(4) 0.7225(5)
Co1_9 Co 0.05072(6) 0.50204(4) 0.57180(7)
O1_9 O 0.1068(3) 0.4745(2) 0.5462(4)
O3_9 O 0.1312(3) 0.4896(2) 0.3693(4)
N2_9 N 0.2209(3) 0.4250(2) 0.6109(5)
C3_9 C 0.1814(4) 0.4625(3) 0.4860(6)
N3_9 N 0.0109(3) 0.4712(2) 0.4105(5)
C5_9 C 0.1834(4) 0.4408(3) 0.5866(6)
H3_9 H 0.1575 0.4368 0.6400
C6_9 C 0.2599(4) 0.4343(3) 0.5357(6)
H4_9 H 0.2874 0.4252 0.5526
C8_9 C 0.2210(4) 0.4709(3) 0.4080(6)
H5_9 H 0.2210 0.4859 0.3396
C10_9 C 0.1359(4) 0.4771(3) 0.4660(6)
C11_9 C 0.2608(6) 0.4563(4) 0.4348(7)
H7_9 H 0.2882 0.4615 0.3840
Cl1_9 Cl 0.11631(14) 0.58878(10) 0.47017(19)
O5_9 O 0.0561(4) 0.5689(3) 0.2366(4)
N7_9 N 0.0916(4) 0.5374(2) 0.7225(5)
O2_9 O 0.9999(3) 0.4233(2) 0.6414(4)
O4_9 O 0.9439(4) 0.4311(3) 0.7634(4)
C1_9 C 0.9332(4) 0.3411(3) 0.7324(6)
C2_9 C 0.8953(4) 0.3179(3) 0.8185(6)
H1_9 H 0.8889 0.3416 0.8631
C4_9 C 0.9141(5) 0.2498(4) 0.6875(7)
H2_9 H 0.9195 0.2252 0.6434
N4_9 N 0.9942(4) 0.4204(3) 0.4023(6)
C7_9 C 0.9621(4) 0.4043(3) 0.7108(6)
C9_9 C 0.9432(4) 0.3065(3) 0.6665(6)
H6_9 H 0.9689 0.3211 0.6091
C12_9 C 0.8770(4) 0.2296(3) 0.7745(6)
H8_9 H 0.8579 0.1912 0.7882
N5_9 N 0.9781(6) 0.3745(5) 0.3979(9)
Co5_9 Co 0.91542(6) 0.47761(5) 0.68871(9)
N8_9 N 0.9891(3) 0.5288(2) 0.5895(5)
O1_10 O 0.8078(2) 0.0343(2) 0.1205(4)
O2_10 O 0.7566(2) 0.0900(2) 0.0253(4)
O3_10 O 0.8229(2) 0.0250(2) 0.2974(4)
N4_10 N 0.7537(3) 0.0928(3) 0.2644(6)
C9_10 C 0.6398(3) 0.0299(3) 0.0002(6)
H6_10 H 0.6544 0.0188 0.0576
C10_10 C 0.8104(3) 0.0078(3) 0.2007(6)
N5_10 N 0.7078(5) 0.0630(4) 0.2688(9)
Cl1_10 Cl 0.92211(10) 0.13913(10) 0.19650(19)
N6_7 N 0.7990(4) 0.0706(3) 0.4939(5)
N1_4 N 0.5961(3) 0.0618(3) 0.8272(5)
C1_10 C 0.6744(3) 0.0745(3) 0.9343(6)
C2_10 C 0.6512(3) 0.0892(3) 0.8482(6)
H1_10 H 0.6749 0.1193 0.8036
C4_10 C 0.5831(4) 0.0023(3) 0.9792(7)
C7_10 C 0.7376(3) 0.1088(3) 0.9559(6)
C12_10 C 0.5629(3) 0.0192(3) 0.8922(6)
C3_10 C 0.7958(3) 0.9477(3) 0.1807(6)
H2_10 H 0.5585 0.9723 0.0233
C5_10 C 0.7741(3) 0.9240(3) 0.0801(6)
H3_10 H 0.7701 0.9459 0.0267
C6_10 C 0.7676(3) 0.8410(3) 0.1310(6)
H4_10 H 0.7585 0.8044 0.1141
C8_10 C 0.8042(3) 0.9165(3) 0.2587(6)
H5_10 H 0.8192 0.9315 0.3271
C11_10 C 0.7896(4) 0.8621(4) 0.2319(7)
H7_10 H 0.7948 0.8399 0.2827
H8_10 H 0.5245 0.9999 0.8785
C3_11 C 0.0523(3) 0.8481(4) 0.1807(6)
H2_11 H 0.0277 0.5862 0.0233
C5_11 C 0.0760(3) 0.8501(4) 0.0801(6)
H3_11 H 0.0541 0.8242 0.0267
C6_11 C 0.1590(3) 0.9266(4) 0.1310(6)
H4_11 H 0.1956 0.9541 0.1141
C8_11 C 0.0835(3) 0.8877(4) 0.2587(6)
H5_11 H 0.0685 0.8877 0.3271
C11_11 C 0.1379(4) 0.9275(6) 0.2319(7)
H7_11 H 0.1601 0.9549 0.2827
H8_11 H 0.0001 0.5246 0.8785
O1_11 O 0.9657(2) 0.7735(3) 0.1205(4)
O2_11 O 0.9100(2) 0.6666(3) 0.0253(4)
O3_11 O 0.9750(2) 0.7979(3) 0.2974(4)
N4_11 N 0.9072(3) 0.6609(4) 0.2644(6)
C9_11 C 0.9701(3) 0.6099(4) 0.0002(6)
H6_11 H 0.9812 0.6356 0.0576
C10_11 C 0.9922(3) 0.8026(4) 0.2007(6)
N5_11 N 0.9370(4) 0.6448(6) 0.2688(9)
Cl1_11 Cl 0.86087(10) 0.78298(14) 0.19650(19)
N6_8 N 0.9294(3) 0.7285(5) 0.4939(5)
N1_5 N 0.9382(3) 0.5343(4) 0.8272(5)
C1_11 C 0.9255(3) 0.5999(4) 0.9343(6)
C2_11 C 0.9108(3) 0.5620(4) 0.8482(6)
H1_11 H 0.8807 0.5556 0.8036
C4_11 C 0.9977(3) 0.5808(5) 0.9792(7)
C7_11 C 0.8912(3) 0.6288(4) 0.9559(6)
C12_11 C 0.9808(3) 0.5437(4) 0.8922(6)
O1_12 O 0.2265(3) 0.1922(2) 0.1205(4)
O2_12 O 0.3334(3) 0.2434(2) 0.0253(4)
O3_12 O 0.2021(3) 0.1771(2) 0.2974(4)
C3_12 C 0.1519(4) 0.2042(3) 0.1807(6)
H2_12 H 0.4138 0.4415 0.0233
N4_12 N 0.3391(4) 0.2463(3) 0.2644(6)
C5_12 C 0.1499(4) 0.2259(3) 0.0801(6)
H3_12 H 0.1758 0.2299 0.0267
C6_12 C 0.0734(4) 0.2324(3) 0.1310(6)
H4_12 H 0.0459 0.2415 0.1141
C8_12 C 0.1123(4) 0.1958(3) 0.2587(6)
H5_12 H 0.1123 0.1808 0.3271
C9_12 C 0.3901(4) 0.3602(3) 0.0002(6)
H6_12 H 0.3644 0.3456 0.0576
C10_12 C 0.1974(4) 0.1896(3) 0.2007(6)
C11_12 C 0.0725(6) 0.2104(4) 0.2319(7)
H7_12 H 0.0451 0.2052 0.2827
N5_12 N 0.3552(6) 0.2922(5) 0.2688(9)
Cl1_12 Cl 0.21702(14) 0.07789(10) 0.19650(19)
N6_9 N 0.2715(5) 0.2010(4) 0.4939(5)
N1_6 N 0.4657(4) 0.4039(3) 0.8272(5)
C1_12 C 0.4001(4) 0.3256(3) 0.9343(6)
C2_12 C 0.4380(4) 0.3488(3) 0.8482(6)
H1_12 H 0.4444 0.3251 0.8036
C4_12 C 0.4192(5) 0.4169(4) 0.9792(7)
C7_12 C 0.3712(4) 0.2624(3) 0.9559(6)
C12_12 C 0.4563(4) 0.4371(3) 0.8922(6)
H8_12 H 0.4754 0.4755 0.8785
N6_10 N 0.1324(4) 0.7372(3) 0.1605(5)
O1_13 O 0.1411(2) 0.7010(2) 0.7872(4)
O2_13 O 0.0899(2) 0.7567(2) 0.6920(4)
O3_13 O 0.1562(2) 0.6917(2) 0.9641(4)
C1_13 C 0.0077(3) 0.7412(3) 0.6010(6)
H1_13 H 0.0082 0.7860 0.4703
C3_13 C 0.1291(3) 0.6144(3) 0.8474(6)
N4_13 N 0.0870(3) 0.7595(3) 0.9311(6)
C5_13 C 0.1074(3) 0.5907(3) 0.7468(6)
H3_13 H 0.1034 0.6126 0.6934
C6_13 C 0.1009(3) 0.5077(3) 0.7977(6)
H4_13 H 0.0918 0.4711 0.7808
C7_13 C 0.0709(3) 0.7755(3) 0.6226(6)
C8_13 C 0.1375(3) 0.5832(3) 0.9254(6)
H5_13 H 0.1525 0.5982 0.9938
C10_13 C 0.1437(3) 0.6745(3) 0.8674(6)
C11_13 C 0.1229(4) 0.5288(4) 0.8986(7)
H7_13 H 0.1281 0.5066 0.9494
N5_13 N 0.0411(5) 0.7297(4) 0.9355(9)
Cl1_13 Cl 0.25544(10) 0.80580(10) 0.86317(19)
C2_13 C 0.9845(3) 0.7559(3) 0.5149(6)
C4_13 C 0.9164(4) 0.6690(3) 0.6459(7)
H2_13 H 0.8918 0.6390 0.6900
C9_13 C 0.9731(3) 0.6966(3) 0.6669(6)
H6_13 H 0.9877 0.6855 0.7243
C12_13 C 0.8962(3) 0.6859(3) 0.5589(6)
H8_13 H 0.8578 0.6666 0.5452
N6_11 N 0.2628(3) 0.3951(5) 0.1605(5)
O1_14 O 0.2990(2) 0.4402(3) 0.7872(4)
O2_14 O 0.2433(2) 0.3333(3) 0.6920(4)
O3_14 O 0.3083(2) 0.4646(3) 0.9641(4)
C1_14 C 0.2588(3) 0.2666(4) 0.6010(6)
C2_14 C 0.2441(3) 0.2287(4) 0.5149(6)
H1_14 H 0.2140 0.2223 0.4703
C3_14 C 0.3856(3) 0.5148(4) 0.8474(6)
C4_14 C 0.3310(3) 0.2475(5) 0.6459(7)
H2_14 H 0.3610 0.2529 0.6900
N4_14 N 0.2405(3) 0.3276(4) 0.9311(6)
C5_14 C 0.4093(3) 0.5168(4) 0.7468(6)
H3_14 H 0.3874 0.4909 0.6934
C6_14 C 0.4923(3) 0.5933(4) 0.7977(6)
H4_14 H 0.5289 0.6208 0.7808
C7_14 C 0.2245(3) 0.2955(4) 0.6226(6)
C8_14 C 0.4168(3) 0.5544(4) 0.9254(6)
H5_14 H 0.4018 0.5544 0.9938
C9_14 C 0.3034(3) 0.2766(4) 0.6669(6)
H6_14 H 0.3145 0.3023 0.7243
C10_14 C 0.3255(3) 0.4693(4) 0.8674(6)
C11_14 C 0.4712(4) 0.5942(6) 0.8986(7)
H7_14 H 0.4934 0.6216 0.9494
C12_14 C 0.3141(3) 0.2104(4) 0.5589(6)
H8_14 H 0.3334 0.1913 0.5452
N5_14 N 0.2703(4) 0.3115(6) 0.9355(9)
Cl1_14 Cl 0.19420(10) 0.44965(14) 0.86317(19)
C2_15 C 0.7713(4) 0.0155(3) 0.5149(6)
C4_15 C 0.7525(5) 0.0836(4) 0.6459(7)
H2_15 H 0.7471 0.1082 0.6900
C9_15 C 0.7234(4) 0.0269(3) 0.6669(6)
H6_15 H 0.6977 0.0123 0.7243
C12_15 C 0.7896(4) 0.1038(3) 0.5589(6)
H8_15 H 0.8087 0.1422 0.5452
N6_12 N 0.6049(5) 0.8676(4) 0.1605(5)
O1_15 O 0.5598(3) 0.8589(2) 0.7872(4)
O2_15 O 0.6667(3) 0.9101(2) 0.6920(4)
O3_15 O 0.5354(3) 0.8438(2) 0.9641(4)
C1_15 C 0.7334(4) 0.9923(3) 0.6010(6)
H1_15 H 0.7777 0.9918 0.4703
C3_15 C 0.4852(4) 0.8709(3) 0.8474(6)
N4_15 N 0.6724(4) 0.9130(3) 0.9311(6)
C5_15 C 0.4832(4) 0.8926(3) 0.7468(6)
H3_15 H 0.5091 0.8966 0.6934
C6_15 C 0.4067(4) 0.8991(3) 0.7977(6)
H4_15 H 0.3792 0.9082 0.7808
C7_15 C 0.7045(4) 0.9291(3) 0.6226(6)
C8_15 C 0.4456(4) 0.8625(3) 0.9254(6)
H5_15 H 0.4456 0.8475 0.9938
C10_15 C 0.5307(4) 0.8563(3) 0.8674(6)
C11_15 C 0.4058(6) 0.8771(4) 0.8986(7)
H7_15 H 0.3784 0.8719 0.9494
N5_15 N 0.6885(6) 0.9589(5) 0.9355(9)
Cl1_15 Cl 0.55035(14) 0.74456(10) 0.86317(19)
O1_16 O 0.4745(2) 0.3676(2) 0.4538(4)
O2_16 O 0.4233(2) 0.4233(2) 0.3586(4)
O3_16 O 0.4896(2) 0.3583(2) 0.6307(4)
C1_16 C 0.3411(3) 0.4078(3) 0.2676(6)
C2_16 C 0.3179(3) 0.4225(3) 0.1815(6)
H1_16 H 0.3416 0.4526 0.1369
C3_16 C 0.4625(3) 0.2810(3) 0.5140(6)
C4_16 C 0.2498(4) 0.3356(3) 0.3125(7)
H2_16 H 0.2252 0.3056 0.3566
N4_16 N 0.4204(3) 0.4261(3) 0.5977(6)
C5_16 C 0.4408(3) 0.2573(3) 0.4134(6)
H3_16 H 0.4368 0.2792 0.3600
C6_16 C 0.4343(3) 0.1743(3) 0.4643(6)
H4_16 H 0.4252 0.1377 0.4474
C7_16 C 0.4043(3) 0.4421(3) 0.2892(6)
C8_16 C 0.4709(3) 0.2498(3) 0.5920(6)
H5_16 H 0.4859 0.2648 0.6604
C9_16 C 0.3065(3) 0.3632(3) 0.3335(6)
H6_16 H 0.3211 0.3521 0.3909
C10_16 C 0.4771(3) 0.3411(3) 0.5340(6)
C11_16 C 0.4563(4) 0.1954(4) 0.5652(7)
H7_16 H 0.4615 0.1732 0.6160
C12_16 C 0.2296(3) 0.3525(3) 0.2255(6)
H8_16 H 0.1912 0.3332 0.2118
N5_16 N 0.3745(5) 0.3963(4) 0.6021(9)
Cl1_16 Cl 0.58878(10) 0.47246(10) 0.52983(19)
O1_17 O 0.6324(2) 0.1068(3) 0.4538(4)
O3_17 O 0.6417(2) 0.1312(3) 0.6307(4)
C3_17 C 0.7190(3) 0.1814(4) 0.5140(6)
C5_17 C 0.7427(3) 0.1834(4) 0.4134(6)
H3_17 H 0.7208 0.1575 0.3600
C6_17 C 0.8257(3) 0.2599(4) 0.4643(6)
H4_17 H 0.8623 0.2874 0.4474
C8_17 C 0.7502(3) 0.2210(4) 0.5920(6)
H5_17 H 0.7352 0.2210 0.6604
C10_17 C 0.6589(3) 0.1359(4) 0.5340(6)
C11_17 C 0.8046(4) 0.2608(6) 0.5652(7)
H7_17 H 0.8268 0.2882 0.6160
Cl1_17 Cl 0.52754(10) 0.11631(14) 0.52983(19)
O2_17 O 0.5767(2) 0.9999(3) 0.3586(4)
C1_17 C 0.5922(3) 0.9332(4) 0.2676(6)
C2_17 C 0.5775(3) 0.8953(4) 0.1815(6)
H1_17 H 0.5474 0.8889 0.1369
C4_17 C 0.6644(3) 0.9141(5) 0.3125(7)
H2_17 H 0.6944 0.9195 0.3566
N4_17 N 0.5739(3) 0.9942(4) 0.5977(6)
C7_17 C 0.5579(3) 0.9621(4) 0.2892(6)
C9_17 C 0.6368(3) 0.9432(4) 0.3335(6)
H6_17 H 0.6479 0.9689 0.3909
C12_17 C 0.6475(3) 0.8770(4) 0.2255(6)
H8_17 H 0.6668 0.8579 0.2118
N5_17 N 0.6037(4) 0.9781(6) 0.6021(9)
O2_18 O 0.0001(3) 0.5767(2) 0.3586(4)
C1_18 C 0.0668(4) 0.6589(3) 0.2676(6)
C2_18 C 0.1047(4) 0.6821(3) 0.1815(6)
H1_18 H 0.1111 0.6584 0.1369
C4_18 C 0.0859(5) 0.7502(4) 0.3125(7)
H2_18 H 0.0805 0.7748 0.3566
N4_18 N 0.0058(4) 0.5796(3) 0.5977(6)
C7_18 C 0.0379(4) 0.5957(3) 0.2892(6)
C9_18 C 0.0568(4) 0.6935(3) 0.3335(6)
H6_18 H 0.0311 0.6789 0.3909
C12_18 C 0.1230(4) 0.7704(3) 0.2255(6)
H8_18 H 0.1421 0.8088 0.2118
N5_18 N 0.0219(6) 0.6255(5) 0.6021(9)
O1_18 O 0.8932(3) 0.5255(2) 0.4538(4)
O3_18 O 0.8688(3) 0.5104(2) 0.6307(4)
C3_18 C 0.8186(4) 0.5375(3) 0.5140(6)
C5_18 C 0.8166(4) 0.5592(3) 0.4134(6)
H3_18 H 0.8425 0.5632 0.3600
C6_18 C 0.7401(4) 0.5657(3) 0.4643(6)
H4_18 H 0.7126 0.5748 0.4474
C8_18 C 0.7790(4) 0.5291(3) 0.5920(6)
H5_18 H 0.7790 0.5141 0.6604
C10_18 C 0.8641(4) 0.5229(3) 0.5340(6)
C11_18 C 0.7392(6) 0.5437(4) 0.5652(7)
H7_18 H 0.7118 0.5385 0.6160
Cl1_18 Cl 0.88369(14) 0.41122(10) 0.52983(19)
loop_
_geom_bond_atom_site_label_1
_geom_bond_atom_site_label_2
_geom_bond_site_symmetry_1
_geom_bond_site_symmetry_2
N2 C5 1_555 1_555
C3 C5 1_555 1_555
C5 H3 1_555 1_555
C6 N2 1_555 1_555
H4 C6 1_555 1_555
C8 C3 1_555 1_555
H5 C8 1_555 1_555
C11 C6 1_555 1_555
H7 C11 1_555 1_555
C8 C11 1_555 1_555
O4 C7 1_555 1_555
N1 C2 1_555 1_555
C1 C2 1_555 1_555
C2 H1 1_555 1_555
C12 N1 1_555 1_555
Co5 O4 1_555 1_555
Co6 N1 1_555 1_555
C1 C7 1_555 1_555
C4 C12 1_555 1_555
Co1 O1 1_555 1_555
Co2 O3 1_555 1_555
O1 C10 1_555 1_555
O2 Co1 1_555 1_555
O3 C10 1_555 1_555
N3 Co1 1_555 1_555
N4 N3 1_555 1_555
H6 C9 1_555 1_555
N5 N4 1_555 1_555
Cl1 Co1 1_555 1_555
Co4 N3 1_555 1_555
O5 Co2 1_555 1_555
N6 Co2 1_555 1_555
N8 Co1 1_555 1_555
Co2 N3 1_555 1_555
Co2 Cl1 1_555 1_555
Co4 N8 1_555 1_555
O4_2 C7_2 1_555 1_555
N1_2 C2_2 1_555 1_555
C1_2 C2_2 1_555 1_555
C2_2 H1_2 1_555 1_555
C12_2 N1_2 1_555 1_555
Co5_2 O4_2 1_555 1_555
Co6_2 N1_2 1_555 1_555
C1_2 C7_2 1_555 1_555
C4_2 C12_2 1_555 1_555
Co1_2 O1_2 1_555 1_555
Co2_2 O3_2 1_555 1_555
O1_2 C10_2 1_555 1_555
O2_2 Co1_2 1_555 1_555
O3_2 C10_2 1_555 1_555
N3_2 Co1_2 1_555 1_555
N4_2 N3_2 1_555 1_555
H6_2 C9_2 1_555 1_555
N5_2 N4_2 1_555 1_555
Cl1_2 Co1_2 1_555 1_555
Co4_2 N3_2 1_555 1_555
O5_2 Co2_2 1_555 1_555
N6_2 Co2_2 1_555 1_555
N8_2 Co1_2 1_555 1_555
Co2_2 N3_2 1_555 1_555
Co2_2 Cl1_2 1_555 1_555
Co4_2 N8_2 1_555 1_555
N2_2 C5_2 1_555 1_555
C3_2 C5_2 1_555 1_555
C5_2 H3_2 1_555 1_555
C6_2 N2_2 1_555 1_555
H4_2 C6_2 1_555 1_555
C8_2 C3_2 1_555 1_555
H5_2 C8_2 1_555 1_555
C11_2 C6_2 1_555 1_555
H7_2 C11_2 1_555 1_555
C8_2 C11_2 1_555 1_555
O4_3 C7_3 1_555 1_555
N1_3 C2_3 1_555 1_555
C1_3 C2_3 1_555 1_555
C2_3 H1_3 1_555 1_555
C12_3 N1_3 1_555 1_555
H8_3 C12_3 1_555 1_555
Co5_3 O4_3 1_555 1_555
Co6_3 N1_3 1_555 1_555
C1_3 C7_3 1_555 1_555
C4_3 C12_3 1_555 1_555
Co1_3 O1_3 1_555 1_555
Co2_3 O3_3 1_555 1_555
O1_3 C10_3 1_555 1_555
O2_3 Co1_3 1_555 1_555
O3_3 C10_3 1_555 1_555
N2_3 C5_3 1_555 1_555
C3_3 C5_3 1_555 1_555
N3_3 Co1_3 1_555 1_555
N4_3 N3_3 1_555 1_555
C5_3 H3_3 1_555 1_555
C6_3 N2_3 1_555 1_555
H4_3 C6_3 1_555 1_555
C8_3 C3_3 1_555 1_555
H5_3 C8_3 1_555 1_555
H6_3 C9_3 1_555 1_555
C10_3 C3_3 1_555 1_555
C11_3 C6_3 1_555 1_555
H7_3 C11_3 1_555 1_555
N5_3 N4_3 1_555 1_555
Cl1_3 Co1_3 1_555 1_555
Co4_3 N3_3 1_555 1_555
O5_3 Co2_3 1_555 1_555
N6_3 Co2_3 1_555 1_555
N8_3 Co1_3 1_555 1_555
Co2_3 N3_3 1_555 1_555
Co2_3 Cl1_3 1_555 1_555
C8_3 C11_3 1_555 1_555
Co4_3 N8_3 1_555 1_555
N6_2 C2_4 1_555 1_555
C4_4 H2_4 1_555 1_555
H6_4 C9_4 1_555 1_555
C12_4 N6_2 1_555 1_555
H8_4 C12_4 1_555 1_555
C4_4 C9_4 1_555 1_555
C4_4 C12_4 1_555 1_555
Co1_4 O1_4 1_555 1_555
O1_4 C10_4 1_555 1_555
O2_4 Co1_4 1_555 1_555
O3_4 C10_4 1_555 1_555
O4_4 C7_4 1_555 1_555
N2_4 C5_4 1_555 1_555
C3_4 C5_4 1_555 1_555
N3_4 Co1_4 1_555 1_555
N4_4 N3_4 1_555 1_555
C5_4 H3_4 1_555 1_555
C6_4 N2_4 1_555 1_555
H4_4 C6_4 1_555 1_555
C7_4 O2_4 1_555 1_555
C8_4 C3_4 1_555 1_555
H5_4 C8_4 1_555 1_555
C10_4 C3_4 1_555 1_555
C11_4 C6_4 1_555 1_555
H7_4 C11_4 1_555 1_555
N5_4 N4_4 1_555 1_555
Cl1_4 Co1_4 1_555 1_555
Co3_4 N2_4 1_555 1_555
Co3_2 N3_4 1_555 1_555
Co5_4 O4_4 1_555 1_555
N7_4 Co1_4 1_555 1_555
N8_4 Co1_4 1_555 1_555
C1_4 C7_4 1_555 1_555
C8_4 C11_4 1_555 1_555
Co3_2 N8_4 1_555 1_555
Co5_4 N8_4 1_555 1_555
O5_4 Co2_4 1_555 1_555
N6_4 Co2_4 1_555 1_555
Co1_5 O1_5 1_555 1_555
O1_5 C10_5 1_555 1_555
O2_5 Co1_5 1_555 1_555
O3_5 C10_5 1_555 1_555
O4_5 C7_5 1_555 1_555
N6_3 C2_5 1_555 1_555
N2_5 C5_5 1_555 1_555
C1_5 C2_5 1_555 1_555
C2_5 H1_5 1_555 1_555
C3_5 C5_5 1_555 1_555
N3_5 Co1_5 1_555 1_555
C4_5 H2_5 1_555 1_555
N4_5 N3_5 1_555 1_555
C5_5 H3_5 1_555 1_555
C6_5 N2_5 1_555 1_555
H4_5 C6_5 1_555 1_555
C7_5 O2_5 1_555 1_555
C8_5 C3_5 1_555 1_555
H5_5 C8_5 1_555 1_555
C9_5 C1_5 1_555 1_555
H6_5 C9_5 1_555 1_555
C10_5 C3_5 1_555 1_555
C11_5 C6_5 1_555 1_555
H7_5 C11_5 1_555 1_555
C12_5 N6_3 1_555 1_555
H8_5 C12_5 1_555 1_555
N5_5 N4_5 1_555 1_555
Cl1_5 Co1_5 1_555 1_555
Co3_5 N2_5 1_555 1_555
Co3_3 N3_5 1_555 1_555
Co5_5 O4_5 1_555 1_555
N7_5 Co1_5 1_555 1_555
N8_5 Co1_5 1_555 1_555
C1_5 C7_5 1_555 1_555
C4_5 C9_5 1_555 1_555
C4_5 C12_5 1_555 1_555
C8_5 C11_5 1_555 1_555
Co3_3 N8_5 1_555 1_555
Co5_5 N8_5 1_555 1_555
O5_5 Co2_5 1_555 1_555
N6_5 Co2_5 1_555 1_555
Co1_6 O1_6 1_555 1_555
O1_6 C10_6 1_555 1_555
O2_6 Co1_6 1_555 1_555
O3_6 C10_6 1_555 1_555
O4_6 C7_6 1_555 1_555
N2_6 C5_6 1_555 1_555
C3_6 C5_6 1_555 1_555
N3_6 Co1_6 1_555 1_555
N4_6 N3_6 1_555 1_555
C5_6 H3_6 1_555 1_555
C6_6 N2_6 1_555 1_555
H4_6 C6_6 1_555 1_555
C7_6 O2_6 1_555 1_555
C8_6 C3_6 1_555 1_555
H5_6 C8_6 1_555 1_555
C10_6 C3_6 1_555 1_555
C11_6 C6_6 1_555 1_555
H7_6 C11_6 1_555 1_555
N5_6 N4_6 1_555 1_555
Cl1_6 Co1_6 1_555 1_555
Co3_6 N2_6 1_555 1_555
Co3 N3_6 1_555 1_555
Co5_6 O4_6 1_555 1_555
N7_6 Co1_6 1_555 1_555
N8_6 Co1_6 1_555 1_555
C1_6 C7_6 1_555 1_555
C8_6 C11_6 1_555 1_555
Co3 N8_6 1_555 1_555
Co5_6 N8_6 1_555 1_555
O5_6 Co2_6 1_555 1_555
N6_6 Co2_6 1_555 1_555
N6 C2_6 1_555 1_555
C4_6 H2_6 1_555 1_555
H6_6 C9_6 1_555 1_555
C12_6 N6 1_555 1_555
H8_6 C12_6 1_555 1_555
C4_6 C9_6 1_555 1_555
C4_6 C12_6 1_555 1_555
Co1_7 O1_7 1_555 1_555
Co6_3 O3_7 1_555 1_555
O1_7 C10_7 1_555 1_555
O2_7 Co1_7 1_555 1_555
O3_7 C10_7 1_555 1_555
O4_7 C7_7 1_555 1_555
N6_5 C2_7 1_555 1_555
N2_7 C5_7 1_555 1_555
C1_7 C2_7 1_555 1_555
C2_7 H1_7 1_555 1_555
C3_7 C5_7 1_555 1_555
N3_7 Co1_7 1_555 1_555
C4_7 H2_7 1_555 1_555
N4_7 N3_7 1_555 1_555
C5_7 H3_7 1_555 1_555
C6_7 N2_7 1_555 1_555
H4_7 C6_7 1_555 1_555
C7_7 O2_7 1_555 1_555
C8_7 C3_7 1_555 1_555
H5_7 C8_7 1_555 1_555
C9_7 C1_7 1_555 1_555
H6_7 C9_7 1_555 1_555
C10_7 C3_7 1_555 1_555
C11_7 C6_7 1_555 1_555
H7_7 C11_7 1_555 1_555
C12_7 N6_5 1_555 1_555
H8_7 C12_7 1_555 1_555
N5_7 N4_7 1_555 1_555
Cl1_7 Co1_7 1_555 1_555
Co4_3 N2_7 1_555 1_555
Co3_5 N3_7 1_555 1_555
Co5_7 O4_7 1_555 1_555
O5_7 Co6_3 1_555 1_555
N7_7 Co1_7 1_555 1_555
N8_7 Co1_7 1_555 1_555
Co6_3 N3_7 1_555 1_555
Co6_3 Cl1_7 1_555 1_555
C1_7 C7_7 1_555 1_555
C4_7 C9_7 1_555 1_555
C4_7 C12_7 1_555 1_555
C8_7 C11_7 1_555 1_555
Co3_5 N8_7 1_555 1_555
Co5_7 N8_7 1_555 1_555
O4_8 C7_8 1_555 1_555
N6_6 C2_8 1_555 1_555
C1_8 C2_8 1_555 1_555
C2_8 H1_8 1_555 1_555
C4_8 H2_8 1_555 1_555
C7_8 O2_8 1_555 1_555
C9_8 C1_8 1_555 1_555
H6_8 C9_8 1_555 1_555
C12_8 N6_6 1_555 1_555
H8_8 C12_8 1_555 1_555
N5_8 N4_8 1_555 1_555
Co5_8 O4_8 1_555 1_555
C1_8 C7_8 1_555 1_555
C4_8 C9_8 1_555 1_555
C4_8 C12_8 1_555 1_555
Co3_6 N8_8 1_555 1_555
Co5_8 N8_8 1_555 1_555
Co1_8 O1_8 1_555 1_555
Co6 O3_8 1_555 1_555
O1_8 C10_8 1_555 1_555
O3_8 C10_8 1_555 1_555
N2_8 C5_8 1_555 1_555
C3_8 C5_8 1_555 1_555
N3_8 Co1_8 1_555 1_555
C5_8 H3_8 1_555 1_555
C6_8 N2_8 1_555 1_555
H4_8 C6_8 1_555 1_555
C8_8 C3_8 1_555 1_555
H5_8 C8_8 1_555 1_555
C10_8 C3_8 1_555 1_555
C11_8 C6_8 1_555 1_555
H7_8 C11_8 1_555 1_555
Cl1_8 Co1_8 1_555 1_555
Co4 N2_8 1_555 1_555
O5_8 Co6 1_555 1_555
N7_8 Co1_8 1_555 1_555
Co6 N3_8 1_555 1_555
Co6 Cl1_8 1_555 1_555
C8_8 C11_8 1_555 1_555
Co1_9 O1_9 1_555 1_555
Co6_2 O3_9 1_555 1_555
O1_9 C10_9 1_555 1_555
O3_9 C10_9 1_555 1_555
N2_9 C5_9 1_555 1_555
C3_9 C5_9 1_555 1_555
N3_9 Co1_9 1_555 1_555
C5_9 H3_9 1_555 1_555
C6_9 N2_9 1_555 1_555
H4_9 C6_9 1_555 1_555
C8_9 C3_9 1_555 1_555
H5_9 C8_9 1_555 1_555
C10_9 C3_9 1_555 1_555
C11_9 C6_9 1_555 1_555
H7_9 C11_9 1_555 1_555
Cl1_9 Co1_9 1_555 1_555
Co4_2 N2_9 1_555 1_555
O5_9 Co6_2 1_555 1_555
N7_9 Co1_9 1_555 1_555
Co6_2 N3_9 1_555 1_555
Co6_2 Cl1_9 1_555 1_555
C8_9 C11_9 1_555 1_555
O4_9 C7_9 1_555 1_555
N6_4 C2_9 1_555 1_555
C1_9 C2_9 1_555 1_555
C2_9 H1_9 1_555 1_555
C4_9 H2_9 1_555 1_555
C7_9 O2_9 1_555 1_555
C9_9 C1_9 1_555 1_555
H6_9 C9_9 1_555 1_555
C12_9 N6_4 1_555 1_555
H8_9 C12_9 1_555 1_555
N5_9 N4_9 1_555 1_555
Co5_9 O4_9 1_555 1_555
C1_9 C7_9 1_555 1_555
C4_9 C9_9 1_555 1_555
C4_9 C12_9 1_555 1_555
Co3_4 N8_9 1_555 1_555
Co5_9 N8_9 1_555 1_555
Co3_2 O1_10 1_555 1_555
Co5_4 O3_10 1_555 1_555
O1_10 C10_10 1_555 1_555
O2_10 Co3_2 1_555 1_555
O3_10 C10_10 1_555 1_555
N4_10 N8_4 1_555 1_555
H6_10 C9_10 1_555 1_555
N5_10 N4_10 1_555 1_555
Cl1_10 Co3_2 1_555 1_555
N6_7 Co5_4 1_555 1_555
Co5_4 Cl1_10 1_555 1_555
O5_4 C7_10 1_555 1_555
N1_4 C2_10 1_555 1_555
C1_10 C2_10 1_555 1_555
C2_10 H1_10 1_555 1_555
C12_10 N1_4 1_555 1_555
Co5_8 N1_4 1_555 1_555
C1_10 C7_10 1_555 1_555
C4_10 C12_10 1_555 1_555
N7_3 C5_10 1_555 1_555
C3_10 C5_10 1_555 1_555
C5_10 H3_10 1_555 1_555
C6_10 N7_3 1_555 1_555
H4_10 C6_10 1_555 1_555
C8_10 C3_10 1_555 1_555
H5_10 C8_10 1_555 1_555
C11_10 C6_10 1_555 1_555
H7_10 C11_10 1_555 1_555
C8_10 C11_10 1_555 1_555
N7 C5_11 1_555 1_555
C3_11 C5_11 1_555 1_555
C5_11 H3_11 1_555 1_555
C6_11 N7 1_555 1_555
H4_11 C6_11 1_555 1_555
C8_11 C3_11 1_555 1_555
H5_11 C8_11 1_555 1_555
C11_11 C6_11 1_555 1_555
H7_11 C11_11 1_555 1_555
C8_11 C11_11 1_555 1_555
Co3_3 O1_11 1_555 1_555
Co5_5 O3_11 1_555 1_555
O1_11 C10_11 1_555 1_555
O2_11 Co3_3 1_555 1_555
O3_11 C10_11 1_555 1_555
N4_11 N8_5 1_555 1_555
H6_11 C9_11 1_555 1_555
N5_11 N4_11 1_555 1_555
Cl1_11 Co3_3 1_555 1_555
N6_8 Co5_5 1_555 1_555
Co5_5 Cl1_11 1_555 1_555
O5_5 C7_11 1_555 1_555
N1_5 C2_11 1_555 1_555
C1_11 C2_11 1_555 1_555
C2_11 H1_11 1_555 1_555
C12_11 N1_5 1_555 1_555
Co5_9 N1_5 1_555 1_555
C1_11 C7_11 1_555 1_555
C4_11 C12_11 1_555 1_555
Co3 O1_12 1_555 1_555
Co5_6 O3_12 1_555 1_555
O1_12 C10_12 1_555 1_555
O2_12 Co3 1_555 1_555
O3_12 C10_12 1_555 1_555
N7_2 C5_12 1_555 1_555
C3_12 C5_12 1_555 1_555
N4_12 N8_6 1_555 1_555
C5_12 H3_12 1_555 1_555
C6_12 N7_2 1_555 1_555
H4_12 C6_12 1_555 1_555
C8_12 C3_12 1_555 1_555
H5_12 C8_12 1_555 1_555
H6_12 C9_12 1_555 1_555
C10_12 C3_12 1_555 1_555
C11_12 C6_12 1_555 1_555
H7_12 C11_12 1_555 1_555
N5_12 N4_12 1_555 1_555
Cl1_12 Co3 1_555 1_555
N6_9 Co5_6 1_555 1_555
Co5_6 Cl1_12 1_555 1_555
C8_12 C11_12 1_555 1_555
O5_6 C7_12 1_555 1_555
N1_6 C2_12 1_555 1_555
C1_12 C2_12 1_555 1_555
C2_12 H1_12 1_555 1_555
C12_12 N1_6 1_555 1_555
H8_12 C12_12 1_555 1_555
Co5_7 N1_6 1_555 1_555
C1_12 C7_12 1_555 1_555
C4_12 C12_12 1_555 1_555
N6_10 Co5 1_555 1_555
Co4 O1_13 1_555 1_555
O1_13 C10_13 1_555 1_555
O2_13 Co4 1_555 1_555
O3_13 C10_13 1_555 1_555
O5 C7_13 1_555 1_555
N7_9 C5_13 1_555 1_555
C3_13 C5_13 1_555 1_555
N4_13 N8 1_555 1_555
C5_13 H3_13 1_555 1_555
C6_13 N7_9 1_555 1_555
H4_13 C6_13 1_555 1_555
C7_13 O2_13 1_555 1_555
C8_13 C3_13 1_555 1_555
H5_13 C8_13 1_555 1_555
C10_13 C3_13 1_555 1_555
C11_13 C6_13 1_555 1_555
H7_13 C11_13 1_555 1_555
N5_13 N4_13 1_555 1_555
Cl1_13 Co4 1_555 1_555
C1_13 C7_13 1_555 1_555
C8_13 C11_13 1_555 1_555
N6_8 C2_13 1_555 1_555
C4_13 H2_13 1_555 1_555
H6_13 C9_13 1_555 1_555
C12_13 N6_8 1_555 1_555
H8_13 C12_13 1_555 1_555
C4_13 C9_13 1_555 1_555
C4_13 C12_13 1_555 1_555
N6_11 Co5_2 1_555 1_555
Co4_2 O1_14 1_555 1_555
O1_14 C10_14 1_555 1_555
O2_14 Co4_2 1_555 1_555
O3_14 C10_14 1_555 1_555
O5_2 C7_14 1_555 1_555
N6_9 C2_14 1_555 1_555
N7_7 C5_14 1_555 1_555
C1_14 C2_14 1_555 1_555
C2_14 H1_14 1_555 1_555
C3_14 C5_14 1_555 1_555
C4_14 H2_14 1_555 1_555
N4_14 N8_2 1_555 1_555
C5_14 H3_14 1_555 1_555
C6_14 N7_7 1_555 1_555
H4_14 C6_14 1_555 1_555
C7_14 O2_14 1_555 1_555
C8_14 C3_14 1_555 1_555
H5_14 C8_14 1_555 1_555
C9_14 C1_14 1_555 1_555
H6_14 C9_14 1_555 1_555
C10_14 C3_14 1_555 1_555
C11_14 C6_14 1_555 1_555
H7_14 C11_14 1_555 1_555
C12_14 N6_9 1_555 1_555
H8_14 C12_14 1_555 1_555
N5_14 N4_14 1_555 1_555
Cl1_14 Co4_2 1_555 1_555
C1_14 C7_14 1_555 1_555
C4_14 C9_14 1_555 1_555
C4_14 C12_14 1_555 1_555
C8_14 C11_14 1_555 1_555
N6_7 C2_15 1_555 1_555
C4_15 H2_15 1_555 1_555
H6_15 C9_15 1_555 1_555
C12_15 N6_7 1_555 1_555
H8_15 C12_15 1_555 1_555
C4_15 C9_15 1_555 1_555
C4_15 C12_15 1_555 1_555
N6_12 Co5_3 1_555 1_555
Co4_3 O1_15 1_555 1_555
O1_15 C10_15 1_555 1_555
O2_15 Co4_3 1_555 1_555
O3_15 C10_15 1_555 1_555
O5_3 C7_15 1_555 1_555
N7_8 C5_15 1_555 1_555
C3_15 C5_15 1_555 1_555
N4_15 N8_3 1_555 1_555
C5_15 H3_15 1_555 1_555
C6_15 N7_8 1_555 1_555
H4_15 C6_15 1_555 1_555
C7_15 O2_15 1_555 1_555
C8_15 C3_15 1_555 1_555
H5_15 C8_15 1_555 1_555
C10_15 C3_15 1_555 1_555
C11_15 C6_15 1_555 1_555
H7_15 C11_15 1_555 1_555
N5_15 N4_15 1_555 1_555
Cl1_15 Co4_3 1_555 1_555
C1_15 C7_15 1_555 1_555
C8_15 C11_15 1_555 1_555
Co3_5 O1_16 1_555 1_555
Co5_7 O3_16 1_555 1_555
O1_16 C10_16 1_555 1_555
O2_16 Co3_5 1_555 1_555
O3_16 C10_16 1_555 1_555
O5_7 C7_16 1_555 1_555
N6_11 C2_16 1_555 1_555
N7_6 C5_16 1_555 1_555
C1_16 C2_16 1_555 1_555
C2_16 H1_16 1_555 1_555
C3_16 C5_16 1_555 1_555
C4_16 H2_16 1_555 1_555
N4_16 N8_7 1_555 1_555
C5_16 H3_16 1_555 1_555
C6_16 N7_6 1_555 1_555
H4_16 C6_16 1_555 1_555
C7_16 O2_16 1_555 1_555
C8_16 C3_16 1_555 1_555
H5_16 C8_16 1_555 1_555
C9_16 C1_16 1_555 1_555
H6_16 C9_16 1_555 1_555
C10_16 C3_16 1_555 1_555
C11_16 C6_16 1_555 1_555
H7_16 C11_16 1_555 1_555
C12_16 N6_11 1_555 1_555
H8_16 C12_16 1_555 1_555
N5_16 N4_16 1_555 1_555
Cl1_16 Co3_5 1_555 1_555
Co5_7 Cl1_16 1_555 1_555
C1_16 C7_16 1_555 1_555
C4_16 C9_16 1_555 1_555
C4_16 C12_16 1_555 1_555
C8_16 C11_16 1_555 1_555
Co3_6 O1_17 1_555 1_555
Co5_8 O3_17 1_555 1_555
O1_17 C10_17 1_555 1_555
O3_17 C10_17 1_555 1_555
N7_4 C5_17 1_555 1_555
C3_17 C5_17 1_555 1_555
C5_17 H3_17 1_555 1_555
C6_17 N7_4 1_555 1_555
H4_17 C6_17 1_555 1_555
C8_17 C3_17 1_555 1_555
H5_17 C8_17 1_555 1_555
C10_17 C3_17 1_555 1_555
C11_17 C6_17 1_555 1_555
H7_17 C11_17 1_555 1_555
Cl1_17 Co3_6 1_555 1_555
Co5_8 Cl1_17 1_555 1_555
C8_17 C11_17 1_555 1_555
O5_8 C7_17 1_555 1_555
N6_12 C2_17 1_555 1_555
C1_17 C2_17 1_555 1_555
C2_17 H1_17 1_555 1_555
C4_17 H2_17 1_555 1_555
C7_17 O2_17 1_555 1_555
C9_17 C1_17 1_555 1_555
H6_17 C9_17 1_555 1_555
C12_17 N6_12 1_555 1_555
H8_17 C12_17 1_555 1_555
N5_17 N4_17 1_555 1_555
C1_17 C7_17 1_555 1_555
C4_17 C9_17 1_555 1_555
C4_17 C12_17 1_555 1_555
O5_9 C7_18 1_555 1_555
N6_10 C2_18 1_555 1_555
C1_18 C2_18 1_555 1_555
C2_18 H1_18 1_555 1_555
C4_18 H2_18 1_555 1_555
C7_18 O2_18 1_555 1_555
C9_18 C1_18 1_555 1_555
H6_18 C9_18 1_555 1_555
C12_18 N6_10 1_555 1_555
H8_18 C12_18 1_555 1_555
N5_18 N4_18 1_555 1_555
C1_18 C7_18 1_555 1_555
C4_18 C9_18 1_555 1_555
C4_18 C12_18 1_555 1_555
Co3_4 O1_18 1_555 1_555
Co5_9 O3_18 1_555 1_555
O1_18 C10_18 1_555 1_555
O3_18 C10_18 1_555 1_555
N7_5 C5_18 1_555 1_555
C3_18 C5_18 1_555 1_555
C5_18 H3_18 1_555 1_555
C6_18 N7_5 1_555 1_555
H4_18 C6_18 1_555 1_555
C8_18 C3_18 1_555 1_555
H5_18 C8_18 1_555 1_555
C10_18 C3_18 1_555 1_555
C11_18 C6_18 1_555 1_555
H7_18 C11_18 1_555 1_555
Cl1_18 Co3_4 1_555 1_555
Co5_9 Cl1_18 1_555 1_555
C8_18 C11_18 1_555 1_555

#END
