
###############################################################################
#
# This file contains modified crystal structure data generated from the
# MOF subset of the Cambridge Structural Database (CSD) v543 
# hosted by the Cambridge Crystallographic Data Centre (CCDC).
#
# This work is licensed under the Creative Commons
# Attribution-NonCommercial-ShareAlike 4.0 International License.
# To view a copy of this license, visit
# http://creativecommons.org/licenses/by-nc-sa/4.0/
# or send a letter to
# Creative Commons, PO Box 1866, Mountain View, CA 94042, USA.
#
# CIF created using the CSD Python API on 29 September 2022
# The structure has been converted into the P1 space group
# The structure has a 3D framework
# The original CSD entry FAZRAA is in the triclinic crystal system
# The framework has been calculated to contain at least 10.0% void space
# The void calculation uses a probe of radius 1.32A, grid spacing 0.4
# The framework is charged, counterions have been retained in the structure
#
###############################################################################

data_FAZRAA
_chemical_formula_moiety         '(C20 H24 Ag2 Cl2 N8 O8 S8)n'
_symmetry_cell_setting           triclinic
_symmetry_space_group_name_H-M   'P 1'
_symmetry_Int_Tables_number      1
_space_group_name_Hall           'P 1'
loop_
_symmetry_equiv_pos_site_id
_symmetry_equiv_pos_as_xyz
1 x,y,z
_cell_length_a                   8.415(4)
_cell_length_b                   12.503(6)
_cell_length_c                   12.682(6)
_cell_angle_alpha                62.908(7)
_cell_angle_beta                 87.261(8)
_cell_angle_gamma                71.416(7)
_cell_volume                     1118.44
loop_
_atom_site_label
_atom_site_type_symbol
_atom_site_fract_x
_atom_site_fract_y
_atom_site_fract_z
N9 N 0.0081(4) 0.3867(3) 0.4308(3)
H23 H 0.0614 0.0126 0.1609
Ag6 Ag 0.75664(3) 0.48594(3) 0.48561(3)
Ag7 Ag 0.24336(3) 0.51406(3) 0.51439(3)
S7 S 0.36339(13) 0.82215(11) 0.15326(9)
S8 S 0.04853(13) 0.81173(12) 0.28823(9)
N6 N 0.8309(4) 0.6235(3) 0.5376(3)
N10 N 0.5243(4) 0.6150(3) 0.3332(3)
N11 N 0.3586(4) 0.6460(3) 0.3583(3)
N13 N 0.6414(4) 0.3540(3) 0.6417(3)
C16 C 0.7117(6) 0.6899(6) 0.1806(5)
H19 H 0.7831 0.7065 0.2240
H20 H 0.6937 0.7518 0.0980
H21 H 0.7647 0.6061 0.1881
C17 C 0.5450(5) 0.6981(4) 0.2304(3)
C18 C 0.2617(5) 0.7530(4) 0.2731(3)
S1 S 0.20628(13) 0.21078(13) 0.39166(14)
S3 S 0.63661(13) 0.17785(11) 0.84674(9)
S4 S 0.95147(13) 0.18827(12) 0.71177(9)
N1 N 0.1691(4) 0.3765(3) 0.4624(3)
N3 N 0.4757(4) 0.3850(3) 0.6668(3)
C1 C 0.4684(6) 0.2551(6) 0.4734(7)
H1 H 0.5055 0.1870 0.5532
H2 H 0.5271 0.2284 0.4181
H3 H 0.4918 0.3283 0.4661
C2 C 0.2848(5) 0.2881(4) 0.4469(5)
C3 C 0.0087(5) 0.3073(4) 0.3915(4)
C6 C 0.2883(6) 0.3101(6) 0.8194(5)
H7 H 0.2169 0.2935 0.7760
H8 H 0.3063 0.2482 0.9020
H9 H 0.2353 0.3939 0.8119
C7 C 0.4550(5) 0.3019(4) 0.7696(3)
C8 C 0.7383(5) 0.2470(4) 0.7269(3)
H11 H 0.9386 0.9874 0.8391
S6 S 0.17802(13) 0.69208(11) 0.66164(12)
C14 C 0.1172(6) 0.8534(5) 0.6457(5)
H16 H 0.0213 0.8666 0.6894
H17 H 0.2099 0.8611 0.6811
C15 C 0.0727(5) 0.9536(4) 0.5208(4)
H18 H 0.1528 0.9510 0.4681
S2 S 0.82198(13) 0.30792(11) 0.33836(12)
C4 C 0.8828(6) 0.1466(5) 0.3543(5)
H4 H 0.9787 0.1334 0.3106
H5 H 0.7901 0.1389 0.3189
C5 C 0.9273(5) 0.0464(4) 0.4792(4)
H6 H 0.8472 0.0490 0.5319
N8 N 0.9919(4) 0.6133(3) 0.5692(3)
S5 S 0.79372(13) 0.78922(13) 0.60834(14)
C11 C 0.5316(6) 0.7449(6) 0.5266(7)
H13 H 0.4945 0.8130 0.4468
H14 H 0.4729 0.7716 0.5819
H15 H 0.5082 0.6717 0.5339
C12 C 0.7152(5) 0.7119(4) 0.5531(5)
C13 C 0.9913(5) 0.6927(4) 0.6085(4)
C9 C 0.0198(6) 0.0286(4) 0.8367(4)
C10 C 0.0380(5) 0.0275(4) 0.9531(4)
H12 H 0.1081 0.0685 0.9608
H10 H 0.1274 0.9794 0.8243
H22 H 0.8726 0.0206 0.1757
C19 C 0.9802(6) 0.9714(4) 0.1633(4)
C20 C 0.9620(5) 0.9725(4) 0.0469(4)
H24 H 0.8919 0.9315 0.0392
Cl1 Cl 0.4777(2) 0.0651(2) 0.21679(19)
O1 O 0.3265(6) 0.0373(6) 0.2523(6)
O2 O 0.5344(8) 0.1009(10) 0.2904(8)
O3 O 0.440(2) 0.170(2) 0.1010(9)
O4 O 0.6006(11) 0.9562(13) 0.2214(18)
O4_2 O 0.3994(11) 0.0438(13) 0.7786(18)
Cl1_2 Cl 0.5223(2) 0.9349(2) 0.78321(19)
O1_2 O 0.6735(6) 0.9627(6) 0.7477(6)
O2_2 O 0.4656(8) 0.8991(10) 0.7096(8)
O3_2 O 0.560(2) 0.830(2) 0.8990(9)
loop_
_geom_bond_atom_site_label_1
_geom_bond_atom_site_label_2
_geom_bond_site_symmetry_1
_geom_bond_site_symmetry_2
Ag6 N6 1_555 1_555
Ag7 N11 1_555 1_555
S7 C17 1_555 1_555
S8 C18 1_555 1_555
N10 Ag6 1_555 1_555
N11 N10 1_555 1_555
N13 Ag6 1_555 1_555
C16 H19 1_555 1_555
H20 C16 1_555 1_555
H21 C16 1_555 1_555
C17 N10 1_555 1_555
C18 S7 1_555 1_555
N11 C18 1_555 1_555
C16 C17 1_555 1_555
Ag7 N1 1_555 1_555
S1 C2 1_555 1_555
S3 C7 1_555 1_555
S4 C8 1_555 1_555
N1 N9 1_555 1_555
N9 C3 1_555 1_555
N3 Ag7 1_555 1_555
N13 N3 1_555 1_555
C1 H1 1_555 1_555
H2 C1 1_555 1_555
H3 C1 1_555 1_555
C2 N1 1_555 1_555
C3 S1 1_555 1_555
C6 H7 1_555 1_555
H8 C6 1_555 1_555
H9 C6 1_555 1_555
C7 N3 1_555 1_555
C8 S3 1_555 1_555
N13 C8 1_555 1_555
C1 C2 1_555 1_555
C6 C7 1_555 1_555
C14 S6 1_555 1_555
H16 C14 1_555 1_555
H17 C14 1_555 1_555
H18 C15 1_555 1_555
C14 C15 1_555 1_555
C4 S2 1_555 1_555
H4 C4 1_555 1_555
H5 C4 1_555 1_555
C5 C4 1_555 1_555
H6 C5 1_555 1_555
S5 C12 1_555 1_555
N6 N8 1_555 1_555
N8 C13 1_555 1_555
C11 H13 1_555 1_555
H14 C11 1_555 1_555
H15 C11 1_555 1_555
C12 N6 1_555 1_555
C13 S5 1_555 1_555
C11 C12 1_555 1_555
C10 C9 1_555 1_555
H12 C10 1_555 1_555
H24 C20 1_555 1_555
C19 C20 1_555 1_555
Cl1 O1 1_555 1_555
O2 Cl1 1_555 1_555
O3 Cl1 1_555 1_555
Cl1_2 O1_2 1_555 1_555
O2_2 Cl1_2 1_555 1_555
O3_2 Cl1_2 1_555 1_555

#END
