
###############################################################################
#
# This file contains modified crystal structure data generated from the
# MOF subset of the Cambridge Structural Database (CSD) v543 
# hosted by the Cambridge Crystallographic Data Centre (CCDC).
#
# This work is licensed under the Creative Commons
# Attribution-NonCommercial-ShareAlike 4.0 International License.
# To view a copy of this license, visit
# http://creativecommons.org/licenses/by-nc-sa/4.0/
# or send a letter to
# Creative Commons, PO Box 1866, Mountain View, CA 94042, USA.
#
# CIF created using the CSD Python API on 29 September 2022
# The structure has been converted into the P1 space group
# The structure has a 3D framework
# The original CSD entry FAZYIS is in the monoclinic crystal system
# The framework has been calculated to contain at least 10.0% void space
# The void calculation uses a probe of radius 1.32A, grid spacing 0.4
#
###############################################################################

data_FAZYIS
_chemical_formula_moiety         '(C220 H140 N48 O40 Zn8)n'
_symmetry_cell_setting           triclinic
_symmetry_space_group_name_H-M   'P 1'
_symmetry_Int_Tables_number      1
_space_group_name_Hall           'P 1'
loop_
_symmetry_equiv_pos_site_id
_symmetry_equiv_pos_as_xyz
1 x,y,z
_cell_length_a                   24.438(2)
_cell_length_b                   17.7350(18)
_cell_length_c                   16.9073(16)
_cell_angle_alpha                90
_cell_angle_beta                 127.237(4)
_cell_angle_gamma                90
_cell_volume                     5833.92
loop_
_atom_site_label
_atom_site_type_symbol
_atom_site_fract_x
_atom_site_fract_y
_atom_site_fract_z
N12 N 0.2083(2) 0.0989(3) 0.8732(3)
C51 C 0.2713(3) 0.0004(3) 0.8659(5)
C52 C 0.2576(3) 0.0744(3) 0.8668(4)
H32 H 0.283667 0.110088 0.862771
C53 C 0.1762(3) 0.0463(3) 0.8829(4)
H33 H 0.143498 0.061343 0.891179
Zn6 Zn 0.18407(3) 0.21453(3) 0.86018(4)
O4 O 0.22578(16) 0.2601(2) 0.1132(2)
O5 O 0.0507(2) 0.2786(3) 0.1707(3)
C4 C 0.1100(2) 0.2273(3) 0.0262(4)
C5 C 0.1106(3) 0.2488(4) 0.1049(4)
H3 H 0.151626 0.261723 0.165482
C6 C 0.0495(3) 0.2508(4) 0.0930(4)
C8 C 0.1749(2) 0.2303(3) 0.0366(4)
C9 C 0.0237(3) 0.2375(4) 0.2072(4)
C10 C 0.0260(4) 0.1607(5) 0.2077(5)
H5 H 0.044395 0.135113 0.180732
C11 C 0.000000 0.1218(7) 0.250000
H6 H -0.000001 0.069352 0.249999
C12 C 0.000000 0.2763(5) 0.250000
H7 H 0.000001 0.328775 0.250002
O6 O 0.07865(17) 0.1907(2) 0.7478(3)
O7 O 0.13347(18) 0.2022(2) 0.6843(3)
C29 C 0.0791(3) 0.1995(3) 0.6754(4)
C30 C 0.0123(3) 0.2110(3) 0.5753(4)
C35 C 0.0119(3) 0.2304(4) 0.4969(4)
H21 H 0.052605 0.229933 0.503621
Zn8 Zn 0.31593(3) 0.28547(3) 0.13982(4)
O3 O 0.17470(17) 0.2002(2) 0.9698(2)
C3 C 0.0487(2) 0.2093(3) 0.9369(3)
H2 H 0.048476 0.195648 0.883615
N7 N 0.1571(2) 0.3280(3) 0.8468(3)
N8 N 0.1596(2) 0.4517(2) 0.8494(3)
N9 N 0.2153(2) 0.8103(3) 0.8769(3)
N10 N 0.2954(3) 0.8469(3) 0.8599(4)
N11 N 0.2925(2) 0.7719(3) 0.8612(4)
H23 H 0.318285 0.741974 0.856871
C39 C 0.1912(3) 0.3885(3) 0.8564(4)
H24 H 0.233212 0.387362 0.867050
C40 C 0.1020(3) 0.4299(4) 0.8348(6)
H25 H 0.068748 0.461677 0.826910
C41 C 0.1000(3) 0.3557(4) 0.8332(5)
H26 H 0.064966 0.326690 0.824228
C42 C 0.1823(3) 0.5260(3) 0.8562(4)
C43 C 0.2347(3) 0.5411(3) 0.8511(5)
H27 H 0.256323 0.501755 0.843456
C44 C 0.2558(3) 0.6134(3) 0.8570(5)
H28 H 0.291460 0.622561 0.852807
C45 C 0.2258(3) 0.6728(3) 0.8691(4)
C46 C 0.1741(3) 0.6563(3) 0.8767(4)
H29 H 0.153054 0.695546 0.885694
C47 C 0.1524(3) 0.5833(3) 0.8714(4)
H30 H 0.118069 0.573364 0.878108
C48 C 0.2441(3) 0.7494(3) 0.8701(4)
C49 C 0.2489(3) 0.8680(3) 0.8707(4)
C50 C 0.2343(3) 0.9458(3) 0.8726(4)
H31 H 0.305703 0.986535 0.860807
C54 C 0.1861(3) 0.9710(3) 0.8821(4)
H34 H 0.159905 0.936775 0.887989
O14 O 0.27422(16) 0.2399(2) 0.8868(2)
N6 N 0.7917(2) 0.0989(3) 0.6268(3)
C25 C 0.7287(3) 0.0004(3) 0.6341(5)
C26 C 0.7424(3) 0.0744(3) 0.6332(4)
H16 H 0.716333 0.110088 0.637229
C27 C 0.8238(3) 0.0463(3) 0.6171(4)
H17 H 0.856502 0.061343 0.608821
Zn4 Zn 0.81593(3) 0.21453(3) 0.63982(4)
C7 C 0.9881(3) 0.2304(4) 0.0031(4)
C11_2 C 1.000000 0.1218(7) 0.250000
H6_2 H 0.999999 0.069352 0.249999
C12_2 C 1.000000 0.2763(5) 0.250000
H7_2 H 1.000001 0.328775 0.250002
O8 O 0.82530(17) 0.2002(2) 0.5302(2)
O9 O 0.77422(16) 0.2601(2) 0.3868(2)
O10 O 0.9493(2) 0.2786(3) 0.3293(3)
C31 C 0.9513(2) 0.2093(3) 0.5631(3)
H19 H 0.951524 0.195648 0.616385
C32 C 0.8900(2) 0.2273(3) 0.4738(4)
C33 C 0.8894(3) 0.2488(4) 0.3951(4)
H20 H 0.848374 0.261723 0.334518
C34 C 0.9505(3) 0.2508(4) 0.4070(4)
C36 C 0.8251(2) 0.2303(3) 0.4634(4)
C37 C 0.9763(3) 0.2375(4) 0.2928(4)
C38 C 0.9740(4) 0.1607(5) 0.2923(5)
H22 H 0.955605 0.135113 0.319268
Zn7 Zn 0.68407(3) 0.28547(3) 0.36018(4)
N1 N 0.8429(2) 0.3280(3) 0.6532(3)
N2 N 0.8404(2) 0.4517(2) 0.6506(3)
N3 N 0.7847(2) 0.8103(3) 0.6231(3)
N4 N 0.7046(3) 0.8469(3) 0.6401(4)
N5 N 0.7075(2) 0.7719(3) 0.6388(4)
H1 H 0.681715 0.741974 0.643129
O1 O 0.92135(17) 0.1907(2) 0.7522(3)
O2 O 0.86653(18) 0.2022(2) 0.8157(3)
C1 C 0.9209(3) 0.1995(3) 0.8246(4)
C2 C 0.9877(3) 0.2110(3) 0.9247(4)
H4 H 0.947395 0.229933 0.996379
C13 C 0.8088(3) 0.3885(3) 0.6436(4)
H8 H 0.766788 0.387362 0.632950
C14 C 0.8980(3) 0.4299(4) 0.6652(6)
H9 H 0.931252 0.461677 0.673090
C15 C 0.9000(3) 0.3557(4) 0.6668(5)
H10 H 0.935034 0.326690 0.675772
C16 C 0.8177(3) 0.5260(3) 0.6438(4)
C17 C 0.7653(3) 0.5411(3) 0.6489(5)
H11 H 0.743677 0.501755 0.656544
C18 C 0.7442(3) 0.6134(3) 0.6430(5)
H12 H 0.708540 0.622561 0.647193
C19 C 0.7742(3) 0.6728(3) 0.6309(4)
C20 C 0.8259(3) 0.6563(3) 0.6233(4)
H13 H 0.846946 0.695546 0.614306
C21 C 0.8476(3) 0.5833(3) 0.6286(4)
H14 H 0.881931 0.573364 0.621892
C22 C 0.7559(3) 0.7494(3) 0.6299(4)
C23 C 0.7511(3) 0.8680(3) 0.6293(4)
C24 C 0.7657(3) 0.9458(3) 0.6274(4)
H15 H 0.694297 0.986535 0.639193
C28 C 0.8139(3) 0.9710(3) 0.6179(4)
H18 H 0.840095 0.936775 0.612011
O15 O 0.72578(16) 0.2399(2) 0.6132(2)
N1_2 N 0.6571(2) 0.1720(3) 0.3468(3)
N2_2 N 0.6596(2) 0.0483(2) 0.3494(3)
O1_2 O 0.57865(17) 0.3093(2) 0.2478(3)
O2_2 O 0.63347(18) 0.2978(2) 0.1843(3)
O3_2 O 0.32530(17) 0.2998(2) 0.0302(2)
C1_2 C 0.5791(3) 0.3005(3) 0.1754(4)
C2_2 C 0.5123(3) 0.2890(3) 0.0753(4)
C3_2 C 0.4513(2) 0.2907(3) 0.0631(3)
H2_2 H 0.451524 0.304352 0.116385
H4_2 H 0.552605 0.270067 0.003621
C13_2 C 0.6912(3) 0.1115(3) 0.3564(4)
H8_2 H 0.733212 0.112638 0.367050
C14_2 C 0.6020(3) 0.0701(4) 0.3348(6)
H9_2 H 0.568748 0.038323 0.326910
C15_2 C 0.6000(3) 0.1443(4) 0.3332(5)
H10_2 H 0.564966 0.173310 0.324228
N7_2 N 0.3429(2) 0.1720(3) 0.1532(3)
N8_2 N 0.3404(2) 0.0483(2) 0.1506(3)
C39_2 C 0.3088(3) 0.1115(3) 0.1436(4)
H24_2 H 0.266788 0.112638 0.132950
C40_2 C 0.3980(3) 0.0701(4) 0.1652(6)
H25_2 H 0.431252 0.038323 0.173090
C41_2 C 0.4000(3) 0.1443(4) 0.1668(5)
H26_2 H 0.435034 0.173310 0.175772
N13 N 0.7083(2) 0.4011(3) 0.3732(3)
N14 N 0.2917(2) 0.4011(3) 0.1268(3)
O11 O 0.42135(17) 0.3093(2) 0.2522(3)
O12 O 0.36653(18) 0.2978(2) 0.3157(3)
O13 O 0.67470(17) 0.2998(2) 0.4698(2)
O5_2 O 0.4493(2) 0.2214(3) 0.8293(3)
C4_2 C 0.3900(2) 0.2727(3) 0.9738(4)
C5_2 C 0.3894(3) 0.2512(4) 0.8951(4)
H3_2 H 0.348374 0.238277 0.834518
C6_2 C 0.4505(3) 0.2492(4) 0.9070(4)
C7_2 C 0.5119(3) 0.2696(4) 0.9969(4)
C8_2 C 0.3251(2) 0.2697(3) 0.9634(4)
C9_2 C 0.4763(3) 0.2625(4) 0.7928(4)
C10_2 C 0.4740(4) 0.3393(5) 0.7923(5)
H5_2 H 0.455605 0.364887 0.819268
C11_3 C 0.500000 0.3782(7) 0.750000
H6_3 H 0.500001 0.430648 0.750001
C12_3 C 0.500000 0.2237(5) 0.750000
H7_3 H 0.499999 0.171225 0.749998
O10_2 O 0.5507(2) 0.2214(3) 0.6707(3)
C29_2 C 0.4209(3) 0.3005(3) 0.3246(4)
C30_2 C 0.4877(3) 0.2890(3) 0.4247(4)
C31_2 C 0.5487(2) 0.2907(3) 0.4369(3)
H19_2 H 0.548476 0.304352 0.383615
C32_2 C 0.6100(2) 0.2727(3) 0.5262(4)
C33_2 C 0.6106(3) 0.2512(4) 0.6049(4)
H20_2 H 0.651626 0.238277 0.665482
C34_2 C 0.5495(3) 0.2492(4) 0.5930(4)
C35_2 C 0.4881(3) 0.2696(4) 0.5031(4)
H21_2 H 0.447395 0.270067 0.496379
C36_2 C 0.6749(2) 0.2697(3) 0.5366(4)
C37_2 C 0.5237(3) 0.2625(4) 0.7072(4)
C38_2 C 0.5260(4) 0.3393(5) 0.7077(5)
H22_2 H 0.544395 0.364887 0.680732
N3_2 N 0.7153(2) 0.6897(3) 0.3769(3)
N4_2 N 0.7954(3) 0.6531(3) 0.3599(4)
N5_2 N 0.7925(2) 0.7281(3) 0.3612(4)
H1_2 H 0.818285 0.758026 0.356871
C16_2 C 0.6823(3) 0.9740(3) 0.3562(4)
C17_2 C 0.7347(3) 0.9589(3) 0.3511(5)
H11_2 H 0.756323 0.998245 0.343456
C18_2 C 0.7558(3) 0.8866(3) 0.3570(5)
H12_2 H 0.791460 0.877439 0.352807
C19_2 C 0.7258(3) 0.8272(3) 0.3691(4)
C20_2 C 0.6741(3) 0.8437(3) 0.3767(4)
H13_2 H 0.653054 0.804454 0.385694
C21_2 C 0.6524(3) 0.9167(3) 0.3714(4)
H14_2 H 0.618069 0.926636 0.378108
C22_2 C 0.7441(3) 0.7506(3) 0.3701(4)
C23_2 C 0.7489(3) 0.6320(3) 0.3707(4)
C24_2 C 0.7343(3) 0.5542(3) 0.3726(4)
C25_2 C 0.7713(3) 0.4996(3) 0.3659(5)
H15_2 H 0.805703 0.513465 0.360807
C26_2 C 0.7576(3) 0.4256(3) 0.3668(4)
H16_2 H 0.783667 0.389912 0.362771
C27_2 C 0.6762(3) 0.4537(3) 0.3829(4)
H17_2 H 0.643498 0.438657 0.391179
C28_2 C 0.6861(3) 0.5290(3) 0.3821(4)
H18_2 H 0.659905 0.563225 0.387989
N9_2 N 0.2847(2) 0.6897(3) 0.1231(3)
N10_2 N 0.2046(3) 0.6531(3) 0.1401(4)
N11_2 N 0.2075(2) 0.7281(3) 0.1388(4)
H23_2 H 0.181715 0.758026 0.143129
C42_2 C 0.3177(3) 0.9740(3) 0.1438(4)
C43_2 C 0.2653(3) 0.9589(3) 0.1489(5)
H27_2 H 0.243677 0.998245 0.156544
C44_2 C 0.2442(3) 0.8866(3) 0.1430(5)
H28_2 H 0.208540 0.877439 0.147193
C45_2 C 0.2742(3) 0.8272(3) 0.1309(4)
C46_2 C 0.3259(3) 0.8437(3) 0.1233(4)
H29_2 H 0.346946 0.804454 0.114306
C47_2 C 0.3476(3) 0.9167(3) 0.1286(4)
H30_2 H 0.381931 0.926636 0.121892
C48_2 C 0.2559(3) 0.7506(3) 0.1299(4)
C49_2 C 0.2511(3) 0.6320(3) 0.1293(4)
C50_2 C 0.2657(3) 0.5542(3) 0.1274(4)
C51_2 C 0.2287(3) 0.4996(3) 0.1341(5)
H31_2 H 0.194297 0.513465 0.139193
C52_2 C 0.2424(3) 0.4256(3) 0.1332(4)
H32_2 H 0.216333 0.389912 0.137229
C53_2 C 0.3238(3) 0.4537(3) 0.1171(4)
H33_2 H 0.356502 0.438657 0.108821
C54_2 C 0.3139(3) 0.5290(3) 0.1179(4)
H34_2 H 0.340095 0.563225 0.112011
N3_3 N 0.2847(2) 0.3103(3) 0.6231(3)
N4_3 N 0.2046(3) 0.3469(3) 0.6401(4)
N5_3 N 0.2075(2) 0.2719(3) 0.6388(4)
H1_3 H 0.181715 0.241974 0.643129
N6_2 N 0.2917(2) 0.5989(3) 0.6268(3)
C16_3 C 0.3177(3) 0.0260(3) 0.6438(4)
C17_3 C 0.2653(3) 0.0411(3) 0.6489(5)
H11_3 H 0.243677 0.001755 0.656544
C18_3 C 0.2442(3) 0.1134(3) 0.6430(5)
H12_3 H 0.208540 0.122561 0.647193
C19_3 C 0.2742(3) 0.1728(3) 0.6309(4)
C20_3 C 0.3259(3) 0.1563(3) 0.6233(4)
H13_3 H 0.346946 0.195546 0.614306
C21_3 C 0.3476(3) 0.0833(3) 0.6286(4)
H14_3 H 0.381931 0.073364 0.621892
C22_3 C 0.2559(3) 0.2494(3) 0.6299(4)
C23_3 C 0.2511(3) 0.3680(3) 0.6293(4)
C24_3 C 0.2657(3) 0.4458(3) 0.6274(4)
C25_3 C 0.2287(3) 0.5004(3) 0.6341(5)
H15_3 H 0.194297 0.486535 0.639193
C26_3 C 0.2424(3) 0.5744(3) 0.6332(4)
H16_3 H 0.216333 0.610088 0.637229
C27_3 C 0.3238(3) 0.5463(3) 0.6171(4)
H17_3 H 0.356502 0.561343 0.608821
C28_3 C 0.3139(3) 0.4710(3) 0.6179(4)
H18_3 H 0.340095 0.436775 0.612011
N9_3 N 0.7153(2) 0.3103(3) 0.8769(3)
N10_3 N 0.7954(3) 0.3469(3) 0.8599(4)
N11_3 N 0.7925(2) 0.2719(3) 0.8612(4)
H23_3 H 0.818285 0.241974 0.856871
N12_2 N 0.7083(2) 0.5989(3) 0.8732(3)
C42_3 C 0.6823(3) 0.0260(3) 0.8562(4)
C43_3 C 0.7347(3) 0.0411(3) 0.8511(5)
H27_3 H 0.756323 0.001755 0.843456
C44_3 C 0.7558(3) 0.1134(3) 0.8570(5)
H28_3 H 0.791460 0.122561 0.852807
C45_3 C 0.7258(3) 0.1728(3) 0.8691(4)
C46_3 C 0.6741(3) 0.1563(3) 0.8767(4)
H29_3 H 0.653054 0.195546 0.885694
C47_3 C 0.6524(3) 0.0833(3) 0.8714(4)
H30_3 H 0.618069 0.073364 0.878108
C48_3 C 0.7441(3) 0.2494(3) 0.8701(4)
C49_3 C 0.7489(3) 0.3680(3) 0.8707(4)
C50_3 C 0.7343(3) 0.4458(3) 0.8726(4)
C51_3 C 0.7713(3) 0.5004(3) 0.8659(5)
H31_3 H 0.805703 0.486535 0.860807
C52_3 C 0.7576(3) 0.5744(3) 0.8668(4)
H32_3 H 0.783667 0.610088 0.862771
C53_3 C 0.6762(3) 0.5463(3) 0.8829(4)
H33_3 H 0.643498 0.561343 0.891179
C54_3 C 0.6861(3) 0.4710(3) 0.8821(4)
H34_3 H 0.659905 0.436775 0.887989
Zn4_2 Zn 0.31593(3) 0.71453(3) 0.63982(4)
Zn6_2 Zn 0.68407(3) 0.71453(3) 0.86018(4)
O4_2 O 0.72578(16) 0.7601(2) 0.1132(2)
O5_3 O 0.5507(2) 0.7786(3) 0.1707(3)
C4_3 C 0.6100(2) 0.7273(3) 0.0262(4)
C5_3 C 0.6106(3) 0.7488(4) 0.1049(4)
H3_3 H 0.651626 0.761723 0.165482
C6_3 C 0.5495(3) 0.7508(4) 0.0930(4)
C7_3 C 0.4881(3) 0.7304(4) 0.0031(4)
C8_3 C 0.6749(2) 0.7303(3) 0.0366(4)
C9_3 C 0.5237(3) 0.7375(4) 0.2072(4)
C10_3 C 0.5260(4) 0.6607(5) 0.2077(5)
H5_3 H 0.544395 0.635113 0.180732
C11_4 C 0.500000 0.6218(7) 0.250000
H6_4 H 0.499999 0.569352 0.249999
C12_4 C 0.500000 0.7763(5) 0.250000
H7_4 H 0.500001 0.828775 0.250002
O6_2 O 0.57865(17) 0.6907(2) 0.7478(3)
O7_2 O 0.63347(18) 0.7022(2) 0.6843(3)
O8_2 O 0.32530(17) 0.7002(2) 0.5302(2)
O9_2 O 0.27422(16) 0.7601(2) 0.3868(2)
O10_3 O 0.4493(2) 0.7786(3) 0.3293(3)
C29_3 C 0.5791(3) 0.6995(3) 0.6754(4)
C30_3 C 0.5123(3) 0.7110(3) 0.5753(4)
C31_3 C 0.4513(2) 0.7093(3) 0.5631(3)
H19_3 H 0.451524 0.695648 0.616385
C32_3 C 0.3900(2) 0.7273(3) 0.4738(4)
C33_3 C 0.3894(3) 0.7488(4) 0.3951(4)
H20_3 H 0.348374 0.761723 0.334518
C34_3 C 0.4505(3) 0.7508(4) 0.4070(4)
C35_3 C 0.5119(3) 0.7304(4) 0.4969(4)
H21_3 H 0.552605 0.729933 0.503621
C36_3 C 0.3251(2) 0.7303(3) 0.4634(4)
C37_3 C 0.4763(3) 0.7375(4) 0.2928(4)
C38_3 C 0.4740(4) 0.6607(5) 0.2923(5)
H22_3 H 0.455605 0.635113 0.319268
Zn7_2 Zn 0.18407(3) 0.78547(3) 0.36018(4)
Zn8_2 Zn 0.81593(3) 0.78547(3) 0.13982(4)
N1_3 N 0.3429(2) 0.8280(3) 0.6532(3)
N2_3 N 0.3404(2) 0.9517(2) 0.6506(3)
O1_3 O 0.42135(17) 0.6907(2) 0.7522(3)
O2_3 O 0.36653(18) 0.7022(2) 0.8157(3)
O3_3 O 0.67470(17) 0.7002(2) 0.9698(2)
C1_3 C 0.4209(3) 0.6995(3) 0.8246(4)
C2_3 C 0.4877(3) 0.7110(3) 0.9247(4)
C3_3 C 0.5487(2) 0.7093(3) 0.9369(3)
H2_3 H 0.548476 0.695648 0.883615
H4_3 H 0.447395 0.729933 0.996379
C13_3 C 0.3088(3) 0.8885(3) 0.6436(4)
H8_3 H 0.266788 0.887362 0.632950
C14_3 C 0.3980(3) 0.9299(4) 0.6652(6)
H9_3 H 0.431252 0.961677 0.673090
C15_3 C 0.4000(3) 0.8557(4) 0.6668(5)
H10_3 H 0.435034 0.826690 0.675772
N7_3 N 0.6571(2) 0.8280(3) 0.8468(3)
N8_3 N 0.6596(2) 0.9517(2) 0.8494(3)
C39_3 C 0.6912(3) 0.8885(3) 0.8564(4)
H24_3 H 0.733212 0.887362 0.867050
C40_3 C 0.6020(3) 0.9299(4) 0.8348(6)
H25_3 H 0.568748 0.961677 0.826910
C41_3 C 0.6000(3) 0.8557(4) 0.8332(5)
H26_3 H 0.564966 0.826690 0.824228
O14_2 O 0.77422(16) 0.7399(2) 0.8868(2)
O15_2 O 0.22578(16) 0.7399(2) 0.6132(2)
N1_4 N 0.1571(2) 0.6720(3) 0.3468(3)
N2_4 N 0.1596(2) 0.5483(2) 0.3494(3)
N3_4 N 0.2153(2) 0.1897(3) 0.3769(3)
N4_4 N 0.2954(3) 0.1531(3) 0.3599(4)
N5_4 N 0.2925(2) 0.2281(3) 0.3612(4)
H1_4 H 0.318285 0.258026 0.356871
O1_4 O 0.07865(17) 0.8093(2) 0.2478(3)
O2_4 O 0.13347(18) 0.7978(2) 0.1843(3)
C1_4 C 0.0791(3) 0.8005(3) 0.1754(4)
C2_4 C 0.0123(3) 0.7890(3) 0.0753(4)
H4_4 H 0.052605 0.770067 0.003621
C13_4 C 0.1912(3) 0.6115(3) 0.3564(4)
H8_4 H 0.233212 0.612638 0.367050
C14_4 C 0.1020(3) 0.5701(4) 0.3348(6)
H9_4 H 0.068748 0.538323 0.326910
C15_4 C 0.1000(3) 0.6443(4) 0.3332(5)
H10_4 H 0.064966 0.673310 0.324228
C16_4 C 0.1823(3) 0.4740(3) 0.3562(4)
C17_4 C 0.2347(3) 0.4589(3) 0.3511(5)
H11_4 H 0.256323 0.498245 0.343456
C18_4 C 0.2558(3) 0.3866(3) 0.3570(5)
H12_4 H 0.291460 0.377439 0.352807
C19_4 C 0.2258(3) 0.3272(3) 0.3691(4)
C20_4 C 0.1741(3) 0.3437(3) 0.3767(4)
H13_4 H 0.153054 0.304454 0.385694
C21_4 C 0.1524(3) 0.4167(3) 0.3714(4)
H14_4 H 0.118069 0.426636 0.378108
C22_4 C 0.2441(3) 0.2506(3) 0.3701(4)
C23_4 C 0.2489(3) 0.1320(3) 0.3707(4)
C24_4 C 0.2343(3) 0.0542(3) 0.3726(4)
H15_4 H 0.305703 0.013465 0.360807
C28_4 C 0.1861(3) 0.0290(3) 0.3821(4)
H18_4 H 0.159905 0.063225 0.387989
N13_2 N 0.2083(2) 0.9011(3) 0.3732(3)
O13_2 O 0.17470(17) 0.7998(2) 0.4698(2)
C7_4 C 0.0119(3) 0.7696(4) 0.9969(4)
C11_5 C -0.000000 0.8782(7) 0.750000
H6_5 H 0.000001 0.930648 0.750001
C12_5 C -0.000000 0.7237(5) 0.750000
H7_5 H -0.000001 0.671225 0.749998
O10_4 O 0.0507(2) 0.7214(3) 0.6707(3)
C31_4 C 0.0487(2) 0.7907(3) 0.4369(3)
H19_4 H 0.048476 0.804352 0.383615
C32_4 C 0.1100(2) 0.7727(3) 0.5262(4)
C33_4 C 0.1106(3) 0.7512(4) 0.6049(4)
H20_4 H 0.151626 0.738277 0.665482
C34_4 C 0.0495(3) 0.7492(4) 0.5930(4)
C36_4 C 0.1749(2) 0.7697(3) 0.5366(4)
C37_4 C 0.0237(3) 0.7625(4) 0.7072(4)
C38_4 C 0.0260(4) 0.8393(5) 0.7077(5)
H22_4 H 0.044395 0.864887 0.680732
C25_4 C 0.2713(3) 0.9996(3) 0.3659(5)
C26_4 C 0.2576(3) 0.9256(3) 0.3668(4)
H16_4 H 0.283667 0.889912 0.362771
C27_4 C 0.1762(3) 0.9537(3) 0.3829(4)
H17_4 H 0.143498 0.938657 0.391179
O3_4 O 0.82530(17) 0.7998(2) 0.0302(2)
C3_4 C 0.9513(2) 0.7907(3) 0.0631(3)
H2_4 H 0.951524 0.804352 0.116385
N7_4 N 0.8429(2) 0.6720(3) 0.1532(3)
N8_4 N 0.8404(2) 0.5483(2) 0.1506(3)
N9_4 N 0.7847(2) 0.1897(3) 0.1231(3)
N10_4 N 0.7046(3) 0.1531(3) 0.1401(4)
N11_4 N 0.7075(2) 0.2281(3) 0.1388(4)
H23_4 H 0.681715 0.258026 0.143129
C39_4 C 0.8088(3) 0.6115(3) 0.1436(4)
H24_4 H 0.766788 0.612638 0.132950
C40_4 C 0.8980(3) 0.5701(4) 0.1652(6)
H25_4 H 0.931252 0.538323 0.173090
C41_4 C 0.9000(3) 0.6443(4) 0.1668(5)
H26_4 H 0.935034 0.673310 0.175772
C42_4 C 0.8177(3) 0.4740(3) 0.1438(4)
C43_4 C 0.7653(3) 0.4589(3) 0.1489(5)
H27_4 H 0.743677 0.498245 0.156544
C44_4 C 0.7442(3) 0.3866(3) 0.1430(5)
H28_4 H 0.708540 0.377439 0.147193
C45_4 C 0.7742(3) 0.3272(3) 0.1309(4)
C46_4 C 0.8259(3) 0.3437(3) 0.1233(4)
H29_4 H 0.846946 0.304454 0.114306
C47_4 C 0.8476(3) 0.4167(3) 0.1286(4)
H30_4 H 0.881931 0.426636 0.121892
C48_4 C 0.7559(3) 0.2506(3) 0.1299(4)
C49_4 C 0.7511(3) 0.1320(3) 0.1293(4)
C50_4 C 0.7657(3) 0.0542(3) 0.1274(4)
H31_4 H 0.694297 0.013465 0.139193
C54_4 C 0.8139(3) 0.0290(3) 0.1179(4)
H34_4 H 0.840095 0.063225 0.112011
N14_2 N 0.7917(2) 0.9011(3) 0.1268(3)
O11_2 O 0.92135(17) 0.8093(2) 0.2522(3)
O12_2 O 0.86653(18) 0.7978(2) 0.3157(3)
O5_4 O 0.9493(2) 0.7214(3) 0.8293(3)
C4_4 C 0.8900(2) 0.7727(3) 0.9738(4)
C5_4 C 0.8894(3) 0.7512(4) 0.8951(4)
H3_4 H 0.848374 0.738277 0.834518
C6_4 C 0.9505(3) 0.7492(4) 0.9070(4)
C8_4 C 0.8251(2) 0.7697(3) 0.9634(4)
C9_4 C 0.9763(3) 0.7625(4) 0.7928(4)
C10_4 C 0.9740(4) 0.8393(5) 0.7923(5)
H5_4 H 0.955605 0.864887 0.819268
C11_6 C 1.000000 0.8782(7) 0.750000
H6_6 H 1.000001 0.930648 0.750001
C12_6 C 1.000000 0.7237(5) 0.750000
H7_6 H 0.999999 0.671225 0.749998
C29_4 C 0.9209(3) 0.8005(3) 0.3246(4)
C30_4 C 0.9877(3) 0.7890(3) 0.4247(4)
C35_4 C 0.9881(3) 0.7696(4) 0.5031(4)
H21_4 H 0.947395 0.770067 0.496379
C51_4 C 0.7287(3) 0.9996(3) 0.1341(5)
C52_4 C 0.7424(3) 0.9256(3) 0.1332(4)
H32_4 H 0.716333 0.889912 0.137229
C53_4 C 0.8238(3) 0.9537(3) 0.1171(4)
H33_4 H 0.856502 0.938657 0.108821
loop_
_geom_bond_atom_site_label_1
_geom_bond_atom_site_label_2
_geom_bond_site_symmetry_1
_geom_bond_site_symmetry_2
N12 C52 1_555 1_555
C52 C51 1_555 1_555
H32 C52 1_555 1_555
C53 N12 1_555 1_555
H33 C53 1_555 1_555
Zn6 N12 1_555 1_555
O4 C8 1_555 1_555
O5 C6 1_555 1_555
C5 C4 1_555 1_555
H3 C5 1_555 1_555
C6 C5 1_555 1_555
C8 C4 1_555 1_555
C9 O5 1_555 1_555
C10 C9 1_555 1_555
H5 C10 1_555 1_555
C11 C10 1_555 1_555
H6 C11 1_555 1_555
C12 C9 1_555 1_555
H7 C12 1_555 1_555
O6 C29 1_555 1_555
O7 C29 1_555 1_555
C29 C30 1_555 1_555
C35 C30 1_555 1_555
H21 C35 1_555 1_555
Zn6 O6 1_555 1_555
Zn8 O4 1_555 1_555
O7 Zn6 1_555 1_555
H2 C3 1_555 1_555
Zn6 O3 1_555 1_555
N7 Zn6 1_555 1_555
N8 C39 1_555 1_555
N9 C48 1_555 1_555
N10 N11 1_555 1_555
N11 H23 1_555 1_555
C39 N7 1_555 1_555
H24 C39 1_555 1_555
C40 N8 1_555 1_555
H25 C40 1_555 1_555
C41 N7 1_555 1_555
H26 C41 1_555 1_555
C42 N8 1_555 1_555
C43 C42 1_555 1_555
H27 C43 1_555 1_555
C44 C43 1_555 1_555
H28 C44 1_555 1_555
C45 C44 1_555 1_555
C46 C45 1_555 1_555
H29 C46 1_555 1_555
C47 C42 1_555 1_555
H30 C47 1_555 1_555
C48 N11 1_555 1_555
C49 N9 1_555 1_555
C50 C49 1_555 1_555
C54 C50 1_555 1_555
H34 C54 1_555 1_555
O14 Zn6 1_555 1_555
N10 C49 1_555 1_555
C40 C41 1_555 1_555
C45 C48 1_555 1_555
C46 C47 1_555 1_555
N6 C26 1_555 1_555
C26 C25 1_555 1_555
H16 C26 1_555 1_555
C27 N6 1_555 1_555
H17 C27 1_555 1_555
Zn4 N6 1_555 1_555
H6_2 C11_2 1_555 1_555
H7_2 C12_2 1_555 1_555
O8 C36 1_555 1_555
O9 C36 1_555 1_555
O10 C34 1_555 1_555
C31 H19 1_555 1_555
C32 C31 1_555 1_555
C33 C32 1_555 1_555
H20 C33 1_555 1_555
C34 C33 1_555 1_555
C36 C32 1_555 1_555
C37 C12_2 1_555 1_555
C38 C11_2 1_555 1_555
H22 C38 1_555 1_555
Zn4 O8 1_555 1_555
Zn7 O9 1_555 1_555
O10 C37 1_555 1_555
C37 C38 1_555 1_555
Zn4 N1 1_555 1_555
N1 C13 1_555 1_555
N2 C13 1_555 1_555
N3 C22 1_555 1_555
N4 N5 1_555 1_555
N5 H1 1_555 1_555
O1 Zn4 1_555 1_555
O2 Zn4 1_555 1_555
C1 O1 1_555 1_555
C2 C1 1_555 1_555
C13 H8 1_555 1_555
C14 N2 1_555 1_555
H9 C14 1_555 1_555
C15 N1 1_555 1_555
H10 C15 1_555 1_555
C16 N2 1_555 1_555
C17 C16 1_555 1_555
H11 C17 1_555 1_555
C18 C17 1_555 1_555
H12 C18 1_555 1_555
C19 C18 1_555 1_555
C20 C19 1_555 1_555
H13 C20 1_555 1_555
C21 C16 1_555 1_555
H14 C21 1_555 1_555
C22 N5 1_555 1_555
C23 N3 1_555 1_555
C24 C23 1_555 1_555
C28 C24 1_555 1_555
H18 C28 1_555 1_555
O15 Zn4 1_555 1_555
N4 C23 1_555 1_555
O2 C1 1_555 1_555
C14 C15 1_555 1_555
C19 C22 1_555 1_555
C20 C21 1_555 1_555
Zn7 N1_2 1_555 1_555
N1_2 C13_2 1_555 1_555
N2_2 C13_2 1_555 1_555
O1_2 Zn7 1_555 1_555
O2_2 Zn7 1_555 1_555
C1_2 O1_2 1_555 1_555
C2_2 C1_2 1_555 1_555
C3_2 C2_2 1_555 1_555
H2_2 C3_2 1_555 1_555
C13_2 H8_2 1_555 1_555
C14_2 N2_2 1_555 1_555
H9_2 C14_2 1_555 1_555
C15_2 N1_2 1_555 1_555
H10_2 C15_2 1_555 1_555
Zn8 O3_2 1_555 1_555
N7_2 Zn8 1_555 1_555
N8_2 C39_2 1_555 1_555
C39_2 N7_2 1_555 1_555
H24_2 C39_2 1_555 1_555
C40_2 N8_2 1_555 1_555
H25_2 C40_2 1_555 1_555
C41_2 N7_2 1_555 1_555
H26_2 C41_2 1_555 1_555
N13 Zn7 1_555 1_555
N14 Zn8 1_555 1_555
O11 Zn8 1_555 1_555
O12 Zn8 1_555 1_555
O13 Zn7 1_555 1_555
O2_2 C1_2 1_555 1_555
C14_2 C15_2 1_555 1_555
C40_2 C41_2 1_555 1_555
O14 C8_2 1_555 1_555
O5_2 C6_2 1_555 1_555
C5_2 C4_2 1_555 1_555
H3_2 C5_2 1_555 1_555
C6_2 C5_2 1_555 1_555
C8_2 C4_2 1_555 1_555
C9_2 O5_2 1_555 1_555
C10_2 C9_2 1_555 1_555
H5_2 C10_2 1_555 1_555
C11_3 C10_2 1_555 1_555
H6_3 C11_3 1_555 1_555
C12_3 C9_2 1_555 1_555
H7_3 C12_3 1_555 1_555
O11 C29_2 1_555 1_555
O12 C29_2 1_555 1_555
O13 C36_2 1_555 1_555
O15 C36_2 1_555 1_555
O10_2 C34_2 1_555 1_555
C29_2 C30_2 1_555 1_555
C30_2 C31_2 1_555 1_555
C31_2 H19_2 1_555 1_555
C32_2 C31_2 1_555 1_555
C33_2 C32_2 1_555 1_555
H20_2 C33_2 1_555 1_555
C34_2 C33_2 1_555 1_555
C35_2 C30_2 1_555 1_555
H21_2 C35_2 1_555 1_555
C36_2 C32_2 1_555 1_555
C37_2 C12_3 1_555 1_555
C38_2 C11_3 1_555 1_555
H22_2 C38_2 1_555 1_555
C6_2 C7_2 1_555 1_555
O10_2 C37_2 1_555 1_555
C34_2 C35_2 1_555 1_555
C37_2 C38_2 1_555 1_555
N3_2 C22_2 1_555 1_555
N4_2 N5_2 1_555 1_555
N5_2 H1_2 1_555 1_555
N13 C26_2 1_555 1_555
C17_2 C16_2 1_555 1_555
H11_2 C17_2 1_555 1_555
C18_2 C17_2 1_555 1_555
H12_2 C18_2 1_555 1_555
C19_2 C18_2 1_555 1_555
C20_2 C19_2 1_555 1_555
H13_2 C20_2 1_555 1_555
C21_2 C16_2 1_555 1_555
H14_2 C21_2 1_555 1_555
C22_2 N5_2 1_555 1_555
C23_2 N3_2 1_555 1_555
C24_2 C23_2 1_555 1_555
C25_2 C24_2 1_555 1_555
H15_2 C25_2 1_555 1_555
C26_2 C25_2 1_555 1_555
H16_2 C26_2 1_555 1_555
C27_2 N13 1_555 1_555
H17_2 C27_2 1_555 1_555
C28_2 C24_2 1_555 1_555
H18_2 C28_2 1_555 1_555
N9_2 C48_2 1_555 1_555
N10_2 N11_2 1_555 1_555
N11_2 H23_2 1_555 1_555
N14 C52_2 1_555 1_555
C43_2 C42_2 1_555 1_555
H27_2 C43_2 1_555 1_555
C44_2 C43_2 1_555 1_555
H28_2 C44_2 1_555 1_555
C45_2 C44_2 1_555 1_555
C46_2 C45_2 1_555 1_555
H29_2 C46_2 1_555 1_555
C47_2 C42_2 1_555 1_555
H30_2 C47_2 1_555 1_555
C48_2 N11_2 1_555 1_555
C49_2 N9_2 1_555 1_555
C50_2 C49_2 1_555 1_555
C51_2 C50_2 1_555 1_555
H31_2 C51_2 1_555 1_555
C52_2 C51_2 1_555 1_555
H32_2 C52_2 1_555 1_555
C53_2 N14 1_555 1_555
H33_2 C53_2 1_555 1_555
C54_2 C50_2 1_555 1_555
H34_2 C54_2 1_555 1_555
N4_2 C23_2 1_555 1_555
C19_2 C22_2 1_555 1_555
C20_2 C21_2 1_555 1_555
C27_2 C28_2 1_555 1_555
N10_2 C49_2 1_555 1_555
C45_2 C48_2 1_555 1_555
C46_2 C47_2 1_555 1_555
C53_2 C54_2 1_555 1_555
N3_3 C22_3 1_555 1_555
N4_3 N5_3 1_555 1_555
N5_3 H1_3 1_555 1_555
N6_2 C26_3 1_555 1_555
C17_3 C16_3 1_555 1_555
H11_3 C17_3 1_555 1_555
C18_3 C17_3 1_555 1_555
H12_3 C18_3 1_555 1_555
C19_3 C18_3 1_555 1_555
C20_3 C19_3 1_555 1_555
H13_3 C20_3 1_555 1_555
C21_3 C16_3 1_555 1_555
H14_3 C21_3 1_555 1_555
C22_3 N5_3 1_555 1_555
C23_3 N3_3 1_555 1_555
C24_3 C23_3 1_555 1_555
C25_3 C24_3 1_555 1_555
H15_3 C25_3 1_555 1_555
C26_3 C25_3 1_555 1_555
H16_3 C26_3 1_555 1_555
C27_3 N6_2 1_555 1_555
H17_3 C27_3 1_555 1_555
C28_3 C24_3 1_555 1_555
H18_3 C28_3 1_555 1_555
N9_3 C48_3 1_555 1_555
N10_3 N11_3 1_555 1_555
N11_3 H23_3 1_555 1_555
N12_2 C52_3 1_555 1_555
C43_3 C42_3 1_555 1_555
H27_3 C43_3 1_555 1_555
C44_3 C43_3 1_555 1_555
H28_3 C44_3 1_555 1_555
C45_3 C44_3 1_555 1_555
C46_3 C45_3 1_555 1_555
H29_3 C46_3 1_555 1_555
C47_3 C42_3 1_555 1_555
H30_3 C47_3 1_555 1_555
C48_3 N11_3 1_555 1_555
C49_3 N9_3 1_555 1_555
C50_3 C49_3 1_555 1_555
C51_3 C50_3 1_555 1_555
H31_3 C51_3 1_555 1_555
C52_3 C51_3 1_555 1_555
H32_3 C52_3 1_555 1_555
C53_3 N12_2 1_555 1_555
H33_3 C53_3 1_555 1_555
C54_3 C50_3 1_555 1_555
H34_3 C54_3 1_555 1_555
Zn4_2 N6_2 1_555 1_555
Zn6_2 N12_2 1_555 1_555
N4_3 C23_3 1_555 1_555
C19_3 C22_3 1_555 1_555
C20_3 C21_3 1_555 1_555
C27_3 C28_3 1_555 1_555
N10_3 C49_3 1_555 1_555
C45_3 C48_3 1_555 1_555
C46_3 C47_3 1_555 1_555
C53_3 C54_3 1_555 1_555
O4_2 C8_3 1_555 1_555
O5_3 C6_3 1_555 1_555
C5_3 C4_3 1_555 1_555
H3_3 C5_3 1_555 1_555
C6_3 C5_3 1_555 1_555
C8_3 C4_3 1_555 1_555
C9_3 O5_3 1_555 1_555
C10_3 C9_3 1_555 1_555
H5_3 C10_3 1_555 1_555
C11_4 C10_3 1_555 1_555
H6_4 C11_4 1_555 1_555
C12_4 C9_3 1_555 1_555
H7_4 C12_4 1_555 1_555
O6_2 C29_3 1_555 1_555
O7_2 C29_3 1_555 1_555
O8_2 C36_3 1_555 1_555
O9_2 C36_3 1_555 1_555
O10_3 C34_3 1_555 1_555
C29_3 C30_3 1_555 1_555
C30_3 C31_3 1_555 1_555
C31_3 H19_3 1_555 1_555
C32_3 C31_3 1_555 1_555
C33_3 C32_3 1_555 1_555
H20_3 C33_3 1_555 1_555
C34_3 C33_3 1_555 1_555
C35_3 C30_3 1_555 1_555
H21_3 C35_3 1_555 1_555
C36_3 C32_3 1_555 1_555
C37_3 C12_4 1_555 1_555
C38_3 C11_4 1_555 1_555
H22_3 C38_3 1_555 1_555
Zn4_2 O8_2 1_555 1_555
Zn6_2 O6_2 1_555 1_555
Zn7_2 O9_2 1_555 1_555
Zn8_2 O4_2 1_555 1_555
C6_3 C7_3 1_555 1_555
O7_2 Zn6_2 1_555 1_555
O10_3 C37_3 1_555 1_555
C34_3 C35_3 1_555 1_555
C37_3 C38_3 1_555 1_555
Zn4_2 N1_3 1_555 1_555
N1_3 C13_3 1_555 1_555
N2_3 C13_3 1_555 1_555
O1_3 Zn4_2 1_555 1_555
O2_3 Zn4_2 1_555 1_555
C1_3 O1_3 1_555 1_555
C2_3 C1_3 1_555 1_555
C3_3 C2_3 1_555 1_555
H2_3 C3_3 1_555 1_555
C13_3 H8_3 1_555 1_555
C14_3 N2_3 1_555 1_555
H9_3 C14_3 1_555 1_555
C15_3 N1_3 1_555 1_555
H10_3 C15_3 1_555 1_555
Zn6_2 O3_3 1_555 1_555
N7_3 Zn6_2 1_555 1_555
N8_3 C39_3 1_555 1_555
C39_3 N7_3 1_555 1_555
H24_3 C39_3 1_555 1_555
C40_3 N8_3 1_555 1_555
H25_3 C40_3 1_555 1_555
C41_3 N7_3 1_555 1_555
H26_3 C41_3 1_555 1_555
O14_2 Zn6_2 1_555 1_555
O15_2 Zn4_2 1_555 1_555
O2_3 C1_3 1_555 1_555
C14_3 C15_3 1_555 1_555
C40_3 C41_3 1_555 1_555
Zn7_2 N1_4 1_555 1_555
N1_4 C13_4 1_555 1_555
N2_4 C13_4 1_555 1_555
N3_4 C22_4 1_555 1_555
N4_4 N5_4 1_555 1_555
N5_4 H1_4 1_555 1_555
O1_4 Zn7_2 1_555 1_555
O2_4 Zn7_2 1_555 1_555
C1_4 O1_4 1_555 1_555
C2_4 C1_4 1_555 1_555
C13_4 H8_4 1_555 1_555
C14_4 N2_4 1_555 1_555
H9_4 C14_4 1_555 1_555
C15_4 N1_4 1_555 1_555
H10_4 C15_4 1_555 1_555
C16_4 N2_4 1_555 1_555
C17_4 C16_4 1_555 1_555
H11_4 C17_4 1_555 1_555
C18_4 C17_4 1_555 1_555
H12_4 C18_4 1_555 1_555
C19_4 C18_4 1_555 1_555
C20_4 C19_4 1_555 1_555
H13_4 C20_4 1_555 1_555
C21_4 C16_4 1_555 1_555
H14_4 C21_4 1_555 1_555
C22_4 N5_4 1_555 1_555
C23_4 N3_4 1_555 1_555
C24_4 C23_4 1_555 1_555
C28_4 C24_4 1_555 1_555
H18_4 C28_4 1_555 1_555
N13_2 Zn7_2 1_555 1_555
O13_2 Zn7_2 1_555 1_555
N4_4 C23_4 1_555 1_555
O2_4 C1_4 1_555 1_555
C14_4 C15_4 1_555 1_555
C19_4 C22_4 1_555 1_555
C20_4 C21_4 1_555 1_555
H6_5 C11_5 1_555 1_555
H7_5 C12_5 1_555 1_555
O13_2 C36_4 1_555 1_555
O15_2 C36_4 1_555 1_555
O10_4 C34_4 1_555 1_555
C31_4 H19_4 1_555 1_555
C32_4 C31_4 1_555 1_555
C33_4 C32_4 1_555 1_555
H20_4 C33_4 1_555 1_555
C34_4 C33_4 1_555 1_555
C36_4 C32_4 1_555 1_555
C37_4 C12_5 1_555 1_555
C38_4 C11_5 1_555 1_555
H22_4 C38_4 1_555 1_555
O10_4 C37_4 1_555 1_555
C37_4 C38_4 1_555 1_555
N13_2 C26_4 1_555 1_555
C26_4 C25_4 1_555 1_555
H16_4 C26_4 1_555 1_555
C27_4 N13_2 1_555 1_555
H17_4 C27_4 1_555 1_555
H2_4 C3_4 1_555 1_555
Zn8_2 O3_4 1_555 1_555
N7_4 Zn8_2 1_555 1_555
N8_4 C39_4 1_555 1_555
N9_4 C48_4 1_555 1_555
N10_4 N11_4 1_555 1_555
N11_4 H23_4 1_555 1_555
C39_4 N7_4 1_555 1_555
H24_4 C39_4 1_555 1_555
C40_4 N8_4 1_555 1_555
H25_4 C40_4 1_555 1_555
C41_4 N7_4 1_555 1_555
H26_4 C41_4 1_555 1_555
C42_4 N8_4 1_555 1_555
C43_4 C42_4 1_555 1_555
H27_4 C43_4 1_555 1_555
C44_4 C43_4 1_555 1_555
H28_4 C44_4 1_555 1_555
C45_4 C44_4 1_555 1_555
C46_4 C45_4 1_555 1_555
H29_4 C46_4 1_555 1_555
C47_4 C42_4 1_555 1_555
H30_4 C47_4 1_555 1_555
C48_4 N11_4 1_555 1_555
C49_4 N9_4 1_555 1_555
C50_4 C49_4 1_555 1_555
C54_4 C50_4 1_555 1_555
H34_4 C54_4 1_555 1_555
N14_2 Zn8_2 1_555 1_555
O11_2 Zn8_2 1_555 1_555
O12_2 Zn8_2 1_555 1_555
N10_4 C49_4 1_555 1_555
C40_4 C41_4 1_555 1_555
C45_4 C48_4 1_555 1_555
C46_4 C47_4 1_555 1_555
O14_2 C8_4 1_555 1_555
O5_4 C6_4 1_555 1_555
C5_4 C4_4 1_555 1_555
H3_4 C5_4 1_555 1_555
C6_4 C5_4 1_555 1_555
C8_4 C4_4 1_555 1_555
C9_4 O5_4 1_555 1_555
C10_4 C9_4 1_555 1_555
H5_4 C10_4 1_555 1_555
C11_6 C10_4 1_555 1_555
H6_6 C11_6 1_555 1_555
C12_6 C9_4 1_555 1_555
H7_6 C12_6 1_555 1_555
O11_2 C29_4 1_555 1_555
O12_2 C29_4 1_555 1_555
C29_4 C30_4 1_555 1_555
C35_4 C30_4 1_555 1_555
H21_4 C35_4 1_555 1_555
N14_2 C52_4 1_555 1_555
C52_4 C51_4 1_555 1_555
H32_4 C52_4 1_555 1_555
C53_4 N14_2 1_555 1_555
H33_4 C53_4 1_555 1_555

#END
