
###############################################################################
#
# This file contains modified crystal structure data generated from the
# MOF subset of the Cambridge Structural Database (CSD) v543 
# hosted by the Cambridge Crystallographic Data Centre (CCDC).
#
# This work is licensed under the Creative Commons
# Attribution-NonCommercial-ShareAlike 4.0 International License.
# To view a copy of this license, visit
# http://creativecommons.org/licenses/by-nc-sa/4.0/
# or send a letter to
# Creative Commons, PO Box 1866, Mountain View, CA 94042, USA.
#
# CIF created using the CSD Python API on 29 September 2022
# The structure has been converted into the P1 space group
# The structure has a 3D framework
# The original CSD entry FAZZEM is in the triclinic crystal system
# The framework has been calculated to contain at least 10.0% void space
# The void calculation uses a probe of radius 1.32A, grid spacing 0.4
#
###############################################################################

data_FAZZEM
_chemical_formula_moiety         '(C28 H36 La4 Mo6 N4 O50)n'
_symmetry_cell_setting           triclinic
_symmetry_space_group_name_H-M   'P 1'
_symmetry_Int_Tables_number      1
_space_group_name_Hall           'P 1'
loop_
_symmetry_equiv_pos_site_id
_symmetry_equiv_pos_as_xyz
1 x,y,z
_cell_length_a                   11.552(2)
_cell_length_b                   12.742(3)
_cell_length_c                   14.589(3)
_cell_angle_alpha                94.22(3)
_cell_angle_beta                 109.01(3)
_cell_angle_gamma                115.57(3)
_cell_volume                     1772.78
loop_
_atom_site_label
_atom_site_type_symbol
_atom_site_fract_x
_atom_site_fract_y
_atom_site_fract_z
O35 O 0.1042(3) 0.0473(2) 0.09722(19)
Mo6 Mo 0.15075(3) 0.24070(3) 0.11396(2)
O25 O 0.1055(3) 0.0165(3) 0.8336(2)
Mo5 Mo 0.14630(3) 0.04356(3) 0.96191(2)
O33 O 0.1143(3) 0.1815(2) 0.97349(19)
C2 C 0.2188(4) 0.6524(3) 0.0089(3)
La3 La 0.11849(2) 0.548303(17) 0.168890(14)
O29 O 0.3082(3) 0.7070(3) 0.0959(2)
O2 O 0.1163(3) 0.5477(2) 0.98793(19)
N1 N 0.1105(3) 0.6533(3) 0.8400(2)
O7 O 0.0127(3) 0.3943(3) 0.7544(2)
C4 C 0.1077(4) 0.6987(4) 0.7604(3)
C5 C 0.2272(4) 0.7100(3) 0.9242(3)
O15 O 0.0924(3) 0.8805(2) 0.97447(19)
C7 C 0.2194(5) 0.8021(4) 0.7620(3)
C8 C 0.3438(5) 0.8129(4) 0.9312(3)
H3 H 0.2135 0.8327 0.7057
C10 C 0.3406(5) 0.8596(4) 0.8489(3)
H4 H 0.4232 0.8500 0.9907
H6 H 0.4181 0.9283 0.8515
O34 O 0.9076(3) 0.1195(2) 0.02553(19)
Mo3 Mo 0.87802(4) 0.12568(3) 0.88441(2)
O24 O 0.9153(3) 0.0896(2) 0.77243(19)
O26 O 0.7007(3) 0.0514(3) 0.8353(2)
O32 O 0.9230(3) 0.2740(2) 0.8919(2)
La5 La 0.88151(2) 0.451697(17) 0.831110(14)
O14 O 0.8857(3) 0.8185(2) 0.02651(19)
Mo4 Mo 0.85370(3) 0.95644(3) 0.03809(2)
O28 O 0.8837(3) 0.4523(2) 0.01207(19)
O36 O 0.8945(3) 0.9835(3) 0.1664(2)
O1 O 0.8746(3) 0.5416(3) 0.6775(2)
O3 O 0.6417(3) 0.4399(3) 0.7610(2)
O4 O 0.8814(3) 0.6399(2) 0.8970(2)
O5 O 0.7004(3) 0.2696(3) 0.6806(2)
O6 O 0.6918(3) 0.2930(3) 0.9041(2)
C1 C 0.9739(4) 0.6271(4) 0.6687(3)
C3 C 0.5339(4) 0.4484(3) 0.7249(3)
Mo1 Mo 0.84925(3) 0.75930(3) 0.88604(2)
H1 H 0.6251 0.2209 0.6841
H2 H 0.7427 0.2418 0.6494
O9 O 0.9694(3) 0.6551(3) 0.5873(2)
O10 O 0.4937(3) 0.4764(3) 0.6439(2)
C6 C 0.4388(4) 0.4231(3) 0.7813(3)
O11 O 0.8958(3) 0.9527(2) 0.90278(19)
O12 O 0.8886(3) 0.7931(3) 0.7726(2)
O13 O 0.6721(3) 0.6976(3) 0.8376(2)
La2 La 0.73449(2) 0.524379(19) 0.443686(15)
N2 N 0.3222(3) 0.4306(3) 0.7350(2)
C9 C 0.4663(4) 0.3919(4) 0.8717(3)
Mo2 Mo 0.87277(4) 0.92697(3) 0.72809(2)
O16 O 0.6809(3) 0.6245(3) 0.5725(2)
O17 O 0.5722(4) 0.3544(3) 0.5056(2)
O18 O 0.8344(3) 0.3797(3) 0.4870(2)
O19 O 0.5899(4) 0.3265(3) 0.3048(2)
O20 O 0.8230(4) 0.7517(3) 0.4486(2)
O21 O 0.9087(3) 0.5619(3) 0.3652(2)
C11 C 0.2323(4) 0.4088(3) 0.7779(3)
H5 H 0.5477 0.3873 0.9026
C12 C 0.3703(5) 0.3674(4) 0.9155(3)
O22 O 0.6946(4) 0.8622(3) 0.6786(3)
O23 O 0.9163(4) 0.9278(3) 0.6272(2)
O27 O 0.6785(3) 0.8900(3) 0.9846(2)
H7 H 0.7408 0.6735 0.6364
H8 H 0.6163 0.6597 0.5458
H9 H 0.6135 0.3399 0.5568
H10 H 0.5826 0.4118 0.5299
H11 H 0.9059 0.3762 0.5377
H12 H 0.8766 0.4152 0.4377
H13 H 0.5224 0.3175 0.2547
H14 H 0.6025 0.2610 0.3226
H15 H 0.8036 0.7923 0.4025
H16 H 0.8366 0.7852 0.5152
C13 C 0.1021(4) 0.4149(3) 0.7188(3)
C14 C 0.2527(4) 0.3783(4) 0.8695(3)
H17 H 0.3853 0.3440 0.9753
H18 H 0.1888 0.3657 0.8987
La4 La 0.26551(2) 0.475621(19) 0.556314(15)
O30 O 0.5063(3) 0.5236(3) 0.3561(2)
N3 N 0.6778(3) 0.5694(3) 0.2650(2)
O31 O 0.0913(3) 0.4381(3) 0.6348(2)
O1_2 O 0.1254(3) 0.4584(3) 0.3225(2)
O3_2 O 0.3583(3) 0.5601(3) 0.2390(2)
O4_2 O 0.1186(3) 0.3601(2) 0.1030(2)
O5_2 O 0.2996(3) 0.7304(3) 0.3194(2)
O8 O 0.0770(3) 0.7260(2) 0.1081(2)
C1_2 C 0.0261(4) 0.3729(4) 0.3313(3)
C3_2 C 0.4661(4) 0.5516(3) 0.2751(3)
H1_2 H 0.3749 0.7791 0.3159
H2_2 H 0.2573 0.7582 0.3506
O9_2 O 0.0306(3) 0.3449(3) 0.4127(2)
C6_2 C 0.5612(4) 0.5769(3) 0.2187(3)
O12_2 O 0.1114(3) 0.2069(3) 0.2274(2)
O13_2 O 0.3279(3) 0.3024(3) 0.1624(2)
C9_2 C 0.5337(4) 0.6081(4) 0.1283(3)
Mo2_2 Mo 0.12723(4) 0.07303(3) 0.27191(2)
O16_2 O 0.3191(3) 0.3755(3) 0.4275(2)
O17_2 O 0.4278(4) 0.6456(3) 0.4944(2)
O18_2 O 0.1656(3) 0.6203(3) 0.5130(2)
O19_2 O 0.4101(4) 0.6735(3) 0.6952(2)
O20_2 O 0.1770(4) 0.2483(3) 0.5514(2)
C11_2 C 0.7677(4) 0.5912(3) 0.2221(3)
H5_2 H 0.4523 0.6127 0.0974
C12_2 C 0.6297(5) 0.6326(4) 0.0845(3)
O22_2 O 0.3054(4) 0.1378(3) 0.3214(3)
O23_2 O 0.0837(4) 0.0722(3) 0.3728(2)
O27_2 O 0.3215(3) 0.1100(3) 0.0154(2)
H7_2 H 0.2592 0.3265 0.3636
H8_2 H 0.3837 0.3403 0.4542
H9_2 H 0.3865 0.6601 0.4432
H10_2 H 0.4174 0.5882 0.4701
H11_2 H 0.0941 0.6238 0.4623
H12_2 H 0.1234 0.5848 0.5623
H13_2 H 0.4776 0.6825 0.7453
H14_2 H 0.3975 0.7390 0.6774
H15_2 H 0.1964 0.2077 0.5975
H16_2 H 0.1634 0.2148 0.4848
C13_2 C 0.8979(4) 0.5851(3) 0.2812(3)
C14_2 C 0.7473(4) 0.6217(4) 0.1305(3)
H17_2 H 0.6147 0.6560 0.0247
H18_2 H 0.8112 0.6343 0.1013
O37 O 0.9873(3) 0.6057(3) 0.2456(2)
Mo3_2 Mo 0.12198(4) 0.87432(3) 0.11559(2)
O24_2 O 0.0847(3) 0.9104(2) 0.22757(19)
O26_2 O 0.2993(3) 0.9486(3) 0.1647(2)
N1_2 N 0.8895(3) 0.3467(3) 0.1600(2)
C4_2 C 0.8923(4) 0.3013(4) 0.2396(3)
C5_2 C 0.7728(4) 0.2900(3) 0.0758(3)
C7_2 C 0.7806(5) 0.1979(4) 0.2380(3)
C8_2 C 0.6562(5) 0.1871(4) 0.0688(3)
H3_2 H 0.7865 0.1673 0.2943
C10_2 C 0.6594(5) 0.1404(4) 0.1511(3)
H4_2 H 0.5768 0.1500 0.0093
H6_2 H 0.5819 0.0717 0.1485
C2_2 C 0.7812(4) 0.3476(3) 0.9911(3)
loop_
_geom_bond_atom_site_label_1
_geom_bond_atom_site_label_2
_geom_bond_site_symmetry_1
_geom_bond_site_symmetry_2
O35 Mo6 1_555 1_555
O25 Mo5 1_555 1_555
Mo5 O33 1_555 1_555
O29 C2 1_555 1_555
La3 O29 1_555 1_555
C4 N1 1_555 1_555
C5 N1 1_555 1_555
C7 C4 1_555 1_555
C8 C5 1_555 1_555
H3 C7 1_555 1_555
C10 C7 1_555 1_555
H4 C8 1_555 1_555
H6 C10 1_555 1_555
C8 C10 1_555 1_555
O26 Mo3 1_555 1_555
O32 Mo3 1_555 1_555
La5 O32 1_555 1_555
Mo3 O24 1_555 1_555
O36 Mo4 1_555 1_555
O14 Mo4 1_555 1_555
La5 O1 1_555 1_555
O1 C1 1_555 1_555
O3 La5 1_555 1_555
O4 La5 1_555 1_555
O5 La5 1_555 1_555
O6 La5 1_555 1_555
C3 O3 1_555 1_555
Mo1 O4 1_555 1_555
H1 O5 1_555 1_555
H2 O5 1_555 1_555
O9 C1 1_555 1_555
O10 C3 1_555 1_555
C6 C3 1_555 1_555
O11 Mo1 1_555 1_555
O12 Mo1 1_555 1_555
O13 Mo1 1_555 1_555
La2 O9 1_555 1_555
N2 C6 1_555 1_555
C9 C6 1_555 1_555
Mo2 O11 1_555 1_555
O16 La2 1_555 1_555
O17 La2 1_555 1_555
O18 La2 1_555 1_555
O19 La2 1_555 1_555
O20 La2 1_555 1_555
O21 La2 1_555 1_555
C11 N2 1_555 1_555
H5 C9 1_555 1_555
C12 C9 1_555 1_555
O22 Mo2 1_555 1_555
O23 Mo2 1_555 1_555
H7 O16 1_555 1_555
H8 O16 1_555 1_555
H9 O17 1_555 1_555
H10 O17 1_555 1_555
H11 O18 1_555 1_555
H12 O18 1_555 1_555
H13 O19 1_555 1_555
H14 O19 1_555 1_555
H15 O20 1_555 1_555
H16 O20 1_555 1_555
C13 C11 1_555 1_555
C14 C11 1_555 1_555
H17 C12 1_555 1_555
H18 C14 1_555 1_555
La4 O10 1_555 1_555
O30 La2 1_555 1_555
N3 La2 1_555 1_555
O31 C13 1_555 1_555
O7 C13 1_555 1_555
O12 Mo2 1_555 1_555
N2 La4 1_555 1_555
C12 C14 1_555 1_555
La4 O31 1_555 1_555
La3 O1_2 1_555 1_555
O1_2 C1_2 1_555 1_555
O3_2 La3 1_555 1_555
O4_2 La3 1_555 1_555
O5_2 La3 1_555 1_555
O8 La3 1_555 1_555
C3_2 O3_2 1_555 1_555
Mo6 O4_2 1_555 1_555
H1_2 O5_2 1_555 1_555
H2_2 O5_2 1_555 1_555
O9_2 C1_2 1_555 1_555
O30 C3_2 1_555 1_555
C6_2 C3_2 1_555 1_555
O12_2 Mo6 1_555 1_555
O13_2 Mo6 1_555 1_555
La4 O9_2 1_555 1_555
N3 C6_2 1_555 1_555
C9_2 C6_2 1_555 1_555
Mo2_2 O35 1_555 1_555
O16_2 La4 1_555 1_555
O17_2 La4 1_555 1_555
O18_2 La4 1_555 1_555
O19_2 La4 1_555 1_555
O20_2 La4 1_555 1_555
C11_2 N3 1_555 1_555
H5_2 C9_2 1_555 1_555
C12_2 C9_2 1_555 1_555
O22_2 Mo2_2 1_555 1_555
O23_2 Mo2_2 1_555 1_555
H7_2 O16_2 1_555 1_555
H8_2 O16_2 1_555 1_555
H9_2 O17_2 1_555 1_555
H10_2 O17_2 1_555 1_555
H11_2 O18_2 1_555 1_555
H12_2 O18_2 1_555 1_555
H13_2 O19_2 1_555 1_555
H14_2 O19_2 1_555 1_555
H15_2 O20_2 1_555 1_555
H16_2 O20_2 1_555 1_555
C13_2 C11_2 1_555 1_555
C14_2 C11_2 1_555 1_555
H17_2 C12_2 1_555 1_555
H18_2 C14_2 1_555 1_555
O21 C13_2 1_555 1_555
O37 C13_2 1_555 1_555
O12_2 Mo2_2 1_555 1_555
C12_2 C14_2 1_555 1_555
O26_2 Mo3_2 1_555 1_555
O8 Mo3_2 1_555 1_555
Mo3_2 O24_2 1_555 1_555
C4_2 N1_2 1_555 1_555
C5_2 N1_2 1_555 1_555
C7_2 C4_2 1_555 1_555
C8_2 C5_2 1_555 1_555
H3_2 C7_2 1_555 1_555
C10_2 C7_2 1_555 1_555
H4_2 C8_2 1_555 1_555
H6_2 C10_2 1_555 1_555
C8_2 C10_2 1_555 1_555
O6 C2_2 1_555 1_555

#END
