
###############################################################################
#
# This file contains modified crystal structure data generated from the
# MOF subset of the Cambridge Structural Database (CSD) v543 
# hosted by the Cambridge Crystallographic Data Centre (CCDC).
#
# This work is licensed under the Creative Commons
# Attribution-NonCommercial-ShareAlike 4.0 International License.
# To view a copy of this license, visit
# http://creativecommons.org/licenses/by-nc-sa/4.0/
# or send a letter to
# Creative Commons, PO Box 1866, Mountain View, CA 94042, USA.
#
# CIF created using the CSD Python API on 29 September 2022
# The structure has been converted into the P1 space group
# The structure has a 3D framework
# The original CSD entry FEBPUZ is in the cubic crystal system
# The framework has been calculated to contain at least 10.0% void space
# The void calculation uses a probe of radius 1.32A, grid spacing 0.4
#
###############################################################################

data_FEBPUZ
_chemical_formula_moiety         '(C288 H240 Cd16 N48 Na11 O144 S48)n'
_symmetry_cell_setting           triclinic
_symmetry_space_group_name_H-M   'P 1'
_symmetry_Int_Tables_number      1
_space_group_name_Hall           'P 1'
loop_
_symmetry_equiv_pos_site_id
_symmetry_equiv_pos_as_xyz
1 x,y,z
_cell_length_a                   21.9332(2)
_cell_length_b                   21.9332(2)
_cell_length_c                   21.9332(2)
_cell_angle_alpha                90
_cell_angle_beta                 90
_cell_angle_gamma                90
_cell_volume                     10551.3
loop_
_atom_site_label
_atom_site_type_symbol
_atom_site_fract_x
_atom_site_fract_y
_atom_site_fract_z
Na2 Na 0.5000 0.0000 0.0000
Na1 Na 0.0000 0.0000 0.5000
C2 C 0.08040(17) 0.00866(17) 0.67132(16)
C3 C 0.10490(17) 0.04904(17) 0.63007(17)
H1 H 0.0877 0.0509 0.5913
C4 C 0.17587(16) 0.08306(17) 0.69873(16)
C5 C 0.15421(18) 0.04481(17) 0.74354(17)
H2 H 0.1716 0.0444 0.7822
C6 C 0.10653(18) 0.00756(17) 0.72949(18)
N1 N 0.15228(15) 0.08606(14) 0.64241(14)
S1 S 0.23858(5) 0.13472(5) 0.70520(5)
Cd2 Cd 0.082765(14) 0.082765(14) 0.417235(14)
Na2_2 Na 0.5000 -0.0000 1.0000
C12 C 0.41960(17) 0.00866(17) 0.82868(16)
C17 C 0.39510(17) 0.04904(17) 0.86993(17)
H6 H 0.4123 0.0509 0.9087
C22 C 0.32413(16) 0.08306(17) 0.80127(16)
C27 C 0.34579(18) 0.04481(17) 0.75646(17)
H11 H 0.3284 0.0444 0.7178
C32 C 0.39347(18) 0.00756(17) 0.77051(18)
N2 N 0.34772(15) 0.08606(14) 0.85759(14)
S2 S 0.26142(5) 0.13472(5) 0.79480(5)
O8 O 0.02484(13) 0.10473(12) 0.50289(11)
O19 O 0.17803(18) 0.11801(14) 0.44038(16)
O20 O 0.05962(16) 0.17803(18) 0.38199(14)
O21 O 0.11801(14) 0.05962(16) 0.32197(18)
H23 H 0.1949 0.1101 0.4744
H24 H 0.0256 0.1949 0.3899
H25 H 0.1101 0.0256 0.3051
H28 H 0.2044 0.1410 0.4236
H29 H 0.0764 0.2044 0.3590
H30 H 0.1410 0.0764 0.2956
Na2_3 Na 0.5000 1.0000 0.0000
Na1_2 Na -0.0000 1.0000 0.5000
C1 C 0.02674(17) 0.96938(18) 0.65647(18)
H3 H 0.0912 0.9811 0.7589
O1 O 0.00289(11) 0.97516(13) 0.60473(12)
O2 O 0.00757(18) 0.93406(17) 0.69579(17)
Cd3 Cd 0.582765(14) 0.917235(14) 0.917235(14)
Na2_4 Na 0.5000 1.0000 1.0000
C9 C 0.47326(17) 0.96938(18) 0.84353(18)
H16 H 0.4088 0.9811 0.7411
O7 O 0.10473(12) 0.99711(11) 0.47516(13)
O9 O 0.49711(11) 0.97516(13) 0.89527(12)
O12 O 0.49243(18) 0.93406(17) 0.80421(17)
Na1_3 Na 1.0000 0.0000 0.5000
Cd4 Cd 0.582765(14) 0.582765(14) 0.582765(14)
Cd5 Cd 0.417235(14) 0.082765(14) 0.082765(14)
Na3 Na 0.5000 0.5000 0.5000
C7 C 0.84353(18) 0.02674(17) 0.53062(18)
C8 C 0.97326(17) 0.03062(18) 0.34353(18)
C10 C 0.65647(18) 0.47326(17) 0.53062(18)
C11 C 0.52674(17) 0.03062(18) 0.15647(18)
C13 C 0.82868(16) 0.08040(17) 0.49134(17)
C14 C 0.67132(16) 0.41960(17) 0.49134(17)
C18 C 0.86993(17) 0.10490(17) 0.45096(17)
C19 C 0.63007(17) 0.39510(17) 0.45096(17)
H7 H 0.9087 0.0877 0.4491
H8 H 0.5913 0.4123 0.4491
C23 C 0.80127(16) 0.17587(16) 0.41694(17)
C24 C 0.69873(16) 0.32413(16) 0.41694(17)
C28 C 0.75646(17) 0.15421(18) 0.45519(17)
C29 C 0.74354(17) 0.34579(18) 0.45519(17)
H12 H 0.7178 0.1716 0.4556
H13 H 0.7822 0.3284 0.4556
C33 C 0.77051(18) 0.10653(18) 0.49244(17)
C34 C 0.72949(18) 0.39347(18) 0.49244(17)
H17 H 0.7411 0.0912 0.5189
H18 H 0.7589 0.4088 0.5189
H19 H 0.9088 0.0189 0.2411
H20 H 0.5912 0.0189 0.2589
N3 N 0.85759(14) 0.15228(15) 0.41394(14)
N4 N 0.64241(14) 0.34772(15) 0.41394(14)
S3 S 0.79480(5) 0.23858(5) 0.36528(5)
S4 S 0.70520(5) 0.26142(5) 0.36528(5)
O4 O 0.89527(12) 0.00289(11) 0.52484(13)
O6 O 0.99711(11) 0.02484(13) 0.39527(12)
O10 O 0.60473(12) 0.49711(11) 0.52484(13)
O11 O 0.50289(11) 0.02484(13) 0.10473(12)
O13 O 0.80421(17) 0.00757(18) 0.56594(17)
O14 O 0.69579(17) 0.49243(18) 0.56594(17)
O15 O 0.99243(18) 0.06594(17) 0.30421(17)
O16 O 0.50757(18) 0.06594(17) 0.19579(17)
Cd1 Cd 0.917235(14) 0.917235(14) 0.582765(14)
Na1_4 Na 1.0000 1.0000 0.5000
O3 O 0.82197(18) 0.88199(14) 0.55962(16)
H4 H 0.8051 0.8899 0.5256
H5 H 0.7956 0.8590 0.5764
C15 C 0.91960(17) 0.99134(17) 0.32868(16)
C16 C 0.58040(17) 0.99134(17) 0.17132(16)
C20 C 0.89510(17) 0.95096(17) 0.36993(17)
C21 C 0.60490(17) 0.95096(17) 0.13007(17)
H9 H 0.9123 0.9491 0.4087
H10 H 0.5877 0.9491 0.0913
C25 C 0.82413(16) 0.91694(17) 0.30127(16)
C26 C 0.67587(16) 0.91694(17) 0.19873(16)
C30 C 0.84579(18) 0.95519(17) 0.25646(17)
C31 C 0.65421(18) 0.95519(17) 0.24354(17)
H14 H 0.8284 0.9556 0.2178
H15 H 0.6716 0.9556 0.2822
C35 C 0.89347(18) 0.99244(17) 0.27051(18)
C36 C 0.60653(18) 0.99244(17) 0.22949(18)
N5 N 0.84772(15) 0.91394(14) 0.35759(14)
N6 N 0.65228(15) 0.91394(14) 0.14241(14)
S5 S 0.76142(5) 0.86528(5) 0.29480(5)
S6 S 0.73858(5) 0.86528(5) 0.20520(5)
O5 O 0.97516(13) 0.89527(12) 0.49711(11)
O17 O 0.94038(16) 0.82197(18) 0.61801(14)
O18 O 0.88199(14) 0.94038(16) 0.67803(18)
H21 H 0.9744 0.8051 0.6101
H22 H 0.8899 0.9744 0.6949
H26 H 0.9236 0.7956 0.6410
H27 H 0.8590 0.9236 0.7044
Cd5_2 Cd 0.082765(14) 0.417235(14) 0.082765(14)
Na4 Na -0.0000 0.5000 0.0000
Na4_2 Na -0.0000 0.5000 1.0000
C1_2 C 0.47326(17) 0.53062(18) 0.65647(18)
C2_2 C 0.41960(17) 0.49134(17) 0.67132(16)
C3_2 C 0.39510(17) 0.45096(17) 0.63007(17)
H1_2 H 0.4123 0.4491 0.5913
C4_2 C 0.32413(16) 0.41694(17) 0.69873(16)
C5_2 C 0.34579(18) 0.45519(17) 0.74354(17)
H2_2 H 0.3284 0.4556 0.7822
C6_2 C 0.39347(18) 0.49244(17) 0.72949(18)
H3_2 H 0.4088 0.5189 0.7589
N1_2 N 0.34772(15) 0.41394(14) 0.64241(14)
S1_2 S 0.26142(5) 0.36528(5) 0.70520(5)
O1_2 O 0.49711(11) 0.52484(13) 0.60473(12)
O2_2 O 0.49243(18) 0.56594(17) 0.69579(17)
O3_2 O 0.67803(18) 0.61801(14) 0.55962(16)
H4_2 H 0.6949 0.6101 0.5256
H5_2 H 0.7044 0.6410 0.5764
Cd2_2 Cd 0.417235(14) 0.417235(14) 0.417235(14)
Na4_3 Na 1.0000 0.5000 0.0000
C8_2 C 0.52674(17) 0.46938(18) 0.34353(18)
C9_2 C 0.02674(17) 0.53062(18) 0.84353(18)
C11_2 C 0.97326(17) 0.46938(18) 0.15647(18)
C12_2 C 0.08040(17) 0.49134(17) 0.82868(16)
C15_2 C 0.58040(17) 0.50866(17) 0.32868(16)
C16_2 C 0.91960(17) 0.50866(17) 0.17132(16)
C17_2 C 0.10490(17) 0.45096(17) 0.86993(17)
C20_2 C 0.60490(17) 0.54904(17) 0.36993(17)
C21_2 C 0.89510(17) 0.54904(17) 0.13007(17)
H6_2 H 0.0877 0.4491 0.9087
H9_2 H 0.5877 0.5509 0.4087
H10_2 H 0.9123 0.5509 0.0913
C22_2 C 0.17587(16) 0.41694(17) 0.80127(16)
C25_2 C 0.67587(16) 0.58306(17) 0.30127(16)
C26_2 C 0.82413(16) 0.58306(17) 0.19873(16)
C27_2 C 0.15421(18) 0.45519(17) 0.75646(17)
C30_2 C 0.65421(18) 0.54481(17) 0.25646(17)
C31_2 C 0.84579(18) 0.54481(17) 0.24354(17)
H11_2 H 0.1716 0.4556 0.7178
H14_2 H 0.6716 0.5444 0.2178
H15_2 H 0.8284 0.5444 0.2822
C32_2 C 0.10653(18) 0.49244(17) 0.77051(18)
C35_2 C 0.60653(18) 0.50756(17) 0.27051(18)
C36_2 C 0.89347(18) 0.50756(17) 0.22949(18)
H16_2 H 0.0912 0.5189 0.7411
H19_2 H 0.5912 0.4811 0.2411
H20_2 H 0.9088 0.4811 0.2589
N2_2 N 0.15228(15) 0.41394(14) 0.85759(14)
N5_2 N 0.65228(15) 0.58606(14) 0.35759(14)
N6_2 N 0.84772(15) 0.58606(14) 0.14241(14)
S2_2 S 0.23858(5) 0.36528(5) 0.79480(5)
S5_2 S 0.73858(5) 0.63472(5) 0.29480(5)
S6_2 S 0.76142(5) 0.63472(5) 0.20520(5)
O5_2 O 0.52484(13) 0.60473(12) 0.49711(11)
O6_2 O 0.50289(11) 0.47516(13) 0.39527(12)
O7_2 O 0.39527(12) 0.50289(11) 0.47516(13)
O8_2 O 0.47516(13) 0.39527(12) 0.50289(11)
O9_2 O 0.00289(11) 0.52484(13) 0.89527(12)
O11_2 O 0.99711(11) 0.47516(13) 0.10473(12)
O12_2 O 0.00757(18) 0.56594(17) 0.80421(17)
O15_2 O 0.50757(18) 0.43406(17) 0.30421(17)
O16_2 O 0.99243(18) 0.43406(17) 0.19579(17)
O17_2 O 0.55962(16) 0.67803(18) 0.61801(14)
O18_2 O 0.61801(14) 0.55962(16) 0.67803(18)
O19_2 O 0.32197(18) 0.38199(14) 0.44038(16)
O20_2 O 0.44038(16) 0.32197(18) 0.38199(14)
O21_2 O 0.38199(14) 0.44038(16) 0.32197(18)
H21_2 H 0.5256 0.6949 0.6101
H22_2 H 0.6101 0.5256 0.6949
H23_2 H 0.3051 0.3899 0.4744
H24_2 H 0.4744 0.3051 0.3899
H25_2 H 0.3899 0.4744 0.3051
H26_2 H 0.5764 0.7044 0.6410
H27_2 H 0.6410 0.5764 0.7044
H28_2 H 0.2956 0.3590 0.4236
H29_2 H 0.4236 0.2956 0.3590
H30_2 H 0.3590 0.4236 0.2956
Na4_4 Na 1.0000 0.5000 1.0000
Cd3_2 Cd 0.917235(14) 0.582765(14) 0.917235(14)
O7_3 O 0.10473(12) 0.50289(11) 0.02484(13)
O19_3 O 0.17803(18) 0.38199(14) 0.05962(16)
O20_3 O 0.05962(16) 0.32197(18) 0.11801(14)
O21_3 O 0.11801(14) 0.44038(16) 0.17803(18)
H23_3 H 0.1949 0.3899 0.0256
H24_3 H 0.0256 0.3051 0.1101
H25_3 H 0.1101 0.4744 0.1949
H28_3 H 0.2044 0.3590 0.0764
H29_3 H 0.0764 0.2956 0.1410
H30_3 H 0.1410 0.4236 0.2044
O8_3 O 0.02484(13) 0.39527(12) 0.99711(11)
C13_2 C 0.82868(16) 0.41960(17) 0.00866(17)
C14_2 C 0.67132(16) 0.08040(17) 0.00866(17)
C18_2 C 0.86993(17) 0.39510(17) 0.04904(17)
C19_2 C 0.63007(17) 0.10490(17) 0.04904(17)
H7_2 H 0.9087 0.4123 0.0509
H8_2 H 0.5913 0.0877 0.0509
C23_2 C 0.80127(16) 0.32413(16) 0.08306(17)
C24_2 C 0.69873(16) 0.17587(16) 0.08306(17)
C28_2 C 0.75646(17) 0.34579(18) 0.04481(17)
C29_2 C 0.74354(17) 0.15421(18) 0.04481(17)
H12_2 H 0.7178 0.3284 0.0444
H13_2 H 0.7822 0.1716 0.0444
C33_2 C 0.77051(18) 0.39347(18) 0.00756(17)
C34_2 C 0.72949(18) 0.10653(18) 0.00756(17)
N3_2 N 0.85759(14) 0.34772(15) 0.08606(14)
N4_2 N 0.64241(14) 0.15228(15) 0.08606(14)
S3_2 S 0.79480(5) 0.26142(5) 0.13472(5)
S4_2 S 0.70520(5) 0.23858(5) 0.13472(5)
O5_3 O 0.97516(13) 0.60473(12) 0.00289(11)
O3_3 O 0.82197(18) 0.61801(14) 0.94038(16)
H4_3 H 0.8051 0.6101 0.9744
H5_3 H 0.7956 0.6410 0.9236
C7_2 C 0.84353(18) 0.47326(17) 0.96938(18)
C10_2 C 0.65647(18) 0.02674(17) 0.96938(18)
H17_2 H 0.7411 0.4088 0.9811
H18_2 H 0.7589 0.0912 0.9811
O4_2 O 0.89527(12) 0.49711(11) 0.97516(13)
O10_2 O 0.60473(12) 0.00289(11) 0.97516(13)
O13_2 O 0.80421(17) 0.49243(18) 0.93406(17)
O14_2 O 0.69579(17) 0.00757(18) 0.93406(17)
O17_3 O 0.94038(16) 0.67803(18) 0.88199(14)
O18_3 O 0.88199(14) 0.55962(16) 0.82197(18)
H21_3 H 0.9744 0.6949 0.8899
H22_3 H 0.8899 0.5256 0.8051
H26_3 H 0.9236 0.7044 0.8590
H27_3 H 0.8590 0.5764 0.7956
O19_4 O 0.32197(18) 0.11801(14) 0.05962(16)
O20_4 O 0.44038(16) 0.17803(18) 0.11801(14)
O21_4 O 0.38199(14) 0.05962(16) 0.17803(18)
H23_4 H 0.3051 0.1101 0.0256
H24_4 H 0.4744 0.1949 0.1101
H25_4 H 0.3899 0.0256 0.1949
H28_4 H 0.2956 0.1410 0.0764
H29_4 H 0.4236 0.2044 0.1410
H30_4 H 0.3590 0.0764 0.2044
O8_4 O 0.47516(13) 0.10473(12) 0.99711(11)
O5_4 O 0.52484(13) 0.89527(12) 0.00289(11)
O7_4 O 0.39527(12) 0.99711(11) 0.02484(13)
O3_4 O 0.67803(18) 0.88199(14) 0.94038(16)
H4_4 H 0.6949 0.8899 0.9744
H5_4 H 0.7044 0.8590 0.9236
O17_4 O 0.55962(16) 0.82197(18) 0.88199(14)
O18_4 O 0.61801(14) 0.94038(16) 0.82197(18)
H21_4 H 0.5256 0.8051 0.8899
H22_4 H 0.6101 0.9744 0.8051
H26_4 H 0.5764 0.7956 0.8590
H27_4 H 0.6410 0.9236 0.7956
C7_3 C 0.53062(18) 0.84353(18) 0.02674(17)
C8_3 C 0.34353(18) 0.97326(17) 0.03062(18)
C10_3 C 0.53062(18) 0.65647(18) 0.47326(17)
C11_3 C 0.15647(18) 0.52674(17) 0.03062(18)
C13_3 C 0.49134(17) 0.82868(16) 0.08040(17)
C14_3 C 0.49134(17) 0.67132(16) 0.41960(17)
C18_3 C 0.45096(17) 0.86993(17) 0.10490(17)
C19_3 C 0.45096(17) 0.63007(17) 0.39510(17)
H7_3 H 0.4491 0.9087 0.0877
H8_3 H 0.4491 0.5913 0.4123
C23_3 C 0.41694(17) 0.80127(16) 0.17587(16)
C24_3 C 0.41694(17) 0.69873(16) 0.32413(16)
C28_3 C 0.45519(17) 0.75646(17) 0.15421(18)
C29_3 C 0.45519(17) 0.74354(17) 0.34579(18)
H12_3 H 0.4556 0.7178 0.1716
H13_3 H 0.4556 0.7822 0.3284
C33_3 C 0.49244(17) 0.77051(18) 0.10653(18)
C34_3 C 0.49244(17) 0.72949(18) 0.39347(18)
H17_3 H 0.5189 0.7411 0.0912
H18_3 H 0.5189 0.7589 0.4088
H19_3 H 0.2411 0.9088 0.0189
H20_3 H 0.2589 0.5912 0.0189
N3_3 N 0.41394(14) 0.85759(14) 0.15228(15)
N4_3 N 0.41394(14) 0.64241(14) 0.34772(15)
S3_3 S 0.36528(5) 0.79480(5) 0.23858(5)
S4_3 S 0.36528(5) 0.70520(5) 0.26142(5)
O13_3 O 0.56594(17) 0.80421(17) 0.00757(18)
O14_3 O 0.56594(17) 0.69579(17) 0.49243(18)
O15_3 O 0.30421(17) 0.99243(18) 0.06594(17)
O16_3 O 0.19579(17) 0.50757(18) 0.06594(17)
C15_3 C 0.32868(16) 0.91960(17) 0.99134(17)
C16_3 C 0.17132(16) 0.58040(17) 0.99134(17)
C20_3 C 0.36993(17) 0.89510(17) 0.95096(17)
C21_3 C 0.13007(17) 0.60490(17) 0.95096(17)
H9_3 H 0.4087 0.9123 0.9491
H10_3 H 0.0913 0.5877 0.9491
C25_3 C 0.30127(16) 0.82413(16) 0.91694(17)
C26_3 C 0.19873(16) 0.67587(16) 0.91694(17)
C30_3 C 0.25646(17) 0.84579(18) 0.95519(17)
C31_3 C 0.24354(17) 0.65421(18) 0.95519(17)
H14_3 H 0.2178 0.8284 0.9556
H15_3 H 0.2822 0.6716 0.9556
C35_3 C 0.27051(18) 0.89347(18) 0.99244(17)
C36_3 C 0.22949(18) 0.60653(18) 0.99244(17)
N5_3 N 0.35759(14) 0.84772(15) 0.91394(14)
N6_3 N 0.14241(14) 0.65228(15) 0.91394(14)
S5_3 S 0.29480(5) 0.76142(5) 0.86528(5)
S6_3 S 0.20520(5) 0.73858(5) 0.86528(5)
C13_4 C 0.00866(17) 0.67132(16) 0.08040(17)
C14_4 C 0.00866(17) 0.82868(16) 0.41960(17)
C18_4 C 0.04904(17) 0.63007(17) 0.10490(17)
C19_4 C 0.04904(17) 0.86993(17) 0.39510(17)
H7_4 H 0.0509 0.5913 0.0877
H8_4 H 0.0509 0.9087 0.4123
C23_4 C 0.08306(17) 0.69873(16) 0.17587(16)
C24_4 C 0.08306(17) 0.80127(16) 0.32413(16)
C28_4 C 0.04481(17) 0.74354(17) 0.15421(18)
C29_4 C 0.04481(17) 0.75646(17) 0.34579(18)
H12_4 H 0.0444 0.7822 0.1716
H13_4 H 0.0444 0.7178 0.3284
C33_4 C 0.00756(17) 0.72949(18) 0.10653(18)
C34_4 C 0.00756(17) 0.77051(18) 0.39347(18)
N3_4 N 0.08606(14) 0.64241(14) 0.15228(15)
N4_4 N 0.08606(14) 0.85759(14) 0.34772(15)
S3_4 S 0.13472(5) 0.70520(5) 0.23858(5)
S4_4 S 0.13472(5) 0.79480(5) 0.26142(5)
C7_4 C 0.96938(18) 0.65647(18) 0.02674(17)
C10_4 C 0.96938(18) 0.84353(18) 0.47326(17)
H17_4 H 0.9811 0.7589 0.0912
H18_4 H 0.9811 0.7411 0.4088
O13_4 O 0.93406(17) 0.69579(17) 0.00757(18)
O14_4 O 0.93406(17) 0.80421(17) 0.49243(18)
C8_4 C 0.34353(18) 0.52674(17) 0.46938(18)
C11_4 C 0.15647(18) 0.97326(17) 0.46938(18)
C15_4 C 0.32868(16) 0.58040(17) 0.50866(17)
C16_4 C 0.17132(16) 0.91960(17) 0.50866(17)
C20_4 C 0.36993(17) 0.60490(17) 0.54904(17)
C21_4 C 0.13007(17) 0.89510(17) 0.54904(17)
H9_4 H 0.4087 0.5877 0.5509
H10_4 H 0.0913 0.9123 0.5509
C25_4 C 0.30127(16) 0.67587(16) 0.58306(17)
C26_4 C 0.19873(16) 0.82413(16) 0.58306(17)
C30_4 C 0.25646(17) 0.65421(18) 0.54481(17)
C31_4 C 0.24354(17) 0.84579(18) 0.54481(17)
H14_4 H 0.2178 0.6716 0.5444
H15_4 H 0.2822 0.8284 0.5444
C35_4 C 0.27051(18) 0.60653(18) 0.50756(17)
C36_4 C 0.22949(18) 0.89347(18) 0.50756(17)
H19_4 H 0.2411 0.5912 0.4811
H20_4 H 0.2589 0.9088 0.4811
N5_4 N 0.35759(14) 0.65228(15) 0.58606(14)
N6_4 N 0.14241(14) 0.84772(15) 0.58606(14)
S5_4 S 0.29480(5) 0.73858(5) 0.63472(5)
S6_4 S 0.20520(5) 0.76142(5) 0.63472(5)
O15_4 O 0.30421(17) 0.50757(18) 0.43406(17)
O16_4 O 0.19579(17) 0.99243(18) 0.43406(17)
C8_5 C 0.03062(18) 0.34353(18) 0.97326(17)
C11_5 C 0.03062(18) 0.15647(18) 0.52674(17)
H19_5 H 0.0189 0.2411 0.9088
H20_5 H 0.0189 0.2589 0.5912
O15_5 O 0.06594(17) 0.30421(17) 0.99243(18)
O16_5 O 0.06594(17) 0.19579(17) 0.50757(18)
C15_5 C 0.99134(17) 0.32868(16) 0.91960(17)
C16_5 C 0.99134(17) 0.17132(16) 0.58040(17)
C20_5 C 0.95096(17) 0.36993(17) 0.89510(17)
C21_5 C 0.95096(17) 0.13007(17) 0.60490(17)
H9_5 H 0.9491 0.4087 0.9123
H10_5 H 0.9491 0.0913 0.5877
C25_5 C 0.91694(17) 0.30127(16) 0.82413(16)
C26_5 C 0.91694(17) 0.19873(16) 0.67587(16)
C30_5 C 0.95519(17) 0.25646(17) 0.84579(18)
C31_5 C 0.95519(17) 0.24354(17) 0.65421(18)
H14_5 H 0.9556 0.2178 0.8284
H15_5 H 0.9556 0.2822 0.6716
C35_5 C 0.99244(17) 0.27051(18) 0.89347(18)
C36_5 C 0.99244(17) 0.22949(18) 0.60653(18)
N5_5 N 0.91394(14) 0.35759(14) 0.84772(15)
N6_5 N 0.91394(14) 0.14241(14) 0.65228(15)
S5_5 S 0.86528(5) 0.29480(5) 0.76142(5)
S6_5 S 0.86528(5) 0.20520(5) 0.73858(5)
C8_6 C 0.46938(18) 0.15647(18) 0.97326(17)
C11_6 C 0.46938(18) 0.34353(18) 0.52674(17)
C15_6 C 0.50866(17) 0.17132(16) 0.91960(17)
C16_6 C 0.50866(17) 0.32868(16) 0.58040(17)
C20_6 C 0.54904(17) 0.13007(17) 0.89510(17)
C21_6 C 0.54904(17) 0.36993(17) 0.60490(17)
H9_6 H 0.5509 0.0913 0.9123
H10_6 H 0.5509 0.4087 0.5877
C25_6 C 0.58306(17) 0.19873(16) 0.82413(16)
C26_6 C 0.58306(17) 0.30127(16) 0.67587(16)
C30_6 C 0.54481(17) 0.24354(17) 0.84579(18)
C31_6 C 0.54481(17) 0.25646(17) 0.65421(18)
H14_6 H 0.5444 0.2822 0.8284
H15_6 H 0.5444 0.2178 0.6716
C35_6 C 0.50756(17) 0.22949(18) 0.89347(18)
C36_6 C 0.50756(17) 0.27051(18) 0.60653(18)
H19_6 H 0.4811 0.2589 0.9088
H20_6 H 0.4811 0.2411 0.5912
N5_6 N 0.58606(14) 0.14241(14) 0.84772(15)
N6_6 N 0.58606(14) 0.35759(14) 0.65228(15)
S5_6 S 0.63472(5) 0.20520(5) 0.76142(5)
S6_6 S 0.63472(5) 0.29480(5) 0.73858(5)
O15_6 O 0.43406(17) 0.19579(17) 0.99243(18)
O16_6 O 0.43406(17) 0.30421(17) 0.50757(18)
Na2_5 Na 0.5000 0.5000 0.0000
Na1_5 Na 0.5000 0.0000 0.5000
C1_3 C 0.53062(18) 0.02674(17) 0.65647(18)
C2_3 C 0.49134(17) 0.08040(17) 0.67132(16)
C3_3 C 0.45096(17) 0.10490(17) 0.63007(17)
H1_3 H 0.4491 0.0877 0.5913
C4_3 C 0.41694(17) 0.17587(16) 0.69873(16)
C5_3 C 0.45519(17) 0.15421(18) 0.74354(17)
H2_3 H 0.4556 0.1716 0.7822
C6_3 C 0.49244(17) 0.10653(18) 0.72949(18)
H3_3 H 0.5189 0.0912 0.7589
N1_3 N 0.41394(14) 0.15228(15) 0.64241(14)
S1_3 S 0.36528(5) 0.23858(5) 0.70520(5)
O1_3 O 0.52484(13) 0.00289(11) 0.60473(12)
O2_3 O 0.56594(17) 0.00757(18) 0.69579(17)
Cd2_3 Cd 0.417235(14) 0.082765(14) 0.417235(14)
Cd3_3 Cd 0.582765(14) 0.582765(14) 0.917235(14)
Na2_6 Na 0.5000 0.5000 1.0000
C9_3 C 0.53062(18) 0.47326(17) 0.84353(18)
C12_3 C 0.49134(17) 0.41960(17) 0.82868(16)
C17_3 C 0.45096(17) 0.39510(17) 0.86993(17)
H6_3 H 0.4491 0.4123 0.9087
C22_3 C 0.41694(17) 0.32413(16) 0.80127(16)
C27_3 C 0.45519(17) 0.34579(18) 0.75646(17)
H11_3 H 0.4556 0.3284 0.7178
C32_3 C 0.49244(17) 0.39347(18) 0.77051(18)
H16_3 H 0.5189 0.4088 0.7411
N2_3 N 0.41394(14) 0.34772(15) 0.85759(14)
S2_3 S 0.36528(5) 0.26142(5) 0.79480(5)
O7_5 O 0.50289(11) 0.10473(12) 0.47516(13)
O8_5 O 0.39527(12) 0.02484(13) 0.50289(11)
O9_3 O 0.52484(13) 0.49711(11) 0.89527(12)
O12_3 O 0.56594(17) 0.49243(18) 0.80421(17)
O19_5 O 0.38199(14) 0.17803(18) 0.44038(16)
O20_5 O 0.32197(18) 0.05962(16) 0.38199(14)
O21_5 O 0.44038(16) 0.11801(14) 0.32197(18)
H23_5 H 0.3899 0.1949 0.4744
H24_5 H 0.3051 0.0256 0.3899
H25_5 H 0.4744 0.1101 0.3051
H28_5 H 0.3590 0.2044 0.4236
H29_5 H 0.2956 0.0764 0.3590
H30_5 H 0.4236 0.1410 0.2956
Cd1_2 Cd 0.582765(14) 0.917235(14) 0.582765(14)
Na1_6 Na 0.5000 1.0000 0.5000
O3_5 O 0.61801(14) 0.82197(18) 0.55962(16)
H4_5 H 0.6101 0.8051 0.5256
H5_5 H 0.6410 0.7956 0.5764
Cd5_3 Cd 0.417235(14) 0.417235(14) 0.082765(14)
Na3_2 Na -0.0000 0.5000 0.5000
C7_5 C 0.47326(17) 0.84353(18) 0.53062(18)
C8_7 C 0.46938(18) 0.97326(17) 0.34353(18)
C10_5 C 0.02674(17) 0.65647(18) 0.53062(18)
C11_7 C 0.46938(18) 0.52674(17) 0.15647(18)
C13_5 C 0.41960(17) 0.82868(16) 0.49134(17)
C14_5 C 0.08040(17) 0.67132(16) 0.49134(17)
C15_7 C 0.50866(17) 0.91960(17) 0.32868(16)
C16_7 C 0.50866(17) 0.58040(17) 0.17132(16)
C18_5 C 0.39510(17) 0.86993(17) 0.45096(17)
C19_5 C 0.10490(17) 0.63007(17) 0.45096(17)
C20_7 C 0.54904(17) 0.89510(17) 0.36993(17)
C21_7 C 0.54904(17) 0.60490(17) 0.13007(17)
H7_5 H 0.4123 0.9087 0.4491
H8_5 H 0.0877 0.5913 0.4491
H9_7 H 0.5509 0.9123 0.4087
H10_7 H 0.5509 0.5877 0.0913
C23_5 C 0.32413(16) 0.80127(16) 0.41694(17)
C24_5 C 0.17587(16) 0.69873(16) 0.41694(17)
C25_7 C 0.58306(17) 0.82413(16) 0.30127(16)
C26_7 C 0.58306(17) 0.67587(16) 0.19873(16)
C28_5 C 0.34579(18) 0.75646(17) 0.45519(17)
C29_5 C 0.15421(18) 0.74354(17) 0.45519(17)
C30_7 C 0.54481(17) 0.84579(18) 0.25646(17)
C31_7 C 0.54481(17) 0.65421(18) 0.24354(17)
H12_5 H 0.3284 0.7178 0.4556
H13_5 H 0.1716 0.7822 0.4556
H14_7 H 0.5444 0.8284 0.2178
H15_7 H 0.5444 0.6716 0.2822
C33_5 C 0.39347(18) 0.77051(18) 0.49244(17)
C34_5 C 0.10653(18) 0.72949(18) 0.49244(17)
C35_7 C 0.50756(17) 0.89347(18) 0.27051(18)
C36_7 C 0.50756(17) 0.60653(18) 0.22949(18)
H17_5 H 0.4088 0.7411 0.5189
H18_5 H 0.0912 0.7589 0.5189
H19_7 H 0.4811 0.9088 0.2411
H20_7 H 0.4811 0.5912 0.2589
N3_5 N 0.34772(15) 0.85759(14) 0.41394(14)
N4_5 N 0.15228(15) 0.64241(14) 0.41394(14)
N5_7 N 0.58606(14) 0.84772(15) 0.35759(14)
N6_7 N 0.58606(14) 0.65228(15) 0.14241(14)
S3_5 S 0.26142(5) 0.79480(5) 0.36528(5)
S4_5 S 0.23858(5) 0.70520(5) 0.36528(5)
S5_7 S 0.63472(5) 0.76142(5) 0.29480(5)
S6_7 S 0.63472(5) 0.73858(5) 0.20520(5)
O4_3 O 0.49711(11) 0.89527(12) 0.52484(13)
O5_5 O 0.60473(12) 0.97516(13) 0.49711(11)
O6_3 O 0.47516(13) 0.99711(11) 0.39527(12)
O10_3 O 0.00289(11) 0.60473(12) 0.52484(13)
O11_3 O 0.47516(13) 0.50289(11) 0.10473(12)
O13_5 O 0.49243(18) 0.80421(17) 0.56594(17)
O14_5 O 0.00757(18) 0.69579(17) 0.56594(17)
O15_7 O 0.43406(17) 0.99243(18) 0.30421(17)
O16_7 O 0.43406(17) 0.50757(18) 0.19579(17)
O17_5 O 0.67803(18) 0.94038(16) 0.61801(14)
O18_5 O 0.55962(16) 0.88199(14) 0.67803(18)
H21_5 H 0.6949 0.9744 0.6101
H22_5 H 0.5256 0.8899 0.6949
H26_5 H 0.7044 0.9236 0.6410
H27_5 H 0.5764 0.8590 0.7044
Cd4_2 Cd 0.917235(14) 0.582765(14) 0.582765(14)
Na3_3 Na 1.0000 0.5000 0.5000
Cd5_4 Cd 0.082765(14) 0.082765(14) 0.082765(14)
Na4_5 Na 0.0000 0.0000 0.0000
Na4_6 Na 0.0000 -0.0000 1.0000
C2_4 C 0.00866(17) 0.41960(17) 0.67132(16)
C3_4 C 0.04904(17) 0.39510(17) 0.63007(17)
H1_4 H 0.0509 0.4123 0.5913
C4_4 C 0.08306(17) 0.32413(16) 0.69873(16)
C5_4 C 0.04481(17) 0.34579(18) 0.74354(17)
H2_4 H 0.0444 0.3284 0.7822
C6_4 C 0.00756(17) 0.39347(18) 0.72949(18)
N1_4 N 0.08606(14) 0.34772(15) 0.64241(14)
S1_4 S 0.13472(5) 0.26142(5) 0.70520(5)
Cd2_4 Cd 0.082765(14) 0.417235(14) 0.417235(14)
Na4_7 Na 0.0000 1.0000 0.0000
C8_8 C 0.03062(18) 0.52674(17) 0.34353(18)
C11_8 C 0.03062(18) 0.97326(17) 0.15647(18)
C12_4 C 0.00866(17) 0.08040(17) 0.82868(16)
C17_4 C 0.04904(17) 0.10490(17) 0.86993(17)
H6_4 H 0.0509 0.0877 0.9087
C22_4 C 0.08306(17) 0.17587(16) 0.80127(16)
C27_4 C 0.04481(17) 0.15421(18) 0.75646(17)
H11_4 H 0.0444 0.1716 0.7178
C32_4 C 0.00756(17) 0.10653(18) 0.77051(18)
H19_8 H 0.0189 0.5912 0.2411
H20_8 H 0.0189 0.9088 0.2589
N2_4 N 0.08606(14) 0.15228(15) 0.85759(14)
S2_4 S 0.13472(5) 0.23858(5) 0.79480(5)
O6_4 O 0.02484(13) 0.50289(11) 0.39527(12)
O8_6 O 0.10473(12) 0.47516(13) 0.50289(11)
O11_4 O 0.02484(13) 0.99711(11) 0.10473(12)
O15_8 O 0.06594(17) 0.50757(18) 0.30421(17)
O16_8 O 0.06594(17) 0.99243(18) 0.19579(17)
O19_6 O 0.11801(14) 0.32197(18) 0.44038(16)
O20_6 O 0.17803(18) 0.44038(16) 0.38199(14)
O21_6 O 0.05962(16) 0.38199(14) 0.32197(18)
H23_6 H 0.1101 0.3051 0.4744
H24_6 H 0.1949 0.4744 0.3899
H25_6 H 0.0256 0.3899 0.3051
H28_6 H 0.1410 0.2956 0.4236
H29_6 H 0.2044 0.4236 0.3590
H30_6 H 0.0764 0.3590 0.2956
Na4_8 Na -0.0000 1.0000 1.0000
Na4_9 Na 1.0000 0.0000 0.0000
Na4_10 Na 1.0000 -0.0000 1.0000
C1_4 C 0.96938(18) 0.47326(17) 0.65647(18)
H3_4 H 0.9811 0.4088 0.7589
O1_4 O 0.97516(13) 0.49711(11) 0.60473(12)
O2_4 O 0.93406(17) 0.49243(18) 0.69579(17)
O3_6 O 0.88199(14) 0.67803(18) 0.55962(16)
H4_6 H 0.8899 0.6949 0.5256
H5_6 H 0.8590 0.7044 0.5764
Na4_11 Na 1.0000 1.0000 0.0000
C9_4 C 0.96938(18) 0.02674(17) 0.84353(18)
C15_8 C 0.99134(17) 0.58040(17) 0.32868(16)
C16_8 C 0.99134(17) 0.91960(17) 0.17132(16)
C20_8 C 0.95096(17) 0.60490(17) 0.36993(17)
C21_8 C 0.95096(17) 0.89510(17) 0.13007(17)
H9_8 H 0.9491 0.5877 0.4087
H10_8 H 0.9491 0.9123 0.0913
C25_8 C 0.91694(17) 0.67587(16) 0.30127(16)
C26_8 C 0.91694(17) 0.82413(16) 0.19873(16)
C30_8 C 0.95519(17) 0.65421(18) 0.25646(17)
C31_8 C 0.95519(17) 0.84579(18) 0.24354(17)
H14_8 H 0.9556 0.6716 0.2178
H15_8 H 0.9556 0.8284 0.2822
C35_8 C 0.99244(17) 0.60653(18) 0.27051(18)
C36_8 C 0.99244(17) 0.89347(18) 0.22949(18)
H16_4 H 0.9811 0.0912 0.7411
N5_8 N 0.91394(14) 0.65228(15) 0.35759(14)
N6_8 N 0.91394(14) 0.84772(15) 0.14241(14)
S5_8 S 0.86528(5) 0.73858(5) 0.29480(5)
S6_8 S 0.86528(5) 0.76142(5) 0.20520(5)
O5_6 O 0.89527(12) 0.52484(13) 0.49711(11)
O7_6 O 0.99711(11) 0.39527(12) 0.47516(13)
O9_4 O 0.97516(13) 0.00289(11) 0.89527(12)
O12_4 O 0.93406(17) 0.00757(18) 0.80421(17)
O17_6 O 0.82197(18) 0.55962(16) 0.61801(14)
O18_6 O 0.94038(16) 0.61801(14) 0.67803(18)
H21_6 H 0.8051 0.5256 0.6101
H22_6 H 0.9744 0.6101 0.6949
H26_6 H 0.7956 0.5764 0.6410
H27_6 H 0.9236 0.6410 0.7044
Na4_12 Na 1.0000 1.0000 1.0000
Cd3_4 Cd 0.917235(14) 0.917235(14) 0.917235(14)
O19_7 O 0.11801(14) 0.17803(18) 0.05962(16)
O20_7 O 0.17803(18) 0.05962(16) 0.11801(14)
O21_7 O 0.05962(16) 0.11801(14) 0.17803(18)
H23_7 H 0.1101 0.1949 0.0256
H24_7 H 0.1949 0.0256 0.1101
H25_7 H 0.0256 0.1101 0.1949
H28_7 H 0.1410 0.2044 0.0764
H29_7 H 0.2044 0.0764 0.1410
H30_7 H 0.0764 0.1410 0.2044
O8_7 O 0.10473(12) 0.02484(13) 0.99711(11)
C13_6 C 0.08040(17) 0.82868(16) 0.00866(17)
C14_6 C 0.41960(17) 0.67132(16) 0.00866(17)
C18_6 C 0.10490(17) 0.86993(17) 0.04904(17)
C19_6 C 0.39510(17) 0.63007(17) 0.04904(17)
H7_6 H 0.0877 0.9087 0.0509
H8_6 H 0.4123 0.5913 0.0509
C23_6 C 0.17587(16) 0.80127(16) 0.08306(17)
C24_6 C 0.32413(16) 0.69873(16) 0.08306(17)
C28_6 C 0.15421(18) 0.75646(17) 0.04481(17)
C29_6 C 0.34579(18) 0.74354(17) 0.04481(17)
H12_6 H 0.1716 0.7178 0.0444
H13_6 H 0.3284 0.7822 0.0444
C33_6 C 0.10653(18) 0.77051(18) 0.00756(17)
C34_6 C 0.39347(18) 0.72949(18) 0.00756(17)
N3_6 N 0.15228(15) 0.85759(14) 0.08606(14)
N4_6 N 0.34772(15) 0.64241(14) 0.08606(14)
S3_6 S 0.23858(5) 0.79480(5) 0.13472(5)
S4_6 S 0.26142(5) 0.70520(5) 0.13472(5)
C7_6 C 0.02674(17) 0.84353(18) 0.96938(18)
C10_6 C 0.47326(17) 0.65647(18) 0.96938(18)
H17_6 H 0.0912 0.7411 0.9811
H18_6 H 0.4088 0.7589 0.9811
O4_4 O 0.00289(11) 0.89527(12) 0.97516(13)
O10_4 O 0.49711(11) 0.60473(12) 0.97516(13)
O13_6 O 0.00757(18) 0.80421(17) 0.93406(17)
O14_6 O 0.49243(18) 0.69579(17) 0.93406(17)
O7_7 O 0.99711(11) 0.10473(12) 0.02484(13)
O5_7 O 0.89527(12) 0.97516(13) 0.00289(11)
O3_7 O 0.88199(14) 0.82197(18) 0.94038(16)
H4_7 H 0.8899 0.8051 0.9744
H5_7 H 0.8590 0.7956 0.9236
O17_7 O 0.82197(18) 0.94038(16) 0.88199(14)
O18_7 O 0.94038(16) 0.88199(14) 0.82197(18)
H21_7 H 0.8051 0.9744 0.8899
H22_7 H 0.9744 0.8899 0.8051
H26_7 H 0.7956 0.9236 0.8590
H27_7 H 0.9236 0.8590 0.7956
O5_8 O 0.60473(12) 0.52484(13) 0.00289(11)
O7_8 O 0.50289(11) 0.39527(12) 0.02484(13)
O19_8 O 0.38199(14) 0.32197(18) 0.05962(16)
O20_8 O 0.32197(18) 0.44038(16) 0.11801(14)
O21_8 O 0.44038(16) 0.38199(14) 0.17803(18)
H23_8 H 0.3899 0.3051 0.0256
H24_8 H 0.3051 0.4744 0.1101
H25_8 H 0.4744 0.3899 0.1949
H28_8 H 0.3590 0.2956 0.0764
H29_8 H 0.2956 0.4236 0.1410
H30_8 H 0.4236 0.3590 0.2044
O3_8 O 0.61801(14) 0.67803(18) 0.94038(16)
H4_8 H 0.6101 0.6949 0.9744
H5_8 H 0.6410 0.7044 0.9236
O8_8 O 0.39527(12) 0.47516(13) 0.99711(11)
O17_8 O 0.67803(18) 0.55962(16) 0.88199(14)
O18_8 O 0.55962(16) 0.61801(14) 0.82197(18)
H21_8 H 0.6949 0.5256 0.8899
H22_8 H 0.5256 0.6101 0.8051
H26_8 H 0.7044 0.5764 0.8590
H27_8 H 0.5764 0.6410 0.7956
C7_7 C 0.65647(18) 0.53062(18) 0.02674(17)
C8_9 C 0.52674(17) 0.34353(18) 0.03062(18)
C10_7 C 0.84353(18) 0.53062(18) 0.47326(17)
C11_9 C 0.97326(17) 0.15647(18) 0.03062(18)
C13_7 C 0.67132(16) 0.49134(17) 0.08040(17)
C14_7 C 0.82868(16) 0.49134(17) 0.41960(17)
C18_7 C 0.63007(17) 0.45096(17) 0.10490(17)
C19_7 C 0.86993(17) 0.45096(17) 0.39510(17)
H7_7 H 0.5913 0.4491 0.0877
H8_7 H 0.9087 0.4491 0.4123
C23_7 C 0.69873(16) 0.41694(17) 0.17587(16)
C24_7 C 0.80127(16) 0.41694(17) 0.32413(16)
C28_7 C 0.74354(17) 0.45519(17) 0.15421(18)
C29_7 C 0.75646(17) 0.45519(17) 0.34579(18)
H12_7 H 0.7822 0.4556 0.1716
H13_7 H 0.7178 0.4556 0.3284
C33_7 C 0.72949(18) 0.49244(17) 0.10653(18)
C34_7 C 0.77051(18) 0.49244(17) 0.39347(18)
H17_7 H 0.7589 0.5189 0.0912
H18_7 H 0.7411 0.5189 0.4088
H19_9 H 0.5912 0.2411 0.0189
H20_9 H 0.9088 0.2589 0.0189
N3_7 N 0.64241(14) 0.41394(14) 0.15228(15)
N4_7 N 0.85759(14) 0.41394(14) 0.34772(15)
S3_7 S 0.70520(5) 0.36528(5) 0.23858(5)
S4_7 S 0.79480(5) 0.36528(5) 0.26142(5)
O13_7 O 0.69579(17) 0.56594(17) 0.00757(18)
O14_7 O 0.80421(17) 0.56594(17) 0.49243(18)
O15_9 O 0.50757(18) 0.30421(17) 0.06594(17)
O16_9 O 0.99243(18) 0.19579(17) 0.06594(17)
C15_9 C 0.58040(17) 0.32868(16) 0.99134(17)
C16_9 C 0.91960(17) 0.17132(16) 0.99134(17)
C20_9 C 0.60490(17) 0.36993(17) 0.95096(17)
C21_9 C 0.89510(17) 0.13007(17) 0.95096(17)
H9_9 H 0.5877 0.4087 0.9491
H10_9 H 0.9123 0.0913 0.9491
C25_9 C 0.67587(16) 0.30127(16) 0.91694(17)
C26_9 C 0.82413(16) 0.19873(16) 0.91694(17)
C30_9 C 0.65421(18) 0.25646(17) 0.95519(17)
C31_9 C 0.84579(18) 0.24354(17) 0.95519(17)
H14_9 H 0.6716 0.2178 0.9556
H15_9 H 0.8284 0.2822 0.9556
C35_9 C 0.60653(18) 0.27051(18) 0.99244(17)
C36_9 C 0.89347(18) 0.22949(18) 0.99244(17)
N5_9 N 0.65228(15) 0.35759(14) 0.91394(14)
N6_9 N 0.84772(15) 0.14241(14) 0.91394(14)
S5_9 S 0.73858(5) 0.29480(5) 0.86528(5)
S6_9 S 0.76142(5) 0.20520(5) 0.86528(5)
C13_8 C 0.82868(16) 0.00866(17) 0.08040(17)
C14_8 C 0.67132(16) 0.00866(17) 0.41960(17)
C18_8 C 0.86993(17) 0.04904(17) 0.10490(17)
C19_8 C 0.63007(17) 0.04904(17) 0.39510(17)
H7_8 H 0.9087 0.0509 0.0877
H8_8 H 0.5913 0.0509 0.4123
C23_8 C 0.80127(16) 0.08306(17) 0.17587(16)
C24_8 C 0.69873(16) 0.08306(17) 0.32413(16)
C28_8 C 0.75646(17) 0.04481(17) 0.15421(18)
C29_8 C 0.74354(17) 0.04481(17) 0.34579(18)
H12_8 H 0.7178 0.0444 0.1716
H13_8 H 0.7822 0.0444 0.3284
C33_8 C 0.77051(18) 0.00756(17) 0.10653(18)
C34_8 C 0.72949(18) 0.00756(17) 0.39347(18)
N3_8 N 0.85759(14) 0.08606(14) 0.15228(15)
N4_8 N 0.64241(14) 0.08606(14) 0.34772(15)
S3_8 S 0.79480(5) 0.13472(5) 0.23858(5)
S4_8 S 0.70520(5) 0.13472(5) 0.26142(5)
C7_8 C 0.84353(18) 0.96938(18) 0.02674(17)
C10_8 C 0.65647(18) 0.96938(18) 0.47326(17)
H17_8 H 0.7411 0.9811 0.0912
H18_8 H 0.7589 0.9811 0.4088
O13_8 O 0.80421(17) 0.93406(17) 0.00757(18)
O14_8 O 0.69579(17) 0.93406(17) 0.49243(18)
C8_10 C 0.97326(17) 0.34353(18) 0.46938(18)
C11_10 C 0.52674(17) 0.15647(18) 0.46938(18)
C15_10 C 0.91960(17) 0.32868(16) 0.50866(17)
C16_10 C 0.58040(17) 0.17132(16) 0.50866(17)
C20_10 C 0.89510(17) 0.36993(17) 0.54904(17)
C21_10 C 0.60490(17) 0.13007(17) 0.54904(17)
H9_10 H 0.9123 0.4087 0.5509
H10_10 H 0.5877 0.0913 0.5509
C25_10 C 0.82413(16) 0.30127(16) 0.58306(17)
C26_10 C 0.67587(16) 0.19873(16) 0.58306(17)
C30_10 C 0.84579(18) 0.25646(17) 0.54481(17)
C31_10 C 0.65421(18) 0.24354(17) 0.54481(17)
H14_10 H 0.8284 0.2178 0.5444
H15_10 H 0.6716 0.2822 0.5444
C35_10 C 0.89347(18) 0.27051(18) 0.50756(17)
C36_10 C 0.60653(18) 0.22949(18) 0.50756(17)
H19_10 H 0.9088 0.2411 0.4811
H20_10 H 0.5912 0.2589 0.4811
N5_10 N 0.84772(15) 0.35759(14) 0.58606(14)
N6_10 N 0.65228(15) 0.14241(14) 0.58606(14)
S5_10 S 0.76142(5) 0.29480(5) 0.63472(5)
S6_10 S 0.73858(5) 0.20520(5) 0.63472(5)
O15_10 O 0.99243(18) 0.30421(17) 0.43406(17)
O16_10 O 0.50757(18) 0.19579(17) 0.43406(17)
C8_11 C 0.15647(18) 0.46938(18) 0.52674(17)
C11_11 C 0.34353(18) 0.46938(18) 0.97326(17)
C15_11 C 0.17132(16) 0.50866(17) 0.58040(17)
C16_11 C 0.32868(16) 0.50866(17) 0.91960(17)
C20_11 C 0.13007(17) 0.54904(17) 0.60490(17)
C21_11 C 0.36993(17) 0.54904(17) 0.89510(17)
H9_11 H 0.0913 0.5509 0.5877
H10_11 H 0.4087 0.5509 0.9123
C25_11 C 0.19873(16) 0.58306(17) 0.67587(16)
C26_11 C 0.30127(16) 0.58306(17) 0.82413(16)
C30_11 C 0.24354(17) 0.54481(17) 0.65421(18)
C31_11 C 0.25646(17) 0.54481(17) 0.84579(18)
H14_11 H 0.2822 0.5444 0.6716
H15_11 H 0.2178 0.5444 0.8284
C35_11 C 0.22949(18) 0.50756(17) 0.60653(18)
C36_11 C 0.27051(18) 0.50756(17) 0.89347(18)
H19_11 H 0.2589 0.4811 0.5912
H20_11 H 0.2411 0.4811 0.9088
N5_11 N 0.14241(14) 0.58606(14) 0.65228(15)
N6_11 N 0.35759(14) 0.58606(14) 0.84772(15)
S5_11 S 0.20520(5) 0.63472(5) 0.73858(5)
S6_11 S 0.29480(5) 0.63472(5) 0.76142(5)
O15_11 O 0.19579(17) 0.43406(17) 0.50757(18)
O16_11 O 0.30421(17) 0.43406(17) 0.99243(18)
C8_12 C 0.15647(18) 0.03062(18) 0.97326(17)
C11_12 C 0.34353(18) 0.03062(18) 0.52674(17)
H19_12 H 0.2589 0.0189 0.9088
H20_12 H 0.2411 0.0189 0.5912
O15_12 O 0.19579(17) 0.06594(17) 0.99243(18)
O16_12 O 0.30421(17) 0.06594(17) 0.50757(18)
C15_12 C 0.17132(16) 0.99134(17) 0.91960(17)
C16_12 C 0.32868(16) 0.99134(17) 0.58040(17)
C20_12 C 0.13007(17) 0.95096(17) 0.89510(17)
C21_12 C 0.36993(17) 0.95096(17) 0.60490(17)
H9_12 H 0.0913 0.9491 0.9123
H10_12 H 0.4087 0.9491 0.5877
C25_12 C 0.19873(16) 0.91694(17) 0.82413(16)
C26_12 C 0.30127(16) 0.91694(17) 0.67587(16)
C30_12 C 0.24354(17) 0.95519(17) 0.84579(18)
C31_12 C 0.25646(17) 0.95519(17) 0.65421(18)
H14_12 H 0.2822 0.9556 0.8284
H15_12 H 0.2178 0.9556 0.6716
C35_12 C 0.22949(18) 0.99244(17) 0.89347(18)
C36_12 C 0.27051(18) 0.99244(17) 0.60653(18)
N5_12 N 0.14241(14) 0.91394(14) 0.84772(15)
N6_12 N 0.35759(14) 0.91394(14) 0.65228(15)
S5_12 S 0.20520(5) 0.86528(5) 0.76142(5)
S6_12 S 0.29480(5) 0.86528(5) 0.73858(5)
loop_
_geom_bond_atom_site_label_1
_geom_bond_atom_site_label_2
_geom_bond_site_symmetry_1
_geom_bond_site_symmetry_2
C2 C3 1_555 1_555
C3 H1 1_555 1_555
C4 C5 1_555 1_555
C5 H2 1_555 1_555
C6 C2 1_555 1_555
N1 C3 1_555 1_555
S1 C4 1_555 1_555
C12 C17 1_555 1_555
C17 H6 1_555 1_555
C22 C27 1_555 1_555
C27 H11 1_555 1_555
C32 C12 1_555 1_555
N2 C17 1_555 1_555
S2 S1 1_555 1_555
O8 Na1 1_555 1_555
O19 Cd2 1_555 1_555
O20 Cd2 1_555 1_555
O21 Cd2 1_555 1_555
H23 O19 1_555 1_555
H24 O20 1_555 1_555
H25 O21 1_555 1_555
H28 O19 1_555 1_555
H29 O20 1_555 1_555
H30 O21 1_555 1_555
C4 N1 1_555 1_555
C5 C6 1_555 1_555
Cd2 O8 1_555 1_555
C22 N2 1_555 1_555
C22 S2 1_555 1_555
C27 C32 1_555 1_555
Na1_2 O1 1_555 1_555
O1 C1 1_555 1_555
O2 C1 1_555 1_555
Cd3 O9 1_555 1_555
Na2_4 O9 1_555 1_555
O7 Na1_2 1_555 1_555
O9 C9 1_555 1_555
O12 C9 1_555 1_555
Cd4 O10 1_555 1_555
Cd5 O11 1_555 1_555
Na3 O10 1_555 1_555
Na2 O11 1_555 1_555
C7 C13 1_555 1_555
C10 C14 1_555 1_555
C13 C18 1_555 1_555
C14 C19 1_555 1_555
C18 H7 1_555 1_555
C19 H8 1_555 1_555
C23 C28 1_555 1_555
C24 C29 1_555 1_555
C28 H12 1_555 1_555
C29 H13 1_555 1_555
C33 C13 1_555 1_555
C34 C14 1_555 1_555
H17 C33 1_555 1_555
H18 C34 1_555 1_555
N3 C18 1_555 1_555
N4 C19 1_555 1_555
S3 C23 1_555 1_555
S4 C24 1_555 1_555
O6 Na1_3 1_555 1_555
O10 C10 1_555 1_555
O11 C11 1_555 1_555
O13 C7 1_555 1_555
O14 C10 1_555 1_555
O15 C8 1_555 1_555
O16 C11 1_555 1_555
Na1_3 O4 1_555 1_555
C7 O4 1_555 1_555
C8 O6 1_555 1_555
C23 N3 1_555 1_555
C24 N4 1_555 1_555
C28 C33 1_555 1_555
C29 C34 1_555 1_555
S3 S4 1_555 1_555
O3 Cd1 1_555 1_555
H4 O3 1_555 1_555
H5 O3 1_555 1_555
C15 C20 1_555 1_555
C16 C21 1_555 1_555
C20 H9 1_555 1_555
C21 H10 1_555 1_555
C25 C30 1_555 1_555
C26 C31 1_555 1_555
C30 H14 1_555 1_555
C31 H15 1_555 1_555
C35 C15 1_555 1_555
C36 C16 1_555 1_555
N5 C20 1_555 1_555
N6 C21 1_555 1_555
S5 C25 1_555 1_555
S6 C26 1_555 1_555
O5 Cd1 1_555 1_555
O17 Cd1 1_555 1_555
O18 Cd1 1_555 1_555
H21 O17 1_555 1_555
H22 O18 1_555 1_555
H26 O17 1_555 1_555
H27 O18 1_555 1_555
Na1_4 O5 1_555 1_555
C25 N5 1_555 1_555
C26 N6 1_555 1_555
C30 C35 1_555 1_555
C31 C36 1_555 1_555
S5 S6 1_555 1_555
Cd4 O1_2 1_555 1_555
Na3 O1_2 1_555 1_555
C1_2 C2_2 1_555 1_555
C2_2 C3_2 1_555 1_555
C3_2 H1_2 1_555 1_555
C4_2 C5_2 1_555 1_555
C5_2 H2_2 1_555 1_555
C6_2 C2_2 1_555 1_555
H3_2 C6_2 1_555 1_555
N1_2 C3_2 1_555 1_555
S1_2 C4_2 1_555 1_555
O1_2 C1_2 1_555 1_555
O2_2 C1_2 1_555 1_555
O3_2 Cd4 1_555 1_555
H4_2 O3_2 1_555 1_555
H5_2 O3_2 1_555 1_555
Cd2_2 O6_2 1_555 1_555
Na4_2 O9_2 1_555 1_555
Na4_3 O11_2 1_555 1_555
C8_2 C15_2 1_555 1_555
C9_2 C12_2 1_555 1_555
C11_2 C16_2 1_555 1_555
C12_2 C17_2 1_555 1_555
C15_2 C20_2 1_555 1_555
C16_2 C21_2 1_555 1_555
C17_2 H6_2 1_555 1_555
C20_2 H9_2 1_555 1_555
C21_2 H10_2 1_555 1_555
C22_2 C27_2 1_555 1_555
C25_2 C30_2 1_555 1_555
C26_2 C31_2 1_555 1_555
C27_2 H11_2 1_555 1_555
C30_2 H14_2 1_555 1_555
C31_2 H15_2 1_555 1_555
C32_2 C12_2 1_555 1_555
C35_2 C15_2 1_555 1_555
C36_2 C16_2 1_555 1_555
H16_2 C32_2 1_555 1_555
H19_2 C35_2 1_555 1_555
H20_2 C36_2 1_555 1_555
N2_2 C17_2 1_555 1_555
N5_2 C20_2 1_555 1_555
N6_2 C21_2 1_555 1_555
S2_2 S1_2 1_555 1_555
S5_2 C25_2 1_555 1_555
S6_2 C26_2 1_555 1_555
O5_2 Cd4 1_555 1_555
O6_2 Na3 1_555 1_555
O7_2 Na3 1_555 1_555
O8_2 Na3 1_555 1_555
O9_2 C9_2 1_555 1_555
O11_2 C11_2 1_555 1_555
O12_2 C9_2 1_555 1_555
O15_2 C8_2 1_555 1_555
O16_2 C11_2 1_555 1_555
O17_2 Cd4 1_555 1_555
O18_2 Cd4 1_555 1_555
O19_2 Cd2_2 1_555 1_555
O20_2 Cd2_2 1_555 1_555
O21_2 Cd2_2 1_555 1_555
H21_2 O17_2 1_555 1_555
H22_2 O18_2 1_555 1_555
H23_2 O19_2 1_555 1_555
H24_2 O20_2 1_555 1_555
H25_2 O21_2 1_555 1_555
H26_2 O17_2 1_555 1_555
H27_2 O18_2 1_555 1_555
H28_2 O19_2 1_555 1_555
H29_2 O20_2 1_555 1_555
H30_2 O21_2 1_555 1_555
Na3 O5_2 1_555 1_555
C4_2 N1_2 1_555 1_555
C5_2 C6_2 1_555 1_555
Cd2_2 O7_2 1_555 1_555
Cd2_2 O8_2 1_555 1_555
C8_2 O6_2 1_555 1_555
C22_2 N2_2 1_555 1_555
C22_2 S2_2 1_555 1_555
C25_2 N5_2 1_555 1_555
C26_2 N6_2 1_555 1_555
C27_2 C32_2 1_555 1_555
C30_2 C35_2 1_555 1_555
C31_2 C36_2 1_555 1_555
S5_2 S6_2 1_555 1_555
O7_3 Na4 1_555 1_555
O19_3 Cd5_2 1_555 1_555
O20_3 Cd5_2 1_555 1_555
O21_3 Cd5_2 1_555 1_555
H23_3 O19_3 1_555 1_555
H24_3 O20_3 1_555 1_555
H25_3 O21_3 1_555 1_555
H28_3 O19_3 1_555 1_555
H29_3 O20_3 1_555 1_555
H30_3 O21_3 1_555 1_555
Cd5_2 O7_3 1_555 1_555
O8_3 Na4_2 1_555 1_555
C13_2 C18_2 1_555 1_555
C14_2 C19_2 1_555 1_555
C18_2 H7_2 1_555 1_555
C19_2 H8_2 1_555 1_555
C23_2 C28_2 1_555 1_555
C24_2 C29_2 1_555 1_555
C28_2 H12_2 1_555 1_555
C29_2 H13_2 1_555 1_555
C33_2 C13_2 1_555 1_555
C34_2 C14_2 1_555 1_555
N3_2 C18_2 1_555 1_555
N4_2 C19_2 1_555 1_555
S3_2 C23_2 1_555 1_555
S4_2 C24_2 1_555 1_555
Na4_3 O5_3 1_555 1_555
C23_2 N3_2 1_555 1_555
C24_2 N4_2 1_555 1_555
C28_2 C33_2 1_555 1_555
C29_2 C34_2 1_555 1_555
S3_2 S4_2 1_555 1_555
O3_3 Cd3_2 1_555 1_555
H4_3 O3_3 1_555 1_555
H5_3 O3_3 1_555 1_555
Na2_2 O10_2 1_555 1_555
O4_2 Cd3_2 1_555 1_555
O10_2 C10_2 1_555 1_555
O13_2 C7_2 1_555 1_555
O14_2 C10_2 1_555 1_555
O17_3 Cd3_2 1_555 1_555
O18_3 Cd3_2 1_555 1_555
H21_3 O17_3 1_555 1_555
H22_3 O18_3 1_555 1_555
H26_3 O17_3 1_555 1_555
H27_3 O18_3 1_555 1_555
Na4_4 O4_2 1_555 1_555
C7_2 O4_2 1_555 1_555
O19_4 Cd5 1_555 1_555
O20_4 Cd5 1_555 1_555
O21_4 Cd5 1_555 1_555
H23_4 O19_4 1_555 1_555
H24_4 O20_4 1_555 1_555
H25_4 O21_4 1_555 1_555
H28_4 O19_4 1_555 1_555
H29_4 O20_4 1_555 1_555
H30_4 O21_4 1_555 1_555
O8_4 Na2_2 1_555 1_555
O7_4 Na2_3 1_555 1_555
Na2_3 O5_4 1_555 1_555
O3_4 Cd3 1_555 1_555
H4_4 O3_4 1_555 1_555
H5_4 O3_4 1_555 1_555
O17_4 Cd3 1_555 1_555
O18_4 Cd3 1_555 1_555
H21_4 O17_4 1_555 1_555
H22_4 O18_4 1_555 1_555
H26_4 O17_4 1_555 1_555
H27_4 O18_4 1_555 1_555
C7_3 C13_3 1_555 1_555
C10_3 C14_3 1_555 1_555
C13_3 C18_3 1_555 1_555
C14_3 C19_3 1_555 1_555
C18_3 H7_3 1_555 1_555
C19_3 H8_3 1_555 1_555
C23_3 C28_3 1_555 1_555
C24_3 C29_3 1_555 1_555
C28_3 H12_3 1_555 1_555
C29_3 H13_3 1_555 1_555
C33_3 C13_3 1_555 1_555
C34_3 C14_3 1_555 1_555
H17_3 C33_3 1_555 1_555
H18_3 C34_3 1_555 1_555
N3_3 C18_3 1_555 1_555
N4_3 C19_3 1_555 1_555
S3_3 C23_3 1_555 1_555
S4_3 C24_3 1_555 1_555
O5_2 C10_3 1_555 1_555
O7_3 C11_3 1_555 1_555
O13_3 C7_3 1_555 1_555
O14_3 C10_3 1_555 1_555
O15_3 C8_3 1_555 1_555
O16_3 C11_3 1_555 1_555
C7_3 O5_4 1_555 1_555
C8_3 O7_4 1_555 1_555
C23_3 N3_3 1_555 1_555
C24_3 N4_3 1_555 1_555
C28_3 C33_3 1_555 1_555
C29_3 C34_3 1_555 1_555
S3_3 S4_3 1_555 1_555
C15_3 C20_3 1_555 1_555
C16_3 C21_3 1_555 1_555
C20_3 H9_3 1_555 1_555
C21_3 H10_3 1_555 1_555
C25_3 C30_3 1_555 1_555
C26_3 C31_3 1_555 1_555
C30_3 H14_3 1_555 1_555
C31_3 H15_3 1_555 1_555
C35_3 C15_3 1_555 1_555
C36_3 C16_3 1_555 1_555
N5_3 C20_3 1_555 1_555
N6_3 C21_3 1_555 1_555
S5_3 C25_3 1_555 1_555
S6_3 C26_3 1_555 1_555
C25_3 N5_3 1_555 1_555
C26_3 N6_3 1_555 1_555
C30_3 C35_3 1_555 1_555
C31_3 C36_3 1_555 1_555
S5_3 S6_3 1_555 1_555
C13_4 C18_4 1_555 1_555
C14_4 C19_4 1_555 1_555
C18_4 H7_4 1_555 1_555
C19_4 H8_4 1_555 1_555
C23_4 C28_4 1_555 1_555
C24_4 C29_4 1_555 1_555
C28_4 H12_4 1_555 1_555
C29_4 H13_4 1_555 1_555
C33_4 C13_4 1_555 1_555
C34_4 C14_4 1_555 1_555
N3_4 C18_4 1_555 1_555
N4_4 C19_4 1_555 1_555
S3_4 C23_4 1_555 1_555
S4_4 C24_4 1_555 1_555
C23_4 N3_4 1_555 1_555
C24_4 N4_4 1_555 1_555
C28_4 C33_4 1_555 1_555
C29_4 C34_4 1_555 1_555
S3_4 S4_4 1_555 1_555
O5 C10_4 1_555 1_555
O13_4 C7_4 1_555 1_555
O14_4 C10_4 1_555 1_555
C7_4 O5_3 1_555 1_555
C8_4 C15_4 1_555 1_555
C11_4 C16_4 1_555 1_555
C15_4 C20_4 1_555 1_555
C16_4 C21_4 1_555 1_555
C20_4 H9_4 1_555 1_555
C21_4 H10_4 1_555 1_555
C25_4 C30_4 1_555 1_555
C26_4 C31_4 1_555 1_555
C30_4 H14_4 1_555 1_555
C31_4 H15_4 1_555 1_555
C35_4 C15_4 1_555 1_555
C36_4 C16_4 1_555 1_555
H19_4 C35_4 1_555 1_555
H20_4 C36_4 1_555 1_555
N5_4 C20_4 1_555 1_555
N6_4 C21_4 1_555 1_555
S5_4 C25_4 1_555 1_555
S6_4 C26_4 1_555 1_555
O7 C11_4 1_555 1_555
O15_4 C8_4 1_555 1_555
O16_4 C11_4 1_555 1_555
C8_4 O7_2 1_555 1_555
C25_4 N5_4 1_555 1_555
C26_4 N6_4 1_555 1_555
C30_4 C35_4 1_555 1_555
C31_4 C36_4 1_555 1_555
S5_4 S6_4 1_555 1_555
O8 C11_5 1_555 1_555
O15_5 C8_5 1_555 1_555
O16_5 C11_5 1_555 1_555
C8_5 O8_3 1_555 1_555
C15_5 C20_5 1_555 1_555
C16_5 C21_5 1_555 1_555
C20_5 H9_5 1_555 1_555
C21_5 H10_5 1_555 1_555
C25_5 C30_5 1_555 1_555
C26_5 C31_5 1_555 1_555
C30_5 H14_5 1_555 1_555
C31_5 H15_5 1_555 1_555
C35_5 C15_5 1_555 1_555
C36_5 C16_5 1_555 1_555
N5_5 C20_5 1_555 1_555
N6_5 C21_5 1_555 1_555
S5_5 C25_5 1_555 1_555
S6_5 C26_5 1_555 1_555
C25_5 N5_5 1_555 1_555
C26_5 N6_5 1_555 1_555
C30_5 C35_5 1_555 1_555
C31_5 C36_5 1_555 1_555
S5_5 S6_5 1_555 1_555
C8_6 C15_6 1_555 1_555
C11_6 C16_6 1_555 1_555
C15_6 C20_6 1_555 1_555
C16_6 C21_6 1_555 1_555
C20_6 H9_6 1_555 1_555
C21_6 H10_6 1_555 1_555
C25_6 C30_6 1_555 1_555
C26_6 C31_6 1_555 1_555
C30_6 H14_6 1_555 1_555
C31_6 H15_6 1_555 1_555
C35_6 C15_6 1_555 1_555
C36_6 C16_6 1_555 1_555
H19_6 C35_6 1_555 1_555
H20_6 C36_6 1_555 1_555
N5_6 C20_6 1_555 1_555
N6_6 C21_6 1_555 1_555
S5_6 C25_6 1_555 1_555
S6_6 C26_6 1_555 1_555
O8_2 C11_6 1_555 1_555
O15_6 C8_6 1_555 1_555
O16_6 C11_6 1_555 1_555
C8_6 O8_4 1_555 1_555
C25_6 N5_6 1_555 1_555
C26_6 N6_6 1_555 1_555
C30_6 C35_6 1_555 1_555
C31_6 C36_6 1_555 1_555
S5_6 S6_6 1_555 1_555
Na1_5 O1_3 1_555 1_555
C1_3 C2_3 1_555 1_555
C2_3 C3_3 1_555 1_555
C3_3 H1_3 1_555 1_555
C4_3 C5_3 1_555 1_555
C5_3 H2_3 1_555 1_555
C6_3 C2_3 1_555 1_555
H3_3 C6_3 1_555 1_555
N1_3 C3_3 1_555 1_555
S1_3 C4_3 1_555 1_555
O1_3 C1_3 1_555 1_555
O2_3 C1_3 1_555 1_555
Cd3_3 O9_3 1_555 1_555
Na2_6 O9_3 1_555 1_555
C9_3 C12_3 1_555 1_555
C12_3 C17_3 1_555 1_555
C17_3 H6_3 1_555 1_555
C22_3 C27_3 1_555 1_555
C27_3 H11_3 1_555 1_555
C32_3 C12_3 1_555 1_555
H16_3 C32_3 1_555 1_555
N2_3 C17_3 1_555 1_555
S2_3 S1_3 1_555 1_555
O7_5 Na1_5 1_555 1_555
O8_5 Na1_5 1_555 1_555
O9_3 C9_3 1_555 1_555
O12_3 C9_3 1_555 1_555
O19_5 Cd2_3 1_555 1_555
O20_5 Cd2_3 1_555 1_555
O21_5 Cd2_3 1_555 1_555
H23_5 O19_5 1_555 1_555
H24_5 O20_5 1_555 1_555
H25_5 O21_5 1_555 1_555
H28_5 O19_5 1_555 1_555
H29_5 O20_5 1_555 1_555
H30_5 O21_5 1_555 1_555
C4_3 N1_3 1_555 1_555
C5_3 C6_3 1_555 1_555
Cd2_3 O7_5 1_555 1_555
Cd2_3 O8_5 1_555 1_555
C22_3 N2_3 1_555 1_555
C22_3 S2_3 1_555 1_555
C27_3 C32_3 1_555 1_555
O3_5 Cd1_2 1_555 1_555
H4_5 O3_5 1_555 1_555
H5_5 O3_5 1_555 1_555
Cd5_3 O11_3 1_555 1_555
Na3_2 O10_3 1_555 1_555
Na2_5 O11_3 1_555 1_555
C7_5 C13_5 1_555 1_555
C8_7 C15_7 1_555 1_555
C10_5 C14_5 1_555 1_555
C11_7 C16_7 1_555 1_555
C13_5 C18_5 1_555 1_555
C14_5 C19_5 1_555 1_555
C15_7 C20_7 1_555 1_555
C16_7 C21_7 1_555 1_555
C18_5 H7_5 1_555 1_555
C19_5 H8_5 1_555 1_555
C20_7 H9_7 1_555 1_555
C21_7 H10_7 1_555 1_555
C23_5 C28_5 1_555 1_555
C24_5 C29_5 1_555 1_555
C25_7 C30_7 1_555 1_555
C26_7 C31_7 1_555 1_555
C28_5 H12_5 1_555 1_555
C29_5 H13_5 1_555 1_555
C30_7 H14_7 1_555 1_555
C31_7 H15_7 1_555 1_555
C33_5 C13_5 1_555 1_555
C34_5 C14_5 1_555 1_555
C35_7 C15_7 1_555 1_555
C36_7 C16_7 1_555 1_555
H17_5 C33_5 1_555 1_555
H18_5 C34_5 1_555 1_555
H19_7 C35_7 1_555 1_555
H20_7 C36_7 1_555 1_555
N3_5 C18_5 1_555 1_555
N4_5 C19_5 1_555 1_555
N5_7 C20_7 1_555 1_555
N6_7 C21_7 1_555 1_555
S3_5 C23_5 1_555 1_555
S4_5 C24_5 1_555 1_555
S5_7 C25_7 1_555 1_555
S6_7 C26_7 1_555 1_555
O4_3 Cd1_2 1_555 1_555
O5_5 Cd1_2 1_555 1_555
O6_3 Na1_6 1_555 1_555
O10_3 C10_5 1_555 1_555
O11_3 C11_7 1_555 1_555
O13_5 C7_5 1_555 1_555
O14_5 C10_5 1_555 1_555
O15_7 C8_7 1_555 1_555
O16_7 C11_7 1_555 1_555
O17_5 Cd1_2 1_555 1_555
O18_5 Cd1_2 1_555 1_555
H21_5 O17_5 1_555 1_555
H22_5 O18_5 1_555 1_555
H26_5 O17_5 1_555 1_555
H27_5 O18_5 1_555 1_555
Na1_6 O4_3 1_555 1_555
Na1_6 O5_5 1_555 1_555
C7_5 O4_3 1_555 1_555
C8_7 O6_3 1_555 1_555
C23_5 N3_5 1_555 1_555
C24_5 N4_5 1_555 1_555
C25_7 N5_7 1_555 1_555
C26_7 N6_7 1_555 1_555
C28_5 C33_5 1_555 1_555
C29_5 C34_5 1_555 1_555
C30_7 C35_7 1_555 1_555
C31_7 C36_7 1_555 1_555
S3_5 S4_5 1_555 1_555
S5_7 S6_7 1_555 1_555
C2_4 C3_4 1_555 1_555
C3_4 H1_4 1_555 1_555
C4_4 C5_4 1_555 1_555
C5_4 H2_4 1_555 1_555
C6_4 C2_4 1_555 1_555
N1_4 C3_4 1_555 1_555
S1_4 C4_4 1_555 1_555
Cd2_4 O6_4 1_555 1_555
Na4_7 O11_4 1_555 1_555
C12_4 C17_4 1_555 1_555
C17_4 H6_4 1_555 1_555
C22_4 C27_4 1_555 1_555
C27_4 H11_4 1_555 1_555
C32_4 C12_4 1_555 1_555
N2_4 C17_4 1_555 1_555
S2_4 S1_4 1_555 1_555
O6_4 Na3_2 1_555 1_555
O8_6 Na3_2 1_555 1_555
O11_4 C11_8 1_555 1_555
O15_8 C8_8 1_555 1_555
O16_8 C11_8 1_555 1_555
O19_6 Cd2_4 1_555 1_555
O20_6 Cd2_4 1_555 1_555
O21_6 Cd2_4 1_555 1_555
H23_6 O19_6 1_555 1_555
H24_6 O20_6 1_555 1_555
H25_6 O21_6 1_555 1_555
H28_6 O19_6 1_555 1_555
H29_6 O20_6 1_555 1_555
H30_6 O21_6 1_555 1_555
C4_4 N1_4 1_555 1_555
C5_4 C6_4 1_555 1_555
Cd2_4 O8_6 1_555 1_555
C8_8 O6_4 1_555 1_555
C22_4 N2_4 1_555 1_555
C22_4 S2_4 1_555 1_555
C27_4 C32_4 1_555 1_555
Cd4_2 O1_4 1_555 1_555
Na3_3 O1_4 1_555 1_555
O1_4 C1_4 1_555 1_555
O2_4 C1_4 1_555 1_555
O3_6 Cd4_2 1_555 1_555
H4_6 O3_6 1_555 1_555
H5_6 O3_6 1_555 1_555
Na4_10 O9_4 1_555 1_555
C15_8 C20_8 1_555 1_555
C16_8 C21_8 1_555 1_555
C20_8 H9_8 1_555 1_555
C21_8 H10_8 1_555 1_555
C25_8 C30_8 1_555 1_555
C26_8 C31_8 1_555 1_555
C30_8 H14_8 1_555 1_555
C31_8 H15_8 1_555 1_555
C35_8 C15_8 1_555 1_555
C36_8 C16_8 1_555 1_555
N5_8 C20_8 1_555 1_555
N6_8 C21_8 1_555 1_555
S5_8 C25_8 1_555 1_555
S6_8 C26_8 1_555 1_555
O5_6 Cd4_2 1_555 1_555
O7_6 Na3_3 1_555 1_555
O9_4 C9_4 1_555 1_555
O12_4 C9_4 1_555 1_555
O17_6 Cd4_2 1_555 1_555
O18_6 Cd4_2 1_555 1_555
H21_6 O17_6 1_555 1_555
H22_6 O18_6 1_555 1_555
H26_6 O17_6 1_555 1_555
H27_6 O18_6 1_555 1_555
Na3_3 O5_6 1_555 1_555
C25_8 N5_8 1_555 1_555
C26_8 N6_8 1_555 1_555
C30_8 C35_8 1_555 1_555
C31_8 C36_8 1_555 1_555
S5_8 S6_8 1_555 1_555
O19_7 Cd5_4 1_555 1_555
O20_7 Cd5_4 1_555 1_555
O21_7 Cd5_4 1_555 1_555
H23_7 O19_7 1_555 1_555
H24_7 O20_7 1_555 1_555
H25_7 O21_7 1_555 1_555
H28_7 O19_7 1_555 1_555
H29_7 O20_7 1_555 1_555
H30_7 O21_7 1_555 1_555
O8_7 Na4_6 1_555 1_555
C13_6 C18_6 1_555 1_555
C14_6 C19_6 1_555 1_555
C18_6 H7_6 1_555 1_555
C19_6 H8_6 1_555 1_555
C23_6 C28_6 1_555 1_555
C24_6 C29_6 1_555 1_555
C28_6 H12_6 1_555 1_555
C29_6 H13_6 1_555 1_555
C33_6 C13_6 1_555 1_555
C34_6 C14_6 1_555 1_555
N3_6 C18_6 1_555 1_555
N4_6 C19_6 1_555 1_555
S3_6 C23_6 1_555 1_555
S4_6 C24_6 1_555 1_555
C23_6 N3_6 1_555 1_555
C24_6 N4_6 1_555 1_555
C28_6 C33_6 1_555 1_555
C29_6 C34_6 1_555 1_555
S3_6 S4_6 1_555 1_555
Cd3_3 O10_4 1_555 1_555
Na2_6 O10_4 1_555 1_555
O10_4 C10_6 1_555 1_555
O13_6 C7_6 1_555 1_555
O14_6 C10_6 1_555 1_555
Na4_8 O4_4 1_555 1_555
C7_6 O4_4 1_555 1_555
O7_7 Na4_9 1_555 1_555
Na4_11 O5_7 1_555 1_555
O3_7 Cd3_4 1_555 1_555
H4_7 O3_7 1_555 1_555
H5_7 O3_7 1_555 1_555
O17_7 Cd3_4 1_555 1_555
O18_7 Cd3_4 1_555 1_555
H21_7 O17_7 1_555 1_555
H22_7 O18_7 1_555 1_555
H26_7 O17_7 1_555 1_555
H27_7 O18_7 1_555 1_555
O7_8 Na2_5 1_555 1_555
O19_8 Cd5_3 1_555 1_555
O20_8 Cd5_3 1_555 1_555
O21_8 Cd5_3 1_555 1_555
H23_8 O19_8 1_555 1_555
H24_8 O20_8 1_555 1_555
H25_8 O21_8 1_555 1_555
H28_8 O19_8 1_555 1_555
H29_8 O20_8 1_555 1_555
H30_8 O21_8 1_555 1_555
Na2_5 O5_8 1_555 1_555
Cd5_3 O7_8 1_555 1_555
O3_8 Cd3_3 1_555 1_555
H4_8 O3_8 1_555 1_555
H5_8 O3_8 1_555 1_555
O8_8 Na2_6 1_555 1_555
O17_8 Cd3_3 1_555 1_555
O18_8 Cd3_3 1_555 1_555
H21_8 O17_8 1_555 1_555
H22_8 O18_8 1_555 1_555
H26_8 O17_8 1_555 1_555
H27_8 O18_8 1_555 1_555
C7_7 C13_7 1_555 1_555
C10_7 C14_7 1_555 1_555
C13_7 C18_7 1_555 1_555
C14_7 C19_7 1_555 1_555
C18_7 H7_7 1_555 1_555
C19_7 H8_7 1_555 1_555
C23_7 C28_7 1_555 1_555
C24_7 C29_7 1_555 1_555
C28_7 H12_7 1_555 1_555
C29_7 H13_7 1_555 1_555
C33_7 C13_7 1_555 1_555
C34_7 C14_7 1_555 1_555
H17_7 C33_7 1_555 1_555
H18_7 C34_7 1_555 1_555
N3_7 C18_7 1_555 1_555
N4_7 C19_7 1_555 1_555
S3_7 C23_7 1_555 1_555
S4_7 C24_7 1_555 1_555
O5_6 C10_7 1_555 1_555
O7_7 C11_9 1_555 1_555
O13_7 C7_7 1_555 1_555
O14_7 C10_7 1_555 1_555
O15_9 C8_9 1_555 1_555
O16_9 C11_9 1_555 1_555
C7_7 O5_8 1_555 1_555
C8_9 O7_8 1_555 1_555
C23_7 N3_7 1_555 1_555
C24_7 N4_7 1_555 1_555
C28_7 C33_7 1_555 1_555
C29_7 C34_7 1_555 1_555
S3_7 S4_7 1_555 1_555
C15_9 C20_9 1_555 1_555
C16_9 C21_9 1_555 1_555
C20_9 H9_9 1_555 1_555
C21_9 H10_9 1_555 1_555
C25_9 C30_9 1_555 1_555
C26_9 C31_9 1_555 1_555
C30_9 H14_9 1_555 1_555
C31_9 H15_9 1_555 1_555
C35_9 C15_9 1_555 1_555
C36_9 C16_9 1_555 1_555
N5_9 C20_9 1_555 1_555
N6_9 C21_9 1_555 1_555
S5_9 C25_9 1_555 1_555
S6_9 C26_9 1_555 1_555
C25_9 N5_9 1_555 1_555
C26_9 N6_9 1_555 1_555
C30_9 C35_9 1_555 1_555
C31_9 C36_9 1_555 1_555
S5_9 S6_9 1_555 1_555
C13_8 C18_8 1_555 1_555
C14_8 C19_8 1_555 1_555
C18_8 H7_8 1_555 1_555
C19_8 H8_8 1_555 1_555
C23_8 C28_8 1_555 1_555
C24_8 C29_8 1_555 1_555
C28_8 H12_8 1_555 1_555
C29_8 H13_8 1_555 1_555
C33_8 C13_8 1_555 1_555
C34_8 C14_8 1_555 1_555
N3_8 C18_8 1_555 1_555
N4_8 C19_8 1_555 1_555
S3_8 C23_8 1_555 1_555
S4_8 C24_8 1_555 1_555
C23_8 N3_8 1_555 1_555
C24_8 N4_8 1_555 1_555
C28_8 C33_8 1_555 1_555
C29_8 C34_8 1_555 1_555
S3_8 S4_8 1_555 1_555
O5_5 C10_8 1_555 1_555
O13_8 C7_8 1_555 1_555
O14_8 C10_8 1_555 1_555
C7_8 O5_7 1_555 1_555
C8_10 C15_10 1_555 1_555
C11_10 C16_10 1_555 1_555
C15_10 C20_10 1_555 1_555
C16_10 C21_10 1_555 1_555
C20_10 H9_10 1_555 1_555
C21_10 H10_10 1_555 1_555
C25_10 C30_10 1_555 1_555
C26_10 C31_10 1_555 1_555
C30_10 H14_10 1_555 1_555
C31_10 H15_10 1_555 1_555
C35_10 C15_10 1_555 1_555
C36_10 C16_10 1_555 1_555
H19_10 C35_10 1_555 1_555
H20_10 C36_10 1_555 1_555
N5_10 C20_10 1_555 1_555
N6_10 C21_10 1_555 1_555
S5_10 C25_10 1_555 1_555
S6_10 C26_10 1_555 1_555
O7_5 C11_10 1_555 1_555
O15_10 C8_10 1_555 1_555
O16_10 C11_10 1_555 1_555
C8_10 O7_6 1_555 1_555
C25_10 N5_10 1_555 1_555
C26_10 N6_10 1_555 1_555
C30_10 C35_10 1_555 1_555
C31_10 C36_10 1_555 1_555
S5_10 S6_10 1_555 1_555
C8_11 C15_11 1_555 1_555
C11_11 C16_11 1_555 1_555
C15_11 C20_11 1_555 1_555
C16_11 C21_11 1_555 1_555
C20_11 H9_11 1_555 1_555
C21_11 H10_11 1_555 1_555
C25_11 C30_11 1_555 1_555
C26_11 C31_11 1_555 1_555
C30_11 H14_11 1_555 1_555
C31_11 H15_11 1_555 1_555
C35_11 C15_11 1_555 1_555
C36_11 C16_11 1_555 1_555
H19_11 C35_11 1_555 1_555
H20_11 C36_11 1_555 1_555
N5_11 C20_11 1_555 1_555
N6_11 C21_11 1_555 1_555
S5_11 C25_11 1_555 1_555
S6_11 C26_11 1_555 1_555
O8_8 C11_11 1_555 1_555
O15_11 C8_11 1_555 1_555
O16_11 C11_11 1_555 1_555
C8_11 O8_6 1_555 1_555
C25_11 N5_11 1_555 1_555
C26_11 N6_11 1_555 1_555
C30_11 C35_11 1_555 1_555
C31_11 C36_11 1_555 1_555
S5_11 S6_11 1_555 1_555
O8_5 C11_12 1_555 1_555
O15_12 C8_12 1_555 1_555
O16_12 C11_12 1_555 1_555
C8_12 O8_7 1_555 1_555
C15_12 C20_12 1_555 1_555
C16_12 C21_12 1_555 1_555
C20_12 H9_12 1_555 1_555
C21_12 H10_12 1_555 1_555
C25_12 C30_12 1_555 1_555
C26_12 C31_12 1_555 1_555
C30_12 H14_12 1_555 1_555
C31_12 H15_12 1_555 1_555
C35_12 C15_12 1_555 1_555
C36_12 C16_12 1_555 1_555
N5_12 C20_12 1_555 1_555
N6_12 C21_12 1_555 1_555
S5_12 C25_12 1_555 1_555
S6_12 C26_12 1_555 1_555
C25_12 N5_12 1_555 1_555
C26_12 N6_12 1_555 1_555
C30_12 C35_12 1_555 1_555
C31_12 C36_12 1_555 1_555
S5_12 S6_12 1_555 1_555

#END
