
###############################################################################
#
# This file contains modified crystal structure data generated from the
# MOF subset of the Cambridge Structural Database (CSD) v543 
# hosted by the Cambridge Crystallographic Data Centre (CCDC).
#
# This work is licensed under the Creative Commons
# Attribution-NonCommercial-ShareAlike 4.0 International License.
# To view a copy of this license, visit
# http://creativecommons.org/licenses/by-nc-sa/4.0/
# or send a letter to
# Creative Commons, PO Box 1866, Mountain View, CA 94042, USA.
#
# CIF created using the CSD Python API on 29 September 2022
# The structure has been converted into the P1 space group
# The structure has a 3D framework
# The original CSD entry FEBXIV is in the tetragonal crystal system
# The original CSD entry FEBXIV is in a Sohncke space group
# The framework has been calculated to contain at least 10.0% void space
# The void calculation uses a probe of radius 1.32A, grid spacing 0.4
# H atom positions have been added when not included in the experimental data
#
###############################################################################

data_FEBXIV
_chemical_formula_moiety         '(C384 H240 Cu16 O112 P10)n'
_symmetry_cell_setting           triclinic
_symmetry_space_group_name_H-M   'P 1'
_symmetry_Int_Tables_number      1
_space_group_name_Hall           'P 1'
loop_
_symmetry_equiv_pos_site_id
_symmetry_equiv_pos_as_xyz
1 x,y,z
_cell_length_a                   24.4616(4)
_cell_length_b                   24.4616(4)
_cell_length_c                   71.8721(12)
_cell_angle_alpha                90
_cell_angle_beta                 90
_cell_angle_gamma                90
_cell_volume                     43006.1
loop_
_atom_site_label
_atom_site_type_symbol
_atom_site_fract_x
_atom_site_fract_y
_atom_site_fract_z
Cu4 Cu 0.039780(14) 0.036240(16) 0.136780(4)
Cu7 Cu 0.039780(14) 0.463760(16) 0.113220(4)
Cu8 Cu 0.036240(16) 0.039780(14) 0.863220(4)
O18 O 0.09534(7) 0.10519(6) 0.86323(2)
H27 H 0.0956609 0.123153 0.850841
H28 H 0.0853904 0.132404 0.872906
O10 O 0.06912(8) 0.99597(11) 0.84292(3)
O12 O 0.01133(9) 0.92483(10) 0.84549(3)
O15 O 0.07441(9) 0.99688(10) 0.88101(3)
O17 O 0.01047(10) 0.93102(9) 0.88370(3)
O1 O 0.99597(11) 0.43088(8) 0.09292(3)
O2 O 0.92483(10) 0.48867(9) 0.09549(3)
O3 O 0.99688(10) 0.07441(9) 0.11899(3)
O4 O 0.93102(9) 0.01047(10) 0.11630(3)
C1 C 0.94772(17) 0.44980(18) 0.08938(5)
C2 C 0.9164(3) 0.4143(2) 0.07493(5)
C3 C 0.94346(15) 0.3716(3) 0.06594(9)
H1 H 0.9797 0.3634 0.0686
C4 C 0.83288(19) 0.3940(3) 0.05942(10)
H2 H 0.7960 0.4009 0.0574
C5 C 0.7704(2) 0.2571(3) 0.00846(7)
C6 C 0.8617(4) 0.3499(3) 0.05018(7)
C7 C 0.8793(3) 0.06443(17) 0.08776(10)
H3 H 0.8639 0.0321 0.0921
C8 C 0.9255(3) 0.16108(15) 0.07515(10)
H4 H 0.9414 0.1932 0.0708
C9 C 0.95466(16) 0.05524(17) 0.11235(5)
C10 C 0.9261(3) 0.0845(3) 0.09627(6)
C11 C 0.8636(4) 0.42461(18) 0.07132(8)
H5 H 0.8472 0.4541 0.0772
C12 C 0.85304(19) 0.0929(3) 0.07198(9)
H6 H 0.8221 0.0796 0.0660
C13 C 0.82649(19) 0.2591(3) 0.03578(9)
C14 C 0.9138(3) 0.34123(17) 0.05262(8)
H7 H 0.9316 0.3149 0.0455
C15 C 0.94846(15) 0.1328(3) 0.08981(9)
H8 H 0.9797 0.1466 0.0955
C16 C 0.8002(3) 0.3431(2) 0.02430(11)
H9 H 0.8008 0.3811 0.0242
C17 C 0.8280(2) 0.3169(3) 0.03732(9)
C18 C 0.7990(2) 0.2296(3) 0.02143(10)
C19 C 0.8786(3) 0.1410(3) 0.06695(7)
C20 C 0.80211(16) 0.1704(3) 0.02246(7)
H10 H 0.7867 0.1504 0.0128
C21 C 0.82637(18) 0.14142(15) 0.03681(10)
H11 H 0.8260 0.1034 0.0370
C22 C 0.85287(16) 0.1734(4) 0.05174(8)
C23 C 0.85234(15) 0.2303(3) 0.05007(8)
H12 H 0.8705 0.2505 0.0591
C24 C 0.7681(2) 0.3138(4) 0.00996(10)
P1 P 0.66301(9) 0.33699(9) 0.0000
Cu3 Cu 0.960220(14) 0.536240(16) 0.113220(4)
O19 O 0.65688(10) 0.26600(17) 0.00302(3)
O20 O 0.64798(14) 0.36024(14) 0.01839(4)
H29 H 0.658686 0.399374 0.0188471
O6 O 0.73400(17) 0.34312(10) 0.99698(3)
P1_2 P 0.66301(9) 0.33699(9) 1.0000
O7 O 0.63976(14) 0.35202(14) 0.98161(4)
Cu6 Cu 0.463760(16) 0.039780(14) 0.886780(4)
O8 O 0.56912(8) 0.00403(11) 0.90708(3)
O9 O 0.93088(8) 0.00403(11) 0.84292(3)
O11 O 0.51133(9) 0.07517(10) 0.90451(3)
O13 O 0.98867(9) 0.07517(10) 0.84549(3)
O14 O 0.92559(9) 0.00312(10) 0.88101(3)
O16 O 0.98953(10) 0.06898(9) 0.88370(3)
C25 C 0.55020(18) 0.05228(17) 0.91062(5)
C26 C 0.5857(2) 0.0836(3) 0.92507(5)
C27 C 0.6284(3) 0.05654(15) 0.93406(9)
H13 H 0.6366 0.0203 0.9314
C28 C 0.6060(3) 0.16712(19) 0.94058(10)
H14 H 0.5991 0.2040 0.9426
C29 C 0.7429(3) 0.2296(2) 0.99154(7)
C30 C 0.6501(3) 0.1383(4) 0.94982(7)
C31 C 0.93557(17) 0.1207(3) 0.91224(10)
H15 H 0.9679 0.1361 0.9079
C32 C 0.83892(15) 0.0745(3) 0.92485(10)
H16 H 0.8068 0.0586 0.9292
C33 C 0.94476(17) 0.04534(16) 0.88765(5)
C34 C 0.9155(3) 0.0739(3) 0.90373(6)
C35 C 0.57539(18) 0.1364(4) 0.92868(8)
H17 H 0.5459 0.1528 0.9228
C36 C 0.9071(3) 0.14696(19) 0.92802(9)
H18 H 0.9204 0.1779 0.9340
C37 C 0.7409(3) 0.17351(19) 0.96422(9)
C38 C 0.65877(17) 0.0862(3) 0.94738(8)
H19 H 0.6851 0.0684 0.9545
C39 C 0.8672(3) 0.05154(15) 0.91019(9)
H20 H 0.8534 0.0203 0.9045
C40 C 0.6569(2) 0.1998(3) 0.97570(11)
H21 H 0.6189 0.1992 0.9758
C41 C 0.6831(3) 0.1720(2) 0.96268(9)
C42 C 0.7704(3) 0.2010(2) 0.97857(10)
C43 C 0.8590(3) 0.1214(3) 0.93305(7)
C44 C 0.8296(3) 0.19789(16) 0.97754(7)
H22 H 0.8496 0.2133 0.9872
C45 C 0.85858(15) 0.17363(18) 0.96319(10)
H23 H 0.8966 0.1740 0.9630
C46 C 0.8266(4) 0.14713(16) 0.94826(8)
C47 C 0.7697(3) 0.14766(15) 0.94993(8)
H24 H 0.7495 0.1295 0.9409
C48 C 0.6862(4) 0.2319(2) 0.99004(10)
Cu5 Cu 0.960220(14) 0.963760(16) 0.136780(4)
Cu1 Cu 0.963760(16) 0.960220(14) 0.863220(4)
O5 O 0.90466(7) 0.89481(6) 0.86323(2)
Cu2 Cu 0.536240(16) 0.960220(14) 0.886780(4)
H25 H 0.904339 0.876847 0.850841
H26 H 0.91461 0.867596 0.872906
Cu6_2 Cu 0.036240(16) 0.460220(14) 0.386780(4)
Cu1_2 Cu 0.536240(16) 0.539780(14) 0.363220(4)
O1_2 O 0.50403(11) 0.06912(8) 0.59292(3)
O2_2 O 0.57517(10) 0.01133(9) 0.59549(3)
O3_2 O 0.50312(10) 0.42559(9) 0.61899(3)
O4_2 O 0.56898(9) 0.48953(10) 0.61630(3)
C1_2 C 0.55228(17) 0.05020(18) 0.58938(5)
C2_2 C 0.5836(3) 0.0857(2) 0.57493(5)
C3_2 C 0.55654(15) 0.1284(3) 0.56594(9)
H1_2 H 0.5203 0.1366 0.5686
C4_2 C 0.66712(19) 0.1060(3) 0.55942(10)
H2_2 H 0.7040 0.0991 0.5574
C5_2 C 0.7296(2) 0.2429(3) 0.50846(7)
C6_2 C 0.6383(4) 0.1501(3) 0.55018(7)
C7_2 C 0.6207(3) 0.43557(17) 0.58776(10)
H3_2 H 0.6361 0.4679 0.5921
C8_2 C 0.5745(3) 0.33892(15) 0.57515(10)
H4_2 H 0.5586 0.3068 0.5708
C9_2 C 0.54534(16) 0.44476(17) 0.61235(5)
C10_2 C 0.5739(3) 0.4155(3) 0.59627(6)
C11_2 C 0.6364(4) 0.07539(18) 0.57132(8)
H5_2 H 0.6528 0.0459 0.5772
C12_2 C 0.64696(19) 0.4071(3) 0.57198(9)
H6_2 H 0.6779 0.4204 0.5660
C13_2 C 0.67351(19) 0.2409(3) 0.53578(9)
C14_2 C 0.5862(3) 0.15877(17) 0.55262(8)
H7_2 H 0.5684 0.1851 0.5455
C15_2 C 0.55154(15) 0.3672(3) 0.58981(9)
H8_2 H 0.5203 0.3534 0.5955
C16_2 C 0.6998(3) 0.1569(2) 0.52430(11)
H9_2 H 0.6992 0.1189 0.5242
C17_2 C 0.6720(2) 0.1831(3) 0.53732(9)
C18_2 C 0.7010(2) 0.2704(3) 0.52143(10)
C19_2 C 0.6214(3) 0.3590(3) 0.56695(7)
C20_2 C 0.69789(16) 0.3296(3) 0.52246(7)
H10_2 H 0.7133 0.3496 0.5128
C21_2 C 0.67363(18) 0.35858(15) 0.53681(10)
H11_2 H 0.6740 0.3966 0.5370
C22_2 C 0.64713(16) 0.3266(4) 0.55174(8)
C23_2 C 0.64766(15) 0.2697(3) 0.55007(8)
H12_2 H 0.6295 0.2495 0.5591
C24_2 C 0.7319(2) 0.1862(4) 0.50996(10)
O5_2 O 0.59534(7) 0.60519(6) 0.36323(2)
O6_2 O 0.76600(17) 0.15688(10) 0.49698(3)
P1_3 P 0.83699(9) 0.16301(9) 0.5000
O7_2 O 0.86024(14) 0.14798(14) 0.48161(4)
Cu2_2 Cu 0.963760(16) 0.539780(14) 0.386780(4)
Cu4_2 Cu 0.460220(14) 0.463760(16) 0.636780(4)
Cu5_2 Cu 0.539780(14) 0.536240(16) 0.636780(4)
Cu7_2 Cu 0.460220(14) 0.036240(16) 0.613220(4)
Cu8_2 Cu 0.463760(16) 0.460220(14) 0.363220(4)
O8_2 O 0.93088(8) 0.49597(11) 0.40708(3)
O9_2 O 0.56912(8) 0.49597(11) 0.34292(3)
O10_2 O 0.43088(8) 0.50403(11) 0.34292(3)
O11_2 O 0.98867(9) 0.42483(10) 0.40451(3)
O12_2 O 0.48867(9) 0.57517(10) 0.34549(3)
O13_2 O 0.51133(9) 0.42483(10) 0.34549(3)
O14_2 O 0.57441(9) 0.49688(10) 0.38101(3)
O15_2 O 0.42559(9) 0.50312(10) 0.38101(3)
O16_2 O 0.51047(10) 0.43102(9) 0.38370(3)
O17_2 O 0.48953(10) 0.56898(9) 0.38370(3)
C25_2 C 0.94980(18) 0.44772(17) 0.41062(5)
C26_2 C 0.9143(2) 0.4164(3) 0.42507(5)
C27_2 C 0.8716(3) 0.44346(15) 0.43406(9)
H13_2 H 0.8634 0.4797 0.4314
C28_2 C 0.8940(3) 0.33288(19) 0.44058(10)
H14_2 H 0.9009 0.2960 0.4426
C29_2 C 0.7571(3) 0.2704(2) 0.49154(7)
C30_2 C 0.8499(3) 0.3617(4) 0.44982(7)
C31_2 C 0.56443(17) 0.3793(3) 0.41224(10)
H15_2 H 0.5321 0.3639 0.4079
C32_2 C 0.66108(15) 0.4255(3) 0.42485(10)
H16_2 H 0.6932 0.4414 0.4292
C33_2 C 0.55524(17) 0.45466(16) 0.38765(5)
C34_2 C 0.5845(3) 0.4261(3) 0.40373(6)
C35_2 C 0.92461(18) 0.3636(4) 0.42868(8)
H17_2 H 0.9541 0.3472 0.4228
C36_2 C 0.5929(3) 0.35304(19) 0.42802(9)
H18_2 H 0.5796 0.3221 0.4340
C37_2 C 0.7591(3) 0.32649(19) 0.46422(9)
C38_2 C 0.84123(17) 0.4138(3) 0.44738(8)
H19_2 H 0.8149 0.4316 0.4545
C39_2 C 0.6328(3) 0.44846(15) 0.41019(9)
H20_2 H 0.6466 0.4797 0.4045
C40_2 C 0.8431(2) 0.3002(3) 0.47570(11)
H21_2 H 0.8811 0.3008 0.4758
C41_2 C 0.8169(3) 0.3280(2) 0.46268(9)
C42_2 C 0.7296(3) 0.2990(2) 0.47857(10)
C43_2 C 0.6410(3) 0.3786(3) 0.43305(7)
C44_2 C 0.6704(3) 0.30211(16) 0.47754(7)
H22_2 H 0.6504 0.2867 0.4872
C45_2 C 0.64142(15) 0.32637(18) 0.46319(10)
H23_2 H 0.6034 0.3260 0.4630
C46_2 C 0.6734(4) 0.35287(16) 0.44826(8)
C47_2 C 0.7303(3) 0.35234(15) 0.44993(8)
H24_2 H 0.7505 0.3705 0.4409
C48_2 C 0.8138(4) 0.2681(2) 0.49004(10)
O18_2 O 0.40466(7) 0.39481(6) 0.36323(2)
O19_2 O 0.84312(10) 0.23400(17) 0.50302(3)
O20_2 O 0.85202(14) 0.13976(14) 0.51839(4)
H25_2 H 0.595661 0.623153 0.350841
H26_2 H 0.58539 0.632404 0.372906
H27_2 H 0.404339 0.376847 0.350841
H28_2 H 0.41461 0.367596 0.372906
H29_2 H 0.841314 0.100626 0.518847
Cu3_2 Cu 0.539780(14) 0.963760(16) 0.613220(4)
O5_3 O 0.10519(6) 0.40466(7) 0.11323(2)
O10_3 O 0.00403(11) 0.56912(8) 0.09292(3)
O12_3 O 0.07517(10) 0.51133(9) 0.09549(3)
O15_3 O 0.00312(10) 0.57441(9) 0.13101(3)
O17_3 O 0.06898(9) 0.51047(10) 0.13370(3)
H25_3 H 0.123153 0.404339 0.100841
H26_3 H 0.132404 0.41461 0.122906
O3_3 O 0.92559(9) 0.49688(10) 0.36899(3)
O4_3 O 0.98953(10) 0.43102(9) 0.36630(3)
C1_3 C 0.55020(18) 0.44772(17) 0.33938(5)
C2_3 C 0.5857(2) 0.4164(3) 0.32493(5)
C3_3 C 0.6284(3) 0.44346(15) 0.31594(9)
H1_3 H 0.6366 0.4797 0.3186
C4_3 C 0.6060(3) 0.33288(19) 0.30942(10)
H2_3 H 0.5991 0.2960 0.3074
C5_3 C 0.7429(3) 0.2704(2) 0.25846(7)
C6_3 C 0.6501(3) 0.3617(4) 0.30018(7)
C7_3 C 0.93557(17) 0.3793(3) 0.33776(10)
H3_3 H 0.9679 0.3639 0.3421
C8_3 C 0.83892(15) 0.4255(3) 0.32515(10)
H4_3 H 0.8068 0.4414 0.3208
C9_3 C 0.94476(17) 0.45466(16) 0.36235(5)
C10_3 C 0.9155(3) 0.4261(3) 0.34627(6)
C11_3 C 0.57539(18) 0.3636(4) 0.32132(8)
H5_3 H 0.5459 0.3472 0.3272
C12_3 C 0.9071(3) 0.35304(19) 0.32198(9)
H6_3 H 0.9204 0.3221 0.3160
C13_3 C 0.7409(3) 0.32649(19) 0.28578(9)
C14_3 C 0.65877(17) 0.4138(3) 0.30262(8)
H7_3 H 0.6851 0.4316 0.2955
C15_3 C 0.8672(3) 0.44846(15) 0.33981(9)
H8_3 H 0.8534 0.4797 0.3455
C16_3 C 0.6569(2) 0.3002(3) 0.27430(11)
H9_3 H 0.6189 0.3008 0.2742
C17_3 C 0.6831(3) 0.3280(2) 0.28732(9)
C18_3 C 0.7704(3) 0.2990(2) 0.27143(10)
C19_3 C 0.8590(3) 0.3786(3) 0.31695(7)
C20_3 C 0.8296(3) 0.30211(16) 0.27246(7)
H10_3 H 0.8496 0.2867 0.2628
C21_3 C 0.85858(15) 0.32637(18) 0.28681(10)
H11_3 H 0.8966 0.3260 0.2870
C22_3 C 0.8266(4) 0.35287(16) 0.30174(8)
C23_3 C 0.7697(3) 0.35234(15) 0.30007(8)
H12_3 H 0.7495 0.3705 0.3091
C24_3 C 0.6862(4) 0.2681(2) 0.25996(10)
O6_3 O 0.65688(10) 0.23400(17) 0.24698(3)
P1_4 P 0.66301(9) 0.16301(9) 0.2500
O7_3 O 0.64798(14) 0.13976(14) 0.23161(4)
O8_3 O 0.99597(11) 0.06912(8) 0.15708(3)
O11_3 O 0.92483(10) 0.01133(9) 0.15451(3)
O14_3 O 0.99688(10) 0.42559(9) 0.13101(3)
O16_3 O 0.93102(9) 0.48953(10) 0.13370(3)
C25_3 C 0.94772(17) 0.05020(18) 0.16062(5)
C26_3 C 0.9164(3) 0.0857(2) 0.17507(5)
C27_3 C 0.94346(15) 0.1284(3) 0.18406(9)
H13_3 H 0.9797 0.1366 0.1814
C28_3 C 0.83288(19) 0.1060(3) 0.19058(10)
H14_3 H 0.7960 0.0991 0.1926
C29_3 C 0.7704(2) 0.2429(3) 0.24154(7)
C30_3 C 0.8617(4) 0.1501(3) 0.19982(7)
C31_3 C 0.8793(3) 0.43557(17) 0.16224(10)
H15_3 H 0.8639 0.4679 0.1579
C32_3 C 0.9255(3) 0.33892(15) 0.17485(10)
H16_3 H 0.9414 0.3068 0.1792
C33_3 C 0.95466(16) 0.44476(17) 0.13765(5)
C34_3 C 0.9261(3) 0.4155(3) 0.15373(6)
C35_3 C 0.8636(4) 0.07539(18) 0.17868(8)
H17_3 H 0.8472 0.0459 0.1728
C36_3 C 0.85304(19) 0.4071(3) 0.17802(9)
H18_3 H 0.8221 0.4204 0.1840
C37_3 C 0.82649(19) 0.2409(3) 0.21422(9)
C38_3 C 0.9138(3) 0.15877(17) 0.19738(8)
H19_3 H 0.9316 0.1851 0.2045
C39_3 C 0.94846(15) 0.3672(3) 0.16019(9)
H20_3 H 0.9797 0.3534 0.1545
C40_3 C 0.8002(3) 0.1569(2) 0.22570(11)
H21_3 H 0.8008 0.1189 0.2258
C41_3 C 0.8280(2) 0.1831(3) 0.21268(9)
C42_3 C 0.7990(2) 0.2704(3) 0.22857(10)
C43_3 C 0.8786(3) 0.3590(3) 0.18305(7)
C44_3 C 0.80211(16) 0.3296(3) 0.22754(7)
H22_3 H 0.7867 0.3496 0.2372
C45_3 C 0.82637(18) 0.35858(15) 0.21319(10)
H23_3 H 0.8260 0.3966 0.2130
C46_3 C 0.85287(16) 0.3266(4) 0.19826(8)
C47_3 C 0.85234(15) 0.2697(3) 0.19993(8)
H24_3 H 0.8705 0.2495 0.1909
C48_3 C 0.7681(2) 0.1862(4) 0.24004(10)
O18_3 O 0.89481(6) 0.59534(7) 0.11323(2)
O19_3 O 0.73400(17) 0.15688(10) 0.25302(3)
O20_3 O 0.63976(14) 0.14798(14) 0.26839(4)
H27_3 H 0.876847 0.595661 0.100841
H28_3 H 0.867596 0.58539 0.122906
H29_3 H 0.600626 0.158686 0.268847
O3_4 O 0.57441(9) 0.00312(10) 0.86899(3)
O4_4 O 0.51047(10) 0.06898(9) 0.86630(3)
C1_4 C 0.94980(18) 0.05228(17) 0.83938(5)
C2_4 C 0.9143(2) 0.0836(3) 0.82493(5)
C3_4 C 0.8716(3) 0.05654(15) 0.81594(9)
H1_4 H 0.8634 0.0203 0.8186
C4_4 C 0.8940(3) 0.16712(19) 0.80942(10)
H2_4 H 0.9009 0.2040 0.8074
C5_4 C 0.7571(3) 0.2296(2) 0.75846(7)
C6_4 C 0.8499(3) 0.1383(4) 0.80018(7)
C7_4 C 0.56443(17) 0.1207(3) 0.83776(10)
H3_4 H 0.5321 0.1361 0.8421
C8_4 C 0.66108(15) 0.0745(3) 0.82515(10)
H4_4 H 0.6932 0.0586 0.8208
C9_4 C 0.55524(17) 0.04534(16) 0.86235(5)
C10_4 C 0.5845(3) 0.0739(3) 0.84627(6)
C11_4 C 0.92461(18) 0.1364(4) 0.82132(8)
H5_4 H 0.9541 0.1528 0.8272
C12_4 C 0.5929(3) 0.14696(19) 0.82198(9)
H6_4 H 0.5796 0.1779 0.8160
C13_4 C 0.7591(3) 0.17351(19) 0.78578(9)
C14_4 C 0.84123(17) 0.0862(3) 0.80262(8)
H7_4 H 0.8149 0.0684 0.7955
C15_4 C 0.6328(3) 0.05154(15) 0.83981(9)
H8_4 H 0.6466 0.0203 0.8455
C16_4 C 0.8431(2) 0.1998(3) 0.77430(11)
H9_4 H 0.8811 0.1992 0.7742
C17_4 C 0.8169(3) 0.1720(2) 0.78732(9)
C18_4 C 0.7296(3) 0.2010(2) 0.77143(10)
C19_4 C 0.6410(3) 0.1214(3) 0.81695(7)
C20_4 C 0.6704(3) 0.19789(16) 0.77246(7)
H10_4 H 0.6504 0.2133 0.7628
C21_4 C 0.64142(15) 0.17363(18) 0.78681(10)
H11_4 H 0.6034 0.1740 0.7870
C22_4 C 0.6734(4) 0.14713(16) 0.80174(8)
C23_4 C 0.7303(3) 0.14766(15) 0.80007(8)
H12_4 H 0.7505 0.1295 0.8091
C24_4 C 0.8138(4) 0.2319(2) 0.75996(10)
O5_4 O 0.39481(6) 0.09534(7) 0.61323(2)
O6_4 O 0.84312(10) 0.26600(17) 0.74698(3)
P1_5 P 0.83699(9) 0.33699(9) 0.7500
O7_4 O 0.85202(14) 0.36024(14) 0.73161(4)
O8_4 O 0.50403(11) 0.43088(8) 0.65708(3)
O11_4 O 0.57517(10) 0.48867(9) 0.65451(3)
O14_4 O 0.50312(10) 0.07441(9) 0.63101(3)
O16_4 O 0.56898(9) 0.01047(10) 0.63370(3)
C25_4 C 0.55228(17) 0.44980(18) 0.66062(5)
C26_4 C 0.5836(3) 0.4143(2) 0.67507(5)
C27_4 C 0.55654(15) 0.3716(3) 0.68406(9)
H13_4 H 0.5203 0.3634 0.6814
C28_4 C 0.66712(19) 0.3940(3) 0.69058(10)
H14_4 H 0.7040 0.4009 0.6926
C29_4 C 0.7296(2) 0.2571(3) 0.74154(7)
C30_4 C 0.6383(4) 0.3499(3) 0.69982(7)
C31_4 C 0.6207(3) 0.06443(17) 0.66224(10)
H15_4 H 0.6361 0.0321 0.6579
C32_4 C 0.5745(3) 0.16108(15) 0.67485(10)
H16_4 H 0.5586 0.1932 0.6792
C33_4 C 0.54534(16) 0.05524(17) 0.63765(5)
C34_4 C 0.5739(3) 0.0845(3) 0.65373(6)
C35_4 C 0.6364(4) 0.42461(18) 0.67868(8)
H17_4 H 0.6528 0.4541 0.6728
C36_4 C 0.64696(19) 0.0929(3) 0.67802(9)
H18_4 H 0.6779 0.0796 0.6840
C37_4 C 0.67351(19) 0.2591(3) 0.71422(9)
C38_4 C 0.5862(3) 0.34123(17) 0.69738(8)
H19_4 H 0.5684 0.3149 0.7045
C39_4 C 0.55154(15) 0.1328(3) 0.66019(9)
H20_4 H 0.5203 0.1466 0.6545
C40_4 C 0.6998(3) 0.3431(2) 0.72570(11)
H21_4 H 0.6992 0.3811 0.7258
C41_4 C 0.6720(2) 0.3169(3) 0.71268(9)
C42_4 C 0.7010(2) 0.2296(3) 0.72857(10)
C43_4 C 0.6214(3) 0.1410(3) 0.68305(7)
C44_4 C 0.69789(16) 0.1704(3) 0.72754(7)
H22_4 H 0.7133 0.1504 0.7372
C45_4 C 0.67363(18) 0.14142(15) 0.71319(10)
H23_4 H 0.6740 0.1034 0.7130
C46_4 C 0.64713(16) 0.1734(4) 0.69826(8)
C47_4 C 0.64766(15) 0.2303(3) 0.69993(8)
H24_4 H 0.6295 0.2505 0.6909
C48_4 C 0.7319(2) 0.3138(4) 0.74004(10)
O19_4 O 0.76600(17) 0.34312(10) 0.75302(3)
O20_4 O 0.86024(14) 0.35202(14) 0.76839(4)
H25_4 H 0.376847 0.0956609 0.600841
H26_4 H 0.367596 0.0853904 0.622906
H29_4 H 0.899374 0.341314 0.768847
O10_4 O 0.49597(11) 0.93088(8) 0.59292(3)
O12_4 O 0.42483(10) 0.98867(9) 0.59549(3)
O15_4 O 0.49688(10) 0.92559(9) 0.63101(3)
O17_4 O 0.43102(9) 0.98953(10) 0.63370(3)
O18_4 O 0.60519(6) 0.90466(7) 0.61323(2)
H27_4 H 0.623153 0.904339 0.600841
H28_4 H 0.632404 0.91461 0.622906
O18_5 O 0.40466(7) 0.10519(6) 0.88677(2)
H27_5 H 0.404339 0.123153 0.899159
H28_5 H 0.41461 0.132404 0.877094
H29_5 H 0.841314 0.399374 0.731153
O5_5 O 0.59534(7) 0.89481(6) 0.88677(2)
O10_5 O 0.43088(8) 0.99597(11) 0.90708(3)
O12_5 O 0.48867(9) 0.92483(10) 0.90451(3)
O15_5 O 0.42559(9) 0.99688(10) 0.86899(3)
O17_5 O 0.48953(10) 0.93102(9) 0.86630(3)
H25_5 H 0.595661 0.876847 0.899159
H26_5 H 0.58539 0.867596 0.877094
O10_6 O 0.06912(8) 0.50403(11) 0.40708(3)
O12_6 O 0.01133(9) 0.57517(10) 0.40451(3)
O15_6 O 0.07441(9) 0.50312(10) 0.36899(3)
O17_6 O 0.01047(10) 0.56898(9) 0.36630(3)
O18_6 O 0.09534(7) 0.39481(6) 0.38677(2)
H27_6 H 0.0956609 0.376847 0.399159
H28_6 H 0.0853904 0.367596 0.377094
O5_6 O 0.90466(7) 0.60519(6) 0.38677(2)
H25_6 H 0.904339 0.623153 0.399159
H26_6 H 0.91461 0.632404 0.377094
H29_6 H 0.658686 0.100626 0.231153
O5_7 O 0.39481(6) 0.40466(7) 0.63677(2)
O10_7 O 0.49597(11) 0.56912(8) 0.65708(3)
O12_7 O 0.42483(10) 0.51133(9) 0.65451(3)
O15_7 O 0.49688(10) 0.57441(9) 0.61899(3)
O17_7 O 0.43102(9) 0.51047(10) 0.61630(3)
O18_7 O 0.60519(6) 0.59534(7) 0.63677(2)
H25_7 H 0.376847 0.404339 0.649159
H26_7 H 0.367596 0.41461 0.627094
H27_7 H 0.623153 0.595661 0.649159
H28_7 H 0.632404 0.58539 0.627094
H29_7 H 0.899374 0.158686 0.481153
O5_8 O 0.10519(6) 0.09534(7) 0.13677(2)
H25_8 H 0.123153 0.0956609 0.149159
H26_8 H 0.132404 0.0853904 0.127094
O10_8 O 0.00403(11) 0.93088(8) 0.15708(3)
O12_8 O 0.07517(10) 0.98867(9) 0.15451(3)
O15_8 O 0.00312(10) 0.92559(9) 0.11899(3)
O17_8 O 0.06898(9) 0.98953(10) 0.11630(3)
H29_8 H 0.600626 0.341314 0.981153
O18_8 O 0.89481(6) 0.90466(7) 0.13677(2)
H27_8 H 0.876847 0.904339 0.149159
H28_8 H 0.867596 0.91461 0.127094
C1_5 C 0.44772(17) 0.94980(18) 0.58938(5)
C2_5 C 0.4164(3) 0.9143(2) 0.57493(5)
C3_5 C 0.44346(15) 0.8716(3) 0.56594(9)
H1_5 H 0.4797 0.8634 0.5686
C4_5 C 0.33288(19) 0.8940(3) 0.55942(10)
H2_5 H 0.2960 0.9009 0.5574
C5_5 C 0.2704(2) 0.7571(3) 0.50846(7)
C6_5 C 0.3617(4) 0.8499(3) 0.55018(7)
C7_5 C 0.3793(3) 0.56443(17) 0.58776(10)
H3_5 H 0.3639 0.5321 0.5921
C8_5 C 0.4255(3) 0.66108(15) 0.57515(10)
H4_5 H 0.4414 0.6932 0.5708
C9_5 C 0.45466(16) 0.55524(17) 0.61235(5)
C10_5 C 0.4261(3) 0.5845(3) 0.59627(6)
C11_5 C 0.3636(4) 0.92461(18) 0.57132(8)
H5_5 H 0.3472 0.9541 0.5772
C12_5 C 0.35304(19) 0.5929(3) 0.57198(9)
H6_5 H 0.3221 0.5796 0.5660
C13_5 C 0.32649(19) 0.7591(3) 0.53578(9)
C14_5 C 0.4138(3) 0.84123(17) 0.55262(8)
H7_5 H 0.4316 0.8149 0.5455
C15_5 C 0.44846(15) 0.6328(3) 0.58981(9)
H8_5 H 0.4797 0.6466 0.5955
C16_5 C 0.3002(3) 0.8431(2) 0.52430(11)
H9_5 H 0.3008 0.8811 0.5242
C17_5 C 0.3280(2) 0.8169(3) 0.53732(9)
C18_5 C 0.2990(2) 0.7296(3) 0.52143(10)
C19_5 C 0.3786(3) 0.6410(3) 0.56695(7)
C20_5 C 0.30211(16) 0.6704(3) 0.52246(7)
H10_5 H 0.2867 0.6504 0.5128
C21_5 C 0.32637(18) 0.64142(15) 0.53681(10)
H11_5 H 0.3260 0.6034 0.5370
C22_5 C 0.35287(16) 0.6734(4) 0.55174(8)
C23_5 C 0.35234(15) 0.7303(3) 0.55007(8)
H12_5 H 0.3705 0.7505 0.5591
C24_5 C 0.2681(2) 0.8138(4) 0.50996(10)
O6_5 O 0.23400(17) 0.84312(10) 0.49698(3)
P1_6 P 0.16301(9) 0.83699(9) 0.5000
O7_5 O 0.13976(14) 0.85202(14) 0.48161(4)
C25_5 C 0.05020(18) 0.55228(17) 0.41062(5)
C26_5 C 0.0857(2) 0.5836(3) 0.42507(5)
C27_5 C 0.1284(3) 0.55654(15) 0.43406(9)
H13_5 H 0.1366 0.5203 0.4314
C28_5 C 0.1060(3) 0.66712(19) 0.44058(10)
H14_5 H 0.0991 0.7040 0.4426
C29_5 C 0.2429(3) 0.7296(2) 0.49154(7)
C30_5 C 0.1501(3) 0.6383(4) 0.44982(7)
C31_5 C 0.43557(17) 0.6207(3) 0.41224(10)
H15_5 H 0.4679 0.6361 0.4079
C32_5 C 0.33892(15) 0.5745(3) 0.42485(10)
H16_5 H 0.3068 0.5586 0.4292
C33_5 C 0.44476(17) 0.54534(16) 0.38765(5)
C34_5 C 0.4155(3) 0.5739(3) 0.40373(6)
C35_5 C 0.07539(18) 0.6364(4) 0.42868(8)
H17_5 H 0.0459 0.6528 0.4228
C36_5 C 0.4071(3) 0.64696(19) 0.42802(9)
H18_5 H 0.4204 0.6779 0.4340
C37_5 C 0.2409(3) 0.67351(19) 0.46422(9)
C38_5 C 0.15877(17) 0.5862(3) 0.44738(8)
H19_5 H 0.1851 0.5684 0.4545
C39_5 C 0.3672(3) 0.55154(15) 0.41019(9)
H20_5 H 0.3534 0.5203 0.4045
C40_5 C 0.1569(2) 0.6998(3) 0.47570(11)
H21_5 H 0.1189 0.6992 0.4758
C41_5 C 0.1831(3) 0.6720(2) 0.46268(9)
C42_5 C 0.2704(3) 0.7010(2) 0.47857(10)
C43_5 C 0.3590(3) 0.6214(3) 0.43305(7)
C44_5 C 0.3296(3) 0.69789(16) 0.47754(7)
H22_5 H 0.3496 0.7133 0.4872
C45_5 C 0.35858(15) 0.67363(18) 0.46319(10)
H23_5 H 0.3966 0.6740 0.4630
C46_5 C 0.3266(4) 0.64713(16) 0.44826(8)
C47_5 C 0.2697(3) 0.64766(15) 0.44993(8)
H24_5 H 0.2495 0.6295 0.4409
C48_5 C 0.1862(4) 0.7319(2) 0.49004(10)
O19_5 O 0.15688(10) 0.76600(17) 0.50302(3)
O20_5 O 0.14798(14) 0.86024(14) 0.51839(4)
H29_9 H 0.158686 0.899374 0.518847
C1_6 C 0.05228(17) 0.55020(18) 0.08938(5)
C2_6 C 0.0836(3) 0.5857(2) 0.07493(5)
C3_6 C 0.05654(15) 0.6284(3) 0.06594(9)
H1_6 H 0.0203 0.6366 0.0686
C4_6 C 0.16712(19) 0.6060(3) 0.05942(10)
H2_6 H 0.2040 0.5991 0.0574
C5_6 C 0.2296(2) 0.7429(3) 0.00846(7)
C6_6 C 0.1383(4) 0.6501(3) 0.05018(7)
C7_6 C 0.1207(3) 0.93557(17) 0.08776(10)
H3_6 H 0.1361 0.9679 0.0921
C8_6 C 0.0745(3) 0.83892(15) 0.07515(10)
H4_6 H 0.0586 0.8068 0.0708
C9_6 C 0.04534(16) 0.94476(17) 0.11235(5)
C10_6 C 0.0739(3) 0.9155(3) 0.09627(6)
C11_6 C 0.1364(4) 0.57539(18) 0.07132(8)
H5_6 H 0.1528 0.5459 0.0772
C12_6 C 0.14696(19) 0.9071(3) 0.07198(9)
H6_6 H 0.1779 0.9204 0.0660
C13_6 C 0.17351(19) 0.7409(3) 0.03578(9)
C14_6 C 0.0862(3) 0.65877(17) 0.05262(8)
H7_6 H 0.0684 0.6851 0.0455
C15_6 C 0.05154(15) 0.8672(3) 0.08981(9)
H8_6 H 0.0203 0.8534 0.0955
C16_6 C 0.1998(3) 0.6569(2) 0.02430(11)
H9_6 H 0.1992 0.6189 0.0242
C17_6 C 0.1720(2) 0.6831(3) 0.03732(9)
C18_6 C 0.2010(2) 0.7704(3) 0.02143(10)
C19_6 C 0.1214(3) 0.8590(3) 0.06695(7)
C20_6 C 0.19789(16) 0.8296(3) 0.02246(7)
H10_6 H 0.2133 0.8496 0.0128
C21_6 C 0.17363(18) 0.85858(15) 0.03681(10)
H11_6 H 0.1740 0.8966 0.0370
C22_6 C 0.14713(16) 0.8266(4) 0.05174(8)
C23_6 C 0.14766(15) 0.7697(3) 0.05007(8)
H12_6 H 0.1295 0.7495 0.0591
C24_6 C 0.2319(2) 0.6862(4) 0.00996(10)
P1_7 P 0.33699(9) 0.66301(9) 0.0000
O19_6 O 0.34312(10) 0.73400(17) 0.00302(3)
O20_6 O 0.35202(14) 0.63976(14) 0.01839(4)
H29_10 H 0.341314 0.600626 0.0188471
O6_6 O 0.26600(17) 0.65688(10) 0.99698(3)
P1_8 P 0.33699(9) 0.66301(9) 1.0000
O7_6 O 0.36024(14) 0.64798(14) 0.98161(4)
C25_6 C 0.44980(18) 0.94772(17) 0.91062(5)
C26_6 C 0.4143(2) 0.9164(3) 0.92507(5)
C27_6 C 0.3716(3) 0.94346(15) 0.93406(9)
H13_6 H 0.3634 0.9797 0.9314
C28_6 C 0.3940(3) 0.83288(19) 0.94058(10)
H14_6 H 0.4009 0.7960 0.9426
C29_6 C 0.2571(3) 0.7704(2) 0.99154(7)
C30_6 C 0.3499(3) 0.8617(4) 0.94982(7)
C31_6 C 0.06443(17) 0.8793(3) 0.91224(10)
H15_6 H 0.0321 0.8639 0.9079
C32_6 C 0.16108(15) 0.9255(3) 0.92485(10)
H16_6 H 0.1932 0.9414 0.9292
C33_6 C 0.05524(17) 0.95466(16) 0.88765(5)
C34_6 C 0.0845(3) 0.9261(3) 0.90373(6)
C35_6 C 0.42461(18) 0.8636(4) 0.92868(8)
H17_6 H 0.4541 0.8472 0.9228
C36_6 C 0.0929(3) 0.85304(19) 0.92802(9)
H18_6 H 0.0796 0.8221 0.9340
C37_6 C 0.2591(3) 0.82649(19) 0.96422(9)
C38_6 C 0.34123(17) 0.9138(3) 0.94738(8)
H19_6 H 0.3149 0.9316 0.9545
C39_6 C 0.1328(3) 0.94846(15) 0.91019(9)
H20_6 H 0.1466 0.9797 0.9045
C40_6 C 0.3431(2) 0.8002(3) 0.97570(11)
H21_6 H 0.3811 0.8008 0.9758
C41_6 C 0.3169(3) 0.8280(2) 0.96268(9)
C42_6 C 0.2296(3) 0.7990(2) 0.97857(10)
C43_6 C 0.1410(3) 0.8786(3) 0.93305(7)
C44_6 C 0.1704(3) 0.80211(16) 0.97754(7)
H22_6 H 0.1504 0.7867 0.9872
C45_6 C 0.14142(15) 0.82637(18) 0.96319(10)
H23_6 H 0.1034 0.8260 0.9630
C46_6 C 0.1734(4) 0.85287(16) 0.94826(8)
C47_6 C 0.2303(3) 0.85234(15) 0.94993(8)
H24_6 H 0.2505 0.8705 0.9409
C48_6 C 0.3138(4) 0.7681(2) 0.99004(10)
C1_7 C 0.05020(18) 0.94772(17) 0.83938(5)
C2_7 C 0.0857(2) 0.9164(3) 0.82493(5)
C3_7 C 0.1284(3) 0.94346(15) 0.81594(9)
H1_7 H 0.1366 0.9797 0.8186
C4_7 C 0.1060(3) 0.83288(19) 0.80942(10)
H2_7 H 0.0991 0.7960 0.8074
C5_7 C 0.2429(3) 0.7704(2) 0.75846(7)
C6_7 C 0.1501(3) 0.8617(4) 0.80018(7)
C7_7 C 0.43557(17) 0.8793(3) 0.83776(10)
H3_7 H 0.4679 0.8639 0.8421
C8_7 C 0.33892(15) 0.9255(3) 0.82515(10)
H4_7 H 0.3068 0.9414 0.8208
C9_7 C 0.44476(17) 0.95466(16) 0.86235(5)
C10_7 C 0.4155(3) 0.9261(3) 0.84627(6)
C11_7 C 0.07539(18) 0.8636(4) 0.82132(8)
H5_7 H 0.0459 0.8472 0.8272
C12_7 C 0.4071(3) 0.85304(19) 0.82198(9)
H6_7 H 0.4204 0.8221 0.8160
C13_7 C 0.2409(3) 0.82649(19) 0.78578(9)
C14_7 C 0.15877(17) 0.9138(3) 0.80262(8)
H7_7 H 0.1851 0.9316 0.7955
C15_7 C 0.3672(3) 0.94846(15) 0.83981(9)
H8_7 H 0.3534 0.9797 0.8455
C16_7 C 0.1569(2) 0.8002(3) 0.77430(11)
H9_7 H 0.1189 0.8008 0.7742
C17_7 C 0.1831(3) 0.8280(2) 0.78732(9)
C18_7 C 0.2704(3) 0.7990(2) 0.77143(10)
C19_7 C 0.3590(3) 0.8786(3) 0.81695(7)
C20_7 C 0.3296(3) 0.80211(16) 0.77246(7)
H10_7 H 0.3496 0.7867 0.7628
C21_7 C 0.35858(15) 0.82637(18) 0.78681(10)
H11_7 H 0.3966 0.8260 0.7870
C22_7 C 0.3266(4) 0.85287(16) 0.80174(8)
C23_7 C 0.2697(3) 0.85234(15) 0.80007(8)
H12_7 H 0.2495 0.8705 0.8091
C24_7 C 0.1862(4) 0.7681(2) 0.75996(10)
O6_7 O 0.15688(10) 0.73400(17) 0.74698(3)
P1_9 P 0.16301(9) 0.66301(9) 0.7500
O7_7 O 0.14798(14) 0.63976(14) 0.73161(4)
C25_7 C 0.44772(17) 0.55020(18) 0.66062(5)
C26_7 C 0.4164(3) 0.5857(2) 0.67507(5)
C27_7 C 0.44346(15) 0.6284(3) 0.68406(9)
H13_7 H 0.4797 0.6366 0.6814
C28_7 C 0.33288(19) 0.6060(3) 0.69058(10)
H14_7 H 0.2960 0.5991 0.6926
C29_7 C 0.2704(2) 0.7429(3) 0.74154(7)
C30_7 C 0.3617(4) 0.6501(3) 0.69982(7)
C31_7 C 0.3793(3) 0.93557(17) 0.66224(10)
H15_7 H 0.3639 0.9679 0.6579
C32_7 C 0.4255(3) 0.83892(15) 0.67485(10)
H16_7 H 0.4414 0.8068 0.6792
C33_7 C 0.45466(16) 0.94476(17) 0.63765(5)
C34_7 C 0.4261(3) 0.9155(3) 0.65373(6)
C35_7 C 0.3636(4) 0.57539(18) 0.67868(8)
H17_7 H 0.3472 0.5459 0.6728
C36_7 C 0.35304(19) 0.9071(3) 0.67802(9)
H18_7 H 0.3221 0.9204 0.6840
C37_7 C 0.32649(19) 0.7409(3) 0.71422(9)
C38_7 C 0.4138(3) 0.65877(17) 0.69738(8)
H19_7 H 0.4316 0.6851 0.7045
C39_7 C 0.44846(15) 0.8672(3) 0.66019(9)
H20_7 H 0.4797 0.8534 0.6545
C40_7 C 0.3002(3) 0.6569(2) 0.72570(11)
H21_7 H 0.3008 0.6189 0.7258
C41_7 C 0.3280(2) 0.6831(3) 0.71268(9)
C42_7 C 0.2990(2) 0.7704(3) 0.72857(10)
C43_7 C 0.3786(3) 0.8590(3) 0.68305(7)
C44_7 C 0.30211(16) 0.8296(3) 0.72754(7)
H22_7 H 0.2867 0.8496 0.7372
C45_7 C 0.32637(18) 0.85858(15) 0.71319(10)
H23_7 H 0.3260 0.8966 0.7130
C46_7 C 0.35287(16) 0.8266(4) 0.69826(8)
C47_7 C 0.35234(15) 0.7697(3) 0.69993(8)
H24_7 H 0.3705 0.7495 0.6909
C48_7 C 0.2681(2) 0.6862(4) 0.74004(10)
O19_7 O 0.23400(17) 0.65688(10) 0.75302(3)
O20_7 O 0.13976(14) 0.64798(14) 0.76839(4)
H29_11 H 0.100626 0.658686 0.768847
C1_8 C 0.44980(18) 0.55228(17) 0.33938(5)
C2_8 C 0.4143(2) 0.5836(3) 0.32493(5)
C3_8 C 0.3716(3) 0.55654(15) 0.31594(9)
H1_8 H 0.3634 0.5203 0.3186
C4_8 C 0.3940(3) 0.66712(19) 0.30942(10)
H2_8 H 0.4009 0.7040 0.3074
C5_8 C 0.2571(3) 0.7296(2) 0.25846(7)
C6_8 C 0.3499(3) 0.6383(4) 0.30018(7)
C7_8 C 0.06443(17) 0.6207(3) 0.33776(10)
H3_8 H 0.0321 0.6361 0.3421
C8_8 C 0.16108(15) 0.5745(3) 0.32515(10)
H4_8 H 0.1932 0.5586 0.3208
C9_8 C 0.05524(17) 0.54534(16) 0.36235(5)
C10_8 C 0.0845(3) 0.5739(3) 0.34627(6)
C11_8 C 0.42461(18) 0.6364(4) 0.32132(8)
H5_8 H 0.4541 0.6528 0.3272
C12_8 C 0.0929(3) 0.64696(19) 0.32198(9)
H6_8 H 0.0796 0.6779 0.3160
C13_8 C 0.2591(3) 0.67351(19) 0.28578(9)
C14_8 C 0.34123(17) 0.5862(3) 0.30262(8)
H7_8 H 0.3149 0.5684 0.2955
C15_8 C 0.1328(3) 0.55154(15) 0.33981(9)
H8_8 H 0.1466 0.5203 0.3455
C16_8 C 0.3431(2) 0.6998(3) 0.27430(11)
H9_8 H 0.3811 0.6992 0.2742
C17_8 C 0.3169(3) 0.6720(2) 0.28732(9)
C18_8 C 0.2296(3) 0.7010(2) 0.27143(10)
C19_8 C 0.1410(3) 0.6214(3) 0.31695(7)
C20_8 C 0.1704(3) 0.69789(16) 0.27246(7)
H10_8 H 0.1504 0.7133 0.2628
C21_8 C 0.14142(15) 0.67363(18) 0.28681(10)
H11_8 H 0.1034 0.6740 0.2870
C22_8 C 0.1734(4) 0.64713(16) 0.30174(8)
C23_8 C 0.2303(3) 0.64766(15) 0.30007(8)
H12_8 H 0.2505 0.6295 0.3091
C24_8 C 0.3138(4) 0.7319(2) 0.25996(10)
O6_8 O 0.34312(10) 0.76600(17) 0.24698(3)
P1_10 P 0.33699(9) 0.83699(9) 0.2500
O7_8 O 0.35202(14) 0.86024(14) 0.23161(4)
C25_8 C 0.05228(17) 0.94980(18) 0.16062(5)
C26_8 C 0.0836(3) 0.9143(2) 0.17507(5)
C27_8 C 0.05654(15) 0.8716(3) 0.18406(9)
H13_8 H 0.0203 0.8634 0.1814
C28_8 C 0.16712(19) 0.8940(3) 0.19058(10)
H14_8 H 0.2040 0.9009 0.1926
C29_8 C 0.2296(2) 0.7571(3) 0.24154(7)
C30_8 C 0.1383(4) 0.8499(3) 0.19982(7)
C31_8 C 0.1207(3) 0.56443(17) 0.16224(10)
H15_8 H 0.1361 0.5321 0.1579
C32_8 C 0.0745(3) 0.66108(15) 0.17485(10)
H16_8 H 0.0586 0.6932 0.1792
C33_8 C 0.04534(16) 0.55524(17) 0.13765(5)
C34_8 C 0.0739(3) 0.5845(3) 0.15373(6)
C35_8 C 0.1364(4) 0.92461(18) 0.17868(8)
H17_8 H 0.1528 0.9541 0.1728
C36_8 C 0.14696(19) 0.5929(3) 0.17802(9)
H18_8 H 0.1779 0.5796 0.1840
C37_8 C 0.17351(19) 0.7591(3) 0.21422(9)
C38_8 C 0.0862(3) 0.84123(17) 0.19738(8)
H19_8 H 0.0684 0.8149 0.2045
C39_8 C 0.05154(15) 0.6328(3) 0.16019(9)
H20_8 H 0.0203 0.6466 0.1545
C40_8 C 0.1998(3) 0.8431(2) 0.22570(11)
H21_8 H 0.1992 0.8811 0.2258
C41_8 C 0.1720(2) 0.8169(3) 0.21268(9)
C42_8 C 0.2010(2) 0.7296(3) 0.22857(10)
C43_8 C 0.1214(3) 0.6410(3) 0.18305(7)
C44_8 C 0.19789(16) 0.6704(3) 0.22754(7)
H22_8 H 0.2133 0.6504 0.2372
C45_8 C 0.17363(18) 0.64142(15) 0.21319(10)
H23_8 H 0.1740 0.6034 0.2130
C46_8 C 0.14713(16) 0.6734(4) 0.19826(8)
C47_8 C 0.14766(15) 0.7303(3) 0.19993(8)
H24_8 H 0.1295 0.7505 0.1909
C48_8 C 0.2319(2) 0.8138(4) 0.24004(10)
O19_8 O 0.26600(17) 0.84312(10) 0.25302(3)
O20_8 O 0.36024(14) 0.85202(14) 0.26839(4)
H29_12 H 0.399374 0.841314 0.268847
H29_13 H 0.341314 0.899374 0.231153
H29_14 H 0.158686 0.600626 0.731153
H29_15 H 0.399374 0.658686 0.981153
H29_16 H 0.100626 0.841314 0.481153
loop_
_geom_bond_atom_site_label_1
_geom_bond_atom_site_label_2
_geom_bond_site_symmetry_1
_geom_bond_site_symmetry_2
O18 Cu8 1_555 1_555
O18 H27 1_555 1_555
O18 H28 1_555 1_555
O1 C1 1_555 1_555
O2 C1 1_555 1_555
O3 C9 1_555 1_555
O4 C9 1_555 1_555
C1 C2 1_555 1_555
C2 C3 1_555 1_555
C3 H1 1_555 1_555
C4 H2 1_555 1_555
C5 C18 1_555 1_555
C6 C4 1_555 1_555
C7 H3 1_555 1_555
C8 H4 1_555 1_555
C9 C10 1_555 1_555
C10 C7 1_555 1_555
C11 C2 1_555 1_555
H5 C11 1_555 1_555
C12 C7 1_555 1_555
H6 C12 1_555 1_555
C13 C17 1_555 1_555
C14 C3 1_555 1_555
H7 C14 1_555 1_555
C15 C8 1_555 1_555
H8 C15 1_555 1_555
C16 H9 1_555 1_555
C17 C6 1_555 1_555
C18 C13 1_555 1_555
C19 C8 1_555 1_555
C20 C18 1_555 1_555
H10 C20 1_555 1_555
C21 C20 1_555 1_555
H11 C21 1_555 1_555
C22 C19 1_555 1_555
C23 C13 1_555 1_555
H12 C23 1_555 1_555
C24 C5 1_555 1_555
Cu3 O2 1_555 1_555
O19 P1 1_555 1_555
O20 P1 1_555 1_555
C4 C11 1_555 1_555
C6 C14 1_555 1_555
C10 C15 1_555 1_555
C12 C19 1_555 1_555
C16 C17 1_555 1_555
C16 C24 1_555 1_555
C21 C22 1_555 1_555
C22 C23 1_555 1_555
O20 H29 1_555 1_555
P1_2 O6 1_555 1_555
O7 P1_2 1_555 1_555
Cu6 O11 1_555 1_555
O8 C25 1_555 1_555
O11 C25 1_555 1_555
C25 C26 1_555 1_555
C26 C27 1_555 1_555
C27 H13 1_555 1_555
C28 H14 1_555 1_555
C30 C28 1_555 1_555
C31 H15 1_555 1_555
C32 H16 1_555 1_555
C33 O14 1_555 1_555
C34 C31 1_555 1_555
C35 C26 1_555 1_555
H17 C35 1_555 1_555
C36 C31 1_555 1_555
H18 C36 1_555 1_555
C37 C41 1_555 1_555
C38 C27 1_555 1_555
H19 C38 1_555 1_555
C39 C32 1_555 1_555
H20 C39 1_555 1_555
C40 H21 1_555 1_555
C41 C30 1_555 1_555
C42 C29 1_555 1_555
C43 C32 1_555 1_555
C44 C42 1_555 1_555
H22 C44 1_555 1_555
C45 C44 1_555 1_555
H23 C45 1_555 1_555
C46 C43 1_555 1_555
C47 C37 1_555 1_555
H24 C47 1_555 1_555
C48 C29 1_555 1_555
O16 C33 1_555 1_555
C28 C35 1_555 1_555
C30 C38 1_555 1_555
C33 C34 1_555 1_555
C34 C39 1_555 1_555
C36 C43 1_555 1_555
C37 C42 1_555 1_555
C40 C41 1_555 1_555
C40 C48 1_555 1_555
C45 C46 1_555 1_555
C46 C47 1_555 1_555
Cu1 O5 1_555 1_555
O5 H25 1_555 1_555
O5 H26 1_555 1_555
Cu1_2 O5_2 1_555 1_555
O1_2 C1_2 1_555 1_555
O2_2 C1_2 1_555 1_555
O3_2 C9_2 1_555 1_555
O4_2 C9_2 1_555 1_555
C1_2 C2_2 1_555 1_555
C2_2 C3_2 1_555 1_555
C3_2 H1_2 1_555 1_555
C4_2 H2_2 1_555 1_555
C5_2 C18_2 1_555 1_555
C6_2 C4_2 1_555 1_555
C7_2 H3_2 1_555 1_555
C8_2 H4_2 1_555 1_555
C9_2 C10_2 1_555 1_555
C10_2 C7_2 1_555 1_555
C11_2 C2_2 1_555 1_555
H5_2 C11_2 1_555 1_555
C12_2 C7_2 1_555 1_555
H6_2 C12_2 1_555 1_555
C13_2 C17_2 1_555 1_555
C14_2 C3_2 1_555 1_555
H7_2 C14_2 1_555 1_555
C15_2 C8_2 1_555 1_555
H8_2 C15_2 1_555 1_555
C16_2 H9_2 1_555 1_555
C17_2 C6_2 1_555 1_555
C18_2 C13_2 1_555 1_555
C19_2 C8_2 1_555 1_555
C20_2 C18_2 1_555 1_555
H10_2 C20_2 1_555 1_555
C21_2 C20_2 1_555 1_555
H11_2 C21_2 1_555 1_555
C22_2 C19_2 1_555 1_555
C23_2 C13_2 1_555 1_555
H12_2 C23_2 1_555 1_555
C24_2 C5_2 1_555 1_555
O6_2 C24_2 1_555 1_555
P1_3 O6_2 1_555 1_555
O7_2 P1_3 1_555 1_555
Cu2_2 O8_2 1_555 1_555
Cu4_2 O3_2 1_555 1_555
Cu5_2 O4_2 1_555 1_555
Cu7_2 O1_2 1_555 1_555
Cu8_2 O10_2 1_555 1_555
O8_2 C25_2 1_555 1_555
O9_2 Cu1_2 1_555 1_555
O11_2 C25_2 1_555 1_555
O12_2 Cu1_2 1_555 1_555
O13_2 Cu8_2 1_555 1_555
O14_2 Cu1_2 1_555 1_555
O15_2 Cu8_2 1_555 1_555
O16_2 Cu8_2 1_555 1_555
O17_2 Cu1_2 1_555 1_555
C25_2 C26_2 1_555 1_555
C26_2 C27_2 1_555 1_555
C27_2 H13_2 1_555 1_555
C28_2 H14_2 1_555 1_555
C29_2 C5_2 1_555 1_555
C30_2 C28_2 1_555 1_555
C31_2 H15_2 1_555 1_555
C32_2 H16_2 1_555 1_555
C33_2 O14_2 1_555 1_555
C34_2 C31_2 1_555 1_555
C35_2 C26_2 1_555 1_555
H17_2 C35_2 1_555 1_555
C36_2 C31_2 1_555 1_555
H18_2 C36_2 1_555 1_555
C37_2 C41_2 1_555 1_555
C38_2 C27_2 1_555 1_555
H19_2 C38_2 1_555 1_555
C39_2 C32_2 1_555 1_555
H20_2 C39_2 1_555 1_555
C40_2 H21_2 1_555 1_555
C41_2 C30_2 1_555 1_555
C42_2 C29_2 1_555 1_555
C43_2 C32_2 1_555 1_555
C44_2 C42_2 1_555 1_555
H22_2 C44_2 1_555 1_555
C45_2 C44_2 1_555 1_555
H23_2 C45_2 1_555 1_555
C46_2 C43_2 1_555 1_555
C47_2 C37_2 1_555 1_555
H24_2 C47_2 1_555 1_555
C48_2 C29_2 1_555 1_555
O18_2 Cu8_2 1_555 1_555
O19_2 P1_3 1_555 1_555
O20_2 P1_3 1_555 1_555
C4_2 C11_2 1_555 1_555
C6_2 C14_2 1_555 1_555
C10_2 C15_2 1_555 1_555
C12_2 C19_2 1_555 1_555
C16_2 C17_2 1_555 1_555
C16_2 C24_2 1_555 1_555
C21_2 C22_2 1_555 1_555
C22_2 C23_2 1_555 1_555
O16_2 C33_2 1_555 1_555
C28_2 C35_2 1_555 1_555
C30_2 C38_2 1_555 1_555
C33_2 C34_2 1_555 1_555
C34_2 C39_2 1_555 1_555
C36_2 C43_2 1_555 1_555
C37_2 C42_2 1_555 1_555
C40_2 C41_2 1_555 1_555
C40_2 C48_2 1_555 1_555
C45_2 C46_2 1_555 1_555
C46_2 C47_2 1_555 1_555
C48_2 O19_2 1_555 1_555
O5_2 H25_2 1_555 1_555
O5_2 H26_2 1_555 1_555
O18_2 H27_2 1_555 1_555
O18_2 H28_2 1_555 1_555
O20_2 H29_2 1_555 1_555
Cu7 O5_3 1_555 1_555
O12_3 Cu7 1_555 1_555
O17_3 Cu7 1_555 1_555
O5_3 H25_3 1_555 1_555
O5_3 H26_3 1_555 1_555
O9_2 C1_3 1_555 1_555
O13_2 C1_3 1_555 1_555
O3_3 C9_3 1_555 1_555
O4_3 C9_3 1_555 1_555
C1_3 C2_3 1_555 1_555
C2_3 C3_3 1_555 1_555
C3_3 H1_3 1_555 1_555
C4_3 H2_3 1_555 1_555
C5_3 C18_3 1_555 1_555
C6_3 C4_3 1_555 1_555
C7_3 H3_3 1_555 1_555
C8_3 H4_3 1_555 1_555
C9_3 C10_3 1_555 1_555
C10_3 C7_3 1_555 1_555
C11_3 C2_3 1_555 1_555
H5_3 C11_3 1_555 1_555
C12_3 C7_3 1_555 1_555
H6_3 C12_3 1_555 1_555
C13_3 C17_3 1_555 1_555
C14_3 C3_3 1_555 1_555
H7_3 C14_3 1_555 1_555
C15_3 C8_3 1_555 1_555
H8_3 C15_3 1_555 1_555
C16_3 H9_3 1_555 1_555
C17_3 C6_3 1_555 1_555
C18_3 C13_3 1_555 1_555
C19_3 C8_3 1_555 1_555
C20_3 C18_3 1_555 1_555
H10_3 C20_3 1_555 1_555
C21_3 C20_3 1_555 1_555
H11_3 C21_3 1_555 1_555
C22_3 C19_3 1_555 1_555
C23_3 C13_3 1_555 1_555
H12_3 C23_3 1_555 1_555
C24_3 C5_3 1_555 1_555
O6_3 C24_3 1_555 1_555
P1_4 O6_3 1_555 1_555
O7_3 P1_4 1_555 1_555
Cu2_2 O3_3 1_555 1_555
O8_3 C25_3 1_555 1_555
O11_3 C25_3 1_555 1_555
O16_3 Cu3 1_555 1_555
C25_3 C26_3 1_555 1_555
C26_3 C27_3 1_555 1_555
C27_3 H13_3 1_555 1_555
C28_3 H14_3 1_555 1_555
C29_3 C5_3 1_555 1_555
C30_3 C28_3 1_555 1_555
C31_3 H15_3 1_555 1_555
C32_3 H16_3 1_555 1_555
C33_3 O14_3 1_555 1_555
C34_3 C31_3 1_555 1_555
C35_3 C26_3 1_555 1_555
H17_3 C35_3 1_555 1_555
C36_3 C31_3 1_555 1_555
H18_3 C36_3 1_555 1_555
C37_3 C41_3 1_555 1_555
C38_3 C27_3 1_555 1_555
H19_3 C38_3 1_555 1_555
C39_3 C32_3 1_555 1_555
H20_3 C39_3 1_555 1_555
C40_3 H21_3 1_555 1_555
C41_3 C30_3 1_555 1_555
C42_3 C29_3 1_555 1_555
C43_3 C32_3 1_555 1_555
C44_3 C42_3 1_555 1_555
H22_3 C44_3 1_555 1_555
C45_3 C44_3 1_555 1_555
H23_3 C45_3 1_555 1_555
C46_3 C43_3 1_555 1_555
C47_3 C37_3 1_555 1_555
H24_3 C47_3 1_555 1_555
C48_3 C29_3 1_555 1_555
O18_3 Cu3 1_555 1_555
O19_3 P1_4 1_555 1_555
O20_3 P1_4 1_555 1_555
C4_3 C11_3 1_555 1_555
C6_3 C14_3 1_555 1_555
C10_3 C15_3 1_555 1_555
C12_3 C19_3 1_555 1_555
C16_3 C17_3 1_555 1_555
C16_3 C24_3 1_555 1_555
C21_3 C22_3 1_555 1_555
C22_3 C23_3 1_555 1_555
O16_3 C33_3 1_555 1_555
C28_3 C35_3 1_555 1_555
C30_3 C38_3 1_555 1_555
C33_3 C34_3 1_555 1_555
C34_3 C39_3 1_555 1_555
C36_3 C43_3 1_555 1_555
C37_3 C42_3 1_555 1_555
C40_3 C41_3 1_555 1_555
C40_3 C48_3 1_555 1_555
C45_3 C46_3 1_555 1_555
C46_3 C47_3 1_555 1_555
C48_3 O19_3 1_555 1_555
O18_3 H27_3 1_555 1_555
O18_3 H28_3 1_555 1_555
O20_3 H29_3 1_555 1_555
Cu7_2 O5_4 1_555 1_555
O9 C1_4 1_555 1_555
O13 C1_4 1_555 1_555
O3_4 C9_4 1_555 1_555
O4_4 C9_4 1_555 1_555
C1_4 C2_4 1_555 1_555
C2_4 C3_4 1_555 1_555
C3_4 H1_4 1_555 1_555
C4_4 H2_4 1_555 1_555
C5_4 C18_4 1_555 1_555
C6_4 C4_4 1_555 1_555
C7_4 H3_4 1_555 1_555
C8_4 H4_4 1_555 1_555
C9_4 C10_4 1_555 1_555
C10_4 C7_4 1_555 1_555
C11_4 C2_4 1_555 1_555
H5_4 C11_4 1_555 1_555
C12_4 C7_4 1_555 1_555
H6_4 C12_4 1_555 1_555
C13_4 C17_4 1_555 1_555
C14_4 C3_4 1_555 1_555
H7_4 C14_4 1_555 1_555
C15_4 C8_4 1_555 1_555
H8_4 C15_4 1_555 1_555
C16_4 H9_4 1_555 1_555
C17_4 C6_4 1_555 1_555
C18_4 C13_4 1_555 1_555
C19_4 C8_4 1_555 1_555
C20_4 C18_4 1_555 1_555
H10_4 C20_4 1_555 1_555
C21_4 C20_4 1_555 1_555
H11_4 C21_4 1_555 1_555
C22_4 C19_4 1_555 1_555
C23_4 C13_4 1_555 1_555
H12_4 C23_4 1_555 1_555
C24_4 C5_4 1_555 1_555
O6_4 C24_4 1_555 1_555
P1_5 O6_4 1_555 1_555
O7_4 P1_5 1_555 1_555
Cu4_2 O8_4 1_555 1_555
Cu6 O4_4 1_555 1_555
Cu5_2 O11_4 1_555 1_555
O8_4 C25_4 1_555 1_555
O11_4 C25_4 1_555 1_555
O14_4 Cu7_2 1_555 1_555
C25_4 C26_4 1_555 1_555
C26_4 C27_4 1_555 1_555
C27_4 H13_4 1_555 1_555
C28_4 H14_4 1_555 1_555
C29_4 C5_4 1_555 1_555
C30_4 C28_4 1_555 1_555
C31_4 H15_4 1_555 1_555
C32_4 H16_4 1_555 1_555
C33_4 O14_4 1_555 1_555
C34_4 C31_4 1_555 1_555
C35_4 C26_4 1_555 1_555
H17_4 C35_4 1_555 1_555
C36_4 C31_4 1_555 1_555
H18_4 C36_4 1_555 1_555
C37_4 C41_4 1_555 1_555
C38_4 C27_4 1_555 1_555
H19_4 C38_4 1_555 1_555
C39_4 C32_4 1_555 1_555
H20_4 C39_4 1_555 1_555
C40_4 H21_4 1_555 1_555
C41_4 C30_4 1_555 1_555
C42_4 C29_4 1_555 1_555
C43_4 C32_4 1_555 1_555
C44_4 C42_4 1_555 1_555
H22_4 C44_4 1_555 1_555
C45_4 C44_4 1_555 1_555
H23_4 C45_4 1_555 1_555
C46_4 C43_4 1_555 1_555
C47_4 C37_4 1_555 1_555
H24_4 C47_4 1_555 1_555
C48_4 C29_4 1_555 1_555
O19_4 P1_5 1_555 1_555
O20_4 P1_5 1_555 1_555
C4_4 C11_4 1_555 1_555
C6_4 C14_4 1_555 1_555
C10_4 C15_4 1_555 1_555
C12_4 C19_4 1_555 1_555
C16_4 C17_4 1_555 1_555
C16_4 C24_4 1_555 1_555
C21_4 C22_4 1_555 1_555
C22_4 C23_4 1_555 1_555
O16_4 C33_4 1_555 1_555
C28_4 C35_4 1_555 1_555
C30_4 C38_4 1_555 1_555
C33_4 C34_4 1_555 1_555
C34_4 C39_4 1_555 1_555
C36_4 C43_4 1_555 1_555
C37_4 C42_4 1_555 1_555
C40_4 C41_4 1_555 1_555
C40_4 C48_4 1_555 1_555
C45_4 C46_4 1_555 1_555
C46_4 C47_4 1_555 1_555
C48_4 O19_4 1_555 1_555
O5_4 H25_4 1_555 1_555
O5_4 H26_4 1_555 1_555
O20_4 H29_4 1_555 1_555
Cu3_2 O10_4 1_555 1_555
O15_4 Cu3_2 1_555 1_555
O18_4 Cu3_2 1_555 1_555
O18_4 H27_4 1_555 1_555
O18_4 H28_4 1_555 1_555
O18_5 Cu6 1_555 1_555
O18_5 H27_5 1_555 1_555
O18_5 H28_5 1_555 1_555
O7_4 H29_5 1_555 1_555
Cu2 O5_5 1_555 1_555
O12_5 Cu2 1_555 1_555
O17_5 Cu2 1_555 1_555
O5_5 H25_5 1_555 1_555
O5_5 H26_5 1_555 1_555
Cu6_2 O10_6 1_555 1_555
O15_6 Cu6_2 1_555 1_555
O18_6 Cu6_2 1_555 1_555
O18_6 H27_6 1_555 1_555
O18_6 H28_6 1_555 1_555
Cu2_2 O5_6 1_555 1_555
O5_6 H25_6 1_555 1_555
O5_6 H26_6 1_555 1_555
O7_3 H29_6 1_555 1_555
Cu4_2 O5_7 1_555 1_555
Cu5_2 O10_7 1_555 1_555
O12_7 Cu4_2 1_555 1_555
O15_7 Cu5_2 1_555 1_555
O17_7 Cu4_2 1_555 1_555
O18_7 Cu5_2 1_555 1_555
O5_7 H25_7 1_555 1_555
O5_7 H26_7 1_555 1_555
O18_7 H27_7 1_555 1_555
O18_7 H28_7 1_555 1_555
O7_2 H29_7 1_555 1_555
Cu4 O5_8 1_555 1_555
O5_8 H25_8 1_555 1_555
O5_8 H26_8 1_555 1_555
O7 H29_8 1_555 1_555
O18_8 Cu5 1_555 1_555
O18_8 H27_8 1_555 1_555
O18_8 H28_8 1_555 1_555
O10_4 C1_5 1_555 1_555
O12_4 C1_5 1_555 1_555
O15_7 C9_5 1_555 1_555
O17_7 C9_5 1_555 1_555
C1_5 C2_5 1_555 1_555
C2_5 C3_5 1_555 1_555
C3_5 H1_5 1_555 1_555
C4_5 H2_5 1_555 1_555
C5_5 C18_5 1_555 1_555
C6_5 C4_5 1_555 1_555
C7_5 H3_5 1_555 1_555
C8_5 H4_5 1_555 1_555
C9_5 C10_5 1_555 1_555
C10_5 C7_5 1_555 1_555
C11_5 C2_5 1_555 1_555
H5_5 C11_5 1_555 1_555
C12_5 C7_5 1_555 1_555
H6_5 C12_5 1_555 1_555
C13_5 C17_5 1_555 1_555
C14_5 C3_5 1_555 1_555
H7_5 C14_5 1_555 1_555
C15_5 C8_5 1_555 1_555
H8_5 C15_5 1_555 1_555
C16_5 H9_5 1_555 1_555
C17_5 C6_5 1_555 1_555
C18_5 C13_5 1_555 1_555
C19_5 C8_5 1_555 1_555
C20_5 C18_5 1_555 1_555
H10_5 C20_5 1_555 1_555
C21_5 C20_5 1_555 1_555
H11_5 C21_5 1_555 1_555
C22_5 C19_5 1_555 1_555
C23_5 C13_5 1_555 1_555
H12_5 C23_5 1_555 1_555
C24_5 C5_5 1_555 1_555
O6_5 C24_5 1_555 1_555
P1_6 O6_5 1_555 1_555
O7_5 P1_6 1_555 1_555
O10_6 C25_5 1_555 1_555
O12_6 C25_5 1_555 1_555
C25_5 C26_5 1_555 1_555
C26_5 C27_5 1_555 1_555
C27_5 H13_5 1_555 1_555
C28_5 H14_5 1_555 1_555
C29_5 C5_5 1_555 1_555
C30_5 C28_5 1_555 1_555
C31_5 H15_5 1_555 1_555
C32_5 H16_5 1_555 1_555
C33_5 O15_2 1_555 1_555
C34_5 C31_5 1_555 1_555
C35_5 C26_5 1_555 1_555
H17_5 C35_5 1_555 1_555
C36_5 C31_5 1_555 1_555
H18_5 C36_5 1_555 1_555
C37_5 C41_5 1_555 1_555
C38_5 C27_5 1_555 1_555
H19_5 C38_5 1_555 1_555
C39_5 C32_5 1_555 1_555
H20_5 C39_5 1_555 1_555
C40_5 H21_5 1_555 1_555
C41_5 C30_5 1_555 1_555
C42_5 C29_5 1_555 1_555
C43_5 C32_5 1_555 1_555
C44_5 C42_5 1_555 1_555
H22_5 C44_5 1_555 1_555
C45_5 C44_5 1_555 1_555
H23_5 C45_5 1_555 1_555
C46_5 C43_5 1_555 1_555
C47_5 C37_5 1_555 1_555
H24_5 C47_5 1_555 1_555
C48_5 C29_5 1_555 1_555
O19_5 P1_6 1_555 1_555
O20_5 P1_6 1_555 1_555
C4_5 C11_5 1_555 1_555
C6_5 C14_5 1_555 1_555
C10_5 C15_5 1_555 1_555
C12_5 C19_5 1_555 1_555
C16_5 C17_5 1_555 1_555
C16_5 C24_5 1_555 1_555
C21_5 C22_5 1_555 1_555
C22_5 C23_5 1_555 1_555
O17_2 C33_5 1_555 1_555
C28_5 C35_5 1_555 1_555
C30_5 C38_5 1_555 1_555
C33_5 C34_5 1_555 1_555
C34_5 C39_5 1_555 1_555
C36_5 C43_5 1_555 1_555
C37_5 C42_5 1_555 1_555
C40_5 C41_5 1_555 1_555
C40_5 C48_5 1_555 1_555
C45_5 C46_5 1_555 1_555
C46_5 C47_5 1_555 1_555
C48_5 O19_5 1_555 1_555
O20_5 H29_9 1_555 1_555
O10_3 C1_6 1_555 1_555
O12_3 C1_6 1_555 1_555
O15_8 C9_6 1_555 1_555
O17_8 C9_6 1_555 1_555
C1_6 C2_6 1_555 1_555
C2_6 C3_6 1_555 1_555
C3_6 H1_6 1_555 1_555
C4_6 H2_6 1_555 1_555
C5_6 C18_6 1_555 1_555
C6_6 C4_6 1_555 1_555
C7_6 H3_6 1_555 1_555
C8_6 H4_6 1_555 1_555
C9_6 C10_6 1_555 1_555
C10_6 C7_6 1_555 1_555
C11_6 C2_6 1_555 1_555
H5_6 C11_6 1_555 1_555
C12_6 C7_6 1_555 1_555
H6_6 C12_6 1_555 1_555
C13_6 C17_6 1_555 1_555
C14_6 C3_6 1_555 1_555
H7_6 C14_6 1_555 1_555
C15_6 C8_6 1_555 1_555
H8_6 C15_6 1_555 1_555
C16_6 H9_6 1_555 1_555
C17_6 C6_6 1_555 1_555
C18_6 C13_6 1_555 1_555
C19_6 C8_6 1_555 1_555
C20_6 C18_6 1_555 1_555
H10_6 C20_6 1_555 1_555
C21_6 C20_6 1_555 1_555
H11_6 C21_6 1_555 1_555
C22_6 C19_6 1_555 1_555
C23_6 C13_6 1_555 1_555
H12_6 C23_6 1_555 1_555
C24_6 C5_6 1_555 1_555
O19_6 P1_7 1_555 1_555
O20_6 P1_7 1_555 1_555
C4_6 C11_6 1_555 1_555
C6_6 C14_6 1_555 1_555
C10_6 C15_6 1_555 1_555
C12_6 C19_6 1_555 1_555
C16_6 C17_6 1_555 1_555
C16_6 C24_6 1_555 1_555
C21_6 C22_6 1_555 1_555
C22_6 C23_6 1_555 1_555
O20_6 H29_10 1_555 1_555
P1_8 O6_6 1_555 1_555
O7_6 P1_8 1_555 1_555
O10_5 C25_6 1_555 1_555
O12_5 C25_6 1_555 1_555
C25_6 C26_6 1_555 1_555
C26_6 C27_6 1_555 1_555
C27_6 H13_6 1_555 1_555
C28_6 H14_6 1_555 1_555
C30_6 C28_6 1_555 1_555
C31_6 H15_6 1_555 1_555
C32_6 H16_6 1_555 1_555
C33_6 O15 1_555 1_555
C34_6 C31_6 1_555 1_555
C35_6 C26_6 1_555 1_555
H17_6 C35_6 1_555 1_555
C36_6 C31_6 1_555 1_555
H18_6 C36_6 1_555 1_555
C37_6 C41_6 1_555 1_555
C38_6 C27_6 1_555 1_555
H19_6 C38_6 1_555 1_555
C39_6 C32_6 1_555 1_555
H20_6 C39_6 1_555 1_555
C40_6 H21_6 1_555 1_555
C41_6 C30_6 1_555 1_555
C42_6 C29_6 1_555 1_555
C43_6 C32_6 1_555 1_555
C44_6 C42_6 1_555 1_555
H22_6 C44_6 1_555 1_555
C45_6 C44_6 1_555 1_555
H23_6 C45_6 1_555 1_555
C46_6 C43_6 1_555 1_555
C47_6 C37_6 1_555 1_555
H24_6 C47_6 1_555 1_555
C48_6 C29_6 1_555 1_555
O17 C33_6 1_555 1_555
C28_6 C35_6 1_555 1_555
C30_6 C38_6 1_555 1_555
C33_6 C34_6 1_555 1_555
C34_6 C39_6 1_555 1_555
C36_6 C43_6 1_555 1_555
C37_6 C42_6 1_555 1_555
C40_6 C41_6 1_555 1_555
C40_6 C48_6 1_555 1_555
C45_6 C46_6 1_555 1_555
C46_6 C47_6 1_555 1_555
O10 C1_7 1_555 1_555
O12 C1_7 1_555 1_555
O15_5 C9_7 1_555 1_555
O17_5 C9_7 1_555 1_555
C1_7 C2_7 1_555 1_555
C2_7 C3_7 1_555 1_555
C3_7 H1_7 1_555 1_555
C4_7 H2_7 1_555 1_555
C5_7 C18_7 1_555 1_555
C6_7 C4_7 1_555 1_555
C7_7 H3_7 1_555 1_555
C8_7 H4_7 1_555 1_555
C9_7 C10_7 1_555 1_555
C10_7 C7_7 1_555 1_555
C11_7 C2_7 1_555 1_555
H5_7 C11_7 1_555 1_555
C12_7 C7_7 1_555 1_555
H6_7 C12_7 1_555 1_555
C13_7 C17_7 1_555 1_555
C14_7 C3_7 1_555 1_555
H7_7 C14_7 1_555 1_555
C15_7 C8_7 1_555 1_555
H8_7 C15_7 1_555 1_555
C16_7 H9_7 1_555 1_555
C17_7 C6_7 1_555 1_555
C18_7 C13_7 1_555 1_555
C19_7 C8_7 1_555 1_555
C20_7 C18_7 1_555 1_555
H10_7 C20_7 1_555 1_555
C21_7 C20_7 1_555 1_555
H11_7 C21_7 1_555 1_555
C22_7 C19_7 1_555 1_555
C23_7 C13_7 1_555 1_555
H12_7 C23_7 1_555 1_555
C24_7 C5_7 1_555 1_555
O6_7 C24_7 1_555 1_555
P1_9 O6_7 1_555 1_555
O7_7 P1_9 1_555 1_555
O10_7 C25_7 1_555 1_555
O12_7 C25_7 1_555 1_555
C25_7 C26_7 1_555 1_555
C26_7 C27_7 1_555 1_555
C27_7 H13_7 1_555 1_555
C28_7 H14_7 1_555 1_555
C29_7 C5_7 1_555 1_555
C30_7 C28_7 1_555 1_555
C31_7 H15_7 1_555 1_555
C32_7 H16_7 1_555 1_555
C33_7 O15_4 1_555 1_555
C34_7 C31_7 1_555 1_555
C35_7 C26_7 1_555 1_555
H17_7 C35_7 1_555 1_555
C36_7 C31_7 1_555 1_555
H18_7 C36_7 1_555 1_555
C37_7 C41_7 1_555 1_555
C38_7 C27_7 1_555 1_555
H19_7 C38_7 1_555 1_555
C39_7 C32_7 1_555 1_555
H20_7 C39_7 1_555 1_555
C40_7 H21_7 1_555 1_555
C41_7 C30_7 1_555 1_555
C42_7 C29_7 1_555 1_555
C43_7 C32_7 1_555 1_555
C44_7 C42_7 1_555 1_555
H22_7 C44_7 1_555 1_555
C45_7 C44_7 1_555 1_555
H23_7 C45_7 1_555 1_555
C46_7 C43_7 1_555 1_555
C47_7 C37_7 1_555 1_555
H24_7 C47_7 1_555 1_555
C48_7 C29_7 1_555 1_555
O19_7 P1_9 1_555 1_555
O20_7 P1_9 1_555 1_555
C4_7 C11_7 1_555 1_555
C6_7 C14_7 1_555 1_555
C10_7 C15_7 1_555 1_555
C12_7 C19_7 1_555 1_555
C16_7 C17_7 1_555 1_555
C16_7 C24_7 1_555 1_555
C21_7 C22_7 1_555 1_555
C22_7 C23_7 1_555 1_555
O17_4 C33_7 1_555 1_555
C28_7 C35_7 1_555 1_555
C30_7 C38_7 1_555 1_555
C33_7 C34_7 1_555 1_555
C34_7 C39_7 1_555 1_555
C36_7 C43_7 1_555 1_555
C37_7 C42_7 1_555 1_555
C40_7 C41_7 1_555 1_555
C40_7 C48_7 1_555 1_555
C45_7 C46_7 1_555 1_555
C46_7 C47_7 1_555 1_555
C48_7 O19_7 1_555 1_555
O20_7 H29_11 1_555 1_555
O10_2 C1_8 1_555 1_555
O12_2 C1_8 1_555 1_555
O15_6 C9_8 1_555 1_555
O17_6 C9_8 1_555 1_555
C1_8 C2_8 1_555 1_555
C2_8 C3_8 1_555 1_555
C3_8 H1_8 1_555 1_555
C4_8 H2_8 1_555 1_555
C5_8 C18_8 1_555 1_555
C6_8 C4_8 1_555 1_555
C7_8 H3_8 1_555 1_555
C8_8 H4_8 1_555 1_555
C9_8 C10_8 1_555 1_555
C10_8 C7_8 1_555 1_555
C11_8 C2_8 1_555 1_555
H5_8 C11_8 1_555 1_555
C12_8 C7_8 1_555 1_555
H6_8 C12_8 1_555 1_555
C13_8 C17_8 1_555 1_555
C14_8 C3_8 1_555 1_555
H7_8 C14_8 1_555 1_555
C15_8 C8_8 1_555 1_555
H8_8 C15_8 1_555 1_555
C16_8 H9_8 1_555 1_555
C17_8 C6_8 1_555 1_555
C18_8 C13_8 1_555 1_555
C19_8 C8_8 1_555 1_555
C20_8 C18_8 1_555 1_555
H10_8 C20_8 1_555 1_555
C21_8 C20_8 1_555 1_555
H11_8 C21_8 1_555 1_555
C22_8 C19_8 1_555 1_555
C23_8 C13_8 1_555 1_555
H12_8 C23_8 1_555 1_555
C24_8 C5_8 1_555 1_555
O6_8 C24_8 1_555 1_555
P1_10 O6_8 1_555 1_555
O7_8 P1_10 1_555 1_555
O10_8 C25_8 1_555 1_555
O12_8 C25_8 1_555 1_555
C25_8 C26_8 1_555 1_555
C26_8 C27_8 1_555 1_555
C27_8 H13_8 1_555 1_555
C28_8 H14_8 1_555 1_555
C29_8 C5_8 1_555 1_555
C30_8 C28_8 1_555 1_555
C31_8 H15_8 1_555 1_555
C32_8 H16_8 1_555 1_555
C33_8 O15_3 1_555 1_555
C34_8 C31_8 1_555 1_555
C35_8 C26_8 1_555 1_555
H17_8 C35_8 1_555 1_555
C36_8 C31_8 1_555 1_555
H18_8 C36_8 1_555 1_555
C37_8 C41_8 1_555 1_555
C38_8 C27_8 1_555 1_555
H19_8 C38_8 1_555 1_555
C39_8 C32_8 1_555 1_555
H20_8 C39_8 1_555 1_555
C40_8 H21_8 1_555 1_555
C41_8 C30_8 1_555 1_555
C42_8 C29_8 1_555 1_555
C43_8 C32_8 1_555 1_555
C44_8 C42_8 1_555 1_555
H22_8 C44_8 1_555 1_555
C45_8 C44_8 1_555 1_555
H23_8 C45_8 1_555 1_555
C46_8 C43_8 1_555 1_555
C47_8 C37_8 1_555 1_555
H24_8 C47_8 1_555 1_555
C48_8 C29_8 1_555 1_555
O19_8 P1_10 1_555 1_555
O20_8 P1_10 1_555 1_555
C4_8 C11_8 1_555 1_555
C6_8 C14_8 1_555 1_555
C10_8 C15_8 1_555 1_555
C12_8 C19_8 1_555 1_555
C16_8 C17_8 1_555 1_555
C16_8 C24_8 1_555 1_555
C21_8 C22_8 1_555 1_555
C22_8 C23_8 1_555 1_555
O17_3 C33_8 1_555 1_555
C28_8 C35_8 1_555 1_555
C30_8 C38_8 1_555 1_555
C33_8 C34_8 1_555 1_555
C34_8 C39_8 1_555 1_555
C36_8 C43_8 1_555 1_555
C37_8 C42_8 1_555 1_555
C40_8 C41_8 1_555 1_555
C40_8 C48_8 1_555 1_555
C45_8 C46_8 1_555 1_555
C46_8 C47_8 1_555 1_555
C48_8 O19_8 1_555 1_555
O20_8 H29_12 1_555 1_555
O7_8 H29_13 1_555 1_555
O7_7 H29_14 1_555 1_555
O7_6 H29_15 1_555 1_555
O7_5 H29_16 1_555 1_555

#END
