
###############################################################################
#
# This file contains modified crystal structure data generated from the
# MOF subset of the Cambridge Structural Database (CSD) v543 
# hosted by the Cambridge Crystallographic Data Centre (CCDC).
#
# This work is licensed under the Creative Commons
# Attribution-NonCommercial-ShareAlike 4.0 International License.
# To view a copy of this license, visit
# http://creativecommons.org/licenses/by-nc-sa/4.0/
# or send a letter to
# Creative Commons, PO Box 1866, Mountain View, CA 94042, USA.
#
# CIF created using the CSD Python API on 29 September 2022
# The structure has been converted into the P1 space group
# The structure has a 3D framework
# The original CSD entry FECWOB is in the monoclinic crystal system
# The framework has been calculated to contain at least 10.0% void space
# The void calculation uses a probe of radius 1.32A, grid spacing 0.4
#
###############################################################################

data_FECWOB
_chemical_formula_moiety         '(C80 H32 N32 O16 Zn8)n'
_symmetry_cell_setting           triclinic
_symmetry_space_group_name_H-M   'P 1'
_symmetry_Int_Tables_number      1
_space_group_name_Hall           'P 1'
loop_
_symmetry_equiv_pos_site_id
_symmetry_equiv_pos_as_xyz
1 x,y,z
_cell_length_a                   10.073(5)
_cell_length_b                   34.113(17)
_cell_length_c                   6.791(3)
_cell_angle_alpha                90
_cell_angle_beta                 113.866(7)
_cell_angle_gamma                90
_cell_volume                     2134
loop_
_atom_site_label
_atom_site_type_symbol
_atom_site_fract_x
_atom_site_fract_y
_atom_site_fract_z
Zn1 Zn 0.32625(15) 0.37498(3) 0.03558(17)
O1 O 0.3772(10) 0.4250(2) 0.1825(12)
N1 N 0.5686(11) 0.6322(2) 0.1624(13)
C1 C 0.5000 0.4415(4) 0.2500
O2 O 0.3809(10) 0.3268(2) 0.1989(12)
N2 N 0.5422(12) 0.6698(2) 0.1984(14)
C2 C 0.5000 0.4859(4) 0.2500
C3 C 0.3718(14) 0.5057(3) 0.1891(15)
H1 H 0.2832 0.4915 0.1447
N3 N 0.3843(13) 0.1193(3) 0.146(2)
C4 C 0.3696(14) 0.5463(3) 0.1913(15)
H2 H 0.2807 0.5601 0.1535
N4 N 0.4348(14) 0.0825(3) 0.181(2)
C5 C 0.5000 0.5666(4) 0.2500
C6 C 0.5000 0.6090(4) 0.2500
C7 C 0.5000 0.3102(4) 0.2500
C8 C 0.5000 0.2662(4) 0.2500
C9 C 0.6205(15) 0.2462(3) 0.2430(17)
H3 H 0.7014 0.2595 0.2437
C10 C 0.6196(15) 0.2046(3) 0.2431(17)
H4 H 0.6945 0.1905 0.2360
C11 C 0.5000 0.1413(5) 0.2500
C12 C 0.5000 0.1852(4) 0.2500
Zn2 Zn 0.67375(15) 0.37498(3) 0.46442(17)
Zn5 Zn 0.32625(15) 0.62502(3) 0.53558(17)
Zn6 Zn 0.82625(15) 0.12502(3) 0.53558(17)
O3 O 0.6228(10) 0.4250(2) 0.3175(12)
N5 N 0.4314(11) 0.6322(2) 0.3376(13)
N7 N 0.5686(11) 0.3678(2) 0.6624(13)
O4 O 0.6191(10) 0.3268(2) 0.3011(12)
N8 N 0.4578(12) 0.6698(2) 0.3016(14)
C13 C 0.6282(14) 0.5057(3) 0.3109(15)
H5 H 0.7168 0.4915 0.3553
N9 N 0.6157(13) 0.1193(3) 0.354(2)
N11 N 0.8843(13) 0.3807(3) 0.646(2)
C14 C 0.6304(14) 0.5463(3) 0.3087(15)
H6 H 0.7193 0.5601 0.3465
N12 N 0.5652(14) 0.0825(3) 0.319(2)
C15 C 0.3795(15) 0.2462(3) 0.2570(17)
H7 H 0.2986 0.2595 0.2563
C16 C 0.3804(15) 0.2046(3) 0.2569(17)
H8 H 0.3055 0.1905 0.2640
Zn3 Zn 0.67375(15) 0.62502(3) 0.96442(17)
Zn4 Zn 0.17375(15) 0.12502(3) 0.96442(17)
N6 N 0.4314(11) 0.3678(2) 0.8376(13)
N10 N 0.1157(13) 0.3807(3) 0.854(2)
N1_2 N 0.0686(11) 0.1322(2) 0.1624(13)
N2_2 N 0.0422(12) 0.1698(2) 0.1984(14)
C5_2 C -0.0000 0.0666(4) 0.2500
C6_2 C -0.0000 0.1090(4) 0.2500
C13_2 C 0.1282(14) 0.0057(3) 0.3109(15)
C14_2 C 0.1304(14) 0.0463(3) 0.3087(15)
H6_2 H 0.2193 0.0601 0.3465
C1_2 C 0.0000 0.9415(4) 0.2500
C2_2 C -0.0000 0.9859(4) 0.2500
C7_2 C 0.0000 0.8102(4) 0.2500
C8_2 C 0.0000 0.7662(4) 0.2500
C9_2 C 0.1205(15) 0.7462(3) 0.2430(17)
H3_2 H 0.2014 0.7595 0.2437
C10_2 C 0.1196(15) 0.7046(3) 0.2431(17)
H4_2 H 0.1945 0.6905 0.2360
C11_2 C 0.0000 0.6413(5) 0.2500
C12_2 C 0.0000 0.6852(4) 0.2500
Zn2_2 Zn 0.17375(15) 0.87498(3) 0.46442(17)
O3_2 O 0.1228(10) 0.9250(2) 0.3175(12)
N7_2 N 0.0686(11) 0.8678(2) 0.6624(13)
O4_2 O 0.1191(10) 0.8268(2) 0.3011(12)
H5_2 H 0.2168 0.9915 0.3553
N9_2 N 0.1157(13) 0.6193(3) 0.354(2)
N11_2 N 0.3843(13) 0.8807(3) 0.646(2)
N12_2 N 0.0652(14) 0.5825(3) 0.319(2)
C3_2 C 0.8718(14) 0.0057(3) 0.1891(15)
C4_2 C 0.8696(14) 0.0463(3) 0.1913(15)
H2_2 H 0.7807 0.0601 0.1535
C5_3 C 1.0000 0.0666(4) 0.2500
C6_3 C 1.0000 0.1090(4) 0.2500
N5_2 N 0.9314(11) 0.1322(2) 0.3376(13)
N8_2 N 0.9578(12) 0.1698(2) 0.3016(14)
Zn1_2 Zn 0.82625(15) 0.87498(3) 0.03558(17)
O1_2 O 0.8772(10) 0.9250(2) 0.1825(12)
C1_3 C 1.0000 0.9415(4) 0.2500
O2_2 O 0.8809(10) 0.8268(2) 0.1989(12)
C2_3 C 1.0000 0.9859(4) 0.2500
H1_2 H 0.7832 0.9915 0.1447
N3_2 N 0.8843(13) 0.6193(3) 0.146(2)
N4_2 N 0.9348(14) 0.5825(3) 0.181(2)
C7_3 C 1.0000 0.8102(4) 0.2500
C8_3 C 1.0000 0.7662(4) 0.2500
C11_3 C 1.0000 0.6413(5) 0.2500
C12_3 C 1.0000 0.6852(4) 0.2500
C15_2 C 0.8795(15) 0.7462(3) 0.2570(17)
H7_2 H 0.7986 0.7595 0.2563
C16_2 C 0.8804(15) 0.7046(3) 0.2569(17)
H8_2 H 0.8055 0.6905 0.2640
N6_2 N 0.9314(11) 0.8678(2) 0.8376(13)
N10_2 N 0.6157(13) 0.8807(3) 0.854(2)
O1_3 O 0.6228(10) 0.5750(2) 0.8175(12)
C1_4 C 0.5000 0.5585(4) 0.7500
O2_3 O 0.6191(10) 0.6732(2) 0.8011(12)
N2_3 N 0.4578(12) 0.3302(2) 0.8016(14)
C2_4 C 0.5000 0.5141(4) 0.7500
C3_3 C 0.6282(14) 0.4943(3) 0.8109(15)
H1_3 H 0.7168 0.5085 0.8553
C4_3 C 0.6304(14) 0.4537(3) 0.8087(15)
H2_3 H 0.7193 0.4399 0.8465
N4_3 N 0.5652(14) 0.9175(3) 0.819(2)
C5_4 C 0.5000 0.4334(4) 0.7500
C6_4 C 0.5000 0.3910(4) 0.7500
C7_4 C 0.5000 0.6898(4) 0.7500
C8_4 C 0.5000 0.7338(4) 0.7500
C9_3 C 0.3795(15) 0.7538(3) 0.7570(17)
H3_3 H 0.2986 0.7405 0.7563
C10_3 C 0.3804(15) 0.7954(3) 0.7569(17)
H4_3 H 0.3055 0.8095 0.7640
C11_4 C 0.5000 0.8587(5) 0.7500
C12_4 C 0.5000 0.8148(4) 0.7500
O3_3 O 0.3772(10) 0.5750(2) 0.6825(12)
O4_3 O 0.3809(10) 0.6732(2) 0.6989(12)
N8_3 N 0.5422(12) 0.3302(2) 0.6984(14)
C13_3 C 0.3718(14) 0.4943(3) 0.6891(15)
H5_3 H 0.2832 0.5085 0.6447
C14_3 C 0.3696(14) 0.4537(3) 0.6913(15)
H6_3 H 0.2807 0.4399 0.6535
N12_3 N 0.4348(14) 0.9175(3) 0.681(2)
C15_3 C 0.6205(15) 0.7538(3) 0.7430(17)
H7_3 H 0.7014 0.7405 0.7437
C16_3 C 0.6196(15) 0.7954(3) 0.7431(17)
H8_3 H 0.6945 0.8095 0.7360
O1_4 O 0.1228(10) 0.0750(2) 0.8175(12)
C1_5 C 0.0000 0.0585(4) 0.7500
O2_4 O 0.1191(10) 0.1732(2) 0.8011(12)
C2_5 C 0.0000 0.0141(4) 0.7500
H1_4 H 0.2168 0.0085 0.8553
N4_4 N 0.0652(14) 0.4175(3) 0.819(2)
C7_5 C 0.0000 0.1898(4) 0.7500
C8_5 C 0.0000 0.2338(4) 0.7500
C11_5 C 0.0000 0.3587(5) 0.7500
C12_5 C 0.0000 0.3148(4) 0.7500
C15_4 C 0.1205(15) 0.2538(3) 0.7430(17)
H7_4 H 0.2014 0.2405 0.7437
C16_4 C 0.1196(15) 0.2954(3) 0.7431(17)
H8_4 H 0.1945 0.3095 0.7360
C3_4 C 0.1282(14) 0.9943(3) 0.8109(15)
C4_4 C 0.1304(14) 0.9537(3) 0.8087(15)
H2_4 H 0.2193 0.9399 0.8465
C5_5 C 0.0000 0.9334(4) 0.7500
C6_5 C 0.0000 0.8910(4) 0.7500
N8_4 N 0.0422(12) 0.8302(2) 0.6984(14)
C1_6 C 1.0000 0.0585(4) 0.7500
C2_6 C 1.0000 0.0141(4) 0.7500
C7_6 C 1.0000 0.1898(4) 0.7500
C8_6 C 1.0000 0.2338(4) 0.7500
C9_4 C 0.8795(15) 0.2538(3) 0.7570(17)
H3_4 H 0.7986 0.2405 0.7563
C10_4 C 0.8804(15) 0.2954(3) 0.7569(17)
H4_4 H 0.8055 0.3095 0.7640
C11_6 C 1.0000 0.3587(5) 0.7500
C12_6 C 1.0000 0.3148(4) 0.7500
O3_4 O 0.8772(10) 0.0750(2) 0.6825(12)
O4_4 O 0.8809(10) 0.1732(2) 0.6989(12)
H5_4 H 0.7832 0.0085 0.6447
N12_4 N 0.9348(14) 0.4175(3) 0.681(2)
N2_4 N 0.9578(12) 0.8302(2) 0.8016(14)
C5_6 C 1.0000 0.9334(4) 0.7500
C6_6 C 1.0000 0.8910(4) 0.7500
C13_4 C 0.8718(14) 0.9943(3) 0.6891(15)
C14_4 C 0.8696(14) 0.9537(3) 0.6913(15)
H6_4 H 0.7807 0.9399 0.6535
loop_
_geom_bond_atom_site_label_1
_geom_bond_atom_site_label_2
_geom_bond_site_symmetry_1
_geom_bond_site_symmetry_2
Zn1 O1 1_555 1_555
O1 C1 1_555 1_555
N1 N2 1_555 1_555
C1 C2 1_555 1_555
O2 Zn1 1_555 1_555
N2 N8 1_555 1_555
C2 C3 1_555 1_555
C3 H1 1_555 1_555
N3 N4 1_555 1_555
C4 C3 1_555 1_555
H2 C4 1_555 1_555
N4 N12 1_555 1_555
C5 C4 1_555 1_555
C6 N1 1_555 1_555
C7 O2 1_555 1_555
C8 C7 1_555 1_555
C9 C8 1_555 1_555
H3 C9 1_555 1_555
C10 C9 1_555 1_555
H4 C10 1_555 1_555
C11 N3 1_555 1_555
C12 C10 1_555 1_555
Zn2 O3 1_555 1_555
Zn5 N5 1_555 1_555
Zn6 N9 1_555 1_555
O3 C1 1_555 1_555
N5 C6 1_555 1_555
N7 Zn2 1_555 1_555
O4 C7 1_555 1_555
N8 N5 1_555 1_555
C13 C2 1_555 1_555
H5 C13 1_555 1_555
N9 C11 1_555 1_555
N11 Zn2 1_555 1_555
C14 C5 1_555 1_555
H6 C14 1_555 1_555
N12 N9 1_555 1_555
C15 C8 1_555 1_555
H7 C15 1_555 1_555
C16 C12 1_555 1_555
H8 C16 1_555 1_555
C5 C6 1_555 1_555
C11 C12 1_555 1_555
Zn2 O4 1_555 1_555
C13 C14 1_555 1_555
C15 C16 1_555 1_555
N1_2 N2_2 1_555 1_555
C6_2 N1_2 1_555 1_555
C14_2 C5_2 1_555 1_555
H6_2 C14_2 1_555 1_555
C5_2 C6_2 1_555 1_555
C13_2 C14_2 1_555 1_555
C1_2 C2_2 1_555 1_555
C8_2 C7_2 1_555 1_555
C9_2 C8_2 1_555 1_555
H3_2 C9_2 1_555 1_555
C10_2 C9_2 1_555 1_555
H4_2 C10_2 1_555 1_555
C12_2 C10_2 1_555 1_555
Zn2_2 O3_2 1_555 1_555
Zn5 N9_2 1_555 1_555
O3_2 C1_2 1_555 1_555
N7_2 Zn2_2 1_555 1_555
O4_2 C7_2 1_555 1_555
N9_2 C11_2 1_555 1_555
N11_2 Zn2_2 1_555 1_555
N12_2 N9_2 1_555 1_555
C11_2 C12_2 1_555 1_555
Zn2_2 O4_2 1_555 1_555
C4_2 C3_2 1_555 1_555
H2_2 C4_2 1_555 1_555
C5_3 C4_2 1_555 1_555
Zn6 N5_2 1_555 1_555
N5_2 C6_3 1_555 1_555
N8_2 N5_2 1_555 1_555
C5_3 C6_3 1_555 1_555
Zn1_2 O1_2 1_555 1_555
O1_2 C1_3 1_555 1_555
C1_3 C2_3 1_555 1_555
O2_2 Zn1_2 1_555 1_555
N3_2 N4_2 1_555 1_555
C7_3 O2_2 1_555 1_555
C8_3 C7_3 1_555 1_555
C11_3 N3_2 1_555 1_555
C15_2 C8_3 1_555 1_555
H7_2 C15_2 1_555 1_555
C16_2 C12_3 1_555 1_555
H8_2 C16_2 1_555 1_555
C11_3 C12_3 1_555 1_555
C15_2 C16_2 1_555 1_555
Zn3 O1_3 1_555 1_555
O1_3 C1_4 1_555 1_555
N6 N2_3 1_555 1_555
C1_4 C2_4 1_555 1_555
O2_3 Zn3 1_555 1_555
N2_3 N8_3 1_555 1_555
C2_4 C3_3 1_555 1_555
C3_3 H1_3 1_555 1_555
N10_2 N4_3 1_555 1_555
C4_3 C3_3 1_555 1_555
H2_3 C4_3 1_555 1_555
N4_3 N12_3 1_555 1_555
C5_4 C4_3 1_555 1_555
C6_4 N6 1_555 1_555
C7_4 O2_3 1_555 1_555
C8_4 C7_4 1_555 1_555
C9_3 C8_4 1_555 1_555
H3_3 C9_3 1_555 1_555
C10_3 C9_3 1_555 1_555
H4_3 C10_3 1_555 1_555
C11_4 N10_2 1_555 1_555
C12_4 C10_3 1_555 1_555
Zn5 O3_3 1_555 1_555
O3_3 C1_4 1_555 1_555
N7 C6_4 1_555 1_555
O4_3 C7_4 1_555 1_555
N8_3 N7 1_555 1_555
C13_3 C2_4 1_555 1_555
H5_3 C13_3 1_555 1_555
N11_2 C11_4 1_555 1_555
C14_3 C5_4 1_555 1_555
H6_3 C14_3 1_555 1_555
N12_3 N11_2 1_555 1_555
C15_3 C8_4 1_555 1_555
H7_3 C15_3 1_555 1_555
C16_3 C12_4 1_555 1_555
H8_3 C16_3 1_555 1_555
C5_4 C6_4 1_555 1_555
C11_4 C12_4 1_555 1_555
Zn5 O4_3 1_555 1_555
C13_3 C14_3 1_555 1_555
C15_3 C16_3 1_555 1_555
Zn4 O1_4 1_555 1_555
O1_4 C1_5 1_555 1_555
C1_5 C2_5 1_555 1_555
O2_4 Zn4 1_555 1_555
N10 N4_4 1_555 1_555
C7_5 O2_4 1_555 1_555
C8_5 C7_5 1_555 1_555
C11_5 N10 1_555 1_555
C15_4 C8_5 1_555 1_555
H7_4 C15_4 1_555 1_555
C16_4 C12_5 1_555 1_555
H8_4 C16_4 1_555 1_555
C11_5 C12_5 1_555 1_555
C15_4 C16_4 1_555 1_555
C4_4 C3_4 1_555 1_555
H2_4 C4_4 1_555 1_555
C5_5 C4_4 1_555 1_555
N7_2 C6_5 1_555 1_555
N8_4 N7_2 1_555 1_555
C5_5 C6_5 1_555 1_555
C1_6 C2_6 1_555 1_555
C8_6 C7_6 1_555 1_555
C9_4 C8_6 1_555 1_555
H3_4 C9_4 1_555 1_555
C10_4 C9_4 1_555 1_555
H4_4 C10_4 1_555 1_555
C12_6 C10_4 1_555 1_555
Zn6 O3_4 1_555 1_555
O3_4 C1_6 1_555 1_555
O4_4 C7_6 1_555 1_555
N11 C11_6 1_555 1_555
N12_4 N11 1_555 1_555
C11_6 C12_6 1_555 1_555
Zn6 O4_4 1_555 1_555
N6_2 N2_4 1_555 1_555
C6_6 N6_2 1_555 1_555
C14_4 C5_6 1_555 1_555
H6_4 C14_4 1_555 1_555
C5_6 C6_6 1_555 1_555
C13_4 C14_4 1_555 1_555

#END
