
###############################################################################
#
# This file contains modified crystal structure data generated from the
# MOF subset of the Cambridge Structural Database (CSD) v543 
# hosted by the Cambridge Crystallographic Data Centre (CCDC).
#
# This work is licensed under the Creative Commons
# Attribution-NonCommercial-ShareAlike 4.0 International License.
# To view a copy of this license, visit
# http://creativecommons.org/licenses/by-nc-sa/4.0/
# or send a letter to
# Creative Commons, PO Box 1866, Mountain View, CA 94042, USA.
#
# CIF created using the CSD Python API on 29 September 2022
# The structure has been converted into the P1 space group
# The structure has a 3D framework
# The original CSD entry FECXAO is in the hexagonal crystal system
# The original CSD entry FECXAO is in a Sohncke space group
# The framework has been calculated to contain at least 10.0% void space
# The void calculation uses a probe of radius 1.32A, grid spacing 0.4
# H atom positions have been added when not included in the experimental data
# Generated hydrogen atom positions removed from atoms on special positions
#
###############################################################################

data_FECXAO
_chemical_formula_moiety         '(C162 H114 La12 O40)n'
_symmetry_cell_setting           triclinic
_symmetry_space_group_name_H-M   'P 1'
_symmetry_Int_Tables_number      1
_space_group_name_Hall           'P 1'
loop_
_symmetry_equiv_pos_site_id
_symmetry_equiv_pos_as_xyz
1 x,y,z
_cell_length_a                   16.5428(4)
_cell_length_b                   16.5428(4)
_cell_length_c                   24.3988(15)
_cell_angle_alpha                90
_cell_angle_beta                 90
_cell_angle_gamma                120
_cell_volume                     5782.52
loop_
_atom_site_label
_atom_site_type_symbol
_atom_site_fract_x
_atom_site_fract_y
_atom_site_fract_z
La4 La 0.0000 0.08098(3) 0.1667
La4_2 La 1.0000 0.08098(3) 0.1667
La5 La 0.91902(3) 0.0000 0.0000
O9 O 0.8285(4) 0.0370(4) 0.1623(3)
O11 O 0.0718(4) 0.0016(4) 0.1218(2)
La5_2 La 0.91902(3) 0.0000 1.0000
O1 O 0.0359(4) 0.1418(3) 0.06980(19)
C1 C 0.0260(5) 0.1994(5) 0.0391(3)
C2 C 0.0927(5) 0.3020(5) 0.0448(3)
C3 C 0.0702(6) 0.3625(6) 0.0197(4)
C4 C 0.1273(6) 0.4599(6) 0.0262(4)
H2 H 0.1127 0.5001 0.0077
C5 C 0.2055(5) 0.4966(5) 0.0604(3)
C6 C 0.2277(5) 0.4326(5) 0.0853(4)
H3 H 0.2803 0.4555 0.1075
C7 C 0.1727(6) 0.3361(5) 0.0773(3)
H4 H 0.1891 0.2954 0.0935
C8 C 0.2595(5) 0.5980(5) 0.0724(3)
C9 C 0.3538(4) 0.6462(4) 0.0833
H5 H 0.3862 0.6138 0.0833
C10 C 0.2129(6) 0.6508(5) 0.0710(4)
H6 H 0.1502 0.6213 0.0612
C11 C 0.2577(4) 0.7423(4) 0.0833
C12 C 0.2047(4) 0.7953(4) 0.0833
C13 C 0.1372(8) 0.7762(7) 0.0435(5)
H7 H 0.1252 0.7318 0.0166
C14 C 0.0878(8) 0.8238(7) 0.0440(4)
H8 H 0.0415 0.8098 0.0180
C15 C 0.1073(4) 0.8927(4) 0.0833
C16 C 0.0551(4) 0.9449(4) 0.0833
La5_3 La 0.91902(3) 1.0000 0.0000
O5 O 0.8582(3) 0.9641(4) 0.09687(19)
C17 C 0.8006(5) 0.9740(5) 0.1276(3)
C18 C 0.6980(5) 0.9073(5) 0.1219(3)
C19 C 0.6375(6) 0.9298(6) 0.1470(4)
H9 H 0.6610 0.9831 0.1686
C20 C 0.5401(6) 0.8727(6) 0.1405(4)
H10 H 0.4999 0.8873 0.1590
C21 C 0.5034(5) 0.7945(5) 0.1063(3)
C22 C 0.5674(5) 0.7723(5) 0.0814(4)
H11 H 0.5445 0.7197 0.0592
C23 C 0.6639(5) 0.8273(6) 0.0894(3)
H12 H 0.7046 0.8109 0.0732
C24 C 0.4020(5) 0.7405(5) 0.0943(3)
C25 C 0.3492(5) 0.7871(6) 0.0957(4)
H13 H 0.3787 0.8498 0.1055
C26 C 0.2238(7) 0.8628(8) 0.1232(5)
H14 H 0.2682 0.8748 0.1501
C27 C 0.1762(7) 0.9122(8) 0.1227(4)
H15 H 0.1902 0.9585 0.1487
H1 H 0.0169 0.3390 0.9981
La5_4 La 0.91902(3) 1.0000 1.0000
O13 O 0.0702(6) 0.0718(4) 0.9551(2)
O2 O 0.9630(4) 0.1715(4) 0.0044(3)
O3 O 0.9984(4) 0.9282(4) 0.0449(2)
O4 O 0.7677(4) 0.0000 0.0000
O4_2 O 0.7677(4) 0.0000 1.0000
O7 O 0.8941(5) 0.0359(4) 0.90313(19)
H16 H 0.77839 0.0613969 0.98686
O4_3 O 0.7677(4) 1.0000 0.0000
O4_4 O 0.7677(4) 1.0000 1.0000
O8 O 0.8941(5) 0.8582(3) 0.93020(19)
O10 O 0.7915(6) 0.8285(4) 0.9956(3)
H17 H 0.722652 0.949921 0.975349
O8_2 O 0.0359(6) 0.8941(5) 0.76353(19)
O12 O 0.0702(6) 0.9984(4) 0.8782(2)
H9_2 H 0.6779 0.6610 0.0019
C1_2 C 0.8266(7) 0.0260(5) 0.8724(3)
C2_2 C 0.7907(7) 0.0927(5) 0.8781(3)
C3_2 C 0.7077(8) 0.0702(6) 0.8530(4)
H1_2 H 0.6779 0.0169 0.8314
C4_2 C 0.6674(8) 0.1273(6) 0.8595(4)
H2_2 H 0.6126 0.1127 0.8410
C5_2 C 0.7089(7) 0.2055(5) 0.8937(3)
C6_2 C 0.7951(7) 0.2277(5) 0.9186(4)
H3_2 H 0.8248 0.2803 0.9408
C7_2 C 0.8366(8) 0.1727(6) 0.9106(3)
H4_2 H 0.8937 0.1891 0.9268
C8_2 C 0.6615(7) 0.2595(5) 0.9057(3)
C9_2 C 0.7076(6) 0.3538(4) 0.9166
H5_2 H 0.7724 0.3862 0.9166
C10_2 C 0.5621(8) 0.2129(6) 0.9043(4)
H6_2 H 0.5289 0.1502 0.8945
C11_2 C 0.5154(6) 0.2577(4) 0.9166
C12_2 C 0.4094(6) 0.2047(4) 0.9166
C13_2 C 0.3610(11) 0.1372(8) 0.8768(5)
H7_2 H 0.3934 0.1252 0.8499
C14_2 C 0.2640(11) 0.0878(8) 0.8773(4)
H8_2 H 0.2317 0.0415 0.8513
C15_2 C 0.2146(6) 0.1073(4) 0.9166
C16_2 C 0.1102(6) 0.0551(4) 0.9166
La5_5 La 0.91902(3) 0.91902(3) 0.8333
C17_2 C 0.8266(7) 0.8006(5) 0.9609(3)
C18_2 C 0.7907(7) 0.6980(5) 0.9552(3)
O13_2 O 0.9984(7) 0.0702(6) 0.7884(2)
C19_2 C 0.7077(8) 0.6375(6) 0.9803(4)
C20_2 C 0.6674(8) 0.5401(6) 0.9738(4)
H10_2 H 0.6126 0.4999 0.9923
C21_2 C 0.7089(7) 0.5034(5) 0.9396(3)
C22_2 C 0.7951(7) 0.5674(5) 0.9147(4)
H11_2 H 0.8248 0.5445 0.8925
C23_2 C 0.8366(8) 0.6639(5) 0.9227(3)
H12_2 H 0.8937 0.7046 0.9065
C24_2 C 0.6615(7) 0.4020(5) 0.9276(3)
C25_2 C 0.5621(8) 0.3492(5) 0.9290(4)
H13_2 H 0.5289 0.3787 0.9388
C26_2 C 0.3610(11) 0.2238(7) 0.9565(5)
H14_2 H 0.3934 0.2682 0.9834
C27_2 C 0.2640(11) 0.1762(7) 0.9560(4)
H15_2 H 0.2317 0.1902 0.9820
O2_2 O 0.7915(6) 0.9630(4) 0.8377(3)
O4_5 O 0.7677(4) 0.7677(4) 0.8333
O7_2 O 0.8582(6) 0.8941(5) 0.73647(19)
O10_2 O 0.9630(7) 0.7915(6) 0.8289(3)
O8_3 O 0.1418(3) 0.0359(6) 0.59687(19)
O12_2 O 0.0718(4) 0.0702(6) 0.7116(2)
La1 La 0.0000 0.91902(3) 0.6667
O4_6 O 0.0000 0.7677(4) 0.6667
O10_3 O 0.1715(4) 0.9630(7) 0.6623(3)
H17_2 H 0.0500789 0.772731 0.642016
La1_2 La 1.0000 0.91902(3) 0.6667
C1_3 C 0.8006(5) 0.8266(7) 0.7058(3)
O2_3 O 0.8285(4) 0.7915(6) 0.6711(3)
C2_3 C 0.6980(5) 0.7907(7) 0.7115(3)
C3_3 C 0.6375(6) 0.7077(8) 0.6864(4)
H1_3 H 0.6610 0.6779 0.6648
O4_7 O 1.0000 0.7677(4) 0.6667
C4_3 C 0.5401(6) 0.6674(8) 0.6929(4)
H2_3 H 0.4999 0.6126 0.6744
C5_3 C 0.5034(5) 0.7089(7) 0.7271(3)
C6_3 C 0.5674(5) 0.7951(7) 0.7520(4)
H3_3 H 0.5445 0.8248 0.7742
C7_3 C 0.6639(5) 0.8366(8) 0.7440(3)
H4_3 H 0.7046 0.8937 0.7602
C8_3 C 0.4020(5) 0.6615(7) 0.7391(3)
C9_3 C 0.3538(4) 0.7076(6) 0.7500
H5_3 H 0.3862 0.7724 0.7500
C10_3 C 0.3492(5) 0.5621(8) 0.7377(4)
H6_3 H 0.3787 0.5289 0.7279
C11_3 C 0.2577(4) 0.5154(6) 0.7500
C12_3 C 0.2047(4) 0.4094(6) 0.7500
C13_3 C 0.2238(7) 0.3610(11) 0.7102(5)
H7_3 H 0.2682 0.3934 0.6833
C14_3 C 0.1762(7) 0.2640(11) 0.7107(4)
H8_3 H 0.1902 0.2317 0.6847
C15_3 C 0.1073(4) 0.2146(6) 0.7500
C16_3 C 0.0551(4) 0.1102(6) 0.7500
O7_3 O 0.9641(4) 0.8582(6) 0.56980(19)
C17_3 C 0.0260(5) 0.8266(7) 0.7942(3)
C18_3 C 0.0927(5) 0.7907(7) 0.7885(3)
O13_3 O 0.9282(4) 0.9984(7) 0.6218(2)
C19_3 C 0.0702(6) 0.7077(8) 0.8136(4)
H9_3 H 0.0169 0.6779 0.8352
C20_3 C 0.1273(6) 0.6674(8) 0.8071(4)
H10_3 H 0.1127 0.6126 0.8256
C21_3 C 0.2055(5) 0.7089(7) 0.7729(3)
C22_3 C 0.2277(5) 0.7951(7) 0.7480(4)
H11_3 H 0.2803 0.8248 0.7258
C23_3 C 0.1727(6) 0.8366(8) 0.7560(3)
H12_3 H 0.1891 0.8937 0.7398
C24_3 C 0.2595(5) 0.6615(7) 0.7609(3)
C25_3 C 0.2129(6) 0.5621(8) 0.7623(4)
H13_3 H 0.1502 0.5289 0.7721
C26_3 C 0.1372(8) 0.3610(11) 0.7898(5)
H14_3 H 0.1252 0.3934 0.8167
C27_3 C 0.0878(8) 0.2640(11) 0.7893(4)
H15_3 H 0.0415 0.2317 0.8153
H16_2 H 0.938603 0.716993 0.653526
La1_3 La 0.08098(3) 0.0000 0.5000
O4_8 O 0.2323(4) 0.0000 0.5000
O8_4 O 0.1059(5) 0.1418(3) 0.43020(19)
O10_4 O 0.2085(6) 0.1715(4) 0.4956(3)
O12_3 O 0.0016(4) 0.0718(4) 0.5449(2)
H17_3 H 0.277348 0.0500789 0.475349
La1_4 La 0.08098(3) 1.0000 0.5000
O2_4 O 0.0370(4) 0.8285(4) 0.5044(3)
O4_9 O 0.2323(4) 1.0000 0.5000
O7_4 O 0.1059(5) 0.9641(4) 0.40313(19)
H16_3 H 0.22161 0.938603 0.48686
C1_4 C 0.9740(5) 0.8006(5) 0.5391(3)
C2_4 C 0.9073(5) 0.6980(5) 0.5448(3)
C3_4 C 0.9298(6) 0.6375(6) 0.5197(4)
H1_4 H 0.9831 0.6610 0.4981
C4_4 C 0.8727(6) 0.5401(6) 0.5262(4)
H2_4 H 0.8873 0.4999 0.5077
C5_4 C 0.7945(5) 0.5034(5) 0.5604(3)
C6_4 C 0.7723(5) 0.5674(5) 0.5853(4)
H3_4 H 0.7197 0.5445 0.6075
C7_4 C 0.8273(6) 0.6639(5) 0.5773(3)
H4_4 H 0.8109 0.7046 0.5935
C8_4 C 0.7405(5) 0.4020(5) 0.5724(3)
C9_4 C 0.6462(4) 0.3538(4) 0.5833
H5_4 H 0.6138 0.3862 0.5833
C10_4 C 0.7871(6) 0.3492(5) 0.5710(4)
H6_4 H 0.8498 0.3787 0.5612
C11_4 C 0.7423(4) 0.2577(4) 0.5833
C12_4 C 0.7953(4) 0.2047(4) 0.5833
C13_4 C 0.8628(8) 0.2238(7) 0.5435(5)
H7_4 H 0.8748 0.2682 0.5166
C14_4 C 0.9122(8) 0.1762(7) 0.5440(4)
H8_4 H 0.9585 0.1902 0.5180
C15_4 C 0.8927(4) 0.1073(4) 0.5833
C16_4 C 0.9449(4) 0.0551(4) 0.5833
C17_4 C 0.1994(5) 0.0260(5) 0.6276(3)
C18_4 C 0.3020(5) 0.0927(5) 0.6219(3)
O13_4 O 0.9298(6) 0.9282(4) 0.4551(2)
C19_4 C 0.3625(6) 0.0702(6) 0.6470(4)
H9_4 H 0.3390 0.0169 0.6686
C20_4 C 0.4599(6) 0.1273(6) 0.6405(4)
H10_4 H 0.5001 0.1127 0.6590
C21_4 C 0.4966(5) 0.2055(5) 0.6063(3)
C22_4 C 0.4326(5) 0.2277(5) 0.5814(4)
H11_4 H 0.4555 0.2803 0.5592
C23_4 C 0.3361(5) 0.1727(6) 0.5894(3)
H12_4 H 0.2954 0.1891 0.5732
C24_4 C 0.5980(5) 0.2595(5) 0.5943(3)
C25_4 C 0.6508(5) 0.2129(6) 0.5957(4)
H13_4 H 0.6213 0.1502 0.6055
C26_4 C 0.7762(7) 0.1372(8) 0.6232(5)
H14_4 H 0.7318 0.1252 0.6501
C27_4 C 0.8238(7) 0.0878(8) 0.6227(4)
H15_4 H 0.8098 0.0415 0.6487
La3 La 0.08098(3) 0.08098(3) 0.3333
O2_5 O 0.2085(6) 0.0370(4) 0.3377(3)
O3_2 O 0.9298(6) 0.0016(4) 0.3782(2)
O4_10 O 0.2323(4) 0.2323(4) 0.3333
O7_5 O 0.1418(6) 0.1059(5) 0.23647(19)
O10_5 O 0.0370(7) 0.2085(6) 0.3289(3)
C1_5 C 0.1734(7) 0.9740(5) 0.3724(3)
C2_5 C 0.2093(7) 0.9073(5) 0.3781(3)
C3_5 C 0.2923(8) 0.9298(6) 0.3530(4)
H1_5 H 0.3221 0.9831 0.3314
C4_5 C 0.3326(8) 0.8727(6) 0.3595(4)
H2_5 H 0.3874 0.8873 0.3410
C5_5 C 0.2911(7) 0.7945(5) 0.3937(3)
C6_5 C 0.2049(7) 0.7723(5) 0.4186(4)
H3_5 H 0.1752 0.7197 0.4408
C7_5 C 0.1634(8) 0.8273(6) 0.4106(3)
H4_5 H 0.1063 0.8109 0.4268
C8_5 C 0.3385(7) 0.7405(5) 0.4057(3)
C9_5 C 0.2924(6) 0.6462(4) 0.4166
H5_5 H 0.2276 0.6138 0.4166
C10_5 C 0.4379(8) 0.7871(6) 0.4043(4)
H6_5 H 0.4711 0.8498 0.3945
C11_5 C 0.4846(6) 0.7423(4) 0.4166
C12_5 C 0.5906(6) 0.7953(4) 0.4166
C13_5 C 0.6390(11) 0.8628(8) 0.3768(5)
H7_5 H 0.6066 0.8748 0.3499
C14_5 C 0.7360(11) 0.9122(8) 0.3773(4)
H8_5 H 0.7683 0.9585 0.3513
C15_5 C 0.7854(6) 0.8927(4) 0.4166
C16_5 C 0.8898(6) 0.9449(4) 0.4166
C17_5 C 0.1734(7) 0.1994(5) 0.4609(3)
C18_5 C 0.2093(7) 0.3020(5) 0.4552(3)
O13_5 O 0.0016(7) 0.9298(6) 0.2884(2)
C19_5 C 0.2923(8) 0.3625(6) 0.4803(4)
H9_5 H 0.3221 0.3390 0.5019
C20_5 C 0.3326(8) 0.4599(6) 0.4738(4)
H10_5 H 0.3874 0.5001 0.4923
C21_5 C 0.2911(7) 0.4966(5) 0.4396(3)
C22_5 C 0.2049(7) 0.4326(5) 0.4147(4)
H11_5 H 0.1752 0.4555 0.3925
C23_5 C 0.1634(8) 0.3361(5) 0.4227(3)
H12_5 H 0.1063 0.2954 0.4065
C24_5 C 0.3385(7) 0.5980(5) 0.4276(3)
C25_5 C 0.4379(8) 0.6508(5) 0.4290(4)
H13_5 H 0.4711 0.6213 0.4388
C26_5 C 0.6390(11) 0.7762(7) 0.4565(5)
H14_5 H 0.6066 0.7318 0.4834
C27_5 C 0.7360(11) 0.8238(7) 0.4560(4)
H15_5 H 0.7683 0.8098 0.4820
O8_5 O 0.9641(6) 0.1059(5) 0.26353(19)
C1_6 C 0.1994(5) 0.1734(7) 0.2058(3)
O2_6 O 0.1715(4) 0.2085(6) 0.1711(3)
C2_6 C 0.3020(5) 0.2093(7) 0.2115(3)
O3_3 O 0.9282(4) 0.9298(6) 0.2116(2)
C3_6 C 0.3625(6) 0.2923(8) 0.1864(4)
H1_6 H 0.3390 0.3221 0.1648
O4_11 O 0.0000 0.2323(4) 0.1667
C4_6 C 0.4599(6) 0.3326(8) 0.1929(4)
H2_6 H 0.5001 0.3874 0.1744
C5_6 C 0.4966(5) 0.2911(7) 0.2271(3)
C6_6 C 0.4326(5) 0.2049(7) 0.2520(4)
H3_6 H 0.4555 0.1752 0.2742
C7_6 C 0.3361(5) 0.1634(8) 0.2440(3)
H4_6 H 0.2954 0.1063 0.2602
C8_6 C 0.5980(5) 0.3385(7) 0.2391(3)
C9_6 C 0.6462(4) 0.2924(6) 0.2500
H5_6 H 0.6138 0.2276 0.2500
C10_6 C 0.6508(5) 0.4379(8) 0.2377(4)
H6_6 H 0.6213 0.4711 0.2279
C11_6 C 0.7423(4) 0.4846(6) 0.2500
C12_6 C 0.7953(4) 0.5906(6) 0.2500
C13_6 C 0.7762(7) 0.6390(11) 0.2102(5)
H7_6 H 0.7318 0.6066 0.1833
C14_6 C 0.8238(7) 0.7360(11) 0.2107(4)
H8_6 H 0.8098 0.7683 0.1847
C15_6 C 0.8927(4) 0.7854(6) 0.2500
C16_6 C 0.9449(4) 0.8898(6) 0.2500
C17_6 C 0.9740(5) 0.1734(7) 0.2942(3)
C18_6 C 0.9073(5) 0.2093(7) 0.2885(3)
C19_6 C 0.9298(6) 0.2923(8) 0.3136(4)
H9_6 H 0.9831 0.3221 0.3352
C20_6 C 0.8727(6) 0.3326(8) 0.3071(4)
H10_6 H 0.8873 0.3874 0.3256
C21_6 C 0.7945(5) 0.2911(7) 0.2729(3)
C22_6 C 0.7723(5) 0.2049(7) 0.2480(4)
H11_6 H 0.7197 0.1752 0.2258
C23_6 C 0.8273(6) 0.1634(8) 0.2560(3)
H12_6 H 0.8109 0.1063 0.2398
C24_6 C 0.7405(5) 0.3385(7) 0.2609(3)
C25_6 C 0.7871(6) 0.4379(8) 0.2623(4)
H13_6 H 0.8498 0.4711 0.2721
C26_6 C 0.8628(8) 0.6390(11) 0.2898(5)
H14_6 H 0.8748 0.6066 0.3167
C27_6 C 0.9122(8) 0.7360(11) 0.2893(4)
H15_6 H 0.9585 0.7683 0.3153
H16_4 H 0.0613969 0.283007 0.153526
O4_12 O 1.0000 0.2323(4) 0.1667
H17_4 H 0.949921 0.227269 0.142016
H17_5 H 0.772731 0.0500789 0.024651
H16_5 H 0.716993 0.938603 0.0131403
H16_6 H 0.0613969 0.77839 0.679807
H17_6 H 0.949921 0.722652 0.691318
H17_7 H 0.0500789 0.277348 0.191318
H16_7 H 0.938603 0.22161 0.179807
H16_8 H 0.283007 0.0613969 0.51314
H17_8 H 0.227269 0.949921 0.524651
loop_
_geom_bond_atom_site_label_1
_geom_bond_atom_site_label_2
_geom_bond_site_symmetry_1
_geom_bond_site_symmetry_2
La4 O11 1_555 1_555
O9 La4_2 1_555 1_555
O1 C1 1_555 1_555
C2 C1 1_555 1_555
C3 C2 1_555 1_555
C4 C3 1_555 1_555
H2 C4 1_555 1_555
C5 C4 1_555 1_555
C6 C5 1_555 1_555
H3 C6 1_555 1_555
C7 C2 1_555 1_555
H4 C7 1_555 1_555
C8 C5 1_555 1_555
C9 C8 1_555 1_555
H5 C9 1_555 1_555
C10 C8 1_555 1_555
H6 C10 1_555 1_555
C11 C10 1_555 1_555
C12 C11 1_555 1_555
C13 C12 1_555 1_555
H7 C13 1_555 1_555
C14 C13 1_555 1_555
H8 C14 1_555 1_555
C15 C14 1_555 1_555
C16 C15 1_555 1_555
La4 O1 1_555 1_555
La5_3 O5 1_555 1_555
O5 C17 1_555 1_555
C18 C17 1_555 1_555
C19 C18 1_555 1_555
H9 C19 1_555 1_555
C20 C19 1_555 1_555
H10 C20 1_555 1_555
C21 C20 1_555 1_555
C22 C21 1_555 1_555
H11 C22 1_555 1_555
C23 C18 1_555 1_555
H12 C23 1_555 1_555
C24 C9 1_555 1_555
C25 C11 1_555 1_555
H13 C25 1_555 1_555
C26 C12 1_555 1_555
H14 C26 1_555 1_555
C27 C15 1_555 1_555
H15 C27 1_555 1_555
C6 C7 1_555 1_555
C21 C24 1_555 1_555
C22 C23 1_555 1_555
C24 C25 1_555 1_555
C26 C27 1_555 1_555
O2 La5 1_555 1_555
O4 La5 1_555 1_555
La5_3 O3 1_555 1_555
O4_2 La5_2 1_555 1_555
O7 La5_2 1_555 1_555
O4_2 H16 1_555 1_555
O4_3 La5_3 1_555 1_555
O4_4 La5_4 1_555 1_555
O8 La5_4 1_555 1_555
O10 La5_4 1_555 1_555
O4_4 H17 1_555 1_555
O7 C1_2 1_555 1_555
C2_2 C1_2 1_555 1_555
C3_2 C2_2 1_555 1_555
H1_2 C3_2 1_555 1_555
C4_2 C3_2 1_555 1_555
H2_2 C4_2 1_555 1_555
C5_2 C4_2 1_555 1_555
C6_2 C5_2 1_555 1_555
H3_2 C6_2 1_555 1_555
C7_2 C2_2 1_555 1_555
H4_2 C7_2 1_555 1_555
C8_2 C5_2 1_555 1_555
C9_2 C8_2 1_555 1_555
H5_2 C9_2 1_555 1_555
C10_2 C8_2 1_555 1_555
H6_2 C10_2 1_555 1_555
C11_2 C10_2 1_555 1_555
C12_2 C11_2 1_555 1_555
C13_2 C12_2 1_555 1_555
H7_2 C13_2 1_555 1_555
C14_2 C13_2 1_555 1_555
H8_2 C14_2 1_555 1_555
C15_2 C14_2 1_555 1_555
C16_2 C15_2 1_555 1_555
La5_5 O8 1_555 1_555
O8 C17_2 1_555 1_555
C17_2 O10 1_555 1_555
C18_2 C17_2 1_555 1_555
O13 C16_2 1_555 1_555
C19_2 C18_2 1_555 1_555
C20_2 C19_2 1_555 1_555
H10_2 C20_2 1_555 1_555
C21_2 C20_2 1_555 1_555
C22_2 C21_2 1_555 1_555
H11_2 C22_2 1_555 1_555
C23_2 C18_2 1_555 1_555
H12_2 C23_2 1_555 1_555
C24_2 C9_2 1_555 1_555
C25_2 C11_2 1_555 1_555
H13_2 C25_2 1_555 1_555
C26_2 C12_2 1_555 1_555
H14_2 C26_2 1_555 1_555
C27_2 C15_2 1_555 1_555
H15_2 C27_2 1_555 1_555
C6_2 C7_2 1_555 1_555
C21_2 C24_2 1_555 1_555
C22_2 C23_2 1_555 1_555
C24_2 C25_2 1_555 1_555
C26_2 C27_2 1_555 1_555
O2_2 La5_5 1_555 1_555
O4_5 La5_5 1_555 1_555
O7_2 La5_5 1_555 1_555
O10_2 La5_5 1_555 1_555
O4_6 La1 1_555 1_555
O8_2 La1 1_555 1_555
O10_3 La1 1_555 1_555
O4_6 H17_2 1_555 1_555
La1_2 O7_2 1_555 1_555
O7_2 C1_3 1_555 1_555
C1_3 O2_3 1_555 1_555
O2_3 La1_2 1_555 1_555
C2_3 C1_3 1_555 1_555
O12_2 C16_3 1_555 1_555
C3_3 C2_3 1_555 1_555
H1_3 C3_3 1_555 1_555
O4_7 La1_2 1_555 1_555
C4_3 C3_3 1_555 1_555
H2_3 C4_3 1_555 1_555
C5_3 C4_3 1_555 1_555
C6_3 C5_3 1_555 1_555
H3_3 C6_3 1_555 1_555
C7_3 C2_3 1_555 1_555
H4_3 C7_3 1_555 1_555
C8_3 C5_3 1_555 1_555
C9_3 C8_3 1_555 1_555
H5_3 C9_3 1_555 1_555
C10_3 C8_3 1_555 1_555
H6_3 C10_3 1_555 1_555
C11_3 C10_3 1_555 1_555
C12_3 C11_3 1_555 1_555
C13_3 C12_3 1_555 1_555
H7_3 C13_3 1_555 1_555
C14_3 C13_3 1_555 1_555
H8_3 C14_3 1_555 1_555
C15_3 C14_3 1_555 1_555
C16_3 C15_3 1_555 1_555
O8_2 C17_3 1_555 1_555
O7_3 La1_2 1_555 1_555
C18_3 C17_3 1_555 1_555
O13_3 La1_2 1_555 1_555
C19_3 C18_3 1_555 1_555
H9_3 C19_3 1_555 1_555
C20_3 C19_3 1_555 1_555
H10_3 C20_3 1_555 1_555
C21_3 C20_3 1_555 1_555
C22_3 C21_3 1_555 1_555
H11_3 C22_3 1_555 1_555
C23_3 C18_3 1_555 1_555
H12_3 C23_3 1_555 1_555
C24_3 C9_3 1_555 1_555
C25_3 C11_3 1_555 1_555
H13_3 C25_3 1_555 1_555
C26_3 C12_3 1_555 1_555
H14_3 C26_3 1_555 1_555
C27_3 C15_3 1_555 1_555
H15_3 C27_3 1_555 1_555
C6_3 C7_3 1_555 1_555
C21_3 C24_3 1_555 1_555
C22_3 C23_3 1_555 1_555
C24_3 C25_3 1_555 1_555
C26_3 C27_3 1_555 1_555
O4_7 H16_2 1_555 1_555
O4_8 La1_3 1_555 1_555
O8_3 La1_3 1_555 1_555
O8_4 La1_3 1_555 1_555
O10_4 La1_3 1_555 1_555
O12_3 La1_3 1_555 1_555
O4_8 H17_3 1_555 1_555
O2_4 La1_4 1_555 1_555
O4_9 La1_4 1_555 1_555
O7_4 La1_4 1_555 1_555
O4_9 H16_3 1_555 1_555
O7_3 C1_4 1_555 1_555
C2_4 C1_4 1_555 1_555
C3_4 C2_4 1_555 1_555
H1_4 C3_4 1_555 1_555
C4_4 C3_4 1_555 1_555
H2_4 C4_4 1_555 1_555
C5_4 C4_4 1_555 1_555
C6_4 C5_4 1_555 1_555
H3_4 C6_4 1_555 1_555
C7_4 C2_4 1_555 1_555
H4_4 C7_4 1_555 1_555
C8_4 C5_4 1_555 1_555
C9_4 C8_4 1_555 1_555
H5_4 C9_4 1_555 1_555
C10_4 C8_4 1_555 1_555
H6_4 C10_4 1_555 1_555
C11_4 C10_4 1_555 1_555
C12_4 C11_4 1_555 1_555
C13_4 C12_4 1_555 1_555
H7_4 C13_4 1_555 1_555
C14_4 C13_4 1_555 1_555
H8_4 C14_4 1_555 1_555
C15_4 C14_4 1_555 1_555
C16_4 C15_4 1_555 1_555
O8_3 C17_4 1_555 1_555
C18_4 C17_4 1_555 1_555
C19_4 C18_4 1_555 1_555
H9_4 C19_4 1_555 1_555
C20_4 C19_4 1_555 1_555
H10_4 C20_4 1_555 1_555
C21_4 C20_4 1_555 1_555
C22_4 C21_4 1_555 1_555
H11_4 C22_4 1_555 1_555
C23_4 C18_4 1_555 1_555
H12_4 C23_4 1_555 1_555
C24_4 C9_4 1_555 1_555
C25_4 C11_4 1_555 1_555
H13_4 C25_4 1_555 1_555
C26_4 C12_4 1_555 1_555
H14_4 C26_4 1_555 1_555
C27_4 C15_4 1_555 1_555
H15_4 C27_4 1_555 1_555
C6_4 C7_4 1_555 1_555
C21_4 C24_4 1_555 1_555
C22_4 C23_4 1_555 1_555
C24_4 C25_4 1_555 1_555
C26_4 C27_4 1_555 1_555
O2_5 La3 1_555 1_555
O4_10 La3 1_555 1_555
O8_4 La3 1_555 1_555
O7_5 La3 1_555 1_555
O10_5 La3 1_555 1_555
O7_4 C1_5 1_555 1_555
C2_5 C1_5 1_555 1_555
C3_5 C2_5 1_555 1_555
H1_5 C3_5 1_555 1_555
C4_5 C3_5 1_555 1_555
H2_5 C4_5 1_555 1_555
C5_5 C4_5 1_555 1_555
C6_5 C5_5 1_555 1_555
H3_5 C6_5 1_555 1_555
C7_5 C2_5 1_555 1_555
H4_5 C7_5 1_555 1_555
C8_5 C5_5 1_555 1_555
C9_5 C8_5 1_555 1_555
H5_5 C9_5 1_555 1_555
C10_5 C8_5 1_555 1_555
H6_5 C10_5 1_555 1_555
C11_5 C10_5 1_555 1_555
C12_5 C11_5 1_555 1_555
C13_5 C12_5 1_555 1_555
H7_5 C13_5 1_555 1_555
C14_5 C13_5 1_555 1_555
H8_5 C14_5 1_555 1_555
C15_5 C14_5 1_555 1_555
C16_5 C15_5 1_555 1_555
O8_4 C17_5 1_555 1_555
C17_5 O10_4 1_555 1_555
C18_5 C17_5 1_555 1_555
O13_4 C16_5 1_555 1_555
C19_5 C18_5 1_555 1_555
H9_5 C19_5 1_555 1_555
C20_5 C19_5 1_555 1_555
H10_5 C20_5 1_555 1_555
C21_5 C20_5 1_555 1_555
C22_5 C21_5 1_555 1_555
H11_5 C22_5 1_555 1_555
C23_5 C18_5 1_555 1_555
H12_5 C23_5 1_555 1_555
C24_5 C9_5 1_555 1_555
C25_5 C11_5 1_555 1_555
H13_5 C25_5 1_555 1_555
C26_5 C12_5 1_555 1_555
H14_5 C26_5 1_555 1_555
C27_5 C15_5 1_555 1_555
H15_5 C27_5 1_555 1_555
C6_5 C7_5 1_555 1_555
C21_5 C24_5 1_555 1_555
C22_5 C23_5 1_555 1_555
C24_5 C25_5 1_555 1_555
C26_5 C27_5 1_555 1_555
La4 O7_5 1_555 1_555
O7_5 C1_6 1_555 1_555
C1_6 O2_6 1_555 1_555
O2_6 La4 1_555 1_555
C2_6 C1_6 1_555 1_555
O3_3 C16_6 1_555 1_555
C3_6 C2_6 1_555 1_555
H1_6 C3_6 1_555 1_555
O4_11 La4 1_555 1_555
C4_6 C3_6 1_555 1_555
H2_6 C4_6 1_555 1_555
C5_6 C4_6 1_555 1_555
C6_6 C5_6 1_555 1_555
H3_6 C6_6 1_555 1_555
C7_6 C2_6 1_555 1_555
H4_6 C7_6 1_555 1_555
C8_6 C5_6 1_555 1_555
C9_6 C8_6 1_555 1_555
H5_6 C9_6 1_555 1_555
C10_6 C8_6 1_555 1_555
H6_6 C10_6 1_555 1_555
C11_6 C10_6 1_555 1_555
C12_6 C11_6 1_555 1_555
C13_6 C12_6 1_555 1_555
H7_6 C13_6 1_555 1_555
C14_6 C13_6 1_555 1_555
H8_6 C14_6 1_555 1_555
C15_6 C14_6 1_555 1_555
C16_6 C15_6 1_555 1_555
La4_2 O8_5 1_555 1_555
O8_5 C17_6 1_555 1_555
C18_6 C17_6 1_555 1_555
C19_6 C18_6 1_555 1_555
H9_6 C19_6 1_555 1_555
C20_6 C19_6 1_555 1_555
H10_6 C20_6 1_555 1_555
C21_6 C20_6 1_555 1_555
C22_6 C21_6 1_555 1_555
H11_6 C22_6 1_555 1_555
C23_6 C18_6 1_555 1_555
H12_6 C23_6 1_555 1_555
C24_6 C9_6 1_555 1_555
C25_6 C11_6 1_555 1_555
H13_6 C25_6 1_555 1_555
C26_6 C12_6 1_555 1_555
H14_6 C26_6 1_555 1_555
C27_6 C15_6 1_555 1_555
H15_6 C27_6 1_555 1_555
C6_6 C7_6 1_555 1_555
C21_6 C24_6 1_555 1_555
C22_6 C23_6 1_555 1_555
C24_6 C25_6 1_555 1_555
C26_6 C27_6 1_555 1_555
O4_11 H16_4 1_555 1_555
O4_12 La4_2 1_555 1_555
O4_12 H17_4 1_555 1_555
O4 H17_5 1_555 1_555
O4_3 H16_5 1_555 1_555
O4_6 H16_6 1_555 1_555
O4_7 H17_6 1_555 1_555
O4_11 H17_7 1_555 1_555
O4_12 H16_7 1_555 1_555
O4_8 H16_8 1_555 1_555
O4_9 H17_8 1_555 1_555

#END
