
###############################################################################
#
# This file contains modified crystal structure data generated from the
# MOF subset of the Cambridge Structural Database (CSD) v543 
# hosted by the Cambridge Crystallographic Data Centre (CCDC).
#
# This work is licensed under the Creative Commons
# Attribution-NonCommercial-ShareAlike 4.0 International License.
# To view a copy of this license, visit
# http://creativecommons.org/licenses/by-nc-sa/4.0/
# or send a letter to
# Creative Commons, PO Box 1866, Mountain View, CA 94042, USA.
#
# CIF created using the CSD Python API on 29 September 2022
# The structure has been converted into the P1 space group
# The structure has a 3D framework
# The original CSD entry FECXUI is in the monoclinic crystal system
# The framework has been calculated to contain at least 10.0% void space
# The void calculation uses a probe of radius 1.32A, grid spacing 0.4
# H atom positions have been added when not included in the experimental data
#
###############################################################################

data_FECXUI
_chemical_formula_moiety         '(C292 H172 O114 Zn30)n'
_symmetry_cell_setting           triclinic
_symmetry_space_group_name_H-M   'P 1'
_symmetry_Int_Tables_number      1
_space_group_name_Hall           'P 1'
loop_
_symmetry_equiv_pos_site_id
_symmetry_equiv_pos_as_xyz
1 x,y,z
_cell_length_a                   23.5793(2)
_cell_length_b                   18.62650(10)
_cell_length_c                   30.1227(2)
_cell_angle_alpha                90
_cell_angle_beta                 93.2230(10)
_cell_angle_gamma                90
_cell_volume                     13209
loop_
_atom_site_label
_atom_site_type_symbol
_atom_site_fract_x
_atom_site_fract_y
_atom_site_fract_z
Zn10 Zn 0.77807(5) 0.00557(7) 0.80240(4)
Zn1 Zn 0.35006(5) 0.42061(7) 0.38014(4)
Zn2 Zn 0.34251(5) 0.58000(7) 0.79906(4)
Zn3 Zn 0.41041(5) 0.49413(7) 0.30133(4)
Zn4 Zn 0.27807(5) 0.49443(7) 0.30240(4)
Zn7 Zn 0.34231(5) 0.41314(7) 0.80790(4)
Zn8 Zn 0.35000(6) 0.59758(7) 0.36958(4)
O1 O 0.3577(3) 0.5638(4) 0.4354(2)
O2 O 0.3356(3) 0.4318(4) 0.7431(2)
O3 O 0.4054(3) 0.6482(4) 0.8080(2)
O4 O 0.2901(3) 0.4906(4) 0.2389(2)
O5 O 0.2400(3) 0.4020(4) 0.3126(3)
O7 O 0.2737(3) 0.6360(5) 0.7946(3)
O8 O 0.3516(4) 0.5474(4) 0.7377(2)
O10 O 0.7175(3) 0.9392(5) 0.8118(3)
C1 C 0.3425(4) 0.4865(6) 0.7209(3)
C2 C 0.3780(4) 0.4844(7) 0.0999(3)
C3 C 0.3809(4) 0.4835(6) 0.1468(3)
H1 H 0.4160 0.4787 0.1622
C4 C 0.3497(5) 0.5331(7) 0.5998(3)
C5 C 0.3393(4) 0.4803(6) 0.6722(3)
C6 C 0.1073(5) 0.2051(6) 0.3526(4)
C7 C 0.0605(5) 0.1597(6) 0.3554(4)
H2 H 0.0639 0.1195 0.3736
C8 C 0.3490(4) 0.5181(6) 0.5064(3)
C9 C 0.5776(5) 0.8054(7) 0.8276(4)
C10 C 0.1983(4) 0.3026(6) 0.3451(3)
C11 C 0.5052(4) 0.3154(6) 0.3537(4)
C12 C 0.3376(5) 0.4594(6) 0.5328(3)
H3 H 0.3304 0.4149 0.5196
C13 C 0.5924(4) 0.2687(6) 0.3255(4)
O12 O 0.7357(5) 0.0809(7) 0.3702(4)
C14 C 0.3370(5) 0.4667(6) 0.5794(3)
C15 C 0.5453(4) 0.3154(6) 0.3211(4)
H4 H 0.5409 0.3459 0.2967
O13 O 0.7800(4) 0.1495(5) 0.3154(3)
C16 C 0.3624(6) 0.5929(6) 0.5717(4)
H5 H 0.3721 0.6370 0.5844
C17 C 0.6228(5) 0.8530(7) 0.8234(4)
H6 H 0.6187 0.8903 0.8029
C18 C 0.3510(5) 0.5380(6) 0.6461(3)
H7 H 0.3600 0.5817 0.6596
C19 C 0.5982(5) 0.2220(7) 0.3626(4)
C20 C 0.3243(6) 0.4053(7) 0.6066(4)
H8 H 0.3156 0.3611 0.5935
C21 C 0.1477(5) 0.3152(7) 0.3222(4)
H9 H 0.1442 0.3547 0.3033
C23 C 0.6806(5) 0.2265(8) 0.2991(4)
H10 H 0.7080 0.2279 0.2782
C24 C 0.4242(5) 0.4815(7) 0.0307(4)
C25 C 0.6350(5) 0.2691(8) 0.2942(4)
H11 H 0.6312 0.2996 0.2698
C26 C 0.1002(5) 0.2695(7) 0.3266(4)
C27 C 0.5414(5) 0.6947(7) 0.8590(4)
H12 H 0.5458 0.6569 0.8791
C28 C 0.1319(5) 0.7639(6) 0.7736(5)
H13 H 0.1240 0.7877 0.7468
C29 C 0.6726(5) 0.8467(8) 0.8482(4)
C30 C 0.1873(6) 0.6807(9) 0.8191(6)
C31 C 0.6456(6) 0.1753(8) 0.3657(5)
H14 H 0.6485 0.1415 0.3885
C32 C 0.0111(5) 0.1719(6) 0.3328(4)
C33 C 0.1774(5) 0.7168(7) 0.7778(5)
H15 H 0.2006 0.7089 0.7544
C34 C 0.4930(4) 0.6993(6) 0.8321(3)
C35 C 0.4283(4) 0.4780(6) 0.0755(3)
H16 H 0.4635 0.4715 0.0904
C36 C 0.5847(5) 0.7462(8) 0.8570(4)
C37 C 0.0976(5) 0.7760(7) 0.8098(5)
C38 C 0.3326(5) 0.4897(6) 0.1702(3)
C39 C 0.7211(5) 0.8967(9) 0.8439(4)
C40 C 0.5266(5) 0.8092(7) 0.8002(5)
H17 H 0.5214 0.8471 0.7803
C41 C 0.4854(5) 0.7590(7) 0.8024(4)
H18 H 0.4521 0.7632 0.7846
C42 C 0.5120(5) 0.2692(8) 0.3898(4)
H19 H 0.4848 0.2689 0.4110
C43 C 0.1076(7) 0.7398(10) 0.8487(6)
C44 C 0.0477(5) 0.2827(8) 0.3039(5)
H20 H 0.0432 0.3236 0.2863
C45 C 0.3601(5) 0.5854(7) 0.5267(4)
H21 H 0.3660 0.6253 0.5090
C47 C 0.0031(5) 0.2366(7) 0.3070(5)
C48 C 0.2051(5) 0.2403(7) 0.3722(5)
H23 H 0.2395 0.2319 0.3880
C49 C 0.3238(5) 0.4962(10) 0.0297(4)
H24 H 0.2890 0.5015 0.0139
C50 C 0.1614(5) 0.1927(7) 0.3754(5)
H25 H 0.1669 0.1516 0.3927
C51 C 0.0199(6) 0.8394(9) 0.8416(5)
C52 C 0.6381(6) 0.7372(10) 0.8819(5)
H26 H 0.6439 0.6976 0.9004
C53 C 0.3252(5) 0.4927(9) 0.0763(4)
C54 C 0.2359(8) 0.6284(9) 0.8226(7)
C55 C 0.5573(6) 0.2245(8) 0.3949(5)
H27 H 0.5615 0.1953 0.4199
C56 C 0.1548(8) 0.6922(12) 0.8534(7)
H28 H 0.1631 0.6691 0.8804
O16 O 0.3558(6) 0.7010(6) 0.3943(4)
C57 C 0.2759(5) 0.5009(12) 0.1016(4)
H29 H 0.2405 0.5060 0.0867
C58 C 0.0529(5) 0.8284(7) 0.8058(5)
H30 H 0.0463 0.8543 0.7797
C59 C 0.3254(6) 0.4132(7) 0.6516(4)
H31 H 0.3170 0.3741 0.6693
C60 C 0.2797(5) 0.5013(10) 0.1461(4)
H32 H 0.2473 0.5092 0.1615
C61 C 0.3712(5) 0.4920(9) 0.0076(4)
C62 C 0.0298(8) 0.7997(12) 0.8805(6)
H33 H 0.0064 0.8060 0.9040
C63 C 0.6876(6) 0.1789(8) 0.3360(5)
C64 C 0.0726(8) 0.7525(12) 0.8844(7)
H34 H 0.0794 0.7278 0.9109
C65 C 0.7364(7) 0.1291(11) 0.3393(5)
O17 O 0.3372(5) 0.6417(5) 0.2991(3)
C67 C 0.3778(14) 0.6821(14) 0.2736(9)
O18 O 0.4519(3) 0.4041(4) 0.3143(2)
O19 O 0.2386(8) 0.5864(11) 0.8537(8)
O20 O 0.3468(2) 0.4998(3) 0.33950(19)
O21 O 0.3441(3) 0.5021(4) 0.8412(2)
O22 O 0.3853(3) 0.4865(4) 0.2385(2)
O23 O 0.4201(3) 0.3641(4) 0.3780(2)
O24 O 0.2881(3) 0.3496(4) 0.3687(3)
O25 O 0.4569(3) 0.5945(4) 0.8626(3)
O26 O 0.3426(3) 0.4458(5) 0.4420(2)
C68 C 0.4481(4) 0.6433(5) 0.8344(3)
O27 O 0.7621(4) 0.8931(7) 0.8709(3)
C69 C 0.2459(4) 0.3551(6) 0.3419(3)
C70 C 0.3366(4) 0.4893(6) 0.2196(3)
C71 C 0.3501(4) 0.5095(6) 0.4567(3)
C72 C 0.4555(4) 0.3654(6) 0.3483(3)
C73 C 0.6796(6) 0.7861(10) 0.8784(6)
H35 H 0.7133 0.7810 0.8956
Zn12 Zn 0.28041(6) 0.50794(8) 0.88111(5)
Zn14 Zn 0.41528(5) 0.50607(7) 0.87587(4)
Zn15 Zn 0.84231(5) 0.08686(7) 0.30790(4)
Zn17 Zn 0.85000(6) 0.90242(7) 0.86958(4)
O31 O 0.2175(3) 0.5608(5) 0.3118(3)
O32 O 0.4697(3) 0.5658(5) 0.3039(3)
O33 O 0.2800(4) 0.3505(5) 0.8154(3)
O34 O 0.4150(4) 0.3620(5) 0.8151(3)
O35 O 0.8223(6) 0.0101(15) 0.4375(4)
O40 O 0.2621(4) 0.6069(7) 0.3709(3)
O41 O 0.4377(4) 0.6091(7) 0.3665(3)
H36 H 0.462311 0.476146 0.0121574
H37 H 0.392629 0.707105 0.41154
H38 H 0.353417 0.735716 0.369247
H41 H 0.415603 0.649624 0.269709
H42 H 0.358343 0.69522 0.240964
H43 H 0.389569 0.731423 0.291212
O9 O 0.4152(3) 0.5048(5) 0.9398(2)
O15 O 0.3223(6) 0.4899(15) 0.9375(4)
C66 C 0.3687(6) 0.4957(10) 0.9578(4)
Zn5 Zn 0.78041(6) 0.99206(8) 0.38111(5)
O29 O 0.7159(10) 0.973(2) 0.4255(7)
O36 O 0.7386(8) 0.9136(11) 0.3537(8)
O37 O 0.8441(3) 0.9979(4) 0.3412(2)
H39 H 0.678438 0.971816 0.40872
H40 H 0.722825 0.926229 0.440671
Zn9 Zn 0.91041(5) 0.00587(7) 0.80133(4)
O6 O 0.9698(3) 0.0683(4) 0.3604(3)
O11 O 0.9697(3) 0.9342(5) 0.8039(3)
O14 O 0.9150(4) 0.1380(5) 0.3151(3)
C22 C 0.9616(5) 0.1211(6) 0.3364(4)
C46 C 0.9723(6) 0.8924(8) 0.8370(4)
H22 H 0.9681 0.2467 0.2926
O28 O 0.9377(4) 0.8909(7) 0.8665(3)
Zn6 Zn 0.91528(5) 0.99393(7) 0.37587(4)
O30 O 0.9152(3) 0.9952(5) 0.4398(2)
O39 O 0.9569(3) 0.9055(4) 0.3626(3)
C11_2 C 0.0052(4) 0.1846(6) 0.8537(4)
C13_2 C 0.0924(4) 0.2313(6) 0.8255(4)
O12_2 O 0.2357(5) 0.4191(7) 0.8702(4)
C15_2 C 0.0453(4) 0.1846(6) 0.8211(4)
H4_2 H 0.0409 0.1541 0.7967
C19_2 C 0.0982(5) 0.2780(7) 0.8626(4)
C23_2 C 0.1806(5) 0.2735(8) 0.7991(4)
H10_2 H 0.2080 0.2721 0.7782
C25_2 C 0.1350(5) 0.2309(8) 0.7942(4)
H11_2 H 0.1312 0.2004 0.7698
C31_2 C 0.1456(6) 0.3247(8) 0.8657(5)
H14_2 H 0.1485 0.3585 0.8885
C42_2 C 0.0120(5) 0.2308(8) 0.8898(4)
C55_2 C 0.0573(6) 0.2755(8) 0.8949(5)
H27_2 H 0.0615 0.3047 0.9199
C63_2 C 0.1876(6) 0.3211(8) 0.8360(5)
C65_2 C 0.2364(7) 0.3709(11) 0.8393(5)
O29_2 O 0.2159(10) 0.527(2) 0.9255(7)
H39_2 H 0.178438 0.528184 0.90872
H40_2 H 0.222825 0.573771 0.940671
C9_2 C 0.0776(5) 0.6946(7) 0.3276(4)
C17_2 C 0.1228(5) 0.6470(7) 0.3234(4)
H6_2 H 0.1187 0.6097 0.3029
C27_2 C 0.0414(5) 0.8053(7) 0.3590(4)
H12_2 H 0.0458 0.8431 0.3791
C29_2 C 0.1726(5) 0.6533(8) 0.3482(4)
C36_2 C 0.0847(5) 0.7538(8) 0.3570(4)
C39_2 C 0.2211(5) 0.6033(9) 0.3439(4)
C40_2 C 0.0266(5) 0.6908(7) 0.3002(5)
H17_2 H 0.0214 0.6529 0.2803
C52_2 C 0.1381(6) 0.7628(10) 0.3819(5)
H26_2 H 0.1439 0.8024 0.4004
C73_2 C 0.1796(6) 0.7139(10) 0.3784(6)
H35_2 H 0.2133 0.7190 0.3956
O2_2 O 0.8356(3) 0.0682(4) 0.2431(2)
C1_2 C 0.8425(4) 0.0135(6) 0.2209(3)
C5_2 C 0.8393(4) 0.0197(6) 0.1722(3)
C12_2 C 0.8376(5) 0.0406(6) 0.0328(3)
H3_2 H 0.8304 0.0851 0.0196
C14_2 C 0.8370(5) 0.0333(6) 0.0794(3)
C20_2 C 0.8243(6) 0.0947(7) 0.1066(4)
H8_2 H 0.8156 0.1389 0.0935
C59_2 C 0.8254(6) 0.0868(7) 0.1516(4)
H31_2 H 0.8170 0.1259 0.1693
Zn1_2 Zn 0.85006(5) 0.07939(7) 0.88014(4)
O4_2 O 0.7901(3) 0.0094(4) 0.7389(2)
O5_2 O 0.7400(3) 0.0980(4) 0.8126(3)
O6_2 O 0.4698(3) 0.4317(4) 0.8604(3)
C2_2 C 0.8780(4) 0.0156(7) 0.5999(3)
C3_2 C 0.8809(4) 0.0165(6) 0.6468(3)
H1_2 H 0.9160 0.0213 0.6622
C6_2 C 0.6073(5) 0.2949(6) 0.8526(4)
C7_2 C 0.5605(5) 0.3403(6) 0.8554(4)
H2_2 H 0.5639 0.3805 0.8736
C10_2 C 0.6983(4) 0.1974(6) 0.8451(3)
C21_2 C 0.6477(5) 0.1848(7) 0.8222(4)
H9_2 H 0.6442 0.1453 0.8033
C22_2 C 0.4616(5) 0.3789(6) 0.8364(4)
C24_2 C 0.9242(5) 0.0185(7) 0.5307(4)
C26_2 C 0.6002(5) 0.2305(7) 0.8266(4)
C32_2 C 0.5111(5) 0.3281(6) 0.8328(4)
C35_2 C 0.9283(4) 0.0220(6) 0.5755(3)
H16_2 H 0.9635 0.0285 0.5904
C38_2 C 0.8326(5) 0.0103(6) 0.6702(3)
H19_2 H 0.9848 0.2311 0.9110
C44_2 C 0.5477(5) 0.2173(8) 0.8039(5)
H20_2 H 0.5432 0.1764 0.7863
C47_2 C 0.5031(5) 0.2634(7) 0.8070(5)
H22_2 H 0.4681 0.2533 0.7926
C48_2 C 0.7051(5) 0.2597(7) 0.8722(5)
H23_2 H 0.7395 0.2681 0.8880
C49_2 C 0.8238(5) 0.0038(10) 0.5297(4)
C50_2 C 0.6614(5) 0.3073(7) 0.8754(5)
H25_2 H 0.6669 0.3484 0.8927
C53_2 C 0.8252(5) 0.0073(9) 0.5763(4)
C61_2 C 0.8712(5) 0.0080(9) 0.5076(4)
C66_2 C 0.8687(6) 0.0043(10) 0.4578(4)
O18_2 O 0.9519(3) 0.0959(4) 0.8143(2)
O20_2 O 0.8468(2) 0.0002(3) 0.83950(19)
O22_2 O 0.8853(3) 0.0135(4) 0.7385(2)
O23_2 O 0.9201(3) 0.1359(4) 0.8780(2)
O24_2 O 0.7881(3) 0.1504(4) 0.8687(3)
O26_2 O 0.8426(3) 0.0542(5) 0.9420(2)
C69_2 C 0.7459(4) 0.1449(6) 0.8419(3)
C70_2 C 0.8366(4) 0.0107(6) 0.7196(3)
C72_2 C 0.9555(4) 0.1346(6) 0.8483(3)
H36_2 H 0.962311 0.0238538 0.512157
Zn2_2 Zn 0.84251(5) 0.92000(7) 0.29906(4)
O3_2 O 0.9054(3) 0.8518(4) 0.3080(2)
O7_2 O 0.7737(3) 0.8640(5) 0.2946(3)
O8_2 O 0.8516(4) 0.9526(4) 0.2377(2)
C4_2 C 0.8497(5) 0.9669(7) 0.0998(3)
C8_2 C 0.8490(4) 0.9819(6) 0.0064(3)
C16_2 C 0.8624(6) 0.9071(6) 0.0717(4)
H5_2 H 0.8721 0.8630 0.0844
C18_2 C 0.8510(5) 0.9620(6) 0.1461(3)
H7_2 H 0.8600 0.9183 0.1596
C28_2 C 0.6319(5) 0.7361(6) 0.2736(5)
H13_2 H 0.6240 0.7123 0.2468
C30_2 C 0.6873(6) 0.8193(9) 0.3191(6)
C33_2 C 0.6774(5) 0.7832(7) 0.2778(5)
H15_2 H 0.7006 0.7911 0.2544
C34_2 C 0.9930(4) 0.8007(6) 0.3321(3)
C37_2 C 0.5976(5) 0.7240(7) 0.3098(5)
C41_2 C 0.9854(5) 0.7410(7) 0.3024(4)
H18_2 H 0.9521 0.7368 0.2846
C43_2 C 0.6076(7) 0.7602(10) 0.3487(6)
C45_2 C 0.8601(5) 0.9146(7) 0.0267(4)
H21_2 H 0.8660 0.8747 0.0090
C46_2 C 0.4723(6) 0.6076(8) 0.3370(4)
C51_2 C 0.5199(6) 0.6606(9) 0.3416(5)
C54_2 C 0.7359(8) 0.8716(9) 0.3226(7)
C56_2 C 0.6548(8) 0.8078(12) 0.3534(7)
H28_2 H 0.6631 0.8309 0.3804
C58_2 C 0.5529(5) 0.6716(7) 0.3058(5)
H30_2 H 0.5463 0.6457 0.2797
C62_2 C 0.5298(8) 0.7003(12) 0.3805(6)
H33_2 H 0.5064 0.6940 0.4040
C64_2 C 0.5726(8) 0.7475(12) 0.3844(7)
H34_2 H 0.5794 0.7722 0.4109
C68_2 C 0.9481(4) 0.8567(5) 0.3344(3)
O1_2 O 0.8577(3) 0.9362(4) 0.9354(2)
H24_2 H 0.7890 0.9985 0.5139
O16_2 O 0.8558(6) 0.7990(6) 0.8943(4)
C57_2 C 0.7759(5) 0.9991(12) 0.6016(4)
H29_2 H 0.7405 0.9940 0.5867
C60_2 C 0.7797(5) 0.9987(10) 0.6461(4)
H32_2 H 0.7473 0.9908 0.6615
O17_2 O 0.8372(5) 0.8583(5) 0.7991(3)
C67_2 C 0.8778(14) 0.8179(14) 0.7736(9)
C71_2 C 0.8501(4) 0.9905(6) 0.9567(3)
H37_2 H 0.892629 0.792895 0.91154
H38_2 H 0.853417 0.764284 0.869247
H41_2 H 0.915603 0.850376 0.769709
H42_2 H 0.858343 0.80478 0.740964
H43_2 H 0.889569 0.768577 0.791212
Zn8_2 Zn 0.15000(6) 0.09758(7) 0.13042(4)
O1_3 O 0.1423(3) 0.0638(4) 0.0646(2)
O9_2 O 0.0848(3) 0.0048(5) 0.5602(2)
H24_3 H 0.2110 0.0015 0.4861
O16_3 O 0.1442(6) 0.2010(6) 0.1057(4)
C57_3 C 0.2241(5) 0.0009(12) 0.3984(4)
H29_3 H 0.2595 0.0060 0.4133
C60_3 C 0.2203(5) 0.0013(10) 0.3539(4)
H32_3 H 0.2527 0.0092 0.3385
O17_3 O 0.1628(5) 0.1417(5) 0.2009(3)
C67_3 C 0.1222(14) 0.1821(14) 0.2264(9)
C71_3 C 0.1499(4) 0.0095(6) 0.0433(3)
Zn11 Zn 0.21959(6) 0.00794(8) 0.61889(5)
Zn13 Zn 0.08472(5) 0.00607(7) 0.62413(4)
O31_2 O 0.2825(3) 0.0608(5) 0.1882(3)
O32_2 O 0.0303(3) 0.0658(5) 0.1961(3)
O40_2 O 0.2379(4) 0.1069(7) 0.1291(3)
O41_2 O 0.0623(4) 0.1091(7) 0.1335(3)
H37_3 H 0.107371 0.207105 0.0884601
H38_3 H 0.146583 0.235716 0.130753
H41_3 H 0.0843974 0.149624 0.230291
H42_3 H 0.141657 0.19522 0.259036
H43_3 H 0.110431 0.231423 0.208788
Zn2_3 Zn 0.15749(5) 0.08000(7) 0.70094(4)
O3_3 O 0.0946(3) 0.1482(4) 0.6920(2)
O7_3 O 0.2263(3) 0.1360(5) 0.7054(3)
O8_3 O 0.1484(4) 0.0474(4) 0.7623(2)
O11_2 O 0.5303(3) 0.4342(5) 0.6961(3)
C4_3 C 0.1503(5) 0.0331(7) 0.9002(3)
C8_3 C 0.1510(4) 0.0181(6) 0.9936(3)
C16_3 C 0.1376(6) 0.0929(6) 0.9283(4)
H5_3 H 0.1279 0.1370 0.9156
C18_3 C 0.1490(5) 0.0380(6) 0.8539(3)
H7_3 H 0.1400 0.0817 0.8404
C28_3 C 0.3681(5) 0.2639(6) 0.7264(5)
H13_3 H 0.3760 0.2877 0.7532
C30_3 C 0.3127(6) 0.1807(9) 0.6809(6)
C33_3 C 0.3226(5) 0.2168(7) 0.7222(5)
H15_3 H 0.2994 0.2089 0.7456
C34_3 C 0.0070(4) 0.1993(6) 0.6679(3)
C37_3 C 0.4024(5) 0.2760(7) 0.6902(5)
C41_3 C 0.0146(5) 0.2590(7) 0.6976(4)
H18_3 H 0.0479 0.2632 0.7154
C43_3 C 0.3924(7) 0.2398(10) 0.6513(6)
C45_3 C 0.1399(5) 0.0854(7) 0.9733(4)
H21_3 H 0.1340 0.1253 0.9910
C46_3 C 0.5277(6) 0.3924(8) 0.6630(4)
C51_3 C 0.4801(6) 0.3394(9) 0.6584(5)
C54_3 C 0.2641(8) 0.1284(9) 0.6774(7)
C56_3 C 0.3452(8) 0.1922(12) 0.6466(7)
H28_3 H 0.3369 0.1691 0.6196
C58_3 C 0.4471(5) 0.3284(7) 0.6942(5)
H30_3 H 0.4537 0.3543 0.7203
C62_3 C 0.4702(8) 0.2997(12) 0.6195(6)
H33_3 H 0.4936 0.3060 0.5960
C64_3 C 0.4274(8) 0.2525(12) 0.6156(7)
H34_3 H 0.4206 0.2278 0.5891
O19_2 O 0.2614(8) 0.0864(11) 0.6463(8)
O21_2 O 0.1559(3) 0.0021(4) 0.6588(2)
O25_2 O 0.0431(3) 0.0945(4) 0.6374(3)
C68_3 C 0.0519(4) 0.1433(5) 0.6656(3)
O28_2 O 0.5623(4) 0.3909(7) 0.6335(3)
Zn9_2 Zn 0.58959(5) 0.50587(7) 0.69867(4)
Zn18 Zn 0.65000(6) 0.40242(7) 0.63042(4)
Zn1_3 Zn 0.14994(5) 0.92061(7) 0.11986(4)
Zn3_2 Zn 0.08959(5) 0.99413(7) 0.19867(4)
Zn4_2 Zn 0.22193(5) 0.99443(7) 0.19760(4)
Zn6_2 Zn 0.58472(5) 0.49393(7) 0.12413(4)
O4_3 O 0.2099(3) 0.9906(4) 0.2611(2)
O5_3 O 0.2600(3) 0.9020(4) 0.1874(3)
O6_3 O 0.5302(3) 0.5683(4) 0.1396(3)
C2_3 C 0.1220(4) 0.9844(7) 0.4001(3)
C3_3 C 0.1191(4) 0.9835(6) 0.3532(3)
H1_3 H 0.0840 0.9787 0.3378
C6_3 C 0.3927(5) 0.7051(6) 0.1474(4)
C7_3 C 0.4395(5) 0.6597(6) 0.1446(4)
H2_3 H 0.4361 0.6195 0.1264
C10_3 C 0.3017(4) 0.8026(6) 0.1549(3)
O14_2 O 0.5850(4) 0.6380(5) 0.1849(3)
O15_2 O 0.1777(6) 0.9899(15) 0.5625(4)
C21_3 C 0.3523(5) 0.8152(7) 0.1778(4)
H9_3 H 0.3558 0.8547 0.1967
C22_3 C 0.5384(5) 0.6211(6) 0.1636(4)
C24_3 C 0.0758(5) 0.9815(7) 0.4693(4)
C26_3 C 0.3998(5) 0.7695(7) 0.1734(4)
C32_3 C 0.4889(5) 0.6719(6) 0.1672(4)
C35_3 C 0.0717(4) 0.9780(6) 0.4245(3)
H16_3 H 0.0365 0.9715 0.4096
C38_3 C 0.1674(5) 0.9897(6) 0.3298(3)
H19_3 H 0.0152 0.7689 0.0890
C44_3 C 0.4523(5) 0.7827(8) 0.1961(5)
H20_3 H 0.4568 0.8236 0.2137
C47_3 C 0.4969(5) 0.7366(7) 0.1930(5)
H22_3 H 0.5319 0.7467 0.2074
C48_3 C 0.2949(5) 0.7403(7) 0.1278(5)
H23_3 H 0.2605 0.7319 0.1120
C49_3 C 0.1762(5) 0.9962(10) 0.4703(4)
C50_3 C 0.3386(5) 0.6927(7) 0.1246(5)
H25_3 H 0.3331 0.6516 0.1073
C53_3 C 0.1748(5) 0.9927(9) 0.4237(4)
C61_3 C 0.1288(5) 0.9920(9) 0.4924(4)
C66_3 C 0.1313(6) 0.9957(10) 0.5422(4)
O18_3 O 0.0481(3) 0.9041(4) 0.1857(2)
O20_3 O 0.1532(2) 0.9998(3) 0.16050(19)
O22_3 O 0.1147(3) 0.9865(4) 0.2615(2)
O23_3 O 0.0799(3) 0.8641(4) 0.1220(2)
O24_3 O 0.2119(3) 0.8496(4) 0.1313(3)
O26_3 O 0.1574(3) 0.9458(5) 0.0580(2)
C69_3 C 0.2541(4) 0.8551(6) 0.1581(3)
C70_3 C 0.1634(4) 0.9893(6) 0.2804(3)
C72_3 C 0.0445(4) 0.8654(6) 0.1517(3)
Zn16 Zn 0.65769(5) 0.58686(7) 0.19210(4)
O30_2 O 0.5848(3) 0.4952(5) 0.0602(2)
O38 O 0.6559(3) 0.4979(4) 0.1588(2)
O39_2 O 0.5431(3) 0.4055(4) 0.1374(3)
H36_3 H 0.0376886 0.976146 0.487843
Zn7_2 Zn 0.15769(5) 0.91314(7) 0.69210(4)
O2_3 O 0.1644(3) 0.9318(4) 0.7569(2)
C1_3 C 0.1575(4) 0.9865(6) 0.7791(3)
C5_3 C 0.1607(4) 0.9803(6) 0.8278(3)
C12_3 C 0.1624(5) 0.9594(6) 0.9672(3)
H3_3 H 0.1696 0.9149 0.9804
C14_3 C 0.1630(5) 0.9667(6) 0.9206(3)
C20_3 C 0.1757(6) 0.9053(7) 0.8934(4)
H8_3 H 0.1844 0.8611 0.9065
C59_3 C 0.1746(6) 0.9132(7) 0.8484(4)
H31_3 H 0.1830 0.8741 0.8307
O33_2 O 0.2200(4) 0.8505(5) 0.6846(3)
O34_2 O 0.0850(4) 0.8620(5) 0.6849(3)
O10_2 O 0.7825(3) 0.4392(5) 0.6882(3)
C9_3 C 0.9224(5) 0.3054(7) 0.6724(4)
C17_3 C 0.8772(5) 0.3530(7) 0.6766(4)
H6_3 H 0.8813 0.3903 0.6971
C27_3 C 0.9586(5) 0.1947(7) 0.6410(4)
H12_3 H 0.9542 0.1569 0.6209
C29_3 C 0.8274(5) 0.3467(8) 0.6518(4)
C36_3 C 0.9153(5) 0.2462(8) 0.6430(4)
C39_3 C 0.7789(5) 0.3967(9) 0.6561(4)
C40_3 C 0.9734(5) 0.3092(7) 0.6998(5)
H17_3 H 0.9786 0.3471 0.7197
C52_3 C 0.8619(6) 0.2372(10) 0.6181(5)
H26_3 H 0.8561 0.1976 0.5996
O27_2 O 0.7379(4) 0.3931(7) 0.6291(3)
C73_3 C 0.8204(6) 0.2861(10) 0.6216(6)
H35_3 H 0.7867 0.2810 0.6044
Zn10_2 Zn 0.72193(5) 0.50557(7) 0.69760(4)
Zn5_2 Zn 0.71959(6) 0.49206(8) 0.11889(5)
C11_3 C 0.9948(4) 0.8154(6) 0.1463(4)
C13_3 C 0.9076(4) 0.7687(6) 0.1745(4)
O12_3 O 0.7643(5) 0.5809(7) 0.1298(4)
C15_3 C 0.9547(4) 0.8154(6) 0.1789(4)
H4_3 H 0.9591 0.8459 0.2033
O13_2 O 0.7200(4) 0.6495(5) 0.1846(3)
C19_3 C 0.9018(5) 0.7220(7) 0.1374(4)
C23_3 C 0.8194(5) 0.7265(8) 0.2009(4)
H10_3 H 0.7920 0.7279 0.2218
C25_3 C 0.8650(5) 0.7691(8) 0.2058(4)
H11_3 H 0.8688 0.7996 0.2302
C31_3 C 0.8544(6) 0.6753(8) 0.1343(5)
H14_3 H 0.8515 0.6415 0.1115
C42_3 C 0.9880(5) 0.7692(8) 0.1102(4)
C55_3 C 0.9427(6) 0.7245(8) 0.1051(5)
H27_3 H 0.9385 0.6953 0.0801
C63_3 C 0.8124(6) 0.6789(8) 0.1640(5)
C65_3 C 0.7636(7) 0.6291(11) 0.1607(5)
O29_3 O 0.7841(10) 0.473(2) 0.0745(7)
O35_2 O 0.6777(6) 0.5101(15) 0.0625(4)
O36_2 O 0.7614(8) 0.4136(11) 0.1463(8)
H39_3 H 0.821562 0.471816 0.0912804
H40_3 H 0.777175 0.426229 0.0593294
O6_4 O 0.0302(3) 0.9317(4) 0.6396(3)
C22_4 C 0.0384(5) 0.8789(6) 0.6636(4)
C46_4 C 0.0277(6) 0.1076(8) 0.1630(4)
H22_4 H 0.0319 0.7533 0.7074
O29_4 O 0.2841(10) 0.027(2) 0.5745(7)
H39_4 H 0.321562 0.028184 0.59128
H40_4 H 0.277175 0.0737707 0.559329
C66_4 C 0.6313(6) 0.5043(10) 0.0422(4)
Zn1_4 Zn 0.64994(5) 0.57939(7) 0.61986(4)
Zn2_4 Zn 0.65749(5) 0.42000(7) 0.20094(4)
O1_4 O 0.6423(3) 0.4362(4) 0.5646(2)
O2_4 O 0.6644(3) 0.5682(4) 0.2569(2)
O3_4 O 0.5946(3) 0.3518(4) 0.1920(2)
O4_4 O 0.7099(3) 0.5094(4) 0.7611(2)
O5_4 O 0.7600(3) 0.5980(4) 0.6874(3)
O7_4 O 0.7263(3) 0.3640(5) 0.2054(3)
O8_4 O 0.6484(4) 0.4526(4) 0.2623(2)
C1_4 C 0.6575(4) 0.5135(6) 0.2791(3)
C2_4 C 0.6220(4) 0.5156(7) 0.9001(3)
C3_4 C 0.6191(4) 0.5165(6) 0.8532(3)
H1_4 H 0.5840 0.5213 0.8378
C4_4 C 0.6503(5) 0.4669(7) 0.4002(3)
C5_4 C 0.6607(4) 0.5197(6) 0.3278(3)
C6_4 C 0.8927(5) 0.7949(6) 0.6474(4)
C7_4 C 0.9395(5) 0.8403(6) 0.6446(4)
H2_4 H 0.9361 0.8805 0.6264
C8_4 C 0.6510(4) 0.4819(6) 0.4936(3)
C9_4 C 0.4224(5) 0.1946(7) 0.1724(4)
C10_4 C 0.8017(4) 0.6974(6) 0.6549(3)
C11_4 C 0.4948(4) 0.6846(6) 0.6463(4)
C12_4 C 0.6624(5) 0.5406(6) 0.4672(3)
H3_4 H 0.6696 0.5851 0.4804
C13_4 C 0.4076(4) 0.7313(6) 0.6745(4)
O12_4 O 0.2643(5) 0.9191(7) 0.6298(4)
C14_4 C 0.6630(5) 0.5333(6) 0.4206(3)
C15_4 C 0.4547(4) 0.6846(6) 0.6789(4)
H4_4 H 0.4591 0.6541 0.7033
C16_4 C 0.6376(6) 0.4071(6) 0.4283(4)
H5_4 H 0.6279 0.3630 0.4156
C17_4 C 0.3772(5) 0.1470(7) 0.1766(4)
H6_4 H 0.3813 0.1097 0.1971
C18_4 C 0.6490(5) 0.4620(6) 0.3539(3)
H7_4 H 0.6400 0.4183 0.3404
C19_4 C 0.4018(5) 0.7780(7) 0.6374(4)
C20_4 C 0.6757(6) 0.5947(7) 0.3934(4)
H8_4 H 0.6844 0.6389 0.4065
C21_4 C 0.8523(5) 0.6848(7) 0.6778(4)
H9_4 H 0.8558 0.6453 0.6967
C23_4 C 0.3194(5) 0.7735(8) 0.7009(4)
H10_4 H 0.2920 0.7721 0.7218
C24_4 C 0.5758(5) 0.5185(7) 0.9693(4)
C25_4 C 0.3650(5) 0.7309(8) 0.7058(4)
H11_4 H 0.3688 0.7004 0.7302
C26_4 C 0.8998(5) 0.7305(7) 0.6734(4)
C27_4 C 0.4586(5) 0.3053(7) 0.1410(4)
H12_4 H 0.4542 0.3431 0.1209
C28_4 C 0.8681(5) 0.2361(6) 0.2264(5)
H13_4 H 0.8760 0.2123 0.2532
C29_4 C 0.3274(5) 0.1533(8) 0.1518(4)
C30_4 C 0.8127(6) 0.3193(9) 0.1809(6)
C31_4 C 0.3544(6) 0.8247(8) 0.6343(5)
H14_4 H 0.3515 0.8585 0.6115
C32_4 C 0.9889(5) 0.8281(6) 0.6672(4)
C33_4 C 0.8226(5) 0.2832(7) 0.2222(5)
H15_4 H 0.7994 0.2911 0.2456
C34_4 C 0.5070(4) 0.3007(6) 0.1679(3)
C35_4 C 0.5717(4) 0.5220(6) 0.9245(3)
H16_4 H 0.5365 0.5285 0.9096
C36_4 C 0.4153(5) 0.2538(8) 0.1430(4)
C37_4 C 0.9024(5) 0.2240(7) 0.1902(5)
C38_4 C 0.6674(5) 0.5103(6) 0.8298(3)
C39_4 C 0.2789(5) 0.1033(9) 0.1561(4)
C40_4 C 0.4734(5) 0.1908(7) 0.1998(5)
H17_4 H 0.4786 0.1529 0.2197
C41_4 C 0.5146(5) 0.2410(7) 0.1976(4)
H18_4 H 0.5479 0.2368 0.2154
C42_4 C 0.4880(5) 0.7308(8) 0.6102(4)
H19_4 H 0.5152 0.7311 0.5890
C43_4 C 0.8924(7) 0.2602(10) 0.1513(6)
C44_4 C 0.9523(5) 0.7173(8) 0.6961(5)
H20_4 H 0.9568 0.6764 0.7137
C45_4 C 0.6399(5) 0.4146(7) 0.4733(4)
H21_4 H 0.6340 0.3747 0.4910
C47_4 C 0.9969(5) 0.7634(7) 0.6930(5)
C48_4 C 0.7949(5) 0.7597(7) 0.6278(5)
H23_4 H 0.7605 0.7681 0.6120
C49_4 C 0.6762(5) 0.5038(10) 0.9703(4)
H24_4 H 0.7110 0.4985 0.9861
C50_4 C 0.8386(5) 0.8073(7) 0.6246(5)
H25_4 H 0.8331 0.8484 0.6073
C51_4 C 0.9801(6) 0.1606(9) 0.1584(5)
C52_4 C 0.3619(6) 0.2628(10) 0.1181(5)
H26_4 H 0.3561 0.3024 0.0996
C53_4 C 0.6748(5) 0.5073(9) 0.9237(4)
C54_4 C 0.7641(8) 0.3716(9) 0.1774(7)
C55_4 C 0.4427(6) 0.7755(8) 0.6051(5)
H27_4 H 0.4385 0.8047 0.5801
C56_4 C 0.8452(8) 0.3078(12) 0.1466(7)
H28_4 H 0.8369 0.3309 0.1196
O16_4 O 0.6442(6) 0.2990(6) 0.6057(4)
C57_4 C 0.7241(5) 0.4991(12) 0.8984(4)
H29_4 H 0.7595 0.4940 0.9133
C58_4 C 0.9471(5) 0.1716(7) 0.1942(5)
H30_4 H 0.9537 0.1457 0.2203
C59_4 C 0.6746(6) 0.5868(7) 0.3484(4)
H31_4 H 0.6830 0.6259 0.3307
C60_4 C 0.7203(5) 0.4987(10) 0.8539(4)
H32_4 H 0.7527 0.4908 0.8385
C61_4 C 0.6288(5) 0.5080(9) 0.9924(4)
C62_4 C 0.9702(8) 0.2003(12) 0.1195(6)
H33_4 H 0.9936 0.1940 0.0960
C63_4 C 0.3124(6) 0.8211(8) 0.6640(5)
C64_4 C 0.9274(8) 0.2475(12) 0.1156(7)
H34_4 H 0.9206 0.2722 0.0891
C65_4 C 0.2636(7) 0.8709(11) 0.6607(5)
O17_4 O 0.6628(5) 0.3583(5) 0.7009(3)
C67_4 C 0.6222(14) 0.3179(14) 0.7264(9)
O18_4 O 0.5481(3) 0.5959(4) 0.6857(2)
O20_4 O 0.6532(2) 0.5002(3) 0.66050(19)
O22_4 O 0.6147(3) 0.5135(4) 0.7615(2)
O23_4 O 0.5799(3) 0.6359(4) 0.6220(2)
O24_4 O 0.7119(3) 0.6504(4) 0.6313(3)
O26_4 O 0.6574(3) 0.5542(5) 0.5580(2)
C68_4 C 0.5519(4) 0.3567(5) 0.1656(3)
C69_4 C 0.7541(4) 0.6449(6) 0.6581(3)
C70_4 C 0.6634(4) 0.5107(6) 0.7804(3)
C71_4 C 0.6499(4) 0.4905(6) 0.5433(3)
C72_4 C 0.5445(4) 0.6346(6) 0.6517(3)
C73_4 C 0.3204(6) 0.2139(10) 0.1216(6)
H35_4 H 0.2867 0.2190 0.1044
H36_4 H 0.537689 0.523854 0.987843
H37_4 H 0.607371 0.292895 0.58846
H38_4 H 0.646583 0.264284 0.630753
H41_4 H 0.584397 0.350376 0.730291
H42_4 H 0.641657 0.30478 0.759036
H43_4 H 0.610431 0.268577 0.708788
loop_
_geom_bond_atom_site_label_1
_geom_bond_atom_site_label_2
_geom_bond_site_symmetry_1
_geom_bond_site_symmetry_2
Zn1 O20 1_555 1_555
Zn2 O3 1_555 1_555
Zn3 O18 1_555 1_555
Zn4 O4 1_555 1_555
Zn7 O2 1_555 1_555
Zn8 O1 1_555 1_555
O1 C71 1_555 1_555
O2 C1 1_555 1_555
O3 C68 1_555 1_555
O4 C70 1_555 1_555
O5 Zn4 1_555 1_555
O7 Zn2 1_555 1_555
O8 Zn2 1_555 1_555
O10 C39 1_555 1_555
C1 O8 1_555 1_555
C2 C3 1_555 1_555
C3 H1 1_555 1_555
C4 C14 1_555 1_555
C5 C1 1_555 1_555
C6 C7 1_555 1_555
C7 H2 1_555 1_555
C8 C12 1_555 1_555
C9 C17 1_555 1_555
C10 C21 1_555 1_555
C11 C15 1_555 1_555
C12 H3 1_555 1_555
C13 C15 1_555 1_555
O12 C65 1_555 1_555
C14 C12 1_555 1_555
C15 H4 1_555 1_555
O13 C65 1_555 1_555
C16 C4 1_555 1_555
H5 C16 1_555 1_555
C17 H6 1_555 1_555
C18 C4 1_555 1_555
H7 C18 1_555 1_555
C19 C13 1_555 1_555
C20 C14 1_555 1_555
H8 C20 1_555 1_555
C21 H9 1_555 1_555
C23 H10 1_555 1_555
C24 C35 1_555 1_555
C25 C13 1_555 1_555
H11 C25 1_555 1_555
C26 C6 1_555 1_555
C27 H12 1_555 1_555
C28 H13 1_555 1_555
C29 C17 1_555 1_555
C30 C33 1_555 1_555
C31 C19 1_555 1_555
H14 C31 1_555 1_555
C32 C7 1_555 1_555
C33 C28 1_555 1_555
H15 C33 1_555 1_555
C34 C27 1_555 1_555
C35 C2 1_555 1_555
H16 C35 1_555 1_555
C36 C9 1_555 1_555
C37 C28 1_555 1_555
C38 C3 1_555 1_555
C39 C29 1_555 1_555
C40 C9 1_555 1_555
H17 C40 1_555 1_555
C41 C34 1_555 1_555
H18 C41 1_555 1_555
C42 C11 1_555 1_555
H19 C42 1_555 1_555
C43 C37 1_555 1_555
C44 C26 1_555 1_555
H20 C44 1_555 1_555
C45 C8 1_555 1_555
H21 C45 1_555 1_555
C47 C32 1_555 1_555
C48 C10 1_555 1_555
H23 C48 1_555 1_555
C49 H24 1_555 1_555
C50 C6 1_555 1_555
H25 C50 1_555 1_555
C51 C58 1_555 1_555
C52 C36 1_555 1_555
H26 C52 1_555 1_555
C53 C2 1_555 1_555
C54 O7 1_555 1_555
C55 C19 1_555 1_555
H27 C55 1_555 1_555
C56 C30 1_555 1_555
H28 C56 1_555 1_555
O16 Zn8 1_555 1_555
C57 C53 1_555 1_555
H29 C57 1_555 1_555
C58 C37 1_555 1_555
H30 C58 1_555 1_555
C59 C5 1_555 1_555
H31 C59 1_555 1_555
C60 C38 1_555 1_555
H32 C60 1_555 1_555
C61 C24 1_555 1_555
C62 C51 1_555 1_555
H33 C62 1_555 1_555
C63 C23 1_555 1_555
C64 C43 1_555 1_555
H34 C64 1_555 1_555
C65 C63 1_555 1_555
O17 Zn8 1_555 1_555
C67 O17 1_555 1_555
O18 C72 1_555 1_555
O19 C54 1_555 1_555
O20 Zn3 1_555 1_555
O21 Zn2 1_555 1_555
O22 Zn3 1_555 1_555
O23 Zn1 1_555 1_555
O24 Zn1 1_555 1_555
O25 C68 1_555 1_555
O26 Zn1 1_555 1_555
C68 C34 1_555 1_555
O27 C39 1_555 1_555
C69 O5 1_555 1_555
C70 C38 1_555 1_555
C71 C8 1_555 1_555
C72 C11 1_555 1_555
C73 C29 1_555 1_555
H35 C73 1_555 1_555
Zn12 O19 1_555 1_555
Zn14 O21 1_555 1_555
Zn15 O13 1_555 1_555
Zn17 O27 1_555 1_555
O31 Zn4 1_555 1_555
O32 Zn3 1_555 1_555
O33 Zn7 1_555 1_555
O34 Zn7 1_555 1_555
O40 Zn8 1_555 1_555
O41 Zn8 1_555 1_555
Zn4 O20 1_555 1_555
Zn7 O21 1_555 1_555
Zn8 O20 1_555 1_555
C5 C18 1_555 1_555
C10 C69 1_555 1_555
C16 C45 1_555 1_555
C20 C59 1_555 1_555
C21 C26 1_555 1_555
C23 C25 1_555 1_555
C27 C36 1_555 1_555
C30 C54 1_555 1_555
C31 C63 1_555 1_555
C40 C41 1_555 1_555
C42 C55 1_555 1_555
C43 C56 1_555 1_555
C44 C47 1_555 1_555
C48 C50 1_555 1_555
C49 C53 1_555 1_555
C49 C61 1_555 1_555
C52 C73 1_555 1_555
C57 C60 1_555 1_555
C62 C64 1_555 1_555
O21 Zn12 1_555 1_555
O22 C70 1_555 1_555
O23 C72 1_555 1_555
O24 C69 1_555 1_555
O25 Zn14 1_555 1_555
O26 C71 1_555 1_555
C24 H36 1_555 1_555
O16 H37 1_555 1_555
O16 H38 1_555 1_555
C67 H41 1_555 1_555
C67 H42 1_555 1_555
C67 H43 1_555 1_555
O9 C66 1_555 1_555
O15 C66 1_555 1_555
Zn12 O15 1_555 1_555
Zn14 O9 1_555 1_555
O29 Zn5 1_555 1_555
O36 Zn5 1_555 1_555
O37 Zn5 1_555 1_555
O29 H39 1_555 1_555
O29 H40 1_555 1_555
O6 C22 1_555 1_555
O11 C46 1_555 1_555
O14 C22 1_555 1_555
O28 C46 1_555 1_555
Zn15 O14 1_555 1_555
Zn17 O28 1_555 1_555
O30 Zn6 1_555 1_555
O37 Zn6 1_555 1_555
O39 Zn6 1_555 1_555
Zn12 O12_2 1_555 1_555
C11_2 C15_2 1_555 1_555
C13_2 C15_2 1_555 1_555
O12_2 C65_2 1_555 1_555
C15_2 H4_2 1_555 1_555
O33 C65_2 1_555 1_555
C19_2 C13_2 1_555 1_555
C23_2 H10_2 1_555 1_555
C25_2 C13_2 1_555 1_555
H11_2 C25_2 1_555 1_555
C31_2 C19_2 1_555 1_555
H14_2 C31_2 1_555 1_555
C42_2 C11_2 1_555 1_555
C55_2 C19_2 1_555 1_555
H27_2 C55_2 1_555 1_555
C63_2 C23_2 1_555 1_555
C65_2 C63_2 1_555 1_555
O29_2 Zn12 1_555 1_555
C23_2 C25_2 1_555 1_555
C31_2 C63_2 1_555 1_555
C42_2 C55_2 1_555 1_555
O29_2 H39_2 1_555 1_555
O29_2 H40_2 1_555 1_555
O31 C39_2 1_555 1_555
C9_2 C17_2 1_555 1_555
C17_2 H6_2 1_555 1_555
C27_2 H12_2 1_555 1_555
C29_2 C17_2 1_555 1_555
C36_2 C9_2 1_555 1_555
C39_2 C29_2 1_555 1_555
C40_2 C9_2 1_555 1_555
H17_2 C40_2 1_555 1_555
C52_2 C36_2 1_555 1_555
H26_2 C52_2 1_555 1_555
O40 C39_2 1_555 1_555
C73_2 C29_2 1_555 1_555
H35_2 C73_2 1_555 1_555
C27_2 C36_2 1_555 1_555
C52_2 C73_2 1_555 1_555
Zn15 O2_2 1_555 1_555
O2_2 C1_2 1_555 1_555
C5_2 C1_2 1_555 1_555
C12_2 H3_2 1_555 1_555
C14_2 C12_2 1_555 1_555
C20_2 C14_2 1_555 1_555
H8_2 C20_2 1_555 1_555
C59_2 C5_2 1_555 1_555
H31_2 C59_2 1_555 1_555
C20_2 C59_2 1_555 1_555
Zn1_2 O20_2 1_555 1_555
Zn9 O18_2 1_555 1_555
Zn10 O4_2 1_555 1_555
Zn14 O6_2 1_555 1_555
O4_2 C70_2 1_555 1_555
O5_2 Zn10 1_555 1_555
O6_2 C22_2 1_555 1_555
C2_2 C3_2 1_555 1_555
C3_2 H1_2 1_555 1_555
C6_2 C7_2 1_555 1_555
C7_2 H2_2 1_555 1_555
C10_2 C21_2 1_555 1_555
O34 C22_2 1_555 1_555
O35 C66_2 1_555 1_555
C21_2 H9_2 1_555 1_555
C22_2 C32_2 1_555 1_555
C24_2 C35_2 1_555 1_555
C26_2 C6_2 1_555 1_555
C32_2 C7_2 1_555 1_555
C35_2 C2_2 1_555 1_555
H16_2 C35_2 1_555 1_555
C38_2 C3_2 1_555 1_555
C44_2 C26_2 1_555 1_555
H20_2 C44_2 1_555 1_555
C47_2 C32_2 1_555 1_555
H22_2 C47_2 1_555 1_555
C48_2 C10_2 1_555 1_555
H23_2 C48_2 1_555 1_555
C50_2 C6_2 1_555 1_555
H25_2 C50_2 1_555 1_555
C53_2 C2_2 1_555 1_555
C61_2 C24_2 1_555 1_555
C66_2 C61_2 1_555 1_555
O18_2 C72_2 1_555 1_555
O20_2 Zn9 1_555 1_555
O22_2 Zn9 1_555 1_555
O23_2 Zn1_2 1_555 1_555
O24_2 Zn1_2 1_555 1_555
O26_2 Zn1_2 1_555 1_555
C69_2 O5_2 1_555 1_555
C70_2 C38_2 1_555 1_555
Zn10 O20_2 1_555 1_555
C10_2 C69_2 1_555 1_555
C21_2 C26_2 1_555 1_555
C44_2 C47_2 1_555 1_555
C48_2 C50_2 1_555 1_555
C49_2 C53_2 1_555 1_555
C49_2 C61_2 1_555 1_555
O22_2 C70_2 1_555 1_555
O23_2 C72_2 1_555 1_555
O24_2 C69_2 1_555 1_555
C24_2 H36_2 1_555 1_555
Zn2_2 O3_2 1_555 1_555
O3_2 C68_2 1_555 1_555
O7_2 Zn2_2 1_555 1_555
O8_2 Zn2_2 1_555 1_555
O32 C46_2 1_555 1_555
C16_2 C4_2 1_555 1_555
H5_2 C16_2 1_555 1_555
C18_2 C4_2 1_555 1_555
H7_2 C18_2 1_555 1_555
C28_2 H13_2 1_555 1_555
C30_2 C33_2 1_555 1_555
C33_2 C28_2 1_555 1_555
H15_2 C33_2 1_555 1_555
C37_2 C28_2 1_555 1_555
C41_2 C34_2 1_555 1_555
H18_2 C41_2 1_555 1_555
C43_2 C37_2 1_555 1_555
C45_2 C8_2 1_555 1_555
H21_2 C45_2 1_555 1_555
C46_2 C51_2 1_555 1_555
C51_2 C58_2 1_555 1_555
C54_2 O7_2 1_555 1_555
C56_2 C30_2 1_555 1_555
H28_2 C56_2 1_555 1_555
C58_2 C37_2 1_555 1_555
H30_2 C58_2 1_555 1_555
C62_2 C51_2 1_555 1_555
H33_2 C62_2 1_555 1_555
C64_2 C43_2 1_555 1_555
H34_2 C64_2 1_555 1_555
O36 C54_2 1_555 1_555
O37 Zn2_2 1_555 1_555
O39 C68_2 1_555 1_555
C68_2 C34_2 1_555 1_555
O41 C46_2 1_555 1_555
C16_2 C45_2 1_555 1_555
C30_2 C54_2 1_555 1_555
C43_2 C56_2 1_555 1_555
C62_2 C64_2 1_555 1_555
Zn17 O1_2 1_555 1_555
O1_2 C71_2 1_555 1_555
O16_2 Zn17 1_555 1_555
H29_2 C57_2 1_555 1_555
H32_2 C60_2 1_555 1_555
O17_2 Zn17 1_555 1_555
C67_2 O17_2 1_555 1_555
C57_2 C60_2 1_555 1_555
O16_2 H37_2 1_555 1_555
O16_2 H38_2 1_555 1_555
C67_2 H41_2 1_555 1_555
C67_2 H42_2 1_555 1_555
C67_2 H43_2 1_555 1_555
Zn8_2 O1_3 1_555 1_555
O1_3 C71_3 1_555 1_555
O16_3 Zn8_2 1_555 1_555
H29_3 C57_3 1_555 1_555
H32_3 C60_3 1_555 1_555
O17_3 Zn8_2 1_555 1_555
C67_3 O17_3 1_555 1_555
Zn13 O9_2 1_555 1_555
O40_2 Zn8_2 1_555 1_555
O41_2 Zn8_2 1_555 1_555
C57_3 C60_3 1_555 1_555
O16_3 H37_3 1_555 1_555
O16_3 H38_3 1_555 1_555
C67_3 H41_3 1_555 1_555
C67_3 H42_3 1_555 1_555
C67_3 H43_3 1_555 1_555
Zn2_3 O3_3 1_555 1_555
O3_3 C68_3 1_555 1_555
O7_3 Zn2_3 1_555 1_555
O8_3 Zn2_3 1_555 1_555
O11_2 C46_3 1_555 1_555
C16_3 C4_3 1_555 1_555
H5_3 C16_3 1_555 1_555
C18_3 C4_3 1_555 1_555
H7_3 C18_3 1_555 1_555
C28_3 H13_3 1_555 1_555
C30_3 C33_3 1_555 1_555
C33_3 C28_3 1_555 1_555
H15_3 C33_3 1_555 1_555
C37_3 C28_3 1_555 1_555
C41_3 C34_3 1_555 1_555
H18_3 C41_3 1_555 1_555
C43_3 C37_3 1_555 1_555
C45_3 C8_3 1_555 1_555
H21_3 C45_3 1_555 1_555
C46_3 C51_3 1_555 1_555
C51_3 C58_3 1_555 1_555
C54_3 O7_3 1_555 1_555
C56_3 C30_3 1_555 1_555
H28_3 C56_3 1_555 1_555
C58_3 C37_3 1_555 1_555
H30_3 C58_3 1_555 1_555
C62_3 C51_3 1_555 1_555
H33_3 C62_3 1_555 1_555
C64_3 C43_3 1_555 1_555
H34_3 C64_3 1_555 1_555
O19_2 C54_3 1_555 1_555
O21_2 Zn2_3 1_555 1_555
O25_2 C68_3 1_555 1_555
C68_3 C34_3 1_555 1_555
O28_2 C46_3 1_555 1_555
Zn9_2 O11_2 1_555 1_555
Zn11 O19_2 1_555 1_555
Zn13 O21_2 1_555 1_555
Zn18 O28_2 1_555 1_555
C16_3 C45_3 1_555 1_555
C30_3 C54_3 1_555 1_555
C43_3 C56_3 1_555 1_555
C62_3 C64_3 1_555 1_555
O21_2 Zn11 1_555 1_555
O25_2 Zn13 1_555 1_555
Zn1_3 O20_3 1_555 1_555
Zn3_2 O18_3 1_555 1_555
Zn4_2 O4_3 1_555 1_555
Zn6_2 O6_3 1_555 1_555
O4_3 C70_3 1_555 1_555
O5_3 Zn4_2 1_555 1_555
O6_3 C22_3 1_555 1_555
C2_3 C3_3 1_555 1_555
C3_3 H1_3 1_555 1_555
C6_3 C7_3 1_555 1_555
C7_3 H2_3 1_555 1_555
C10_3 C21_3 1_555 1_555
O14_2 C22_3 1_555 1_555
O15_2 C66_3 1_555 1_555
C21_3 H9_3 1_555 1_555
C22_3 C32_3 1_555 1_555
C24_3 C35_3 1_555 1_555
C26_3 C6_3 1_555 1_555
C32_3 C7_3 1_555 1_555
C35_3 C2_3 1_555 1_555
H16_3 C35_3 1_555 1_555
C38_3 C3_3 1_555 1_555
C44_3 C26_3 1_555 1_555
H20_3 C44_3 1_555 1_555
C47_3 C32_3 1_555 1_555
H22_3 C47_3 1_555 1_555
C48_3 C10_3 1_555 1_555
H23_3 C48_3 1_555 1_555
C50_3 C6_3 1_555 1_555
H25_3 C50_3 1_555 1_555
C53_3 C2_3 1_555 1_555
C61_3 C24_3 1_555 1_555
C66_3 C61_3 1_555 1_555
O18_3 C72_3 1_555 1_555
O20_3 Zn3_2 1_555 1_555
O22_3 Zn3_2 1_555 1_555
O23_3 Zn1_3 1_555 1_555
O24_3 Zn1_3 1_555 1_555
O26_3 Zn1_3 1_555 1_555
C69_3 O5_3 1_555 1_555
C70_3 C38_3 1_555 1_555
Zn16 O14_2 1_555 1_555
O30_2 Zn6_2 1_555 1_555
O38 Zn6_2 1_555 1_555
O39_2 Zn6_2 1_555 1_555
Zn4_2 O20_3 1_555 1_555
C10_3 C69_3 1_555 1_555
C21_3 C26_3 1_555 1_555
C44_3 C47_3 1_555 1_555
C48_3 C50_3 1_555 1_555
C49_3 C53_3 1_555 1_555
C49_3 C61_3 1_555 1_555
O22_3 C70_3 1_555 1_555
O23_3 C72_3 1_555 1_555
O24_3 C69_3 1_555 1_555
Zn16 O38 1_555 1_555
C24_3 H36_3 1_555 1_555
Zn7_2 O2_3 1_555 1_555
O2_3 C1_3 1_555 1_555
C5_3 C1_3 1_555 1_555
C12_3 H3_3 1_555 1_555
C14_3 C12_3 1_555 1_555
C20_3 C14_3 1_555 1_555
H8_3 C20_3 1_555 1_555
C59_3 C5_3 1_555 1_555
H31_3 C59_3 1_555 1_555
O33_2 Zn7_2 1_555 1_555
O34_2 Zn7_2 1_555 1_555
C20_3 C59_3 1_555 1_555
O10_2 C39_3 1_555 1_555
C9_3 C17_3 1_555 1_555
C17_3 H6_3 1_555 1_555
C27_3 H12_3 1_555 1_555
C29_3 C17_3 1_555 1_555
C36_3 C9_3 1_555 1_555
C39_3 C29_3 1_555 1_555
C40_3 C9_3 1_555 1_555
H17_3 C40_3 1_555 1_555
C52_3 C36_3 1_555 1_555
H26_3 C52_3 1_555 1_555
O27_2 C39_3 1_555 1_555
C73_3 C29_3 1_555 1_555
H35_3 C73_3 1_555 1_555
Zn10_2 O10_2 1_555 1_555
Zn18 O27_2 1_555 1_555
C27_3 C36_3 1_555 1_555
C52_3 C73_3 1_555 1_555
Zn5_2 O12_3 1_555 1_555
C11_3 C15_3 1_555 1_555
C13_3 C15_3 1_555 1_555
O12_3 C65_3 1_555 1_555
C15_3 H4_3 1_555 1_555
O13_2 C65_3 1_555 1_555
C19_3 C13_3 1_555 1_555
C23_3 H10_3 1_555 1_555
C25_3 C13_3 1_555 1_555
H11_3 C25_3 1_555 1_555
C31_3 C19_3 1_555 1_555
H14_3 C31_3 1_555 1_555
C42_3 C11_3 1_555 1_555
C55_3 C19_3 1_555 1_555
H27_3 C55_3 1_555 1_555
C63_3 C23_3 1_555 1_555
C65_3 C63_3 1_555 1_555
O29_3 Zn5_2 1_555 1_555
Zn16 O13_2 1_555 1_555
O35_2 Zn5_2 1_555 1_555
O36_2 Zn5_2 1_555 1_555
O38 Zn5_2 1_555 1_555
C23_3 C25_3 1_555 1_555
C31_3 C63_3 1_555 1_555
C42_3 C55_3 1_555 1_555
O29_3 H39_3 1_555 1_555
O29_3 H40_3 1_555 1_555
O6_4 C22_4 1_555 1_555
O32_2 C46_4 1_555 1_555
O34_2 C22_4 1_555 1_555
O41_2 C46_4 1_555 1_555
O29_4 Zn11 1_555 1_555
O29_4 H39_4 1_555 1_555
O29_4 H40_4 1_555 1_555
O30_2 C66_4 1_555 1_555
O35_2 C66_4 1_555 1_555
Zn1_4 O20_4 1_555 1_555
Zn2_4 O3_4 1_555 1_555
Zn9_2 O18_4 1_555 1_555
Zn10_2 O4_4 1_555 1_555
Zn16 O2_4 1_555 1_555
Zn18 O1_4 1_555 1_555
O1_4 C71_4 1_555 1_555
O2_4 C1_4 1_555 1_555
O3_4 C68_4 1_555 1_555
O4_4 C70_4 1_555 1_555
O5_4 Zn10_2 1_555 1_555
O7_4 Zn2_4 1_555 1_555
O8_4 Zn2_4 1_555 1_555
O31_2 C39_4 1_555 1_555
C1_4 O8_4 1_555 1_555
C2_4 C3_4 1_555 1_555
C3_4 H1_4 1_555 1_555
C4_4 C14_4 1_555 1_555
C5_4 C1_4 1_555 1_555
C6_4 C7_4 1_555 1_555
C7_4 H2_4 1_555 1_555
C8_4 C12_4 1_555 1_555
C9_4 C17_4 1_555 1_555
C10_4 C21_4 1_555 1_555
C11_4 C15_4 1_555 1_555
C12_4 H3_4 1_555 1_555
C13_4 C15_4 1_555 1_555
O12_4 C65_4 1_555 1_555
C14_4 C12_4 1_555 1_555
C15_4 H4_4 1_555 1_555
O33_2 C65_4 1_555 1_555
C16_4 C4_4 1_555 1_555
H5_4 C16_4 1_555 1_555
C17_4 H6_4 1_555 1_555
C18_4 C4_4 1_555 1_555
H7_4 C18_4 1_555 1_555
C19_4 C13_4 1_555 1_555
C20_4 C14_4 1_555 1_555
H8_4 C20_4 1_555 1_555
C21_4 H9_4 1_555 1_555
C23_4 H10_4 1_555 1_555
C24_4 C35_4 1_555 1_555
C25_4 C13_4 1_555 1_555
H11_4 C25_4 1_555 1_555
C26_4 C6_4 1_555 1_555
C27_4 H12_4 1_555 1_555
C28_4 H13_4 1_555 1_555
C29_4 C17_4 1_555 1_555
C30_4 C33_4 1_555 1_555
C31_4 C19_4 1_555 1_555
H14_4 C31_4 1_555 1_555
C32_4 C7_4 1_555 1_555
C33_4 C28_4 1_555 1_555
H15_4 C33_4 1_555 1_555
C34_4 C27_4 1_555 1_555
C35_4 C2_4 1_555 1_555
H16_4 C35_4 1_555 1_555
C36_4 C9_4 1_555 1_555
C37_4 C28_4 1_555 1_555
C38_4 C3_4 1_555 1_555
C39_4 C29_4 1_555 1_555
C40_4 C9_4 1_555 1_555
H17_4 C40_4 1_555 1_555
C41_4 C34_4 1_555 1_555
H18_4 C41_4 1_555 1_555
C42_4 C11_4 1_555 1_555
H19_4 C42_4 1_555 1_555
C43_4 C37_4 1_555 1_555
C44_4 C26_4 1_555 1_555
H20_4 C44_4 1_555 1_555
C45_4 C8_4 1_555 1_555
H21_4 C45_4 1_555 1_555
C47_4 C32_4 1_555 1_555
C48_4 C10_4 1_555 1_555
H23_4 C48_4 1_555 1_555
C49_4 H24_4 1_555 1_555
C50_4 C6_4 1_555 1_555
H25_4 C50_4 1_555 1_555
C51_4 C58_4 1_555 1_555
C52_4 C36_4 1_555 1_555
H26_4 C52_4 1_555 1_555
C53_4 C2_4 1_555 1_555
C54_4 O7_4 1_555 1_555
C55_4 C19_4 1_555 1_555
H27_4 C55_4 1_555 1_555
C56_4 C30_4 1_555 1_555
H28_4 C56_4 1_555 1_555
O16_4 Zn18 1_555 1_555
C57_4 C53_4 1_555 1_555
H29_4 C57_4 1_555 1_555
C58_4 C37_4 1_555 1_555
H30_4 C58_4 1_555 1_555
C59_4 C5_4 1_555 1_555
H31_4 C59_4 1_555 1_555
C60_4 C38_4 1_555 1_555
H32_4 C60_4 1_555 1_555
C61_4 C24_4 1_555 1_555
C62_4 C51_4 1_555 1_555
H33_4 C62_4 1_555 1_555
C63_4 C23_4 1_555 1_555
C64_4 C43_4 1_555 1_555
H34_4 C64_4 1_555 1_555
C65_4 C63_4 1_555 1_555
O17_4 Zn18 1_555 1_555
C67_4 O17_4 1_555 1_555
O18_4 C72_4 1_555 1_555
O36_2 C54_4 1_555 1_555
O20_4 Zn9_2 1_555 1_555
O38 Zn2_4 1_555 1_555
O22_4 Zn9_2 1_555 1_555
O23_4 Zn1_4 1_555 1_555
O24_4 Zn1_4 1_555 1_555
O39_2 C68_4 1_555 1_555
O26_4 Zn1_4 1_555 1_555
C68_4 C34_4 1_555 1_555
O40_2 C39_4 1_555 1_555
C69_4 O5_4 1_555 1_555
C70_4 C38_4 1_555 1_555
C71_4 C8_4 1_555 1_555
C72_4 C11_4 1_555 1_555
C73_4 C29_4 1_555 1_555
H35_4 C73_4 1_555 1_555
Zn10_2 O20_4 1_555 1_555
Zn18 O20_4 1_555 1_555
C5_4 C18_4 1_555 1_555
C10_4 C69_4 1_555 1_555
C16_4 C45_4 1_555 1_555
C20_4 C59_4 1_555 1_555
C21_4 C26_4 1_555 1_555
C23_4 C25_4 1_555 1_555
C27_4 C36_4 1_555 1_555
C30_4 C54_4 1_555 1_555
C31_4 C63_4 1_555 1_555
C40_4 C41_4 1_555 1_555
C42_4 C55_4 1_555 1_555
C43_4 C56_4 1_555 1_555
C44_4 C47_4 1_555 1_555
C48_4 C50_4 1_555 1_555
C49_4 C53_4 1_555 1_555
C49_4 C61_4 1_555 1_555
C52_4 C73_4 1_555 1_555
C57_4 C60_4 1_555 1_555
C62_4 C64_4 1_555 1_555
O22_4 C70_4 1_555 1_555
O23_4 C72_4 1_555 1_555
O24_4 C69_4 1_555 1_555
O26_4 C71_4 1_555 1_555
C24_4 H36_4 1_555 1_555
O16_4 H37_4 1_555 1_555
O16_4 H38_4 1_555 1_555
C67_4 H41_4 1_555 1_555
C67_4 H42_4 1_555 1_555
C67_4 H43_4 1_555 1_555

#END
