
###############################################################################
#
# This file contains modified crystal structure data generated from the
# MOF subset of the Cambridge Structural Database (CSD) v543 
# hosted by the Cambridge Crystallographic Data Centre (CCDC).
#
# This work is licensed under the Creative Commons
# Attribution-NonCommercial-ShareAlike 4.0 International License.
# To view a copy of this license, visit
# http://creativecommons.org/licenses/by-nc-sa/4.0/
# or send a letter to
# Creative Commons, PO Box 1866, Mountain View, CA 94042, USA.
#
# CIF created using the CSD Python API on 29 September 2022
# The structure has been converted into the P1 space group
# The structure has a 3D framework
# The original CSD entry FECXOC is in the cubic crystal system
# The framework has been calculated to contain at least 10.0% void space
# The void calculation uses a probe of radius 1.32A, grid spacing 0.4
# The framework is charged, counterions have been retained in the structure
# H atom positions have been added when not included in the experimental data
# Generated hydrogen atom positions removed from atoms on special positions
#
###############################################################################

data_FECXOC
_chemical_formula_moiety         '(C72 H168 Cl4 Co24 N96 O24 4-)n'
_symmetry_cell_setting           triclinic
_symmetry_space_group_name_H-M   'P 1'
_symmetry_Int_Tables_number      1
_space_group_name_Hall           'P 1'
loop_
_symmetry_equiv_pos_site_id
_symmetry_equiv_pos_as_xyz
1 x,y,z
_cell_length_a                   18.739(2)
_cell_length_b                   18.739(2)
_cell_length_c                   18.739(2)
_cell_angle_alpha                90
_cell_angle_beta                 90
_cell_angle_gamma                90
_cell_volume                     6580.2
loop_
_atom_site_label
_atom_site_type_symbol
_atom_site_fract_x
_atom_site_fract_y
_atom_site_fract_z
Co3 Co 0.5000 0.0000 0.36121(6)
Cl2 Cl 0.5000 0.0000 0.5000
O3 O 0.5000 0.0000 0.2501(4)
Co9 Co 0.36121(6) 0.0000 0.5000
O9 O 0.2501(4) 0.0000 0.5000
Co19 Co 0.5000 0.0000 0.63879(6)
Co23 Co 0.63879(6) 0.0000 0.5000
N98 N 0.58102(18) 0.07689(17) 0.36927(19)
N103 N 0.36927(19) 0.07689(17) 0.41898(18)
N107 N 0.41898(18) 0.07689(17) 0.36927(19)
N115 N 0.36927(19) 0.07689(17) 0.58102(18)
Co6 Co 0.36121(6) 0.5000 0.0000
O6 O 0.2501(4) 0.5000 0.0000
N38 N 0.3251(2) 0.13208(18) 0.40944(19)
C28 C 0.3192(2) 0.2279(3) 0.3192(2)
C29 C 0.3508(2) 0.1649(3) 0.3508(2)
C30 C 0.2586(3) 0.2586(3) 0.3489(3)
H10 H 0.2382 0.2382 0.3893
N39 N 0.07689(17) 0.41898(18) 0.36927(19)
N40 N 0.13208(18) 0.40944(19) 0.3251(2)
C31 C 0.2279(3) 0.3192(2) 0.3192(2)
C32 C 0.1649(3) 0.3508(2) 0.3508(2)
C33 C 0.2586(3) 0.3489(3) 0.2586(3)
H11 H 0.2382 0.3893 0.2382
N41 N 0.41898(18) 0.36927(19) 0.07689(17)
N42 N 0.40944(19) 0.3251(2) 0.13208(18)
C34 C 0.3192(2) 0.3192(2) 0.2279(3)
C35 C 0.3508(2) 0.3508(2) 0.1649(3)
C36 C 0.3489(3) 0.2586(3) 0.2586(3)
H12 H 0.3893 0.2382 0.2382
N43 N 0.07689(17) 0.36927(19) 0.41898(18)
N44 N 0.13208(18) 0.3251(2) 0.40944(19)
N46 N 0.40944(19) 0.13208(18) 0.3251(2)
N47 N 0.36927(19) 0.41898(18) 0.07689(17)
N48 N 0.3251(2) 0.40944(19) 0.13208(18)
Co13 Co -0.0000 0.36121(6) 0.5000
Co26 Co -0.0000 0.5000 0.36121(6)
Co30 Co 0.5000 0.36121(6) 0.0000
Co33 Co 0.5000 0.63879(6) 0.0000
Cl8 Cl 0.5000 0.5000 0.0000
N100 N 0.36927(19) 0.58102(18) 0.07689(17)
Cl1 Cl 0.0000 0.5000 0.5000
N1 N 0.07689(17) 0.36927(19) 0.58102(18)
N2 N 0.13208(18) 0.3251(2) 0.59056(19)
C1 C 0.2279(3) 0.3192(2) 0.6808(2)
C2 C 0.1649(3) 0.3508(2) 0.6492(2)
C3 C 0.2586(3) 0.2586(3) 0.6511(3)
H1 H 0.2382 0.2382 0.6107
O1 O 0.0000 0.2501(4) 0.5000
N3 N 0.41898(18) 0.07689(17) 0.63073(19)
N4 N 0.40944(19) 0.13208(18) 0.6749(2)
C4 C 0.3192(2) 0.2279(3) 0.6808(2)
C5 C 0.3508(2) 0.1649(3) 0.6492(2)
C6 C 0.3489(3) 0.2586(3) 0.7414(3)
H2 H 0.3893 0.2382 0.7618
N5 N 0.36927(19) 0.41898(18) 0.92311(17)
N6 N 0.3251(2) 0.40944(19) 0.86792(18)
C7 C 0.3192(2) 0.3192(2) 0.7721(3)
C8 C 0.3508(2) 0.3508(2) 0.8351(3)
C9 C 0.2586(3) 0.3489(3) 0.7414(3)
H3 H 0.2382 0.3893 0.7618
N8 N 0.3251(2) 0.13208(18) 0.59056(19)
N9 N 0.07689(17) 0.41898(18) 0.63073(19)
N10 N 0.13208(18) 0.40944(19) 0.6749(2)
N11 N 0.41898(18) 0.36927(19) 0.92311(17)
N12 N 0.40944(19) 0.3251(2) 0.86792(18)
Co2 Co 0.0000 0.63879(6) 0.5000
O2 O 0.0000 0.7499(4) 0.5000
N13 N 0.07689(17) 0.63073(19) 0.41898(18)
N14 N 0.13208(18) 0.6749(2) 0.40944(19)
C10 C 0.2279(3) 0.6808(2) 0.3192(2)
C11 C 0.1649(3) 0.6492(2) 0.3508(2)
C12 C 0.2586(3) 0.7414(3) 0.3489(3)
H4 H 0.2382 0.7618 0.3893
N15 N 0.41898(18) 0.92311(17) 0.36927(19)
N16 N 0.40944(19) 0.86792(18) 0.3251(2)
C13 C 0.3192(2) 0.7721(3) 0.3192(2)
C14 C 0.3508(2) 0.8351(3) 0.3508(2)
C15 C 0.3489(3) 0.7414(3) 0.2586(3)
H5 H 0.3893 0.7618 0.2382
N18 N 0.3251(2) 0.59056(19) 0.13208(18)
C16 C 0.3192(2) 0.6808(2) 0.2279(3)
C17 C 0.3508(2) 0.6492(2) 0.1649(3)
C18 C 0.2586(3) 0.6511(3) 0.2586(3)
H6 H 0.2382 0.6107 0.2382
N19 N 0.36927(19) 0.92311(17) 0.41898(18)
N20 N 0.3251(2) 0.86792(18) 0.40944(19)
N21 N 0.07689(17) 0.58102(18) 0.36927(19)
N22 N 0.13208(18) 0.59056(19) 0.3251(2)
N23 N 0.41898(18) 0.63073(19) 0.07689(17)
N24 N 0.40944(19) 0.6749(2) 0.13208(18)
Co3_2 Co 0.5000 1.0000 0.36121(6)
Cl2_2 Cl 0.5000 1.0000 0.5000
O3_2 O 0.5000 1.0000 0.2501(4)
O4 O 0.5000 0.0000 0.7499(4)
Co6_2 Co 0.36121(6) 0.5000 1.0000
O6_2 O 0.2501(4) 0.5000 1.0000
Co9_2 Co 0.36121(6) 1.0000 0.5000
N61 N 0.36927(19) 0.92311(17) 0.58102(18)
N62 N 0.3251(2) 0.86792(18) 0.59056(19)
C46 C 0.3192(2) 0.7721(3) 0.6808(2)
C47 C 0.3508(2) 0.8351(3) 0.6492(2)
C48 C 0.2586(3) 0.7414(3) 0.6511(3)
H16 H 0.2382 0.7618 0.6107
O9_2 O 0.2501(4) 1.0000 0.5000
N63 N 0.07689(17) 0.58102(18) 0.63073(19)
N64 N 0.13208(18) 0.59056(19) 0.6749(2)
C49 C 0.2279(3) 0.6808(2) 0.6808(2)
C50 C 0.1649(3) 0.6492(2) 0.6492(2)
C51 C 0.2586(3) 0.6511(3) 0.7414(3)
H17 H 0.2382 0.6107 0.7618
N65 N 0.41898(18) 0.63073(19) 0.92311(17)
N66 N 0.40944(19) 0.6749(2) 0.86792(18)
C52 C 0.3192(2) 0.6808(2) 0.7721(3)
C53 C 0.3508(2) 0.6492(2) 0.8351(3)
C54 C 0.3489(3) 0.7414(3) 0.7414(3)
H18 H 0.3893 0.7618 0.7618
N67 N 0.07689(17) 0.63073(19) 0.58102(18)
N68 N 0.13208(18) 0.6749(2) 0.59056(19)
N69 N 0.41898(18) 0.92311(17) 0.63073(19)
N70 N 0.40944(19) 0.86792(18) 0.6749(2)
N71 N 0.36927(19) 0.58102(18) 0.92311(17)
N72 N 0.3251(2) 0.59056(19) 0.86792(18)
Co11 Co 0.0000 0.5000 0.63879(6)
O11 O 0.0000 0.5000 0.7499(4)
Co19_2 Co 0.5000 1.0000 0.63879(6)
Co23_2 Co 0.63879(6) 1.0000 0.5000
Co30_2 Co 0.5000 0.36121(6) 1.0000
Co33_2 Co 0.5000 0.63879(6) 1.0000
Cl8_2 Cl 0.5000 0.5000 1.0000
N108 N 0.58102(18) 0.07689(17) 0.63073(19)
N109 N 0.58102(18) 0.92311(17) 0.36927(19)
O4_2 O 0.5000 1.0000 0.7499(4)
N99 N 0.58102(18) 0.92311(17) 0.63073(19)
Co13_2 Co 1.0000 0.36121(6) 0.5000
Co21 Co 0.63879(6) 0.5000 0.0000
Co26_2 Co 1.0000 0.5000 0.36121(6)
Cl1_2 Cl 1.0000 0.5000 0.5000
O1_2 O 1.0000 0.2501(4) 0.5000
Co2_2 Co 1.0000 0.63879(6) 0.5000
O2_2 O 1.0000 0.7499(4) 0.5000
N73 N 0.63073(19) 0.07689(17) 0.58102(18)
N74 N 0.6749(2) 0.13208(18) 0.59056(19)
C55 C 0.6808(2) 0.2279(3) 0.6808(2)
C56 C 0.6492(2) 0.1649(3) 0.6492(2)
C57 C 0.7414(3) 0.2586(3) 0.6511(3)
H19 H 0.7618 0.2382 0.6107
O10 O 0.7499(4) 0.0000 0.5000
N75 N 0.92311(17) 0.41898(18) 0.63073(19)
N76 N 0.86792(18) 0.40944(19) 0.6749(2)
C58 C 0.7721(3) 0.3192(2) 0.6808(2)
C59 C 0.8351(3) 0.3508(2) 0.6492(2)
C60 C 0.7414(3) 0.3489(3) 0.7414(3)
H20 H 0.7618 0.3893 0.7618
N77 N 0.58102(18) 0.36927(19) 0.92311(17)
N78 N 0.59056(19) 0.3251(2) 0.86792(18)
C61 C 0.6808(2) 0.3192(2) 0.7721(3)
C62 C 0.6492(2) 0.3508(2) 0.8351(3)
C63 C 0.6511(3) 0.2586(3) 0.7414(3)
H21 H 0.6107 0.2382 0.7618
N79 N 0.92311(17) 0.36927(19) 0.58102(18)
N80 N 0.86792(18) 0.3251(2) 0.59056(19)
N82 N 0.59056(19) 0.13208(18) 0.6749(2)
N83 N 0.63073(19) 0.41898(18) 0.92311(17)
N84 N 0.6749(2) 0.40944(19) 0.86792(18)
Co11_2 Co 1.0000 0.5000 0.63879(6)
O11_2 O 1.0000 0.5000 0.7499(4)
N85 N 0.63073(19) 0.41898(18) 0.07689(17)
N86 N 0.6749(2) 0.40944(19) 0.13208(18)
C64 C 0.6808(2) 0.3192(2) 0.2279(3)
C65 C 0.6492(2) 0.3508(2) 0.1649(3)
C66 C 0.7414(3) 0.3489(3) 0.2586(3)
H22 H 0.7618 0.3893 0.2382
O12 O 0.7499(4) 0.5000 0.0000
N87 N 0.92311(17) 0.36927(19) 0.41898(18)
N88 N 0.86792(18) 0.3251(2) 0.40944(19)
C67 C 0.7721(3) 0.3192(2) 0.3192(2)
C68 C 0.8351(3) 0.3508(2) 0.3508(2)
C69 C 0.7414(3) 0.2586(3) 0.3489(3)
H23 H 0.7618 0.2382 0.3893
N90 N 0.59056(19) 0.13208(18) 0.3251(2)
C70 C 0.6808(2) 0.2279(3) 0.3192(2)
C71 C 0.6492(2) 0.1649(3) 0.3508(2)
C72 C 0.6511(3) 0.2586(3) 0.2586(3)
H24 H 0.6107 0.2382 0.2382
N91 N 0.92311(17) 0.41898(18) 0.36927(19)
N92 N 0.86792(18) 0.40944(19) 0.3251(2)
N93 N 0.58102(18) 0.36927(19) 0.07689(17)
N94 N 0.59056(19) 0.3251(2) 0.13208(18)
N95 N 0.63073(19) 0.07689(17) 0.41898(18)
N96 N 0.6749(2) 0.13208(18) 0.40944(19)
Co21_2 Co 0.63879(6) 0.5000 1.0000
N97 N 0.92311(17) 0.63073(19) 0.58102(18)
N106 N 0.92311(17) 0.63073(19) 0.41898(18)
N111 N 0.63073(19) 0.58102(18) 0.07689(17)
N118 N 0.92311(17) 0.58102(18) 0.63073(19)
O12_2 O 0.7499(4) 0.5000 1.0000
N101 N 0.63073(19) 0.58102(18) 0.92311(17)
O10_2 O 0.7499(4) 1.0000 0.5000
N104 N 0.63073(19) 0.92311(17) 0.41898(18)
N113 N 0.63073(19) 0.92311(17) 0.58102(18)
N38_2 N 0.6749(2) 0.86792(18) 0.40944(19)
C28_2 C 0.6808(2) 0.7721(3) 0.3192(2)
C29_2 C 0.6492(2) 0.8351(3) 0.3508(2)
C30_2 C 0.7414(3) 0.7414(3) 0.3489(3)
H10_2 H 0.7618 0.7618 0.3893
N39_2 N 0.92311(17) 0.58102(18) 0.36927(19)
N40_2 N 0.86792(18) 0.59056(19) 0.3251(2)
C31_2 C 0.7721(3) 0.6808(2) 0.3192(2)
C32_2 C 0.8351(3) 0.6492(2) 0.3508(2)
C33_2 C 0.7414(3) 0.6511(3) 0.2586(3)
H11_2 H 0.7618 0.6107 0.2382
N41_2 N 0.58102(18) 0.63073(19) 0.07689(17)
N42_2 N 0.59056(19) 0.6749(2) 0.13208(18)
C34_2 C 0.6808(2) 0.6808(2) 0.2279(3)
C35_2 C 0.6492(2) 0.6492(2) 0.1649(3)
C36_2 C 0.6511(3) 0.7414(3) 0.2586(3)
H12_2 H 0.6107 0.7618 0.2382
N44_2 N 0.86792(18) 0.6749(2) 0.40944(19)
N46_2 N 0.59056(19) 0.86792(18) 0.3251(2)
N48_2 N 0.6749(2) 0.59056(19) 0.13208(18)
N2_2 N 0.86792(18) 0.6749(2) 0.59056(19)
C1_2 C 0.7721(3) 0.6808(2) 0.6808(2)
C2_2 C 0.8351(3) 0.6492(2) 0.6492(2)
C3_2 C 0.7414(3) 0.7414(3) 0.6511(3)
H1_2 H 0.7618 0.7618 0.6107
N4_2 N 0.59056(19) 0.86792(18) 0.6749(2)
C4_2 C 0.6808(2) 0.7721(3) 0.6808(2)
C5_2 C 0.6492(2) 0.8351(3) 0.6492(2)
C6_2 C 0.6511(3) 0.7414(3) 0.7414(3)
H2_2 H 0.6107 0.7618 0.7618
N6_2 N 0.6749(2) 0.59056(19) 0.86792(18)
C7_2 C 0.6808(2) 0.6808(2) 0.7721(3)
C8_2 C 0.6492(2) 0.6492(2) 0.8351(3)
C9_2 C 0.7414(3) 0.6511(3) 0.7414(3)
H3_2 H 0.7618 0.6107 0.7618
N8_2 N 0.6749(2) 0.86792(18) 0.59056(19)
N10_2 N 0.86792(18) 0.59056(19) 0.6749(2)
N11_2 N 0.58102(18) 0.63073(19) 0.92311(17)
N12_2 N 0.59056(19) 0.6749(2) 0.86792(18)
O11_3 O 0.0000 0.5000 0.2501(4)
O11_4 O 1.0000 0.5000 0.2501(4)
O8 O 0.5000 0.2501(4) 0.0000
O8_2 O 0.5000 0.2501(4) 1.0000
O10_3 O 0.5000 0.7499(4) 0.0000
O10_4 O 0.5000 0.7499(4) 1.0000
loop_
_geom_bond_atom_site_label_1
_geom_bond_atom_site_label_2
_geom_bond_site_symmetry_1
_geom_bond_site_symmetry_2
Cl2 Co3 1_555 1_555
O3 Co3 1_555 1_555
O9 Co9 1_555 1_555
Co19 Cl2 1_555 1_555
Co23 Cl2 1_555 1_555
N98 Co3 1_555 1_555
N103 Co9 1_555 1_555
N107 Co3 1_555 1_555
N115 Co9 1_555 1_555
Cl2 Co9 1_555 1_555
N103 N107 1_555 1_555
O6 Co6 1_555 1_555
N103 N38 1_555 1_555
N38 C29 1_555 1_555
C28 C29 1_555 1_555
C29 N46 1_555 1_555
C30 C28 1_555 1_555
H10 C30 1_555 1_555
N39 N40 1_555 1_555
N40 C32 1_555 1_555
C31 C30 1_555 1_555
C32 C31 1_555 1_555
C33 C31 1_555 1_555
H11 C33 1_555 1_555
N41 N42 1_555 1_555
N42 C35 1_555 1_555
C34 C33 1_555 1_555
C35 C34 1_555 1_555
C36 C28 1_555 1_555
H12 C36 1_555 1_555
N43 N39 1_555 1_555
N44 C32 1_555 1_555
N46 N107 1_555 1_555
N47 Co6 1_555 1_555
N48 C35 1_555 1_555
Co13 N43 1_555 1_555
Co26 N39 1_555 1_555
Cl8 Co6 1_555 1_555
N100 Co6 1_555 1_555
N41 N47 1_555 1_555
N41 Co30 1_555 1_555
C34 C36 1_555 1_555
N43 N44 1_555 1_555
N47 N48 1_555 1_555
Co30 Cl8 1_555 1_555
Co33 Cl8 1_555 1_555
Co13 Cl1 1_555 1_555
Cl1 Co2 1_555 1_555
N1 Co13 1_555 1_555
N2 N1 1_555 1_555
C1 C2 1_555 1_555
C2 N2 1_555 1_555
C3 C1 1_555 1_555
H1 C3 1_555 1_555
O1 Co13 1_555 1_555
N3 N4 1_555 1_555
N4 C5 1_555 1_555
C4 C3 1_555 1_555
C5 C4 1_555 1_555
C6 C4 1_555 1_555
H2 C6 1_555 1_555
N5 N6 1_555 1_555
N6 C8 1_555 1_555
C7 C6 1_555 1_555
C8 C7 1_555 1_555
C9 C1 1_555 1_555
H3 C9 1_555 1_555
N115 N3 1_555 1_555
N8 C5 1_555 1_555
N9 N1 1_555 1_555
N10 C2 1_555 1_555
N11 N5 1_555 1_555
N12 C8 1_555 1_555
Co2 O2 1_555 1_555
N13 Co2 1_555 1_555
N14 N13 1_555 1_555
C10 C11 1_555 1_555
C11 N14 1_555 1_555
C12 C10 1_555 1_555
H4 C12 1_555 1_555
N15 N16 1_555 1_555
N16 C14 1_555 1_555
C13 C12 1_555 1_555
C14 C13 1_555 1_555
C15 C13 1_555 1_555
H5 C15 1_555 1_555
N100 N18 1_555 1_555
N18 C17 1_555 1_555
C16 C15 1_555 1_555
C17 C16 1_555 1_555
C18 C10 1_555 1_555
H6 C18 1_555 1_555
N19 N15 1_555 1_555
N20 C14 1_555 1_555
N21 N13 1_555 1_555
N22 C11 1_555 1_555
N23 N100 1_555 1_555
N24 C17 1_555 1_555
Co3_2 N15 1_555 1_555
Cl2_2 Co3_2 1_555 1_555
O3_2 Co3_2 1_555 1_555
Co19 N3 1_555 1_555
O4 Co19 1_555 1_555
Co6_2 N5 1_555 1_555
O6_2 Co6_2 1_555 1_555
Co9_2 N19 1_555 1_555
N61 Co9_2 1_555 1_555
N62 N61 1_555 1_555
C46 C47 1_555 1_555
C47 N62 1_555 1_555
C48 C46 1_555 1_555
H16 C48 1_555 1_555
O9_2 Co9_2 1_555 1_555
N63 N64 1_555 1_555
N64 C50 1_555 1_555
C49 C48 1_555 1_555
C50 C49 1_555 1_555
C51 C49 1_555 1_555
H17 C51 1_555 1_555
N65 N66 1_555 1_555
N66 C53 1_555 1_555
C52 C51 1_555 1_555
C53 C52 1_555 1_555
C54 C46 1_555 1_555
H18 C54 1_555 1_555
N67 Co2 1_555 1_555
N68 C50 1_555 1_555
N69 N61 1_555 1_555
N70 C47 1_555 1_555
N71 Co6_2 1_555 1_555
N72 C53 1_555 1_555
Co11 Cl1 1_555 1_555
O11 Co11 1_555 1_555
Co19_2 Cl2_2 1_555 1_555
Co23_2 Cl2_2 1_555 1_555
Co26 Cl1 1_555 1_555
Co30_2 N11 1_555 1_555
Co33 N23 1_555 1_555
Co33_2 N65 1_555 1_555
Cl8_2 Co6_2 1_555 1_555
N108 Co19 1_555 1_555
N109 Co3_2 1_555 1_555
C7 C9 1_555 1_555
N115 N8 1_555 1_555
N9 N10 1_555 1_555
N9 Co11 1_555 1_555
N11 N12 1_555 1_555
C16 C18 1_555 1_555
N19 N20 1_555 1_555
N21 N22 1_555 1_555
N21 Co26 1_555 1_555
N23 N24 1_555 1_555
Cl2_2 Co9_2 1_555 1_555
N63 N67 1_555 1_555
N63 Co11 1_555 1_555
N65 N71 1_555 1_555
C52 C54 1_555 1_555
N67 N68 1_555 1_555
N69 N70 1_555 1_555
N69 Co19_2 1_555 1_555
N71 N72 1_555 1_555
Co30_2 Cl8_2 1_555 1_555
Co33_2 Cl8_2 1_555 1_555
O4_2 Co19_2 1_555 1_555
N99 Co19_2 1_555 1_555
Co13_2 Cl1_2 1_555 1_555
Cl1_2 Co2_2 1_555 1_555
O1_2 Co13_2 1_555 1_555
Co2_2 O2_2 1_555 1_555
Co23 N73 1_555 1_555
N73 N74 1_555 1_555
N74 C56 1_555 1_555
C55 C56 1_555 1_555
C56 N82 1_555 1_555
C57 C55 1_555 1_555
H19 C57 1_555 1_555
O10 Co23 1_555 1_555
N75 N76 1_555 1_555
N76 C59 1_555 1_555
C58 C57 1_555 1_555
C59 C58 1_555 1_555
C60 C58 1_555 1_555
H20 C60 1_555 1_555
N77 N78 1_555 1_555
N78 C62 1_555 1_555
C61 C60 1_555 1_555
C62 C61 1_555 1_555
C63 C55 1_555 1_555
H21 C63 1_555 1_555
N79 Co13_2 1_555 1_555
N80 C59 1_555 1_555
N108 N73 1_555 1_555
N82 N108 1_555 1_555
N83 N77 1_555 1_555
N84 C62 1_555 1_555
Co11_2 Cl1_2 1_555 1_555
O11_2 Co11_2 1_555 1_555
Co21 N85 1_555 1_555
N85 N86 1_555 1_555
N86 C65 1_555 1_555
C64 C65 1_555 1_555
C65 N94 1_555 1_555
C66 C64 1_555 1_555
H22 C66 1_555 1_555
O12 Co21 1_555 1_555
N87 Co13_2 1_555 1_555
N88 N87 1_555 1_555
C67 C66 1_555 1_555
C68 N88 1_555 1_555
C69 C67 1_555 1_555
H23 C69 1_555 1_555
N98 N90 1_555 1_555
N90 C71 1_555 1_555
C70 C69 1_555 1_555
C71 C70 1_555 1_555
C72 C64 1_555 1_555
H24 C72 1_555 1_555
N91 N87 1_555 1_555
N92 C68 1_555 1_555
N93 N85 1_555 1_555
N94 N93 1_555 1_555
N95 Co23 1_555 1_555
N96 C71 1_555 1_555
Co21_2 N83 1_555 1_555
Co26_2 Cl1_2 1_555 1_555
Co30 N93 1_555 1_555
Co30_2 N77 1_555 1_555
Cl8 Co21 1_555 1_555
N97 Co2_2 1_555 1_555
N106 Co2_2 1_555 1_555
N111 Co21 1_555 1_555
N118 Co11_2 1_555 1_555
N75 N79 1_555 1_555
N75 Co11_2 1_555 1_555
C61 C63 1_555 1_555
N79 N80 1_555 1_555
N83 N84 1_555 1_555
C67 C68 1_555 1_555
N98 N95 1_555 1_555
C70 C72 1_555 1_555
N91 N92 1_555 1_555
N91 Co26_2 1_555 1_555
N95 N96 1_555 1_555
N97 N118 1_555 1_555
O12_2 Co21_2 1_555 1_555
Cl8_2 Co21_2 1_555 1_555
N101 Co21_2 1_555 1_555
O10_2 Co23_2 1_555 1_555
N104 Co23_2 1_555 1_555
N113 Co23_2 1_555 1_555
N104 N38_2 1_555 1_555
N38_2 C29_2 1_555 1_555
C28_2 C29_2 1_555 1_555
C29_2 N46_2 1_555 1_555
C30_2 C28_2 1_555 1_555
H10_2 C30_2 1_555 1_555
N39_2 N40_2 1_555 1_555
N40_2 C32_2 1_555 1_555
C31_2 C30_2 1_555 1_555
C32_2 C31_2 1_555 1_555
C33_2 C31_2 1_555 1_555
H11_2 C33_2 1_555 1_555
N41_2 N42_2 1_555 1_555
N42_2 C35_2 1_555 1_555
C34_2 C33_2 1_555 1_555
C35_2 C34_2 1_555 1_555
C36_2 C28_2 1_555 1_555
H12_2 C36_2 1_555 1_555
N106 N39_2 1_555 1_555
N44_2 C32_2 1_555 1_555
N109 N104 1_555 1_555
N46_2 N109 1_555 1_555
N48_2 C35_2 1_555 1_555
Co26_2 N39_2 1_555 1_555
N41_2 N111 1_555 1_555
N41_2 Co33 1_555 1_555
C34_2 C36_2 1_555 1_555
N106 N44_2 1_555 1_555
N111 N48_2 1_555 1_555
N2_2 N97 1_555 1_555
C1_2 C2_2 1_555 1_555
C2_2 N2_2 1_555 1_555
C3_2 C1_2 1_555 1_555
H1_2 C3_2 1_555 1_555
N99 N4_2 1_555 1_555
N4_2 C5_2 1_555 1_555
C4_2 C3_2 1_555 1_555
C5_2 C4_2 1_555 1_555
C6_2 C4_2 1_555 1_555
H2_2 C6_2 1_555 1_555
N101 N6_2 1_555 1_555
N6_2 C8_2 1_555 1_555
C7_2 C6_2 1_555 1_555
C8_2 C7_2 1_555 1_555
C9_2 C1_2 1_555 1_555
H3_2 C9_2 1_555 1_555
N113 N99 1_555 1_555
N8_2 C5_2 1_555 1_555
N10_2 C2_2 1_555 1_555
N11_2 N101 1_555 1_555
N12_2 C8_2 1_555 1_555
Co33_2 N11_2 1_555 1_555
C7_2 C9_2 1_555 1_555
N113 N8_2 1_555 1_555
N118 N10_2 1_555 1_555
N11_2 N12_2 1_555 1_555
O11_3 Co26 1_555 1_555
O11_4 Co26_2 1_555 1_555
O8 Co30 1_555 1_555
O8_2 Co30_2 1_555 1_555
O10_3 Co33 1_555 1_555
O10_4 Co33_2 1_555 1_555

#END
