
###############################################################################
#
# This file contains modified crystal structure data generated from the
# MOF subset of the Cambridge Structural Database (CSD) v543 
# hosted by the Cambridge Crystallographic Data Centre (CCDC).
#
# This work is licensed under the Creative Commons
# Attribution-NonCommercial-ShareAlike 4.0 International License.
# To view a copy of this license, visit
# http://creativecommons.org/licenses/by-nc-sa/4.0/
# or send a letter to
# Creative Commons, PO Box 1866, Mountain View, CA 94042, USA.
#
# CIF created using the CSD Python API on 29 September 2022
# The structure has been converted into the P1 space group
# The structure has a 3D framework
# The original CSD entry FECYUJ is in the triclinic crystal system
# The framework has been calculated to contain at least 10.0% void space
# The void calculation uses a probe of radius 1.32A, grid spacing 0.4
#
###############################################################################

data_FECYUJ
_chemical_formula_moiety         '(C150 H98 N2 O58 Zn14)n'
_symmetry_cell_setting           triclinic
_symmetry_space_group_name_H-M   'P 1'
_symmetry_Int_Tables_number      1
_space_group_name_Hall           'P 1'
loop_
_symmetry_equiv_pos_site_id
_symmetry_equiv_pos_as_xyz
1 x,y,z
_cell_length_a                   18.6086(8)
_cell_length_b                   20.2422(7)
_cell_length_c                   20.8135(7)
_cell_angle_alpha                70.421(3)
_cell_angle_beta                 68.955(3)
_cell_angle_gamma                68.031(4)
_cell_volume                     6600.68
loop_
_atom_site_label
_atom_site_type_symbol
_atom_site_fract_x
_atom_site_fract_y
_atom_site_fract_z
Zn6 Zn 0.19587(3) 0.07844(3) 0.04017(3)
Zn7 Zn 0.05113(3) 0.22246(3) 0.04027(2)
O8 O 0.0973(3) 0.0473(2) 0.0929(2)
C3 C 0.0249(3) 0.0809(3) 0.1144(3)
O31 O 0.16572(18) 0.18387(15) 0.00863(14)
O33 O 0.0142(2) 0.2888(2) 0.1020(2)
O37 O 0.2560(3) 0.0319(2) 0.1088(2)
O35 O 0.2470(3) 0.0287(2) 0.96243(19)
O18 O 0.1044(2) 0.2590(2) 0.86834(18)
O22 O 0.1330(2) 0.2932(2) 0.10112(19)
C2 C 0.0599(4) 0.3107(3) 0.1193(3)
C8 C 0.0032(3) 0.9649(3) 0.1972(3)
H9 H 0.0586 0.9441 0.1841
C11 C 0.0151(3) 0.3631(3) 0.1680(3)
C17 C 0.0569(4) 0.3957(4) 0.1854(4)
H13 H 0.1126 0.3841 0.1678
C20 C 0.0079(3) 0.3445(3) 0.7777(3)
H14 H 0.0616 0.3215 0.7582
H20 H 0.0410 0.3822 0.6367
C46 C 0.0325(3) 0.2866(3) 0.8968(3)
C55 C 0.0184(4) 0.4445(5) 0.2276(4)
H31 H 0.0474 0.4671 0.2373
H33 H 0.0405 0.8274 0.2667
Zn10 Zn 0.19902(3) 0.20825(3) 0.90605(2)
Zn17 Zn 0.22546(3) 0.22332(3) 0.04454(3)
O3 O 0.9938(2) 0.1486(2) 0.09644(19)
O19 O 0.2501(2) 0.1223(2) 0.86604(18)
O27 O 0.23759(18) 0.13670(16) 0.13382(14)
O30 O 0.3054(3) 0.2519(3) 0.0751(3)
C18 C 0.9711(3) 0.0368(3) 0.1673(3)
C22 C 0.4111(3) 0.0028(3) 0.6591(3)
H16 H 0.3969 0.0525 0.6380
C30 C 0.8884(4) 0.0675(3) 0.1872(4)
H19 H 0.8664 0.1163 0.1668
C39 C 0.3376(3) 0.0269(3) 0.7777(3)
H23 H 0.3229 0.0770 0.7582
C40 C 0.3136(3) 0.0015(3) 0.8499(3)
C41 C 0.8381(4) 0.0280(3) 0.2358(4)
H24 H 0.7830 0.0502 0.2488
C44 C 0.2655(3) 0.0553(3) 0.8964(3)
C59 C 0.4083(6) 0.0204(4) 0.2552(4)
H35 H 0.4404 0.0417 0.2624
C64 C 0.2618(4) 0.0709(4) 0.1431(3)
C66 C 0.3126(4) 0.0269(4) 0.1952(3)
C71 C 0.3557(6) 0.0610(4) 0.2118(4)
H41 H 0.3491 0.1110 0.1938
C73 C 0.2909(7) 0.3160(6) 0.0763(5)
H43 H 0.2462 0.3502 0.0622
N1 N 0.3388(9) 0.3402(8) 0.0980(6)
C74 C 0.3229(13) 0.4129(12) 0.1046(11)
H44 H 0.3675 0.4315 0.0749
H45 H 0.3155 0.4119 0.1529
H46 H 0.2751 0.4439 0.0903
C75 C 0.4128(12) 0.2882(11) 0.1098(10)
H47 H 0.4017 0.2476 0.1479
H48 H 0.4416 0.3111 0.1217
H49 H 0.4449 0.2710 0.0675
O34 O 0.2679(3) 0.2710(2) 0.8597(2)
O29 O 0.33452(18) 0.15516(16) 0.98327(14)
H5 H 0.3889 0.1465 0.9730
H6 H 0.3216 0.1149 0.9874
O36 O 0.9999(2) 0.2781(2) 0.96268(17)
O40 O 0.2434(3) 0.3097(2) 0.9548(2)
Zn1 Zn 0.63553(3) 0.78775(3) 0.47691(2)
Zn2 Zn 0.61532(3) 0.64152(3) 0.47331(3)
Zn3 Zn 0.78068(3) 0.64767(3) 0.47471(2)
Zn4 Zn 0.63571(3) 0.65894(3) 0.61730(3)
O1 O 0.66564(17) 0.68268(15) 0.51020(14)
O4 O 0.8436(2) 0.5753(2) 0.53720(18)
O5 O 0.5697(2) 0.85211(18) 0.54086(17)
O6 O 0.8086(2) 0.5956(2) 0.4001(2)
O7 O 0.7258(2) 0.82588(18) 0.41564(18)
O9 O 0.6922(2) 0.5859(2) 0.4027(2)
O10 O 0.5609(3) 0.5716(2) 0.54023(18)
O13 O 0.5371(2) 0.71676(19) 0.42335(19)
O17 O 0.5534(2) 0.6041(2) 0.63433(18)
O20 O 0.5678(3) 0.8174(2) 0.4114(2)
O21 O 0.8325(2) 0.72570(19) 0.42078(18)
O23 O 0.7336(2) 0.5603(2) 0.62413(18)
O24 O 0.5445(2) 0.7582(2) 0.62950(19)
O25 O 0.6120(3) 0.6353(3) 0.7276(2)
H1 H 0.626(3) 0.5831(12) 0.748(3)
H2 H 0.5565(15) 0.652(3) 0.751(3)
O28 O 0.72777(18) 0.71491(16) 0.60895(14)
H3 H 0.7444 0.7304 0.6363
H4 H 0.7417 0.6656 0.6179
C1 C 0.5396(3) 0.5674(3) 0.6053(3)
C4 C 0.7997(3) 0.7924(3) 0.3974(2)
C5 C 0.8219(3) 0.9097(3) 0.3171(3)
H7 H 0.7667 0.9311 0.3313
C6 C 0.4908(3) 0.4599(3) 0.6230(3)
H8 H 0.5159 0.4601 0.5754
C7 C 0.4940(3) 0.5123(3) 0.6522(3)
C9 C 0.3655(3) 0.3597(3) 0.7784(3)
H10 H 0.3635 0.3253 0.7591
C10 C 0.4571(3) 0.5122(3) 0.7217(3)
H11 H 0.4606 0.5459 0.7408
C12 C 0.8705(3) 0.9532(3) 0.2662(3)
C13 C 0.4107(3) 0.4097(3) 0.7358(3)
C14 C 0.8531(3) 0.8370(3) 0.3463(3)
C15 C 0.4513(3) 0.4092(3) 0.6639(3)
H12 H 0.4509 0.3741 0.6446
C16 C 0.9544(3) 0.9211(3) 0.2476(3)
C19 C 0.9585(3) 0.3909(3) 0.7323(2)
C21 C 0.8917(3) 0.5073(3) 0.3036(3)
H15 H 0.9201 0.5284 0.3157
C23 C 0.4586(3) 0.9531(3) 0.6183(3)
H17 H 0.4758 0.9699 0.5695
C24 C 0.4818(3) 0.8780(3) 0.6480(3)
C25 C 0.3839(3) 0.9786(3) 0.7329(2)
C26 C 0.8599(3) 0.4912(3) 0.6453(3)
C27 C 0.9332(3) 0.4607(3) 0.2568(3)
C28 C 0.9400(3) 0.4571(3) 0.6154(3)
H18 H 0.9612 0.4686 0.5666
C29 C 0.5359(3) 0.8251(3) 0.6025(3)
C31 C 0.9884(3) 0.4064(3) 0.6575(3)
C32 C 0.3365(4) 0.9262(3) 0.8805(3)
H21 H 0.3217 0.9096 0.9294
C33 C 0.3247(4) 0.3614(3) 0.8477(3)
C34 C 0.3795(5) 0.8780(3) 0.8400(3)
H22 H 0.3920 0.8282 0.8610
C35 C 0.7674(3) 0.5717(3) 0.3823(3)
C36 C 0.9780(3) 0.3328(3) 0.8497(3)
C37 C 0.2763(4) 0.3094(3) 0.8921(3)
C38 C 0.8070(4) 0.5465(3) 0.5998(3)
C42 C 0.8099(3) 0.5224(3) 0.3320(3)
C43 C 0.4067(4) 0.9022(3) 0.7640(3)
C45 C 0.4559(4) 0.8530(3) 0.7196(3)
H25 H 0.4708 0.8030 0.7395
C47 C 0.8962(3) 0.3684(4) 0.8788(3)
H26 H 0.8759 0.3606 0.9277
C48 C 0.9325(3) 0.3795(3) 0.1947(3)
H27 H 0.9045 0.3578 0.1827
C49 C 0.8478(4) 0.4122(4) 0.8382(3)
H28 H 0.7944 0.4342 0.8592
C50 C 0.8903(3) 0.4276(3) 0.2391(3)
C51 C 0.8765(3) 0.4265(3) 0.7621(3)
C52 C 0.4138(4) 0.4620(3) 0.7650(3)
C53 C 0.8279(3) 0.4755(3) 0.7175(3)
H29 H 0.7739 0.4973 0.7369
C54 C 0.8067(4) 0.4448(4) 0.2682(4)
H30 H 0.7774 0.4241 0.2566
C56 C 0.7671(3) 0.4911(4) 0.3130(4)
H32 H 0.7115 0.5019 0.3310
C57 C 0.9851(4) 0.8485(4) 0.2786(4)
C58 C 0.3286(5) 0.4149(4) 0.8766(3)
H34 H 0.3005 0.4173 0.9233
C60 C 0.4107(4) 0.9467(3) 0.2873(3)
C61 C 0.5303(3) 0.7848(3) 0.4008(3)
C62 C 0.9375(4) 0.8065(3) 0.3260(4)
H36 H 0.9607 0.7575 0.3451
C63 C 0.4722(4) 0.8285(3) 0.3570(3)
C65 C 0.4626(4) 0.9020(3) 0.3309(3)
H37 H 0.4913 0.9235 0.3423
C67 C 0.3731(5) 0.4622(4) 0.8365(3)
H38 H 0.3765 0.4951 0.8567
C68 C 0.4263(4) 0.7963(3) 0.3423(4)
H39 H 0.4314 0.7466 0.3604
C69 C 0.3186(4) 0.9555(4) 0.2247(3)
H40 H 0.2900 0.9334 0.2137
C70 C 0.3666(4) 0.9131(3) 0.2716(3)
C72 C 0.3738(5) 0.8385(4) 0.3009(4)
H42 H 0.3428 0.8169 0.2925
Zn1_2 Zn 0.36447(3) 0.21225(3) 0.52309(2)
Zn2_2 Zn 0.38468(3) 0.35848(3) 0.52669(3)
Zn3_2 Zn 0.21932(3) 0.35233(3) 0.52529(2)
Zn4_2 Zn 0.36429(3) 0.34106(3) 0.38270(3)
O1_2 O 0.33436(17) 0.31732(15) 0.48980(14)
O4_2 O 0.1564(2) 0.4247(2) 0.46280(18)
O5_2 O 0.4303(2) 0.14789(18) 0.45914(17)
O6_2 O 0.1914(2) 0.4044(2) 0.5999(2)
O7_2 O 0.2742(2) 0.17412(18) 0.58436(18)
O9_2 O 0.3078(2) 0.4141(2) 0.5973(2)
O10_2 O 0.4391(3) 0.4284(2) 0.45977(18)
O12 O 0.7321(3) 0.7290(2) 0.1403(2)
O13_2 O 0.4629(2) 0.28324(19) 0.57665(19)
O15 O 0.0001(2) 0.7219(2) 0.03732(17)
O17_2 O 0.4466(2) 0.3959(2) 0.36567(18)
O20_2 O 0.4322(3) 0.1826(2) 0.5886(2)
O21_2 O 0.1675(2) 0.27430(19) 0.57922(18)
O23_2 O 0.2664(2) 0.4397(2) 0.37587(18)
O24_2 O 0.4555(2) 0.2418(2) 0.37050(19)
O25_2 O 0.3880(3) 0.3647(3) 0.2724(2)
H1_2 H 0.374(3) 0.4169(12) 0.252(3)
H2_2 H 0.4435(15) 0.348(3) 0.249(3)
O26 O 0.7566(3) 0.6903(2) 0.0452(2)
O28_2 O 0.27223(18) 0.28509(16) 0.39105(14)
H3_2 H 0.2556 0.2696 0.3637
H4_2 H 0.2583 0.3344 0.3821
C1_2 C 0.4604(3) 0.4326(3) 0.3947(3)
C4_2 C 0.2003(3) 0.2076(3) 0.6026(2)
C5_2 C 0.1781(3) 0.0903(3) 0.6829(3)
H7_2 H 0.2333 0.0689 0.6687
C6_2 C 0.5092(3) 0.5401(3) 0.3770(3)
H8_2 H 0.4841 0.5399 0.4246
C7_2 C 0.5060(3) 0.4877(3) 0.3478(3)
C9_2 C 0.6345(3) 0.6403(3) 0.2216(3)
H10_2 H 0.6365 0.6747 0.2409
C10_2 C 0.5429(3) 0.4878(3) 0.2783(3)
H11_2 H 0.5394 0.4541 0.2592
C12_2 C 0.1295(3) 0.0468(3) 0.7338(3)
C13_2 C 0.5893(3) 0.5903(3) 0.2642(3)
C14_2 C 0.1469(3) 0.1630(3) 0.6537(3)
C15_2 C 0.5487(3) 0.5908(3) 0.3361(3)
H12_2 H 0.5491 0.6259 0.3554
C16_2 C 0.0456(3) 0.0789(3) 0.7524(3)
C19_2 C 0.0415(3) 0.6091(3) 0.2677(2)
C21_2 C 0.1083(3) 0.4927(3) 0.6964(3)
H15_2 H 0.0799 0.4716 0.6843
C23_2 C 0.5414(3) 0.0469(3) 0.3817(3)
H17_2 H 0.5242 0.0301 0.4305
C24_2 C 0.5182(3) 0.1220(3) 0.3520(3)
C25_2 C 0.6161(3) 0.0214(3) 0.2671(2)
C26_2 C 0.1401(3) 0.5088(3) 0.3547(3)
C27_2 C 0.0668(3) 0.5393(3) 0.7432(3)
C28_2 C 0.0600(3) 0.5429(3) 0.3846(3)
H18_2 H 0.0388 0.5314 0.4334
C29_2 C 0.4641(3) 0.1749(3) 0.3975(3)
C31_2 C 0.0116(3) 0.5936(3) 0.3425(3)
C32_2 C 0.6635(4) 0.0738(3) 0.1195(3)
H21_2 H 0.6783 0.0904 0.0706
C33_2 C 0.6753(4) 0.6386(3) 0.1523(3)
C34_2 C 0.6205(5) 0.1220(3) 0.1600(3)
H22_2 H 0.6080 0.1718 0.1390
C35_2 C 0.2326(3) 0.4283(3) 0.6177(3)
C36_2 C 0.0220(3) 0.6672(3) 0.1503(3)
C37_2 C 0.7237(4) 0.6906(3) 0.1079(3)
C38_2 C 0.1930(4) 0.4535(3) 0.4002(3)
C42_2 C 0.1901(3) 0.4776(3) 0.6680(3)
C43_2 C 0.5933(4) 0.0978(3) 0.2360(3)
C45_2 C 0.5441(4) 0.1470(3) 0.2804(3)
H25_2 H 0.5292 0.1970 0.2605
C47_2 C 0.1038(3) 0.6316(4) 0.1212(3)
H26_2 H 0.1241 0.6394 0.0723
C48_2 C 0.0675(3) 0.6205(3) 0.8053(3)
H27_2 H 0.0955 0.6422 0.8173
C49_2 C 0.1522(4) 0.5878(4) 0.1618(3)
H28_2 H 0.2056 0.5658 0.1408
C50_2 C 0.1097(3) 0.5724(3) 0.7609(3)
C51_2 C 0.1235(3) 0.5735(3) 0.2379(3)
C52_2 C 0.5862(4) 0.5380(3) 0.2350(3)
C53_2 C 0.1721(3) 0.5245(3) 0.2825(3)
H29_2 H 0.2261 0.5027 0.2631
C54_2 C 0.1933(4) 0.5552(4) 0.7318(4)
H30_2 H 0.2226 0.5759 0.7434
C56_2 C 0.2329(3) 0.5089(4) 0.6870(4)
H32_2 H 0.2885 0.4981 0.6690
C57_2 C 0.0149(4) 0.1515(4) 0.7214(4)
C58_2 C 0.6714(5) 0.5851(4) 0.1234(3)
H34_2 H 0.6995 0.5827 0.0767
C60_2 C 0.5893(4) 0.0533(3) 0.7127(3)
C61_2 C 0.4697(3) 0.2152(3) 0.5992(3)
C62_2 C 0.0625(4) 0.1935(3) 0.6740(4)
H36_2 H 0.0393 0.2425 0.6549
C63_2 C 0.5278(4) 0.1715(3) 0.6430(3)
C65_2 C 0.5374(4) 0.0980(3) 0.6691(3)
H37_2 H 0.5087 0.0765 0.6577
C67_2 C 0.6269(5) 0.5378(4) 0.1635(3)
H38_2 H 0.6235 0.5049 0.1433
C68_2 C 0.5737(4) 0.2037(3) 0.6577(4)
H39_2 H 0.5686 0.2534 0.6396
C69_2 C 0.6814(4) 0.0445(4) 0.7753(3)
H40_2 H 0.7100 0.0666 0.7863
C70_2 C 0.6334(4) 0.0869(3) 0.7284(3)
C72_2 C 0.6262(5) 0.1615(4) 0.6991(4)
H42_2 H 0.6572 0.1831 0.7075
Zn9 Zn 0.80098(3) 0.79175(3) 0.09395(2)
Zn18 Zn 0.77454(3) 0.77668(3) 0.95546(3)
O29_2 O 0.66548(18) 0.84484(16) 0.01673(14)
H5_2 H 0.6111 0.8535 0.0270
H6_2 H 0.6784 0.8851 0.0126
O3_2 O 0.0062(2) 0.8514(2) 0.90356(19)
O14 O 0.7530(3) 0.9713(2) 0.03757(19)
O16 O 0.7440(3) 0.9681(2) 0.8912(2)
O19_2 O 0.7499(2) 0.8777(2) 0.13396(18)
O27_2 O 0.76241(18) 0.86330(16) 0.86618(14)
O30_2 O 0.6946(3) 0.7481(3) 0.9249(3)
C18_2 C 0.0289(3) 0.9632(3) 0.8327(3)
C22_2 C 0.5889(3) 0.9972(3) 0.3409(3)
H16_2 H 0.6031 0.9475 0.3620
C30_2 C 0.1116(4) 0.9325(3) 0.8128(4)
H19_2 H 0.1336 0.8837 0.8332
C39_2 C 0.6624(3) 0.9731(3) 0.2223(3)
H23_2 H 0.6771 0.9230 0.2418
C40_2 C 0.6864(3) 0.9985(3) 0.1501(3)
C41_2 C 0.1619(4) 0.9720(3) 0.7642(4)
H24_2 H 0.2170 0.9498 0.7512
C44_2 C 0.7345(3) 0.9447(3) 0.1036(3)
C59_2 C 0.5917(6) 0.9796(4) 0.7448(4)
H35_2 H 0.5596 0.9583 0.7376
C64_2 C 0.7382(4) 0.9291(4) 0.8569(3)
C66_2 C 0.6874(4) 0.9731(4) 0.8048(3)
C71_2 C 0.6443(6) 0.9390(4) 0.7882(4)
H41_2 H 0.6509 0.8890 0.8062
C73_2 C 0.7091(7) 0.6840(6) 0.9237(5)
H43_2 H 0.7538 0.6498 0.9378
N1_2 N 0.6612(9) 0.6598(8) 0.9020(6)
C74_2 C 0.6771(13) 0.5871(12) 0.8954(11)
H44_2 H 0.6325 0.5685 0.9251
H45_2 H 0.6845 0.5881 0.8471
H46_2 H 0.7249 0.5561 0.9097
C75_2 C 0.5872(12) 0.7118(11) 0.8902(10)
H47_2 H 0.5983 0.7524 0.8521
H48_2 H 0.5584 0.6889 0.8783
H49_2 H 0.5551 0.7290 0.9325
Zn12 Zn 0.80413(3) 0.92156(3) 0.95983(3)
O32 O 0.83428(18) 0.81613(15) 0.99137(14)
O38 O 0.8956(2) 0.7410(2) 0.13166(18)
O39 O 0.8670(2) 0.7068(2) 0.89888(19)
Zn13 Zn 0.94887(3) 0.77754(3) 0.95973(2)
O11 O 0.9858(2) 0.7112(2) 0.8980(2)
C2_2 C 0.9401(4) 0.6893(3) 0.8807(3)
C8_2 C 0.9968(3) 0.0351(3) 0.8028(3)
H9_2 H 0.9414 0.0559 0.8159
C11_2 C 0.9849(3) 0.6369(3) 0.8320(3)
C17_2 C 0.9431(4) 0.6043(4) 0.8146(4)
H13_2 H 0.8874 0.6159 0.8322
C20_2 C 0.9921(3) 0.6555(3) 0.2223(3)
H14_2 H 0.9384 0.6785 0.2418
H20_2 H 0.9590 0.6178 0.3633
C46_2 C 0.9675(3) 0.7134(3) 0.1032(3)
C55_2 C 0.9816(4) 0.5555(5) 0.7724(4)
H31_2 H 0.9526 0.5329 0.7627
H33_2 H 0.9595 0.1726 0.7333
O8_2 O 0.9027(3) 0.9527(2) 0.9071(2)
C3_2 C 0.9751(3) 0.9191(3) 0.8856(3)
loop_
_geom_bond_atom_site_label_1
_geom_bond_atom_site_label_2
_geom_bond_site_symmetry_1
_geom_bond_site_symmetry_2
Zn6 O8 1_555 1_555
O8 C3 1_555 1_555
O31 Zn6 1_555 1_555
O33 Zn7 1_555 1_555
O37 Zn6 1_555 1_555
Zn7 O31 1_555 1_555
O33 C2 1_555 1_555
O18 C46 1_555 1_555
O22 C2 1_555 1_555
C2 C11 1_555 1_555
C8 H9 1_555 1_555
C11 C17 1_555 1_555
C17 H13 1_555 1_555
C20 H14 1_555 1_555
C55 C17 1_555 1_555
H31 C55 1_555 1_555
Zn10 O18 1_555 1_555
Zn17 O22 1_555 1_555
Zn17 O31 1_555 1_555
Zn17 O27 1_555 1_555
O35 C44 1_555 1_555
O37 C64 1_555 1_555
O19 Zn10 1_555 1_555
O27 C64 1_555 1_555
O30 Zn17 1_555 1_555
C22 H16 1_555 1_555
C30 C18 1_555 1_555
H19 C30 1_555 1_555
H23 C39 1_555 1_555
H24 C41 1_555 1_555
C44 O19 1_555 1_555
C59 H35 1_555 1_555
C64 C66 1_555 1_555
C71 C59 1_555 1_555
H41 C71 1_555 1_555
C73 O30 1_555 1_555
H43 C73 1_555 1_555
N1 C73 1_555 1_555
C74 N1 1_555 1_555
H44 C74 1_555 1_555
H45 C74 1_555 1_555
H46 C74 1_555 1_555
C75 N1 1_555 1_555
H47 C75 1_555 1_555
H48 C75 1_555 1_555
H49 C75 1_555 1_555
O34 Zn10 1_555 1_555
C30 C41 1_555 1_555
C39 C40 1_555 1_555
C40 C44 1_555 1_555
C66 C71 1_555 1_555
H5 O29 1_555 1_555
H6 O29 1_555 1_555
Zn1 O1 1_555 1_555
Zn2 O1 1_555 1_555
Zn3 O1 1_555 1_555
Zn4 O1 1_555 1_555
O4 Zn3 1_555 1_555
O5 Zn1 1_555 1_555
O6 Zn3 1_555 1_555
O7 Zn1 1_555 1_555
O9 Zn2 1_555 1_555
O10 Zn2 1_555 1_555
O34 C37 1_555 1_555
O13 Zn2 1_555 1_555
O17 Zn4 1_555 1_555
O20 Zn1 1_555 1_555
O21 Zn3 1_555 1_555
O23 Zn4 1_555 1_555
O24 Zn4 1_555 1_555
O25 Zn4 1_555 1_555
H1 O25 1_555 1_555
H2 O25 1_555 1_555
O40 C37 1_555 1_555
O28 Zn4 1_555 1_555
H3 O28 1_555 1_555
H4 O28 1_555 1_555
C1 O10 1_555 1_555
C4 O7 1_555 1_555
C5 H7 1_555 1_555
C6 H8 1_555 1_555
C7 C1 1_555 1_555
C9 H10 1_555 1_555
C10 C7 1_555 1_555
H11 C10 1_555 1_555
C12 C5 1_555 1_555
C13 C9 1_555 1_555
C14 C4 1_555 1_555
C15 C6 1_555 1_555
H12 C15 1_555 1_555
C21 H15 1_555 1_555
H17 C23 1_555 1_555
C24 C23 1_555 1_555
C26 C28 1_555 1_555
C27 C21 1_555 1_555
C28 H18 1_555 1_555
C29 O5 1_555 1_555
C31 C19 1_555 1_555
C32 H21 1_555 1_555
C33 C9 1_555 1_555
C34 C32 1_555 1_555
H22 C34 1_555 1_555
C35 O6 1_555 1_555
C37 C33 1_555 1_555
C38 O4 1_555 1_555
C42 C21 1_555 1_555
C43 C25 1_555 1_555
C45 C24 1_555 1_555
H25 C45 1_555 1_555
C47 C36 1_555 1_555
H26 C47 1_555 1_555
H27 C48 1_555 1_555
C49 C47 1_555 1_555
H28 C49 1_555 1_555
C50 C27 1_555 1_555
C51 C19 1_555 1_555
C52 C10 1_555 1_555
C53 C26 1_555 1_555
H29 C53 1_555 1_555
C54 C50 1_555 1_555
H30 C54 1_555 1_555
C56 C42 1_555 1_555
H32 C56 1_555 1_555
C57 C16 1_555 1_555
C58 C33 1_555 1_555
H34 C58 1_555 1_555
C61 O13 1_555 1_555
C62 C14 1_555 1_555
H36 C62 1_555 1_555
C63 C61 1_555 1_555
C65 C60 1_555 1_555
H37 C65 1_555 1_555
C67 C52 1_555 1_555
H38 C67 1_555 1_555
C68 C63 1_555 1_555
H39 C68 1_555 1_555
C69 H40 1_555 1_555
C70 C60 1_555 1_555
C72 C68 1_555 1_555
H42 C72 1_555 1_555
O9 C35 1_555 1_555
O17 C1 1_555 1_555
O20 C61 1_555 1_555
O21 C4 1_555 1_555
O23 C38 1_555 1_555
O24 C29 1_555 1_555
C5 C14 1_555 1_555
C6 C7 1_555 1_555
C12 C16 1_555 1_555
C13 C15 1_555 1_555
C13 C52 1_555 1_555
C24 C29 1_555 1_555
C26 C38 1_555 1_555
C28 C31 1_555 1_555
C34 C43 1_555 1_555
C35 C42 1_555 1_555
C43 C45 1_555 1_555
C48 C50 1_555 1_555
C49 C51 1_555 1_555
C51 C53 1_555 1_555
C54 C56 1_555 1_555
C57 C62 1_555 1_555
C58 C67 1_555 1_555
C63 C65 1_555 1_555
C69 C70 1_555 1_555
C70 C72 1_555 1_555
Zn1_2 O1_2 1_555 1_555
Zn2_2 O1_2 1_555 1_555
Zn3_2 O1_2 1_555 1_555
Zn4_2 O1_2 1_555 1_555
O4_2 Zn3_2 1_555 1_555
O5_2 Zn1_2 1_555 1_555
O6_2 Zn3_2 1_555 1_555
O7_2 Zn1_2 1_555 1_555
O9_2 Zn2_2 1_555 1_555
O10_2 Zn2_2 1_555 1_555
O12 C37_2 1_555 1_555
O13_2 Zn2_2 1_555 1_555
O17_2 Zn4_2 1_555 1_555
O20_2 Zn1_2 1_555 1_555
O21_2 Zn3_2 1_555 1_555
O23_2 Zn4_2 1_555 1_555
O24_2 Zn4_2 1_555 1_555
O25_2 Zn4_2 1_555 1_555
H1_2 O25_2 1_555 1_555
H2_2 O25_2 1_555 1_555
O26 C37_2 1_555 1_555
O28_2 Zn4_2 1_555 1_555
H3_2 O28_2 1_555 1_555
H4_2 O28_2 1_555 1_555
C1_2 O10_2 1_555 1_555
C4_2 O7_2 1_555 1_555
C5_2 H7_2 1_555 1_555
C6_2 H8_2 1_555 1_555
C7_2 C1_2 1_555 1_555
C9_2 H10_2 1_555 1_555
C10_2 C7_2 1_555 1_555
H11_2 C10_2 1_555 1_555
C12_2 C5_2 1_555 1_555
C13_2 C9_2 1_555 1_555
C14_2 C4_2 1_555 1_555
C15_2 C6_2 1_555 1_555
H12_2 C15_2 1_555 1_555
C21_2 H15_2 1_555 1_555
H17_2 C23_2 1_555 1_555
C24_2 C23_2 1_555 1_555
C26_2 C28_2 1_555 1_555
C27_2 C21_2 1_555 1_555
C28_2 H18_2 1_555 1_555
C29_2 O5_2 1_555 1_555
C31_2 C19_2 1_555 1_555
C32_2 H21_2 1_555 1_555
C33_2 C9_2 1_555 1_555
C34_2 C32_2 1_555 1_555
H22_2 C34_2 1_555 1_555
C35_2 O6_2 1_555 1_555
C37_2 C33_2 1_555 1_555
C38_2 O4_2 1_555 1_555
C42_2 C21_2 1_555 1_555
C43_2 C25_2 1_555 1_555
C45_2 C24_2 1_555 1_555
H25_2 C45_2 1_555 1_555
C47_2 C36_2 1_555 1_555
H26_2 C47_2 1_555 1_555
H27_2 C48_2 1_555 1_555
C49_2 C47_2 1_555 1_555
H28_2 C49_2 1_555 1_555
C50_2 C27_2 1_555 1_555
C51_2 C19_2 1_555 1_555
C52_2 C10_2 1_555 1_555
C53_2 C26_2 1_555 1_555
H29_2 C53_2 1_555 1_555
C54_2 C50_2 1_555 1_555
H30_2 C54_2 1_555 1_555
C56_2 C42_2 1_555 1_555
H32_2 C56_2 1_555 1_555
C57_2 C16_2 1_555 1_555
C58_2 C33_2 1_555 1_555
H34_2 C58_2 1_555 1_555
C61_2 O13_2 1_555 1_555
C62_2 C14_2 1_555 1_555
H36_2 C62_2 1_555 1_555
C63_2 C61_2 1_555 1_555
C65_2 C60_2 1_555 1_555
H37_2 C65_2 1_555 1_555
C67_2 C52_2 1_555 1_555
H38_2 C67_2 1_555 1_555
C68_2 C63_2 1_555 1_555
H39_2 C68_2 1_555 1_555
C69_2 H40_2 1_555 1_555
C70_2 C60_2 1_555 1_555
C72_2 C68_2 1_555 1_555
H42_2 C72_2 1_555 1_555
Zn9 O12 1_555 1_555
O9_2 C35_2 1_555 1_555
O17_2 C1_2 1_555 1_555
O20_2 C61_2 1_555 1_555
O21_2 C4_2 1_555 1_555
O23_2 C38_2 1_555 1_555
O24_2 C29_2 1_555 1_555
C5_2 C14_2 1_555 1_555
C6_2 C7_2 1_555 1_555
C12_2 C16_2 1_555 1_555
C13_2 C15_2 1_555 1_555
C13_2 C52_2 1_555 1_555
C24_2 C29_2 1_555 1_555
C26_2 C38_2 1_555 1_555
C28_2 C31_2 1_555 1_555
C34_2 C43_2 1_555 1_555
C35_2 C42_2 1_555 1_555
C43_2 C45_2 1_555 1_555
C48_2 C50_2 1_555 1_555
C49_2 C51_2 1_555 1_555
C51_2 C53_2 1_555 1_555
C54_2 C56_2 1_555 1_555
C57_2 C62_2 1_555 1_555
C58_2 C67_2 1_555 1_555
C63_2 C65_2 1_555 1_555
C69_2 C70_2 1_555 1_555
C70_2 C72_2 1_555 1_555
H5_2 O29_2 1_555 1_555
H6_2 O29_2 1_555 1_555
Zn18 O27_2 1_555 1_555
O14 C44_2 1_555 1_555
O16 C64_2 1_555 1_555
O19_2 Zn9 1_555 1_555
O27_2 C64_2 1_555 1_555
O30_2 Zn18 1_555 1_555
C22_2 H16_2 1_555 1_555
C30_2 C18_2 1_555 1_555
H19_2 C30_2 1_555 1_555
H23_2 C39_2 1_555 1_555
H24_2 C41_2 1_555 1_555
C44_2 O19_2 1_555 1_555
C59_2 H35_2 1_555 1_555
C64_2 C66_2 1_555 1_555
C71_2 C59_2 1_555 1_555
H41_2 C71_2 1_555 1_555
C73_2 O30_2 1_555 1_555
H43_2 C73_2 1_555 1_555
N1_2 C73_2 1_555 1_555
C74_2 N1_2 1_555 1_555
H44_2 C74_2 1_555 1_555
H45_2 C74_2 1_555 1_555
H46_2 C74_2 1_555 1_555
C75_2 N1_2 1_555 1_555
H47_2 C75_2 1_555 1_555
H48_2 C75_2 1_555 1_555
H49_2 C75_2 1_555 1_555
Zn12 O16 1_555 1_555
O32 Zn18 1_555 1_555
O38 Zn9 1_555 1_555
O39 Zn18 1_555 1_555
C30_2 C41_2 1_555 1_555
C39_2 C40_2 1_555 1_555
C40_2 C44_2 1_555 1_555
C66_2 C71_2 1_555 1_555
Zn12 O32 1_555 1_555
Zn13 O32 1_555 1_555
O11 C2_2 1_555 1_555
O38 C46_2 1_555 1_555
O39 C2_2 1_555 1_555
C2_2 C11_2 1_555 1_555
C8_2 H9_2 1_555 1_555
C11_2 C17_2 1_555 1_555
C17_2 H13_2 1_555 1_555
C20_2 H14_2 1_555 1_555
C55_2 C17_2 1_555 1_555
H31_2 C55_2 1_555 1_555
Zn13 O11 1_555 1_555
Zn12 O8_2 1_555 1_555
O8_2 C3_2 1_555 1_555

#END
