
###############################################################################
#
# This file contains modified crystal structure data generated from the
# MOF subset of the Cambridge Structural Database (CSD) v543 
# hosted by the Cambridge Crystallographic Data Centre (CCDC).
#
# This work is licensed under the Creative Commons
# Attribution-NonCommercial-ShareAlike 4.0 International License.
# To view a copy of this license, visit
# http://creativecommons.org/licenses/by-nc-sa/4.0/
# or send a letter to
# Creative Commons, PO Box 1866, Mountain View, CA 94042, USA.
#
# CIF created using the CSD Python API on 29 September 2022
# The structure has been converted into the P1 space group
# The structure has a 3D framework
# The original CSD entry FEDBAV is in the cubic crystal system
# The framework has been calculated to contain at least 10.0% void space
# The void calculation uses a probe of radius 1.32A, grid spacing 0.4
# The framework is charged, counterions have been retained in the structure
# H atom positions have been added when not included in the experimental data
#
###############################################################################

data_FEDBAV
_chemical_formula_moiety         '(C624 H384 Co34 N192 O48 42-)n'
_symmetry_cell_setting           triclinic
_symmetry_space_group_name_H-M   'P 1'
_symmetry_Int_Tables_number      1
_space_group_name_Hall           'P 1'
loop_
_symmetry_equiv_pos_site_id
_symmetry_equiv_pos_as_xyz
1 x,y,z
_cell_length_a                   28.4066(3)
_cell_length_b                   28.4066(3)
_cell_length_c                   28.4066(3)
_cell_angle_alpha                90
_cell_angle_beta                 90
_cell_angle_gamma                90
_cell_volume                     22922.3
loop_
_atom_site_label
_atom_site_type_symbol
_atom_site_fract_x
_atom_site_fract_y
_atom_site_fract_z
Co3 Co -0.0000 0.7500 0.6250
H9 H 0.0078 0.5841 0.4530
C19 C 0.0021(6) 0.6652(7) 0.5346(7)
H10 H 0.0196 0.6801 0.5579
C23 C 0.0203(7) 0.6264(7) 0.5053(7)
H14 H 0.0503 0.6146 0.5111
Co4 Co 0.1250 0.5000 0.2500
N9 N 0.0645(5) 0.6314(4) 0.2354(4)
N11 N 0.0877(4) 0.5569(4) 0.2578(4)
C27 C 0.0333(6) 0.6162(5) 0.2701(5)
C32 C 0.0346(7) 0.4979(6) 0.3348(7)
H17 H 0.0579 0.4804 0.3199
C35 C 0.0930(6) 0.5971(5) 0.2280(6)
H20 H 0.1158 0.5983 0.2045
C36 C 0.0053(7) 0.4797(7) 0.3736(7)
H21 H 0.0111 0.4497 0.3854
C38 C 0.0228(5) 0.5468(5) 0.3223(6)
C39 C 0.0473(5) 0.5689(5) 0.2856(6)
N25 N 0.1855(5) 0.5146(4) 0.3814(4)
N26 N 0.2898(5) 0.3728(4) 0.3009(4)
N27 N 0.1623(4) 0.4922(4) 0.3069(4)
N28 N 0.3153(4) 0.3977(4) 0.3849(4)
C79 C 0.2167(6) 0.4799(5) 0.3662(5)
C80 C 0.2719(6) 0.4739(6) 0.4353(5)
H43 H 0.2576 0.4990 0.4508
C81 C 0.2790(6) 0.3581(6) 0.2553(5)
H44 H 0.2970 0.3341 0.2422
C82 C 0.2553(7) 0.4587(5) 0.3891(6)
C83 C 0.2649(6) 0.4077(5) 0.3196(5)
C84 C 0.2154(7) 0.4152(7) 0.2479(6)
H45 H 0.1921 0.4301 0.2304
C85 C 0.3287(6) 0.4119(8) 0.4308(6)
H46 H 0.3521 0.3945 0.4457
C86 C 0.3094(6) 0.4502(7) 0.4556(6)
H47 H 0.3215 0.4594 0.4846
C87 C 0.1570(6) 0.5220(6) 0.3471(5)
H48 H 0.1342 0.5455 0.3483
C88 C 0.2447(7) 0.3764(7) 0.2297(7)
H49 H 0.2389 0.3646 0.1997
C89 C 0.2780(6) 0.4222(6) 0.3675(6)
C90 C 0.2272(5) 0.4277(6) 0.2968(5)
C91 C 0.2027(5) 0.4644(6) 0.3189(5)
N29 N 0.0146(4) 0.1186(4) 0.8145(5)
C100 C 0.0220(6) 0.1529(5) 0.8430(6)
H55 H 0.0455 0.1517 0.8658
N37 N 0.0146(4) 0.8814(4) 0.6855(5)
C126 C 0.0220(6) 0.8471(5) 0.6570(6)
H69 H 0.0455 0.8483 0.6342
N42 N 0.1272(4) 0.6991(4) 0.7898(5)
N43 N 0.0078(4) 0.6931(4) 0.6623(4)
N44 N 0.1023(4) 0.6151(4) 0.8153(4)
C131 C 0.0201(5) 0.6338(5) 0.7167(6)
C132 C 0.0261(6) 0.5647(5) 0.7719(6)
H71 H 0.0010 0.5492 0.7576
C133 C 0.1419(6) 0.7447(5) 0.7790(6)
H72 H 0.1659 0.7578 0.7970
C134 C 0.0413(5) 0.6109(6) 0.7553(7)
C135 C 0.0923(5) 0.6804(5) 0.7649(6)
C136 C 0.0848(7) 0.7521(6) 0.7154(7)
H73 H 0.0699 0.7696 0.6921
C137 C 0.0881(8) 0.5692(6) 0.8287(6)
H74 H 0.1055 0.5543 0.8521
C138 C 0.0498(7) 0.5444(6) 0.8094(6)
H75 H 0.0406 0.5154 0.8215
C140 C 0.1236(7) 0.7703(7) 0.7447(7)
H77 H 0.1354 0.8003 0.7389
C141 C 0.0778(6) 0.6325(6) 0.7780(6)
C142 C 0.0723(6) 0.7032(5) 0.7272(5)
C143 C 0.0356(6) 0.6811(5) 0.7027(5)
N45 N 0.1314(4) 0.7354(4) 0.5645(5)
N46 N 0.0509(4) 0.8772(4) 0.4602(5)
N47 N 0.0569(4) 0.7578(4) 0.5877(4)
N48 N 0.1349(4) 0.8523(4) 0.4347(4)
C144 C 0.1162(5) 0.7701(5) 0.5333(6)
C145 C 0.1853(5) 0.7761(6) 0.4781(6)
H78 H 0.2008 0.7510 0.4924
C146 C 0.0053(5) 0.8919(6) 0.4710(6)
C147 C 0.1391(6) 0.7913(5) 0.4947(7)
C148 C 0.0696(5) 0.8423(5) 0.4851(6)
C150 C 0.1808(6) 0.8381(8) 0.4213(6)
H81 H 0.1957 0.8555 0.3979
C151 C 0.2056(6) 0.7998(7) 0.4406(6)
H82 H 0.2346 0.7906 0.4285
C152 C 0.0971(5) 0.7280(6) 0.5930(6)
H83 H 0.0983 0.7045 0.6158
C154 C 0.1175(6) 0.8278(6) 0.4720(6)
C155 C 0.0468(5) 0.8223(6) 0.5228(5)
C156 C 0.0689(5) 0.7856(6) 0.5473(5)
Co8 Co 0.34418(8) 0.34418(8) 0.34418(8)
Co9 Co 0.15582(8) 0.65582(8) 0.84418(8)
Co10 Co 0.09418(8) 0.90582(8) 0.40582(8)
Co12 Co -0.0000 0.2500 0.8750
N53 N 0.0877(4) 0.4431(4) 0.2422(4)
N54 N 0.1623(4) 0.5078(4) 0.1931(4)
Co1 Co 0.90582(8) 0.59418(8) 0.40582(8)
Co2 Co 0.7500 0.3750 0.5000
N1 N 0.7354(4) 0.4355(5) 0.3686(4)
N2 N 0.8772(4) 0.5398(5) 0.4491(4)
N3 N 0.7578(4) 0.4123(4) 0.4431(4)
N4 N 0.8523(4) 0.5653(4) 0.3651(4)
C1 C 0.7701(5) 0.4667(6) 0.3838(5)
C2 C 0.7761(6) 0.5219(6) 0.3147(5)
H1 H 0.7510 0.5076 0.2992
C3 C 0.8919(6) 0.5290(6) 0.4947(5)
H2 H 0.9159 0.5470 0.5078
C4 C 0.7913(5) 0.5053(7) 0.3609(6)
C5 C 0.8423(5) 0.5149(6) 0.4304(5)
C6 C 0.8348(7) 0.4654(7) 0.5021(6)
H3 H 0.8199 0.4421 0.5196
C7 C 0.8381(8) 0.5787(6) 0.3192(6)
H4 H 0.8555 0.6021 0.3043
C8 C 0.7998(7) 0.5594(6) 0.2944(6)
H5 H 0.7906 0.5715 0.2654
C9 C 0.7280(6) 0.4070(6) 0.4029(5)
H6 H 0.7045 0.3842 0.4017
C10 C 0.8736(7) 0.4947(7) 0.5203(7)
H7 H 0.8854 0.4889 0.5503
C11 C 0.8278(6) 0.5280(6) 0.3825(6)
C12 C 0.8223(6) 0.4772(5) 0.4532(5)
C13 C 0.7856(6) 0.4527(5) 0.4311(5)
Co3_2 Co 1.0000 0.7500 0.6250
N5 N 0.8686(4) 0.7646(4) 0.5645(5)
N6 N 0.9491(4) 0.6228(4) 0.4602(5)
N7 N 0.9431(4) 0.7422(4) 0.5877(4)
N8 N 0.8651(4) 0.6477(4) 0.4347(4)
C14 C 0.8838(5) 0.7299(5) 0.5333(6)
C15 C 0.8147(5) 0.7239(6) 0.4781(6)
H8 H 0.7992 0.7490 0.4924
C16 C 0.9947(5) 0.6081(6) 0.4710(6)
C17 C 0.8609(6) 0.7087(5) 0.4947(7)
C18 C 0.9304(5) 0.6577(5) 0.4851(6)
C20 C 0.8192(6) 0.6619(8) 0.4213(6)
H11 H 0.8043 0.6445 0.3979
C21 C 0.7944(6) 0.7002(7) 0.4406(6)
H12 H 0.7654 0.7094 0.4285
C22 C 0.9029(5) 0.7720(6) 0.5930(6)
H13 H 0.9017 0.7955 0.6158
C24 C 0.8825(6) 0.6722(6) 0.4720(6)
C25 C 0.9532(5) 0.6777(6) 0.5228(5)
C26 C 0.9311(5) 0.7144(6) 0.5473(5)
N10 N 0.9602(5) 0.5509(4) 0.3772(4)
N12 N 0.9347(4) 0.6349(4) 0.3523(4)
C28 C 0.9781(6) 0.6853(5) 0.2761(6)
H15 H 0.9924 0.7008 0.2510
C29 C 0.9710(6) 0.5053(5) 0.3919(6)
H16 H 0.9530 0.4922 0.4159
C30 C 0.9947(7) 0.6391(6) 0.2913(5)
C31 C 0.9851(6) 0.5696(5) 0.3423(5)
C33 C 0.9213(6) 0.6808(6) 0.3381(8)
H18 H 0.8979 0.6957 0.3555
C34 C 0.9406(6) 0.7056(6) 0.2998(7)
H19 H 0.9285 0.7346 0.2906
C37 C 0.9720(6) 0.6175(6) 0.3278(6)
Co5 Co 0.84418(8) 0.15582(8) 0.65582(8)
N13 N 0.8814(4) 0.3145(5) 0.4854(4)
N14 N 0.8009(4) 0.2102(5) 0.6272(4)
N15 N 0.8069(4) 0.3377(4) 0.5078(4)
N16 N 0.8849(4) 0.1847(4) 0.6023(4)
C40 C 0.8662(5) 0.2833(6) 0.5201(5)
C41 C 0.9353(5) 0.2281(6) 0.5261(6)
H22 H 0.9508 0.2424 0.5010
C42 C 0.7553(5) 0.2210(6) 0.6419(6)
H23 H 0.7422 0.2030 0.6659
C43 C 0.8891(6) 0.2447(7) 0.5413(5)
C44 C 0.8196(5) 0.2351(6) 0.5923(5)
C45 C 0.7479(6) 0.2846(7) 0.5848(7)
H24 H 0.7304 0.3079 0.5699
C46 C 0.9308(6) 0.1713(6) 0.5881(8)
H25 H 0.9457 0.1479 0.6055
C47 C 0.9556(6) 0.1906(6) 0.5498(7)
H26 H 0.9846 0.1785 0.5406
C48 C 0.8471(5) 0.3430(6) 0.4780(6)
H27 H 0.8483 0.3658 0.4545
C49 C 0.7297(7) 0.2553(7) 0.6236(7)
H28 H 0.6997 0.2611 0.6354
C50 C 0.8675(6) 0.2220(6) 0.5778(6)
C51 C 0.7968(5) 0.2728(5) 0.5723(6)
C52 C 0.8189(5) 0.2973(5) 0.5356(6)
Co6 Co 0.59418(8) 0.59418(8) 0.59418(8)
N17 N 0.7646(4) 0.4355(5) 0.6314(4)
N18 N 0.6228(4) 0.5398(5) 0.5509(4)
N19 N 0.7422(4) 0.4123(4) 0.5569(4)
N20 N 0.6477(4) 0.5653(4) 0.6349(4)
C53 C 0.7299(5) 0.4667(6) 0.6162(5)
C54 C 0.7239(6) 0.5219(6) 0.6853(5)
H29 H 0.7490 0.5076 0.7008
C55 C 0.6081(6) 0.5290(6) 0.5053(5)
H30 H 0.5841 0.5470 0.4922
C56 C 0.7087(5) 0.5053(7) 0.6391(6)
C57 C 0.6577(5) 0.5149(6) 0.5696(5)
C58 C 0.6652(7) 0.4654(7) 0.4979(6)
H31 H 0.6801 0.4421 0.4804
C59 C 0.6619(8) 0.5787(6) 0.6808(6)
H32 H 0.6445 0.6021 0.6957
C60 C 0.7002(7) 0.5594(6) 0.7056(6)
H33 H 0.7094 0.5715 0.7346
C61 C 0.7720(6) 0.4070(6) 0.5971(5)
H34 H 0.7955 0.3842 0.5983
C62 C 0.6264(7) 0.4947(7) 0.4797(7)
H35 H 0.6146 0.4889 0.4497
C63 C 0.6722(6) 0.5280(6) 0.6175(6)
C64 C 0.6777(6) 0.4772(5) 0.5468(5)
C65 C 0.7144(6) 0.4527(5) 0.5689(5)
Co7 Co 0.65582(8) 0.15582(8) 0.34418(8)
N21 N 0.6186(4) 0.3145(5) 0.5146(4)
N22 N 0.6991(4) 0.2102(5) 0.3728(4)
N23 N 0.6931(4) 0.3377(4) 0.4922(4)
N24 N 0.6151(4) 0.1847(4) 0.3977(4)
C66 C 0.6338(5) 0.2833(6) 0.4799(5)
C67 C 0.5647(5) 0.2281(6) 0.4739(6)
H36 H 0.5492 0.2424 0.4990
C68 C 0.7447(5) 0.2210(6) 0.3581(6)
H37 H 0.7578 0.2030 0.3341
C69 C 0.6109(6) 0.2447(7) 0.4587(5)
C70 C 0.6804(5) 0.2351(6) 0.4077(5)
C71 C 0.7521(6) 0.2846(7) 0.4152(7)
H38 H 0.7696 0.3079 0.4301
C72 C 0.5692(6) 0.1713(6) 0.4119(8)
H39 H 0.5543 0.1479 0.3945
C73 C 0.5444(6) 0.1906(6) 0.4502(7)
H40 H 0.5154 0.1785 0.4594
C74 C 0.6529(5) 0.3430(6) 0.5220(6)
H41 H 0.6517 0.3658 0.5455
C75 C 0.7703(7) 0.2553(7) 0.3764(7)
H42 H 0.8003 0.2611 0.3646
C76 C 0.6325(6) 0.2220(6) 0.4222(6)
C77 C 0.7032(5) 0.2728(5) 0.4277(6)
C78 C 0.6811(5) 0.2973(5) 0.4644(6)
N30 N 0.8728(4) 0.1991(4) 0.7102(5)
N31 N 0.9922(4) 0.1931(4) 0.8377(4)
N32 N 0.8977(4) 0.1151(4) 0.6847(4)
C92 C 0.9799(5) 0.1338(5) 0.7833(6)
C93 C 0.9739(6) 0.0647(5) 0.7281(6)
H50 H 0.9990 0.0492 0.7424
C94 C 0.8581(6) 0.2447(5) 0.7210(6)
H51 H 0.8341 0.2578 0.7030
C95 C 0.9587(5) 0.1109(6) 0.7447(7)
C96 C 0.9077(5) 0.1804(5) 0.7351(6)
C97 C 0.9152(7) 0.2521(6) 0.7846(7)
H52 H 0.9301 0.2696 0.8079
C98 C 0.9119(8) 0.0692(6) 0.6713(6)
H53 H 0.8945 0.0543 0.6479
C99 C 0.9502(7) 0.0444(6) 0.6906(6)
H54 H 0.9594 0.0154 0.6785
C101 C 0.8764(7) 0.2703(7) 0.7553(7)
H56 H 0.8646 0.3003 0.7611
C102 C 0.9222(6) 0.1325(6) 0.7220(6)
C103 C 0.9277(6) 0.2032(5) 0.7728(5)
C104 C 0.9644(6) 0.1811(5) 0.7973(5)
N34 N 0.7102(5) 0.1272(4) 0.3009(4)
N35 N 0.8377(4) 0.0078(4) 0.3069(4)
N36 N 0.6847(4) 0.1023(4) 0.3849(4)
C105 C 0.7833(6) 0.0201(5) 0.3662(5)
C106 C 0.7281(6) 0.0261(6) 0.4353(5)
H57 H 0.7424 0.0010 0.4508
C107 C 0.7210(6) 0.1419(6) 0.2553(5)
H58 H 0.7030 0.1659 0.2422
C108 C 0.7447(7) 0.0413(5) 0.3891(6)
C109 C 0.7351(6) 0.0923(5) 0.3196(5)
C110 C 0.7846(7) 0.0848(7) 0.2479(6)
H59 H 0.8079 0.0699 0.2304
C111 C 0.6713(6) 0.0881(8) 0.4308(6)
H60 H 0.6479 0.1055 0.4457
C112 C 0.6906(6) 0.0498(7) 0.4556(6)
H61 H 0.6785 0.0406 0.4846
C114 C 0.7553(7) 0.1236(7) 0.2297(7)
H63 H 0.7611 0.1354 0.1997
C115 C 0.7220(6) 0.0778(6) 0.3675(6)
C116 C 0.7728(5) 0.0723(6) 0.2968(5)
C117 C 0.7973(5) 0.0356(6) 0.3189(5)
N38 N 0.8728(4) 0.8009(4) 0.7898(5)
N39 N 0.9922(4) 0.8069(4) 0.6623(4)
N40 N 0.8977(4) 0.8849(4) 0.8153(4)
C118 C 0.9799(5) 0.8662(5) 0.7167(6)
C119 C 0.9739(6) 0.9353(5) 0.7719(6)
H64 H 0.9990 0.9508 0.7576
C120 C 0.8581(6) 0.7553(5) 0.7790(6)
H65 H 0.8341 0.7422 0.7970
C121 C 0.9587(5) 0.8891(6) 0.7553(7)
C122 C 0.9077(5) 0.8196(5) 0.7649(6)
C123 C 0.9152(7) 0.7479(6) 0.7154(7)
H66 H 0.9301 0.7304 0.6921
C124 C 0.9119(8) 0.9308(6) 0.8287(6)
H67 H 0.8945 0.9457 0.8521
C125 C 0.9502(7) 0.9556(6) 0.8094(6)
H68 H 0.9594 0.9846 0.8215
C127 C 0.8764(7) 0.7297(7) 0.7447(7)
H70 H 0.8646 0.6997 0.7389
C128 C 0.9222(6) 0.8675(6) 0.7780(6)
C129 C 0.9277(6) 0.7968(5) 0.7272(5)
C130 C 0.9644(6) 0.8189(5) 0.7027(5)
N41 N 0.9854(4) 0.6186(4) 0.6855(5)
C139 C 0.9780(6) 0.6529(5) 0.6570(6)
H76 H 0.9545 0.6517 0.6342
H79 H 0.9922 0.9159 0.4530
C149 C 0.9979(6) 0.8348(7) 0.5346(7)
H80 H 0.9804 0.8199 0.5579
C153 C 0.9797(7) 0.8736(7) 0.5053(7)
H84 H 0.9497 0.8854 0.5111
Co11 Co 0.84418(8) 0.84418(8) 0.84418(8)
Co12_2 Co 1.0000 0.2500 0.8750
Co13 Co 0.8750 0.0000 0.2500
N49 N 0.7898(5) 0.1272(4) 0.6991(4)
N50 N 0.5509(4) 0.6228(4) 0.5398(5)
N51 N 0.5398(5) 0.5509(4) 0.6228(4)
N52 N 0.6272(4) 0.1991(4) 0.2898(5)
N55 N 0.8153(4) 0.1023(4) 0.6151(4)
N56 N 0.6349(4) 0.6477(4) 0.5653(4)
N57 N 0.5653(4) 0.6349(4) 0.6477(4)
N58 N 0.6023(4) 0.1151(4) 0.3153(4)
N33 N 0.8145(5) 0.9854(4) 0.3814(4)
C113 C 0.8430(6) 0.9780(6) 0.3471(5)
H62 H 0.8658 0.9545 0.3483
Co13_2 Co 0.8750 1.0000 0.2500
N33_2 N 0.6855(5) 0.0146(4) 0.8814(4)
C113_2 C 0.6570(6) 0.0220(6) 0.8471(5)
H62_2 H 0.6342 0.0455 0.8483
Co13_3 Co 0.6250 -0.0000 0.7500
Co2_2 Co 0.7500 0.6250 0.0000
H2_2 H 0.5841 0.4530 0.0078
C6_2 C 0.6652(7) 0.5346(7) 0.0021(6)
H3_2 H 0.6801 0.5579 0.0196
C10_2 C 0.6264(7) 0.5053(7) 0.0203(7)
H7_2 H 0.6146 0.5111 0.0503
Co3_3 Co 0.5000 0.2500 0.1250
N5_2 N 0.6314(4) 0.2354(4) 0.0645(5)
N7_2 N 0.5569(4) 0.2578(4) 0.0877(4)
C14_2 C 0.6162(5) 0.2701(5) 0.0333(6)
C19_2 C 0.4979(6) 0.3348(7) 0.0346(7)
H10_2 H 0.4804 0.3199 0.0579
C22_2 C 0.5971(5) 0.2280(6) 0.0930(6)
H13_2 H 0.5983 0.2045 0.1158
C23_2 C 0.4797(7) 0.3736(7) 0.0053(7)
H14_2 H 0.4497 0.3854 0.0111
C25_2 C 0.5468(5) 0.3223(6) 0.0228(5)
C26_2 C 0.5689(5) 0.2856(6) 0.0473(5)
Co5_2 Co 0.65582(8) 0.84418(8) 0.15582(8)
N14_2 N 0.6991(4) 0.7898(5) 0.1272(4)
N15_2 N 0.6931(4) 0.6623(4) 0.0078(4)
N16_2 N 0.6151(4) 0.8153(4) 0.1023(4)
C40_2 C 0.6338(5) 0.7167(6) 0.0201(5)
C41_2 C 0.5647(5) 0.7719(6) 0.0261(6)
H22_2 H 0.5492 0.7576 0.0010
C42_2 C 0.7447(5) 0.7790(6) 0.1419(6)
H23_2 H 0.7578 0.7970 0.1659
C43_2 C 0.6109(6) 0.7553(7) 0.0413(5)
C44_2 C 0.6804(5) 0.7649(6) 0.0923(5)
C45_2 C 0.7521(6) 0.7154(7) 0.0848(7)
H24_2 H 0.7696 0.6921 0.0699
C46_2 C 0.5692(6) 0.8287(6) 0.0881(8)
H25_2 H 0.5543 0.8521 0.1055
C47_2 C 0.5444(6) 0.8094(6) 0.0498(7)
H26_2 H 0.5154 0.8215 0.0406
C49_2 C 0.7703(7) 0.7447(7) 0.1236(7)
H28_2 H 0.8003 0.7389 0.1354
C50_2 C 0.6325(6) 0.7780(6) 0.0778(6)
C51_2 C 0.7032(5) 0.7272(5) 0.0723(6)
C52_2 C 0.6811(5) 0.7027(5) 0.0356(6)
Co6_2 Co 0.90582(8) 0.40582(8) 0.09418(8)
N17_2 N 0.7354(4) 0.5645(5) 0.1314(4)
N18_2 N 0.8772(4) 0.4602(5) 0.0509(4)
N19_2 N 0.7578(4) 0.5877(4) 0.0569(4)
N20_2 N 0.8523(4) 0.4347(4) 0.1349(4)
C53_2 C 0.7701(5) 0.5333(6) 0.1162(5)
C54_2 C 0.7761(6) 0.4781(6) 0.1853(5)
H29_2 H 0.7510 0.4924 0.2008
C55_2 C 0.8919(6) 0.4710(6) 0.0053(5)
C56_2 C 0.7913(5) 0.4947(7) 0.1391(6)
C57_2 C 0.8423(5) 0.4851(6) 0.0696(5)
C59_2 C 0.8381(8) 0.4213(6) 0.1808(6)
H32_2 H 0.8555 0.3979 0.1957
C60_2 C 0.7998(7) 0.4406(6) 0.2056(6)
H33_2 H 0.7906 0.4285 0.2346
C61_2 C 0.7280(6) 0.5930(6) 0.0971(5)
H34_2 H 0.7045 0.6158 0.0983
C63_2 C 0.8278(6) 0.4720(6) 0.1175(6)
C64_2 C 0.8223(6) 0.5228(5) 0.0468(5)
C65_2 C 0.7856(6) 0.5473(5) 0.0689(5)
N21_2 N 0.8814(4) 0.6855(5) 0.0146(4)
C74_2 C 0.8471(5) 0.6570(6) 0.0220(6)
H41_2 H 0.8483 0.6342 0.0455
N29_2 N 0.4854(4) 0.8814(4) 0.3145(5)
N30_2 N 0.6272(4) 0.8009(4) 0.2102(5)
N31_2 N 0.5078(4) 0.8069(4) 0.3377(4)
N32_2 N 0.6023(4) 0.8849(4) 0.1847(4)
C92_2 C 0.5201(5) 0.8662(5) 0.2833(6)
C93_2 C 0.5261(6) 0.9353(5) 0.2281(6)
H50_2 H 0.5010 0.9508 0.2424
C94_2 C 0.6419(6) 0.7553(5) 0.2210(6)
H51_2 H 0.6659 0.7422 0.2030
C95_2 C 0.5413(5) 0.8891(6) 0.2447(7)
C96_2 C 0.5923(5) 0.8196(5) 0.2351(6)
C97_2 C 0.5848(7) 0.7479(6) 0.2846(7)
H52_2 H 0.5699 0.7304 0.3079
C98_2 C 0.5881(8) 0.9308(6) 0.1713(6)
H53_2 H 0.6055 0.9457 0.1479
C99_2 C 0.5498(7) 0.9556(6) 0.1906(6)
H54_2 H 0.5406 0.9846 0.1785
C100_2 C 0.4780(6) 0.8471(5) 0.3430(6)
H55_2 H 0.4545 0.8483 0.3658
C101_2 C 0.6236(7) 0.7297(7) 0.2553(7)
H56_2 H 0.6354 0.6997 0.2611
C102_2 C 0.5778(6) 0.8675(6) 0.2220(6)
C103_2 C 0.5723(6) 0.7968(5) 0.2728(5)
C104_2 C 0.5356(6) 0.8189(5) 0.2973(5)
N37_2 N 0.4854(4) 0.1186(4) 0.1855(5)
N39_2 N 0.5078(4) 0.1931(4) 0.1623(4)
C118_2 C 0.5201(5) 0.1338(5) 0.2167(6)
C119_2 C 0.5261(6) 0.0647(5) 0.2719(6)
H64_2 H 0.5010 0.0492 0.2576
C120_2 C 0.6419(6) 0.2447(5) 0.2790(6)
H65_2 H 0.6659 0.2578 0.2970
C121_2 C 0.5413(5) 0.1109(6) 0.2553(7)
C122_2 C 0.5923(5) 0.1804(5) 0.2649(6)
C123_2 C 0.5848(7) 0.2521(6) 0.2154(7)
H66_2 H 0.5699 0.2696 0.1921
C124_2 C 0.5881(8) 0.0692(6) 0.3287(6)
H67_2 H 0.6055 0.0543 0.3521
C125_2 C 0.5498(7) 0.0444(6) 0.3094(6)
H68_2 H 0.5406 0.0154 0.3215
C126_2 C 0.4780(6) 0.1529(5) 0.1570(6)
H69_2 H 0.4545 0.1517 0.1342
C127_2 C 0.6236(7) 0.2703(7) 0.2447(7)
H70_2 H 0.6354 0.3003 0.2389
C128_2 C 0.5778(6) 0.1325(6) 0.2780(6)
C129_2 C 0.5723(6) 0.2032(5) 0.2272(5)
C130_2 C 0.5356(6) 0.1811(5) 0.2027(5)
N41_2 N 0.5146(4) 0.3814(4) 0.1855(5)
N42_2 N 0.3728(4) 0.3009(4) 0.2898(5)
N43_2 N 0.4922(4) 0.3069(4) 0.1623(4)
N44_2 N 0.3977(4) 0.3849(4) 0.3153(4)
C131_2 C 0.4799(5) 0.3662(5) 0.2167(6)
C132_2 C 0.4739(6) 0.4353(5) 0.2719(6)
H71_2 H 0.4990 0.4508 0.2576
C133_2 C 0.3581(6) 0.2553(5) 0.2790(6)
H72_2 H 0.3341 0.2422 0.2970
C134_2 C 0.4587(5) 0.3891(6) 0.2553(7)
C135_2 C 0.4077(5) 0.3196(5) 0.2649(6)
C136_2 C 0.4152(7) 0.2479(6) 0.2154(7)
H73_2 H 0.4301 0.2304 0.1921
C137_2 C 0.4119(8) 0.4308(6) 0.3287(6)
H74_2 H 0.3945 0.4457 0.3521
C138_2 C 0.4502(7) 0.4556(6) 0.3094(6)
H75_2 H 0.4594 0.4846 0.3215
C139_2 C 0.5220(6) 0.3471(5) 0.1570(6)
H76_2 H 0.5455 0.3483 0.1342
C140_2 C 0.3764(7) 0.2297(7) 0.2447(7)
H77_2 H 0.3646 0.1997 0.2389
C141_2 C 0.4222(6) 0.3675(6) 0.2780(6)
C142_2 C 0.4277(6) 0.2968(5) 0.2272(5)
C143_2 C 0.4644(6) 0.3189(5) 0.2027(5)
N45_2 N 0.3686(4) 0.2646(4) 0.0645(5)
N47_2 N 0.4431(4) 0.2422(4) 0.0877(4)
C144_2 C 0.3838(5) 0.2299(5) 0.0333(6)
C149_2 C 0.5021(6) 0.1652(7) 0.0346(7)
H80_2 H 0.5196 0.1801 0.0579
C152_2 C 0.4029(5) 0.2720(6) 0.0930(6)
H83_2 H 0.4017 0.2955 0.1158
C153_2 C 0.5203(7) 0.1264(7) 0.0053(7)
H84_2 H 0.5503 0.1146 0.0111
C155_2 C 0.4532(5) 0.1777(6) 0.0228(5)
C156_2 C 0.4311(5) 0.2144(6) 0.0473(5)
Co12_3 Co 0.5000 0.7500 0.3750
N49_2 N 0.7102(5) 0.8728(4) 0.1991(4)
N50_2 N 0.9491(4) 0.3772(4) 0.0398(5)
N51_2 N 0.9602(5) 0.4491(4) 0.1228(4)
N55_2 N 0.6847(4) 0.8977(4) 0.1151(4)
N56_2 N 0.8651(4) 0.3523(4) 0.0653(4)
N57_2 N 0.9347(4) 0.3651(4) 0.1477(4)
Co1_2 Co 0.59418(8) 0.40582(8) 0.90582(8)
Co2_3 Co 0.7500 0.6250 1.0000
N1_2 N 0.7646(4) 0.5645(5) 0.8686(4)
N2_2 N 0.6228(4) 0.4602(5) 0.9491(4)
N3_2 N 0.7422(4) 0.5877(4) 0.9431(4)
N4_2 N 0.6477(4) 0.4347(4) 0.8651(4)
C1_2 C 0.7299(5) 0.5333(6) 0.8838(5)
C2_2 C 0.7239(6) 0.4781(6) 0.8147(5)
H1_2 H 0.7490 0.4924 0.7992
C3_2 C 0.6081(6) 0.4710(6) 0.9947(5)
C4_2 C 0.7087(5) 0.4947(7) 0.8609(6)
C5_2 C 0.6577(5) 0.4851(6) 0.9304(5)
C7_2 C 0.6619(8) 0.4213(6) 0.8192(6)
H4_2 H 0.6445 0.3979 0.8043
C8_2 C 0.7002(7) 0.4406(6) 0.7944(6)
H5_2 H 0.7094 0.4285 0.7654
C9_2 C 0.7720(6) 0.5930(6) 0.9029(5)
H6_2 H 0.7955 0.6158 0.9017
C11_2 C 0.6722(6) 0.4720(6) 0.8825(6)
C12_2 C 0.6777(6) 0.5228(5) 0.9532(5)
C13_2 C 0.7144(6) 0.5473(5) 0.9311(5)
N6_2 N 0.5509(4) 0.3772(4) 0.9602(5)
N8_2 N 0.6349(4) 0.3523(4) 0.9347(4)
C15_2 C 0.6853(5) 0.2761(6) 0.9781(6)
H8_2 H 0.7008 0.2510 0.9924
C16_2 C 0.5053(5) 0.3919(6) 0.9710(6)
H9_2 H 0.4922 0.4159 0.9530
C17_2 C 0.6391(6) 0.2913(5) 0.9947(7)
C18_2 C 0.5696(5) 0.3423(5) 0.9851(6)
C20_2 C 0.6808(6) 0.3381(8) 0.9213(6)
H11_2 H 0.6957 0.3555 0.8979
C21_2 C 0.7056(6) 0.2998(7) 0.9406(6)
H12_2 H 0.7346 0.2906 0.9285
C24_2 C 0.6175(6) 0.3278(6) 0.9720(6)
Co4_2 Co 0.3750 0.5000 0.7500
N9_2 N 0.4355(5) 0.3686(4) 0.7354(4)
N10_2 N 0.5398(5) 0.4491(4) 0.8772(4)
N11_2 N 0.4123(4) 0.4431(4) 0.7578(4)
N12_2 N 0.5653(4) 0.3651(4) 0.8523(4)
C27_2 C 0.4667(6) 0.3838(5) 0.7701(5)
C28_2 C 0.5219(6) 0.3147(5) 0.7761(6)
H15_2 H 0.5076 0.2992 0.7510
C29_2 C 0.5290(6) 0.4947(5) 0.8919(6)
H16_2 H 0.5470 0.5078 0.9159
C30_2 C 0.5053(7) 0.3609(6) 0.7913(5)
C31_2 C 0.5149(6) 0.4304(5) 0.8423(5)
C32_2 C 0.4654(7) 0.5021(6) 0.8348(7)
H17_2 H 0.4421 0.5196 0.8199
C33_2 C 0.5787(6) 0.3192(6) 0.8381(8)
H18_2 H 0.6021 0.3043 0.8555
C34_2 C 0.5594(6) 0.2944(6) 0.7998(7)
H19_2 H 0.5715 0.2654 0.7906
C35_2 C 0.4070(6) 0.4029(5) 0.7280(6)
H20_2 H 0.3842 0.4017 0.7045
C36_2 C 0.4947(7) 0.5203(7) 0.8736(7)
H21_2 H 0.4889 0.5503 0.8854
C37_2 C 0.5280(6) 0.3825(6) 0.8278(6)
C38_2 C 0.4772(5) 0.4532(5) 0.8223(6)
C39_2 C 0.4527(5) 0.4311(5) 0.7856(6)
N13_2 N 0.6186(4) 0.6855(5) 0.9854(4)
C48_2 C 0.6529(5) 0.6570(6) 0.9780(6)
H27_2 H 0.6517 0.6342 0.9545
H30_2 H 0.9159 0.4530 0.9922
C58_2 C 0.8348(7) 0.5346(7) 0.9979(6)
H31_2 H 0.8199 0.5579 0.9804
C62_2 C 0.8736(7) 0.5053(7) 0.9797(7)
H35_2 H 0.8854 0.5111 0.9497
N22_2 N 0.8009(4) 0.7898(5) 0.8728(4)
N23_2 N 0.8069(4) 0.6623(4) 0.9922(4)
N24_2 N 0.8849(4) 0.8153(4) 0.8977(4)
C66_2 C 0.8662(5) 0.7167(6) 0.9799(5)
C67_2 C 0.9353(5) 0.7719(6) 0.9739(6)
H36_2 H 0.9508 0.7576 0.9990
C68_2 C 0.7553(5) 0.7790(6) 0.8581(6)
H37_2 H 0.7422 0.7970 0.8341
C69_2 C 0.8891(6) 0.7553(7) 0.9587(5)
C70_2 C 0.8196(5) 0.7649(6) 0.9077(5)
C71_2 C 0.7479(6) 0.7154(7) 0.9152(7)
H38_2 H 0.7304 0.6921 0.9301
C72_2 C 0.9308(6) 0.8287(6) 0.9119(8)
H39_2 H 0.9457 0.8521 0.8945
C73_2 C 0.9556(6) 0.8094(6) 0.9502(7)
H40_2 H 0.9846 0.8215 0.9594
C75_2 C 0.7297(7) 0.7447(7) 0.8764(7)
H42_2 H 0.6997 0.7389 0.8646
C76_2 C 0.8675(6) 0.7780(6) 0.9222(6)
C77_2 C 0.7968(5) 0.7272(5) 0.9277(6)
C78_2 C 0.8189(5) 0.7027(5) 0.9644(6)
N25_2 N 0.3145(5) 0.4854(4) 0.8814(4)
N26_2 N 0.2102(5) 0.6272(4) 0.8009(4)
N27_2 N 0.3377(4) 0.5078(4) 0.8069(4)
N28_2 N 0.1847(4) 0.6023(4) 0.8849(4)
C79_2 C 0.2833(6) 0.5201(5) 0.8662(5)
C80_2 C 0.2281(6) 0.5261(6) 0.9353(5)
H43_2 H 0.2424 0.5010 0.9508
C81_2 C 0.2210(6) 0.6419(6) 0.7553(5)
H44_2 H 0.2030 0.6659 0.7422
C82_2 C 0.2447(7) 0.5413(5) 0.8891(6)
C83_2 C 0.2351(6) 0.5923(5) 0.8196(5)
C84_2 C 0.2846(7) 0.5848(7) 0.7479(6)
H45_2 H 0.3079 0.5699 0.7304
C85_2 C 0.1713(6) 0.5881(8) 0.9308(6)
H46_2 H 0.1479 0.6055 0.9457
C86_2 C 0.1906(6) 0.5498(7) 0.9556(6)
H47_2 H 0.1785 0.5406 0.9846
C87_2 C 0.3430(6) 0.4780(6) 0.8471(5)
H48_2 H 0.3658 0.4545 0.8483
C88_2 C 0.2553(7) 0.6236(7) 0.7297(7)
H49_2 H 0.2611 0.6354 0.6997
C89_2 C 0.2220(6) 0.5778(6) 0.8675(6)
C90_2 C 0.2728(5) 0.5723(6) 0.7968(5)
C91_2 C 0.2973(5) 0.5356(6) 0.8189(5)
N34_2 N 0.7898(5) 0.8728(4) 0.8009(4)
N35_2 N 0.6623(4) 0.9922(4) 0.8069(4)
N36_2 N 0.8153(4) 0.8977(4) 0.8849(4)
C105_2 C 0.7167(6) 0.9799(5) 0.8662(5)
C106_2 C 0.7719(6) 0.9739(6) 0.9353(5)
H57_2 H 0.7576 0.9990 0.9508
C107_2 C 0.7790(6) 0.8581(6) 0.7553(5)
H58_2 H 0.7970 0.8341 0.7422
C108_2 C 0.7553(7) 0.9587(5) 0.8891(6)
C109_2 C 0.7649(6) 0.9077(5) 0.8196(5)
C110_2 C 0.7154(7) 0.9152(7) 0.7479(6)
H59_2 H 0.6921 0.9301 0.7304
C111_2 C 0.8287(6) 0.9119(8) 0.9308(6)
H60_2 H 0.8521 0.8945 0.9457
C112_2 C 0.8094(6) 0.9502(7) 0.9556(6)
H61_2 H 0.8215 0.9594 0.9846
C114_2 C 0.7447(7) 0.8764(7) 0.7297(7)
H63_2 H 0.7389 0.8646 0.6997
C115_2 C 0.7780(6) 0.9222(6) 0.8675(6)
C116_2 C 0.7272(5) 0.9277(6) 0.7968(5)
C117_2 C 0.7027(5) 0.9644(6) 0.8189(5)
N46_2 N 0.4491(4) 0.1228(4) 0.9602(5)
N48_2 N 0.3651(4) 0.1477(4) 0.9347(4)
C145_2 C 0.3147(5) 0.2239(6) 0.9781(6)
H78_2 H 0.2992 0.2490 0.9924
C146_2 C 0.4947(5) 0.1081(6) 0.9710(6)
H79_2 H 0.5078 0.0841 0.9530
C147_2 C 0.3609(6) 0.2087(5) 0.9947(7)
C148_2 C 0.4304(5) 0.1577(5) 0.9851(6)
C150_2 C 0.3192(6) 0.1619(8) 0.9213(6)
H81_2 H 0.3043 0.1445 0.8979
C151_2 C 0.2944(6) 0.2002(7) 0.9406(6)
H82_2 H 0.2654 0.2094 0.9285
C154_2 C 0.3825(6) 0.1722(6) 0.9720(6)
Co10_2 Co 0.40582(8) 0.09418(8) 0.90582(8)
Co13_4 Co 0.6250 1.0000 0.7500
N53_2 N 0.4123(4) 0.5569(4) 0.7422(4)
N54_2 N 0.3377(4) 0.4922(4) 0.6931(4)
Co1_3 Co 0.09418(8) 0.09418(8) 0.09418(8)
N2_3 N 0.1228(4) 0.0398(5) 0.0509(4)
N4_3 N 0.1477(4) 0.0653(4) 0.1349(4)
C2_3 C 0.2239(6) 0.0219(6) 0.1853(5)
H1_3 H 0.2490 0.0076 0.2008
C3_3 C 0.1081(6) 0.0290(6) 0.0053(5)
C4_3 C 0.2087(5) 0.0053(7) 0.1391(6)
C5_3 C 0.1577(5) 0.0149(6) 0.0696(5)
C7_3 C 0.1619(8) 0.0787(6) 0.1808(6)
H4_3 H 0.1445 0.1021 0.1957
C8_3 C 0.2002(7) 0.0594(6) 0.2056(6)
H5_3 H 0.2094 0.0715 0.2346
C11_3 C 0.1722(6) 0.0280(6) 0.1175(6)
N6_3 N 0.0509(4) 0.1228(4) 0.0398(5)
N8_3 N 0.1349(4) 0.1477(4) 0.0653(4)
C15_3 C 0.1853(5) 0.2239(6) 0.0219(6)
H8_3 H 0.2008 0.2490 0.0076
C16_3 C 0.0053(5) 0.1081(6) 0.0290(6)
C17_3 C 0.1391(6) 0.2087(5) 0.0053(7)
C18_3 C 0.0696(5) 0.1577(5) 0.0149(6)
C20_3 C 0.1808(6) 0.1619(8) 0.0787(6)
H11_3 H 0.1957 0.1445 0.1021
C21_3 C 0.2056(6) 0.2002(7) 0.0594(6)
H12_3 H 0.2346 0.2094 0.0715
C24_3 C 0.1175(6) 0.1722(6) 0.0280(6)
N10_3 N 0.0398(5) 0.0509(4) 0.1228(4)
N12_3 N 0.0653(4) 0.1349(4) 0.1477(4)
C28_3 C 0.0219(6) 0.1853(5) 0.2239(6)
H15_3 H 0.0076 0.2008 0.2490
C29_3 C 0.0290(6) 0.0053(5) 0.1081(6)
C30_3 C 0.0053(7) 0.1391(6) 0.2087(5)
C31_3 C 0.0149(6) 0.0696(5) 0.1577(5)
C33_3 C 0.0787(6) 0.1808(6) 0.1619(8)
H18_3 H 0.1021 0.1957 0.1445
C34_3 C 0.0594(6) 0.2056(6) 0.2002(7)
H19_3 H 0.0715 0.2346 0.2094
C37_3 C 0.0280(6) 0.1175(6) 0.1722(6)
H30_3 H 0.4159 0.0470 0.0078
H79_3 H 0.0078 0.4159 0.0470
H2_3 H 0.0841 0.0470 0.9922
N5_3 N 0.1314(4) 0.2646(4) 0.9355(5)
N7_3 N 0.0569(4) 0.2422(4) 0.9123(4)
C14_3 C 0.1162(5) 0.2299(5) 0.9667(6)
C22_3 C 0.0971(5) 0.2720(6) 0.9070(6)
H13_3 H 0.0983 0.2955 0.8842
C25_3 C 0.0468(5) 0.1777(6) 0.9772(5)
C26_3 C 0.0689(5) 0.2144(6) 0.9527(5)
N18_3 N 0.3772(4) 0.0398(5) 0.9491(4)
N20_3 N 0.3523(4) 0.0653(4) 0.8651(4)
C54_3 C 0.2761(6) 0.0219(6) 0.8147(5)
H29_3 H 0.2510 0.0076 0.7992
C55_3 C 0.3919(6) 0.0290(6) 0.9947(5)
C56_3 C 0.2913(5) 0.0053(7) 0.8609(6)
C57_3 C 0.3423(5) 0.0149(6) 0.9304(5)
C59_3 C 0.3381(8) 0.0787(6) 0.8192(6)
H32_3 H 0.3555 0.1021 0.8043
C60_3 C 0.2998(7) 0.0594(6) 0.7944(6)
H33_3 H 0.2906 0.0715 0.7654
C63_3 C 0.3278(6) 0.0280(6) 0.8825(6)
N38_2 N 0.1272(4) 0.3009(4) 0.7102(5)
N39_3 N 0.0078(4) 0.3069(4) 0.8377(4)
N40_2 N 0.1023(4) 0.3849(4) 0.6847(4)
C118_3 C 0.0201(5) 0.3662(5) 0.7833(6)
C119_3 C 0.0261(6) 0.4353(5) 0.7281(6)
H64_3 H 0.0010 0.4508 0.7424
C120_3 C 0.1419(6) 0.2553(5) 0.7210(6)
H65_3 H 0.1659 0.2422 0.7030
C121_3 C 0.0413(5) 0.3891(6) 0.7447(7)
C122_3 C 0.0923(5) 0.3196(5) 0.7351(6)
C123_3 C 0.0848(7) 0.2479(6) 0.7846(7)
H66_3 H 0.0699 0.2304 0.8079
C124_3 C 0.0881(8) 0.4308(6) 0.6713(6)
H67_3 H 0.1055 0.4457 0.6479
C125_3 C 0.0498(7) 0.4556(6) 0.6906(6)
H68_3 H 0.0406 0.4846 0.6785
C127_3 C 0.1236(7) 0.2297(7) 0.7553(7)
H70_3 H 0.1354 0.1997 0.7611
C128_3 C 0.0778(6) 0.3675(6) 0.7220(6)
C129_3 C 0.0723(6) 0.2968(5) 0.7728(5)
C130_3 C 0.0356(6) 0.3189(5) 0.7973(5)
C149_3 C 0.0021(6) 0.3348(7) 0.9654(7)
H80_3 H 0.0196 0.3199 0.9421
C153_3 C 0.0203(7) 0.3736(7) 0.9947(7)
H84_3 H 0.0503 0.3854 0.9889
Co11_2 Co 0.15582(8) 0.34418(8) 0.65582(8)
N51_3 N 0.4602(5) 0.0509(4) 0.8772(4)
N57_3 N 0.4347(4) 0.1349(4) 0.8523(4)
Co2_4 Co 0.2500 0.8750 0.0000
N1_3 N 0.2646(4) 0.9355(5) 0.1314(4)
N3_3 N 0.2422(4) 0.9123(4) 0.0569(4)
C1_3 C 0.2299(5) 0.9667(6) 0.1162(5)
C9_3 C 0.2720(6) 0.9070(6) 0.0971(5)
H6_3 H 0.2955 0.8842 0.0983
C12_3 C 0.1777(6) 0.9772(5) 0.0468(5)
C13_3 C 0.2144(6) 0.9527(5) 0.0689(5)
H16_3 H 0.0470 0.9922 0.0841
N13_3 N 0.1186(4) 0.8145(5) 0.0146(4)
C48_3 C 0.1529(5) 0.8430(6) 0.0220(6)
H27_3 H 0.1517 0.8658 0.0455
C58_3 C 0.3348(7) 0.9654(7) 0.0021(6)
H31_3 H 0.3199 0.9421 0.0196
C62_3 C 0.3736(7) 0.9947(7) 0.0203(7)
H35_3 H 0.3854 0.9889 0.0503
Co7_2 Co 0.34418(8) 0.65582(8) 0.15582(8)
N22_3 N 0.3009(4) 0.7102(5) 0.1272(4)
N23_3 N 0.3069(4) 0.8377(4) 0.0078(4)
N24_3 N 0.3849(4) 0.6847(4) 0.1023(4)
C66_3 C 0.3662(5) 0.7833(6) 0.0201(5)
C67_3 C 0.4353(5) 0.7281(6) 0.0261(6)
H36_3 H 0.4508 0.7424 0.0010
C68_3 C 0.2553(5) 0.7210(6) 0.1419(6)
H37_3 H 0.2422 0.7030 0.1659
C69_3 C 0.3891(6) 0.7447(7) 0.0413(5)
C70_3 C 0.3196(5) 0.7351(6) 0.0923(5)
C71_3 C 0.2479(6) 0.7846(7) 0.0848(7)
H38_3 H 0.2304 0.8079 0.0699
C72_3 C 0.4308(6) 0.6713(6) 0.0881(8)
H39_3 H 0.4457 0.6479 0.1055
C73_3 C 0.4556(6) 0.6906(6) 0.0498(7)
H40_3 H 0.4846 0.6785 0.0406
C75_3 C 0.2297(7) 0.7553(7) 0.1236(7)
H42_3 H 0.1997 0.7611 0.1354
C76_3 C 0.3675(6) 0.7220(6) 0.0778(6)
C77_3 C 0.2968(5) 0.7728(5) 0.0723(6)
C78_3 C 0.3189(5) 0.7973(5) 0.0356(6)
N33_3 N 0.1855(5) 0.4854(4) 0.1186(4)
N34_3 N 0.2898(5) 0.6272(4) 0.1991(4)
N36_3 N 0.3153(4) 0.6023(4) 0.1151(4)
C105_3 C 0.2167(6) 0.5201(5) 0.1338(5)
C106_3 C 0.2719(6) 0.5261(6) 0.0647(5)
H57_3 H 0.2576 0.5010 0.0492
C107_3 C 0.2790(6) 0.6419(6) 0.2447(5)
H58_3 H 0.2970 0.6659 0.2578
C108_3 C 0.2553(7) 0.5413(5) 0.1109(6)
C109_3 C 0.2649(6) 0.5923(5) 0.1804(5)
C110_3 C 0.2154(7) 0.5848(7) 0.2521(6)
H59_3 H 0.1921 0.5699 0.2696
C111_3 C 0.3287(6) 0.5881(8) 0.0692(6)
H60_3 H 0.3521 0.6055 0.0543
C112_3 C 0.3094(6) 0.5498(7) 0.0444(6)
H61_3 H 0.3215 0.5406 0.0154
C113_3 C 0.1570(6) 0.4780(6) 0.1529(5)
H62_3 H 0.1342 0.4545 0.1517
C114_3 C 0.2447(7) 0.6236(7) 0.2703(7)
H63_3 H 0.2389 0.6354 0.3003
C115_3 C 0.2780(6) 0.5778(6) 0.1325(6)
C116_3 C 0.2272(5) 0.5723(6) 0.2032(5)
C117_3 C 0.2027(5) 0.5356(6) 0.1811(5)
N52_2 N 0.3728(4) 0.6991(4) 0.2102(5)
N58_2 N 0.3977(4) 0.6151(4) 0.1847(4)
Co2_5 Co 0.2500 0.8750 1.0000
C6_3 C 0.1652(7) 0.9654(7) 0.9979(6)
H3_3 H 0.1801 0.9421 0.9804
C10_3 C 0.1264(7) 0.9947(7) 0.9797(7)
H7_3 H 0.1146 0.9889 0.9497
N14_3 N 0.1991(4) 0.7102(5) 0.8728(4)
N15_3 N 0.1931(4) 0.8377(4) 0.9922(4)
N16_3 N 0.1151(4) 0.6847(4) 0.8977(4)
C40_3 C 0.1338(5) 0.7833(6) 0.9799(5)
C41_3 C 0.0647(5) 0.7281(6) 0.9739(6)
H22_3 H 0.0492 0.7424 0.9990
C42_3 C 0.2447(5) 0.7210(6) 0.8581(6)
H23_3 H 0.2578 0.7030 0.8341
C43_3 C 0.1109(6) 0.7447(7) 0.9587(5)
C44_3 C 0.1804(5) 0.7351(6) 0.9077(5)
C45_3 C 0.2521(6) 0.7846(7) 0.9152(7)
H24_3 H 0.2696 0.8079 0.9301
C46_3 C 0.0692(6) 0.6713(6) 0.9119(8)
H25_3 H 0.0543 0.6479 0.8945
C47_3 C 0.0444(6) 0.6906(6) 0.9502(7)
H26_3 H 0.0154 0.6785 0.9594
C49_3 C 0.2703(7) 0.7553(7) 0.8764(7)
H28_3 H 0.3003 0.7611 0.8646
C50_3 C 0.1325(6) 0.7220(6) 0.9222(6)
C51_3 C 0.2032(5) 0.7728(5) 0.9277(6)
C52_3 C 0.1811(5) 0.7973(5) 0.9644(6)
N17_3 N 0.2354(4) 0.9355(5) 0.8686(4)
N19_3 N 0.2578(4) 0.9123(4) 0.9431(4)
C53_3 C 0.2701(5) 0.9667(6) 0.8838(5)
C61_3 C 0.2280(6) 0.9070(6) 0.9029(5)
H34_3 H 0.2045 0.8842 0.9017
C64_3 C 0.3223(6) 0.9772(5) 0.9532(5)
C65_3 C 0.2856(6) 0.9527(5) 0.9311(5)
N21_3 N 0.3814(4) 0.8145(5) 0.9854(4)
C74_3 C 0.3471(5) 0.8430(6) 0.9780(6)
H41_3 H 0.3483 0.8658 0.9545
H9_3 H 0.9922 0.0841 0.0470
N9_3 N 0.9355(5) 0.1314(4) 0.2646(4)
N11_3 N 0.9123(4) 0.0569(4) 0.2422(4)
C27_3 C 0.9667(6) 0.1162(5) 0.2299(5)
C35_3 C 0.9070(6) 0.0971(5) 0.2720(6)
H20_3 H 0.8842 0.0983 0.2955
C38_3 C 0.9772(5) 0.0468(5) 0.1777(6)
C39_3 C 0.9527(5) 0.0689(5) 0.2144(6)
N25_3 N 0.8145(5) 0.0146(4) 0.1186(4)
C87_3 C 0.8430(6) 0.0220(6) 0.1529(5)
H48_3 H 0.8658 0.0455 0.1517
C145_3 C 0.8147(5) 0.2761(6) 0.0219(6)
H78_3 H 0.7992 0.2510 0.0076
C146_3 C 0.9947(5) 0.3919(6) 0.0290(6)
C147_3 C 0.8609(6) 0.2913(5) 0.0053(7)
C148_3 C 0.9304(5) 0.3423(5) 0.0149(6)
C150_3 C 0.8192(6) 0.3381(8) 0.0787(6)
H81_3 H 0.8043 0.3555 0.1021
C151_3 C 0.7944(6) 0.2998(7) 0.0594(6)
H82_3 H 0.7654 0.2906 0.0715
C154_3 C 0.8825(6) 0.3278(6) 0.0280(6)
C19_3 C 0.9979(6) 0.1652(7) 0.9654(7)
H10_3 H 0.9804 0.1801 0.9421
C23_3 C 0.9797(7) 0.1264(7) 0.9947(7)
H14_3 H 0.9497 0.1146 0.9889
N37_3 N 0.9854(4) 0.3814(4) 0.8145(5)
C126_3 C 0.9780(6) 0.3471(5) 0.8430(6)
H69_3 H 0.9545 0.3483 0.8658
N45_3 N 0.8686(4) 0.2354(4) 0.9355(5)
N47_3 N 0.9431(4) 0.2578(4) 0.9123(4)
C144_3 C 0.8838(5) 0.2701(5) 0.9667(6)
C152_3 C 0.9029(5) 0.2280(6) 0.9070(6)
H83_3 H 0.9017 0.2045 0.8842
C155_3 C 0.9532(5) 0.3223(6) 0.9772(5)
C156_3 C 0.9311(5) 0.2856(6) 0.9527(5)
C32_3 C 0.9654(7) 0.9979(6) 0.1652(7)
H17_3 H 0.9421 0.9804 0.1801
C36_3 C 0.9947(7) 0.9797(7) 0.1264(7)
H21_3 H 0.9889 0.9497 0.1146
N27_3 N 0.8377(4) 0.9922(4) 0.1931(4)
C79_3 C 0.7833(6) 0.9799(5) 0.1338(5)
C80_3 C 0.7281(6) 0.9739(6) 0.0647(5)
H43_3 H 0.7424 0.9990 0.0492
C81_3 C 0.7210(6) 0.8581(6) 0.2447(5)
H44_3 H 0.7030 0.8341 0.2578
C82_3 C 0.7447(7) 0.9587(5) 0.1109(6)
C83_3 C 0.7351(6) 0.9077(5) 0.1804(5)
C84_3 C 0.7846(7) 0.9152(7) 0.2521(6)
H45_3 H 0.8079 0.9301 0.2696
C85_3 C 0.6713(6) 0.9119(8) 0.0692(6)
H46_3 H 0.6479 0.8945 0.0543
C86_3 C 0.6906(6) 0.9502(7) 0.0444(6)
H47_3 H 0.6785 0.9594 0.0154
C88_3 C 0.7553(7) 0.8764(7) 0.2703(7)
H49_3 H 0.7611 0.8646 0.3003
C89_3 C 0.7220(6) 0.9222(6) 0.1325(6)
C90_3 C 0.7728(5) 0.9277(6) 0.2032(5)
C91_3 C 0.7973(5) 0.9644(6) 0.1811(5)
N53_3 N 0.9123(4) 0.9431(4) 0.2578(4)
Co2_6 Co 0.2500 0.1250 0.5000
N1_4 N 0.2354(4) 0.0645(5) 0.6314(4)
N3_4 N 0.2578(4) 0.0877(4) 0.5569(4)
C1_4 C 0.2701(5) 0.0333(6) 0.6162(5)
C6_4 C 0.3348(7) 0.0346(7) 0.4979(6)
H3_4 H 0.3199 0.0579 0.4804
C9_4 C 0.2280(6) 0.0930(6) 0.5971(5)
H6_4 H 0.2045 0.1158 0.5983
C10_4 C 0.3736(7) 0.0053(7) 0.4797(7)
H7_4 H 0.3854 0.0111 0.4497
C12_4 C 0.3223(6) 0.0228(5) 0.5468(5)
C13_4 C 0.2856(6) 0.0473(5) 0.5689(5)
H16_4 H 0.4530 0.0078 0.5841
C32_4 C 0.5346(7) 0.0021(6) 0.6652(7)
H17_4 H 0.5579 0.0196 0.6801
C36_4 C 0.5053(7) 0.0203(7) 0.6264(7)
H21_4 H 0.5111 0.0503 0.6146
N13_4 N 0.3814(4) 0.1855(5) 0.5146(4)
N14_4 N 0.3009(4) 0.2898(5) 0.3728(4)
N15_4 N 0.3069(4) 0.1623(4) 0.4922(4)
N16_4 N 0.3849(4) 0.3153(4) 0.3977(4)
C40_4 C 0.3662(5) 0.2167(6) 0.4799(5)
C41_4 C 0.4353(5) 0.2719(6) 0.4739(6)
H22_4 H 0.4508 0.2576 0.4990
C42_4 C 0.2553(5) 0.2790(6) 0.3581(6)
H23_4 H 0.2422 0.2970 0.3341
C43_4 C 0.3891(6) 0.2553(7) 0.4587(5)
C44_4 C 0.3196(5) 0.2649(6) 0.4077(5)
C45_4 C 0.2479(6) 0.2154(7) 0.4152(7)
H24_4 H 0.2304 0.1921 0.4301
C46_4 C 0.4308(6) 0.3287(6) 0.4119(8)
H25_4 H 0.4457 0.3521 0.3945
C47_4 C 0.4556(6) 0.3094(6) 0.4502(7)
H26_4 H 0.4846 0.3215 0.4594
C48_4 C 0.3471(5) 0.1570(6) 0.5220(6)
H27_4 H 0.3483 0.1342 0.5455
C49_4 C 0.2297(7) 0.2447(7) 0.3764(7)
H28_4 H 0.1997 0.2389 0.3646
C50_4 C 0.3675(6) 0.2780(6) 0.4222(6)
C51_4 C 0.2968(5) 0.2272(5) 0.4277(6)
C52_4 C 0.3189(5) 0.2027(5) 0.4644(6)
N17_4 N 0.2646(4) 0.0645(5) 0.3686(4)
N19_4 N 0.2422(4) 0.0877(4) 0.4431(4)
C53_4 C 0.2299(5) 0.0333(6) 0.3838(5)
C58_4 C 0.1652(7) 0.0346(7) 0.5021(6)
H31_4 H 0.1801 0.0579 0.5196
C61_4 C 0.2720(6) 0.0930(6) 0.4029(5)
H34_4 H 0.2955 0.1158 0.4017
C62_4 C 0.1264(7) 0.0053(7) 0.5203(7)
H35_4 H 0.1146 0.0111 0.5503
C64_4 C 0.1777(6) 0.0228(5) 0.4532(5)
C65_4 C 0.2144(6) 0.0473(5) 0.4311(5)
N21_4 N 0.1186(4) 0.1855(5) 0.4854(4)
N22_4 N 0.1991(4) 0.2898(5) 0.6272(4)
N23_4 N 0.1931(4) 0.1623(4) 0.5078(4)
N24_4 N 0.1151(4) 0.3153(4) 0.6023(4)
C66_4 C 0.1338(5) 0.2167(6) 0.5201(5)
C67_4 C 0.0647(5) 0.2719(6) 0.5261(6)
H36_4 H 0.0492 0.2576 0.5010
C68_4 C 0.2447(5) 0.2790(6) 0.6419(6)
H37_4 H 0.2578 0.2970 0.6659
C69_4 C 0.1109(6) 0.2553(7) 0.5413(5)
C70_4 C 0.1804(5) 0.2649(6) 0.5923(5)
C71_4 C 0.2521(6) 0.2154(7) 0.5848(7)
H38_4 H 0.2696 0.1921 0.5699
C72_4 C 0.0692(6) 0.3287(6) 0.5881(8)
H39_4 H 0.0543 0.3521 0.6055
C73_4 C 0.0444(6) 0.3094(6) 0.5498(7)
H40_4 H 0.0154 0.3215 0.5406
C74_4 C 0.1529(5) 0.1570(6) 0.4780(6)
H41_4 H 0.1517 0.1342 0.4545
C75_4 C 0.2703(7) 0.2447(7) 0.6236(7)
H42_4 H 0.3003 0.2389 0.6354
C76_4 C 0.1325(6) 0.2780(6) 0.5778(6)
C77_4 C 0.2032(5) 0.2272(5) 0.5723(6)
C78_4 C 0.1811(5) 0.2027(5) 0.5356(6)
N27_4 N 0.6623(4) 0.0078(4) 0.6931(4)
C79_4 C 0.7167(6) 0.0201(5) 0.6338(5)
C80_4 C 0.7719(6) 0.0261(6) 0.5647(5)
H43_4 H 0.7576 0.0010 0.5492
C81_4 C 0.7790(6) 0.1419(6) 0.7447(5)
H44_4 H 0.7970 0.1659 0.7578
C82_4 C 0.7553(7) 0.0413(5) 0.6109(6)
C83_4 C 0.7649(6) 0.0923(5) 0.6804(5)
C84_4 C 0.7154(7) 0.0848(7) 0.7521(6)
H45_4 H 0.6921 0.0699 0.7696
C85_4 C 0.8287(6) 0.0881(8) 0.5692(6)
H46_4 H 0.8521 0.1055 0.5543
C86_4 C 0.8094(6) 0.0498(7) 0.5444(6)
H47_4 H 0.8215 0.0406 0.5154
C88_4 C 0.7447(7) 0.1236(7) 0.7703(7)
H49_4 H 0.7389 0.1354 0.8003
C89_4 C 0.7780(6) 0.0778(6) 0.6325(6)
C90_4 C 0.7272(5) 0.0723(6) 0.7032(5)
C91_4 C 0.7027(5) 0.0356(6) 0.6811(5)
N33_4 N 0.3145(5) 0.5146(4) 0.6186(4)
N34_4 N 0.2102(5) 0.3728(4) 0.6991(4)
N36_4 N 0.1847(4) 0.3977(4) 0.6151(4)
C105_4 C 0.2833(6) 0.4799(5) 0.6338(5)
C106_4 C 0.2281(6) 0.4739(6) 0.5647(5)
H57_4 H 0.2424 0.4990 0.5492
C107_4 C 0.2210(6) 0.3581(6) 0.7447(5)
H58_4 H 0.2030 0.3341 0.7578
C108_4 C 0.2447(7) 0.4587(5) 0.6109(6)
C109_4 C 0.2351(6) 0.4077(5) 0.6804(5)
C110_4 C 0.2846(7) 0.4152(7) 0.7521(6)
H59_4 H 0.3079 0.4301 0.7696
C111_4 C 0.1713(6) 0.4119(8) 0.5692(6)
H60_4 H 0.1479 0.3945 0.5543
C112_4 C 0.1906(6) 0.4502(7) 0.5444(6)
H61_4 H 0.1785 0.4594 0.5154
C113_4 C 0.3430(6) 0.5220(6) 0.6529(5)
H62_4 H 0.3658 0.5455 0.6517
C114_4 C 0.2553(7) 0.3764(7) 0.7703(7)
H63_4 H 0.2611 0.3646 0.8003
C115_4 C 0.2220(6) 0.4222(6) 0.6325(6)
C116_4 C 0.2728(5) 0.4277(6) 0.7032(5)
C117_4 C 0.2973(5) 0.4644(6) 0.6811(5)
N53_4 N 0.5877(4) 0.0569(4) 0.7578(4)
Co1_4 Co 0.40582(8) 0.90582(8) 0.59418(8)
N2_4 N 0.3772(4) 0.9602(5) 0.5509(4)
N4_4 N 0.3523(4) 0.9347(4) 0.6349(4)
C2_4 C 0.2761(6) 0.9781(6) 0.6853(5)
H1_4 H 0.2510 0.9924 0.7008
C3_4 C 0.3919(6) 0.9710(6) 0.5053(5)
H2_4 H 0.4159 0.9530 0.4922
C4_4 C 0.2913(5) 0.9947(7) 0.6391(6)
C5_4 C 0.3423(5) 0.9851(6) 0.5696(5)
C7_4 C 0.3381(8) 0.9213(6) 0.6808(6)
H4_4 H 0.3555 0.8979 0.6957
C8_4 C 0.2998(7) 0.9406(6) 0.7056(6)
H5_4 H 0.2906 0.9285 0.7346
C11_4 C 0.3278(6) 0.9720(6) 0.6175(6)
N5_4 N 0.3686(4) 0.7354(4) 0.4355(5)
N6_4 N 0.4491(4) 0.8772(4) 0.5398(5)
N7_4 N 0.4431(4) 0.7578(4) 0.4123(4)
N8_4 N 0.3651(4) 0.8523(4) 0.5653(4)
C14_4 C 0.3838(5) 0.7701(5) 0.4667(6)
C15_4 C 0.3147(5) 0.7761(6) 0.5219(6)
H8_4 H 0.2992 0.7510 0.5076
C16_4 C 0.4947(5) 0.8919(6) 0.5290(6)
H9_4 H 0.5078 0.9159 0.5470
C17_4 C 0.3609(6) 0.7913(5) 0.5053(7)
C18_4 C 0.4304(5) 0.8423(5) 0.5149(6)
C19_4 C 0.5021(6) 0.8348(7) 0.4654(7)
H10_4 H 0.5196 0.8199 0.4421
C20_4 C 0.3192(6) 0.8381(8) 0.5787(6)
H11_4 H 0.3043 0.8555 0.6021
C21_4 C 0.2944(6) 0.7998(7) 0.5594(6)
H12_4 H 0.2654 0.7906 0.5715
C22_4 C 0.4029(5) 0.7280(6) 0.4070(6)
H13_4 H 0.4017 0.7045 0.3842
C23_4 C 0.5203(7) 0.8736(7) 0.4947(7)
H14_4 H 0.5503 0.8854 0.4889
C24_4 C 0.3825(6) 0.8278(6) 0.5280(6)
C25_4 C 0.4532(5) 0.8223(6) 0.4772(5)
C26_4 C 0.4311(5) 0.7856(6) 0.4527(5)
N9_4 N 0.5645(5) 0.8686(4) 0.7646(4)
N10_4 N 0.4602(5) 0.9491(4) 0.6228(4)
N11_4 N 0.5877(4) 0.9431(4) 0.7422(4)
N12_4 N 0.4347(4) 0.8651(4) 0.6477(4)
C27_4 C 0.5333(6) 0.8838(5) 0.7299(5)
C28_4 C 0.4781(6) 0.8147(5) 0.7239(6)
H15_4 H 0.4924 0.7992 0.7490
C29_4 C 0.4710(6) 0.9947(5) 0.6081(6)
C30_4 C 0.4947(7) 0.8609(6) 0.7087(5)
C31_4 C 0.4851(6) 0.9304(5) 0.6577(5)
C33_4 C 0.4213(6) 0.8192(6) 0.6619(8)
H18_4 H 0.3979 0.8043 0.6445
C34_4 C 0.4406(6) 0.7944(6) 0.7002(7)
H19_4 H 0.4285 0.7654 0.7094
C35_4 C 0.5930(6) 0.9029(5) 0.7720(6)
H20_4 H 0.6158 0.9017 0.7955
C37_4 C 0.4720(6) 0.8825(6) 0.6722(6)
C38_4 C 0.5228(5) 0.9532(5) 0.6777(6)
C39_4 C 0.5473(5) 0.9311(5) 0.7144(6)
N18_4 N 0.1228(4) 0.9602(5) 0.4491(4)
N20_4 N 0.1477(4) 0.9347(4) 0.3651(4)
C54_4 C 0.2239(6) 0.9781(6) 0.3147(5)
H29_4 H 0.2490 0.9924 0.2992
C55_4 C 0.1081(6) 0.9710(6) 0.4947(5)
H30_4 H 0.0841 0.9530 0.5078
C56_4 C 0.2087(5) 0.9947(7) 0.3609(6)
C57_4 C 0.1577(5) 0.9851(6) 0.4304(5)
C59_4 C 0.1619(8) 0.9213(6) 0.3192(6)
H32_4 H 0.1445 0.8979 0.3043
C60_4 C 0.2002(7) 0.9406(6) 0.2944(6)
H33_4 H 0.2094 0.9285 0.2654
C63_4 C 0.1722(6) 0.9720(6) 0.3825(6)
N25_4 N 0.6855(5) 0.9854(4) 0.6186(4)
C87_4 C 0.6570(6) 0.9780(6) 0.6529(5)
H48_4 H 0.6342 0.9545 0.6517
N37_4 N 0.5146(4) 0.6186(4) 0.3145(5)
N39_4 N 0.4922(4) 0.6931(4) 0.3377(4)
C118_4 C 0.4799(5) 0.6338(5) 0.2833(6)
C119_4 C 0.4739(6) 0.5647(5) 0.2281(6)
H64_4 H 0.4990 0.5492 0.2424
C120_4 C 0.3581(6) 0.7447(5) 0.2210(6)
H65_4 H 0.3341 0.7578 0.2030
C121_4 C 0.4587(5) 0.6109(6) 0.2447(7)
C122_4 C 0.4077(5) 0.6804(5) 0.2351(6)
C123_4 C 0.4152(7) 0.7521(6) 0.2846(7)
H66_4 H 0.4301 0.7696 0.3079
C124_4 C 0.4119(8) 0.5692(6) 0.1713(6)
H67_4 H 0.3945 0.5543 0.1479
C125_4 C 0.4502(7) 0.5444(6) 0.1906(6)
H68_4 H 0.4594 0.5154 0.1785
C126_4 C 0.5220(6) 0.6529(5) 0.3430(6)
H69_4 H 0.5455 0.6517 0.3658
C127_4 C 0.3764(7) 0.7703(7) 0.2553(7)
H70_4 H 0.3646 0.8003 0.2611
C128_4 C 0.4222(6) 0.6325(6) 0.2220(6)
C129_4 C 0.4277(6) 0.7032(5) 0.2728(5)
C130_4 C 0.4644(6) 0.6811(5) 0.2973(5)
N45_4 N 0.6314(4) 0.7646(4) 0.4355(5)
N47_4 N 0.5569(4) 0.7422(4) 0.4123(4)
C144_4 C 0.6162(5) 0.7299(5) 0.4667(6)
C145_4 C 0.6853(5) 0.7239(6) 0.5219(6)
H78_4 H 0.7008 0.7490 0.5076
C146_4 C 0.5053(5) 0.6081(6) 0.5290(6)
H79_4 H 0.4922 0.5841 0.5470
C147_4 C 0.6391(6) 0.7087(5) 0.5053(7)
C148_4 C 0.5696(5) 0.6577(5) 0.5149(6)
C149_4 C 0.4979(6) 0.6652(7) 0.4654(7)
H80_4 H 0.4804 0.6801 0.4421
C150_4 C 0.6808(6) 0.6619(8) 0.5787(6)
H81_4 H 0.6957 0.6445 0.6021
C151_4 C 0.7056(6) 0.7002(7) 0.5594(6)
H82_4 H 0.7346 0.7094 0.5715
C152_4 C 0.5971(5) 0.7720(6) 0.4070(6)
H83_4 H 0.5983 0.7955 0.3842
C153_4 C 0.4797(7) 0.6264(7) 0.4947(7)
H84_4 H 0.4497 0.6146 0.4889
C154_4 C 0.6175(6) 0.6722(6) 0.5280(6)
C155_4 C 0.5468(5) 0.6777(6) 0.4772(5)
C156_4 C 0.5689(5) 0.7144(6) 0.4527(5)
N51_4 N 0.0398(5) 0.9491(4) 0.3772(4)
N57_4 N 0.0653(4) 0.8651(4) 0.3523(4)
N45_5 N 0.5645(5) 0.1314(4) 0.7354(4)
C144_5 C 0.5333(6) 0.1162(5) 0.7701(5)
C145_5 C 0.4781(6) 0.1853(5) 0.7761(6)
H78_5 H 0.4924 0.2008 0.7510
C146_5 C 0.4710(6) 0.0053(5) 0.8919(6)
C147_5 C 0.4947(7) 0.1391(6) 0.7913(5)
C148_5 C 0.4851(6) 0.0696(5) 0.8423(5)
C150_5 C 0.4213(6) 0.1808(6) 0.8381(8)
H81_5 H 0.3979 0.1957 0.8555
C151_5 C 0.4406(6) 0.2056(6) 0.7998(7)
H82_5 H 0.4285 0.2346 0.7906
C152_5 C 0.5930(6) 0.0971(5) 0.7280(6)
H83_5 H 0.6158 0.0983 0.7045
C154_5 C 0.4720(6) 0.1175(6) 0.8278(6)
C155_5 C 0.5228(5) 0.0468(5) 0.8223(6)
C156_5 C 0.5473(5) 0.0689(5) 0.7856(6)
H79_5 H 0.4530 0.9922 0.9159
C149_5 C 0.5346(7) 0.9979(6) 0.8348(7)
H80_5 H 0.5579 0.9804 0.8199
C153_5 C 0.5053(7) 0.9797(7) 0.8736(7)
H84_5 H 0.5111 0.9497 0.8854
N45_6 N 0.0645(5) 0.3686(4) 0.2646(4)
C144_6 C 0.0333(6) 0.3838(5) 0.2299(5)
C149_6 C 0.0346(7) 0.5021(6) 0.1652(7)
H80_6 H 0.0579 0.5196 0.1801
C152_6 C 0.0930(6) 0.4029(5) 0.2720(6)
H83_6 H 0.1158 0.4017 0.2955
C153_6 C 0.0053(7) 0.5203(7) 0.1264(7)
H84_6 H 0.0111 0.5503 0.1146
C155_6 C 0.0228(5) 0.4532(5) 0.1777(6)
C156_6 C 0.0473(5) 0.4311(5) 0.2144(6)
C145_6 C 0.9781(6) 0.3147(5) 0.2239(6)
H78_6 H 0.9924 0.2992 0.2490
C146_6 C 0.9710(6) 0.4947(5) 0.1081(6)
H79_6 H 0.9530 0.5078 0.0841
C147_6 C 0.9947(7) 0.3609(6) 0.2087(5)
C148_6 C 0.9851(6) 0.4304(5) 0.1577(5)
C150_6 C 0.9213(6) 0.3192(6) 0.1619(8)
H81_6 H 0.8979 0.3043 0.1445
C151_6 C 0.9406(6) 0.2944(6) 0.2002(7)
H82_6 H 0.9285 0.2654 0.2094
C154_6 C 0.9720(6) 0.3825(6) 0.1722(6)
H79_7 H 0.0470 0.0078 0.4159
C145_7 C 0.0219(6) 0.8147(5) 0.2761(6)
H78_7 H 0.0076 0.7992 0.2510
C146_7 C 0.0290(6) 0.9947(5) 0.3919(6)
C147_7 C 0.0053(7) 0.8609(6) 0.2913(5)
C148_7 C 0.0149(6) 0.9304(5) 0.3423(5)
C150_7 C 0.0787(6) 0.8192(6) 0.3381(8)
H81_7 H 0.1021 0.8043 0.3555
C151_7 C 0.0594(6) 0.7944(6) 0.2998(7)
H82_7 H 0.0715 0.7654 0.2906
C154_7 C 0.0280(6) 0.8825(6) 0.3278(6)
C149_7 C 0.9654(7) 0.0021(6) 0.3348(7)
H80_7 H 0.9421 0.0196 0.3199
C153_7 C 0.9947(7) 0.0203(7) 0.3736(7)
H84_7 H 0.9889 0.0503 0.3854
N45_7 N 0.9355(5) 0.8686(4) 0.2354(4)
C144_7 C 0.9667(6) 0.8838(5) 0.2701(5)
C152_7 C 0.9070(6) 0.9029(5) 0.2280(6)
H83_7 H 0.8842 0.9017 0.2045
C155_7 C 0.9772(5) 0.9532(5) 0.3223(6)
C156_7 C 0.9527(5) 0.9311(5) 0.2856(6)
N45_8 N 0.4355(5) 0.6314(4) 0.7646(4)
C144_8 C 0.4667(6) 0.6162(5) 0.7299(5)
C145_8 C 0.5219(6) 0.6853(5) 0.7239(6)
H78_8 H 0.5076 0.7008 0.7490
C146_8 C 0.5290(6) 0.5053(5) 0.6081(6)
H79_8 H 0.5470 0.4922 0.5841
C147_8 C 0.5053(7) 0.6391(6) 0.7087(5)
C148_8 C 0.5149(6) 0.5696(5) 0.6577(5)
C149_8 C 0.4654(7) 0.4979(6) 0.6652(7)
H80_8 H 0.4421 0.4804 0.6801
C150_8 C 0.5787(6) 0.6808(6) 0.6619(8)
H81_8 H 0.6021 0.6957 0.6445
C151_8 C 0.5594(6) 0.7056(6) 0.7002(7)
H82_8 H 0.5715 0.7346 0.7094
C152_8 C 0.4070(6) 0.5971(5) 0.7720(6)
H83_8 H 0.3842 0.5983 0.7955
C153_8 C 0.4947(7) 0.4797(7) 0.6264(7)
H84_8 H 0.4889 0.4497 0.6146
C154_8 C 0.5280(6) 0.6175(6) 0.6722(6)
C155_8 C 0.4772(5) 0.5468(5) 0.6777(6)
C156_8 C 0.4527(5) 0.5689(5) 0.7144(6)
O1 O 0.9160(17) 0.5160(15) 0.2358(17)
H85 H 0.950957 0.516 0.2358
O1_2 O 0.5840(17) 0.4840(15) 0.7358(17)
H85_2 H 0.549043 0.484 0.7358
O1_3 O 0.0840(17) 0.0160(15) 0.2642(17)
H85_3 H 0.0490433 0.016 0.2642
O1_4 O 0.4160(17) 0.9840(15) 0.7642(17)
H85_4 H 0.450957 0.984 0.7642
O1_5 O 0.2358(17) 0.9160(17) 0.5160(15)
H85_5 H 0.2358 0.950957 0.516
O1_6 O 0.7358(17) 0.5840(17) 0.4840(15)
H85_6 H 0.7358 0.549043 0.484
O1_7 O 0.2642(17) 0.0840(17) 0.0160(15)
H85_7 H 0.2642 0.0490433 0.016
O1_8 O 0.7642(17) 0.4160(17) 0.9840(15)
H85_8 H 0.7642 0.450957 0.984
O1_9 O 0.5160(15) 0.2358(17) 0.9160(17)
H85_9 H 0.516 0.2358 0.950957
O1_10 O 0.4840(15) 0.7358(17) 0.5840(17)
H85_10 H 0.484 0.7358 0.549043
O1_11 O 0.0160(15) 0.2642(17) 0.0840(17)
H85_11 H 0.016 0.2642 0.0490433
O1_12 O 0.9840(15) 0.7642(17) 0.4160(17)
H85_12 H 0.984 0.7642 0.450957
O1_13 O 0.7660(15) 0.1660(17) 0.4858(17)
H85_13 H 0.766 0.200957 0.4858
O1_14 O 0.7340(15) 0.8340(17) 0.9858(17)
H85_14 H 0.734 0.799043 0.9858
O1_15 O 0.2660(15) 0.3340(17) 0.5142(17)
H85_15 H 0.266 0.299043 0.5142
O1_16 O 0.2340(15) 0.6660(17) 0.0142(17)
H85_16 H 0.234 0.700957 0.0142
O1_17 O 0.1660(17) 0.4858(17) 0.7660(15)
H85_17 H 0.200957 0.4858 0.766
O1_18 O 0.8340(17) 0.9858(17) 0.7340(15)
H85_18 H 0.799043 0.9858 0.734
O1_19 O 0.3340(17) 0.5142(17) 0.2660(15)
H85_19 H 0.299043 0.5142 0.266
O1_20 O 0.6660(17) 0.0142(17) 0.2340(15)
H85_20 H 0.700957 0.0142 0.234
O1_21 O 0.4858(17) 0.7660(15) 0.1660(17)
H85_21 H 0.4858 0.766 0.200957
O1_22 O 0.9858(17) 0.7340(15) 0.8340(17)
H85_22 H 0.9858 0.734 0.799043
O1_23 O 0.5142(17) 0.2660(15) 0.3340(17)
H85_23 H 0.5142 0.266 0.299043
O1_24 O 0.0142(17) 0.2340(15) 0.6660(17)
H85_24 H 0.0142 0.234 0.700957
O1_25 O 0.4160(17) 0.0160(15) 0.7358(17)
H85_25 H 0.450957 0.016 0.7358
O1_26 O 0.0840(17) 0.9840(15) 0.2358(17)
H85_26 H 0.0490433 0.984 0.2358
O1_27 O 0.5840(17) 0.5160(15) 0.7642(17)
H85_27 H 0.549043 0.516 0.7642
O1_28 O 0.9160(17) 0.4840(15) 0.2642(17)
H85_28 H 0.950957 0.484 0.2642
O1_29 O 0.7358(17) 0.4160(17) 0.0160(15)
H85_29 H 0.7358 0.450957 0.016
O1_30 O 0.2358(17) 0.0840(17) 0.9840(15)
H85_30 H 0.2358 0.0490433 0.984
O1_31 O 0.7642(17) 0.5840(17) 0.5160(15)
H85_31 H 0.7642 0.549043 0.516
O1_32 O 0.2642(17) 0.9160(17) 0.4840(15)
H85_32 H 0.2642 0.950957 0.484
O1_33 O 0.0160(15) 0.7358(17) 0.4160(17)
H85_33 H 0.016 0.7358 0.450957
O1_34 O 0.9840(15) 0.2358(17) 0.0840(17)
H85_34 H 0.984 0.2358 0.0490433
O1_35 O 0.5160(15) 0.7642(17) 0.5840(17)
H85_35 H 0.516 0.7642 0.549043
O1_36 O 0.4840(15) 0.2642(17) 0.9160(17)
H85_36 H 0.484 0.2642 0.950957
O1_37 O 0.2660(15) 0.6660(17) 0.9858(17)
H85_37 H 0.266 0.700957 0.9858
O1_38 O 0.2340(15) 0.3340(17) 0.4858(17)
H85_38 H 0.234 0.299043 0.4858
O1_39 O 0.7660(15) 0.8340(17) 0.0142(17)
H85_39 H 0.766 0.799043 0.0142
O1_40 O 0.7340(15) 0.1660(17) 0.5142(17)
H85_40 H 0.734 0.200957 0.5142
O1_41 O 0.6660(17) 0.9858(17) 0.2660(15)
H85_41 H 0.700957 0.9858 0.266
O1_42 O 0.3340(17) 0.4858(17) 0.2340(15)
H85_42 H 0.299043 0.4858 0.234
O1_43 O 0.8340(17) 0.0142(17) 0.7660(15)
H85_43 H 0.799043 0.0142 0.766
O1_44 O 0.1660(17) 0.5142(17) 0.7340(15)
H85_44 H 0.200957 0.5142 0.734
O1_45 O 0.9858(17) 0.2660(15) 0.6660(17)
H85_45 H 0.9858 0.266 0.700957
O1_46 O 0.4858(17) 0.2340(15) 0.3340(17)
H85_46 H 0.4858 0.234 0.299043
O1_47 O 0.0142(17) 0.7660(15) 0.8340(17)
H85_47 H 0.0142 0.766 0.799043
O1_48 O 0.5142(17) 0.7340(15) 0.1660(17)
H85_48 H 0.5142 0.734 0.200957
loop_
_geom_bond_atom_site_label_1
_geom_bond_atom_site_label_2
_geom_bond_site_symmetry_1
_geom_bond_site_symmetry_2
C19 H10 1_555 1_555
H14 C23 1_555 1_555
Co4 N11 1_555 1_555
N9 C27 1_555 1_555
N11 C35 1_555 1_555
C32 H17 1_555 1_555
C35 N9 1_555 1_555
H20 C35 1_555 1_555
H21 C36 1_555 1_555
C39 N11 1_555 1_555
N25 C79 1_555 1_555
N26 C81 1_555 1_555
N27 Co4 1_555 1_555
N28 C85 1_555 1_555
C79 C82 1_555 1_555
C80 H43 1_555 1_555
C81 H44 1_555 1_555
C82 C80 1_555 1_555
C83 N26 1_555 1_555
C84 H45 1_555 1_555
C85 H46 1_555 1_555
C86 C80 1_555 1_555
H47 C86 1_555 1_555
C87 N25 1_555 1_555
H48 C87 1_555 1_555
C88 C81 1_555 1_555
H49 C88 1_555 1_555
C89 N28 1_555 1_555
C90 C83 1_555 1_555
C91 N27 1_555 1_555
C100 N29 1_555 1_555
H55 C100 1_555 1_555
C126 N37 1_555 1_555
H69 C126 1_555 1_555
N42 C133 1_555 1_555
N43 Co3 1_555 1_555
N44 C137 1_555 1_555
C131 C134 1_555 1_555
C132 H71 1_555 1_555
C133 H72 1_555 1_555
C134 C132 1_555 1_555
C135 N42 1_555 1_555
C136 H73 1_555 1_555
C137 H74 1_555 1_555
C138 C132 1_555 1_555
H75 C138 1_555 1_555
C140 C133 1_555 1_555
H77 C140 1_555 1_555
C141 N44 1_555 1_555
C142 C135 1_555 1_555
C143 N43 1_555 1_555
N45 C144 1_555 1_555
N46 C146 1_555 1_555
N47 Co3 1_555 1_555
N48 C150 1_555 1_555
C144 C147 1_555 1_555
C145 H78 1_555 1_555
C147 C145 1_555 1_555
C148 N46 1_555 1_555
C150 H81 1_555 1_555
C151 C145 1_555 1_555
H82 C151 1_555 1_555
C152 N45 1_555 1_555
H83 C152 1_555 1_555
C154 N48 1_555 1_555
C155 C148 1_555 1_555
C156 N47 1_555 1_555
Co8 N26 1_555 1_555
Co9 N42 1_555 1_555
Co10 N46 1_555 1_555
N53 Co4 1_555 1_555
N54 Co4 1_555 1_555
C19 C23 1_555 1_555
C27 C39 1_555 1_555
C32 C36 1_555 1_555
C32 C38 1_555 1_555
C38 C39 1_555 1_555
N27 C87 1_555 1_555
N28 Co8 1_555 1_555
C79 C91 1_555 1_555
C82 C89 1_555 1_555
C83 C89 1_555 1_555
C84 C88 1_555 1_555
C84 C90 1_555 1_555
C85 C86 1_555 1_555
C90 C91 1_555 1_555
N44 Co9 1_555 1_555
C131 C143 1_555 1_555
C134 C141 1_555 1_555
C135 C141 1_555 1_555
C136 C140 1_555 1_555
C136 C142 1_555 1_555
C137 C138 1_555 1_555
C142 C143 1_555 1_555
N47 C152 1_555 1_555
N48 Co10 1_555 1_555
C144 C156 1_555 1_555
C147 C154 1_555 1_555
C148 C154 1_555 1_555
C150 C151 1_555 1_555
C155 C156 1_555 1_555
Co1 N2 1_555 1_555
Co2 N3 1_555 1_555
N1 C1 1_555 1_555
N2 C3 1_555 1_555
N3 C9 1_555 1_555
N4 Co1 1_555 1_555
C1 C4 1_555 1_555
C2 H1 1_555 1_555
C3 H2 1_555 1_555
C4 C2 1_555 1_555
C5 N2 1_555 1_555
C6 H3 1_555 1_555
C7 N4 1_555 1_555
H4 C7 1_555 1_555
C8 C2 1_555 1_555
H5 C8 1_555 1_555
C9 N1 1_555 1_555
H6 C9 1_555 1_555
C10 C3 1_555 1_555
H7 C10 1_555 1_555
C11 N4 1_555 1_555
C12 C5 1_555 1_555
C13 N3 1_555 1_555
Co3_2 N7 1_555 1_555
N5 C14 1_555 1_555
N6 Co1 1_555 1_555
N7 C22 1_555 1_555
N8 Co1 1_555 1_555
C14 C17 1_555 1_555
C15 H8 1_555 1_555
C16 N6 1_555 1_555
C17 C15 1_555 1_555
C18 N6 1_555 1_555
C20 N8 1_555 1_555
H11 C20 1_555 1_555
C21 C15 1_555 1_555
H12 C21 1_555 1_555
C22 N5 1_555 1_555
H13 C22 1_555 1_555
C24 N8 1_555 1_555
C25 C18 1_555 1_555
C26 N7 1_555 1_555
N10 Co1 1_555 1_555
N12 Co1 1_555 1_555
C28 H15 1_555 1_555
C29 N10 1_555 1_555
H16 C29 1_555 1_555
C30 C28 1_555 1_555
C31 N10 1_555 1_555
C33 N12 1_555 1_555
H18 C33 1_555 1_555
C34 C28 1_555 1_555
H19 C34 1_555 1_555
C37 N12 1_555 1_555
Co5 N14 1_555 1_555
N13 C40 1_555 1_555
N14 C42 1_555 1_555
N15 Co2 1_555 1_555
N16 Co5 1_555 1_555
C40 C43 1_555 1_555
C41 H22 1_555 1_555
C42 H23 1_555 1_555
C43 C41 1_555 1_555
C44 N14 1_555 1_555
C45 H24 1_555 1_555
C46 N16 1_555 1_555
H25 C46 1_555 1_555
C47 C41 1_555 1_555
H26 C47 1_555 1_555
C48 N13 1_555 1_555
H27 C48 1_555 1_555
C49 C42 1_555 1_555
H28 C49 1_555 1_555
C50 N16 1_555 1_555
C51 C44 1_555 1_555
C52 N15 1_555 1_555
Co6 N18 1_555 1_555
N17 C53 1_555 1_555
N18 C55 1_555 1_555
N19 Co2 1_555 1_555
N20 Co6 1_555 1_555
C53 C56 1_555 1_555
C54 H29 1_555 1_555
C55 H30 1_555 1_555
C56 C54 1_555 1_555
C57 N18 1_555 1_555
C58 H31 1_555 1_555
C59 N20 1_555 1_555
H32 C59 1_555 1_555
C60 C54 1_555 1_555
H33 C60 1_555 1_555
C61 N17 1_555 1_555
H34 C61 1_555 1_555
C62 C55 1_555 1_555
H35 C62 1_555 1_555
C63 N20 1_555 1_555
C64 C57 1_555 1_555
C65 N19 1_555 1_555
Co7 N22 1_555 1_555
N21 C66 1_555 1_555
N22 C68 1_555 1_555
N23 Co2 1_555 1_555
N24 Co7 1_555 1_555
C66 C69 1_555 1_555
C67 H36 1_555 1_555
C68 H37 1_555 1_555
C69 C67 1_555 1_555
C70 N22 1_555 1_555
C71 H38 1_555 1_555
C72 N24 1_555 1_555
H39 C72 1_555 1_555
C73 C67 1_555 1_555
H40 C73 1_555 1_555
C74 N21 1_555 1_555
H41 C74 1_555 1_555
C75 C68 1_555 1_555
H42 C75 1_555 1_555
C76 N24 1_555 1_555
C77 C70 1_555 1_555
C78 N23 1_555 1_555
N30 Co5 1_555 1_555
N32 Co5 1_555 1_555
C92 C95 1_555 1_555
C93 H50 1_555 1_555
C94 N30 1_555 1_555
H51 C94 1_555 1_555
C95 C93 1_555 1_555
C96 N30 1_555 1_555
C97 H52 1_555 1_555
C98 N32 1_555 1_555
H53 C98 1_555 1_555
C99 C93 1_555 1_555
H54 C99 1_555 1_555
C101 C94 1_555 1_555
H56 C101 1_555 1_555
C102 N32 1_555 1_555
C103 C96 1_555 1_555
C104 N31 1_555 1_555
N34 Co7 1_555 1_555
N36 Co7 1_555 1_555
C105 C108 1_555 1_555
C106 H57 1_555 1_555
C107 N34 1_555 1_555
H58 C107 1_555 1_555
C108 C106 1_555 1_555
C109 N34 1_555 1_555
C110 H59 1_555 1_555
C111 N36 1_555 1_555
H60 C111 1_555 1_555
C112 C106 1_555 1_555
H61 C112 1_555 1_555
C114 C107 1_555 1_555
H63 C114 1_555 1_555
C115 N36 1_555 1_555
C116 C109 1_555 1_555
C117 N35 1_555 1_555
N38 C120 1_555 1_555
N39 Co3_2 1_555 1_555
N40 C124 1_555 1_555
C118 C121 1_555 1_555
C119 H64 1_555 1_555
C120 H65 1_555 1_555
C121 C119 1_555 1_555
C122 N38 1_555 1_555
C123 H66 1_555 1_555
C124 H67 1_555 1_555
C125 C119 1_555 1_555
H68 C125 1_555 1_555
C127 C120 1_555 1_555
H70 C127 1_555 1_555
C128 N40 1_555 1_555
C129 C122 1_555 1_555
C130 N39 1_555 1_555
C139 N41 1_555 1_555
H76 C139 1_555 1_555
C149 H80 1_555 1_555
H84 C153 1_555 1_555
Co11 N38 1_555 1_555
Co12_2 N31 1_555 1_555
Co13 N35 1_555 1_555
N49 Co5 1_555 1_555
N50 Co6 1_555 1_555
N51 Co6 1_555 1_555
N52 Co7 1_555 1_555
N55 Co5 1_555 1_555
N56 Co6 1_555 1_555
N57 Co6 1_555 1_555
N58 Co7 1_555 1_555
C1 C13 1_555 1_555
C4 C11 1_555 1_555
C5 C11 1_555 1_555
C6 C10 1_555 1_555
C6 C12 1_555 1_555
C7 C8 1_555 1_555
C12 C13 1_555 1_555
C14 C26 1_555 1_555
C17 C24 1_555 1_555
C18 C24 1_555 1_555
C20 C21 1_555 1_555
C25 C26 1_555 1_555
C30 C37 1_555 1_555
C31 C37 1_555 1_555
C33 C34 1_555 1_555
N15 C48 1_555 1_555
C40 C52 1_555 1_555
C43 C50 1_555 1_555
C44 C50 1_555 1_555
C45 C49 1_555 1_555
C45 C51 1_555 1_555
C46 C47 1_555 1_555
C51 C52 1_555 1_555
N19 C61 1_555 1_555
C53 C65 1_555 1_555
C56 C63 1_555 1_555
C57 C63 1_555 1_555
C58 C62 1_555 1_555
C58 C64 1_555 1_555
C59 C60 1_555 1_555
C64 C65 1_555 1_555
N23 C74 1_555 1_555
C66 C78 1_555 1_555
C69 C76 1_555 1_555
C70 C76 1_555 1_555
C71 C75 1_555 1_555
C71 C77 1_555 1_555
C72 C73 1_555 1_555
C77 C78 1_555 1_555
C92 C104 1_555 1_555
C95 C102 1_555 1_555
C96 C102 1_555 1_555
C97 C101 1_555 1_555
C97 C103 1_555 1_555
C98 C99 1_555 1_555
C103 C104 1_555 1_555
C105 C117 1_555 1_555
C108 C115 1_555 1_555
C109 C115 1_555 1_555
C110 C114 1_555 1_555
C110 C116 1_555 1_555
C111 C112 1_555 1_555
C116 C117 1_555 1_555
N40 Co11 1_555 1_555
C118 C130 1_555 1_555
C121 C128 1_555 1_555
C122 C128 1_555 1_555
C123 C127 1_555 1_555
C123 C129 1_555 1_555
C124 C125 1_555 1_555
C129 C130 1_555 1_555
C149 C153 1_555 1_555
C113 N33 1_555 1_555
H62 C113 1_555 1_555
C113_2 N33_2 1_555 1_555
H62_2 C113_2 1_555 1_555
C6_2 H3_2 1_555 1_555
H7_2 C10_2 1_555 1_555
Co3_3 N7_2 1_555 1_555
N5_2 C14_2 1_555 1_555
N7_2 C22_2 1_555 1_555
C19_2 H10_2 1_555 1_555
C22_2 N5_2 1_555 1_555
H13_2 C22_2 1_555 1_555
H14_2 C23_2 1_555 1_555
C26_2 N7_2 1_555 1_555
Co5_2 N14_2 1_555 1_555
N14_2 C42_2 1_555 1_555
N15_2 Co2_2 1_555 1_555
N16_2 Co5_2 1_555 1_555
C40_2 C43_2 1_555 1_555
C41_2 H22_2 1_555 1_555
C42_2 H23_2 1_555 1_555
C43_2 C41_2 1_555 1_555
C44_2 N14_2 1_555 1_555
C45_2 H24_2 1_555 1_555
C46_2 N16_2 1_555 1_555
H25_2 C46_2 1_555 1_555
C47_2 C41_2 1_555 1_555
H26_2 C47_2 1_555 1_555
C49_2 C42_2 1_555 1_555
H28_2 C49_2 1_555 1_555
C50_2 N16_2 1_555 1_555
C51_2 C44_2 1_555 1_555
C52_2 N15_2 1_555 1_555
Co6_2 N18_2 1_555 1_555
N17_2 C53_2 1_555 1_555
N18_2 C55_2 1_555 1_555
N19_2 Co2_2 1_555 1_555
N20_2 Co6_2 1_555 1_555
C53_2 C56_2 1_555 1_555
C54_2 H29_2 1_555 1_555
C56_2 C54_2 1_555 1_555
C57_2 N18_2 1_555 1_555
C59_2 N20_2 1_555 1_555
H32_2 C59_2 1_555 1_555
C60_2 C54_2 1_555 1_555
H33_2 C60_2 1_555 1_555
C61_2 N17_2 1_555 1_555
H34_2 C61_2 1_555 1_555
C63_2 N20_2 1_555 1_555
C64_2 C57_2 1_555 1_555
C65_2 N19_2 1_555 1_555
C74_2 N21_2 1_555 1_555
H41_2 C74_2 1_555 1_555
N29_2 C92_2 1_555 1_555
N30_2 Co5_2 1_555 1_555
N31_2 C100_2 1_555 1_555
N32_2 Co5_2 1_555 1_555
C92_2 C95_2 1_555 1_555
C93_2 H50_2 1_555 1_555
C94_2 N30_2 1_555 1_555
H51_2 C94_2 1_555 1_555
C95_2 C93_2 1_555 1_555
C96_2 N30_2 1_555 1_555
C97_2 H52_2 1_555 1_555
C98_2 N32_2 1_555 1_555
H53_2 C98_2 1_555 1_555
C99_2 C93_2 1_555 1_555
H54_2 C99_2 1_555 1_555
C100_2 N29_2 1_555 1_555
H55_2 C100_2 1_555 1_555
C101_2 C94_2 1_555 1_555
H56_2 C101_2 1_555 1_555
C102_2 N32_2 1_555 1_555
C103_2 C96_2 1_555 1_555
C104_2 N31_2 1_555 1_555
N37_2 C118_2 1_555 1_555
N52 C120_2 1_555 1_555
N39_2 Co3_3 1_555 1_555
N58 C124_2 1_555 1_555
C118_2 C121_2 1_555 1_555
C119_2 H64_2 1_555 1_555
C120_2 H65_2 1_555 1_555
C121_2 C119_2 1_555 1_555
C122_2 N52 1_555 1_555
C123_2 H66_2 1_555 1_555
C124_2 H67_2 1_555 1_555
C125_2 C119_2 1_555 1_555
H68_2 C125_2 1_555 1_555
C126_2 N37_2 1_555 1_555
H69_2 C126_2 1_555 1_555
C127_2 C120_2 1_555 1_555
H70_2 C127_2 1_555 1_555
C128_2 N58 1_555 1_555
C129_2 C122_2 1_555 1_555
C130_2 N39_2 1_555 1_555
N41_2 C131_2 1_555 1_555
N42_2 C133_2 1_555 1_555
N43_2 Co3_3 1_555 1_555
N44_2 C137_2 1_555 1_555
C131_2 C134_2 1_555 1_555
C132_2 H71_2 1_555 1_555
C133_2 H72_2 1_555 1_555
C134_2 C132_2 1_555 1_555
C135_2 N42_2 1_555 1_555
C136_2 H73_2 1_555 1_555
C137_2 H74_2 1_555 1_555
C138_2 C132_2 1_555 1_555
H75_2 C138_2 1_555 1_555
C139_2 N41_2 1_555 1_555
H76_2 C139_2 1_555 1_555
C140_2 C133_2 1_555 1_555
H77_2 C140_2 1_555 1_555
C141_2 N44_2 1_555 1_555
C142_2 C135_2 1_555 1_555
C143_2 N43_2 1_555 1_555
N45_2 C144_2 1_555 1_555
N47_2 Co3_3 1_555 1_555
C149_2 H80_2 1_555 1_555
C152_2 N45_2 1_555 1_555
H83_2 C152_2 1_555 1_555
H84_2 C153_2 1_555 1_555
C156_2 N47_2 1_555 1_555
Co8 N42_2 1_555 1_555
Co12_3 N31_2 1_555 1_555
N49_2 Co5_2 1_555 1_555
N50_2 Co6_2 1_555 1_555
N51_2 Co6_2 1_555 1_555
N55_2 Co5_2 1_555 1_555
N56_2 Co6_2 1_555 1_555
N57_2 Co6_2 1_555 1_555
C6_2 C10_2 1_555 1_555
C14_2 C26_2 1_555 1_555
C19_2 C23_2 1_555 1_555
C19_2 C25_2 1_555 1_555
C25_2 C26_2 1_555 1_555
C40_2 C52_2 1_555 1_555
C43_2 C50_2 1_555 1_555
C44_2 C50_2 1_555 1_555
C45_2 C49_2 1_555 1_555
C45_2 C51_2 1_555 1_555
C46_2 C47_2 1_555 1_555
C51_2 C52_2 1_555 1_555
N19_2 C61_2 1_555 1_555
C53_2 C65_2 1_555 1_555
C56_2 C63_2 1_555 1_555
C57_2 C63_2 1_555 1_555
C59_2 C60_2 1_555 1_555
C64_2 C65_2 1_555 1_555
C92_2 C104_2 1_555 1_555
C95_2 C102_2 1_555 1_555
C96_2 C102_2 1_555 1_555
C97_2 C101_2 1_555 1_555
C97_2 C103_2 1_555 1_555
C98_2 C99_2 1_555 1_555
C103_2 C104_2 1_555 1_555
N39_2 C126_2 1_555 1_555
C118_2 C130_2 1_555 1_555
C121_2 C128_2 1_555 1_555
C122_2 C128_2 1_555 1_555
C123_2 C127_2 1_555 1_555
C123_2 C129_2 1_555 1_555
C124_2 C125_2 1_555 1_555
C129_2 C130_2 1_555 1_555
N43_2 C139_2 1_555 1_555
N44_2 Co8 1_555 1_555
C131_2 C143_2 1_555 1_555
C134_2 C141_2 1_555 1_555
C135_2 C141_2 1_555 1_555
C136_2 C140_2 1_555 1_555
C136_2 C142_2 1_555 1_555
C137_2 C138_2 1_555 1_555
C142_2 C143_2 1_555 1_555
N47_2 C152_2 1_555 1_555
C144_2 C156_2 1_555 1_555
C149_2 C153_2 1_555 1_555
C149_2 C155_2 1_555 1_555
C155_2 C156_2 1_555 1_555
Co1_2 N2_2 1_555 1_555
Co2_3 N3_2 1_555 1_555
N1_2 C1_2 1_555 1_555
N2_2 C3_2 1_555 1_555
N3_2 C9_2 1_555 1_555
N4_2 Co1_2 1_555 1_555
C1_2 C4_2 1_555 1_555
C2_2 H1_2 1_555 1_555
C4_2 C2_2 1_555 1_555
C5_2 N2_2 1_555 1_555
C7_2 N4_2 1_555 1_555
H4_2 C7_2 1_555 1_555
C8_2 C2_2 1_555 1_555
H5_2 C8_2 1_555 1_555
C9_2 N1_2 1_555 1_555
H6_2 C9_2 1_555 1_555
C11_2 N4_2 1_555 1_555
C12_2 C5_2 1_555 1_555
C13_2 N3_2 1_555 1_555
N6_2 Co1_2 1_555 1_555
N8_2 Co1_2 1_555 1_555
C15_2 H8_2 1_555 1_555
C16_2 N6_2 1_555 1_555
H9_2 C16_2 1_555 1_555
C17_2 C15_2 1_555 1_555
C18_2 N6_2 1_555 1_555
C20_2 N8_2 1_555 1_555
H11_2 C20_2 1_555 1_555
C21_2 C15_2 1_555 1_555
H12_2 C21_2 1_555 1_555
C24_2 N8_2 1_555 1_555
Co4_2 N11_2 1_555 1_555
N9_2 C27_2 1_555 1_555
N10_2 Co1_2 1_555 1_555
N11_2 C35_2 1_555 1_555
N12_2 Co1_2 1_555 1_555
C27_2 C30_2 1_555 1_555
C28_2 H15_2 1_555 1_555
C29_2 N10_2 1_555 1_555
H16_2 C29_2 1_555 1_555
C30_2 C28_2 1_555 1_555
C31_2 N10_2 1_555 1_555
C32_2 H17_2 1_555 1_555
C33_2 N12_2 1_555 1_555
H18_2 C33_2 1_555 1_555
C34_2 C28_2 1_555 1_555
H19_2 C34_2 1_555 1_555
C35_2 N9_2 1_555 1_555
H20_2 C35_2 1_555 1_555
C36_2 C29_2 1_555 1_555
H21_2 C36_2 1_555 1_555
C37_2 N12_2 1_555 1_555
C38_2 C31_2 1_555 1_555
C39_2 N11_2 1_555 1_555
C48_2 N13_2 1_555 1_555
H27_2 C48_2 1_555 1_555
C58_2 H31_2 1_555 1_555
H35_2 C62_2 1_555 1_555
Co11 N22_2 1_555 1_555
N22_2 C68_2 1_555 1_555
N23_2 Co2_3 1_555 1_555
N24_2 Co11 1_555 1_555
C66_2 C69_2 1_555 1_555
C67_2 H36_2 1_555 1_555
C68_2 H37_2 1_555 1_555
C69_2 C67_2 1_555 1_555
C70_2 N22_2 1_555 1_555
C71_2 H38_2 1_555 1_555
C72_2 N24_2 1_555 1_555
H39_2 C72_2 1_555 1_555
C73_2 C67_2 1_555 1_555
H40_2 C73_2 1_555 1_555
C75_2 C68_2 1_555 1_555
H42_2 C75_2 1_555 1_555
C76_2 N24_2 1_555 1_555
C77_2 C70_2 1_555 1_555
C78_2 N23_2 1_555 1_555
N25_2 C79_2 1_555 1_555
N26_2 C81_2 1_555 1_555
N27_2 Co4_2 1_555 1_555
N28_2 C85_2 1_555 1_555
C79_2 C82_2 1_555 1_555
C80_2 H43_2 1_555 1_555
C81_2 H44_2 1_555 1_555
C82_2 C80_2 1_555 1_555
C83_2 N26_2 1_555 1_555
C84_2 H45_2 1_555 1_555
C85_2 H46_2 1_555 1_555
C86_2 C80_2 1_555 1_555
H47_2 C86_2 1_555 1_555
C87_2 N25_2 1_555 1_555
H48_2 C87_2 1_555 1_555
C88_2 C81_2 1_555 1_555
H49_2 C88_2 1_555 1_555
C89_2 N28_2 1_555 1_555
C90_2 C83_2 1_555 1_555
C91_2 N27_2 1_555 1_555
N34_2 Co11 1_555 1_555
N36_2 Co11 1_555 1_555
C105_2 C108_2 1_555 1_555
C106_2 H57_2 1_555 1_555
C107_2 N34_2 1_555 1_555
H58_2 C107_2 1_555 1_555
C108_2 C106_2 1_555 1_555
C109_2 N34_2 1_555 1_555
C110_2 H59_2 1_555 1_555
C111_2 N36_2 1_555 1_555
H60_2 C111_2 1_555 1_555
C112_2 C106_2 1_555 1_555
H61_2 C112_2 1_555 1_555
C114_2 C107_2 1_555 1_555
H63_2 C114_2 1_555 1_555
C115_2 N36_2 1_555 1_555
C116_2 C109_2 1_555 1_555
C117_2 N35_2 1_555 1_555
N46_2 C146_2 1_555 1_555
N48_2 C150_2 1_555 1_555
C145_2 H78_2 1_555 1_555
C146_2 H79_2 1_555 1_555
C147_2 C145_2 1_555 1_555
C148_2 N46_2 1_555 1_555
C150_2 H81_2 1_555 1_555
C151_2 C145_2 1_555 1_555
H82_2 C151_2 1_555 1_555
C154_2 N48_2 1_555 1_555
Co9 N26_2 1_555 1_555
Co10_2 N46_2 1_555 1_555
Co13_4 N35_2 1_555 1_555
N53_2 Co4_2 1_555 1_555
N54_2 Co4_2 1_555 1_555
C1_2 C13_2 1_555 1_555
C4_2 C11_2 1_555 1_555
C5_2 C11_2 1_555 1_555
C7_2 C8_2 1_555 1_555
C12_2 C13_2 1_555 1_555
C17_2 C24_2 1_555 1_555
C18_2 C24_2 1_555 1_555
C20_2 C21_2 1_555 1_555
C27_2 C39_2 1_555 1_555
C30_2 C37_2 1_555 1_555
C31_2 C37_2 1_555 1_555
C32_2 C36_2 1_555 1_555
C32_2 C38_2 1_555 1_555
C33_2 C34_2 1_555 1_555
C38_2 C39_2 1_555 1_555
C58_2 C62_2 1_555 1_555
C66_2 C78_2 1_555 1_555
C69_2 C76_2 1_555 1_555
C70_2 C76_2 1_555 1_555
C71_2 C75_2 1_555 1_555
C71_2 C77_2 1_555 1_555
C72_2 C73_2 1_555 1_555
C77_2 C78_2 1_555 1_555
N27_2 C87_2 1_555 1_555
N28_2 Co9 1_555 1_555
C79_2 C91_2 1_555 1_555
C82_2 C89_2 1_555 1_555
C83_2 C89_2 1_555 1_555
C84_2 C88_2 1_555 1_555
C84_2 C90_2 1_555 1_555
C85_2 C86_2 1_555 1_555
C90_2 C91_2 1_555 1_555
C105_2 C117_2 1_555 1_555
C108_2 C115_2 1_555 1_555
C109_2 C115_2 1_555 1_555
C110_2 C114_2 1_555 1_555
C110_2 C116_2 1_555 1_555
C111_2 C112_2 1_555 1_555
C116_2 C117_2 1_555 1_555
N48_2 Co10_2 1_555 1_555
C147_2 C154_2 1_555 1_555
C148_2 C154_2 1_555 1_555
C150_2 C151_2 1_555 1_555
Co1_3 N2_3 1_555 1_555
N2_3 C3_3 1_555 1_555
N4_3 Co1_3 1_555 1_555
C2_3 H1_3 1_555 1_555
C4_3 C2_3 1_555 1_555
C5_3 N2_3 1_555 1_555
C7_3 N4_3 1_555 1_555
H4_3 C7_3 1_555 1_555
C8_3 C2_3 1_555 1_555
H5_3 C8_3 1_555 1_555
C11_3 N4_3 1_555 1_555
N6_3 Co1_3 1_555 1_555
N8_3 Co1_3 1_555 1_555
C15_3 H8_3 1_555 1_555
C16_3 N6_3 1_555 1_555
C17_3 C15_3 1_555 1_555
C18_3 N6_3 1_555 1_555
C20_3 N8_3 1_555 1_555
H11_3 C20_3 1_555 1_555
C21_3 C15_3 1_555 1_555
H12_3 C21_3 1_555 1_555
C24_3 N8_3 1_555 1_555
N10_3 Co1_3 1_555 1_555
N12_3 Co1_3 1_555 1_555
C28_3 H15_3 1_555 1_555
C29_3 N10_3 1_555 1_555
C30_3 C28_3 1_555 1_555
C31_3 N10_3 1_555 1_555
C33_3 N12_3 1_555 1_555
H18_3 C33_3 1_555 1_555
C34_3 C28_3 1_555 1_555
H19_3 C34_3 1_555 1_555
C37_3 N12_3 1_555 1_555
C4_3 C11_3 1_555 1_555
C5_3 C11_3 1_555 1_555
C7_3 C8_3 1_555 1_555
C17_3 C24_3 1_555 1_555
C18_3 C24_3 1_555 1_555
C20_3 C21_3 1_555 1_555
C30_3 C37_3 1_555 1_555
C31_3 C37_3 1_555 1_555
C33_3 C34_3 1_555 1_555
Co12 N7_3 1_555 1_555
N5_3 C14_3 1_555 1_555
N7_3 C22_3 1_555 1_555
C22_3 N5_3 1_555 1_555
H13_3 C22_3 1_555 1_555
C26_3 N7_3 1_555 1_555
Co10_2 N18_3 1_555 1_555
N18_3 C55_3 1_555 1_555
N20_3 Co10_2 1_555 1_555
C54_3 H29_3 1_555 1_555
C56_3 C54_3 1_555 1_555
C57_3 N18_3 1_555 1_555
C59_3 N20_3 1_555 1_555
H32_3 C59_3 1_555 1_555
C60_3 C54_3 1_555 1_555
H33_3 C60_3 1_555 1_555
C63_3 N20_3 1_555 1_555
N38_2 C120_3 1_555 1_555
N39_3 Co12 1_555 1_555
N40_2 C124_3 1_555 1_555
C118_3 C121_3 1_555 1_555
C119_3 H64_3 1_555 1_555
C120_3 H65_3 1_555 1_555
C121_3 C119_3 1_555 1_555
C122_3 N38_2 1_555 1_555
C123_3 H66_3 1_555 1_555
C124_3 H67_3 1_555 1_555
C125_3 C119_3 1_555 1_555
H68_3 C125_3 1_555 1_555
C127_3 C120_3 1_555 1_555
H70_3 C127_3 1_555 1_555
C128_3 N40_2 1_555 1_555
C129_3 C122_3 1_555 1_555
C130_3 N39_3 1_555 1_555
C149_3 H80_3 1_555 1_555
H84_3 C153_3 1_555 1_555
Co11_2 N38_2 1_555 1_555
N51_3 Co10_2 1_555 1_555
N57_3 Co10_2 1_555 1_555
C14_3 C26_3 1_555 1_555
C25_3 C26_3 1_555 1_555
C56_3 C63_3 1_555 1_555
C57_3 C63_3 1_555 1_555
C59_3 C60_3 1_555 1_555
N40_2 Co11_2 1_555 1_555
C118_3 C130_3 1_555 1_555
C121_3 C128_3 1_555 1_555
C122_3 C128_3 1_555 1_555
C123_3 C127_3 1_555 1_555
C123_3 C129_3 1_555 1_555
C124_3 C125_3 1_555 1_555
C129_3 C130_3 1_555 1_555
C149_3 C153_3 1_555 1_555
Co2_4 N3_3 1_555 1_555
N1_3 C1_3 1_555 1_555
N3_3 C9_3 1_555 1_555
C9_3 N1_3 1_555 1_555
H6_3 C9_3 1_555 1_555
C13_3 N3_3 1_555 1_555
C48_3 N13_3 1_555 1_555
H27_3 C48_3 1_555 1_555
C58_3 H31_3 1_555 1_555
H35_3 C62_3 1_555 1_555
Co7_2 N22_3 1_555 1_555
N22_3 C68_3 1_555 1_555
N23_3 Co2_4 1_555 1_555
N24_3 Co7_2 1_555 1_555
C66_3 C69_3 1_555 1_555
C67_3 H36_3 1_555 1_555
C68_3 H37_3 1_555 1_555
C69_3 C67_3 1_555 1_555
C70_3 N22_3 1_555 1_555
C71_3 H38_3 1_555 1_555
C72_3 N24_3 1_555 1_555
H39_3 C72_3 1_555 1_555
C73_3 C67_3 1_555 1_555
H40_3 C73_3 1_555 1_555
C75_3 C68_3 1_555 1_555
H42_3 C75_3 1_555 1_555
C76_3 N24_3 1_555 1_555
C77_3 C70_3 1_555 1_555
C78_3 N23_3 1_555 1_555
N33_3 C105_3 1_555 1_555
N34_3 Co7_2 1_555 1_555
N54 C113_3 1_555 1_555
N36_3 Co7_2 1_555 1_555
C105_3 C108_3 1_555 1_555
C106_3 H57_3 1_555 1_555
C107_3 N34_3 1_555 1_555
H58_3 C107_3 1_555 1_555
C108_3 C106_3 1_555 1_555
C109_3 N34_3 1_555 1_555
C110_3 H59_3 1_555 1_555
C111_3 N36_3 1_555 1_555
H60_3 C111_3 1_555 1_555
C112_3 C106_3 1_555 1_555
H61_3 C112_3 1_555 1_555
C113_3 N33_3 1_555 1_555
H62_3 C113_3 1_555 1_555
C114_3 C107_3 1_555 1_555
H63_3 C114_3 1_555 1_555
C115_3 N36_3 1_555 1_555
C116_3 C109_3 1_555 1_555
C117_3 N54 1_555 1_555
N52_2 Co7_2 1_555 1_555
N58_2 Co7_2 1_555 1_555
C1_3 C13_3 1_555 1_555
C12_3 C13_3 1_555 1_555
C58_3 C62_3 1_555 1_555
C66_3 C78_3 1_555 1_555
C69_3 C76_3 1_555 1_555
C70_3 C76_3 1_555 1_555
C71_3 C75_3 1_555 1_555
C71_3 C77_3 1_555 1_555
C72_3 C73_3 1_555 1_555
C77_3 C78_3 1_555 1_555
C105_3 C117_3 1_555 1_555
C108_3 C115_3 1_555 1_555
C109_3 C115_3 1_555 1_555
C110_3 C114_3 1_555 1_555
C110_3 C116_3 1_555 1_555
C111_3 C112_3 1_555 1_555
C116_3 C117_3 1_555 1_555
C6_3 H3_3 1_555 1_555
H7_3 C10_3 1_555 1_555
Co9 N14_3 1_555 1_555
N14_3 C42_3 1_555 1_555
N15_3 Co2_5 1_555 1_555
N16_3 Co9 1_555 1_555
C40_3 C43_3 1_555 1_555
C41_3 H22_3 1_555 1_555
C42_3 H23_3 1_555 1_555
C43_3 C41_3 1_555 1_555
C44_3 N14_3 1_555 1_555
C45_3 H24_3 1_555 1_555
C46_3 N16_3 1_555 1_555
H25_3 C46_3 1_555 1_555
C47_3 C41_3 1_555 1_555
H26_3 C47_3 1_555 1_555
C49_3 C42_3 1_555 1_555
H28_3 C49_3 1_555 1_555
C50_3 N16_3 1_555 1_555
C51_3 C44_3 1_555 1_555
C52_3 N15_3 1_555 1_555
N17_3 C53_3 1_555 1_555
N19_3 Co2_5 1_555 1_555
C61_3 N17_3 1_555 1_555
H34_3 C61_3 1_555 1_555
C65_3 N19_3 1_555 1_555
C74_3 N21_3 1_555 1_555
H41_3 C74_3 1_555 1_555
C6_3 C10_3 1_555 1_555
C40_3 C52_3 1_555 1_555
C43_3 C50_3 1_555 1_555
C44_3 C50_3 1_555 1_555
C45_3 C49_3 1_555 1_555
C45_3 C51_3 1_555 1_555
C46_3 C47_3 1_555 1_555
C51_3 C52_3 1_555 1_555
N19_3 C61_3 1_555 1_555
C53_3 C65_3 1_555 1_555
C64_3 C65_3 1_555 1_555
Co13 N11_3 1_555 1_555
N9_3 C27_3 1_555 1_555
N11_3 C35_3 1_555 1_555
C35_3 N9_3 1_555 1_555
H20_3 C35_3 1_555 1_555
C39_3 N11_3 1_555 1_555
C87_3 N25_3 1_555 1_555
H48_3 C87_3 1_555 1_555
N50_2 C146_3 1_555 1_555
N56_2 C150_3 1_555 1_555
C145_3 H78_3 1_555 1_555
C147_3 C145_3 1_555 1_555
C148_3 N50_2 1_555 1_555
C150_3 H81_3 1_555 1_555
C151_3 C145_3 1_555 1_555
H82_3 C151_3 1_555 1_555
C154_3 N56_2 1_555 1_555
C27_3 C39_3 1_555 1_555
C38_3 C39_3 1_555 1_555
C147_3 C154_3 1_555 1_555
C148_3 C154_3 1_555 1_555
C150_3 C151_3 1_555 1_555
C19_3 H10_3 1_555 1_555
H14_3 C23_3 1_555 1_555
C126_3 N37_3 1_555 1_555
H69_3 C126_3 1_555 1_555
N45_3 C144_3 1_555 1_555
N47_3 Co12_2 1_555 1_555
C152_3 N45_3 1_555 1_555
H83_3 C152_3 1_555 1_555
C156_3 N47_3 1_555 1_555
C19_3 C23_3 1_555 1_555
N47_3 C152_3 1_555 1_555
C144_3 C156_3 1_555 1_555
C155_3 C156_3 1_555 1_555
C32_3 H17_3 1_555 1_555
H21_3 C36_3 1_555 1_555
N49_2 C81_3 1_555 1_555
N27_3 Co13_2 1_555 1_555
N55_2 C85_3 1_555 1_555
C79_3 C82_3 1_555 1_555
C80_3 H43_3 1_555 1_555
C81_3 H44_3 1_555 1_555
C82_3 C80_3 1_555 1_555
C83_3 N49_2 1_555 1_555
C84_3 H45_3 1_555 1_555
C85_3 H46_3 1_555 1_555
C86_3 C80_3 1_555 1_555
H47_3 C86_3 1_555 1_555
C88_3 C81_3 1_555 1_555
H49_3 C88_3 1_555 1_555
C89_3 N55_2 1_555 1_555
C90_3 C83_3 1_555 1_555
C91_3 N27_3 1_555 1_555
N53_3 Co13_2 1_555 1_555
C32_3 C36_3 1_555 1_555
C79_3 C91_3 1_555 1_555
C82_3 C89_3 1_555 1_555
C83_3 C89_3 1_555 1_555
C84_3 C88_3 1_555 1_555
C84_3 C90_3 1_555 1_555
C85_3 C86_3 1_555 1_555
C90_3 C91_3 1_555 1_555
Co2_6 N3_4 1_555 1_555
N1_4 C1_4 1_555 1_555
N3_4 C9_4 1_555 1_555
C6_4 H3_4 1_555 1_555
C9_4 N1_4 1_555 1_555
H6_4 C9_4 1_555 1_555
H7_4 C10_4 1_555 1_555
C13_4 N3_4 1_555 1_555
C32_4 H17_4 1_555 1_555
H21_4 C36_4 1_555 1_555
Co8 N14_4 1_555 1_555
N13_4 C40_4 1_555 1_555
N14_4 C42_4 1_555 1_555
N15_4 Co2_6 1_555 1_555
N16_4 Co8 1_555 1_555
C40_4 C43_4 1_555 1_555
C41_4 H22_4 1_555 1_555
C42_4 H23_4 1_555 1_555
C43_4 C41_4 1_555 1_555
C44_4 N14_4 1_555 1_555
C45_4 H24_4 1_555 1_555
C46_4 N16_4 1_555 1_555
H25_4 C46_4 1_555 1_555
C47_4 C41_4 1_555 1_555
H26_4 C47_4 1_555 1_555
C48_4 N13_4 1_555 1_555
H27_4 C48_4 1_555 1_555
C49_4 C42_4 1_555 1_555
H28_4 C49_4 1_555 1_555
C50_4 N16_4 1_555 1_555
C51_4 C44_4 1_555 1_555
C52_4 N15_4 1_555 1_555
N17_4 C53_4 1_555 1_555
N19_4 Co2_6 1_555 1_555
C58_4 H31_4 1_555 1_555
C61_4 N17_4 1_555 1_555
H34_4 C61_4 1_555 1_555
H35_4 C62_4 1_555 1_555
C65_4 N19_4 1_555 1_555
Co11_2 N22_4 1_555 1_555
N21_4 C66_4 1_555 1_555
N22_4 C68_4 1_555 1_555
N23_4 Co2_6 1_555 1_555
N24_4 Co11_2 1_555 1_555
C66_4 C69_4 1_555 1_555
C67_4 H36_4 1_555 1_555
C68_4 H37_4 1_555 1_555
C69_4 C67_4 1_555 1_555
C70_4 N22_4 1_555 1_555
C71_4 H38_4 1_555 1_555
C72_4 N24_4 1_555 1_555
H39_4 C72_4 1_555 1_555
C73_4 C67_4 1_555 1_555
H40_4 C73_4 1_555 1_555
C74_4 N21_4 1_555 1_555
H41_4 C74_4 1_555 1_555
C75_4 C68_4 1_555 1_555
H42_4 C75_4 1_555 1_555
C76_4 N24_4 1_555 1_555
C77_4 C70_4 1_555 1_555
C78_4 N23_4 1_555 1_555
N49 C81_4 1_555 1_555
N27_4 Co13_3 1_555 1_555
N55 C85_4 1_555 1_555
C79_4 C82_4 1_555 1_555
C80_4 H43_4 1_555 1_555
C81_4 H44_4 1_555 1_555
C82_4 C80_4 1_555 1_555
C83_4 N49 1_555 1_555
C84_4 H45_4 1_555 1_555
C85_4 H46_4 1_555 1_555
C86_4 C80_4 1_555 1_555
H47_4 C86_4 1_555 1_555
C88_4 C81_4 1_555 1_555
H49_4 C88_4 1_555 1_555
C89_4 N55 1_555 1_555
C90_4 C83_4 1_555 1_555
C91_4 N27_4 1_555 1_555
N33_4 C105_4 1_555 1_555
N34_4 Co11_2 1_555 1_555
N54_2 C113_4 1_555 1_555
N36_4 Co11_2 1_555 1_555
C105_4 C108_4 1_555 1_555
C106_4 H57_4 1_555 1_555
C107_4 N34_4 1_555 1_555
H58_4 C107_4 1_555 1_555
C108_4 C106_4 1_555 1_555
C109_4 N34_4 1_555 1_555
C110_4 H59_4 1_555 1_555
C111_4 N36_4 1_555 1_555
H60_4 C111_4 1_555 1_555
C112_4 C106_4 1_555 1_555
H61_4 C112_4 1_555 1_555
C113_4 N33_4 1_555 1_555
H62_4 C113_4 1_555 1_555
C114_4 C107_4 1_555 1_555
H63_4 C114_4 1_555 1_555
C115_4 N36_4 1_555 1_555
C116_4 C109_4 1_555 1_555
C117_4 N54_2 1_555 1_555
N53_4 Co13_3 1_555 1_555
C1_4 C13_4 1_555 1_555
C6_4 C10_4 1_555 1_555
C6_4 C12_4 1_555 1_555
C12_4 C13_4 1_555 1_555
C32_4 C36_4 1_555 1_555
N15_4 C48_4 1_555 1_555
C40_4 C52_4 1_555 1_555
C43_4 C50_4 1_555 1_555
C44_4 C50_4 1_555 1_555
C45_4 C49_4 1_555 1_555
C45_4 C51_4 1_555 1_555
C46_4 C47_4 1_555 1_555
C51_4 C52_4 1_555 1_555
N19_4 C61_4 1_555 1_555
C53_4 C65_4 1_555 1_555
C58_4 C62_4 1_555 1_555
C58_4 C64_4 1_555 1_555
C64_4 C65_4 1_555 1_555
N23_4 C74_4 1_555 1_555
C66_4 C78_4 1_555 1_555
C69_4 C76_4 1_555 1_555
C70_4 C76_4 1_555 1_555
C71_4 C75_4 1_555 1_555
C71_4 C77_4 1_555 1_555
C72_4 C73_4 1_555 1_555
C77_4 C78_4 1_555 1_555
C79_4 C91_4 1_555 1_555
C82_4 C89_4 1_555 1_555
C83_4 C89_4 1_555 1_555
C84_4 C88_4 1_555 1_555
C84_4 C90_4 1_555 1_555
C85_4 C86_4 1_555 1_555
C90_4 C91_4 1_555 1_555
C105_4 C117_4 1_555 1_555
C108_4 C115_4 1_555 1_555
C109_4 C115_4 1_555 1_555
C110_4 C114_4 1_555 1_555
C110_4 C116_4 1_555 1_555
C111_4 C112_4 1_555 1_555
C116_4 C117_4 1_555 1_555
Co1_4 N2_4 1_555 1_555
N2_4 C3_4 1_555 1_555
N4_4 Co1_4 1_555 1_555
C2_4 H1_4 1_555 1_555
C3_4 H2_4 1_555 1_555
C4_4 C2_4 1_555 1_555
C5_4 N2_4 1_555 1_555
C7_4 N4_4 1_555 1_555
H4_4 C7_4 1_555 1_555
C8_4 C2_4 1_555 1_555
H5_4 C8_4 1_555 1_555
C11_4 N4_4 1_555 1_555
Co12_3 N7_4 1_555 1_555
N5_4 C14_4 1_555 1_555
N6_4 Co1_4 1_555 1_555
N7_4 C22_4 1_555 1_555
N8_4 Co1_4 1_555 1_555
C14_4 C17_4 1_555 1_555
C15_4 H8_4 1_555 1_555
C16_4 N6_4 1_555 1_555
H9_4 C16_4 1_555 1_555
C17_4 C15_4 1_555 1_555
C18_4 N6_4 1_555 1_555
C19_4 H10_4 1_555 1_555
C20_4 N8_4 1_555 1_555
H11_4 C20_4 1_555 1_555
C21_4 C15_4 1_555 1_555
H12_4 C21_4 1_555 1_555
C22_4 N5_4 1_555 1_555
H13_4 C22_4 1_555 1_555
C23_4 C16_4 1_555 1_555
H14_4 C23_4 1_555 1_555
C24_4 N8_4 1_555 1_555
C25_4 C18_4 1_555 1_555
C26_4 N7_4 1_555 1_555
Co13_4 N11_4 1_555 1_555
N9_4 C27_4 1_555 1_555
N10_4 Co1_4 1_555 1_555
N11_4 C35_4 1_555 1_555
N12_4 Co1_4 1_555 1_555
C27_4 C30_4 1_555 1_555
C28_4 H15_4 1_555 1_555
C29_4 N10_4 1_555 1_555
C30_4 C28_4 1_555 1_555
C31_4 N10_4 1_555 1_555
C33_4 N12_4 1_555 1_555
H18_4 C33_4 1_555 1_555
C34_4 C28_4 1_555 1_555
H19_4 C34_4 1_555 1_555
C35_4 N9_4 1_555 1_555
H20_4 C35_4 1_555 1_555
C37_4 N12_4 1_555 1_555
C38_4 C31_4 1_555 1_555
C39_4 N11_4 1_555 1_555
Co10 N18_4 1_555 1_555
N18_4 C55_4 1_555 1_555
N20_4 Co10 1_555 1_555
C54_4 H29_4 1_555 1_555
C55_4 H30_4 1_555 1_555
C56_4 C54_4 1_555 1_555
C57_4 N18_4 1_555 1_555
C59_4 N20_4 1_555 1_555
H32_4 C59_4 1_555 1_555
C60_4 C54_4 1_555 1_555
H33_4 C60_4 1_555 1_555
C63_4 N20_4 1_555 1_555
C87_4 N25_4 1_555 1_555
H48_4 C87_4 1_555 1_555
N37_4 C118_4 1_555 1_555
N52_2 C120_4 1_555 1_555
N39_4 Co12_3 1_555 1_555
N58_2 C124_4 1_555 1_555
C118_4 C121_4 1_555 1_555
C119_4 H64_4 1_555 1_555
C120_4 H65_4 1_555 1_555
C121_4 C119_4 1_555 1_555
C122_4 N52_2 1_555 1_555
C123_4 H66_4 1_555 1_555
C124_4 H67_4 1_555 1_555
C125_4 C119_4 1_555 1_555
H68_4 C125_4 1_555 1_555
C126_4 N37_4 1_555 1_555
H69_4 C126_4 1_555 1_555
C127_4 C120_4 1_555 1_555
H70_4 C127_4 1_555 1_555
C128_4 N58_2 1_555 1_555
C129_4 C122_4 1_555 1_555
C130_4 N39_4 1_555 1_555
N45_4 C144_4 1_555 1_555
N50 C146_4 1_555 1_555
N47_4 Co12_3 1_555 1_555
N56 C150_4 1_555 1_555
C144_4 C147_4 1_555 1_555
C145_4 H78_4 1_555 1_555
C146_4 H79_4 1_555 1_555
C147_4 C145_4 1_555 1_555
C148_4 N50 1_555 1_555
C149_4 H80_4 1_555 1_555
C150_4 H81_4 1_555 1_555
C151_4 C145_4 1_555 1_555
H82_4 C151_4 1_555 1_555
C152_4 N45_4 1_555 1_555
H83_4 C152_4 1_555 1_555
C153_4 C146_4 1_555 1_555
H84_4 C153_4 1_555 1_555
C154_4 N56 1_555 1_555
C155_4 C148_4 1_555 1_555
C156_4 N47_4 1_555 1_555
N51_4 Co10 1_555 1_555
N57_4 Co10 1_555 1_555
C4_4 C11_4 1_555 1_555
C5_4 C11_4 1_555 1_555
C7_4 C8_4 1_555 1_555
C14_4 C26_4 1_555 1_555
C17_4 C24_4 1_555 1_555
C18_4 C24_4 1_555 1_555
C19_4 C23_4 1_555 1_555
C19_4 C25_4 1_555 1_555
C20_4 C21_4 1_555 1_555
C25_4 C26_4 1_555 1_555
C27_4 C39_4 1_555 1_555
C30_4 C37_4 1_555 1_555
C31_4 C37_4 1_555 1_555
C33_4 C34_4 1_555 1_555
C38_4 C39_4 1_555 1_555
C56_4 C63_4 1_555 1_555
C57_4 C63_4 1_555 1_555
C59_4 C60_4 1_555 1_555
N39_4 C126_4 1_555 1_555
C118_4 C130_4 1_555 1_555
C121_4 C128_4 1_555 1_555
C122_4 C128_4 1_555 1_555
C123_4 C127_4 1_555 1_555
C123_4 C129_4 1_555 1_555
C124_4 C125_4 1_555 1_555
C129_4 C130_4 1_555 1_555
N47_4 C152_4 1_555 1_555
C144_4 C156_4 1_555 1_555
C147_4 C154_4 1_555 1_555
C148_4 C154_4 1_555 1_555
C149_4 C153_4 1_555 1_555
C149_4 C155_4 1_555 1_555
C150_4 C151_4 1_555 1_555
C155_4 C156_4 1_555 1_555
N45_5 C144_5 1_555 1_555
N51_3 C146_5 1_555 1_555
N57_3 C150_5 1_555 1_555
C144_5 C147_5 1_555 1_555
C145_5 H78_5 1_555 1_555
C147_5 C145_5 1_555 1_555
C148_5 N51_3 1_555 1_555
C150_5 H81_5 1_555 1_555
C151_5 C145_5 1_555 1_555
H82_5 C151_5 1_555 1_555
C152_5 N45_5 1_555 1_555
H83_5 C152_5 1_555 1_555
C154_5 N57_3 1_555 1_555
C155_5 C148_5 1_555 1_555
C156_5 N53_4 1_555 1_555
N53_4 C152_5 1_555 1_555
C144_5 C156_5 1_555 1_555
C147_5 C154_5 1_555 1_555
C148_5 C154_5 1_555 1_555
C150_5 C151_5 1_555 1_555
C155_5 C156_5 1_555 1_555
C149_5 H80_5 1_555 1_555
H84_5 C153_5 1_555 1_555
C149_5 C153_5 1_555 1_555
N45_6 C144_6 1_555 1_555
C149_6 H80_6 1_555 1_555
C152_6 N45_6 1_555 1_555
H83_6 C152_6 1_555 1_555
H84_6 C153_6 1_555 1_555
C156_6 N53 1_555 1_555
N53 C152_6 1_555 1_555
C144_6 C156_6 1_555 1_555
C149_6 C153_6 1_555 1_555
C149_6 C155_6 1_555 1_555
C155_6 C156_6 1_555 1_555
N51_2 C146_6 1_555 1_555
N57_2 C150_6 1_555 1_555
C145_6 H78_6 1_555 1_555
C146_6 H79_6 1_555 1_555
C147_6 C145_6 1_555 1_555
C148_6 N51_2 1_555 1_555
C150_6 H81_6 1_555 1_555
C151_6 C145_6 1_555 1_555
H82_6 C151_6 1_555 1_555
C154_6 N57_2 1_555 1_555
C147_6 C154_6 1_555 1_555
C148_6 C154_6 1_555 1_555
C150_6 C151_6 1_555 1_555
N51_4 C146_7 1_555 1_555
N57_4 C150_7 1_555 1_555
C145_7 H78_7 1_555 1_555
C147_7 C145_7 1_555 1_555
C148_7 N51_4 1_555 1_555
C150_7 H81_7 1_555 1_555
C151_7 C145_7 1_555 1_555
H82_7 C151_7 1_555 1_555
C154_7 N57_4 1_555 1_555
C147_7 C154_7 1_555 1_555
C148_7 C154_7 1_555 1_555
C150_7 C151_7 1_555 1_555
C149_7 H80_7 1_555 1_555
H84_7 C153_7 1_555 1_555
C149_7 C153_7 1_555 1_555
N45_7 C144_7 1_555 1_555
C152_7 N45_7 1_555 1_555
H83_7 C152_7 1_555 1_555
C156_7 N53_3 1_555 1_555
N53_3 C152_7 1_555 1_555
C144_7 C156_7 1_555 1_555
C155_7 C156_7 1_555 1_555
N45_8 C144_8 1_555 1_555
N51 C146_8 1_555 1_555
N57 C150_8 1_555 1_555
C144_8 C147_8 1_555 1_555
C145_8 H78_8 1_555 1_555
C146_8 H79_8 1_555 1_555
C147_8 C145_8 1_555 1_555
C148_8 N51 1_555 1_555
C149_8 H80_8 1_555 1_555
C150_8 H81_8 1_555 1_555
C151_8 C145_8 1_555 1_555
H82_8 C151_8 1_555 1_555
C152_8 N45_8 1_555 1_555
H83_8 C152_8 1_555 1_555
C153_8 C146_8 1_555 1_555
H84_8 C153_8 1_555 1_555
C154_8 N57 1_555 1_555
C155_8 C148_8 1_555 1_555
C156_8 N53_2 1_555 1_555
N53_2 C152_8 1_555 1_555
C144_8 C156_8 1_555 1_555
C147_8 C154_8 1_555 1_555
C148_8 C154_8 1_555 1_555
C149_8 C153_8 1_555 1_555
C149_8 C155_8 1_555 1_555
C150_8 C151_8 1_555 1_555
C155_8 C156_8 1_555 1_555
O1 H85 1_555 1_555
O1_2 H85_2 1_555 1_555
O1_3 H85_3 1_555 1_555
O1_4 H85_4 1_555 1_555
O1_5 H85_5 1_555 1_555
O1_6 H85_6 1_555 1_555
O1_7 H85_7 1_555 1_555
O1_8 H85_8 1_555 1_555
O1_9 H85_9 1_555 1_555
O1_10 H85_10 1_555 1_555
O1_11 H85_11 1_555 1_555
O1_12 H85_12 1_555 1_555
O1_13 H85_13 1_555 1_555
O1_14 H85_14 1_555 1_555
O1_15 H85_15 1_555 1_555
O1_16 H85_16 1_555 1_555
O1_17 H85_17 1_555 1_555
O1_18 H85_18 1_555 1_555
O1_19 H85_19 1_555 1_555
O1_20 H85_20 1_555 1_555
O1_21 H85_21 1_555 1_555
O1_22 H85_22 1_555 1_555
O1_23 H85_23 1_555 1_555
O1_24 H85_24 1_555 1_555
O1_25 H85_25 1_555 1_555
O1_26 H85_26 1_555 1_555
O1_27 H85_27 1_555 1_555
O1_28 H85_28 1_555 1_555
O1_29 H85_29 1_555 1_555
O1_30 H85_30 1_555 1_555
O1_31 H85_31 1_555 1_555
O1_32 H85_32 1_555 1_555
O1_33 H85_33 1_555 1_555
O1_34 H85_34 1_555 1_555
O1_35 H85_35 1_555 1_555
O1_36 H85_36 1_555 1_555
O1_37 H85_37 1_555 1_555
O1_38 H85_38 1_555 1_555
O1_39 H85_39 1_555 1_555
O1_40 H85_40 1_555 1_555
O1_41 H85_41 1_555 1_555
O1_42 H85_42 1_555 1_555
O1_43 H85_43 1_555 1_555
O1_44 H85_44 1_555 1_555
O1_45 H85_45 1_555 1_555
O1_46 H85_46 1_555 1_555
O1_47 H85_47 1_555 1_555
O1_48 H85_48 1_555 1_555

#END
