
###############################################################################
#
# This file contains modified crystal structure data generated from the
# MOF subset of the Cambridge Structural Database (CSD) v543 
# hosted by the Cambridge Crystallographic Data Centre (CCDC).
#
# This work is licensed under the Creative Commons
# Attribution-NonCommercial-ShareAlike 4.0 International License.
# To view a copy of this license, visit
# http://creativecommons.org/licenses/by-nc-sa/4.0/
# or send a letter to
# Creative Commons, PO Box 1866, Mountain View, CA 94042, USA.
#
# CIF created using the CSD Python API on 29 September 2022
# The structure has been converted into the P1 space group
# The structure has a 3D framework
# The original CSD entry FEDBEX is in the triclinic crystal system
# The framework has been calculated to contain at least 10.0% void space
# The void calculation uses a probe of radius 1.32A, grid spacing 0.4
#
###############################################################################

data_FEDBEX
_chemical_formula_moiety         '(C18 H14 N6 O16 Tm2)n'
_symmetry_cell_setting           triclinic
_symmetry_space_group_name_H-M   'P 1'
_symmetry_Int_Tables_number      1
_space_group_name_Hall           'P 1'
loop_
_symmetry_equiv_pos_site_id
_symmetry_equiv_pos_as_xyz
1 x,y,z
_cell_length_a                   6.0200(5)
_cell_length_b                   12.7722(11)
_cell_length_c                   13.1612(11)
_cell_angle_alpha                118.8290(10)
_cell_angle_beta                 90.6090(10)
_cell_angle_gamma                91.6870(10)
_cell_volume                     885.788
loop_
_atom_site_label
_atom_site_type_symbol
_atom_site_fract_x
_atom_site_fract_y
_atom_site_fract_z
_atom_site_U_iso_or_equiv
_atom_site_thermal_displace_type
O10 O 0.0202(11) 0.6556(6) 0.1388(5) 0.0331 Uani
C14 C 0.0473(14) 0.9288(7) 0.0447(7) 0.0249 Uani
H9 H 0.0832 0.8819 0.0785 0.0300 Uiso
O20 O 0.1643(9) 0.6658(5) 0.7969(5) 0.0252 Uani
O1 O 0.0497(9) 0.3209(5) 0.0147(5) 0.0251 Uani
Tm1 Tm 0.22197(5) 0.33935(3) 0.17829(3) 0.0165 Uani
N2 N 0.0703(11) 0.1211(6) 0.0558(6) 0.0198 Uani
N3 N 0.0858(11) 0.4269(6) 0.3914(5) 0.0194 Uani
O3 O 0.3066(10) 0.2144(5) 0.2520(5) 0.0280 Uani
C4 C 0.1173(14) 0.0493(7) 0.1000(7) 0.0232 Uani
C6 C 0.2498(16) 0.1070(8) 0.2131(7) 0.0301 Uani
O4 O 0.4945(9) 0.2213(5) 0.0510(5) 0.0272 Uani
H3 H 0.6206 0.2482 0.0823 0.0410 Uiso
O5 O 0.1295(10) 0.5409(5) 0.2590(5) 0.0301 Uani
H5 H 0.1963 0.5956 0.3179 0.0450 Uiso
H6 H 0.0705 0.5705 0.2211 0.0450 Uiso
O6 O 0.3004(16) 0.0440(6) 0.2562(7) 0.0633 Uani
C8 C 0.2084(13) 0.4652(7) 0.4894(7) 0.0191 Uani
H7 H 0.3538 0.4410 0.4849 0.0230 Uiso
C10 C 0.6106(14) 0.5189(7) 0.0945(7) 0.0221 Uani
H8 H 0.6928 0.5341 0.1607 0.0270 Uiso
N4 N 0.4236(11) 0.4522(6) 0.0699(6) 0.0217 Uani
Tm6 Tm 0.77803(5) 0.66065(3) 0.82171(3) 0.0165 Uani
C11 C 0.6884(14) 0.5663(7) 0.0276(7) 0.0220 Uani
C12 C 0.9040(13) 0.6400(7) 0.0544(7) 0.0208 Uani
H11 H 0.5050 0.7905 0.0175 0.0410 Uiso
O16 O 0.4631(9) 0.5689(5) 0.7040(5) 0.0232 Uani
O17 O 0.5369(9) 0.4311(5) 0.2960(5) 0.0232 Uani
C16 C 0.1239(12) 0.5396(7) 0.5966(7) 0.0174 Uani
C18 C 0.2618(13) 0.5941(7) 0.7061(7) 0.0181 Uiso
C1 C 0.3894(14) 0.4811(7) 0.9055(7) 0.0221 Uani
H1 H 0.3072 0.4659 0.8393 0.0270 Uiso
N1 N 0.5764(11) 0.5478(6) 0.9301(6) 0.0217 Uani
C2 C 0.3116(14) 0.4337(7) 0.9724(7) 0.0220 Uani
C3 C 0.0960(13) 0.3600(7) 0.9456(7) 0.0208 Uani
H4 H 0.4950 0.2095 0.9825 0.0410 Uiso
O9 O 0.9503(9) 0.6791(5) 0.9853(5) 0.0251 Uani
N6 N 0.9297(11) 0.8789(6) 0.9442(6) 0.0198 Uani
N8 N 0.9142(11) 0.5731(6) 0.6086(5) 0.0194 Uani
O12 O 0.6934(10) 0.7856(5) 0.7480(5) 0.0280 Uani
O13 O 0.5055(9) 0.7787(5) 0.9490(5) 0.0272 Uani
H10 H 0.3794 0.7518 0.9177 0.0410 Uiso
O14 O 0.8705(10) 0.4591(5) 0.7410(5) 0.0301 Uani
H12 H 0.8037 0.4044 0.6821 0.0450 Uiso
H13 H 0.9295 0.4295 0.7789 0.0450 Uiso
O8 O 0.8357(9) 0.3342(5) 0.2031(5) 0.0252 Uani
C7 C 0.8761(12) 0.4604(7) 0.4034(7) 0.0174 Uani
C9 C 0.7382(13) 0.4059(7) 0.2939(7) 0.0181 Uiso
C17 C 0.7916(13) 0.5348(7) 0.5106(7) 0.0191 Uani
H14 H 0.6462 0.5590 0.5151 0.0230 Uiso
C13 C 0.8827(14) 0.9507(7) 0.9000(7) 0.0232 Uani
C15 C 0.7502(16) 0.8930(8) 0.7869(7) 0.0301 Uani
O15 O 0.6996(16) 0.9560(6) 0.7438(7) 0.0633 Uani
O2 O 0.9798(11) 0.3444(6) 0.8612(5) 0.0331 Uani
C5 C 0.9527(14) 0.0712(7) 0.9553(7) 0.0249 Uani
H2 H 0.9168 0.1181 0.9215 0.0300 Uiso
loop_
_atom_site_aniso_label
_atom_site_aniso_U_11
_atom_site_aniso_U_22
_atom_site_aniso_U_33
_atom_site_aniso_U_23
_atom_site_aniso_U_13
_atom_site_aniso_U_12
O10 0.037 0.043 0.027 0.024 -0.017 -0.009
C14 0.028 0.026 0.026 0.017 -0.011 -0.001
O20 0.015 0.031 0.022 0.007 -0.005 -0.001
O1 0.023 0.029 0.022 0.012 -0.006 -0.009
Tm1 0.0125 0.02 0.01556 0.00767 -0.00355 -0.00109
N2 0.02 0.017 0.022 0.009 -0.001 0.002
N3 0.02 0.026 0.012 0.009 -0.003 0.001
O3 0.04 0.021 0.021 0.009 -0.011 -0.004
C4 0.022 0.021 0.024 0.009 -0.002 0
C6 0.042 0.028 0.022 0.014 -0.012 -0.007
O4 0.017 0.038 0.019 0.008 -0.004 -0.001
O5 0.043 0.023 0.028 0.015 0 0.006
O6 0.116 0.03 0.047 0.023 -0.045 -0.018
C8 0.01 0.028 0.021 0.013 -0.002 0.004
C10 0.026 0.028 0.015 0.013 -0.005 -0.004
N4 0.021 0.026 0.024 0.017 -0.006 -0.002
Tm6 0.0125 0.02 0.01556 0.00767 -0.00355 -0.00109
C11 0.024 0.023 0.022 0.013 0.005 0.005
C12 0.02 0.022 0.024 0.014 0 0
O16 0.014 0.034 0.025 0.017 -0.003 -0.001
O17 0.014 0.034 0.025 0.017 -0.003 -0.001
C16 0.012 0.026 0.018 0.014 -0.004 -0.004
C1 0.026 0.028 0.015 0.013 -0.005 -0.004
N1 0.021 0.026 0.024 0.017 -0.006 -0.002
C2 0.024 0.023 0.022 0.013 0.005 0.005
C3 0.02 0.022 0.024 0.014 0 0
O9 0.023 0.029 0.022 0.012 -0.006 -0.009
N6 0.02 0.017 0.022 0.009 -0.001 0.002
N8 0.02 0.026 0.012 0.009 -0.003 0.001
O12 0.04 0.021 0.021 0.009 -0.011 -0.004
O13 0.017 0.038 0.019 0.008 -0.004 -0.001
O14 0.043 0.023 0.028 0.015 0 0.006
O8 0.015 0.031 0.022 0.007 -0.005 -0.001
C7 0.012 0.026 0.018 0.014 -0.004 -0.004
C17 0.01 0.028 0.021 0.013 -0.002 0.004
C13 0.022 0.021 0.024 0.009 -0.002 0
C15 0.042 0.028 0.022 0.014 -0.012 -0.007
O15 0.116 0.03 0.047 0.023 -0.045 -0.018
O2 0.037 0.043 0.027 0.024 -0.017 -0.009
C5 0.028 0.026 0.026 0.017 -0.011 -0.001
loop_
_geom_bond_atom_site_label_1
_geom_bond_atom_site_label_2
_geom_bond_site_symmetry_1
_geom_bond_site_symmetry_2
H9 C14 1_555 1_555
O1 Tm1 1_555 1_555
Tm1 N2 1_555 1_555
N2 C4 1_555 1_555
N3 Tm1 1_555 1_555
O3 Tm1 1_555 1_555
C4 C6 1_555 1_555
C6 O3 1_555 1_555
O4 Tm1 1_555 1_555
H3 O4 1_555 1_555
O5 Tm1 1_555 1_555
H5 O5 1_555 1_555
H6 O5 1_555 1_555
O6 C6 1_555 1_555
C8 N3 1_555 1_555
H7 C8 1_555 1_555
C10 H8 1_555 1_555
N4 Tm1 1_555 1_555
Tm6 O16 1_555 1_555
O16 C18 1_555 1_555
O17 Tm1 1_555 1_555
C16 C8 1_555 1_555
C18 O20 1_555 1_555
C10 N4 1_555 1_555
C10 C11 1_555 1_555
C11 C12 1_555 1_555
C16 C18 1_555 1_555
C1 H1 1_555 1_555
N1 C1 1_555 1_555
C2 C1 1_555 1_555
O9 Tm6 1_555 1_555
Tm6 N1 1_555 1_555
N6 Tm6 1_555 1_555
N8 Tm6 1_555 1_555
O12 Tm6 1_555 1_555
O13 Tm6 1_555 1_555
H10 O13 1_555 1_555
O14 Tm6 1_555 1_555
H12 O14 1_555 1_555
H13 O14 1_555 1_555
C2 C3 1_555 1_555
O17 C9 1_555 1_555
C9 O8 1_555 1_555
C17 C7 1_555 1_555
H14 C17 1_555 1_555
C7 C9 1_555 1_555
N8 C17 1_555 1_555
N6 C13 1_555 1_555
C15 O12 1_555 1_555
O15 C15 1_555 1_555
C13 C15 1_555 1_555
H2 C5 1_555 1_555

#END
