
###############################################################################
#
# This file contains modified crystal structure data generated from the
# MOF subset of the Cambridge Structural Database (CSD) v543 
# hosted by the Cambridge Crystallographic Data Centre (CCDC).
#
# This work is licensed under the Creative Commons
# Attribution-NonCommercial-ShareAlike 4.0 International License.
# To view a copy of this license, visit
# http://creativecommons.org/licenses/by-nc-sa/4.0/
# or send a letter to
# Creative Commons, PO Box 1866, Mountain View, CA 94042, USA.
#
# CIF created using the CSD Python API on 29 September 2022
# The structure has been converted into the P1 space group
# The structure has a 3D framework
# The original CSD entry FEDJUU is in the tetragonal crystal system
# The original CSD entry FEDJUU is in a Sohncke space group
# The framework has been calculated to contain at least 10.0% void space
# The void calculation uses a probe of radius 1.32A, grid spacing 0.4
#
###############################################################################

data_FEDJUU
_chemical_formula_moiety         '(C64 H64 Cl8 N8 O32 Zn4 2+)n'
_symmetry_cell_setting           triclinic
_symmetry_space_group_name_H-M   'P 1'
_symmetry_Int_Tables_number      1
_space_group_name_Hall           'P 1'
loop_
_symmetry_equiv_pos_site_id
_symmetry_equiv_pos_as_xyz
1 x,y,z
_cell_length_a                   13.1064(19)
_cell_length_b                   13.1064(19)
_cell_length_c                   11.269(2)
_cell_angle_alpha                90
_cell_angle_beta                 90
_cell_angle_gamma                90
_cell_volume                     1935.76
loop_
_atom_site_label
_atom_site_type_symbol
_atom_site_fract_x
_atom_site_fract_y
_atom_site_fract_z
Zn1 Zn 0.0000 0.5000 -0.0000
O7 O 0.0956(2) 0.5634(2) 0.1130(2)
O8 O 0.0081(3) 0.3046(3) 0.1460(2)
C11 C 0.0653(3) 0.6400(3) 0.1700(3)
C14 C 0.1293(3) 0.6668(3) 0.2796(3)
C17 C 0.2128(3) 0.6119(3) 0.3101(3)
H11 H 0.2318 0.5560 0.2643
C20 C 0.2706(3) 0.6381(3) 0.4091(3)
H14 H 0.3282 0.6003 0.4288
N4 N 0.2431(2) 0.7173(2) 0.4756(2)
C23 C 0.1591(4) 0.7702(3) 0.4484(3)
H17 H 0.1389 0.8237 0.4973
C26 C 0.1023(4) 0.7475(3) 0.3505(3)
H20 H 0.0453 0.7867 0.3318
C28 C 0.2543(3) 0.6985(3) 0.9160(3)
C29 C 0.3015(3) 0.7457(3) 0.5840(3)
H22 H 0.1806 0.6951 0.9097
H23 H 0.3049 0.8194 0.5903
H25 H 0.2801 0.6293 0.9224
H26 H 0.3707 0.7199 0.5776
C31 C 0.2976(3) 0.7482(3) 0.8055(3)
C32 C 0.2518(3) 0.7024(3) 0.6945(3)
H28 H 0.2835 0.8208 0.8074
H29 H 0.1792 0.7165 0.6926
H31 H 0.3710 0.7391 0.8041
H32 H 0.2609 0.6290 0.6959
Zn1_2 Zn 0.0000 0.5000 1.0000
O1 O 0.0956(2) 0.4366(2) 0.8870(2)
C1 C 0.0653(3) 0.3600(3) 0.8300(3)
C2 C 0.1293(3) 0.3332(3) 0.7204(3)
C3 C 0.2128(3) 0.3881(3) 0.6899(3)
H1 H 0.2318 0.4440 0.7357
C4 C 0.2706(3) 0.3619(3) 0.5909(3)
H2 H 0.3282 0.3997 0.5712
N1 N 0.2431(2) 0.2827(2) 0.5244(2)
C5 C 0.1591(4) 0.2298(3) 0.5516(3)
H3 H 0.1389 0.1763 0.5027
C6 C 0.1023(4) 0.2525(3) 0.6495(3)
H4 H 0.0453 0.2133 0.6682
C7 C 0.3015(3) 0.2543(3) 0.4160(3)
H5 H 0.3049 0.1806 0.4097
H6 H 0.3707 0.2801 0.4224
C8 C 0.2518(3) 0.2976(3) 0.3055(3)
H7 H 0.1792 0.2835 0.3074
H8 H 0.2609 0.3710 0.3041
O9 O 0.0081(3) 0.6954(3) 0.8540(2)
C27 C 0.2543(3) 0.3015(3) 0.0840(3)
H21 H 0.1806 0.3049 0.0903
H24 H 0.2801 0.3707 0.0776
C30 C 0.2976(3) 0.2518(3) 0.1945(3)
H27 H 0.2835 0.1792 0.1926
H30 H 0.3710 0.2609 0.1959
Zn2 Zn 0.5000 0.0000 0.5000
O3 O 0.4366(2) 0.0956(2) 0.6130(2)
C9 C 0.3600(3) 0.0653(3) 0.6700(3)
C12 C 0.3332(3) 0.1293(3) 0.7796(3)
C15 C 0.3881(3) 0.2128(3) 0.8101(3)
H9 H 0.4440 0.2318 0.7643
C18 C 0.3619(3) 0.2706(3) 0.9091(3)
H12 H 0.3997 0.3282 0.9288
N2 N 0.2827(2) 0.2431(2) 0.9756(2)
C21 C 0.2298(3) 0.1591(4) 0.9484(3)
H15 H 0.1763 0.1389 0.9973
C24 C 0.2525(3) 0.1023(4) 0.8505(3)
H18 H 0.2133 0.0453 0.8318
O10 O 0.6954(3) 0.0081(3) 0.6460(2)
O1_2 O 0.5634(2) 0.0956(2) 0.3870(2)
C1_2 C 0.6400(3) 0.0653(3) 0.3300(3)
C2_2 C 0.6668(3) 0.1293(3) 0.2204(3)
C3_2 C 0.6119(3) 0.2128(3) 0.1899(3)
H1_2 H 0.5560 0.2318 0.2357
C4_2 C 0.6381(3) 0.2706(3) 0.0909(3)
H2_2 H 0.6003 0.3282 0.0712
N1_2 N 0.7173(2) 0.2431(2) 0.0244(2)
C5_2 C 0.7702(3) 0.1591(4) 0.0516(3)
H3_2 H 0.8237 0.1389 0.0027
C6_2 C 0.7475(3) 0.1023(4) 0.1495(3)
H4_2 H 0.7867 0.0453 0.1682
O9_2 O 0.3046(3) 0.0081(3) 0.3540(2)
Zn2_2 Zn 0.5000 1.0000 0.5000
O8_2 O 0.3046(3) 0.9919(3) 0.6460(2)
O5 O 0.5634(2) 0.9044(2) 0.6130(2)
C11_2 C 0.6400(3) 0.9347(3) 0.6700(3)
C14_2 C 0.6668(3) 0.8707(3) 0.7796(3)
C17_2 C 0.6119(3) 0.7872(3) 0.8101(3)
H11_2 H 0.5560 0.7682 0.7643
C20_2 C 0.6381(3) 0.7294(3) 0.9091(3)
H14_2 H 0.6003 0.6718 0.9288
N4_2 N 0.7173(2) 0.7569(2) 0.9756(2)
C23_2 C 0.7702(3) 0.8409(4) 0.9484(3)
H17_2 H 0.8237 0.8611 0.9973
C26_2 C 0.7475(3) 0.8977(4) 0.8505(3)
H20_2 H 0.7867 0.9547 0.8318
O2 O 0.6954(3) 0.9919(3) 0.3540(2)
O4 O 0.4366(2) 0.9044(2) 0.3870(2)
C10 C 0.3600(3) 0.9347(3) 0.3300(3)
C13 C 0.3332(3) 0.8707(3) 0.2204(3)
C16 C 0.3881(3) 0.7872(3) 0.1899(3)
H10 H 0.4440 0.7682 0.2357
C19 C 0.3619(3) 0.7294(3) 0.0909(3)
H13 H 0.3997 0.6718 0.0712
N3 N 0.2827(2) 0.7569(2) 0.0244(2)
C22 C 0.2298(3) 0.8409(4) 0.0516(3)
H16 H 0.1763 0.8611 0.0027
C25 C 0.2525(3) 0.8977(4) 0.1495(3)
H19 H 0.2133 0.9547 0.1682
Zn1_3 Zn 1.0000 0.5000 -0.0000
O6 O 0.9044(2) 0.4366(2) 0.1130(2)
C7_2 C 0.7457(3) 0.3015(3) 0.9160(3)
H5_2 H 0.8194 0.3049 0.9097
H6_2 H 0.7199 0.3707 0.9224
C8_2 C 0.7024(3) 0.2518(3) 0.8055(3)
H7_2 H 0.7165 0.1792 0.8074
H8_2 H 0.6290 0.2609 0.8041
C9_2 C 0.9347(3) 0.3600(3) 0.1700(3)
C12_2 C 0.8707(3) 0.3332(3) 0.2796(3)
C15_2 C 0.7872(3) 0.3881(3) 0.3101(3)
H9_2 H 0.7682 0.4440 0.2643
C18_2 C 0.7294(3) 0.3619(3) 0.4091(3)
H12_2 H 0.6718 0.3997 0.4288
N2_2 N 0.7569(2) 0.2827(2) 0.4756(2)
C21_2 C 0.8409(4) 0.2298(3) 0.4484(3)
H15_2 H 0.8611 0.1763 0.4973
C24_2 C 0.8977(4) 0.2525(3) 0.3505(3)
H18_2 H 0.9547 0.2133 0.3318
C27_2 C 0.6985(3) 0.2543(3) 0.5840(3)
H21_2 H 0.6951 0.1806 0.5903
H24_2 H 0.6293 0.2801 0.5776
C30_2 C 0.7482(3) 0.2976(3) 0.6945(3)
H27_2 H 0.8208 0.2835 0.6926
H30_2 H 0.7391 0.3710 0.6959
O10_2 O 0.9919(3) 0.6954(3) 0.1460(2)
Zn1_4 Zn 1.0000 0.5000 1.0000
O2_2 O 0.9919(3) 0.3046(3) 0.8540(2)
O4_2 O 0.9044(2) 0.5634(2) 0.8870(2)
C10_2 C 0.9347(3) 0.6400(3) 0.8300(3)
C13_2 C 0.8707(3) 0.6668(3) 0.7204(3)
C16_2 C 0.7872(3) 0.6119(3) 0.6899(3)
H10_2 H 0.7682 0.5560 0.7357
C19_2 C 0.7294(3) 0.6381(3) 0.5909(3)
H13_2 H 0.6718 0.6003 0.5712
N3_2 N 0.7569(2) 0.7173(2) 0.5244(2)
C22_2 C 0.8409(4) 0.7702(3) 0.5516(3)
H16_2 H 0.8611 0.8237 0.5027
C25_2 C 0.8977(4) 0.7475(3) 0.6495(3)
H19_2 H 0.9547 0.7867 0.6682
C28_2 C 0.6985(3) 0.7457(3) 0.4160(3)
C29_2 C 0.7457(3) 0.6985(3) 0.0840(3)
H22_2 H 0.6951 0.8194 0.4097
H23_2 H 0.8194 0.6951 0.0903
H25_2 H 0.6293 0.7199 0.4224
H26_2 H 0.7199 0.6293 0.0776
C31_2 C 0.7482(3) 0.7024(3) 0.3055(3)
C32_2 C 0.7024(3) 0.7482(3) 0.1945(3)
H28_2 H 0.8208 0.7165 0.3074
H29_2 H 0.7165 0.8208 0.1926
H31_2 H 0.7391 0.6290 0.3041
H32_2 H 0.6290 0.7391 0.1959
Cl1 Cl 0.5000 0.0000 0.0000
O14 O 0.4373(3) 0.0634(3) 0.0723(2)
Cl1_2 Cl 0.5000 0.0000 1.0000
O12 O 0.5627(3) 0.0634(3) 0.9277(2)
Cl1_3 Cl 0.5000 1.0000 0.0000
O13 O 0.5627(3) 0.9366(3) 0.0723(2)
Cl1_4 Cl 0.5000 1.0000 1.0000
O11 O 0.4373(3) 0.9366(3) 0.9277(2)
Cl1_5 Cl 0.0000 0.5000 0.5000
O11_2 O 0.0634(3) 0.4373(3) 0.4277(2)
O13_2 O 0.0634(3) 0.5627(3) 0.5723(2)
Cl1_6 Cl 1.0000 0.5000 0.5000
O12_2 O 0.9366(3) 0.5627(3) 0.4277(2)
O14_2 O 0.9366(3) 0.4373(3) 0.5723(2)
Cl2 Cl 0.5000 0.5000 0.2500
O15 O 0.4114(3) 0.4979(6) 0.1789(6)
O16 O 0.5886(3) 0.5021(6) 0.1789(6)
O17 O 0.4979(6) 0.4114(3) 0.3211(6)
O18 O 0.5021(6) 0.5886(3) 0.3211(6)
Cl2_2 Cl 0.5000 0.5000 0.7500
O15_2 O 0.5021(6) 0.4114(3) 0.6789(6)
O16_2 O 0.4979(6) 0.5886(3) 0.6789(6)
O17_2 O 0.5886(3) 0.4979(6) 0.8211(6)
O18_2 O 0.4114(3) 0.5021(6) 0.8211(6)
loop_
_geom_bond_atom_site_label_1
_geom_bond_atom_site_label_2
_geom_bond_site_symmetry_1
_geom_bond_site_symmetry_2
O7 Zn1 1_555 1_555
O7 C11 1_555 1_555
C11 C14 1_555 1_555
C14 C17 1_555 1_555
C17 H11 1_555 1_555
C20 C17 1_555 1_555
H14 C20 1_555 1_555
N4 C20 1_555 1_555
C23 N4 1_555 1_555
H17 C23 1_555 1_555
C26 C14 1_555 1_555
H20 C26 1_555 1_555
C29 N4 1_555 1_555
H22 C28 1_555 1_555
H23 C29 1_555 1_555
H25 C28 1_555 1_555
H26 C29 1_555 1_555
C31 C28 1_555 1_555
C32 C29 1_555 1_555
H28 C31 1_555 1_555
H29 C32 1_555 1_555
H31 C31 1_555 1_555
H32 C32 1_555 1_555
C23 C26 1_555 1_555
C31 C32 1_555 1_555
Zn1_2 O1 1_555 1_555
O1 C1 1_555 1_555
C1 C2 1_555 1_555
C2 C3 1_555 1_555
C3 H1 1_555 1_555
C4 C3 1_555 1_555
H2 C4 1_555 1_555
N1 C4 1_555 1_555
C5 N1 1_555 1_555
H3 C5 1_555 1_555
C6 C2 1_555 1_555
H4 C6 1_555 1_555
C7 N1 1_555 1_555
H5 C7 1_555 1_555
H6 C7 1_555 1_555
C8 C7 1_555 1_555
H7 C8 1_555 1_555
H8 C8 1_555 1_555
H21 C27 1_555 1_555
H24 C27 1_555 1_555
C30 C8 1_555 1_555
H27 C30 1_555 1_555
H30 C30 1_555 1_555
C5 C6 1_555 1_555
C27 C30 1_555 1_555
Zn2 O3 1_555 1_555
O3 C9 1_555 1_555
C9 C12 1_555 1_555
C12 C15 1_555 1_555
C15 H9 1_555 1_555
C18 C15 1_555 1_555
H12 C18 1_555 1_555
N2 C18 1_555 1_555
C21 N2 1_555 1_555
H15 C21 1_555 1_555
C24 C12 1_555 1_555
H18 C24 1_555 1_555
C21 C24 1_555 1_555
Zn2 O1_2 1_555 1_555
O1_2 C1_2 1_555 1_555
C1_2 C2_2 1_555 1_555
C2_2 C3_2 1_555 1_555
C3_2 H1_2 1_555 1_555
C4_2 C3_2 1_555 1_555
H2_2 C4_2 1_555 1_555
N1_2 C4_2 1_555 1_555
C5_2 N1_2 1_555 1_555
H3_2 C5_2 1_555 1_555
C6_2 C2_2 1_555 1_555
H4_2 C6_2 1_555 1_555
C5_2 C6_2 1_555 1_555
Zn2_2 O5 1_555 1_555
O5 C11_2 1_555 1_555
C11_2 C14_2 1_555 1_555
C14_2 C17_2 1_555 1_555
C17_2 H11_2 1_555 1_555
C20_2 C17_2 1_555 1_555
H14_2 C20_2 1_555 1_555
N4_2 C20_2 1_555 1_555
C23_2 N4_2 1_555 1_555
H17_2 C23_2 1_555 1_555
C26_2 C14_2 1_555 1_555
H20_2 C26_2 1_555 1_555
C23_2 C26_2 1_555 1_555
O4 Zn2_2 1_555 1_555
C10 O4 1_555 1_555
C13 C10 1_555 1_555
C16 C13 1_555 1_555
H10 C16 1_555 1_555
C19 C16 1_555 1_555
H13 C19 1_555 1_555
N3 C19 1_555 1_555
C22 N3 1_555 1_555
H16 C22 1_555 1_555
C25 C13 1_555 1_555
H19 C25 1_555 1_555
C22 C25 1_555 1_555
O6 Zn1_3 1_555 1_555
H5_2 C7_2 1_555 1_555
H6_2 C7_2 1_555 1_555
C8_2 C7_2 1_555 1_555
H7_2 C8_2 1_555 1_555
H8_2 C8_2 1_555 1_555
O6 C9_2 1_555 1_555
C9_2 C12_2 1_555 1_555
C12_2 C15_2 1_555 1_555
C15_2 H9_2 1_555 1_555
C18_2 C15_2 1_555 1_555
H12_2 C18_2 1_555 1_555
N2_2 C18_2 1_555 1_555
C21_2 N2_2 1_555 1_555
H15_2 C21_2 1_555 1_555
C24_2 C12_2 1_555 1_555
H18_2 C24_2 1_555 1_555
C27_2 N2_2 1_555 1_555
H21_2 C27_2 1_555 1_555
H24_2 C27_2 1_555 1_555
C30_2 C8_2 1_555 1_555
H27_2 C30_2 1_555 1_555
H30_2 C30_2 1_555 1_555
C21_2 C24_2 1_555 1_555
C27_2 C30_2 1_555 1_555
O4_2 Zn1_4 1_555 1_555
C10_2 O4_2 1_555 1_555
C13_2 C10_2 1_555 1_555
C16_2 C13_2 1_555 1_555
H10_2 C16_2 1_555 1_555
C19_2 C16_2 1_555 1_555
H13_2 C19_2 1_555 1_555
N3_2 C19_2 1_555 1_555
C22_2 N3_2 1_555 1_555
H16_2 C22_2 1_555 1_555
C25_2 C13_2 1_555 1_555
H19_2 C25_2 1_555 1_555
C28_2 N3_2 1_555 1_555
H22_2 C28_2 1_555 1_555
H23_2 C29_2 1_555 1_555
H25_2 C28_2 1_555 1_555
H26_2 C29_2 1_555 1_555
C31_2 C28_2 1_555 1_555
C32_2 C29_2 1_555 1_555
H28_2 C31_2 1_555 1_555
H29_2 C32_2 1_555 1_555
H31_2 C31_2 1_555 1_555
H32_2 C32_2 1_555 1_555
C22_2 C25_2 1_555 1_555
C31_2 C32_2 1_555 1_555
O14 Cl1 1_555 1_555
O12 Cl1_2 1_555 1_555
O13 Cl1_3 1_555 1_555
Cl1_4 O11 1_555 1_555
Cl1_5 O11_2 1_555 1_555
O13_2 Cl1_5 1_555 1_555
O12_2 Cl1_6 1_555 1_555
O14_2 Cl1_6 1_555 1_555
Cl2 O15 1_555 1_555
O16 Cl2 1_555 1_555
O17 Cl2 1_555 1_555
O18 Cl2 1_555 1_555
Cl2_2 O15_2 1_555 1_555
O16_2 Cl2_2 1_555 1_555
O17_2 Cl2_2 1_555 1_555
O18_2 Cl2_2 1_555 1_555

#END
