
###############################################################################
#
# This file contains modified crystal structure data generated from the
# MOF subset of the Cambridge Structural Database (CSD) v543 
# hosted by the Cambridge Crystallographic Data Centre (CCDC).
#
# This work is licensed under the Creative Commons
# Attribution-NonCommercial-ShareAlike 4.0 International License.
# To view a copy of this license, visit
# http://creativecommons.org/licenses/by-nc-sa/4.0/
# or send a letter to
# Creative Commons, PO Box 1866, Mountain View, CA 94042, USA.
#
# CIF created using the CSD Python API on 29 September 2022
# The structure has been converted into the P1 space group
# The structure has a 3D framework
# The original CSD entry FEDQUE is in the orthorhombic crystal system
# The framework has been calculated to contain at least 10.0% void space
# The void calculation uses a probe of radius 1.32A, grid spacing 0.4
# H atom positions have been added when not included in the experimental data
# Generated hydrogen atom positions removed from atoms on special positions
#
###############################################################################

data_FEDQUE
_chemical_formula_moiety         '(C680 H640 O128 Zr24)n'
_symmetry_cell_setting           triclinic
_symmetry_space_group_name_H-M   'P 1'
_symmetry_Int_Tables_number      1
_space_group_name_Hall           'P 1'
loop_
_symmetry_equiv_pos_site_id
_symmetry_equiv_pos_as_xyz
1 x,y,z
_cell_length_a                   51.3448(3)
_cell_length_b                   27.96559(17)
_cell_length_c                   26.93599(17)
_cell_angle_alpha                90
_cell_angle_beta                 90
_cell_angle_gamma                90
_cell_volume                     38677.1
loop_
_atom_site_label
_atom_site_type_symbol
_atom_site_fract_x
_atom_site_fract_y
_atom_site_fract_z
Zr13 Zr 0.20175(2) 0.67960(2) 0.00700(2)
H80 H 0.005161 0.588119 0.454726
C107 C 0.00526(6) 0.67865(16) 0.50155(15)
C108 C 0.02338(5) 0.68569(11) 0.54507(9)
C110 C 0.02342(5) 0.67313(11) 0.45771(9)
C111 C 0.04401(6) 0.71776(11) 0.54209(9)
C112 C 0.01967(6) 0.65892(12) 0.58797(11)
C115 C 0.02070(6) 0.70180(12) 0.41588(11)
C116 C 0.04379(5) 0.64051(11) 0.46062(10)
H81 H 0.046490 0.735668 0.513387
C117 C 0.06091(5) 0.72306(12) 0.58201(11)
C118 C 0.03658(7) 0.66422(13) 0.62789(9)
H82 H 0.005872 0.637458 0.589966
H84 H 0.003634 0.771272 0.544898
H85 H 0.007066 0.723625 0.413936
C121 C 0.03834(7) 0.69786(14) 0.37696(10)
C122 C 0.06144(5) 0.63657(12) 0.42170(12)
H86 H 0.045617 0.621330 0.488609
H87 H 0.074712 0.744522 0.580018
C123 C 0.05720(6) 0.69629(13) 0.62491(10)
H88 H 0.034095 0.646313 0.656597
H91 H 0.036515 0.717039 0.348971
C125 C 0.05871(6) 0.66524(14) 0.37987(11)
H92 H 0.075066 0.614745 0.423643
C126 C 0.07683(5) 0.70319(16) 0.66248(10)
C128 C 0.07791(6) 0.66287(16) 0.34213(10)
C129 C 0.10198(6) 0.68748(16) 0.65255(9)
C130 C 0.07042(5) 0.71964(16) 0.70962(12)
C133 C 0.06842(5) 0.64975(17) 0.29576(12)
C134 C 0.10423(6) 0.67297(16) 0.34820(10)
H93 H 0.106264 0.676481 0.621011
C135 C 0.12073(5) 0.68821(18) 0.68977(12)
C136 C 0.08917(6) 0.72037(16) 0.74684(9)
C137 C 0.04213(10) 0.7391(3) 0.7218(2)
H95 H 0.050817 0.642995 0.291696
C141 C 0.08525(6) 0.64673(18) 0.25546(10)
C142 C 0.12105(5) 0.66995(17) 0.30790(12)
C143 C 0.11677(12) 0.6874(3) 0.3939(2)
C144 C 0.11432(5) 0.70466(18) 0.73692(10)
C145 C 0.14752(10) 0.6724(3) 0.6740(2)
H96 H 0.084888 0.731367 0.778384
H97 H 0.032110 0.740831 0.691787
H98 H 0.033725 0.717943 0.744826
H99 H 0.043440 0.770439 0.736238
C148 C 0.11157(6) 0.65683(17) 0.26153(10)
C149 C 0.07386(13) 0.6303(4) 0.2088(2)
H104 H 0.138660 0.676706 0.311962
H105 H 0.122305 0.659577 0.411829
H106 H 0.131624 0.706981 0.386343
H107 H 0.104707 0.705349 0.413763
C150 C 0.13340(5) 0.70501(16) 0.77518(10)
H108 H 0.154029 0.649186 0.697222
H109 H 0.146634 0.658320 0.641557
H110 H 0.158987 0.699471 0.673299
C152 C 0.13091(5) 0.65483(16) 0.22360(10)
H114 H 0.062781 0.654869 0.195497
H115 H 0.087513 0.623448 0.185470
H116 H 0.063814 0.601951 0.214596
C153 C 0.15771(6) 0.72616(15) 0.76947(9)
C154 C 0.12683(5) 0.68323(15) 0.81984(12)
C157 C 0.12568(5) 0.67852(14) 0.17934(11)
C158 C 0.15468(6) 0.63191(15) 0.23026(10)
H117 H 0.162105 0.740729 0.739584
C159 C 0.17546(5) 0.72552(14) 0.80842(11)
C160 C 0.14458(5) 0.68259(14) 0.85880(10)
H118 H 0.110561 0.669087 0.823663
H121 H 0.109776 0.693850 0.174889
C163 C 0.14421(6) 0.67928(13) 0.14174(9)
C164 C 0.17321(5) 0.63268(15) 0.19266(12)
H122 H 0.158175 0.616069 0.259876
H123 H 0.191734 0.739662 0.804602
C165 C 0.16890(5) 0.70374(14) 0.85309(9)
H124 H 0.140190 0.668022 0.888681
H127 H 0.140714 0.695122 0.112129
C167 C 0.16798(5) 0.65636(14) 0.14840(10)
H128 H 0.189112 0.617341 0.197115
C168 C 0.18739(6) 0.70164(16) 0.89319(15)
C170 C 0.18845(7) 0.6558(2) 0.10869(18)
O40 O 0.18010(6) 0.69427(12) 0.93483(10)
O41 O 0.21232(5) 0.70930(13) 0.87828(11)
O43 O 0.18065(6) 0.66457(12) 0.06882(10)
O44 O 0.21017(6) 0.65011(18) 0.12346(12)
Zr14 Zr 0.250000 0.70132(2) 0.92063(2)
Zr17 Zr 0.250000 0.65839(2) 0.09333(2)
C70 C 0.62145(5) 0.00685(15) 0.4771(2)
C76 C 0.64105(6) 0.04113(11) 0.4781(2)
H55 H 0.604172 0.015931 0.481317
C81 C 0.66688(6) 0.02756(12) 0.4717(2)
H61 H 0.636882 0.073141 0.482999
C84 C 0.68777(8) 0.06836(18) 0.4752(2)
C155 C 0.87855(5) 0.00685(15) 0.4771(2)
C161 C 0.85895(6) 0.04113(11) 0.4781(2)
H119 H 0.895828 0.015931 0.481317
O35 O 0.68070(5) 0.11115(11) 0.48520(13)
O36 O 0.71015(6) 0.05200(13) 0.47159(17)
C166 C 0.83312(6) 0.02756(12) 0.4717(2)
H125 H 0.863118 0.073141 0.482999
Zr9 Zr 0.70175(2) 0.17960(2) 0.50700(2)
Zr10 Zr 0.750000 0.08921(2) 0.48652(2)
C169 C 0.81223(8) 0.06836(18) 0.4752(2)
O39 O 0.78985(6) 0.05200(13) 0.47159(17)
O42 O 0.81930(5) 0.11115(11) 0.48520(13)
Zr15 Zr 0.79825(2) 0.17960(2) 0.50700(2)
Zr7 Zr 0.29825(2) 0.67960(2) 0.00700(2)
O1 O 0.68026(5) 0.24660(11) 0.51749(10)
O2 O 0.72660(7) 0.12351(16) 0.53581(13)
O3 O 0.72697(6) 0.14385(13) 0.44844(14)
O4 O 0.72683(6) 0.23301(15) 0.46989(13)
O5 O 0.72642(6) 0.21402(15) 0.55591(15)
O6 O 0.68065(6) 0.16457(12) 0.56882(10)
O7 O 0.68010(6) 0.19427(12) 0.43483(10)
C1 C 0.68683(7) 0.28955(16) 0.52420(18)
Zr2 Zr 0.750000 0.15839(2) 0.59333(2)
Zr4 Zr 0.750000 0.20132(2) 0.42063(2)
Zr5 Zr 0.750000 0.26970(2) 0.52846(2)
O9 O 0.70962(6) 0.30551(13) 0.52904(16)
C2 C 0.66490(4) 0.32908(10) 0.52851(15)
O10 O 0.750000 0.0832(2) 0.6191(2)
O11 O 0.750000 0.2068(2) 0.65066(17)
O12 O 0.78983(6) 0.15011(18) 0.62346(12)
O13 O 0.750000 0.0535(2) 0.4103(2)
O14 O 0.750000 0.0277(2) 0.5317(3)
O16 O 0.750000 0.2751(2) 0.38030(19)
O17 O 0.750000 0.1514(2) 0.3510(2)
O18 O 0.78768(5) 0.20930(13) 0.37828(11)
O19 O 0.750000 0.3108(2) 0.5881(2)
O20 O 0.750000 0.3392(2) 0.4765(2)
C3 C 0.67082(4) 0.37669(11) 0.53811(18)
C4 C 0.63922(5) 0.31544(9) 0.52028(14)
H1 H 0.687994 0.385812 0.543620
C5 C 0.65107(6) 0.41066(9) 0.53947(19)
C6 C 0.61948(4) 0.34941(12) 0.52164(15)
H2 H 0.635260 0.283582 0.513858
H3 H 0.655033 0.442513 0.545888
C7 C 0.62540(5) 0.39702(11) 0.53123(17)
H4 H 0.602299 0.340284 0.516126
C8 C 0.60290(7) 0.43590(14) 0.51983(17)
C9 C 0.60397(8) 0.47114(17) 0.48349(16)
C10 C 0.58324(7) 0.43677(13) 0.55528(15)
C11 C 0.58537(9) 0.50725(15) 0.48262(15)
C12 C 0.6226(2) 0.4689(4) 0.4426(4)
C13 C 0.56464(7) 0.47288(14) 0.55441(14)
H5 H 0.582526 0.413187 0.579592
H6 H 0.586088 0.530827 0.458307
C14 C 0.56571(7) 0.50812(13) 0.51807(16)
H7 H 0.627160 0.436114 0.436457
H8 H 0.637899 0.486647 0.451142
H9 H 0.614823 0.482288 0.413303
C15 C 0.54137(13) 0.4705(3) 0.5845(3)
C16 C 0.54627(6) 0.55357(10) 0.51495(14)
H10 H 0.540355 0.498436 0.605206
H11 H 0.541968 0.442457 0.605028
H12 H 0.526336 0.469129 0.563405
C17 C 0.55021(5) 0.59469(13) 0.54295(12)
C18 C 0.52553(6) 0.55111(10) 0.48189(14)
H13 H 0.564093 0.596336 0.565062
C19 C 0.53340(6) 0.63335(10) 0.53789(12)
C20 C 0.50872(5) 0.58977(11) 0.47684(12)
H14 H 0.522892 0.523595 0.463160
H15 H 0.536039 0.660859 0.556628
C21 C 0.51266(5) 0.63089(9) 0.50484(12)
H16 H 0.494839 0.588119 0.454726
C22 C 0.49474(6) 0.67865(16) 0.50155(15)
C23 C 0.47662(5) 0.68569(11) 0.54507(9)
C24 C 0.51333(5) 0.72608(10) 0.49601(12)
C25 C 0.47658(5) 0.67313(11) 0.45771(9)
C26 C 0.45599(6) 0.71776(11) 0.54209(9)
C27 C 0.48033(6) 0.65892(12) 0.58797(11)
C28 C 0.53393(6) 0.72149(11) 0.46287(12)
C29 C 0.51015(6) 0.76820(12) 0.52273(13)
C30 C 0.47930(6) 0.70180(12) 0.41588(11)
C31 C 0.45621(5) 0.64051(11) 0.46062(10)
H17 H 0.453510 0.735668 0.513387
C32 C 0.43909(5) 0.72306(12) 0.58201(11)
C33 C 0.46342(7) 0.66422(13) 0.62789(9)
H18 H 0.494128 0.637458 0.589966
H19 H 0.536056 0.693306 0.445001
C34 C 0.55135(6) 0.75902(14) 0.45645(14)
C35 C 0.52757(8) 0.80574(11) 0.51630(17)
H20 H 0.496366 0.771272 0.544898
H21 H 0.492934 0.723625 0.413936
C36 C 0.46166(7) 0.69786(14) 0.37696(10)
C37 C 0.43856(5) 0.63657(12) 0.42170(12)
H22 H 0.454383 0.621330 0.488609
H23 H 0.425288 0.744522 0.580018
C38 C 0.44280(6) 0.69629(13) 0.62491(10)
H24 H 0.465905 0.646313 0.656597
H25 H 0.565138 0.755954 0.434281
C39 C 0.54818(7) 0.80115(12) 0.48317(17)
H26 H 0.525448 0.833919 0.534177
H27 H 0.463485 0.717039 0.348971
C40 C 0.44129(6) 0.66524(14) 0.37987(11)
H28 H 0.424934 0.614745 0.423643
C41 C 0.42317(5) 0.70319(16) 0.66248(10)
C42 C 0.56810(14) 0.8433(3) 0.4772(3)
C43 C 0.42209(6) 0.66287(16) 0.34213(10)
C44 C 0.39802(6) 0.68748(16) 0.65255(9)
C45 C 0.42958(5) 0.71964(16) 0.70962(12)
C46 C 0.56928(18) 0.8777(3) 0.4463(4)
C47 C 0.58943(16) 0.8439(3) 0.5076(4)
C48 C 0.43158(5) 0.64975(17) 0.29576(12)
C49 C 0.39577(6) 0.67297(16) 0.34820(10)
H29 H 0.393736 0.676481 0.621011
C50 C 0.37927(5) 0.68821(18) 0.68977(12)
C51 C 0.41083(6) 0.72037(16) 0.74684(9)
C52 C 0.45787(10) 0.7391(3) 0.7218(2)
C53 C 0.58642(17) 0.9151(4) 0.4370(4)
C54 C 0.5472(2) 0.8815(5) 0.4060(5)
H30 H 0.591715 0.817942 0.528775
C55 C 0.60808(16) 0.8803(4) 0.5095(4)
H31 H 0.449183 0.642995 0.291696
C56 C 0.41475(6) 0.64673(18) 0.25546(10)
C57 C 0.37895(5) 0.66995(17) 0.30790(12)
C58 C 0.38323(12) 0.6874(3) 0.3939(2)
C59 C 0.38568(5) 0.70466(18) 0.73692(10)
C60 C 0.35248(10) 0.6724(3) 0.6740(2)
H32 H 0.415112 0.731367 0.778384
H33 H 0.467890 0.740831 0.691787
H34 H 0.466275 0.717943 0.744826
H35 H 0.456560 0.770439 0.736238
C61 C 0.60569(17) 0.9167(3) 0.4737(4)
H36 H 0.585261 0.936019 0.410299
H37 H 0.554342 0.874175 0.373883
H38 H 0.540340 0.913442 0.405710
H39 H 0.533566 0.859319 0.413644
C62 C 0.6284(2) 0.8762(5) 0.5511(5)
C63 C 0.38843(6) 0.65683(17) 0.26153(10)
C64 C 0.42614(13) 0.6303(4) 0.2088(2)
H40 H 0.361340 0.676706 0.311962
H41 H 0.377695 0.659577 0.411829
H42 H 0.368376 0.706981 0.386343
H43 H 0.395293 0.705349 0.413763
C65 C 0.36660(5) 0.70501(16) 0.77518(10)
H44 H 0.345971 0.649186 0.697222
H45 H 0.353366 0.658320 0.641557
H46 H 0.341013 0.699471 0.673299
C66 C 0.62769(7) 0.95900(14) 0.4697(3)
H47 H 0.645407 0.883062 0.537932
H48 H 0.628234 0.844308 0.564328
H49 H 0.624397 0.898572 0.576971
C67 C 0.36909(5) 0.65483(16) 0.22360(10)
H50 H 0.437219 0.654869 0.195497
H51 H 0.412487 0.623448 0.185470
H52 H 0.436186 0.601951 0.214596
C68 C 0.34229(6) 0.72616(15) 0.76947(9)
C69 C 0.37317(5) 0.68323(15) 0.81984(12)
C71 C 0.65352(8) 0.94543(11) 0.4634(3)
C72 C 0.37432(5) 0.67852(14) 0.17934(11)
C73 C 0.34532(6) 0.63191(15) 0.23026(10)
H53 H 0.337895 0.740729 0.739584
C74 C 0.32454(5) 0.72552(14) 0.80842(11)
C75 C 0.35542(5) 0.68259(14) 0.85880(10)
H54 H 0.389439 0.669087 0.823663
H56 H 0.657685 0.913418 0.458465
C77 C 0.67311(6) 0.97971(13) 0.4644(2)
H57 H 0.390224 0.693850 0.174889
C78 C 0.35579(6) 0.67928(13) 0.14174(9)
C79 C 0.32679(5) 0.63268(15) 0.19266(12)
H58 H 0.341825 0.616069 0.259876
H59 H 0.308266 0.739662 0.804602
C80 C 0.33110(5) 0.70374(14) 0.85309(9)
H60 H 0.359810 0.668022 0.888681
H62 H 0.690395 0.970627 0.460147
H63 H 0.359286 0.695122 0.112129
C82 C 0.33202(5) 0.65636(14) 0.14840(10)
H64 H 0.310888 0.617341 0.197115
C83 C 0.31261(6) 0.70164(16) 0.89319(15)
C85 C 0.31155(7) 0.6558(2) 0.10869(18)
O21 O 0.77340(7) 0.12351(16) 0.53581(13)
O22 O 0.77358(6) 0.21402(15) 0.55591(15)
O23 O 0.71017(6) 0.15011(18) 0.62346(12)
O24 O 0.77303(6) 0.14385(13) 0.44844(14)
O26 O 0.77317(6) 0.23301(15) 0.46989(13)
O27 O 0.71232(5) 0.20930(13) 0.37828(11)
O28 O 0.79038(6) 0.30551(13) 0.52904(16)
C86 C 0.81317(7) 0.28955(16) 0.52420(18)
O29 O 0.81974(5) 0.24660(11) 0.51749(10)
O30 O 0.81935(6) 0.16457(12) 0.56882(10)
O31 O 0.81990(6) 0.19427(12) 0.43483(10)
C87 C 0.83510(4) 0.32908(10) 0.52851(15)
C88 C 0.82918(4) 0.37669(11) 0.53811(18)
C89 C 0.86078(5) 0.31544(9) 0.52028(14)
H65 H 0.812006 0.385812 0.543620
C90 C 0.84893(6) 0.41066(9) 0.53947(19)
C91 C 0.88052(4) 0.34941(12) 0.52164(15)
H66 H 0.864740 0.283582 0.513858
H67 H 0.844967 0.442513 0.545888
C92 C 0.87460(5) 0.39702(11) 0.53123(17)
H68 H 0.897701 0.340284 0.516126
C93 C 0.89710(7) 0.43590(14) 0.51983(17)
C94 C 0.89603(8) 0.47114(17) 0.48349(16)
C95 C 0.91676(7) 0.43677(13) 0.55528(15)
C96 C 0.91463(9) 0.50725(15) 0.48262(15)
C97 C 0.8774(2) 0.4689(4) 0.4426(4)
C98 C 0.93536(7) 0.47288(14) 0.55441(14)
H69 H 0.917474 0.413187 0.579592
H70 H 0.913912 0.530827 0.458307
C99 C 0.93429(7) 0.50812(13) 0.51807(16)
H71 H 0.872840 0.436114 0.436457
H72 H 0.862101 0.486647 0.451142
H73 H 0.885177 0.482288 0.413303
C100 C 0.95863(13) 0.4705(3) 0.5845(3)
C101 C 0.95373(6) 0.55357(10) 0.51495(14)
H74 H 0.959645 0.498436 0.605206
H75 H 0.958032 0.442457 0.605028
H76 H 0.973664 0.469129 0.563405
C102 C 0.94979(5) 0.59469(13) 0.54295(12)
C103 C 0.97447(6) 0.55111(10) 0.48189(14)
H77 H 0.935907 0.596336 0.565062
C104 C 0.96660(6) 0.63335(10) 0.53789(12)
C105 C 0.99128(5) 0.58977(11) 0.47684(12)
H78 H 0.977108 0.523595 0.463160
H79 H 0.963961 0.660859 0.556628
C106 C 0.98734(5) 0.63089(9) 0.50484(12)
C109 C 0.98667(5) 0.72608(10) 0.49601(12)
C113 C 0.96607(6) 0.72149(11) 0.46287(12)
C114 C 0.98985(6) 0.76820(12) 0.52273(13)
H83 H 0.963944 0.693306 0.445001
C119 C 0.94865(6) 0.75902(14) 0.45645(14)
C120 C 0.97243(8) 0.80574(11) 0.51630(17)
H89 H 0.934862 0.755954 0.434281
C124 C 0.95182(7) 0.80115(12) 0.48317(17)
H90 H 0.974552 0.833919 0.534177
C127 C 0.93190(14) 0.8433(3) 0.4772(3)
C131 C 0.93072(18) 0.8777(3) 0.4463(4)
C132 C 0.91057(16) 0.8439(3) 0.5076(4)
C138 C 0.91358(17) 0.9151(4) 0.4370(4)
C139 C 0.9528(2) 0.8815(5) 0.4060(5)
H94 H 0.908285 0.817942 0.528775
C140 C 0.89192(16) 0.8803(4) 0.5095(4)
C146 C 0.89431(17) 0.9167(3) 0.4737(4)
H100 H 0.914739 0.936019 0.410299
H101 H 0.945658 0.874175 0.373883
H102 H 0.959660 0.913442 0.405710
H103 H 0.966434 0.859319 0.413644
C147 C 0.8716(2) 0.8762(5) 0.5511(5)
C151 C 0.87231(7) 0.95900(14) 0.4697(3)
H111 H 0.854593 0.883062 0.537932
H112 H 0.871766 0.844308 0.564328
H113 H 0.875603 0.898572 0.576971
C156 C 0.84648(8) 0.94543(11) 0.4634(3)
H120 H 0.842315 0.913418 0.458465
C162 C 0.82689(6) 0.97971(13) 0.4644(2)
O33 O 0.31990(6) 0.69427(12) 0.93483(10)
O34 O 0.28768(5) 0.70930(13) 0.87828(11)
O37 O 0.31935(6) 0.66457(12) 0.06882(10)
O38 O 0.28983(6) 0.65011(18) 0.12346(12)
H126 H 0.809605 0.970627 0.460147
C14_2 C 0.06571(7) 0.00812(13) 0.01807(16)
C16_2 C 0.04627(6) 0.05357(10) 0.01495(14)
C17_2 C 0.05021(5) 0.09469(13) 0.04295(12)
H13_2 H 0.064093 0.096336 0.065062
C19_2 C 0.03340(6) 0.13335(10) 0.03789(12)
H15_2 H 0.036039 0.160859 0.056628
C21_2 C 0.01266(5) 0.13089(9) 0.00484(12)
C29_2 C 0.01015(6) 0.26820(12) 0.02273(13)
C35_2 C 0.02757(8) 0.30574(11) 0.01630(17)
H26_2 H 0.025448 0.333919 0.034177
C47_2 C 0.08943(16) 0.3439(3) 0.0076(4)
H30_2 H 0.091715 0.317942 0.028775
C55_2 C 0.10808(16) 0.3803(4) 0.0095(4)
C62_2 C 0.1284(2) 0.3762(5) 0.0511(5)
H47_2 H 0.145407 0.383062 0.037932
H48_2 H 0.128234 0.344308 0.064328
H49_2 H 0.124397 0.398572 0.076971
C99_2 C 0.43429(7) 0.00812(13) 0.01807(16)
C101_2 C 0.45373(6) 0.05357(10) 0.01495(14)
C102_2 C 0.44979(5) 0.09469(13) 0.04295(12)
H77_2 H 0.435907 0.096336 0.065062
C104_2 C 0.46660(6) 0.13335(10) 0.03789(12)
H79_2 H 0.463961 0.160859 0.056628
C106_2 C 0.48734(5) 0.13089(9) 0.00484(12)
C107_2 C 0.50526(6) 0.17865(16) 0.00155(15)
C108_2 C 0.52338(5) 0.18569(11) 0.04507(9)
C111_2 C 0.54401(6) 0.21776(11) 0.04209(9)
C112_2 C 0.51967(6) 0.15892(12) 0.08797(11)
C114_2 C 0.48985(6) 0.26820(12) 0.02273(13)
H81_2 H 0.546490 0.235668 0.013387
C117_2 C 0.56091(5) 0.22306(12) 0.08201(11)
C118_2 C 0.53658(7) 0.16422(13) 0.12789(9)
H82_2 H 0.505872 0.137458 0.089966
C120_2 C 0.47243(8) 0.30574(11) 0.01630(17)
H84_2 H 0.503634 0.271272 0.044898
H87_2 H 0.574712 0.244522 0.080018
C123_2 C 0.55720(6) 0.19629(13) 0.12491(10)
H88_2 H 0.534095 0.146313 0.156597
H90_2 H 0.474552 0.333919 0.034177
C126_2 C 0.57683(5) 0.20319(16) 0.16248(10)
C129_2 C 0.60198(6) 0.18748(16) 0.15255(9)
C130_2 C 0.57042(5) 0.21964(16) 0.20962(12)
C132_2 C 0.41057(16) 0.3439(3) 0.0076(4)
H93_2 H 0.606264 0.176481 0.121011
C135_2 C 0.62073(5) 0.18821(18) 0.18977(12)
C136_2 C 0.58917(6) 0.22037(16) 0.24684(9)
C137_2 C 0.54213(10) 0.2391(3) 0.2218(2)
H94_2 H 0.408285 0.317942 0.028775
C140_2 C 0.39192(16) 0.3803(4) 0.0095(4)
C144_2 C 0.61432(5) 0.20466(18) 0.23692(10)
C145_2 C 0.64752(10) 0.1724(3) 0.1740(2)
H96_2 H 0.584888 0.231367 0.278384
H97_2 H 0.532110 0.240831 0.191787
H98_2 H 0.533725 0.217943 0.244826
H99_2 H 0.543440 0.270439 0.236238
C147_2 C 0.3716(2) 0.3762(5) 0.0511(5)
C150_2 C 0.63340(5) 0.20501(16) 0.27518(10)
H108_2 H 0.654029 0.149186 0.197222
H109_2 H 0.646634 0.158320 0.141557
H110_2 H 0.658987 0.199471 0.173299
H111_2 H 0.354593 0.383062 0.037932
H112_2 H 0.371766 0.344308 0.064328
H113_2 H 0.375603 0.398572 0.076971
C153_2 C 0.65771(6) 0.22616(15) 0.26947(9)
C154_2 C 0.62683(5) 0.18323(15) 0.31984(12)
H117_2 H 0.662105 0.240729 0.239584
C159_2 C 0.67546(5) 0.22552(14) 0.30842(11)
C160_2 C 0.64458(5) 0.18259(14) 0.35880(10)
H118_2 H 0.610561 0.169087 0.323663
H123_2 H 0.691734 0.239662 0.304602
C165_2 C 0.66890(5) 0.20374(14) 0.35309(9)
H124_2 H 0.640190 0.168022 0.388681
C168_2 C 0.68739(6) 0.20164(16) 0.39319(15)
C11_2 C 0.08537(9) 0.00725(15) 0.98262(15)
H6_2 H 0.086088 0.030827 0.958307
C18_2 C 0.02553(6) 0.05111(10) 0.98189(14)
C20_2 C 0.00872(5) 0.08977(11) 0.97684(12)
H14_2 H 0.022892 0.023595 0.963160
C24_2 C 0.01333(5) 0.22608(10) 0.99601(12)
C28_2 C 0.03393(6) 0.22149(11) 0.96287(12)
H19_2 H 0.036056 0.193306 0.945001
C34_2 C 0.05135(6) 0.25902(14) 0.95645(14)
H25_2 H 0.065138 0.255954 0.934281
C39_2 C 0.04818(7) 0.30115(12) 0.98317(17)
C42_2 C 0.06810(14) 0.3433(3) 0.9772(3)
C46_2 C 0.06928(18) 0.3777(3) 0.9463(4)
C53_2 C 0.08642(17) 0.4151(4) 0.9370(4)
C54_2 C 0.0472(2) 0.3815(5) 0.9060(5)
C61_2 C 0.10569(17) 0.4167(3) 0.9737(4)
H36_2 H 0.085261 0.436019 0.910299
H37_2 H 0.054342 0.374175 0.873883
H38_2 H 0.040340 0.413442 0.905710
H39_2 H 0.033566 0.359319 0.913644
C66_2 C 0.12769(7) 0.45900(14) 0.9697(3)
C70_2 C 0.12145(5) 0.50685(15) 0.9771(2)
C71_2 C 0.15352(8) 0.44543(11) 0.9634(3)
C76_2 C 0.14105(6) 0.54113(11) 0.9781(2)
H55_2 H 0.104172 0.515931 0.981317
H56_2 H 0.157685 0.413418 0.958465
C77_2 C 0.17311(6) 0.47971(13) 0.9644(2)
C81_2 C 0.16688(6) 0.52756(12) 0.9717(2)
H61_2 H 0.136882 0.573141 0.982999
H62_2 H 0.190395 0.470627 0.960147
C84_2 C 0.18777(8) 0.56836(18) 0.9752(2)
C96_2 C 0.41463(9) 0.00725(15) 0.98262(15)
H70_2 H 0.413912 0.030827 0.958307
C103_2 C 0.47447(6) 0.05111(10) 0.98189(14)
C105_2 C 0.49128(5) 0.08977(11) 0.97684(12)
H78_2 H 0.477108 0.023595 0.963160
H80_2 H 0.505161 0.088119 0.954726
C109_2 C 0.48667(5) 0.22608(10) 0.99601(12)
C110_2 C 0.52342(5) 0.17313(11) 0.95771(9)
C113_2 C 0.46607(6) 0.22149(11) 0.96287(12)
C115_2 C 0.52070(6) 0.20180(12) 0.91588(11)
C116_2 C 0.54379(5) 0.14051(11) 0.96062(10)
H83_2 H 0.463944 0.193306 0.945001
C119_2 C 0.44865(6) 0.25902(14) 0.95645(14)
H85_2 H 0.507066 0.223625 0.913936
C121_2 C 0.53834(7) 0.19786(14) 0.87696(10)
C122_2 C 0.56144(5) 0.13657(12) 0.92170(12)
H86_2 H 0.545617 0.121330 0.988609
H89_2 H 0.434862 0.255954 0.934281
C124_2 C 0.45182(7) 0.30115(12) 0.98317(17)
H91_2 H 0.536515 0.217039 0.848971
C125_2 C 0.55871(6) 0.16524(14) 0.87987(11)
H92_2 H 0.575066 0.114745 0.923643
C127_2 C 0.43190(14) 0.3433(3) 0.9772(3)
C128_2 C 0.57791(6) 0.16287(16) 0.84213(10)
C131_2 C 0.43072(18) 0.3777(3) 0.9463(4)
C133_2 C 0.56842(5) 0.14975(17) 0.79576(12)
C134_2 C 0.60423(6) 0.17297(16) 0.84820(10)
C138_2 C 0.41358(17) 0.4151(4) 0.9370(4)
C139_2 C 0.4528(2) 0.3815(5) 0.9060(5)
H95_2 H 0.550817 0.142995 0.791696
C141_2 C 0.58525(6) 0.14673(18) 0.75546(10)
C142_2 C 0.62105(5) 0.16995(17) 0.80790(12)
C143_2 C 0.61677(12) 0.1874(3) 0.8939(2)
C146_2 C 0.39431(17) 0.4167(3) 0.9737(4)
H100_2 H 0.414739 0.436019 0.910299
H101_2 H 0.445658 0.374175 0.873883
H102_2 H 0.459660 0.413442 0.905710
H103_2 H 0.466434 0.359319 0.913644
C148_2 C 0.61157(6) 0.15683(17) 0.76153(10)
C149_2 C 0.57386(13) 0.1303(4) 0.7088(2)
H104_2 H 0.638660 0.176706 0.811962
H105_2 H 0.622305 0.159577 0.911829
H106_2 H 0.631624 0.206981 0.886343
H107_2 H 0.604707 0.205349 0.913763
C151_2 C 0.37231(7) 0.45900(14) 0.9697(3)
C152_2 C 0.63091(5) 0.15483(16) 0.72360(10)
H114_2 H 0.562781 0.154869 0.695497
H115_2 H 0.587513 0.123448 0.685470
H116_2 H 0.563814 0.101951 0.714596
C155_2 C 0.37855(5) 0.50685(15) 0.9771(2)
C156_2 C 0.34648(8) 0.44543(11) 0.9634(3)
C157_2 C 0.62568(5) 0.17852(14) 0.67934(11)
C158_2 C 0.65468(6) 0.13191(15) 0.73026(10)
C161_2 C 0.35895(6) 0.54113(11) 0.9781(2)
H119_2 H 0.395828 0.515931 0.981317
H120_2 H 0.342315 0.413418 0.958465
C162_2 C 0.32689(6) 0.47971(13) 0.9644(2)
H121_2 H 0.609776 0.193850 0.674889
C163_2 C 0.64421(6) 0.17928(13) 0.64174(9)
C164_2 C 0.67321(5) 0.13268(15) 0.69266(12)
H122_2 H 0.658175 0.116069 0.759876
O35_2 O 0.18070(5) 0.61115(11) 0.98520(13)
O36_2 O 0.21015(6) 0.55200(13) 0.97159(17)
C166_2 C 0.33312(6) 0.52756(12) 0.9717(2)
H125_2 H 0.363118 0.573141 0.982999
H126_2 H 0.309605 0.470627 0.960147
H127_2 H 0.640714 0.195122 0.612129
C167_2 C 0.66798(5) 0.15636(14) 0.64840(10)
H128_2 H 0.689112 0.117341 0.697115
Zr10_2 Zr 0.250000 0.58921(2) 0.98652(2)
C169_2 C 0.31223(8) 0.56836(18) 0.9752(2)
C170_2 C 0.68845(7) 0.1558(2) 0.60869(18)
O39_2 O 0.28985(6) 0.55200(13) 0.97159(17)
O42_2 O 0.31930(5) 0.61115(11) 0.98520(13)
O1_2 O 0.18026(5) 0.74660(11) 0.01749(10)
O2_2 O 0.22660(7) 0.62351(16) 0.03581(13)
O5_2 O 0.22642(6) 0.71402(15) 0.05591(15)
C1_2 C 0.18683(7) 0.78955(16) 0.02420(18)
Zr5_2 Zr 0.250000 0.76970(2) 0.02846(2)
O9_2 O 0.20962(6) 0.80551(13) 0.02904(16)
C2_2 C 0.16490(4) 0.82908(10) 0.02851(15)
O10_2 O 0.250000 0.5832(2) 0.1191(2)
O11_2 O 0.250000 0.7068(2) 0.15066(17)
O14_2 O 0.250000 0.5277(2) 0.0317(3)
O19_2 O 0.250000 0.8108(2) 0.0881(2)
C3_2 C 0.17082(4) 0.87669(11) 0.03811(18)
C4_2 C 0.13922(5) 0.81544(9) 0.02028(14)
H1_2 H 0.187994 0.885812 0.043620
C5_2 C 0.15107(6) 0.91066(9) 0.03947(19)
C6_2 C 0.11948(4) 0.84941(12) 0.02164(15)
H2_2 H 0.135260 0.783582 0.013858
H3_2 H 0.155033 0.942513 0.045888
C7_2 C 0.12540(5) 0.89702(11) 0.03123(17)
H4_2 H 0.102299 0.840284 0.016126
C8_2 C 0.10290(7) 0.93590(14) 0.01983(17)
C10_2 C 0.08324(7) 0.93677(13) 0.05528(15)
C13_2 C 0.06464(7) 0.97288(14) 0.05441(14)
H5_2 H 0.082526 0.913187 0.079592
C15_2 C 0.04137(13) 0.9705(3) 0.0845(3)
H10_2 H 0.040355 0.998436 0.105206
H11_2 H 0.041968 0.942457 0.105028
H12_2 H 0.026336 0.969129 0.063405
O21_2 O 0.27340(7) 0.62351(16) 0.03581(13)
O22_2 O 0.27358(6) 0.71402(15) 0.05591(15)
O28_2 O 0.29038(6) 0.80551(13) 0.02904(16)
C86_2 C 0.31317(7) 0.78955(16) 0.02420(18)
O29_2 O 0.31974(5) 0.74660(11) 0.01749(10)
C87_2 C 0.33510(4) 0.82908(10) 0.02851(15)
C88_2 C 0.32918(4) 0.87669(11) 0.03811(18)
C89_2 C 0.36078(5) 0.81544(9) 0.02028(14)
H65_2 H 0.312006 0.885812 0.043620
C90_2 C 0.34893(6) 0.91066(9) 0.03947(19)
C91_2 C 0.38052(4) 0.84941(12) 0.02164(15)
H66_2 H 0.364740 0.783582 0.013858
H67_2 H 0.344967 0.942513 0.045888
C92_2 C 0.37460(5) 0.89702(11) 0.03123(17)
H68_2 H 0.397701 0.840284 0.016126
C93_2 C 0.39710(7) 0.93590(14) 0.01983(17)
C95_2 C 0.41676(7) 0.93677(13) 0.05528(15)
C98_2 C 0.43536(7) 0.97288(14) 0.05441(14)
H69_2 H 0.417474 0.913187 0.079592
C100_2 C 0.45863(13) 0.9705(3) 0.0845(3)
H74_2 H 0.459645 0.998436 0.105206
H75_2 H 0.458032 0.942457 0.105028
H76_2 H 0.473664 0.969129 0.063405
O3_2 O 0.22697(6) 0.64385(13) 0.94844(14)
O4_2 O 0.22683(6) 0.73301(15) 0.96989(13)
O13_2 O 0.250000 0.5535(2) 0.9103(2)
O16_2 O 0.250000 0.7751(2) 0.88030(19)
O17_2 O 0.250000 0.6514(2) 0.8510(2)
O20_2 O 0.250000 0.8392(2) 0.9765(2)
C9_2 C 0.10397(8) 0.97114(17) 0.98349(16)
C12_2 C 0.1226(2) 0.9689(4) 0.9426(4)
H7_2 H 0.127160 0.936114 0.936457
H8_2 H 0.137899 0.986647 0.951142
H9_2 H 0.114823 0.982288 0.913303
O24_2 O 0.27303(6) 0.64385(13) 0.94844(14)
O26_2 O 0.27317(6) 0.73301(15) 0.96989(13)
C94_2 C 0.39603(8) 0.97114(17) 0.98349(16)
C97_2 C 0.3774(2) 0.9689(4) 0.9426(4)
H71_2 H 0.372840 0.936114 0.936457
H72_2 H 0.362101 0.986647 0.951142
H73_2 H 0.385177 0.982288 0.913303
C22_2 C 0.99474(6) 0.17865(16) 0.00155(15)
C23_2 C 0.97662(5) 0.18569(11) 0.04507(9)
C26_2 C 0.95599(6) 0.21776(11) 0.04209(9)
C27_2 C 0.98033(6) 0.15892(12) 0.08797(11)
H17_2 H 0.953510 0.235668 0.013387
C32_2 C 0.93909(5) 0.22306(12) 0.08201(11)
C33_2 C 0.96342(7) 0.16422(13) 0.12789(9)
H18_2 H 0.994128 0.137458 0.089966
H20_2 H 0.996366 0.271272 0.044898
H23_2 H 0.925288 0.244522 0.080018
C38_2 C 0.94280(6) 0.19629(13) 0.12491(10)
H24_2 H 0.965905 0.146313 0.156597
C41_2 C 0.92317(5) 0.20319(16) 0.16248(10)
C44_2 C 0.89802(6) 0.18748(16) 0.15255(9)
C45_2 C 0.92958(5) 0.21964(16) 0.20962(12)
H29_2 H 0.893736 0.176481 0.121011
C50_2 C 0.87927(5) 0.18821(18) 0.18977(12)
C51_2 C 0.91083(6) 0.22037(16) 0.24684(9)
C52_2 C 0.95787(10) 0.2391(3) 0.2218(2)
C59_2 C 0.88568(5) 0.20466(18) 0.23692(10)
C60_2 C 0.85248(10) 0.1724(3) 0.1740(2)
H32_2 H 0.915112 0.231367 0.278384
H33_2 H 0.967890 0.240831 0.191787
H34_2 H 0.966275 0.217943 0.244826
H35_2 H 0.956560 0.270439 0.236238
C65_2 C 0.86660(5) 0.20501(16) 0.27518(10)
H44_2 H 0.845971 0.149186 0.197222
H45_2 H 0.853366 0.158320 0.141557
H46_2 H 0.841013 0.199471 0.173299
C68_2 C 0.84229(6) 0.22616(15) 0.26947(9)
C69_2 C 0.87317(5) 0.18323(15) 0.31984(12)
H53_2 H 0.837895 0.240729 0.239584
C74_2 C 0.82454(5) 0.22552(14) 0.30842(11)
C75_2 C 0.85542(5) 0.18259(14) 0.35880(10)
H54_2 H 0.889439 0.169087 0.323663
H59_2 H 0.808266 0.239662 0.304602
C80_2 C 0.83110(5) 0.20374(14) 0.35309(9)
H60_2 H 0.859810 0.168022 0.388681
C83_2 C 0.81261(6) 0.20164(16) 0.39319(15)
H16_2 H 0.994839 0.088119 0.954726
C25_2 C 0.97658(5) 0.17313(11) 0.95771(9)
C30_2 C 0.97930(6) 0.20180(12) 0.91588(11)
C31_2 C 0.95621(5) 0.14051(11) 0.96062(10)
H21_2 H 0.992934 0.223625 0.913936
C36_2 C 0.96166(7) 0.19786(14) 0.87696(10)
C37_2 C 0.93856(5) 0.13657(12) 0.92170(12)
H22_2 H 0.954383 0.121330 0.988609
H27_2 H 0.963485 0.217039 0.848971
C40_2 C 0.94129(6) 0.16524(14) 0.87987(11)
H28_2 H 0.924934 0.114745 0.923643
C43_2 C 0.92209(6) 0.16287(16) 0.84213(10)
C48_2 C 0.93158(5) 0.14975(17) 0.79576(12)
C49_2 C 0.89577(6) 0.17297(16) 0.84820(10)
H31_2 H 0.949183 0.142995 0.791696
C56_2 C 0.91475(6) 0.14673(18) 0.75546(10)
C57_2 C 0.87895(5) 0.16995(17) 0.80790(12)
C58_2 C 0.88323(12) 0.1874(3) 0.8939(2)
C63_2 C 0.88843(6) 0.15683(17) 0.76153(10)
C64_2 C 0.92614(13) 0.1303(4) 0.7088(2)
H40_2 H 0.861340 0.176706 0.811962
H41_2 H 0.877695 0.159577 0.911829
H42_2 H 0.868376 0.206981 0.886343
H43_2 H 0.895293 0.205349 0.913763
C67_2 C 0.86909(5) 0.15483(16) 0.72360(10)
H50_2 H 0.937219 0.154869 0.695497
H51_2 H 0.912487 0.123448 0.685470
H52_2 H 0.936186 0.101951 0.714596
C72_2 C 0.87432(5) 0.17852(14) 0.67934(11)
C73_2 C 0.84532(6) 0.13191(15) 0.73026(10)
H57_2 H 0.890224 0.193850 0.674889
C78_2 C 0.85579(6) 0.17928(13) 0.64174(9)
C79_2 C 0.82679(5) 0.13268(15) 0.69266(12)
H58_2 H 0.841825 0.116069 0.759876
H63_2 H 0.859286 0.195122 0.612129
C82_2 C 0.83202(5) 0.15636(14) 0.64840(10)
H64_2 H 0.810888 0.117341 0.697115
C85_2 C 0.81155(7) 0.1558(2) 0.60869(18)
Zr7_2 Zr 0.70175(2) 0.32040(2) 0.00700(2)
Zr1 Zr 0.29825(2) 0.82040(2) 0.50700(2)
O1_3 O 0.31974(5) 0.75340(11) 0.51749(10)
O2_3 O 0.27340(7) 0.87649(16) 0.53581(13)
O3_3 O 0.27303(6) 0.85615(13) 0.44844(14)
O4_3 O 0.27317(6) 0.76699(15) 0.46989(13)
O5_3 O 0.27358(6) 0.78598(15) 0.55591(15)
O6_2 O 0.31935(6) 0.83543(12) 0.56882(10)
O7_2 O 0.31990(6) 0.80573(12) 0.43483(10)
O8 O 0.31930(5) 0.88885(11) 0.48520(13)
C1_3 C 0.31317(7) 0.71045(16) 0.52420(18)
Zr2_2 Zr 0.250000 0.84161(2) 0.59333(2)
Zr3 Zr 0.250000 0.91079(2) 0.48652(2)
Zr4_2 Zr 0.250000 0.79868(2) 0.42063(2)
Zr5_3 Zr 0.250000 0.73030(2) 0.52846(2)
O9_3 O 0.29038(6) 0.69449(13) 0.52904(16)
C2_3 C 0.33510(4) 0.67092(10) 0.52851(15)
O10_3 O 0.250000 0.9168(2) 0.6191(2)
O11_3 O 0.250000 0.7932(2) 0.65066(17)
O12_2 O 0.21017(6) 0.84989(18) 0.62346(12)
O13_3 O 0.250000 0.9465(2) 0.4103(2)
O14_3 O 0.250000 0.9723(2) 0.5317(3)
O15 O 0.28985(6) 0.94800(13) 0.47159(17)
O16_3 O 0.250000 0.7249(2) 0.38030(19)
O17_3 O 0.250000 0.8486(2) 0.3510(2)
O18_2 O 0.21232(5) 0.79070(13) 0.37828(11)
O19_3 O 0.250000 0.6892(2) 0.5881(2)
O20_3 O 0.250000 0.6608(2) 0.4765(2)
C3_3 C 0.32918(4) 0.62331(11) 0.53811(18)
C4_3 C 0.36078(5) 0.68456(9) 0.52028(14)
H1_3 H 0.312006 0.614188 0.543620
C5_3 C 0.34893(6) 0.58934(9) 0.53947(19)
C6_3 C 0.38052(4) 0.65059(12) 0.52164(15)
H2_3 H 0.364740 0.716418 0.513858
H3_3 H 0.344967 0.557487 0.545888
C7_3 C 0.37460(5) 0.60298(11) 0.53123(17)
H4_3 H 0.397701 0.659716 0.516126
C8_3 C 0.39710(7) 0.56410(14) 0.51983(17)
C9_3 C 0.39603(8) 0.52886(17) 0.48349(16)
C10_3 C 0.41676(7) 0.56323(13) 0.55528(15)
C11_3 C 0.41463(9) 0.49275(15) 0.48262(15)
C12_3 C 0.3774(2) 0.5311(4) 0.4426(4)
C13_3 C 0.43536(7) 0.52712(14) 0.55441(14)
H5_3 H 0.417474 0.586813 0.579592
H6_3 H 0.413912 0.469173 0.458307
C14_3 C 0.43429(7) 0.49188(13) 0.51807(16)
H7_3 H 0.372840 0.563886 0.436457
H8_3 H 0.362101 0.513353 0.451142
H9_3 H 0.385177 0.517712 0.413303
C15_3 C 0.45863(13) 0.5295(3) 0.5845(3)
C16_3 C 0.45373(6) 0.44643(10) 0.51495(14)
H10_3 H 0.459645 0.501564 0.605206
H11_3 H 0.458032 0.557543 0.605028
H12_3 H 0.473664 0.530871 0.563405
C17_3 C 0.44979(5) 0.40531(13) 0.54295(12)
C18_3 C 0.47447(6) 0.44889(10) 0.48189(14)
H13_3 H 0.435907 0.403664 0.565062
C19_3 C 0.46660(6) 0.36665(10) 0.53789(12)
C20_3 C 0.49128(5) 0.41023(11) 0.47684(12)
H14_3 H 0.477108 0.476405 0.463160
H15_3 H 0.463961 0.339141 0.556628
C21_3 C 0.48734(5) 0.36911(9) 0.50484(12)
H16_3 H 0.505161 0.411881 0.454726
C22_3 C 0.50526(6) 0.32135(16) 0.50155(15)
C23_3 C 0.52338(5) 0.31431(11) 0.54507(9)
C24_3 C 0.48667(5) 0.27392(10) 0.49601(12)
C25_3 C 0.52342(5) 0.32687(11) 0.45771(9)
C26_3 C 0.54401(6) 0.28224(11) 0.54209(9)
C27_3 C 0.51967(6) 0.34108(12) 0.58797(11)
C28_3 C 0.46607(6) 0.27851(11) 0.46287(12)
C29_3 C 0.48985(6) 0.23180(12) 0.52273(13)
C30_3 C 0.52070(6) 0.29820(12) 0.41588(11)
C31_3 C 0.54379(5) 0.35949(11) 0.46062(10)
H17_3 H 0.546490 0.264332 0.513387
C32_3 C 0.56091(5) 0.27694(12) 0.58201(11)
C33_3 C 0.53658(7) 0.33578(13) 0.62789(9)
H18_3 H 0.505872 0.362542 0.589966
H19_3 H 0.463944 0.306694 0.445001
C34_3 C 0.44865(6) 0.24098(14) 0.45645(14)
C35_3 C 0.47243(8) 0.19426(11) 0.51630(17)
H20_3 H 0.503634 0.228728 0.544898
H21_3 H 0.507066 0.276375 0.413936
C36_3 C 0.53834(7) 0.30214(14) 0.37696(10)
C37_3 C 0.56144(5) 0.36343(12) 0.42170(12)
H22_3 H 0.545617 0.378670 0.488609
H23_3 H 0.574712 0.255478 0.580018
C38_3 C 0.55720(6) 0.30371(13) 0.62491(10)
H24_3 H 0.534095 0.353687 0.656597
H25_3 H 0.434862 0.244046 0.434281
C39_3 C 0.45182(7) 0.19885(12) 0.48317(17)
H26_3 H 0.474552 0.166081 0.534177
H27_3 H 0.536515 0.282961 0.348971
C40_3 C 0.55871(6) 0.33476(14) 0.37987(11)
H28_3 H 0.575066 0.385255 0.423643
C41_3 C 0.57683(5) 0.29681(16) 0.66248(10)
C42_3 C 0.43190(14) 0.1567(3) 0.4772(3)
C43_3 C 0.57791(6) 0.33713(16) 0.34213(10)
C44_3 C 0.60198(6) 0.31252(16) 0.65255(9)
C45_3 C 0.57042(5) 0.28036(16) 0.70962(12)
C46_3 C 0.43072(18) 0.1223(3) 0.4463(4)
C47_3 C 0.41057(16) 0.1561(3) 0.5076(4)
C48_3 C 0.56842(5) 0.35025(17) 0.29576(12)
C49_3 C 0.60423(6) 0.32703(16) 0.34820(10)
H29_3 H 0.606264 0.323519 0.621011
C50_3 C 0.62073(5) 0.31179(18) 0.68977(12)
C51_3 C 0.58917(6) 0.27963(16) 0.74684(9)
C52_3 C 0.54213(10) 0.2609(3) 0.7218(2)
C53_3 C 0.41358(17) 0.0849(4) 0.4370(4)
C54_3 C 0.4528(2) 0.1185(5) 0.4060(5)
H30_3 H 0.408285 0.182058 0.528775
C55_3 C 0.39192(16) 0.1197(4) 0.5095(4)
H31_3 H 0.550817 0.357005 0.291696
C56_3 C 0.58525(6) 0.35327(18) 0.25546(10)
C57_3 C 0.62105(5) 0.33005(17) 0.30790(12)
C58_3 C 0.61677(12) 0.3126(3) 0.3939(2)
C59_3 C 0.61432(5) 0.29534(18) 0.73692(10)
C60_3 C 0.64752(10) 0.3276(3) 0.6740(2)
H32_3 H 0.584888 0.268633 0.778384
H33_3 H 0.532110 0.259169 0.691787
H34_3 H 0.533725 0.282057 0.744826
H35_3 H 0.543440 0.229561 0.736238
C61_3 C 0.39431(17) 0.0833(3) 0.4737(4)
H36_3 H 0.414739 0.063981 0.410299
H37_3 H 0.445658 0.125825 0.373883
H38_3 H 0.459660 0.086558 0.405710
H39_3 H 0.466434 0.140681 0.413644
C62_3 C 0.3716(2) 0.1238(5) 0.5511(5)
C63_3 C 0.61157(6) 0.34317(17) 0.26153(10)
C64_3 C 0.57386(13) 0.3697(4) 0.2088(2)
H40_3 H 0.638660 0.323294 0.311962
H41_3 H 0.622305 0.340423 0.411829
H42_3 H 0.631624 0.293019 0.386343
H43_3 H 0.604707 0.294651 0.413763
C65_3 C 0.63340(5) 0.29499(16) 0.77518(10)
H44_3 H 0.654029 0.350814 0.697222
H45_3 H 0.646634 0.341680 0.641557
H46_3 H 0.658987 0.300529 0.673299
C66_3 C 0.37231(7) 0.04100(14) 0.4697(3)
H47_3 H 0.354593 0.116938 0.537932
H48_3 H 0.371766 0.155692 0.564328
H49_3 H 0.375603 0.101428 0.576971
C67_3 C 0.63091(5) 0.34517(16) 0.22360(10)
H50_3 H 0.562781 0.345131 0.195497
H51_3 H 0.587513 0.376552 0.185470
H52_3 H 0.563814 0.398049 0.214596
C68_3 C 0.65771(6) 0.27384(15) 0.76947(9)
C69_3 C 0.62683(5) 0.31677(15) 0.81984(12)
C71_3 C 0.34648(8) 0.05457(11) 0.4634(3)
C72_3 C 0.62568(5) 0.32148(14) 0.17934(11)
C73_3 C 0.65468(6) 0.36809(15) 0.23026(10)
H53_3 H 0.662105 0.259271 0.739584
C74_3 C 0.67546(5) 0.27448(14) 0.80842(11)
C75_3 C 0.64458(5) 0.31741(14) 0.85880(10)
H54_3 H 0.610561 0.330913 0.823663
H56_3 H 0.342315 0.086582 0.458465
C77_3 C 0.32689(6) 0.02029(13) 0.4644(2)
H57_3 H 0.609776 0.306150 0.174889
C78_3 C 0.64421(6) 0.32072(13) 0.14174(9)
C79_3 C 0.67321(5) 0.36732(15) 0.19266(12)
H58_3 H 0.658175 0.383931 0.259876
H59_3 H 0.691734 0.260338 0.804602
C80_3 C 0.66890(5) 0.29626(14) 0.85309(9)
H60_3 H 0.640190 0.331978 0.888681
H62_3 H 0.309605 0.029373 0.460147
H63_3 H 0.640714 0.304878 0.112129
C82_3 C 0.66798(5) 0.34364(14) 0.14840(10)
H64_3 H 0.689112 0.382659 0.197115
C83_3 C 0.68739(6) 0.29836(16) 0.89319(15)
C85_3 C 0.68845(7) 0.3442(2) 0.10869(18)
O21_3 O 0.22660(7) 0.87649(16) 0.53581(13)
O22_3 O 0.22642(6) 0.78598(15) 0.55591(15)
O23_2 O 0.28983(6) 0.84989(18) 0.62346(12)
O24_3 O 0.22697(6) 0.85615(13) 0.44844(14)
O25 O 0.21015(6) 0.94800(13) 0.47159(17)
O26_3 O 0.22683(6) 0.76699(15) 0.46989(13)
O27_2 O 0.28768(5) 0.79070(13) 0.37828(11)
O28_3 O 0.20962(6) 0.69449(13) 0.52904(16)
Zr6 Zr 0.20175(2) 0.82040(2) 0.50700(2)
C86_3 C 0.18683(7) 0.71045(16) 0.52420(18)
O29_3 O 0.18026(5) 0.75340(11) 0.51749(10)
O30_2 O 0.18065(6) 0.83543(12) 0.56882(10)
O31_2 O 0.18010(6) 0.80573(12) 0.43483(10)
O32 O 0.18070(5) 0.88885(11) 0.48520(13)
C87_3 C 0.16490(4) 0.67092(10) 0.52851(15)
C88_3 C 0.17082(4) 0.62331(11) 0.53811(18)
C89_3 C 0.13922(5) 0.68456(9) 0.52028(14)
H65_3 H 0.187994 0.614188 0.543620
C90_3 C 0.15107(6) 0.58934(9) 0.53947(19)
C91_3 C 0.11948(4) 0.65059(12) 0.52164(15)
H66_3 H 0.135260 0.716418 0.513858
H67_3 H 0.155033 0.557487 0.545888
C92_3 C 0.12540(5) 0.60298(11) 0.53123(17)
H68_3 H 0.102299 0.659716 0.516126
C93_3 C 0.10290(7) 0.56410(14) 0.51983(17)
C94_3 C 0.10397(8) 0.52886(17) 0.48349(16)
C95_3 C 0.08324(7) 0.56323(13) 0.55528(15)
C96_3 C 0.08537(9) 0.49275(15) 0.48262(15)
C97_3 C 0.1226(2) 0.5311(4) 0.4426(4)
C98_3 C 0.06464(7) 0.52712(14) 0.55441(14)
H69_3 H 0.082526 0.586813 0.579592
H70_3 H 0.086088 0.469173 0.458307
C99_3 C 0.06571(7) 0.49188(13) 0.51807(16)
H71_3 H 0.127160 0.563886 0.436457
H72_3 H 0.137899 0.513353 0.451142
H73_3 H 0.114823 0.517712 0.413303
C100_3 C 0.04137(13) 0.5295(3) 0.5845(3)
C101_3 C 0.04627(6) 0.44643(10) 0.51495(14)
H74_3 H 0.040355 0.501564 0.605206
H75_3 H 0.041968 0.557543 0.605028
H76_3 H 0.026336 0.530871 0.563405
C102_3 C 0.05021(5) 0.40531(13) 0.54295(12)
C103_3 C 0.02553(6) 0.44889(10) 0.48189(14)
H77_3 H 0.064093 0.403664 0.565062
C104_3 C 0.03340(6) 0.36665(10) 0.53789(12)
C105_3 C 0.00872(5) 0.41023(11) 0.47684(12)
H78_3 H 0.022892 0.476405 0.463160
H79_3 H 0.036039 0.339141 0.556628
C106_3 C 0.01266(5) 0.36911(9) 0.50484(12)
C109_3 C 0.01333(5) 0.27392(10) 0.49601(12)
C113_3 C 0.03393(6) 0.27851(11) 0.46287(12)
C114_3 C 0.01015(6) 0.23180(12) 0.52273(13)
H83_3 H 0.036056 0.306694 0.445001
C119_3 C 0.05135(6) 0.24098(14) 0.45645(14)
C120_3 C 0.02757(8) 0.19426(11) 0.51630(17)
H89_3 H 0.065138 0.244046 0.434281
C124_3 C 0.04818(7) 0.19885(12) 0.48317(17)
H90_3 H 0.025448 0.166081 0.534177
C127_3 C 0.06810(14) 0.1567(3) 0.4772(3)
C131_3 C 0.06928(18) 0.1223(3) 0.4463(4)
C132_3 C 0.08943(16) 0.1561(3) 0.5076(4)
C138_3 C 0.08642(17) 0.0849(4) 0.4370(4)
C139_3 C 0.0472(2) 0.1185(5) 0.4060(5)
H94_3 H 0.091715 0.182058 0.528775
C140_3 C 0.10808(16) 0.1197(4) 0.5095(4)
C146_3 C 0.10569(17) 0.0833(3) 0.4737(4)
H100_3 H 0.085261 0.063981 0.410299
H101_3 H 0.054342 0.125825 0.373883
H102_3 H 0.040340 0.086558 0.405710
H103_3 H 0.033566 0.140681 0.413644
C147_3 C 0.1284(2) 0.1238(5) 0.5511(5)
C151_3 C 0.12769(7) 0.04100(14) 0.4697(3)
H111_3 H 0.145407 0.116938 0.537932
H112_3 H 0.128234 0.155692 0.564328
H113_3 H 0.124397 0.101428 0.576971
C156_3 C 0.15352(8) 0.05457(11) 0.4634(3)
H120_3 H 0.157685 0.086582 0.458465
C162_3 C 0.17311(6) 0.02029(13) 0.4644(2)
O33_2 O 0.68010(6) 0.30573(12) 0.93483(10)
O34_2 O 0.71232(5) 0.29070(13) 0.87828(11)
O37_2 O 0.68065(6) 0.33543(12) 0.06882(10)
O38_2 O 0.71017(6) 0.34989(18) 0.12346(12)
H126_3 H 0.190395 0.029373 0.460147
Zr8 Zr 0.750000 0.29868(2) 0.92063(2)
Zr12 Zr 0.750000 0.34161(2) 0.09333(2)
C70_3 C 0.37855(5) 0.99315(15) 0.4771(2)
C76_3 C 0.35895(6) 0.95887(11) 0.4781(2)
H55_3 H 0.395828 0.984069 0.481317
C81_3 C 0.33312(6) 0.97244(12) 0.4717(2)
H61_3 H 0.363118 0.926859 0.482999
C84_3 C 0.31223(8) 0.93164(18) 0.4752(2)
C155_3 C 0.12145(5) 0.99315(15) 0.4771(2)
C161_3 C 0.14105(6) 0.95887(11) 0.4781(2)
H119_3 H 0.104172 0.984069 0.481317
C166_3 C 0.16688(6) 0.97244(12) 0.4717(2)
H125_3 H 0.136882 0.926859 0.482999
C169_3 C 0.18777(8) 0.93164(18) 0.4752(2)
Zr13_2 Zr 0.79825(2) 0.32040(2) 0.00700(2)
H80_3 H 0.994839 0.411881 0.454726
C107_3 C 0.99474(6) 0.32135(16) 0.50155(15)
C108_3 C 0.97662(5) 0.31431(11) 0.54507(9)
C110_3 C 0.97658(5) 0.32687(11) 0.45771(9)
C111_3 C 0.95599(6) 0.28224(11) 0.54209(9)
C112_3 C 0.98033(6) 0.34108(12) 0.58797(11)
C115_3 C 0.97930(6) 0.29820(12) 0.41588(11)
C116_3 C 0.95621(5) 0.35949(11) 0.46062(10)
H81_3 H 0.953510 0.264332 0.513387
C117_3 C 0.93909(5) 0.27694(12) 0.58201(11)
C118_3 C 0.96342(7) 0.33578(13) 0.62789(9)
H82_3 H 0.994128 0.362542 0.589966
H84_3 H 0.996366 0.228728 0.544898
H85_3 H 0.992934 0.276375 0.413936
C121_3 C 0.96166(7) 0.30214(14) 0.37696(10)
C122_3 C 0.93856(5) 0.36343(12) 0.42170(12)
H86_3 H 0.954383 0.378670 0.488609
H87_3 H 0.925288 0.255478 0.580018
C123_3 C 0.94280(6) 0.30371(13) 0.62491(10)
H88_3 H 0.965905 0.353687 0.656597
H91_3 H 0.963485 0.282961 0.348971
C125_3 C 0.94129(6) 0.33476(14) 0.37987(11)
H92_3 H 0.924934 0.385255 0.423643
C126_3 C 0.92317(5) 0.29681(16) 0.66248(10)
C128_3 C 0.92209(6) 0.33713(16) 0.34213(10)
C129_3 C 0.89802(6) 0.31252(16) 0.65255(9)
C130_3 C 0.92958(5) 0.28036(16) 0.70962(12)
C133_3 C 0.93158(5) 0.35025(17) 0.29576(12)
C134_3 C 0.89577(6) 0.32703(16) 0.34820(10)
H93_3 H 0.893736 0.323519 0.621011
C135_3 C 0.87927(5) 0.31179(18) 0.68977(12)
C136_3 C 0.91083(6) 0.27963(16) 0.74684(9)
C137_3 C 0.95787(10) 0.2609(3) 0.7218(2)
H95_3 H 0.949183 0.357005 0.291696
C141_3 C 0.91475(6) 0.35327(18) 0.25546(10)
C142_3 C 0.87895(5) 0.33005(17) 0.30790(12)
C143_3 C 0.88323(12) 0.3126(3) 0.3939(2)
C144_3 C 0.88568(5) 0.29534(18) 0.73692(10)
C145_3 C 0.85248(10) 0.3276(3) 0.6740(2)
H96_3 H 0.915112 0.268633 0.778384
H97_3 H 0.967890 0.259169 0.691787
H98_3 H 0.966275 0.282057 0.744826
H99_3 H 0.956560 0.229561 0.736238
C148_3 C 0.88843(6) 0.34317(17) 0.26153(10)
C149_3 C 0.92614(13) 0.3697(4) 0.2088(2)
H104_3 H 0.861340 0.323294 0.311962
H105_3 H 0.877695 0.340423 0.411829
H106_3 H 0.868376 0.293019 0.386343
H107_3 H 0.895293 0.294651 0.413763
C150_3 C 0.86660(5) 0.29499(16) 0.77518(10)
H108_3 H 0.845971 0.350814 0.697222
H109_3 H 0.853366 0.341680 0.641557
H110_3 H 0.841013 0.300529 0.673299
C152_3 C 0.86909(5) 0.34517(16) 0.22360(10)
H114_3 H 0.937219 0.345131 0.195497
H115_3 H 0.912487 0.376552 0.185470
H116_3 H 0.936186 0.398049 0.214596
C153_3 C 0.84229(6) 0.27384(15) 0.76947(9)
C154_3 C 0.87317(5) 0.31677(15) 0.81984(12)
C157_3 C 0.87432(5) 0.32148(14) 0.17934(11)
C158_3 C 0.84532(6) 0.36809(15) 0.23026(10)
H117_3 H 0.837895 0.259271 0.739584
C159_3 C 0.82454(5) 0.27448(14) 0.80842(11)
C160_3 C 0.85542(5) 0.31741(14) 0.85880(10)
H118_3 H 0.889439 0.330913 0.823663
H121_3 H 0.890224 0.306150 0.174889
C163_3 C 0.85579(6) 0.32072(13) 0.14174(9)
C164_3 C 0.82679(5) 0.36732(15) 0.19266(12)
H122_3 H 0.841825 0.383931 0.259876
H123_3 H 0.808266 0.260338 0.804602
C165_3 C 0.83110(5) 0.29626(14) 0.85309(9)
H124_3 H 0.859810 0.331978 0.888681
H127_3 H 0.859286 0.304878 0.112129
C167_3 C 0.83202(5) 0.34364(14) 0.14840(10)
H128_3 H 0.810888 0.382659 0.197115
C168_3 C 0.81261(6) 0.29836(16) 0.89319(15)
C170_3 C 0.81155(7) 0.3442(2) 0.10869(18)
O40_2 O 0.81990(6) 0.30573(12) 0.93483(10)
O41_2 O 0.78768(5) 0.29070(13) 0.87828(11)
O43_2 O 0.81935(6) 0.33543(12) 0.06882(10)
O44_2 O 0.78983(6) 0.34989(18) 0.12346(12)
C22_4 C 0.00526(6) 0.82135(16) 0.00155(15)
C23_4 C 0.02338(5) 0.81431(11) 0.04507(9)
C26_4 C 0.04401(6) 0.78224(11) 0.04209(9)
C27_4 C 0.01967(6) 0.84108(12) 0.08797(11)
H17_4 H 0.046490 0.764332 0.013387
C32_4 C 0.06091(5) 0.77694(12) 0.08201(11)
C33_4 C 0.03658(7) 0.83578(13) 0.12789(9)
H18_4 H 0.005872 0.862542 0.089966
H20_4 H 0.003634 0.728728 0.044898
H23_4 H 0.074712 0.755478 0.080018
C38_4 C 0.05720(6) 0.80371(13) 0.12491(10)
H24_4 H 0.034095 0.853687 0.156597
C41_4 C 0.07683(5) 0.79681(16) 0.16248(10)
C44_4 C 0.10198(6) 0.81252(16) 0.15255(9)
C45_4 C 0.07042(5) 0.78036(16) 0.20962(12)
H29_4 H 0.106264 0.823519 0.121011
C50_4 C 0.12073(5) 0.81179(18) 0.18977(12)
C51_4 C 0.08917(6) 0.77963(16) 0.24684(9)
C52_4 C 0.04213(10) 0.7609(3) 0.2218(2)
C59_4 C 0.11432(5) 0.79534(18) 0.23692(10)
C60_4 C 0.14752(10) 0.8276(3) 0.1740(2)
H32_4 H 0.084888 0.768633 0.278384
H33_4 H 0.032110 0.759169 0.191787
H34_4 H 0.033725 0.782057 0.244826
H35_4 H 0.043440 0.729561 0.236238
C65_4 C 0.13340(5) 0.79499(16) 0.27518(10)
H44_4 H 0.154029 0.850814 0.197222
H45_4 H 0.146634 0.841680 0.141557
H46_4 H 0.158987 0.800529 0.173299
C68_4 C 0.15771(6) 0.77384(15) 0.26947(9)
C69_4 C 0.12683(5) 0.81677(15) 0.31984(12)
H53_4 H 0.162105 0.759271 0.239584
C74_4 C 0.17546(5) 0.77448(14) 0.30842(11)
C75_4 C 0.14458(5) 0.81741(14) 0.35880(10)
H54_4 H 0.110561 0.830913 0.323663
H59_4 H 0.191734 0.760338 0.304602
C80_4 C 0.16890(5) 0.79626(14) 0.35309(9)
H60_4 H 0.140190 0.831978 0.388681
C83_4 C 0.18739(6) 0.79836(16) 0.39319(15)
H16_4 H 0.005161 0.911881 0.954726
C25_4 C 0.02342(5) 0.82687(11) 0.95771(9)
C30_4 C 0.02070(6) 0.79820(12) 0.91588(11)
C31_4 C 0.04379(5) 0.85949(11) 0.96062(10)
H21_4 H 0.007066 0.776375 0.913936
C36_4 C 0.03834(7) 0.80214(14) 0.87696(10)
C37_4 C 0.06144(5) 0.86343(12) 0.92170(12)
H22_4 H 0.045617 0.878670 0.988609
H27_4 H 0.036515 0.782961 0.848971
C40_4 C 0.05871(6) 0.83476(14) 0.87987(11)
H28_4 H 0.075066 0.885255 0.923643
C43_4 C 0.07791(6) 0.83713(16) 0.84213(10)
C48_4 C 0.06842(5) 0.85025(17) 0.79576(12)
C49_4 C 0.10423(6) 0.82703(16) 0.84820(10)
H31_4 H 0.050817 0.857005 0.791696
C56_4 C 0.08525(6) 0.85327(18) 0.75546(10)
C57_4 C 0.12105(5) 0.83005(17) 0.80790(12)
C58_4 C 0.11677(12) 0.8126(3) 0.8939(2)
C63_4 C 0.11157(6) 0.84317(17) 0.76153(10)
C64_4 C 0.07386(13) 0.8697(4) 0.7088(2)
H40_4 H 0.138660 0.823294 0.811962
H41_4 H 0.122305 0.840423 0.911829
H42_4 H 0.131624 0.793019 0.886343
H43_4 H 0.104707 0.794651 0.913763
C67_4 C 0.13091(5) 0.84517(16) 0.72360(10)
H50_4 H 0.062781 0.845131 0.695497
H51_4 H 0.087513 0.876552 0.685470
H52_4 H 0.063814 0.898049 0.714596
C72_4 C 0.12568(5) 0.82148(14) 0.67934(11)
C73_4 C 0.15468(6) 0.86809(15) 0.73026(10)
H57_4 H 0.109776 0.806150 0.674889
C78_4 C 0.14421(6) 0.82072(13) 0.64174(9)
C79_4 C 0.17321(5) 0.86732(15) 0.69266(12)
H58_4 H 0.158175 0.883931 0.759876
H63_4 H 0.140714 0.804878 0.612129
C82_4 C 0.16798(5) 0.84364(14) 0.64840(10)
H64_4 H 0.189112 0.882659 0.697115
C85_4 C 0.18845(7) 0.8442(2) 0.60869(18)
O1_4 O 0.81974(5) 0.25340(11) 0.01749(10)
O2_4 O 0.77340(7) 0.37649(16) 0.03581(13)
O5_4 O 0.77358(6) 0.28598(15) 0.05591(15)
C1_4 C 0.81317(7) 0.21045(16) 0.02420(18)
Zr5_4 Zr 0.750000 0.23030(2) 0.02846(2)
O9_4 O 0.79038(6) 0.19449(13) 0.02904(16)
C2_4 C 0.83510(4) 0.17092(10) 0.02851(15)
O10_4 O 0.750000 0.4168(2) 0.1191(2)
O11_4 O 0.750000 0.2932(2) 0.15066(17)
O14_4 O 0.750000 0.4723(2) 0.0317(3)
O19_4 O 0.750000 0.1892(2) 0.0881(2)
C3_4 C 0.82918(4) 0.12331(11) 0.03811(18)
C4_4 C 0.86078(5) 0.18456(9) 0.02028(14)
H1_4 H 0.812006 0.114188 0.043620
C5_4 C 0.84893(6) 0.08934(9) 0.03947(19)
C6_4 C 0.88052(4) 0.15059(12) 0.02164(15)
H2_4 H 0.864740 0.216418 0.013858
H3_4 H 0.844967 0.057487 0.045888
C7_4 C 0.87460(5) 0.10298(11) 0.03123(17)
H4_4 H 0.897701 0.159716 0.016126
C8_4 C 0.89710(7) 0.06410(14) 0.01983(17)
C10_4 C 0.91676(7) 0.06323(13) 0.05528(15)
C13_4 C 0.93536(7) 0.02712(14) 0.05441(14)
H5_4 H 0.917474 0.086813 0.079592
C15_4 C 0.95863(13) 0.0295(3) 0.0845(3)
H10_4 H 0.959645 0.001564 0.105206
H11_4 H 0.958032 0.057543 0.105028
H12_4 H 0.973664 0.030871 0.063405
O21_4 O 0.72660(7) 0.37649(16) 0.03581(13)
O22_4 O 0.72642(6) 0.28598(15) 0.05591(15)
O28_4 O 0.70962(6) 0.19449(13) 0.02904(16)
C86_4 C 0.68683(7) 0.21045(16) 0.02420(18)
O29_4 O 0.68026(5) 0.25340(11) 0.01749(10)
C87_4 C 0.66490(4) 0.17092(10) 0.02851(15)
C88_4 C 0.67082(4) 0.12331(11) 0.03811(18)
C89_4 C 0.63922(5) 0.18456(9) 0.02028(14)
H65_4 H 0.687994 0.114188 0.043620
C90_4 C 0.65107(6) 0.08934(9) 0.03947(19)
C91_4 C 0.61948(4) 0.15059(12) 0.02164(15)
H66_4 H 0.635260 0.216418 0.013858
H67_4 H 0.655033 0.057487 0.045888
C92_4 C 0.62540(5) 0.10298(11) 0.03123(17)
H68_4 H 0.602299 0.159716 0.016126
C93_4 C 0.60290(7) 0.06410(14) 0.01983(17)
C95_4 C 0.58324(7) 0.06323(13) 0.05528(15)
C98_4 C 0.56464(7) 0.02712(14) 0.05441(14)
H69_4 H 0.582526 0.086813 0.079592
C100_4 C 0.54137(13) 0.0295(3) 0.0845(3)
H74_4 H 0.540355 0.001564 0.105206
H75_4 H 0.541968 0.057543 0.105028
H76_4 H 0.526336 0.030871 0.063405
O3_4 O 0.77303(6) 0.35615(13) 0.94844(14)
O4_4 O 0.77317(6) 0.26699(15) 0.96989(13)
O8_2 O 0.81930(5) 0.38885(11) 0.98520(13)
Zr3_2 Zr 0.750000 0.41079(2) 0.98652(2)
O13_4 O 0.750000 0.4465(2) 0.9103(2)
O15_2 O 0.78985(6) 0.44800(13) 0.97159(17)
O16_4 O 0.750000 0.2249(2) 0.88030(19)
O17_4 O 0.750000 0.3486(2) 0.8510(2)
O20_4 O 0.750000 0.1608(2) 0.9765(2)
C9_4 C 0.89603(8) 0.02886(17) 0.98349(16)
C12_4 C 0.8774(2) 0.0311(4) 0.9426(4)
H7_4 H 0.872840 0.063886 0.936457
H8_4 H 0.862101 0.013353 0.951142
H9_4 H 0.885177 0.017712 0.913303
O24_4 O 0.72697(6) 0.35615(13) 0.94844(14)
O25_2 O 0.71015(6) 0.44800(13) 0.97159(17)
O26_4 O 0.72683(6) 0.26699(15) 0.96989(13)
O32_2 O 0.68070(5) 0.38885(11) 0.98520(13)
C94_4 C 0.60397(8) 0.02886(17) 0.98349(16)
C97_4 C 0.6226(2) 0.0311(4) 0.9426(4)
H71_4 H 0.627160 0.063886 0.936457
H72_4 H 0.637899 0.013353 0.951142
H73_4 H 0.614823 0.017712 0.913303
C14_4 C 0.93429(7) 0.99188(13) 0.01807(16)
C16_4 C 0.95373(6) 0.94643(10) 0.01495(14)
C17_4 C 0.94979(5) 0.90531(13) 0.04295(12)
H13_4 H 0.935907 0.903664 0.065062
C19_4 C 0.96660(6) 0.86665(10) 0.03789(12)
H15_4 H 0.963961 0.839141 0.056628
C21_4 C 0.98734(5) 0.86911(9) 0.00484(12)
C29_4 C 0.98985(6) 0.73180(12) 0.02273(13)
C35_4 C 0.97243(8) 0.69426(11) 0.01630(17)
H26_4 H 0.974552 0.666081 0.034177
C47_4 C 0.91057(16) 0.6561(3) 0.0076(4)
H30_4 H 0.908285 0.682058 0.028775
C55_4 C 0.89192(16) 0.6197(4) 0.0095(4)
C62_4 C 0.8716(2) 0.6238(5) 0.0511(5)
H47_4 H 0.854593 0.616938 0.037932
H48_4 H 0.871766 0.655692 0.064328
H49_4 H 0.875603 0.601428 0.076971
C99_4 C 0.56571(7) 0.99188(13) 0.01807(16)
C101_4 C 0.54627(6) 0.94643(10) 0.01495(14)
C102_4 C 0.55021(5) 0.90531(13) 0.04295(12)
H77_4 H 0.564093 0.903664 0.065062
C104_4 C 0.53340(6) 0.86665(10) 0.03789(12)
H79_4 H 0.536039 0.839141 0.056628
C106_4 C 0.51266(5) 0.86911(9) 0.00484(12)
C107_4 C 0.49474(6) 0.82135(16) 0.00155(15)
C108_4 C 0.47662(5) 0.81431(11) 0.04507(9)
C111_4 C 0.45599(6) 0.78224(11) 0.04209(9)
C112_4 C 0.48033(6) 0.84108(12) 0.08797(11)
C114_4 C 0.51015(6) 0.73180(12) 0.02273(13)
H81_4 H 0.453510 0.764332 0.013387
C117_4 C 0.43909(5) 0.77694(12) 0.08201(11)
C118_4 C 0.46342(7) 0.83578(13) 0.12789(9)
H82_4 H 0.494128 0.862542 0.089966
C120_4 C 0.52757(8) 0.69426(11) 0.01630(17)
H84_4 H 0.496366 0.728728 0.044898
H87_4 H 0.425288 0.755478 0.080018
C123_4 C 0.44280(6) 0.80371(13) 0.12491(10)
H88_4 H 0.465905 0.853687 0.156597
H90_4 H 0.525448 0.666081 0.034177
C126_4 C 0.42317(5) 0.79681(16) 0.16248(10)
C129_4 C 0.39802(6) 0.81252(16) 0.15255(9)
C130_4 C 0.42958(5) 0.78036(16) 0.20962(12)
C132_4 C 0.58943(16) 0.6561(3) 0.0076(4)
H93_4 H 0.393736 0.823519 0.121011
C135_4 C 0.37927(5) 0.81179(18) 0.18977(12)
C136_4 C 0.41083(6) 0.77963(16) 0.24684(9)
C137_4 C 0.45787(10) 0.7609(3) 0.2218(2)
H94_4 H 0.591715 0.682058 0.028775
C140_4 C 0.60808(16) 0.6197(4) 0.0095(4)
C144_4 C 0.38568(5) 0.79534(18) 0.23692(10)
C145_4 C 0.35248(10) 0.8276(3) 0.1740(2)
H96_4 H 0.415112 0.768633 0.278384
H97_4 H 0.467890 0.759169 0.191787
H98_4 H 0.466275 0.782057 0.244826
H99_4 H 0.456560 0.729561 0.236238
C147_4 C 0.6284(2) 0.6238(5) 0.0511(5)
C150_4 C 0.36660(5) 0.79499(16) 0.27518(10)
H108_4 H 0.345971 0.850814 0.197222
H109_4 H 0.353366 0.841680 0.141557
H110_4 H 0.341013 0.800529 0.173299
H111_4 H 0.645407 0.616938 0.037932
H112_4 H 0.628234 0.655692 0.064328
H113_4 H 0.624397 0.601428 0.076971
C153_4 C 0.34229(6) 0.77384(15) 0.26947(9)
C154_4 C 0.37317(5) 0.81677(15) 0.31984(12)
H117_4 H 0.337895 0.759271 0.239584
C159_4 C 0.32454(5) 0.77448(14) 0.30842(11)
C160_4 C 0.35542(5) 0.81741(14) 0.35880(10)
H118_4 H 0.389439 0.830913 0.323663
H123_4 H 0.308266 0.760338 0.304602
C165_4 C 0.33110(5) 0.79626(14) 0.35309(9)
H124_4 H 0.359810 0.831978 0.388681
C168_4 C 0.31261(6) 0.79836(16) 0.39319(15)
C11_4 C 0.91463(9) 0.99275(15) 0.98262(15)
H6_4 H 0.913912 0.969173 0.958307
C18_4 C 0.97447(6) 0.94889(10) 0.98189(14)
C20_4 C 0.99128(5) 0.91023(11) 0.97684(12)
H14_4 H 0.977108 0.976405 0.963160
C24_4 C 0.98667(5) 0.77392(10) 0.99601(12)
C28_4 C 0.96607(6) 0.77851(11) 0.96287(12)
H19_4 H 0.963944 0.806694 0.945001
C34_4 C 0.94865(6) 0.74098(14) 0.95645(14)
H25_4 H 0.934862 0.744046 0.934281
C39_4 C 0.95182(7) 0.69885(12) 0.98317(17)
C42_4 C 0.93190(14) 0.6567(3) 0.9772(3)
C46_4 C 0.93072(18) 0.6223(3) 0.9463(4)
C53_4 C 0.91358(17) 0.5849(4) 0.9370(4)
C54_4 C 0.9528(2) 0.6185(5) 0.9060(5)
C61_4 C 0.89431(17) 0.5833(3) 0.9737(4)
H36_4 H 0.914739 0.563981 0.910299
H37_4 H 0.945658 0.625825 0.873883
H38_4 H 0.959660 0.586558 0.905710
H39_4 H 0.966434 0.640681 0.913644
C66_4 C 0.87231(7) 0.54100(14) 0.9697(3)
C70_4 C 0.87855(5) 0.49315(15) 0.9771(2)
C71_4 C 0.84648(8) 0.55457(11) 0.9634(3)
C76_4 C 0.85895(6) 0.45887(11) 0.9781(2)
H55_4 H 0.895828 0.484069 0.981317
H56_4 H 0.842315 0.586582 0.958465
C77_4 C 0.82689(6) 0.52029(13) 0.9644(2)
C81_4 C 0.83312(6) 0.47244(12) 0.9717(2)
H61_4 H 0.863118 0.426859 0.982999
H62_4 H 0.809605 0.529373 0.960147
C84_4 C 0.81223(8) 0.43164(18) 0.9752(2)
C96_4 C 0.58537(9) 0.99275(15) 0.98262(15)
H70_4 H 0.586088 0.969173 0.958307
C103_4 C 0.52553(6) 0.94889(10) 0.98189(14)
C105_4 C 0.50872(5) 0.91023(11) 0.97684(12)
H78_4 H 0.522892 0.976405 0.963160
H80_4 H 0.494839 0.911881 0.954726
C109_4 C 0.51333(5) 0.77392(10) 0.99601(12)
C110_4 C 0.47658(5) 0.82687(11) 0.95771(9)
C113_4 C 0.53393(6) 0.77851(11) 0.96287(12)
C115_4 C 0.47930(6) 0.79820(12) 0.91588(11)
C116_4 C 0.45621(5) 0.85949(11) 0.96062(10)
H83_4 H 0.536056 0.806694 0.945001
C119_4 C 0.55135(6) 0.74098(14) 0.95645(14)
H85_4 H 0.492934 0.776375 0.913936
C121_4 C 0.46166(7) 0.80214(14) 0.87696(10)
C122_4 C 0.43856(5) 0.86343(12) 0.92170(12)
H86_4 H 0.454383 0.878670 0.988609
H89_4 H 0.565138 0.744046 0.934281
C124_4 C 0.54818(7) 0.69885(12) 0.98317(17)
H91_4 H 0.463485 0.782961 0.848971
C125_4 C 0.44129(6) 0.83476(14) 0.87987(11)
H92_4 H 0.424934 0.885255 0.923643
C127_4 C 0.56810(14) 0.6567(3) 0.9772(3)
C128_4 C 0.42209(6) 0.83713(16) 0.84213(10)
C131_4 C 0.56928(18) 0.6223(3) 0.9463(4)
C133_4 C 0.43158(5) 0.85025(17) 0.79576(12)
C134_4 C 0.39577(6) 0.82703(16) 0.84820(10)
C138_4 C 0.58642(17) 0.5849(4) 0.9370(4)
C139_4 C 0.5472(2) 0.6185(5) 0.9060(5)
H95_4 H 0.449183 0.857005 0.791696
C141_4 C 0.41475(6) 0.85327(18) 0.75546(10)
C142_4 C 0.37895(5) 0.83005(17) 0.80790(12)
C143_4 C 0.38323(12) 0.8126(3) 0.8939(2)
C146_4 C 0.60569(17) 0.5833(3) 0.9737(4)
H100_4 H 0.585261 0.563981 0.910299
H101_4 H 0.554342 0.625825 0.873883
H102_4 H 0.540340 0.586558 0.905710
H103_4 H 0.533566 0.640681 0.913644
C148_4 C 0.38843(6) 0.84317(17) 0.76153(10)
C149_4 C 0.42614(13) 0.8697(4) 0.7088(2)
H104_4 H 0.361340 0.823294 0.811962
H105_4 H 0.377695 0.840423 0.911829
H106_4 H 0.368376 0.793019 0.886343
H107_4 H 0.395293 0.794651 0.913763
C151_4 C 0.62769(7) 0.54100(14) 0.9697(3)
C152_4 C 0.36909(5) 0.84517(16) 0.72360(10)
H114_4 H 0.437219 0.845131 0.695497
H115_4 H 0.412487 0.876552 0.685470
H116_4 H 0.436186 0.898049 0.714596
C155_4 C 0.62145(5) 0.49315(15) 0.9771(2)
C156_4 C 0.65352(8) 0.55457(11) 0.9634(3)
C157_4 C 0.37432(5) 0.82148(14) 0.67934(11)
C158_4 C 0.34532(6) 0.86809(15) 0.73026(10)
C161_4 C 0.64105(6) 0.45887(11) 0.9781(2)
H119_4 H 0.604172 0.484069 0.981317
H120_4 H 0.657685 0.586582 0.958465
C162_4 C 0.67311(6) 0.52029(13) 0.9644(2)
H121_4 H 0.390224 0.806150 0.674889
C163_4 C 0.35579(6) 0.82072(13) 0.64174(9)
C164_4 C 0.32679(5) 0.86732(15) 0.69266(12)
H122_4 H 0.341825 0.883931 0.759876
C166_4 C 0.66688(6) 0.47244(12) 0.9717(2)
H125_4 H 0.636882 0.426859 0.982999
H126_4 H 0.690395 0.529373 0.960147
H127_4 H 0.359286 0.804878 0.612129
C167_4 C 0.33202(5) 0.84364(14) 0.64840(10)
H128_4 H 0.310888 0.882659 0.697115
C169_4 C 0.68777(8) 0.43164(18) 0.9752(2)
C170_4 C 0.31155(7) 0.8442(2) 0.60869(18)
loop_
_geom_bond_atom_site_label_1
_geom_bond_atom_site_label_2
_geom_bond_site_symmetry_1
_geom_bond_site_symmetry_2
C108 C107 1_555 1_555
C110 C107 1_555 1_555
C111 C108 1_555 1_555
C112 C108 1_555 1_555
C115 C110 1_555 1_555
C116 C110 1_555 1_555
H81 C111 1_555 1_555
C117 C111 1_555 1_555
C118 C112 1_555 1_555
H82 C112 1_555 1_555
H85 C115 1_555 1_555
C121 C115 1_555 1_555
C122 C116 1_555 1_555
H86 C116 1_555 1_555
H87 C117 1_555 1_555
C123 C117 1_555 1_555
H88 C118 1_555 1_555
H91 C121 1_555 1_555
C125 C121 1_555 1_555
H92 C122 1_555 1_555
C126 C123 1_555 1_555
C128 C125 1_555 1_555
C129 C126 1_555 1_555
C130 C126 1_555 1_555
C133 C128 1_555 1_555
C134 C128 1_555 1_555
H93 C129 1_555 1_555
C135 C129 1_555 1_555
C136 C130 1_555 1_555
C137 C130 1_555 1_555
H95 C133 1_555 1_555
C141 C133 1_555 1_555
C142 C134 1_555 1_555
C143 C134 1_555 1_555
C144 C135 1_555 1_555
C145 C135 1_555 1_555
H96 C136 1_555 1_555
H97 C137 1_555 1_555
H98 C137 1_555 1_555
H99 C137 1_555 1_555
C148 C141 1_555 1_555
C149 C141 1_555 1_555
H104 C142 1_555 1_555
H105 C143 1_555 1_555
H106 C143 1_555 1_555
H107 C143 1_555 1_555
C150 C144 1_555 1_555
H108 C145 1_555 1_555
H109 C145 1_555 1_555
H110 C145 1_555 1_555
C152 C148 1_555 1_555
H114 C149 1_555 1_555
H115 C149 1_555 1_555
H116 C149 1_555 1_555
C153 C150 1_555 1_555
C154 C150 1_555 1_555
C157 C152 1_555 1_555
C158 C152 1_555 1_555
H117 C153 1_555 1_555
C159 C153 1_555 1_555
C160 C154 1_555 1_555
H118 C154 1_555 1_555
H121 C157 1_555 1_555
C163 C157 1_555 1_555
C164 C158 1_555 1_555
H122 C158 1_555 1_555
H123 C159 1_555 1_555
C165 C159 1_555 1_555
H124 C160 1_555 1_555
H127 C163 1_555 1_555
C167 C163 1_555 1_555
H128 C164 1_555 1_555
C168 C165 1_555 1_555
C170 C167 1_555 1_555
O40 C168 1_555 1_555
O41 C168 1_555 1_555
O43 C170 1_555 1_555
O44 C170 1_555 1_555
Zr14 O41 1_555 1_555
Zr13 O43 1_555 1_555
Zr17 O44 1_555 1_555
C118 C123 1_555 1_555
C122 C125 1_555 1_555
C136 C144 1_555 1_555
C142 C148 1_555 1_555
C160 C165 1_555 1_555
C164 C167 1_555 1_555
C76 C70 1_555 1_555
H55 C70 1_555 1_555
C81 C76 1_555 1_555
H61 C76 1_555 1_555
C84 C81 1_555 1_555
C161 C155 1_555 1_555
H119 C155 1_555 1_555
O35 C84 1_555 1_555
O36 C84 1_555 1_555
C166 C161 1_555 1_555
H125 C161 1_555 1_555
Zr9 O35 1_555 1_555
Zr10 O36 1_555 1_555
C169 C166 1_555 1_555
O39 Zr10 1_555 1_555
O42 C169 1_555 1_555
Zr15 O42 1_555 1_555
C169 O39 1_555 1_555
Zr9 O1 1_555 1_555
O1 C1 1_555 1_555
O2 Zr9 1_555 1_555
O3 Zr9 1_555 1_555
O4 Zr9 1_555 1_555
O5 Zr9 1_555 1_555
O6 Zr9 1_555 1_555
O7 Zr9 1_555 1_555
C1 O9 1_555 1_555
Zr2 O2 1_555 1_555
Zr10 O2 1_555 1_555
Zr4 O3 1_555 1_555
Zr5 O4 1_555 1_555
O9 Zr5 1_555 1_555
C2 C1 1_555 1_555
O10 Zr2 1_555 1_555
O11 Zr2 1_555 1_555
O12 Zr2 1_555 1_555
O13 Zr10 1_555 1_555
O14 Zr10 1_555 1_555
O16 Zr4 1_555 1_555
O17 Zr4 1_555 1_555
O18 Zr4 1_555 1_555
O19 Zr5 1_555 1_555
O20 Zr5 1_555 1_555
C3 C2 1_555 1_555
C4 C2 1_555 1_555
H1 C3 1_555 1_555
C5 C3 1_555 1_555
C6 C4 1_555 1_555
H2 C4 1_555 1_555
H3 C5 1_555 1_555
C7 C5 1_555 1_555
H4 C6 1_555 1_555
C8 C7 1_555 1_555
C9 C8 1_555 1_555
C10 C8 1_555 1_555
C11 C9 1_555 1_555
C12 C9 1_555 1_555
C13 C10 1_555 1_555
H5 C10 1_555 1_555
H6 C11 1_555 1_555
C14 C11 1_555 1_555
H7 C12 1_555 1_555
H8 C12 1_555 1_555
H9 C12 1_555 1_555
C15 C13 1_555 1_555
C16 C14 1_555 1_555
H10 C15 1_555 1_555
H11 C15 1_555 1_555
H12 C15 1_555 1_555
C17 C16 1_555 1_555
C18 C16 1_555 1_555
H13 C17 1_555 1_555
C19 C17 1_555 1_555
C20 C18 1_555 1_555
H14 C18 1_555 1_555
H15 C19 1_555 1_555
C21 C19 1_555 1_555
H16 C20 1_555 1_555
C22 C21 1_555 1_555
C23 C22 1_555 1_555
C24 C22 1_555 1_555
C25 C22 1_555 1_555
C26 C23 1_555 1_555
C27 C23 1_555 1_555
C28 C24 1_555 1_555
C29 C24 1_555 1_555
C30 C25 1_555 1_555
C31 C25 1_555 1_555
H17 C26 1_555 1_555
C32 C26 1_555 1_555
C33 C27 1_555 1_555
H18 C27 1_555 1_555
H19 C28 1_555 1_555
C34 C28 1_555 1_555
C35 C29 1_555 1_555
H20 C29 1_555 1_555
H21 C30 1_555 1_555
C36 C30 1_555 1_555
C37 C31 1_555 1_555
H22 C31 1_555 1_555
H23 C32 1_555 1_555
C38 C32 1_555 1_555
H24 C33 1_555 1_555
H25 C34 1_555 1_555
C39 C34 1_555 1_555
H26 C35 1_555 1_555
H27 C36 1_555 1_555
C40 C36 1_555 1_555
H28 C37 1_555 1_555
C41 C38 1_555 1_555
C42 C39 1_555 1_555
C43 C40 1_555 1_555
C44 C41 1_555 1_555
C45 C41 1_555 1_555
C46 C42 1_555 1_555
C47 C42 1_555 1_555
C48 C43 1_555 1_555
C49 C43 1_555 1_555
H29 C44 1_555 1_555
C50 C44 1_555 1_555
C51 C45 1_555 1_555
C52 C45 1_555 1_555
C53 C46 1_555 1_555
C54 C46 1_555 1_555
H30 C47 1_555 1_555
C55 C47 1_555 1_555
H31 C48 1_555 1_555
C56 C48 1_555 1_555
C57 C49 1_555 1_555
C58 C49 1_555 1_555
C59 C50 1_555 1_555
C60 C50 1_555 1_555
H32 C51 1_555 1_555
H33 C52 1_555 1_555
H34 C52 1_555 1_555
H35 C52 1_555 1_555
C61 C53 1_555 1_555
H36 C53 1_555 1_555
H37 C54 1_555 1_555
H38 C54 1_555 1_555
H39 C54 1_555 1_555
C62 C55 1_555 1_555
C63 C56 1_555 1_555
C64 C56 1_555 1_555
H40 C57 1_555 1_555
H41 C58 1_555 1_555
H42 C58 1_555 1_555
H43 C58 1_555 1_555
C65 C59 1_555 1_555
H44 C60 1_555 1_555
H45 C60 1_555 1_555
H46 C60 1_555 1_555
C66 C61 1_555 1_555
H47 C62 1_555 1_555
H48 C62 1_555 1_555
H49 C62 1_555 1_555
C67 C63 1_555 1_555
H50 C64 1_555 1_555
H51 C64 1_555 1_555
H52 C64 1_555 1_555
C68 C65 1_555 1_555
C69 C65 1_555 1_555
C71 C66 1_555 1_555
C72 C67 1_555 1_555
C73 C67 1_555 1_555
H53 C68 1_555 1_555
C74 C68 1_555 1_555
C75 C69 1_555 1_555
H54 C69 1_555 1_555
H56 C71 1_555 1_555
C77 C71 1_555 1_555
H57 C72 1_555 1_555
C78 C72 1_555 1_555
C79 C73 1_555 1_555
H58 C73 1_555 1_555
H59 C74 1_555 1_555
C80 C74 1_555 1_555
H60 C75 1_555 1_555
H62 C77 1_555 1_555
H63 C78 1_555 1_555
C82 C78 1_555 1_555
H64 C79 1_555 1_555
C83 C80 1_555 1_555
C85 C82 1_555 1_555
O21 Zr2 1_555 1_555
O22 Zr2 1_555 1_555
O23 Zr2 1_555 1_555
O24 Zr10 1_555 1_555
O26 Zr4 1_555 1_555
O27 Zr4 1_555 1_555
O28 Zr5 1_555 1_555
Zr15 O21 1_555 1_555
C86 O28 1_555 1_555
O29 Zr15 1_555 1_555
O30 Zr15 1_555 1_555
O31 Zr15 1_555 1_555
C87 C86 1_555 1_555
C88 C87 1_555 1_555
C89 C87 1_555 1_555
H65 C88 1_555 1_555
C90 C88 1_555 1_555
C91 C89 1_555 1_555
H66 C89 1_555 1_555
H67 C90 1_555 1_555
C92 C90 1_555 1_555
H68 C91 1_555 1_555
C93 C92 1_555 1_555
C94 C93 1_555 1_555
C95 C93 1_555 1_555
C96 C94 1_555 1_555
C97 C94 1_555 1_555
C98 C95 1_555 1_555
H69 C95 1_555 1_555
H70 C96 1_555 1_555
C99 C96 1_555 1_555
H71 C97 1_555 1_555
H72 C97 1_555 1_555
H73 C97 1_555 1_555
C100 C98 1_555 1_555
C101 C99 1_555 1_555
H74 C100 1_555 1_555
H75 C100 1_555 1_555
H76 C100 1_555 1_555
C102 C101 1_555 1_555
C103 C101 1_555 1_555
H77 C102 1_555 1_555
C104 C102 1_555 1_555
C105 C103 1_555 1_555
H78 C103 1_555 1_555
H79 C104 1_555 1_555
C106 C104 1_555 1_555
C113 C109 1_555 1_555
C114 C109 1_555 1_555
H83 C113 1_555 1_555
C119 C113 1_555 1_555
C120 C114 1_555 1_555
H89 C119 1_555 1_555
C124 C119 1_555 1_555
H90 C120 1_555 1_555
C127 C124 1_555 1_555
C131 C127 1_555 1_555
C132 C127 1_555 1_555
C138 C131 1_555 1_555
C139 C131 1_555 1_555
H94 C132 1_555 1_555
C140 C132 1_555 1_555
C146 C138 1_555 1_555
H100 C138 1_555 1_555
H101 C139 1_555 1_555
H102 C139 1_555 1_555
H103 C139 1_555 1_555
C147 C140 1_555 1_555
C151 C146 1_555 1_555
H111 C147 1_555 1_555
H112 C147 1_555 1_555
H113 C147 1_555 1_555
C156 C151 1_555 1_555
H120 C156 1_555 1_555
C162 C156 1_555 1_555
O33 C83 1_555 1_555
O34 C83 1_555 1_555
O37 C85 1_555 1_555
O38 C85 1_555 1_555
H126 C162 1_555 1_555
Zr14 O34 1_555 1_555
Zr7 O37 1_555 1_555
Zr17 O38 1_555 1_555
O3 Zr10 1_555 1_555
O4 Zr4 1_555 1_555
O5 Zr2 1_555 1_555
O5 Zr5 1_555 1_555
Zr10 O21 1_555 1_555
Zr4 O24 1_555 1_555
Zr5 O22 1_555 1_555
Zr5 O26 1_555 1_555
C6 C7 1_555 1_555
C13 C14 1_555 1_555
C20 C21 1_555 1_555
C33 C38 1_555 1_555
C35 C39 1_555 1_555
C37 C40 1_555 1_555
C51 C59 1_555 1_555
C55 C61 1_555 1_555
C57 C63 1_555 1_555
C75 C80 1_555 1_555
C79 C82 1_555 1_555
O22 Zr15 1_555 1_555
O24 Zr15 1_555 1_555
O26 Zr15 1_555 1_555
C86 O29 1_555 1_555
C91 C92 1_555 1_555
C98 C99 1_555 1_555
C105 C106 1_555 1_555
C120 C124 1_555 1_555
C140 C146 1_555 1_555
C16_2 C14_2 1_555 1_555
C17_2 C16_2 1_555 1_555
H13_2 C17_2 1_555 1_555
C19_2 C17_2 1_555 1_555
H15_2 C19_2 1_555 1_555
C21_2 C19_2 1_555 1_555
C35_2 C29_2 1_555 1_555
H26_2 C35_2 1_555 1_555
H30_2 C47_2 1_555 1_555
C55_2 C47_2 1_555 1_555
C62_2 C55_2 1_555 1_555
H47_2 C62_2 1_555 1_555
H48_2 C62_2 1_555 1_555
H49_2 C62_2 1_555 1_555
C101_2 C99_2 1_555 1_555
C102_2 C101_2 1_555 1_555
H77_2 C102_2 1_555 1_555
C104_2 C102_2 1_555 1_555
H79_2 C104_2 1_555 1_555
C106_2 C104_2 1_555 1_555
C107_2 C106_2 1_555 1_555
C108_2 C107_2 1_555 1_555
C111_2 C108_2 1_555 1_555
C112_2 C108_2 1_555 1_555
H81_2 C111_2 1_555 1_555
C117_2 C111_2 1_555 1_555
C118_2 C112_2 1_555 1_555
H82_2 C112_2 1_555 1_555
C120_2 C114_2 1_555 1_555
H84_2 C114_2 1_555 1_555
H87_2 C117_2 1_555 1_555
C123_2 C117_2 1_555 1_555
H88_2 C118_2 1_555 1_555
H90_2 C120_2 1_555 1_555
C126_2 C123_2 1_555 1_555
C129_2 C126_2 1_555 1_555
C130_2 C126_2 1_555 1_555
H93_2 C129_2 1_555 1_555
C135_2 C129_2 1_555 1_555
C136_2 C130_2 1_555 1_555
C137_2 C130_2 1_555 1_555
H94_2 C132_2 1_555 1_555
C140_2 C132_2 1_555 1_555
C144_2 C135_2 1_555 1_555
C145_2 C135_2 1_555 1_555
H96_2 C136_2 1_555 1_555
H97_2 C137_2 1_555 1_555
H98_2 C137_2 1_555 1_555
H99_2 C137_2 1_555 1_555
C147_2 C140_2 1_555 1_555
C150_2 C144_2 1_555 1_555
H108_2 C145_2 1_555 1_555
H109_2 C145_2 1_555 1_555
H110_2 C145_2 1_555 1_555
H111_2 C147_2 1_555 1_555
H112_2 C147_2 1_555 1_555
H113_2 C147_2 1_555 1_555
C153_2 C150_2 1_555 1_555
C154_2 C150_2 1_555 1_555
H117_2 C153_2 1_555 1_555
C159_2 C153_2 1_555 1_555
C160_2 C154_2 1_555 1_555
H118_2 C154_2 1_555 1_555
H123_2 C159_2 1_555 1_555
C165_2 C159_2 1_555 1_555
H124_2 C160_2 1_555 1_555
C168_2 C165_2 1_555 1_555
O7 C168_2 1_555 1_555
O27 C168_2 1_555 1_555
C118_2 C123_2 1_555 1_555
C136_2 C144_2 1_555 1_555
C160_2 C165_2 1_555 1_555
H6_2 C11_2 1_555 1_555
C20_2 C18_2 1_555 1_555
H14_2 C18_2 1_555 1_555
C28_2 C24_2 1_555 1_555
H19_2 C28_2 1_555 1_555
C34_2 C28_2 1_555 1_555
H25_2 C34_2 1_555 1_555
C39_2 C34_2 1_555 1_555
C42_2 C39_2 1_555 1_555
C46_2 C42_2 1_555 1_555
C53_2 C46_2 1_555 1_555
C54_2 C46_2 1_555 1_555
C61_2 C53_2 1_555 1_555
H36_2 C53_2 1_555 1_555
H37_2 C54_2 1_555 1_555
H38_2 C54_2 1_555 1_555
H39_2 C54_2 1_555 1_555
C66_2 C61_2 1_555 1_555
C70_2 C66_2 1_555 1_555
C71_2 C66_2 1_555 1_555
C76_2 C70_2 1_555 1_555
H55_2 C70_2 1_555 1_555
H56_2 C71_2 1_555 1_555
C77_2 C71_2 1_555 1_555
C81_2 C76_2 1_555 1_555
H61_2 C76_2 1_555 1_555
H62_2 C77_2 1_555 1_555
C84_2 C81_2 1_555 1_555
H70_2 C96_2 1_555 1_555
C105_2 C103_2 1_555 1_555
H78_2 C103_2 1_555 1_555
H80_2 C105_2 1_555 1_555
C113_2 C109_2 1_555 1_555
C115_2 C110_2 1_555 1_555
C116_2 C110_2 1_555 1_555
H83_2 C113_2 1_555 1_555
C119_2 C113_2 1_555 1_555
H85_2 C115_2 1_555 1_555
C121_2 C115_2 1_555 1_555
C122_2 C116_2 1_555 1_555
H86_2 C116_2 1_555 1_555
H89_2 C119_2 1_555 1_555
C124_2 C119_2 1_555 1_555
H91_2 C121_2 1_555 1_555
C125_2 C121_2 1_555 1_555
H92_2 C122_2 1_555 1_555
C127_2 C124_2 1_555 1_555
C128_2 C125_2 1_555 1_555
C131_2 C127_2 1_555 1_555
C133_2 C128_2 1_555 1_555
C134_2 C128_2 1_555 1_555
C138_2 C131_2 1_555 1_555
C139_2 C131_2 1_555 1_555
H95_2 C133_2 1_555 1_555
C141_2 C133_2 1_555 1_555
C142_2 C134_2 1_555 1_555
C143_2 C134_2 1_555 1_555
C146_2 C138_2 1_555 1_555
H100_2 C138_2 1_555 1_555
H101_2 C139_2 1_555 1_555
H102_2 C139_2 1_555 1_555
H103_2 C139_2 1_555 1_555
C148_2 C141_2 1_555 1_555
C149_2 C141_2 1_555 1_555
H104_2 C142_2 1_555 1_555
H105_2 C143_2 1_555 1_555
H106_2 C143_2 1_555 1_555
H107_2 C143_2 1_555 1_555
C151_2 C146_2 1_555 1_555
C152_2 C148_2 1_555 1_555
H114_2 C149_2 1_555 1_555
H115_2 C149_2 1_555 1_555
H116_2 C149_2 1_555 1_555
C155_2 C151_2 1_555 1_555
C156_2 C151_2 1_555 1_555
C157_2 C152_2 1_555 1_555
C158_2 C152_2 1_555 1_555
C161_2 C155_2 1_555 1_555
H119_2 C155_2 1_555 1_555
H120_2 C156_2 1_555 1_555
C162_2 C156_2 1_555 1_555
H121_2 C157_2 1_555 1_555
C163_2 C157_2 1_555 1_555
C164_2 C158_2 1_555 1_555
H122_2 C158_2 1_555 1_555
O35_2 C84_2 1_555 1_555
O36_2 C84_2 1_555 1_555
C166_2 C161_2 1_555 1_555
H125_2 C161_2 1_555 1_555
H126_2 C162_2 1_555 1_555
H127_2 C163_2 1_555 1_555
C167_2 C163_2 1_555 1_555
H128_2 C164_2 1_555 1_555
Zr10_2 O36_2 1_555 1_555
C169_2 C166_2 1_555 1_555
C170_2 C167_2 1_555 1_555
O39_2 Zr10_2 1_555 1_555
O42_2 C169_2 1_555 1_555
O6 C170_2 1_555 1_555
O23 C170_2 1_555 1_555
C77_2 C81_2 1_555 1_555
C122_2 C125_2 1_555 1_555
C142_2 C148_2 1_555 1_555
C162_2 C166_2 1_555 1_555
C164_2 C167_2 1_555 1_555
C169_2 O39_2 1_555 1_555
Zr13 O1_2 1_555 1_555
O1_2 C1_2 1_555 1_555
O2_2 Zr13 1_555 1_555
O5_2 Zr13 1_555 1_555
C1_2 O9_2 1_555 1_555
Zr17 O2_2 1_555 1_555
O9_2 Zr5_2 1_555 1_555
C2_2 C1_2 1_555 1_555
O10_2 Zr17 1_555 1_555
O11_2 Zr17 1_555 1_555
O19_2 Zr5_2 1_555 1_555
C3_2 C2_2 1_555 1_555
C4_2 C2_2 1_555 1_555
H1_2 C3_2 1_555 1_555
C5_2 C3_2 1_555 1_555
C6_2 C4_2 1_555 1_555
H2_2 C4_2 1_555 1_555
H3_2 C5_2 1_555 1_555
C7_2 C5_2 1_555 1_555
H4_2 C6_2 1_555 1_555
C8_2 C7_2 1_555 1_555
C10_2 C8_2 1_555 1_555
C13_2 C10_2 1_555 1_555
H5_2 C10_2 1_555 1_555
C15_2 C13_2 1_555 1_555
H10_2 C15_2 1_555 1_555
H11_2 C15_2 1_555 1_555
H12_2 C15_2 1_555 1_555
O21_2 Zr17 1_555 1_555
O22_2 Zr17 1_555 1_555
O28_2 Zr5_2 1_555 1_555
Zr7 O21_2 1_555 1_555
C86_2 O28_2 1_555 1_555
O29_2 Zr7 1_555 1_555
C87_2 C86_2 1_555 1_555
C88_2 C87_2 1_555 1_555
C89_2 C87_2 1_555 1_555
H65_2 C88_2 1_555 1_555
C90_2 C88_2 1_555 1_555
C91_2 C89_2 1_555 1_555
H66_2 C89_2 1_555 1_555
H67_2 C90_2 1_555 1_555
C92_2 C90_2 1_555 1_555
H68_2 C91_2 1_555 1_555
C93_2 C92_2 1_555 1_555
C95_2 C93_2 1_555 1_555
C98_2 C95_2 1_555 1_555
H69_2 C95_2 1_555 1_555
C100_2 C98_2 1_555 1_555
H74_2 C100_2 1_555 1_555
H75_2 C100_2 1_555 1_555
H76_2 C100_2 1_555 1_555
O5_2 Zr17 1_555 1_555
O5_2 Zr5_2 1_555 1_555
Zr5_2 O22_2 1_555 1_555
C6_2 C7_2 1_555 1_555
O22_2 Zr7 1_555 1_555
C86_2 O29_2 1_555 1_555
C91_2 C92_2 1_555 1_555
Zr14 O3_2 1_555 1_555
O13_2 Zr10_2 1_555 1_555
O16_2 Zr14 1_555 1_555
O17_2 Zr14 1_555 1_555
C12_2 C9_2 1_555 1_555
H7_2 C12_2 1_555 1_555
H8_2 C12_2 1_555 1_555
H9_2 C12_2 1_555 1_555
O24_2 Zr10_2 1_555 1_555
O26_2 Zr14 1_555 1_555
C97_2 C94_2 1_555 1_555
H71_2 C97_2 1_555 1_555
H72_2 C97_2 1_555 1_555
H73_2 C97_2 1_555 1_555
O3_2 Zr10_2 1_555 1_555
O4_2 Zr14 1_555 1_555
Zr14 O24_2 1_555 1_555
C23_2 C22_2 1_555 1_555
C26_2 C23_2 1_555 1_555
C27_2 C23_2 1_555 1_555
H17_2 C26_2 1_555 1_555
C32_2 C26_2 1_555 1_555
C33_2 C27_2 1_555 1_555
H18_2 C27_2 1_555 1_555
H23_2 C32_2 1_555 1_555
C38_2 C32_2 1_555 1_555
H24_2 C33_2 1_555 1_555
C41_2 C38_2 1_555 1_555
C44_2 C41_2 1_555 1_555
C45_2 C41_2 1_555 1_555
H29_2 C44_2 1_555 1_555
C50_2 C44_2 1_555 1_555
C51_2 C45_2 1_555 1_555
C52_2 C45_2 1_555 1_555
C59_2 C50_2 1_555 1_555
C60_2 C50_2 1_555 1_555
H32_2 C51_2 1_555 1_555
H33_2 C52_2 1_555 1_555
H34_2 C52_2 1_555 1_555
H35_2 C52_2 1_555 1_555
C65_2 C59_2 1_555 1_555
H44_2 C60_2 1_555 1_555
H45_2 C60_2 1_555 1_555
H46_2 C60_2 1_555 1_555
C68_2 C65_2 1_555 1_555
C69_2 C65_2 1_555 1_555
H53_2 C68_2 1_555 1_555
C74_2 C68_2 1_555 1_555
C75_2 C69_2 1_555 1_555
H54_2 C69_2 1_555 1_555
H59_2 C74_2 1_555 1_555
C80_2 C74_2 1_555 1_555
H60_2 C75_2 1_555 1_555
C83_2 C80_2 1_555 1_555
O31 C83_2 1_555 1_555
O18 C83_2 1_555 1_555
C33_2 C38_2 1_555 1_555
C51_2 C59_2 1_555 1_555
C75_2 C80_2 1_555 1_555
C30_2 C25_2 1_555 1_555
C31_2 C25_2 1_555 1_555
H21_2 C30_2 1_555 1_555
C36_2 C30_2 1_555 1_555
C37_2 C31_2 1_555 1_555
H22_2 C31_2 1_555 1_555
H27_2 C36_2 1_555 1_555
C40_2 C36_2 1_555 1_555
H28_2 C37_2 1_555 1_555
C43_2 C40_2 1_555 1_555
C48_2 C43_2 1_555 1_555
C49_2 C43_2 1_555 1_555
H31_2 C48_2 1_555 1_555
C56_2 C48_2 1_555 1_555
C57_2 C49_2 1_555 1_555
C58_2 C49_2 1_555 1_555
C63_2 C56_2 1_555 1_555
C64_2 C56_2 1_555 1_555
H40_2 C57_2 1_555 1_555
H41_2 C58_2 1_555 1_555
H42_2 C58_2 1_555 1_555
H43_2 C58_2 1_555 1_555
C67_2 C63_2 1_555 1_555
H50_2 C64_2 1_555 1_555
H51_2 C64_2 1_555 1_555
H52_2 C64_2 1_555 1_555
C72_2 C67_2 1_555 1_555
C73_2 C67_2 1_555 1_555
H57_2 C72_2 1_555 1_555
C78_2 C72_2 1_555 1_555
C79_2 C73_2 1_555 1_555
H58_2 C73_2 1_555 1_555
H63_2 C78_2 1_555 1_555
C82_2 C78_2 1_555 1_555
H64_2 C79_2 1_555 1_555
C85_2 C82_2 1_555 1_555
O30 C85_2 1_555 1_555
O12 C85_2 1_555 1_555
C37_2 C40_2 1_555 1_555
C57_2 C63_2 1_555 1_555
C79_2 C82_2 1_555 1_555
Zr1 O1_3 1_555 1_555
O1_3 C1_3 1_555 1_555
O2_3 Zr1 1_555 1_555
O3_3 Zr1 1_555 1_555
O4_3 Zr1 1_555 1_555
O5_3 Zr1 1_555 1_555
O6_2 Zr1 1_555 1_555
O7_2 Zr1 1_555 1_555
O8 Zr1 1_555 1_555
C1_3 O9_3 1_555 1_555
Zr2_2 O2_3 1_555 1_555
Zr3 O2_3 1_555 1_555
Zr4_2 O3_3 1_555 1_555
Zr5_3 O4_3 1_555 1_555
O9_3 Zr5_3 1_555 1_555
C2_3 C1_3 1_555 1_555
O10_3 Zr2_2 1_555 1_555
O11_3 Zr2_2 1_555 1_555
O12_2 Zr2_2 1_555 1_555
O13_3 Zr3 1_555 1_555
O14_3 Zr3 1_555 1_555
O15 Zr3 1_555 1_555
O16_3 Zr4_2 1_555 1_555
O17_3 Zr4_2 1_555 1_555
O18_2 Zr4_2 1_555 1_555
O19_3 Zr5_3 1_555 1_555
O20_3 Zr5_3 1_555 1_555
C3_3 C2_3 1_555 1_555
C4_3 C2_3 1_555 1_555
H1_3 C3_3 1_555 1_555
C5_3 C3_3 1_555 1_555
C6_3 C4_3 1_555 1_555
H2_3 C4_3 1_555 1_555
H3_3 C5_3 1_555 1_555
C7_3 C5_3 1_555 1_555
H4_3 C6_3 1_555 1_555
C8_3 C7_3 1_555 1_555
C9_3 C8_3 1_555 1_555
C10_3 C8_3 1_555 1_555
C11_3 C9_3 1_555 1_555
C12_3 C9_3 1_555 1_555
C13_3 C10_3 1_555 1_555
H5_3 C10_3 1_555 1_555
H6_3 C11_3 1_555 1_555
C14_3 C11_3 1_555 1_555
H7_3 C12_3 1_555 1_555
H8_3 C12_3 1_555 1_555
H9_3 C12_3 1_555 1_555
C15_3 C13_3 1_555 1_555
C16_3 C14_3 1_555 1_555
H10_3 C15_3 1_555 1_555
H11_3 C15_3 1_555 1_555
H12_3 C15_3 1_555 1_555
C17_3 C16_3 1_555 1_555
C18_3 C16_3 1_555 1_555
H13_3 C17_3 1_555 1_555
C19_3 C17_3 1_555 1_555
C20_3 C18_3 1_555 1_555
H14_3 C18_3 1_555 1_555
H15_3 C19_3 1_555 1_555
C21_3 C19_3 1_555 1_555
H16_3 C20_3 1_555 1_555
C22_3 C21_3 1_555 1_555
C23_3 C22_3 1_555 1_555
C24_3 C22_3 1_555 1_555
C25_3 C22_3 1_555 1_555
C26_3 C23_3 1_555 1_555
C27_3 C23_3 1_555 1_555
C28_3 C24_3 1_555 1_555
C29_3 C24_3 1_555 1_555
C30_3 C25_3 1_555 1_555
C31_3 C25_3 1_555 1_555
H17_3 C26_3 1_555 1_555
C32_3 C26_3 1_555 1_555
C33_3 C27_3 1_555 1_555
H18_3 C27_3 1_555 1_555
H19_3 C28_3 1_555 1_555
C34_3 C28_3 1_555 1_555
C35_3 C29_3 1_555 1_555
H20_3 C29_3 1_555 1_555
H21_3 C30_3 1_555 1_555
C36_3 C30_3 1_555 1_555
C37_3 C31_3 1_555 1_555
H22_3 C31_3 1_555 1_555
H23_3 C32_3 1_555 1_555
C38_3 C32_3 1_555 1_555
H24_3 C33_3 1_555 1_555
H25_3 C34_3 1_555 1_555
C39_3 C34_3 1_555 1_555
H26_3 C35_3 1_555 1_555
H27_3 C36_3 1_555 1_555
C40_3 C36_3 1_555 1_555
H28_3 C37_3 1_555 1_555
C41_3 C38_3 1_555 1_555
C42_3 C39_3 1_555 1_555
C43_3 C40_3 1_555 1_555
C44_3 C41_3 1_555 1_555
C45_3 C41_3 1_555 1_555
C46_3 C42_3 1_555 1_555
C47_3 C42_3 1_555 1_555
C48_3 C43_3 1_555 1_555
C49_3 C43_3 1_555 1_555
H29_3 C44_3 1_555 1_555
C50_3 C44_3 1_555 1_555
C51_3 C45_3 1_555 1_555
C52_3 C45_3 1_555 1_555
C53_3 C46_3 1_555 1_555
C54_3 C46_3 1_555 1_555
H30_3 C47_3 1_555 1_555
C55_3 C47_3 1_555 1_555
H31_3 C48_3 1_555 1_555
C56_3 C48_3 1_555 1_555
C57_3 C49_3 1_555 1_555
C58_3 C49_3 1_555 1_555
C59_3 C50_3 1_555 1_555
C60_3 C50_3 1_555 1_555
H32_3 C51_3 1_555 1_555
H33_3 C52_3 1_555 1_555
H34_3 C52_3 1_555 1_555
H35_3 C52_3 1_555 1_555
C61_3 C53_3 1_555 1_555
H36_3 C53_3 1_555 1_555
H37_3 C54_3 1_555 1_555
H38_3 C54_3 1_555 1_555
H39_3 C54_3 1_555 1_555
C62_3 C55_3 1_555 1_555
C63_3 C56_3 1_555 1_555
C64_3 C56_3 1_555 1_555
H40_3 C57_3 1_555 1_555
H41_3 C58_3 1_555 1_555
H42_3 C58_3 1_555 1_555
H43_3 C58_3 1_555 1_555
C65_3 C59_3 1_555 1_555
H44_3 C60_3 1_555 1_555
H45_3 C60_3 1_555 1_555
H46_3 C60_3 1_555 1_555
C66_3 C61_3 1_555 1_555
H47_3 C62_3 1_555 1_555
H48_3 C62_3 1_555 1_555
H49_3 C62_3 1_555 1_555
C67_3 C63_3 1_555 1_555
H50_3 C64_3 1_555 1_555
H51_3 C64_3 1_555 1_555
H52_3 C64_3 1_555 1_555
C68_3 C65_3 1_555 1_555
C69_3 C65_3 1_555 1_555
C71_3 C66_3 1_555 1_555
C72_3 C67_3 1_555 1_555
C73_3 C67_3 1_555 1_555
H53_3 C68_3 1_555 1_555
C74_3 C68_3 1_555 1_555
C75_3 C69_3 1_555 1_555
H54_3 C69_3 1_555 1_555
H56_3 C71_3 1_555 1_555
C77_3 C71_3 1_555 1_555
H57_3 C72_3 1_555 1_555
C78_3 C72_3 1_555 1_555
C79_3 C73_3 1_555 1_555
H58_3 C73_3 1_555 1_555
H59_3 C74_3 1_555 1_555
C80_3 C74_3 1_555 1_555
H60_3 C75_3 1_555 1_555
H62_3 C77_3 1_555 1_555
H63_3 C78_3 1_555 1_555
C82_3 C78_3 1_555 1_555
H64_3 C79_3 1_555 1_555
C83_3 C80_3 1_555 1_555
C85_3 C82_3 1_555 1_555
O21_3 Zr2_2 1_555 1_555
O22_3 Zr2_2 1_555 1_555
O23_2 Zr2_2 1_555 1_555
O24_3 Zr3 1_555 1_555
O25 Zr3 1_555 1_555
O26_3 Zr4_2 1_555 1_555
O27_2 Zr4_2 1_555 1_555
O28_3 Zr5_3 1_555 1_555
Zr6 O21_3 1_555 1_555
C86_3 O28_3 1_555 1_555
O29_3 Zr6 1_555 1_555
O30_2 Zr6 1_555 1_555
O31_2 Zr6 1_555 1_555
O32 Zr6 1_555 1_555
C87_3 C86_3 1_555 1_555
C88_3 C87_3 1_555 1_555
C89_3 C87_3 1_555 1_555
H65_3 C88_3 1_555 1_555
C90_3 C88_3 1_555 1_555
C91_3 C89_3 1_555 1_555
H66_3 C89_3 1_555 1_555
H67_3 C90_3 1_555 1_555
C92_3 C90_3 1_555 1_555
H68_3 C91_3 1_555 1_555
C93_3 C92_3 1_555 1_555
C94_3 C93_3 1_555 1_555
C95_3 C93_3 1_555 1_555
C96_3 C94_3 1_555 1_555
C97_3 C94_3 1_555 1_555
C98_3 C95_3 1_555 1_555
H69_3 C95_3 1_555 1_555
H70_3 C96_3 1_555 1_555
C99_3 C96_3 1_555 1_555
H71_3 C97_3 1_555 1_555
H72_3 C97_3 1_555 1_555
H73_3 C97_3 1_555 1_555
C100_3 C98_3 1_555 1_555
C101_3 C99_3 1_555 1_555
H74_3 C100_3 1_555 1_555
H75_3 C100_3 1_555 1_555
H76_3 C100_3 1_555 1_555
C102_3 C101_3 1_555 1_555
C103_3 C101_3 1_555 1_555
H77_3 C102_3 1_555 1_555
C104_3 C102_3 1_555 1_555
C105_3 C103_3 1_555 1_555
H78_3 C103_3 1_555 1_555
H79_3 C104_3 1_555 1_555
C106_3 C104_3 1_555 1_555
C113_3 C109_3 1_555 1_555
C114_3 C109_3 1_555 1_555
H83_3 C113_3 1_555 1_555
C119_3 C113_3 1_555 1_555
C120_3 C114_3 1_555 1_555
H89_3 C119_3 1_555 1_555
C124_3 C119_3 1_555 1_555
H90_3 C120_3 1_555 1_555
C127_3 C124_3 1_555 1_555
C131_3 C127_3 1_555 1_555
C132_3 C127_3 1_555 1_555
C138_3 C131_3 1_555 1_555
C139_3 C131_3 1_555 1_555
H94_3 C132_3 1_555 1_555
C140_3 C132_3 1_555 1_555
C146_3 C138_3 1_555 1_555
H100_3 C138_3 1_555 1_555
H101_3 C139_3 1_555 1_555
H102_3 C139_3 1_555 1_555
H103_3 C139_3 1_555 1_555
C147_3 C140_3 1_555 1_555
C151_3 C146_3 1_555 1_555
H111_3 C147_3 1_555 1_555
H112_3 C147_3 1_555 1_555
H113_3 C147_3 1_555 1_555
C156_3 C151_3 1_555 1_555
H120_3 C156_3 1_555 1_555
C162_3 C156_3 1_555 1_555
O33_2 C83_3 1_555 1_555
O34_2 C83_3 1_555 1_555
O37_2 C85_3 1_555 1_555
O38_2 C85_3 1_555 1_555
H126_3 C162_3 1_555 1_555
Zr8 O34_2 1_555 1_555
Zr7_2 O37_2 1_555 1_555
Zr12 O38_2 1_555 1_555
O3_3 Zr3 1_555 1_555
O4_3 Zr4_2 1_555 1_555
O5_3 Zr2_2 1_555 1_555
O5_3 Zr5_3 1_555 1_555
Zr3 O21_3 1_555 1_555
Zr4_2 O24_3 1_555 1_555
Zr5_3 O22_3 1_555 1_555
Zr5_3 O26_3 1_555 1_555
C6_3 C7_3 1_555 1_555
C13_3 C14_3 1_555 1_555
C20_3 C21_3 1_555 1_555
C33_3 C38_3 1_555 1_555
C35_3 C39_3 1_555 1_555
C37_3 C40_3 1_555 1_555
C51_3 C59_3 1_555 1_555
C55_3 C61_3 1_555 1_555
C57_3 C63_3 1_555 1_555
C75_3 C80_3 1_555 1_555
C79_3 C82_3 1_555 1_555
O22_3 Zr6 1_555 1_555
O24_3 Zr6 1_555 1_555
O26_3 Zr6 1_555 1_555
C86_3 O29_3 1_555 1_555
C91_3 C92_3 1_555 1_555
C98_3 C99_3 1_555 1_555
C105_3 C106_3 1_555 1_555
C120_3 C124_3 1_555 1_555
C140_3 C146_3 1_555 1_555
C76_3 C70_3 1_555 1_555
H55_3 C70_3 1_555 1_555
C81_3 C76_3 1_555 1_555
H61_3 C76_3 1_555 1_555
C84_3 C81_3 1_555 1_555
C161_3 C155_3 1_555 1_555
H119_3 C155_3 1_555 1_555
O8 C84_3 1_555 1_555
O15 C84_3 1_555 1_555
C166_3 C161_3 1_555 1_555
H125_3 C161_3 1_555 1_555
C169_3 C166_3 1_555 1_555
O32 C169_3 1_555 1_555
C169_3 O25 1_555 1_555
C108_3 C107_3 1_555 1_555
C110_3 C107_3 1_555 1_555
C111_3 C108_3 1_555 1_555
C112_3 C108_3 1_555 1_555
C115_3 C110_3 1_555 1_555
C116_3 C110_3 1_555 1_555
H81_3 C111_3 1_555 1_555
C117_3 C111_3 1_555 1_555
C118_3 C112_3 1_555 1_555
H82_3 C112_3 1_555 1_555
H85_3 C115_3 1_555 1_555
C121_3 C115_3 1_555 1_555
C122_3 C116_3 1_555 1_555
H86_3 C116_3 1_555 1_555
H87_3 C117_3 1_555 1_555
C123_3 C117_3 1_555 1_555
H88_3 C118_3 1_555 1_555
H91_3 C121_3 1_555 1_555
C125_3 C121_3 1_555 1_555
H92_3 C122_3 1_555 1_555
C126_3 C123_3 1_555 1_555
C128_3 C125_3 1_555 1_555
C129_3 C126_3 1_555 1_555
C130_3 C126_3 1_555 1_555
C133_3 C128_3 1_555 1_555
C134_3 C128_3 1_555 1_555
H93_3 C129_3 1_555 1_555
C135_3 C129_3 1_555 1_555
C136_3 C130_3 1_555 1_555
C137_3 C130_3 1_555 1_555
H95_3 C133_3 1_555 1_555
C141_3 C133_3 1_555 1_555
C142_3 C134_3 1_555 1_555
C143_3 C134_3 1_555 1_555
C144_3 C135_3 1_555 1_555
C145_3 C135_3 1_555 1_555
H96_3 C136_3 1_555 1_555
H97_3 C137_3 1_555 1_555
H98_3 C137_3 1_555 1_555
H99_3 C137_3 1_555 1_555
C148_3 C141_3 1_555 1_555
C149_3 C141_3 1_555 1_555
H104_3 C142_3 1_555 1_555
H105_3 C143_3 1_555 1_555
H106_3 C143_3 1_555 1_555
H107_3 C143_3 1_555 1_555
C150_3 C144_3 1_555 1_555
H108_3 C145_3 1_555 1_555
H109_3 C145_3 1_555 1_555
H110_3 C145_3 1_555 1_555
C152_3 C148_3 1_555 1_555
H114_3 C149_3 1_555 1_555
H115_3 C149_3 1_555 1_555
H116_3 C149_3 1_555 1_555
C153_3 C150_3 1_555 1_555
C154_3 C150_3 1_555 1_555
C157_3 C152_3 1_555 1_555
C158_3 C152_3 1_555 1_555
H117_3 C153_3 1_555 1_555
C159_3 C153_3 1_555 1_555
C160_3 C154_3 1_555 1_555
H118_3 C154_3 1_555 1_555
H121_3 C157_3 1_555 1_555
C163_3 C157_3 1_555 1_555
C164_3 C158_3 1_555 1_555
H122_3 C158_3 1_555 1_555
H123_3 C159_3 1_555 1_555
C165_3 C159_3 1_555 1_555
H124_3 C160_3 1_555 1_555
H127_3 C163_3 1_555 1_555
C167_3 C163_3 1_555 1_555
H128_3 C164_3 1_555 1_555
C168_3 C165_3 1_555 1_555
C170_3 C167_3 1_555 1_555
O40_2 C168_3 1_555 1_555
O41_2 C168_3 1_555 1_555
O43_2 C170_3 1_555 1_555
O44_2 C170_3 1_555 1_555
Zr8 O41_2 1_555 1_555
Zr13_2 O43_2 1_555 1_555
Zr12 O44_2 1_555 1_555
C118_3 C123_3 1_555 1_555
C122_3 C125_3 1_555 1_555
C136_3 C144_3 1_555 1_555
C142_3 C148_3 1_555 1_555
C160_3 C165_3 1_555 1_555
C164_3 C167_3 1_555 1_555
C23_4 C22_4 1_555 1_555
C26_4 C23_4 1_555 1_555
C27_4 C23_4 1_555 1_555
H17_4 C26_4 1_555 1_555
C32_4 C26_4 1_555 1_555
C33_4 C27_4 1_555 1_555
H18_4 C27_4 1_555 1_555
H23_4 C32_4 1_555 1_555
C38_4 C32_4 1_555 1_555
H24_4 C33_4 1_555 1_555
C41_4 C38_4 1_555 1_555
C44_4 C41_4 1_555 1_555
C45_4 C41_4 1_555 1_555
H29_4 C44_4 1_555 1_555
C50_4 C44_4 1_555 1_555
C51_4 C45_4 1_555 1_555
C52_4 C45_4 1_555 1_555
C59_4 C50_4 1_555 1_555
C60_4 C50_4 1_555 1_555
H32_4 C51_4 1_555 1_555
H33_4 C52_4 1_555 1_555
H34_4 C52_4 1_555 1_555
H35_4 C52_4 1_555 1_555
C65_4 C59_4 1_555 1_555
H44_4 C60_4 1_555 1_555
H45_4 C60_4 1_555 1_555
H46_4 C60_4 1_555 1_555
C68_4 C65_4 1_555 1_555
C69_4 C65_4 1_555 1_555
H53_4 C68_4 1_555 1_555
C74_4 C68_4 1_555 1_555
C75_4 C69_4 1_555 1_555
H54_4 C69_4 1_555 1_555
H59_4 C74_4 1_555 1_555
C80_4 C74_4 1_555 1_555
H60_4 C75_4 1_555 1_555
C83_4 C80_4 1_555 1_555
O31_2 C83_4 1_555 1_555
O18_2 C83_4 1_555 1_555
C33_4 C38_4 1_555 1_555
C51_4 C59_4 1_555 1_555
C75_4 C80_4 1_555 1_555
C30_4 C25_4 1_555 1_555
C31_4 C25_4 1_555 1_555
H21_4 C30_4 1_555 1_555
C36_4 C30_4 1_555 1_555
C37_4 C31_4 1_555 1_555
H22_4 C31_4 1_555 1_555
H27_4 C36_4 1_555 1_555
C40_4 C36_4 1_555 1_555
H28_4 C37_4 1_555 1_555
C43_4 C40_4 1_555 1_555
C48_4 C43_4 1_555 1_555
C49_4 C43_4 1_555 1_555
H31_4 C48_4 1_555 1_555
C56_4 C48_4 1_555 1_555
C57_4 C49_4 1_555 1_555
C58_4 C49_4 1_555 1_555
C63_4 C56_4 1_555 1_555
C64_4 C56_4 1_555 1_555
H40_4 C57_4 1_555 1_555
H41_4 C58_4 1_555 1_555
H42_4 C58_4 1_555 1_555
H43_4 C58_4 1_555 1_555
C67_4 C63_4 1_555 1_555
H50_4 C64_4 1_555 1_555
H51_4 C64_4 1_555 1_555
H52_4 C64_4 1_555 1_555
C72_4 C67_4 1_555 1_555
C73_4 C67_4 1_555 1_555
H57_4 C72_4 1_555 1_555
C78_4 C72_4 1_555 1_555
C79_4 C73_4 1_555 1_555
H58_4 C73_4 1_555 1_555
H63_4 C78_4 1_555 1_555
C82_4 C78_4 1_555 1_555
H64_4 C79_4 1_555 1_555
C85_4 C82_4 1_555 1_555
O30_2 C85_4 1_555 1_555
O12_2 C85_4 1_555 1_555
C37_4 C40_4 1_555 1_555
C57_4 C63_4 1_555 1_555
C79_4 C82_4 1_555 1_555
Zr13_2 O1_4 1_555 1_555
O1_4 C1_4 1_555 1_555
O2_4 Zr13_2 1_555 1_555
O5_4 Zr13_2 1_555 1_555
C1_4 O9_4 1_555 1_555
Zr12 O2_4 1_555 1_555
O9_4 Zr5_4 1_555 1_555
C2_4 C1_4 1_555 1_555
O10_4 Zr12 1_555 1_555
O11_4 Zr12 1_555 1_555
O19_4 Zr5_4 1_555 1_555
C3_4 C2_4 1_555 1_555
C4_4 C2_4 1_555 1_555
H1_4 C3_4 1_555 1_555
C5_4 C3_4 1_555 1_555
C6_4 C4_4 1_555 1_555
H2_4 C4_4 1_555 1_555
H3_4 C5_4 1_555 1_555
C7_4 C5_4 1_555 1_555
H4_4 C6_4 1_555 1_555
C8_4 C7_4 1_555 1_555
C10_4 C8_4 1_555 1_555
C13_4 C10_4 1_555 1_555
H5_4 C10_4 1_555 1_555
C15_4 C13_4 1_555 1_555
H10_4 C15_4 1_555 1_555
H11_4 C15_4 1_555 1_555
H12_4 C15_4 1_555 1_555
O21_4 Zr12 1_555 1_555
O22_4 Zr12 1_555 1_555
O28_4 Zr5_4 1_555 1_555
Zr7_2 O21_4 1_555 1_555
C86_4 O28_4 1_555 1_555
O29_4 Zr7_2 1_555 1_555
C87_4 C86_4 1_555 1_555
C88_4 C87_4 1_555 1_555
C89_4 C87_4 1_555 1_555
H65_4 C88_4 1_555 1_555
C90_4 C88_4 1_555 1_555
C91_4 C89_4 1_555 1_555
H66_4 C89_4 1_555 1_555
H67_4 C90_4 1_555 1_555
C92_4 C90_4 1_555 1_555
H68_4 C91_4 1_555 1_555
C93_4 C92_4 1_555 1_555
C95_4 C93_4 1_555 1_555
C98_4 C95_4 1_555 1_555
H69_4 C95_4 1_555 1_555
C100_4 C98_4 1_555 1_555
H74_4 C100_4 1_555 1_555
H75_4 C100_4 1_555 1_555
H76_4 C100_4 1_555 1_555
O5_4 Zr12 1_555 1_555
O5_4 Zr5_4 1_555 1_555
Zr5_4 O22_4 1_555 1_555
C6_4 C7_4 1_555 1_555
O22_4 Zr7_2 1_555 1_555
C86_4 O29_4 1_555 1_555
C91_4 C92_4 1_555 1_555
Zr8 O3_4 1_555 1_555
O13_4 Zr3_2 1_555 1_555
O15_2 Zr3_2 1_555 1_555
O16_4 Zr8 1_555 1_555
O17_4 Zr8 1_555 1_555
C12_4 C9_4 1_555 1_555
H7_4 C12_4 1_555 1_555
H8_4 C12_4 1_555 1_555
H9_4 C12_4 1_555 1_555
O24_4 Zr3_2 1_555 1_555
O25_2 Zr3_2 1_555 1_555
O26_4 Zr8 1_555 1_555
C97_4 C94_4 1_555 1_555
H71_4 C97_4 1_555 1_555
H72_4 C97_4 1_555 1_555
H73_4 C97_4 1_555 1_555
O3_4 Zr3_2 1_555 1_555
O4_4 Zr8 1_555 1_555
Zr8 O24_4 1_555 1_555
C16_4 C14_4 1_555 1_555
C17_4 C16_4 1_555 1_555
H13_4 C17_4 1_555 1_555
C19_4 C17_4 1_555 1_555
H15_4 C19_4 1_555 1_555
C21_4 C19_4 1_555 1_555
C35_4 C29_4 1_555 1_555
H26_4 C35_4 1_555 1_555
H30_4 C47_4 1_555 1_555
C55_4 C47_4 1_555 1_555
C62_4 C55_4 1_555 1_555
H47_4 C62_4 1_555 1_555
H48_4 C62_4 1_555 1_555
H49_4 C62_4 1_555 1_555
C101_4 C99_4 1_555 1_555
C102_4 C101_4 1_555 1_555
H77_4 C102_4 1_555 1_555
C104_4 C102_4 1_555 1_555
H79_4 C104_4 1_555 1_555
C106_4 C104_4 1_555 1_555
C107_4 C106_4 1_555 1_555
C108_4 C107_4 1_555 1_555
C111_4 C108_4 1_555 1_555
C112_4 C108_4 1_555 1_555
H81_4 C111_4 1_555 1_555
C117_4 C111_4 1_555 1_555
C118_4 C112_4 1_555 1_555
H82_4 C112_4 1_555 1_555
C120_4 C114_4 1_555 1_555
H84_4 C114_4 1_555 1_555
H87_4 C117_4 1_555 1_555
C123_4 C117_4 1_555 1_555
H88_4 C118_4 1_555 1_555
H90_4 C120_4 1_555 1_555
C126_4 C123_4 1_555 1_555
C129_4 C126_4 1_555 1_555
C130_4 C126_4 1_555 1_555
H93_4 C129_4 1_555 1_555
C135_4 C129_4 1_555 1_555
C136_4 C130_4 1_555 1_555
C137_4 C130_4 1_555 1_555
H94_4 C132_4 1_555 1_555
C140_4 C132_4 1_555 1_555
C144_4 C135_4 1_555 1_555
C145_4 C135_4 1_555 1_555
H96_4 C136_4 1_555 1_555
H97_4 C137_4 1_555 1_555
H98_4 C137_4 1_555 1_555
H99_4 C137_4 1_555 1_555
C147_4 C140_4 1_555 1_555
C150_4 C144_4 1_555 1_555
H108_4 C145_4 1_555 1_555
H109_4 C145_4 1_555 1_555
H110_4 C145_4 1_555 1_555
H111_4 C147_4 1_555 1_555
H112_4 C147_4 1_555 1_555
H113_4 C147_4 1_555 1_555
C153_4 C150_4 1_555 1_555
C154_4 C150_4 1_555 1_555
H117_4 C153_4 1_555 1_555
C159_4 C153_4 1_555 1_555
C160_4 C154_4 1_555 1_555
H118_4 C154_4 1_555 1_555
H123_4 C159_4 1_555 1_555
C165_4 C159_4 1_555 1_555
H124_4 C160_4 1_555 1_555
C168_4 C165_4 1_555 1_555
O7_2 C168_4 1_555 1_555
O27_2 C168_4 1_555 1_555
C118_4 C123_4 1_555 1_555
C136_4 C144_4 1_555 1_555
C160_4 C165_4 1_555 1_555
H6_4 C11_4 1_555 1_555
C20_4 C18_4 1_555 1_555
H14_4 C18_4 1_555 1_555
C28_4 C24_4 1_555 1_555
H19_4 C28_4 1_555 1_555
C34_4 C28_4 1_555 1_555
H25_4 C34_4 1_555 1_555
C39_4 C34_4 1_555 1_555
C42_4 C39_4 1_555 1_555
C46_4 C42_4 1_555 1_555
C53_4 C46_4 1_555 1_555
C54_4 C46_4 1_555 1_555
C61_4 C53_4 1_555 1_555
H36_4 C53_4 1_555 1_555
H37_4 C54_4 1_555 1_555
H38_4 C54_4 1_555 1_555
H39_4 C54_4 1_555 1_555
C66_4 C61_4 1_555 1_555
C70_4 C66_4 1_555 1_555
C71_4 C66_4 1_555 1_555
C76_4 C70_4 1_555 1_555
H55_4 C70_4 1_555 1_555
H56_4 C71_4 1_555 1_555
C77_4 C71_4 1_555 1_555
C81_4 C76_4 1_555 1_555
H61_4 C76_4 1_555 1_555
H62_4 C77_4 1_555 1_555
C84_4 C81_4 1_555 1_555
H70_4 C96_4 1_555 1_555
C105_4 C103_4 1_555 1_555
H78_4 C103_4 1_555 1_555
H80_4 C105_4 1_555 1_555
C113_4 C109_4 1_555 1_555
C115_4 C110_4 1_555 1_555
C116_4 C110_4 1_555 1_555
H83_4 C113_4 1_555 1_555
C119_4 C113_4 1_555 1_555
H85_4 C115_4 1_555 1_555
C121_4 C115_4 1_555 1_555
C122_4 C116_4 1_555 1_555
H86_4 C116_4 1_555 1_555
H89_4 C119_4 1_555 1_555
C124_4 C119_4 1_555 1_555
H91_4 C121_4 1_555 1_555
C125_4 C121_4 1_555 1_555
H92_4 C122_4 1_555 1_555
C127_4 C124_4 1_555 1_555
C128_4 C125_4 1_555 1_555
C131_4 C127_4 1_555 1_555
C133_4 C128_4 1_555 1_555
C134_4 C128_4 1_555 1_555
C138_4 C131_4 1_555 1_555
C139_4 C131_4 1_555 1_555
H95_4 C133_4 1_555 1_555
C141_4 C133_4 1_555 1_555
C142_4 C134_4 1_555 1_555
C143_4 C134_4 1_555 1_555
C146_4 C138_4 1_555 1_555
H100_4 C138_4 1_555 1_555
H101_4 C139_4 1_555 1_555
H102_4 C139_4 1_555 1_555
H103_4 C139_4 1_555 1_555
C148_4 C141_4 1_555 1_555
C149_4 C141_4 1_555 1_555
H104_4 C142_4 1_555 1_555
H105_4 C143_4 1_555 1_555
H106_4 C143_4 1_555 1_555
H107_4 C143_4 1_555 1_555
C151_4 C146_4 1_555 1_555
C152_4 C148_4 1_555 1_555
H114_4 C149_4 1_555 1_555
H115_4 C149_4 1_555 1_555
H116_4 C149_4 1_555 1_555
C155_4 C151_4 1_555 1_555
C156_4 C151_4 1_555 1_555
C157_4 C152_4 1_555 1_555
C158_4 C152_4 1_555 1_555
C161_4 C155_4 1_555 1_555
H119_4 C155_4 1_555 1_555
H120_4 C156_4 1_555 1_555
C162_4 C156_4 1_555 1_555
H121_4 C157_4 1_555 1_555
C163_4 C157_4 1_555 1_555
C164_4 C158_4 1_555 1_555
H122_4 C158_4 1_555 1_555
O8_2 C84_4 1_555 1_555
O15_2 C84_4 1_555 1_555
C166_4 C161_4 1_555 1_555
H125_4 C161_4 1_555 1_555
H126_4 C162_4 1_555 1_555
H127_4 C163_4 1_555 1_555
C167_4 C163_4 1_555 1_555
H128_4 C164_4 1_555 1_555
C169_4 C166_4 1_555 1_555
C170_4 C167_4 1_555 1_555
O32_2 C169_4 1_555 1_555
O6_2 C170_4 1_555 1_555
O23_2 C170_4 1_555 1_555
C77_4 C81_4 1_555 1_555
C122_4 C125_4 1_555 1_555
C142_4 C148_4 1_555 1_555
C162_4 C166_4 1_555 1_555
C164_4 C167_4 1_555 1_555
C169_4 O25_2 1_555 1_555

#END
