
###############################################################################
#
# This file contains modified crystal structure data generated from the
# MOF subset of the Cambridge Structural Database (CSD) v543 
# hosted by the Cambridge Crystallographic Data Centre (CCDC).
#
# This work is licensed under the Creative Commons
# Attribution-NonCommercial-ShareAlike 4.0 International License.
# To view a copy of this license, visit
# http://creativecommons.org/licenses/by-nc-sa/4.0/
# or send a letter to
# Creative Commons, PO Box 1866, Mountain View, CA 94042, USA.
#
# CIF created using the CSD Python API on 29 September 2022
# The structure has been converted into the P1 space group
# The structure has a 3D framework
# The original CSD entry FEFZEZ is in the tetragonal crystal system
# The original CSD entry FEFZEZ is in a Sohncke space group
# The framework has been calculated to contain at least 10.0% void space
# The void calculation uses a probe of radius 1.32A, grid spacing 0.4
# H atom positions have been added when not included in the experimental data
#
###############################################################################

data_FEFZEZ
_chemical_formula_moiety         '(C36 H52 Ni24 O184 P4 W36)n'
_symmetry_cell_setting           triclinic
_symmetry_space_group_name_H-M   'P 1'
_symmetry_Int_Tables_number      1
_space_group_name_Hall           'P 1'
loop_
_symmetry_equiv_pos_site_id
_symmetry_equiv_pos_as_xyz
1 x,y,z
_cell_length_a                   15.5486(3)
_cell_length_b                   15.5486(3)
_cell_length_c                   26.6526(10)
_cell_angle_alpha                90
_cell_angle_beta                 90
_cell_angle_gamma                90
_cell_volume                     6443.5
loop_
_atom_site_label
_atom_site_type_symbol
_atom_site_fract_x
_atom_site_fract_y
_atom_site_fract_z
W4 W 0.01230(3) 0.16221(3) 0.50752(2)
W5 W 0.01576(3) 0.35826(3) 0.43135(2)
W8 W 0.03089(3) 0.28156(3) 0.61642(2)
W9 W 0.03694(3) 0.47958(3) 0.53875(2)
O20 O 0.0859(5) 0.0876(5) 0.4879(3)
O21 O 0.0473(5) 0.2634(5) 0.4738(3)
O22 O 0.0880(5) 0.3506(5) 0.3813(3)
O29 O 0.0756(5) 0.2073(5) 0.5666(3)
O30 O 0.0817(5) 0.4279(5) 0.4797(3)
O34 O 0.0632(5) 0.3751(5) 0.5741(3)
O36 O 0.1113(6) 0.2827(6) 0.6602(3)
O37 O 0.1209(6) 0.5448(6) 0.5554(3)
O38 O 0.0280(5) 0.2377(6) 0.2189(3)
O39 O 0.0080(5) 0.3410(6) 0.2770(3)
Ni9 Ni 0.15223(9) 0.21418(9) 0.22863(5)
Ni10 Ni 0.12830(9) 0.34497(9) 0.30812(5)
O49 O 0.0424(5) 0.1538(5) 0.3846(3)
W1 W 0.71194(3) 0.49299(3) 0.55774(2)
W2 W 0.71158(3) 0.31012(3) 0.63031(2)
W3 W 0.86566(3) 0.13690(3) 0.60236(2)
W6 W 0.87017(3) 0.51805(3) 0.45671(2)
W7 W 0.87631(3) 0.45878(3) 0.64134(2)
Ni1 Ni 0.65836(10) 0.45732(9) 0.42841(6)
Ni2 Ni 0.79164(9) 0.31456(9) 0.41225(5)
Ni3 Ni 0.65501(9) 0.30058(9) 0.49900(5)
Ni4 Ni 0.91127(9) 0.17282(9) 0.38953(5)
Ni5 Ni 0.78582(9) 0.15223(9) 0.47863(5)
Ni6 Ni 0.65503(9) 0.12830(9) 0.55812(5)
P1 P 0.86029(18) 0.32886(17) 0.52881(10)
O1 O 0.6647(5) 0.3285(5) 0.4248(3)
O2 O 0.6600(5) 0.1761(5) 0.4891(3)
O3 O 0.7888(4) 0.1858(5) 0.4074(3)
O4 O 0.6675(5) 0.4294(5) 0.5076(3)
O5 O 0.6634(5) 0.2615(5) 0.5740(3)
O6 O 0.7855(5) 0.1337(5) 0.5536(3)
O7 O 0.9200(5) 0.1458(4) 0.4675(3)
O8 O 0.9224(5) 0.2988(4) 0.4105(3)
O9 O 0.7941(5) 0.4446(5) 0.4289(3)
O10 O 0.7958(5) 0.2893(4) 0.4927(3)
O11 O 0.8030(5) 0.5345(5) 0.5152(3)
O12 O 0.6434(5) 0.5799(5) 0.5596(3)
O13 O 0.8110(5) 0.3767(5) 0.5709(3)
O14 O 0.6632(5) 0.4209(5) 0.6081(3)
O15 O 0.6422(6) 0.2840(6) 0.6777(3)
O16 O 0.7973(5) 0.2247(5) 0.6354(3)
O17 O 0.8462(5) 0.0424(5) 0.6346(3)
O18 O 0.9168(5) 0.2586(5) 0.5527(3)
O19 O 0.9527(5) 0.0955(5) 0.5594(3)
O23 O 0.9185(5) 0.3925(5) 0.5012(3)
O24 O 0.9610(5) 0.4643(5) 0.4154(3)
O25 O 0.8556(6) 0.6115(5) 0.4243(3)
O26 O 0.7911(6) 0.5297(5) 0.6143(3)
O27 O 0.7909(5) 0.3853(5) 0.6675(3)
O28 O 0.9625(5) 0.1892(5) 0.6395(3)
O31 O 0.9710(5) 0.5535(5) 0.4984(3)
O32 O 0.9541(5) 0.4976(5) 0.5912(3)
O33 O 0.9520(5) 0.3599(5) 0.6443(3)
O35 O 0.9078(6) 0.5169(6) 0.6928(3)
O40 O 0.8826(5) 0.2151(5) 0.3184(3)
O41 O 0.7923(5) 0.3245(5) 0.3377(3)
O42 O 0.5826(5) 0.3443(6) 0.1923(3)
O43 O 0.6385(7) 0.3658(10) 0.1172(5)
O44 O 0.6709(7) 0.4786(6) 0.3530(4)
O45 O 0.5226(6) 0.4536(7) 0.4263(4)
O46 O 0.5231(6) 0.3083(8) 0.5027(4)
O47 O 0.5230(6) 0.1292(7) 0.5589(4)
O48 O 0.8935(9) 0.0435(7) 0.3735(5)
C1 C 0.7320(4) 0.3342(7) 0.1843(3)
C2 C 0.7431(4) 0.3135(6) 0.2346(3)
H1 H 0.6955 0.3085 0.2555
C3 C 0.8253(5) 0.3003(6) 0.2536(2)
C4 C 0.8964(4) 0.3079(6) 0.2223(3)
C5 C 0.8853(4) 0.3286(7) 0.1720(3)
H2 H 0.9329 0.3336 0.1511
C6 C 0.8032(5) 0.3417(7) 0.1530(2)
H3 H 0.7958 0.3556 0.1193
C7 C 0.9843(7) 0.2927(9) 0.2408(5)
C8 C 0.8348(7) 0.2772(8) 0.3074(4)
C9 C 0.6441(9) 0.3466(11) 0.1612(6)
Ni7 Ni 0.45732(9) 0.34164(10) 0.17841(6)
O50 O 0.6494(5) 0.0880(5) 0.6313(3)
O51 O 0.7623(6) 0.0280(5) 0.4689(3)
O52 O 0.6590(6) 0.0080(5) 0.5270(3)
O53 O 0.6557(6) 0.5826(5) 0.4423(3)
H4 H 0.497333 0.265449 0.479522
H5 H 0.503914 0.296209 0.537529
H6 H 0.50098 0.0922977 0.531339
H7 H 0.502125 0.106764 0.591588
H8 H 0.622918 0.450072 0.334901
H9 H 0.669322 0.541403 0.346298
H10 H 0.500873 0.420393 0.455492
H11 H 0.499602 0.513133 0.427672
H12 H 0.850418 0.0373937 0.346228
H13 H 0.948945 0.017889 0.362609
Ni8 Ni 0.82718(9) 0.91127(9) 0.63953(5)
Ni8_2 Ni 0.17282(9) 0.08873(9) 0.13953(5)
W6_2 W 0.12983(3) 0.48195(3) 0.95671(2)
Ni1_2 Ni 0.34164(10) 0.54268(9) 0.92841(6)
Ni2_2 Ni 0.20836(9) 0.68544(9) 0.91225(5)
Ni3_2 Ni 0.34499(9) 0.69942(9) 0.99900(5)
Ni4_2 Ni 0.08873(9) 0.82718(9) 0.88953(5)
Ni5_2 Ni 0.21418(9) 0.84777(9) 0.97863(5)
O1_2 O 0.3353(5) 0.6715(5) 0.9248(3)
O2_2 O 0.3400(5) 0.8239(5) 0.9891(3)
O3_2 O 0.2112(4) 0.8142(5) 0.9074(3)
O7_2 O 0.0800(5) 0.8542(4) 0.9675(3)
O8_2 O 0.0776(5) 0.7012(4) 0.9105(3)
O9_2 O 0.2059(5) 0.5554(5) 0.9289(3)
O10_2 O 0.2042(5) 0.7107(4) 0.9927(3)
O24_2 O 0.0390(5) 0.5357(5) 0.9154(3)
O25_2 O 0.1444(6) 0.3885(5) 0.9243(3)
O31_2 O 0.0290(5) 0.4465(5) 0.9984(3)
O40_2 O 0.1174(5) 0.7849(5) 0.8184(3)
O41_2 O 0.2077(5) 0.6755(5) 0.8377(3)
O42_2 O 0.4174(5) 0.6557(6) 0.6923(3)
O43_2 O 0.3615(7) 0.6342(10) 0.6172(5)
O44_2 O 0.3291(7) 0.5214(6) 0.8530(4)
O45_2 O 0.4774(6) 0.5464(7) 0.9263(4)
O48_2 O 0.1065(9) 0.9565(7) 0.8735(5)
C1_2 C 0.2680(4) 0.6658(7) 0.6843(3)
C2_2 C 0.2569(4) 0.6865(6) 0.7346(3)
H1_2 H 0.3045 0.6915 0.7555
C3_2 C 0.1747(5) 0.6997(6) 0.7536(2)
C4_2 C 0.1036(4) 0.6921(6) 0.7223(3)
C5_2 C 0.1147(4) 0.6714(7) 0.6720(3)
H2_2 H 0.0671 0.6664 0.6511
C6_2 C 0.1968(5) 0.6583(7) 0.6530(2)
H3_2 H 0.2042 0.6444 0.6193
C7_2 C 0.0157(7) 0.7073(9) 0.7408(5)
C8_2 C 0.1652(7) 0.7228(8) 0.8074(4)
C9_2 C 0.3559(9) 0.6534(11) 0.6612(6)
Ni7_2 Ni 0.54268(9) 0.65836(10) 0.67841(6)
O51_2 O 0.2377(6) 0.9720(5) 0.9689(3)
O53_2 O 0.3443(6) 0.4174(5) 0.9423(3)
H4_2 H 0.502667 0.734551 0.979522
H8_2 H 0.377082 0.549928 0.834901
H9_2 H 0.330678 0.458597 0.846298
H10_2 H 0.499127 0.579607 0.955492
H11_2 H 0.500398 0.486867 0.927672
H12_2 H 0.149582 0.962606 0.846228
H13_2 H 0.0510547 0.982111 0.862609
W5_2 W 0.98424(3) 0.64174(3) 0.93135(2)
O20_2 O 0.9141(5) 0.9124(5) 0.9879(3)
O21_2 O 0.9527(5) 0.7366(5) 0.9738(3)
O22_2 O 0.9120(5) 0.6494(5) 0.8813(3)
O30_2 O 0.9183(5) 0.5721(5) 0.9797(3)
O38_2 O 0.9720(5) 0.7623(6) 0.7189(3)
O39_2 O 0.9920(5) 0.6590(6) 0.7770(3)
Ni9_2 Ni 0.84777(9) 0.78582(9) 0.72863(5)
Ni10_2 Ni 0.87170(9) 0.65503(9) 0.80812(5)
O49_2 O 0.9576(5) 0.8462(5) 0.8846(3)
W4_2 W 0.83779(3) 0.01230(3) 0.75752(2)
W5_3 W 0.64174(3) 0.01576(3) 0.68135(2)
W8_2 W 0.71844(3) 0.03089(3) 0.86642(2)
W9_2 W 0.52042(3) 0.03694(3) 0.78875(2)
O20_3 O 0.9124(5) 0.0859(5) 0.7379(3)
O21_3 O 0.7366(5) 0.0473(5) 0.7238(3)
O29_2 O 0.7927(5) 0.0756(5) 0.8166(3)
O30_3 O 0.5721(5) 0.0817(5) 0.7297(3)
O34_2 O 0.6249(5) 0.0632(5) 0.8241(3)
O36_2 O 0.7173(6) 0.1113(6) 0.9102(3)
O37_2 O 0.4552(6) 0.1209(6) 0.8054(3)
W1_2 W 0.50701(3) 0.71194(3) 0.80774(2)
W2_2 W 0.68988(3) 0.71158(3) 0.88031(2)
W3_2 W 0.86310(3) 0.86566(3) 0.85236(2)
W6_3 W 0.48195(3) 0.87017(3) 0.70671(2)
W7_2 W 0.54122(3) 0.87631(3) 0.89134(2)
Ni2_3 Ni 0.68544(9) 0.79164(9) 0.66225(5)
Ni3_3 Ni 0.69942(9) 0.65501(9) 0.74900(5)
P1_2 P 0.67114(17) 0.86029(18) 0.77881(10)
O1_3 O 0.6715(5) 0.6647(5) 0.6748(3)
O2_3 O 0.8239(5) 0.6600(5) 0.7391(3)
O3_3 O 0.8142(5) 0.7888(4) 0.6574(3)
O4_2 O 0.5706(5) 0.6675(5) 0.7576(3)
O5_2 O 0.7385(5) 0.6634(5) 0.8240(3)
O6_2 O 0.8663(5) 0.7855(5) 0.8036(3)
O7_3 O 0.8542(4) 0.9200(5) 0.7175(3)
O8_3 O 0.7012(4) 0.9224(5) 0.6605(3)
O9_3 O 0.5554(5) 0.7941(5) 0.6789(3)
O10_3 O 0.7107(4) 0.7958(5) 0.7427(3)
O11_2 O 0.4655(5) 0.8030(5) 0.7652(3)
O12_2 O 0.4201(5) 0.6434(5) 0.8096(3)
O13_2 O 0.6233(5) 0.8110(5) 0.8209(3)
O14_2 O 0.5791(5) 0.6632(5) 0.8581(3)
O15_2 O 0.7160(6) 0.6422(6) 0.9277(3)
O16_2 O 0.7753(5) 0.7973(5) 0.8854(3)
O18_2 O 0.7414(5) 0.9168(5) 0.8027(3)
O19_2 O 0.9045(5) 0.9527(5) 0.8094(3)
O23_2 O 0.6075(5) 0.9185(5) 0.7512(3)
O24_3 O 0.5357(5) 0.9610(5) 0.6654(3)
O25_3 O 0.3885(5) 0.8556(6) 0.6743(3)
O26_2 O 0.4703(5) 0.7911(6) 0.8643(3)
O27_2 O 0.6147(5) 0.7909(5) 0.9175(3)
O28_2 O 0.8108(5) 0.9625(5) 0.8895(3)
O31_3 O 0.4465(5) 0.9710(5) 0.7484(3)
O32_2 O 0.5024(5) 0.9541(5) 0.8412(3)
O33_2 O 0.6401(5) 0.9520(5) 0.8943(3)
O35_2 O 0.4831(6) 0.9078(6) 0.9428(3)
O40_3 O 0.7849(5) 0.8826(5) 0.5684(3)
O41_3 O 0.6755(5) 0.7923(5) 0.5877(3)
O43_3 O 0.6342(10) 0.6385(7) 0.3672(5)
O44_3 O 0.5214(6) 0.6709(7) 0.6030(4)
O45_3 O 0.5464(7) 0.5226(6) 0.6763(4)
O46_2 O 0.6917(8) 0.5231(6) 0.7527(4)
O47_2 O 0.8708(7) 0.5230(6) 0.8089(4)
O48_3 O 0.9565(7) 0.8935(9) 0.6235(5)
C1_3 C 0.6658(7) 0.7320(4) 0.4343(3)
C2_3 C 0.6865(6) 0.7431(4) 0.4846(3)
H1_3 H 0.6915 0.6955 0.5055
C3_3 C 0.6997(6) 0.8253(5) 0.5036(2)
C4_3 C 0.6921(6) 0.8964(4) 0.4723(3)
C5_3 C 0.6714(7) 0.8853(4) 0.4220(3)
H2_3 H 0.6664 0.9329 0.4011
C6_3 C 0.6583(7) 0.8032(5) 0.4030(2)
H3_3 H 0.6444 0.7958 0.3693
C7_3 C 0.7073(9) 0.9843(7) 0.4908(5)
C8_3 C 0.7228(8) 0.8348(7) 0.5574(4)
C9_3 C 0.6534(11) 0.6441(9) 0.4112(6)
H4_3 H 0.734551 0.497333 0.729522
H5_2 H 0.703791 0.503914 0.787529
H6_2 H 0.907702 0.50098 0.781339
H7_2 H 0.893236 0.502125 0.841588
H8_3 H 0.549928 0.622918 0.584901
H9_3 H 0.458597 0.669322 0.596298
H10_3 H 0.579607 0.500873 0.705492
H11_3 H 0.486867 0.499602 0.677672
H12_3 H 0.962606 0.850418 0.596228
H13_3 H 0.982111 0.948945 0.612609
W1_3 W 0.49299(3) 0.28806(3) 0.30774(2)
W2_3 W 0.31012(3) 0.28842(3) 0.38031(2)
W3_3 W 0.13690(3) 0.13434(3) 0.35236(2)
W6_4 W 0.51805(3) 0.12983(3) 0.20671(2)
W7_3 W 0.45878(3) 0.12369(3) 0.39134(2)
Ni2_4 Ni 0.31456(9) 0.20836(9) 0.16225(5)
Ni3_4 Ni 0.30058(9) 0.34499(9) 0.24900(5)
P1_3 P 0.32886(17) 0.13971(18) 0.27881(10)
O1_4 O 0.3285(5) 0.3353(5) 0.1748(3)
O2_4 O 0.1761(5) 0.3400(5) 0.2391(3)
O3_4 O 0.1858(5) 0.2112(4) 0.1574(3)
O4_3 O 0.4294(5) 0.3325(5) 0.2576(3)
O5_3 O 0.2615(5) 0.3366(5) 0.3240(3)
O6_3 O 0.1337(5) 0.2145(5) 0.3036(3)
O7_4 O 0.1458(4) 0.0800(5) 0.2175(3)
O8_4 O 0.2988(4) 0.0776(5) 0.1605(3)
O9_4 O 0.4446(5) 0.2059(5) 0.1789(3)
O10_4 O 0.2893(4) 0.2042(5) 0.2427(3)
O11_3 O 0.5345(5) 0.1970(5) 0.2652(3)
O12_3 O 0.5799(5) 0.3566(5) 0.3096(3)
O13_3 O 0.3767(5) 0.1890(5) 0.3209(3)
O14_3 O 0.4209(5) 0.3368(5) 0.3581(3)
O15_3 O 0.2840(6) 0.3578(6) 0.4277(3)
O16_3 O 0.2247(5) 0.2027(5) 0.3854(3)
O18_3 O 0.2586(5) 0.0832(5) 0.3027(3)
O19_3 O 0.0955(5) 0.0473(5) 0.3094(3)
O23_3 O 0.3925(5) 0.0815(5) 0.2512(3)
O24_4 O 0.4643(5) 0.0390(5) 0.1654(3)
O25_4 O 0.6115(5) 0.1444(6) 0.1743(3)
O26_3 O 0.5297(5) 0.2089(6) 0.3643(3)
O27_3 O 0.3853(5) 0.2091(5) 0.4175(3)
O28_3 O 0.1892(5) 0.0375(5) 0.3895(3)
O31_4 O 0.5535(5) 0.0290(5) 0.2484(3)
O32_3 O 0.4976(5) 0.0459(5) 0.3412(3)
O33_3 O 0.3599(5) 0.0480(5) 0.3943(3)
O35_3 O 0.5169(6) 0.0922(6) 0.4428(3)
O40_4 O 0.2151(5) 0.1174(5) 0.0684(3)
O41_4 O 0.3245(5) 0.2077(5) 0.0877(3)
O44_4 O 0.4786(6) 0.3291(7) 0.1030(4)
O45_4 O 0.4536(7) 0.4774(6) 0.1763(4)
O46_3 O 0.3083(8) 0.4769(6) 0.2527(4)
O47_3 O 0.1292(7) 0.4770(6) 0.3089(4)
O48_4 O 0.0435(7) 0.1065(9) 0.1235(5)
H1_4 H 0.3085 0.3045 0.0055
C3_4 C 0.3003(6) 0.1747(5) 0.0036(2)
C8_4 C 0.2772(8) 0.1652(7) 0.0574(4)
H4_4 H 0.265449 0.502667 0.229522
H5_3 H 0.296209 0.496086 0.287529
H6_3 H 0.0922977 0.49902 0.281339
H7_3 H 0.106764 0.497875 0.341588
H8_4 H 0.450072 0.377082 0.0849009
H9_4 H 0.541403 0.330678 0.0962984
H10_4 H 0.420393 0.499127 0.205492
H11_4 H 0.513133 0.500398 0.177672
H12_4 H 0.0373937 0.149582 0.0962285
H13_4 H 0.017889 0.0510547 0.112609
O43_4 O 0.3658(10) 0.3615(7) 0.8672(5)
C1_4 C 0.3342(7) 0.2680(4) 0.9343(3)
C2_4 C 0.3135(6) 0.2569(4) 0.9846(3)
C4_4 C 0.3079(6) 0.1036(4) 0.9723(3)
C5_4 C 0.3286(7) 0.1147(4) 0.9220(3)
H2_4 H 0.3336 0.0671 0.9011
C6_4 C 0.3417(7) 0.1968(5) 0.9030(2)
H3_4 H 0.3556 0.2042 0.8693
C7_4 C 0.2927(9) 0.0157(7) 0.9908(5)
C9_4 C 0.3466(11) 0.3559(9) 0.9112(6)
W1_4 W 0.28806(3) 0.50701(3) 0.05774(2)
W2_4 W 0.28842(3) 0.68988(3) 0.13031(2)
W3_4 W 0.13434(3) 0.86310(3) 0.10236(2)
W7_4 W 0.12369(3) 0.54122(3) 0.14134(2)
Ni6_2 Ni 0.34497(9) 0.87170(9) 0.05812(5)
P1_4 P 0.13971(18) 0.67114(17) 0.02881(10)
O4_4 O 0.3325(5) 0.5706(5) 0.0076(3)
O5_4 O 0.3366(5) 0.7385(5) 0.0740(3)
O6_4 O 0.2145(5) 0.8663(5) 0.0536(3)
O11_4 O 0.1970(5) 0.4655(5) 0.0152(3)
O12_4 O 0.3566(5) 0.4201(5) 0.0596(3)
O13_4 O 0.1890(5) 0.6233(5) 0.0709(3)
O14_4 O 0.3368(5) 0.5791(5) 0.1081(3)
O15_4 O 0.3578(6) 0.7160(6) 0.1777(3)
O16_4 O 0.2027(5) 0.7753(5) 0.1354(3)
O17_2 O 0.1538(5) 0.9576(5) 0.1346(3)
O18_4 O 0.0832(5) 0.7414(5) 0.0527(3)
O19_4 O 0.0473(5) 0.9045(5) 0.0594(3)
O23_4 O 0.0815(5) 0.6075(5) 0.0012(3)
O26_4 O 0.2089(6) 0.4703(5) 0.1143(3)
O27_4 O 0.2091(5) 0.6147(5) 0.1675(3)
O28_4 O 0.0375(5) 0.8108(5) 0.1395(3)
O32_4 O 0.0459(5) 0.5024(5) 0.0912(3)
O33_4 O 0.0480(5) 0.6401(5) 0.1443(3)
O35_4 O 0.0922(6) 0.4831(6) 0.1928(3)
O46_4 O 0.4769(6) 0.6917(8) 0.0027(4)
O47_4 O 0.4770(6) 0.8708(7) 0.0589(4)
O50_2 O 0.3506(5) 0.9120(5) 0.1313(3)
O52_2 O 0.3410(6) 0.9920(5) 0.0270(3)
H5_4 H 0.496086 0.703791 0.0375291
H6_4 H 0.49902 0.907702 0.0313388
H7_4 H 0.497875 0.893236 0.0915876
W4_3 W 0.16221(3) 0.98770(3) 0.25752(2)
W5_4 W 0.35826(3) 0.98424(3) 0.18135(2)
W8_3 W 0.28156(3) 0.96911(3) 0.36642(2)
W9_3 W 0.47958(3) 0.96306(3) 0.28875(2)
O20_4 O 0.0876(5) 0.9141(5) 0.2379(3)
O21_4 O 0.2634(5) 0.9527(5) 0.2238(3)
O29_3 O 0.2073(5) 0.9244(5) 0.3166(3)
O30_4 O 0.4279(5) 0.9183(5) 0.2297(3)
O34_3 O 0.3751(5) 0.9368(5) 0.3241(3)
O36_3 O 0.2827(6) 0.8887(6) 0.4102(3)
O37_3 O 0.5448(6) 0.8791(6) 0.3054(3)
W4_4 W 0.98770(3) 0.83779(3) 0.00752(2)
W8_4 W 0.96911(3) 0.71844(3) 0.11642(2)
W9_4 W 0.96306(3) 0.52042(3) 0.03875(2)
O29_4 O 0.9244(5) 0.7927(5) 0.0666(3)
O34_4 O 0.9368(5) 0.6249(5) 0.0741(3)
O36_4 O 0.8887(6) 0.7173(6) 0.1602(3)
O37_4 O 0.8791(6) 0.4552(6) 0.0554(3)
loop_
_geom_bond_atom_site_label_1
_geom_bond_atom_site_label_2
_geom_bond_site_symmetry_1
_geom_bond_site_symmetry_2
O20 W4 1_555 1_555
O21 W4 1_555 1_555
O22 W5 1_555 1_555
O29 W4 1_555 1_555
O30 W5 1_555 1_555
O34 W8 1_555 1_555
O36 W8 1_555 1_555
O37 W9 1_555 1_555
Ni9 O38 1_555 1_555
Ni10 O22 1_555 1_555
W5 O21 1_555 1_555
W8 O29 1_555 1_555
W9 O30 1_555 1_555
W9 O34 1_555 1_555
O39 Ni10 1_555 1_555
W1 O4 1_555 1_555
W2 O5 1_555 1_555
W3 O6 1_555 1_555
W6 O9 1_555 1_555
W7 O13 1_555 1_555
Ni1 O1 1_555 1_555
Ni2 O1 1_555 1_555
Ni3 O1 1_555 1_555
Ni4 O3 1_555 1_555
Ni5 O2 1_555 1_555
Ni6 O2 1_555 1_555
P1 O10 1_555 1_555
O2 Ni3 1_555 1_555
O3 Ni2 1_555 1_555
O4 Ni1 1_555 1_555
O5 Ni3 1_555 1_555
O6 Ni5 1_555 1_555
O7 Ni4 1_555 1_555
O8 Ni2 1_555 1_555
O9 Ni1 1_555 1_555
O10 Ni2 1_555 1_555
O11 W1 1_555 1_555
O12 W1 1_555 1_555
O13 W1 1_555 1_555
O14 W1 1_555 1_555
O15 W2 1_555 1_555
O16 W2 1_555 1_555
O17 W3 1_555 1_555
O18 W3 1_555 1_555
O19 W3 1_555 1_555
O25 W6 1_555 1_555
O26 W1 1_555 1_555
O27 W2 1_555 1_555
O28 W3 1_555 1_555
O31 W6 1_555 1_555
O32 W7 1_555 1_555
O33 W7 1_555 1_555
O35 W7 1_555 1_555
O40 Ni4 1_555 1_555
O41 Ni2 1_555 1_555
O42 C9 1_555 1_555
O43 C9 1_555 1_555
O44 Ni1 1_555 1_555
O45 Ni1 1_555 1_555
O46 Ni3 1_555 1_555
O47 Ni6 1_555 1_555
O48 Ni4 1_555 1_555
C1 C2 1_555 1_555
C2 H1 1_555 1_555
C3 C2 1_555 1_555
C4 C3 1_555 1_555
C5 C4 1_555 1_555
H2 C5 1_555 1_555
C6 C1 1_555 1_555
H3 C6 1_555 1_555
C7 C4 1_555 1_555
C8 O40 1_555 1_555
C9 C1 1_555 1_555
Ni7 O42 1_555 1_555
O50 Ni6 1_555 1_555
O51 Ni5 1_555 1_555
O52 Ni6 1_555 1_555
O53 Ni1 1_555 1_555
W2 O13 1_555 1_555
W2 O14 1_555 1_555
W3 O16 1_555 1_555
W6 O11 1_555 1_555
W6 O23 1_555 1_555
W6 O24 1_555 1_555
W7 O26 1_555 1_555
W7 O27 1_555 1_555
Ni2 O9 1_555 1_555
Ni3 O4 1_555 1_555
Ni3 O10 1_555 1_555
Ni4 O8 1_555 1_555
Ni5 O3 1_555 1_555
Ni5 O7 1_555 1_555
Ni5 O10 1_555 1_555
Ni6 O5 1_555 1_555
Ni6 O6 1_555 1_555
P1 O13 1_555 1_555
P1 O18 1_555 1_555
P1 O23 1_555 1_555
O41 C8 1_555 1_555
C3 C8 1_555 1_555
C5 C6 1_555 1_555
O46 H4 1_555 1_555
O46 H5 1_555 1_555
O47 H6 1_555 1_555
O47 H7 1_555 1_555
O44 H8 1_555 1_555
O44 H9 1_555 1_555
O45 H10 1_555 1_555
O45 H11 1_555 1_555
O48 H12 1_555 1_555
O48 H13 1_555 1_555
W6_2 O9_2 1_555 1_555
Ni1_2 O1_2 1_555 1_555
Ni2_2 O1_2 1_555 1_555
Ni3_2 O1_2 1_555 1_555
Ni4_2 O3_2 1_555 1_555
Ni5_2 O2_2 1_555 1_555
O2_2 Ni3_2 1_555 1_555
O3_2 Ni2_2 1_555 1_555
O7_2 Ni4_2 1_555 1_555
O8_2 Ni2_2 1_555 1_555
O9_2 Ni1_2 1_555 1_555
O10_2 Ni2_2 1_555 1_555
O25_2 W6_2 1_555 1_555
O31_2 W6_2 1_555 1_555
O40_2 Ni4_2 1_555 1_555
O41_2 Ni2_2 1_555 1_555
O42_2 C9_2 1_555 1_555
O43_2 C9_2 1_555 1_555
O44_2 Ni1_2 1_555 1_555
O45_2 Ni1_2 1_555 1_555
O48_2 Ni4_2 1_555 1_555
C1_2 C2_2 1_555 1_555
C2_2 H1_2 1_555 1_555
C3_2 C2_2 1_555 1_555
C4_2 C3_2 1_555 1_555
C5_2 C4_2 1_555 1_555
H2_2 C5_2 1_555 1_555
C6_2 C1_2 1_555 1_555
H3_2 C6_2 1_555 1_555
C7_2 C4_2 1_555 1_555
C8_2 O40_2 1_555 1_555
C9_2 C1_2 1_555 1_555
Ni7_2 O42_2 1_555 1_555
O51_2 Ni5_2 1_555 1_555
O53_2 Ni1_2 1_555 1_555
W6_2 O24_2 1_555 1_555
Ni2_2 O9_2 1_555 1_555
Ni3_2 O10_2 1_555 1_555
Ni4_2 O8_2 1_555 1_555
Ni5_2 O3_2 1_555 1_555
Ni5_2 O7_2 1_555 1_555
Ni5_2 O10_2 1_555 1_555
O41_2 C8_2 1_555 1_555
C3_2 C8_2 1_555 1_555
C5_2 C6_2 1_555 1_555
O44_2 H8_2 1_555 1_555
O44_2 H9_2 1_555 1_555
O45_2 H10_2 1_555 1_555
O45_2 H11_2 1_555 1_555
O48_2 H12_2 1_555 1_555
O48_2 H13_2 1_555 1_555
O22_2 W5_2 1_555 1_555
O30_2 W5_2 1_555 1_555
Ni9_2 O38_2 1_555 1_555
Ni10_2 O22_2 1_555 1_555
W5_2 O21_2 1_555 1_555
O39_2 Ni10_2 1_555 1_555
O20_3 W4_2 1_555 1_555
O21_3 W4_2 1_555 1_555
O50 W5_3 1_555 1_555
O29_2 W4_2 1_555 1_555
O30_3 W5_3 1_555 1_555
O34_2 W8_2 1_555 1_555
O36_2 W8_2 1_555 1_555
O37_2 W9_2 1_555 1_555
W5_3 O21_3 1_555 1_555
W8_2 O29_2 1_555 1_555
W9_2 O30_3 1_555 1_555
W9_2 O34_2 1_555 1_555
W1_2 O4_2 1_555 1_555
W2_2 O5_2 1_555 1_555
W3_2 O6_2 1_555 1_555
W6_3 O9_3 1_555 1_555
W7_2 O13_2 1_555 1_555
Ni7_2 O1_3 1_555 1_555
Ni2_3 O1_3 1_555 1_555
Ni3_3 O1_3 1_555 1_555
Ni8 O3_3 1_555 1_555
Ni9_2 O2_3 1_555 1_555
Ni10_2 O2_3 1_555 1_555
P1_2 O10_3 1_555 1_555
O2_3 Ni3_3 1_555 1_555
O3_3 Ni2_3 1_555 1_555
O4_2 Ni7_2 1_555 1_555
O5_2 Ni3_3 1_555 1_555
O6_2 Ni9_2 1_555 1_555
O7_3 Ni8 1_555 1_555
O8_3 Ni2_3 1_555 1_555
O9_3 Ni7_2 1_555 1_555
O10_3 Ni2_3 1_555 1_555
O11_2 W1_2 1_555 1_555
O12_2 W1_2 1_555 1_555
O13_2 W1_2 1_555 1_555
O14_2 W1_2 1_555 1_555
O15_2 W2_2 1_555 1_555
O16_2 W2_2 1_555 1_555
O49_2 W3_2 1_555 1_555
O18_2 W3_2 1_555 1_555
O19_2 W3_2 1_555 1_555
O25_3 W6_3 1_555 1_555
O26_2 W1_2 1_555 1_555
O27_2 W2_2 1_555 1_555
O28_2 W3_2 1_555 1_555
O31_3 W6_3 1_555 1_555
O32_2 W7_2 1_555 1_555
O33_2 W7_2 1_555 1_555
O35_2 W7_2 1_555 1_555
O40_3 Ni8 1_555 1_555
O41_3 Ni2_3 1_555 1_555
O53 C9_3 1_555 1_555
O43_3 C9_3 1_555 1_555
O44_3 Ni7_2 1_555 1_555
O45_3 Ni7_2 1_555 1_555
O46_2 Ni3_3 1_555 1_555
O47_2 Ni10_2 1_555 1_555
O48_3 Ni8 1_555 1_555
C1_3 C2_3 1_555 1_555
C2_3 H1_3 1_555 1_555
C3_3 C2_3 1_555 1_555
C4_3 C3_3 1_555 1_555
C5_3 C4_3 1_555 1_555
H2_3 C5_3 1_555 1_555
C6_3 C1_3 1_555 1_555
H3_3 C6_3 1_555 1_555
C7_3 C4_3 1_555 1_555
C8_3 O40_3 1_555 1_555
C9_3 C1_3 1_555 1_555
W2_2 O13_2 1_555 1_555
W2_2 O14_2 1_555 1_555
W3_2 O16_2 1_555 1_555
W6_3 O11_2 1_555 1_555
W6_3 O23_2 1_555 1_555
W6_3 O24_3 1_555 1_555
W7_2 O26_2 1_555 1_555
W7_2 O27_2 1_555 1_555
Ni2_3 O9_3 1_555 1_555
Ni3_3 O4_2 1_555 1_555
Ni3_3 O10_3 1_555 1_555
Ni8 O8_3 1_555 1_555
Ni9_2 O3_3 1_555 1_555
Ni9_2 O7_3 1_555 1_555
Ni9_2 O10_3 1_555 1_555
Ni10_2 O5_2 1_555 1_555
Ni10_2 O6_2 1_555 1_555
P1_2 O13_2 1_555 1_555
P1_2 O18_2 1_555 1_555
P1_2 O23_2 1_555 1_555
O41_3 C8_3 1_555 1_555
C3_3 C8_3 1_555 1_555
C5_3 C6_3 1_555 1_555
O46_2 H4_3 1_555 1_555
O46_2 H5_2 1_555 1_555
O47_2 H6_2 1_555 1_555
O47_2 H7_2 1_555 1_555
O44_3 H8_3 1_555 1_555
O44_3 H9_3 1_555 1_555
O45_3 H10_3 1_555 1_555
O45_3 H11_3 1_555 1_555
O48_3 H12_3 1_555 1_555
O48_3 H13_3 1_555 1_555
W1_3 O4_3 1_555 1_555
W2_3 O5_3 1_555 1_555
W3_3 O6_3 1_555 1_555
W6_4 O9_4 1_555 1_555
W7_3 O13_3 1_555 1_555
Ni7 O1_4 1_555 1_555
Ni2_4 O1_4 1_555 1_555
Ni3_4 O1_4 1_555 1_555
Ni8_2 O3_4 1_555 1_555
Ni9 O2_4 1_555 1_555
Ni10 O2_4 1_555 1_555
P1_3 O10_4 1_555 1_555
O2_4 Ni3_4 1_555 1_555
O3_4 Ni2_4 1_555 1_555
O4_3 Ni7 1_555 1_555
O5_3 Ni3_4 1_555 1_555
O6_3 Ni9 1_555 1_555
O7_4 Ni8_2 1_555 1_555
O8_4 Ni2_4 1_555 1_555
O9_4 Ni7 1_555 1_555
O10_4 Ni2_4 1_555 1_555
O11_3 W1_3 1_555 1_555
O12_3 W1_3 1_555 1_555
O13_3 W1_3 1_555 1_555
O14_3 W1_3 1_555 1_555
O15_3 W2_3 1_555 1_555
O16_3 W2_3 1_555 1_555
O49 W3_3 1_555 1_555
O18_3 W3_3 1_555 1_555
O19_3 W3_3 1_555 1_555
O25_4 W6_4 1_555 1_555
O26_3 W1_3 1_555 1_555
O27_3 W2_3 1_555 1_555
O28_3 W3_3 1_555 1_555
O31_4 W6_4 1_555 1_555
O32_3 W7_3 1_555 1_555
O33_3 W7_3 1_555 1_555
O35_3 W7_3 1_555 1_555
O40_4 Ni8_2 1_555 1_555
O41_4 Ni2_4 1_555 1_555
O44_4 Ni7 1_555 1_555
O45_4 Ni7 1_555 1_555
O46_3 Ni3_4 1_555 1_555
O47_3 Ni10 1_555 1_555
O48_4 Ni8_2 1_555 1_555
C8_4 O40_4 1_555 1_555
W2_3 O13_3 1_555 1_555
W2_3 O14_3 1_555 1_555
W3_3 O16_3 1_555 1_555
W6_4 O11_3 1_555 1_555
W6_4 O23_3 1_555 1_555
W6_4 O24_4 1_555 1_555
W7_3 O26_3 1_555 1_555
W7_3 O27_3 1_555 1_555
Ni2_4 O9_4 1_555 1_555
Ni3_4 O4_3 1_555 1_555
Ni3_4 O10_4 1_555 1_555
Ni8_2 O8_4 1_555 1_555
Ni9 O3_4 1_555 1_555
Ni9 O7_4 1_555 1_555
Ni9 O10_4 1_555 1_555
Ni10 O5_3 1_555 1_555
Ni10 O6_3 1_555 1_555
P1_3 O13_3 1_555 1_555
P1_3 O18_3 1_555 1_555
P1_3 O23_3 1_555 1_555
O41_4 C8_4 1_555 1_555
C3_4 C8_4 1_555 1_555
O46_3 H4_4 1_555 1_555
O46_3 H5_3 1_555 1_555
O47_3 H6_3 1_555 1_555
O47_3 H7_3 1_555 1_555
O44_4 H8_4 1_555 1_555
O44_4 H9_4 1_555 1_555
O45_4 H10_4 1_555 1_555
O45_4 H11_4 1_555 1_555
O48_4 H12_4 1_555 1_555
O48_4 H13_4 1_555 1_555
O53_2 C9_4 1_555 1_555
O43_4 C9_4 1_555 1_555
C1_4 C2_4 1_555 1_555
C5_4 C4_4 1_555 1_555
H2_4 C5_4 1_555 1_555
C6_4 C1_4 1_555 1_555
H3_4 C6_4 1_555 1_555
C7_4 C4_4 1_555 1_555
C9_4 C1_4 1_555 1_555
C5_4 C6_4 1_555 1_555
W1_4 O4_4 1_555 1_555
W2_4 O5_4 1_555 1_555
W3_4 O6_4 1_555 1_555
W7_4 O13_4 1_555 1_555
O11_4 W1_4 1_555 1_555
O12_4 W1_4 1_555 1_555
O13_4 W1_4 1_555 1_555
O14_4 W1_4 1_555 1_555
O15_4 W2_4 1_555 1_555
O16_4 W2_4 1_555 1_555
O17_2 W3_4 1_555 1_555
O18_4 W3_4 1_555 1_555
O19_4 W3_4 1_555 1_555
O26_4 W1_4 1_555 1_555
O27_4 W2_4 1_555 1_555
O28_4 W3_4 1_555 1_555
O32_4 W7_4 1_555 1_555
O33_4 W7_4 1_555 1_555
O35_4 W7_4 1_555 1_555
O47_4 Ni6_2 1_555 1_555
O50_2 Ni6_2 1_555 1_555
O52_2 Ni6_2 1_555 1_555
W2_4 O13_4 1_555 1_555
W2_4 O14_4 1_555 1_555
W3_4 O16_4 1_555 1_555
W7_4 O26_4 1_555 1_555
W7_4 O27_4 1_555 1_555
Ni6_2 O5_4 1_555 1_555
Ni6_2 O6_4 1_555 1_555
P1_4 O13_4 1_555 1_555
P1_4 O18_4 1_555 1_555
P1_4 O23_4 1_555 1_555
O46_4 H5_4 1_555 1_555
O47_4 H6_4 1_555 1_555
O47_4 H7_4 1_555 1_555
O20_4 W4_3 1_555 1_555
O21_4 W4_3 1_555 1_555
O50_2 W5_4 1_555 1_555
O29_3 W4_3 1_555 1_555
O30_4 W5_4 1_555 1_555
O34_3 W8_3 1_555 1_555
O36_3 W8_3 1_555 1_555
O37_3 W9_3 1_555 1_555
W5_4 O21_4 1_555 1_555
W8_3 O29_3 1_555 1_555
W9_3 O30_4 1_555 1_555
W9_3 O34_3 1_555 1_555
O29_4 W4_4 1_555 1_555
O34_4 W8_4 1_555 1_555
O36_4 W8_4 1_555 1_555
O37_4 W9_4 1_555 1_555
W8_4 O29_4 1_555 1_555
W9_4 O34_4 1_555 1_555

#END
