
###############################################################################
#
# This file contains modified crystal structure data generated from the
# MOF subset of the Cambridge Structural Database (CSD) v543 
# hosted by the Cambridge Crystallographic Data Centre (CCDC).
#
# This work is licensed under the Creative Commons
# Attribution-NonCommercial-ShareAlike 4.0 International License.
# To view a copy of this license, visit
# http://creativecommons.org/licenses/by-nc-sa/4.0/
# or send a letter to
# Creative Commons, PO Box 1866, Mountain View, CA 94042, USA.
#
# CIF created using the CSD Python API on 29 September 2022
# The structure has been converted into the P1 space group
# The structure has a 3D framework
# The original CSD entry FEGLUC is in the monoclinic crystal system
# The framework has been calculated to contain at least 10.0% void space
# The void calculation uses a probe of radius 1.32A, grid spacing 0.4
#
###############################################################################

data_FEGLUC
_chemical_formula_moiety         '(C292 H192 I48 N92 Zn24)n'
_symmetry_cell_setting           triclinic
_symmetry_space_group_name_H-M   'P 1'
_symmetry_Int_Tables_number      1
_space_group_name_Hall           'P 1'
loop_
_symmetry_equiv_pos_site_id
_symmetry_equiv_pos_as_xyz
1 x,y,z
_cell_length_a                   33.490(7)
_cell_length_b                   14.180(3)
_cell_length_c                   29.740(6)
_cell_angle_alpha                90
_cell_angle_beta                 102.09(3)
_cell_angle_gamma                90
_cell_volume                     13809.9
loop_
_atom_site_label
_atom_site_type_symbol
_atom_site_fract_x
_atom_site_fract_y
_atom_site_fract_z
I3 I 0.6298(2) 0.1712(5) 0.20285(18)
I5 I 0.7383(2) 0.2294(5) 0.3019(2)
Zn3 Zn 0.6748(3) 0.1431(7) 0.2775(3)
N1 N 0.5414(4) 0.1393(9) 0.4123(4)
C1 C 0.5715(4) 0.2060(11) 0.4107(4)
N2 N 0.5763(4) 0.2827(10) 0.4405(5)
C2 C 0.5511(4) 0.2926(9) 0.4718(4)
N3 N 0.5210(4) 0.2258(11) 0.4734(4)
C3 C 0.5162(4) 0.1491(10) 0.4436(5)
N4 N 0.1801(3) 0.1804(10) 0.2500(4)
C4 C 0.2057(4) 0.2333(8) 0.2835(5)
N5 N 0.2398(4) 0.1916(11) 0.3110(4)
C5 C 0.2484(3) 0.0971(11) 0.3049(4)
N6 N 0.2228(4) 0.0443(9) 0.2714(4)
C6 C 0.1886(4) 0.0859(10) 0.2439(4)
C7 C 0.5560(5) 0.3661(10) 0.4964(4)
C8 C 0.5906(4) 0.4221(12) 0.5000(5)
H1 H 0.610252 0.407097 0.483144
C9 C 0.5959(4) 0.5004(12) 0.5287(5)
H2 H 0.619043 0.537872 0.531085
N7 N 0.5666(5) 0.5228(10) 0.5538(4)
C10 C 0.5320(4) 0.4668(11) 0.5503(4)
H3 H 0.512356 0.481765 0.567081
C11 C 0.5267(4) 0.3884(10) 0.5215(5)
H4 H 0.503565 0.350990 0.519141
C12 C 0.5925(4) 0.1930(11) 0.3831(4)
C13 C 0.6296(4) 0.2401(11) 0.3895(4)
H5 H 0.637102 0.281995 0.413881
C14 C 0.6557(4) 0.2245(11) 0.3595(5)
H6 H 0.680526 0.255948 0.363751
N8 N 0.6445(4) 0.1618(11) 0.3231(4)
C15 C 0.6073(5) 0.1147(11) 0.3167(4)
H7 H 0.599867 0.072815 0.292345
C16 C 0.5813(4) 0.1303(11) 0.3467(5)
H8 H 0.556442 0.098861 0.342475
C17 C 0.2752(4) 0.0625(11) 0.3322(4)
C18 C 0.2984(5) 0.1075(9) 0.3705(5)
H9 H 0.293702 0.170774 0.375889
C19 C 0.3285(4) 0.0581(12) 0.4006(4)
H10 H 0.343936 0.088245 0.426175
C22 C 0.4356(5) 0.0364(13) 0.4816(4)
H13 H 0.424000 0.032431 0.507338
C23 C 0.4683(5) 0.0971(12) 0.4817(4)
H14 H 0.478440 0.133713 0.507528
C24 C 0.4857(4) 0.1030(12) 0.4433(5)
C25 C 0.4705(5) 0.0482(14) 0.4048(4)
H15 H 0.482107 0.052147 0.379058
N11 N 0.1870(5) 0.5153(10) 0.2810(5)
C27 C 0.2212(5) 0.4780(10) 0.3103(5)
H17 H 0.239908 0.517895 0.328521
C28 C 0.2273(4) 0.3810(11) 0.3124(5)
H18 H 0.250174 0.356028 0.332040
C29 C 0.1993(5) 0.3214(9) 0.2852(6)
C30 C 0.1651(5) 0.3587(13) 0.2559(5)
H19 H 0.146364 0.318829 0.237729
C31 C 0.1590(4) 0.4557(14) 0.2538(5)
H20 H 0.136097 0.480696 0.234209
C33 C 0.1070(4) 0.0367(13) 0.1520(5)
H22 H 0.083728 0.064999 0.134701
C34 C 0.1326(5) 0.0873(11) 0.1864(5)
H23 H 0.126443 0.149576 0.192179
C35 C 0.1674(4) 0.0450(12) 0.2123(4)
Zn4 Zn 0.5772(3) 0.6199(7) 0.5970(2)
Zn5 Zn 0.1748(3) 0.6431(7) 0.2775(3)
N14 N 0.6870(5) 0.0153(10) 0.2810(5)
I3_2 I 0.1298(2) 0.6712(5) 0.20285(18)
I5_2 I 0.2383(2) 0.7294(5) 0.3019(2)
N1_2 N 0.0414(4) 0.6393(9) 0.4123(4)
C1_2 C 0.0715(4) 0.7060(11) 0.4107(4)
N2_2 N 0.0763(4) 0.7827(10) 0.4405(5)
C2_2 C 0.0511(4) 0.7926(9) 0.4718(4)
N3_2 N 0.0210(4) 0.7258(11) 0.4734(4)
C3_2 C 0.0162(4) 0.6491(10) 0.4436(5)
C7_2 C 0.0560(5) 0.8661(10) 0.4964(4)
C8_2 C 0.0906(4) 0.9221(12) 0.5000(5)
H1_2 H 0.110252 0.907097 0.483144
C10_2 C 0.0320(4) 0.9668(11) 0.5503(4)
H3_2 H 0.012356 0.981765 0.567081
C11_2 C 0.0267(4) 0.8884(10) 0.5215(5)
H4_2 H 0.003565 0.850990 0.519141
C12_2 C 0.0925(4) 0.6930(11) 0.3831(4)
C13_2 C 0.1296(4) 0.7401(11) 0.3895(4)
H5_2 H 0.137102 0.781995 0.413881
C14_2 C 0.1557(4) 0.7245(11) 0.3595(5)
H6_2 H 0.180526 0.755948 0.363751
N8_2 N 0.1445(4) 0.6618(11) 0.3231(4)
C15_2 C 0.1073(5) 0.6147(11) 0.3167(4)
H7_2 H 0.099867 0.572815 0.292345
C16_2 C 0.0813(4) 0.6303(11) 0.3467(5)
H8_2 H 0.056442 0.598861 0.342475
H17_2 H 0.739908 0.017895 0.328521
I1 I 0.51881(16) 0.6440(5) 0.63132(15)
I2 I 0.6126(2) 0.7383(4) 0.56213(16)
I4 I 0.8909(2) 0.7407(5) 0.9023(2)
Zn2 Zn 0.8748(2) 0.5988(8) 0.9366(3)
N4_2 N 0.6801(3) 0.3196(10) 0.7500(4)
C4_2 C 0.7057(4) 0.2667(8) 0.7835(5)
N5_2 N 0.7398(4) 0.3084(11) 0.8110(4)
C5_2 C 0.7484(3) 0.4029(11) 0.8049(4)
N6_2 N 0.7228(4) 0.4557(9) 0.7714(4)
C6_2 C 0.6886(4) 0.4141(10) 0.7439(4)
C17_2 C 0.7752(4) 0.4375(11) 0.8322(4)
C18_2 C 0.7984(5) 0.3925(9) 0.8705(5)
H9_2 H 0.793702 0.329226 0.875889
C19_2 C 0.8285(4) 0.4419(12) 0.9006(4)
H10_2 H 0.843936 0.411755 0.926175
N9 N 0.8354(4) 0.5364(12) 0.8925(4)
C20 C 0.8123(5) 0.5815(10) 0.8543(5)
H11 H 0.816955 0.644721 0.848850
C21 C 0.7822(4) 0.5320(11) 0.8241(4)
H12 H 0.766721 0.562192 0.798564
N10 N 0.9204(4) 0.5184(13) 0.9431(5)
C22_2 C 0.9356(5) 0.4636(13) 0.9816(4)
C23_2 C 0.9683(5) 0.4029(12) 0.9817(4)
C24_2 C 0.9857(4) 0.3970(12) 0.9433(5)
C25_2 C 0.9705(5) 0.4518(14) 0.9048(4)
H15_2 H 0.982107 0.447853 0.879058
C26 C 0.9378(5) 0.5125(14) 0.9047(5)
H16 H 0.927668 0.549136 0.878867
C27_2 C 0.7212(5) 0.0220(10) 0.8103(5)
C28_2 C 0.7273(4) 0.1190(11) 0.8124(5)
H18_2 H 0.750174 0.143972 0.832040
C29_2 C 0.6993(5) 0.1786(9) 0.7852(6)
C30_2 C 0.6651(5) 0.1413(13) 0.7559(5)
H19_2 H 0.646364 0.181171 0.737729
C31_2 C 0.6590(4) 0.0443(14) 0.7538(5)
H20_2 H 0.636097 0.019304 0.734209
C32 C 0.6509(5) 0.5987(10) 0.6692(5)
H21 H 0.657079 0.660899 0.663490
N12 N 0.6162(4) 0.5563(12) 0.6434(4)
C33_2 C 0.6070(4) 0.4633(13) 0.6520(5)
H22_2 H 0.583728 0.435001 0.634701
C34_2 C 0.6326(5) 0.4127(11) 0.6864(5)
H23_2 H 0.626443 0.350424 0.692179
C35_2 C 0.6674(4) 0.4550(12) 0.7123(4)
C36 C 0.6765(4) 0.5480(12) 0.7037(4)
H24 H 0.699794 0.576320 0.720969
I1_2 I 0.01881(16) 0.8560(5) 0.13132(15)
I2_2 I 0.1126(2) 0.7617(4) 0.06213(16)
I4_2 I 0.3909(2) 0.7593(5) 0.4023(2)
I6 I 0.35149(17) 0.9090(6) 0.50885(18)
Zn1 Zn 0.0772(3) 0.8801(7) 0.0970(2)
Zn2_2 Zn 0.3748(2) 0.9012(8) 0.4366(3)
N9_2 N 0.3354(4) 0.9636(12) 0.3925(4)
C20_2 C 0.3123(5) 0.9185(10) 0.3543(5)
H11_2 H 0.316955 0.855279 0.348850
C21_2 C 0.2822(4) 0.9680(11) 0.3241(4)
H12_2 H 0.266721 0.937808 0.298564
N10_2 N 0.4204(4) 0.9816(13) 0.4431(5)
C26_2 C 0.4378(5) 0.9875(14) 0.4047(5)
H16_2 H 0.427668 0.950864 0.378867
C32_2 C 0.1509(5) 0.9013(10) 0.1692(5)
H21_2 H 0.157079 0.839101 0.163490
N12_2 N 0.1162(4) 0.9437(12) 0.1434(4)
C36_2 C 0.1765(4) 0.9520(12) 0.2037(4)
H24_2 H 0.199794 0.923680 0.220969
N13 N 0.0666(5) 0.9772(10) 0.0538(4)
C9_2 C 0.0959(4) 0.9996(12) 0.0287(5)
H2_2 H 0.119043 0.962128 0.031085
I3_3 I 0.3702(2) 0.1712(5) 0.29715(18)
I5_3 I 0.2617(2) 0.2294(5) 0.1981(2)
Zn3_2 Zn 0.3252(3) 0.1431(7) 0.2225(3)
N1_3 N 0.4586(4) 0.1393(9) 0.0877(4)
C1_3 C 0.4285(4) 0.2060(11) 0.0893(4)
N2_3 N 0.4237(4) 0.2827(10) 0.0595(5)
C2_3 C 0.4489(4) 0.2926(9) 0.0282(4)
N3_3 N 0.4790(4) 0.2258(11) 0.0266(4)
C3_3 C 0.4838(4) 0.1491(10) 0.0564(5)
N4_3 N 0.8199(3) 0.1804(10) 0.2500(4)
C4_3 C 0.7943(4) 0.2333(8) 0.2165(5)
N5_3 N 0.7602(4) 0.1916(11) 0.1890(4)
C5_3 C 0.7516(3) 0.0971(11) 0.1951(4)
N6_3 N 0.7772(4) 0.0443(9) 0.2286(4)
C6_3 C 0.8114(4) 0.0859(10) 0.2561(4)
C7_3 C 0.4440(5) 0.3661(10) 0.0036(4)
C8_3 C 0.4094(4) 0.4221(12) -0.0000(5)
H1_3 H 0.389748 0.407097 0.016856
C12_3 C 0.4075(4) 0.1930(11) 0.1169(4)
C13_3 C 0.3704(4) 0.2401(11) 0.1105(4)
H5_3 H 0.362898 0.281995 0.086119
C14_3 C 0.3443(4) 0.2245(11) 0.1405(5)
H6_3 H 0.319474 0.255948 0.136249
N8_3 N 0.3555(4) 0.1618(11) 0.1769(4)
C15_3 C 0.3927(5) 0.1147(11) 0.1833(4)
H7_3 H 0.400133 0.072815 0.207655
C16_3 C 0.4187(4) 0.1303(11) 0.1533(5)
H8_3 H 0.443558 0.098861 0.157525
C17_3 C 0.7248(4) 0.0625(11) 0.1678(4)
C18_3 C 0.7016(5) 0.1075(9) 0.1295(5)
H9_3 H 0.706298 0.170774 0.124111
C19_3 C 0.6715(4) 0.0581(12) 0.0994(4)
H10_3 H 0.656064 0.088245 0.073825
C22_3 C 0.5644(5) 0.0364(13) 0.0184(4)
C23_3 C 0.5317(5) 0.0971(12) 0.0183(4)
C24_3 C 0.5143(4) 0.1030(12) 0.0567(5)
C25_3 C 0.5295(5) 0.0482(14) 0.0952(4)
H15_3 H 0.517893 0.052147 0.120942
N11_2 N 0.8130(5) 0.5153(10) 0.2190(5)
C27_3 C 0.7788(5) 0.4780(10) 0.1897(5)
H17_3 H 0.760092 0.517895 0.171479
C28_3 C 0.7727(4) 0.3810(11) 0.1876(5)
H18_3 H 0.749826 0.356028 0.167960
C29_3 C 0.8007(5) 0.3214(9) 0.2148(6)
C30_3 C 0.8349(5) 0.3587(13) 0.2441(5)
H19_3 H 0.853636 0.318829 0.262271
C31_3 C 0.8410(4) 0.4557(14) 0.2462(5)
H20_3 H 0.863903 0.480696 0.265791
C33_3 C 0.8930(4) 0.0367(13) 0.3480(5)
H22_3 H 0.916272 0.064999 0.365299
C34_3 C 0.8674(5) 0.0873(11) 0.3136(5)
H23_3 H 0.873557 0.149576 0.307821
C35_3 C 0.8326(4) 0.0450(12) 0.2877(4)
Zn5_2 Zn 0.8252(3) 0.6431(7) 0.2225(3)
N14_2 N 0.3130(5) 0.0153(10) 0.2190(5)
H17_4 H 0.260092 0.017895 0.171479
I3_4 I 0.8702(2) 0.6712(5) 0.29715(18)
I5_4 I 0.7617(2) 0.7294(5) 0.1981(2)
N1_4 N 0.9586(4) 0.6393(9) 0.0877(4)
C1_4 C 0.9285(4) 0.7060(11) 0.0893(4)
N2_4 N 0.9237(4) 0.7827(10) 0.0595(5)
C2_4 C 0.9489(4) 0.7926(9) 0.0282(4)
N3_4 N 0.9790(4) 0.7258(11) 0.0266(4)
C3_4 C 0.9838(4) 0.6491(10) 0.0564(5)
C7_4 C 0.9440(5) 0.8661(10) 0.0036(4)
C8_4 C 0.9094(4) 0.9221(12) -0.0000(5)
H1_4 H 0.889748 0.907097 0.016856
C12_4 C 0.9075(4) 0.6930(11) 0.1169(4)
C13_4 C 0.8704(4) 0.7401(11) 0.1105(4)
H5_4 H 0.862898 0.781995 0.086119
C14_4 C 0.8443(4) 0.7245(11) 0.1405(5)
H6_4 H 0.819474 0.755948 0.136249
N8_4 N 0.8555(4) 0.6618(11) 0.1769(4)
C15_4 C 0.8927(5) 0.6147(11) 0.1833(4)
H7_4 H 0.900133 0.572815 0.207655
C16_4 C 0.9187(4) 0.6303(11) 0.1533(5)
H8_4 H 0.943558 0.598861 0.157525
C8_5 C 0.4094(4) 0.4221(12) 1.0000(5)
C9_3 C 0.4041(4) 0.5004(12) 0.9713(5)
H2_3 H 0.380957 0.537872 0.968915
N7_2 N 0.4334(5) 0.5228(10) 0.9462(4)
C10_3 C 0.4680(4) 0.4668(11) 0.9497(4)
H3_3 H 0.487644 0.481765 0.932919
C11_3 C 0.4733(4) 0.3884(10) 0.9785(5)
H4_3 H 0.496435 0.350990 0.980859
H13_2 H 0.576000 0.032431 0.992662
H14_2 H 0.521560 0.133713 0.992472
Zn4_2 Zn 0.4228(3) 0.6199(7) 0.9030(2)
I1_3 I 0.48119(16) 0.6440(5) 0.86868(15)
I2_3 I 0.3874(2) 0.7383(4) 0.93787(16)
I4_3 I 0.1091(2) 0.7407(5) 0.5977(2)
I6_2 I 0.14851(17) 0.5910(6) 0.49115(18)
Zn2_3 Zn 0.1252(2) 0.5988(8) 0.5634(3)
N4_4 N 0.3199(3) 0.3196(10) 0.7500(4)
C4_4 C 0.2943(4) 0.2667(8) 0.7165(5)
N5_4 N 0.2602(4) 0.3084(11) 0.6890(4)
C5_4 C 0.2516(3) 0.4029(11) 0.6951(4)
N6_4 N 0.2772(4) 0.4557(9) 0.7286(4)
C6_4 C 0.3114(4) 0.4141(10) 0.7561(4)
C17_4 C 0.2248(4) 0.4375(11) 0.6678(4)
C18_4 C 0.2016(5) 0.3925(9) 0.6295(5)
H9_4 H 0.206298 0.329226 0.624111
C19_4 C 0.1715(4) 0.4419(12) 0.5994(4)
H10_4 H 0.156064 0.411755 0.573825
N9_3 N 0.1646(4) 0.5364(12) 0.6075(4)
C20_3 C 0.1877(5) 0.5815(10) 0.6457(5)
H11_3 H 0.183045 0.644721 0.651150
C21_3 C 0.2178(4) 0.5320(11) 0.6759(4)
H12_3 H 0.233279 0.562192 0.701436
N10_3 N 0.0796(4) 0.5184(13) 0.5569(5)
C22_4 C 0.0644(5) 0.4636(13) 0.5184(4)
H13_3 H 0.076000 0.467569 0.492662
C23_4 C 0.0317(5) 0.4029(12) 0.5183(4)
H14_3 H 0.021560 0.366287 0.492472
C24_4 C 0.0143(4) 0.3970(12) 0.5567(5)
C25_4 C 0.0295(5) 0.4518(14) 0.5952(4)
H15_4 H 0.017893 0.447853 0.620942
C26_3 C 0.0622(5) 0.5125(14) 0.5953(5)
H16_3 H 0.072332 0.549136 0.621133
C27_4 C 0.2788(5) 0.0220(10) 0.6897(5)
C28_4 C 0.2727(4) 0.1190(11) 0.6876(5)
H18_4 H 0.249826 0.143972 0.667960
C29_4 C 0.3007(5) 0.1786(9) 0.7148(6)
C30_4 C 0.3349(5) 0.1413(13) 0.7441(5)
H19_4 H 0.353636 0.181171 0.762271
C31_4 C 0.3410(4) 0.0443(14) 0.7462(5)
H20_4 H 0.363903 0.019304 0.765791
C32_3 C 0.3491(5) 0.5987(10) 0.8308(5)
H21_3 H 0.342921 0.660899 0.836510
N12_3 N 0.3838(4) 0.5563(12) 0.8566(4)
C33_4 C 0.3930(4) 0.4633(13) 0.8480(5)
H22_4 H 0.416272 0.435001 0.865299
C34_4 C 0.3674(5) 0.4127(11) 0.8136(5)
H23_4 H 0.373557 0.350424 0.807821
C35_4 C 0.3326(4) 0.4550(12) 0.7877(4)
C36_3 C 0.3235(4) 0.5480(12) 0.7963(4)
H24_3 H 0.300206 0.576320 0.779031
I1_4 I 0.98119(16) 0.8560(5) 0.36868(15)
I2_4 I 0.8874(2) 0.7617(4) 0.43787(16)
I4_4 I 0.6091(2) 0.7593(5) 0.0977(2)
Zn1_2 Zn 0.9228(3) 0.8801(7) 0.4030(2)
Zn2_4 Zn 0.6252(2) 0.9012(8) 0.0634(3)
N9_4 N 0.6646(4) 0.9636(12) 0.1075(4)
C20_4 C 0.6877(5) 0.9185(10) 0.1457(5)
H11_4 H 0.683045 0.855279 0.151150
C21_4 C 0.7178(4) 0.9680(11) 0.1759(4)
H12_4 H 0.733279 0.937808 0.201436
N10_4 N 0.5796(4) 0.9816(13) 0.0569(5)
C26_4 C 0.5622(5) 0.9875(14) 0.0953(5)
H16_4 H 0.572332 0.950864 0.121133
C32_4 C 0.8491(5) 0.9013(10) 0.3308(5)
H21_4 H 0.842921 0.839101 0.336510
N12_4 N 0.8838(4) 0.9437(12) 0.3566(4)
C36_4 C 0.8235(4) 0.9520(12) 0.2963(4)
H24_4 H 0.800206 0.923680 0.279031
N13_2 N 0.9334(5) 0.9772(10) 0.4462(4)
C9_4 C 0.9041(4) 0.9996(12) 0.4713(5)
H2_4 H 0.880957 0.962128 0.468915
I6_3 I 0.64851(17) 0.9090(6) 0.99115(18)
C9_5 C 0.0959(4) 0.0004(12) 0.5287(5)
H2_5 H 0.119043 0.037872 0.531085
N7_3 N 0.0666(5) 0.0228(10) 0.5538(4)
Zn4_3 Zn 0.0772(3) 0.1199(7) 0.5970(2)
I1_5 I 0.01881(16) 0.1440(5) 0.63132(15)
I2_5 I 0.1126(2) 0.2383(4) 0.56213(16)
I4_5 I 0.3909(2) 0.2407(5) 0.9023(2)
Zn2_5 Zn 0.3748(2) 0.0988(8) 0.9366(3)
N9_5 N 0.3354(4) 0.0364(12) 0.8925(4)
C20_5 C 0.3123(5) 0.0815(10) 0.8543(5)
H11_5 H 0.316955 0.144721 0.848850
C21_5 C 0.2822(4) 0.0320(11) 0.8241(4)
H12_5 H 0.266721 0.062192 0.798564
N10_5 N 0.4204(4) 0.0184(13) 0.9431(5)
C26_5 C 0.4378(5) 0.0125(14) 0.9047(5)
H16_5 H 0.427668 0.049136 0.878867
C32_5 C 0.1509(5) 0.0987(10) 0.6692(5)
H21_5 H 0.157079 0.160899 0.663490
N12_5 N 0.1162(4) 0.0563(12) 0.6434(4)
C36_5 C 0.1765(4) 0.0480(12) 0.7037(4)
H24_5 H 0.199794 0.076320 0.720969
I1_6 I 0.51881(16) 0.3560(5) 0.13132(15)
I2_6 I 0.6126(2) 0.2617(4) 0.06213(16)
I4_6 I 0.8909(2) 0.2593(5) 0.4023(2)
I6_4 I 0.85149(17) 0.4090(6) 0.50885(18)
Zn1_3 Zn 0.5772(3) 0.3801(7) 0.0970(2)
Zn2_6 Zn 0.8748(2) 0.4012(8) 0.4366(3)
N4_5 N 0.6801(3) 0.6804(10) 0.2500(4)
C4_5 C 0.7057(4) 0.7333(8) 0.2835(5)
N5_5 N 0.7398(4) 0.6916(11) 0.3110(4)
C5_5 C 0.7484(3) 0.5971(11) 0.3049(4)
N6_5 N 0.7228(4) 0.5443(9) 0.2714(4)
C6_5 C 0.6886(4) 0.5859(10) 0.2439(4)
C17_5 C 0.7752(4) 0.5625(11) 0.3322(4)
C18_5 C 0.7984(5) 0.6075(9) 0.3705(5)
H9_5 H 0.793702 0.670774 0.375889
C19_5 C 0.8285(4) 0.5581(12) 0.4006(4)
H10_5 H 0.843936 0.588245 0.426175
N9_6 N 0.8354(4) 0.4636(12) 0.3925(4)
C20_6 C 0.8123(5) 0.4185(10) 0.3543(5)
H11_6 H 0.816955 0.355279 0.348850
C21_6 C 0.7822(4) 0.4680(11) 0.3241(4)
H12_6 H 0.766721 0.437808 0.298564
N10_6 N 0.9204(4) 0.4816(13) 0.4431(5)
C22_5 C 0.9356(5) 0.5364(13) 0.4816(4)
H13_4 H 0.924000 0.532431 0.507338
C23_5 C 0.9683(5) 0.5971(12) 0.4817(4)
H14_4 H 0.978440 0.633713 0.507528
C24_5 C 0.9857(4) 0.6030(12) 0.4433(5)
C25_5 C 0.9705(5) 0.5482(14) 0.4048(4)
H15_5 H 0.982107 0.552147 0.379058
C26_6 C 0.9378(5) 0.4875(14) 0.4047(5)
H16_6 H 0.927668 0.450864 0.378867
C27_5 C 0.7212(5) 0.9780(10) 0.3103(5)
C28_5 C 0.7273(4) 0.8810(11) 0.3124(5)
H18_5 H 0.750174 0.856028 0.332040
C29_5 C 0.6993(5) 0.8214(9) 0.2852(6)
C30_5 C 0.6651(5) 0.8587(13) 0.2559(5)
H19_5 H 0.646364 0.818829 0.237729
C31_5 C 0.6590(4) 0.9557(14) 0.2538(5)
H20_5 H 0.636097 0.980696 0.234209
C32_6 C 0.6509(5) 0.4013(10) 0.1692(5)
H21_6 H 0.657079 0.339101 0.163490
N12_6 N 0.6162(4) 0.4437(12) 0.1434(4)
C33_5 C 0.6070(4) 0.5367(13) 0.1520(5)
H22_5 H 0.583728 0.564999 0.134701
C34_5 C 0.6326(5) 0.5873(11) 0.1864(5)
H23_5 H 0.626443 0.649576 0.192179
C35_5 C 0.6674(4) 0.5450(12) 0.2123(4)
C36_6 C 0.6765(4) 0.4520(12) 0.2037(4)
H24_6 H 0.699794 0.423680 0.220969
N13_3 N 0.5666(5) 0.4772(10) 0.0538(4)
C8_6 C 0.5906(4) 0.5779(12) 0.0000(5)
C9_6 C 0.5959(4) 0.4996(12) 0.0287(5)
H2_6 H 0.619043 0.462128 0.031085
C10_4 C 0.5320(4) 0.5332(11) 0.0503(4)
H3_4 H 0.512356 0.518235 0.067081
C11_4 C 0.5267(4) 0.6116(10) 0.0215(5)
H4_4 H 0.503565 0.649010 0.019141
H13_5 H 0.424000 0.967569 0.007338
H14_5 H 0.478440 0.866287 0.007528
I1_7 I 0.48119(16) 0.3560(5) 0.36868(15)
I2_7 I 0.3874(2) 0.2617(4) 0.43787(16)
I4_7 I 0.1091(2) 0.2593(5) 0.0977(2)
Zn1_4 Zn 0.4228(3) 0.3801(7) 0.4030(2)
Zn2_7 Zn 0.1252(2) 0.4012(8) 0.0634(3)
N4_6 N 0.3199(3) 0.6804(10) 0.2500(4)
C4_6 C 0.2943(4) 0.7333(8) 0.2165(5)
N5_6 N 0.2602(4) 0.6916(11) 0.1890(4)
C5_6 C 0.2516(3) 0.5971(11) 0.1951(4)
N6_6 N 0.2772(4) 0.5443(9) 0.2286(4)
C6_6 C 0.3114(4) 0.5859(10) 0.2561(4)
C17_6 C 0.2248(4) 0.5625(11) 0.1678(4)
C18_6 C 0.2016(5) 0.6075(9) 0.1295(5)
H9_6 H 0.206298 0.670774 0.124111
C19_6 C 0.1715(4) 0.5581(12) 0.0994(4)
H10_6 H 0.156064 0.588245 0.073825
N9_7 N 0.1646(4) 0.4636(12) 0.1075(4)
C20_7 C 0.1877(5) 0.4185(10) 0.1457(5)
H11_7 H 0.183045 0.355279 0.151150
C21_7 C 0.2178(4) 0.4680(11) 0.1759(4)
H12_7 H 0.233279 0.437808 0.201436
N10_7 N 0.0796(4) 0.4816(13) 0.0569(5)
C22_6 C 0.0644(5) 0.5364(13) 0.0184(4)
C23_6 C 0.0317(5) 0.5971(12) 0.0183(4)
C24_6 C 0.0143(4) 0.6030(12) 0.0567(5)
C25_6 C 0.0295(5) 0.5482(14) 0.0952(4)
H15_6 H 0.017893 0.552147 0.120942
C26_7 C 0.0622(5) 0.4875(14) 0.0953(5)
H16_7 H 0.072332 0.450864 0.121133
C27_6 C 0.2788(5) 0.9780(10) 0.1897(5)
C28_6 C 0.2727(4) 0.8810(11) 0.1876(5)
H18_6 H 0.249826 0.856028 0.167960
C29_6 C 0.3007(5) 0.8214(9) 0.2148(6)
C30_6 C 0.3349(5) 0.8587(13) 0.2441(5)
H19_6 H 0.353636 0.818829 0.262271
C31_6 C 0.3410(4) 0.9557(14) 0.2462(5)
H20_6 H 0.363903 0.980696 0.265791
C32_7 C 0.3491(5) 0.4013(10) 0.3308(5)
H21_7 H 0.342921 0.339101 0.336510
N12_7 N 0.3838(4) 0.4437(12) 0.3566(4)
C33_6 C 0.3930(4) 0.5367(13) 0.3480(5)
H22_6 H 0.416272 0.564999 0.365299
C34_6 C 0.3674(5) 0.5873(11) 0.3136(5)
H23_6 H 0.373557 0.649576 0.307821
C35_6 C 0.3326(4) 0.5450(12) 0.2877(4)
C36_7 C 0.3235(4) 0.4520(12) 0.2963(4)
H24_7 H 0.300206 0.423680 0.279031
N13_4 N 0.4334(5) 0.4772(10) 0.4462(4)
I3_5 I 0.3702(2) 0.8288(5) 0.79715(18)
I5_5 I 0.2617(2) 0.7706(5) 0.6981(2)
Zn3_3 Zn 0.3252(3) 0.8569(7) 0.7225(3)
N1_5 N 0.4586(4) 0.8607(9) 0.5877(4)
C1_5 C 0.4285(4) 0.7940(11) 0.5893(4)
N2_5 N 0.4237(4) 0.7173(10) 0.5595(5)
C2_5 C 0.4489(4) 0.7074(9) 0.5282(4)
N3_5 N 0.4790(4) 0.7742(11) 0.5266(4)
C3_5 C 0.4838(4) 0.8509(10) 0.5564(5)
N4_7 N 0.8199(3) 0.8196(10) 0.7500(4)
C4_7 C 0.7943(4) 0.7667(8) 0.7165(5)
N5_7 N 0.7602(4) 0.8084(11) 0.6890(4)
C5_7 C 0.7516(3) 0.9029(11) 0.6951(4)
N6_7 N 0.7772(4) 0.9557(9) 0.7286(4)
C6_7 C 0.8114(4) 0.9141(10) 0.7561(4)
C7_5 C 0.4440(5) 0.6339(10) 0.5036(4)
C8_7 C 0.4094(4) 0.5779(12) 0.5000(5)
H1_5 H 0.389748 0.592903 0.516856
C9_7 C 0.4041(4) 0.4996(12) 0.4713(5)
H2_7 H 0.380957 0.462128 0.468915
C10_5 C 0.4680(4) 0.5332(11) 0.4497(4)
H3_5 H 0.487644 0.518235 0.432919
C11_5 C 0.4733(4) 0.6116(10) 0.4785(5)
H4_5 H 0.496435 0.649010 0.480859
C12_5 C 0.4075(4) 0.8070(11) 0.6169(4)
C13_5 C 0.3704(4) 0.7599(11) 0.6105(4)
H5_5 H 0.362898 0.718005 0.586119
C14_5 C 0.3443(4) 0.7755(11) 0.6405(5)
H6_5 H 0.319474 0.744052 0.636249
N8_5 N 0.3555(4) 0.8382(11) 0.6769(4)
C15_5 C 0.3927(5) 0.8853(11) 0.6833(4)
H7_5 H 0.400133 0.927185 0.707655
C16_5 C 0.4187(4) 0.8697(11) 0.6533(5)
H8_5 H 0.443558 0.901139 0.657525
C17_7 C 0.7248(4) 0.9375(11) 0.6678(4)
C18_7 C 0.7016(5) 0.8925(9) 0.6295(5)
H9_7 H 0.706298 0.829226 0.624111
C19_7 C 0.6715(4) 0.9419(12) 0.5994(4)
H10_7 H 0.656064 0.911755 0.573825
C22_7 C 0.5644(5) 0.9636(13) 0.5184(4)
H13_6 H 0.576000 0.967569 0.492662
C23_7 C 0.5317(5) 0.9029(12) 0.5183(4)
H14_6 H 0.521560 0.866287 0.492472
C24_7 C 0.5143(4) 0.8970(12) 0.5567(5)
C25_7 C 0.5295(5) 0.9518(14) 0.5952(4)
H15_7 H 0.517893 0.947853 0.620942
N11_3 N 0.8130(5) 0.4847(10) 0.7190(5)
C27_7 C 0.7788(5) 0.5220(10) 0.6897(5)
H17_5 H 0.760092 0.482105 0.671479
C28_7 C 0.7727(4) 0.6190(11) 0.6876(5)
H18_7 H 0.749826 0.643972 0.667960
C29_7 C 0.8007(5) 0.6786(9) 0.7148(6)
C30_7 C 0.8349(5) 0.6413(13) 0.7441(5)
H19_7 H 0.853636 0.681171 0.762271
C31_7 C 0.8410(4) 0.5443(14) 0.7462(5)
H20_7 H 0.863903 0.519304 0.765791
C33_7 C 0.8930(4) 0.9633(13) 0.8480(5)
H22_7 H 0.916272 0.935001 0.865299
C34_7 C 0.8674(5) 0.9127(11) 0.8136(5)
H23_7 H 0.873557 0.850424 0.807821
C35_7 C 0.8326(4) 0.9550(12) 0.7877(4)
Zn5_3 Zn 0.8252(3) 0.3569(7) 0.7225(3)
N14_3 N 0.3130(5) 0.9847(10) 0.7190(5)
H17_6 H 0.260092 0.982105 0.671479
I3_6 I 0.8702(2) 0.3288(5) 0.79715(18)
I5_6 I 0.7617(2) 0.2706(5) 0.6981(2)
N1_6 N 0.9586(4) 0.3607(9) 0.5877(4)
C1_6 C 0.9285(4) 0.2940(11) 0.5893(4)
N2_6 N 0.9237(4) 0.2173(10) 0.5595(5)
C2_6 C 0.9489(4) 0.2074(9) 0.5282(4)
N3_6 N 0.9790(4) 0.2742(11) 0.5266(4)
C3_6 C 0.9838(4) 0.3509(10) 0.5564(5)
C7_6 C 0.9440(5) 0.1339(10) 0.5036(4)
C8_8 C 0.9094(4) 0.0779(12) 0.5000(5)
H1_6 H 0.889748 0.092903 0.516856
C10_6 C 0.9680(4) 0.0332(11) 0.4497(4)
H3_6 H 0.987644 0.018235 0.432919
C11_6 C 0.9733(4) 0.1116(10) 0.4785(5)
H4_6 H 0.996435 0.149010 0.480859
C12_6 C 0.9075(4) 0.3070(11) 0.6169(4)
C13_6 C 0.8704(4) 0.2599(11) 0.6105(4)
H5_6 H 0.862898 0.218005 0.586119
C14_6 C 0.8443(4) 0.2755(11) 0.6405(5)
H6_6 H 0.819474 0.244052 0.636249
N8_6 N 0.8555(4) 0.3382(11) 0.6769(4)
C15_6 C 0.8927(5) 0.3853(11) 0.6833(4)
H7_6 H 0.900133 0.427185 0.707655
C16_6 C 0.9187(4) 0.3697(11) 0.6533(5)
H8_6 H 0.943558 0.401139 0.657525
I6_5 I 0.14851(17) 0.4090(6) 0.99115(18)
H13_7 H 0.076000 0.532431 0.992662
H14_7 H 0.021560 0.633713 0.992472
C9_8 C 0.9041(4) 0.0004(12) 0.9713(5)
H2_8 H 0.880957 0.037872 0.968915
N7_4 N 0.9334(5) 0.0228(10) 0.9462(4)
Zn4_4 Zn 0.9228(3) 0.1199(7) 0.9030(2)
I1_8 I 0.98119(16) 0.1440(5) 0.86868(15)
I2_8 I 0.8874(2) 0.2383(4) 0.93787(16)
I4_8 I 0.6091(2) 0.2407(5) 0.5977(2)
I6_6 I 0.64851(17) 0.0910(6) 0.49115(18)
Zn2_8 Zn 0.6252(2) 0.0988(8) 0.5634(3)
N9_8 N 0.6646(4) 0.0364(12) 0.6075(4)
C20_8 C 0.6877(5) 0.0815(10) 0.6457(5)
H11_8 H 0.683045 0.144721 0.651150
C21_8 C 0.7178(4) 0.0320(11) 0.6759(4)
H12_8 H 0.733279 0.062192 0.701436
N10_8 N 0.5796(4) 0.0184(13) 0.5569(5)
C26_8 C 0.5622(5) 0.0125(14) 0.5953(5)
H16_8 H 0.572332 0.049136 0.621133
C32_8 C 0.8491(5) 0.0987(10) 0.8308(5)
H21_8 H 0.842921 0.160899 0.836510
N12_8 N 0.8838(4) 0.0563(12) 0.8566(4)
C36_8 C 0.8235(4) 0.0480(12) 0.7963(4)
H24_8 H 0.800206 0.076320 0.779031
C8_9 C 0.9094(4) 0.9221(12) 1.0000(5)
C10_7 C 0.9680(4) 0.9668(11) 0.9497(4)
H3_7 H 0.987644 0.981765 0.932919
C11_7 C 0.9733(4) 0.8884(10) 0.9785(5)
H4_7 H 0.996435 0.850990 0.980859
I6_7 I 0.35149(17) 0.0910(6) 0.00885(18)
I3_7 I 0.6298(2) 0.8288(5) 0.70285(18)
I5_7 I 0.7383(2) 0.7706(5) 0.8019(2)
Zn3_4 Zn 0.6748(3) 0.8569(7) 0.7775(3)
N1_7 N 0.5414(4) 0.8607(9) 0.9123(4)
C1_7 C 0.5715(4) 0.7940(11) 0.9107(4)
N2_7 N 0.5763(4) 0.7173(10) 0.9405(5)
C2_7 C 0.5511(4) 0.7074(9) 0.9718(4)
N3_7 N 0.5210(4) 0.7742(11) 0.9734(4)
C3_7 C 0.5162(4) 0.8509(10) 0.9436(5)
N4_8 N 0.1801(3) 0.8196(10) 0.7500(4)
C4_8 C 0.2057(4) 0.7667(8) 0.7835(5)
N5_8 N 0.2398(4) 0.8084(11) 0.8110(4)
C5_8 C 0.2484(3) 0.9029(11) 0.8049(4)
N6_8 N 0.2228(4) 0.9557(9) 0.7714(4)
C6_8 C 0.1886(4) 0.9141(10) 0.7439(4)
C7_7 C 0.5560(5) 0.6339(10) 0.9964(4)
C8_10 C 0.5906(4) 0.5779(12) 1.0000(5)
H1_7 H 0.610252 0.592903 0.983144
C12_7 C 0.5925(4) 0.8070(11) 0.8831(4)
C13_7 C 0.6296(4) 0.7599(11) 0.8895(4)
H5_7 H 0.637102 0.718005 0.913881
C14_7 C 0.6557(4) 0.7755(11) 0.8595(5)
H6_7 H 0.680526 0.744052 0.863751
N8_7 N 0.6445(4) 0.8382(11) 0.8231(4)
C15_7 C 0.6073(5) 0.8853(11) 0.8167(4)
H7_7 H 0.599867 0.927185 0.792345
C16_7 C 0.5813(4) 0.8697(11) 0.8467(5)
H8_7 H 0.556442 0.901139 0.842475
C17_8 C 0.2752(4) 0.9375(11) 0.8322(4)
C18_8 C 0.2984(5) 0.8925(9) 0.8705(5)
H9_8 H 0.293702 0.829226 0.875889
C19_8 C 0.3285(4) 0.9419(12) 0.9006(4)
H10_8 H 0.343936 0.911755 0.926175
C22_8 C 0.4356(5) 0.9636(13) 0.9816(4)
C23_8 C 0.4683(5) 0.9029(12) 0.9817(4)
C24_8 C 0.4857(4) 0.8970(12) 0.9433(5)
C25_8 C 0.4705(5) 0.9518(14) 0.9048(4)
H15_8 H 0.482107 0.947853 0.879058
N11_4 N 0.1870(5) 0.4847(10) 0.7810(5)
C27_8 C 0.2212(5) 0.5220(10) 0.8103(5)
H17_7 H 0.239908 0.482105 0.828521
C28_8 C 0.2273(4) 0.6190(11) 0.8124(5)
H18_8 H 0.250174 0.643972 0.832040
C29_8 C 0.1993(5) 0.6786(9) 0.7852(6)
C30_8 C 0.1651(5) 0.6413(13) 0.7559(5)
H19_8 H 0.146364 0.681171 0.737729
C31_8 C 0.1590(4) 0.5443(14) 0.7538(5)
H20_8 H 0.136097 0.519304 0.734209
C33_8 C 0.1070(4) 0.9633(13) 0.6520(5)
H22_8 H 0.083728 0.935001 0.634701
C34_8 C 0.1326(5) 0.9127(11) 0.6864(5)
H23_8 H 0.126443 0.850424 0.692179
C35_8 C 0.1674(4) 0.9550(12) 0.7123(4)
Zn5_4 Zn 0.1748(3) 0.3569(7) 0.7775(3)
N14_4 N 0.6870(5) 0.9847(10) 0.7810(5)
I3_8 I 0.1298(2) 0.3288(5) 0.70285(18)
I5_8 I 0.2383(2) 0.2706(5) 0.8019(2)
N1_8 N 0.0414(4) 0.3607(9) 0.9123(4)
C1_8 C 0.0715(4) 0.2940(11) 0.9107(4)
N2_8 N 0.0763(4) 0.2173(10) 0.9405(5)
C2_8 C 0.0511(4) 0.2074(9) 0.9718(4)
N3_8 N 0.0210(4) 0.2742(11) 0.9734(4)
C3_8 C 0.0162(4) 0.3509(10) 0.9436(5)
C7_8 C 0.0560(5) 0.1339(10) 0.9964(4)
C8_11 C 0.0906(4) 0.0779(12) 1.0000(5)
H1_8 H 0.110252 0.092903 0.983144
C12_8 C 0.0925(4) 0.3070(11) 0.8831(4)
C13_8 C 0.1296(4) 0.2599(11) 0.8895(4)
H5_8 H 0.137102 0.218005 0.913881
C14_8 C 0.1557(4) 0.2755(11) 0.8595(5)
H6_8 H 0.180526 0.244052 0.863751
N8_8 N 0.1445(4) 0.3382(11) 0.8231(4)
C15_8 C 0.1073(5) 0.3853(11) 0.8167(4)
H7_8 H 0.099867 0.427185 0.792345
C16_8 C 0.0813(4) 0.3697(11) 0.8467(5)
H8_8 H 0.056442 0.401139 0.842475
H17_8 H 0.739908 0.982105 0.828521
C8_12 C 0.0906(4) 0.0779(12) 0.0000(5)
C10_8 C 0.0320(4) 0.0332(11) 0.0503(4)
H3_8 H 0.012356 0.018235 0.067081
C11_8 C 0.0267(4) 0.1116(10) 0.0215(5)
H4_8 H 0.003565 0.149010 0.019141
I6_8 I 0.85149(17) 0.5910(6) 0.00885(18)
H13_8 H 0.924000 0.467569 0.007338
H14_8 H 0.978440 0.366287 0.007528
loop_
_geom_bond_atom_site_label_1
_geom_bond_atom_site_label_2
_geom_bond_site_symmetry_1
_geom_bond_site_symmetry_2
I3 Zn3 1_555 1_555
I5 Zn3 1_555 1_555
Zn3 N8 1_555 1_555
N1 C1 1_555 1_555
C1 N2 1_555 1_555
N2 C2 1_555 1_555
C2 N3 1_555 1_555
N3 C3 1_555 1_555
C3 N1 1_555 1_555
N4 C4 1_555 1_555
C4 N5 1_555 1_555
N5 C5 1_555 1_555
C5 N6 1_555 1_555
N6 C6 1_555 1_555
C6 N4 1_555 1_555
C7 C2 1_555 1_555
C8 C7 1_555 1_555
H1 C8 1_555 1_555
C9 C8 1_555 1_555
H2 C9 1_555 1_555
N7 C9 1_555 1_555
C10 N7 1_555 1_555
H3 C10 1_555 1_555
C11 C7 1_555 1_555
H4 C11 1_555 1_555
C12 C1 1_555 1_555
C13 C12 1_555 1_555
H5 C13 1_555 1_555
C14 C13 1_555 1_555
H6 C14 1_555 1_555
N8 C14 1_555 1_555
C15 N8 1_555 1_555
H7 C15 1_555 1_555
C16 C12 1_555 1_555
H8 C16 1_555 1_555
C17 C5 1_555 1_555
C18 C17 1_555 1_555
H9 C18 1_555 1_555
C19 C18 1_555 1_555
H10 C19 1_555 1_555
H13 C22 1_555 1_555
C23 C22 1_555 1_555
H14 C23 1_555 1_555
C24 C3 1_555 1_555
C25 C24 1_555 1_555
H15 C25 1_555 1_555
N11 C27 1_555 1_555
C27 H17 1_555 1_555
C28 C27 1_555 1_555
H18 C28 1_555 1_555
C29 C4 1_555 1_555
C30 C29 1_555 1_555
H19 C30 1_555 1_555
C31 N11 1_555 1_555
H20 C31 1_555 1_555
H22 C33 1_555 1_555
C34 C33 1_555 1_555
H23 C34 1_555 1_555
C35 C6 1_555 1_555
Zn4 N7 1_555 1_555
Zn5 N11 1_555 1_555
N14 Zn3 1_555 1_555
C10 C11 1_555 1_555
C15 C16 1_555 1_555
C23 C24 1_555 1_555
C28 C29 1_555 1_555
C30 C31 1_555 1_555
C34 C35 1_555 1_555
I3_2 Zn5 1_555 1_555
I5_2 Zn5 1_555 1_555
Zn5 N8_2 1_555 1_555
N1_2 C1_2 1_555 1_555
C1_2 N2_2 1_555 1_555
N2_2 C2_2 1_555 1_555
C2_2 N3_2 1_555 1_555
N3_2 C3_2 1_555 1_555
C3_2 N1_2 1_555 1_555
C7_2 C2_2 1_555 1_555
C8_2 C7_2 1_555 1_555
H1_2 C8_2 1_555 1_555
H3_2 C10_2 1_555 1_555
C11_2 C7_2 1_555 1_555
H4_2 C11_2 1_555 1_555
C12_2 C1_2 1_555 1_555
C13_2 C12_2 1_555 1_555
H5_2 C13_2 1_555 1_555
C14_2 C13_2 1_555 1_555
H6_2 C14_2 1_555 1_555
N8_2 C14_2 1_555 1_555
C15_2 N8_2 1_555 1_555
H7_2 C15_2 1_555 1_555
C16_2 C12_2 1_555 1_555
H8_2 C16_2 1_555 1_555
C10_2 C11_2 1_555 1_555
C15_2 C16_2 1_555 1_555
I1 Zn4 1_555 1_555
I2 Zn4 1_555 1_555
I4 Zn2 1_555 1_555
Zn4 N12 1_555 1_555
Zn2 N9 1_555 1_555
N4_2 C4_2 1_555 1_555
C4_2 N5_2 1_555 1_555
N5_2 C5_2 1_555 1_555
C5_2 N6_2 1_555 1_555
N6_2 C6_2 1_555 1_555
C6_2 N4_2 1_555 1_555
C17_2 C5_2 1_555 1_555
C18_2 C17_2 1_555 1_555
H9_2 C18_2 1_555 1_555
C19_2 C18_2 1_555 1_555
H10_2 C19_2 1_555 1_555
N9 C19_2 1_555 1_555
C20 N9 1_555 1_555
H11 C20 1_555 1_555
C21 C17_2 1_555 1_555
H12 C21 1_555 1_555
N10 Zn2 1_555 1_555
C22_2 N10 1_555 1_555
C23_2 C22_2 1_555 1_555
C25_2 C24_2 1_555 1_555
H15_2 C25_2 1_555 1_555
C26 N10 1_555 1_555
H16 C26 1_555 1_555
C28_2 C27_2 1_555 1_555
H18_2 C28_2 1_555 1_555
C29_2 C4_2 1_555 1_555
C30_2 C29_2 1_555 1_555
H19_2 C30_2 1_555 1_555
H20_2 C31_2 1_555 1_555
C32 H21 1_555 1_555
N12 C32 1_555 1_555
C33_2 N12 1_555 1_555
H22_2 C33_2 1_555 1_555
C34_2 C33_2 1_555 1_555
H23_2 C34_2 1_555 1_555
C35_2 C6_2 1_555 1_555
C36 C32 1_555 1_555
H24 C36 1_555 1_555
C20 C21 1_555 1_555
C23_2 C24_2 1_555 1_555
C25_2 C26 1_555 1_555
C28_2 C29_2 1_555 1_555
C30_2 C31_2 1_555 1_555
C34_2 C35_2 1_555 1_555
C35_2 C36 1_555 1_555
I1_2 Zn1 1_555 1_555
I2_2 Zn1 1_555 1_555
I4_2 Zn2_2 1_555 1_555
I6 Zn2_2 1_555 1_555
Zn1 N12_2 1_555 1_555
Zn2_2 N9_2 1_555 1_555
C20_2 N9_2 1_555 1_555
H11_2 C20_2 1_555 1_555
H12_2 C21_2 1_555 1_555
N10_2 Zn2_2 1_555 1_555
C26_2 N10_2 1_555 1_555
H16_2 C26_2 1_555 1_555
C32_2 H21_2 1_555 1_555
N12_2 C32_2 1_555 1_555
C36_2 C32_2 1_555 1_555
H24_2 C36_2 1_555 1_555
N13 Zn1 1_555 1_555
C20_2 C21_2 1_555 1_555
H2_2 C9_2 1_555 1_555
N13 C9_2 1_555 1_555
I3_3 Zn3_2 1_555 1_555
I5_3 Zn3_2 1_555 1_555
Zn3_2 N8_3 1_555 1_555
N1_3 C1_3 1_555 1_555
C1_3 N2_3 1_555 1_555
N2_3 C2_3 1_555 1_555
C2_3 N3_3 1_555 1_555
N3_3 C3_3 1_555 1_555
C3_3 N1_3 1_555 1_555
N4_3 C4_3 1_555 1_555
C4_3 N5_3 1_555 1_555
N5_3 C5_3 1_555 1_555
C5_3 N6_3 1_555 1_555
N6_3 C6_3 1_555 1_555
C6_3 N4_3 1_555 1_555
C7_3 C2_3 1_555 1_555
C8_3 C7_3 1_555 1_555
H1_3 C8_3 1_555 1_555
C12_3 C1_3 1_555 1_555
C13_3 C12_3 1_555 1_555
H5_3 C13_3 1_555 1_555
C14_3 C13_3 1_555 1_555
H6_3 C14_3 1_555 1_555
N8_3 C14_3 1_555 1_555
C15_3 N8_3 1_555 1_555
H7_3 C15_3 1_555 1_555
C16_3 C12_3 1_555 1_555
H8_3 C16_3 1_555 1_555
C17_3 C5_3 1_555 1_555
C18_3 C17_3 1_555 1_555
H9_3 C18_3 1_555 1_555
C19_3 C18_3 1_555 1_555
H10_3 C19_3 1_555 1_555
C23_3 C22_3 1_555 1_555
C24_3 C3_3 1_555 1_555
C25_3 C24_3 1_555 1_555
H15_3 C25_3 1_555 1_555
N11_2 C27_3 1_555 1_555
C27_3 H17_3 1_555 1_555
C28_3 C27_3 1_555 1_555
H18_3 C28_3 1_555 1_555
C29_3 C4_3 1_555 1_555
C30_3 C29_3 1_555 1_555
H19_3 C30_3 1_555 1_555
C31_3 N11_2 1_555 1_555
H20_3 C31_3 1_555 1_555
H22_3 C33_3 1_555 1_555
C34_3 C33_3 1_555 1_555
H23_3 C34_3 1_555 1_555
C35_3 C6_3 1_555 1_555
Zn5_2 N11_2 1_555 1_555
N14_2 Zn3_2 1_555 1_555
C15_3 C16_3 1_555 1_555
C23_3 C24_3 1_555 1_555
C28_3 C29_3 1_555 1_555
C30_3 C31_3 1_555 1_555
C34_3 C35_3 1_555 1_555
I3_4 Zn5_2 1_555 1_555
I5_4 Zn5_2 1_555 1_555
Zn5_2 N8_4 1_555 1_555
N1_4 C1_4 1_555 1_555
C1_4 N2_4 1_555 1_555
N2_4 C2_4 1_555 1_555
C2_4 N3_4 1_555 1_555
N3_4 C3_4 1_555 1_555
C3_4 N1_4 1_555 1_555
C7_4 C2_4 1_555 1_555
C8_4 C7_4 1_555 1_555
H1_4 C8_4 1_555 1_555
C12_4 C1_4 1_555 1_555
C13_4 C12_4 1_555 1_555
H5_4 C13_4 1_555 1_555
C14_4 C13_4 1_555 1_555
H6_4 C14_4 1_555 1_555
N8_4 C14_4 1_555 1_555
C15_4 N8_4 1_555 1_555
H7_4 C15_4 1_555 1_555
C16_4 C12_4 1_555 1_555
H8_4 C16_4 1_555 1_555
C15_4 C16_4 1_555 1_555
C9_3 C8_5 1_555 1_555
H2_3 C9_3 1_555 1_555
N7_2 C9_3 1_555 1_555
C10_3 N7_2 1_555 1_555
H3_3 C10_3 1_555 1_555
H4_3 C11_3 1_555 1_555
Zn4_2 N7_2 1_555 1_555
C10_3 C11_3 1_555 1_555
I1_3 Zn4_2 1_555 1_555
I2_3 Zn4_2 1_555 1_555
I4_3 Zn2_3 1_555 1_555
I6_2 Zn2_3 1_555 1_555
Zn4_2 N12_3 1_555 1_555
Zn2_3 N9_3 1_555 1_555
N4_4 C4_4 1_555 1_555
C4_4 N5_4 1_555 1_555
N5_4 C5_4 1_555 1_555
C5_4 N6_4 1_555 1_555
N6_4 C6_4 1_555 1_555
C6_4 N4_4 1_555 1_555
C17_4 C5_4 1_555 1_555
C18_4 C17_4 1_555 1_555
H9_4 C18_4 1_555 1_555
C19_4 C18_4 1_555 1_555
H10_4 C19_4 1_555 1_555
N9_3 C19_4 1_555 1_555
C20_3 N9_3 1_555 1_555
H11_3 C20_3 1_555 1_555
C21_3 C17_4 1_555 1_555
H12_3 C21_3 1_555 1_555
N10_3 Zn2_3 1_555 1_555
C22_4 N10_3 1_555 1_555
H13_3 C22_4 1_555 1_555
C23_4 C22_4 1_555 1_555
H14_3 C23_4 1_555 1_555
C25_4 C24_4 1_555 1_555
H15_4 C25_4 1_555 1_555
C26_3 N10_3 1_555 1_555
H16_3 C26_3 1_555 1_555
C28_4 C27_4 1_555 1_555
H18_4 C28_4 1_555 1_555
C29_4 C4_4 1_555 1_555
C30_4 C29_4 1_555 1_555
H19_4 C30_4 1_555 1_555
H20_4 C31_4 1_555 1_555
C32_3 H21_3 1_555 1_555
N12_3 C32_3 1_555 1_555
C33_4 N12_3 1_555 1_555
H22_4 C33_4 1_555 1_555
C34_4 C33_4 1_555 1_555
H23_4 C34_4 1_555 1_555
C35_4 C6_4 1_555 1_555
C36_3 C32_3 1_555 1_555
H24_3 C36_3 1_555 1_555
C20_3 C21_3 1_555 1_555
C23_4 C24_4 1_555 1_555
C25_4 C26_3 1_555 1_555
C28_4 C29_4 1_555 1_555
C30_4 C31_4 1_555 1_555
C34_4 C35_4 1_555 1_555
C35_4 C36_3 1_555 1_555
I1_4 Zn1_2 1_555 1_555
I2_4 Zn1_2 1_555 1_555
I4_4 Zn2_4 1_555 1_555
Zn1_2 N12_4 1_555 1_555
Zn2_4 N9_4 1_555 1_555
C20_4 N9_4 1_555 1_555
H11_4 C20_4 1_555 1_555
H12_4 C21_4 1_555 1_555
N10_4 Zn2_4 1_555 1_555
C26_4 N10_4 1_555 1_555
H16_4 C26_4 1_555 1_555
C32_4 H21_4 1_555 1_555
N12_4 C32_4 1_555 1_555
C36_4 C32_4 1_555 1_555
H24_4 C36_4 1_555 1_555
N13_2 Zn1_2 1_555 1_555
C20_4 C21_4 1_555 1_555
H2_4 C9_4 1_555 1_555
N13_2 C9_4 1_555 1_555
H2_5 C9_5 1_555 1_555
N7_3 C9_5 1_555 1_555
Zn4_3 N7_3 1_555 1_555
I1_5 Zn4_3 1_555 1_555
I2_5 Zn4_3 1_555 1_555
I4_5 Zn2_5 1_555 1_555
Zn4_3 N12_5 1_555 1_555
Zn2_5 N9_5 1_555 1_555
C20_5 N9_5 1_555 1_555
H11_5 C20_5 1_555 1_555
H12_5 C21_5 1_555 1_555
N10_5 Zn2_5 1_555 1_555
C26_5 N10_5 1_555 1_555
H16_5 C26_5 1_555 1_555
C32_5 H21_5 1_555 1_555
N12_5 C32_5 1_555 1_555
C36_5 C32_5 1_555 1_555
H24_5 C36_5 1_555 1_555
C20_5 C21_5 1_555 1_555
I1_6 Zn1_3 1_555 1_555
I2_6 Zn1_3 1_555 1_555
I4_6 Zn2_6 1_555 1_555
I6_4 Zn2_6 1_555 1_555
Zn1_3 N12_6 1_555 1_555
Zn2_6 N9_6 1_555 1_555
N4_5 C4_5 1_555 1_555
C4_5 N5_5 1_555 1_555
N5_5 C5_5 1_555 1_555
C5_5 N6_5 1_555 1_555
N6_5 C6_5 1_555 1_555
C6_5 N4_5 1_555 1_555
C17_5 C5_5 1_555 1_555
C18_5 C17_5 1_555 1_555
H9_5 C18_5 1_555 1_555
C19_5 C18_5 1_555 1_555
H10_5 C19_5 1_555 1_555
N9_6 C19_5 1_555 1_555
C20_6 N9_6 1_555 1_555
H11_6 C20_6 1_555 1_555
C21_6 C17_5 1_555 1_555
H12_6 C21_6 1_555 1_555
N10_6 Zn2_6 1_555 1_555
C22_5 N10_6 1_555 1_555
H13_4 C22_5 1_555 1_555
C23_5 C22_5 1_555 1_555
H14_4 C23_5 1_555 1_555
C25_5 C24_5 1_555 1_555
H15_5 C25_5 1_555 1_555
C26_6 N10_6 1_555 1_555
H16_6 C26_6 1_555 1_555
C28_5 C27_5 1_555 1_555
H18_5 C28_5 1_555 1_555
C29_5 C4_5 1_555 1_555
C30_5 C29_5 1_555 1_555
H19_5 C30_5 1_555 1_555
H20_5 C31_5 1_555 1_555
C32_6 H21_6 1_555 1_555
N12_6 C32_6 1_555 1_555
C33_5 N12_6 1_555 1_555
H22_5 C33_5 1_555 1_555
C34_5 C33_5 1_555 1_555
H23_5 C34_5 1_555 1_555
C35_5 C6_5 1_555 1_555
C36_6 C32_6 1_555 1_555
H24_6 C36_6 1_555 1_555
N13_3 Zn1_3 1_555 1_555
C20_6 C21_6 1_555 1_555
C23_5 C24_5 1_555 1_555
C25_5 C26_6 1_555 1_555
C28_5 C29_5 1_555 1_555
C30_5 C31_5 1_555 1_555
C34_5 C35_5 1_555 1_555
C35_5 C36_6 1_555 1_555
C9_6 C8_6 1_555 1_555
H2_6 C9_6 1_555 1_555
N13_3 C9_6 1_555 1_555
C10_4 N13_3 1_555 1_555
H3_4 C10_4 1_555 1_555
H4_4 C11_4 1_555 1_555
C10_4 C11_4 1_555 1_555
I1_7 Zn1_4 1_555 1_555
I2_7 Zn1_4 1_555 1_555
I4_7 Zn2_7 1_555 1_555
Zn1_4 N12_7 1_555 1_555
Zn2_7 N9_7 1_555 1_555
N4_6 C4_6 1_555 1_555
C4_6 N5_6 1_555 1_555
N5_6 C5_6 1_555 1_555
C5_6 N6_6 1_555 1_555
N6_6 C6_6 1_555 1_555
C6_6 N4_6 1_555 1_555
C17_6 C5_6 1_555 1_555
C18_6 C17_6 1_555 1_555
H9_6 C18_6 1_555 1_555
C19_6 C18_6 1_555 1_555
H10_6 C19_6 1_555 1_555
N9_7 C19_6 1_555 1_555
C20_7 N9_7 1_555 1_555
H11_7 C20_7 1_555 1_555
C21_7 C17_6 1_555 1_555
H12_7 C21_7 1_555 1_555
N10_7 Zn2_7 1_555 1_555
C22_6 N10_7 1_555 1_555
C23_6 C22_6 1_555 1_555
C25_6 C24_6 1_555 1_555
H15_6 C25_6 1_555 1_555
C26_7 N10_7 1_555 1_555
H16_7 C26_7 1_555 1_555
C28_6 C27_6 1_555 1_555
H18_6 C28_6 1_555 1_555
C29_6 C4_6 1_555 1_555
C30_6 C29_6 1_555 1_555
H19_6 C30_6 1_555 1_555
H20_6 C31_6 1_555 1_555
C32_7 H21_7 1_555 1_555
N12_7 C32_7 1_555 1_555
C33_6 N12_7 1_555 1_555
H22_6 C33_6 1_555 1_555
C34_6 C33_6 1_555 1_555
H23_6 C34_6 1_555 1_555
C35_6 C6_6 1_555 1_555
C36_7 C32_7 1_555 1_555
H24_7 C36_7 1_555 1_555
N13_4 Zn1_4 1_555 1_555
C20_7 C21_7 1_555 1_555
C23_6 C24_6 1_555 1_555
C25_6 C26_7 1_555 1_555
C28_6 C29_6 1_555 1_555
C30_6 C31_6 1_555 1_555
C34_6 C35_6 1_555 1_555
C35_6 C36_7 1_555 1_555
I3_5 Zn3_3 1_555 1_555
I5_5 Zn3_3 1_555 1_555
Zn3_3 N8_5 1_555 1_555
N1_5 C1_5 1_555 1_555
C1_5 N2_5 1_555 1_555
N2_5 C2_5 1_555 1_555
C2_5 N3_5 1_555 1_555
N3_5 C3_5 1_555 1_555
C3_5 N1_5 1_555 1_555
N4_7 C4_7 1_555 1_555
C4_7 N5_7 1_555 1_555
N5_7 C5_7 1_555 1_555
C5_7 N6_7 1_555 1_555
N6_7 C6_7 1_555 1_555
C6_7 N4_7 1_555 1_555
C7_5 C2_5 1_555 1_555
C8_7 C7_5 1_555 1_555
H1_5 C8_7 1_555 1_555
C9_7 C8_7 1_555 1_555
H2_7 C9_7 1_555 1_555
N13_4 C9_7 1_555 1_555
C10_5 N13_4 1_555 1_555
H3_5 C10_5 1_555 1_555
C11_5 C7_5 1_555 1_555
H4_5 C11_5 1_555 1_555
C12_5 C1_5 1_555 1_555
C13_5 C12_5 1_555 1_555
H5_5 C13_5 1_555 1_555
C14_5 C13_5 1_555 1_555
H6_5 C14_5 1_555 1_555
N8_5 C14_5 1_555 1_555
C15_5 N8_5 1_555 1_555
H7_5 C15_5 1_555 1_555
C16_5 C12_5 1_555 1_555
H8_5 C16_5 1_555 1_555
C17_7 C5_7 1_555 1_555
C18_7 C17_7 1_555 1_555
H9_7 C18_7 1_555 1_555
C19_7 C18_7 1_555 1_555
H10_7 C19_7 1_555 1_555
H13_6 C22_7 1_555 1_555
C23_7 C22_7 1_555 1_555
H14_6 C23_7 1_555 1_555
C24_7 C3_5 1_555 1_555
C25_7 C24_7 1_555 1_555
H15_7 C25_7 1_555 1_555
N11_3 C27_7 1_555 1_555
C27_7 H17_5 1_555 1_555
C28_7 C27_7 1_555 1_555
H18_7 C28_7 1_555 1_555
C29_7 C4_7 1_555 1_555
C30_7 C29_7 1_555 1_555
H19_7 C30_7 1_555 1_555
C31_7 N11_3 1_555 1_555
H20_7 C31_7 1_555 1_555
H22_7 C33_7 1_555 1_555
C34_7 C33_7 1_555 1_555
H23_7 C34_7 1_555 1_555
C35_7 C6_7 1_555 1_555
Zn5_3 N11_3 1_555 1_555
N14_3 Zn3_3 1_555 1_555
C10_5 C11_5 1_555 1_555
C15_5 C16_5 1_555 1_555
C23_7 C24_7 1_555 1_555
C28_7 C29_7 1_555 1_555
C30_7 C31_7 1_555 1_555
C34_7 C35_7 1_555 1_555
I3_6 Zn5_3 1_555 1_555
I5_6 Zn5_3 1_555 1_555
Zn5_3 N8_6 1_555 1_555
N1_6 C1_6 1_555 1_555
C1_6 N2_6 1_555 1_555
N2_6 C2_6 1_555 1_555
C2_6 N3_6 1_555 1_555
N3_6 C3_6 1_555 1_555
C3_6 N1_6 1_555 1_555
C7_6 C2_6 1_555 1_555
C8_8 C7_6 1_555 1_555
H1_6 C8_8 1_555 1_555
H3_6 C10_6 1_555 1_555
C11_6 C7_6 1_555 1_555
H4_6 C11_6 1_555 1_555
C12_6 C1_6 1_555 1_555
C13_6 C12_6 1_555 1_555
H5_6 C13_6 1_555 1_555
C14_6 C13_6 1_555 1_555
H6_6 C14_6 1_555 1_555
N8_6 C14_6 1_555 1_555
C15_6 N8_6 1_555 1_555
H7_6 C15_6 1_555 1_555
C16_6 C12_6 1_555 1_555
H8_6 C16_6 1_555 1_555
C10_6 C11_6 1_555 1_555
C15_6 C16_6 1_555 1_555
H2_8 C9_8 1_555 1_555
N7_4 C9_8 1_555 1_555
Zn4_4 N7_4 1_555 1_555
I1_8 Zn4_4 1_555 1_555
I2_8 Zn4_4 1_555 1_555
I4_8 Zn2_8 1_555 1_555
I6_6 Zn2_8 1_555 1_555
Zn4_4 N12_8 1_555 1_555
Zn2_8 N9_8 1_555 1_555
C20_8 N9_8 1_555 1_555
H11_8 C20_8 1_555 1_555
H12_8 C21_8 1_555 1_555
N10_8 Zn2_8 1_555 1_555
C26_8 N10_8 1_555 1_555
H16_8 C26_8 1_555 1_555
C32_8 H21_8 1_555 1_555
N12_8 C32_8 1_555 1_555
C36_8 C32_8 1_555 1_555
H24_8 C36_8 1_555 1_555
C20_8 C21_8 1_555 1_555
H3_7 C10_7 1_555 1_555
H4_7 C11_7 1_555 1_555
C10_7 C11_7 1_555 1_555
I3_7 Zn3_4 1_555 1_555
I5_7 Zn3_4 1_555 1_555
Zn3_4 N8_7 1_555 1_555
N1_7 C1_7 1_555 1_555
C1_7 N2_7 1_555 1_555
N2_7 C2_7 1_555 1_555
C2_7 N3_7 1_555 1_555
N3_7 C3_7 1_555 1_555
C3_7 N1_7 1_555 1_555
N4_8 C4_8 1_555 1_555
C4_8 N5_8 1_555 1_555
N5_8 C5_8 1_555 1_555
C5_8 N6_8 1_555 1_555
N6_8 C6_8 1_555 1_555
C6_8 N4_8 1_555 1_555
C7_7 C2_7 1_555 1_555
C8_10 C7_7 1_555 1_555
H1_7 C8_10 1_555 1_555
C12_7 C1_7 1_555 1_555
C13_7 C12_7 1_555 1_555
H5_7 C13_7 1_555 1_555
C14_7 C13_7 1_555 1_555
H6_7 C14_7 1_555 1_555
N8_7 C14_7 1_555 1_555
C15_7 N8_7 1_555 1_555
H7_7 C15_7 1_555 1_555
C16_7 C12_7 1_555 1_555
H8_7 C16_7 1_555 1_555
C17_8 C5_8 1_555 1_555
C18_8 C17_8 1_555 1_555
H9_8 C18_8 1_555 1_555
C19_8 C18_8 1_555 1_555
H10_8 C19_8 1_555 1_555
C23_8 C22_8 1_555 1_555
C24_8 C3_7 1_555 1_555
C25_8 C24_8 1_555 1_555
H15_8 C25_8 1_555 1_555
N11_4 C27_8 1_555 1_555
C27_8 H17_7 1_555 1_555
C28_8 C27_8 1_555 1_555
H18_8 C28_8 1_555 1_555
C29_8 C4_8 1_555 1_555
C30_8 C29_8 1_555 1_555
H19_8 C30_8 1_555 1_555
C31_8 N11_4 1_555 1_555
H20_8 C31_8 1_555 1_555
H22_8 C33_8 1_555 1_555
C34_8 C33_8 1_555 1_555
H23_8 C34_8 1_555 1_555
C35_8 C6_8 1_555 1_555
Zn5_4 N11_4 1_555 1_555
N14_4 Zn3_4 1_555 1_555
C15_7 C16_7 1_555 1_555
C23_8 C24_8 1_555 1_555
C28_8 C29_8 1_555 1_555
C30_8 C31_8 1_555 1_555
C34_8 C35_8 1_555 1_555
I3_8 Zn5_4 1_555 1_555
I5_8 Zn5_4 1_555 1_555
Zn5_4 N8_8 1_555 1_555
N1_8 C1_8 1_555 1_555
C1_8 N2_8 1_555 1_555
N2_8 C2_8 1_555 1_555
C2_8 N3_8 1_555 1_555
N3_8 C3_8 1_555 1_555
C3_8 N1_8 1_555 1_555
C7_8 C2_8 1_555 1_555
C8_11 C7_8 1_555 1_555
H1_8 C8_11 1_555 1_555
C12_8 C1_8 1_555 1_555
C13_8 C12_8 1_555 1_555
H5_8 C13_8 1_555 1_555
C14_8 C13_8 1_555 1_555
H6_8 C14_8 1_555 1_555
N8_8 C14_8 1_555 1_555
C15_8 N8_8 1_555 1_555
H7_8 C15_8 1_555 1_555
C16_8 C12_8 1_555 1_555
H8_8 C16_8 1_555 1_555
C15_8 C16_8 1_555 1_555
H3_8 C10_8 1_555 1_555
H4_8 C11_8 1_555 1_555
C10_8 C11_8 1_555 1_555

#END
