
###############################################################################
#
# This file contains modified crystal structure data generated from the
# MOF subset of the Cambridge Structural Database (CSD) v543 
# hosted by the Cambridge Crystallographic Data Centre (CCDC).
#
# This work is licensed under the Creative Commons
# Attribution-NonCommercial-ShareAlike 4.0 International License.
# To view a copy of this license, visit
# http://creativecommons.org/licenses/by-nc-sa/4.0/
# or send a letter to
# Creative Commons, PO Box 1866, Mountain View, CA 94042, USA.
#
# CIF created using the CSD Python API on 29 September 2022
# The structure has been converted into the P1 space group
# The structure has a 3D framework
# The original CSD entry FEGNIQ is in the monoclinic crystal system
# The framework has been calculated to contain at least 10.0% void space
# The void calculation uses a probe of radius 1.32A, grid spacing 0.4
# The framework is charged, counterions have been retained in the structure
# H atom positions have been added when not included in the experimental data
#
###############################################################################

data_FEGNIQ
_chemical_formula_moiety         '(C198 H114 N16 O56 Zn8 2-)n'
_symmetry_cell_setting           triclinic
_symmetry_space_group_name_H-M   'P 1'
_symmetry_Int_Tables_number      1
_space_group_name_Hall           'P 1'
loop_
_symmetry_equiv_pos_site_id
_symmetry_equiv_pos_as_xyz
1 x,y,z
_cell_length_a                   13.0843(2)
_cell_length_b                   25.4045(4)
_cell_length_c                   16.3416(3)
_cell_angle_alpha                90
_cell_angle_beta                 93.9740(10)
_cell_angle_gamma                90
_cell_volume                     5418.89
loop_
_atom_site_label
_atom_site_type_symbol
_atom_site_fract_x
_atom_site_fract_y
_atom_site_fract_z
C3 C 0.2220(3) 0.0000 0.2747(2)
H2 H 0.1867 0.0000 0.2233
C19 C 0.3205(4) 0.0000 0.4298(2)
C22 C 0.3685(4) 0.0000 0.5153(3)
C27 C 0.22458(17) 0.09898(8) 0.26943(14)
C37 C 0.2973(2) 0.04720(10) 0.38985(16)
H19 H 0.3153 0.0789 0.4155
C39 C 0.24769(19) 0.04760(9) 0.31204(14)
O8 O 0.26423(13) 0.13971(6) 0.29660(11)
O9 O 0.16410(13) 0.09651(6) 0.20457(10)
O11 O 0.3855(3) 0.04295(9) 0.55028(15)
Zn4 Zn 0.15353(2) 0.161210(9) 0.142030(14)
H25 H 0.320002 0.0622777 0.5539
C3_2 C 0.2220(3) 1.0000 0.2747(2)
H2_2 H 0.1867 1.0000 0.2233
C4 C 0.22458(17) 0.90102(8) 0.26943(14)
C8 C 0.11943(16) 0.72905(9) 0.18648(13)
H3 H 0.1791 0.7248 0.1593
C13 C 0.0000 0.67390(13) 0.0000
H6 H 0.0000 0.6373 0.0000
C15 C 0.2973(2) 0.95280(10) 0.38985(16)
H8 H 0.3153 0.9211 0.4155
C17 C 0.24769(19) 0.95240(9) 0.31204(14)
C18 C 0.07296(18) 0.68535(10) 0.21710(15)
H10 H 0.1010 0.6521 0.2105
C19_2 C 0.3205(4) 1.0000 0.4298(2)
C20 C -0.0000 0.78304(12) 0.0000
C22_2 C 0.3685(4) 1.0000 0.5153(3)
C24 C 0.0000 0.84201(11) 0.0000
N1 N 0.08112(13) 0.77729(7) 0.19471(10)
O1 O 0.26423(13) 0.86029(6) 0.29660(11)
O2 O 0.16410(13) 0.90349(6) 0.20457(10)
O3 O 0.3855(3) 0.95705(9) 0.55028(15)
O7 O 0.05888(12) 0.86626(6) 0.05091(10)
Zn1 Zn 0.15353(2) 0.838790(9) 0.142030(14)
O14 O 0.26940(11) 0.80156(6) 0.10246(10)
C13_2 C 0.0000 0.67390(13) 1.0000
H6_2 H 0.0000 0.6373 1.0000
C20_2 C -0.0000 0.78304(12) 1.0000
C24_2 C 0.0000 0.84201(11) 1.0000
C28 C 0.17052(17) 0.67126(9) 0.93918(15)
C30 C 0.08205(15) 0.70104(9) 0.97094(12)
C41 C 0.08202(15) 0.75554(8) 0.97119(12)
H22 H 0.1371 0.7738 0.9520
O13 O 0.23060(11) 0.69844(6) 0.89754(10)
O16 O 0.18259(16) 0.62457(8) 0.95431(16)
Zn5 Zn 0.34647(2) 0.661210(9) 0.857970(14)
C1 C 0.54776(16) 0.78317(9) 0.47782(13)
C2 C 0.67354(17) 0.73818(9) 0.40145(14)
H1 H 0.6972 0.7071 0.3793
C5 C 0.82948(17) 0.67126(9) 0.06082(15)
C6 C 0.94466(16) 0.74100(9) 0.26655(13)
C7 C 0.91795(15) 0.70104(9) 0.02906(12)
C9 C 0.72654(16) 0.78457(9) 0.39181(14)
C10 C 0.58561(17) 0.73761(9) 0.44378(14)
H4 H 0.5510 0.7060 0.4496
C11 C 0.82156(18) 0.78948(10) 0.34581(15)
C12 C 0.99493(16) 0.78369(9) 0.23377(13)
H5 H 0.9682 0.8173 0.2391
C13_3 C 1.0000 0.67390(13) 0.0000
H6_3 H 1.0000 0.6373 0.0000
C14 C 0.98494(17) 0.69110(9) 0.25754(14)
H7 H 0.9529 0.6619 0.2786
C16 C 0.6902(2) 0.83007(10) 0.42625(18)
H9 H 0.7254 0.8615 0.4209
C20_3 C 1.0000 0.78304(12) 0.0000
C21 C 0.91798(15) 0.75554(8) 0.02881(12)
H11 H 0.8629 0.7738 0.0480
C23 C 0.6025(2) 0.82944(10) 0.46827(16)
H12 H 0.5794 0.8606 0.4907
C24_3 C 1.0000 0.84201(11) 0.0000
N2 N 0.85458(14) 0.74591(8) 0.30873(12)
H13 H 0.8169 0.7183 0.3110
O4 O 0.86718(18) 0.83111(8) 0.34337(17)
O5 O 0.76940(11) 0.69844(6) 0.10246(10)
O6 O 0.81741(16) 0.62457(8) 0.04569(16)
C25 C 0.45224(16) 0.78317(9) 0.52218(13)
C26 C 0.32646(17) 0.73818(9) 0.59855(14)
H14 H 0.3028 0.7071 0.6207
C29 C 0.05534(16) 0.74100(9) 0.73345(13)
C32 C 0.27346(16) 0.78457(9) 0.60819(14)
C33 C 0.41439(17) 0.73761(9) 0.55622(14)
H16 H 0.4490 0.7060 0.5504
C34 C 0.17844(18) 0.78948(10) 0.65419(15)
C35 C 0.00507(16) 0.78369(9) 0.76623(13)
H17 H 0.0318 0.8173 0.7609
C36 C 0.01506(17) 0.69110(9) 0.74246(14)
H18 H 0.0471 0.6619 0.7214
C38 C 0.3098(2) 0.83007(10) 0.57375(18)
H20 H 0.2746 0.8615 0.5791
C42 C 0.3975(2) 0.82944(10) 0.53173(16)
H23 H 0.4206 0.8606 0.5093
N5 N 0.14542(14) 0.74591(8) 0.69127(12)
H24 H 0.1831 0.7183 0.6890
O12 O 0.13282(18) 0.83111(8) 0.65663(17)
Zn3 Zn 0.65353(2) 0.661210(9) 0.142030(14)
C13_4 C 1.0000 0.67390(13) 1.0000
H6_4 H 1.0000 0.6373 1.0000
C20_4 C 1.0000 0.78304(12) 1.0000
C24_4 C 1.0000 0.84201(11) 1.0000
N4 N 0.91888(13) 0.77729(7) 0.80529(10)
O10 O 0.83590(13) 0.90349(6) 0.79543(10)
O15 O 0.73060(11) 0.80156(6) 0.89754(10)
O17 O 0.94112(12) 0.86626(6) 0.94909(10)
Zn6 Zn 0.84647(2) 0.838790(9) 0.857970(14)
C31 C 0.88057(16) 0.72905(9) 0.81352(13)
H15 H 0.8209 0.7248 0.8407
C40 C 0.92704(18) 0.68535(10) 0.78290(15)
H21 H 0.8990 0.6521 0.7895
C3_3 C 0.7780(3) 0.0000 0.7253(2)
H2_3 H 0.8133 0.0000 0.7767
C19_3 C 0.6795(4) 0.0000 0.5702(2)
C22_3 C 0.6315(4) 0.0000 0.4847(3)
C27_2 C 0.77542(17) 0.09898(8) 0.73057(14)
C37_2 C 0.7027(2) 0.04720(10) 0.61015(16)
H19_2 H 0.6847 0.0789 0.5845
C39_2 C 0.75231(19) 0.04760(9) 0.68796(14)
O8_2 O 0.73577(13) 0.13971(6) 0.70340(11)
O9_2 O 0.83590(13) 0.09651(6) 0.79543(10)
O11_2 O 0.6145(3) 0.04295(9) 0.44972(15)
Zn4_2 Zn 0.84647(2) 0.161210(9) 0.857970(14)
H25_2 H 0.679998 0.0622777 0.4461
C3_4 C 0.7780(3) 1.0000 0.7253(2)
H2_4 H 0.8133 1.0000 0.7767
C4_2 C 0.77542(17) 0.90102(8) 0.73057(14)
C15_2 C 0.7027(2) 0.95280(10) 0.61015(16)
H8_2 H 0.6847 0.9211 0.5845
C17_2 C 0.75231(19) 0.95240(9) 0.68796(14)
C19_4 C 0.6795(4) 1.0000 0.5702(2)
C22_4 C 0.6315(4) 1.0000 0.4847(3)
O1_2 O 0.73577(13) 0.86029(6) 0.70340(11)
O3_2 O 0.6145(3) 0.95705(9) 0.44972(15)
C1_2 C 0.04776(16) 0.28317(9) 0.47782(13)
C2_2 C 0.17354(17) 0.23818(9) 0.40145(14)
H1_2 H 0.1972 0.2071 0.3793
C3_5 C 0.7220(3) 0.5000 0.2747(2)
H2_5 H 0.6867 0.5000 0.2233
C4_3 C 0.72458(17) 0.40102(8) 0.26943(14)
C5_2 C 0.32948(17) 0.17126(9) 0.06082(15)
C6_2 C 0.44466(16) 0.24100(9) 0.26655(13)
C7_2 C 0.41795(15) 0.20104(9) 0.02906(12)
C8_2 C 0.61943(16) 0.22905(9) 0.18648(13)
H3_2 H 0.6791 0.2248 0.1593
C9_2 C 0.22654(16) 0.28457(9) 0.39181(14)
C10_2 C 0.08561(17) 0.23761(9) 0.44378(14)
H4_2 H 0.0510 0.2060 0.4496
C11_2 C 0.32156(18) 0.28948(10) 0.34581(15)
C12_2 C 0.49493(16) 0.28369(9) 0.23377(13)
H5_2 H 0.4682 0.3173 0.2391
C13_5 C 0.5000 0.17390(13) 0.0000
H6_5 H 0.5000 0.1373 0.0000
C14_2 C 0.48494(17) 0.19110(9) 0.25754(14)
H7_2 H 0.4529 0.1619 0.2786
C15_3 C 0.7973(2) 0.45280(10) 0.38985(16)
H8_3 H 0.8153 0.4211 0.4155
C16_2 C 0.1902(2) 0.33007(10) 0.42625(18)
H9_2 H 0.2254 0.3615 0.4209
C17_3 C 0.74769(19) 0.45240(9) 0.31204(14)
C18_2 C 0.57296(18) 0.18535(10) 0.21710(15)
H10_2 H 0.6010 0.1521 0.2105
C19_5 C 0.8205(4) 0.5000 0.4298(2)
C20_5 C 0.5000 0.28304(12) 0.0000
C21_2 C 0.41798(15) 0.25554(8) 0.02881(12)
H11_2 H 0.3629 0.2738 0.0480
C22_5 C 0.8685(4) 0.5000 0.5153(3)
C23_2 C 0.1025(2) 0.32944(10) 0.46827(16)
H12_2 H 0.0794 0.3606 0.4907
C24_5 C 0.5000 0.34201(11) 0.0000
N1_2 N 0.58112(13) 0.27729(7) 0.19471(10)
N2_2 N 0.35458(14) 0.24591(8) 0.30873(12)
H13_2 H 0.3169 0.2183 0.3110
O1_3 O 0.76423(13) 0.36029(6) 0.29660(11)
O2_2 O 0.66410(13) 0.40349(6) 0.20457(10)
O3_3 O 0.8855(3) 0.45705(9) 0.55028(15)
O4_2 O 0.36718(18) 0.33111(8) 0.34337(17)
O5_2 O 0.26940(11) 0.19844(6) 0.10246(10)
O6_2 O 0.31741(16) 0.12457(8) 0.04569(16)
O7_2 O 0.55888(12) 0.36626(6) 0.05091(10)
Zn1_2 Zn 0.65353(2) 0.338790(9) 0.142030(14)
C27_3 C 0.72458(17) 0.59898(8) 0.26943(14)
C37_3 C 0.7973(2) 0.54720(10) 0.38985(16)
H19_3 H 0.8153 0.5789 0.4155
C39_3 C 0.74769(19) 0.54760(9) 0.31204(14)
O8_3 O 0.76423(13) 0.63971(6) 0.29660(11)
O9_3 O 0.66410(13) 0.59651(6) 0.20457(10)
O11_3 O 0.8855(3) 0.54295(9) 0.55028(15)
O14_2 O 0.76940(11) 0.30156(6) 0.10246(10)
H25_3 H 0.820002 0.562278 0.5539
C13_6 C 0.5000 0.17390(13) 1.0000
H6_6 H 0.5000 0.1373 1.0000
C20_6 C 0.5000 0.28304(12) 1.0000
C24_6 C 0.5000 0.34201(11) 1.0000
C28_2 C 0.67052(17) 0.17126(9) 0.93918(15)
C30_2 C 0.58205(15) 0.20104(9) 0.97094(12)
C41_2 C 0.58202(15) 0.25554(8) 0.97119(12)
H22_2 H 0.6371 0.2738 0.9520
N4_2 N 0.41888(13) 0.27729(7) 0.80529(10)
O10_2 O 0.33590(13) 0.40349(6) 0.79543(10)
O13_2 O 0.73060(11) 0.19844(6) 0.89754(10)
O15_2 O 0.23060(11) 0.30156(6) 0.89754(10)
O16_2 O 0.68259(16) 0.12457(8) 0.95431(16)
O17_2 O 0.44112(12) 0.36626(6) 0.94909(10)
Zn6_2 Zn 0.34647(2) 0.338790(9) 0.857970(14)
C25_2 C 0.95224(16) 0.28317(9) 0.52218(13)
C26_2 C 0.82646(17) 0.23818(9) 0.59855(14)
H14_2 H 0.8028 0.2071 0.6207
C29_2 C 0.55534(16) 0.24100(9) 0.73345(13)
C31_2 C 0.38057(16) 0.22905(9) 0.81352(13)
H15_2 H 0.3209 0.2248 0.8407
C32_2 C 0.77346(16) 0.28457(9) 0.60819(14)
C33_2 C 0.91439(17) 0.23761(9) 0.55622(14)
H16_2 H 0.9490 0.2060 0.5504
C34_2 C 0.67844(18) 0.28948(10) 0.65419(15)
C35_2 C 0.50507(16) 0.28369(9) 0.76623(13)
H17_2 H 0.5318 0.3173 0.7609
C36_2 C 0.51506(17) 0.19110(9) 0.74246(14)
H18_2 H 0.5471 0.1619 0.7214
C38_2 C 0.8098(2) 0.33007(10) 0.57375(18)
H20_2 H 0.7746 0.3615 0.5791
C40_2 C 0.42704(18) 0.18535(10) 0.78290(15)
H21_2 H 0.3990 0.1521 0.7895
C42_2 C 0.8975(2) 0.32944(10) 0.53173(16)
H23_2 H 0.9206 0.3606 0.5093
N5_2 N 0.64542(14) 0.24591(8) 0.69127(12)
H24_2 H 0.6831 0.2183 0.6890
O12_2 O 0.63282(18) 0.33111(8) 0.65663(17)
C3_6 C 0.2780(3) 0.5000 0.7253(2)
H2_6 H 0.3133 0.5000 0.7767
C4_4 C 0.27542(17) 0.40102(8) 0.73057(14)
C15_4 C 0.2027(2) 0.45280(10) 0.61015(16)
H8_4 H 0.1847 0.4211 0.5845
C17_4 C 0.25231(19) 0.45240(9) 0.68796(14)
C19_6 C 0.1795(4) 0.5000 0.5702(2)
C22_6 C 0.1315(4) 0.5000 0.4847(3)
O1_4 O 0.23577(13) 0.36029(6) 0.70340(11)
O3_4 O 0.1145(3) 0.45705(9) 0.44972(15)
C27_4 C 0.27542(17) 0.59898(8) 0.73057(14)
C37_4 C 0.2027(2) 0.54720(10) 0.61015(16)
H19_4 H 0.1847 0.5789 0.5845
C39_4 C 0.25231(19) 0.54760(9) 0.68796(14)
O8_4 O 0.23577(13) 0.63971(6) 0.70340(11)
O9_4 O 0.33590(13) 0.59651(6) 0.79543(10)
O11_4 O 0.1145(3) 0.54295(9) 0.44972(15)
H25_4 H 0.179998 0.562278 0.4461
C31_3 C 0.11943(16) 0.27095(9) 0.18648(13)
H15_3 H 0.1791 0.2752 0.1593
C40_3 C 0.07296(18) 0.31465(10) 0.21710(15)
H21_3 H 0.1010 0.3479 0.2105
N3 N 0.08112(13) 0.22271(7) 0.19471(10)
C13_7 C 0.0000 0.32610(13) 0.0000
H6_7 H -0.0000 0.3627 0.0000
C20_7 C 0.0000 0.21696(12) 0.0000
C24_7 C -0.0000 0.15799(11) 0.0000
O17_3 O 0.05888(12) 0.13374(6) 0.05091(10)
C1_3 C 0.45224(16) 0.21683(9) 0.52218(13)
C2_3 C 0.32646(17) 0.26182(9) 0.59855(14)
H1_3 H 0.3028 0.2929 0.6207
C5_3 C 0.17052(17) 0.32874(9) 0.93918(15)
C6_3 C 0.05534(16) 0.25900(9) 0.73345(13)
C7_3 C 0.08205(15) 0.29896(9) 0.97094(12)
C9_3 C 0.27346(16) 0.21543(9) 0.60819(14)
C10_3 C 0.41439(17) 0.26239(9) 0.55622(14)
H4_3 H 0.4490 0.2940 0.5504
C11_3 C 0.17844(18) 0.21052(10) 0.65419(15)
C12_3 C 0.00507(16) 0.21631(9) 0.76623(13)
H5_3 H 0.0318 0.1827 0.7609
C13_8 C 0.0000 0.32610(13) 1.0000
H6_8 H 0.0000 0.3627 1.0000
C14_3 C 0.01506(17) 0.30890(9) 0.74246(14)
H7_3 H 0.0471 0.3381 0.7214
C16_3 C 0.3098(2) 0.16993(10) 0.57375(18)
H9_3 H 0.2746 0.1385 0.5791
C20_8 C 0.0000 0.21696(12) 1.0000
C21_3 C 0.08202(15) 0.24446(8) 0.97119(12)
H11_3 H 0.1371 0.2262 0.9520
C23_3 C 0.3975(2) 0.17056(10) 0.53173(16)
H12_3 H 0.4206 0.1394 0.5093
C24_8 C 0.0000 0.15799(11) 1.0000
N2_3 N 0.14542(14) 0.25409(8) 0.69127(12)
H13_3 H 0.1831 0.2817 0.6890
O4_3 O 0.13282(18) 0.16889(8) 0.65663(17)
O6_3 O 0.18259(16) 0.37543(8) 0.95431(16)
C25_3 C 0.54776(16) 0.21683(9) 0.47782(13)
C26_3 C 0.67354(17) 0.26182(9) 0.40145(14)
H14_3 H 0.6972 0.2929 0.3793
C29_3 C 0.94466(16) 0.25900(9) 0.26655(13)
C32_3 C 0.72654(16) 0.21543(9) 0.39181(14)
C33_3 C 0.58561(17) 0.26239(9) 0.44378(14)
H16_3 H 0.5510 0.2940 0.4496
C34_3 C 0.82156(18) 0.21052(10) 0.34581(15)
C35_3 C 0.99493(16) 0.21631(9) 0.23377(13)
H17_3 H 0.9682 0.1827 0.2391
C36_3 C 0.98494(17) 0.30890(9) 0.25754(14)
H18_3 H 0.9529 0.3381 0.2786
C38_3 C 0.6902(2) 0.16993(10) 0.42625(18)
H20_3 H 0.7254 0.1385 0.4209
C42_3 C 0.6025(2) 0.17056(10) 0.46827(16)
H23_3 H 0.5794 0.1394 0.4907
N5_3 N 0.85458(14) 0.25409(8) 0.30873(12)
H24_3 H 0.8169 0.2817 0.3110
O12_3 O 0.86718(18) 0.16889(8) 0.34337(17)
C13_9 C 1.0000 0.32610(13) 0.0000
H6_9 H 1.0000 0.3627 0.0000
C20_9 C 1.0000 0.21696(12) 0.0000
C24_9 C 1.0000 0.15799(11) 0.0000
C28_3 C 0.82948(17) 0.32874(9) 0.06082(15)
C30_3 C 0.91795(15) 0.29896(9) 0.02906(12)
C41_3 C 0.91798(15) 0.24446(8) 0.02881(12)
H22_3 H 0.8629 0.2262 0.0480
O16_3 O 0.81741(16) 0.37543(8) 0.04569(16)
C8_3 C 0.88057(16) 0.27095(9) 0.81352(13)
H3_3 H 0.8209 0.2752 0.8407
C13_10 C 1.0000 0.32610(13) 1.0000
H6_10 H 1.0000 0.3627 1.0000
C18_3 C 0.92704(18) 0.31465(10) 0.78290(15)
H10_3 H 0.8990 0.3479 0.7895
C20_10 C 1.0000 0.21696(12) 1.0000
C24_10 C 1.0000 0.15799(11) 1.0000
N1_3 N 0.91888(13) 0.22271(7) 0.80529(10)
O7_3 O 0.94112(12) 0.13374(6) 0.94909(10)
H25_5 H 0.679998 0.937722 0.4461
H25_6 H 0.320002 0.937722 0.5539
C25_4 C 0.04776(16) 0.71683(9) 0.47782(13)
C26_4 C 0.17354(17) 0.76182(9) 0.40145(14)
H14_4 H 0.1972 0.7929 0.3793
C29_4 C 0.44466(16) 0.75900(9) 0.26655(13)
C31_4 C 0.61943(16) 0.77095(9) 0.18648(13)
H15_4 H 0.6791 0.7752 0.1593
C32_4 C 0.22654(16) 0.71543(9) 0.39181(14)
C33_4 C 0.08561(17) 0.76239(9) 0.44378(14)
H16_4 H 0.0510 0.7940 0.4496
C34_4 C 0.32156(18) 0.71052(10) 0.34581(15)
C35_4 C 0.49493(16) 0.71631(9) 0.23377(13)
H17_4 H 0.4682 0.6827 0.2391
C36_4 C 0.48494(17) 0.80890(9) 0.25754(14)
H18_4 H 0.4529 0.8381 0.2786
C38_4 C 0.1902(2) 0.66993(10) 0.42625(18)
H20_4 H 0.2254 0.6385 0.4209
C40_4 C 0.57296(18) 0.81465(10) 0.21710(15)
H21_4 H 0.6010 0.8479 0.2105
C42_4 C 0.1025(2) 0.67056(10) 0.46827(16)
H23_4 H 0.0794 0.6394 0.4907
N3_2 N 0.58112(13) 0.72271(7) 0.19471(10)
N5_4 N 0.35458(14) 0.75409(8) 0.30873(12)
H24_4 H 0.3169 0.7817 0.3110
O12_4 O 0.36718(18) 0.66889(8) 0.34337(17)
C13_11 C 0.5000 0.82610(13) 0.0000
H6_11 H 0.5000 0.8627 0.0000
C20_11 C 0.5000 0.71696(12) 0.0000
C24_11 C 0.5000 0.65799(11) 0.0000
C28_4 C 0.32948(17) 0.82874(9) 0.06082(15)
C30_4 C 0.41795(15) 0.79896(9) 0.02906(12)
C41_4 C 0.41798(15) 0.74446(8) 0.02881(12)
H22_4 H 0.3629 0.7262 0.0480
O16_4 O 0.31741(16) 0.87543(8) 0.04569(16)
O17_4 O 0.55888(12) 0.63374(6) 0.05091(10)
C1_4 C 0.95224(16) 0.71683(9) 0.52218(13)
C2_4 C 0.82646(17) 0.76182(9) 0.59855(14)
H1_4 H 0.8028 0.7929 0.6207
C5_4 C 0.67052(17) 0.82874(9) 0.93918(15)
C6_4 C 0.55534(16) 0.75900(9) 0.73345(13)
C7_4 C 0.58205(15) 0.79896(9) 0.97094(12)
C8_4 C 0.38057(16) 0.77095(9) 0.81352(13)
H3_4 H 0.3209 0.7752 0.8407
C9_4 C 0.77346(16) 0.71543(9) 0.60819(14)
C10_4 C 0.91439(17) 0.76239(9) 0.55622(14)
H4_4 H 0.9490 0.7940 0.5504
C11_4 C 0.67844(18) 0.71052(10) 0.65419(15)
C12_4 C 0.50507(16) 0.71631(9) 0.76623(13)
H5_4 H 0.5318 0.6827 0.7609
C13_12 C 0.5000 0.82610(13) 1.0000
H6_12 H 0.5000 0.8627 1.0000
C14_4 C 0.51506(17) 0.80890(9) 0.74246(14)
H7_4 H 0.5471 0.8381 0.7214
C16_4 C 0.8098(2) 0.66993(10) 0.57375(18)
H9_4 H 0.7746 0.6385 0.5791
C18_4 C 0.42704(18) 0.81465(10) 0.78290(15)
H10_4 H 0.3990 0.8479 0.7895
C20_12 C 0.5000 0.71696(12) 1.0000
C21_4 C 0.58202(15) 0.74446(8) 0.97119(12)
H11_4 H 0.6371 0.7262 0.9520
C23_4 C 0.8975(2) 0.67056(10) 0.53173(16)
H12_4 H 0.9206 0.6394 0.5093
C24_12 C 0.5000 0.65799(11) 1.0000
N1_4 N 0.41888(13) 0.72271(7) 0.80529(10)
N2_4 N 0.64542(14) 0.75409(8) 0.69127(12)
H13_4 H 0.6831 0.7817 0.6890
O4_4 O 0.63282(18) 0.66889(8) 0.65663(17)
O6_4 O 0.68259(16) 0.87543(8) 0.95431(16)
O7_4 O 0.44112(12) 0.63374(6) 0.94909(10)
H25_7 H 0.179998 0.437722 0.4461
H25_8 H 0.820002 0.437722 0.5539
loop_
_geom_bond_atom_site_label_1
_geom_bond_atom_site_label_2
_geom_bond_site_symmetry_1
_geom_bond_site_symmetry_2
C3 H2 1_555 1_555
C22 C19 1_555 1_555
C27 C39 1_555 1_555
C37 C19 1_555 1_555
H19 C37 1_555 1_555
C39 C3 1_555 1_555
O8 C27 1_555 1_555
O9 C27 1_555 1_555
O11 C22 1_555 1_555
Zn4 O9 1_555 1_555
C37 C39 1_555 1_555
O11 H25 1_555 1_555
C3_2 H2_2 1_555 1_555
C4 C17 1_555 1_555
C8 H3 1_555 1_555
C13 H6 1_555 1_555
C15 H8 1_555 1_555
C17 C3_2 1_555 1_555
C18 C8 1_555 1_555
H10 C18 1_555 1_555
C19_2 C15 1_555 1_555
C22_2 C19_2 1_555 1_555
C24 C20 1_555 1_555
N1 C8 1_555 1_555
O1 C4 1_555 1_555
O2 C4 1_555 1_555
O3 C22_2 1_555 1_555
O7 C24 1_555 1_555
Zn1 N1 1_555 1_555
O14 Zn1 1_555 1_555
C15 C17 1_555 1_555
O2 Zn1 1_555 1_555
O7 Zn1 1_555 1_555
C13_2 H6_2 1_555 1_555
C24_2 C20_2 1_555 1_555
C28 C30 1_555 1_555
C30 C13_2 1_555 1_555
C41 C20_2 1_555 1_555
H22 C41 1_555 1_555
O13 C28 1_555 1_555
O16 C28 1_555 1_555
Zn5 O13 1_555 1_555
C30 C41 1_555 1_555
C1 C10 1_555 1_555
C2 H1 1_555 1_555
C5 C7 1_555 1_555
C6 C12 1_555 1_555
C7 C13_3 1_555 1_555
C9 C2 1_555 1_555
C10 C2 1_555 1_555
H4 C10 1_555 1_555
C11 C9 1_555 1_555
C12 H5 1_555 1_555
C13_3 H6_3 1_555 1_555
C14 C6 1_555 1_555
H7 C14 1_555 1_555
C16 C9 1_555 1_555
H9 C16 1_555 1_555
C20_3 C21 1_555 1_555
C21 C7 1_555 1_555
H11 C21 1_555 1_555
C23 C1 1_555 1_555
H12 C23 1_555 1_555
C24_3 C20_3 1_555 1_555
N2 C6 1_555 1_555
H13 N2 1_555 1_555
O4 C11 1_555 1_555
O5 C5 1_555 1_555
O6 C5 1_555 1_555
C25 C1 1_555 1_555
C26 H14 1_555 1_555
C29 C35 1_555 1_555
C32 C26 1_555 1_555
C33 C25 1_555 1_555
H16 C33 1_555 1_555
C34 C32 1_555 1_555
C35 H17 1_555 1_555
C36 C29 1_555 1_555
H18 C36 1_555 1_555
C38 C32 1_555 1_555
H20 C38 1_555 1_555
C42 C25 1_555 1_555
H23 C42 1_555 1_555
N5 C29 1_555 1_555
H24 N5 1_555 1_555
O12 C34 1_555 1_555
Zn3 O5 1_555 1_555
C11 N2 1_555 1_555
C16 C23 1_555 1_555
C26 C33 1_555 1_555
C34 N5 1_555 1_555
C38 C42 1_555 1_555
C13_4 H6_4 1_555 1_555
C24_4 C20_4 1_555 1_555
N4 Zn6 1_555 1_555
O10 Zn6 1_555 1_555
O15 Zn6 1_555 1_555
O17 C24_4 1_555 1_555
Zn6 O17 1_555 1_555
C31 H15 1_555 1_555
C40 C31 1_555 1_555
H21 C40 1_555 1_555
N4 C31 1_555 1_555
C3_3 H2_3 1_555 1_555
C22_3 C19_3 1_555 1_555
C27_2 C39_2 1_555 1_555
C37_2 C19_3 1_555 1_555
H19_2 C37_2 1_555 1_555
C39_2 C3_3 1_555 1_555
O8_2 C27_2 1_555 1_555
O9_2 C27_2 1_555 1_555
O11_2 C22_3 1_555 1_555
Zn4_2 O9_2 1_555 1_555
C37_2 C39_2 1_555 1_555
O11_2 H25_2 1_555 1_555
C3_4 H2_4 1_555 1_555
C4_2 C17_2 1_555 1_555
C15_2 H8_2 1_555 1_555
C17_2 C3_4 1_555 1_555
C19_4 C15_2 1_555 1_555
C22_4 C19_4 1_555 1_555
O1_2 C4_2 1_555 1_555
O10 C4_2 1_555 1_555
O3_2 C22_4 1_555 1_555
C15_2 C17_2 1_555 1_555
C1_2 C10_2 1_555 1_555
C2_2 H1_2 1_555 1_555
C3_5 H2_5 1_555 1_555
C4_3 C17_3 1_555 1_555
C5_2 C7_2 1_555 1_555
C6_2 C12_2 1_555 1_555
C7_2 C13_5 1_555 1_555
C8_2 H3_2 1_555 1_555
C9_2 C2_2 1_555 1_555
C10_2 C2_2 1_555 1_555
H4_2 C10_2 1_555 1_555
C11_2 C9_2 1_555 1_555
C12_2 H5_2 1_555 1_555
C13_5 H6_5 1_555 1_555
C14_2 C6_2 1_555 1_555
H7_2 C14_2 1_555 1_555
C15_3 H8_3 1_555 1_555
C16_2 C9_2 1_555 1_555
H9_2 C16_2 1_555 1_555
C17_3 C3_5 1_555 1_555
C18_2 C8_2 1_555 1_555
H10_2 C18_2 1_555 1_555
C19_5 C15_3 1_555 1_555
C20_5 C21_2 1_555 1_555
C21_2 C7_2 1_555 1_555
H11_2 C21_2 1_555 1_555
C22_5 C19_5 1_555 1_555
C23_2 C1_2 1_555 1_555
H12_2 C23_2 1_555 1_555
C24_5 C20_5 1_555 1_555
N1_2 C8_2 1_555 1_555
N2_2 C6_2 1_555 1_555
H13_2 N2_2 1_555 1_555
O1_3 C4_3 1_555 1_555
O2_2 C4_3 1_555 1_555
O3_3 C22_5 1_555 1_555
O4_2 C11_2 1_555 1_555
O5_2 C5_2 1_555 1_555
O6_2 C5_2 1_555 1_555
O7_2 C24_5 1_555 1_555
Zn1_2 N1_2 1_555 1_555
C27_3 C39_3 1_555 1_555
C37_3 C19_5 1_555 1_555
H19_3 C37_3 1_555 1_555
C39_3 C3_5 1_555 1_555
O8_3 C27_3 1_555 1_555
O9_3 C27_3 1_555 1_555
O11_3 C22_5 1_555 1_555
O14_2 Zn1_2 1_555 1_555
Zn4 O5_2 1_555 1_555
Zn3 O9_3 1_555 1_555
C11_2 N2_2 1_555 1_555
C12_2 N1_2 1_555 1_555
C14_2 C18_2 1_555 1_555
C15_3 C17_3 1_555 1_555
C16_2 C23_2 1_555 1_555
O2_2 Zn1_2 1_555 1_555
O7_2 Zn1_2 1_555 1_555
C37_3 C39_3 1_555 1_555
O11_3 H25_3 1_555 1_555
C13_6 H6_6 1_555 1_555
C24_6 C20_6 1_555 1_555
C28_2 C30_2 1_555 1_555
C30_2 C13_6 1_555 1_555
C41_2 C20_6 1_555 1_555
H22_2 C41_2 1_555 1_555
N4_2 Zn6_2 1_555 1_555
O10_2 Zn6_2 1_555 1_555
O13_2 C28_2 1_555 1_555
O15_2 Zn6_2 1_555 1_555
O16_2 C28_2 1_555 1_555
O17_2 C24_6 1_555 1_555
Zn4_2 O13_2 1_555 1_555
Zn6_2 O17_2 1_555 1_555
C30_2 C41_2 1_555 1_555
C26_2 H14_2 1_555 1_555
C29_2 C35_2 1_555 1_555
C31_2 H15_2 1_555 1_555
C32_2 C26_2 1_555 1_555
C33_2 C25_2 1_555 1_555
H16_2 C33_2 1_555 1_555
C34_2 C32_2 1_555 1_555
C35_2 H17_2 1_555 1_555
C36_2 C29_2 1_555 1_555
H18_2 C36_2 1_555 1_555
C38_2 C32_2 1_555 1_555
H20_2 C38_2 1_555 1_555
C40_2 C31_2 1_555 1_555
H21_2 C40_2 1_555 1_555
C42_2 C25_2 1_555 1_555
H23_2 C42_2 1_555 1_555
N4_2 C31_2 1_555 1_555
N5_2 C29_2 1_555 1_555
H24_2 N5_2 1_555 1_555
O12_2 C34_2 1_555 1_555
C26_2 C33_2 1_555 1_555
C34_2 N5_2 1_555 1_555
C35_2 N4_2 1_555 1_555
C36_2 C40_2 1_555 1_555
C38_2 C42_2 1_555 1_555
C3_6 H2_6 1_555 1_555
C4_4 C17_4 1_555 1_555
C15_4 H8_4 1_555 1_555
C17_4 C3_6 1_555 1_555
C19_6 C15_4 1_555 1_555
C22_6 C19_6 1_555 1_555
O1_4 C4_4 1_555 1_555
O10_2 C4_4 1_555 1_555
O3_4 C22_6 1_555 1_555
C27_4 C39_4 1_555 1_555
C37_4 C19_6 1_555 1_555
H19_4 C37_4 1_555 1_555
C39_4 C3_6 1_555 1_555
O8_4 C27_4 1_555 1_555
O9_4 C27_4 1_555 1_555
O11_4 C22_6 1_555 1_555
Zn5 O9_4 1_555 1_555
C15_4 C17_4 1_555 1_555
C37_4 C39_4 1_555 1_555
O11_4 H25_4 1_555 1_555
C31_3 H15_3 1_555 1_555
C40_3 C31_3 1_555 1_555
H21_3 C40_3 1_555 1_555
N3 C31_3 1_555 1_555
Zn4 N3 1_555 1_555
C13_7 H6_7 1_555 1_555
C24_7 C20_7 1_555 1_555
O17_3 C24_7 1_555 1_555
Zn4 O17_3 1_555 1_555
C1_3 C10_3 1_555 1_555
C2_3 H1_3 1_555 1_555
C5_3 C7_3 1_555 1_555
C6_3 C12_3 1_555 1_555
C7_3 C13_8 1_555 1_555
C9_3 C2_3 1_555 1_555
C10_3 C2_3 1_555 1_555
H4_3 C10_3 1_555 1_555
C11_3 C9_3 1_555 1_555
C12_3 H5_3 1_555 1_555
C13_8 H6_8 1_555 1_555
C14_3 C6_3 1_555 1_555
H7_3 C14_3 1_555 1_555
C16_3 C9_3 1_555 1_555
H9_3 C16_3 1_555 1_555
C20_8 C21_3 1_555 1_555
C21_3 C7_3 1_555 1_555
H11_3 C21_3 1_555 1_555
C23_3 C1_3 1_555 1_555
H12_3 C23_3 1_555 1_555
C24_8 C20_8 1_555 1_555
N2_3 C6_3 1_555 1_555
H13_3 N2_3 1_555 1_555
O4_3 C11_3 1_555 1_555
O15_2 C5_3 1_555 1_555
O6_3 C5_3 1_555 1_555
C25_3 C1_3 1_555 1_555
C26_3 H14_3 1_555 1_555
C29_3 C35_3 1_555 1_555
C32_3 C26_3 1_555 1_555
C33_3 C25_3 1_555 1_555
H16_3 C33_3 1_555 1_555
C34_3 C32_3 1_555 1_555
C35_3 H17_3 1_555 1_555
C36_3 C29_3 1_555 1_555
H18_3 C36_3 1_555 1_555
C38_3 C32_3 1_555 1_555
H20_3 C38_3 1_555 1_555
C42_3 C25_3 1_555 1_555
H23_3 C42_3 1_555 1_555
N5_3 C29_3 1_555 1_555
H24_3 N5_3 1_555 1_555
O12_3 C34_3 1_555 1_555
C11_3 N2_3 1_555 1_555
C16_3 C23_3 1_555 1_555
C26_3 C33_3 1_555 1_555
C34_3 N5_3 1_555 1_555
C38_3 C42_3 1_555 1_555
C13_9 H6_9 1_555 1_555
C24_9 C20_9 1_555 1_555
C28_3 C30_3 1_555 1_555
C30_3 C13_9 1_555 1_555
C41_3 C20_9 1_555 1_555
H22_3 C41_3 1_555 1_555
O14_2 C28_3 1_555 1_555
O16_3 C28_3 1_555 1_555
C30_3 C41_3 1_555 1_555
C8_3 H3_3 1_555 1_555
C13_10 H6_10 1_555 1_555
C18_3 C8_3 1_555 1_555
H10_3 C18_3 1_555 1_555
C24_10 C20_10 1_555 1_555
N1_3 C8_3 1_555 1_555
O7_3 C24_10 1_555 1_555
Zn4_2 N1_3 1_555 1_555
O7_3 Zn4_2 1_555 1_555
O3_2 H25_5 1_555 1_555
O3 H25_6 1_555 1_555
C26_4 H14_4 1_555 1_555
C29_4 C35_4 1_555 1_555
C31_4 H15_4 1_555 1_555
C32_4 C26_4 1_555 1_555
C33_4 C25_4 1_555 1_555
H16_4 C33_4 1_555 1_555
C34_4 C32_4 1_555 1_555
C35_4 H17_4 1_555 1_555
C36_4 C29_4 1_555 1_555
H18_4 C36_4 1_555 1_555
C38_4 C32_4 1_555 1_555
H20_4 C38_4 1_555 1_555
C40_4 C31_4 1_555 1_555
H21_4 C40_4 1_555 1_555
C42_4 C25_4 1_555 1_555
H23_4 C42_4 1_555 1_555
N3_2 C31_4 1_555 1_555
N5_4 C29_4 1_555 1_555
H24_4 N5_4 1_555 1_555
O12_4 C34_4 1_555 1_555
Zn3 N3_2 1_555 1_555
C26_4 C33_4 1_555 1_555
C34_4 N5_4 1_555 1_555
C35_4 N3_2 1_555 1_555
C36_4 C40_4 1_555 1_555
C38_4 C42_4 1_555 1_555
C13_11 H6_11 1_555 1_555
C24_11 C20_11 1_555 1_555
C28_4 C30_4 1_555 1_555
C30_4 C13_11 1_555 1_555
C41_4 C20_11 1_555 1_555
H22_4 C41_4 1_555 1_555
O14 C28_4 1_555 1_555
O16_4 C28_4 1_555 1_555
O17_4 C24_11 1_555 1_555
Zn3 O17_4 1_555 1_555
C30_4 C41_4 1_555 1_555
C1_4 C10_4 1_555 1_555
C2_4 H1_4 1_555 1_555
C5_4 C7_4 1_555 1_555
C6_4 C12_4 1_555 1_555
C7_4 C13_12 1_555 1_555
C8_4 H3_4 1_555 1_555
C9_4 C2_4 1_555 1_555
C10_4 C2_4 1_555 1_555
H4_4 C10_4 1_555 1_555
C11_4 C9_4 1_555 1_555
C12_4 H5_4 1_555 1_555
C13_12 H6_12 1_555 1_555
C14_4 C6_4 1_555 1_555
H7_4 C14_4 1_555 1_555
C16_4 C9_4 1_555 1_555
H9_4 C16_4 1_555 1_555
C18_4 C8_4 1_555 1_555
H10_4 C18_4 1_555 1_555
C20_12 C21_4 1_555 1_555
C21_4 C7_4 1_555 1_555
H11_4 C21_4 1_555 1_555
C23_4 C1_4 1_555 1_555
H12_4 C23_4 1_555 1_555
C24_12 C20_12 1_555 1_555
N1_4 C8_4 1_555 1_555
N2_4 C6_4 1_555 1_555
H13_4 N2_4 1_555 1_555
O4_4 C11_4 1_555 1_555
O15 C5_4 1_555 1_555
O6_4 C5_4 1_555 1_555
O7_4 C24_12 1_555 1_555
Zn5 N1_4 1_555 1_555
C11_4 N2_4 1_555 1_555
C12_4 N1_4 1_555 1_555
C14_4 C18_4 1_555 1_555
C16_4 C23_4 1_555 1_555
O7_4 Zn5 1_555 1_555
O3_4 H25_7 1_555 1_555
O3_3 H25_8 1_555 1_555

#END
