
###############################################################################
#
# This file contains modified crystal structure data generated from the
# MOF subset of the Cambridge Structural Database (CSD) v543 
# hosted by the Cambridge Crystallographic Data Centre (CCDC).
#
# This work is licensed under the Creative Commons
# Attribution-NonCommercial-ShareAlike 4.0 International License.
# To view a copy of this license, visit
# http://creativecommons.org/licenses/by-nc-sa/4.0/
# or send a letter to
# Creative Commons, PO Box 1866, Mountain View, CA 94042, USA.
#
# CIF created using the CSD Python API on 29 September 2022
# The structure has been converted into the P1 space group
# The structure has a 3D framework
# The original CSD entry FEGWIA01 is in the rhombohedral crystal system
# The framework has been calculated to contain at least 10.0% void space
# The void calculation uses a probe of radius 1.32A, grid spacing 0.4
#
###############################################################################

data_FEGWIA01
_chemical_formula_moiety         '(C1080 H828 Co48 N108 O248)n'
_symmetry_cell_setting           triclinic
_symmetry_space_group_name_H-M   'P 1'
_symmetry_Int_Tables_number      1
_space_group_name_Hall           'P 1'
loop_
_symmetry_equiv_pos_site_id
_symmetry_equiv_pos_as_xyz
1 x,y,z
_cell_length_a                   37.914(3)
_cell_length_b                   37.914(3)
_cell_length_c                   29.541(2)
_cell_angle_alpha                90
_cell_angle_beta                 90
_cell_angle_gamma                120
_cell_volume                     36775.2
loop_
_atom_site_label
_atom_site_type_symbol
_atom_site_fract_x
_atom_site_fract_y
_atom_site_fract_z
O19 O 0.79644(11) 0.16781(8) 0.35628(9)
O20 O 0.74712(12) 0.17091(9) 0.32260(10)
C90 C 0.78362(22) 0.00100(15) 0.15144(18)
C91 C 0.78834(23) 0.03196(15) 0.17971(19)
H64 H 0.8144 0.0511 0.1891
C92 C 0.75574(18) 0.03556(13) 0.19459(15)
C93 C 0.71734(21) 0.00647(14) 0.17983(18)
H65 H 0.6947 0.0082 0.1888
C95 C 0.76106(19) 0.06851(13) 0.22661(15)
C96 C 0.79292(20) 0.08552(14) 0.25710(16)
H67 H 0.8124 0.0774 0.2565
C97 C 0.79683(18) 0.11423(13) 0.28844(15)
H68 H 0.8186 0.1252 0.3085
C98 C 0.76792(17) 0.12681(12) 0.28986(14)
C99 C 0.73658(21) 0.11094(15) 0.25869(17)
H69 H 0.7176 0.1197 0.2587
C100 C 0.73310(21) 0.08230(15) 0.22760(17)
H70 H 0.7117 0.0719 0.2069
C101 C 0.77068(17) 0.15664(12) 0.32521(13)
Co12 Co 0.816483(17) 0.149816(17) 0.4167
Co18 Co 0.773874(15) 0.207333(15) 0.381210(18)
Co14 Co 0.516851(17) 0.000000(24) 0.7500
Co1 Co 0.149816(17) 0.816483(17) 0.0833
Co2 Co 0.207333(15) 0.773874(15) 0.118790(18)
O3 O 0.06339(9) 0.83114(9) 0.08971(11)
O4 O 0.09318(9) 0.79555(11) 0.10827(13)
O5 O 0.20476(9) 0.84106(10) 0.04935(12)
O6 O 0.24042(10) 0.81164(11) 0.06837(12)
O7 O 0.25281(11) 0.82180(11) 0.16144(13)
N1 N 0.24198(10) 0.74448(10) 0.11704(13)
N2 N 0.29174(10) 0.64413(10) 0.10990(15)
N3 N 0.28892(16) 0.89039(16) 0.1688(2)
C1 C 0.23339(12) 0.83490(13) 0.04470(15)
C2 C 0.26395(13) 0.85719(14) 0.00741(16)
C7 C 0.30421(15) 0.86712(19) 0.0127(2)
H4 H 0.3128 0.8617 0.0399
C8 C 0.06465(12) 0.80239(13) 0.10955(14)
C9 C 0.02857(12) 0.77340(13) 0.13775(15)
H5 H 0.0001 0.8065 0.1415
C14 C 0.02518(14) 0.73736(15) 0.15192(17)
H8 H 0.0445 0.7306 0.1426
C22 C 0.22407(13) 0.70403(13) 0.11683(18)
H13 H 0.1958 0.6889 0.1187
C23 C 0.24542(13) 0.68339(13) 0.11402(19)
H14 H 0.2317 0.6551 0.1141
C24 C 0.28741(12) 0.70543(12) 0.11109(16)
C25 C 0.30602(13) 0.74783(13) 0.11098(19)
H15 H 0.3342 0.7639 0.1086
C26 C 0.28224(13) 0.76543(13) 0.11443(18)
H16 H 0.2951 0.7937 0.1150
C27 C 0.31198(12) 0.68486(12) 0.10995(17)
C28 C 0.25734(17) 0.85695(18) 0.1553(2)
H17 H 0.2368 0.8589 0.1403
C29 C 0.2940(3) 0.9307(2) 0.1586(4)
H18 H 0.3070 0.9398 0.1297
H19 H 0.3106 0.9498 0.1816
H20 H 0.2678 0.9288 0.1580
C30 C 0.3227(3) 0.8887(3) 0.1907(4)
H21 H 0.3124 0.8635 0.2069
H22 H 0.3361 0.9111 0.2114
H23 H 0.3417 0.8904 0.1681
N4 N 0.25552(10) 0.49750(14) 0.11704(13)
N5 N 0.35587(10) 0.64761(14) 0.10990(15)
C38 C 0.29597(13) 0.52004(18) 0.11683(18)
H28 H 0.3111 0.5069 0.1187
C39 C 0.31661(13) 0.56203(18) 0.11402(19)
H29 H 0.3449 0.5766 0.1141
C40 C 0.29457(12) 0.58198(17) 0.11109(16)
C41 C 0.25217(13) 0.55819(18) 0.11098(19)
H30 H 0.2361 0.5703 0.1086
C42 C 0.23457(13) 0.51681(18) 0.11443(18)
H31 H 0.2063 0.5014 0.1150
C43 C 0.31514(12) 0.62712(17) 0.10995(17)
N6 N 0.50250(14) 0.75802(10) 0.11704(13)
N7 N 0.35239(14) 0.70826(10) 0.10990(15)
C44 C 0.47996(18) 0.77593(13) 0.11683(18)
H32 H 0.4931 0.8042 0.1187
C45 C 0.43797(18) 0.75458(13) 0.11402(19)
H33 H 0.4234 0.7683 0.1141
C46 C 0.41802(17) 0.71259(12) 0.11109(16)
C47 C 0.44181(18) 0.69398(13) 0.11098(19)
H34 H 0.4297 0.6658 0.1086
C48 C 0.48319(18) 0.71776(13) 0.11443(18)
H35 H 0.4986 0.7049 0.1150
C49 C 0.37288(17) 0.68802(12) 0.10995(17)
Co3 Co 0.183517(17) 0.333333(24) 0.0833
Co4 Co 0.226126(15) 0.433459(21) 0.118790(18)
O10 O 0.37137(8) 0.20356(11) 0.35628(9)
O11 O 0.42379(8) 0.25288(12) 0.32260(10)
O12 O 0.16886(9) 0.23225(13) 0.08971(11)
O13 O 0.20445(11) 0.29763(14) 0.10827(13)
O14 O 0.15894(10) 0.36370(13) 0.04935(12)
O15 O 0.18836(11) 0.42878(15) 0.06837(12)
O16 O 0.17820(11) 0.43101(16) 0.16144(13)
N8 N 0.10961(16) 0.39853(23) 0.1688(2)
C50 C 0.16510(13) 0.39849(18) 0.04470(15)
C51 C 0.14281(14) 0.40676(19) 0.00741(16)
C56 C 0.13288(19) 0.43709(24) 0.0127(2)
H39 H 0.1383 0.4511 0.0399
C57 C 0.19761(13) 0.26226(18) 0.10955(14)
C58 C 0.22660(13) 0.25517(18) 0.13775(15)
C59 C 0.21738(16) 0.21638(22) 0.15144(18)
H40 H 0.1935 0.1936 0.1415
C60 C 0.24362(17) 0.21166(23) 0.17971(19)
H41 H 0.2367 0.1856 0.1891
C61 C 0.27982(13) 0.24426(18) 0.19459(15)
C62 C 0.28913(15) 0.28266(21) 0.17983(18)
H42 H 0.3135 0.3053 0.1888
C63 C 0.26264(15) 0.28782(21) 0.15192(17)
H43 H 0.2694 0.3139 0.1426
C64 C 0.30745(14) 0.23894(19) 0.22661(15)
C65 C 0.29260(14) 0.20708(20) 0.25710(16)
H44 H 0.2650 0.1876 0.2565
C66 C 0.31740(13) 0.20317(18) 0.28844(15)
H45 H 0.3066 0.1814 0.3085
C67 C 0.35889(12) 0.23208(17) 0.28986(14)
C68 C 0.37436(14) 0.26342(21) 0.25869(17)
H46 H 0.4021 0.2824 0.2587
C69 C 0.34920(15) 0.26690(21) 0.22760(17)
H47 H 0.3602 0.2883 0.2069
C70 C 0.38596(12) 0.22932(17) 0.32521(13)
C71 C 0.14305(18) 0.40039(25) 0.1553(2)
H48 H 0.1411 0.3779 0.1403
C72 C 0.0693(2) 0.3633(4) 0.1586(4)
H49 H 0.0602 0.3672 0.1297
H50 H 0.0502 0.3608 0.1816
H51 H 0.0712 0.3390 0.1580
C73 C 0.1113(3) 0.4340(4) 0.1907(4)
H52 H 0.1365 0.4489 0.2069
H53 H 0.0889 0.4250 0.2114
H54 H 0.1096 0.4513 0.1681
Co5 Co 0.666667(24) 0.850184(17) 0.0833
Co6 Co 0.566541(21) 0.792667(15) 0.118790(18)
O21 O 0.76775(13) 0.93661(9) 0.08971(11)
O22 O 0.70237(14) 0.90682(9) 0.10827(13)
O23 O 0.63630(13) 0.79524(9) 0.04935(12)
O24 O 0.57122(15) 0.75958(10) 0.06837(12)
O25 O 0.56899(16) 0.74719(11) 0.16144(13)
N9 N 0.60147(23) 0.71108(16) 0.1688(2)
C81 C 0.60151(18) 0.76661(12) 0.04470(15)
C82 C 0.59324(19) 0.73605(13) 0.00741(16)
C87 C 0.56291(24) 0.69579(15) 0.0127(2)
H62 H 0.5489 0.6872 0.0399
C88 C 0.73774(18) 0.93535(12) 0.10955(14)
C89 C 0.74483(18) 0.97143(12) 0.13775(15)
H63 H 0.8064 0.9999 0.1415
C94 C 0.71218(21) 0.97482(14) 0.15192(17)
H66 H 0.6861 0.9555 0.1426
C102 C 0.59961(25) 0.74266(17) 0.1553(2)
H71 H 0.6221 0.7632 0.1403
C103 C 0.6367(4) 0.7060(3) 0.1586(4)
H72 H 0.6328 0.6930 0.1297
H73 H 0.6392 0.6894 0.1816
H74 H 0.6610 0.7322 0.1580
C104 C 0.5660(4) 0.6773(3) 0.1907(4)
H75 H 0.5511 0.6876 0.2069
H76 H 0.5750 0.6639 0.2114
H77 H 0.5487 0.6583 0.1681
O31 O 0.12977(11) 0.83448(8) 0.02295(9)
O35 O 0.16781(8) 0.79644(11) 0.14372(9)
O36 O 0.17091(9) 0.74712(12) 0.17740(10)
C155 C 0.00100(15) 0.78362(22) 0.34856(18)
C156 C 0.03196(15) 0.78834(23) 0.32029(19)
H124 H 0.0511 0.8144 0.3109
C157 C 0.03556(13) 0.75574(18) 0.30541(15)
C158 C 0.00647(14) 0.71734(21) 0.32017(18)
H125 H 0.0082 0.6947 0.3112
C160 C 0.06851(13) 0.76106(19) 0.27339(15)
C161 C 0.08552(14) 0.79292(20) 0.24290(16)
H127 H 0.0774 0.8124 0.2435
C162 C 0.11423(13) 0.79683(18) 0.21156(15)
H128 H 0.1252 0.8186 0.1915
C163 C 0.12681(12) 0.76792(17) 0.21014(14)
C164 C 0.11094(15) 0.73658(21) 0.24131(17)
H129 H 0.1197 0.7176 0.2413
C165 C 0.08230(15) 0.73310(21) 0.27240(17)
H130 H 0.0719 0.7117 0.2931
C166 C 0.15664(12) 0.77068(17) 0.17479(13)
O41 O 0.16447(9) 0.73006(9) 0.07696(11)
O42 O 0.12888(11) 0.75985(9) 0.05840(13)
C167 C 0.13572(13) 0.73132(12) 0.05712(14)
C168 C 0.10673(13) 0.69524(12) 0.02892(15)
C169 C 0.11595(16) 0.66567(15) 0.01523(18)
H131 H 0.1398 0.6668 0.0252
C173 C 0.07069(15) 0.69185(14) 0.01475(17)
H134 H 0.0639 0.7112 0.0241
Co10 Co 0.333333(24) 0.183517(17) 0.4167
Co16 Co 0.433459(21) 0.226126(15) 0.381210(18)
Co21 Co 0.766792(21) 0.892793(15) 0.047877(18)
Co22 Co 0.126000(15) 0.233208(21) 0.047877(18)
Co23 Co 0.107207(15) 0.874000(15) 0.047877(18)
O43 O 0.20356(11) 0.37137(8) 0.14372(9)
O44 O 0.62863(8) 0.83219(8) 0.14372(9)
O48 O 0.16552(8) 0.29530(8) 0.02295(9)
O49 O 0.70470(8) 0.87023(11) 0.02295(9)
O50 O 0.25288(12) 0.42379(8) 0.17740(10)
O51 O 0.57621(8) 0.82909(9) 0.17740(10)
O57 O 0.56558(13) 0.83553(9) 0.07696(11)
O58 O 0.26994(9) 0.43442(13) 0.07696(11)
O59 O 0.63096(14) 0.87112(11) 0.05840(13)
O60 O 0.24015(9) 0.36904(14) 0.05840(13)
O61 O 0.69703(13) 0.82561(10) 0.11732(12)
O62 O 0.12857(9) 0.30297(13) 0.11732(12)
O63 O 0.17439(10) 0.87143(9) 0.11732(12)
C3 C 0.25197(16) 0.86650(19) 0.96794(19)
H1 H 0.2253 0.8611 0.9649
C4 C 0.27918(19) 0.8841(2) 0.9320(2)
H2 H 0.2705 0.8899 0.9051
C5 C 0.31912(16) 0.89284(17) 0.93641(19)
C6 C 0.33153(16) 0.8851(2) 0.9776(2)
H3 H 0.3586 0.8921 0.9817
O8 O 0.46191(9) 0.96963(13) 0.78398(12)
O9 O 0.42625(10) 0.90455(15) 0.76496(12)
C31 C 0.43328(12) 0.93484(18) 0.78863(15)
C32 C 0.40272(13) 0.92657(19) 0.82592(16)
C33 C 0.41470(16) 0.94786(25) 0.86539(19)
H24 H 0.4414 0.9691 0.8684
C34 C 0.38749(19) 0.93825(28) 0.9013(2)
H25 H 0.3962 0.9527 0.9282
C35 C 0.34755(16) 0.90705(23) 0.89692(19)
C36 C 0.33514(16) 0.88690(26) 0.8557(2)
H26 H 0.3081 0.8668 0.8516
C37 C 0.36246(15) 0.89624(24) 0.8206(2)
H27 H 0.3539 0.8822 0.7934
C52 C 0.13350(19) 0.38547(25) 0.96794(19)
H36 H 0.1389 0.3642 0.9649
C53 C 0.1159(2) 0.39508(28) 0.9320(2)
H37 H 0.1101 0.3806 0.9051
C54 C 0.10716(17) 0.42628(23) 0.93641(19)
C55 C 0.1149(2) 0.44643(26) 0.9776(2)
H38 H 0.1079 0.4665 0.9817
O17 O 0.03037(13) 0.49227(10) 0.78398(12)
O18 O 0.09545(15) 0.52169(11) 0.76496(12)
C74 C 0.06516(18) 0.49843(13) 0.78863(15)
C75 C 0.07343(19) 0.47614(14) 0.82592(16)
C76 C 0.05214(25) 0.46683(19) 0.86539(19)
H55 H 0.0309 0.4722 0.8684
C77 C 0.06175(28) 0.4492(2) 0.9013(2)
H56 H 0.0473 0.4434 0.9282
C78 C 0.09295(23) 0.44049(17) 0.89692(19)
C79 C 0.11310(26) 0.4482(2) 0.8557(2)
H57 H 0.1332 0.4412 0.8516
C80 C 0.10376(24) 0.46621(19) 0.8206(2)
H58 H 0.1178 0.4716 0.7934
C83 C 0.61453(25) 0.74803(16) 0.96794(19)
H59 H 0.6358 0.7747 0.9649
C84 C 0.60492(28) 0.72082(19) 0.9320(2)
H60 H 0.6194 0.7295 0.9051
C85 C 0.57372(23) 0.68088(16) 0.93641(19)
C86 C 0.55357(26) 0.66847(16) 0.9776(2)
H61 H 0.5335 0.6414 0.9817
O26 O 0.50773(10) 0.53809(9) 0.78398(12)
O27 O 0.47831(11) 0.57375(10) 0.76496(12)
C105 C 0.50157(13) 0.56672(12) 0.78863(15)
C106 C 0.52386(14) 0.59728(13) 0.82592(16)
C107 C 0.53317(19) 0.58530(16) 0.86539(19)
H78 H 0.5278 0.5586 0.8684
C108 C 0.5508(2) 0.61251(19) 0.9013(2)
H79 H 0.5566 0.6038 0.9282
C109 C 0.55951(17) 0.65245(16) 0.89692(19)
C110 C 0.5518(2) 0.66486(16) 0.8557(2)
H80 H 0.5588 0.6919 0.8516
C111 C 0.53379(19) 0.63754(15) 0.8206(2)
H81 H 0.5284 0.6461 0.7934
Co7 Co 0.100126(21) 0.559459(15) 0.714543(18)
O28 O 0.09768(16) 0.51153(11) 0.67189(13)
N10 N 0.16417(14) 0.58885(10) 0.71629(13)
N11 N 0.31428(14) 0.68920(10) 0.72343(15)
N12 N 0.06520(23) 0.44294(16) 0.6645(2)
C112 C 0.18671(18) 0.62930(13) 0.71650(18)
H82 H 0.1736 0.6444 0.7146
C113 C 0.22870(18) 0.64994(13) 0.71931(19)
H83 H 0.2433 0.6782 0.7192
C114 C 0.24865(17) 0.62790(12) 0.72224(16)
C115 C 0.22486(18) 0.58550(13) 0.72235(19)
H84 H 0.2370 0.5694 0.7247
C116 C 0.18348(18) 0.56790(13) 0.71890(18)
H85 H 0.1681 0.5396 0.7183
C117 C 0.29379(17) 0.64847(12) 0.72338(17)
C118 C 0.06706(25) 0.47638(18) 0.6780(2)
H86 H 0.0446 0.4744 0.6930
C119 C 0.0300(4) 0.4026(2) 0.6747(4)
H87 H 0.0339 0.3935 0.7036
H88 H 0.0275 0.3835 0.6517
H89 H 0.0057 0.4045 0.6753
C120 C 0.1007(4) 0.4446(3) 0.6426(4)
H90 H 0.1156 0.4698 0.6264
H91 H 0.0917 0.4222 0.6219
H92 H 0.1180 0.4429 0.6652
N13 N 0.42469(10) 0.83583(14) 0.71629(13)
N14 N 0.37493(10) 0.68572(14) 0.72343(15)
C121 C 0.44260(13) 0.81329(18) 0.71650(18)
H93 H 0.4709 0.8264 0.7146
C122 C 0.42125(13) 0.77130(18) 0.71931(19)
H94 H 0.4350 0.7567 0.7192
C123 C 0.37926(12) 0.75135(17) 0.72224(16)
C124 C 0.36065(13) 0.77514(18) 0.72235(19)
H95 H 0.3325 0.7630 0.7247
C125 C 0.38443(13) 0.81652(18) 0.71890(18)
H96 H 0.3716 0.8319 0.7183
C126 C 0.35469(12) 0.70621(17) 0.72338(17)
N15 N 0.41115(10) 0.57531(10) 0.71629(13)
N16 N 0.31080(10) 0.62507(10) 0.72343(15)
C127 C 0.37070(13) 0.55740(13) 0.71650(18)
H97 H 0.3556 0.5291 0.7146
C128 C 0.35006(13) 0.57875(13) 0.71931(19)
H98 H 0.3218 0.5650 0.7192
C129 C 0.37210(12) 0.62074(12) 0.72224(16)
C130 C 0.41450(13) 0.63935(13) 0.72235(19)
H99 H 0.4306 0.6675 0.7247
C131 C 0.43210(13) 0.61557(13) 0.71890(18)
H100 H 0.4604 0.6284 0.7183
C132 C 0.35153(12) 0.64531(12) 0.72338(17)
Co8 Co 0.459334(15) 0.899874(21) 0.714543(18)
O29 O 0.41386(11) 0.90232(16) 0.67189(13)
N17 N 0.37775(16) 0.93480(23) 0.6645(2)
C133 C 0.40933(17) 0.93294(25) 0.6780(2)
H101 H 0.4299 0.9554 0.6930
C134 C 0.3727(3) 0.9700(4) 0.6747(4)
H102 H 0.3597 0.9661 0.7036
H103 H 0.3561 0.9725 0.6517
H104 H 0.3989 0.9943 0.6753
C135 C 0.3440(3) 0.8993(4) 0.6426(4)
H105 H 0.3543 0.8844 0.6264
H106 H 0.3306 0.9083 0.6219
H107 H 0.3250 0.8820 0.6652
Co9 Co 0.440541(15) 0.540666(15) 0.714543(18)
O30 O 0.48847(11) 0.58614(11) 0.67189(13)
N18 N 0.55706(16) 0.62225(16) 0.6645(2)
C136 C 0.52362(18) 0.59067(17) 0.6780(2)
H108 H 0.5256 0.5701 0.6930
C137 C 0.5974(2) 0.6273(3) 0.6747(4)
H109 H 0.6065 0.6403 0.7036
H110 H 0.6165 0.6439 0.6517
H111 H 0.5955 0.6011 0.6753
C138 C 0.5554(3) 0.6560(3) 0.6426(4)
H112 H 0.5302 0.6457 0.6264
H113 H 0.5778 0.6694 0.6219
H114 H 0.5571 0.6750 0.6652
O32 O 0.08045(12) 0.83758(9) 0.98927(10)
O33 O 0.10108(13) 0.60328(9) 0.75638(11)
O34 O 0.03570(14) 0.57349(9) 0.77494(13)
C139 C 0.07107(18) 0.60202(12) 0.77622(14)
C140 C 0.07816(18) 0.63810(12) 0.80442(15)
C141 C 0.11695(22) 0.66767(15) 0.81811(18)
H115 H 0.1397 0.6666 0.8082
C142 C 0.12167(23) 0.69863(15) 0.84638(19)
H116 H 0.1477 0.7178 0.8558
C143 C 0.08907(18) 0.70223(13) 0.86126(15)
C144 C 0.05067(21) 0.67314(14) 0.84650(18)
H117 H 0.0280 0.6749 0.8555
C145 C 0.04551(21) 0.64149(14) 0.81859(17)
H118 H 0.0194 0.6222 0.8093
C146 C 0.09439(19) 0.73518(13) 0.89328(15)
C147 C 0.12625(20) 0.75219(14) 0.92377(16)
H119 H 0.1457 0.7441 0.9232
C148 C 0.13016(18) 0.78090(13) 0.95511(15)
H120 H 0.1519 0.7919 0.9752
C149 C 0.10125(17) 0.79348(12) 0.95653(14)
C150 C 0.06991(21) 0.77761(15) 0.92536(17)
H121 H 0.0509 0.7864 0.9254
C151 C 0.06643(21) 0.74897(15) 0.89427(17)
H122 H 0.0450 0.7386 0.8736
C152 C 0.10401(17) 0.82331(12) 0.99188(13)
C170 C 0.08971(17) 0.63471(15) 0.98696(19)
H132 H 0.0966 0.6156 0.9776
C171 C 0.05351(13) 0.63111(13) 0.97208(15)
C172 C 0.04420(15) 0.66020(14) 0.98684(18)
H133 H 0.0198 0.6585 0.9779
C174 C 0.02588(14) 0.59816(13) 0.94006(15)
C175 C 0.04073(14) 0.58115(14) 0.90957(16)
H135 H 0.0683 0.5893 0.9102
C176 C 0.01593(13) 0.55244(13) 0.87823(15)
H136 H 0.0267 0.5415 0.8582
Co13 Co -0.000000(24) 0.516850(17) 0.7500
Co14_2 Co 0.516851(17) 1.000000(24) 0.7500
Co15 Co 0.483150(17) 0.483149(17) 0.7500
O45 O 0.49886(8) 0.96196(8) 0.68961(9)
O46 O 0.03804(8) 0.53689(11) 0.68961(9)
O47 O 0.46311(11) 0.50114(8) 0.68961(9)
O52 O 0.49576(9) 0.90954(8) 0.65593(10)
O53 O 0.09046(8) 0.58621(12) 0.65593(10)
O54 O 0.41379(12) 0.50424(9) 0.65593(10)
O55 O 0.39672(9) 0.49781(9) 0.75638(11)
O56 O 0.50219(9) 0.89892(13) 0.75638(11)
O1 O 0.83219(8) 0.62863(8) 0.35628(9)
O2 O 0.82909(9) 0.57621(8) 0.32260(10)
C10 C 0.99900(15) 0.78262(16) 0.15144(18)
C11 C 0.96804(15) 0.75638(17) 0.17971(19)
H6 H 0.9489 0.7633 0.1891
C12 C 0.96444(13) 0.72018(13) 0.19459(15)
C13 C 0.99353(14) 0.71087(15) 0.17983(18)
H7 H 0.9918 0.6865 0.1888
C15 C 0.93149(13) 0.69255(14) 0.22661(15)
C16 C 0.91448(14) 0.70740(14) 0.25710(16)
H9 H 0.9226 0.7350 0.2565
C17 C 0.88577(13) 0.68260(13) 0.28844(15)
H10 H 0.8748 0.6934 0.3085
C18 C 0.87319(12) 0.64111(12) 0.28986(14)
C19 C 0.88906(15) 0.62564(14) 0.25869(17)
H11 H 0.8803 0.5979 0.2587
C20 C 0.91770(15) 0.65080(15) 0.22760(17)
H12 H 0.9281 0.6398 0.2069
C21 C 0.84336(12) 0.61404(12) 0.32521(13)
O37 O 0.93661(9) 0.76775(13) 0.41029(11)
O38 O 0.90682(9) 0.70237(14) 0.39173(13)
C153 C 0.93535(12) 0.73774(18) 0.39045(14)
C154 C 0.97143(12) 0.74483(18) 0.36225(15)
H123 H 0.9999 0.8064 0.3585
C159 C 0.97482(14) 0.71218(21) 0.34808(17)
H126 H 0.9555 0.6861 0.3574
Co11 Co 0.850184(17) 0.666667(24) 0.4167
Co17 Co 0.792667(15) 0.566541(21) 0.381210(18)
Co19 Co 0.892793(15) 0.766792(21) 0.452123(18)
O39 O 0.96196(8) 0.49886(8) 0.81039(9)
O40 O 0.90954(8) 0.49576(9) 0.84407(10)
C177 C 0.97444(12) 0.53986(12) 0.87681(14)
C178 C 0.95897(14) 0.55573(15) 0.90798(17)
H137 H 0.9312 0.5470 0.9080
C179 C 0.98413(15) 0.58437(15) 0.93907(17)
H138 H 0.9731 0.5948 0.9598
C180 C 0.94737(12) 0.51003(12) 0.84146(13)
Co13_2 Co 1.000000(24) 0.516850(17) 0.7500
Co20 Co 0.899874(21) 0.459334(15) 0.785457(18)
O37_2 O 0.23225(13) 0.16886(16) 0.41029(11)
O38_2 O 0.29763(14) 0.20445(17) 0.39173(13)
C153_2 C 0.26226(18) 0.19761(22) 0.39045(14)
C154_2 C 0.25517(18) 0.22660(22) 0.36225(15)
C155_2 C 0.21638(22) 0.21738(27) 0.34856(18)
H123_2 H 0.1936 0.1935 0.3585
C156_2 C 0.21166(23) 0.24362(27) 0.32029(19)
H124_2 H 0.1856 0.2367 0.3109
C157_2 C 0.24426(18) 0.27982(22) 0.30541(15)
C158_2 C 0.28266(21) 0.28913(25) 0.32017(18)
H125_2 H 0.3053 0.3135 0.3112
C159_2 C 0.28782(21) 0.26264(25) 0.34808(17)
H126_2 H 0.3139 0.2694 0.3574
C160_2 C 0.23894(19) 0.30745(23) 0.27339(15)
C161_2 C 0.20708(20) 0.29260(24) 0.24290(16)
H127_2 H 0.1876 0.2650 0.2435
C162_2 C 0.20317(18) 0.31740(22) 0.21156(15)
H128_2 H 0.1814 0.3066 0.1915
C163_2 C 0.23208(17) 0.35889(21) 0.21014(14)
C164_2 C 0.26342(21) 0.37436(26) 0.24131(17)
H129_2 H 0.2824 0.4021 0.2413
C165_2 C 0.26690(21) 0.34920(26) 0.27240(17)
H130_2 H 0.2883 0.3602 0.2931
C166_2 C 0.22932(17) 0.38596(21) 0.17479(13)
C167_2 C 0.26868(12) 0.40441(18) 0.05712(14)
C168_2 C 0.30476(12) 0.41150(18) 0.02892(15)
C169_2 C 0.33433(15) 0.45029(22) 0.01523(18)
H131_2 H 0.3332 0.4731 0.0252
C173_2 C 0.30815(14) 0.37885(21) 0.01475(17)
H134_2 H 0.2888 0.3528 0.0241
Co19_2 Co 0.233208(21) 0.126000(26) 0.452123(18)
O32_2 O 0.16242(9) 0.24288(15) 0.98927(10)
O34_2 O 0.42651(9) 0.46222(17) 0.77494(13)
C139_2 C 0.39798(12) 0.46906(22) 0.77622(14)
C140_2 C 0.36190(12) 0.44007(22) 0.80442(15)
C141_2 C 0.33233(15) 0.44929(27) 0.81811(18)
H115_2 H 0.3334 0.4732 0.8082
C142_2 C 0.30137(15) 0.42305(27) 0.84638(19)
H116_2 H 0.2822 0.4300 0.8558
C143_2 C 0.29777(13) 0.38685(22) 0.86126(15)
C144_2 C 0.32686(14) 0.37754(25) 0.84650(18)
H117_2 H 0.3251 0.3532 0.8555
C145_2 C 0.35851(14) 0.40403(25) 0.81859(17)
H118_2 H 0.3778 0.3973 0.8093
C146_2 C 0.26482(13) 0.35922(23) 0.89328(15)
C147_2 C 0.24781(14) 0.37407(24) 0.92377(16)
H119_2 H 0.2559 0.4017 0.9232
C148_2 C 0.21910(13) 0.34927(22) 0.95511(15)
H120_2 H 0.2081 0.3601 0.9752
C149_2 C 0.20652(12) 0.30778(21) 0.95653(14)
C150_2 C 0.22239(15) 0.29231(26) 0.92536(17)
H121_2 H 0.2136 0.2646 0.9254
C151_2 C 0.25103(15) 0.31747(26) 0.89427(17)
H122_2 H 0.2614 0.3065 0.8736
C152_2 C 0.17669(12) 0.28071(21) 0.99188(13)
O39_2 O 0.50114(8) 0.46311(11) 0.81039(9)
O40_2 O 0.50424(9) 0.41379(12) 0.84407(10)
C170_2 C 0.36529(15) 0.45501(23) 0.98696(19)
H132_2 H 0.3844 0.4811 0.9776
C171_2 C 0.36889(13) 0.42241(18) 0.97208(15)
C172_2 C 0.33980(14) 0.38401(21) 0.98684(18)
H133_2 H 0.3415 0.3614 0.9779
C174_2 C 0.40184(13) 0.42773(19) 0.94006(15)
C175_2 C 0.41885(14) 0.45959(20) 0.90957(16)
H135_2 H 0.4107 0.4791 0.9102
C176_2 C 0.44756(13) 0.46350(18) 0.87823(15)
H136_2 H 0.4585 0.4853 0.8582
C177_2 C 0.46014(12) 0.43459(17) 0.87681(14)
C178_2 C 0.44427(15) 0.40325(21) 0.90798(17)
H137_2 H 0.4530 0.3843 0.9080
C179_2 C 0.41563(15) 0.39977(21) 0.93907(17)
H138_2 H 0.4052 0.3784 0.9598
C180_2 C 0.48997(12) 0.43735(17) 0.84146(13)
Co20_2 Co 0.540666(15) 0.440541(26) 0.785457(18)
O37_3 O 0.83114(16) 0.06339(9) 0.41029(11)
O38_3 O 0.79555(17) 0.09318(9) 0.39173(13)
C153_3 C 0.80239(22) 0.06465(12) 0.39045(14)
C154_3 C 0.77340(22) 0.02857(12) 0.36225(15)
H123_3 H 0.8065 0.0001 0.3585
C159_3 C 0.73736(25) 0.02518(14) 0.34808(17)
H126_3 H 0.7306 0.0445 0.3574
Co19_3 Co 0.874000(26) 0.107207(15) 0.452123(18)
O39_3 O 0.53689(11) 0.03804(8) 0.81039(9)
O40_3 O 0.58621(12) 0.09046(8) 0.84407(10)
C177_3 C 0.56541(17) 0.02556(12) 0.87681(14)
C178_3 C 0.59675(21) 0.04103(14) 0.90798(17)
H137_3 H 0.6157 0.0688 0.9080
C179_3 C 0.60023(21) 0.01587(15) 0.93907(17)
H138_3 H 0.6216 0.0269 0.9598
C180_3 C 0.56265(17) 0.05263(12) 0.84146(13)
Co20_3 Co 0.559459(26) 0.100126(21) 0.785457(18)
C155_3 C 0.78262(27) 0.99900(15) 0.34856(18)
C156_3 C 0.75638(27) 0.96804(15) 0.32029(19)
H124_3 H 0.7633 0.9489 0.3109
C157_3 C 0.72018(22) 0.96444(13) 0.30541(15)
C158_3 C 0.71087(25) 0.99353(14) 0.32017(18)
H125_3 H 0.6865 0.9918 0.3112
C160_3 C 0.69255(23) 0.93149(13) 0.27339(15)
C161_3 C 0.70740(24) 0.91448(14) 0.24290(16)
H127_3 H 0.7350 0.9226 0.2435
C162_3 C 0.68260(22) 0.88577(13) 0.21156(15)
H128_3 H 0.6934 0.8748 0.1915
C163_3 C 0.64111(21) 0.87319(12) 0.21014(14)
C164_3 C 0.62564(26) 0.88906(15) 0.24131(17)
H129_3 H 0.5979 0.8803 0.2413
C165_3 C 0.65080(26) 0.91770(15) 0.27240(17)
H130_3 H 0.6398 0.9281 0.2931
C166_3 C 0.61404(21) 0.84336(12) 0.17479(13)
C167_3 C 0.59559(18) 0.86428(13) 0.05712(14)
C168_3 C 0.58850(18) 0.89327(13) 0.02892(15)
C169_3 C 0.54971(22) 0.88405(16) 0.01523(18)
H131_3 H 0.5269 0.8602 0.0252
C173_3 C 0.62115(21) 0.92931(15) 0.01475(17)
H134_3 H 0.6472 0.9361 0.0241
O32_3 O 0.75712(15) 0.91955(12) 0.98927(10)
O34_3 O 0.53778(17) 0.96430(14) 0.77494(13)
C139_3 C 0.53094(22) 0.92893(18) 0.77622(14)
C140_3 C 0.55993(22) 0.92184(18) 0.80442(15)
C141_3 C 0.55071(27) 0.88305(22) 0.81811(18)
H115_3 H 0.5268 0.8603 0.8082
C142_3 C 0.57695(27) 0.87833(23) 0.84638(19)
H116_3 H 0.5700 0.8523 0.8558
C143_3 C 0.61315(22) 0.91093(18) 0.86126(15)
C144_3 C 0.62246(25) 0.94933(21) 0.84650(18)
H117_3 H 0.6468 0.9720 0.8555
C145_3 C 0.59597(25) 0.95449(21) 0.81859(17)
H118_3 H 0.6027 0.9806 0.8093
C146_3 C 0.64078(23) 0.90561(19) 0.89328(15)
C147_3 C 0.62593(24) 0.87375(20) 0.92377(16)
H119_3 H 0.5983 0.8543 0.9232
C148_3 C 0.65073(22) 0.86984(18) 0.95511(15)
H120_3 H 0.6399 0.8481 0.9752
C149_3 C 0.69222(21) 0.89875(17) 0.95653(14)
C150_3 C 0.70769(26) 0.93009(21) 0.92536(17)
H121_3 H 0.7354 0.9491 0.9254
C151_3 C 0.68253(26) 0.93357(21) 0.89427(17)
H122_3 H 0.6935 0.9550 0.8736
C152_3 C 0.71929(21) 0.89599(17) 0.99188(13)
C170_3 C 0.54499(23) 0.91029(17) 0.98696(19)
H132_3 H 0.5189 0.9034 0.9776
C171_3 C 0.57759(18) 0.94649(13) 0.97208(15)
C172_3 C 0.61599(21) 0.95580(15) 0.98684(18)
H133_3 H 0.6386 0.9802 0.9779
C174_3 C 0.57227(19) 0.97412(14) 0.94006(15)
C175_3 C 0.54041(20) 0.95927(14) 0.90957(16)
H135_3 H 0.5209 0.9317 0.9102
C176_3 C 0.53650(18) 0.98407(13) 0.87823(15)
H136_3 H 0.5147 0.9733 0.8582
O5_2 O 0.36370(13) 0.15894(10) 0.45065(12)
O6_2 O 0.42878(15) 0.18836(11) 0.43163(12)
O7_2 O 0.43101(16) 0.17820(11) 0.33856(13)
N1_2 N 0.49750(14) 0.25552(10) 0.38296(13)
N2_2 N 0.64761(14) 0.35587(10) 0.39010(15)
N3_2 N 0.39853(23) 0.10961(16) 0.3312(2)
C1_2 C 0.39849(18) 0.16510(13) 0.45530(15)
C2_2 C 0.40676(19) 0.14281(14) 0.49259(16)
C3_2 C 0.38547(25) 0.13350(19) 0.53206(19)
H1_2 H 0.3642 0.1389 0.5351
C4_2 C 0.39508(28) 0.1159(2) 0.5680(2)
H2_2 H 0.3806 0.1101 0.5949
C5_2 C 0.42628(23) 0.10716(17) 0.56359(19)
C6_2 C 0.44643(26) 0.1149(2) 0.5224(2)
H3_2 H 0.4665 0.1079 0.5183
C7_2 C 0.43709(24) 0.13288(19) 0.4873(2)
H4_2 H 0.4511 0.1383 0.4601
C22_2 C 0.52004(18) 0.29597(13) 0.38317(18)
H13_2 H 0.5069 0.3111 0.3813
C23_2 C 0.56203(18) 0.31661(13) 0.38598(19)
H14_2 H 0.5766 0.3449 0.3859
C24_2 C 0.58198(17) 0.29457(12) 0.38891(16)
C25_2 C 0.55819(18) 0.25217(13) 0.38902(19)
H15_2 H 0.5703 0.2361 0.3914
C26_2 C 0.51681(18) 0.23457(13) 0.38557(18)
H16_2 H 0.5014 0.2063 0.3850
C27_2 C 0.62712(17) 0.31514(12) 0.39005(17)
C28_2 C 0.40039(25) 0.14305(18) 0.3447(2)
H17_2 H 0.3779 0.1411 0.3597
C29_2 C 0.3633(4) 0.0693(2) 0.3414(4)
H18_2 H 0.3672 0.0602 0.3703
H19_2 H 0.3608 0.0502 0.3184
H20_2 H 0.3390 0.0712 0.3420
C30_2 C 0.4340(4) 0.1113(3) 0.3093(4)
H21_2 H 0.4489 0.1365 0.2931
H22_2 H 0.4250 0.0889 0.2886
H23_2 H 0.4513 0.1096 0.3319
O8_2 O 0.49227(16) 0.03037(13) 0.71602(12)
O9_2 O 0.52169(18) 0.09545(15) 0.73504(12)
C31_2 C 0.49843(22) 0.06516(18) 0.71137(15)
C32_2 C 0.47614(23) 0.07343(19) 0.67408(16)
C33_2 C 0.46683(30) 0.05214(25) 0.63461(19)
H24_2 H 0.4722 0.0309 0.6316
C34_2 C 0.44923(34) 0.06175(28) 0.5987(2)
H25_2 H 0.4434 0.0473 0.5718
C35_2 C 0.44049(28) 0.09295(23) 0.60308(19)
C36_2 C 0.44823(31) 0.11310(26) 0.6443(2)
H26_2 H 0.4412 0.1332 0.6484
C37_2 C 0.46621(28) 0.10376(24) 0.6794(2)
H27_2 H 0.4716 0.1178 0.7066
N4_2 N 0.75802(17) 0.50250(14) 0.38296(13)
N5_2 N 0.70826(17) 0.35239(14) 0.39010(15)
C38_2 C 0.77593(22) 0.47996(18) 0.38317(18)
H28_2 H 0.8042 0.4931 0.3813
C39_2 C 0.75458(22) 0.43797(18) 0.38598(19)
H29_2 H 0.7683 0.4234 0.3859
C40_2 C 0.71259(21) 0.41802(17) 0.38891(16)
C41_2 C 0.69398(22) 0.44181(18) 0.38902(19)
H30_2 H 0.6658 0.4297 0.3914
C42_2 C 0.71776(22) 0.48319(18) 0.38557(18)
H31_2 H 0.7049 0.4986 0.3850
C43_2 C 0.68802(21) 0.37288(17) 0.39005(17)
N6_2 N 0.74448(17) 0.24198(10) 0.38296(13)
N7_2 N 0.64413(17) 0.29174(10) 0.39010(15)
C44_2 C 0.70403(22) 0.22407(13) 0.38317(18)
H32_2 H 0.6889 0.1958 0.3813
C45_2 C 0.68339(22) 0.24542(13) 0.38598(19)
H33_2 H 0.6551 0.2317 0.3859
C46_2 C 0.70543(21) 0.28741(12) 0.38891(16)
C47_2 C 0.74783(22) 0.30602(13) 0.38902(19)
H34_2 H 0.7639 0.3342 0.3914
C48_2 C 0.76543(22) 0.28224(13) 0.38557(18)
H35_2 H 0.7937 0.2951 0.3850
C49_2 C 0.68486(21) 0.31198(12) 0.39005(17)
O14_2 O 0.79524(16) 0.63630(13) 0.45065(12)
O15_2 O 0.75958(19) 0.57122(15) 0.43163(12)
O16_2 O 0.74719(19) 0.56899(16) 0.33856(13)
N8_2 N 0.71108(28) 0.60147(23) 0.3312(2)
C50_2 C 0.76661(22) 0.60151(18) 0.45530(15)
C51_2 C 0.73605(24) 0.59324(19) 0.49259(16)
C52_2 C 0.74803(31) 0.61453(25) 0.53206(19)
H36_2 H 0.7747 0.6358 0.5351
C53_2 C 0.72082(34) 0.60492(28) 0.5680(2)
H37_2 H 0.7295 0.6194 0.5949
C54_2 C 0.68088(29) 0.57372(23) 0.56359(19)
C55_2 C 0.66847(33) 0.55357(26) 0.5224(2)
H38_2 H 0.6414 0.5335 0.5183
C56_2 C 0.69579(31) 0.56291(24) 0.4873(2)
H39_2 H 0.6872 0.5489 0.4601
C71_2 C 0.74266(31) 0.59961(25) 0.3447(2)
H48_2 H 0.7632 0.6221 0.3597
C72_2 C 0.7060(4) 0.6367(4) 0.3414(4)
H49_2 H 0.6930 0.6328 0.3703
H50_2 H 0.6894 0.6392 0.3184
H51_2 H 0.7322 0.6610 0.3420
C73_2 C 0.6773(5) 0.5660(4) 0.3093(4)
H52_2 H 0.6876 0.5511 0.2931
H53_2 H 0.6639 0.5750 0.2886
H54_2 H 0.6583 0.5487 0.3319
O17_2 O 0.53809(16) 0.50773(10) 0.71602(12)
O18_2 O 0.57375(19) 0.47831(11) 0.73504(12)
C74_2 C 0.56672(22) 0.50157(13) 0.71137(15)
C75_2 C 0.59728(24) 0.52386(14) 0.67408(16)
C76_2 C 0.58530(31) 0.53317(19) 0.63461(19)
H55_2 H 0.5586 0.5278 0.6316
C77_2 C 0.61251(34) 0.5508(2) 0.5987(2)
H56_2 H 0.6038 0.5566 0.5718
C78_2 C 0.65245(29) 0.55951(17) 0.60308(19)
C79_2 C 0.66486(33) 0.5518(2) 0.6443(2)
H57_2 H 0.6919 0.5588 0.6484
C80_2 C 0.63754(31) 0.53379(19) 0.6794(2)
H58_2 H 0.6461 0.5284 0.7066
O23_2 O 0.84106(16) 0.20476(9) 0.45065(12)
O24_2 O 0.81164(18) 0.24042(10) 0.43163(12)
O25_2 O 0.82180(19) 0.25281(11) 0.33856(13)
N9_2 N 0.89039(28) 0.28892(16) 0.3312(2)
C81_2 C 0.83490(22) 0.23339(12) 0.45530(15)
C82_2 C 0.85719(23) 0.26395(13) 0.49259(16)
C83_2 C 0.86650(30) 0.25197(16) 0.53206(19)
H59_2 H 0.8611 0.2253 0.5351
C84_2 C 0.88410(34) 0.27918(19) 0.5680(2)
H60_2 H 0.8899 0.2705 0.5949
C85_2 C 0.89284(28) 0.31912(16) 0.56359(19)
C86_2 C 0.88510(31) 0.33153(16) 0.5224(2)
H61_2 H 0.8921 0.3586 0.5183
C87_2 C 0.86712(28) 0.30421(15) 0.4873(2)
H62_2 H 0.8617 0.3128 0.4601
C102_2 C 0.85695(30) 0.25734(17) 0.3447(2)
H71_2 H 0.8589 0.2368 0.3597
C103_2 C 0.9307(5) 0.2940(3) 0.3414(4)
H72_2 H 0.9398 0.3070 0.3703
H73_2 H 0.9498 0.3106 0.3184
H74_2 H 0.9288 0.2678 0.3420
C104_2 C 0.8887(5) 0.3227(3) 0.3093(4)
H75_2 H 0.8635 0.3124 0.2931
H76_2 H 0.9111 0.3361 0.2886
H77_2 H 0.8904 0.3417 0.3319
O26_2 O 0.96963(13) 0.46191(9) 0.71602(12)
O27_2 O 0.90455(15) 0.42625(10) 0.73504(12)
C105_2 C 0.93484(18) 0.43328(12) 0.71137(15)
C106_2 C 0.92657(19) 0.40272(13) 0.67408(16)
C107_2 C 0.94786(25) 0.41470(16) 0.63461(19)
H78_2 H 0.9691 0.4414 0.6316
C108_2 C 0.93825(28) 0.38749(19) 0.5987(2)
H79_2 H 0.9527 0.3962 0.5718
C109_2 C 0.90705(23) 0.34755(16) 0.60308(19)
C110_2 C 0.88690(26) 0.33514(16) 0.6443(2)
H80_2 H 0.8668 0.3081 0.6484
C111_2 C 0.89624(24) 0.36246(15) 0.6794(2)
H81_2 H 0.8822 0.3539 0.7066
O28_2 O 0.58614(19) 0.48847(11) 0.82811(13)
N10_2 N 0.57531(17) 0.41115(10) 0.78371(13)
N11_2 N 0.62507(17) 0.31080(10) 0.77657(15)
N12_2 N 0.62225(28) 0.55706(16) 0.8355(2)
C112_2 C 0.55740(22) 0.37070(13) 0.78350(18)
H82_2 H 0.5291 0.3556 0.7854
C113_2 C 0.57875(22) 0.35006(13) 0.78069(19)
H83_2 H 0.5650 0.3218 0.7808
C114_2 C 0.62074(21) 0.37210(12) 0.77776(16)
C115_2 C 0.63935(22) 0.41450(13) 0.77765(19)
H84_2 H 0.6675 0.4306 0.7753
C116_2 C 0.61557(22) 0.43210(13) 0.78110(18)
H85_2 H 0.6284 0.4604 0.7817
C117_2 C 0.64531(21) 0.35153(12) 0.77662(17)
C118_2 C 0.59067(31) 0.52362(18) 0.8220(2)
H86_2 H 0.5701 0.5256 0.8070
C119_2 C 0.6273(4) 0.5974(2) 0.8253(4)
H87_2 H 0.6403 0.6065 0.7964
H88_2 H 0.6439 0.6165 0.8483
H89_2 H 0.6011 0.5955 0.8247
C120_2 C 0.6560(5) 0.5554(3) 0.8574(4)
H90_2 H 0.6457 0.5302 0.8736
H91_2 H 0.6694 0.5778 0.8781
H92_2 H 0.6750 0.5571 0.8348
N13_2 N 0.58885(17) 0.16417(14) 0.78371(13)
N14_2 N 0.68920(17) 0.31428(14) 0.77657(15)
C121_2 C 0.62930(22) 0.18671(18) 0.78350(18)
H93_2 H 0.6444 0.1736 0.7854
C122_2 C 0.64994(22) 0.22870(18) 0.78069(19)
H94_2 H 0.6782 0.2433 0.7808
C123_2 C 0.62790(21) 0.24865(17) 0.77776(16)
C124_2 C 0.58550(22) 0.22486(18) 0.77765(19)
H95_2 H 0.5694 0.2370 0.7753
C125_2 C 0.56790(22) 0.18348(18) 0.78110(18)
H96_2 H 0.5396 0.1681 0.7817
C126_2 C 0.64847(21) 0.29379(17) 0.77662(17)
N15_2 N 0.83583(14) 0.42469(10) 0.78371(13)
N16_2 N 0.68572(14) 0.37493(10) 0.77657(15)
C127_2 C 0.81329(18) 0.44260(13) 0.78350(18)
H97_2 H 0.8264 0.4709 0.7854
C128_2 C 0.77130(18) 0.42125(13) 0.78069(19)
H98_2 H 0.7567 0.4350 0.7808
C129_2 C 0.75135(17) 0.37926(12) 0.77776(16)
C130_2 C 0.77514(18) 0.36065(13) 0.77765(19)
H99_2 H 0.7630 0.3325 0.7753
C131_2 C 0.81652(18) 0.38443(13) 0.78110(18)
H100_2 H 0.8319 0.3716 0.7817
C132_2 C 0.70621(17) 0.35469(12) 0.77662(17)
O29_2 O 0.51153(19) 0.09768(16) 0.82811(13)
N17_2 N 0.44294(28) 0.06520(23) 0.8355(2)
C133_2 C 0.47638(30) 0.06706(25) 0.8220(2)
H101_2 H 0.4744 0.0446 0.8070
C134_2 C 0.4026(5) 0.0300(4) 0.8253(4)
H102_2 H 0.3935 0.0339 0.7964
H103_2 H 0.3835 0.0275 0.8483
H104_2 H 0.4045 0.0057 0.8247
C135_2 C 0.4446(5) 0.1007(4) 0.8574(4)
H105_2 H 0.4698 0.1156 0.8736
H106_2 H 0.4222 0.0917 0.8781
H107_2 H 0.4429 0.1180 0.8348
O30_2 O 0.90232(16) 0.41386(11) 0.82811(13)
N18_2 N 0.93480(23) 0.37775(16) 0.8355(2)
C136_2 C 0.93294(25) 0.40933(17) 0.8220(2)
H108_2 H 0.9554 0.4299 0.8070
C137_2 C 0.9700(4) 0.3727(3) 0.8253(4)
H109_2 H 0.9661 0.3597 0.7964
H110_2 H 0.9725 0.3561 0.8483
H111_2 H 0.9943 0.3989 0.8247
C138_2 C 0.8993(4) 0.3440(3) 0.8574(4)
H112_2 H 0.8844 0.3543 0.8736
H113_2 H 0.9083 0.3306 0.8781
H114_2 H 0.8820 0.3250 0.8348
O31_2 O 0.29530(14) 0.16552(8) 0.47705(9)
O32_4 O 0.24288(15) 0.16242(9) 0.51073(10)
O33_2 O 0.49781(16) 0.39672(9) 0.74362(11)
O34_4 O 0.46222(17) 0.42651(9) 0.72506(13)
C139_4 C 0.46906(22) 0.39798(12) 0.72378(14)
C140_4 C 0.44007(22) 0.36190(12) 0.69558(15)
C141_4 C 0.44929(27) 0.33233(15) 0.68189(18)
H115_4 H 0.4732 0.3334 0.6918
C142_4 C 0.42305(27) 0.30137(15) 0.65362(19)
H116_4 H 0.4300 0.2822 0.6442
C143_4 C 0.38685(22) 0.29777(13) 0.63874(15)
C144_4 C 0.37754(25) 0.32686(14) 0.65350(18)
H117_4 H 0.3532 0.3251 0.6445
C145_4 C 0.40403(25) 0.35851(14) 0.68141(17)
H118_4 H 0.3973 0.3778 0.6907
C146_4 C 0.35922(23) 0.26482(13) 0.60672(15)
C147_4 C 0.37407(24) 0.24781(14) 0.57623(16)
H119_4 H 0.4017 0.2559 0.5768
C148_4 C 0.34927(22) 0.21910(13) 0.54489(15)
H120_4 H 0.3601 0.2081 0.5248
C149_4 C 0.30778(21) 0.20652(12) 0.54347(14)
C150_4 C 0.29231(26) 0.22239(15) 0.57464(17)
H121_4 H 0.2646 0.2136 0.5746
C151_4 C 0.31747(26) 0.25103(15) 0.60573(17)
H122_4 H 0.3065 0.2614 0.6264
C152_4 C 0.28071(21) 0.17669(12) 0.50812(13)
O41_2 O 0.43442(13) 0.26994(9) 0.42304(11)
O42_2 O 0.36904(14) 0.24015(9) 0.44160(13)
C167_4 C 0.40441(18) 0.26868(12) 0.44288(14)
C168_4 C 0.41150(18) 0.30476(12) 0.47108(15)
C169_4 C 0.45029(22) 0.33433(15) 0.48477(18)
H131_4 H 0.4731 0.3332 0.4748
C170_4 C 0.45501(23) 0.36529(15) 0.51304(19)
H132_4 H 0.4811 0.3844 0.5224
C171_4 C 0.42241(18) 0.36889(13) 0.52792(15)
C172_4 C 0.38401(21) 0.33980(14) 0.51316(18)
H133_4 H 0.3614 0.3415 0.5221
C173_4 C 0.37885(21) 0.30815(14) 0.48525(17)
H134_4 H 0.3528 0.2888 0.4759
C174_4 C 0.42773(19) 0.40184(13) 0.55994(15)
C175_4 C 0.45959(20) 0.41885(14) 0.59043(16)
H135_4 H 0.4791 0.4107 0.5898
C176_4 C 0.46350(18) 0.44756(13) 0.62177(15)
H136_4 H 0.4853 0.4585 0.6418
C177_4 C 0.43459(17) 0.46014(12) 0.62319(14)
C178_4 C 0.40325(21) 0.44427(15) 0.59202(17)
H137_4 H 0.3843 0.4530 0.5920
C179_4 C 0.39977(21) 0.41563(15) 0.56093(17)
H138_4 H 0.3784 0.4052 0.5402
C180_4 C 0.43735(17) 0.48997(12) 0.65854(13)
O48_2 O 0.87023(11) 0.70470(8) 0.47705(9)
O49_2 O 0.83448(14) 0.12977(11) 0.47705(9)
O55_2 O 0.89892(13) 0.50219(9) 0.74362(11)
O56_2 O 0.60328(16) 0.10108(13) 0.74362(11)
O57_2 O 0.73006(16) 0.16447(9) 0.42304(11)
O58_2 O 0.83553(16) 0.56558(13) 0.42304(11)
O59_2 O 0.75985(18) 0.12888(11) 0.44160(13)
O60_2 O 0.87112(17) 0.63096(14) 0.44160(13)
O61_2 O 0.87143(16) 0.17439(10) 0.38268(12)
O62_2 O 0.82561(16) 0.69703(13) 0.38268(12)
O63_2 O 0.30297(13) 0.12857(9) 0.38268(12)
C177_5 C 0.02556(12) 0.56541(17) 0.62319(14)
C178_5 C 0.04103(14) 0.59675(21) 0.59202(17)
H137_5 H 0.0688 0.6157 0.5920
C179_5 C 0.01587(15) 0.60023(21) 0.56093(17)
H138_5 H 0.0269 0.6216 0.5402
C180_5 C 0.05263(12) 0.56265(17) 0.65854(13)
O32_5 O 0.91955(12) 0.75712(15) 0.51073(10)
O34_5 O 0.96430(14) 0.53778(17) 0.72506(13)
C139_5 C 0.92893(18) 0.53094(22) 0.72378(14)
C140_5 C 0.92184(18) 0.55993(22) 0.69558(15)
C141_5 C 0.88305(22) 0.55071(27) 0.68189(18)
H115_5 H 0.8603 0.5268 0.6918
C142_5 C 0.87833(23) 0.57695(27) 0.65362(19)
H116_5 H 0.8523 0.5700 0.6442
C143_5 C 0.91093(18) 0.61315(22) 0.63874(15)
C144_5 C 0.94933(21) 0.62246(25) 0.65350(18)
H117_5 H 0.9720 0.6468 0.6445
C145_5 C 0.95449(21) 0.59597(25) 0.68141(17)
H118_5 H 0.9806 0.6027 0.6907
C146_5 C 0.90561(19) 0.64078(23) 0.60672(15)
C147_5 C 0.87375(20) 0.62593(24) 0.57623(16)
H119_5 H 0.8543 0.5983 0.5768
C148_5 C 0.86984(18) 0.65073(22) 0.54489(15)
H120_5 H 0.8481 0.6399 0.5248
C149_5 C 0.89875(17) 0.69222(21) 0.54347(14)
C150_5 C 0.93009(21) 0.70769(26) 0.57464(17)
H121_5 H 0.9491 0.7354 0.5746
C151_5 C 0.93357(21) 0.68253(26) 0.60573(17)
H122_5 H 0.9550 0.6935 0.6264
C152_5 C 0.89599(17) 0.71929(21) 0.50812(13)
C167_5 C 0.86428(13) 0.59559(18) 0.44288(14)
C168_5 C 0.89327(13) 0.58850(18) 0.47108(15)
C169_5 C 0.88405(16) 0.54971(22) 0.48477(18)
H131_5 H 0.8602 0.5269 0.4748
C170_5 C 0.91029(17) 0.54499(23) 0.51304(19)
H132_5 H 0.9034 0.5189 0.5224
C171_5 C 0.94649(13) 0.57759(18) 0.52792(15)
C172_5 C 0.95580(15) 0.61599(21) 0.51316(18)
H133_5 H 0.9802 0.6386 0.5221
C173_5 C 0.92931(15) 0.62115(21) 0.48525(17)
H134_5 H 0.9361 0.6472 0.4759
C174_5 C 0.97412(14) 0.57227(19) 0.55994(15)
C175_5 C 0.95927(14) 0.54041(20) 0.59043(16)
H135_5 H 0.9317 0.5209 0.5898
C176_5 C 0.98407(13) 0.53650(18) 0.62177(15)
H136_5 H 0.9733 0.5147 0.6418
O32_6 O 0.83758(9) 0.08045(12) 0.51073(10)
O34_6 O 0.57349(9) 0.03570(14) 0.72506(13)
C139_6 C 0.60202(12) 0.07107(18) 0.72378(14)
C140_6 C 0.63810(12) 0.07816(18) 0.69558(15)
C141_6 C 0.66767(15) 0.11695(22) 0.68189(18)
H115_6 H 0.6666 0.1397 0.6918
C142_6 C 0.69863(15) 0.12167(23) 0.65362(19)
H116_6 H 0.7178 0.1477 0.6442
C143_6 C 0.70223(13) 0.08907(18) 0.63874(15)
C144_6 C 0.67314(14) 0.05067(21) 0.65350(18)
H117_6 H 0.6749 0.0280 0.6445
C145_6 C 0.64149(14) 0.04551(21) 0.68141(17)
H118_6 H 0.6222 0.0194 0.6907
C146_6 C 0.73518(13) 0.09439(19) 0.60672(15)
C147_6 C 0.75219(14) 0.12625(20) 0.57623(16)
H119_6 H 0.7441 0.1457 0.5768
C148_6 C 0.78090(13) 0.13016(18) 0.54489(15)
H120_6 H 0.7919 0.1519 0.5248
C149_6 C 0.79348(12) 0.10125(17) 0.54347(14)
C150_6 C 0.77761(15) 0.06991(21) 0.57464(17)
H121_6 H 0.7864 0.0509 0.5746
C151_6 C 0.74897(15) 0.06643(21) 0.60573(17)
H122_6 H 0.7386 0.0450 0.6264
C152_6 C 0.82331(12) 0.10401(17) 0.50812(13)
C167_6 C 0.73132(12) 0.13572(13) 0.44288(14)
C168_6 C 0.69524(12) 0.10673(13) 0.47108(15)
C169_6 C 0.66567(15) 0.11595(16) 0.48477(18)
H131_6 H 0.6668 0.1398 0.4748
C170_6 C 0.63471(15) 0.08971(17) 0.51304(19)
H132_6 H 0.6156 0.0966 0.5224
C171_6 C 0.63111(13) 0.05351(13) 0.52792(15)
C172_6 C 0.66020(14) 0.04420(15) 0.51316(18)
H133_6 H 0.6585 0.0198 0.5221
C173_6 C 0.69185(14) 0.07069(15) 0.48525(17)
H134_6 H 0.7112 0.0639 0.4759
C174_6 C 0.59816(13) 0.02588(14) 0.55994(15)
C175_6 C 0.58115(14) 0.04073(14) 0.59043(16)
H135_6 H 0.5893 0.0683 0.5898
C176_6 C 0.55244(13) 0.01593(13) 0.62177(15)
H136_6 H 0.5415 0.0267 0.6418
C177_6 C 0.53986(12) 0.97444(12) 0.62319(14)
C178_6 C 0.55573(15) 0.95897(14) 0.59202(17)
H137_6 H 0.5470 0.9312 0.5920
C179_6 C 0.58437(15) 0.98413(15) 0.56093(17)
H138_6 H 0.5948 0.9731 0.5402
C180_6 C 0.51003(12) 0.94737(12) 0.65854(13)
H3_3 H 0.0253 0.2254 0.3150
H15_3 H 0.0009 0.0972 0.4419
H22_3 H 0.0028 0.2444 0.5447
H23_3 H 0.0084 0.2237 0.5014
O9_3 O 0.09291(10) 0.23789(15) 0.09830(12)
C31_3 C 0.09994(12) 0.26818(18) 0.12197(15)
C32_3 C 0.06938(13) 0.25991(19) 0.15926(16)
C33_3 C 0.08136(16) 0.28120(25) 0.19873(19)
H24_3 H 0.1080 0.3025 0.2018
C34_3 C 0.05415(19) 0.27159(28) 0.2347(2)
H25_3 H 0.0628 0.2861 0.2616
C35_3 C 0.01421(16) 0.24039(23) 0.23026(19)
C36_3 C 0.00180(16) 0.22024(26) 0.1891(2)
C37_3 C 0.02912(15) 0.22958(24) 0.1540(2)
H27_3 H 0.0205 0.2156 0.1268
N6_3 N 0.16917(14) 0.09135(10) 0.45037(13)
N7_3 N 0.01906(14) 0.04159(10) 0.44323(15)
C44_3 C 0.14663(18) 0.10926(13) 0.45016(18)
H32_3 H 0.1598 0.1375 0.4520
C45_3 C 0.10464(18) 0.08791(13) 0.44735(19)
H33_3 H 0.0901 0.1016 0.4474
C46_3 C 0.08469(17) 0.04592(12) 0.44442(16)
C47_3 C 0.10848(18) 0.02731(13) 0.44431(19)
C48_3 C 0.14986(18) 0.05109(13) 0.44776(18)
H35_3 H 0.1653 0.0382 0.4483
C49_3 C 0.03955(17) 0.02135(12) 0.44328(17)
O24_3 O 0.23789(15) 0.09291(10) 0.40170(12)
O25_3 O 0.23566(16) 0.08052(11) 0.49477(13)
N9_3 N 0.26814(23) 0.04441(16) 0.5021(2)
C81_3 C 0.26818(18) 0.09994(12) 0.37803(15)
C82_3 C 0.25991(19) 0.06938(13) 0.34074(16)
C83_3 C 0.28120(25) 0.08136(16) 0.30127(19)
H59_3 H 0.3025 0.1080 0.2982
C84_3 C 0.27159(28) 0.05415(19) 0.2653(2)
H60_3 H 0.2861 0.0628 0.2384
C85_3 C 0.24039(23) 0.01421(16) 0.26974(19)
C86_3 C 0.22024(26) 0.00180(16) 0.3109(2)
C87_3 C 0.22958(24) 0.02912(15) 0.3460(2)
H62_3 H 0.2156 0.0205 0.3732
C102_3 C 0.26628(25) 0.07599(17) 0.4886(2)
H71_3 H 0.2888 0.0965 0.4736
C103_3 C 0.3034(4) 0.0393(3) 0.4919(4)
H72_3 H 0.2995 0.0263 0.4630
H73_3 H 0.3059 0.0227 0.5149
H74_3 H 0.3277 0.0655 0.4913
C104_3 C 0.2327(4) 0.0106(3) 0.5240(4)
H75_3 H 0.2178 0.0209 0.5402
H80_3 H 0.2254 0.0253 0.1850
N13_3 N 0.09135(10) 0.16917(14) 0.04963(13)
N14_3 N 0.04159(10) 0.01906(14) 0.05677(15)
C121_3 C 0.10926(13) 0.14663(18) 0.04984(18)
H93_3 H 0.1375 0.1598 0.0480
C122_3 C 0.08791(13) 0.10464(18) 0.05265(19)
H94_3 H 0.1016 0.0901 0.0526
C123_3 C 0.04592(12) 0.08469(17) 0.05558(16)
C124_3 C 0.02731(13) 0.10848(18) 0.05569(19)
C125_3 C 0.05109(13) 0.14986(18) 0.05224(18)
H96_3 H 0.0382 0.1653 0.0517
C126_3 C 0.02135(12) 0.03955(17) 0.05672(17)
H99_3 H 0.0972 0.0009 0.0581
O29_3 O 0.08052(11) 0.23566(16) 0.00523(13)
C133_3 C 0.07599(17) 0.26628(25) 0.0114(2)
H101_3 H 0.0965 0.2888 0.0264
C134_3 C 0.0393(3) 0.3034(4) 0.0081(4)
H102_3 H 0.0263 0.2995 0.0370
H104_3 H 0.0655 0.3277 0.0087
N17_3 N 0.04441(16) 0.26814(23) 0.9979(2)
H103_3 H 0.0227 0.3059 0.9851
C135_3 C 0.0106(3) 0.2327(4) 0.9760(4)
H105_3 H 0.0209 0.2178 0.9598
H113_3 H 0.2444 0.0028 0.9553
H114_3 H 0.2237 0.0084 0.9986
N5_3 N 0.02254(10) 0.98094(14) 0.44323(15)
H29_3 H 0.0116 0.9099 0.4474
H34_3 H 0.0964 0.9991 0.4419
H61_3 H 0.2002 0.9747 0.3150
H76_3 H 0.2417 0.9972 0.5447
H77_3 H 0.2154 0.9916 0.5014
O27_3 O 0.14497(11) 0.90709(10) 0.09830(12)
C105_3 C 0.16823(13) 0.90006(12) 0.12197(15)
C106_3 C 0.19052(14) 0.93062(13) 0.15926(16)
C107_3 C 0.19983(19) 0.91864(16) 0.19873(19)
H78_3 H 0.1944 0.8920 0.2018
C108_3 C 0.2174(2) 0.94585(19) 0.2347(2)
H79_3 H 0.2232 0.9372 0.2616
C109_3 C 0.22617(17) 0.98579(16) 0.23026(19)
C110_3 C 0.2184(2) 0.99820(16) 0.1891(2)
C111_3 C 0.20045(19) 0.97088(15) 0.1540(2)
H81_3 H 0.1950 0.9795 0.1268
N15_3 N 0.07781(10) 0.90865(10) 0.04963(13)
C127_3 C 0.03736(13) 0.89074(13) 0.04984(18)
H97_3 H 0.0222 0.8625 0.0480
C128_3 C 0.01672(13) 0.91209(13) 0.05265(19)
C129_3 C 0.03876(12) 0.95408(12) 0.05558(16)
C130_3 C 0.08116(13) 0.97269(13) 0.05569(19)
C131_3 C 0.09876(13) 0.94891(13) 0.05224(18)
H100_3 H 0.1270 0.9618 0.0517
C132_3 C 0.01819(12) 0.97865(12) 0.05672(17)
O30_3 O 0.15513(11) 0.91948(11) 0.00523(13)
C136_3 C 0.19028(18) 0.92401(17) 0.0114(2)
H108_3 H 0.1922 0.9035 0.0264
C137_3 C 0.2640(2) 0.9607(3) 0.0081(4)
H109_3 H 0.2731 0.9737 0.0370
H111_3 H 0.2621 0.9345 0.0087
N18_3 N 0.22372(16) 0.95559(16) 0.9979(2)
H110_3 H 0.2831 0.9773 0.9851
C138_3 C 0.2220(3) 0.9894(3) 0.9760(4)
H112_3 H 0.1968 0.9791 0.9598
O6_3 O 0.90709(10) 0.14497(11) 0.40170(12)
O7_3 O 0.91948(11) 0.15513(11) 0.49477(13)
N1_3 N 0.90865(10) 0.07781(10) 0.45037(13)
N3_3 N 0.95559(16) 0.22372(16) 0.5021(2)
C1_3 C 0.90006(12) 0.16823(13) 0.37803(15)
C2_3 C 0.93062(13) 0.19052(14) 0.34074(16)
C3_3 C 0.91864(16) 0.19983(19) 0.30127(19)
H1_3 H 0.8920 0.1944 0.2982
C4_3 C 0.94585(19) 0.2174(2) 0.2653(2)
H2_3 H 0.9372 0.2232 0.2384
C5_3 C 0.98579(16) 0.22617(17) 0.26974(19)
C6_3 C 0.99820(16) 0.2184(2) 0.3109(2)
C7_3 C 0.97088(15) 0.20045(19) 0.3460(2)
H4_3 H 0.9795 0.1950 0.3732
C22_3 C 0.89074(13) 0.03736(13) 0.45016(18)
H13_3 H 0.8625 0.0222 0.4520
C23_3 C 0.91209(13) 0.01672(13) 0.44735(19)
C24_3 C 0.95408(12) 0.03876(12) 0.44442(16)
C25_3 C 0.97269(13) 0.08116(13) 0.44431(19)
C26_3 C 0.94891(13) 0.09876(13) 0.44776(18)
H16_3 H 0.9618 0.1270 0.4483
C27_3 C 0.97865(12) 0.01819(12) 0.44328(17)
C28_3 C 0.92401(17) 0.19028(18) 0.4886(2)
H17_3 H 0.9035 0.1922 0.4736
C29_3 C 0.9607(3) 0.2640(2) 0.4919(4)
H18_3 H 0.9737 0.2731 0.4630
H19_3 H 0.9773 0.2831 0.5149
H20_3 H 0.9345 0.2621 0.4913
C30_3 C 0.9894(3) 0.2220(3) 0.5240(4)
H21_3 H 0.9791 0.1968 0.5402
H26_3 H 0.9747 0.2002 0.1850
N11_3 N 0.98094(14) 0.02254(10) 0.05677(15)
H83_3 H 0.9099 0.0116 0.0526
H95_3 H 0.9991 0.0964 0.0581
H106_3 H 0.9972 0.2417 0.9553
H107_3 H 0.9916 0.2154 0.9986
N2_3 N 0.95841(10) 0.97746(10) 0.44323(15)
H14_3 H 0.8984 0.9884 0.4474
N4_3 N 0.92219(10) 0.83083(14) 0.45037(13)
C38_3 C 0.96264(13) 0.85337(18) 0.45016(18)
H28_3 H 0.9778 0.8402 0.4520
C39_3 C 0.98328(13) 0.89536(18) 0.44735(19)
C40_3 C 0.96124(12) 0.91531(17) 0.44442(16)
C41_3 C 0.91884(13) 0.89152(18) 0.44431(19)
H30_3 H 0.9028 0.9036 0.4419
C42_3 C 0.90124(13) 0.85014(18) 0.44776(18)
H31_3 H 0.8730 0.8347 0.4483
C43_3 C 0.98181(12) 0.96045(17) 0.44328(17)
O15_3 O 0.85503(11) 0.76211(15) 0.40170(12)
O16_3 O 0.84487(11) 0.76434(16) 0.49477(13)
N8_3 N 0.77628(16) 0.73186(23) 0.5021(2)
C50_3 C 0.83177(13) 0.73182(18) 0.37803(15)
C51_3 C 0.80948(14) 0.74009(19) 0.34074(16)
C52_3 C 0.80017(19) 0.71880(25) 0.30127(19)
H36_3 H 0.8056 0.6975 0.2982
C53_3 C 0.7826(2) 0.72841(28) 0.2653(2)
H37_3 H 0.7768 0.7139 0.2384
C54_3 C 0.77383(17) 0.75961(23) 0.26974(19)
C55_3 C 0.7816(2) 0.77976(26) 0.3109(2)
H38_3 H 0.7746 0.7998 0.3150
C56_3 C 0.79955(19) 0.77042(24) 0.3460(2)
H39_3 H 0.8050 0.7844 0.3732
C71_3 C 0.80972(18) 0.73372(25) 0.4886(2)
H48_3 H 0.8078 0.7112 0.4736
C72_3 C 0.7360(2) 0.6966(4) 0.4919(4)
H49_3 H 0.7269 0.7005 0.4630
H50_3 H 0.7169 0.6941 0.5149
H51_3 H 0.7379 0.6723 0.4913
C73_3 C 0.7780(3) 0.7673(4) 0.5240(4)
H52_3 H 0.8032 0.7822 0.5402
H53_3 H 0.7556 0.7583 0.5447
H54_3 H 0.7763 0.7846 0.5014
O18_3 O 0.76211(15) 0.85503(11) 0.09830(12)
C74_3 C 0.73182(18) 0.83177(13) 0.12197(15)
C75_3 C 0.74009(19) 0.80948(14) 0.15926(16)
C76_3 C 0.71880(25) 0.80017(19) 0.19873(19)
H55_3 H 0.6975 0.8056 0.2018
C77_3 C 0.72841(28) 0.7826(2) 0.2347(2)
H56_3 H 0.7139 0.7768 0.2616
C78_3 C 0.75961(23) 0.77383(17) 0.23026(19)
C79_3 C 0.77976(26) 0.7816(2) 0.1891(2)
H57_3 H 0.7998 0.7746 0.1850
C80_3 C 0.77042(24) 0.79955(19) 0.1540(2)
H58_3 H 0.7844 0.8050 0.1268
O28_3 O 0.76434(16) 0.84487(11) 0.00523(13)
N10_3 N 0.83083(14) 0.92219(10) 0.04963(13)
C112_3 C 0.85337(18) 0.96264(13) 0.04984(18)
H82_3 H 0.8402 0.9778 0.0480
C113_3 C 0.89536(18) 0.98328(13) 0.05265(19)
C114_3 C 0.91531(17) 0.96124(12) 0.05558(16)
C115_3 C 0.89152(18) 0.91884(13) 0.05569(19)
H84_3 H 0.9036 0.9028 0.0581
C116_3 C 0.85014(18) 0.90124(13) 0.05224(18)
H85_3 H 0.8347 0.8730 0.0517
C117_3 C 0.96045(17) 0.98181(12) 0.05672(17)
C118_3 C 0.73372(25) 0.80972(18) 0.0114(2)
H86_3 H 0.7112 0.8078 0.0264
C119_3 C 0.6966(4) 0.7360(2) 0.0081(4)
H87_3 H 0.7005 0.7269 0.0370
H89_3 H 0.6723 0.7379 0.0087
N16_3 N 0.97746(10) 0.95841(10) 0.05677(15)
H98_3 H 0.9884 0.8984 0.0526
N12_3 N 0.73186(23) 0.77628(16) 0.9979(2)
H88_3 H 0.6941 0.7169 0.9851
C120_3 C 0.7673(4) 0.7780(3) 0.9760(4)
H90_3 H 0.7822 0.8032 0.9598
H91_3 H 0.7583 0.7556 0.9553
H92_3 H 0.7846 0.7763 0.9986
O39_4 O 0.03804(8) 0.50114(8) 0.18961(9)
O40_4 O 0.09046(8) 0.50424(9) 0.15593(10)
C177_7 C 0.02556(12) 0.46014(12) 0.12319(14)
C178_7 C 0.04103(14) 0.44427(15) 0.09202(17)
H137_7 H 0.0688 0.4530 0.0920
C179_7 C 0.01587(15) 0.41563(15) 0.06093(17)
H138_7 H 0.0269 0.4052 0.0402
C180_7 C 0.05263(12) 0.48997(12) 0.15854(13)
Co13_3 Co 0.000000(24) 0.483150(17) 0.2500
Co20_4 Co 0.100126(21) 0.540666(15) 0.214543(18)
O1_2 O 0.16781(8) 0.37137(8) 0.64372(9)
O2_2 O 0.17091(9) 0.42379(8) 0.67740(10)
C10_2 C 0.00100(15) 0.21738(16) 0.84856(18)
C11_2 C 0.03196(15) 0.24362(17) 0.82029(19)
H6_2 H 0.0511 0.2367 0.8109
C12_2 C 0.03556(13) 0.27982(13) 0.80541(15)
C13_2 C 0.00647(14) 0.28913(15) 0.82017(18)
H7_2 H 0.0082 0.3135 0.8112
C15_2 C 0.06851(13) 0.30745(14) 0.77339(15)
C16_2 C 0.08552(14) 0.29260(14) 0.74290(16)
H9_2 H 0.0774 0.2650 0.7435
C17_2 C 0.11423(13) 0.31740(13) 0.71156(15)
H10_2 H 0.1252 0.3066 0.6915
C18_2 C 0.12681(12) 0.35889(12) 0.71014(14)
C19_2 C 0.11094(15) 0.37436(14) 0.74131(17)
H11_2 H 0.1197 0.4021 0.7413
C20_2 C 0.08230(15) 0.34920(15) 0.77240(17)
H12_2 H 0.0719 0.3602 0.7931
C21_2 C 0.15664(12) 0.38596(12) 0.67479(13)
O37_4 O 0.06339(9) 0.23225(13) 0.58971(11)
O38_4 O 0.09318(9) 0.29763(14) 0.60827(13)
C153_4 C 0.06465(12) 0.26226(18) 0.60955(14)
C154_4 C 0.02857(12) 0.25517(18) 0.63775(15)
H123_4 H 0.0001 0.1936 0.6415
C159_4 C 0.02518(14) 0.28782(21) 0.65192(17)
H126_4 H 0.0445 0.3139 0.6426
Co11_2 Co 0.149816(17) 0.333333(24) 0.5833
Co17_2 Co 0.207333(15) 0.433459(21) 0.618790(18)
Co19_4 Co 0.107207(15) 0.233208(21) 0.547877(18)
C3_4 C 0.74803(16) 0.13350(19) 0.03206(19)
H1_4 H 0.7747 0.1389 0.0351
C4_4 C 0.72082(19) 0.1159(2) 0.0680(2)
H2_4 H 0.7295 0.1101 0.0949
C5_4 C 0.68088(16) 0.10716(17) 0.06359(19)
C6_4 C 0.66847(16) 0.1149(2) 0.0224(2)
H3_4 H 0.6414 0.1079 0.0183
O8_3 O 0.53809(9) 0.03037(13) 0.21602(12)
O9_4 O 0.57375(10) 0.09545(15) 0.23504(12)
C31_4 C 0.56672(12) 0.06516(18) 0.21137(15)
C32_4 C 0.59728(13) 0.07343(19) 0.17408(16)
C33_4 C 0.58530(16) 0.05214(25) 0.13461(19)
H24_4 H 0.5586 0.0309 0.1316
C34_4 C 0.61251(19) 0.06175(28) 0.0987(2)
H25_4 H 0.6038 0.0473 0.0718
C35_4 C 0.65245(16) 0.09295(23) 0.10308(19)
C36_4 C 0.66486(16) 0.11310(26) 0.1443(2)
H26_4 H 0.6919 0.1332 0.1484
C37_4 C 0.63754(15) 0.10376(24) 0.1794(2)
H27_4 H 0.6461 0.1178 0.2066
C52_4 C 0.86650(19) 0.61453(25) 0.03206(19)
H36_4 H 0.8611 0.6358 0.0351
C53_4 C 0.8841(2) 0.60492(28) 0.0680(2)
H37_4 H 0.8899 0.6194 0.0949
C54_4 C 0.89284(17) 0.57372(23) 0.06359(19)
C55_4 C 0.8851(2) 0.55357(26) 0.0224(2)
H38_4 H 0.8921 0.5335 0.0183
O17_3 O 0.96963(13) 0.50773(10) 0.21602(12)
O18_4 O 0.90455(15) 0.47831(11) 0.23504(12)
C74_4 C 0.93484(18) 0.50157(13) 0.21137(15)
C75_4 C 0.92657(19) 0.52386(14) 0.17408(16)
C76_4 C 0.94786(25) 0.53317(19) 0.13461(19)
H55_4 H 0.9691 0.5278 0.1316
C77_4 C 0.93825(28) 0.5508(2) 0.0987(2)
H56_4 H 0.9527 0.5566 0.0718
C78_4 C 0.90705(23) 0.55951(17) 0.10308(19)
C79_4 C 0.88690(26) 0.5518(2) 0.1443(2)
H57_4 H 0.8668 0.5588 0.1484
C80_4 C 0.89624(24) 0.53379(19) 0.1794(2)
H58_4 H 0.8822 0.5284 0.2066
C83_4 C 0.38547(25) 0.25197(16) 0.03206(19)
H59_4 H 0.3642 0.2253 0.0351
C84_4 C 0.39508(28) 0.27918(19) 0.0680(2)
H60_4 H 0.3806 0.2705 0.0949
C85_4 C 0.42628(23) 0.31912(16) 0.06359(19)
C86_4 C 0.44643(26) 0.33153(16) 0.0224(2)
H61_4 H 0.4665 0.3586 0.0183
O26_3 O 0.49227(10) 0.46191(9) 0.21602(12)
O27_4 O 0.52169(11) 0.42625(10) 0.23504(12)
C105_4 C 0.49843(13) 0.43328(12) 0.21137(15)
C106_4 C 0.47614(14) 0.40272(13) 0.17408(16)
C107_4 C 0.46683(19) 0.41470(16) 0.13461(19)
H78_4 H 0.4722 0.4414 0.1316
C108_4 C 0.4492(2) 0.38749(19) 0.0987(2)
H79_4 H 0.4434 0.3962 0.0718
C109_4 C 0.44049(17) 0.34755(16) 0.10308(19)
C110_4 C 0.4482(2) 0.33514(16) 0.1443(2)
H80_4 H 0.4412 0.3081 0.1484
C111_4 C 0.46621(19) 0.36246(15) 0.1794(2)
H81_4 H 0.4716 0.3539 0.2066
Co7_2 Co 0.899874(21) 0.440541(15) 0.285457(18)
O28_4 O 0.90232(16) 0.48847(11) 0.32811(13)
N10_4 N 0.83583(14) 0.41115(10) 0.28371(13)
N11_4 N 0.68572(14) 0.31080(10) 0.27657(15)
N12_4 N 0.93480(23) 0.55706(16) 0.3355(2)
C112_4 C 0.81329(18) 0.37070(13) 0.28350(18)
H82_4 H 0.8264 0.3556 0.2854
C113_4 C 0.77130(18) 0.35006(13) 0.28069(19)
H83_4 H 0.7567 0.3218 0.2808
C114_4 C 0.75135(17) 0.37210(12) 0.27776(16)
C115_4 C 0.77514(18) 0.41450(13) 0.27765(19)
H84_4 H 0.7630 0.4306 0.2753
C116_4 C 0.81652(18) 0.43210(13) 0.28110(18)
H85_4 H 0.8319 0.4604 0.2817
C117_4 C 0.70621(17) 0.35153(12) 0.27662(17)
C118_4 C 0.93294(25) 0.52362(18) 0.3220(2)
H86_4 H 0.9554 0.5256 0.3070
C119_4 C 0.9700(4) 0.5974(2) 0.3253(4)
H87_4 H 0.9661 0.6065 0.2964
H88_4 H 0.9725 0.6165 0.3483
H89_4 H 0.9943 0.5955 0.3247
C120_4 C 0.8993(4) 0.5554(3) 0.3574(4)
H90_4 H 0.8844 0.5302 0.3736
H91_4 H 0.9083 0.5778 0.3781
H92_4 H 0.8820 0.5571 0.3348
N13_4 N 0.57531(10) 0.16417(14) 0.28371(13)
N14_4 N 0.62507(10) 0.31428(14) 0.27657(15)
C121_4 C 0.55740(13) 0.18671(18) 0.28350(18)
H93_4 H 0.5291 0.1736 0.2854
C122_4 C 0.57875(13) 0.22870(18) 0.28069(19)
H94_4 H 0.5650 0.2433 0.2808
C123_4 C 0.62074(12) 0.24865(17) 0.27776(16)
C124_4 C 0.63935(13) 0.22486(18) 0.27765(19)
H95_4 H 0.6675 0.2370 0.2753
C125_4 C 0.61557(13) 0.18348(18) 0.28110(18)
H96_4 H 0.6284 0.1681 0.2817
C126_4 C 0.64531(12) 0.29379(17) 0.27662(17)
N15_4 N 0.58885(10) 0.42469(10) 0.28371(13)
N16_4 N 0.68920(10) 0.37493(10) 0.27657(15)
C127_4 C 0.62930(13) 0.44260(13) 0.28350(18)
H97_4 H 0.6444 0.4709 0.2854
C128_4 C 0.64994(13) 0.42125(13) 0.28069(19)
H98_4 H 0.6782 0.4350 0.2808
C129_4 C 0.62790(12) 0.37926(12) 0.27776(16)
C130_4 C 0.58550(13) 0.36065(13) 0.27765(19)
H99_4 H 0.5694 0.3325 0.2753
C131_4 C 0.56790(13) 0.38443(13) 0.28110(18)
H100_4 H 0.5396 0.3716 0.2817
C132_4 C 0.64847(12) 0.35469(12) 0.27662(17)
Co8_2 Co 0.540666(15) 0.100126(21) 0.285457(18)
O29_4 O 0.58614(11) 0.09768(16) 0.32811(13)
N17_4 N 0.62225(16) 0.06520(23) 0.3355(2)
C133_4 C 0.59067(17) 0.06706(25) 0.3220(2)
H101_4 H 0.5701 0.0446 0.3070
C134_4 C 0.6273(3) 0.0300(4) 0.3253(4)
H102_4 H 0.6403 0.0339 0.2964
H103_4 H 0.6439 0.0275 0.3483
H104_4 H 0.6011 0.0057 0.3247
C135_4 C 0.6560(3) 0.1007(4) 0.3574(4)
H105_4 H 0.6457 0.1156 0.3736
H106_4 H 0.6694 0.0917 0.3781
H107_4 H 0.6750 0.1180 0.3348
Co9_2 Co 0.559459(15) 0.459334(15) 0.285457(18)
O30_4 O 0.51153(11) 0.41386(11) 0.32811(13)
N18_4 N 0.44294(16) 0.37775(16) 0.3355(2)
C136_4 C 0.47638(18) 0.40933(17) 0.3220(2)
H108_4 H 0.4744 0.4299 0.3070
C137_4 C 0.4026(2) 0.3727(3) 0.3253(4)
H109_4 H 0.3935 0.3597 0.2964
H110_4 H 0.3835 0.3561 0.3483
H111_4 H 0.4045 0.3989 0.3247
C138_4 C 0.4446(3) 0.3440(3) 0.3574(4)
H112_4 H 0.4698 0.3543 0.3736
H113_4 H 0.4222 0.3306 0.3781
H114_4 H 0.4429 0.3250 0.3348
O32_7 O 0.91955(12) 0.16242(9) 0.01073(10)
O33_3 O 0.89892(13) 0.39672(9) 0.24362(11)
O34_7 O 0.96430(14) 0.42651(9) 0.22506(13)
C139_7 C 0.92893(18) 0.39798(12) 0.22378(14)
C140_7 C 0.92184(18) 0.36190(12) 0.19558(15)
C141_7 C 0.88305(22) 0.33233(15) 0.18189(18)
H115_7 H 0.8603 0.3334 0.1918
C142_7 C 0.87833(23) 0.30137(15) 0.15362(19)
H116_7 H 0.8523 0.2822 0.1442
C143_7 C 0.91093(18) 0.29777(13) 0.13874(15)
C144_7 C 0.94933(21) 0.32686(14) 0.15350(18)
H117_7 H 0.9720 0.3251 0.1445
C145_7 C 0.95449(21) 0.35851(14) 0.18141(17)
H118_7 H 0.9806 0.3778 0.1907
C146_7 C 0.90561(19) 0.26482(13) 0.10672(15)
C147_7 C 0.87375(20) 0.24781(14) 0.07623(16)
H119_7 H 0.8543 0.2559 0.0768
C148_7 C 0.86984(18) 0.21910(13) 0.04489(15)
H120_7 H 0.8481 0.2081 0.0248
C149_7 C 0.89875(17) 0.20652(12) 0.04347(14)
C150_7 C 0.93009(21) 0.22239(15) 0.07464(17)
H121_7 H 0.9491 0.2136 0.0746
C151_7 C 0.93357(21) 0.25103(15) 0.10573(17)
H122_7 H 0.9550 0.2614 0.1264
C152_7 C 0.89599(17) 0.17669(12) 0.00812(13)
C170_7 C 0.91029(17) 0.36529(15) 0.01304(19)
H132_7 H 0.9034 0.3844 0.0224
C171_7 C 0.94649(13) 0.36889(13) 0.02792(15)
C172_7 C 0.95580(15) 0.33980(14) 0.01316(18)
H133_7 H 0.9802 0.3415 0.0221
C174_7 C 0.97412(14) 0.40184(13) 0.05994(15)
C175_7 C 0.95927(14) 0.41885(14) 0.09043(16)
H135_7 H 0.9317 0.4107 0.0898
C176_7 C 0.98407(13) 0.44756(13) 0.12177(15)
H136_7 H 0.9733 0.4585 0.1418
Co13_4 Co 1.000000(24) 0.483150(17) 0.2500
Co14_3 Co 0.483149(17) -0.000000(24) 0.2500
Co15_2 Co 0.516850(17) 0.516851(17) 0.2500
O45_2 O 0.50114(8) 0.03804(8) 0.31039(9)
O46_2 O 0.96196(8) 0.46311(11) 0.31039(9)
O47_2 O 0.53689(11) 0.49886(8) 0.31039(9)
O52_2 O 0.50424(9) 0.09046(8) 0.34407(10)
O53_2 O 0.90954(8) 0.41379(12) 0.34407(10)
O54_2 O 0.58621(12) 0.49576(9) 0.34407(10)
O55_3 O 0.60328(9) 0.50219(9) 0.24362(11)
O56_3 O 0.49781(9) 0.10108(13) 0.24362(11)
Co1_2 Co 0.850184(17) 0.183517(17) 0.9167
Co2_2 Co 0.792667(15) 0.226126(15) 0.881210(18)
O3_2 O 0.93661(9) 0.16886(9) 0.91029(11)
O4_2 O 0.90682(9) 0.20445(11) 0.89173(13)
O5_3 O 0.79524(9) 0.15894(10) 0.95065(12)
O6_4 O 0.75958(10) 0.18836(11) 0.93163(12)
O7_4 O 0.74719(11) 0.17820(11) 0.83856(13)
N1_4 N 0.75802(10) 0.25552(10) 0.88296(13)
N2_4 N 0.70826(10) 0.35587(10) 0.89010(15)
N3_4 N 0.71108(16) 0.10961(16) 0.8312(2)
C1_4 C 0.76661(12) 0.16510(13) 0.95530(15)
C2_4 C 0.73605(13) 0.14281(14) 0.99259(16)
C7_4 C 0.69579(15) 0.13288(19) 0.9873(2)
H4_4 H 0.6872 0.1383 0.9601
C8_2 C 0.93535(12) 0.19761(13) 0.89045(14)
C9_2 C 0.97143(12) 0.22660(13) 0.86225(15)
H5_2 H 0.9999 0.1935 0.8585
C14_2 C 0.97482(14) 0.26264(15) 0.84808(17)
H8_2 H 0.9555 0.2694 0.8574
C22_4 C 0.77593(13) 0.29597(13) 0.88317(18)
H13_4 H 0.8042 0.3111 0.8813
C23_4 C 0.75458(13) 0.31661(13) 0.88598(19)
H14_4 H 0.7683 0.3449 0.8859
C24_4 C 0.71259(12) 0.29457(12) 0.88891(16)
C25_4 C 0.69398(13) 0.25217(13) 0.88902(19)
H15_4 H 0.6658 0.2361 0.8914
C26_4 C 0.71776(13) 0.23457(13) 0.88557(18)
H16_4 H 0.7049 0.2063 0.8850
C27_4 C 0.68802(12) 0.31514(12) 0.89005(17)
C28_4 C 0.74266(17) 0.14305(18) 0.8447(2)
H17_4 H 0.7632 0.1411 0.8597
C29_4 C 0.7060(3) 0.0693(2) 0.8414(4)
H18_4 H 0.6930 0.0602 0.8703
H19_4 H 0.6894 0.0502 0.8184
H20_4 H 0.7322 0.0712 0.8420
C30_4 C 0.6773(3) 0.1113(3) 0.8093(4)
H21_4 H 0.6876 0.1365 0.7931
H22_4 H 0.6639 0.0889 0.7886
H23_4 H 0.6583 0.1096 0.8319
N4_4 N 0.74448(10) 0.50250(14) 0.88296(13)
N5_4 N 0.64413(10) 0.35239(14) 0.89010(15)
C38_4 C 0.70403(13) 0.47996(18) 0.88317(18)
H28_4 H 0.6889 0.4931 0.8813
C39_4 C 0.68339(13) 0.43797(18) 0.88598(19)
H29_4 H 0.6551 0.4234 0.8859
C40_4 C 0.70543(12) 0.41802(17) 0.88891(16)
C41_4 C 0.74783(13) 0.44181(18) 0.88902(19)
H30_4 H 0.7639 0.4297 0.8914
C42_4 C 0.76543(13) 0.48319(18) 0.88557(18)
H31_4 H 0.7937 0.4986 0.8850
C43_4 C 0.68486(12) 0.37288(17) 0.89005(17)
N6_4 N 0.49750(14) 0.24198(10) 0.88296(13)
N7_4 N 0.64761(14) 0.29174(10) 0.89010(15)
C44_4 C 0.52004(18) 0.22407(13) 0.88317(18)
H32_4 H 0.5069 0.1958 0.8813
C45_4 C 0.56203(18) 0.24542(13) 0.88598(19)
H33_4 H 0.5766 0.2317 0.8859
C46_4 C 0.58198(17) 0.28741(12) 0.88891(16)
C47_4 C 0.55819(18) 0.30602(13) 0.88902(19)
H34_4 H 0.5703 0.3342 0.8914
C48_4 C 0.51681(18) 0.28224(13) 0.88557(18)
H35_4 H 0.5014 0.2951 0.8850
C49_4 C 0.62712(17) 0.31198(12) 0.89005(17)
Co3_2 Co 0.816483(17) 0.666667(24) 0.9167
Co4_2 Co 0.773874(15) 0.566541(21) 0.881210(18)
O10_2 O 0.62863(8) 0.79644(11) 0.64372(9)
O11_2 O 0.57621(8) 0.74712(12) 0.67740(10)
O12_2 O 0.83114(9) 0.76775(13) 0.91029(11)
O13_2 O 0.79555(11) 0.70237(14) 0.89173(13)
O14_3 O 0.84106(10) 0.63630(13) 0.95065(12)
O15_4 O 0.81164(11) 0.57122(15) 0.93163(12)
O16_4 O 0.82180(11) 0.56899(16) 0.83856(13)
N8_4 N 0.89039(16) 0.60147(23) 0.8312(2)
C50_4 C 0.83490(13) 0.60151(18) 0.95530(15)
C51_4 C 0.85719(14) 0.59324(19) 0.99259(16)
C56_4 C 0.86712(19) 0.56291(24) 0.9873(2)
H39_4 H 0.8617 0.5489 0.9601
C57_2 C 0.80239(13) 0.73774(18) 0.89045(14)
C58_2 C 0.77340(13) 0.74483(18) 0.86225(15)
C59_2 C 0.78262(16) 0.78362(22) 0.84856(18)
H40_2 H 0.8065 0.8064 0.8585
C60_2 C 0.75638(17) 0.78834(23) 0.82029(19)
H41_2 H 0.7633 0.8144 0.8109
C61_2 C 0.72018(13) 0.75574(18) 0.80541(15)
C62_2 C 0.71087(15) 0.71734(21) 0.82017(18)
H42_2 H 0.6865 0.6947 0.8112
C63_2 C 0.73736(15) 0.71218(21) 0.84808(17)
H43_2 H 0.7306 0.6861 0.8574
C64_2 C 0.69255(14) 0.76106(19) 0.77339(15)
C65_2 C 0.70740(14) 0.79292(20) 0.74290(16)
H44_2 H 0.7350 0.8124 0.7435
C66_2 C 0.68260(13) 0.79683(18) 0.71156(15)
H45_2 H 0.6934 0.8186 0.6915
C67_2 C 0.64111(12) 0.76792(17) 0.71014(14)
C68_2 C 0.62564(14) 0.73658(21) 0.74131(17)
H46_2 H 0.5979 0.7176 0.7413
C69_2 C 0.65080(15) 0.73310(21) 0.77240(17)
H47_2 H 0.6398 0.7117 0.7931
C70_2 C 0.61404(12) 0.77068(17) 0.67479(13)
C71_4 C 0.85695(18) 0.59961(25) 0.8447(2)
H48_4 H 0.8589 0.6221 0.8597
C72_4 C 0.9307(2) 0.6367(4) 0.8414(4)
H49_4 H 0.9398 0.6328 0.8703
H50_4 H 0.9498 0.6392 0.8184
H51_4 H 0.9288 0.6610 0.8420
C73_4 C 0.8887(3) 0.5660(4) 0.8093(4)
H52_4 H 0.8635 0.5511 0.7931
H53_4 H 0.9111 0.5750 0.7886
H54_4 H 0.8904 0.5487 0.8319
Co5_2 Co 0.333333(24) 0.149816(17) 0.9167
Co6_2 Co 0.433459(21) 0.207333(15) 0.881210(18)
O21_2 O 0.23225(13) 0.06339(9) 0.91029(11)
O22_2 O 0.29763(14) 0.09318(9) 0.89173(13)
O23_3 O 0.36370(13) 0.20476(9) 0.95065(12)
O24_4 O 0.42878(15) 0.24042(10) 0.93163(12)
O25_4 O 0.43101(16) 0.25281(11) 0.83856(13)
N9_4 N 0.39853(23) 0.28892(16) 0.8312(2)
C81_4 C 0.39849(18) 0.23339(12) 0.95530(15)
C82_4 C 0.40676(19) 0.26395(13) 0.99259(16)
C87_4 C 0.43709(24) 0.30421(15) 0.9873(2)
H62_4 H 0.4511 0.3128 0.9601
C88_2 C 0.26226(18) 0.06465(12) 0.89045(14)
C89_2 C 0.25517(18) 0.02857(12) 0.86225(15)
H63_2 H 0.1936 0.0001 0.8585
C94_2 C 0.28782(21) 0.02518(14) 0.84808(17)
H66_2 H 0.3139 0.0445 0.8574
C102_4 C 0.40039(25) 0.25734(17) 0.8447(2)
H71_4 H 0.3779 0.2368 0.8597
C103_4 C 0.3633(4) 0.2940(3) 0.8414(4)
H72_4 H 0.3672 0.3070 0.8703
H73_4 H 0.3608 0.3106 0.8184
H74_4 H 0.3390 0.2678 0.8420
C104_4 C 0.4340(4) 0.3227(3) 0.8093(4)
H75_4 H 0.4489 0.3124 0.7931
H76_4 H 0.4250 0.3361 0.7886
H77_4 H 0.4513 0.3417 0.8319
O31_3 O 0.87023(11) 0.16552(8) 0.97705(9)
O35_2 O 0.83219(8) 0.20356(11) 0.85628(9)
O36_2 O 0.82909(9) 0.25288(12) 0.82260(10)
C155_4 C 0.99900(15) 0.21638(22) 0.65144(18)
C156_4 C 0.96804(15) 0.21166(23) 0.67971(19)
H124_4 H 0.9489 0.1856 0.6891
C157_4 C 0.96444(13) 0.24426(18) 0.69459(15)
C158_4 C 0.99353(14) 0.28266(21) 0.67983(18)
H125_4 H 0.9918 0.3053 0.6888
C160_4 C 0.93149(13) 0.23894(19) 0.72661(15)
C161_4 C 0.91448(14) 0.20708(20) 0.75710(16)
H127_4 H 0.9226 0.1876 0.7565
C162_4 C 0.88577(13) 0.20317(18) 0.78844(15)
H128_4 H 0.8748 0.1814 0.8085
C163_4 C 0.87319(12) 0.23208(17) 0.78986(14)
C164_4 C 0.88906(15) 0.26342(21) 0.75869(17)
H129_4 H 0.8803 0.2824 0.7587
C165_4 C 0.91770(15) 0.26690(21) 0.72760(17)
H130_4 H 0.9281 0.2883 0.7069
C166_4 C 0.84336(12) 0.22932(17) 0.82521(13)
O41_3 O 0.83553(9) 0.26994(9) 0.92304(11)
O42_3 O 0.87112(11) 0.24015(9) 0.94160(13)
C167_7 C 0.86428(13) 0.26868(12) 0.94288(14)
C168_7 C 0.89327(13) 0.30476(12) 0.97108(15)
C169_7 C 0.88405(16) 0.33433(15) 0.98477(18)
H131_7 H 0.8602 0.3332 0.9748
C173_7 C 0.92931(15) 0.30815(14) 0.98525(17)
H134_7 H 0.9361 0.2888 0.9759
Co10_2 Co 0.666667(24) 0.816483(17) 0.5833
Co16_2 Co 0.566541(21) 0.773874(15) 0.618790(18)
Co21_2 Co 0.233208(21) 0.107207(15) 0.952123(18)
Co22_2 Co 0.874000(15) 0.766792(21) 0.952123(18)
Co23_2 Co 0.892793(15) 0.126000(15) 0.952123(18)
O43_2 O 0.79644(11) 0.62863(8) 0.85628(9)
O44_2 O 0.37137(8) 0.16781(8) 0.85628(9)
O48_3 O 0.83448(8) 0.70470(8) 0.97705(9)
O49_3 O 0.29530(8) 0.12977(11) 0.97705(9)
O50_2 O 0.74712(12) 0.57621(8) 0.82260(10)
O51_2 O 0.42379(8) 0.17091(9) 0.82260(10)
O57_3 O 0.43442(13) 0.16447(9) 0.92304(11)
O58_3 O 0.73006(9) 0.56558(13) 0.92304(11)
O59_3 O 0.36904(14) 0.12888(11) 0.94160(13)
O60_3 O 0.75985(9) 0.63096(14) 0.94160(13)
O61_3 O 0.30297(13) 0.17439(10) 0.88268(12)
O62_3 O 0.87143(9) 0.69703(13) 0.88268(12)
O63_3 O 0.82561(10) 0.12857(9) 0.88268(12)
Co14_4 Co 0.483149(17) 1.000000(24) 0.2500
O19_2 O 0.20356(11) 0.83219(8) 0.64372(9)
O20_2 O 0.25288(12) 0.82909(9) 0.67740(10)
C90_2 C 0.21638(22) 0.99900(15) 0.84856(18)
C91_2 C 0.21166(23) 0.96804(15) 0.82029(19)
H64_2 H 0.1856 0.9489 0.8109
C92_2 C 0.24426(18) 0.96444(13) 0.80541(15)
C93_2 C 0.28266(21) 0.99353(14) 0.82017(18)
H65_2 H 0.3053 0.9918 0.8112
C95_2 C 0.23894(19) 0.93149(13) 0.77339(15)
C96_2 C 0.20708(20) 0.91448(14) 0.74290(16)
H67_2 H 0.1876 0.9226 0.7435
C97_2 C 0.20317(18) 0.88577(13) 0.71156(15)
H68_2 H 0.1814 0.8748 0.6915
C98_2 C 0.23208(17) 0.87319(12) 0.71014(14)
C99_2 C 0.26342(21) 0.88906(15) 0.74131(17)
H69_2 H 0.2824 0.8803 0.7413
C100_2 C 0.26690(21) 0.91770(15) 0.77240(17)
H70_2 H 0.2883 0.9281 0.7931
C101_2 C 0.22932(17) 0.84336(12) 0.67479(13)
Co12_2 Co 0.183517(17) 0.850184(17) 0.5833
Co18_2 Co 0.226126(15) 0.792667(15) 0.618790(18)
O32_8 O 0.83758(9) 0.75712(15) 0.01073(10)
O34_8 O 0.57349(9) 0.53778(17) 0.22506(13)
C139_8 C 0.60202(12) 0.53094(22) 0.22378(14)
C140_8 C 0.63810(12) 0.55993(22) 0.19558(15)
C141_8 C 0.66767(15) 0.55071(27) 0.18189(18)
H115_8 H 0.6666 0.5268 0.1918
C142_8 C 0.69863(15) 0.57695(27) 0.15362(19)
H116_8 H 0.7178 0.5700 0.1442
C143_8 C 0.70223(13) 0.61315(22) 0.13874(15)
C144_8 C 0.67314(14) 0.62246(25) 0.15350(18)
H117_8 H 0.6749 0.6468 0.1445
C145_8 C 0.64149(14) 0.59597(25) 0.18141(17)
H118_8 H 0.6222 0.6027 0.1907
C146_8 C 0.73518(13) 0.64078(23) 0.10672(15)
C147_8 C 0.75219(14) 0.62593(24) 0.07623(16)
H119_8 H 0.7441 0.5983 0.0768
C148_8 C 0.78090(13) 0.65073(22) 0.04489(15)
H120_8 H 0.7919 0.6399 0.0248
C149_8 C 0.79348(12) 0.69222(21) 0.04347(14)
C150_8 C 0.77761(15) 0.70769(26) 0.07464(17)
H121_8 H 0.7864 0.7354 0.0746
C151_8 C 0.74897(15) 0.68253(26) 0.10573(17)
H122_8 H 0.7386 0.6935 0.1264
C152_8 C 0.82331(12) 0.71929(21) 0.00812(13)
O39_5 O 0.49886(8) 0.53689(11) 0.18961(9)
O40_5 O 0.49576(9) 0.58621(12) 0.15593(10)
C170_8 C 0.63471(15) 0.54499(23) 0.01304(19)
H132_8 H 0.6156 0.5189 0.0224
C171_8 C 0.63111(13) 0.57759(18) 0.02792(15)
C172_8 C 0.66020(14) 0.61599(21) 0.01316(18)
H133_8 H 0.6585 0.6386 0.0221
C174_8 C 0.59816(13) 0.57227(19) 0.05994(15)
C175_8 C 0.58115(14) 0.54041(20) 0.09043(16)
H135_8 H 0.5893 0.5209 0.0898
C176_8 C 0.55244(13) 0.53650(18) 0.12177(15)
H136_8 H 0.5415 0.5147 0.1418
C177_8 C 0.53986(12) 0.56541(17) 0.12319(14)
C178_8 C 0.55573(15) 0.59675(21) 0.09202(17)
H137_8 H 0.5470 0.6157 0.0920
C179_8 C 0.58437(15) 0.60023(21) 0.06093(17)
H138_8 H 0.5948 0.6216 0.0402
C180_8 C 0.51003(12) 0.56265(17) 0.15854(13)
Co20_5 Co 0.459334(15) 0.559459(26) 0.214543(18)
O37_5 O 0.76775(13) 0.83114(16) 0.58971(11)
O38_5 O 0.70237(14) 0.79555(17) 0.60827(13)
C153_5 C 0.73774(18) 0.80239(22) 0.60955(14)
C154_5 C 0.74483(18) 0.77340(22) 0.63775(15)
C155_5 C 0.78362(22) 0.78262(27) 0.65144(18)
H123_5 H 0.8064 0.8065 0.6415
C156_5 C 0.78834(23) 0.75638(27) 0.67971(19)
H124_5 H 0.8144 0.7633 0.6891
C157_5 C 0.75574(18) 0.72018(22) 0.69459(15)
C158_5 C 0.71734(21) 0.71087(25) 0.67983(18)
H125_5 H 0.6947 0.6865 0.6888
C159_5 C 0.71218(21) 0.73736(25) 0.65192(17)
H126_5 H 0.6861 0.7306 0.6426
C160_5 C 0.76106(19) 0.69255(23) 0.72661(15)
C161_5 C 0.79292(20) 0.70740(24) 0.75710(16)
H127_5 H 0.8124 0.7350 0.7565
C162_5 C 0.79683(18) 0.68260(22) 0.78844(15)
H128_5 H 0.8186 0.6934 0.8085
C163_5 C 0.76792(17) 0.64111(21) 0.78986(14)
C164_5 C 0.73658(21) 0.62564(26) 0.75869(17)
H129_5 H 0.7176 0.5979 0.7587
C165_5 C 0.73310(21) 0.65080(26) 0.72760(17)
H130_5 H 0.7117 0.6398 0.7069
C166_5 C 0.77068(17) 0.61404(21) 0.82521(13)
C167_8 C 0.73132(12) 0.59559(18) 0.94288(14)
C168_8 C 0.69524(12) 0.58850(18) 0.97108(15)
C169_8 C 0.66567(15) 0.54971(22) 0.98477(18)
H131_8 H 0.6668 0.5269 0.9748
C173_8 C 0.69185(14) 0.62115(21) 0.98525(17)
H134_8 H 0.7112 0.6472 0.9759
Co19_5 Co 0.766792(21) 0.874000(26) 0.547877(18)
O32_9 O 0.24288(15) 0.08045(12) 0.01073(10)
O34_9 O 0.46222(17) 0.03570(14) 0.22506(13)
C139_9 C 0.46906(22) 0.07107(18) 0.22378(14)
C140_9 C 0.44007(22) 0.07816(18) 0.19558(15)
C141_9 C 0.44929(27) 0.11695(22) 0.18189(18)
H115_9 H 0.4732 0.1397 0.1918
C142_9 C 0.42305(27) 0.12167(23) 0.15362(19)
H116_9 H 0.4300 0.1477 0.1442
C143_9 C 0.38685(22) 0.08907(18) 0.13874(15)
C144_9 C 0.37754(25) 0.05067(21) 0.15350(18)
H117_9 H 0.3532 0.0280 0.1445
C145_9 C 0.40403(25) 0.04551(21) 0.18141(17)
H118_9 H 0.3973 0.0194 0.1907
C146_9 C 0.35922(23) 0.09439(19) 0.10672(15)
C147_9 C 0.37407(24) 0.12625(20) 0.07623(16)
H119_9 H 0.4017 0.1457 0.0768
C148_9 C 0.34927(22) 0.13016(18) 0.04489(15)
H120_9 H 0.3601 0.1519 0.0248
C149_9 C 0.30778(21) 0.10125(17) 0.04347(14)
C150_9 C 0.29231(26) 0.06991(21) 0.07464(17)
H121_9 H 0.2646 0.0509 0.0746
C151_9 C 0.31747(26) 0.06643(21) 0.10573(17)
H122_9 H 0.3065 0.0450 0.1264
C152_9 C 0.28071(21) 0.10401(17) 0.00812(13)
C170_9 C 0.45501(23) 0.08971(17) 0.01304(19)
H132_9 H 0.4811 0.0966 0.0224
C171_9 C 0.42241(18) 0.05351(13) 0.02792(15)
C172_9 C 0.38401(21) 0.04420(15) 0.01316(18)
H133_9 H 0.3614 0.0198 0.0221
C174_9 C 0.42773(19) 0.02588(14) 0.05994(15)
C175_9 C 0.45959(20) 0.04073(14) 0.09043(16)
H135_9 H 0.4791 0.0683 0.0898
C176_9 C 0.46350(18) 0.01593(13) 0.12177(15)
H136_9 H 0.4853 0.0267 0.1418
C155_6 C 0.21738(27) 0.00100(15) 0.65144(18)
C156_6 C 0.24362(27) 0.03196(15) 0.67971(19)
H124_6 H 0.2367 0.0511 0.6891
C157_6 C 0.27982(22) 0.03556(13) 0.69459(15)
C158_6 C 0.28913(25) 0.00647(14) 0.67983(18)
H125_6 H 0.3135 0.0082 0.6888
C160_6 C 0.30745(23) 0.06851(13) 0.72661(15)
C161_6 C 0.29260(24) 0.08552(14) 0.75710(16)
H127_6 H 0.2650 0.0774 0.7565
C162_6 C 0.31740(22) 0.11423(13) 0.78844(15)
H128_6 H 0.3066 0.1252 0.8085
C163_6 C 0.35889(21) 0.12681(12) 0.78986(14)
C164_6 C 0.37436(26) 0.11094(15) 0.75869(17)
H129_6 H 0.4021 0.1197 0.7587
C165_6 C 0.34920(26) 0.08230(15) 0.72760(17)
H130_6 H 0.3602 0.0719 0.7069
C166_6 C 0.38596(21) 0.15664(12) 0.82521(13)
C167_9 C 0.40441(18) 0.13572(13) 0.94288(14)
C168_9 C 0.41150(18) 0.10673(13) 0.97108(15)
C169_9 C 0.45029(22) 0.11595(16) 0.98477(18)
H131_9 H 0.4731 0.1398 0.9748
C173_9 C 0.37885(21) 0.07069(15) 0.98525(17)
H134_9 H 0.3528 0.0639 0.9759
O39_6 O 0.46311(11) 0.96196(8) 0.18961(9)
O40_6 O 0.41379(12) 0.90954(8) 0.15593(10)
C177_9 C 0.43459(17) 0.97444(12) 0.12319(14)
C178_9 C 0.40325(21) 0.95897(14) 0.09202(17)
H137_9 H 0.3843 0.9312 0.0920
C179_9 C 0.39977(21) 0.98413(15) 0.06093(17)
H138_9 H 0.3784 0.9731 0.0402
C180_9 C 0.43735(17) 0.94737(12) 0.15854(13)
Co20_6 Co 0.440541(26) 0.899874(21) 0.214543(18)
O37_6 O 0.16886(16) 0.93661(9) 0.58971(11)
O38_6 O 0.20445(17) 0.90682(9) 0.60827(13)
C153_6 C 0.19761(22) 0.93535(12) 0.60955(14)
C154_6 C 0.22660(22) 0.97143(12) 0.63775(15)
H123_6 H 0.1935 0.9999 0.6415
C159_6 C 0.26264(25) 0.97482(14) 0.65192(17)
H126_6 H 0.2694 0.9555 0.6426
Co19_6 Co 0.126000(26) 0.892793(15) 0.547877(18)
O5_4 O 0.63630(13) 0.84106(10) 0.54935(12)
O6_5 O 0.57122(15) 0.81164(11) 0.56837(12)
O7_5 O 0.56899(16) 0.82180(11) 0.66144(13)
N1_5 N 0.50250(14) 0.74448(10) 0.61704(13)
N2_5 N 0.35239(14) 0.64413(10) 0.60990(15)
N3_5 N 0.60147(23) 0.89039(16) 0.6688(2)
C1_5 C 0.60151(18) 0.83490(13) 0.54470(15)
C2_5 C 0.59324(19) 0.85719(14) 0.50741(16)
C3_5 C 0.61453(25) 0.86650(19) 0.46794(19)
H1_5 H 0.6358 0.8611 0.4649
C4_5 C 0.60492(28) 0.8841(2) 0.4320(2)
H2_5 H 0.6194 0.8899 0.4051
C5_5 C 0.57372(23) 0.89284(17) 0.43641(19)
C6_5 C 0.55357(26) 0.8851(2) 0.4776(2)
H3_5 H 0.5335 0.8921 0.4817
C7_5 C 0.56291(24) 0.86712(19) 0.5127(2)
H4_5 H 0.5489 0.8617 0.5399
C22_5 C 0.47996(18) 0.70403(13) 0.61683(18)
H13_5 H 0.4931 0.6889 0.6187
C23_5 C 0.43797(18) 0.68339(13) 0.61402(19)
H14_5 H 0.4234 0.6551 0.6141
C24_5 C 0.41802(17) 0.70543(12) 0.61109(16)
C25_5 C 0.44181(18) 0.74783(13) 0.61098(19)
H15_5 H 0.4297 0.7639 0.6086
C26_5 C 0.48319(18) 0.76543(13) 0.61443(18)
H16_5 H 0.4986 0.7937 0.6150
C27_5 C 0.37288(17) 0.68486(12) 0.60995(17)
C28_5 C 0.59961(25) 0.85695(18) 0.6553(2)
H17_5 H 0.6221 0.8589 0.6403
C29_5 C 0.6367(4) 0.9307(2) 0.6586(4)
H18_5 H 0.6328 0.9398 0.6297
H19_5 H 0.6392 0.9498 0.6816
H20_5 H 0.6610 0.9288 0.6580
C30_5 C 0.5660(4) 0.8887(3) 0.6907(4)
H21_5 H 0.5511 0.8635 0.7069
H22_5 H 0.5750 0.9111 0.7114
H23_5 H 0.5487 0.8904 0.6681
O8_4 O 0.50773(16) 0.96963(13) 0.28398(12)
O9_5 O 0.47831(18) 0.90455(15) 0.26496(12)
C31_5 C 0.50157(22) 0.93484(18) 0.28863(15)
C32_5 C 0.52386(23) 0.92657(19) 0.32592(16)
C33_5 C 0.53317(30) 0.94786(25) 0.36539(19)
H24_5 H 0.5278 0.9691 0.3684
C34_5 C 0.55077(34) 0.93825(28) 0.4013(2)
H25_5 H 0.5566 0.9527 0.4282
C35_5 C 0.55951(28) 0.90705(23) 0.39692(19)
C36_5 C 0.55177(31) 0.88690(26) 0.3557(2)
H26_5 H 0.5588 0.8668 0.3516
C37_5 C 0.53379(28) 0.89624(24) 0.3206(2)
H27_5 H 0.5284 0.8822 0.2934
N4_5 N 0.24198(17) 0.49750(14) 0.61704(13)
N5_5 N 0.29174(17) 0.64761(14) 0.60990(15)
C38_5 C 0.22407(22) 0.52004(18) 0.61683(18)
H28_5 H 0.1958 0.5069 0.6187
C39_5 C 0.24542(22) 0.56203(18) 0.61402(19)
H29_5 H 0.2317 0.5766 0.6141
C40_5 C 0.28741(21) 0.58198(17) 0.61109(16)
C41_5 C 0.30602(22) 0.55819(18) 0.61098(19)
H30_5 H 0.3342 0.5703 0.6086
C42_5 C 0.28224(22) 0.51681(18) 0.61443(18)
H31_5 H 0.2951 0.5014 0.6150
C43_5 C 0.31198(21) 0.62712(17) 0.60995(17)
N6_5 N 0.25552(17) 0.75802(10) 0.61704(13)
N7_5 N 0.35587(17) 0.70826(10) 0.60990(15)
C44_5 C 0.29597(22) 0.77593(13) 0.61683(18)
H32_5 H 0.3111 0.8042 0.6187
C45_5 C 0.31661(22) 0.75458(13) 0.61402(19)
H33_5 H 0.3449 0.7683 0.6141
C46_5 C 0.29457(21) 0.71259(12) 0.61109(16)
C47_5 C 0.25217(22) 0.69398(13) 0.61098(19)
H34_5 H 0.2361 0.6658 0.6086
C48_5 C 0.23457(22) 0.71776(13) 0.61443(18)
H35_5 H 0.2063 0.7049 0.6150
C49_5 C 0.31514(21) 0.68802(12) 0.60995(17)
O14_4 O 0.20476(16) 0.36370(13) 0.54935(12)
O15_5 O 0.24042(19) 0.42878(15) 0.56837(12)
O16_5 O 0.25281(19) 0.43101(16) 0.66144(13)
N8_5 N 0.28892(28) 0.39853(23) 0.6688(2)
C50_5 C 0.23339(22) 0.39849(18) 0.54470(15)
C51_5 C 0.26395(24) 0.40676(19) 0.50741(16)
C52_5 C 0.25197(31) 0.38547(25) 0.46794(19)
H36_5 H 0.2253 0.3642 0.4649
C53_5 C 0.27918(34) 0.39508(28) 0.4320(2)
H37_5 H 0.2705 0.3806 0.4051
C54_5 C 0.31912(29) 0.42628(23) 0.43641(19)
C55_5 C 0.33153(33) 0.44643(26) 0.4776(2)
H38_5 H 0.3586 0.4665 0.4817
C56_5 C 0.30421(31) 0.43709(24) 0.5127(2)
H39_5 H 0.3128 0.4511 0.5399
C71_5 C 0.25734(31) 0.40039(25) 0.6553(2)
H48_5 H 0.2368 0.3779 0.6403
C72_5 C 0.2940(4) 0.3633(4) 0.6586(4)
H49_5 H 0.3070 0.3672 0.6297
H50_5 H 0.3106 0.3608 0.6816
H51_5 H 0.2678 0.3390 0.6580
C73_5 C 0.3227(5) 0.4340(4) 0.6907(4)
H52_5 H 0.3124 0.4489 0.7069
H53_5 H 0.3361 0.4250 0.7114
H54_5 H 0.3417 0.4513 0.6681
O17_4 O 0.46191(16) 0.49227(10) 0.28398(12)
O18_5 O 0.42625(19) 0.52169(11) 0.26496(12)
C74_5 C 0.43328(22) 0.49843(13) 0.28863(15)
C75_5 C 0.40272(24) 0.47614(14) 0.32592(16)
C76_5 C 0.41470(31) 0.46683(19) 0.36539(19)
H55_5 H 0.4414 0.4722 0.3684
C77_5 C 0.38749(34) 0.4492(2) 0.4013(2)
H56_5 H 0.3962 0.4434 0.4282
C78_5 C 0.34755(29) 0.44049(17) 0.39692(19)
C79_5 C 0.33514(33) 0.4482(2) 0.3557(2)
H57_5 H 0.3081 0.4412 0.3516
C80_5 C 0.36246(31) 0.46621(19) 0.3206(2)
H58_5 H 0.3539 0.4716 0.2934
O23_4 O 0.15894(16) 0.79524(9) 0.54935(12)
O24_5 O 0.18836(18) 0.75958(10) 0.56837(12)
O25_5 O 0.17820(19) 0.74719(11) 0.66144(13)
N9_5 N 0.10961(28) 0.71108(16) 0.6688(2)
C81_5 C 0.16510(22) 0.76661(12) 0.54470(15)
C82_5 C 0.14281(23) 0.73605(13) 0.50741(16)
C83_5 C 0.13350(30) 0.74803(16) 0.46794(19)
H59_5 H 0.1389 0.7747 0.4649
C84_5 C 0.11590(34) 0.72082(19) 0.4320(2)
H60_5 H 0.1101 0.7295 0.4051
C85_5 C 0.10716(28) 0.68088(16) 0.43641(19)
C86_5 C 0.11490(31) 0.66847(16) 0.4776(2)
H61_5 H 0.1079 0.6414 0.4817
C87_5 C 0.13288(28) 0.69579(15) 0.5127(2)
H62_5 H 0.1383 0.6872 0.5399
C102_5 C 0.14305(30) 0.74266(17) 0.6553(2)
H71_5 H 0.1411 0.7632 0.6403
C103_5 C 0.0693(5) 0.7060(3) 0.6586(4)
H72_5 H 0.0602 0.6930 0.6297
H73_5 H 0.0502 0.6894 0.6816
H74_5 H 0.0712 0.7322 0.6580
C104_5 C 0.1113(5) 0.6773(3) 0.6907(4)
H75_5 H 0.1365 0.6876 0.7069
H76_5 H 0.0889 0.6639 0.7114
H77_5 H 0.1096 0.6583 0.6681
O26_4 O 0.03037(13) 0.53809(9) 0.28398(12)
O27_5 O 0.09545(15) 0.57375(10) 0.26496(12)
C105_5 C 0.06516(18) 0.56672(12) 0.28863(15)
C106_5 C 0.07343(19) 0.59728(13) 0.32592(16)
C107_5 C 0.05214(25) 0.58530(16) 0.36539(19)
H78_5 H 0.0309 0.5586 0.3684
C108_5 C 0.06175(28) 0.61251(19) 0.4013(2)
H79_5 H 0.0473 0.6038 0.4282
C109_5 C 0.09295(23) 0.65245(16) 0.39692(19)
C110_5 C 0.11310(26) 0.66486(16) 0.3557(2)
H80_5 H 0.1332 0.6919 0.3516
C111_5 C 0.10376(24) 0.63754(15) 0.3206(2)
H81_5 H 0.1178 0.6461 0.2934
O28_5 O 0.41386(19) 0.51153(11) 0.17189(13)
N10_5 N 0.42469(17) 0.58885(10) 0.21629(13)
N11_5 N 0.37493(17) 0.68920(10) 0.22343(15)
N12_5 N 0.37775(28) 0.44294(16) 0.1645(2)
C112_5 C 0.44260(22) 0.62930(13) 0.21650(18)
H82_5 H 0.4709 0.6444 0.2146
C113_5 C 0.42125(22) 0.64994(13) 0.21931(19)
H83_5 H 0.4350 0.6782 0.2192
C114_5 C 0.37926(21) 0.62790(12) 0.22224(16)
C115_5 C 0.36065(22) 0.58550(13) 0.22235(19)
H84_5 H 0.3325 0.5694 0.2247
C116_5 C 0.38443(22) 0.56790(13) 0.21890(18)
H85_5 H 0.3716 0.5396 0.2183
C117_5 C 0.35469(21) 0.64847(12) 0.22338(17)
C118_5 C 0.40933(31) 0.47638(18) 0.1780(2)
H86_5 H 0.4299 0.4744 0.1930
C119_5 C 0.3727(4) 0.4026(2) 0.1747(4)
H87_5 H 0.3597 0.3935 0.2036
H88_5 H 0.3561 0.3835 0.1517
H89_5 H 0.3989 0.4045 0.1753
C120_5 C 0.3440(5) 0.4446(3) 0.1426(4)
H90_5 H 0.3543 0.4698 0.1264
H91_5 H 0.3306 0.4222 0.1219
H92_5 H 0.3250 0.4429 0.1652
N13_5 N 0.41115(17) 0.83583(14) 0.21629(13)
N14_5 N 0.31080(17) 0.68572(14) 0.22343(15)
C121_5 C 0.37070(22) 0.81329(18) 0.21650(18)
H93_5 H 0.3556 0.8264 0.2146
C122_5 C 0.35006(22) 0.77130(18) 0.21931(19)
H94_5 H 0.3218 0.7567 0.2192
C123_5 C 0.37210(21) 0.75135(17) 0.22224(16)
C124_5 C 0.41450(22) 0.77514(18) 0.22235(19)
H95_5 H 0.4306 0.7630 0.2247
C125_5 C 0.43210(22) 0.81652(18) 0.21890(18)
H96_5 H 0.4604 0.8319 0.2183
C126_5 C 0.35153(21) 0.70621(17) 0.22338(17)
N15_5 N 0.16417(14) 0.57531(10) 0.21629(13)
N16_5 N 0.31428(14) 0.62507(10) 0.22343(15)
C127_5 C 0.18671(18) 0.55740(13) 0.21650(18)
H97_5 H 0.1736 0.5291 0.2146
C128_5 C 0.22870(18) 0.57875(13) 0.21931(19)
H98_5 H 0.2433 0.5650 0.2192
C129_5 C 0.24865(17) 0.62074(12) 0.22224(16)
C130_5 C 0.22486(18) 0.63935(13) 0.22235(19)
H99_5 H 0.2370 0.6675 0.2247
C131_5 C 0.18348(18) 0.61557(13) 0.21890(18)
H100_5 H 0.1681 0.6284 0.2183
C132_5 C 0.29379(17) 0.64531(12) 0.22338(17)
O29_5 O 0.48847(19) 0.90232(16) 0.17189(13)
N17_5 N 0.55706(28) 0.93480(23) 0.1645(2)
C133_5 C 0.52362(30) 0.93294(25) 0.1780(2)
H101_5 H 0.5256 0.9554 0.1930
C134_5 C 0.5974(5) 0.9700(4) 0.1747(4)
H102_5 H 0.6065 0.9661 0.2036
H103_5 H 0.6165 0.9725 0.1517
H104_5 H 0.5955 0.9943 0.1753
C135_5 C 0.5554(5) 0.8993(4) 0.1426(4)
H105_5 H 0.5302 0.8844 0.1264
H106_5 H 0.5778 0.9083 0.1219
H107_5 H 0.5571 0.8820 0.1652
O30_5 O 0.09768(16) 0.58614(11) 0.17189(13)
N18_5 N 0.06520(23) 0.62225(16) 0.1645(2)
C136_5 C 0.06706(25) 0.59067(17) 0.1780(2)
H108_5 H 0.0446 0.5701 0.1930
C137_5 C 0.0300(4) 0.6273(3) 0.1747(4)
H109_5 H 0.0339 0.6403 0.2036
H110_5 H 0.0275 0.6439 0.1517
H111_5 H 0.0057 0.6011 0.1753
C138_5 C 0.1007(4) 0.6560(3) 0.1426(4)
H112_5 H 0.1156 0.6457 0.1264
H113_5 H 0.0917 0.6694 0.1219
H114_5 H 0.1180 0.6750 0.1652
O31_4 O 0.70470(14) 0.83448(8) 0.52295(9)
O32_10 O 0.75712(15) 0.83758(9) 0.48927(10)
O33_4 O 0.50219(16) 0.60328(9) 0.25638(11)
O34_10 O 0.53778(17) 0.57349(9) 0.27494(13)
C139_10 C 0.53094(22) 0.60202(12) 0.27622(14)
C140_10 C 0.55993(22) 0.63810(12) 0.30442(15)
C141_10 C 0.55071(27) 0.66767(15) 0.31811(18)
H115_10 H 0.5268 0.6666 0.3082
C142_10 C 0.57695(27) 0.69863(15) 0.34638(19)
H116_10 H 0.5700 0.7178 0.3558
C143_10 C 0.61315(22) 0.70223(13) 0.36126(15)
C144_10 C 0.62246(25) 0.67314(14) 0.34650(18)
H117_10 H 0.6468 0.6749 0.3555
C145_10 C 0.59597(25) 0.64149(14) 0.31859(17)
H118_10 H 0.6027 0.6222 0.3093
C146_10 C 0.64078(23) 0.73518(13) 0.39328(15)
C147_10 C 0.62593(24) 0.75219(14) 0.42377(16)
H119_10 H 0.5983 0.7441 0.4232
C148_10 C 0.65073(22) 0.78090(13) 0.45511(15)
H120_10 H 0.6399 0.7919 0.4752
C149_10 C 0.69222(21) 0.79348(12) 0.45653(14)
C150_10 C 0.70769(26) 0.77761(15) 0.42536(17)
H121_10 H 0.7354 0.7864 0.4254
C151_10 C 0.68253(26) 0.74897(15) 0.39427(17)
H122_10 H 0.6935 0.7386 0.3736
C152_10 C 0.71929(21) 0.82331(12) 0.49188(13)
O41_4 O 0.56558(13) 0.73006(9) 0.57696(11)
O42_4 O 0.63096(14) 0.75985(9) 0.55840(13)
C167_10 C 0.59559(18) 0.73132(12) 0.55712(14)
C168_10 C 0.58850(18) 0.69524(12) 0.52892(15)
C169_10 C 0.54971(22) 0.66567(15) 0.51523(18)
H131_10 H 0.5269 0.6668 0.5252
C170_10 C 0.54499(23) 0.63471(15) 0.48696(19)
H132_10 H 0.5189 0.6156 0.4776
C171_10 C 0.57759(18) 0.63111(13) 0.47208(15)
C172_10 C 0.61599(21) 0.66020(14) 0.48684(18)
H133_10 H 0.6386 0.6585 0.4779
C173_10 C 0.62115(21) 0.69185(14) 0.51475(17)
H134_10 H 0.6472 0.7112 0.5241
C174_10 C 0.57227(19) 0.59816(13) 0.44006(15)
C175_10 C 0.54041(20) 0.58115(14) 0.40957(16)
H135_10 H 0.5209 0.5893 0.4102
C176_10 C 0.53650(18) 0.55244(13) 0.37823(15)
H136_10 H 0.5147 0.5415 0.3582
C177_10 C 0.56541(17) 0.53986(12) 0.37681(14)
C178_10 C 0.59675(21) 0.55573(15) 0.40798(17)
H137_10 H 0.6157 0.5470 0.4080
C179_10 C 0.60023(21) 0.58437(15) 0.43907(17)
H138_10 H 0.6216 0.5948 0.4598
C180_10 C 0.56265(17) 0.51003(12) 0.34146(13)
O48_4 O 0.12977(11) 0.29530(8) 0.52295(9)
O49_4 O 0.16552(14) 0.87023(11) 0.52295(9)
O55_4 O 0.10108(13) 0.49781(9) 0.25638(11)
O56_4 O 0.39672(16) 0.89892(13) 0.25638(11)
O57_4 O 0.26994(16) 0.83553(9) 0.57696(11)
O58_4 O 0.16447(16) 0.43442(13) 0.57696(11)
O59_4 O 0.24015(18) 0.87112(11) 0.55840(13)
O60_4 O 0.12888(17) 0.36904(14) 0.55840(13)
O61_4 O 0.12857(16) 0.82561(10) 0.61732(12)
O62_4 O 0.17439(16) 0.30297(13) 0.61732(12)
O63_4 O 0.69703(13) 0.87143(9) 0.61732(12)
O32_11 O 0.08045(12) 0.24288(15) 0.48927(10)
O34_11 O 0.03570(14) 0.46222(17) 0.27494(13)
C139_11 C 0.07107(18) 0.46906(22) 0.27622(14)
C140_11 C 0.07816(18) 0.44007(22) 0.30442(15)
C141_11 C 0.11695(22) 0.44929(27) 0.31811(18)
H115_11 H 0.1397 0.4732 0.3082
C142_11 C 0.12167(23) 0.42305(27) 0.34638(19)
H116_11 H 0.1477 0.4300 0.3558
C143_11 C 0.08907(18) 0.38685(22) 0.36126(15)
C144_11 C 0.05067(21) 0.37754(25) 0.34650(18)
H117_11 H 0.0280 0.3532 0.3555
C145_11 C 0.04551(21) 0.40403(25) 0.31859(17)
H118_11 H 0.0194 0.3973 0.3093
C146_11 C 0.09439(19) 0.35922(23) 0.39328(15)
C147_11 C 0.12625(20) 0.37407(24) 0.42377(16)
H119_11 H 0.1457 0.4017 0.4232
C148_11 C 0.13016(18) 0.34927(22) 0.45511(15)
H120_11 H 0.1519 0.3601 0.4752
C149_11 C 0.10125(17) 0.30778(21) 0.45653(14)
C150_11 C 0.06991(21) 0.29231(26) 0.42536(17)
H121_11 H 0.0509 0.2646 0.4254
C151_11 C 0.06643(21) 0.31747(26) 0.39427(17)
H122_11 H 0.0450 0.3065 0.3736
C152_11 C 0.10401(17) 0.28071(21) 0.49188(13)
C167_11 C 0.13572(13) 0.40441(18) 0.55712(14)
C168_11 C 0.10673(13) 0.41150(18) 0.52892(15)
C169_11 C 0.11595(16) 0.45029(22) 0.51523(18)
H131_11 H 0.1398 0.4731 0.5252
C170_11 C 0.08971(17) 0.45501(23) 0.48696(19)
H132_11 H 0.0966 0.4811 0.4776
C171_11 C 0.05351(13) 0.42241(18) 0.47208(15)
C172_11 C 0.04420(15) 0.38401(21) 0.48684(18)
H133_11 H 0.0198 0.3614 0.4779
C173_11 C 0.07069(15) 0.37885(21) 0.51475(17)
H134_11 H 0.0639 0.3528 0.5241
C174_11 C 0.02588(14) 0.42773(19) 0.44006(15)
C175_11 C 0.04073(14) 0.45959(20) 0.40957(16)
H135_11 H 0.0683 0.4791 0.4102
C176_11 C 0.01593(13) 0.46350(18) 0.37823(15)
H136_11 H 0.0267 0.4853 0.3582
C177_11 C 0.97444(12) 0.43459(17) 0.37681(14)
C178_11 C 0.95897(14) 0.40325(21) 0.40798(17)
H137_11 H 0.9312 0.3843 0.4080
C179_11 C 0.98413(15) 0.39977(21) 0.43907(17)
H138_11 H 0.9731 0.3784 0.4598
C180_11 C 0.94737(12) 0.43735(17) 0.34146(13)
C177_12 C 0.46014(12) 0.02556(12) 0.37681(14)
C178_12 C 0.44427(15) 0.04103(14) 0.40798(17)
H137_12 H 0.4530 0.0688 0.4080
C179_12 C 0.41563(15) 0.01587(15) 0.43907(17)
H138_12 H 0.4052 0.0269 0.4598
C180_12 C 0.48997(12) 0.05263(12) 0.34146(13)
O32_12 O 0.16242(9) 0.91955(12) 0.48927(10)
O34_12 O 0.42651(9) 0.96430(14) 0.27494(13)
C139_12 C 0.39798(12) 0.92893(18) 0.27622(14)
C140_12 C 0.36190(12) 0.92184(18) 0.30442(15)
C141_12 C 0.33233(15) 0.88305(22) 0.31811(18)
H115_12 H 0.3334 0.8603 0.3082
C142_12 C 0.30137(15) 0.87833(23) 0.34638(19)
H116_12 H 0.2822 0.8523 0.3558
C143_12 C 0.29777(13) 0.91093(18) 0.36126(15)
C144_12 C 0.32686(14) 0.94933(21) 0.34650(18)
H117_12 H 0.3251 0.9720 0.3555
C145_12 C 0.35851(14) 0.95449(21) 0.31859(17)
H118_12 H 0.3778 0.9806 0.3093
C146_12 C 0.26482(13) 0.90561(19) 0.39328(15)
C147_12 C 0.24781(14) 0.87375(20) 0.42377(16)
H119_12 H 0.2559 0.8543 0.4232
C148_12 C 0.21910(13) 0.86984(18) 0.45511(15)
H120_12 H 0.2081 0.8481 0.4752
C149_12 C 0.20652(12) 0.89875(17) 0.45653(14)
C150_12 C 0.22239(15) 0.93009(21) 0.42536(17)
H121_12 H 0.2136 0.9491 0.4254
C151_12 C 0.25103(15) 0.93357(21) 0.39427(17)
H122_12 H 0.2614 0.9550 0.3736
C152_12 C 0.17669(12) 0.89599(17) 0.49188(13)
C167_12 C 0.26868(12) 0.86428(13) 0.55712(14)
C168_12 C 0.30476(12) 0.89327(13) 0.52892(15)
C169_12 C 0.33433(15) 0.88405(16) 0.51523(18)
H131_12 H 0.3332 0.8602 0.5252
C170_12 C 0.36529(15) 0.91029(17) 0.48696(19)
H132_12 H 0.3844 0.9034 0.4776
C171_12 C 0.36889(13) 0.94649(13) 0.47208(15)
C172_12 C 0.33980(14) 0.95580(15) 0.48684(18)
H133_12 H 0.3415 0.9802 0.4779
C173_12 C 0.30815(14) 0.92931(15) 0.51475(17)
H134_12 H 0.2888 0.9361 0.5241
C174_12 C 0.40184(13) 0.97412(14) 0.44006(15)
C175_12 C 0.41885(14) 0.95927(14) 0.40957(16)
H135_12 H 0.4107 0.9317 0.4102
C176_12 C 0.44756(13) 0.98407(13) 0.37823(15)
H136_12 H 0.4585 0.9733 0.3582
N12_6 N 0.26814(23) 0.22372(16) 0.0021(2)
H88_6 H 0.3059 0.2831 0.0149
C120_6 C 0.2327(4) 0.2220(3) 0.0240(4)
H90_6 H 0.2178 0.1968 0.0402
H91_6 H 0.2417 0.2444 0.0447
H92_6 H 0.2154 0.2237 0.0014
N2_6 N 0.04159(10) 0.02254(10) 0.55677(15)
H14_6 H 0.1016 0.0116 0.5526
N4_6 N 0.07781(10) 0.16917(14) 0.54963(13)
C38_6 C 0.03736(13) 0.14663(18) 0.54984(18)
H28_6 H 0.0222 0.1598 0.5480
C39_6 C 0.01672(13) 0.10464(18) 0.55265(19)
C40_6 C 0.03876(12) 0.08469(17) 0.55558(16)
C41_6 C 0.08116(13) 0.10848(18) 0.55569(19)
H30_6 H 0.0972 0.0964 0.5581
C42_6 C 0.09876(13) 0.14986(18) 0.55224(18)
H31_6 H 0.1270 0.1653 0.5517
C43_6 C 0.01819(12) 0.03955(17) 0.55672(17)
O15_6 O 0.14497(11) 0.23789(15) 0.59830(12)
O16_6 O 0.15513(11) 0.23566(16) 0.50523(13)
N8_6 N 0.22372(16) 0.26814(23) 0.4979(2)
C50_6 C 0.16823(13) 0.26818(18) 0.62197(15)
C51_6 C 0.19052(14) 0.25991(19) 0.65926(16)
C52_6 C 0.19983(19) 0.28120(25) 0.69873(19)
H36_6 H 0.1944 0.3025 0.7018
C53_6 C 0.2174(2) 0.27159(28) 0.7347(2)
H37_6 H 0.2232 0.2861 0.7616
C54_6 C 0.22617(17) 0.24039(23) 0.73026(19)
C55_6 C 0.2184(2) 0.22024(26) 0.6891(2)
H38_6 H 0.2254 0.2002 0.6850
C56_6 C 0.20045(19) 0.22958(24) 0.6540(2)
H39_6 H 0.1950 0.2156 0.6268
C71_6 C 0.19028(18) 0.26628(25) 0.5114(2)
H48_6 H 0.1922 0.2888 0.5264
C72_6 C 0.2640(2) 0.3034(4) 0.5081(4)
H49_6 H 0.2731 0.2995 0.5370
H50_6 H 0.2831 0.3059 0.4851
H51_6 H 0.2621 0.3277 0.5087
C73_6 C 0.2220(3) 0.2327(4) 0.4760(4)
H52_6 H 0.1968 0.2178 0.4598
H53_6 H 0.2444 0.2417 0.4553
H54_6 H 0.2237 0.2154 0.4986
O18_6 O 0.23789(15) 0.14497(11) 0.90170(12)
C74_6 C 0.26818(18) 0.16823(13) 0.87803(15)
C75_6 C 0.25991(19) 0.19052(14) 0.84074(16)
C76_6 C 0.28120(25) 0.19983(19) 0.80127(19)
H55_6 H 0.3025 0.1944 0.7982
C77_6 C 0.27159(28) 0.2174(2) 0.7653(2)
H56_6 H 0.2861 0.2232 0.7384
C78_6 C 0.24039(23) 0.22617(17) 0.76974(19)
C79_6 C 0.22024(26) 0.2184(2) 0.8109(2)
H57_6 H 0.2002 0.2254 0.8150
C80_6 C 0.22958(24) 0.20045(19) 0.8460(2)
H58_6 H 0.2156 0.1950 0.8732
O28_6 O 0.23566(16) 0.15513(11) 0.99477(13)
N10_6 N 0.16917(14) 0.07781(10) 0.95037(13)
C112_6 C 0.14663(18) 0.03736(13) 0.95016(18)
H82_6 H 0.1598 0.0222 0.9520
C113_6 C 0.10464(18) 0.01672(13) 0.94735(19)
C114_6 C 0.08469(17) 0.03876(12) 0.94442(16)
C115_6 C 0.10848(18) 0.08116(13) 0.94431(19)
H84_6 H 0.0964 0.0972 0.9419
C116_6 C 0.14986(18) 0.09876(13) 0.94776(18)
H85_6 H 0.1653 0.1270 0.9483
C117_6 C 0.03955(17) 0.01819(12) 0.94328(17)
C118_6 C 0.26628(25) 0.19028(18) 0.9886(2)
H86_6 H 0.2888 0.1922 0.9736
C119_6 C 0.3034(4) 0.2640(2) 0.9919(4)
H87_6 H 0.2995 0.2731 0.9630
H89_6 H 0.3277 0.2621 0.9913
N16_6 N 0.02254(10) 0.04159(10) 0.94323(15)
H98_6 H 0.0116 0.1016 0.9474
H106_6 H 0.0028 0.7583 0.0447
H107_6 H 0.0084 0.7846 0.0014
O6_6 O 0.09291(10) 0.85503(11) 0.59830(12)
O7_6 O 0.08052(11) 0.84487(11) 0.50523(13)
N1_6 N 0.09135(10) 0.92219(10) 0.54963(13)
N3_6 N 0.04441(16) 0.77628(16) 0.4979(2)
C1_6 C 0.09994(12) 0.83177(13) 0.62197(15)
C2_6 C 0.06938(13) 0.80948(14) 0.65926(16)
C3_6 C 0.08136(16) 0.80017(19) 0.69873(19)
H1_6 H 0.1080 0.8056 0.7018
C4_6 C 0.05415(19) 0.7826(2) 0.7347(2)
H2_6 H 0.0628 0.7768 0.7616
C5_6 C 0.01421(16) 0.77383(17) 0.73026(19)
C6_6 C 0.00180(16) 0.7816(2) 0.6891(2)
C7_6 C 0.02912(15) 0.79955(19) 0.6540(2)
H4_6 H 0.0205 0.8050 0.6268
C22_6 C 0.10926(13) 0.96264(13) 0.54984(18)
H13_6 H 0.1375 0.9778 0.5480
C23_6 C 0.08791(13) 0.98328(13) 0.55265(19)
C24_6 C 0.04592(12) 0.96124(12) 0.55558(16)
C25_6 C 0.02731(13) 0.91884(13) 0.55569(19)
C26_6 C 0.05109(13) 0.90124(13) 0.55224(18)
H16_6 H 0.0382 0.8730 0.5517
C27_6 C 0.02135(12) 0.98181(12) 0.55672(17)
C28_6 C 0.07599(17) 0.80972(18) 0.5114(2)
H17_6 H 0.0965 0.8078 0.5264
C29_6 C 0.0393(3) 0.7360(2) 0.5081(4)
H18_6 H 0.0263 0.7269 0.5370
H19_6 H 0.0227 0.7169 0.4851
H20_6 H 0.0655 0.7379 0.5087
C30_6 C 0.0106(3) 0.7780(3) 0.4760(4)
H21_6 H 0.0209 0.8032 0.4598
H26_6 H 0.0253 0.7998 0.8150
N11_6 N 0.01906(14) 0.97746(10) 0.94323(15)
H83_6 H 0.0901 0.9884 0.9474
H95_6 H 0.0009 0.9036 0.9419
N18_6 N 0.77628(16) 0.04441(16) 0.0021(2)
H110_6 H 0.7169 0.0227 0.0149
C138_6 C 0.7780(3) 0.0106(3) 0.0240(4)
H112_6 H 0.8032 0.0209 0.0402
N5_6 N 0.97746(10) 0.01906(14) 0.55677(15)
H29_6 H 0.9884 0.0901 0.5526
H34_6 H 0.9036 0.0009 0.5581
H61_6 H 0.7998 0.0253 0.6850
H76_6 H 0.7583 0.0028 0.4553
H77_6 H 0.7846 0.0084 0.4986
O27_6 O 0.85503(11) 0.09291(10) 0.90170(12)
C105_6 C 0.83177(13) 0.09994(12) 0.87803(15)
C106_6 C 0.80948(14) 0.06938(13) 0.84074(16)
C107_6 C 0.80017(19) 0.08136(16) 0.80127(19)
H78_6 H 0.8056 0.1080 0.7982
C108_6 C 0.7826(2) 0.05415(19) 0.7653(2)
H79_6 H 0.7768 0.0628 0.7384
C109_6 C 0.77383(17) 0.01421(16) 0.76974(19)
C110_6 C 0.7816(2) 0.00180(16) 0.8109(2)
C111_6 C 0.79955(19) 0.02912(15) 0.8460(2)
H81_6 H 0.8050 0.0205 0.8732
N15_6 N 0.92219(10) 0.09135(10) 0.95037(13)
C127_6 C 0.96264(13) 0.10926(13) 0.95016(18)
H97_6 H 0.9778 0.1375 0.9520
C128_6 C 0.98328(13) 0.08791(13) 0.94735(19)
C129_6 C 0.96124(12) 0.04592(12) 0.94442(16)
C130_6 C 0.91884(13) 0.02731(13) 0.94431(19)
C131_6 C 0.90124(13) 0.05109(13) 0.94776(18)
H100_6 H 0.8730 0.0382 0.9483
C132_6 C 0.98181(12) 0.02135(12) 0.94328(17)
O30_6 O 0.84487(11) 0.08052(11) 0.99477(13)
C136_6 C 0.80972(18) 0.07599(17) 0.9886(2)
H108_6 H 0.8078 0.0965 0.9736
C137_6 C 0.7360(2) 0.0393(3) 0.9919(4)
H109_6 H 0.7269 0.0263 0.9630
H111_6 H 0.7379 0.0655 0.9913
N17_6 N 0.95559(16) 0.73186(23) 0.0021(2)
H103_6 H 0.9773 0.6941 0.0149
C135_6 C 0.9894(3) 0.7673(4) 0.0240(4)
H105_6 H 0.9791 0.7822 0.0402
H113_6 H 0.7556 0.9972 0.0447
H114_6 H 0.7763 0.9916 0.0014
H3_6 H 0.9747 0.7746 0.6850
H15_6 H 0.9991 0.9028 0.5581
H22_6 H 0.9972 0.7556 0.4553
H23_6 H 0.9916 0.7763 0.4986
O9_6 O 0.90709(10) 0.76211(15) 0.90170(12)
C31_6 C 0.90006(12) 0.73182(18) 0.87803(15)
C32_6 C 0.93062(13) 0.74009(19) 0.84074(16)
C33_6 C 0.91864(16) 0.71880(25) 0.80127(19)
H24_6 H 0.8920 0.6975 0.7982
C34_6 C 0.94585(19) 0.72841(28) 0.7653(2)
H25_6 H 0.9372 0.7139 0.7384
C35_6 C 0.98579(16) 0.75961(23) 0.76974(19)
C36_6 C 0.99820(16) 0.77976(26) 0.8109(2)
C37_6 C 0.97088(15) 0.77042(24) 0.8460(2)
H27_6 H 0.9795 0.7844 0.8732
N6_6 N 0.83083(14) 0.90865(10) 0.54963(13)
N7_6 N 0.98094(14) 0.95841(10) 0.55677(15)
C44_6 C 0.85337(18) 0.89074(13) 0.54984(18)
H32_6 H 0.8402 0.8625 0.5480
C45_6 C 0.89536(18) 0.91209(13) 0.55265(19)
H33_6 H 0.9099 0.8984 0.5526
C46_6 C 0.91531(17) 0.95408(12) 0.55558(16)
C47_6 C 0.89152(18) 0.97269(13) 0.55569(19)
C48_6 C 0.85014(18) 0.94891(13) 0.55224(18)
H35_6 H 0.8347 0.9618 0.5517
C49_6 C 0.96045(17) 0.97865(12) 0.55672(17)
O24_6 O 0.76211(15) 0.90709(10) 0.59830(12)
O25_6 O 0.76434(16) 0.91948(11) 0.50523(13)
N9_6 N 0.73186(23) 0.95559(16) 0.4979(2)
C81_6 C 0.73182(18) 0.90006(12) 0.62197(15)
C82_6 C 0.74009(19) 0.93062(13) 0.65926(16)
C83_6 C 0.71880(25) 0.91864(16) 0.69873(19)
H59_6 H 0.6975 0.8920 0.7018
C84_6 C 0.72841(28) 0.94585(19) 0.7347(2)
H60_6 H 0.7139 0.9372 0.7616
C85_6 C 0.75961(23) 0.98579(16) 0.73026(19)
C86_6 C 0.77976(26) 0.99820(16) 0.6891(2)
C87_6 C 0.77042(24) 0.97088(15) 0.6540(2)
H62_6 H 0.7844 0.9795 0.6268
C102_6 C 0.73372(25) 0.92401(17) 0.5114(2)
H71_6 H 0.7112 0.9035 0.5264
C103_6 C 0.6966(4) 0.9607(3) 0.5081(4)
H72_6 H 0.7005 0.9737 0.5370
H73_6 H 0.6941 0.9773 0.4851
H74_6 H 0.6723 0.9345 0.5087
C104_6 C 0.7673(4) 0.9894(3) 0.4760(4)
H75_6 H 0.7822 0.9791 0.4598
H80_6 H 0.7746 0.9747 0.8150
N13_6 N 0.90865(10) 0.83083(14) 0.95037(13)
N14_6 N 0.95841(10) 0.98094(14) 0.94323(15)
C121_6 C 0.89074(13) 0.85337(18) 0.95016(18)
H93_6 H 0.8625 0.8402 0.9520
C122_6 C 0.91209(13) 0.89536(18) 0.94735(19)
H94_6 H 0.8984 0.9099 0.9474
C123_6 C 0.95408(12) 0.91531(17) 0.94442(16)
C124_6 C 0.97269(13) 0.89152(18) 0.94431(19)
C125_6 C 0.94891(13) 0.85014(18) 0.94776(18)
H96_6 H 0.9618 0.8347 0.9483
C126_6 C 0.97865(12) 0.96045(17) 0.94328(17)
H99_6 H 0.9028 0.9991 0.9419
O29_6 O 0.91948(11) 0.76434(16) 0.99477(13)
C133_6 C 0.92401(17) 0.73372(25) 0.9886(2)
H101_6 H 0.9035 0.7112 0.9736
C134_6 C 0.9607(3) 0.6966(4) 0.9919(4)
H102_6 H 0.9737 0.7005 0.9630
H104_6 H 0.9345 0.6723 0.9913
loop_
_geom_bond_atom_site_label_1
_geom_bond_atom_site_label_2
_geom_bond_site_symmetry_1
_geom_bond_site_symmetry_2
O19 C101 1_555 1_555
O20 C101 1_555 1_555
C91 C90 1_555 1_555
H64 C91 1_555 1_555
C92 C91 1_555 1_555
C93 C92 1_555 1_555
H65 C93 1_555 1_555
C95 C92 1_555 1_555
C96 C95 1_555 1_555
H67 C96 1_555 1_555
C97 C96 1_555 1_555
H68 C97 1_555 1_555
C98 C97 1_555 1_555
C99 C98 1_555 1_555
H69 C99 1_555 1_555
C100 C95 1_555 1_555
H70 C100 1_555 1_555
C101 C98 1_555 1_555
Co12 O19 1_555 1_555
Co18 O19 1_555 1_555
O20 Co18 1_555 1_555
C99 C100 1_555 1_555
Co1 O4 1_555 1_555
Co2 O6 1_555 1_555
O3 C8 1_555 1_555
O4 C8 1_555 1_555
O5 Co1 1_555 1_555
O6 C1 1_555 1_555
O7 Co2 1_555 1_555
N1 Co2 1_555 1_555
N2 C27 1_555 1_555
N3 C28 1_555 1_555
C1 O5 1_555 1_555
C2 C1 1_555 1_555
C7 C2 1_555 1_555
H4 C7 1_555 1_555
C8 C9 1_555 1_555
C14 C9 1_555 1_555
H8 C14 1_555 1_555
C22 N1 1_555 1_555
H13 C22 1_555 1_555
C23 C22 1_555 1_555
H14 C23 1_555 1_555
C24 C23 1_555 1_555
C25 C24 1_555 1_555
H15 C25 1_555 1_555
C26 N1 1_555 1_555
H16 C26 1_555 1_555
C27 C24 1_555 1_555
C28 O7 1_555 1_555
H17 C28 1_555 1_555
C29 N3 1_555 1_555
H18 C29 1_555 1_555
H19 C29 1_555 1_555
H20 C29 1_555 1_555
C30 N3 1_555 1_555
H21 C30 1_555 1_555
H22 C30 1_555 1_555
H23 C30 1_555 1_555
N4 C38 1_555 1_555
N5 C43 1_555 1_555
C38 H28 1_555 1_555
C39 C38 1_555 1_555
H29 C39 1_555 1_555
C40 C39 1_555 1_555
C41 C40 1_555 1_555
H30 C41 1_555 1_555
C42 N4 1_555 1_555
H31 C42 1_555 1_555
C43 N2 1_555 1_555
N6 C44 1_555 1_555
N7 C27 1_555 1_555
C44 H32 1_555 1_555
C45 C44 1_555 1_555
H33 C45 1_555 1_555
C46 C45 1_555 1_555
C47 C46 1_555 1_555
H34 C47 1_555 1_555
C48 N6 1_555 1_555
H35 C48 1_555 1_555
C49 N5 1_555 1_555
Co3 O13 1_555 1_555
Co4 N4 1_555 1_555
O10 C70 1_555 1_555
O11 C70 1_555 1_555
O12 C57 1_555 1_555
O13 C57 1_555 1_555
O14 Co3 1_555 1_555
O15 Co4 1_555 1_555
O16 Co4 1_555 1_555
N8 C71 1_555 1_555
C50 O14 1_555 1_555
C51 C50 1_555 1_555
C56 C51 1_555 1_555
H39 C56 1_555 1_555
C57 C58 1_555 1_555
C58 C59 1_555 1_555
C59 H40 1_555 1_555
C60 C59 1_555 1_555
H41 C60 1_555 1_555
C61 C60 1_555 1_555
C62 C61 1_555 1_555
H42 C62 1_555 1_555
C63 C58 1_555 1_555
H43 C63 1_555 1_555
C64 C61 1_555 1_555
C65 C64 1_555 1_555
H44 C65 1_555 1_555
C66 C65 1_555 1_555
H45 C66 1_555 1_555
C67 C66 1_555 1_555
C68 C67 1_555 1_555
H46 C68 1_555 1_555
C69 C64 1_555 1_555
H47 C69 1_555 1_555
C70 C67 1_555 1_555
C71 O16 1_555 1_555
H48 C71 1_555 1_555
C72 N8 1_555 1_555
H49 C72 1_555 1_555
H50 C72 1_555 1_555
H51 C72 1_555 1_555
C73 N8 1_555 1_555
H52 C73 1_555 1_555
H53 C73 1_555 1_555
H54 C73 1_555 1_555
Co5 O22 1_555 1_555
Co6 N6 1_555 1_555
O21 C88 1_555 1_555
O22 C88 1_555 1_555
O23 Co5 1_555 1_555
O24 Co6 1_555 1_555
O25 Co6 1_555 1_555
N9 C102 1_555 1_555
C81 O23 1_555 1_555
C82 C81 1_555 1_555
C87 C82 1_555 1_555
H62 C87 1_555 1_555
C88 C89 1_555 1_555
C94 C89 1_555 1_555
H66 C94 1_555 1_555
C102 O25 1_555 1_555
H71 C102 1_555 1_555
C103 N9 1_555 1_555
H72 C103 1_555 1_555
H73 C103 1_555 1_555
H74 C103 1_555 1_555
C104 N9 1_555 1_555
H75 C104 1_555 1_555
H76 C104 1_555 1_555
H77 C104 1_555 1_555
O31 Co1 1_555 1_555
O35 Co1 1_555 1_555
O36 Co2 1_555 1_555
C156 C155 1_555 1_555
H124 C156 1_555 1_555
C157 C156 1_555 1_555
C158 C157 1_555 1_555
H125 C158 1_555 1_555
C160 C157 1_555 1_555
C161 C160 1_555 1_555
H127 C161 1_555 1_555
C162 C161 1_555 1_555
H128 C162 1_555 1_555
C163 C162 1_555 1_555
C164 C163 1_555 1_555
H129 C164 1_555 1_555
C165 C160 1_555 1_555
H130 C165 1_555 1_555
C166 O35 1_555 1_555
O41 Co2 1_555 1_555
O42 Co1 1_555 1_555
C167 O41 1_555 1_555
C168 C167 1_555 1_555
C169 C168 1_555 1_555
H131 C169 1_555 1_555
C173 C168 1_555 1_555
H134 C173 1_555 1_555
Co10 O10 1_555 1_555
Co16 O10 1_555 1_555
Co21 O21 1_555 1_555
Co22 O12 1_555 1_555
Co23 O3 1_555 1_555
O43 Co3 1_555 1_555
O44 Co5 1_555 1_555
O48 Co3 1_555 1_555
O49 Co5 1_555 1_555
O50 Co4 1_555 1_555
O51 Co6 1_555 1_555
O57 Co6 1_555 1_555
O58 Co4 1_555 1_555
O59 Co5 1_555 1_555
O60 Co3 1_555 1_555
O61 Co5 1_555 1_555
O62 Co3 1_555 1_555
O63 Co1 1_555 1_555
Co2 O35 1_555 1_555
C25 C26 1_555 1_555
C40 C43 1_555 1_555
C41 C42 1_555 1_555
N7 C49 1_555 1_555
C46 C49 1_555 1_555
C47 C48 1_555 1_555
Co4 O43 1_555 1_555
O11 Co16 1_555 1_555
O15 C50 1_555 1_555
C62 C63 1_555 1_555
C68 C69 1_555 1_555
Co6 O44 1_555 1_555
O24 C81 1_555 1_555
O31 Co23 1_555 1_555
O36 C166 1_555 1_555
C163 C166 1_555 1_555
C164 C165 1_555 1_555
O42 C167 1_555 1_555
Co21 O49 1_555 1_555
Co22 O48 1_555 1_555
H1 C3 1_555 1_555
C4 C3 1_555 1_555
H2 C4 1_555 1_555
C5 C4 1_555 1_555
C6 C5 1_555 1_555
H3 C6 1_555 1_555
O8 C31 1_555 1_555
O9 C31 1_555 1_555
C31 C32 1_555 1_555
C32 C33 1_555 1_555
C33 H24 1_555 1_555
C34 C33 1_555 1_555
H25 C34 1_555 1_555
C35 C5 1_555 1_555
C36 C35 1_555 1_555
H26 C36 1_555 1_555
C37 C32 1_555 1_555
H27 C37 1_555 1_555
H36 C52 1_555 1_555
C53 C52 1_555 1_555
H37 C53 1_555 1_555
C54 C53 1_555 1_555
C55 C54 1_555 1_555
H38 C55 1_555 1_555
O17 C74 1_555 1_555
O18 C74 1_555 1_555
C74 C75 1_555 1_555
C75 C76 1_555 1_555
C76 H55 1_555 1_555
C77 C76 1_555 1_555
H56 C77 1_555 1_555
C78 C54 1_555 1_555
C79 C78 1_555 1_555
H57 C79 1_555 1_555
C80 C75 1_555 1_555
H58 C80 1_555 1_555
H59 C83 1_555 1_555
C84 C83 1_555 1_555
H60 C84 1_555 1_555
C85 C84 1_555 1_555
C86 C85 1_555 1_555
H61 C86 1_555 1_555
O26 C105 1_555 1_555
O27 C105 1_555 1_555
C105 C106 1_555 1_555
C106 C107 1_555 1_555
C107 H78 1_555 1_555
C108 C107 1_555 1_555
H79 C108 1_555 1_555
C109 C85 1_555 1_555
C110 C109 1_555 1_555
H80 C110 1_555 1_555
C111 C106 1_555 1_555
H81 C111 1_555 1_555
Co7 O18 1_555 1_555
O28 Co7 1_555 1_555
N10 Co7 1_555 1_555
N11 C117 1_555 1_555
N12 C118 1_555 1_555
C112 N10 1_555 1_555
H82 C112 1_555 1_555
C113 C112 1_555 1_555
H83 C113 1_555 1_555
C114 C113 1_555 1_555
C115 C114 1_555 1_555
H84 C115 1_555 1_555
C116 N10 1_555 1_555
H85 C116 1_555 1_555
C117 C114 1_555 1_555
C118 O28 1_555 1_555
H86 C118 1_555 1_555
C119 N12 1_555 1_555
H87 C119 1_555 1_555
H88 C119 1_555 1_555
H89 C119 1_555 1_555
C120 N12 1_555 1_555
H90 C120 1_555 1_555
H91 C120 1_555 1_555
H92 C120 1_555 1_555
N13 C121 1_555 1_555
N14 C126 1_555 1_555
C121 H93 1_555 1_555
C122 C121 1_555 1_555
H94 C122 1_555 1_555
C123 C122 1_555 1_555
C124 C123 1_555 1_555
H95 C124 1_555 1_555
C125 N13 1_555 1_555
H96 C125 1_555 1_555
C126 N11 1_555 1_555
N15 C127 1_555 1_555
N16 C117 1_555 1_555
C127 H97 1_555 1_555
C128 C127 1_555 1_555
H98 C128 1_555 1_555
C129 C128 1_555 1_555
C130 C129 1_555 1_555
H99 C130 1_555 1_555
C131 N15 1_555 1_555
H100 C131 1_555 1_555
C132 N14 1_555 1_555
Co8 O9 1_555 1_555
O29 Co8 1_555 1_555
N17 C133 1_555 1_555
C133 O29 1_555 1_555
H101 C133 1_555 1_555
C134 N17 1_555 1_555
H102 C134 1_555 1_555
H103 C134 1_555 1_555
H104 C134 1_555 1_555
C135 N17 1_555 1_555
H105 C135 1_555 1_555
H106 C135 1_555 1_555
H107 C135 1_555 1_555
Co9 O27 1_555 1_555
O30 Co9 1_555 1_555
N18 C136 1_555 1_555
C136 O30 1_555 1_555
H108 C136 1_555 1_555
C137 N18 1_555 1_555
H109 C137 1_555 1_555
H110 C137 1_555 1_555
H111 C137 1_555 1_555
C138 N18 1_555 1_555
H112 C138 1_555 1_555
H113 C138 1_555 1_555
H114 C138 1_555 1_555
O32 C152 1_555 1_555
O33 Co7 1_555 1_555
O34 C139 1_555 1_555
C139 O33 1_555 1_555
C140 C139 1_555 1_555
C141 C140 1_555 1_555
H115 C141 1_555 1_555
C142 C141 1_555 1_555
H116 C142 1_555 1_555
C143 C142 1_555 1_555
C144 C143 1_555 1_555
H117 C144 1_555 1_555
C145 C140 1_555 1_555
H118 C145 1_555 1_555
C146 C143 1_555 1_555
C147 C146 1_555 1_555
H119 C147 1_555 1_555
C148 C147 1_555 1_555
H120 C148 1_555 1_555
C149 C148 1_555 1_555
C150 C149 1_555 1_555
H121 C150 1_555 1_555
C151 C146 1_555 1_555
H122 C151 1_555 1_555
H132 C170 1_555 1_555
C171 C170 1_555 1_555
C172 C171 1_555 1_555
H133 C172 1_555 1_555
C174 C171 1_555 1_555
C175 C174 1_555 1_555
H135 C175 1_555 1_555
C176 C175 1_555 1_555
H136 C176 1_555 1_555
Co13 O17 1_555 1_555
Co14_2 O8 1_555 1_555
Co15 O26 1_555 1_555
O45 Co8 1_555 1_555
O46 Co7 1_555 1_555
O47 Co9 1_555 1_555
O52 Co8 1_555 1_555
O53 Co7 1_555 1_555
O54 Co9 1_555 1_555
O55 Co9 1_555 1_555
O56 Co8 1_555 1_555
C34 C35 1_555 1_555
C36 C37 1_555 1_555
C77 C78 1_555 1_555
C79 C80 1_555 1_555
C108 C109 1_555 1_555
C110 C111 1_555 1_555
C115 C116 1_555 1_555
N13 Co8 1_555 1_555
C123 C126 1_555 1_555
C124 C125 1_555 1_555
N15 Co9 1_555 1_555
N16 C132 1_555 1_555
C129 C132 1_555 1_555
C130 C131 1_555 1_555
O34 Co13 1_555 1_555
C144 C145 1_555 1_555
C149 C152 1_555 1_555
C150 C151 1_555 1_555
Co13 O46 1_555 1_555
Co14_2 O45 1_555 1_555
Co15 O47 1_555 1_555
O1 C21 1_555 1_555
O2 C21 1_555 1_555
C11 C10 1_555 1_555
H6 C11 1_555 1_555
C12 C11 1_555 1_555
C13 C12 1_555 1_555
H7 C13 1_555 1_555
C15 C12 1_555 1_555
C16 C15 1_555 1_555
H9 C16 1_555 1_555
C17 C16 1_555 1_555
H10 C17 1_555 1_555
C18 C17 1_555 1_555
C19 C18 1_555 1_555
H11 C19 1_555 1_555
C20 C15 1_555 1_555
H12 C20 1_555 1_555
C21 C18 1_555 1_555
O37 C153 1_555 1_555
O38 C153 1_555 1_555
C153 C154 1_555 1_555
C159 C154 1_555 1_555
H126 C159 1_555 1_555
Co11 O1 1_555 1_555
Co17 O1 1_555 1_555
Co19 O37 1_555 1_555
O2 Co17 1_555 1_555
C19 C20 1_555 1_555
O38 Co11 1_555 1_555
O39 C180 1_555 1_555
O40 C180 1_555 1_555
C178 C177 1_555 1_555
H137 C178 1_555 1_555
H138 C179 1_555 1_555
C180 C177 1_555 1_555
Co20 O39 1_555 1_555
O39 Co13_2 1_555 1_555
O40 Co20 1_555 1_555
C178 C179 1_555 1_555
O37_2 C153_2 1_555 1_555
O38_2 C153_2 1_555 1_555
C153_2 C154_2 1_555 1_555
C154_2 C155_2 1_555 1_555
C155_2 H123_2 1_555 1_555
C156_2 C155_2 1_555 1_555
H124_2 C156_2 1_555 1_555
C157_2 C156_2 1_555 1_555
C158_2 C157_2 1_555 1_555
H125_2 C158_2 1_555 1_555
C159_2 C154_2 1_555 1_555
H126_2 C159_2 1_555 1_555
C160_2 C157_2 1_555 1_555
C161_2 C160_2 1_555 1_555
H127_2 C161_2 1_555 1_555
C162_2 C161_2 1_555 1_555
H128_2 C162_2 1_555 1_555
C163_2 C162_2 1_555 1_555
C164_2 C163_2 1_555 1_555
H129_2 C164_2 1_555 1_555
C165_2 C160_2 1_555 1_555
H130_2 C165_2 1_555 1_555
C166_2 O43 1_555 1_555
C167_2 O58 1_555 1_555
C168_2 C167_2 1_555 1_555
C169_2 C168_2 1_555 1_555
H131_2 C169_2 1_555 1_555
C173_2 C168_2 1_555 1_555
H134_2 C173_2 1_555 1_555
Co19_2 O37_2 1_555 1_555
O50 C166_2 1_555 1_555
O38_2 Co10 1_555 1_555
C158_2 C159_2 1_555 1_555
C163_2 C166_2 1_555 1_555
C164_2 C165_2 1_555 1_555
O60 C167_2 1_555 1_555
O32_2 C152_2 1_555 1_555
O34_2 C139_2 1_555 1_555
C139_2 O55 1_555 1_555
C140_2 C139_2 1_555 1_555
C141_2 C140_2 1_555 1_555
H115_2 C141_2 1_555 1_555
C142_2 C141_2 1_555 1_555
H116_2 C142_2 1_555 1_555
C143_2 C142_2 1_555 1_555
C144_2 C143_2 1_555 1_555
H117_2 C144_2 1_555 1_555
C145_2 C140_2 1_555 1_555
H118_2 C145_2 1_555 1_555
C146_2 C143_2 1_555 1_555
C147_2 C146_2 1_555 1_555
H119_2 C147_2 1_555 1_555
C148_2 C147_2 1_555 1_555
H120_2 C148_2 1_555 1_555
C149_2 C148_2 1_555 1_555
C150_2 C149_2 1_555 1_555
H121_2 C150_2 1_555 1_555
C151_2 C146_2 1_555 1_555
H122_2 C151_2 1_555 1_555
O39_2 C180_2 1_555 1_555
O40_2 C180_2 1_555 1_555
H132_2 C170_2 1_555 1_555
C171_2 C170_2 1_555 1_555
C172_2 C171_2 1_555 1_555
H133_2 C172_2 1_555 1_555
C174_2 C171_2 1_555 1_555
C175_2 C174_2 1_555 1_555
H135_2 C175_2 1_555 1_555
C176_2 C175_2 1_555 1_555
H136_2 C176_2 1_555 1_555
C177_2 C176_2 1_555 1_555
C178_2 C177_2 1_555 1_555
H137_2 C178_2 1_555 1_555
C179_2 C174_2 1_555 1_555
H138_2 C179_2 1_555 1_555
C180_2 C177_2 1_555 1_555
Co20_2 O39_2 1_555 1_555
O34_2 Co15 1_555 1_555
C144_2 C145_2 1_555 1_555
C149_2 C152_2 1_555 1_555
C150_2 C151_2 1_555 1_555
O39_2 Co15 1_555 1_555
O40_2 Co20_2 1_555 1_555
C178_2 C179_2 1_555 1_555
O37_3 C153_3 1_555 1_555
O38_3 C153_3 1_555 1_555
C153_3 C154_3 1_555 1_555
C159_3 C154_3 1_555 1_555
H126_3 C159_3 1_555 1_555
Co19_3 O37_3 1_555 1_555
O38_3 Co12 1_555 1_555
O39_3 C180_3 1_555 1_555
O40_3 C180_3 1_555 1_555
C178_3 C177_3 1_555 1_555
H137_3 C178_3 1_555 1_555
H138_3 C179_3 1_555 1_555
C180_3 C177_3 1_555 1_555
Co20_3 O39_3 1_555 1_555
O39_3 Co14 1_555 1_555
O40_3 Co20_3 1_555 1_555
C178_3 C179_3 1_555 1_555
C156_3 C155_3 1_555 1_555
H124_3 C156_3 1_555 1_555
C157_3 C156_3 1_555 1_555
C158_3 C157_3 1_555 1_555
H125_3 C158_3 1_555 1_555
C160_3 C157_3 1_555 1_555
C161_3 C160_3 1_555 1_555
H127_3 C161_3 1_555 1_555
C162_3 C161_3 1_555 1_555
H128_3 C162_3 1_555 1_555
C163_3 C162_3 1_555 1_555
C164_3 C163_3 1_555 1_555
H129_3 C164_3 1_555 1_555
C165_3 C160_3 1_555 1_555
H130_3 C165_3 1_555 1_555
C166_3 O44 1_555 1_555
C167_3 O57 1_555 1_555
C168_3 C167_3 1_555 1_555
C169_3 C168_3 1_555 1_555
H131_3 C169_3 1_555 1_555
C173_3 C168_3 1_555 1_555
H134_3 C173_3 1_555 1_555
O51 C166_3 1_555 1_555
C163_3 C166_3 1_555 1_555
C164_3 C165_3 1_555 1_555
O59 C167_3 1_555 1_555
O32_3 C152_3 1_555 1_555
O34_3 C139_3 1_555 1_555
C139_3 O56 1_555 1_555
C140_3 C139_3 1_555 1_555
C141_3 C140_3 1_555 1_555
H115_3 C141_3 1_555 1_555
C142_3 C141_3 1_555 1_555
H116_3 C142_3 1_555 1_555
C143_3 C142_3 1_555 1_555
C144_3 C143_3 1_555 1_555
H117_3 C144_3 1_555 1_555
C145_3 C140_3 1_555 1_555
H118_3 C145_3 1_555 1_555
C146_3 C143_3 1_555 1_555
C147_3 C146_3 1_555 1_555
H119_3 C147_3 1_555 1_555
C148_3 C147_3 1_555 1_555
H120_3 C148_3 1_555 1_555
C149_3 C148_3 1_555 1_555
C150_3 C149_3 1_555 1_555
H121_3 C150_3 1_555 1_555
C151_3 C146_3 1_555 1_555
H122_3 C151_3 1_555 1_555
H132_3 C170_3 1_555 1_555
C171_3 C170_3 1_555 1_555
C172_3 C171_3 1_555 1_555
H133_3 C172_3 1_555 1_555
C174_3 C171_3 1_555 1_555
C175_3 C174_3 1_555 1_555
H135_3 C175_3 1_555 1_555
C176_3 C175_3 1_555 1_555
H136_3 C176_3 1_555 1_555
O34_3 Co14_2 1_555 1_555
C144_3 C145_3 1_555 1_555
C149_3 C152_3 1_555 1_555
C150_3 C151_3 1_555 1_555
Co16 O6_2 1_555 1_555
O5_2 Co10 1_555 1_555
O6_2 C1_2 1_555 1_555
O7_2 Co16 1_555 1_555
N1_2 Co16 1_555 1_555
N2_2 C27_2 1_555 1_555
N3_2 C28_2 1_555 1_555
C1_2 O5_2 1_555 1_555
C2_2 C1_2 1_555 1_555
C3_2 C2_2 1_555 1_555
H1_2 C3_2 1_555 1_555
C4_2 C3_2 1_555 1_555
H2_2 C4_2 1_555 1_555
C5_2 C4_2 1_555 1_555
C6_2 C5_2 1_555 1_555
H3_2 C6_2 1_555 1_555
C7_2 C2_2 1_555 1_555
H4_2 C7_2 1_555 1_555
C22_2 N1_2 1_555 1_555
H13_2 C22_2 1_555 1_555
C23_2 C22_2 1_555 1_555
H14_2 C23_2 1_555 1_555
C24_2 C23_2 1_555 1_555
C25_2 C24_2 1_555 1_555
H15_2 C25_2 1_555 1_555
C26_2 N1_2 1_555 1_555
H16_2 C26_2 1_555 1_555
C27_2 C24_2 1_555 1_555
C28_2 O7_2 1_555 1_555
H17_2 C28_2 1_555 1_555
C29_2 N3_2 1_555 1_555
H18_2 C29_2 1_555 1_555
H19_2 C29_2 1_555 1_555
H20_2 C29_2 1_555 1_555
C30_2 N3_2 1_555 1_555
H21_2 C30_2 1_555 1_555
H22_2 C30_2 1_555 1_555
H23_2 C30_2 1_555 1_555
O8_2 C31_2 1_555 1_555
O9_2 C31_2 1_555 1_555
C31_2 C32_2 1_555 1_555
C32_2 C33_2 1_555 1_555
C33_2 H24_2 1_555 1_555
C34_2 C33_2 1_555 1_555
H25_2 C34_2 1_555 1_555
C35_2 C5_2 1_555 1_555
C36_2 C35_2 1_555 1_555
H26_2 C36_2 1_555 1_555
C37_2 C32_2 1_555 1_555
H27_2 C37_2 1_555 1_555
N4_2 C38_2 1_555 1_555
N5_2 C43_2 1_555 1_555
C38_2 H28_2 1_555 1_555
C39_2 C38_2 1_555 1_555
H29_2 C39_2 1_555 1_555
C40_2 C39_2 1_555 1_555
C41_2 C40_2 1_555 1_555
H30_2 C41_2 1_555 1_555
C42_2 N4_2 1_555 1_555
H31_2 C42_2 1_555 1_555
C43_2 N2_2 1_555 1_555
N6_2 C44_2 1_555 1_555
N7_2 C27_2 1_555 1_555
C44_2 H32_2 1_555 1_555
C45_2 C44_2 1_555 1_555
H33_2 C45_2 1_555 1_555
C46_2 C45_2 1_555 1_555
C47_2 C46_2 1_555 1_555
H34_2 C47_2 1_555 1_555
C48_2 N6_2 1_555 1_555
H35_2 C48_2 1_555 1_555
C49_2 N5_2 1_555 1_555
Co17 N4_2 1_555 1_555
O14_2 Co11 1_555 1_555
O15_2 Co17 1_555 1_555
O16_2 Co17 1_555 1_555
N8_2 C71_2 1_555 1_555
C50_2 O14_2 1_555 1_555
C51_2 C50_2 1_555 1_555
C52_2 C51_2 1_555 1_555
H36_2 C52_2 1_555 1_555
C53_2 C52_2 1_555 1_555
H37_2 C53_2 1_555 1_555
C54_2 C53_2 1_555 1_555
C55_2 C54_2 1_555 1_555
H38_2 C55_2 1_555 1_555
C56_2 C51_2 1_555 1_555
H39_2 C56_2 1_555 1_555
C71_2 O16_2 1_555 1_555
H48_2 C71_2 1_555 1_555
C72_2 N8_2 1_555 1_555
H49_2 C72_2 1_555 1_555
H50_2 C72_2 1_555 1_555
H51_2 C72_2 1_555 1_555
C73_2 N8_2 1_555 1_555
H52_2 C73_2 1_555 1_555
H53_2 C73_2 1_555 1_555
H54_2 C73_2 1_555 1_555
O17_2 C74_2 1_555 1_555
O18_2 C74_2 1_555 1_555
C74_2 C75_2 1_555 1_555
C75_2 C76_2 1_555 1_555
C76_2 H55_2 1_555 1_555
C77_2 C76_2 1_555 1_555
H56_2 C77_2 1_555 1_555
C78_2 C54_2 1_555 1_555
C79_2 C78_2 1_555 1_555
H57_2 C79_2 1_555 1_555
C80_2 C75_2 1_555 1_555
H58_2 C80_2 1_555 1_555
Co18 N6_2 1_555 1_555
O23_2 Co12 1_555 1_555
O24_2 Co18 1_555 1_555
O25_2 Co18 1_555 1_555
N9_2 C102_2 1_555 1_555
C81_2 O23_2 1_555 1_555
C82_2 C81_2 1_555 1_555
C83_2 C82_2 1_555 1_555
H59_2 C83_2 1_555 1_555
C84_2 C83_2 1_555 1_555
H60_2 C84_2 1_555 1_555
C85_2 C84_2 1_555 1_555
C86_2 C85_2 1_555 1_555
H61_2 C86_2 1_555 1_555
C87_2 C82_2 1_555 1_555
H62_2 C87_2 1_555 1_555
C102_2 O25_2 1_555 1_555
H71_2 C102_2 1_555 1_555
C103_2 N9_2 1_555 1_555
H72_2 C103_2 1_555 1_555
H73_2 C103_2 1_555 1_555
H74_2 C103_2 1_555 1_555
C104_2 N9_2 1_555 1_555
H75_2 C104_2 1_555 1_555
H76_2 C104_2 1_555 1_555
H77_2 C104_2 1_555 1_555
O26_2 C105_2 1_555 1_555
O27_2 C105_2 1_555 1_555
C105_2 C106_2 1_555 1_555
C106_2 C107_2 1_555 1_555
C107_2 H78_2 1_555 1_555
C108_2 C107_2 1_555 1_555
H79_2 C108_2 1_555 1_555
C109_2 C85_2 1_555 1_555
C110_2 C109_2 1_555 1_555
H80_2 C110_2 1_555 1_555
C111_2 C106_2 1_555 1_555
H81_2 C111_2 1_555 1_555
Co20_2 O18_2 1_555 1_555
O28_2 Co20_2 1_555 1_555
N10_2 Co20_2 1_555 1_555
N11_2 C117_2 1_555 1_555
N12_2 C118_2 1_555 1_555
C112_2 N10_2 1_555 1_555
H82_2 C112_2 1_555 1_555
C113_2 C112_2 1_555 1_555
H83_2 C113_2 1_555 1_555
C114_2 C113_2 1_555 1_555
C115_2 C114_2 1_555 1_555
H84_2 C115_2 1_555 1_555
C116_2 N10_2 1_555 1_555
H85_2 C116_2 1_555 1_555
C117_2 C114_2 1_555 1_555
C118_2 O28_2 1_555 1_555
H86_2 C118_2 1_555 1_555
C119_2 N12_2 1_555 1_555
H87_2 C119_2 1_555 1_555
H88_2 C119_2 1_555 1_555
H89_2 C119_2 1_555 1_555
C120_2 N12_2 1_555 1_555
H90_2 C120_2 1_555 1_555
H91_2 C120_2 1_555 1_555
H92_2 C120_2 1_555 1_555
N13_2 C121_2 1_555 1_555
N14_2 C126_2 1_555 1_555
C121_2 H93_2 1_555 1_555
C122_2 C121_2 1_555 1_555
H94_2 C122_2 1_555 1_555
C123_2 C122_2 1_555 1_555
C124_2 C123_2 1_555 1_555
H95_2 C124_2 1_555 1_555
C125_2 N13_2 1_555 1_555
H96_2 C125_2 1_555 1_555
C126_2 N11_2 1_555 1_555
N15_2 C127_2 1_555 1_555
N16_2 C117_2 1_555 1_555
C127_2 H97_2 1_555 1_555
C128_2 C127_2 1_555 1_555
H98_2 C128_2 1_555 1_555
C129_2 C128_2 1_555 1_555
C130_2 C129_2 1_555 1_555
H99_2 C130_2 1_555 1_555
C131_2 N15_2 1_555 1_555
H100_2 C131_2 1_555 1_555
C132_2 N14_2 1_555 1_555
Co20_3 O9_2 1_555 1_555
O29_2 Co20_3 1_555 1_555
N17_2 C133_2 1_555 1_555
C133_2 O29_2 1_555 1_555
H101_2 C133_2 1_555 1_555
C134_2 N17_2 1_555 1_555
H102_2 C134_2 1_555 1_555
H103_2 C134_2 1_555 1_555
H104_2 C134_2 1_555 1_555
C135_2 N17_2 1_555 1_555
H105_2 C135_2 1_555 1_555
H106_2 C135_2 1_555 1_555
H107_2 C135_2 1_555 1_555
Co20 O27_2 1_555 1_555
O30_2 Co20 1_555 1_555
N18_2 C136_2 1_555 1_555
C136_2 O30_2 1_555 1_555
H108_2 C136_2 1_555 1_555
C137_2 N18_2 1_555 1_555
H109_2 C137_2 1_555 1_555
H110_2 C137_2 1_555 1_555
H111_2 C137_2 1_555 1_555
C138_2 N18_2 1_555 1_555
H112_2 C138_2 1_555 1_555
H113_2 C138_2 1_555 1_555
H114_2 C138_2 1_555 1_555
O31_2 Co10 1_555 1_555
O32_4 C152_4 1_555 1_555
O33_2 Co20_2 1_555 1_555
O34_4 C139_4 1_555 1_555
C139_4 O33_2 1_555 1_555
C140_4 C139_4 1_555 1_555
C141_4 C140_4 1_555 1_555
H115_4 C141_4 1_555 1_555
C142_4 C141_4 1_555 1_555
H116_4 C142_4 1_555 1_555
C143_4 C142_4 1_555 1_555
C144_4 C143_4 1_555 1_555
H117_4 C144_4 1_555 1_555
C145_4 C140_4 1_555 1_555
H118_4 C145_4 1_555 1_555
C146_4 C143_4 1_555 1_555
C147_4 C146_4 1_555 1_555
H119_4 C147_4 1_555 1_555
C148_4 C147_4 1_555 1_555
H120_4 C148_4 1_555 1_555
C149_4 C148_4 1_555 1_555
C150_4 C149_4 1_555 1_555
H121_4 C150_4 1_555 1_555
C151_4 C146_4 1_555 1_555
H122_4 C151_4 1_555 1_555
C152_4 O31_2 1_555 1_555
O47 C180_4 1_555 1_555
O54 C180_4 1_555 1_555
O41_2 Co16 1_555 1_555
O42_2 Co10 1_555 1_555
C167_4 O41_2 1_555 1_555
C168_4 C167_4 1_555 1_555
C169_4 C168_4 1_555 1_555
H131_4 C169_4 1_555 1_555
C170_4 C169_4 1_555 1_555
H132_4 C170_4 1_555 1_555
C171_4 C170_4 1_555 1_555
C172_4 C171_4 1_555 1_555
H133_4 C172_4 1_555 1_555
C173_4 C168_4 1_555 1_555
H134_4 C173_4 1_555 1_555
C174_4 C171_4 1_555 1_555
C175_4 C174_4 1_555 1_555
H135_4 C175_4 1_555 1_555
C176_4 C175_4 1_555 1_555
H136_4 C176_4 1_555 1_555
C177_4 C176_4 1_555 1_555
C178_4 C177_4 1_555 1_555
H137_4 C178_4 1_555 1_555
C179_4 C174_4 1_555 1_555
H138_4 C179_4 1_555 1_555
C180_4 C177_4 1_555 1_555
Co15 O17_2 1_555 1_555
Co14 O8_2 1_555 1_555
Co13_2 O26_2 1_555 1_555
O48_2 Co11 1_555 1_555
O49_2 Co12 1_555 1_555
O55_2 Co20 1_555 1_555
O56_2 Co20_3 1_555 1_555
O57_2 Co18 1_555 1_555
O58_2 Co17 1_555 1_555
O59_2 Co12 1_555 1_555
O60_2 Co11 1_555 1_555
O61_2 Co12 1_555 1_555
O62_2 Co11 1_555 1_555
O63_2 Co10 1_555 1_555
C6_2 C7_2 1_555 1_555
C25_2 C26_2 1_555 1_555
C34_2 C35_2 1_555 1_555
C36_2 C37_2 1_555 1_555
C40_2 C43_2 1_555 1_555
C41_2 C42_2 1_555 1_555
N7_2 C49_2 1_555 1_555
C46_2 C49_2 1_555 1_555
C47_2 C48_2 1_555 1_555
O15_2 C50_2 1_555 1_555
C55_2 C56_2 1_555 1_555
C77_2 C78_2 1_555 1_555
C79_2 C80_2 1_555 1_555
O24_2 C81_2 1_555 1_555
C86_2 C87_2 1_555 1_555
C108_2 C109_2 1_555 1_555
C110_2 C111_2 1_555 1_555
C115_2 C116_2 1_555 1_555
N13_2 Co20_3 1_555 1_555
C123_2 C126_2 1_555 1_555
C124_2 C125_2 1_555 1_555
N15_2 Co20 1_555 1_555
N16_2 C132_2 1_555 1_555
C129_2 C132_2 1_555 1_555
C130_2 C131_2 1_555 1_555
O31_2 Co19_2 1_555 1_555
O32_4 Co19_2 1_555 1_555
O34_4 Co15 1_555 1_555
C144_4 C145_4 1_555 1_555
C149_4 C152_4 1_555 1_555
C150_4 C151_4 1_555 1_555
O42_2 C167_4 1_555 1_555
C172_4 C173_4 1_555 1_555
C178_4 C179_4 1_555 1_555
Co19_3 O49_2 1_555 1_555
Co19 O48_2 1_555 1_555
O46 C180_5 1_555 1_555
O53 C180_5 1_555 1_555
C178_5 C177_5 1_555 1_555
H137_5 C178_5 1_555 1_555
H138_5 C179_5 1_555 1_555
C180_5 C177_5 1_555 1_555
C178_5 C179_5 1_555 1_555
O32_5 C152_5 1_555 1_555
O34_5 C139_5 1_555 1_555
C139_5 O55_2 1_555 1_555
C140_5 C139_5 1_555 1_555
C141_5 C140_5 1_555 1_555
H115_5 C141_5 1_555 1_555
C142_5 C141_5 1_555 1_555
H116_5 C142_5 1_555 1_555
C143_5 C142_5 1_555 1_555
C144_5 C143_5 1_555 1_555
H117_5 C144_5 1_555 1_555
C145_5 C140_5 1_555 1_555
H118_5 C145_5 1_555 1_555
C146_5 C143_5 1_555 1_555
C147_5 C146_5 1_555 1_555
H119_5 C147_5 1_555 1_555
C148_5 C147_5 1_555 1_555
H120_5 C148_5 1_555 1_555
C149_5 C148_5 1_555 1_555
C150_5 C149_5 1_555 1_555
H121_5 C150_5 1_555 1_555
C151_5 C146_5 1_555 1_555
H122_5 C151_5 1_555 1_555
C152_5 O48_2 1_555 1_555
C167_5 O58_2 1_555 1_555
C168_5 C167_5 1_555 1_555
C169_5 C168_5 1_555 1_555
H131_5 C169_5 1_555 1_555
C170_5 C169_5 1_555 1_555
H132_5 C170_5 1_555 1_555
C171_5 C170_5 1_555 1_555
C172_5 C171_5 1_555 1_555
H133_5 C172_5 1_555 1_555
C173_5 C168_5 1_555 1_555
H134_5 C173_5 1_555 1_555
C174_5 C171_5 1_555 1_555
C175_5 C174_5 1_555 1_555
H135_5 C175_5 1_555 1_555
C176_5 C175_5 1_555 1_555
H136_5 C176_5 1_555 1_555
O32_5 Co19 1_555 1_555
O34_5 Co13_2 1_555 1_555
C144_5 C145_5 1_555 1_555
C149_5 C152_5 1_555 1_555
C150_5 C151_5 1_555 1_555
O60_2 C167_5 1_555 1_555
C172_5 C173_5 1_555 1_555
O32_6 C152_6 1_555 1_555
O34_6 C139_6 1_555 1_555
C139_6 O56_2 1_555 1_555
C140_6 C139_6 1_555 1_555
C141_6 C140_6 1_555 1_555
H115_6 C141_6 1_555 1_555
C142_6 C141_6 1_555 1_555
H116_6 C142_6 1_555 1_555
C143_6 C142_6 1_555 1_555
C144_6 C143_6 1_555 1_555
H117_6 C144_6 1_555 1_555
C145_6 C140_6 1_555 1_555
H118_6 C145_6 1_555 1_555
C146_6 C143_6 1_555 1_555
C147_6 C146_6 1_555 1_555
H119_6 C147_6 1_555 1_555
C148_6 C147_6 1_555 1_555
H120_6 C148_6 1_555 1_555
C149_6 C148_6 1_555 1_555
C150_6 C149_6 1_555 1_555
H121_6 C150_6 1_555 1_555
C151_6 C146_6 1_555 1_555
H122_6 C151_6 1_555 1_555
C152_6 O49_2 1_555 1_555
C167_6 O57_2 1_555 1_555
C168_6 C167_6 1_555 1_555
C169_6 C168_6 1_555 1_555
H131_6 C169_6 1_555 1_555
C170_6 C169_6 1_555 1_555
H132_6 C170_6 1_555 1_555
C171_6 C170_6 1_555 1_555
C172_6 C171_6 1_555 1_555
H133_6 C172_6 1_555 1_555
C173_6 C168_6 1_555 1_555
H134_6 C173_6 1_555 1_555
C174_6 C171_6 1_555 1_555
C175_6 C174_6 1_555 1_555
H135_6 C175_6 1_555 1_555
C176_6 C175_6 1_555 1_555
H136_6 C176_6 1_555 1_555
O32_6 Co19_3 1_555 1_555
O34_6 Co14 1_555 1_555
C144_6 C145_6 1_555 1_555
C149_6 C152_6 1_555 1_555
C150_6 C151_6 1_555 1_555
O59_2 C167_6 1_555 1_555
C172_6 C173_6 1_555 1_555
O45 C180_6 1_555 1_555
O52 C180_6 1_555 1_555
C178_6 C177_6 1_555 1_555
H137_6 C178_6 1_555 1_555
H138_6 C179_6 1_555 1_555
C180_6 C177_6 1_555 1_555
C178_6 C179_6 1_555 1_555
O62 C31_3 1_555 1_555
O9_3 C31_3 1_555 1_555
C31_3 C32_3 1_555 1_555
C32_3 C33_3 1_555 1_555
C33_3 H24_3 1_555 1_555
C34_3 C33_3 1_555 1_555
H25_3 C34_3 1_555 1_555
C36_3 C35_3 1_555 1_555
C37_3 C32_3 1_555 1_555
H27_3 C37_3 1_555 1_555
N6_3 C44_3 1_555 1_555
C44_3 H32_3 1_555 1_555
C45_3 C44_3 1_555 1_555
H33_3 C45_3 1_555 1_555
C46_3 C45_3 1_555 1_555
C47_3 C46_3 1_555 1_555
C48_3 N6_3 1_555 1_555
H35_3 C48_3 1_555 1_555
Co19_2 N6_3 1_555 1_555
O24_3 Co19_2 1_555 1_555
O25_3 Co19_2 1_555 1_555
N9_3 C102_3 1_555 1_555
C81_3 O63_2 1_555 1_555
C82_3 C81_3 1_555 1_555
C83_3 C82_3 1_555 1_555
H59_3 C83_3 1_555 1_555
C84_3 C83_3 1_555 1_555
H60_3 C84_3 1_555 1_555
C85_3 C84_3 1_555 1_555
C86_3 C85_3 1_555 1_555
C87_3 C82_3 1_555 1_555
H62_3 C87_3 1_555 1_555
C102_3 O25_3 1_555 1_555
H71_3 C102_3 1_555 1_555
C103_3 N9_3 1_555 1_555
H72_3 C103_3 1_555 1_555
H73_3 C103_3 1_555 1_555
H74_3 C103_3 1_555 1_555
C104_3 N9_3 1_555 1_555
H75_3 C104_3 1_555 1_555
N13_3 C121_3 1_555 1_555
N14_3 C126_3 1_555 1_555
C121_3 H93_3 1_555 1_555
C122_3 C121_3 1_555 1_555
H94_3 C122_3 1_555 1_555
C123_3 C122_3 1_555 1_555
C124_3 C123_3 1_555 1_555
C125_3 N13_3 1_555 1_555
H96_3 C125_3 1_555 1_555
Co22 O9_3 1_555 1_555
O29_3 Co22 1_555 1_555
C133_3 O29_3 1_555 1_555
H101_3 C133_3 1_555 1_555
H102_3 C134_3 1_555 1_555
H104_3 C134_3 1_555 1_555
C34_3 C35_3 1_555 1_555
C36_3 C37_3 1_555 1_555
N7_3 C49_3 1_555 1_555
C46_3 C49_3 1_555 1_555
C47_3 C48_3 1_555 1_555
O24_3 C81_3 1_555 1_555
C86_3 C87_3 1_555 1_555
N13_3 Co22 1_555 1_555
C123_3 C126_3 1_555 1_555
C124_3 C125_3 1_555 1_555
C135_3 N17_3 1_555 1_555
H105_3 C135_3 1_555 1_555
O63 C105_3 1_555 1_555
O27_3 C105_3 1_555 1_555
C105_3 C106_3 1_555 1_555
C106_3 C107_3 1_555 1_555
C107_3 H78_3 1_555 1_555
C108_3 C107_3 1_555 1_555
H79_3 C108_3 1_555 1_555
C110_3 C109_3 1_555 1_555
C111_3 C106_3 1_555 1_555
H81_3 C111_3 1_555 1_555
N15_3 C127_3 1_555 1_555
C127_3 H97_3 1_555 1_555
C128_3 C127_3 1_555 1_555
C129_3 C128_3 1_555 1_555
C130_3 C129_3 1_555 1_555
C131_3 N15_3 1_555 1_555
H100_3 C131_3 1_555 1_555
Co23 O27_3 1_555 1_555
O30_3 Co23 1_555 1_555
C136_3 O30_3 1_555 1_555
H108_3 C136_3 1_555 1_555
H109_3 C137_3 1_555 1_555
H111_3 C137_3 1_555 1_555
C108_3 C109_3 1_555 1_555
C110_3 C111_3 1_555 1_555
N15_3 Co23 1_555 1_555
C129_3 C132_3 1_555 1_555
C130_3 C131_3 1_555 1_555
C138_3 N18_3 1_555 1_555
H112_3 C138_3 1_555 1_555
Co19_3 O6_3 1_555 1_555
O6_3 C1_3 1_555 1_555
O7_3 Co19_3 1_555 1_555
N1_3 Co19_3 1_555 1_555
N3_3 C28_3 1_555 1_555
C1_3 O61_2 1_555 1_555
C2_3 C1_3 1_555 1_555
C3_3 C2_3 1_555 1_555
H1_3 C3_3 1_555 1_555
C4_3 C3_3 1_555 1_555
H2_3 C4_3 1_555 1_555
C5_3 C4_3 1_555 1_555
C6_3 C5_3 1_555 1_555
C7_3 C2_3 1_555 1_555
H4_3 C7_3 1_555 1_555
C22_3 N1_3 1_555 1_555
H13_3 C22_3 1_555 1_555
C23_3 C22_3 1_555 1_555
C24_3 C23_3 1_555 1_555
C25_3 C24_3 1_555 1_555
C26_3 N1_3 1_555 1_555
H16_3 C26_3 1_555 1_555
C27_3 C24_3 1_555 1_555
C28_3 O7_3 1_555 1_555
H17_3 C28_3 1_555 1_555
C29_3 N3_3 1_555 1_555
H18_3 C29_3 1_555 1_555
H19_3 C29_3 1_555 1_555
H20_3 C29_3 1_555 1_555
C30_3 N3_3 1_555 1_555
H21_3 C30_3 1_555 1_555
C6_3 C7_3 1_555 1_555
C25_3 C26_3 1_555 1_555
N4_3 C38_3 1_555 1_555
C38_3 H28_3 1_555 1_555
C39_3 C38_3 1_555 1_555
C40_3 C39_3 1_555 1_555
C41_3 C40_3 1_555 1_555
H30_3 C41_3 1_555 1_555
C42_3 N4_3 1_555 1_555
H31_3 C42_3 1_555 1_555
C43_3 N2_3 1_555 1_555
Co19 N4_3 1_555 1_555
O15_3 Co19 1_555 1_555
O16_3 Co19 1_555 1_555
N8_3 C71_3 1_555 1_555
C50_3 O62_2 1_555 1_555
C51_3 C50_3 1_555 1_555
C52_3 C51_3 1_555 1_555
H36_3 C52_3 1_555 1_555
C53_3 C52_3 1_555 1_555
H37_3 C53_3 1_555 1_555
C54_3 C53_3 1_555 1_555
C55_3 C54_3 1_555 1_555
H38_3 C55_3 1_555 1_555
C56_3 C51_3 1_555 1_555
H39_3 C56_3 1_555 1_555
C71_3 O16_3 1_555 1_555
H48_3 C71_3 1_555 1_555
C72_3 N8_3 1_555 1_555
H49_3 C72_3 1_555 1_555
H50_3 C72_3 1_555 1_555
H51_3 C72_3 1_555 1_555
C73_3 N8_3 1_555 1_555
H52_3 C73_3 1_555 1_555
H53_3 C73_3 1_555 1_555
H54_3 C73_3 1_555 1_555
O61 C74_3 1_555 1_555
O18_3 C74_3 1_555 1_555
C74_3 C75_3 1_555 1_555
C75_3 C76_3 1_555 1_555
C76_3 H55_3 1_555 1_555
C77_3 C76_3 1_555 1_555
H56_3 C77_3 1_555 1_555
C78_3 C54_3 1_555 1_555
C79_3 C78_3 1_555 1_555
H57_3 C79_3 1_555 1_555
C80_3 C75_3 1_555 1_555
H58_3 C80_3 1_555 1_555
Co21 O18_3 1_555 1_555
O28_3 Co21 1_555 1_555
N10_3 Co21 1_555 1_555
C112_3 N10_3 1_555 1_555
H82_3 C112_3 1_555 1_555
C113_3 C112_3 1_555 1_555
C114_3 C113_3 1_555 1_555
C115_3 C114_3 1_555 1_555
H84_3 C115_3 1_555 1_555
C116_3 N10_3 1_555 1_555
H85_3 C116_3 1_555 1_555
C117_3 C114_3 1_555 1_555
C118_3 O28_3 1_555 1_555
H86_3 C118_3 1_555 1_555
H87_3 C119_3 1_555 1_555
H89_3 C119_3 1_555 1_555
N16_3 C117_3 1_555 1_555
C40_3 C43_3 1_555 1_555
C41_3 C42_3 1_555 1_555
O15_3 C50_3 1_555 1_555
C55_3 C56_3 1_555 1_555
C77_3 C78_3 1_555 1_555
C79_3 C80_3 1_555 1_555
C115_3 C116_3 1_555 1_555
C120_3 N12_3 1_555 1_555
H90_3 C120_3 1_555 1_555
H91_3 C120_3 1_555 1_555
H92_3 C120_3 1_555 1_555
O39_4 C180_7 1_555 1_555
O40_4 C180_7 1_555 1_555
C178_7 C177_7 1_555 1_555
H137_7 C178_7 1_555 1_555
H138_7 C179_7 1_555 1_555
C180_7 C177_7 1_555 1_555
Co20_4 O39_4 1_555 1_555
O39_4 Co13_3 1_555 1_555
O40_4 Co20_4 1_555 1_555
C178_7 C179_7 1_555 1_555
O1_2 C21_2 1_555 1_555
O2_2 C21_2 1_555 1_555
C11_2 C10_2 1_555 1_555
H6_2 C11_2 1_555 1_555
C12_2 C11_2 1_555 1_555
C13_2 C12_2 1_555 1_555
H7_2 C13_2 1_555 1_555
C15_2 C12_2 1_555 1_555
C16_2 C15_2 1_555 1_555
H9_2 C16_2 1_555 1_555
C17_2 C16_2 1_555 1_555
H10_2 C17_2 1_555 1_555
C18_2 C17_2 1_555 1_555
C19_2 C18_2 1_555 1_555
H11_2 C19_2 1_555 1_555
C20_2 C15_2 1_555 1_555
H12_2 C20_2 1_555 1_555
C21_2 C18_2 1_555 1_555
O37_4 C153_4 1_555 1_555
O38_4 C153_4 1_555 1_555
C153_4 C154_4 1_555 1_555
C159_4 C154_4 1_555 1_555
H126_4 C159_4 1_555 1_555
Co11_2 O1_2 1_555 1_555
Co17_2 O1_2 1_555 1_555
Co19_4 O37_4 1_555 1_555
O2_2 Co17_2 1_555 1_555
C19_2 C20_2 1_555 1_555
O38_4 Co11_2 1_555 1_555
H1_4 C3_4 1_555 1_555
C4_4 C3_4 1_555 1_555
H2_4 C4_4 1_555 1_555
C5_4 C4_4 1_555 1_555
C6_4 C5_4 1_555 1_555
H3_4 C6_4 1_555 1_555
O8_3 C31_4 1_555 1_555
O9_4 C31_4 1_555 1_555
C31_4 C32_4 1_555 1_555
C32_4 C33_4 1_555 1_555
C33_4 H24_4 1_555 1_555
C34_4 C33_4 1_555 1_555
H25_4 C34_4 1_555 1_555
C35_4 C5_4 1_555 1_555
C36_4 C35_4 1_555 1_555
H26_4 C36_4 1_555 1_555
C37_4 C32_4 1_555 1_555
H27_4 C37_4 1_555 1_555
H36_4 C52_4 1_555 1_555
C53_4 C52_4 1_555 1_555
H37_4 C53_4 1_555 1_555
C54_4 C53_4 1_555 1_555
C55_4 C54_4 1_555 1_555
H38_4 C55_4 1_555 1_555
O17_3 C74_4 1_555 1_555
O18_4 C74_4 1_555 1_555
C74_4 C75_4 1_555 1_555
C75_4 C76_4 1_555 1_555
C76_4 H55_4 1_555 1_555
C77_4 C76_4 1_555 1_555
H56_4 C77_4 1_555 1_555
C78_4 C54_4 1_555 1_555
C79_4 C78_4 1_555 1_555
H57_4 C79_4 1_555 1_555
C80_4 C75_4 1_555 1_555
H58_4 C80_4 1_555 1_555
H59_4 C83_4 1_555 1_555
C84_4 C83_4 1_555 1_555
H60_4 C84_4 1_555 1_555
C85_4 C84_4 1_555 1_555
C86_4 C85_4 1_555 1_555
H61_4 C86_4 1_555 1_555
O26_3 C105_4 1_555 1_555
O27_4 C105_4 1_555 1_555
C105_4 C106_4 1_555 1_555
C106_4 C107_4 1_555 1_555
C107_4 H78_4 1_555 1_555
C108_4 C107_4 1_555 1_555
H79_4 C108_4 1_555 1_555
C109_4 C85_4 1_555 1_555
C110_4 C109_4 1_555 1_555
H80_4 C110_4 1_555 1_555
C111_4 C106_4 1_555 1_555
H81_4 C111_4 1_555 1_555
Co7_2 O18_4 1_555 1_555
O28_4 Co7_2 1_555 1_555
N10_4 Co7_2 1_555 1_555
N11_4 C117_4 1_555 1_555
N12_4 C118_4 1_555 1_555
C112_4 N10_4 1_555 1_555
H82_4 C112_4 1_555 1_555
C113_4 C112_4 1_555 1_555
H83_4 C113_4 1_555 1_555
C114_4 C113_4 1_555 1_555
C115_4 C114_4 1_555 1_555
H84_4 C115_4 1_555 1_555
C116_4 N10_4 1_555 1_555
H85_4 C116_4 1_555 1_555
C117_4 C114_4 1_555 1_555
C118_4 O28_4 1_555 1_555
H86_4 C118_4 1_555 1_555
C119_4 N12_4 1_555 1_555
H87_4 C119_4 1_555 1_555
H88_4 C119_4 1_555 1_555
H89_4 C119_4 1_555 1_555
C120_4 N12_4 1_555 1_555
H90_4 C120_4 1_555 1_555
H91_4 C120_4 1_555 1_555
H92_4 C120_4 1_555 1_555
N13_4 C121_4 1_555 1_555
N14_4 C126_4 1_555 1_555
C121_4 H93_4 1_555 1_555
C122_4 C121_4 1_555 1_555
H94_4 C122_4 1_555 1_555
C123_4 C122_4 1_555 1_555
C124_4 C123_4 1_555 1_555
H95_4 C124_4 1_555 1_555
C125_4 N13_4 1_555 1_555
H96_4 C125_4 1_555 1_555
C126_4 N11_4 1_555 1_555
N15_4 C127_4 1_555 1_555
N16_4 C117_4 1_555 1_555
C127_4 H97_4 1_555 1_555
C128_4 C127_4 1_555 1_555
H98_4 C128_4 1_555 1_555
C129_4 C128_4 1_555 1_555
C130_4 C129_4 1_555 1_555
H99_4 C130_4 1_555 1_555
C131_4 N15_4 1_555 1_555
H100_4 C131_4 1_555 1_555
C132_4 N14_4 1_555 1_555
Co8_2 O9_4 1_555 1_555
O29_4 Co8_2 1_555 1_555
N17_4 C133_4 1_555 1_555
C133_4 O29_4 1_555 1_555
H101_4 C133_4 1_555 1_555
C134_4 N17_4 1_555 1_555
H102_4 C134_4 1_555 1_555
H103_4 C134_4 1_555 1_555
H104_4 C134_4 1_555 1_555
C135_4 N17_4 1_555 1_555
H105_4 C135_4 1_555 1_555
H106_4 C135_4 1_555 1_555
H107_4 C135_4 1_555 1_555
Co9_2 O27_4 1_555 1_555
O30_4 Co9_2 1_555 1_555
N18_4 C136_4 1_555 1_555
C136_4 O30_4 1_555 1_555
H108_4 C136_4 1_555 1_555
C137_4 N18_4 1_555 1_555
H109_4 C137_4 1_555 1_555
H110_4 C137_4 1_555 1_555
H111_4 C137_4 1_555 1_555
C138_4 N18_4 1_555 1_555
H112_4 C138_4 1_555 1_555
H113_4 C138_4 1_555 1_555
H114_4 C138_4 1_555 1_555
O32_7 C152_7 1_555 1_555
O33_3 Co7_2 1_555 1_555
O34_7 C139_7 1_555 1_555
C139_7 O33_3 1_555 1_555
C140_7 C139_7 1_555 1_555
C141_7 C140_7 1_555 1_555
H115_7 C141_7 1_555 1_555
C142_7 C141_7 1_555 1_555
H116_7 C142_7 1_555 1_555
C143_7 C142_7 1_555 1_555
C144_7 C143_7 1_555 1_555
H117_7 C144_7 1_555 1_555
C145_7 C140_7 1_555 1_555
H118_7 C145_7 1_555 1_555
C146_7 C143_7 1_555 1_555
C147_7 C146_7 1_555 1_555
H119_7 C147_7 1_555 1_555
C148_7 C147_7 1_555 1_555
H120_7 C148_7 1_555 1_555
C149_7 C148_7 1_555 1_555
C150_7 C149_7 1_555 1_555
H121_7 C150_7 1_555 1_555
C151_7 C146_7 1_555 1_555
H122_7 C151_7 1_555 1_555
H132_7 C170_7 1_555 1_555
C171_7 C170_7 1_555 1_555
C172_7 C171_7 1_555 1_555
H133_7 C172_7 1_555 1_555
C174_7 C171_7 1_555 1_555
C175_7 C174_7 1_555 1_555
H135_7 C175_7 1_555 1_555
C176_7 C175_7 1_555 1_555
H136_7 C176_7 1_555 1_555
Co13_4 O17_3 1_555 1_555
Co14_3 O8_3 1_555 1_555
Co15_2 O26_3 1_555 1_555
O45_2 Co8_2 1_555 1_555
O46_2 Co7_2 1_555 1_555
O47_2 Co9_2 1_555 1_555
O52_2 Co8_2 1_555 1_555
O53_2 Co7_2 1_555 1_555
O54_2 Co9_2 1_555 1_555
O55_3 Co9_2 1_555 1_555
O56_3 Co8_2 1_555 1_555
C34_4 C35_4 1_555 1_555
C36_4 C37_4 1_555 1_555
C77_4 C78_4 1_555 1_555
C79_4 C80_4 1_555 1_555
C108_4 C109_4 1_555 1_555
C110_4 C111_4 1_555 1_555
C115_4 C116_4 1_555 1_555
N13_4 Co8_2 1_555 1_555
C123_4 C126_4 1_555 1_555
C124_4 C125_4 1_555 1_555
N15_4 Co9_2 1_555 1_555
N16_4 C132_4 1_555 1_555
C129_4 C132_4 1_555 1_555
C130_4 C131_4 1_555 1_555
O34_7 Co13_4 1_555 1_555
C144_7 C145_7 1_555 1_555
C149_7 C152_7 1_555 1_555
C150_7 C151_7 1_555 1_555
Co13_4 O46_2 1_555 1_555
Co14_3 O45_2 1_555 1_555
Co15_2 O47_2 1_555 1_555
Co1_2 O4_2 1_555 1_555
Co2_2 O6_4 1_555 1_555
O3_2 C8_2 1_555 1_555
O4_2 C8_2 1_555 1_555
O5_3 Co1_2 1_555 1_555
O6_4 C1_4 1_555 1_555
O7_4 Co2_2 1_555 1_555
N1_4 Co2_2 1_555 1_555
N2_4 C27_4 1_555 1_555
N3_4 C28_4 1_555 1_555
C1_4 O5_3 1_555 1_555
C2_4 C1_4 1_555 1_555
C7_4 C2_4 1_555 1_555
H4_4 C7_4 1_555 1_555
C8_2 C9_2 1_555 1_555
C14_2 C9_2 1_555 1_555
H8_2 C14_2 1_555 1_555
C22_4 N1_4 1_555 1_555
H13_4 C22_4 1_555 1_555
C23_4 C22_4 1_555 1_555
H14_4 C23_4 1_555 1_555
C24_4 C23_4 1_555 1_555
C25_4 C24_4 1_555 1_555
H15_4 C25_4 1_555 1_555
C26_4 N1_4 1_555 1_555
H16_4 C26_4 1_555 1_555
C27_4 C24_4 1_555 1_555
C28_4 O7_4 1_555 1_555
H17_4 C28_4 1_555 1_555
C29_4 N3_4 1_555 1_555
H18_4 C29_4 1_555 1_555
H19_4 C29_4 1_555 1_555
H20_4 C29_4 1_555 1_555
C30_4 N3_4 1_555 1_555
H21_4 C30_4 1_555 1_555
H22_4 C30_4 1_555 1_555
H23_4 C30_4 1_555 1_555
N4_4 C38_4 1_555 1_555
N5_4 C43_4 1_555 1_555
C38_4 H28_4 1_555 1_555
C39_4 C38_4 1_555 1_555
H29_4 C39_4 1_555 1_555
C40_4 C39_4 1_555 1_555
C41_4 C40_4 1_555 1_555
H30_4 C41_4 1_555 1_555
C42_4 N4_4 1_555 1_555
H31_4 C42_4 1_555 1_555
C43_4 N2_4 1_555 1_555
N6_4 C44_4 1_555 1_555
N7_4 C27_4 1_555 1_555
C44_4 H32_4 1_555 1_555
C45_4 C44_4 1_555 1_555
H33_4 C45_4 1_555 1_555
C46_4 C45_4 1_555 1_555
C47_4 C46_4 1_555 1_555
H34_4 C47_4 1_555 1_555
C48_4 N6_4 1_555 1_555
H35_4 C48_4 1_555 1_555
C49_4 N5_4 1_555 1_555
Co3_2 O13_2 1_555 1_555
Co4_2 N4_4 1_555 1_555
O10_2 C70_2 1_555 1_555
O11_2 C70_2 1_555 1_555
O12_2 C57_2 1_555 1_555
O13_2 C57_2 1_555 1_555
O14_3 Co3_2 1_555 1_555
O15_4 Co4_2 1_555 1_555
O16_4 Co4_2 1_555 1_555
N8_4 C71_4 1_555 1_555
C50_4 O14_3 1_555 1_555
C51_4 C50_4 1_555 1_555
C56_4 C51_4 1_555 1_555
H39_4 C56_4 1_555 1_555
C57_2 C58_2 1_555 1_555
C58_2 C59_2 1_555 1_555
C59_2 H40_2 1_555 1_555
C60_2 C59_2 1_555 1_555
H41_2 C60_2 1_555 1_555
C61_2 C60_2 1_555 1_555
C62_2 C61_2 1_555 1_555
H42_2 C62_2 1_555 1_555
C63_2 C58_2 1_555 1_555
H43_2 C63_2 1_555 1_555
C64_2 C61_2 1_555 1_555
C65_2 C64_2 1_555 1_555
H44_2 C65_2 1_555 1_555
C66_2 C65_2 1_555 1_555
H45_2 C66_2 1_555 1_555
C67_2 C66_2 1_555 1_555
C68_2 C67_2 1_555 1_555
H46_2 C68_2 1_555 1_555
C69_2 C64_2 1_555 1_555
H47_2 C69_2 1_555 1_555
C70_2 C67_2 1_555 1_555
C71_4 O16_4 1_555 1_555
H48_4 C71_4 1_555 1_555
C72_4 N8_4 1_555 1_555
H49_4 C72_4 1_555 1_555
H50_4 C72_4 1_555 1_555
H51_4 C72_4 1_555 1_555
C73_4 N8_4 1_555 1_555
H52_4 C73_4 1_555 1_555
H53_4 C73_4 1_555 1_555
H54_4 C73_4 1_555 1_555
Co5_2 O22_2 1_555 1_555
Co6_2 N6_4 1_555 1_555
O21_2 C88_2 1_555 1_555
O22_2 C88_2 1_555 1_555
O23_3 Co5_2 1_555 1_555
O24_4 Co6_2 1_555 1_555
O25_4 Co6_2 1_555 1_555
N9_4 C102_4 1_555 1_555
C81_4 O23_3 1_555 1_555
C82_4 C81_4 1_555 1_555
C87_4 C82_4 1_555 1_555
H62_4 C87_4 1_555 1_555
C88_2 C89_2 1_555 1_555
C94_2 C89_2 1_555 1_555
H66_2 C94_2 1_555 1_555
C102_4 O25_4 1_555 1_555
H71_4 C102_4 1_555 1_555
C103_4 N9_4 1_555 1_555
H72_4 C103_4 1_555 1_555
H73_4 C103_4 1_555 1_555
H74_4 C103_4 1_555 1_555
C104_4 N9_4 1_555 1_555
H75_4 C104_4 1_555 1_555
H76_4 C104_4 1_555 1_555
H77_4 C104_4 1_555 1_555
O31_3 Co1_2 1_555 1_555
O35_2 Co1_2 1_555 1_555
O36_2 Co2_2 1_555 1_555
C156_4 C155_4 1_555 1_555
H124_4 C156_4 1_555 1_555
C157_4 C156_4 1_555 1_555
C158_4 C157_4 1_555 1_555
H125_4 C158_4 1_555 1_555
C160_4 C157_4 1_555 1_555
C161_4 C160_4 1_555 1_555
H127_4 C161_4 1_555 1_555
C162_4 C161_4 1_555 1_555
H128_4 C162_4 1_555 1_555
C163_4 C162_4 1_555 1_555
C164_4 C163_4 1_555 1_555
H129_4 C164_4 1_555 1_555
C165_4 C160_4 1_555 1_555
H130_4 C165_4 1_555 1_555
C166_4 O35_2 1_555 1_555
O41_3 Co2_2 1_555 1_555
O42_3 Co1_2 1_555 1_555
C167_7 O41_3 1_555 1_555
C168_7 C167_7 1_555 1_555
C169_7 C168_7 1_555 1_555
H131_7 C169_7 1_555 1_555
C173_7 C168_7 1_555 1_555
H134_7 C173_7 1_555 1_555
Co10_2 O10_2 1_555 1_555
Co16_2 O10_2 1_555 1_555
Co21_2 O21_2 1_555 1_555
Co22_2 O12_2 1_555 1_555
Co23_2 O3_2 1_555 1_555
O43_2 Co3_2 1_555 1_555
O44_2 Co5_2 1_555 1_555
O48_3 Co3_2 1_555 1_555
O49_3 Co5_2 1_555 1_555
O50_2 Co4_2 1_555 1_555
O51_2 Co6_2 1_555 1_555
O57_3 Co6_2 1_555 1_555
O58_3 Co4_2 1_555 1_555
O59_3 Co5_2 1_555 1_555
O60_3 Co3_2 1_555 1_555
O61_3 Co5_2 1_555 1_555
O62_3 Co3_2 1_555 1_555
O63_3 Co1_2 1_555 1_555
Co2_2 O35_2 1_555 1_555
C25_4 C26_4 1_555 1_555
C40_4 C43_4 1_555 1_555
C41_4 C42_4 1_555 1_555
N7_4 C49_4 1_555 1_555
C46_4 C49_4 1_555 1_555
C47_4 C48_4 1_555 1_555
Co4_2 O43_2 1_555 1_555
O11_2 Co16_2 1_555 1_555
O15_4 C50_4 1_555 1_555
C62_2 C63_2 1_555 1_555
C68_2 C69_2 1_555 1_555
Co6_2 O44_2 1_555 1_555
O24_4 C81_4 1_555 1_555
O31_3 Co23_2 1_555 1_555
O36_2 C166_4 1_555 1_555
C163_4 C166_4 1_555 1_555
C164_4 C165_4 1_555 1_555
O42_3 C167_7 1_555 1_555
Co21_2 O49_3 1_555 1_555
Co22_2 O48_3 1_555 1_555
O19_2 C101_2 1_555 1_555
O20_2 C101_2 1_555 1_555
C91_2 C90_2 1_555 1_555
H64_2 C91_2 1_555 1_555
C92_2 C91_2 1_555 1_555
C93_2 C92_2 1_555 1_555
H65_2 C93_2 1_555 1_555
C95_2 C92_2 1_555 1_555
C96_2 C95_2 1_555 1_555
H67_2 C96_2 1_555 1_555
C97_2 C96_2 1_555 1_555
H68_2 C97_2 1_555 1_555
C98_2 C97_2 1_555 1_555
C99_2 C98_2 1_555 1_555
H69_2 C99_2 1_555 1_555
C100_2 C95_2 1_555 1_555
H70_2 C100_2 1_555 1_555
C101_2 C98_2 1_555 1_555
Co12_2 O19_2 1_555 1_555
Co18_2 O19_2 1_555 1_555
O20_2 Co18_2 1_555 1_555
C99_2 C100_2 1_555 1_555
O32_8 C152_8 1_555 1_555
O34_8 C139_8 1_555 1_555
C139_8 O55_3 1_555 1_555
C140_8 C139_8 1_555 1_555
C141_8 C140_8 1_555 1_555
H115_8 C141_8 1_555 1_555
C142_8 C141_8 1_555 1_555
H116_8 C142_8 1_555 1_555
C143_8 C142_8 1_555 1_555
C144_8 C143_8 1_555 1_555
H117_8 C144_8 1_555 1_555
C145_8 C140_8 1_555 1_555
H118_8 C145_8 1_555 1_555
C146_8 C143_8 1_555 1_555
C147_8 C146_8 1_555 1_555
H119_8 C147_8 1_555 1_555
C148_8 C147_8 1_555 1_555
H120_8 C148_8 1_555 1_555
C149_8 C148_8 1_555 1_555
C150_8 C149_8 1_555 1_555
H121_8 C150_8 1_555 1_555
C151_8 C146_8 1_555 1_555
H122_8 C151_8 1_555 1_555
O39_5 C180_8 1_555 1_555
O40_5 C180_8 1_555 1_555
H132_8 C170_8 1_555 1_555
C171_8 C170_8 1_555 1_555
C172_8 C171_8 1_555 1_555
H133_8 C172_8 1_555 1_555
C174_8 C171_8 1_555 1_555
C175_8 C174_8 1_555 1_555
H135_8 C175_8 1_555 1_555
C176_8 C175_8 1_555 1_555
H136_8 C176_8 1_555 1_555
C177_8 C176_8 1_555 1_555
C178_8 C177_8 1_555 1_555
H137_8 C178_8 1_555 1_555
C179_8 C174_8 1_555 1_555
H138_8 C179_8 1_555 1_555
C180_8 C177_8 1_555 1_555
Co20_5 O39_5 1_555 1_555
O34_8 Co15_2 1_555 1_555
C144_8 C145_8 1_555 1_555
C149_8 C152_8 1_555 1_555
C150_8 C151_8 1_555 1_555
O39_5 Co15_2 1_555 1_555
O40_5 Co20_5 1_555 1_555
C178_8 C179_8 1_555 1_555
O37_5 C153_5 1_555 1_555
O38_5 C153_5 1_555 1_555
C153_5 C154_5 1_555 1_555
C154_5 C155_5 1_555 1_555
C155_5 H123_5 1_555 1_555
C156_5 C155_5 1_555 1_555
H124_5 C156_5 1_555 1_555
C157_5 C156_5 1_555 1_555
C158_5 C157_5 1_555 1_555
H125_5 C158_5 1_555 1_555
C159_5 C154_5 1_555 1_555
H126_5 C159_5 1_555 1_555
C160_5 C157_5 1_555 1_555
C161_5 C160_5 1_555 1_555
H127_5 C161_5 1_555 1_555
C162_5 C161_5 1_555 1_555
H128_5 C162_5 1_555 1_555
C163_5 C162_5 1_555 1_555
C164_5 C163_5 1_555 1_555
H129_5 C164_5 1_555 1_555
C165_5 C160_5 1_555 1_555
H130_5 C165_5 1_555 1_555
C166_5 O43_2 1_555 1_555
C167_8 O58_3 1_555 1_555
C168_8 C167_8 1_555 1_555
C169_8 C168_8 1_555 1_555
H131_8 C169_8 1_555 1_555
C173_8 C168_8 1_555 1_555
H134_8 C173_8 1_555 1_555
Co19_5 O37_5 1_555 1_555
O50_2 C166_5 1_555 1_555
O38_5 Co10_2 1_555 1_555
C158_5 C159_5 1_555 1_555
C163_5 C166_5 1_555 1_555
C164_5 C165_5 1_555 1_555
O60_3 C167_8 1_555 1_555
O32_9 C152_9 1_555 1_555
O34_9 C139_9 1_555 1_555
C139_9 O56_3 1_555 1_555
C140_9 C139_9 1_555 1_555
C141_9 C140_9 1_555 1_555
H115_9 C141_9 1_555 1_555
C142_9 C141_9 1_555 1_555
H116_9 C142_9 1_555 1_555
C143_9 C142_9 1_555 1_555
C144_9 C143_9 1_555 1_555
H117_9 C144_9 1_555 1_555
C145_9 C140_9 1_555 1_555
H118_9 C145_9 1_555 1_555
C146_9 C143_9 1_555 1_555
C147_9 C146_9 1_555 1_555
H119_9 C147_9 1_555 1_555
C148_9 C147_9 1_555 1_555
H120_9 C148_9 1_555 1_555
C149_9 C148_9 1_555 1_555
C150_9 C149_9 1_555 1_555
H121_9 C150_9 1_555 1_555
C151_9 C146_9 1_555 1_555
H122_9 C151_9 1_555 1_555
H132_9 C170_9 1_555 1_555
C171_9 C170_9 1_555 1_555
C172_9 C171_9 1_555 1_555
H133_9 C172_9 1_555 1_555
C174_9 C171_9 1_555 1_555
C175_9 C174_9 1_555 1_555
H135_9 C175_9 1_555 1_555
C176_9 C175_9 1_555 1_555
H136_9 C176_9 1_555 1_555
O34_9 Co14_3 1_555 1_555
C144_9 C145_9 1_555 1_555
C149_9 C152_9 1_555 1_555
C150_9 C151_9 1_555 1_555
C156_6 C155_6 1_555 1_555
H124_6 C156_6 1_555 1_555
C157_6 C156_6 1_555 1_555
C158_6 C157_6 1_555 1_555
H125_6 C158_6 1_555 1_555
C160_6 C157_6 1_555 1_555
C161_6 C160_6 1_555 1_555
H127_6 C161_6 1_555 1_555
C162_6 C161_6 1_555 1_555
H128_6 C162_6 1_555 1_555
C163_6 C162_6 1_555 1_555
C164_6 C163_6 1_555 1_555
H129_6 C164_6 1_555 1_555
C165_6 C160_6 1_555 1_555
H130_6 C165_6 1_555 1_555
C166_6 O44_2 1_555 1_555
C167_9 O57_3 1_555 1_555
C168_9 C167_9 1_555 1_555
C169_9 C168_9 1_555 1_555
H131_9 C169_9 1_555 1_555
C173_9 C168_9 1_555 1_555
H134_9 C173_9 1_555 1_555
O51_2 C166_6 1_555 1_555
C163_6 C166_6 1_555 1_555
C164_6 C165_6 1_555 1_555
O59_3 C167_9 1_555 1_555
O39_6 C180_9 1_555 1_555
O40_6 C180_9 1_555 1_555
C178_9 C177_9 1_555 1_555
H137_9 C178_9 1_555 1_555
H138_9 C179_9 1_555 1_555
C180_9 C177_9 1_555 1_555
Co20_6 O39_6 1_555 1_555
O39_6 Co14_4 1_555 1_555
O40_6 Co20_6 1_555 1_555
C178_9 C179_9 1_555 1_555
O37_6 C153_6 1_555 1_555
O38_6 C153_6 1_555 1_555
C153_6 C154_6 1_555 1_555
C159_6 C154_6 1_555 1_555
H126_6 C159_6 1_555 1_555
Co19_6 O37_6 1_555 1_555
O38_6 Co12_2 1_555 1_555
Co16_2 O6_5 1_555 1_555
O5_4 Co10_2 1_555 1_555
O6_5 C1_5 1_555 1_555
O7_5 Co16_2 1_555 1_555
N1_5 Co16_2 1_555 1_555
N2_5 C27_5 1_555 1_555
N3_5 C28_5 1_555 1_555
C1_5 O5_4 1_555 1_555
C2_5 C1_5 1_555 1_555
C3_5 C2_5 1_555 1_555
H1_5 C3_5 1_555 1_555
C4_5 C3_5 1_555 1_555
H2_5 C4_5 1_555 1_555
C5_5 C4_5 1_555 1_555
C6_5 C5_5 1_555 1_555
H3_5 C6_5 1_555 1_555
C7_5 C2_5 1_555 1_555
H4_5 C7_5 1_555 1_555
C22_5 N1_5 1_555 1_555
H13_5 C22_5 1_555 1_555
C23_5 C22_5 1_555 1_555
H14_5 C23_5 1_555 1_555
C24_5 C23_5 1_555 1_555
C25_5 C24_5 1_555 1_555
H15_5 C25_5 1_555 1_555
C26_5 N1_5 1_555 1_555
H16_5 C26_5 1_555 1_555
C27_5 C24_5 1_555 1_555
C28_5 O7_5 1_555 1_555
H17_5 C28_5 1_555 1_555
C29_5 N3_5 1_555 1_555
H18_5 C29_5 1_555 1_555
H19_5 C29_5 1_555 1_555
H20_5 C29_5 1_555 1_555
C30_5 N3_5 1_555 1_555
H21_5 C30_5 1_555 1_555
H22_5 C30_5 1_555 1_555
H23_5 C30_5 1_555 1_555
O8_4 C31_5 1_555 1_555
O9_5 C31_5 1_555 1_555
C31_5 C32_5 1_555 1_555
C32_5 C33_5 1_555 1_555
C33_5 H24_5 1_555 1_555
C34_5 C33_5 1_555 1_555
H25_5 C34_5 1_555 1_555
C35_5 C5_5 1_555 1_555
C36_5 C35_5 1_555 1_555
H26_5 C36_5 1_555 1_555
C37_5 C32_5 1_555 1_555
H27_5 C37_5 1_555 1_555
N4_5 C38_5 1_555 1_555
N5_5 C43_5 1_555 1_555
C38_5 H28_5 1_555 1_555
C39_5 C38_5 1_555 1_555
H29_5 C39_5 1_555 1_555
C40_5 C39_5 1_555 1_555
C41_5 C40_5 1_555 1_555
H30_5 C41_5 1_555 1_555
C42_5 N4_5 1_555 1_555
H31_5 C42_5 1_555 1_555
C43_5 N2_5 1_555 1_555
N6_5 C44_5 1_555 1_555
N7_5 C27_5 1_555 1_555
C44_5 H32_5 1_555 1_555
C45_5 C44_5 1_555 1_555
H33_5 C45_5 1_555 1_555
C46_5 C45_5 1_555 1_555
C47_5 C46_5 1_555 1_555
H34_5 C47_5 1_555 1_555
C48_5 N6_5 1_555 1_555
H35_5 C48_5 1_555 1_555
C49_5 N5_5 1_555 1_555
Co17_2 N4_5 1_555 1_555
O14_4 Co11_2 1_555 1_555
O15_5 Co17_2 1_555 1_555
O16_5 Co17_2 1_555 1_555
N8_5 C71_5 1_555 1_555
C50_5 O14_4 1_555 1_555
C51_5 C50_5 1_555 1_555
C52_5 C51_5 1_555 1_555
H36_5 C52_5 1_555 1_555
C53_5 C52_5 1_555 1_555
H37_5 C53_5 1_555 1_555
C54_5 C53_5 1_555 1_555
C55_5 C54_5 1_555 1_555
H38_5 C55_5 1_555 1_555
C56_5 C51_5 1_555 1_555
H39_5 C56_5 1_555 1_555
C71_5 O16_5 1_555 1_555
H48_5 C71_5 1_555 1_555
C72_5 N8_5 1_555 1_555
H49_5 C72_5 1_555 1_555
H50_5 C72_5 1_555 1_555
H51_5 C72_5 1_555 1_555
C73_5 N8_5 1_555 1_555
H52_5 C73_5 1_555 1_555
H53_5 C73_5 1_555 1_555
H54_5 C73_5 1_555 1_555
O17_4 C74_5 1_555 1_555
O18_5 C74_5 1_555 1_555
C74_5 C75_5 1_555 1_555
C75_5 C76_5 1_555 1_555
C76_5 H55_5 1_555 1_555
C77_5 C76_5 1_555 1_555
H56_5 C77_5 1_555 1_555
C78_5 C54_5 1_555 1_555
C79_5 C78_5 1_555 1_555
H57_5 C79_5 1_555 1_555
C80_5 C75_5 1_555 1_555
H58_5 C80_5 1_555 1_555
Co18_2 N6_5 1_555 1_555
O23_4 Co12_2 1_555 1_555
O24_5 Co18_2 1_555 1_555
O25_5 Co18_2 1_555 1_555
N9_5 C102_5 1_555 1_555
C81_5 O23_4 1_555 1_555
C82_5 C81_5 1_555 1_555
C83_5 C82_5 1_555 1_555
H59_5 C83_5 1_555 1_555
C84_5 C83_5 1_555 1_555
H60_5 C84_5 1_555 1_555
C85_5 C84_5 1_555 1_555
C86_5 C85_5 1_555 1_555
H61_5 C86_5 1_555 1_555
C87_5 C82_5 1_555 1_555
H62_5 C87_5 1_555 1_555
C102_5 O25_5 1_555 1_555
H71_5 C102_5 1_555 1_555
C103_5 N9_5 1_555 1_555
H72_5 C103_5 1_555 1_555
H73_5 C103_5 1_555 1_555
H74_5 C103_5 1_555 1_555
C104_5 N9_5 1_555 1_555
H75_5 C104_5 1_555 1_555
H76_5 C104_5 1_555 1_555
H77_5 C104_5 1_555 1_555
O26_4 C105_5 1_555 1_555
O27_5 C105_5 1_555 1_555
C105_5 C106_5 1_555 1_555
C106_5 C107_5 1_555 1_555
C107_5 H78_5 1_555 1_555
C108_5 C107_5 1_555 1_555
H79_5 C108_5 1_555 1_555
C109_5 C85_5 1_555 1_555
C110_5 C109_5 1_555 1_555
H80_5 C110_5 1_555 1_555
C111_5 C106_5 1_555 1_555
H81_5 C111_5 1_555 1_555
Co20_5 O18_5 1_555 1_555
O28_5 Co20_5 1_555 1_555
N10_5 Co20_5 1_555 1_555
N11_5 C117_5 1_555 1_555
N12_5 C118_5 1_555 1_555
C112_5 N10_5 1_555 1_555
H82_5 C112_5 1_555 1_555
C113_5 C112_5 1_555 1_555
H83_5 C113_5 1_555 1_555
C114_5 C113_5 1_555 1_555
C115_5 C114_5 1_555 1_555
H84_5 C115_5 1_555 1_555
C116_5 N10_5 1_555 1_555
H85_5 C116_5 1_555 1_555
C117_5 C114_5 1_555 1_555
C118_5 O28_5 1_555 1_555
H86_5 C118_5 1_555 1_555
C119_5 N12_5 1_555 1_555
H87_5 C119_5 1_555 1_555
H88_5 C119_5 1_555 1_555
H89_5 C119_5 1_555 1_555
C120_5 N12_5 1_555 1_555
H90_5 C120_5 1_555 1_555
H91_5 C120_5 1_555 1_555
H92_5 C120_5 1_555 1_555
N13_5 C121_5 1_555 1_555
N14_5 C126_5 1_555 1_555
C121_5 H93_5 1_555 1_555
C122_5 C121_5 1_555 1_555
H94_5 C122_5 1_555 1_555
C123_5 C122_5 1_555 1_555
C124_5 C123_5 1_555 1_555
H95_5 C124_5 1_555 1_555
C125_5 N13_5 1_555 1_555
H96_5 C125_5 1_555 1_555
C126_5 N11_5 1_555 1_555
N15_5 C127_5 1_555 1_555
N16_5 C117_5 1_555 1_555
C127_5 H97_5 1_555 1_555
C128_5 C127_5 1_555 1_555
H98_5 C128_5 1_555 1_555
C129_5 C128_5 1_555 1_555
C130_5 C129_5 1_555 1_555
H99_5 C130_5 1_555 1_555
C131_5 N15_5 1_555 1_555
H100_5 C131_5 1_555 1_555
C132_5 N14_5 1_555 1_555
Co20_6 O9_5 1_555 1_555
O29_5 Co20_6 1_555 1_555
N17_5 C133_5 1_555 1_555
C133_5 O29_5 1_555 1_555
H101_5 C133_5 1_555 1_555
C134_5 N17_5 1_555 1_555
H102_5 C134_5 1_555 1_555
H103_5 C134_5 1_555 1_555
H104_5 C134_5 1_555 1_555
C135_5 N17_5 1_555 1_555
H105_5 C135_5 1_555 1_555
H106_5 C135_5 1_555 1_555
H107_5 C135_5 1_555 1_555
Co20_4 O27_5 1_555 1_555
O30_5 Co20_4 1_555 1_555
N18_5 C136_5 1_555 1_555
C136_5 O30_5 1_555 1_555
H108_5 C136_5 1_555 1_555
C137_5 N18_5 1_555 1_555
H109_5 C137_5 1_555 1_555
H110_5 C137_5 1_555 1_555
H111_5 C137_5 1_555 1_555
C138_5 N18_5 1_555 1_555
H112_5 C138_5 1_555 1_555
H113_5 C138_5 1_555 1_555
H114_5 C138_5 1_555 1_555
O31_4 Co10_2 1_555 1_555
O32_10 C152_10 1_555 1_555
O33_4 Co20_5 1_555 1_555
O34_10 C139_10 1_555 1_555
C139_10 O33_4 1_555 1_555
C140_10 C139_10 1_555 1_555
C141_10 C140_10 1_555 1_555
H115_10 C141_10 1_555 1_555
C142_10 C141_10 1_555 1_555
H116_10 C142_10 1_555 1_555
C143_10 C142_10 1_555 1_555
C144_10 C143_10 1_555 1_555
H117_10 C144_10 1_555 1_555
C145_10 C140_10 1_555 1_555
H118_10 C145_10 1_555 1_555
C146_10 C143_10 1_555 1_555
C147_10 C146_10 1_555 1_555
H119_10 C147_10 1_555 1_555
C148_10 C147_10 1_555 1_555
H120_10 C148_10 1_555 1_555
C149_10 C148_10 1_555 1_555
C150_10 C149_10 1_555 1_555
H121_10 C150_10 1_555 1_555
C151_10 C146_10 1_555 1_555
H122_10 C151_10 1_555 1_555
C152_10 O31_4 1_555 1_555
O47_2 C180_10 1_555 1_555
O54_2 C180_10 1_555 1_555
O41_4 Co16_2 1_555 1_555
O42_4 Co10_2 1_555 1_555
C167_10 O41_4 1_555 1_555
C168_10 C167_10 1_555 1_555
C169_10 C168_10 1_555 1_555
H131_10 C169_10 1_555 1_555
C170_10 C169_10 1_555 1_555
H132_10 C170_10 1_555 1_555
C171_10 C170_10 1_555 1_555
C172_10 C171_10 1_555 1_555
H133_10 C172_10 1_555 1_555
C173_10 C168_10 1_555 1_555
H134_10 C173_10 1_555 1_555
C174_10 C171_10 1_555 1_555
C175_10 C174_10 1_555 1_555
H135_10 C175_10 1_555 1_555
C176_10 C175_10 1_555 1_555
H136_10 C176_10 1_555 1_555
C177_10 C176_10 1_555 1_555
C178_10 C177_10 1_555 1_555
H137_10 C178_10 1_555 1_555
C179_10 C174_10 1_555 1_555
H138_10 C179_10 1_555 1_555
C180_10 C177_10 1_555 1_555
Co15_2 O17_4 1_555 1_555
Co14_4 O8_4 1_555 1_555
Co13_3 O26_4 1_555 1_555
O48_4 Co11_2 1_555 1_555
O49_4 Co12_2 1_555 1_555
O55_4 Co20_4 1_555 1_555
O56_4 Co20_6 1_555 1_555
O57_4 Co18_2 1_555 1_555
O58_4 Co17_2 1_555 1_555
O59_4 Co12_2 1_555 1_555
O60_4 Co11_2 1_555 1_555
O61_4 Co12_2 1_555 1_555
O62_4 Co11_2 1_555 1_555
O63_4 Co10_2 1_555 1_555
C6_5 C7_5 1_555 1_555
C25_5 C26_5 1_555 1_555
C34_5 C35_5 1_555 1_555
C36_5 C37_5 1_555 1_555
C40_5 C43_5 1_555 1_555
C41_5 C42_5 1_555 1_555
N7_5 C49_5 1_555 1_555
C46_5 C49_5 1_555 1_555
C47_5 C48_5 1_555 1_555
O15_5 C50_5 1_555 1_555
C55_5 C56_5 1_555 1_555
C77_5 C78_5 1_555 1_555
C79_5 C80_5 1_555 1_555
O24_5 C81_5 1_555 1_555
C86_5 C87_5 1_555 1_555
C108_5 C109_5 1_555 1_555
C110_5 C111_5 1_555 1_555
C115_5 C116_5 1_555 1_555
N13_5 Co20_6 1_555 1_555
C123_5 C126_5 1_555 1_555
C124_5 C125_5 1_555 1_555
N15_5 Co20_4 1_555 1_555
N16_5 C132_5 1_555 1_555
C129_5 C132_5 1_555 1_555
C130_5 C131_5 1_555 1_555
O31_4 Co19_5 1_555 1_555
O32_10 Co19_5 1_555 1_555
O34_10 Co15_2 1_555 1_555
C144_10 C145_10 1_555 1_555
C149_10 C152_10 1_555 1_555
C150_10 C151_10 1_555 1_555
O42_4 C167_10 1_555 1_555
C172_10 C173_10 1_555 1_555
C178_10 C179_10 1_555 1_555
Co19_6 O49_4 1_555 1_555
Co19_4 O48_4 1_555 1_555
O32_11 C152_11 1_555 1_555
O34_11 C139_11 1_555 1_555
C139_11 O55_4 1_555 1_555
C140_11 C139_11 1_555 1_555
C141_11 C140_11 1_555 1_555
H115_11 C141_11 1_555 1_555
C142_11 C141_11 1_555 1_555
H116_11 C142_11 1_555 1_555
C143_11 C142_11 1_555 1_555
C144_11 C143_11 1_555 1_555
H117_11 C144_11 1_555 1_555
C145_11 C140_11 1_555 1_555
H118_11 C145_11 1_555 1_555
C146_11 C143_11 1_555 1_555
C147_11 C146_11 1_555 1_555
H119_11 C147_11 1_555 1_555
C148_11 C147_11 1_555 1_555
H120_11 C148_11 1_555 1_555
C149_11 C148_11 1_555 1_555
C150_11 C149_11 1_555 1_555
H121_11 C150_11 1_555 1_555
C151_11 C146_11 1_555 1_555
H122_11 C151_11 1_555 1_555
C152_11 O48_4 1_555 1_555
C167_11 O58_4 1_555 1_555
C168_11 C167_11 1_555 1_555
C169_11 C168_11 1_555 1_555
H131_11 C169_11 1_555 1_555
C170_11 C169_11 1_555 1_555
H132_11 C170_11 1_555 1_555
C171_11 C170_11 1_555 1_555
C172_11 C171_11 1_555 1_555
H133_11 C172_11 1_555 1_555
C173_11 C168_11 1_555 1_555
H134_11 C173_11 1_555 1_555
C174_11 C171_11 1_555 1_555
C175_11 C174_11 1_555 1_555
H135_11 C175_11 1_555 1_555
C176_11 C175_11 1_555 1_555
H136_11 C176_11 1_555 1_555
O32_11 Co19_4 1_555 1_555
O34_11 Co13_3 1_555 1_555
C144_11 C145_11 1_555 1_555
C149_11 C152_11 1_555 1_555
C150_11 C151_11 1_555 1_555
O60_4 C167_11 1_555 1_555
C172_11 C173_11 1_555 1_555
O46_2 C180_11 1_555 1_555
O53_2 C180_11 1_555 1_555
C178_11 C177_11 1_555 1_555
H137_11 C178_11 1_555 1_555
H138_11 C179_11 1_555 1_555
C180_11 C177_11 1_555 1_555
C178_11 C179_11 1_555 1_555
O45_2 C180_12 1_555 1_555
O52_2 C180_12 1_555 1_555
C178_12 C177_12 1_555 1_555
H137_12 C178_12 1_555 1_555
H138_12 C179_12 1_555 1_555
C180_12 C177_12 1_555 1_555
C178_12 C179_12 1_555 1_555
O32_12 C152_12 1_555 1_555
O34_12 C139_12 1_555 1_555
C139_12 O56_4 1_555 1_555
C140_12 C139_12 1_555 1_555
C141_12 C140_12 1_555 1_555
H115_12 C141_12 1_555 1_555
C142_12 C141_12 1_555 1_555
H116_12 C142_12 1_555 1_555
C143_12 C142_12 1_555 1_555
C144_12 C143_12 1_555 1_555
H117_12 C144_12 1_555 1_555
C145_12 C140_12 1_555 1_555
H118_12 C145_12 1_555 1_555
C146_12 C143_12 1_555 1_555
C147_12 C146_12 1_555 1_555
H119_12 C147_12 1_555 1_555
C148_12 C147_12 1_555 1_555
H120_12 C148_12 1_555 1_555
C149_12 C148_12 1_555 1_555
C150_12 C149_12 1_555 1_555
H121_12 C150_12 1_555 1_555
C151_12 C146_12 1_555 1_555
H122_12 C151_12 1_555 1_555
C152_12 O49_4 1_555 1_555
C167_12 O57_4 1_555 1_555
C168_12 C167_12 1_555 1_555
C169_12 C168_12 1_555 1_555
H131_12 C169_12 1_555 1_555
C170_12 C169_12 1_555 1_555
H132_12 C170_12 1_555 1_555
C171_12 C170_12 1_555 1_555
C172_12 C171_12 1_555 1_555
H133_12 C172_12 1_555 1_555
C173_12 C168_12 1_555 1_555
H134_12 C173_12 1_555 1_555
C174_12 C171_12 1_555 1_555
C175_12 C174_12 1_555 1_555
H135_12 C175_12 1_555 1_555
C176_12 C175_12 1_555 1_555
H136_12 C176_12 1_555 1_555
O32_12 Co19_6 1_555 1_555
O34_12 Co14_4 1_555 1_555
C144_12 C145_12 1_555 1_555
C149_12 C152_12 1_555 1_555
C150_12 C151_12 1_555 1_555
O59_4 C167_12 1_555 1_555
C172_12 C173_12 1_555 1_555
C120_6 N12_6 1_555 1_555
H90_6 C120_6 1_555 1_555
H91_6 C120_6 1_555 1_555
H92_6 C120_6 1_555 1_555
N4_6 C38_6 1_555 1_555
C38_6 H28_6 1_555 1_555
C39_6 C38_6 1_555 1_555
C40_6 C39_6 1_555 1_555
C41_6 C40_6 1_555 1_555
H30_6 C41_6 1_555 1_555
C42_6 N4_6 1_555 1_555
H31_6 C42_6 1_555 1_555
C43_6 N2_6 1_555 1_555
Co19_4 N4_6 1_555 1_555
O15_6 Co19_4 1_555 1_555
O16_6 Co19_4 1_555 1_555
N8_6 C71_6 1_555 1_555
C50_6 O62_4 1_555 1_555
C51_6 C50_6 1_555 1_555
C52_6 C51_6 1_555 1_555
H36_6 C52_6 1_555 1_555
C53_6 C52_6 1_555 1_555
H37_6 C53_6 1_555 1_555
C54_6 C53_6 1_555 1_555
C55_6 C54_6 1_555 1_555
H38_6 C55_6 1_555 1_555
C56_6 C51_6 1_555 1_555
H39_6 C56_6 1_555 1_555
C71_6 O16_6 1_555 1_555
H48_6 C71_6 1_555 1_555
C72_6 N8_6 1_555 1_555
H49_6 C72_6 1_555 1_555
H50_6 C72_6 1_555 1_555
H51_6 C72_6 1_555 1_555
C73_6 N8_6 1_555 1_555
H52_6 C73_6 1_555 1_555
H53_6 C73_6 1_555 1_555
H54_6 C73_6 1_555 1_555
O61_3 C74_6 1_555 1_555
O18_6 C74_6 1_555 1_555
C74_6 C75_6 1_555 1_555
C75_6 C76_6 1_555 1_555
C76_6 H55_6 1_555 1_555
C77_6 C76_6 1_555 1_555
H56_6 C77_6 1_555 1_555
C78_6 C54_6 1_555 1_555
C79_6 C78_6 1_555 1_555
H57_6 C79_6 1_555 1_555
C80_6 C75_6 1_555 1_555
H58_6 C80_6 1_555 1_555
Co21_2 O18_6 1_555 1_555
O28_6 Co21_2 1_555 1_555
N10_6 Co21_2 1_555 1_555
C112_6 N10_6 1_555 1_555
H82_6 C112_6 1_555 1_555
C113_6 C112_6 1_555 1_555
C114_6 C113_6 1_555 1_555
C115_6 C114_6 1_555 1_555
H84_6 C115_6 1_555 1_555
C116_6 N10_6 1_555 1_555
H85_6 C116_6 1_555 1_555
C117_6 C114_6 1_555 1_555
C118_6 O28_6 1_555 1_555
H86_6 C118_6 1_555 1_555
H87_6 C119_6 1_555 1_555
H89_6 C119_6 1_555 1_555
N16_6 C117_6 1_555 1_555
C40_6 C43_6 1_555 1_555
C41_6 C42_6 1_555 1_555
O15_6 C50_6 1_555 1_555
C55_6 C56_6 1_555 1_555
C77_6 C78_6 1_555 1_555
C79_6 C80_6 1_555 1_555
C115_6 C116_6 1_555 1_555
Co19_6 O6_6 1_555 1_555
O6_6 C1_6 1_555 1_555
O7_6 Co19_6 1_555 1_555
N1_6 Co19_6 1_555 1_555
N3_6 C28_6 1_555 1_555
C1_6 O61_4 1_555 1_555
C2_6 C1_6 1_555 1_555
C3_6 C2_6 1_555 1_555
H1_6 C3_6 1_555 1_555
C4_6 C3_6 1_555 1_555
H2_6 C4_6 1_555 1_555
C5_6 C4_6 1_555 1_555
C6_6 C5_6 1_555 1_555
C7_6 C2_6 1_555 1_555
H4_6 C7_6 1_555 1_555
C22_6 N1_6 1_555 1_555
H13_6 C22_6 1_555 1_555
C23_6 C22_6 1_555 1_555
C24_6 C23_6 1_555 1_555
C25_6 C24_6 1_555 1_555
C26_6 N1_6 1_555 1_555
H16_6 C26_6 1_555 1_555
C27_6 C24_6 1_555 1_555
C28_6 O7_6 1_555 1_555
H17_6 C28_6 1_555 1_555
C29_6 N3_6 1_555 1_555
H18_6 C29_6 1_555 1_555
H19_6 C29_6 1_555 1_555
H20_6 C29_6 1_555 1_555
C30_6 N3_6 1_555 1_555
H21_6 C30_6 1_555 1_555
C6_6 C7_6 1_555 1_555
C25_6 C26_6 1_555 1_555
C138_6 N18_6 1_555 1_555
H112_6 C138_6 1_555 1_555
O63_3 C105_6 1_555 1_555
O27_6 C105_6 1_555 1_555
C105_6 C106_6 1_555 1_555
C106_6 C107_6 1_555 1_555
C107_6 H78_6 1_555 1_555
C108_6 C107_6 1_555 1_555
H79_6 C108_6 1_555 1_555
C110_6 C109_6 1_555 1_555
C111_6 C106_6 1_555 1_555
H81_6 C111_6 1_555 1_555
N15_6 C127_6 1_555 1_555
C127_6 H97_6 1_555 1_555
C128_6 C127_6 1_555 1_555
C129_6 C128_6 1_555 1_555
C130_6 C129_6 1_555 1_555
C131_6 N15_6 1_555 1_555
H100_6 C131_6 1_555 1_555
Co23_2 O27_6 1_555 1_555
O30_6 Co23_2 1_555 1_555
C136_6 O30_6 1_555 1_555
H108_6 C136_6 1_555 1_555
H109_6 C137_6 1_555 1_555
H111_6 C137_6 1_555 1_555
C108_6 C109_6 1_555 1_555
C110_6 C111_6 1_555 1_555
N15_6 Co23_2 1_555 1_555
C129_6 C132_6 1_555 1_555
C130_6 C131_6 1_555 1_555
C135_6 N17_6 1_555 1_555
H105_6 C135_6 1_555 1_555
O62_3 C31_6 1_555 1_555
O9_6 C31_6 1_555 1_555
C31_6 C32_6 1_555 1_555
C32_6 C33_6 1_555 1_555
C33_6 H24_6 1_555 1_555
C34_6 C33_6 1_555 1_555
H25_6 C34_6 1_555 1_555
C36_6 C35_6 1_555 1_555
C37_6 C32_6 1_555 1_555
H27_6 C37_6 1_555 1_555
N6_6 C44_6 1_555 1_555
C44_6 H32_6 1_555 1_555
C45_6 C44_6 1_555 1_555
H33_6 C45_6 1_555 1_555
C46_6 C45_6 1_555 1_555
C47_6 C46_6 1_555 1_555
C48_6 N6_6 1_555 1_555
H35_6 C48_6 1_555 1_555
Co19_5 N6_6 1_555 1_555
O24_6 Co19_5 1_555 1_555
O25_6 Co19_5 1_555 1_555
N9_6 C102_6 1_555 1_555
C81_6 O63_4 1_555 1_555
C82_6 C81_6 1_555 1_555
C83_6 C82_6 1_555 1_555
H59_6 C83_6 1_555 1_555
C84_6 C83_6 1_555 1_555
H60_6 C84_6 1_555 1_555
C85_6 C84_6 1_555 1_555
C86_6 C85_6 1_555 1_555
C87_6 C82_6 1_555 1_555
H62_6 C87_6 1_555 1_555
C102_6 O25_6 1_555 1_555
H71_6 C102_6 1_555 1_555
C103_6 N9_6 1_555 1_555
H72_6 C103_6 1_555 1_555
H73_6 C103_6 1_555 1_555
H74_6 C103_6 1_555 1_555
C104_6 N9_6 1_555 1_555
H75_6 C104_6 1_555 1_555
N13_6 C121_6 1_555 1_555
N14_6 C126_6 1_555 1_555
C121_6 H93_6 1_555 1_555
C122_6 C121_6 1_555 1_555
H94_6 C122_6 1_555 1_555
C123_6 C122_6 1_555 1_555
C124_6 C123_6 1_555 1_555
C125_6 N13_6 1_555 1_555
H96_6 C125_6 1_555 1_555
Co22_2 O9_6 1_555 1_555
O29_6 Co22_2 1_555 1_555
C133_6 O29_6 1_555 1_555
H101_6 C133_6 1_555 1_555
H102_6 C134_6 1_555 1_555
H104_6 C134_6 1_555 1_555
C34_6 C35_6 1_555 1_555
C36_6 C37_6 1_555 1_555
N7_6 C49_6 1_555 1_555
C46_6 C49_6 1_555 1_555
C47_6 C48_6 1_555 1_555
O24_6 C81_6 1_555 1_555
C86_6 C87_6 1_555 1_555
N13_6 Co22_2 1_555 1_555
C123_6 C126_6 1_555 1_555
C124_6 C125_6 1_555 1_555

#END
