
###############################################################################
#
# This file contains modified crystal structure data generated from the
# MOF subset of the Cambridge Structural Database (CSD) v543 
# hosted by the Cambridge Crystallographic Data Centre (CCDC).
#
# This work is licensed under the Creative Commons
# Attribution-NonCommercial-ShareAlike 4.0 International License.
# To view a copy of this license, visit
# http://creativecommons.org/licenses/by-nc-sa/4.0/
# or send a letter to
# Creative Commons, PO Box 1866, Mountain View, CA 94042, USA.
#
# CIF created using the CSD Python API on 29 September 2022
# The structure has been converted into the P1 space group
# The structure has a 3D framework
# The original CSD entry FEHCOM is in the orthorhombic crystal system
# The framework has been calculated to contain at least 10.0% void space
# The void calculation uses a probe of radius 1.32A, grid spacing 0.4
#
###############################################################################

data_FEHCOM
_chemical_formula_moiety         '(C224 H160 N32 O32 Zn16)n'
_symmetry_cell_setting           triclinic
_symmetry_space_group_name_H-M   'P 1'
_symmetry_Int_Tables_number      1
_space_group_name_Hall           'P 1'
loop_
_symmetry_equiv_pos_site_id
_symmetry_equiv_pos_as_xyz
1 x,y,z
_cell_length_a                   13.9249(12)
_cell_length_b                   23.653(2)
_cell_length_c                   23.637(2)
_cell_angle_alpha                90
_cell_angle_beta                 90
_cell_angle_gamma                90
_cell_volume                     7785.22
loop_
_atom_site_label
_atom_site_type_symbol
_atom_site_fract_x
_atom_site_fract_y
_atom_site_fract_z
Zn3 Zn 0.37948(3) 0.27616(2) 0.00696(2)
Zn5 Zn 0.62052(3) 0.22384(2) 0.00696(2)
Zn1 Zn 0.37948(3) 0.22384(2) 0.50696(2)
O1 O 0.4499(3) 0.21376(19) 0.57892(15)
O2 O 0.3138(4) 0.29446(19) 0.52944(17)
N1 N 0.4532(3) 0.2601(2) 0.93861(19)
N2 N 0.3001(2) 0.65506(15) 0.49768(18)
C1 C 0.5000 0.2500 0.6036(4)
C2 C 0.5000 0.2500 0.6659(4)
C3 C 0.4378(5) 0.2161(4) 0.6962(2)
H1 H 0.3960 0.1921 0.6770
C4 C 0.4369(6) 0.2173(4) 0.7565(3)
H2 H 0.3923 0.1954 0.7758
C5 C 0.5000 0.2500 0.7867(4)
C6 C 0.5000 0.2500 0.8478(4)
C7 C 0.4237(5) 0.2652(3) 0.8847(3)
C8 C 0.3255(5) 0.2849(5) 0.8684(3)
H3 H 0.2875 0.2905 0.9019
H4 H 0.2955 0.2570 0.8448
H5 H 0.3304 0.3199 0.8481
C9 C 0.2500 0.3197(3) 0.5000
C10 C 0.2500 0.3828(3) 0.5000
C11 C 0.3090(5) 0.4124(3) 0.5364(3)
H6 H 0.3495 0.3929 0.5608
C12 C 0.3087(5) 0.4710(3) 0.5369(4)
H7 H 0.3482 0.4900 0.5623
C13 C 0.2500 0.5023(3) 0.5000
C14 C 0.2500 0.5645(3) 0.5000
C15 C 0.3288(3) 0.60119(19) 0.4947(3)
C16 C 0.4343(4) 0.5874(3) 0.4898(4)
H8 H 0.4706 0.6219 0.4878
H9 H 0.4452 0.5655 0.4562
H10 H 0.4543 0.5661 0.5223
Zn2 Zn 0.62052(3) 0.27616(2) 0.50696(2)
Zn4 Zn 0.37948(3) 0.72384(2) 0.49304(2)
Zn6 Zn 0.12052(3) 0.22384(2) 0.49304(2)
Zn7 Zn 0.12052(3) 0.72384(2) 0.50696(2)
O3 O 0.5501(3) 0.28624(19) 0.57892(15)
O4 O 0.1862(4) 0.29446(19) 0.47056(17)
O5 O 0.6862(4) 0.20554(19) 0.52944(17)
N3 N 0.5468(3) 0.2399(2) 0.93861(19)
N4 N 0.4532(3) 0.2399(2) 0.43861(19)
N5 N 0.5468(3) 0.2601(2) 0.43861(19)
N6 N 0.1999(2) 0.65506(15) 0.50232(18)
N7 N 0.3001(2) 0.15506(15) 0.50232(18)
N8 N 0.6999(2) 0.34494(15) 0.50232(18)
C17 C 0.5622(5) 0.2839(4) 0.6962(2)
H11 H 0.6040 0.3079 0.6770
C18 C 0.5631(6) 0.2827(4) 0.7565(3)
H12 H 0.6077 0.3046 0.7758
C19 C 0.5763(5) 0.2348(3) 0.8847(3)
C20 C 0.6745(5) 0.2151(5) 0.8684(3)
H13 H 0.7125 0.2095 0.9019
H14 H 0.7045 0.2430 0.8448
H15 H 0.6696 0.1801 0.8481
C21 C 0.1910(5) 0.4124(3) 0.4636(3)
H16 H 0.1505 0.3929 0.4392
C22 C 0.1913(5) 0.4710(3) 0.4631(4)
H17 H 0.1518 0.4900 0.4377
C23 C 0.1712(3) 0.60119(19) 0.5053(3)
C24 C 0.0657(4) 0.5874(3) 0.5102(4)
H18 H 0.0294 0.6219 0.5122
H19 H 0.0548 0.5655 0.5438
H20 H 0.0457 0.5661 0.4777
Zn1_2 Zn 0.12052(3) 0.77616(2) 0.00696(2)
O1_2 O 0.0501(3) 0.78624(19) 0.07892(15)
O2_2 O 0.1862(4) 0.70554(19) 0.02944(17)
N1_2 N 0.0468(3) 0.7399(2) 0.43861(19)
C1_2 C 0.0000 0.7500 0.1036(4)
C2_2 C 0.0000 0.7500 0.1659(4)
C3_2 C 0.0622(5) 0.7839(4) 0.1962(2)
H1_2 H 0.1040 0.8079 0.1770
C4_2 C 0.0631(6) 0.7827(4) 0.2565(3)
H2_2 H 0.1077 0.8046 0.2758
C5_2 C 0.0000 0.7500 0.2867(4)
C6_2 C 0.0000 0.7500 0.3478(4)
C7_2 C 0.0763(5) 0.7348(3) 0.3847(3)
C8_2 C 0.1745(5) 0.7151(5) 0.3684(3)
H3_2 H 0.2125 0.7095 0.4019
H4_2 H 0.2045 0.7430 0.3448
H5_2 H 0.1696 0.6801 0.3481
C9_2 C 0.2500 0.6803(3) -0.0000
C10_2 C 0.2500 0.6172(3) -0.0000
C11_2 C 0.1910(5) 0.5876(3) 0.0364(3)
H6_2 H 0.1505 0.6071 0.0608
C12_2 C 0.1913(5) 0.5290(3) 0.0369(4)
H7_2 H 0.1518 0.5100 0.0623
C13_2 C 0.2500 0.4977(3) -0.0000
C14_2 C 0.2500 0.4355(3) -0.0000
H10_2 H 0.0457 0.4339 0.0223
N6_2 N 0.3001(2) 0.34494(15) 0.00232(18)
N7_2 N 0.1999(2) 0.84494(15) 0.00232(18)
C23_2 C 0.3288(3) 0.39881(19) 0.0053(3)
C24_2 C 0.4343(4) 0.4126(3) 0.0102(4)
H18_2 H 0.4706 0.3781 0.0122
H19_2 H 0.4452 0.4345 0.0438
N2_2 N 0.1999(2) 0.34494(15) 0.99768(18)
C9_3 C 0.2500 0.6803(3) 1.0000
C10_3 C 0.2500 0.6172(3) 1.0000
C13_3 C 0.2500 0.4977(3) 1.0000
C14_3 C 0.2500 0.4355(3) 1.0000
C15_2 C 0.1712(3) 0.39881(19) 0.9947(3)
C16_2 C 0.0657(4) 0.4126(3) 0.9898(4)
H8_2 H 0.0294 0.3781 0.9878
H9_2 H 0.0548 0.4345 0.9562
Zn4_2 Zn 0.12052(3) 0.27616(2) 0.99304(2)
Zn6_2 Zn 0.37948(3) 0.77616(2) 0.99304(2)
O4_2 O 0.3138(4) 0.70554(19) 0.97056(17)
N4_2 N 0.0468(3) 0.7601(2) 0.93861(19)
C21_2 C 0.3090(5) 0.5876(3) 0.9636(3)
H16_2 H 0.3495 0.6071 0.9392
C22_2 C 0.3087(5) 0.5290(3) 0.9631(4)
H17_2 H 0.3482 0.5100 0.9377
H20_2 H 0.4543 0.4339 0.9777
C1_3 C 1.0000 0.7500 0.1036(4)
C2_3 C 1.0000 0.7500 0.1659(4)
C5_3 C 1.0000 0.7500 0.2867(4)
C6_3 C 1.0000 0.7500 0.3478(4)
Zn2_2 Zn 0.87948(3) 0.72384(2) 0.00696(2)
Zn5_2 Zn 0.87948(3) 0.77616(2) 0.50696(2)
O3_2 O 0.9499(3) 0.71376(19) 0.07892(15)
O5_2 O 0.8138(4) 0.79446(19) 0.02944(17)
N3_2 N 0.9532(3) 0.7601(2) 0.43861(19)
N8_2 N 0.8001(2) 0.65506(15) 0.00232(18)
C17_2 C 0.9378(5) 0.7161(4) 0.1962(2)
H11_2 H 0.8960 0.6921 0.1770
C18_2 C 0.9369(6) 0.7173(4) 0.2565(3)
H12_2 H 0.8923 0.6954 0.2758
C19_2 C 0.9237(5) 0.7652(3) 0.3847(3)
C20_2 C 0.8255(5) 0.7849(5) 0.3684(3)
H13_2 H 0.7875 0.7905 0.4019
H14_2 H 0.7955 0.7570 0.3448
H15_2 H 0.8304 0.8199 0.3481
N5_2 N 0.9532(3) 0.7399(2) 0.93861(19)
N2_3 N 0.6999(2) 0.15506(15) 0.00232(18)
C13_4 C 0.7500 0.0023(3) 0.0000
C14_4 C 0.7500 0.0645(3) 0.0000
C15_3 C 0.6712(3) 0.10119(19) 0.0053(3)
C16_3 C 0.5657(4) 0.0874(3) 0.0102(4)
H8_3 H 0.5294 0.1219 0.0122
H9_3 H 0.5548 0.0655 0.0438
H20_3 H 0.9543 0.0661 0.0223
C13_5 C 0.7500 0.0023(3) 1.0000
C14_5 C 0.7500 0.0645(3) 1.0000
H10_3 H 0.5457 0.0661 0.9777
Zn7_2 Zn 0.87948(3) 0.22384(2) 0.99304(2)
N6_3 N 0.8001(2) 0.15506(15) 0.99768(18)
C23_3 C 0.8288(3) 0.10119(19) 0.9947(3)
C24_3 C 0.9343(4) 0.0874(3) 0.9898(4)
H18_3 H 0.9706 0.1219 0.9878
H19_3 H 0.9452 0.0655 0.9562
C9_4 C 0.7500 0.8197(3) 0.0000
C10_4 C 0.7500 0.8828(3) 0.0000
N4_3 N 0.5468(3) 0.7399(2) 0.06139(19)
N5_3 N 0.4532(3) 0.7601(2) 0.06139(19)
C21_3 C 0.8090(5) 0.9124(3) 0.0364(3)
H16_3 H 0.8495 0.8929 0.0608
C22_3 C 0.8087(5) 0.9710(3) 0.0369(4)
H17_3 H 0.8482 0.9900 0.0623
Zn1_3 Zn 0.62052(3) 0.72384(2) 0.99304(2)
O1_3 O 0.5501(3) 0.71376(19) 0.92108(15)
O2_3 O 0.6862(4) 0.79446(19) 0.97056(17)
N1_3 N 0.5468(3) 0.7601(2) 0.56139(19)
C1_4 C 0.5000 0.7500 0.8964(4)
C2_4 C 0.5000 0.7500 0.8341(4)
C3_3 C 0.5622(5) 0.7161(4) 0.8038(2)
H1_3 H 0.6040 0.6921 0.8230
C4_3 C 0.5631(6) 0.7173(4) 0.7435(3)
H2_3 H 0.6077 0.6954 0.7242
C5_4 C 0.5000 0.7500 0.7133(4)
C6_4 C 0.5000 0.7500 0.6522(4)
C7_3 C 0.5763(5) 0.7652(3) 0.6153(3)
C8_3 C 0.6745(5) 0.7849(5) 0.6316(3)
H3_3 H 0.7125 0.7905 0.5981
H4_3 H 0.7045 0.7570 0.6552
H5_3 H 0.6696 0.8199 0.6519
C9_5 C 0.7500 0.8197(3) 1.0000
C10_5 C 0.7500 0.8828(3) 1.0000
C11_3 C 0.6910(5) 0.9124(3) 0.9636(3)
H6_3 H 0.6505 0.8929 0.9392
C12_3 C 0.6913(5) 0.9710(3) 0.9631(4)
H7_3 H 0.6518 0.9900 0.9377
Zn3_2 Zn 0.62052(3) 0.77616(2) 0.49304(2)
O3_3 O 0.4499(3) 0.78624(19) 0.92108(15)
N3_3 N 0.4532(3) 0.7399(2) 0.56139(19)
N7_3 N 0.6999(2) 0.65506(15) 0.99768(18)
N8_3 N 0.3001(2) 0.84494(15) 0.99768(18)
C17_3 C 0.4378(5) 0.7839(4) 0.8038(2)
H11_3 H 0.3960 0.8079 0.8230
C18_3 C 0.4369(6) 0.7827(4) 0.7435(3)
H12_3 H 0.3923 0.8046 0.7242
C19_3 C 0.4237(5) 0.7348(3) 0.6153(3)
C20_3 C 0.3255(5) 0.7151(5) 0.6316(3)
H13_3 H 0.2875 0.7095 0.5981
H14_3 H 0.2955 0.7430 0.6552
H15_3 H 0.3304 0.6801 0.6519
C1_5 C 0.0000 0.2500 0.3964(4)
C2_5 C 0.0000 0.2500 0.3341(4)
C5_5 C 0.0000 0.2500 0.2133(4)
C6_5 C 0.0000 0.2500 0.1522(4)
O3_4 O 0.0501(3) 0.21376(19) 0.42108(15)
N3_4 N 0.0468(3) 0.2601(2) 0.06139(19)
N5_4 N 0.0468(3) 0.2399(2) 0.56139(19)
N8_4 N 0.1999(2) 0.15506(15) 0.49768(18)
C17_4 C 0.0622(5) 0.2161(4) 0.3038(2)
H11_4 H 0.1040 0.1921 0.3230
C18_4 C 0.0631(6) 0.2173(4) 0.2435(3)
H12_4 H 0.1077 0.1954 0.2242
C19_4 C 0.0763(5) 0.2652(3) 0.1153(3)
C20_4 C 0.1745(5) 0.2849(5) 0.1316(3)
H13_4 H 0.2125 0.2905 0.0981
H14_4 H 0.2045 0.2570 0.1552
H15_4 H 0.1696 0.3199 0.1519
Zn1_4 Zn 0.87948(3) 0.27616(2) 0.49304(2)
O1_4 O 0.9499(3) 0.28624(19) 0.42108(15)
O2_4 O 0.8138(4) 0.20554(19) 0.47056(17)
N1_4 N 0.9532(3) 0.2399(2) 0.06139(19)
C1_6 C 1.0000 0.2500 0.3964(4)
C2_6 C 1.0000 0.2500 0.3341(4)
C3_4 C 0.9378(5) 0.2839(4) 0.3038(2)
H1_4 H 0.8960 0.3079 0.3230
C4_4 C 0.9369(6) 0.2827(4) 0.2435(3)
H2_4 H 0.8923 0.3046 0.2242
C5_6 C 1.0000 0.2500 0.2133(4)
C6_6 C 1.0000 0.2500 0.1522(4)
C7_4 C 0.9237(5) 0.2348(3) 0.1153(3)
C8_4 C 0.8255(5) 0.2151(5) 0.1316(3)
H3_4 H 0.7875 0.2095 0.0981
H4_4 H 0.7955 0.2430 0.1552
H5_4 H 0.8304 0.1801 0.1519
C9_6 C 0.7500 0.1803(3) 0.5000
C10_6 C 0.7500 0.1172(3) 0.5000
C11_4 C 0.8090(5) 0.0876(3) 0.4636(3)
H6_4 H 0.8495 0.1071 0.4392
C12_4 C 0.8087(5) 0.0290(3) 0.4631(4)
H7_4 H 0.8482 0.0100 0.4377
N4_4 N 0.9532(3) 0.2601(2) 0.56139(19)
N7_4 N 0.8001(2) 0.34494(15) 0.49768(18)
C21_4 C 0.6910(5) 0.0876(3) 0.5364(3)
H16_4 H 0.6505 0.1071 0.5608
C22_4 C 0.6913(5) 0.0290(3) 0.5369(4)
H17_4 H 0.6518 0.0100 0.5623
N2_4 N 0.8001(2) 0.84494(15) 0.50232(18)
C13_6 C 0.7500 0.9977(3) 0.5000
C14_6 C 0.7500 0.9355(3) 0.5000
C15_4 C 0.8288(3) 0.89881(19) 0.5053(3)
C16_4 C 0.9343(4) 0.9126(3) 0.5102(4)
H8_4 H 0.9706 0.8781 0.5122
H9_4 H 0.9452 0.9345 0.5438
H10_4 H 0.9543 0.9339 0.4777
N6_4 N 0.6999(2) 0.84494(15) 0.49768(18)
C23_4 C 0.6712(3) 0.89881(19) 0.4947(3)
C24_4 C 0.5657(4) 0.9126(3) 0.4898(4)
H18_4 H 0.5294 0.8781 0.4878
H19_4 H 0.5548 0.9345 0.4562
H20_4 H 0.5457 0.9339 0.5223
O1_5 O 0.5501(3) 0.78624(19) 0.42108(15)
O2_5 O 0.6862(4) 0.70554(19) 0.47056(17)
C1_7 C 0.5000 0.7500 0.3964(4)
C2_7 C 0.5000 0.7500 0.3341(4)
C3_5 C 0.5622(5) 0.7839(4) 0.3038(2)
H1_5 H 0.6040 0.8079 0.3230
C4_5 C 0.5631(6) 0.7827(4) 0.2435(3)
H2_5 H 0.6077 0.8046 0.2242
C5_7 C 0.5000 0.7500 0.2133(4)
C6_7 C 0.5000 0.7500 0.1522(4)
C7_5 C 0.5763(5) 0.7348(3) 0.1153(3)
C8_5 C 0.6745(5) 0.7151(5) 0.1316(3)
H3_5 H 0.7125 0.7095 0.0981
H4_5 H 0.7045 0.7430 0.1552
H5_5 H 0.6696 0.6801 0.1519
C9_7 C 0.7500 0.6803(3) 0.5000
C10_7 C 0.7500 0.6172(3) 0.5000
C11_5 C 0.6910(5) 0.5876(3) 0.4636(3)
H6_5 H 0.6505 0.6071 0.4392
C12_5 C 0.6913(5) 0.5290(3) 0.4631(4)
H7_5 H 0.6518 0.5100 0.4377
C13_7 C 0.7500 0.4977(3) 0.5000
C14_7 C 0.7500 0.4355(3) 0.5000
C15_5 C 0.6712(3) 0.39881(19) 0.5053(3)
C16_5 C 0.5657(4) 0.4126(3) 0.5102(4)
H8_5 H 0.5294 0.3781 0.5122
H9_5 H 0.5548 0.4345 0.5438
H10_5 H 0.5457 0.4339 0.4777
O3_5 O 0.4499(3) 0.71376(19) 0.42108(15)
O4_3 O 0.8138(4) 0.70554(19) 0.52944(17)
O5_3 O 0.3138(4) 0.79446(19) 0.47056(17)
C17_5 C 0.4378(5) 0.7161(4) 0.3038(2)
H11_5 H 0.3960 0.6921 0.3230
C18_5 C 0.4369(6) 0.7173(4) 0.2435(3)
H12_5 H 0.3923 0.6954 0.2242
C19_5 C 0.4237(5) 0.7652(3) 0.1153(3)
C20_5 C 0.3255(5) 0.7849(5) 0.1316(3)
H13_5 H 0.2875 0.7905 0.0981
H14_5 H 0.2955 0.7570 0.1552
H15_5 H 0.3304 0.8199 0.1519
C21_5 C 0.8090(5) 0.5876(3) 0.5364(3)
H16_5 H 0.8495 0.6071 0.5608
C22_5 C 0.8087(5) 0.5290(3) 0.5369(4)
H17_5 H 0.8482 0.5100 0.5623
C23_5 C 0.8288(3) 0.39881(19) 0.4947(3)
C24_5 C 0.9343(4) 0.4126(3) 0.4898(4)
H18_5 H 0.9706 0.3781 0.4878
H19_5 H 0.9452 0.4345 0.4562
H20_5 H 0.9543 0.4339 0.5223
C1_8 C 0.0000 0.2500 0.8964(4)
C2_8 C 0.0000 0.2500 0.8341(4)
C5_8 C 0.0000 0.2500 0.7133(4)
C6_8 C 0.0000 0.2500 0.6522(4)
O3_6 O 0.0501(3) 0.28624(19) 0.92108(15)
O5_4 O 0.1862(4) 0.20554(19) 0.97056(17)
C17_6 C 0.0622(5) 0.2839(4) 0.8038(2)
H11_6 H 0.1040 0.3079 0.8230
C18_6 C 0.0631(6) 0.2827(4) 0.7435(3)
H12_6 H 0.1077 0.3046 0.7242
C19_6 C 0.0763(5) 0.2348(3) 0.6153(3)
C20_6 C 0.1745(5) 0.2151(5) 0.6316(3)
H13_6 H 0.2125 0.2095 0.5981
H14_6 H 0.2045 0.2430 0.6552
H15_6 H 0.1696 0.1801 0.6519
C9_8 C 0.7500 0.3197(3) 0.0000
C10_8 C 0.7500 0.3828(3) 0.0000
C13_8 C 0.7500 0.5023(3) 0.0000
C14_8 C 0.7500 0.5645(3) 0.0000
C15_6 C 0.8288(3) 0.60119(19) 0.0053(3)
C16_6 C 0.9343(4) 0.5874(3) 0.0102(4)
H8_6 H 0.9706 0.6219 0.0122
H9_6 H 0.9452 0.5655 0.0438
O4_4 O 0.6862(4) 0.29446(19) 0.02944(17)
C21_6 C 0.6910(5) 0.4124(3) 0.0364(3)
H16_6 H 0.6505 0.3929 0.0608
C22_6 C 0.6913(5) 0.4710(3) 0.0369(4)
H17_6 H 0.6518 0.4900 0.0623
H20_6 H 0.5457 0.5661 0.0223
O1_6 O 0.9499(3) 0.21376(19) 0.92108(15)
O2_6 O 0.8138(4) 0.29446(19) 0.97056(17)
C1_9 C 1.0000 0.2500 0.8964(4)
C2_9 C 1.0000 0.2500 0.8341(4)
C3_6 C 0.9378(5) 0.2161(4) 0.8038(2)
H1_6 H 0.8960 0.1921 0.8230
C4_6 C 0.9369(6) 0.2173(4) 0.7435(3)
H2_6 H 0.8923 0.1954 0.7242
C5_9 C 1.0000 0.2500 0.7133(4)
C6_9 C 1.0000 0.2500 0.6522(4)
C7_6 C 0.9237(5) 0.2652(3) 0.6153(3)
C8_6 C 0.8255(5) 0.2849(5) 0.6316(3)
H3_6 H 0.7875 0.2905 0.5981
H4_6 H 0.7955 0.2570 0.6552
H5_6 H 0.8304 0.3199 0.6519
C9_9 C 0.7500 0.3197(3) 1.0000
C10_9 C 0.7500 0.3828(3) 1.0000
C11_6 C 0.8090(5) 0.4124(3) 0.9636(3)
H6_6 H 0.8495 0.3929 0.9392
C12_6 C 0.8087(5) 0.4710(3) 0.9631(4)
H7_6 H 0.8482 0.4900 0.9377
C13_9 C 0.7500 0.5023(3) 1.0000
C14_9 C 0.7500 0.5645(3) 1.0000
H10_6 H 0.9543 0.5661 0.9777
C23_6 C 0.6712(3) 0.60119(19) 0.9947(3)
C24_6 C 0.5657(4) 0.5874(3) 0.9898(4)
H18_6 H 0.5294 0.6219 0.9878
H19_6 H 0.5548 0.5655 0.9562
O1_7 O 0.4499(3) 0.28624(19) 0.07892(15)
O2_7 O 0.3138(4) 0.20554(19) 0.02944(17)
C1_10 C 0.5000 0.2500 0.1036(4)
C2_10 C 0.5000 0.2500 0.1659(4)
C3_7 C 0.4378(5) 0.2839(4) 0.1962(2)
H1_7 H 0.3960 0.3079 0.1770
C4_7 C 0.4369(6) 0.2827(4) 0.2565(3)
H2_7 H 0.3923 0.3046 0.2758
C5_10 C 0.5000 0.2500 0.2867(4)
C6_10 C 0.5000 0.2500 0.3478(4)
C7_7 C 0.4237(5) 0.2348(3) 0.3847(3)
C8_7 C 0.3255(5) 0.2151(5) 0.3684(3)
H3_7 H 0.2875 0.2095 0.4019
H4_7 H 0.2955 0.2430 0.3448
H5_7 H 0.3304 0.1801 0.3481
C9_10 C 0.2500 0.1803(3) -0.0000
C10_10 C 0.2500 0.1172(3) -0.0000
C11_7 C 0.3090(5) 0.0876(3) 0.0364(3)
H6_7 H 0.3495 0.1071 0.0608
C12_7 C 0.3087(5) 0.0290(3) 0.0369(4)
H7_7 H 0.3482 0.0100 0.0623
O3_7 O 0.5501(3) 0.21376(19) 0.07892(15)
C17_7 C 0.5622(5) 0.2161(4) 0.1962(2)
H11_7 H 0.6040 0.1921 0.1770
C18_7 C 0.5631(6) 0.2173(4) 0.2565(3)
H12_7 H 0.6077 0.1954 0.2758
C19_7 C 0.5763(5) 0.2652(3) 0.3847(3)
C20_7 C 0.6745(5) 0.2849(5) 0.3684(3)
H13_7 H 0.7125 0.2905 0.4019
H14_7 H 0.7045 0.2570 0.3448
H15_7 H 0.6696 0.3199 0.3481
C9_11 C 0.2500 0.1803(3) 1.0000
C10_11 C 0.2500 0.1172(3) 1.0000
C21_7 C 0.1910(5) 0.0876(3) 0.9636(3)
H16_7 H 0.1505 0.1071 0.9392
C22_7 C 0.1913(5) 0.0290(3) 0.9631(4)
H17_7 H 0.1518 0.0100 0.9377
C13_10 C 0.2500 0.9977(3) -0.0000
C14_10 C 0.2500 0.9355(3) -0.0000
H10_7 H 0.4543 0.9339 0.0223
C23_7 C 0.1712(3) 0.89881(19) 0.0053(3)
C24_7 C 0.0657(4) 0.9126(3) 0.0102(4)
H18_7 H 0.0294 0.8781 0.0122
H19_7 H 0.0548 0.9345 0.0438
C13_11 C 0.2500 0.9977(3) 1.0000
C14_11 C 0.2500 0.9355(3) 1.0000
C15_7 C 0.3288(3) 0.89881(19) 0.9947(3)
C16_7 C 0.4343(4) 0.9126(3) 0.9898(4)
H8_7 H 0.4706 0.8781 0.9878
H9_7 H 0.4452 0.9345 0.9562
H20_7 H 0.0457 0.9339 0.9777
C13_12 C 0.2500 0.0023(3) 0.5000
C14_12 C 0.2500 0.0645(3) 0.5000
C15_8 C 0.1712(3) 0.10119(19) 0.4947(3)
C16_8 C 0.0657(4) 0.0874(3) 0.4898(4)
H8_8 H 0.0294 0.1219 0.4878
H9_8 H 0.0548 0.0655 0.4562
H10_8 H 0.0457 0.0661 0.5223
C23_8 C 0.3288(3) 0.10119(19) 0.5053(3)
C24_8 C 0.4343(4) 0.0874(3) 0.5102(4)
H18_8 H 0.4706 0.1219 0.5122
H19_8 H 0.4452 0.0655 0.5438
H20_8 H 0.4543 0.0661 0.4777
O1_8 O 0.0501(3) 0.71376(19) 0.57892(15)
O2_8 O 0.1862(4) 0.79446(19) 0.52944(17)
C1_11 C 0.0000 0.7500 0.6036(4)
C2_11 C 0.0000 0.7500 0.6659(4)
C3_8 C 0.0622(5) 0.7161(4) 0.6962(2)
H1_8 H 0.1040 0.6921 0.6770
C4_8 C 0.0631(6) 0.7173(4) 0.7565(3)
H2_8 H 0.1077 0.6954 0.7758
C5_11 C 0.0000 0.7500 0.7867(4)
C6_11 C 0.0000 0.7500 0.8478(4)
C7_8 C 0.0763(5) 0.7652(3) 0.8847(3)
C8_8 C 0.1745(5) 0.7849(5) 0.8684(3)
H3_8 H 0.2125 0.7905 0.9019
H4_8 H 0.2045 0.7570 0.8448
H5_8 H 0.1696 0.8199 0.8481
C9_12 C 0.2500 0.8197(3) 0.5000
C10_12 C 0.2500 0.8828(3) 0.5000
C11_8 C 0.1910(5) 0.9124(3) 0.5364(3)
H6_8 H 0.1505 0.8929 0.5608
C12_8 C 0.1913(5) 0.9710(3) 0.5369(4)
H7_8 H 0.1518 0.9900 0.5623
C21_8 C 0.3090(5) 0.9124(3) 0.4636(3)
H16_8 H 0.3495 0.8929 0.4392
C22_8 C 0.3087(5) 0.9710(3) 0.4631(4)
H17_8 H 0.3482 0.9900 0.4377
C1_12 C 1.0000 0.7500 0.6036(4)
C2_12 C 1.0000 0.7500 0.6659(4)
C5_12 C 1.0000 0.7500 0.7867(4)
C6_12 C 1.0000 0.7500 0.8478(4)
O3_8 O 0.9499(3) 0.78624(19) 0.57892(15)
C17_8 C 0.9378(5) 0.7839(4) 0.6962(2)
H11_8 H 0.8960 0.8079 0.6770
C18_8 C 0.9369(6) 0.7827(4) 0.7565(3)
H12_8 H 0.8923 0.8046 0.7758
C19_8 C 0.9237(5) 0.7348(3) 0.8847(3)
C20_8 C 0.8255(5) 0.7151(5) 0.8684(3)
H13_8 H 0.7875 0.7095 0.9019
H14_8 H 0.7955 0.7430 0.8448
H15_8 H 0.8304 0.6801 0.8481
loop_
_geom_bond_atom_site_label_1
_geom_bond_atom_site_label_2
_geom_bond_site_symmetry_1
_geom_bond_site_symmetry_2
Zn1 O1 1_555 1_555
O1 C1 1_555 1_555
O2 Zn1 1_555 1_555
N1 C7 1_555 1_555
N2 C15 1_555 1_555
C1 C2 1_555 1_555
C2 C3 1_555 1_555
C3 H1 1_555 1_555
C4 C3 1_555 1_555
H2 C4 1_555 1_555
C5 C4 1_555 1_555
C6 C5 1_555 1_555
C7 C6 1_555 1_555
C8 C7 1_555 1_555
H3 C8 1_555 1_555
H4 C8 1_555 1_555
H5 C8 1_555 1_555
C9 O2 1_555 1_555
C10 C9 1_555 1_555
C11 C10 1_555 1_555
H6 C11 1_555 1_555
C12 C11 1_555 1_555
H7 C12 1_555 1_555
C13 C12 1_555 1_555
C14 C13 1_555 1_555
C15 C14 1_555 1_555
C16 C15 1_555 1_555
H8 C16 1_555 1_555
H9 C16 1_555 1_555
H10 C16 1_555 1_555
Zn2 O3 1_555 1_555
Zn4 N2 1_555 1_555
Zn6 O4 1_555 1_555
Zn7 N6 1_555 1_555
O3 C1 1_555 1_555
O4 C9 1_555 1_555
O5 Zn2 1_555 1_555
N3 N1 1_555 1_555
N4 Zn1 1_555 1_555
N5 Zn2 1_555 1_555
N6 N2 1_555 1_555
N7 Zn1 1_555 1_555
N8 Zn2 1_555 1_555
C17 C2 1_555 1_555
H11 C17 1_555 1_555
C18 C5 1_555 1_555
H12 C18 1_555 1_555
C19 C6 1_555 1_555
C20 C19 1_555 1_555
H13 C20 1_555 1_555
H14 C20 1_555 1_555
H15 C20 1_555 1_555
C21 C10 1_555 1_555
H16 C21 1_555 1_555
C22 C13 1_555 1_555
H17 C22 1_555 1_555
C23 C14 1_555 1_555
C24 C23 1_555 1_555
H18 C24 1_555 1_555
H19 C24 1_555 1_555
H20 C24 1_555 1_555
N3 C19 1_555 1_555
N4 N5 1_555 1_555
N6 C23 1_555 1_555
C17 C18 1_555 1_555
C21 C22 1_555 1_555
Zn1_2 O1_2 1_555 1_555
O1_2 C1_2 1_555 1_555
O2_2 Zn1_2 1_555 1_555
N1_2 C7_2 1_555 1_555
C1_2 C2_2 1_555 1_555
C2_2 C3_2 1_555 1_555
C3_2 H1_2 1_555 1_555
C4_2 C3_2 1_555 1_555
H2_2 C4_2 1_555 1_555
C5_2 C4_2 1_555 1_555
C6_2 C5_2 1_555 1_555
C7_2 C6_2 1_555 1_555
C8_2 C7_2 1_555 1_555
H3_2 C8_2 1_555 1_555
H4_2 C8_2 1_555 1_555
H5_2 C8_2 1_555 1_555
C9_2 O2_2 1_555 1_555
C10_2 C9_2 1_555 1_555
C11_2 C10_2 1_555 1_555
H6_2 C11_2 1_555 1_555
C12_2 C11_2 1_555 1_555
H7_2 C12_2 1_555 1_555
C13_2 C12_2 1_555 1_555
C14_2 C13_2 1_555 1_555
Zn7 N1_2 1_555 1_555
Zn3 N6_2 1_555 1_555
N7_2 Zn1_2 1_555 1_555
C23_2 C14_2 1_555 1_555
C24_2 C23_2 1_555 1_555
H18_2 C24_2 1_555 1_555
H19_2 C24_2 1_555 1_555
N6_2 C23_2 1_555 1_555
N2_2 C15_2 1_555 1_555
C10_3 C9_3 1_555 1_555
C14_3 C13_3 1_555 1_555
C15_2 C14_3 1_555 1_555
C16_2 C15_2 1_555 1_555
H8_2 C16_2 1_555 1_555
H9_2 C16_2 1_555 1_555
Zn4_2 N2_2 1_555 1_555
Zn6_2 O4_2 1_555 1_555
O4_2 C9_3 1_555 1_555
C21_2 C10_3 1_555 1_555
H16_2 C21_2 1_555 1_555
C22_2 C13_3 1_555 1_555
H17_2 C22_2 1_555 1_555
C21_2 C22_2 1_555 1_555
C1_3 C2_3 1_555 1_555
C6_3 C5_3 1_555 1_555
Zn2_2 O3_2 1_555 1_555
Zn5_2 N3_2 1_555 1_555
O3_2 C1_3 1_555 1_555
O5_2 Zn2_2 1_555 1_555
N8_2 Zn2_2 1_555 1_555
C17_2 C2_3 1_555 1_555
H11_2 C17_2 1_555 1_555
C18_2 C5_3 1_555 1_555
H12_2 C18_2 1_555 1_555
C19_2 C6_3 1_555 1_555
C20_2 C19_2 1_555 1_555
H13_2 C20_2 1_555 1_555
H14_2 C20_2 1_555 1_555
H15_2 C20_2 1_555 1_555
N3_2 C19_2 1_555 1_555
C17_2 C18_2 1_555 1_555
N2_3 C15_3 1_555 1_555
C14_4 C13_4 1_555 1_555
C15_3 C14_4 1_555 1_555
C16_3 C15_3 1_555 1_555
H8_3 C16_3 1_555 1_555
H9_3 C16_3 1_555 1_555
Zn5 N2_3 1_555 1_555
C14_5 C13_5 1_555 1_555
Zn7_2 N6_3 1_555 1_555
C23_3 C14_5 1_555 1_555
C24_3 C23_3 1_555 1_555
H18_3 C24_3 1_555 1_555
H19_3 C24_3 1_555 1_555
N6_3 C23_3 1_555 1_555
C10_4 C9_4 1_555 1_555
O5_2 C9_4 1_555 1_555
C21_3 C10_4 1_555 1_555
H16_3 C21_3 1_555 1_555
H17_3 C22_3 1_555 1_555
N4_3 N5_3 1_555 1_555
C21_3 C22_3 1_555 1_555
Zn1_3 O1_3 1_555 1_555
O1_3 C1_4 1_555 1_555
O2_3 Zn1_3 1_555 1_555
N1_3 C7_3 1_555 1_555
C1_4 C2_4 1_555 1_555
C2_4 C3_3 1_555 1_555
C3_3 H1_3 1_555 1_555
C4_3 C3_3 1_555 1_555
H2_3 C4_3 1_555 1_555
C5_4 C4_3 1_555 1_555
C6_4 C5_4 1_555 1_555
C7_3 C6_4 1_555 1_555
C8_3 C7_3 1_555 1_555
H3_3 C8_3 1_555 1_555
H4_3 C8_3 1_555 1_555
H5_3 C8_3 1_555 1_555
C9_5 O2_3 1_555 1_555
C10_5 C9_5 1_555 1_555
C11_3 C10_5 1_555 1_555
H6_3 C11_3 1_555 1_555
C12_3 C11_3 1_555 1_555
H7_3 C12_3 1_555 1_555
Zn6_2 O3_3 1_555 1_555
Zn3_2 N1_3 1_555 1_555
Zn4 N3_3 1_555 1_555
O3_3 C1_4 1_555 1_555
N3_3 N1_3 1_555 1_555
N7_3 Zn1_3 1_555 1_555
N8_3 Zn6_2 1_555 1_555
C17_3 C2_4 1_555 1_555
H11_3 C17_3 1_555 1_555
C18_3 C5_4 1_555 1_555
H12_3 C18_3 1_555 1_555
C19_3 C6_4 1_555 1_555
C20_3 C19_3 1_555 1_555
H13_3 C20_3 1_555 1_555
H14_3 C20_3 1_555 1_555
H15_3 C20_3 1_555 1_555
N3_3 C19_3 1_555 1_555
C17_3 C18_3 1_555 1_555
C1_5 C2_5 1_555 1_555
C6_5 C5_5 1_555 1_555
Zn6 O3_4 1_555 1_555
O3_4 C1_5 1_555 1_555
N5_4 Zn6 1_555 1_555
N8_4 Zn6 1_555 1_555
C17_4 C2_5 1_555 1_555
H11_4 C17_4 1_555 1_555
C18_4 C5_5 1_555 1_555
H12_4 C18_4 1_555 1_555
C19_4 C6_5 1_555 1_555
C20_4 C19_4 1_555 1_555
H13_4 C20_4 1_555 1_555
H14_4 C20_4 1_555 1_555
H15_4 C20_4 1_555 1_555
N3_4 C19_4 1_555 1_555
C17_4 C18_4 1_555 1_555
Zn1_4 O1_4 1_555 1_555
O1_4 C1_6 1_555 1_555
O2_4 Zn1_4 1_555 1_555
N1_4 C7_4 1_555 1_555
C1_6 C2_6 1_555 1_555
C2_6 C3_4 1_555 1_555
C3_4 H1_4 1_555 1_555
C4_4 C3_4 1_555 1_555
H2_4 C4_4 1_555 1_555
C5_6 C4_4 1_555 1_555
C6_6 C5_6 1_555 1_555
C7_4 C6_6 1_555 1_555
C8_4 C7_4 1_555 1_555
H3_4 C8_4 1_555 1_555
H4_4 C8_4 1_555 1_555
H5_4 C8_4 1_555 1_555
C9_6 O2_4 1_555 1_555
C10_6 C9_6 1_555 1_555
C11_4 C10_6 1_555 1_555
H6_4 C11_4 1_555 1_555
C12_4 C11_4 1_555 1_555
H7_4 C12_4 1_555 1_555
O5 C9_6 1_555 1_555
N4_4 Zn1_4 1_555 1_555
N7_4 Zn1_4 1_555 1_555
C21_4 C10_6 1_555 1_555
H16_4 C21_4 1_555 1_555
H17_4 C22_4 1_555 1_555
C21_4 C22_4 1_555 1_555
N2_4 C15_4 1_555 1_555
C14_6 C13_6 1_555 1_555
C15_4 C14_6 1_555 1_555
C16_4 C15_4 1_555 1_555
H8_4 C16_4 1_555 1_555
H9_4 C16_4 1_555 1_555
H10_4 C16_4 1_555 1_555
Zn5_2 N2_4 1_555 1_555
Zn3_2 N6_4 1_555 1_555
N6_4 N2_4 1_555 1_555
C23_4 C14_6 1_555 1_555
C24_4 C23_4 1_555 1_555
H18_4 C24_4 1_555 1_555
H19_4 C24_4 1_555 1_555
H20_4 C24_4 1_555 1_555
N6_4 C23_4 1_555 1_555
Zn3_2 O1_5 1_555 1_555
O1_5 C1_7 1_555 1_555
O2_5 Zn3_2 1_555 1_555
N4_3 C7_5 1_555 1_555
N8 C15_5 1_555 1_555
C1_7 C2_7 1_555 1_555
C2_7 C3_5 1_555 1_555
C3_5 H1_5 1_555 1_555
C4_5 C3_5 1_555 1_555
H2_5 C4_5 1_555 1_555
C5_7 C4_5 1_555 1_555
C6_7 C5_7 1_555 1_555
C7_5 C6_7 1_555 1_555
C8_5 C7_5 1_555 1_555
H3_5 C8_5 1_555 1_555
H4_5 C8_5 1_555 1_555
H5_5 C8_5 1_555 1_555
C9_7 O2_5 1_555 1_555
C10_7 C9_7 1_555 1_555
C11_5 C10_7 1_555 1_555
H6_5 C11_5 1_555 1_555
C12_5 C11_5 1_555 1_555
H7_5 C12_5 1_555 1_555
C13_7 C12_5 1_555 1_555
C14_7 C13_7 1_555 1_555
C15_5 C14_7 1_555 1_555
C16_5 C15_5 1_555 1_555
H8_5 C16_5 1_555 1_555
H9_5 C16_5 1_555 1_555
H10_5 C16_5 1_555 1_555
Zn4 O3_5 1_555 1_555
Zn5_2 O4_3 1_555 1_555
O3_5 C1_7 1_555 1_555
O4_3 C9_7 1_555 1_555
O5_3 Zn4 1_555 1_555
N7_4 N8 1_555 1_555
C17_5 C2_7 1_555 1_555
H11_5 C17_5 1_555 1_555
C18_5 C5_7 1_555 1_555
H12_5 C18_5 1_555 1_555
C19_5 C6_7 1_555 1_555
C20_5 C19_5 1_555 1_555
H13_5 C20_5 1_555 1_555
H14_5 C20_5 1_555 1_555
H15_5 C20_5 1_555 1_555
C21_5 C10_7 1_555 1_555
H16_5 C21_5 1_555 1_555
C22_5 C13_7 1_555 1_555
H17_5 C22_5 1_555 1_555
C23_5 C14_7 1_555 1_555
C24_5 C23_5 1_555 1_555
H18_5 C24_5 1_555 1_555
H19_5 C24_5 1_555 1_555
H20_5 C24_5 1_555 1_555
N5_3 C19_5 1_555 1_555
N7_4 C23_5 1_555 1_555
C17_5 C18_5 1_555 1_555
C21_5 C22_5 1_555 1_555
C1_8 C2_8 1_555 1_555
C6_8 C5_8 1_555 1_555
Zn4_2 O3_6 1_555 1_555
O3_6 C1_8 1_555 1_555
O5_4 Zn4_2 1_555 1_555
C17_6 C2_8 1_555 1_555
H11_6 C17_6 1_555 1_555
C18_6 C5_8 1_555 1_555
H12_6 C18_6 1_555 1_555
C19_6 C6_8 1_555 1_555
C20_6 C19_6 1_555 1_555
H13_6 C20_6 1_555 1_555
H14_6 C20_6 1_555 1_555
H15_6 C20_6 1_555 1_555
N5_4 C19_6 1_555 1_555
C17_6 C18_6 1_555 1_555
N8_2 C15_6 1_555 1_555
C10_8 C9_8 1_555 1_555
C14_8 C13_8 1_555 1_555
C15_6 C14_8 1_555 1_555
C16_6 C15_6 1_555 1_555
H8_6 C16_6 1_555 1_555
H9_6 C16_6 1_555 1_555
Zn5 O4_4 1_555 1_555
O4_4 C9_8 1_555 1_555
C21_6 C10_8 1_555 1_555
H16_6 C21_6 1_555 1_555
C22_6 C13_8 1_555 1_555
H17_6 C22_6 1_555 1_555
C21_6 C22_6 1_555 1_555
Zn7_2 O1_6 1_555 1_555
O1_6 C1_9 1_555 1_555
O2_6 Zn7_2 1_555 1_555
N4_4 C7_6 1_555 1_555
C1_9 C2_9 1_555 1_555
C2_9 C3_6 1_555 1_555
C3_6 H1_6 1_555 1_555
C4_6 C3_6 1_555 1_555
H2_6 C4_6 1_555 1_555
C5_9 C4_6 1_555 1_555
C6_9 C5_9 1_555 1_555
C7_6 C6_9 1_555 1_555
C8_6 C7_6 1_555 1_555
H3_6 C8_6 1_555 1_555
H4_6 C8_6 1_555 1_555
H5_6 C8_6 1_555 1_555
C9_9 O2_6 1_555 1_555
C10_9 C9_9 1_555 1_555
C11_6 C10_9 1_555 1_555
H6_6 C11_6 1_555 1_555
C12_6 C11_6 1_555 1_555
H7_6 C12_6 1_555 1_555
C13_9 C12_6 1_555 1_555
C14_9 C13_9 1_555 1_555
C23_6 C14_9 1_555 1_555
C24_6 C23_6 1_555 1_555
H18_6 C24_6 1_555 1_555
H19_6 C24_6 1_555 1_555
N7_3 C23_6 1_555 1_555
Zn3 O1_7 1_555 1_555
O1_7 C1_10 1_555 1_555
O2_7 Zn3 1_555 1_555
N4 C7_7 1_555 1_555
C1_10 C2_10 1_555 1_555
C2_10 C3_7 1_555 1_555
C3_7 H1_7 1_555 1_555
C4_7 C3_7 1_555 1_555
H2_7 C4_7 1_555 1_555
C5_10 C4_7 1_555 1_555
C6_10 C5_10 1_555 1_555
C7_7 C6_10 1_555 1_555
C8_7 C7_7 1_555 1_555
H3_7 C8_7 1_555 1_555
H4_7 C8_7 1_555 1_555
H5_7 C8_7 1_555 1_555
C9_10 O2_7 1_555 1_555
C10_10 C9_10 1_555 1_555
C11_7 C10_10 1_555 1_555
H6_7 C11_7 1_555 1_555
C12_7 C11_7 1_555 1_555
H7_7 C12_7 1_555 1_555
Zn5 O3_7 1_555 1_555
O3_7 C1_10 1_555 1_555
C17_7 C2_10 1_555 1_555
H11_7 C17_7 1_555 1_555
C18_7 C5_10 1_555 1_555
H12_7 C18_7 1_555 1_555
C19_7 C6_10 1_555 1_555
C20_7 C19_7 1_555 1_555
H13_7 C20_7 1_555 1_555
H14_7 C20_7 1_555 1_555
H15_7 C20_7 1_555 1_555
N5 C19_7 1_555 1_555
C17_7 C18_7 1_555 1_555
C10_11 C9_11 1_555 1_555
O5_4 C9_11 1_555 1_555
C21_7 C10_11 1_555 1_555
H16_7 C21_7 1_555 1_555
H17_7 C22_7 1_555 1_555
C21_7 C22_7 1_555 1_555
C14_10 C13_10 1_555 1_555
C23_7 C14_10 1_555 1_555
C24_7 C23_7 1_555 1_555
H18_7 C24_7 1_555 1_555
H19_7 C24_7 1_555 1_555
N7_2 C23_7 1_555 1_555
N8_3 C15_7 1_555 1_555
C14_11 C13_11 1_555 1_555
C15_7 C14_11 1_555 1_555
C16_7 C15_7 1_555 1_555
H8_7 C16_7 1_555 1_555
H9_7 C16_7 1_555 1_555
N8_4 C15_8 1_555 1_555
C14_12 C13_12 1_555 1_555
C15_8 C14_12 1_555 1_555
C16_8 C15_8 1_555 1_555
H8_8 C16_8 1_555 1_555
H9_8 C16_8 1_555 1_555
H10_8 C16_8 1_555 1_555
N7 N8_4 1_555 1_555
C23_8 C14_12 1_555 1_555
C24_8 C23_8 1_555 1_555
H18_8 C24_8 1_555 1_555
H19_8 C24_8 1_555 1_555
H20_8 C24_8 1_555 1_555
N7 C23_8 1_555 1_555
Zn7 O1_8 1_555 1_555
O1_8 C1_11 1_555 1_555
O2_8 Zn7 1_555 1_555
N4_2 C7_8 1_555 1_555
C1_11 C2_11 1_555 1_555
C2_11 C3_8 1_555 1_555
C3_8 H1_8 1_555 1_555
C4_8 C3_8 1_555 1_555
H2_8 C4_8 1_555 1_555
C5_11 C4_8 1_555 1_555
C6_11 C5_11 1_555 1_555
C7_8 C6_11 1_555 1_555
C8_8 C7_8 1_555 1_555
H3_8 C8_8 1_555 1_555
H4_8 C8_8 1_555 1_555
H5_8 C8_8 1_555 1_555
C9_12 O2_8 1_555 1_555
C10_12 C9_12 1_555 1_555
C11_8 C10_12 1_555 1_555
H6_8 C11_8 1_555 1_555
C12_8 C11_8 1_555 1_555
H7_8 C12_8 1_555 1_555
O5_3 C9_12 1_555 1_555
C21_8 C10_12 1_555 1_555
H16_8 C21_8 1_555 1_555
H17_8 C22_8 1_555 1_555
C21_8 C22_8 1_555 1_555
C1_12 C2_12 1_555 1_555
C6_12 C5_12 1_555 1_555
Zn5_2 O3_8 1_555 1_555
O3_8 C1_12 1_555 1_555
C17_8 C2_12 1_555 1_555
H11_8 C17_8 1_555 1_555
C18_8 C5_12 1_555 1_555
H12_8 C18_8 1_555 1_555
C19_8 C6_12 1_555 1_555
C20_8 C19_8 1_555 1_555
H13_8 C20_8 1_555 1_555
H14_8 C20_8 1_555 1_555
H15_8 C20_8 1_555 1_555
N5_2 C19_8 1_555 1_555
C17_8 C18_8 1_555 1_555

#END
