
###############################################################################
#
# This file contains modified crystal structure data generated from the
# MOF subset of the Cambridge Structural Database (CSD) v543 
# hosted by the Cambridge Crystallographic Data Centre (CCDC).
#
# This work is licensed under the Creative Commons
# Attribution-NonCommercial-ShareAlike 4.0 International License.
# To view a copy of this license, visit
# http://creativecommons.org/licenses/by-nc-sa/4.0/
# or send a letter to
# Creative Commons, PO Box 1866, Mountain View, CA 94042, USA.
#
# CIF created using the CSD Python API on 29 September 2022
# The structure has been converted into the P1 space group
# The structure has a 3D framework
# The original CSD entry FEHNOZ is in the orthorhombic crystal system
# The framework has been calculated to contain at least 10.0% void space
# The void calculation uses a probe of radius 1.32A, grid spacing 0.4
#
###############################################################################

data_FEHNOZ
_chemical_formula_moiety         '(C304 H176 Cd8 N32 O64)n'
_symmetry_cell_setting           triclinic
_symmetry_space_group_name_H-M   'P 1'
_symmetry_Int_Tables_number      1
_space_group_name_Hall           'P 1'
loop_
_symmetry_equiv_pos_site_id
_symmetry_equiv_pos_as_xyz
1 x,y,z
_cell_length_a                   20.383(4)
_cell_length_b                   20.776(4)
_cell_length_c                   16.393(3)
_cell_angle_alpha                90
_cell_angle_beta                 90
_cell_angle_gamma                90
_cell_volume                     6942.06
loop_
_atom_site_label
_atom_site_type_symbol
_atom_site_fract_x
_atom_site_fract_y
_atom_site_fract_z
O1 O 0.0258(3) 0.4932(2) 0.3501(4)
O2 O 0.0829(3) 0.5294(3) 0.4562(4)
O3 O 0.3682(3) 0.4955(3) 0.2181(4)
O4 O 0.3092(3) 0.4945(3) 0.1075(4)
C12 C 0.0162(4) 0.0217(4) 0.3366(6)
H7 H 0.0459 0.0409 0.3011
C27 C 0.0780(4) 0.5118(3) 0.3840(6)
C28 C 0.1372(4) 0.5145(3) 0.3303(5)
C29 C 0.1457(4) 0.4660(4) 0.2732(5)
H17 H 0.1128 0.4354 0.2666
C30 C 0.2023(4) 0.4619(4) 0.2252(5)
H18 H 0.2062 0.4291 0.1868
C31 C 0.2524(4) 0.5062(4) 0.2343(5)
C32 C 0.2458(4) 0.5575(3) 0.2909(5)
C33 C 0.1873(4) 0.5622(3) 0.3376(5)
C34 C 0.1795(4) 0.6169(4) 0.3886(5)
H19 H 0.1408 0.6222 0.4179
C35 C 0.2277(4) 0.6617(4) 0.3952(5)
H20 H 0.2216 0.6971 0.4291
C36 C 0.2855(4) 0.6554(4) 0.3524(5)
H21 H 0.3186 0.6857 0.3593
C37 C 0.2947(4) 0.6054(4) 0.3003(5)
H22 H 0.3334 0.6026 0.2705
C38 C 0.3149(5) 0.4973(4) 0.1837(6)
Cd3 Cd 0.42624(3) 0.50398(2) 0.09120(3)
Cd4 Cd 0.07376(3) 0.50398(2) 0.59120(3)
Cd1 Cd 0.92624(3) 0.49602(2) 0.40880(3)
O5 O 0.7908(3) 0.1495(3) 0.4143(4)
O6 O 0.9791(3) 0.1413(3) 0.2693(4)
N1 N 0.9178(3) 0.3860(3) 0.3790(4)
N2 N 0.8828(3) 0.1426(3) 0.3366(4)
C1 C 0.9526(4) 0.3565(4) 0.3226(5)
H1 H 0.9895 0.3773 0.3019
C2 C 0.9371(4) 0.2960(4) 0.2925(5)
H2 H 0.9628 0.2776 0.2518
C3 C 0.8844(4) 0.2633(3) 0.3224(5)
C4 C 0.8483(4) 0.2938(4) 0.3819(5)
H3 H 0.8122 0.2733 0.4050
C5 C 0.8658(4) 0.3547(4) 0.4071(5)
H4 H 0.8397 0.3750 0.4460
C6 C 0.8629(4) 0.1998(3) 0.2886(5)
H5 H 0.8154 0.1999 0.2842
H6 H 0.8805 0.1954 0.2339
C7 C 0.9427(5) 0.1150(4) 0.3170(5)
C8 C 0.8399(5) 0.1193(4) 0.3955(6)
C9 C 0.8553(4) 0.0566(4) 0.4330(5)
C10 C 0.9139(4) 0.0248(4) 0.4100(5)
C11 C 0.9588(4) 0.0530(3) 0.3556(5)
C18 C 0.8131(4) 0.0287(4) 0.4864(6)
H10 H 0.7750 0.0501 0.5020
O9 O 0.9171(3) 0.4706(3) 0.5438(4)
O10 O 0.8682(3) 0.5045(3) 0.2819(4)
O11 O 0.8092(3) 0.5055(3) 0.3925(4)
N5 N 0.9328(4) 0.6029(3) 0.4483(5)
O8 O 0.8581(5) 0.8415(3) 0.5732(5)
N3 N 0.9574(5) 0.8444(3) 0.5113(5)
C14 C 0.9866(5) 0.9334(4) 0.4210(6)
C15 C 0.9275(4) 0.9640(4) 0.4428(5)
C16 C 0.8822(5) 0.9357(4) 0.4967(6)
C17 C 0.8273(5) 0.9674(4) 0.5180(6)
H9 H 0.7981 0.9483 0.5544
C20 C 0.8968(7) 0.8704(5) 0.5302(7)
C21 C 0.9763(6) 0.7855(4) 0.5570(7)
H11 H 0.9556 0.7865 0.6102
C22 C 0.9576(6) 0.7231(4) 0.5146(7)
C23 C 0.9104(6) 0.6847(5) 0.5449(7)
H13 H 0.8856 0.6988 0.5890
C24 C 0.8982(5) 0.6250(5) 0.5121(7)
H14 H 0.8654 0.5994 0.5346
C25 C 0.9790(5) 0.6409(4) 0.4185(6)
C26 C 0.9935(5) 0.7011(4) 0.4495(6)
O7 O 0.5542(4) 0.1574(3) 0.0559(6)
N4 N 0.4328(4) 0.3971(3) 0.0517(5)
C13 C 0.5305(5) 0.0383(4) 0.1302(6)
H8 H 0.5697 0.0589 0.1429
C14_2 C 0.4866(5) 0.0666(4) 0.0790(6)
C15_2 C 0.4275(4) 0.0360(4) 0.0572(5)
C16_2 C 0.3822(5) 0.0643(4) 0.0033(6)
C19 C 0.5034(6) 0.1294(4) 0.0423(7)
C25_2 C 0.4790(5) 0.3591(4) 0.0815(6)
H15 H 0.5032 0.3738 0.1259
C26_2 C 0.4935(5) 0.2989(4) 0.0505(6)
H16 H 0.5268 0.2740 0.0731
O1_2 O 0.5258(3) 0.5068(2) 0.1499(4)
O2_2 O 0.5829(3) 0.4706(3) 0.0438(4)
O5_2 O 0.2908(3) 0.8505(3) 0.0857(4)
O6_2 O 0.4791(3) 0.8587(3) 0.2307(4)
N1_2 N 0.4178(3) 0.6140(3) 0.1210(4)
N2_2 N 0.3828(3) 0.8574(3) 0.1634(4)
C1_2 C 0.4526(4) 0.6435(4) 0.1774(5)
H1_2 H 0.4895 0.6227 0.1981
C2_2 C 0.4371(4) 0.7040(4) 0.2075(5)
H2_2 H 0.4628 0.7224 0.2482
C3_2 C 0.3844(4) 0.7367(3) 0.1776(5)
C4_2 C 0.3483(4) 0.7062(4) 0.1181(5)
H3_2 H 0.3122 0.7267 0.0950
C5_2 C 0.3658(4) 0.6453(4) 0.0929(5)
H4_2 H 0.3397 0.6250 0.0540
C6_2 C 0.3629(4) 0.8002(3) 0.2114(5)
H5_2 H 0.3154 0.8001 0.2158
H6_2 H 0.3805 0.8046 0.2661
C7_2 C 0.4427(5) 0.8850(4) 0.1830(5)
C8_2 C 0.3399(5) 0.8807(4) 0.1045(6)
C9_2 C 0.3553(4) 0.9434(4) 0.0670(5)
C10_2 C 0.4139(4) 0.9752(4) 0.0900(5)
C11_2 C 0.4588(4) 0.9470(3) 0.1444(5)
C12_2 C 0.5162(4) 0.9783(4) 0.1634(6)
H7_2 H 0.5459 0.9591 0.1989
C18_2 C 0.3131(4) 0.9713(4) 0.0136(6)
C27_2 C 0.5780(4) 0.4882(3) 0.1160(6)
C28_2 C 0.6372(4) 0.4855(3) 0.1697(5)
C29_2 C 0.6457(4) 0.5340(4) 0.2268(5)
H17_2 H 0.6128 0.5646 0.2334
C30_2 C 0.7023(4) 0.5381(4) 0.2748(5)
H18_2 H 0.7062 0.5709 0.3132
C31_2 C 0.7524(4) 0.4938(4) 0.2657(5)
C32_2 C 0.7458(4) 0.4425(3) 0.2091(5)
C33_2 C 0.6873(4) 0.4378(3) 0.1624(5)
C34_2 C 0.6795(4) 0.3831(4) 0.1114(5)
H19_2 H 0.6408 0.3778 0.0821
C35_2 C 0.7277(4) 0.3383(4) 0.1048(5)
H20_2 H 0.7216 0.3029 0.0709
C36_2 C 0.7855(4) 0.3446(4) 0.1476(5)
H21_2 H 0.8186 0.3143 0.1407
C37_2 C 0.7947(4) 0.3946(4) 0.1997(5)
H22_2 H 0.8334 0.3974 0.2295
C38_2 C 0.8149(5) 0.5027(4) 0.3163(6)
H10_2 H 0.2750 0.9499 0.9980
Cd4_2 Cd 0.57376(3) 0.49602(2) 0.90880(3)
O9_2 O 0.4171(3) 0.5294(3) 0.9562(4)
O8_2 O 0.1419(5) 0.1585(3) 0.4268(5)
N3_2 N 0.0426(5) 0.1556(3) 0.4887(5)
N4_2 N 0.0672(4) 0.3971(3) 0.5517(5)
C14_3 C 0.0134(5) 0.0666(4) 0.5790(6)
C15_3 C 0.0725(4) 0.0360(4) 0.5572(5)
C16_3 C 0.1178(5) 0.0643(4) 0.5033(6)
C17_2 C 0.1727(5) 0.0326(4) 0.4820(6)
H9_2 H 0.2019 0.0517 0.4456
C20_2 C 0.1032(7) 0.1296(5) 0.4698(7)
C21_2 C 0.0237(6) 0.2145(4) 0.4430(7)
H11_2 H 0.0444 0.2135 0.3898
C22_2 C 0.0424(6) 0.2769(4) 0.4854(7)
C23_2 C 0.0896(6) 0.3153(5) 0.4551(7)
H13_2 H 0.1144 0.3012 0.4110
C24_2 C 0.1018(5) 0.3750(5) 0.4879(7)
H14_2 H 0.1346 0.4006 0.4654
C25_3 C 0.0210(5) 0.3591(4) 0.5815(6)
C26_3 C 0.0065(5) 0.2989(4) 0.5505(6)
O5_3 O 0.2092(3) 0.8505(3) 0.5857(4)
O6_3 O 0.0209(3) 0.8587(3) 0.7307(4)
N1_3 N 0.0822(3) 0.6140(3) 0.6210(4)
N2_3 N 0.1172(3) 0.8574(3) 0.6634(4)
C1_3 C 0.0474(4) 0.6435(4) 0.6774(5)
H1_3 H 0.0105 0.6227 0.6981
C2_3 C 0.0629(4) 0.7040(4) 0.7075(5)
H2_3 H 0.0372 0.7224 0.7482
C3_3 C 0.1156(4) 0.7367(3) 0.6776(5)
C4_3 C 0.1517(4) 0.7062(4) 0.6181(5)
H3_3 H 0.1878 0.7267 0.5950
C5_3 C 0.1342(4) 0.6453(4) 0.5929(5)
H4_3 H 0.1603 0.6250 0.5540
C6_3 C 0.1371(4) 0.8002(3) 0.7114(5)
H5_3 H 0.1846 0.8001 0.7158
H6_3 H 0.1195 0.8046 0.7661
C7_3 C 0.0573(5) 0.8850(4) 0.6830(5)
C8_3 C 0.1601(5) 0.8807(4) 0.6045(6)
C9_3 C 0.1447(4) 0.9434(4) 0.5670(5)
C10_3 C 0.0861(4) 0.9752(4) 0.5900(5)
C11_3 C 0.0412(4) 0.9470(3) 0.6444(5)
C18_3 C 0.1869(4) 0.9713(4) 0.5136(6)
H10_3 H 0.2250 0.9499 0.4980
O10_2 O 0.1318(3) 0.4955(3) 0.7181(4)
O11_2 O 0.1908(3) 0.4945(3) 0.6075(4)
O1_3 O 0.9742(3) 0.5068(2) 0.6499(4)
O3_2 O 0.6318(3) 0.5045(3) 0.7819(4)
O4_2 O 0.6908(3) 0.5055(3) 0.8925(4)
C12_3 C 0.9838(4) 0.9783(4) 0.6634(6)
H7_3 H 0.9541 0.9591 0.6989
C27_3 C 0.9220(4) 0.4882(3) 0.6160(6)
C28_3 C 0.8628(4) 0.4855(3) 0.6697(5)
C29_3 C 0.8543(4) 0.5340(4) 0.7268(5)
H17_3 H 0.8872 0.5646 0.7334
C30_3 C 0.7977(4) 0.5381(4) 0.7748(5)
H18_3 H 0.7938 0.5709 0.8132
C31_3 C 0.7476(4) 0.4938(4) 0.7657(5)
C32_3 C 0.7542(4) 0.4425(3) 0.7091(5)
C33_3 C 0.8127(4) 0.4378(3) 0.6624(5)
C34_3 C 0.8205(4) 0.3831(4) 0.6114(5)
H19_3 H 0.8592 0.3778 0.5821
C35_3 C 0.7723(4) 0.3383(4) 0.6048(5)
H20_3 H 0.7784 0.3029 0.5709
C36_3 C 0.7145(4) 0.3446(4) 0.6476(5)
H21_3 H 0.6814 0.3143 0.6407
C37_3 C 0.7053(4) 0.3946(4) 0.6997(5)
H22_3 H 0.6666 0.3974 0.7295
C38_3 C 0.6851(5) 0.5027(4) 0.8163(6)
H10_4 H 0.7250 0.0501 0.0020
O1_4 O 0.4742(3) 0.4932(2) 0.8501(4)
O5_4 O 0.7092(3) 0.1495(3) 0.9143(4)
O6_4 O 0.5209(3) 0.1413(3) 0.7693(4)
N1_4 N 0.5822(3) 0.3860(3) 0.8790(4)
N2_4 N 0.6172(3) 0.1426(3) 0.8366(4)
C1_4 C 0.5474(4) 0.3565(4) 0.8226(5)
H1_4 H 0.5105 0.3773 0.8019
C2_4 C 0.5629(4) 0.2960(4) 0.7925(5)
H2_4 H 0.5372 0.2776 0.7518
C3_4 C 0.6156(4) 0.2633(3) 0.8224(5)
C4_4 C 0.6517(4) 0.2938(4) 0.8819(5)
H3_4 H 0.6878 0.2733 0.9050
C5_4 C 0.6342(4) 0.3547(4) 0.9071(5)
H4_4 H 0.6603 0.3750 0.9460
C6_4 C 0.6371(4) 0.1998(3) 0.7886(5)
H5_4 H 0.6846 0.1999 0.7842
H6_4 H 0.6195 0.1954 0.7339
C7_4 C 0.5573(5) 0.1150(4) 0.8170(5)
C8_4 C 0.6601(5) 0.1193(4) 0.8955(6)
C9_4 C 0.6447(4) 0.0566(4) 0.9330(5)
C10_4 C 0.5861(4) 0.0248(4) 0.9100(5)
C11_4 C 0.5412(4) 0.0530(3) 0.8556(5)
C12_4 C 0.4838(4) 0.0217(4) 0.8366(6)
H7_4 H 0.4541 0.0409 0.8011
C18_4 C 0.6869(4) 0.0287(4) 0.9864(6)
C27_4 C 0.4220(4) 0.5118(3) 0.8840(6)
C28_4 C 0.3628(4) 0.5145(3) 0.8303(5)
C29_4 C 0.3543(4) 0.4660(4) 0.7732(5)
H17_4 H 0.3872 0.4354 0.7666
C30_4 C 0.2977(4) 0.4619(4) 0.7252(5)
H18_4 H 0.2938 0.4291 0.6868
C31_4 C 0.2476(4) 0.5062(4) 0.7343(5)
C32_4 C 0.2542(4) 0.5575(3) 0.7909(5)
C33_4 C 0.3127(4) 0.5622(3) 0.8376(5)
C34_4 C 0.3205(4) 0.6169(4) 0.8886(5)
H19_4 H 0.3592 0.6222 0.9179
C35_4 C 0.2723(4) 0.6617(4) 0.8952(5)
H20_4 H 0.2784 0.6971 0.9291
C36_4 C 0.2145(4) 0.6554(4) 0.8524(5)
H21_4 H 0.1814 0.6857 0.8593
C37_4 C 0.2053(4) 0.6054(4) 0.8003(5)
H22_4 H 0.1666 0.6026 0.7705
C38_4 C 0.1851(5) 0.4973(4) 0.6837(6)
N5_2 N 0.5672(4) 0.6029(3) 0.9483(5)
O7_2 O 0.4458(4) 0.8426(3) 0.9441(6)
C13_2 C 0.4695(5) 0.9617(4) 0.8698(6)
H8_2 H 0.4303 0.9411 0.8571
C14_4 C 0.5134(5) 0.9334(4) 0.9210(6)
C15_4 C 0.5725(4) 0.9640(4) 0.9428(5)
C16_4 C 0.6178(5) 0.9357(4) 0.9967(6)
C19_2 C 0.4966(6) 0.8706(4) 0.9577(7)
C25_4 C 0.5210(5) 0.6409(4) 0.9185(6)
H15_2 H 0.4968 0.6262 0.8741
C26_4 C 0.5065(5) 0.7011(4) 0.9495(6)
H16_2 H 0.4732 0.7260 0.9269
O7_3 O 0.0542(4) 0.8426(3) 0.4441(6)
C13_3 C 0.0305(5) 0.9617(4) 0.3698(6)
H8_3 H 0.0697 0.9411 0.3571
C19_3 C 0.0034(6) 0.8706(4) 0.4577(7)
H12 H 0.0234 0.7859 0.5654
H15_3 H 0.0032 0.6262 0.3741
H16_3 H 0.0268 0.7260 0.4269
Cd2 Cd 0.57376(3) 0.00398(2) 0.40880(3)
O1_5 O 0.4742(3) 0.0068(2) 0.3501(4)
O3_3 O 0.1318(3) 0.0045(3) 0.2181(4)
O4_3 O 0.1908(3) 0.0055(3) 0.1075(4)
O5_5 O 0.7092(3) 0.3505(3) 0.4143(4)
O6_5 O 0.5209(3) 0.3587(3) 0.2693(4)
O7_4 O 0.4458(4) 0.6574(3) 0.4441(6)
O8_3 O 0.6419(5) 0.6585(3) 0.5732(5)
N1_5 N 0.5822(3) 0.1140(3) 0.3790(4)
N2_5 N 0.6172(3) 0.3574(3) 0.3366(4)
N3_3 N 0.5426(5) 0.6556(3) 0.5113(5)
N4_3 N 0.5672(4) 0.8971(3) 0.4483(5)
C1_5 C 0.5474(4) 0.1435(4) 0.3226(5)
H1_5 H 0.5105 0.1227 0.3019
C2_5 C 0.5629(4) 0.2040(4) 0.2925(5)
H2_5 H 0.5372 0.2224 0.2518
C3_5 C 0.6156(4) 0.2367(3) 0.3224(5)
C4_5 C 0.6517(4) 0.2062(4) 0.3819(5)
H3_5 H 0.6878 0.2267 0.4050
C5_5 C 0.6342(4) 0.1453(4) 0.4071(5)
H4_5 H 0.6603 0.1250 0.4460
C6_5 C 0.6371(4) 0.3002(3) 0.2886(5)
H5_5 H 0.6846 0.3001 0.2842
H6_5 H 0.6195 0.3046 0.2339
C7_5 C 0.5573(5) 0.3850(4) 0.3170(5)
C8_5 C 0.6601(5) 0.3807(4) 0.3955(6)
C9_5 C 0.6447(4) 0.4434(4) 0.4330(5)
C10_5 C 0.5861(4) 0.4752(4) 0.4100(5)
C11_5 C 0.5412(4) 0.4470(3) 0.3556(5)
C12_5 C 0.4838(4) 0.4783(4) 0.3366(6)
H7_5 H 0.4541 0.4591 0.3011
C13_4 C 0.4695(5) 0.5383(4) 0.3698(6)
H8_4 H 0.4303 0.5589 0.3571
C14_5 C 0.5134(5) 0.5666(4) 0.4210(6)
C15_5 C 0.5725(4) 0.5360(4) 0.4428(5)
C16_5 C 0.6178(5) 0.5643(4) 0.4967(6)
C17_3 C 0.6727(5) 0.5326(4) 0.5180(6)
H9_3 H 0.7019 0.5517 0.5544
C18_5 C 0.6869(4) 0.4713(4) 0.4864(6)
H10_5 H 0.7250 0.4499 0.5020
C19_4 C 0.4966(6) 0.6294(4) 0.4577(7)
C20_3 C 0.6032(7) 0.6296(5) 0.5302(7)
C21_3 C 0.5237(6) 0.7145(4) 0.5570(7)
H11_3 H 0.5444 0.7135 0.6102
H12_2 H 0.4766 0.7141 0.5654
C22_3 C 0.5424(6) 0.7769(4) 0.5146(7)
C23_3 C 0.5896(6) 0.8153(5) 0.5449(7)
H13_3 H 0.6144 0.8012 0.5890
C24_3 C 0.6018(5) 0.8750(5) 0.5121(7)
H14_3 H 0.6346 0.9006 0.5346
C25_5 C 0.5210(5) 0.8591(4) 0.4185(6)
H15_4 H 0.4968 0.8738 0.3741
C26_5 C 0.5065(5) 0.7989(4) 0.4495(6)
H16_4 H 0.4732 0.7740 0.4269
C29_5 C 0.3543(4) 0.0340(4) 0.2732(5)
H17_5 H 0.3872 0.0646 0.2666
C30_5 C 0.2977(4) 0.0381(4) 0.2252(5)
H18_5 H 0.2938 0.0709 0.1868
C38_5 C 0.1851(5) 0.0027(4) 0.1837(6)
O9_3 O 0.5829(3) 0.0294(3) 0.5438(4)
O2_3 O 0.4171(3) 0.9706(3) 0.4562(4)
C27_5 C 0.4220(4) 0.9882(3) 0.3840(6)
C28_5 C 0.3628(4) 0.9855(3) 0.3303(5)
C31_5 C 0.2476(4) 0.9938(4) 0.2343(5)
C32_5 C 0.2542(4) 0.9425(3) 0.2909(5)
C33_5 C 0.3127(4) 0.9378(3) 0.3376(5)
C34_5 C 0.3205(4) 0.8831(4) 0.3886(5)
H19_5 H 0.3592 0.8778 0.4179
C35_5 C 0.2723(4) 0.8383(4) 0.3952(5)
H20_5 H 0.2784 0.8029 0.4291
C36_5 C 0.2145(4) 0.8446(4) 0.3524(5)
H21_5 H 0.1814 0.8143 0.3593
C37_5 C 0.2053(4) 0.8946(4) 0.3003(5)
H22_5 H 0.1666 0.8974 0.2705
Cd3_2 Cd 0.07376(3) 0.99602(2) 0.09120(3)
Cd4_3 Cd 0.42624(3) 0.99602(2) 0.59120(3)
O10_3 O 0.6318(3) 0.9955(3) 0.2819(4)
O11_3 O 0.6908(3) 0.9945(3) 0.3925(4)
N5_3 N 0.0672(4) 0.1029(3) 0.0517(5)
O5_6 O 0.2092(3) 0.6495(3) 0.0857(4)
O6_6 O 0.0209(3) 0.6413(3) 0.2307(4)
N1_6 N 0.0822(3) 0.8860(3) 0.1210(4)
N2_6 N 0.1172(3) 0.6426(3) 0.1634(4)
C1_6 C 0.0474(4) 0.8565(4) 0.1774(5)
H1_6 H 0.0105 0.8773 0.1981
C2_6 C 0.0629(4) 0.7960(4) 0.2075(5)
H2_6 H 0.0372 0.7776 0.2482
C3_6 C 0.1156(4) 0.7633(3) 0.1776(5)
C4_6 C 0.1517(4) 0.7938(4) 0.1181(5)
H3_6 H 0.1878 0.7733 0.0950
C5_6 C 0.1342(4) 0.8547(4) 0.0929(5)
H4_6 H 0.1603 0.8750 0.0540
C6_6 C 0.1371(4) 0.6998(3) 0.2114(5)
H5_6 H 0.1846 0.6999 0.2158
H6_6 H 0.1195 0.6954 0.2661
C7_6 C 0.0573(5) 0.6150(4) 0.1830(5)
C8_6 C 0.1601(5) 0.6193(4) 0.1045(6)
C9_6 C 0.1447(4) 0.5566(4) 0.0670(5)
C10_6 C 0.0861(4) 0.5248(4) 0.0900(5)
C11_6 C 0.0412(4) 0.5530(3) 0.1444(5)
C14_6 C 0.0134(5) 0.4334(4) 0.0790(6)
C15_6 C 0.0725(4) 0.4640(4) 0.0572(5)
C16_6 C 0.1178(5) 0.4357(4) 0.0033(6)
C18_6 C 0.1869(4) 0.5287(4) 0.0136(6)
C25_6 C 0.0210(5) 0.1409(4) 0.0815(6)
C26_6 C 0.0065(5) 0.2011(4) 0.0505(6)
O8_4 O 0.1419(5) 0.3415(3) 0.9268(5)
N3_4 N 0.0426(5) 0.3444(3) 0.9887(5)
C17_4 C 0.1727(5) 0.4674(4) 0.9820(6)
H9_4 H 0.2019 0.4483 0.9456
H10_6 H 0.2250 0.5501 0.9980
C20_4 C 0.1032(7) 0.3704(5) 0.9698(7)
C21_4 C 0.0237(6) 0.2855(4) 0.9430(7)
H11_4 H 0.0444 0.2865 0.8898
C22_4 C 0.0424(6) 0.2231(4) 0.9854(7)
C23_4 C 0.0896(6) 0.1847(5) 0.9551(7)
H13_4 H 0.1144 0.1988 0.9110
C24_4 C 0.1018(5) 0.1250(5) 0.9879(7)
H14_4 H 0.1346 0.0994 0.9654
O9_4 O 0.0829(3) 0.9706(3) 0.9562(4)
O2_4 O 0.9171(3) 0.0294(3) 0.0438(4)
C27_6 C 0.9220(4) 0.0118(3) 0.1160(6)
C28_6 C 0.8628(4) 0.0145(3) 0.1697(5)
C31_6 C 0.7476(4) 0.0062(4) 0.2657(5)
C32_6 C 0.7542(4) 0.0575(3) 0.2091(5)
C33_6 C 0.8127(4) 0.0622(3) 0.1624(5)
C34_6 C 0.8205(4) 0.1169(4) 0.1114(5)
H19_6 H 0.8592 0.1222 0.0821
C35_6 C 0.7723(4) 0.1617(4) 0.1048(5)
H20_6 H 0.7784 0.1971 0.0709
C36_6 C 0.7145(4) 0.1554(4) 0.1476(5)
H21_6 H 0.6814 0.1857 0.1407
C37_6 C 0.7053(4) 0.1054(4) 0.1997(5)
H22_6 H 0.6666 0.1026 0.2295
Cd4_4 Cd 0.92624(3) 0.00398(2) 0.90880(3)
O1_6 O 0.9742(3) 0.9932(2) 0.1499(4)
O7_5 O 0.9458(4) 0.3426(3) 0.0559(6)
C12_6 C 0.9838(4) 0.5217(4) 0.1634(6)
H7_6 H 0.9541 0.5409 0.1989
C13_5 C 0.9695(5) 0.4617(4) 0.1302(6)
H8_5 H 0.9303 0.4411 0.1429
C19_5 C 0.9966(6) 0.3706(4) 0.0423(7)
H15_5 H 0.9968 0.1262 0.1259
H16_5 H 0.9732 0.2260 0.0731
C29_6 C 0.8543(4) 0.9660(4) 0.2268(5)
H17_6 H 0.8872 0.9354 0.2334
C30_6 C 0.7977(4) 0.9619(4) 0.2748(5)
H18_6 H 0.7938 0.9291 0.3132
C38_6 C 0.6851(5) 0.9973(4) 0.3163(6)
C27_7 C 0.5780(4) 0.0118(3) 0.6160(6)
C28_7 C 0.6372(4) 0.0145(3) 0.6697(5)
C31_7 C 0.7524(4) 0.0062(4) 0.7657(5)
C32_7 C 0.7458(4) 0.0575(3) 0.7091(5)
C33_7 C 0.6873(4) 0.0622(3) 0.6624(5)
C34_7 C 0.6795(4) 0.1169(4) 0.6114(5)
H19_7 H 0.6408 0.1222 0.5821
C35_7 C 0.7277(4) 0.1617(4) 0.6048(5)
H20_7 H 0.7216 0.1971 0.5709
C36_7 C 0.7855(4) 0.1554(4) 0.6476(5)
H21_7 H 0.8186 0.1857 0.6407
C37_7 C 0.7947(4) 0.1054(4) 0.6997(5)
H22_7 H 0.8334 0.1026 0.7295
O10_4 O 0.3682(3) 0.0045(3) 0.7181(4)
O11_4 O 0.3092(3) 0.0055(3) 0.6075(4)
N5_4 N 0.4328(4) 0.1029(3) 0.5517(5)
O1_7 O 0.5258(3) 0.9932(2) 0.6499(4)
O3_4 O 0.8682(3) 0.9955(3) 0.7819(4)
O4_4 O 0.8092(3) 0.9945(3) 0.8925(4)
O5_7 O 0.2908(3) 0.6495(3) 0.5857(4)
O6_7 O 0.4791(3) 0.6413(3) 0.7307(4)
O7_6 O 0.5542(4) 0.3426(3) 0.5559(6)
O8_5 O 0.3581(5) 0.3415(3) 0.4268(5)
N1_7 N 0.4178(3) 0.8860(3) 0.6210(4)
N2_7 N 0.3828(3) 0.6426(3) 0.6634(4)
N3_5 N 0.4574(5) 0.3444(3) 0.4887(5)
C1_7 C 0.4526(4) 0.8565(4) 0.6774(5)
H1_7 H 0.4895 0.8773 0.6981
C2_7 C 0.4371(4) 0.7960(4) 0.7075(5)
H2_7 H 0.4628 0.7776 0.7482
C3_7 C 0.3844(4) 0.7633(3) 0.6776(5)
C4_7 C 0.3483(4) 0.7938(4) 0.6181(5)
H3_7 H 0.3122 0.7733 0.5950
C5_7 C 0.3658(4) 0.8547(4) 0.5929(5)
H4_7 H 0.3397 0.8750 0.5540
C6_7 C 0.3629(4) 0.6998(3) 0.7114(5)
H5_7 H 0.3154 0.6999 0.7158
H6_7 H 0.3805 0.6954 0.7661
C7_7 C 0.4427(5) 0.6150(4) 0.6830(5)
C8_7 C 0.3399(5) 0.6193(4) 0.6045(6)
C9_7 C 0.3553(4) 0.5566(4) 0.5670(5)
C10_7 C 0.4139(4) 0.5248(4) 0.5900(5)
C11_7 C 0.4588(4) 0.5530(3) 0.6444(5)
C12_7 C 0.5162(4) 0.5217(4) 0.6634(6)
H7_7 H 0.5459 0.5409 0.6989
C13_6 C 0.5305(5) 0.4617(4) 0.6302(6)
H8_6 H 0.5697 0.4411 0.6429
C14_7 C 0.4866(5) 0.4334(4) 0.5790(6)
C15_7 C 0.4275(4) 0.4640(4) 0.5572(5)
C16_7 C 0.3822(5) 0.4357(4) 0.5033(6)
C17_5 C 0.3273(5) 0.4674(4) 0.4820(6)
H9_5 H 0.2981 0.4483 0.4456
C18_7 C 0.3131(4) 0.5287(4) 0.5136(6)
H10_7 H 0.2750 0.5501 0.4980
C19_6 C 0.5034(6) 0.3706(4) 0.5423(7)
C20_5 C 0.3968(7) 0.3704(5) 0.4698(7)
C21_5 C 0.4763(6) 0.2855(4) 0.4430(7)
H11_5 H 0.4556 0.2865 0.3898
H12_3 H 0.5234 0.2859 0.4346
C22_5 C 0.4576(6) 0.2231(4) 0.4854(7)
C23_5 C 0.4104(6) 0.1847(5) 0.4551(7)
H13_5 H 0.3856 0.1988 0.4110
C24_5 C 0.3982(5) 0.1250(5) 0.4879(7)
H14_5 H 0.3654 0.0994 0.4654
C25_7 C 0.4790(5) 0.1409(4) 0.5815(6)
H15_6 H 0.5032 0.1262 0.6259
C26_7 C 0.4935(5) 0.2011(4) 0.5505(6)
H16_6 H 0.5268 0.2260 0.5731
C29_7 C 0.6457(4) 0.9660(4) 0.7268(5)
H17_7 H 0.6128 0.9354 0.7334
C30_7 C 0.7023(4) 0.9619(4) 0.7748(5)
H18_7 H 0.7062 0.9291 0.8132
C38_7 C 0.8149(5) 0.9973(4) 0.8163(6)
O1_8 O 0.0258(3) 0.0068(2) 0.8501(4)
O7_7 O 0.0542(4) 0.6574(3) 0.9441(6)
C12_8 C 0.0162(4) 0.4783(4) 0.8366(6)
H7_8 H 0.0459 0.4591 0.8011
C13_7 C 0.0305(5) 0.5383(4) 0.8698(6)
H8_7 H 0.0697 0.5589 0.8571
C19_7 C 0.0034(6) 0.6294(4) 0.9577(7)
H15_7 H 0.0032 0.8738 0.8741
H16_7 H 0.0268 0.7740 0.9269
C29_8 C 0.1457(4) 0.0340(4) 0.7732(5)
H17_8 H 0.1128 0.0646 0.7666
C30_8 C 0.2023(4) 0.0381(4) 0.7252(5)
H18_8 H 0.2062 0.0709 0.6868
C38_8 C 0.3149(5) 0.0027(4) 0.6837(6)
C27_8 C 0.0780(4) 0.9882(3) 0.8840(6)
C28_8 C 0.1372(4) 0.9855(3) 0.8303(5)
C31_8 C 0.2524(4) 0.9938(4) 0.7343(5)
C32_8 C 0.2458(4) 0.9425(3) 0.7909(5)
C33_8 C 0.1873(4) 0.9378(3) 0.8376(5)
C34_8 C 0.1795(4) 0.8831(4) 0.8886(5)
H19_8 H 0.1408 0.8778 0.9179
C35_8 C 0.2277(4) 0.8383(4) 0.8952(5)
H20_8 H 0.2216 0.8029 0.9291
C36_8 C 0.2855(4) 0.8446(4) 0.8524(5)
H21_8 H 0.3186 0.8143 0.8593
C37_8 C 0.2947(4) 0.8946(4) 0.8003(5)
H22_8 H 0.3334 0.8974 0.7705
O8_6 O 0.8581(5) 0.6585(3) 0.0732(5)
N3_6 N 0.9574(5) 0.6556(3) 0.0113(5)
C17_6 C 0.8273(5) 0.5326(4) 0.0180(6)
H9_6 H 0.7981 0.5517 0.0544
H10_8 H 0.7750 0.4499 0.0020
C20_6 C 0.8968(7) 0.6296(5) 0.0302(7)
C21_6 C 0.9763(6) 0.7145(4) 0.0570(7)
H11_6 H 0.9556 0.7135 0.1102
C22_6 C 0.9576(6) 0.7769(4) 0.0146(7)
C23_6 C 0.9104(6) 0.8153(5) 0.0449(7)
H13_6 H 0.8856 0.8012 0.0890
C24_6 C 0.8982(5) 0.8750(5) 0.0121(7)
H14_6 H 0.8654 0.9006 0.0346
O5_8 O 0.7908(3) 0.3505(3) 0.9143(4)
O6_8 O 0.9791(3) 0.3587(3) 0.7693(4)
N1_8 N 0.9178(3) 0.1140(3) 0.8790(4)
N2_8 N 0.8828(3) 0.3574(3) 0.8366(4)
N4_4 N 0.9328(4) 0.8971(3) 0.9483(5)
C1_8 C 0.9526(4) 0.1435(4) 0.8226(5)
H1_8 H 0.9895 0.1227 0.8019
C2_8 C 0.9371(4) 0.2040(4) 0.7925(5)
H2_8 H 0.9628 0.2224 0.7518
C3_8 C 0.8844(4) 0.2367(3) 0.8224(5)
C4_8 C 0.8483(4) 0.2062(4) 0.8819(5)
H3_8 H 0.8122 0.2267 0.9050
C5_8 C 0.8658(4) 0.1453(4) 0.9071(5)
H4_8 H 0.8397 0.1250 0.9460
C6_8 C 0.8629(4) 0.3002(3) 0.7886(5)
H5_8 H 0.8154 0.3001 0.7842
H6_8 H 0.8805 0.3046 0.7339
C7_8 C 0.9427(5) 0.3850(4) 0.8170(5)
C8_8 C 0.8399(5) 0.3807(4) 0.8955(6)
C9_8 C 0.8553(4) 0.4434(4) 0.9330(5)
C10_8 C 0.9139(4) 0.4752(4) 0.9100(5)
C11_8 C 0.9588(4) 0.4470(3) 0.8556(5)
C14_8 C 0.9866(5) 0.5666(4) 0.9210(6)
C15_8 C 0.9275(4) 0.5360(4) 0.9428(5)
C16_8 C 0.8822(5) 0.5643(4) 0.9967(6)
C18_8 C 0.8131(4) 0.4713(4) 0.9864(6)
C25_8 C 0.9790(5) 0.8591(4) 0.9185(6)
C26_8 C 0.9935(5) 0.7989(4) 0.9495(6)
O8_7 O 0.3581(5) 0.1585(3) 0.9268(5)
N3_7 N 0.4574(5) 0.1556(3) 0.9887(5)
C17_7 C 0.3273(5) 0.0326(4) 0.9820(6)
H9_7 H 0.2981 0.0517 0.9456
C20_7 C 0.3968(7) 0.1296(5) 0.9698(7)
C21_7 C 0.4763(6) 0.2145(4) 0.9430(7)
H11_7 H 0.4556 0.2135 0.8898
H12_4 H 0.5234 0.2141 0.9346
C22_7 C 0.4576(6) 0.2769(4) 0.9854(7)
C23_7 C 0.4104(6) 0.3153(5) 0.9551(7)
H13_7 H 0.3856 0.3012 0.9110
C24_7 C 0.3982(5) 0.3750(5) 0.9879(7)
H14_7 H 0.3654 0.4006 0.9654
H12_5 H 0.9766 0.2859 0.9346
O7_8 O 0.9458(4) 0.1574(3) 0.5559(6)
C13_8 C 0.9695(5) 0.0383(4) 0.6302(6)
H8_8 H 0.9303 0.0589 0.6429
C19_8 C 0.9966(6) 0.1294(4) 0.5423(7)
H12_6 H 0.9766 0.2141 0.4346
H15_8 H 0.9968 0.3738 0.6259
H16_8 H 0.9732 0.2740 0.5731
O8_8 O 0.6419(5) 0.8415(3) 0.0732(5)
N3_8 N 0.5426(5) 0.8444(3) 0.0113(5)
C17_8 C 0.6727(5) 0.9674(4) 0.0180(6)
H9_8 H 0.7019 0.9483 0.0544
C20_8 C 0.6032(7) 0.8704(5) 0.0302(7)
C21_8 C 0.5237(6) 0.7855(4) 0.0570(7)
H11_8 H 0.5444 0.7865 0.1102
H12_7 H 0.4766 0.7859 0.0654
C22_8 C 0.5424(6) 0.7231(4) 0.0146(7)
C23_8 C 0.5896(6) 0.6847(5) 0.0449(7)
H13_8 H 0.6144 0.6988 0.0890
C24_8 C 0.6018(5) 0.6250(5) 0.0121(7)
H14_8 H 0.6346 0.5994 0.0346
H12_8 H 0.0234 0.7141 0.0654
loop_
_geom_bond_atom_site_label_1
_geom_bond_atom_site_label_2
_geom_bond_site_symmetry_1
_geom_bond_site_symmetry_2
O1 C27 1_555 1_555
O2 C27 1_555 1_555
O3 C38 1_555 1_555
O4 C38 1_555 1_555
H7 C12 1_555 1_555
C27 C28 1_555 1_555
C28 C29 1_555 1_555
C29 H17 1_555 1_555
C30 C29 1_555 1_555
H18 C30 1_555 1_555
C31 C30 1_555 1_555
C32 C31 1_555 1_555
C33 C28 1_555 1_555
C34 C33 1_555 1_555
H19 C34 1_555 1_555
C35 C34 1_555 1_555
H20 C35 1_555 1_555
C36 C35 1_555 1_555
H21 C36 1_555 1_555
C37 C32 1_555 1_555
H22 C37 1_555 1_555
C38 C31 1_555 1_555
Cd3 O3 1_555 1_555
Cd4 O2 1_555 1_555
O4 Cd3 1_555 1_555
C32 C33 1_555 1_555
C36 C37 1_555 1_555
O5 C8 1_555 1_555
O6 C7 1_555 1_555
N1 Cd1 1_555 1_555
N2 C6 1_555 1_555
C1 N1 1_555 1_555
H1 C1 1_555 1_555
C2 C1 1_555 1_555
H2 C2 1_555 1_555
C3 C2 1_555 1_555
C4 C3 1_555 1_555
H3 C4 1_555 1_555
C5 N1 1_555 1_555
H4 C5 1_555 1_555
C6 C3 1_555 1_555
H5 C6 1_555 1_555
H6 C6 1_555 1_555
C7 N2 1_555 1_555
C8 N2 1_555 1_555
C9 C8 1_555 1_555
C10 C9 1_555 1_555
C11 C7 1_555 1_555
C18 C9 1_555 1_555
H10 C18 1_555 1_555
O9 Cd1 1_555 1_555
O10 Cd1 1_555 1_555
O11 Cd1 1_555 1_555
N5 Cd1 1_555 1_555
C4 C5 1_555 1_555
C10 C11 1_555 1_555
O8 C20 1_555 1_555
N5 C24 1_555 1_555
C16 C15 1_555 1_555
C17 C16 1_555 1_555
H9 C17 1_555 1_555
C20 N3 1_555 1_555
C21 N3 1_555 1_555
H11 C21 1_555 1_555
C22 C21 1_555 1_555
C23 C22 1_555 1_555
H13 C23 1_555 1_555
C24 C23 1_555 1_555
H14 C24 1_555 1_555
C25 N5 1_555 1_555
C26 C22 1_555 1_555
C14 C15 1_555 1_555
C16 C20 1_555 1_555
C25 C26 1_555 1_555
O7 C19 1_555 1_555
H8 C13 1_555 1_555
C14_2 C13 1_555 1_555
C16_2 C15_2 1_555 1_555
C19 C14_2 1_555 1_555
C25_2 N4 1_555 1_555
H15 C25_2 1_555 1_555
H16 C26_2 1_555 1_555
Cd3 N4 1_555 1_555
C14_2 C15_2 1_555 1_555
C25_2 C26_2 1_555 1_555
Cd3 O1_2 1_555 1_555
O1_2 C27_2 1_555 1_555
O2_2 C27_2 1_555 1_555
O10 C38_2 1_555 1_555
O11 C38_2 1_555 1_555
O5_2 C8_2 1_555 1_555
O6_2 C7_2 1_555 1_555
N1_2 Cd3 1_555 1_555
N2_2 C6_2 1_555 1_555
C1_2 N1_2 1_555 1_555
H1_2 C1_2 1_555 1_555
C2_2 C1_2 1_555 1_555
H2_2 C2_2 1_555 1_555
C3_2 C2_2 1_555 1_555
C4_2 C3_2 1_555 1_555
H3_2 C4_2 1_555 1_555
C5_2 N1_2 1_555 1_555
H4_2 C5_2 1_555 1_555
C6_2 C3_2 1_555 1_555
H5_2 C6_2 1_555 1_555
H6_2 C6_2 1_555 1_555
C7_2 N2_2 1_555 1_555
C8_2 N2_2 1_555 1_555
C9_2 C8_2 1_555 1_555
C10_2 C9_2 1_555 1_555
C11_2 C7_2 1_555 1_555
C12_2 C11_2 1_555 1_555
H7_2 C12_2 1_555 1_555
C18_2 C9_2 1_555 1_555
C27_2 C28_2 1_555 1_555
C28_2 C29_2 1_555 1_555
C29_2 H17_2 1_555 1_555
C30_2 C29_2 1_555 1_555
H18_2 C30_2 1_555 1_555
C31_2 C30_2 1_555 1_555
C32_2 C31_2 1_555 1_555
C33_2 C28_2 1_555 1_555
C34_2 C33_2 1_555 1_555
H19_2 C34_2 1_555 1_555
C35_2 C34_2 1_555 1_555
H20_2 C35_2 1_555 1_555
C36_2 C35_2 1_555 1_555
H21_2 C36_2 1_555 1_555
C37_2 C32_2 1_555 1_555
H22_2 C37_2 1_555 1_555
C38_2 C31_2 1_555 1_555
C4_2 C5_2 1_555 1_555
C10_2 C11_2 1_555 1_555
C32_2 C33_2 1_555 1_555
C36_2 C37_2 1_555 1_555
O8_2 C20_2 1_555 1_555
N4_2 C24_2 1_555 1_555
C16_3 C15_3 1_555 1_555
C17_2 C16_3 1_555 1_555
H9_2 C17_2 1_555 1_555
C20_2 N3_2 1_555 1_555
C21_2 N3_2 1_555 1_555
H11_2 C21_2 1_555 1_555
C22_2 C21_2 1_555 1_555
C23_2 C22_2 1_555 1_555
H13_2 C23_2 1_555 1_555
C24_2 C23_2 1_555 1_555
H14_2 C24_2 1_555 1_555
C25_3 N4_2 1_555 1_555
C26_3 C22_2 1_555 1_555
Cd4 N4_2 1_555 1_555
C14_3 C15_3 1_555 1_555
C16_3 C20_2 1_555 1_555
C25_3 C26_3 1_555 1_555
O5_3 C8_3 1_555 1_555
O6_3 C7_3 1_555 1_555
N1_3 Cd4 1_555 1_555
N2_3 C6_3 1_555 1_555
C1_3 N1_3 1_555 1_555
H1_3 C1_3 1_555 1_555
C2_3 C1_3 1_555 1_555
H2_3 C2_3 1_555 1_555
C3_3 C2_3 1_555 1_555
C4_3 C3_3 1_555 1_555
H3_3 C4_3 1_555 1_555
C5_3 N1_3 1_555 1_555
H4_3 C5_3 1_555 1_555
C6_3 C3_3 1_555 1_555
H5_3 C6_3 1_555 1_555
H6_3 C6_3 1_555 1_555
C7_3 N2_3 1_555 1_555
C8_3 N2_3 1_555 1_555
C9_3 C8_3 1_555 1_555
C10_3 C9_3 1_555 1_555
C11_3 C7_3 1_555 1_555
C18_3 C9_3 1_555 1_555
H10_3 C18_3 1_555 1_555
O10_2 Cd4 1_555 1_555
O11_2 Cd4 1_555 1_555
C4_3 C5_3 1_555 1_555
C10_3 C11_3 1_555 1_555
O1_3 C27_3 1_555 1_555
O9 C27_3 1_555 1_555
O3_2 C38_3 1_555 1_555
O4_2 C38_3 1_555 1_555
H7_3 C12_3 1_555 1_555
C27_3 C28_3 1_555 1_555
C28_3 C29_3 1_555 1_555
C29_3 H17_3 1_555 1_555
C30_3 C29_3 1_555 1_555
H18_3 C30_3 1_555 1_555
C31_3 C30_3 1_555 1_555
C32_3 C31_3 1_555 1_555
C33_3 C28_3 1_555 1_555
C34_3 C33_3 1_555 1_555
H19_3 C34_3 1_555 1_555
C35_3 C34_3 1_555 1_555
H20_3 C35_3 1_555 1_555
C36_3 C35_3 1_555 1_555
H21_3 C36_3 1_555 1_555
C37_3 C32_3 1_555 1_555
H22_3 C37_3 1_555 1_555
C38_3 C31_3 1_555 1_555
Cd4_2 O3_2 1_555 1_555
O4_2 Cd4_2 1_555 1_555
C32_3 C33_3 1_555 1_555
C36_3 C37_3 1_555 1_555
Cd4_2 O1_4 1_555 1_555
O1_4 C27_4 1_555 1_555
O9_2 C27_4 1_555 1_555
O10_2 C38_4 1_555 1_555
O11_2 C38_4 1_555 1_555
O5_4 C8_4 1_555 1_555
O6_4 C7_4 1_555 1_555
N1_4 Cd4_2 1_555 1_555
N2_4 C6_4 1_555 1_555
C1_4 N1_4 1_555 1_555
H1_4 C1_4 1_555 1_555
C2_4 C1_4 1_555 1_555
H2_4 C2_4 1_555 1_555
C3_4 C2_4 1_555 1_555
C4_4 C3_4 1_555 1_555
H3_4 C4_4 1_555 1_555
C5_4 N1_4 1_555 1_555
H4_4 C5_4 1_555 1_555
C6_4 C3_4 1_555 1_555
H5_4 C6_4 1_555 1_555
H6_4 C6_4 1_555 1_555
C7_4 N2_4 1_555 1_555
C8_4 N2_4 1_555 1_555
C9_4 C8_4 1_555 1_555
C10_4 C9_4 1_555 1_555
C11_4 C7_4 1_555 1_555
C12_4 C11_4 1_555 1_555
H7_4 C12_4 1_555 1_555
C18_4 C9_4 1_555 1_555
C27_4 C28_4 1_555 1_555
C28_4 C29_4 1_555 1_555
C29_4 H17_4 1_555 1_555
C30_4 C29_4 1_555 1_555
H18_4 C30_4 1_555 1_555
C31_4 C30_4 1_555 1_555
C32_4 C31_4 1_555 1_555
C33_4 C28_4 1_555 1_555
C34_4 C33_4 1_555 1_555
H19_4 C34_4 1_555 1_555
C35_4 C34_4 1_555 1_555
H20_4 C35_4 1_555 1_555
C36_4 C35_4 1_555 1_555
H21_4 C36_4 1_555 1_555
C37_4 C32_4 1_555 1_555
H22_4 C37_4 1_555 1_555
C38_4 C31_4 1_555 1_555
N5_2 Cd4_2 1_555 1_555
C4_4 C5_4 1_555 1_555
C10_4 C11_4 1_555 1_555
C32_4 C33_4 1_555 1_555
C36_4 C37_4 1_555 1_555
O7_2 C19_2 1_555 1_555
H8_2 C13_2 1_555 1_555
C14_4 C13_2 1_555 1_555
C16_4 C15_4 1_555 1_555
C19_2 C14_4 1_555 1_555
C25_4 N5_2 1_555 1_555
H15_2 C25_4 1_555 1_555
H16_2 C26_4 1_555 1_555
C14_4 C15_4 1_555 1_555
C25_4 C26_4 1_555 1_555
O7_3 C19_3 1_555 1_555
H8_3 C13_3 1_555 1_555
Cd2 O1_5 1_555 1_555
O3_3 C38_5 1_555 1_555
O4_3 C38_5 1_555 1_555
O5_5 C8_5 1_555 1_555
O6_5 C7_5 1_555 1_555
O7_4 C19_4 1_555 1_555
O8_3 C20_3 1_555 1_555
N1_5 Cd2 1_555 1_555
N2_5 C6_5 1_555 1_555
N3_3 C19_4 1_555 1_555
N4_3 C24_3 1_555 1_555
C1_5 N1_5 1_555 1_555
H1_5 C1_5 1_555 1_555
C2_5 C1_5 1_555 1_555
H2_5 C2_5 1_555 1_555
C3_5 C2_5 1_555 1_555
C4_5 C3_5 1_555 1_555
H3_5 C4_5 1_555 1_555
C5_5 N1_5 1_555 1_555
H4_5 C5_5 1_555 1_555
C6_5 C3_5 1_555 1_555
H5_5 C6_5 1_555 1_555
H6_5 C6_5 1_555 1_555
C7_5 N2_5 1_555 1_555
C8_5 N2_5 1_555 1_555
C9_5 C8_5 1_555 1_555
C10_5 C9_5 1_555 1_555
C11_5 C7_5 1_555 1_555
C12_5 C11_5 1_555 1_555
H7_5 C12_5 1_555 1_555
C13_4 C12_5 1_555 1_555
H8_4 C13_4 1_555 1_555
C14_5 C13_4 1_555 1_555
C15_5 C10_5 1_555 1_555
C16_5 C15_5 1_555 1_555
C17_3 C16_5 1_555 1_555
H9_3 C17_3 1_555 1_555
C18_5 C9_5 1_555 1_555
H10_5 C18_5 1_555 1_555
C19_4 C14_5 1_555 1_555
C20_3 N3_3 1_555 1_555
C21_3 N3_3 1_555 1_555
H11_3 C21_3 1_555 1_555
H12_2 C21_3 1_555 1_555
C22_3 C21_3 1_555 1_555
C23_3 C22_3 1_555 1_555
H13_3 C23_3 1_555 1_555
C24_3 C23_3 1_555 1_555
H14_3 C24_3 1_555 1_555
C25_5 N4_3 1_555 1_555
H15_4 C25_5 1_555 1_555
C26_5 C22_3 1_555 1_555
H16_4 C26_5 1_555 1_555
C29_5 H17_5 1_555 1_555
C30_5 C29_5 1_555 1_555
H18_5 C30_5 1_555 1_555
O9_3 Cd2 1_555 1_555
C4_5 C5_5 1_555 1_555
C10_5 C11_5 1_555 1_555
C14_5 C15_5 1_555 1_555
C16_5 C20_3 1_555 1_555
C17_3 C18_5 1_555 1_555
C25_5 C26_5 1_555 1_555
O2_3 C27_5 1_555 1_555
C27_5 C28_5 1_555 1_555
C32_5 C31_5 1_555 1_555
C33_5 C28_5 1_555 1_555
C34_5 C33_5 1_555 1_555
H19_5 C34_5 1_555 1_555
C35_5 C34_5 1_555 1_555
H20_5 C35_5 1_555 1_555
C36_5 C35_5 1_555 1_555
H21_5 C36_5 1_555 1_555
C37_5 C32_5 1_555 1_555
H22_5 C37_5 1_555 1_555
Cd4_3 O2_3 1_555 1_555
C32_5 C33_5 1_555 1_555
C36_5 C37_5 1_555 1_555
O5_6 C8_6 1_555 1_555
O6_6 C7_6 1_555 1_555
N1_6 Cd3_2 1_555 1_555
N2_6 C6_6 1_555 1_555
C1_6 N1_6 1_555 1_555
H1_6 C1_6 1_555 1_555
C2_6 C1_6 1_555 1_555
H2_6 C2_6 1_555 1_555
C3_6 C2_6 1_555 1_555
C4_6 C3_6 1_555 1_555
H3_6 C4_6 1_555 1_555
C5_6 N1_6 1_555 1_555
H4_6 C5_6 1_555 1_555
C6_6 C3_6 1_555 1_555
H5_6 C6_6 1_555 1_555
H6_6 C6_6 1_555 1_555
C7_6 N2_6 1_555 1_555
C8_6 N2_6 1_555 1_555
C9_6 C8_6 1_555 1_555
C10_6 C9_6 1_555 1_555
C11_6 C7_6 1_555 1_555
C15_6 C10_6 1_555 1_555
C16_6 C15_6 1_555 1_555
C18_6 C9_6 1_555 1_555
C25_6 N5_3 1_555 1_555
C4_6 C5_6 1_555 1_555
C10_6 C11_6 1_555 1_555
C14_6 C15_6 1_555 1_555
C25_6 C26_6 1_555 1_555
O8_4 C20_4 1_555 1_555
H9_4 C17_4 1_555 1_555
C20_4 N3_4 1_555 1_555
C21_4 N3_4 1_555 1_555
H11_4 C21_4 1_555 1_555
C22_4 C21_4 1_555 1_555
C23_4 C22_4 1_555 1_555
H13_4 C23_4 1_555 1_555
C24_4 C23_4 1_555 1_555
H14_4 C24_4 1_555 1_555
O2_4 C27_6 1_555 1_555
C27_6 C28_6 1_555 1_555
C32_6 C31_6 1_555 1_555
C33_6 C28_6 1_555 1_555
C34_6 C33_6 1_555 1_555
H19_6 C34_6 1_555 1_555
C35_6 C34_6 1_555 1_555
H20_6 C35_6 1_555 1_555
C36_6 C35_6 1_555 1_555
H21_6 C36_6 1_555 1_555
C37_6 C32_6 1_555 1_555
H22_6 C37_6 1_555 1_555
C32_6 C33_6 1_555 1_555
C36_6 C37_6 1_555 1_555
O10_3 C38_6 1_555 1_555
O11_3 C38_6 1_555 1_555
O7_5 C19_5 1_555 1_555
H7_6 C12_6 1_555 1_555
C13_5 C12_6 1_555 1_555
H8_5 C13_5 1_555 1_555
C29_6 H17_6 1_555 1_555
C30_6 C29_6 1_555 1_555
H18_6 C30_6 1_555 1_555
O9_3 C27_7 1_555 1_555
C27_7 C28_7 1_555 1_555
C32_7 C31_7 1_555 1_555
C33_7 C28_7 1_555 1_555
C34_7 C33_7 1_555 1_555
H19_7 C34_7 1_555 1_555
C35_7 C34_7 1_555 1_555
H20_7 C35_7 1_555 1_555
C36_7 C35_7 1_555 1_555
H21_7 C36_7 1_555 1_555
C37_7 C32_7 1_555 1_555
H22_7 C37_7 1_555 1_555
C32_7 C33_7 1_555 1_555
C36_7 C37_7 1_555 1_555
Cd4_3 O1_7 1_555 1_555
O3_4 C38_7 1_555 1_555
O4_4 C38_7 1_555 1_555
O5_7 C8_7 1_555 1_555
O6_7 C7_7 1_555 1_555
O7_6 C19_6 1_555 1_555
O8_5 C20_5 1_555 1_555
N1_7 Cd4_3 1_555 1_555
N2_7 C6_7 1_555 1_555
N3_5 C19_6 1_555 1_555
N5_4 C24_5 1_555 1_555
C1_7 N1_7 1_555 1_555
H1_7 C1_7 1_555 1_555
C2_7 C1_7 1_555 1_555
H2_7 C2_7 1_555 1_555
C3_7 C2_7 1_555 1_555
C4_7 C3_7 1_555 1_555
H3_7 C4_7 1_555 1_555
C5_7 N1_7 1_555 1_555
H4_7 C5_7 1_555 1_555
C6_7 C3_7 1_555 1_555
H5_7 C6_7 1_555 1_555
H6_7 C6_7 1_555 1_555
C7_7 N2_7 1_555 1_555
C8_7 N2_7 1_555 1_555
C9_7 C8_7 1_555 1_555
C10_7 C9_7 1_555 1_555
C11_7 C7_7 1_555 1_555
C12_7 C11_7 1_555 1_555
H7_7 C12_7 1_555 1_555
C13_6 C12_7 1_555 1_555
H8_6 C13_6 1_555 1_555
C14_7 C13_6 1_555 1_555
C15_7 C10_7 1_555 1_555
C16_7 C15_7 1_555 1_555
C17_5 C16_7 1_555 1_555
H9_5 C17_5 1_555 1_555
C18_7 C9_7 1_555 1_555
H10_7 C18_7 1_555 1_555
C19_6 C14_7 1_555 1_555
C20_5 N3_5 1_555 1_555
C21_5 N3_5 1_555 1_555
H11_5 C21_5 1_555 1_555
H12_3 C21_5 1_555 1_555
C22_5 C21_5 1_555 1_555
C23_5 C22_5 1_555 1_555
H13_5 C23_5 1_555 1_555
C24_5 C23_5 1_555 1_555
H14_5 C24_5 1_555 1_555
C25_7 N5_4 1_555 1_555
H15_6 C25_7 1_555 1_555
C26_7 C22_5 1_555 1_555
H16_6 C26_7 1_555 1_555
C29_7 H17_7 1_555 1_555
C30_7 C29_7 1_555 1_555
H18_7 C30_7 1_555 1_555
C4_7 C5_7 1_555 1_555
C10_7 C11_7 1_555 1_555
C14_7 C15_7 1_555 1_555
C16_7 C20_5 1_555 1_555
C17_5 C18_7 1_555 1_555
C25_7 C26_7 1_555 1_555
O10_4 C38_8 1_555 1_555
O11_4 C38_8 1_555 1_555
O7_7 C19_7 1_555 1_555
H7_8 C12_8 1_555 1_555
C13_7 C12_8 1_555 1_555
H8_7 C13_7 1_555 1_555
C29_8 H17_8 1_555 1_555
C30_8 C29_8 1_555 1_555
H18_8 C30_8 1_555 1_555
O9_4 C27_8 1_555 1_555
C27_8 C28_8 1_555 1_555
C32_8 C31_8 1_555 1_555
C33_8 C28_8 1_555 1_555
C34_8 C33_8 1_555 1_555
H19_8 C34_8 1_555 1_555
C35_8 C34_8 1_555 1_555
H20_8 C35_8 1_555 1_555
C36_8 C35_8 1_555 1_555
H21_8 C36_8 1_555 1_555
C37_8 C32_8 1_555 1_555
H22_8 C37_8 1_555 1_555
C32_8 C33_8 1_555 1_555
C36_8 C37_8 1_555 1_555
O8_6 C20_6 1_555 1_555
H9_6 C17_6 1_555 1_555
C20_6 N3_6 1_555 1_555
C21_6 N3_6 1_555 1_555
H11_6 C21_6 1_555 1_555
C22_6 C21_6 1_555 1_555
C23_6 C22_6 1_555 1_555
H13_6 C23_6 1_555 1_555
C24_6 C23_6 1_555 1_555
H14_6 C24_6 1_555 1_555
O5_8 C8_8 1_555 1_555
O6_8 C7_8 1_555 1_555
N1_8 Cd4_4 1_555 1_555
N2_8 C6_8 1_555 1_555
C1_8 N1_8 1_555 1_555
H1_8 C1_8 1_555 1_555
C2_8 C1_8 1_555 1_555
H2_8 C2_8 1_555 1_555
C3_8 C2_8 1_555 1_555
C4_8 C3_8 1_555 1_555
H3_8 C4_8 1_555 1_555
C5_8 N1_8 1_555 1_555
H4_8 C5_8 1_555 1_555
C6_8 C3_8 1_555 1_555
H5_8 C6_8 1_555 1_555
H6_8 C6_8 1_555 1_555
C7_8 N2_8 1_555 1_555
C8_8 N2_8 1_555 1_555
C9_8 C8_8 1_555 1_555
C10_8 C9_8 1_555 1_555
C11_8 C7_8 1_555 1_555
C15_8 C10_8 1_555 1_555
C16_8 C15_8 1_555 1_555
C18_8 C9_8 1_555 1_555
C25_8 N4_4 1_555 1_555
C4_8 C5_8 1_555 1_555
C10_8 C11_8 1_555 1_555
C14_8 C15_8 1_555 1_555
C25_8 C26_8 1_555 1_555
O8_7 C20_7 1_555 1_555
H9_7 C17_7 1_555 1_555
C20_7 N3_7 1_555 1_555
C21_7 N3_7 1_555 1_555
H11_7 C21_7 1_555 1_555
H12_4 C21_7 1_555 1_555
C22_7 C21_7 1_555 1_555
C23_7 C22_7 1_555 1_555
H13_7 C23_7 1_555 1_555
C24_7 C23_7 1_555 1_555
H14_7 C24_7 1_555 1_555
O7_8 C19_8 1_555 1_555
H8_8 C13_8 1_555 1_555
O8_8 C20_8 1_555 1_555
H9_8 C17_8 1_555 1_555
C20_8 N3_8 1_555 1_555
C21_8 N3_8 1_555 1_555
H11_8 C21_8 1_555 1_555
H12_7 C21_8 1_555 1_555
C22_8 C21_8 1_555 1_555
C23_8 C22_8 1_555 1_555
H13_8 C23_8 1_555 1_555
C24_8 C23_8 1_555 1_555
H14_8 C24_8 1_555 1_555

#END
