
###############################################################################
#
# This file contains modified crystal structure data generated from the
# MOF subset of the Cambridge Structural Database (CSD) v543 
# hosted by the Cambridge Crystallographic Data Centre (CCDC).
#
# This work is licensed under the Creative Commons
# Attribution-NonCommercial-ShareAlike 4.0 International License.
# To view a copy of this license, visit
# http://creativecommons.org/licenses/by-nc-sa/4.0/
# or send a letter to
# Creative Commons, PO Box 1866, Mountain View, CA 94042, USA.
#
# CIF created using the CSD Python API on 29 September 2022
# The structure has been converted into the P1 space group
# The structure has a 3D framework
# The original CSD entry FELVID is in the cubic crystal system
# The framework has been calculated to contain at least 10.0% void space
# The void calculation uses a probe of radius 1.32A, grid spacing 0.4
#
###############################################################################

data_FELVID
_chemical_formula_moiety         '(C384 H384 Ca18 Er62 O504)n'
_symmetry_cell_setting           triclinic
_symmetry_space_group_name_H-M   'P 1'
_symmetry_Int_Tables_number      1
_space_group_name_Hall           'P 1'
loop_
_symmetry_equiv_pos_site_id
_symmetry_equiv_pos_as_xyz
1 x,y,z
_cell_length_a                   26.4839(9)
_cell_length_b                   26.4839(9)
_cell_length_c                   26.4839(9)
_cell_angle_alpha                90
_cell_angle_beta                 90
_cell_angle_gamma                90
_cell_volume                     18575.7
loop_
_atom_site_label
_atom_site_type_symbol
_atom_site_fract_x
_atom_site_fract_y
_atom_site_fract_z
Er1 Er 0.2500 0.0000 0.0000
Ca1 Ca 0.5000 0.0000 0.0000
O1 O 0.31482(9) 0.06482(9) 0.0000
C1 C 0.36610(15) 0.05262(16) 0.00458(18)
H1 H 0.3801 0.0693 0.0340
Ca2 Ca 0.0000 0.0000 0.0000
Ca3 Ca 0.2500 -0.0000 0.2500
Ca4 Ca 0.2500 0.2500 0.0000
O10 O 0.25881(9) 0.02970(9) 0.08330(9)
O15 O 0.26459(10) 0.02051(11) 0.16570(10)
O20 O 0.48541(10) 0.08430(10) 0.02051(11)
H8 H 0.3144 0.1343 0.0250
C12 C 0.25964(15) 0.00314(13) 0.12230(17)
Er1_2 Er 0.2500 -0.0000 1.0000
Ca1_2 Ca 0.5000 -0.0000 1.0000
O1_2 O 0.31482(9) 0.06482(9) 1.0000
H2 H 0.3843 0.0644 0.9750
Ca2_2 Ca -0.0000 -0.0000 1.0000
Ca4_2 Ca 0.2500 0.2500 1.0000
Ca6 Ca 0.2500 -0.0000 0.7500
O4 O 0.18518(9) -0.0000 0.93518(9)
O6 O 0.22030(9) 0.08330(9) 0.99119(9)
O7 O 0.27970(9) 0.00881(9) 0.91670(9)
O11 O 0.22949(11) 0.16570(10) 0.98541(10)
O12 O 0.27051(11) 0.01459(10) 0.83430(10)
O16 O 0.47949(11) 0.01459(10) 0.91570(10)
O18 O 0.58430(10) 0.02051(11) 0.98541(10)
C3 C 0.30262(16) 0.11610(15) 0.99542(18)
C4 C 0.19738(16) 0.00458(18) 0.88390(15)
H3 H 0.3193 0.1301 0.9660
H4 H 0.1807 0.0340 0.8699
H10 H 0.1157 0.0250 0.9356
C8 C 0.24686(13) 0.12230(17) 0.99036(15)
C9 C 0.25314(13) 0.00964(15) 0.87770(17)
Er1_3 Er 0.2500 1.0000 0.0000
Ca1_3 Ca 0.5000 1.0000 0.0000
O2 O 0.33330(9) 0.97030(9) 0.00881(9)
O3 O 0.41570(10) 0.97949(11) 0.01459(10)
C2 C 0.37230(17) 0.99686(13) 0.00964(15)
Ca2_3 Ca -0.0000 1.0000 0.0000
Ca3_2 Ca 0.2500 1.0000 0.2500
Ca5 Ca 0.2500 0.7500 0.0000
O5 O 0.2500 0.93518(9) 0.06482(9)
O8 O 0.16670(9) 0.99119(9) 0.02970(9)
O13 O 0.08430(10) 0.98541(10) 0.02051(11)
O19 O 0.52051(11) 0.98541(10) 0.08430(10)
C6 C 0.24542(18) 0.88390(15) 0.05262(16)
C7 C 0.25458(18) 0.94738(16) 0.11610(15)
H6 H 0.2160 0.8699 0.0693
H7 H 0.2840 0.9307 0.1301
H11 H 0.2750 0.8657 0.0644
H12 H 0.2250 0.9356 0.1343
C10 C 0.12770(17) 0.99036(15) 0.00314(13)
Er1_4 Er 0.2500 1.0000 1.0000
Ca1_4 Ca 0.5000 1.0000 1.0000
Ca2_4 Ca -0.0000 1.0000 1.0000
Ca5_2 Ca 0.2500 0.7500 1.0000
Ca6_2 Ca 0.2500 1.0000 0.7500
O4_2 O 0.18518(9) 1.0000 0.93518(9)
O9 O 0.24119(9) 0.91670(9) 0.97030(9)
O14 O 0.23541(10) 0.83430(10) 0.97949(11)
O17 O 0.51459(10) 0.91570(10) 0.97949(11)
C5 C 0.13390(15) 0.99542(18) 0.94738(16)
H5 H 0.1199 0.9660 0.9307
H9 H 0.1856 0.9750 0.8657
C11 C 0.24036(15) 0.87770(17) 0.99686(13)
Ca2_5 Ca 1.0000 0.0000 0.0000
Ca2_6 Ca 1.0000 -0.0000 1.0000
Ca2_7 Ca 1.0000 1.0000 0.0000
Ca2_8 Ca 1.0000 1.0000 1.0000
Ca3_3 Ca 0.0000 0.5000 -0.0000
Er1_5 Er -0.0000 0.5000 0.7500
Ca1_5 Ca -0.0000 0.7500 0.7500
O2_2 O 0.02970(9) 0.58330(9) 0.75881(9)
O3_2 O 0.02051(11) 0.66570(10) 0.76459(10)
C2_2 C 0.00314(13) 0.62230(17) 0.75964(15)
Ca2_9 Ca -0.0000 0.2500 0.7500
Ca3_4 Ca -0.0000 0.5000 1.0000
Ca5_3 Ca 0.2500 0.5000 0.7500
Ca6_3 Ca -0.0000 0.5000 0.5000
O4_3 O -0.0000 0.43518(9) 0.68518(9)
O5_2 O 0.06482(9) 0.5000 0.81482(9)
O8_2 O 0.00881(9) 0.41670(9) 0.77970(9)
O9_2 O 0.08330(9) 0.49119(9) 0.72030(9)
O13_2 O 0.01459(10) 0.33430(10) 0.77051(11)
O14_2 O 0.16570(10) 0.48541(10) 0.72949(11)
O17_2 O 0.08430(10) 0.76459(10) 0.72949(11)
O19_2 O 0.01459(10) 0.77051(11) 0.83430(10)
C5_2 C 0.00458(18) 0.38390(15) 0.69738(16)
C6_2 C 0.11610(15) 0.49542(18) 0.80262(16)
C7_2 C 0.05262(16) 0.50458(18) 0.86610(15)
H5_2 H 0.0340 0.3699 0.6807
H6_2 H 0.1301 0.4660 0.8193
H7_2 H 0.0693 0.5340 0.8801
H9_2 H 0.0250 0.4356 0.6157
H11_2 H 0.1343 0.5250 0.8144
H12_2 H 0.0644 0.4750 0.8843
C10_2 C 0.00964(15) 0.37770(17) 0.75314(13)
C11_2 C 0.12230(17) 0.49036(15) 0.74686(13)
Ca3_5 Ca 1.0000 0.5000 -0.0000
Er1_6 Er 1.0000 0.5000 0.7500
Ca1_6 Ca 1.0000 0.7500 0.7500
O1_3 O 0.93518(9) 0.56482(9) 0.7500
C1_2 C 0.94738(16) 0.61610(15) 0.75458(18)
H1_2 H 0.9307 0.6301 0.7840
H2_2 H 0.9356 0.6343 0.7250
Ca2_10 Ca 1.0000 0.2500 0.7500
Ca3_6 Ca 1.0000 0.5000 1.0000
Ca4_3 Ca 0.7500 0.5000 0.7500
Ca6_4 Ca 1.0000 0.5000 0.5000
O4_4 O 1.0000 0.43518(9) 0.68518(9)
O6_2 O 0.91670(9) 0.47030(9) 0.74119(9)
O7_2 O 0.99119(9) 0.52970(9) 0.66670(9)
O10_2 O 0.97030(9) 0.50881(9) 0.83330(9)
O11_2 O 0.83430(10) 0.47949(11) 0.73541(10)
O12_2 O 0.98541(10) 0.52051(11) 0.58430(10)
O15_2 O 0.97949(11) 0.51459(10) 0.91570(10)
O16_2 O 0.98541(10) 0.72949(11) 0.66570(10)
O18_2 O 0.97949(11) 0.83430(10) 0.73541(10)
O20_2 O 0.91570(10) 0.73541(10) 0.77051(11)
C3_2 C 0.88390(15) 0.55262(16) 0.74542(18)
C4_2 C 0.99542(18) 0.44738(16) 0.63390(15)
H3_2 H 0.8699 0.5693 0.7160
H4_2 H 0.9660 0.4307 0.6199
H8_2 H 0.8657 0.5644 0.7750
H10_2 H 0.9750 0.3657 0.6856
C8_2 C 0.87770(17) 0.49686(13) 0.74036(15)
C9_2 C 0.99036(15) 0.50314(13) 0.62770(17)
C12_2 C 0.99686(13) 0.50964(15) 0.87230(17)
Er1_7 Er 0.0000 0.2500 0.0000
Ca3_7 Ca 0.0000 0.2500 0.2500
O5_3 O 0.0000 0.31482(9) 0.06482(9)
O8_3 O 0.08330(9) 0.25881(9) 0.02970(9)
O13_3 O 0.16570(10) 0.26459(10) 0.02051(11)
C6_3 C 0.00458(18) 0.36610(15) 0.05262(16)
H6_3 H 0.0340 0.3801 0.0693
H12_3 H 0.0250 0.3144 0.1343
C10_3 C 0.12230(17) 0.25964(15) 0.00314(13)
Er1_8 Er 0.0000 0.2500 1.0000
O4_5 O 0.06482(9) 0.2500 0.93518(9)
O6_3 O 0.02970(9) 0.16670(9) 0.99119(9)
O9_3 O 0.00881(9) 0.33330(9) 0.97030(9)
O11_3 O 0.02051(11) 0.08430(10) 0.98541(10)
O14_3 O 0.01459(10) 0.41570(10) 0.97949(11)
C4_3 C 0.05262(16) 0.24542(18) 0.88390(15)
C5_3 C 0.11610(15) 0.25458(18) 0.94738(16)
H4_3 H 0.0693 0.2160 0.8699
H5_3 H 0.1301 0.2840 0.9307
H9_3 H 0.0644 0.2750 0.8657
H10_3 H 0.1343 0.2250 0.9356
C8_3 C 0.00314(13) 0.12770(17) 0.99036(15)
C11_3 C 0.00964(15) 0.37230(17) 0.99686(13)
Er1_9 Er 1.0000 0.2500 0.0000
Ca1_7 Ca 0.7500 0.2500 0.0000
O1_4 O 0.93518(9) 0.18518(9) 0.0000
O2_3 O 0.91670(9) 0.27970(9) 0.00881(9)
O3_3 O 0.83430(10) 0.27051(11) 0.01459(10)
C1_3 C 0.88390(15) 0.19738(16) 0.00458(18)
H1_3 H 0.8699 0.1807 0.0340
C2_3 C 0.87770(17) 0.25314(13) 0.00964(15)
Ca3_8 Ca 1.0000 0.2500 0.2500
O5_4 O 1.0000 0.31482(9) 0.06482(9)
O10_3 O 0.99119(9) 0.22030(9) 0.08330(9)
O15_3 O 0.98541(10) 0.22949(11) 0.16570(10)
O19_3 O 0.72949(11) 0.26459(10) 0.08430(10)
O20_3 O 0.76459(10) 0.16570(10) 0.02051(11)
C7_3 C 0.99542(18) 0.30262(16) 0.11610(15)
H7_3 H 0.9660 0.3193 0.1301
H8_3 H 0.9356 0.1157 0.0250
H11_3 H 0.9750 0.3843 0.0644
C12_3 C 0.99036(15) 0.24686(13) 0.12230(17)
Er1_10 Er 1.0000 0.2500 1.0000
Ca1_8 Ca 0.7500 0.2500 1.0000
O1_5 O 0.93518(9) 0.18518(9) 1.0000
H2_3 H 0.8657 0.1856 0.9750
O7_3 O 0.97030(9) 0.24119(9) 0.91670(9)
O12_3 O 0.97949(11) 0.23541(10) 0.83430(10)
O16_3 O 0.77051(11) 0.23541(10) 0.91570(10)
O17_3 O 0.73541(10) 0.33430(10) 0.97949(11)
O18_3 O 0.66570(10) 0.22949(11) 0.98541(10)
C3_3 C 0.94738(16) 0.13390(15) 0.99542(18)
H3_3 H 0.9307 0.1199 0.9660
C9_3 C 0.99686(13) 0.24036(15) 0.87770(17)
Er1_11 Er 0.2500 0.7500 0.7500
O1_6 O 0.31482(9) 0.68518(9) 0.7500
O2_4 O 0.22030(9) 0.66670(9) 0.75881(9)
O3_4 O 0.22949(11) 0.58430(10) 0.76459(10)
C1_4 C 0.30262(16) 0.63390(15) 0.75458(18)
H1_4 H 0.3193 0.6199 0.7840
H2_4 H 0.3144 0.6157 0.7250
C2_4 C 0.24686(13) 0.62770(17) 0.75964(15)
Ca4_4 Ca 0.5000 0.7500 0.7500
Ca6_5 Ca 0.2500 0.7500 0.5000
O4_6 O 0.2500 0.81482(9) 0.68518(9)
O5_5 O 0.18518(9) 0.7500 0.81482(9)
O6_4 O 0.33330(9) 0.77970(9) 0.74119(9)
O7_4 O 0.25881(9) 0.72030(9) 0.66670(9)
O8_4 O 0.24119(9) 0.83330(9) 0.77970(9)
O9_4 O 0.16670(9) 0.75881(9) 0.72030(9)
O10_4 O 0.27970(9) 0.74119(9) 0.83330(9)
O11_4 O 0.41570(10) 0.77051(11) 0.73541(10)
O12_4 O 0.26459(10) 0.72949(11) 0.58430(10)
O13_4 O 0.23541(10) 0.91570(10) 0.77051(11)
O15_4 O 0.27051(11) 0.73541(10) 0.91570(10)
O16_4 O 0.26459(10) 0.52051(11) 0.66570(10)
O18_4 O 0.27051(11) 0.41570(10) 0.73541(10)
O19_4 O 0.23541(10) 0.47949(11) 0.83430(10)
O20_4 O 0.33430(10) 0.51459(10) 0.77051(11)
C3_4 C 0.36610(15) 0.69738(16) 0.74542(18)
C4_4 C 0.25458(18) 0.80262(16) 0.63390(15)
C5_4 C 0.24542(18) 0.86610(15) 0.69738(16)
C6_4 C 0.13390(15) 0.75458(18) 0.80262(16)
C7_4 C 0.19738(16) 0.74542(18) 0.86610(15)
H3_4 H 0.3801 0.6807 0.7160
H4_4 H 0.2840 0.8193 0.6199
H5_4 H 0.2160 0.8801 0.6807
H6_4 H 0.1199 0.7840 0.8193
H7_4 H 0.1807 0.7160 0.8801
H8_4 H 0.3843 0.6856 0.7750
H9_4 H 0.2250 0.8144 0.6157
H10_4 H 0.2750 0.8843 0.6856
H11_4 H 0.1157 0.7250 0.8144
H12_4 H 0.1856 0.7750 0.8843
C8_4 C 0.37230(17) 0.75314(13) 0.74036(15)
C9_4 C 0.25964(15) 0.74686(13) 0.62770(17)
C10_4 C 0.24036(15) 0.87230(17) 0.75314(13)
C11_4 C 0.12770(17) 0.75964(15) 0.74686(13)
C12_4 C 0.25314(13) 0.74036(15) 0.87230(17)
Er1_12 Er 0.5000 -0.0000 0.7500
Ca1_9 Ca 0.7500 -0.0000 0.7500
O1_7 O 0.56482(9) 0.0000 0.81482(9)
H2_5 H 0.6343 0.0250 0.8144
Ca5_4 Ca 0.5000 -0.0000 0.5000
Ca6_6 Ca 0.5000 0.2500 0.7500
O4_7 O 0.43518(9) 0.06482(9) 0.7500
O6_5 O 0.47030(9) 0.00881(9) 0.83330(9)
O7_5 O 0.52970(9) 0.08330(9) 0.75881(9)
O9_5 O 0.49119(9) 0.02970(9) 0.66670(9)
O12_5 O 0.52051(11) 0.16570(10) 0.76459(10)
O14_4 O 0.48541(10) 0.02051(11) 0.58430(10)
O16_5 O 0.72949(11) 0.08430(10) 0.76459(10)
O17_4 O 0.76459(10) 0.02051(11) 0.66570(10)
O18_5 O 0.83430(10) 0.01459(10) 0.77051(11)
C3_5 C 0.55262(16) 0.00458(18) 0.86610(15)
C4_5 C 0.44738(16) 0.11610(15) 0.75458(18)
C5_5 C 0.38390(15) 0.05262(16) 0.74542(18)
H3_5 H 0.5693 0.0340 0.8801
H4_5 H 0.4307 0.1301 0.7840
H5_5 H 0.3699 0.0693 0.7160
H9_5 H 0.4356 0.1343 0.7250
H10_5 H 0.3657 0.0644 0.7750
C8_5 C 0.49686(13) 0.00964(15) 0.87230(17)
C9_5 C 0.50314(13) 0.12230(17) 0.75964(15)
C11_5 C 0.49036(15) 0.00314(13) 0.62770(17)
Er1_13 Er 0.5000 1.0000 0.7500
Ca1_10 Ca 0.7500 1.0000 0.7500
O1_8 O 0.56482(9) 1.0000 0.81482(9)
O2_5 O 0.58330(9) 0.99119(9) 0.72030(9)
O3_5 O 0.66570(10) 0.98541(10) 0.72949(11)
C1_5 C 0.61610(15) 0.99542(18) 0.80262(16)
H1_5 H 0.6301 0.9660 0.8193
C2_5 C 0.62230(17) 0.99036(15) 0.74686(13)
Ca5_5 Ca 0.5000 1.0000 0.5000
O5_6 O 0.5000 0.93518(9) 0.68518(9)
O8_5 O 0.41670(9) 0.97030(9) 0.74119(9)
O10_5 O 0.50881(9) 0.91670(9) 0.77970(9)
O13_5 O 0.33430(10) 0.97949(11) 0.73541(10)
O15_5 O 0.51459(10) 0.83430(10) 0.77051(11)
O19_5 O 0.77051(11) 0.91570(10) 0.73541(10)
O20_5 O 0.73541(10) 0.97949(11) 0.83430(10)
C6_5 C 0.49542(18) 0.94738(16) 0.63390(15)
C7_5 C 0.50458(18) 0.88390(15) 0.69738(16)
H6_5 H 0.4660 0.9307 0.6199
H7_5 H 0.5340 0.8699 0.6807
H8_5 H 0.5644 0.9750 0.8843
H11_5 H 0.5250 0.9356 0.6157
H12_5 H 0.4750 0.8657 0.6856
C10_5 C 0.37770(17) 0.99686(13) 0.74036(15)
C12_5 C 0.50964(15) 0.87770(17) 0.75314(13)
Er1_14 Er 0.2500 0.2500 0.2500
Ca1_11 Ca 0.5000 0.2500 0.2500
O1_9 O 0.31482(9) 0.18518(9) 0.2500
O2_6 O 0.33330(9) 0.27970(9) 0.24119(9)
O3_6 O 0.41570(10) 0.27051(11) 0.23541(10)
C1_6 C 0.36610(15) 0.19738(16) 0.24542(18)
H1_6 H 0.3801 0.1807 0.2160
H2_6 H 0.3843 0.1856 0.2750
C2_6 C 0.37230(17) 0.25314(13) 0.24036(15)
Ca5_6 Ca 0.2500 0.5000 0.2500
Ca6_7 Ca 0.2500 0.2500 0.5000
O4_8 O 0.18518(9) 0.2500 0.31482(9)
O5_7 O 0.2500 0.31482(9) 0.18518(9)
O6_6 O 0.22030(9) 0.16670(9) 0.25881(9)
O7_6 O 0.27970(9) 0.24119(9) 0.33330(9)
O8_6 O 0.16670(9) 0.25881(9) 0.22030(9)
O9_6 O 0.24119(9) 0.33330(9) 0.27970(9)
O10_6 O 0.25881(9) 0.22030(9) 0.16670(9)
O11_5 O 0.22949(11) 0.08430(10) 0.26459(10)
O12_6 O 0.27051(11) 0.23541(10) 0.41570(10)
O13_6 O 0.08430(10) 0.26459(10) 0.22949(11)
O14_5 O 0.23541(10) 0.41570(10) 0.27051(11)
O15_6 O 0.26459(10) 0.22949(11) 0.08430(10)
O16_6 O 0.47949(11) 0.23541(10) 0.33430(10)
O17_5 O 0.51459(10) 0.33430(10) 0.27051(11)
O18_6 O 0.58430(10) 0.22949(11) 0.26459(10)
O19_6 O 0.52051(11) 0.26459(10) 0.16570(10)
O20_6 O 0.48541(10) 0.16570(10) 0.22949(11)
C3_6 C 0.30262(16) 0.13390(15) 0.25458(18)
C4_6 C 0.19738(16) 0.24542(18) 0.36610(15)
C5_6 C 0.13390(15) 0.25458(18) 0.30262(16)
C6_6 C 0.24542(18) 0.36610(15) 0.19738(16)
C7_6 C 0.25458(18) 0.30262(16) 0.13390(15)
H3_6 H 0.3193 0.1199 0.2840
H4_6 H 0.1807 0.2160 0.3801
H5_6 H 0.1199 0.2840 0.3193
H6_6 H 0.2160 0.3801 0.1807
H7_6 H 0.2840 0.3193 0.1199
H8_6 H 0.3144 0.1157 0.2250
H9_6 H 0.1856 0.2750 0.3843
H10_6 H 0.1157 0.2250 0.3144
H11_6 H 0.2750 0.3843 0.1856
H12_6 H 0.2250 0.3144 0.1157
C8_6 C 0.24686(13) 0.12770(17) 0.25964(15)
C9_6 C 0.25314(13) 0.24036(15) 0.37230(17)
C10_6 C 0.12770(17) 0.25964(15) 0.24686(13)
C11_6 C 0.24036(15) 0.37230(17) 0.25314(13)
C12_6 C 0.25964(15) 0.24686(13) 0.12770(17)
Er1_15 Er 0.5000 0.7500 0.0000
Ca1_12 Ca 0.7500 0.7500 0.0000
O2_7 O 0.58330(9) 0.75881(9) 0.02970(9)
O3_7 O 0.66570(10) 0.76459(10) 0.02051(11)
C2_7 C 0.62230(17) 0.75964(15) 0.00314(13)
Ca5_7 Ca 0.5000 0.7500 0.2500
Ca6_8 Ca 0.5000 0.5000 -0.0000
O4_9 O 0.43518(9) 0.68518(9) -0.0000
O5_8 O 0.5000 0.81482(9) 0.06482(9)
O8_7 O 0.41670(9) 0.77970(9) 0.00881(9)
O9_7 O 0.49119(9) 0.72030(9) 0.08330(9)
O13_7 O 0.33430(10) 0.77051(11) 0.01459(10)
O14_6 O 0.48541(10) 0.72949(11) 0.16570(10)
O17_6 O 0.76459(10) 0.72949(11) 0.08430(10)
O19_7 O 0.77051(11) 0.83430(10) 0.01459(10)
C5_7 C 0.38390(15) 0.69738(16) 0.00458(18)
C6_7 C 0.49542(18) 0.80262(16) 0.11610(15)
C7_7 C 0.50458(18) 0.86610(15) 0.05262(16)
H5_7 H 0.3699 0.6807 0.0340
H6_7 H 0.4660 0.8193 0.1301
H7_7 H 0.5340 0.8801 0.0693
H9_7 H 0.4356 0.6157 0.0250
H11_7 H 0.5250 0.8144 0.1343
H12_7 H 0.4750 0.8843 0.0644
C10_7 C 0.37770(17) 0.75314(13) 0.00964(15)
C11_7 C 0.49036(15) 0.74686(13) 0.12230(17)
Er1_16 Er 0.5000 0.7500 1.0000
Ca1_13 Ca 0.7500 0.7500 1.0000
O1_10 O 0.56482(9) 0.7500 0.93518(9)
C1_7 C 0.61610(15) 0.75458(18) 0.94738(16)
H1_7 H 0.6301 0.7840 0.9307
H2_7 H 0.6343 0.7250 0.9356
Ca6_9 Ca 0.5000 0.5000 1.0000
O4_10 O 0.43518(9) 0.68518(9) 1.0000
O6_7 O 0.47030(9) 0.74119(9) 0.91670(9)
O7_7 O 0.52970(9) 0.66670(9) 0.99119(9)
O10_7 O 0.50881(9) 0.83330(9) 0.97030(9)
O11_6 O 0.47949(11) 0.73541(10) 0.83430(10)
O12_7 O 0.52051(11) 0.58430(10) 0.98541(10)
O16_7 O 0.72949(11) 0.66570(10) 0.98541(10)
O18_7 O 0.83430(10) 0.73541(10) 0.97949(11)
O20_7 O 0.73541(10) 0.77051(11) 0.91570(10)
C3_7 C 0.55262(16) 0.74542(18) 0.88390(15)
C4_7 C 0.44738(16) 0.63390(15) 0.99542(18)
H3_7 H 0.5693 0.7160 0.8699
H4_7 H 0.4307 0.6199 0.9660
H8_7 H 0.5644 0.7750 0.8657
H10_7 H 0.3657 0.6856 0.9750
C8_7 C 0.49686(13) 0.74036(15) 0.87770(17)
C9_7 C 0.50314(13) 0.62770(17) 0.99036(15)
C12_7 C 0.50964(15) 0.87230(17) 0.99686(13)
O16_8 O 0.16570(10) 0.76459(10) 0.52051(11)
O17_7 O 0.22949(11) 0.66570(10) 0.48541(10)
O18_8 O 0.23541(10) 0.77051(11) 0.41570(10)
O19_8 O 0.33430(10) 0.73541(10) 0.47949(11)
O20_8 O 0.27051(11) 0.83430(10) 0.51459(10)
Er1_17 Er 0.0000 -0.0000 0.2500
Ca6_10 Ca -0.0000 0.0000 0.5000
O4_11 O 0.06482(9) -0.0000 0.31482(9)
O6_8 O 0.02970(9) 0.08330(9) 0.25881(9)
O11_7 O 0.02051(11) 0.16570(10) 0.26459(10)
C4_8 C 0.05262(16) 0.00458(18) 0.36610(15)
H4_8 H 0.0693 0.0340 0.3801
H10_8 H 0.1343 0.0250 0.3144
C8_8 C 0.00314(13) 0.12230(17) 0.25964(15)
Er1_18 Er 0.0000 1.0000 0.2500
Ca5_8 Ca -0.0000 0.7500 0.2500
Ca6_11 Ca -0.0000 1.0000 0.5000
O4_12 O 0.06482(9) 1.0000 0.31482(9)
O5_9 O 0.0000 0.93518(9) 0.18518(9)
O8_8 O 0.08330(9) 0.99119(9) 0.22030(9)
O9_8 O 0.00881(9) 0.91670(9) 0.27970(9)
O13_8 O 0.16570(10) 0.98541(10) 0.22949(11)
O14_7 O 0.01459(10) 0.83430(10) 0.27051(11)
C5_8 C 0.11610(15) 0.99542(18) 0.30262(16)
C6_8 C 0.00458(18) 0.88390(15) 0.19738(16)
H5_8 H 0.1301 0.9660 0.3193
H6_8 H 0.0340 0.8699 0.1807
H9_8 H 0.0644 0.9750 0.3843
H12_8 H 0.0250 0.9356 0.1157
C10_8 C 0.12230(17) 0.99036(15) 0.24686(13)
C11_8 C 0.00964(15) 0.87770(17) 0.25314(13)
Er1_19 Er 1.0000 -0.0000 0.2500
Ca1_14 Ca 0.7500 -0.0000 0.2500
O1_11 O 0.93518(9) 0.06482(9) 0.2500
C1_8 C 0.88390(15) 0.05262(16) 0.24542(18)
H1_8 H 0.8699 0.0693 0.2160
H2_8 H 0.8657 0.0644 0.2750
Ca6_12 Ca 1.0000 0.0000 0.5000
O7_8 O 0.97030(9) 0.00881(9) 0.33330(9)
O10_8 O 0.99119(9) 0.02970(9) 0.16670(9)
O12_8 O 0.97949(11) 0.01459(10) 0.41570(10)
O15_7 O 0.98541(10) 0.02051(11) 0.08430(10)
O16_9 O 0.77051(11) 0.01459(10) 0.33430(10)
O18_9 O 0.66570(10) 0.02051(11) 0.26459(10)
O20_9 O 0.76459(10) 0.08430(10) 0.22949(11)
C3_8 C 0.94738(16) 0.11610(15) 0.25458(18)
H3_8 H 0.9307 0.1301 0.2840
H8_8 H 0.9356 0.1343 0.2250
C9_8 C 0.99686(13) 0.00964(15) 0.37230(17)
C12_8 C 0.99036(15) 0.00314(13) 0.12770(17)
Er1_20 Er 1.0000 1.0000 0.2500
Ca1_15 Ca 0.7500 1.0000 0.2500
O2_8 O 0.91670(9) 0.97030(9) 0.24119(9)
O3_8 O 0.83430(10) 0.97949(11) 0.23541(10)
C2_8 C 0.87770(17) 0.99686(13) 0.24036(15)
Ca5_9 Ca 1.0000 0.7500 0.2500
Ca6_13 Ca 1.0000 1.0000 0.5000
O5_10 O 1.0000 0.93518(9) 0.18518(9)
O17_8 O 0.73541(10) 0.91570(10) 0.27051(11)
O19_9 O 0.72949(11) 0.98541(10) 0.16570(10)
C7_8 C 0.99542(18) 0.94738(16) 0.13390(15)
H7_8 H 0.9660 0.9307 0.1199
H11_8 H 0.9750 0.8657 0.1856
O18_10 O 0.01459(10) 0.27051(11) 0.33430(10)
O19_10 O 0.91570(10) 0.23541(10) 0.27051(11)
O20_10 O 0.97949(11) 0.33430(10) 0.23541(10)
O20_11 O 0.02051(11) 0.48541(10) 0.08430(10)
O19_11 O 0.08430(10) 0.52051(11) 0.98541(10)
O16_10 O 0.91570(10) 0.47949(11) 0.01459(10)
O18_11 O 0.98541(10) 0.58430(10) 0.02051(11)
O20_12 O 0.08430(10) 0.02051(11) 0.48541(10)
O16_11 O 0.01459(10) 0.91570(10) 0.47949(11)
O18_12 O 0.02051(11) 0.98541(10) 0.58430(10)
O19_12 O 0.98541(10) 0.08430(10) 0.52051(11)
O17_9 O 0.91570(10) 0.97949(11) 0.51459(10)
O16_12 O 0.23541(10) 0.33430(10) 0.47949(11)
O17_10 O 0.33430(10) 0.27051(11) 0.51459(10)
O18_13 O 0.22949(11) 0.26459(10) 0.58430(10)
O19_13 O 0.26459(10) 0.16570(10) 0.52051(11)
O20_13 O 0.16570(10) 0.22949(11) 0.48541(10)
O19_14 O 0.08430(10) 0.72949(11) 0.26459(10)
O20_14 O 0.02051(11) 0.76459(10) 0.16570(10)
O16_13 O 0.91570(10) 0.77051(11) 0.23541(10)
O17_11 O 0.97949(11) 0.73541(10) 0.33430(10)
O18_14 O 0.98541(10) 0.66570(10) 0.22949(11)
O19_15 O 0.26459(10) 0.08430(10) 0.72949(11)
O20_15 O 0.16570(10) 0.02051(11) 0.76459(10)
O18_15 O 0.22949(11) 0.98541(10) 0.66570(10)
O18_16 O 0.26459(10) 0.66570(10) 0.02051(11)
O20_16 O 0.22949(11) 0.76459(10) 0.08430(10)
O19_16 O 0.16570(10) 0.72949(11) 0.98541(10)
O16_14 O 0.33430(10) 0.47949(11) 0.23541(10)
O17_12 O 0.27051(11) 0.51459(10) 0.33430(10)
O18_17 O 0.26459(10) 0.58430(10) 0.22949(11)
O19_17 O 0.16570(10) 0.52051(11) 0.26459(10)
O20_17 O 0.22949(11) 0.48541(10) 0.16570(10)
O18_18 O 0.02051(11) 0.26459(10) 0.66570(10)
O20_18 O 0.08430(10) 0.22949(11) 0.76459(10)
O17_13 O 0.91570(10) 0.27051(11) 0.73541(10)
O19_18 O 0.98541(10) 0.16570(10) 0.72949(11)
O18_19 O 0.27051(11) 0.33430(10) 0.01459(10)
O19_19 O 0.23541(10) 0.27051(11) 0.91570(10)
O20_19 O 0.33430(10) 0.23541(10) 0.97949(11)
Er1_21 Er -0.0000 0.7500 0.5000
O2_9 O 0.02970(9) 0.66670(9) 0.49119(9)
O3_9 O 0.02051(11) 0.58430(10) 0.48541(10)
C2_9 C 0.00314(13) 0.62770(17) 0.49036(15)
O4_13 O -0.0000 0.81482(9) 0.56482(9)
O5_11 O 0.06482(9) 0.7500 0.43518(9)
O8_9 O 0.00881(9) 0.83330(9) 0.47030(9)
O9_9 O 0.08330(9) 0.75881(9) 0.52970(9)
O17_14 O 0.08430(10) 0.48541(10) 0.52051(11)
O19_20 O 0.01459(10) 0.47949(11) 0.41570(10)
C5_9 C 0.00458(18) 0.86610(15) 0.55262(16)
C6_9 C 0.11610(15) 0.75458(18) 0.44738(16)
C7_9 C 0.05262(16) 0.74542(18) 0.38390(15)
H5_9 H 0.0340 0.8801 0.5693
H6_9 H 0.1301 0.7840 0.4307
H7_9 H 0.0693 0.7160 0.3699
H9_9 H 0.0250 0.8144 0.6343
H11_9 H 0.1343 0.7250 0.4356
H12_9 H 0.0644 0.7750 0.3657
C10_9 C 0.00964(15) 0.87230(17) 0.49686(13)
C11_9 C 0.12230(17) 0.75964(15) 0.50314(13)
Er1_22 Er 1.0000 0.7500 0.5000
O1_12 O 0.93518(9) 0.68518(9) 0.5000
C1_9 C 0.94738(16) 0.63390(15) 0.49542(18)
H1_9 H 0.9307 0.6199 0.4660
H2_9 H 0.9356 0.6157 0.5250
Ca4_5 Ca 0.7500 0.7500 0.5000
O4_14 O 1.0000 0.81482(9) 0.56482(9)
O6_9 O 0.91670(9) 0.77970(9) 0.50881(9)
O7_9 O 0.99119(9) 0.72030(9) 0.58330(9)
O10_9 O 0.97030(9) 0.74119(9) 0.41670(9)
O11_8 O 0.83430(10) 0.77051(11) 0.51459(10)
O18_20 O 0.97949(11) 0.41570(10) 0.51459(10)
O20_20 O 0.91570(10) 0.51459(10) 0.47949(11)
C3_9 C 0.88390(15) 0.69738(16) 0.50458(18)
C4_9 C 0.99542(18) 0.80262(16) 0.61610(15)
H3_9 H 0.8699 0.6807 0.5340
H4_9 H 0.9660 0.8193 0.6301
H8_9 H 0.8657 0.6856 0.4750
H10_9 H 0.9750 0.8843 0.5644
C8_9 C 0.87770(17) 0.75314(13) 0.50964(15)
C9_9 C 0.99036(15) 0.74686(13) 0.62230(17)
C12_9 C 0.99686(13) 0.74036(15) 0.37770(17)
Er1_23 Er 0.7500 0.2500 0.7500
O1_13 O 0.68518(9) 0.2500 0.81482(9)
O2_10 O 0.66670(9) 0.25881(9) 0.72030(9)
O3_10 O 0.58430(10) 0.26459(10) 0.72949(11)
C1_10 C 0.63390(15) 0.25458(18) 0.80262(16)
H1_10 H 0.6199 0.2840 0.8193
H2_10 H 0.6157 0.2250 0.8144
C2_10 C 0.62770(17) 0.25964(15) 0.74686(13)
Ca5_10 Ca 0.7500 0.2500 0.5000
O4_15 O 0.81482(9) 0.18518(9) 0.7500
O5_12 O 0.7500 0.31482(9) 0.68518(9)
O6_10 O 0.77970(9) 0.24119(9) 0.83330(9)
O7_10 O 0.72030(9) 0.16670(9) 0.75881(9)
O8_10 O 0.83330(9) 0.27970(9) 0.74119(9)
O9_10 O 0.75881(9) 0.22030(9) 0.66670(9)
O10_10 O 0.74119(9) 0.33330(9) 0.77970(9)
O14_8 O 0.76459(10) 0.22949(11) 0.58430(10)
O15_8 O 0.73541(10) 0.41570(10) 0.77051(11)
O17_15 O 0.48541(10) 0.22949(11) 0.66570(10)
O18_21 O 0.41570(10) 0.23541(10) 0.77051(11)
O19_21 O 0.47949(11) 0.33430(10) 0.73541(10)
O20_21 O 0.51459(10) 0.27051(11) 0.83430(10)
C3_10 C 0.69738(16) 0.24542(18) 0.86610(15)
C4_10 C 0.80262(16) 0.13390(15) 0.75458(18)
C5_10 C 0.86610(15) 0.19738(16) 0.74542(18)
C6_10 C 0.75458(18) 0.30262(16) 0.63390(15)
C7_10 C 0.74542(18) 0.36610(15) 0.69738(16)
H3_10 H 0.6807 0.2160 0.8801
H4_10 H 0.8193 0.1199 0.7840
H5_10 H 0.8801 0.1807 0.7160
H6_10 H 0.7840 0.3193 0.6199
H7_10 H 0.7160 0.3801 0.6807
H8_10 H 0.6856 0.2750 0.8843
H9_10 H 0.8144 0.1157 0.7250
H10_10 H 0.8843 0.1856 0.7750
H11_10 H 0.7250 0.3144 0.6157
H12_10 H 0.7750 0.3843 0.6856
C8_10 C 0.75314(13) 0.24036(15) 0.87230(17)
C9_10 C 0.74686(13) 0.12770(17) 0.75964(15)
C10_10 C 0.87230(17) 0.25314(13) 0.74036(15)
C11_10 C 0.75964(15) 0.24686(13) 0.62770(17)
C12_10 C 0.74036(15) 0.37230(17) 0.75314(13)
Er1_24 Er 0.7500 -0.0000 0.5000
O1_14 O 0.68518(9) -0.0000 0.43518(9)
H2_11 H 0.6157 0.0250 0.4356
O4_16 O 0.81482(9) 0.06482(9) 0.5000
O6_11 O 0.77970(9) 0.00881(9) 0.41670(9)
O7_11 O 0.72030(9) 0.08330(9) 0.49119(9)
O9_11 O 0.75881(9) 0.02970(9) 0.58330(9)
O12_9 O 0.72949(11) 0.16570(10) 0.48541(10)
O16_15 O 0.52051(11) 0.08430(10) 0.48541(10)
O18_22 O 0.41570(10) 0.01459(10) 0.47949(11)
C3_11 C 0.69738(16) 0.00458(18) 0.38390(15)
C4_11 C 0.80262(16) 0.11610(15) 0.49542(18)
C5_11 C 0.86610(15) 0.05262(16) 0.50458(18)
H3_11 H 0.6807 0.0340 0.3699
H4_11 H 0.8193 0.1301 0.4660
H5_11 H 0.8801 0.0693 0.5340
H9_11 H 0.8144 0.1343 0.5250
H10_11 H 0.8843 0.0644 0.4750
C8_11 C 0.75314(13) 0.00964(15) 0.37770(17)
C9_11 C 0.74686(13) 0.12230(17) 0.49036(15)
C11_11 C 0.75964(15) 0.00314(13) 0.62230(17)
Er1_25 Er 0.7500 1.0000 0.5000
O1_15 O 0.68518(9) 1.0000 0.43518(9)
O2_11 O 0.66670(9) 0.99119(9) 0.52970(9)
O3_11 O 0.58430(10) 0.98541(10) 0.52051(11)
C1_11 C 0.63390(15) 0.99542(18) 0.44738(16)
H1_11 H 0.6199 0.9660 0.4307
C2_11 C 0.62770(17) 0.99036(15) 0.50314(13)
O5_13 O 0.7500 0.93518(9) 0.56482(9)
O8_11 O 0.83330(9) 0.97030(9) 0.50881(9)
O10_11 O 0.74119(9) 0.91670(9) 0.47030(9)
O15_9 O 0.73541(10) 0.83430(10) 0.47949(11)
O19_22 O 0.47949(11) 0.91570(10) 0.51459(10)
O20_22 O 0.51459(10) 0.97949(11) 0.41570(10)
C6_11 C 0.75458(18) 0.94738(16) 0.61610(15)
C7_11 C 0.74542(18) 0.88390(15) 0.55262(16)
H6_11 H 0.7840 0.9307 0.6301
H7_11 H 0.7160 0.8699 0.5693
H8_11 H 0.6856 0.9750 0.3657
H11_11 H 0.7250 0.9356 0.6343
H12_11 H 0.7750 0.8657 0.5644
C10_11 C 0.87230(17) 0.99686(13) 0.50964(15)
C12_11 C 0.74036(15) 0.87770(17) 0.49686(13)
O19_23 O 0.33430(10) 0.01459(10) 0.27051(11)
O18_23 O 0.23541(10) 0.97949(11) 0.33430(10)
O20_23 O 0.27051(11) 0.91570(10) 0.23541(10)
O18_24 O 0.01459(10) 0.97949(11) 0.91570(10)
O19_24 O 0.91570(10) 0.01459(10) 0.97949(11)
O20_24 O 0.97949(11) 0.91570(10) 0.01459(10)
Er1_26 Er 0.2500 0.5000 0.5000
Ca1_16 Ca 0.5000 0.5000 0.5000
O1_16 O 0.31482(9) 0.56482(9) 0.5000
O2_12 O 0.33330(9) 0.47030(9) 0.50881(9)
O3_12 O 0.41570(10) 0.47949(11) 0.51459(10)
C1_12 C 0.36610(15) 0.55262(16) 0.50458(18)
H1_12 H 0.3801 0.5693 0.5340
H2_12 H 0.3843 0.5644 0.4750
C2_12 C 0.37230(17) 0.49686(13) 0.50964(15)
O4_17 O 0.18518(9) 0.5000 0.43518(9)
O5_14 O 0.2500 0.43518(9) 0.56482(9)
O6_12 O 0.22030(9) 0.58330(9) 0.49119(9)
O7_12 O 0.27970(9) 0.50881(9) 0.41670(9)
O8_12 O 0.16670(9) 0.49119(9) 0.52970(9)
O9_12 O 0.24119(9) 0.41670(9) 0.47030(9)
O10_12 O 0.25881(9) 0.52970(9) 0.58330(9)
O16_16 O 0.47949(11) 0.51459(10) 0.41570(10)
O17_16 O 0.51459(10) 0.41570(10) 0.47949(11)
O18_25 O 0.58430(10) 0.52051(11) 0.48541(10)
O19_25 O 0.52051(11) 0.48541(10) 0.58430(10)
O20_25 O 0.48541(10) 0.58430(10) 0.52051(11)
C3_12 C 0.30262(16) 0.61610(15) 0.49542(18)
C4_12 C 0.19738(16) 0.50458(18) 0.38390(15)
C5_12 C 0.13390(15) 0.49542(18) 0.44738(16)
C6_12 C 0.24542(18) 0.38390(15) 0.55262(16)
C7_12 C 0.25458(18) 0.44738(16) 0.61610(15)
H3_12 H 0.3193 0.6301 0.4660
H4_12 H 0.1807 0.5340 0.3699
H5_12 H 0.1199 0.4660 0.4307
H6_12 H 0.2160 0.3699 0.5693
H7_12 H 0.2840 0.4307 0.6301
H8_12 H 0.3144 0.6343 0.5250
H9_12 H 0.1856 0.4750 0.3657
H10_12 H 0.1157 0.5250 0.4356
H11_12 H 0.2750 0.3657 0.5644
H12_12 H 0.2250 0.4356 0.6343
C8_12 C 0.24686(13) 0.62230(17) 0.49036(15)
C9_12 C 0.25314(13) 0.50964(15) 0.37770(17)
C10_12 C 0.12770(17) 0.49036(15) 0.50314(13)
C11_12 C 0.24036(15) 0.37770(17) 0.49686(13)
C12_12 C 0.25964(15) 0.50314(13) 0.62230(17)
O16_17 O 0.77051(11) 0.73541(10) 0.41570(10)
O18_26 O 0.66570(10) 0.72949(11) 0.48541(10)
O19_26 O 0.72949(11) 0.76459(10) 0.58430(10)
O20_26 O 0.76459(10) 0.66570(10) 0.52051(11)
Er1_27 Er 0.5000 0.5000 0.2500
Ca1_17 Ca 0.7500 0.5000 0.2500
O1_17 O 0.56482(9) 0.5000 0.31482(9)
O2_13 O 0.58330(9) 0.49119(9) 0.22030(9)
O3_13 O 0.66570(10) 0.48541(10) 0.22949(11)
C1_13 C 0.61610(15) 0.49542(18) 0.30262(16)
H1_13 H 0.6301 0.4660 0.3193
H2_13 H 0.6343 0.5250 0.3144
C2_13 C 0.62230(17) 0.49036(15) 0.24686(13)
O4_18 O 0.43518(9) 0.56482(9) 0.2500
O5_15 O 0.5000 0.43518(9) 0.18518(9)
O6_13 O 0.47030(9) 0.50881(9) 0.33330(9)
O7_13 O 0.52970(9) 0.58330(9) 0.25881(9)
O8_13 O 0.41670(9) 0.47030(9) 0.24119(9)
O9_13 O 0.49119(9) 0.52970(9) 0.16670(9)
O10_13 O 0.50881(9) 0.41670(9) 0.27970(9)
O12_10 O 0.52051(11) 0.66570(10) 0.26459(10)
O14_9 O 0.48541(10) 0.52051(11) 0.08430(10)
O16_18 O 0.72949(11) 0.58430(10) 0.26459(10)
O17_17 O 0.76459(10) 0.52051(11) 0.16570(10)
O18_27 O 0.83430(10) 0.51459(10) 0.27051(11)
O19_27 O 0.77051(11) 0.41570(10) 0.23541(10)
O20_27 O 0.73541(10) 0.47949(11) 0.33430(10)
C3_13 C 0.55262(16) 0.50458(18) 0.36610(15)
C4_13 C 0.44738(16) 0.61610(15) 0.25458(18)
C5_13 C 0.38390(15) 0.55262(16) 0.24542(18)
C6_13 C 0.49542(18) 0.44738(16) 0.13390(15)
C7_13 C 0.50458(18) 0.38390(15) 0.19738(16)
H3_13 H 0.5693 0.5340 0.3801
H4_13 H 0.4307 0.6301 0.2840
H5_13 H 0.3699 0.5693 0.2160
H6_13 H 0.4660 0.4307 0.1199
H7_13 H 0.5340 0.3699 0.1807
H8_13 H 0.5644 0.4750 0.3843
H9_13 H 0.4356 0.6343 0.2250
H10_13 H 0.3657 0.5644 0.2750
H11_13 H 0.5250 0.4356 0.1157
H12_13 H 0.4750 0.3657 0.1856
C8_13 C 0.49686(13) 0.50964(15) 0.37230(17)
C9_13 C 0.50314(13) 0.62230(17) 0.25964(15)
C10_13 C 0.37770(17) 0.49686(13) 0.24036(15)
C11_13 C 0.49036(15) 0.50314(13) 0.12770(17)
C12_13 C 0.50964(15) 0.37770(17) 0.25314(13)
O18_28 O 0.58430(10) 0.72949(11) 0.76459(10)
O19_28 O 0.52051(11) 0.76459(10) 0.66570(10)
O20_28 O 0.48541(10) 0.66570(10) 0.72949(11)
Er1_28 Er 0.5000 0.2500 0.5000
O1_18 O 0.56482(9) 0.2500 0.43518(9)
O2_14 O 0.58330(9) 0.25881(9) 0.52970(9)
O3_14 O 0.66570(10) 0.26459(10) 0.52051(11)
C1_14 C 0.61610(15) 0.25458(18) 0.44738(16)
H1_14 H 0.6301 0.2840 0.4307
H2_14 H 0.6343 0.2250 0.4356
C2_14 C 0.62230(17) 0.25964(15) 0.50314(13)
O4_19 O 0.43518(9) 0.18518(9) 0.5000
O5_16 O 0.5000 0.31482(9) 0.56482(9)
O6_14 O 0.47030(9) 0.24119(9) 0.41670(9)
O7_14 O 0.52970(9) 0.16670(9) 0.49119(9)
O8_14 O 0.41670(9) 0.27970(9) 0.50881(9)
O9_14 O 0.49119(9) 0.22030(9) 0.58330(9)
O10_14 O 0.50881(9) 0.33330(9) 0.47030(9)
O18_29 O 0.83430(10) 0.23541(10) 0.47949(11)
O19_29 O 0.77051(11) 0.33430(10) 0.51459(10)
O20_29 O 0.73541(10) 0.27051(11) 0.41570(10)
C3_14 C 0.55262(16) 0.24542(18) 0.38390(15)
C4_14 C 0.44738(16) 0.13390(15) 0.49542(18)
C5_14 C 0.38390(15) 0.19738(16) 0.50458(18)
C6_14 C 0.49542(18) 0.30262(16) 0.61610(15)
C7_14 C 0.50458(18) 0.36610(15) 0.55262(16)
H3_14 H 0.5693 0.2160 0.3699
H4_14 H 0.4307 0.1199 0.4660
H5_14 H 0.3699 0.1807 0.5340
H6_14 H 0.4660 0.3193 0.6301
H7_14 H 0.5340 0.3801 0.5693
H8_14 H 0.5644 0.2750 0.3657
H9_14 H 0.4356 0.1157 0.5250
H10_14 H 0.3657 0.1856 0.4750
H11_14 H 0.5250 0.3144 0.6343
H12_14 H 0.4750 0.3843 0.5644
C8_14 C 0.49686(13) 0.24036(15) 0.37770(17)
C9_14 C 0.50314(13) 0.12770(17) 0.49036(15)
C10_14 C 0.37770(17) 0.25314(13) 0.50964(15)
C11_14 C 0.49036(15) 0.24686(13) 0.62230(17)
C12_14 C 0.50964(15) 0.37230(17) 0.49686(13)
O16_19 O 0.77051(11) 0.51459(10) 0.83430(10)
O18_30 O 0.66570(10) 0.52051(11) 0.76459(10)
O19_30 O 0.72949(11) 0.48541(10) 0.66570(10)
O20_30 O 0.76459(10) 0.58430(10) 0.72949(11)
Er1_29 Er 0.7500 0.7500 0.2500
O1_19 O 0.68518(9) 0.7500 0.31482(9)
O2_15 O 0.66670(9) 0.75881(9) 0.22030(9)
O3_15 O 0.58430(10) 0.76459(10) 0.22949(11)
C1_15 C 0.63390(15) 0.75458(18) 0.30262(16)
H1_15 H 0.6199 0.7840 0.3193
H2_15 H 0.6157 0.7250 0.3144
C2_15 C 0.62770(17) 0.75964(15) 0.24686(13)
O4_20 O 0.81482(9) 0.68518(9) 0.2500
O5_17 O 0.7500 0.81482(9) 0.18518(9)
O6_15 O 0.77970(9) 0.74119(9) 0.33330(9)
O7_15 O 0.72030(9) 0.66670(9) 0.25881(9)
O8_15 O 0.83330(9) 0.77970(9) 0.24119(9)
O9_15 O 0.75881(9) 0.72030(9) 0.16670(9)
O10_15 O 0.74119(9) 0.83330(9) 0.27970(9)
O18_31 O 0.41570(10) 0.73541(10) 0.27051(11)
O19_31 O 0.47949(11) 0.83430(10) 0.23541(10)
O20_31 O 0.51459(10) 0.77051(11) 0.33430(10)
C3_15 C 0.69738(16) 0.74542(18) 0.36610(15)
C4_15 C 0.80262(16) 0.63390(15) 0.25458(18)
C5_15 C 0.86610(15) 0.69738(16) 0.24542(18)
C6_15 C 0.75458(18) 0.80262(16) 0.13390(15)
C7_15 C 0.74542(18) 0.86610(15) 0.19738(16)
H3_15 H 0.6807 0.7160 0.3801
H4_15 H 0.8193 0.6199 0.2840
H5_15 H 0.8801 0.6807 0.2160
H6_15 H 0.7840 0.8193 0.1199
H7_15 H 0.7160 0.8801 0.1807
H8_15 H 0.6856 0.7750 0.3843
H9_15 H 0.8144 0.6157 0.2250
H10_15 H 0.8843 0.6856 0.2750
H11_15 H 0.7250 0.8144 0.1157
H12_15 H 0.7750 0.8843 0.1856
C8_15 C 0.75314(13) 0.74036(15) 0.37230(17)
C9_15 C 0.74686(13) 0.62770(17) 0.25964(15)
C10_15 C 0.87230(17) 0.75314(13) 0.24036(15)
C11_15 C 0.75964(15) 0.74686(13) 0.12770(17)
C12_15 C 0.74036(15) 0.87230(17) 0.25314(13)
Er1_30 Er 0.7500 0.5000 0.0000
O2_16 O 0.66670(9) 0.49119(9) 0.02970(9)
O3_16 O 0.58430(10) 0.48541(10) 0.02051(11)
C2_16 C 0.62770(17) 0.49036(15) 0.00314(13)
O4_21 O 0.81482(9) 0.56482(9) -0.0000
O5_18 O 0.7500 0.43518(9) 0.06482(9)
O8_16 O 0.83330(9) 0.47030(9) 0.00881(9)
O9_16 O 0.75881(9) 0.52970(9) 0.08330(9)
O19_32 O 0.47949(11) 0.41570(10) 0.01459(10)
C5_16 C 0.86610(15) 0.55262(16) 0.00458(18)
C6_16 C 0.75458(18) 0.44738(16) 0.11610(15)
C7_16 C 0.74542(18) 0.38390(15) 0.05262(16)
H5_16 H 0.8801 0.5693 0.0340
H6_16 H 0.7840 0.4307 0.1301
H7_16 H 0.7160 0.3699 0.0693
H9_16 H 0.8144 0.6343 0.0250
H11_16 H 0.7250 0.4356 0.1343
H12_16 H 0.7750 0.3657 0.0644
C10_16 C 0.87230(17) 0.49686(13) 0.00964(15)
C11_16 C 0.75964(15) 0.50314(13) 0.12230(17)
Er1_31 Er 0.7500 0.5000 1.0000
O1_20 O 0.68518(9) 0.5000 0.93518(9)
C1_16 C 0.63390(15) 0.49542(18) 0.94738(16)
H1_16 H 0.6199 0.4660 0.9307
H2_16 H 0.6157 0.5250 0.9356
O4_22 O 0.81482(9) 0.56482(9) 1.0000
O6_16 O 0.77970(9) 0.50881(9) 0.91670(9)
O7_16 O 0.72030(9) 0.58330(9) 0.99119(9)
O10_16 O 0.74119(9) 0.41670(9) 0.97030(9)
O18_32 O 0.41570(10) 0.51459(10) 0.97949(11)
O20_32 O 0.51459(10) 0.47949(11) 0.91570(10)
C3_16 C 0.69738(16) 0.50458(18) 0.88390(15)
C4_16 C 0.80262(16) 0.61610(15) 0.99542(18)
H3_16 H 0.6807 0.5340 0.8699
H4_16 H 0.8193 0.6301 0.9660
H8_16 H 0.6856 0.4750 0.8657
H10_16 H 0.8843 0.5644 0.9750
C8_16 C 0.75314(13) 0.50964(15) 0.87770(17)
C9_16 C 0.74686(13) 0.62230(17) 0.99036(15)
C12_16 C 0.74036(15) 0.37770(17) 0.99686(13)
Er1_32 Er 0.7500 0.0000 0.0000
O4_23 O 0.81482(9) -0.0000 0.06482(9)
O9_17 O 0.75881(9) 0.08330(9) 0.02970(9)
C5_17 C 0.86610(15) 0.00458(18) 0.05262(16)
H5_17 H 0.8801 0.0340 0.0693
H9_17 H 0.8144 0.0250 0.1343
C11_17 C 0.75964(15) 0.12230(17) 0.00314(13)
Er1_33 Er 0.7500 -0.0000 1.0000
O2_17 O 0.66670(9) 0.02970(9) 0.99119(9)
C2_17 C 0.62770(17) 0.00314(13) 0.99036(15)
O5_19 O 0.7500 0.06482(9) 0.93518(9)
O8_17 O 0.83330(9) 0.00881(9) 0.97030(9)
C6_17 C 0.75458(18) 0.11610(15) 0.94738(16)
C7_17 C 0.74542(18) 0.05262(16) 0.88390(15)
H6_17 H 0.7840 0.1301 0.9307
H7_17 H 0.7160 0.0693 0.8699
H11_17 H 0.7250 0.1343 0.9356
H12_17 H 0.7750 0.0644 0.8657
C10_17 C 0.87230(17) 0.00964(15) 0.99686(13)
Er1_34 Er 0.7500 1.0000 0.0000
O1_21 O 0.68518(9) 0.93518(9) 0.0000
H2_17 H 0.6157 0.9356 0.0250
O4_24 O 0.81482(9) 1.0000 0.06482(9)
O6_17 O 0.77970(9) 0.91670(9) 0.00881(9)
O7_17 O 0.72030(9) 0.99119(9) 0.08330(9)
C3_17 C 0.69738(16) 0.88390(15) 0.00458(18)
C4_17 C 0.80262(16) 0.99542(18) 0.11610(15)
H3_17 H 0.6807 0.8699 0.0340
H4_17 H 0.8193 0.9660 0.1301
H10_17 H 0.8843 0.9750 0.0644
C8_17 C 0.75314(13) 0.87770(17) 0.00964(15)
C9_17 C 0.74686(13) 0.99036(15) 0.12230(17)
Er1_35 Er 0.7500 1.0000 1.0000
O1_22 O 0.68518(9) 0.93518(9) 1.0000
C1_17 C 0.63390(15) 0.94738(16) 0.99542(18)
H1_17 H 0.6199 0.9307 0.9660
O10_17 O 0.74119(9) 0.97030(9) 0.91670(9)
H8_17 H 0.6856 0.8657 0.9750
C12_17 C 0.74036(15) 0.99686(13) 0.87770(17)
Er1_36 Er -0.0000 0.5000 0.2500
O1_23 O 0.06482(9) 0.43518(9) 0.2500
C1_18 C 0.05262(16) 0.38390(15) 0.24542(18)
H1_18 H 0.0693 0.3699 0.2160
H2_18 H 0.0644 0.3657 0.2750
O4_25 O -0.0000 0.56482(9) 0.31482(9)
O6_18 O 0.08330(9) 0.52970(9) 0.25881(9)
O7_18 O 0.00881(9) 0.47030(9) 0.33330(9)
O10_18 O 0.02970(9) 0.49119(9) 0.16670(9)
C3_18 C 0.11610(15) 0.44738(16) 0.25458(18)
C4_18 C 0.00458(18) 0.55262(16) 0.36610(15)
H3_18 H 0.1301 0.4307 0.2840
H4_18 H 0.0340 0.5693 0.3801
H8_18 H 0.1343 0.4356 0.2250
H10_18 H 0.0250 0.6343 0.3144
C8_18 C 0.12230(17) 0.50314(13) 0.25964(15)
C9_18 C 0.00964(15) 0.49686(13) 0.37230(17)
C12_18 C 0.00314(13) 0.49036(15) 0.12770(17)
Er1_37 Er 1.0000 0.5000 0.2500
O2_18 O 0.97030(9) 0.41670(9) 0.24119(9)
C2_18 C 0.99686(13) 0.37770(17) 0.24036(15)
O4_26 O 1.0000 0.56482(9) 0.31482(9)
O5_20 O 0.93518(9) 0.5000 0.18518(9)
O8_18 O 0.99119(9) 0.58330(9) 0.22030(9)
O9_18 O 0.91670(9) 0.50881(9) 0.27970(9)
C5_18 C 0.99542(18) 0.61610(15) 0.30262(16)
C6_18 C 0.88390(15) 0.50458(18) 0.19738(16)
C7_18 C 0.94738(16) 0.49542(18) 0.13390(15)
H5_18 H 0.9660 0.6301 0.3193
H6_18 H 0.8699 0.5340 0.1807
H7_18 H 0.9307 0.4660 0.1199
H9_18 H 0.9750 0.5644 0.3843
H11_18 H 0.8657 0.4750 0.1856
H12_18 H 0.9356 0.5250 0.1157
C10_18 C 0.99036(15) 0.62230(17) 0.24686(13)
C11_18 C 0.87770(17) 0.50964(15) 0.25314(13)
Er1_38 Er -0.0000 0.7500 0.0000
O1_24 O 0.06482(9) 0.81482(9) 0.0000
H2_19 H 0.1343 0.8144 0.0250
O7_19 O 0.02970(9) 0.75881(9) 0.08330(9)
C3_19 C 0.05262(16) 0.86610(15) 0.00458(18)
H3_19 H 0.0693 0.8801 0.0340
C9_19 C 0.00314(13) 0.75964(15) 0.12230(17)
Er1_39 Er -0.0000 0.7500 1.0000
O1_25 O 0.06482(9) 0.81482(9) 1.0000
O2_19 O 0.08330(9) 0.72030(9) 0.99119(9)
C1_19 C 0.11610(15) 0.80262(16) 0.99542(18)
H1_19 H 0.1301 0.8193 0.9660
C2_19 C 0.12230(17) 0.74686(13) 0.99036(15)
O5_21 O -0.0000 0.68518(9) 0.93518(9)
O10_19 O 0.00881(9) 0.77970(9) 0.91670(9)
C7_19 C 0.00458(18) 0.69738(16) 0.88390(15)
H7_19 H 0.0340 0.6807 0.8699
H8_19 H 0.0644 0.8843 0.9750
H11_19 H 0.0250 0.6157 0.9356
C12_19 C 0.00964(15) 0.75314(13) 0.87770(17)
Er1_40 Er 1.0000 0.7500 0.0000
O4_27 O 0.93518(9) 0.7500 0.06482(9)
O6_19 O 0.97030(9) 0.83330(9) 0.00881(9)
O9_19 O 0.99119(9) 0.66670(9) 0.02970(9)
C4_19 C 0.94738(16) 0.75458(18) 0.11610(15)
C5_19 C 0.88390(15) 0.74542(18) 0.05262(16)
H4_19 H 0.9307 0.7840 0.1301
H5_19 H 0.8699 0.7160 0.0693
H9_19 H 0.9356 0.7250 0.1343
H10_19 H 0.8657 0.7750 0.0644
C8_19 C 0.99686(13) 0.87230(17) 0.00964(15)
C11_19 C 0.99036(15) 0.62770(17) 0.00314(13)
Er1_41 Er 1.0000 0.7500 1.0000
O5_22 O 1.0000 0.68518(9) 0.93518(9)
O8_19 O 0.91670(9) 0.74119(9) 0.97030(9)
C6_19 C 0.99542(18) 0.63390(15) 0.94738(16)
H6_19 H 0.9660 0.6199 0.9307
H12_19 H 0.9750 0.6856 0.8657
C10_19 C 0.87770(17) 0.74036(15) 0.99686(13)
Er1_42 Er 0.7500 0.2500 0.2500
O1_26 O 0.68518(9) 0.31482(9) 0.2500
O2_20 O 0.77970(9) 0.33330(9) 0.24119(9)
C1_20 C 0.69738(16) 0.36610(15) 0.24542(18)
H1_20 H 0.6807 0.3801 0.2160
H2_20 H 0.6856 0.3843 0.2750
C2_20 C 0.75314(13) 0.37230(17) 0.24036(15)
O4_28 O 0.7500 0.18518(9) 0.31482(9)
O5_23 O 0.81482(9) 0.2500 0.18518(9)
O6_20 O 0.66670(9) 0.22030(9) 0.25881(9)
O7_20 O 0.74119(9) 0.27970(9) 0.33330(9)
O8_20 O 0.75881(9) 0.16670(9) 0.22030(9)
O9_20 O 0.83330(9) 0.24119(9) 0.27970(9)
O10_20 O 0.72030(9) 0.25881(9) 0.16670(9)
C3_20 C 0.63390(15) 0.30262(16) 0.25458(18)
C4_20 C 0.74542(18) 0.19738(16) 0.36610(15)
C5_20 C 0.75458(18) 0.13390(15) 0.30262(16)
C6_20 C 0.86610(15) 0.24542(18) 0.19738(16)
C7_20 C 0.80262(16) 0.25458(18) 0.13390(15)
H3_20 H 0.6199 0.3193 0.2840
H4_20 H 0.7160 0.1807 0.3801
H5_20 H 0.7840 0.1199 0.3193
H6_20 H 0.8801 0.2160 0.1807
H7_20 H 0.8193 0.2840 0.1199
H8_20 H 0.6157 0.3144 0.2250
H9_20 H 0.7750 0.1856 0.3843
H10_20 H 0.7250 0.1157 0.3144
H11_20 H 0.8843 0.2750 0.1856
H12_20 H 0.8144 0.2250 0.1157
C8_20 C 0.62770(17) 0.24686(13) 0.25964(15)
C9_20 C 0.74036(15) 0.25314(13) 0.37230(17)
C10_20 C 0.75964(15) 0.12770(17) 0.24686(13)
C11_20 C 0.87230(17) 0.24036(15) 0.25314(13)
C12_20 C 0.74686(13) 0.25964(15) 0.12770(17)
Er1_43 Er 0.5000 -0.0000 0.2500
O1_27 O 0.43518(9) 0.0000 0.18518(9)
O2_21 O 0.41670(9) 0.00881(9) 0.27970(9)
C1_21 C 0.38390(15) 0.00458(18) 0.19738(16)
H1_21 H 0.3699 0.0340 0.1807
C2_21 C 0.37770(17) 0.00964(15) 0.25314(13)
O5_24 O 0.5000 0.06482(9) 0.31482(9)
O8_21 O 0.58330(9) 0.02970(9) 0.25881(9)
O10_21 O 0.49119(9) 0.08330(9) 0.22030(9)
C6_21 C 0.50458(18) 0.05262(16) 0.36610(15)
C7_21 C 0.49542(18) 0.11610(15) 0.30262(16)
H6_21 H 0.5340 0.0693 0.3801
H7_21 H 0.4660 0.1301 0.3193
H8_21 H 0.4356 0.0250 0.1157
H11_21 H 0.4750 0.0644 0.3843
H12_21 H 0.5250 0.1343 0.3144
C10_21 C 0.62230(17) 0.00314(13) 0.25964(15)
C12_21 C 0.49036(15) 0.12230(17) 0.24686(13)
Er1_44 Er 0.5000 1.0000 0.2500
O1_28 O 0.43518(9) 1.0000 0.18518(9)
H2_21 H 0.3657 0.9750 0.1856
O4_29 O 0.56482(9) 0.93518(9) 0.2500
O6_21 O 0.52970(9) 0.99119(9) 0.16670(9)
O7_21 O 0.47030(9) 0.91670(9) 0.24119(9)
O9_21 O 0.50881(9) 0.97030(9) 0.33330(9)
C3_21 C 0.44738(16) 0.99542(18) 0.13390(15)
C4_21 C 0.55262(16) 0.88390(15) 0.24542(18)
C5_21 C 0.61610(15) 0.94738(16) 0.25458(18)
H3_21 H 0.4307 0.9660 0.1199
H4_21 H 0.5693 0.8699 0.2160
H5_21 H 0.6301 0.9307 0.2840
H9_21 H 0.5644 0.8657 0.2750
H10_21 H 0.6343 0.9356 0.2250
C8_21 C 0.50314(13) 0.99036(15) 0.12770(17)
C9_21 C 0.49686(13) 0.87770(17) 0.24036(15)
C11_21 C 0.50964(15) 0.99686(13) 0.37230(17)
Er1_45 Er 0.7500 0.7500 0.7500
O1_29 O 0.68518(9) 0.81482(9) 0.7500
O2_22 O 0.66670(9) 0.72030(9) 0.75881(9)
C1_22 C 0.63390(15) 0.80262(16) 0.75458(18)
H1_22 H 0.6199 0.8193 0.7840
H2_22 H 0.6157 0.8144 0.7250
C2_22 C 0.62770(17) 0.74686(13) 0.75964(15)
O4_30 O 0.81482(9) 0.7500 0.68518(9)
O5_25 O 0.7500 0.68518(9) 0.81482(9)
O6_22 O 0.77970(9) 0.83330(9) 0.74119(9)
O7_22 O 0.72030(9) 0.75881(9) 0.66670(9)
O8_22 O 0.83330(9) 0.74119(9) 0.77970(9)
O9_22 O 0.75881(9) 0.66670(9) 0.72030(9)
O10_22 O 0.74119(9) 0.77970(9) 0.83330(9)
C3_22 C 0.69738(16) 0.86610(15) 0.74542(18)
C4_22 C 0.80262(16) 0.75458(18) 0.63390(15)
C5_22 C 0.86610(15) 0.74542(18) 0.69738(16)
C6_22 C 0.75458(18) 0.63390(15) 0.80262(16)
C7_22 C 0.74542(18) 0.69738(16) 0.86610(15)
H3_22 H 0.6807 0.8801 0.7160
H4_22 H 0.8193 0.7840 0.6199
H5_22 H 0.8801 0.7160 0.6807
H6_22 H 0.7840 0.6199 0.8193
H7_22 H 0.7160 0.6807 0.8801
H8_22 H 0.6856 0.8843 0.7750
H9_22 H 0.8144 0.7250 0.6157
H10_22 H 0.8843 0.7750 0.6856
H11_22 H 0.7250 0.6157 0.8144
H12_22 H 0.7750 0.6856 0.8843
C8_22 C 0.75314(13) 0.87230(17) 0.74036(15)
C9_22 C 0.74686(13) 0.75964(15) 0.62770(17)
C10_22 C 0.87230(17) 0.74036(15) 0.75314(13)
C11_22 C 0.75964(15) 0.62770(17) 0.74686(13)
C12_22 C 0.74036(15) 0.75314(13) 0.87230(17)
Er1_46 Er 0.5000 0.2500 0.0000
O1_30 O 0.43518(9) 0.2500 0.06482(9)
C1_23 C 0.38390(15) 0.24542(18) 0.05262(16)
H1_23 H 0.3699 0.2160 0.0693
H2_23 H 0.3657 0.2750 0.0644
O4_31 O 0.56482(9) 0.31482(9) 0.0000
O6_23 O 0.52970(9) 0.25881(9) 0.08330(9)
O7_23 O 0.47030(9) 0.33330(9) 0.00881(9)
O10_23 O 0.49119(9) 0.16670(9) 0.02970(9)
C3_23 C 0.44738(16) 0.25458(18) 0.11610(15)
C4_23 C 0.55262(16) 0.36610(15) 0.00458(18)
H3_23 H 0.4307 0.2840 0.1301
H4_23 H 0.5693 0.3801 0.0340
H8_23 H 0.4356 0.2250 0.1343
H10_23 H 0.6343 0.3144 0.0250
C8_23 C 0.50314(13) 0.25964(15) 0.12230(17)
C9_23 C 0.49686(13) 0.37230(17) 0.00964(15)
C12_23 C 0.49036(15) 0.12770(17) 0.00314(13)
Er1_47 Er 0.5000 0.2500 1.0000
O2_23 O 0.41670(9) 0.24119(9) 0.97030(9)
C2_23 C 0.37770(17) 0.24036(15) 0.99686(13)
O4_32 O 0.56482(9) 0.31482(9) 1.0000
O5_26 O 0.5000 0.18518(9) 0.93518(9)
O8_23 O 0.58330(9) 0.22030(9) 0.99119(9)
O9_23 O 0.50881(9) 0.27970(9) 0.91670(9)
C5_23 C 0.61610(15) 0.30262(16) 0.99542(18)
C6_23 C 0.50458(18) 0.19738(16) 0.88390(15)
C7_23 C 0.49542(18) 0.13390(15) 0.94738(16)
H5_23 H 0.6301 0.3193 0.9660
H6_23 H 0.5340 0.1807 0.8699
H7_23 H 0.4660 0.1199 0.9307
H9_23 H 0.5644 0.3843 0.9750
H11_23 H 0.4750 0.1856 0.8657
H12_23 H 0.5250 0.1157 0.9356
C10_23 C 0.62230(17) 0.24686(13) 0.99036(15)
C11_23 C 0.50964(15) 0.25314(13) 0.87770(17)
Er1_48 Er -0.0000 -0.0000 0.7500
O2_24 O 0.08330(9) 0.02970(9) 0.75881(9)
C2_24 C 0.12230(17) 0.00314(13) 0.75964(15)
O5_27 O -0.0000 0.06482(9) 0.81482(9)
C7_24 C 0.00458(18) 0.05262(16) 0.86610(15)
H7_24 H 0.0340 0.0693 0.8801
H11_24 H 0.0250 0.1343 0.8144
Er1_49 Er -0.0000 1.0000 0.7500
O1_31 O 0.06482(9) 0.93518(9) 0.7500
C1_24 C 0.11610(15) 0.94738(16) 0.75458(18)
H1_24 H 0.1301 0.9307 0.7840
H2_24 H 0.1343 0.9356 0.7250
O7_24 O 0.02970(9) 0.99119(9) 0.66670(9)
O10_24 O 0.00881(9) 0.97030(9) 0.83330(9)
C3_24 C 0.05262(16) 0.88390(15) 0.74542(18)
H3_24 H 0.0693 0.8699 0.7160
H8_24 H 0.0644 0.8657 0.7750
C9_24 C 0.00314(13) 0.99036(15) 0.62770(17)
C12_24 C 0.00964(15) 0.99686(13) 0.87230(17)
Er1_50 Er 1.0000 -0.0000 0.7500
O4_33 O 0.93518(9) -0.0000 0.68518(9)
O5_28 O 1.0000 0.06482(9) 0.81482(9)
O8_24 O 0.91670(9) 0.00881(9) 0.77970(9)
O9_24 O 0.99119(9) 0.08330(9) 0.72030(9)
C5_24 C 0.88390(15) 0.00458(18) 0.69738(16)
C6_24 C 0.99542(18) 0.11610(15) 0.80262(16)
H5_24 H 0.8699 0.0340 0.6807
H6_24 H 0.9660 0.1301 0.8193
H9_24 H 0.9356 0.0250 0.6157
H12_24 H 0.9750 0.0644 0.8843
C10_24 C 0.87770(17) 0.00964(15) 0.75314(13)
C11_24 C 0.99036(15) 0.12230(17) 0.74686(13)
Er1_51 Er 1.0000 1.0000 0.7500
O4_34 O 0.93518(9) 1.0000 0.68518(9)
O6_24 O 0.97030(9) 0.91670(9) 0.74119(9)
C4_24 C 0.94738(16) 0.99542(18) 0.63390(15)
H4_24 H 0.9307 0.9660 0.6199
H10_24 H 0.8657 0.9750 0.6856
C8_24 C 0.99686(13) 0.87770(17) 0.74036(15)
Er1_52 Er -0.0000 0.2500 0.5000
O1_32 O 0.06482(9) 0.31482(9) 0.5000
C1_25 C 0.05262(16) 0.36610(15) 0.50458(18)
H1_25 H 0.0693 0.3801 0.5340
H2_25 H 0.0644 0.3843 0.4750
O4_35 O -0.0000 0.18518(9) 0.43518(9)
O6_25 O 0.08330(9) 0.22030(9) 0.49119(9)
O7_25 O 0.00881(9) 0.27970(9) 0.41670(9)
O10_25 O 0.02970(9) 0.25881(9) 0.58330(9)
C3_25 C 0.11610(15) 0.30262(16) 0.49542(18)
C4_25 C 0.00458(18) 0.19738(16) 0.38390(15)
H3_25 H 0.1301 0.3193 0.4660
H4_25 H 0.0340 0.1807 0.3699
H8_25 H 0.1343 0.3144 0.5250
H10_25 H 0.0250 0.1157 0.4356
C8_25 C 0.12230(17) 0.24686(13) 0.49036(15)
C9_25 C 0.00964(15) 0.25314(13) 0.37770(17)
C12_25 C 0.00314(13) 0.25964(15) 0.62230(17)
Er1_53 Er 1.0000 0.2500 0.5000
O2_25 O 0.97030(9) 0.33330(9) 0.50881(9)
C2_25 C 0.99686(13) 0.37230(17) 0.50964(15)
O4_36 O 1.0000 0.18518(9) 0.43518(9)
O5_29 O 0.93518(9) 0.2500 0.56482(9)
O8_25 O 0.99119(9) 0.16670(9) 0.52970(9)
O9_25 O 0.91670(9) 0.24119(9) 0.47030(9)
C5_25 C 0.99542(18) 0.13390(15) 0.44738(16)
C6_25 C 0.88390(15) 0.24542(18) 0.55262(16)
C7_25 C 0.94738(16) 0.25458(18) 0.61610(15)
H5_25 H 0.9660 0.1199 0.4307
H6_25 H 0.8699 0.2160 0.5693
H7_25 H 0.9307 0.2840 0.6301
H9_25 H 0.9750 0.1856 0.3657
H11_25 H 0.8657 0.2750 0.5644
H12_25 H 0.9356 0.2250 0.6343
C10_25 C 0.99036(15) 0.12770(17) 0.50314(13)
C11_25 C 0.87770(17) 0.24036(15) 0.49686(13)
Er1_54 Er 0.2500 0.7500 0.2500
O1_33 O 0.31482(9) 0.7500 0.18518(9)
O2_26 O 0.33330(9) 0.74119(9) 0.27970(9)
C1_26 C 0.36610(15) 0.74542(18) 0.19738(16)
H1_26 H 0.3801 0.7160 0.1807
H2_26 H 0.3843 0.7750 0.1856
C2_26 C 0.37230(17) 0.74036(15) 0.25314(13)
O4_37 O 0.18518(9) 0.81482(9) 0.2500
O5_30 O 0.2500 0.68518(9) 0.31482(9)
O6_26 O 0.22030(9) 0.75881(9) 0.16670(9)
O7_26 O 0.27970(9) 0.83330(9) 0.24119(9)
O8_26 O 0.16670(9) 0.72030(9) 0.25881(9)
O9_26 O 0.24119(9) 0.77970(9) 0.33330(9)
O10_26 O 0.25881(9) 0.66670(9) 0.22030(9)
C3_26 C 0.30262(16) 0.75458(18) 0.13390(15)
C4_26 C 0.19738(16) 0.86610(15) 0.24542(18)
C5_26 C 0.13390(15) 0.80262(16) 0.25458(18)
C6_26 C 0.24542(18) 0.69738(16) 0.36610(15)
C7_26 C 0.25458(18) 0.63390(15) 0.30262(16)
H3_26 H 0.3193 0.7840 0.1199
H4_26 H 0.1807 0.8801 0.2160
H5_26 H 0.1199 0.8193 0.2840
H6_26 H 0.2160 0.6807 0.3801
H7_26 H 0.2840 0.6199 0.3193
H8_26 H 0.3144 0.7250 0.1157
H9_26 H 0.1856 0.8843 0.2750
H10_26 H 0.1157 0.8144 0.2250
H11_26 H 0.2750 0.6856 0.3843
H12_26 H 0.2250 0.6157 0.3144
C8_26 C 0.24686(13) 0.75964(15) 0.12770(17)
C9_26 C 0.25314(13) 0.87230(17) 0.24036(15)
C10_26 C 0.12770(17) 0.74686(13) 0.25964(15)
C11_26 C 0.24036(15) 0.75314(13) 0.37230(17)
C12_26 C 0.25964(15) 0.62770(17) 0.24686(13)
Er1_55 Er 0.2500 -0.0000 0.5000
O1_34 O 0.31482(9) -0.0000 0.56482(9)
O2_27 O 0.33330(9) 0.00881(9) 0.47030(9)
C1_27 C 0.36610(15) 0.00458(18) 0.55262(16)
H1_27 H 0.3801 0.0340 0.5693
C2_27 C 0.37230(17) 0.00964(15) 0.49686(13)
O5_31 O 0.2500 0.06482(9) 0.43518(9)
O8_27 O 0.16670(9) 0.02970(9) 0.49119(9)
O10_27 O 0.25881(9) 0.08330(9) 0.52970(9)
C6_27 C 0.24542(18) 0.05262(16) 0.38390(15)
C7_27 C 0.25458(18) 0.11610(15) 0.44738(16)
H6_27 H 0.2160 0.0693 0.3699
H7_27 H 0.2840 0.1301 0.4307
H8_27 H 0.3144 0.0250 0.6343
H11_27 H 0.2750 0.0644 0.3657
H12_27 H 0.2250 0.1343 0.4356
C10_27 C 0.12770(17) 0.00314(13) 0.49036(15)
C12_27 C 0.25964(15) 0.12230(17) 0.50314(13)
Er1_56 Er 0.2500 1.0000 0.5000
O1_35 O 0.31482(9) 1.0000 0.56482(9)
H2_27 H 0.3843 0.9750 0.5644
O4_38 O 0.18518(9) 0.93518(9) 0.5000
O6_27 O 0.22030(9) 0.99119(9) 0.58330(9)
O7_27 O 0.27970(9) 0.91670(9) 0.50881(9)
O9_27 O 0.24119(9) 0.97030(9) 0.41670(9)
C3_27 C 0.30262(16) 0.99542(18) 0.61610(15)
C4_27 C 0.19738(16) 0.88390(15) 0.50458(18)
C5_27 C 0.13390(15) 0.94738(16) 0.49542(18)
H3_27 H 0.3193 0.9660 0.6301
H4_27 H 0.1807 0.8699 0.5340
H5_27 H 0.1199 0.9307 0.4660
H9_27 H 0.1856 0.8657 0.4750
H10_27 H 0.1157 0.9356 0.5250
C8_27 C 0.24686(13) 0.99036(15) 0.62230(17)
C9_27 C 0.25314(13) 0.87770(17) 0.50964(15)
C11_27 C 0.24036(15) 0.99686(13) 0.37770(17)
Er1_57 Er 0.7500 0.5000 0.5000
O1_36 O 0.68518(9) 0.43518(9) 0.5000
O2_28 O 0.66670(9) 0.52970(9) 0.49119(9)
C1_28 C 0.63390(15) 0.44738(16) 0.49542(18)
H1_28 H 0.6199 0.4307 0.4660
H2_28 H 0.6157 0.4356 0.5250
C2_28 C 0.62770(17) 0.50314(13) 0.49036(15)
O4_39 O 0.81482(9) 0.5000 0.56482(9)
O5_32 O 0.7500 0.56482(9) 0.43518(9)
O6_28 O 0.77970(9) 0.41670(9) 0.50881(9)
O7_28 O 0.72030(9) 0.49119(9) 0.58330(9)
O8_28 O 0.83330(9) 0.50881(9) 0.47030(9)
O9_28 O 0.75881(9) 0.58330(9) 0.52970(9)
O10_28 O 0.74119(9) 0.47030(9) 0.41670(9)
C3_28 C 0.69738(16) 0.38390(15) 0.50458(18)
C4_28 C 0.80262(16) 0.49542(18) 0.61610(15)
C5_28 C 0.86610(15) 0.50458(18) 0.55262(16)
C6_28 C 0.75458(18) 0.61610(15) 0.44738(16)
C7_28 C 0.74542(18) 0.55262(16) 0.38390(15)
H3_28 H 0.6807 0.3699 0.5340
H4_28 H 0.8193 0.4660 0.6301
H5_28 H 0.8801 0.5340 0.5693
H6_28 H 0.7840 0.6301 0.4307
H7_28 H 0.7160 0.5693 0.3699
H8_28 H 0.6856 0.3657 0.4750
H9_28 H 0.8144 0.5250 0.6343
H10_28 H 0.8843 0.4750 0.5644
H11_28 H 0.7250 0.6343 0.4356
H12_28 H 0.7750 0.5644 0.3657
C8_28 C 0.75314(13) 0.37770(17) 0.50964(15)
C9_28 C 0.74686(13) 0.49036(15) 0.62230(17)
C10_28 C 0.87230(17) 0.50964(15) 0.49686(13)
C11_28 C 0.75964(15) 0.62230(17) 0.50314(13)
C12_28 C 0.74036(15) 0.49686(13) 0.37770(17)
Er1_58 Er 0.5000 0.5000 0.7500
O1_37 O 0.43518(9) 0.5000 0.68518(9)
O2_29 O 0.41670(9) 0.50881(9) 0.77970(9)
C1_29 C 0.38390(15) 0.50458(18) 0.69738(16)
H1_29 H 0.3699 0.5340 0.6807
H2_29 H 0.3657 0.4750 0.6856
C2_29 C 0.37770(17) 0.50964(15) 0.75314(13)
O4_40 O 0.56482(9) 0.43518(9) 0.7500
O5_33 O 0.5000 0.56482(9) 0.81482(9)
O6_29 O 0.52970(9) 0.49119(9) 0.66670(9)
O7_29 O 0.47030(9) 0.41670(9) 0.74119(9)
O8_29 O 0.58330(9) 0.52970(9) 0.75881(9)
O9_29 O 0.50881(9) 0.47030(9) 0.83330(9)
O10_29 O 0.49119(9) 0.58330(9) 0.72030(9)
C3_29 C 0.44738(16) 0.49542(18) 0.63390(15)
C4_29 C 0.55262(16) 0.38390(15) 0.74542(18)
C5_29 C 0.61610(15) 0.44738(16) 0.75458(18)
C6_29 C 0.50458(18) 0.55262(16) 0.86610(15)
C7_29 C 0.49542(18) 0.61610(15) 0.80262(16)
H3_29 H 0.4307 0.4660 0.6199
H4_29 H 0.5693 0.3699 0.7160
H5_29 H 0.6301 0.4307 0.7840
H6_29 H 0.5340 0.5693 0.8801
H7_29 H 0.4660 0.6301 0.8193
H8_29 H 0.4356 0.5250 0.6157
H9_29 H 0.5644 0.3657 0.7750
H10_29 H 0.6343 0.4356 0.7250
H11_29 H 0.4750 0.5644 0.8843
H12_29 H 0.5250 0.6343 0.8144
C8_29 C 0.50314(13) 0.49036(15) 0.62770(17)
C9_29 C 0.49686(13) 0.37770(17) 0.74036(15)
C10_29 C 0.62230(17) 0.50314(13) 0.75964(15)
C11_29 C 0.50964(15) 0.49686(13) 0.87230(17)
C12_29 C 0.49036(15) 0.62230(17) 0.74686(13)
Er1_59 Er 0.5000 0.7500 0.5000
O1_38 O 0.43518(9) 0.7500 0.56482(9)
O2_30 O 0.41670(9) 0.74119(9) 0.47030(9)
C1_30 C 0.38390(15) 0.74542(18) 0.55262(16)
H1_30 H 0.3699 0.7160 0.5693
H2_30 H 0.3657 0.7750 0.5644
C2_30 C 0.37770(17) 0.74036(15) 0.49686(13)
O4_41 O 0.56482(9) 0.81482(9) 0.5000
O5_34 O 0.5000 0.68518(9) 0.43518(9)
O6_30 O 0.52970(9) 0.75881(9) 0.58330(9)
O7_30 O 0.47030(9) 0.83330(9) 0.50881(9)
O8_30 O 0.58330(9) 0.72030(9) 0.49119(9)
O9_30 O 0.50881(9) 0.77970(9) 0.41670(9)
O10_30 O 0.49119(9) 0.66670(9) 0.52970(9)
C3_30 C 0.44738(16) 0.75458(18) 0.61610(15)
C4_30 C 0.55262(16) 0.86610(15) 0.50458(18)
C5_30 C 0.61610(15) 0.80262(16) 0.49542(18)
C6_30 C 0.50458(18) 0.69738(16) 0.38390(15)
C7_30 C 0.49542(18) 0.63390(15) 0.44738(16)
H3_30 H 0.4307 0.7840 0.6301
H4_30 H 0.5693 0.8801 0.5340
H5_30 H 0.6301 0.8193 0.4660
H6_30 H 0.5340 0.6807 0.3699
H7_30 H 0.4660 0.6199 0.4307
H8_30 H 0.4356 0.7250 0.6343
H9_30 H 0.5644 0.8843 0.4750
H10_30 H 0.6343 0.8144 0.5250
H11_30 H 0.4750 0.6856 0.3657
H12_30 H 0.5250 0.6157 0.4356
C8_30 C 0.50314(13) 0.75964(15) 0.62230(17)
C9_30 C 0.49686(13) 0.87230(17) 0.50964(15)
C10_30 C 0.62230(17) 0.74686(13) 0.49036(15)
C11_30 C 0.50964(15) 0.75314(13) 0.37770(17)
C12_30 C 0.49036(15) 0.62770(17) 0.50314(13)
Er1_60 Er 0.2500 0.2500 0.7500
O1_39 O 0.31482(9) 0.2500 0.68518(9)
O2_31 O 0.33330(9) 0.24119(9) 0.77970(9)
C1_31 C 0.36610(15) 0.24542(18) 0.69738(16)
H1_31 H 0.3801 0.2160 0.6807
H2_31 H 0.3843 0.2750 0.6856
C2_31 C 0.37230(17) 0.24036(15) 0.75314(13)
O4_42 O 0.18518(9) 0.31482(9) 0.7500
O5_35 O 0.2500 0.18518(9) 0.81482(9)
O6_31 O 0.22030(9) 0.25881(9) 0.66670(9)
O7_31 O 0.27970(9) 0.33330(9) 0.74119(9)
O8_31 O 0.16670(9) 0.22030(9) 0.75881(9)
O9_31 O 0.24119(9) 0.27970(9) 0.83330(9)
O10_31 O 0.25881(9) 0.16670(9) 0.72030(9)
C3_31 C 0.30262(16) 0.25458(18) 0.63390(15)
C4_31 C 0.19738(16) 0.36610(15) 0.74542(18)
C5_31 C 0.13390(15) 0.30262(16) 0.75458(18)
C6_31 C 0.24542(18) 0.19738(16) 0.86610(15)
C7_31 C 0.25458(18) 0.13390(15) 0.80262(16)
H3_31 H 0.3193 0.2840 0.6199
H4_31 H 0.1807 0.3801 0.7160
H5_31 H 0.1199 0.3193 0.7840
H6_31 H 0.2160 0.1807 0.8801
H7_31 H 0.2840 0.1199 0.8193
H8_31 H 0.3144 0.2250 0.6157
H9_31 H 0.1856 0.3843 0.7750
H10_31 H 0.1157 0.3144 0.7250
H11_31 H 0.2750 0.1856 0.8843
H12_31 H 0.2250 0.1157 0.8144
C8_31 C 0.24686(13) 0.25964(15) 0.62770(17)
C9_31 C 0.25314(13) 0.37230(17) 0.74036(15)
C10_31 C 0.12770(17) 0.24686(13) 0.75964(15)
C11_31 C 0.24036(15) 0.25314(13) 0.87230(17)
C12_31 C 0.25964(15) 0.12770(17) 0.74686(13)
Er1_61 Er 0.2500 0.5000 0.0000
O1_40 O 0.31482(9) 0.5000 0.06482(9)
C1_32 C 0.36610(15) 0.50458(18) 0.05262(16)
H1_32 H 0.3801 0.5340 0.0693
H2_32 H 0.3843 0.4750 0.0644
O4_43 O 0.18518(9) 0.43518(9) 0.0000
O6_32 O 0.22030(9) 0.49119(9) 0.08330(9)
O7_32 O 0.27970(9) 0.41670(9) 0.00881(9)
O10_32 O 0.25881(9) 0.58330(9) 0.02970(9)
C3_32 C 0.30262(16) 0.49542(18) 0.11610(15)
C4_32 C 0.19738(16) 0.38390(15) 0.00458(18)
H3_32 H 0.3193 0.4660 0.1301
H4_32 H 0.1807 0.3699 0.0340
H8_32 H 0.3144 0.5250 0.1343
H10_32 H 0.1157 0.4356 0.0250
C8_32 C 0.24686(13) 0.49036(15) 0.12230(17)
C9_32 C 0.25314(13) 0.37770(17) 0.00964(15)
C12_32 C 0.25964(15) 0.62230(17) 0.00314(13)
Er1_62 Er 0.2500 0.5000 1.0000
O2_32 O 0.33330(9) 0.50881(9) 0.97030(9)
C2_32 C 0.37230(17) 0.50964(15) 0.99686(13)
O4_44 O 0.18518(9) 0.43518(9) 1.0000
O5_36 O 0.2500 0.56482(9) 0.93518(9)
O8_32 O 0.16670(9) 0.52970(9) 0.99119(9)
O9_32 O 0.24119(9) 0.47030(9) 0.91670(9)
C5_32 C 0.13390(15) 0.44738(16) 0.99542(18)
C6_32 C 0.24542(18) 0.55262(16) 0.88390(15)
C7_32 C 0.25458(18) 0.61610(15) 0.94738(16)
H5_32 H 0.1199 0.4307 0.9660
H6_32 H 0.2160 0.5693 0.8699
H7_32 H 0.2840 0.6301 0.9307
H9_32 H 0.1856 0.3657 0.9750
H11_32 H 0.2750 0.5644 0.8657
H12_32 H 0.2250 0.6343 0.9356
C10_32 C 0.12770(17) 0.50314(13) 0.99036(15)
C11_32 C 0.24036(15) 0.49686(13) 0.87770(17)
loop_
_geom_bond_atom_site_label_1
_geom_bond_atom_site_label_2
_geom_bond_site_symmetry_1
_geom_bond_site_symmetry_2
Er1 O1 1_555 1_555
O1 C1 1_555 1_555
C1 H1 1_555 1_555
Ca3 O15 1_555 1_555
O10 Er1 1_555 1_555
O15 C12 1_555 1_555
O20 Ca1 1_555 1_555
C12 O10 1_555 1_555
Er1_2 O1_2 1_555 1_555
Ca4_2 O11 1_555 1_555
Ca6 O12 1_555 1_555
O4 Er1_2 1_555 1_555
O6 Er1_2 1_555 1_555
O7 Er1_2 1_555 1_555
O11 C8 1_555 1_555
O12 C9 1_555 1_555
O16 Ca1_2 1_555 1_555
O18 Ca1_2 1_555 1_555
C3 O1_2 1_555 1_555
C4 O4 1_555 1_555
H3 C3 1_555 1_555
H4 C4 1_555 1_555
C8 O6 1_555 1_555
C9 O7 1_555 1_555
C3 C8 1_555 1_555
C4 C9 1_555 1_555
Ca1_3 O3 1_555 1_555
O2 Er1_3 1_555 1_555
O3 C2 1_555 1_555
C2 O2 1_555 1_555
Ca2_3 O13 1_555 1_555
O5 Er1_3 1_555 1_555
O8 Er1_3 1_555 1_555
O13 C10 1_555 1_555
O19 Ca1_3 1_555 1_555
C6 O5 1_555 1_555
C7 O5 1_555 1_555
H6 C6 1_555 1_555
H7 C7 1_555 1_555
H11 C6 1_555 1_555
H12 C7 1_555 1_555
C10 O8 1_555 1_555
Ca5_2 O14 1_555 1_555
O4_2 Er1_4 1_555 1_555
O9 Er1_4 1_555 1_555
O14 C11 1_555 1_555
O17 Ca1_4 1_555 1_555
C5 O4_2 1_555 1_555
H5 C5 1_555 1_555
C11 O9 1_555 1_555
Ca1_5 O3_2 1_555 1_555
O2_2 Er1_5 1_555 1_555
O3_2 C2_2 1_555 1_555
C2_2 O2_2 1_555 1_555
Ca2_9 O13_2 1_555 1_555
Ca5_3 O14_2 1_555 1_555
O4_3 Er1_5 1_555 1_555
O5_2 Er1_5 1_555 1_555
O8_2 Er1_5 1_555 1_555
O9_2 Er1_5 1_555 1_555
O13_2 C10_2 1_555 1_555
O14_2 C11_2 1_555 1_555
O17_2 Ca1_5 1_555 1_555
O19_2 Ca1_5 1_555 1_555
C5_2 O4_3 1_555 1_555
C6_2 O5_2 1_555 1_555
C7_2 O5_2 1_555 1_555
H5_2 C5_2 1_555 1_555
H6_2 C6_2 1_555 1_555
H7_2 C7_2 1_555 1_555
H11_2 C6_2 1_555 1_555
H12_2 C7_2 1_555 1_555
C10_2 O8_2 1_555 1_555
C11_2 O9_2 1_555 1_555
C5_2 C10_2 1_555 1_555
C6_2 C11_2 1_555 1_555
Er1_6 O1_3 1_555 1_555
O1_3 C1_2 1_555 1_555
C1_2 H1_2 1_555 1_555
H2_2 C1_2 1_555 1_555
Ca3_6 O15_2 1_555 1_555
Ca4_3 O11_2 1_555 1_555
Ca6_4 O12_2 1_555 1_555
O4_4 Er1_6 1_555 1_555
O6_2 Er1_6 1_555 1_555
O7_2 Er1_6 1_555 1_555
O10_2 Er1_6 1_555 1_555
O11_2 C8_2 1_555 1_555
O12_2 C9_2 1_555 1_555
O15_2 C12_2 1_555 1_555
O16_2 Ca1_6 1_555 1_555
O18_2 Ca1_6 1_555 1_555
O20_2 Ca1_6 1_555 1_555
C3_2 O1_3 1_555 1_555
C4_2 O4_4 1_555 1_555
H3_2 C3_2 1_555 1_555
H4_2 C4_2 1_555 1_555
H8_2 C3_2 1_555 1_555
C8_2 O6_2 1_555 1_555
C9_2 O7_2 1_555 1_555
C12_2 O10_2 1_555 1_555
C3_2 C8_2 1_555 1_555
C4_2 C9_2 1_555 1_555
Ca4 O13_3 1_555 1_555
O5_3 Er1_7 1_555 1_555
O8_3 Er1_7 1_555 1_555
O13_3 C10_3 1_555 1_555
C6_3 O5_3 1_555 1_555
H6_3 C6_3 1_555 1_555
C10_3 O8_3 1_555 1_555
Ca2_2 O11_3 1_555 1_555
Ca3_4 O14_3 1_555 1_555
O4_5 Er1_8 1_555 1_555
O6_3 Er1_8 1_555 1_555
O9_3 Er1_8 1_555 1_555
O11_3 C8_3 1_555 1_555
O14_3 C11_3 1_555 1_555
C4_3 O4_5 1_555 1_555
C5_3 O4_5 1_555 1_555
H4_3 C4_3 1_555 1_555
H5_3 C5_3 1_555 1_555
H9_3 C4_3 1_555 1_555
H10_3 C5_3 1_555 1_555
C8_3 O6_3 1_555 1_555
C11_3 O9_3 1_555 1_555
Er1_9 O1_4 1_555 1_555
Ca1_7 O3_3 1_555 1_555
O1_4 C1_3 1_555 1_555
O2_3 Er1_9 1_555 1_555
O3_3 C2_3 1_555 1_555
C1_3 H1_3 1_555 1_555
C2_3 O2_3 1_555 1_555
Ca3_8 O15_3 1_555 1_555
O5_4 Er1_9 1_555 1_555
O10_3 Er1_9 1_555 1_555
O15_3 C12_3 1_555 1_555
O19_3 Ca1_7 1_555 1_555
O20_3 Ca1_7 1_555 1_555
C7_3 O5_4 1_555 1_555
H7_3 C7_3 1_555 1_555
C12_3 O10_3 1_555 1_555
C1_3 C2_3 1_555 1_555
C7_3 C12_3 1_555 1_555
Er1_10 O1_5 1_555 1_555
Ca2_10 O12_3 1_555 1_555
O7_3 Er1_10 1_555 1_555
O12_3 C9_3 1_555 1_555
O16_3 Ca1_8 1_555 1_555
O17_3 Ca1_8 1_555 1_555
O18_3 Ca1_8 1_555 1_555
C3_3 O1_5 1_555 1_555
H3_3 C3_3 1_555 1_555
C9_3 O7_3 1_555 1_555
Er1_11 O1_6 1_555 1_555
Ca5_3 O3_4 1_555 1_555
O1_6 C1_4 1_555 1_555
O2_4 Er1_11 1_555 1_555
O3_4 C2_4 1_555 1_555
C1_4 H1_4 1_555 1_555
H2_4 C1_4 1_555 1_555
C2_4 O2_4 1_555 1_555
Ca6_2 O13_4 1_555 1_555
Ca5_2 O15_4 1_555 1_555
Ca4_4 O11_4 1_555 1_555
Ca6_5 O12_4 1_555 1_555
O4_6 Er1_11 1_555 1_555
O5_5 Er1_11 1_555 1_555
O6_4 Er1_11 1_555 1_555
O7_4 Er1_11 1_555 1_555
O8_4 Er1_11 1_555 1_555
O9_4 Er1_11 1_555 1_555
O10_4 Er1_11 1_555 1_555
O11_4 C8_4 1_555 1_555
O12_4 C9_4 1_555 1_555
O13_4 C10_4 1_555 1_555
O17_2 C11_4 1_555 1_555
O15_4 C12_4 1_555 1_555
O16_4 Ca5_3 1_555 1_555
O18_4 Ca5_3 1_555 1_555
O19_4 Ca5_3 1_555 1_555
O20_4 Ca5_3 1_555 1_555
C3_4 O1_6 1_555 1_555
C4_4 O4_6 1_555 1_555
C5_4 O4_6 1_555 1_555
C6_4 O5_5 1_555 1_555
C7_4 O5_5 1_555 1_555
H3_4 C3_4 1_555 1_555
H4_4 C4_4 1_555 1_555
H5_4 C5_4 1_555 1_555
H6_4 C6_4 1_555 1_555
H7_4 C7_4 1_555 1_555
H8_4 C3_4 1_555 1_555
H9_4 C4_4 1_555 1_555
H10_4 C5_4 1_555 1_555
H11_4 C6_4 1_555 1_555
H12_4 C7_4 1_555 1_555
C8_4 O6_4 1_555 1_555
C9_4 O7_4 1_555 1_555
C10_4 O8_4 1_555 1_555
C11_4 O9_4 1_555 1_555
C12_4 O10_4 1_555 1_555
C1_4 C2_4 1_555 1_555
C3_4 C8_4 1_555 1_555
C4_4 C9_4 1_555 1_555
C5_4 C10_4 1_555 1_555
C6_4 C11_4 1_555 1_555
C7_4 C12_4 1_555 1_555
Er1_12 O1_7 1_555 1_555
Ca5_4 O14_4 1_555 1_555
Ca6_6 O12_5 1_555 1_555
O4_7 Er1_12 1_555 1_555
O6_5 Er1_12 1_555 1_555
O7_5 Er1_12 1_555 1_555
O9_5 Er1_12 1_555 1_555
O16 C8_5 1_555 1_555
O12_5 C9_5 1_555 1_555
O14_4 C11_5 1_555 1_555
O16_5 Ca1_9 1_555 1_555
O17_4 Ca1_9 1_555 1_555
O18_5 Ca1_9 1_555 1_555
C3_5 O1_7 1_555 1_555
C4_5 O4_7 1_555 1_555
C5_5 O4_7 1_555 1_555
H3_5 C3_5 1_555 1_555
H4_5 C4_5 1_555 1_555
H5_5 C5_5 1_555 1_555
H9_5 C4_5 1_555 1_555
H10_5 C5_5 1_555 1_555
C8_5 O6_5 1_555 1_555
C9_5 O7_5 1_555 1_555
C11_5 O9_5 1_555 1_555
C3_5 C8_5 1_555 1_555
C4_5 C9_5 1_555 1_555
Er1_13 O1_8 1_555 1_555
Ca1_10 O3_5 1_555 1_555
O1_8 C1_5 1_555 1_555
O2_5 Er1_13 1_555 1_555
O3_5 C2_5 1_555 1_555
C1_5 H1_5 1_555 1_555
C2_5 O2_5 1_555 1_555
Ca6_2 O13_5 1_555 1_555
Ca4_4 O15_5 1_555 1_555
O5_6 Er1_13 1_555 1_555
O8_5 Er1_13 1_555 1_555
O10_5 Er1_13 1_555 1_555
O13_5 C10_5 1_555 1_555
O15_5 C12_5 1_555 1_555
O19_5 Ca1_10 1_555 1_555
O20_5 Ca1_10 1_555 1_555
C6_5 O5_6 1_555 1_555
C7_5 O5_6 1_555 1_555
H6_5 C6_5 1_555 1_555
H7_5 C7_5 1_555 1_555
H11_5 C6_5 1_555 1_555
H12_5 C7_5 1_555 1_555
C10_5 O8_5 1_555 1_555
C12_5 O10_5 1_555 1_555
C1_5 C2_5 1_555 1_555
C7_5 C12_5 1_555 1_555
Er1_14 O1_9 1_555 1_555
Ca1_11 O3_6 1_555 1_555
O1_9 C1_6 1_555 1_555
O2_6 Er1_14 1_555 1_555
O3_6 C2_6 1_555 1_555
C1_6 H1_6 1_555 1_555
H2_6 C1_6 1_555 1_555
C2_6 O2_6 1_555 1_555
Ca3_7 O13_6 1_555 1_555
Ca4 O15_6 1_555 1_555
Ca3 O11_5 1_555 1_555
Ca5_6 O14_5 1_555 1_555
Ca6_7 O12_6 1_555 1_555
O4_8 Er1_14 1_555 1_555
O5_7 Er1_14 1_555 1_555
O6_6 Er1_14 1_555 1_555
O7_6 Er1_14 1_555 1_555
O8_6 Er1_14 1_555 1_555
O9_6 Er1_14 1_555 1_555
O10_6 Er1_14 1_555 1_555
O11_5 C8_6 1_555 1_555
O12_6 C9_6 1_555 1_555
O13_6 C10_6 1_555 1_555
O14_5 C11_6 1_555 1_555
O15_6 C12_6 1_555 1_555
O16_6 Ca1_11 1_555 1_555
O17_5 Ca1_11 1_555 1_555
O18_6 Ca1_11 1_555 1_555
O19_6 Ca1_11 1_555 1_555
O20_6 Ca1_11 1_555 1_555
C3_6 O1_9 1_555 1_555
C4_6 O4_8 1_555 1_555
C5_6 O4_8 1_555 1_555
C6_6 O5_7 1_555 1_555
C7_6 O5_7 1_555 1_555
H3_6 C3_6 1_555 1_555
H4_6 C4_6 1_555 1_555
H5_6 C5_6 1_555 1_555
H6_6 C6_6 1_555 1_555
H7_6 C7_6 1_555 1_555
H8_6 C3_6 1_555 1_555
H9_6 C4_6 1_555 1_555
H10_6 C5_6 1_555 1_555
H11_6 C6_6 1_555 1_555
H12_6 C7_6 1_555 1_555
C8_6 O6_6 1_555 1_555
C9_6 O7_6 1_555 1_555
C10_6 O8_6 1_555 1_555
C11_6 O9_6 1_555 1_555
C12_6 O10_6 1_555 1_555
C1_6 C2_6 1_555 1_555
C3_6 C8_6 1_555 1_555
C4_6 C9_6 1_555 1_555
C5_6 C10_6 1_555 1_555
C6_6 C11_6 1_555 1_555
C7_6 C12_6 1_555 1_555
Ca1_12 O3_7 1_555 1_555
O2_7 Er1_15 1_555 1_555
O3_7 C2_7 1_555 1_555
C2_7 O2_7 1_555 1_555
Ca5 O13_7 1_555 1_555
Ca5_7 O14_6 1_555 1_555
O4_9 Er1_15 1_555 1_555
O5_8 Er1_15 1_555 1_555
O8_7 Er1_15 1_555 1_555
O9_7 Er1_15 1_555 1_555
O13_7 C10_7 1_555 1_555
O14_6 C11_7 1_555 1_555
O17_6 Ca1_12 1_555 1_555
O19_7 Ca1_12 1_555 1_555
C5_7 O4_9 1_555 1_555
C6_7 O5_8 1_555 1_555
C7_7 O5_8 1_555 1_555
H5_7 C5_7 1_555 1_555
H6_7 C6_7 1_555 1_555
H7_7 C7_7 1_555 1_555
H11_7 C6_7 1_555 1_555
H12_7 C7_7 1_555 1_555
C10_7 O8_7 1_555 1_555
C11_7 O9_7 1_555 1_555
C5_7 C10_7 1_555 1_555
C6_7 C11_7 1_555 1_555
Er1_16 O1_10 1_555 1_555
O1_10 C1_7 1_555 1_555
C1_7 H1_7 1_555 1_555
H2_7 C1_7 1_555 1_555
Ca4_4 O11_6 1_555 1_555
Ca6_9 O12_7 1_555 1_555
O4_10 Er1_16 1_555 1_555
O6_7 Er1_16 1_555 1_555
O7_7 Er1_16 1_555 1_555
O10_7 Er1_16 1_555 1_555
O11_6 C8_7 1_555 1_555
O12_7 C9_7 1_555 1_555
O17 C12_7 1_555 1_555
O16_7 Ca1_13 1_555 1_555
O18_7 Ca1_13 1_555 1_555
O20_7 Ca1_13 1_555 1_555
C3_7 O1_10 1_555 1_555
C4_7 O4_10 1_555 1_555
H3_7 C3_7 1_555 1_555
H4_7 C4_7 1_555 1_555
H8_7 C3_7 1_555 1_555
C8_7 O6_7 1_555 1_555
C9_7 O7_7 1_555 1_555
C12_7 O10_7 1_555 1_555
C3_7 C8_7 1_555 1_555
C4_7 C9_7 1_555 1_555
O16_8 Ca6_5 1_555 1_555
O17_7 Ca6_5 1_555 1_555
O18_8 Ca6_5 1_555 1_555
O19_8 Ca6_5 1_555 1_555
O20_8 Ca6_5 1_555 1_555
Ca3_7 O11_7 1_555 1_555
O4_11 Er1_17 1_555 1_555
O6_8 Er1_17 1_555 1_555
O11_7 C8_8 1_555 1_555
C4_8 O4_11 1_555 1_555
H4_8 C4_8 1_555 1_555
C8_8 O6_8 1_555 1_555
Ca3_2 O13_8 1_555 1_555
Ca5_8 O14_7 1_555 1_555
O4_12 Er1_18 1_555 1_555
O5_9 Er1_18 1_555 1_555
O8_8 Er1_18 1_555 1_555
O9_8 Er1_18 1_555 1_555
O13_8 C10_8 1_555 1_555
O14_7 C11_8 1_555 1_555
C5_8 O4_12 1_555 1_555
C6_8 O5_9 1_555 1_555
H5_8 C5_8 1_555 1_555
H6_8 C6_8 1_555 1_555
C10_8 O8_8 1_555 1_555
C11_8 O9_8 1_555 1_555
C5_8 C10_8 1_555 1_555
C6_8 C11_8 1_555 1_555
Er1_19 O1_11 1_555 1_555
O1_11 C1_8 1_555 1_555
C1_8 H1_8 1_555 1_555
H2_8 C1_8 1_555 1_555
Ca2_5 O15_7 1_555 1_555
Ca6_12 O12_8 1_555 1_555
O7_8 Er1_19 1_555 1_555
O10_8 Er1_19 1_555 1_555
O12_8 C9_8 1_555 1_555
O15_7 C12_8 1_555 1_555
O16_9 Ca1_14 1_555 1_555
O18_9 Ca1_14 1_555 1_555
O20_9 Ca1_14 1_555 1_555
C3_8 O1_11 1_555 1_555
H3_8 C3_8 1_555 1_555
H8_8 C3_8 1_555 1_555
C9_8 O7_8 1_555 1_555
C12_8 O10_8 1_555 1_555
Ca1_15 O3_8 1_555 1_555
O2_8 Er1_20 1_555 1_555
O3_8 C2_8 1_555 1_555
C2_8 O2_8 1_555 1_555
O5_10 Er1_20 1_555 1_555
O17_8 Ca1_15 1_555 1_555
O19_9 Ca1_15 1_555 1_555
C7_8 O5_10 1_555 1_555
H7_8 C7_8 1_555 1_555
O18_10 Ca3_7 1_555 1_555
O19_10 Ca3_8 1_555 1_555
O20_10 Ca3_8 1_555 1_555
O20_11 Ca3_3 1_555 1_555
O19_11 Ca3_4 1_555 1_555
O16_10 Ca3_5 1_555 1_555
O18_11 Ca3_5 1_555 1_555
O20_12 Ca6_10 1_555 1_555
O16_11 Ca6_11 1_555 1_555
O18_12 Ca6_11 1_555 1_555
O19_12 Ca6_12 1_555 1_555
O17_9 Ca6_13 1_555 1_555
O16_12 Ca6_7 1_555 1_555
O17_10 Ca6_7 1_555 1_555
O18_13 Ca6_7 1_555 1_555
O19_13 Ca6_7 1_555 1_555
O20_13 Ca6_7 1_555 1_555
O19_14 Ca5_8 1_555 1_555
O20_14 Ca5_8 1_555 1_555
O16_13 Ca5_9 1_555 1_555
O17_11 Ca5_9 1_555 1_555
O18_14 Ca5_9 1_555 1_555
O19_15 Ca6 1_555 1_555
O20_15 Ca6 1_555 1_555
O18_15 Ca6_2 1_555 1_555
O18_16 Ca5 1_555 1_555
O20_16 Ca5 1_555 1_555
O19_16 Ca5_2 1_555 1_555
O16_14 Ca5_6 1_555 1_555
O17_12 Ca5_6 1_555 1_555
O18_17 Ca5_6 1_555 1_555
O19_17 Ca5_6 1_555 1_555
O20_17 Ca5_6 1_555 1_555
O18_18 Ca2_9 1_555 1_555
O20_18 Ca2_9 1_555 1_555
O17_13 Ca2_10 1_555 1_555
O19_18 Ca2_10 1_555 1_555
O18_19 Ca4 1_555 1_555
O19_19 Ca4_2 1_555 1_555
O20_19 Ca4_2 1_555 1_555
Ca6_3 O3_9 1_555 1_555
O2_9 Er1_21 1_555 1_555
O3_9 C2_9 1_555 1_555
C2_9 O2_9 1_555 1_555
O4_13 Er1_21 1_555 1_555
O5_11 Er1_21 1_555 1_555
O8_9 Er1_21 1_555 1_555
O9_9 Er1_21 1_555 1_555
O16_11 C10_9 1_555 1_555
O16_8 C11_9 1_555 1_555
O17_14 Ca6_3 1_555 1_555
O19_20 Ca6_3 1_555 1_555
C5_9 O4_13 1_555 1_555
C6_9 O5_11 1_555 1_555
C7_9 O5_11 1_555 1_555
H5_9 C5_9 1_555 1_555
H6_9 C6_9 1_555 1_555
H7_9 C7_9 1_555 1_555
H11_9 C6_9 1_555 1_555
H12_9 C7_9 1_555 1_555
C10_9 O8_9 1_555 1_555
C11_9 O9_9 1_555 1_555
C5_9 C10_9 1_555 1_555
C6_9 C11_9 1_555 1_555
Er1_22 O1_12 1_555 1_555
O1_12 C1_9 1_555 1_555
C1_9 H1_9 1_555 1_555
H2_9 C1_9 1_555 1_555
Ca4_5 O11_8 1_555 1_555
O4_14 Er1_22 1_555 1_555
O6_9 Er1_22 1_555 1_555
O7_9 Er1_22 1_555 1_555
O10_9 Er1_22 1_555 1_555
O11_8 C8_9 1_555 1_555
O16_2 C9_9 1_555 1_555
O17_11 C12_9 1_555 1_555
O18_20 Ca6_4 1_555 1_555
O20_20 Ca6_4 1_555 1_555
C3_9 O1_12 1_555 1_555
C4_9 O4_14 1_555 1_555
H3_9 C3_9 1_555 1_555
H4_9 C4_9 1_555 1_555
H8_9 C3_9 1_555 1_555
C8_9 O6_9 1_555 1_555
C9_9 O7_9 1_555 1_555
C12_9 O10_9 1_555 1_555
C3_9 C8_9 1_555 1_555
C4_9 C9_9 1_555 1_555
Er1_23 O1_13 1_555 1_555
Ca6_6 O3_10 1_555 1_555
O1_13 C1_10 1_555 1_555
O2_10 Er1_23 1_555 1_555
O3_10 C2_10 1_555 1_555
C1_10 H1_10 1_555 1_555
H2_10 C1_10 1_555 1_555
C2_10 O2_10 1_555 1_555
Ca4_3 O15_8 1_555 1_555
Ca5_10 O14_8 1_555 1_555
O4_15 Er1_23 1_555 1_555
O5_12 Er1_23 1_555 1_555
O6_10 Er1_23 1_555 1_555
O7_10 Er1_23 1_555 1_555
O8_10 Er1_23 1_555 1_555
O9_10 Er1_23 1_555 1_555
O10_10 Er1_23 1_555 1_555
O16_3 C8_10 1_555 1_555
O16_5 C9_10 1_555 1_555
O17_13 C10_10 1_555 1_555
O14_8 C11_10 1_555 1_555
O15_8 C12_10 1_555 1_555
O17_15 Ca6_6 1_555 1_555
O18_21 Ca6_6 1_555 1_555
O19_21 Ca6_6 1_555 1_555
O20_21 Ca6_6 1_555 1_555
C3_10 O1_13 1_555 1_555
C4_10 O4_15 1_555 1_555
C5_10 O4_15 1_555 1_555
C6_10 O5_12 1_555 1_555
C7_10 O5_12 1_555 1_555
H3_10 C3_10 1_555 1_555
H4_10 C4_10 1_555 1_555
H5_10 C5_10 1_555 1_555
H6_10 C6_10 1_555 1_555
H7_10 C7_10 1_555 1_555
H8_10 C3_10 1_555 1_555
H9_10 C4_10 1_555 1_555
H10_10 C5_10 1_555 1_555
H11_10 C6_10 1_555 1_555
H12_10 C7_10 1_555 1_555
C8_10 O6_10 1_555 1_555
C9_10 O7_10 1_555 1_555
C10_10 O8_10 1_555 1_555
C11_10 O9_10 1_555 1_555
C12_10 O10_10 1_555 1_555
C1_10 C2_10 1_555 1_555
C3_10 C8_10 1_555 1_555
C4_10 C9_10 1_555 1_555
C5_10 C10_10 1_555 1_555
C6_10 C11_10 1_555 1_555
C7_10 C12_10 1_555 1_555
Er1_24 O1_14 1_555 1_555
Ca5_10 O12_9 1_555 1_555
O4_16 Er1_24 1_555 1_555
O6_11 Er1_24 1_555 1_555
O7_11 Er1_24 1_555 1_555
O9_11 Er1_24 1_555 1_555
O16_9 C8_11 1_555 1_555
O12_9 C9_11 1_555 1_555
O17_4 C11_11 1_555 1_555
O16_15 Ca5_4 1_555 1_555
O18_22 Ca5_4 1_555 1_555
C3_11 O1_14 1_555 1_555
C4_11 O4_16 1_555 1_555
C5_11 O4_16 1_555 1_555
H3_11 C3_11 1_555 1_555
H4_11 C4_11 1_555 1_555
H5_11 C5_11 1_555 1_555
H9_11 C4_11 1_555 1_555
H10_11 C5_11 1_555 1_555
C8_11 O6_11 1_555 1_555
C9_11 O7_11 1_555 1_555
C11_11 O9_11 1_555 1_555
C3_11 C8_11 1_555 1_555
C4_11 C9_11 1_555 1_555
Er1_25 O1_15 1_555 1_555
Ca5_5 O3_11 1_555 1_555
O1_15 C1_11 1_555 1_555
O2_11 Er1_25 1_555 1_555
O3_11 C2_11 1_555 1_555
C1_11 H1_11 1_555 1_555
C2_11 O2_11 1_555 1_555
Ca4_5 O15_9 1_555 1_555
O5_13 Er1_25 1_555 1_555
O8_11 Er1_25 1_555 1_555
O10_11 Er1_25 1_555 1_555
O17_9 C10_11 1_555 1_555
O15_9 C12_11 1_555 1_555
O19_22 Ca5_5 1_555 1_555
O20_22 Ca5_5 1_555 1_555
C6_11 O5_13 1_555 1_555
C7_11 O5_13 1_555 1_555
H6_11 C6_11 1_555 1_555
H7_11 C7_11 1_555 1_555
H11_11 C6_11 1_555 1_555
H12_11 C7_11 1_555 1_555
C10_11 O8_11 1_555 1_555
C12_11 O10_11 1_555 1_555
C1_11 C2_11 1_555 1_555
C7_11 C12_11 1_555 1_555
O19_23 Ca3 1_555 1_555
O18_23 Ca3_2 1_555 1_555
O20_23 Ca3_2 1_555 1_555
O18_24 Ca2_4 1_555 1_555
O19_24 Ca2_6 1_555 1_555
O20_24 Ca2_7 1_555 1_555
Er1_26 O1_16 1_555 1_555
Ca1_16 O3_12 1_555 1_555
O1_16 C1_12 1_555 1_555
O2_12 Er1_26 1_555 1_555
O3_12 C2_12 1_555 1_555
C1_12 H1_12 1_555 1_555
H2_12 C1_12 1_555 1_555
C2_12 O2_12 1_555 1_555
O4_17 Er1_26 1_555 1_555
O5_14 Er1_26 1_555 1_555
O6_12 Er1_26 1_555 1_555
O7_12 Er1_26 1_555 1_555
O8_12 Er1_26 1_555 1_555
O9_12 Er1_26 1_555 1_555
O10_12 Er1_26 1_555 1_555
O17_7 C8_12 1_555 1_555
O17_12 C9_12 1_555 1_555
O17_14 C10_12 1_555 1_555
O16_12 C11_12 1_555 1_555
O16_4 C12_12 1_555 1_555
O16_16 Ca1_16 1_555 1_555
O17_16 Ca1_16 1_555 1_555
O18_25 Ca1_16 1_555 1_555
O19_25 Ca1_16 1_555 1_555
O20_25 Ca1_16 1_555 1_555
C3_12 O1_16 1_555 1_555
C4_12 O4_17 1_555 1_555
C5_12 O4_17 1_555 1_555
C6_12 O5_14 1_555 1_555
C7_12 O5_14 1_555 1_555
H3_12 C3_12 1_555 1_555
H4_12 C4_12 1_555 1_555
H5_12 C5_12 1_555 1_555
H6_12 C6_12 1_555 1_555
H7_12 C7_12 1_555 1_555
H8_12 C3_12 1_555 1_555
H9_12 C4_12 1_555 1_555
H10_12 C5_12 1_555 1_555
H11_12 C6_12 1_555 1_555
H12_12 C7_12 1_555 1_555
C8_12 O6_12 1_555 1_555
C9_12 O7_12 1_555 1_555
C10_12 O8_12 1_555 1_555
C11_12 O9_12 1_555 1_555
C12_12 O10_12 1_555 1_555
C1_12 C2_12 1_555 1_555
C3_12 C8_12 1_555 1_555
C4_12 C9_12 1_555 1_555
C5_12 C10_12 1_555 1_555
C6_12 C11_12 1_555 1_555
C7_12 C12_12 1_555 1_555
O16_17 Ca4_5 1_555 1_555
O18_26 Ca4_5 1_555 1_555
O19_26 Ca4_5 1_555 1_555
O20_26 Ca4_5 1_555 1_555
Er1_27 O1_17 1_555 1_555
Ca1_17 O3_13 1_555 1_555
O1_17 C1_13 1_555 1_555
O2_13 Er1_27 1_555 1_555
O3_13 C2_13 1_555 1_555
C1_13 H1_13 1_555 1_555
H2_13 C1_13 1_555 1_555
C2_13 O2_13 1_555 1_555
Ca6_8 O14_9 1_555 1_555
Ca5_7 O12_10 1_555 1_555
O4_18 Er1_27 1_555 1_555
O5_15 Er1_27 1_555 1_555
O6_13 Er1_27 1_555 1_555
O7_13 Er1_27 1_555 1_555
O8_13 Er1_27 1_555 1_555
O9_13 Er1_27 1_555 1_555
O10_13 Er1_27 1_555 1_555
O16_16 C8_13 1_555 1_555
O12_10 C9_13 1_555 1_555
O16_14 C10_13 1_555 1_555
O14_9 C11_13 1_555 1_555
O17_5 C12_13 1_555 1_555
O16_18 Ca1_17 1_555 1_555
O17_17 Ca1_17 1_555 1_555
O18_27 Ca1_17 1_555 1_555
O19_27 Ca1_17 1_555 1_555
O20_27 Ca1_17 1_555 1_555
C3_13 O1_17 1_555 1_555
C4_13 O4_18 1_555 1_555
C5_13 O4_18 1_555 1_555
C6_13 O5_15 1_555 1_555
C7_13 O5_15 1_555 1_555
H3_13 C3_13 1_555 1_555
H4_13 C4_13 1_555 1_555
H5_13 C5_13 1_555 1_555
H6_13 C6_13 1_555 1_555
H7_13 C7_13 1_555 1_555
H8_13 C3_13 1_555 1_555
H9_13 C4_13 1_555 1_555
H10_13 C5_13 1_555 1_555
H11_13 C6_13 1_555 1_555
H12_13 C7_13 1_555 1_555
C8_13 O6_13 1_555 1_555
C9_13 O7_13 1_555 1_555
C10_13 O8_13 1_555 1_555
C11_13 O9_13 1_555 1_555
C12_13 O10_13 1_555 1_555
C1_13 C2_13 1_555 1_555
C3_13 C8_13 1_555 1_555
C4_13 C9_13 1_555 1_555
C5_13 C10_13 1_555 1_555
C6_13 C11_13 1_555 1_555
C7_13 C12_13 1_555 1_555
O18_28 Ca4_4 1_555 1_555
O19_28 Ca4_4 1_555 1_555
O20_28 Ca4_4 1_555 1_555
Er1_28 O1_18 1_555 1_555
Ca5_10 O3_14 1_555 1_555
O1_18 C1_14 1_555 1_555
O2_14 Er1_28 1_555 1_555
O3_14 C2_14 1_555 1_555
C1_14 H1_14 1_555 1_555
H2_14 C1_14 1_555 1_555
C2_14 O2_14 1_555 1_555
O4_19 Er1_28 1_555 1_555
O5_16 Er1_28 1_555 1_555
O6_14 Er1_28 1_555 1_555
O7_14 Er1_28 1_555 1_555
O8_14 Er1_28 1_555 1_555
O9_14 Er1_28 1_555 1_555
O10_14 Er1_28 1_555 1_555
O16_6 C8_14 1_555 1_555
O16_15 C9_14 1_555 1_555
O17_10 C10_14 1_555 1_555
O17_15 C11_14 1_555 1_555
O17_16 C12_14 1_555 1_555
O18_29 Ca5_10 1_555 1_555
O19_29 Ca5_10 1_555 1_555
O20_29 Ca5_10 1_555 1_555
C3_14 O1_18 1_555 1_555
C4_14 O4_19 1_555 1_555
C5_14 O4_19 1_555 1_555
C6_14 O5_16 1_555 1_555
C7_14 O5_16 1_555 1_555
H3_14 C3_14 1_555 1_555
H4_14 C4_14 1_555 1_555
H5_14 C5_14 1_555 1_555
H6_14 C6_14 1_555 1_555
H7_14 C7_14 1_555 1_555
H8_14 C3_14 1_555 1_555
H9_14 C4_14 1_555 1_555
H10_14 C5_14 1_555 1_555
H11_14 C6_14 1_555 1_555
H12_14 C7_14 1_555 1_555
C8_14 O6_14 1_555 1_555
C9_14 O7_14 1_555 1_555
C10_14 O8_14 1_555 1_555
C11_14 O9_14 1_555 1_555
C12_14 O10_14 1_555 1_555
C1_14 C2_14 1_555 1_555
C3_14 C8_14 1_555 1_555
C4_14 C9_14 1_555 1_555
C5_14 C10_14 1_555 1_555
C6_14 C11_14 1_555 1_555
C7_14 C12_14 1_555 1_555
O16_19 Ca4_3 1_555 1_555
O18_30 Ca4_3 1_555 1_555
O19_30 Ca4_3 1_555 1_555
O20_30 Ca4_3 1_555 1_555
Er1_29 O1_19 1_555 1_555
Ca5_7 O3_15 1_555 1_555
O1_19 C1_15 1_555 1_555
O2_15 Er1_29 1_555 1_555
O3_15 C2_15 1_555 1_555
C1_15 H1_15 1_555 1_555
H2_15 C1_15 1_555 1_555
C2_15 O2_15 1_555 1_555
O4_20 Er1_29 1_555 1_555
O5_17 Er1_29 1_555 1_555
O6_15 Er1_29 1_555 1_555
O7_15 Er1_29 1_555 1_555
O8_15 Er1_29 1_555 1_555
O9_15 Er1_29 1_555 1_555
O10_15 Er1_29 1_555 1_555
O16_17 C8_15 1_555 1_555
O16_18 C9_15 1_555 1_555
O16_13 C10_15 1_555 1_555
O17_6 C11_15 1_555 1_555
O17_8 C12_15 1_555 1_555
O18_31 Ca5_7 1_555 1_555
O19_31 Ca5_7 1_555 1_555
O20_31 Ca5_7 1_555 1_555
C3_15 O1_19 1_555 1_555
C4_15 O4_20 1_555 1_555
C5_15 O4_20 1_555 1_555
C6_15 O5_17 1_555 1_555
C7_15 O5_17 1_555 1_555
H3_15 C3_15 1_555 1_555
H4_15 C4_15 1_555 1_555
H5_15 C5_15 1_555 1_555
H6_15 C6_15 1_555 1_555
H7_15 C7_15 1_555 1_555
H8_15 C3_15 1_555 1_555
H9_15 C4_15 1_555 1_555
H10_15 C5_15 1_555 1_555
H11_15 C6_15 1_555 1_555
H12_15 C7_15 1_555 1_555
C8_15 O6_15 1_555 1_555
C9_15 O7_15 1_555 1_555
C10_15 O8_15 1_555 1_555
C11_15 O9_15 1_555 1_555
C12_15 O10_15 1_555 1_555
C1_15 C2_15 1_555 1_555
C3_15 C8_15 1_555 1_555
C4_15 C9_15 1_555 1_555
C5_15 C10_15 1_555 1_555
C6_15 C11_15 1_555 1_555
C7_15 C12_15 1_555 1_555
Ca6_8 O3_16 1_555 1_555
O2_16 Er1_30 1_555 1_555
O3_16 C2_16 1_555 1_555
C2_16 O2_16 1_555 1_555
O4_21 Er1_30 1_555 1_555
O5_18 Er1_30 1_555 1_555
O8_16 Er1_30 1_555 1_555
O9_16 Er1_30 1_555 1_555
O16_10 C10_16 1_555 1_555
O17_17 C11_16 1_555 1_555
O19_32 Ca6_8 1_555 1_555
C5_16 O4_21 1_555 1_555
C6_16 O5_18 1_555 1_555
C7_16 O5_18 1_555 1_555
H5_16 C5_16 1_555 1_555
H6_16 C6_16 1_555 1_555
H7_16 C7_16 1_555 1_555
H11_16 C6_16 1_555 1_555
H12_16 C7_16 1_555 1_555
C10_16 O8_16 1_555 1_555
C11_16 O9_16 1_555 1_555
C5_16 C10_16 1_555 1_555
C6_16 C11_16 1_555 1_555
Er1_31 O1_20 1_555 1_555
O1_20 C1_16 1_555 1_555
C1_16 H1_16 1_555 1_555
H2_16 C1_16 1_555 1_555
O4_22 Er1_31 1_555 1_555
O6_16 Er1_31 1_555 1_555
O7_16 Er1_31 1_555 1_555
O10_16 Er1_31 1_555 1_555
O16_19 C8_16 1_555 1_555
O16_7 C9_16 1_555 1_555
O17_3 C12_16 1_555 1_555
O18_32 Ca6_9 1_555 1_555
O20_32 Ca6_9 1_555 1_555
C3_16 O1_20 1_555 1_555
C4_16 O4_22 1_555 1_555
H3_16 C3_16 1_555 1_555
H4_16 C4_16 1_555 1_555
H8_16 C3_16 1_555 1_555
C8_16 O6_16 1_555 1_555
C9_16 O7_16 1_555 1_555
C12_16 O10_16 1_555 1_555
C3_16 C8_16 1_555 1_555
C4_16 C9_16 1_555 1_555
O4_23 Er1_32 1_555 1_555
O9_17 Er1_32 1_555 1_555
O20_3 C11_17 1_555 1_555
C5_17 O4_23 1_555 1_555
H5_17 C5_17 1_555 1_555
C11_17 O9_17 1_555 1_555
O2_17 Er1_33 1_555 1_555
O18 C2_17 1_555 1_555
C2_17 O2_17 1_555 1_555
O5_19 Er1_33 1_555 1_555
O8_17 Er1_33 1_555 1_555
O19_24 C10_17 1_555 1_555
C6_17 O5_19 1_555 1_555
C7_17 O5_19 1_555 1_555
H6_17 C6_17 1_555 1_555
H7_17 C7_17 1_555 1_555
H11_17 C6_17 1_555 1_555
H12_17 C7_17 1_555 1_555
C10_17 O8_17 1_555 1_555
Er1_34 O1_21 1_555 1_555
O4_24 Er1_34 1_555 1_555
O6_17 Er1_34 1_555 1_555
O7_17 Er1_34 1_555 1_555
O19_7 C8_17 1_555 1_555
O19_9 C9_17 1_555 1_555
C3_17 O1_21 1_555 1_555
C4_17 O4_24 1_555 1_555
H3_17 C3_17 1_555 1_555
H4_17 C4_17 1_555 1_555
C8_17 O6_17 1_555 1_555
C9_17 O7_17 1_555 1_555
C3_17 C8_17 1_555 1_555
C4_17 C9_17 1_555 1_555
Er1_35 O1_22 1_555 1_555
O1_22 C1_17 1_555 1_555
C1_17 H1_17 1_555 1_555
O10_17 Er1_35 1_555 1_555
O20_5 C12_17 1_555 1_555
C12_17 O10_17 1_555 1_555
Er1_36 O1_23 1_555 1_555
O1_23 C1_18 1_555 1_555
C1_18 H1_18 1_555 1_555
H2_18 C1_18 1_555 1_555
O4_25 Er1_36 1_555 1_555
O6_18 Er1_36 1_555 1_555
O7_18 Er1_36 1_555 1_555
O10_18 Er1_36 1_555 1_555
O19_17 C8_18 1_555 1_555
O19_20 C9_18 1_555 1_555
O20_11 C12_18 1_555 1_555
C3_18 O1_23 1_555 1_555
C4_18 O4_25 1_555 1_555
H3_18 C3_18 1_555 1_555
H4_18 C4_18 1_555 1_555
H8_18 C3_18 1_555 1_555
C8_18 O6_18 1_555 1_555
C9_18 O7_18 1_555 1_555
C12_18 O10_18 1_555 1_555
C3_18 C8_18 1_555 1_555
C4_18 C9_18 1_555 1_555
O2_18 Er1_37 1_555 1_555
O20_10 C2_18 1_555 1_555
C2_18 O2_18 1_555 1_555
O4_26 Er1_37 1_555 1_555
O5_20 Er1_37 1_555 1_555
O8_18 Er1_37 1_555 1_555
O9_18 Er1_37 1_555 1_555
O18_14 C10_18 1_555 1_555
O18_27 C11_18 1_555 1_555
C5_18 O4_26 1_555 1_555
C6_18 O5_20 1_555 1_555
C7_18 O5_20 1_555 1_555
H5_18 C5_18 1_555 1_555
H6_18 C6_18 1_555 1_555
H7_18 C7_18 1_555 1_555
H11_18 C6_18 1_555 1_555
H12_18 C7_18 1_555 1_555
C10_18 O8_18 1_555 1_555
C11_18 O9_18 1_555 1_555
C5_18 C10_18 1_555 1_555
C6_18 C11_18 1_555 1_555
Er1_38 O1_24 1_555 1_555
O7_19 Er1_38 1_555 1_555
O20_14 C9_19 1_555 1_555
C3_19 O1_24 1_555 1_555
H3_19 C3_19 1_555 1_555
C9_19 O7_19 1_555 1_555
Er1_39 O1_25 1_555 1_555
O1_25 C1_19 1_555 1_555
O2_19 Er1_39 1_555 1_555
O19_16 C2_19 1_555 1_555
C1_19 H1_19 1_555 1_555
C2_19 O2_19 1_555 1_555
O5_21 Er1_39 1_555 1_555
O10_19 Er1_39 1_555 1_555
O19_2 C12_19 1_555 1_555
C7_19 O5_21 1_555 1_555
H7_19 C7_19 1_555 1_555
C12_19 O10_19 1_555 1_555
C1_19 C2_19 1_555 1_555
C7_19 C12_19 1_555 1_555
O4_27 Er1_40 1_555 1_555
O6_19 Er1_40 1_555 1_555
O9_19 Er1_40 1_555 1_555
O20_24 C8_19 1_555 1_555
O18_11 C11_19 1_555 1_555
C4_19 O4_27 1_555 1_555
C5_19 O4_27 1_555 1_555
H4_19 C4_19 1_555 1_555
H5_19 C5_19 1_555 1_555
H9_19 C4_19 1_555 1_555
H10_19 C5_19 1_555 1_555
C8_19 O6_19 1_555 1_555
C11_19 O9_19 1_555 1_555
O5_22 Er1_41 1_555 1_555
O8_19 Er1_41 1_555 1_555
O18_7 C10_19 1_555 1_555
C6_19 O5_22 1_555 1_555
H6_19 C6_19 1_555 1_555
C10_19 O8_19 1_555 1_555
Er1_42 O1_26 1_555 1_555
O1_26 C1_20 1_555 1_555
O2_20 Er1_42 1_555 1_555
O19_27 C2_20 1_555 1_555
C1_20 H1_20 1_555 1_555
H2_20 C1_20 1_555 1_555
C2_20 O2_20 1_555 1_555
O4_28 Er1_42 1_555 1_555
O5_23 Er1_42 1_555 1_555
O6_20 Er1_42 1_555 1_555
O7_20 Er1_42 1_555 1_555
O8_20 Er1_42 1_555 1_555
O9_20 Er1_42 1_555 1_555
O10_20 Er1_42 1_555 1_555
O18_6 C8_20 1_555 1_555
O20_29 C9_20 1_555 1_555
O20_9 C10_20 1_555 1_555
O19_10 C11_20 1_555 1_555
O19_3 C12_20 1_555 1_555
C3_20 O1_26 1_555 1_555
C4_20 O4_28 1_555 1_555
C5_20 O4_28 1_555 1_555
C6_20 O5_23 1_555 1_555
C7_20 O5_23 1_555 1_555
H3_20 C3_20 1_555 1_555
H4_20 C4_20 1_555 1_555
H5_20 C5_20 1_555 1_555
H6_20 C6_20 1_555 1_555
H7_20 C7_20 1_555 1_555
H8_20 C3_20 1_555 1_555
H9_20 C4_20 1_555 1_555
H10_20 C5_20 1_555 1_555
H11_20 C6_20 1_555 1_555
H12_20 C7_20 1_555 1_555
C8_20 O6_20 1_555 1_555
C9_20 O7_20 1_555 1_555
C10_20 O8_20 1_555 1_555
C11_20 O9_20 1_555 1_555
C12_20 O10_20 1_555 1_555
C1_20 C2_20 1_555 1_555
C3_20 C8_20 1_555 1_555
C4_20 C9_20 1_555 1_555
C5_20 C10_20 1_555 1_555
C6_20 C11_20 1_555 1_555
C7_20 C12_20 1_555 1_555
Er1_43 O1_27 1_555 1_555
O1_27 C1_21 1_555 1_555
O2_21 Er1_43 1_555 1_555
O19_23 C2_21 1_555 1_555
C1_21 H1_21 1_555 1_555
C2_21 O2_21 1_555 1_555
O5_24 Er1_43 1_555 1_555
O8_21 Er1_43 1_555 1_555
O10_21 Er1_43 1_555 1_555
O18_9 C10_21 1_555 1_555
O20_6 C12_21 1_555 1_555
C6_21 O5_24 1_555 1_555
C7_21 O5_24 1_555 1_555
H6_21 C6_21 1_555 1_555
H7_21 C7_21 1_555 1_555
H11_21 C6_21 1_555 1_555
H12_21 C7_21 1_555 1_555
C10_21 O8_21 1_555 1_555
C12_21 O10_21 1_555 1_555
C1_21 C2_21 1_555 1_555
C7_21 C12_21 1_555 1_555
Er1_44 O1_28 1_555 1_555
O4_29 Er1_44 1_555 1_555
O6_21 Er1_44 1_555 1_555
O7_21 Er1_44 1_555 1_555
O9_21 Er1_44 1_555 1_555
O19 C8_21 1_555 1_555
O19_31 C9_21 1_555 1_555
O20_22 C11_21 1_555 1_555
C3_21 O1_28 1_555 1_555
C4_21 O4_29 1_555 1_555
C5_21 O4_29 1_555 1_555
H3_21 C3_21 1_555 1_555
H4_21 C4_21 1_555 1_555
H5_21 C5_21 1_555 1_555
H9_21 C4_21 1_555 1_555
H10_21 C5_21 1_555 1_555
C8_21 O6_21 1_555 1_555
C9_21 O7_21 1_555 1_555
C11_21 O9_21 1_555 1_555
C3_21 C8_21 1_555 1_555
C4_21 C9_21 1_555 1_555
Er1_45 O1_29 1_555 1_555
O1_29 C1_22 1_555 1_555
O2_22 Er1_45 1_555 1_555
O18_28 C2_22 1_555 1_555
C1_22 H1_22 1_555 1_555
H2_22 C1_22 1_555 1_555
C2_22 O2_22 1_555 1_555
O4_30 Er1_45 1_555 1_555
O5_25 Er1_45 1_555 1_555
O6_22 Er1_45 1_555 1_555
O7_22 Er1_45 1_555 1_555
O8_22 Er1_45 1_555 1_555
O9_22 Er1_45 1_555 1_555
O10_22 Er1_45 1_555 1_555
O19_5 C8_22 1_555 1_555
O19_26 C9_22 1_555 1_555
O20_2 C10_22 1_555 1_555
O20_30 C11_22 1_555 1_555
O20_7 C12_22 1_555 1_555
C3_22 O1_29 1_555 1_555
C4_22 O4_30 1_555 1_555
C5_22 O4_30 1_555 1_555
C6_22 O5_25 1_555 1_555
C7_22 O5_25 1_555 1_555
H3_22 C3_22 1_555 1_555
H4_22 C4_22 1_555 1_555
H5_22 C5_22 1_555 1_555
H6_22 C6_22 1_555 1_555
H7_22 C7_22 1_555 1_555
H8_22 C3_22 1_555 1_555
H9_22 C4_22 1_555 1_555
H10_22 C5_22 1_555 1_555
H11_22 C6_22 1_555 1_555
H12_22 C7_22 1_555 1_555
C8_22 O6_22 1_555 1_555
C9_22 O7_22 1_555 1_555
C10_22 O8_22 1_555 1_555
C11_22 O9_22 1_555 1_555
C12_22 O10_22 1_555 1_555
C1_22 C2_22 1_555 1_555
C3_22 C8_22 1_555 1_555
C4_22 C9_22 1_555 1_555
C5_22 C10_22 1_555 1_555
C6_22 C11_22 1_555 1_555
C7_22 C12_22 1_555 1_555
Er1_46 O1_30 1_555 1_555
O1_30 C1_23 1_555 1_555
C1_23 H1_23 1_555 1_555
H2_23 C1_23 1_555 1_555
O4_31 Er1_46 1_555 1_555
O6_23 Er1_46 1_555 1_555
O7_23 Er1_46 1_555 1_555
O10_23 Er1_46 1_555 1_555
O19_6 C8_23 1_555 1_555
O19_32 C9_23 1_555 1_555
O20 C12_23 1_555 1_555
C3_23 O1_30 1_555 1_555
C4_23 O4_31 1_555 1_555
H3_23 C3_23 1_555 1_555
H4_23 C4_23 1_555 1_555
H8_23 C3_23 1_555 1_555
C8_23 O6_23 1_555 1_555
C9_23 O7_23 1_555 1_555
C12_23 O10_23 1_555 1_555
C3_23 C8_23 1_555 1_555
C4_23 C9_23 1_555 1_555
O2_23 Er1_47 1_555 1_555
O20_19 C2_23 1_555 1_555
C2_23 O2_23 1_555 1_555
O4_32 Er1_47 1_555 1_555
O5_26 Er1_47 1_555 1_555
O8_23 Er1_47 1_555 1_555
O9_23 Er1_47 1_555 1_555
O18_3 C10_23 1_555 1_555
O20_21 C11_23 1_555 1_555
C5_23 O4_32 1_555 1_555
C6_23 O5_26 1_555 1_555
C7_23 O5_26 1_555 1_555
H5_23 C5_23 1_555 1_555
H6_23 C6_23 1_555 1_555
H7_23 C7_23 1_555 1_555
H11_23 C6_23 1_555 1_555
H12_23 C7_23 1_555 1_555
C10_23 O8_23 1_555 1_555
C11_23 O9_23 1_555 1_555
C5_23 C10_23 1_555 1_555
C6_23 C11_23 1_555 1_555
O2_24 Er1_48 1_555 1_555
O20_15 C2_24 1_555 1_555
C2_24 O2_24 1_555 1_555
O5_27 Er1_48 1_555 1_555
C7_24 O5_27 1_555 1_555
H7_24 C7_24 1_555 1_555
Er1_49 O1_31 1_555 1_555
O1_31 C1_24 1_555 1_555
C1_24 H1_24 1_555 1_555
H2_24 C1_24 1_555 1_555
O7_24 Er1_49 1_555 1_555
O10_24 Er1_49 1_555 1_555
O18_12 C9_24 1_555 1_555
O18_24 C12_24 1_555 1_555
C3_24 O1_31 1_555 1_555
H3_24 C3_24 1_555 1_555
H8_24 C3_24 1_555 1_555
C9_24 O7_24 1_555 1_555
C12_24 O10_24 1_555 1_555
O4_33 Er1_50 1_555 1_555
O5_28 Er1_50 1_555 1_555
O8_24 Er1_50 1_555 1_555
O9_24 Er1_50 1_555 1_555
O18_5 C10_24 1_555 1_555
O19_18 C11_24 1_555 1_555
C5_24 O4_33 1_555 1_555
C6_24 O5_28 1_555 1_555
H5_24 C5_24 1_555 1_555
H6_24 C6_24 1_555 1_555
C10_24 O8_24 1_555 1_555
C11_24 O9_24 1_555 1_555
C5_24 C10_24 1_555 1_555
C6_24 C11_24 1_555 1_555
O4_34 Er1_51 1_555 1_555
O6_24 Er1_51 1_555 1_555
O18_2 C8_24 1_555 1_555
C4_24 O4_34 1_555 1_555
H4_24 C4_24 1_555 1_555
C8_24 O6_24 1_555 1_555
Er1_52 O1_32 1_555 1_555
O1_32 C1_25 1_555 1_555
C1_25 H1_25 1_555 1_555
H2_25 C1_25 1_555 1_555
O4_35 Er1_52 1_555 1_555
O6_25 Er1_52 1_555 1_555
O7_25 Er1_52 1_555 1_555
O10_25 Er1_52 1_555 1_555
O20_13 C8_25 1_555 1_555
O18_10 C9_25 1_555 1_555
O18_18 C12_25 1_555 1_555
C3_25 O1_32 1_555 1_555
C4_25 O4_35 1_555 1_555
H3_25 C3_25 1_555 1_555
H4_25 C4_25 1_555 1_555
H8_25 C3_25 1_555 1_555
C8_25 O6_25 1_555 1_555
C9_25 O7_25 1_555 1_555
C12_25 O10_25 1_555 1_555
C3_25 C8_25 1_555 1_555
C4_25 C9_25 1_555 1_555
O2_25 Er1_53 1_555 1_555
O18_20 C2_25 1_555 1_555
C2_25 O2_25 1_555 1_555
O4_36 Er1_53 1_555 1_555
O5_29 Er1_53 1_555 1_555
O8_25 Er1_53 1_555 1_555
O9_25 Er1_53 1_555 1_555
O19_12 C10_25 1_555 1_555
O18_29 C11_25 1_555 1_555
C5_25 O4_36 1_555 1_555
C6_25 O5_29 1_555 1_555
C7_25 O5_29 1_555 1_555
H5_25 C5_25 1_555 1_555
H6_25 C6_25 1_555 1_555
H7_25 C7_25 1_555 1_555
H11_25 C6_25 1_555 1_555
H12_25 C7_25 1_555 1_555
C10_25 O8_25 1_555 1_555
C11_25 O9_25 1_555 1_555
C5_25 C10_25 1_555 1_555
C6_25 C11_25 1_555 1_555
Er1_54 O1_33 1_555 1_555
O1_33 C1_26 1_555 1_555
O2_26 Er1_54 1_555 1_555
O18_31 C2_26 1_555 1_555
C1_26 H1_26 1_555 1_555
H2_26 C1_26 1_555 1_555
C2_26 O2_26 1_555 1_555
O4_37 Er1_54 1_555 1_555
O5_30 Er1_54 1_555 1_555
O6_26 Er1_54 1_555 1_555
O7_26 Er1_54 1_555 1_555
O8_26 Er1_54 1_555 1_555
O9_26 Er1_54 1_555 1_555
O10_26 Er1_54 1_555 1_555
O20_16 C8_26 1_555 1_555
O20_23 C9_26 1_555 1_555
O19_14 C10_26 1_555 1_555
O18_8 C11_26 1_555 1_555
O18_17 C12_26 1_555 1_555
C3_26 O1_33 1_555 1_555
C4_26 O4_37 1_555 1_555
C5_26 O4_37 1_555 1_555
C6_26 O5_30 1_555 1_555
C7_26 O5_30 1_555 1_555
H3_26 C3_26 1_555 1_555
H4_26 C4_26 1_555 1_555
H5_26 C5_26 1_555 1_555
H6_26 C6_26 1_555 1_555
H7_26 C7_26 1_555 1_555
H8_26 C3_26 1_555 1_555
H9_26 C4_26 1_555 1_555
H10_26 C5_26 1_555 1_555
H11_26 C6_26 1_555 1_555
H12_26 C7_26 1_555 1_555
C8_26 O6_26 1_555 1_555
C9_26 O7_26 1_555 1_555
C10_26 O8_26 1_555 1_555
C11_26 O9_26 1_555 1_555
C12_26 O10_26 1_555 1_555
C1_26 C2_26 1_555 1_555
C3_26 C8_26 1_555 1_555
C4_26 C9_26 1_555 1_555
C5_26 C10_26 1_555 1_555
C6_26 C11_26 1_555 1_555
C7_26 C12_26 1_555 1_555
Er1_55 O1_34 1_555 1_555
O1_34 C1_27 1_555 1_555
O2_27 Er1_55 1_555 1_555
O18_22 C2_27 1_555 1_555
C1_27 H1_27 1_555 1_555
C2_27 O2_27 1_555 1_555
O5_31 Er1_55 1_555 1_555
O8_27 Er1_55 1_555 1_555
O10_27 Er1_55 1_555 1_555
O20_12 C10_27 1_555 1_555
O19_13 C12_27 1_555 1_555
C6_27 O5_31 1_555 1_555
C7_27 O5_31 1_555 1_555
H6_27 C6_27 1_555 1_555
H7_27 C7_27 1_555 1_555
H11_27 C6_27 1_555 1_555
H12_27 C7_27 1_555 1_555
C10_27 O8_27 1_555 1_555
C12_27 O10_27 1_555 1_555
C1_27 C2_27 1_555 1_555
C7_27 C12_27 1_555 1_555
Er1_56 O1_35 1_555 1_555
O4_38 Er1_56 1_555 1_555
O6_27 Er1_56 1_555 1_555
O7_27 Er1_56 1_555 1_555
O9_27 Er1_56 1_555 1_555
O18_15 C8_27 1_555 1_555
O20_8 C9_27 1_555 1_555
O18_23 C11_27 1_555 1_555
C3_27 O1_35 1_555 1_555
C4_27 O4_38 1_555 1_555
C5_27 O4_38 1_555 1_555
H3_27 C3_27 1_555 1_555
H4_27 C4_27 1_555 1_555
H5_27 C5_27 1_555 1_555
H9_27 C4_27 1_555 1_555
H10_27 C5_27 1_555 1_555
C8_27 O6_27 1_555 1_555
C9_27 O7_27 1_555 1_555
C11_27 O9_27 1_555 1_555
C3_27 C8_27 1_555 1_555
C4_27 C9_27 1_555 1_555
Er1_57 O1_36 1_555 1_555
O1_36 C1_28 1_555 1_555
O2_28 Er1_57 1_555 1_555
O18_25 C2_28 1_555 1_555
C1_28 H1_28 1_555 1_555
H2_28 C1_28 1_555 1_555
C2_28 O2_28 1_555 1_555
O4_39 Er1_57 1_555 1_555
O5_32 Er1_57 1_555 1_555
O6_28 Er1_57 1_555 1_555
O7_28 Er1_57 1_555 1_555
O8_28 Er1_57 1_555 1_555
O9_28 Er1_57 1_555 1_555
O10_28 Er1_57 1_555 1_555
O19_29 C8_28 1_555 1_555
O19_30 C9_28 1_555 1_555
O20_20 C10_28 1_555 1_555
O20_26 C11_28 1_555 1_555
O20_27 C12_28 1_555 1_555
C3_28 O1_36 1_555 1_555
C4_28 O4_39 1_555 1_555
C5_28 O4_39 1_555 1_555
C6_28 O5_32 1_555 1_555
C7_28 O5_32 1_555 1_555
H3_28 C3_28 1_555 1_555
H4_28 C4_28 1_555 1_555
H5_28 C5_28 1_555 1_555
H6_28 C6_28 1_555 1_555
H7_28 C7_28 1_555 1_555
H8_28 C3_28 1_555 1_555
H9_28 C4_28 1_555 1_555
H10_28 C5_28 1_555 1_555
H11_28 C6_28 1_555 1_555
H12_28 C7_28 1_555 1_555
C8_28 O6_28 1_555 1_555
C9_28 O7_28 1_555 1_555
C10_28 O8_28 1_555 1_555
C11_28 O9_28 1_555 1_555
C12_28 O10_28 1_555 1_555
C1_28 C2_28 1_555 1_555
C3_28 C8_28 1_555 1_555
C4_28 C9_28 1_555 1_555
C5_28 C10_28 1_555 1_555
C6_28 C11_28 1_555 1_555
C7_28 C12_28 1_555 1_555
Er1_58 O1_37 1_555 1_555
O1_37 C1_29 1_555 1_555
O2_29 Er1_58 1_555 1_555
O20_4 C2_29 1_555 1_555
C1_29 H1_29 1_555 1_555
H2_29 C1_29 1_555 1_555
C2_29 O2_29 1_555 1_555
O4_40 Er1_58 1_555 1_555
O5_33 Er1_58 1_555 1_555
O6_29 Er1_58 1_555 1_555
O7_29 Er1_58 1_555 1_555
O8_29 Er1_58 1_555 1_555
O9_29 Er1_58 1_555 1_555
O10_29 Er1_58 1_555 1_555
O19_25 C8_29 1_555 1_555
O19_21 C9_29 1_555 1_555
O18_30 C10_29 1_555 1_555
O20_32 C11_29 1_555 1_555
O20_28 C12_29 1_555 1_555
C3_29 O1_37 1_555 1_555
C4_29 O4_40 1_555 1_555
C5_29 O4_40 1_555 1_555
C6_29 O5_33 1_555 1_555
C7_29 O5_33 1_555 1_555
H3_29 C3_29 1_555 1_555
H4_29 C4_29 1_555 1_555
H5_29 C5_29 1_555 1_555
H6_29 C6_29 1_555 1_555
H7_29 C7_29 1_555 1_555
H8_29 C3_29 1_555 1_555
H9_29 C4_29 1_555 1_555
H10_29 C5_29 1_555 1_555
H11_29 C6_29 1_555 1_555
H12_29 C7_29 1_555 1_555
C8_29 O6_29 1_555 1_555
C9_29 O7_29 1_555 1_555
C10_29 O8_29 1_555 1_555
C11_29 O9_29 1_555 1_555
C12_29 O10_29 1_555 1_555
C1_29 C2_29 1_555 1_555
C3_29 C8_29 1_555 1_555
C4_29 C9_29 1_555 1_555
C5_29 C10_29 1_555 1_555
C6_29 C11_29 1_555 1_555
C7_29 C12_29 1_555 1_555
Er1_59 O1_38 1_555 1_555
O1_38 C1_30 1_555 1_555
O2_30 Er1_59 1_555 1_555
O19_8 C2_30 1_555 1_555
C1_30 H1_30 1_555 1_555
H2_30 C1_30 1_555 1_555
C2_30 O2_30 1_555 1_555
O4_41 Er1_59 1_555 1_555
O5_34 Er1_59 1_555 1_555
O6_30 Er1_59 1_555 1_555
O7_30 Er1_59 1_555 1_555
O8_30 Er1_59 1_555 1_555
O9_30 Er1_59 1_555 1_555
O10_30 Er1_59 1_555 1_555
O19_28 C8_30 1_555 1_555
O19_22 C9_30 1_555 1_555
O18_26 C10_30 1_555 1_555
O20_31 C11_30 1_555 1_555
O20_25 C12_30 1_555 1_555
C3_30 O1_38 1_555 1_555
C4_30 O4_41 1_555 1_555
C5_30 O4_41 1_555 1_555
C6_30 O5_34 1_555 1_555
C7_30 O5_34 1_555 1_555
H3_30 C3_30 1_555 1_555
H4_30 C4_30 1_555 1_555
H5_30 C5_30 1_555 1_555
H6_30 C6_30 1_555 1_555
H7_30 C7_30 1_555 1_555
H8_30 C3_30 1_555 1_555
H9_30 C4_30 1_555 1_555
H10_30 C5_30 1_555 1_555
H11_30 C6_30 1_555 1_555
H12_30 C7_30 1_555 1_555
C8_30 O6_30 1_555 1_555
C9_30 O7_30 1_555 1_555
C10_30 O8_30 1_555 1_555
C11_30 O9_30 1_555 1_555
C12_30 O10_30 1_555 1_555
C1_30 C2_30 1_555 1_555
C3_30 C8_30 1_555 1_555
C4_30 C9_30 1_555 1_555
C5_30 C10_30 1_555 1_555
C6_30 C11_30 1_555 1_555
C7_30 C12_30 1_555 1_555
Er1_60 O1_39 1_555 1_555
O1_39 C1_31 1_555 1_555
O2_31 Er1_60 1_555 1_555
O18_21 C2_31 1_555 1_555
C1_31 H1_31 1_555 1_555
H2_31 C1_31 1_555 1_555
C2_31 O2_31 1_555 1_555
O4_42 Er1_60 1_555 1_555
O5_35 Er1_60 1_555 1_555
O6_31 Er1_60 1_555 1_555
O7_31 Er1_60 1_555 1_555
O8_31 Er1_60 1_555 1_555
O9_31 Er1_60 1_555 1_555
O10_31 Er1_60 1_555 1_555
O18_13 C8_31 1_555 1_555
O18_4 C9_31 1_555 1_555
O20_18 C10_31 1_555 1_555
O19_19 C11_31 1_555 1_555
O19_15 C12_31 1_555 1_555
C3_31 O1_39 1_555 1_555
C4_31 O4_42 1_555 1_555
C5_31 O4_42 1_555 1_555
C6_31 O5_35 1_555 1_555
C7_31 O5_35 1_555 1_555
H3_31 C3_31 1_555 1_555
H4_31 C4_31 1_555 1_555
H5_31 C5_31 1_555 1_555
H6_31 C6_31 1_555 1_555
H7_31 C7_31 1_555 1_555
H8_31 C3_31 1_555 1_555
H9_31 C4_31 1_555 1_555
H10_31 C5_31 1_555 1_555
H11_31 C6_31 1_555 1_555
H12_31 C7_31 1_555 1_555
C8_31 O6_31 1_555 1_555
C9_31 O7_31 1_555 1_555
C10_31 O8_31 1_555 1_555
C11_31 O9_31 1_555 1_555
C12_31 O10_31 1_555 1_555
C1_31 C2_31 1_555 1_555
C3_31 C8_31 1_555 1_555
C4_31 C9_31 1_555 1_555
C5_31 C10_31 1_555 1_555
C6_31 C11_31 1_555 1_555
C7_31 C12_31 1_555 1_555
Er1_61 O1_40 1_555 1_555
O1_40 C1_32 1_555 1_555
C1_32 H1_32 1_555 1_555
H2_32 C1_32 1_555 1_555
O4_43 Er1_61 1_555 1_555
O6_32 Er1_61 1_555 1_555
O7_32 Er1_61 1_555 1_555
O10_32 Er1_61 1_555 1_555
O20_17 C8_32 1_555 1_555
O18_19 C9_32 1_555 1_555
O18_16 C12_32 1_555 1_555
C3_32 O1_40 1_555 1_555
C4_32 O4_43 1_555 1_555
H3_32 C3_32 1_555 1_555
H4_32 C4_32 1_555 1_555
H8_32 C3_32 1_555 1_555
C8_32 O6_32 1_555 1_555
C9_32 O7_32 1_555 1_555
C12_32 O10_32 1_555 1_555
C3_32 C8_32 1_555 1_555
C4_32 C9_32 1_555 1_555
O2_32 Er1_62 1_555 1_555
O18_32 C2_32 1_555 1_555
C2_32 O2_32 1_555 1_555
O4_44 Er1_62 1_555 1_555
O5_36 Er1_62 1_555 1_555
O8_32 Er1_62 1_555 1_555
O9_32 Er1_62 1_555 1_555
O19_11 C10_32 1_555 1_555
O19_4 C11_32 1_555 1_555
C5_32 O4_44 1_555 1_555
C6_32 O5_36 1_555 1_555
C7_32 O5_36 1_555 1_555
H5_32 C5_32 1_555 1_555
H6_32 C6_32 1_555 1_555
H7_32 C7_32 1_555 1_555
H11_32 C6_32 1_555 1_555
H12_32 C7_32 1_555 1_555
C10_32 O8_32 1_555 1_555
C11_32 O9_32 1_555 1_555
C5_32 C10_32 1_555 1_555
C6_32 C11_32 1_555 1_555

#END
