
###############################################################################
#
# This file contains modified crystal structure data generated from the
# MOF subset of the Cambridge Structural Database (CSD) v543 
# hosted by the Cambridge Crystallographic Data Centre (CCDC).
#
# This work is licensed under the Creative Commons
# Attribution-NonCommercial-ShareAlike 4.0 International License.
# To view a copy of this license, visit
# http://creativecommons.org/licenses/by-nc-sa/4.0/
# or send a letter to
# Creative Commons, PO Box 1866, Mountain View, CA 94042, USA.
#
# CIF created using the CSD Python API on 29 September 2022
# The structure has been converted into the P1 space group
# The structure has a 3D framework
# The original CSD entry FENVOL is in the tetragonal crystal system
# The framework has been calculated to contain at least 10.0% void space
# The void calculation uses a probe of radius 1.32A, grid spacing 0.4
# The framework is charged, counterions have been retained in the structure
# H atom positions have been added when not included in the experimental data
# Generated hydrogen atom positions removed from atoms on special positions
#
###############################################################################

data_FENVOL
_chemical_formula_moiety         '(C168 H296 N8 O154 P16 Zn23 35+)n'
_symmetry_cell_setting           triclinic
_symmetry_space_group_name_H-M   'P 1'
_symmetry_Int_Tables_number      1
_space_group_name_Hall           'P 1'
loop_
_symmetry_equiv_pos_site_id
_symmetry_equiv_pos_as_xyz
1 x,y,z
_cell_length_a                   18.453(7)
_cell_length_b                   18.453(7)
_cell_length_c                   23.283(12)
_cell_angle_alpha                90
_cell_angle_beta                 90
_cell_angle_gamma                90
_cell_volume                     7928.17
loop_
_atom_site_label
_atom_site_type_symbol
_atom_site_fract_x
_atom_site_fract_y
_atom_site_fract_z
Zn2 Zn 0.22558(5) 0.26644(5) 0.22373(4)
C1 C 0.2360(5) 0.0454(4) 0.1455(3)
C2 C 0.2358(5) 0.0103(4) 0.1986(3)
H1 H 0.2378 0.0377 0.2320
C6 C 0.2344(5) 0.0020(5) 0.0959(3)
H3 H 0.2356 0.0240 0.0599
O2 O 0.2069(4) 0.1728(3) 0.1901(3)
P1 P 0.24453(13) 0.14108(11) 0.13851(8)
Zn4 Zn 0.3747 0.25000(7) 0.1250
Zn10 Zn 0.22558(5) 0.23356(5) 0.02627(4)
O9 O 0.3244(3) 0.1584(3) 0.1372(2)
O12 O 0.2067(3) 0.1618(4) 0.0830(3)
O13 O 0.2067(3) 0.3382(4) 0.1670(3)
O15 O 0.3309(5) 0.2733(3) 0.2411(2)
O18 O 0.1854(3) 0.2672(5) 0.3010(2)
Zn1 Zn 0.25000(7) 0.8747 0.3750
C3 C 0.2325(5) 0.9354(4) 0.2026(3)
C4 C 0.2296(5) 0.8936(4) 0.1527(3)
H2 H 0.2269 0.8434 0.1554
C5 C 0.2309(5) 0.9262(4) 0.0995(3)
C7 C 0.6033(5) 0.7334(4) 0.2399(3)
C8 C 0.2295(6) 0.8836(5) 0.0455(3)
O1 O 0.3416(3) 0.8244(3) 0.3628(2)
O3 O 0.3382(4) 0.7067(3) 0.4170(3)
O4 O 0.6691(5) 0.7267(3) 0.2411(2)
O5 O 0.5651(4) 0.7399(3) 0.1954(2)
O6 O 0.2328(5) 0.8146(3) 0.0510(2)
O7 O 0.5873(5) 0.7257(4) 0.5007(2)
Zn3 Zn 0.6253 0.75000(7) 0.1250
Zn6 Zn 0.23356(5) 0.72558(5) 0.27627(4)
Zn7 Zn 0.72558(5) 0.73356(5) 0.52627(4)
Zn8 Zn 0.77442(5) 0.73356(5) 0.22373(4)
Zn9 Zn 0.26644(5) 0.72558(5) 0.47373(4)
C9 C 0.4546(4) 0.7360(5) 0.3545(3)
C10 C 0.4897(4) 0.7358(5) 0.3014(3)
H4 H 0.4623 0.7378 0.2680
C11 C 0.5646(4) 0.7325(5) 0.2974(3)
C12 C 0.6064(4) 0.7296(5) 0.3473(3)
H5 H 0.6566 0.7269 0.3446
C13 C 0.5738(4) 0.7309(5) 0.4005(3)
C14 C 0.4980(5) 0.7344(5) 0.4041(3)
H6 H 0.4760 0.7356 0.4401
C15 C 0.2334(4) 0.8967(5) 0.2601(3)
C16 C 0.6164(5) 0.7295(6) 0.4545(3)
O8 O 0.1584(3) 0.8244(3) 0.3872(2)
O10 O 0.3272(3) 0.7069(4) 0.3099(3)
O11 O 0.1618(4) 0.7067(3) 0.3330(3)
O14 O 0.2267(3) 0.8309(5) 0.2589(2)
O16 O 0.2399(3) 0.9349(4) 0.3046(2)
O17 O 0.2601(3) 0.9349(4) 0.4454(2)
O19 O 0.2328(5) 0.6854(3) 0.1990(2)
O20 O 0.6854(3) 0.7328(5) 0.4490(2)
P2 P 0.35892(11) 0.74453(13) 0.36149(8)
Zn5 Zn 0.23356(5) 0.77442(5) 0.97373(4)
O21 O 0.2257(4) 0.9127(5) 0.9993(2)
Zn2_2 Zn 0.26644(5) 0.77442(5) 0.77627(4)
C1_2 C 0.0454(4) 0.7640(5) 0.8545(3)
C2_2 C 0.0103(4) 0.7642(5) 0.8014(3)
H1_2 H 0.0377 0.7622 0.7680
C6_2 C 0.0020(5) 0.7656(5) 0.9041(3)
H3_2 H 0.0240 0.7644 0.9401
O2_2 O 0.1728(3) 0.7931(4) 0.8099(3)
P1_2 P 0.14108(11) 0.75547(13) 0.86149(8)
Zn4_2 Zn 0.25000(7) 0.6253 0.8750
O9_2 O 0.1584(3) 0.6756(3) 0.8628(2)
O12_2 O 0.1618(4) 0.7933(3) 0.9170(3)
O13_2 O 0.3382(4) 0.7933(3) 0.8330(3)
O15_2 O 0.2733(3) 0.6691(5) 0.7589(2)
O18_2 O 0.2672(5) 0.8146(3) 0.6990(2)
Zn5_2 Zn 0.77442(5) 0.76644(5) 0.02627(4)
O21_2 O 0.9127(5) 0.7743(4) 0.0007(2)
Zn1_2 Zn 0.8747 0.75000(7) 0.6250
C3_2 C 0.9354(4) 0.7675(5) 0.7974(3)
C4_2 C 0.8936(4) 0.7704(5) 0.8473(3)
H2_2 H 0.8434 0.7731 0.8446
C5_2 C 0.9262(4) 0.7691(5) 0.9005(3)
C7_2 C 0.7334(4) 0.3967(5) 0.7601(3)
C8_2 C 0.8836(5) 0.7705(6) 0.9545(3)
O1_2 O 0.8244(3) 0.6584(3) 0.6372(2)
O3_2 O 0.7067(3) 0.6618(4) 0.5830(3)
O4_2 O 0.7267(3) 0.3309(5) 0.7589(2)
O5_2 O 0.7399(3) 0.4349(4) 0.8046(2)
O6_2 O 0.8146(3) 0.7672(5) 0.9490(2)
O7_2 O 0.7257(4) 0.4127(5) 0.4993(2)
Zn3_2 Zn 0.75000(7) 0.3747 0.8750
Zn6_2 Zn 0.72558(5) 0.76644(5) 0.72373(4)
Zn7_2 Zn 0.73356(5) 0.27442(5) 0.47373(4)
Zn8_2 Zn 0.73356(5) 0.22558(5) 0.77627(4)
C9_2 C 0.7360(5) 0.5454(4) 0.6455(3)
C10_2 C 0.7358(5) 0.5103(4) 0.6986(3)
H4_2 H 0.7378 0.5377 0.7320
C11_2 C 0.7325(5) 0.4354(4) 0.7026(3)
C12_2 C 0.7296(5) 0.3936(4) 0.6527(3)
H5_2 H 0.7269 0.3434 0.6554
C13_2 C 0.7309(5) 0.4262(4) 0.5995(3)
C14_2 C 0.7344(5) 0.5020(5) 0.5959(3)
H6_2 H 0.7356 0.5240 0.5599
C15_2 C 0.8967(5) 0.7666(4) 0.7399(3)
C16_2 C 0.7295(6) 0.3836(5) 0.5455(3)
O8_2 O 0.8244(3) 0.8416(3) 0.6128(2)
O10_2 O 0.7069(4) 0.6728(3) 0.6901(3)
O11_2 O 0.7067(3) 0.8382(4) 0.6670(3)
O14_2 O 0.8309(5) 0.7733(3) 0.7411(2)
O16_2 O 0.9349(4) 0.7601(3) 0.6954(2)
O17_2 O 0.9349(4) 0.7399(3) 0.5546(2)
O19_2 O 0.6854(3) 0.7672(5) 0.8010(2)
O20_2 O 0.7328(5) 0.3146(3) 0.5510(2)
P2_2 P 0.74453(13) 0.64108(11) 0.63851(8)
Zn1_3 Zn 0.75000(7) 0.1253 0.3750
C3_3 C 0.7675(5) 0.0646(4) 0.2026(3)
C4_3 C 0.7704(5) 0.1064(4) 0.1527(3)
H2_3 H 0.7731 0.1566 0.1554
C5_3 C 0.7691(5) 0.0738(4) 0.0995(3)
C7_3 C 0.3967(5) 0.2666(4) 0.2399(3)
C8_3 C 0.7705(6) 0.1164(5) 0.0455(3)
O1_3 O 0.6584(3) 0.1756(3) 0.3628(2)
O3_3 O 0.6618(4) 0.2933(3) 0.4170(3)
O5_3 O 0.4349(4) 0.2601(3) 0.1954(2)
O6_3 O 0.7672(5) 0.1854(3) 0.0510(2)
O7_3 O 0.4127(5) 0.2743(4) 0.5007(2)
Zn6_3 Zn 0.76644(5) 0.27442(5) 0.27627(4)
Zn7_3 Zn 0.27442(5) 0.26644(5) 0.52627(4)
C9_3 C 0.5454(4) 0.2640(5) 0.3545(3)
C10_3 C 0.5103(4) 0.2642(5) 0.3014(3)
H4_3 H 0.5377 0.2622 0.2680
C11_3 C 0.4354(4) 0.2675(5) 0.2974(3)
C12_3 C 0.3936(4) 0.2704(5) 0.3473(3)
H5_3 H 0.3434 0.2731 0.3446
C13_3 C 0.4262(4) 0.2691(5) 0.4005(3)
C14_3 C 0.5020(5) 0.2656(5) 0.4041(3)
H6_3 H 0.5240 0.2644 0.4401
C15_3 C 0.7666(4) 0.1033(5) 0.2601(3)
C16_3 C 0.3836(5) 0.2705(6) 0.4545(3)
O8_3 O 0.8416(3) 0.1756(3) 0.3872(2)
O10_3 O 0.6728(3) 0.2931(4) 0.3099(3)
O11_3 O 0.8382(4) 0.2933(3) 0.3330(3)
O14_3 O 0.7733(3) 0.1691(5) 0.2589(2)
O16_3 O 0.7601(3) 0.0651(4) 0.3046(2)
O17_3 O 0.7399(3) 0.0651(4) 0.4454(2)
O19_3 O 0.7672(5) 0.3146(3) 0.1990(2)
O20_3 O 0.3146(3) 0.2672(5) 0.4490(2)
P2_3 P 0.64108(11) 0.25547(13) 0.36149(8)
Zn5_3 Zn 0.76644(5) 0.22558(5) 0.97373(4)
O21_3 O 0.7743(4) 0.0873(5) 0.9993(2)
C1_3 C 0.7640(5) 0.9546(4) 0.1455(3)
C2_3 C 0.7642(5) 0.9897(4) 0.1986(3)
H1_3 H 0.7622 0.9623 0.2320
C6_3 C 0.7656(5) 0.9980(5) 0.0959(3)
H3_3 H 0.7644 0.9760 0.0599
O2_3 O 0.7931(4) 0.8272(3) 0.1901(3)
P1_3 P 0.75547(13) 0.85892(11) 0.13851(8)
O9_3 O 0.6756(3) 0.8416(3) 0.1372(2)
O12_3 O 0.7933(3) 0.8382(4) 0.0830(3)
O13_3 O 0.7933(3) 0.6618(4) 0.1670(3)
O18_3 O 0.8146(3) 0.7328(5) 0.3010(2)
O21_4 O 0.0873(5) 0.2257(4) 0.0007(2)
Zn1_4 Zn 0.1253 0.25000(7) 0.6250
C3_4 C 0.0646(4) 0.2325(5) 0.7974(3)
C4_4 C 0.1064(4) 0.2296(5) 0.8473(3)
H2_4 H 0.1566 0.2269 0.8446
C5_4 C 0.0738(4) 0.2309(5) 0.9005(3)
C7_4 C 0.2666(4) 0.6033(5) 0.7601(3)
C8_4 C 0.1164(5) 0.2295(6) 0.9545(3)
O1_4 O 0.1756(3) 0.3416(3) 0.6372(2)
O3_4 O 0.2933(3) 0.3382(4) 0.5830(3)
O5_4 O 0.2601(3) 0.5651(4) 0.8046(2)
O6_4 O 0.1854(3) 0.2328(5) 0.9490(2)
O7_4 O 0.2743(4) 0.5873(5) 0.4993(2)
Zn6_4 Zn 0.27442(5) 0.23356(5) 0.72373(4)
C9_4 C 0.2640(5) 0.4546(4) 0.6455(3)
C10_4 C 0.2642(5) 0.4897(4) 0.6986(3)
H4_4 H 0.2622 0.4623 0.7320
C11_4 C 0.2675(5) 0.5646(4) 0.7026(3)
C12_4 C 0.2704(5) 0.6064(4) 0.6527(3)
H5_4 H 0.2731 0.6566 0.6554
C13_4 C 0.2691(5) 0.5738(4) 0.5995(3)
C14_4 C 0.2656(5) 0.4980(5) 0.5959(3)
H6_4 H 0.2644 0.4760 0.5599
C15_4 C 0.1033(5) 0.2334(4) 0.7399(3)
C16_4 C 0.2705(6) 0.6164(5) 0.5455(3)
O8_4 O 0.1756(3) 0.1584(3) 0.6128(2)
O10_4 O 0.2931(4) 0.3272(3) 0.6901(3)
O11_4 O 0.2933(3) 0.1618(4) 0.6670(3)
O14_4 O 0.1691(5) 0.2267(3) 0.7411(2)
O16_4 O 0.0651(4) 0.2399(3) 0.6954(2)
O17_4 O 0.0651(4) 0.2601(3) 0.5546(2)
O19_4 O 0.3146(3) 0.2328(5) 0.8010(2)
O20_4 O 0.2672(5) 0.6854(3) 0.5510(2)
P2_4 P 0.25547(13) 0.35892(11) 0.63851(8)
C1_4 C 0.9546(4) 0.2360(5) 0.8545(3)
C2_4 C 0.9897(4) 0.2358(5) 0.8014(3)
H1_4 H 0.9623 0.2378 0.7680
C6_4 C 0.9980(5) 0.2344(5) 0.9041(3)
H3_4 H 0.9760 0.2356 0.9401
O2_4 O 0.8272(3) 0.2069(4) 0.8099(3)
P1_4 P 0.85892(11) 0.24453(13) 0.86149(8)
O9_4 O 0.8416(3) 0.3244(3) 0.8628(2)
O12_4 O 0.8382(4) 0.2067(3) 0.9170(3)
O13_4 O 0.6618(4) 0.2067(3) 0.8330(3)
O18_4 O 0.7328(5) 0.1854(3) 0.6990(2)
C1_5 C 0.2360(5) 0.4546(4) 0.1045(3)
C2_5 C 0.2358(5) 0.4897(4) 0.0514(3)
H1_5 H 0.2378 0.4623 0.0180
C3_5 C 0.2325(5) 0.5646(4) 0.0474(3)
C4_5 C 0.2296(5) 0.6064(4) 0.0973(3)
H2_5 H 0.2269 0.6566 0.0946
C5_5 C 0.2309(5) 0.5738(4) 0.1505(3)
C6_5 C 0.2344(5) 0.4980(5) 0.1541(3)
H3_5 H 0.2356 0.4760 0.1901
C7_5 C 0.6033(5) 0.7666(4) 0.0101(3)
C8_5 C 0.2295(6) 0.6164(5) 0.2045(3)
O2_5 O 0.2069(4) 0.3272(3) 0.0599(3)
O4_3 O 0.6691(5) 0.7733(3) 0.0089(2)
O5_5 O 0.5651(4) 0.7601(3) 0.0546(2)
P1_5 P 0.24453(13) 0.35892(11) 0.11149(8)
O9_5 O 0.3244(3) 0.3416(3) 0.1128(2)
O15_3 O 0.3309(5) 0.2267(3) 0.0089(2)
O21_5 O 0.2257(4) 0.5873(5) 0.2507(2)
O1_5 O 0.3416(3) 0.6756(3) 0.8872(2)
O7_5 O 0.5873(5) 0.7743(4) 0.7493(2)
C9_5 C 0.4546(4) 0.7640(5) 0.8955(3)
C10_5 C 0.4897(4) 0.7642(5) 0.9486(3)
H4_5 H 0.4623 0.7622 0.9820
C11_5 C 0.5646(4) 0.7675(5) 0.9526(3)
C12_5 C 0.6064(4) 0.7704(5) 0.9027(3)
H5_5 H 0.6566 0.7731 0.9054
C13_5 C 0.5738(4) 0.7691(5) 0.8495(3)
C14_5 C 0.4980(5) 0.7656(5) 0.8459(3)
H6_5 H 0.4760 0.7644 0.8099
C15_5 C 0.2334(4) 0.6033(5) 0.9899(3)
C16_5 C 0.6164(5) 0.7705(6) 0.7955(3)
O10_5 O 0.3272(3) 0.7931(4) 0.9401(3)
O14_5 O 0.2267(3) 0.6691(5) 0.9911(2)
O16_5 O 0.2399(3) 0.5651(4) 0.9454(2)
P2_5 P 0.35892(11) 0.75547(13) 0.88851(8)
O1_6 O 0.6756(3) 0.6584(3) 0.1128(2)
O7_6 O 0.7743(4) 0.4127(5) 0.2507(2)
C9_6 C 0.7640(5) 0.5454(4) 0.1045(3)
C10_6 C 0.7642(5) 0.5103(4) 0.0514(3)
H4_6 H 0.7622 0.5377 0.0180
C11_6 C 0.7675(5) 0.4354(4) 0.0474(3)
C12_6 C 0.7704(5) 0.3936(4) 0.0973(3)
H5_6 H 0.7731 0.3434 0.0946
C13_6 C 0.7691(5) 0.4262(4) 0.1505(3)
C14_6 C 0.7656(5) 0.5020(5) 0.1541(3)
H6_6 H 0.7644 0.5240 0.1901
C16_6 C 0.7705(6) 0.3836(5) 0.2045(3)
O10_6 O 0.7931(4) 0.6728(3) 0.0599(3)
P2_6 P 0.75547(13) 0.64108(11) 0.11149(8)
C7_6 C 0.7666(4) 0.3967(5) 0.9899(3)
O4_4 O 0.7733(3) 0.3309(5) 0.9911(2)
O5_6 O 0.7601(3) 0.4349(4) 0.9454(2)
C7_7 C 0.3967(5) 0.2334(4) 0.0101(3)
O5_7 O 0.4349(4) 0.2399(3) 0.0546(2)
O1_7 O 0.6584(3) 0.3244(3) 0.8872(2)
O7_7 O 0.4127(5) 0.2257(4) 0.7493(2)
C9_7 C 0.5454(4) 0.2360(5) 0.8955(3)
C10_7 C 0.5103(4) 0.2358(5) 0.9486(3)
H4_7 H 0.5377 0.2378 0.9820
C11_7 C 0.4354(4) 0.2325(5) 0.9526(3)
C12_7 C 0.3936(4) 0.2296(5) 0.9027(3)
H5_7 H 0.3434 0.2269 0.9054
C13_7 C 0.4262(4) 0.2309(5) 0.8495(3)
C14_7 C 0.5020(5) 0.2344(5) 0.8459(3)
H6_7 H 0.5240 0.2356 0.8099
C16_7 C 0.3836(5) 0.2295(6) 0.7955(3)
O10_7 O 0.6728(3) 0.2069(4) 0.9401(3)
P2_7 P 0.64108(11) 0.24453(13) 0.88851(8)
C7_8 C 0.1033(5) 0.2666(4) 0.5101(3)
O4_5 O 0.1691(5) 0.2733(3) 0.5089(2)
O7_8 O 0.0873(5) 0.2743(4) 0.2493(2)
C11_8 C 0.0646(4) 0.2675(5) 0.4526(3)
C12_8 C 0.1064(4) 0.2704(5) 0.4027(3)
H5_8 H 0.1566 0.2731 0.4054
C13_8 C 0.0738(4) 0.2691(5) 0.3495(3)
C16_8 C 0.1164(5) 0.2705(6) 0.2955(3)
C3_6 C 0.7325(5) 0.0646(4) 0.5474(3)
C4_6 C 0.7296(5) 0.1064(4) 0.5973(3)
H2_6 H 0.7269 0.1566 0.5946
C5_6 C 0.7309(5) 0.0738(4) 0.6505(3)
C8_6 C 0.7295(6) 0.1164(5) 0.7045(3)
C9_8 C 0.9546(4) 0.2640(5) 0.3955(3)
C10_8 C 0.9897(4) 0.2642(5) 0.4486(3)
H4_8 H 0.9623 0.2622 0.4820
C14_8 C 0.9980(5) 0.2656(5) 0.3459(3)
H6_8 H 0.9760 0.2644 0.3099
C15_6 C 0.7334(4) 0.1033(5) 0.4899(3)
O10_8 O 0.8272(3) 0.2931(4) 0.4401(3)
O14_6 O 0.7267(3) 0.1691(5) 0.4911(2)
O21_6 O 0.7257(4) 0.0873(5) 0.7507(2)
P2_8 P 0.85892(11) 0.25547(13) 0.38851(8)
C1_6 C 0.7360(5) 0.9546(4) 0.6045(3)
C2_6 C 0.7358(5) 0.9897(4) 0.5514(3)
H1_6 H 0.7378 0.9623 0.5180
C6_6 C 0.7344(5) 0.9980(5) 0.6541(3)
H3_6 H 0.7356 0.9760 0.6901
O2_6 O 0.7069(4) 0.8272(3) 0.5599(3)
P1_6 P 0.74453(13) 0.85892(11) 0.61149(8)
O15_4 O 0.8309(5) 0.7267(3) 0.5089(2)
C9_9 C 0.2640(5) 0.0454(4) 0.6045(3)
C10_9 C 0.2642(5) 0.0103(4) 0.5514(3)
H4_9 H 0.2622 0.0377 0.5180
C14_9 C 0.2656(5) 0.0020(5) 0.6541(3)
H6_9 H 0.2644 0.0240 0.6901
O10_9 O 0.2931(4) 0.1728(3) 0.5599(3)
P2_9 P 0.25547(13) 0.14108(11) 0.61149(8)
C7_9 C 0.2666(4) 0.8967(5) 0.4899(3)
O4_6 O 0.2733(3) 0.8309(5) 0.4911(2)
O7_9 O 0.2743(4) 0.9127(5) 0.7507(2)
C11_9 C 0.2675(5) 0.9354(4) 0.5474(3)
C12_9 C 0.2704(5) 0.8936(4) 0.5973(3)
H5_9 H 0.2731 0.8434 0.5946
C13_9 C 0.2691(5) 0.9262(4) 0.6505(3)
C16_9 C 0.2705(6) 0.8836(5) 0.7045(3)
C9_10 C 0.0454(4) 0.7360(5) 0.3955(3)
C10_10 C 0.0103(4) 0.7358(5) 0.4486(3)
H4_10 H 0.0377 0.7378 0.4820
C14_10 C 0.0020(5) 0.7344(5) 0.3459(3)
H6_10 H 0.0240 0.7356 0.3099
O10_10 O 0.1728(3) 0.7069(4) 0.4401(3)
P2_10 P 0.14108(11) 0.74453(13) 0.38851(8)
C7_10 C 0.8967(5) 0.7334(4) 0.5101(3)
O7_10 O 0.9127(5) 0.7257(4) 0.2493(2)
C11_10 C 0.9354(4) 0.7325(5) 0.4526(3)
C12_10 C 0.8936(4) 0.7296(5) 0.4027(3)
H5_10 H 0.8434 0.7269 0.4054
C13_10 C 0.9262(4) 0.7309(5) 0.3495(3)
C16_10 C 0.8836(5) 0.7295(6) 0.2955(3)
C17 C 0.1829(10) 0.5296(8) 0.3827(9)
H7 H 0.1591 0.5486 0.4166
H8 H 0.1518 0.5408 0.3502
C18 C 0.1846(12) 0.4543(10) 0.3881(14)
H9 H 0.1464 0.4350 0.3639
H10 H 0.1715 0.4429 0.4274
C19 C 0.2500 0.4139(11) 0.3750
H11 H 0.2604 0.3827 0.4075
N1 N 0.2500 0.5707(7) 0.3750
H12 H 0.2530 0.5812 0.4136
C20 C 0.3171(10) 0.5296(8) 0.3673(9)
H13 H 0.3409 0.5486 0.3334
H14 H 0.3482 0.5408 0.3998
C21 C 0.3154(12) 0.4543(10) 0.3619(14)
H15 H 0.3536 0.4350 0.3861
H16 H 0.3285 0.4429 0.3226
H17 H 0.2396 0.3827 0.3425
H18 H 0.2470 0.5812 0.3364
C17_2 C 0.5296(8) 0.8171(10) 0.6173(9)
H7_2 H 0.5486 0.8409 0.5834
H8_2 H 0.5408 0.8482 0.6498
C18_2 C 0.4543(10) 0.8154(12) 0.6119(14)
H9_2 H 0.4350 0.8536 0.6361
H10_2 H 0.4429 0.8285 0.5726
C19_2 C 0.4139(11) 0.7500 0.6250
H11_2 H 0.3827 0.7396 0.5925
N1_2 N 0.5707(7) 0.7500 0.6250
H12_2 H 0.5812 0.7470 0.5864
C20_2 C 0.5296(8) 0.6829(10) 0.6327(9)
H13_2 H 0.5486 0.6591 0.6666
H14_2 H 0.5408 0.6518 0.6002
C21_2 C 0.4543(10) 0.6846(12) 0.6381(14)
H15_2 H 0.4350 0.6464 0.6139
H16_2 H 0.4429 0.6715 0.6774
H17_2 H 0.3827 0.7604 0.6575
H18_2 H 0.5812 0.7530 0.6636
C17_3 C 0.8171(10) 0.4704(8) 0.3827(9)
H7_3 H 0.8409 0.4514 0.4166
H8_3 H 0.8482 0.4592 0.3502
C18_3 C 0.8154(12) 0.5457(10) 0.3881(14)
H9_3 H 0.8536 0.5650 0.3639
H10_3 H 0.8285 0.5571 0.4274
C19_3 C 0.7500 0.5861(11) 0.3750
H11_3 H 0.7396 0.6173 0.4075
N1_3 N 0.7500 0.4293(7) 0.3750
H12_3 H 0.7470 0.4188 0.4136
C20_3 C 0.6829(10) 0.4704(8) 0.3673(9)
H13_3 H 0.6591 0.4514 0.3334
H14_3 H 0.6518 0.4592 0.3998
C21_3 C 0.6846(12) 0.5457(10) 0.3619(14)
H15_3 H 0.6464 0.5650 0.3861
H16_3 H 0.6715 0.5571 0.3226
H17_3 H 0.7604 0.6173 0.3425
H18_3 H 0.7530 0.4188 0.3364
C17_4 C 0.4704(8) 0.1829(10) 0.6173(9)
H7_4 H 0.4514 0.1591 0.5834
H8_4 H 0.4592 0.1518 0.6498
C18_4 C 0.5457(10) 0.1846(12) 0.6119(14)
H9_4 H 0.5650 0.1464 0.6361
H10_4 H 0.5571 0.1715 0.5726
C19_4 C 0.5861(11) 0.2500 0.6250
H11_4 H 0.6173 0.2604 0.5925
N1_4 N 0.4293(7) 0.2500 0.6250
H12_4 H 0.4188 0.2530 0.5864
C20_4 C 0.4704(8) 0.3171(10) 0.6327(9)
H13_4 H 0.4514 0.3409 0.6666
H14_4 H 0.4592 0.3482 0.6002
C21_4 C 0.5457(10) 0.3154(12) 0.6381(14)
H15_4 H 0.5650 0.3536 0.6139
H16_4 H 0.5571 0.3285 0.6774
H17_4 H 0.6173 0.2396 0.6575
H18_4 H 0.4188 0.2470 0.6636
C18_5 C 0.1846(12) 0.0457(10) 0.8619(14)
H9_5 H 0.1464 0.0650 0.8861
H10_5 H 0.1715 0.0571 0.8226
C19_5 C 0.2500 0.0861(11) 0.8750
H11_5 H 0.2604 0.1173 0.8425
C21_5 C 0.3154(12) 0.0457(10) 0.8881(14)
H15_5 H 0.3536 0.0650 0.8639
H16_5 H 0.3285 0.0571 0.9274
H17_5 H 0.2396 0.1173 0.9075
C17_5 C 0.1829(10) 0.9704(8) 0.8673(9)
H7_5 H 0.1591 0.9514 0.8334
H8_5 H 0.1518 0.9592 0.8998
N1_5 N 0.2500 0.9293(7) 0.8750
H12_5 H 0.2530 0.9188 0.8364
C20_5 C 0.3171(10) 0.9704(8) 0.8827(9)
H13_5 H 0.3409 0.9514 0.9166
H14_5 H 0.3482 0.9592 0.8502
H18_5 H 0.2470 0.9188 0.9136
C18_6 C 0.0457(10) 0.8154(12) 0.1381(14)
H9_6 H 0.0650 0.8536 0.1139
H10_6 H 0.0571 0.8285 0.1774
C19_6 C 0.0861(11) 0.7500 0.1250
H11_6 H 0.1173 0.7396 0.1575
C21_6 C 0.0457(10) 0.6846(12) 0.1119(14)
H15_6 H 0.0650 0.6464 0.1361
H16_6 H 0.0571 0.6715 0.0726
H17_6 H 0.1173 0.7604 0.0925
C17_6 C 0.9704(8) 0.8171(10) 0.1327(9)
H7_6 H 0.9514 0.8409 0.1666
H8_6 H 0.9592 0.8482 0.1002
N1_6 N 0.9293(7) 0.7500 0.1250
H12_6 H 0.9188 0.7470 0.1636
C20_6 C 0.9704(8) 0.6829(10) 0.1173(9)
H13_6 H 0.9514 0.6591 0.0834
H14_6 H 0.9592 0.6518 0.1498
H18_6 H 0.9188 0.7530 0.0864
C17_7 C 0.8171(10) 0.0296(8) 0.8673(9)
H7_7 H 0.8409 0.0486 0.8334
H8_7 H 0.8482 0.0408 0.8998
N1_7 N 0.7500 0.0707(7) 0.8750
H12_7 H 0.7470 0.0812 0.8364
C20_7 C 0.6829(10) 0.0296(8) 0.8827(9)
H13_7 H 0.6591 0.0486 0.9166
H14_7 H 0.6518 0.0408 0.8502
H18_7 H 0.7530 0.0812 0.9136
C18_7 C 0.8154(12) 0.9543(10) 0.8619(14)
H9_7 H 0.8536 0.9350 0.8861
H10_7 H 0.8285 0.9429 0.8226
C19_7 C 0.7500 0.9139(11) 0.8750
H11_7 H 0.7396 0.8827 0.8425
C21_7 C 0.6846(12) 0.9543(10) 0.8881(14)
H15_7 H 0.6464 0.9350 0.8639
H16_7 H 0.6715 0.9429 0.9274
H17_7 H 0.7604 0.8827 0.9075
C17_8 C 0.0296(8) 0.1829(10) 0.1327(9)
H7_8 H 0.0486 0.1591 0.1666
H8_8 H 0.0408 0.1518 0.1002
N1_8 N 0.0707(7) 0.2500 0.1250
H12_8 H 0.0812 0.2530 0.1636
C20_8 C 0.0296(8) 0.3171(10) 0.1173(9)
H13_8 H 0.0486 0.3409 0.0834
H14_8 H 0.0408 0.3482 0.1498
H18_8 H 0.0812 0.2470 0.0864
C18_8 C 0.9543(10) 0.1846(12) 0.1381(14)
H9_8 H 0.9350 0.1464 0.1139
H10_8 H 0.9429 0.1715 0.1774
C19_8 C 0.9139(11) 0.2500 0.1250
H11_8 H 0.8827 0.2604 0.1575
C21_8 C 0.9543(10) 0.3154(12) 0.1119(14)
H15_8 H 0.9350 0.3536 0.1361
H16_8 H 0.9429 0.3285 0.0726
H17_8 H 0.8827 0.2396 0.0925
O22 O 0.2500 0.1546(9) 0.3750
O22_2 O 0.1546(9) 0.7500 0.6250
O22_3 O 0.7500 0.8454(9) 0.3750
O22_4 O 0.8454(9) 0.2500 0.6250
O22_5 O 0.2500 0.3454(9) 0.8750
O22_6 O 0.3454(9) 0.7500 0.1250
O22_7 O 0.7500 0.6546(9) 0.8750
O22_8 O 0.6546(9) 0.2500 0.1250
O23 O 0.0818(7) 0.0810(8) 0.5335(7)
O23_2 O 0.0810(8) 0.9182(7) 0.4665(7)
O23_3 O 0.9182(7) 0.9190(8) 0.5335(7)
O23_4 O 0.9190(8) 0.0818(7) 0.4665(7)
O23_5 O 0.0818(7) 0.4190(8) 0.7165(7)
O23_6 O 0.4190(8) 0.9182(7) 0.2835(7)
O23_7 O 0.9182(7) 0.5810(8) 0.7165(7)
O23_8 O 0.5810(8) 0.0818(7) 0.2835(7)
O23_9 O 0.5818(7) 0.5810(8) 0.0335(7)
O23_10 O 0.5810(8) 0.4182(7) 0.9665(7)
O23_11 O 0.4182(7) 0.4190(8) 0.0335(7)
O23_12 O 0.4190(8) 0.5818(7) 0.9665(7)
O23_13 O 0.5818(7) 0.9190(8) 0.2165(7)
O23_14 O 0.9190(8) 0.4182(7) 0.7835(7)
O23_15 O 0.4182(7) 0.0810(8) 0.2165(7)
O23_16 O 0.0810(8) 0.5818(7) 0.7835(7)
O24 O 0.0000 0.0000 0.629(2)
H22 H 0.0538124 1.84889e-32 0.629
H24 H 0.0179375 0.0439376 0.608895
O24_2 O 0.0000 1.0000 0.629(2)
H22_2 H 0.0538124 1 0.629
H23 H 0.0179375 0.956062 0.608895
O24_3 O 1.0000 0.0000 0.629(2)
H23_2 H 0.982063 0.0439376 0.608895
H22_3 H 0.946188 -6.16298e-33 0.629
O24_4 O 1.0000 1.0000 0.629(2)
H24_2 H 0.982063 0.956062 0.608895
H22_4 H 0.946188 1 0.629
O24_5 O 0.0000 -0.0000 0.371(2)
H23_3 H 0.0439376 0.0179375 0.391105
H22_5 H -6.16298e-33 0.0538124 0.371
O24_6 O 0.0000 1.0000 0.371(2)
H22_6 H 1.2326e-32 0.946188 0.371
H24_3 H 0.0439376 0.982063 0.391105
O24_7 O 1.0000 -0.0000 0.371(2)
H24_4 H 0.956062 0.0179375 0.391105
H22_7 H 1 0.0538124 0.371
O24_8 O 1.0000 1.0000 0.371(2)
H22_8 H 1 0.946188 0.371
H23_4 H 0.956062 0.982063 0.391105
O24_9 O 0.0000 0.5000 0.621(2)
O24_10 O 1.0000 0.5000 0.621(2)
O24_11 O 0.5000 -0.0000 0.379(2)
O24_12 O 0.5000 1.0000 0.379(2)
O24_13 O 0.5000 0.5000 0.129(2)
O24_14 O 0.5000 0.5000 0.871(2)
O24_15 O 0.5000 -0.0000 0.121(2)
O24_16 O 0.5000 1.0000 0.121(2)
O24_17 O 0.0000 0.5000 0.879(2)
O24_18 O 1.0000 0.5000 0.879(2)
loop_
_geom_bond_atom_site_label_1
_geom_bond_atom_site_label_2
_geom_bond_site_symmetry_1
_geom_bond_site_symmetry_2
Zn2 O2 1_555 1_555
C1 C2 1_555 1_555
C2 H1 1_555 1_555
C6 C1 1_555 1_555
H3 C6 1_555 1_555
O2 P1 1_555 1_555
P1 C1 1_555 1_555
Zn4 O9 1_555 1_555
Zn10 O12 1_555 1_555
O9 P1 1_555 1_555
O12 P1 1_555 1_555
O13 Zn2 1_555 1_555
O15 Zn2 1_555 1_555
O18 Zn2 1_555 1_555
Zn1 O1 1_555 1_555
C4 C3 1_555 1_555
H2 C4 1_555 1_555
C5 C4 1_555 1_555
C7 O4 1_555 1_555
C8 C5 1_555 1_555
O1 P2 1_555 1_555
O3 Zn9 1_555 1_555
O4 Zn8 1_555 1_555
O5 C7 1_555 1_555
O6 C8 1_555 1_555
O7 C16 1_555 1_555
Zn3 O5 1_555 1_555
Zn6 O10 1_555 1_555
Zn7 O20 1_555 1_555
C9 C10 1_555 1_555
C10 H4 1_555 1_555
C11 C7 1_555 1_555
C12 C11 1_555 1_555
H5 C12 1_555 1_555
C13 C12 1_555 1_555
C14 C9 1_555 1_555
H6 C14 1_555 1_555
C15 C3 1_555 1_555
C16 C13 1_555 1_555
O8 Zn1 1_555 1_555
O10 P2 1_555 1_555
O11 Zn6 1_555 1_555
O14 Zn6 1_555 1_555
O16 Zn1 1_555 1_555
O17 Zn1 1_555 1_555
O19 Zn6 1_555 1_555
O20 C16 1_555 1_555
P2 O3 1_555 1_555
C9 P2 1_555 1_555
C10 C11 1_555 1_555
C13 C14 1_555 1_555
C15 O14 1_555 1_555
C15 O16 1_555 1_555
Zn2_2 O2_2 1_555 1_555
C1_2 C2_2 1_555 1_555
C2_2 H1_2 1_555 1_555
C6_2 C1_2 1_555 1_555
H3_2 C6_2 1_555 1_555
O2_2 P1_2 1_555 1_555
P1_2 C1_2 1_555 1_555
Zn4_2 O9_2 1_555 1_555
Zn5 O12_2 1_555 1_555
O9_2 P1_2 1_555 1_555
O12_2 P1_2 1_555 1_555
O13_2 Zn2_2 1_555 1_555
O15_2 Zn2_2 1_555 1_555
O18_2 Zn2_2 1_555 1_555
Zn1_2 O1_2 1_555 1_555
C4_2 C3_2 1_555 1_555
H2_2 C4_2 1_555 1_555
C5_2 C4_2 1_555 1_555
C7_2 O4_2 1_555 1_555
C8_2 C5_2 1_555 1_555
O1_2 P2_2 1_555 1_555
O3_2 Zn7 1_555 1_555
O4_2 Zn8_2 1_555 1_555
O5_2 C7_2 1_555 1_555
O6_2 C8_2 1_555 1_555
O7_2 C16_2 1_555 1_555
Zn3_2 O5_2 1_555 1_555
Zn6_2 O10_2 1_555 1_555
Zn7_2 O20_2 1_555 1_555
C9_2 C10_2 1_555 1_555
C10_2 H4_2 1_555 1_555
C11_2 C7_2 1_555 1_555
C12_2 C11_2 1_555 1_555
H5_2 C12_2 1_555 1_555
C13_2 C12_2 1_555 1_555
C14_2 C9_2 1_555 1_555
H6_2 C14_2 1_555 1_555
C15_2 C3_2 1_555 1_555
C16_2 C13_2 1_555 1_555
O8_2 Zn1_2 1_555 1_555
O10_2 P2_2 1_555 1_555
O11_2 Zn6_2 1_555 1_555
O14_2 Zn6_2 1_555 1_555
O16_2 Zn1_2 1_555 1_555
O17_2 Zn1_2 1_555 1_555
O19_2 Zn6_2 1_555 1_555
O20_2 C16_2 1_555 1_555
P2_2 O3_2 1_555 1_555
C9_2 P2_2 1_555 1_555
C10_2 C11_2 1_555 1_555
C13_2 C14_2 1_555 1_555
C15_2 O14_2 1_555 1_555
C15_2 O16_2 1_555 1_555
Zn1_3 O1_3 1_555 1_555
C4_3 C3_3 1_555 1_555
H2_3 C4_3 1_555 1_555
C5_3 C4_3 1_555 1_555
C7_3 O15 1_555 1_555
C8_3 C5_3 1_555 1_555
O1_3 P2_3 1_555 1_555
O3_3 Zn7_2 1_555 1_555
O5_3 C7_3 1_555 1_555
O6_3 C8_3 1_555 1_555
O7_3 C16_3 1_555 1_555
Zn4 O5_3 1_555 1_555
Zn6_3 O10_3 1_555 1_555
Zn7_3 O20_3 1_555 1_555
C9_3 C10_3 1_555 1_555
C10_3 H4_3 1_555 1_555
C11_3 C7_3 1_555 1_555
C12_3 C11_3 1_555 1_555
H5_3 C12_3 1_555 1_555
C13_3 C12_3 1_555 1_555
C14_3 C9_3 1_555 1_555
H6_3 C14_3 1_555 1_555
C15_3 C3_3 1_555 1_555
C16_3 C13_3 1_555 1_555
O8_3 Zn1_3 1_555 1_555
O10_3 P2_3 1_555 1_555
O11_3 Zn6_3 1_555 1_555
O14_3 Zn6_3 1_555 1_555
O16_3 Zn1_3 1_555 1_555
O17_3 Zn1_3 1_555 1_555
O19_3 Zn6_3 1_555 1_555
O20_3 C16_3 1_555 1_555
P2_3 O3_3 1_555 1_555
C9_3 P2_3 1_555 1_555
C10_3 C11_3 1_555 1_555
C13_3 C14_3 1_555 1_555
C15_3 O14_3 1_555 1_555
C15_3 O16_3 1_555 1_555
Zn8 O2_3 1_555 1_555
C1_3 C2_3 1_555 1_555
C2_3 H1_3 1_555 1_555
C6_3 C1_3 1_555 1_555
H3_3 C6_3 1_555 1_555
O2_3 P1_3 1_555 1_555
P1_3 C1_3 1_555 1_555
Zn3 O9_3 1_555 1_555
Zn5_2 O12_3 1_555 1_555
O9_3 P1_3 1_555 1_555
O12_3 P1_3 1_555 1_555
O13_3 Zn8 1_555 1_555
O18_3 Zn8 1_555 1_555
Zn1_4 O1_4 1_555 1_555
C4_4 C3_4 1_555 1_555
H2_4 C4_4 1_555 1_555
C5_4 C4_4 1_555 1_555
C7_4 O15_2 1_555 1_555
C8_4 C5_4 1_555 1_555
O1_4 P2_4 1_555 1_555
O3_4 Zn7_3 1_555 1_555
O5_4 C7_4 1_555 1_555
O6_4 C8_4 1_555 1_555
O7_4 C16_4 1_555 1_555
Zn4_2 O5_4 1_555 1_555
Zn6_4 O10_4 1_555 1_555
Zn9 O20_4 1_555 1_555
C9_4 C10_4 1_555 1_555
C10_4 H4_4 1_555 1_555
C11_4 C7_4 1_555 1_555
C12_4 C11_4 1_555 1_555
H5_4 C12_4 1_555 1_555
C13_4 C12_4 1_555 1_555
C14_4 C9_4 1_555 1_555
H6_4 C14_4 1_555 1_555
C15_4 C3_4 1_555 1_555
C16_4 C13_4 1_555 1_555
O8_4 Zn1_4 1_555 1_555
O10_4 P2_4 1_555 1_555
O11_4 Zn6_4 1_555 1_555
O14_4 Zn6_4 1_555 1_555
O16_4 Zn1_4 1_555 1_555
O17_4 Zn1_4 1_555 1_555
O19_4 Zn6_4 1_555 1_555
O20_4 C16_4 1_555 1_555
P2_4 O3_4 1_555 1_555
C9_4 P2_4 1_555 1_555
C10_4 C11_4 1_555 1_555
C13_4 C14_4 1_555 1_555
C15_4 O14_4 1_555 1_555
C15_4 O16_4 1_555 1_555
Zn8_2 O2_4 1_555 1_555
C1_4 C2_4 1_555 1_555
C2_4 H1_4 1_555 1_555
C6_4 C1_4 1_555 1_555
H3_4 C6_4 1_555 1_555
O2_4 P1_4 1_555 1_555
P1_4 C1_4 1_555 1_555
Zn3_2 O9_4 1_555 1_555
Zn5_3 O12_4 1_555 1_555
O9_4 P1_4 1_555 1_555
O12_4 P1_4 1_555 1_555
O13_4 Zn8_2 1_555 1_555
O18_4 Zn8_2 1_555 1_555
Zn10 O2_5 1_555 1_555
C1_5 C2_5 1_555 1_555
C2_5 H1_5 1_555 1_555
C3_5 C2_5 1_555 1_555
C4_5 C3_5 1_555 1_555
H2_5 C4_5 1_555 1_555
C5_5 C4_5 1_555 1_555
C6_5 C1_5 1_555 1_555
H3_5 C6_5 1_555 1_555
C7_5 O4_3 1_555 1_555
C8_5 C5_5 1_555 1_555
O2_5 P1_5 1_555 1_555
O4_3 Zn5_2 1_555 1_555
O5_5 C7_5 1_555 1_555
O19 C8_5 1_555 1_555
P1_5 C1_5 1_555 1_555
Zn3 O5_5 1_555 1_555
Zn4 O9_5 1_555 1_555
O9_5 P1_5 1_555 1_555
O13 P1_5 1_555 1_555
O15_3 Zn10 1_555 1_555
O21_5 C8_5 1_555 1_555
C5_5 C6_5 1_555 1_555
Zn4_2 O1_5 1_555 1_555
O1_5 P2_5 1_555 1_555
O7_5 C16_5 1_555 1_555
Zn5 O10_5 1_555 1_555
C9_5 C10_5 1_555 1_555
C10_5 H4_5 1_555 1_555
C12_5 C11_5 1_555 1_555
H5_5 C12_5 1_555 1_555
C13_5 C12_5 1_555 1_555
C14_5 C9_5 1_555 1_555
H6_5 C14_5 1_555 1_555
C16_5 C13_5 1_555 1_555
O10_5 P2_5 1_555 1_555
O14_5 Zn5 1_555 1_555
O16_5 Zn4_2 1_555 1_555
O19_2 C16_5 1_555 1_555
P2_5 O13_2 1_555 1_555
C9_5 P2_5 1_555 1_555
C10_5 C11_5 1_555 1_555
C13_5 C14_5 1_555 1_555
C15_5 O14_5 1_555 1_555
C15_5 O16_5 1_555 1_555
Zn3 O1_6 1_555 1_555
O1_6 P2_6 1_555 1_555
O7_6 C16_6 1_555 1_555
Zn5_2 O10_6 1_555 1_555
C9_6 C10_6 1_555 1_555
C10_6 H4_6 1_555 1_555
C12_6 C11_6 1_555 1_555
H5_6 C12_6 1_555 1_555
C13_6 C12_6 1_555 1_555
C14_6 C9_6 1_555 1_555
H6_6 C14_6 1_555 1_555
C16_6 C13_6 1_555 1_555
O10_6 P2_6 1_555 1_555
O19_3 C16_6 1_555 1_555
P2_6 O13_3 1_555 1_555
C9_6 P2_6 1_555 1_555
C10_6 C11_6 1_555 1_555
C13_6 C14_6 1_555 1_555
C7_6 O4_4 1_555 1_555
O4_4 Zn5_3 1_555 1_555
O5_6 C7_6 1_555 1_555
Zn3_2 O5_6 1_555 1_555
C7_7 O15_3 1_555 1_555
O5_7 C7_7 1_555 1_555
Zn4 O5_7 1_555 1_555
Zn3_2 O1_7 1_555 1_555
O1_7 P2_7 1_555 1_555
O7_7 C16_7 1_555 1_555
Zn5_3 O10_7 1_555 1_555
C9_7 C10_7 1_555 1_555
C10_7 H4_7 1_555 1_555
C12_7 C11_7 1_555 1_555
H5_7 C12_7 1_555 1_555
C13_7 C12_7 1_555 1_555
C14_7 C9_7 1_555 1_555
H6_7 C14_7 1_555 1_555
C16_7 C13_7 1_555 1_555
O10_7 P2_7 1_555 1_555
O19_4 C16_7 1_555 1_555
P2_7 O13_4 1_555 1_555
C9_7 P2_7 1_555 1_555
C10_7 C11_7 1_555 1_555
C13_7 C14_7 1_555 1_555
C7_8 O4_5 1_555 1_555
O4_5 Zn7_3 1_555 1_555
O17_4 C7_8 1_555 1_555
O7_8 C16_8 1_555 1_555
C11_8 C7_8 1_555 1_555
C12_8 C11_8 1_555 1_555
H5_8 C12_8 1_555 1_555
C13_8 C12_8 1_555 1_555
C16_8 C13_8 1_555 1_555
O18 C16_8 1_555 1_555
C4_6 C3_6 1_555 1_555
H2_6 C4_6 1_555 1_555
C5_6 C4_6 1_555 1_555
C8_6 C5_6 1_555 1_555
O8_3 P2_8 1_555 1_555
O18_4 C8_6 1_555 1_555
Zn7_2 O10_8 1_555 1_555
C9_8 C10_8 1_555 1_555
C10_8 H4_8 1_555 1_555
C14_8 C9_8 1_555 1_555
H6_8 C14_8 1_555 1_555
C15_6 C3_6 1_555 1_555
O10_8 P2_8 1_555 1_555
O14_6 Zn7_2 1_555 1_555
O21_6 C8_6 1_555 1_555
P2_8 O11_3 1_555 1_555
C9_8 P2_8 1_555 1_555
C15_6 O14_6 1_555 1_555
C15_6 O17_3 1_555 1_555
Zn7 O2_6 1_555 1_555
C1_6 C2_6 1_555 1_555
C2_6 H1_6 1_555 1_555
C6_6 C1_6 1_555 1_555
H3_6 C6_6 1_555 1_555
O2_6 P1_6 1_555 1_555
P1_6 C1_6 1_555 1_555
O8_2 P1_6 1_555 1_555
O11_2 P1_6 1_555 1_555
O15_4 Zn7 1_555 1_555
O8_4 P2_9 1_555 1_555
Zn7_3 O10_9 1_555 1_555
C9_9 C10_9 1_555 1_555
C10_9 H4_9 1_555 1_555
C14_9 C9_9 1_555 1_555
H6_9 C14_9 1_555 1_555
O10_9 P2_9 1_555 1_555
P2_9 O11_4 1_555 1_555
C9_9 P2_9 1_555 1_555
C7_9 O4_6 1_555 1_555
O4_6 Zn9 1_555 1_555
O17 C7_9 1_555 1_555
O7_9 C16_9 1_555 1_555
C11_9 C7_9 1_555 1_555
C12_9 C11_9 1_555 1_555
H5_9 C12_9 1_555 1_555
C13_9 C12_9 1_555 1_555
C16_9 C13_9 1_555 1_555
O18_2 C16_9 1_555 1_555
O8 P2_10 1_555 1_555
Zn9 O10_10 1_555 1_555
C9_10 C10_10 1_555 1_555
C10_10 H4_10 1_555 1_555
C14_10 C9_10 1_555 1_555
H6_10 C14_10 1_555 1_555
O10_10 P2_10 1_555 1_555
P2_10 O11 1_555 1_555
C9_10 P2_10 1_555 1_555
C7_10 O15_4 1_555 1_555
O17_2 C7_10 1_555 1_555
O7_10 C16_10 1_555 1_555
C11_10 C7_10 1_555 1_555
C12_10 C11_10 1_555 1_555
H5_10 C12_10 1_555 1_555
C13_10 C12_10 1_555 1_555
C16_10 C13_10 1_555 1_555
O18_3 C16_10 1_555 1_555
C17 H7 1_555 1_555
H8 C17 1_555 1_555
C18 C17 1_555 1_555
H9 C18 1_555 1_555
H10 C18 1_555 1_555
C19 C18 1_555 1_555
H11 C19 1_555 1_555
N1 C17 1_555 1_555
H12 N1 1_555 1_555
C20 N1 1_555 1_555
H13 C20 1_555 1_555
H14 C20 1_555 1_555
C21 C19 1_555 1_555
H15 C21 1_555 1_555
H16 C21 1_555 1_555
H17 C19 1_555 1_555
H18 N1 1_555 1_555
C20 C21 1_555 1_555
C17_2 H7_2 1_555 1_555
H8_2 C17_2 1_555 1_555
C18_2 C17_2 1_555 1_555
H9_2 C18_2 1_555 1_555
H10_2 C18_2 1_555 1_555
C19_2 C18_2 1_555 1_555
H11_2 C19_2 1_555 1_555
N1_2 C17_2 1_555 1_555
H12_2 N1_2 1_555 1_555
C20_2 N1_2 1_555 1_555
H13_2 C20_2 1_555 1_555
H14_2 C20_2 1_555 1_555
C21_2 C19_2 1_555 1_555
H15_2 C21_2 1_555 1_555
H16_2 C21_2 1_555 1_555
H17_2 C19_2 1_555 1_555
H18_2 N1_2 1_555 1_555
C20_2 C21_2 1_555 1_555
C17_3 H7_3 1_555 1_555
H8_3 C17_3 1_555 1_555
C18_3 C17_3 1_555 1_555
H9_3 C18_3 1_555 1_555
H10_3 C18_3 1_555 1_555
C19_3 C18_3 1_555 1_555
H11_3 C19_3 1_555 1_555
N1_3 C17_3 1_555 1_555
H12_3 N1_3 1_555 1_555
C20_3 N1_3 1_555 1_555
H13_3 C20_3 1_555 1_555
H14_3 C20_3 1_555 1_555
C21_3 C19_3 1_555 1_555
H15_3 C21_3 1_555 1_555
H16_3 C21_3 1_555 1_555
H17_3 C19_3 1_555 1_555
H18_3 N1_3 1_555 1_555
C20_3 C21_3 1_555 1_555
C17_4 H7_4 1_555 1_555
H8_4 C17_4 1_555 1_555
C18_4 C17_4 1_555 1_555
H9_4 C18_4 1_555 1_555
H10_4 C18_4 1_555 1_555
C19_4 C18_4 1_555 1_555
H11_4 C19_4 1_555 1_555
N1_4 C17_4 1_555 1_555
H12_4 N1_4 1_555 1_555
C20_4 N1_4 1_555 1_555
H13_4 C20_4 1_555 1_555
H14_4 C20_4 1_555 1_555
C21_4 C19_4 1_555 1_555
H15_4 C21_4 1_555 1_555
H16_4 C21_4 1_555 1_555
H17_4 C19_4 1_555 1_555
H18_4 N1_4 1_555 1_555
C20_4 C21_4 1_555 1_555
H9_5 C18_5 1_555 1_555
H10_5 C18_5 1_555 1_555
C19_5 C18_5 1_555 1_555
H11_5 C19_5 1_555 1_555
C21_5 C19_5 1_555 1_555
H15_5 C21_5 1_555 1_555
H16_5 C21_5 1_555 1_555
H17_5 C19_5 1_555 1_555
C17_5 H7_5 1_555 1_555
H8_5 C17_5 1_555 1_555
N1_5 C17_5 1_555 1_555
H12_5 N1_5 1_555 1_555
C20_5 N1_5 1_555 1_555
H13_5 C20_5 1_555 1_555
H14_5 C20_5 1_555 1_555
H18_5 N1_5 1_555 1_555
H9_6 C18_6 1_555 1_555
H10_6 C18_6 1_555 1_555
C19_6 C18_6 1_555 1_555
H11_6 C19_6 1_555 1_555
C21_6 C19_6 1_555 1_555
H15_6 C21_6 1_555 1_555
H16_6 C21_6 1_555 1_555
H17_6 C19_6 1_555 1_555
C17_6 H7_6 1_555 1_555
H8_6 C17_6 1_555 1_555
N1_6 C17_6 1_555 1_555
H12_6 N1_6 1_555 1_555
C20_6 N1_6 1_555 1_555
H13_6 C20_6 1_555 1_555
H14_6 C20_6 1_555 1_555
H18_6 N1_6 1_555 1_555
C17_7 H7_7 1_555 1_555
H8_7 C17_7 1_555 1_555
N1_7 C17_7 1_555 1_555
H12_7 N1_7 1_555 1_555
C20_7 N1_7 1_555 1_555
H13_7 C20_7 1_555 1_555
H14_7 C20_7 1_555 1_555
H18_7 N1_7 1_555 1_555
H9_7 C18_7 1_555 1_555
H10_7 C18_7 1_555 1_555
C19_7 C18_7 1_555 1_555
H11_7 C19_7 1_555 1_555
C21_7 C19_7 1_555 1_555
H15_7 C21_7 1_555 1_555
H16_7 C21_7 1_555 1_555
H17_7 C19_7 1_555 1_555
C17_8 H7_8 1_555 1_555
H8_8 C17_8 1_555 1_555
N1_8 C17_8 1_555 1_555
H12_8 N1_8 1_555 1_555
C20_8 N1_8 1_555 1_555
H13_8 C20_8 1_555 1_555
H14_8 C20_8 1_555 1_555
H18_8 N1_8 1_555 1_555
H9_8 C18_8 1_555 1_555
H10_8 C18_8 1_555 1_555
C19_8 C18_8 1_555 1_555
H11_8 C19_8 1_555 1_555
C21_8 C19_8 1_555 1_555
H15_8 C21_8 1_555 1_555
H16_8 C21_8 1_555 1_555
H17_8 C19_8 1_555 1_555
O24 H22 1_555 1_555
O24 H24 1_555 1_555
O24_2 H22_2 1_555 1_555
O24_2 H23 1_555 1_555
O24_3 H23_2 1_555 1_555
O24_3 H22_3 1_555 1_555
O24_4 H24_2 1_555 1_555
O24_4 H22_4 1_555 1_555
O24_5 H23_3 1_555 1_555
O24_5 H22_5 1_555 1_555
O24_6 H22_6 1_555 1_555
O24_6 H24_3 1_555 1_555
O24_7 H24_4 1_555 1_555
O24_7 H22_7 1_555 1_555
O24_8 H22_8 1_555 1_555
O24_8 H23_4 1_555 1_555

#END
