
###############################################################################
#
# This file contains modified crystal structure data generated from the
# MOF subset of the Cambridge Structural Database (CSD) v543 
# hosted by the Cambridge Crystallographic Data Centre (CCDC).
#
# This work is licensed under the Creative Commons
# Attribution-NonCommercial-ShareAlike 4.0 International License.
# To view a copy of this license, visit
# http://creativecommons.org/licenses/by-nc-sa/4.0/
# or send a letter to
# Creative Commons, PO Box 1866, Mountain View, CA 94042, USA.
#
# CIF created using the CSD Python API on 29 September 2022
# The structure has been converted into the P1 space group
# The structure has a 3D framework
# The original CSD entry FEQSIF is in the tetragonal crystal system
# The framework has been calculated to contain at least 10.0% void space
# The void calculation uses a probe of radius 1.32A, grid spacing 0.4
#
###############################################################################

data_FEQSIF
_chemical_formula_moiety         '(C82 H80 Co8 O60)n'
_symmetry_cell_setting           triclinic
_symmetry_space_group_name_H-M   'P 1'
_symmetry_Int_Tables_number      1
_space_group_name_Hall           'P 1'
loop_
_symmetry_equiv_pos_site_id
_symmetry_equiv_pos_as_xyz
1 x,y,z
_cell_length_a                   20.078(4)
_cell_length_b                   20.078(4)
_cell_length_c                   11.252(2)
_cell_angle_alpha                90
_cell_angle_beta                 90
_cell_angle_gamma                90
_cell_volume                     4535.97
loop_
_atom_site_label
_atom_site_type_symbol
_atom_site_fract_x
_atom_site_fract_y
_atom_site_fract_z
C10 C 0.0000 0.0000 0.0000
Co7 Co 0.24464(3) 0.25536(3) 0.53643(7)
O21 O 0.23668(18) 0.16167(15) 0.4599(3)
O28 O 0.1702(4) 0.1899(2) 0.3093(6)
C24 C 0.1454(3) 0.0597(3) 0.2492(5)
H30 H 0.1224 0.0950 0.2110
C27 C 0.1920(3) 0.0748(3) 0.3377(6)
C30 C 0.2304(3) 0.0258(2) 0.3864(5)
H33 H 0.2640 0.0366 0.4426
C33 C 0.2011(4) 0.1482(3) 0.3722(6)
C36 C 0.0544(3) 0.0304(2) 0.0791(5)
H36 H 0.0872 0.0547 0.0299
H39 H 0.0344 0.0620 0.1364
C10_2 C 0.0000 -0.0000 1.0000
Co12 Co 0.12774(4) 0.37226(4) 0.41989(10)
O12 O 0.15360(16) 0.24011(19) 0.6148(3)
O17 O 0.07946(18) 0.3086(2) 0.5304(4)
O32 O 0.02202(18) 0.0857(2) 0.8601(4)
C13 C 0.0963(2) 0.2592(3) 0.5942(5)
C16 C 0.0405(3) 0.2199(3) 0.6469(5)
C19 C 0.0544(2) 0.1714(3) 0.7275(5)
H28 H 0.0996 0.1630 0.7479
C22 C 0.0026(2) 0.1324(3) 0.7830(4)
C10_3 C -0.0000 1.0000 0.0000
Co6 Co 0.25536(3) 0.75536(3) 0.46357(7)
Co11 Co 0.37226(4) 0.87226(4) 0.58011(10)
O11 O 0.24011(19) 0.84640(16) 0.3852(3)
O16 O 0.3086(2) 0.92054(18) 0.4696(4)
O31 O 0.0857(2) 0.97798(18) 0.1399(4)
C12 C 0.2592(3) 0.9037(2) 0.4058(5)
C15 C 0.2199(3) 0.9595(3) 0.3531(5)
C18 C 0.1714(3) 0.9456(2) 0.2725(5)
H27 H 0.1630 0.9004 0.2521
C21 C 0.1324(3) 0.9974(2) 0.2170(4)
C10_4 C -0.0000 1.0000 1.0000
O20 O 0.16167(15) 0.76332(18) 0.5401(3)
O27 O 0.1899(2) 0.8298(4) 0.6907(6)
C23 C 0.0597(3) 0.8546(3) 0.7508(5)
H29 H 0.0950 0.8776 0.7890
C26 C 0.0748(3) 0.8080(3) 0.6623(6)
C29 C 0.0258(2) 0.7696(3) 0.6136(5)
H32 H 0.0366 0.7360 0.5574
C32 C 0.1482(3) 0.7989(4) 0.6278(6)
C35 C 0.0304(2) 0.9456(3) 0.9209(5)
H35 H 0.0547 0.9128 0.9701
H38 H 0.0620 0.9656 0.8636
Co1 Co 0.74464(3) 0.24464(3) 0.46357(7)
Co2 Co 0.62774(4) 0.12774(4) 0.58011(10)
O1 O 0.75989(19) 0.15360(16) 0.3852(3)
O2 O 0.6914(2) 0.07946(18) 0.4696(4)
O5 O 0.9143(2) 0.02202(18) 0.1399(4)
O6 O 0.69711(16) 0.19711(16) 0.6152(4)
H1 H 0.6807 0.2291 0.6552
O7 O 0.78954(18) 0.28954(18) 0.3172(4)
H2 H 0.7735 0.3212 0.2758
O8 O 0.5563(2) 0.0563(2) 0.5453(7)
H3 H 0.5633 0.0156 0.5283
O9 O 0.6649(4) 0.0663(4) 0.7255(6)
H4 H 0.7052 0.0535 0.7213
H5 H 0.6425 0.0304 0.7259
C1 C 0.7408(3) 0.0963(2) 0.4058(5)
C2 C 0.7801(3) 0.0405(3) 0.3531(5)
C3 C 0.8286(3) 0.0544(2) 0.2725(5)
H6 H 0.8370 0.0996 0.2521
C4 C 0.8676(3) 0.0026(2) 0.2170(4)
C10_5 C 1.0000 0.0000 0.0000
O13 O 0.65360(16) 0.25989(19) 0.3852(3)
O18 O 0.57946(18) 0.1914(2) 0.4696(4)
O23 O 0.83833(15) 0.23668(18) 0.5401(3)
O24 O 0.73668(18) 0.33833(15) 0.5401(3)
H11 H 0.7291 0.1807 0.6552
H14 H 0.8212 0.2735 0.2758
H17 H 0.5156 0.0633 0.5283
O36 O 0.5663(4) 0.1649(4) 0.7255(6)
H20 H 0.5535 0.2052 0.7213
H23 H 0.5304 0.1425 0.7259
C10_6 C 1.0000 -0.0000 1.0000
O29 O 0.8101(2) 0.1702(4) 0.6907(6)
C25 C 0.9403(3) 0.1454(3) 0.7508(5)
H31 H 0.9050 0.1224 0.7890
C28 C 0.9252(3) 0.1920(3) 0.6623(6)
C31 C 0.9742(2) 0.2304(3) 0.6136(5)
H34 H 0.9634 0.2640 0.5574
C34 C 0.8518(3) 0.2011(4) 0.6278(6)
C37 C 0.9696(2) 0.0544(3) 0.9209(5)
H37 H 0.9453 0.0872 0.9701
H40 H 0.9380 0.0344 0.8636
O3 O 0.76332(18) 0.83833(15) 0.4599(3)
O4 O 0.8298(4) 0.8101(2) 0.3093(6)
C5 C 0.8546(3) 0.9403(3) 0.2492(5)
H7 H 0.8776 0.9050 0.2110
C6 C 0.8080(3) 0.9252(3) 0.3377(6)
C7 C 0.7696(3) 0.9742(2) 0.3864(5)
H8 H 0.7360 0.9634 0.4426
C8 C 0.7989(4) 0.8518(3) 0.3722(6)
C9 C 0.9456(3) 0.9696(2) 0.0791(5)
H9 H 0.9128 0.9453 0.0299
H10 H 0.9656 0.9380 0.1364
C10_7 C 1.0000 1.0000 0.0000
Co4 Co 0.75536(3) 0.74464(3) 0.53643(7)
C10_8 C 1.0000 1.0000 1.0000
Co10 Co 0.87226(4) 0.62774(4) 0.41989(10)
O10 O 0.84640(16) 0.75989(19) 0.6148(3)
O14 O 0.74011(19) 0.65360(16) 0.6148(3)
O15 O 0.92054(18) 0.6914(2) 0.5304(4)
O19 O 0.8086(2) 0.57946(18) 0.5304(4)
O26 O 0.66167(15) 0.73668(18) 0.4599(3)
O30 O 0.97798(18) 0.9143(2) 0.8601(4)
O33 O 0.80289(16) 0.69711(16) 0.3848(4)
H12 H 0.7709 0.6807 0.3448
H13 H 0.8193 0.7291 0.3448
O34 O 0.71046(18) 0.78954(18) 0.6828(4)
H15 H 0.6788 0.7735 0.7242
H16 H 0.7265 0.8212 0.7242
O35 O 0.9437(2) 0.5563(2) 0.4547(7)
H18 H 0.9844 0.5633 0.4717
H19 H 0.9367 0.5156 0.4717
O37 O 0.9337(4) 0.6649(4) 0.2745(6)
O38 O 0.8351(4) 0.5663(4) 0.2745(6)
H21 H 0.9465 0.7052 0.2787
H22 H 0.7948 0.5535 0.2787
H24 H 0.9696 0.6425 0.2741
H25 H 0.8575 0.5304 0.2741
C11 C 0.9037(2) 0.7408(3) 0.5942(5)
C14 C 0.9595(3) 0.7801(3) 0.6469(5)
C17 C 0.9456(2) 0.8286(3) 0.7275(5)
H26 H 0.9004 0.8370 0.7479
C20 C 0.9974(2) 0.8676(3) 0.7830(4)
O6_2 O 0.19711(16) 0.30289(16) 0.3848(4)
H1_2 H 0.2291 0.3193 0.3448
O7_2 O 0.28954(18) 0.21046(18) 0.6828(4)
H2_2 H 0.3212 0.2265 0.7242
O8_2 O 0.0563(2) 0.4437(2) 0.4547(7)
H3_2 H 0.0156 0.4367 0.4717
O9_2 O 0.0663(4) 0.3351(4) 0.2745(6)
H4_2 H 0.0535 0.2948 0.2787
H5_2 H 0.0304 0.3575 0.2741
O13_2 O 0.25989(19) 0.34640(16) 0.6148(3)
O18_2 O 0.1914(2) 0.42054(18) 0.5304(4)
O24_2 O 0.33833(15) 0.26332(18) 0.4599(3)
H11_2 H 0.1807 0.2709 0.3448
H14_2 H 0.2735 0.1788 0.7242
H17_2 H 0.0633 0.4844 0.4717
O36_2 O 0.1649(4) 0.4337(4) 0.2745(6)
H20_2 H 0.2052 0.4465 0.2787
H23_2 H 0.1425 0.4696 0.2741
O6_3 O 0.30289(16) 0.80289(16) 0.6152(4)
H1_3 H 0.3193 0.7709 0.6552
O7_3 O 0.21046(18) 0.71046(18) 0.3172(4)
H2_3 H 0.2265 0.6788 0.2758
O8_3 O 0.4437(2) 0.9437(2) 0.5453(7)
H3_3 H 0.4367 0.9844 0.5283
O9_3 O 0.3351(4) 0.9337(4) 0.7255(6)
H4_3 H 0.2948 0.9465 0.7213
H5_3 H 0.3575 0.9696 0.7259
O13_3 O 0.34640(16) 0.74011(19) 0.3852(3)
O18_3 O 0.42054(18) 0.8086(2) 0.4696(4)
O24_3 O 0.26332(18) 0.66167(15) 0.5401(3)
H11_3 H 0.2709 0.8193 0.6552
H14_3 H 0.1788 0.7265 0.2758
H17_3 H 0.4844 0.9367 0.5283
O36_3 O 0.4337(4) 0.8351(4) 0.7255(6)
H20_3 H 0.4465 0.7948 0.7213
H23_3 H 0.4696 0.8575 0.7259
C10_9 C 0.5000 0.5000 0.0000
O27_2 O 0.6899(2) 0.6702(4) 0.3093(6)
O29_2 O 0.3101(2) 0.3298(4) 0.3093(6)
O30_2 O 0.47798(18) 0.5857(2) 0.1399(4)
O32_2 O 0.52202(18) 0.4143(2) 0.1399(4)
C11_2 C 0.4037(2) 0.7592(3) 0.4058(5)
C13_2 C 0.5963(2) 0.2408(3) 0.4058(5)
C14_2 C 0.4595(3) 0.7199(3) 0.3531(5)
C16_2 C 0.5405(3) 0.2801(3) 0.3531(5)
C17_2 C 0.4456(2) 0.6714(3) 0.2725(5)
C19_2 C 0.5544(2) 0.3286(3) 0.2725(5)
H26_2 H 0.4004 0.6630 0.2521
H28_2 H 0.5996 0.3370 0.2521
C20_2 C 0.4974(2) 0.6324(3) 0.2170(4)
C22_2 C 0.5026(2) 0.3676(3) 0.2170(4)
C23_2 C 0.5597(3) 0.6454(3) 0.2492(5)
C25_2 C 0.4403(3) 0.3546(3) 0.2492(5)
H29_2 H 0.5950 0.6224 0.2110
H31_2 H 0.4050 0.3776 0.2110
C26_2 C 0.5748(3) 0.6920(3) 0.3377(6)
C28_2 C 0.4252(3) 0.3080(3) 0.3377(6)
C29_2 C 0.5258(2) 0.7304(3) 0.3864(5)
C31_2 C 0.4742(2) 0.2696(3) 0.3864(5)
H32_2 H 0.5366 0.7640 0.4426
H34_2 H 0.4634 0.2360 0.4426
C32_2 C 0.6482(3) 0.7011(4) 0.3722(6)
C34_2 C 0.3518(3) 0.2989(4) 0.3722(6)
C35_2 C 0.5304(2) 0.5544(3) 0.0791(5)
C37_2 C 0.4696(2) 0.4456(3) 0.0791(5)
H35_2 H 0.5547 0.5872 0.0299
H37_2 H 0.4453 0.4128 0.0299
H38_2 H 0.5620 0.5344 0.1364
H40_2 H 0.4380 0.4656 0.1364
O4_2 O 0.3298(4) 0.6899(2) 0.6907(6)
O5_2 O 0.4143(2) 0.47798(18) 0.8601(4)
C1_2 C 0.2408(3) 0.4037(2) 0.5942(5)
C2_2 C 0.2801(3) 0.4595(3) 0.6469(5)
C3_2 C 0.3286(3) 0.4456(2) 0.7275(5)
H6_2 H 0.3370 0.4004 0.7479
C4_2 C 0.3676(3) 0.4974(2) 0.7830(4)
C5_2 C 0.3546(3) 0.5597(3) 0.7508(5)
H7_2 H 0.3776 0.5950 0.7890
C6_2 C 0.3080(3) 0.5748(3) 0.6623(6)
C7_2 C 0.2696(3) 0.5258(2) 0.6136(5)
H8_2 H 0.2360 0.5366 0.5574
C8_2 C 0.2989(4) 0.6482(3) 0.6278(6)
C9_2 C 0.4456(3) 0.5304(2) 0.9209(5)
H9_2 H 0.4128 0.5547 0.9701
H10_2 H 0.4656 0.5620 0.8636
C10_10 C 0.5000 0.5000 1.0000
O28_2 O 0.6702(4) 0.3101(2) 0.6907(6)
O31_2 O 0.5857(2) 0.52202(18) 0.8601(4)
C12_2 C 0.7592(3) 0.5963(2) 0.5942(5)
C15_2 C 0.7199(3) 0.5405(3) 0.6469(5)
C18_2 C 0.6714(3) 0.5544(2) 0.7275(5)
H27_2 H 0.6630 0.5996 0.7479
C21_2 C 0.6324(3) 0.5026(2) 0.7830(4)
C24_2 C 0.6454(3) 0.4403(3) 0.7508(5)
H30_2 H 0.6224 0.4050 0.7890
C27_2 C 0.6920(3) 0.4252(3) 0.6623(6)
C30_2 C 0.7304(3) 0.4742(2) 0.6136(5)
H33_2 H 0.7640 0.4634 0.5574
C33_2 C 0.7011(4) 0.3518(3) 0.6278(6)
C36_2 C 0.5544(3) 0.4696(2) 0.9209(5)
H36_2 H 0.5872 0.4453 0.9701
H39_2 H 0.5344 0.4380 0.8636
loop_
_geom_bond_atom_site_label_1
_geom_bond_atom_site_label_2
_geom_bond_site_symmetry_1
_geom_bond_site_symmetry_2
Co7 O21 1_555 1_555
O21 C33 1_555 1_555
O28 C33 1_555 1_555
H30 C24 1_555 1_555
C27 C24 1_555 1_555
H33 C30 1_555 1_555
C33 C27 1_555 1_555
C36 C10 1_555 1_555
H36 C36 1_555 1_555
H39 C36 1_555 1_555
C27 C30 1_555 1_555
Co7 O12 1_555 1_555
Co12 O17 1_555 1_555
O12 C13 1_555 1_555
O17 C13 1_555 1_555
O32 C22 1_555 1_555
C13 C16 1_555 1_555
C16 C19 1_555 1_555
C19 H28 1_555 1_555
C22 C19 1_555 1_555
Co6 O11 1_555 1_555
Co11 O16 1_555 1_555
O11 C12 1_555 1_555
O16 C12 1_555 1_555
O31 C21 1_555 1_555
C12 C15 1_555 1_555
C15 C18 1_555 1_555
C18 H27 1_555 1_555
C21 C18 1_555 1_555
Co6 O20 1_555 1_555
O20 C32 1_555 1_555
O27 C32 1_555 1_555
H29 C23 1_555 1_555
C26 C23 1_555 1_555
H32 C29 1_555 1_555
C32 C26 1_555 1_555
C35 C10_4 1_555 1_555
H35 C35 1_555 1_555
H38 C35 1_555 1_555
C26 C29 1_555 1_555
Co1 O1 1_555 1_555
Co2 O2 1_555 1_555
O1 C1 1_555 1_555
O2 C1 1_555 1_555
O5 C4 1_555 1_555
O6 Co1 1_555 1_555
H1 O6 1_555 1_555
O7 Co1 1_555 1_555
H2 O7 1_555 1_555
O8 Co2 1_555 1_555
H3 O8 1_555 1_555
O9 Co2 1_555 1_555
H4 O9 1_555 1_555
H5 O9 1_555 1_555
C1 C2 1_555 1_555
C2 C3 1_555 1_555
C3 H6 1_555 1_555
C4 C3 1_555 1_555
O13 Co1 1_555 1_555
O18 Co2 1_555 1_555
O23 Co1 1_555 1_555
O24 Co1 1_555 1_555
H11 O6 1_555 1_555
H14 O7 1_555 1_555
H17 O8 1_555 1_555
O36 Co2 1_555 1_555
H20 O36 1_555 1_555
H23 O36 1_555 1_555
Co2 O6 1_555 1_555
O23 C34 1_555 1_555
O29 C34 1_555 1_555
H31 C25 1_555 1_555
C28 C25 1_555 1_555
H34 C31 1_555 1_555
C34 C28 1_555 1_555
C37 C10_6 1_555 1_555
H37 C37 1_555 1_555
H40 C37 1_555 1_555
C28 C31 1_555 1_555
O3 C8 1_555 1_555
O4 C8 1_555 1_555
H7 C5 1_555 1_555
C6 C5 1_555 1_555
H8 C7 1_555 1_555
C8 C6 1_555 1_555
H9 C9 1_555 1_555
H10 C9 1_555 1_555
C10_7 C9 1_555 1_555
Co4 O3 1_555 1_555
C6 C7 1_555 1_555
Co4 O10 1_555 1_555
Co10 O15 1_555 1_555
O10 C11 1_555 1_555
O14 Co4 1_555 1_555
O15 C11 1_555 1_555
O19 Co10 1_555 1_555
O26 Co4 1_555 1_555
O30 C20 1_555 1_555
O33 Co4 1_555 1_555
H12 O33 1_555 1_555
H13 O33 1_555 1_555
O34 Co4 1_555 1_555
H15 O34 1_555 1_555
H16 O34 1_555 1_555
O35 Co10 1_555 1_555
H18 O35 1_555 1_555
H19 O35 1_555 1_555
O37 Co10 1_555 1_555
O38 Co10 1_555 1_555
H21 O37 1_555 1_555
H22 O38 1_555 1_555
H24 O37 1_555 1_555
H25 O38 1_555 1_555
C11 C14 1_555 1_555
C14 C17 1_555 1_555
C17 H26 1_555 1_555
C20 C17 1_555 1_555
Co10 O33 1_555 1_555
O6_2 Co7 1_555 1_555
H1_2 O6_2 1_555 1_555
O7_2 Co7 1_555 1_555
H2_2 O7_2 1_555 1_555
O8_2 Co12 1_555 1_555
H3_2 O8_2 1_555 1_555
O9_2 Co12 1_555 1_555
H4_2 O9_2 1_555 1_555
H5_2 O9_2 1_555 1_555
O13_2 Co7 1_555 1_555
O18_2 Co12 1_555 1_555
O24_2 Co7 1_555 1_555
H11_2 O6_2 1_555 1_555
H14_2 O7_2 1_555 1_555
H17_2 O8_2 1_555 1_555
O36_2 Co12 1_555 1_555
H20_2 O36_2 1_555 1_555
H23_2 O36_2 1_555 1_555
Co12 O6_2 1_555 1_555
O6_3 Co6 1_555 1_555
H1_3 O6_3 1_555 1_555
O7_3 Co6 1_555 1_555
H2_3 O7_3 1_555 1_555
O8_3 Co11 1_555 1_555
H3_3 O8_3 1_555 1_555
O9_3 Co11 1_555 1_555
H4_3 O9_3 1_555 1_555
H5_3 O9_3 1_555 1_555
O13_3 Co6 1_555 1_555
O18_3 Co11 1_555 1_555
O24_3 Co6 1_555 1_555
H11_3 O6_3 1_555 1_555
H14_3 O7_3 1_555 1_555
H17_3 O8_3 1_555 1_555
O36_3 Co11 1_555 1_555
H20_3 O36_3 1_555 1_555
H23_3 O36_3 1_555 1_555
Co11 O6_3 1_555 1_555
O13_3 C11_2 1_555 1_555
O13 C13_2 1_555 1_555
O18_3 C11_2 1_555 1_555
O18 C13_2 1_555 1_555
O26 C32_2 1_555 1_555
O24_2 C34_2 1_555 1_555
O27_2 C32_2 1_555 1_555
O29_2 C34_2 1_555 1_555
O30_2 C20_2 1_555 1_555
O32_2 C22_2 1_555 1_555
C11_2 C14_2 1_555 1_555
C13_2 C16_2 1_555 1_555
C14_2 C17_2 1_555 1_555
C16_2 C19_2 1_555 1_555
C17_2 H26_2 1_555 1_555
C19_2 H28_2 1_555 1_555
C20_2 C17_2 1_555 1_555
C22_2 C19_2 1_555 1_555
C23_2 C20_2 1_555 1_555
C25_2 C22_2 1_555 1_555
H29_2 C23_2 1_555 1_555
H31_2 C25_2 1_555 1_555
C26_2 C23_2 1_555 1_555
C28_2 C25_2 1_555 1_555
C29_2 C14_2 1_555 1_555
C31_2 C16_2 1_555 1_555
H32_2 C29_2 1_555 1_555
H34_2 C31_2 1_555 1_555
C32_2 C26_2 1_555 1_555
C34_2 C28_2 1_555 1_555
C35_2 C10_9 1_555 1_555
C37_2 C10_9 1_555 1_555
H35_2 C35_2 1_555 1_555
H37_2 C37_2 1_555 1_555
H38_2 C35_2 1_555 1_555
H40_2 C37_2 1_555 1_555
O30_2 C35_2 1_555 1_555
O32_2 C37_2 1_555 1_555
C26_2 C29_2 1_555 1_555
C28_2 C31_2 1_555 1_555
O13_2 C1_2 1_555 1_555
O18_2 C1_2 1_555 1_555
O24_3 C8_2 1_555 1_555
O4_2 C8_2 1_555 1_555
O5_2 C4_2 1_555 1_555
C1_2 C2_2 1_555 1_555
C2_2 C3_2 1_555 1_555
C3_2 H6_2 1_555 1_555
C4_2 C3_2 1_555 1_555
C5_2 C4_2 1_555 1_555
H7_2 C5_2 1_555 1_555
C6_2 C5_2 1_555 1_555
C7_2 C2_2 1_555 1_555
H8_2 C7_2 1_555 1_555
C8_2 C6_2 1_555 1_555
C9_2 O5_2 1_555 1_555
H9_2 C9_2 1_555 1_555
H10_2 C9_2 1_555 1_555
C10_10 C9_2 1_555 1_555
O14 C12_2 1_555 1_555
O19 C12_2 1_555 1_555
O24 C33_2 1_555 1_555
O28_2 C33_2 1_555 1_555
O31_2 C21_2 1_555 1_555
C12_2 C15_2 1_555 1_555
C15_2 C18_2 1_555 1_555
C18_2 H27_2 1_555 1_555
C21_2 C18_2 1_555 1_555
C24_2 C21_2 1_555 1_555
H30_2 C24_2 1_555 1_555
C27_2 C24_2 1_555 1_555
C30_2 C15_2 1_555 1_555
H33_2 C30_2 1_555 1_555
C33_2 C27_2 1_555 1_555
C36_2 C10_10 1_555 1_555
H36_2 C36_2 1_555 1_555
H39_2 C36_2 1_555 1_555
C6_2 C7_2 1_555 1_555
O31_2 C36_2 1_555 1_555
C27_2 C30_2 1_555 1_555

#END
