
###############################################################################
#
# This file contains modified crystal structure data generated from the
# MOF subset of the Cambridge Structural Database (CSD) v543 
# hosted by the Cambridge Crystallographic Data Centre (CCDC).
#
# This work is licensed under the Creative Commons
# Attribution-NonCommercial-ShareAlike 4.0 International License.
# To view a copy of this license, visit
# http://creativecommons.org/licenses/by-nc-sa/4.0/
# or send a letter to
# Creative Commons, PO Box 1866, Mountain View, CA 94042, USA.
#
# CIF created using the CSD Python API on 29 September 2022
# The structure has been converted into the P1 space group
# The structure has a 3D framework
# The original CSD entry FERCAH is in the tetragonal crystal system
# The framework has been calculated to contain at least 10.0% void space
# The void calculation uses a probe of radius 1.32A, grid spacing 0.4
#
###############################################################################

data_FERCAH
_chemical_formula_moiety         '(C192 H176 Li16 O31)n'
_symmetry_cell_setting           triclinic
_symmetry_space_group_name_H-M   'P 1'
_symmetry_Int_Tables_number      1
_space_group_name_Hall           'P 1'
loop_
_symmetry_equiv_pos_site_id
_symmetry_equiv_pos_as_xyz
1 x,y,z
_cell_length_a                   15.0031(1)
_cell_length_b                   15.0031(1)
_cell_length_c                   24.7185(4)
_cell_angle_alpha                90
_cell_angle_beta                 90
_cell_angle_gamma                90
_cell_volume                     5563.96
loop_
_atom_site_label
_atom_site_type_symbol
_atom_site_fract_x
_atom_site_fract_y
_atom_site_fract_z
H1 H 0.6603 0.2838 0.0029
C3 C 0.74917(7) 0.18751(9) 0.02636(5)
H2 H 0.7668 0.2166 0.0588
C4 C 0.78683(7) 0.10819(9) 0.01313(5)
H3 H 0.8314 0.0830 0.0357
H14 H 0.3397 0.2162 0.0029
C21 C 0.25083(7) 0.31249(9) 0.02636(5)
H17 H 0.2332 0.2834 0.0588
C24 C 0.21317(7) 0.39181(9) 0.01313(5)
H20 H 0.1686 0.4170 0.0357
C44 C 0.47573(6) 0.08158(7) 0.02306(4)
H34 H 0.4897 0.1446 0.0314
H37 H 0.4170 0.0674 0.0391
C47 C 0.54590(6) 0.02200(7) 0.04741(4)
H41 H 0.6052 0.0390 0.0332
H44 H 0.5467 0.0298 0.0872
Li1 Li 0.52403(10) 0.33343(10) 0.91376(6)
O1 O 0.40688(4) 0.27688(4) 0.91485(2)
O2 O 0.31974(4) 0.27824(4) 0.78460(2)
C1 C 0.65515(6) 0.18654(6) 0.94613(4)
C2 C 0.68438(7) 0.22750(7) 0.99297(4)
C5 C 0.75960(7) 0.06294(8) 0.96564(4)
C9 C 0.66515(8) 0.05429(7) 0.88528(4)
H7 H 0.6197 0.0786 0.8630
C10 C 0.69305(6) 0.10153(7) 0.93186(4)
C11 C 0.33158(7) 0.27427(6) 0.72694(4)
H8 H 0.3946 0.2603 0.7186
H9 H 0.3174 0.3330 0.7109
C12 C 0.27200(7) 0.20410(6) 0.70259(4)
H10 H 0.2110 0.3552 0.7832
H11 H 0.2202 0.2967 0.8372
Li2 Li 0.41657(10) 0.27403(10) 0.83624(6)
Li3 Li 0.47597(10) 0.16657(10) 0.91376(6)
Li4 Li 0.58343(10) 0.22597(10) 0.83624(6)
Li5 Li 0.08343(10) 0.22597(10) 0.66376(6)
O3 O 0.47312(4) 0.15688(4) 0.83515(2)
O4 O 0.59312(4) 0.22312(4) 0.91485(2)
O5 O 0.52688(4) 0.34312(4) 0.83515(2)
O6 O 0.52824(4) 0.43026(4) 0.96540(2)
O7 O 0.18026(4) 0.22176(4) 0.71540(2)
O8 O 0.68026(4) 0.22176(4) 0.78460(2)
O9 O 0.47176(4) 0.06974(4) 0.96540(2)
C13 C 0.56346(6) 0.40515(6) 0.80387(4)
C14 C 0.43654(6) 0.09485(6) 0.80387(4)
C15 C 0.34485(6) 0.31346(6) 0.94613(4)
C16 C 0.52250(7) 0.43438(7) 0.75703(4)
C17 C 0.47750(7) 0.06562(7) 0.75703(4)
C18 C 0.31562(7) 0.27250(7) 0.99297(4)
H12 H 0.4662 0.4103 0.7471
H13 H 0.5338 0.0897 0.7471
C19 C 0.56249(9) 0.49917(7) 0.72364(5)
C20 C 0.43751(9) 0.00083(7) 0.72364(5)
H15 H 0.5334 0.5168 0.6912
C22 C 0.64181(9) 0.53683(7) 0.73687(5)
H18 H 0.6670 0.5814 0.7143
C25 C 0.68706(8) 0.50960(7) 0.78436(4)
C27 C 0.24040(7) 0.43706(8) 0.96564(4)
C28 C 0.77100(10) 0.54552(10) 0.79980(6)
C30 C 0.20448(10) 0.52100(10) 0.95020(6)
H21 H 0.7980 0.5897 0.7776
H23 H 0.1603 0.5480 0.9724
C31 C 0.81361(11) 0.51844(12) 0.84528(6)
C33 C 0.23156(12) 0.56361(11) 0.90472(6)
H24 H 0.8693 0.5442 0.8549
H26 H 0.2058 0.6193 0.8951
C34 C 0.77584(9) 0.45264(12) 0.87816(5)
C35 C 0.22416(9) 0.04736(12) 0.87816(5)
C36 C 0.29736(12) 0.52584(9) 0.87184(5)
H27 H 0.8060 0.4339 0.9100
H28 H 0.1940 0.0661 0.9100
H29 H 0.3161 0.5560 0.8400
C37 C 0.69571(7) 0.41515(8) 0.86472(4)
C38 C 0.30429(7) 0.08485(8) 0.86472(4)
C39 C 0.33485(8) 0.44571(7) 0.88528(4)
H30 H 0.6714 0.3697 0.8870
H31 H 0.3286 0.1303 0.8870
H32 H 0.3803 0.4214 0.8630
C40 C 0.64847(7) 0.44305(6) 0.81814(4)
C41 C 0.35153(7) 0.05695(6) 0.81814(4)
C42 C 0.30695(6) 0.39847(7) 0.93186(4)
C43 C 0.16842(7) 0.22573(6) 0.77306(4)
H33 H 0.1054 0.2397 0.7814
H36 H 0.1826 0.1670 0.7891
C46 C 0.22800(7) 0.29590(6) 0.79741(4)
H39 H 0.2890 0.1448 0.7168
H42 H 0.2798 0.2033 0.6628
Li6 Li 0.52403(10) 0.83343(10) 0.08624(6)
O10 O 0.52824(4) 0.93026(4) 0.03460(2)
C6 C 0.79552(10) 0.97900(10) 0.95020(6)
H4 H 0.8397 0.9520 0.9724
C7 C 0.76844(12) 0.93639(11) 0.90472(6)
H5 H 0.7942 0.8807 0.8951
C8 C 0.70264(12) 0.97416(9) 0.87184(5)
H6 H 0.6839 0.9440 0.8400
H16 H 0.4666 0.9832 0.6912
C23 C 0.35819(9) 0.96317(7) 0.73687(5)
H19 H 0.3330 0.9186 0.7143
C26 C 0.31294(8) 0.99040(7) 0.78436(4)
C29 C 0.22900(10) 0.95448(10) 0.79980(6)
H22 H 0.2020 0.9103 0.7776
C32 C 0.18639(11) 0.98156(12) 0.84528(6)
H25 H 0.1307 0.9558 0.8549
C45 C 0.52427(6) 0.91842(7) 0.97694(4)
H35 H 0.5103 0.8554 0.9686
H38 H 0.5830 0.9326 0.9609
C48 C 0.45410(6) 0.97800(7) 0.95259(4)
H40 H 0.3948 0.9610 0.9668
H43 H 0.4533 0.9702 0.9128
H2_2 H 0.5334 0.0168 0.3088
C4_2 C 0.64181(9) 0.03683(7) 0.26313(5)
H3_2 H 0.6670 0.0814 0.2857
C5_2 C 0.68706(8) 0.00960(7) 0.21564(4)
C6_2 C 0.77100(10) 0.04552(10) 0.20020(6)
H4_2 H 0.7980 0.0897 0.2224
C7_2 C 0.81361(11) 0.01844(12) 0.15472(6)
H5_2 H 0.8693 0.0442 0.1451
C28_2 C 0.20448(10) 0.02100(10) 0.04980(6)
H21_2 H 0.1603 0.0480 0.0276
C31_2 C 0.23156(12) 0.06361(11) 0.09528(6)
H24_2 H 0.2058 0.1193 0.1049
C34_2 C 0.29736(12) 0.02584(9) 0.12816(5)
H27_2 H 0.3161 0.0560 0.1600
Li1_2 Li 0.41657(10) 0.77403(10) 0.16376(6)
O1_2 O 0.47312(4) 0.65688(4) 0.16485(2)
O2_2 O 0.47176(4) 0.56974(4) 0.03460(2)
C1_2 C 0.56346(6) 0.90515(6) 0.19613(4)
C2_2 C 0.52250(7) 0.93438(7) 0.24297(4)
H1_2 H 0.4662 0.9103 0.2529
C3_2 C 0.56249(9) 0.99917(7) 0.27636(5)
C8_2 C 0.77584(9) 0.95264(12) 0.12184(5)
H6_2 H 0.8060 0.9339 0.0900
C9_2 C 0.69571(7) 0.91515(8) 0.13528(4)
H7_2 H 0.6714 0.8697 0.1130
C10_2 C 0.64847(7) 0.94305(6) 0.18186(4)
H10_2 H 0.3948 0.4610 0.0332
H11_2 H 0.4533 0.4702 0.0872
Li2_2 Li 0.47597(10) 0.66657(10) 0.08624(6)
Li3_2 Li 0.58343(10) 0.72597(10) 0.16376(6)
Li6_2 Li 0.91657(10) 0.77403(10) 0.33624(6)
O3_2 O 0.59312(4) 0.72312(4) 0.08515(2)
O4_2 O 0.52688(4) 0.84312(4) 0.16485(2)
O5_2 O 0.40688(4) 0.77688(4) 0.08515(2)
O6_2 O 0.31974(4) 0.77824(4) 0.21540(2)
O9_2 O 0.68026(4) 0.72176(4) 0.21540(2)
O10_2 O 0.81974(4) 0.77824(4) 0.28460(2)
C13_2 C 0.34485(6) 0.81346(6) 0.05387(4)
C14_2 C 0.65515(6) 0.68654(6) 0.05387(4)
C15_2 C 0.43654(6) 0.59485(6) 0.19613(4)
C16_2 C 0.31562(7) 0.77250(7) 0.00703(4)
C17_2 C 0.68438(7) 0.72750(7) 0.00703(4)
C18_2 C 0.47750(7) 0.56562(7) 0.24297(4)
H14_2 H 0.5338 0.5897 0.2529
C21_2 C 0.43751(9) 0.50083(7) 0.27636(5)
H17_2 H 0.4666 0.4832 0.3088
C24_2 C 0.35819(9) 0.46317(7) 0.26313(5)
H20_2 H 0.3330 0.4186 0.2857
C25_2 C 0.24040(7) 0.93706(8) 0.03436(4)
C26_2 C 0.75960(7) 0.56294(8) 0.03436(4)
C27_2 C 0.31294(8) 0.49040(7) 0.21564(4)
C29_2 C 0.79552(10) 0.47900(10) 0.04980(6)
C30_2 C 0.22900(10) 0.45448(10) 0.20020(6)
H22_2 H 0.8397 0.4520 0.0276
H23_2 H 0.2020 0.4103 0.2224
C32_2 C 0.76844(12) 0.43639(11) 0.09528(6)
C33_2 C 0.18639(11) 0.48156(12) 0.15472(6)
H25_2 H 0.7942 0.3807 0.1049
H26_2 H 0.1307 0.4558 0.1451
C35_2 C 0.70264(12) 0.47416(9) 0.12816(5)
C36_2 C 0.22416(9) 0.54736(12) 0.12184(5)
H28_2 H 0.6839 0.4440 0.1600
H29_2 H 0.1940 0.5661 0.0900
C37_2 C 0.33485(8) 0.94571(7) 0.11472(4)
C38_2 C 0.66515(8) 0.55429(7) 0.11472(4)
C39_2 C 0.30429(7) 0.58485(8) 0.13528(4)
H30_2 H 0.3803 0.9214 0.1370
H31_2 H 0.6197 0.5786 0.1370
H32_2 H 0.3286 0.6303 0.1130
C40_2 C 0.30695(6) 0.89847(7) 0.06814(4)
C41_2 C 0.69305(6) 0.60153(7) 0.06814(4)
C42_2 C 0.35153(7) 0.55695(6) 0.18186(4)
C43_2 C 0.52427(6) 0.41842(7) 0.02306(4)
C44_2 C 0.66842(7) 0.72573(6) 0.27306(4)
C45_2 C 0.83158(7) 0.77427(6) 0.22694(4)
H33_2 H 0.5103 0.3554 0.0314
H34_2 H 0.6054 0.7397 0.2814
H35_2 H 0.8946 0.7603 0.2186
H36_2 H 0.5830 0.4326 0.0391
H37_2 H 0.6826 0.6670 0.2891
H38_2 H 0.8174 0.8330 0.2109
C46_2 C 0.45410(6) 0.47800(7) 0.04741(4)
C47_2 C 0.72800(7) 0.79590(6) 0.29741(4)
C48_2 C 0.77200(7) 0.70410(6) 0.20259(4)
H40_2 H 0.7890 0.6448 0.2168
H41_2 H 0.7110 0.8552 0.2832
H43_2 H 0.7798 0.7033 0.1628
H44_2 H 0.7202 0.7967 0.3372
C11_2 C 0.47573(6) 0.58158(7) 0.97694(4)
H8_2 H 0.4897 0.6446 0.9686
H9_2 H 0.4170 0.5674 0.9609
C12_2 C 0.54590(6) 0.52200(7) 0.95259(4)
H12_2 H 0.3397 0.7162 0.9971
H13_2 H 0.6603 0.7838 0.9971
C19_2 C 0.25083(7) 0.81249(9) 0.97364(5)
C20_2 C 0.74917(7) 0.68751(9) 0.97364(5)
H15_2 H 0.2332 0.7834 0.9412
H16_2 H 0.7668 0.7166 0.9412
C22_2 C 0.21317(7) 0.89181(9) 0.98687(5)
C23_2 C 0.78683(7) 0.60819(9) 0.98687(5)
H18_2 H 0.1686 0.9170 0.9643
H19_2 H 0.8314 0.5830 0.9643
H39_2 H 0.6052 0.5390 0.9668
H42_2 H 0.5467 0.5298 0.9128
H15_3 H 0.0334 0.0168 0.1912
C22_3 C 0.14181(9) 0.03683(7) 0.23687(5)
H18_3 H 0.1670 0.0814 0.2143
C25_3 C 0.18706(8) 0.00960(7) 0.28436(4)
C28_3 C 0.27100(10) 0.04552(10) 0.29980(6)
H21_3 H 0.2980 0.0897 0.2776
C31_3 C 0.31361(11) 0.01844(12) 0.34528(6)
H24_3 H 0.3693 0.0442 0.3549
Li1_3 Li 0.02403(10) 0.83343(10) 0.41376(6)
C1_3 C 0.15515(6) 0.68654(6) 0.44613(4)
C2_3 C 0.18438(7) 0.72750(7) 0.49297(4)
H1_3 H 0.1603 0.7838 0.5029
C3_3 C 0.24917(7) 0.68751(9) 0.52636(5)
H2_3 H 0.2668 0.7166 0.5588
C4_3 C 0.28683(7) 0.60819(9) 0.51313(5)
H3_3 H 0.3314 0.5830 0.5357
C5_3 C 0.25960(7) 0.56294(8) 0.46564(4)
C6_3 C 0.29552(10) 0.47900(10) 0.45020(6)
H4_3 H 0.3397 0.4520 0.4724
C7_3 C 0.26844(12) 0.43639(11) 0.40472(6)
H5_3 H 0.2942 0.3807 0.3951
C8_3 C 0.20264(12) 0.47416(9) 0.37184(5)
H6_3 H 0.1839 0.4440 0.3400
C9_3 C 0.16515(8) 0.55429(7) 0.38528(4)
H7_3 H 0.1197 0.5786 0.3630
C10_3 C 0.19305(6) 0.60153(7) 0.43186(4)
Li4_2 Li 0.08343(10) 0.72597(10) 0.33624(6)
Li6_3 Li 0.02403(10) 0.33343(10) 0.58624(6)
O4_3 O 0.09312(4) 0.72312(4) 0.41485(2)
O5_3 O 0.02688(4) 0.84312(4) 0.33515(2)
O6_3 O 0.02824(4) 0.93026(4) 0.46540(2)
O8_2 O 0.18026(4) 0.72176(4) 0.28460(2)
O10_3 O 0.02824(4) 0.43026(4) 0.53460(2)
C13_3 C 0.06346(6) 0.90515(6) 0.30387(4)
C16_3 C 0.02250(7) 0.93438(7) 0.25703(4)
H13_3 H 0.0338 0.5897 0.2471
C19_3 C 0.06249(9) 0.99917(7) 0.22364(5)
C34_3 C 0.27584(9) 0.95264(12) 0.37816(5)
H27_3 H 0.3060 0.9339 0.4100
C37_3 C 0.19571(7) 0.91515(8) 0.36472(4)
H30_3 H 0.1714 0.8697 0.3870
C40_3 C 0.14847(7) 0.94305(6) 0.31814(4)
C45_3 C 0.02427(6) 0.41842(7) 0.47694(4)
H35_3 H 0.0103 0.3554 0.4686
H38_3 H 0.0830 0.4326 0.4609
C47_3 C 0.04590(6) 0.52200(7) 0.54741(4)
H41_3 H 0.1052 0.5390 0.5332
H44_3 H 0.0467 0.5298 0.5872
C30_3 C 0.70448(10) 0.02100(10) 0.45020(6)
H23_3 H 0.6603 0.0480 0.4724
C33_3 C 0.73156(12) 0.06361(11) 0.40472(6)
H26_3 H 0.7058 0.1193 0.3951
C36_3 C 0.79736(12) 0.02584(9) 0.37184(5)
H29_3 H 0.8161 0.0560 0.3400
O1_3 O 0.90688(4) 0.77688(4) 0.41485(2)
Li3_3 Li 0.97597(10) 0.66657(10) 0.41376(6)
O3_3 O 0.97312(4) 0.65688(4) 0.33515(2)
O9_3 O 0.97176(4) 0.56974(4) 0.46540(2)
C14_3 C 0.93654(6) 0.59485(6) 0.30387(4)
C15_3 C 0.84485(6) 0.81346(6) 0.44613(4)
C17_3 C 0.97750(7) 0.56562(7) 0.25703(4)
C18_3 C 0.81562(7) 0.77250(7) 0.49297(4)
H12_3 H 0.9662 0.9103 0.2471
H14_3 H 0.8397 0.7162 0.5029
C20_3 C 0.93751(9) 0.50083(7) 0.22364(5)
C21_3 C 0.75083(7) 0.81249(9) 0.52636(5)
H16_3 H 0.9666 0.4832 0.1912
H17_3 H 0.7332 0.7834 0.5588
C23_3 C 0.85819(9) 0.46317(7) 0.23687(5)
C24_3 C 0.71317(7) 0.89181(9) 0.51313(5)
H19_3 H 0.8330 0.4186 0.2143
H20_3 H 0.6686 0.9170 0.5357
C26_3 C 0.81294(8) 0.49040(7) 0.28436(4)
C27_3 C 0.74040(7) 0.93706(8) 0.46564(4)
C29_3 C 0.72900(10) 0.45448(10) 0.29980(6)
H22_3 H 0.7020 0.4103 0.2776
C32_3 C 0.68639(11) 0.48156(12) 0.34528(6)
H25_3 H 0.6307 0.4558 0.3549
C35_3 C 0.72416(9) 0.54736(12) 0.37816(5)
H28_3 H 0.6940 0.5661 0.4100
C38_3 C 0.80429(7) 0.58485(8) 0.36472(4)
C39_3 C 0.83485(8) 0.94571(7) 0.38528(4)
H31_3 H 0.8286 0.6303 0.3870
H32_3 H 0.8803 0.9214 0.3630
C41_3 C 0.85153(7) 0.55695(6) 0.31814(4)
C42_3 C 0.80695(6) 0.89847(7) 0.43186(4)
C44_3 C 0.97573(6) 0.58158(7) 0.52306(4)
H34_3 H 0.9897 0.6446 0.5314
H37_3 H 0.9170 0.5674 0.5391
C48_3 C 0.95410(6) 0.47800(7) 0.45259(4)
H40_3 H 0.8948 0.4610 0.4668
H43_3 H 0.9533 0.4702 0.4128
C1_4 C 0.06346(6) 0.40515(6) 0.69613(4)
C2_4 C 0.02250(7) 0.43438(7) 0.74297(4)
C3_4 C 0.06249(9) 0.49917(7) 0.77636(5)
H2_4 H 0.0334 0.5168 0.8088
C4_4 C 0.14181(9) 0.53683(7) 0.76313(5)
H3_4 H 0.1670 0.5814 0.7857
C5_4 C 0.18706(8) 0.50960(7) 0.71564(4)
C6_4 C 0.27100(10) 0.54552(10) 0.70020(6)
H4_4 H 0.2980 0.5897 0.7224
C7_4 C 0.31361(11) 0.51844(12) 0.65472(6)
H5_4 H 0.3693 0.5442 0.6451
C8_4 C 0.27584(9) 0.45264(12) 0.62184(5)
H6_4 H 0.3060 0.4339 0.5900
C9_4 C 0.19571(7) 0.41515(8) 0.63528(4)
H7_4 H 0.1714 0.3697 0.6130
C10_4 C 0.14847(7) 0.44305(6) 0.68186(4)
C12_3 C 0.04590(6) 0.02200(7) 0.45259(4)
O3_4 O 0.09312(4) 0.22312(4) 0.58515(2)
O4_4 O 0.02688(4) 0.34312(4) 0.66485(2)
C14_4 C 0.15515(6) 0.18654(6) 0.55387(4)
C17_4 C 0.18438(7) 0.22750(7) 0.50703(4)
H13_4 H 0.1603 0.2838 0.4971
H14_4 H 0.0338 0.0897 0.7529
C20_4 C 0.24917(7) 0.18751(9) 0.47364(5)
H16_4 H 0.2668 0.2166 0.4412
C23_4 C 0.28683(7) 0.10819(9) 0.48687(5)
H19_4 H 0.3314 0.0830 0.4643
C26_4 C 0.25960(7) 0.06294(8) 0.53436(4)
C38_4 C 0.16515(8) 0.05429(7) 0.61472(4)
H31_4 H 0.1197 0.0786 0.6370
C41_4 C 0.19305(6) 0.10153(7) 0.56814(4)
H39_3 H 0.1052 0.0390 0.4668
H42_3 H 0.0467 0.0298 0.4128
C29_4 C 0.29552(10) 0.97900(10) 0.54980(6)
H22_4 H 0.3397 0.9520 0.5276
C32_4 C 0.26844(12) 0.93639(11) 0.59528(6)
H25_4 H 0.2942 0.8807 0.6049
C35_4 C 0.20264(12) 0.97416(9) 0.62816(5)
H28_4 H 0.1839 0.9440 0.6600
C43_3 C 0.02427(6) 0.91842(7) 0.52306(4)
H33_3 H 0.0103 0.8554 0.5314
H36_3 H 0.0830 0.9326 0.5391
Li1_4 Li 0.91657(10) 0.27403(10) 0.66376(6)
O1_4 O 0.97312(4) 0.15688(4) 0.66485(2)
O2_3 O 0.97176(4) 0.06974(4) 0.53460(2)
H1_4 H 0.9662 0.4103 0.7529
C11_3 C 0.97573(6) 0.08158(7) 0.47694(4)
H8_3 H 0.9897 0.1446 0.4686
H9_3 H 0.9170 0.0674 0.4609
Li2_3 Li 0.97597(10) 0.16657(10) 0.58624(6)
O5_4 O 0.90688(4) 0.27688(4) 0.58515(2)
O6_4 O 0.81974(4) 0.27824(4) 0.71540(2)
C13_4 C 0.84485(6) 0.31346(6) 0.55387(4)
C15_4 C 0.93654(6) 0.09485(6) 0.69613(4)
C16_4 C 0.81562(7) 0.27250(7) 0.50703(4)
C18_4 C 0.97750(7) 0.06562(7) 0.74297(4)
H12_4 H 0.8397 0.2162 0.4971
C19_4 C 0.75083(7) 0.31249(9) 0.47364(5)
C21_4 C 0.93751(9) 0.00083(7) 0.77636(5)
H15_4 H 0.7332 0.2834 0.4412
C22_4 C 0.71317(7) 0.39181(9) 0.48687(5)
H18_4 H 0.6686 0.4170 0.4643
C25_4 C 0.74040(7) 0.43706(8) 0.53436(4)
C28_4 C 0.70448(10) 0.52100(10) 0.54980(6)
H21_4 H 0.6603 0.5480 0.5276
C31_4 C 0.73156(12) 0.56361(11) 0.59528(6)
H24_4 H 0.7058 0.6193 0.6049
C34_4 C 0.79736(12) 0.52584(9) 0.62816(5)
C36_4 C 0.72416(9) 0.04736(12) 0.62184(5)
H27_4 H 0.8161 0.5560 0.6600
H29_4 H 0.6940 0.0661 0.5900
C37_4 C 0.83485(8) 0.44571(7) 0.61472(4)
C39_4 C 0.80429(7) 0.08485(8) 0.63528(4)
H30_4 H 0.8803 0.4214 0.6370
H32_4 H 0.8286 0.1303 0.6130
C40_4 C 0.80695(6) 0.39847(7) 0.56814(4)
C42_4 C 0.85153(7) 0.05695(6) 0.68186(4)
H10_3 H 0.8948 0.9610 0.5332
H11_3 H 0.9533 0.9702 0.5872
H17_4 H 0.9666 0.9832 0.8088
C24_4 C 0.85819(9) 0.96317(7) 0.76313(5)
H20_4 H 0.8330 0.9186 0.7857
C27_4 C 0.81294(8) 0.99040(7) 0.71564(4)
C30_4 C 0.72900(10) 0.95448(10) 0.70020(6)
H23_4 H 0.7020 0.9103 0.7224
C33_4 C 0.68639(11) 0.98156(12) 0.65472(6)
H26_4 H 0.6307 0.9558 0.6451
C46_3 C 0.95410(6) 0.97800(7) 0.54741(4)
C44_4 C 0.33158(7) 0.77427(6) 0.27306(4)
C45_4 C 0.16842(7) 0.72573(6) 0.22694(4)
H34_4 H 0.3946 0.7603 0.2814
H35_4 H 0.1054 0.7397 0.2186
H37_4 H 0.3174 0.8330 0.2891
H38_4 H 0.1826 0.6670 0.2109
C47_4 C 0.27200(7) 0.70410(6) 0.29741(4)
C48_4 C 0.22800(7) 0.79590(6) 0.20259(4)
H40_4 H 0.2110 0.8552 0.2168
H41_4 H 0.2890 0.6448 0.2832
H43_4 H 0.2202 0.7967 0.1628
H44_4 H 0.2798 0.7033 0.3372
C44_5 C 0.83158(7) 0.27427(6) 0.77306(4)
C45_5 C 0.66842(7) 0.22573(6) 0.72694(4)
H34_5 H 0.8946 0.2603 0.7814
H35_5 H 0.6054 0.2397 0.7186
H37_5 H 0.8174 0.3330 0.7891
H38_5 H 0.6826 0.1670 0.7109
C47_5 C 0.77200(7) 0.20410(6) 0.79741(4)
C48_5 C 0.72800(7) 0.29590(6) 0.70259(4)
H40_5 H 0.7110 0.3552 0.7168
H41_5 H 0.7890 0.1448 0.7832
H43_5 H 0.7202 0.2967 0.6628
H44_5 H 0.7798 0.2033 0.8372
loop_
_geom_bond_atom_site_label_1
_geom_bond_atom_site_label_2
_geom_bond_site_symmetry_1
_geom_bond_site_symmetry_2
H2 C3 1_555 1_555
C4 C3 1_555 1_555
H3 C4 1_555 1_555
H17 C21 1_555 1_555
C24 C21 1_555 1_555
H20 C24 1_555 1_555
H34 C44 1_555 1_555
H37 C44 1_555 1_555
H41 C47 1_555 1_555
H44 C47 1_555 1_555
C44 C47 1_555 1_555
Li1 O1 1_555 1_555
O1 Li2 1_555 1_555
O2 C11 1_555 1_555
C1 C2 1_555 1_555
H7 C9 1_555 1_555
C10 C1 1_555 1_555
C11 H8 1_555 1_555
H9 C11 1_555 1_555
C12 C11 1_555 1_555
H10 C46 1_555 1_555
H11 C46 1_555 1_555
Li2 O2 1_555 1_555
Li3 O1 1_555 1_555
Li4 O3 1_555 1_555
Li5 O7 1_555 1_555
O3 Li2 1_555 1_555
O4 Li1 1_555 1_555
O5 Li1 1_555 1_555
O6 Li1 1_555 1_555
O7 C12 1_555 1_555
O8 Li4 1_555 1_555
O9 Li3 1_555 1_555
C13 O5 1_555 1_555
C14 O3 1_555 1_555
C15 O1 1_555 1_555
C16 C13 1_555 1_555
C17 C14 1_555 1_555
C18 C15 1_555 1_555
H12 C16 1_555 1_555
H13 C17 1_555 1_555
C19 C16 1_555 1_555
C20 C17 1_555 1_555
H15 C19 1_555 1_555
C22 C19 1_555 1_555
H18 C22 1_555 1_555
C25 C22 1_555 1_555
C28 C25 1_555 1_555
C30 C27 1_555 1_555
H21 C28 1_555 1_555
H23 C30 1_555 1_555
C31 C28 1_555 1_555
C33 C30 1_555 1_555
H24 C31 1_555 1_555
H26 C33 1_555 1_555
C34 C31 1_555 1_555
C36 C33 1_555 1_555
H27 C34 1_555 1_555
H28 C35 1_555 1_555
H29 C36 1_555 1_555
C37 C34 1_555 1_555
C38 C35 1_555 1_555
C39 C36 1_555 1_555
H30 C37 1_555 1_555
H31 C38 1_555 1_555
H32 C39 1_555 1_555
C40 C13 1_555 1_555
C41 C14 1_555 1_555
C42 C15 1_555 1_555
C43 O7 1_555 1_555
H33 C43 1_555 1_555
H36 C43 1_555 1_555
C46 O2 1_555 1_555
H39 C12 1_555 1_555
H42 C12 1_555 1_555
C1 O4 1_555 1_555
C5 C10 1_555 1_555
C9 C10 1_555 1_555
Li2 O5 1_555 1_555
Li3 O3 1_555 1_555
Li3 O4 1_555 1_555
Li4 O4 1_555 1_555
Li4 O5 1_555 1_555
C25 C40 1_555 1_555
C27 C42 1_555 1_555
C37 C40 1_555 1_555
C38 C41 1_555 1_555
C39 C42 1_555 1_555
C43 C46 1_555 1_555
Li6 O10 1_555 1_555
H4 C6 1_555 1_555
C7 C6 1_555 1_555
H5 C7 1_555 1_555
C8 C7 1_555 1_555
H6 C8 1_555 1_555
H19 C23 1_555 1_555
C26 C23 1_555 1_555
C29 C26 1_555 1_555
H22 C29 1_555 1_555
C32 C29 1_555 1_555
H25 C32 1_555 1_555
C45 H35 1_555 1_555
H38 C45 1_555 1_555
H40 C48 1_555 1_555
H43 C48 1_555 1_555
C45 C48 1_555 1_555
H3_2 C4_2 1_555 1_555
C5_2 C4_2 1_555 1_555
C6_2 C5_2 1_555 1_555
H4_2 C6_2 1_555 1_555
C7_2 C6_2 1_555 1_555
H5_2 C7_2 1_555 1_555
H21_2 C28_2 1_555 1_555
C31_2 C28_2 1_555 1_555
H24_2 C31_2 1_555 1_555
C34_2 C31_2 1_555 1_555
H27_2 C34_2 1_555 1_555
Li1_2 O1_2 1_555 1_555
O1_2 Li2_2 1_555 1_555
C1_2 C2_2 1_555 1_555
C2_2 H1_2 1_555 1_555
C3_2 C2_2 1_555 1_555
H6_2 C8_2 1_555 1_555
C9_2 C8_2 1_555 1_555
H7_2 C9_2 1_555 1_555
C10_2 C1_2 1_555 1_555
H10_2 C46_2 1_555 1_555
H11_2 C46_2 1_555 1_555
Li2_2 O2_2 1_555 1_555
Li3_2 O1_2 1_555 1_555
Li6 O3_2 1_555 1_555
Li6_2 O10_2 1_555 1_555
O3_2 Li2_2 1_555 1_555
O4_2 Li1_2 1_555 1_555
O5_2 Li1_2 1_555 1_555
O6_2 Li1_2 1_555 1_555
O9_2 Li3_2 1_555 1_555
O10_2 C45_2 1_555 1_555
C13_2 O5_2 1_555 1_555
C14_2 O3_2 1_555 1_555
C15_2 O1_2 1_555 1_555
C16_2 C13_2 1_555 1_555
C17_2 C14_2 1_555 1_555
C18_2 C15_2 1_555 1_555
H14_2 C18_2 1_555 1_555
C21_2 C18_2 1_555 1_555
H17_2 C21_2 1_555 1_555
C24_2 C21_2 1_555 1_555
H20_2 C24_2 1_555 1_555
C27_2 C24_2 1_555 1_555
C29_2 C26_2 1_555 1_555
C30_2 C27_2 1_555 1_555
H22_2 C29_2 1_555 1_555
H23_2 C30_2 1_555 1_555
C32_2 C29_2 1_555 1_555
C33_2 C30_2 1_555 1_555
H25_2 C32_2 1_555 1_555
H26_2 C33_2 1_555 1_555
C35_2 C32_2 1_555 1_555
C36_2 C33_2 1_555 1_555
H28_2 C35_2 1_555 1_555
H29_2 C36_2 1_555 1_555
C38_2 C35_2 1_555 1_555
C39_2 C36_2 1_555 1_555
H30_2 C37_2 1_555 1_555
H31_2 C38_2 1_555 1_555
H32_2 C39_2 1_555 1_555
C40_2 C13_2 1_555 1_555
C41_2 C14_2 1_555 1_555
C42_2 C15_2 1_555 1_555
C44_2 O9_2 1_555 1_555
C45_2 H35_2 1_555 1_555
H33_2 C43_2 1_555 1_555
H34_2 C44_2 1_555 1_555
H36_2 C43_2 1_555 1_555
H37_2 C44_2 1_555 1_555
H38_2 C45_2 1_555 1_555
C46_2 O2_2 1_555 1_555
C47_2 O10_2 1_555 1_555
C48_2 O9_2 1_555 1_555
H40_2 C48_2 1_555 1_555
H41_2 C47_2 1_555 1_555
H43_2 C48_2 1_555 1_555
H44_2 C47_2 1_555 1_555
C1_2 O4_2 1_555 1_555
C9_2 C10_2 1_555 1_555
Li2_2 O5_2 1_555 1_555
Li3_2 O3_2 1_555 1_555
Li3_2 O4_2 1_555 1_555
Li6 O4_2 1_555 1_555
Li6 O5_2 1_555 1_555
C25_2 C40_2 1_555 1_555
C26_2 C41_2 1_555 1_555
C27_2 C42_2 1_555 1_555
C37_2 C40_2 1_555 1_555
C38_2 C41_2 1_555 1_555
C39_2 C42_2 1_555 1_555
C43_2 C46_2 1_555 1_555
C44_2 C47_2 1_555 1_555
C45_2 C48_2 1_555 1_555
C11_2 H8_2 1_555 1_555
H9_2 C11_2 1_555 1_555
C12_2 C11_2 1_555 1_555
O6 C12_2 1_555 1_555
H15_2 C19_2 1_555 1_555
H16_2 C20_2 1_555 1_555
C22_2 C19_2 1_555 1_555
C23_2 C20_2 1_555 1_555
H18_2 C22_2 1_555 1_555
H19_2 C23_2 1_555 1_555
H39_2 C12_2 1_555 1_555
H42_2 C12_2 1_555 1_555
H18_3 C22_3 1_555 1_555
C25_3 C22_3 1_555 1_555
C28_3 C25_3 1_555 1_555
H21_3 C28_3 1_555 1_555
C31_3 C28_3 1_555 1_555
H24_3 C31_3 1_555 1_555
C1_3 C2_3 1_555 1_555
C2_3 H1_3 1_555 1_555
C3_3 C2_3 1_555 1_555
H2_3 C3_3 1_555 1_555
C4_3 C3_3 1_555 1_555
H3_3 C4_3 1_555 1_555
C5_3 C4_3 1_555 1_555
C6_3 C5_3 1_555 1_555
H4_3 C6_3 1_555 1_555
C7_3 C6_3 1_555 1_555
H5_3 C7_3 1_555 1_555
C8_3 C7_3 1_555 1_555
H6_3 C8_3 1_555 1_555
C9_3 C8_3 1_555 1_555
H7_3 C9_3 1_555 1_555
C10_3 C1_3 1_555 1_555
Li6_3 O10_3 1_555 1_555
O4_3 Li1_3 1_555 1_555
O5_3 Li1_3 1_555 1_555
O6_3 Li1_3 1_555 1_555
O8_2 Li4_2 1_555 1_555
O10_3 C45_3 1_555 1_555
C13_3 O5_3 1_555 1_555
C16_3 C13_3 1_555 1_555
C19_3 C16_3 1_555 1_555
H27_3 C34_3 1_555 1_555
C37_3 C34_3 1_555 1_555
H30_3 C37_3 1_555 1_555
C40_3 C13_3 1_555 1_555
C45_3 H35_3 1_555 1_555
H38_3 C45_3 1_555 1_555
C47_3 O10_3 1_555 1_555
H41_3 C47_3 1_555 1_555
H44_3 C47_3 1_555 1_555
C1_3 O4_3 1_555 1_555
C5_3 C10_3 1_555 1_555
C9_3 C10_3 1_555 1_555
Li4_2 O4_3 1_555 1_555
Li4_2 O5_3 1_555 1_555
C37_3 C40_3 1_555 1_555
H23_3 C30_3 1_555 1_555
C33_3 C30_3 1_555 1_555
H26_3 C33_3 1_555 1_555
C36_3 C33_3 1_555 1_555
H29_3 C36_3 1_555 1_555
O1_3 Li6_2 1_555 1_555
Li3_3 O1_3 1_555 1_555
O3_3 Li6_2 1_555 1_555
O9_3 Li3_3 1_555 1_555
C14_3 O3_3 1_555 1_555
C15_3 O1_3 1_555 1_555
C17_3 C14_3 1_555 1_555
C18_3 C15_3 1_555 1_555
H14_3 C18_3 1_555 1_555
C20_3 C17_3 1_555 1_555
C21_3 C18_3 1_555 1_555
H16_3 C20_3 1_555 1_555
H17_3 C21_3 1_555 1_555
C23_3 C20_3 1_555 1_555
C24_3 C21_3 1_555 1_555
H19_3 C23_3 1_555 1_555
H20_3 C24_3 1_555 1_555
C26_3 C23_3 1_555 1_555
C27_3 C24_3 1_555 1_555
C29_3 C26_3 1_555 1_555
H22_3 C29_3 1_555 1_555
C32_3 C29_3 1_555 1_555
H25_3 C32_3 1_555 1_555
C35_3 C32_3 1_555 1_555
H28_3 C35_3 1_555 1_555
C38_3 C35_3 1_555 1_555
H31_3 C38_3 1_555 1_555
H32_3 C39_3 1_555 1_555
C41_3 C14_3 1_555 1_555
C42_3 C15_3 1_555 1_555
C44_3 O9_3 1_555 1_555
H34_3 C44_3 1_555 1_555
H37_3 C44_3 1_555 1_555
C48_3 O9_3 1_555 1_555
H40_3 C48_3 1_555 1_555
H43_3 C48_3 1_555 1_555
Li3_3 O3_3 1_555 1_555
C26_3 C41_3 1_555 1_555
C27_3 C42_3 1_555 1_555
C38_3 C41_3 1_555 1_555
C39_3 C42_3 1_555 1_555
C1_4 C2_4 1_555 1_555
C3_4 C2_4 1_555 1_555
H2_4 C3_4 1_555 1_555
C4_4 C3_4 1_555 1_555
H3_4 C4_4 1_555 1_555
C5_4 C4_4 1_555 1_555
C6_4 C5_4 1_555 1_555
H4_4 C6_4 1_555 1_555
C7_4 C6_4 1_555 1_555
H5_4 C7_4 1_555 1_555
C8_4 C7_4 1_555 1_555
H6_4 C8_4 1_555 1_555
C9_4 C8_4 1_555 1_555
H7_4 C9_4 1_555 1_555
C10_4 C1_4 1_555 1_555
Li6_3 O3_4 1_555 1_555
C14_4 O3_4 1_555 1_555
C17_4 C14_4 1_555 1_555
H13_4 C17_4 1_555 1_555
C20_4 C17_4 1_555 1_555
H16_4 C20_4 1_555 1_555
C23_4 C20_4 1_555 1_555
H19_4 C23_4 1_555 1_555
C26_4 C23_4 1_555 1_555
H31_4 C38_4 1_555 1_555
C41_4 C14_4 1_555 1_555
H39_3 C12_3 1_555 1_555
H42_3 C12_3 1_555 1_555
C1_4 O4_4 1_555 1_555
C5_4 C10_4 1_555 1_555
C9_4 C10_4 1_555 1_555
Li5 O3_4 1_555 1_555
Li5 O4_4 1_555 1_555
Li6_3 O4_4 1_555 1_555
C26_4 C41_4 1_555 1_555
C38_4 C41_4 1_555 1_555
H22_4 C29_4 1_555 1_555
C32_4 C29_4 1_555 1_555
H25_4 C32_4 1_555 1_555
C35_4 C32_4 1_555 1_555
H28_4 C35_4 1_555 1_555
C43_3 O6_3 1_555 1_555
H33_3 C43_3 1_555 1_555
H36_3 C43_3 1_555 1_555
Li1_4 O1_4 1_555 1_555
O1_4 Li2_3 1_555 1_555
O2_3 C11_3 1_555 1_555
C11_3 H8_3 1_555 1_555
H9_3 C11_3 1_555 1_555
Li2_3 O2_3 1_555 1_555
O5_4 Li1_4 1_555 1_555
O6_4 Li1_4 1_555 1_555
C13_4 O5_4 1_555 1_555
C15_4 O1_4 1_555 1_555
C16_4 C13_4 1_555 1_555
C18_4 C15_4 1_555 1_555
H12_4 C16_4 1_555 1_555
C19_4 C16_4 1_555 1_555
C21_4 C18_4 1_555 1_555
H15_4 C19_4 1_555 1_555
C22_4 C19_4 1_555 1_555
H18_4 C22_4 1_555 1_555
C25_4 C22_4 1_555 1_555
C28_4 C25_4 1_555 1_555
H21_4 C28_4 1_555 1_555
C31_4 C28_4 1_555 1_555
H24_4 C31_4 1_555 1_555
C34_4 C31_4 1_555 1_555
H27_4 C34_4 1_555 1_555
H29_4 C36_4 1_555 1_555
C37_4 C34_4 1_555 1_555
C39_4 C36_4 1_555 1_555
H30_4 C37_4 1_555 1_555
H32_4 C39_4 1_555 1_555
C40_4 C13_4 1_555 1_555
C42_4 C15_4 1_555 1_555
Li2_3 O5_4 1_555 1_555
C25_4 C40_4 1_555 1_555
C37_4 C40_4 1_555 1_555
C39_4 C42_4 1_555 1_555
H10_3 C46_3 1_555 1_555
H11_3 C46_3 1_555 1_555
H20_4 C24_4 1_555 1_555
C27_4 C24_4 1_555 1_555
C30_4 C27_4 1_555 1_555
H23_4 C30_4 1_555 1_555
C33_4 C30_4 1_555 1_555
H26_4 C33_4 1_555 1_555
O8_2 C45_4 1_555 1_555
C44_4 O6_2 1_555 1_555
C45_4 H35_4 1_555 1_555
H34_4 C44_4 1_555 1_555
H37_4 C44_4 1_555 1_555
H38_4 C45_4 1_555 1_555
C47_4 O8_2 1_555 1_555
C48_4 O6_2 1_555 1_555
H40_4 C48_4 1_555 1_555
H41_4 C47_4 1_555 1_555
H43_4 C48_4 1_555 1_555
H44_4 C47_4 1_555 1_555
C44_4 C47_4 1_555 1_555
C45_4 C48_4 1_555 1_555
O8 C45_5 1_555 1_555
C44_5 O6_4 1_555 1_555
C45_5 H35_5 1_555 1_555
H34_5 C44_5 1_555 1_555
H37_5 C44_5 1_555 1_555
H38_5 C45_5 1_555 1_555
C47_5 O8 1_555 1_555
C48_5 O6_4 1_555 1_555
H40_5 C48_5 1_555 1_555
H41_5 C47_5 1_555 1_555
H43_5 C48_5 1_555 1_555
H44_5 C47_5 1_555 1_555
C44_5 C47_5 1_555 1_555
C45_5 C48_5 1_555 1_555

#END
