
###############################################################################
#
# This file contains modified crystal structure data generated from the
# MOF subset of the Cambridge Structural Database (CSD) v543 
# hosted by the Cambridge Crystallographic Data Centre (CCDC).
#
# This work is licensed under the Creative Commons
# Attribution-NonCommercial-ShareAlike 4.0 International License.
# To view a copy of this license, visit
# http://creativecommons.org/licenses/by-nc-sa/4.0/
# or send a letter to
# Creative Commons, PO Box 1866, Mountain View, CA 94042, USA.
#
# CIF created using the CSD Python API on 29 September 2022
# The structure has been converted into the P1 space group
# The structure has a 3D framework
# The original CSD entry FERCOX is in the monoclinic crystal system
# The framework has been calculated to contain at least 10.0% void space
# The void calculation uses a probe of radius 1.32A, grid spacing 0.4
#
###############################################################################

data_FERCOX
_chemical_formula_moiety         '(C180 H120 N24 O64 Zn16)n'
_symmetry_cell_setting           triclinic
_symmetry_space_group_name_H-M   'P 1'
_symmetry_Int_Tables_number      1
_space_group_name_Hall           'P 1'
loop_
_symmetry_equiv_pos_site_id
_symmetry_equiv_pos_as_xyz
1 x,y,z
_cell_length_a                   18.6280(12)
_cell_length_b                   26.2694(18)
_cell_length_c                   19.2096(13)
_cell_angle_alpha                90
_cell_angle_beta                 98.030(2)
_cell_angle_gamma                90
_cell_volume                     9307.98
loop_
_atom_site_label
_atom_site_type_symbol
_atom_site_fract_x
_atom_site_fract_y
_atom_site_fract_z
Zn8 Zn 0.23293(5) 0.33602(3) 0.03560(5)
O4 O 0.2103(3) 0.3487(2) 0.1297(3)
O5 O 0.2071(3) 0.2715(2) 0.1784(3)
N2 N 0.0082(4) 0.4015(3) 0.3581(4)
H2 H 0.009499 0.385559 0.398565
C9 C 0.0506(4) 0.3811(3) 0.3096(4)
C10 C 0.0641(5) 0.4075(4) 0.2508(5)
H7 H 0.043868 0.440396 0.240980
C11 C 0.1079(4) 0.3852(3) 0.2059(5)
H8 H 0.116268 0.402934 0.164700
C12 C 0.1393(4) 0.3383(3) 0.2198(5)
C13 C 0.1264(4) 0.3125(3) 0.2819(4)
H9 H 0.147535 0.280088 0.293305
C14 C 0.0830(4) 0.3350(3) 0.3252(5)
H10 H 0.075322 0.318079 0.367283
C15 C 0.1883(4) 0.3171(3) 0.1725(4)
Zn5 Zn 0.27244(5) 0.23577(3) 0.12257(5)
Zn6 Zn 0.37411(5) 0.28204(3) 0.01753(5)
O2 O 0.2239(3) 0.1708(2) 0.1037(3)
O6 O 0.2745(3) 0.26918(18) 0.0322(3)
C1 C 0.1958(4) 0.1469(3) 0.0494(5)
C2 C 0.1675(4) 0.0951(3) 0.0600(4)
C3 C 0.1676(5) 0.0775(3) 0.1295(5)
H3 H 0.189838 0.097306 0.167947
C4 C 0.1357(5) 0.0321(3) 0.1416(5)
H4 H 0.136658 0.020081 0.188408
C5 C 0.1012(5) 0.0028(3) 0.0842(5)
C6 C 0.1034(5) 0.0195(3) 0.0155(5)
C7 C 0.1342(5) 0.0662(3) 0.0042(5)
O7 O 0.7680(3) 0.2257(3) 0.2907(5)
O10 O 0.4364(3) 0.2580(2) 0.0986(3)
O11 O 0.3684(3) 0.2207(2) 0.1714(3)
N3 N 0.8047(4) 0.1624(3) 0.3664(5)
H11 H 0.788000 0.137180 0.389757
N4 N 0.6865(4) 0.1684(3) 0.3229(5)
H12 H 0.681628 0.143837 0.353063
C18 C 0.9907(4) 0.2131(3) 0.3600(5)
C19 C 0.9160(5) 0.2050(4) 0.3416(5)
H14 H 0.890083 0.222823 0.302929
C20 C 0.8806(5) 0.1717(4) 0.3792(6)
C21 C 0.9190(5) 0.1424(4) 0.4336(5)
H15 H 0.894875 0.118215 0.458844
C22 C 0.9922(5) 0.1501(4) 0.4487(6)
C23 C 0.7556(5) 0.1890(4) 0.3213(7)
C24 C 0.6233(5) 0.1855(4) 0.2775(7)
C25 C 0.6251(5) 0.2127(4) 0.2171(6)
H17 H 0.670510 0.221604 0.203250
C26 C 0.5623(5) 0.2271(4) 0.1763(6)
H18 H 0.564497 0.246618 0.134934
C27 C 0.4952(4) 0.2136(3) 0.1948(5)
C28 C 0.4928(5) 0.1854(4) 0.2552(5)
H19 H 0.447491 0.175987 0.268686
C29 C 0.5574(5) 0.1707(4) 0.2963(6)
H20 H 0.556066 0.150568 0.337145
C30 C 0.4267(4) 0.2314(3) 0.1517(5)
O16 O 0.2925(3) 0.3917(2) 0.0130(3)
O8 O 0.1361(3) 0.2665(2) 0.9170(3)
O9 O 0.1387(3) 0.3375(2) 0.9794(4)
C16 C 0.1070(4) 0.3050(3) 0.9375(5)
C17 C 0.0281(5) 0.3152(3) 0.9134(5)
H13 H 0.015098 0.262140 0.835892
H16 H 0.018974 0.369450 0.985068
Zn10 Zn 0.22461(5) 0.22931(3) 0.95466(5)
O8_2 O 0.8639(3) 0.7665(2) 0.5830(3)
O9_2 O 0.8613(3) 0.8375(2) 0.5206(4)
C16_2 C 0.8930(4) 0.8050(3) 0.5625(5)
C17_2 C 0.9719(5) 0.8152(3) 0.5866(5)
H13_2 H 0.984902 0.762140 0.664108
H16_2 H 0.981026 0.869450 0.514932
Zn8_2 Zn 0.76707(5) 0.83602(3) 0.46440(5)
Zn10_2 Zn 0.77539(5) 0.72931(3) 0.54534(5)
O12 O 0.4441(3) 0.0646(2) 0.6437(3)
O13 O 0.2873(3) 0.2126(2) 0.8847(3)
O14 O 0.3927(3) 0.2448(2) 0.9357(3)
N5 N 0.5114(4) 0.1353(3) 0.6844(4)
H21 H 0.557463 0.136808 0.702526
N6 N 0.5596(4) 0.0768(3) 0.6175(4)
H22 H 0.592118 0.100969 0.616676
C31 C 0.3539(4) 0.2199(3) 0.8889(4)
C32 C 0.3924(4) 0.1969(3) 0.8334(4)
C33 C 0.3560(4) 0.1696(3) 0.7763(5)
H23 H 0.304892 0.165626 0.772380
C34 C 0.3924(4) 0.1485(3) 0.7262(5)
H24 H 0.367103 0.130221 0.687628
C35 C 0.4682(5) 0.1545(3) 0.7333(5)
C36 C 0.5045(5) 0.1823(4) 0.7895(5)
H25 H 0.555490 0.186874 0.793762
C37 C 0.4667(5) 0.2027(4) 0.8378(5)
H26 H 0.491799 0.221538 0.875885
C38 C 0.4980(4) 0.0890(3) 0.6477(5)
C39 C 0.5749(5) 0.0296(3) 0.5881(5)
C44 C 0.6400(5) 0.0263(3) 0.5622(6)
H30 H 0.669960 0.055627 0.562650
Zn1 Zn 0.72756(5) 0.73577(3) 0.37743(5)
Zn2 Zn 0.62589(5) 0.78204(3) 0.48247(5)
O1 O 0.9537(4) 0.4665(3) 0.2911(4)
O2_2 O 0.7761(3) 0.6708(2) 0.3963(3)
O3 O 0.8097(3) 0.6640(2) 0.5127(3)
O6_2 O 0.7255(3) 0.76918(18) 0.4678(3)
N1 N 0.9354(4) 0.4571(3) 0.4065(4)
H1 H 0.939385 0.435112 0.441448
C1_2 C 0.8042(4) 0.6469(3) 0.4506(5)
C2_2 C 0.8325(4) 0.5951(3) 0.4400(4)
C3_2 C 0.8324(5) 0.5775(3) 0.3705(5)
H3_2 H 0.810162 0.597306 0.332053
C4_2 C 0.8643(5) 0.5321(3) 0.3584(5)
H4_2 H 0.863342 0.520081 0.311592
C5_2 C 0.8988(5) 0.5028(3) 0.4158(5)
C6_2 C 0.8966(5) 0.5195(3) 0.4845(5)
H5 H 0.916212 0.499023 0.523272
C7_2 C 0.8658(5) 0.5662(3) 0.4958(5)
H6 H 0.867338 0.578546 0.542462
C8 C 0.9654(5) 0.4435(3) 0.3480(5)
O7_2 O 0.2320(3) 0.7257(3) 0.2093(5)
O10_2 O 0.5636(3) 0.7580(2) 0.4014(3)
O11_2 O 0.6316(3) 0.7207(2) 0.3286(3)
N3_2 N 0.1953(4) 0.6624(3) 0.1336(5)
H11_2 H 0.212000 0.637180 0.110243
N4_2 N 0.3135(4) 0.6684(3) 0.1771(5)
H12_2 H 0.318372 0.643837 0.146937
C18_2 C 0.0093(4) 0.7131(3) 0.1400(5)
C19_2 C 0.0840(5) 0.7050(4) 0.1584(5)
H14_2 H 0.109917 0.722823 0.197071
C20_2 C 0.1194(5) 0.6717(4) 0.1208(6)
C21_2 C 0.0810(5) 0.6424(4) 0.0664(5)
H15_2 H 0.105125 0.618215 0.041156
C22_2 C 0.0078(5) 0.6501(4) 0.0513(6)
C23_2 C 0.2444(5) 0.6890(4) 0.1787(7)
C24_2 C 0.3767(5) 0.6855(4) 0.2225(7)
C25_2 C 0.3749(5) 0.7127(4) 0.2829(6)
H17_2 H 0.329490 0.721604 0.296750
C26_2 C 0.4377(5) 0.7271(4) 0.3237(6)
H18_2 H 0.435503 0.746618 0.365066
C27_2 C 0.5048(4) 0.7136(3) 0.3052(5)
C28_2 C 0.5072(5) 0.6854(4) 0.2448(5)
H19_2 H 0.552509 0.675987 0.231314
C29_2 C 0.4426(5) 0.6707(4) 0.2037(6)
H20_2 H 0.443934 0.650568 0.162855
C30_2 C 0.5733(4) 0.7314(3) 0.3483(5)
O15 O 0.6032(3) 0.8526(2) 0.5024(3)
O16_2 O 0.7075(3) 0.8917(2) 0.4870(3)
C40 C 0.5307(5) 0.9863(4) 0.5849(5)
H27 H 0.484524 0.988212 0.600442
C41 C 0.5528(4) 0.9422(3) 0.5599(5)
H28 H 0.522974 0.912890 0.559476
C42 C 0.6195(4) 0.9390(3) 0.5346(5)
C43 C 0.6625(5) 0.9809(4) 0.5355(6)
H29 H 0.707595 0.979015 0.517923
C45 C 0.6447(5) 0.8908(3) 0.5054(5)
O17 O 0.7897(3) 0.8487(2) 0.3703(3)
O18 O 0.7929(3) 0.7715(2) 0.3216(3)
O21 O 0.7127(3) 0.7126(2) 0.6153(3)
O22 O 0.6073(3) 0.7448(2) 0.5643(3)
O3_2 O 0.1903(3) 0.1640(2) 0.9873(3)
H6_2 H 0.132662 0.078546 0.957538
O12_2 O 0.5559(3) 0.5646(2) 0.8563(3)
O15_2 O 0.3968(3) 0.3526(2) 0.9976(3)
N5_2 N 0.4886(4) 0.6353(3) 0.8156(4)
H21_2 H 0.442537 0.636808 0.797474
N6_2 N 0.4404(4) 0.5768(3) 0.8825(4)
H22_2 H 0.407882 0.600969 0.883324
C31_2 C 0.6461(4) 0.7199(3) 0.6111(4)
C32_2 C 0.6076(4) 0.6969(3) 0.6666(4)
C33_2 C 0.6440(4) 0.6696(3) 0.7237(5)
H23_2 H 0.695108 0.665626 0.727620
C34_2 C 0.6076(4) 0.6485(3) 0.7738(5)
H24_2 H 0.632897 0.630221 0.812372
C35_2 C 0.5318(5) 0.6545(3) 0.7667(5)
C36_2 C 0.4955(5) 0.6823(4) 0.7105(5)
H25_2 H 0.444510 0.686874 0.706238
C37_2 C 0.5333(5) 0.7027(4) 0.6622(5)
H26_2 H 0.508201 0.721538 0.624115
C38_2 C 0.5020(4) 0.5890(3) 0.8523(5)
C39_2 C 0.4251(5) 0.5296(3) 0.9119(5)
C40_2 C 0.4693(5) 0.4863(4) 0.9151(5)
H27_2 H 0.515476 0.488212 0.899558
C41_2 C 0.4472(4) 0.4422(3) 0.9401(5)
H28_2 H 0.477026 0.412890 0.940524
C42_2 C 0.3805(4) 0.4390(3) 0.9654(5)
C43_2 C 0.3375(5) 0.4809(4) 0.9645(6)
H29_2 H 0.292405 0.479015 0.982077
C44_2 C 0.3600(5) 0.5263(3) 0.9378(6)
H30_2 H 0.330040 0.555627 0.937350
C45_2 C 0.3553(5) 0.3908(3) 0.9946(5)
N2_2 N 0.9918(4) 0.9015(3) 0.1419(4)
H2_2 H 0.990501 0.885559 0.101435
C9_2 C 0.9494(4) 0.8811(3) 0.1904(4)
C10_2 C 0.9359(5) 0.9075(4) 0.2492(5)
H7_2 H 0.956132 0.940396 0.259020
C11_2 C 0.8921(4) 0.8852(3) 0.2941(5)
H8_2 H 0.883732 0.902934 0.335300
C12_2 C 0.8607(4) 0.8383(3) 0.2802(5)
C13_2 C 0.8736(4) 0.8125(3) 0.2181(4)
H9_2 H 0.852465 0.780088 0.206695
C14_2 C 0.9170(4) 0.8350(3) 0.1748(5)
H10_2 H 0.924678 0.818079 0.132717
C15_2 C 0.8117(4) 0.8171(3) 0.3275(4)
Zn1_2 Zn 0.27244(5) 0.26423(3) 0.62257(5)
Zn2_2 Zn 0.37411(5) 0.21796(3) 0.51753(5)
Zn3 Zn 0.23293(5) 0.16398(3) 0.53560(5)
Zn4 Zn 0.22461(5) 0.27069(3) 0.45466(5)
O1_2 O 0.0463(4) 0.5335(3) 0.7089(4)
O2_3 O 0.2239(3) 0.3292(2) 0.6037(3)
O3_3 O 0.1903(3) 0.3360(2) 0.4873(3)
O6_3 O 0.2745(3) 0.23082(18) 0.5322(3)
N1_2 N 0.0646(4) 0.5429(3) 0.5935(4)
H1_2 H 0.060615 0.564888 0.558552
C1_3 C 0.1958(4) 0.3531(3) 0.5494(5)
C2_3 C 0.1675(4) 0.4049(3) 0.5600(4)
C3_3 C 0.1676(5) 0.4225(3) 0.6295(5)
H3_3 H 0.189838 0.402694 0.667947
C4_3 C 0.1357(5) 0.4679(3) 0.6416(5)
H4_3 H 0.136658 0.479919 0.688408
C5_3 C 0.1012(5) 0.4972(3) 0.5842(5)
C6_3 C 0.1034(5) 0.4805(3) 0.5155(5)
H5_2 H 0.083788 0.500977 0.476728
C7_3 C 0.1342(5) 0.4338(3) 0.5042(5)
H6_3 H 0.132662 0.421454 0.457538
C8_2 C 0.0346(5) 0.5565(3) 0.6520(5)
O7_3 O 0.7680(3) 0.2743(3) 0.7907(5)
O10_3 O 0.4364(3) 0.2420(2) 0.5986(3)
O11_3 O 0.3684(3) 0.2793(2) 0.6714(3)
N3_3 N 0.8047(4) 0.3376(3) 0.8664(5)
H11_3 H 0.788000 0.362820 0.889757
N4_3 N 0.6865(4) 0.3316(3) 0.8229(5)
H12_3 H 0.681628 0.356163 0.853063
C18_3 C 0.9907(4) 0.2869(3) 0.8600(5)
C19_3 C 0.9160(5) 0.2950(4) 0.8416(5)
H14_3 H 0.890083 0.277177 0.802929
C20_3 C 0.8806(5) 0.3283(4) 0.8792(6)
C21_3 C 0.9190(5) 0.3576(4) 0.9336(5)
H15_3 H 0.894875 0.381785 0.958844
C22_3 C 0.9922(5) 0.3499(4) 0.9487(6)
C23_3 C 0.7556(5) 0.3110(4) 0.8213(7)
C24_3 C 0.6233(5) 0.3145(4) 0.7775(7)
C25_3 C 0.6251(5) 0.2873(4) 0.7171(6)
H17_3 H 0.670510 0.278396 0.703250
C26_3 C 0.5623(5) 0.2729(4) 0.6763(6)
H18_3 H 0.564497 0.253382 0.634934
C27_3 C 0.4952(4) 0.2864(3) 0.6948(5)
C28_3 C 0.4928(5) 0.3146(4) 0.7552(5)
H19_3 H 0.447491 0.324013 0.768686
C29_3 C 0.5574(5) 0.3293(4) 0.7963(6)
H20_3 H 0.556066 0.349432 0.837145
C30_3 C 0.4267(4) 0.2686(3) 0.6517(5)
O15_3 O 0.3968(3) 0.1474(2) 0.4976(3)
O16_3 O 0.2925(3) 0.1083(2) 0.5130(3)
C40_3 C 0.4693(5) 0.0137(4) 0.4151(5)
H27_3 H 0.515476 0.011788 0.399558
C41_3 C 0.4472(4) 0.0578(3) 0.4401(5)
H28_3 H 0.477026 0.087110 0.440524
C42_3 C 0.3805(4) 0.0610(3) 0.4654(5)
C43_3 C 0.3375(5) 0.0191(4) 0.4645(6)
H29_3 H 0.292405 0.020985 0.482077
C45_3 C 0.3553(5) 0.1092(3) 0.4946(5)
O17_2 O 0.2103(3) 0.1513(2) 0.6297(3)
O18_2 O 0.2071(3) 0.2285(2) 0.6784(3)
O19 O 0.1361(3) 0.2335(2) 0.4170(3)
O20 O 0.1387(3) 0.1625(2) 0.4794(4)
O21_2 O 0.2873(3) 0.2874(2) 0.3847(3)
O22_2 O 0.3927(3) 0.2552(2) 0.4357(3)
O12_3 O 0.5559(3) 0.9354(2) 0.3563(3)
O13_2 O 0.7127(3) 0.7874(2) 0.1153(3)
O14_2 O 0.6073(3) 0.7552(2) 0.0643(3)
N5_3 N 0.4886(4) 0.8647(3) 0.3156(4)
H21_3 H 0.442537 0.863192 0.297474
N6_3 N 0.4404(4) 0.9232(3) 0.3825(4)
H22_3 H 0.407882 0.899031 0.383324
C31_3 C 0.6461(4) 0.7801(3) 0.1111(4)
C32_3 C 0.6076(4) 0.8031(3) 0.1666(4)
C33_3 C 0.6440(4) 0.8304(3) 0.2237(5)
H23_3 H 0.695108 0.834374 0.227620
C34_3 C 0.6076(4) 0.8515(3) 0.2738(5)
H24_3 H 0.632897 0.869779 0.312372
C35_3 C 0.5318(5) 0.8455(3) 0.2667(5)
C36_3 C 0.4955(5) 0.8177(4) 0.2105(5)
H25_3 H 0.444510 0.813126 0.206238
C37_3 C 0.5333(5) 0.7973(4) 0.1622(5)
H26_3 H 0.508201 0.778462 0.124115
C38_3 C 0.5020(4) 0.9110(3) 0.3523(5)
C39_3 C 0.4251(5) 0.9704(3) 0.4119(5)
C44_3 C 0.3600(5) 0.9737(3) 0.4378(6)
H30_3 H 0.330040 0.944373 0.437350
Zn9 Zn 0.77539(5) 0.77069(3) 0.04534(5)
N2_3 N 0.0082(4) 0.0985(3) 0.8581(4)
H2_3 H 0.009499 0.114441 0.898565
C9_3 C 0.0506(4) 0.1189(3) 0.8096(4)
C10_3 C 0.0641(5) 0.0925(4) 0.7508(5)
H7_3 H 0.043868 0.059604 0.740980
C11_3 C 0.1079(4) 0.1148(3) 0.7059(5)
H8_3 H 0.116268 0.097066 0.664700
C12_3 C 0.1393(4) 0.1617(3) 0.7198(5)
C13_3 C 0.1264(4) 0.1875(3) 0.7819(4)
H9_3 H 0.147535 0.219912 0.793305
C14_3 C 0.0830(4) 0.1650(3) 0.8252(5)
H10_3 H 0.075322 0.181921 0.867283
C15_3 C 0.1883(4) 0.1829(3) 0.6725(4)
O3_4 O 0.8097(3) 0.8360(2) 0.0127(3)
H6_4 H 0.867338 0.921454 0.042462
O12_4 O 0.4441(3) 0.4354(2) 0.1437(3)
O15_4 O 0.6032(3) 0.6474(2) 0.0024(3)
N5_4 N 0.5114(4) 0.3647(3) 0.1844(4)
H21_4 H 0.557463 0.363192 0.202526
N6_4 N 0.5596(4) 0.4232(3) 0.1175(4)
H22_4 H 0.592118 0.399031 0.116676
C31_4 C 0.3539(4) 0.2801(3) 0.3889(4)
C32_4 C 0.3924(4) 0.3031(3) 0.3334(4)
C33_4 C 0.3560(4) 0.3304(3) 0.2763(5)
H23_4 H 0.304892 0.334374 0.272380
C34_4 C 0.3924(4) 0.3515(3) 0.2262(5)
H24_4 H 0.367103 0.369779 0.187628
C35_4 C 0.4682(5) 0.3455(3) 0.2333(5)
C36_4 C 0.5045(5) 0.3177(4) 0.2895(5)
H25_4 H 0.555490 0.313126 0.293762
C37_4 C 0.4667(5) 0.2973(4) 0.3378(5)
H26_4 H 0.491799 0.278462 0.375885
C38_4 C 0.4980(4) 0.4110(3) 0.1477(5)
C39_4 C 0.5749(5) 0.4704(3) 0.0881(5)
C40_4 C 0.5307(5) 0.5137(4) 0.0849(5)
H27_4 H 0.484524 0.511788 0.100442
C41_4 C 0.5528(4) 0.5578(3) 0.0599(5)
H28_4 H 0.522974 0.587110 0.059476
C42_4 C 0.6195(4) 0.5610(3) 0.0346(5)
C43_4 C 0.6625(5) 0.5191(4) 0.0355(6)
H29_4 H 0.707595 0.520985 0.017923
C44_4 C 0.6400(5) 0.4737(3) 0.0622(6)
H30_4 H 0.669960 0.444373 0.062650
C45_4 C 0.6447(5) 0.6092(3) 0.0054(5)
O19_2 O 0.8639(3) 0.7335(2) 0.0830(3)
O20_2 O 0.8613(3) 0.6625(2) 0.0206(4)
C16_3 C 0.8930(4) 0.6950(3) 0.0625(5)
C17_3 C 0.9719(5) 0.6848(3) 0.0866(5)
H13_3 H 0.984902 0.737860 0.164108
H16_3 H 0.981026 0.630550 0.014932
C16_4 C 0.1070(4) 0.1950(3) 0.4375(5)
C17_4 C 0.0281(5) 0.1848(3) 0.4134(5)
H13_4 H 0.015098 0.237860 0.335892
H16_4 H 0.018974 0.130550 0.485068
Zn6_2 Zn 0.62589(5) 0.71796(3) 0.98247(5)
O4_2 O 0.7897(3) 0.6513(2) 0.8703(3)
O5_2 O 0.7929(3) 0.7285(2) 0.8216(3)
N2_4 N 0.9918(4) 0.5985(3) 0.6419(4)
H2_4 H 0.990501 0.614441 0.601435
C9_4 C 0.9494(4) 0.6189(3) 0.6904(4)
C10_4 C 0.9359(5) 0.5925(4) 0.7492(5)
H7_4 H 0.956132 0.559604 0.759020
C11_4 C 0.8921(4) 0.6148(3) 0.7941(5)
H8_4 H 0.883732 0.597066 0.835300
C12_4 C 0.8607(4) 0.6617(3) 0.7802(5)
C13_4 C 0.8736(4) 0.6875(3) 0.7181(4)
H9_4 H 0.852465 0.719912 0.706695
C14_4 C 0.9170(4) 0.6650(3) 0.6748(5)
H10_4 H 0.924678 0.681921 0.632717
C15_4 C 0.8117(4) 0.6829(3) 0.8275(4)
Zn5_2 Zn 0.72756(5) 0.76423(3) 0.87743(5)
Zn7 Zn 0.76707(5) 0.66398(3) 0.96440(5)
O2_4 O 0.7761(3) 0.8292(2) 0.8963(3)
O6_4 O 0.7255(3) 0.73082(18) 0.9678(3)
C1_4 C 0.8042(4) 0.8531(3) 0.9506(5)
C2_4 C 0.8325(4) 0.9049(3) 0.9400(4)
C3_4 C 0.8324(5) 0.9225(3) 0.8705(5)
H3_4 H 0.810162 0.902694 0.832053
C4_4 C 0.8643(5) 0.9679(3) 0.8584(5)
H4_4 H 0.863342 0.979919 0.811592
C5_4 C 0.8988(5) 0.9972(3) 0.9158(5)
C6_4 C 0.8966(5) 0.9805(3) 0.9845(5)
C7_4 C 0.8658(5) 0.9338(3) 0.9958(5)
O7_4 O 0.2320(3) 0.7743(3) 0.7093(5)
O10_4 O 0.5636(3) 0.7420(2) 0.9014(3)
O11_4 O 0.6316(3) 0.7793(2) 0.8286(3)
N3_4 N 0.1953(4) 0.8376(3) 0.6336(5)
H11_4 H 0.212000 0.862820 0.610243
N4_4 N 0.3135(4) 0.8316(3) 0.6771(5)
H12_4 H 0.318372 0.856163 0.646937
C18_4 C 0.0093(4) 0.7869(3) 0.6400(5)
C19_4 C 0.0840(5) 0.7950(4) 0.6584(5)
H14_4 H 0.109917 0.777177 0.697071
C20_4 C 0.1194(5) 0.8283(4) 0.6208(6)
C21_4 C 0.0810(5) 0.8576(4) 0.5664(5)
H15_4 H 0.105125 0.881785 0.541156
C22_4 C 0.0078(5) 0.8499(4) 0.5513(6)
C23_4 C 0.2444(5) 0.8110(4) 0.6787(7)
C24_4 C 0.3767(5) 0.8145(4) 0.7225(7)
C25_4 C 0.3749(5) 0.7873(4) 0.7829(6)
H17_4 H 0.329490 0.778396 0.796750
C26_4 C 0.4377(5) 0.7729(4) 0.8237(6)
H18_4 H 0.435503 0.753382 0.865066
C27_4 C 0.5048(4) 0.7864(3) 0.8052(5)
C28_4 C 0.5072(5) 0.8146(4) 0.7448(5)
H19_4 H 0.552509 0.824013 0.731314
C29_4 C 0.4426(5) 0.8293(4) 0.7037(6)
H20_4 H 0.443934 0.849432 0.662855
C30_4 C 0.5733(4) 0.7686(3) 0.8483(5)
O16_4 O 0.7075(3) 0.6083(2) 0.9870(3)
H5_3 H 0.916212 0.000977 0.023272
O1_3 O 0.9537(4) 0.0335(3) 0.7911(4)
N1_3 N 0.9354(4) 0.0429(3) 0.9065(4)
H1_3 H 0.939385 0.064888 0.941448
C8_3 C 0.9654(5) 0.0565(3) 0.8480(5)
O1_4 O 0.0463(4) 0.9665(3) 0.2089(4)
N1_4 N 0.0646(4) 0.9571(3) 0.0935(4)
H1_4 H 0.060615 0.935112 0.058552
C8_4 C 0.0346(5) 0.9435(3) 0.1520(5)
H5_4 H 0.083788 0.999023 0.976728
loop_
_geom_bond_atom_site_label_1
_geom_bond_atom_site_label_2
_geom_bond_site_symmetry_1
_geom_bond_site_symmetry_2
O4 C15 1_555 1_555
O5 C15 1_555 1_555
N2 H2 1_555 1_555
C9 N2 1_555 1_555
C10 C9 1_555 1_555
H7 C10 1_555 1_555
C11 C10 1_555 1_555
H8 C11 1_555 1_555
C12 C11 1_555 1_555
C13 C12 1_555 1_555
H9 C13 1_555 1_555
C14 C9 1_555 1_555
H10 C14 1_555 1_555
C15 C12 1_555 1_555
Zn5 O5 1_555 1_555
Zn8 O4 1_555 1_555
C13 C14 1_555 1_555
Zn5 O2 1_555 1_555
Zn6 O6 1_555 1_555
Zn8 O6 1_555 1_555
O2 C1 1_555 1_555
O6 Zn5 1_555 1_555
C1 C2 1_555 1_555
C2 C3 1_555 1_555
C3 H3 1_555 1_555
C4 C3 1_555 1_555
H4 C4 1_555 1_555
C6 C5 1_555 1_555
C7 C2 1_555 1_555
O7 C23 1_555 1_555
O10 Zn6 1_555 1_555
O11 Zn5 1_555 1_555
N3 H11 1_555 1_555
N4 H12 1_555 1_555
C19 C18 1_555 1_555
H14 C19 1_555 1_555
C20 N3 1_555 1_555
C21 C20 1_555 1_555
H15 C21 1_555 1_555
C23 N3 1_555 1_555
C24 N4 1_555 1_555
C25 C24 1_555 1_555
H17 C25 1_555 1_555
C26 C25 1_555 1_555
H18 C26 1_555 1_555
C27 C26 1_555 1_555
C28 C27 1_555 1_555
H19 C28 1_555 1_555
C29 C24 1_555 1_555
H20 C29 1_555 1_555
C30 O10 1_555 1_555
O16 Zn8 1_555 1_555
C4 C5 1_555 1_555
C6 C7 1_555 1_555
O11 C30 1_555 1_555
N4 C23 1_555 1_555
C19 C20 1_555 1_555
C21 C22 1_555 1_555
C27 C30 1_555 1_555
C28 C29 1_555 1_555
O8 C16 1_555 1_555
O9 C16 1_555 1_555
C16 C17 1_555 1_555
Zn10 O8 1_555 1_555
O8_2 C16_2 1_555 1_555
O9_2 C16_2 1_555 1_555
C16_2 C17_2 1_555 1_555
Zn8_2 O9_2 1_555 1_555
Zn10_2 O8_2 1_555 1_555
O12 C38 1_555 1_555
O13 C31 1_555 1_555
O14 C31 1_555 1_555
N5 H21 1_555 1_555
N6 H22 1_555 1_555
C31 C32 1_555 1_555
C32 C33 1_555 1_555
C33 H23 1_555 1_555
C34 C33 1_555 1_555
H24 C34 1_555 1_555
C35 N5 1_555 1_555
C36 C35 1_555 1_555
H25 C36 1_555 1_555
C37 C32 1_555 1_555
H26 C37 1_555 1_555
C38 N5 1_555 1_555
C39 N6 1_555 1_555
C44 C39 1_555 1_555
H30 C44 1_555 1_555
Zn10 O13 1_555 1_555
N6 C38 1_555 1_555
C34 C35 1_555 1_555
C36 C37 1_555 1_555
Zn1 O2_2 1_555 1_555
Zn2 O6_2 1_555 1_555
Zn8_2 O6_2 1_555 1_555
Zn10_2 O3 1_555 1_555
O1 C8 1_555 1_555
O2_2 C1_2 1_555 1_555
O3 C1_2 1_555 1_555
O6_2 Zn1 1_555 1_555
N1 H1 1_555 1_555
C1_2 C2_2 1_555 1_555
C2_2 C3_2 1_555 1_555
C3_2 H3_2 1_555 1_555
C4_2 C3_2 1_555 1_555
H4_2 C4_2 1_555 1_555
C5_2 N1 1_555 1_555
C6_2 C5_2 1_555 1_555
H5 C6_2 1_555 1_555
C7_2 C2_2 1_555 1_555
H6 C7_2 1_555 1_555
C8 N1 1_555 1_555
O7_2 C23_2 1_555 1_555
O10_2 Zn2 1_555 1_555
O11_2 Zn1 1_555 1_555
N3_2 H11_2 1_555 1_555
N4_2 H12_2 1_555 1_555
C19_2 C18_2 1_555 1_555
H14_2 C19_2 1_555 1_555
C20_2 N3_2 1_555 1_555
C21_2 C20_2 1_555 1_555
H15_2 C21_2 1_555 1_555
C23_2 N3_2 1_555 1_555
C24_2 N4_2 1_555 1_555
C25_2 C24_2 1_555 1_555
H17_2 C25_2 1_555 1_555
C26_2 C25_2 1_555 1_555
H18_2 C26_2 1_555 1_555
C27_2 C26_2 1_555 1_555
C28_2 C27_2 1_555 1_555
H19_2 C28_2 1_555 1_555
C29_2 C24_2 1_555 1_555
H20_2 C29_2 1_555 1_555
C30_2 O10_2 1_555 1_555
O15 Zn2 1_555 1_555
O16_2 Zn8_2 1_555 1_555
H27 C40 1_555 1_555
C41 C40 1_555 1_555
H28 C41 1_555 1_555
C42 C41 1_555 1_555
C43 C42 1_555 1_555
H29 C43 1_555 1_555
C45 O15 1_555 1_555
O17 Zn8_2 1_555 1_555
O18 Zn1 1_555 1_555
O21 Zn10_2 1_555 1_555
O22 Zn2 1_555 1_555
Zn10_2 O6_2 1_555 1_555
C4_2 C5_2 1_555 1_555
C6_2 C7_2 1_555 1_555
O11_2 C30_2 1_555 1_555
N4_2 C23_2 1_555 1_555
C19_2 C20_2 1_555 1_555
C21_2 C22_2 1_555 1_555
C27_2 C30_2 1_555 1_555
C28_2 C29_2 1_555 1_555
O16_2 C45 1_555 1_555
C42 C45 1_555 1_555
Zn10 O3_2 1_555 1_555
O12_2 C38_2 1_555 1_555
O21 C31_2 1_555 1_555
O22 C31_2 1_555 1_555
N5_2 H21_2 1_555 1_555
N6_2 H22_2 1_555 1_555
C31_2 C32_2 1_555 1_555
C32_2 C33_2 1_555 1_555
C33_2 H23_2 1_555 1_555
C34_2 C33_2 1_555 1_555
H24_2 C34_2 1_555 1_555
C35_2 N5_2 1_555 1_555
C36_2 C35_2 1_555 1_555
H25_2 C36_2 1_555 1_555
C37_2 C32_2 1_555 1_555
H26_2 C37_2 1_555 1_555
C38_2 N5_2 1_555 1_555
C39_2 N6_2 1_555 1_555
C40_2 C39_2 1_555 1_555
H27_2 C40_2 1_555 1_555
C41_2 C40_2 1_555 1_555
H28_2 C41_2 1_555 1_555
C42_2 C41_2 1_555 1_555
C43_2 C42_2 1_555 1_555
H29_2 C43_2 1_555 1_555
C44_2 C39_2 1_555 1_555
H30_2 C44_2 1_555 1_555
C45_2 O15_2 1_555 1_555
N6_2 C38_2 1_555 1_555
C34_2 C35_2 1_555 1_555
C36_2 C37_2 1_555 1_555
C42_2 C45_2 1_555 1_555
C43_2 C44_2 1_555 1_555
O17 C15_2 1_555 1_555
O18 C15_2 1_555 1_555
N2_2 H2_2 1_555 1_555
C9_2 N2_2 1_555 1_555
C10_2 C9_2 1_555 1_555
H7_2 C10_2 1_555 1_555
C11_2 C10_2 1_555 1_555
H8_2 C11_2 1_555 1_555
C12_2 C11_2 1_555 1_555
C13_2 C12_2 1_555 1_555
H9_2 C13_2 1_555 1_555
C14_2 C9_2 1_555 1_555
H10_2 C14_2 1_555 1_555
C15_2 C12_2 1_555 1_555
C13_2 C14_2 1_555 1_555
Zn1_2 O2_3 1_555 1_555
Zn2_2 O6_3 1_555 1_555
Zn3 O6_3 1_555 1_555
Zn4 O3_3 1_555 1_555
O1_2 C8_2 1_555 1_555
O2_3 C1_3 1_555 1_555
O3_3 C1_3 1_555 1_555
O6_3 Zn1_2 1_555 1_555
N1_2 H1_2 1_555 1_555
C1_3 C2_3 1_555 1_555
C2_3 C3_3 1_555 1_555
C3_3 H3_3 1_555 1_555
C4_3 C3_3 1_555 1_555
H4_3 C4_3 1_555 1_555
C5_3 N1_2 1_555 1_555
C6_3 C5_3 1_555 1_555
H5_2 C6_3 1_555 1_555
C7_3 C2_3 1_555 1_555
H6_3 C7_3 1_555 1_555
C8_2 N1_2 1_555 1_555
O7_3 C23_3 1_555 1_555
O10_3 Zn2_2 1_555 1_555
O11_3 Zn1_2 1_555 1_555
N3_3 H11_3 1_555 1_555
N4_3 H12_3 1_555 1_555
C19_3 C18_3 1_555 1_555
H14_3 C19_3 1_555 1_555
C20_3 N3_3 1_555 1_555
C21_3 C20_3 1_555 1_555
H15_3 C21_3 1_555 1_555
C23_3 N3_3 1_555 1_555
C24_3 N4_3 1_555 1_555
C25_3 C24_3 1_555 1_555
H17_3 C25_3 1_555 1_555
C26_3 C25_3 1_555 1_555
H18_3 C26_3 1_555 1_555
C27_3 C26_3 1_555 1_555
C28_3 C27_3 1_555 1_555
H19_3 C28_3 1_555 1_555
C29_3 C24_3 1_555 1_555
H20_3 C29_3 1_555 1_555
C30_3 O10_3 1_555 1_555
O15_3 Zn2_2 1_555 1_555
O16_3 Zn3 1_555 1_555
H27_3 C40_3 1_555 1_555
C41_3 C40_3 1_555 1_555
H28_3 C41_3 1_555 1_555
C42_3 C41_3 1_555 1_555
C43_3 C42_3 1_555 1_555
H29_3 C43_3 1_555 1_555
C45_3 O15_3 1_555 1_555
O17_2 Zn3 1_555 1_555
O18_2 Zn1_2 1_555 1_555
O19 Zn4 1_555 1_555
O20 Zn3 1_555 1_555
O21_2 Zn4 1_555 1_555
O22_2 Zn2_2 1_555 1_555
Zn4 O6_3 1_555 1_555
C4_3 C5_3 1_555 1_555
C6_3 C7_3 1_555 1_555
O11_3 C30_3 1_555 1_555
N4_3 C23_3 1_555 1_555
C19_3 C20_3 1_555 1_555
C21_3 C22_3 1_555 1_555
C27_3 C30_3 1_555 1_555
C28_3 C29_3 1_555 1_555
O16_3 C45_3 1_555 1_555
C42_3 C45_3 1_555 1_555
O12_3 C38_3 1_555 1_555
O13_2 C31_3 1_555 1_555
O14_2 C31_3 1_555 1_555
N5_3 H21_3 1_555 1_555
N6_3 H22_3 1_555 1_555
C31_3 C32_3 1_555 1_555
C32_3 C33_3 1_555 1_555
C33_3 H23_3 1_555 1_555
C34_3 C33_3 1_555 1_555
H24_3 C34_3 1_555 1_555
C35_3 N5_3 1_555 1_555
C36_3 C35_3 1_555 1_555
H25_3 C36_3 1_555 1_555
C37_3 C32_3 1_555 1_555
H26_3 C37_3 1_555 1_555
C38_3 N5_3 1_555 1_555
C39_3 N6_3 1_555 1_555
C44_3 C39_3 1_555 1_555
H30_3 C44_3 1_555 1_555
Zn9 O13_2 1_555 1_555
N6_3 C38_3 1_555 1_555
C34_3 C35_3 1_555 1_555
C36_3 C37_3 1_555 1_555
O17_2 C15_3 1_555 1_555
O18_2 C15_3 1_555 1_555
N2_3 H2_3 1_555 1_555
C9_3 N2_3 1_555 1_555
C10_3 C9_3 1_555 1_555
H7_3 C10_3 1_555 1_555
C11_3 C10_3 1_555 1_555
H8_3 C11_3 1_555 1_555
C12_3 C11_3 1_555 1_555
C13_3 C12_3 1_555 1_555
H9_3 C13_3 1_555 1_555
C14_3 C9_3 1_555 1_555
H10_3 C14_3 1_555 1_555
C15_3 C12_3 1_555 1_555
C13_3 C14_3 1_555 1_555
Zn9 O3_4 1_555 1_555
O12_4 C38_4 1_555 1_555
O21_2 C31_4 1_555 1_555
O22_2 C31_4 1_555 1_555
N5_4 H21_4 1_555 1_555
N6_4 H22_4 1_555 1_555
C31_4 C32_4 1_555 1_555
C32_4 C33_4 1_555 1_555
C33_4 H23_4 1_555 1_555
C34_4 C33_4 1_555 1_555
H24_4 C34_4 1_555 1_555
C35_4 N5_4 1_555 1_555
C36_4 C35_4 1_555 1_555
H25_4 C36_4 1_555 1_555
C37_4 C32_4 1_555 1_555
H26_4 C37_4 1_555 1_555
C38_4 N5_4 1_555 1_555
C39_4 N6_4 1_555 1_555
C40_4 C39_4 1_555 1_555
H27_4 C40_4 1_555 1_555
C41_4 C40_4 1_555 1_555
H28_4 C41_4 1_555 1_555
C42_4 C41_4 1_555 1_555
C43_4 C42_4 1_555 1_555
H29_4 C43_4 1_555 1_555
C44_4 C39_4 1_555 1_555
H30_4 C44_4 1_555 1_555
C45_4 O15_4 1_555 1_555
O19_2 Zn9 1_555 1_555
N6_4 C38_4 1_555 1_555
C34_4 C35_4 1_555 1_555
C36_4 C37_4 1_555 1_555
C42_4 C45_4 1_555 1_555
C43_4 C44_4 1_555 1_555
O19_2 C16_3 1_555 1_555
O20_2 C16_3 1_555 1_555
C16_3 C17_3 1_555 1_555
O19 C16_4 1_555 1_555
O20 C16_4 1_555 1_555
C16_4 C17_4 1_555 1_555
O4_2 C15_4 1_555 1_555
O5_2 C15_4 1_555 1_555
N2_4 H2_4 1_555 1_555
C9_4 N2_4 1_555 1_555
C10_4 C9_4 1_555 1_555
H7_4 C10_4 1_555 1_555
C11_4 C10_4 1_555 1_555
H8_4 C11_4 1_555 1_555
C12_4 C11_4 1_555 1_555
C13_4 C12_4 1_555 1_555
H9_4 C13_4 1_555 1_555
C14_4 C9_4 1_555 1_555
H10_4 C14_4 1_555 1_555
C15_4 C12_4 1_555 1_555
Zn5_2 O5_2 1_555 1_555
Zn7 O4_2 1_555 1_555
C13_4 C14_4 1_555 1_555
Zn5_2 O2_4 1_555 1_555
Zn6_2 O6_4 1_555 1_555
Zn7 O6_4 1_555 1_555
O2_4 C1_4 1_555 1_555
O6_4 Zn5_2 1_555 1_555
C1_4 C2_4 1_555 1_555
C2_4 C3_4 1_555 1_555
C3_4 H3_4 1_555 1_555
C4_4 C3_4 1_555 1_555
H4_4 C4_4 1_555 1_555
C6_4 C5_4 1_555 1_555
C7_4 C2_4 1_555 1_555
O7_4 C23_4 1_555 1_555
O10_4 Zn6_2 1_555 1_555
O11_4 Zn5_2 1_555 1_555
N3_4 H11_4 1_555 1_555
N4_4 H12_4 1_555 1_555
C19_4 C18_4 1_555 1_555
H14_4 C19_4 1_555 1_555
C20_4 N3_4 1_555 1_555
C21_4 C20_4 1_555 1_555
H15_4 C21_4 1_555 1_555
C23_4 N3_4 1_555 1_555
C24_4 N4_4 1_555 1_555
C25_4 C24_4 1_555 1_555
H17_4 C25_4 1_555 1_555
C26_4 C25_4 1_555 1_555
H18_4 C26_4 1_555 1_555
C27_4 C26_4 1_555 1_555
C28_4 C27_4 1_555 1_555
H19_4 C28_4 1_555 1_555
C29_4 C24_4 1_555 1_555
H20_4 C29_4 1_555 1_555
C30_4 O10_4 1_555 1_555
O16_4 Zn7 1_555 1_555
C4_4 C5_4 1_555 1_555
C6_4 C7_4 1_555 1_555
O11_4 C30_4 1_555 1_555
N4_4 C23_4 1_555 1_555
C19_4 C20_4 1_555 1_555
C21_4 C22_4 1_555 1_555
C27_4 C30_4 1_555 1_555
C28_4 C29_4 1_555 1_555
O1_3 C8_3 1_555 1_555
N1_3 H1_3 1_555 1_555
C8_3 N1_3 1_555 1_555
O1_4 C8_4 1_555 1_555
N1_4 H1_4 1_555 1_555
C8_4 N1_4 1_555 1_555

#END
