
###############################################################################
#
# This file contains modified crystal structure data generated from the
# MOF subset of the Cambridge Structural Database (CSD) v543 
# hosted by the Cambridge Crystallographic Data Centre (CCDC).
#
# This work is licensed under the Creative Commons
# Attribution-NonCommercial-ShareAlike 4.0 International License.
# To view a copy of this license, visit
# http://creativecommons.org/licenses/by-nc-sa/4.0/
# or send a letter to
# Creative Commons, PO Box 1866, Mountain View, CA 94042, USA.
#
# CIF created using the CSD Python API on 29 September 2022
# The structure has been converted into the P1 space group
# The structure has a 3D framework
# The original CSD entry FERGUG is in the tetragonal crystal system
# The framework has been calculated to contain at least 10.0% void space
# The void calculation uses a probe of radius 1.32A, grid spacing 0.4
# The framework is charged, counterions have been retained in the structure
#
###############################################################################

data_FERGUG
_chemical_formula_moiety         '(C704 H736 Cd27 Cl16 N32 O236 16-)n'
_symmetry_cell_setting           triclinic
_symmetry_space_group_name_H-M   'P 1'
_symmetry_Int_Tables_number      1
_space_group_name_Hall           'P 1'
loop_
_symmetry_equiv_pos_site_id
_symmetry_equiv_pos_as_xyz
1 x,y,z
_cell_length_a                   22.3139(2)
_cell_length_b                   22.3139(2)
_cell_length_c                   43.2016(8)
_cell_angle_alpha                90
_cell_angle_beta                 90
_cell_angle_gamma                90
_cell_volume                     21510.5
loop_
_atom_site_label
_atom_site_type_symbol
_atom_site_fract_x
_atom_site_fract_y
_atom_site_fract_z
Cd3 Cd 0.00000 0.00000 0.00000
Cd3_2 Cd 0.00000 0.00000 1.00000
Cd3_3 Cd 0.00000 1.00000 0.00000
Cd3_4 Cd -0.00000 1.00000 1.00000
Cd3_5 Cd 1.00000 0.00000 0.00000
Cd1 Cd 0.50000 -0.00000 0.75000
O2 O 0.5502(4) 0.0512(4) 0.79492(15)
C1 C 0.5891(5) 0.0122(6) 0.7938(3)
C2 C 0.6384(5) 0.0109(5) 0.8186(2)
C5 C 0.7265(4) 0.0112(5) 0.86396(18)
C6 C 0.6889(5) 0.0559(5) 0.8614(2)
H2 H 0.6925 0.0888 0.8752
C7 C 0.6443(5) 0.0570(5) 0.8395(2)
H3 H 0.6174 0.0899 0.8388
O5 O 0.9498(4) 0.0512(4) 0.95508(15)
C9 C 0.9109(5) 0.0122(6) 0.9562(3)
C10 C 0.8616(5) 0.0109(5) 0.9314(2)
C13 C 0.7735(4) 0.0112(5) 0.88604(18)
C14 C 0.8111(5) 0.0559(5) 0.8886(2)
H8 H 0.8075 0.0888 0.8748
C15 C 0.8557(5) 0.0570(5) 0.9105(2)
H9 H 0.8826 0.0899 0.9112
O7 O 0.4119(3) 0.0292(4) 0.77351(16)
O9 O 0.2401(4) 0.0822(3) 0.84416(18)
C19 C 0.3247(5) 0.0378(5) 0.8198(2)
H13 H 0.3279 0.07 0.8055
C20 C 0.2802(5) 0.0372(6) 0.8444(3)
C24 C 0.2562(7) 0.1365(6) 0.8301(5)
H16 H 0.2225 0.1645 0.8312
H17 H 0.2667 0.1293 0.8084
H18 H 0.2908 0.1537 0.8409
O10 O 0.0881(3) 0.0292(4) 0.97649(16)
O12 O 0.2599(4) 0.0822(3) 0.90584(18)
C27 C 0.1753(5) 0.0378(5) 0.9302(2)
H19 H 0.1721 0.07 0.9445
C28 C 0.2198(5) 0.0372(6) 0.9056(3)
C32 C 0.2438(7) 0.1365(6) 0.9199(5)
H22 H 0.2775 0.1645 0.9188
H23 H 0.2333 0.1293 0.9416
H24 H 0.2092 0.1537 0.9091
Cd3_6 Cd 1.00000 0.00000 1.00000
O14 O 0.5292(4) 0.0881(3) 0.72649(16)
O16 O 0.4488(4) 0.0502(4) 0.70508(15)
Cd3_7 Cd 1.00000 1.00000 0.00000
Cd1_2 Cd 0.50000 1.00000 0.75000
O1 O 0.5881(3) 0.9708(4) 0.77351(16)
O3 O 0.7599(4) 0.9178(3) 0.84416(18)
C3 C 0.6753(5) 0.9622(5) 0.8198(2)
H1 H 0.6721 0.93 0.8055
C4 C 0.7198(5) 0.9628(6) 0.8444(3)
C8 C 0.7438(7) 0.8635(6) 0.8301(5)
H4 H 0.7775 0.8355 0.8312
H5 H 0.7333 0.8707 0.8084
H6 H 0.7092 0.8463 0.8409
O4 O 0.9119(3) 0.9708(4) 0.97649(16)
O6 O 0.7401(4) 0.9178(3) 0.90584(18)
C11 C 0.8247(5) 0.9622(5) 0.9302(2)
H7 H 0.8279 0.93 0.9445
C12 C 0.7802(5) 0.9628(6) 0.9056(3)
C16 C 0.7562(7) 0.8635(6) 0.9199(5)
H10 H 0.7225 0.8355 0.9188
H11 H 0.7667 0.8707 0.9416
H12 H 0.7908 0.8463 0.9091
O8 O 0.4498(4) 0.9488(4) 0.79492(15)
C17 C 0.4109(5) 0.9878(6) 0.7938(3)
C18 C 0.3616(5) 0.9891(5) 0.8186(2)
C21 C 0.2735(4) 0.9888(5) 0.86396(18)
C22 C 0.3111(5) 0.9441(5) 0.8614(2)
H14 H 0.3075 0.9112 0.8752
C23 C 0.3557(5) 0.9430(5) 0.8395(2)
H15 H 0.3826 0.9101 0.8388
O11 O 0.0502(4) 0.9488(4) 0.95508(15)
C25 C 0.0891(5) 0.9878(6) 0.9562(3)
C26 C 0.1384(5) 0.9891(5) 0.9314(2)
C29 C 0.2265(4) 0.9888(5) 0.88604(18)
C30 C 0.1889(5) 0.9441(5) 0.8886(2)
H20 H 0.1925 0.9112 0.8748
C31 C 0.1443(5) 0.9430(5) 0.9105(2)
H21 H 0.1174 0.9101 0.9112
Cd3_8 Cd 1.00000 1.00000 1.00000
O13 O 0.4708(4) 0.9119(3) 0.72649(16)
O15 O 0.5512(4) 0.9498(4) 0.70508(15)
Cd1_3 Cd 0.00000 0.50000 0.25000
O2_2 O 0.0512(4) 0.4498(4) 0.20508(15)
C1_2 C 0.0122(6) 0.4109(5) 0.2062(3)
C2_2 C 0.0109(5) 0.3616(5) 0.1814(2)
C5_2 C 0.0112(5) 0.2735(4) 0.13604(18)
C6_2 C 0.0559(5) 0.3111(5) 0.1386(2)
H2_2 H 0.0888 0.3075 0.1248
C7_2 C 0.0570(5) 0.3557(5) 0.1605(2)
H3_2 H 0.0899 0.3826 0.1612
O5_2 O 0.0512(4) 0.0502(4) 0.04492(15)
C9_2 C 0.0122(6) 0.0891(5) 0.0438(3)
C10_2 C 0.0109(5) 0.1384(5) 0.0686(2)
C13_2 C 0.0112(5) 0.2265(4) 0.11396(18)
C14_2 C 0.0559(5) 0.1889(5) 0.1114(2)
H8_2 H 0.0888 0.1925 0.1252
C15_2 C 0.0570(5) 0.1443(5) 0.0895(2)
H9_2 H 0.0899 0.1174 0.0888
O7_2 O 0.0292(4) 0.5881(3) 0.22649(16)
O9_2 O 0.0822(3) 0.7599(4) 0.15584(18)
C19_2 C 0.0378(5) 0.6753(5) 0.1802(2)
H13_2 H 0.07 0.6721 0.1945
C20_2 C 0.0372(6) 0.7198(5) 0.1556(3)
C24_2 C 0.1365(6) 0.7438(7) 0.1699(5)
H16_2 H 0.1645 0.7775 0.1688
H17_2 H 0.1293 0.7333 0.1916
H18_2 H 0.1537 0.7092 0.1591
O10_2 O 0.0292(4) 0.9119(3) 0.02351(16)
O12_2 O 0.0822(3) 0.7401(4) 0.09416(18)
C27_2 C 0.0378(5) 0.8247(5) 0.0698(2)
H19_2 H 0.07 0.8279 0.0555
C28_2 C 0.0372(6) 0.7802(5) 0.0944(3)
C32_2 C 0.1365(6) 0.7562(7) 0.0801(5)
H22_2 H 0.1645 0.7225 0.0812
H23_2 H 0.1293 0.7667 0.0584
H24_2 H 0.1537 0.7908 0.0909
O14_2 O 0.0881(3) 0.4708(4) 0.27351(16)
O16_2 O 0.0502(4) 0.5512(4) 0.29492(15)
Cd1_4 Cd 1.00000 0.50000 0.25000
O1_2 O 0.9708(4) 0.4119(3) 0.22649(16)
O3_2 O 0.9178(3) 0.2401(4) 0.15584(18)
C3_2 C 0.9622(5) 0.3247(5) 0.1802(2)
H1_2 H 0.93 0.3279 0.1945
C4_2 C 0.9628(6) 0.2802(5) 0.1556(3)
C8_2 C 0.8635(6) 0.2562(7) 0.1699(5)
H4_2 H 0.8355 0.2225 0.1688
H5_2 H 0.8707 0.2667 0.1916
H6_2 H 0.8463 0.2908 0.1591
O4_2 O 0.9708(4) 0.0881(3) 0.02351(16)
O6_2 O 0.9178(3) 0.2599(4) 0.09416(18)
C11_2 C 0.9622(5) 0.1753(5) 0.0698(2)
H7_2 H 0.93 0.1721 0.0555
C12_2 C 0.9628(6) 0.2198(5) 0.0944(3)
C16_2 C 0.8635(6) 0.2438(7) 0.0801(5)
H10_2 H 0.8355 0.2775 0.0812
H11_2 H 0.8707 0.2333 0.0584
H12_2 H 0.8463 0.2092 0.0909
O8_2 O 0.9488(4) 0.5502(4) 0.20508(15)
C17_2 C 0.9878(6) 0.5891(5) 0.2062(3)
C18_2 C 0.9891(5) 0.6384(5) 0.1814(2)
C21_2 C 0.9888(5) 0.7265(4) 0.13604(18)
C22_2 C 0.9441(5) 0.6889(5) 0.1386(2)
H14_2 H 0.9112 0.6925 0.1248
C23_2 C 0.9430(5) 0.6443(5) 0.1605(2)
H15_2 H 0.9101 0.6174 0.1612
O11_2 O 0.9488(4) 0.9498(4) 0.04492(15)
C25_2 C 0.9878(6) 0.9109(5) 0.0438(3)
C26_2 C 0.9891(5) 0.8616(5) 0.0686(2)
C29_2 C 0.9888(5) 0.7735(4) 0.11396(18)
C30_2 C 0.9441(5) 0.8111(5) 0.1114(2)
H20_2 H 0.9112 0.8075 0.1252
C31_2 C 0.9430(5) 0.8557(5) 0.0895(2)
H21_2 H 0.9101 0.8826 0.0888
O13_2 O 0.9119(3) 0.5292(4) 0.27351(16)
O15_2 O 0.9498(4) 0.4488(4) 0.29492(15)
Cd1_5 Cd 0.50000 0.50000 0.50000
O1_3 O 0.5292(4) 0.4119(3) 0.52351(16)
O2_3 O 0.4488(4) 0.4498(4) 0.54492(15)
O3_3 O 0.5822(3) 0.2401(4) 0.59416(18)
C1_3 C 0.4878(6) 0.4109(5) 0.5438(3)
C2_3 C 0.4891(5) 0.3616(5) 0.5686(2)
C3_3 C 0.5378(5) 0.3247(5) 0.5698(2)
H1_3 H 0.57 0.3279 0.5555
C4_3 C 0.5372(6) 0.2802(5) 0.5944(3)
C5_3 C 0.4888(5) 0.2735(4) 0.61396(18)
C6_3 C 0.4441(5) 0.3111(5) 0.6114(2)
H2_3 H 0.4112 0.3075 0.6252
C7_3 C 0.4430(5) 0.3557(5) 0.5895(2)
H3_3 H 0.4101 0.3826 0.5888
C8_3 C 0.6365(6) 0.2562(7) 0.5801(5)
H4_3 H 0.6645 0.2225 0.5812
H5_3 H 0.6293 0.2667 0.5584
H6_3 H 0.6537 0.2908 0.5909
O6_3 O 0.5822(3) 0.2599(4) 0.65584(18)
C9_3 C 0.4878(6) 0.0891(5) 0.7062(3)
C10_3 C 0.4891(5) 0.1384(5) 0.6814(2)
C11_3 C 0.5378(5) 0.1753(5) 0.6802(2)
H7_3 H 0.57 0.1721 0.6945
C12_3 C 0.5372(6) 0.2198(5) 0.6556(3)
C13_3 C 0.4888(5) 0.2265(4) 0.63604(18)
C14_3 C 0.4441(5) 0.1889(5) 0.6386(2)
H8_3 H 0.4112 0.1925 0.6248
C15_3 C 0.4430(5) 0.1443(5) 0.6605(2)
H9_3 H 0.4101 0.1174 0.6612
C16_3 C 0.6365(6) 0.2438(7) 0.6699(5)
H10_3 H 0.6645 0.2775 0.6688
H11_3 H 0.6293 0.2333 0.6916
H12_3 H 0.6537 0.2092 0.6591
O7_3 O 0.4708(4) 0.5881(3) 0.52351(16)
O8_3 O 0.5512(4) 0.5502(4) 0.54492(15)
O9_3 O 0.4178(3) 0.7599(4) 0.59416(18)
C17_3 C 0.5122(6) 0.5891(5) 0.5438(3)
C18_3 C 0.5109(5) 0.6384(5) 0.5686(2)
C19_3 C 0.4622(5) 0.6753(5) 0.5698(2)
H13_3 H 0.43 0.6721 0.5555
C20_3 C 0.4628(6) 0.7198(5) 0.5944(3)
C21_3 C 0.5112(5) 0.7265(4) 0.61396(18)
C22_3 C 0.5559(5) 0.6889(5) 0.6114(2)
H14_3 H 0.5888 0.6925 0.6252
C23_3 C 0.5570(5) 0.6443(5) 0.5895(2)
H15_3 H 0.5899 0.6174 0.5888
C24_3 C 0.3635(6) 0.7438(7) 0.5801(5)
H16_3 H 0.3355 0.7775 0.5812
H17_3 H 0.3707 0.7333 0.5584
H18_3 H 0.3463 0.7092 0.5909
O12_3 O 0.4178(3) 0.7401(4) 0.65584(18)
C25_3 C 0.5122(6) 0.9109(5) 0.7062(3)
C26_3 C 0.5109(5) 0.8616(5) 0.6814(2)
C27_3 C 0.4622(5) 0.8247(5) 0.6802(2)
H19_3 H 0.43 0.8279 0.6945
C28_3 C 0.4628(6) 0.7802(5) 0.6556(3)
C29_3 C 0.5112(5) 0.7735(4) 0.63604(18)
C30_3 C 0.5559(5) 0.8111(5) 0.6386(2)
H20_3 H 0.5888 0.8075 0.6248
C31_3 C 0.5570(5) 0.8557(5) 0.6605(2)
H21_3 H 0.5899 0.8826 0.6612
C32_3 C 0.3635(6) 0.7562(7) 0.6699(5)
H22_3 H 0.3355 0.7225 0.6688
H23_3 H 0.3707 0.7667 0.6916
H24_3 H 0.3463 0.7908 0.6591
O13_3 O 0.5881(3) 0.5292(4) 0.47649(16)
O14_3 O 0.4119(3) 0.4708(4) 0.47649(16)
O15_3 O 0.5502(4) 0.4488(4) 0.45508(15)
O16_3 O 0.4498(4) 0.5512(4) 0.45508(15)
O3_4 O 0.2599(4) 0.4178(3) 0.34416(18)
C1_4 C 0.0891(5) 0.5122(6) 0.2938(3)
C2_4 C 0.1384(5) 0.5109(5) 0.3186(2)
C3_4 C 0.1753(5) 0.4622(5) 0.3198(2)
H1_4 H 0.1721 0.43 0.3055
C4_4 C 0.2198(5) 0.4628(6) 0.3444(3)
C5_4 C 0.2265(4) 0.5112(5) 0.36396(18)
C6_4 C 0.1889(5) 0.5559(5) 0.3614(2)
H2_4 H 0.1925 0.5888 0.3752
C7_4 C 0.1443(5) 0.5570(5) 0.3395(2)
H3_4 H 0.1174 0.5899 0.3388
C8_4 C 0.2438(7) 0.3635(6) 0.3301(5)
H4_4 H 0.2775 0.3355 0.3312
H5_4 H 0.2333 0.3707 0.3084
H6_4 H 0.2092 0.3463 0.3409
O6_4 O 0.2401(4) 0.4178(3) 0.40584(18)
C9_4 C 0.4109(5) 0.5122(6) 0.4562(3)
C10_4 C 0.3616(5) 0.5109(5) 0.4314(2)
C11_4 C 0.3247(5) 0.4622(5) 0.4302(2)
H7_4 H 0.3279 0.43 0.4445
C12_4 C 0.2802(5) 0.4628(6) 0.4056(3)
C13_4 C 0.2735(4) 0.5112(5) 0.38604(18)
C14_4 C 0.3111(5) 0.5559(5) 0.3886(2)
H8_4 H 0.3075 0.5888 0.3748
C15_4 C 0.3557(5) 0.5570(5) 0.4105(2)
H9_4 H 0.3826 0.5899 0.4112
C16_4 C 0.2562(7) 0.3635(6) 0.4199(5)
H10_4 H 0.2225 0.3355 0.4188
H11_4 H 0.2667 0.3707 0.4416
H12_4 H 0.2908 0.3463 0.4091
O9_4 O 0.7401(4) 0.5822(3) 0.34416(18)
C17_4 C 0.9109(5) 0.4878(6) 0.2938(3)
C18_4 C 0.8616(5) 0.4891(5) 0.3186(2)
C19_4 C 0.8247(5) 0.5378(5) 0.3198(2)
H13_4 H 0.8279 0.57 0.3055
C20_4 C 0.7802(5) 0.5372(6) 0.3444(3)
C21_4 C 0.7735(4) 0.4888(5) 0.36396(18)
C22_4 C 0.8111(5) 0.4441(5) 0.3614(2)
H14_4 H 0.8075 0.4112 0.3752
C23_4 C 0.8557(5) 0.4430(5) 0.3395(2)
H15_4 H 0.8826 0.4101 0.3388
C24_4 C 0.7562(7) 0.6365(6) 0.3301(5)
H16_4 H 0.7225 0.6645 0.3312
H17_4 H 0.7667 0.6293 0.3084
H18_4 H 0.7908 0.6537 0.3409
O12_4 O 0.7599(4) 0.5822(3) 0.40584(18)
C25_4 C 0.5891(5) 0.4878(6) 0.4562(3)
C26_4 C 0.6384(5) 0.4891(5) 0.4314(2)
C27_4 C 0.6753(5) 0.5378(5) 0.4302(2)
H19_4 H 0.6721 0.57 0.4445
C28_4 C 0.7198(5) 0.5372(6) 0.4056(3)
C29_4 C 0.7265(4) 0.4888(5) 0.38604(18)
C30_4 C 0.6889(5) 0.4441(5) 0.3886(2)
H20_4 H 0.6925 0.4112 0.3748
C31_4 C 0.6443(5) 0.4430(5) 0.4105(2)
H21_4 H 0.6174 0.4101 0.4112
C32_4 C 0.7438(7) 0.6365(6) 0.4199(5)
H22_4 H 0.7775 0.6645 0.4188
H23_4 H 0.7333 0.6293 0.4416
H24_4 H 0.7092 0.6537 0.4091
C47 C 0.0084(5) 0.1231(5) 0.7504(3)
H31 H 0.0347 0.1574 0.7543
H33 H 0.0306 0.0858 0.7539
O19 O 0.9168(3) 0.2819(3) 0.89998(14)
O20 O 0.8208(3) 0.2954(2) 0.89322(13)
O21 O 0.9575(3) 0.1256(3) 0.77114(17)
O22 O 0.7708(3) 0.1601(3) 0.80131(14)
C35 C 0.9110(5) 0.0342(5) 0.7476(2)
H25 H 0.9422 0.0312 0.7327
C36 C 0.9121(5) 0.0811(5) 0.7697(2)
C37 C 0.8690(4) 0.0848(4) 0.79227(17)
C38 C 0.8248(5) 0.0428(4) 0.7918(2)
H26 H 0.7943 0.0442 0.8071
C40 C 0.8697(4) 0.1326(4) 0.81664(15)
C41 C 0.8186(5) 0.1695(4) 0.8213(2)
C42 C 0.8185(4) 0.2122(4) 0.84436(17)
H28 H 0.7836 0.2356 0.8479
C43 C 0.8700(5) 0.2213(4) 0.86263(17)
C44 C 0.9182(4) 0.1848(4) 0.8583(2)
H29 H 0.9529 0.1899 0.8708
C45 C 0.9172(4) 0.1404(4) 0.8361(2)
H30 H 0.9507 0.1145 0.8342
C46 C 0.8693(5) 0.2694(4) 0.88639(16)
H32 H 0.9943 0.1244 0.7289
C48 C 0.7197(4) 0.1961(4) 0.8046(2)
H34 H 0.6904 0.1854 0.7886
H35 H 0.7309 0.2383 0.8024
H36 H 0.7021 0.1896 0.8251
Cd10 Cd 0.86809(3) 0.36572(3) 0.926095(11)
Cd14 Cd 0.75000 0.36336(4) 0.875
Cd4 Cd 0.86572(3) 0.86809(3) 0.676095(11)
Cd5 Cd 0.86336(4) 0.75000 0.625
O17 O 0.8249(3) 0.9113(3) 0.72291(14)
O18 O 0.9040(3) 0.9475(3) 0.70275(15)
O23 O 0.8835(3) 0.7847(3) 0.70428(13)
O24 O 0.8558(3) 0.7134(2) 0.67116(12)
O25 O 0.9164(3) 0.4147(3) 0.88151(16)
O26 O 0.8214(3) 0.4318(3) 0.88900(12)
O27 O 0.8027(4) 0.5368(4) 0.73557(19)
O28 O 0.7622(4) 0.5692(3) 0.80088(19)
C33 C 0.8667(5) 0.9480(4) 0.7224(2)
C34 C 0.8651(5) 0.9931(4) 0.7475(2)
C39 C 0.8229(4) 0.9973(4) 0.7692(2)
H27 H 0.791 0.9692 0.7695
C49 C 0.8700(4) 0.7316(4) 0.6970(2)
C50 C 0.8697(4) 0.6851(4) 0.72214(17)
C51 C 0.8393(4) 0.6326(4) 0.71771(18)
H37 H 0.8191 0.6257 0.6987
C52 C 0.8376(5) 0.5900(4) 0.7403(2)
C53 C 0.8681(4) 0.5975(4) 0.7672(2)
C54 C 0.9026(6) 0.6473(5) 0.7707(2)
H38 H 0.9281 0.6506 0.7882
C55 C 0.9012(5) 0.6934(5) 0.7490(2)
H39 H 0.9218 0.7299 0.7528
C56 C 0.8664(5) 0.5532(4) 0.79440(19)
C57 C 0.8143(4) 0.5424(4) 0.8112(2)
C58 C 0.8152(4) 0.5039(4) 0.83599(18)
H40 H 0.7791 0.4959 0.847
C59 C 0.8672(4) 0.4771(4) 0.84504(17)
C60 C 0.9188(4) 0.4848(4) 0.8271(2)
H41 H 0.9544 0.4635 0.832
C61 C 0.9177(4) 0.5233(4) 0.8022(2)
H42 H 0.9531 0.5292 0.7903
C62 C 0.8662(5) 0.4381(4) 0.8740(2)
C63 C 0.7679(7) 0.5331(7) 0.7090(3)
H43 H 0.7476 0.4942 0.7084
H44 H 0.7937 0.5372 0.6907
H45 H 0.738 0.5653 0.709
C64 C 0.7049(5) 0.5535(7) 0.8142(4)
H46 H 0.673 0.5754 0.8034
H47 H 0.7046 0.5642 0.8362
H48 H 0.6982 0.5103 0.812
Cd6 Cd 0.36809(3) 0.63428(3) 0.823905(11)
O29 O 0.4113(3) 0.6751(3) 0.77709(14)
O30 O 0.4475(3) 0.5960(3) 0.79725(15)
O31 O 0.7819(3) 0.5832(3) 0.60002(14)
O32 O 0.7954(2) 0.6792(3) 0.60678(13)
O33 O 0.6256(3) 0.5425(3) 0.72886(17)
O34 O 0.6601(3) 0.7292(3) 0.69869(14)
O35 O 0.2847(3) 0.6165(3) 0.79572(13)
O36 O 0.2134(2) 0.6442(3) 0.82884(12)
O39 O 0.0368(4) 0.6973(4) 0.76443(19)
O40 O 0.0692(3) 0.7378(4) 0.69912(19)
C65 C 0.4480(4) 0.6333(5) 0.7776(2)
C66 C 0.4931(4) 0.6349(5) 0.7525(2)
C67 C 0.5342(5) 0.5890(5) 0.7524(2)
H49 H 0.5312 0.5578 0.7673
C68 C 0.5811(5) 0.5879(5) 0.7303(2)
C69 C 0.5848(4) 0.6310(4) 0.70773(17)
C70 C 0.5428(4) 0.6752(5) 0.7082(2)
H50 H 0.5442 0.7057 0.6929
C71 C 0.4973(4) 0.6771(4) 0.7308(2)
H51 H 0.4692 0.709 0.7305
C72 C 0.6326(4) 0.6303(4) 0.68336(15)
C73 C 0.6695(4) 0.6814(5) 0.6787(2)
C74 C 0.7122(4) 0.6815(4) 0.65564(17)
H52 H 0.7356 0.7164 0.6521
C75 C 0.7213(4) 0.6300(5) 0.63737(17)
C76 C 0.6848(4) 0.5818(4) 0.6417(2)
H53 H 0.6899 0.5471 0.6292
C77 C 0.6404(4) 0.5828(4) 0.6639(2)
H54 H 0.6145 0.5493 0.6658
C78 C 0.7694(4) 0.6307(5) 0.61361(16)
C79 C 0.6231(5) 0.4916(5) 0.7496(3)
H55 H 0.6574 0.4653 0.7457
H56 H 0.6244 0.5057 0.7711
H57 H 0.5858 0.4694 0.7461
C80 C 0.6961(4) 0.7803(4) 0.6954(2)
H58 H 0.6854 0.8096 0.7114
H59 H 0.7383 0.7691 0.6976
H60 H 0.6896 0.7979 0.6749
C81 C 0.2316(4) 0.6300(4) 0.8030(2)
C82 C 0.1851(4) 0.6303(4) 0.77786(17)
C83 C 0.1326(4) 0.6607(4) 0.78229(18)
H61 H 0.1257 0.6809 0.8013
C84 C 0.0900(4) 0.6624(5) 0.7597(2)
C85 C 0.0975(4) 0.6319(4) 0.7328(2)
C86 C 0.1473(5) 0.5974(6) 0.7293(2)
H62 H 0.1506 0.5719 0.7118
C87 C 0.1934(5) 0.5988(5) 0.7510(2)
H63 H 0.2299 0.5782 0.7472
C88 C 0.0532(4) 0.6336(5) 0.70560(19)
C89 C 0.0424(4) 0.6857(4) 0.6888(2)
C90 C 0.0039(4) 0.6848(4) 0.66401(18)
C93 C 0.0233(4) 0.5823(4) 0.6978(2)
H66 H 0.0292 0.5469 0.7097
C95 C 0.0331(7) 0.7321(7) 0.7910(3)
H68 H 0.0372 0.7063 0.8093
H69 H 0.0653 0.762 0.791
C96 C 0.0535(7) 0.7951(5) 0.6858(4)
H70 H 0.0754 0.827 0.6966
H71 H 0.0642 0.7954 0.6638
H72 H 0.0103 0.8018 0.688
Cd8 Cd 0.86572(3) 0.63191(3) 0.573905(11)
Cd12 Cd 0.25000 0.63664(4) 0.875
O41 O 0.4168(3) 0.7181(3) 0.85002(14)
O42 O 0.7819(3) 0.9168(3) 0.64998(14)
O43 O 0.3208(3) 0.7046(2) 0.85678(13)
O44 O 0.7954(2) 0.8208(3) 0.64322(13)
O45 O 0.8558(3) 0.7866(2) 0.57884(12)
O46 O 0.4164(3) 0.5853(3) 0.86849(16)
O47 O 0.9147(3) 0.9164(3) 0.63151(16)
O48 O 0.3214(3) 0.5682(3) 0.86100(12)
O49 O 0.9318(3) 0.8214(3) 0.63900(12)
O50 O 0.9318(3) 0.6786(3) 0.61100(12)
O37 O 0.9147(3) 0.5836(3) 0.61849(16)
H64 H 0.9959 0.7209 0.653
C91 C 0.9771(4) 0.6328(4) 0.65496(17)
C92 C 0.9848(4) 0.5812(4) 0.6729(2)
H65 H 0.9635 0.5456 0.668
C94 C 0.9381(4) 0.6338(5) 0.6260(2)
H67 H 0.9942 0.7524 0.7916
O37_2 O 0.0853(3) 0.4164(3) 0.61849(16)
O38 O 0.0682(3) 0.3214(3) 0.61100(12)
H64_2 H 0.0041 0.2791 0.653
C91_2 C 0.0229(4) 0.3672(4) 0.65496(17)
C92_2 C 0.0152(4) 0.4188(4) 0.6729(2)
H65_2 H 0.0365 0.4544 0.668
C94_2 C 0.0619(4) 0.3662(5) 0.6260(2)
H67_2 H 0.0058 0.2476 0.7916
Cd7 Cd 0.13428(3) 0.36809(3) 0.573905(11)
Cd11 Cd 0.13664(4) 0.25000 0.625
Cd4_2 Cd 0.13428(3) 0.13191(3) 0.676095(11)
O17_2 O 0.1751(3) 0.0887(3) 0.72291(14)
O18_2 O 0.0960(3) 0.0525(3) 0.70275(15)
O23_2 O 0.1165(3) 0.2153(3) 0.70428(13)
O24_2 O 0.1442(3) 0.2866(2) 0.67116(12)
O25_2 O 0.0836(3) 0.5853(3) 0.88151(16)
O26_2 O 0.1786(3) 0.5682(3) 0.88900(12)
O27_2 O 0.1973(4) 0.4632(4) 0.73557(19)
O28_2 O 0.2378(4) 0.4308(3) 0.80088(19)
C33_2 C 0.1333(5) 0.0520(4) 0.7224(2)
C34_2 C 0.1349(5) 0.0069(4) 0.7475(2)
C39_2 C 0.1771(4) 0.0027(4) 0.7692(2)
H27_2 H 0.209 0.0308 0.7695
C49_2 C 0.1300(4) 0.2684(4) 0.6970(2)
C50_2 C 0.1303(4) 0.3149(4) 0.72214(17)
C51_2 C 0.1607(4) 0.3674(4) 0.71771(18)
H37_2 H 0.1809 0.3743 0.6987
C52_2 C 0.1624(5) 0.4100(4) 0.7403(2)
C53_2 C 0.1319(4) 0.4025(4) 0.7672(2)
C54_2 C 0.0974(6) 0.3527(5) 0.7707(2)
H38_2 H 0.0719 0.3494 0.7882
C55_2 C 0.0988(5) 0.3066(5) 0.7490(2)
H39_2 H 0.0782 0.2701 0.7528
C56_2 C 0.1336(5) 0.4468(4) 0.79440(19)
C57_2 C 0.1857(4) 0.4576(4) 0.8112(2)
C58_2 C 0.1848(4) 0.4961(4) 0.83599(18)
H40_2 H 0.2209 0.5041 0.847
C59_2 C 0.1328(4) 0.5229(4) 0.84504(17)
C60_2 C 0.0812(4) 0.5152(4) 0.8271(2)
H41_2 H 0.0456 0.5365 0.832
C61_2 C 0.0823(4) 0.4767(4) 0.8022(2)
H42_2 H 0.0469 0.4708 0.7903
C62_2 C 0.1338(5) 0.5619(4) 0.8740(2)
C63_2 C 0.2321(7) 0.4669(7) 0.7090(3)
H43_2 H 0.2524 0.5058 0.7084
H44_2 H 0.2063 0.4628 0.6907
H45_2 H 0.262 0.4347 0.709
C64_2 C 0.2951(5) 0.4465(7) 0.8142(4)
H46_2 H 0.327 0.4246 0.8034
H47_2 H 0.2954 0.4358 0.8362
H48_2 H 0.3018 0.4897 0.812
Cd6_2 Cd 0.63191(3) 0.36572(3) 0.823905(11)
O29_2 O 0.5887(3) 0.3249(3) 0.77709(14)
O30_2 O 0.5525(3) 0.4040(3) 0.79725(15)
O31_2 O 0.2181(3) 0.4168(3) 0.60002(14)
O32_2 O 0.2046(2) 0.3208(3) 0.60678(13)
O33_2 O 0.3744(3) 0.4575(3) 0.72886(17)
O34_2 O 0.3399(3) 0.2708(3) 0.69869(14)
O35_2 O 0.7153(3) 0.3835(3) 0.79572(13)
O36_2 O 0.7866(2) 0.3558(3) 0.82884(12)
O39_2 O 0.9632(4) 0.3027(4) 0.76443(19)
O40_2 O 0.9308(3) 0.2622(4) 0.69912(19)
C65_2 C 0.5520(4) 0.3667(5) 0.7776(2)
C66_2 C 0.5069(4) 0.3651(5) 0.7525(2)
C67_2 C 0.4658(5) 0.4110(5) 0.7524(2)
H49_2 H 0.4688 0.4422 0.7673
C68_2 C 0.4189(5) 0.4121(5) 0.7303(2)
C69_2 C 0.4152(4) 0.3690(4) 0.70773(17)
C70_2 C 0.4572(4) 0.3248(5) 0.7082(2)
H50_2 H 0.4558 0.2943 0.6929
C71_2 C 0.5027(4) 0.3229(4) 0.7308(2)
H51_2 H 0.5308 0.291 0.7305
C72_2 C 0.3674(4) 0.3697(4) 0.68336(15)
C73_2 C 0.3305(4) 0.3186(5) 0.6787(2)
C74_2 C 0.2878(4) 0.3185(4) 0.65564(17)
H52_2 H 0.2644 0.2836 0.6521
C75_2 C 0.2787(4) 0.3700(5) 0.63737(17)
C76_2 C 0.3152(4) 0.4182(4) 0.6417(2)
H53_2 H 0.3101 0.4529 0.6292
C77_2 C 0.3596(4) 0.4172(4) 0.6639(2)
H54_2 H 0.3855 0.4507 0.6658
C78_2 C 0.2306(4) 0.3693(5) 0.61361(16)
C79_2 C 0.3769(5) 0.5084(5) 0.7496(3)
H55_2 H 0.3426 0.5347 0.7457
H56_2 H 0.3756 0.4943 0.7711
H57_2 H 0.4142 0.5306 0.7461
C80_2 C 0.3039(4) 0.2197(4) 0.6954(2)
H58_2 H 0.3146 0.1904 0.7114
H59_2 H 0.2617 0.2309 0.6976
H60_2 H 0.3104 0.2021 0.6749
C81_2 C 0.7684(4) 0.3700(4) 0.8030(2)
C82_2 C 0.8149(4) 0.3697(4) 0.77786(17)
C83_2 C 0.8674(4) 0.3393(4) 0.78229(18)
H61_2 H 0.8743 0.3191 0.8013
C84_2 C 0.9100(4) 0.3376(5) 0.7597(2)
C85_2 C 0.9025(4) 0.3681(4) 0.7328(2)
C86_2 C 0.8527(5) 0.4026(6) 0.7293(2)
H62_2 H 0.8494 0.4281 0.7118
C87_2 C 0.8066(5) 0.4012(5) 0.7510(2)
H63_2 H 0.7701 0.4218 0.7472
C88_2 C 0.9468(4) 0.3664(5) 0.70560(19)
C89_2 C 0.9576(4) 0.3143(4) 0.6888(2)
C90_2 C 0.9961(4) 0.3152(4) 0.66401(18)
C93_2 C 0.9767(4) 0.4177(4) 0.6978(2)
H66_2 H 0.9708 0.4531 0.7097
C95_2 C 0.9669(7) 0.2679(7) 0.7910(3)
H68_2 H 0.9628 0.2937 0.8093
H69_2 H 0.9347 0.238 0.791
C96_2 C 0.9465(7) 0.2049(5) 0.6858(4)
H70_2 H 0.9246 0.173 0.6966
H71_2 H 0.9358 0.2046 0.6638
H72_2 H 0.9897 0.1982 0.688
Cd9 Cd 0.13191(3) 0.63428(3) 0.926095(11)
O41_2 O 0.5832(3) 0.2819(3) 0.85002(14)
O42_2 O 0.2181(3) 0.0832(3) 0.64998(14)
O43_2 O 0.6792(3) 0.2954(2) 0.85678(13)
O44_2 O 0.2046(2) 0.1792(3) 0.64322(13)
O45_2 O 0.1442(3) 0.2134(2) 0.57884(12)
O46_2 O 0.5836(3) 0.4147(3) 0.86849(16)
O47_2 O 0.0853(3) 0.0836(3) 0.63151(16)
O48_2 O 0.6786(3) 0.4318(3) 0.86100(12)
O49_2 O 0.0682(3) 0.1786(3) 0.63900(12)
O19_2 O 0.0832(3) 0.7181(3) 0.89998(14)
O20_2 O 0.1792(3) 0.7046(2) 0.89322(13)
O21_2 O 0.0425(3) 0.8744(3) 0.77114(17)
O22_2 O 0.2292(3) 0.8399(3) 0.80131(14)
C35_2 C 0.0890(5) 0.9658(5) 0.7476(2)
H25_2 H 0.0578 0.9688 0.7327
C36_2 C 0.0879(5) 0.9189(5) 0.7697(2)
C37_2 C 0.1310(4) 0.9152(4) 0.79227(17)
C38_2 C 0.1752(5) 0.9572(4) 0.7918(2)
H26_2 H 0.2057 0.9558 0.8071
C40_2 C 0.1303(4) 0.8674(4) 0.81664(15)
C41_2 C 0.1814(5) 0.8305(4) 0.8213(2)
C42_2 C 0.1815(4) 0.7878(4) 0.84436(17)
H28_2 H 0.2164 0.7644 0.8479
C43_2 C 0.1300(5) 0.7787(4) 0.86263(17)
C44_2 C 0.0818(4) 0.8152(4) 0.8583(2)
H29_2 H 0.0471 0.8101 0.8708
C45_2 C 0.0828(4) 0.8596(4) 0.8361(2)
H30_2 H 0.0493 0.8855 0.8342
C46_2 C 0.1307(5) 0.7306(4) 0.88639(16)
H32_2 H 0.0057 0.8756 0.7289
C48_2 C 0.2803(4) 0.8039(4) 0.8046(2)
H34_2 H 0.3096 0.8146 0.7886
H35_2 H 0.2691 0.7617 0.8024
H36_2 H 0.2979 0.8104 0.8251
C47_2 C 0.9916(5) 0.8769(5) 0.7504(3)
H31_2 H 0.9653 0.8426 0.7543
H33_2 H 0.9694 0.9142 0.7539
O19_3 O 0.2819(3) 0.0832(3) 0.10002(14)
O20_3 O 0.2954(2) 0.1792(3) 0.10678(13)
O21_3 O 0.1256(3) 0.0425(3) 0.22886(17)
O22_3 O 0.1601(3) 0.2292(3) 0.19869(14)
C35_3 C 0.0342(5) 0.0890(5) 0.2524(2)
H25_3 H 0.0312 0.0578 0.2673
C36_3 C 0.0811(5) 0.0879(5) 0.2303(2)
C37_3 C 0.0848(4) 0.1310(4) 0.20773(17)
C38_3 C 0.0428(4) 0.1752(5) 0.2082(2)
H26_3 H 0.0442 0.2057 0.1929
C40_3 C 0.1326(4) 0.1303(4) 0.18336(15)
C41_3 C 0.1695(4) 0.1814(5) 0.1787(2)
C42_3 C 0.2122(4) 0.1815(4) 0.15564(17)
H28_3 H 0.2356 0.2164 0.1521
C43_3 C 0.2213(4) 0.1300(5) 0.13737(17)
C44_3 C 0.1848(4) 0.0818(4) 0.1417(2)
H29_3 H 0.1899 0.0471 0.1292
C45_3 C 0.1404(4) 0.0828(4) 0.1639(2)
H30_3 H 0.1145 0.0493 0.1658
C46_3 C 0.2694(4) 0.1307(5) 0.11361(16)
H32_3 H 0.1244 0.0057 0.2711
C48_3 C 0.1961(4) 0.2803(4) 0.1954(2)
H34_3 H 0.1854 0.3096 0.2114
H35_3 H 0.2383 0.2691 0.1976
H36_3 H 0.1896 0.2979 0.1749
Cd10_2 Cd 0.36572(3) 0.13191(3) 0.073905(11)
Cd14_2 Cd 0.36336(4) 0.25000 0.125
C47_3 C 0.1231(5) 0.9916(5) 0.2496(3)
H31_3 H 0.1574 0.9653 0.2457
H33_3 H 0.0858 0.9694 0.2461
O37_3 O 0.5836(3) 0.0853(3) 0.38151(16)
O38_2 O 0.6786(3) 0.0682(3) 0.38900(12)
H64_3 H 0.7209 0.0041 0.347
C91_3 C 0.6328(4) 0.0229(4) 0.34504(17)
C92_3 C 0.5812(4) 0.0152(4) 0.3271(2)
H65_3 H 0.5456 0.0365 0.332
C94_3 C 0.6338(5) 0.0619(4) 0.3740(2)
H67_3 H 0.7524 0.0058 0.2084
Cd7_2 Cd 0.63191(3) 0.13428(3) 0.426095(11)
Cd11_2 Cd 0.75000 0.13664(4) 0.375
Cd4_3 Cd 0.86809(3) 0.13428(3) 0.323905(11)
O17_3 O 0.9113(3) 0.1751(3) 0.27709(14)
O18_3 O 0.9475(3) 0.0960(3) 0.29725(15)
O23_3 O 0.7847(3) 0.1165(3) 0.29572(13)
O24_3 O 0.7134(2) 0.1442(3) 0.32884(12)
O25_3 O 0.4147(3) 0.0836(3) 0.11849(16)
O26_3 O 0.4318(3) 0.1786(3) 0.11100(12)
O27_3 O 0.5368(4) 0.1973(4) 0.26443(19)
O28_3 O 0.5692(3) 0.2378(4) 0.19912(19)
C33_3 C 0.9480(4) 0.1333(5) 0.2776(2)
C34_3 C 0.9931(4) 0.1349(5) 0.2525(2)
C39_3 C 0.9973(4) 0.1771(4) 0.2308(2)
H27_3 H 0.9692 0.209 0.2305
C49_3 C 0.7316(4) 0.1300(4) 0.3030(2)
C50_3 C 0.6851(4) 0.1303(4) 0.27786(17)
C51_3 C 0.6326(4) 0.1607(4) 0.28229(18)
H37_3 H 0.6257 0.1809 0.3013
C52_3 C 0.5900(4) 0.1624(5) 0.2597(2)
C53_3 C 0.5975(4) 0.1319(4) 0.2328(2)
C54_3 C 0.6473(5) 0.0974(6) 0.2293(2)
H38_3 H 0.6506 0.0719 0.2118
C55_3 C 0.6934(5) 0.0988(5) 0.2510(2)
H39_3 H 0.7299 0.0782 0.2472
C56_3 C 0.5532(4) 0.1336(5) 0.20560(19)
C57_3 C 0.5424(4) 0.1857(4) 0.1888(2)
C58_3 C 0.5039(4) 0.1848(4) 0.16401(18)
H40_3 H 0.4959 0.2209 0.153
C59_3 C 0.4771(4) 0.1328(4) 0.15496(17)
C60_3 C 0.4848(4) 0.0812(4) 0.1729(2)
H41_3 H 0.4635 0.0456 0.168
C61_3 C 0.5233(4) 0.0823(4) 0.1978(2)
H42_3 H 0.5292 0.0469 0.2097
C62_3 C 0.4381(4) 0.1338(5) 0.1260(2)
C63_3 C 0.5331(7) 0.2321(7) 0.2910(3)
H43_3 H 0.4942 0.2524 0.2916
H44_3 H 0.5372 0.2063 0.3093
H45_3 H 0.5653 0.262 0.291
C64_3 C 0.5535(7) 0.2951(5) 0.1858(4)
H46_3 H 0.5754 0.327 0.1966
H47_3 H 0.5642 0.2954 0.1638
H48_3 H 0.5103 0.3018 0.188
Cd6_3 Cd 0.63428(3) 0.63191(3) 0.176095(11)
O29_3 O 0.6751(3) 0.5887(3) 0.22291(14)
O30_3 O 0.5960(3) 0.5525(3) 0.20275(15)
O31_3 O 0.5832(3) 0.2181(3) 0.39998(14)
O32_3 O 0.6792(3) 0.2046(2) 0.39322(13)
O33_3 O 0.5425(3) 0.3744(3) 0.27114(17)
O34_3 O 0.7292(3) 0.3399(3) 0.30131(14)
O35_3 O 0.6165(3) 0.7153(3) 0.20428(13)
O36_3 O 0.6442(3) 0.7866(2) 0.17116(12)
O39_3 O 0.6973(4) 0.9632(4) 0.23557(19)
O40_3 O 0.7378(4) 0.9308(3) 0.30088(19)
C65_3 C 0.6333(5) 0.5520(4) 0.2224(2)
C66_3 C 0.6349(5) 0.5069(4) 0.2475(2)
C67_3 C 0.5890(5) 0.4658(5) 0.2476(2)
H49_3 H 0.5578 0.4688 0.2327
C68_3 C 0.5879(5) 0.4189(5) 0.2697(2)
C69_3 C 0.6310(4) 0.4152(4) 0.29227(17)
C70_3 C 0.6752(5) 0.4572(4) 0.2918(2)
H50_3 H 0.7057 0.4558 0.3071
C71_3 C 0.6771(4) 0.5027(4) 0.2692(2)
H51_3 H 0.709 0.5308 0.2695
C72_3 C 0.6303(4) 0.3674(4) 0.31664(15)
C73_3 C 0.6814(5) 0.3305(4) 0.3213(2)
C74_3 C 0.6815(4) 0.2878(4) 0.34436(17)
H52_3 H 0.7164 0.2644 0.3479
C75_3 C 0.6300(5) 0.2787(4) 0.36263(17)
C76_3 C 0.5818(4) 0.3152(4) 0.3583(2)
H53_3 H 0.5471 0.3101 0.3708
C77_3 C 0.5828(4) 0.3596(4) 0.3361(2)
H54_3 H 0.5493 0.3855 0.3342
C78_3 C 0.6307(5) 0.2306(4) 0.38639(16)
C79_3 C 0.4916(5) 0.3769(5) 0.2504(3)
H55_3 H 0.4653 0.3426 0.2543
H56_3 H 0.5057 0.3756 0.2289
H57_3 H 0.4694 0.4142 0.2539
C80_3 C 0.7803(4) 0.3039(4) 0.3046(2)
H58_3 H 0.8096 0.3146 0.2886
H59_3 H 0.7691 0.2617 0.3024
H60_3 H 0.7979 0.3104 0.3251
C81_3 C 0.6300(4) 0.7684(4) 0.1970(2)
C82_3 C 0.6303(4) 0.8149(4) 0.22214(17)
C83_3 C 0.6607(4) 0.8674(4) 0.21771(18)
H61_3 H 0.6809 0.8743 0.1987
C84_3 C 0.6624(5) 0.9100(4) 0.2403(2)
C85_3 C 0.6319(4) 0.9025(4) 0.2672(2)
C86_3 C 0.5974(6) 0.8527(5) 0.2707(2)
H62_3 H 0.5719 0.8494 0.2882
C87_3 C 0.5988(5) 0.8066(5) 0.2490(2)
H63_3 H 0.5782 0.7701 0.2528
C88_3 C 0.6336(5) 0.9468(4) 0.29440(19)
C89_3 C 0.6857(4) 0.9576(4) 0.3112(2)
C90_3 C 0.6848(4) 0.9961(4) 0.33599(18)
C93_3 C 0.5823(4) 0.9767(4) 0.3022(2)
H66_3 H 0.5469 0.9708 0.2903
C95_3 C 0.7321(7) 0.9669(7) 0.2090(3)
H68_3 H 0.7063 0.9628 0.1907
H69_3 H 0.762 0.9347 0.209
C96_3 C 0.7951(5) 0.9465(7) 0.3142(4)
H70_3 H 0.827 0.9246 0.3034
H71_3 H 0.7954 0.9358 0.3362
H72_3 H 0.8018 0.9897 0.312
Cd12_2 Cd 0.63664(4) 0.75000 0.125
O41_3 O 0.7181(3) 0.5832(3) 0.14998(14)
O42_3 O 0.9168(3) 0.2181(3) 0.35002(14)
O43_3 O 0.7046(2) 0.6792(3) 0.14322(13)
O44_3 O 0.8208(3) 0.2046(2) 0.35678(13)
O45_3 O 0.7866(2) 0.1442(3) 0.42116(12)
O46_3 O 0.5853(3) 0.5836(3) 0.13151(16)
O47_3 O 0.9164(3) 0.0853(3) 0.36849(16)
O48_3 O 0.5682(3) 0.6786(3) 0.13900(12)
O49_3 O 0.8214(3) 0.0682(3) 0.36100(12)
Cd4_4 Cd 0.13191(3) 0.86572(3) 0.323905(11)
Cd5_2 Cd 0.25000 0.86336(4) 0.375
O17_4 O 0.0887(3) 0.8249(3) 0.27709(14)
O18_4 O 0.0525(3) 0.9040(3) 0.29725(15)
O23_4 O 0.2153(3) 0.8835(3) 0.29572(13)
O24_4 O 0.2866(2) 0.8558(3) 0.32884(12)
O25_4 O 0.5853(3) 0.9164(3) 0.11849(16)
O26_4 O 0.5682(3) 0.8214(3) 0.11100(12)
O27_4 O 0.4632(4) 0.8027(4) 0.26443(19)
O28_4 O 0.4308(3) 0.7622(4) 0.19912(19)
C33_4 C 0.0520(4) 0.8667(5) 0.2776(2)
C34_4 C 0.0069(4) 0.8651(5) 0.2525(2)
C39_4 C 0.0027(4) 0.8229(4) 0.2308(2)
H27_4 H 0.0308 0.791 0.2305
C49_4 C 0.2684(4) 0.8700(4) 0.3030(2)
C50_4 C 0.3149(4) 0.8697(4) 0.27786(17)
C51_4 C 0.3674(4) 0.8393(4) 0.28229(18)
H37_4 H 0.3743 0.8191 0.3013
C52_4 C 0.4100(4) 0.8376(5) 0.2597(2)
C53_4 C 0.4025(4) 0.8681(4) 0.2328(2)
C54_4 C 0.3527(5) 0.9026(6) 0.2293(2)
H38_4 H 0.3494 0.9281 0.2118
C55_4 C 0.3066(5) 0.9012(5) 0.2510(2)
H39_4 H 0.2701 0.9218 0.2472
C56_4 C 0.4468(4) 0.8664(5) 0.20560(19)
C57_4 C 0.4576(4) 0.8143(4) 0.1888(2)
C58_4 C 0.4961(4) 0.8152(4) 0.16401(18)
H40_4 H 0.5041 0.7791 0.153
C59_4 C 0.5229(4) 0.8672(4) 0.15496(17)
C60_4 C 0.5152(4) 0.9188(4) 0.1729(2)
H41_4 H 0.5365 0.9544 0.168
C61_4 C 0.4767(4) 0.9177(4) 0.1978(2)
H42_4 H 0.4708 0.9531 0.2097
C62_4 C 0.5619(4) 0.8662(5) 0.1260(2)
C63_4 C 0.4669(7) 0.7679(7) 0.2910(3)
H43_4 H 0.5058 0.7476 0.2916
H44_4 H 0.4628 0.7937 0.3093
H45_4 H 0.4347 0.738 0.291
C64_4 C 0.4465(7) 0.7049(5) 0.1858(4)
H46_4 H 0.4246 0.673 0.1966
H47_4 H 0.4358 0.7046 0.1638
H48_4 H 0.4897 0.6982 0.188
Cd6_4 Cd 0.36572(3) 0.36809(3) 0.176095(11)
O29_4 O 0.3249(3) 0.4113(3) 0.22291(14)
O30_4 O 0.4040(3) 0.4475(3) 0.20275(15)
O31_4 O 0.4168(3) 0.7819(3) 0.39998(14)
O32_4 O 0.3208(3) 0.7954(2) 0.39322(13)
O33_4 O 0.4575(3) 0.6256(3) 0.27114(17)
O34_4 O 0.2708(3) 0.6601(3) 0.30131(14)
O35_4 O 0.3835(3) 0.2847(3) 0.20428(13)
O36_4 O 0.3558(3) 0.2134(2) 0.17116(12)
O39_4 O 0.3027(4) 0.0368(4) 0.23557(19)
O40_4 O 0.2622(4) 0.0692(3) 0.30088(19)
C65_4 C 0.3667(5) 0.4480(4) 0.2224(2)
C66_4 C 0.3651(5) 0.4931(4) 0.2475(2)
C67_4 C 0.4110(5) 0.5342(5) 0.2476(2)
H49_4 H 0.4422 0.5312 0.2327
C68_4 C 0.4121(5) 0.5811(5) 0.2697(2)
C69_4 C 0.3690(4) 0.5848(4) 0.29227(17)
C70_4 C 0.3248(5) 0.5428(4) 0.2918(2)
H50_4 H 0.2943 0.5442 0.3071
C71_4 C 0.3229(4) 0.4973(4) 0.2692(2)
H51_4 H 0.291 0.4692 0.2695
C72_4 C 0.3697(4) 0.6326(4) 0.31664(15)
C73_4 C 0.3186(5) 0.6695(4) 0.3213(2)
C74_4 C 0.3185(4) 0.7122(4) 0.34436(17)
H52_4 H 0.2836 0.7356 0.3479
C75_4 C 0.3700(5) 0.7213(4) 0.36263(17)
C76_4 C 0.4182(4) 0.6848(4) 0.3583(2)
H53_4 H 0.4529 0.6899 0.3708
C77_4 C 0.4172(4) 0.6404(4) 0.3361(2)
H54_4 H 0.4507 0.6145 0.3342
C78_4 C 0.3693(5) 0.7694(4) 0.38639(16)
C79_4 C 0.5084(5) 0.6231(5) 0.2504(3)
H55_4 H 0.5347 0.6574 0.2543
H56_4 H 0.4943 0.6244 0.2289
H57_4 H 0.5306 0.5858 0.2539
C80_4 C 0.2197(4) 0.6961(4) 0.3046(2)
H58_4 H 0.1904 0.6854 0.2886
H59_4 H 0.2309 0.7383 0.3024
H60_4 H 0.2021 0.6896 0.3251
C81_4 C 0.3700(4) 0.2316(4) 0.1970(2)
C82_4 C 0.3697(4) 0.1851(4) 0.22214(17)
C83_4 C 0.3393(4) 0.1326(4) 0.21771(18)
H61_4 H 0.3191 0.1257 0.1987
C84_4 C 0.3376(5) 0.0900(4) 0.2403(2)
C85_4 C 0.3681(4) 0.0975(4) 0.2672(2)
C86_4 C 0.4026(6) 0.1473(5) 0.2707(2)
H62_4 H 0.4281 0.1506 0.2882
C87_4 C 0.4012(5) 0.1934(5) 0.2490(2)
H63_4 H 0.4218 0.2299 0.2528
C88_4 C 0.3664(5) 0.0532(4) 0.29440(19)
C89_4 C 0.3143(4) 0.0424(4) 0.3112(2)
C90_4 C 0.3152(4) 0.0039(4) 0.33599(18)
C93_4 C 0.4177(4) 0.0233(4) 0.3022(2)
H66_4 H 0.4531 0.0292 0.2903
C95_4 C 0.2679(7) 0.0331(7) 0.2090(3)
H68_4 H 0.2937 0.0372 0.1907
H69_4 H 0.238 0.0653 0.209
C96_4 C 0.2049(5) 0.0535(7) 0.3142(4)
H70_4 H 0.173 0.0754 0.3034
H71_4 H 0.2046 0.0642 0.3362
H72_4 H 0.1982 0.0103 0.312
Cd8_2 Cd 0.36809(3) 0.86572(3) 0.426095(11)
Cd9_2 Cd 0.63428(3) 0.86809(3) 0.073905(11)
O41_4 O 0.2819(3) 0.4168(3) 0.14998(14)
O42_4 O 0.0832(3) 0.7819(3) 0.35002(14)
O43_4 O 0.2954(2) 0.3208(3) 0.14322(13)
O44_4 O 0.1792(3) 0.7954(2) 0.35678(13)
O45_4 O 0.2134(2) 0.8558(3) 0.42116(12)
O46_4 O 0.4147(3) 0.4164(3) 0.13151(16)
O47_4 O 0.0836(3) 0.9147(3) 0.36849(16)
O48_4 O 0.4318(3) 0.3214(3) 0.13900(12)
O49_4 O 0.1786(3) 0.9318(3) 0.36100(12)
O50_2 O 0.3214(3) 0.9318(3) 0.38900(12)
O37_4 O 0.4164(3) 0.9147(3) 0.38151(16)
H64_4 H 0.2791 0.9959 0.347
C91_4 C 0.3672(4) 0.9771(4) 0.34504(17)
C92_4 C 0.4188(4) 0.9848(4) 0.3271(2)
H65_4 H 0.4544 0.9635 0.332
C94_4 C 0.3662(5) 0.9381(4) 0.3740(2)
H67_4 H 0.2476 0.9942 0.2084
C47_4 C 0.8769(5) 0.0084(5) 0.2496(3)
H31_4 H 0.8426 0.0347 0.2457
H33_4 H 0.9142 0.0306 0.2461
O19_4 O 0.7181(3) 0.9168(3) 0.10002(14)
O20_4 O 0.7046(2) 0.8208(3) 0.10678(13)
O21_4 O 0.8744(3) 0.9575(3) 0.22886(17)
O22_4 O 0.8399(3) 0.7708(3) 0.19869(14)
C35_4 C 0.9658(5) 0.9110(5) 0.2524(2)
H25_4 H 0.9688 0.9422 0.2673
C36_4 C 0.9189(5) 0.9121(5) 0.2303(2)
C37_4 C 0.9152(4) 0.8690(4) 0.20773(17)
C38_4 C 0.9572(4) 0.8248(5) 0.2082(2)
H26_4 H 0.9558 0.7943 0.1929
C40_4 C 0.8674(4) 0.8697(4) 0.18336(15)
C41_4 C 0.8305(4) 0.8186(5) 0.1787(2)
C42_4 C 0.7878(4) 0.8185(4) 0.15564(17)
H28_4 H 0.7644 0.7836 0.1521
C43_4 C 0.7787(4) 0.8700(5) 0.13737(17)
C44_4 C 0.8152(4) 0.9182(4) 0.1417(2)
H29_4 H 0.8101 0.9529 0.1292
C45_4 C 0.8596(4) 0.9172(4) 0.1639(2)
H30_4 H 0.8855 0.9507 0.1658
C46_4 C 0.7306(4) 0.8693(5) 0.11361(16)
H32_4 H 0.8756 0.9943 0.2711
C48_4 C 0.8039(4) 0.7197(4) 0.1954(2)
H34_4 H 0.8146 0.6904 0.2114
H35_4 H 0.7617 0.7309 0.1976
H36_4 H 0.8104 0.7021 0.1749
O40_5 O 0.4308(3) 0.7378(4) 0.05088(19)
C71_5 C 0.0027(4) 0.6771(4) 0.0192(2)
H51_5 H 0.0308 0.709 0.0195
C85_5 C 0.4025(4) 0.6319(4) 0.0172(2)
C86_5 C 0.3527(5) 0.5974(6) 0.0207(2)
H62_5 H 0.3494 0.5719 0.0382
H63_5 H 0.2701 0.5782 0.0028
C88_5 C 0.4468(4) 0.6336(5) 0.04440(19)
C89_5 C 0.4576(4) 0.6857(4) 0.0612(2)
C90_5 C 0.4961(4) 0.6848(4) 0.08599(18)
H64_5 H 0.5041 0.7209 0.097
C91_5 C 0.5229(4) 0.6328(4) 0.09504(17)
C92_5 C 0.5152(4) 0.5812(4) 0.0771(2)
H65_5 H 0.5365 0.5456 0.082
C93_5 C 0.4767(4) 0.5823(4) 0.0522(2)
H66_5 H 0.4708 0.5469 0.0403
C94_5 C 0.5619(4) 0.6338(5) 0.1240(2)
C96_5 C 0.4465(7) 0.7951(5) 0.0642(4)
H70_5 H 0.4246 0.827 0.0534
H71_5 H 0.4358 0.7954 0.0862
H72_5 H 0.4897 0.8018 0.062
O29_5 O 0.0887(3) 0.6751(3) 0.97291(14)
O30_5 O 0.0525(3) 0.5960(3) 0.95275(15)
O35_5 O 0.2153(3) 0.6165(3) 0.95428(13)
O36_5 O 0.2866(2) 0.6442(3) 0.92116(12)
O39_5 O 0.4632(4) 0.6973(4) 0.98557(19)
C65_5 C 0.0520(4) 0.6333(5) 0.9724(2)
C66_5 C 0.0069(4) 0.6349(5) 0.9975(2)
C81_5 C 0.2684(4) 0.6300(4) 0.9470(2)
C82_5 C 0.3149(4) 0.6303(4) 0.97214(17)
C83_5 C 0.3674(4) 0.6607(4) 0.96771(18)
H61_5 H 0.3743 0.6809 0.9487
C84_5 C 0.4100(4) 0.6624(5) 0.9903(2)
C87_5 C 0.3066(5) 0.5988(5) 0.9990(2)
C95_5 C 0.4669(7) 0.7321(7) 0.9590(3)
H67_5 H 0.5058 0.7524 0.9584
H68_5 H 0.4628 0.7063 0.9407
H69_5 H 0.4347 0.762 0.959
C35_5 C 0.5890(5) 0.0342(5) 0.0024(2)
H25_5 H 0.5578 0.0312 0.0173
H32_5 H 0.5057 0.1244 0.0211
O21_5 O 0.5425(3) 0.1256(3) 0.97886(17)
O22_5 O 0.7292(3) 0.1601(3) 0.94869(14)
C36_5 C 0.5879(5) 0.0811(5) 0.9803(2)
C37_5 C 0.6310(4) 0.0848(4) 0.95773(17)
C38_5 C 0.6752(5) 0.0428(4) 0.9582(2)
H26_5 H 0.7057 0.0442 0.9429
C40_5 C 0.6303(4) 0.1326(4) 0.93336(15)
C41_5 C 0.6814(5) 0.1695(4) 0.9287(2)
C42_5 C 0.6815(4) 0.2122(4) 0.90564(17)
H28_5 H 0.7164 0.2356 0.9021
C43_5 C 0.6300(5) 0.2213(4) 0.88737(17)
C44_5 C 0.5818(4) 0.1848(4) 0.8917(2)
H29_5 H 0.5471 0.1899 0.8792
C45_5 C 0.5828(4) 0.1404(4) 0.9139(2)
H30_5 H 0.5493 0.1145 0.9158
C46_5 C 0.6307(5) 0.2694(4) 0.86361(16)
C47_5 C 0.4916(5) 0.1231(5) 0.9996(3)
H31_5 H 0.4653 0.1574 0.9957
H33_5 H 0.4694 0.0858 0.9961
C48_5 C 0.7803(4) 0.1961(4) 0.9454(2)
H34_5 H 0.8096 0.1854 0.9614
H35_5 H 0.7691 0.2383 0.9476
H36_5 H 0.7979 0.1896 0.9249
O17_5 O 0.6751(3) 0.9113(3) 0.02709(14)
O18_5 O 0.5960(3) 0.9475(3) 0.04725(15)
O23_5 O 0.6165(3) 0.7847(3) 0.04572(13)
O24_5 O 0.6442(3) 0.7134(2) 0.07884(12)
O27_5 O 0.6973(4) 0.5368(4) 0.01443(19)
C33_5 C 0.6333(5) 0.9480(4) 0.0276(2)
C34_5 C 0.6349(5) 0.9931(4) 0.0025(2)
C49_5 C 0.6300(4) 0.7316(4) 0.0530(2)
C50_5 C 0.6303(4) 0.6851(4) 0.02786(17)
C51_5 C 0.6607(4) 0.6326(4) 0.03229(18)
H37_5 H 0.6809 0.6257 0.0513
C52_5 C 0.6624(5) 0.5900(4) 0.0097(2)
C55_5 C 0.5988(5) 0.6934(5) 0.0010(2)
C63_5 C 0.7321(7) 0.5331(7) 0.0410(3)
H43_5 H 0.7524 0.4942 0.0416
H44_5 H 0.7063 0.5372 0.0593
H45_5 H 0.762 0.5653 0.041
O33_5 O 0.8744(3) 0.5425(3) 0.02114(17)
O34_5 O 0.8399(3) 0.7292(3) 0.05131(14)
C68_5 C 0.9189(5) 0.5879(5) 0.0197(2)
C69_5 C 0.9152(4) 0.6310(4) 0.04227(17)
C70_5 C 0.9572(4) 0.6752(5) 0.0418(2)
H50_5 H 0.9558 0.7057 0.0571
C72_5 C 0.8674(4) 0.6303(4) 0.06664(15)
C73_5 C 0.8305(4) 0.6814(5) 0.0713(2)
C74_5 C 0.7878(4) 0.6815(4) 0.09436(17)
H52_5 H 0.7644 0.7164 0.0979
C75_5 C 0.7787(4) 0.6300(5) 0.11263(17)
C76_5 C 0.8152(4) 0.5818(4) 0.1083(2)
H53_5 H 0.8101 0.5471 0.1208
C77_5 C 0.8596(4) 0.5828(4) 0.0861(2)
H54_5 H 0.8855 0.5493 0.0842
C78_5 C 0.7306(4) 0.6307(5) 0.13639(16)
C79_5 C 0.8769(5) 0.4916(5) 0.0004(3)
H55_5 H 0.8426 0.4653 0.0043
H57_5 H 0.9142 0.4694 0.0039
C80_5 C 0.8039(4) 0.7803(4) 0.0546(2)
H58_5 H 0.8146 0.8096 0.0386
H59_5 H 0.7617 0.7691 0.0524
H60_5 H 0.8104 0.7979 0.0751
O28_5 O 0.7378(4) 0.5692(3) 0.94912(19)
C39_5 C 0.6771(4) 0.9973(4) 0.9808(2)
H27_5 H 0.709 0.9692 0.9805
C53_5 C 0.6319(4) 0.5975(4) 0.9828(2)
C54_5 C 0.5974(6) 0.6473(5) 0.9793(2)
H38_5 H 0.5719 0.6506 0.9618
H39_5 H 0.5782 0.7299 0.9972
C56_5 C 0.6336(5) 0.5532(4) 0.95560(19)
C57_5 C 0.6857(4) 0.5424(4) 0.9388(2)
C58_5 C 0.6848(4) 0.5039(4) 0.91401(18)
H40_5 H 0.7209 0.4959 0.903
C59_5 C 0.6328(4) 0.4771(4) 0.90496(17)
C60_5 C 0.5812(4) 0.4848(4) 0.9229(2)
H41_5 H 0.5456 0.4635 0.918
C61_5 C 0.5823(4) 0.5233(4) 0.9478(2)
H42_5 H 0.5469 0.5292 0.9597
C62_5 C 0.6338(5) 0.4381(4) 0.8760(2)
C64_5 C 0.7951(5) 0.5535(7) 0.9358(4)
H46_5 H 0.827 0.5754 0.9466
H47_5 H 0.7954 0.5642 0.9138
H48_5 H 0.8018 0.5103 0.938
C67_5 C 0.9658(5) 0.5890(5) 0.9976(2)
H49_5 H 0.9688 0.5578 0.9827
H56_5 H 0.8756 0.5057 0.9789
O17_6 O 0.3249(3) 0.0887(3) 0.02709(14)
O18_6 O 0.4040(3) 0.0525(3) 0.04725(15)
O23_6 O 0.3835(3) 0.2153(3) 0.04572(13)
O24_6 O 0.3558(3) 0.2866(2) 0.07884(12)
O27_6 O 0.3027(4) 0.4632(4) 0.01443(19)
C33_6 C 0.3667(5) 0.0520(4) 0.0276(2)
C34_6 C 0.3651(5) 0.0069(4) 0.0025(2)
C49_6 C 0.3700(4) 0.2684(4) 0.0530(2)
C50_6 C 0.3697(4) 0.3149(4) 0.02786(17)
C51_6 C 0.3393(4) 0.3674(4) 0.03229(18)
H37_6 H 0.3191 0.3743 0.0513
C52_6 C 0.3376(5) 0.4100(4) 0.0097(2)
C55_6 C 0.4012(5) 0.3066(5) 0.0010(2)
C63_6 C 0.2679(7) 0.4669(7) 0.0410(3)
H43_6 H 0.2476 0.5058 0.0416
H44_6 H 0.2937 0.4628 0.0593
H45_6 H 0.238 0.4347 0.041
O33_6 O 0.1256(3) 0.4575(3) 0.02114(17)
O34_6 O 0.1601(3) 0.2708(3) 0.05131(14)
C68_6 C 0.0811(5) 0.4121(5) 0.0197(2)
C69_6 C 0.0848(4) 0.3690(4) 0.04227(17)
C70_6 C 0.0428(4) 0.3248(5) 0.0418(2)
H50_6 H 0.0442 0.2943 0.0571
C72_6 C 0.1326(4) 0.3697(4) 0.06664(15)
C73_6 C 0.1695(4) 0.3186(5) 0.0713(2)
C74_6 C 0.2122(4) 0.3185(4) 0.09436(17)
H52_6 H 0.2356 0.2836 0.0979
C75_6 C 0.2213(4) 0.3700(5) 0.11263(17)
C76_6 C 0.1848(4) 0.4182(4) 0.1083(2)
H53_6 H 0.1899 0.4529 0.1208
C77_6 C 0.1404(4) 0.4172(4) 0.0861(2)
H54_6 H 0.1145 0.4507 0.0842
C78_6 C 0.2694(4) 0.3693(5) 0.13639(16)
C79_6 C 0.1231(5) 0.5084(5) 0.0004(3)
H55_6 H 0.1574 0.5347 0.0043
H57_6 H 0.0858 0.5306 0.0039
C80_6 C 0.1961(4) 0.2197(4) 0.0546(2)
H58_6 H 0.1854 0.1904 0.0386
H59_6 H 0.2383 0.2309 0.0524
H60_6 H 0.1896 0.2021 0.0751
O28_6 O 0.2622(4) 0.4308(3) 0.94912(19)
C39_6 C 0.3229(4) 0.0027(4) 0.9808(2)
H27_6 H 0.291 0.0308 0.9805
C53_6 C 0.3681(4) 0.4025(4) 0.9828(2)
C54_6 C 0.4026(6) 0.3527(5) 0.9793(2)
H38_6 H 0.4281 0.3494 0.9618
H39_6 H 0.4218 0.2701 0.9972
C56_6 C 0.3664(5) 0.4468(4) 0.95560(19)
C57_6 C 0.3143(4) 0.4576(4) 0.9388(2)
C58_6 C 0.3152(4) 0.4961(4) 0.91401(18)
H40_6 H 0.2791 0.5041 0.903
C59_6 C 0.3672(4) 0.5229(4) 0.90496(17)
C60_6 C 0.4188(4) 0.5152(4) 0.9229(2)
H41_6 H 0.4544 0.5365 0.918
C61_6 C 0.4177(4) 0.4767(4) 0.9478(2)
H42_6 H 0.4531 0.4708 0.9597
C62_6 C 0.3662(5) 0.5619(4) 0.8760(2)
C64_6 C 0.2049(5) 0.4465(7) 0.9358(4)
H46_6 H 0.173 0.4246 0.9466
H47_6 H 0.2046 0.4358 0.9138
H48_6 H 0.1982 0.4897 0.938
C67_6 C 0.0342(5) 0.4110(5) 0.9976(2)
H49_6 H 0.0312 0.4422 0.9827
H56_6 H 0.1244 0.4943 0.9789
C35_6 C 0.4110(5) 0.9658(5) 0.0024(2)
H25_6 H 0.4422 0.9688 0.0173
H32_6 H 0.4943 0.8756 0.0211
O21_6 O 0.4575(3) 0.8744(3) 0.97886(17)
O22_6 O 0.2708(3) 0.8399(3) 0.94869(14)
C36_6 C 0.4121(5) 0.9189(5) 0.9803(2)
C37_6 C 0.3690(4) 0.9152(4) 0.95773(17)
C38_6 C 0.3248(5) 0.9572(4) 0.9582(2)
H26_6 H 0.2943 0.9558 0.9429
C40_6 C 0.3697(4) 0.8674(4) 0.93336(15)
C41_6 C 0.3186(5) 0.8305(4) 0.9287(2)
C42_6 C 0.3185(4) 0.7878(4) 0.90564(17)
H28_6 H 0.2836 0.7644 0.9021
C43_6 C 0.3700(5) 0.7787(4) 0.88737(17)
C44_6 C 0.4182(4) 0.8152(4) 0.8917(2)
H29_6 H 0.4529 0.8101 0.8792
C45_6 C 0.4172(4) 0.8596(4) 0.9139(2)
H30_6 H 0.4507 0.8855 0.9158
C46_6 C 0.3693(5) 0.7306(4) 0.86361(16)
C47_6 C 0.5084(5) 0.8769(5) 0.9996(3)
H31_6 H 0.5347 0.8426 0.9957
H33_6 H 0.5306 0.9142 0.9961
C48_6 C 0.2197(4) 0.8039(4) 0.9454(2)
H34_6 H 0.1904 0.8146 0.9614
H35_6 H 0.2309 0.7617 0.9476
H36_6 H 0.2021 0.8104 0.9249
O40_6 O 0.5692(3) 0.2622(4) 0.05088(19)
C71_6 C 0.9973(4) 0.3229(4) 0.0192(2)
H51_6 H 0.9692 0.291 0.0195
C85_6 C 0.5975(4) 0.3681(4) 0.0172(2)
C86_6 C 0.6473(5) 0.4026(6) 0.0207(2)
H62_6 H 0.6506 0.4281 0.0382
H63_6 H 0.7299 0.4218 0.0028
C88_6 C 0.5532(4) 0.3664(5) 0.04440(19)
C89_6 C 0.5424(4) 0.3143(4) 0.0612(2)
C90_6 C 0.5039(4) 0.3152(4) 0.08599(18)
H64_6 H 0.4959 0.2791 0.097
C91_6 C 0.4771(4) 0.3672(4) 0.09504(17)
C92_6 C 0.4848(4) 0.4188(4) 0.0771(2)
H65_6 H 0.4635 0.4544 0.082
C93_6 C 0.5233(4) 0.4177(4) 0.0522(2)
H66_6 H 0.5292 0.4531 0.0403
C94_6 C 0.4381(4) 0.3662(5) 0.1240(2)
C96_6 C 0.5535(7) 0.2049(5) 0.0642(4)
H70_6 H 0.5754 0.173 0.0534
H71_6 H 0.5642 0.2046 0.0862
H72_6 H 0.5103 0.1982 0.062
O29_6 O 0.9113(3) 0.3249(3) 0.97291(14)
O30_6 O 0.9475(3) 0.4040(3) 0.95275(15)
O35_6 O 0.7847(3) 0.3835(3) 0.95428(13)
O36_6 O 0.7134(2) 0.3558(3) 0.92116(12)
O39_6 O 0.5368(4) 0.3027(4) 0.98557(19)
C65_6 C 0.9480(4) 0.3667(5) 0.9724(2)
C66_6 C 0.9931(4) 0.3651(5) 0.9975(2)
C81_6 C 0.7316(4) 0.3700(4) 0.9470(2)
C82_6 C 0.6851(4) 0.3697(4) 0.97214(17)
C83_6 C 0.6326(4) 0.3393(4) 0.96771(18)
H61_6 H 0.6257 0.3191 0.9487
C84_6 C 0.5900(4) 0.3376(5) 0.9903(2)
C87_6 C 0.6934(5) 0.4012(5) 0.9990(2)
C95_6 C 0.5331(7) 0.2679(7) 0.9590(3)
H67_6 H 0.4942 0.2476 0.9584
H68_6 H 0.5372 0.2937 0.9407
H69_6 H 0.5653 0.238 0.959
H40_7 H 0.0041 0.2209 0.597
C59_7 C 0.0229(4) 0.1328(4) 0.59504(17)
C60_7 C 0.0152(4) 0.0812(4) 0.5771(2)
H41_7 H 0.0365 0.0456 0.582
C62_7 C 0.0619(4) 0.1338(5) 0.6240(2)
H43_7 H 0.0058 0.2524 0.4584
C79_7 C 0.0084(5) 0.3769(5) 0.4996(3)
H55_7 H 0.0347 0.3426 0.4957
H57_7 H 0.0306 0.4142 0.4961
H64_7 H 0.7791 0.0041 0.403
C91_7 C 0.8672(4) 0.0229(4) 0.40496(17)
C92_7 C 0.9188(4) 0.0152(4) 0.4229(2)
H65_7 H 0.9544 0.0365 0.418
C94_7 C 0.8662(5) 0.0619(4) 0.3760(2)
H67_7 H 0.7476 0.0058 0.5416
O17_7 O 0.5887(3) 0.1751(3) 0.47291(14)
O18_7 O 0.5525(3) 0.0960(3) 0.45275(15)
O21_7 O 0.3744(3) 0.0425(3) 0.52114(17)
O22_7 O 0.3399(3) 0.2292(3) 0.55131(14)
O23_7 O 0.7153(3) 0.1165(3) 0.45428(13)
O27_7 O 0.9632(4) 0.1973(4) 0.48557(19)
O28_7 O 0.9308(3) 0.2378(4) 0.55088(19)
C33_7 C 0.5520(4) 0.1333(5) 0.4724(2)
C34_7 C 0.5069(4) 0.1349(5) 0.4975(2)
C35_7 C 0.4658(5) 0.0890(5) 0.4976(2)
H25_7 H 0.4688 0.0578 0.4827
C36_7 C 0.4189(5) 0.0879(5) 0.5197(2)
C37_7 C 0.4152(4) 0.1310(4) 0.54227(17)
C38_7 C 0.4572(4) 0.1752(5) 0.5418(2)
H26_7 H 0.4558 0.2057 0.5571
C39_7 C 0.5027(4) 0.1771(4) 0.5192(2)
H27_7 H 0.5308 0.209 0.5195
C40_7 C 0.3674(4) 0.1303(4) 0.56664(15)
C41_7 C 0.3305(4) 0.1814(5) 0.5713(2)
C42_7 C 0.2878(4) 0.1815(4) 0.59436(17)
H28_7 H 0.2644 0.2164 0.5979
C43_7 C 0.2787(4) 0.1300(5) 0.61263(17)
C44_7 C 0.3152(4) 0.0818(4) 0.6083(2)
H29_7 H 0.3101 0.0471 0.6208
C45_7 C 0.3596(4) 0.0828(4) 0.5861(2)
H30_7 H 0.3855 0.0493 0.5842
C46_7 C 0.2306(4) 0.1307(5) 0.63639(16)
H32_7 H 0.3756 0.0057 0.4789
C48_7 C 0.3039(4) 0.2803(4) 0.5546(2)
H34_7 H 0.3146 0.3096 0.5386
H35_7 H 0.2617 0.2691 0.5524
H36_7 H 0.3104 0.2979 0.5751
C49_7 C 0.7684(4) 0.1300(4) 0.4470(2)
C50_7 C 0.8149(4) 0.1303(4) 0.47214(17)
C51_7 C 0.8674(4) 0.1607(4) 0.46771(18)
H37_7 H 0.8743 0.1809 0.4487
C52_7 C 0.9100(4) 0.1624(5) 0.4903(2)
C53_7 C 0.9025(4) 0.1319(4) 0.5172(2)
C54_7 C 0.8527(5) 0.0974(6) 0.5207(2)
H38_7 H 0.8494 0.0719 0.5382
C55_7 C 0.8066(5) 0.0988(5) 0.4990(2)
H39_7 H 0.7701 0.0782 0.5028
C56_7 C 0.9468(4) 0.1336(5) 0.54440(19)
C57_7 C 0.9576(4) 0.1857(4) 0.5612(2)
C58_7 C 0.9961(4) 0.1848(4) 0.58599(18)
C61_7 C 0.9767(4) 0.0823(4) 0.5522(2)
H42_7 H 0.9708 0.0469 0.5403
C63_7 C 0.9669(7) 0.2321(7) 0.4590(3)
H44_7 H 0.9628 0.2063 0.4407
H45_7 H 0.9347 0.262 0.459
C64_7 C 0.9465(7) 0.2951(5) 0.5642(4)
H46_7 H 0.9246 0.327 0.5534
H47_7 H 0.9358 0.2954 0.5862
H48_7 H 0.9897 0.3018 0.562
O29_7 O 0.8249(3) 0.5887(3) 0.52709(14)
O30_7 O 0.9040(3) 0.5525(3) 0.54725(15)
O33_7 O 0.9575(3) 0.3744(3) 0.47886(17)
O34_7 O 0.7708(3) 0.3399(3) 0.44869(14)
O35_7 O 0.8835(3) 0.7153(3) 0.54572(13)
O39_7 O 0.8027(4) 0.9632(4) 0.51443(19)
O40_7 O 0.7622(4) 0.9308(3) 0.44912(19)
C65_7 C 0.8667(5) 0.5520(4) 0.5276(2)
C66_7 C 0.8651(5) 0.5069(4) 0.5025(2)
C67_7 C 0.9110(5) 0.4658(5) 0.5024(2)
H49_7 H 0.9422 0.4688 0.5173
C68_7 C 0.9121(5) 0.4189(5) 0.4803(2)
C69_7 C 0.8690(4) 0.4152(4) 0.45773(17)
C70_7 C 0.8248(5) 0.4572(4) 0.4582(2)
H50_7 H 0.7943 0.4558 0.4429
C71_7 C 0.8229(4) 0.5027(4) 0.4808(2)
H51_7 H 0.791 0.5308 0.4805
C72_7 C 0.8697(4) 0.3674(4) 0.43336(15)
C73_7 C 0.8186(5) 0.3305(4) 0.4287(2)
C74_7 C 0.8185(4) 0.2878(4) 0.40564(17)
H52_7 H 0.7836 0.2644 0.4021
C75_7 C 0.8700(5) 0.2787(4) 0.38737(17)
C76_7 C 0.9182(4) 0.3152(4) 0.3917(2)
H53_7 H 0.9529 0.3101 0.3792
C77_7 C 0.9172(4) 0.3596(4) 0.4139(2)
H54_7 H 0.9507 0.3855 0.4158
C78_7 C 0.8693(5) 0.2306(4) 0.36361(16)
H56_7 H 0.9943 0.3756 0.5211
C80_7 C 0.7197(4) 0.3039(4) 0.4454(2)
H58_7 H 0.6904 0.3146 0.4614
H59_7 H 0.7309 0.2617 0.4476
H60_7 H 0.7021 0.3104 0.4249
C81_7 C 0.8700(4) 0.7684(4) 0.5530(2)
C82_7 C 0.8697(4) 0.8149(4) 0.52786(17)
C83_7 C 0.8393(4) 0.8674(4) 0.53229(18)
H61_7 H 0.8191 0.8743 0.5513
C84_7 C 0.8376(5) 0.9100(4) 0.5097(2)
C85_7 C 0.8681(4) 0.9025(4) 0.4828(2)
C86_7 C 0.9026(6) 0.8527(5) 0.4793(2)
H62_7 H 0.9281 0.8494 0.4618
C87_7 C 0.9012(5) 0.8066(5) 0.5010(2)
H63_7 H 0.9218 0.7701 0.4972
C88_7 C 0.8664(5) 0.9468(4) 0.45560(19)
C89_7 C 0.8143(4) 0.9576(4) 0.4388(2)
C90_7 C 0.8152(4) 0.9961(4) 0.41401(18)
C93_7 C 0.9177(4) 0.9767(4) 0.4478(2)
H66_7 H 0.9531 0.9708 0.4597
C95_7 C 0.7679(7) 0.9669(7) 0.5410(3)
H68_7 H 0.7937 0.9628 0.5593
H69_7 H 0.738 0.9347 0.541
C96_7 C 0.7049(5) 0.9465(7) 0.4358(4)
H70_7 H 0.673 0.9246 0.4466
H71_7 H 0.7046 0.9358 0.4138
H72_7 H 0.6982 0.9897 0.438
C47_7 C 0.3769(5) 0.9916(5) 0.5004(3)
H31_7 H 0.3426 0.9653 0.5043
H33_7 H 0.4142 0.9694 0.5039
C47_8 C 0.6231(5) 0.0084(5) 0.5004(3)
H31_8 H 0.6574 0.0347 0.5043
H33_8 H 0.5858 0.0306 0.5039
O17_8 O 0.4113(3) 0.8249(3) 0.47291(14)
O18_8 O 0.4475(3) 0.9040(3) 0.45275(15)
O21_8 O 0.6256(3) 0.9575(3) 0.52114(17)
O22_8 O 0.6601(3) 0.7708(3) 0.55131(14)
O23_8 O 0.2847(3) 0.8835(3) 0.45428(13)
O27_8 O 0.0368(4) 0.8027(4) 0.48557(19)
O28_8 O 0.0692(3) 0.7622(4) 0.55088(19)
C33_8 C 0.4480(4) 0.8667(5) 0.4724(2)
C34_8 C 0.4931(4) 0.8651(5) 0.4975(2)
C35_8 C 0.5342(5) 0.9110(5) 0.4976(2)
H25_8 H 0.5312 0.9422 0.4827
C36_8 C 0.5811(5) 0.9121(5) 0.5197(2)
C37_8 C 0.5848(4) 0.8690(4) 0.54227(17)
C38_8 C 0.5428(4) 0.8248(5) 0.5418(2)
H26_8 H 0.5442 0.7943 0.5571
C39_8 C 0.4973(4) 0.8229(4) 0.5192(2)
H27_8 H 0.4692 0.791 0.5195
C40_8 C 0.6326(4) 0.8697(4) 0.56664(15)
C41_8 C 0.6695(4) 0.8186(5) 0.5713(2)
C42_8 C 0.7122(4) 0.8185(4) 0.59436(17)
H28_8 H 0.7356 0.7836 0.5979
C43_8 C 0.7213(4) 0.8700(5) 0.61263(17)
C44_8 C 0.6848(4) 0.9182(4) 0.6083(2)
H29_8 H 0.6899 0.9529 0.6208
C45_8 C 0.6404(4) 0.9172(4) 0.5861(2)
H30_8 H 0.6145 0.9507 0.5842
C46_8 C 0.7694(4) 0.8693(5) 0.63639(16)
H32_8 H 0.6244 0.9943 0.4789
C48_8 C 0.6961(4) 0.7197(4) 0.5546(2)
H34_8 H 0.6854 0.6904 0.5386
H35_8 H 0.7383 0.7309 0.5524
H36_8 H 0.6896 0.7021 0.5751
C49_8 C 0.2316(4) 0.8700(4) 0.4470(2)
C50_8 C 0.1851(4) 0.8697(4) 0.47214(17)
C51_8 C 0.1326(4) 0.8393(4) 0.46771(18)
H37_8 H 0.1257 0.8191 0.4487
C52_8 C 0.0900(4) 0.8376(5) 0.4903(2)
C53_8 C 0.0975(4) 0.8681(4) 0.5172(2)
C54_8 C 0.1473(5) 0.9026(6) 0.5207(2)
H38_8 H 0.1506 0.9281 0.5382
C55_8 C 0.1934(5) 0.9012(5) 0.4990(2)
H39_8 H 0.2299 0.9218 0.5028
C56_8 C 0.0532(4) 0.8664(5) 0.54440(19)
C57_8 C 0.0424(4) 0.8143(4) 0.5612(2)
C58_8 C 0.0039(4) 0.8152(4) 0.58599(18)
C61_8 C 0.0233(4) 0.9177(4) 0.5522(2)
H42_8 H 0.0292 0.9531 0.5403
C63_8 C 0.0331(7) 0.7679(7) 0.4590(3)
H44_8 H 0.0372 0.7937 0.4407
H45_8 H 0.0653 0.738 0.459
C64_8 C 0.0535(7) 0.7049(5) 0.5642(4)
H46_8 H 0.0754 0.673 0.5534
H47_8 H 0.0642 0.7046 0.5862
H48_8 H 0.0103 0.6982 0.562
O29_8 O 0.1751(3) 0.4113(3) 0.52709(14)
O30_8 O 0.0960(3) 0.4475(3) 0.54725(15)
O33_8 O 0.0425(3) 0.6256(3) 0.47886(17)
O34_8 O 0.2292(3) 0.6601(3) 0.44869(14)
O35_8 O 0.1165(3) 0.2847(3) 0.54572(13)
O39_8 O 0.1973(4) 0.0368(4) 0.51443(19)
O40_8 O 0.2378(4) 0.0692(3) 0.44912(19)
C65_8 C 0.1333(5) 0.4480(4) 0.5276(2)
C66_8 C 0.1349(5) 0.4931(4) 0.5025(2)
C67_8 C 0.0890(5) 0.5342(5) 0.5024(2)
H49_8 H 0.0578 0.5312 0.5173
C68_8 C 0.0879(5) 0.5811(5) 0.4803(2)
C69_8 C 0.1310(4) 0.5848(4) 0.45773(17)
C70_8 C 0.1752(5) 0.5428(4) 0.4582(2)
H50_8 H 0.2057 0.5442 0.4429
C71_8 C 0.1771(4) 0.4973(4) 0.4808(2)
H51_8 H 0.209 0.4692 0.4805
C72_8 C 0.1303(4) 0.6326(4) 0.43336(15)
C73_8 C 0.1814(5) 0.6695(4) 0.4287(2)
C74_8 C 0.1815(4) 0.7122(4) 0.40564(17)
H52_8 H 0.2164 0.7356 0.4021
C75_8 C 0.1300(5) 0.7213(4) 0.38737(17)
C76_8 C 0.0818(4) 0.6848(4) 0.3917(2)
H53_8 H 0.0471 0.6899 0.3792
C77_8 C 0.0828(4) 0.6404(4) 0.4139(2)
H54_8 H 0.0493 0.6145 0.4158
C78_8 C 0.1307(5) 0.7694(4) 0.36361(16)
H56_8 H 0.0057 0.6244 0.5211
C80_8 C 0.2803(4) 0.6961(4) 0.4454(2)
H58_8 H 0.3096 0.6854 0.4614
H59_8 H 0.2691 0.7383 0.4476
H60_8 H 0.2979 0.6896 0.4249
C81_8 C 0.1300(4) 0.2316(4) 0.5530(2)
C82_8 C 0.1303(4) 0.1851(4) 0.52786(17)
C83_8 C 0.1607(4) 0.1326(4) 0.53229(18)
H61_8 H 0.1809 0.1257 0.5513
C84_8 C 0.1624(5) 0.0900(4) 0.5097(2)
C85_8 C 0.1319(4) 0.0975(4) 0.4828(2)
C86_8 C 0.0974(6) 0.1473(5) 0.4793(2)
H62_8 H 0.0719 0.1506 0.4618
C87_8 C 0.0988(5) 0.1934(5) 0.5010(2)
H63_8 H 0.0782 0.2299 0.4972
C88_8 C 0.1336(5) 0.0532(4) 0.45560(19)
C89_8 C 0.1857(4) 0.0424(4) 0.4388(2)
C90_8 C 0.1848(4) 0.0039(4) 0.41401(18)
C93_8 C 0.0823(4) 0.0233(4) 0.4478(2)
H66_8 H 0.0469 0.0292 0.4597
C95_8 C 0.2321(7) 0.0331(7) 0.5410(3)
H68_8 H 0.2063 0.0372 0.5593
H69_8 H 0.262 0.0653 0.541
C96_8 C 0.2951(5) 0.0535(7) 0.4358(4)
H70_8 H 0.327 0.0754 0.4466
H71_8 H 0.2954 0.0642 0.4138
H72_8 H 0.3018 0.0103 0.438
H64_8 H 0.2209 0.9959 0.403
C91_8 C 0.1328(4) 0.9771(4) 0.40496(17)
C92_8 C 0.0812(4) 0.9848(4) 0.4229(2)
H65_8 H 0.0456 0.9635 0.418
C94_8 C 0.1338(5) 0.9381(4) 0.3760(2)
H67_8 H 0.2524 0.9942 0.5416
H40_8 H 0.9959 0.7791 0.597
C59_8 C 0.9771(4) 0.8672(4) 0.59504(17)
C60_8 C 0.9848(4) 0.9188(4) 0.5771(2)
H41_8 H 0.9635 0.9544 0.582
C62_8 C 0.9381(4) 0.8662(5) 0.6240(2)
H43_8 H 0.9942 0.7476 0.4584
C79_8 C 0.9916(5) 0.6231(5) 0.4996(3)
H55_8 H 0.9653 0.6574 0.4957
H57_8 H 0.9694 0.5858 0.4961
Cl1 Cl 0.8289(11) 0.8134(10) 0.7685(6)
Cl1_2 Cl 0.1711(11) 0.1866(10) 0.7685(6)
Cl1_3 Cl 0.8134(10) 0.1711(11) 0.2315(6)
Cl1_4 Cl 0.1866(10) 0.8289(11) 0.2315(6)
Cl1_5 Cl 0.6711(11) 0.8134(10) 0.9815(6)
Cl1_6 Cl 0.3289(11) 0.1866(10) 0.9815(6)
Cl1_7 Cl 0.6866(10) 0.1711(11) 0.5185(6)
Cl1_8 Cl 0.3134(10) 0.8289(11) 0.5185(6)
Cl1_9 Cl 0.3289(11) 0.3134(10) 0.2685(6)
Cl1_10 Cl 0.6711(11) 0.6866(10) 0.2685(6)
Cl1_11 Cl 0.3134(10) 0.6711(11) 0.7315(6)
Cl1_12 Cl 0.6866(10) 0.3289(11) 0.7315(6)
Cl1_13 Cl 0.1711(11) 0.3134(10) 0.4815(6)
Cl1_14 Cl 0.8289(11) 0.6866(10) 0.4815(6)
Cl1_15 Cl 0.1866(10) 0.6711(11) 0.0185(6)
Cl1_16 Cl 0.8134(10) 0.3289(11) 0.0185(6)
N1 N 0.4772(6) 0.1583(6) 0.7860(3)
H73 H 0.4627 0.152 0.8057
H74 H 0.4895 0.1219 0.7783
C97 C 0.5269(7) 0.1968(9) 0.7877(5)
H75 H 0.5586 0.178 0.8
H76 H 0.5149 0.2346 0.7974
H77 H 0.5418 0.2049 0.7667
C98 C 0.4266(6) 0.1823(6) 0.7657(3)
H78 H 0.3914 0.1563 0.7677
H79 H 0.4397 0.1831 0.7441
H80 H 0.4162 0.223 0.7724
N1_2 N 0.5228(6) 0.8417(6) 0.7860(3)
H73_2 H 0.5373 0.848 0.8057
H74_2 H 0.5105 0.8781 0.7783
C97_2 C 0.4731(7) 0.8032(9) 0.7877(5)
H75_2 H 0.4414 0.822 0.8
H76_2 H 0.4851 0.7654 0.7974
H77_2 H 0.4582 0.7951 0.7667
C98_2 C 0.5734(6) 0.8177(6) 0.7657(3)
H78_2 H 0.6086 0.8437 0.7677
H79_2 H 0.5603 0.8169 0.7441
H80_2 H 0.5838 0.777 0.7724
N1_3 N 0.1583(6) 0.5228(6) 0.2140(3)
H73_3 H 0.152 0.5373 0.1943
H74_3 H 0.1219 0.5105 0.2217
C97_3 C 0.1968(9) 0.4731(7) 0.2123(5)
H75_3 H 0.178 0.4414 0.2
H76_3 H 0.2346 0.4851 0.2026
H77_3 H 0.2049 0.4582 0.2333
C98_3 C 0.1823(6) 0.5734(6) 0.2343(3)
H78_3 H 0.1563 0.6086 0.2323
H79_3 H 0.1831 0.5603 0.2559
H80_3 H 0.223 0.5838 0.2276
N1_4 N 0.8417(6) 0.4772(6) 0.2140(3)
H73_4 H 0.848 0.4627 0.1943
H74_4 H 0.8781 0.4895 0.2217
C97_4 C 0.8032(9) 0.5269(7) 0.2123(5)
H75_4 H 0.822 0.5586 0.2
H76_4 H 0.7654 0.5149 0.2026
H77_4 H 0.7951 0.5418 0.2333
C98_4 C 0.8177(6) 0.4266(6) 0.2343(3)
H78_4 H 0.8437 0.3914 0.2323
H79_4 H 0.8169 0.4397 0.2559
H80_4 H 0.777 0.4162 0.2276
H79_5 H 0.0603 0.1831 0.0059
N1_5 N 0.0228(6) 0.1583(6) 0.9640(3)
H73_5 H 0.0373 0.152 0.9443
H74_5 H 0.0105 0.1219 0.9717
C98_5 C 0.0734(6) 0.1823(6) 0.9843(3)
H78_5 H 0.1086 0.1563 0.9823
H80_5 H 0.0838 0.223 0.9776
C97_5 C 0.9731(7) 0.1968(9) 0.9623(5)
H75_5 H 0.9414 0.178 0.95
H76_5 H 0.9851 0.2346 0.9526
H77_5 H 0.9582 0.2049 0.9833
C97_6 C 0.0269(7) 0.8032(9) 0.9623(5)
H75_6 H 0.0586 0.822 0.95
H76_6 H 0.0149 0.7654 0.9526
H77_6 H 0.0418 0.7951 0.9833
H79_6 H 0.9397 0.8169 0.0059
N1_6 N 0.9772(6) 0.8417(6) 0.9640(3)
H73_6 H 0.9627 0.848 0.9443
H74_6 H 0.9895 0.8781 0.9717
C98_6 C 0.9266(6) 0.8177(6) 0.9843(3)
H78_6 H 0.8914 0.8437 0.9823
H80_6 H 0.9162 0.777 0.9776
N1_7 N 0.3417(6) 0.5228(6) 0.5360(3)
H73_7 H 0.348 0.5373 0.5557
H74_7 H 0.3781 0.5105 0.5283
C97_7 C 0.3032(9) 0.4731(7) 0.5377(5)
H75_7 H 0.322 0.4414 0.55
H76_7 H 0.2654 0.4851 0.5474
H77_7 H 0.2951 0.4582 0.5167
C98_7 C 0.3177(6) 0.5734(6) 0.5157(3)
H78_7 H 0.3437 0.6086 0.5177
H79_7 H 0.3169 0.5603 0.4941
H80_7 H 0.277 0.5838 0.5224
N1_8 N 0.6583(6) 0.4772(6) 0.5360(3)
H73_8 H 0.652 0.4627 0.5557
H74_8 H 0.6219 0.4895 0.5283
C97_8 C 0.6968(9) 0.5269(7) 0.5377(5)
H75_8 H 0.678 0.5586 0.55
H76_8 H 0.7346 0.5149 0.5474
H77_8 H 0.7049 0.5418 0.5167
C98_8 C 0.6823(6) 0.4266(6) 0.5157(3)
H78_8 H 0.6563 0.3914 0.5177
H79_8 H 0.6831 0.4397 0.4941
H80_8 H 0.723 0.4162 0.5224
C97_9 C 0.0269(7) 0.6968(9) 0.2877(5)
H75_9 H 0.0586 0.678 0.3
H76_9 H 0.0149 0.7346 0.2974
H77_9 H 0.0418 0.7049 0.2667
N1_9 N 0.9772(6) 0.6583(6) 0.2860(3)
H73_9 H 0.9627 0.652 0.3057
H74_9 H 0.9895 0.6219 0.2783
C98_9 C 0.9266(6) 0.6823(6) 0.2657(3)
H78_9 H 0.8914 0.6563 0.2677
H79_9 H 0.9397 0.6831 0.2441
H80_9 H 0.9162 0.723 0.2724
N1_10 N 0.0228(6) 0.3417(6) 0.2860(3)
H73_10 H 0.0373 0.348 0.3057
H74_10 H 0.0105 0.3781 0.2783
C98_10 C 0.0734(6) 0.3177(6) 0.2657(3)
H78_10 H 0.1086 0.3437 0.2677
H79_10 H 0.0603 0.3169 0.2441
H80_10 H 0.0838 0.277 0.2724
C97_10 C 0.9731(7) 0.3032(9) 0.2877(5)
H75_10 H 0.9414 0.322 0.3
H76_10 H 0.9851 0.2654 0.2974
H77_10 H 0.9582 0.2951 0.2667
N1_11 N 0.6583(6) 0.0228(6) 0.7140(3)
H73_11 H 0.652 0.0373 0.6943
H74_11 H 0.6219 0.0105 0.7217
C98_11 C 0.6823(6) 0.0734(6) 0.7343(3)
H78_11 H 0.6563 0.1086 0.7323
H79_11 H 0.6831 0.0603 0.7559
H80_11 H 0.723 0.0838 0.7276
C97_11 C 0.6968(9) 0.9731(7) 0.7123(5)
H75_11 H 0.678 0.9414 0.7
H76_11 H 0.7346 0.9851 0.7026
H77_11 H 0.7049 0.9582 0.7333
C97_12 C 0.3032(9) 0.0269(7) 0.7123(5)
H75_12 H 0.322 0.0586 0.7
H76_12 H 0.2654 0.0149 0.7026
H77_12 H 0.2951 0.0418 0.7333
N1_12 N 0.3417(6) 0.9772(6) 0.7140(3)
H73_12 H 0.348 0.9627 0.6943
H74_12 H 0.3781 0.9895 0.7217
C98_12 C 0.3177(6) 0.9266(6) 0.7343(3)
H78_12 H 0.3437 0.8914 0.7323
H79_12 H 0.3169 0.9397 0.7559
H80_12 H 0.277 0.9162 0.7276
N1_13 N 0.5228(6) 0.6583(6) 0.4640(3)
H73_13 H 0.5373 0.652 0.4443
H74_13 H 0.5105 0.6219 0.4717
C97_13 C 0.4731(7) 0.6968(9) 0.4623(5)
H75_13 H 0.4414 0.678 0.45
H76_13 H 0.4851 0.7346 0.4526
H77_13 H 0.4582 0.7049 0.4833
C98_13 C 0.5734(6) 0.6823(6) 0.4843(3)
H78_13 H 0.6086 0.6563 0.4823
H79_13 H 0.5603 0.6831 0.5059
H80_13 H 0.5838 0.723 0.4776
N1_14 N 0.4772(6) 0.3417(6) 0.4640(3)
H73_14 H 0.4627 0.348 0.4443
H74_14 H 0.4895 0.3781 0.4717
C97_14 C 0.5269(7) 0.3032(9) 0.4623(5)
H75_14 H 0.5586 0.322 0.45
H76_14 H 0.5149 0.2654 0.4526
H77_14 H 0.5418 0.2951 0.4833
C98_14 C 0.4266(6) 0.3177(6) 0.4843(3)
H78_14 H 0.3914 0.3437 0.4823
H79_14 H 0.4397 0.3169 0.5059
H80_14 H 0.4162 0.277 0.4776
N1_15 N 0.8417(6) 0.0228(6) 0.0360(3)
H73_15 H 0.848 0.0373 0.0557
H74_15 H 0.8781 0.0105 0.0283
C98_15 C 0.8177(6) 0.0734(6) 0.0157(3)
H78_15 H 0.8437 0.1086 0.0177
H80_15 H 0.777 0.0838 0.0224
H79_15 H 0.8169 0.0603 0.9941
C97_15 C 0.8032(9) 0.9731(7) 0.0377(5)
H75_15 H 0.822 0.9414 0.05
H76_15 H 0.7654 0.9851 0.0474
H77_15 H 0.7951 0.9582 0.0167
C97_16 C 0.1968(9) 0.0269(7) 0.0377(5)
H75_16 H 0.178 0.0586 0.05
H76_16 H 0.2346 0.0149 0.0474
H77_16 H 0.2049 0.0418 0.0167
N1_16 N 0.1583(6) 0.9772(6) 0.0360(3)
H73_16 H 0.152 0.9627 0.0557
H74_16 H 0.1219 0.9895 0.0283
C98_16 C 0.1823(6) 0.9266(6) 0.0157(3)
H78_16 H 0.1563 0.8914 0.0177
H80_16 H 0.223 0.9162 0.0224
H79_16 H 0.1831 0.9397 0.9941
N2 N 0.0374(7) 0.3627(7) 0.8957(4)
H81 H 0.053 0.3394 0.9113
C99 C 0.0555(9) 0.4266(8) 0.9013(4)
H83 H 0.0452 0.438 0.9226
H84 H 0.0343 0.4528 0.8868
H85 H 0.0988 0.4307 0.8982
C100 C 0.0567(12) 0.3375(9) 0.8656(5)
H86 H 0.0426 0.296 0.8639
H87 H 0.1006 0.3383 0.8644
H88 H 0.0398 0.3614 0.8487
H82 H 0.9963 0.3602 0.8969
H82_2 H 0.0037 0.6398 0.8969
N2_2 N 0.9626(7) 0.6373(7) 0.8957(4)
H81_2 H 0.947 0.6606 0.9113
C99_2 C 0.9445(9) 0.5734(8) 0.9013(4)
H83_2 H 0.9548 0.562 0.9226
H84_2 H 0.9657 0.5472 0.8868
H85_2 H 0.9012 0.5693 0.8982
C100_2 C 0.9433(12) 0.6625(9) 0.8656(5)
H86_2 H 0.9574 0.704 0.8639
H87_2 H 0.8994 0.6617 0.8644
H88_2 H 0.9602 0.6386 0.8487
H82_3 H 0.3602 0.0037 0.1031
N2_3 N 0.3627(7) 0.9626(7) 0.1043(4)
H81_3 H 0.3394 0.947 0.0887
C99_3 C 0.4266(8) 0.9445(9) 0.0987(4)
H83_3 H 0.438 0.9548 0.0774
H84_3 H 0.4528 0.9657 0.1132
H85_3 H 0.4307 0.9012 0.1018
C100_3 C 0.3375(9) 0.9433(12) 0.1344(5)
H86_3 H 0.296 0.9574 0.1361
H87_3 H 0.3383 0.8994 0.1356
H88_3 H 0.3614 0.9602 0.1513
N2_4 N 0.6373(7) 0.0374(7) 0.1043(4)
H81_4 H 0.6606 0.053 0.0887
C99_4 C 0.5734(8) 0.0555(9) 0.0987(4)
H83_4 H 0.562 0.0452 0.0774
H84_4 H 0.5472 0.0343 0.1132
H85_4 H 0.5693 0.0988 0.1018
C100_4 C 0.6625(9) 0.0567(12) 0.1344(5)
H86_4 H 0.704 0.0426 0.1361
H87_4 H 0.6617 0.1006 0.1356
H88_4 H 0.6386 0.0398 0.1513
H82_4 H 0.6398 0.9963 0.1031
N2_5 N 0.4626(7) 0.3627(7) 0.8543(4)
H81_5 H 0.447 0.3394 0.8387
H82_5 H 0.5037 0.3602 0.8531
C99_5 C 0.4445(9) 0.4266(8) 0.8487(4)
H83_5 H 0.4548 0.438 0.8274
H84_5 H 0.4657 0.4528 0.8632
H85_5 H 0.4012 0.4307 0.8518
C100_5 C 0.4433(12) 0.3375(9) 0.8844(5)
H86_5 H 0.4574 0.296 0.8861
H87_5 H 0.3994 0.3383 0.8856
H88_5 H 0.4602 0.3614 0.9013
N2_6 N 0.5374(7) 0.6373(7) 0.8543(4)
H81_6 H 0.553 0.6606 0.8387
H82_6 H 0.4963 0.6398 0.8531
C99_6 C 0.5555(9) 0.5734(8) 0.8487(4)
H83_6 H 0.5452 0.562 0.8274
H84_6 H 0.5343 0.5472 0.8632
H85_6 H 0.5988 0.5693 0.8518
C100_6 C 0.5567(12) 0.6625(9) 0.8844(5)
H86_6 H 0.5426 0.704 0.8861
H87_6 H 0.6006 0.6617 0.8856
H88_6 H 0.5398 0.6386 0.9013
H82_7 H 0.1398 0.0037 0.6469
N2_7 N 0.1373(7) 0.9626(7) 0.6457(4)
H81_7 H 0.1606 0.947 0.6613
C99_7 C 0.0734(8) 0.9445(9) 0.6513(4)
H83_7 H 0.062 0.9548 0.6726
H84_7 H 0.0472 0.9657 0.6368
H85_7 H 0.0693 0.9012 0.6482
C100_7 C 0.1625(9) 0.9433(12) 0.6156(5)
H86_7 H 0.204 0.9574 0.6139
H87_7 H 0.1617 0.8994 0.6144
H88_7 H 0.1386 0.9602 0.5987
N2_8 N 0.8627(7) 0.0374(7) 0.6457(4)
H81_8 H 0.8394 0.053 0.6613
C99_8 C 0.9266(8) 0.0555(9) 0.6513(4)
H83_8 H 0.938 0.0452 0.6726
H84_8 H 0.9528 0.0343 0.6368
H85_8 H 0.9307 0.0988 0.6482
C100_8 C 0.8375(9) 0.0567(12) 0.6156(5)
H86_8 H 0.796 0.0426 0.6139
H87_8 H 0.8383 0.1006 0.6144
H88_8 H 0.8614 0.0398 0.5987
H82_8 H 0.8602 0.9963 0.6469
N2_9 N 0.5374(7) 0.8627(7) 0.3957(4)
H81_9 H 0.553 0.8394 0.4113
H82_9 H 0.4963 0.8602 0.3969
C99_9 C 0.5555(9) 0.9266(8) 0.4013(4)
H83_9 H 0.5452 0.938 0.4226
H84_9 H 0.5343 0.9528 0.3868
H85_9 H 0.5988 0.9307 0.3982
C100_9 C 0.5567(12) 0.8375(9) 0.3656(5)
H86_9 H 0.5426 0.796 0.3639
H87_9 H 0.6006 0.8383 0.3644
H88_9 H 0.5398 0.8614 0.3487
N2_10 N 0.4626(7) 0.1373(7) 0.3957(4)
H81_10 H 0.447 0.1606 0.4113
H82_10 H 0.5037 0.1398 0.3969
C99_10 C 0.4445(9) 0.0734(8) 0.4013(4)
H83_10 H 0.4548 0.062 0.4226
H84_10 H 0.4657 0.0472 0.3868
H85_10 H 0.4012 0.0693 0.3982
C100_10 C 0.4433(12) 0.1625(9) 0.3656(5)
H86_10 H 0.4574 0.204 0.3639
H87_10 H 0.3994 0.1617 0.3644
H88_10 H 0.4602 0.1386 0.3487
N2_11 N 0.8627(7) 0.4626(7) 0.6043(4)
H81_11 H 0.8394 0.447 0.5887
H82_11 H 0.8602 0.5037 0.6031
C99_11 C 0.9266(8) 0.4445(9) 0.5987(4)
H83_11 H 0.938 0.4548 0.5774
H84_11 H 0.9528 0.4657 0.6132
H85_11 H 0.9307 0.4012 0.6018
C100_11 C 0.8375(9) 0.4433(12) 0.6344(5)
H86_11 H 0.796 0.4574 0.6361
H87_11 H 0.8383 0.3994 0.6356
H88_11 H 0.8614 0.4602 0.6513
N2_12 N 0.1373(7) 0.5374(7) 0.6043(4)
H81_12 H 0.1606 0.553 0.5887
H82_12 H 0.1398 0.4963 0.6031
C99_12 C 0.0734(8) 0.5555(9) 0.5987(4)
H83_12 H 0.062 0.5452 0.5774
H84_12 H 0.0472 0.5343 0.6132
H85_12 H 0.0693 0.5988 0.6018
C100_12 C 0.1625(9) 0.5567(12) 0.6344(5)
H86_12 H 0.204 0.5426 0.6361
H87_12 H 0.1617 0.6006 0.6356
H88_12 H 0.1386 0.5398 0.6513
H82_13 H 0.0037 0.8602 0.3531
N2_13 N 0.9626(7) 0.8627(7) 0.3543(4)
H81_13 H 0.947 0.8394 0.3387
C99_13 C 0.9445(9) 0.9266(8) 0.3487(4)
H83_13 H 0.9548 0.938 0.3274
H84_13 H 0.9657 0.9528 0.3632
H85_13 H 0.9012 0.9307 0.3518
C100_13 C 0.9433(12) 0.8375(9) 0.3844(5)
H86_13 H 0.9574 0.796 0.3861
H87_13 H 0.8994 0.8383 0.3856
H88_13 H 0.9602 0.8614 0.4013
N2_14 N 0.0374(7) 0.1373(7) 0.3543(4)
H81_14 H 0.053 0.1606 0.3387
C99_14 C 0.0555(9) 0.0734(8) 0.3487(4)
H83_14 H 0.0452 0.062 0.3274
H84_14 H 0.0343 0.0472 0.3632
H85_14 H 0.0988 0.0693 0.3518
C100_14 C 0.0567(12) 0.1625(9) 0.3844(5)
H86_14 H 0.0426 0.204 0.3861
H87_14 H 0.1006 0.1617 0.3856
H88_14 H 0.0398 0.1386 0.4013
H82_14 H 0.9963 0.1398 0.3531
N2_15 N 0.6373(7) 0.4626(7) 0.1457(4)
H81_15 H 0.6606 0.447 0.1613
H82_15 H 0.6398 0.5037 0.1469
C99_15 C 0.5734(8) 0.4445(9) 0.1513(4)
H83_15 H 0.562 0.4548 0.1726
H84_15 H 0.5472 0.4657 0.1368
H85_15 H 0.5693 0.4012 0.1482
C100_15 C 0.6625(9) 0.4433(12) 0.1156(5)
H86_15 H 0.704 0.4574 0.1139
H87_15 H 0.6617 0.3994 0.1144
H88_15 H 0.6386 0.4602 0.0987
N2_16 N 0.3627(7) 0.5374(7) 0.1457(4)
H81_16 H 0.3394 0.553 0.1613
H82_16 H 0.3602 0.4963 0.1469
C99_16 C 0.4266(8) 0.5555(9) 0.1513(4)
H83_16 H 0.438 0.5452 0.1726
H84_16 H 0.4528 0.5343 0.1368
H85_16 H 0.4307 0.5988 0.1482
C100_16 C 0.3375(9) 0.5567(12) 0.1156(5)
H86_16 H 0.296 0.5426 0.1139
H87_16 H 0.3383 0.6006 0.1144
H88_16 H 0.3614 0.5398 0.0987
loop_
_geom_bond_atom_site_label_1
_geom_bond_atom_site_label_2
_geom_bond_site_symmetry_1
_geom_bond_site_symmetry_2
O2 Cd1 1_555 1_555
C1 O2 1_555 1_555
C2 C1 1_555 1_555
C6 C5 1_555 1_555
H2 C6 1_555 1_555
C7 C2 1_555 1_555
H3 C7 1_555 1_555
O5 C9 1_555 1_555
C9 C10 1_555 1_555
C13 C5 1_555 1_555
C14 C13 1_555 1_555
H8 C14 1_555 1_555
C15 C10 1_555 1_555
H9 C15 1_555 1_555
O7 Cd1 1_555 1_555
O9 C20 1_555 1_555
H13 C19 1_555 1_555
C20 C19 1_555 1_555
C24 O9 1_555 1_555
H16 C24 1_555 1_555
H17 C24 1_555 1_555
H18 C24 1_555 1_555
O12 C28 1_555 1_555
C27 H19 1_555 1_555
C28 C27 1_555 1_555
C32 O12 1_555 1_555
H22 C32 1_555 1_555
H23 C32 1_555 1_555
H24 C32 1_555 1_555
Cd3_2 O10 1_555 1_555
O14 Cd1 1_555 1_555
O16 Cd1 1_555 1_555
C6 C7 1_555 1_555
O5 Cd3_6 1_555 1_555
C14 C15 1_555 1_555
Cd1_2 O1 1_555 1_555
O3 C4 1_555 1_555
H1 C3 1_555 1_555
C4 C3 1_555 1_555
C8 O3 1_555 1_555
H4 C8 1_555 1_555
H5 C8 1_555 1_555
H6 C8 1_555 1_555
O6 C12 1_555 1_555
C11 H7 1_555 1_555
C12 C11 1_555 1_555
C16 O6 1_555 1_555
H10 C16 1_555 1_555
H11 C16 1_555 1_555
H12 C16 1_555 1_555
O8 Cd1_2 1_555 1_555
C18 C17 1_555 1_555
C22 C21 1_555 1_555
H14 C22 1_555 1_555
C23 C18 1_555 1_555
H15 C23 1_555 1_555
O11 C25 1_555 1_555
C25 C26 1_555 1_555
C29 C21 1_555 1_555
C30 C29 1_555 1_555
H20 C30 1_555 1_555
C31 C26 1_555 1_555
H21 C31 1_555 1_555
Cd3_8 O4 1_555 1_555
O13 Cd1_2 1_555 1_555
O15 Cd1_2 1_555 1_555
O8 C17 1_555 1_555
C22 C23 1_555 1_555
O11 Cd3_4 1_555 1_555
C30 C31 1_555 1_555
O2_2 Cd1_3 1_555 1_555
C1_2 O2_2 1_555 1_555
C2_2 C1_2 1_555 1_555
C6_2 C5_2 1_555 1_555
H2_2 C6_2 1_555 1_555
C7_2 C2_2 1_555 1_555
H3_2 C7_2 1_555 1_555
O5_2 C9_2 1_555 1_555
C9_2 C10_2 1_555 1_555
C13_2 C5_2 1_555 1_555
C14_2 C13_2 1_555 1_555
H8_2 C14_2 1_555 1_555
C15_2 C10_2 1_555 1_555
H9_2 C15_2 1_555 1_555
O7_2 Cd1_3 1_555 1_555
O9_2 C20_2 1_555 1_555
H13_2 C19_2 1_555 1_555
C20_2 C19_2 1_555 1_555
C24_2 O9_2 1_555 1_555
H16_2 C24_2 1_555 1_555
H17_2 C24_2 1_555 1_555
H18_2 C24_2 1_555 1_555
O12_2 C28_2 1_555 1_555
C27_2 H19_2 1_555 1_555
C28_2 C27_2 1_555 1_555
C32_2 O12_2 1_555 1_555
H22_2 C32_2 1_555 1_555
H23_2 C32_2 1_555 1_555
H24_2 C32_2 1_555 1_555
Cd3_3 O10_2 1_555 1_555
O14_2 Cd1_3 1_555 1_555
O16_2 Cd1_3 1_555 1_555
C6_2 C7_2 1_555 1_555
O5_2 Cd3 1_555 1_555
C14_2 C15_2 1_555 1_555
Cd1_4 O1_2 1_555 1_555
O3_2 C4_2 1_555 1_555
H1_2 C3_2 1_555 1_555
C4_2 C3_2 1_555 1_555
C8_2 O3_2 1_555 1_555
H4_2 C8_2 1_555 1_555
H5_2 C8_2 1_555 1_555
H6_2 C8_2 1_555 1_555
O6_2 C12_2 1_555 1_555
C11_2 H7_2 1_555 1_555
C12_2 C11_2 1_555 1_555
C16_2 O6_2 1_555 1_555
H10_2 C16_2 1_555 1_555
H11_2 C16_2 1_555 1_555
H12_2 C16_2 1_555 1_555
O8_2 Cd1_4 1_555 1_555
C18_2 C17_2 1_555 1_555
C22_2 C21_2 1_555 1_555
H14_2 C22_2 1_555 1_555
C23_2 C18_2 1_555 1_555
H15_2 C23_2 1_555 1_555
O11_2 C25_2 1_555 1_555
C25_2 C26_2 1_555 1_555
C29_2 C21_2 1_555 1_555
C30_2 C29_2 1_555 1_555
H20_2 C30_2 1_555 1_555
C31_2 C26_2 1_555 1_555
H21_2 C31_2 1_555 1_555
Cd3_5 O4_2 1_555 1_555
O13_2 Cd1_4 1_555 1_555
O15_2 Cd1_4 1_555 1_555
O8_2 C17_2 1_555 1_555
C22_2 C23_2 1_555 1_555
O11_2 Cd3_7 1_555 1_555
C30_2 C31_2 1_555 1_555
Cd1_5 O1_3 1_555 1_555
O1_3 C1_3 1_555 1_555
O2_3 Cd1_5 1_555 1_555
O3_3 C4_3 1_555 1_555
C1_3 O2_3 1_555 1_555
C2_3 C1_3 1_555 1_555
C3_3 C2_3 1_555 1_555
H1_3 C3_3 1_555 1_555
C4_3 C3_3 1_555 1_555
C5_3 C4_3 1_555 1_555
C6_3 C5_3 1_555 1_555
H2_3 C6_3 1_555 1_555
C7_3 C2_3 1_555 1_555
H3_3 C7_3 1_555 1_555
C8_3 O3_3 1_555 1_555
H4_3 C8_3 1_555 1_555
H5_3 C8_3 1_555 1_555
H6_3 C8_3 1_555 1_555
O14 C9_3 1_555 1_555
O16 C9_3 1_555 1_555
O6_3 C12_3 1_555 1_555
C9_3 C10_3 1_555 1_555
C10_3 C11_3 1_555 1_555
C11_3 H7_3 1_555 1_555
C12_3 C11_3 1_555 1_555
C13_3 C5_3 1_555 1_555
C14_3 C13_3 1_555 1_555
H8_3 C14_3 1_555 1_555
C15_3 C10_3 1_555 1_555
H9_3 C15_3 1_555 1_555
C16_3 O6_3 1_555 1_555
H10_3 C16_3 1_555 1_555
H11_3 C16_3 1_555 1_555
H12_3 C16_3 1_555 1_555
O7_3 Cd1_5 1_555 1_555
O8_3 Cd1_5 1_555 1_555
O9_3 C20_3 1_555 1_555
C17_3 O7_3 1_555 1_555
C18_3 C17_3 1_555 1_555
C19_3 C18_3 1_555 1_555
H13_3 C19_3 1_555 1_555
C20_3 C19_3 1_555 1_555
C21_3 C20_3 1_555 1_555
C22_3 C21_3 1_555 1_555
H14_3 C22_3 1_555 1_555
C23_3 C18_3 1_555 1_555
H15_3 C23_3 1_555 1_555
C24_3 O9_3 1_555 1_555
H16_3 C24_3 1_555 1_555
H17_3 C24_3 1_555 1_555
H18_3 C24_3 1_555 1_555
O13 C25_3 1_555 1_555
O15 C25_3 1_555 1_555
O12_3 C28_3 1_555 1_555
C25_3 C26_3 1_555 1_555
C26_3 C27_3 1_555 1_555
C27_3 H19_3 1_555 1_555
C28_3 C27_3 1_555 1_555
C29_3 C21_3 1_555 1_555
C30_3 C29_3 1_555 1_555
H20_3 C30_3 1_555 1_555
C31_3 C26_3 1_555 1_555
H21_3 C31_3 1_555 1_555
C32_3 O12_3 1_555 1_555
H22_3 C32_3 1_555 1_555
H23_3 C32_3 1_555 1_555
H24_3 C32_3 1_555 1_555
O13_3 Cd1_5 1_555 1_555
O14_3 Cd1_5 1_555 1_555
O15_3 Cd1_5 1_555 1_555
O16_3 Cd1_5 1_555 1_555
C6_3 C7_3 1_555 1_555
C12_3 C13_3 1_555 1_555
C14_3 C15_3 1_555 1_555
O8_3 C17_3 1_555 1_555
C22_3 C23_3 1_555 1_555
C28_3 C29_3 1_555 1_555
C30_3 C31_3 1_555 1_555
O14_2 C1_4 1_555 1_555
O3_4 C4_4 1_555 1_555
C1_4 O16_2 1_555 1_555
C2_4 C1_4 1_555 1_555
C3_4 C2_4 1_555 1_555
H1_4 C3_4 1_555 1_555
C4_4 C3_4 1_555 1_555
C5_4 C4_4 1_555 1_555
C6_4 C5_4 1_555 1_555
H2_4 C6_4 1_555 1_555
C7_4 C2_4 1_555 1_555
H3_4 C7_4 1_555 1_555
C8_4 O3_4 1_555 1_555
H4_4 C8_4 1_555 1_555
H5_4 C8_4 1_555 1_555
H6_4 C8_4 1_555 1_555
O14_3 C9_4 1_555 1_555
O16_3 C9_4 1_555 1_555
O6_4 C12_4 1_555 1_555
C9_4 C10_4 1_555 1_555
C10_4 C11_4 1_555 1_555
C11_4 H7_4 1_555 1_555
C12_4 C11_4 1_555 1_555
C13_4 C5_4 1_555 1_555
C14_4 C13_4 1_555 1_555
H8_4 C14_4 1_555 1_555
C15_4 C10_4 1_555 1_555
H9_4 C15_4 1_555 1_555
C16_4 O6_4 1_555 1_555
H10_4 C16_4 1_555 1_555
H11_4 C16_4 1_555 1_555
H12_4 C16_4 1_555 1_555
C6_4 C7_4 1_555 1_555
C12_4 C13_4 1_555 1_555
C14_4 C15_4 1_555 1_555
O9_4 C20_4 1_555 1_555
C17_4 O13_2 1_555 1_555
C18_4 C17_4 1_555 1_555
C19_4 C18_4 1_555 1_555
H13_4 C19_4 1_555 1_555
C20_4 C19_4 1_555 1_555
C21_4 C20_4 1_555 1_555
C22_4 C21_4 1_555 1_555
H14_4 C22_4 1_555 1_555
C23_4 C18_4 1_555 1_555
H15_4 C23_4 1_555 1_555
C24_4 O9_4 1_555 1_555
H16_4 C24_4 1_555 1_555
H17_4 C24_4 1_555 1_555
H18_4 C24_4 1_555 1_555
O13_3 C25_4 1_555 1_555
O15_3 C25_4 1_555 1_555
O12_4 C28_4 1_555 1_555
C25_4 C26_4 1_555 1_555
C26_4 C27_4 1_555 1_555
C27_4 H19_4 1_555 1_555
C28_4 C27_4 1_555 1_555
C29_4 C21_4 1_555 1_555
C30_4 C29_4 1_555 1_555
H20_4 C30_4 1_555 1_555
C31_4 C26_4 1_555 1_555
H21_4 C31_4 1_555 1_555
C32_4 O12_4 1_555 1_555
H22_4 C32_4 1_555 1_555
H23_4 C32_4 1_555 1_555
H24_4 C32_4 1_555 1_555
O15_2 C17_4 1_555 1_555
C22_4 C23_4 1_555 1_555
C28_4 C29_4 1_555 1_555
C30_4 C31_4 1_555 1_555
H31 C47 1_555 1_555
H33 C47 1_555 1_555
O19 C46 1_555 1_555
O20 C46 1_555 1_555
O21 C36 1_555 1_555
O22 C41 1_555 1_555
H25 C35 1_555 1_555
C36 C35 1_555 1_555
C37 C36 1_555 1_555
C38 C37 1_555 1_555
H26 C38 1_555 1_555
C40 C37 1_555 1_555
C41 C40 1_555 1_555
C42 C41 1_555 1_555
H28 C42 1_555 1_555
C43 C42 1_555 1_555
C44 C43 1_555 1_555
H29 C44 1_555 1_555
C45 C40 1_555 1_555
H30 C45 1_555 1_555
C46 C43 1_555 1_555
C48 O22 1_555 1_555
H34 C48 1_555 1_555
H35 C48 1_555 1_555
H36 C48 1_555 1_555
Cd10 O19 1_555 1_555
Cd14 O20 1_555 1_555
O20 Cd10 1_555 1_555
C44 C45 1_555 1_555
Cd4 O17 1_555 1_555
Cd5 O24 1_555 1_555
O17 C33 1_555 1_555
O18 Cd4 1_555 1_555
O23 Cd4 1_555 1_555
O24 C49 1_555 1_555
O25 C62 1_555 1_555
O26 C62 1_555 1_555
O27 C52 1_555 1_555
O28 C57 1_555 1_555
C33 O18 1_555 1_555
C34 C33 1_555 1_555
C39 C34 1_555 1_555
H27 C39 1_555 1_555
C49 O23 1_555 1_555
C50 C49 1_555 1_555
C51 C50 1_555 1_555
H37 C51 1_555 1_555
C52 C51 1_555 1_555
C53 C52 1_555 1_555
C54 C53 1_555 1_555
H38 C54 1_555 1_555
C55 C50 1_555 1_555
H39 C55 1_555 1_555
C56 C53 1_555 1_555
C57 C56 1_555 1_555
C58 C57 1_555 1_555
H40 C58 1_555 1_555
C59 C58 1_555 1_555
C60 C59 1_555 1_555
H41 C60 1_555 1_555
C61 C56 1_555 1_555
H42 C61 1_555 1_555
C62 C59 1_555 1_555
C63 O27 1_555 1_555
H43 C63 1_555 1_555
H44 C63 1_555 1_555
H45 C63 1_555 1_555
C64 O28 1_555 1_555
H46 C64 1_555 1_555
H47 C64 1_555 1_555
H48 C64 1_555 1_555
Cd6 O29 1_555 1_555
O29 C65 1_555 1_555
O30 Cd6 1_555 1_555
O31 C78 1_555 1_555
O32 Cd5 1_555 1_555
O33 C68 1_555 1_555
O34 C73 1_555 1_555
O35 Cd6 1_555 1_555
O36 C81 1_555 1_555
O39 C84 1_555 1_555
O40 C89 1_555 1_555
C65 O30 1_555 1_555
C66 C65 1_555 1_555
C67 C66 1_555 1_555
H49 C67 1_555 1_555
C68 C67 1_555 1_555
C69 C68 1_555 1_555
C70 C69 1_555 1_555
H50 C70 1_555 1_555
C71 C66 1_555 1_555
H51 C71 1_555 1_555
C72 C69 1_555 1_555
C73 C72 1_555 1_555
C74 C73 1_555 1_555
H52 C74 1_555 1_555
C75 C74 1_555 1_555
C76 C75 1_555 1_555
H53 C76 1_555 1_555
C77 C72 1_555 1_555
H54 C77 1_555 1_555
C78 O32 1_555 1_555
C79 O33 1_555 1_555
H55 C79 1_555 1_555
H56 C79 1_555 1_555
H57 C79 1_555 1_555
C80 O34 1_555 1_555
H58 C80 1_555 1_555
H59 C80 1_555 1_555
H60 C80 1_555 1_555
C81 O35 1_555 1_555
C82 C81 1_555 1_555
C83 C82 1_555 1_555
H61 C83 1_555 1_555
C84 C83 1_555 1_555
C85 C84 1_555 1_555
C86 C85 1_555 1_555
H62 C86 1_555 1_555
C87 C82 1_555 1_555
H63 C87 1_555 1_555
C88 C85 1_555 1_555
C89 C88 1_555 1_555
C90 C89 1_555 1_555
C93 C88 1_555 1_555
H66 C93 1_555 1_555
C95 O39 1_555 1_555
H68 C95 1_555 1_555
H69 C95 1_555 1_555
C96 O40 1_555 1_555
H70 C96 1_555 1_555
H71 C96 1_555 1_555
H72 C96 1_555 1_555
Cd8 O31 1_555 1_555
Cd10 O25 1_555 1_555
Cd12 O36 1_555 1_555
Cd14 O26 1_555 1_555
O41 Cd6 1_555 1_555
O42 Cd4 1_555 1_555
O43 Cd6 1_555 1_555
O44 Cd4 1_555 1_555
O45 Cd5 1_555 1_555
O46 Cd6 1_555 1_555
O47 Cd4 1_555 1_555
O48 Cd6 1_555 1_555
O49 Cd4 1_555 1_555
O50 Cd5 1_555 1_555
Cd5 O44 1_555 1_555
Cd5 O49 1_555 1_555
O26 Cd10 1_555 1_555
C54 C55 1_555 1_555
C60 C61 1_555 1_555
O32 Cd8 1_555 1_555
C70 C71 1_555 1_555
C75 C78 1_555 1_555
C76 C77 1_555 1_555
C86 C87 1_555 1_555
Cd8 O50 1_555 1_555
Cd12 O43 1_555 1_555
Cd12 O48 1_555 1_555
O37 C94 1_555 1_555
O50 C94 1_555 1_555
C92 C91 1_555 1_555
H65 C92 1_555 1_555
C94 C91 1_555 1_555
Cd8 O37 1_555 1_555
O37_2 C94_2 1_555 1_555
O38 C94_2 1_555 1_555
C92_2 C91_2 1_555 1_555
H65_2 C92_2 1_555 1_555
C94_2 C91_2 1_555 1_555
Cd7 O37_2 1_555 1_555
Cd11 O38 1_555 1_555
O38 Cd7 1_555 1_555
Cd4_2 O17_2 1_555 1_555
Cd11 O24_2 1_555 1_555
O17_2 C33_2 1_555 1_555
O18_2 Cd4_2 1_555 1_555
O23_2 Cd4_2 1_555 1_555
O24_2 C49_2 1_555 1_555
O25_2 C62_2 1_555 1_555
O26_2 C62_2 1_555 1_555
O27_2 C52_2 1_555 1_555
O28_2 C57_2 1_555 1_555
C33_2 O18_2 1_555 1_555
C34_2 C33_2 1_555 1_555
C39_2 C34_2 1_555 1_555
H27_2 C39_2 1_555 1_555
C49_2 O23_2 1_555 1_555
C50_2 C49_2 1_555 1_555
C51_2 C50_2 1_555 1_555
H37_2 C51_2 1_555 1_555
C52_2 C51_2 1_555 1_555
C53_2 C52_2 1_555 1_555
C54_2 C53_2 1_555 1_555
H38_2 C54_2 1_555 1_555
C55_2 C50_2 1_555 1_555
H39_2 C55_2 1_555 1_555
C56_2 C53_2 1_555 1_555
C57_2 C56_2 1_555 1_555
C58_2 C57_2 1_555 1_555
H40_2 C58_2 1_555 1_555
C59_2 C58_2 1_555 1_555
C60_2 C59_2 1_555 1_555
H41_2 C60_2 1_555 1_555
C61_2 C56_2 1_555 1_555
H42_2 C61_2 1_555 1_555
C62_2 C59_2 1_555 1_555
C63_2 O27_2 1_555 1_555
H43_2 C63_2 1_555 1_555
H44_2 C63_2 1_555 1_555
H45_2 C63_2 1_555 1_555
C64_2 O28_2 1_555 1_555
H46_2 C64_2 1_555 1_555
H47_2 C64_2 1_555 1_555
H48_2 C64_2 1_555 1_555
Cd6_2 O29_2 1_555 1_555
O29_2 C65_2 1_555 1_555
O30_2 Cd6_2 1_555 1_555
O31_2 C78_2 1_555 1_555
O32_2 Cd11 1_555 1_555
O33_2 C68_2 1_555 1_555
O34_2 C73_2 1_555 1_555
O35_2 Cd6_2 1_555 1_555
O36_2 C81_2 1_555 1_555
O39_2 C84_2 1_555 1_555
O40_2 C89_2 1_555 1_555
C65_2 O30_2 1_555 1_555
C66_2 C65_2 1_555 1_555
C67_2 C66_2 1_555 1_555
H49_2 C67_2 1_555 1_555
C68_2 C67_2 1_555 1_555
C69_2 C68_2 1_555 1_555
C70_2 C69_2 1_555 1_555
H50_2 C70_2 1_555 1_555
C71_2 C66_2 1_555 1_555
H51_2 C71_2 1_555 1_555
C72_2 C69_2 1_555 1_555
C73_2 C72_2 1_555 1_555
C74_2 C73_2 1_555 1_555
H52_2 C74_2 1_555 1_555
C75_2 C74_2 1_555 1_555
C76_2 C75_2 1_555 1_555
H53_2 C76_2 1_555 1_555
C77_2 C72_2 1_555 1_555
H54_2 C77_2 1_555 1_555
C78_2 O32_2 1_555 1_555
C79_2 O33_2 1_555 1_555
H55_2 C79_2 1_555 1_555
H56_2 C79_2 1_555 1_555
H57_2 C79_2 1_555 1_555
C80_2 O34_2 1_555 1_555
H58_2 C80_2 1_555 1_555
H59_2 C80_2 1_555 1_555
H60_2 C80_2 1_555 1_555
C81_2 O35_2 1_555 1_555
C82_2 C81_2 1_555 1_555
C83_2 C82_2 1_555 1_555
H61_2 C83_2 1_555 1_555
C84_2 C83_2 1_555 1_555
C85_2 C84_2 1_555 1_555
C86_2 C85_2 1_555 1_555
H62_2 C86_2 1_555 1_555
C87_2 C82_2 1_555 1_555
H63_2 C87_2 1_555 1_555
C88_2 C85_2 1_555 1_555
C89_2 C88_2 1_555 1_555
C90_2 C89_2 1_555 1_555
C93_2 C88_2 1_555 1_555
H66_2 C93_2 1_555 1_555
C95_2 O39_2 1_555 1_555
H68_2 C95_2 1_555 1_555
H69_2 C95_2 1_555 1_555
C96_2 O40_2 1_555 1_555
H70_2 C96_2 1_555 1_555
H71_2 C96_2 1_555 1_555
H72_2 C96_2 1_555 1_555
Cd7 O31_2 1_555 1_555
Cd9 O25_2 1_555 1_555
Cd14 O36_2 1_555 1_555
Cd12 O26_2 1_555 1_555
O41_2 Cd6_2 1_555 1_555
O42_2 Cd4_2 1_555 1_555
O43_2 Cd6_2 1_555 1_555
O44_2 Cd4_2 1_555 1_555
O45_2 Cd11 1_555 1_555
O46_2 Cd6_2 1_555 1_555
O47_2 Cd4_2 1_555 1_555
O48_2 Cd6_2 1_555 1_555
O49_2 Cd4_2 1_555 1_555
Cd11 O44_2 1_555 1_555
Cd11 O49_2 1_555 1_555
O26_2 Cd9 1_555 1_555
C54_2 C55_2 1_555 1_555
C60_2 C61_2 1_555 1_555
O32_2 Cd7 1_555 1_555
C70_2 C71_2 1_555 1_555
C75_2 C78_2 1_555 1_555
C76_2 C77_2 1_555 1_555
C86_2 C87_2 1_555 1_555
Cd14 O43_2 1_555 1_555
Cd14 O48_2 1_555 1_555
O19_2 C46_2 1_555 1_555
O20_2 C46_2 1_555 1_555
O21_2 C36_2 1_555 1_555
O22_2 C41_2 1_555 1_555
H25_2 C35_2 1_555 1_555
C36_2 C35_2 1_555 1_555
C37_2 C36_2 1_555 1_555
C38_2 C37_2 1_555 1_555
H26_2 C38_2 1_555 1_555
C40_2 C37_2 1_555 1_555
C41_2 C40_2 1_555 1_555
C42_2 C41_2 1_555 1_555
H28_2 C42_2 1_555 1_555
C43_2 C42_2 1_555 1_555
C44_2 C43_2 1_555 1_555
H29_2 C44_2 1_555 1_555
C45_2 C40_2 1_555 1_555
H30_2 C45_2 1_555 1_555
C46_2 C43_2 1_555 1_555
C48_2 O22_2 1_555 1_555
H34_2 C48_2 1_555 1_555
H35_2 C48_2 1_555 1_555
H36_2 C48_2 1_555 1_555
Cd9 O19_2 1_555 1_555
Cd12 O20_2 1_555 1_555
O20_2 Cd9 1_555 1_555
C44_2 C45_2 1_555 1_555
H31_2 C47_2 1_555 1_555
H33_2 C47_2 1_555 1_555
O19_3 C46_3 1_555 1_555
O20_3 C46_3 1_555 1_555
O21_3 C36_3 1_555 1_555
O22_3 C41_3 1_555 1_555
H25_3 C35_3 1_555 1_555
C36_3 C35_3 1_555 1_555
C37_3 C36_3 1_555 1_555
C38_3 C37_3 1_555 1_555
H26_3 C38_3 1_555 1_555
C40_3 C37_3 1_555 1_555
C41_3 C40_3 1_555 1_555
C42_3 C41_3 1_555 1_555
H28_3 C42_3 1_555 1_555
C43_3 C42_3 1_555 1_555
C44_3 C43_3 1_555 1_555
H29_3 C44_3 1_555 1_555
C45_3 C40_3 1_555 1_555
H30_3 C45_3 1_555 1_555
C46_3 C43_3 1_555 1_555
C48_3 O22_3 1_555 1_555
H34_3 C48_3 1_555 1_555
H35_3 C48_3 1_555 1_555
H36_3 C48_3 1_555 1_555
Cd10_2 O19_3 1_555 1_555
Cd14_2 O20_3 1_555 1_555
O20_3 Cd10_2 1_555 1_555
C44_3 C45_3 1_555 1_555
H31_3 C47_3 1_555 1_555
H33_3 C47_3 1_555 1_555
O37_3 C94_3 1_555 1_555
O38_2 C94_3 1_555 1_555
C92_3 C91_3 1_555 1_555
H65_3 C92_3 1_555 1_555
C94_3 C91_3 1_555 1_555
Cd7_2 O37_3 1_555 1_555
Cd11_2 O38_2 1_555 1_555
O38_2 Cd7_2 1_555 1_555
Cd4_3 O17_3 1_555 1_555
Cd11_2 O24_3 1_555 1_555
O17_3 C33_3 1_555 1_555
O18_3 Cd4_3 1_555 1_555
O23_3 Cd4_3 1_555 1_555
O24_3 C49_3 1_555 1_555
O25_3 C62_3 1_555 1_555
O26_3 C62_3 1_555 1_555
O27_3 C52_3 1_555 1_555
O28_3 C57_3 1_555 1_555
C33_3 O18_3 1_555 1_555
C34_3 C33_3 1_555 1_555
C39_3 C34_3 1_555 1_555
H27_3 C39_3 1_555 1_555
C49_3 O23_3 1_555 1_555
C50_3 C49_3 1_555 1_555
C51_3 C50_3 1_555 1_555
H37_3 C51_3 1_555 1_555
C52_3 C51_3 1_555 1_555
C53_3 C52_3 1_555 1_555
C54_3 C53_3 1_555 1_555
H38_3 C54_3 1_555 1_555
C55_3 C50_3 1_555 1_555
H39_3 C55_3 1_555 1_555
C56_3 C53_3 1_555 1_555
C57_3 C56_3 1_555 1_555
C58_3 C57_3 1_555 1_555
H40_3 C58_3 1_555 1_555
C59_3 C58_3 1_555 1_555
C60_3 C59_3 1_555 1_555
H41_3 C60_3 1_555 1_555
C61_3 C56_3 1_555 1_555
H42_3 C61_3 1_555 1_555
C62_3 C59_3 1_555 1_555
C63_3 O27_3 1_555 1_555
H43_3 C63_3 1_555 1_555
H44_3 C63_3 1_555 1_555
H45_3 C63_3 1_555 1_555
C64_3 O28_3 1_555 1_555
H46_3 C64_3 1_555 1_555
H47_3 C64_3 1_555 1_555
H48_3 C64_3 1_555 1_555
Cd6_3 O29_3 1_555 1_555
O29_3 C65_3 1_555 1_555
O30_3 Cd6_3 1_555 1_555
O31_3 C78_3 1_555 1_555
O32_3 Cd11_2 1_555 1_555
O33_3 C68_3 1_555 1_555
O34_3 C73_3 1_555 1_555
O35_3 Cd6_3 1_555 1_555
O36_3 C81_3 1_555 1_555
O39_3 C84_3 1_555 1_555
O40_3 C89_3 1_555 1_555
C65_3 O30_3 1_555 1_555
C66_3 C65_3 1_555 1_555
C67_3 C66_3 1_555 1_555
H49_3 C67_3 1_555 1_555
C68_3 C67_3 1_555 1_555
C69_3 C68_3 1_555 1_555
C70_3 C69_3 1_555 1_555
H50_3 C70_3 1_555 1_555
C71_3 C66_3 1_555 1_555
H51_3 C71_3 1_555 1_555
C72_3 C69_3 1_555 1_555
C73_3 C72_3 1_555 1_555
C74_3 C73_3 1_555 1_555
H52_3 C74_3 1_555 1_555
C75_3 C74_3 1_555 1_555
C76_3 C75_3 1_555 1_555
H53_3 C76_3 1_555 1_555
C77_3 C72_3 1_555 1_555
H54_3 C77_3 1_555 1_555
C78_3 O32_3 1_555 1_555
C79_3 O33_3 1_555 1_555
H55_3 C79_3 1_555 1_555
H56_3 C79_3 1_555 1_555
H57_3 C79_3 1_555 1_555
C80_3 O34_3 1_555 1_555
H58_3 C80_3 1_555 1_555
H59_3 C80_3 1_555 1_555
H60_3 C80_3 1_555 1_555
C81_3 O35_3 1_555 1_555
C82_3 C81_3 1_555 1_555
C83_3 C82_3 1_555 1_555
H61_3 C83_3 1_555 1_555
C84_3 C83_3 1_555 1_555
C85_3 C84_3 1_555 1_555
C86_3 C85_3 1_555 1_555
H62_3 C86_3 1_555 1_555
C87_3 C82_3 1_555 1_555
H63_3 C87_3 1_555 1_555
C88_3 C85_3 1_555 1_555
C89_3 C88_3 1_555 1_555
C90_3 C89_3 1_555 1_555
C93_3 C88_3 1_555 1_555
H66_3 C93_3 1_555 1_555
C95_3 O39_3 1_555 1_555
H68_3 C95_3 1_555 1_555
H69_3 C95_3 1_555 1_555
C96_3 O40_3 1_555 1_555
H70_3 C96_3 1_555 1_555
H71_3 C96_3 1_555 1_555
H72_3 C96_3 1_555 1_555
Cd7_2 O31_3 1_555 1_555
Cd10_2 O25_3 1_555 1_555
Cd12_2 O36_3 1_555 1_555
Cd14_2 O26_3 1_555 1_555
O41_3 Cd6_3 1_555 1_555
O42_3 Cd4_3 1_555 1_555
O43_3 Cd6_3 1_555 1_555
O44_3 Cd4_3 1_555 1_555
O45_3 Cd11_2 1_555 1_555
O46_3 Cd6_3 1_555 1_555
O47_3 Cd4_3 1_555 1_555
O48_3 Cd6_3 1_555 1_555
O49_3 Cd4_3 1_555 1_555
Cd11_2 O44_3 1_555 1_555
Cd11_2 O49_3 1_555 1_555
O26_3 Cd10_2 1_555 1_555
C54_3 C55_3 1_555 1_555
C60_3 C61_3 1_555 1_555
O32_3 Cd7_2 1_555 1_555
C70_3 C71_3 1_555 1_555
C75_3 C78_3 1_555 1_555
C76_3 C77_3 1_555 1_555
C86_3 C87_3 1_555 1_555
Cd12_2 O43_3 1_555 1_555
Cd12_2 O48_3 1_555 1_555
Cd4_4 O17_4 1_555 1_555
Cd5_2 O24_4 1_555 1_555
O17_4 C33_4 1_555 1_555
O18_4 Cd4_4 1_555 1_555
O23_4 Cd4_4 1_555 1_555
O24_4 C49_4 1_555 1_555
O25_4 C62_4 1_555 1_555
O26_4 C62_4 1_555 1_555
O27_4 C52_4 1_555 1_555
O28_4 C57_4 1_555 1_555
C33_4 O18_4 1_555 1_555
C34_4 C33_4 1_555 1_555
C39_4 C34_4 1_555 1_555
H27_4 C39_4 1_555 1_555
C49_4 O23_4 1_555 1_555
C50_4 C49_4 1_555 1_555
C51_4 C50_4 1_555 1_555
H37_4 C51_4 1_555 1_555
C52_4 C51_4 1_555 1_555
C53_4 C52_4 1_555 1_555
C54_4 C53_4 1_555 1_555
H38_4 C54_4 1_555 1_555
C55_4 C50_4 1_555 1_555
H39_4 C55_4 1_555 1_555
C56_4 C53_4 1_555 1_555
C57_4 C56_4 1_555 1_555
C58_4 C57_4 1_555 1_555
H40_4 C58_4 1_555 1_555
C59_4 C58_4 1_555 1_555
C60_4 C59_4 1_555 1_555
H41_4 C60_4 1_555 1_555
C61_4 C56_4 1_555 1_555
H42_4 C61_4 1_555 1_555
C62_4 C59_4 1_555 1_555
C63_4 O27_4 1_555 1_555
H43_4 C63_4 1_555 1_555
H44_4 C63_4 1_555 1_555
H45_4 C63_4 1_555 1_555
C64_4 O28_4 1_555 1_555
H46_4 C64_4 1_555 1_555
H47_4 C64_4 1_555 1_555
H48_4 C64_4 1_555 1_555
Cd6_4 O29_4 1_555 1_555
O29_4 C65_4 1_555 1_555
O30_4 Cd6_4 1_555 1_555
O31_4 C78_4 1_555 1_555
O32_4 Cd5_2 1_555 1_555
O33_4 C68_4 1_555 1_555
O34_4 C73_4 1_555 1_555
O35_4 Cd6_4 1_555 1_555
O36_4 C81_4 1_555 1_555
O39_4 C84_4 1_555 1_555
O40_4 C89_4 1_555 1_555
C65_4 O30_4 1_555 1_555
C66_4 C65_4 1_555 1_555
C67_4 C66_4 1_555 1_555
H49_4 C67_4 1_555 1_555
C68_4 C67_4 1_555 1_555
C69_4 C68_4 1_555 1_555
C70_4 C69_4 1_555 1_555
H50_4 C70_4 1_555 1_555
C71_4 C66_4 1_555 1_555
H51_4 C71_4 1_555 1_555
C72_4 C69_4 1_555 1_555
C73_4 C72_4 1_555 1_555
C74_4 C73_4 1_555 1_555
H52_4 C74_4 1_555 1_555
C75_4 C74_4 1_555 1_555
C76_4 C75_4 1_555 1_555
H53_4 C76_4 1_555 1_555
C77_4 C72_4 1_555 1_555
H54_4 C77_4 1_555 1_555
C78_4 O32_4 1_555 1_555
C79_4 O33_4 1_555 1_555
H55_4 C79_4 1_555 1_555
H56_4 C79_4 1_555 1_555
H57_4 C79_4 1_555 1_555
C80_4 O34_4 1_555 1_555
H58_4 C80_4 1_555 1_555
H59_4 C80_4 1_555 1_555
H60_4 C80_4 1_555 1_555
C81_4 O35_4 1_555 1_555
C82_4 C81_4 1_555 1_555
C83_4 C82_4 1_555 1_555
H61_4 C83_4 1_555 1_555
C84_4 C83_4 1_555 1_555
C85_4 C84_4 1_555 1_555
C86_4 C85_4 1_555 1_555
H62_4 C86_4 1_555 1_555
C87_4 C82_4 1_555 1_555
H63_4 C87_4 1_555 1_555
C88_4 C85_4 1_555 1_555
C89_4 C88_4 1_555 1_555
C90_4 C89_4 1_555 1_555
C93_4 C88_4 1_555 1_555
H66_4 C93_4 1_555 1_555
C95_4 O39_4 1_555 1_555
H68_4 C95_4 1_555 1_555
H69_4 C95_4 1_555 1_555
C96_4 O40_4 1_555 1_555
H70_4 C96_4 1_555 1_555
H71_4 C96_4 1_555 1_555
H72_4 C96_4 1_555 1_555
Cd8_2 O31_4 1_555 1_555
Cd9_2 O25_4 1_555 1_555
Cd14_2 O36_4 1_555 1_555
Cd12_2 O26_4 1_555 1_555
O41_4 Cd6_4 1_555 1_555
O42_4 Cd4_4 1_555 1_555
O43_4 Cd6_4 1_555 1_555
O44_4 Cd4_4 1_555 1_555
O45_4 Cd5_2 1_555 1_555
O46_4 Cd6_4 1_555 1_555
O47_4 Cd4_4 1_555 1_555
O48_4 Cd6_4 1_555 1_555
O49_4 Cd4_4 1_555 1_555
O50_2 Cd5_2 1_555 1_555
Cd5_2 O44_4 1_555 1_555
Cd5_2 O49_4 1_555 1_555
O26_4 Cd9_2 1_555 1_555
C54_4 C55_4 1_555 1_555
C60_4 C61_4 1_555 1_555
O32_4 Cd8_2 1_555 1_555
C70_4 C71_4 1_555 1_555
C75_4 C78_4 1_555 1_555
C76_4 C77_4 1_555 1_555
C86_4 C87_4 1_555 1_555
Cd8_2 O50_2 1_555 1_555
Cd14_2 O43_4 1_555 1_555
Cd14_2 O48_4 1_555 1_555
O37_4 C94_4 1_555 1_555
O50_2 C94_4 1_555 1_555
C92_4 C91_4 1_555 1_555
H65_4 C92_4 1_555 1_555
C94_4 C91_4 1_555 1_555
Cd8_2 O37_4 1_555 1_555
H31_4 C47_4 1_555 1_555
H33_4 C47_4 1_555 1_555
O19_4 C46_4 1_555 1_555
O20_4 C46_4 1_555 1_555
O21_4 C36_4 1_555 1_555
O22_4 C41_4 1_555 1_555
H25_4 C35_4 1_555 1_555
C36_4 C35_4 1_555 1_555
C37_4 C36_4 1_555 1_555
C38_4 C37_4 1_555 1_555
H26_4 C38_4 1_555 1_555
C40_4 C37_4 1_555 1_555
C41_4 C40_4 1_555 1_555
C42_4 C41_4 1_555 1_555
H28_4 C42_4 1_555 1_555
C43_4 C42_4 1_555 1_555
C44_4 C43_4 1_555 1_555
H29_4 C44_4 1_555 1_555
C45_4 C40_4 1_555 1_555
H30_4 C45_4 1_555 1_555
C46_4 C43_4 1_555 1_555
C48_4 O22_4 1_555 1_555
H34_4 C48_4 1_555 1_555
H35_4 C48_4 1_555 1_555
H36_4 C48_4 1_555 1_555
Cd9_2 O19_4 1_555 1_555
Cd12_2 O20_4 1_555 1_555
O20_4 Cd9_2 1_555 1_555
C44_4 C45_4 1_555 1_555
O46_3 C94_5 1_555 1_555
O48_3 C94_5 1_555 1_555
O40_5 C89_5 1_555 1_555
H51_5 C71_5 1_555 1_555
C86_5 C85_5 1_555 1_555
H62_5 C86_5 1_555 1_555
C88_5 C85_5 1_555 1_555
C89_5 C88_5 1_555 1_555
C90_5 C89_5 1_555 1_555
H64_5 C90_5 1_555 1_555
C91_5 C90_5 1_555 1_555
C92_5 C91_5 1_555 1_555
H65_5 C92_5 1_555 1_555
C93_5 C88_5 1_555 1_555
H66_5 C93_5 1_555 1_555
C94_5 C91_5 1_555 1_555
C96_5 O40_5 1_555 1_555
H70_5 C96_5 1_555 1_555
H71_5 C96_5 1_555 1_555
H72_5 C96_5 1_555 1_555
C92_5 C93_5 1_555 1_555
Cd9 O29_5 1_555 1_555
O29_5 C65_5 1_555 1_555
O30_5 Cd9 1_555 1_555
O35_5 Cd9 1_555 1_555
O36_5 C81_5 1_555 1_555
O39_5 C84_5 1_555 1_555
C65_5 O30_5 1_555 1_555
C66_5 C65_5 1_555 1_555
C81_5 O35_5 1_555 1_555
C82_5 C81_5 1_555 1_555
C83_5 C82_5 1_555 1_555
H61_5 C83_5 1_555 1_555
C84_5 C83_5 1_555 1_555
C87_5 C82_5 1_555 1_555
C95_5 O39_5 1_555 1_555
H67_5 C95_5 1_555 1_555
H68_5 C95_5 1_555 1_555
H69_5 C95_5 1_555 1_555
Cd12 O36_5 1_555 1_555
H25_5 C35_5 1_555 1_555
O41_2 C46_5 1_555 1_555
O43_2 C46_5 1_555 1_555
O21_5 C36_5 1_555 1_555
O22_5 C41_5 1_555 1_555
C37_5 C36_5 1_555 1_555
C38_5 C37_5 1_555 1_555
H26_5 C38_5 1_555 1_555
C40_5 C37_5 1_555 1_555
C41_5 C40_5 1_555 1_555
C42_5 C41_5 1_555 1_555
H28_5 C42_5 1_555 1_555
C43_5 C42_5 1_555 1_555
C44_5 C43_5 1_555 1_555
H29_5 C44_5 1_555 1_555
C45_5 C40_5 1_555 1_555
H30_5 C45_5 1_555 1_555
C46_5 C43_5 1_555 1_555
C47_5 O21_5 1_555 1_555
H31_5 C47_5 1_555 1_555
H33_5 C47_5 1_555 1_555
C48_5 O22_5 1_555 1_555
H34_5 C48_5 1_555 1_555
H35_5 C48_5 1_555 1_555
H36_5 C48_5 1_555 1_555
C44_5 C45_5 1_555 1_555
Cd9_2 O17_5 1_555 1_555
Cd12_2 O24_5 1_555 1_555
O17_5 C33_5 1_555 1_555
O18_5 Cd9_2 1_555 1_555
O23_5 Cd9_2 1_555 1_555
O24_5 C49_5 1_555 1_555
O27_5 C52_5 1_555 1_555
C33_5 O18_5 1_555 1_555
C34_5 C33_5 1_555 1_555
C49_5 O23_5 1_555 1_555
C50_5 C49_5 1_555 1_555
C51_5 C50_5 1_555 1_555
H37_5 C51_5 1_555 1_555
C52_5 C51_5 1_555 1_555
C55_5 C50_5 1_555 1_555
C63_5 O27_5 1_555 1_555
H43_5 C63_5 1_555 1_555
H44_5 C63_5 1_555 1_555
H45_5 C63_5 1_555 1_555
O41_3 C78_5 1_555 1_555
O33_5 C68_5 1_555 1_555
O34_5 C73_5 1_555 1_555
C69_5 C68_5 1_555 1_555
C70_5 C69_5 1_555 1_555
H50_5 C70_5 1_555 1_555
C72_5 C69_5 1_555 1_555
C73_5 C72_5 1_555 1_555
C74_5 C73_5 1_555 1_555
H52_5 C74_5 1_555 1_555
C75_5 C74_5 1_555 1_555
C76_5 C75_5 1_555 1_555
H53_5 C76_5 1_555 1_555
C77_5 C72_5 1_555 1_555
H54_5 C77_5 1_555 1_555
C78_5 O43_3 1_555 1_555
C79_5 O33_5 1_555 1_555
H55_5 C79_5 1_555 1_555
H57_5 C79_5 1_555 1_555
C80_5 O34_5 1_555 1_555
H58_5 C80_5 1_555 1_555
H59_5 C80_5 1_555 1_555
H60_5 C80_5 1_555 1_555
C75_5 C78_5 1_555 1_555
C76_5 C77_5 1_555 1_555
O46_2 C62_5 1_555 1_555
O48_2 C62_5 1_555 1_555
O28_5 C57_5 1_555 1_555
H27_5 C39_5 1_555 1_555
C54_5 C53_5 1_555 1_555
H38_5 C54_5 1_555 1_555
C56_5 C53_5 1_555 1_555
C57_5 C56_5 1_555 1_555
C58_5 C57_5 1_555 1_555
H40_5 C58_5 1_555 1_555
C59_5 C58_5 1_555 1_555
C60_5 C59_5 1_555 1_555
H41_5 C60_5 1_555 1_555
C61_5 C56_5 1_555 1_555
H42_5 C61_5 1_555 1_555
C62_5 C59_5 1_555 1_555
C64_5 O28_5 1_555 1_555
H46_5 C64_5 1_555 1_555
H47_5 C64_5 1_555 1_555
H48_5 C64_5 1_555 1_555
H49_5 C67_5 1_555 1_555
C60_5 C61_5 1_555 1_555
Cd10_2 O17_6 1_555 1_555
Cd14_2 O24_6 1_555 1_555
O17_6 C33_6 1_555 1_555
O18_6 Cd10_2 1_555 1_555
O23_6 Cd10_2 1_555 1_555
O24_6 C49_6 1_555 1_555
O27_6 C52_6 1_555 1_555
C33_6 O18_6 1_555 1_555
C34_6 C33_6 1_555 1_555
C49_6 O23_6 1_555 1_555
C50_6 C49_6 1_555 1_555
C51_6 C50_6 1_555 1_555
H37_6 C51_6 1_555 1_555
C52_6 C51_6 1_555 1_555
C55_6 C50_6 1_555 1_555
C63_6 O27_6 1_555 1_555
H43_6 C63_6 1_555 1_555
H44_6 C63_6 1_555 1_555
H45_6 C63_6 1_555 1_555
O41_4 C78_6 1_555 1_555
O33_6 C68_6 1_555 1_555
O34_6 C73_6 1_555 1_555
C69_6 C68_6 1_555 1_555
C70_6 C69_6 1_555 1_555
H50_6 C70_6 1_555 1_555
C72_6 C69_6 1_555 1_555
C73_6 C72_6 1_555 1_555
C74_6 C73_6 1_555 1_555
H52_6 C74_6 1_555 1_555
C75_6 C74_6 1_555 1_555
C76_6 C75_6 1_555 1_555
H53_6 C76_6 1_555 1_555
C77_6 C72_6 1_555 1_555
H54_6 C77_6 1_555 1_555
C78_6 O43_4 1_555 1_555
C79_6 O33_6 1_555 1_555
H55_6 C79_6 1_555 1_555
H57_6 C79_6 1_555 1_555
C80_6 O34_6 1_555 1_555
H58_6 C80_6 1_555 1_555
H59_6 C80_6 1_555 1_555
H60_6 C80_6 1_555 1_555
C75_6 C78_6 1_555 1_555
C76_6 C77_6 1_555 1_555
O46 C62_6 1_555 1_555
O48 C62_6 1_555 1_555
O28_6 C57_6 1_555 1_555
H27_6 C39_6 1_555 1_555
C54_6 C53_6 1_555 1_555
H38_6 C54_6 1_555 1_555
C56_6 C53_6 1_555 1_555
C57_6 C56_6 1_555 1_555
C58_6 C57_6 1_555 1_555
H40_6 C58_6 1_555 1_555
C59_6 C58_6 1_555 1_555
C60_6 C59_6 1_555 1_555
H41_6 C60_6 1_555 1_555
C61_6 C56_6 1_555 1_555
H42_6 C61_6 1_555 1_555
C62_6 C59_6 1_555 1_555
C64_6 O28_6 1_555 1_555
H46_6 C64_6 1_555 1_555
H47_6 C64_6 1_555 1_555
H48_6 C64_6 1_555 1_555
H49_6 C67_6 1_555 1_555
C60_6 C61_6 1_555 1_555
H25_6 C35_6 1_555 1_555
O41 C46_6 1_555 1_555
O43 C46_6 1_555 1_555
O21_6 C36_6 1_555 1_555
O22_6 C41_6 1_555 1_555
C37_6 C36_6 1_555 1_555
C38_6 C37_6 1_555 1_555
H26_6 C38_6 1_555 1_555
C40_6 C37_6 1_555 1_555
C41_6 C40_6 1_555 1_555
C42_6 C41_6 1_555 1_555
H28_6 C42_6 1_555 1_555
C43_6 C42_6 1_555 1_555
C44_6 C43_6 1_555 1_555
H29_6 C44_6 1_555 1_555
C45_6 C40_6 1_555 1_555
H30_6 C45_6 1_555 1_555
C46_6 C43_6 1_555 1_555
C47_6 O21_6 1_555 1_555
H31_6 C47_6 1_555 1_555
H33_6 C47_6 1_555 1_555
C48_6 O22_6 1_555 1_555
H34_6 C48_6 1_555 1_555
H35_6 C48_6 1_555 1_555
H36_6 C48_6 1_555 1_555
C44_6 C45_6 1_555 1_555
O46_4 C94_6 1_555 1_555
O48_4 C94_6 1_555 1_555
O40_6 C89_6 1_555 1_555
H51_6 C71_6 1_555 1_555
C86_6 C85_6 1_555 1_555
H62_6 C86_6 1_555 1_555
C88_6 C85_6 1_555 1_555
C89_6 C88_6 1_555 1_555
C90_6 C89_6 1_555 1_555
H64_6 C90_6 1_555 1_555
C91_6 C90_6 1_555 1_555
C92_6 C91_6 1_555 1_555
H65_6 C92_6 1_555 1_555
C93_6 C88_6 1_555 1_555
H66_6 C93_6 1_555 1_555
C94_6 C91_6 1_555 1_555
C96_6 O40_6 1_555 1_555
H70_6 C96_6 1_555 1_555
H71_6 C96_6 1_555 1_555
H72_6 C96_6 1_555 1_555
C92_6 C93_6 1_555 1_555
Cd10 O29_6 1_555 1_555
O29_6 C65_6 1_555 1_555
O30_6 Cd10 1_555 1_555
O35_6 Cd10 1_555 1_555
O36_6 C81_6 1_555 1_555
O39_6 C84_6 1_555 1_555
C65_6 O30_6 1_555 1_555
C66_6 C65_6 1_555 1_555
C81_6 O35_6 1_555 1_555
C82_6 C81_6 1_555 1_555
C83_6 C82_6 1_555 1_555
H61_6 C83_6 1_555 1_555
C84_6 C83_6 1_555 1_555
C87_6 C82_6 1_555 1_555
C95_6 O39_6 1_555 1_555
H67_6 C95_6 1_555 1_555
H68_6 C95_6 1_555 1_555
H69_6 C95_6 1_555 1_555
Cd14 O36_6 1_555 1_555
O47_2 C62_7 1_555 1_555
O49_2 C62_7 1_555 1_555
C60_7 C59_7 1_555 1_555
H41_7 C60_7 1_555 1_555
C62_7 C59_7 1_555 1_555
H55_7 C79_7 1_555 1_555
H57_7 C79_7 1_555 1_555
O47_3 C94_7 1_555 1_555
O49_3 C94_7 1_555 1_555
C92_7 C91_7 1_555 1_555
H65_7 C92_7 1_555 1_555
C94_7 C91_7 1_555 1_555
Cd7_2 O17_7 1_555 1_555
O17_7 C33_7 1_555 1_555
O18_7 Cd7_2 1_555 1_555
O42_2 C46_7 1_555 1_555
O44_2 C46_7 1_555 1_555
O21_7 C36_7 1_555 1_555
O22_7 C41_7 1_555 1_555
O23_7 Cd7_2 1_555 1_555
O45_3 C49_7 1_555 1_555
O27_7 C52_7 1_555 1_555
O28_7 C57_7 1_555 1_555
C33_7 O18_7 1_555 1_555
C34_7 C33_7 1_555 1_555
C35_7 C34_7 1_555 1_555
H25_7 C35_7 1_555 1_555
C36_7 C35_7 1_555 1_555
C37_7 C36_7 1_555 1_555
C38_7 C37_7 1_555 1_555
H26_7 C38_7 1_555 1_555
C39_7 C34_7 1_555 1_555
H27_7 C39_7 1_555 1_555
C40_7 C37_7 1_555 1_555
C41_7 C40_7 1_555 1_555
C42_7 C41_7 1_555 1_555
H28_7 C42_7 1_555 1_555
C43_7 C42_7 1_555 1_555
C44_7 C43_7 1_555 1_555
H29_7 C44_7 1_555 1_555
C45_7 C40_7 1_555 1_555
H30_7 C45_7 1_555 1_555
C46_7 C43_7 1_555 1_555
C48_7 O22_7 1_555 1_555
H34_7 C48_7 1_555 1_555
H35_7 C48_7 1_555 1_555
H36_7 C48_7 1_555 1_555
C49_7 O23_7 1_555 1_555
C50_7 C49_7 1_555 1_555
C51_7 C50_7 1_555 1_555
H37_7 C51_7 1_555 1_555
C52_7 C51_7 1_555 1_555
C53_7 C52_7 1_555 1_555
C54_7 C53_7 1_555 1_555
H38_7 C54_7 1_555 1_555
C55_7 C50_7 1_555 1_555
H39_7 C55_7 1_555 1_555
C56_7 C53_7 1_555 1_555
C57_7 C56_7 1_555 1_555
C58_7 C57_7 1_555 1_555
C61_7 C56_7 1_555 1_555
H42_7 C61_7 1_555 1_555
C63_7 O27_7 1_555 1_555
H44_7 C63_7 1_555 1_555
H45_7 C63_7 1_555 1_555
C64_7 O28_7 1_555 1_555
H46_7 C64_7 1_555 1_555
H47_7 C64_7 1_555 1_555
H48_7 C64_7 1_555 1_555
Cd8 O29_7 1_555 1_555
O29_7 C65_7 1_555 1_555
O30_7 Cd8 1_555 1_555
O42_3 C78_7 1_555 1_555
O33_7 C68_7 1_555 1_555
O34_7 C73_7 1_555 1_555
O35_7 Cd8 1_555 1_555
O45 C81_7 1_555 1_555
O39_7 C84_7 1_555 1_555
O40_7 C89_7 1_555 1_555
C65_7 O30_7 1_555 1_555
C66_7 C65_7 1_555 1_555
C67_7 C66_7 1_555 1_555
H49_7 C67_7 1_555 1_555
C68_7 C67_7 1_555 1_555
C69_7 C68_7 1_555 1_555
C70_7 C69_7 1_555 1_555
H50_7 C70_7 1_555 1_555
C71_7 C66_7 1_555 1_555
H51_7 C71_7 1_555 1_555
C72_7 C69_7 1_555 1_555
C73_7 C72_7 1_555 1_555
C74_7 C73_7 1_555 1_555
H52_7 C74_7 1_555 1_555
C75_7 C74_7 1_555 1_555
C76_7 C75_7 1_555 1_555
H53_7 C76_7 1_555 1_555
C77_7 C72_7 1_555 1_555
H54_7 C77_7 1_555 1_555
C78_7 O44_3 1_555 1_555
C80_7 O34_7 1_555 1_555
H58_7 C80_7 1_555 1_555
H59_7 C80_7 1_555 1_555
H60_7 C80_7 1_555 1_555
C81_7 O35_7 1_555 1_555
C82_7 C81_7 1_555 1_555
C83_7 C82_7 1_555 1_555
H61_7 C83_7 1_555 1_555
C84_7 C83_7 1_555 1_555
C85_7 C84_7 1_555 1_555
C86_7 C85_7 1_555 1_555
H62_7 C86_7 1_555 1_555
C87_7 C82_7 1_555 1_555
H63_7 C87_7 1_555 1_555
C88_7 C85_7 1_555 1_555
C89_7 C88_7 1_555 1_555
C90_7 C89_7 1_555 1_555
C93_7 C88_7 1_555 1_555
H66_7 C93_7 1_555 1_555
C95_7 O39_7 1_555 1_555
H68_7 C95_7 1_555 1_555
H69_7 C95_7 1_555 1_555
C96_7 O40_7 1_555 1_555
H70_7 C96_7 1_555 1_555
H71_7 C96_7 1_555 1_555
H72_7 C96_7 1_555 1_555
C38_7 C39_7 1_555 1_555
C44_7 C45_7 1_555 1_555
C54_7 C55_7 1_555 1_555
C70_7 C71_7 1_555 1_555
C75_7 C78_7 1_555 1_555
C76_7 C77_7 1_555 1_555
C86_7 C87_7 1_555 1_555
H31_7 C47_7 1_555 1_555
H33_7 C47_7 1_555 1_555
H31_8 C47_8 1_555 1_555
H33_8 C47_8 1_555 1_555
Cd8_2 O17_8 1_555 1_555
O17_8 C33_8 1_555 1_555
O18_8 Cd8_2 1_555 1_555
O42 C46_8 1_555 1_555
O44 C46_8 1_555 1_555
O21_8 C36_8 1_555 1_555
O22_8 C41_8 1_555 1_555
O23_8 Cd8_2 1_555 1_555
O45_4 C49_8 1_555 1_555
O27_8 C52_8 1_555 1_555
O28_8 C57_8 1_555 1_555
C33_8 O18_8 1_555 1_555
C34_8 C33_8 1_555 1_555
C35_8 C34_8 1_555 1_555
H25_8 C35_8 1_555 1_555
C36_8 C35_8 1_555 1_555
C37_8 C36_8 1_555 1_555
C38_8 C37_8 1_555 1_555
H26_8 C38_8 1_555 1_555
C39_8 C34_8 1_555 1_555
H27_8 C39_8 1_555 1_555
C40_8 C37_8 1_555 1_555
C41_8 C40_8 1_555 1_555
C42_8 C41_8 1_555 1_555
H28_8 C42_8 1_555 1_555
C43_8 C42_8 1_555 1_555
C44_8 C43_8 1_555 1_555
H29_8 C44_8 1_555 1_555
C45_8 C40_8 1_555 1_555
H30_8 C45_8 1_555 1_555
C46_8 C43_8 1_555 1_555
C48_8 O22_8 1_555 1_555
H34_8 C48_8 1_555 1_555
H35_8 C48_8 1_555 1_555
H36_8 C48_8 1_555 1_555
C49_8 O23_8 1_555 1_555
C50_8 C49_8 1_555 1_555
C51_8 C50_8 1_555 1_555
H37_8 C51_8 1_555 1_555
C52_8 C51_8 1_555 1_555
C53_8 C52_8 1_555 1_555
C54_8 C53_8 1_555 1_555
H38_8 C54_8 1_555 1_555
C55_8 C50_8 1_555 1_555
H39_8 C55_8 1_555 1_555
C56_8 C53_8 1_555 1_555
C57_8 C56_8 1_555 1_555
C58_8 C57_8 1_555 1_555
C61_8 C56_8 1_555 1_555
H42_8 C61_8 1_555 1_555
C63_8 O27_8 1_555 1_555
H44_8 C63_8 1_555 1_555
H45_8 C63_8 1_555 1_555
C64_8 O28_8 1_555 1_555
H46_8 C64_8 1_555 1_555
H47_8 C64_8 1_555 1_555
H48_8 C64_8 1_555 1_555
Cd7 O29_8 1_555 1_555
O29_8 C65_8 1_555 1_555
O30_8 Cd7 1_555 1_555
O42_4 C78_8 1_555 1_555
O33_8 C68_8 1_555 1_555
O34_8 C73_8 1_555 1_555
O35_8 Cd7 1_555 1_555
O45_2 C81_8 1_555 1_555
O39_8 C84_8 1_555 1_555
O40_8 C89_8 1_555 1_555
C65_8 O30_8 1_555 1_555
C66_8 C65_8 1_555 1_555
C67_8 C66_8 1_555 1_555
H49_8 C67_8 1_555 1_555
C68_8 C67_8 1_555 1_555
C69_8 C68_8 1_555 1_555
C70_8 C69_8 1_555 1_555
H50_8 C70_8 1_555 1_555
C71_8 C66_8 1_555 1_555
H51_8 C71_8 1_555 1_555
C72_8 C69_8 1_555 1_555
C73_8 C72_8 1_555 1_555
C74_8 C73_8 1_555 1_555
H52_8 C74_8 1_555 1_555
C75_8 C74_8 1_555 1_555
C76_8 C75_8 1_555 1_555
H53_8 C76_8 1_555 1_555
C77_8 C72_8 1_555 1_555
H54_8 C77_8 1_555 1_555
C78_8 O44_4 1_555 1_555
C80_8 O34_8 1_555 1_555
H58_8 C80_8 1_555 1_555
H59_8 C80_8 1_555 1_555
H60_8 C80_8 1_555 1_555
C81_8 O35_8 1_555 1_555
C82_8 C81_8 1_555 1_555
C83_8 C82_8 1_555 1_555
H61_8 C83_8 1_555 1_555
C84_8 C83_8 1_555 1_555
C85_8 C84_8 1_555 1_555
C86_8 C85_8 1_555 1_555
H62_8 C86_8 1_555 1_555
C87_8 C82_8 1_555 1_555
H63_8 C87_8 1_555 1_555
C88_8 C85_8 1_555 1_555
C89_8 C88_8 1_555 1_555
C90_8 C89_8 1_555 1_555
C93_8 C88_8 1_555 1_555
H66_8 C93_8 1_555 1_555
C95_8 O39_8 1_555 1_555
H68_8 C95_8 1_555 1_555
H69_8 C95_8 1_555 1_555
C96_8 O40_8 1_555 1_555
H70_8 C96_8 1_555 1_555
H71_8 C96_8 1_555 1_555
H72_8 C96_8 1_555 1_555
C38_8 C39_8 1_555 1_555
C44_8 C45_8 1_555 1_555
C54_8 C55_8 1_555 1_555
C70_8 C71_8 1_555 1_555
C75_8 C78_8 1_555 1_555
C76_8 C77_8 1_555 1_555
C86_8 C87_8 1_555 1_555
O47_4 C94_8 1_555 1_555
O49_4 C94_8 1_555 1_555
C92_8 C91_8 1_555 1_555
H65_8 C92_8 1_555 1_555
C94_8 C91_8 1_555 1_555
O47 C62_8 1_555 1_555
O49 C62_8 1_555 1_555
C60_8 C59_8 1_555 1_555
H41_8 C60_8 1_555 1_555
C62_8 C59_8 1_555 1_555
H55_8 C79_8 1_555 1_555
H57_8 C79_8 1_555 1_555
N1 H73 1_555 1_555
H74 N1 1_555 1_555
C97 N1 1_555 1_555
H75 C97 1_555 1_555
H76 C97 1_555 1_555
H77 C97 1_555 1_555
C98 N1 1_555 1_555
H78 C98 1_555 1_555
H79 C98 1_555 1_555
H80 C98 1_555 1_555
N1_2 H73_2 1_555 1_555
H74_2 N1_2 1_555 1_555
C97_2 N1_2 1_555 1_555
H75_2 C97_2 1_555 1_555
H76_2 C97_2 1_555 1_555
H77_2 C97_2 1_555 1_555
C98_2 N1_2 1_555 1_555
H78_2 C98_2 1_555 1_555
H79_2 C98_2 1_555 1_555
H80_2 C98_2 1_555 1_555
N1_3 H73_3 1_555 1_555
H74_3 N1_3 1_555 1_555
C97_3 N1_3 1_555 1_555
H75_3 C97_3 1_555 1_555
H76_3 C97_3 1_555 1_555
H77_3 C97_3 1_555 1_555
C98_3 N1_3 1_555 1_555
H78_3 C98_3 1_555 1_555
H79_3 C98_3 1_555 1_555
H80_3 C98_3 1_555 1_555
N1_4 H73_4 1_555 1_555
H74_4 N1_4 1_555 1_555
C97_4 N1_4 1_555 1_555
H75_4 C97_4 1_555 1_555
H76_4 C97_4 1_555 1_555
H77_4 C97_4 1_555 1_555
C98_4 N1_4 1_555 1_555
H78_4 C98_4 1_555 1_555
H79_4 C98_4 1_555 1_555
H80_4 C98_4 1_555 1_555
N1_5 H73_5 1_555 1_555
H74_5 N1_5 1_555 1_555
C98_5 N1_5 1_555 1_555
H78_5 C98_5 1_555 1_555
H80_5 C98_5 1_555 1_555
H75_5 C97_5 1_555 1_555
H76_5 C97_5 1_555 1_555
H77_5 C97_5 1_555 1_555
H75_6 C97_6 1_555 1_555
H76_6 C97_6 1_555 1_555
H77_6 C97_6 1_555 1_555
N1_6 H73_6 1_555 1_555
H74_6 N1_6 1_555 1_555
C98_6 N1_6 1_555 1_555
H78_6 C98_6 1_555 1_555
H80_6 C98_6 1_555 1_555
N1_7 H73_7 1_555 1_555
H74_7 N1_7 1_555 1_555
C97_7 N1_7 1_555 1_555
H75_7 C97_7 1_555 1_555
H76_7 C97_7 1_555 1_555
H77_7 C97_7 1_555 1_555
C98_7 N1_7 1_555 1_555
H78_7 C98_7 1_555 1_555
H79_7 C98_7 1_555 1_555
H80_7 C98_7 1_555 1_555
N1_8 H73_8 1_555 1_555
H74_8 N1_8 1_555 1_555
C97_8 N1_8 1_555 1_555
H75_8 C97_8 1_555 1_555
H76_8 C97_8 1_555 1_555
H77_8 C97_8 1_555 1_555
C98_8 N1_8 1_555 1_555
H78_8 C98_8 1_555 1_555
H79_8 C98_8 1_555 1_555
H80_8 C98_8 1_555 1_555
H75_9 C97_9 1_555 1_555
H76_9 C97_9 1_555 1_555
H77_9 C97_9 1_555 1_555
N1_9 H73_9 1_555 1_555
H74_9 N1_9 1_555 1_555
C98_9 N1_9 1_555 1_555
H78_9 C98_9 1_555 1_555
H79_9 C98_9 1_555 1_555
H80_9 C98_9 1_555 1_555
N1_10 H73_10 1_555 1_555
H74_10 N1_10 1_555 1_555
C98_10 N1_10 1_555 1_555
H78_10 C98_10 1_555 1_555
H79_10 C98_10 1_555 1_555
H80_10 C98_10 1_555 1_555
H75_10 C97_10 1_555 1_555
H76_10 C97_10 1_555 1_555
H77_10 C97_10 1_555 1_555
N1_11 H73_11 1_555 1_555
H74_11 N1_11 1_555 1_555
C98_11 N1_11 1_555 1_555
H78_11 C98_11 1_555 1_555
H79_11 C98_11 1_555 1_555
H80_11 C98_11 1_555 1_555
H75_11 C97_11 1_555 1_555
H76_11 C97_11 1_555 1_555
H77_11 C97_11 1_555 1_555
H75_12 C97_12 1_555 1_555
H76_12 C97_12 1_555 1_555
H77_12 C97_12 1_555 1_555
N1_12 H73_12 1_555 1_555
H74_12 N1_12 1_555 1_555
C98_12 N1_12 1_555 1_555
H78_12 C98_12 1_555 1_555
H79_12 C98_12 1_555 1_555
H80_12 C98_12 1_555 1_555
N1_13 H73_13 1_555 1_555
H74_13 N1_13 1_555 1_555
C97_13 N1_13 1_555 1_555
H75_13 C97_13 1_555 1_555
H76_13 C97_13 1_555 1_555
H77_13 C97_13 1_555 1_555
C98_13 N1_13 1_555 1_555
H78_13 C98_13 1_555 1_555
H79_13 C98_13 1_555 1_555
H80_13 C98_13 1_555 1_555
N1_14 H73_14 1_555 1_555
H74_14 N1_14 1_555 1_555
C97_14 N1_14 1_555 1_555
H75_14 C97_14 1_555 1_555
H76_14 C97_14 1_555 1_555
H77_14 C97_14 1_555 1_555
C98_14 N1_14 1_555 1_555
H78_14 C98_14 1_555 1_555
H79_14 C98_14 1_555 1_555
H80_14 C98_14 1_555 1_555
N1_15 H73_15 1_555 1_555
H74_15 N1_15 1_555 1_555
C98_15 N1_15 1_555 1_555
H78_15 C98_15 1_555 1_555
H80_15 C98_15 1_555 1_555
H75_15 C97_15 1_555 1_555
H76_15 C97_15 1_555 1_555
H77_15 C97_15 1_555 1_555
H75_16 C97_16 1_555 1_555
H76_16 C97_16 1_555 1_555
H77_16 C97_16 1_555 1_555
N1_16 H73_16 1_555 1_555
H74_16 N1_16 1_555 1_555
C98_16 N1_16 1_555 1_555
H78_16 C98_16 1_555 1_555
H80_16 C98_16 1_555 1_555
N2 H81 1_555 1_555
C99 N2 1_555 1_555
H83 C99 1_555 1_555
H84 C99 1_555 1_555
H85 C99 1_555 1_555
C100 N2 1_555 1_555
H86 C100 1_555 1_555
H87 C100 1_555 1_555
H88 C100 1_555 1_555
N2_2 H81_2 1_555 1_555
C99_2 N2_2 1_555 1_555
H83_2 C99_2 1_555 1_555
H84_2 C99_2 1_555 1_555
H85_2 C99_2 1_555 1_555
C100_2 N2_2 1_555 1_555
H86_2 C100_2 1_555 1_555
H87_2 C100_2 1_555 1_555
H88_2 C100_2 1_555 1_555
N2_3 H81_3 1_555 1_555
C99_3 N2_3 1_555 1_555
H83_3 C99_3 1_555 1_555
H84_3 C99_3 1_555 1_555
H85_3 C99_3 1_555 1_555
C100_3 N2_3 1_555 1_555
H86_3 C100_3 1_555 1_555
H87_3 C100_3 1_555 1_555
H88_3 C100_3 1_555 1_555
N2_4 H81_4 1_555 1_555
C99_4 N2_4 1_555 1_555
H83_4 C99_4 1_555 1_555
H84_4 C99_4 1_555 1_555
H85_4 C99_4 1_555 1_555
C100_4 N2_4 1_555 1_555
H86_4 C100_4 1_555 1_555
H87_4 C100_4 1_555 1_555
H88_4 C100_4 1_555 1_555
N2_5 H81_5 1_555 1_555
H82_5 N2_5 1_555 1_555
C99_5 N2_5 1_555 1_555
H83_5 C99_5 1_555 1_555
H84_5 C99_5 1_555 1_555
H85_5 C99_5 1_555 1_555
C100_5 N2_5 1_555 1_555
H86_5 C100_5 1_555 1_555
H87_5 C100_5 1_555 1_555
H88_5 C100_5 1_555 1_555
N2_6 H81_6 1_555 1_555
H82_6 N2_6 1_555 1_555
C99_6 N2_6 1_555 1_555
H83_6 C99_6 1_555 1_555
H84_6 C99_6 1_555 1_555
H85_6 C99_6 1_555 1_555
C100_6 N2_6 1_555 1_555
H86_6 C100_6 1_555 1_555
H87_6 C100_6 1_555 1_555
H88_6 C100_6 1_555 1_555
N2_7 H81_7 1_555 1_555
C99_7 N2_7 1_555 1_555
H83_7 C99_7 1_555 1_555
H84_7 C99_7 1_555 1_555
H85_7 C99_7 1_555 1_555
C100_7 N2_7 1_555 1_555
H86_7 C100_7 1_555 1_555
H87_7 C100_7 1_555 1_555
H88_7 C100_7 1_555 1_555
N2_8 H81_8 1_555 1_555
C99_8 N2_8 1_555 1_555
H83_8 C99_8 1_555 1_555
H84_8 C99_8 1_555 1_555
H85_8 C99_8 1_555 1_555
C100_8 N2_8 1_555 1_555
H86_8 C100_8 1_555 1_555
H87_8 C100_8 1_555 1_555
H88_8 C100_8 1_555 1_555
N2_9 H81_9 1_555 1_555
H82_9 N2_9 1_555 1_555
C99_9 N2_9 1_555 1_555
H83_9 C99_9 1_555 1_555
H84_9 C99_9 1_555 1_555
H85_9 C99_9 1_555 1_555
C100_9 N2_9 1_555 1_555
H86_9 C100_9 1_555 1_555
H87_9 C100_9 1_555 1_555
H88_9 C100_9 1_555 1_555
N2_10 H81_10 1_555 1_555
H82_10 N2_10 1_555 1_555
C99_10 N2_10 1_555 1_555
H83_10 C99_10 1_555 1_555
H84_10 C99_10 1_555 1_555
H85_10 C99_10 1_555 1_555
C100_10 N2_10 1_555 1_555
H86_10 C100_10 1_555 1_555
H87_10 C100_10 1_555 1_555
H88_10 C100_10 1_555 1_555
N2_11 H81_11 1_555 1_555
H82_11 N2_11 1_555 1_555
C99_11 N2_11 1_555 1_555
H83_11 C99_11 1_555 1_555
H84_11 C99_11 1_555 1_555
H85_11 C99_11 1_555 1_555
C100_11 N2_11 1_555 1_555
H86_11 C100_11 1_555 1_555
H87_11 C100_11 1_555 1_555
H88_11 C100_11 1_555 1_555
N2_12 H81_12 1_555 1_555
H82_12 N2_12 1_555 1_555
C99_12 N2_12 1_555 1_555
H83_12 C99_12 1_555 1_555
H84_12 C99_12 1_555 1_555
H85_12 C99_12 1_555 1_555
C100_12 N2_12 1_555 1_555
H86_12 C100_12 1_555 1_555
H87_12 C100_12 1_555 1_555
H88_12 C100_12 1_555 1_555
N2_13 H81_13 1_555 1_555
C99_13 N2_13 1_555 1_555
H83_13 C99_13 1_555 1_555
H84_13 C99_13 1_555 1_555
H85_13 C99_13 1_555 1_555
C100_13 N2_13 1_555 1_555
H86_13 C100_13 1_555 1_555
H87_13 C100_13 1_555 1_555
H88_13 C100_13 1_555 1_555
N2_14 H81_14 1_555 1_555
C99_14 N2_14 1_555 1_555
H83_14 C99_14 1_555 1_555
H84_14 C99_14 1_555 1_555
H85_14 C99_14 1_555 1_555
C100_14 N2_14 1_555 1_555
H86_14 C100_14 1_555 1_555
H87_14 C100_14 1_555 1_555
H88_14 C100_14 1_555 1_555
N2_15 H81_15 1_555 1_555
H82_15 N2_15 1_555 1_555
C99_15 N2_15 1_555 1_555
H83_15 C99_15 1_555 1_555
H84_15 C99_15 1_555 1_555
H85_15 C99_15 1_555 1_555
C100_15 N2_15 1_555 1_555
H86_15 C100_15 1_555 1_555
H87_15 C100_15 1_555 1_555
H88_15 C100_15 1_555 1_555
N2_16 H81_16 1_555 1_555
H82_16 N2_16 1_555 1_555
C99_16 N2_16 1_555 1_555
H83_16 C99_16 1_555 1_555
H84_16 C99_16 1_555 1_555
H85_16 C99_16 1_555 1_555
C100_16 N2_16 1_555 1_555
H86_16 C100_16 1_555 1_555
H87_16 C100_16 1_555 1_555
H88_16 C100_16 1_555 1_555

#END
