
###############################################################################
#
# This file contains modified crystal structure data generated from the
# MOF subset of the Cambridge Structural Database (CSD) v543 
# hosted by the Cambridge Crystallographic Data Centre (CCDC).
#
# This work is licensed under the Creative Commons
# Attribution-NonCommercial-ShareAlike 4.0 International License.
# To view a copy of this license, visit
# http://creativecommons.org/licenses/by-nc-sa/4.0/
# or send a letter to
# Creative Commons, PO Box 1866, Mountain View, CA 94042, USA.
#
# CIF created using the CSD Python API on 29 September 2022
# The structure has been converted into the P1 space group
# The structure has a 3D framework
# The original CSD entry FERVIJ is in the rhombohedral crystal system
# The framework has been calculated to contain at least 10.0% void space
# The void calculation uses a probe of radius 1.32A, grid spacing 0.4
#
###############################################################################

data_FERVIJ
_chemical_formula_moiety         '(C144 H72 Au22 Fe10 N60)n'
_symmetry_cell_setting           triclinic
_symmetry_space_group_name_H-M   'P 1'
_symmetry_Int_Tables_number      1
_space_group_name_Hall           'P 1'
loop_
_symmetry_equiv_pos_site_id
_symmetry_equiv_pos_as_xyz
1 x,y,z
_cell_length_a                   26.8779(18)
_cell_length_b                   26.8779(18)
_cell_length_c                   9.7512(8)
_cell_angle_alpha                90
_cell_angle_beta                 90
_cell_angle_gamma                120
_cell_volume                     6100.7
loop_
_atom_site_label
_atom_site_type_symbol
_atom_site_fract_x
_atom_site_fract_y
_atom_site_fract_z
Au1 Au 0.0000 0.29216(2) 0.5000
Fe1 Fe 0.1667 0.3333 0.8333
N1 N 0.1194(2) 0.2388(4) 0.8404(13)
N2 N 0.1077(4) 0.3329(4) 0.6842(10)
C1 C 0.0623(4) 0.2092(4) 0.8378(11)
H1 H 0.0426 0.2294 0.8372
C2 C 0.0310(3) 0.1502(3) 0.8360(10)
C3 C 0.0599(2) 0.1199(5) 0.8342(13)
C4 C 0.0278(2) 0.0555(5) 0.8323(13)
C5 C 0.0702(4) 0.3230(4) 0.6142(12)
N7 N 0.0586(3) 0.0293(2) 0.8328(11)
H6 H 0.1400 0.0089 0.8358
C14 C 0.1469(6) 0.2092(4) 0.8378(11)
H7 H 0.1868 0.2294 0.8372
C15 C 0.1192(4) 0.1502(3) 0.8360(10)
H8 H 0.1400 0.1311 0.8358
Au3 Au 0.29216(2) 0.0000 0.5000
N12 N 0.3329(4) 0.1077(4) 0.3158(10)
C24 C 0.3230(4) 0.0702(4) 0.3858(12)
Au5 Au 0.29216(2) 0.29216(2) 0.5000
N14 N 0.3329(4) 0.2252(6) 0.3158(10)
C26 C 0.3230(4) 0.2528(6) 0.3858(12)
N16 N 0.2252(6) 0.3329(4) 0.6842(10)
C28 C 0.2528(6) 0.3230(4) 0.6142(12)
N19 N 0.2139(4) 0.4279(4) 0.8263(13)
N20 N 0.2747(3) 0.6374(2) 0.8339(11)
C31 C 0.1864(6) 0.4575(4) 0.8289(11)
H13 H 0.1465 0.4373 0.8295
C32 C 0.2141(4) 0.5165(3) 0.8307(10)
H14 H 0.1933 0.5356 0.8309
C33 C 0.2733(5) 0.5468(5) 0.8325(13)
C34 C 0.3056(5) 0.6112(5) 0.8344(13)
N21 N 0.2139(2) 0.7861(4) 0.8263(13)
N22 N 0.3626(2) 0.7253(3) 0.8339(11)
C35 C 0.2710(4) 0.8136(6) 0.8289(11)
H15 H 0.2907 0.8535 0.8295
C36 C 0.3023(3) 0.7859(4) 0.8307(10)
H16 H 0.3422 0.8067 0.8309
C37 C 0.2734(2) 0.7267(5) 0.8325(13)
C38 C 0.3055(2) 0.6944(5) 0.8344(13)
N23 N 0.5721(4) 0.7861(2) 0.8263(13)
N24 N 0.3626(2) 0.6374(2) 0.8339(11)
C39 C 0.5425(4) 0.7290(4) 0.8289(11)
H17 H 0.5627 0.7093 0.8295
C40 C 0.4835(3) 0.6977(3) 0.8307(10)
H18 H 0.4644 0.6578 0.8309
C41 C 0.4532(5) 0.7266(2) 0.8325(13)
C42 C 0.3888(5) 0.6945(2) 0.8344(13)
C43 C 0.2710(4) 0.4575(4) 0.8289(11)
H19 H 0.2907 0.4373 0.8295
C44 C 0.3023(3) 0.5165(3) 0.8307(10)
H20 H 0.3422 0.5356 0.8309
C45 C 0.5425(4) 0.8136(6) 0.8289(11)
H21 H 0.5627 0.8535 0.8295
C46 C 0.4835(3) 0.7859(4) 0.8307(10)
H22 H 0.4644 0.8067 0.8309
C47 C 0.1864(6) 0.7290(4) 0.8289(11)
H23 H 0.1465 0.7093 0.8295
C48 C 0.2141(4) 0.6977(3) 0.8307(10)
H24 H 0.1933 0.6578 0.8309
Fe4 Fe 0.6667 0.8334 0.8333
Fe5 Fe 0.1666 0.8333 0.8333
Fe8 Fe 0.3333 0.1667 0.1667
N27 N 0.1081(6) 0.3338(4) 0.9825(10)
N30 N 0.2256(4) 0.3338(4) 0.9825(10)
N6 N 0.1194(4) 0.8806(2) 0.8404(13)
C10 C 0.1469(6) 0.9377(4) 0.8378(11)
H5 H 0.1868 0.9574 0.8372
C11 C 0.1192(4) 0.9690(3) 0.8360(10)
C12 C 0.0600(5) 0.9401(2) 0.8342(13)
C13 C 0.0277(5) 0.9722(2) 0.8323(13)
C16 C 0.0623(4) 0.8531(6) 0.8378(11)
H9 H 0.0426 0.8132 0.8372
C17 C 0.0310(3) 0.8808(4) 0.8360(10)
Au3_2 Au 0.29216(2) 1.0000 0.5000
N9 N 0.2252(6) 0.8923(4) 0.6842(10)
C21 C 0.2528(6) 0.9298(4) 0.6142(12)
Au4 Au 0.0000 0.70784(2) 0.5000
N17 N 0.1077(4) 0.7748(6) 0.6842(10)
C29 C 0.0702(4) 0.7472(6) 0.6142(12)
N28 N 0.2256(4) 0.8919(6) 0.9825(10)
N32 N 0.1081(6) 0.7744(4) 0.9825(10)
Au1_2 Au 1.0000 0.29216(2) 0.5000
N3 N 0.9707(2) 0.0293(2) 0.8328(11)
H2 H 0.9911 0.1311 0.8358
H12 H 0.8689 0.0089 0.8358
N11 N 0.8923(4) 0.2252(6) 0.3158(10)
C23 C 0.9298(4) 0.2528(6) 0.3858(12)
Au6 Au 0.70784(2) 0.0000 0.5000
N15 N 0.7748(6) 0.1077(4) 0.3158(10)
C27 C 0.7472(6) 0.0702(4) 0.3858(12)
Fe7 Fe 0.8333 0.1666 0.1667
N4 N 0.7612(4) 0.8806(4) 0.8404(13)
N5 N 0.9707(2) 0.9414(3) 0.8328(11)
C6 C 0.7908(4) 0.8531(6) 0.8378(11)
H3 H 0.7706 0.8132 0.8372
C7 C 0.8498(3) 0.8808(4) 0.8360(10)
H4 H 0.8689 0.8600 0.8358
C8 C 0.8801(5) 0.9400(5) 0.8342(13)
C9 C 0.9445(5) 0.9723(5) 0.8323(13)
H10 H 0.9911 0.8600 0.8358
C18 C 0.7908(4) 0.9377(4) 0.8378(11)
H11 H 0.7706 0.9574 0.8372
C19 C 0.8498(3) 0.9690(3) 0.8360(10)
Au2 Au 0.70784(2) 0.70784(2) 0.5000
N8 N 0.6671(4) 0.7748(6) 0.6842(10)
C20 C 0.6770(4) 0.7472(6) 0.6142(12)
N10 N 0.7748(6) 0.6671(4) 0.3158(10)
C22 C 0.7472(6) 0.6770(4) 0.3858(12)
Au4_2 Au 1.0000 0.70784(2) 0.5000
N13 N 0.8923(4) 0.6671(4) 0.3158(10)
C25 C 0.9298(4) 0.6770(4) 0.3858(12)
Au6_2 Au 0.70784(2) 1.0000 0.5000
N18 N 0.6671(4) 0.8923(4) 0.6842(10)
C30 C 0.6770(4) 0.9298(4) 0.6142(12)
Fe6 Fe 0.8334 0.6667 0.1667
N29 N 0.6662(4) 0.7744(4) 0.9825(10)
N31 N 0.6662(4) 0.8919(6) 0.9825(10)
N5_2 N 0.0293(4) 0.0586(3) 0.1672(11)
H4_2 H 0.0089 0.1400 0.1642
N6_2 N 0.2388(4) 0.1194(2) 0.1596(13)
C10_2 C 0.2092(7) 0.0623(4) 0.1622(11)
H5_2 H 0.2294 0.0426 0.1628
C11_2 C 0.1502(5) 0.0310(3) 0.1640(10)
C12_2 C 0.1199(5) 0.0599(2) 0.1658(13)
C13_2 C 0.0555(5) 0.0278(2) 0.1677(13)
C16_2 C 0.2092(7) 0.1469(6) 0.1622(11)
H9_2 H 0.2294 0.1868 0.1628
C17_2 C 0.1502(5) 0.1192(4) 0.1640(10)
H10_2 H 0.1311 0.1400 0.1642
N25 N 0.4279(4) 0.2139(4) 0.1737(13)
N28_2 N 0.3338(7) 0.1081(6) 0.0175(10)
N32_2 N 0.3338(7) 0.2256(4) 0.0175(10)
N7_2 N 0.0293(4) 0.9707(2) 0.1672(11)
H6_2 H 0.1311 0.9911 0.1642
H8_2 H 0.0089 0.8689 0.1642
N4_2 N 0.8806(6) 0.1194(4) 0.1596(13)
C6_2 C 0.9377(7) 0.1469(6) 0.1622(11)
H3_2 H 0.9574 0.1868 0.1628
C7_2 C 0.9690(5) 0.1192(4) 0.1640(10)
C8_2 C 0.9401(7) 0.0600(5) 0.1658(13)
C9_2 C 0.9722(7) 0.0277(5) 0.1677(13)
C18_2 C 0.8531(6) 0.0623(4) 0.1622(11)
H11_2 H 0.8132 0.0426 0.1628
C19_2 C 0.8808(4) 0.0310(3) 0.1640(10)
N26 N 0.7861(4) 0.2139(2) 0.1737(13)
N29_2 N 0.8919(6) 0.2256(4) 0.0175(10)
N31_2 N 0.7744(7) 0.1081(6) 0.0175(10)
N1_2 N 0.8806(4) 0.7612(4) 0.1596(13)
N3_2 N 0.9414(3) 0.9707(2) 0.1672(11)
C1_2 C 0.8531(6) 0.7908(4) 0.1622(11)
H1_2 H 0.8132 0.7706 0.1628
C2_2 C 0.8808(4) 0.8498(3) 0.1640(10)
H2_2 H 0.8600 0.8689 0.1642
C3_2 C 0.9400(5) 0.8801(5) 0.1658(13)
C4_2 C 0.9723(5) 0.9445(5) 0.1677(13)
C14_2 C 0.9377(7) 0.7908(4) 0.1622(11)
H7_2 H 0.9574 0.7706 0.1628
C15_2 C 0.9690(5) 0.8498(3) 0.1640(10)
H12_2 H 0.8600 0.9911 0.1642
N19_2 N 0.7861(6) 0.5721(4) 0.1737(13)
N20_2 N 0.6374(4) 0.3626(2) 0.1661(11)
C31_2 C 0.7290(7) 0.5425(4) 0.1711(11)
H13_2 H 0.7093 0.5627 0.1705
C32_2 C 0.6977(5) 0.4835(3) 0.1693(10)
H14_2 H 0.6578 0.4644 0.1691
C33_2 C 0.7266(7) 0.4532(5) 0.1675(13)
C34_2 C 0.6945(7) 0.3888(5) 0.1656(13)
N22_2 N 0.6374(4) 0.2747(3) 0.1661(11)
C35_2 C 0.4575(7) 0.1864(6) 0.1711(11)
H15_2 H 0.4373 0.1465 0.1705
C36_2 C 0.5165(5) 0.2141(4) 0.1693(10)
H16_2 H 0.5356 0.1933 0.1691
C37_2 C 0.5468(5) 0.2733(5) 0.1675(13)
C38_2 C 0.6112(5) 0.3056(5) 0.1656(13)
N24_2 N 0.7253(3) 0.3626(2) 0.1661(11)
C39_2 C 0.8136(6) 0.2710(4) 0.1711(11)
H17_2 H 0.8535 0.2907 0.1705
C40_2 C 0.7859(4) 0.3023(3) 0.1693(10)
H18_2 H 0.8067 0.3422 0.1691
C41_2 C 0.7267(5) 0.2734(2) 0.1675(13)
C42_2 C 0.6944(5) 0.3055(2) 0.1656(13)
C43_2 C 0.8136(6) 0.5425(4) 0.1711(11)
H19_2 H 0.8535 0.5627 0.1705
C44_2 C 0.7859(4) 0.4835(3) 0.1693(10)
H20_2 H 0.8067 0.4644 0.1691
C45_2 C 0.7290(7) 0.1864(6) 0.1711(11)
H21_2 H 0.7093 0.1465 0.1705
C46_2 C 0.6977(5) 0.2141(4) 0.1693(10)
H22_2 H 0.6578 0.1933 0.1691
C47_2 C 0.4575(7) 0.2710(4) 0.1711(11)
H23_2 H 0.4373 0.2907 0.1705
C48_2 C 0.5165(5) 0.3023(3) 0.1693(10)
H24_2 H 0.5356 0.3422 0.1691
N27_2 N 0.7744(7) 0.6662(4) 0.0175(10)
N30_2 N 0.8919(6) 0.6662(4) 0.0175(10)
Fe8_2 Fe -0.0000 0.5000 0.5000
Au1_3 Au 0.6667 0.62549(2) 0.8333
C5_2 C 0.7369(4) 0.6563(4) 0.9475(12)
Au2_2 Au 0.37451(2) 0.04117(2) 0.8333
C20_2 C 0.3437(4) 0.0805(6) 0.9475(12)
Au3_3 Au 0.95883(2) 0.3333 0.8333
C21_2 C 0.9195(6) 0.2631(4) 0.9475(12)
N10_2 N 0.4415(6) 0.0004(4) 0.6491(10)
C22_2 C 0.4139(6) 0.0103(4) 0.7191(12)
N11_2 N 0.5590(4) 0.5585(6) 0.6491(10)
C23_2 C 0.5965(4) 0.5861(6) 0.7191(12)
N12_2 N 0.9996(4) 0.4410(4) 0.6491(10)
C24_2 C 0.9897(4) 0.4035(4) 0.7191(12)
Au4_3 Au 0.6667 0.04117(2) 0.8333
N13_2 N 0.5590(4) 0.0004(4) 0.6491(10)
C25_2 C 0.5965(4) 0.0103(4) 0.7191(12)
Au5_2 Au 0.95883(2) 0.62549(2) 0.8333
N14_2 N 0.9996(4) 0.5585(6) 0.6491(10)
C26_2 C 0.9897(4) 0.5861(6) 0.7191(12)
Au6_3 Au 0.37451(2) 0.3333 0.8333
N15_2 N 0.4415(6) 0.4410(4) 0.6491(10)
C27_2 C 0.4139(6) 0.4035(4) 0.7191(12)
C28_2 C 0.9195(6) 0.6563(4) 0.9475(12)
C29_2 C 0.7369(4) 0.0805(6) 0.9475(12)
C30_2 C 0.3437(4) 0.2631(4) 0.9475(12)
Fe6_2 Fe 0.5001 0.0000 0.5000
Fe7_2 Fe 0.5000 0.4999 0.5000
Fe8_3 Fe 1.0000 0.5000 0.5000
Fe6_3 Fe 0.5001 1.0000 0.5000
N25_2 N 0.0945(4) 0.5473(4) 0.5071(13)
N28_3 N 0.0004(7) 0.4415(6) 0.3509(10)
N32_3 N 0.0004(7) 0.5590(4) 0.3509(10)
N1_3 N 0.5473(4) 0.0945(4) 0.4929(13)
N3_3 N 0.6081(3) 0.3040(2) 0.5005(11)
C1_3 C 0.5198(6) 0.1241(4) 0.4955(11)
H1_3 H 0.4799 0.1039 0.4961
C2_3 C 0.5475(4) 0.1831(3) 0.4973(10)
H2_3 H 0.5267 0.2022 0.4975
C3_3 C 0.6067(5) 0.2134(5) 0.4991(13)
C4_3 C 0.6390(5) 0.2778(5) 0.5010(13)
N4_3 N 0.5473(6) 0.4527(4) 0.4929(13)
N5_3 N 0.6960(4) 0.3919(3) 0.5005(11)
C6_3 C 0.6044(7) 0.4802(6) 0.4955(11)
H3_3 H 0.6241 0.5201 0.4961
C7_3 C 0.6357(5) 0.4525(4) 0.4973(10)
H4_3 H 0.6756 0.4733 0.4975
C8_3 C 0.6068(7) 0.3933(5) 0.4991(13)
C9_3 C 0.6389(7) 0.3610(5) 0.5010(13)
N6_3 N 0.9055(4) 0.4527(2) 0.4929(13)
N7_3 N 0.6960(4) 0.3040(2) 0.5005(11)
C10_3 C 0.8759(7) 0.3956(4) 0.4955(11)
H5_3 H 0.8961 0.3759 0.4961
C11_3 C 0.8169(5) 0.3643(3) 0.4973(10)
H6_3 H 0.7978 0.3244 0.4975
C12_3 C 0.7866(5) 0.3932(2) 0.4991(13)
C13_3 C 0.7222(5) 0.3611(2) 0.5010(13)
C14_3 C 0.6044(7) 0.1241(4) 0.4955(11)
H7_3 H 0.6241 0.1039 0.4961
C15_3 C 0.6357(5) 0.1831(3) 0.4973(10)
H8_3 H 0.6756 0.2022 0.4975
C16_3 C 0.8759(7) 0.4802(6) 0.4955(11)
H9_3 H 0.8961 0.5201 0.4961
C17_3 C 0.8169(5) 0.4525(4) 0.4973(10)
H10_3 H 0.7978 0.4733 0.4975
C18_3 C 0.5198(6) 0.3956(4) 0.4955(11)
H11_3 H 0.4799 0.3759 0.4961
C19_3 C 0.5475(4) 0.3643(3) 0.4973(10)
H12_3 H 0.5267 0.3244 0.4975
N26_2 N 0.4527(4) 0.5473(2) 0.5071(13)
N29_3 N 0.5585(6) 0.5590(4) 0.3509(10)
N31_3 N 0.4410(7) 0.4415(6) 0.3509(10)
N19_3 N 0.4527(6) 0.9055(4) 0.5071(13)
N20_3 N 0.3040(4) 0.6960(2) 0.4995(11)
C31_3 C 0.3956(7) 0.8759(4) 0.5045(11)
H13_3 H 0.3759 0.8961 0.5039
C32_3 C 0.3643(5) 0.8169(3) 0.5027(10)
H14_3 H 0.3244 0.7978 0.5025
C33_3 C 0.3932(7) 0.7866(5) 0.5009(13)
C34_3 C 0.3611(7) 0.7222(5) 0.4990(13)
N22_3 N 0.3040(4) 0.6081(3) 0.4995(11)
C35_3 C 0.1241(7) 0.5198(6) 0.5045(11)
H15_3 H 0.1039 0.4799 0.5039
C36_3 C 0.1831(5) 0.5475(4) 0.5027(10)
H16_3 H 0.2022 0.5267 0.5025
C37_3 C 0.2134(5) 0.6067(5) 0.5009(13)
C38_3 C 0.2778(5) 0.6390(5) 0.4990(13)
N24_3 N 0.3919(3) 0.6960(2) 0.4995(11)
C39_3 C 0.4802(6) 0.6044(4) 0.5045(11)
H17_3 H 0.5201 0.6241 0.5039
C40_3 C 0.4525(4) 0.6357(3) 0.5027(10)
H18_3 H 0.4733 0.6756 0.5025
C41_3 C 0.3933(5) 0.6068(2) 0.5009(13)
C42_3 C 0.3610(5) 0.6389(2) 0.4990(13)
C43_3 C 0.4802(6) 0.8759(4) 0.5045(11)
H19_3 H 0.5201 0.8961 0.5039
C44_3 C 0.4525(4) 0.8169(3) 0.5027(10)
H20_3 H 0.4733 0.7978 0.5025
C45_3 C 0.3956(7) 0.5198(6) 0.5045(11)
H21_3 H 0.3759 0.4799 0.5039
C46_3 C 0.3643(5) 0.5475(4) 0.5027(10)
H22_3 H 0.3244 0.5267 0.5025
C47_3 C 0.1241(7) 0.6044(4) 0.5045(11)
H23_3 H 0.1039 0.6241 0.5039
C48_3 C 0.1831(5) 0.6357(3) 0.5027(10)
H24_3 H 0.2022 0.6756 0.5025
N27_3 N 0.4410(7) 0.9996(4) 0.3509(10)
N30_3 N 0.5585(6) 0.9996(4) 0.3509(10)
Au1_4 Au 0.3333 0.95883(2) 0.1667
C5_3 C 0.4035(4) 0.9897(4) 0.2809(12)
Au2_3 Au 0.04117(2) 0.37451(2) 0.1667
C20_3 C 0.0103(4) 0.4139(6) 0.2809(12)
Au3_4 Au 0.62549(2) 0.6667 0.1667
C21_3 C 0.5861(6) 0.5965(4) 0.2809(12)
C22_3 C 0.0805(6) 0.3437(4) 0.0525(12)
C23_3 C 0.2631(4) 0.9195(6) 0.0525(12)
C24_3 C 0.6563(4) 0.7369(4) 0.0525(12)
Au4_4 Au 0.3333 0.37451(2) 0.1667
C25_3 C 0.2631(4) 0.3437(4) 0.0525(12)
Au5_3 Au 0.62549(2) 0.95883(2) 0.1667
C26_3 C 0.6563(4) 0.9195(6) 0.0525(12)
Au6_4 Au 0.04117(2) 0.6667 0.1667
C27_3 C 0.0805(6) 0.7369(4) 0.0525(12)
C28_3 C 0.5861(6) 0.9897(4) 0.2809(12)
C29_3 C 0.4035(4) 0.4139(6) 0.2809(12)
C30_3 C 0.0103(4) 0.5965(4) 0.2809(12)
loop_
_geom_bond_atom_site_label_1
_geom_bond_atom_site_label_2
_geom_bond_site_symmetry_1
_geom_bond_site_symmetry_2
Au1 C5 1_555 1_555
Fe1 N1 1_555 1_555
N1 C1 1_555 1_555
N2 Fe1 1_555 1_555
C1 H1 1_555 1_555
C2 C1 1_555 1_555
C3 C2 1_555 1_555
C4 C3 1_555 1_555
C5 N2 1_555 1_555
N7 C4 1_555 1_555
C14 N1 1_555 1_555
H7 C14 1_555 1_555
C15 C3 1_555 1_555
H8 C15 1_555 1_555
N12 C24 1_555 1_555
C24 Au3 1_555 1_555
Au5 C26 1_555 1_555
N14 C26 1_555 1_555
N16 Fe1 1_555 1_555
C28 Au5 1_555 1_555
N19 Fe1 1_555 1_555
N20 C34 1_555 1_555
C31 N19 1_555 1_555
H13 C31 1_555 1_555
C32 C31 1_555 1_555
H14 C32 1_555 1_555
C33 C32 1_555 1_555
C34 C33 1_555 1_555
N21 C35 1_555 1_555
N22 C38 1_555 1_555
C35 H15 1_555 1_555
C36 C35 1_555 1_555
H16 C36 1_555 1_555
C37 C36 1_555 1_555
C38 N20 1_555 1_555
N23 C39 1_555 1_555
N24 C34 1_555 1_555
C39 H17 1_555 1_555
C40 C39 1_555 1_555
H18 C40 1_555 1_555
C41 C40 1_555 1_555
C42 N22 1_555 1_555
C43 N19 1_555 1_555
H19 C43 1_555 1_555
C44 C33 1_555 1_555
H20 C44 1_555 1_555
C45 N23 1_555 1_555
H21 C45 1_555 1_555
C46 C41 1_555 1_555
H22 C46 1_555 1_555
C47 N21 1_555 1_555
H23 C47 1_555 1_555
C48 C37 1_555 1_555
H24 C48 1_555 1_555
Fe4 N23 1_555 1_555
Fe5 N21 1_555 1_555
Fe8 N12 1_555 1_555
N27 Fe1 1_555 1_555
N30 Fe1 1_555 1_555
C14 C15 1_555 1_555
N14 Fe8 1_555 1_555
N16 C28 1_555 1_555
C37 C38 1_555 1_555
N24 C42 1_555 1_555
C41 C42 1_555 1_555
C43 C44 1_555 1_555
C45 C46 1_555 1_555
C47 C48 1_555 1_555
N6 C10 1_555 1_555
C10 H5 1_555 1_555
C11 C10 1_555 1_555
C12 C11 1_555 1_555
C16 N6 1_555 1_555
H9 C16 1_555 1_555
C17 C12 1_555 1_555
Au3_2 C21 1_555 1_555
Fe5 N6 1_555 1_555
N9 Fe5 1_555 1_555
C21 N9 1_555 1_555
N17 Fe5 1_555 1_555
C29 Au4 1_555 1_555
N28 Fe5 1_555 1_555
N32 Fe5 1_555 1_555
C12 C13 1_555 1_555
C16 C17 1_555 1_555
N17 C29 1_555 1_555
N11 C23 1_555 1_555
C23 Au1_2 1_555 1_555
Au6 C27 1_555 1_555
N15 C27 1_555 1_555
Fe7 N11 1_555 1_555
N15 Fe7 1_555 1_555
N4 C6 1_555 1_555
N5 C9 1_555 1_555
C6 H3 1_555 1_555
C7 C6 1_555 1_555
H4 C7 1_555 1_555
C8 C7 1_555 1_555
C18 N4 1_555 1_555
H11 C18 1_555 1_555
C19 C8 1_555 1_555
Au2 C20 1_555 1_555
Fe4 N4 1_555 1_555
N8 Fe4 1_555 1_555
C20 N8 1_555 1_555
N10 C22 1_555 1_555
C22 Au2 1_555 1_555
Au4_2 C25 1_555 1_555
N13 C25 1_555 1_555
N18 Fe4 1_555 1_555
C30 Au6_2 1_555 1_555
Fe6 N10 1_555 1_555
N29 Fe4 1_555 1_555
N31 Fe4 1_555 1_555
C8 C9 1_555 1_555
C18 C19 1_555 1_555
N13 Fe6 1_555 1_555
N18 C30 1_555 1_555
N6_2 C10_2 1_555 1_555
C10_2 H5_2 1_555 1_555
C11_2 C10_2 1_555 1_555
C12_2 C11_2 1_555 1_555
C13_2 N5_2 1_555 1_555
C16_2 N6_2 1_555 1_555
H9_2 C16_2 1_555 1_555
C17_2 C12_2 1_555 1_555
H10_2 C17_2 1_555 1_555
Fe8 N6_2 1_555 1_555
N25 Fe8 1_555 1_555
N28_2 Fe8 1_555 1_555
N32_2 Fe8 1_555 1_555
C12_2 C13_2 1_555 1_555
C16_2 C17_2 1_555 1_555
N4_2 C6_2 1_555 1_555
C6_2 H3_2 1_555 1_555
C7_2 C6_2 1_555 1_555
C8_2 C7_2 1_555 1_555
C18_2 N4_2 1_555 1_555
H11_2 C18_2 1_555 1_555
C19_2 C8_2 1_555 1_555
Fe7 N4_2 1_555 1_555
N26 Fe7 1_555 1_555
N29_2 Fe7 1_555 1_555
N31_2 Fe7 1_555 1_555
C8_2 C9_2 1_555 1_555
C18_2 C19_2 1_555 1_555
Fe6 N1_2 1_555 1_555
N1_2 C1_2 1_555 1_555
N3_2 C4_2 1_555 1_555
C1_2 H1_2 1_555 1_555
C2_2 C1_2 1_555 1_555
H2_2 C2_2 1_555 1_555
C3_2 C2_2 1_555 1_555
C4_2 C3_2 1_555 1_555
C14_2 N1_2 1_555 1_555
H7_2 C14_2 1_555 1_555
C15_2 C3_2 1_555 1_555
N19_2 Fe6 1_555 1_555
N20_2 C34_2 1_555 1_555
C31_2 N19_2 1_555 1_555
H13_2 C31_2 1_555 1_555
C32_2 C31_2 1_555 1_555
H14_2 C32_2 1_555 1_555
C33_2 C32_2 1_555 1_555
C34_2 C33_2 1_555 1_555
N25 C35_2 1_555 1_555
N22_2 C38_2 1_555 1_555
C35_2 H15_2 1_555 1_555
C36_2 C35_2 1_555 1_555
H16_2 C36_2 1_555 1_555
C37_2 C36_2 1_555 1_555
C38_2 N20_2 1_555 1_555
N26 C39_2 1_555 1_555
N24_2 C34_2 1_555 1_555
C39_2 H17_2 1_555 1_555
C40_2 C39_2 1_555 1_555
H18_2 C40_2 1_555 1_555
C41_2 C40_2 1_555 1_555
C42_2 N22_2 1_555 1_555
C43_2 N19_2 1_555 1_555
H19_2 C43_2 1_555 1_555
C44_2 C33_2 1_555 1_555
H20_2 C44_2 1_555 1_555
C45_2 N26 1_555 1_555
H21_2 C45_2 1_555 1_555
C46_2 C41_2 1_555 1_555
H22_2 C46_2 1_555 1_555
C47_2 N25 1_555 1_555
H23_2 C47_2 1_555 1_555
C48_2 C37_2 1_555 1_555
H24_2 C48_2 1_555 1_555
N27_2 Fe6 1_555 1_555
N30_2 Fe6 1_555 1_555
C14_2 C15_2 1_555 1_555
C37_2 C38_2 1_555 1_555
N24_2 C42_2 1_555 1_555
C41_2 C42_2 1_555 1_555
C43_2 C44_2 1_555 1_555
C45_2 C46_2 1_555 1_555
C47_2 C48_2 1_555 1_555
Au1_3 C5_2 1_555 1_555
Au2_2 C20_2 1_555 1_555
Au3_3 C21_2 1_555 1_555
N10_2 C22_2 1_555 1_555
C22_2 Au2_2 1_555 1_555
N11_2 C23_2 1_555 1_555
C23_2 Au1_3 1_555 1_555
N12_2 C24_2 1_555 1_555
C24_2 Au3_3 1_555 1_555
Au4_3 C25_2 1_555 1_555
N13_2 C25_2 1_555 1_555
Au5_2 C26_2 1_555 1_555
N14_2 C26_2 1_555 1_555
Au6_3 C27_2 1_555 1_555
N15_2 C27_2 1_555 1_555
C28_2 Au5_2 1_555 1_555
C29_2 Au4_3 1_555 1_555
C30_2 Au6_3 1_555 1_555
Fe6_2 N10_2 1_555 1_555
Fe7_2 N11_2 1_555 1_555
Fe8_3 N12_2 1_555 1_555
N13_2 Fe6_2 1_555 1_555
N14_2 Fe8_3 1_555 1_555
N15_2 Fe7_2 1_555 1_555
N25_2 Fe8_2 1_555 1_555
N28_3 Fe8_2 1_555 1_555
N32_3 Fe8_2 1_555 1_555
Fe6_2 N1_3 1_555 1_555
N1_3 C1_3 1_555 1_555
N3_3 C4_3 1_555 1_555
C1_3 H1_3 1_555 1_555
C2_3 C1_3 1_555 1_555
H2_3 C2_3 1_555 1_555
C3_3 C2_3 1_555 1_555
C4_3 C3_3 1_555 1_555
N4_3 C6_3 1_555 1_555
N5_3 C9_3 1_555 1_555
C6_3 H3_3 1_555 1_555
C7_3 C6_3 1_555 1_555
H4_3 C7_3 1_555 1_555
C8_3 C7_3 1_555 1_555
C9_3 N3_3 1_555 1_555
N6_3 C10_3 1_555 1_555
N7_3 C4_3 1_555 1_555
C10_3 H5_3 1_555 1_555
C11_3 C10_3 1_555 1_555
H6_3 C11_3 1_555 1_555
C12_3 C11_3 1_555 1_555
C13_3 N5_3 1_555 1_555
C14_3 N1_3 1_555 1_555
H7_3 C14_3 1_555 1_555
C15_3 C3_3 1_555 1_555
H8_3 C15_3 1_555 1_555
C16_3 N6_3 1_555 1_555
H9_3 C16_3 1_555 1_555
C17_3 C12_3 1_555 1_555
H10_3 C17_3 1_555 1_555
C18_3 N4_3 1_555 1_555
H11_3 C18_3 1_555 1_555
C19_3 C8_3 1_555 1_555
H12_3 C19_3 1_555 1_555
Fe7_2 N4_3 1_555 1_555
Fe8_3 N6_3 1_555 1_555
N26_2 Fe7_2 1_555 1_555
N29_3 Fe7_2 1_555 1_555
N31_3 Fe7_2 1_555 1_555
C8_3 C9_3 1_555 1_555
N7_3 C13_3 1_555 1_555
C12_3 C13_3 1_555 1_555
C14_3 C15_3 1_555 1_555
C16_3 C17_3 1_555 1_555
C18_3 C19_3 1_555 1_555
N19_3 Fe6_3 1_555 1_555
N20_3 C34_3 1_555 1_555
C31_3 N19_3 1_555 1_555
H13_3 C31_3 1_555 1_555
C32_3 C31_3 1_555 1_555
H14_3 C32_3 1_555 1_555
C33_3 C32_3 1_555 1_555
C34_3 C33_3 1_555 1_555
N25_2 C35_3 1_555 1_555
N22_3 C38_3 1_555 1_555
C35_3 H15_3 1_555 1_555
C36_3 C35_3 1_555 1_555
H16_3 C36_3 1_555 1_555
C37_3 C36_3 1_555 1_555
C38_3 N20_3 1_555 1_555
N26_2 C39_3 1_555 1_555
N24_3 C34_3 1_555 1_555
C39_3 H17_3 1_555 1_555
C40_3 C39_3 1_555 1_555
H18_3 C40_3 1_555 1_555
C41_3 C40_3 1_555 1_555
C42_3 N22_3 1_555 1_555
C43_3 N19_3 1_555 1_555
H19_3 C43_3 1_555 1_555
C44_3 C33_3 1_555 1_555
H20_3 C44_3 1_555 1_555
C45_3 N26_2 1_555 1_555
H21_3 C45_3 1_555 1_555
C46_3 C41_3 1_555 1_555
H22_3 C46_3 1_555 1_555
C47_3 N25_2 1_555 1_555
H23_3 C47_3 1_555 1_555
C48_3 C37_3 1_555 1_555
H24_3 C48_3 1_555 1_555
N27_3 Fe6_3 1_555 1_555
N30_3 Fe6_3 1_555 1_555
C37_3 C38_3 1_555 1_555
N24_3 C42_3 1_555 1_555
C41_3 C42_3 1_555 1_555
C43_3 C44_3 1_555 1_555
C45_3 C46_3 1_555 1_555
C47_3 C48_3 1_555 1_555
Au1_4 C5_3 1_555 1_555
C5_3 N27_3 1_555 1_555
Au2_3 C20_3 1_555 1_555
C20_3 N28_3 1_555 1_555
Au3_4 C21_3 1_555 1_555
C21_3 N29_3 1_555 1_555
C22_3 Au2_3 1_555 1_555
C23_3 Au1_4 1_555 1_555
C24_3 Au3_4 1_555 1_555
Au4_4 C25_3 1_555 1_555
Au5_3 C26_3 1_555 1_555
Au6_4 C27_3 1_555 1_555
C28_3 Au5_3 1_555 1_555
C29_3 Au4_4 1_555 1_555
C30_3 Au6_4 1_555 1_555
N30_3 C28_3 1_555 1_555
N31_3 C29_3 1_555 1_555
N32_3 C30_3 1_555 1_555

#END
