
###############################################################################
#
# This file contains modified crystal structure data generated from the
# MOF subset of the Cambridge Structural Database (CSD) v543 
# hosted by the Cambridge Crystallographic Data Centre (CCDC).
#
# This work is licensed under the Creative Commons
# Attribution-NonCommercial-ShareAlike 4.0 International License.
# To view a copy of this license, visit
# http://creativecommons.org/licenses/by-nc-sa/4.0/
# or send a letter to
# Creative Commons, PO Box 1866, Mountain View, CA 94042, USA.
#
# CIF created using the CSD Python API on 29 September 2022
# The structure has been converted into the P1 space group
# The structure has a 3D framework
# The original CSD entry FERVOP is in the rhombohedral crystal system
# The framework has been calculated to contain at least 10.0% void space
# The void calculation uses a probe of radius 1.32A, grid spacing 0.4
#
###############################################################################

data_FERVOP
_chemical_formula_moiety         '(C141 H72 Ag17 Fe15 N72)n'
_symmetry_cell_setting           triclinic
_symmetry_space_group_name_H-M   'P 1'
_symmetry_Int_Tables_number      1
_space_group_name_Hall           'P 1'
loop_
_symmetry_equiv_pos_site_id
_symmetry_equiv_pos_as_xyz
1 x,y,z
_cell_length_a                   26.2456(20)
_cell_length_b                   26.2456(20)
_cell_length_c                   9.1031(10)
_cell_angle_alpha                90
_cell_angle_beta                 90
_cell_angle_gamma                120
_cell_volume                     5430.41
loop_
_atom_site_label
_atom_site_type_symbol
_atom_site_fract_x
_atom_site_fract_y
_atom_site_fract_z
Fe4 Fe -0.0000 0.5000 0.0000
Ag1 Ag 0.6667 0.02898(3) 0.3333
Fe1 Fe 0.5000 0.0000 0.0000
C5 C 0.5892(3) 0.0016(3) 0.2230(8)
N10 N 0.54400(34) 0.0880(3) 0.0087(11)
N12 N 0.6966(4) 0.3035(2) 0.009(2)
C22 C 0.6060(5) 0.2120(5) 0.009(3)
C23 C 0.5156(4) 0.1188(3) 0.0058(11)
H13 H 0.4747 0.0980 0.0026
C24 C 0.5436(4) 0.1790(3) 0.0074(15)
H14 H 0.5219 0.1982 0.0077
C25 C 0.6381(4) 0.2762(4) 0.013(3)
N13 N 0.54400(15) 0.45600(34) 0.0087(11)
N14 N 0.6069(4) 0.3034(4) 0.009(2)
C27 C 0.6060(2) 0.3940(5) 0.009(3)
C28 C 0.6032(3) 0.4844(4) 0.0058(11)
H15 H 0.6233 0.5253 0.0026
C29 C 0.6354(3) 0.4564(4) 0.0074(15)
H16 H 0.6763 0.4781 0.0077
C30 C 0.6381(2) 0.3619(4) 0.013(3)
N15 N 0.9120(3) 0.45600(15) 0.0087(11)
N16 N 0.6965(2) 0.3931(4) 0.009(2)
C31 C 0.7880(5) 0.3940(2) 0.009(3)
C32 C 0.8812(3) 0.3968(3) 0.0058(11)
H17 H 0.9020 0.3767 0.0026
C33 C 0.8210(3) 0.3646(3) 0.0074(15)
H18 H 0.8018 0.3237 0.0077
C34 C 0.7238(4) 0.3619(2) 0.013(3)
C35 C 0.6032(3) 0.1188(3) 0.0058(11)
H19 H 0.6233 0.0980 0.0026
C36 C 0.6354(3) 0.1790(3) 0.0074(15)
H20 H 0.6763 0.1982 0.0077
C37 C 0.8812(3) 0.4844(4) 0.0058(11)
H21 H 0.9020 0.5253 0.0026
C38 C 0.8210(3) 0.4564(4) 0.0074(15)
H22 H 0.8018 0.4781 0.0077
C39 C 0.5156(4) 0.3968(3) 0.0058(11)
H23 H 0.4747 0.3767 0.0026
C40 C 0.5436(4) 0.3646(3) 0.0074(15)
H24 H 0.5219 0.3237 0.0077
N17 N 0.7808(2) 0.1124(3) 0.5190(7)
C41 C 0.7441(3) 0.0791(4) 0.4437(8)
C45 C 0.4124(4) 0.0016(3) 0.2230(8)
Ag9 Ag 0.36228(3) 0.02898(3) 0.3333
Fe4_2 Fe 1.0000 0.5000 0.0000
Fe5 Fe 0.5000 0.5000 0.0000
Fe7 Fe 0.8333 0.1667 0.6667
Fe1_2 Fe 0.5000 1.0000 0.0000
N2 N 0.5525(2) 0.9982(2) 0.1477(7)
N8 N 0.0018(2) 0.5543(3) 0.1477(7)
N9 N 0.4457(3) 0.4475(2) 0.1477(7)
C21 C 0.4124(4) 0.4108(3) 0.2230(8)
N21 N 0.4457(3) 0.9982(2) 0.1477(7)
N23 N 0.0018(2) 0.4475(2) 0.1477(7)
Ag3 Ag 0.36228(3) 0.3333 0.3333
N28 N 0.5525(2) 0.5543(3) 0.1477(7)
C50 C 0.3349(3) 0.2559(3) 0.4437(8)
Ag2 Ag 0.97102(3) 0.63772(3) 0.3333
C20 C 0.9984(3) 0.5876(4) 0.2230(8)
N22 N 0.8876(3) 0.6685(2) 0.5190(7)
C46 C 0.9209(4) 0.6651(3) 0.4437(8)
C47 C 0.9984(3) 0.4108(3) 0.2230(8)
Ag10 Ag 0.97102(3) 0.3333 0.3333
Fe6 Fe 0.8333 0.6667 0.6667
N22_2 N 0.3315(2) 0.2192(4) 0.5190(7)
C47_2 C 0.5892(3) 0.5876(4) 0.2230(8)
Ag10_2 Ag 0.6667 0.63772(3) 0.3333
Fe6_2 Fe 0.3333 0.1667 0.6667
C51 C 0.7441(5) 0.6651(3) 0.4437(8)
C52 C 0.3349(5) 0.0791(4) 0.4437(8)
C51_2 C 0.9209(4) 0.2559(5) 0.4437(8)
Ag4 Ag 0.30439(3) 0.30435(3) 1.0000
Ag5 Ag -0.0000 0.30435(3) 1.0000
Ag8 Ag 0.30439(3) 0.0000 1.0000
C49 C 0.3317(3) 0.2543(4) 0.8897(8)
Ag8_2 Ag 0.30439(3) 1.0000 1.0000
Ag5_2 Ag 1.0000 0.30435(3) 1.0000
Ag7 Ag 0.69565(3) 0.0000 1.0000
C52_2 C 0.9225(3) 0.2543(4) 0.8897(8)
Ag6 Ag 0.69565(3) 0.69561(3) 1.0000
Ag7_2 Ag 0.69565(3) 1.0000 1.0000
C51_3 C 0.7457(4) 0.6683(3) 0.8897(8)
C51_4 C 0.3317(3) 0.0775(5) 0.8897(8)
Ag7_3 Ag -0.0000 0.69561(3) 1.0000
C49_2 C 0.7457(4) 0.0775(5) 0.8897(8)
Ag7_4 Ag 1.0000 0.69561(3) 1.0000
C49_3 C 0.9225(5) 0.6683(3) 0.8897(8)
N17_2 N 0.3351(4) 0.2210(3) 0.8144(7)
N22_3 N 0.8858(4) 0.6649(2) 0.8144(7)
N22_4 N 0.7790(3) 0.1142(4) 0.8144(7)
H16_2 H 0.0096 0.1448 0.6744
N15_2 N 0.2453(3) 0.12267(15) 0.6754(11)
N16_2 N 0.0298(2) 0.0598(4) 0.676(2)
C31_2 C 0.1213(5) 0.0607(2) 0.676(3)
C32_2 C 0.2145(3) 0.0635(3) 0.6725(11)
H17_2 H 0.2353 0.0434 0.6693
C33_2 C 0.1543(3) 0.0313(3) 0.6741(15)
C34_2 C 0.0571(4) 0.0286(2) 0.680(3)
C37_2 C 0.2145(3) 0.1511(4) 0.6725(11)
H21_2 H 0.2353 0.1920 0.6693
C38_2 C 0.1543(3) 0.1231(4) 0.6741(15)
H22_2 H 0.1351 0.1448 0.6744
N12_2 N 0.0299(4) 0.9702(2) 0.676(2)
H18_2 H 0.1351 0.9904 0.6744
H20_2 H 0.0096 0.8649 0.6744
N13_2 N 0.87733(15) 0.12267(34) 0.6754(11)
C27_2 C 0.9393(2) 0.0607(5) 0.676(3)
C28_2 C 0.9365(3) 0.1511(4) 0.6725(11)
H15_2 H 0.9566 0.1920 0.6693
C29_2 C 0.9687(3) 0.1231(4) 0.6741(15)
C30_2 C 0.9714(2) 0.0286(4) 0.680(3)
C39_2 C 0.8489(4) 0.0635(3) 0.6725(11)
H23_2 H 0.8080 0.0434 0.6693
C40_2 C 0.8769(4) 0.0313(3) 0.6741(15)
N1 N 0.78933(15) 0.5787(3) 0.6580(11)
N3 N 0.7264(4) 0.3632(2) 0.658(2)
C1 C 0.7273(2) 0.4547(5) 0.658(3)
C2 C 0.7301(3) 0.5479(3) 0.6609(11)
H1 H 0.7100 0.5687 0.6641
C3 C 0.6979(3) 0.4877(3) 0.6593(15)
H2 H 0.6570 0.4685 0.6590
C4 C 0.6952(2) 0.3905(4) 0.654(3)
N4 N 0.4213(3) 0.21067(34) 0.6580(11)
N5 N 0.6368(2) 0.3633(4) 0.658(2)
C6 C 0.5453(5) 0.2727(5) 0.658(3)
C7 C 0.4521(3) 0.1823(4) 0.6609(11)
H3 H 0.4313 0.1414 0.6641
C8 C 0.5123(3) 0.2103(4) 0.6593(15)
H4 H 0.5315 0.1886 0.6590
C9 C 0.6095(4) 0.3048(4) 0.654(3)
N6 N 0.78933(34) 0.21067(15) 0.6580(11)
N7 N 0.6367(4) 0.2736(4) 0.658(2)
C10 C 0.7273(5) 0.2727(2) 0.658(3)
C11 C 0.8177(4) 0.2699(3) 0.6609(11)
H5 H 0.8586 0.2900 0.6641
C12 C 0.7897(4) 0.3021(3) 0.6593(15)
H6 H 0.8114 0.3430 0.6590
C13 C 0.6952(4) 0.3048(2) 0.654(3)
C14 C 0.8177(4) 0.5479(3) 0.6609(11)
H7 H 0.8586 0.5687 0.6641
C15 C 0.7897(4) 0.4877(3) 0.6593(15)
H8 H 0.8114 0.4685 0.6590
C16 C 0.7301(3) 0.1823(4) 0.6609(11)
H9 H 0.7100 0.1414 0.6641
C17 C 0.6979(3) 0.2103(4) 0.6593(15)
H10 H 0.6570 0.1886 0.6590
C18 C 0.4521(3) 0.2699(3) 0.6609(11)
H11 H 0.4313 0.2900 0.6641
C19 C 0.5123(3) 0.3021(3) 0.6593(15)
H12 H 0.5315 0.3430 0.6590
N10_2 N 0.87733(34) 0.7547(3) 0.6754(11)
C22_2 C 0.9393(5) 0.8787(5) 0.676(3)
C23_2 C 0.8489(4) 0.7855(3) 0.6725(11)
H13_2 H 0.8080 0.7647 0.6693
C24_2 C 0.8769(4) 0.8457(3) 0.6741(15)
H14_2 H 0.8552 0.8649 0.6744
C25_2 C 0.9714(4) 0.9429(4) 0.680(3)
N14_2 N 0.9402(4) 0.9701(4) 0.676(2)
C35_2 C 0.9365(3) 0.7855(3) 0.6725(11)
H19_2 H 0.9566 0.7647 0.6693
C36_2 C 0.9687(3) 0.8457(3) 0.6741(15)
H24_2 H 0.8552 0.9904 0.6744
N18 N 0.7808(2) 0.6685(2) 0.5190(7)
N19 N 0.3315(2) 0.1124(3) 0.5190(7)
N20 N 0.8876(3) 0.2192(2) 0.5190(7)
N21_2 N 0.7790(3) 0.6649(2) 0.8144(7)
N23_2 N 0.3351(2) 0.1142(2) 0.8144(7)
N28_2 N 0.8858(2) 0.2210(3) 0.8144(7)
Fe4_3 Fe 0.0000 0.5000 1.0000
Fe1_3 Fe 0.5000 0.0000 1.0000
N11 N 0.5543(3) 0.0018(2) 0.8523(7)
N18_2 N 0.4475(2) 0.0018(2) 0.8523(7)
Fe4_4 Fe 1.0000 0.5000 1.0000
Fe5_2 Fe 0.5000 0.5000 1.0000
Fe1_4 Fe 0.5000 1.0000 1.0000
N1_2 N 0.45600(15) 0.9120(3) 0.9913(11)
N3_2 N 0.3931(4) 0.6965(2) 0.991(2)
C1_2 C 0.3940(2) 0.7880(5) 0.991(3)
C2_2 C 0.3968(3) 0.8812(3) 0.9942(11)
H1_2 H 0.3767 0.9020 0.9974
C3_2 C 0.3646(3) 0.8210(3) 0.9926(15)
H2_2 H 0.3237 0.8018 0.9923
C4_2 C 0.3619(2) 0.7238(4) 0.987(3)
N4_2 N 0.0880(3) 0.54400(34) 0.9913(11)
N5_2 N 0.3035(2) 0.6966(4) 0.991(2)
C6_2 C 0.2120(5) 0.6060(5) 0.991(3)
C7_2 C 0.1188(3) 0.5156(4) 0.9942(11)
H3_2 H 0.0980 0.4747 0.9974
C8_2 C 0.1790(3) 0.5436(4) 0.9926(15)
H4_2 H 0.1982 0.5219 0.9923
C9_2 C 0.2762(4) 0.6381(4) 0.987(3)
N6_2 N 0.45600(34) 0.54400(15) 0.9913(11)
N7_2 N 0.3034(4) 0.6069(4) 0.991(2)
C10_2 C 0.3940(5) 0.6060(2) 0.991(3)
C11_2 C 0.4844(4) 0.6032(3) 0.9942(11)
H5_2 H 0.5253 0.6233 0.9974
C12_2 C 0.4564(4) 0.6354(3) 0.9926(15)
H6_2 H 0.4781 0.6763 0.9923
C13_2 C 0.3619(4) 0.6381(2) 0.987(3)
C14_2 C 0.4844(4) 0.8812(3) 0.9942(11)
H7_2 H 0.5253 0.9020 0.9974
C15_2 C 0.4564(4) 0.8210(3) 0.9926(15)
H8_2 H 0.4781 0.8018 0.9923
C16_2 C 0.3968(3) 0.5156(4) 0.9942(11)
H9_2 H 0.3767 0.4747 0.9974
C17_2 C 0.3646(3) 0.5436(4) 0.9926(15)
H10_2 H 0.3237 0.5219 0.9923
C18_2 C 0.1188(3) 0.6032(3) 0.9942(11)
H11_2 H 0.0980 0.6233 0.9974
C19_2 C 0.1790(3) 0.6354(3) 0.9926(15)
H12_2 H 0.1982 0.6763 0.9923
C26 C 0.5876(4) 0.9984(3) 0.7770(8)
C42 C 0.4108(3) 0.9984(3) 0.7770(8)
C43 C 0.0016(3) 0.4124(4) 0.7770(8)
N20_2 N 0.5543(3) 0.5525(2) 0.8523(7)
C44 C 0.5876(4) 0.5892(3) 0.7770(8)
C48 C 0.0016(3) 0.5892(3) 0.7770(8)
Ag4_2 Ag 0.63772(3) 0.97102(3) 0.6667
Ag5_3 Ag 0.3333 0.97102(3) 0.6667
Ag6_2 Ag 0.02898(3) 0.36228(3) 0.6667
Ag7_5 Ag 0.02898(3) 0.6667 0.6667
Ag8_3 Ag 0.63772(3) 0.6667 0.6667
N27 N 0.4475(2) 0.4457(3) 0.8523(7)
C49_4 C 0.6651(3) 0.9209(4) 0.5563(8)
C51_5 C 0.0791(4) 0.3349(3) 0.5563(8)
C52_3 C 0.2559(3) 0.9209(4) 0.5563(8)
N19_2 N 0.9982(2) 0.4457(3) 0.8523(7)
N24 N 0.9982(2) 0.5525(2) 0.8523(7)
C48_2 C 0.4108(3) 0.4124(4) 0.7770(8)
Ag7_6 Ag 0.3333 0.36228(3) 0.6667
C49_5 C 0.0791(4) 0.7441(5) 0.5563(8)
C51_6 C 0.6651(3) 0.7441(5) 0.5563(8)
C49_6 C 0.2559(5) 0.3349(3) 0.5563(8)
N22_5 N 0.2192(4) 0.3315(2) 0.4810(7)
Fe6_3 Fe 0.1667 0.3333 0.3333
N17_3 N 0.6685(4) 0.8876(3) 0.4810(7)
Fe7_2 Fe 0.6667 0.8333 0.3333
N22_6 N 0.1124(3) 0.7808(4) 0.4810(7)
Fe6_4 Fe 0.1667 0.8333 0.3333
N1_3 N 0.12267(15) 0.2453(3) 0.3246(11)
N3_3 N 0.0598(4) 0.0298(2) 0.324(2)
C1_3 C 0.0607(2) 0.1213(5) 0.324(3)
C2_3 C 0.0635(3) 0.2145(3) 0.3275(11)
H1_3 H 0.0434 0.2353 0.3307
C3_3 C 0.0313(3) 0.1543(3) 0.3259(15)
C4_3 C 0.0286(2) 0.0571(4) 0.320(3)
H6_3 H 0.1448 0.0096 0.3256
C14_3 C 0.1511(4) 0.2145(3) 0.3275(11)
H7_3 H 0.1920 0.2353 0.3307
C15_3 C 0.1231(4) 0.1543(3) 0.3259(15)
H8_3 H 0.1448 0.1351 0.3256
N10_3 N 0.21067(34) 0.4213(3) 0.3420(11)
N11_2 N 0.2210(3) 0.3351(2) 0.1856(7)
N12_3 N 0.3633(4) 0.6368(2) 0.342(2)
C22_3 C 0.2727(5) 0.5453(5) 0.342(3)
C23_3 C 0.1823(4) 0.4521(3) 0.3391(11)
H13_3 H 0.1414 0.4313 0.3359
C24_3 C 0.2103(4) 0.5123(3) 0.3407(15)
H14_3 H 0.1886 0.5315 0.3410
C25_3 C 0.3048(4) 0.6095(4) 0.346(3)
C26_2 C 0.2543(4) 0.3317(3) 0.1103(8)
N13_3 N 0.21067(15) 0.78933(34) 0.3420(11)
N14_3 N 0.2736(4) 0.6367(4) 0.342(2)
C27_3 C 0.2727(2) 0.7273(5) 0.342(3)
C28_3 C 0.2699(3) 0.8177(4) 0.3391(11)
H15_3 H 0.2900 0.8586 0.3359
C29_3 C 0.3021(3) 0.7897(4) 0.3407(15)
H16_3 H 0.3430 0.8114 0.3410
C30_3 C 0.3048(2) 0.6952(4) 0.346(3)
N15_3 N 0.5787(3) 0.78933(15) 0.3420(11)
N16_3 N 0.3632(2) 0.7264(4) 0.342(2)
C31_3 C 0.4547(5) 0.7273(2) 0.342(3)
C32_3 C 0.5479(3) 0.7301(3) 0.3391(11)
H17_3 H 0.5687 0.7100 0.3359
C33_3 C 0.4877(3) 0.6979(3) 0.3407(15)
H18_3 H 0.4685 0.6570 0.3410
C34_3 C 0.3905(4) 0.6952(2) 0.346(3)
C35_3 C 0.2699(3) 0.4521(3) 0.3391(11)
H19_3 H 0.2900 0.4313 0.3359
C36_3 C 0.3021(3) 0.5123(3) 0.3407(15)
H20_3 H 0.3430 0.5315 0.3410
C37_3 C 0.5479(3) 0.8177(4) 0.3391(11)
H21_3 H 0.5687 0.8586 0.3359
C38_3 C 0.4877(3) 0.7897(4) 0.3407(15)
H22_3 H 0.4685 0.8114 0.3410
C39_3 C 0.1823(4) 0.7301(3) 0.3391(11)
H23_3 H 0.1414 0.7100 0.3359
C40_3 C 0.2103(4) 0.6979(3) 0.3407(15)
H24_3 H 0.1886 0.6570 0.3410
N18_3 N 0.1142(2) 0.3351(2) 0.1856(7)
C42_2 C 0.0775(3) 0.3317(3) 0.1103(8)
N21_3 N 0.1124(3) 0.3315(2) 0.4810(7)
Ag4_3 Ag 0.30439(3) 0.30435(3) 0.0000
Ag5_4 Ag -0.0000 0.30435(3) 0.0000
Ag8_4 Ag 0.30439(3) 0.0000 0.0000
N6_3 N 0.12267(34) 0.87733(15) 0.3246(11)
C10_3 C 0.0607(5) 0.9393(2) 0.324(3)
C11_3 C 0.1511(4) 0.9365(3) 0.3275(11)
H5_3 H 0.1920 0.9566 0.3307
C12_3 C 0.1231(4) 0.9687(3) 0.3259(15)
C13_3 C 0.0286(4) 0.9714(2) 0.320(3)
C16_3 C 0.0635(3) 0.8489(4) 0.3275(11)
H9_3 H 0.0434 0.8080 0.3307
C17_3 C 0.0313(3) 0.8769(4) 0.3259(15)
N20_3 N 0.2210(3) 0.8858(2) 0.1856(7)
C44_2 C 0.2543(4) 0.9225(3) 0.1103(8)
Ag8_5 Ag 0.30439(3) 1.0000 0.0000
N27_2 N 0.1142(2) 0.7790(3) 0.1856(7)
N28_3 N 0.2192(2) 0.8876(3) 0.4810(7)
H2_3 H 0.9904 0.1351 0.3256
N5_3 N 0.9702(2) 0.0299(4) 0.324(2)
H12_3 H 0.8649 0.0096 0.3256
Ag5_5 Ag 1.0000 0.30435(3) 0.0000
Ag7_7 Ag 0.69565(3) 0.0000 0.0000
N4_3 N 0.7547(3) 0.87733(34) 0.3246(11)
C6_3 C 0.8787(5) 0.9393(5) 0.324(3)
C7_3 C 0.7855(3) 0.8489(4) 0.3275(11)
H3_3 H 0.7647 0.8080 0.3307
C8_3 C 0.8457(3) 0.8769(4) 0.3259(15)
H4_3 H 0.8649 0.8552 0.3256
C9_3 C 0.9429(4) 0.9714(4) 0.320(3)
N7_3 N 0.9701(4) 0.9402(4) 0.324(2)
H10_3 H 0.9904 0.8552 0.3256
C18_3 C 0.7855(3) 0.9365(3) 0.3275(11)
H11_3 H 0.7647 0.9566 0.3307
C19_3 C 0.8457(3) 0.9687(3) 0.3259(15)
N19_3 N 0.6649(2) 0.7790(3) 0.1856(7)
C43_2 C 0.6683(3) 0.7457(4) 0.1103(8)
N23_3 N 0.6685(2) 0.7808(2) 0.4810(7)
N24_2 N 0.6649(2) 0.8858(2) 0.1856(7)
C48_3 C 0.6683(3) 0.9225(3) 0.1103(8)
Ag6_3 Ag 0.69565(3) 0.69561(3) 0.0000
Ag7_8 Ag 0.69565(3) 1.0000 0.0000
C48_4 C 0.0775(3) 0.7457(4) 0.1103(8)
Ag7_9 Ag -0.0000 0.69561(3) 0.0000
Ag7_10 Ag 1.0000 0.69561(3) 0.0000
loop_
_geom_bond_atom_site_label_1
_geom_bond_atom_site_label_2
_geom_bond_site_symmetry_1
_geom_bond_site_symmetry_2
Ag1 C5 1_555 1_555
N10 Fe1 1_555 1_555
N12 C25 1_555 1_555
C22 C24 1_555 1_555
C23 N10 1_555 1_555
H13 C23 1_555 1_555
C24 C23 1_555 1_555
H14 C24 1_555 1_555
C25 C22 1_555 1_555
N13 C28 1_555 1_555
N14 C25 1_555 1_555
C27 C29 1_555 1_555
C28 H15 1_555 1_555
C29 C28 1_555 1_555
H16 C29 1_555 1_555
C30 N14 1_555 1_555
N15 C32 1_555 1_555
N16 C30 1_555 1_555
C31 C33 1_555 1_555
C32 H17 1_555 1_555
C33 C32 1_555 1_555
H18 C33 1_555 1_555
C34 N12 1_555 1_555
C35 N10 1_555 1_555
H19 C35 1_555 1_555
C36 C22 1_555 1_555
H20 C36 1_555 1_555
C37 N15 1_555 1_555
H21 C37 1_555 1_555
C38 C31 1_555 1_555
H22 C38 1_555 1_555
C39 N13 1_555 1_555
H23 C39 1_555 1_555
C40 C27 1_555 1_555
H24 C40 1_555 1_555
N17 C41 1_555 1_555
C41 Ag1 1_555 1_555
Ag9 C45 1_555 1_555
Fe4_2 N15 1_555 1_555
Fe5 N13 1_555 1_555
Fe7 N17 1_555 1_555
C27 C30 1_555 1_555
N16 C34 1_555 1_555
C31 C34 1_555 1_555
C35 C36 1_555 1_555
C37 C38 1_555 1_555
C39 C40 1_555 1_555
N2 Fe1_2 1_555 1_555
N8 Fe4 1_555 1_555
N9 Fe5 1_555 1_555
C21 N9 1_555 1_555
N21 Fe1_2 1_555 1_555
N23 Fe4 1_555 1_555
Ag3 C21 1_555 1_555
N28 Fe5 1_555 1_555
C50 Ag3 1_555 1_555
Ag2 C20 1_555 1_555
N22 C46 1_555 1_555
C46 Ag2 1_555 1_555
Ag10 C47 1_555 1_555
Fe6 N22 1_555 1_555
N22_2 C50 1_555 1_555
C47_2 N28 1_555 1_555
Ag10_2 C47_2 1_555 1_555
Fe6_2 N22_2 1_555 1_555
C51 Ag10_2 1_555 1_555
C52 Ag9 1_555 1_555
C51_2 Ag10 1_555 1_555
C49 Ag4 1_555 1_555
C52_2 Ag5_2 1_555 1_555
C51_3 Ag6 1_555 1_555
C51_4 Ag8 1_555 1_555
C49_2 Ag7 1_555 1_555
C49_3 Ag7_4 1_555 1_555
N17_2 C49 1_555 1_555
Fe6_2 N17_2 1_555 1_555
N22_3 C49_3 1_555 1_555
Fe6 N22_3 1_555 1_555
N22_4 C49_2 1_555 1_555
Fe7 N22_4 1_555 1_555
N15_2 C32_2 1_555 1_555
C31_2 C33_2 1_555 1_555
C32_2 H17_2 1_555 1_555
C33_2 C32_2 1_555 1_555
C37_2 N15_2 1_555 1_555
H21_2 C37_2 1_555 1_555
C38_2 C31_2 1_555 1_555
H22_2 C38_2 1_555 1_555
Fe6_2 N15_2 1_555 1_555
N16_2 C34_2 1_555 1_555
C31_2 C34_2 1_555 1_555
C37_2 C38_2 1_555 1_555
N13_2 C28_2 1_555 1_555
C27_2 C29_2 1_555 1_555
C28_2 H15_2 1_555 1_555
C29_2 C28_2 1_555 1_555
C39_2 N13_2 1_555 1_555
H23_2 C39_2 1_555 1_555
C40_2 C27_2 1_555 1_555
Fe7 N13_2 1_555 1_555
C27_2 C30_2 1_555 1_555
C39_2 C40_2 1_555 1_555
Fe6 N1 1_555 1_555
N1 C2 1_555 1_555
N3 C4 1_555 1_555
C1 C3 1_555 1_555
C2 H1 1_555 1_555
C3 C2 1_555 1_555
H2 C3 1_555 1_555
C4 C1 1_555 1_555
N4 C7 1_555 1_555
N5 C4 1_555 1_555
C6 C8 1_555 1_555
C7 H3 1_555 1_555
C8 C7 1_555 1_555
H4 C8 1_555 1_555
C9 N5 1_555 1_555
N6 C11 1_555 1_555
N7 C9 1_555 1_555
C10 C12 1_555 1_555
C11 H5 1_555 1_555
C12 C11 1_555 1_555
H6 C12 1_555 1_555
C13 N3 1_555 1_555
C14 N1 1_555 1_555
H7 C14 1_555 1_555
C15 C1 1_555 1_555
H8 C15 1_555 1_555
C16 N6 1_555 1_555
H9 C16 1_555 1_555
C17 C10 1_555 1_555
H10 C17 1_555 1_555
C18 N4 1_555 1_555
H11 C18 1_555 1_555
C19 C6 1_555 1_555
H12 C19 1_555 1_555
Fe6_2 N4 1_555 1_555
Fe7 N6 1_555 1_555
N10_2 Fe6 1_555 1_555
C22_2 C24_2 1_555 1_555
C23_2 N10_2 1_555 1_555
H13_2 C23_2 1_555 1_555
C24_2 C23_2 1_555 1_555
H14_2 C24_2 1_555 1_555
C25_2 C22_2 1_555 1_555
N14_2 C25_2 1_555 1_555
C35_2 N10_2 1_555 1_555
H19_2 C35_2 1_555 1_555
C36_2 C22_2 1_555 1_555
N18 Fe6 1_555 1_555
C51 N18 1_555 1_555
N19 Fe6_2 1_555 1_555
C52 N19 1_555 1_555
N20 Fe7 1_555 1_555
C51_2 N20 1_555 1_555
N21_2 Fe6 1_555 1_555
C51_3 N21_2 1_555 1_555
N23_2 Fe6_2 1_555 1_555
C51_4 N23_2 1_555 1_555
N28_2 Fe7 1_555 1_555
C6 C9 1_555 1_555
N7 C13 1_555 1_555
C10 C13 1_555 1_555
C14 C15 1_555 1_555
C16 C17 1_555 1_555
C18 C19 1_555 1_555
C35_2 C36_2 1_555 1_555
C52_2 N28_2 1_555 1_555
N11 Fe1_3 1_555 1_555
N18_2 Fe1_3 1_555 1_555
Fe1_4 N1_2 1_555 1_555
N1_2 C2_2 1_555 1_555
N3_2 C4_2 1_555 1_555
C1_2 C3_2 1_555 1_555
C2_2 H1_2 1_555 1_555
C3_2 C2_2 1_555 1_555
H2_2 C3_2 1_555 1_555
C4_2 C1_2 1_555 1_555
N4_2 C7_2 1_555 1_555
N5_2 C4_2 1_555 1_555
C6_2 C8_2 1_555 1_555
C7_2 H3_2 1_555 1_555
C8_2 C7_2 1_555 1_555
H4_2 C8_2 1_555 1_555
C9_2 N5_2 1_555 1_555
N6_2 C11_2 1_555 1_555
N7_2 C9_2 1_555 1_555
C10_2 C12_2 1_555 1_555
C11_2 H5_2 1_555 1_555
C12_2 C11_2 1_555 1_555
H6_2 C12_2 1_555 1_555
C13_2 N3_2 1_555 1_555
C14_2 N1_2 1_555 1_555
H7_2 C14_2 1_555 1_555
C15_2 C1_2 1_555 1_555
H8_2 C15_2 1_555 1_555
C16_2 N6_2 1_555 1_555
H9_2 C16_2 1_555 1_555
C17_2 C10_2 1_555 1_555
H10_2 C17_2 1_555 1_555
C18_2 N4_2 1_555 1_555
H11_2 C18_2 1_555 1_555
C19_2 C6_2 1_555 1_555
H12_2 C19_2 1_555 1_555
Fe4_3 N4_2 1_555 1_555
Fe5_2 N6_2 1_555 1_555
N20_2 Fe5_2 1_555 1_555
C44 N20_2 1_555 1_555
Ag4_2 C26 1_555 1_555
Ag5_3 C42 1_555 1_555
Ag6_2 C43 1_555 1_555
Ag7_5 C48 1_555 1_555
Ag8_3 C44 1_555 1_555
N27 Fe5_2 1_555 1_555
C49_4 Ag4_2 1_555 1_555
C51_5 Ag6_2 1_555 1_555
C52_3 Ag5_3 1_555 1_555
C6_2 C9_2 1_555 1_555
N7_2 C13_2 1_555 1_555
C10_2 C13_2 1_555 1_555
C14_2 C15_2 1_555 1_555
C16_2 C17_2 1_555 1_555
C18_2 C19_2 1_555 1_555
N19_2 Fe4_4 1_555 1_555
N24 Fe4_4 1_555 1_555
C48_2 N27 1_555 1_555
Ag7_6 C48_2 1_555 1_555
C49_5 Ag7_5 1_555 1_555
C51_6 Ag8_3 1_555 1_555
C49_6 Ag7_6 1_555 1_555
N22_5 C49_6 1_555 1_555
Fe6_3 N22_5 1_555 1_555
N17_3 C49_4 1_555 1_555
Fe7_2 N17_3 1_555 1_555
N22_6 C49_5 1_555 1_555
Fe6_4 N22_6 1_555 1_555
Fe6_3 N1_3 1_555 1_555
N1_3 C2_3 1_555 1_555
N3_3 C4_3 1_555 1_555
C1_3 C3_3 1_555 1_555
C2_3 H1_3 1_555 1_555
C3_3 C2_3 1_555 1_555
C4_3 C1_3 1_555 1_555
C14_3 N1_3 1_555 1_555
H7_3 C14_3 1_555 1_555
C15_3 C1_3 1_555 1_555
H8_3 C15_3 1_555 1_555
N10_3 Fe6_3 1_555 1_555
N11_2 Fe6_3 1_555 1_555
N12_3 C25_3 1_555 1_555
C22_3 C24_3 1_555 1_555
C23_3 N10_3 1_555 1_555
H13_3 C23_3 1_555 1_555
C24_3 C23_3 1_555 1_555
H14_3 C24_3 1_555 1_555
C25_3 C22_3 1_555 1_555
C26_2 N11_2 1_555 1_555
N13_3 C28_3 1_555 1_555
N14_3 C25_3 1_555 1_555
C27_3 C29_3 1_555 1_555
C28_3 H15_3 1_555 1_555
C29_3 C28_3 1_555 1_555
H16_3 C29_3 1_555 1_555
C30_3 N14_3 1_555 1_555
N15_3 C32_3 1_555 1_555
N16_3 C30_3 1_555 1_555
C31_3 C33_3 1_555 1_555
C32_3 H17_3 1_555 1_555
C33_3 C32_3 1_555 1_555
H18_3 C33_3 1_555 1_555
C34_3 N12_3 1_555 1_555
C35_3 N10_3 1_555 1_555
H19_3 C35_3 1_555 1_555
C36_3 C22_3 1_555 1_555
H20_3 C36_3 1_555 1_555
C37_3 N15_3 1_555 1_555
H21_3 C37_3 1_555 1_555
C38_3 C31_3 1_555 1_555
H22_3 C38_3 1_555 1_555
C39_3 N13_3 1_555 1_555
H23_3 C39_3 1_555 1_555
C40_3 C27_3 1_555 1_555
H24_3 C40_3 1_555 1_555
N18_3 Fe6_3 1_555 1_555
C42_2 N18_3 1_555 1_555
N21_3 Fe6_3 1_555 1_555
C51_5 N21_3 1_555 1_555
Ag4_3 C26_2 1_555 1_555
Ag5_4 C42_2 1_555 1_555
Fe7_2 N15_3 1_555 1_555
Fe6_4 N13_3 1_555 1_555
C14_3 C15_3 1_555 1_555
C27_3 C30_3 1_555 1_555
N16_3 C34_3 1_555 1_555
C31_3 C34_3 1_555 1_555
C35_3 C36_3 1_555 1_555
C37_3 C38_3 1_555 1_555
C39_3 C40_3 1_555 1_555
N6_3 C11_3 1_555 1_555
C10_3 C12_3 1_555 1_555
C11_3 H5_3 1_555 1_555
C12_3 C11_3 1_555 1_555
C16_3 N6_3 1_555 1_555
H9_3 C16_3 1_555 1_555
C17_3 C10_3 1_555 1_555
Fe6_4 N6_3 1_555 1_555
N20_3 Fe6_4 1_555 1_555
C44_2 N20_3 1_555 1_555
Ag8_5 C44_2 1_555 1_555
N27_2 Fe6_4 1_555 1_555
N28_3 Fe6_4 1_555 1_555
C10_3 C13_3 1_555 1_555
C16_3 C17_3 1_555 1_555
N4_3 C7_3 1_555 1_555
C6_3 C8_3 1_555 1_555
C7_3 H3_3 1_555 1_555
C8_3 C7_3 1_555 1_555
H4_3 C8_3 1_555 1_555
N7_3 C9_3 1_555 1_555
C18_3 N4_3 1_555 1_555
H11_3 C18_3 1_555 1_555
C19_3 C6_3 1_555 1_555
Fe7_2 N4_3 1_555 1_555
N19_3 Fe7_2 1_555 1_555
C43_2 N19_3 1_555 1_555
N23_3 Fe7_2 1_555 1_555
C51_6 N23_3 1_555 1_555
N24_2 Fe7_2 1_555 1_555
C48_3 N24_2 1_555 1_555
Ag6_3 C43_2 1_555 1_555
Ag7_8 C48_3 1_555 1_555
C6_3 C9_3 1_555 1_555
C18_3 C19_3 1_555 1_555
C52_3 N28_3 1_555 1_555
C48_4 N27_2 1_555 1_555
Ag7_9 C48_4 1_555 1_555

#END
