
###############################################################################
#
# This file contains modified crystal structure data generated from the
# MOF subset of the Cambridge Structural Database (CSD) v543 
# hosted by the Cambridge Crystallographic Data Centre (CCDC).
#
# This work is licensed under the Creative Commons
# Attribution-NonCommercial-ShareAlike 4.0 International License.
# To view a copy of this license, visit
# http://creativecommons.org/licenses/by-nc-sa/4.0/
# or send a letter to
# Creative Commons, PO Box 1866, Mountain View, CA 94042, USA.
#
# CIF created using the CSD Python API on 29 September 2022
# The structure has been converted into the P1 space group
# The structure has a 3D framework
# The original CSD entry FERWAC is in the rhombohedral crystal system
# The framework has been calculated to contain at least 10.0% void space
# The void calculation uses a probe of radius 1.32A, grid spacing 0.4
#
###############################################################################

data_FERWAC
_chemical_formula_moiety         '(C144 H72 Ag32 Fe10 N72)n'
_symmetry_cell_setting           triclinic
_symmetry_space_group_name_H-M   'P 1'
_symmetry_Int_Tables_number      1
_space_group_name_Hall           'P 1'
loop_
_symmetry_equiv_pos_site_id
_symmetry_equiv_pos_as_xyz
1 x,y,z
_cell_length_a                   26.646(2)
_cell_length_b                   26.646(2)
_cell_length_c                   9.9696(11)
_cell_angle_alpha                90
_cell_angle_beta                 90
_cell_angle_gamma                120
_cell_volume                     6130.17
loop_
_atom_site_label
_atom_site_type_symbol
_atom_site_fract_x
_atom_site_fract_y
_atom_site_fract_z
Fe6 Fe -0.0000 0.5000 0.0000
Ag1 Ag 0.37003(4) 0.3333 0.3333
Fe1 Fe 0.3333 0.1667 0.6667
N1 N 0.4266(3) 0.21332(17) 0.6718(10)
N2 N 0.3344(3) 0.2243(3) 0.5222(7)
N3 N 0.63726(18) 0.36274(18) 0.6691(9)
C1 C 0.4561(3) 0.2710(3) 0.6740(10)
H1 H 0.4357 0.2910 0.6756
C2 C 0.5156(3) 0.3021(3) 0.6739(9)
H2 H 0.5352 0.3424 0.6760
C3 C 0.5457(4) 0.2729(2) 0.6707(15)
C4 C 0.6112(4) 0.3056(2) 0.6711(11)
C5 C 0.3421(4) 0.2622(4) 0.4528(9)
N4 N 0.78668(17) 0.21328(34) 0.6718(10)
N5 N 0.63726(18) 0.27452(25) 0.6691(9)
C6 C 0.7290(3) 0.1851(4) 0.6740(10)
H3 H 0.7090 0.1447 0.6756
C7 C 0.6979(3) 0.2135(4) 0.6739(9)
H4 H 0.6576 0.1928 0.6760
C8 C 0.7271(2) 0.2728(4) 0.6707(15)
C9 C 0.6944(2) 0.3056(4) 0.6711(11)
N6 N 0.78672(34) 0.5734(3) 0.6718(10)
N7 N 0.72548(25) 0.36274(18) 0.6691(9)
C10 C 0.8149(4) 0.5439(3) 0.6740(10)
H5 H 0.8553 0.5643 0.6756
C11 C 0.7865(4) 0.4844(3) 0.6739(9)
H6 H 0.8072 0.4648 0.6760
C12 C 0.7272(4) 0.4543(4) 0.6707(15)
C13 C 0.6944(4) 0.3888(4) 0.6711(11)
C14 C 0.8149(4) 0.2710(3) 0.6740(10)
H7 H 0.8553 0.2910 0.6756
C15 C 0.7865(4) 0.3021(3) 0.6739(9)
H8 H 0.8072 0.3424 0.6760
C16 C 0.4561(3) 0.1851(4) 0.6740(10)
H9 H 0.4357 0.1447 0.6756
C17 C 0.5156(3) 0.2135(4) 0.6739(9)
H10 H 0.5352 0.1928 0.6760
C18 C 0.7290(3) 0.5439(3) 0.6740(10)
H11 H 0.7090 0.5643 0.6756
C19 C 0.6979(3) 0.4844(3) 0.6739(9)
H12 H 0.6576 0.4648 0.6760
Ag2 Ag 0.6667 0.03673(4) 0.3333
Fe2 Fe 0.8333 0.1666 0.6667
N8 N 0.7757(3) 0.1101(4) 0.5222(7)
C20 C 0.7378(4) 0.0799(6) 0.4528(9)
Ag3 Ag 0.96327(4) 0.62997(4) 0.3333
Fe3 Fe 0.8334 0.6667 0.6667
N9 N 0.8899(4) 0.6656(3) 0.5222(7)
C21 C 0.9201(6) 0.6579(4) 0.4528(9)
N10 N 0.4434(4) 0.4424(3) 0.1445(7)
C22 C 0.4132(6) 0.4045(4) 0.2139(9)
N11 N 0.9989(3) 0.5566(4) 0.1445(7)
C23 C 0.9912(4) 0.5868(6) 0.2139(9)
N12 N 0.5576(3) 0.0011(3) 0.1445(7)
C24 C 0.5955(4) 0.0088(4) 0.2139(9)
Ag4 Ag 0.96327(4) 0.3333 0.3333
N13 N 0.8899(4) 0.2243(3) 0.5222(7)
C25 C 0.9201(6) 0.2622(4) 0.4528(9)
Ag5 Ag 0.37003(4) 0.03673(4) 0.3333
N14 N 0.3344(3) 0.1101(4) 0.5222(7)
C26 C 0.3421(4) 0.0799(6) 0.4528(9)
Ag6 Ag 0.6667 0.62997(4) 0.3333
N15 N 0.7757(3) 0.6656(3) 0.5222(7)
C27 C 0.7378(4) 0.6579(4) 0.4528(9)
N16 N 0.9989(3) 0.4424(3) 0.1445(7)
C28 C 0.9912(4) 0.4045(4) 0.2139(9)
N17 N 0.5576(3) 0.5566(4) 0.1445(7)
C29 C 0.5955(4) 0.5868(6) 0.2139(9)
N18 N 0.4434(4) 0.0011(3) 0.1445(7)
C30 C 0.4132(6) 0.0088(4) 0.2139(9)
N19 N 0.2401(3) 0.12005(34) 0.6615(10)
N20 N 0.02941(18) 0.05881(25) 0.6642(9)
C31 C 0.2106(3) 0.1482(4) 0.6593(10)
H13 H 0.2310 0.1886 0.6577
C32 C 0.1511(3) 0.1198(4) 0.6594(9)
H14 H 0.1315 0.1405 0.6573
C33 C 0.1210(4) 0.0605(4) 0.6626(15)
C34 C 0.0555(4) 0.0277(4) 0.6622(11)
C45 C 0.2106(3) 0.0623(3) 0.6593(10)
H21 H 0.2310 0.0423 0.6577
C46 C 0.1511(3) 0.0312(3) 0.6594(9)
H24 H 0.0091 0.1405 0.6573
Fe6_2 Fe 1.0000 0.5000 0.0000
Fe7 Fe 0.5000 0.4999 0.0000
Fe8 Fe 0.5001 0.0000 0.0000
N25 N 0.87995(34) 0.12001(17) 0.6615(10)
N26 N 0.87999(17) 0.7599(3) 0.6615(10)
N27 N 0.7768(4) 0.1090(3) 0.8111(7)
N28 N 0.3323(3) 0.2232(4) 0.8111(7)
N29 N 0.8910(3) 0.6677(3) 0.8111(7)
N30 N 0.3323(3) 0.1090(3) 0.8111(7)
N31 N 0.8910(3) 0.2232(4) 0.8111(7)
N32 N 0.7768(4) 0.6677(3) 0.8111(7)
N22 N 0.02941(18) 0.97059(18) 0.6642(9)
H16 H 0.0091 0.8685 0.6573
H22 H 0.1315 0.9909 0.6573
Fe8_2 Fe 0.5001 1.0000 0.0000
C39 C 0.8518(4) 0.0623(3) 0.6593(10)
H17 H 0.8114 0.0423 0.6577
C40 C 0.8802(4) 0.0312(3) 0.6594(9)
C41 C 0.9395(4) 0.0604(2) 0.6626(15)
C42 C 0.9723(4) 0.0277(2) 0.6622(11)
C47 C 0.9377(3) 0.1482(4) 0.6593(10)
H23 H 0.9577 0.1886 0.6577
C48 C 0.9688(3) 0.1198(4) 0.6594(9)
C35 C 0.9377(3) 0.7894(3) 0.6593(10)
H15 H 0.9577 0.7690 0.6577
C36 C 0.9688(3) 0.8489(3) 0.6594(9)
C37 C 0.9396(2) 0.8790(4) 0.6626(15)
C38 C 0.9723(2) 0.9445(4) 0.6622(11)
N24 N 0.94119(25) 0.97059(18) 0.6642(9)
H18 H 0.8595 0.9909 0.6573
C43 C 0.8518(4) 0.7894(3) 0.6593(10)
H19 H 0.8114 0.7690 0.6577
C44 C 0.8802(4) 0.8489(3) 0.6594(9)
H20 H 0.8595 0.8685 0.6573
N1_2 N 0.0933(3) 0.54665(17) 0.0051(10)
N3_2 N 0.30393(18) 0.69607(18) 0.0024(9)
C1_2 C 0.1228(3) 0.6043(3) 0.0073(10)
H1_2 H 0.1024 0.6243 0.0089
C2_2 C 0.1823(3) 0.6354(3) 0.0072(9)
H2_2 H 0.2019 0.6757 0.0093
C3_2 C 0.2124(4) 0.6062(2) 0.0040(15)
C4_2 C 0.2779(4) 0.6389(2) 0.0044(11)
N4_2 N 0.45335(17) 0.54661(34) 0.0051(10)
N5_2 N 0.30393(18) 0.60785(25) 0.0024(9)
C6_2 C 0.3957(3) 0.5184(4) 0.0073(10)
H3_2 H 0.3757 0.4780 0.0089
C7_2 C 0.3646(3) 0.5468(4) 0.0072(9)
H4_2 H 0.3243 0.5261 0.0093
C8_2 C 0.3938(2) 0.6061(4) 0.0040(15)
C9_2 C 0.3611(2) 0.6389(4) 0.0044(11)
N6_2 N 0.45339(34) 0.9067(3) 0.0051(10)
N7_2 N 0.39215(25) 0.69607(18) 0.0024(9)
C10_2 C 0.4816(4) 0.8772(3) 0.0073(10)
H5_2 H 0.5220 0.8976 0.0089
C11_2 C 0.4532(4) 0.8177(3) 0.0072(9)
H6_2 H 0.4739 0.7981 0.0093
C12_2 C 0.3939(4) 0.7876(4) 0.0040(15)
C13_2 C 0.3611(4) 0.7221(4) 0.0044(11)
C14_2 C 0.4816(4) 0.6043(3) 0.0073(10)
H7_2 H 0.5220 0.6243 0.0089
C15_2 C 0.4532(4) 0.6354(3) 0.0072(9)
H8_2 H 0.4739 0.6757 0.0093
C16_2 C 0.1228(3) 0.5184(4) 0.0073(10)
H9_2 H 0.1024 0.4780 0.0089
C17_2 C 0.1823(3) 0.5468(4) 0.0072(9)
H10_2 H 0.2019 0.5261 0.0093
C18_2 C 0.3957(3) 0.8772(3) 0.0073(10)
H11_2 H 0.3757 0.8976 0.0089
C19_2 C 0.3646(3) 0.8177(3) 0.0072(9)
H12_2 H 0.3243 0.7981 0.0093
Ag2_2 Ag 0.29664(4) 0.29660(4) 1.0000
C20_2 C 0.3246(7) 0.2534(6) 0.8805(9)
Ag4_2 Ag 0.29664(4) 0.0000 1.0000
C25_2 C 0.3246(7) 0.0711(4) 0.8805(9)
Ag5_2 Ag -0.00003(6) 0.29660(4) 1.0000
Ag3_2 Ag -0.00003(6) 0.70336(4) 1.0000
Ag4_3 Ag 0.29664(4) 1.0000 1.0000
Ag1_2 Ag 0.70340(4) 0.0000 1.0000
C5_2 C 0.7466(6) 0.0711(4) 0.8805(9)
Ag5_3 Ag 0.99997(6) 0.29660(4) 1.0000
C26_2 C 0.9289(7) 0.2534(6) 0.8805(9)
Ag1_3 Ag 0.70340(4) 1.0000 1.0000
Ag3_3 Ag 0.99997(6) 0.70336(4) 1.0000
C21_2 C 0.9289(7) 0.6754(4) 0.8805(9)
Ag6_2 Ag 0.70340(4) 0.70336(4) 1.0000
C27_2 C 0.7466(6) 0.6754(4) 0.8805(9)
Fe6_3 Fe -0.0000 0.5000 1.0000
Fe6_4 Fe 1.0000 0.5000 1.0000
Fe7_2 Fe 0.5000 0.4999 1.0000
Fe8_3 Fe 0.5001 0.0000 1.0000
Fe8_4 Fe 0.5001 1.0000 1.0000
N21 N 0.12005(34) 0.2401(3) 0.3385(10)
N22_2 N 0.05881(25) 0.02941(18) 0.3358(9)
C35_2 C 0.1482(4) 0.2106(3) 0.3407(10)
H15_2 H 0.1886 0.2310 0.3423
C36_2 C 0.1198(4) 0.1511(3) 0.3406(9)
H16_2 H 0.1405 0.1315 0.3427
C37_2 C 0.0605(4) 0.1210(4) 0.3374(15)
C38_2 C 0.0277(4) 0.0555(4) 0.3378(11)
C43_2 C 0.0623(5) 0.2106(3) 0.3407(10)
H19_2 H 0.0423 0.2310 0.3423
C44_2 C 0.0312(5) 0.1511(3) 0.3406(9)
H22_2 H 0.1405 0.0091 0.3427
Fe5 Fe 0.1667 0.3333 0.3333
Ag1_4 Ag 0.03673(4) 0.6667 0.6667
Fe1_2 Fe 0.1666 0.8333 0.3333
N1_3 N 0.21328(34) 0.78668(17) 0.3282(10)
N2_2 N 0.1101(4) 0.7757(3) 0.4778(7)
N3_3 N 0.27452(25) 0.63726(18) 0.3309(9)
C1_3 C 0.1851(4) 0.7290(3) 0.3260(10)
H1_3 H 0.1447 0.7090 0.3244
C2_3 C 0.2135(4) 0.6979(3) 0.3261(9)
H2_3 H 0.1928 0.6576 0.3240
C3_3 C 0.2728(4) 0.7271(2) 0.3293(15)
C4_3 C 0.3056(4) 0.6944(2) 0.3289(11)
C5_3 C 0.0799(6) 0.7378(4) 0.5472(9)
N4_3 N 0.57340(38) 0.78672(34) 0.3282(10)
N5_3 N 0.36274(31) 0.72548(25) 0.3309(9)
C6_3 C 0.5439(5) 0.8149(4) 0.3260(10)
H3_3 H 0.5643 0.8553 0.3244
C7_3 C 0.4844(5) 0.7865(4) 0.3261(9)
H4_3 H 0.4648 0.8072 0.3240
C8_3 C 0.4543(4) 0.7272(4) 0.3293(15)
C9_3 C 0.3888(4) 0.6944(4) 0.3289(11)
N6_3 N 0.21332(45) 0.4266(3) 0.3282(10)
N7_3 N 0.36274(31) 0.63726(18) 0.3309(9)
C10_3 C 0.2710(5) 0.4561(3) 0.3260(10)
H5_3 H 0.2910 0.4357 0.3244
C11_3 C 0.3021(5) 0.5156(3) 0.3261(9)
H6_3 H 0.3424 0.5352 0.3240
C12_3 C 0.2729(6) 0.5457(4) 0.3293(15)
C13_3 C 0.3056(6) 0.6112(4) 0.3289(11)
C14_3 C 0.5439(5) 0.7290(3) 0.3260(10)
H7_3 H 0.5643 0.7090 0.3244
C15_3 C 0.4844(5) 0.6979(3) 0.3261(9)
H8_3 H 0.4648 0.6576 0.3240
C16_3 C 0.2710(5) 0.8149(4) 0.3260(10)
H9_3 H 0.2910 0.8553 0.3244
C17_3 C 0.3021(5) 0.7865(4) 0.3261(9)
H10_3 H 0.3424 0.8072 0.3240
C18_3 C 0.1851(4) 0.4561(3) 0.3260(10)
H11_3 H 0.1447 0.4357 0.3244
C19_3 C 0.2135(4) 0.5156(3) 0.3261(9)
H12_3 H 0.1928 0.5352 0.3240
Ag2_3 Ag 0.62997(4) 0.96327(4) 0.6667
Fe2_2 Fe 0.6667 0.8334 0.3333
N8_2 N 0.6656(5) 0.8899(4) 0.4778(7)
C20_3 C 0.6579(7) 0.9201(6) 0.5472(9)
Ag3_4 Ag 0.33330(6) 0.37003(4) 0.6667
N9_2 N 0.2243(5) 0.3344(3) 0.4778(7)
C21_3 C 0.2622(7) 0.3421(4) 0.5472(9)
N10_2 N 0.0011(5) 0.5576(3) 0.8555(7)
C22_2 C 0.0088(7) 0.5955(4) 0.7861(9)
N11_2 N 0.4424(5) 0.4434(4) 0.8555(7)
C23_2 C 0.4045(7) 0.4132(6) 0.7861(9)
N12_2 N 0.5566(4) 0.9989(3) 0.8555(7)
C24_2 C 0.5868(6) 0.9912(4) 0.7861(9)
Ag4_4 Ag 0.62997(4) 0.6667 0.6667
N13_2 N 0.6656(5) 0.7757(3) 0.4778(7)
C25_3 C 0.6579(7) 0.7378(4) 0.5472(9)
Ag5_4 Ag 0.33330(6) 0.96327(4) 0.6667
N14_2 N 0.2243(5) 0.8899(4) 0.4778(7)
C26_3 C 0.2622(7) 0.9201(6) 0.5472(9)
Ag6_3 Ag 0.03673(4) 0.37003(4) 0.6667
N15_2 N 0.1101(4) 0.3344(3) 0.4778(7)
C27_3 C 0.0799(6) 0.3421(4) 0.5472(9)
N16_2 N 0.5566(4) 0.5576(3) 0.8555(7)
C28_2 C 0.5868(6) 0.5955(4) 0.7861(9)
N17_2 N 0.0011(5) 0.4434(4) 0.8555(7)
C29_2 C 0.0088(7) 0.4132(6) 0.7861(9)
N18_2 N 0.4424(5) 0.9989(3) 0.8555(7)
C30_2 C 0.4045(7) 0.9912(4) 0.7861(9)
N19_2 N 0.12001(45) 0.87995(34) 0.3385(10)
C31_2 C 0.0623(5) 0.8518(4) 0.3407(10)
H13_2 H 0.0423 0.8114 0.3423
C32_2 C 0.0312(5) 0.8802(4) 0.3406(9)
C33_2 C 0.0604(6) 0.9395(4) 0.3374(15)
C34_2 C 0.0277(6) 0.9723(4) 0.3378(11)
C45_2 C 0.1482(4) 0.9377(3) 0.3407(10)
H21_2 H 0.1886 0.9577 0.3423
C46_2 C 0.1198(4) 0.9688(3) 0.3406(9)
N25_2 N 0.75993(38) 0.87999(17) 0.3385(10)
N27_2 N 0.6677(5) 0.8910(3) 0.1889(7)
N28_2 N 0.1090(5) 0.7768(4) 0.1889(7)
N29_2 N 0.2232(4) 0.3323(3) 0.1889(7)
N30_2 N 0.2232(4) 0.8910(3) 0.1889(7)
N31_2 N 0.6677(5) 0.7768(4) 0.1889(7)
N32_2 N 0.1090(5) 0.3323(3) 0.1889(7)
N24_2 N 0.97059(31) 0.02941(18) 0.3358(9)
H18_2 H 0.8685 0.0091 0.3427
H20_2 H 0.9909 0.1315 0.3427
N20_2 N 0.97059(31) 0.94119(25) 0.3358(9)
H14_2 H 0.9909 0.8595 0.3427
C39_2 C 0.7894(5) 0.9377(3) 0.3407(10)
H17_2 H 0.7690 0.9577 0.3423
C40_2 C 0.8489(5) 0.9688(3) 0.3406(9)
C41_2 C 0.8790(4) 0.9396(2) 0.3374(15)
C42_2 C 0.9445(4) 0.9723(2) 0.3378(11)
C47_2 C 0.7894(5) 0.8518(4) 0.3407(10)
H23_2 H 0.7690 0.8114 0.3423
C48_2 C 0.8489(5) 0.8802(4) 0.3406(9)
H24_2 H 0.8685 0.8595 0.3427
N26_2 N 0.54665(17) 0.0933(3) 0.9949(10)
N25_3 N 0.54661(34) 0.45335(17) 0.9949(10)
N19_3 N 0.9067(3) 0.45339(34) 0.9949(10)
N20_3 N 0.69607(18) 0.39215(25) 0.9976(9)
C31_3 C 0.8772(3) 0.4816(4) 0.9927(10)
H13_3 H 0.8976 0.5220 0.9911
C32_3 C 0.8177(3) 0.4532(4) 0.9928(9)
H14_3 H 0.7981 0.4739 0.9907
C33_3 C 0.7876(4) 0.3939(4) 0.9960(15)
C34_3 C 0.7221(4) 0.3611(4) 0.9956(11)
N22_3 N 0.69607(18) 0.30393(18) 0.9976(9)
C35_3 C 0.6043(3) 0.1228(3) 0.9927(10)
H15_3 H 0.6243 0.1024 0.9911
C36_3 C 0.6354(3) 0.1823(3) 0.9928(9)
H16_3 H 0.6757 0.2019 0.9907
C37_3 C 0.6062(2) 0.2124(4) 0.9960(15)
C38_3 C 0.6389(2) 0.2779(4) 0.9956(11)
N24_3 N 0.60785(25) 0.30393(18) 0.9976(9)
C39_3 C 0.5184(4) 0.3957(3) 0.9927(10)
H17_3 H 0.4780 0.3757 0.9911
C40_3 C 0.5468(4) 0.3646(3) 0.9928(9)
H18_3 H 0.5261 0.3243 0.9907
C41_3 C 0.6061(4) 0.3938(2) 0.9960(15)
C42_3 C 0.6389(4) 0.3611(2) 0.9956(11)
C43_3 C 0.5184(4) 0.1228(3) 0.9927(10)
H19_3 H 0.4780 0.1024 0.9911
C44_3 C 0.5468(4) 0.1823(3) 0.9928(9)
H20_3 H 0.5261 0.2019 0.9907
C45_3 C 0.8772(3) 0.3957(3) 0.9927(10)
H21_3 H 0.8976 0.3757 0.9911
C46_3 C 0.8177(3) 0.3646(3) 0.9928(9)
H22_3 H 0.7981 0.3243 0.9907
C47_3 C 0.6043(3) 0.4816(4) 0.9927(10)
H23_3 H 0.6243 0.5220 0.9911
C48_3 C 0.6354(3) 0.4532(4) 0.9928(9)
H24_3 H 0.6757 0.4739 0.9907
Ag2_4 Ag 0.29664(4) 0.29660(4) 0.0000
C24_3 C 0.2534(6) 0.3246(4) 0.1195(9)
Ag4_5 Ag 0.29664(4) 0.0000 0.0000
Ag5_5 Ag -0.00003(6) 0.29660(4) 0.0000
C30_3 C 0.0711(7) 0.3246(4) 0.1195(9)
Ag3_5 Ag -0.00003(6) 0.70336(4) 0.0000
C23_3 C 0.0711(7) 0.7466(6) 0.1195(9)
Ag4_6 Ag 0.29664(4) 1.0000 0.0000
C28_3 C 0.2534(6) 0.9289(4) 0.1195(9)
Ag1_5 Ag 0.70340(4) 0.0000 0.0000
Ag5_6 Ag 0.99997(6) 0.29660(4) 0.0000
Ag1_6 Ag 0.70340(4) 1.0000 0.0000
Ag3_6 Ag 0.99997(6) 0.70336(4) 0.0000
C22_3 C 0.6754(7) 0.9289(4) 0.1195(9)
Ag6_4 Ag 0.70340(4) 0.70336(4) 0.0000
C29_3 C 0.6754(7) 0.7466(6) 0.1195(9)
loop_
_geom_bond_atom_site_label_1
_geom_bond_atom_site_label_2
_geom_bond_site_symmetry_1
_geom_bond_site_symmetry_2
Ag1 C5 1_555 1_555
Fe1 N1 1_555 1_555
N1 C1 1_555 1_555
N2 Fe1 1_555 1_555
N3 C4 1_555 1_555
C1 H1 1_555 1_555
C2 C1 1_555 1_555
H2 C2 1_555 1_555
C3 C2 1_555 1_555
C4 C3 1_555 1_555
C5 N2 1_555 1_555
N4 C6 1_555 1_555
N5 C4 1_555 1_555
C6 H3 1_555 1_555
C7 C6 1_555 1_555
H4 C7 1_555 1_555
C8 C7 1_555 1_555
C9 N5 1_555 1_555
N6 C10 1_555 1_555
N7 C9 1_555 1_555
C10 H5 1_555 1_555
C11 C10 1_555 1_555
H6 C11 1_555 1_555
C12 C11 1_555 1_555
C13 N3 1_555 1_555
C14 N4 1_555 1_555
H7 C14 1_555 1_555
C15 C8 1_555 1_555
H8 C15 1_555 1_555
C16 N1 1_555 1_555
H9 C16 1_555 1_555
C17 C3 1_555 1_555
H10 C17 1_555 1_555
C18 N6 1_555 1_555
H11 C18 1_555 1_555
C19 C12 1_555 1_555
H12 C19 1_555 1_555
Ag2 C20 1_555 1_555
Fe2 N4 1_555 1_555
N8 Fe2 1_555 1_555
C20 N8 1_555 1_555
Ag3 C21 1_555 1_555
Fe3 N6 1_555 1_555
N9 Fe3 1_555 1_555
C21 N9 1_555 1_555
N10 C22 1_555 1_555
C22 Ag1 1_555 1_555
N11 C23 1_555 1_555
C23 Ag3 1_555 1_555
N12 C24 1_555 1_555
C24 Ag2 1_555 1_555
Ag4 C25 1_555 1_555
N13 Fe2 1_555 1_555
C25 N13 1_555 1_555
Ag5 C26 1_555 1_555
N14 Fe1 1_555 1_555
C26 N14 1_555 1_555
Ag6 C27 1_555 1_555
N15 Fe3 1_555 1_555
C27 N15 1_555 1_555
N16 C28 1_555 1_555
C28 Ag4 1_555 1_555
N17 C29 1_555 1_555
C29 Ag6 1_555 1_555
N18 C30 1_555 1_555
C30 Ag5 1_555 1_555
N19 Fe1 1_555 1_555
N20 C34 1_555 1_555
C31 N19 1_555 1_555
H13 C31 1_555 1_555
C32 C31 1_555 1_555
H14 C32 1_555 1_555
C33 C32 1_555 1_555
C34 C33 1_555 1_555
C45 N19 1_555 1_555
H21 C45 1_555 1_555
C46 C33 1_555 1_555
Fe6_2 N11 1_555 1_555
Fe7 N10 1_555 1_555
Fe8 N12 1_555 1_555
N25 Fe2 1_555 1_555
N26 Fe3 1_555 1_555
N27 Fe2 1_555 1_555
N28 Fe1 1_555 1_555
N29 Fe3 1_555 1_555
N30 Fe1 1_555 1_555
N31 Fe2 1_555 1_555
N32 Fe3 1_555 1_555
C8 C9 1_555 1_555
N7 C13 1_555 1_555
C12 C13 1_555 1_555
C14 C15 1_555 1_555
C16 C17 1_555 1_555
C18 C19 1_555 1_555
N16 Fe6_2 1_555 1_555
N17 Fe7 1_555 1_555
N18 Fe8 1_555 1_555
C45 C46 1_555 1_555
N25 C39 1_555 1_555
C39 H17 1_555 1_555
C40 C39 1_555 1_555
C41 C40 1_555 1_555
C47 N25 1_555 1_555
H23 C47 1_555 1_555
C48 C41 1_555 1_555
C41 C42 1_555 1_555
C47 C48 1_555 1_555
N26 C35 1_555 1_555
C35 H15 1_555 1_555
C36 C35 1_555 1_555
C37 C36 1_555 1_555
N24 C38 1_555 1_555
C43 N26 1_555 1_555
H19 C43 1_555 1_555
C44 C37 1_555 1_555
H20 C44 1_555 1_555
C37 C38 1_555 1_555
C43 C44 1_555 1_555
Fe6 N1_2 1_555 1_555
N1_2 C1_2 1_555 1_555
N3_2 C4_2 1_555 1_555
C1_2 H1_2 1_555 1_555
C2_2 C1_2 1_555 1_555
H2_2 C2_2 1_555 1_555
C3_2 C2_2 1_555 1_555
C4_2 C3_2 1_555 1_555
N4_2 C6_2 1_555 1_555
N5_2 C4_2 1_555 1_555
C6_2 H3_2 1_555 1_555
C7_2 C6_2 1_555 1_555
H4_2 C7_2 1_555 1_555
C8_2 C7_2 1_555 1_555
C9_2 N5_2 1_555 1_555
N6_2 C10_2 1_555 1_555
N7_2 C9_2 1_555 1_555
C10_2 H5_2 1_555 1_555
C11_2 C10_2 1_555 1_555
H6_2 C11_2 1_555 1_555
C12_2 C11_2 1_555 1_555
C13_2 N3_2 1_555 1_555
C14_2 N4_2 1_555 1_555
H7_2 C14_2 1_555 1_555
C15_2 C8_2 1_555 1_555
H8_2 C15_2 1_555 1_555
C16_2 N1_2 1_555 1_555
H9_2 C16_2 1_555 1_555
C17_2 C3_2 1_555 1_555
H10_2 C17_2 1_555 1_555
C18_2 N6_2 1_555 1_555
H11_2 C18_2 1_555 1_555
C19_2 C12_2 1_555 1_555
H12_2 C19_2 1_555 1_555
Fe7 N4_2 1_555 1_555
Fe8_2 N6_2 1_555 1_555
C8_2 C9_2 1_555 1_555
N7_2 C13_2 1_555 1_555
C12_2 C13_2 1_555 1_555
C14_2 C15_2 1_555 1_555
C16_2 C17_2 1_555 1_555
C18_2 C19_2 1_555 1_555
Ag2_2 C20_2 1_555 1_555
C20_2 N28 1_555 1_555
Ag4_2 C25_2 1_555 1_555
C25_2 N30 1_555 1_555
Ag1_2 C5_2 1_555 1_555
C5_2 N27 1_555 1_555
Ag5_3 C26_2 1_555 1_555
C26_2 N31 1_555 1_555
Ag3_3 C21_2 1_555 1_555
C21_2 N29 1_555 1_555
Ag6_2 C27_2 1_555 1_555
C27_2 N32 1_555 1_555
N21 C35_2 1_555 1_555
C35_2 H15_2 1_555 1_555
C36_2 C35_2 1_555 1_555
H16_2 C36_2 1_555 1_555
C37_2 C36_2 1_555 1_555
C38_2 N22_2 1_555 1_555
C43_2 N21 1_555 1_555
H19_2 C43_2 1_555 1_555
C44_2 C37_2 1_555 1_555
Fe5 N21 1_555 1_555
C37_2 C38_2 1_555 1_555
C43_2 C44_2 1_555 1_555
Ag1_4 C5_3 1_555 1_555
Fe1_2 N1_3 1_555 1_555
N1_3 C1_3 1_555 1_555
N2_2 Fe1_2 1_555 1_555
N3_3 C4_3 1_555 1_555
C1_3 H1_3 1_555 1_555
C2_3 C1_3 1_555 1_555
H2_3 C2_3 1_555 1_555
C3_3 C2_3 1_555 1_555
C4_3 C3_3 1_555 1_555
C5_3 N2_2 1_555 1_555
N4_3 C6_3 1_555 1_555
N5_3 C4_3 1_555 1_555
C6_3 H3_3 1_555 1_555
C7_3 C6_3 1_555 1_555
H4_3 C7_3 1_555 1_555
C8_3 C7_3 1_555 1_555
C9_3 N5_3 1_555 1_555
N6_3 C10_3 1_555 1_555
N7_3 C9_3 1_555 1_555
C10_3 H5_3 1_555 1_555
C11_3 C10_3 1_555 1_555
H6_3 C11_3 1_555 1_555
C12_3 C11_3 1_555 1_555
C13_3 N3_3 1_555 1_555
C14_3 N4_3 1_555 1_555
H7_3 C14_3 1_555 1_555
C15_3 C8_3 1_555 1_555
H8_3 C15_3 1_555 1_555
C16_3 N1_3 1_555 1_555
H9_3 C16_3 1_555 1_555
C17_3 C3_3 1_555 1_555
H10_3 C17_3 1_555 1_555
C18_3 N6_3 1_555 1_555
H11_3 C18_3 1_555 1_555
C19_3 C12_3 1_555 1_555
H12_3 C19_3 1_555 1_555
Ag2_3 C20_3 1_555 1_555
Fe2_2 N4_3 1_555 1_555
N8_2 Fe2_2 1_555 1_555
C20_3 N8_2 1_555 1_555
Ag3_4 C21_3 1_555 1_555
Fe5 N6_3 1_555 1_555
N9_2 Fe5 1_555 1_555
C21_3 N9_2 1_555 1_555
N10_2 C22_2 1_555 1_555
C22_2 Ag1_4 1_555 1_555
N11_2 C23_2 1_555 1_555
C23_2 Ag3_4 1_555 1_555
N12_2 C24_2 1_555 1_555
C24_2 Ag2_3 1_555 1_555
Ag4_4 C25_3 1_555 1_555
N13_2 Fe2_2 1_555 1_555
C25_3 N13_2 1_555 1_555
Ag5_4 C26_3 1_555 1_555
N14_2 Fe1_2 1_555 1_555
C26_3 N14_2 1_555 1_555
Ag6_3 C27_3 1_555 1_555
N15_2 Fe5 1_555 1_555
C27_3 N15_2 1_555 1_555
N16_2 C28_2 1_555 1_555
C28_2 Ag4_4 1_555 1_555
N17_2 C29_2 1_555 1_555
C29_2 Ag6_3 1_555 1_555
N18_2 C30_2 1_555 1_555
C30_2 Ag5_4 1_555 1_555
N19_2 Fe1_2 1_555 1_555
C31_2 N19_2 1_555 1_555
H13_2 C31_2 1_555 1_555
C32_2 C31_2 1_555 1_555
C33_2 C32_2 1_555 1_555
C34_2 C33_2 1_555 1_555
C45_2 N19_2 1_555 1_555
H21_2 C45_2 1_555 1_555
C46_2 C33_2 1_555 1_555
Fe7_2 N11_2 1_555 1_555
Fe6_3 N10_2 1_555 1_555
Fe8_4 N12_2 1_555 1_555
N25_2 Fe2_2 1_555 1_555
N27_2 Fe2_2 1_555 1_555
N28_2 Fe1_2 1_555 1_555
N29_2 Fe5 1_555 1_555
N30_2 Fe1_2 1_555 1_555
N31_2 Fe2_2 1_555 1_555
N32_2 Fe5 1_555 1_555
C8_3 C9_3 1_555 1_555
N7_3 C13_3 1_555 1_555
C12_3 C13_3 1_555 1_555
C14_3 C15_3 1_555 1_555
C16_3 C17_3 1_555 1_555
C18_3 C19_3 1_555 1_555
N16_2 Fe7_2 1_555 1_555
N17_2 Fe6_3 1_555 1_555
N18_2 Fe8_4 1_555 1_555
C45_2 C46_2 1_555 1_555
N25_2 C39_2 1_555 1_555
C39_2 H17_2 1_555 1_555
C40_2 C39_2 1_555 1_555
C41_2 C40_2 1_555 1_555
C42_2 N20_2 1_555 1_555
C47_2 N25_2 1_555 1_555
H23_2 C47_2 1_555 1_555
C48_2 C41_2 1_555 1_555
H24_2 C48_2 1_555 1_555
C41_2 C42_2 1_555 1_555
C47_2 C48_2 1_555 1_555
N26_2 Fe8_3 1_555 1_555
N25_3 Fe7_2 1_555 1_555
N19_3 Fe6_4 1_555 1_555
N20_3 C34_3 1_555 1_555
C31_3 N19_3 1_555 1_555
H13_3 C31_3 1_555 1_555
C32_3 C31_3 1_555 1_555
H14_3 C32_3 1_555 1_555
C33_3 C32_3 1_555 1_555
C34_3 C33_3 1_555 1_555
N26_2 C35_3 1_555 1_555
N22_3 C34_3 1_555 1_555
C35_3 H15_3 1_555 1_555
C36_3 C35_3 1_555 1_555
H16_3 C36_3 1_555 1_555
C37_3 C36_3 1_555 1_555
C38_3 N22_3 1_555 1_555
N25_3 C39_3 1_555 1_555
N24_3 C38_3 1_555 1_555
C39_3 H17_3 1_555 1_555
C40_3 C39_3 1_555 1_555
H18_3 C40_3 1_555 1_555
C41_3 C40_3 1_555 1_555
C42_3 N20_3 1_555 1_555
C43_3 N26_2 1_555 1_555
H19_3 C43_3 1_555 1_555
C44_3 C37_3 1_555 1_555
H20_3 C44_3 1_555 1_555
C45_3 N19_3 1_555 1_555
H21_3 C45_3 1_555 1_555
C46_3 C33_3 1_555 1_555
H22_3 C46_3 1_555 1_555
C47_3 N25_3 1_555 1_555
H23_3 C47_3 1_555 1_555
C48_3 C41_3 1_555 1_555
H24_3 C48_3 1_555 1_555
C37_3 C38_3 1_555 1_555
N24_3 C42_3 1_555 1_555
C41_3 C42_3 1_555 1_555
C43_3 C44_3 1_555 1_555
C45_3 C46_3 1_555 1_555
C47_3 C48_3 1_555 1_555
N29_2 C24_3 1_555 1_555
C24_3 Ag2_4 1_555 1_555
N32_2 C30_3 1_555 1_555
C30_3 Ag5_5 1_555 1_555
N28_2 C23_3 1_555 1_555
C23_3 Ag3_5 1_555 1_555
N30_2 C28_3 1_555 1_555
C28_3 Ag4_6 1_555 1_555
N27_2 C22_3 1_555 1_555
C22_3 Ag1_6 1_555 1_555
N31_2 C29_3 1_555 1_555
C29_3 Ag6_4 1_555 1_555

#END
