
###############################################################################
#
# This file contains modified crystal structure data generated from the
# MOF subset of the Cambridge Structural Database (CSD) v543 
# hosted by the Cambridge Crystallographic Data Centre (CCDC).
#
# This work is licensed under the Creative Commons
# Attribution-NonCommercial-ShareAlike 4.0 International License.
# To view a copy of this license, visit
# http://creativecommons.org/licenses/by-nc-sa/4.0/
# or send a letter to
# Creative Commons, PO Box 1866, Mountain View, CA 94042, USA.
#
# CIF created using the CSD Python API on 29 September 2022
# The structure has been converted into the P1 space group
# The structure has a 3D framework
# The original CSD entry FESBIQ is in the triclinic crystal system
# The framework has been calculated to contain at least 10.0% void space
# The void calculation uses a probe of radius 1.32A, grid spacing 0.4
#
###############################################################################

data_FESBIQ
_chemical_formula_moiety         '(C104 H64 Mn4 N20 O16)n'
_symmetry_cell_setting           triclinic
_symmetry_space_group_name_H-M   'P 1'
_symmetry_Int_Tables_number      1
_space_group_name_Hall           'P 1'
loop_
_symmetry_equiv_pos_site_id
_symmetry_equiv_pos_as_xyz
1 x,y,z
_cell_length_a                   14.787(7)
_cell_length_b                   15.571(7)
_cell_length_c                   16.424(7)
_cell_angle_alpha                92.379(8)
_cell_angle_beta                 109.668(7)
_cell_angle_gamma                110.955(8)
_cell_volume                     3268.63
loop_
_atom_site_label
_atom_site_type_symbol
_atom_site_fract_x
_atom_site_fract_y
_atom_site_fract_z
_atom_site_U_iso_or_equiv
_atom_site_thermal_displace_type
C3 C 0.0574(6) 0.4365(6) 0.6232(5) 0.0852 Uani
H3 H 0.1009 0.4691 0.6800 0.1030 Uiso
C4 C 0.0901(5) 0.3876(5) 0.5773(4) 0.0654 Uani
H4 H 0.1563 0.3869 0.6023 0.0780 Uiso
C5 C 0.0246(4) 0.3392(4) 0.4935(4) 0.0454 Uani
C6 C 0.0507(4) 0.2848(4) 0.4399(4) 0.0440 Uani
C7 C 0.0309(4) 0.1877(4) 0.3305(3) 0.0389 Uani
H5 H 0.0312 0.0233 0.3047 0.0640 Uiso
N9 N 0.1230(4) 0.2083(3) 0.3944(3) 0.0531 Uani
H32 H 0.1672 0.1853 0.3919 0.0640 Uiso
N10 N 0.1398(4) 0.2706(4) 0.4652(3) 0.0551 Uani
C61 C 0.1939(4) 0.3900(4) 0.1975(4) 0.0454 Uani
C62 C 0.1034(4) 0.4185(4) 0.1568(3) 0.0416 Uani
C63 C 0.0936(4) 0.4597(4) 0.0824(4) 0.0484 Uani
H36 H 0.1459 0.4735 0.0597 0.0580 Uiso
C64 C 0.0078(4) 0.4804(4) 0.0419(3) 0.0474 Uani
C67 C 0.0266(4) 0.3983(4) 0.1923(3) 0.0398 Uani
H38 H 0.0340 0.3723 0.2429 0.0480 Uiso
O13 O 0.2672(3) 0.4134(3) 0.1679(2) 0.0510 Uani
O14 O 0.1944(3) 0.3427(3) 0.2566(2) 0.0505 Uani
Mn9 Mn 0.33679(6) 0.33018(6) 0.25269(5) 0.0329 Uani
C49 C 0.0698(4) 0.5420(4) 0.9226(3) 0.0448 Uani
H29 H 0.1287 0.5292 0.9492 0.0540 Uiso
C50 C 0.0605(4) 0.5831(4) 0.8481(3) 0.0392 Uani
C52 C 0.1452(5) 0.6069(4) 0.8117(4) 0.0432 Uani
O7 O 0.2213(3) 0.5849(4) 0.8467(3) 0.0746 Uani
O8 O 0.1357(3) 0.6494(3) 0.7483(2) 0.0534 Uani
Mn7 Mn 0.16576(6) 0.74699(6) 0.67698(5) 0.0329 Uani
Mn1 Mn 0.83424(6) 0.25301(6) 0.32302(5) 0.0329 Uani
C1 C 0.9000(5) 0.3902(5) 0.5013(4) 0.0687 Uani
H1 H 0.8345 0.3924 0.4765 0.0820 Uiso
C2 C 0.9613(5) 0.4374(5) 0.5861(4) 0.0683 Uani
H2 H 0.9372 0.4694 0.6171 0.0820 Uiso
C8 C 0.9906(4) 0.1223(4) 0.2509(4) 0.0410 Uani
C9 C 0.9964(4) 0.0371(4) 0.2516(4) 0.0535 Uani
C12 C 0.9026(4) 0.0776(4) 0.0937(4) 0.0498 Uani
H7 H 0.8705 0.0923 0.0401 0.0600 Uiso
C13 C 0.9455(4) 0.1440(4) 0.1687(4) 0.0496 Uani
H8 H 0.9446 0.2031 0.1651 0.0600 Uiso
C32 C 0.7391(4) 0.0500(5) 0.2274(4) 0.0526 Uani
H21 H 0.7715 0.0420 0.2842 0.0630 Uiso
C35 C 0.6428(4) 0.0671(4) 0.0613(4) 0.0517 Uani
H23 H 0.6103 0.0762 0.0051 0.0620 Uiso
C36 C 0.6942(4) 0.1401(5) 0.1314(4) 0.0523 Uani
H24 H 0.6931 0.1975 0.1187 0.0630 Uiso
C37 C 0.6858(4) 0.1935(4) 0.3763(4) 0.0402 Uani
C38 C 0.5954(4) 0.1529(4) 0.4047(4) 0.0425 Uani
C39 C 0.5879(4) 0.0799(4) 0.4507(4) 0.0543 Uani
H25 H 0.6412 0.0581 0.4659 0.0650 Uiso
C40 C 0.5024(4) 0.0381(4) 0.4748(4) 0.0516 Uani
C41 C 0.4231(4) 0.0718(4) 0.4485(4) 0.0499 Uani
H26 H 0.3639 0.0439 0.4618 0.0600 Uiso
C42 C 0.4299(4) 0.1436(4) 0.4046(4) 0.0421 Uani
C43 C 0.5164(4) 0.1858(4) 0.3810(3) 0.0393 Uani
H27 H 0.5205 0.2349 0.3502 0.0470 Uiso
C44 C 0.3431(4) 0.1801(4) 0.3769(4) 0.0415 Uani
N1 N 0.9802(3) 0.2344(3) 0.3570(3) 0.0425 Uani
N3 N 0.7466(3) 0.1396(4) 0.2169(3) 0.0461 Uani
N5 N 0.9273(3) 0.3406(3) 0.4510(3) 0.0509 Uani
O1 O 0.7553(3) 0.1595(3) 0.3960(2) 0.0489 Uani
O2 O 0.6897(3) 0.2574(3) 0.3330(2) 0.0497 Uani
O3 O 0.3551(3) 0.2461(3) 0.3379(3) 0.0600 Uani
O4 O 0.2660(3) 0.1406(3) 0.3980(3) 0.0721 Uani
C82 C 0.2484(4) 0.2401(4) 0.0596(4) 0.0528 Uani
H47 H 0.2842 0.3017 0.0561 0.0630 Uiso
C85 C 0.1422(4) 0.0579(4) 0.0657(4) 0.0500 Uani
C86 C 0.1946(4) 0.1317(5) 0.1381(4) 0.0531 Uani
H50 H 0.1905 0.1161 0.1912 0.0640 Uiso
C87 C 0.4062(5) 0.5104(5) 0.3944(4) 0.0631 Uani
H51 H 0.3374 0.4857 0.3909 0.0750 Uiso
C88 C 0.4708(6) 0.5956(5) 0.4482(5) 0.0788 Uani
H52 H 0.4470 0.6258 0.4812 0.0940 Uiso
C89 C 0.5718(6) 0.6351(6) 0.4520(5) 0.0936 Uani
H53 H 0.6182 0.6921 0.4889 0.1120 Uiso
C90 C 0.6029(5) 0.5899(5) 0.4014(4) 0.0721 Uani
H54 H 0.6706 0.6162 0.4024 0.0860 Uiso
C91 C 0.5344(4) 0.5056(4) 0.3489(4) 0.0513 Uani
C92 C 0.5598(4) 0.4510(4) 0.2913(4) 0.0425 Uani
C93 C 0.5387(4) 0.3439(4) 0.1936(4) 0.0428 Uani
C94 C 0.4951(4) 0.2597(4) 0.1260(4) 0.0432 Uani
C95 C 0.4466(4) 0.1732(4) 0.1411(4) 0.0465 Uani
H55 H 0.4420 0.1661 0.1957 0.0560 Uiso
C96 C 0.4041(4) 0.0956(4) 0.0752(4) 0.0493 Uani
H56 H 0.3700 0.0369 0.0859 0.0590 Uiso
C99 C 0.5064(5) 0.2703(5) 0.0462(4) 0.0553 Uani
H58 H 0.5431 0.3290 0.0370 0.0660 Uiso
N12 N 0.2492(4) 0.2207(4) 0.1403(4) 0.0531 Uani
N14 N 0.4874(3) 0.3685(3) 0.2381(3) 0.0397 Uani
N16 N 0.4339(4) 0.4588(4) 0.3456(3) 0.0546 Uani
N17 N 0.6512(3) 0.4794(3) 0.2822(3) 0.0506 Uani
N18 N 0.6330(3) 0.4101(3) 0.2194(3) 0.0472 Uani
H63 H 0.6787 0.4093 0.1983 0.0570 Uiso
O23 O 0.8643(3) 0.3506(3) 0.2517(2) 0.0534 Uani
H11 H 0.8928 0.0032 0.9290 0.0600 Uiso
C78 C 0.0471(5) 0.0291(5) 0.8234(4) 0.0604 Uani
H44 H 0.0450 0.0878 0.8199 0.0730 Uiso
C79 C 0.0946(4) 0.0089(4) 0.9052(4) 0.0445 Uani
C83 C 0.1977(4) 0.1738(4) 0.9832(4) 0.0518 Uani
H48 H 0.1989 0.1918 0.9301 0.0620 Uiso
C84 C 0.1452(4) 0.0810(4) 0.9851(4) 0.0473 Uani
C97 C 0.4112(4) 0.1035(4) 0.9949(4) 0.0453 Uani
C98 C 0.4623(5) 0.1923(4) 0.9804(4) 0.0576 Uani
H57 H 0.4669 0.1993 0.9258 0.0690 Uiso
C101 C 0.3113(5) 0.0283(4) 0.8372(4) 0.0540 Uani
H60 H 0.3129 0.0859 0.8228 0.0650 Uiso
C102 C 0.3597(4) 0.0223(4) 0.9236(4) 0.0453 Uani
C10 C 0.9529(5) 0.9709(5) 0.1766(4) 0.0604 Uani
H6 H 0.9550 0.9122 0.1801 0.0730 Uiso
C11 C 0.9054(4) 0.9911(4) 0.0948(4) 0.0445 Uani
C15 C 0.8023(4) 0.8262(4) 0.0168(4) 0.0518 Uani
H10 H 0.8011 0.8082 0.0699 0.0620 Uiso
C16 C 0.8548(4) 0.9190(4) 0.0149(4) 0.0473 Uani
C29 C 0.5888(4) 0.8965(4) 0.0051(4) 0.0453 Uani
C30 C 0.5377(5) 0.8077(4) 0.0196(4) 0.0576 Uani
H19 H 0.5331 0.8007 0.0742 0.0690 Uiso
C33 C 0.6887(5) 0.9717(4) 0.1628(4) 0.0540 Uani
H22 H 0.6871 0.9141 0.1772 0.0650 Uiso
C34 C 0.6403(4) 0.9777(4) 0.0764(4) 0.0453 Uani
C53 C 0.3142(4) 0.8065(4) 0.6237(4) 0.0402 Uani
C54 C 0.4046(4) 0.8471(4) 0.5953(4) 0.0425 Uani
C55 C 0.4121(4) 0.9201(4) 0.5493(4) 0.0543 Uani
H33 H 0.3588 0.9419 0.5341 0.0650 Uiso
C56 C 0.4976(4) 0.9619(4) 0.5252(4) 0.0516 Uani
C57 C 0.5769(4) 0.9282(4) 0.5515(4) 0.0499 Uani
H34 H 0.6361 0.9561 0.5382 0.0600 Uiso
C58 C 0.5701(4) 0.8564(4) 0.5954(4) 0.0421 Uani
C59 C 0.4836(4) 0.8142(4) 0.6190(3) 0.0393 Uani
H35 H 0.4795 0.7651 0.6498 0.0470 Uiso
C60 C 0.6569(4) 0.8199(4) 0.6231(4) 0.0415 Uani
O9 O 0.2447(3) 0.8405(3) 0.6040(2) 0.0489 Uani
O10 O 0.3103(3) 0.7426(3) 0.6670(2) 0.0497 Uani
O11 O 0.6449(3) 0.7539(3) 0.6621(3) 0.0600 Uani
O12 O 0.7340(3) 0.8594(3) 0.6020(3) 0.0721 Uani
C65 C 0.9302(4) 0.4580(4) 0.0774(3) 0.0448 Uani
H37 H 0.8713 0.4708 0.0508 0.0540 Uiso
C66 C 0.9395(4) 0.4169(4) 0.1519(3) 0.0392 Uani
C68 C 0.8548(5) 0.3931(4) 0.1883(4) 0.0432 Uani
O15 O 0.7787(3) 0.4151(4) 0.1533(3) 0.0746 Uani
H49 H 0.1072 0.9968 0.0710 0.0600 Uiso
Mn8 Mn 0.66321(6) 0.66982(6) 0.74731(5) 0.0329 Uani
C14 C 0.7516(4) 0.7599(4) 0.9404(4) 0.0528 Uani
H9 H 0.7158 0.6983 0.9439 0.0630 Uiso
C17 C 0.8578(4) 0.9421(4) 0.9343(4) 0.0500 Uani
C18 C 0.8054(4) 0.8683(5) 0.8619(4) 0.0531 Uani
H12 H 0.8095 0.8839 0.8088 0.0640 Uiso
C19 C 0.5938(5) 0.4896(5) 0.6056(4) 0.0631 Uani
H13 H 0.6626 0.5143 0.6091 0.0750 Uiso
C20 C 0.5292(6) 0.4044(5) 0.5518(5) 0.0788 Uani
H14 H 0.5530 0.3742 0.5188 0.0940 Uiso
C21 C 0.4282(6) 0.3649(6) 0.5480(5) 0.0936 Uani
H15 H 0.3818 0.3079 0.5111 0.1120 Uiso
C22 C 0.3971(5) 0.4101(5) 0.5986(4) 0.0721 Uani
H16 H 0.3294 0.3838 0.5976 0.0860 Uiso
C23 C 0.4656(4) 0.4944(4) 0.6511(4) 0.0513 Uani
C24 C 0.4402(4) 0.5490(4) 0.7087(4) 0.0425 Uani
C25 C 0.4613(4) 0.6561(4) 0.8064(4) 0.0428 Uani
C26 C 0.5049(4) 0.7403(4) 0.8740(4) 0.0432 Uani
C27 C 0.5534(4) 0.8268(4) 0.8589(4) 0.0465 Uani
H17 H 0.5580 0.8339 0.8043 0.0560 Uiso
C28 C 0.5959(4) 0.9044(4) 0.9248(4) 0.0493 Uani
H18 H 0.6300 0.9631 0.9141 0.0590 Uiso
C31 C 0.4936(5) 0.7297(5) 0.9538(4) 0.0553 Uani
H20 H 0.4569 0.6710 0.9630 0.0660 Uiso
C45 C 0.8061(4) 0.6100(4) 0.8025(4) 0.0454 Uani
C46 C 0.8966(4) 0.5815(4) 0.8432(3) 0.0416 Uani
C47 C 0.9064(4) 0.5403(4) 0.9176(4) 0.0484 Uani
H28 H 0.8541 0.5265 0.9403 0.0580 Uiso
C48 C 0.9922(4) 0.5196(4) 0.9581(3) 0.0474 Uani
C51 C 0.9734(4) 0.6017(4) 0.8077(3) 0.0398 Uani
H30 H 0.9660 0.6277 0.7571 0.0480 Uiso
N2 N 0.7508(4) 0.7793(4) 0.8597(4) 0.0531 Uani
N4 N 0.5126(3) 0.6315(3) 0.7619(3) 0.0397 Uani
N6 N 0.5661(4) 0.5412(4) 0.6544(3) 0.0546 Uani
N7 N 0.3488(3) 0.5206(3) 0.7178(3) 0.0506 Uani
N8 N 0.3670(3) 0.5899(3) 0.7806(3) 0.0472 Uani
H31 H 0.3213 0.5907 0.8017 0.0570 Uiso
O5 O 0.7328(3) 0.5866(3) 0.8321(2) 0.0510 Uani
O6 O 0.8056(3) 0.6573(3) 0.7434(2) 0.0505 Uani
C69 C 0.1000(5) 0.6098(5) 0.4987(4) 0.0687 Uani
H39 H 0.1655 0.6076 0.5235 0.0820 Uiso
C70 C 0.0387(5) 0.5626(5) 0.4139(4) 0.0683 Uani
H40 H 0.0628 0.5306 0.3829 0.0820 Uiso
C76 C 0.0094(4) 0.8777(4) 0.7491(4) 0.0410 Uani
C77 C 0.0036(4) 0.9629(4) 0.7484(4) 0.0535 Uani
C80 C 0.0974(4) 0.9224(4) 0.9063(4) 0.0498 Uani
H45 H 0.1295 0.9077 0.9599 0.0600 Uiso
C81 C 0.0545(4) 0.8560(4) 0.8313(4) 0.0496 Uani
H46 H 0.0554 0.7969 0.8349 0.0600 Uiso
C100 C 0.2609(4) 0.9500(5) 0.7726(4) 0.0526 Uani
H59 H 0.2285 0.9580 0.7158 0.0630 Uiso
C103 C 0.3572(4) 0.9329(4) 0.9387(4) 0.0517 Uani
H61 H 0.3897 0.9238 0.9949 0.0620 Uiso
C104 C 0.3058(4) 0.8599(5) 0.8686(4) 0.0523 Uani
H62 H 0.3069 0.8025 0.8813 0.0630 Uiso
N11 N 0.0198(3) 0.7656(3) 0.6430(3) 0.0425 Uani
N13 N 0.2534(3) 0.8604(4) 0.7831(3) 0.0461 Uani
N15 N 0.0727(3) 0.6594(3) 0.5490(3) 0.0509 Uani
C71 C 0.9426(6) 0.5635(6) 0.3768(5) 0.0852 Uani
H41 H 0.8991 0.5309 0.3200 0.1030 Uiso
C72 C 0.9099(5) 0.6124(5) 0.4227(4) 0.0654 Uani
H42 H 0.8437 0.6131 0.3977 0.0780 Uiso
C73 C 0.9754(4) 0.6608(4) 0.5065(4) 0.0454 Uani
C74 C 0.9493(4) 0.7152(4) 0.5601(4) 0.0440 Uani
C75 C 0.9691(4) 0.8123(4) 0.6695(3) 0.0389 Uani
H43 H 0.9688 0.9767 0.6953 0.0640 Uiso
N19 N 0.8770(4) 0.7917(3) 0.6056(3) 0.0531 Uani
H64 H 0.8328 0.8147 0.6081 0.0640 Uiso
N20 N 0.8602(4) 0.7294(4) 0.5348(3) 0.0551 Uani
loop_
_atom_site_aniso_label
_atom_site_aniso_U_11
_atom_site_aniso_U_22
_atom_site_aniso_U_33
_atom_site_aniso_U_23
_atom_site_aniso_U_13
_atom_site_aniso_U_12
C3 0.079 0.118 0.057 -0.019 0.017 0.049
C4 0.048 0.089 0.051 -0.007 0.007 0.031
C5 0.045 0.049 0.04 0.002 0.018 0.015
C6 0.026 0.055 0.043 -0.001 0.008 0.013
C7 0.028 0.049 0.035 0.013 0.006 0.015
N9 0.041 0.067 0.053 -0.001 0.012 0.03
N10 0.039 0.063 0.056 -0.003 0.01 0.021
C61 0.034 0.058 0.049 0.012 0.018 0.021
C62 0.037 0.059 0.04 0.02 0.021 0.024
C63 0.041 0.079 0.055 0.031 0.035 0.039
C64 0.038 0.071 0.058 0.039 0.029 0.036
C67 0.034 0.05 0.041 0.011 0.017 0.02
O13 0.037 0.071 0.06 0.026 0.02 0.035
O14 0.046 0.07 0.049 0.029 0.022 0.032
Mn9 0.0249 0.042 0.0385 0.0129 0.013 0.019
C49 0.038 0.076 0.047 0.037 0.028 0.038
C50 0.029 0.057 0.039 0.013 0.019 0.019
C52 0.039 0.047 0.039 0.004 0.017 0.01
O7 0.046 0.135 0.083 0.058 0.045 0.057
O8 0.063 0.067 0.05 0.038 0.036 0.031
Mn7 0.0249 0.0428 0.0375 0.0133 0.0166 0.0153
Mn1 0.0249 0.0428 0.0375 0.0133 0.0166 0.0153
C1 0.05 0.085 0.061 -0.022 0.017 0.023
C2 0.059 0.083 0.066 -0.002 0.026 0.031
C8 0.038 0.039 0.051 0.005 0.02 0.018
C9 0.047 0.063 0.047 0 0.009 0.027
C12 0.046 0.06 0.04 0.005 0.018 0.016
C13 0.044 0.053 0.053 0.008 0.021 0.018
C32 0.035 0.07 0.042 0.001 0.012 0.012
C35 0.035 0.058 0.053 -0.005 0.009 0.017
C36 0.038 0.059 0.06 0.003 0.023 0.016
C37 0.041 0.047 0.047 0.03 0.024 0.024
C38 0.034 0.05 0.055 0.024 0.024 0.021
C39 0.047 0.079 0.081 0.057 0.047 0.048
C40 0.046 0.068 0.073 0.047 0.039 0.039
C41 0.044 0.061 0.08 0.054 0.042 0.038
C42 0.039 0.045 0.053 0.011 0.026 0.02
C43 0.036 0.048 0.045 0.023 0.02 0.023
C44 0.036 0.042 0.043 0.008 0.008 0.018
N1 0.032 0.048 0.047 0 0.014 0.017
N3 0.034 0.058 0.064 0.029 0.027 0.028
N5 0.038 0.059 0.081 0.031 0.041 0.028
O1 0.036 0.06 0.065 0.025 0.03 0.023
O2 0.046 0.06 0.058 0.029 0.031 0.025
O3 0.066 0.06 0.076 0.044 0.033 0.04
O4 0.045 0.087 0.116 0.052 0.045 0.044
C82 0.046 0.044 0.061 -0.001 0.022 0.009
C85 0.04 0.047 0.058 0.005 0.025 0.006
C86 0.037 0.079 0.042 0.004 0.014 0.023
C87 0.031 0.074 0.069 -0.02 0.015 0.011
C88 0.07 0.08 0.078 -0.023 0.022 0.03
C89 0.073 0.084 0.103 -0.036 0.021 0.025
C90 0.05 0.067 0.079 -0.028 0.017 0.012
C91 0.037 0.057 0.052 -0.016 0.01 0.019
C92 0.027 0.042 0.053 -0.005 0.012 0.012
C93 0.028 0.056 0.045 -0.001 0.013 0.019
C94 0.028 0.058 0.047 0.002 0.02 0.016
C95 0.048 0.046 0.047 0.013 0.023 0.015
C96 0.047 0.043 0.054 0.004 0.017 0.016
C99 0.054 0.056 0.052 0.006 0.025 0.013
N12 0.036 0.061 0.088 0.042 0.041 0.028
N14 0.026 0.049 0.041 -0.003 0.011 0.014
N16 0.039 0.092 0.054 0.014 0.021 0.046
N17 0.039 0.056 0.056 0.001 0.022 0.015
N18 0.035 0.056 0.05 0 0.024 0.011
O23 0.063 0.067 0.05 0.038 0.036 0.031
C78 0.058 0.061 0.057 -0.002 0.011 0.029
C79 0.037 0.046 0.055 0.001 0.023 0.017
C83 0.042 0.062 0.046 0.001 0.016 0.016
C84 0.029 0.049 0.059 -0.003 0.015 0.013
C97 0.032 0.056 0.049 -0.002 0.013 0.022
C98 0.055 0.059 0.048 -0.006 0.026 0.006
C101 0.048 0.042 0.059 -0.006 0.019 0.006
C102 0.033 0.052 0.046 -0.001 0.009 0.018
C10 0.058 0.061 0.057 -0.002 0.011 0.029
C11 0.037 0.046 0.055 0.001 0.023 0.017
C15 0.042 0.062 0.046 0.001 0.016 0.016
C16 0.029 0.049 0.059 -0.003 0.015 0.013
C29 0.032 0.056 0.049 -0.002 0.013 0.022
C30 0.055 0.059 0.048 -0.006 0.026 0.006
C33 0.048 0.042 0.059 -0.006 0.019 0.006
C34 0.033 0.052 0.046 -0.001 0.009 0.018
C53 0.041 0.047 0.047 0.03 0.024 0.024
C54 0.034 0.05 0.055 0.024 0.024 0.021
C55 0.047 0.079 0.081 0.057 0.047 0.048
C56 0.046 0.068 0.073 0.047 0.039 0.039
C57 0.044 0.061 0.08 0.054 0.042 0.038
C58 0.039 0.045 0.053 0.011 0.026 0.02
C59 0.036 0.048 0.045 0.023 0.02 0.023
C60 0.036 0.042 0.043 0.008 0.008 0.018
O9 0.036 0.06 0.065 0.025 0.03 0.023
O10 0.046 0.06 0.058 0.029 0.031 0.025
O11 0.066 0.06 0.076 0.044 0.033 0.04
O12 0.045 0.087 0.116 0.052 0.045 0.044
C65 0.038 0.076 0.047 0.037 0.028 0.038
C66 0.029 0.057 0.039 0.013 0.019 0.019
C68 0.039 0.047 0.039 0.004 0.017 0.01
O15 0.046 0.135 0.083 0.058 0.045 0.057
Mn8 0.0249 0.042 0.0385 0.0129 0.013 0.019
C14 0.046 0.044 0.061 -0.001 0.022 0.009
C17 0.04 0.047 0.058 0.005 0.025 0.006
C18 0.037 0.079 0.042 0.004 0.014 0.023
C19 0.031 0.074 0.069 -0.02 0.015 0.011
C20 0.07 0.08 0.078 -0.023 0.022 0.03
C21 0.073 0.084 0.103 -0.036 0.021 0.025
C22 0.05 0.067 0.079 -0.028 0.017 0.012
C23 0.037 0.057 0.052 -0.016 0.01 0.019
C24 0.027 0.042 0.053 -0.005 0.012 0.012
C25 0.028 0.056 0.045 -0.001 0.013 0.019
C26 0.028 0.058 0.047 0.002 0.02 0.016
C27 0.048 0.046 0.047 0.013 0.023 0.015
C28 0.047 0.043 0.054 0.004 0.017 0.016
C31 0.054 0.056 0.052 0.006 0.025 0.013
C45 0.034 0.058 0.049 0.012 0.018 0.021
C46 0.037 0.059 0.04 0.02 0.021 0.024
C47 0.041 0.079 0.055 0.031 0.035 0.039
C48 0.038 0.071 0.058 0.039 0.029 0.036
C51 0.034 0.05 0.041 0.011 0.017 0.02
N2 0.036 0.061 0.088 0.042 0.041 0.028
N4 0.026 0.049 0.041 -0.003 0.011 0.014
N6 0.039 0.092 0.054 0.014 0.021 0.046
N7 0.039 0.056 0.056 0.001 0.022 0.015
N8 0.035 0.056 0.05 0 0.024 0.011
O5 0.037 0.071 0.06 0.026 0.02 0.035
O6 0.046 0.07 0.049 0.029 0.022 0.032
C69 0.05 0.085 0.061 -0.022 0.017 0.023
C70 0.059 0.083 0.066 -0.002 0.026 0.031
C76 0.038 0.039 0.051 0.005 0.02 0.018
C77 0.047 0.063 0.047 0 0.009 0.027
C80 0.046 0.06 0.04 0.005 0.018 0.016
C81 0.044 0.053 0.053 0.008 0.021 0.018
C100 0.035 0.07 0.042 0.001 0.012 0.012
C103 0.035 0.058 0.053 -0.005 0.009 0.017
C104 0.038 0.059 0.06 0.003 0.023 0.016
N11 0.032 0.048 0.047 0 0.014 0.017
N13 0.034 0.058 0.064 0.029 0.027 0.028
N15 0.038 0.059 0.081 0.031 0.041 0.028
C71 0.079 0.118 0.057 -0.019 0.017 0.049
C72 0.048 0.089 0.051 -0.007 0.007 0.031
C73 0.045 0.049 0.04 0.002 0.018 0.015
C74 0.026 0.055 0.043 -0.001 0.008 0.013
C75 0.028 0.049 0.035 0.013 0.006 0.015
N19 0.041 0.067 0.053 -0.001 0.012 0.03
N20 0.039 0.063 0.056 -0.003 0.01 0.021
loop_
_geom_bond_atom_site_label_1
_geom_bond_atom_site_label_2
_geom_bond_site_symmetry_1
_geom_bond_site_symmetry_2
H3 C3 1_555 1_555
C4 C3 1_555 1_555
H4 C4 1_555 1_555
C5 C4 1_555 1_555
C6 C5 1_555 1_555
N9 C7 1_555 1_555
H32 N9 1_555 1_555
N10 C6 1_555 1_555
N9 N10 1_555 1_555
C61 C62 1_555 1_555
C62 C63 1_555 1_555
C63 H36 1_555 1_555
C67 C62 1_555 1_555
H38 C67 1_555 1_555
O13 C61 1_555 1_555
O14 C61 1_555 1_555
Mn9 O13 1_555 1_555
C63 C64 1_555 1_555
O14 Mn9 1_555 1_555
H29 C49 1_555 1_555
C50 C49 1_555 1_555
C52 C50 1_555 1_555
O7 C52 1_555 1_555
O8 C52 1_555 1_555
Mn7 O8 1_555 1_555
Mn1 N1 1_555 1_555
C1 H1 1_555 1_555
C2 C1 1_555 1_555
H2 C2 1_555 1_555
C8 C9 1_555 1_555
H7 C12 1_555 1_555
C13 C8 1_555 1_555
H8 C13 1_555 1_555
C32 H21 1_555 1_555
H23 C35 1_555 1_555
C36 C35 1_555 1_555
H24 C36 1_555 1_555
C37 C38 1_555 1_555
C38 C39 1_555 1_555
C39 H25 1_555 1_555
C40 C39 1_555 1_555
C41 C40 1_555 1_555
H26 C41 1_555 1_555
C42 C41 1_555 1_555
C43 C38 1_555 1_555
H27 C43 1_555 1_555
C44 C42 1_555 1_555
N3 Mn1 1_555 1_555
N5 Mn1 1_555 1_555
O1 Mn1 1_555 1_555
O2 Mn1 1_555 1_555
O3 C44 1_555 1_555
O4 C44 1_555 1_555
Mn9 O3 1_555 1_555
C82 H47 1_555 1_555
C86 C85 1_555 1_555
H50 C86 1_555 1_555
C87 H51 1_555 1_555
C88 C87 1_555 1_555
H52 C88 1_555 1_555
C89 C88 1_555 1_555
H53 C89 1_555 1_555
C90 C89 1_555 1_555
H54 C90 1_555 1_555
C91 C90 1_555 1_555
C92 C91 1_555 1_555
C93 C94 1_555 1_555
C94 C95 1_555 1_555
C95 H55 1_555 1_555
C96 C95 1_555 1_555
H56 C96 1_555 1_555
C99 C94 1_555 1_555
H58 C99 1_555 1_555
N12 Mn9 1_555 1_555
N14 Mn9 1_555 1_555
N16 Mn9 1_555 1_555
N17 C92 1_555 1_555
N18 C93 1_555 1_555
H63 N18 1_555 1_555
O23 Mn1 1_555 1_555
C1 N5 1_555 1_555
C12 C13 1_555 1_555
C32 N3 1_555 1_555
C36 N3 1_555 1_555
C37 O1 1_555 1_555
C37 O2 1_555 1_555
C42 C43 1_555 1_555
C82 N12 1_555 1_555
C86 N12 1_555 1_555
C87 N16 1_555 1_555
C91 N16 1_555 1_555
C92 N14 1_555 1_555
C93 N14 1_555 1_555
N17 N18 1_555 1_555
H44 C78 1_555 1_555
C79 C78 1_555 1_555
H48 C83 1_555 1_555
C84 C79 1_555 1_555
C98 C97 1_555 1_555
H57 C98 1_555 1_555
H60 C101 1_555 1_555
C102 C97 1_555 1_555
C83 C84 1_555 1_555
C101 C102 1_555 1_555
H6 C10 1_555 1_555
C11 C10 1_555 1_555
H10 C15 1_555 1_555
C16 C11 1_555 1_555
C30 C29 1_555 1_555
H19 C30 1_555 1_555
H22 C33 1_555 1_555
C34 C29 1_555 1_555
C53 C54 1_555 1_555
C54 C55 1_555 1_555
C55 H33 1_555 1_555
C57 C56 1_555 1_555
H34 C57 1_555 1_555
C58 C57 1_555 1_555
C59 C54 1_555 1_555
H35 C59 1_555 1_555
C60 C58 1_555 1_555
O9 C53 1_555 1_555
O10 C53 1_555 1_555
O11 C60 1_555 1_555
O12 C60 1_555 1_555
H37 C65 1_555 1_555
C66 C65 1_555 1_555
C68 C66 1_555 1_555
O15 C68 1_555 1_555
O23 C68 1_555 1_555
Mn7 O9 1_555 1_555
Mn8 O11 1_555 1_555
C15 C16 1_555 1_555
C33 C34 1_555 1_555
C55 C56 1_555 1_555
C58 C59 1_555 1_555
O10 Mn7 1_555 1_555
Mn8 N2 1_555 1_555
C14 H9 1_555 1_555
C18 C17 1_555 1_555
H12 C18 1_555 1_555
C19 H13 1_555 1_555
C20 C19 1_555 1_555
H14 C20 1_555 1_555
C21 C20 1_555 1_555
H15 C21 1_555 1_555
C22 C21 1_555 1_555
H16 C22 1_555 1_555
C23 C22 1_555 1_555
C24 C23 1_555 1_555
C25 C26 1_555 1_555
C26 C27 1_555 1_555
C27 H17 1_555 1_555
C28 C27 1_555 1_555
H18 C28 1_555 1_555
C31 C26 1_555 1_555
H20 C31 1_555 1_555
C45 C46 1_555 1_555
C46 C47 1_555 1_555
C47 H28 1_555 1_555
C48 C47 1_555 1_555
C51 C46 1_555 1_555
H30 C51 1_555 1_555
N2 C14 1_555 1_555
N4 Mn8 1_555 1_555
N6 Mn8 1_555 1_555
N7 C24 1_555 1_555
N8 C25 1_555 1_555
H31 N8 1_555 1_555
O5 Mn8 1_555 1_555
O6 Mn8 1_555 1_555
Mn7 N11 1_555 1_555
C69 H39 1_555 1_555
C70 C69 1_555 1_555
H40 C70 1_555 1_555
C76 C77 1_555 1_555
H45 C80 1_555 1_555
C81 C76 1_555 1_555
H46 C81 1_555 1_555
C100 H59 1_555 1_555
H61 C103 1_555 1_555
C104 C103 1_555 1_555
H62 C104 1_555 1_555
N13 Mn7 1_555 1_555
N15 Mn7 1_555 1_555
C18 N2 1_555 1_555
C19 N6 1_555 1_555
C23 N6 1_555 1_555
C24 N4 1_555 1_555
C25 N4 1_555 1_555
C45 O5 1_555 1_555
C45 O6 1_555 1_555
N7 N8 1_555 1_555
C69 N15 1_555 1_555
C80 C81 1_555 1_555
C100 N13 1_555 1_555
C104 N13 1_555 1_555
H41 C71 1_555 1_555
C72 C71 1_555 1_555
H42 C72 1_555 1_555
C73 C72 1_555 1_555
C74 C73 1_555 1_555
N19 C75 1_555 1_555
H64 N19 1_555 1_555
N20 C74 1_555 1_555
N19 N20 1_555 1_555

#END
